
###############################################################################
#
# This file contains modified crystal structure data generated from the
# MOF subset of the Cambridge Structural Database (CSD) v543 
# hosted by the Cambridge Crystallographic Data Centre (CCDC).
#
# This work is licensed under the Creative Commons
# Attribution-NonCommercial-ShareAlike 4.0 International License.
# To view a copy of this license, visit
# http://creativecommons.org/licenses/by-nc-sa/4.0/
# or send a letter to
# Creative Commons, PO Box 1866, Mountain View, CA 94042, USA.
#
# CIF created using the CSD Python API on 29 September 2022
# The structure has been converted into the P1 space group
# The structure has a 3D framework
# The original CSD entry COPXOV is in the monoclinic crystal system
# The framework has been calculated to contain at least 10.0% void space
# The void calculation uses a probe of radius 1.32A, grid spacing 0.4
#
###############################################################################

data_COPXOV
_chemical_formula_moiety         '(C576 H528 Co22 N48 O94)n'
_symmetry_cell_setting           triclinic
_symmetry_space_group_name_H-M   'P 1'
_symmetry_Int_Tables_number      1
_space_group_name_Hall           'P 1'
loop_
_symmetry_equiv_pos_site_id
_symmetry_equiv_pos_as_xyz
1 x,y,z
_cell_length_a                   23.8309(11)
_cell_length_b                   13.3997(6)
_cell_length_c                   46.339(2)
_cell_angle_alpha                90
_cell_angle_beta                 98.8000(10)
_cell_angle_gamma                90
_cell_volume                     14623.1
loop_
_atom_site_label
_atom_site_type_symbol
_atom_site_fract_x
_atom_site_fract_y
_atom_site_fract_z
O8 O 0.29801(14) 0.0376(2) 0.24256(6)
H14 H 0.2929 0.0323 0.1841
C22 C 0.3201(3) 0.0243(5) 0.12452(16)
H17 H 0.3366 0.0612 0.1415
H18 H 0.3203 0.0648 0.1074
C23 C 0.2273(3) 0.0906(5) 0.13120(14)
H19 H 0.2264 0.1313 0.1141
H20 H 0.2463 0.1259 0.1479
H21 H 0.1891 0.0754 0.1341
Co6 Co 0.017953(18) 0.03105(3) 0.043775(9)
O29 O 0.29314(11) 0.12857(17) 0.30257(5)
N15 N 0.40365(14) 0.0621(2) 0.28922(7)
O31 O 0.00646(11) 0.14298(19) 0.07796(5)
N16 N 0.09838(11) 0.1042(2) 0.04176(6)
Co1 Co 0.178582(18) 0.53078(3) 0.120003(9)
Co2 Co 0.17828(2) 0.49716(3) 0.210122(9)
O1 O 0.18597(10) 0.63958(18) 0.08464(5)
O2 O 0.15107(12) 0.49136(19) 0.07392(5)
O3 O 0.05223(10) 0.90057(17) 0.03332(5)
O5 O 0.21541(11) 0.62729(18) 0.15023(5)
O6 O 0.20686(11) 0.62857(17) 0.19743(5)
O7 O 0.33163(12) 0.8906(2) 0.25594(5)
O9 O 0.14132(12) 0.40355(19) 0.17941(5)
O10 O 0.14995(10) 0.39766(17) 0.13239(5)
N1 N 0.09831(11) 0.6046(2) 0.12303(6)
N3 N 0.25871(13) 0.4241(2) 0.20751(7)
N4 N 0.59635(14) 0.0621(2) 0.21078(7)
N6 N 0.43543(12) 0.4690(2) 0.04335(6)
C1 C 0.12734(14) 0.6190(3) 0.03836(7)
C2 C 0.10630(13) 0.7156(2) 0.03681(7)
H1 H 0.1148 0.7585 0.0527
C3 C 0.07252(13) 0.7481(2) 0.01156(7)
C6 C 0.11475(15) 0.5563(3) 0.01423(7)
H3 H 0.1281 0.4909 0.0156
C7 C 0.15769(14) 0.5807(3) 0.06690(7)
C8 C 0.04445(13) 0.8488(2) 0.01051(7)
C13 C 0.24257(15) 0.7719(2) 0.17751(7)
C14 C 0.24134(16) 0.8310(3) 0.15259(7)
H13 H 0.2277 0.8041 0.1344
C15 C 0.26029(18) 0.9297(3) 0.15457(8)
C16 C 0.2811(2) 0.9661(3) 0.18218(8)
C17 C 0.28489(18) 0.9073(3) 0.20709(8)
C18 C 0.26503(17) 0.8097(3) 0.20457(7)
H15 H 0.2669 0.7698 0.2211
C19 C 0.21957(14) 0.6674(2) 0.17459(7)
C20 C 0.30689(18) 0.9480(3) 0.23674(8)
C21 C 0.2583(3) 0.9957(3) 0.12734(10)
H16 H 0.3419 0.9649 0.1229
C24 C 0.2353(5) 0.9432(6) 0.10008(12)
H22 H 0.1962 0.9268 0.1003
H23 H 0.2566 0.8831 0.0985
H24 H 0.2383 0.9855 0.0837
C25 C 0.11043(14) 0.2590(2) 0.15339(7)
C26 C 0.08298(14) 0.2231(3) 0.12706(7)
H25 H 0.0798 0.2627 0.1104
C27 C 0.06006(15) 0.1274(3) 0.12551(7)
C28 C 0.06609(17) 0.0683(3) 0.15054(8)
H26 H 0.0518 0.0036 0.1492
C29 C 0.09272(18) 0.1029(3) 0.17746(8)
C30 C 0.11423(16) 0.2002(3) 0.17840(7)
H27 H 0.1315 0.2263 0.1962
C31 C 0.13634(13) 0.3616(2) 0.15522(7)
C32 C 0.03325(15) 0.0856(3) 0.09655(8)
C33 C 0.0978(2) 0.0361(4) 0.20463(10)
C34 C 0.0389(3) 0.0153(5) 0.21173(14)
H30 H 0.0228 0.0759 0.2179
C36 C 0.1356(4) 0.0815(6) 0.23056(12)
H34 H 0.1168 0.1378 0.2376
H35 H 0.1706 0.1028 0.2247
H36 H 0.1434 0.0326 0.2458
C37 C 0.09313(14) 0.7030(3) 0.11817(8)
H37 H 0.1246 0.7379 0.1139
C38 C 0.04358(14) 0.7551(3) 0.11920(9)
H38 H 0.0421 0.8233 0.1154
C40 C 0.00186(14) 0.6042(3) 0.13125(9)
C41 C 0.05264(14) 0.5569(3) 0.12959(8)
H40 H 0.0552 0.4887 0.1332
C49 C 0.26501(17) 0.3260(3) 0.21394(9)
H47 H 0.2340 0.2916 0.2189
C50 C 0.31473(18) 0.2743(3) 0.21349(9)
H48 H 0.3171 0.2069 0.2184
C51 C 0.36117(17) 0.3235(3) 0.20572(9)
C52 C 0.35421(17) 0.4239(3) 0.19854(9)
H49 H 0.3841 0.4596 0.1928
C53 C 0.30340(16) 0.4703(3) 0.19985(9)
H50 H 0.3001 0.5378 0.1951
C54 C 0.41641(18) 0.2768(3) 0.20495(9)
H51 H 0.4447 0.3179 0.1997
C55 C 0.43068(18) 0.1833(3) 0.21082(9)
H52 H 0.4028 0.1402 0.2154
C56 C 0.48781(18) 0.1427(3) 0.21058(9)
C57 C 0.4974(2) 0.0411(3) 0.21180(11)
C58 C 0.5515(2) 0.0044(3) 0.21141(12)
C59 C 0.58761(18) 0.1596(3) 0.21015(10)
H55 H 0.6185 0.2018 0.2097
C60 C 0.53479(18) 0.2015(3) 0.21012(11)
H56 H 0.5309 0.2705 0.2098
C61 C 0.14410(15) 0.0565(3) 0.03539(8)
C62 C 0.19475(15) 0.1032(3) 0.03372(8)
H58 H 0.2251 0.0668 0.0288
C63 C 0.20073(15) 0.2045(3) 0.03939(8)
C64 C 0.15317(15) 0.2547(3) 0.04595(8)
H59 H 0.1548 0.3228 0.0499
C65 C 0.10407(15) 0.2029(3) 0.04657(8)
H60 H 0.0725 0.2381 0.0506
C66 C 0.25614(15) 0.2526(3) 0.03860(8)
H61 H 0.2850 0.2112 0.0342
C67 C 0.26975(15) 0.3470(3) 0.04342(8)
H62 H 0.2413 0.3905 0.0471
C68 C 0.32672(14) 0.3881(3) 0.04330(8)
C69 C 0.37430(16) 0.3286(3) 0.04477(10)
H63 H 0.3708 0.2596 0.0458
C70 C 0.42688(16) 0.3709(3) 0.04475(9)
H64 H 0.4582 0.3288 0.0458
C71 C 0.38933(15) 0.5266(3) 0.04211(9)
H65 H 0.3939 0.5954 0.0410
C72 C 0.33537(16) 0.4897(3) 0.04241(9)
H66 H 0.3049 0.5333 0.0420
N7 N 0.59831(11) 0.1046(2) 0.12303(6)
N8 N 0.26136(12) 0.4695(2) 0.11957(6)
C73 C 0.59313(14) 0.2030(3) 0.11817(8)
H67 H 0.6246 0.2379 0.1139
C74 C 0.54358(14) 0.2551(3) 0.11920(9)
H68 H 0.5421 0.3233 0.1154
C75 C 0.49597(14) 0.2059(2) 0.12582(8)
C76 C 0.50186(14) 0.1042(3) 0.13125(9)
H69 H 0.4714 0.0678 0.1360
C77 C 0.55264(14) 0.0569(3) 0.12959(8)
C78 C 0.44170(16) 0.2540(3) 0.12668(9)
H71 H 0.4133 0.2133 0.1320
C79 C 0.42742(15) 0.3478(3) 0.12097(8)
H72 H 0.4556 0.3909 0.1167
C80 C 0.37047(15) 0.3893(3) 0.12086(8)
C81 C 0.36095(16) 0.4906(3) 0.11943(9)
H73 H 0.3910 0.5342 0.1186
C82 C 0.30667(16) 0.5276(3) 0.11921(9)
H74 H 0.3015 0.5964 0.1188
C83 C 0.27039(16) 0.3714(3) 0.12050(9)
H75 H 0.2395 0.3293 0.1208
C84 C 0.32285(16) 0.3293(3) 0.12097(10)
H76 H 0.3267 0.2602 0.1214
Co4 Co 0.678582(18) 0.03078(3) 0.120003(9)
Co5 Co 0.32172(2) 0.99716(3) 0.289878(9)
O13 O 0.28459(11) 0.12729(18) 0.34977(5)
O15 O 0.16837(12) 0.3906(2) 0.24406(5)
O16 O 0.20199(14) 0.5376(2) 0.25744(6)
C85 C 0.25743(15) 0.2719(2) 0.32249(7)
C86 C 0.25866(16) 0.3310(3) 0.34741(7)
H77 H 0.2723 0.3041 0.3656
C87 C 0.23971(18) 0.4297(3) 0.34543(8)
C88 C 0.2189(2) 0.4661(3) 0.31782(8)
H78 H 0.2071 0.5323 0.3159
C89 C 0.21511(18) 0.4073(3) 0.29291(8)
C90 C 0.23497(17) 0.3097(3) 0.29543(7)
H79 H 0.2331 0.2698 0.2789
C91 C 0.28043(14) 0.1674(2) 0.32541(7)
C92 C 0.19311(18) 0.4480(3) 0.26326(8)
C93 C 0.2417(3) 0.4957(3) 0.37266(10)
C94 C 0.1799(3) 0.5243(5) 0.37548(16)
H80 H 0.1581 0.4649 0.3771
H81 H 0.1634 0.5612 0.3585
H82 H 0.1797 0.5648 0.3926
C95 C 0.2727(3) 0.5906(5) 0.36880(14)
H83 H 0.2736 0.6313 0.3859
H84 H 0.2537 0.6259 0.3521
H85 H 0.3109 0.5754 0.3659
C96 C 0.2647(5) 0.4432(6) 0.39992(12)
H86 H 0.3038 0.4268 0.3997
H87 H 0.2434 0.3831 0.4015
H88 H 0.2617 0.4855 0.4163
N10 N 0.09635(14) 0.5621(2) 0.21078(7)
C106 C 0.0515(2) 0.5044(3) 0.21141(12)
H96 H 0.0567 0.4356 0.2116
C107 C 0.08761(18) 0.6596(3) 0.21015(10)
H97 H 0.1185 0.7018 0.2097
C108 C 0.03479(18) 0.7015(3) 0.21012(11)
H98 H 0.0309 0.7705 0.2098
Co10 Co 0.517953(18) 0.53105(3) 0.043775(9)
O26 O 0.68597(10) 0.13958(18) 0.08464(5)
O28 O 0.71541(11) 0.12729(18) 0.15023(5)
O30 O 0.35868(12) 0.90355(19) 0.32059(5)
N14 N 0.24129(13) 0.9241(2) 0.29249(7)
O32 O 0.04098(12) 0.9962(2) 0.09084(6)
Co11 Co 0.321418(18) 0.03078(3) 0.379997(9)
O4 O 0.01379(11) 0.87277(18) 0.98740(5)
C4 C 0.06234(14) 0.6849(2) 0.98730(7)
H2 H 0.0412 0.7084 0.9701
C5 C 0.08301(15) 0.5879(3) 0.98817(7)
C9 C 0.0709(2) 0.5174(3) 0.96191(9)
C10 C 0.0270(4) 0.5596(5) 0.93823(14)
H4 H 0.0436 0.6125 0.9284
H6 H 0.0138 0.5080 0.9245
C11 C 0.1259(3) 0.4969(5) 0.95051(15)
H7 H 0.1195 0.4484 0.9351
H8 H 0.1536 0.4718 0.9661
H9 H 0.1397 0.5576 0.9431
C12 C 0.0483(3) 0.4175(4) 0.97101(12)
H10 H 0.0161 0.4288 0.9808
H11 H 0.0775 0.3838 0.9840
H12 H 0.0371 0.3772 0.9540
H28 H 0.0413 0.9668 0.2271
H29 H 0.0152 0.9899 0.1947
C35 C 0.1241(3) 0.9355(4) 0.19774(14)
H31 H 0.1299 0.8949 0.2150
H32 H 0.1599 0.9470 0.1912
H33 H 0.0989 0.9018 0.1827
H53 H 0.4675 0.9974 0.2129
H54 H 0.5567 0.9356 0.2116
H57 H 0.1415 0.9882 0.0319
H70 H 0.5552 0.9887 0.1332
O21 O 0.64132(12) 0.90355(19) 0.17941(5)
O22 O 0.64995(10) 0.89766(17) 0.13239(5)
O23 O 0.50646(11) 0.64298(19) 0.07796(5)
O24 O 0.54098(12) 0.4962(2) 0.09084(6)
C133 C 0.61043(14) 0.7590(2) 0.15339(7)
C134 C 0.58298(14) 0.7231(3) 0.12706(7)
H121 H 0.5798 0.7627 0.1104
C135 C 0.56006(15) 0.6274(3) 0.12551(7)
C136 C 0.56609(17) 0.5683(3) 0.15054(8)
H122 H 0.5518 0.5036 0.1492
C137 C 0.59272(18) 0.6029(3) 0.17746(8)
C138 C 0.61423(16) 0.7002(3) 0.17840(7)
H123 H 0.6315 0.7263 0.1962
C139 C 0.63634(13) 0.8616(2) 0.15522(7)
C140 C 0.53325(15) 0.5856(3) 0.09655(8)
C141 C 0.5978(2) 0.5361(4) 0.20463(10)
C142 C 0.5389(3) 0.5153(5) 0.21173(14)
H124 H 0.5413 0.4668 0.2271
H125 H 0.5152 0.4899 0.1947
H126 H 0.5228 0.5759 0.2179
C143 C 0.6241(3) 0.4355(4) 0.19774(14)
H127 H 0.6299 0.3949 0.2150
H128 H 0.6599 0.4470 0.1912
H129 H 0.5989 0.4018 0.1827
C144 C 0.6356(4) 0.5815(6) 0.23056(12)
H130 H 0.6168 0.6378 0.2376
H131 H 0.6706 0.6028 0.2247
H132 H 0.6434 0.5326 0.2458
Co9 Co 0.67828(2) 0.99716(3) 0.210122(9)
O27 O 0.65107(12) 0.99136(19) 0.07392(5)
N13 N 0.76136(12) 0.9695(2) 0.11957(6)
H43 H 0.8910 0.0342 0.1186
C46 C 0.80667(16) 0.0276(3) 0.11921(9)
H44 H 0.8015 0.0964 0.1188
H92 H 0.8001 0.0378 0.1951
O33 O 0.98621(11) 0.12723(18) 0.01260(5)
C39 C 0.99597(14) 0.7059(2) 0.12582(8)
H39 H 0.9714 0.5678 0.1360
C42 C 0.94170(16) 0.7540(3) 0.12668(9)
H41 H 0.9133 0.7133 0.1320
C43 C 0.92742(15) 0.8478(3) 0.12097(8)
H42 H 0.9556 0.8909 0.1167
C44 C 0.87047(15) 0.8893(3) 0.12086(8)
C45 C 0.86095(16) 0.9906(3) 0.11943(9)
C47 C 0.77039(16) 0.8714(3) 0.12050(9)
H45 H 0.7395 0.8293 0.1208
C48 C 0.82285(16) 0.8293(3) 0.12097(10)
H46 H 0.8267 0.7602 0.1214
N9 N 0.75871(13) 0.9241(2) 0.20751(7)
C97 C 0.76501(17) 0.8260(3) 0.21394(9)
H89 H 0.7340 0.7916 0.2189
C98 C 0.81473(18) 0.7743(3) 0.21349(9)
H90 H 0.8171 0.7069 0.2184
C99 C 0.86117(17) 0.8235(3) 0.20572(9)
C100 C 0.85421(17) 0.9239(3) 0.19854(9)
H91 H 0.8841 0.9596 0.1928
C101 C 0.80340(16) 0.9703(3) 0.19985(9)
C102 C 0.91641(18) 0.7768(3) 0.20495(9)
H93 H 0.9447 0.8179 0.1997
C103 C 0.93068(18) 0.6833(3) 0.21082(9)
H94 H 0.9028 0.6402 0.2154
C104 C 0.98781(18) 0.6427(3) 0.21058(9)
C105 C 0.9974(2) 0.5411(3) 0.21180(11)
H95 H 0.9675 0.4974 0.2129
C131 C 0.88933(15) 0.0266(3) 0.04211(9)
H119 H 0.8939 0.0954 0.0410
H120 H 0.8049 0.0333 0.0420
N17 N 0.93543(12) 0.9690(2) 0.04335(6)
H5 H 0.9956 0.5853 0.9467
Co7 Co 0.982047(18) 0.96895(3) 0.956225(9)
N11 N 0.59838(11) 0.6042(2) 0.04176(6)
C121 C 0.64410(15) 0.5565(3) 0.03539(8)
H111 H 0.6415 0.4882 0.0319
C122 C 0.69475(15) 0.6032(3) 0.03372(8)
H112 H 0.7251 0.5668 0.0288
C123 C 0.70073(15) 0.7045(3) 0.03939(8)
C124 C 0.65317(15) 0.7547(3) 0.04595(8)
H113 H 0.6548 0.8228 0.0499
C125 C 0.60407(15) 0.7029(3) 0.04657(8)
H114 H 0.5725 0.7381 0.0506
C126 C 0.75614(15) 0.7526(3) 0.03860(8)
H115 H 0.7850 0.7112 0.0342
C127 C 0.76975(15) 0.8470(3) 0.04342(8)
H116 H 0.7413 0.8905 0.0471
C128 C 0.82672(14) 0.8881(3) 0.04330(8)
C129 C 0.87430(16) 0.8286(3) 0.04477(10)
H117 H 0.8708 0.7596 0.0458
C130 C 0.92688(16) 0.8709(3) 0.04475(9)
H118 H 0.9582 0.8288 0.0458
C132 C 0.83537(16) 0.9897(3) 0.04241(9)
H43_2 H 0.1090 0.0342 0.3814
C46_2 C 0.19333(16) 0.0276(3) 0.38079(9)
H44_2 H 0.1985 0.0964 0.3812
H92_2 H 0.1999 0.0378 0.3049
O33_2 O 0.01379(11) 0.12723(18) 0.48740(5)
N2 N 0.23864(12) 0.9695(2) 0.38043(6)
H5_2 H 0.0044 0.5853 0.5533
C39_2 C 0.00403(14) 0.7059(2) 0.37418(8)
H39_2 H 0.0286 0.5678 0.3640
C42_2 C 0.05830(16) 0.7540(3) 0.37332(9)
H41_2 H 0.0867 0.7133 0.3680
C43_2 C 0.07258(15) 0.8478(3) 0.37903(8)
H42_2 H 0.0444 0.8909 0.3833
C44_2 C 0.12953(15) 0.8893(3) 0.37914(8)
C45_2 C 0.13905(16) 0.9906(3) 0.38057(9)
C47_2 C 0.22961(16) 0.8714(3) 0.37950(9)
H45_2 H 0.2605 0.8293 0.3792
C48_2 C 0.17715(16) 0.8293(3) 0.37903(10)
H46_2 H 0.1733 0.7602 0.3786
C97_2 C 0.23499(17) 0.8260(3) 0.28606(9)
H89_2 H 0.2660 0.7916 0.2811
C98_2 C 0.18527(18) 0.7743(3) 0.28651(9)
H90_2 H 0.1829 0.7069 0.2816
C99_2 C 0.13883(17) 0.8235(3) 0.29428(9)
C100_2 C 0.14579(17) 0.9239(3) 0.30146(9)
H91_2 H 0.1159 0.9596 0.3072
C101_2 C 0.19660(16) 0.9703(3) 0.30015(9)
C102_2 C 0.08359(18) 0.7768(3) 0.29505(9)
H93_2 H 0.0553 0.8179 0.3003
C103_2 C 0.06932(18) 0.6833(3) 0.28918(9)
H94_2 H 0.0972 0.6402 0.2846
C104_2 C 0.01219(18) 0.6427(3) 0.28942(9)
C105_2 C 0.0026(2) 0.5411(3) 0.28820(11)
H95_2 H 0.0325 0.4974 0.2871
C131_2 C 0.11067(15) 0.0266(3) 0.45789(9)
H119_2 H 0.1061 0.0954 0.4590
H120_2 H 0.1951 0.0333 0.4580
Co7_2 Co 0.017953(18) 0.96895(3) 0.543775(9)
N17_2 N 0.06457(12) 0.9690(2) 0.45665(6)
N11_2 N 0.40162(11) 0.6042(2) 0.45824(6)
C121_2 C 0.35590(15) 0.5565(3) 0.46461(8)
H111_2 H 0.3585 0.4882 0.4681
C122_2 C 0.30525(15) 0.6032(3) 0.46628(8)
H112_2 H 0.2749 0.5668 0.4712
C123_2 C 0.29927(15) 0.7045(3) 0.46061(8)
C124_2 C 0.34683(15) 0.7547(3) 0.45405(8)
H113_2 H 0.3452 0.8228 0.4501
C125_2 C 0.39593(15) 0.7029(3) 0.45343(8)
H114_2 H 0.4275 0.7381 0.4494
C126_2 C 0.24386(15) 0.7526(3) 0.46140(8)
H115_2 H 0.2150 0.7112 0.4658
C127_2 C 0.23025(15) 0.8470(3) 0.45658(8)
H116_2 H 0.2587 0.8905 0.4529
C128_2 C 0.17328(14) 0.8881(3) 0.45670(8)
C129_2 C 0.12570(16) 0.8286(3) 0.45523(10)
H117_2 H 0.1292 0.7596 0.4542
C130_2 C 0.07312(16) 0.8709(3) 0.45525(9)
H118_2 H 0.0418 0.8288 0.4542
C132_2 C 0.16463(16) 0.9897(3) 0.45759(9)
Co16 Co 0.482047(18) 0.53105(3) 0.456225(9)
O8_2 O 0.70199(14) 0.0376(2) 0.25744(6)
H14_2 H 0.7071 0.0323 0.3159
C22_2 C 0.6799(3) 0.0243(5) 0.37548(16)
H17_2 H 0.6634 0.0612 0.3585
H18_2 H 0.6797 0.0648 0.3926
C23_2 C 0.7727(3) 0.0906(5) 0.36880(14)
H19_2 H 0.7736 0.1313 0.3859
H20_2 H 0.7537 0.1259 0.3521
H21_2 H 0.8109 0.0754 0.3659
Co6_2 Co 0.982047(18) 0.03105(3) 0.456225(9)
O29_2 O 0.70686(11) 0.12857(17) 0.19743(5)
O31_2 O 0.99354(11) 0.14298(19) 0.42204(5)
N16_2 N 0.90162(11) 0.1042(2) 0.45824(6)
Co1_2 Co 0.821418(18) 0.53078(3) 0.379997(9)
Co2_2 Co 0.82172(2) 0.49716(3) 0.289878(9)
O1_2 O 0.81403(10) 0.63958(18) 0.41536(5)
O2_2 O 0.84893(12) 0.49136(19) 0.42608(5)
O3_2 O 0.94777(10) 0.90057(17) 0.46668(5)
O4_2 O 0.98621(11) 0.87277(18) 0.51260(5)
O5_2 O 0.78459(11) 0.62729(18) 0.34977(5)
O6_2 O 0.79314(11) 0.62857(17) 0.30257(5)
O7_2 O 0.66837(12) 0.8906(2) 0.24406(5)
O9_2 O 0.85868(12) 0.40355(19) 0.32059(5)
O10_2 O 0.85005(10) 0.39766(17) 0.36761(5)
N1_2 N 0.90169(11) 0.6046(2) 0.37697(6)
N3_2 N 0.74129(13) 0.4241(2) 0.29249(7)
N6_2 N 0.56457(12) 0.4690(2) 0.45665(6)
C1_2 C 0.87266(14) 0.6190(3) 0.46164(7)
C2_2 C 0.89370(13) 0.7156(2) 0.46319(7)
H1_2 H 0.8852 0.7585 0.4473
C3_2 C 0.92748(13) 0.7481(2) 0.48844(7)
C4_2 C 0.93766(14) 0.6849(2) 0.51270(7)
H2_2 H 0.9588 0.7084 0.5299
C5_2 C 0.91699(15) 0.5879(3) 0.51183(7)
C6_2 C 0.88525(15) 0.5563(3) 0.48577(7)
H3_2 H 0.8719 0.4909 0.4844
C7_2 C 0.84231(14) 0.5807(3) 0.43310(7)
C8_2 C 0.95555(13) 0.8488(2) 0.48949(7)
C9_2 C 0.9291(2) 0.5174(3) 0.53809(9)
C10_2 C 0.9730(4) 0.5596(5) 0.56177(14)
H4_2 H 0.9564 0.6125 0.5716
H6_2 H 0.9862 0.5080 0.5755
C11_2 C 0.8741(3) 0.4969(5) 0.54949(15)
H7_2 H 0.8805 0.4484 0.5649
H8_2 H 0.8464 0.4718 0.5339
H9_2 H 0.8603 0.5576 0.5569
C12_2 C 0.9517(3) 0.4175(4) 0.52899(12)
H10_2 H 0.9839 0.4288 0.5192
H11_2 H 0.9225 0.3838 0.5160
H12_2 H 0.9629 0.3772 0.5460
C13_2 C 0.75743(15) 0.7719(2) 0.32249(7)
C14_2 C 0.75866(16) 0.8310(3) 0.34741(7)
H13_2 H 0.7723 0.8041 0.3656
C15_2 C 0.73971(18) 0.9297(3) 0.34543(8)
C16_2 C 0.7189(2) 0.9661(3) 0.31782(8)
C17_2 C 0.71511(18) 0.9073(3) 0.29291(8)
C18_2 C 0.73497(17) 0.8097(3) 0.29543(7)
H15_2 H 0.7331 0.7698 0.2789
C19_2 C 0.78043(14) 0.6674(2) 0.32541(7)
C20_2 C 0.69311(18) 0.9480(3) 0.26326(8)
C21_2 C 0.7417(3) 0.9957(3) 0.37266(10)
H16_2 H 0.6581 0.9649 0.3771
C24_2 C 0.7647(5) 0.9432(6) 0.39992(12)
H22_2 H 0.8038 0.9268 0.3997
H23_2 H 0.7434 0.8831 0.4015
H24_2 H 0.7617 0.9855 0.4163
C25_2 C 0.88957(14) 0.2590(2) 0.34661(7)
C26_2 C 0.91702(14) 0.2231(3) 0.37294(7)
H25_2 H 0.9202 0.2627 0.3896
C27_2 C 0.93994(15) 0.1274(3) 0.37449(7)
C28_2 C 0.93391(17) 0.0683(3) 0.34946(8)
H26_2 H 0.9482 0.0036 0.3508
C29_2 C 0.90728(18) 0.1029(3) 0.32254(8)
C30_2 C 0.88577(16) 0.2002(3) 0.32160(7)
H27_2 H 0.8685 0.2263 0.3038
C31_2 C 0.86366(13) 0.3616(2) 0.34478(7)
C32_2 C 0.96675(15) 0.0856(3) 0.40345(8)
C33_2 C 0.9022(2) 0.0361(4) 0.29537(10)
C34_2 C 0.9611(3) 0.0153(5) 0.28827(14)
H30_2 H 0.9772 0.0759 0.2821
C36_2 C 0.8644(4) 0.0815(6) 0.26944(12)
H34_2 H 0.8832 0.1378 0.2624
H35_2 H 0.8294 0.1028 0.2753
H36_2 H 0.8566 0.0326 0.2542
C37_2 C 0.90687(14) 0.7030(3) 0.38183(8)
H37_2 H 0.8754 0.7379 0.3861
C38_2 C 0.95642(14) 0.7551(3) 0.38080(9)
H38_2 H 0.9579 0.8233 0.3846
C40_2 C 0.99814(14) 0.6042(3) 0.36875(9)
C41_2 C 0.94736(14) 0.5569(3) 0.37041(8)
H40_2 H 0.9448 0.4887 0.3668
C49_2 C 0.73499(17) 0.3260(3) 0.28606(9)
H47_2 H 0.7660 0.2916 0.2811
C50_2 C 0.68527(18) 0.2743(3) 0.28651(9)
H48_2 H 0.6829 0.2069 0.2816
C51_2 C 0.63883(17) 0.3235(3) 0.29428(9)
C52_2 C 0.64579(17) 0.4239(3) 0.30146(9)
H49_2 H 0.6159 0.4596 0.3072
C53_2 C 0.69660(16) 0.4703(3) 0.30015(9)
H50_2 H 0.6999 0.5378 0.3049
C54_2 C 0.58359(18) 0.2768(3) 0.29505(9)
H51_2 H 0.5553 0.3179 0.3003
C55_2 C 0.56932(18) 0.1833(3) 0.28918(9)
H52_2 H 0.5972 0.1402 0.2846
C56_2 C 0.51219(18) 0.1427(3) 0.28942(9)
C57_2 C 0.5026(2) 0.0411(3) 0.28820(11)
C58_2 C 0.4485(2) 0.0044(3) 0.28859(12)
C59_2 C 0.41239(18) 0.1596(3) 0.28985(10)
H55_2 H 0.3815 0.2018 0.2903
C60_2 C 0.46521(18) 0.2015(3) 0.28988(11)
H56_2 H 0.4691 0.2705 0.2902
C61_2 C 0.85590(15) 0.0565(3) 0.46461(8)
C62_2 C 0.80525(15) 0.1032(3) 0.46628(8)
H58_2 H 0.7749 0.0668 0.4712
C63_2 C 0.79927(15) 0.2045(3) 0.46061(8)
C64_2 C 0.84683(15) 0.2547(3) 0.45405(8)
H59_2 H 0.8452 0.3228 0.4501
C65_2 C 0.89593(15) 0.2029(3) 0.45343(8)
H60_2 H 0.9275 0.2381 0.4494
C66_2 C 0.74386(15) 0.2526(3) 0.46140(8)
H61_2 H 0.7150 0.2112 0.4658
C67_2 C 0.73025(15) 0.3470(3) 0.45658(8)
H62_2 H 0.7587 0.3905 0.4529
C68_2 C 0.67328(14) 0.3881(3) 0.45670(8)
C69_2 C 0.62570(16) 0.3286(3) 0.45523(10)
H63_2 H 0.6292 0.2596 0.4542
C70_2 C 0.57312(16) 0.3709(3) 0.45525(9)
H64_2 H 0.5418 0.3288 0.4542
C71_2 C 0.61067(15) 0.5266(3) 0.45789(9)
H65_2 H 0.6061 0.5954 0.4590
C72_2 C 0.66463(16) 0.4897(3) 0.45759(9)
H66_2 H 0.6951 0.5333 0.4580
N7_2 N 0.40169(11) 0.1046(2) 0.37697(6)
N8_2 N 0.73864(12) 0.4695(2) 0.38043(6)
C73_2 C 0.40687(14) 0.2030(3) 0.38183(8)
H67_2 H 0.3754 0.2379 0.3861
C74_2 C 0.45642(14) 0.2551(3) 0.38080(9)
H68_2 H 0.4579 0.3233 0.3846
C75_2 C 0.50403(14) 0.2059(2) 0.37418(8)
C76_2 C 0.49814(14) 0.1042(3) 0.36875(9)
H69_2 H 0.5286 0.0678 0.3640
C77_2 C 0.44736(14) 0.0569(3) 0.37041(8)
C78_2 C 0.55830(16) 0.2540(3) 0.37332(9)
H71_2 H 0.5867 0.2133 0.3680
C79_2 C 0.57258(15) 0.3478(3) 0.37903(8)
H72_2 H 0.5444 0.3909 0.3833
C80_2 C 0.62953(15) 0.3893(3) 0.37914(8)
C81_2 C 0.63905(16) 0.4906(3) 0.38057(9)
H73_2 H 0.6090 0.5342 0.3814
C82_2 C 0.69333(16) 0.5276(3) 0.38079(9)
H74_2 H 0.6985 0.5964 0.3812
C83_2 C 0.72961(16) 0.3714(3) 0.37950(9)
H75_2 H 0.7605 0.3293 0.3792
C84_2 C 0.67715(16) 0.3293(3) 0.37903(10)
H76_2 H 0.6733 0.2602 0.3786
O15_2 O 0.83163(12) 0.3906(2) 0.25594(5)
O16_2 O 0.79801(14) 0.5376(2) 0.24256(6)
C85_2 C 0.74257(15) 0.2719(2) 0.17751(7)
C86_2 C 0.74134(16) 0.3310(3) 0.15259(7)
H77_2 H 0.7277 0.3041 0.1344
C87_2 C 0.76029(18) 0.4297(3) 0.15457(8)
C88_2 C 0.7811(2) 0.4661(3) 0.18218(8)
H78_2 H 0.7929 0.5323 0.1841
C89_2 C 0.78489(18) 0.4073(3) 0.20709(8)
C90_2 C 0.76503(17) 0.3097(3) 0.20457(7)
H79_2 H 0.7669 0.2698 0.2211
C91_2 C 0.71957(14) 0.1674(2) 0.17459(7)
C92_2 C 0.80689(18) 0.4480(3) 0.23674(8)
C93_2 C 0.7583(3) 0.4957(3) 0.12734(10)
C94_2 C 0.8201(3) 0.5243(5) 0.12452(16)
H80_2 H 0.8419 0.4649 0.1229
H81_2 H 0.8366 0.5612 0.1415
H82_2 H 0.8203 0.5648 0.1074
C95_2 C 0.7273(3) 0.5906(5) 0.13120(14)
H83_2 H 0.7264 0.6313 0.1141
H84_2 H 0.7463 0.6259 0.1479
H85_2 H 0.6891 0.5754 0.1341
C96_2 C 0.7353(5) 0.4432(6) 0.10008(12)
H86_2 H 0.6962 0.4268 0.1003
H87_2 H 0.7566 0.3831 0.0985
H88_2 H 0.7383 0.4855 0.0837
N10_2 N 0.90365(14) 0.5621(2) 0.28922(7)
C106_2 C 0.9485(2) 0.5044(3) 0.28859(12)
H96_2 H 0.9433 0.4356 0.2884
C107_2 C 0.91239(18) 0.6596(3) 0.28985(10)
H97_2 H 0.8815 0.7018 0.2903
C108_2 C 0.96521(18) 0.7015(3) 0.28988(11)
H98_2 H 0.9691 0.7705 0.2902
O26_2 O 0.31403(10) 0.13958(18) 0.41536(5)
O32_2 O 0.95902(12) 0.9962(2) 0.40916(6)
H28_2 H 0.9587 0.9668 0.2729
H29_2 H 0.9848 0.9899 0.3053
C35_2 C 0.8759(3) 0.9355(4) 0.30226(14)
H31_2 H 0.8701 0.8949 0.2850
H32_2 H 0.8401 0.9470 0.3088
H33_2 H 0.9011 0.9018 0.3173
H53_2 H 0.5325 0.9974 0.2871
H54_2 H 0.4433 0.9356 0.2884
H57_2 H 0.8585 0.9882 0.4681
H70_2 H 0.4448 0.9887 0.3668
O22_2 O 0.35005(10) 0.89766(17) 0.36761(5)
O23_2 O 0.49354(11) 0.64298(19) 0.42204(5)
O24_2 O 0.45902(12) 0.4962(2) 0.40916(6)
C133_2 C 0.38957(14) 0.7590(2) 0.34661(7)
C134_2 C 0.41702(14) 0.7231(3) 0.37294(7)
H121_2 H 0.4202 0.7627 0.3896
C135_2 C 0.43994(15) 0.6274(3) 0.37449(7)
C136_2 C 0.43391(17) 0.5683(3) 0.34946(8)
H122_2 H 0.4482 0.5036 0.3508
C137_2 C 0.40728(18) 0.6029(3) 0.32254(8)
C138_2 C 0.38577(16) 0.7002(3) 0.32160(7)
H123_2 H 0.3685 0.7263 0.3038
C139_2 C 0.36366(13) 0.8616(2) 0.34478(7)
C140_2 C 0.46675(15) 0.5856(3) 0.40345(8)
C141_2 C 0.4022(2) 0.5361(4) 0.29537(10)
C142_2 C 0.4611(3) 0.5153(5) 0.28827(14)
H124_2 H 0.4587 0.4668 0.2729
H125_2 H 0.4848 0.4899 0.3053
H126_2 H 0.4772 0.5759 0.2821
C143_2 C 0.3759(3) 0.4355(4) 0.30226(14)
H127_2 H 0.3701 0.3949 0.2850
H128_2 H 0.3401 0.4470 0.3088
H129_2 H 0.4011 0.4018 0.3173
C144_2 C 0.3644(4) 0.5815(6) 0.26944(12)
H130_2 H 0.3832 0.6378 0.2624
H131_2 H 0.3294 0.6028 0.2753
H132_2 H 0.3566 0.5326 0.2542
O27_2 O 0.34893(12) 0.99136(19) 0.42608(5)
O3_3 O 0.55223(10) 0.40057(17) 0.03332(5)
C1_3 C 0.62734(14) 0.1190(3) 0.03836(7)
C2_3 C 0.60630(13) 0.2156(2) 0.03681(7)
H1_3 H 0.6148 0.2585 0.0527
C3_3 C 0.57252(13) 0.2481(2) 0.01156(7)
C6_3 C 0.61475(15) 0.0563(3) 0.01423(7)
C7_3 C 0.65769(14) 0.0807(3) 0.06690(7)
C8_3 C 0.54445(13) 0.3488(2) 0.01051(7)
O33_3 O 0.48621(11) 0.62723(18) 0.01260(5)
O4_3 O 0.51379(11) 0.37277(18) 0.98740(5)
C4_3 C 0.56234(14) 0.1849(2) 0.98730(7)
H2_3 H 0.5412 0.2084 0.9701
C5_3 C 0.58301(15) 0.0879(3) 0.98817(7)
C9_3 C 0.5709(2) 0.0174(3) 0.96191(9)
C10_3 C 0.5270(4) 0.0596(5) 0.93823(14)
H4_3 H 0.5436 0.1125 0.9284
H5_3 H 0.4956 0.0853 0.9467
H6_3 H 0.5138 0.0080 0.9245
H9_3 H 0.6397 0.0576 0.9431
Co7_3 Co 0.482047(18) 0.46895(3) 0.956225(9)
H3_3 H 0.6281 0.9909 0.0156
C11_3 C 0.6259(3) 0.9969(5) 0.95051(15)
H7_3 H 0.6195 0.9484 0.9351
H8_3 H 0.6536 0.9718 0.9661
C12_3 C 0.5483(3) 0.9175(4) 0.97101(12)
H10_3 H 0.5161 0.9288 0.9808
H11_3 H 0.5775 0.8838 0.9840
H12_3 H 0.5371 0.8772 0.9540
O3_4 O 0.44777(10) 0.40057(17) 0.46668(5)
O4_4 O 0.48621(11) 0.37277(18) 0.51260(5)
C1_4 C 0.37266(14) 0.1190(3) 0.46164(7)
C2_4 C 0.39370(13) 0.2156(2) 0.46319(7)
H1_4 H 0.3852 0.2585 0.4473
C3_4 C 0.42748(13) 0.2481(2) 0.48844(7)
C4_4 C 0.43766(14) 0.1849(2) 0.51270(7)
H2_4 H 0.4588 0.2084 0.5299
C5_4 C 0.41699(15) 0.0879(3) 0.51183(7)
C6_4 C 0.38525(15) 0.0563(3) 0.48577(7)
C7_4 C 0.34231(14) 0.0807(3) 0.43310(7)
C8_4 C 0.45555(13) 0.3488(2) 0.48949(7)
C9_4 C 0.4291(2) 0.0174(3) 0.53809(9)
C10_4 C 0.4730(4) 0.0596(5) 0.56177(14)
H4_4 H 0.4564 0.1125 0.5716
H5_4 H 0.5044 0.0853 0.5533
H6_4 H 0.4862 0.0080 0.5755
H9_4 H 0.3603 0.0576 0.5569
Co7_4 Co 0.517953(18) 0.46895(3) 0.543775(9)
O33_4 O 0.51379(11) 0.62723(18) 0.48740(5)
H3_4 H 0.3719 0.9909 0.4844
C11_4 C 0.3741(3) 0.9969(5) 0.54949(15)
H7_4 H 0.3805 0.9484 0.5649
H8_4 H 0.3464 0.9718 0.5339
C12_4 C 0.4517(3) 0.9175(4) 0.52899(12)
H10_4 H 0.4839 0.9288 0.5192
H11_4 H 0.4225 0.8838 0.5160
H12_4 H 0.4629 0.8772 0.5460
H103 H 0.0044 0.4147 0.0533
N11_3 N 0.40162(11) 0.3958(2) 0.95824(6)
N12 N 0.06457(12) 0.0310(2) 0.95665(6)
C121_3 C 0.35590(15) 0.4435(3) 0.96461(8)
H111_3 H 0.3585 0.5118 0.9681
C122_3 C 0.30525(15) 0.3968(3) 0.96628(8)
H112_3 H 0.2749 0.4332 0.9712
C123_3 C 0.29927(15) 0.2955(3) 0.96061(8)
C124_3 C 0.34683(15) 0.2453(3) 0.95405(8)
H113_3 H 0.3452 0.1772 0.9501
C125_3 C 0.39593(15) 0.2971(3) 0.95343(8)
H114_3 H 0.4275 0.2619 0.9494
C126_3 C 0.24386(15) 0.2474(3) 0.96140(8)
H115_3 H 0.2150 0.2888 0.9658
C127_3 C 0.23025(15) 0.1530(3) 0.95658(8)
H116_3 H 0.2587 0.1095 0.9529
C128_3 C 0.17328(14) 0.1119(3) 0.95670(8)
C129_3 C 0.12570(16) 0.1714(3) 0.95523(10)
H117_3 H 0.1292 0.2404 0.9542
C130_3 C 0.07312(16) 0.1291(3) 0.95525(9)
H118_3 H 0.0418 0.1712 0.9542
C132_3 C 0.16463(16) 0.0103(3) 0.95759(9)
N2_2 N 0.23864(12) 0.0305(2) 0.88043(6)
C39_3 C 0.00403(14) 0.2941(2) 0.87418(8)
H39_3 H 0.0286 0.4322 0.8640
C42_3 C 0.05830(16) 0.2460(3) 0.87332(9)
H41_3 H 0.0867 0.2867 0.8680
C43_3 C 0.07258(15) 0.1522(3) 0.87903(8)
H42_3 H 0.0444 0.1091 0.8833
C44_3 C 0.12953(15) 0.1107(3) 0.87914(8)
C45_3 C 0.13905(16) 0.0094(3) 0.88057(9)
C47_3 C 0.22961(16) 0.1286(3) 0.87950(9)
H45_3 H 0.2605 0.1707 0.8792
C48_3 C 0.17715(16) 0.1707(3) 0.87903(10)
H46_3 H 0.1733 0.2398 0.8786
N9_2 N 0.24129(13) 0.0759(2) 0.79249(7)
C97_3 C 0.23499(17) 0.1740(3) 0.78606(9)
H89_3 H 0.2660 0.2084 0.7811
C98_3 C 0.18527(18) 0.2257(3) 0.78651(9)
H90_3 H 0.1829 0.2931 0.7816
C99_3 C 0.13883(17) 0.1765(3) 0.79428(9)
C100_3 C 0.14579(17) 0.0761(3) 0.80146(9)
H91_3 H 0.1159 0.0404 0.8072
C101_3 C 0.19660(16) 0.0297(3) 0.80015(9)
C102_3 C 0.08359(18) 0.2232(3) 0.79505(9)
H93_3 H 0.0553 0.1821 0.8003
C103_3 C 0.06932(18) 0.3167(3) 0.78918(9)
H94_3 H 0.0972 0.3598 0.7846
C104_3 C 0.01219(18) 0.3573(3) 0.78942(9)
C105_3 C 0.0026(2) 0.4589(3) 0.78820(11)
H95_3 H 0.0325 0.5026 0.7871
C131_3 C 0.11067(15) 0.9734(3) 0.95789(9)
H119_3 H 0.1061 0.9046 0.9590
H120_3 H 0.1951 0.9667 0.9580
Co13 Co 0.32172(2) 0.00284(3) 0.789878(9)
H43_3 H 0.1090 0.9658 0.8814
C46_3 C 0.19333(16) 0.9724(3) 0.88079(9)
H44_3 H 0.1985 0.9036 0.8812
H92_3 H 0.1999 0.9622 0.8049
Co8 Co 0.321418(18) 0.96922(3) 0.879997(9)
C112 C 0.93766(14) 0.3151(2) 0.01270(7)
H100 H 0.9588 0.2916 0.0299
C113 C 0.91699(15) 0.4121(3) 0.01183(7)
C117 C 0.9291(2) 0.4826(3) 0.03809(9)
C118 C 0.9730(4) 0.4404(5) 0.06177(14)
H102 H 0.9564 0.3875 0.0716
H104 H 0.9862 0.4920 0.0755
C119 C 0.8741(3) 0.5031(5) 0.04949(15)
H105 H 0.8805 0.5516 0.0649
H106 H 0.8464 0.5282 0.0339
H107 H 0.8603 0.4424 0.0569
C120 C 0.9517(3) 0.5825(4) 0.02899(12)
H108 H 0.9839 0.5712 0.0192
H109 H 0.9225 0.6162 0.0160
H110 H 0.9629 0.6228 0.0460
O12 O 0.95902(12) 0.0038(2) 0.90916(6)
H28_3 H 0.9587 0.0332 0.7729
H29_3 H 0.9848 0.0101 0.8053
C35_3 C 0.8759(3) 0.0645(4) 0.80226(14)
H31_3 H 0.8701 0.1051 0.7850
H32_3 H 0.8401 0.0530 0.8088
H33_3 H 0.9011 0.0982 0.8173
H53_3 H 0.5325 0.0026 0.7871
H54_3 H 0.4433 0.0644 0.7884
H57_3 H 0.8585 0.0118 0.9681
H70_3 H 0.4448 0.0113 0.8668
O17 O 0.81403(10) 0.36042(18) 0.91536(5)
O18 O 0.84893(12) 0.50864(19) 0.92608(5)
O19 O 0.94777(10) 0.09943(17) 0.96668(5)
C109 C 0.87266(14) 0.3810(3) 0.96164(7)
C110 C 0.89370(13) 0.2844(2) 0.96319(7)
H99 H 0.8852 0.2415 0.9473
C111 C 0.92748(13) 0.2519(2) 0.98844(7)
C114 C 0.88525(15) 0.4437(3) 0.98577(7)
H101 H 0.8719 0.5091 0.9844
C115 C 0.84231(14) 0.4193(3) 0.93310(7)
C116 C 0.95555(13) 0.1512(2) 0.98949(7)
O21_2 O 0.35868(12) 0.09645(19) 0.82059(5)
O22_3 O 0.35005(10) 0.10234(17) 0.86761(5)
O23_3 O 0.49354(11) 0.35702(19) 0.92204(5)
O24_3 O 0.45902(12) 0.5038(2) 0.90916(6)
C133_3 C 0.38957(14) 0.2410(2) 0.84661(7)
C134_3 C 0.41702(14) 0.2769(3) 0.87294(7)
H121_3 H 0.4202 0.2373 0.8896
C135_3 C 0.43994(15) 0.3726(3) 0.87449(7)
C136_3 C 0.43391(17) 0.4317(3) 0.84946(8)
H122_3 H 0.4482 0.4964 0.8508
C137_3 C 0.40728(18) 0.3971(3) 0.82254(8)
C138_3 C 0.38577(16) 0.2998(3) 0.82160(7)
H123_3 H 0.3685 0.2737 0.8038
C139_3 C 0.36366(13) 0.1384(2) 0.84478(7)
C140_3 C 0.46675(15) 0.4144(3) 0.90345(8)
C141_3 C 0.4022(2) 0.4639(4) 0.79537(10)
C142_3 C 0.4611(3) 0.4847(5) 0.78827(14)
H124_3 H 0.4587 0.5332 0.7729
H125_3 H 0.4848 0.5101 0.8053
H126_3 H 0.4772 0.4241 0.7821
C143_3 C 0.3759(3) 0.5645(4) 0.80226(14)
H127_3 H 0.3701 0.6051 0.7850
H128_3 H 0.3401 0.5530 0.8088
H129_3 H 0.4011 0.5982 0.8173
C144_3 C 0.3644(4) 0.4185(6) 0.76944(12)
H130_3 H 0.3832 0.3622 0.7624
H131_3 H 0.3294 0.3972 0.7753
H132_3 H 0.3566 0.4674 0.7542
O27_3 O 0.34893(12) 0.00864(19) 0.92608(5)
Co12 Co 0.67828(2) 0.00284(3) 0.710122(9)
Co14 Co 0.821418(18) 0.46922(3) 0.879997(9)
Co2_3 Co 0.82172(2) 0.50284(3) 0.789878(9)
O5_3 O 0.78459(11) 0.37271(18) 0.84977(5)
O6_3 O 0.79314(11) 0.37143(17) 0.80257(5)
O7_3 O 0.66837(12) 0.1094(2) 0.74406(5)
O9_3 O 0.85868(12) 0.59645(19) 0.82059(5)
O10_3 O 0.85005(10) 0.60234(17) 0.86761(5)
O11 O 0.99354(11) 0.85702(19) 0.92204(5)
N1_3 N 0.90169(11) 0.3954(2) 0.87697(6)
N3_3 N 0.74129(13) 0.5759(2) 0.79249(7)
N4_2 N 0.40365(14) 0.9379(2) 0.78922(7)
N5 N 0.90162(11) 0.8958(2) 0.95824(6)
N6_3 N 0.56457(12) 0.5310(2) 0.95665(6)
C13_3 C 0.75743(15) 0.2281(2) 0.82249(7)
C14_3 C 0.75866(16) 0.1690(3) 0.84741(7)
H13_3 H 0.7723 0.1959 0.8656
C15_3 C 0.73971(18) 0.0703(3) 0.84543(8)
C16_3 C 0.7189(2) 0.0339(3) 0.81782(8)
C17_3 C 0.71511(18) 0.0927(3) 0.79291(8)
C18_3 C 0.73497(17) 0.1903(3) 0.79543(7)
H15_3 H 0.7331 0.2302 0.7789
C19_3 C 0.78043(14) 0.3326(2) 0.82541(7)
C20_3 C 0.69311(18) 0.0520(3) 0.76326(8)
C21_3 C 0.7417(3) 0.0043(3) 0.87266(10)
H16_3 H 0.6581 0.0351 0.8771
C24_3 C 0.7647(5) 0.0568(6) 0.89992(12)
H22_3 H 0.8038 0.0732 0.8997
H23_3 H 0.7434 0.1169 0.9015
H24_3 H 0.7617 0.0145 0.9163
C25_3 C 0.88957(14) 0.7410(2) 0.84661(7)
C26_3 C 0.91702(14) 0.7769(3) 0.87294(7)
H25_3 H 0.9202 0.7373 0.8896
C27_3 C 0.93994(15) 0.8726(3) 0.87449(7)
C28_3 C 0.93391(17) 0.9317(3) 0.84946(8)
H26_3 H 0.9482 0.9964 0.8508
C29_3 C 0.90728(18) 0.8971(3) 0.82254(8)
C30_3 C 0.88577(16) 0.7998(3) 0.82160(7)
H27_3 H 0.8685 0.7737 0.8038
C31_3 C 0.86366(13) 0.6384(2) 0.84478(7)
C32_3 C 0.96675(15) 0.9144(3) 0.90345(8)
C33_3 C 0.9022(2) 0.9639(4) 0.79537(10)
C34_3 C 0.9611(3) 0.9847(5) 0.78827(14)
H30_3 H 0.9772 0.9241 0.7821
C36_3 C 0.8644(4) 0.9185(6) 0.76944(12)
H34_3 H 0.8832 0.8622 0.7624
H35_3 H 0.8294 0.8972 0.7753
H36_3 H 0.8566 0.9674 0.7542
C37_3 C 0.90687(14) 0.2970(3) 0.88183(8)
H37_3 H 0.8754 0.2621 0.8861
C38_3 C 0.95642(14) 0.2449(3) 0.88080(9)
H38_3 H 0.9579 0.1767 0.8846
C40_3 C 0.99814(14) 0.3958(3) 0.86875(9)
C41_3 C 0.94736(14) 0.4431(3) 0.87041(8)
H40_3 H 0.9448 0.5113 0.8668
C49_3 C 0.73499(17) 0.6740(3) 0.78606(9)
H47_3 H 0.7660 0.7084 0.7811
C50_3 C 0.68527(18) 0.7257(3) 0.78651(9)
H48_3 H 0.6829 0.7931 0.7816
C51_3 C 0.63883(17) 0.6765(3) 0.79428(9)
C52_3 C 0.64579(17) 0.5761(3) 0.80146(9)
H49_3 H 0.6159 0.5404 0.8072
C53_3 C 0.69660(16) 0.5297(3) 0.80015(9)
H50_3 H 0.6999 0.4622 0.8049
C54_3 C 0.58359(18) 0.7232(3) 0.79505(9)
H51_3 H 0.5553 0.6821 0.8003
C55_3 C 0.56932(18) 0.8167(3) 0.78918(9)
H52_3 H 0.5972 0.8598 0.7846
C56_3 C 0.51219(18) 0.8573(3) 0.78942(9)
C57_3 C 0.5026(2) 0.9589(3) 0.78820(11)
C58_3 C 0.4485(2) 0.9956(3) 0.78859(12)
C59_3 C 0.41239(18) 0.8404(3) 0.78985(10)
H55_3 H 0.3815 0.7982 0.7903
C60_3 C 0.46521(18) 0.7985(3) 0.78988(11)
H56_3 H 0.4691 0.7295 0.7902
C61_3 C 0.85590(15) 0.9435(3) 0.96461(8)
C62_3 C 0.80525(15) 0.8968(3) 0.96628(8)
H58_3 H 0.7749 0.9332 0.9712
C63_3 C 0.79927(15) 0.7955(3) 0.96061(8)
C64_3 C 0.84683(15) 0.7453(3) 0.95405(8)
H59_3 H 0.8452 0.6772 0.9501
C65_3 C 0.89593(15) 0.7971(3) 0.95343(8)
H60_3 H 0.9275 0.7619 0.9494
C66_3 C 0.74386(15) 0.7474(3) 0.96140(8)
H61_3 H 0.7150 0.7888 0.9658
C67_3 C 0.73025(15) 0.6530(3) 0.95658(8)
H62_3 H 0.7587 0.6095 0.9529
C68_3 C 0.67328(14) 0.6119(3) 0.95670(8)
C69_3 C 0.62570(16) 0.6714(3) 0.95523(10)
H63_3 H 0.6292 0.7404 0.9542
C70_3 C 0.57312(16) 0.6291(3) 0.95525(9)
H64_3 H 0.5418 0.6712 0.9542
C71_3 C 0.61067(15) 0.4734(3) 0.95789(9)
H65_3 H 0.6061 0.4046 0.9590
C72_3 C 0.66463(16) 0.5103(3) 0.95759(9)
H66_3 H 0.6951 0.4667 0.9580
N7_3 N 0.40169(11) 0.8954(2) 0.87697(6)
N8_3 N 0.73864(12) 0.5305(2) 0.88043(6)
C73_3 C 0.40687(14) 0.7970(3) 0.88183(8)
H67_3 H 0.3754 0.7621 0.8861
C74_3 C 0.45642(14) 0.7449(3) 0.88080(9)
H68_3 H 0.4579 0.6767 0.8846
C75_3 C 0.50403(14) 0.7941(2) 0.87418(8)
C76_3 C 0.49814(14) 0.8958(3) 0.86875(9)
H69_3 H 0.5286 0.9322 0.8640
C77_3 C 0.44736(14) 0.9431(3) 0.87041(8)
C78_3 C 0.55830(16) 0.7460(3) 0.87332(9)
H71_3 H 0.5867 0.7867 0.8680
C79_3 C 0.57258(15) 0.6522(3) 0.87903(8)
H72_3 H 0.5444 0.6091 0.8833
C80_3 C 0.62953(15) 0.6107(3) 0.87914(8)
C81_3 C 0.63905(16) 0.5094(3) 0.88057(9)
H73_3 H 0.6090 0.4658 0.8814
C82_3 C 0.69333(16) 0.4724(3) 0.88079(9)
H74_3 H 0.6985 0.4036 0.8812
C83_3 C 0.72961(16) 0.6286(3) 0.87950(9)
H75_3 H 0.7605 0.6707 0.8792
C84_3 C 0.67715(16) 0.6707(3) 0.87903(10)
H76_3 H 0.6733 0.7398 0.8786
O13_2 O 0.71541(11) 0.87271(18) 0.65023(5)
O14 O 0.70686(11) 0.87143(17) 0.69743(5)
O15_3 O 0.83163(12) 0.6094(2) 0.75594(5)
O16_3 O 0.79801(14) 0.4624(2) 0.74256(6)
C85_3 C 0.74257(15) 0.7281(2) 0.67751(7)
C86_3 C 0.74134(16) 0.6690(3) 0.65259(7)
H77_3 H 0.7277 0.6959 0.6344
C87_3 C 0.76029(18) 0.5703(3) 0.65457(8)
C88_3 C 0.7811(2) 0.5339(3) 0.68218(8)
H78_3 H 0.7929 0.4677 0.6841
C89_3 C 0.78489(18) 0.5927(3) 0.70709(8)
C90_3 C 0.76503(17) 0.6903(3) 0.70457(7)
H79_3 H 0.7669 0.7302 0.7211
C91_3 C 0.71957(14) 0.8326(2) 0.67459(7)
C92_3 C 0.80689(18) 0.5520(3) 0.73674(8)
C93_3 C 0.7583(3) 0.5043(3) 0.62734(10)
C94_3 C 0.8201(3) 0.4757(5) 0.62452(16)
H80_3 H 0.8419 0.5351 0.6229
H81_3 H 0.8366 0.4388 0.6415
H82_3 H 0.8203 0.4352 0.6074
C95_3 C 0.7273(3) 0.4094(5) 0.63120(14)
H83_3 H 0.7264 0.3687 0.6141
H84_3 H 0.7463 0.3741 0.6479
H85_3 H 0.6891 0.4246 0.6341
C96_3 C 0.7353(5) 0.5568(6) 0.60008(12)
H86_3 H 0.6962 0.5732 0.6003
H87_3 H 0.7566 0.6169 0.5985
H88_3 H 0.7383 0.5145 0.5837
N10_3 N 0.90365(14) 0.4379(2) 0.78922(7)
C106_3 C 0.9485(2) 0.4956(3) 0.78859(12)
H96_3 H 0.9433 0.5644 0.7884
C107_3 C 0.91239(18) 0.3404(3) 0.78985(10)
H97_3 H 0.8815 0.2982 0.7903
C108_3 C 0.96521(18) 0.2985(3) 0.78988(11)
H98_3 H 0.9691 0.2295 0.7902
O26_3 O 0.31403(10) 0.86042(18) 0.91536(5)
O28_2 O 0.28459(11) 0.87271(18) 0.84977(5)
O30_2 O 0.64132(12) 0.09645(19) 0.67941(5)
N14_2 N 0.75871(13) 0.0759(2) 0.70751(7)
Co11_2 Co 0.678582(18) 0.96922(3) 0.620003(9)
O8_3 O 0.70199(14) 0.9624(2) 0.75744(6)
H14_3 H 0.7071 0.9677 0.8159
C22_3 C 0.6799(3) 0.9757(5) 0.87548(16)
H17_3 H 0.6634 0.9388 0.8585
H18_3 H 0.6797 0.9352 0.8926
C23_3 C 0.7727(3) 0.9094(5) 0.86880(14)
H19_3 H 0.7736 0.8687 0.8859
H20_3 H 0.7537 0.8741 0.8521
H21_3 H 0.8109 0.9246 0.8659
N15_2 N 0.59635(14) 0.9379(2) 0.71078(7)
O12_2 O 0.04098(12) 0.0038(2) 0.59084(6)
H28_4 H 0.0413 0.0332 0.7271
H29_4 H 0.0152 0.0101 0.6947
C35_4 C 0.1241(3) 0.0645(4) 0.69774(14)
H31_4 H 0.1299 0.1051 0.7150
H32_4 H 0.1599 0.0530 0.6912
H33_4 H 0.0989 0.0982 0.6827
H53_4 H 0.4675 0.0026 0.7129
H54_4 H 0.5567 0.0644 0.7116
H57_4 H 0.1415 0.0118 0.5319
H70_4 H 0.5552 0.0113 0.6332
O17_2 O 0.18597(10) 0.36042(18) 0.58464(5)
O18_2 O 0.15107(12) 0.50864(19) 0.57392(5)
O19_2 O 0.05223(10) 0.09943(17) 0.53332(5)
C109_2 C 0.12734(14) 0.3810(3) 0.53836(7)
C110_2 C 0.10630(13) 0.2844(2) 0.53681(7)
H99_2 H 0.1148 0.2415 0.5527
C111_2 C 0.07252(13) 0.2519(2) 0.51156(7)
C112_2 C 0.06234(14) 0.3151(2) 0.48730(7)
H100_2 H 0.0412 0.2916 0.4701
C113_2 C 0.08301(15) 0.4121(3) 0.48817(7)
C114_2 C 0.11475(15) 0.4437(3) 0.51423(7)
H101_2 H 0.1281 0.5091 0.5156
C115_2 C 0.15769(14) 0.4193(3) 0.56690(7)
C116_2 C 0.04445(13) 0.1512(2) 0.51051(7)
C117_2 C 0.0709(2) 0.4826(3) 0.46191(9)
C118_2 C 0.0270(4) 0.4404(5) 0.43823(14)
H102_2 H 0.0436 0.3875 0.4284
H104_2 H 0.0138 0.4920 0.4245
C119_2 C 0.1259(3) 0.5031(5) 0.45051(15)
H105_2 H 0.1195 0.5516 0.4351
H106_2 H 0.1536 0.5282 0.4661
H107_2 H 0.1397 0.4424 0.4431
C120_2 C 0.0483(3) 0.5825(4) 0.47101(12)
H108_2 H 0.0161 0.5712 0.4808
H109_2 H 0.0775 0.6162 0.4840
H110_2 H 0.0371 0.6228 0.4540
O22_4 O 0.64995(10) 0.10234(17) 0.63239(5)
O23_4 O 0.50646(11) 0.35702(19) 0.57796(5)
O24_4 O 0.54098(12) 0.5038(2) 0.59084(6)
C133_4 C 0.61043(14) 0.2410(2) 0.65339(7)
C134_4 C 0.58298(14) 0.2769(3) 0.62706(7)
H121_4 H 0.5798 0.2373 0.6104
C135_4 C 0.56006(15) 0.3726(3) 0.62551(7)
C136_4 C 0.56609(17) 0.4317(3) 0.65054(8)
H122_4 H 0.5518 0.4964 0.6492
C137_4 C 0.59272(18) 0.3971(3) 0.67746(8)
C138_4 C 0.61423(16) 0.2998(3) 0.67840(7)
H123_4 H 0.6315 0.2737 0.6962
C139_4 C 0.63634(13) 0.1384(2) 0.65522(7)
C140_4 C 0.53325(15) 0.4144(3) 0.59655(8)
C141_4 C 0.5978(2) 0.4639(4) 0.70463(10)
C142_4 C 0.5389(3) 0.4847(5) 0.71173(14)
H124_4 H 0.5413 0.5332 0.7271
H125_4 H 0.5152 0.5101 0.6947
H126_4 H 0.5228 0.4241 0.7179
C143_4 C 0.6241(3) 0.5645(4) 0.69774(14)
H127_4 H 0.6299 0.6051 0.7150
H128_4 H 0.6599 0.5530 0.6912
H129_4 H 0.5989 0.5982 0.6827
C144_4 C 0.6356(4) 0.4185(6) 0.73056(12)
H130_4 H 0.6168 0.3622 0.7376
H131_4 H 0.6706 0.3972 0.7247
H132_4 H 0.6434 0.4674 0.7458
O27_4 O 0.65107(12) 0.00864(19) 0.57392(5)
N13_2 N 0.76136(12) 0.0305(2) 0.61957(6)
Co14_2 Co 0.178582(18) 0.46922(3) 0.620003(9)
Co2_4 Co 0.17828(2) 0.50284(3) 0.710122(9)
O5_4 O 0.21541(11) 0.37271(18) 0.65023(5)
O6_4 O 0.20686(11) 0.37143(17) 0.69743(5)
O7_4 O 0.33163(12) 0.1094(2) 0.75594(5)
O9_4 O 0.14132(12) 0.59645(19) 0.67941(5)
O10_4 O 0.14995(10) 0.60234(17) 0.63239(5)
O11_2 O 0.00646(11) 0.85702(19) 0.57796(5)
N1_4 N 0.09831(11) 0.3954(2) 0.62303(6)
N3_4 N 0.25871(13) 0.5759(2) 0.70751(7)
N5_2 N 0.09838(11) 0.8958(2) 0.54176(6)
N6_4 N 0.43543(12) 0.5310(2) 0.54335(6)
C13_4 C 0.24257(15) 0.2281(2) 0.67751(7)
C14_4 C 0.24134(16) 0.1690(3) 0.65259(7)
H13_4 H 0.2277 0.1959 0.6344
C15_4 C 0.26029(18) 0.0703(3) 0.65457(8)
C16_4 C 0.2811(2) 0.0339(3) 0.68218(8)
C17_4 C 0.28489(18) 0.0927(3) 0.70709(8)
C18_4 C 0.26503(17) 0.1903(3) 0.70457(7)
H15_4 H 0.2669 0.2302 0.7211
C19_4 C 0.21957(14) 0.3326(2) 0.67459(7)
C20_4 C 0.30689(18) 0.0520(3) 0.73674(8)
C21_4 C 0.2583(3) 0.0043(3) 0.62734(10)
H16_4 H 0.3419 0.0351 0.6229
C24_4 C 0.2353(5) 0.0568(6) 0.60008(12)
H22_4 H 0.1962 0.0732 0.6003
H23_4 H 0.2566 0.1169 0.5985
H24_4 H 0.2383 0.0145 0.5837
C25_4 C 0.11043(14) 0.7410(2) 0.65339(7)
C26_4 C 0.08298(14) 0.7769(3) 0.62706(7)
H25_4 H 0.0798 0.7373 0.6104
C27_4 C 0.06006(15) 0.8726(3) 0.62551(7)
C28_4 C 0.06609(17) 0.9317(3) 0.65054(8)
H26_4 H 0.0518 0.9964 0.6492
C29_4 C 0.09272(18) 0.8971(3) 0.67746(8)
C30_4 C 0.11423(16) 0.7998(3) 0.67840(7)
H27_4 H 0.1315 0.7737 0.6962
C31_4 C 0.13634(13) 0.6384(2) 0.65522(7)
C32_4 C 0.03325(15) 0.9144(3) 0.59655(8)
C33_4 C 0.0978(2) 0.9639(4) 0.70463(10)
C34_4 C 0.0389(3) 0.9847(5) 0.71173(14)
H30_4 H 0.0228 0.9241 0.7179
C36_4 C 0.1356(4) 0.9185(6) 0.73056(12)
H34_4 H 0.1168 0.8622 0.7376
H35_4 H 0.1706 0.8972 0.7247
H36_4 H 0.1434 0.9674 0.7458
C37_4 C 0.09313(14) 0.2970(3) 0.61817(8)
H37_4 H 0.1246 0.2621 0.6139
C38_4 C 0.04358(14) 0.2449(3) 0.61920(9)
H38_4 H 0.0421 0.1767 0.6154
C40_4 C 0.00186(14) 0.3958(3) 0.63125(9)
C41_4 C 0.05264(14) 0.4431(3) 0.62959(8)
H40_4 H 0.0552 0.5113 0.6332
C49_4 C 0.26501(17) 0.6740(3) 0.71394(9)
H47_4 H 0.2340 0.7084 0.7189
C50_4 C 0.31473(18) 0.7257(3) 0.71349(9)
H48_4 H 0.3171 0.7931 0.7184
C51_4 C 0.36117(17) 0.6765(3) 0.70572(9)
C52_4 C 0.35421(17) 0.5761(3) 0.69854(9)
H49_4 H 0.3841 0.5404 0.6928
C53_4 C 0.30340(16) 0.5297(3) 0.69985(9)
H50_4 H 0.3001 0.4622 0.6951
C54_4 C 0.41641(18) 0.7232(3) 0.70495(9)
H51_4 H 0.4447 0.6821 0.6997
C55_4 C 0.43068(18) 0.8167(3) 0.71082(9)
H52_4 H 0.4028 0.8598 0.7154
C56_4 C 0.48781(18) 0.8573(3) 0.71058(9)
C57_4 C 0.4974(2) 0.9589(3) 0.71180(11)
C58_4 C 0.5515(2) 0.9956(3) 0.71141(12)
C59_4 C 0.58761(18) 0.8404(3) 0.71015(10)
H55_4 H 0.6185 0.7982 0.7097
C60_4 C 0.53479(18) 0.7985(3) 0.71012(11)
H56_4 H 0.5309 0.7295 0.7098
C61_4 C 0.14410(15) 0.9435(3) 0.53539(8)
C62_4 C 0.19475(15) 0.8968(3) 0.53372(8)
H58_4 H 0.2251 0.9332 0.5288
C63_4 C 0.20073(15) 0.7955(3) 0.53939(8)
C64_4 C 0.15317(15) 0.7453(3) 0.54595(8)
H59_4 H 0.1548 0.6772 0.5499
C65_4 C 0.10407(15) 0.7971(3) 0.54657(8)
H60_4 H 0.0725 0.7619 0.5506
C66_4 C 0.25614(15) 0.7474(3) 0.53860(8)
H61_4 H 0.2850 0.7888 0.5342
C67_4 C 0.26975(15) 0.6530(3) 0.54342(8)
H62_4 H 0.2413 0.6095 0.5471
C68_4 C 0.32672(14) 0.6119(3) 0.54330(8)
C69_4 C 0.37430(16) 0.6714(3) 0.54477(10)
H63_4 H 0.3708 0.7404 0.5458
C70_4 C 0.42688(16) 0.6291(3) 0.54475(9)
H64_4 H 0.4582 0.6712 0.5458
C71_4 C 0.38933(15) 0.4734(3) 0.54211(9)
H65_4 H 0.3939 0.4046 0.5410
C72_4 C 0.33537(16) 0.5103(3) 0.54241(9)
H66_4 H 0.3049 0.4667 0.5420
N7_4 N 0.59831(11) 0.8954(2) 0.62303(6)
N8_4 N 0.26136(12) 0.5305(2) 0.61957(6)
C73_4 C 0.59313(14) 0.7970(3) 0.61817(8)
H67_4 H 0.6246 0.7621 0.6139
C74_4 C 0.54358(14) 0.7449(3) 0.61920(9)
H68_4 H 0.5421 0.6767 0.6154
C75_4 C 0.49597(14) 0.7941(2) 0.62582(8)
C76_4 C 0.50186(14) 0.8958(3) 0.63125(9)
H69_4 H 0.4714 0.9322 0.6360
C77_4 C 0.55264(14) 0.9431(3) 0.62959(8)
C78_4 C 0.44170(16) 0.7460(3) 0.62668(9)
H71_4 H 0.4133 0.7867 0.6320
C79_4 C 0.42742(15) 0.6522(3) 0.62097(8)
H72_4 H 0.4556 0.6091 0.6167
C80_4 C 0.37047(15) 0.6107(3) 0.62086(8)
C81_4 C 0.36095(16) 0.5094(3) 0.61943(9)
H73_4 H 0.3910 0.4658 0.6186
C82_4 C 0.30667(16) 0.4724(3) 0.61921(9)
H74_4 H 0.3015 0.4036 0.6188
C83_4 C 0.27039(16) 0.6286(3) 0.62050(9)
H75_4 H 0.2395 0.6707 0.6208
C84_4 C 0.32285(16) 0.6707(3) 0.62097(10)
H76_4 H 0.3267 0.7398 0.6214
O14_2 O 0.29314(11) 0.87143(17) 0.80257(5)
O15_4 O 0.16837(12) 0.6094(2) 0.74406(5)
O16_4 O 0.20199(14) 0.4624(2) 0.75744(6)
C85_4 C 0.25743(15) 0.7281(2) 0.82249(7)
C86_4 C 0.25866(16) 0.6690(3) 0.84741(7)
H77_4 H 0.2723 0.6959 0.8656
C87_4 C 0.23971(18) 0.5703(3) 0.84543(8)
C88_4 C 0.2189(2) 0.5339(3) 0.81782(8)
H78_4 H 0.2071 0.4677 0.8159
C89_4 C 0.21511(18) 0.5927(3) 0.79291(8)
C90_4 C 0.23497(17) 0.6903(3) 0.79543(7)
H79_4 H 0.2331 0.7302 0.7789
C91_4 C 0.28043(14) 0.8326(2) 0.82541(7)
C92_4 C 0.19311(18) 0.5520(3) 0.76326(8)
C93_4 C 0.2417(3) 0.5043(3) 0.87266(10)
C94_4 C 0.1799(3) 0.4757(5) 0.87548(16)
H80_4 H 0.1581 0.5351 0.8771
H81_4 H 0.1634 0.4388 0.8585
H82_4 H 0.1797 0.4352 0.8926
C95_4 C 0.2727(3) 0.4094(5) 0.86880(14)
H83_4 H 0.2736 0.3687 0.8859
H84_4 H 0.2537 0.3741 0.8521
H85_4 H 0.3109 0.4246 0.8659
C96_4 C 0.2647(5) 0.5568(6) 0.89992(12)
H86_4 H 0.3038 0.5732 0.8997
H87_4 H 0.2434 0.6169 0.9015
H88_4 H 0.2617 0.5145 0.9163
N10_4 N 0.09635(14) 0.4379(2) 0.71078(7)
C106_4 C 0.0515(2) 0.4956(3) 0.71141(12)
H96_4 H 0.0567 0.5644 0.7116
C107_4 C 0.08761(18) 0.3404(3) 0.71015(10)
H97_4 H 0.1185 0.2982 0.7097
C108_4 C 0.03479(18) 0.2985(3) 0.71012(11)
H98_4 H 0.0309 0.2295 0.7098
O26_4 O 0.68597(10) 0.86042(18) 0.58464(5)
O8_4 O 0.29801(14) 0.9624(2) 0.74256(6)
H14_4 H 0.2929 0.9677 0.6841
C22_4 C 0.3201(3) 0.9757(5) 0.62452(16)
H17_4 H 0.3366 0.9388 0.6415
H18_4 H 0.3203 0.9352 0.6074
C23_4 C 0.2273(3) 0.9094(5) 0.63120(14)
H19_4 H 0.2264 0.8687 0.6141
H20_4 H 0.2463 0.8741 0.6479
H21_4 H 0.1891 0.9246 0.6341
H103_2 H 0.9956 0.4147 0.4467
N11_4 N 0.59838(11) 0.3958(2) 0.54176(6)
N12_2 N 0.93543(12) 0.0310(2) 0.54335(6)
C121_4 C 0.64410(15) 0.4435(3) 0.53539(8)
H111_4 H 0.6415 0.5118 0.5319
C122_4 C 0.69475(15) 0.3968(3) 0.53372(8)
H112_4 H 0.7251 0.4332 0.5288
C123_4 C 0.70073(15) 0.2955(3) 0.53939(8)
C124_4 C 0.65317(15) 0.2453(3) 0.54595(8)
H113_4 H 0.6548 0.1772 0.5499
C125_4 C 0.60407(15) 0.2971(3) 0.54657(8)
H114_4 H 0.5725 0.2619 0.5506
C126_4 C 0.75614(15) 0.2474(3) 0.53860(8)
H115_4 H 0.7850 0.2888 0.5342
C127_4 C 0.76975(15) 0.1530(3) 0.54342(8)
H116_4 H 0.7413 0.1095 0.5471
C128_4 C 0.82672(14) 0.1119(3) 0.54330(8)
C129_4 C 0.87430(16) 0.1714(3) 0.54477(10)
H117_4 H 0.8708 0.2404 0.5458
C130_4 C 0.92688(16) 0.1291(3) 0.54475(9)
H118_4 H 0.9582 0.1712 0.5458
C132_4 C 0.83537(16) 0.0103(3) 0.54241(9)
C39_4 C 0.99597(14) 0.2941(2) 0.62582(8)
H39_4 H 0.9714 0.4322 0.6360
C42_4 C 0.94170(16) 0.2460(3) 0.62668(9)
H41_4 H 0.9133 0.2867 0.6320
C43_4 C 0.92742(15) 0.1522(3) 0.62097(8)
H42_4 H 0.9556 0.1091 0.6167
C44_4 C 0.87047(15) 0.1107(3) 0.62086(8)
C45_4 C 0.86095(16) 0.0094(3) 0.61943(9)
C47_4 C 0.77039(16) 0.1286(3) 0.62050(9)
H45_4 H 0.7395 0.1707 0.6208
C48_4 C 0.82285(16) 0.1707(3) 0.62097(10)
H46_4 H 0.8267 0.2398 0.6214
C97_4 C 0.76501(17) 0.1740(3) 0.71394(9)
H89_4 H 0.7340 0.2084 0.7189
C98_4 C 0.81473(18) 0.2257(3) 0.71349(9)
H90_4 H 0.8171 0.2931 0.7184
C99_4 C 0.86117(17) 0.1765(3) 0.70572(9)
C100_4 C 0.85421(17) 0.0761(3) 0.69854(9)
H91_4 H 0.8841 0.0404 0.6928
C101_4 C 0.80340(16) 0.0297(3) 0.69985(9)
C102_4 C 0.91641(18) 0.2232(3) 0.70495(9)
H93_4 H 0.9447 0.1821 0.6997
C103_4 C 0.93068(18) 0.3167(3) 0.71082(9)
H94_4 H 0.9028 0.3598 0.7154
C104_4 C 0.98781(18) 0.3573(3) 0.71058(9)
C105_4 C 0.9974(2) 0.4589(3) 0.71180(11)
H95_4 H 0.9675 0.5026 0.7129
C131_4 C 0.88933(15) 0.9734(3) 0.54211(9)
H119_4 H 0.8939 0.9046 0.5410
H120_4 H 0.8049 0.9667 0.5420
H43_4 H 0.8910 0.9658 0.6186
C46_4 C 0.80667(16) 0.9724(3) 0.61921(9)
H44_4 H 0.8015 0.9036 0.6188
H92_4 H 0.8001 0.9622 0.6951
C119_3 C 0.3741(3) 0.0031(5) 0.04949(15)
H105_3 H 0.3805 0.0516 0.0649
H106_3 H 0.3464 0.0282 0.0339
C120_3 C 0.4517(3) 0.0825(4) 0.02899(12)
H108_3 H 0.4839 0.0712 0.0192
H109_3 H 0.4225 0.1162 0.0160
H110_3 H 0.4629 0.1228 0.0460
H101_3 H 0.3719 0.0091 0.9844
C112_3 C 0.43766(14) 0.8151(2) 0.01270(7)
H100_3 H 0.4588 0.7916 0.0299
C113_3 C 0.41699(15) 0.9121(3) 0.01183(7)
C117_3 C 0.4291(2) 0.9826(3) 0.03809(9)
C118_3 C 0.4730(4) 0.9404(5) 0.06177(14)
H102_3 H 0.4564 0.8875 0.0716
H103_3 H 0.5044 0.9147 0.0533
H104_3 H 0.4862 0.9920 0.0755
H107_3 H 0.3603 0.9424 0.0569
O19_3 O 0.44777(10) 0.59943(17) 0.96668(5)
C109_3 C 0.37266(14) 0.8810(3) 0.96164(7)
C110_3 C 0.39370(13) 0.7844(2) 0.96319(7)
H99_3 H 0.3852 0.7415 0.9473
C111_3 C 0.42748(13) 0.7519(2) 0.98844(7)
C114_3 C 0.38525(15) 0.9437(3) 0.98577(7)
C115_3 C 0.34231(14) 0.9193(3) 0.93310(7)
C116_3 C 0.45555(13) 0.6512(2) 0.98949(7)
H101_4 H 0.6281 0.0091 0.5156
C119_4 C 0.6259(3) 0.0031(5) 0.45051(15)
H105_4 H 0.6195 0.0516 0.4351
H106_4 H 0.6536 0.0282 0.4661
C120_4 C 0.5483(3) 0.0825(4) 0.47101(12)
H108_4 H 0.5161 0.0712 0.4808
H109_4 H 0.5775 0.1162 0.4840
H110_4 H 0.5371 0.1228 0.4540
O19_4 O 0.55223(10) 0.59943(17) 0.53332(5)
C109_4 C 0.62734(14) 0.8810(3) 0.53836(7)
C110_4 C 0.60630(13) 0.7844(2) 0.53681(7)
H99_4 H 0.6148 0.7415 0.5527
C111_4 C 0.57252(13) 0.7519(2) 0.51156(7)
C112_4 C 0.56234(14) 0.8151(2) 0.48730(7)
H100_4 H 0.5412 0.7916 0.4701
C113_4 C 0.58301(15) 0.9121(3) 0.48817(7)
C114_4 C 0.61475(15) 0.9437(3) 0.51423(7)
C115_4 C 0.65769(14) 0.9193(3) 0.56690(7)
C116_4 C 0.54445(13) 0.6512(2) 0.51051(7)
C117_4 C 0.5709(2) 0.9826(3) 0.46191(9)
C118_4 C 0.5270(4) 0.9404(5) 0.43823(14)
H102_4 H 0.5436 0.8875 0.4284
H103_4 H 0.4956 0.9147 0.4467
H104_4 H 0.5138 0.9920 0.4245
H107_4 H 0.6397 0.9424 0.4431
loop_
_geom_bond_atom_site_label_1
_geom_bond_atom_site_label_2
_geom_bond_site_symmetry_1
_geom_bond_site_symmetry_2
H17 C22 1_555 1_555
H18 C22 1_555 1_555
H19 C23 1_555 1_555
H20 C23 1_555 1_555
H21 C23 1_555 1_555
O31 Co6 1_555 1_555
N16 Co6 1_555 1_555
Co1 O1 1_555 1_555
Co2 O6 1_555 1_555
O1 C7 1_555 1_555
O2 Co1 1_555 1_555
O3 C8 1_555 1_555
O5 Co1 1_555 1_555
O6 C19 1_555 1_555
O7 C20 1_555 1_555
O9 Co2 1_555 1_555
O10 Co1 1_555 1_555
O31 C32 1_555 1_555
N1 Co1 1_555 1_555
N3 Co2 1_555 1_555
N4 C58 1_555 1_555
N6 C70 1_555 1_555
C1 C2 1_555 1_555
C2 H1 1_555 1_555
C3 C2 1_555 1_555
C6 C1 1_555 1_555
H3 C6 1_555 1_555
C7 O2 1_555 1_555
C8 C3 1_555 1_555
C13 C14 1_555 1_555
C14 H13 1_555 1_555
C15 C14 1_555 1_555
C16 C15 1_555 1_555
C17 C16 1_555 1_555
C18 C13 1_555 1_555
H15 C18 1_555 1_555
C19 O5 1_555 1_555
C20 C17 1_555 1_555
C21 C15 1_555 1_555
C24 C21 1_555 1_555
H22 C24 1_555 1_555
H23 C24 1_555 1_555
H24 C24 1_555 1_555
C25 C26 1_555 1_555
C26 H25 1_555 1_555
C27 C26 1_555 1_555
C28 C27 1_555 1_555
H26 C28 1_555 1_555
C29 C28 1_555 1_555
C30 C25 1_555 1_555
H27 C30 1_555 1_555
C31 O9 1_555 1_555
C33 C29 1_555 1_555
C34 C33 1_555 1_555
H30 C34 1_555 1_555
C36 C33 1_555 1_555
H34 C36 1_555 1_555
H35 C36 1_555 1_555
H36 C36 1_555 1_555
C37 N1 1_555 1_555
H37 C37 1_555 1_555
C38 C37 1_555 1_555
H38 C38 1_555 1_555
C41 N1 1_555 1_555
H40 C41 1_555 1_555
C49 N3 1_555 1_555
H47 C49 1_555 1_555
C50 C49 1_555 1_555
H48 C50 1_555 1_555
C51 C50 1_555 1_555
C52 C51 1_555 1_555
H49 C52 1_555 1_555
C53 N3 1_555 1_555
H50 C53 1_555 1_555
C54 C51 1_555 1_555
H51 C54 1_555 1_555
C55 C54 1_555 1_555
H52 C55 1_555 1_555
C56 C55 1_555 1_555
C57 C56 1_555 1_555
C58 C57 1_555 1_555
C59 N4 1_555 1_555
H55 C59 1_555 1_555
C60 C56 1_555 1_555
H56 C60 1_555 1_555
C61 N16 1_555 1_555
C62 C61 1_555 1_555
H58 C62 1_555 1_555
C63 C62 1_555 1_555
C64 C63 1_555 1_555
H59 C64 1_555 1_555
C65 N16 1_555 1_555
H60 C65 1_555 1_555
C66 C63 1_555 1_555
H61 C66 1_555 1_555
C67 C66 1_555 1_555
H62 C67 1_555 1_555
C68 C67 1_555 1_555
C69 C68 1_555 1_555
H63 C69 1_555 1_555
C70 C69 1_555 1_555
H64 C70 1_555 1_555
C71 N6 1_555 1_555
H65 C71 1_555 1_555
C72 C68 1_555 1_555
H66 C72 1_555 1_555
N7 C73 1_555 1_555
N8 Co1 1_555 1_555
C73 H67 1_555 1_555
C74 C73 1_555 1_555
H68 C74 1_555 1_555
C75 C74 1_555 1_555
C76 C75 1_555 1_555
H69 C76 1_555 1_555
C77 N7 1_555 1_555
C78 C75 1_555 1_555
H71 C78 1_555 1_555
C79 C78 1_555 1_555
H72 C79 1_555 1_555
C80 C79 1_555 1_555
C81 C80 1_555 1_555
H73 C81 1_555 1_555
C82 N8 1_555 1_555
H74 C82 1_555 1_555
C83 N8 1_555 1_555
H75 C83 1_555 1_555
C84 C80 1_555 1_555
H76 C84 1_555 1_555
Co4 N7 1_555 1_555
Co5 O7 1_555 1_555
O13 C91 1_555 1_555
O29 C91 1_555 1_555
O15 Co2 1_555 1_555
O16 Co2 1_555 1_555
C85 C86 1_555 1_555
C86 H77 1_555 1_555
C87 C86 1_555 1_555
C88 C87 1_555 1_555
H78 C88 1_555 1_555
C89 C88 1_555 1_555
C90 C85 1_555 1_555
H79 C90 1_555 1_555
C91 C85 1_555 1_555
C92 O15 1_555 1_555
C93 C87 1_555 1_555
C94 C93 1_555 1_555
H80 C94 1_555 1_555
H81 C94 1_555 1_555
H82 C94 1_555 1_555
C95 C93 1_555 1_555
H83 C95 1_555 1_555
H84 C95 1_555 1_555
H85 C95 1_555 1_555
C96 C93 1_555 1_555
H86 C96 1_555 1_555
H87 C96 1_555 1_555
H88 C96 1_555 1_555
N10 Co2 1_555 1_555
C106 N10 1_555 1_555
H96 C106 1_555 1_555
C107 N10 1_555 1_555
H97 C107 1_555 1_555
H98 C108 1_555 1_555
Co10 N6 1_555 1_555
O26 Co4 1_555 1_555
O28 Co4 1_555 1_555
O30 Co5 1_555 1_555
N14 Co5 1_555 1_555
Co11 O13 1_555 1_555
O10 C31 1_555 1_555
C1 C7 1_555 1_555
C13 C19 1_555 1_555
C17 C18 1_555 1_555
C25 C31 1_555 1_555
C27 C32 1_555 1_555
C29 C30 1_555 1_555
C40 C41 1_555 1_555
C52 C53 1_555 1_555
C59 C60 1_555 1_555
C64 C65 1_555 1_555
C71 C72 1_555 1_555
C76 C77 1_555 1_555
C81 C82 1_555 1_555
C83 C84 1_555 1_555
O16 C92 1_555 1_555
C89 C90 1_555 1_555
C89 C92 1_555 1_555
C107 C108 1_555 1_555
H2 C4 1_555 1_555
C5 C4 1_555 1_555
C9 C5 1_555 1_555
C10 C9 1_555 1_555
H4 C10 1_555 1_555
H6 C10 1_555 1_555
C11 C9 1_555 1_555
H7 C11 1_555 1_555
H8 C11 1_555 1_555
H9 C11 1_555 1_555
C12 C9 1_555 1_555
H10 C12 1_555 1_555
H11 C12 1_555 1_555
H12 C12 1_555 1_555
H31 C35 1_555 1_555
H32 C35 1_555 1_555
H33 C35 1_555 1_555
O21 C139 1_555 1_555
O23 C140 1_555 1_555
O24 C140 1_555 1_555
C133 C134 1_555 1_555
C134 H121 1_555 1_555
C135 C134 1_555 1_555
C136 C135 1_555 1_555
H122 C136 1_555 1_555
C137 C136 1_555 1_555
C138 C133 1_555 1_555
H123 C138 1_555 1_555
C139 O22 1_555 1_555
C140 C135 1_555 1_555
C141 C137 1_555 1_555
C142 C141 1_555 1_555
H124 C142 1_555 1_555
H125 C142 1_555 1_555
H126 C142 1_555 1_555
C143 C141 1_555 1_555
H127 C143 1_555 1_555
H128 C143 1_555 1_555
H129 C143 1_555 1_555
C144 C141 1_555 1_555
H130 C144 1_555 1_555
H131 C144 1_555 1_555
H132 C144 1_555 1_555
Co10 O23 1_555 1_555
O21 Co9 1_555 1_555
O24 Co10 1_555 1_555
C133 C139 1_555 1_555
C137 C138 1_555 1_555
H44 C46 1_555 1_555
C42 C39 1_555 1_555
H41 C42 1_555 1_555
C43 C42 1_555 1_555
H42 C43 1_555 1_555
C44 C43 1_555 1_555
C45 C44 1_555 1_555
C47 N13 1_555 1_555
H45 C47 1_555 1_555
C48 C44 1_555 1_555
H46 C48 1_555 1_555
N9 C97 1_555 1_555
C97 H89 1_555 1_555
C98 C97 1_555 1_555
H90 C98 1_555 1_555
C99 C98 1_555 1_555
C100 C99 1_555 1_555
H91 C100 1_555 1_555
C101 N9 1_555 1_555
C102 C99 1_555 1_555
H93 C102 1_555 1_555
C103 C102 1_555 1_555
H94 C103 1_555 1_555
C104 C103 1_555 1_555
C105 C104 1_555 1_555
H95 C105 1_555 1_555
H119 C131 1_555 1_555
Co9 N9 1_555 1_555
C47 C48 1_555 1_555
C100 C101 1_555 1_555
N11 C121 1_555 1_555
C121 H111 1_555 1_555
C122 C121 1_555 1_555
H112 C122 1_555 1_555
C123 C122 1_555 1_555
C124 C123 1_555 1_555
H113 C124 1_555 1_555
C125 N11 1_555 1_555
H114 C125 1_555 1_555
C126 C123 1_555 1_555
H115 C126 1_555 1_555
C127 C126 1_555 1_555
H116 C127 1_555 1_555
C128 C127 1_555 1_555
C129 C128 1_555 1_555
H117 C129 1_555 1_555
C130 N17 1_555 1_555
H118 C130 1_555 1_555
C132 C128 1_555 1_555
Co10 N11 1_555 1_555
C124 C125 1_555 1_555
C129 C130 1_555 1_555
H44_2 C46_2 1_555 1_555
C42_2 C39_2 1_555 1_555
H41_2 C42_2 1_555 1_555
C43_2 C42_2 1_555 1_555
H42_2 C43_2 1_555 1_555
C44_2 C43_2 1_555 1_555
C45_2 C44_2 1_555 1_555
C47_2 N2 1_555 1_555
H45_2 C47_2 1_555 1_555
C48_2 C44_2 1_555 1_555
H46_2 C48_2 1_555 1_555
N14 C97_2 1_555 1_555
C97_2 H89_2 1_555 1_555
C98_2 C97_2 1_555 1_555
H90_2 C98_2 1_555 1_555
C99_2 C98_2 1_555 1_555
C100_2 C99_2 1_555 1_555
H91_2 C100_2 1_555 1_555
C101_2 N14 1_555 1_555
C102_2 C99_2 1_555 1_555
H93_2 C102_2 1_555 1_555
C103_2 C102_2 1_555 1_555
H94_2 C103_2 1_555 1_555
C104_2 C103_2 1_555 1_555
C105_2 C104_2 1_555 1_555
H95_2 C105_2 1_555 1_555
H119_2 C131_2 1_555 1_555
C47_2 C48_2 1_555 1_555
C100_2 C101_2 1_555 1_555
N11_2 C121_2 1_555 1_555
C121_2 H111_2 1_555 1_555
C122_2 C121_2 1_555 1_555
H112_2 C122_2 1_555 1_555
C123_2 C122_2 1_555 1_555
C124_2 C123_2 1_555 1_555
H113_2 C124_2 1_555 1_555
C125_2 N11_2 1_555 1_555
H114_2 C125_2 1_555 1_555
C126_2 C123_2 1_555 1_555
H115_2 C126_2 1_555 1_555
C127_2 C126_2 1_555 1_555
H116_2 C127_2 1_555 1_555
C128_2 C127_2 1_555 1_555
C129_2 C128_2 1_555 1_555
H117_2 C129_2 1_555 1_555
C130_2 N17_2 1_555 1_555
H118_2 C130_2 1_555 1_555
C132_2 C128_2 1_555 1_555
Co16 N11_2 1_555 1_555
C124_2 C125_2 1_555 1_555
C129_2 C130_2 1_555 1_555
H17_2 C22_2 1_555 1_555
H18_2 C22_2 1_555 1_555
H19_2 C23_2 1_555 1_555
H20_2 C23_2 1_555 1_555
H21_2 C23_2 1_555 1_555
O31_2 Co6_2 1_555 1_555
N16_2 Co6_2 1_555 1_555
Co1_2 O1_2 1_555 1_555
Co2_2 O6_2 1_555 1_555
O1_2 C7_2 1_555 1_555
O2_2 Co1_2 1_555 1_555
O3_2 C8_2 1_555 1_555
O4_2 C8_2 1_555 1_555
O5_2 Co1_2 1_555 1_555
O6_2 C19_2 1_555 1_555
O7_2 C20_2 1_555 1_555
O9_2 Co2_2 1_555 1_555
O10_2 Co1_2 1_555 1_555
O31_2 C32_2 1_555 1_555
N1_2 Co1_2 1_555 1_555
N3_2 Co2_2 1_555 1_555
N15 C58_2 1_555 1_555
N6_2 C70_2 1_555 1_555
C1_2 C2_2 1_555 1_555
C2_2 H1_2 1_555 1_555
C3_2 C2_2 1_555 1_555
C4_2 C3_2 1_555 1_555
H2_2 C4_2 1_555 1_555
C5_2 C4_2 1_555 1_555
C6_2 C1_2 1_555 1_555
H3_2 C6_2 1_555 1_555
C7_2 O2_2 1_555 1_555
C8_2 C3_2 1_555 1_555
C9_2 C5_2 1_555 1_555
C10_2 C9_2 1_555 1_555
H4_2 C10_2 1_555 1_555
H6_2 C10_2 1_555 1_555
C11_2 C9_2 1_555 1_555
H7_2 C11_2 1_555 1_555
H8_2 C11_2 1_555 1_555
H9_2 C11_2 1_555 1_555
C12_2 C9_2 1_555 1_555
H10_2 C12_2 1_555 1_555
H11_2 C12_2 1_555 1_555
H12_2 C12_2 1_555 1_555
C13_2 C14_2 1_555 1_555
C14_2 H13_2 1_555 1_555
C15_2 C14_2 1_555 1_555
C16_2 C15_2 1_555 1_555
C17_2 C16_2 1_555 1_555
C18_2 C13_2 1_555 1_555
H15_2 C18_2 1_555 1_555
C19_2 O5_2 1_555 1_555
C20_2 C17_2 1_555 1_555
C21_2 C15_2 1_555 1_555
C24_2 C21_2 1_555 1_555
H22_2 C24_2 1_555 1_555
H23_2 C24_2 1_555 1_555
H24_2 C24_2 1_555 1_555
C25_2 C26_2 1_555 1_555
C26_2 H25_2 1_555 1_555
C27_2 C26_2 1_555 1_555
C28_2 C27_2 1_555 1_555
H26_2 C28_2 1_555 1_555
C29_2 C28_2 1_555 1_555
C30_2 C25_2 1_555 1_555
H27_2 C30_2 1_555 1_555
C31_2 O9_2 1_555 1_555
C33_2 C29_2 1_555 1_555
C34_2 C33_2 1_555 1_555
H30_2 C34_2 1_555 1_555
C36_2 C33_2 1_555 1_555
H34_2 C36_2 1_555 1_555
H35_2 C36_2 1_555 1_555
H36_2 C36_2 1_555 1_555
C37_2 N1_2 1_555 1_555
H37_2 C37_2 1_555 1_555
C38_2 C37_2 1_555 1_555
H38_2 C38_2 1_555 1_555
C41_2 N1_2 1_555 1_555
H40_2 C41_2 1_555 1_555
C49_2 N3_2 1_555 1_555
H47_2 C49_2 1_555 1_555
C50_2 C49_2 1_555 1_555
H48_2 C50_2 1_555 1_555
C51_2 C50_2 1_555 1_555
C52_2 C51_2 1_555 1_555
H49_2 C52_2 1_555 1_555
C53_2 N3_2 1_555 1_555
H50_2 C53_2 1_555 1_555
C54_2 C51_2 1_555 1_555
H51_2 C54_2 1_555 1_555
C55_2 C54_2 1_555 1_555
H52_2 C55_2 1_555 1_555
C56_2 C55_2 1_555 1_555
C57_2 C56_2 1_555 1_555
C58_2 C57_2 1_555 1_555
C59_2 N15 1_555 1_555
H55_2 C59_2 1_555 1_555
C60_2 C56_2 1_555 1_555
H56_2 C60_2 1_555 1_555
C61_2 N16_2 1_555 1_555
C62_2 C61_2 1_555 1_555
H58_2 C62_2 1_555 1_555
C63_2 C62_2 1_555 1_555
C64_2 C63_2 1_555 1_555
H59_2 C64_2 1_555 1_555
C65_2 N16_2 1_555 1_555
H60_2 C65_2 1_555 1_555
C66_2 C63_2 1_555 1_555
H61_2 C66_2 1_555 1_555
C67_2 C66_2 1_555 1_555
H62_2 C67_2 1_555 1_555
C68_2 C67_2 1_555 1_555
C69_2 C68_2 1_555 1_555
H63_2 C69_2 1_555 1_555
C70_2 C69_2 1_555 1_555
H64_2 C70_2 1_555 1_555
C71_2 N6_2 1_555 1_555
H65_2 C71_2 1_555 1_555
C72_2 C68_2 1_555 1_555
H66_2 C72_2 1_555 1_555
N7_2 C73_2 1_555 1_555
N8_2 Co1_2 1_555 1_555
C73_2 H67_2 1_555 1_555
C74_2 C73_2 1_555 1_555
H68_2 C74_2 1_555 1_555
C75_2 C74_2 1_555 1_555
C76_2 C75_2 1_555 1_555
H69_2 C76_2 1_555 1_555
C77_2 N7_2 1_555 1_555
C78_2 C75_2 1_555 1_555
H71_2 C78_2 1_555 1_555
C79_2 C78_2 1_555 1_555
H72_2 C79_2 1_555 1_555
C80_2 C79_2 1_555 1_555
C81_2 C80_2 1_555 1_555
H73_2 C81_2 1_555 1_555
C82_2 N8_2 1_555 1_555
H74_2 C82_2 1_555 1_555
C83_2 N8_2 1_555 1_555
H75_2 C83_2 1_555 1_555
C84_2 C80_2 1_555 1_555
H76_2 C84_2 1_555 1_555
Co11 N7_2 1_555 1_555
Co9 O7_2 1_555 1_555
O28 C91_2 1_555 1_555
O29_2 C91_2 1_555 1_555
O15_2 Co2_2 1_555 1_555
O16_2 Co2_2 1_555 1_555
C85_2 C86_2 1_555 1_555
C86_2 H77_2 1_555 1_555
C87_2 C86_2 1_555 1_555
C88_2 C87_2 1_555 1_555
H78_2 C88_2 1_555 1_555
C89_2 C88_2 1_555 1_555
C90_2 C85_2 1_555 1_555
H79_2 C90_2 1_555 1_555
C91_2 C85_2 1_555 1_555
C92_2 O15_2 1_555 1_555
C93_2 C87_2 1_555 1_555
C94_2 C93_2 1_555 1_555
H80_2 C94_2 1_555 1_555
H81_2 C94_2 1_555 1_555
H82_2 C94_2 1_555 1_555
C95_2 C93_2 1_555 1_555
H83_2 C95_2 1_555 1_555
H84_2 C95_2 1_555 1_555
H85_2 C95_2 1_555 1_555
C96_2 C93_2 1_555 1_555
H86_2 C96_2 1_555 1_555
H87_2 C96_2 1_555 1_555
H88_2 C96_2 1_555 1_555
N10_2 Co2_2 1_555 1_555
C106_2 N10_2 1_555 1_555
H96_2 C106_2 1_555 1_555
C107_2 N10_2 1_555 1_555
H97_2 C107_2 1_555 1_555
H98_2 C108_2 1_555 1_555
Co16 N6_2 1_555 1_555
O26_2 Co11 1_555 1_555
O10_2 C31_2 1_555 1_555
C1_2 C7_2 1_555 1_555
C5_2 C6_2 1_555 1_555
C13_2 C19_2 1_555 1_555
C17_2 C18_2 1_555 1_555
C25_2 C31_2 1_555 1_555
C27_2 C32_2 1_555 1_555
C29_2 C30_2 1_555 1_555
C40_2 C41_2 1_555 1_555
C52_2 C53_2 1_555 1_555
C59_2 C60_2 1_555 1_555
C64_2 C65_2 1_555 1_555
C71_2 C72_2 1_555 1_555
C76_2 C77_2 1_555 1_555
C81_2 C82_2 1_555 1_555
C83_2 C84_2 1_555 1_555
O16_2 C92_2 1_555 1_555
C89_2 C90_2 1_555 1_555
C89_2 C92_2 1_555 1_555
C107_2 C108_2 1_555 1_555
H31_2 C35_2 1_555 1_555
H32_2 C35_2 1_555 1_555
H33_2 C35_2 1_555 1_555
O30 C139_2 1_555 1_555
O23_2 C140_2 1_555 1_555
O24_2 C140_2 1_555 1_555
C133_2 C134_2 1_555 1_555
C134_2 H121_2 1_555 1_555
C135_2 C134_2 1_555 1_555
C136_2 C135_2 1_555 1_555
H122_2 C136_2 1_555 1_555
C137_2 C136_2 1_555 1_555
C138_2 C133_2 1_555 1_555
H123_2 C138_2 1_555 1_555
C139_2 O22_2 1_555 1_555
C140_2 C135_2 1_555 1_555
C141_2 C137_2 1_555 1_555
C142_2 C141_2 1_555 1_555
H124_2 C142_2 1_555 1_555
H125_2 C142_2 1_555 1_555
H126_2 C142_2 1_555 1_555
C143_2 C141_2 1_555 1_555
H127_2 C143_2 1_555 1_555
H128_2 C143_2 1_555 1_555
H129_2 C143_2 1_555 1_555
C144_2 C141_2 1_555 1_555
H130_2 C144_2 1_555 1_555
H131_2 C144_2 1_555 1_555
H132_2 C144_2 1_555 1_555
Co16 O23_2 1_555 1_555
O24_2 Co16 1_555 1_555
C133_2 C139_2 1_555 1_555
C137_2 C138_2 1_555 1_555
O26 C7_3 1_555 1_555
O3_3 C8_3 1_555 1_555
C1_3 C2_3 1_555 1_555
C2_3 H1_3 1_555 1_555
C3_3 C2_3 1_555 1_555
C6_3 C1_3 1_555 1_555
C8_3 C3_3 1_555 1_555
Co10 O3_3 1_555 1_555
O33_3 Co10 1_555 1_555
C1_3 C7_3 1_555 1_555
H2_3 C4_3 1_555 1_555
C5_3 C4_3 1_555 1_555
C9_3 C5_3 1_555 1_555
C10_3 C9_3 1_555 1_555
H4_3 C10_3 1_555 1_555
H5_3 C10_3 1_555 1_555
H6_3 C10_3 1_555 1_555
Co7_3 O4_3 1_555 1_555
H7_3 C11_3 1_555 1_555
H8_3 C11_3 1_555 1_555
H10_3 C12_3 1_555 1_555
H11_3 C12_3 1_555 1_555
H12_3 C12_3 1_555 1_555
O26_2 C7_4 1_555 1_555
O3_4 C8_4 1_555 1_555
O4_4 C8_4 1_555 1_555
C1_4 C2_4 1_555 1_555
C2_4 H1_4 1_555 1_555
C3_4 C2_4 1_555 1_555
C4_4 C3_4 1_555 1_555
H2_4 C4_4 1_555 1_555
C5_4 C4_4 1_555 1_555
C6_4 C1_4 1_555 1_555
C8_4 C3_4 1_555 1_555
C9_4 C5_4 1_555 1_555
C10_4 C9_4 1_555 1_555
H4_4 C10_4 1_555 1_555
H5_4 C10_4 1_555 1_555
H6_4 C10_4 1_555 1_555
Co16 O3_4 1_555 1_555
Co7_4 O4_4 1_555 1_555
O33_4 Co16 1_555 1_555
C1_4 C7_4 1_555 1_555
C5_4 C6_4 1_555 1_555
H7_4 C11_4 1_555 1_555
H8_4 C11_4 1_555 1_555
H10_4 C12_4 1_555 1_555
H11_4 C12_4 1_555 1_555
H12_4 C12_4 1_555 1_555
N11_3 C121_3 1_555 1_555
C121_3 H111_3 1_555 1_555
C122_3 C121_3 1_555 1_555
H112_3 C122_3 1_555 1_555
C123_3 C122_3 1_555 1_555
C124_3 C123_3 1_555 1_555
H113_3 C124_3 1_555 1_555
C125_3 N11_3 1_555 1_555
H114_3 C125_3 1_555 1_555
C126_3 C123_3 1_555 1_555
H115_3 C126_3 1_555 1_555
C127_3 C126_3 1_555 1_555
H116_3 C127_3 1_555 1_555
C128_3 C127_3 1_555 1_555
C129_3 C128_3 1_555 1_555
H117_3 C129_3 1_555 1_555
C130_3 N12 1_555 1_555
H118_3 C130_3 1_555 1_555
C132_3 C128_3 1_555 1_555
Co7_3 N11_3 1_555 1_555
C124_3 C125_3 1_555 1_555
C129_3 C130_3 1_555 1_555
C42_3 C39_3 1_555 1_555
H41_3 C42_3 1_555 1_555
C43_3 C42_3 1_555 1_555
H42_3 C43_3 1_555 1_555
C44_3 C43_3 1_555 1_555
C45_3 C44_3 1_555 1_555
C47_3 N2_2 1_555 1_555
H45_3 C47_3 1_555 1_555
C48_3 C44_3 1_555 1_555
H46_3 C48_3 1_555 1_555
N9_2 C97_3 1_555 1_555
C97_3 H89_3 1_555 1_555
C98_3 C97_3 1_555 1_555
H90_3 C98_3 1_555 1_555
C99_3 C98_3 1_555 1_555
C100_3 C99_3 1_555 1_555
H91_3 C100_3 1_555 1_555
C101_3 N9_2 1_555 1_555
C102_3 C99_3 1_555 1_555
H93_3 C102_3 1_555 1_555
C103_3 C102_3 1_555 1_555
H94_3 C103_3 1_555 1_555
C104_3 C103_3 1_555 1_555
C105_3 C104_3 1_555 1_555
H95_3 C105_3 1_555 1_555
H119_3 C131_3 1_555 1_555
Co13 N9_2 1_555 1_555
C47_3 C48_3 1_555 1_555
C100_3 C101_3 1_555 1_555
H44_3 C46_3 1_555 1_555
H100 C112 1_555 1_555
C113 C112 1_555 1_555
C117 C113 1_555 1_555
C118 C117 1_555 1_555
H102 C118 1_555 1_555
H104 C118 1_555 1_555
C119 C117 1_555 1_555
H105 C119 1_555 1_555
H106 C119 1_555 1_555
H107 C119 1_555 1_555
C120 C117 1_555 1_555
H108 C120 1_555 1_555
H109 C120 1_555 1_555
H110 C120 1_555 1_555
H31_3 C35_3 1_555 1_555
H32_3 C35_3 1_555 1_555
H33_3 C35_3 1_555 1_555
O17 C115 1_555 1_555
O18 C115 1_555 1_555
C109 C110 1_555 1_555
C110 H99 1_555 1_555
C111 C110 1_555 1_555
C114 C109 1_555 1_555
H101 C114 1_555 1_555
C115 C109 1_555 1_555
C116 O19 1_555 1_555
O21_2 C139_3 1_555 1_555
O23_3 C140_3 1_555 1_555
O24_3 C140_3 1_555 1_555
C133_3 C134_3 1_555 1_555
C134_3 H121_3 1_555 1_555
C135_3 C134_3 1_555 1_555
C136_3 C135_3 1_555 1_555
H122_3 C136_3 1_555 1_555
C137_3 C136_3 1_555 1_555
C138_3 C133_3 1_555 1_555
H123_3 C138_3 1_555 1_555
C139_3 O22_3 1_555 1_555
C140_3 C135_3 1_555 1_555
C141_3 C137_3 1_555 1_555
C142_3 C141_3 1_555 1_555
H124_3 C142_3 1_555 1_555
H125_3 C142_3 1_555 1_555
H126_3 C142_3 1_555 1_555
C143_3 C141_3 1_555 1_555
H127_3 C143_3 1_555 1_555
H128_3 C143_3 1_555 1_555
H129_3 C143_3 1_555 1_555
C144_3 C141_3 1_555 1_555
H130_3 C144_3 1_555 1_555
H131_3 C144_3 1_555 1_555
H132_3 C144_3 1_555 1_555
Co14 O17 1_555 1_555
Co7_3 O23_3 1_555 1_555
O18 Co14 1_555 1_555
C111 C116 1_555 1_555
O21_2 Co13 1_555 1_555
O24_3 Co7_3 1_555 1_555
C133_3 C139_3 1_555 1_555
C137_3 C138_3 1_555 1_555
Co2_3 O6_3 1_555 1_555
Co7 O11 1_555 1_555
O5_3 Co14 1_555 1_555
O6_3 C19_3 1_555 1_555
O7_3 C20_3 1_555 1_555
O9_3 Co2_3 1_555 1_555
O10_3 Co14 1_555 1_555
O11 C32_3 1_555 1_555
N1_3 Co14 1_555 1_555
N3_3 Co2_3 1_555 1_555
N4_2 C58_3 1_555 1_555
N5 Co7 1_555 1_555
N6_3 C70_3 1_555 1_555
C13_3 C14_3 1_555 1_555
C14_3 H13_3 1_555 1_555
C15_3 C14_3 1_555 1_555
C16_3 C15_3 1_555 1_555
C17_3 C16_3 1_555 1_555
C18_3 C13_3 1_555 1_555
H15_3 C18_3 1_555 1_555
C19_3 O5_3 1_555 1_555
C20_3 C17_3 1_555 1_555
C21_3 C15_3 1_555 1_555
C24_3 C21_3 1_555 1_555
H22_3 C24_3 1_555 1_555
H23_3 C24_3 1_555 1_555
H24_3 C24_3 1_555 1_555
C25_3 C26_3 1_555 1_555
C26_3 H25_3 1_555 1_555
C27_3 C26_3 1_555 1_555
C28_3 C27_3 1_555 1_555
H26_3 C28_3 1_555 1_555
C29_3 C28_3 1_555 1_555
C30_3 C25_3 1_555 1_555
H27_3 C30_3 1_555 1_555
C31_3 O9_3 1_555 1_555
C33_3 C29_3 1_555 1_555
C34_3 C33_3 1_555 1_555
H30_3 C34_3 1_555 1_555
C36_3 C33_3 1_555 1_555
H34_3 C36_3 1_555 1_555
H35_3 C36_3 1_555 1_555
H36_3 C36_3 1_555 1_555
C37_3 N1_3 1_555 1_555
H37_3 C37_3 1_555 1_555
C38_3 C37_3 1_555 1_555
H38_3 C38_3 1_555 1_555
C41_3 N1_3 1_555 1_555
H40_3 C41_3 1_555 1_555
C49_3 N3_3 1_555 1_555
H47_3 C49_3 1_555 1_555
C50_3 C49_3 1_555 1_555
H48_3 C50_3 1_555 1_555
C51_3 C50_3 1_555 1_555
C52_3 C51_3 1_555 1_555
H49_3 C52_3 1_555 1_555
C53_3 N3_3 1_555 1_555
H50_3 C53_3 1_555 1_555
C54_3 C51_3 1_555 1_555
H51_3 C54_3 1_555 1_555
C55_3 C54_3 1_555 1_555
H52_3 C55_3 1_555 1_555
C56_3 C55_3 1_555 1_555
C57_3 C56_3 1_555 1_555
C58_3 C57_3 1_555 1_555
C59_3 N4_2 1_555 1_555
H55_3 C59_3 1_555 1_555
C60_3 C56_3 1_555 1_555
H56_3 C60_3 1_555 1_555
C61_3 N5 1_555 1_555
C62_3 C61_3 1_555 1_555
H58_3 C62_3 1_555 1_555
C63_3 C62_3 1_555 1_555
C64_3 C63_3 1_555 1_555
H59_3 C64_3 1_555 1_555
C65_3 N5 1_555 1_555
H60_3 C65_3 1_555 1_555
C66_3 C63_3 1_555 1_555
H61_3 C66_3 1_555 1_555
C67_3 C66_3 1_555 1_555
H62_3 C67_3 1_555 1_555
C68_3 C67_3 1_555 1_555
C69_3 C68_3 1_555 1_555
H63_3 C69_3 1_555 1_555
C70_3 C69_3 1_555 1_555
H64_3 C70_3 1_555 1_555
C71_3 N6_3 1_555 1_555
H65_3 C71_3 1_555 1_555
C72_3 C68_3 1_555 1_555
H66_3 C72_3 1_555 1_555
N7_3 C73_3 1_555 1_555
N8_3 Co14 1_555 1_555
C73_3 H67_3 1_555 1_555
C74_3 C73_3 1_555 1_555
H68_3 C74_3 1_555 1_555
C75_3 C74_3 1_555 1_555
C76_3 C75_3 1_555 1_555
H69_3 C76_3 1_555 1_555
C77_3 N7_3 1_555 1_555
C78_3 C75_3 1_555 1_555
H71_3 C78_3 1_555 1_555
C79_3 C78_3 1_555 1_555
H72_3 C79_3 1_555 1_555
C80_3 C79_3 1_555 1_555
C81_3 C80_3 1_555 1_555
H73_3 C81_3 1_555 1_555
C82_3 N8_3 1_555 1_555
H74_3 C82_3 1_555 1_555
C83_3 N8_3 1_555 1_555
H75_3 C83_3 1_555 1_555
C84_3 C80_3 1_555 1_555
H76_3 C84_3 1_555 1_555
Co8 N7_3 1_555 1_555
Co12 O7_3 1_555 1_555
O13_2 C91_3 1_555 1_555
O14 C91_3 1_555 1_555
O15_3 Co2_3 1_555 1_555
O16_3 Co2_3 1_555 1_555
C85_3 C86_3 1_555 1_555
C86_3 H77_3 1_555 1_555
C87_3 C86_3 1_555 1_555
C88_3 C87_3 1_555 1_555
H78_3 C88_3 1_555 1_555
C89_3 C88_3 1_555 1_555
C90_3 C85_3 1_555 1_555
H79_3 C90_3 1_555 1_555
C91_3 C85_3 1_555 1_555
C92_3 O15_3 1_555 1_555
C93_3 C87_3 1_555 1_555
C94_3 C93_3 1_555 1_555
H80_3 C94_3 1_555 1_555
H81_3 C94_3 1_555 1_555
H82_3 C94_3 1_555 1_555
C95_3 C93_3 1_555 1_555
H83_3 C95_3 1_555 1_555
H84_3 C95_3 1_555 1_555
H85_3 C95_3 1_555 1_555
C96_3 C93_3 1_555 1_555
H86_3 C96_3 1_555 1_555
H87_3 C96_3 1_555 1_555
H88_3 C96_3 1_555 1_555
N10_3 Co2_3 1_555 1_555
C106_3 N10_3 1_555 1_555
H96_3 C106_3 1_555 1_555
C107_3 N10_3 1_555 1_555
H97_3 C107_3 1_555 1_555
H98_3 C108_3 1_555 1_555
Co7_3 N6_3 1_555 1_555
O26_3 Co8 1_555 1_555
O28_2 Co8 1_555 1_555
O30_2 Co12 1_555 1_555
N14_2 Co12 1_555 1_555
Co11_2 O13_2 1_555 1_555
O10_3 C31_3 1_555 1_555
C13_3 C19_3 1_555 1_555
C17_3 C18_3 1_555 1_555
C25_3 C31_3 1_555 1_555
C27_3 C32_3 1_555 1_555
C29_3 C30_3 1_555 1_555
C40_3 C41_3 1_555 1_555
C52_3 C53_3 1_555 1_555
C59_3 C60_3 1_555 1_555
C64_3 C65_3 1_555 1_555
C71_3 C72_3 1_555 1_555
C76_3 C77_3 1_555 1_555
C81_3 C82_3 1_555 1_555
C83_3 C84_3 1_555 1_555
O16_3 C92_3 1_555 1_555
C89_3 C90_3 1_555 1_555
C89_3 C92_3 1_555 1_555
C107_3 C108_3 1_555 1_555
H17_3 C22_3 1_555 1_555
H18_3 C22_3 1_555 1_555
H19_3 C23_3 1_555 1_555
H20_3 C23_3 1_555 1_555
H21_3 C23_3 1_555 1_555
H31_4 C35_4 1_555 1_555
H32_4 C35_4 1_555 1_555
H33_4 C35_4 1_555 1_555
O17_2 C115_2 1_555 1_555
O18_2 C115_2 1_555 1_555
O33_2 C116_2 1_555 1_555
C109_2 C110_2 1_555 1_555
C110_2 H99_2 1_555 1_555
C111_2 C110_2 1_555 1_555
C112_2 C111_2 1_555 1_555
H100_2 C112_2 1_555 1_555
C113_2 C112_2 1_555 1_555
C114_2 C109_2 1_555 1_555
H101_2 C114_2 1_555 1_555
C115_2 C109_2 1_555 1_555
C116_2 O19_2 1_555 1_555
C117_2 C113_2 1_555 1_555
C118_2 C117_2 1_555 1_555
H102_2 C118_2 1_555 1_555
H104_2 C118_2 1_555 1_555
C119_2 C117_2 1_555 1_555
H105_2 C119_2 1_555 1_555
H106_2 C119_2 1_555 1_555
H107_2 C119_2 1_555 1_555
C120_2 C117_2 1_555 1_555
H108_2 C120_2 1_555 1_555
H109_2 C120_2 1_555 1_555
H110_2 C120_2 1_555 1_555
O30_2 C139_4 1_555 1_555
O23_4 C140_4 1_555 1_555
O24_4 C140_4 1_555 1_555
C133_4 C134_4 1_555 1_555
C134_4 H121_4 1_555 1_555
C135_4 C134_4 1_555 1_555
C136_4 C135_4 1_555 1_555
H122_4 C136_4 1_555 1_555
C137_4 C136_4 1_555 1_555
C138_4 C133_4 1_555 1_555
H123_4 C138_4 1_555 1_555
C139_4 O22_4 1_555 1_555
C140_4 C135_4 1_555 1_555
C141_4 C137_4 1_555 1_555
C142_4 C141_4 1_555 1_555
H124_4 C142_4 1_555 1_555
H125_4 C142_4 1_555 1_555
H126_4 C142_4 1_555 1_555
C143_4 C141_4 1_555 1_555
H127_4 C143_4 1_555 1_555
H128_4 C143_4 1_555 1_555
H129_4 C143_4 1_555 1_555
C144_4 C141_4 1_555 1_555
H130_4 C144_4 1_555 1_555
H131_4 C144_4 1_555 1_555
H132_4 C144_4 1_555 1_555
Co14_2 O17_2 1_555 1_555
Co7_4 O23_4 1_555 1_555
O18_2 Co14_2 1_555 1_555
C111_2 C116_2 1_555 1_555
C113_2 C114_2 1_555 1_555
O24_4 Co7_4 1_555 1_555
C133_4 C139_4 1_555 1_555
C137_4 C138_4 1_555 1_555
Co2_4 O6_4 1_555 1_555
Co7_2 O11_2 1_555 1_555
O5_4 Co14_2 1_555 1_555
O6_4 C19_4 1_555 1_555
O7_4 C20_4 1_555 1_555
O9_4 Co2_4 1_555 1_555
O10_4 Co14_2 1_555 1_555
O11_2 C32_4 1_555 1_555
N1_4 Co14_2 1_555 1_555
N3_4 Co2_4 1_555 1_555
N15_2 C58_4 1_555 1_555
N5_2 Co7_2 1_555 1_555
N6_4 C70_4 1_555 1_555
C13_4 C14_4 1_555 1_555
C14_4 H13_4 1_555 1_555
C15_4 C14_4 1_555 1_555
C16_4 C15_4 1_555 1_555
C17_4 C16_4 1_555 1_555
C18_4 C13_4 1_555 1_555
H15_4 C18_4 1_555 1_555
C19_4 O5_4 1_555 1_555
C20_4 C17_4 1_555 1_555
C21_4 C15_4 1_555 1_555
C24_4 C21_4 1_555 1_555
H22_4 C24_4 1_555 1_555
H23_4 C24_4 1_555 1_555
H24_4 C24_4 1_555 1_555
C25_4 C26_4 1_555 1_555
C26_4 H25_4 1_555 1_555
C27_4 C26_4 1_555 1_555
C28_4 C27_4 1_555 1_555
H26_4 C28_4 1_555 1_555
C29_4 C28_4 1_555 1_555
C30_4 C25_4 1_555 1_555
H27_4 C30_4 1_555 1_555
C31_4 O9_4 1_555 1_555
C33_4 C29_4 1_555 1_555
C34_4 C33_4 1_555 1_555
H30_4 C34_4 1_555 1_555
C36_4 C33_4 1_555 1_555
H34_4 C36_4 1_555 1_555
H35_4 C36_4 1_555 1_555
H36_4 C36_4 1_555 1_555
C37_4 N1_4 1_555 1_555
H37_4 C37_4 1_555 1_555
C38_4 C37_4 1_555 1_555
H38_4 C38_4 1_555 1_555
C41_4 N1_4 1_555 1_555
H40_4 C41_4 1_555 1_555
C49_4 N3_4 1_555 1_555
H47_4 C49_4 1_555 1_555
C50_4 C49_4 1_555 1_555
H48_4 C50_4 1_555 1_555
C51_4 C50_4 1_555 1_555
C52_4 C51_4 1_555 1_555
H49_4 C52_4 1_555 1_555
C53_4 N3_4 1_555 1_555
H50_4 C53_4 1_555 1_555
C54_4 C51_4 1_555 1_555
H51_4 C54_4 1_555 1_555
C55_4 C54_4 1_555 1_555
H52_4 C55_4 1_555 1_555
C56_4 C55_4 1_555 1_555
C57_4 C56_4 1_555 1_555
C58_4 C57_4 1_555 1_555
C59_4 N15_2 1_555 1_555
H55_4 C59_4 1_555 1_555
C60_4 C56_4 1_555 1_555
H56_4 C60_4 1_555 1_555
C61_4 N5_2 1_555 1_555
C62_4 C61_4 1_555 1_555
H58_4 C62_4 1_555 1_555
C63_4 C62_4 1_555 1_555
C64_4 C63_4 1_555 1_555
H59_4 C64_4 1_555 1_555
C65_4 N5_2 1_555 1_555
H60_4 C65_4 1_555 1_555
C66_4 C63_4 1_555 1_555
H61_4 C66_4 1_555 1_555
C67_4 C66_4 1_555 1_555
H62_4 C67_4 1_555 1_555
C68_4 C67_4 1_555 1_555
C69_4 C68_4 1_555 1_555
H63_4 C69_4 1_555 1_555
C70_4 C69_4 1_555 1_555
H64_4 C70_4 1_555 1_555
C71_4 N6_4 1_555 1_555
H65_4 C71_4 1_555 1_555
C72_4 C68_4 1_555 1_555
H66_4 C72_4 1_555 1_555
N7_4 C73_4 1_555 1_555
N8_4 Co14_2 1_555 1_555
C73_4 H67_4 1_555 1_555
C74_4 C73_4 1_555 1_555
H68_4 C74_4 1_555 1_555
C75_4 C74_4 1_555 1_555
C76_4 C75_4 1_555 1_555
H69_4 C76_4 1_555 1_555
C77_4 N7_4 1_555 1_555
C78_4 C75_4 1_555 1_555
H71_4 C78_4 1_555 1_555
C79_4 C78_4 1_555 1_555
H72_4 C79_4 1_555 1_555
C80_4 C79_4 1_555 1_555
C81_4 C80_4 1_555 1_555
H73_4 C81_4 1_555 1_555
C82_4 N8_4 1_555 1_555
H74_4 C82_4 1_555 1_555
C83_4 N8_4 1_555 1_555
H75_4 C83_4 1_555 1_555
C84_4 C80_4 1_555 1_555
H76_4 C84_4 1_555 1_555
Co11_2 N7_4 1_555 1_555
Co13 O7_4 1_555 1_555
O28_2 C91_4 1_555 1_555
O14_2 C91_4 1_555 1_555
O15_4 Co2_4 1_555 1_555
O16_4 Co2_4 1_555 1_555
C85_4 C86_4 1_555 1_555
C86_4 H77_4 1_555 1_555
C87_4 C86_4 1_555 1_555
C88_4 C87_4 1_555 1_555
H78_4 C88_4 1_555 1_555
C89_4 C88_4 1_555 1_555
C90_4 C85_4 1_555 1_555
H79_4 C90_4 1_555 1_555
C91_4 C85_4 1_555 1_555
C92_4 O15_4 1_555 1_555
C93_4 C87_4 1_555 1_555
C94_4 C93_4 1_555 1_555
H80_4 C94_4 1_555 1_555
H81_4 C94_4 1_555 1_555
H82_4 C94_4 1_555 1_555
C95_4 C93_4 1_555 1_555
H83_4 C95_4 1_555 1_555
H84_4 C95_4 1_555 1_555
H85_4 C95_4 1_555 1_555
C96_4 C93_4 1_555 1_555
H86_4 C96_4 1_555 1_555
H87_4 C96_4 1_555 1_555
H88_4 C96_4 1_555 1_555
N10_4 Co2_4 1_555 1_555
C106_4 N10_4 1_555 1_555
H96_4 C106_4 1_555 1_555
C107_4 N10_4 1_555 1_555
H97_4 C107_4 1_555 1_555
H98_4 C108_4 1_555 1_555
Co7_4 N6_4 1_555 1_555
O26_4 Co11_2 1_555 1_555
O10_4 C31_4 1_555 1_555
C13_4 C19_4 1_555 1_555
C17_4 C18_4 1_555 1_555
C25_4 C31_4 1_555 1_555
C27_4 C32_4 1_555 1_555
C29_4 C30_4 1_555 1_555
C40_4 C41_4 1_555 1_555
C52_4 C53_4 1_555 1_555
C59_4 C60_4 1_555 1_555
C64_4 C65_4 1_555 1_555
C71_4 C72_4 1_555 1_555
C76_4 C77_4 1_555 1_555
C81_4 C82_4 1_555 1_555
C83_4 C84_4 1_555 1_555
O16_4 C92_4 1_555 1_555
C89_4 C90_4 1_555 1_555
C89_4 C92_4 1_555 1_555
C107_4 C108_4 1_555 1_555
H17_4 C22_4 1_555 1_555
H18_4 C22_4 1_555 1_555
H19_4 C23_4 1_555 1_555
H20_4 C23_4 1_555 1_555
H21_4 C23_4 1_555 1_555
N11_4 C121_4 1_555 1_555
C121_4 H111_4 1_555 1_555
C122_4 C121_4 1_555 1_555
H112_4 C122_4 1_555 1_555
C123_4 C122_4 1_555 1_555
C124_4 C123_4 1_555 1_555
H113_4 C124_4 1_555 1_555
C125_4 N11_4 1_555 1_555
H114_4 C125_4 1_555 1_555
C126_4 C123_4 1_555 1_555
H115_4 C126_4 1_555 1_555
C127_4 C126_4 1_555 1_555
H116_4 C127_4 1_555 1_555
C128_4 C127_4 1_555 1_555
C129_4 C128_4 1_555 1_555
H117_4 C129_4 1_555 1_555
C130_4 N12_2 1_555 1_555
H118_4 C130_4 1_555 1_555
C132_4 C128_4 1_555 1_555
Co7_4 N11_4 1_555 1_555
C124_4 C125_4 1_555 1_555
C129_4 C130_4 1_555 1_555
C42_4 C39_4 1_555 1_555
H41_4 C42_4 1_555 1_555
C43_4 C42_4 1_555 1_555
H42_4 C43_4 1_555 1_555
C44_4 C43_4 1_555 1_555
C45_4 C44_4 1_555 1_555
C47_4 N13_2 1_555 1_555
H45_4 C47_4 1_555 1_555
C48_4 C44_4 1_555 1_555
H46_4 C48_4 1_555 1_555
N14_2 C97_4 1_555 1_555
C97_4 H89_4 1_555 1_555
C98_4 C97_4 1_555 1_555
H90_4 C98_4 1_555 1_555
C99_4 C98_4 1_555 1_555
C100_4 C99_4 1_555 1_555
H91_4 C100_4 1_555 1_555
C101_4 N14_2 1_555 1_555
C102_4 C99_4 1_555 1_555
H93_4 C102_4 1_555 1_555
C103_4 C102_4 1_555 1_555
H94_4 C103_4 1_555 1_555
C104_4 C103_4 1_555 1_555
C105_4 C104_4 1_555 1_555
H95_4 C105_4 1_555 1_555
H119_4 C131_4 1_555 1_555
C47_4 C48_4 1_555 1_555
C100_4 C101_4 1_555 1_555
H44_4 C46_4 1_555 1_555
H105_3 C119_3 1_555 1_555
H106_3 C119_3 1_555 1_555
H108_3 C120_3 1_555 1_555
H109_3 C120_3 1_555 1_555
H110_3 C120_3 1_555 1_555
H100_3 C112_3 1_555 1_555
C113_3 C112_3 1_555 1_555
C117_3 C113_3 1_555 1_555
C118_3 C117_3 1_555 1_555
H102_3 C118_3 1_555 1_555
H103_3 C118_3 1_555 1_555
H104_3 C118_3 1_555 1_555
O26_3 C115_3 1_555 1_555
O19_3 Co7_3 1_555 1_555
C109_3 C110_3 1_555 1_555
C110_3 H99_3 1_555 1_555
C111_3 C110_3 1_555 1_555
C114_3 C109_3 1_555 1_555
C115_3 C109_3 1_555 1_555
C116_3 O19_3 1_555 1_555
C111_3 C116_3 1_555 1_555
H105_4 C119_4 1_555 1_555
H106_4 C119_4 1_555 1_555
H108_4 C120_4 1_555 1_555
H109_4 C120_4 1_555 1_555
H110_4 C120_4 1_555 1_555
O26_4 C115_4 1_555 1_555
O19_4 Co7_4 1_555 1_555
O33_4 C116_4 1_555 1_555
C109_4 C110_4 1_555 1_555
C110_4 H99_4 1_555 1_555
C111_4 C110_4 1_555 1_555
C112_4 C111_4 1_555 1_555
H100_4 C112_4 1_555 1_555
C113_4 C112_4 1_555 1_555
C114_4 C109_4 1_555 1_555
C115_4 C109_4 1_555 1_555
C116_4 O19_4 1_555 1_555
C117_4 C113_4 1_555 1_555
C118_4 C117_4 1_555 1_555
H102_4 C118_4 1_555 1_555
H103_4 C118_4 1_555 1_555
H104_4 C118_4 1_555 1_555
C111_4 C116_4 1_555 1_555
C113_4 C114_4 1_555 1_555

#END
