
###############################################################################
#
# This file contains modified crystal structure data generated from the
# MOF subset of the Cambridge Structural Database (CSD) v543 
# hosted by the Cambridge Crystallographic Data Centre (CCDC).
#
# This work is licensed under the Creative Commons
# Attribution-NonCommercial-ShareAlike 4.0 International License.
# To view a copy of this license, visit
# http://creativecommons.org/licenses/by-nc-sa/4.0/
# or send a letter to
# Creative Commons, PO Box 1866, Mountain View, CA 94042, USA.
#
# CIF created using the CSD Python API on 29 September 2022
# The structure has been converted into the P1 space group
# The structure has a 3D framework
# The original CSD entry COQGAS is in the monoclinic crystal system
# The framework has been calculated to contain at least 10.0% void space
# The void calculation uses a probe of radius 1.32A, grid spacing 0.4
#
###############################################################################

data_COQGAS
_chemical_formula_moiety         '(C184 H120 N16 O40 Zn8)n'
_symmetry_cell_setting           triclinic
_symmetry_space_group_name_H-M   'P 1'
_symmetry_Int_Tables_number      1
_space_group_name_Hall           'P 1'
loop_
_symmetry_equiv_pos_site_id
_symmetry_equiv_pos_as_xyz
1 x,y,z
_cell_length_a                   14.900(4)
_cell_length_b                   24.324(6)
_cell_length_c                   16.253(6)
_cell_angle_alpha                90
_cell_angle_beta                 113.233(4)
_cell_angle_gamma                90
_cell_volume                     5412.86
loop_
_atom_site_label
_atom_site_type_symbol
_atom_site_fract_x
_atom_site_fract_y
_atom_site_fract_z
Zn1 Zn 0.41865(3) 0.013454(19) 0.63776(4)
N1 N 0.3320(2) 0.02875(14) 0.5067(3)
N2 N 0.0887(3) 0.00793(15) 0.1884(3)
C15 C 0.3690(3) 0.04884(16) 0.4498(3)
H9 H 0.4347 0.0614 0.4741
C16 C 0.3185(3) 0.05240(18) 0.3595(3)
H10 H 0.3485 0.0669 0.3223
C17 C 0.2221(3) 0.03434(17) 0.3230(3)
C18 C 0.1812(3) 0.01413(18) 0.3798(3)
H11 H 0.1154 0.0017 0.3566
C19 C 0.2371(3) 0.01222(18) 0.4707(3)
C20 C 0.1698(3) 0.03223(18) 0.2239(3)
H13 H 0.1977 0.0494 0.1870
C21 C 0.0449(3) 0.00599(18) 0.0932(3)
C23 C 0.0434(3) 0.04976(18) 0.0382(3)
H15 H 0.0725 0.0837 0.0639
O11 O 0.5343(2) 0.05834(12) 0.6461(2)
O13 O 0.3625(2) 0.05509(13) 0.7096(2)
O1 O 0.4048(2) 0.67991(12) 0.6314(2)
O2 O 0.4768(2) 0.93832(11) 0.6429(2)
O3 O 0.3299(2) 0.93768(12) 0.6447(2)
O4 O 0.0343(2) 0.55834(12) 0.6461(2)
O5 O 0.1375(2) 0.55509(13) 0.7904(2)
C1 C 0.4036(3) 0.85070(17) 0.6431(3)
C2 C 0.4770(3) 0.82236(17) 0.6286(4)
H1 H 0.5285 0.8423 0.6218
C3 C 0.4762(3) 0.76564(18) 0.6241(4)
H2 H 0.5259 0.7465 0.6129
C4 C 0.4012(3) 0.73683(17) 0.6363(3)
C5 C 0.3270(3) 0.76447(18) 0.6511(4)
H3 H 0.2760 0.7446 0.6588
C6 C 0.3288(3) 0.82176(18) 0.6544(3)
H4 H 0.2787 0.8411 0.6645
C7 C 0.4022(3) 0.91173(17) 0.6442(3)
C8 C 0.3340(3) 0.65159(16) 0.6510(3)
C9 C 0.3527(3) 0.63714(19) 0.7391(4)
H5 H 0.4131 0.6464 0.7861
C10 C 0.2820(3) 0.60922(19) 0.7568(4)
H6 H 0.2946 0.5981 0.8164
C11 C 0.1918(3) 0.59701(15) 0.6884(3)
C12 C 0.1752(3) 0.61039(19) 0.6005(3)
H7 H 0.1151 0.6008 0.5533
C13 C 0.2466(3) 0.6378(2) 0.5818(4)
H8 H 0.2357 0.6471 0.5218
C14 C 0.1153(3) 0.56779(15) 0.7102(3)
H12 H 0.2082 0.9989 0.5095
C22 C 0.0002(3) 0.95569(19) 0.0541(3)
H14 H 0.0002 0.9256 0.0914
Zn4 Zn 0.08135(3) 0.513454(19) 0.86224(4)
Zn3 Zn 0.91865(3) 0.513454(19) 0.63776(4)
Zn1_2 Zn 0.58135(3) 0.013454(19) 0.86224(4)
N1_2 N 0.6680(2) 0.02875(14) 0.9933(3)
O11_2 O 0.4657(2) 0.05834(12) 0.8539(2)
O13_2 O 0.6375(2) 0.05509(13) 0.7904(2)
O1_2 O 0.5952(2) 0.67991(12) 0.8686(2)
O2_2 O 0.5232(2) 0.93832(11) 0.8571(2)
O3_2 O 0.6701(2) 0.93768(12) 0.8553(2)
O4_2 O 0.9657(2) 0.55834(12) 0.8539(2)
O5_2 O 0.8625(2) 0.55509(13) 0.7096(2)
C1_2 C 0.5964(3) 0.85070(17) 0.8569(3)
C2_2 C 0.5230(3) 0.82236(17) 0.8714(4)
H1_2 H 0.4715 0.8423 0.8782
C3_2 C 0.5238(3) 0.76564(18) 0.8759(4)
H2_2 H 0.4741 0.7465 0.8871
C4_2 C 0.5988(3) 0.73683(17) 0.8637(3)
C5_2 C 0.6730(3) 0.76447(18) 0.8489(4)
H3_2 H 0.7240 0.7446 0.8412
C6_2 C 0.6712(3) 0.82176(18) 0.8456(3)
H4_2 H 0.7213 0.8411 0.8355
C7_2 C 0.5978(3) 0.91173(17) 0.8558(3)
C8_2 C 0.6660(3) 0.65159(16) 0.8490(3)
C9_2 C 0.6473(3) 0.63714(19) 0.7609(4)
H5_2 H 0.5869 0.6464 0.7139
C10_2 C 0.7180(3) 0.60922(19) 0.7432(4)
H6_2 H 0.7054 0.5981 0.6836
C11_2 C 0.8082(3) 0.59701(15) 0.8116(3)
C12_2 C 0.8248(3) 0.61039(19) 0.8995(3)
H7_2 H 0.8849 0.6008 0.9467
C13_2 C 0.7534(3) 0.6378(2) 0.9182(4)
H8_2 H 0.7643 0.6471 0.9782
C14_2 C 0.8847(3) 0.56779(15) 0.7898(3)
H12_2 H 0.7918 0.9989 0.9905
H1_3 H 0.0285 0.3423 0.6218
H2_3 H 0.0259 0.2465 0.6129
O1_3 O 0.9048(2) 0.17991(12) 0.6314(2)
O2_3 O 0.9768(2) 0.43832(11) 0.6429(2)
O3_3 O 0.8299(2) 0.43768(12) 0.6447(2)
N1_3 N 0.8320(2) 0.52875(14) 0.5067(3)
N2_2 N 0.5887(3) 0.50793(15) 0.1884(3)
C1_3 C 0.9036(3) 0.35070(17) 0.6431(3)
C2_3 C 0.9770(3) 0.32236(17) 0.6286(4)
C3_3 C 0.9762(3) 0.26564(18) 0.6241(4)
C4_3 C 0.9012(3) 0.23683(17) 0.6363(3)
C5_3 C 0.8270(3) 0.26447(18) 0.6511(4)
H3_3 H 0.7760 0.2446 0.6588
C6_3 C 0.8288(3) 0.32176(18) 0.6544(3)
H4_3 H 0.7787 0.3411 0.6645
C7_3 C 0.9022(3) 0.41173(17) 0.6442(3)
C8_3 C 0.8340(3) 0.15159(16) 0.6510(3)
C9_3 C 0.8527(3) 0.13714(19) 0.7391(4)
H5_3 H 0.9131 0.1464 0.7861
C10_3 C 0.7820(3) 0.10922(19) 0.7568(4)
H6_3 H 0.7946 0.0981 0.8164
C11_3 C 0.6918(3) 0.09701(15) 0.6884(3)
C12_3 C 0.6752(3) 0.11039(19) 0.6005(3)
H7_3 H 0.6151 0.1008 0.5533
C13_3 C 0.7466(3) 0.1378(2) 0.5818(4)
H8_3 H 0.7357 0.1471 0.5218
C14_3 C 0.6153(3) 0.06779(15) 0.7102(3)
C15_2 C 0.8690(3) 0.54884(16) 0.4498(3)
H9_2 H 0.9347 0.5614 0.4741
C16_2 C 0.8185(3) 0.55240(18) 0.3595(3)
H10_2 H 0.8485 0.5669 0.3223
C17_2 C 0.7221(3) 0.53434(17) 0.3230(3)
C18_2 C 0.6812(3) 0.51413(18) 0.3798(3)
H11_2 H 0.6154 0.5017 0.3566
C19_2 C 0.7371(3) 0.51222(18) 0.4707(3)
H12_3 H 0.7082 0.4989 0.5095
C20_2 C 0.6698(3) 0.53223(18) 0.2239(3)
H13_2 H 0.6977 0.5494 0.1870
C21_2 C 0.5449(3) 0.50599(18) 0.0932(3)
C22_2 C 0.5002(3) 0.45569(19) 0.0541(3)
H14_2 H 0.5002 0.4256 0.0914
C23_2 C 0.5434(3) 0.54976(18) 0.0382(3)
H15_2 H 0.5725 0.5837 0.0639
O1_4 O 0.0952(2) 0.17991(12) 0.8686(2)
O2_4 O 0.0232(2) 0.43832(11) 0.8571(2)
O3_4 O 0.1701(2) 0.43768(12) 0.8553(2)
N1_4 N 0.1680(2) 0.52875(14) 0.9933(3)
C1_4 C 0.0964(3) 0.35070(17) 0.8569(3)
C2_4 C 0.0230(3) 0.32236(17) 0.8714(4)
C3_4 C 0.0238(3) 0.26564(18) 0.8759(4)
C4_4 C 0.0988(3) 0.23683(17) 0.8637(3)
C5_4 C 0.1730(3) 0.26447(18) 0.8489(4)
H3_4 H 0.2240 0.2446 0.8412
C6_4 C 0.1712(3) 0.32176(18) 0.8456(3)
H4_4 H 0.2213 0.3411 0.8355
C7_4 C 0.0978(3) 0.41173(17) 0.8558(3)
C8_4 C 0.1660(3) 0.15159(16) 0.8490(3)
C9_4 C 0.1473(3) 0.13714(19) 0.7609(4)
H5_4 H 0.0869 0.1464 0.7139
C10_4 C 0.2180(3) 0.10922(19) 0.7432(4)
H6_4 H 0.2054 0.0981 0.6836
C11_4 C 0.3082(3) 0.09701(15) 0.8116(3)
C12_4 C 0.3248(3) 0.11039(19) 0.8995(3)
H7_4 H 0.3849 0.1008 0.9467
C13_4 C 0.2534(3) 0.1378(2) 0.9182(4)
H8_4 H 0.2643 0.1471 0.9782
C14_4 C 0.3847(3) 0.06779(15) 0.7898(3)
H12_4 H 0.2918 0.4989 0.9905
H1_4 H 0.9715 0.3423 0.8782
H2_4 H 0.9741 0.2465 0.8871
Zn5 Zn 0.08135(3) 0.486546(19) 0.36224(4)
H19 H 0.7918 0.0011 0.4905
C31 C 0.9998(3) 0.04431(19) 0.9459(3)
H21 H 0.9998 0.0744 0.9086
O6 O 0.5952(2) 0.32009(12) 0.3686(2)
O7 O 0.5232(2) 0.06168(11) 0.3571(2)
O8 O 0.6701(2) 0.06232(12) 0.3553(2)
O9 O 0.9657(2) 0.44166(12) 0.3539(2)
O10 O 0.8625(2) 0.44491(13) 0.2096(2)
C33 C 0.5964(3) 0.14930(17) 0.3569(3)
C34 C 0.5230(3) 0.17764(17) 0.3714(4)
H23 H 0.4715 0.1577 0.3782
C35 C 0.5238(3) 0.23436(18) 0.3759(4)
H24 H 0.4741 0.2535 0.3871
C36 C 0.5988(3) 0.26317(17) 0.3637(3)
C37 C 0.6730(3) 0.23553(18) 0.3489(4)
H25 H 0.7240 0.2554 0.3412
C38 C 0.6712(3) 0.17824(18) 0.3456(3)
H26 H 0.7213 0.1589 0.3355
C39 C 0.5978(3) 0.08827(17) 0.3558(3)
C40 C 0.6660(3) 0.34841(16) 0.3490(3)
C41 C 0.6473(3) 0.36286(19) 0.2609(4)
H27 H 0.5869 0.3536 0.2139
C42 C 0.7180(3) 0.39078(19) 0.2432(4)
H28 H 0.7054 0.4019 0.1836
C43 C 0.8082(3) 0.40299(15) 0.3116(3)
C44 C 0.8248(3) 0.38961(19) 0.3995(3)
H29 H 0.8849 0.3992 0.4467
C45 C 0.7534(3) 0.3622(2) 0.4182(4)
H30 H 0.7643 0.3529 0.4782
C46 C 0.8847(3) 0.43221(15) 0.2898(3)
Zn6 Zn 0.91865(3) 0.486546(19) 0.13776(4)
N3 N 0.6680(2) 0.97125(14) 0.4933(3)
N4 N 0.9113(3) 0.99207(15) 0.8116(3)
C24 C 0.6310(3) 0.95116(16) 0.5502(3)
H16 H 0.5653 0.9386 0.5259
C25 C 0.6815(3) 0.94760(18) 0.6405(3)
H17 H 0.6515 0.9331 0.6777
C26 C 0.7779(3) 0.96566(17) 0.6770(3)
C27 C 0.8188(3) 0.98587(18) 0.6202(3)
H18 H 0.8846 0.9983 0.6434
C28 C 0.7629(3) 0.98778(18) 0.5293(3)
C29 C 0.8302(3) 0.96777(18) 0.7761(3)
H20 H 0.8023 0.9506 0.8130
C30 C 0.9551(3) 0.99401(18) 0.9068(3)
C32 C 0.9566(3) 0.95024(18) 0.9618(3)
H22 H 0.9275 0.9163 0.9361
Zn2 Zn 0.58135(3) 0.986546(19) 0.36224(4)
O12 O 0.4657(2) 0.94166(12) 0.3539(2)
O14 O 0.6375(2) 0.94491(13) 0.2904(2)
H19_2 H 0.2082 0.0011 0.0095
O6_2 O 0.4048(2) 0.32009(12) 0.1314(2)
O7_2 O 0.4768(2) 0.06168(11) 0.1429(2)
O8_2 O 0.3299(2) 0.06232(12) 0.1447(2)
O9_2 O 0.0343(2) 0.44166(12) 0.1461(2)
O10_2 O 0.1375(2) 0.44491(13) 0.2904(2)
C33_2 C 0.4036(3) 0.14930(17) 0.1431(3)
C34_2 C 0.4770(3) 0.17764(17) 0.1286(4)
H23_2 H 0.5285 0.1577 0.1218
C35_2 C 0.4762(3) 0.23436(18) 0.1241(4)
H24_2 H 0.5259 0.2535 0.1129
C36_2 C 0.4012(3) 0.26317(17) 0.1363(3)
C37_2 C 0.3270(3) 0.23553(18) 0.1511(4)
H25_2 H 0.2760 0.2554 0.1588
C38_2 C 0.3288(3) 0.17824(18) 0.1544(3)
H26_2 H 0.2787 0.1589 0.1645
C39_2 C 0.4022(3) 0.08827(17) 0.1442(3)
C40_2 C 0.3340(3) 0.34841(16) 0.1510(3)
C41_2 C 0.3527(3) 0.36286(19) 0.2391(4)
H27_2 H 0.4131 0.3536 0.2861
C42_2 C 0.2820(3) 0.39078(19) 0.2568(4)
H28_2 H 0.2946 0.4019 0.3164
C43_2 C 0.1918(3) 0.40299(15) 0.1884(3)
C44_2 C 0.1752(3) 0.38961(19) 0.1005(3)
H29_2 H 0.1151 0.3992 0.0533
C45_2 C 0.2466(3) 0.3622(2) 0.0818(4)
H30_2 H 0.2357 0.3529 0.0218
C46_2 C 0.1153(3) 0.43221(15) 0.2102(3)
N3_2 N 0.3320(2) 0.97125(14) 0.0067(3)
Zn2_2 Zn 0.41865(3) 0.986546(19) 0.13776(4)
O12_2 O 0.5343(2) 0.94166(12) 0.1461(2)
O14_2 O 0.3625(2) 0.94491(13) 0.2096(2)
N3_3 N 0.1680(2) 0.47125(14) 0.4933(3)
N4_2 N 0.4113(3) 0.49207(15) 0.8116(3)
C24_2 C 0.1310(3) 0.45116(16) 0.5502(3)
H16_2 H 0.0653 0.4386 0.5259
C25_2 C 0.1815(3) 0.44760(18) 0.6405(3)
H17_2 H 0.1515 0.4331 0.6777
C26_2 C 0.2779(3) 0.46566(17) 0.6770(3)
C27_2 C 0.3188(3) 0.48587(18) 0.6202(3)
H18_2 H 0.3846 0.4983 0.6434
C28_2 C 0.2629(3) 0.48778(18) 0.5293(3)
H19_3 H 0.2918 0.5011 0.4905
C29_2 C 0.3302(3) 0.46777(18) 0.7761(3)
H20_2 H 0.3023 0.4506 0.8130
C30_2 C 0.4551(3) 0.49401(18) 0.9068(3)
C31_2 C 0.4998(3) 0.54431(19) 0.9459(3)
H21_2 H 0.4998 0.5744 0.9086
C32_2 C 0.4566(3) 0.45024(18) 0.9618(3)
H22_2 H 0.4275 0.4163 0.9361
O6_3 O 0.0952(2) 0.82009(12) 0.3686(2)
O7_3 O 0.0232(2) 0.56168(11) 0.3571(2)
O8_3 O 0.1701(2) 0.56232(12) 0.3553(2)
C33_3 C 0.0964(3) 0.64930(17) 0.3569(3)
C34_3 C 0.0230(3) 0.67764(17) 0.3714(4)
C35_3 C 0.0238(3) 0.73436(18) 0.3759(4)
C36_3 C 0.0988(3) 0.76317(17) 0.3637(3)
C37_3 C 0.1730(3) 0.73553(18) 0.3489(4)
H25_3 H 0.2240 0.7554 0.3412
C38_3 C 0.1712(3) 0.67824(18) 0.3456(3)
H26_3 H 0.2213 0.6589 0.3355
C39_3 C 0.0978(3) 0.58827(17) 0.3558(3)
C40_3 C 0.1660(3) 0.84841(16) 0.3490(3)
C41_3 C 0.1473(3) 0.86286(19) 0.2609(4)
H27_3 H 0.0869 0.8536 0.2139
C42_3 C 0.2180(3) 0.89078(19) 0.2432(4)
H28_3 H 0.2054 0.9019 0.1836
C43_3 C 0.3082(3) 0.90299(15) 0.3116(3)
C44_3 C 0.3248(3) 0.88961(19) 0.3995(3)
H29_3 H 0.3849 0.8992 0.4467
C45_3 C 0.2534(3) 0.8622(2) 0.4182(4)
H30_3 H 0.2643 0.8529 0.4782
C46_3 C 0.3847(3) 0.93221(15) 0.2898(3)
H23_3 H 0.9715 0.6577 0.3782
H24_3 H 0.9741 0.7535 0.3871
H23_4 H 0.0285 0.6577 0.1218
H24_4 H 0.0259 0.7535 0.1129
N3_4 N 0.8320(2) 0.47125(14) 0.0067(3)
H19_4 H 0.7082 0.5011 0.0095
O6_4 O 0.9048(2) 0.82009(12) 0.1314(2)
O7_4 O 0.9768(2) 0.56168(11) 0.1429(2)
O8_4 O 0.8299(2) 0.56232(12) 0.1447(2)
C33_4 C 0.9036(3) 0.64930(17) 0.1431(3)
C34_4 C 0.9770(3) 0.67764(17) 0.1286(4)
C35_4 C 0.9762(3) 0.73436(18) 0.1241(4)
C36_4 C 0.9012(3) 0.76317(17) 0.1363(3)
C37_4 C 0.8270(3) 0.73553(18) 0.1511(4)
H25_4 H 0.7760 0.7554 0.1588
C38_4 C 0.8288(3) 0.67824(18) 0.1544(3)
H26_4 H 0.7787 0.6589 0.1645
C39_4 C 0.9022(3) 0.58827(17) 0.1442(3)
C40_4 C 0.8340(3) 0.84841(16) 0.1510(3)
C41_4 C 0.8527(3) 0.86286(19) 0.2391(4)
H27_4 H 0.9131 0.8536 0.2861
C42_4 C 0.7820(3) 0.89078(19) 0.2568(4)
H28_4 H 0.7946 0.9019 0.3164
C43_4 C 0.6918(3) 0.90299(15) 0.1884(3)
C44_4 C 0.6752(3) 0.88961(19) 0.1005(3)
H29_4 H 0.6151 0.8992 0.0533
C45_4 C 0.7466(3) 0.8622(2) 0.0818(4)
H30_4 H 0.7357 0.8529 0.0218
C46_4 C 0.6153(3) 0.93221(15) 0.2102(3)
C31_3 C 0.0002(3) 0.04431(19) 0.5541(3)
H21_3 H 0.0002 0.0744 0.5914
N4_3 N 0.0887(3) 0.99207(15) 0.6884(3)
C24_3 C 0.3690(3) 0.95116(16) 0.9498(3)
H16_3 H 0.4347 0.9386 0.9741
C25_3 C 0.3185(3) 0.94760(18) 0.8595(3)
H17_3 H 0.3485 0.9331 0.8223
C26_3 C 0.2221(3) 0.96566(17) 0.8230(3)
C27_3 C 0.1812(3) 0.98587(18) 0.8798(3)
H18_3 H 0.1154 0.9983 0.8566
C28_3 C 0.2371(3) 0.98778(18) 0.9707(3)
C29_3 C 0.1698(3) 0.96777(18) 0.7239(3)
H20_3 H 0.1977 0.9506 0.6870
C30_3 C 0.0449(3) 0.99401(18) 0.5932(3)
C32_3 C 0.0434(3) 0.95024(18) 0.5382(3)
H22_3 H 0.0725 0.9163 0.5639
N2_3 N 0.9113(3) 0.00793(15) 0.3116(3)
C15_3 C 0.6310(3) 0.04884(16) 0.0502(3)
H9_3 H 0.5653 0.0614 0.0259
C16_3 C 0.6815(3) 0.05240(18) 0.1405(3)
H10_3 H 0.6515 0.0669 0.1777
C17_3 C 0.7779(3) 0.03434(17) 0.1770(3)
C18_3 C 0.8188(3) 0.01413(18) 0.1202(3)
H11_3 H 0.8846 0.0017 0.1434
C19_3 C 0.7629(3) 0.01222(18) 0.0293(3)
C20_3 C 0.8302(3) 0.03223(18) 0.2761(3)
H13_3 H 0.8023 0.0494 0.3130
C21_3 C 0.9551(3) 0.00599(18) 0.4068(3)
C23_3 C 0.9566(3) 0.04976(18) 0.4618(3)
H15_3 H 0.9275 0.0837 0.4361
C22_3 C 0.9998(3) 0.95569(19) 0.4459(3)
H14_3 H 0.9998 0.9256 0.4086
N2_4 N 0.4113(3) 0.50793(15) 0.3116(3)
C15_4 C 0.1310(3) 0.54884(16) 0.0502(3)
H9_4 H 0.0653 0.5614 0.0259
C16_4 C 0.1815(3) 0.55240(18) 0.1405(3)
H10_4 H 0.1515 0.5669 0.1777
C17_4 C 0.2779(3) 0.53434(17) 0.1770(3)
C18_4 C 0.3188(3) 0.51413(18) 0.1202(3)
H11_4 H 0.3846 0.5017 0.1434
C19_4 C 0.2629(3) 0.51222(18) 0.0293(3)
C20_4 C 0.3302(3) 0.53223(18) 0.2761(3)
H13_4 H 0.3023 0.5494 0.3130
C21_4 C 0.4551(3) 0.50599(18) 0.4068(3)
C22_4 C 0.4998(3) 0.45569(19) 0.4459(3)
H14_4 H 0.4998 0.4256 0.4086
C23_4 C 0.4566(3) 0.54976(18) 0.4618(3)
H15_4 H 0.4275 0.5837 0.4361
N4_4 N 0.5887(3) 0.49207(15) 0.6884(3)
C24_4 C 0.8690(3) 0.45116(16) 0.9498(3)
H16_4 H 0.9347 0.4386 0.9741
C25_4 C 0.8185(3) 0.44760(18) 0.8595(3)
H17_4 H 0.8485 0.4331 0.8223
C26_4 C 0.7221(3) 0.46566(17) 0.8230(3)
C27_4 C 0.6812(3) 0.48587(18) 0.8798(3)
H18_4 H 0.6154 0.4983 0.8566
C28_4 C 0.7371(3) 0.48778(18) 0.9707(3)
C29_4 C 0.6698(3) 0.46777(18) 0.7239(3)
H20_4 H 0.6977 0.4506 0.6870
C30_4 C 0.5449(3) 0.49401(18) 0.5932(3)
C31_4 C 0.5002(3) 0.54431(19) 0.5541(3)
H21_4 H 0.5002 0.5744 0.5914
C32_4 C 0.5434(3) 0.45024(18) 0.5382(3)
H22_4 H 0.5725 0.4163 0.5639
loop_
_geom_bond_atom_site_label_1
_geom_bond_atom_site_label_2
_geom_bond_site_symmetry_1
_geom_bond_site_symmetry_2
N1 Zn1 1_555 1_555
N2 C20 1_555 1_555
C15 N1 1_555 1_555
H9 C15 1_555 1_555
C16 C15 1_555 1_555
H10 C16 1_555 1_555
C17 C16 1_555 1_555
C18 C17 1_555 1_555
H11 C18 1_555 1_555
C19 N1 1_555 1_555
C20 C17 1_555 1_555
H13 C20 1_555 1_555
C21 N2 1_555 1_555
C23 C21 1_555 1_555
H15 C23 1_555 1_555
O11 Zn1 1_555 1_555
O13 Zn1 1_555 1_555
C18 C19 1_555 1_555
O1 C4 1_555 1_555
O2 C7 1_555 1_555
O4 C14 1_555 1_555
O5 C14 1_555 1_555
C1 C2 1_555 1_555
C2 H1 1_555 1_555
C3 C2 1_555 1_555
H2 C3 1_555 1_555
C4 C3 1_555 1_555
C5 C4 1_555 1_555
H3 C5 1_555 1_555
C6 C1 1_555 1_555
H4 C6 1_555 1_555
C7 O3 1_555 1_555
C8 O1 1_555 1_555
C9 C8 1_555 1_555
H5 C9 1_555 1_555
C10 C9 1_555 1_555
H6 C10 1_555 1_555
C11 C10 1_555 1_555
C12 C11 1_555 1_555
H7 C12 1_555 1_555
C13 C8 1_555 1_555
H8 C13 1_555 1_555
C14 C11 1_555 1_555
H14 C22 1_555 1_555
Zn4 O5 1_555 1_555
C1 C7 1_555 1_555
C5 C6 1_555 1_555
C12 C13 1_555 1_555
N1_2 Zn1_2 1_555 1_555
O11_2 Zn1_2 1_555 1_555
O13_2 Zn1_2 1_555 1_555
O1_2 C4_2 1_555 1_555
O2_2 C7_2 1_555 1_555
O4_2 C14_2 1_555 1_555
O5_2 C14_2 1_555 1_555
C1_2 C2_2 1_555 1_555
C2_2 H1_2 1_555 1_555
C3_2 C2_2 1_555 1_555
H2_2 C3_2 1_555 1_555
C4_2 C3_2 1_555 1_555
C5_2 C4_2 1_555 1_555
H3_2 C5_2 1_555 1_555
C6_2 C1_2 1_555 1_555
H4_2 C6_2 1_555 1_555
C7_2 O3_2 1_555 1_555
C8_2 O1_2 1_555 1_555
C9_2 C8_2 1_555 1_555
H5_2 C9_2 1_555 1_555
C10_2 C9_2 1_555 1_555
H6_2 C10_2 1_555 1_555
C11_2 C10_2 1_555 1_555
C12_2 C11_2 1_555 1_555
H7_2 C12_2 1_555 1_555
C13_2 C8_2 1_555 1_555
H8_2 C13_2 1_555 1_555
C14_2 C11_2 1_555 1_555
Zn3 O5_2 1_555 1_555
C1_2 C7_2 1_555 1_555
C5_2 C6_2 1_555 1_555
C12_2 C13_2 1_555 1_555
Zn3 O2_3 1_555 1_555
O1_3 C4_3 1_555 1_555
O2_3 C7_3 1_555 1_555
O3_3 Zn3 1_555 1_555
O11 C14_3 1_555 1_555
O13_2 C14_3 1_555 1_555
N1_3 Zn3 1_555 1_555
N2_2 C20_2 1_555 1_555
C1_3 C2_3 1_555 1_555
C3_3 C2_3 1_555 1_555
C4_3 C3_3 1_555 1_555
C5_3 C4_3 1_555 1_555
H3_3 C5_3 1_555 1_555
C6_3 C1_3 1_555 1_555
H4_3 C6_3 1_555 1_555
C7_3 O3_3 1_555 1_555
C8_3 O1_3 1_555 1_555
C9_3 C8_3 1_555 1_555
H5_3 C9_3 1_555 1_555
C10_3 C9_3 1_555 1_555
H6_3 C10_3 1_555 1_555
C11_3 C10_3 1_555 1_555
C12_3 C11_3 1_555 1_555
H7_3 C12_3 1_555 1_555
C13_3 C8_3 1_555 1_555
H8_3 C13_3 1_555 1_555
C14_3 C11_3 1_555 1_555
C15_2 N1_3 1_555 1_555
H9_2 C15_2 1_555 1_555
C16_2 C15_2 1_555 1_555
H10_2 C16_2 1_555 1_555
C17_2 C16_2 1_555 1_555
C18_2 C17_2 1_555 1_555
H11_2 C18_2 1_555 1_555
C19_2 N1_3 1_555 1_555
H12_3 C19_2 1_555 1_555
C20_2 C17_2 1_555 1_555
H13_2 C20_2 1_555 1_555
C21_2 N2_2 1_555 1_555
C22_2 C21_2 1_555 1_555
H14_2 C22_2 1_555 1_555
C23_2 C21_2 1_555 1_555
H15_2 C23_2 1_555 1_555
C1_3 C7_3 1_555 1_555
C5_3 C6_3 1_555 1_555
C12_3 C13_3 1_555 1_555
C18_2 C19_2 1_555 1_555
Zn4 O2_4 1_555 1_555
O1_4 C4_4 1_555 1_555
O2_4 C7_4 1_555 1_555
O3_4 Zn4 1_555 1_555
O11_2 C14_4 1_555 1_555
O13 C14_4 1_555 1_555
N1_4 Zn4 1_555 1_555
C1_4 C2_4 1_555 1_555
C3_4 C2_4 1_555 1_555
C4_4 C3_4 1_555 1_555
C5_4 C4_4 1_555 1_555
H3_4 C5_4 1_555 1_555
C6_4 C1_4 1_555 1_555
H4_4 C6_4 1_555 1_555
C7_4 O3_4 1_555 1_555
C8_4 O1_4 1_555 1_555
C9_4 C8_4 1_555 1_555
H5_4 C9_4 1_555 1_555
C10_4 C9_4 1_555 1_555
H6_4 C10_4 1_555 1_555
C11_4 C10_4 1_555 1_555
C12_4 C11_4 1_555 1_555
H7_4 C12_4 1_555 1_555
C13_4 C8_4 1_555 1_555
H8_4 C13_4 1_555 1_555
C14_4 C11_4 1_555 1_555
C1_4 C7_4 1_555 1_555
C5_4 C6_4 1_555 1_555
C12_4 C13_4 1_555 1_555
H21 C31 1_555 1_555
O6 C36 1_555 1_555
O9 C46 1_555 1_555
O10 C46 1_555 1_555
C33 C34 1_555 1_555
C34 H23 1_555 1_555
C35 C34 1_555 1_555
H24 C35 1_555 1_555
C36 C35 1_555 1_555
C37 C36 1_555 1_555
H25 C37 1_555 1_555
C38 C33 1_555 1_555
H26 C38 1_555 1_555
C39 O7 1_555 1_555
C40 O6 1_555 1_555
C41 C40 1_555 1_555
H27 C41 1_555 1_555
C42 C41 1_555 1_555
H28 C42 1_555 1_555
C43 C42 1_555 1_555
C44 C43 1_555 1_555
H29 C44 1_555 1_555
C45 C40 1_555 1_555
H30 C45 1_555 1_555
C46 C43 1_555 1_555
Zn6 O10 1_555 1_555
O8 C39 1_555 1_555
C33 C39 1_555 1_555
C37 C38 1_555 1_555
C44 C45 1_555 1_555
N3 C24 1_555 1_555
N4 C29 1_555 1_555
C24 H16 1_555 1_555
C25 C24 1_555 1_555
H17 C25 1_555 1_555
C26 C25 1_555 1_555
C27 C26 1_555 1_555
H18 C27 1_555 1_555
C28 N3 1_555 1_555
C29 C26 1_555 1_555
H20 C29 1_555 1_555
C30 N4 1_555 1_555
H22 C32 1_555 1_555
Zn2 N3 1_555 1_555
O12 Zn2 1_555 1_555
O14 Zn2 1_555 1_555
C27 C28 1_555 1_555
C30 C32 1_555 1_555
O6_2 C36_2 1_555 1_555
O9_2 C46_2 1_555 1_555
O10_2 C46_2 1_555 1_555
C33_2 C34_2 1_555 1_555
C34_2 H23_2 1_555 1_555
C35_2 C34_2 1_555 1_555
H24_2 C35_2 1_555 1_555
C36_2 C35_2 1_555 1_555
C37_2 C36_2 1_555 1_555
H25_2 C37_2 1_555 1_555
C38_2 C33_2 1_555 1_555
H26_2 C38_2 1_555 1_555
C39_2 O7_2 1_555 1_555
C40_2 O6_2 1_555 1_555
C41_2 C40_2 1_555 1_555
H27_2 C41_2 1_555 1_555
C42_2 C41_2 1_555 1_555
H28_2 C42_2 1_555 1_555
C43_2 C42_2 1_555 1_555
C44_2 C43_2 1_555 1_555
H29_2 C44_2 1_555 1_555
C45_2 C40_2 1_555 1_555
H30_2 C45_2 1_555 1_555
C46_2 C43_2 1_555 1_555
Zn5 O10_2 1_555 1_555
O8_2 C39_2 1_555 1_555
C33_2 C39_2 1_555 1_555
C37_2 C38_2 1_555 1_555
C44_2 C45_2 1_555 1_555
Zn2_2 N3_2 1_555 1_555
O12_2 Zn2_2 1_555 1_555
O14_2 Zn2_2 1_555 1_555
N3_3 C24_2 1_555 1_555
N4_2 C29_2 1_555 1_555
C24_2 H16_2 1_555 1_555
C25_2 C24_2 1_555 1_555
H17_2 C25_2 1_555 1_555
C26_2 C25_2 1_555 1_555
C27_2 C26_2 1_555 1_555
H18_2 C27_2 1_555 1_555
C28_2 N3_3 1_555 1_555
H19_3 C28_2 1_555 1_555
C29_2 C26_2 1_555 1_555
H20_2 C29_2 1_555 1_555
C30_2 N4_2 1_555 1_555
H21_2 C31_2 1_555 1_555
H22_2 C32_2 1_555 1_555
Zn5 N3_3 1_555 1_555
O6_3 C36_3 1_555 1_555
O7_3 Zn5 1_555 1_555
O8_3 Zn5 1_555 1_555
O12 C46_3 1_555 1_555
O14_2 C46_3 1_555 1_555
C33_3 C34_3 1_555 1_555
C35_3 C34_3 1_555 1_555
C36_3 C35_3 1_555 1_555
C37_3 C36_3 1_555 1_555
H25_3 C37_3 1_555 1_555
C38_3 C33_3 1_555 1_555
H26_3 C38_3 1_555 1_555
C39_3 O7_3 1_555 1_555
C40_3 O6_3 1_555 1_555
C41_3 C40_3 1_555 1_555
H27_3 C41_3 1_555 1_555
C42_3 C41_3 1_555 1_555
H28_3 C42_3 1_555 1_555
C43_3 C42_3 1_555 1_555
C44_3 C43_3 1_555 1_555
H29_3 C44_3 1_555 1_555
C45_3 C40_3 1_555 1_555
H30_3 C45_3 1_555 1_555
C46_3 C43_3 1_555 1_555
C27_2 C28_2 1_555 1_555
C30_2 C31_2 1_555 1_555
C30_2 C32_2 1_555 1_555
O8_3 C39_3 1_555 1_555
C33_3 C39_3 1_555 1_555
C37_3 C38_3 1_555 1_555
C44_3 C45_3 1_555 1_555
Zn6 N3_4 1_555 1_555
O6_4 C36_4 1_555 1_555
O7_4 Zn6 1_555 1_555
O8_4 Zn6 1_555 1_555
O12_2 C46_4 1_555 1_555
O14 C46_4 1_555 1_555
C33_4 C34_4 1_555 1_555
C35_4 C34_4 1_555 1_555
C36_4 C35_4 1_555 1_555
C37_4 C36_4 1_555 1_555
H25_4 C37_4 1_555 1_555
C38_4 C33_4 1_555 1_555
H26_4 C38_4 1_555 1_555
C39_4 O7_4 1_555 1_555
C40_4 O6_4 1_555 1_555
C41_4 C40_4 1_555 1_555
H27_4 C41_4 1_555 1_555
C42_4 C41_4 1_555 1_555
H28_4 C42_4 1_555 1_555
C43_4 C42_4 1_555 1_555
C44_4 C43_4 1_555 1_555
H29_4 C44_4 1_555 1_555
C45_4 C40_4 1_555 1_555
H30_4 C45_4 1_555 1_555
C46_4 C43_4 1_555 1_555
O8_4 C39_4 1_555 1_555
C33_4 C39_4 1_555 1_555
C37_4 C38_4 1_555 1_555
C44_4 C45_4 1_555 1_555
H21_3 C31_3 1_555 1_555
N4_3 C29_3 1_555 1_555
C24_3 H16_3 1_555 1_555
C25_3 C24_3 1_555 1_555
H17_3 C25_3 1_555 1_555
C26_3 C25_3 1_555 1_555
C27_3 C26_3 1_555 1_555
H18_3 C27_3 1_555 1_555
C29_3 C26_3 1_555 1_555
H20_3 C29_3 1_555 1_555
C30_3 N4_3 1_555 1_555
H22_3 C32_3 1_555 1_555
C27_3 C28_3 1_555 1_555
C30_3 C32_3 1_555 1_555
N2_3 C20_3 1_555 1_555
H9_3 C15_3 1_555 1_555
C16_3 C15_3 1_555 1_555
H10_3 C16_3 1_555 1_555
C17_3 C16_3 1_555 1_555
C18_3 C17_3 1_555 1_555
H11_3 C18_3 1_555 1_555
C20_3 C17_3 1_555 1_555
H13_3 C20_3 1_555 1_555
C21_3 N2_3 1_555 1_555
C23_3 C21_3 1_555 1_555
H15_3 C23_3 1_555 1_555
C18_3 C19_3 1_555 1_555
H14_3 C22_3 1_555 1_555
N2_4 C20_4 1_555 1_555
H9_4 C15_4 1_555 1_555
C16_4 C15_4 1_555 1_555
H10_4 C16_4 1_555 1_555
C17_4 C16_4 1_555 1_555
C18_4 C17_4 1_555 1_555
H11_4 C18_4 1_555 1_555
C20_4 C17_4 1_555 1_555
H13_4 C20_4 1_555 1_555
C21_4 N2_4 1_555 1_555
C22_4 C21_4 1_555 1_555
H14_4 C22_4 1_555 1_555
C23_4 C21_4 1_555 1_555
H15_4 C23_4 1_555 1_555
N4_4 C29_4 1_555 1_555
C24_4 H16_4 1_555 1_555
C25_4 C24_4 1_555 1_555
H17_4 C25_4 1_555 1_555
C26_4 C25_4 1_555 1_555
C27_4 C26_4 1_555 1_555
H18_4 C27_4 1_555 1_555
C29_4 C26_4 1_555 1_555
H20_4 C29_4 1_555 1_555
C30_4 N4_4 1_555 1_555
C31_4 C23_4 1_555 1_555
H21_4 C31_4 1_555 1_555
C32_4 C22_4 1_555 1_555
H22_4 C32_4 1_555 1_555
C18_4 C19_4 1_555 1_555
C27_4 C28_4 1_555 1_555
C30_4 C31_4 1_555 1_555
C30_4 C32_4 1_555 1_555

#END
