
###############################################################################
#
# This file contains modified crystal structure data generated from the
# MOF subset of the Cambridge Structural Database (CSD) v543 
# hosted by the Cambridge Crystallographic Data Centre (CCDC).
#
# This work is licensed under the Creative Commons
# Attribution-NonCommercial-ShareAlike 4.0 International License.
# To view a copy of this license, visit
# http://creativecommons.org/licenses/by-nc-sa/4.0/
# or send a letter to
# Creative Commons, PO Box 1866, Mountain View, CA 94042, USA.
#
# CIF created using the CSD Python API on 29 September 2022
# The structure has been converted into the P1 space group
# The structure has a 3D framework
# The original CSD entry COQHUN is in the monoclinic crystal system
# The framework has been calculated to contain at least 10.0% void space
# The void calculation uses a probe of radius 1.32A, grid spacing 0.4
# The framework is charged, counterions have been retained in the structure
# H atom positions have been added when not included in the experimental data
# Generated hydrogen atom positions removed from atoms on special positions
#
###############################################################################

data_COQHUN
_chemical_formula_moiety         '(C150 H158 Cl6 Co2 Mn7 N24 O31 2-)n'
_symmetry_cell_setting           triclinic
_symmetry_space_group_name_H-M   'P 1'
_symmetry_Int_Tables_number      1
_space_group_name_Hall           'P 1'
loop_
_symmetry_equiv_pos_site_id
_symmetry_equiv_pos_as_xyz
1 x,y,z
_cell_length_a                   12.3989(12)
_cell_length_b                   33.418(3)
_cell_length_c                   12.9445(16)
_cell_angle_alpha                90
_cell_angle_beta                 98.312(11)
_cell_angle_gamma                90
_cell_volume                     5307.17
loop_
_atom_site_label
_atom_site_type_symbol
_atom_site_fract_x
_atom_site_fract_y
_atom_site_fract_z
Cl1 Cl 0.1541(2) 0.2500 0.65145(16)
Cl1_2 Cl 0.8459(2) 0.7500 0.34855(16)
Cl2 Cl 0.6923(3) 0.2500 0.2248(3)
Cl2_2 Cl 0.3077(3) 0.7500 0.7752(3)
Cl3 Cl 0.2824(6) 0.2500 0.8745(6)
Cl3_2 Cl 0.7176(6) 0.7500 0.1255(6)
Mn12 Mn 0.5000 -0.0000 -0.0000
O10 O 0.2299(3) 0.01329(10) 0.8510(3)
Mn8 Mn 0.29943(5) 0.06928(2) 0.89393(5)
Mn12_2 Mn 0.5000 0.0000 1.0000
Mn2 Mn 0.5000 0.5000 -0.0000
H10 H 0.1104 0.4490 0.0171
O13 O 0.5549(3) 0.62165(10) 0.0870(3)
O14 O 0.5268(3) 0.55673(9) 0.0929(3)
C53 C 0.1579(4) 0.60939(14) 0.1358(4)
C56 C 0.0418(4) 0.61342(14) 0.1483(4)
C58 C 0.3746(4) 0.59931(14) 0.1059(4)
C59 C 0.3152(4) 0.56724(14) 0.1345(4)
H45 H 0.3484 0.5416 0.1442
C60 C 0.4912(4) 0.59273(13) 0.0929(4)
C62 C 0.2085(4) 0.57213(15) 0.1490(4)
H48 H 0.1685 0.5498 0.1684
C66 C 0.3274(4) 0.63708(15) 0.0924(5)
H52 H 0.3688 0.6593 0.0750
C67 C 0.2177(4) 0.64176(16) 0.1050(5)
H53 H 0.1836 0.6671 0.0927
C74 C 0.0432(5) 0.67464(19) 0.2734(6)
H61 H 0.0141 0.7002 0.2443
H62 H 0.0255 0.6715 0.3443
H63 H 0.1225 0.6743 0.2754
Mn7 Mn 0.70057(5) 0.56928(2) 0.10607(5)
Mn12_3 Mn 0.5000 1.0000 -0.0000
O17 O 0.3051(3) 0.42384(12) 0.0556(3)
O22 O 0.6305(3) 0.47284(11) 0.0969(3)
O23 O 0.3970(3) 0.47876(10) 0.1083(3)
Mn1 Mn 0.29943(5) 0.43072(2) 0.89393(5)
Mn2_2 Mn 0.5000 0.5000 1.0000
N1 N 0.1133(3) 0.36790(11) 0.8045(3)
O4 O 0.2299(3) 0.48671(10) 0.8510(3)
O5 O 0.3695(3) 0.52716(11) 0.9031(3)
N2 N 0.2997(3) 0.41176(11) 0.7245(3)
N3 N 0.2392(3) 0.37956(11) 0.6848(3)
N4 N 0.1376(3) 0.40029(11) 0.8692(3)
C1 C 0.3006(5) 0.42115(15) 0.4416(4)
C2 C 0.0435(4) 0.41210(14) 0.8981(4)
C4 C 0.3284(4) 0.43085(15) 0.6423(4)
C5 C 0.3460(4) 0.44780(14) 0.1234(4)
C7 C 0.3311(4) 0.43887(14) 0.2350(4)
C8 C 0.2730(4) 0.52066(14) 0.8647(4)
C13 C 0.2008(4) 0.35151(13) 0.7568(4)
H4 H 0.1757 0.3267 0.7188
H5 H 0.2619 0.3444 0.8117
C14 C 0.0144(4) 0.68759(15) 0.6809(4)
C15 C 0.0910(5) 0.55224(16) 0.7978(4)
H6 H 0.0596 0.5263 0.7911
C17 C 0.2018(4) 0.55669(15) 0.8323(4)
C18 C 0.2853(4) 0.41089(14) 0.5495(3)
C19 C 0.0062(4) 0.35888(14) 0.7936(4)
C20 C 0.0025(5) 0.66044(15) 0.7572(5)
C21 C 0.0265(5) 0.58579(16) 0.7733(5)
C22 C 0.0712(4) 0.62405(15) 0.7816(5)
C23 C 0.0403(4) 0.44690(16) 0.9714(5)
H9 H 0.0265 0.4716 0.9310
C27 C 0.2282(4) 0.37856(15) 0.5797(4)
C28 C 0.3306(5) 0.39924(17) 0.2689(4)
H14 H 0.3392 0.3782 0.2215
C29 C 0.3157(5) 0.46918(16) 0.3045(4)
H15 H 0.3161 0.4963 0.2823
C30 C 0.2479(5) 0.59433(16) 0.8404(5)
H16 H 0.3239 0.5973 0.8626
C31 C 0.3179(5) 0.39032(17) 0.3702(4)
H17 H 0.3208 0.3632 0.3926
C33 C 0.2998(5) 0.46043(17) 0.4064(4)
H21 H 0.2881 0.4816 0.4525
C34 C 0.1823(5) 0.62824(16) 0.8159(5)
H22 H 0.2140 0.6542 0.8227
C35 C 0.3970(6) 0.46797(18) 0.6557(4)
H23 H 0.4326 0.4699 0.7282
H24 H 0.3506 0.4915 0.6386
H25 H 0.4525 0.4668 0.6091
C36 C 0.0942(5) 0.69115(17) 0.6061(5)
H26 H 0.1454 0.7129 0.6283
H27 H 0.0555 0.6969 0.5363
H28 H 0.1344 0.6660 0.6046
C38 C 0.1595(7) 0.3480(2) 0.5168(5)
H32 H 0.0860 0.3482 0.5363
H33 H 0.1920 0.3215 0.5305
H34 H 0.1554 0.3543 0.4424
O11 O 0.3695(3) 0.97284(11) 0.9031(3)
C39 C 0.2730(4) 0.97934(14) 0.8647(4)
C40 C 0.0144(4) 0.81241(15) 0.6809(4)
C41 C 0.0910(5) 0.94776(16) 0.7978(4)
H35 H 0.0596 0.9737 0.7911
C42 C 0.2018(4) 0.94331(15) 0.8323(4)
C43 C 0.0025(5) 0.83956(15) 0.7572(5)
C44 C 0.0265(5) 0.91421(16) 0.7733(5)
C45 C 0.0712(4) 0.87595(15) 0.7816(5)
C47 C 0.2479(5) 0.90567(16) 0.8404(5)
H37 H 0.3239 0.9027 0.8626
C49 C 0.1823(5) 0.87176(16) 0.8159(5)
H41 H 0.2140 0.8458 0.8227
C50 C 0.0942(5) 0.80885(17) 0.6061(5)
H42 H 0.1454 0.7871 0.6283
H43 H 0.0555 0.8031 0.5363
H44 H 0.1344 0.8340 0.6046
H51 H 0.0181 0.5573 0.9861
Mn12_4 Mn 0.5000 1.0000 1.0000
O19 O 0.4732(3) 0.44327(9) 0.9071(3)
O24 O 0.6030(3) 0.52124(10) 0.8917(3)
H11 H 0.9819 0.4427 0.0139
N9 N 0.8867(3) 0.63210(11) 0.1955(3)
O12 O 0.6949(3) 0.57616(12) 0.9444(3)
N10 N 0.7003(3) 0.58824(11) 0.2755(3)
N11 N 0.7608(3) 0.62044(11) 0.3152(3)
N12 N 0.8624(3) 0.59971(11) 0.1308(3)
C51 C 0.6994(5) 0.57885(15) 0.5584(4)
C52 C 0.9565(4) 0.58790(14) 0.1019(4)
C54 C 0.6716(4) 0.56915(15) 0.3577(4)
C55 C 0.6540(4) 0.55220(14) 0.8766(4)
C57 C 0.6689(4) 0.56113(14) 0.7650(4)
C61 C 0.7992(4) 0.64849(13) 0.2432(4)
H46 H 0.8243 0.6733 0.2812
H47 H 0.7381 0.6556 0.1883
C63 C 0.7147(4) 0.58911(14) 0.4505(3)
C64 C 0.9938(4) 0.64112(14) 0.2064(4)
C65 C 0.9597(4) 0.55310(16) 0.0286(5)
H49 H 0.9735 0.5284 0.0690
C68 C 0.7718(4) 0.62144(15) 0.4203(4)
C69 C 0.6694(5) 0.60076(17) 0.7311(4)
H54 H 0.6608 0.6218 0.7785
C70 C 0.6843(5) 0.53082(16) 0.6955(4)
H55 H 0.6839 0.5037 0.7177
C71 C 0.6821(5) 0.60968(17) 0.6298(4)
H56 H 0.6792 0.6368 0.6074
C72 C 0.7002(5) 0.53957(17) 0.5936(4)
H57 H 0.7119 0.5184 0.5475
C73 C 0.6030(6) 0.53203(18) 0.3443(4)
H58 H 0.5674 0.5301 0.2718
H59 H 0.6494 0.5085 0.3614
H60 H 0.5475 0.5332 0.3909
C75 C 0.8405(7) 0.6520(2) 0.4832(5)
H64 H 0.9140 0.6518 0.4637
H65 H 0.8080 0.6785 0.4695
H66 H 0.8446 0.6457 0.5576
O21 O 0.7701(3) 0.51329(10) 0.1490(3)
Co1 Co 0.75474(8) 0.7500 0.80074(8)
O2 O 0.4451(3) 0.37835(10) 0.9130(3)
O7 O 0.8294(5) 0.7500 0.9524(4)
N5 N 0.9307(3) 0.71468(12) 0.6811(3)
N6 N 0.8687(4) 0.70622(12) 0.7585(3)
C3 C 0.8421(4) 0.39061(14) 0.8642(4)
C6 C 0.9582(4) 0.38658(14) 0.8517(4)
C9 C 0.6254(4) 0.40069(14) 0.8941(4)
C10 C 0.6848(4) 0.43276(14) 0.8655(4)
H1 H 0.6516 0.4584 0.8558
C11 C 0.5088(4) 0.40727(13) 0.9071(4)
C12 C 0.9070(6) 0.7500 0.6202(6)
H2 H 0.8290 0.7500 0.5899
H3 H 0.9506 0.7500 0.5619
C16 C 0.7915(4) 0.42787(15) 0.8510(4)
H7 H 0.8315 0.4502 0.8316
H8 H 0.9506 0.5826 0.7504
C24 C 0.9131(4) 0.67214(15) 0.8056(4)
C25 C 0.6726(4) 0.36292(15) 0.9076(5)
H12 H 0.6312 0.3407 0.9250
C26 C 0.7823(4) 0.35824(16) 0.8950(5)
H13 H 0.8164 0.3329 0.9073
O8 O 0.6437(4) 0.70524(13) 0.8358(4)
C32 C 0.8744(5) 0.65439(17) 0.8987(5)
H18 H 0.8098 0.6689 0.9138
H19 H 0.9321 0.6563 0.9588
H20 H 0.8558 0.6262 0.8851
O9 O 0.6558(5) 0.7500 0.6492(6)
C37 C 0.9568(5) 0.32536(19) 0.7266(6)
H29 H 0.9859 0.2998 0.7557
H30 H 0.9745 0.3285 0.6557
H31 H 0.8775 0.3257 0.7246
N7 N 0.9307(3) 0.78532(12) 0.6811(3)
N8 N 0.8687(4) 0.79378(12) 0.7585(3)
H36 H 0.9506 0.9174 0.7504
C46 C 0.9131(4) 0.82786(15) 0.8056(4)
C48 C 0.8744(5) 0.84561(17) 0.8987(5)
H38 H 0.8098 0.8311 0.9138
H39 H 0.9321 0.8437 0.9588
H40 H 0.8558 0.8738 0.8851
H50 H 0.8896 0.5510 0.9829
O16 O 0.6437(4) 0.79476(13) 0.8358(4)
Co1_2 Co 0.24526(8) 0.2500 0.19926(8)
O7_2 O 0.1706(5) 0.2500 0.0476(4)
N5_2 N 0.0693(3) 0.21468(12) 0.3189(3)
N6_2 N 0.1313(4) 0.20622(12) 0.2415(3)
C12_2 C 0.0930(6) 0.2500 0.3798(6)
H2_2 H 0.1710 0.2500 0.4101
H3_2 H 0.0494 0.2500 0.4381
H8_2 H 0.0494 0.0826 0.2496
C24_2 C 0.0869(4) 0.17214(15) 0.1944(4)
O8_2 O 0.3563(4) 0.20524(13) 0.1642(4)
C32_2 C 0.1256(5) 0.15439(17) 0.1013(5)
H18_2 H 0.1902 0.1689 0.0862
H19_2 H 0.0679 0.1563 0.0412
H20_2 H 0.1442 0.1262 0.1149
O9_2 O 0.3442(5) 0.2500 0.3508(6)
N7_2 N 0.0693(3) 0.28532(12) 0.3189(3)
N8_2 N 0.1313(4) 0.29378(12) 0.2415(3)
H36_2 H 0.0494 0.4174 0.2496
C46_2 C 0.0869(4) 0.32786(15) 0.1944(4)
C48_2 C 0.1256(5) 0.34561(17) 0.1013(5)
H38_2 H 0.1902 0.3311 0.0862
H39_2 H 0.0679 0.3437 0.0412
H40_2 H 0.1442 0.3738 0.1149
H50_2 H 0.1104 0.0510 0.0171
O16_2 O 0.3563(4) 0.29476(13) 0.1642(4)
O18 O 0.3051(3) 0.07616(12) 0.0556(3)
N9_2 N 0.1133(3) 0.13210(11) 0.8045(3)
N10_2 N 0.2997(3) 0.08824(11) 0.7245(3)
O15 O 0.3970(3) 0.02124(10) 0.1083(3)
N11_2 N 0.2392(3) 0.12044(11) 0.6848(3)
N12_2 N 0.1376(3) 0.09971(11) 0.8692(3)
C51_2 C 0.3006(5) 0.07885(15) 0.4416(4)
C52_2 C 0.0435(4) 0.08790(14) 0.8981(4)
C54_2 C 0.3284(4) 0.06915(15) 0.6423(4)
C55_2 C 0.3460(4) 0.05220(14) 0.1234(4)
C57_2 C 0.3311(4) 0.06113(14) 0.2350(4)
C61_2 C 0.2008(4) 0.14849(13) 0.7568(4)
H46_2 H 0.1757 0.1733 0.7188
H47_2 H 0.2619 0.1556 0.8117
C63_2 C 0.2853(4) 0.08911(14) 0.5495(3)
C64_2 C 0.0062(4) 0.14112(14) 0.7936(4)
C65_2 C 0.0403(4) 0.05310(16) 0.9714(5)
H49_2 H 0.0265 0.0284 0.9310
C68_2 C 0.2282(4) 0.12144(15) 0.5797(4)
C69_2 C 0.3306(5) 0.10076(17) 0.2689(4)
H54_2 H 0.3392 0.1218 0.2215
C70_2 C 0.3157(5) 0.03082(16) 0.3045(4)
H55_2 H 0.3161 0.0037 0.2823
C71_2 C 0.3179(5) 0.10968(17) 0.3702(4)
H56_2 H 0.3208 0.1368 0.3926
C72_2 C 0.2998(5) 0.03957(17) 0.4064(4)
H57_2 H 0.2881 0.0184 0.4525
C73_2 C 0.3970(6) 0.03203(18) 0.6557(4)
H58_2 H 0.4326 0.0301 0.7282
H59_2 H 0.3506 0.0085 0.6386
H60_2 H 0.4525 0.0332 0.6091
C75_2 C 0.1595(7) 0.1520(2) 0.5168(5)
H64_2 H 0.0860 0.1518 0.5363
H65_2 H 0.1920 0.1785 0.5305
H66_2 H 0.1554 0.1457 0.4424
O20 O 0.4732(3) 0.05673(9) 0.9071(3)
O2_2 O 0.5549(3) 0.87835(10) 0.0870(3)
O3 O 0.5268(3) 0.94327(9) 0.0929(3)
C3_2 C 0.1579(4) 0.89061(14) 0.1358(4)
C6_2 C 0.0418(4) 0.88658(14) 0.1483(4)
C9_2 C 0.3746(4) 0.90069(14) 0.1059(4)
C10_2 C 0.3152(4) 0.93276(14) 0.1345(4)
H1_2 H 0.3484 0.9584 0.1442
C11_2 C 0.4912(4) 0.90727(13) 0.0929(4)
C16_2 C 0.2085(4) 0.92787(15) 0.1490(4)
H7_2 H 0.1685 0.9502 0.1684
C25_2 C 0.3274(4) 0.86292(15) 0.0924(5)
H12_2 H 0.3688 0.8407 0.0750
C26_2 C 0.2177(4) 0.85824(16) 0.1050(5)
H13_2 H 0.1836 0.8329 0.0927
C37_2 C 0.0432(5) 0.82536(19) 0.2734(6)
H29_2 H 0.0141 0.7998 0.2443
H30_2 H 0.0255 0.8285 0.3443
H31_2 H 0.1225 0.8257 0.2754
Mn4 Mn 0.70057(5) 0.93072(2) 0.10607(5)
H11_2 H 0.0181 0.9427 0.9861
O5_2 O 0.6305(3) 0.02716(11) 0.0969(3)
C8_2 C 0.7270(4) 0.02066(14) 0.1353(4)
C14_2 C 0.9856(4) 0.18759(15) 0.3191(4)
C15_2 C 0.9090(5) 0.05224(16) 0.2022(4)
H6_2 H 0.9404 0.0263 0.2089
C17_2 C 0.7982(4) 0.05669(15) 0.1677(4)
C20_2 C 0.9975(5) 0.16044(15) 0.2428(5)
C21_2 C 0.9735(5) 0.08579(16) 0.2267(5)
C22_2 C 0.9288(4) 0.12405(15) 0.2184(5)
C30_2 C 0.7521(5) 0.09433(16) 0.1596(5)
H16_2 H 0.6761 0.0973 0.1374
C34_2 C 0.8177(5) 0.12824(16) 0.1841(5)
H22_2 H 0.7860 0.1542 0.1773
C36_2 C 0.9058(5) 0.19115(17) 0.3939(5)
H26_2 H 0.8546 0.2129 0.3717
H27_2 H 0.9445 0.1969 0.4637
H28_2 H 0.8656 0.1660 0.3954
C39_2 C 0.7270(4) 0.47934(14) 0.1353(4)
C40_2 C 0.9856(4) 0.31241(15) 0.3191(4)
C41_2 C 0.9090(5) 0.44776(16) 0.2022(4)
H35_2 H 0.9404 0.4737 0.2089
C42_2 C 0.7982(4) 0.44331(15) 0.1677(4)
C43_2 C 0.9975(5) 0.33956(15) 0.2428(5)
C44_2 C 0.9735(5) 0.41421(16) 0.2267(5)
C45_2 C 0.9288(4) 0.37595(15) 0.2184(5)
C47_2 C 0.7521(5) 0.40567(16) 0.1596(5)
H37_2 H 0.6761 0.4027 0.1374
C49_2 C 0.8177(5) 0.37176(16) 0.1841(5)
H41_2 H 0.7860 0.3458 0.1773
C50_2 C 0.9058(5) 0.30885(17) 0.3939(5)
H42_2 H 0.8546 0.2871 0.3717
H43_2 H 0.9445 0.3031 0.4637
H44_2 H 0.8656 0.3340 0.3954
H51_2 H 0.9819 0.0573 0.0139
O13_2 O 0.4451(3) 0.12165(10) 0.9130(3)
C53_2 C 0.8421(4) 0.10939(14) 0.8642(4)
C56_2 C 0.9582(4) 0.11342(14) 0.8517(4)
C58_2 C 0.6254(4) 0.09931(14) 0.8941(4)
C59_2 C 0.6848(4) 0.06724(14) 0.8655(4)
H45_2 H 0.6516 0.0416 0.8558
C60_2 C 0.5088(4) 0.09273(13) 0.9071(4)
C62_2 C 0.7915(4) 0.07213(15) 0.8510(4)
H48_2 H 0.8315 0.0498 0.8316
C66_2 C 0.6726(4) 0.13708(15) 0.9076(5)
H52_2 H 0.6312 0.1593 0.9250
C67_2 C 0.7823(4) 0.14176(16) 0.8950(5)
H53_2 H 0.8164 0.1671 0.9073
C74_2 C 0.9568(5) 0.17464(19) 0.7266(6)
H61_2 H 0.9859 0.2002 0.7557
H62_2 H 0.9745 0.1715 0.6557
H63_2 H 0.8775 0.1743 0.7246
N1_2 N 0.8867(3) 0.86790(11) 0.1955(3)
O1 O 0.6949(3) 0.92384(12) 0.9444(3)
O4_2 O 0.7701(3) 0.98671(10) 0.1490(3)
N2_2 N 0.7003(3) 0.91176(11) 0.2755(3)
O6 O 0.6030(3) 0.97876(10) 0.8917(3)
N3_2 N 0.7608(3) 0.87956(11) 0.3152(3)
N4_2 N 0.8624(3) 0.90029(11) 0.1308(3)
C1_2 C 0.6994(5) 0.92115(15) 0.5584(4)
C2_2 C 0.9565(4) 0.91210(14) 0.1019(4)
C4_2 C 0.6716(4) 0.93085(15) 0.3577(4)
C5_2 C 0.6540(4) 0.94780(14) 0.8766(4)
C7_2 C 0.6689(4) 0.93887(14) 0.7650(4)
C13_2 C 0.7992(4) 0.85151(13) 0.2432(4)
H4_2 H 0.8243 0.8267 0.2812
H5_2 H 0.7381 0.8444 0.1883
C18_2 C 0.7147(4) 0.91089(14) 0.4505(3)
C19_2 C 0.9938(4) 0.85888(14) 0.2064(4)
C23_2 C 0.9597(4) 0.94690(16) 0.0286(5)
H9_2 H 0.9735 0.9716 0.0690
C27_2 C 0.7718(4) 0.87856(15) 0.4203(4)
C28_2 C 0.6694(5) 0.89924(17) 0.7311(4)
H14_2 H 0.6608 0.8782 0.7785
C29_2 C 0.6843(5) 0.96918(16) 0.6955(4)
H15_2 H 0.6839 0.9963 0.7177
C31_2 C 0.6821(5) 0.89032(17) 0.6298(4)
H17_2 H 0.6792 0.8632 0.6074
C33_2 C 0.7002(5) 0.96043(17) 0.5936(4)
H21_2 H 0.7119 0.9816 0.5475
C35_2 C 0.6030(6) 0.96797(18) 0.3443(4)
H23_2 H 0.5674 0.9699 0.2718
H24_2 H 0.6494 0.9915 0.3614
H25_2 H 0.5475 0.9668 0.3909
C38_2 C 0.8405(7) 0.8480(2) 0.4832(5)
H32_2 H 0.9140 0.8482 0.4637
H33_2 H 0.8080 0.8215 0.4695
H34_2 H 0.8446 0.8543 0.5576
H10_2 H 0.8896 0.9490 0.9829
loop_
_geom_bond_atom_site_label_1
_geom_bond_atom_site_label_2
_geom_bond_site_symmetry_1
_geom_bond_site_symmetry_2
Mn8 O10 1_555 1_555
O13 C60 1_555 1_555
O14 Mn2 1_555 1_555
C53 C56 1_555 1_555
C58 C59 1_555 1_555
C59 H45 1_555 1_555
C60 O14 1_555 1_555
C62 C53 1_555 1_555
H48 C62 1_555 1_555
C66 C58 1_555 1_555
H52 C66 1_555 1_555
C67 C53 1_555 1_555
H53 C67 1_555 1_555
H61 C74 1_555 1_555
H62 C74 1_555 1_555
H63 C74 1_555 1_555
Mn7 O14 1_555 1_555
O22 Mn2 1_555 1_555
O23 Mn2 1_555 1_555
C58 C60 1_555 1_555
C59 C62 1_555 1_555
C66 C67 1_555 1_555
Mn1 O4 1_555 1_555
Mn2_2 O5 1_555 1_555
N1 N4 1_555 1_555
O17 C5 1_555 1_555
O4 C8 1_555 1_555
O5 C8 1_555 1_555
N2 Mn1 1_555 1_555
O23 C5 1_555 1_555
N3 N2 1_555 1_555
N4 Mn1 1_555 1_555
C1 C18 1_555 1_555
C2 N4 1_555 1_555
C4 N2 1_555 1_555
C5 C7 1_555 1_555
C7 C28 1_555 1_555
C8 C17 1_555 1_555
C13 N1 1_555 1_555
H4 C13 1_555 1_555
H5 C13 1_555 1_555
C15 H6 1_555 1_555
C17 C15 1_555 1_555
C18 C4 1_555 1_555
C19 N1 1_555 1_555
C20 C14 1_555 1_555
C21 C15 1_555 1_555
C22 C20 1_555 1_555
C23 C2 1_555 1_555
H9 C23 1_555 1_555
C27 N3 1_555 1_555
C28 H14 1_555 1_555
C29 C7 1_555 1_555
H15 C29 1_555 1_555
C30 C17 1_555 1_555
H16 C30 1_555 1_555
C31 C1 1_555 1_555
H17 C31 1_555 1_555
C33 C1 1_555 1_555
H21 C33 1_555 1_555
C34 C22 1_555 1_555
H22 C34 1_555 1_555
C35 C4 1_555 1_555
H23 C35 1_555 1_555
H24 C35 1_555 1_555
H25 C35 1_555 1_555
C36 C14 1_555 1_555
H26 C36 1_555 1_555
H27 C36 1_555 1_555
H28 C36 1_555 1_555
C38 C27 1_555 1_555
H32 C38 1_555 1_555
H33 C38 1_555 1_555
H34 C38 1_555 1_555
O11 C39 1_555 1_555
C39 C42 1_555 1_555
C41 H35 1_555 1_555
C42 C41 1_555 1_555
C43 C40 1_555 1_555
C44 C41 1_555 1_555
C45 C43 1_555 1_555
C47 C42 1_555 1_555
H37 C47 1_555 1_555
C49 C45 1_555 1_555
H41 C49 1_555 1_555
C50 C40 1_555 1_555
H42 C50 1_555 1_555
H43 C50 1_555 1_555
H44 C50 1_555 1_555
Mn12_4 O11 1_555 1_555
O19 Mn1 1_555 1_555
O24 Mn2_2 1_555 1_555
Mn2_2 O19 1_555 1_555
N3 C13 1_555 1_555
C18 C27 1_555 1_555
C21 C22 1_555 1_555
C28 C31 1_555 1_555
C29 C33 1_555 1_555
C30 C34 1_555 1_555
C44 C45 1_555 1_555
C47 C49 1_555 1_555
Mn7 N10 1_555 1_555
N9 N12 1_555 1_555
O12 C55 1_555 1_555
N10 N11 1_555 1_555
O24 C55 1_555 1_555
N11 C61 1_555 1_555
N12 Mn7 1_555 1_555
C51 C63 1_555 1_555
C52 N12 1_555 1_555
C54 N10 1_555 1_555
C55 C57 1_555 1_555
C57 C69 1_555 1_555
C61 N9 1_555 1_555
H46 C61 1_555 1_555
H47 C61 1_555 1_555
C63 C54 1_555 1_555
C64 N9 1_555 1_555
C65 C52 1_555 1_555
H49 C65 1_555 1_555
C68 N11 1_555 1_555
C69 H54 1_555 1_555
C70 C57 1_555 1_555
H55 C70 1_555 1_555
C71 C51 1_555 1_555
H56 C71 1_555 1_555
C72 C51 1_555 1_555
H57 C72 1_555 1_555
C73 C54 1_555 1_555
H58 C73 1_555 1_555
H59 C73 1_555 1_555
H60 C73 1_555 1_555
C75 C68 1_555 1_555
H64 C75 1_555 1_555
H65 C75 1_555 1_555
H66 C75 1_555 1_555
O21 Mn7 1_555 1_555
C63 C68 1_555 1_555
C69 C71 1_555 1_555
C70 C72 1_555 1_555
Co1 O7 1_555 1_555
O2 C11 1_555 1_555
O19 C11 1_555 1_555
N5 N6 1_555 1_555
N6 Co1 1_555 1_555
C3 C6 1_555 1_555
C9 C10 1_555 1_555
C10 H1 1_555 1_555
C11 C9 1_555 1_555
C12 N5 1_555 1_555
H2 C12 1_555 1_555
H3 C12 1_555 1_555
C16 C3 1_555 1_555
H7 C16 1_555 1_555
C24 N6 1_555 1_555
C25 C9 1_555 1_555
H12 C25 1_555 1_555
C26 C3 1_555 1_555
H13 C26 1_555 1_555
O8 Co1 1_555 1_555
C32 C24 1_555 1_555
H18 C32 1_555 1_555
H19 C32 1_555 1_555
H20 C32 1_555 1_555
O9 Co1 1_555 1_555
H29 C37 1_555 1_555
H30 C37 1_555 1_555
H31 C37 1_555 1_555
N7 C12 1_555 1_555
N8 Co1 1_555 1_555
C46 N8 1_555 1_555
C48 C46 1_555 1_555
H38 C48 1_555 1_555
H39 C48 1_555 1_555
H40 C48 1_555 1_555
O16 Co1 1_555 1_555
C10 C16 1_555 1_555
C25 C26 1_555 1_555
N7 N8 1_555 1_555
Co1_2 O7_2 1_555 1_555
N5_2 N6_2 1_555 1_555
N6_2 Co1_2 1_555 1_555
C12_2 N5_2 1_555 1_555
H2_2 C12_2 1_555 1_555
H3_2 C12_2 1_555 1_555
C24_2 N6_2 1_555 1_555
O8_2 Co1_2 1_555 1_555
C32_2 C24_2 1_555 1_555
H18_2 C32_2 1_555 1_555
H19_2 C32_2 1_555 1_555
H20_2 C32_2 1_555 1_555
O9_2 Co1_2 1_555 1_555
N7_2 C12_2 1_555 1_555
N8_2 Co1_2 1_555 1_555
C46_2 N8_2 1_555 1_555
C48_2 C46_2 1_555 1_555
H38_2 C48_2 1_555 1_555
H39_2 C48_2 1_555 1_555
H40_2 C48_2 1_555 1_555
O16_2 Co1_2 1_555 1_555
N7_2 N8_2 1_555 1_555
Mn8 N10_2 1_555 1_555
N9_2 N12_2 1_555 1_555
O18 C55_2 1_555 1_555
N10_2 N11_2 1_555 1_555
O15 C55_2 1_555 1_555
N11_2 C61_2 1_555 1_555
N12_2 Mn8 1_555 1_555
C51_2 C63_2 1_555 1_555
C52_2 N12_2 1_555 1_555
C54_2 N10_2 1_555 1_555
C55_2 C57_2 1_555 1_555
C57_2 C69_2 1_555 1_555
C61_2 N9_2 1_555 1_555
H46_2 C61_2 1_555 1_555
H47_2 C61_2 1_555 1_555
C63_2 C54_2 1_555 1_555
C64_2 N9_2 1_555 1_555
C65_2 C52_2 1_555 1_555
H49_2 C65_2 1_555 1_555
C68_2 N11_2 1_555 1_555
C69_2 H54_2 1_555 1_555
C70_2 C57_2 1_555 1_555
H55_2 C70_2 1_555 1_555
C71_2 C51_2 1_555 1_555
H56_2 C71_2 1_555 1_555
C72_2 C51_2 1_555 1_555
H57_2 C72_2 1_555 1_555
C73_2 C54_2 1_555 1_555
H58_2 C73_2 1_555 1_555
H59_2 C73_2 1_555 1_555
H60_2 C73_2 1_555 1_555
C75_2 C68_2 1_555 1_555
H64_2 C75_2 1_555 1_555
H65_2 C75_2 1_555 1_555
H66_2 C75_2 1_555 1_555
Mn12 O15 1_555 1_555
O20 Mn8 1_555 1_555
C63_2 C68_2 1_555 1_555
C69_2 C71_2 1_555 1_555
C70_2 C72_2 1_555 1_555
Mn12_2 O20 1_555 1_555
O2_2 C11_2 1_555 1_555
O3 C11_2 1_555 1_555
C3_2 C6_2 1_555 1_555
C9_2 C10_2 1_555 1_555
C10_2 H1_2 1_555 1_555
C11_2 C9_2 1_555 1_555
C16_2 C3_2 1_555 1_555
H7_2 C16_2 1_555 1_555
C25_2 C9_2 1_555 1_555
H12_2 C25_2 1_555 1_555
C26_2 C3_2 1_555 1_555
H13_2 C26_2 1_555 1_555
H29_2 C37_2 1_555 1_555
H30_2 C37_2 1_555 1_555
H31_2 C37_2 1_555 1_555
Mn4 O3 1_555 1_555
Mn12_3 O3 1_555 1_555
C10_2 C16_2 1_555 1_555
C25_2 C26_2 1_555 1_555
Mn12 O5_2 1_555 1_555
O5_2 C8_2 1_555 1_555
C8_2 C17_2 1_555 1_555
C15_2 H6_2 1_555 1_555
C17_2 C15_2 1_555 1_555
C20_2 C14_2 1_555 1_555
C21_2 C15_2 1_555 1_555
C22_2 C20_2 1_555 1_555
C30_2 C17_2 1_555 1_555
H16_2 C30_2 1_555 1_555
C34_2 C22_2 1_555 1_555
H22_2 C34_2 1_555 1_555
C36_2 C14_2 1_555 1_555
H26_2 C36_2 1_555 1_555
H27_2 C36_2 1_555 1_555
H28_2 C36_2 1_555 1_555
O21 C39_2 1_555 1_555
O22 C39_2 1_555 1_555
C39_2 C42_2 1_555 1_555
C41_2 H35_2 1_555 1_555
C42_2 C41_2 1_555 1_555
C43_2 C40_2 1_555 1_555
C44_2 C41_2 1_555 1_555
C45_2 C43_2 1_555 1_555
C47_2 C42_2 1_555 1_555
H37_2 C47_2 1_555 1_555
C49_2 C45_2 1_555 1_555
H41_2 C49_2 1_555 1_555
C50_2 C40_2 1_555 1_555
H42_2 C50_2 1_555 1_555
H43_2 C50_2 1_555 1_555
H44_2 C50_2 1_555 1_555
C21_2 C22_2 1_555 1_555
C30_2 C34_2 1_555 1_555
C44_2 C45_2 1_555 1_555
C47_2 C49_2 1_555 1_555
O13_2 C60_2 1_555 1_555
C53_2 C56_2 1_555 1_555
C58_2 C59_2 1_555 1_555
C59_2 H45_2 1_555 1_555
C60_2 O20 1_555 1_555
C62_2 C53_2 1_555 1_555
H48_2 C62_2 1_555 1_555
C66_2 C58_2 1_555 1_555
H52_2 C66_2 1_555 1_555
C67_2 C53_2 1_555 1_555
H53_2 C67_2 1_555 1_555
H61_2 C74_2 1_555 1_555
H62_2 C74_2 1_555 1_555
H63_2 C74_2 1_555 1_555
C58_2 C60_2 1_555 1_555
C59_2 C62_2 1_555 1_555
C66_2 C67_2 1_555 1_555
Mn4 O4_2 1_555 1_555
N1_2 N4_2 1_555 1_555
O1 C5_2 1_555 1_555
N2_2 Mn4 1_555 1_555
O6 C5_2 1_555 1_555
N3_2 N2_2 1_555 1_555
N4_2 Mn4 1_555 1_555
C1_2 C18_2 1_555 1_555
C2_2 N4_2 1_555 1_555
C4_2 N2_2 1_555 1_555
C5_2 C7_2 1_555 1_555
C7_2 C28_2 1_555 1_555
C13_2 N1_2 1_555 1_555
H4_2 C13_2 1_555 1_555
H5_2 C13_2 1_555 1_555
C18_2 C4_2 1_555 1_555
C19_2 N1_2 1_555 1_555
C23_2 C2_2 1_555 1_555
H9_2 C23_2 1_555 1_555
C27_2 N3_2 1_555 1_555
C28_2 H14_2 1_555 1_555
C29_2 C7_2 1_555 1_555
H15_2 C29_2 1_555 1_555
C31_2 C1_2 1_555 1_555
H17_2 C31_2 1_555 1_555
C33_2 C1_2 1_555 1_555
H21_2 C33_2 1_555 1_555
C35_2 C4_2 1_555 1_555
H23_2 C35_2 1_555 1_555
H24_2 C35_2 1_555 1_555
H25_2 C35_2 1_555 1_555
C38_2 C27_2 1_555 1_555
H32_2 C38_2 1_555 1_555
H33_2 C38_2 1_555 1_555
H34_2 C38_2 1_555 1_555
Mn12_4 O6 1_555 1_555
N3_2 C13_2 1_555 1_555
C18_2 C27_2 1_555 1_555
C28_2 C31_2 1_555 1_555
C29_2 C33_2 1_555 1_555

#END
