
###############################################################################
#
# This file contains modified crystal structure data generated from the
# MOF subset of the Cambridge Structural Database (CSD) v543 
# hosted by the Cambridge Crystallographic Data Centre (CCDC).
#
# This work is licensed under the Creative Commons
# Attribution-NonCommercial-ShareAlike 4.0 International License.
# To view a copy of this license, visit
# http://creativecommons.org/licenses/by-nc-sa/4.0/
# or send a letter to
# Creative Commons, PO Box 1866, Mountain View, CA 94042, USA.
#
# CIF created using the CSD Python API on 29 September 2022
# The structure has been converted into the P1 space group
# The structure has a 3D framework
# The original CSD entry COQJUP is in the monoclinic crystal system
# The framework has been calculated to contain at least 10.0% void space
# The void calculation uses a probe of radius 1.32A, grid spacing 0.4
#
###############################################################################

data_COQJUP
_chemical_formula_moiety         '(C158 H132 Cl4 Mn7 N24 O30 Rh4)n'
_symmetry_cell_setting           triclinic
_symmetry_space_group_name_H-M   'P 1'
_symmetry_Int_Tables_number      1
_space_group_name_Hall           'P 1'
loop_
_symmetry_equiv_pos_site_id
_symmetry_equiv_pos_as_xyz
1 x,y,z
_cell_length_a                   12.352(3)
_cell_length_b                   33.725(7)
_cell_length_c                   13.030(3)
_cell_angle_alpha                90
_cell_angle_beta                 96.63(3)
_cell_angle_gamma                90
_cell_volume                     5391.62
loop_
_atom_site_label
_atom_site_type_symbol
_atom_site_fract_x
_atom_site_fract_y
_atom_site_fract_z
Cl1 Cl 0.1259(3) 0.7500 0.6365(2)
Rh1 Rh 0.27965(15) 0.7500 0.76306(15)
Cl2 Cl 0.1688(5) 0.7500 0.8906(3)
C1 C 0.375(3) 0.7500 0.871(4)
O1 O 0.450(3) 0.7500 0.934(3)
C2 C 0.3549(16) 0.7500 0.6758(16)
O2 O 0.411(2) 0.7500 0.616(3)
Cl1_2 Cl 0.8741(3) 0.2500 0.3635(2)
Rh1_2 Rh 0.72035(15) 0.2500 0.23694(15)
Cl2_2 Cl 0.8312(5) 0.2500 0.1094(3)
C1_2 C 0.625(3) 0.2500 0.129(4)
O1_2 O 0.550(3) 0.2500 0.066(3)
C2_2 C 0.6451(16) 0.2500 0.3242(16)
O2_2 O 0.589(2) 0.2500 0.384(3)
Rh2 Rh 0.23321(6) 0.7500 0.18148(7)
C4 C 0.1006(8) 0.7500 0.3661(6)
H3 H 0.1805 0.7500 0.3850
H4 H 0.0654 0.7500 0.4306
C18 C 0.0503(3) 0.39186(14) 0.1636(3)
C20 C 0.0411(5) 0.3342(2) 0.2923(6)
H16 H 0.1134 0.3424 0.3243
H17 H 0.0472 0.3091 0.2556
C22 C 0.1694(3) 0.39605(16) 0.1596(4)
C23 C 0.2338(4) 0.36390(17) 0.1367(5)
H21 H 0.2030 0.3381 0.1293
C24 C 0.3428(4) 0.36966(17) 0.1248(5)
H22 H 0.3858 0.3476 0.1090
C25 C 0.3895(3) 0.40626(15) 0.1354(4)
C26 C 0.3279(4) 0.43798(16) 0.1619(4)
H23 H 0.3604 0.4634 0.1731
C27 C 0.2172(4) 0.43264(17) 0.1723(4)
H24 H 0.1745 0.4548 0.1883
C28 C 0.5046(3) 0.41324(16) 0.1154(3)
O5 O 0.5377(2) 0.44928(10) 0.1100(2)
O6 O 0.5672(2) 0.38480(11) 0.1054(3)
N5 N 0.1208(4) 0.70858(13) 0.2214(4)
N6 N 0.0686(4) 0.71495(12) 0.3067(3)
C31 C 0.0741(5) 0.67611(16) 0.1761(5)
C32 C 0.1071(8) 0.6598(2) 0.0762(6)
H25 H 0.0608 0.6714 0.0177
H26 H 0.0985 0.6309 0.0751
H27 H 0.1835 0.6666 0.0709
H34 H 0.0192 0.5875 0.2827
C41 C 0.3307(9) 0.7115(3) 0.1514(12)
O9 O 0.3949(9) 0.6884(3) 0.1378(12)
N7 N 0.1208(4) 0.79142(13) 0.2214(4)
N8 N 0.0686(4) 0.78505(12) 0.3067(3)
C44 C 0.0741(5) 0.82389(16) 0.1761(5)
C45 C 0.1071(8) 0.8402(2) 0.0762(6)
H35 H 0.0608 0.8286 0.0177
H36 H 0.0985 0.8691 0.0751
H37 H 0.1835 0.8334 0.0709
H44 H 0.0192 0.9125 0.2827
C79 C 0.3307(9) 0.7885(3) 0.1514(12)
O16 O 0.3949(9) 0.8116(3) 0.1378(12)
Mn6 Mn 0.70928(4) 0.434550(17) 0.10627(4)
Mn10 Mn 0.5000 0.5000 0.0000
H19 H 0.0402 0.4436 0.9966
Mn10_2 Mn 0.5000 0.5000 1.0000
O11 O 0.7734(3) 0.00924(9) 0.1432(3)
Mn7 Mn 0.70928(4) 0.065450(17) 0.10627(4)
Mn11 Mn 0.5000 0.0000 0.0000
Mn11_2 Mn 0.5000 0.0000 1.0000
C3 C 0.7969(3) 0.35593(12) 0.2405(3)
H1 H 0.8180 0.3304 0.2744
H2 H 0.7375 0.3507 0.1844
N1 N 0.7158(3) 0.41798(10) 0.2813(2)
N2 N 0.7582(3) 0.38267(10) 0.3151(2)
C5 C 0.7549(4) 0.37867(15) 0.4177(3)
C6 C 0.7087(4) 0.41221(15) 0.4515(3)
C7 C 0.6853(4) 0.43627(13) 0.3632(3)
C8 C 0.6308(7) 0.47544(19) 0.3541(4)
H5 H 0.6847 0.4961 0.3448
H6 H 0.5968 0.4809 0.4169
H7 H 0.5748 0.4753 0.2943
C9 C 0.7910(9) 0.3412(2) 0.4738(5)
H8 H 0.7469 0.3190 0.4442
H9 H 0.7816 0.3440 0.5471
H10 H 0.8679 0.3363 0.4666
C10 C 0.6515(4) 0.44643(14) 0.8771(2)
C11 C 0.6906(4) 0.42113(15) 0.5569(2)
C12 C 0.7729(4) 0.4167(3) 0.6378(3)
H11 H 0.8434 0.4094 0.6220
C13 C 0.7584(7) 0.4222(4) 0.7380(5)
H12 H 0.8154 0.4155 0.7905
C14 C 0.5785(5) 0.4410(2) 0.6885(4)
H13 H 0.5095 0.4495 0.7054
C15 C 0.5913(5) 0.4327(2) 0.5862(4)
H14 H 0.5303 0.4350 0.5350
C16 C 0.6629(6) 0.43728(17) 0.7649(3)
O3 O 0.7139(3) 0.43005(12) 0.9453(2)
O4 O 0.5775(4) 0.46896(14) 0.8897(3)
N3 N 0.8707(3) 0.40290(10) 0.1297(2)
N4 N 0.8894(2) 0.37259(10) 0.1971(2)
C17 C 0.9966(3) 0.36477(13) 0.2189(3)
C19 C 0.9681(3) 0.41504(13) 0.1094(3)
H15 H 0.9925 0.3308 0.3459
C21 C 0.9790(4) 0.44876(18) 0.0363(4)
H20 H 0.9922 0.4734 0.0756
C29 C 0.9882(5) 0.68818(16) 0.3141(4)
C30 C 0.9902(5) 0.66227(15) 0.2310(4)
C33 C 0.9124(7) 0.6891(2) 0.3934(6)
H28 H 0.9533 0.6854 0.4618
H29 H 0.8588 0.6678 0.3803
H30 H 0.8748 0.7147 0.3910
C34 C 0.9209(5) 0.62717(16) 0.2074(4)
C35 C 0.8238(7) 0.62957(19) 0.1485(7)
H31 H 0.7982 0.6548 0.1241
C36 C 0.7600(6) 0.59629(19) 0.1224(7)
H32 H 0.6912 0.5992 0.0824
C37 C 0.7958(4) 0.55966(14) 0.1538(3)
C38 C 0.8921(6) 0.55737(17) 0.2141(5)
H33 H 0.9182 0.5323 0.2390
C39 C 0.9521(6) 0.59038(18) 0.2398(6)
C40 C 0.7309(4) 0.52336(14) 0.1188(3)
O7 O 0.6425(3) 0.52818(12) 0.0670(3)
O8 O 0.7734(3) 0.49076(9) 0.1432(3)
C42 C 0.9882(5) 0.81182(16) 0.3141(4)
C43 C 0.9902(5) 0.83773(15) 0.2310(4)
C46 C 0.9124(7) 0.8109(2) 0.3934(6)
H38 H 0.9533 0.8146 0.4618
H39 H 0.8588 0.8322 0.3803
H40 H 0.8748 0.7853 0.3910
C47 C 0.9209(5) 0.87283(16) 0.2074(4)
C48 C 0.8238(7) 0.87043(19) 0.1485(7)
H41 H 0.7982 0.8452 0.1241
C49 C 0.7600(6) 0.90371(19) 0.1224(7)
H42 H 0.6912 0.9008 0.0824
C50 C 0.7958(4) 0.94034(14) 0.1538(3)
C51 C 0.8921(6) 0.94263(17) 0.2141(5)
H43 H 0.9182 0.9677 0.2390
C52 C 0.9521(6) 0.90962(18) 0.2398(6)
C53 C 0.7309(4) 0.97664(14) 0.1188(3)
O10 O 0.6425(3) 0.97182(12) 0.0670(3)
Mn11_3 Mn 0.5000 1.0000 0.0000
O18 O 0.4225(4) 0.53104(14) 0.1103(3)
H18 H 0.9117 0.4513 0.9890
Mn11_4 Mn 0.5000 1.0000 1.0000
O21 O 0.4623(2) 0.55072(10) 0.8900(2)
O24 O 0.3575(3) 0.47182(12) 0.9330(3)
O21_2 O 0.5377(2) 0.05072(10) 0.1100(2)
C29_2 C 0.0118(5) 0.18818(16) 0.6859(4)
C30_2 C 0.0098(5) 0.16227(15) 0.7690(4)
C33_2 C 0.0876(7) 0.1891(2) 0.6066(6)
H28_2 H 0.0467 0.1854 0.5382
H29_2 H 0.1412 0.1678 0.6197
H30_2 H 0.1252 0.2147 0.6090
C34_2 C 0.0791(5) 0.12717(16) 0.7926(4)
C35_2 C 0.1762(7) 0.12957(19) 0.8515(7)
H31_2 H 0.2018 0.1548 0.8759
C36_2 C 0.2400(6) 0.09629(19) 0.8776(7)
H32_2 H 0.3088 0.0992 0.9176
C37_2 C 0.2042(4) 0.05966(14) 0.8462(3)
C38_2 C 0.1079(6) 0.05737(17) 0.7859(5)
H33_2 H 0.0818 0.0323 0.7610
C39_2 C 0.0479(6) 0.09038(18) 0.7602(6)
C40_2 C 0.2691(4) 0.02336(14) 0.8812(3)
O7_2 O 0.3575(3) 0.02818(12) 0.9330(3)
C42_2 C 0.0118(5) 0.31182(16) 0.6859(4)
C43_2 C 0.0098(5) 0.33773(15) 0.7690(4)
C46_2 C 0.0876(7) 0.3109(2) 0.6066(6)
H38_2 H 0.0467 0.3146 0.5382
H39_2 H 0.1412 0.3322 0.6197
H40_2 H 0.1252 0.2853 0.6090
C47_2 C 0.0791(5) 0.37283(16) 0.7926(4)
C48_2 C 0.1762(7) 0.37043(19) 0.8515(7)
H41_2 H 0.2018 0.3452 0.8759
C49_2 C 0.2400(6) 0.40371(19) 0.8776(7)
H42_2 H 0.3088 0.4008 0.9176
C50_2 C 0.2042(4) 0.44034(14) 0.8462(3)
C51_2 C 0.1079(6) 0.44263(17) 0.7859(5)
H43_2 H 0.0818 0.4677 0.7610
C52_2 C 0.0479(6) 0.40962(18) 0.7602(6)
C53_2 C 0.2691(4) 0.47664(14) 0.8812(3)
O11_2 O 0.2266(3) 0.50924(9) 0.8568(3)
Mn7_2 Mn 0.29072(4) 0.565450(17) 0.89373(4)
O18_2 O 0.5775(4) 0.03104(14) 0.8897(3)
H60 H 0.0883 0.9513 0.0110
O17 O 0.2861(3) 0.93005(12) 0.0547(2)
Mn3 Mn 0.29072(4) 0.934550(17) 0.89373(4)
C54 C 0.2031(3) 0.85593(12) 0.7595(3)
H45 H 0.1820 0.8304 0.7256
H46 H 0.2625 0.8507 0.8156
N9 N 0.2842(3) 0.91798(10) 0.7187(2)
N10 N 0.2418(3) 0.88267(10) 0.6849(2)
C55 C 0.2451(4) 0.87867(15) 0.5823(3)
C56 C 0.2913(4) 0.91221(15) 0.5485(3)
C57 C 0.3147(4) 0.93627(13) 0.6368(3)
C58 C 0.3692(7) 0.97544(19) 0.6459(4)
H47 H 0.3153 0.9961 0.6552
H48 H 0.4032 0.9809 0.5831
H49 H 0.4252 0.9753 0.7057
C59 C 0.2090(9) 0.8412(2) 0.5262(5)
H50 H 0.2531 0.8190 0.5558
H51 H 0.2184 0.8440 0.4529
H52 H 0.1321 0.8363 0.5334
C60 C 0.3485(4) 0.94643(14) 0.1229(2)
C61 C 0.3094(4) 0.92113(15) 0.4431(2)
C62 C 0.2271(4) 0.9167(3) 0.3622(3)
H53 H 0.1566 0.9094 0.3780
C63 C 0.2416(7) 0.9222(4) 0.2620(5)
H54 H 0.1846 0.9155 0.2095
C64 C 0.4215(5) 0.9410(2) 0.3115(4)
H55 H 0.4905 0.9495 0.2946
C65 C 0.4087(5) 0.9327(2) 0.4138(4)
H56 H 0.4697 0.9350 0.4650
C66 C 0.3371(6) 0.93728(17) 0.2351(3)
O13 O 0.4225(4) 0.96896(14) 0.1103(3)
N11 N 0.1293(3) 0.90290(10) 0.8703(2)
N12 N 0.1106(2) 0.87259(10) 0.8029(2)
C67 C 0.0034(3) 0.86477(13) 0.7811(3)
C69 C 0.0319(3) 0.91504(13) 0.8906(3)
H57 H 0.0075 0.8308 0.6541
C71 C 0.0210(4) 0.94876(18) 0.9637(4)
H62 H 0.0078 0.9734 0.9244
O19 O 0.4623(2) 0.94928(10) 0.8900(2)
O22 O 0.4328(2) 0.88480(11) 0.8946(3)
O25 O 0.2266(3) 0.99076(9) 0.8568(3)
Rh2_2 Rh 0.76679(6) 0.2500 0.81852(7)
C4_2 C 0.8994(8) 0.2500 0.6339(6)
H3_2 H 0.8195 0.2500 0.6150
H4_2 H 0.9346 0.2500 0.5694
N5_2 N 0.8792(4) 0.20858(13) 0.7786(4)
N6_2 N 0.9314(4) 0.21495(12) 0.6933(3)
C31_2 C 0.9259(5) 0.17611(16) 0.8239(5)
C32_2 C 0.8929(8) 0.1598(2) 0.9238(6)
H25_2 H 0.9392 0.1714 0.9823
H26_2 H 0.9015 0.1309 0.9249
H27_2 H 0.8165 0.1666 0.9291
H34_2 H 0.9808 0.0875 0.7173
C41_2 C 0.6693(9) 0.2115(3) 0.8486(12)
O9_2 O 0.6051(9) 0.1884(3) 0.8622(12)
N7_2 N 0.8792(4) 0.29142(13) 0.7786(4)
N8_2 N 0.9314(4) 0.28505(12) 0.6933(3)
C44_2 C 0.9259(5) 0.32389(16) 0.8239(5)
C45_2 C 0.8929(8) 0.3402(2) 0.9238(6)
H35_2 H 0.9392 0.3286 0.9823
H36_2 H 0.9015 0.3691 0.9249
H37_2 H 0.8165 0.3334 0.9291
H44_2 H 0.9808 0.4125 0.7173
C79_2 C 0.6693(9) 0.2885(3) 0.8486(12)
O16_2 O 0.6051(9) 0.3116(3) 0.8622(12)
H61 H 0.9598 0.9436 0.0034
C68 C 0.9497(3) 0.89186(14) 0.8364(3)
C70 C 0.9589(5) 0.8342(2) 0.7077(6)
H58 H 0.8866 0.8424 0.6757
H59 H 0.9528 0.8091 0.7444
C72 C 0.8306(3) 0.89605(16) 0.8404(4)
C73 C 0.7662(4) 0.86390(17) 0.8633(5)
H63 H 0.7970 0.8381 0.8707
C74 C 0.6572(4) 0.86966(17) 0.8752(5)
H64 H 0.6142 0.8476 0.8910
C75 C 0.6105(3) 0.90626(15) 0.8646(4)
C76 C 0.6721(4) 0.93798(16) 0.8381(4)
H65 H 0.6396 0.9634 0.8269
C77 C 0.7828(4) 0.93264(17) 0.8277(4)
H66 H 0.8255 0.9548 0.8117
C78 C 0.4954(3) 0.91324(16) 0.8846(3)
H60_2 H 0.0883 0.5487 0.0110
O17_2 O 0.2861(3) 0.56995(12) 0.0547(2)
C54_2 C 0.2031(3) 0.64407(12) 0.7595(3)
H45_2 H 0.1820 0.6696 0.7256
H46_2 H 0.2625 0.6493 0.8156
N9_2 N 0.2842(3) 0.58202(10) 0.7187(2)
N10_2 N 0.2418(3) 0.61733(10) 0.6849(2)
C55_2 C 0.2451(4) 0.62133(15) 0.5823(3)
C56_2 C 0.2913(4) 0.58779(15) 0.5485(3)
C57_2 C 0.3147(4) 0.56373(13) 0.6368(3)
C58_2 C 0.3692(7) 0.52456(19) 0.6459(4)
H47_2 H 0.3153 0.5039 0.6552
H48_2 H 0.4032 0.5191 0.5831
H49_2 H 0.4252 0.5247 0.7057
C59_2 C 0.2090(9) 0.6588(2) 0.5262(5)
H50_2 H 0.2531 0.6810 0.5558
H51_2 H 0.2184 0.6560 0.4529
H52_2 H 0.1321 0.6637 0.5334
C60_2 C 0.3485(4) 0.55357(14) 0.1229(2)
C61_2 C 0.3094(4) 0.57887(15) 0.4431(2)
C62_2 C 0.2271(4) 0.5833(3) 0.3622(3)
H53_2 H 0.1566 0.5906 0.3780
C63_2 C 0.2416(7) 0.5778(4) 0.2620(5)
H54_2 H 0.1846 0.5845 0.2095
C64_2 C 0.4215(5) 0.5590(2) 0.3115(4)
H55_2 H 0.4905 0.5505 0.2946
C65_2 C 0.4087(5) 0.5673(2) 0.4138(4)
H56_2 H 0.4697 0.5650 0.4650
C66_2 C 0.3371(6) 0.56272(17) 0.2351(3)
N11_2 N 0.1293(3) 0.59710(10) 0.8703(2)
N12_2 N 0.1106(2) 0.62741(10) 0.8029(2)
C67_2 C 0.0034(3) 0.63523(13) 0.7811(3)
C69_2 C 0.0319(3) 0.58496(13) 0.8906(3)
H57_2 H 0.0075 0.6692 0.6541
C71_2 C 0.0210(4) 0.55124(18) 0.9637(4)
H62_2 H 0.0078 0.5266 0.9244
O22_2 O 0.4328(2) 0.61520(11) 0.8946(3)
H61_2 H 0.9598 0.5564 0.0034
C68_2 C 0.9497(3) 0.60814(14) 0.8364(3)
C70_2 C 0.9589(5) 0.6658(2) 0.7077(6)
H58_2 H 0.8866 0.6576 0.6757
H59_2 H 0.9528 0.6909 0.7444
C72_2 C 0.8306(3) 0.60395(16) 0.8404(4)
C73_2 C 0.7662(4) 0.63610(17) 0.8633(5)
H63_2 H 0.7970 0.6619 0.8707
C74_2 C 0.6572(4) 0.63034(17) 0.8752(5)
H64_2 H 0.6142 0.6524 0.8910
C75_2 C 0.6105(3) 0.59374(15) 0.8646(4)
C76_2 C 0.6721(4) 0.56202(16) 0.8381(4)
H65_2 H 0.6396 0.5366 0.8269
C77_2 C 0.7828(4) 0.56736(17) 0.8277(4)
H66_2 H 0.8255 0.5452 0.8117
C78_2 C 0.4954(3) 0.58676(16) 0.8846(3)
C18_2 C 0.0503(3) 0.10814(14) 0.1636(3)
C20_2 C 0.0411(5) 0.1658(2) 0.2923(6)
H16_2 H 0.1134 0.1576 0.3243
H17_2 H 0.0472 0.1909 0.2556
C22_2 C 0.1694(3) 0.10395(16) 0.1596(4)
C23_2 C 0.2338(4) 0.13610(17) 0.1367(5)
H21_2 H 0.2030 0.1619 0.1293
C24_2 C 0.3428(4) 0.13034(17) 0.1248(5)
H22_2 H 0.3858 0.1524 0.1090
C25_2 C 0.3895(3) 0.09374(15) 0.1354(4)
C26_2 C 0.3279(4) 0.06202(16) 0.1619(4)
H23_2 H 0.3604 0.0366 0.1731
C27_2 C 0.2172(4) 0.06736(17) 0.1723(4)
H24_2 H 0.1745 0.0452 0.1883
C28_2 C 0.5046(3) 0.08676(16) 0.1154(3)
O6_2 O 0.5672(2) 0.11520(11) 0.1054(3)
H19_2 H 0.0402 0.0564 0.9966
C3_2 C 0.7969(3) 0.14407(12) 0.2405(3)
H1_2 H 0.8180 0.1696 0.2744
H2_2 H 0.7375 0.1493 0.1844
N1_2 N 0.7158(3) 0.08202(10) 0.2813(2)
N2_2 N 0.7582(3) 0.11733(10) 0.3151(2)
C5_2 C 0.7549(4) 0.12133(15) 0.4177(3)
C6_2 C 0.7087(4) 0.08779(15) 0.4515(3)
C7_2 C 0.6853(4) 0.06373(13) 0.3632(3)
C8_2 C 0.6308(7) 0.02456(19) 0.3541(4)
H5_2 H 0.6847 0.0039 0.3448
H6_2 H 0.5968 0.0191 0.4169
H7_2 H 0.5748 0.0247 0.2943
C9_2 C 0.7910(9) 0.1588(2) 0.4738(5)
H8_2 H 0.7469 0.1810 0.4442
H9_2 H 0.7816 0.1560 0.5471
H10_2 H 0.8679 0.1637 0.4666
C10_2 C 0.6515(4) 0.05357(14) 0.8771(2)
C11_2 C 0.6906(4) 0.07887(15) 0.5569(2)
C12_2 C 0.7729(4) 0.0833(3) 0.6378(3)
H11_2 H 0.8434 0.0906 0.6220
C13_2 C 0.7584(7) 0.0778(4) 0.7380(5)
H12_2 H 0.8154 0.0845 0.7905
C14_2 C 0.5785(5) 0.0590(2) 0.6885(4)
H13_2 H 0.5095 0.0505 0.7054
C15_2 C 0.5913(5) 0.0673(2) 0.5862(4)
H14_2 H 0.5303 0.0650 0.5350
C16_2 C 0.6629(6) 0.06272(17) 0.7649(3)
O3_2 O 0.7139(3) 0.06995(12) 0.9453(2)
N3_2 N 0.8707(3) 0.09710(10) 0.1297(2)
N4_2 N 0.8894(2) 0.12741(10) 0.1971(2)
C17_2 C 0.9966(3) 0.13523(13) 0.2189(3)
C19_2 C 0.9681(3) 0.08496(13) 0.1094(3)
H15_2 H 0.9925 0.1692 0.3459
C21_2 C 0.9790(4) 0.05124(18) 0.0363(4)
H20_2 H 0.9922 0.0266 0.0756
H18_2 H 0.9117 0.0487 0.9890
loop_
_geom_bond_atom_site_label_1
_geom_bond_atom_site_label_2
_geom_bond_site_symmetry_1
_geom_bond_site_symmetry_2
Cl1 Rh1 1_555 1_555
Rh1 Cl2 1_555 1_555
C1 Rh1 1_555 1_555
O1 C1 1_555 1_555
C2 Rh1 1_555 1_555
O2 C2 1_555 1_555
Cl1_2 Rh1_2 1_555 1_555
Rh1_2 Cl2_2 1_555 1_555
C1_2 Rh1_2 1_555 1_555
O1_2 C1_2 1_555 1_555
C2_2 Rh1_2 1_555 1_555
O2_2 C2_2 1_555 1_555
Rh2 N5 1_555 1_555
C4 H3 1_555 1_555
H4 C4 1_555 1_555
H16 C20 1_555 1_555
H17 C20 1_555 1_555
C22 C18 1_555 1_555
C23 C22 1_555 1_555
H21 C23 1_555 1_555
C24 C23 1_555 1_555
H22 C24 1_555 1_555
C25 C24 1_555 1_555
C26 C25 1_555 1_555
H23 C26 1_555 1_555
C27 C22 1_555 1_555
H24 C27 1_555 1_555
C28 C25 1_555 1_555
O5 C28 1_555 1_555
O6 C28 1_555 1_555
N5 N6 1_555 1_555
N6 C4 1_555 1_555
C31 N5 1_555 1_555
C32 C31 1_555 1_555
H25 C32 1_555 1_555
H26 C32 1_555 1_555
H27 C32 1_555 1_555
C41 Rh2 1_555 1_555
O9 C41 1_555 1_555
N7 Rh2 1_555 1_555
N8 C4 1_555 1_555
C44 N7 1_555 1_555
C45 C44 1_555 1_555
H35 C45 1_555 1_555
H36 C45 1_555 1_555
H37 C45 1_555 1_555
C79 Rh2 1_555 1_555
O16 C79 1_555 1_555
Mn6 O5 1_555 1_555
Mn10 O5 1_555 1_555
C26 C27 1_555 1_555
O6 Mn6 1_555 1_555
N7 N8 1_555 1_555
Mn7 O11 1_555 1_555
Mn6 N1 1_555 1_555
C3 H1 1_555 1_555
H2 C3 1_555 1_555
Mn10 O7 1_555 1_555
N1 N2 1_555 1_555
N2 C3 1_555 1_555
C5 N2 1_555 1_555
C6 C5 1_555 1_555
C7 N1 1_555 1_555
C8 C7 1_555 1_555
H5 C8 1_555 1_555
H6 C8 1_555 1_555
H7 C8 1_555 1_555
C9 C5 1_555 1_555
H8 C9 1_555 1_555
H9 C9 1_555 1_555
H10 C9 1_555 1_555
C10 C16 1_555 1_555
C11 C6 1_555 1_555
C12 C11 1_555 1_555
H11 C12 1_555 1_555
C13 C12 1_555 1_555
H12 C13 1_555 1_555
C14 H13 1_555 1_555
C15 C11 1_555 1_555
H14 C15 1_555 1_555
C16 C13 1_555 1_555
O3 C10 1_555 1_555
O4 C10 1_555 1_555
N3 Mn6 1_555 1_555
N4 C3 1_555 1_555
C17 N4 1_555 1_555
C19 N3 1_555 1_555
C21 C19 1_555 1_555
H20 C21 1_555 1_555
C30 C29 1_555 1_555
C33 C29 1_555 1_555
H28 C33 1_555 1_555
H29 C33 1_555 1_555
H30 C33 1_555 1_555
C34 C30 1_555 1_555
C35 C34 1_555 1_555
H31 C35 1_555 1_555
C36 C35 1_555 1_555
H32 C36 1_555 1_555
C37 C36 1_555 1_555
C38 C37 1_555 1_555
H33 C38 1_555 1_555
C39 C34 1_555 1_555
C40 C37 1_555 1_555
O7 C40 1_555 1_555
O8 Mn6 1_555 1_555
C43 C42 1_555 1_555
C46 C42 1_555 1_555
H38 C46 1_555 1_555
H39 C46 1_555 1_555
H40 C46 1_555 1_555
C47 C43 1_555 1_555
C48 C47 1_555 1_555
H41 C48 1_555 1_555
C49 C48 1_555 1_555
H42 C49 1_555 1_555
C50 C49 1_555 1_555
C51 C50 1_555 1_555
H43 C51 1_555 1_555
C52 C47 1_555 1_555
C53 C50 1_555 1_555
O10 C53 1_555 1_555
Mn10_2 O4 1_555 1_555
Mn11_3 O10 1_555 1_555
O18 Mn10 1_555 1_555
C6 C7 1_555 1_555
C14 C15 1_555 1_555
C14 C16 1_555 1_555
N3 N4 1_555 1_555
C38 C39 1_555 1_555
C40 O8 1_555 1_555
C51 C52 1_555 1_555
O21 Mn10_2 1_555 1_555
O24 Mn10_2 1_555 1_555
O21_2 Mn11 1_555 1_555
Mn11_2 O7_2 1_555 1_555
C30_2 C29_2 1_555 1_555
C33_2 C29_2 1_555 1_555
H28_2 C33_2 1_555 1_555
H29_2 C33_2 1_555 1_555
H30_2 C33_2 1_555 1_555
C34_2 C30_2 1_555 1_555
C35_2 C34_2 1_555 1_555
H31_2 C35_2 1_555 1_555
C36_2 C35_2 1_555 1_555
H32_2 C36_2 1_555 1_555
C37_2 C36_2 1_555 1_555
C38_2 C37_2 1_555 1_555
H33_2 C38_2 1_555 1_555
C39_2 C34_2 1_555 1_555
C40_2 C37_2 1_555 1_555
O7_2 C40_2 1_555 1_555
C43_2 C42_2 1_555 1_555
C46_2 C42_2 1_555 1_555
H38_2 C46_2 1_555 1_555
H39_2 C46_2 1_555 1_555
H40_2 C46_2 1_555 1_555
C47_2 C43_2 1_555 1_555
C48_2 C47_2 1_555 1_555
H41_2 C48_2 1_555 1_555
C49_2 C48_2 1_555 1_555
H42_2 C49_2 1_555 1_555
C50_2 C49_2 1_555 1_555
C51_2 C50_2 1_555 1_555
H43_2 C51_2 1_555 1_555
C52_2 C47_2 1_555 1_555
C53_2 C50_2 1_555 1_555
O24 C53_2 1_555 1_555
O11_2 C53_2 1_555 1_555
Mn7_2 O11_2 1_555 1_555
O18_2 Mn11_2 1_555 1_555
C38_2 C39_2 1_555 1_555
C51_2 C52_2 1_555 1_555
Mn3 N9 1_555 1_555
C54 H45 1_555 1_555
H46 C54 1_555 1_555
N9 N10 1_555 1_555
N10 C54 1_555 1_555
C55 N10 1_555 1_555
C56 C55 1_555 1_555
C57 N9 1_555 1_555
C58 C57 1_555 1_555
H47 C58 1_555 1_555
H48 C58 1_555 1_555
H49 C58 1_555 1_555
C59 C55 1_555 1_555
H50 C59 1_555 1_555
H51 C59 1_555 1_555
H52 C59 1_555 1_555
C60 C66 1_555 1_555
C61 C56 1_555 1_555
C62 C61 1_555 1_555
H53 C62 1_555 1_555
C63 C62 1_555 1_555
H54 C63 1_555 1_555
C64 H55 1_555 1_555
C65 C61 1_555 1_555
H56 C65 1_555 1_555
C66 C63 1_555 1_555
O13 Mn11_3 1_555 1_555
N11 Mn3 1_555 1_555
N12 C54 1_555 1_555
C67 N12 1_555 1_555
C69 N11 1_555 1_555
C71 C69 1_555 1_555
H62 C71 1_555 1_555
O19 Mn3 1_555 1_555
O22 Mn3 1_555 1_555
O25 Mn3 1_555 1_555
C56 C57 1_555 1_555
C60 O17 1_555 1_555
C60 O13 1_555 1_555
C64 C65 1_555 1_555
C64 C66 1_555 1_555
N11 N12 1_555 1_555
Mn11_4 O19 1_555 1_555
Rh2_2 N5_2 1_555 1_555
C4_2 H3_2 1_555 1_555
H4_2 C4_2 1_555 1_555
N5_2 N6_2 1_555 1_555
N6_2 C4_2 1_555 1_555
C31_2 N5_2 1_555 1_555
C32_2 C31_2 1_555 1_555
H25_2 C32_2 1_555 1_555
H26_2 C32_2 1_555 1_555
H27_2 C32_2 1_555 1_555
C41_2 Rh2_2 1_555 1_555
O9_2 C41_2 1_555 1_555
N7_2 Rh2_2 1_555 1_555
N8_2 C4_2 1_555 1_555
C44_2 N7_2 1_555 1_555
C45_2 C44_2 1_555 1_555
H35_2 C45_2 1_555 1_555
H36_2 C45_2 1_555 1_555
H37_2 C45_2 1_555 1_555
C79_2 Rh2_2 1_555 1_555
O16_2 C79_2 1_555 1_555
N7_2 N8_2 1_555 1_555
H58 C70 1_555 1_555
H59 C70 1_555 1_555
C72 C68 1_555 1_555
C73 C72 1_555 1_555
H63 C73 1_555 1_555
C74 C73 1_555 1_555
H64 C74 1_555 1_555
C75 C74 1_555 1_555
C76 C75 1_555 1_555
H65 C76 1_555 1_555
C77 C72 1_555 1_555
H66 C77 1_555 1_555
C78 C75 1_555 1_555
O19 C78 1_555 1_555
O22 C78 1_555 1_555
C76 C77 1_555 1_555
Mn7_2 N9_2 1_555 1_555
C54_2 H45_2 1_555 1_555
H46_2 C54_2 1_555 1_555
N9_2 N10_2 1_555 1_555
N10_2 C54_2 1_555 1_555
C55_2 N10_2 1_555 1_555
C56_2 C55_2 1_555 1_555
C57_2 N9_2 1_555 1_555
C58_2 C57_2 1_555 1_555
H47_2 C58_2 1_555 1_555
H48_2 C58_2 1_555 1_555
H49_2 C58_2 1_555 1_555
C59_2 C55_2 1_555 1_555
H50_2 C59_2 1_555 1_555
H51_2 C59_2 1_555 1_555
H52_2 C59_2 1_555 1_555
C60_2 C66_2 1_555 1_555
C61_2 C56_2 1_555 1_555
C62_2 C61_2 1_555 1_555
H53_2 C62_2 1_555 1_555
C63_2 C62_2 1_555 1_555
H54_2 C63_2 1_555 1_555
C64_2 H55_2 1_555 1_555
C65_2 C61_2 1_555 1_555
H56_2 C65_2 1_555 1_555
C66_2 C63_2 1_555 1_555
N11_2 Mn7_2 1_555 1_555
N12_2 C54_2 1_555 1_555
C67_2 N12_2 1_555 1_555
C69_2 N11_2 1_555 1_555
C71_2 C69_2 1_555 1_555
H62_2 C71_2 1_555 1_555
O21 Mn7_2 1_555 1_555
O22_2 Mn7_2 1_555 1_555
C56_2 C57_2 1_555 1_555
C60_2 O17_2 1_555 1_555
C60_2 O18 1_555 1_555
C64_2 C65_2 1_555 1_555
C64_2 C66_2 1_555 1_555
N11_2 N12_2 1_555 1_555
H58_2 C70_2 1_555 1_555
H59_2 C70_2 1_555 1_555
C72_2 C68_2 1_555 1_555
C73_2 C72_2 1_555 1_555
H63_2 C73_2 1_555 1_555
C74_2 C73_2 1_555 1_555
H64_2 C74_2 1_555 1_555
C75_2 C74_2 1_555 1_555
C76_2 C75_2 1_555 1_555
H65_2 C76_2 1_555 1_555
C77_2 C72_2 1_555 1_555
H66_2 C77_2 1_555 1_555
C78_2 C75_2 1_555 1_555
O21 C78_2 1_555 1_555
O22_2 C78_2 1_555 1_555
C76_2 C77_2 1_555 1_555
H16_2 C20_2 1_555 1_555
H17_2 C20_2 1_555 1_555
C22_2 C18_2 1_555 1_555
C23_2 C22_2 1_555 1_555
H21_2 C23_2 1_555 1_555
C24_2 C23_2 1_555 1_555
H22_2 C24_2 1_555 1_555
C25_2 C24_2 1_555 1_555
C26_2 C25_2 1_555 1_555
H23_2 C26_2 1_555 1_555
C27_2 C22_2 1_555 1_555
H24_2 C27_2 1_555 1_555
C28_2 C25_2 1_555 1_555
O21_2 C28_2 1_555 1_555
O6_2 C28_2 1_555 1_555
Mn7 O21_2 1_555 1_555
C26_2 C27_2 1_555 1_555
O6_2 Mn7 1_555 1_555
Mn7 N1_2 1_555 1_555
C3_2 H1_2 1_555 1_555
H2_2 C3_2 1_555 1_555
N1_2 N2_2 1_555 1_555
N2_2 C3_2 1_555 1_555
C5_2 N2_2 1_555 1_555
C6_2 C5_2 1_555 1_555
C7_2 N1_2 1_555 1_555
C8_2 C7_2 1_555 1_555
H5_2 C8_2 1_555 1_555
H6_2 C8_2 1_555 1_555
H7_2 C8_2 1_555 1_555
C9_2 C5_2 1_555 1_555
H8_2 C9_2 1_555 1_555
H9_2 C9_2 1_555 1_555
H10_2 C9_2 1_555 1_555
C10_2 C16_2 1_555 1_555
C11_2 C6_2 1_555 1_555
C12_2 C11_2 1_555 1_555
H11_2 C12_2 1_555 1_555
C13_2 C12_2 1_555 1_555
H12_2 C13_2 1_555 1_555
C14_2 H13_2 1_555 1_555
C15_2 C11_2 1_555 1_555
H14_2 C15_2 1_555 1_555
C16_2 C13_2 1_555 1_555
O3_2 C10_2 1_555 1_555
O18_2 C10_2 1_555 1_555
N3_2 Mn7 1_555 1_555
N4_2 C3_2 1_555 1_555
C17_2 N4_2 1_555 1_555
C19_2 N3_2 1_555 1_555
C21_2 C19_2 1_555 1_555
H20_2 C21_2 1_555 1_555
C6_2 C7_2 1_555 1_555
C14_2 C15_2 1_555 1_555
C14_2 C16_2 1_555 1_555
N3_2 N4_2 1_555 1_555

#END
