
###############################################################################
#
# This file contains modified crystal structure data generated from the
# MOF subset of the Cambridge Structural Database (CSD) v543 
# hosted by the Cambridge Crystallographic Data Centre (CCDC).
#
# This work is licensed under the Creative Commons
# Attribution-NonCommercial-ShareAlike 4.0 International License.
# To view a copy of this license, visit
# http://creativecommons.org/licenses/by-nc-sa/4.0/
# or send a letter to
# Creative Commons, PO Box 1866, Mountain View, CA 94042, USA.
#
# CIF created using the CSD Python API on 29 September 2022
# The structure has been converted into the P1 space group
# The structure has a 3D framework
# The original CSD entry COQKEB is in the triclinic crystal system
# The framework has been calculated to contain at least 10.0% void space
# The void calculation uses a probe of radius 1.32A, grid spacing 0.4
# The framework is charged, counterions have been retained in the structure
#
###############################################################################

data_COQKEB
_chemical_formula_moiety         '(C96 H86 Cu2 N12 Na2 O22 P8)n'
_symmetry_cell_setting           triclinic
_symmetry_space_group_name_H-M   'P 1'
_symmetry_Int_Tables_number      1
_space_group_name_Hall           'P 1'
loop_
_symmetry_equiv_pos_site_id
_symmetry_equiv_pos_as_xyz
1 x,y,z
_cell_length_a                   9.847(4)
_cell_length_b                   17.208(7)
_cell_length_c                   17.271(7)
_cell_angle_alpha                86.02(3)
_cell_angle_beta                 75.13(3)
_cell_angle_gamma                79.05(3)
_cell_volume                     2776.36
loop_
_atom_site_label
_atom_site_type_symbol
_atom_site_fract_x
_atom_site_fract_y
_atom_site_fract_z
O15 O 0.1227(5) 0.0472(3) 0.0118(3)
Na1 Na 0.0425(3) 0.92805(18) 0.06457(19)
O4 O 0.5782(8) 0.2538(4) 0.0212(4)
H27 H 0.579(9) 0.217(4) 0.055(4)
Na7 Na 0.5640(3) 0.08390(19) 0.00223(19)
O19 O 0.2545(6) 0.8455(4) 0.0733(3)
C1 C 0.0600(9) 0.6740(5) 0.5138(6)
C4 C 0.0573(10) 0.6826(5) 0.6400(5)
C5 C 0.0763(9) 0.6676(5) 0.7159(5)
C10 C 0.0041(9) 0.8184(5) 0.8753(5)
H5 H 0.0575 0.8437 0.8994
C11 C 0.0719(9) 0.7637(5) 0.8181(5)
H6 H 0.1712 0.753 0.8035
C12 C 0.1634(10) 0.5994(5) 0.7362(5)
C13 C 0.1864(9) 0.5794(5) 0.8129(5)
H7 H 0.1382 0.6064 0.8597
C14 C 0.2879(10) 0.5159(5) 0.8073(5)
H8 H 0.327 0.492 0.8485
C15 C 0.3273(9) 0.4899(5) 0.7238(5)
C16 C 0.4280(9) 0.4248(5) 0.6940(5)
C17 C 0.5042(9) 0.3774(5) 0.7514(5)
C18 C 0.5993(9) 0.4071(5) 0.7817(5)
H9 H 0.6216 0.4564 0.7638
C19 C 0.6618(9) 0.3657(5) 0.8377(6)
H10 H 0.7286 0.3866 0.8555
C20 C 0.6289(9) 0.2947(5) 0.8681(5)
C21 C 0.5329(9) 0.2646(5) 0.8392(5)
H11 H 0.5075 0.2165 0.8597
C22 C 0.4728(9) 0.3041(5) 0.7801(5)
H12 H 0.4111 0.2813 0.7597
C23 C 0.4531(9) 0.3983(5) 0.6171(5)
C24 C 0.5587(9) 0.3315(5) 0.5818(5)
H13 H 0.6249 0.3005 0.6062
C25 C 0.5450(9) 0.3217(5) 0.5083(5)
H14 H 0.5994 0.2829 0.4725
C26 C 0.4318(9) 0.3815(5) 0.4950(5)
C27 C 0.3704(9) 0.3863(5) 0.4301(5)
C28 C 0.4223(9) 0.3191(5) 0.3719(5)
C29 C 0.4015(10) 0.2431(5) 0.3969(5)
H15 H 0.3538 0.2344 0.4497
C30 C 0.4488(10) 0.1804(5) 0.3463(5)
H16 H 0.4351 0.1298 0.3651
C31 C 0.5173(9) 0.1930(5) 0.2666(5)
C32 C 0.5363(8) 0.2677(5) 0.2401(5)
H17 H 0.5806 0.2767 0.1867
C33 C 0.4900(9) 0.3304(5) 0.2923(5)
H18 H 0.5047 0.3808 0.2735
C34 C 0.2648(9) 0.4481(5) 0.4164(5)
C35 C 0.1989(9) 0.4531(5) 0.3508(5)
H19 H 0.2108 0.414 0.3138
C36 C 0.1174(10) 0.5246(5) 0.3529(5)
H20 H 0.0621 0.545 0.3174
C37 C 0.1309(9) 0.5636(5) 0.4195(5)
C38 C 0.0668(9) 0.6415(5) 0.4400(5)
C39 C 0.0002(9) 0.6947(4) 0.3836(5)
C40 C 0.0803(9) 0.7357(5) 0.3225(5)
H21 H 0.1792 0.7268 0.3134
C41 C 0.0130(10) 0.7904(5) 0.2744(5)
H22 H 0.069 0.817 0.2335
Cu1 Cu 0.23871(11) 0.53119(6) 0.56919(6)
N1 N 0.1078(7) 0.6341(4) 0.5759(4)
N2 N 0.2478(7) 0.5432(4) 0.6817(4)
N3 N 0.3797(7) 0.4315(4) 0.5602(4)
N4 N 0.2165(7) 0.5151(3) 0.4605(4)
O5 O 0.8255(9) 0.2779(5) 0.9540(5)
O6 O 0.7455(6) 0.1545(4) 0.9267(3)
O7 O 0.5132(6) 0.0415(3) 0.2368(3)
O8 O 0.7476(6) 0.0875(3) 0.2100(4)
H25 H 0.7913 0.0508 0.1806
O9 O 0.5850(7) 0.1335(3) 0.1181(3)
P2 P 0.7077(3) 0.24033(16) 0.94486(16)
P3 P 0.5905(2) 0.10856(13) 0.20170(14)
Na5 Na 0.9575(3) 0.07195(18) 0.93543(19)
O14 O 0.3409(5) 0.0304(3) 0.0713(3)
O16 O 0.3307(6) 0.1233(3) 0.9605(3)
O13 O 0.6591(5) 0.9696(3) 0.9287(3)
O3 O 0.6693(6) 0.8767(3) 0.0395(3)
H28 H 0.696(9) 0.869(5) 0.082(3)
O20 O 0.8785(6) 0.9381(3) 0.1916(3)
C2 C 0.9875(10) 0.7522(5) 0.5371(6)
H1 H 0.95 0.7914 0.5047
C3 C 0.9835(10) 0.7584(5) 0.6164(6)
H2 H 0.9422 0.8021 0.6485
C6 C 0.9979(9) 0.7238(5) 0.7812(5)
C7 C 0.8493(9) 0.7398(5) 0.8043(5)
H3 H 0.7963 0.7125 0.7819
C8 C 0.7809(9) 0.7973(5) 0.8614(5)
H4 H 0.6817 0.8094 0.8752
C9 C 0.8562(9) 0.8365(4) 0.8978(5)
C42 C 0.8696(9) 0.8060(5) 0.2850(5)
C43 C 0.7897(9) 0.7638(5) 0.3452(5)
H23 H 0.6909 0.7725 0.3535
C44 C 0.8534(10) 0.7096(5) 0.3923(5)
H24 H 0.7967 0.6816 0.4316
O2 O 0.8773(5) 0.9528(3) 0.9882(3)
O10 O 0.6407(6) 0.9089(4) 0.2746(4)
H26 H 0.6018 0.9461 0.2511
O11 O 0.7752(8) 0.8262(4) 0.1548(4)
P1 P 0.7666(2) 0.91624(13) 0.96611(13)
P4 P 0.7905(3) 0.87473(14) 0.22048(15)
Na8 Na 0.4360(3) 0.91610(19) 0.99777(19)
C2_2 C 0.0125(10) 0.2478(5) 0.4629(6)
H1_2 H 0.05 0.2086 0.4953
C3_2 C 0.0165(10) 0.2416(5) 0.3836(6)
H2_2 H 0.0578 0.1979 0.3515
C6_2 C 0.0021(9) 0.2762(5) 0.2188(5)
C7_2 C 0.1507(9) 0.2602(5) 0.1957(5)
H3_2 H 0.2037 0.2875 0.2181
C8_2 C 0.2191(9) 0.2027(5) 0.1386(5)
H4_2 H 0.3183 0.1906 0.1248
C9_2 C 0.1438(9) 0.1635(4) 0.1022(5)
C42_2 C 0.1304(9) 0.1940(5) 0.7150(5)
C43_2 C 0.2103(9) 0.2362(5) 0.6548(5)
H23_2 H 0.3091 0.2275 0.6465
C44_2 C 0.1466(10) 0.2904(5) 0.6077(5)
H24_2 H 0.2033 0.3184 0.5684
O10_2 O 0.3593(6) 0.0911(4) 0.7254(4)
H26_2 H 0.3982 0.0539 0.7489
O11_2 O 0.2248(8) 0.1738(4) 0.8452(4)
O12 O 0.1215(6) 0.0619(3) 0.8084(3)
P1_2 P 0.2334(2) 0.08376(13) 0.03389(13)
P4_2 P 0.2095(3) 0.12527(14) 0.77952(15)
H28_2 H 0.304(9) 0.131(5) 0.918(3)
C1_2 C 0.9400(9) 0.3260(5) 0.4862(6)
C4_2 C 0.9427(10) 0.3174(5) 0.3600(5)
C5_2 C 0.9237(9) 0.3324(5) 0.2841(5)
C10_2 C 0.9959(9) 0.1816(5) 0.1247(5)
H5_2 H 0.9425 0.1563 0.1006
C11_2 C 0.9281(9) 0.2363(5) 0.1819(5)
H6_2 H 0.8288 0.247 0.1965
C12_2 C 0.8366(10) 0.4006(5) 0.2638(5)
C13_2 C 0.8136(9) 0.4206(5) 0.1871(5)
H7_2 H 0.8618 0.3936 0.1403
C14_2 C 0.7121(10) 0.4841(5) 0.1927(5)
H8_2 H 0.673 0.508 0.1515
C15_2 C 0.6727(9) 0.5101(5) 0.2762(5)
C16_2 C 0.5720(9) 0.5752(5) 0.3060(5)
C17_2 C 0.4958(9) 0.6226(5) 0.2486(5)
C18_2 C 0.4007(9) 0.5929(5) 0.2183(5)
H9_2 H 0.3784 0.5436 0.2362
C19_2 C 0.3382(9) 0.6343(5) 0.1623(6)
H10_2 H 0.2714 0.6134 0.1445
C20_2 C 0.3711(9) 0.7053(5) 0.1319(5)
C21_2 C 0.4671(9) 0.7354(5) 0.1608(5)
H11_2 H 0.4925 0.7835 0.1403
C22_2 C 0.5272(9) 0.6959(5) 0.2199(5)
H12_2 H 0.5889 0.7187 0.2403
C23_2 C 0.5469(9) 0.6017(5) 0.3829(5)
C24_2 C 0.4413(9) 0.6685(5) 0.4182(5)
H13_2 H 0.3751 0.6995 0.3938
C25_2 C 0.4550(9) 0.6783(5) 0.4917(5)
H14_2 H 0.4006 0.7171 0.5275
C26_2 C 0.5682(9) 0.6185(5) 0.5050(5)
C27_2 C 0.6296(9) 0.6137(5) 0.5699(5)
C28_2 C 0.5777(9) 0.6809(5) 0.6281(5)
C29_2 C 0.5985(10) 0.7569(5) 0.6031(5)
H15_2 H 0.6462 0.7656 0.5503
C30_2 C 0.5512(10) 0.8196(5) 0.6537(5)
H16_2 H 0.5649 0.8702 0.6349
C31_2 C 0.4827(9) 0.8070(5) 0.7334(5)
C32_2 C 0.4637(8) 0.7323(5) 0.7599(5)
H17_2 H 0.4194 0.7233 0.8133
C33_2 C 0.5100(9) 0.6696(5) 0.7077(5)
H18_2 H 0.4953 0.6192 0.7265
C34_2 C 0.7352(9) 0.5519(5) 0.5836(5)
C35_2 C 0.8011(9) 0.5469(5) 0.6492(5)
H19_2 H 0.7892 0.586 0.6862
C36_2 C 0.8826(10) 0.4754(5) 0.6471(5)
H20_2 H 0.9379 0.455 0.6826
C37_2 C 0.8691(9) 0.4364(5) 0.5805(5)
C38_2 C 0.9332(9) 0.3585(5) 0.5600(5)
C39_2 C 0.9998(9) 0.3053(4) 0.6164(5)
C40_2 C 0.9197(9) 0.2643(5) 0.6775(5)
H21_2 H 0.8208 0.2732 0.6866
C41_2 C 0.9870(10) 0.2096(5) 0.7256(5)
H22_2 H 0.931 0.183 0.7665
Cu1_2 Cu 0.76129(11) 0.46881(6) 0.43081(6)
N1_2 N 0.8922(7) 0.3659(4) 0.4241(4)
N2_2 N 0.7522(7) 0.4568(4) 0.3183(4)
N3_2 N 0.6203(7) 0.5685(4) 0.4398(4)
N4_2 N 0.7835(7) 0.4849(3) 0.5395(4)
O5_2 O 0.1745(9) 0.7221(5) 0.0460(5)
O7_2 O 0.4868(6) 0.9585(3) 0.7632(3)
O8_2 O 0.2524(6) 0.9125(3) 0.7900(4)
H25_2 H 0.2087 0.9492 0.8194
O9_2 O 0.4150(7) 0.8665(3) 0.8819(3)
P2_2 P 0.2923(3) 0.75967(16) 0.05514(16)
P3_2 P 0.4095(2) 0.89144(13) 0.79830(14)
O17 O 0.4218(8) 0.7462(4) 0.9788(4)
H27_2 H 0.421(9) 0.783(4) 0.945(4)
C46 C 0.1064(11) 0.0267(7) 0.2641(7)
H32 H 0.0549 0.002 0.2355
H33 H 0.0828 0.0832 0.2581
H34 H 0.0808 0.0119 0.3198
H35 H 0.2935 0.0086 0.1769
H36 H 0.3188 0.0257 0.2521
C45 C 0.3079(13) 0.9115(7) 0.2469(9)
H29 H 0.2879 0.9021 0.3038
H30 H 0.4075 0.8933 0.2235
H31 H 0.252 0.8834 0.2245
N5 N 0.2703(9) 0.9991(5) 0.2295(5)
C45_2 C 0.6921(13) 0.0885(7) 0.7531(9)
H29_2 H 0.7121 0.0979 0.6962
H30_2 H 0.5925 0.1067 0.7765
H31_2 H 0.748 0.1166 0.7755
N5_2 N 0.7297(9) 0.0009(5) 0.7705(5)
C46_2 C 0.8936(11) 0.9733(7) 0.7359(7)
H32_2 H 0.9451 0.998 0.7645
H33_2 H 0.9172 0.9168 0.7419
H34_2 H 0.9192 0.9881 0.6802
H35_2 H 0.7065 0.9914 0.8231
H36_2 H 0.6812 0.9743 0.7479
H38 H 0.1234 0.3112 0.0091
C47 C 0.1321(13) 0.3468(7) 0.9635(7)
H37 H 0.2309 0.3499 0.9415
H39 H 0.0793 0.3984 0.9797
C48 C 0.0620(12) 0.3753(6) 0.8327(7)
H40 H 0.017 0.4265 0.8541
H41 H 0.0061 0.3588 0.8009
H42 H 0.1558 0.3782 0.7999
N6 N 0.0733(9) 0.3164(5) 0.9006(6)
H43 H 0.1298 0.2718 0.881
H44 H 0.9872 0.3053 0.9237
H44_2 H 0.0128 0.6947 0.0763
C47_2 C 0.8679(13) 0.6532(7) 0.0365(7)
H37_2 H 0.7691 0.6501 0.0585
H39_2 H 0.9207 0.6016 0.0203
C48_2 C 0.9380(12) 0.6247(6) 0.1673(7)
H40_2 H 0.983 0.5735 0.1459
H41_2 H 0.9939 0.6412 0.1991
H42_2 H 0.8442 0.6218 0.2001
N6_2 N 0.9267(9) 0.6836(5) 0.0994(6)
H43_2 H 0.8702 0.7282 0.119
H38_2 H 0.8766 0.6888 0.9909
loop_
_geom_bond_atom_site_label_1
_geom_bond_atom_site_label_2
_geom_bond_site_symmetry_1
_geom_bond_site_symmetry_2
H27 O4 1_555 1_555
Na7 O4 1_555 1_555
O19 Na1 1_555 1_555
C5 C4 1_555 1_555
H5 C10 1_555 1_555
H6 C11 1_555 1_555
C12 C5 1_555 1_555
C13 C12 1_555 1_555
H7 C13 1_555 1_555
C14 C13 1_555 1_555
H8 C14 1_555 1_555
C15 C14 1_555 1_555
C16 C15 1_555 1_555
C17 C16 1_555 1_555
C18 C17 1_555 1_555
H9 C18 1_555 1_555
C19 C18 1_555 1_555
H10 C19 1_555 1_555
C20 C19 1_555 1_555
C21 C20 1_555 1_555
H11 C21 1_555 1_555
C22 C17 1_555 1_555
H12 C22 1_555 1_555
C23 C16 1_555 1_555
C24 C23 1_555 1_555
H13 C24 1_555 1_555
C25 C24 1_555 1_555
H14 C25 1_555 1_555
C26 C25 1_555 1_555
C27 C26 1_555 1_555
C28 C27 1_555 1_555
C29 C28 1_555 1_555
H15 C29 1_555 1_555
C30 C29 1_555 1_555
H16 C30 1_555 1_555
C31 C30 1_555 1_555
C32 C31 1_555 1_555
H17 C32 1_555 1_555
C33 C28 1_555 1_555
H18 C33 1_555 1_555
C34 C27 1_555 1_555
C35 C34 1_555 1_555
H19 C35 1_555 1_555
C36 C35 1_555 1_555
H20 C36 1_555 1_555
C37 C36 1_555 1_555
C38 C1 1_555 1_555
C39 C38 1_555 1_555
C40 C39 1_555 1_555
H21 C40 1_555 1_555
C41 C40 1_555 1_555
H22 C41 1_555 1_555
Cu1 N1 1_555 1_555
N1 C1 1_555 1_555
N2 C12 1_555 1_555
N3 C23 1_555 1_555
N4 C34 1_555 1_555
Na7 O9 1_555 1_555
O5 P2 1_555 1_555
O6 P2 1_555 1_555
O7 P3 1_555 1_555
O8 H25 1_555 1_555
O9 P3 1_555 1_555
P2 C20 1_555 1_555
P3 C31 1_555 1_555
Na5 O6 1_555 1_555
O14 Na7 1_555 1_555
C4 N1 1_555 1_555
C10 C11 1_555 1_555
C15 N2 1_555 1_555
C21 C22 1_555 1_555
C26 N3 1_555 1_555
C32 C33 1_555 1_555
C37 C38 1_555 1_555
C37 N4 1_555 1_555
Cu1 N2 1_555 1_555
Cu1 N3 1_555 1_555
Cu1 N4 1_555 1_555
O8 P3 1_555 1_555
H28 O3 1_555 1_555
C2 H1 1_555 1_555
C3 C2 1_555 1_555
H2 C3 1_555 1_555
C7 C6 1_555 1_555
H3 C7 1_555 1_555
C8 C7 1_555 1_555
H4 C8 1_555 1_555
C9 C8 1_555 1_555
C43 C42 1_555 1_555
H23 C43 1_555 1_555
H24 C44 1_555 1_555
O13 P1 1_555 1_555
O2 P1 1_555 1_555
O10 H26 1_555 1_555
O11 P4 1_555 1_555
O20 P4 1_555 1_555
P1 C9 1_555 1_555
P4 C42 1_555 1_555
Na8 O13 1_555 1_555
C43 C44 1_555 1_555
O10 P4 1_555 1_555
C2_2 H1_2 1_555 1_555
C3_2 C2_2 1_555 1_555
H2_2 C3_2 1_555 1_555
C7_2 C6_2 1_555 1_555
H3_2 C7_2 1_555 1_555
C8_2 C7_2 1_555 1_555
H4_2 C8_2 1_555 1_555
C9_2 C8_2 1_555 1_555
C43_2 C42_2 1_555 1_555
H23_2 C43_2 1_555 1_555
H24_2 C44_2 1_555 1_555
O14 P1_2 1_555 1_555
O15 P1_2 1_555 1_555
O10_2 H26_2 1_555 1_555
O11_2 P4_2 1_555 1_555
O12 P4_2 1_555 1_555
P1_2 C9_2 1_555 1_555
P4_2 C42_2 1_555 1_555
C43_2 C44_2 1_555 1_555
O10_2 P4_2 1_555 1_555
H28_2 O16 1_555 1_555
C5_2 C4_2 1_555 1_555
H5_2 C10_2 1_555 1_555
H6_2 C11_2 1_555 1_555
C12_2 C5_2 1_555 1_555
C13_2 C12_2 1_555 1_555
H7_2 C13_2 1_555 1_555
C14_2 C13_2 1_555 1_555
H8_2 C14_2 1_555 1_555
C15_2 C14_2 1_555 1_555
C16_2 C15_2 1_555 1_555
C17_2 C16_2 1_555 1_555
C18_2 C17_2 1_555 1_555
H9_2 C18_2 1_555 1_555
C19_2 C18_2 1_555 1_555
H10_2 C19_2 1_555 1_555
C20_2 C19_2 1_555 1_555
C21_2 C20_2 1_555 1_555
H11_2 C21_2 1_555 1_555
C22_2 C17_2 1_555 1_555
H12_2 C22_2 1_555 1_555
C23_2 C16_2 1_555 1_555
C24_2 C23_2 1_555 1_555
H13_2 C24_2 1_555 1_555
C25_2 C24_2 1_555 1_555
H14_2 C25_2 1_555 1_555
C26_2 C25_2 1_555 1_555
C27_2 C26_2 1_555 1_555
C28_2 C27_2 1_555 1_555
C29_2 C28_2 1_555 1_555
H15_2 C29_2 1_555 1_555
C30_2 C29_2 1_555 1_555
H16_2 C30_2 1_555 1_555
C31_2 C30_2 1_555 1_555
C32_2 C31_2 1_555 1_555
H17_2 C32_2 1_555 1_555
C33_2 C28_2 1_555 1_555
H18_2 C33_2 1_555 1_555
C34_2 C27_2 1_555 1_555
C35_2 C34_2 1_555 1_555
H19_2 C35_2 1_555 1_555
C36_2 C35_2 1_555 1_555
H20_2 C36_2 1_555 1_555
C37_2 C36_2 1_555 1_555
C38_2 C1_2 1_555 1_555
C39_2 C38_2 1_555 1_555
C40_2 C39_2 1_555 1_555
H21_2 C40_2 1_555 1_555
C41_2 C40_2 1_555 1_555
H22_2 C41_2 1_555 1_555
Cu1_2 N1_2 1_555 1_555
N1_2 C1_2 1_555 1_555
N2_2 C12_2 1_555 1_555
N3_2 C23_2 1_555 1_555
N4_2 C34_2 1_555 1_555
Na8 O9_2 1_555 1_555
O5_2 P2_2 1_555 1_555
O19 P2_2 1_555 1_555
O7_2 P3_2 1_555 1_555
O8_2 H25_2 1_555 1_555
O9_2 P3_2 1_555 1_555
P2_2 C20_2 1_555 1_555
P3_2 C31_2 1_555 1_555
O17 Na8 1_555 1_555
C4_2 N1_2 1_555 1_555
C10_2 C11_2 1_555 1_555
C15_2 N2_2 1_555 1_555
C21_2 C22_2 1_555 1_555
C26_2 N3_2 1_555 1_555
C32_2 C33_2 1_555 1_555
C37_2 C38_2 1_555 1_555
C37_2 N4_2 1_555 1_555
Cu1_2 N2_2 1_555 1_555
Cu1_2 N3_2 1_555 1_555
Cu1_2 N4_2 1_555 1_555
O8_2 P3_2 1_555 1_555
H27_2 O17 1_555 1_555
C46 H32 1_555 1_555
H33 C46 1_555 1_555
H34 C46 1_555 1_555
C45 H29 1_555 1_555
H30 C45 1_555 1_555
H31 C45 1_555 1_555
N5 C45 1_555 1_555
C45_2 H29_2 1_555 1_555
H30_2 C45_2 1_555 1_555
H31_2 C45_2 1_555 1_555
N5_2 C45_2 1_555 1_555
C46_2 H32_2 1_555 1_555
H33_2 C46_2 1_555 1_555
H34_2 C46_2 1_555 1_555
C47 H37 1_555 1_555
H39 C47 1_555 1_555
C48 H40 1_555 1_555
H41 C48 1_555 1_555
H42 C48 1_555 1_555
N6 C47 1_555 1_555
H43 N6 1_555 1_555
C48 N6 1_555 1_555
C47_2 H37_2 1_555 1_555
H39_2 C47_2 1_555 1_555
C48_2 H40_2 1_555 1_555
H41_2 C48_2 1_555 1_555
H42_2 C48_2 1_555 1_555
N6_2 C47_2 1_555 1_555
H43_2 N6_2 1_555 1_555
C48_2 N6_2 1_555 1_555

#END
