
###############################################################################
#
# This file contains modified crystal structure data generated from the
# MOF subset of the Cambridge Structural Database (CSD) v543 
# hosted by the Cambridge Crystallographic Data Centre (CCDC).
#
# This work is licensed under the Creative Commons
# Attribution-NonCommercial-ShareAlike 4.0 International License.
# To view a copy of this license, visit
# http://creativecommons.org/licenses/by-nc-sa/4.0/
# or send a letter to
# Creative Commons, PO Box 1866, Mountain View, CA 94042, USA.
#
# CIF created using the CSD Python API on 29 September 2022
# The structure has been converted into the P1 space group
# The structure has a 3D framework
# The original CSD entry COQLAX is in the rhombohedral crystal system
# The framework has been calculated to contain at least 10.0% void space
# The void calculation uses a probe of radius 1.32A, grid spacing 0.4
#
###############################################################################

data_COQLAX
_chemical_formula_moiety         '(C1354 H1008 Ag36 O58 P72)n'
_symmetry_cell_setting           triclinic
_symmetry_space_group_name_H-M   'P 1'
_symmetry_Int_Tables_number      1
_space_group_name_Hall           'P 1'
loop_
_symmetry_equiv_pos_site_id
_symmetry_equiv_pos_as_xyz
1 x,y,z
_cell_length_a                   36.6284(4)
_cell_length_b                   36.6284(4)
_cell_length_c                   27.5127(5)
_cell_angle_alpha                90
_cell_angle_beta                 90
_cell_angle_gamma                120
_cell_volume                     31966.8
loop_
_atom_site_label
_atom_site_type_symbol
_atom_site_fract_x
_atom_site_fract_y
_atom_site_fract_z
Ag1 Ag 0.07568(2) 0.20254(2) 0.68607(3)
P1 P 0.11563(5) 0.25126(6) 0.75162(8)
P2 P 0.39632(5) 0.51993(5) 0.76650(8)
C1 C 0.3075(3) 0.3275(3) 0.7439(10)
C2 C 0.2602(2) 0.3061(2) 0.7499(5)
C3 C 0.2360(3) 0.2926(4) 0.7073(6)
H1 H 0.2496 0.2948 0.6772
C4 C 0.1930(3) 0.2763(3) 0.7078(4)
H2 H 0.1775 0.2680 0.6783
C5 C 0.1720(2) 0.2717(2) 0.7525(3)
C6 C 0.1954(2) 0.2831(3) 0.7938(4)
H3 H 0.1822 0.2794 0.8246
C7 C 0.2399(3) 0.3007(3) 0.7909(5)
H4 H 0.2557 0.3088 0.8202
C8 C 0.3287(2) 0.3747(3) 0.7498(5)
C9 C 0.3404(4) 0.3994(3) 0.7094(6)
H5 H 0.3357 0.3871 0.6780
C10 C 0.3597(4) 0.4436(3) 0.7147(4)
H6 H 0.3665 0.4603 0.6861
C11 C 0.3690(2) 0.4633(2) 0.7583(3)
C12 C 0.3562(4) 0.4389(3) 0.7985(4)
H7 H 0.3605 0.4518 0.8295
C13 C 0.3367(5) 0.3954(3) 0.7953(6)
H8 H 0.3287 0.3791 0.8242
C14 C 0.1105(2) 0.2975(3) 0.7472(3)
C15 C 0.0701(3) 0.2926(3) 0.7471(5)
H9 H 0.0460 0.2653 0.7507
C16 C 0.0651(4) 0.3277(4) 0.7418(5)
H10 H 0.0375 0.3240 0.7401
C17 C 0.0987(3) 0.3668(3) 0.7389(4)
H11 H 0.0948 0.3905 0.7357
C18 C 0.1387(3) 0.3724(3) 0.7405(4)
H12 H 0.1624 0.4001 0.7389
C19 C 0.1446(2) 0.3388(2) 0.7443(3)
H13 H 0.1725 0.3433 0.7451
C20 C 0.0990(2) 0.2330(2) 0.8130(3)
C21 C 0.0925(3) 0.1925(3) 0.8240(4)
H14 H 0.0954 0.1755 0.8001
C22 C 0.0812(4) 0.1786(4) 0.8729(5)
H15 H 0.0765 0.1515 0.8815
C23 C 0.0767(3) 0.2022(4) 0.9077(4)
H16 H 0.0701 0.1920 0.9400
C24 C 0.0819(3) 0.2410(4) 0.8963(4)
H17 H 0.0777 0.2573 0.9202
C25 C 0.0936(3) 0.2565(3) 0.8481(3)
H18 H 0.0978 0.2836 0.8401
C26 C 0.3692(3) 0.5381(3) 0.7255(5)
C27 C 0.3697(3) 0.5343(3) 0.6766(5)
H19 H 0.3856 0.5234 0.6617
C28 C 0.3461(4) 0.5467(4) 0.6487(6)
H20 H 0.3455 0.5432 0.6144
C29 C 0.3249(3) 0.5629(4) 0.6672(7)
H21 H 0.3097 0.5714 0.6465
C30 C 0.3242(4) 0.5678(5) 0.7152(8)
H22 H 0.3084 0.5795 0.7288
C31 C 0.3475(3) 0.5554(3) 0.7460(6)
H23 H 0.3479 0.5591 0.7802
C32 C 0.4461(2) 0.5396(2) 0.7357(3)
C33 C 0.4616(3) 0.5149(4) 0.7212(5)
H24 H 0.4452 0.4852 0.7253
C34 C 0.5024(4) 0.5328(5) 0.6999(6)
H25 H 0.5126 0.5151 0.6884
C35 C 0.5266(3) 0.5755(5) 0.6961(6)
H26 H 0.5553 0.5881 0.6864
C36 C 0.5091(4) 0.6002(4) 0.7064(8)
H27 H 0.5238 0.6294 0.6985
C37 C 0.4695(4) 0.5821(3) 0.7285(8)
H28 H 0.4586 0.5996 0.7387
C38 C 0.0000 0.1435(3) 0.7500
O1 O 0.0248(2) 0.1371(2) 0.7232(3)
O2 O 0.0000 0.1768(3) 0.7500
P3 P 0.25126(6) 0.11563(5) 0.74838(8)
P4 P 0.51993(5) 0.39632(5) 0.73350(8)
C39 C 0.3275(3) 0.3075(3) 0.7561(10)
C40 C 0.3061(2) 0.2602(2) 0.7501(5)
C41 C 0.2926(4) 0.2360(3) 0.7927(6)
H29 H 0.2948 0.2496 0.8228
C42 C 0.2763(3) 0.1930(3) 0.7922(4)
H30 H 0.2680 0.1775 0.8217
C43 C 0.2717(2) 0.1720(2) 0.7475(3)
C44 C 0.2831(3) 0.1954(2) 0.7062(4)
H31 H 0.2794 0.1822 0.6754
C45 C 0.3007(3) 0.2399(3) 0.7091(5)
H32 H 0.3088 0.2557 0.6798
C46 C 0.3747(3) 0.3287(2) 0.7502(5)
C47 C 0.3994(3) 0.3404(4) 0.7906(6)
H33 H 0.3871 0.3357 0.8220
C48 C 0.4436(3) 0.3597(4) 0.7853(4)
H34 H 0.4603 0.3665 0.8139
C49 C 0.4633(2) 0.3690(2) 0.7417(3)
C50 C 0.4389(3) 0.3562(4) 0.7015(4)
H35 H 0.4518 0.3605 0.6705
C51 C 0.3954(3) 0.3367(5) 0.7047(6)
H36 H 0.3791 0.3287 0.6758
C52 C 0.2975(3) 0.1105(2) 0.7528(3)
C53 C 0.2926(3) 0.0701(3) 0.7529(5)
H37 H 0.2653 0.0460 0.7493
C54 C 0.3277(4) 0.0651(4) 0.7582(5)
H38 H 0.3240 0.0375 0.7599
C55 C 0.3668(3) 0.0987(3) 0.7611(4)
H39 H 0.3905 0.0948 0.7643
C56 C 0.3724(3) 0.1387(3) 0.7595(4)
H40 H 0.4001 0.1624 0.7611
C57 C 0.3388(2) 0.1446(2) 0.7557(3)
H41 H 0.3433 0.1725 0.7549
C58 C 0.2330(2) 0.0990(2) 0.6870(3)
C59 C 0.1925(3) 0.0925(3) 0.6760(4)
H42 H 0.1755 0.0954 0.6999
C60 C 0.1786(4) 0.0812(4) 0.6271(5)
H43 H 0.1515 0.0765 0.6185
C61 C 0.2022(4) 0.0767(3) 0.5923(4)
H44 H 0.1920 0.0701 0.5600
C62 C 0.2410(4) 0.0819(3) 0.6037(4)
H45 H 0.2573 0.0777 0.5798
C63 C 0.2565(3) 0.0936(3) 0.6519(3)
H46 H 0.2836 0.0978 0.6599
C64 C 0.5381(3) 0.3692(3) 0.7745(5)
C65 C 0.5343(3) 0.3697(3) 0.8234(5)
H47 H 0.5234 0.3856 0.8383
C66 C 0.5467(4) 0.3461(4) 0.8513(6)
H48 H 0.5432 0.3455 0.8856
C67 C 0.5629(4) 0.3249(3) 0.8328(7)
H49 H 0.5714 0.3097 0.8535
C68 C 0.5678(5) 0.3242(4) 0.7848(8)
H50 H 0.5795 0.3084 0.7712
C69 C 0.5554(3) 0.3475(3) 0.7540(6)
H51 H 0.5591 0.3479 0.7198
C70 C 0.5396(2) 0.4461(2) 0.7643(3)
C71 C 0.5149(4) 0.4616(3) 0.7788(5)
H52 H 0.4852 0.4452 0.7747
C72 C 0.5328(5) 0.5024(4) 0.8001(6)
H53 H 0.5151 0.5126 0.8116
C73 C 0.5755(5) 0.5266(3) 0.8039(6)
H54 H 0.5881 0.5553 0.8136
C74 C 0.6002(4) 0.5091(4) 0.7936(8)
H55 H 0.6294 0.5238 0.8015
C75 C 0.5821(3) 0.4695(4) 0.7715(8)
H56 H 0.5996 0.4586 0.7613
Ag3 Ag 0.20254(2) 0.07568(2) 0.81393(3)
Ag4 Ag 0.53981(3) 0.40901(2) 0.64726(3)
Ag5 Ag 0.40901(2) 0.53981(3) 0.85274(3)
P6 P 0.06299(5) 0.20972(7) 0.59983(8)
C38_2 C 1.0000 0.1435(3) 0.7500
O2_2 O 1.0000 0.1768(3) 0.7500
O3 O 0.9752(2) 0.1123(3) 0.7768(3)
Ag2 Ag 0.92432(2) 0.12686(3) 0.81393(3)
P5 P 0.88437(5) 0.13563(8) 0.74838(8)
P7 P 0.93701(5) 0.14674(5) 0.90017(8)
P4_2 P 0.60368(5) 0.12361(7) 0.73350(8)
C39_2 C 0.6925(3) 0.0200(4) 0.7561(10)
C40_2 C 0.7398(2) 0.0459(3) 0.7501(5)
C41_2 C 0.7640(3) 0.0566(5) 0.7927(6)
H29_2 H 0.7504 0.0452 0.8228
C42_2 C 0.8070(3) 0.0833(4) 0.7922(4)
H30_2 H 0.8225 0.0905 0.8217
C43_2 C 0.8280(2) 0.0997(3) 0.7475(3)
C44_2 C 0.8046(2) 0.0877(4) 0.7062(4)
H31_2 H 0.8178 0.0972 0.6754
C45_2 C 0.7601(3) 0.0608(4) 0.7091(5)
H32_2 H 0.7443 0.0531 0.6798
C46_2 C 0.6713(2) 0.0460(4) 0.7502(5)
C47_2 C 0.6596(4) 0.0590(5) 0.7906(6)
H33_2 H 0.6643 0.0514 0.8220
C48_2 C 0.6403(4) 0.0839(5) 0.7853(4)
H34_2 H 0.6335 0.0938 0.8139
C49_2 C 0.6310(2) 0.0943(3) 0.7417(3)
C50_2 C 0.6438(4) 0.0827(5) 0.7015(4)
H35_2 H 0.6395 0.0913 0.6705
C51_2 C 0.6633(5) 0.0587(6) 0.7047(6)
H36_2 H 0.6713 0.0504 0.6758
C52_2 C 0.8895(2) 0.1870(4) 0.7528(3)
C53_2 C 0.9299(3) 0.2225(4) 0.7529(5)
H37_2 H 0.9540 0.2193 0.7493
C54_2 C 0.9349(4) 0.2626(6) 0.7582(5)
H38_2 H 0.9625 0.2865 0.7599
C55_2 C 0.9013(3) 0.2681(4) 0.7611(4)
H39_2 H 0.9052 0.2957 0.7643
C56_2 C 0.8613(3) 0.2337(4) 0.7595(4)
H40_2 H 0.8376 0.2377 0.7611
C57_2 C 0.8554(2) 0.1942(3) 0.7557(3)
H41_2 H 0.8275 0.1708 0.7549
C58_2 C 0.9010(2) 0.1340(3) 0.6870(3)
C59_2 C 0.9075(3) 0.1000(4) 0.6760(4)
H42_2 H 0.9046 0.0801 0.6999
C60_2 C 0.9188(4) 0.0974(6) 0.6271(5)
H43_2 H 0.9235 0.0750 0.6185
C61_2 C 0.9233(3) 0.1255(5) 0.5923(4)
H44_2 H 0.9299 0.1219 0.5600
C62_2 C 0.9181(3) 0.1591(5) 0.6037(4)
H45_2 H 0.9223 0.1796 0.5798
C63_2 C 0.9064(3) 0.1629(4) 0.6519(3)
H46_2 H 0.9022 0.1858 0.6599
C64_2 C 0.6308(3) 0.1689(4) 0.7745(5)
C65_2 C 0.6303(3) 0.1646(4) 0.8234(5)
H47_2 H 0.6144 0.1378 0.8383
C66_2 C 0.6539(4) 0.2006(6) 0.8513(6)
H48_2 H 0.6545 0.1977 0.8856
C67_2 C 0.6751(3) 0.2380(5) 0.8328(7)
H49_2 H 0.6903 0.2617 0.8535
C68_2 C 0.6758(4) 0.2436(6) 0.7848(8)
H50_2 H 0.6916 0.2711 0.7712
C69_2 C 0.6525(3) 0.2079(4) 0.7540(6)
H51_2 H 0.6521 0.2112 0.7198
C70_2 C 0.5539(2) 0.0935(3) 0.7643(3)
C71_2 C 0.5384(3) 0.0533(5) 0.7788(5)
H52_2 H 0.5548 0.0400 0.7747
C72_2 C 0.4976(4) 0.0304(6) 0.8001(6)
H53_2 H 0.4874 0.0025 0.8116
C73_2 C 0.4734(3) 0.0489(6) 0.8039(6)
H54_2 H 0.4447 0.0328 0.8136
C74_2 C 0.4909(4) 0.0911(6) 0.7936(8)
H55_2 H 0.4762 0.1056 0.8015
C75_2 C 0.5305(4) 0.1126(5) 0.7715(8)
H56_2 H 0.5414 0.1410 0.7613
Ag4_2 Ag 0.59099(2) 0.13079(4) 0.64726(3)
Ag1_2 Ag 0.79746(2) 0.87314(3) 0.68607(3)
P1_2 P 0.74874(6) 0.86437(8) 0.75162(8)
P2_2 P 0.48007(5) 0.87639(7) 0.76650(8)
C1_2 C 0.6725(3) 0.9800(4) 0.7439(10)
C2_2 C 0.6939(2) 0.9541(3) 0.7499(5)
C3_2 C 0.7074(4) 0.9434(5) 0.7073(6)
H1_2 H 0.7052 0.9548 0.6772
C4_2 C 0.7237(3) 0.9167(4) 0.7078(4)
H2_2 H 0.7320 0.9095 0.6783
C5_2 C 0.7283(2) 0.9003(3) 0.7525(3)
C6_2 C 0.7169(3) 0.9123(4) 0.7938(4)
H3_2 H 0.7206 0.9028 0.8246
C7_2 C 0.6993(3) 0.9392(4) 0.7909(5)
H4_2 H 0.6912 0.9469 0.8202
C8_2 C 0.6253(3) 0.9540(4) 0.7498(5)
C9_2 C 0.6006(3) 0.9410(5) 0.7094(6)
H5_2 H 0.6129 0.9486 0.6780
C10_2 C 0.5564(3) 0.9161(5) 0.7147(4)
H6_2 H 0.5397 0.9062 0.6861
C11_2 C 0.5367(2) 0.9057(3) 0.7583(3)
C12_2 C 0.5611(3) 0.9173(5) 0.7985(4)
H7_2 H 0.5482 0.9087 0.8295
C13_2 C 0.6046(3) 0.9413(6) 0.7953(6)
H8_2 H 0.6209 0.9496 0.8242
C14_2 C 0.7025(3) 0.8130(4) 0.7472(3)
C15_2 C 0.7074(3) 0.7775(4) 0.7471(5)
H9_2 H 0.7347 0.7807 0.7507
C16_2 C 0.6723(4) 0.7374(6) 0.7418(5)
H10_2 H 0.6760 0.7135 0.7401
C17_2 C 0.6332(3) 0.7319(4) 0.7389(4)
H11_2 H 0.6095 0.7043 0.7357
C18_2 C 0.6276(3) 0.7663(4) 0.7405(4)
H12_2 H 0.5999 0.7623 0.7389
C19_2 C 0.6612(2) 0.8058(3) 0.7443(3)
H13_2 H 0.6567 0.8292 0.7451
C20_2 C 0.7670(2) 0.8660(3) 0.8130(3)
C21_2 C 0.8075(3) 0.9000(4) 0.8240(4)
H14_2 H 0.8245 0.9199 0.8001
C22_2 C 0.8214(4) 0.9026(6) 0.8729(5)
H15_2 H 0.8485 0.9250 0.8815
C23_2 C 0.7978(4) 0.8745(5) 0.9077(4)
H16_2 H 0.8080 0.8781 0.9400
C24_2 C 0.7590(4) 0.8409(5) 0.8963(4)
H17_2 H 0.7427 0.8204 0.9202
C25_2 C 0.7435(3) 0.8371(4) 0.8481(3)
H18_2 H 0.7164 0.8142 0.8401
C26_2 C 0.4619(3) 0.8311(4) 0.7255(5)
C27_2 C 0.4657(3) 0.8354(4) 0.6766(5)
H19_2 H 0.4766 0.8622 0.6617
C28_2 C 0.4533(4) 0.7994(6) 0.6487(6)
H20_2 H 0.4568 0.8023 0.6144
C29_2 C 0.4371(4) 0.7620(5) 0.6672(7)
H21_2 H 0.4286 0.7383 0.6465
C30_2 C 0.4322(5) 0.7564(6) 0.7152(8)
H22_2 H 0.4205 0.7289 0.7288
C31_2 C 0.4446(3) 0.7921(4) 0.7460(6)
H23_2 H 0.4409 0.7888 0.7802
C32_2 C 0.4604(2) 0.9065(3) 0.7357(3)
C33_2 C 0.4851(4) 0.9467(5) 0.7212(5)
H24_2 H 0.5148 0.9600 0.7253
C34_2 C 0.4672(5) 0.9696(6) 0.6999(6)
H25_2 H 0.4849 0.9975 0.6884
C35_2 C 0.4245(5) 0.9511(6) 0.6961(6)
H26_2 H 0.4119 0.9672 0.6864
C36_2 C 0.3998(4) 0.9089(6) 0.7064(8)
H27_2 H 0.3706 0.8944 0.6985
C37_2 C 0.4179(3) 0.8874(5) 0.7285(8)
H28_2 H 0.4004 0.8590 0.7387
C38_3 C 0.8565(3) 0.8565(3) 0.7500
O1_2 O 0.8629(2) 0.8877(3) 0.7232(3)
O2_3 O 0.8232(3) 0.8232(3) 0.7500
O3_2 O 0.8877(3) 0.8629(4) 0.7768(3)
Ag2_2 Ag 0.87314(3) 0.79746(4) 0.81393(3)
Ag5_2 Ag 0.46019(3) 0.86921(4) 0.85274(3)
P5_2 P 0.86437(8) 0.74874(9) 0.74838(8)
P6_2 P 0.79028(7) 0.85326(9) 0.59983(8)
P7_2 P 0.85326(5) 0.79028(7) 0.90017(8)
C38_4 C 0.1435(3) -0.0000 0.7500
O2_4 O 0.1768(3) -0.0000 0.7500
O3_3 O 0.1371(4) 0.0248(2) 0.7768(3)
P7_3 P 0.20972(7) 0.06299(5) 0.90017(8)
Ag1_3 Ag 0.12686(3) 0.92432(2) 0.68607(3)
P1_3 P 0.13563(8) 0.88437(5) 0.75162(8)
P2_3 P 0.12361(7) 0.60368(5) 0.76650(8)
C1_3 C 0.0200(4) 0.6925(3) 0.7439(10)
C2_3 C 0.0459(3) 0.7398(2) 0.7499(5)
C3_3 C 0.0566(5) 0.7640(3) 0.7073(6)
H1_3 H 0.0452 0.7504 0.6772
C4_3 C 0.0833(4) 0.8070(3) 0.7078(4)
H2_3 H 0.0905 0.8225 0.6783
C5_3 C 0.0997(3) 0.8280(2) 0.7525(3)
C6_3 C 0.0877(4) 0.8046(2) 0.7938(4)
H3_3 H 0.0972 0.8178 0.8246
C7_3 C 0.0608(4) 0.7601(3) 0.7909(5)
H4_3 H 0.0531 0.7443 0.8202
C8_3 C 0.0460(4) 0.6713(2) 0.7498(5)
C9_3 C 0.0590(5) 0.6596(4) 0.7094(6)
H5_3 H 0.0514 0.6643 0.6780
C10_3 C 0.0839(5) 0.6403(4) 0.7147(4)
H6_3 H 0.0938 0.6335 0.6861
C11_3 C 0.0943(3) 0.6310(2) 0.7583(3)
C12_3 C 0.0827(5) 0.6438(4) 0.7985(4)
H7_3 H 0.0913 0.6395 0.8295
C13_3 C 0.0587(6) 0.6633(5) 0.7953(6)
H8_3 H 0.0504 0.6713 0.8242
C14_3 C 0.1870(4) 0.8895(2) 0.7472(3)
C15_3 C 0.2225(4) 0.9299(3) 0.7471(5)
H9_3 H 0.2193 0.9540 0.7507
C16_3 C 0.2626(6) 0.9349(4) 0.7418(5)
H10_3 H 0.2865 0.9625 0.7401
C17_3 C 0.2681(4) 0.9013(3) 0.7389(4)
H11_3 H 0.2957 0.9052 0.7357
C18_3 C 0.2337(4) 0.8613(3) 0.7405(4)
H12_3 H 0.2377 0.8376 0.7389
C19_3 C 0.1942(3) 0.8554(2) 0.7443(3)
H13_3 H 0.1708 0.8275 0.7451
C20_3 C 0.1340(3) 0.9010(2) 0.8130(3)
C21_3 C 0.1000(4) 0.9075(3) 0.8240(4)
H14_3 H 0.0801 0.9046 0.8001
C22_3 C 0.0974(6) 0.9188(4) 0.8729(5)
H15_3 H 0.0750 0.9235 0.8815
C23_3 C 0.1255(5) 0.9233(3) 0.9077(4)
H16_3 H 0.1219 0.9299 0.9400
C24_3 C 0.1591(5) 0.9181(3) 0.8963(4)
H17_3 H 0.1796 0.9223 0.9202
C25_3 C 0.1629(4) 0.9064(3) 0.8481(3)
H18_3 H 0.1858 0.9022 0.8401
C26_3 C 0.1689(4) 0.6308(3) 0.7255(5)
C27_3 C 0.1646(4) 0.6303(3) 0.6766(5)
H19_3 H 0.1378 0.6144 0.6617
C28_3 C 0.2006(6) 0.6539(4) 0.6487(6)
H20_3 H 0.1977 0.6545 0.6144
C29_3 C 0.2380(5) 0.6751(3) 0.6672(7)
H21_3 H 0.2617 0.6903 0.6465
C30_3 C 0.2436(6) 0.6758(4) 0.7152(8)
H22_3 H 0.2711 0.6916 0.7288
C31_3 C 0.2079(4) 0.6525(3) 0.7460(6)
H23_3 H 0.2112 0.6521 0.7802
C32_3 C 0.0935(3) 0.5539(2) 0.7357(3)
C33_3 C 0.0533(5) 0.5384(3) 0.7212(5)
H24_3 H 0.0400 0.5548 0.7253
C34_3 C 0.0304(6) 0.4976(4) 0.6999(6)
H25_3 H 0.0025 0.4874 0.6884
C35_3 C 0.0489(6) 0.4734(3) 0.6961(6)
H26_3 H 0.0328 0.4447 0.6864
C36_3 C 0.0911(6) 0.4909(4) 0.7064(8)
H27_3 H 0.1056 0.4762 0.6985
C37_3 C 0.1126(5) 0.5305(4) 0.7285(8)
H28_3 H 0.1410 0.5414 0.7387
C38_5 C 0.1435(3) 1.0000 0.7500
O1_3 O 0.1123(3) 0.9752(2) 0.7232(3)
O2_5 O 0.1768(3) 1.0000 0.7500
Ag5_3 Ag 0.13079(4) 0.59099(2) 0.85274(3)
P6_3 P 0.14674(9) 0.93701(5) 0.59983(8)
P4_3 P 0.87639(7) 0.48007(5) 0.73350(8)
C39_3 C 0.9800(4) 0.6725(3) 0.7561(10)
C40_3 C 0.9541(3) 0.6939(2) 0.7501(5)
C41_3 C 0.9434(5) 0.7074(4) 0.7927(6)
H29_3 H 0.9548 0.7052 0.8228
C42_3 C 0.9167(4) 0.7237(3) 0.7922(4)
H30_3 H 0.9095 0.7320 0.8217
C43_3 C 0.9003(3) 0.7283(2) 0.7475(3)
C44_3 C 0.9123(4) 0.7169(3) 0.7062(4)
H31_3 H 0.9028 0.7206 0.6754
C45_3 C 0.9392(4) 0.6993(3) 0.7091(5)
H32_3 H 0.9469 0.6912 0.6798
C46_3 C 0.9540(4) 0.6253(3) 0.7502(5)
C47_3 C 0.9410(5) 0.6006(3) 0.7906(6)
H33_3 H 0.9486 0.6129 0.8220
C48_3 C 0.9161(5) 0.5564(3) 0.7853(4)
H34_3 H 0.9062 0.5397 0.8139
C49_3 C 0.9057(3) 0.5367(2) 0.7417(3)
C50_3 C 0.9173(5) 0.5611(3) 0.7015(4)
H35_3 H 0.9087 0.5482 0.6705
C51_3 C 0.9413(6) 0.6046(3) 0.7047(6)
H36_3 H 0.9496 0.6209 0.6758
C52_3 C 0.8130(4) 0.7025(3) 0.7528(3)
C53_3 C 0.7775(4) 0.7074(3) 0.7529(5)
H37_3 H 0.7807 0.7347 0.7493
C54_3 C 0.7374(6) 0.6723(4) 0.7582(5)
H38_3 H 0.7135 0.6760 0.7599
C55_3 C 0.7319(4) 0.6332(3) 0.7611(4)
H39_3 H 0.7043 0.6095 0.7643
C56_3 C 0.7663(4) 0.6276(3) 0.7595(4)
H40_3 H 0.7623 0.5999 0.7611
C57_3 C 0.8058(3) 0.6612(2) 0.7557(3)
H41_3 H 0.8292 0.6567 0.7549
C58_3 C 0.8660(3) 0.7670(2) 0.6870(3)
C59_3 C 0.9000(4) 0.8075(3) 0.6760(4)
H42_3 H 0.9199 0.8245 0.6999
C60_3 C 0.9026(6) 0.8214(4) 0.6271(5)
H43_3 H 0.9250 0.8485 0.6185
C61_3 C 0.8745(5) 0.7978(4) 0.5923(4)
H44_3 H 0.8781 0.8080 0.5600
C62_3 C 0.8409(5) 0.7590(4) 0.6037(4)
H45_3 H 0.8204 0.7427 0.5798
C63_3 C 0.8371(4) 0.7435(3) 0.6519(3)
H46_3 H 0.8142 0.7164 0.6599
C64_3 C 0.8311(4) 0.4619(3) 0.7745(5)
C65_3 C 0.8354(4) 0.4657(3) 0.8234(5)
H47_3 H 0.8622 0.4766 0.8383
C66_3 C 0.7994(6) 0.4533(4) 0.8513(6)
H48_3 H 0.8023 0.4568 0.8856
C67_3 C 0.7620(5) 0.4371(4) 0.8328(7)
H49_3 H 0.7383 0.4286 0.8535
C68_3 C 0.7564(6) 0.4322(5) 0.7848(8)
H50_3 H 0.7289 0.4205 0.7712
C69_3 C 0.7921(4) 0.4446(3) 0.7540(6)
H51_3 H 0.7888 0.4409 0.7198
C70_3 C 0.9065(3) 0.4604(2) 0.7643(3)
C71_3 C 0.9467(5) 0.4851(4) 0.7788(5)
H52_3 H 0.9600 0.5148 0.7747
C72_3 C 0.9696(6) 0.4672(5) 0.8001(6)
H53_3 H 0.9975 0.4849 0.8116
C73_3 C 0.9511(6) 0.4245(5) 0.8039(6)
H54_3 H 0.9672 0.4119 0.8136
C74_3 C 0.9089(6) 0.3998(4) 0.7936(8)
H55_3 H 0.8944 0.3706 0.8015
C75_3 C 0.8874(5) 0.4179(3) 0.7715(8)
H56_3 H 0.8590 0.4004 0.7613
Ag4_3 Ag 0.86921(4) 0.46019(3) 0.64726(3)
P2_4 P 0.06299(5) 0.85326(5) 0.09983(8)
C9_4 C 0.0071(4) 0.7327(3) 0.0427(6)
H5_4 H 0.0024 0.7204 0.0113
C10_4 C 0.0264(4) 0.7769(3) 0.0480(4)
H6_4 H 0.0332 0.7936 0.0194
C11_4 C 0.0357(2) 0.7966(2) 0.0916(3)
C12_4 C 0.0229(4) 0.7722(3) 0.1318(4)
H7_4 H 0.0272 0.7851 0.1628
C13_4 C 0.0034(5) 0.7287(3) 0.1286(6)
C26_4 C 0.0359(3) 0.8714(3) 0.0588(5)
C27_4 C 0.0364(3) 0.8676(3) 0.0099(5)
C31_4 C 0.0142(3) 0.8887(3) 0.0793(6)
H23_4 H 0.0146 0.8924 0.1135
C32_4 C 0.1128(2) 0.8729(2) 0.0690(3)
C33_4 C 0.1283(3) 0.8482(4) 0.0545(5)
H24_4 H 0.1119 0.8185 0.0586
C34_4 C 0.1691(4) 0.8661(5) 0.0332(6)
H25_4 H 0.1793 0.8484 0.0217
C35_4 C 0.1933(3) 0.9088(5) 0.0294(6)
H26_4 H 0.2220 0.9214 0.0197
C36_4 C 0.1758(4) 0.9335(4) 0.0397(8)
H27_4 H 0.1905 0.9627 0.0318
C37_4 C 0.1362(4) 0.9154(3) 0.0618(8)
H28_4 H 0.1253 0.9329 0.0720
P4_4 P 0.18660(5) 0.72965(5) 0.06683(8)
C46_4 C 0.0414(3) 0.6620(2) 0.0835(5)
C47_4 C 0.0661(3) 0.6737(4) 0.1239(6)
H33_4 H 0.0538 0.6690 0.1553
C48_4 C 0.1103(3) 0.6930(4) 0.1186(4)
H34_4 H 0.1270 0.6998 0.1472
C49_4 C 0.1300(2) 0.7023(2) 0.0750(3)
C50_4 C 0.1056(3) 0.6895(4) 0.0348(4)
H35_4 H 0.1185 0.6938 0.0038
C51_4 C 0.0621(3) 0.6700(5) 0.0380(6)
H36_4 H 0.0458 0.6620 0.0091
C55_4 C 0.0335(3) 0.4320(3) 0.0944(4)
H39_4 H 0.0572 0.4281 0.0976
C56_4 C 0.0391(3) 0.4720(3) 0.0928(4)
H40_4 H 0.0668 0.4957 0.0944
C57_4 C 0.0055(2) 0.4779(2) 0.0890(3)
H41_4 H 0.0100 0.5058 0.0882
C64_4 C 0.2048(3) 0.7025(3) 0.1078(5)
C65_4 C 0.2010(3) 0.7030(3) 0.1567(5)
H47_4 H 0.1901 0.7189 0.1716
C66_4 C 0.2134(4) 0.6794(4) 0.1846(6)
H48_4 H 0.2099 0.6788 0.2189
C67_4 C 0.2296(4) 0.6582(3) 0.1661(7)
H49_4 H 0.2381 0.6430 0.1868
C68_4 C 0.2345(5) 0.6575(4) 0.1181(8)
H50_4 H 0.2462 0.6417 0.1045
C69_4 C 0.2221(3) 0.6808(3) 0.0873(6)
H51_4 H 0.2258 0.6812 0.0531
C70_4 C 0.2063(2) 0.7794(2) 0.0976(3)
C71_4 C 0.1816(4) 0.7949(3) 0.1121(5)
H52_4 H 0.1519 0.7785 0.1080
C72_4 C 0.1995(5) 0.8357(4) 0.1334(6)
H53_4 H 0.1818 0.8459 0.1449
C73_4 C 0.2422(5) 0.8599(3) 0.1372(6)
H54_4 H 0.2548 0.8886 0.1469
C74_4 C 0.2669(4) 0.8424(4) 0.1269(8)
H55_4 H 0.2961 0.8571 0.1348
C75_4 C 0.2488(3) 0.8028(4) 0.1048(8)
H56_4 H 0.2663 0.7919 0.0946
Ag5_4 Ag 0.07568(2) 0.87314(3) 0.18607(3)
H19_4 H 0.0523 0.8567 0.9950
C28_4 C 0.0128(4) 0.8800(4) 0.9820(6)
H20_4 H 0.0122 0.8765 0.9477
Ag4_4 Ag 0.20647(3) 0.74235(2) 0.98060(3)
Ag1_4 Ag 0.74235(2) 0.53587(2) 0.01940(3)
P1_4 P 0.78230(5) 0.58459(6) 0.08495(8)
C1_4 C 0.9742(3) 0.6608(3) 0.0772(10)
C2_4 C 0.9269(2) 0.6394(2) 0.0832(5)
C3_4 C 0.9027(3) 0.6259(4) 0.0406(6)
H1_4 H 0.9163 0.6281 0.0105
C4_4 C 0.8597(3) 0.6096(3) 0.0411(4)
H2_4 H 0.8442 0.6013 0.0116
C5_4 C 0.8387(2) 0.6050(2) 0.0858(3)
C6_4 C 0.8621(2) 0.6164(3) 0.1271(4)
H3_4 H 0.8489 0.6127 0.1579
C7_4 C 0.9066(3) 0.6340(3) 0.1242(5)
H4_4 H 0.9224 0.6421 0.1535
C8_4 C 0.9954(2) 0.7080(3) 0.0831(5)
H8_4 H 0.9954 0.7124 0.1575
C14_4 C 0.7772(2) 0.6308(3) 0.0805(3)
C15_4 C 0.7368(3) 0.6259(3) 0.0804(5)
H9_4 H 0.7127 0.5986 0.0840
C16_4 C 0.7318(4) 0.6610(4) 0.0751(5)
H10_4 H 0.7042 0.6573 0.0734
C17_4 C 0.7654(3) 0.7001(3) 0.0722(4)
H11_4 H 0.7615 0.7238 0.0690
C18_4 C 0.8054(3) 0.7057(3) 0.0738(4)
H12_4 H 0.8291 0.7334 0.0722
C19_4 C 0.8113(2) 0.6721(2) 0.0776(3)
H13_4 H 0.8392 0.6766 0.0784
C20_4 C 0.7657(2) 0.5663(2) 0.1463(3)
C21_4 C 0.7592(3) 0.5258(3) 0.1573(4)
H14_4 H 0.7621 0.5088 0.1334
C22_4 C 0.7479(4) 0.5119(4) 0.2062(5)
H15_4 H 0.7432 0.4848 0.2148
C23_4 C 0.7434(3) 0.5355(4) 0.2410(4)
H16_4 H 0.7368 0.5253 0.2733
C24_4 C 0.7486(3) 0.5743(4) 0.2296(4)
H17_4 H 0.7444 0.5906 0.2535
C25_4 C 0.7603(3) 0.5898(3) 0.1814(3)
H18_4 H 0.7645 0.6169 0.1734
C29_4 C 0.9916(3) 0.8962(4) 0.0005(7)
C30_4 C 0.9909(4) 0.9011(5) 0.0485(8)
H22_4 H 0.9751 0.9128 0.0621
C38_6 C 0.6667 0.4768(3) 0.0833
O1_4 O 0.6915(2) 0.4704(2) 0.0565(3)
O2_6 O 0.6667 0.5101(3) 0.0833
P3_2 P 0.91793(6) 0.44896(5) 0.08171(8)
C39_4 C 0.9942(3) 0.6408(3) 0.0894(10)
C40_4 C 0.9728(2) 0.5935(2) 0.0834(5)
C41_4 C 0.9593(4) 0.5693(3) 0.1260(6)
H29_4 H 0.9615 0.5829 0.1561
C42_4 C 0.9430(3) 0.5263(3) 0.1255(4)
H30_4 H 0.9347 0.5108 0.1550
C43_4 C 0.9384(2) 0.5053(2) 0.0808(3)
C44_4 C 0.9498(3) 0.5287(2) 0.0395(4)
H31_4 H 0.9461 0.5155 0.0087
C45_4 C 0.9674(3) 0.5732(3) 0.0424(5)
H32_4 H 0.9755 0.5890 0.0131
C52_4 C 0.9642(3) 0.4438(2) 0.0861(3)
C53_4 C 0.9593(3) 0.4034(3) 0.0862(5)
H37_4 H 0.9320 0.3793 0.0826
C54_4 C 0.9944(4) 0.3984(4) 0.0915(5)
H38_4 H 0.9907 0.3708 0.0932
C58_4 C 0.8997(2) 0.4323(2) 0.0203(3)
C59_4 C 0.8592(3) 0.4258(3) 0.0093(4)
H42_4 H 0.8422 0.4287 0.0332
O3_4 O 0.6419(2) 0.4456(3) 0.1101(3)
Ag2_3 Ag 0.59099(2) 0.46019(3) 0.14726(3)
Ag3_2 Ag 0.86921(2) 0.40901(2) 0.14726(3)
P5_3 P 0.55104(5) 0.46896(8) 0.08171(8)
P7_4 P 0.60368(5) 0.48007(5) 0.23350(8)
H21_4 H 0.9764 0.9047 0.9798
C60_4 C 0.8453(4) 0.4145(4) 0.9604(5)
H43_4 H 0.8182 0.4098 0.9518
C61_4 C 0.8689(4) 0.4100(3) 0.9256(4)
H44_4 H 0.8587 0.4034 0.8933
C62_4 C 0.9077(4) 0.4152(3) 0.9370(4)
H45_4 H 0.9240 0.4110 0.9131
C63_4 C 0.9232(3) 0.4269(3) 0.9852(3)
H46_4 H 0.9503 0.4311 0.9932
P6_4 P 0.72965(5) 0.54306(7) 0.93317(8)
Ag1_5 Ag 0.46413(2) 0.20647(3) 0.01940(3)
P1_5 P 0.41541(6) 0.19770(8) 0.08495(8)
P2_5 P 0.14674(5) 0.20972(7) 0.09983(8)
C1_5 C 0.3392(3) 0.3133(4) 0.0772(10)
C2_5 C 0.3606(2) 0.2874(3) 0.0832(5)
C3_5 C 0.3741(4) 0.2767(5) 0.0406(6)
H1_5 H 0.3719 0.2881 0.0105
C4_5 C 0.3904(3) 0.2500(4) 0.0411(4)
H2_5 H 0.3987 0.2428 0.0116
C5_5 C 0.3950(2) 0.2336(3) 0.0858(3)
C6_5 C 0.3836(3) 0.2456(4) 0.1271(4)
H3_5 H 0.3873 0.2361 0.1579
C7_5 C 0.3660(3) 0.2725(4) 0.1242(5)
H4_5 H 0.3579 0.2802 0.1535
C8_5 C 0.2920(3) 0.2873(4) 0.0831(5)
C9_5 C 0.2673(3) 0.2743(5) 0.0427(6)
H5_5 H 0.2796 0.2819 0.0113
C10_5 C 0.2231(3) 0.2494(5) 0.0480(4)
H6_5 H 0.2064 0.2395 0.0194
C11_5 C 0.2034(2) 0.2390(3) 0.0916(3)
C12_5 C 0.2278(3) 0.2506(5) 0.1318(4)
H7_5 H 0.2149 0.2420 0.1628
C13_5 C 0.2713(3) 0.2746(6) 0.1286(6)
H8_5 H 0.2876 0.2829 0.1575
C14_5 C 0.3692(3) 0.1463(4) 0.0805(3)
C15_5 C 0.3741(3) 0.1108(4) 0.0804(5)
H9_5 H 0.4014 0.1140 0.0840
C16_5 C 0.3390(4) 0.0707(6) 0.0751(5)
H10_5 H 0.3427 0.0468 0.0734
C17_5 C 0.2999(3) 0.0652(4) 0.0722(4)
H11_5 H 0.2762 0.0376 0.0690
C18_5 C 0.2943(3) 0.0996(4) 0.0738(4)
H12_5 H 0.2666 0.0956 0.0722
C19_5 C 0.3279(2) 0.1391(3) 0.0776(3)
H13_5 H 0.3234 0.1625 0.0784
C20_5 C 0.4337(2) 0.1993(3) 0.1463(3)
C21_5 C 0.4742(3) 0.2333(4) 0.1573(4)
H14_5 H 0.4912 0.2532 0.1334
C22_5 C 0.4881(4) 0.2359(6) 0.2062(5)
H15_5 H 0.5152 0.2583 0.2148
C23_5 C 0.4645(4) 0.2078(5) 0.2410(4)
H16_5 H 0.4747 0.2114 0.2733
C24_5 C 0.4257(4) 0.1742(5) 0.2296(4)
H17_5 H 0.4094 0.1537 0.2535
C25_5 C 0.4102(3) 0.1704(4) 0.1814(3)
H18_5 H 0.3831 0.1475 0.1734
C26_5 C 0.1286(3) 0.1644(4) 0.0588(5)
C27_5 C 0.1324(3) 0.1687(4) 0.0099(5)
C29_5 C 0.1038(4) 0.0953(5) 0.0005(7)
C30_5 C 0.0989(5) 0.0897(6) 0.0485(8)
H22_5 H 0.0872 0.0622 0.0621
C31_5 C 0.1113(3) 0.1254(4) 0.0793(6)
H23_5 H 0.1076 0.1221 0.1135
C32_5 C 0.1271(2) 0.2398(3) 0.0690(3)
C33_5 C 0.1518(4) 0.2800(5) 0.0545(5)
H24_5 H 0.1815 0.2933 0.0586
C34_5 C 0.1339(5) 0.3029(6) 0.0332(6)
H25_5 H 0.1516 0.3308 0.0217
C35_5 C 0.0912(5) 0.2844(6) 0.0294(6)
H26_5 H 0.0786 0.3005 0.0197
C36_5 C 0.0665(4) 0.2422(6) 0.0397(8)
H27_5 H 0.0373 0.2277 0.0318
C37_5 C 0.0846(3) 0.2207(5) 0.0618(8)
H28_5 H 0.0671 0.1923 0.0720
C38_7 C 0.5232(3) 0.1898(3) 0.0833
O1_5 O 0.5296(2) 0.2210(3) 0.0565(3)
O2_7 O 0.4899(3) 0.1565(3) 0.0833
P4_5 P 0.27035(5) 0.45694(7) 0.06683(8)
C39_5 C 0.3592(3) 0.3533(4) 0.0894(10)
C40_5 C 0.4065(2) 0.3792(3) 0.0834(5)
C41_5 C 0.4307(3) 0.3899(5) 0.1260(6)
H29_5 H 0.4171 0.3785 0.1561
C42_5 C 0.4737(3) 0.4166(4) 0.1255(4)
H30_5 H 0.4892 0.4238 0.1550
C43_5 C 0.4947(2) 0.4330(3) 0.0808(3)
C44_5 C 0.4713(2) 0.4210(4) 0.0395(4)
H31_5 H 0.4845 0.4305 0.0087
C45_5 C 0.4268(3) 0.3941(4) 0.0424(5)
H32_5 H 0.4110 0.3864 0.0131
C46_5 C 0.3380(2) 0.3793(4) 0.0835(5)
C47_5 C 0.3263(4) 0.3923(5) 0.1239(6)
H33_5 H 0.3310 0.3847 0.1553
C48_5 C 0.3070(4) 0.4172(5) 0.1186(4)
H34_5 H 0.3002 0.4271 0.1472
C49_5 C 0.2977(2) 0.4276(3) 0.0750(3)
C50_5 C 0.3105(4) 0.4160(5) 0.0348(4)
H35_5 H 0.3062 0.4246 0.0038
C51_5 C 0.3300(5) 0.3920(6) 0.0380(6)
H36_5 H 0.3380 0.3837 0.0091
C52_5 C 0.5562(2) 0.5203(4) 0.0861(3)
C53_5 C 0.5966(3) 0.5558(4) 0.0862(5)
H37_5 H 0.6207 0.5526 0.0826
C54_5 C 0.6016(4) 0.5959(6) 0.0915(5)
H38_5 H 0.6292 0.6198 0.0932
C55_5 C 0.5680(3) 0.6014(4) 0.0944(4)
H39_5 H 0.5719 0.6290 0.0976
C56_5 C 0.5280(3) 0.5670(4) 0.0928(4)
H40_5 H 0.5043 0.5710 0.0944
C57_5 C 0.5221(2) 0.5275(3) 0.0890(3)
H41_5 H 0.4942 0.5041 0.0882
C58_5 C 0.5677(2) 0.4673(3) 0.0203(3)
C59_5 C 0.5742(3) 0.4333(4) 0.0093(4)
H42_5 H 0.5713 0.4134 0.0332
C64_5 C 0.2975(3) 0.5022(4) 0.1078(5)
C65_5 C 0.2970(3) 0.4979(4) 0.1567(5)
H47_5 H 0.2811 0.4711 0.1716
C66_5 C 0.3206(4) 0.5339(6) 0.1846(6)
H48_5 H 0.3212 0.5310 0.2189
C67_5 C 0.3418(3) 0.5713(5) 0.1661(7)
H49_5 H 0.3570 0.5950 0.1868
C68_5 C 0.3425(4) 0.5769(6) 0.1181(8)
H50_5 H 0.3583 0.6044 0.1045
C69_5 C 0.3192(3) 0.5412(4) 0.0873(6)
H51_5 H 0.3188 0.5445 0.0531
C70_5 C 0.2206(2) 0.4268(3) 0.0976(3)
C71_5 C 0.2051(3) 0.3866(5) 0.1121(5)
H52_5 H 0.2215 0.3733 0.1080
C72_5 C 0.1643(4) 0.3637(6) 0.1334(6)
H53_5 H 0.1541 0.3358 0.1449
C73_5 C 0.1401(3) 0.3822(6) 0.1372(6)
H54_5 H 0.1114 0.3661 0.1469
C74_5 C 0.1576(4) 0.4244(6) 0.1269(8)
H55_5 H 0.1429 0.4389 0.1348
C75_5 C 0.1972(4) 0.4459(5) 0.1048(8)
H56_5 H 0.2081 0.4743 0.0946
O3_5 O 0.5544(3) 0.1962(4) 0.1101(3)
Ag2_4 Ag 0.53981(3) 0.13079(4) 0.14726(3)
Ag5_5 Ag 0.12686(3) 0.20254(4) 0.18607(3)
P5_4 P 0.53104(8) 0.08207(9) 0.08171(8)
P7_5 P 0.51993(5) 0.12361(7) 0.23350(8)
H19_5 H 0.1433 0.1955 0.9950
C28_5 C 0.1200(4) 0.1327(6) 0.9820(6)
H20_5 H 0.1235 0.1356 0.9477
H21_5 H 0.0953 0.0716 0.9798
C60_5 C 0.5855(4) 0.4307(6) 0.9604(5)
H43_5 H 0.5902 0.4083 0.9518
C61_5 C 0.5900(3) 0.4588(5) 0.9256(4)
H44_5 H 0.5966 0.4552 0.8933
C62_5 C 0.5848(3) 0.4924(5) 0.9370(4)
H45_5 H 0.5890 0.5129 0.9131
C63_5 C 0.5731(3) 0.4962(4) 0.9852(3)
H46_5 H 0.5689 0.5191 0.9932
Ag4_5 Ag 0.25765(2) 0.46413(4) 0.98060(3)
P6_5 P 0.45694(7) 0.18660(9) 0.93317(8)
Ag1_6 Ag 0.79353(3) 0.25765(2) 0.01940(3)
P1_6 P 0.80230(8) 0.21770(5) 0.08495(8)
C1_6 C 0.6867(4) 0.0258(3) 0.0772(10)
C2_6 C 0.7126(3) 0.0731(2) 0.0832(5)
C3_6 C 0.7233(5) 0.0973(3) 0.0406(6)
H1_6 H 0.7119 0.0837 0.0105
C4_6 C 0.7500(4) 0.1403(3) 0.0411(4)
H2_6 H 0.7572 0.1558 0.0116
C5_6 C 0.7664(3) 0.1613(2) 0.0858(3)
C6_6 C 0.7544(4) 0.1379(2) 0.1271(4)
H3_6 H 0.7639 0.1511 0.1579
C7_6 C 0.7275(4) 0.0934(3) 0.1242(5)
H4_6 H 0.7198 0.0776 0.1535
C8_6 C 0.7127(4) 0.0046(2) 0.0831(5)
H8_6 H 0.7171 0.0046 0.1575
C14_6 C 0.8537(4) 0.2228(2) 0.0805(3)
C15_6 C 0.8892(4) 0.2632(3) 0.0804(5)
H9_6 H 0.8860 0.2873 0.0840
C16_6 C 0.9293(6) 0.2682(4) 0.0751(5)
H10_6 H 0.9532 0.2958 0.0734
C17_6 C 0.9348(4) 0.2346(3) 0.0722(4)
H11_6 H 0.9624 0.2385 0.0690
C18_6 C 0.9004(4) 0.1946(3) 0.0738(4)
H12_6 H 0.9044 0.1709 0.0722
C19_6 C 0.8609(3) 0.1887(2) 0.0776(3)
H13_6 H 0.8375 0.1608 0.0784
C20_6 C 0.8007(3) 0.2343(2) 0.1463(3)
C21_6 C 0.7667(4) 0.2408(3) 0.1573(4)
H14_6 H 0.7468 0.2379 0.1334
C22_6 C 0.7641(6) 0.2521(4) 0.2062(5)
H15_6 H 0.7417 0.2568 0.2148
C23_6 C 0.7922(5) 0.2566(3) 0.2410(4)
H16_6 H 0.7886 0.2632 0.2733
C24_6 C 0.8258(5) 0.2514(3) 0.2296(4)
H17_6 H 0.8463 0.2556 0.2535
C25_6 C 0.8296(4) 0.2397(3) 0.1814(3)
H18_6 H 0.8525 0.2355 0.1734
C29_6 C 0.9047(5) 0.0084(3) 0.0005(7)
C30_6 C 0.9103(6) 0.0091(4) 0.0485(8)
H22_6 H 0.9378 0.0249 0.0621
C38_8 C 0.8102(3) 0.3333 0.0833
O1_6 O 0.7790(3) 0.3085(2) 0.0565(3)
O2_8 O 0.8435(3) 0.3333 0.0833
C39_6 C 0.6467(4) 0.0058(3) 0.0894(10)
C40_6 C 0.6208(3) 0.0272(2) 0.0834(5)
C41_6 C 0.6101(5) 0.0407(4) 0.1260(6)
H29_6 H 0.6215 0.0385 0.1561
C42_6 C 0.5834(4) 0.0570(3) 0.1255(4)
H30_6 H 0.5762 0.0653 0.1550
C43_6 C 0.5670(3) 0.0616(2) 0.0808(3)
C44_6 C 0.5790(4) 0.0502(3) 0.0395(4)
H31_6 H 0.5695 0.0539 0.0087
C45_6 C 0.6059(4) 0.0326(3) 0.0424(5)
H32_6 H 0.6136 0.0245 0.0131
C52_6 C 0.4797(4) 0.0358(3) 0.0861(3)
C53_6 C 0.4442(4) 0.0407(3) 0.0862(5)
H37_6 H 0.4474 0.0680 0.0826
C54_6 C 0.4041(6) 0.0056(4) 0.0915(5)
H38_6 H 0.3802 0.0093 0.0932
C58_6 C 0.5327(3) 0.1003(2) 0.0203(3)
C59_6 C 0.5667(4) 0.1408(3) 0.0093(4)
H42_6 H 0.5866 0.1578 0.0332
O3_6 O 0.8038(4) 0.3581(2) 0.1101(3)
P7_6 P 0.87639(7) 0.39632(5) 0.23350(8)
H21_6 H 0.9284 0.0236 0.9798
C60_6 C 0.5693(6) 0.1547(4) 0.9604(5)
H43_6 H 0.5917 0.1818 0.9518
C61_6 C 0.5412(5) 0.1311(4) 0.9256(4)
H44_6 H 0.5448 0.1413 0.8933
C62_6 C 0.5076(5) 0.0923(4) 0.9370(4)
H45_6 H 0.4871 0.0760 0.9131
C63_6 C 0.5038(4) 0.0768(3) 0.9852(3)
H46_6 H 0.4809 0.0497 0.9932
P6_6 P 0.81340(9) 0.27035(5) 0.93317(8)
P2_6 P 0.79028(7) 0.93701(5) 0.09983(8)
C9_6 C 0.7257(5) 0.9929(4) 0.0427(6)
H5_6 H 0.7181 0.9976 0.0113
C10_6 C 0.7506(5) 0.9736(4) 0.0480(4)
H6_6 H 0.7605 0.9668 0.0194
C11_6 C 0.7610(3) 0.9643(2) 0.0916(3)
C12_6 C 0.7494(5) 0.9771(4) 0.1318(4)
H7_6 H 0.7580 0.9728 0.1628
C13_6 C 0.7254(6) 0.9966(5) 0.1286(6)
C26_6 C 0.8356(4) 0.9641(3) 0.0588(5)
C27_6 C 0.8313(4) 0.9636(3) 0.0099(5)
C31_6 C 0.8746(4) 0.9858(3) 0.0793(6)
H23_6 H 0.8779 0.9854 0.1135
C32_6 C 0.7602(3) 0.8872(2) 0.0690(3)
C33_6 C 0.7200(5) 0.8717(3) 0.0545(5)
H24_6 H 0.7067 0.8881 0.0586
C34_6 C 0.6971(6) 0.8309(4) 0.0332(6)
H25_6 H 0.6692 0.8207 0.0217
C35_6 C 0.7156(6) 0.8067(3) 0.0294(6)
H26_6 H 0.6995 0.7780 0.0197
C36_6 C 0.7578(6) 0.8242(4) 0.0397(8)
H27_6 H 0.7723 0.8095 0.0318
C37_6 C 0.7793(5) 0.8638(4) 0.0618(8)
H28_6 H 0.8077 0.8747 0.0720
P4_6 P 0.54306(7) 0.81340(5) 0.06683(8)
C46_6 C 0.6207(4) 0.9586(3) 0.0835(5)
C47_6 C 0.6077(5) 0.9339(3) 0.1239(6)
H33_6 H 0.6153 0.9462 0.1553
C48_6 C 0.5828(5) 0.8897(3) 0.1186(4)
H34_6 H 0.5729 0.8730 0.1472
C49_6 C 0.5724(3) 0.8700(2) 0.0750(3)
C50_6 C 0.5840(5) 0.8944(3) 0.0348(4)
H35_6 H 0.5754 0.8815 0.0038
C51_6 C 0.6080(6) 0.9379(3) 0.0380(6)
H36_6 H 0.6163 0.9542 0.0091
C55_6 C 0.3986(4) 0.9665(3) 0.0944(4)
H39_6 H 0.3710 0.9428 0.0976
C56_6 C 0.4330(4) 0.9609(3) 0.0928(4)
H40_6 H 0.4290 0.9332 0.0944
C57_6 C 0.4725(3) 0.9945(2) 0.0890(3)
H41_6 H 0.4959 0.9900 0.0882
C64_6 C 0.4978(4) 0.7952(3) 0.1078(5)
C65_6 C 0.5021(4) 0.7990(3) 0.1567(5)
H47_6 H 0.5289 0.8099 0.1716
C66_6 C 0.4661(6) 0.7866(4) 0.1846(6)
H48_6 H 0.4690 0.7901 0.2189
C67_6 C 0.4287(5) 0.7704(4) 0.1661(7)
H49_6 H 0.4050 0.7619 0.1868
C68_6 C 0.4231(6) 0.7655(5) 0.1181(8)
H50_6 H 0.3956 0.7538 0.1045
C69_6 C 0.4588(4) 0.7779(3) 0.0873(6)
H51_6 H 0.4555 0.7742 0.0531
C70_6 C 0.5732(3) 0.7937(2) 0.0976(3)
C71_6 C 0.6134(5) 0.8184(4) 0.1121(5)
H52_6 H 0.6267 0.8481 0.1080
C72_6 C 0.6363(6) 0.8005(5) 0.1334(6)
H53_6 H 0.6642 0.8182 0.1449
C73_6 C 0.6178(6) 0.7578(5) 0.1372(6)
H54_6 H 0.6339 0.7452 0.1469
C74_6 C 0.5756(6) 0.7331(4) 0.1269(8)
H55_6 H 0.5611 0.7039 0.1348
C75_6 C 0.5541(5) 0.7512(3) 0.1048(8)
H56_6 H 0.5257 0.7337 0.0946
Ag5_6 Ag 0.79746(4) 0.92432(2) 0.18607(3)
H19_6 H 0.8045 0.9477 0.9950
C28_6 C 0.8673(6) 0.9872(4) 0.9820(6)
H20_6 H 0.8644 0.9878 0.9477
Ag4_6 Ag 0.53587(4) 0.79353(3) 0.98060(3)
P2_7 P 0.72965(5) 0.18660(5) 0.43317(8)
C8_7 C 0.6620(2) 0.0414(3) 0.4165(5)
C9_7 C 0.6737(4) 0.0661(3) 0.3761(6)
H5_7 H 0.6690 0.0538 0.3447
C10_7 C 0.6930(4) 0.1103(3) 0.3814(4)
H6_7 H 0.6998 0.1270 0.3528
C11_7 C 0.7023(2) 0.1300(2) 0.4250(3)
C12_7 C 0.6895(4) 0.1056(3) 0.4652(4)
H7_7 H 0.6938 0.1185 0.4962
C13_7 C 0.6700(5) 0.0621(3) 0.4620(6)
H8_7 H 0.6620 0.0458 0.4909
C17_7 C 0.4320(3) 0.0335(3) 0.4056(4)
H11_7 H 0.4281 0.0572 0.4024
C18_7 C 0.4720(3) 0.0391(3) 0.4072(4)
H12_7 H 0.4957 0.0668 0.4056
C19_7 C 0.4779(2) 0.0055(2) 0.4110(3)
H13_7 H 0.5058 0.0100 0.4118
C26_7 C 0.7025(3) 0.2048(3) 0.3922(5)
C27_7 C 0.7030(3) 0.2010(3) 0.3433(5)
H19_7 H 0.7189 0.1901 0.3284
C28_7 C 0.6794(4) 0.2134(4) 0.3154(6)
H20_7 H 0.6788 0.2099 0.2811
C29_7 C 0.6582(3) 0.2296(4) 0.3339(7)
H21_7 H 0.6430 0.2381 0.3132
C30_7 C 0.6575(4) 0.2345(5) 0.3819(8)
H22_7 H 0.6417 0.2462 0.3955
C31_7 C 0.6808(3) 0.2221(3) 0.4127(6)
H23_7 H 0.6812 0.2258 0.4469
C32_7 C 0.7794(2) 0.2063(2) 0.4024(3)
C33_7 C 0.7949(3) 0.1816(4) 0.3879(5)
H24_7 H 0.7785 0.1519 0.3920
C34_7 C 0.8357(4) 0.1995(5) 0.3666(6)
H25_7 H 0.8459 0.1818 0.3551
C35_7 C 0.8599(3) 0.2422(5) 0.3628(6)
H26_7 H 0.8886 0.2548 0.3531
C36_7 C 0.8424(4) 0.2669(4) 0.3731(8)
H27_7 H 0.8571 0.2961 0.3652
C37_7 C 0.8028(4) 0.2488(3) 0.3952(8)
H28_7 H 0.7919 0.2663 0.4054
P4_7 P 0.85326(5) 0.06299(5) 0.40017(8)
C47_7 C 0.7327(3) 0.0071(4) 0.4573(6)
H33_7 H 0.7204 0.0024 0.4887
C48_7 C 0.7769(3) 0.0264(4) 0.4520(4)
H34_7 H 0.7936 0.0332 0.4806
C49_7 C 0.7966(2) 0.0357(2) 0.4084(3)
C50_7 C 0.7722(3) 0.0229(4) 0.3682(4)
H35_7 H 0.7851 0.0272 0.3372
C51_7 C 0.7287(3) 0.0034(5) 0.3714(6)
C64_7 C 0.8714(3) 0.0359(3) 0.4412(5)
C65_7 C 0.8676(3) 0.0364(3) 0.4901(5)
H47_7 H 0.8567 0.0523 0.5050
C66_7 C 0.8800(4) 0.0128(4) 0.5180(6)
H48_7 H 0.8765 0.0122 0.5523
C69_7 C 0.8887(3) 0.0142(3) 0.4207(6)
H51_7 H 0.8924 0.0146 0.3865
C70_7 C 0.8729(2) 0.1128(2) 0.4310(3)
C71_7 C 0.8482(4) 0.1283(3) 0.4455(5)
H52_7 H 0.8185 0.1119 0.4414
C72_7 C 0.8661(5) 0.1691(4) 0.4668(6)
H53_7 H 0.8484 0.1793 0.4783
C73_7 C 0.9088(5) 0.1933(3) 0.4706(6)
H54_7 H 0.9214 0.2220 0.4803
C74_7 C 0.9335(4) 0.1758(4) 0.4603(8)
H55_7 H 0.9627 0.1905 0.4682
C75_7 C 0.9154(3) 0.1362(4) 0.4382(8)
H56_7 H 0.9329 0.1253 0.4280
Ag4_7 Ag 0.87314(3) 0.07568(2) 0.31393(3)
Ag5_7 Ag 0.74235(2) 0.20647(3) 0.51940(3)
Ag1_7 Ag 0.40901(2) 0.86921(2) 0.35274(3)
P1_7 P 0.44896(5) 0.91793(6) 0.41829(8)
C1_7 C 0.6408(3) 0.9942(3) 0.4106(10)
C2_7 C 0.5935(2) 0.9728(2) 0.4166(5)
C3_7 C 0.5693(3) 0.9593(4) 0.3740(6)
H1_7 H 0.5829 0.9615 0.3439
C4_7 C 0.5263(3) 0.9430(3) 0.3745(4)
H2_7 H 0.5108 0.9347 0.3450
C5_7 C 0.5053(2) 0.9384(2) 0.4192(3)
C6_7 C 0.5287(2) 0.9498(3) 0.4605(4)
H3_7 H 0.5155 0.9461 0.4913
C7_7 C 0.5732(3) 0.9674(3) 0.4576(5)
H4_7 H 0.5890 0.9755 0.4869
C14_7 C 0.4438(2) 0.9642(3) 0.4139(3)
C15_7 C 0.4034(3) 0.9593(3) 0.4138(5)
H9_7 H 0.3793 0.9320 0.4174
C16_7 C 0.3984(4) 0.9944(4) 0.4085(5)
H10_7 H 0.3708 0.9907 0.4068
C20_7 C 0.4323(2) 0.8997(2) 0.4797(3)
C21_7 C 0.4258(3) 0.8592(3) 0.4907(4)
H14_7 H 0.4287 0.8422 0.4668
C22_7 C 0.4145(4) 0.8453(4) 0.5396(5)
H15_7 H 0.4098 0.8182 0.5482
C23_7 C 0.4100(3) 0.8689(4) 0.5744(4)
H16_7 H 0.4034 0.8587 0.6067
C24_7 C 0.4152(3) 0.9077(4) 0.5630(4)
H17_7 H 0.4110 0.9240 0.5869
C25_7 C 0.4269(3) 0.9232(3) 0.5148(3)
H18_7 H 0.4311 0.9503 0.5068
C38_9 C 0.3333 0.8102(3) 0.4167
O1_7 O 0.3581(2) 0.8038(2) 0.3899(3)
O2_9 O 0.3333 0.8435(3) 0.4167
P3_3 P 0.58459(6) 0.78230(5) 0.41505(8)
C39_7 C 0.6608(3) 0.9742(3) 0.4228(10)
C40_7 C 0.6394(2) 0.9269(2) 0.4168(5)
C41_7 C 0.6259(4) 0.9027(3) 0.4594(6)
H29_7 H 0.6281 0.9163 0.4895
C42_7 C 0.6096(3) 0.8597(3) 0.4589(4)
H30_7 H 0.6013 0.8442 0.4884
C43_7 C 0.6050(2) 0.8387(2) 0.4142(3)
C44_7 C 0.6164(3) 0.8621(2) 0.3729(4)
H31_7 H 0.6127 0.8489 0.3421
C45_7 C 0.6340(3) 0.9066(3) 0.3758(5)
H32_7 H 0.6421 0.9224 0.3465
C46_7 C 0.7080(3) 0.9954(2) 0.4169(5)
H36_7 H 0.7124 0.9954 0.3425
C52_7 C 0.6308(3) 0.7772(2) 0.4195(3)
C53_7 C 0.6259(3) 0.7368(3) 0.4196(5)
H37_7 H 0.5986 0.7127 0.4160
C54_7 C 0.6610(4) 0.7318(4) 0.4249(5)
H38_7 H 0.6573 0.7042 0.4266
C55_7 C 0.7001(3) 0.7654(3) 0.4278(4)
H39_7 H 0.7238 0.7615 0.4310
C56_7 C 0.7057(3) 0.8054(3) 0.4262(4)
H40_7 H 0.7334 0.8291 0.4278
C57_7 C 0.6721(2) 0.8113(2) 0.4224(3)
H41_7 H 0.6766 0.8392 0.4216
C58_7 C 0.5663(2) 0.7657(2) 0.3537(3)
C59_7 C 0.5258(3) 0.7592(3) 0.3427(4)
H42_7 H 0.5088 0.7621 0.3666
C60_7 C 0.5119(4) 0.7479(4) 0.2938(5)
H43_7 H 0.4848 0.7432 0.2852
C61_7 C 0.5355(4) 0.7434(3) 0.2590(4)
H44_7 H 0.5253 0.7368 0.2267
C62_7 C 0.5743(4) 0.7486(3) 0.2704(4)
H45_7 H 0.5906 0.7444 0.2465
C63_7 C 0.5898(3) 0.7603(3) 0.3186(3)
H46_7 H 0.6169 0.7645 0.3266
C67_7 C 0.8962(4) 0.9916(3) 0.4995(7)
H49_7 H 0.9047 0.9764 0.5202
C68_7 C 0.9011(5) 0.9909(4) 0.4515(8)
H50_7 H 0.9128 0.9751 0.4379
O3_7 O 0.3085(2) 0.7790(3) 0.4435(3)
Ag2_5 Ag 0.25765(2) 0.79353(3) 0.48060(3)
Ag3_3 Ag 0.53587(2) 0.74235(2) 0.48060(3)
P5_5 P 0.21770(5) 0.80230(8) 0.41505(8)
P6_7 P 0.39632(5) 0.87639(7) 0.26650(8)
P7_7 P 0.27035(5) 0.81340(5) 0.56683(8)
Ag1_8 Ag 0.13079(2) 0.53981(3) 0.35274(3)
P1_8 P 0.08207(6) 0.53104(8) 0.41829(8)
C1_8 C 0.0058(3) 0.6467(4) 0.4106(10)
C2_8 C 0.0272(2) 0.6208(3) 0.4166(5)
C3_8 C 0.0407(4) 0.6101(5) 0.3740(6)
H1_8 H 0.0385 0.6215 0.3439
C4_8 C 0.0570(3) 0.5834(4) 0.3745(4)
H2_8 H 0.0653 0.5762 0.3450
C5_8 C 0.0616(2) 0.5670(3) 0.4192(3)
C6_8 C 0.0502(3) 0.5790(4) 0.4605(4)
H3_8 H 0.0539 0.5695 0.4913
C7_8 C 0.0326(3) 0.6059(4) 0.4576(5)
H4_8 H 0.0245 0.6136 0.4869
C14_8 C 0.0358(3) 0.4797(4) 0.4139(3)
C15_8 C 0.0407(3) 0.4442(4) 0.4138(5)
H9_8 H 0.0680 0.4474 0.4174
C16_8 C 0.0056(4) 0.4041(6) 0.4085(5)
H10_8 H 0.0093 0.3802 0.4068
C20_8 C 0.1003(2) 0.5327(3) 0.4797(3)
C21_8 C 0.1408(3) 0.5667(4) 0.4907(4)
H14_8 H 0.1578 0.5866 0.4668
C22_8 C 0.1547(4) 0.5693(6) 0.5396(5)
H15_8 H 0.1818 0.5917 0.5482
C23_8 C 0.1311(4) 0.5412(5) 0.5744(4)
H16_8 H 0.1413 0.5448 0.6067
C24_8 C 0.0923(4) 0.5076(5) 0.5630(4)
H17_8 H 0.0760 0.4871 0.5869
C25_8 C 0.0768(3) 0.5038(4) 0.5148(3)
H18_8 H 0.0497 0.4809 0.5068
C38_10 C 0.1898(3) 0.5232(3) 0.4167
O1_8 O 0.1962(2) 0.5544(3) 0.3899(3)
O2_10 O 0.1565(3) 0.4899(3) 0.4167
C39_8 C 0.0258(3) 0.6867(4) 0.4228(10)
C40_8 C 0.0731(2) 0.7126(3) 0.4168(5)
C41_8 C 0.0973(3) 0.7233(5) 0.4594(6)
H29_8 H 0.0837 0.7119 0.4895
C42_8 C 0.1403(3) 0.7500(4) 0.4589(4)
H30_8 H 0.1558 0.7572 0.4884
C43_8 C 0.1613(2) 0.7664(3) 0.4142(3)
C44_8 C 0.1379(2) 0.7544(4) 0.3729(4)
H31_8 H 0.1511 0.7639 0.3421
C45_8 C 0.0934(3) 0.7275(4) 0.3758(5)
H32_8 H 0.0776 0.7198 0.3465
C46_8 C 0.0046(2) 0.7127(4) 0.4169(5)
H36_8 H 0.0046 0.7171 0.3425
C52_8 C 0.2228(2) 0.8537(4) 0.4195(3)
C53_8 C 0.2632(3) 0.8892(4) 0.4196(5)
H37_8 H 0.2873 0.8860 0.4160
C54_8 C 0.2682(4) 0.9293(6) 0.4249(5)
H38_8 H 0.2958 0.9532 0.4266
C55_8 C 0.2346(3) 0.9348(4) 0.4278(4)
H39_8 H 0.2385 0.9624 0.4310
C56_8 C 0.1946(3) 0.9004(4) 0.4262(4)
H40_8 H 0.1709 0.9044 0.4278
C57_8 C 0.1887(2) 0.8609(3) 0.4224(3)
H41_8 H 0.1608 0.8375 0.4216
C58_8 C 0.2343(2) 0.8007(3) 0.3537(3)
C59_8 C 0.2408(3) 0.7667(4) 0.3427(4)
H42_8 H 0.2379 0.7468 0.3666
C60_8 C 0.2521(4) 0.7641(6) 0.2938(5)
H43_8 H 0.2568 0.7417 0.2852
C61_8 C 0.2566(3) 0.7922(5) 0.2590(4)
H44_8 H 0.2632 0.7886 0.2267
C62_8 C 0.2514(3) 0.8258(5) 0.2704(4)
H45_8 H 0.2556 0.8463 0.2465
C63_8 C 0.2397(3) 0.8296(4) 0.3186(3)
H46_8 H 0.2355 0.8525 0.3266
C67_8 C 0.0084(3) 0.9047(5) 0.4995(7)
H49_8 H 0.0236 0.9284 0.5202
C68_8 C 0.0091(4) 0.9103(6) 0.4515(8)
H50_8 H 0.0249 0.9378 0.4379
O3_8 O 0.2210(3) 0.5296(4) 0.4435(3)
Ag2_6 Ag 0.20647(3) 0.46413(4) 0.48060(3)
P5_6 P 0.19770(8) 0.41541(9) 0.41505(8)
P6_8 P 0.12361(7) 0.51993(9) 0.26650(8)
P7_8 P 0.18660(5) 0.45694(7) 0.56683(8)
P2_8 P 0.81340(5) 0.54306(7) 0.43317(8)
C8_8 C 0.9586(3) 0.6207(4) 0.4165(5)
C9_8 C 0.9339(3) 0.6077(5) 0.3761(6)
H5_8 H 0.9462 0.6153 0.3447
C10_8 C 0.8897(3) 0.5828(5) 0.3814(4)
H6_8 H 0.8730 0.5729 0.3528
C11_8 C 0.8700(2) 0.5724(3) 0.4250(3)
C12_8 C 0.8944(3) 0.5840(5) 0.4652(4)
H7_8 H 0.8815 0.5754 0.4962
C13_8 C 0.9379(3) 0.6080(6) 0.4620(6)
H8_8 H 0.9542 0.6163 0.4909
C17_8 C 0.9665(3) 0.3986(4) 0.4056(4)
H11_8 H 0.9428 0.3710 0.4024
C18_8 C 0.9609(3) 0.4330(4) 0.4072(4)
H12_8 H 0.9332 0.4290 0.4056
C19_8 C 0.9945(2) 0.4725(3) 0.4110(3)
H13_8 H 0.9900 0.4959 0.4118
C26_8 C 0.7952(3) 0.4978(4) 0.3922(5)
C27_8 C 0.7990(3) 0.5021(4) 0.3433(5)
H19_8 H 0.8099 0.5289 0.3284
C28_8 C 0.7866(4) 0.4661(6) 0.3154(6)
H20_8 H 0.7901 0.4690 0.2811
C29_8 C 0.7704(4) 0.4287(5) 0.3339(7)
H21_8 H 0.7619 0.4050 0.3132
C30_8 C 0.7655(5) 0.4231(6) 0.3819(8)
H22_8 H 0.7538 0.3956 0.3955
C31_8 C 0.7779(3) 0.4588(4) 0.4127(6)
H23_8 H 0.7742 0.4555 0.4469
C32_8 C 0.7937(2) 0.5732(3) 0.4024(3)
C33_8 C 0.8184(4) 0.6134(5) 0.3879(5)
H24_8 H 0.8481 0.6267 0.3920
C34_8 C 0.8005(5) 0.6363(6) 0.3666(6)
H25_8 H 0.8182 0.6642 0.3551
C35_8 C 0.7578(5) 0.6178(6) 0.3628(6)
H26_8 H 0.7452 0.6339 0.3531
C36_8 C 0.7331(4) 0.5756(6) 0.3731(8)
H27_8 H 0.7039 0.5611 0.3652
C37_8 C 0.7512(3) 0.5541(5) 0.3952(8)
H28_8 H 0.7337 0.5257 0.4054
P4_8 P 0.93701(5) 0.79028(7) 0.40017(8)
C47_8 C 0.9929(4) 0.7257(5) 0.4573(6)
H33_8 H 0.9976 0.7181 0.4887
C48_8 C 0.9736(4) 0.7506(5) 0.4520(4)
H34_8 H 0.9668 0.7605 0.4806
C49_8 C 0.9643(2) 0.7610(3) 0.4084(3)
C50_8 C 0.9771(4) 0.7494(5) 0.3682(4)
H35_8 H 0.9728 0.7580 0.3372
C51_8 C 0.9966(5) 0.7254(6) 0.3714(6)
C64_8 C 0.9641(3) 0.8356(4) 0.4412(5)
C65_8 C 0.9636(3) 0.8313(4) 0.4901(5)
H47_8 H 0.9477 0.8045 0.5050
C66_8 C 0.9872(4) 0.8673(6) 0.5180(6)
H48_8 H 0.9878 0.8644 0.5523
C69_8 C 0.9858(3) 0.8746(4) 0.4207(6)
H51_8 H 0.9854 0.8779 0.3865
C70_8 C 0.8872(2) 0.7602(3) 0.4310(3)
C71_8 C 0.8717(3) 0.7200(5) 0.4455(5)
H52_8 H 0.8881 0.7067 0.4414
C72_8 C 0.8309(4) 0.6971(6) 0.4668(6)
H53_8 H 0.8207 0.6692 0.4783
C73_8 C 0.8067(3) 0.7156(6) 0.4706(6)
H54_8 H 0.7780 0.6995 0.4803
C74_8 C 0.8242(4) 0.7578(6) 0.4603(8)
H55_8 H 0.8095 0.7723 0.4682
C75_8 C 0.8638(4) 0.7793(5) 0.4382(8)
H56_8 H 0.8747 0.8077 0.4280
Ag4_8 Ag 0.92432(2) 0.79746(4) 0.31393(3)
Ag5_8 Ag 0.79353(3) 0.53587(4) 0.51940(3)
Ag1_9 Ag 0.46019(3) 0.59099(2) 0.35274(3)
P1_9 P 0.46896(8) 0.55104(5) 0.41829(8)
P2_9 P 0.45694(7) 0.27035(5) 0.43317(8)
C1_9 C 0.3533(4) 0.3592(3) 0.4106(10)
C2_9 C 0.3792(3) 0.4065(2) 0.4166(5)
C3_9 C 0.3899(5) 0.4307(3) 0.3740(6)
H1_9 H 0.3785 0.4171 0.3439
C4_9 C 0.4166(4) 0.4737(3) 0.3745(4)
H2_9 H 0.4238 0.4892 0.3450
C5_9 C 0.4330(3) 0.4947(2) 0.4192(3)
C6_9 C 0.4210(4) 0.4713(2) 0.4605(4)
H3_9 H 0.4305 0.4845 0.4913
C7_9 C 0.3941(4) 0.4268(3) 0.4576(5)
H4_9 H 0.3864 0.4110 0.4869
C8_9 C 0.3793(4) 0.3380(2) 0.4165(5)
C9_9 C 0.3923(5) 0.3263(4) 0.3761(6)
H5_9 H 0.3847 0.3310 0.3447
C10_9 C 0.4172(5) 0.3070(4) 0.3814(4)
H6_9 H 0.4271 0.3002 0.3528
C11_9 C 0.4276(3) 0.2977(2) 0.4250(3)
C12_9 C 0.4160(5) 0.3105(4) 0.4652(4)
H7_9 H 0.4246 0.3062 0.4962
C13_9 C 0.3920(6) 0.3300(5) 0.4620(6)
H8_9 H 0.3837 0.3380 0.4909
C14_9 C 0.5203(4) 0.5562(2) 0.4139(3)
C15_9 C 0.5558(4) 0.5966(3) 0.4138(5)
H9_9 H 0.5526 0.6207 0.4174
C16_9 C 0.5959(6) 0.6016(4) 0.4085(5)
H10_9 H 0.6198 0.6292 0.4068
C17_9 C 0.6014(4) 0.5680(3) 0.4056(4)
H11_9 H 0.6290 0.5719 0.4024
C18_9 C 0.5670(4) 0.5280(3) 0.4072(4)
H12_9 H 0.5710 0.5043 0.4056
C19_9 C 0.5275(3) 0.5221(2) 0.4110(3)
H13_9 H 0.5041 0.4942 0.4118
C20_9 C 0.4673(3) 0.5677(2) 0.4797(3)
C21_9 C 0.4333(4) 0.5742(3) 0.4907(4)
H14_9 H 0.4134 0.5713 0.4668
C22_9 C 0.4307(6) 0.5855(4) 0.5396(5)
H15_9 H 0.4083 0.5902 0.5482
C23_9 C 0.4588(5) 0.5900(3) 0.5744(4)
H16_9 H 0.4552 0.5966 0.6067
C24_9 C 0.4924(5) 0.5848(3) 0.5630(4)
H17_9 H 0.5129 0.5890 0.5869
C25_9 C 0.4962(4) 0.5731(3) 0.5148(3)
H18_9 H 0.5191 0.5689 0.5068
C26_9 C 0.5022(4) 0.2975(3) 0.3922(5)
C27_9 C 0.4979(4) 0.2970(3) 0.3433(5)
H19_9 H 0.4711 0.2811 0.3284
C28_9 C 0.5339(6) 0.3206(4) 0.3154(6)
H20_9 H 0.5310 0.3212 0.2811
C29_9 C 0.5713(5) 0.3418(3) 0.3339(7)
H21_9 H 0.5950 0.3570 0.3132
C30_9 C 0.5769(6) 0.3425(4) 0.3819(8)
H22_9 H 0.6044 0.3583 0.3955
C31_9 C 0.5412(4) 0.3192(3) 0.4127(6)
H23_9 H 0.5445 0.3188 0.4469
C32_9 C 0.4268(3) 0.2206(2) 0.4024(3)
C33_9 C 0.3866(5) 0.2051(3) 0.3879(5)
H24_9 H 0.3733 0.2215 0.3920
C34_9 C 0.3637(6) 0.1643(4) 0.3666(6)
H25_9 H 0.3358 0.1541 0.3551
C35_9 C 0.3822(6) 0.1401(3) 0.3628(6)
H26_9 H 0.3661 0.1114 0.3531
C36_9 C 0.4244(6) 0.1576(4) 0.3731(8)
H27_9 H 0.4389 0.1429 0.3652
C37_9 C 0.4459(5) 0.1972(4) 0.3952(8)
H28_9 H 0.4743 0.2081 0.4054
C38_11 C 0.4768(3) 0.6667 0.4167
O1_9 O 0.4456(3) 0.6419(2) 0.3899(3)
O2_11 O 0.5101(3) 0.6667 0.4167
P4_9 P 0.20972(7) 0.14674(5) 0.40017(8)
C39_9 C 0.3133(4) 0.3392(3) 0.4228(10)
C40_9 C 0.2874(3) 0.3606(2) 0.4168(5)
C41_9 C 0.2767(5) 0.3741(4) 0.4594(6)
H29_9 H 0.2881 0.3719 0.4895
C42_9 C 0.2500(4) 0.3904(3) 0.4589(4)
H30_9 H 0.2428 0.3987 0.4884
C43_9 C 0.2336(3) 0.3950(2) 0.4142(3)
C44_9 C 0.2456(4) 0.3836(3) 0.3729(4)
H31_9 H 0.2361 0.3873 0.3421
C45_9 C 0.2725(4) 0.3660(3) 0.3758(5)
H32_9 H 0.2802 0.3579 0.3465
C46_9 C 0.2873(4) 0.2920(3) 0.4169(5)
C47_9 C 0.2743(5) 0.2673(3) 0.4573(6)
H33_9 H 0.2819 0.2796 0.4887
C48_9 C 0.2494(5) 0.2231(3) 0.4520(4)
H34_9 H 0.2395 0.2064 0.4806
C49_9 C 0.2390(3) 0.2034(2) 0.4084(3)
C50_9 C 0.2506(5) 0.2278(3) 0.3682(4)
H35_9 H 0.2420 0.2149 0.3372
C51_9 C 0.2746(6) 0.2713(3) 0.3714(6)
H36_9 H 0.2829 0.2876 0.3425
C52_9 C 0.1463(4) 0.3692(3) 0.4195(3)
C53_9 C 0.1108(4) 0.3741(3) 0.4196(5)
H37_9 H 0.1140 0.4014 0.4160
C54_9 C 0.0707(6) 0.3390(4) 0.4249(5)
H38_9 H 0.0468 0.3427 0.4266
C55_9 C 0.0652(4) 0.2999(3) 0.4278(4)
H39_9 H 0.0376 0.2762 0.4310
C56_9 C 0.0996(4) 0.2943(3) 0.4262(4)
H40_9 H 0.0956 0.2666 0.4278
C57_9 C 0.1391(3) 0.3279(2) 0.4224(3)
H41_9 H 0.1625 0.3234 0.4216
C58_9 C 0.1993(3) 0.4337(2) 0.3537(3)
C59_9 C 0.2333(4) 0.4742(3) 0.3427(4)
H42_9 H 0.2532 0.4912 0.3666
C60_9 C 0.2359(6) 0.4881(4) 0.2938(5)
H43_9 H 0.2583 0.5152 0.2852
C61_9 C 0.2078(5) 0.4645(4) 0.2590(4)
H44_9 H 0.2114 0.4747 0.2267
C62_9 C 0.1742(5) 0.4257(4) 0.2704(4)
H45_9 H 0.1537 0.4094 0.2465
C63_9 C 0.1704(4) 0.4102(3) 0.3186(3)
H46_9 H 0.1475 0.3831 0.3266
C64_9 C 0.1644(4) 0.1286(3) 0.4412(5)
C65_9 C 0.1687(4) 0.1324(3) 0.4901(5)
H47_9 H 0.1955 0.1433 0.5050
C66_9 C 0.1327(6) 0.1200(4) 0.5180(6)
H48_9 H 0.1356 0.1235 0.5523
C67_9 C 0.0953(5) 0.1038(4) 0.4995(7)
H49_9 H 0.0716 0.0953 0.5202
C68_9 C 0.0897(6) 0.0989(5) 0.4515(8)
H50_9 H 0.0622 0.0872 0.4379
C69_9 C 0.1254(4) 0.1113(3) 0.4207(6)
H51_9 H 0.1221 0.1076 0.3865
C70_9 C 0.2398(3) 0.1271(2) 0.4310(3)
C71_9 C 0.2800(5) 0.1518(4) 0.4455(5)
H52_9 H 0.2933 0.1815 0.4414
C72_9 C 0.3029(6) 0.1339(5) 0.4668(6)
H53_9 H 0.3308 0.1516 0.4783
C73_9 C 0.2844(6) 0.0912(5) 0.4706(6)
H54_9 H 0.3005 0.0786 0.4803
C74_9 C 0.2422(6) 0.0665(4) 0.4603(8)
H55_9 H 0.2277 0.0373 0.4682
C75_9 C 0.2207(5) 0.0846(3) 0.4382(8)
H56_9 H 0.1923 0.0671 0.4280
O3_9 O 0.4704(4) 0.6915(2) 0.4435(3)
Ag4_9 Ag 0.20254(4) 0.12686(3) 0.31393(3)
Ag5_9 Ag 0.46413(4) 0.25765(2) 0.51940(3)
P6_9 P 0.48007(9) 0.60368(5) 0.26650(8)
P7_9 P 0.54306(7) 0.72965(5) 0.56683(8)
C38_12 C 0.0000 0.8565(3) 0.2500
O2_12 O -0.0000 0.8232(3) 0.2500
O3_10 O 0.0248(2) 0.8877(3) 0.2232(3)
P5_7 P 0.11563(5) 0.86437(8) 0.25162(8)
P1_10 P 0.88437(5) 0.74874(6) 0.24838(8)
C1_10 C 0.6925(3) 0.6725(3) 0.2561(10)
C2_10 C 0.7398(2) 0.6939(2) 0.2501(5)
C3_10 C 0.7640(3) 0.7074(4) 0.2927(6)
H1_10 H 0.7504 0.7052 0.3228
C4_10 C 0.8070(3) 0.7237(3) 0.2922(4)
H2_10 H 0.8225 0.7320 0.3217
C5_10 C 0.8280(2) 0.7283(2) 0.2475(3)
C6_10 C 0.8046(2) 0.7169(3) 0.2062(4)
H3_10 H 0.8178 0.7206 0.1754
C7_10 C 0.7601(3) 0.6993(3) 0.2091(5)
H4_10 H 0.7443 0.6912 0.1798
C8_10 C 0.6713(2) 0.6253(3) 0.2502(5)
C9_10 C 0.6596(4) 0.6006(3) 0.2906(6)
H5_10 H 0.6643 0.6129 0.3220
C10_10 C 0.6403(4) 0.5564(3) 0.2853(4)
H6_10 H 0.6335 0.5397 0.3139
C11_10 C 0.6310(2) 0.5367(2) 0.2417(3)
C12_10 C 0.6438(4) 0.5611(3) 0.2015(4)
H7_10 H 0.6395 0.5482 0.1705
C13_10 C 0.6633(5) 0.6046(3) 0.2047(6)
H8_10 H 0.6713 0.6209 0.1758
C14_10 C 0.8895(2) 0.7025(3) 0.2528(3)
C15_10 C 0.9299(3) 0.7074(3) 0.2529(5)
H9_10 H 0.9540 0.7347 0.2493
C16_10 C 0.9349(4) 0.6723(4) 0.2582(5)
H10_10 H 0.9625 0.6760 0.2599
C17_10 C 0.9013(3) 0.6332(3) 0.2611(4)
H11_10 H 0.9052 0.6095 0.2643
C18_10 C 0.8613(3) 0.6276(3) 0.2595(4)
H12_10 H 0.8376 0.5999 0.2611
C19_10 C 0.8554(2) 0.6612(2) 0.2557(3)
H13_10 H 0.8275 0.6567 0.2549
C20_10 C 0.9010(2) 0.7670(2) 0.1870(3)
C21_10 C 0.9075(3) 0.8075(3) 0.1760(4)
H14_10 H 0.9046 0.8245 0.1999
C22_10 C 0.9188(4) 0.8214(4) 0.1271(5)
H15_10 H 0.9235 0.8485 0.1185
C23_10 C 0.9233(3) 0.7978(4) 0.0923(4)
H16_10 H 0.9299 0.8080 0.0600
C24_10 C 0.9181(3) 0.7590(4) 0.1037(4)
H17_10 H 0.9223 0.7427 0.0798
C25_10 C 0.9064(3) 0.7435(3) 0.1519(3)
H18_10 H 0.9022 0.7164 0.1599
C26_10 C 0.6308(3) 0.4619(3) 0.2745(5)
C27_10 C 0.6303(3) 0.4657(3) 0.3234(5)
H19_10 H 0.6144 0.4766 0.3383
C28_10 C 0.6539(4) 0.4533(4) 0.3513(6)
H20_10 H 0.6545 0.4568 0.3856
C29_10 C 0.6751(3) 0.4371(4) 0.3328(7)
H21_10 H 0.6903 0.4286 0.3535
C30_10 C 0.6758(4) 0.4322(5) 0.2848(8)
H22_10 H 0.6916 0.4205 0.2712
C31_10 C 0.6525(3) 0.4446(3) 0.2540(6)
H23_10 H 0.6521 0.4409 0.2198
C32_10 C 0.5539(2) 0.4604(2) 0.2643(3)
C33_10 C 0.5384(3) 0.4851(4) 0.2788(5)
H24_10 H 0.5548 0.5148 0.2747
C34_10 C 0.4976(4) 0.4672(5) 0.3001(6)
H25_10 H 0.4874 0.4849 0.3116
C35_10 C 0.4734(3) 0.4245(5) 0.3039(6)
H26_10 H 0.4447 0.4119 0.3136
C36_10 C 0.4909(4) 0.3998(4) 0.2936(8)
H27_10 H 0.4762 0.3706 0.3015
C37_10 C 0.5305(4) 0.4179(3) 0.2715(8)
H28_10 H 0.5414 0.4004 0.2613
C38_13 C 1.0000 0.8565(3) 0.2500
O1_10 O 0.9752(2) 0.8629(2) 0.2768(3)
O2_13 O 1.0000 0.8232(3) 0.2500
P3_4 P 0.74874(6) 0.88437(5) 0.25162(8)
C39_10 C 0.6725(3) 0.6925(3) 0.2439(10)
C40_10 C 0.6939(2) 0.7398(2) 0.2499(5)
C41_10 C 0.7074(4) 0.7640(3) 0.2073(6)
H29_10 H 0.7052 0.7504 0.1772
C42_10 C 0.7237(3) 0.8070(3) 0.2078(4)
H30_10 H 0.7320 0.8225 0.1783
C43_10 C 0.7283(2) 0.8280(2) 0.2525(3)
C44_10 C 0.7169(3) 0.8046(2) 0.2938(4)
H31_10 H 0.7206 0.8178 0.3246
C45_10 C 0.6993(3) 0.7601(3) 0.2909(5)
H32_10 H 0.6912 0.7443 0.3202
C46_10 C 0.6253(3) 0.6713(2) 0.2498(5)
C47_10 C 0.6006(3) 0.6596(4) 0.2094(6)
H33_10 H 0.6129 0.6643 0.1780
C48_10 C 0.5564(3) 0.6403(4) 0.2147(4)
H34_10 H 0.5397 0.6335 0.1861
C49_10 C 0.5367(2) 0.6310(2) 0.2583(3)
C50_10 C 0.5611(3) 0.6438(4) 0.2985(4)
H35_10 H 0.5482 0.6395 0.3295
C51_10 C 0.6046(3) 0.6633(5) 0.2953(6)
H36_10 H 0.6209 0.6713 0.3242
C52_10 C 0.7025(3) 0.8895(2) 0.2472(3)
C53_10 C 0.7074(3) 0.9299(3) 0.2471(5)
H37_10 H 0.7347 0.9540 0.2507
C54_10 C 0.6723(4) 0.9349(4) 0.2418(5)
H38_10 H 0.6760 0.9625 0.2401
C55_10 C 0.6332(3) 0.9013(3) 0.2389(4)
H39_10 H 0.6095 0.9052 0.2357
C56_10 C 0.6276(3) 0.8613(3) 0.2405(4)
H40_10 H 0.5999 0.8376 0.2389
C57_10 C 0.6612(2) 0.8554(2) 0.2443(3)
H41_10 H 0.6567 0.8275 0.2451
C58_10 C 0.7670(2) 0.9010(2) 0.3130(3)
C59_10 C 0.8075(3) 0.9075(3) 0.3240(4)
H42_10 H 0.8245 0.9046 0.3001
C60_10 C 0.8214(4) 0.9188(4) 0.3729(5)
H43_10 H 0.8485 0.9235 0.3815
C61_10 C 0.7978(4) 0.9233(3) 0.4077(4)
H44_10 H 0.8080 0.9299 0.4400
C62_10 C 0.7590(4) 0.9181(3) 0.3963(4)
H45_10 H 0.7427 0.9223 0.4202
C63_10 C 0.7435(3) 0.9064(3) 0.3481(3)
H46_10 H 0.7164 0.9022 0.3401
C64_10 C 0.4619(3) 0.6308(3) 0.2255(5)
C65_10 C 0.4657(3) 0.6303(3) 0.1766(5)
H47_10 H 0.4766 0.6144 0.1617
C66_10 C 0.4533(4) 0.6539(4) 0.1487(6)
H48_10 H 0.4568 0.6545 0.1144
C67_10 C 0.4371(4) 0.6751(3) 0.1672(7)
H49_10 H 0.4286 0.6903 0.1465
C68_10 C 0.4322(5) 0.6758(4) 0.2152(8)
H50_10 H 0.4205 0.6916 0.2288
C69_10 C 0.4446(3) 0.6525(3) 0.2460(6)
H51_10 H 0.4409 0.6521 0.2802
C70_10 C 0.4604(2) 0.5539(2) 0.2357(3)
C71_10 C 0.4851(4) 0.5384(3) 0.2212(5)
H52_10 H 0.5148 0.5548 0.2253
C72_10 C 0.4672(5) 0.4976(4) 0.1999(6)
H53_10 H 0.4849 0.4874 0.1884
C73_10 C 0.4245(5) 0.4734(3) 0.1961(6)
H54_10 H 0.4119 0.4447 0.1864
C74_10 C 0.3998(4) 0.4909(4) 0.2064(8)
H55_10 H 0.3706 0.4762 0.1985
C75_10 C 0.4179(3) 0.5305(4) 0.2285(8)
H56_10 H 0.4004 0.5414 0.2387
P1_11 P 0.25126(6) 0.13563(8) 0.24838(8)
C1_11 C 0.3275(3) 0.0200(4) 0.2561(10)
C2_11 C 0.3061(2) 0.0459(3) 0.2501(5)
C3_11 C 0.2926(4) 0.0566(5) 0.2927(6)
H1_11 H 0.2948 0.0452 0.3228
C4_11 C 0.2763(3) 0.0833(4) 0.2922(4)
H2_11 H 0.2680 0.0905 0.3217
C5_11 C 0.2717(2) 0.0997(3) 0.2475(3)
C6_11 C 0.2831(3) 0.0877(4) 0.2062(4)
H3_11 H 0.2794 0.0972 0.1754
C7_11 C 0.3007(3) 0.0608(4) 0.2091(5)
H4_11 H 0.3088 0.0531 0.1798
C8_11 C 0.3747(3) 0.0460(4) 0.2502(5)
C9_11 C 0.3994(3) 0.0590(5) 0.2906(6)
H5_11 H 0.3871 0.0514 0.3220
C10_11 C 0.4436(3) 0.0839(5) 0.2853(4)
H6_11 H 0.4603 0.0938 0.3139
C11_11 C 0.4633(2) 0.0943(3) 0.2417(3)
C12_11 C 0.4389(3) 0.0827(5) 0.2015(4)
H7_11 H 0.4518 0.0913 0.1705
C13_11 C 0.3954(3) 0.0587(6) 0.2047(6)
H8_11 H 0.3791 0.0504 0.1758
C14_11 C 0.2975(3) 0.1870(4) 0.2528(3)
C15_11 C 0.2926(3) 0.2225(4) 0.2529(5)
H9_11 H 0.2653 0.2193 0.2493
C16_11 C 0.3277(4) 0.2626(6) 0.2582(5)
H10_11 H 0.3240 0.2865 0.2599
C17_11 C 0.3668(3) 0.2681(4) 0.2611(4)
H11_11 H 0.3905 0.2957 0.2643
C18_11 C 0.3724(3) 0.2337(4) 0.2595(4)
H12_11 H 0.4001 0.2377 0.2611
C19_11 C 0.3388(2) 0.1942(3) 0.2557(3)
H13_11 H 0.3433 0.1708 0.2549
C20_11 C 0.2330(2) 0.1340(3) 0.1870(3)
C21_11 C 0.1925(3) 0.1000(4) 0.1760(4)
H14_11 H 0.1755 0.0801 0.1999
C22_11 C 0.1786(4) 0.0974(6) 0.1271(5)
H15_11 H 0.1515 0.0750 0.1185
C23_11 C 0.2022(4) 0.1255(5) 0.0923(4)
H16_11 H 0.1920 0.1219 0.0600
C24_11 C 0.2410(4) 0.1591(5) 0.1037(4)
H17_11 H 0.2573 0.1796 0.0798
C25_11 C 0.2565(3) 0.1629(4) 0.1519(3)
H18_11 H 0.2836 0.1858 0.1599
C26_11 C 0.5381(3) 0.1689(4) 0.2745(5)
C27_11 C 0.5343(3) 0.1646(4) 0.3234(5)
H19_11 H 0.5234 0.1378 0.3383
C28_11 C 0.5467(4) 0.2006(6) 0.3513(6)
H20_11 H 0.5432 0.1977 0.3856
C29_11 C 0.5629(4) 0.2380(5) 0.3328(7)
H21_11 H 0.5714 0.2617 0.3535
C30_11 C 0.5678(5) 0.2436(6) 0.2848(8)
H22_11 H 0.5795 0.2711 0.2712
C31_11 C 0.5554(3) 0.2079(4) 0.2540(6)
H23_11 H 0.5591 0.2112 0.2198
C32_11 C 0.5396(2) 0.0935(3) 0.2643(3)
C33_11 C 0.5149(4) 0.0533(5) 0.2788(5)
H24_11 H 0.4852 0.0400 0.2747
C34_11 C 0.5328(5) 0.0304(6) 0.3001(6)
H25_11 H 0.5151 0.0025 0.3116
C35_11 C 0.5755(5) 0.0489(6) 0.3039(6)
H26_11 H 0.5881 0.0328 0.3136
C36_11 C 0.6002(4) 0.0911(6) 0.2936(8)
H27_11 H 0.6294 0.1056 0.3015
C37_11 C 0.5821(3) 0.1126(5) 0.2715(8)
H28_11 H 0.5996 0.1410 0.2613
C38_14 C 0.1435(3) 0.1435(3) 0.2500
O1_11 O 0.1371(2) 0.1123(3) 0.2768(3)
O2_14 O 0.1768(3) 0.1768(3) 0.2500
O3_11 O 0.1123(3) 0.1371(4) 0.2232(3)
P5_8 P 0.13563(8) 0.25126(9) 0.25162(8)
C39_11 C 0.3075(3) 0.9800(4) 0.2439(10)
C40_11 C 0.2602(2) 0.9541(3) 0.2499(5)
C41_11 C 0.2360(3) 0.9434(5) 0.2073(6)
H29_11 H 0.2496 0.9548 0.1772
C42_11 C 0.1930(3) 0.9167(4) 0.2078(4)
H30_11 H 0.1775 0.9095 0.1783
C43_11 C 0.1720(2) 0.9003(3) 0.2525(3)
C44_11 C 0.1954(2) 0.9123(4) 0.2938(4)
H31_11 H 0.1822 0.9028 0.3246
C45_11 C 0.2399(3) 0.9392(4) 0.2909(5)
H32_11 H 0.2557 0.9469 0.3202
C46_11 C 0.3287(2) 0.9540(4) 0.2498(5)
C47_11 C 0.3404(4) 0.9410(5) 0.2094(6)
H33_11 H 0.3357 0.9486 0.1780
C48_11 C 0.3597(4) 0.9161(5) 0.2147(4)
H34_11 H 0.3665 0.9062 0.1861
C49_11 C 0.3690(2) 0.9057(3) 0.2583(3)
C50_11 C 0.3562(4) 0.9173(5) 0.2985(4)
H35_11 H 0.3605 0.9087 0.3295
C51_11 C 0.3367(5) 0.9413(6) 0.2953(6)
H36_11 H 0.3287 0.9496 0.3242
C52_11 C 0.1105(2) 0.8130(4) 0.2472(3)
C53_11 C 0.0701(3) 0.7775(4) 0.2471(5)
H37_11 H 0.0460 0.7807 0.2507
C54_11 C 0.0651(4) 0.7374(6) 0.2418(5)
H38_11 H 0.0375 0.7135 0.2401
C55_11 C 0.0987(3) 0.7319(4) 0.2389(4)
H39_11 H 0.0948 0.7043 0.2357
C56_11 C 0.1387(3) 0.7663(4) 0.2405(4)
H40_11 H 0.1624 0.7623 0.2389
C57_11 C 0.1446(2) 0.8058(3) 0.2443(3)
H41_11 H 0.1725 0.8292 0.2451
C58_11 C 0.0990(2) 0.8660(3) 0.3130(3)
C59_11 C 0.0925(3) 0.9000(4) 0.3240(4)
H42_11 H 0.0954 0.9199 0.3001
C60_11 C 0.0812(4) 0.9026(6) 0.3729(5)
H43_11 H 0.0765 0.9250 0.3815
C61_11 C 0.0767(3) 0.8745(5) 0.4077(4)
H44_11 H 0.0701 0.8781 0.4400
C62_11 C 0.0819(3) 0.8409(5) 0.3963(4)
H45_11 H 0.0777 0.8204 0.4202
C63_11 C 0.0936(3) 0.8371(4) 0.3481(3)
H46_11 H 0.0978 0.8142 0.3401
C64_11 C 0.3692(3) 0.8311(4) 0.2255(5)
C65_11 C 0.3697(3) 0.8354(4) 0.1766(5)
H47_11 H 0.3856 0.8622 0.1617
C66_11 C 0.3461(4) 0.7994(6) 0.1487(6)
H48_11 H 0.3455 0.8023 0.1144
C67_11 C 0.3249(3) 0.7620(5) 0.1672(7)
H49_11 H 0.3097 0.7383 0.1465
C68_11 C 0.3242(4) 0.7564(6) 0.2152(8)
H50_11 H 0.3084 0.7289 0.2288
C69_11 C 0.3475(3) 0.7921(4) 0.2460(6)
H51_11 H 0.3479 0.7888 0.2802
C70_11 C 0.4461(2) 0.9065(3) 0.2357(3)
C71_11 C 0.4616(3) 0.9467(5) 0.2212(5)
H52_11 H 0.4452 0.9600 0.2253
C72_11 C 0.5024(4) 0.9696(6) 0.1999(6)
H53_11 H 0.5126 0.9975 0.1884
C73_11 C 0.5266(3) 0.9511(6) 0.1961(6)
H54_11 H 0.5553 0.9672 0.1864
C74_11 C 0.5091(4) 0.9089(6) 0.2064(8)
H55_11 H 0.5238 0.8944 0.1985
C75_11 C 0.4695(4) 0.8874(5) 0.2285(8)
H56_11 H 0.4586 0.8590 0.2387
C39_12 C 0.0200(4) 0.3275(3) 0.2439(10)
C40_12 C 0.0459(3) 0.3061(2) 0.2499(5)
C41_12 C 0.0566(5) 0.2926(4) 0.2073(6)
H29_12 H 0.0452 0.2948 0.1772
C42_12 C 0.0833(4) 0.2763(3) 0.2078(4)
H30_12 H 0.0905 0.2680 0.1783
C43_12 C 0.0997(3) 0.2717(2) 0.2525(3)
C44_12 C 0.0877(4) 0.2831(3) 0.2938(4)
H31_12 H 0.0972 0.2794 0.3246
C45_12 C 0.0608(4) 0.3007(3) 0.2909(5)
H32_12 H 0.0531 0.3088 0.3202
C46_12 C 0.0460(4) 0.3747(3) 0.2498(5)
C47_12 C 0.0590(5) 0.3994(3) 0.2094(6)
H33_12 H 0.0514 0.3871 0.1780
C48_12 C 0.0839(5) 0.4436(3) 0.2147(4)
H34_12 H 0.0938 0.4603 0.1861
C49_12 C 0.0943(3) 0.4633(2) 0.2583(3)
C50_12 C 0.0827(5) 0.4389(3) 0.2985(4)
H35_12 H 0.0913 0.4518 0.3295
C51_12 C 0.0587(6) 0.3954(3) 0.2953(6)
H36_12 H 0.0504 0.3791 0.3242
C52_12 C 0.1870(4) 0.2975(3) 0.2472(3)
C53_12 C 0.2225(4) 0.2926(3) 0.2471(5)
H37_12 H 0.2193 0.2653 0.2507
C54_12 C 0.2626(6) 0.3277(4) 0.2418(5)
H38_12 H 0.2865 0.3240 0.2401
C55_12 C 0.2681(4) 0.3668(3) 0.2389(4)
H39_12 H 0.2957 0.3905 0.2357
C56_12 C 0.2337(4) 0.3724(3) 0.2405(4)
H40_12 H 0.2377 0.4001 0.2389
C57_12 C 0.1942(3) 0.3388(2) 0.2443(3)
H41_12 H 0.1708 0.3433 0.2451
C58_12 C 0.1340(3) 0.2330(2) 0.3130(3)
C59_12 C 0.1000(4) 0.1925(3) 0.3240(4)
H42_12 H 0.0801 0.1755 0.3001
C60_12 C 0.0974(6) 0.1786(4) 0.3729(5)
H43_12 H 0.0750 0.1515 0.3815
C61_12 C 0.1255(5) 0.2022(4) 0.4077(4)
H44_12 H 0.1219 0.1920 0.4400
C62_12 C 0.1591(5) 0.2410(4) 0.3963(4)
H45_12 H 0.1796 0.2573 0.4202
C63_12 C 0.1629(4) 0.2565(3) 0.3481(3)
H46_12 H 0.1858 0.2836 0.3401
C64_12 C 0.1689(4) 0.5381(3) 0.2255(5)
C65_12 C 0.1646(4) 0.5343(3) 0.1766(5)
H47_12 H 0.1378 0.5234 0.1617
C66_12 C 0.2006(6) 0.5467(4) 0.1487(6)
H48_12 H 0.1977 0.5432 0.1144
C67_12 C 0.2380(5) 0.5629(4) 0.1672(7)
H49_12 H 0.2617 0.5714 0.1465
C68_12 C 0.2436(6) 0.5678(5) 0.2152(8)
H50_12 H 0.2711 0.5795 0.2288
C69_12 C 0.2079(4) 0.5554(3) 0.2460(6)
H51_12 H 0.2112 0.5591 0.2802
C70_12 C 0.0935(3) 0.5396(2) 0.2357(3)
C71_12 C 0.0533(5) 0.5149(4) 0.2212(5)
H52_12 H 0.0400 0.4852 0.2253
C72_12 C 0.0304(6) 0.5328(5) 0.1999(6)
H53_12 H 0.0025 0.5151 0.1884
C73_12 C 0.0489(6) 0.5755(5) 0.1961(6)
H54_12 H 0.0328 0.5881 0.1864
C74_12 C 0.0911(6) 0.6002(4) 0.2064(8)
H55_12 H 0.1056 0.6294 0.1985
C75_12 C 0.1126(5) 0.5821(3) 0.2285(8)
H56_12 H 0.1410 0.5996 0.2387
P1_12 P 0.86437(8) 0.11563(5) 0.24838(8)
C1_12 C 0.9800(4) 0.3075(3) 0.2561(10)
C2_12 C 0.9541(3) 0.2602(2) 0.2501(5)
C3_12 C 0.9434(5) 0.2360(3) 0.2927(6)
H1_12 H 0.9548 0.2496 0.3228
C4_12 C 0.9167(4) 0.1930(3) 0.2922(4)
H2_12 H 0.9095 0.1775 0.3217
C5_12 C 0.9003(3) 0.1720(2) 0.2475(3)
C6_12 C 0.9123(4) 0.1954(2) 0.2062(4)
H3_12 H 0.9028 0.1822 0.1754
C7_12 C 0.9392(4) 0.2399(3) 0.2091(5)
H4_12 H 0.9469 0.2557 0.1798
C8_12 C 0.9540(4) 0.3287(2) 0.2502(5)
C9_12 C 0.9410(5) 0.3404(4) 0.2906(6)
H5_12 H 0.9486 0.3357 0.3220
C10_12 C 0.9161(5) 0.3597(4) 0.2853(4)
H6_12 H 0.9062 0.3665 0.3139
C11_12 C 0.9057(3) 0.3690(2) 0.2417(3)
C12_12 C 0.9173(5) 0.3562(4) 0.2015(4)
H7_12 H 0.9087 0.3605 0.1705
C13_12 C 0.9413(6) 0.3367(5) 0.2047(6)
H8_12 H 0.9496 0.3287 0.1758
C14_12 C 0.8130(4) 0.1105(2) 0.2528(3)
C15_12 C 0.7775(4) 0.0701(3) 0.2529(5)
H9_12 H 0.7807 0.0460 0.2493
C16_12 C 0.7374(6) 0.0651(4) 0.2582(5)
H10_12 H 0.7135 0.0375 0.2599
C17_12 C 0.7319(4) 0.0987(3) 0.2611(4)
H11_12 H 0.7043 0.0948 0.2643
C18_12 C 0.7663(4) 0.1387(3) 0.2595(4)
H12_12 H 0.7623 0.1624 0.2611
C19_12 C 0.8058(3) 0.1446(2) 0.2557(3)
H13_12 H 0.8292 0.1725 0.2549
C20_12 C 0.8660(3) 0.0990(2) 0.1870(3)
C21_12 C 0.9000(4) 0.0925(3) 0.1760(4)
H14_12 H 0.9199 0.0954 0.1999
C22_12 C 0.9026(6) 0.0812(4) 0.1271(5)
H15_12 H 0.9250 0.0765 0.1185
C23_12 C 0.8745(5) 0.0767(3) 0.0923(4)
H16_12 H 0.8781 0.0701 0.0600
C24_12 C 0.8409(5) 0.0819(3) 0.1037(4)
H17_12 H 0.8204 0.0777 0.0798
C25_12 C 0.8371(4) 0.0936(3) 0.1519(3)
H18_12 H 0.8142 0.0978 0.1599
C26_12 C 0.8311(4) 0.3692(3) 0.2745(5)
C27_12 C 0.8354(4) 0.3697(3) 0.3234(5)
H19_12 H 0.8622 0.3856 0.3383
C28_12 C 0.7994(6) 0.3461(4) 0.3513(6)
H20_12 H 0.8023 0.3455 0.3856
C29_12 C 0.7620(5) 0.3249(3) 0.3328(7)
H21_12 H 0.7383 0.3097 0.3535
C30_12 C 0.7564(6) 0.3242(4) 0.2848(8)
H22_12 H 0.7289 0.3084 0.2712
C31_12 C 0.7921(4) 0.3475(3) 0.2540(6)
H23_12 H 0.7888 0.3479 0.2198
C32_12 C 0.9065(3) 0.4461(2) 0.2643(3)
C33_12 C 0.9467(5) 0.4616(3) 0.2788(5)
H24_12 H 0.9600 0.4452 0.2747
C34_12 C 0.9696(6) 0.5024(4) 0.3001(6)
H25_12 H 0.9975 0.5126 0.3116
C35_12 C 0.9511(6) 0.5266(3) 0.3039(6)
H26_12 H 0.9672 0.5553 0.3136
C36_12 C 0.9089(6) 0.5091(4) 0.2936(8)
H27_12 H 0.8944 0.5238 0.3015
C37_12 C 0.8874(5) 0.4695(4) 0.2715(8)
H28_12 H 0.8590 0.4586 0.2613
C38_15 C 0.8565(3) 0.0000 0.2500
O1_12 O 0.8877(3) 0.0248(2) 0.2768(3)
O2_15 O 0.8232(3) 0.0000 0.2500
C38_16 C 0.8565(3) 1.0000 0.2500
O2_16 O 0.8232(3) 1.0000 0.2500
O3_12 O 0.8629(4) 0.9752(2) 0.2232(3)
H21_13 H 0.0236 0.0953 0.0202
C60_13 C 0.1547(4) 0.5855(4) 0.0396(5)
H43_13 H 0.1818 0.5902 0.0482
C61_13 C 0.1311(4) 0.5900(3) 0.0744(4)
H44_13 H 0.1413 0.5966 0.1067
C62_13 C 0.0923(4) 0.5848(3) 0.0630(4)
H45_13 H 0.0760 0.5890 0.0869
C63_13 C 0.0768(3) 0.5731(3) 0.0148(3)
H46_13 H 0.0497 0.5689 0.0068
P1_13 P 0.21770(5) 0.41541(6) 0.91505(8)
C1_13 C 0.0258(3) 0.3392(3) 0.9228(10)
C2_13 C 0.0731(2) 0.3606(2) 0.9168(5)
C3_13 C 0.0973(3) 0.3741(4) 0.9594(6)
H1_13 H 0.0837 0.3719 0.9895
C4_13 C 0.1403(3) 0.3904(3) 0.9589(4)
H2_13 H 0.1558 0.3987 0.9884
C5_13 C 0.1613(2) 0.3950(2) 0.9142(3)
C6_13 C 0.1379(2) 0.3836(3) 0.8729(4)
H3_13 H 0.1511 0.3873 0.8421
C7_13 C 0.0934(3) 0.3660(3) 0.8758(5)
H4_13 H 0.0776 0.3579 0.8465
C8_13 C 0.0046(2) 0.2920(3) 0.9169(5)
H8_13 H 0.0046 0.2876 0.8425
C14_13 C 0.2228(2) 0.3692(3) 0.9195(3)
C15_13 C 0.2632(3) 0.3741(3) 0.9196(5)
H9_13 H 0.2873 0.4014 0.9160
C16_13 C 0.2682(4) 0.3390(4) 0.9249(5)
H10_13 H 0.2958 0.3427 0.9266
C17_13 C 0.2346(3) 0.2999(3) 0.9278(4)
H11_13 H 0.2385 0.2762 0.9310
C18_13 C 0.1946(3) 0.2943(3) 0.9262(4)
H12_13 H 0.1709 0.2666 0.9278
C19_13 C 0.1887(2) 0.3279(2) 0.9224(3)
H13_13 H 0.1608 0.3234 0.9216
C20_13 C 0.2343(2) 0.4337(2) 0.8537(3)
C21_13 C 0.2408(3) 0.4742(3) 0.8427(4)
H14_13 H 0.2379 0.4912 0.8666
C22_13 C 0.2521(4) 0.4881(4) 0.7938(5)
H15_13 H 0.2568 0.5152 0.7852
C23_13 C 0.2566(3) 0.4645(4) 0.7590(4)
H16_13 H 0.2632 0.4747 0.7267
C24_13 C 0.2514(3) 0.4257(4) 0.7704(4)
H17_13 H 0.2556 0.4094 0.7465
C25_13 C 0.2397(3) 0.4102(3) 0.8186(3)
H18_13 H 0.2355 0.3831 0.8266
C29_13 C 0.0084(3) 0.1038(4) 0.9995(7)
C30_13 C 0.0091(4) 0.0989(5) 0.9515(8)
H22_13 H 0.0249 0.0872 0.9379
C38_17 C 0.3333 0.5232(3) 0.9167
O1_13 O 0.3085(2) 0.5296(2) 0.9435(3)
O2_17 O 0.3333 0.4899(3) 0.9167
P3_5 P 0.08207(6) 0.55104(5) 0.91829(8)
C39_13 C 0.0058(3) 0.3592(3) 0.9106(10)
C40_13 C 0.0272(2) 0.4065(2) 0.9166(5)
C41_13 C 0.0407(4) 0.4307(3) 0.8740(6)
H29_13 H 0.0385 0.4171 0.8439
C42_13 C 0.0570(3) 0.4737(3) 0.8745(4)
H30_13 H 0.0653 0.4892 0.8450
C43_13 C 0.0616(2) 0.4947(2) 0.9192(3)
C44_13 C 0.0502(3) 0.4713(2) 0.9605(4)
H31_13 H 0.0539 0.4845 0.9913
C45_13 C 0.0326(3) 0.4268(3) 0.9576(5)
H32_13 H 0.0245 0.4110 0.9869
C52_13 C 0.0358(3) 0.5562(2) 0.9139(3)
C53_13 C 0.0407(3) 0.5966(3) 0.9138(5)
H37_13 H 0.0680 0.6207 0.9174
C54_13 C 0.0056(4) 0.6016(4) 0.9085(5)
H38_13 H 0.0093 0.6292 0.9068
C58_13 C 0.1003(2) 0.5677(2) 0.9797(3)
C59_13 C 0.1408(3) 0.5742(3) 0.9907(4)
H42_13 H 0.1578 0.5713 0.9668
O3_13 O 0.3581(2) 0.5544(3) 0.8899(3)
P5_9 P 0.44896(5) 0.53104(8) 0.91829(8)
H19_13 H 0.9477 0.1433 0.0050
C28_13 C 0.9872(4) 0.1200(4) 0.0180(6)
H20_13 H 0.9878 0.1235 0.0523
C9_13 C 0.9929(4) 0.2673(3) 0.9573(6)
H5_13 H 0.9976 0.2796 0.9887
C10_13 C 0.9736(4) 0.2231(3) 0.9520(4)
H6_13 H 0.9668 0.2064 0.9806
C11_13 C 0.9643(2) 0.2034(2) 0.9084(3)
C12_13 C 0.9771(4) 0.2278(3) 0.8682(4)
H7_13 H 0.9728 0.2149 0.8372
C13_13 C 0.9966(5) 0.2713(3) 0.8714(6)
C26_13 C 0.9641(3) 0.1286(3) 0.9412(5)
C27_13 C 0.9636(3) 0.1324(3) 0.9901(5)
C31_13 C 0.9858(3) 0.1113(3) 0.9207(6)
H23_13 H 0.9854 0.1076 0.8865
C32_13 C 0.8872(2) 0.1271(2) 0.9310(3)
C33_13 C 0.8717(3) 0.1518(4) 0.9455(5)
H24_13 H 0.8881 0.1815 0.9414
C34_13 C 0.8309(4) 0.1339(5) 0.9668(6)
H25_13 H 0.8207 0.1516 0.9783
C35_13 C 0.8067(3) 0.0912(5) 0.9706(6)
H26_13 H 0.7780 0.0786 0.9803
C36_13 C 0.8242(4) 0.0665(4) 0.9603(8)
H27_13 H 0.8095 0.0373 0.9682
C37_13 C 0.8638(4) 0.0846(3) 0.9382(8)
H28_13 H 0.8747 0.0671 0.9280
C46_13 C 0.9586(3) 0.3380(2) 0.9165(5)
C47_13 C 0.9339(3) 0.3263(4) 0.8761(6)
H33_13 H 0.9462 0.3310 0.8447
C48_13 C 0.8897(3) 0.3070(4) 0.8814(4)
H34_13 H 0.8730 0.3002 0.8528
C49_13 C 0.8700(2) 0.2977(2) 0.9250(3)
C50_13 C 0.8944(3) 0.3105(4) 0.9652(4)
H35_13 H 0.8815 0.3062 0.9962
C51_13 C 0.9379(3) 0.3300(5) 0.9620(6)
H36_13 H 0.9542 0.3380 0.9909
C55_13 C 0.9665(3) 0.5680(3) 0.9056(4)
H39_13 H 0.9428 0.5719 0.9024
C56_13 C 0.9609(3) 0.5280(3) 0.9072(4)
H40_13 H 0.9332 0.5043 0.9056
C57_13 C 0.9945(2) 0.5221(2) 0.9110(3)
H41_13 H 0.9900 0.4942 0.9118
C64_13 C 0.7952(3) 0.2975(3) 0.8922(5)
C65_13 C 0.7990(3) 0.2970(3) 0.8433(5)
H47_13 H 0.8099 0.2811 0.8284
C66_13 C 0.7866(4) 0.3206(4) 0.8154(6)
H48_13 H 0.7901 0.3212 0.7811
C67_13 C 0.7704(4) 0.3418(3) 0.8339(7)
H49_13 H 0.7619 0.3570 0.8132
C68_13 C 0.7655(5) 0.3425(4) 0.8819(8)
H50_13 H 0.7538 0.3583 0.8955
C69_13 C 0.7779(3) 0.3192(3) 0.9127(6)
H51_13 H 0.7742 0.3188 0.9469
C70_13 C 0.7937(2) 0.2206(2) 0.9024(3)
C71_13 C 0.8184(4) 0.2051(3) 0.8879(5)
H52_13 H 0.8481 0.2215 0.8920
C72_13 C 0.8005(5) 0.1643(4) 0.8666(6)
H53_13 H 0.8182 0.1541 0.8551
C73_13 C 0.7578(5) 0.1401(3) 0.8628(6)
H54_13 H 0.7452 0.1114 0.8531
C74_13 C 0.7331(4) 0.1576(4) 0.8731(8)
H55_13 H 0.7039 0.1429 0.8652
C75_13 C 0.7512(3) 0.1972(4) 0.8952(8)
H56_13 H 0.7337 0.2081 0.9054
H19_14 H 0.8567 0.8045 0.0050
C28_14 C 0.8800(4) 0.8673(6) 0.0180(6)
H20_14 H 0.8765 0.8644 0.0523
H21_14 H 0.9047 0.9284 0.0202
C60_14 C 0.4145(4) 0.5693(6) 0.0396(5)
H43_14 H 0.4098 0.5917 0.0482
C61_14 C 0.4100(3) 0.5412(5) 0.0744(4)
H44_14 H 0.4034 0.5448 0.1067
C62_14 C 0.4152(3) 0.5076(5) 0.0630(4)
H45_14 H 0.4110 0.4871 0.0869
C63_14 C 0.4269(3) 0.5038(4) 0.0148(3)
H46_14 H 0.4311 0.4809 0.0068
P1_14 P 0.58459(6) 0.80230(8) 0.91505(8)
C1_14 C 0.6608(3) 0.6867(4) 0.9228(10)
C2_14 C 0.6394(2) 0.7126(3) 0.9168(5)
C3_14 C 0.6259(4) 0.7233(5) 0.9594(6)
H1_14 H 0.6281 0.7119 0.9895
C4_14 C 0.6096(3) 0.7500(4) 0.9589(4)
H2_14 H 0.6013 0.7572 0.9884
C5_14 C 0.6050(2) 0.7664(3) 0.9142(3)
C6_14 C 0.6164(3) 0.7544(4) 0.8729(4)
H3_14 H 0.6127 0.7639 0.8421
C7_14 C 0.6340(3) 0.7275(4) 0.8758(5)
H4_14 H 0.6421 0.7198 0.8465
C8_14 C 0.7080(3) 0.7127(4) 0.9169(5)
C9_14 C 0.7327(3) 0.7257(5) 0.9573(6)
H5_14 H 0.7204 0.7181 0.9887
C10_14 C 0.7769(3) 0.7506(5) 0.9520(4)
H6_14 H 0.7936 0.7605 0.9806
C11_14 C 0.7966(2) 0.7610(3) 0.9084(3)
C12_14 C 0.7722(3) 0.7494(5) 0.8682(4)
H7_14 H 0.7851 0.7580 0.8372
C13_14 C 0.7287(3) 0.7254(6) 0.8714(6)
H8_14 H 0.7124 0.7171 0.8425
C14_14 C 0.6308(3) 0.8537(4) 0.9195(3)
C15_14 C 0.6259(3) 0.8892(4) 0.9196(5)
H9_14 H 0.5986 0.8860 0.9160
C16_14 C 0.6610(4) 0.9293(6) 0.9249(5)
H10_14 H 0.6573 0.9532 0.9266
C17_14 C 0.7001(3) 0.9348(4) 0.9278(4)
H11_14 H 0.7238 0.9624 0.9310
C18_14 C 0.7057(3) 0.9004(4) 0.9262(4)
H12_14 H 0.7334 0.9044 0.9278
C19_14 C 0.6721(2) 0.8609(3) 0.9224(3)
H13_14 H 0.6766 0.8375 0.9216
C20_14 C 0.5663(2) 0.8007(3) 0.8537(3)
C21_14 C 0.5258(3) 0.7667(4) 0.8427(4)
H14_14 H 0.5088 0.7468 0.8666
C22_14 C 0.5119(4) 0.7641(6) 0.7938(5)
H15_14 H 0.4848 0.7417 0.7852
C23_14 C 0.5355(4) 0.7922(5) 0.7590(4)
H16_14 H 0.5253 0.7886 0.7267
C24_14 C 0.5743(4) 0.8258(5) 0.7704(4)
H17_14 H 0.5906 0.8463 0.7465
C25_14 C 0.5898(3) 0.8296(4) 0.8186(3)
H18_14 H 0.6169 0.8525 0.8266
C26_14 C 0.8714(3) 0.8356(4) 0.9412(5)
C27_14 C 0.8676(3) 0.8313(4) 0.9901(5)
C29_14 C 0.8962(4) 0.9047(5) 0.9995(7)
C30_14 C 0.9011(5) 0.9103(6) 0.9515(8)
H22_14 H 0.9128 0.9378 0.9379
C31_14 C 0.8887(3) 0.8746(4) 0.9207(6)
H23_14 H 0.8924 0.8779 0.8865
C32_14 C 0.8729(2) 0.7602(3) 0.9310(3)
C33_14 C 0.8482(4) 0.7200(5) 0.9455(5)
H24_14 H 0.8185 0.7067 0.9414
C34_14 C 0.8661(5) 0.6971(6) 0.9668(6)
H25_14 H 0.8484 0.6692 0.9783
C35_14 C 0.9088(5) 0.7156(6) 0.9706(6)
H26_14 H 0.9214 0.6995 0.9803
C36_14 C 0.9335(4) 0.7578(6) 0.9603(8)
H27_14 H 0.9627 0.7723 0.9682
C37_14 C 0.9154(3) 0.7793(5) 0.9382(8)
H28_14 H 0.9329 0.8077 0.9280
C38_18 C 0.4768(3) 0.8102(3) 0.9167
O1_14 O 0.4704(2) 0.7790(3) 0.9435(3)
O2_18 O 0.5101(3) 0.8435(3) 0.9167
C39_14 C 0.6408(3) 0.6467(4) 0.9106(10)
C40_14 C 0.5935(2) 0.6208(3) 0.9166(5)
C41_14 C 0.5693(3) 0.6101(5) 0.8740(6)
H29_14 H 0.5829 0.6215 0.8439
C42_14 C 0.5263(3) 0.5834(4) 0.8745(4)
H30_14 H 0.5108 0.5762 0.8450
C43_14 C 0.5053(2) 0.5670(3) 0.9192(3)
C44_14 C 0.5287(2) 0.5790(4) 0.9605(4)
H31_14 H 0.5155 0.5695 0.9913
C45_14 C 0.5732(3) 0.6059(4) 0.9576(5)
H32_14 H 0.5890 0.6136 0.9869
C46_14 C 0.6620(2) 0.6207(4) 0.9165(5)
C47_14 C 0.6737(4) 0.6077(5) 0.8761(6)
H33_14 H 0.6690 0.6153 0.8447
C48_14 C 0.6930(4) 0.5828(5) 0.8814(4)
H34_14 H 0.6998 0.5729 0.8528
C49_14 C 0.7023(2) 0.5724(3) 0.9250(3)
C50_14 C 0.6895(4) 0.5840(5) 0.9652(4)
H35_14 H 0.6938 0.5754 0.9962
C51_14 C 0.6700(5) 0.6080(6) 0.9620(6)
H36_14 H 0.6620 0.6163 0.9909
C52_14 C 0.4438(2) 0.4797(4) 0.9139(3)
C53_14 C 0.4034(3) 0.4442(4) 0.9138(5)
H37_14 H 0.3793 0.4474 0.9174
C54_14 C 0.3984(4) 0.4041(6) 0.9085(5)
H38_14 H 0.3708 0.3802 0.9068
C55_14 C 0.4320(3) 0.3986(4) 0.9056(4)
H39_14 H 0.4281 0.3710 0.9024
C56_14 C 0.4720(3) 0.4330(4) 0.9072(4)
H40_14 H 0.4957 0.4290 0.9056
C57_14 C 0.4779(2) 0.4725(3) 0.9110(3)
H41_14 H 0.5058 0.4959 0.9118
C58_14 C 0.4323(2) 0.5327(3) 0.9797(3)
C59_14 C 0.4258(3) 0.5667(4) 0.9907(4)
H42_14 H 0.4287 0.5866 0.9668
C64_14 C 0.7025(3) 0.4978(4) 0.8922(5)
C65_14 C 0.7030(3) 0.5021(4) 0.8433(5)
H47_14 H 0.7189 0.5289 0.8284
C66_14 C 0.6794(4) 0.4661(6) 0.8154(6)
H48_14 H 0.6788 0.4690 0.7811
C67_14 C 0.6582(3) 0.4287(5) 0.8339(7)
H49_14 H 0.6430 0.4050 0.8132
C68_14 C 0.6575(4) 0.4231(6) 0.8819(8)
H50_14 H 0.6417 0.3956 0.8955
C69_14 C 0.6808(3) 0.4588(4) 0.9127(6)
H51_14 H 0.6812 0.4555 0.9469
C70_14 C 0.7794(2) 0.5732(3) 0.9024(3)
C71_14 C 0.7949(3) 0.6134(5) 0.8879(5)
H52_14 H 0.7785 0.6267 0.8920
C72_14 C 0.8357(4) 0.6363(6) 0.8666(6)
H53_14 H 0.8459 0.6642 0.8551
C73_14 C 0.8599(3) 0.6178(6) 0.8628(6)
H54_14 H 0.8886 0.6339 0.8531
C74_14 C 0.8424(4) 0.5756(6) 0.8731(8)
H55_14 H 0.8571 0.5611 0.8652
C75_14 C 0.8028(4) 0.5541(5) 0.8952(8)
H56_14 H 0.7919 0.5257 0.9054
O3_14 O 0.4456(3) 0.8038(4) 0.8899(3)
P5_10 P 0.46896(8) 0.91793(9) 0.91829(8)
H19_15 H 0.1955 0.0523 0.0050
C28_15 C 0.1327(6) 0.0128(4) 0.0180(6)
H20_15 H 0.1356 0.0122 0.0523
C9_15 C 0.2743(5) 0.0071(4) 0.9573(6)
H5_15 H 0.2819 0.0024 0.9887
C10_15 C 0.2494(5) 0.0264(4) 0.9520(4)
H6_15 H 0.2395 0.0332 0.9806
C11_15 C 0.2390(3) 0.0357(2) 0.9084(3)
C12_15 C 0.2506(5) 0.0229(4) 0.8682(4)
H7_15 H 0.2420 0.0272 0.8372
C13_15 C 0.2746(6) 0.0034(5) 0.8714(6)
C26_15 C 0.1644(4) 0.0359(3) 0.9412(5)
C27_15 C 0.1687(4) 0.0364(3) 0.9901(5)
C31_15 C 0.1254(4) 0.0142(3) 0.9207(6)
H23_15 H 0.1221 0.0146 0.8865
C32_15 C 0.2398(3) 0.1128(2) 0.9310(3)
C33_15 C 0.2800(5) 0.1283(3) 0.9455(5)
H24_15 H 0.2933 0.1119 0.9414
C34_15 C 0.3029(6) 0.1691(4) 0.9668(6)
H25_15 H 0.3308 0.1793 0.9783
C35_15 C 0.2844(6) 0.1933(3) 0.9706(6)
H26_15 H 0.3005 0.2220 0.9803
C36_15 C 0.2422(6) 0.1758(4) 0.9603(8)
H27_15 H 0.2277 0.1905 0.9682
C37_15 C 0.2207(5) 0.1362(4) 0.9382(8)
H28_15 H 0.1923 0.1253 0.9280
C46_15 C 0.3793(4) 0.0414(3) 0.9165(5)
C47_15 C 0.3923(5) 0.0661(3) 0.8761(6)
H33_15 H 0.3847 0.0538 0.8447
C48_15 C 0.4172(5) 0.1103(3) 0.8814(4)
H34_15 H 0.4271 0.1270 0.8528
C49_15 C 0.4276(3) 0.1300(2) 0.9250(3)
C50_15 C 0.4160(5) 0.1056(3) 0.9652(4)
H35_15 H 0.4246 0.1185 0.9962
C51_15 C 0.3920(6) 0.0621(3) 0.9620(6)
H36_15 H 0.3837 0.0458 0.9909
C55_15 C 0.6014(4) 0.0335(3) 0.9056(4)
H39_15 H 0.6290 0.0572 0.9024
C56_15 C 0.5670(4) 0.0391(3) 0.9072(4)
H40_15 H 0.5710 0.0668 0.9056
C57_15 C 0.5275(3) 0.0055(2) 0.9110(3)
H41_15 H 0.5041 0.0100 0.9118
C64_15 C 0.5022(4) 0.2048(3) 0.8922(5)
C65_15 C 0.4979(4) 0.2010(3) 0.8433(5)
H47_15 H 0.4711 0.1901 0.8284
C66_15 C 0.5339(6) 0.2134(4) 0.8154(6)
H48_15 H 0.5310 0.2099 0.7811
C67_15 C 0.5713(5) 0.2296(4) 0.8339(7)
H49_15 H 0.5950 0.2381 0.8132
C68_15 C 0.5769(6) 0.2345(5) 0.8819(8)
H50_15 H 0.6044 0.2462 0.8955
C69_15 C 0.5412(4) 0.2221(3) 0.9127(6)
H51_15 H 0.5445 0.2258 0.9469
C70_15 C 0.4268(3) 0.2063(2) 0.9024(3)
C71_15 C 0.3866(5) 0.1816(4) 0.8879(5)
H52_15 H 0.3733 0.1519 0.8920
C72_15 C 0.3637(6) 0.1995(5) 0.8666(6)
H53_15 H 0.3358 0.1818 0.8551
C73_15 C 0.3822(6) 0.2422(5) 0.8628(6)
H54_15 H 0.3661 0.2548 0.8531
C74_15 C 0.4244(6) 0.2669(4) 0.8731(8)
H55_15 H 0.4389 0.2961 0.8652
C75_15 C 0.4459(5) 0.2488(3) 0.8952(8)
H56_15 H 0.4743 0.2663 0.9054
H21_15 H 0.0716 0.9764 0.0202
C60_15 C 0.4307(6) 0.8453(4) 0.0396(5)
H43_15 H 0.4083 0.8182 0.0482
C61_15 C 0.4588(5) 0.8689(4) 0.0744(4)
H44_15 H 0.4552 0.8587 0.1067
C62_15 C 0.4924(5) 0.9077(4) 0.0630(4)
H45_15 H 0.5129 0.9240 0.0869
C63_15 C 0.4962(4) 0.9232(3) 0.0148(3)
H46_15 H 0.5191 0.9503 0.0068
P1_15 P 0.19770(8) 0.78230(5) 0.91505(8)
C1_15 C 0.3133(4) 0.9742(3) 0.9228(10)
C2_15 C 0.2874(3) 0.9269(2) 0.9168(5)
C3_15 C 0.2767(5) 0.9027(3) 0.9594(6)
H1_15 H 0.2881 0.9163 0.9895
C4_15 C 0.2500(4) 0.8597(3) 0.9589(4)
H2_15 H 0.2428 0.8442 0.9884
C5_15 C 0.2336(3) 0.8387(2) 0.9142(3)
C6_15 C 0.2456(4) 0.8621(2) 0.8729(4)
H3_15 H 0.2361 0.8489 0.8421
C7_15 C 0.2725(4) 0.9066(3) 0.8758(5)
H4_15 H 0.2802 0.9224 0.8465
C8_15 C 0.2873(4) 0.9954(2) 0.9169(5)
H8_15 H 0.2829 0.9954 0.8425
C14_15 C 0.1463(4) 0.7772(2) 0.9195(3)
C15_15 C 0.1108(4) 0.7368(3) 0.9196(5)
H9_15 H 0.1140 0.7127 0.9160
C16_15 C 0.0707(6) 0.7318(4) 0.9249(5)
H10_15 H 0.0468 0.7042 0.9266
C17_15 C 0.0652(4) 0.7654(3) 0.9278(4)
H11_15 H 0.0376 0.7615 0.9310
C18_15 C 0.0996(4) 0.8054(3) 0.9262(4)
H12_15 H 0.0956 0.8291 0.9278
C19_15 C 0.1391(3) 0.8113(2) 0.9224(3)
H13_15 H 0.1625 0.8392 0.9216
C20_15 C 0.1993(3) 0.7657(2) 0.8537(3)
C21_15 C 0.2333(4) 0.7592(3) 0.8427(4)
H14_15 H 0.2532 0.7621 0.8666
C22_15 C 0.2359(6) 0.7479(4) 0.7938(5)
H15_15 H 0.2583 0.7432 0.7852
C23_15 C 0.2078(5) 0.7434(3) 0.7590(4)
H16_15 H 0.2114 0.7368 0.7267
C24_15 C 0.1742(5) 0.7486(3) 0.7704(4)
H17_15 H 0.1537 0.7444 0.7465
C25_15 C 0.1704(4) 0.7603(3) 0.8186(3)
H18_15 H 0.1475 0.7645 0.8266
C29_15 C 0.0953(5) 0.9916(3) 0.9995(7)
C30_15 C 0.0897(6) 0.9909(4) 0.9515(8)
H22_15 H 0.0622 0.9751 0.9379
C38_19 C 0.1898(3) 0.6667 0.9167
O1_15 O 0.2210(3) 0.6915(2) 0.9435(3)
O2_19 O 0.1565(3) 0.6667 0.9167
C39_15 C 0.3533(4) 0.9942(3) 0.9106(10)
C40_15 C 0.3792(3) 0.9728(2) 0.9166(5)
C41_15 C 0.3899(5) 0.9593(4) 0.8740(6)
H29_15 H 0.3785 0.9615 0.8439
C42_15 C 0.4166(4) 0.9430(3) 0.8745(4)
H30_15 H 0.4238 0.9347 0.8450
C43_15 C 0.4330(3) 0.9384(2) 0.9192(3)
C44_15 C 0.4210(4) 0.9498(3) 0.9605(4)
H31_15 H 0.4305 0.9461 0.9913
C45_15 C 0.3941(4) 0.9674(3) 0.9576(5)
H32_15 H 0.3864 0.9755 0.9869
C52_15 C 0.5203(4) 0.9642(3) 0.9139(3)
C53_15 C 0.5558(4) 0.9593(3) 0.9138(5)
H37_15 H 0.5526 0.9320 0.9174
C54_15 C 0.5959(6) 0.9944(4) 0.9085(5)
H38_15 H 0.6198 0.9907 0.9068
C58_15 C 0.4673(3) 0.8997(2) 0.9797(3)
C59_15 C 0.4333(4) 0.8592(3) 0.9907(4)
H42_15 H 0.4134 0.8422 0.9668
O3_15 O 0.1962(4) 0.6419(2) 0.8899(3)
P1_16 P 0.55104(5) 0.08207(6) 0.58171(8)
C1_16 C 0.3592(3) 0.0058(3) 0.5894(10)
C2_16 C 0.4065(2) 0.0272(2) 0.5834(5)
C3_16 C 0.4307(3) 0.0407(4) 0.6260(6)
H1_16 H 0.4171 0.0385 0.6561
C4_16 C 0.4737(3) 0.0570(3) 0.6255(4)
H2_16 H 0.4892 0.0653 0.6550
C5_16 C 0.4947(2) 0.0616(2) 0.5808(3)
C6_16 C 0.4713(2) 0.0502(3) 0.5395(4)
H3_16 H 0.4845 0.0539 0.5087
C7_16 C 0.4268(3) 0.0326(3) 0.5424(5)
H4_16 H 0.4110 0.0245 0.5131
C14_16 C 0.5562(2) 0.0358(3) 0.5861(3)
C15_16 C 0.5966(3) 0.0407(3) 0.5862(5)
H9_16 H 0.6207 0.0680 0.5826
C16_16 C 0.6016(4) 0.0056(4) 0.5915(5)
H10_16 H 0.6292 0.0093 0.5932
C20_16 C 0.5677(2) 0.1003(2) 0.5203(3)
C21_16 C 0.5742(3) 0.1408(3) 0.5093(4)
H14_16 H 0.5713 0.1578 0.5332
C22_16 C 0.5855(4) 0.1547(4) 0.4604(5)
H15_16 H 0.5902 0.1818 0.4518
C23_16 C 0.5900(3) 0.1311(4) 0.4256(4)
H16_16 H 0.5966 0.1413 0.3933
C24_16 C 0.5848(3) 0.0923(4) 0.4370(4)
H17_16 H 0.5890 0.0760 0.4131
C25_16 C 0.5731(3) 0.0768(3) 0.4852(3)
H18_16 H 0.5689 0.0497 0.4932
C38_20 C 0.6667 0.1898(3) 0.5833
O1_16 O 0.6419(2) 0.1962(2) 0.6101(3)
O2_20 O 0.6667 0.1565(3) 0.5833
P3_6 P 0.41541(6) 0.21770(5) 0.58495(8)
C39_16 C 0.3392(3) 0.0258(3) 0.5772(10)
C40_16 C 0.3606(2) 0.0731(2) 0.5832(5)
C41_16 C 0.3741(4) 0.0973(3) 0.5406(6)
H29_16 H 0.3719 0.0837 0.5105
C42_16 C 0.3904(3) 0.1403(3) 0.5411(4)
H30_16 H 0.3987 0.1558 0.5116
C43_16 C 0.3950(2) 0.1613(2) 0.5858(3)
C44_16 C 0.3836(3) 0.1379(2) 0.6271(4)
H31_16 H 0.3873 0.1511 0.6579
C45_16 C 0.3660(3) 0.0934(3) 0.6242(5)
H32_16 H 0.3579 0.0776 0.6535
C46_16 C 0.2920(3) 0.0046(2) 0.5831(5)
H36_16 H 0.2876 0.0046 0.6575
C52_16 C 0.3692(3) 0.2228(2) 0.5805(3)
C53_16 C 0.3741(3) 0.2632(3) 0.5804(5)
H37_16 H 0.4014 0.2873 0.5840
C54_16 C 0.3390(4) 0.2682(4) 0.5751(5)
H38_16 H 0.3427 0.2958 0.5734
C55_16 C 0.2999(3) 0.2346(3) 0.5722(4)
H39_16 H 0.2762 0.2385 0.5690
C56_16 C 0.2943(3) 0.1946(3) 0.5738(4)
H40_16 H 0.2666 0.1709 0.5722
C57_16 C 0.3279(2) 0.1887(2) 0.5776(3)
H41_16 H 0.3234 0.1608 0.5784
C58_16 C 0.4337(2) 0.2343(2) 0.6463(3)
C59_16 C 0.4742(3) 0.2408(3) 0.6573(4)
H42_16 H 0.4912 0.2379 0.6334
C60_16 C 0.4881(4) 0.2521(4) 0.7062(5)
H43_16 H 0.5152 0.2568 0.7148
C61_16 C 0.4645(4) 0.2566(3) 0.7410(4)
H44_16 H 0.4747 0.2632 0.7733
C62_16 C 0.4257(4) 0.2514(3) 0.7296(4)
H45_16 H 0.4094 0.2556 0.7535
C63_16 C 0.4102(3) 0.2397(3) 0.6814(3)
H46_16 H 0.3831 0.2355 0.6734
C67_16 C 0.1038(4) 0.0084(3) 0.5005(7)
H49_16 H 0.0953 0.0236 0.4798
C68_16 C 0.0989(5) 0.0091(4) 0.5485(8)
H50_16 H 0.0872 0.0249 0.5621
O3_16 O 0.6915(2) 0.2210(3) 0.5565(3)
P5_11 P 0.78230(5) 0.19770(8) 0.58495(8)
C8_16 C 0.3380(2) 0.9586(3) 0.5835(5)
C9_16 C 0.3263(4) 0.9339(3) 0.6239(6)
H5_16 H 0.3310 0.9462 0.6553
C10_16 C 0.3070(4) 0.8897(3) 0.6186(4)
H6_16 H 0.3002 0.8730 0.6472
C11_16 C 0.2977(2) 0.8700(2) 0.5750(3)
C12_16 C 0.3105(4) 0.8944(3) 0.5348(4)
H7_16 H 0.3062 0.8815 0.5038
C13_16 C 0.3300(5) 0.9379(3) 0.5380(6)
H8_16 H 0.3380 0.9542 0.5091
C17_16 C 0.5680(3) 0.9665(3) 0.5944(4)
H11_16 H 0.5719 0.9428 0.5976
C18_16 C 0.5280(3) 0.9609(3) 0.5928(4)
H12_16 H 0.5043 0.9332 0.5944
C19_16 C 0.5221(2) 0.9945(2) 0.5890(3)
H13_16 H 0.4942 0.9900 0.5882
C26_16 C 0.2975(3) 0.7952(3) 0.6078(5)
C27_16 C 0.2970(3) 0.7990(3) 0.6567(5)
H19_16 H 0.2811 0.8099 0.6716
C28_16 C 0.3206(4) 0.7866(4) 0.6846(6)
H20_16 H 0.3212 0.7901 0.7189
C29_16 C 0.3418(3) 0.7704(4) 0.6661(7)
H21_16 H 0.3570 0.7619 0.6868
C30_16 C 0.3425(4) 0.7655(5) 0.6181(8)
H22_16 H 0.3583 0.7538 0.6045
C31_16 C 0.3192(3) 0.7779(3) 0.5873(6)
H23_16 H 0.3188 0.7742 0.5531
C32_16 C 0.2206(2) 0.7937(2) 0.5976(3)
C33_16 C 0.2051(3) 0.8184(4) 0.6121(5)
H24_16 H 0.2215 0.8481 0.6080
C34_16 C 0.1643(4) 0.8005(5) 0.6334(6)
H25_16 H 0.1541 0.8182 0.6449
C35_16 C 0.1401(3) 0.7578(5) 0.6372(6)
H26_16 H 0.1114 0.7452 0.6469
C36_16 C 0.1576(4) 0.7331(4) 0.6269(8)
H27_16 H 0.1429 0.7039 0.6348
C37_16 C 0.1972(4) 0.7512(3) 0.6048(8)
H28_16 H 0.2081 0.7337 0.5946
C47_16 C 0.2673(3) 0.9929(4) 0.5427(6)
H33_16 H 0.2796 0.9976 0.5113
C48_16 C 0.2231(3) 0.9736(4) 0.5480(4)
H34_16 H 0.2064 0.9668 0.5194
C49_16 C 0.2034(2) 0.9643(2) 0.5916(3)
C50_16 C 0.2278(3) 0.9771(4) 0.6318(4)
H35_16 H 0.2149 0.9728 0.6628
C51_16 C 0.2713(3) 0.9966(5) 0.6286(6)
C64_16 C 0.1286(3) 0.9641(3) 0.5588(5)
C65_16 C 0.1324(3) 0.9636(3) 0.5099(5)
H47_16 H 0.1433 0.9477 0.4950
C66_16 C 0.1200(4) 0.9872(4) 0.4820(6)
H48_16 H 0.1235 0.9878 0.4477
C69_16 C 0.1113(3) 0.9858(3) 0.5793(6)
H51_16 H 0.1076 0.9854 0.6135
C70_16 C 0.1271(2) 0.8872(2) 0.5690(3)
C71_16 C 0.1518(4) 0.8717(3) 0.5545(5)
H52_16 H 0.1815 0.8881 0.5586
C72_16 C 0.1339(5) 0.8309(4) 0.5332(6)
H53_16 H 0.1516 0.8207 0.5217
C73_16 C 0.0912(5) 0.8067(3) 0.5294(6)
H54_16 H 0.0786 0.7780 0.5197
C74_16 C 0.0665(4) 0.8242(4) 0.5397(8)
H55_16 H 0.0373 0.8095 0.5318
C75_16 C 0.0846(3) 0.8638(4) 0.5618(8)
H56_16 H 0.0671 0.8747 0.5720
C8_17 C 0.0414(3) 0.3793(4) 0.5835(5)
C9_17 C 0.0661(3) 0.3923(5) 0.6239(6)
H5_17 H 0.0538 0.3847 0.6553
C10_17 C 0.1103(3) 0.4172(5) 0.6186(4)
H6_17 H 0.1270 0.4271 0.6472
C11_17 C 0.1300(2) 0.4276(3) 0.5750(3)
C12_17 C 0.1056(3) 0.4160(5) 0.5348(4)
H7_17 H 0.1185 0.4246 0.5038
C13_17 C 0.0621(3) 0.3920(6) 0.5380(6)
H8_17 H 0.0458 0.3837 0.5091
C17_17 C 0.0335(3) 0.6014(4) 0.5944(4)
H11_17 H 0.0572 0.6290 0.5976
C18_17 C 0.0391(3) 0.5670(4) 0.5928(4)
H12_17 H 0.0668 0.5710 0.5944
C19_17 C 0.0055(2) 0.5275(3) 0.5890(3)
H13_17 H 0.0100 0.5041 0.5882
C26_17 C 0.2048(3) 0.5022(4) 0.6078(5)
C27_17 C 0.2010(3) 0.4979(4) 0.6567(5)
H19_17 H 0.1901 0.4711 0.6716
C28_17 C 0.2134(4) 0.5339(6) 0.6846(6)
H20_17 H 0.2099 0.5310 0.7189
C29_17 C 0.2296(4) 0.5713(5) 0.6661(7)
H21_17 H 0.2381 0.5950 0.6868
C30_17 C 0.2345(5) 0.5769(6) 0.6181(8)
H22_17 H 0.2462 0.6044 0.6045
C31_17 C 0.2221(3) 0.5412(4) 0.5873(6)
H23_17 H 0.2258 0.5445 0.5531
C32_17 C 0.2063(2) 0.4268(3) 0.5976(3)
C33_17 C 0.1816(4) 0.3866(5) 0.6121(5)
H24_17 H 0.1519 0.3733 0.6080
C34_17 C 0.1995(5) 0.3637(6) 0.6334(6)
H25_17 H 0.1818 0.3358 0.6449
C35_17 C 0.2422(5) 0.3822(6) 0.6372(6)
H26_17 H 0.2548 0.3661 0.6469
C36_17 C 0.2669(4) 0.4244(6) 0.6269(8)
H27_17 H 0.2961 0.4389 0.6348
C37_17 C 0.2488(3) 0.4459(5) 0.6048(8)
H28_17 H 0.2663 0.4743 0.5946
C47_17 C 0.0071(4) 0.2743(5) 0.5427(6)
H33_17 H 0.0024 0.2819 0.5113
C48_17 C 0.0264(4) 0.2494(5) 0.5480(4)
H34_17 H 0.0332 0.2395 0.5194
C49_17 C 0.0357(2) 0.2390(3) 0.5916(3)
C50_17 C 0.0229(4) 0.2506(5) 0.6318(4)
H35_17 H 0.0272 0.2420 0.6628
C51_17 C 0.0034(5) 0.2746(6) 0.6286(6)
C64_17 C 0.0359(3) 0.1644(4) 0.5588(5)
C65_17 C 0.0364(3) 0.1687(4) 0.5099(5)
H47_17 H 0.0523 0.1955 0.4950
C66_17 C 0.0128(4) 0.1327(6) 0.4820(6)
H48_17 H 0.0122 0.1356 0.4477
C69_17 C 0.0142(3) 0.1254(4) 0.5793(6)
H51_17 H 0.0146 0.1221 0.6135
C70_17 C 0.1128(2) 0.2398(3) 0.5690(3)
C71_17 C 0.1283(3) 0.2800(5) 0.5545(5)
H52_17 H 0.1119 0.2933 0.5586
C72_17 C 0.1691(4) 0.3029(6) 0.5332(6)
H53_17 H 0.1793 0.3308 0.5217
C73_17 C 0.1933(3) 0.2844(6) 0.5294(6)
H54_17 H 0.2220 0.3005 0.5197
C74_17 C 0.1758(4) 0.2422(6) 0.5397(8)
H55_17 H 0.1905 0.2277 0.5318
C75_17 C 0.1362(4) 0.2207(5) 0.5618(8)
H56_17 H 0.1253 0.1923 0.5720
P1_17 P 0.91793(6) 0.46896(8) 0.58171(8)
C1_17 C 0.9942(3) 0.3533(4) 0.5894(10)
C2_17 C 0.9728(2) 0.3792(3) 0.5834(5)
C3_17 C 0.9593(4) 0.3899(5) 0.6260(6)
H1_17 H 0.9615 0.3785 0.6561
C4_17 C 0.9430(3) 0.4166(4) 0.6255(4)
H2_17 H 0.9347 0.4238 0.6550
C5_17 C 0.9384(2) 0.4330(3) 0.5808(3)
C6_17 C 0.9498(3) 0.4210(4) 0.5395(4)
H3_17 H 0.9461 0.4305 0.5087
C7_17 C 0.9674(3) 0.3941(4) 0.5424(5)
H4_17 H 0.9755 0.3864 0.5131
C14_17 C 0.9642(3) 0.5203(4) 0.5861(3)
C15_17 C 0.9593(3) 0.5558(4) 0.5862(5)
H9_17 H 0.9320 0.5526 0.5826
C16_17 C 0.9944(4) 0.5959(6) 0.5915(5)
H10_17 H 0.9907 0.6198 0.5932
C20_17 C 0.8997(2) 0.4673(3) 0.5203(3)
C21_17 C 0.8592(3) 0.4333(4) 0.5093(4)
H14_17 H 0.8422 0.4134 0.5332
C22_17 C 0.8453(4) 0.4307(6) 0.4604(5)
H15_17 H 0.8182 0.4083 0.4518
C23_17 C 0.8689(4) 0.4588(5) 0.4256(4)
H16_17 H 0.8587 0.4552 0.3933
C24_17 C 0.9077(4) 0.4924(5) 0.4370(4)
H17_17 H 0.9240 0.5129 0.4131
C25_17 C 0.9232(3) 0.4962(4) 0.4852(3)
H18_17 H 0.9503 0.5191 0.4932
C38_21 C 0.8102(3) 0.4768(3) 0.5833
O1_17 O 0.8038(2) 0.4456(3) 0.6101(3)
O2_21 O 0.8435(3) 0.5101(3) 0.5833
C39_17 C 0.9742(3) 0.3133(4) 0.5772(10)
C40_17 C 0.9269(2) 0.2874(3) 0.5832(5)
C41_17 C 0.9027(3) 0.2767(5) 0.5406(6)
H29_17 H 0.9163 0.2881 0.5105
C42_17 C 0.8597(3) 0.2500(4) 0.5411(4)
H30_17 H 0.8442 0.2428 0.5116
C43_17 C 0.8387(2) 0.2336(3) 0.5858(3)
C44_17 C 0.8621(2) 0.2456(4) 0.6271(4)
H31_17 H 0.8489 0.2361 0.6579
C45_17 C 0.9066(3) 0.2725(4) 0.6242(5)
H32_17 H 0.9224 0.2802 0.6535
C46_17 C 0.9954(2) 0.2873(4) 0.5831(5)
H36_17 H 0.9954 0.2829 0.6575
C52_17 C 0.7772(2) 0.1463(4) 0.5805(3)
C53_17 C 0.7368(3) 0.1108(4) 0.5804(5)
H37_17 H 0.7127 0.1140 0.5840
C54_17 C 0.7318(4) 0.0707(6) 0.5751(5)
H38_17 H 0.7042 0.0468 0.5734
C55_17 C 0.7654(3) 0.0652(4) 0.5722(4)
H39_17 H 0.7615 0.0376 0.5690
C56_17 C 0.8054(3) 0.0996(4) 0.5738(4)
H40_17 H 0.8291 0.0956 0.5722
C57_17 C 0.8113(2) 0.1391(3) 0.5776(3)
H41_17 H 0.8392 0.1625 0.5784
C58_17 C 0.7657(2) 0.1993(3) 0.6463(3)
C59_17 C 0.7592(3) 0.2333(4) 0.6573(4)
H42_17 H 0.7621 0.2532 0.6334
C60_17 C 0.7479(4) 0.2359(6) 0.7062(5)
H43_17 H 0.7432 0.2583 0.7148
C61_17 C 0.7434(3) 0.2078(5) 0.7410(4)
H44_17 H 0.7368 0.2114 0.7733
C62_17 C 0.7486(3) 0.1742(5) 0.7296(4)
H45_17 H 0.7444 0.1537 0.7535
C63_17 C 0.7603(3) 0.1704(4) 0.6814(3)
H46_17 H 0.7645 0.1475 0.6734
C67_17 C 0.9916(3) 0.0953(5) 0.5005(7)
H49_17 H 0.9764 0.0716 0.4798
C68_17 C 0.9909(4) 0.0897(6) 0.5485(8)
H50_17 H 0.9751 0.0622 0.5621
O3_17 O 0.7790(3) 0.4704(4) 0.5565(3)
P5_12 P 0.80230(8) 0.58459(9) 0.58495(8)
P1_18 P 0.53104(8) 0.44896(5) 0.58171(8)
C1_18 C 0.6467(4) 0.6408(3) 0.5894(10)
C2_18 C 0.6208(3) 0.5935(2) 0.5834(5)
C3_18 C 0.6101(5) 0.5693(3) 0.6260(6)
H1_18 H 0.6215 0.5829 0.6561
C4_18 C 0.5834(4) 0.5263(3) 0.6255(4)
H2_18 H 0.5762 0.5108 0.6550
C5_18 C 0.5670(3) 0.5053(2) 0.5808(3)
C6_18 C 0.5790(4) 0.5287(2) 0.5395(4)
H3_18 H 0.5695 0.5155 0.5087
C7_18 C 0.6059(4) 0.5732(3) 0.5424(5)
H4_18 H 0.6136 0.5890 0.5131
C8_18 C 0.6207(4) 0.6620(2) 0.5835(5)
C9_18 C 0.6077(5) 0.6737(4) 0.6239(6)
H5_18 H 0.6153 0.6690 0.6553
C10_18 C 0.5828(5) 0.6930(4) 0.6186(4)
H6_18 H 0.5729 0.6998 0.6472
C11_18 C 0.5724(3) 0.7023(2) 0.5750(3)
C12_18 C 0.5840(5) 0.6895(4) 0.5348(4)
H7_18 H 0.5754 0.6938 0.5038
C13_18 C 0.6080(6) 0.6700(5) 0.5380(6)
H8_18 H 0.6163 0.6620 0.5091
C14_18 C 0.4797(4) 0.4438(2) 0.5861(3)
C15_18 C 0.4442(4) 0.4034(3) 0.5862(5)
H9_18 H 0.4474 0.3793 0.5826
C16_18 C 0.4041(6) 0.3984(4) 0.5915(5)
H10_18 H 0.3802 0.3708 0.5932
C17_18 C 0.3986(4) 0.4320(3) 0.5944(4)
H11_18 H 0.3710 0.4281 0.5976
C18_18 C 0.4330(4) 0.4720(3) 0.5928(4)
H12_18 H 0.4290 0.4957 0.5944
C19_18 C 0.4725(3) 0.4779(2) 0.5890(3)
H13_18 H 0.4959 0.5058 0.5882
C20_18 C 0.5327(3) 0.4323(2) 0.5203(3)
C21_18 C 0.5667(4) 0.4258(3) 0.5093(4)
H14_18 H 0.5866 0.4287 0.5332
C22_18 C 0.5693(6) 0.4145(4) 0.4604(5)
H15_18 H 0.5917 0.4098 0.4518
C23_18 C 0.5412(5) 0.4100(3) 0.4256(4)
H16_18 H 0.5448 0.4034 0.3933
C24_18 C 0.5076(5) 0.4152(3) 0.4370(4)
H17_18 H 0.4871 0.4110 0.4131
C25_18 C 0.5038(4) 0.4269(3) 0.4852(3)
H18_18 H 0.4809 0.4311 0.4932
C26_18 C 0.4978(4) 0.7025(3) 0.6078(5)
C27_18 C 0.5021(4) 0.7030(3) 0.6567(5)
H19_18 H 0.5289 0.7189 0.6716
C28_18 C 0.4661(6) 0.6794(4) 0.6846(6)
H20_18 H 0.4690 0.6788 0.7189
C29_18 C 0.4287(5) 0.6582(3) 0.6661(7)
H21_18 H 0.4050 0.6430 0.6868
C30_18 C 0.4231(6) 0.6575(4) 0.6181(8)
H22_18 H 0.3956 0.6417 0.6045
C31_18 C 0.4588(4) 0.6808(3) 0.5873(6)
H23_18 H 0.4555 0.6812 0.5531
C32_18 C 0.5732(3) 0.7794(2) 0.5976(3)
C33_18 C 0.6134(5) 0.7949(3) 0.6121(5)
H24_18 H 0.6267 0.7785 0.6080
C34_18 C 0.6363(6) 0.8357(4) 0.6334(6)
H25_18 H 0.6642 0.8459 0.6449
C35_18 C 0.6178(6) 0.8599(3) 0.6372(6)
H26_18 H 0.6339 0.8886 0.6469
C36_18 C 0.5756(6) 0.8424(4) 0.6269(8)
H27_18 H 0.5611 0.8571 0.6348
C37_18 C 0.5541(5) 0.8028(4) 0.6048(8)
H28_18 H 0.5257 0.7919 0.5946
C38_22 C 0.5232(3) 0.3333 0.5833
O1_18 O 0.5544(3) 0.3581(2) 0.6101(3)
O2_22 O 0.4899(3) 0.3333 0.5833
C39_18 C 0.6867(4) 0.6608(3) 0.5772(10)
C40_18 C 0.7126(3) 0.6394(2) 0.5832(5)
C41_18 C 0.7233(5) 0.6259(4) 0.5406(6)
H29_18 H 0.7119 0.6281 0.5105
C42_18 C 0.7500(4) 0.6096(3) 0.5411(4)
H30_18 H 0.7572 0.6013 0.5116
C43_18 C 0.7664(3) 0.6050(2) 0.5858(3)
C44_18 C 0.7544(4) 0.6164(3) 0.6271(4)
H31_18 H 0.7639 0.6127 0.6579
C45_18 C 0.7275(4) 0.6340(3) 0.6242(5)
H32_18 H 0.7198 0.6421 0.6535
C46_18 C 0.7127(4) 0.7080(3) 0.5831(5)
C47_18 C 0.7257(5) 0.7327(3) 0.5427(6)
H33_18 H 0.7181 0.7204 0.5113
C48_18 C 0.7506(5) 0.7769(3) 0.5480(4)
H34_18 H 0.7605 0.7936 0.5194
C49_18 C 0.7610(3) 0.7966(2) 0.5916(3)
C50_18 C 0.7494(5) 0.7722(3) 0.6318(4)
H35_18 H 0.7580 0.7851 0.6628
C51_18 C 0.7254(6) 0.7287(3) 0.6286(6)
H36_18 H 0.7171 0.7124 0.6575
C52_18 C 0.8537(4) 0.6308(3) 0.5805(3)
C53_18 C 0.8892(4) 0.6259(3) 0.5804(5)
H37_18 H 0.8860 0.5986 0.5840
C54_18 C 0.9293(6) 0.6610(4) 0.5751(5)
H38_18 H 0.9532 0.6573 0.5734
C55_18 C 0.9348(4) 0.7001(3) 0.5722(4)
H39_18 H 0.9624 0.7238 0.5690
C56_18 C 0.9004(4) 0.7057(3) 0.5738(4)
H40_18 H 0.9044 0.7334 0.5722
C57_18 C 0.8609(3) 0.6721(2) 0.5776(3)
H41_18 H 0.8375 0.6766 0.5784
C58_18 C 0.8007(3) 0.5663(2) 0.6463(3)
C59_18 C 0.7667(4) 0.5258(3) 0.6573(4)
H42_18 H 0.7468 0.5088 0.6334
C60_18 C 0.7641(6) 0.5119(4) 0.7062(5)
H43_18 H 0.7417 0.4848 0.7148
C61_18 C 0.7922(5) 0.5355(4) 0.7410(4)
H44_18 H 0.7886 0.5253 0.7733
C62_18 C 0.8258(5) 0.5743(4) 0.7296(4)
H45_18 H 0.8463 0.5906 0.7535
C63_18 C 0.8296(4) 0.5898(3) 0.6814(3)
H46_18 H 0.8525 0.6169 0.6734
C64_18 C 0.8356(4) 0.8714(3) 0.5588(5)
C65_18 C 0.8313(4) 0.8676(3) 0.5099(5)
H47_18 H 0.8045 0.8567 0.4950
C66_18 C 0.8673(6) 0.8800(4) 0.4820(6)
H48_18 H 0.8644 0.8765 0.4477
C67_18 C 0.9047(5) 0.8962(4) 0.5005(7)
H49_18 H 0.9284 0.9047 0.4798
C68_18 C 0.9103(6) 0.9011(5) 0.5485(8)
H50_18 H 0.9378 0.9128 0.5621
C69_18 C 0.8746(4) 0.8887(3) 0.5793(6)
H51_18 H 0.8779 0.8924 0.6135
C70_18 C 0.7602(3) 0.8729(2) 0.5690(3)
C71_18 C 0.7200(5) 0.8482(4) 0.5545(5)
H52_18 H 0.7067 0.8185 0.5586
C72_18 C 0.6971(6) 0.8661(5) 0.5332(6)
H53_18 H 0.6692 0.8484 0.5217
C73_18 C 0.7156(6) 0.9088(5) 0.5294(6)
H54_18 H 0.6995 0.9214 0.5197
C74_18 C 0.7578(6) 0.9335(4) 0.5397(8)
H55_18 H 0.7723 0.9627 0.5318
C75_18 C 0.7793(5) 0.9154(3) 0.5618(8)
H56_18 H 0.8077 0.9329 0.5720
O3_18 O 0.5296(4) 0.3085(2) 0.5565(3)
loop_
_geom_bond_atom_site_label_1
_geom_bond_atom_site_label_2
_geom_bond_site_symmetry_1
_geom_bond_site_symmetry_2
Ag1 P1 1_555 1_555
P1 C5 1_555 1_555
P2 C11 1_555 1_555
C1 C2 1_555 1_555
C2 C3 1_555 1_555
C3 H1 1_555 1_555
C4 C3 1_555 1_555
H2 C4 1_555 1_555
C5 C4 1_555 1_555
C6 C5 1_555 1_555
H3 C6 1_555 1_555
C7 C2 1_555 1_555
H4 C7 1_555 1_555
C8 C1 1_555 1_555
C9 C8 1_555 1_555
H5 C9 1_555 1_555
C10 C9 1_555 1_555
H6 C10 1_555 1_555
C11 C10 1_555 1_555
C12 C11 1_555 1_555
H7 C12 1_555 1_555
C13 C8 1_555 1_555
H8 C13 1_555 1_555
C14 P1 1_555 1_555
C15 C14 1_555 1_555
H9 C15 1_555 1_555
C16 C15 1_555 1_555
H10 C16 1_555 1_555
C17 C16 1_555 1_555
H11 C17 1_555 1_555
C18 C17 1_555 1_555
H12 C18 1_555 1_555
C19 C14 1_555 1_555
H13 C19 1_555 1_555
C20 P1 1_555 1_555
C21 C20 1_555 1_555
H14 C21 1_555 1_555
C22 C21 1_555 1_555
H15 C22 1_555 1_555
C23 C22 1_555 1_555
H16 C23 1_555 1_555
C24 C23 1_555 1_555
H17 C24 1_555 1_555
C25 C20 1_555 1_555
H18 C25 1_555 1_555
C26 P2 1_555 1_555
C27 C26 1_555 1_555
H19 C27 1_555 1_555
C28 C27 1_555 1_555
H20 C28 1_555 1_555
C29 C28 1_555 1_555
H21 C29 1_555 1_555
C30 C29 1_555 1_555
H22 C30 1_555 1_555
C31 C26 1_555 1_555
H23 C31 1_555 1_555
C32 P2 1_555 1_555
C33 C32 1_555 1_555
H24 C33 1_555 1_555
C34 C33 1_555 1_555
H25 C34 1_555 1_555
C35 C34 1_555 1_555
H26 C35 1_555 1_555
C36 C35 1_555 1_555
H27 C36 1_555 1_555
C37 C32 1_555 1_555
H28 C37 1_555 1_555
C38 O1 1_555 1_555
O1 Ag1 1_555 1_555
O2 C38 1_555 1_555
P3 C43 1_555 1_555
P4 C49 1_555 1_555
C39 C1 1_555 1_555
C40 C39 1_555 1_555
C41 C40 1_555 1_555
H29 C41 1_555 1_555
C42 C41 1_555 1_555
H30 C42 1_555 1_555
C43 C42 1_555 1_555
C44 C43 1_555 1_555
H31 C44 1_555 1_555
C45 C40 1_555 1_555
H32 C45 1_555 1_555
C46 C39 1_555 1_555
C47 C46 1_555 1_555
H33 C47 1_555 1_555
C48 C47 1_555 1_555
H34 C48 1_555 1_555
C49 C48 1_555 1_555
C50 C49 1_555 1_555
H35 C50 1_555 1_555
C51 C46 1_555 1_555
H36 C51 1_555 1_555
C52 P3 1_555 1_555
C53 C52 1_555 1_555
H37 C53 1_555 1_555
C54 C53 1_555 1_555
H38 C54 1_555 1_555
C55 C54 1_555 1_555
H39 C55 1_555 1_555
C56 C55 1_555 1_555
H40 C56 1_555 1_555
C57 C52 1_555 1_555
H41 C57 1_555 1_555
C58 P3 1_555 1_555
C59 C58 1_555 1_555
H42 C59 1_555 1_555
C60 C59 1_555 1_555
H43 C60 1_555 1_555
C61 C60 1_555 1_555
H44 C61 1_555 1_555
C62 C61 1_555 1_555
H45 C62 1_555 1_555
C63 C58 1_555 1_555
H46 C63 1_555 1_555
C64 P4 1_555 1_555
C65 C64 1_555 1_555
H47 C65 1_555 1_555
C66 C65 1_555 1_555
H48 C66 1_555 1_555
C67 C66 1_555 1_555
H49 C67 1_555 1_555
C68 C67 1_555 1_555
H50 C68 1_555 1_555
C69 C64 1_555 1_555
H51 C69 1_555 1_555
C70 P4 1_555 1_555
C71 C70 1_555 1_555
H52 C71 1_555 1_555
C72 C71 1_555 1_555
H53 C72 1_555 1_555
C73 C72 1_555 1_555
H54 C73 1_555 1_555
C74 C73 1_555 1_555
H55 C74 1_555 1_555
C75 C70 1_555 1_555
H56 C75 1_555 1_555
Ag3 P3 1_555 1_555
Ag4 P4 1_555 1_555
Ag5 P2 1_555 1_555
P6 Ag1 1_555 1_555
C6 C7 1_555 1_555
C12 C13 1_555 1_555
C18 C19 1_555 1_555
C24 C25 1_555 1_555
C30 C31 1_555 1_555
C36 C37 1_555 1_555
C44 C45 1_555 1_555
C50 C51 1_555 1_555
C56 C57 1_555 1_555
C62 C63 1_555 1_555
C68 C69 1_555 1_555
C74 C75 1_555 1_555
O2_2 C38_2 1_555 1_555
O3 C38_2 1_555 1_555
Ag2 O3 1_555 1_555
P5 Ag2 1_555 1_555
P7 Ag2 1_555 1_555
P5 C43_2 1_555 1_555
P4_2 C49_2 1_555 1_555
C40_2 C39_2 1_555 1_555
C41_2 C40_2 1_555 1_555
H29_2 C41_2 1_555 1_555
C42_2 C41_2 1_555 1_555
H30_2 C42_2 1_555 1_555
C43_2 C42_2 1_555 1_555
C44_2 C43_2 1_555 1_555
H31_2 C44_2 1_555 1_555
C45_2 C40_2 1_555 1_555
H32_2 C45_2 1_555 1_555
C46_2 C39_2 1_555 1_555
C47_2 C46_2 1_555 1_555
H33_2 C47_2 1_555 1_555
C48_2 C47_2 1_555 1_555
H34_2 C48_2 1_555 1_555
C49_2 C48_2 1_555 1_555
C50_2 C49_2 1_555 1_555
H35_2 C50_2 1_555 1_555
C51_2 C46_2 1_555 1_555
H36_2 C51_2 1_555 1_555
C52_2 P5 1_555 1_555
C53_2 C52_2 1_555 1_555
H37_2 C53_2 1_555 1_555
C54_2 C53_2 1_555 1_555
H38_2 C54_2 1_555 1_555
C55_2 C54_2 1_555 1_555
H39_2 C55_2 1_555 1_555
C56_2 C55_2 1_555 1_555
H40_2 C56_2 1_555 1_555
C57_2 C52_2 1_555 1_555
H41_2 C57_2 1_555 1_555
C58_2 P5 1_555 1_555
C59_2 C58_2 1_555 1_555
H42_2 C59_2 1_555 1_555
C60_2 C59_2 1_555 1_555
H43_2 C60_2 1_555 1_555
C61_2 C60_2 1_555 1_555
H44_2 C61_2 1_555 1_555
C62_2 C61_2 1_555 1_555
H45_2 C62_2 1_555 1_555
C63_2 C58_2 1_555 1_555
H46_2 C63_2 1_555 1_555
C64_2 P4_2 1_555 1_555
C65_2 C64_2 1_555 1_555
H47_2 C65_2 1_555 1_555
C66_2 C65_2 1_555 1_555
H48_2 C66_2 1_555 1_555
C67_2 C66_2 1_555 1_555
H49_2 C67_2 1_555 1_555
C68_2 C67_2 1_555 1_555
H50_2 C68_2 1_555 1_555
C69_2 C64_2 1_555 1_555
H51_2 C69_2 1_555 1_555
C70_2 P4_2 1_555 1_555
C71_2 C70_2 1_555 1_555
H52_2 C71_2 1_555 1_555
C72_2 C71_2 1_555 1_555
H53_2 C72_2 1_555 1_555
C73_2 C72_2 1_555 1_555
H54_2 C73_2 1_555 1_555
C74_2 C73_2 1_555 1_555
H55_2 C74_2 1_555 1_555
C75_2 C70_2 1_555 1_555
H56_2 C75_2 1_555 1_555
Ag4_2 P4_2 1_555 1_555
C44_2 C45_2 1_555 1_555
C50_2 C51_2 1_555 1_555
C56_2 C57_2 1_555 1_555
C62_2 C63_2 1_555 1_555
C68_2 C69_2 1_555 1_555
C74_2 C75_2 1_555 1_555
Ag1_2 P1_2 1_555 1_555
P1_2 C5_2 1_555 1_555
P2_2 C11_2 1_555 1_555
C1_2 C2_2 1_555 1_555
C2_2 C3_2 1_555 1_555
C3_2 H1_2 1_555 1_555
C4_2 C3_2 1_555 1_555
H2_2 C4_2 1_555 1_555
C5_2 C4_2 1_555 1_555
C6_2 C5_2 1_555 1_555
H3_2 C6_2 1_555 1_555
C7_2 C2_2 1_555 1_555
H4_2 C7_2 1_555 1_555
C8_2 C1_2 1_555 1_555
C9_2 C8_2 1_555 1_555
H5_2 C9_2 1_555 1_555
C10_2 C9_2 1_555 1_555
H6_2 C10_2 1_555 1_555
C11_2 C10_2 1_555 1_555
C12_2 C11_2 1_555 1_555
H7_2 C12_2 1_555 1_555
C13_2 C8_2 1_555 1_555
H8_2 C13_2 1_555 1_555
C14_2 P1_2 1_555 1_555
C15_2 C14_2 1_555 1_555
H9_2 C15_2 1_555 1_555
C16_2 C15_2 1_555 1_555
H10_2 C16_2 1_555 1_555
C17_2 C16_2 1_555 1_555
H11_2 C17_2 1_555 1_555
C18_2 C17_2 1_555 1_555
H12_2 C18_2 1_555 1_555
C19_2 C14_2 1_555 1_555
H13_2 C19_2 1_555 1_555
C20_2 P1_2 1_555 1_555
C21_2 C20_2 1_555 1_555
H14_2 C21_2 1_555 1_555
C22_2 C21_2 1_555 1_555
H15_2 C22_2 1_555 1_555
C23_2 C22_2 1_555 1_555
H16_2 C23_2 1_555 1_555
C24_2 C23_2 1_555 1_555
H17_2 C24_2 1_555 1_555
C25_2 C20_2 1_555 1_555
H18_2 C25_2 1_555 1_555
C26_2 P2_2 1_555 1_555
C27_2 C26_2 1_555 1_555
H19_2 C27_2 1_555 1_555
C28_2 C27_2 1_555 1_555
H20_2 C28_2 1_555 1_555
C29_2 C28_2 1_555 1_555
H21_2 C29_2 1_555 1_555
C30_2 C29_2 1_555 1_555
H22_2 C30_2 1_555 1_555
C31_2 C26_2 1_555 1_555
H23_2 C31_2 1_555 1_555
C32_2 P2_2 1_555 1_555
C33_2 C32_2 1_555 1_555
H24_2 C33_2 1_555 1_555
C34_2 C33_2 1_555 1_555
H25_2 C34_2 1_555 1_555
C35_2 C34_2 1_555 1_555
H26_2 C35_2 1_555 1_555
C36_2 C35_2 1_555 1_555
H27_2 C36_2 1_555 1_555
C37_2 C32_2 1_555 1_555
H28_2 C37_2 1_555 1_555
C38_3 O1_2 1_555 1_555
O1_2 Ag1_2 1_555 1_555
O2_3 C38_3 1_555 1_555
O3_2 C38_3 1_555 1_555
Ag2_2 O3_2 1_555 1_555
Ag5_2 P2_2 1_555 1_555
P5_2 Ag2_2 1_555 1_555
P6_2 Ag1_2 1_555 1_555
P7_2 Ag2_2 1_555 1_555
C6_2 C7_2 1_555 1_555
C12_2 C13_2 1_555 1_555
C18_2 C19_2 1_555 1_555
C24_2 C25_2 1_555 1_555
C30_2 C31_2 1_555 1_555
C36_2 C37_2 1_555 1_555
O2_4 C38_4 1_555 1_555
O3_3 C38_4 1_555 1_555
Ag3 O3_3 1_555 1_555
P7_3 Ag3 1_555 1_555
Ag1_3 P1_3 1_555 1_555
P1_3 C5_3 1_555 1_555
P2_3 C11_3 1_555 1_555
C1_3 C2_3 1_555 1_555
C2_3 C3_3 1_555 1_555
C3_3 H1_3 1_555 1_555
C4_3 C3_3 1_555 1_555
H2_3 C4_3 1_555 1_555
C5_3 C4_3 1_555 1_555
C6_3 C5_3 1_555 1_555
H3_3 C6_3 1_555 1_555
C7_3 C2_3 1_555 1_555
H4_3 C7_3 1_555 1_555
C8_3 C1_3 1_555 1_555
C9_3 C8_3 1_555 1_555
H5_3 C9_3 1_555 1_555
C10_3 C9_3 1_555 1_555
H6_3 C10_3 1_555 1_555
C11_3 C10_3 1_555 1_555
C12_3 C11_3 1_555 1_555
H7_3 C12_3 1_555 1_555
C13_3 C8_3 1_555 1_555
H8_3 C13_3 1_555 1_555
C14_3 P1_3 1_555 1_555
C15_3 C14_3 1_555 1_555
H9_3 C15_3 1_555 1_555
C16_3 C15_3 1_555 1_555
H10_3 C16_3 1_555 1_555
C17_3 C16_3 1_555 1_555
H11_3 C17_3 1_555 1_555
C18_3 C17_3 1_555 1_555
H12_3 C18_3 1_555 1_555
C19_3 C14_3 1_555 1_555
H13_3 C19_3 1_555 1_555
C20_3 P1_3 1_555 1_555
C21_3 C20_3 1_555 1_555
H14_3 C21_3 1_555 1_555
C22_3 C21_3 1_555 1_555
H15_3 C22_3 1_555 1_555
C23_3 C22_3 1_555 1_555
H16_3 C23_3 1_555 1_555
C24_3 C23_3 1_555 1_555
H17_3 C24_3 1_555 1_555
C25_3 C20_3 1_555 1_555
H18_3 C25_3 1_555 1_555
C26_3 P2_3 1_555 1_555
C27_3 C26_3 1_555 1_555
H19_3 C27_3 1_555 1_555
C28_3 C27_3 1_555 1_555
H20_3 C28_3 1_555 1_555
C29_3 C28_3 1_555 1_555
H21_3 C29_3 1_555 1_555
C30_3 C29_3 1_555 1_555
H22_3 C30_3 1_555 1_555
C31_3 C26_3 1_555 1_555
H23_3 C31_3 1_555 1_555
C32_3 P2_3 1_555 1_555
C33_3 C32_3 1_555 1_555
H24_3 C33_3 1_555 1_555
C34_3 C33_3 1_555 1_555
H25_3 C34_3 1_555 1_555
C35_3 C34_3 1_555 1_555
H26_3 C35_3 1_555 1_555
C36_3 C35_3 1_555 1_555
H27_3 C36_3 1_555 1_555
C37_3 C32_3 1_555 1_555
H28_3 C37_3 1_555 1_555
C38_5 O1_3 1_555 1_555
O1_3 Ag1_3 1_555 1_555
O2_5 C38_5 1_555 1_555
Ag5_3 P2_3 1_555 1_555
P6_3 Ag1_3 1_555 1_555
C6_3 C7_3 1_555 1_555
C12_3 C13_3 1_555 1_555
C18_3 C19_3 1_555 1_555
C24_3 C25_3 1_555 1_555
C30_3 C31_3 1_555 1_555
C36_3 C37_3 1_555 1_555
P5_2 C43_3 1_555 1_555
P4_3 C49_3 1_555 1_555
C40_3 C39_3 1_555 1_555
C41_3 C40_3 1_555 1_555
H29_3 C41_3 1_555 1_555
C42_3 C41_3 1_555 1_555
H30_3 C42_3 1_555 1_555
C43_3 C42_3 1_555 1_555
C44_3 C43_3 1_555 1_555
H31_3 C44_3 1_555 1_555
C45_3 C40_3 1_555 1_555
H32_3 C45_3 1_555 1_555
C46_3 C39_3 1_555 1_555
C47_3 C46_3 1_555 1_555
H33_3 C47_3 1_555 1_555
C48_3 C47_3 1_555 1_555
H34_3 C48_3 1_555 1_555
C49_3 C48_3 1_555 1_555
C50_3 C49_3 1_555 1_555
H35_3 C50_3 1_555 1_555
C51_3 C46_3 1_555 1_555
H36_3 C51_3 1_555 1_555
C52_3 P5_2 1_555 1_555
C53_3 C52_3 1_555 1_555
H37_3 C53_3 1_555 1_555
C54_3 C53_3 1_555 1_555
H38_3 C54_3 1_555 1_555
C55_3 C54_3 1_555 1_555
H39_3 C55_3 1_555 1_555
C56_3 C55_3 1_555 1_555
H40_3 C56_3 1_555 1_555
C57_3 C52_3 1_555 1_555
H41_3 C57_3 1_555 1_555
C58_3 P5_2 1_555 1_555
C59_3 C58_3 1_555 1_555
H42_3 C59_3 1_555 1_555
C60_3 C59_3 1_555 1_555
H43_3 C60_3 1_555 1_555
C61_3 C60_3 1_555 1_555
H44_3 C61_3 1_555 1_555
C62_3 C61_3 1_555 1_555
H45_3 C62_3 1_555 1_555
C63_3 C58_3 1_555 1_555
H46_3 C63_3 1_555 1_555
C64_3 P4_3 1_555 1_555
C65_3 C64_3 1_555 1_555
H47_3 C65_3 1_555 1_555
C66_3 C65_3 1_555 1_555
H48_3 C66_3 1_555 1_555
C67_3 C66_3 1_555 1_555
H49_3 C67_3 1_555 1_555
C68_3 C67_3 1_555 1_555
H50_3 C68_3 1_555 1_555
C69_3 C64_3 1_555 1_555
H51_3 C69_3 1_555 1_555
C70_3 P4_3 1_555 1_555
C71_3 C70_3 1_555 1_555
H52_3 C71_3 1_555 1_555
C72_3 C71_3 1_555 1_555
H53_3 C72_3 1_555 1_555
C73_3 C72_3 1_555 1_555
H54_3 C73_3 1_555 1_555
C74_3 C73_3 1_555 1_555
H55_3 C74_3 1_555 1_555
C75_3 C70_3 1_555 1_555
H56_3 C75_3 1_555 1_555
Ag4_3 P4_3 1_555 1_555
C44_3 C45_3 1_555 1_555
C50_3 C51_3 1_555 1_555
C56_3 C57_3 1_555 1_555
C62_3 C63_3 1_555 1_555
C68_3 C69_3 1_555 1_555
C74_3 C75_3 1_555 1_555
P2_4 C11_4 1_555 1_555
H5_4 C9_4 1_555 1_555
C10_4 C9_4 1_555 1_555
H6_4 C10_4 1_555 1_555
C11_4 C10_4 1_555 1_555
C12_4 C11_4 1_555 1_555
H7_4 C12_4 1_555 1_555
C26_4 P2_4 1_555 1_555
C27_4 C26_4 1_555 1_555
C31_4 C26_4 1_555 1_555
H23_4 C31_4 1_555 1_555
C32_4 P2_4 1_555 1_555
C33_4 C32_4 1_555 1_555
H24_4 C33_4 1_555 1_555
C34_4 C33_4 1_555 1_555
H25_4 C34_4 1_555 1_555
C35_4 C34_4 1_555 1_555
H26_4 C35_4 1_555 1_555
C36_4 C35_4 1_555 1_555
H27_4 C36_4 1_555 1_555
C37_4 C32_4 1_555 1_555
H28_4 C37_4 1_555 1_555
P4_4 C49_4 1_555 1_555
C47_4 C46_4 1_555 1_555
H33_4 C47_4 1_555 1_555
C48_4 C47_4 1_555 1_555
H34_4 C48_4 1_555 1_555
C49_4 C48_4 1_555 1_555
C50_4 C49_4 1_555 1_555
H35_4 C50_4 1_555 1_555
C51_4 C46_4 1_555 1_555
H36_4 C51_4 1_555 1_555
H39_4 C55_4 1_555 1_555
C56_4 C55_4 1_555 1_555
H40_4 C56_4 1_555 1_555
H41_4 C57_4 1_555 1_555
C64_4 P4_4 1_555 1_555
C65_4 C64_4 1_555 1_555
H47_4 C65_4 1_555 1_555
C66_4 C65_4 1_555 1_555
H48_4 C66_4 1_555 1_555
C67_4 C66_4 1_555 1_555
H49_4 C67_4 1_555 1_555
C68_4 C67_4 1_555 1_555
H50_4 C68_4 1_555 1_555
C69_4 C64_4 1_555 1_555
H51_4 C69_4 1_555 1_555
C70_4 P4_4 1_555 1_555
C71_4 C70_4 1_555 1_555
H52_4 C71_4 1_555 1_555
C72_4 C71_4 1_555 1_555
H53_4 C72_4 1_555 1_555
C73_4 C72_4 1_555 1_555
H54_4 C73_4 1_555 1_555
C74_4 C73_4 1_555 1_555
H55_4 C74_4 1_555 1_555
C75_4 C70_4 1_555 1_555
H56_4 C75_4 1_555 1_555
Ag5_4 P2_4 1_555 1_555
C12_4 C13_4 1_555 1_555
C36_4 C37_4 1_555 1_555
C50_4 C51_4 1_555 1_555
C56_4 C57_4 1_555 1_555
C68_4 C69_4 1_555 1_555
C74_4 C75_4 1_555 1_555
H20_4 C28_4 1_555 1_555
Ag1_4 P1_4 1_555 1_555
P1_4 C5_4 1_555 1_555
C1_4 C2_4 1_555 1_555
C2_4 C3_4 1_555 1_555
C3_4 H1_4 1_555 1_555
C4_4 C3_4 1_555 1_555
H2_4 C4_4 1_555 1_555
C5_4 C4_4 1_555 1_555
C6_4 C5_4 1_555 1_555
H3_4 C6_4 1_555 1_555
C7_4 C2_4 1_555 1_555
H4_4 C7_4 1_555 1_555
C8_4 C1_4 1_555 1_555
C14_4 P1_4 1_555 1_555
C15_4 C14_4 1_555 1_555
H9_4 C15_4 1_555 1_555
C16_4 C15_4 1_555 1_555
H10_4 C16_4 1_555 1_555
C17_4 C16_4 1_555 1_555
H11_4 C17_4 1_555 1_555
C18_4 C17_4 1_555 1_555
H12_4 C18_4 1_555 1_555
C19_4 C14_4 1_555 1_555
H13_4 C19_4 1_555 1_555
C20_4 P1_4 1_555 1_555
C21_4 C20_4 1_555 1_555
H14_4 C21_4 1_555 1_555
C22_4 C21_4 1_555 1_555
H15_4 C22_4 1_555 1_555
C23_4 C22_4 1_555 1_555
H16_4 C23_4 1_555 1_555
C24_4 C23_4 1_555 1_555
H17_4 C24_4 1_555 1_555
C25_4 C20_4 1_555 1_555
H18_4 C25_4 1_555 1_555
C30_4 C29_4 1_555 1_555
H22_4 C30_4 1_555 1_555
C38_6 O1_4 1_555 1_555
O1_4 Ag1_4 1_555 1_555
O2_6 C38_6 1_555 1_555
P3_2 C43_4 1_555 1_555
C39_4 C1_4 1_555 1_555
C40_4 C39_4 1_555 1_555
C41_4 C40_4 1_555 1_555
H29_4 C41_4 1_555 1_555
C42_4 C41_4 1_555 1_555
H30_4 C42_4 1_555 1_555
C43_4 C42_4 1_555 1_555
C44_4 C43_4 1_555 1_555
H31_4 C44_4 1_555 1_555
C45_4 C40_4 1_555 1_555
H32_4 C45_4 1_555 1_555
C52_4 P3_2 1_555 1_555
C53_4 C52_4 1_555 1_555
H37_4 C53_4 1_555 1_555
C54_4 C53_4 1_555 1_555
H38_4 C54_4 1_555 1_555
C58_4 P3_2 1_555 1_555
C59_4 C58_4 1_555 1_555
H42_4 C59_4 1_555 1_555
O3_4 C38_6 1_555 1_555
Ag2_3 O3_4 1_555 1_555
Ag3_2 P3_2 1_555 1_555
P5_3 Ag2_3 1_555 1_555
P7_4 Ag2_3 1_555 1_555
C6_4 C7_4 1_555 1_555
C18_4 C19_4 1_555 1_555
C24_4 C25_4 1_555 1_555
C44_4 C45_4 1_555 1_555
H43_4 C60_4 1_555 1_555
C61_4 C60_4 1_555 1_555
H44_4 C61_4 1_555 1_555
C62_4 C61_4 1_555 1_555
H45_4 C62_4 1_555 1_555
H46_4 C63_4 1_555 1_555
C62_4 C63_4 1_555 1_555
Ag1_5 P1_5 1_555 1_555
P1_5 C5_5 1_555 1_555
P2_5 C11_5 1_555 1_555
C1_5 C2_5 1_555 1_555
C2_5 C3_5 1_555 1_555
C3_5 H1_5 1_555 1_555
C4_5 C3_5 1_555 1_555
H2_5 C4_5 1_555 1_555
C5_5 C4_5 1_555 1_555
C6_5 C5_5 1_555 1_555
H3_5 C6_5 1_555 1_555
C7_5 C2_5 1_555 1_555
H4_5 C7_5 1_555 1_555
C8_5 C1_5 1_555 1_555
C9_5 C8_5 1_555 1_555
H5_5 C9_5 1_555 1_555
C10_5 C9_5 1_555 1_555
H6_5 C10_5 1_555 1_555
C11_5 C10_5 1_555 1_555
C12_5 C11_5 1_555 1_555
H7_5 C12_5 1_555 1_555
C13_5 C8_5 1_555 1_555
H8_5 C13_5 1_555 1_555
C14_5 P1_5 1_555 1_555
C15_5 C14_5 1_555 1_555
H9_5 C15_5 1_555 1_555
C16_5 C15_5 1_555 1_555
H10_5 C16_5 1_555 1_555
C17_5 C16_5 1_555 1_555
H11_5 C17_5 1_555 1_555
C18_5 C17_5 1_555 1_555
H12_5 C18_5 1_555 1_555
C19_5 C14_5 1_555 1_555
H13_5 C19_5 1_555 1_555
C20_5 P1_5 1_555 1_555
C21_5 C20_5 1_555 1_555
H14_5 C21_5 1_555 1_555
C22_5 C21_5 1_555 1_555
H15_5 C22_5 1_555 1_555
C23_5 C22_5 1_555 1_555
H16_5 C23_5 1_555 1_555
C24_5 C23_5 1_555 1_555
H17_5 C24_5 1_555 1_555
C25_5 C20_5 1_555 1_555
H18_5 C25_5 1_555 1_555
C26_5 P2_5 1_555 1_555
C27_5 C26_5 1_555 1_555
C30_5 C29_5 1_555 1_555
H22_5 C30_5 1_555 1_555
C31_5 C26_5 1_555 1_555
H23_5 C31_5 1_555 1_555
C32_5 P2_5 1_555 1_555
C33_5 C32_5 1_555 1_555
H24_5 C33_5 1_555 1_555
C34_5 C33_5 1_555 1_555
H25_5 C34_5 1_555 1_555
C35_5 C34_5 1_555 1_555
H26_5 C35_5 1_555 1_555
C36_5 C35_5 1_555 1_555
H27_5 C36_5 1_555 1_555
C37_5 C32_5 1_555 1_555
H28_5 C37_5 1_555 1_555
C38_7 O1_5 1_555 1_555
O1_5 Ag1_5 1_555 1_555
O2_7 C38_7 1_555 1_555
P5_3 C43_5 1_555 1_555
P4_5 C49_5 1_555 1_555
C39_5 C1_5 1_555 1_555
C40_5 C39_5 1_555 1_555
C41_5 C40_5 1_555 1_555
H29_5 C41_5 1_555 1_555
C42_5 C41_5 1_555 1_555
H30_5 C42_5 1_555 1_555
C43_5 C42_5 1_555 1_555
C44_5 C43_5 1_555 1_555
H31_5 C44_5 1_555 1_555
C45_5 C40_5 1_555 1_555
H32_5 C45_5 1_555 1_555
C46_5 C39_5 1_555 1_555
C47_5 C46_5 1_555 1_555
H33_5 C47_5 1_555 1_555
C48_5 C47_5 1_555 1_555
H34_5 C48_5 1_555 1_555
C49_5 C48_5 1_555 1_555
C50_5 C49_5 1_555 1_555
H35_5 C50_5 1_555 1_555
C51_5 C46_5 1_555 1_555
H36_5 C51_5 1_555 1_555
C52_5 P5_3 1_555 1_555
C53_5 C52_5 1_555 1_555
H37_5 C53_5 1_555 1_555
C54_5 C53_5 1_555 1_555
H38_5 C54_5 1_555 1_555
C55_5 C54_5 1_555 1_555
H39_5 C55_5 1_555 1_555
C56_5 C55_5 1_555 1_555
H40_5 C56_5 1_555 1_555
C57_5 C52_5 1_555 1_555
H41_5 C57_5 1_555 1_555
C58_5 P5_3 1_555 1_555
C59_5 C58_5 1_555 1_555
H42_5 C59_5 1_555 1_555
C64_5 P4_5 1_555 1_555
C65_5 C64_5 1_555 1_555
H47_5 C65_5 1_555 1_555
C66_5 C65_5 1_555 1_555
H48_5 C66_5 1_555 1_555
C67_5 C66_5 1_555 1_555
H49_5 C67_5 1_555 1_555
C68_5 C67_5 1_555 1_555
H50_5 C68_5 1_555 1_555
C69_5 C64_5 1_555 1_555
H51_5 C69_5 1_555 1_555
C70_5 P4_5 1_555 1_555
C71_5 C70_5 1_555 1_555
H52_5 C71_5 1_555 1_555
C72_5 C71_5 1_555 1_555
H53_5 C72_5 1_555 1_555
C73_5 C72_5 1_555 1_555
H54_5 C73_5 1_555 1_555
C74_5 C73_5 1_555 1_555
H55_5 C74_5 1_555 1_555
C75_5 C70_5 1_555 1_555
H56_5 C75_5 1_555 1_555
O3_5 C38_7 1_555 1_555
Ag2_4 O3_5 1_555 1_555
Ag5_5 P2_5 1_555 1_555
P5_4 Ag2_4 1_555 1_555
P7_5 Ag2_4 1_555 1_555
C6_5 C7_5 1_555 1_555
C12_5 C13_5 1_555 1_555
C18_5 C19_5 1_555 1_555
C24_5 C25_5 1_555 1_555
C30_5 C31_5 1_555 1_555
C36_5 C37_5 1_555 1_555
C44_5 C45_5 1_555 1_555
C50_5 C51_5 1_555 1_555
C56_5 C57_5 1_555 1_555
C68_5 C69_5 1_555 1_555
C74_5 C75_5 1_555 1_555
H20_5 C28_5 1_555 1_555
H43_5 C60_5 1_555 1_555
C61_5 C60_5 1_555 1_555
H44_5 C61_5 1_555 1_555
C62_5 C61_5 1_555 1_555
H45_5 C62_5 1_555 1_555
H46_5 C63_5 1_555 1_555
C62_5 C63_5 1_555 1_555
Ag1_6 P1_6 1_555 1_555
P1_6 C5_6 1_555 1_555
C1_6 C2_6 1_555 1_555
C2_6 C3_6 1_555 1_555
C3_6 H1_6 1_555 1_555
C4_6 C3_6 1_555 1_555
H2_6 C4_6 1_555 1_555
C5_6 C4_6 1_555 1_555
C6_6 C5_6 1_555 1_555
H3_6 C6_6 1_555 1_555
C7_6 C2_6 1_555 1_555
H4_6 C7_6 1_555 1_555
C8_6 C1_6 1_555 1_555
C14_6 P1_6 1_555 1_555
C15_6 C14_6 1_555 1_555
H9_6 C15_6 1_555 1_555
C16_6 C15_6 1_555 1_555
H10_6 C16_6 1_555 1_555
C17_6 C16_6 1_555 1_555
H11_6 C17_6 1_555 1_555
C18_6 C17_6 1_555 1_555
H12_6 C18_6 1_555 1_555
C19_6 C14_6 1_555 1_555
H13_6 C19_6 1_555 1_555
C20_6 P1_6 1_555 1_555
C21_6 C20_6 1_555 1_555
H14_6 C21_6 1_555 1_555
C22_6 C21_6 1_555 1_555
H15_6 C22_6 1_555 1_555
C23_6 C22_6 1_555 1_555
H16_6 C23_6 1_555 1_555
C24_6 C23_6 1_555 1_555
H17_6 C24_6 1_555 1_555
C25_6 C20_6 1_555 1_555
H18_6 C25_6 1_555 1_555
C30_6 C29_6 1_555 1_555
H22_6 C30_6 1_555 1_555
C38_8 O1_6 1_555 1_555
O1_6 Ag1_6 1_555 1_555
O2_8 C38_8 1_555 1_555
P5_4 C43_6 1_555 1_555
C39_6 C1_6 1_555 1_555
C40_6 C39_6 1_555 1_555
C41_6 C40_6 1_555 1_555
H29_6 C41_6 1_555 1_555
C42_6 C41_6 1_555 1_555
H30_6 C42_6 1_555 1_555
C43_6 C42_6 1_555 1_555
C44_6 C43_6 1_555 1_555
H31_6 C44_6 1_555 1_555
C45_6 C40_6 1_555 1_555
H32_6 C45_6 1_555 1_555
C52_6 P5_4 1_555 1_555
C53_6 C52_6 1_555 1_555
H37_6 C53_6 1_555 1_555
C54_6 C53_6 1_555 1_555
H38_6 C54_6 1_555 1_555
C58_6 P5_4 1_555 1_555
C59_6 C58_6 1_555 1_555
H42_6 C59_6 1_555 1_555
O3_6 C38_8 1_555 1_555
Ag3_2 O3_6 1_555 1_555
P7_6 Ag3_2 1_555 1_555
C6_6 C7_6 1_555 1_555
C18_6 C19_6 1_555 1_555
C24_6 C25_6 1_555 1_555
C44_6 C45_6 1_555 1_555
H43_6 C60_6 1_555 1_555
C61_6 C60_6 1_555 1_555
H44_6 C61_6 1_555 1_555
C62_6 C61_6 1_555 1_555
H45_6 C62_6 1_555 1_555
H46_6 C63_6 1_555 1_555
C62_6 C63_6 1_555 1_555
P2_6 C11_6 1_555 1_555
H5_6 C9_6 1_555 1_555
C10_6 C9_6 1_555 1_555
H6_6 C10_6 1_555 1_555
C11_6 C10_6 1_555 1_555
C12_6 C11_6 1_555 1_555
H7_6 C12_6 1_555 1_555
C26_6 P2_6 1_555 1_555
C27_6 C26_6 1_555 1_555
C31_6 C26_6 1_555 1_555
H23_6 C31_6 1_555 1_555
C32_6 P2_6 1_555 1_555
C33_6 C32_6 1_555 1_555
H24_6 C33_6 1_555 1_555
C34_6 C33_6 1_555 1_555
H25_6 C34_6 1_555 1_555
C35_6 C34_6 1_555 1_555
H26_6 C35_6 1_555 1_555
C36_6 C35_6 1_555 1_555
H27_6 C36_6 1_555 1_555
C37_6 C32_6 1_555 1_555
H28_6 C37_6 1_555 1_555
P4_6 C49_6 1_555 1_555
C47_6 C46_6 1_555 1_555
H33_6 C47_6 1_555 1_555
C48_6 C47_6 1_555 1_555
H34_6 C48_6 1_555 1_555
C49_6 C48_6 1_555 1_555
C50_6 C49_6 1_555 1_555
H35_6 C50_6 1_555 1_555
C51_6 C46_6 1_555 1_555
H36_6 C51_6 1_555 1_555
H39_6 C55_6 1_555 1_555
C56_6 C55_6 1_555 1_555
H40_6 C56_6 1_555 1_555
H41_6 C57_6 1_555 1_555
C64_6 P4_6 1_555 1_555
C65_6 C64_6 1_555 1_555
H47_6 C65_6 1_555 1_555
C66_6 C65_6 1_555 1_555
H48_6 C66_6 1_555 1_555
C67_6 C66_6 1_555 1_555
H49_6 C67_6 1_555 1_555
C68_6 C67_6 1_555 1_555
H50_6 C68_6 1_555 1_555
C69_6 C64_6 1_555 1_555
H51_6 C69_6 1_555 1_555
C70_6 P4_6 1_555 1_555
C71_6 C70_6 1_555 1_555
H52_6 C71_6 1_555 1_555
C72_6 C71_6 1_555 1_555
H53_6 C72_6 1_555 1_555
C73_6 C72_6 1_555 1_555
H54_6 C73_6 1_555 1_555
C74_6 C73_6 1_555 1_555
H55_6 C74_6 1_555 1_555
C75_6 C70_6 1_555 1_555
H56_6 C75_6 1_555 1_555
Ag5_6 P2_6 1_555 1_555
C12_6 C13_6 1_555 1_555
C36_6 C37_6 1_555 1_555
C50_6 C51_6 1_555 1_555
C56_6 C57_6 1_555 1_555
C68_6 C69_6 1_555 1_555
C74_6 C75_6 1_555 1_555
H20_6 C28_6 1_555 1_555
P2_7 C11_7 1_555 1_555
C9_7 C8_7 1_555 1_555
H5_7 C9_7 1_555 1_555
C10_7 C9_7 1_555 1_555
H6_7 C10_7 1_555 1_555
C11_7 C10_7 1_555 1_555
C12_7 C11_7 1_555 1_555
H7_7 C12_7 1_555 1_555
C13_7 C8_7 1_555 1_555
H8_7 C13_7 1_555 1_555
H11_7 C17_7 1_555 1_555
C18_7 C17_7 1_555 1_555
H12_7 C18_7 1_555 1_555
H13_7 C19_7 1_555 1_555
C26_7 P2_7 1_555 1_555
C27_7 C26_7 1_555 1_555
H19_7 C27_7 1_555 1_555
C28_7 C27_7 1_555 1_555
H20_7 C28_7 1_555 1_555
C29_7 C28_7 1_555 1_555
H21_7 C29_7 1_555 1_555
C30_7 C29_7 1_555 1_555
H22_7 C30_7 1_555 1_555
C31_7 C26_7 1_555 1_555
H23_7 C31_7 1_555 1_555
C32_7 P2_7 1_555 1_555
C33_7 C32_7 1_555 1_555
H24_7 C33_7 1_555 1_555
C34_7 C33_7 1_555 1_555
H25_7 C34_7 1_555 1_555
C35_7 C34_7 1_555 1_555
H26_7 C35_7 1_555 1_555
C36_7 C35_7 1_555 1_555
H27_7 C36_7 1_555 1_555
C37_7 C32_7 1_555 1_555
H28_7 C37_7 1_555 1_555
P4_7 C49_7 1_555 1_555
H33_7 C47_7 1_555 1_555
C48_7 C47_7 1_555 1_555
H34_7 C48_7 1_555 1_555
C49_7 C48_7 1_555 1_555
C50_7 C49_7 1_555 1_555
H35_7 C50_7 1_555 1_555
C64_7 P4_7 1_555 1_555
C65_7 C64_7 1_555 1_555
H47_7 C65_7 1_555 1_555
C66_7 C65_7 1_555 1_555
H48_7 C66_7 1_555 1_555
C69_7 C64_7 1_555 1_555
H51_7 C69_7 1_555 1_555
C70_7 P4_7 1_555 1_555
C71_7 C70_7 1_555 1_555
H52_7 C71_7 1_555 1_555
C72_7 C71_7 1_555 1_555
H53_7 C72_7 1_555 1_555
C73_7 C72_7 1_555 1_555
H54_7 C73_7 1_555 1_555
C74_7 C73_7 1_555 1_555
H55_7 C74_7 1_555 1_555
C75_7 C70_7 1_555 1_555
H56_7 C75_7 1_555 1_555
Ag4_7 P4_7 1_555 1_555
Ag5_7 P2_7 1_555 1_555
C12_7 C13_7 1_555 1_555
C18_7 C19_7 1_555 1_555
C30_7 C31_7 1_555 1_555
C36_7 C37_7 1_555 1_555
C50_7 C51_7 1_555 1_555
C74_7 C75_7 1_555 1_555
Ag1_7 P1_7 1_555 1_555
P1_7 C5_7 1_555 1_555
C1_7 C2_7 1_555 1_555
C2_7 C3_7 1_555 1_555
C3_7 H1_7 1_555 1_555
C4_7 C3_7 1_555 1_555
H2_7 C4_7 1_555 1_555
C5_7 C4_7 1_555 1_555
C6_7 C5_7 1_555 1_555
H3_7 C6_7 1_555 1_555
C7_7 C2_7 1_555 1_555
H4_7 C7_7 1_555 1_555
C14_7 P1_7 1_555 1_555
C15_7 C14_7 1_555 1_555
H9_7 C15_7 1_555 1_555
C16_7 C15_7 1_555 1_555
H10_7 C16_7 1_555 1_555
C20_7 P1_7 1_555 1_555
C21_7 C20_7 1_555 1_555
H14_7 C21_7 1_555 1_555
C22_7 C21_7 1_555 1_555
H15_7 C22_7 1_555 1_555
C23_7 C22_7 1_555 1_555
H16_7 C23_7 1_555 1_555
C24_7 C23_7 1_555 1_555
H17_7 C24_7 1_555 1_555
C25_7 C20_7 1_555 1_555
H18_7 C25_7 1_555 1_555
C38_9 O1_7 1_555 1_555
O1_7 Ag1_7 1_555 1_555
O2_9 C38_9 1_555 1_555
P3_3 C43_7 1_555 1_555
C39_7 C1_7 1_555 1_555
C40_7 C39_7 1_555 1_555
C41_7 C40_7 1_555 1_555
H29_7 C41_7 1_555 1_555
C42_7 C41_7 1_555 1_555
H30_7 C42_7 1_555 1_555
C43_7 C42_7 1_555 1_555
C44_7 C43_7 1_555 1_555
H31_7 C44_7 1_555 1_555
C45_7 C40_7 1_555 1_555
H32_7 C45_7 1_555 1_555
C46_7 C39_7 1_555 1_555
C52_7 P3_3 1_555 1_555
C53_7 C52_7 1_555 1_555
H37_7 C53_7 1_555 1_555
C54_7 C53_7 1_555 1_555
H38_7 C54_7 1_555 1_555
C55_7 C54_7 1_555 1_555
H39_7 C55_7 1_555 1_555
C56_7 C55_7 1_555 1_555
H40_7 C56_7 1_555 1_555
C57_7 C52_7 1_555 1_555
H41_7 C57_7 1_555 1_555
C58_7 P3_3 1_555 1_555
C59_7 C58_7 1_555 1_555
H42_7 C59_7 1_555 1_555
C60_7 C59_7 1_555 1_555
H43_7 C60_7 1_555 1_555
C61_7 C60_7 1_555 1_555
H44_7 C61_7 1_555 1_555
C62_7 C61_7 1_555 1_555
H45_7 C62_7 1_555 1_555
C63_7 C58_7 1_555 1_555
H46_7 C63_7 1_555 1_555
H49_7 C67_7 1_555 1_555
C68_7 C67_7 1_555 1_555
H50_7 C68_7 1_555 1_555
O3_7 C38_9 1_555 1_555
Ag2_5 O3_7 1_555 1_555
Ag3_3 P3_3 1_555 1_555
P5_5 Ag2_5 1_555 1_555
P6_7 Ag1_7 1_555 1_555
P7_7 Ag2_5 1_555 1_555
C6_7 C7_7 1_555 1_555
C24_7 C25_7 1_555 1_555
C44_7 C45_7 1_555 1_555
C56_7 C57_7 1_555 1_555
C62_7 C63_7 1_555 1_555
Ag1_8 P1_8 1_555 1_555
P1_8 C5_8 1_555 1_555
C1_8 C2_8 1_555 1_555
C2_8 C3_8 1_555 1_555
C3_8 H1_8 1_555 1_555
C4_8 C3_8 1_555 1_555
H2_8 C4_8 1_555 1_555
C5_8 C4_8 1_555 1_555
C6_8 C5_8 1_555 1_555
H3_8 C6_8 1_555 1_555
C7_8 C2_8 1_555 1_555
H4_8 C7_8 1_555 1_555
C14_8 P1_8 1_555 1_555
C15_8 C14_8 1_555 1_555
H9_8 C15_8 1_555 1_555
C16_8 C15_8 1_555 1_555
H10_8 C16_8 1_555 1_555
C20_8 P1_8 1_555 1_555
C21_8 C20_8 1_555 1_555
H14_8 C21_8 1_555 1_555
C22_8 C21_8 1_555 1_555
H15_8 C22_8 1_555 1_555
C23_8 C22_8 1_555 1_555
H16_8 C23_8 1_555 1_555
C24_8 C23_8 1_555 1_555
H17_8 C24_8 1_555 1_555
C25_8 C20_8 1_555 1_555
H18_8 C25_8 1_555 1_555
C38_10 O1_8 1_555 1_555
O1_8 Ag1_8 1_555 1_555
O2_10 C38_10 1_555 1_555
P5_5 C43_8 1_555 1_555
C39_8 C1_8 1_555 1_555
C40_8 C39_8 1_555 1_555
C41_8 C40_8 1_555 1_555
H29_8 C41_8 1_555 1_555
C42_8 C41_8 1_555 1_555
H30_8 C42_8 1_555 1_555
C43_8 C42_8 1_555 1_555
C44_8 C43_8 1_555 1_555
H31_8 C44_8 1_555 1_555
C45_8 C40_8 1_555 1_555
H32_8 C45_8 1_555 1_555
C46_8 C39_8 1_555 1_555
C52_8 P5_5 1_555 1_555
C53_8 C52_8 1_555 1_555
H37_8 C53_8 1_555 1_555
C54_8 C53_8 1_555 1_555
H38_8 C54_8 1_555 1_555
C55_8 C54_8 1_555 1_555
H39_8 C55_8 1_555 1_555
C56_8 C55_8 1_555 1_555
H40_8 C56_8 1_555 1_555
C57_8 C52_8 1_555 1_555
H41_8 C57_8 1_555 1_555
C58_8 P5_5 1_555 1_555
C59_8 C58_8 1_555 1_555
H42_8 C59_8 1_555 1_555
C60_8 C59_8 1_555 1_555
H43_8 C60_8 1_555 1_555
C61_8 C60_8 1_555 1_555
H44_8 C61_8 1_555 1_555
C62_8 C61_8 1_555 1_555
H45_8 C62_8 1_555 1_555
C63_8 C58_8 1_555 1_555
H46_8 C63_8 1_555 1_555
H49_8 C67_8 1_555 1_555
C68_8 C67_8 1_555 1_555
H50_8 C68_8 1_555 1_555
O3_8 C38_10 1_555 1_555
Ag2_6 O3_8 1_555 1_555
P5_6 Ag2_6 1_555 1_555
P6_8 Ag1_8 1_555 1_555
P7_8 Ag2_6 1_555 1_555
C6_8 C7_8 1_555 1_555
C24_8 C25_8 1_555 1_555
C44_8 C45_8 1_555 1_555
C56_8 C57_8 1_555 1_555
C62_8 C63_8 1_555 1_555
P2_8 C11_8 1_555 1_555
C9_8 C8_8 1_555 1_555
H5_8 C9_8 1_555 1_555
C10_8 C9_8 1_555 1_555
H6_8 C10_8 1_555 1_555
C11_8 C10_8 1_555 1_555
C12_8 C11_8 1_555 1_555
H7_8 C12_8 1_555 1_555
C13_8 C8_8 1_555 1_555
H8_8 C13_8 1_555 1_555
H11_8 C17_8 1_555 1_555
C18_8 C17_8 1_555 1_555
H12_8 C18_8 1_555 1_555
H13_8 C19_8 1_555 1_555
C26_8 P2_8 1_555 1_555
C27_8 C26_8 1_555 1_555
H19_8 C27_8 1_555 1_555
C28_8 C27_8 1_555 1_555
H20_8 C28_8 1_555 1_555
C29_8 C28_8 1_555 1_555
H21_8 C29_8 1_555 1_555
C30_8 C29_8 1_555 1_555
H22_8 C30_8 1_555 1_555
C31_8 C26_8 1_555 1_555
H23_8 C31_8 1_555 1_555
C32_8 P2_8 1_555 1_555
C33_8 C32_8 1_555 1_555
H24_8 C33_8 1_555 1_555
C34_8 C33_8 1_555 1_555
H25_8 C34_8 1_555 1_555
C35_8 C34_8 1_555 1_555
H26_8 C35_8 1_555 1_555
C36_8 C35_8 1_555 1_555
H27_8 C36_8 1_555 1_555
C37_8 C32_8 1_555 1_555
H28_8 C37_8 1_555 1_555
P4_8 C49_8 1_555 1_555
H33_8 C47_8 1_555 1_555
C48_8 C47_8 1_555 1_555
H34_8 C48_8 1_555 1_555
C49_8 C48_8 1_555 1_555
C50_8 C49_8 1_555 1_555
H35_8 C50_8 1_555 1_555
C64_8 P4_8 1_555 1_555
C65_8 C64_8 1_555 1_555
H47_8 C65_8 1_555 1_555
C66_8 C65_8 1_555 1_555
H48_8 C66_8 1_555 1_555
C69_8 C64_8 1_555 1_555
H51_8 C69_8 1_555 1_555
C70_8 P4_8 1_555 1_555
C71_8 C70_8 1_555 1_555
H52_8 C71_8 1_555 1_555
C72_8 C71_8 1_555 1_555
H53_8 C72_8 1_555 1_555
C73_8 C72_8 1_555 1_555
H54_8 C73_8 1_555 1_555
C74_8 C73_8 1_555 1_555
H55_8 C74_8 1_555 1_555
C75_8 C70_8 1_555 1_555
H56_8 C75_8 1_555 1_555
Ag4_8 P4_8 1_555 1_555
Ag5_8 P2_8 1_555 1_555
C12_8 C13_8 1_555 1_555
C18_8 C19_8 1_555 1_555
C30_8 C31_8 1_555 1_555
C36_8 C37_8 1_555 1_555
C50_8 C51_8 1_555 1_555
C74_8 C75_8 1_555 1_555
Ag1_9 P1_9 1_555 1_555
P1_9 C5_9 1_555 1_555
P2_9 C11_9 1_555 1_555
C1_9 C2_9 1_555 1_555
C2_9 C3_9 1_555 1_555
C3_9 H1_9 1_555 1_555
C4_9 C3_9 1_555 1_555
H2_9 C4_9 1_555 1_555
C5_9 C4_9 1_555 1_555
C6_9 C5_9 1_555 1_555
H3_9 C6_9 1_555 1_555
C7_9 C2_9 1_555 1_555
H4_9 C7_9 1_555 1_555
C8_9 C1_9 1_555 1_555
C9_9 C8_9 1_555 1_555
H5_9 C9_9 1_555 1_555
C10_9 C9_9 1_555 1_555
H6_9 C10_9 1_555 1_555
C11_9 C10_9 1_555 1_555
C12_9 C11_9 1_555 1_555
H7_9 C12_9 1_555 1_555
C13_9 C8_9 1_555 1_555
H8_9 C13_9 1_555 1_555
C14_9 P1_9 1_555 1_555
C15_9 C14_9 1_555 1_555
H9_9 C15_9 1_555 1_555
C16_9 C15_9 1_555 1_555
H10_9 C16_9 1_555 1_555
C17_9 C16_9 1_555 1_555
H11_9 C17_9 1_555 1_555
C18_9 C17_9 1_555 1_555
H12_9 C18_9 1_555 1_555
C19_9 C14_9 1_555 1_555
H13_9 C19_9 1_555 1_555
C20_9 P1_9 1_555 1_555
C21_9 C20_9 1_555 1_555
H14_9 C21_9 1_555 1_555
C22_9 C21_9 1_555 1_555
H15_9 C22_9 1_555 1_555
C23_9 C22_9 1_555 1_555
H16_9 C23_9 1_555 1_555
C24_9 C23_9 1_555 1_555
H17_9 C24_9 1_555 1_555
C25_9 C20_9 1_555 1_555
H18_9 C25_9 1_555 1_555
C26_9 P2_9 1_555 1_555
C27_9 C26_9 1_555 1_555
H19_9 C27_9 1_555 1_555
C28_9 C27_9 1_555 1_555
H20_9 C28_9 1_555 1_555
C29_9 C28_9 1_555 1_555
H21_9 C29_9 1_555 1_555
C30_9 C29_9 1_555 1_555
H22_9 C30_9 1_555 1_555
C31_9 C26_9 1_555 1_555
H23_9 C31_9 1_555 1_555
C32_9 P2_9 1_555 1_555
C33_9 C32_9 1_555 1_555
H24_9 C33_9 1_555 1_555
C34_9 C33_9 1_555 1_555
H25_9 C34_9 1_555 1_555
C35_9 C34_9 1_555 1_555
H26_9 C35_9 1_555 1_555
C36_9 C35_9 1_555 1_555
H27_9 C36_9 1_555 1_555
C37_9 C32_9 1_555 1_555
H28_9 C37_9 1_555 1_555
C38_11 O1_9 1_555 1_555
O1_9 Ag1_9 1_555 1_555
O2_11 C38_11 1_555 1_555
P5_6 C43_9 1_555 1_555
P4_9 C49_9 1_555 1_555
C39_9 C1_9 1_555 1_555
C40_9 C39_9 1_555 1_555
C41_9 C40_9 1_555 1_555
H29_9 C41_9 1_555 1_555
C42_9 C41_9 1_555 1_555
H30_9 C42_9 1_555 1_555
C43_9 C42_9 1_555 1_555
C44_9 C43_9 1_555 1_555
H31_9 C44_9 1_555 1_555
C45_9 C40_9 1_555 1_555
H32_9 C45_9 1_555 1_555
C46_9 C39_9 1_555 1_555
C47_9 C46_9 1_555 1_555
H33_9 C47_9 1_555 1_555
C48_9 C47_9 1_555 1_555
H34_9 C48_9 1_555 1_555
C49_9 C48_9 1_555 1_555
C50_9 C49_9 1_555 1_555
H35_9 C50_9 1_555 1_555
C51_9 C46_9 1_555 1_555
H36_9 C51_9 1_555 1_555
C52_9 P5_6 1_555 1_555
C53_9 C52_9 1_555 1_555
H37_9 C53_9 1_555 1_555
C54_9 C53_9 1_555 1_555
H38_9 C54_9 1_555 1_555
C55_9 C54_9 1_555 1_555
H39_9 C55_9 1_555 1_555
C56_9 C55_9 1_555 1_555
H40_9 C56_9 1_555 1_555
C57_9 C52_9 1_555 1_555
H41_9 C57_9 1_555 1_555
C58_9 P5_6 1_555 1_555
C59_9 C58_9 1_555 1_555
H42_9 C59_9 1_555 1_555
C60_9 C59_9 1_555 1_555
H43_9 C60_9 1_555 1_555
C61_9 C60_9 1_555 1_555
H44_9 C61_9 1_555 1_555
C62_9 C61_9 1_555 1_555
H45_9 C62_9 1_555 1_555
C63_9 C58_9 1_555 1_555
H46_9 C63_9 1_555 1_555
C64_9 P4_9 1_555 1_555
C65_9 C64_9 1_555 1_555
H47_9 C65_9 1_555 1_555
C66_9 C65_9 1_555 1_555
H48_9 C66_9 1_555 1_555
C67_9 C66_9 1_555 1_555
H49_9 C67_9 1_555 1_555
C68_9 C67_9 1_555 1_555
H50_9 C68_9 1_555 1_555
C69_9 C64_9 1_555 1_555
H51_9 C69_9 1_555 1_555
C70_9 P4_9 1_555 1_555
C71_9 C70_9 1_555 1_555
H52_9 C71_9 1_555 1_555
C72_9 C71_9 1_555 1_555
H53_9 C72_9 1_555 1_555
C73_9 C72_9 1_555 1_555
H54_9 C73_9 1_555 1_555
C74_9 C73_9 1_555 1_555
H55_9 C74_9 1_555 1_555
C75_9 C70_9 1_555 1_555
H56_9 C75_9 1_555 1_555
O3_9 C38_11 1_555 1_555
Ag3_3 O3_9 1_555 1_555
Ag4_9 P4_9 1_555 1_555
Ag5_9 P2_9 1_555 1_555
P6_9 Ag1_9 1_555 1_555
P7_9 Ag3_3 1_555 1_555
C6_9 C7_9 1_555 1_555
C12_9 C13_9 1_555 1_555
C18_9 C19_9 1_555 1_555
C24_9 C25_9 1_555 1_555
C30_9 C31_9 1_555 1_555
C36_9 C37_9 1_555 1_555
C44_9 C45_9 1_555 1_555
C50_9 C51_9 1_555 1_555
C56_9 C57_9 1_555 1_555
C62_9 C63_9 1_555 1_555
C68_9 C69_9 1_555 1_555
C74_9 C75_9 1_555 1_555
O2_12 C38_12 1_555 1_555
O3_10 C38_12 1_555 1_555
Ag5_4 O3_10 1_555 1_555
P5_7 Ag5_4 1_555 1_555
Ag4_8 P1_10 1_555 1_555
P1_10 C5_10 1_555 1_555
P7_4 C11_10 1_555 1_555
C1_10 C2_10 1_555 1_555
C2_10 C3_10 1_555 1_555
C3_10 H1_10 1_555 1_555
C4_10 C3_10 1_555 1_555
H2_10 C4_10 1_555 1_555
C5_10 C4_10 1_555 1_555
C6_10 C5_10 1_555 1_555
H3_10 C6_10 1_555 1_555
C7_10 C2_10 1_555 1_555
H4_10 C7_10 1_555 1_555
C8_10 C1_10 1_555 1_555
C9_10 C8_10 1_555 1_555
H5_10 C9_10 1_555 1_555
C10_10 C9_10 1_555 1_555
H6_10 C10_10 1_555 1_555
C11_10 C10_10 1_555 1_555
C12_10 C11_10 1_555 1_555
H7_10 C12_10 1_555 1_555
C13_10 C8_10 1_555 1_555
H8_10 C13_10 1_555 1_555
C14_10 P1_10 1_555 1_555
C15_10 C14_10 1_555 1_555
H9_10 C15_10 1_555 1_555
C16_10 C15_10 1_555 1_555
H10_10 C16_10 1_555 1_555
C17_10 C16_10 1_555 1_555
H11_10 C17_10 1_555 1_555
C18_10 C17_10 1_555 1_555
H12_10 C18_10 1_555 1_555
C19_10 C14_10 1_555 1_555
H13_10 C19_10 1_555 1_555
C20_10 P1_10 1_555 1_555
C21_10 C20_10 1_555 1_555
H14_10 C21_10 1_555 1_555
C22_10 C21_10 1_555 1_555
H15_10 C22_10 1_555 1_555
C23_10 C22_10 1_555 1_555
H16_10 C23_10 1_555 1_555
C24_10 C23_10 1_555 1_555
H17_10 C24_10 1_555 1_555
C25_10 C20_10 1_555 1_555
H18_10 C25_10 1_555 1_555
C26_10 P7_4 1_555 1_555
C27_10 C26_10 1_555 1_555
H19_10 C27_10 1_555 1_555
C28_10 C27_10 1_555 1_555
H20_10 C28_10 1_555 1_555
C29_10 C28_10 1_555 1_555
H21_10 C29_10 1_555 1_555
C30_10 C29_10 1_555 1_555
H22_10 C30_10 1_555 1_555
C31_10 C26_10 1_555 1_555
H23_10 C31_10 1_555 1_555
C32_10 P7_4 1_555 1_555
C33_10 C32_10 1_555 1_555
H24_10 C33_10 1_555 1_555
C34_10 C33_10 1_555 1_555
H25_10 C34_10 1_555 1_555
C35_10 C34_10 1_555 1_555
H26_10 C35_10 1_555 1_555
C36_10 C35_10 1_555 1_555
H27_10 C36_10 1_555 1_555
C37_10 C32_10 1_555 1_555
H28_10 C37_10 1_555 1_555
C38_13 O1_10 1_555 1_555
O1_10 Ag4_8 1_555 1_555
O2_13 C38_13 1_555 1_555
P3_4 C43_10 1_555 1_555
P6_9 C49_10 1_555 1_555
C39_10 C1_10 1_555 1_555
C40_10 C39_10 1_555 1_555
C41_10 C40_10 1_555 1_555
H29_10 C41_10 1_555 1_555
C42_10 C41_10 1_555 1_555
H30_10 C42_10 1_555 1_555
C43_10 C42_10 1_555 1_555
C44_10 C43_10 1_555 1_555
H31_10 C44_10 1_555 1_555
C45_10 C40_10 1_555 1_555
H32_10 C45_10 1_555 1_555
C46_10 C39_10 1_555 1_555
C47_10 C46_10 1_555 1_555
H33_10 C47_10 1_555 1_555
C48_10 C47_10 1_555 1_555
H34_10 C48_10 1_555 1_555
C49_10 C48_10 1_555 1_555
C50_10 C49_10 1_555 1_555
H35_10 C50_10 1_555 1_555
C51_10 C46_10 1_555 1_555
H36_10 C51_10 1_555 1_555
C52_10 P3_4 1_555 1_555
C53_10 C52_10 1_555 1_555
H37_10 C53_10 1_555 1_555
C54_10 C53_10 1_555 1_555
H38_10 C54_10 1_555 1_555
C55_10 C54_10 1_555 1_555
H39_10 C55_10 1_555 1_555
C56_10 C55_10 1_555 1_555
H40_10 C56_10 1_555 1_555
C57_10 C52_10 1_555 1_555
H41_10 C57_10 1_555 1_555
C58_10 P3_4 1_555 1_555
C59_10 C58_10 1_555 1_555
H42_10 C59_10 1_555 1_555
C60_10 C59_10 1_555 1_555
H43_10 C60_10 1_555 1_555
C61_10 C60_10 1_555 1_555
H44_10 C61_10 1_555 1_555
C62_10 C61_10 1_555 1_555
H45_10 C62_10 1_555 1_555
C63_10 C58_10 1_555 1_555
H46_10 C63_10 1_555 1_555
C64_10 P6_9 1_555 1_555
C65_10 C64_10 1_555 1_555
H47_10 C65_10 1_555 1_555
C66_10 C65_10 1_555 1_555
H48_10 C66_10 1_555 1_555
C67_10 C66_10 1_555 1_555
H49_10 C67_10 1_555 1_555
C68_10 C67_10 1_555 1_555
H50_10 C68_10 1_555 1_555
C69_10 C64_10 1_555 1_555
H51_10 C69_10 1_555 1_555
C70_10 P6_9 1_555 1_555
C71_10 C70_10 1_555 1_555
H52_10 C71_10 1_555 1_555
C72_10 C71_10 1_555 1_555
H53_10 C72_10 1_555 1_555
C73_10 C72_10 1_555 1_555
H54_10 C73_10 1_555 1_555
C74_10 C73_10 1_555 1_555
H55_10 C74_10 1_555 1_555
C75_10 C70_10 1_555 1_555
H56_10 C75_10 1_555 1_555
Ag5_6 P3_4 1_555 1_555
C6_10 C7_10 1_555 1_555
C12_10 C13_10 1_555 1_555
C18_10 C19_10 1_555 1_555
C24_10 C25_10 1_555 1_555
C30_10 C31_10 1_555 1_555
C36_10 C37_10 1_555 1_555
C44_10 C45_10 1_555 1_555
C50_10 C51_10 1_555 1_555
C56_10 C57_10 1_555 1_555
C62_10 C63_10 1_555 1_555
C68_10 C69_10 1_555 1_555
C74_10 C75_10 1_555 1_555
Ag4_9 P1_11 1_555 1_555
P1_11 C5_11 1_555 1_555
P7_5 C11_11 1_555 1_555
C1_11 C2_11 1_555 1_555
C2_11 C3_11 1_555 1_555
C3_11 H1_11 1_555 1_555
C4_11 C3_11 1_555 1_555
H2_11 C4_11 1_555 1_555
C5_11 C4_11 1_555 1_555
C6_11 C5_11 1_555 1_555
H3_11 C6_11 1_555 1_555
C7_11 C2_11 1_555 1_555
H4_11 C7_11 1_555 1_555
C8_11 C1_11 1_555 1_555
C9_11 C8_11 1_555 1_555
H5_11 C9_11 1_555 1_555
C10_11 C9_11 1_555 1_555
H6_11 C10_11 1_555 1_555
C11_11 C10_11 1_555 1_555
C12_11 C11_11 1_555 1_555
H7_11 C12_11 1_555 1_555
C13_11 C8_11 1_555 1_555
H8_11 C13_11 1_555 1_555
C14_11 P1_11 1_555 1_555
C15_11 C14_11 1_555 1_555
H9_11 C15_11 1_555 1_555
C16_11 C15_11 1_555 1_555
H10_11 C16_11 1_555 1_555
C17_11 C16_11 1_555 1_555
H11_11 C17_11 1_555 1_555
C18_11 C17_11 1_555 1_555
H12_11 C18_11 1_555 1_555
C19_11 C14_11 1_555 1_555
H13_11 C19_11 1_555 1_555
C20_11 P1_11 1_555 1_555
C21_11 C20_11 1_555 1_555
H14_11 C21_11 1_555 1_555
C22_11 C21_11 1_555 1_555
H15_11 C22_11 1_555 1_555
C23_11 C22_11 1_555 1_555
H16_11 C23_11 1_555 1_555
C24_11 C23_11 1_555 1_555
H17_11 C24_11 1_555 1_555
C25_11 C20_11 1_555 1_555
H18_11 C25_11 1_555 1_555
C26_11 P7_5 1_555 1_555
C27_11 C26_11 1_555 1_555
H19_11 C27_11 1_555 1_555
C28_11 C27_11 1_555 1_555
H20_11 C28_11 1_555 1_555
C29_11 C28_11 1_555 1_555
H21_11 C29_11 1_555 1_555
C30_11 C29_11 1_555 1_555
H22_11 C30_11 1_555 1_555
C31_11 C26_11 1_555 1_555
H23_11 C31_11 1_555 1_555
C32_11 P7_5 1_555 1_555
C33_11 C32_11 1_555 1_555
H24_11 C33_11 1_555 1_555
C34_11 C33_11 1_555 1_555
H25_11 C34_11 1_555 1_555
C35_11 C34_11 1_555 1_555
H26_11 C35_11 1_555 1_555
C36_11 C35_11 1_555 1_555
H27_11 C36_11 1_555 1_555
C37_11 C32_11 1_555 1_555
H28_11 C37_11 1_555 1_555
C38_14 O1_11 1_555 1_555
O1_11 Ag4_9 1_555 1_555
O2_14 C38_14 1_555 1_555
O3_11 C38_14 1_555 1_555
Ag5_5 O3_11 1_555 1_555
P5_8 Ag5_5 1_555 1_555
C6_11 C7_11 1_555 1_555
C12_11 C13_11 1_555 1_555
C18_11 C19_11 1_555 1_555
C24_11 C25_11 1_555 1_555
C30_11 C31_11 1_555 1_555
C36_11 C37_11 1_555 1_555
P5_7 C43_11 1_555 1_555
P6_7 C49_11 1_555 1_555
C40_11 C39_11 1_555 1_555
C41_11 C40_11 1_555 1_555
H29_11 C41_11 1_555 1_555
C42_11 C41_11 1_555 1_555
H30_11 C42_11 1_555 1_555
C43_11 C42_11 1_555 1_555
C44_11 C43_11 1_555 1_555
H31_11 C44_11 1_555 1_555
C45_11 C40_11 1_555 1_555
H32_11 C45_11 1_555 1_555
C46_11 C39_11 1_555 1_555
C47_11 C46_11 1_555 1_555
H33_11 C47_11 1_555 1_555
C48_11 C47_11 1_555 1_555
H34_11 C48_11 1_555 1_555
C49_11 C48_11 1_555 1_555
C50_11 C49_11 1_555 1_555
H35_11 C50_11 1_555 1_555
C51_11 C46_11 1_555 1_555
H36_11 C51_11 1_555 1_555
C52_11 P5_7 1_555 1_555
C53_11 C52_11 1_555 1_555
H37_11 C53_11 1_555 1_555
C54_11 C53_11 1_555 1_555
H38_11 C54_11 1_555 1_555
C55_11 C54_11 1_555 1_555
H39_11 C55_11 1_555 1_555
C56_11 C55_11 1_555 1_555
H40_11 C56_11 1_555 1_555
C57_11 C52_11 1_555 1_555
H41_11 C57_11 1_555 1_555
C58_11 P5_7 1_555 1_555
C59_11 C58_11 1_555 1_555
H42_11 C59_11 1_555 1_555
C60_11 C59_11 1_555 1_555
H43_11 C60_11 1_555 1_555
C61_11 C60_11 1_555 1_555
H44_11 C61_11 1_555 1_555
C62_11 C61_11 1_555 1_555
H45_11 C62_11 1_555 1_555
C63_11 C58_11 1_555 1_555
H46_11 C63_11 1_555 1_555
C64_11 P6_7 1_555 1_555
C65_11 C64_11 1_555 1_555
H47_11 C65_11 1_555 1_555
C66_11 C65_11 1_555 1_555
H48_11 C66_11 1_555 1_555
C67_11 C66_11 1_555 1_555
H49_11 C67_11 1_555 1_555
C68_11 C67_11 1_555 1_555
H50_11 C68_11 1_555 1_555
C69_11 C64_11 1_555 1_555
H51_11 C69_11 1_555 1_555
C70_11 P6_7 1_555 1_555
C71_11 C70_11 1_555 1_555
H52_11 C71_11 1_555 1_555
C72_11 C71_11 1_555 1_555
H53_11 C72_11 1_555 1_555
C73_11 C72_11 1_555 1_555
H54_11 C73_11 1_555 1_555
C74_11 C73_11 1_555 1_555
H55_11 C74_11 1_555 1_555
C75_11 C70_11 1_555 1_555
H56_11 C75_11 1_555 1_555
C44_11 C45_11 1_555 1_555
C50_11 C51_11 1_555 1_555
C56_11 C57_11 1_555 1_555
C62_11 C63_11 1_555 1_555
C68_11 C69_11 1_555 1_555
C74_11 C75_11 1_555 1_555
P5_8 C43_12 1_555 1_555
P6_8 C49_12 1_555 1_555
C40_12 C39_12 1_555 1_555
C41_12 C40_12 1_555 1_555
H29_12 C41_12 1_555 1_555
C42_12 C41_12 1_555 1_555
H30_12 C42_12 1_555 1_555
C43_12 C42_12 1_555 1_555
C44_12 C43_12 1_555 1_555
H31_12 C44_12 1_555 1_555
C45_12 C40_12 1_555 1_555
H32_12 C45_12 1_555 1_555
C46_12 C39_12 1_555 1_555
C47_12 C46_12 1_555 1_555
H33_12 C47_12 1_555 1_555
C48_12 C47_12 1_555 1_555
H34_12 C48_12 1_555 1_555
C49_12 C48_12 1_555 1_555
C50_12 C49_12 1_555 1_555
H35_12 C50_12 1_555 1_555
C51_12 C46_12 1_555 1_555
H36_12 C51_12 1_555 1_555
C52_12 P5_8 1_555 1_555
C53_12 C52_12 1_555 1_555
H37_12 C53_12 1_555 1_555
C54_12 C53_12 1_555 1_555
H38_12 C54_12 1_555 1_555
C55_12 C54_12 1_555 1_555
H39_12 C55_12 1_555 1_555
C56_12 C55_12 1_555 1_555
H40_12 C56_12 1_555 1_555
C57_12 C52_12 1_555 1_555
H41_12 C57_12 1_555 1_555
C58_12 P5_8 1_555 1_555
C59_12 C58_12 1_555 1_555
H42_12 C59_12 1_555 1_555
C60_12 C59_12 1_555 1_555
H43_12 C60_12 1_555 1_555
C61_12 C60_12 1_555 1_555
H44_12 C61_12 1_555 1_555
C62_12 C61_12 1_555 1_555
H45_12 C62_12 1_555 1_555
C63_12 C58_12 1_555 1_555
H46_12 C63_12 1_555 1_555
C64_12 P6_8 1_555 1_555
C65_12 C64_12 1_555 1_555
H47_12 C65_12 1_555 1_555
C66_12 C65_12 1_555 1_555
H48_12 C66_12 1_555 1_555
C67_12 C66_12 1_555 1_555
H49_12 C67_12 1_555 1_555
C68_12 C67_12 1_555 1_555
H50_12 C68_12 1_555 1_555
C69_12 C64_12 1_555 1_555
H51_12 C69_12 1_555 1_555
C70_12 P6_8 1_555 1_555
C71_12 C70_12 1_555 1_555
H52_12 C71_12 1_555 1_555
C72_12 C71_12 1_555 1_555
H53_12 C72_12 1_555 1_555
C73_12 C72_12 1_555 1_555
H54_12 C73_12 1_555 1_555
C74_12 C73_12 1_555 1_555
H55_12 C74_12 1_555 1_555
C75_12 C70_12 1_555 1_555
H56_12 C75_12 1_555 1_555
C44_12 C45_12 1_555 1_555
C50_12 C51_12 1_555 1_555
C56_12 C57_12 1_555 1_555
C62_12 C63_12 1_555 1_555
C68_12 C69_12 1_555 1_555
C74_12 C75_12 1_555 1_555
Ag4_7 P1_12 1_555 1_555
P1_12 C5_12 1_555 1_555
P7_6 C11_12 1_555 1_555
C1_12 C2_12 1_555 1_555
C2_12 C3_12 1_555 1_555
C3_12 H1_12 1_555 1_555
C4_12 C3_12 1_555 1_555
H2_12 C4_12 1_555 1_555
C5_12 C4_12 1_555 1_555
C6_12 C5_12 1_555 1_555
H3_12 C6_12 1_555 1_555
C7_12 C2_12 1_555 1_555
H4_12 C7_12 1_555 1_555
C8_12 C1_12 1_555 1_555
C9_12 C8_12 1_555 1_555
H5_12 C9_12 1_555 1_555
C10_12 C9_12 1_555 1_555
H6_12 C10_12 1_555 1_555
C11_12 C10_12 1_555 1_555
C12_12 C11_12 1_555 1_555
H7_12 C12_12 1_555 1_555
C13_12 C8_12 1_555 1_555
H8_12 C13_12 1_555 1_555
C14_12 P1_12 1_555 1_555
C15_12 C14_12 1_555 1_555
H9_12 C15_12 1_555 1_555
C16_12 C15_12 1_555 1_555
H10_12 C16_12 1_555 1_555
C17_12 C16_12 1_555 1_555
H11_12 C17_12 1_555 1_555
C18_12 C17_12 1_555 1_555
H12_12 C18_12 1_555 1_555
C19_12 C14_12 1_555 1_555
H13_12 C19_12 1_555 1_555
C20_12 P1_12 1_555 1_555
C21_12 C20_12 1_555 1_555
H14_12 C21_12 1_555 1_555
C22_12 C21_12 1_555 1_555
H15_12 C22_12 1_555 1_555
C23_12 C22_12 1_555 1_555
H16_12 C23_12 1_555 1_555
C24_12 C23_12 1_555 1_555
H17_12 C24_12 1_555 1_555
C25_12 C20_12 1_555 1_555
H18_12 C25_12 1_555 1_555
C26_12 P7_6 1_555 1_555
C27_12 C26_12 1_555 1_555
H19_12 C27_12 1_555 1_555
C28_12 C27_12 1_555 1_555
H20_12 C28_12 1_555 1_555
C29_12 C28_12 1_555 1_555
H21_12 C29_12 1_555 1_555
C30_12 C29_12 1_555 1_555
H22_12 C30_12 1_555 1_555
C31_12 C26_12 1_555 1_555
H23_12 C31_12 1_555 1_555
C32_12 P7_6 1_555 1_555
C33_12 C32_12 1_555 1_555
H24_12 C33_12 1_555 1_555
C34_12 C33_12 1_555 1_555
H25_12 C34_12 1_555 1_555
C35_12 C34_12 1_555 1_555
H26_12 C35_12 1_555 1_555
C36_12 C35_12 1_555 1_555
H27_12 C36_12 1_555 1_555
C37_12 C32_12 1_555 1_555
H28_12 C37_12 1_555 1_555
C38_15 O1_12 1_555 1_555
O1_12 Ag4_7 1_555 1_555
O2_15 C38_15 1_555 1_555
C6_12 C7_12 1_555 1_555
C12_12 C13_12 1_555 1_555
C18_12 C19_12 1_555 1_555
C24_12 C25_12 1_555 1_555
C30_12 C31_12 1_555 1_555
C36_12 C37_12 1_555 1_555
O2_16 C38_16 1_555 1_555
O3_12 C38_16 1_555 1_555
Ag5_6 O3_12 1_555 1_555
H43_13 C60_13 1_555 1_555
C61_13 C60_13 1_555 1_555
H44_13 C61_13 1_555 1_555
C62_13 C61_13 1_555 1_555
H45_13 C62_13 1_555 1_555
H46_13 C63_13 1_555 1_555
C62_13 C63_13 1_555 1_555
Ag4_5 P1_13 1_555 1_555
P1_13 C5_13 1_555 1_555
C1_13 C2_13 1_555 1_555
C2_13 C3_13 1_555 1_555
C3_13 H1_13 1_555 1_555
C4_13 C3_13 1_555 1_555
H2_13 C4_13 1_555 1_555
C5_13 C4_13 1_555 1_555
C6_13 C5_13 1_555 1_555
H3_13 C6_13 1_555 1_555
C7_13 C2_13 1_555 1_555
H4_13 C7_13 1_555 1_555
C8_13 C1_13 1_555 1_555
C14_13 P1_13 1_555 1_555
C15_13 C14_13 1_555 1_555
H9_13 C15_13 1_555 1_555
C16_13 C15_13 1_555 1_555
H10_13 C16_13 1_555 1_555
C17_13 C16_13 1_555 1_555
H11_13 C17_13 1_555 1_555
C18_13 C17_13 1_555 1_555
H12_13 C18_13 1_555 1_555
C19_13 C14_13 1_555 1_555
H13_13 C19_13 1_555 1_555
C20_13 P1_13 1_555 1_555
C21_13 C20_13 1_555 1_555
H14_13 C21_13 1_555 1_555
C22_13 C21_13 1_555 1_555
H15_13 C22_13 1_555 1_555
C23_13 C22_13 1_555 1_555
H16_13 C23_13 1_555 1_555
C24_13 C23_13 1_555 1_555
H17_13 C24_13 1_555 1_555
C25_13 C20_13 1_555 1_555
H18_13 C25_13 1_555 1_555
C30_13 C29_13 1_555 1_555
H22_13 C30_13 1_555 1_555
C38_17 O1_13 1_555 1_555
O1_13 Ag4_5 1_555 1_555
O2_17 C38_17 1_555 1_555
P3_5 C43_13 1_555 1_555
C39_13 C1_13 1_555 1_555
C40_13 C39_13 1_555 1_555
C41_13 C40_13 1_555 1_555
H29_13 C41_13 1_555 1_555
C42_13 C41_13 1_555 1_555
H30_13 C42_13 1_555 1_555
C43_13 C42_13 1_555 1_555
C44_13 C43_13 1_555 1_555
H31_13 C44_13 1_555 1_555
C45_13 C40_13 1_555 1_555
H32_13 C45_13 1_555 1_555
C52_13 P3_5 1_555 1_555
C53_13 C52_13 1_555 1_555
H37_13 C53_13 1_555 1_555
C54_13 C53_13 1_555 1_555
H38_13 C54_13 1_555 1_555
C58_13 P3_5 1_555 1_555
C59_13 C58_13 1_555 1_555
H42_13 C59_13 1_555 1_555
O3_13 C38_17 1_555 1_555
Ag5 O3_13 1_555 1_555
Ag5_3 P3_5 1_555 1_555
P5_9 Ag5 1_555 1_555
C6_13 C7_13 1_555 1_555
C18_13 C19_13 1_555 1_555
C24_13 C25_13 1_555 1_555
C44_13 C45_13 1_555 1_555
H20_13 C28_13 1_555 1_555
P7 C11_13 1_555 1_555
H5_13 C9_13 1_555 1_555
C10_13 C9_13 1_555 1_555
H6_13 C10_13 1_555 1_555
C11_13 C10_13 1_555 1_555
C12_13 C11_13 1_555 1_555
H7_13 C12_13 1_555 1_555
C26_13 P7 1_555 1_555
C27_13 C26_13 1_555 1_555
C31_13 C26_13 1_555 1_555
H23_13 C31_13 1_555 1_555
C32_13 P7 1_555 1_555
C33_13 C32_13 1_555 1_555
H24_13 C33_13 1_555 1_555
C34_13 C33_13 1_555 1_555
H25_13 C34_13 1_555 1_555
C35_13 C34_13 1_555 1_555
H26_13 C35_13 1_555 1_555
C36_13 C35_13 1_555 1_555
H27_13 C36_13 1_555 1_555
C37_13 C32_13 1_555 1_555
H28_13 C37_13 1_555 1_555
P6_6 C49_13 1_555 1_555
C47_13 C46_13 1_555 1_555
H33_13 C47_13 1_555 1_555
C48_13 C47_13 1_555 1_555
H34_13 C48_13 1_555 1_555
C49_13 C48_13 1_555 1_555
C50_13 C49_13 1_555 1_555
H35_13 C50_13 1_555 1_555
C51_13 C46_13 1_555 1_555
H36_13 C51_13 1_555 1_555
H39_13 C55_13 1_555 1_555
C56_13 C55_13 1_555 1_555
H40_13 C56_13 1_555 1_555
H41_13 C57_13 1_555 1_555
C64_13 P6_6 1_555 1_555
C65_13 C64_13 1_555 1_555
H47_13 C65_13 1_555 1_555
C66_13 C65_13 1_555 1_555
H48_13 C66_13 1_555 1_555
C67_13 C66_13 1_555 1_555
H49_13 C67_13 1_555 1_555
C68_13 C67_13 1_555 1_555
H50_13 C68_13 1_555 1_555
C69_13 C64_13 1_555 1_555
H51_13 C69_13 1_555 1_555
C70_13 P6_6 1_555 1_555
C71_13 C70_13 1_555 1_555
H52_13 C71_13 1_555 1_555
C72_13 C71_13 1_555 1_555
H53_13 C72_13 1_555 1_555
C73_13 C72_13 1_555 1_555
H54_13 C73_13 1_555 1_555
C74_13 C73_13 1_555 1_555
H55_13 C74_13 1_555 1_555
C75_13 C70_13 1_555 1_555
H56_13 C75_13 1_555 1_555
C12_13 C13_13 1_555 1_555
C36_13 C37_13 1_555 1_555
C50_13 C51_13 1_555 1_555
C56_13 C57_13 1_555 1_555
C68_13 C69_13 1_555 1_555
C74_13 C75_13 1_555 1_555
H20_14 C28_14 1_555 1_555
H43_14 C60_14 1_555 1_555
C61_14 C60_14 1_555 1_555
H44_14 C61_14 1_555 1_555
C62_14 C61_14 1_555 1_555
H45_14 C62_14 1_555 1_555
H46_14 C63_14 1_555 1_555
C62_14 C63_14 1_555 1_555
Ag4_6 P1_14 1_555 1_555
P1_14 C5_14 1_555 1_555
P7_2 C11_14 1_555 1_555
C1_14 C2_14 1_555 1_555
C2_14 C3_14 1_555 1_555
C3_14 H1_14 1_555 1_555
C4_14 C3_14 1_555 1_555
H2_14 C4_14 1_555 1_555
C5_14 C4_14 1_555 1_555
C6_14 C5_14 1_555 1_555
H3_14 C6_14 1_555 1_555
C7_14 C2_14 1_555 1_555
H4_14 C7_14 1_555 1_555
C8_14 C1_14 1_555 1_555
C9_14 C8_14 1_555 1_555
H5_14 C9_14 1_555 1_555
C10_14 C9_14 1_555 1_555
H6_14 C10_14 1_555 1_555
C11_14 C10_14 1_555 1_555
C12_14 C11_14 1_555 1_555
H7_14 C12_14 1_555 1_555
C13_14 C8_14 1_555 1_555
H8_14 C13_14 1_555 1_555
C14_14 P1_14 1_555 1_555
C15_14 C14_14 1_555 1_555
H9_14 C15_14 1_555 1_555
C16_14 C15_14 1_555 1_555
H10_14 C16_14 1_555 1_555
C17_14 C16_14 1_555 1_555
H11_14 C17_14 1_555 1_555
C18_14 C17_14 1_555 1_555
H12_14 C18_14 1_555 1_555
C19_14 C14_14 1_555 1_555
H13_14 C19_14 1_555 1_555
C20_14 P1_14 1_555 1_555
C21_14 C20_14 1_555 1_555
H14_14 C21_14 1_555 1_555
C22_14 C21_14 1_555 1_555
H15_14 C22_14 1_555 1_555
C23_14 C22_14 1_555 1_555
H16_14 C23_14 1_555 1_555
C24_14 C23_14 1_555 1_555
H17_14 C24_14 1_555 1_555
C25_14 C20_14 1_555 1_555
H18_14 C25_14 1_555 1_555
C26_14 P7_2 1_555 1_555
C27_14 C26_14 1_555 1_555
C30_14 C29_14 1_555 1_555
H22_14 C30_14 1_555 1_555
C31_14 C26_14 1_555 1_555
H23_14 C31_14 1_555 1_555
C32_14 P7_2 1_555 1_555
C33_14 C32_14 1_555 1_555
H24_14 C33_14 1_555 1_555
C34_14 C33_14 1_555 1_555
H25_14 C34_14 1_555 1_555
C35_14 C34_14 1_555 1_555
H26_14 C35_14 1_555 1_555
C36_14 C35_14 1_555 1_555
H27_14 C36_14 1_555 1_555
C37_14 C32_14 1_555 1_555
H28_14 C37_14 1_555 1_555
C38_18 O1_14 1_555 1_555
O1_14 Ag4_6 1_555 1_555
O2_18 C38_18 1_555 1_555
P5_9 C43_14 1_555 1_555
P6_4 C49_14 1_555 1_555
C39_14 C1_14 1_555 1_555
C40_14 C39_14 1_555 1_555
C41_14 C40_14 1_555 1_555
H29_14 C41_14 1_555 1_555
C42_14 C41_14 1_555 1_555
H30_14 C42_14 1_555 1_555
C43_14 C42_14 1_555 1_555
C44_14 C43_14 1_555 1_555
H31_14 C44_14 1_555 1_555
C45_14 C40_14 1_555 1_555
H32_14 C45_14 1_555 1_555
C46_14 C39_14 1_555 1_555
C47_14 C46_14 1_555 1_555
H33_14 C47_14 1_555 1_555
C48_14 C47_14 1_555 1_555
H34_14 C48_14 1_555 1_555
C49_14 C48_14 1_555 1_555
C50_14 C49_14 1_555 1_555
H35_14 C50_14 1_555 1_555
C51_14 C46_14 1_555 1_555
H36_14 C51_14 1_555 1_555
C52_14 P5_9 1_555 1_555
C53_14 C52_14 1_555 1_555
H37_14 C53_14 1_555 1_555
C54_14 C53_14 1_555 1_555
H38_14 C54_14 1_555 1_555
C55_14 C54_14 1_555 1_555
H39_14 C55_14 1_555 1_555
C56_14 C55_14 1_555 1_555
H40_14 C56_14 1_555 1_555
C57_14 C52_14 1_555 1_555
H41_14 C57_14 1_555 1_555
C58_14 P5_9 1_555 1_555
C59_14 C58_14 1_555 1_555
H42_14 C59_14 1_555 1_555
C64_14 P6_4 1_555 1_555
C65_14 C64_14 1_555 1_555
H47_14 C65_14 1_555 1_555
C66_14 C65_14 1_555 1_555
H48_14 C66_14 1_555 1_555
C67_14 C66_14 1_555 1_555
H49_14 C67_14 1_555 1_555
C68_14 C67_14 1_555 1_555
H50_14 C68_14 1_555 1_555
C69_14 C64_14 1_555 1_555
H51_14 C69_14 1_555 1_555
C70_14 P6_4 1_555 1_555
C71_14 C70_14 1_555 1_555
H52_14 C71_14 1_555 1_555
C72_14 C71_14 1_555 1_555
H53_14 C72_14 1_555 1_555
C73_14 C72_14 1_555 1_555
H54_14 C73_14 1_555 1_555
C74_14 C73_14 1_555 1_555
H55_14 C74_14 1_555 1_555
C75_14 C70_14 1_555 1_555
H56_14 C75_14 1_555 1_555
O3_14 C38_18 1_555 1_555
Ag5_2 O3_14 1_555 1_555
P5_10 Ag5_2 1_555 1_555
C6_14 C7_14 1_555 1_555
C12_14 C13_14 1_555 1_555
C18_14 C19_14 1_555 1_555
C24_14 C25_14 1_555 1_555
C30_14 C31_14 1_555 1_555
C36_14 C37_14 1_555 1_555
C44_14 C45_14 1_555 1_555
C50_14 C51_14 1_555 1_555
C56_14 C57_14 1_555 1_555
C68_14 C69_14 1_555 1_555
C74_14 C75_14 1_555 1_555
H20_15 C28_15 1_555 1_555
P7_3 C11_15 1_555 1_555
H5_15 C9_15 1_555 1_555
C10_15 C9_15 1_555 1_555
H6_15 C10_15 1_555 1_555
C11_15 C10_15 1_555 1_555
C12_15 C11_15 1_555 1_555
H7_15 C12_15 1_555 1_555
C26_15 P7_3 1_555 1_555
C27_15 C26_15 1_555 1_555
C31_15 C26_15 1_555 1_555
H23_15 C31_15 1_555 1_555
C32_15 P7_3 1_555 1_555
C33_15 C32_15 1_555 1_555
H24_15 C33_15 1_555 1_555
C34_15 C33_15 1_555 1_555
H25_15 C34_15 1_555 1_555
C35_15 C34_15 1_555 1_555
H26_15 C35_15 1_555 1_555
C36_15 C35_15 1_555 1_555
H27_15 C36_15 1_555 1_555
C37_15 C32_15 1_555 1_555
H28_15 C37_15 1_555 1_555
P6_5 C49_15 1_555 1_555
C47_15 C46_15 1_555 1_555
H33_15 C47_15 1_555 1_555
C48_15 C47_15 1_555 1_555
H34_15 C48_15 1_555 1_555
C49_15 C48_15 1_555 1_555
C50_15 C49_15 1_555 1_555
H35_15 C50_15 1_555 1_555
C51_15 C46_15 1_555 1_555
H36_15 C51_15 1_555 1_555
H39_15 C55_15 1_555 1_555
C56_15 C55_15 1_555 1_555
H40_15 C56_15 1_555 1_555
H41_15 C57_15 1_555 1_555
C64_15 P6_5 1_555 1_555
C65_15 C64_15 1_555 1_555
H47_15 C65_15 1_555 1_555
C66_15 C65_15 1_555 1_555
H48_15 C66_15 1_555 1_555
C67_15 C66_15 1_555 1_555
H49_15 C67_15 1_555 1_555
C68_15 C67_15 1_555 1_555
H50_15 C68_15 1_555 1_555
C69_15 C64_15 1_555 1_555
H51_15 C69_15 1_555 1_555
C70_15 P6_5 1_555 1_555
C71_15 C70_15 1_555 1_555
H52_15 C71_15 1_555 1_555
C72_15 C71_15 1_555 1_555
H53_15 C72_15 1_555 1_555
C73_15 C72_15 1_555 1_555
H54_15 C73_15 1_555 1_555
C74_15 C73_15 1_555 1_555
H55_15 C74_15 1_555 1_555
C75_15 C70_15 1_555 1_555
H56_15 C75_15 1_555 1_555
C12_15 C13_15 1_555 1_555
C36_15 C37_15 1_555 1_555
C50_15 C51_15 1_555 1_555
C56_15 C57_15 1_555 1_555
C68_15 C69_15 1_555 1_555
C74_15 C75_15 1_555 1_555
H43_15 C60_15 1_555 1_555
C61_15 C60_15 1_555 1_555
H44_15 C61_15 1_555 1_555
C62_15 C61_15 1_555 1_555
H45_15 C62_15 1_555 1_555
H46_15 C63_15 1_555 1_555
C62_15 C63_15 1_555 1_555
Ag4_4 P1_15 1_555 1_555
P1_15 C5_15 1_555 1_555
C1_15 C2_15 1_555 1_555
C2_15 C3_15 1_555 1_555
C3_15 H1_15 1_555 1_555
C4_15 C3_15 1_555 1_555
H2_15 C4_15 1_555 1_555
C5_15 C4_15 1_555 1_555
C6_15 C5_15 1_555 1_555
H3_15 C6_15 1_555 1_555
C7_15 C2_15 1_555 1_555
H4_15 C7_15 1_555 1_555
C8_15 C1_15 1_555 1_555
C14_15 P1_15 1_555 1_555
C15_15 C14_15 1_555 1_555
H9_15 C15_15 1_555 1_555
C16_15 C15_15 1_555 1_555
H10_15 C16_15 1_555 1_555
C17_15 C16_15 1_555 1_555
H11_15 C17_15 1_555 1_555
C18_15 C17_15 1_555 1_555
H12_15 C18_15 1_555 1_555
C19_15 C14_15 1_555 1_555
H13_15 C19_15 1_555 1_555
C20_15 P1_15 1_555 1_555
C21_15 C20_15 1_555 1_555
H14_15 C21_15 1_555 1_555
C22_15 C21_15 1_555 1_555
H15_15 C22_15 1_555 1_555
C23_15 C22_15 1_555 1_555
H16_15 C23_15 1_555 1_555
C24_15 C23_15 1_555 1_555
H17_15 C24_15 1_555 1_555
C25_15 C20_15 1_555 1_555
H18_15 C25_15 1_555 1_555
C30_15 C29_15 1_555 1_555
H22_15 C30_15 1_555 1_555
C38_19 O1_15 1_555 1_555
O1_15 Ag4_4 1_555 1_555
O2_19 C38_19 1_555 1_555
P5_10 C43_15 1_555 1_555
C39_15 C1_15 1_555 1_555
C40_15 C39_15 1_555 1_555
C41_15 C40_15 1_555 1_555
H29_15 C41_15 1_555 1_555
C42_15 C41_15 1_555 1_555
H30_15 C42_15 1_555 1_555
C43_15 C42_15 1_555 1_555
C44_15 C43_15 1_555 1_555
H31_15 C44_15 1_555 1_555
C45_15 C40_15 1_555 1_555
H32_15 C45_15 1_555 1_555
C52_15 P5_10 1_555 1_555
C53_15 C52_15 1_555 1_555
H37_15 C53_15 1_555 1_555
C54_15 C53_15 1_555 1_555
H38_15 C54_15 1_555 1_555
C58_15 P5_10 1_555 1_555
C59_15 C58_15 1_555 1_555
H42_15 C59_15 1_555 1_555
O3_15 C38_19 1_555 1_555
Ag5_3 O3_15 1_555 1_555
C6_15 C7_15 1_555 1_555
C18_15 C19_15 1_555 1_555
C24_15 C25_15 1_555 1_555
C44_15 C45_15 1_555 1_555
Ag4_2 P1_16 1_555 1_555
P1_16 C5_16 1_555 1_555
C1_16 C2_16 1_555 1_555
C2_16 C3_16 1_555 1_555
C3_16 H1_16 1_555 1_555
C4_16 C3_16 1_555 1_555
H2_16 C4_16 1_555 1_555
C5_16 C4_16 1_555 1_555
C6_16 C5_16 1_555 1_555
H3_16 C6_16 1_555 1_555
C7_16 C2_16 1_555 1_555
H4_16 C7_16 1_555 1_555
C14_16 P1_16 1_555 1_555
C15_16 C14_16 1_555 1_555
H9_16 C15_16 1_555 1_555
C16_16 C15_16 1_555 1_555
H10_16 C16_16 1_555 1_555
C20_16 P1_16 1_555 1_555
C21_16 C20_16 1_555 1_555
H14_16 C21_16 1_555 1_555
C22_16 C21_16 1_555 1_555
H15_16 C22_16 1_555 1_555
C23_16 C22_16 1_555 1_555
H16_16 C23_16 1_555 1_555
C24_16 C23_16 1_555 1_555
H17_16 C24_16 1_555 1_555
C25_16 C20_16 1_555 1_555
H18_16 C25_16 1_555 1_555
C38_20 O1_16 1_555 1_555
O1_16 Ag4_2 1_555 1_555
O2_20 C38_20 1_555 1_555
P3_6 C43_16 1_555 1_555
C39_16 C1_16 1_555 1_555
C40_16 C39_16 1_555 1_555
C41_16 C40_16 1_555 1_555
H29_16 C41_16 1_555 1_555
C42_16 C41_16 1_555 1_555
H30_16 C42_16 1_555 1_555
C43_16 C42_16 1_555 1_555
C44_16 C43_16 1_555 1_555
H31_16 C44_16 1_555 1_555
C45_16 C40_16 1_555 1_555
H32_16 C45_16 1_555 1_555
C46_16 C39_16 1_555 1_555
C52_16 P3_6 1_555 1_555
C53_16 C52_16 1_555 1_555
H37_16 C53_16 1_555 1_555
C54_16 C53_16 1_555 1_555
H38_16 C54_16 1_555 1_555
C55_16 C54_16 1_555 1_555
H39_16 C55_16 1_555 1_555
C56_16 C55_16 1_555 1_555
H40_16 C56_16 1_555 1_555
C57_16 C52_16 1_555 1_555
H41_16 C57_16 1_555 1_555
C58_16 P3_6 1_555 1_555
C59_16 C58_16 1_555 1_555
H42_16 C59_16 1_555 1_555
C60_16 C59_16 1_555 1_555
H43_16 C60_16 1_555 1_555
C61_16 C60_16 1_555 1_555
H44_16 C61_16 1_555 1_555
C62_16 C61_16 1_555 1_555
H45_16 C62_16 1_555 1_555
C63_16 C58_16 1_555 1_555
H46_16 C63_16 1_555 1_555
H49_16 C67_16 1_555 1_555
C68_16 C67_16 1_555 1_555
H50_16 C68_16 1_555 1_555
O3_16 C38_20 1_555 1_555
Ag5_7 O3_16 1_555 1_555
Ag5_9 P3_6 1_555 1_555
P5_11 Ag5_7 1_555 1_555
C6_16 C7_16 1_555 1_555
C24_16 C25_16 1_555 1_555
C44_16 C45_16 1_555 1_555
C56_16 C57_16 1_555 1_555
C62_16 C63_16 1_555 1_555
P7_7 C11_16 1_555 1_555
C9_16 C8_16 1_555 1_555
H5_16 C9_16 1_555 1_555
C10_16 C9_16 1_555 1_555
H6_16 C10_16 1_555 1_555
C11_16 C10_16 1_555 1_555
C12_16 C11_16 1_555 1_555
H7_16 C12_16 1_555 1_555
C13_16 C8_16 1_555 1_555
H8_16 C13_16 1_555 1_555
H11_16 C17_16 1_555 1_555
C18_16 C17_16 1_555 1_555
H12_16 C18_16 1_555 1_555
H13_16 C19_16 1_555 1_555
C26_16 P7_7 1_555 1_555
C27_16 C26_16 1_555 1_555
H19_16 C27_16 1_555 1_555
C28_16 C27_16 1_555 1_555
H20_16 C28_16 1_555 1_555
C29_16 C28_16 1_555 1_555
H21_16 C29_16 1_555 1_555
C30_16 C29_16 1_555 1_555
H22_16 C30_16 1_555 1_555
C31_16 C26_16 1_555 1_555
H23_16 C31_16 1_555 1_555
C32_16 P7_7 1_555 1_555
C33_16 C32_16 1_555 1_555
H24_16 C33_16 1_555 1_555
C34_16 C33_16 1_555 1_555
H25_16 C34_16 1_555 1_555
C35_16 C34_16 1_555 1_555
H26_16 C35_16 1_555 1_555
C36_16 C35_16 1_555 1_555
H27_16 C36_16 1_555 1_555
C37_16 C32_16 1_555 1_555
H28_16 C37_16 1_555 1_555
P6_3 C49_16 1_555 1_555
H33_16 C47_16 1_555 1_555
C48_16 C47_16 1_555 1_555
H34_16 C48_16 1_555 1_555
C49_16 C48_16 1_555 1_555
C50_16 C49_16 1_555 1_555
H35_16 C50_16 1_555 1_555
C64_16 P6_3 1_555 1_555
C65_16 C64_16 1_555 1_555
H47_16 C65_16 1_555 1_555
C66_16 C65_16 1_555 1_555
H48_16 C66_16 1_555 1_555
C69_16 C64_16 1_555 1_555
H51_16 C69_16 1_555 1_555
C70_16 P6_3 1_555 1_555
C71_16 C70_16 1_555 1_555
H52_16 C71_16 1_555 1_555
C72_16 C71_16 1_555 1_555
H53_16 C72_16 1_555 1_555
C73_16 C72_16 1_555 1_555
H54_16 C73_16 1_555 1_555
C74_16 C73_16 1_555 1_555
H55_16 C74_16 1_555 1_555
C75_16 C70_16 1_555 1_555
H56_16 C75_16 1_555 1_555
C12_16 C13_16 1_555 1_555
C18_16 C19_16 1_555 1_555
C30_16 C31_16 1_555 1_555
C36_16 C37_16 1_555 1_555
C50_16 C51_16 1_555 1_555
C74_16 C75_16 1_555 1_555
P7_8 C11_17 1_555 1_555
C9_17 C8_17 1_555 1_555
H5_17 C9_17 1_555 1_555
C10_17 C9_17 1_555 1_555
H6_17 C10_17 1_555 1_555
C11_17 C10_17 1_555 1_555
C12_17 C11_17 1_555 1_555
H7_17 C12_17 1_555 1_555
C13_17 C8_17 1_555 1_555
H8_17 C13_17 1_555 1_555
H11_17 C17_17 1_555 1_555
C18_17 C17_17 1_555 1_555
H12_17 C18_17 1_555 1_555
H13_17 C19_17 1_555 1_555
C26_17 P7_8 1_555 1_555
C27_17 C26_17 1_555 1_555
H19_17 C27_17 1_555 1_555
C28_17 C27_17 1_555 1_555
H20_17 C28_17 1_555 1_555
C29_17 C28_17 1_555 1_555
H21_17 C29_17 1_555 1_555
C30_17 C29_17 1_555 1_555
H22_17 C30_17 1_555 1_555
C31_17 C26_17 1_555 1_555
H23_17 C31_17 1_555 1_555
C32_17 P7_8 1_555 1_555
C33_17 C32_17 1_555 1_555
H24_17 C33_17 1_555 1_555
C34_17 C33_17 1_555 1_555
H25_17 C34_17 1_555 1_555
C35_17 C34_17 1_555 1_555
H26_17 C35_17 1_555 1_555
C36_17 C35_17 1_555 1_555
H27_17 C36_17 1_555 1_555
C37_17 C32_17 1_555 1_555
H28_17 C37_17 1_555 1_555
P6 C49_17 1_555 1_555
H33_17 C47_17 1_555 1_555
C48_17 C47_17 1_555 1_555
H34_17 C48_17 1_555 1_555
C49_17 C48_17 1_555 1_555
C50_17 C49_17 1_555 1_555
H35_17 C50_17 1_555 1_555
C64_17 P6 1_555 1_555
C65_17 C64_17 1_555 1_555
H47_17 C65_17 1_555 1_555
C66_17 C65_17 1_555 1_555
H48_17 C66_17 1_555 1_555
C69_17 C64_17 1_555 1_555
H51_17 C69_17 1_555 1_555
C70_17 P6 1_555 1_555
C71_17 C70_17 1_555 1_555
H52_17 C71_17 1_555 1_555
C72_17 C71_17 1_555 1_555
H53_17 C72_17 1_555 1_555
C73_17 C72_17 1_555 1_555
H54_17 C73_17 1_555 1_555
C74_17 C73_17 1_555 1_555
H55_17 C74_17 1_555 1_555
C75_17 C70_17 1_555 1_555
H56_17 C75_17 1_555 1_555
C12_17 C13_17 1_555 1_555
C18_17 C19_17 1_555 1_555
C30_17 C31_17 1_555 1_555
C36_17 C37_17 1_555 1_555
C50_17 C51_17 1_555 1_555
C74_17 C75_17 1_555 1_555
Ag4_3 P1_17 1_555 1_555
P1_17 C5_17 1_555 1_555
C1_17 C2_17 1_555 1_555
C2_17 C3_17 1_555 1_555
C3_17 H1_17 1_555 1_555
C4_17 C3_17 1_555 1_555
H2_17 C4_17 1_555 1_555
C5_17 C4_17 1_555 1_555
C6_17 C5_17 1_555 1_555
H3_17 C6_17 1_555 1_555
C7_17 C2_17 1_555 1_555
H4_17 C7_17 1_555 1_555
C14_17 P1_17 1_555 1_555
C15_17 C14_17 1_555 1_555
H9_17 C15_17 1_555 1_555
C16_17 C15_17 1_555 1_555
H10_17 C16_17 1_555 1_555
C20_17 P1_17 1_555 1_555
C21_17 C20_17 1_555 1_555
H14_17 C21_17 1_555 1_555
C22_17 C21_17 1_555 1_555
H15_17 C22_17 1_555 1_555
C23_17 C22_17 1_555 1_555
H16_17 C23_17 1_555 1_555
C24_17 C23_17 1_555 1_555
H17_17 C24_17 1_555 1_555
C25_17 C20_17 1_555 1_555
H18_17 C25_17 1_555 1_555
C38_21 O1_17 1_555 1_555
O1_17 Ag4_3 1_555 1_555
O2_21 C38_21 1_555 1_555
P5_11 C43_17 1_555 1_555
C39_17 C1_17 1_555 1_555
C40_17 C39_17 1_555 1_555
C41_17 C40_17 1_555 1_555
H29_17 C41_17 1_555 1_555
C42_17 C41_17 1_555 1_555
H30_17 C42_17 1_555 1_555
C43_17 C42_17 1_555 1_555
C44_17 C43_17 1_555 1_555
H31_17 C44_17 1_555 1_555
C45_17 C40_17 1_555 1_555
H32_17 C45_17 1_555 1_555
C46_17 C39_17 1_555 1_555
C52_17 P5_11 1_555 1_555
C53_17 C52_17 1_555 1_555
H37_17 C53_17 1_555 1_555
C54_17 C53_17 1_555 1_555
H38_17 C54_17 1_555 1_555
C55_17 C54_17 1_555 1_555
H39_17 C55_17 1_555 1_555
C56_17 C55_17 1_555 1_555
H40_17 C56_17 1_555 1_555
C57_17 C52_17 1_555 1_555
H41_17 C57_17 1_555 1_555
C58_17 P5_11 1_555 1_555
C59_17 C58_17 1_555 1_555
H42_17 C59_17 1_555 1_555
C60_17 C59_17 1_555 1_555
H43_17 C60_17 1_555 1_555
C61_17 C60_17 1_555 1_555
H44_17 C61_17 1_555 1_555
C62_17 C61_17 1_555 1_555
H45_17 C62_17 1_555 1_555
C63_17 C58_17 1_555 1_555
H46_17 C63_17 1_555 1_555
H49_17 C67_17 1_555 1_555
C68_17 C67_17 1_555 1_555
H50_17 C68_17 1_555 1_555
O3_17 C38_21 1_555 1_555
Ag5_8 O3_17 1_555 1_555
P5_12 Ag5_8 1_555 1_555
C6_17 C7_17 1_555 1_555
C24_17 C25_17 1_555 1_555
C44_17 C45_17 1_555 1_555
C56_17 C57_17 1_555 1_555
C62_17 C63_17 1_555 1_555
Ag4 P1_18 1_555 1_555
P1_18 C5_18 1_555 1_555
P7_9 C11_18 1_555 1_555
C1_18 C2_18 1_555 1_555
C2_18 C3_18 1_555 1_555
C3_18 H1_18 1_555 1_555
C4_18 C3_18 1_555 1_555
H2_18 C4_18 1_555 1_555
C5_18 C4_18 1_555 1_555
C6_18 C5_18 1_555 1_555
H3_18 C6_18 1_555 1_555
C7_18 C2_18 1_555 1_555
H4_18 C7_18 1_555 1_555
C8_18 C1_18 1_555 1_555
C9_18 C8_18 1_555 1_555
H5_18 C9_18 1_555 1_555
C10_18 C9_18 1_555 1_555
H6_18 C10_18 1_555 1_555
C11_18 C10_18 1_555 1_555
C12_18 C11_18 1_555 1_555
H7_18 C12_18 1_555 1_555
C13_18 C8_18 1_555 1_555
H8_18 C13_18 1_555 1_555
C14_18 P1_18 1_555 1_555
C15_18 C14_18 1_555 1_555
H9_18 C15_18 1_555 1_555
C16_18 C15_18 1_555 1_555
H10_18 C16_18 1_555 1_555
C17_18 C16_18 1_555 1_555
H11_18 C17_18 1_555 1_555
C18_18 C17_18 1_555 1_555
H12_18 C18_18 1_555 1_555
C19_18 C14_18 1_555 1_555
H13_18 C19_18 1_555 1_555
C20_18 P1_18 1_555 1_555
C21_18 C20_18 1_555 1_555
H14_18 C21_18 1_555 1_555
C22_18 C21_18 1_555 1_555
H15_18 C22_18 1_555 1_555
C23_18 C22_18 1_555 1_555
H16_18 C23_18 1_555 1_555
C24_18 C23_18 1_555 1_555
H17_18 C24_18 1_555 1_555
C25_18 C20_18 1_555 1_555
H18_18 C25_18 1_555 1_555
C26_18 P7_9 1_555 1_555
C27_18 C26_18 1_555 1_555
H19_18 C27_18 1_555 1_555
C28_18 C27_18 1_555 1_555
H20_18 C28_18 1_555 1_555
C29_18 C28_18 1_555 1_555
H21_18 C29_18 1_555 1_555
C30_18 C29_18 1_555 1_555
H22_18 C30_18 1_555 1_555
C31_18 C26_18 1_555 1_555
H23_18 C31_18 1_555 1_555
C32_18 P7_9 1_555 1_555
C33_18 C32_18 1_555 1_555
H24_18 C33_18 1_555 1_555
C34_18 C33_18 1_555 1_555
H25_18 C34_18 1_555 1_555
C35_18 C34_18 1_555 1_555
H26_18 C35_18 1_555 1_555
C36_18 C35_18 1_555 1_555
H27_18 C36_18 1_555 1_555
C37_18 C32_18 1_555 1_555
H28_18 C37_18 1_555 1_555
C38_22 O1_18 1_555 1_555
O1_18 Ag4 1_555 1_555
O2_22 C38_22 1_555 1_555
P5_12 C43_18 1_555 1_555
P6_2 C49_18 1_555 1_555
C39_18 C1_18 1_555 1_555
C40_18 C39_18 1_555 1_555
C41_18 C40_18 1_555 1_555
H29_18 C41_18 1_555 1_555
C42_18 C41_18 1_555 1_555
H30_18 C42_18 1_555 1_555
C43_18 C42_18 1_555 1_555
C44_18 C43_18 1_555 1_555
H31_18 C44_18 1_555 1_555
C45_18 C40_18 1_555 1_555
H32_18 C45_18 1_555 1_555
C46_18 C39_18 1_555 1_555
C47_18 C46_18 1_555 1_555
H33_18 C47_18 1_555 1_555
C48_18 C47_18 1_555 1_555
H34_18 C48_18 1_555 1_555
C49_18 C48_18 1_555 1_555
C50_18 C49_18 1_555 1_555
H35_18 C50_18 1_555 1_555
C51_18 C46_18 1_555 1_555
H36_18 C51_18 1_555 1_555
C52_18 P5_12 1_555 1_555
C53_18 C52_18 1_555 1_555
H37_18 C53_18 1_555 1_555
C54_18 C53_18 1_555 1_555
H38_18 C54_18 1_555 1_555
C55_18 C54_18 1_555 1_555
H39_18 C55_18 1_555 1_555
C56_18 C55_18 1_555 1_555
H40_18 C56_18 1_555 1_555
C57_18 C52_18 1_555 1_555
H41_18 C57_18 1_555 1_555
C58_18 P5_12 1_555 1_555
C59_18 C58_18 1_555 1_555
H42_18 C59_18 1_555 1_555
C60_18 C59_18 1_555 1_555
H43_18 C60_18 1_555 1_555
C61_18 C60_18 1_555 1_555
H44_18 C61_18 1_555 1_555
C62_18 C61_18 1_555 1_555
H45_18 C62_18 1_555 1_555
C63_18 C58_18 1_555 1_555
H46_18 C63_18 1_555 1_555
C64_18 P6_2 1_555 1_555
C65_18 C64_18 1_555 1_555
H47_18 C65_18 1_555 1_555
C66_18 C65_18 1_555 1_555
H48_18 C66_18 1_555 1_555
C67_18 C66_18 1_555 1_555
H49_18 C67_18 1_555 1_555
C68_18 C67_18 1_555 1_555
H50_18 C68_18 1_555 1_555
C69_18 C64_18 1_555 1_555
H51_18 C69_18 1_555 1_555
C70_18 P6_2 1_555 1_555
C71_18 C70_18 1_555 1_555
H52_18 C71_18 1_555 1_555
C72_18 C71_18 1_555 1_555
H53_18 C72_18 1_555 1_555
C73_18 C72_18 1_555 1_555
H54_18 C73_18 1_555 1_555
C74_18 C73_18 1_555 1_555
H55_18 C74_18 1_555 1_555
C75_18 C70_18 1_555 1_555
H56_18 C75_18 1_555 1_555
O3_18 C38_22 1_555 1_555
Ag5_9 O3_18 1_555 1_555
C6_18 C7_18 1_555 1_555
C12_18 C13_18 1_555 1_555
C18_18 C19_18 1_555 1_555
C24_18 C25_18 1_555 1_555
C30_18 C31_18 1_555 1_555
C36_18 C37_18 1_555 1_555
C44_18 C45_18 1_555 1_555
C50_18 C51_18 1_555 1_555
C56_18 C57_18 1_555 1_555
C62_18 C63_18 1_555 1_555
C68_18 C69_18 1_555 1_555
C74_18 C75_18 1_555 1_555

#END
