
###############################################################################
#
# This file contains modified crystal structure data generated from the
# MOF subset of the Cambridge Structural Database (CSD) v543 
# hosted by the Cambridge Crystallographic Data Centre (CCDC).
#
# This work is licensed under the Creative Commons
# Attribution-NonCommercial-ShareAlike 4.0 International License.
# To view a copy of this license, visit
# http://creativecommons.org/licenses/by-nc-sa/4.0/
# or send a letter to
# Creative Commons, PO Box 1866, Mountain View, CA 94042, USA.
#
# CIF created using the CSD Python API on 29 September 2022
# The structure has been converted into the P1 space group
# The structure has a 3D framework
# The original CSD entry COQTEJ is in the monoclinic crystal system
# The framework has been calculated to contain at least 10.0% void space
# The void calculation uses a probe of radius 1.32A, grid spacing 0.4
# H atom positions have been added when not included in the experimental data
#
###############################################################################

data_COQTEJ
_chemical_formula_moiety         '(C144 H108 Mg6 N16 O60)n'
_symmetry_cell_setting           triclinic
_symmetry_space_group_name_H-M   'P 1'
_symmetry_Int_Tables_number      1
_space_group_name_Hall           'P 1'
loop_
_symmetry_equiv_pos_site_id
_symmetry_equiv_pos_as_xyz
1 x,y,z
_cell_length_a                   34.3413(18)
_cell_length_b                   10.0447(7)
_cell_length_c                   17.7382(17)
_cell_angle_alpha                90
_cell_angle_beta                 96.234(6)
_cell_angle_gamma                90
_cell_volume                     6082.58
loop_
_atom_site_label
_atom_site_type_symbol
_atom_site_fract_x
_atom_site_fract_y
_atom_site_fract_z
O4 O 0.30406(7) 0.2055(3) 0.67040(17)
O5 O 0.39631(9) 0.1964(5) 0.4200(3)
O9 O 0.24974(7) 0.0849(3) 0.64006(16)
N2 N 0.39782(8) 0.0151(4) 0.4963(2)
C1 C 0.27537(10) 0.0318(4) 0.4959(2)
H3 H 0.2483 0.0340 0.4966
C7 C 0.33995(12) 0.0752(4) 0.5583(3)
H5 H 0.3565 0.1086 0.5989
C8 C 0.47924(10) 0.0033(4) 0.4995(3)
C9 C 0.35470(10) 0.0230(4) 0.4965(2)
C15 C 0.45877(12) 0.1025(6) 0.4559(3)
C18 C 0.29975(10) 0.0775(4) 0.5591(2)
C20 C 0.28265(11) 0.1267(4) 0.6291(2)
C21 C 0.41533(12) 0.1101(5) 0.4539(3)
C29 C 0.51847(14) 0.1861(7) 0.4171(4)
H11 H 0.5327 0.2642 0.4119
C31 C 0.47820(13) 0.1918(7) 0.4155(5)
H13 H 0.4651 0.2369 0.3746
O23 O 0.60189(9) 0.1641(5) 0.4273(3)
O24 O 0.71998(7) 0.0995(2) 0.69290(15)
O25 O 0.77160(7) 0.0347(3) 0.63973(17)
C53 C 0.73559(10) 0.0545(3) 0.6362(2)
C58 C 0.70915(10) 0.0166(4) 0.5676(2)
C61 C 0.66873(9) 0.0198(4) 0.5667(2)
H27 H 0.6589 0.0485 0.6034
C62 C 0.58343(12) 0.0865(6) 0.4603(4)
C63 C 0.53965(12) 0.0904(5) 0.4604(3)
Mg8 Mg 0.77419(3) 0.06213(10) 0.76319(7)
Mg9 Mg 0.22581(3) 0.06213(10) 0.73681(7)
Mg11 Mg 0.69643(3) 0.28265(12) 0.72383(8)
Mg12 Mg 0.30357(3) 0.28265(12) 0.77617(8)
O37 O 0.17709(7) 0.0590(2) 0.20271(18)
O38 O 0.82291(7) 0.0590(2) 0.29729(18)
O39 O 0.23397(7) 0.1499(2) 0.23526(18)
O40 O 0.76603(7) 0.1499(2) 0.26474(18)
Mg1 Mg 0.22581(3) 0.93787(10) 0.23681(7)
Mg2 Mg 0.30357(3) 0.71735(12) 0.27617(8)
O1 O 0.36066(8) 0.7864(4) 0.2960(2)
H1 H 0.3710 0.8198 0.3375
H2 H 0.3773 0.7858 0.2639
O2 O 0.32764(11) 0.5380(4) 0.2480(3)
O3 O 0.24922(7) 0.6335(2) 0.25515(19)
O6 O 0.39811(9) 0.8359(5) 0.5727(3)
O7 O 0.28002(7) 0.9005(2) 0.30710(15)
O8 O 0.22840(7) 0.9653(3) 0.36027(17)
O10 O 0.30603(11) 0.6527(4) 0.3863(2)
O11 O 0.19765(7) 0.7655(2) 0.23042(17)
O14 O 0.06188(9) 0.4332(5) 0.2142(2)
O15 O 0.12227(8) 0.4899(5) 0.0032(2)
N1 N 0.09105(8) 0.4589(3) 0.10785(19)
N3 N 0.3419(3) 0.3189(7) 0.2346(6)
C2 C 0.14382(10) 0.3140(3) 0.1646(2)
H4 H 0.1287 0.2402 0.1486
C3 C 0.26441(10) 0.9455(3) 0.3638(2)
C4 C 0.18851(9) 0.5355(3) 0.2108(2)
C5 C 0.19832(10) 0.1593(3) 0.2135(2)
C6 C 0.21431(10) 0.6530(3) 0.2346(2)
C10 C 0.02002(10) 0.4674(5) 0.0987(3)
C11 C 0.20374(10) 0.4065(3) 0.2226(2)
H6 H 0.2293 0.3948 0.2451
C12 C 0.09132(10) 0.4836(5) 0.0312(3)
C13 C 0.01863(9) 0.4931(4) 0.0224(2)
C14 C 0.12909(10) 0.4419(3) 0.1520(2)
C16 C 0.18116(9) 0.2978(3) 0.2011(2)
C17 C 0.29085(10) 0.9834(4) 0.4324(2)
C19 C 0.15129(10) 0.5508(3) 0.1752(2)
H7 H 0.1410 0.6358 0.1668
C22 C 0.33127(9) 0.9802(4) 0.4333(2)
H8 H 0.3411 0.9515 0.3966
C26 C 0.05827(11) 0.4550(5) 0.1464(3)
C27 C 0.41657(12) 0.9135(6) 0.5397(4)
C28 C 0.46035(12) 0.9096(5) 0.5396(3)
C30 C 0.3195(2) 0.4344(8) 0.2380(8)
H12 H 0.2926 0.4200 0.2302
C32 C 0.3324(3) 0.1941(13) 0.2423(9)
C33 C 0.3908(3) 0.3262(15) 0.2369(10)
H14 H 0.4003 0.2448 0.2173
H15 H 0.4022 0.3385 0.2883
H16 H 0.3979 0.3996 0.2065
N4 N 0.3306(10) 0.506(2) 0.4726(15)
C34 C 0.3130(7) 0.372(2) 0.4500(18)
H17 H 0.2855 0.3821 0.4346
H18 H 0.3167 0.3121 0.4924
H19 H 0.3256 0.3363 0.4087
C35 C 0.3216(8) 0.5997(15) 0.4215(10)
C36 C 0.3690(12) 0.464(3) 0.5318(17)
O22 O 0.60369(9) 0.8036(5) 0.5800(3)
N6 N 0.60218(8) 0.9849(4) 0.5037(2)
C52 C 0.72463(10) 0.9682(4) 0.5041(2)
H25 H 0.7517 0.9660 0.5034
C54 C 0.66005(12) 0.9248(4) 0.4417(3)
H26 H 0.6435 0.8914 0.4011
C55 C 0.52076(10) 0.9967(4) 0.5005(3)
C56 C 0.64530(10) 0.9770(4) 0.5035(2)
C57 C 0.54123(12) 0.8975(6) 0.5441(3)
C59 C 0.70025(10) 0.9225(4) 0.4409(2)
C60 C 0.58467(12) 0.8899(5) 0.5461(3)
C64 C 0.48153(14) 0.8139(7) 0.5829(4)
H28 H 0.4673 0.7358 0.5881
C65 C 0.52180(13) 0.8082(7) 0.5845(5)
H29 H 0.5349 0.7631 0.6254
O26 O 0.69594(7) 0.7945(3) 0.32960(17)
O27 O 0.75026(7) 0.9151(3) 0.35994(16)
C66 C 0.71735(11) 0.8733(4) 0.3709(2)
Mg3 Mg 0.77419(3) 0.93787(10) 0.26319(7)
Mg4 Mg 0.69643(3) 0.71735(12) 0.22383(8)
O28 O 0.63934(8) 0.7864(4) 0.2040(2)
H30 H 0.6290 0.8198 0.1625
H31 H 0.6227 0.7858 0.2361
O29 O 0.67236(11) 0.5380(4) 0.2520(3)
O30 O 0.69397(11) 0.6527(4) 0.1137(2)
N7 N 0.6581(3) 0.3189(7) 0.2654(6)
C67 C 0.6805(2) 0.4344(8) 0.2620(8)
H32 H 0.7074 0.4200 0.2698
C68 C 0.6676(3) 0.1941(13) 0.2577(9)
C69 C 0.6092(3) 0.3262(15) 0.2631(10)
H33 H 0.5997 0.2448 0.2827
H34 H 0.5978 0.3385 0.2117
H35 H 0.6021 0.3996 0.2935
N8 N 0.6694(10) 0.506(2) 0.0274(15)
C70 C 0.6870(7) 0.372(2) 0.0500(18)
H36 H 0.7145 0.3821 0.0654
H37 H 0.6833 0.3121 0.0076
H38 H 0.6744 0.3363 0.0913
C71 C 0.6784(8) 0.5997(15) 0.0785(10)
O31 O 0.75078(7) 0.6335(2) 0.24485(19)
O32 O 0.30406(7) 0.7945(3) 0.17040(17)
O33 O 0.71998(7) 0.9005(2) 0.19290(15)
O34 O 0.77160(7) 0.9653(3) 0.13973(17)
O35 O 0.24974(7) 0.9151(3) 0.14006(16)
O36 O 0.80235(7) 0.7655(2) 0.26958(17)
H39 H 0.308669 0.168034 0.199032
H40 H 0.357711 0.131377 0.236017
H41 H 0.3229 0.178843 0.29827
H42 H 0.353311 0.5997 0.4215
H43 H 0.388468 0.401568 0.502496
H44 H 0.384541 0.553468 0.55261
H45 H 0.359351 0.409226 0.579392
H46 H 0.710111 0.5997 0.0785
H47 H 0.691331 0.168034 0.300968
H48 H 0.642289 0.131377 0.263983
H49 H 0.6771 0.178843 0.20173
C24 C 0.05030(11) 0.5224(7) 0.9091(3)
H10 H 0.0732 0.5297 0.8858
C25 C 0.05281(10) 0.4983(5) 0.9858(2)
C48 C 0.01466(12) 0.5359(6) 0.8659(3)
H23 H 0.0102 0.5459 0.8125
C72 C 0.6310(12) 0.464(3) 0.9682(17)
H50 H 0.611532 0.401568 0.997504
H51 H 0.615459 0.553468 0.94739
H52 H 0.640649 0.409226 0.920608
C23 C 0.98534(12) 0.4641(6) 0.1341(3)
H9 H 0.9898 0.4541 0.1875
C49 C 0.94970(11) 0.4776(7) 0.0909(3)
H24 H 0.9268 0.4703 0.1142
C50 C 0.94719(10) 0.5017(5) 0.0142(2)
O16 O 0.75078(7) 0.3665(2) 0.74485(19)
O17 O 0.80235(7) 0.2345(2) 0.76958(17)
O18 O 0.82291(7) 0.9410(2) 0.79729(18)
O19 O 0.76603(7) 0.8501(2) 0.76474(18)
O20 O 0.93812(9) 0.5668(5) 0.7858(2)
O21 O 0.87773(8) 0.5101(5) 0.9968(2)
N5 N 0.90895(8) 0.5411(3) 0.89215(19)
C37 C 0.85618(10) 0.6860(3) 0.8354(2)
H20 H 0.8713 0.7598 0.8514
C38 C 0.81149(9) 0.4645(3) 0.7892(2)
C39 C 0.80168(10) 0.8407(3) 0.7865(2)
C40 C 0.78569(10) 0.3470(3) 0.7654(2)
C41 C 0.97998(10) 0.5326(5) 0.9013(3)
C42 C 0.79626(10) 0.5935(3) 0.7774(2)
H21 H 0.7707 0.6052 0.7549
C43 C 0.90868(10) 0.5164(5) 0.9688(3)
C44 C 0.98137(9) 0.5069(4) 0.9776(2)
C45 C 0.87091(10) 0.5581(3) 0.8480(2)
C46 C 0.81884(9) 0.7022(3) 0.7989(2)
C47 C 0.84871(10) 0.4492(3) 0.8248(2)
H22 H 0.8590 0.3642 0.8332
C51 C 0.94173(11) 0.5450(5) 0.8536(3)
C23_2 C 0.01466(12) 0.4641(6) 0.3659(3)
H9_2 H 0.0102 0.4541 0.3125
O16_2 O 0.24922(7) 0.3665(2) 0.75515(19)
O17_2 O 0.19765(7) 0.2345(2) 0.73042(17)
O18_2 O 0.17709(7) 0.9410(2) 0.70271(18)
O19_2 O 0.23397(7) 0.8501(2) 0.73526(18)
O20_2 O 0.06188(9) 0.5668(5) 0.7142(2)
O21_2 O 0.12227(8) 0.5101(5) 0.5032(2)
N5_2 N 0.09105(8) 0.5411(3) 0.60785(19)
C37_2 C 0.14382(10) 0.6860(3) 0.6646(2)
H20_2 H 0.1287 0.7598 0.6486
C38_2 C 0.18851(9) 0.4645(3) 0.7108(2)
C39_2 C 0.19832(10) 0.8407(3) 0.7135(2)
C40_2 C 0.21431(10) 0.3470(3) 0.7346(2)
C41_2 C 0.02002(10) 0.5326(5) 0.5987(3)
C42_2 C 0.20374(10) 0.5935(3) 0.7226(2)
H21_2 H 0.2293 0.6052 0.7451
C43_2 C 0.09132(10) 0.5164(5) 0.5312(3)
C44_2 C 0.01863(9) 0.5069(4) 0.5224(2)
C45_2 C 0.12909(10) 0.5581(3) 0.6520(2)
C46_2 C 0.18116(9) 0.7022(3) 0.7011(2)
C47_2 C 0.15129(10) 0.4492(3) 0.6752(2)
H22_2 H 0.1410 0.3642 0.6668
C49_2 C 0.05030(11) 0.4776(7) 0.4091(3)
H24_2 H 0.0732 0.4703 0.3858
C50_2 C 0.05281(10) 0.5017(5) 0.4858(2)
C51_2 C 0.05827(11) 0.5450(5) 0.6464(3)
O5_2 O 0.60369(9) 0.1964(5) 0.0800(3)
N2_2 N 0.60218(8) 0.0151(4) 0.0037(2)
C1_2 C 0.72463(10) 0.0318(4) 0.0041(2)
H3_2 H 0.7517 0.0340 0.0034
C8_2 C 0.52076(10) 0.0033(4) 0.0005(3)
C9_2 C 0.64530(10) 0.0230(4) 0.0035(2)
C15_2 C 0.54123(12) 0.1025(6) 0.0441(3)
C21_2 C 0.58467(12) 0.1101(5) 0.0461(3)
C29_2 C 0.48153(14) 0.1861(7) 0.0829(4)
H11_2 H 0.4673 0.2642 0.0881
C31_2 C 0.52180(13) 0.1918(7) 0.0845(5)
H13_2 H 0.5349 0.2369 0.1254
O23_2 O 0.39811(9) 0.1641(5) 0.0727(3)
C62_2 C 0.41657(12) 0.0865(6) 0.0397(4)
C63_2 C 0.46035(12) 0.0904(5) 0.0396(3)
O4_2 O 0.69594(7) 0.2055(3) 0.82960(17)
O9_2 O 0.75026(7) 0.0849(3) 0.85994(16)
C7_2 C 0.66005(12) 0.0752(4) 0.9417(3)
H5_2 H 0.6435 0.1086 0.9011
C18_2 C 0.70025(10) 0.0775(4) 0.9409(2)
C20_2 C 0.71735(11) 0.1267(4) 0.8709(2)
O24_2 O 0.28002(7) 0.0995(2) 0.80710(15)
O25_2 O 0.22840(7) 0.0347(3) 0.86027(17)
C53_2 C 0.26441(10) 0.0545(3) 0.8638(2)
C58_2 C 0.29085(10) 0.0166(4) 0.9324(2)
C61_2 C 0.33127(9) 0.0198(4) 0.9333(2)
H27_2 H 0.3411 0.0485 0.8966
O14_2 O 0.93812(9) 0.4332(5) 0.2858(2)
O15_2 O 0.87773(8) 0.4899(5) 0.4968(2)
N1_2 N 0.90895(8) 0.4589(3) 0.39215(19)
C2_2 C 0.85618(10) 0.3140(3) 0.3354(2)
H4_2 H 0.8713 0.2402 0.3514
C3_2 C 0.73559(10) 0.9455(3) 0.1362(2)
C4_2 C 0.81149(9) 0.5355(3) 0.2892(2)
C5_2 C 0.80168(10) 0.1593(3) 0.2865(2)
C6_2 C 0.78569(10) 0.6530(3) 0.2654(2)
C10_2 C 0.97998(10) 0.4674(5) 0.4013(3)
C11_2 C 0.79626(10) 0.4065(3) 0.2774(2)
H6_2 H 0.7707 0.3948 0.2549
C12_2 C 0.90868(10) 0.4836(5) 0.4688(3)
C13_2 C 0.98137(9) 0.4931(4) 0.4776(2)
C14_2 C 0.87091(10) 0.4419(3) 0.3480(2)
C16_2 C 0.81884(9) 0.2978(3) 0.2989(2)
C17_2 C 0.70915(10) 0.9834(4) 0.0676(2)
C19_2 C 0.84871(10) 0.5508(3) 0.3248(2)
H7_2 H 0.8590 0.6358 0.3332
C22_2 C 0.66873(9) 0.9802(4) 0.0667(2)
H8_2 H 0.6589 0.9515 0.1034
C24_2 C 0.94970(11) 0.5224(7) 0.5909(3)
H10_2 H 0.9268 0.5297 0.6142
C25_2 C 0.94719(10) 0.4983(5) 0.5142(2)
C26_2 C 0.94173(11) 0.4550(5) 0.3536(3)
C48_2 C 0.98534(12) 0.5359(6) 0.6341(3)
H23_2 H 0.9898 0.5459 0.6875
C54_2 C 0.33995(12) 0.9248(4) 0.0583(3)
H26_2 H 0.3565 0.8914 0.0989
C59_2 C 0.29975(10) 0.9225(4) 0.0591(2)
C66_2 C 0.28265(11) 0.8733(4) 0.1291(2)
H42_2 H 0.646689 0.5997 0.0785
H46_2 H 0.289889 0.5997 0.4215
O6_2 O 0.60189(9) 0.8359(5) 0.9273(3)
C27_2 C 0.58343(12) 0.9135(6) 0.9603(4)
C28_2 C 0.53965(12) 0.9096(5) 0.9604(3)
O22_2 O 0.39631(9) 0.8036(5) 0.9200(3)
N6_2 N 0.39782(8) 0.9849(4) 0.9963(2)
C52_2 C 0.27537(10) 0.9682(4) 0.9959(2)
H25_2 H 0.2483 0.9660 0.9966
C55_2 C 0.47924(10) 0.9967(4) 0.9995(3)
C56_2 C 0.35470(10) 0.9770(4) 0.9965(2)
C57_2 C 0.45877(12) 0.8975(6) 0.9559(3)
C60_2 C 0.41533(12) 0.8899(5) 0.9539(3)
C64_2 C 0.51847(14) 0.8139(7) 0.9171(4)
H28_2 H 0.5327 0.7358 0.9119
C65_2 C 0.47820(13) 0.8082(7) 0.9155(5)
H29_2 H 0.4651 0.7631 0.8746
C72_2 C 0.3690(12) 0.536(3) 0.0318(17)
H50_2 H 0.388468 0.598432 0.0024958
H51_2 H 0.384541 0.446532 0.0526095
H52_2 H 0.359351 0.590774 0.0793923
O1_2 O 0.63934(8) 0.2136(4) 0.7040(2)
H1_2 H 0.6290 0.1802 0.6625
H2_2 H 0.6227 0.2142 0.7361
O2_2 O 0.67236(11) 0.4620(4) 0.7520(3)
O10_2 O 0.69397(11) 0.3473(4) 0.6137(2)
N3_2 N 0.6581(3) 0.6811(7) 0.7654(6)
C30_2 C 0.6805(2) 0.5656(8) 0.7620(8)
H12_2 H 0.7074 0.5800 0.7698
C32_2 C 0.6676(3) 0.8059(13) 0.7577(9)
C33_2 C 0.6092(3) 0.6738(15) 0.7631(10)
H14_2 H 0.5997 0.7552 0.7827
H15_2 H 0.5978 0.6615 0.7117
H16_2 H 0.6021 0.6004 0.7935
N4_2 N 0.6694(10) 0.494(2) 0.5274(15)
C34_2 C 0.6870(7) 0.628(2) 0.5500(18)
H17_2 H 0.7145 0.6179 0.5654
H18_2 H 0.6833 0.6879 0.5076
H19_2 H 0.6744 0.6637 0.5913
C35_2 C 0.6784(8) 0.4003(15) 0.5785(10)
C36_2 C 0.6310(12) 0.536(3) 0.4682(17)
O28_2 O 0.36066(8) 0.2136(4) 0.7960(2)
H30_2 H 0.3710 0.1802 0.8375
H31_2 H 0.3773 0.2142 0.7639
O29_2 O 0.32764(11) 0.4620(4) 0.7480(3)
O30_2 O 0.30603(11) 0.3473(4) 0.8863(2)
N7_2 N 0.3419(3) 0.6811(7) 0.7346(6)
C67_2 C 0.3195(2) 0.5656(8) 0.7380(8)
H32_2 H 0.2926 0.5800 0.7302
C68_2 C 0.3324(3) 0.8059(13) 0.7423(9)
C69_2 C 0.3908(3) 0.6738(15) 0.7369(10)
H33_2 H 0.4003 0.7552 0.7173
H34_2 H 0.4022 0.6615 0.7883
H35_2 H 0.3979 0.6004 0.7065
N8_2 N 0.3306(10) 0.494(2) 0.9726(15)
C70_2 C 0.3130(7) 0.628(2) 0.9500(18)
H36_2 H 0.2855 0.6179 0.9346
H37_2 H 0.3167 0.6879 0.9924
H38_2 H 0.3256 0.6637 0.9087
C71_2 C 0.3216(8) 0.4003(15) 0.9215(10)
H39_2 H 0.691331 0.831966 0.800968
H40_2 H 0.642289 0.868623 0.763983
H41_2 H 0.6771 0.821157 0.70173
H42_3 H 0.646689 0.4003 0.5785
H43_2 H 0.611532 0.598432 0.497504
H44_2 H 0.615459 0.446532 0.44739
H45_2 H 0.640649 0.590774 0.420608
H46_3 H 0.289889 0.4003 0.9215
H47_2 H 0.308669 0.831966 0.699032
H48_2 H 0.357711 0.868623 0.736017
H49_2 H 0.3229 0.821157 0.79827
H42_4 H 0.353311 0.4003 0.9215
H46_4 H 0.710111 0.4003 0.5785
loop_
_geom_bond_atom_site_label_1
_geom_bond_atom_site_label_2
_geom_bond_site_symmetry_1
_geom_bond_site_symmetry_2
O4 C20 1_555 1_555
O5 C21 1_555 1_555
O9 C20 1_555 1_555
N2 C9 1_555 1_555
C1 H3 1_555 1_555
C7 H5 1_555 1_555
C8 C15 1_555 1_555
C9 C7 1_555 1_555
C15 C21 1_555 1_555
C18 C1 1_555 1_555
C20 C18 1_555 1_555
C21 N2 1_555 1_555
C29 H11 1_555 1_555
C31 C15 1_555 1_555
H13 C31 1_555 1_555
O23 C62 1_555 1_555
O24 C53 1_555 1_555
O25 C53 1_555 1_555
C53 C58 1_555 1_555
H27 C61 1_555 1_555
C63 C29 1_555 1_555
Mg8 O24 1_555 1_555
Mg9 O9 1_555 1_555
Mg11 O24 1_555 1_555
Mg12 O4 1_555 1_555
C7 C18 1_555 1_555
C29 C31 1_555 1_555
O25 Mg8 1_555 1_555
C58 C61 1_555 1_555
C62 C63 1_555 1_555
Mg1 O7 1_555 1_555
Mg2 O1 1_555 1_555
O1 H1 1_555 1_555
H2 O1 1_555 1_555
O2 Mg2 1_555 1_555
O3 Mg2 1_555 1_555
O6 C27 1_555 1_555
O7 Mg2 1_555 1_555
O8 Mg1 1_555 1_555
O10 Mg2 1_555 1_555
O11 Mg1 1_555 1_555
O37 C5 1_555 1_555
O39 C5 1_555 1_555
O14 C26 1_555 1_555
O15 C12 1_555 1_555
N1 C12 1_555 1_555
N3 C30 1_555 1_555
C2 H4 1_555 1_555
C3 O7 1_555 1_555
C4 C6 1_555 1_555
C5 C16 1_555 1_555
C6 O3 1_555 1_555
C10 C13 1_555 1_555
C11 C4 1_555 1_555
H6 C11 1_555 1_555
C14 N1 1_555 1_555
C16 C2 1_555 1_555
C19 C4 1_555 1_555
H7 C19 1_555 1_555
H8 C22 1_555 1_555
C26 N1 1_555 1_555
C30 O2 1_555 1_555
H12 C30 1_555 1_555
C32 N3 1_555 1_555
C33 N3 1_555 1_555
H14 C33 1_555 1_555
H15 C33 1_555 1_555
H16 C33 1_555 1_555
N4 C34 1_555 1_555
C34 H17 1_555 1_555
H18 C34 1_555 1_555
H19 C34 1_555 1_555
C35 O10 1_555 1_555
C36 N4 1_555 1_555
O22 C60 1_555 1_555
N6 C56 1_555 1_555
C52 H25 1_555 1_555
C54 H26 1_555 1_555
C56 C54 1_555 1_555
C57 C55 1_555 1_555
C59 C52 1_555 1_555
C60 N6 1_555 1_555
C64 C28 1_555 1_555
H28 C64 1_555 1_555
C65 C57 1_555 1_555
H29 C65 1_555 1_555
O26 C66 1_555 1_555
O27 C66 1_555 1_555
C66 C59 1_555 1_555
Mg3 O27 1_555 1_555
Mg4 O26 1_555 1_555
O28 Mg4 1_555 1_555
H30 O28 1_555 1_555
H31 O28 1_555 1_555
O29 Mg4 1_555 1_555
O30 Mg4 1_555 1_555
N7 C67 1_555 1_555
C67 O29 1_555 1_555
H32 C67 1_555 1_555
C68 N7 1_555 1_555
C69 N7 1_555 1_555
H33 C69 1_555 1_555
H34 C69 1_555 1_555
H35 C69 1_555 1_555
N8 C70 1_555 1_555
C70 H36 1_555 1_555
H37 C70 1_555 1_555
H38 C70 1_555 1_555
C71 O30 1_555 1_555
O31 Mg4 1_555 1_555
O32 Mg2 1_555 1_555
O33 Mg3 1_555 1_555
O34 Mg3 1_555 1_555
O35 Mg1 1_555 1_555
O36 Mg3 1_555 1_555
O8 C3 1_555 1_555
O11 C6 1_555 1_555
C2 C14 1_555 1_555
C3 C17 1_555 1_555
C10 C26 1_555 1_555
C11 C16 1_555 1_555
C14 C19 1_555 1_555
C17 C22 1_555 1_555
C27 C28 1_555 1_555
N4 C35 1_555 1_555
C54 C59 1_555 1_555
C57 C60 1_555 1_555
C64 C65 1_555 1_555
Mg4 O33 1_555 1_555
N8 C71 1_555 1_555
C32 H39 1_555 1_555
C32 H40 1_555 1_555
C32 H41 1_555 1_555
C35 H42 1_555 1_555
C36 H43 1_555 1_555
C36 H44 1_555 1_555
C36 H45 1_555 1_555
C71 H46 1_555 1_555
C68 H47 1_555 1_555
C68 H48 1_555 1_555
C68 H49 1_555 1_555
C24 H10 1_555 1_555
C25 C24 1_555 1_555
C48 C24 1_555 1_555
H23 C48 1_555 1_555
C72 H50 1_555 1_555
C72 H51 1_555 1_555
C72 H52 1_555 1_555
H9 C23 1_555 1_555
C49 C23 1_555 1_555
H24 C49 1_555 1_555
C49 C50 1_555 1_555
O16 C40 1_555 1_555
O17 C40 1_555 1_555
O18 C39 1_555 1_555
O19 C39 1_555 1_555
O20 C51 1_555 1_555
O21 C43 1_555 1_555
N5 C43 1_555 1_555
C37 H20 1_555 1_555
C38 C40 1_555 1_555
C39 C46 1_555 1_555
C41 C44 1_555 1_555
C42 C38 1_555 1_555
H21 C42 1_555 1_555
C45 N5 1_555 1_555
C46 C37 1_555 1_555
C47 C38 1_555 1_555
H22 C47 1_555 1_555
C51 N5 1_555 1_555
Mg8 O17 1_555 1_555
Mg11 O16 1_555 1_555
C37 C45 1_555 1_555
C41 C51 1_555 1_555
C42 C46 1_555 1_555
C45 C47 1_555 1_555
H9_2 C23_2 1_555 1_555
O16_2 C40_2 1_555 1_555
O17_2 C40_2 1_555 1_555
O18_2 C39_2 1_555 1_555
O19_2 C39_2 1_555 1_555
O20_2 C51_2 1_555 1_555
O21_2 C43_2 1_555 1_555
N5_2 C43_2 1_555 1_555
C37_2 H20_2 1_555 1_555
C38_2 C40_2 1_555 1_555
C39_2 C46_2 1_555 1_555
C41_2 C44_2 1_555 1_555
C42_2 C38_2 1_555 1_555
H21_2 C42_2 1_555 1_555
C43_2 C50_2 1_555 1_555
C45_2 N5_2 1_555 1_555
C46_2 C37_2 1_555 1_555
C47_2 C38_2 1_555 1_555
H22_2 C47_2 1_555 1_555
C49_2 C23_2 1_555 1_555
H24_2 C49_2 1_555 1_555
C50_2 C44_2 1_555 1_555
C51_2 N5_2 1_555 1_555
Mg9 O17_2 1_555 1_555
Mg12 O16_2 1_555 1_555
C37_2 C45_2 1_555 1_555
C41_2 C51_2 1_555 1_555
C42_2 C46_2 1_555 1_555
C45_2 C47_2 1_555 1_555
C49_2 C50_2 1_555 1_555
O5_2 C21_2 1_555 1_555
N2_2 C9_2 1_555 1_555
C1_2 H3_2 1_555 1_555
C8_2 C15_2 1_555 1_555
C15_2 C21_2 1_555 1_555
C21_2 N2_2 1_555 1_555
C29_2 H11_2 1_555 1_555
C31_2 C15_2 1_555 1_555
H13_2 C31_2 1_555 1_555
O23_2 C62_2 1_555 1_555
C63_2 C29_2 1_555 1_555
C29_2 C31_2 1_555 1_555
C62_2 C63_2 1_555 1_555
O4_2 C20_2 1_555 1_555
O9_2 C20_2 1_555 1_555
C7_2 H5_2 1_555 1_555
C20_2 C18_2 1_555 1_555
O24_2 C53_2 1_555 1_555
O25_2 C53_2 1_555 1_555
C53_2 C58_2 1_555 1_555
H27_2 C61_2 1_555 1_555
Mg9 O24_2 1_555 1_555
Mg8 O9_2 1_555 1_555
Mg12 O24_2 1_555 1_555
Mg11 O4_2 1_555 1_555
C7_2 C18_2 1_555 1_555
O25_2 Mg9 1_555 1_555
C58_2 C61_2 1_555 1_555
O38 C5_2 1_555 1_555
O40 C5_2 1_555 1_555
O14_2 C26_2 1_555 1_555
O15_2 C12_2 1_555 1_555
N1_2 C12_2 1_555 1_555
C2_2 H4_2 1_555 1_555
C3_2 O33 1_555 1_555
C4_2 C6_2 1_555 1_555
C5_2 C16_2 1_555 1_555
C6_2 O31 1_555 1_555
C10_2 C13_2 1_555 1_555
C11_2 C4_2 1_555 1_555
H6_2 C11_2 1_555 1_555
C12_2 C25_2 1_555 1_555
C13_2 C25_2 1_555 1_555
C14_2 N1_2 1_555 1_555
C16_2 C2_2 1_555 1_555
C19_2 C4_2 1_555 1_555
H7_2 C19_2 1_555 1_555
H8_2 C22_2 1_555 1_555
C24_2 H10_2 1_555 1_555
C25_2 C24_2 1_555 1_555
C26_2 N1_2 1_555 1_555
C48_2 C24_2 1_555 1_555
H23_2 C48_2 1_555 1_555
C54_2 H26_2 1_555 1_555
O32 C66_2 1_555 1_555
O35 C66_2 1_555 1_555
C66_2 C59_2 1_555 1_555
O34 C3_2 1_555 1_555
O36 C6_2 1_555 1_555
C2_2 C14_2 1_555 1_555
C3_2 C17_2 1_555 1_555
C10_2 C26_2 1_555 1_555
C11_2 C16_2 1_555 1_555
C14_2 C19_2 1_555 1_555
C17_2 C22_2 1_555 1_555
C54_2 C59_2 1_555 1_555
C71 H42_2 1_555 1_555
C35 H46_2 1_555 1_555
O6_2 C27_2 1_555 1_555
O22_2 C60_2 1_555 1_555
N6_2 C56_2 1_555 1_555
C52_2 H25_2 1_555 1_555
C57_2 C55_2 1_555 1_555
C60_2 N6_2 1_555 1_555
C64_2 C28_2 1_555 1_555
H28_2 C64_2 1_555 1_555
C65_2 C57_2 1_555 1_555
H29_2 C65_2 1_555 1_555
C27_2 C28_2 1_555 1_555
C57_2 C60_2 1_555 1_555
C64_2 C65_2 1_555 1_555
C72_2 H50_2 1_555 1_555
C72_2 H51_2 1_555 1_555
C72_2 H52_2 1_555 1_555
Mg11 O1_2 1_555 1_555
O1_2 H1_2 1_555 1_555
H2_2 O1_2 1_555 1_555
O2_2 Mg11 1_555 1_555
O10_2 Mg11 1_555 1_555
N3_2 C30_2 1_555 1_555
C30_2 O2_2 1_555 1_555
H12_2 C30_2 1_555 1_555
C32_2 N3_2 1_555 1_555
C33_2 N3_2 1_555 1_555
H14_2 C33_2 1_555 1_555
H15_2 C33_2 1_555 1_555
H16_2 C33_2 1_555 1_555
N4_2 C34_2 1_555 1_555
C34_2 H17_2 1_555 1_555
H18_2 C34_2 1_555 1_555
H19_2 C34_2 1_555 1_555
C35_2 O10_2 1_555 1_555
C36_2 N4_2 1_555 1_555
O28_2 Mg12 1_555 1_555
H30_2 O28_2 1_555 1_555
H31_2 O28_2 1_555 1_555
O29_2 Mg12 1_555 1_555
O30_2 Mg12 1_555 1_555
N7_2 C67_2 1_555 1_555
C67_2 O29_2 1_555 1_555
H32_2 C67_2 1_555 1_555
C68_2 N7_2 1_555 1_555
C69_2 N7_2 1_555 1_555
H33_2 C69_2 1_555 1_555
H34_2 C69_2 1_555 1_555
H35_2 C69_2 1_555 1_555
N8_2 C70_2 1_555 1_555
C70_2 H36_2 1_555 1_555
H37_2 C70_2 1_555 1_555
H38_2 C70_2 1_555 1_555
C71_2 O30_2 1_555 1_555
N4_2 C35_2 1_555 1_555
N8_2 C71_2 1_555 1_555
C32_2 H39_2 1_555 1_555
C32_2 H40_2 1_555 1_555
C32_2 H41_2 1_555 1_555
C35_2 H42_3 1_555 1_555
C36_2 H43_2 1_555 1_555
C36_2 H44_2 1_555 1_555
C36_2 H45_2 1_555 1_555
C71_2 H46_3 1_555 1_555
C68_2 H47_2 1_555 1_555
C68_2 H48_2 1_555 1_555
C68_2 H49_2 1_555 1_555
C71_2 H42_4 1_555 1_555
C35_2 H46_4 1_555 1_555

#END
