
###############################################################################
#
# This file contains modified crystal structure data generated from the
# MOF subset of the Cambridge Structural Database (CSD) v543 
# hosted by the Cambridge Crystallographic Data Centre (CCDC).
#
# This work is licensed under the Creative Commons
# Attribution-NonCommercial-ShareAlike 4.0 International License.
# To view a copy of this license, visit
# http://creativecommons.org/licenses/by-nc-sa/4.0/
# or send a letter to
# Creative Commons, PO Box 1866, Mountain View, CA 94042, USA.
#
# CIF created using the CSD Python API on 29 September 2022
# The structure has been converted into the P1 space group
# The structure has a 3D framework
# The original CSD entry COQYUF is in the monoclinic crystal system
# The framework has been calculated to contain at least 10.0% void space
# The void calculation uses a probe of radius 1.32A, grid spacing 0.4
# H atom positions have been added when not included in the experimental data
#
###############################################################################

data_COQYUF
_chemical_formula_moiety         '(C120 H132 N32 O50 Zn12 4+)n'
_symmetry_cell_setting           triclinic
_symmetry_space_group_name_H-M   'P 1'
_symmetry_Int_Tables_number      1
_space_group_name_Hall           'P 1'
loop_
_symmetry_equiv_pos_site_id
_symmetry_equiv_pos_as_xyz
1 x,y,z
_cell_length_a                   14.468(5)
_cell_length_b                   25.046(9)
_cell_length_c                   16.684(6)
_cell_angle_alpha                90
_cell_angle_beta                 104.039(7)
_cell_angle_gamma                90
_cell_volume                     5865.13
loop_
_atom_site_label
_atom_site_type_symbol
_atom_site_fract_x
_atom_site_fract_y
_atom_site_fract_z
H27 H 0.821447 0.000277463 0.507829
H31 H 0.645799 0.00506488 0.558442
N1 N 0.7537(12) 0.9554(7) 0.5484(11)
C1 C 0.6754(14) 0.9663(11) 0.5806(13)
C2 C 0.8205(17) 0.9619(16) 0.5383(17)
H1 H 0.717704 0.953531 0.488138
H2 H 0.766104 0.917863 0.571427
H25 H 0.873374 0.962009 0.597191
H26 H 0.837071 0.930263 0.499237
H32 H 0.621482 0.935557 0.560719
H33 H 0.697727 0.966797 0.647803
H1_2 H 0.782296 0.453531 0.011862
H26_2 H 0.662929 0.430263 0.000762999
N1_2 N 0.7463(12) 0.4554(7) 0.9516(11)
C1_2 C 0.8246(14) 0.4663(11) 0.9194(13)
C2_2 C 0.6795(17) 0.4619(16) 0.9617(17)
H2_2 H 0.733896 0.417863 0.928573
H25_2 H 0.626626 0.462009 0.902809
H27_2 H 0.678553 0.500277 0.992171
H31_2 H 0.854201 0.505065 0.941558
H32_2 H 0.878518 0.435557 0.939281
H33_2 H 0.802273 0.466797 0.852197
N1_3 N 0.2463(12) 0.0446(7) 0.4516(11)
C1_3 C 0.3246(14) 0.0337(11) 0.4194(13)
C2_3 C 0.1795(17) 0.0381(16) 0.4617(17)
H1_3 H 0.282296 0.0464691 0.511862
H2_3 H 0.233896 0.0821367 0.428573
H25_3 H 0.126626 0.0379905 0.402809
H26_3 H 0.162929 0.0697373 0.500763
H32_3 H 0.378518 0.0644434 0.439281
H33_3 H 0.302273 0.0332031 0.352197
H27_3 H 0.178553 0.999723 0.492171
H31_3 H 0.354201 0.994935 0.441558
N1_4 N 0.2537(12) 0.5446(7) 0.0484(11)
C1_4 C 0.1754(14) 0.5337(11) 0.0806(13)
C2_4 C 0.3205(17) 0.5381(16) 0.0383(17)
H2_4 H 0.266104 0.582137 0.0714273
H25_4 H 0.373374 0.537991 0.0971907
H27_4 H 0.321447 0.499723 0.00782913
H31_4 H 0.145799 0.494935 0.0584419
H32_4 H 0.121482 0.564443 0.0607192
H33_4 H 0.197727 0.533203 0.147803
H1_4 H 0.217704 0.546469 0.988138
H26_4 H 0.337071 0.569737 0.999237
N2 N 0.1501(11) 0.8943(9) 0.1532(13)
C3 C 0.1813(17) 0.836(7) 0.188(14)
C4 C 0.084(14) 0.9107(6) 0.1145(12)
H10 H 0.199373 0.90361 0.121286
H11 H 0.161215 0.91694 0.205122
H16 H 0.175743 0.808429 0.136577
H17 H 0.254649 0.837051 0.224649
H18 H 0.134803 0.82273 0.226525
H28 H 0.0261727 0.904736 0.144922
H29 H 0.0930206 0.953229 0.105142
H30 H 0.0671122 0.890434 0.0549738
N2_2 N 0.3499(11) 0.3943(9) 0.3468(13)
C3_2 C 0.3187(17) 0.336(7) 0.312(14)
C4_2 C 0.416(14) 0.4107(6) 0.3855(12)
H10_2 H 0.300627 0.40361 0.378714
H11_2 H 0.338785 0.41694 0.294878
H16_2 H 0.324257 0.308429 0.363423
H17_2 H 0.245351 0.337051 0.275351
H18_2 H 0.365197 0.32273 0.273475
H28_2 H 0.473827 0.404736 0.355078
H29_2 H 0.406979 0.453229 0.394858
H30_2 H 0.432888 0.390434 0.445026
N2_3 N 0.8499(11) 0.1057(9) 0.8468(13)
C3_3 C 0.8187(17) 0.164(7) 0.812(14)
C4_3 C 0.916(14) 0.0893(6) 0.8855(12)
H10_3 H 0.800627 0.0963897 0.878714
H11_3 H 0.838785 0.0830601 0.794878
H16_3 H 0.824257 0.191571 0.863423
H17_3 H 0.745351 0.162949 0.775351
H18_3 H 0.865197 0.17727 0.773475
H28_3 H 0.973827 0.0952642 0.855078
H29_3 H 0.906979 0.0467707 0.894858
H30_3 H 0.932888 0.109566 0.945026
N2_4 N 0.6501(11) 0.6057(9) 0.6532(13)
C3_4 C 0.6813(17) 0.664(7) 0.688(14)
C4_4 C 0.584(14) 0.5893(6) 0.6145(12)
H10_4 H 0.699373 0.59639 0.621286
H11_4 H 0.661215 0.58306 0.705122
H16_4 H 0.675743 0.691571 0.636577
H17_4 H 0.754649 0.662949 0.724649
H18_4 H 0.634803 0.67727 0.726525
H28_4 H 0.526173 0.595264 0.644922
H29_4 H 0.593021 0.546771 0.605142
H30_4 H 0.567112 0.609566 0.554974
O7 O 0.1325(3) 0.0133(2) 0.6896(2)
O8 O 0.1268(3) 0.0542(2) 0.8059(2)
O9 O 0.0291(3) 0.2456(1) 0.7802(2)
C19 C 0.0561(4) 0.0955(2) 0.6799(3)
C20 C 0.0451(4) 0.1443(2) 0.7154(3)
C24 C 0.0108(4) 0.0875(2) 0.5961(3)
C25 C 0.1087(4) 0.0508(2) 0.7285(3)
Zn7 Zn 0.0141(1) 0.3234(1) 0.7943(1)
O14 O 0.1401(3) 0.0104(2) 0.9807(2)
H7 H 0.0764074 0.150614 0.780951
H8 H 0.0168671 0.048837 0.567954
Zn1 Zn 0.1788(1) 0.9947(1) 0.8779(1)
Zn2 Zn 0.1303(1) 0.9339(1) 0.6832(1)
Zn3 Zn 0.4859(1) 0.8234(1) 0.7057(1)
O1 O 0.013(3) 0.9147(2) 0.7146(2)
O2 O 0.082(3) 0.9366(2) 0.8436(2)
O13 O 0.4161(3) 0.8322(2) 0.5885(2)
N3 N 0.2561(3) 0.9086(2) 0.7463(2)
N4 N 0.3017(3) 0.9579(2) 0.8768(2)
N5 N 0.4578(3) 0.9377(2) 0.9553(3)
N6 N 0.3917(3) 0.8618(2) 0.7584(2)
N7 N 0.5506(3) 0.873(2) 0.9203(3)
N8 N 0.4027(6) 0.8635(4) 0.4595(5)
C5 C 0.3056(3) 0.8724(2) 0.7128(3)
C6 C 0.3156(4) 0.9215(2) 0.82(3)
C7 C 0.3776(4) 0.9637(2) 0.9405(3)
C8 C 0.4707(4) 0.9002(2) 0.9021(3)
C9 C 0.3997(3) 0.8929(2) 0.8287(3)
C16 C 0.0104(4) 0.9229(2) 0.7885(3)
C28 C 0.446(10) 0.8838(7) 0.3925(7)
C29 C 0.2957(7) 0.8657(6) 0.4492(7)
C30 C 0.4491(7) 0.8476(4) 0.5364(6)
O15 O 0.5905(3) 0.8717(2) 0.7289(3)
O16 O 0.4709(3) 0.7456(1) 0.7198(2)
O17 O 0.5612(3) 0.7744(2) 0.8357(3)
O18 O 0.0921(3) 0.9289(2) 0.5637(2)
H4 H 0.42884 0.925929 0.381658
H5 H 0.523035 0.87888 0.41112
H6 H 0.417628 0.861361 0.335974
H12 H 0.260556 0.842437 0.395259
H13 H 0.277943 0.849239 0.504002
H14 H 0.271768 0.907004 0.440943
H15 H 0.276616 0.85362 0.653121
H19 H 0.562735 0.844216 0.881263
H20 H 0.60026 0.880747 0.973413
H21 H 0.371461 0.994032 0.985688
H24 H 0.526571 0.84958 0.550728
Zn4 Zn 0.8212(1) 0.0053(1) 0.1221(1)
O10 O 0.9388(3) 0.2744(2) 0.6643(3)
O11 O 0.9079(3) 0.0711(2) 0.4363(2)
O12 O 0.8824(3) 0.1575(2) 0.4149(3)
C21 C 0.9949(4) 0.185(2) 0.6686(3)
C22 C 0.9521(4) 0.1766(2) 0.5856(3)
C23 C 0.9586(4) 0.1277(2) 0.5485(3)
C26 C 0.986(4) 0.239(2) 0.7062(4)
C27 C 0.9122(4) 0.1196(3) 0.46(3)
Zn5 Zn 0.8697(1) 0.0661(1) 0.3168(1)
H22 H 0.912759 0.209 0.549053
O3 O 0.8599(3) 0.9896(2) 0.0193(2)
O4 O 0.7331(3) 0.9373(2) 0.0087(2)
O6 O 0.6864(4) 0.8295(4) 0.6618(4)
C10 C 0.918(4) 0.9168(2) 0.8097(3)
C11 C 0.9055(4) 0.937(2) 0.885(3)
C12 C 0.8178(4) 0.9333(2) 0.9033(3)
C13 C 0.7435(4) 0.9095(3) 0.8476(4)
C14 C 0.756(5) 0.8883(3) 0.7735(4)
C15 C 0.8429(4) 0.8932(3) 0.7546(4)
C17 C 0.8019(5) 0.9545(3) 0.9823(3)
C18 C 0.6724(6) 0.8602(4) 0.7152(5)
H3 H 0.965025 0.955541 0.928795
H9 H 0.673832 0.907137 0.861453
H23 H 0.852334 0.878337 0.69576
O11_2 O 0.5921(3) 0.5711(2) 0.0637(2)
O12_2 O 0.6176(3) 0.6575(2) 0.0851(3)
N8_2 N 0.0973(6) 0.3635(4) 0.0405(5)
C27_2 C 0.5878(4) 0.6196(3) 0.04(3)
C28_2 C 0.054(10) 0.3838(7) 0.1075(7)
C29_2 C 0.2043(7) 0.3657(6) 0.0508(7)
Zn5_2 Zn 0.6303(1) 0.5661(1) 0.1832(1)
H4_2 H 0.0711596 0.425929 0.118342
H6_2 H 0.0823715 0.361361 0.164026
H12_2 H 0.239444 0.342437 0.104741
H14_2 H 0.228232 0.407004 0.0590571
Zn1_2 Zn 0.3212(1) 0.4947(1) 0.6221(1)
Zn2_2 Zn 0.3697(1) 0.4339(1) 0.8168(1)
O1_2 O 0.487(3) 0.4147(2) 0.7854(2)
O2_2 O 0.418(3) 0.4366(2) 0.6564(2)
O3_2 O 0.6401(3) 0.4896(2) 0.4807(2)
O4_2 O 0.7669(3) 0.4373(2) 0.4913(2)
O5 O 0.9095(3) 0.3717(2) 0.7711(3)
O6_2 O 0.8136(4) 0.3295(4) 0.8382(4)
O7_2 O 0.3675(3) 0.5133(2) 0.8104(2)
O8_2 O 0.3732(3) 0.5542(2) 0.6941(2)
O13_2 O 0.0839(3) 0.3322(2) 0.9115(2)
N3_2 N 0.2439(3) 0.4086(2) 0.7537(2)
N4_2 N 0.1983(3) 0.4579(2) 0.6232(2)
N5_2 N 0.0422(3) 0.4377(2) 0.5447(3)
N6_2 N 0.1083(3) 0.3618(2) 0.7416(2)
C5_2 C 0.1944(3) 0.3724(2) 0.7872(3)
C6_2 C 0.1844(4) 0.4215(2) 0.68(3)
C7_2 C 0.1224(4) 0.4637(2) 0.5595(3)
C8_2 C 0.0293(4) 0.4002(2) 0.5979(3)
C9_2 C 0.1003(3) 0.3929(2) 0.6713(3)
C10_2 C 0.582(4) 0.4168(2) 0.6903(3)
C11_2 C 0.5945(4) 0.437(2) 0.615(3)
C12_2 C 0.6822(4) 0.4333(2) 0.5967(3)
C13_2 C 0.7565(4) 0.4095(3) 0.6524(4)
C14_2 C 0.744(5) 0.3883(3) 0.7265(4)
C15_2 C 0.6571(4) 0.3932(3) 0.7454(4)
C16_2 C 0.4896(4) 0.4229(2) 0.7115(3)
C17_2 C 0.6981(5) 0.4545(3) 0.5177(3)
C18_2 C 0.8276(6) 0.3602(4) 0.7848(5)
C19_2 C 0.4439(4) 0.5955(2) 0.8201(3)
C20_2 C 0.4549(4) 0.6443(2) 0.7846(3)
C21_2 C 0.5051(4) 0.685(2) 0.8314(3)
C22_2 C 0.5479(4) 0.6766(2) 0.9144(3)
C23_2 C 0.5414(4) 0.6277(2) 0.9515(3)
C24_2 C 0.4892(4) 0.5875(2) 0.9039(3)
C25_2 C 0.3913(4) 0.5508(2) 0.7715(3)
C26_2 C 0.514(4) 0.739(2) 0.7938(4)
C30_2 C 0.0509(7) 0.3476(4) 0.9636(6)
Zn4_2 Zn 0.6788(1) 0.5053(1) 0.3779(1)
O14_2 O 0.3599(3) 0.5104(2) 0.5193(2)
O18_2 O 0.4079(3) 0.4289(2) 0.9363(2)
H3_2 H 0.534975 0.455541 0.571205
H7_2 H 0.423593 0.650614 0.719049
H8_2 H 0.483133 0.548837 0.932046
H9_2 H 0.826168 0.407137 0.638547
H13_2 H 0.222057 0.349239 0.995998
H15_2 H 0.223384 0.35362 0.846879
H21_2 H 0.128539 0.494032 0.514312
H22_2 H 0.587241 0.709 0.950947
H23_2 H 0.647666 0.378337 0.80424
N7_2 N 0.9494(3) 0.373(2) 0.5797(3)
H19_2 H 0.937265 0.344216 0.618737
H20_2 H 0.89974 0.380747 0.526587
H24_2 H 0.973429 0.34958 0.949272
O5_2 O 0.4095(3) 0.1283(2) 0.2711(3)
O6_3 O 0.3136(4) 0.1705(4) 0.3382(4)
C10_3 C 0.082(4) 0.0832(2) 0.1903(3)
C11_3 C 0.0945(4) 0.063(2) 0.115(3)
C12_3 C 0.1822(4) 0.0667(2) 0.0967(3)
C13_3 C 0.2565(4) 0.0905(3) 0.1524(4)
C14_3 C 0.244(5) 0.1117(3) 0.2265(4)
C15_3 C 0.1571(4) 0.1068(3) 0.2454(4)
C17_3 C 0.1981(5) 0.0455(3) 0.0177(3)
C18_3 C 0.3276(6) 0.1398(4) 0.2848(5)
Zn6 Zn 0.5141(1) 0.1766(1) 0.2943(1)
H3_3 H 0.0349748 0.0444592 0.0712048
H9_3 H 0.326168 0.0928634 0.138547
H23_3 H 0.147666 0.121663 0.30424
O4_3 O 0.2669(3) 0.0627(2) 0.9913(2)
O10_2 O 0.0612(3) 0.7256(2) 0.3357(3)
O12_3 O 0.1176(3) 0.8425(2) 0.5851(3)
C21_3 C 0.0051(4) 0.815(2) 0.3314(3)
C22_3 C 0.0479(4) 0.8234(2) 0.4144(3)
C23_3 C 0.0414(4) 0.8723(2) 0.4515(3)
C26_3 C 0.014(4) 0.761(2) 0.2938(4)
C27_3 C 0.0878(4) 0.8804(3) 0.54(3)
H22_3 H 0.0872411 0.791 0.450947
O1_3 O 0.987(3) 0.0853(2) 0.2854(2)
O2_3 O 0.918(3) 0.0634(2) 0.1564(2)
O13_3 O 0.5839(3) 0.1678(2) 0.4115(2)
N3_3 N 0.7439(3) 0.0914(2) 0.2537(2)
N4_3 N 0.6983(3) 0.0421(2) 0.1232(2)
N5_3 N 0.5422(3) 0.0623(2) 0.0447(3)
N6_3 N 0.6083(3) 0.1382(2) 0.2416(2)
N7_3 N 0.4494(3) 0.127(2) 0.0797(3)
N8_3 N 0.5973(6) 0.1365(4) 0.5405(5)
C5_3 C 0.6944(3) 0.1276(2) 0.2872(3)
C6_3 C 0.6844(4) 0.0785(2) 0.18(3)
C7_3 C 0.6224(4) 0.0363(2) 0.0595(3)
C8_3 C 0.5293(4) 0.0998(2) 0.0979(3)
C9_3 C 0.6003(3) 0.1071(2) 0.1713(3)
C16_3 C 0.9896(4) 0.0771(2) 0.2115(3)
C28_3 C 0.554(10) 0.1162(7) 0.6075(7)
C29_3 C 0.7043(7) 0.1343(6) 0.5508(7)
C30_3 C 0.5509(7) 0.1524(4) 0.4636(6)
O16_2 O 0.5291(3) 0.2544(1) 0.2802(2)
O17_2 O 0.4388(3) 0.2256(2) 0.1643(3)
H4_3 H 0.57116 0.0740713 0.618342
H5_2 H 0.476965 0.12112 0.58888
H6_3 H 0.582372 0.138639 0.664026
H12_3 H 0.739444 0.157563 0.604741
H13_3 H 0.722057 0.150761 0.495998
H14_3 H 0.728232 0.0929958 0.559057
H15_3 H 0.723384 0.14638 0.346879
H19_3 H 0.437265 0.155784 0.118737
H20_3 H 0.39974 0.119253 0.0265867
H21_3 H 0.628539 0.0059675 0.014312
H24_3 H 0.473429 0.15042 0.449272
O7_3 O 0.8675(3) 0.9867(2) 0.3104(2)
O8_3 O 0.8732(3) 0.9458(2) 0.1941(2)
O9_2 O 0.9709(3) 0.7544(1) 0.2198(2)
C19_3 C 0.9439(4) 0.9045(2) 0.3201(3)
C20_3 C 0.9549(4) 0.8557(2) 0.2846(3)
C24_3 C 0.9892(4) 0.9125(2) 0.4039(3)
C25_3 C 0.8913(4) 0.9492(2) 0.2715(3)
Zn7_2 Zn 0.9859(1) 0.6766(1) 0.2057(1)
H7_3 H 0.923593 0.849386 0.219049
H8_3 H 0.983133 0.951163 0.432046
N7_4 N 0.0506(3) 0.627(2) 0.4203(3)
O15_2 O 0.0905(3) 0.6283(2) 0.2289(3)
H19_4 H 0.062735 0.655784 0.381263
H20_4 H 0.10026 0.619253 0.473413
H24_4 H 0.0265712 0.65042 0.0507282
O1_4 O 0.513(3) 0.5853(2) 0.2146(2)
O2_4 O 0.582(3) 0.5634(2) 0.3436(2)
O4_4 O 0.2331(3) 0.5627(2) 0.5087(2)
O6_4 O 0.1864(4) 0.6705(4) 0.1618(4)
O7_4 O 0.6325(3) 0.4867(2) 0.1896(2)
O8_4 O 0.6268(3) 0.4458(2) 0.3059(2)
O13_4 O 0.9161(3) 0.6678(2) 0.0885(2)
N3_4 N 0.7561(3) 0.5914(2) 0.2463(2)
N4_4 N 0.8017(3) 0.5421(2) 0.3768(2)
N5_4 N 0.9578(3) 0.5623(2) 0.4553(3)
N6_4 N 0.8917(3) 0.6382(2) 0.2584(2)
C5_4 C 0.8056(3) 0.6276(2) 0.2128(3)
C6_4 C 0.8156(4) 0.5785(2) 0.32(3)
C7_4 C 0.8776(4) 0.5363(2) 0.4405(3)
C8_4 C 0.9707(4) 0.5998(2) 0.4021(3)
C9_4 C 0.8997(3) 0.6071(2) 0.3287(3)
C10_4 C 0.418(4) 0.5832(2) 0.3097(3)
C11_4 C 0.4055(4) 0.563(2) 0.385(3)
C12_4 C 0.3178(4) 0.5667(2) 0.4033(3)
C13_4 C 0.2435(4) 0.5905(3) 0.3476(4)
C14_4 C 0.256(5) 0.6117(3) 0.2735(4)
C15_4 C 0.3429(4) 0.6068(3) 0.2546(4)
C16_4 C 0.5104(4) 0.5771(2) 0.2885(3)
C17_4 C 0.3019(5) 0.5455(3) 0.4823(3)
C18_4 C 0.1724(6) 0.6398(4) 0.2152(5)
C19_4 C 0.5561(4) 0.4045(2) 0.1799(3)
C20_4 C 0.5451(4) 0.3557(2) 0.2154(3)
C21_4 C 0.4949(4) 0.315(2) 0.1686(3)
C22_4 C 0.4521(4) 0.3234(2) 0.0856(3)
C23_4 C 0.4586(4) 0.3723(2) 0.0485(3)
C24_4 C 0.5108(4) 0.4125(2) 0.0961(3)
C25_4 C 0.6087(4) 0.4492(2) 0.2285(3)
C26_4 C 0.486(4) 0.261(2) 0.2062(4)
C30_4 C 0.9491(7) 0.6524(4) 0.0364(6)
H3_4 H 0.465025 0.544459 0.428795
H7_4 H 0.576407 0.349386 0.280951
H8_4 H 0.516867 0.451163 0.0679543
H9_4 H 0.173832 0.592863 0.361453
H13_4 H 0.777943 0.650761 0.00400211
H15_4 H 0.776616 0.64638 0.153121
H21_4 H 0.871461 0.505968 0.485688
H22_4 H 0.412759 0.291 0.0490531
H23_4 H 0.352334 0.621663 0.19576
O12_4 O 0.3824(3) 0.3425(2) 0.9149(3)
N8_4 N 0.9027(6) 0.6365(4) 0.9595(5)
C27_4 C 0.4122(4) 0.3804(3) 0.96(3)
C28_4 C 0.946(10) 0.6162(7) 0.8925(7)
C29_4 C 0.7957(7) 0.6343(6) 0.9492(7)
H4_4 H 0.92884 0.574071 0.881658
H6_4 H 0.917628 0.638639 0.835974
H12_4 H 0.760556 0.657563 0.895259
H14_4 H 0.771768 0.592996 0.940943
H5_3 H 0.976965 0.37888 0.0888797
H5_4 H 0.0230352 0.62112 0.91112
loop_
_geom_bond_atom_site_label_1
_geom_bond_atom_site_label_2
_geom_bond_site_symmetry_1
_geom_bond_site_symmetry_2
N1 C1 1_555 1_555
C2 N1 1_555 1_555
N1 H1 1_555 1_555
N1 H2 1_555 1_555
C2 H25 1_555 1_555
C2 H26 1_555 1_555
C1 H32 1_555 1_555
C1 H33 1_555 1_555
N1_2 C1_2 1_555 1_555
C2_2 N1_2 1_555 1_555
N1_2 H2_2 1_555 1_555
C2_2 H25_2 1_555 1_555
C2_2 H27_2 1_555 1_555
C1_2 H31_2 1_555 1_555
C1_2 H32_2 1_555 1_555
C1_2 H33_2 1_555 1_555
N1_3 C1_3 1_555 1_555
C2_3 N1_3 1_555 1_555
N1_3 H1_3 1_555 1_555
N1_3 H2_3 1_555 1_555
C2_3 H25_3 1_555 1_555
C2_3 H26_3 1_555 1_555
C1_3 H32_3 1_555 1_555
C1_3 H33_3 1_555 1_555
N1_4 C1_4 1_555 1_555
C2_4 N1_4 1_555 1_555
N1_4 H2_4 1_555 1_555
C2_4 H25_4 1_555 1_555
C2_4 H27_4 1_555 1_555
C1_4 H31_4 1_555 1_555
C1_4 H32_4 1_555 1_555
C1_4 H33_4 1_555 1_555
N2 C3 1_555 1_555
C4 N2 1_555 1_555
N2 H10 1_555 1_555
N2 H11 1_555 1_555
C3 H16 1_555 1_555
C3 H17 1_555 1_555
C3 H18 1_555 1_555
C4 H28 1_555 1_555
C4 H29 1_555 1_555
C4 H30 1_555 1_555
N2_2 C3_2 1_555 1_555
C4_2 N2_2 1_555 1_555
N2_2 H10_2 1_555 1_555
N2_2 H11_2 1_555 1_555
C3_2 H16_2 1_555 1_555
C3_2 H17_2 1_555 1_555
C3_2 H18_2 1_555 1_555
C4_2 H28_2 1_555 1_555
C4_2 H29_2 1_555 1_555
C4_2 H30_2 1_555 1_555
N2_3 C3_3 1_555 1_555
C4_3 N2_3 1_555 1_555
N2_3 H10_3 1_555 1_555
N2_3 H11_3 1_555 1_555
C3_3 H16_3 1_555 1_555
C3_3 H17_3 1_555 1_555
C3_3 H18_3 1_555 1_555
C4_3 H28_3 1_555 1_555
C4_3 H29_3 1_555 1_555
C4_3 H30_3 1_555 1_555
N2_4 C3_4 1_555 1_555
C4_4 N2_4 1_555 1_555
N2_4 H10_4 1_555 1_555
N2_4 H11_4 1_555 1_555
C3_4 H16_4 1_555 1_555
C3_4 H17_4 1_555 1_555
C3_4 H18_4 1_555 1_555
C4_4 H28_4 1_555 1_555
C4_4 H29_4 1_555 1_555
C4_4 H30_4 1_555 1_555
C19 C20 1_555 1_555
C24 C19 1_555 1_555
C25 O7 1_555 1_555
Zn7 O9 1_555 1_555
O8 C25 1_555 1_555
C19 C25 1_555 1_555
C20 H7 1_555 1_555
C24 H8 1_555 1_555
Zn1 O2 1_555 1_555
Zn2 O1 1_555 1_555
Zn3 O13 1_555 1_555
O1 C16 1_555 1_555
O2 C16 1_555 1_555
O13 C30 1_555 1_555
N3 Zn2 1_555 1_555
N4 Zn1 1_555 1_555
N5 C7 1_555 1_555
N6 Zn3 1_555 1_555
N7 C8 1_555 1_555
N8 C28 1_555 1_555
C5 N3 1_555 1_555
C6 N3 1_555 1_555
C7 N4 1_555 1_555
C8 N5 1_555 1_555
C9 N6 1_555 1_555
C29 N8 1_555 1_555
C30 N8 1_555 1_555
O15 Zn3 1_555 1_555
O16 Zn3 1_555 1_555
O17 Zn3 1_555 1_555
O18 Zn2 1_555 1_555
N4 C6 1_555 1_555
N6 C5 1_555 1_555
C6 C9 1_555 1_555
C8 C9 1_555 1_555
C28 H4 1_555 1_555
C28 H5 1_555 1_555
C28 H6 1_555 1_555
C29 H12 1_555 1_555
C29 H13 1_555 1_555
C29 H14 1_555 1_555
C5 H15 1_555 1_555
N7 H19 1_555 1_555
N7 H20 1_555 1_555
C7 H21 1_555 1_555
C30 H24 1_555 1_555
O10 C26 1_555 1_555
O11 C27 1_555 1_555
O12 C27 1_555 1_555
C21 C22 1_555 1_555
C22 C23 1_555 1_555
C26 C21 1_555 1_555
C27 C23 1_555 1_555
Zn5 O11 1_555 1_555
C22 H22 1_555 1_555
O15 C18 1_555 1_555
O6 C18 1_555 1_555
C10 C11 1_555 1_555
C11 C12 1_555 1_555
C12 C13 1_555 1_555
C13 C14 1_555 1_555
C14 C15 1_555 1_555
C15 C10 1_555 1_555
C17 C12 1_555 1_555
C18 C14 1_555 1_555
C11 H3 1_555 1_555
C13 H9 1_555 1_555
C15 H23 1_555 1_555
O11_2 C27_2 1_555 1_555
O12_2 C27_2 1_555 1_555
N8_2 C28_2 1_555 1_555
C29_2 N8_2 1_555 1_555
Zn5_2 O11_2 1_555 1_555
C28_2 H4_2 1_555 1_555
C28_2 H6_2 1_555 1_555
C29_2 H12_2 1_555 1_555
C29_2 H14_2 1_555 1_555
Zn1_2 O2_2 1_555 1_555
Zn2_2 O1_2 1_555 1_555
Zn7 O13_2 1_555 1_555
O1_2 C16_2 1_555 1_555
O2_2 C16_2 1_555 1_555
O3_2 C17_2 1_555 1_555
O4_2 C17_2 1_555 1_555
O5 C18_2 1_555 1_555
O6_2 C18_2 1_555 1_555
O7_2 Zn2_2 1_555 1_555
O8_2 Zn1_2 1_555 1_555
O16 C26_2 1_555 1_555
O17 C26_2 1_555 1_555
O13_2 C30_2 1_555 1_555
N3_2 Zn2_2 1_555 1_555
N4_2 Zn1_2 1_555 1_555
N5_2 C7_2 1_555 1_555
N6_2 Zn7 1_555 1_555
C5_2 N3_2 1_555 1_555
C6_2 N3_2 1_555 1_555
C7_2 N4_2 1_555 1_555
C8_2 N5_2 1_555 1_555
C9_2 N6_2 1_555 1_555
C10_2 C11_2 1_555 1_555
C11_2 C12_2 1_555 1_555
C12_2 C13_2 1_555 1_555
C13_2 C14_2 1_555 1_555
C14_2 C15_2 1_555 1_555
C15_2 C10_2 1_555 1_555
C16_2 C10_2 1_555 1_555
C17_2 C12_2 1_555 1_555
C18_2 C14_2 1_555 1_555
C19_2 C20_2 1_555 1_555
C20_2 C21_2 1_555 1_555
C21_2 C22_2 1_555 1_555
C22_2 C23_2 1_555 1_555
C23_2 C24_2 1_555 1_555
C24_2 C19_2 1_555 1_555
C25_2 O7_2 1_555 1_555
C26_2 C21_2 1_555 1_555
Zn4_2 O3_2 1_555 1_555
O14_2 Zn1_2 1_555 1_555
O18_2 Zn2_2 1_555 1_555
O8_2 C25_2 1_555 1_555
N4_2 C6_2 1_555 1_555
N6_2 C5_2 1_555 1_555
C6_2 C9_2 1_555 1_555
C8_2 C9_2 1_555 1_555
C19_2 C25_2 1_555 1_555
C11_2 H3_2 1_555 1_555
C20_2 H7_2 1_555 1_555
C24_2 H8_2 1_555 1_555
C13_2 H9_2 1_555 1_555
C5_2 H15_2 1_555 1_555
C7_2 H21_2 1_555 1_555
C22_2 H22_2 1_555 1_555
C15_2 H23_2 1_555 1_555
N7_2 H19_2 1_555 1_555
N7_2 H20_2 1_555 1_555
O5_2 C18_3 1_555 1_555
O6_3 C18_3 1_555 1_555
C10_3 C11_3 1_555 1_555
C11_3 C12_3 1_555 1_555
C12_3 C13_3 1_555 1_555
C13_3 C14_3 1_555 1_555
C14_3 C15_3 1_555 1_555
C15_3 C10_3 1_555 1_555
C17_3 C12_3 1_555 1_555
C18_3 C14_3 1_555 1_555
Zn6 O5_2 1_555 1_555
C11_3 H3_3 1_555 1_555
C13_3 H9_3 1_555 1_555
C15_3 H23_3 1_555 1_555
O10_2 C26_3 1_555 1_555
O18 C27_3 1_555 1_555
O12_3 C27_3 1_555 1_555
C21_3 C22_3 1_555 1_555
C22_3 C23_3 1_555 1_555
C26_3 C21_3 1_555 1_555
C27_3 C23_3 1_555 1_555
C22_3 H22_3 1_555 1_555
Zn4 O2_3 1_555 1_555
Zn5 O1_3 1_555 1_555
Zn6 O13_3 1_555 1_555
O1_3 C16_3 1_555 1_555
O2_3 C16_3 1_555 1_555
O13_3 C30_3 1_555 1_555
N3_3 Zn5 1_555 1_555
N4_3 Zn4 1_555 1_555
N5_3 C7_3 1_555 1_555
N6_3 Zn6 1_555 1_555
N7_3 C8_3 1_555 1_555
N8_3 C28_3 1_555 1_555
C5_3 N3_3 1_555 1_555
C6_3 N3_3 1_555 1_555
C7_3 N4_3 1_555 1_555
C8_3 N5_3 1_555 1_555
C9_3 N6_3 1_555 1_555
C29_3 N8_3 1_555 1_555
C30_3 N8_3 1_555 1_555
O16_2 Zn6 1_555 1_555
O17_2 Zn6 1_555 1_555
N4_3 C6_3 1_555 1_555
N6_3 C5_3 1_555 1_555
C6_3 C9_3 1_555 1_555
C8_3 C9_3 1_555 1_555
C28_3 H4_3 1_555 1_555
C28_3 H5_2 1_555 1_555
C28_3 H6_3 1_555 1_555
C29_3 H12_3 1_555 1_555
C29_3 H13_3 1_555 1_555
C29_3 H14_3 1_555 1_555
C5_3 H15_3 1_555 1_555
N7_3 H19_3 1_555 1_555
N7_3 H20_3 1_555 1_555
C7_3 H21_3 1_555 1_555
C30_3 H24_3 1_555 1_555
C19_3 C20_3 1_555 1_555
C24_3 C19_3 1_555 1_555
C25_3 O7_3 1_555 1_555
Zn7_2 O9_2 1_555 1_555
O8_3 C25_3 1_555 1_555
C19_3 C25_3 1_555 1_555
C20_3 H7_3 1_555 1_555
C24_3 H8_3 1_555 1_555
N7_4 H19_4 1_555 1_555
N7_4 H20_4 1_555 1_555
Zn4_2 O2_4 1_555 1_555
Zn5_2 O1_4 1_555 1_555
Zn7_2 O13_4 1_555 1_555
O1_4 C16_4 1_555 1_555
O2_4 C16_4 1_555 1_555
O14_2 C17_4 1_555 1_555
O4_4 C17_4 1_555 1_555
O15_2 C18_4 1_555 1_555
O6_4 C18_4 1_555 1_555
O7_4 Zn5_2 1_555 1_555
O8_4 Zn4_2 1_555 1_555
O16_2 C26_4 1_555 1_555
O17_2 C26_4 1_555 1_555
O13_4 C30_4 1_555 1_555
N3_4 Zn5_2 1_555 1_555
N4_4 Zn4_2 1_555 1_555
N5_4 C7_4 1_555 1_555
N6_4 Zn7_2 1_555 1_555
C5_4 N3_4 1_555 1_555
C6_4 N3_4 1_555 1_555
C7_4 N4_4 1_555 1_555
C8_4 N5_4 1_555 1_555
C9_4 N6_4 1_555 1_555
C10_4 C11_4 1_555 1_555
C11_4 C12_4 1_555 1_555
C12_4 C13_4 1_555 1_555
C13_4 C14_4 1_555 1_555
C14_4 C15_4 1_555 1_555
C15_4 C10_4 1_555 1_555
C16_4 C10_4 1_555 1_555
C17_4 C12_4 1_555 1_555
C18_4 C14_4 1_555 1_555
C19_4 C20_4 1_555 1_555
C20_4 C21_4 1_555 1_555
C21_4 C22_4 1_555 1_555
C22_4 C23_4 1_555 1_555
C23_4 C24_4 1_555 1_555
C24_4 C19_4 1_555 1_555
C25_4 O7_4 1_555 1_555
C26_4 C21_4 1_555 1_555
O8_4 C25_4 1_555 1_555
N4_4 C6_4 1_555 1_555
N6_4 C5_4 1_555 1_555
C6_4 C9_4 1_555 1_555
C8_4 C9_4 1_555 1_555
C19_4 C25_4 1_555 1_555
C11_4 H3_4 1_555 1_555
C20_4 H7_4 1_555 1_555
C24_4 H8_4 1_555 1_555
C13_4 H9_4 1_555 1_555
C5_4 H15_4 1_555 1_555
C7_4 H21_4 1_555 1_555
C22_4 H22_4 1_555 1_555
C15_4 H23_4 1_555 1_555
O18_2 C27_4 1_555 1_555
O12_4 C27_4 1_555 1_555
N8_4 C28_4 1_555 1_555
C29_4 N8_4 1_555 1_555
C28_4 H4_4 1_555 1_555
C28_4 H6_4 1_555 1_555
C29_4 H12_4 1_555 1_555
C29_4 H14_4 1_555 1_555

#END
