
###############################################################################
#
# This file contains modified crystal structure data generated from the
# MOF subset of the Cambridge Structural Database (CSD) v543 
# hosted by the Cambridge Crystallographic Data Centre (CCDC).
#
# This work is licensed under the Creative Commons
# Attribution-NonCommercial-ShareAlike 4.0 International License.
# To view a copy of this license, visit
# http://creativecommons.org/licenses/by-nc-sa/4.0/
# or send a letter to
# Creative Commons, PO Box 1866, Mountain View, CA 94042, USA.
#
# CIF created using the CSD Python API on 29 September 2022
# The structure has been converted into the P1 space group
# The structure has a 3D framework
# The original CSD entry CORZOA is in the cubic crystal system
# The framework has been calculated to contain at least 10.0% void space
# The void calculation uses a probe of radius 1.32A, grid spacing 0.4
#
###############################################################################

data_CORZOA
_chemical_formula_moiety         '(C288 H144 Cl24 In24 N48 O96)n'
_symmetry_cell_setting           triclinic
_symmetry_space_group_name_H-M   'P 1'
_symmetry_Int_Tables_number      1
_space_group_name_Hall           'P 1'
loop_
_symmetry_equiv_pos_site_id
_symmetry_equiv_pos_as_xyz
1 x,y,z
_cell_length_a                   27.590(3)
_cell_length_b                   27.590(3)
_cell_length_c                   27.590(3)
_cell_angle_alpha                90
_cell_angle_beta                 90
_cell_angle_gamma                90
_cell_volume                     21001.7
loop_
_atom_site_label
_atom_site_type_symbol
_atom_site_fract_x
_atom_site_fract_y
_atom_site_fract_z
In1 In 0.663140(10) 0.364947(9) 0.339871(9)
Cl1 Cl 0.58293(5) 0.39591(5) 0.34074(5)
O1 O 0.62784(11) 0.57148(10) 0.33106(11)
O2 O 0.69609(11) 0.61035(10) 0.34514(12)
O3 O 0.80521(11) 0.21468(9) 0.34167(11)
O4 O 0.87677(13) 0.24423(12) 0.32993(11)
N1 N 0.69979(12) 0.43842(11) 0.34190(10)
N2 N 0.74353(13) 0.35199(11) 0.34154(11)
C1 C 0.67644(16) 0.47993(13) 0.34085(13)
H1 H 0.6428 0.4793 0.3390
C2 C 0.69958(17) 0.52513(14) 0.34234(16)
C3 C 0.7490(2) 0.5249(2) 0.34651(19)
H2 H 0.7660 0.5539 0.3484
C4 C 0.7739(2) 0.4805(2) 0.3480(2)
H3 H 0.8075 0.4797 0.3509
C5 C 0.74782(17) 0.43860(15) 0.34501(18)
C6 C 0.77295(18) 0.39023(15) 0.34283(19)
C7 C 0.8218(2) 0.3847(3) 0.3414(2)
H4 H 0.8412 0.4123 0.3427
C8 C 0.8437(2) 0.3408(2) 0.3383(2)
H5 H 0.8772 0.3377 0.3360
C9 C 0.81280(17) 0.30009(14) 0.33855(17)
C10 C 0.76383(16) 0.30728(15) 0.33960(13)
H6 H 0.7436 0.2804 0.3390
C11 C 0.67231(17) 0.57050(15) 0.33925(15)
C12 C 0.83239(17) 0.24990(14) 0.33667(18)
In2 In 0.864947(9) 0.160129(9) 0.336860(10)
In3 In 0.635053(9) 0.660129(9) 0.336860(10)
O5 O 0.66894(11) 0.37216(11) 0.42852(10)
O6 O 0.65486(12) 0.30391(11) 0.38965(10)
O7 O 0.65833(11) 0.30521(11) 0.28532(9)
O8 O 0.67007(11) 0.37677(13) 0.25577(12)
In1_2 In 0.836860(10) 0.635053(9) 0.839871(9)
Cl1_2 Cl 0.91707(5) 0.60409(5) 0.84074(5)
O1_2 O 0.87216(11) 0.42852(10) 0.83106(11)
O2_2 O 0.80391(11) 0.38965(10) 0.84514(12)
O3_2 O 0.69479(11) 0.78532(9) 0.84167(11)
O4_2 O 0.62323(13) 0.75577(12) 0.82993(11)
N1_2 N 0.80021(12) 0.56158(11) 0.84190(10)
N2_2 N 0.75647(13) 0.64801(11) 0.84154(11)
C1_2 C 0.82356(16) 0.52007(13) 0.84085(13)
H1_2 H 0.8572 0.5207 0.8390
C2_2 C 0.80042(17) 0.47487(14) 0.84234(16)
C3_2 C 0.7510(2) 0.4751(2) 0.84651(19)
H2_2 H 0.7340 0.4461 0.8484
C4_2 C 0.7261(2) 0.5195(2) 0.8480(2)
H3_2 H 0.6925 0.5203 0.8509
C5_2 C 0.75218(17) 0.56140(15) 0.84501(18)
C6_2 C 0.72705(18) 0.60977(15) 0.84283(19)
C7_2 C 0.6782(2) 0.6153(3) 0.8414(2)
H4_2 H 0.6588 0.5877 0.8427
C8_2 C 0.6563(2) 0.6592(2) 0.8383(2)
H5_2 H 0.6228 0.6623 0.8360
C9_2 C 0.68720(17) 0.69991(14) 0.83855(17)
C10_2 C 0.73617(16) 0.69272(15) 0.83960(13)
H6_2 H 0.7564 0.7196 0.8390
C11_2 C 0.82769(17) 0.42950(15) 0.83925(15)
C12_2 C 0.66761(17) 0.75010(14) 0.83667(18)
In2_2 In 0.635053(9) 0.839871(9) 0.836860(10)
In3_2 In 0.864947(9) 0.339871(9) 0.836860(10)
O5_2 O 0.83106(11) 0.62784(11) 0.92852(10)
O6_2 O 0.84514(12) 0.69609(11) 0.88965(10)
O7_2 O 0.84167(11) 0.69479(11) 0.78532(9)
O8_2 O 0.82993(11) 0.62323(13) 0.75577(12)
O1_3 O 0.37216(11) 0.07148(10) 0.16894(11)
O2_3 O 0.30391(11) 0.11035(10) 0.15486(12)
C2_3 C 0.30042(17) 0.02513(14) 0.15766(16)
C3_3 C 0.2510(2) 0.0249(2) 0.15349(19)
H2_3 H 0.2340 0.0539 0.1516
C11_3 C 0.32769(17) 0.07050(15) 0.16075(15)
In3_3 In 0.364947(9) 0.160129(9) 0.163140(10)
In1_3 In 0.336860(10) 0.864947(9) 0.160129(9)
Cl1_3 Cl 0.41707(5) 0.89591(5) 0.15926(5)
O3_3 O 0.19479(11) 0.71468(9) 0.15833(11)
O4_3 O 0.12323(13) 0.74423(12) 0.17007(11)
N1_3 N 0.30021(12) 0.93842(11) 0.15810(10)
N2_3 N 0.25647(13) 0.85199(11) 0.15846(11)
C1_3 C 0.32356(16) 0.97993(13) 0.15915(13)
H1_3 H 0.3572 0.9793 0.1610
C4_3 C 0.2261(2) 0.9805(2) 0.1520(2)
H3_3 H 0.1925 0.9797 0.1491
C5_3 C 0.25218(17) 0.93860(15) 0.15499(18)
C6_3 C 0.22705(18) 0.89023(15) 0.15717(19)
C7_3 C 0.1782(2) 0.8847(3) 0.1586(2)
H4_3 H 0.1588 0.9123 0.1573
C8_3 C 0.1563(2) 0.8408(2) 0.1617(2)
H5_3 H 0.1228 0.8377 0.1640
C9_3 C 0.18720(17) 0.80009(14) 0.16145(17)
C10_3 C 0.23617(16) 0.80728(15) 0.16040(13)
H6_3 H 0.2564 0.7804 0.1610
C12_3 C 0.16761(17) 0.74990(14) 0.16333(18)
In2_3 In 0.135053(9) 0.660129(9) 0.163140(10)
O5_3 O 0.33106(11) 0.87216(11) 0.07148(10)
O6_3 O 0.34514(12) 0.80391(11) 0.11035(10)
O7_3 O 0.34167(11) 0.80521(11) 0.21468(9)
O8_3 O 0.32993(11) 0.87677(13) 0.24423(12)
In1_4 In 0.163140(10) 0.135053(9) 0.660129(9)
Cl1_4 Cl 0.08293(5) 0.10409(5) 0.65926(5)
O3_4 O 0.30521(11) 0.28532(9) 0.65833(11)
O4_4 O 0.37677(13) 0.25577(12) 0.67007(11)
N1_4 N 0.19979(12) 0.06158(11) 0.65810(10)
N2_4 N 0.24353(13) 0.14801(11) 0.65846(11)
C1_4 C 0.17644(16) 0.02007(13) 0.65915(13)
H1_4 H 0.1428 0.0207 0.6610
C4_4 C 0.2739(2) 0.0195(2) 0.6520(2)
H3_4 H 0.3075 0.0203 0.6491
C5_4 C 0.24782(17) 0.06140(15) 0.65499(18)
C6_4 C 0.27295(18) 0.10977(15) 0.65717(19)
C7_4 C 0.3218(2) 0.1153(3) 0.6586(2)
H4_4 H 0.3412 0.0877 0.6573
C8_4 C 0.3437(2) 0.1592(2) 0.6617(2)
H5_4 H 0.3772 0.1623 0.6640
C9_4 C 0.31280(17) 0.19991(14) 0.66145(17)
C10_4 C 0.26383(16) 0.19272(15) 0.66040(13)
H6_4 H 0.2436 0.2196 0.6610
C12_4 C 0.33239(17) 0.25010(14) 0.66333(18)
In2_4 In 0.364947(9) 0.339871(9) 0.663140(10)
O5_4 O 0.16894(11) 0.12784(11) 0.57148(10)
O6_4 O 0.15486(12) 0.19609(11) 0.61035(10)
O7_4 O 0.15833(11) 0.19479(11) 0.71468(9)
O8_4 O 0.17007(11) 0.12323(13) 0.74423(12)
O1_4 O 0.12784(11) 0.92852(10) 0.66894(11)
O2_4 O 0.19609(11) 0.88965(10) 0.65486(12)
C2_4 C 0.19958(17) 0.97487(14) 0.65766(16)
C3_4 C 0.2490(2) 0.9751(2) 0.65349(19)
H2_4 H 0.2660 0.9461 0.6516
C11_4 C 0.17231(17) 0.92950(15) 0.66075(15)
In3_4 In 0.135053(9) 0.839871(9) 0.663140(10)
In1_5 In 0.339871(9) 0.663140(10) 0.364947(9)
Cl1_5 Cl 0.34074(5) 0.58293(5) 0.39591(5)
O1_5 O 0.33106(11) 0.62784(11) 0.57148(10)
O2_5 O 0.34514(12) 0.69609(11) 0.61035(10)
N1_5 N 0.34190(10) 0.69979(12) 0.43842(11)
N2_5 N 0.34154(11) 0.74353(13) 0.35199(11)
C1_5 C 0.34085(13) 0.67644(16) 0.47993(13)
H1_5 H 0.3390 0.6428 0.4793
C2_5 C 0.34234(16) 0.69958(17) 0.52513(14)
C3_5 C 0.34651(19) 0.7490(2) 0.5249(2)
H2_5 H 0.3484 0.7660 0.5539
C4_5 C 0.3480(2) 0.7739(2) 0.4805(2)
H3_5 H 0.3509 0.8075 0.4797
C5_5 C 0.34501(18) 0.74782(17) 0.43860(15)
C6_5 C 0.34283(19) 0.77295(18) 0.39023(15)
C7_5 C 0.3414(2) 0.8218(2) 0.3847(3)
H4_5 H 0.3427 0.8412 0.4123
C8_5 C 0.3383(2) 0.8437(2) 0.3408(2)
H5_5 H 0.3360 0.8772 0.3377
C9_5 C 0.33855(17) 0.81280(17) 0.30009(14)
C10_5 C 0.33960(13) 0.76383(16) 0.30728(15)
H6_5 H 0.3390 0.7436 0.2804
C11_5 C 0.33925(15) 0.67231(17) 0.57050(15)
C12_5 C 0.33667(18) 0.83239(17) 0.24990(14)
In3_5 In 0.336860(10) 0.635053(9) 0.660129(9)
O5_5 O 0.42852(10) 0.66894(11) 0.37216(11)
O6_5 O 0.38965(10) 0.65486(12) 0.30391(11)
O7_5 O 0.28532(9) 0.65833(11) 0.30521(11)
O8_5 O 0.25577(12) 0.67007(11) 0.37677(13)
In1_6 In 0.839871(9) 0.836860(10) 0.635053(9)
Cl1_6 Cl 0.84074(5) 0.91707(5) 0.60409(5)
O1_6 O 0.83106(11) 0.87216(11) 0.42852(10)
O2_6 O 0.84514(12) 0.80391(11) 0.38965(10)
N1_6 N 0.84190(10) 0.80021(12) 0.56158(11)
N2_6 N 0.84154(11) 0.75647(13) 0.64801(11)
C1_6 C 0.84085(13) 0.82356(16) 0.52007(13)
H1_6 H 0.8390 0.8572 0.5207
C2_6 C 0.84234(16) 0.80042(17) 0.47487(14)
C3_6 C 0.84651(19) 0.7510(2) 0.4751(2)
H2_6 H 0.8484 0.7340 0.4461
C4_6 C 0.8480(2) 0.7261(2) 0.5195(2)
H3_6 H 0.8509 0.6925 0.5203
C5_6 C 0.84501(18) 0.75218(17) 0.56140(15)
C6_6 C 0.84283(19) 0.72705(18) 0.60977(15)
C7_6 C 0.8414(2) 0.6782(2) 0.6153(3)
H4_6 H 0.8427 0.6588 0.5877
C8_6 C 0.8383(2) 0.6563(2) 0.6592(2)
H5_6 H 0.8360 0.6228 0.6623
C9_6 C 0.83855(17) 0.68720(17) 0.69991(14)
C10_6 C 0.83960(13) 0.73617(16) 0.69272(15)
H6_6 H 0.8390 0.7564 0.7196
C11_6 C 0.83925(15) 0.82769(17) 0.42950(15)
C12_6 C 0.83667(18) 0.66761(17) 0.75010(14)
In3_6 In 0.836860(10) 0.864947(9) 0.339871(9)
O5_6 O 0.92852(10) 0.83106(11) 0.62784(11)
O6_6 O 0.88965(10) 0.84514(12) 0.69609(11)
O7_6 O 0.78532(9) 0.84167(11) 0.69479(11)
O8_6 O 0.75577(12) 0.82993(11) 0.62323(13)
O1_7 O 0.16894(11) 0.37216(11) 0.07148(10)
O2_7 O 0.15486(12) 0.30391(11) 0.11035(10)
C2_7 C 0.15766(16) 0.30042(17) 0.02513(14)
C3_7 C 0.15349(19) 0.2510(2) 0.0249(2)
H2_7 H 0.1516 0.2340 0.0539
C11_7 C 0.16075(15) 0.32769(17) 0.07050(15)
In3_7 In 0.163140(10) 0.364947(9) 0.160129(9)
In1_7 In 0.160129(9) 0.336860(10) 0.864947(9)
Cl1_7 Cl 0.15926(5) 0.41707(5) 0.89591(5)
N1_7 N 0.15810(10) 0.30021(12) 0.93842(11)
N2_7 N 0.15846(11) 0.25647(13) 0.85199(11)
C1_7 C 0.15915(13) 0.32356(16) 0.97993(13)
H1_7 H 0.1610 0.3572 0.9793
C4_7 C 0.1520(2) 0.2261(2) 0.9805(2)
H3_7 H 0.1491 0.1925 0.9797
C5_7 C 0.15499(18) 0.25218(17) 0.93860(15)
C6_7 C 0.15717(19) 0.22705(18) 0.89023(15)
C7_7 C 0.1586(2) 0.1782(2) 0.8847(3)
H4_7 H 0.1573 0.1588 0.9123
C8_7 C 0.1617(2) 0.1563(2) 0.8408(2)
H5_7 H 0.1640 0.1228 0.8377
C9_7 C 0.16145(17) 0.18720(17) 0.80009(14)
C10_7 C 0.16040(13) 0.23617(16) 0.80728(15)
H6_7 H 0.1610 0.2564 0.7804
C12_7 C 0.16333(18) 0.16761(17) 0.74990(14)
O5_7 O 0.07148(10) 0.33106(11) 0.87216(11)
O6_7 O 0.11035(10) 0.34514(12) 0.80391(11)
O7_7 O 0.21468(9) 0.34167(11) 0.80521(11)
O8_7 O 0.24423(12) 0.32993(11) 0.87677(13)
In1_8 In 0.660129(9) 0.163140(10) 0.135053(9)
Cl1_8 Cl 0.65926(5) 0.08293(5) 0.10409(5)
N1_8 N 0.65810(10) 0.19979(12) 0.06158(11)
N2_8 N 0.65846(11) 0.24353(13) 0.14801(11)
C1_8 C 0.65915(13) 0.17644(16) 0.02007(13)
H1_8 H 0.6610 0.1428 0.0207
C4_8 C 0.6520(2) 0.2739(2) 0.0195(2)
H3_8 H 0.6491 0.3075 0.0203
C5_8 C 0.65499(18) 0.24782(17) 0.06140(15)
C6_8 C 0.65717(19) 0.27295(18) 0.10977(15)
C7_8 C 0.6586(2) 0.3218(2) 0.1153(3)
H4_8 H 0.6573 0.3412 0.0877
C8_8 C 0.6617(2) 0.3437(2) 0.1592(2)
H5_8 H 0.6640 0.3772 0.1623
C9_8 C 0.66145(17) 0.31280(17) 0.19991(14)
C10_8 C 0.66040(13) 0.26383(16) 0.19272(15)
H6_8 H 0.6610 0.2436 0.2196
C12_8 C 0.66333(18) 0.33239(17) 0.25010(14)
O5_8 O 0.57148(10) 0.16894(11) 0.12784(11)
O6_8 O 0.61035(10) 0.15486(12) 0.19609(11)
O7_8 O 0.71468(9) 0.15833(11) 0.19479(11)
O8_8 O 0.74423(12) 0.17007(11) 0.12323(13)
O1_8 O 0.66894(11) 0.12784(11) 0.92852(10)
O2_8 O 0.65486(12) 0.19609(11) 0.88965(10)
C2_8 C 0.65766(16) 0.19958(17) 0.97487(14)
C3_8 C 0.65349(19) 0.2490(2) 0.9751(2)
H2_8 H 0.6516 0.2660 0.9461
C11_8 C 0.66075(15) 0.17231(17) 0.92950(15)
In3_8 In 0.663140(10) 0.135053(9) 0.839871(9)
Cl1_9 Cl 0.39591(5) 0.34074(5) 0.58293(5)
O1_9 O 0.57148(10) 0.33106(11) 0.62784(11)
O2_9 O 0.61035(10) 0.34514(12) 0.69609(11)
N1_9 N 0.43842(11) 0.34190(10) 0.69979(12)
N2_9 N 0.35199(11) 0.34154(11) 0.74353(13)
C1_9 C 0.47993(13) 0.34085(13) 0.67644(16)
H1_9 H 0.4793 0.3390 0.6428
C2_9 C 0.52513(14) 0.34234(16) 0.69958(17)
C3_9 C 0.5249(2) 0.34651(19) 0.7490(2)
H2_9 H 0.5539 0.3484 0.7660
C4_9 C 0.4805(2) 0.3480(2) 0.7739(2)
H3_9 H 0.4797 0.3509 0.8075
C5_9 C 0.43860(15) 0.34501(18) 0.74782(17)
C6_9 C 0.39023(15) 0.34283(19) 0.77295(18)
C7_9 C 0.3847(3) 0.3414(2) 0.8218(2)
H4_9 H 0.4123 0.3427 0.8412
C8_9 C 0.3408(2) 0.3383(2) 0.8437(2)
H5_9 H 0.3377 0.3360 0.8772
C9_9 C 0.30009(14) 0.33855(17) 0.81280(17)
C10_9 C 0.30728(15) 0.33960(13) 0.76383(16)
H6_9 H 0.2804 0.3390 0.7436
C11_9 C 0.57050(15) 0.33925(15) 0.67231(17)
C12_9 C 0.24990(14) 0.33667(18) 0.83239(17)
In3_9 In 0.660129(9) 0.336860(10) 0.635053(9)
O5_9 O 0.37216(11) 0.42852(10) 0.66894(11)
O6_9 O 0.30391(11) 0.38965(10) 0.65486(12)
Cl1_10 Cl 0.60409(5) 0.84074(5) 0.91707(5)
O1_10 O 0.42852(10) 0.83106(11) 0.87216(11)
O2_10 O 0.38965(10) 0.84514(12) 0.80391(11)
N1_10 N 0.56158(11) 0.84190(10) 0.80021(12)
N2_10 N 0.64801(11) 0.84154(11) 0.75647(13)
C1_10 C 0.52007(13) 0.84085(13) 0.82356(16)
H1_10 H 0.5207 0.8390 0.8572
C2_10 C 0.47487(14) 0.84234(16) 0.80042(17)
C3_10 C 0.4751(2) 0.84651(19) 0.7510(2)
H2_10 H 0.4461 0.8484 0.7340
C4_10 C 0.5195(2) 0.8480(2) 0.7261(2)
H3_10 H 0.5203 0.8509 0.6925
C5_10 C 0.56140(15) 0.84501(18) 0.75218(17)
C6_10 C 0.60977(15) 0.84283(19) 0.72705(18)
C7_10 C 0.6153(3) 0.8414(2) 0.6782(2)
H4_10 H 0.5877 0.8427 0.6588
C8_10 C 0.6592(2) 0.8383(2) 0.6563(2)
H5_10 H 0.6623 0.8360 0.6228
C9_10 C 0.69991(14) 0.83855(17) 0.68720(17)
C10_10 C 0.69272(15) 0.83960(13) 0.73617(16)
H6_10 H 0.7196 0.8390 0.7564
C11_10 C 0.42950(15) 0.83925(15) 0.82769(17)
C12_10 C 0.75010(14) 0.83667(18) 0.66761(17)
In3_10 In 0.339871(9) 0.836860(10) 0.864947(9)
O5_10 O 0.62784(11) 0.92852(10) 0.83106(11)
O6_10 O 0.69609(11) 0.88965(10) 0.84514(12)
O1_11 O 0.07148(10) 0.16894(11) 0.37216(11)
O2_11 O 0.11035(10) 0.15486(12) 0.30391(11)
C2_11 C 0.02513(14) 0.15766(16) 0.30042(17)
C3_11 C 0.0249(2) 0.15349(19) 0.2510(2)
H2_11 H 0.0539 0.1516 0.2340
C11_11 C 0.07050(15) 0.16075(15) 0.32769(17)
In3_11 In 0.160129(9) 0.163140(10) 0.364947(9)
Cl1_11 Cl 0.89591(5) 0.15926(5) 0.41707(5)
N1_11 N 0.93842(11) 0.15810(10) 0.30021(12)
N2_11 N 0.85199(11) 0.15846(11) 0.25647(13)
C1_11 C 0.97993(13) 0.15915(13) 0.32356(16)
H1_11 H 0.9793 0.1610 0.3572
C4_11 C 0.9805(2) 0.1520(2) 0.2261(2)
H3_11 H 0.9797 0.1491 0.1925
C5_11 C 0.93860(15) 0.15499(18) 0.25218(17)
C6_11 C 0.89023(15) 0.15717(19) 0.22705(18)
C7_11 C 0.8847(3) 0.1586(2) 0.1782(2)
H4_11 H 0.9123 0.1573 0.1588
C8_11 C 0.8408(2) 0.1617(2) 0.1563(2)
H5_11 H 0.8377 0.1640 0.1228
C9_11 C 0.80009(14) 0.16145(17) 0.18720(17)
C10_11 C 0.80728(15) 0.16040(13) 0.23617(16)
H6_11 H 0.7804 0.1610 0.2564
C12_11 C 0.74990(14) 0.16333(18) 0.16761(17)
O5_11 O 0.87216(11) 0.07148(10) 0.33106(11)
O6_11 O 0.80391(11) 0.11035(10) 0.34514(12)
Cl1_12 Cl 0.10409(5) 0.65926(5) 0.08293(5)
N1_12 N 0.06158(11) 0.65810(10) 0.19979(12)
N2_12 N 0.14801(11) 0.65846(11) 0.24353(13)
C1_12 C 0.02007(13) 0.65915(13) 0.17644(16)
H1_12 H 0.0207 0.6610 0.1428
C4_12 C 0.0195(2) 0.6520(2) 0.2739(2)
H3_12 H 0.0203 0.6491 0.3075
C5_12 C 0.06140(15) 0.65499(18) 0.24782(17)
C6_12 C 0.10977(15) 0.65717(19) 0.27295(18)
C7_12 C 0.1153(3) 0.6586(2) 0.3218(2)
H4_12 H 0.0877 0.6573 0.3412
C8_12 C 0.1592(2) 0.6617(2) 0.3437(2)
H5_12 H 0.1623 0.6640 0.3772
C9_12 C 0.19991(14) 0.66145(17) 0.31280(17)
C10_12 C 0.19272(15) 0.66040(13) 0.26383(16)
H6_12 H 0.2196 0.6610 0.2436
C12_12 C 0.25010(14) 0.66333(18) 0.33239(17)
O5_12 O 0.12784(11) 0.57148(10) 0.16894(11)
O6_12 O 0.19609(11) 0.61035(10) 0.15486(12)
O1_12 O 0.92852(10) 0.66894(11) 0.12784(11)
O2_12 O 0.88965(10) 0.65486(12) 0.19609(11)
C2_12 C 0.97487(14) 0.65766(16) 0.19958(17)
C3_12 C 0.9751(2) 0.65349(19) 0.2490(2)
H2_12 H 0.9461 0.6516 0.2660
C11_12 C 0.92950(15) 0.66075(15) 0.17231(17)
In3_12 In 0.839871(9) 0.663140(10) 0.135053(9)
Cl1_13 Cl 0.41707(5) 0.60409(5) 0.65926(5)
O3_5 O 0.19479(11) 0.78532(9) 0.65833(11)
O4_5 O 0.12323(13) 0.75577(12) 0.67007(11)
N1_13 N 0.30021(12) 0.56158(11) 0.65810(10)
N2_13 N 0.25647(13) 0.64801(11) 0.65846(11)
C1_13 C 0.32356(16) 0.52007(13) 0.65915(13)
H1_13 H 0.3572 0.5207 0.6610
C2_13 C 0.30042(17) 0.47487(14) 0.65766(16)
C3_13 C 0.2510(2) 0.4751(2) 0.65349(19)
H2_13 H 0.2340 0.4461 0.6516
C4_13 C 0.2261(2) 0.5195(2) 0.6520(2)
H3_13 H 0.1925 0.5203 0.6491
C5_13 C 0.25218(17) 0.56140(15) 0.65499(18)
C6_13 C 0.22705(18) 0.60977(15) 0.65717(19)
C7_13 C 0.1782(2) 0.6153(3) 0.6586(2)
H4_13 H 0.1588 0.5877 0.6573
C8_13 C 0.1563(2) 0.6592(2) 0.6617(2)
H5_13 H 0.1228 0.6623 0.6640
C9_13 C 0.18720(17) 0.69991(14) 0.66145(17)
C10_13 C 0.23617(16) 0.69272(15) 0.66040(13)
H6_13 H 0.2564 0.7196 0.6610
C11_13 C 0.32769(17) 0.42950(15) 0.66075(15)
C12_13 C 0.16761(17) 0.75010(14) 0.66333(18)
O7_9 O 0.34167(11) 0.69479(11) 0.71468(9)
O8_9 O 0.32993(11) 0.62323(13) 0.74423(12)
Cl1_14 Cl 0.08293(5) 0.39591(5) 0.15926(5)
O3_6 O 0.30521(11) 0.21468(9) 0.15833(11)
O4_6 O 0.37677(13) 0.24423(12) 0.17007(11)
N1_14 N 0.19979(12) 0.43842(11) 0.15810(10)
N2_14 N 0.24353(13) 0.35199(11) 0.15846(11)
C1_14 C 0.17644(16) 0.47993(13) 0.15915(13)
H1_14 H 0.1428 0.4793 0.1610
C2_14 C 0.19958(17) 0.52513(14) 0.15766(16)
C3_14 C 0.2490(2) 0.5249(2) 0.15349(19)
H2_14 H 0.2660 0.5539 0.1516
C4_14 C 0.2739(2) 0.4805(2) 0.1520(2)
H3_14 H 0.3075 0.4797 0.1491
C5_14 C 0.24782(17) 0.43860(15) 0.15499(18)
C6_14 C 0.27295(18) 0.39023(15) 0.15717(19)
C7_14 C 0.3218(2) 0.3847(3) 0.1586(2)
H4_14 H 0.3412 0.4123 0.1573
C8_14 C 0.3437(2) 0.3408(2) 0.1617(2)
H5_14 H 0.3772 0.3377 0.1640
C9_14 C 0.31280(17) 0.30009(14) 0.16145(17)
C10_14 C 0.26383(16) 0.30728(15) 0.16040(13)
H6_14 H 0.2436 0.2804 0.1610
C11_14 C 0.17231(17) 0.57050(15) 0.16075(15)
C12_14 C 0.33239(17) 0.24990(14) 0.16333(18)
O7_10 O 0.15833(11) 0.30521(11) 0.21468(9)
O8_10 O 0.17007(11) 0.37677(13) 0.24423(12)
Cl1_15 Cl 0.58293(5) 0.10409(5) 0.84074(5)
O3_7 O 0.80521(11) 0.28532(9) 0.84167(11)
O4_7 O 0.87677(13) 0.25577(12) 0.82993(11)
N1_15 N 0.69979(12) 0.06158(11) 0.84190(10)
N2_15 N 0.74353(13) 0.14801(11) 0.84154(11)
C1_15 C 0.67644(16) 0.02007(13) 0.84085(13)
H1_15 H 0.6428 0.0207 0.8390
C4_15 C 0.7739(2) 0.0195(2) 0.8480(2)
H3_15 H 0.8075 0.0203 0.8509
C5_15 C 0.74782(17) 0.06140(15) 0.84501(18)
C6_15 C 0.77295(18) 0.10977(15) 0.84283(19)
C7_15 C 0.8218(2) 0.1153(3) 0.8414(2)
H4_15 H 0.8412 0.0877 0.8427
C8_15 C 0.8437(2) 0.1592(2) 0.8383(2)
H5_15 H 0.8772 0.1623 0.8360
C9_15 C 0.81280(17) 0.19991(14) 0.83855(17)
C10_15 C 0.76383(16) 0.19272(15) 0.83960(13)
H6_15 H 0.7436 0.2196 0.8390
C12_15 C 0.83239(17) 0.25010(14) 0.83667(18)
O7_11 O 0.65833(11) 0.19479(11) 0.78532(9)
O8_11 O 0.67007(11) 0.12323(13) 0.75577(12)
C2_15 C 0.69958(17) 0.97487(14) 0.84234(16)
C3_15 C 0.7490(2) 0.9751(2) 0.84651(19)
H2_15 H 0.7660 0.9461 0.8484
C11_15 C 0.67231(17) 0.92950(15) 0.83925(15)
C2_16 C 0.80042(17) 0.02513(14) 0.34234(16)
C3_16 C 0.7510(2) 0.0249(2) 0.34651(19)
H2_16 H 0.7340 0.0539 0.3484
C11_16 C 0.82769(17) 0.07050(15) 0.33925(15)
Cl1_16 Cl 0.91707(5) 0.89591(5) 0.34074(5)
O3_8 O 0.69479(11) 0.71468(9) 0.34167(11)
O4_8 O 0.62323(13) 0.74423(12) 0.32993(11)
N1_16 N 0.80021(12) 0.93842(11) 0.34190(10)
N2_16 N 0.75647(13) 0.85199(11) 0.34154(11)
C1_16 C 0.82356(16) 0.97993(13) 0.34085(13)
H1_16 H 0.8572 0.9793 0.3390
C4_16 C 0.7261(2) 0.9805(2) 0.3480(2)
H3_16 H 0.6925 0.9797 0.3509
C5_16 C 0.75218(17) 0.93860(15) 0.34501(18)
C6_16 C 0.72705(18) 0.89023(15) 0.34283(19)
C7_16 C 0.6782(2) 0.8847(3) 0.3414(2)
H4_16 H 0.6588 0.9123 0.3427
C8_16 C 0.6563(2) 0.8408(2) 0.3383(2)
H5_16 H 0.6228 0.8377 0.3360
C9_16 C 0.68720(17) 0.80009(14) 0.33855(17)
C10_16 C 0.73617(16) 0.80728(15) 0.33960(13)
H6_16 H 0.7564 0.7804 0.3390
C12_16 C 0.66761(17) 0.74990(14) 0.33667(18)
O7_12 O 0.84167(11) 0.80521(11) 0.28532(9)
O8_12 O 0.82993(11) 0.87677(13) 0.25577(12)
Cl1_17 Cl 0.65926(5) 0.41707(5) 0.60409(5)
N1_17 N 0.65810(10) 0.30021(12) 0.56158(11)
N2_17 N 0.65846(11) 0.25647(13) 0.64801(11)
C1_17 C 0.65915(13) 0.32356(16) 0.52007(13)
H1_17 H 0.6610 0.3572 0.5207
C2_17 C 0.65766(16) 0.30042(17) 0.47487(14)
C3_17 C 0.65349(19) 0.2510(2) 0.4751(2)
H2_17 H 0.6516 0.2340 0.4461
C4_17 C 0.6520(2) 0.2261(2) 0.5195(2)
H3_17 H 0.6491 0.1925 0.5203
C5_17 C 0.65499(18) 0.25218(17) 0.56140(15)
C6_17 C 0.65717(19) 0.22705(18) 0.60977(15)
C7_17 C 0.6586(2) 0.1782(2) 0.6153(3)
H4_17 H 0.6573 0.1588 0.5877
C8_17 C 0.6617(2) 0.1563(2) 0.6592(2)
H5_17 H 0.6640 0.1228 0.6623
C9_17 C 0.66145(17) 0.18720(17) 0.69991(14)
C10_17 C 0.66040(13) 0.23617(16) 0.69272(15)
H6_17 H 0.6610 0.2564 0.7196
C11_17 C 0.66075(15) 0.32769(17) 0.42950(15)
C12_17 C 0.66333(18) 0.16761(17) 0.75010(14)
O7_13 O 0.71468(9) 0.34167(11) 0.69479(11)
O8_13 O 0.74423(12) 0.32993(11) 0.62323(13)
Cl1_18 Cl 0.15926(5) 0.08293(5) 0.39591(5)
N1_18 N 0.15810(10) 0.19979(12) 0.43842(11)
N2_18 N 0.15846(11) 0.24353(13) 0.35199(11)
C1_18 C 0.15915(13) 0.17644(16) 0.47993(13)
H1_18 H 0.1610 0.1428 0.4793
C2_18 C 0.15766(16) 0.19958(17) 0.52513(14)
C3_18 C 0.15349(19) 0.2490(2) 0.5249(2)
H2_18 H 0.1516 0.2660 0.5539
C4_18 C 0.1520(2) 0.2739(2) 0.4805(2)
H3_18 H 0.1491 0.3075 0.4797
C5_18 C 0.15499(18) 0.24782(17) 0.43860(15)
C6_18 C 0.15717(19) 0.27295(18) 0.39023(15)
C7_18 C 0.1586(2) 0.3218(2) 0.3847(3)
H4_18 H 0.1573 0.3412 0.4123
C8_18 C 0.1617(2) 0.3437(2) 0.3408(2)
H5_18 H 0.1640 0.3772 0.3377
C9_18 C 0.16145(17) 0.31280(17) 0.30009(14)
C10_18 C 0.16040(13) 0.26383(16) 0.30728(15)
H6_18 H 0.1610 0.2436 0.2804
C11_18 C 0.16075(15) 0.17231(17) 0.57050(15)
C12_18 C 0.16333(18) 0.33239(17) 0.24990(14)
O7_14 O 0.21468(9) 0.15833(11) 0.30521(11)
O8_14 O 0.24423(12) 0.17007(11) 0.37677(13)
Cl1_19 Cl 0.84074(5) 0.58293(5) 0.10409(5)
N1_19 N 0.84190(10) 0.69979(12) 0.06158(11)
N2_19 N 0.84154(11) 0.74353(13) 0.14801(11)
C1_19 C 0.84085(13) 0.67644(16) 0.02007(13)
H1_19 H 0.8390 0.6428 0.0207
C4_19 C 0.8480(2) 0.7739(2) 0.0195(2)
H3_19 H 0.8509 0.8075 0.0203
C5_19 C 0.84501(18) 0.74782(17) 0.06140(15)
C6_19 C 0.84283(19) 0.77295(18) 0.10977(15)
C7_19 C 0.8414(2) 0.8218(2) 0.1153(3)
H4_19 H 0.8427 0.8412 0.0877
C8_19 C 0.8383(2) 0.8437(2) 0.1592(2)
H5_19 H 0.8360 0.8772 0.1623
C9_19 C 0.83855(17) 0.81280(17) 0.19991(14)
C10_19 C 0.83960(13) 0.76383(16) 0.19272(15)
H6_19 H 0.8390 0.7436 0.2196
C12_19 C 0.83667(18) 0.83239(17) 0.25010(14)
O7_15 O 0.78532(9) 0.65833(11) 0.19479(11)
O8_15 O 0.75577(12) 0.67007(11) 0.12323(13)
C2_19 C 0.84234(16) 0.69958(17) 0.97487(14)
C3_19 C 0.84651(19) 0.7490(2) 0.9751(2)
H2_19 H 0.8484 0.7660 0.9461
C11_19 C 0.83925(15) 0.67231(17) 0.92950(15)
C2_20 C 0.34234(16) 0.80042(17) 0.02513(14)
C3_20 C 0.34651(19) 0.7510(2) 0.0249(2)
H2_20 H 0.3484 0.7340 0.0539
C11_20 C 0.33925(15) 0.82769(17) 0.07050(15)
Cl1_20 Cl 0.34074(5) 0.91707(5) 0.89591(5)
N1_20 N 0.34190(10) 0.80021(12) 0.93842(11)
N2_20 N 0.34154(11) 0.75647(13) 0.85199(11)
C1_20 C 0.34085(13) 0.82356(16) 0.97993(13)
H1_20 H 0.3390 0.8572 0.9793
C4_20 C 0.3480(2) 0.7261(2) 0.9805(2)
H3_20 H 0.3509 0.6925 0.9797
C5_20 C 0.34501(18) 0.75218(17) 0.93860(15)
C6_20 C 0.34283(19) 0.72705(18) 0.89023(15)
C7_20 C 0.3414(2) 0.6782(2) 0.8847(3)
H4_20 H 0.3427 0.6588 0.9123
C8_20 C 0.3383(2) 0.6563(2) 0.8408(2)
H5_20 H 0.3360 0.6228 0.8377
C9_20 C 0.33855(17) 0.68720(17) 0.80009(14)
C10_20 C 0.33960(13) 0.73617(16) 0.80728(15)
H6_20 H 0.3390 0.7564 0.7804
C12_20 C 0.33667(18) 0.66761(17) 0.74990(14)
O7_16 O 0.28532(9) 0.84167(11) 0.80521(11)
O8_16 O 0.25577(12) 0.82993(11) 0.87677(13)
Cl1_21 Cl 0.60409(5) 0.65926(5) 0.41707(5)
N1_21 N 0.56158(11) 0.65810(10) 0.30021(12)
N2_21 N 0.64801(11) 0.65846(11) 0.25647(13)
C1_21 C 0.52007(13) 0.65915(13) 0.32356(16)
H1_21 H 0.5207 0.6610 0.3572
C2_21 C 0.47487(14) 0.65766(16) 0.30042(17)
C3_21 C 0.4751(2) 0.65349(19) 0.2510(2)
H2_21 H 0.4461 0.6516 0.2340
C4_21 C 0.5195(2) 0.6520(2) 0.2261(2)
H3_21 H 0.5203 0.6491 0.1925
C5_21 C 0.56140(15) 0.65499(18) 0.25218(17)
C6_21 C 0.60977(15) 0.65717(19) 0.22705(18)
C7_21 C 0.6153(3) 0.6586(2) 0.1782(2)
H4_21 H 0.5877 0.6573 0.1588
C8_21 C 0.6592(2) 0.6617(2) 0.1563(2)
H5_21 H 0.6623 0.6640 0.1228
C9_21 C 0.69991(14) 0.66145(17) 0.18720(17)
C10_21 C 0.69272(15) 0.66040(13) 0.23617(16)
H6_21 H 0.7196 0.6610 0.2564
C11_21 C 0.42950(15) 0.66075(15) 0.32769(17)
C12_21 C 0.75010(14) 0.66333(18) 0.16761(17)
Cl1_22 Cl 0.39591(5) 0.15926(5) 0.08293(5)
N1_22 N 0.43842(11) 0.15810(10) 0.19979(12)
N2_22 N 0.35199(11) 0.15846(11) 0.24353(13)
C1_22 C 0.47993(13) 0.15915(13) 0.17644(16)
H1_22 H 0.4793 0.1610 0.1428
C2_22 C 0.52513(14) 0.15766(16) 0.19958(17)
C3_22 C 0.5249(2) 0.15349(19) 0.2490(2)
H2_22 H 0.5539 0.1516 0.2660
C4_22 C 0.4805(2) 0.1520(2) 0.2739(2)
H3_22 H 0.4797 0.1491 0.3075
C5_22 C 0.43860(15) 0.15499(18) 0.24782(17)
C6_22 C 0.39023(15) 0.15717(19) 0.27295(18)
C7_22 C 0.3847(3) 0.1586(2) 0.3218(2)
H4_22 H 0.4123 0.1573 0.3412
C8_22 C 0.3408(2) 0.1617(2) 0.3437(2)
H5_22 H 0.3377 0.1640 0.3772
C9_22 C 0.30009(14) 0.16145(17) 0.31280(17)
C10_22 C 0.30728(15) 0.16040(13) 0.26383(16)
H6_22 H 0.2804 0.1610 0.2436
C11_22 C 0.57050(15) 0.16075(15) 0.17231(17)
C12_22 C 0.24990(14) 0.16333(18) 0.33239(17)
Cl1_23 Cl 0.10409(5) 0.84074(5) 0.58293(5)
N1_23 N 0.06158(11) 0.84190(10) 0.69979(12)
N2_23 N 0.14801(11) 0.84154(11) 0.74353(13)
C1_23 C 0.02007(13) 0.84085(13) 0.67644(16)
H1_23 H 0.0207 0.8390 0.6428
C4_23 C 0.0195(2) 0.8480(2) 0.7739(2)
H3_23 H 0.0203 0.8509 0.8075
C5_23 C 0.06140(15) 0.84501(18) 0.74782(17)
C6_23 C 0.10977(15) 0.84283(19) 0.77295(18)
C7_23 C 0.1153(3) 0.8414(2) 0.8218(2)
H4_23 H 0.0877 0.8427 0.8412
C8_23 C 0.1592(2) 0.8383(2) 0.8437(2)
H5_23 H 0.1623 0.8360 0.8772
C9_23 C 0.19991(14) 0.83855(17) 0.81280(17)
C10_23 C 0.19272(15) 0.83960(13) 0.76383(16)
H6_23 H 0.2196 0.8390 0.7436
C12_23 C 0.25010(14) 0.83667(18) 0.83239(17)
C2_23 C 0.97487(14) 0.84234(16) 0.69958(17)
C3_23 C 0.9751(2) 0.84651(19) 0.7490(2)
H2_23 H 0.9461 0.8484 0.7660
C11_23 C 0.92950(15) 0.83925(15) 0.67231(17)
C2_24 C 0.02513(14) 0.34234(16) 0.80042(17)
C3_24 C 0.0249(2) 0.34651(19) 0.7510(2)
H2_24 H 0.0539 0.3484 0.7340
C11_24 C 0.07050(15) 0.33925(15) 0.82769(17)
Cl1_24 Cl 0.89591(5) 0.34074(5) 0.91707(5)
N1_24 N 0.93842(11) 0.34190(10) 0.80021(12)
N2_24 N 0.85199(11) 0.34154(11) 0.75647(13)
C1_24 C 0.97993(13) 0.34085(13) 0.82356(16)
H1_24 H 0.9793 0.3390 0.8572
C4_24 C 0.9805(2) 0.3480(2) 0.7261(2)
H3_24 H 0.9797 0.3509 0.6925
C5_24 C 0.93860(15) 0.34501(18) 0.75218(17)
C6_24 C 0.89023(15) 0.34283(19) 0.72705(18)
C7_24 C 0.8847(3) 0.3414(2) 0.6782(2)
H4_24 H 0.9123 0.3427 0.6588
C8_24 C 0.8408(2) 0.3383(2) 0.6563(2)
H5_24 H 0.8377 0.3360 0.6228
C9_24 C 0.80009(14) 0.33855(17) 0.68720(17)
C10_24 C 0.80728(15) 0.33960(13) 0.73617(16)
H6_24 H 0.7804 0.3390 0.7564
C12_24 C 0.74990(14) 0.33667(18) 0.66761(17)
loop_
_geom_bond_atom_site_label_1
_geom_bond_atom_site_label_2
_geom_bond_site_symmetry_1
_geom_bond_site_symmetry_2
In1 Cl1 1_555 1_555
O1 C11 1_555 1_555
O2 C11 1_555 1_555
O3 C12 1_555 1_555
O4 C12 1_555 1_555
N1 In1 1_555 1_555
N2 In1 1_555 1_555
C1 N1 1_555 1_555
H1 C1 1_555 1_555
C2 C1 1_555 1_555
C3 C2 1_555 1_555
H2 C3 1_555 1_555
C4 C3 1_555 1_555
H3 C4 1_555 1_555
C5 N1 1_555 1_555
C6 N2 1_555 1_555
C7 C6 1_555 1_555
H4 C7 1_555 1_555
C8 C7 1_555 1_555
H5 C8 1_555 1_555
C9 C8 1_555 1_555
C10 N2 1_555 1_555
H6 C10 1_555 1_555
C11 C2 1_555 1_555
C12 C9 1_555 1_555
In2 O3 1_555 1_555
In3 O1 1_555 1_555
O5 In1 1_555 1_555
O6 In1 1_555 1_555
O7 In1 1_555 1_555
O8 In1 1_555 1_555
O2 In3 1_555 1_555
O4 In2 1_555 1_555
C4 C5 1_555 1_555
C5 C6 1_555 1_555
C9 C10 1_555 1_555
In1_2 Cl1_2 1_555 1_555
O1_2 C11_2 1_555 1_555
O2_2 C11_2 1_555 1_555
O3_2 C12_2 1_555 1_555
O4_2 C12_2 1_555 1_555
N1_2 In1_2 1_555 1_555
N2_2 In1_2 1_555 1_555
C1_2 N1_2 1_555 1_555
H1_2 C1_2 1_555 1_555
C2_2 C1_2 1_555 1_555
C3_2 C2_2 1_555 1_555
H2_2 C3_2 1_555 1_555
C4_2 C3_2 1_555 1_555
H3_2 C4_2 1_555 1_555
C5_2 N1_2 1_555 1_555
C6_2 N2_2 1_555 1_555
C7_2 C6_2 1_555 1_555
H4_2 C7_2 1_555 1_555
C8_2 C7_2 1_555 1_555
H5_2 C8_2 1_555 1_555
C9_2 C8_2 1_555 1_555
C10_2 N2_2 1_555 1_555
H6_2 C10_2 1_555 1_555
C11_2 C2_2 1_555 1_555
C12_2 C9_2 1_555 1_555
In2_2 O3_2 1_555 1_555
In3_2 O1_2 1_555 1_555
O5_2 In1_2 1_555 1_555
O6_2 In1_2 1_555 1_555
O7_2 In1_2 1_555 1_555
O8_2 In1_2 1_555 1_555
O2_2 In3_2 1_555 1_555
O4_2 In2_2 1_555 1_555
C4_2 C5_2 1_555 1_555
C5_2 C6_2 1_555 1_555
C9_2 C10_2 1_555 1_555
O1_3 C11_3 1_555 1_555
O2_3 C11_3 1_555 1_555
C3_3 C2_3 1_555 1_555
H2_3 C3_3 1_555 1_555
C11_3 C2_3 1_555 1_555
In3_3 O1_3 1_555 1_555
O2_3 In3_3 1_555 1_555
In1_3 Cl1_3 1_555 1_555
O3_3 C12_3 1_555 1_555
O4_3 C12_3 1_555 1_555
N1_3 In1_3 1_555 1_555
N2_3 In1_3 1_555 1_555
C1_3 N1_3 1_555 1_555
H1_3 C1_3 1_555 1_555
H3_3 C4_3 1_555 1_555
C5_3 N1_3 1_555 1_555
C6_3 N2_3 1_555 1_555
C7_3 C6_3 1_555 1_555
H4_3 C7_3 1_555 1_555
C8_3 C7_3 1_555 1_555
H5_3 C8_3 1_555 1_555
C9_3 C8_3 1_555 1_555
C10_3 N2_3 1_555 1_555
H6_3 C10_3 1_555 1_555
C12_3 C9_3 1_555 1_555
In2_3 O3_3 1_555 1_555
O5_3 In1_3 1_555 1_555
O6_3 In1_3 1_555 1_555
O7_3 In1_3 1_555 1_555
O8_3 In1_3 1_555 1_555
O4_3 In2_3 1_555 1_555
C4_3 C5_3 1_555 1_555
C5_3 C6_3 1_555 1_555
C9_3 C10_3 1_555 1_555
In1_4 Cl1_4 1_555 1_555
O3_4 C12_4 1_555 1_555
O4_4 C12_4 1_555 1_555
N1_4 In1_4 1_555 1_555
N2_4 In1_4 1_555 1_555
C1_4 N1_4 1_555 1_555
H1_4 C1_4 1_555 1_555
H3_4 C4_4 1_555 1_555
C5_4 N1_4 1_555 1_555
C6_4 N2_4 1_555 1_555
C7_4 C6_4 1_555 1_555
H4_4 C7_4 1_555 1_555
C8_4 C7_4 1_555 1_555
H5_4 C8_4 1_555 1_555
C9_4 C8_4 1_555 1_555
C10_4 N2_4 1_555 1_555
H6_4 C10_4 1_555 1_555
C12_4 C9_4 1_555 1_555
In2_4 O3_4 1_555 1_555
O5_4 In1_4 1_555 1_555
O6_4 In1_4 1_555 1_555
O7_4 In1_4 1_555 1_555
O8_4 In1_4 1_555 1_555
O4_4 In2_4 1_555 1_555
C4_4 C5_4 1_555 1_555
C5_4 C6_4 1_555 1_555
C9_4 C10_4 1_555 1_555
O1_4 C11_4 1_555 1_555
O2_4 C11_4 1_555 1_555
C3_4 C2_4 1_555 1_555
H2_4 C3_4 1_555 1_555
C11_4 C2_4 1_555 1_555
In3_4 O1_4 1_555 1_555
O2_4 In3_4 1_555 1_555
In1_5 Cl1_5 1_555 1_555
O1_5 C11_5 1_555 1_555
O2_5 C11_5 1_555 1_555
O7_3 C12_5 1_555 1_555
O8_3 C12_5 1_555 1_555
N1_5 In1_5 1_555 1_555
N2_5 In1_5 1_555 1_555
C1_5 N1_5 1_555 1_555
H1_5 C1_5 1_555 1_555
C2_5 C1_5 1_555 1_555
C3_5 C2_5 1_555 1_555
H2_5 C3_5 1_555 1_555
C4_5 C3_5 1_555 1_555
H3_5 C4_5 1_555 1_555
C5_5 N1_5 1_555 1_555
C6_5 N2_5 1_555 1_555
C7_5 C6_5 1_555 1_555
H4_5 C7_5 1_555 1_555
C8_5 C7_5 1_555 1_555
H5_5 C8_5 1_555 1_555
C9_5 C8_5 1_555 1_555
C10_5 N2_5 1_555 1_555
H6_5 C10_5 1_555 1_555
C11_5 C2_5 1_555 1_555
C12_5 C9_5 1_555 1_555
In3_5 O1_5 1_555 1_555
O5_5 In1_5 1_555 1_555
O6_5 In1_5 1_555 1_555
O7_5 In1_5 1_555 1_555
O8_5 In1_5 1_555 1_555
O2_5 In3_5 1_555 1_555
C4_5 C5_5 1_555 1_555
C5_5 C6_5 1_555 1_555
C9_5 C10_5 1_555 1_555
In1_6 Cl1_6 1_555 1_555
O1_6 C11_6 1_555 1_555
O2_6 C11_6 1_555 1_555
O7_2 C12_6 1_555 1_555
O8_2 C12_6 1_555 1_555
N1_6 In1_6 1_555 1_555
N2_6 In1_6 1_555 1_555
C1_6 N1_6 1_555 1_555
H1_6 C1_6 1_555 1_555
C2_6 C1_6 1_555 1_555
C3_6 C2_6 1_555 1_555
H2_6 C3_6 1_555 1_555
C4_6 C3_6 1_555 1_555
H3_6 C4_6 1_555 1_555
C5_6 N1_6 1_555 1_555
C6_6 N2_6 1_555 1_555
C7_6 C6_6 1_555 1_555
H4_6 C7_6 1_555 1_555
C8_6 C7_6 1_555 1_555
H5_6 C8_6 1_555 1_555
C9_6 C8_6 1_555 1_555
C10_6 N2_6 1_555 1_555
H6_6 C10_6 1_555 1_555
C11_6 C2_6 1_555 1_555
C12_6 C9_6 1_555 1_555
In3_6 O1_6 1_555 1_555
O5_6 In1_6 1_555 1_555
O6_6 In1_6 1_555 1_555
O7_6 In1_6 1_555 1_555
O8_6 In1_6 1_555 1_555
O2_6 In3_6 1_555 1_555
C4_6 C5_6 1_555 1_555
C5_6 C6_6 1_555 1_555
C9_6 C10_6 1_555 1_555
O1_7 C11_7 1_555 1_555
O2_7 C11_7 1_555 1_555
C3_7 C2_7 1_555 1_555
H2_7 C3_7 1_555 1_555
C11_7 C2_7 1_555 1_555
In3_7 O1_7 1_555 1_555
O2_7 In3_7 1_555 1_555
In1_7 Cl1_7 1_555 1_555
O7_4 C12_7 1_555 1_555
O8_4 C12_7 1_555 1_555
N1_7 In1_7 1_555 1_555
N2_7 In1_7 1_555 1_555
C1_7 N1_7 1_555 1_555
H1_7 C1_7 1_555 1_555
H3_7 C4_7 1_555 1_555
C5_7 N1_7 1_555 1_555
C6_7 N2_7 1_555 1_555
C7_7 C6_7 1_555 1_555
H4_7 C7_7 1_555 1_555
C8_7 C7_7 1_555 1_555
H5_7 C8_7 1_555 1_555
C9_7 C8_7 1_555 1_555
C10_7 N2_7 1_555 1_555
H6_7 C10_7 1_555 1_555
C12_7 C9_7 1_555 1_555
O5_7 In1_7 1_555 1_555
O6_7 In1_7 1_555 1_555
O7_7 In1_7 1_555 1_555
O8_7 In1_7 1_555 1_555
C4_7 C5_7 1_555 1_555
C5_7 C6_7 1_555 1_555
C9_7 C10_7 1_555 1_555
In1_8 Cl1_8 1_555 1_555
O7 C12_8 1_555 1_555
O8 C12_8 1_555 1_555
N1_8 In1_8 1_555 1_555
N2_8 In1_8 1_555 1_555
C1_8 N1_8 1_555 1_555
H1_8 C1_8 1_555 1_555
H3_8 C4_8 1_555 1_555
C5_8 N1_8 1_555 1_555
C6_8 N2_8 1_555 1_555
C7_8 C6_8 1_555 1_555
H4_8 C7_8 1_555 1_555
C8_8 C7_8 1_555 1_555
H5_8 C8_8 1_555 1_555
C9_8 C8_8 1_555 1_555
C10_8 N2_8 1_555 1_555
H6_8 C10_8 1_555 1_555
C12_8 C9_8 1_555 1_555
O5_8 In1_8 1_555 1_555
O6_8 In1_8 1_555 1_555
O7_8 In1_8 1_555 1_555
O8_8 In1_8 1_555 1_555
C4_8 C5_8 1_555 1_555
C5_8 C6_8 1_555 1_555
C9_8 C10_8 1_555 1_555
O1_8 C11_8 1_555 1_555
O2_8 C11_8 1_555 1_555
C3_8 C2_8 1_555 1_555
H2_8 C3_8 1_555 1_555
C11_8 C2_8 1_555 1_555
In3_8 O1_8 1_555 1_555
O2_8 In3_8 1_555 1_555
In2_4 Cl1_9 1_555 1_555
O1_9 C11_9 1_555 1_555
O2_9 C11_9 1_555 1_555
O7_7 C12_9 1_555 1_555
O8_7 C12_9 1_555 1_555
N1_9 In2_4 1_555 1_555
N2_9 In2_4 1_555 1_555
C1_9 N1_9 1_555 1_555
H1_9 C1_9 1_555 1_555
C2_9 C1_9 1_555 1_555
C3_9 C2_9 1_555 1_555
H2_9 C3_9 1_555 1_555
C4_9 C3_9 1_555 1_555
H3_9 C4_9 1_555 1_555
C5_9 N1_9 1_555 1_555
C6_9 N2_9 1_555 1_555
C7_9 C6_9 1_555 1_555
H4_9 C7_9 1_555 1_555
C8_9 C7_9 1_555 1_555
H5_9 C8_9 1_555 1_555
C9_9 C8_9 1_555 1_555
C10_9 N2_9 1_555 1_555
H6_9 C10_9 1_555 1_555
C11_9 C2_9 1_555 1_555
C12_9 C9_9 1_555 1_555
In3_9 O1_9 1_555 1_555
O5_9 In2_4 1_555 1_555
O6_9 In2_4 1_555 1_555
O2_9 In3_9 1_555 1_555
C4_9 C5_9 1_555 1_555
C5_9 C6_9 1_555 1_555
C9_9 C10_9 1_555 1_555
In2_2 Cl1_10 1_555 1_555
O1_10 C11_10 1_555 1_555
O2_10 C11_10 1_555 1_555
O7_6 C12_10 1_555 1_555
O8_6 C12_10 1_555 1_555
N1_10 In2_2 1_555 1_555
N2_10 In2_2 1_555 1_555
C1_10 N1_10 1_555 1_555
H1_10 C1_10 1_555 1_555
C2_10 C1_10 1_555 1_555
C3_10 C2_10 1_555 1_555
H2_10 C3_10 1_555 1_555
C4_10 C3_10 1_555 1_555
H3_10 C4_10 1_555 1_555
C5_10 N1_10 1_555 1_555
C6_10 N2_10 1_555 1_555
C7_10 C6_10 1_555 1_555
H4_10 C7_10 1_555 1_555
C8_10 C7_10 1_555 1_555
H5_10 C8_10 1_555 1_555
C9_10 C8_10 1_555 1_555
C10_10 N2_10 1_555 1_555
H6_10 C10_10 1_555 1_555
C11_10 C2_10 1_555 1_555
C12_10 C9_10 1_555 1_555
In3_10 O1_10 1_555 1_555
O5_10 In2_2 1_555 1_555
O6_10 In2_2 1_555 1_555
O2_10 In3_10 1_555 1_555
C4_10 C5_10 1_555 1_555
C5_10 C6_10 1_555 1_555
C9_10 C10_10 1_555 1_555
O1_11 C11_11 1_555 1_555
O2_11 C11_11 1_555 1_555
C3_11 C2_11 1_555 1_555
H2_11 C3_11 1_555 1_555
C11_11 C2_11 1_555 1_555
In3_11 O1_11 1_555 1_555
O2_11 In3_11 1_555 1_555
In2 Cl1_11 1_555 1_555
O7_8 C12_11 1_555 1_555
O8_8 C12_11 1_555 1_555
N1_11 In2 1_555 1_555
N2_11 In2 1_555 1_555
C1_11 N1_11 1_555 1_555
H1_11 C1_11 1_555 1_555
H3_11 C4_11 1_555 1_555
C5_11 N1_11 1_555 1_555
C6_11 N2_11 1_555 1_555
C7_11 C6_11 1_555 1_555
H4_11 C7_11 1_555 1_555
C8_11 C7_11 1_555 1_555
H5_11 C8_11 1_555 1_555
C9_11 C8_11 1_555 1_555
C10_11 N2_11 1_555 1_555
H6_11 C10_11 1_555 1_555
C12_11 C9_11 1_555 1_555
O5_11 In2 1_555 1_555
O6_11 In2 1_555 1_555
C4_11 C5_11 1_555 1_555
C5_11 C6_11 1_555 1_555
C9_11 C10_11 1_555 1_555
In2_3 Cl1_12 1_555 1_555
O7_5 C12_12 1_555 1_555
O8_5 C12_12 1_555 1_555
N1_12 In2_3 1_555 1_555
N2_12 In2_3 1_555 1_555
C1_12 N1_12 1_555 1_555
H1_12 C1_12 1_555 1_555
H3_12 C4_12 1_555 1_555
C5_12 N1_12 1_555 1_555
C6_12 N2_12 1_555 1_555
C7_12 C6_12 1_555 1_555
H4_12 C7_12 1_555 1_555
C8_12 C7_12 1_555 1_555
H5_12 C8_12 1_555 1_555
C9_12 C8_12 1_555 1_555
C10_12 N2_12 1_555 1_555
H6_12 C10_12 1_555 1_555
C12_12 C9_12 1_555 1_555
O5_12 In2_3 1_555 1_555
O6_12 In2_3 1_555 1_555
C4_12 C5_12 1_555 1_555
C5_12 C6_12 1_555 1_555
C9_12 C10_12 1_555 1_555
O1_12 C11_12 1_555 1_555
O2_12 C11_12 1_555 1_555
C3_12 C2_12 1_555 1_555
H2_12 C3_12 1_555 1_555
C11_12 C2_12 1_555 1_555
In3_12 O1_12 1_555 1_555
O2_12 In3_12 1_555 1_555
In3_5 Cl1_13 1_555 1_555
O5_9 C11_13 1_555 1_555
O6_9 C11_13 1_555 1_555
O3_5 C12_13 1_555 1_555
O4_5 C12_13 1_555 1_555
N1_13 In3_5 1_555 1_555
N2_13 In3_5 1_555 1_555
C1_13 N1_13 1_555 1_555
H1_13 C1_13 1_555 1_555
C2_13 C1_13 1_555 1_555
C3_13 C2_13 1_555 1_555
H2_13 C3_13 1_555 1_555
C4_13 C3_13 1_555 1_555
H3_13 C4_13 1_555 1_555
C5_13 N1_13 1_555 1_555
C6_13 N2_13 1_555 1_555
C7_13 C6_13 1_555 1_555
H4_13 C7_13 1_555 1_555
C8_13 C7_13 1_555 1_555
H5_13 C8_13 1_555 1_555
C9_13 C8_13 1_555 1_555
C10_13 N2_13 1_555 1_555
H6_13 C10_13 1_555 1_555
C11_13 C2_13 1_555 1_555
C12_13 C9_13 1_555 1_555
In3_4 O3_5 1_555 1_555
O7_9 In3_5 1_555 1_555
O8_9 In3_5 1_555 1_555
O4_5 In3_4 1_555 1_555
C4_13 C5_13 1_555 1_555
C5_13 C6_13 1_555 1_555
C9_13 C10_13 1_555 1_555
In3_7 Cl1_14 1_555 1_555
O5_12 C11_14 1_555 1_555
O6_12 C11_14 1_555 1_555
O3_6 C12_14 1_555 1_555
O4_6 C12_14 1_555 1_555
N1_14 In3_7 1_555 1_555
N2_14 In3_7 1_555 1_555
C1_14 N1_14 1_555 1_555
H1_14 C1_14 1_555 1_555
C2_14 C1_14 1_555 1_555
C3_14 C2_14 1_555 1_555
H2_14 C3_14 1_555 1_555
C4_14 C3_14 1_555 1_555
H3_14 C4_14 1_555 1_555
C5_14 N1_14 1_555 1_555
C6_14 N2_14 1_555 1_555
C7_14 C6_14 1_555 1_555
H4_14 C7_14 1_555 1_555
C8_14 C7_14 1_555 1_555
H5_14 C8_14 1_555 1_555
C9_14 C8_14 1_555 1_555
C10_14 N2_14 1_555 1_555
H6_14 C10_14 1_555 1_555
C11_14 C2_14 1_555 1_555
C12_14 C9_14 1_555 1_555
In3_3 O3_6 1_555 1_555
O7_10 In3_7 1_555 1_555
O8_10 In3_7 1_555 1_555
O4_6 In3_3 1_555 1_555
C4_14 C5_14 1_555 1_555
C5_14 C6_14 1_555 1_555
C9_14 C10_14 1_555 1_555
In3_8 Cl1_15 1_555 1_555
O3_7 C12_15 1_555 1_555
O4_7 C12_15 1_555 1_555
N1_15 In3_8 1_555 1_555
N2_15 In3_8 1_555 1_555
C1_15 N1_15 1_555 1_555
H1_15 C1_15 1_555 1_555
H3_15 C4_15 1_555 1_555
C5_15 N1_15 1_555 1_555
C6_15 N2_15 1_555 1_555
C7_15 C6_15 1_555 1_555
H4_15 C7_15 1_555 1_555
C8_15 C7_15 1_555 1_555
H5_15 C8_15 1_555 1_555
C9_15 C8_15 1_555 1_555
C10_15 N2_15 1_555 1_555
H6_15 C10_15 1_555 1_555
C12_15 C9_15 1_555 1_555
In3_2 O3_7 1_555 1_555
O7_11 In3_8 1_555 1_555
O8_11 In3_8 1_555 1_555
O4_7 In3_2 1_555 1_555
C4_15 C5_15 1_555 1_555
C5_15 C6_15 1_555 1_555
C9_15 C10_15 1_555 1_555
O5_10 C11_15 1_555 1_555
O6_10 C11_15 1_555 1_555
C3_15 C2_15 1_555 1_555
H2_15 C3_15 1_555 1_555
C11_15 C2_15 1_555 1_555
O5_11 C11_16 1_555 1_555
O6_11 C11_16 1_555 1_555
C3_16 C2_16 1_555 1_555
H2_16 C3_16 1_555 1_555
C11_16 C2_16 1_555 1_555
In3_6 Cl1_16 1_555 1_555
O3_8 C12_16 1_555 1_555
O4_8 C12_16 1_555 1_555
N1_16 In3_6 1_555 1_555
N2_16 In3_6 1_555 1_555
C1_16 N1_16 1_555 1_555
H1_16 C1_16 1_555 1_555
H3_16 C4_16 1_555 1_555
C5_16 N1_16 1_555 1_555
C6_16 N2_16 1_555 1_555
C7_16 C6_16 1_555 1_555
H4_16 C7_16 1_555 1_555
C8_16 C7_16 1_555 1_555
H5_16 C8_16 1_555 1_555
C9_16 C8_16 1_555 1_555
C10_16 N2_16 1_555 1_555
H6_16 C10_16 1_555 1_555
C12_16 C9_16 1_555 1_555
In3 O3_8 1_555 1_555
O7_12 In3_6 1_555 1_555
O8_12 In3_6 1_555 1_555
O4_8 In3 1_555 1_555
C4_16 C5_16 1_555 1_555
C5_16 C6_16 1_555 1_555
C9_16 C10_16 1_555 1_555
In3_9 Cl1_17 1_555 1_555
O5 C11_17 1_555 1_555
O6 C11_17 1_555 1_555
O7_11 C12_17 1_555 1_555
O8_11 C12_17 1_555 1_555
N1_17 In3_9 1_555 1_555
N2_17 In3_9 1_555 1_555
C1_17 N1_17 1_555 1_555
H1_17 C1_17 1_555 1_555
C2_17 C1_17 1_555 1_555
C3_17 C2_17 1_555 1_555
H2_17 C3_17 1_555 1_555
C4_17 C3_17 1_555 1_555
H3_17 C4_17 1_555 1_555
C5_17 N1_17 1_555 1_555
C6_17 N2_17 1_555 1_555
C7_17 C6_17 1_555 1_555
H4_17 C7_17 1_555 1_555
C8_17 C7_17 1_555 1_555
H5_17 C8_17 1_555 1_555
C9_17 C8_17 1_555 1_555
C10_17 N2_17 1_555 1_555
H6_17 C10_17 1_555 1_555
C11_17 C2_17 1_555 1_555
C12_17 C9_17 1_555 1_555
O7_13 In3_9 1_555 1_555
O8_13 In3_9 1_555 1_555
C4_17 C5_17 1_555 1_555
C5_17 C6_17 1_555 1_555
C9_17 C10_17 1_555 1_555
In3_11 Cl1_18 1_555 1_555
O5_4 C11_18 1_555 1_555
O6_4 C11_18 1_555 1_555
O7_10 C12_18 1_555 1_555
O8_10 C12_18 1_555 1_555
N1_18 In3_11 1_555 1_555
N2_18 In3_11 1_555 1_555
C1_18 N1_18 1_555 1_555
H1_18 C1_18 1_555 1_555
C2_18 C1_18 1_555 1_555
C3_18 C2_18 1_555 1_555
H2_18 C3_18 1_555 1_555
C4_18 C3_18 1_555 1_555
H3_18 C4_18 1_555 1_555
C5_18 N1_18 1_555 1_555
C6_18 N2_18 1_555 1_555
C7_18 C6_18 1_555 1_555
H4_18 C7_18 1_555 1_555
C8_18 C7_18 1_555 1_555
H5_18 C8_18 1_555 1_555
C9_18 C8_18 1_555 1_555
C10_18 N2_18 1_555 1_555
H6_18 C10_18 1_555 1_555
C11_18 C2_18 1_555 1_555
C12_18 C9_18 1_555 1_555
O7_14 In3_11 1_555 1_555
O8_14 In3_11 1_555 1_555
C4_18 C5_18 1_555 1_555
C5_18 C6_18 1_555 1_555
C9_18 C10_18 1_555 1_555
In3_12 Cl1_19 1_555 1_555
O7_12 C12_19 1_555 1_555
O8_12 C12_19 1_555 1_555
N1_19 In3_12 1_555 1_555
N2_19 In3_12 1_555 1_555
C1_19 N1_19 1_555 1_555
H1_19 C1_19 1_555 1_555
H3_19 C4_19 1_555 1_555
C5_19 N1_19 1_555 1_555
C6_19 N2_19 1_555 1_555
C7_19 C6_19 1_555 1_555
H4_19 C7_19 1_555 1_555
C8_19 C7_19 1_555 1_555
H5_19 C8_19 1_555 1_555
C9_19 C8_19 1_555 1_555
C10_19 N2_19 1_555 1_555
H6_19 C10_19 1_555 1_555
C12_19 C9_19 1_555 1_555
O7_15 In3_12 1_555 1_555
O8_15 In3_12 1_555 1_555
C4_19 C5_19 1_555 1_555
C5_19 C6_19 1_555 1_555
C9_19 C10_19 1_555 1_555
O5_2 C11_19 1_555 1_555
O6_2 C11_19 1_555 1_555
C3_19 C2_19 1_555 1_555
H2_19 C3_19 1_555 1_555
C11_19 C2_19 1_555 1_555
O5_3 C11_20 1_555 1_555
O6_3 C11_20 1_555 1_555
C3_20 C2_20 1_555 1_555
H2_20 C3_20 1_555 1_555
C11_20 C2_20 1_555 1_555
In3_10 Cl1_20 1_555 1_555
O7_9 C12_20 1_555 1_555
O8_9 C12_20 1_555 1_555
N1_20 In3_10 1_555 1_555
N2_20 In3_10 1_555 1_555
C1_20 N1_20 1_555 1_555
H1_20 C1_20 1_555 1_555
H3_20 C4_20 1_555 1_555
C5_20 N1_20 1_555 1_555
C6_20 N2_20 1_555 1_555
C7_20 C6_20 1_555 1_555
H4_20 C7_20 1_555 1_555
C8_20 C7_20 1_555 1_555
H5_20 C8_20 1_555 1_555
C9_20 C8_20 1_555 1_555
C10_20 N2_20 1_555 1_555
H6_20 C10_20 1_555 1_555
C12_20 C9_20 1_555 1_555
O7_16 In3_10 1_555 1_555
O8_16 In3_10 1_555 1_555
C4_20 C5_20 1_555 1_555
C5_20 C6_20 1_555 1_555
C9_20 C10_20 1_555 1_555
In3 Cl1_21 1_555 1_555
O5_5 C11_21 1_555 1_555
O6_5 C11_21 1_555 1_555
O7_15 C12_21 1_555 1_555
O8_15 C12_21 1_555 1_555
N1_21 In3 1_555 1_555
N2_21 In3 1_555 1_555
C1_21 N1_21 1_555 1_555
H1_21 C1_21 1_555 1_555
C2_21 C1_21 1_555 1_555
C3_21 C2_21 1_555 1_555
H2_21 C3_21 1_555 1_555
C4_21 C3_21 1_555 1_555
H3_21 C4_21 1_555 1_555
C5_21 N1_21 1_555 1_555
C6_21 N2_21 1_555 1_555
C7_21 C6_21 1_555 1_555
H4_21 C7_21 1_555 1_555
C8_21 C7_21 1_555 1_555
H5_21 C8_21 1_555 1_555
C9_21 C8_21 1_555 1_555
C10_21 N2_21 1_555 1_555
H6_21 C10_21 1_555 1_555
C11_21 C2_21 1_555 1_555
C12_21 C9_21 1_555 1_555
C4_21 C5_21 1_555 1_555
C5_21 C6_21 1_555 1_555
C9_21 C10_21 1_555 1_555
In3_3 Cl1_22 1_555 1_555
O5_8 C11_22 1_555 1_555
O6_8 C11_22 1_555 1_555
O7_14 C12_22 1_555 1_555
O8_14 C12_22 1_555 1_555
N1_22 In3_3 1_555 1_555
N2_22 In3_3 1_555 1_555
C1_22 N1_22 1_555 1_555
H1_22 C1_22 1_555 1_555
C2_22 C1_22 1_555 1_555
C3_22 C2_22 1_555 1_555
H2_22 C3_22 1_555 1_555
C4_22 C3_22 1_555 1_555
H3_22 C4_22 1_555 1_555
C5_22 N1_22 1_555 1_555
C6_22 N2_22 1_555 1_555
C7_22 C6_22 1_555 1_555
H4_22 C7_22 1_555 1_555
C8_22 C7_22 1_555 1_555
H5_22 C8_22 1_555 1_555
C9_22 C8_22 1_555 1_555
C10_22 N2_22 1_555 1_555
H6_22 C10_22 1_555 1_555
C11_22 C2_22 1_555 1_555
C12_22 C9_22 1_555 1_555
C4_22 C5_22 1_555 1_555
C5_22 C6_22 1_555 1_555
C9_22 C10_22 1_555 1_555
In3_4 Cl1_23 1_555 1_555
O7_16 C12_23 1_555 1_555
O8_16 C12_23 1_555 1_555
N1_23 In3_4 1_555 1_555
N2_23 In3_4 1_555 1_555
C1_23 N1_23 1_555 1_555
H1_23 C1_23 1_555 1_555
H3_23 C4_23 1_555 1_555
C5_23 N1_23 1_555 1_555
C6_23 N2_23 1_555 1_555
C7_23 C6_23 1_555 1_555
H4_23 C7_23 1_555 1_555
C8_23 C7_23 1_555 1_555
H5_23 C8_23 1_555 1_555
C9_23 C8_23 1_555 1_555
C10_23 N2_23 1_555 1_555
H6_23 C10_23 1_555 1_555
C12_23 C9_23 1_555 1_555
C4_23 C5_23 1_555 1_555
C5_23 C6_23 1_555 1_555
C9_23 C10_23 1_555 1_555
O5_6 C11_23 1_555 1_555
O6_6 C11_23 1_555 1_555
C3_23 C2_23 1_555 1_555
H2_23 C3_23 1_555 1_555
C11_23 C2_23 1_555 1_555
O5_7 C11_24 1_555 1_555
O6_7 C11_24 1_555 1_555
C3_24 C2_24 1_555 1_555
H2_24 C3_24 1_555 1_555
C11_24 C2_24 1_555 1_555
In3_2 Cl1_24 1_555 1_555
O7_13 C12_24 1_555 1_555
O8_13 C12_24 1_555 1_555
N1_24 In3_2 1_555 1_555
N2_24 In3_2 1_555 1_555
C1_24 N1_24 1_555 1_555
H1_24 C1_24 1_555 1_555
H3_24 C4_24 1_555 1_555
C5_24 N1_24 1_555 1_555
C6_24 N2_24 1_555 1_555
C7_24 C6_24 1_555 1_555
H4_24 C7_24 1_555 1_555
C8_24 C7_24 1_555 1_555
H5_24 C8_24 1_555 1_555
C9_24 C8_24 1_555 1_555
C10_24 N2_24 1_555 1_555
H6_24 C10_24 1_555 1_555
C12_24 C9_24 1_555 1_555
C4_24 C5_24 1_555 1_555
C5_24 C6_24 1_555 1_555
C9_24 C10_24 1_555 1_555

#END
