
###############################################################################
#
# This file contains modified crystal structure data generated from the
# MOF subset of the Cambridge Structural Database (CSD) v543 
# hosted by the Cambridge Crystallographic Data Centre (CCDC).
#
# This work is licensed under the Creative Commons
# Attribution-NonCommercial-ShareAlike 4.0 International License.
# To view a copy of this license, visit
# http://creativecommons.org/licenses/by-nc-sa/4.0/
# or send a letter to
# Creative Commons, PO Box 1866, Mountain View, CA 94042, USA.
#
# CIF created using the CSD Python API on 29 September 2022
# The structure has been converted into the P1 space group
# The structure has a 3D framework
# The original CSD entry COSMII is in the rhombohedral crystal system
# The framework has been calculated to contain at least 10.0% void space
# The void calculation uses a probe of radius 1.32A, grid spacing 0.4
#
###############################################################################

data_COSMII
_chemical_formula_moiety         '(C288 H270 In18 N72 O144)n'
_symmetry_cell_setting           triclinic
_symmetry_space_group_name_H-M   'P 1'
_symmetry_Int_Tables_number      1
_space_group_name_Hall           'P 1'
loop_
_symmetry_equiv_pos_site_id
_symmetry_equiv_pos_as_xyz
1 x,y,z
_cell_length_a                   31.4162(16)
_cell_length_b                   31.4162(16)
_cell_length_c                   14.1226(14)
_cell_angle_alpha                90
_cell_angle_beta                 90
_cell_angle_gamma                120
_cell_volume                     12071.3
loop_
_atom_site_label
_atom_site_type_symbol
_atom_site_fract_x
_atom_site_fract_y
_atom_site_fract_z
O1 O 0.0437(2) 0.3202(2) 0.2807(4)
O2 O 0.0996(2) 0.29875(17) 0.2903(3)
C2 C 0.0342(2) 0.2628(2) 0.3968(4)
C3 C 0.0560(2) 0.2435(3) 0.4523(5)
H2 H 0.0876 0.2499 0.4389
C4 C 0.0307(2) 0.2148(3) 0.5275(5)
H3 H 0.0453 0.2017 0.5663
H4 H 0.0047 0.1610 0.6875
C11 C 0.0597(2) 0.2963(2) 0.3163(4)
In3 In 0.136483(12) 0.351301(17) 0.18404(2)
In2 In 0.803150(12) 0.118516(12) 0.01737(2)
In1 In 0.881484(12) 0.196850(12) 0.51737(2)
O3 O 0.84075(18) 0.12944(18) 0.8891(3)
O4 O 0.8907(2) 0.1065(3) 0.9473(4)
O5 O 0.8179(3) 0.2096(3) 0.4360(6)
O6 O 0.8940(2) 0.2585(2) 0.4185(4)
O7 O 0.8407(5) 0.2709(5) 0.3422(9)
O8 O 0.8147(2) 0.1325(2) 0.5609(4)
N1 N 0.96212(15) 0.22213(14) 0.4906(3)
N2 N 0.91165(16) 0.17241(15) 0.6400(3)
N3 N 0.8489(3) 0.2453(3) 0.3985(7)
N4 N 0.7403(4) 0.0759(4) 0.6002(10)
C1 C 0.9870(2) 0.25100(19) 0.4177(4)
H1 H 0.9717 0.2636 0.3798
C5 C 0.9840(2) 0.2050(2) 0.5462(4)
C6 C 0.95605(19) 0.1779(2) 0.6305(4)
C7 C 0.9751(3) 0.1603(3) 0.6975(5)
C8 C 0.9487(3) 0.1414(3) 0.7810(5)
H5 H 0.9610 0.1301 0.8286
C9 C 0.9048(2) 0.1395(2) 0.7928(4)
C10 C 0.88732(19) 0.15451(19) 0.7200(3)
H6 H 0.8567 0.1521 0.7267
C12 C 0.8770(2) 0.1230(3) 0.8849(4)
C13 C 0.7734(4) 0.1233(4) 0.5844(12)
C14 C 0.7644(5) 0.0428(5) 0.6143(12)
H7 H 0.7486 0.0206 0.6660
H8 H 0.7987 0.0633 0.6280
H9 H 0.7605 0.0245 0.5575
C15 C 0.6894(4) 0.0525(5) 0.6228(12)
H10 H 0.6769 0.0179 0.6311
H11 H 0.6720 0.0576 0.5722
H12 H 0.6851 0.0662 0.6802
C16 C 0.7584(5) 0.1581(5) 0.6142(12)
H13 H 0.7236 0.1410 0.6261
H14 H 0.7659 0.1820 0.5651
H15 H 0.7756 0.1744 0.6710
O9 O 0.86582(26) 0.2337(2) 0.6236(3)
O10 O 0.87056(18) 0.15925(18) 0.3891(3)
In2_2 In 0.881484(12) 0.684634(17) 0.01737(2)
In1_2 In 0.803150(12) 0.684634(17) 0.51737(2)
O1_2 O 0.6798(2) 0.7235(3) 0.2807(4)
O2_2 O 0.70125(17) 0.80085(26) 0.2903(3)
O3_2 O 0.87056(18) 0.71131(25) 0.8891(3)
O4_2 O 0.8935(3) 0.7842(4) 0.9473(4)
O5_2 O 0.7904(3) 0.6083(4) 0.4360(6)
O6_2 O 0.7415(2) 0.6355(3) 0.4185(4)
O7_2 O 0.7291(5) 0.5698(7) 0.3422(9)
O8_2 O 0.8675(2) 0.6822(3) 0.5609(4)
N1_2 N 0.77787(14) 0.73999(21) 0.4906(3)
N2_2 N 0.82759(15) 0.73924(22) 0.6400(3)
N3_2 N 0.7547(3) 0.6036(4) 0.3985(7)
N4_2 N 0.9241(4) 0.6644(6) 0.6002(10)
C1_2 C 0.74900(19) 0.73600(28) 0.4177(4)
H1_2 H 0.7364 0.7081 0.3798
C2_2 C 0.7372(2) 0.7714(3) 0.3968(4)
C3_2 C 0.7565(3) 0.8125(4) 0.4523(5)
H2_2 H 0.7501 0.8377 0.4389
C4_2 C 0.7852(3) 0.8159(4) 0.5275(5)
H3_2 H 0.7983 0.8436 0.5663
C5_2 C 0.7950(2) 0.7790(3) 0.5462(4)
C6_2 C 0.8221(2) 0.77815(28) 0.6305(4)
C7_2 C 0.8397(3) 0.8148(4) 0.6975(5)
H4_2 H 0.8390 0.8437 0.6875
C8_2 C 0.8586(3) 0.8073(4) 0.7810(5)
H5_2 H 0.8699 0.8309 0.8286
C9_2 C 0.8605(2) 0.7653(3) 0.7928(4)
C10_2 C 0.84549(19) 0.73281(27) 0.7200(3)
H6_2 H 0.8479 0.7046 0.7267
C11_2 C 0.7037(2) 0.7634(3) 0.3163(4)
C12_2 C 0.8770(3) 0.7540(4) 0.8849(4)
C13_2 C 0.8767(4) 0.6501(6) 0.5844(12)
C14_2 C 0.9572(5) 0.7216(7) 0.6143(12)
H7_2 H 0.9794 0.7280 0.6660
H8_2 H 0.9367 0.7354 0.6280
H9_2 H 0.9755 0.7360 0.5575
C15_2 C 0.9475(5) 0.6369(6) 0.6228(12)
H10_2 H 0.9821 0.6590 0.6311
H11_2 H 0.9424 0.6144 0.5722
H12_2 H 0.9338 0.6189 0.6802
C16_2 C 0.8419(5) 0.6003(7) 0.6142(12)
H13_2 H 0.8590 0.5826 0.6261
H14_2 H 0.8180 0.5839 0.5651
H15_2 H 0.8256 0.6012 0.6710
In3_2 In 0.648699(17) 0.785183(21) 0.18404(2)
O9_2 O 0.7663(2) 0.63208(33) 0.6236(3)
O10_2 O 0.84075(18) 0.71131(25) 0.3891(3)
In2_3 In 0.315366(17) 0.196850(12) 0.01737(2)
In1_3 In 0.315366(17) 0.118516(12) 0.51737(2)
O3_3 O 0.28869(25) 0.15925(18) 0.8891(3)
O4_3 O 0.2158(4) 0.1093(2) 0.9473(4)
O5_3 O 0.3917(4) 0.1821(3) 0.4360(6)
O6_3 O 0.3645(3) 0.1060(2) 0.4185(4)
O7_3 O 0.4302(7) 0.1593(5) 0.3422(9)
O8_3 O 0.3178(3) 0.1853(2) 0.5609(4)
N1_3 N 0.26001(21) 0.03788(15) 0.4906(3)
N2_3 N 0.26076(22) 0.08835(16) 0.6400(3)
N3_3 N 0.3964(4) 0.1511(3) 0.3985(7)
N4_3 N 0.3356(6) 0.2597(4) 0.6002(10)
C1_3 C 0.26400(28) 0.0130(2) 0.4177(4)
H1_3 H 0.2919 0.0283 0.3798
C5_3 C 0.2210(3) 0.0160(2) 0.5462(4)
C6_3 C 0.22185(28) 0.04395(19) 0.6305(4)
C7_3 C 0.1852(4) 0.0249(3) 0.6975(5)
C8_3 C 0.1927(4) 0.0513(3) 0.7810(5)
H5_3 H 0.1691 0.0390 0.8286
C9_3 C 0.2347(3) 0.0952(2) 0.7928(4)
C10_3 C 0.26719(27) 0.11268(19) 0.7200(3)
H6_3 H 0.2954 0.1433 0.7267
C12_3 C 0.2460(4) 0.1230(2) 0.8849(4)
C13_3 C 0.3499(6) 0.2266(4) 0.5844(12)
C14_3 C 0.2784(7) 0.2356(5) 0.6143(12)
H7_3 H 0.2720 0.2514 0.6660
H8_3 H 0.2646 0.2013 0.6280
H9_3 H 0.2640 0.2395 0.5575
C15_3 C 0.3631(6) 0.3106(4) 0.6228(12)
H10_3 H 0.3410 0.3231 0.6311
H11_3 H 0.3856 0.3280 0.5722
H12_3 H 0.3811 0.3149 0.6802
C16_3 C 0.3997(7) 0.2416(5) 0.6142(12)
H13_3 H 0.4174 0.2764 0.6261
H14_3 H 0.4161 0.2341 0.5651
H15_3 H 0.3988 0.2244 0.6710
O9_3 O 0.36792(33) 0.13418(26) 0.6236(3)
O10_3 O 0.28869(25) 0.12944(18) 0.3891(3)
O4_4 O 0.8935(3) 0.1093(2) 0.4473(4)
O8_4 O 0.8675(2) 0.1853(2) 0.0609(4)
N2_4 N 0.82759(15) 0.08835(16) 0.1400(3)
N4_4 N 0.9241(4) 0.2597(4) 0.1002(10)
C5_4 C 0.7950(2) 0.0160(2) 0.0462(4)
C6_4 C 0.8221(2) 0.04395(19) 0.1305(4)
C7_4 C 0.8397(3) 0.0249(3) 0.1975(5)
C8_4 C 0.8586(3) 0.0513(3) 0.2810(5)
H5_4 H 0.8699 0.0390 0.3286
C9_4 C 0.8605(2) 0.0952(2) 0.2928(4)
C10_4 C 0.84549(19) 0.11268(19) 0.2200(3)
H6_4 H 0.8479 0.1433 0.2267
C12_4 C 0.8770(3) 0.1230(2) 0.3849(4)
C13_4 C 0.8767(4) 0.2266(4) 0.0844(12)
C14_4 C 0.9572(5) 0.2356(5) 0.1143(12)
H7_4 H 0.9794 0.2514 0.1660
H8_4 H 0.9367 0.2013 0.1280
H9_4 H 0.9755 0.2395 0.0575
C15_4 C 0.9475(5) 0.3106(4) 0.1228(12)
H10_4 H 0.9821 0.3231 0.1311
H11_4 H 0.9424 0.3280 0.0722
H12_4 H 0.9338 0.3149 0.1802
C16_4 C 0.8419(5) 0.2416(5) 0.1142(12)
H13_4 H 0.8590 0.2764 0.1261
H14_4 H 0.8180 0.2341 0.0651
H15_4 H 0.8256 0.2244 0.1710
O9_4 O 0.7663(2) 0.13418(26) 0.1236(3)
O5_4 O 0.7904(3) 0.1821(3) 0.9360(6)
O6_4 O 0.7415(2) 0.1060(2) 0.9185(4)
O7_4 O 0.7291(5) 0.1593(5) 0.8422(9)
N1_4 N 0.77787(14) 0.03788(15) 0.9906(3)
N3_4 N 0.7547(3) 0.1511(3) 0.8985(7)
C1_4 C 0.74900(19) 0.0130(2) 0.9177(4)
H1_4 H 0.7364 0.0283 0.8798
O1_3 O 0.6798(2) 0.9563(2) 0.7807(4)
O2_3 O 0.70125(17) 0.9004(2) 0.7903(3)
C2_3 C 0.7372(2) 0.9658(2) 0.8968(4)
C3_3 C 0.7565(3) 0.9440(2) 0.9523(5)
H2_3 H 0.7501 0.9124 0.9389
C11_3 C 0.7037(2) 0.9403(2) 0.8163(4)
In3_3 In 0.648699(17) 0.863517(12) 0.68404(2)
O4_5 O 0.2158(4) 0.1065(3) 0.4473(4)
O8_5 O 0.3178(3) 0.1325(2) 0.0609(4)
N2_5 N 0.26076(22) 0.17241(15) 0.1400(3)
N4_5 N 0.3356(6) 0.0759(4) 0.1002(10)
C4_3 C 0.1841(4) 0.2148(3) 0.0275(5)
H3_3 H 0.1564 0.2017 0.0663
C5_5 C 0.2210(3) 0.2050(2) 0.0462(4)
C6_5 C 0.22185(28) 0.1779(2) 0.1305(4)
C7_5 C 0.1852(4) 0.1603(3) 0.1975(5)
H4_3 H 0.1563 0.1610 0.1875
C8_5 C 0.1927(4) 0.1414(3) 0.2810(5)
H5_5 H 0.1691 0.1301 0.3286
C9_5 C 0.2347(3) 0.1395(2) 0.2928(4)
C10_5 C 0.26719(27) 0.15451(19) 0.2200(3)
H6_5 H 0.2954 0.1521 0.2267
C12_5 C 0.2460(4) 0.1230(3) 0.3849(4)
C13_5 C 0.3499(6) 0.1233(4) 0.0844(12)
C14_5 C 0.2784(7) 0.0428(5) 0.1143(12)
H7_5 H 0.2720 0.0206 0.1660
H8_5 H 0.2646 0.0633 0.1280
H9_5 H 0.2640 0.0245 0.0575
C15_5 C 0.3631(6) 0.0525(5) 0.1228(12)
H10_5 H 0.3410 0.0179 0.1311
H11_5 H 0.3856 0.0576 0.0722
H12_5 H 0.3811 0.0662 0.1802
C16_5 C 0.3997(7) 0.1581(5) 0.1142(12)
H13_5 H 0.4174 0.1410 0.1261
H14_5 H 0.4161 0.1820 0.0651
H15_5 H 0.3988 0.1744 0.1710
O9_5 O 0.36792(33) 0.2337(2) 0.1236(3)
O1_4 O 0.2765(3) 0.3202(2) 0.7807(4)
O2_4 O 0.19915(26) 0.29875(17) 0.7903(3)
O5_5 O 0.3917(4) 0.2096(3) 0.9360(6)
O6_5 O 0.3645(3) 0.2585(2) 0.9185(4)
O7_5 O 0.4302(7) 0.2709(5) 0.8422(9)
N1_5 N 0.26001(21) 0.22213(14) 0.9906(3)
N3_5 N 0.3964(4) 0.2453(3) 0.8985(7)
C1_5 C 0.26400(28) 0.25100(19) 0.9177(4)
H1_5 H 0.2919 0.2636 0.8798
C2_4 C 0.2286(3) 0.2628(2) 0.8968(4)
C3_4 C 0.1875(4) 0.2435(3) 0.9523(5)
H2_4 H 0.1623 0.2499 0.9389
C11_4 C 0.2366(3) 0.2963(2) 0.8163(4)
In3_4 In 0.214817(21) 0.351301(17) 0.68404(2)
O4_6 O 0.8907(2) 0.7842(4) 0.4473(4)
O8_6 O 0.8147(2) 0.6822(3) 0.0609(4)
N2_6 N 0.91165(16) 0.73924(22) 0.1400(3)
N4_6 N 0.7403(4) 0.6644(6) 0.1002(10)
C5_6 C 0.9840(2) 0.7790(3) 0.0462(4)
C6_6 C 0.95605(19) 0.77815(28) 0.1305(4)
C7_6 C 0.9751(3) 0.8148(4) 0.1975(5)
C8_6 C 0.9487(3) 0.8073(4) 0.2810(5)
H5_6 H 0.9610 0.8309 0.3286
C9_6 C 0.9048(2) 0.7653(3) 0.2928(4)
C10_6 C 0.88732(19) 0.73281(27) 0.2200(3)
H6_6 H 0.8567 0.7046 0.2267
C12_6 C 0.8770(2) 0.7540(4) 0.3849(4)
C13_6 C 0.7734(4) 0.6501(6) 0.0844(12)
C14_6 C 0.7644(5) 0.7216(7) 0.1143(12)
H7_6 H 0.7486 0.7280 0.1660
H8_6 H 0.7987 0.7354 0.1280
H9_6 H 0.7605 0.7360 0.0575
C15_6 C 0.6894(4) 0.6369(6) 0.1228(12)
H10_6 H 0.6769 0.6590 0.1311
H11_6 H 0.6720 0.6144 0.0722
H12_6 H 0.6851 0.6189 0.1802
C16_6 C 0.7584(5) 0.6003(7) 0.1142(12)
H13_6 H 0.7236 0.5826 0.1261
H14_6 H 0.7659 0.5839 0.0651
H15_6 H 0.7756 0.6012 0.1710
O9_6 O 0.86582(26) 0.63208(33) 0.1236(3)
O5_6 O 0.8179(3) 0.6083(4) 0.9360(6)
O6_6 O 0.8940(2) 0.6355(3) 0.9185(4)
O7_6 O 0.8407(5) 0.5698(7) 0.8422(9)
N1_6 N 0.96212(15) 0.73999(21) 0.9906(3)
N3_6 N 0.8489(3) 0.6036(4) 0.8985(7)
C1_6 C 0.9870(2) 0.73600(28) 0.9177(4)
H1_6 H 0.9717 0.7081 0.8798
O3_4 O 0.50742(18) 0.46277(18) 0.2224(3)
O4_7 O 0.5574(2) 0.4398(3) 0.2806(4)
C7_7 C 0.6418(3) 0.4936(3) 0.0308(5)
H4_4 H 0.6714 0.4943 0.0208
C8_7 C 0.6154(3) 0.4747(3) 0.1143(5)
H5_7 H 0.6277 0.4634 0.1619
C9_7 C 0.5715(2) 0.4728(2) 0.1261(4)
C10_7 C 0.55399(19) 0.48784(19) 0.0533(3)
H6_7 H 0.5234 0.4854 0.0600
C12_7 C 0.5437(2) 0.4563(3) 0.2182(4)
H12_7 H 0.3518 0.3995 0.0135
H15_7 H 0.4423 0.5077 0.0043
In2_4 In 0.469817(12) 0.451849(12) 0.35070(2)
In1_4 In 0.548151(12) 0.530183(12) 0.85070(2)
O1_5 O 0.7104(2) 0.6535(2) 0.6140(4)
O5_7 O 0.4846(3) 0.5429(3) 0.7693(6)
O6_7 O 0.5607(2) 0.5918(2) 0.7518(4)
O7_7 O 0.5074(5) 0.6042(5) 0.6755(9)
O8_7 O 0.4814(2) 0.4658(2) 0.8942(4)
N1_7 N 0.62879(15) 0.55546(14) 0.8239(3)
N2_7 N 0.57832(16) 0.50574(15) 0.9733(3)
N3_7 N 0.5156(3) 0.5786(3) 0.7318(7)
N4_7 N 0.4070(4) 0.4092(4) 0.9335(10)
C1_7 C 0.6537(2) 0.58433(19) 0.7510(4)
H1_7 H 0.6384 0.5969 0.7131
C2_5 C 0.7009(2) 0.5961(2) 0.7301(4)
C3_5 C 0.7227(2) 0.5768(3) 0.7856(5)
H2_5 H 0.7543 0.5832 0.7722
C4_4 C 0.6974(2) 0.5481(3) 0.8608(5)
H3_4 H 0.7120 0.5350 0.8996
C5_7 C 0.6507(2) 0.5383(2) 0.8795(4)
C6_7 C 0.62272(19) 0.5112(2) 0.9638(4)
C11_5 C 0.7264(2) 0.6296(2) 0.6496(4)
C13_7 C 0.4401(4) 0.4566(4) 0.9177(12)
C14_7 C 0.4311(5) 0.3761(5) 0.9476(12)
H7_7 H 0.4153 0.3539 0.9993
H8_7 H 0.4654 0.3966 0.9613
H9_7 H 0.4272 0.3578 0.8908
C15_7 C 0.3561(4) 0.3858(5) 0.9561(12)
H10_7 H 0.3436 0.3512 0.9644
H11_7 H 0.3387 0.3909 0.9055
C16_7 C 0.4251(5) 0.4914(5) 0.9475(12)
H13_7 H 0.3903 0.4743 0.9594
H14_7 H 0.4326 0.5153 0.8984
O9_7 O 0.53248(26) 0.5671(2) 0.9570(3)
O10_4 O 0.53723(18) 0.49258(18) 0.7224(3)
O3_5 O 0.53723(18) 0.04464(25) 0.2224(3)
O4_8 O 0.5602(3) 0.1175(4) 0.2806(4)
C7_8 C 0.5064(3) 0.1481(4) 0.0308(5)
H4_5 H 0.5057 0.1770 0.0208
C8_8 C 0.5253(3) 0.1406(4) 0.1143(5)
H5_8 H 0.5366 0.1642 0.1619
C9_8 C 0.5272(2) 0.0986(3) 0.1261(4)
C10_8 C 0.51216(19) 0.06614(27) 0.0533(3)
H6_8 H 0.5146 0.0379 0.0600
C12_8 C 0.5437(3) 0.0873(4) 0.2182(4)
In2_5 In 0.548151(12) 0.017967(17) 0.35070(2)
In1_5 In 0.469817(12) 0.017967(17) 0.85070(2)
O1_6 O 0.3465(2) 0.0568(3) 0.6140(4)
O8_8 O 0.5342(2) 0.0155(3) 0.8942(4)
N1_8 N 0.44454(14) 0.07332(21) 0.8239(3)
N2_8 N 0.49426(15) 0.07257(22) 0.9733(3)
C1_8 C 0.41567(19) 0.06933(28) 0.7510(4)
H1_8 H 0.4031 0.0414 0.7131
C2_6 C 0.4039(2) 0.1047(3) 0.7301(4)
C3_6 C 0.4232(3) 0.1458(4) 0.7856(5)
H2_6 H 0.4168 0.1710 0.7722
C4_5 C 0.4519(3) 0.1492(4) 0.8608(5)
H3_5 H 0.4650 0.1769 0.8996
C5_8 C 0.4617(2) 0.1123(3) 0.8795(4)
C6_8 C 0.4888(2) 0.11148(28) 0.9638(4)
C11_6 C 0.3704(2) 0.0967(3) 0.6496(4)
C14_8 C 0.6239(5) 0.0549(7) 0.9476(12)
H7_8 H 0.6461 0.0613 0.9993
H8_8 H 0.6034 0.0687 0.9613
H9_8 H 0.6422 0.0693 0.8908
O10_5 O 0.50742(18) 0.04464(25) 0.7224(3)
O3_6 O 0.95536(25) 0.49258(18) 0.2224(3)
O4_9 O 0.8825(4) 0.4426(2) 0.2806(4)
C7_9 C 0.8519(4) 0.3582(3) 0.0308(5)
H4_6 H 0.8230 0.3286 0.0208
C8_9 C 0.8594(4) 0.3846(3) 0.1143(5)
H5_9 H 0.8358 0.3723 0.1619
C9_9 C 0.9014(3) 0.4285(2) 0.1261(4)
C10_9 C 0.93386(27) 0.44601(19) 0.0533(3)
H6_9 H 0.9621 0.4766 0.0600
C12_9 C 0.9127(4) 0.4563(2) 0.2182(4)
In2_6 In 0.982033(17) 0.530183(12) 0.35070(2)
In1_6 In 0.982033(17) 0.451849(12) 0.85070(2)
O1_7 O 0.9432(3) 0.2896(2) 0.6140(4)
O8_9 O 0.9845(3) 0.5186(2) 0.8942(4)
N1_9 N 0.92668(21) 0.37121(15) 0.8239(3)
N2_9 N 0.92743(22) 0.42168(16) 0.9733(3)
C1_9 C 0.93067(28) 0.3463(2) 0.7510(4)
H1_9 H 0.9586 0.3616 0.7131
C2_7 C 0.8953(3) 0.2991(2) 0.7301(4)
C3_7 C 0.8542(4) 0.2773(2) 0.7856(5)
H2_7 H 0.8290 0.2457 0.7722
C4_6 C 0.8508(4) 0.3026(2) 0.8608(5)
H3_6 H 0.8231 0.2880 0.8996
C5_9 C 0.8877(3) 0.3493(2) 0.8795(4)
C6_9 C 0.88852(28) 0.37728(19) 0.9638(4)
C11_7 C 0.9033(3) 0.2736(2) 0.6496(4)
C14_9 C 0.9451(7) 0.5689(5) 0.9476(12)
H7_9 H 0.9387 0.5847 0.9993
H8_9 H 0.9313 0.5346 0.9613
H9_9 H 0.9307 0.5728 0.8908
O10_6 O 0.95536(25) 0.46277(18) 0.7224(3)
O1_8 O 0.3465(2) 0.2896(2) 0.1140(4)
O4_10 O 0.5602(3) 0.4426(2) 0.7806(4)
O5_8 O 0.4571(3) 0.5154(3) 0.2693(6)
O6_8 O 0.4082(2) 0.4393(2) 0.2518(4)
O7_8 O 0.3958(5) 0.4926(5) 0.1755(9)
O8_10 O 0.5342(2) 0.5186(2) 0.3942(4)
N1_10 N 0.44454(14) 0.37121(15) 0.3239(3)
N2_10 N 0.49426(15) 0.42168(16) 0.4733(3)
N3_8 N 0.4214(3) 0.4844(3) 0.2318(7)
N4_8 N 0.5908(4) 0.5930(4) 0.4335(10)
C1_10 C 0.41567(19) 0.3463(2) 0.2510(4)
H1_10 H 0.4031 0.3616 0.2131
C2_8 C 0.4039(2) 0.2991(2) 0.2301(4)
C3_8 C 0.4232(3) 0.2773(2) 0.2856(5)
H2_8 H 0.4168 0.2457 0.2722
C4_7 C 0.4519(3) 0.3026(2) 0.3608(5)
H3_7 H 0.4650 0.2880 0.3996
C5_10 C 0.4617(2) 0.3493(2) 0.3795(4)
C6_10 C 0.4888(2) 0.37728(19) 0.4638(4)
C7_10 C 0.5064(3) 0.3582(3) 0.5308(5)
H4_7 H 0.5057 0.3286 0.5208
C8_10 C 0.5253(3) 0.3846(3) 0.6143(5)
H5_10 H 0.5366 0.3723 0.6619
C9_10 C 0.5272(2) 0.4285(2) 0.6261(4)
C10_10 C 0.51216(19) 0.44601(19) 0.5533(3)
H6_10 H 0.5146 0.4766 0.5600
C11_8 C 0.3704(2) 0.2736(2) 0.1496(4)
C12_10 C 0.5437(3) 0.4563(2) 0.7182(4)
C13_8 C 0.5434(4) 0.5599(4) 0.4177(12)
C14_10 C 0.6239(5) 0.5689(5) 0.4476(12)
H7_10 H 0.6461 0.5847 0.4993
H8_10 H 0.6034 0.5346 0.4613
H9_10 H 0.6422 0.5728 0.3908
C15_8 C 0.6142(5) 0.6439(4) 0.4561(12)
H10_8 H 0.6488 0.6564 0.4644
H11_8 H 0.6091 0.6613 0.4055
H12_8 H 0.6005 0.6482 0.5135
C16_8 C 0.5086(5) 0.5749(5) 0.4475(12)
H13_8 H 0.5257 0.6097 0.4594
H14_8 H 0.4847 0.5674 0.3984
H15_8 H 0.4923 0.5577 0.5043
O9_8 O 0.4329(2) 0.46752(26) 0.4570(3)
O1_9 O 0.9432(3) 0.6535(2) 0.1140(4)
O4_11 O 0.8825(4) 0.4398(3) 0.7806(4)
O8_11 O 0.9845(3) 0.4658(2) 0.3942(4)
N1_11 N 0.92668(21) 0.55546(14) 0.3239(3)
N2_11 N 0.92743(22) 0.50574(15) 0.4733(3)
C1_11 C 0.93067(28) 0.58433(19) 0.2510(4)
H1_11 H 0.9586 0.5969 0.2131
C2_9 C 0.8953(3) 0.5961(2) 0.2301(4)
C3_9 C 0.8542(4) 0.5768(3) 0.2856(5)
H2_9 H 0.8290 0.5832 0.2722
C4_8 C 0.8508(4) 0.5481(3) 0.3608(5)
H3_8 H 0.8231 0.5350 0.3996
C5_11 C 0.8877(3) 0.5383(2) 0.3795(4)
C6_11 C 0.88852(28) 0.5112(2) 0.4638(4)
C7_11 C 0.8519(4) 0.4936(3) 0.5308(5)
H4_8 H 0.8230 0.4943 0.5208
C8_11 C 0.8594(4) 0.4747(3) 0.6143(5)
H5_11 H 0.8358 0.4634 0.6619
C9_11 C 0.9014(3) 0.4728(2) 0.6261(4)
C10_11 C 0.93386(27) 0.48784(19) 0.5533(3)
H6_11 H 0.9621 0.4854 0.5600
C11_9 C 0.9033(3) 0.6296(2) 0.1496(4)
C12_11 C 0.9127(4) 0.4563(3) 0.7182(4)
C14_11 C 0.9451(7) 0.3761(5) 0.4476(12)
H7_11 H 0.9387 0.3539 0.4993
H8_11 H 0.9313 0.3966 0.4613
H9_11 H 0.9307 0.3578 0.3908
O1_10 O 0.7104(2) 0.0568(3) 0.1140(4)
O4_12 O 0.5574(2) 0.1175(4) 0.7806(4)
O8_12 O 0.4814(2) 0.0155(3) 0.3942(4)
N1_12 N 0.62879(15) 0.07332(21) 0.3239(3)
N2_12 N 0.57832(16) 0.07257(22) 0.4733(3)
C1_12 C 0.6537(2) 0.06933(28) 0.2510(4)
H1_12 H 0.6384 0.0414 0.2131
C2_10 C 0.7009(2) 0.1047(3) 0.2301(4)
C3_10 C 0.7227(2) 0.1458(4) 0.2856(5)
H2_10 H 0.7543 0.1710 0.2722
C4_9 C 0.6974(2) 0.1492(4) 0.3608(5)
H3_9 H 0.7120 0.1769 0.3996
C5_12 C 0.6507(2) 0.1123(3) 0.3795(4)
C6_12 C 0.62272(19) 0.11148(28) 0.4638(4)
C7_12 C 0.6418(3) 0.1481(4) 0.5308(5)
H4_9 H 0.6714 0.1770 0.5208
C8_12 C 0.6154(3) 0.1406(4) 0.6143(5)
H5_12 H 0.6277 0.1642 0.6619
C9_12 C 0.5715(2) 0.0986(3) 0.6261(4)
C10_12 C 0.55399(19) 0.06614(27) 0.5533(3)
H6_12 H 0.5234 0.0379 0.5600
C11_10 C 0.7264(2) 0.0967(3) 0.1496(4)
C12_12 C 0.5437(2) 0.0873(4) 0.7182(4)
C14_12 C 0.4311(5) 0.0549(7) 0.4476(12)
H7_12 H 0.4153 0.0613 0.4993
H8_12 H 0.4654 0.0687 0.4613
H9_12 H 0.4272 0.0693 0.3908
O5_9 O 0.4846(3) 0.9416(4) 0.2693(6)
O6_9 O 0.5607(2) 0.9688(3) 0.2518(4)
O7_9 O 0.5074(5) 0.9031(7) 0.1755(9)
N3_9 N 0.5156(3) 0.9369(4) 0.2318(7)
N4_9 N 0.4070(4) 0.9977(6) 0.4335(10)
C13_9 C 0.4401(4) 0.9834(6) 0.4177(12)
C15_9 C 0.3561(4) 0.9702(6) 0.4561(12)
H10_9 H 0.3436 0.9923 0.4644
H11_9 H 0.3387 0.9477 0.4055
H12_9 H 0.3518 0.9522 0.5135
C16_9 C 0.4251(5) 0.9336(7) 0.4475(12)
H13_9 H 0.3903 0.9159 0.4594
H14_9 H 0.4326 0.9172 0.3984
H15_9 H 0.4423 0.9345 0.5043
O9_9 O 0.53248(26) 0.96542(33) 0.4570(3)
O3_7 O 0.20389(18) 0.37798(25) 0.5558(3)
O4_13 O 0.2268(3) 0.4509(4) 0.6140(4)
O5_10 O 0.1237(3) 0.2750(4) 0.1027(6)
O6_10 O 0.0748(2) 0.3022(3) 0.0852(4)
O7_10 O 0.0624(5) 0.2365(7) 0.0089(9)
O8_13 O 0.2008(2) 0.3489(3) 0.2276(4)
N1_13 N 0.11120(14) 0.40666(21) 0.1573(3)
N2_13 N 0.16092(15) 0.40591(22) 0.3067(3)
N3_10 N 0.0880(3) 0.2703(4) 0.0652(7)
N4_10 N 0.2574(4) 0.3311(6) 0.2669(10)
C1_13 C 0.08233(19) 0.40267(28) 0.0844(4)
H1_13 H 0.0697 0.3748 0.0465
C2_11 C 0.0705(2) 0.4381(3) 0.0635(4)
C3_11 C 0.0898(3) 0.4792(4) 0.1190(5)
H2_11 H 0.0834 0.5044 0.1056
C4_10 C 0.1185(3) 0.4826(4) 0.1942(5)
H3_10 H 0.1316 0.5103 0.2330
C5_13 C 0.1283(2) 0.4457(3) 0.2129(4)
C6_13 C 0.1554(2) 0.44482(28) 0.2972(4)
C7_13 C 0.1730(3) 0.4815(4) 0.3642(5)
H4_10 H 0.1723 0.5104 0.3542
C8_13 C 0.1919(3) 0.4740(4) 0.4477(5)
H5_13 H 0.2032 0.4976 0.4953
C9_13 C 0.1938(2) 0.4320(3) 0.4595(4)
C10_13 C 0.17882(19) 0.39948(27) 0.3867(3)
H6_13 H 0.1812 0.3713 0.3934
C12_13 C 0.2103(3) 0.4207(4) 0.5516(4)
C13_10 C 0.2100(4) 0.3168(6) 0.2511(12)
C14_13 C 0.2905(5) 0.3883(7) 0.2810(12)
H7_13 H 0.3127 0.3947 0.3327
H8_13 H 0.2700 0.4021 0.2947
H9_13 H 0.3088 0.4027 0.2242
C15_10 C 0.2808(5) 0.3036(6) 0.2895(12)
H10_10 H 0.3154 0.3257 0.2978
H11_10 H 0.2757 0.2811 0.2389
H12_10 H 0.2671 0.2856 0.3469
C16_10 C 0.1752(5) 0.2670(7) 0.2809(12)
H13_10 H 0.1923 0.2493 0.2928
H14_10 H 0.1513 0.2506 0.2318
H15_10 H 0.1589 0.2679 0.3377
O10_7 O 0.17408(18) 0.37798(25) 0.0558(3)
O3_8 O 0.62202(25) 0.82592(18) 0.5558(3)
O4_14 O 0.5491(4) 0.7760(2) 0.6140(4)
O5_11 O 0.7250(4) 0.8488(3) 0.1027(6)
O6_11 O 0.6978(3) 0.7727(2) 0.0852(4)
O7_11 O 0.7635(7) 0.8260(5) 0.0089(9)
O8_14 O 0.6511(3) 0.8520(2) 0.2276(4)
N1_14 N 0.59334(21) 0.70455(15) 0.1573(3)
N2_14 N 0.59409(22) 0.75502(16) 0.3067(3)
N3_11 N 0.7297(4) 0.8178(3) 0.0652(7)
N4_11 N 0.6689(6) 0.9264(4) 0.2669(10)
C1_14 C 0.59733(28) 0.6797(2) 0.0844(4)
H1_14 H 0.6252 0.6950 0.0465
C2_12 C 0.5619(3) 0.6325(2) 0.0635(4)
C3_12 C 0.5208(4) 0.6107(2) 0.1190(5)
H2_12 H 0.4956 0.5791 0.1056
C4_11 C 0.5174(4) 0.6360(2) 0.1942(5)
H3_11 H 0.4897 0.6214 0.2330
C5_14 C 0.5543(3) 0.6827(2) 0.2129(4)
C6_14 C 0.55518(28) 0.71062(19) 0.2972(4)
C7_14 C 0.5185(4) 0.6916(3) 0.3642(5)
H4_11 H 0.4896 0.6620 0.3542
C8_14 C 0.5260(4) 0.7180(3) 0.4477(5)
H5_14 H 0.5024 0.7057 0.4953
C9_14 C 0.5680(3) 0.7619(2) 0.4595(4)
C10_14 C 0.60052(27) 0.77935(19) 0.3867(3)
H6_14 H 0.6287 0.8100 0.3934
C12_14 C 0.5793(4) 0.7897(2) 0.5516(4)
C13_11 C 0.6832(6) 0.8933(4) 0.2511(12)
C14_14 C 0.6117(7) 0.9023(5) 0.2810(12)
H7_14 H 0.6053 0.9181 0.3327
H8_14 H 0.5979 0.8680 0.2947
H9_14 H 0.5973 0.9062 0.2242
C15_11 C 0.6964(6) 0.9773(4) 0.2895(12)
H10_11 H 0.6743 0.9898 0.2978
H11_11 H 0.7189 0.9947 0.2389
H12_11 H 0.7144 0.9816 0.3469
C16_11 C 0.7330(7) 0.9083(5) 0.2809(12)
H13_11 H 0.7507 0.9431 0.2928
H14_11 H 0.7494 0.9008 0.2318
H15_11 H 0.7321 0.8911 0.3377
O10_8 O 0.62202(25) 0.79611(18) 0.0558(3)
O1_11 O 0.6098(3) 0.6230(2) 0.9474(4)
C11_11 C 0.5699(3) 0.6070(2) 0.9830(4)
O4_15 O 0.5491(4) 0.7732(3) 0.1140(4)
C12_15 C 0.5793(4) 0.7897(3) 0.0516(4)
O1_12 O 0.6098(3) 0.9869(2) 0.4474(4)
O5_12 O 0.7250(4) 0.8763(3) 0.6027(6)
O6_12 O 0.6978(3) 0.9252(2) 0.5852(4)
O7_12 O 0.7635(7) 0.9376(5) 0.5089(9)
O8_15 O 0.6511(3) 0.7992(2) 0.7276(4)
N1_15 N 0.59334(21) 0.88880(14) 0.6573(3)
N2_15 N 0.59409(22) 0.83908(15) 0.8067(3)
N3_12 N 0.7297(4) 0.9120(3) 0.5652(7)
N4_12 N 0.6689(6) 0.7426(4) 0.7669(10)
C1_15 C 0.59733(28) 0.91767(19) 0.5844(4)
H1_15 H 0.6252 0.9303 0.5465
C2_13 C 0.5619(3) 0.9295(2) 0.5635(4)
C3_13 C 0.5208(4) 0.9102(3) 0.6190(5)
H2_13 H 0.4956 0.9166 0.6056
C4_12 C 0.5174(4) 0.8815(3) 0.6942(5)
H3_12 H 0.4897 0.8684 0.7330
C5_15 C 0.5543(3) 0.8717(2) 0.7129(4)
C6_15 C 0.55518(28) 0.8446(2) 0.7972(4)
C7_15 C 0.5185(4) 0.8270(3) 0.8642(5)
H4_12 H 0.4896 0.8277 0.8542
C8_15 C 0.5260(4) 0.8081(3) 0.9477(5)
H5_15 H 0.5024 0.7968 0.9953
C9_15 C 0.5680(3) 0.8062(2) 0.9595(4)
C10_15 C 0.60052(27) 0.82118(19) 0.8867(3)
H6_15 H 0.6287 0.8188 0.8934
C11_12 C 0.5699(3) 0.9630(2) 0.4830(4)
C13_12 C 0.6832(6) 0.7900(4) 0.7511(12)
C14_15 C 0.6117(7) 0.7095(5) 0.7810(12)
H7_15 H 0.6053 0.6873 0.8327
H8_15 H 0.5979 0.7300 0.7947
H9_15 H 0.5973 0.6912 0.7242
C15_12 C 0.6964(6) 0.7192(5) 0.7895(12)
H10_12 H 0.6743 0.6846 0.7978
H11_12 H 0.7189 0.7243 0.7389
H12_12 H 0.7144 0.7329 0.8469
C16_12 C 0.7330(7) 0.8248(5) 0.7809(12)
H13_12 H 0.7507 0.8077 0.7928
H14_12 H 0.7494 0.8487 0.7318
H15_12 H 0.7321 0.8411 0.8377
O4_16 O 0.2240(2) 0.4509(4) 0.1140(4)
C12_16 C 0.2103(2) 0.4207(4) 0.0516(4)
O1_13 O 0.3770(2) 0.3902(3) 0.4474(4)
O5_13 O 0.1512(3) 0.2750(4) 0.6027(6)
O6_13 O 0.2273(2) 0.3022(3) 0.5852(4)
O7_13 O 0.1740(5) 0.2365(7) 0.5089(9)
O8_16 O 0.1480(2) 0.3489(3) 0.7276(4)
N1_16 N 0.29545(15) 0.40666(21) 0.6573(3)
N2_16 N 0.24498(16) 0.40591(22) 0.8067(3)
N3_13 N 0.1822(3) 0.2703(4) 0.5652(7)
N4_13 N 0.0736(4) 0.3311(6) 0.7669(10)
C1_16 C 0.3203(2) 0.40267(28) 0.5844(4)
H1_16 H 0.3050 0.3748 0.5465
C2_14 C 0.3675(2) 0.4381(3) 0.5635(4)
C3_14 C 0.3893(2) 0.4792(4) 0.6190(5)
H2_14 H 0.4209 0.5044 0.6056
C4_13 C 0.3640(2) 0.4826(4) 0.6942(5)
H3_13 H 0.3786 0.5103 0.7330
C5_16 C 0.3173(2) 0.4457(3) 0.7129(4)
C6_16 C 0.28938(19) 0.44482(28) 0.7972(4)
C7_16 C 0.3084(3) 0.4815(4) 0.8642(5)
H4_13 H 0.3380 0.5104 0.8542
C8_16 C 0.2820(3) 0.4740(4) 0.9477(5)
H5_16 H 0.2943 0.4976 0.9953
C9_16 C 0.2381(2) 0.4320(3) 0.9595(4)
C10_16 C 0.22065(19) 0.39948(27) 0.8867(3)
H6_16 H 0.1900 0.3713 0.8934
C11_13 C 0.3930(2) 0.4301(3) 0.4830(4)
C13_13 C 0.1067(4) 0.3168(6) 0.7511(12)
C14_16 C 0.0977(5) 0.3883(7) 0.7810(12)
H7_16 H 0.0819 0.3947 0.8327
H8_16 H 0.1320 0.4021 0.7947
H9_16 H 0.0938 0.4027 0.7242
C15_13 C 0.0227(4) 0.3036(6) 0.7895(12)
H10_13 H 0.0102 0.3257 0.7978
H11_13 H 0.0053 0.2811 0.7389
H12_13 H 0.0184 0.2856 0.8469
C16_13 C 0.0917(5) 0.2670(7) 0.7809(12)
H13_13 H 0.0569 0.2493 0.7928
H14_13 H 0.0992 0.2506 0.7318
H15_13 H 0.1089 0.2679 0.8377
O1_14 O 0.2765(3) 0.9563(2) 0.2807(4)
O2_5 O 0.19915(26) 0.9004(2) 0.2903(3)
C2_15 C 0.2286(3) 0.9658(2) 0.3968(4)
C3_15 C 0.1875(4) 0.9440(2) 0.4523(5)
H2_15 H 0.1623 0.9124 0.4389
C4_14 C 0.1841(4) 0.9693(2) 0.5275(5)
H3_14 H 0.1564 0.9547 0.5663
H4_14 H 0.1563 0.9953 0.6875
C11_14 C 0.2366(3) 0.9403(2) 0.3163(4)
In3_5 In 0.214817(21) 0.863517(12) 0.18404(2)
O1_15 O 0.0437(2) 0.7235(3) 0.7807(4)
O2_6 O 0.0996(2) 0.80085(26) 0.7903(3)
C2_16 C 0.0342(2) 0.7714(3) 0.8968(4)
C3_16 C 0.0560(2) 0.8125(4) 0.9523(5)
H2_16 H 0.0876 0.8377 0.9389
C11_15 C 0.0597(2) 0.7634(3) 0.8163(4)
In3_6 In 0.136483(12) 0.785183(21) 0.68404(2)
O5_14 O 0.0584(4) 0.5429(3) 0.2693(6)
O6_14 O 0.0312(3) 0.5918(2) 0.2518(4)
O7_14 O 0.0969(7) 0.6042(5) 0.1755(9)
N3_14 N 0.0631(4) 0.5786(3) 0.2318(7)
N4_14 N 0.0023(6) 0.4092(4) 0.4335(10)
C13_14 C 0.0166(6) 0.4566(4) 0.4177(12)
C15_14 C 0.0298(6) 0.3858(5) 0.4561(12)
H10_14 H 0.0077 0.3512 0.4644
H11_14 H 0.0523 0.3909 0.4055
H12_14 H 0.0478 0.3995 0.5135
C16_14 C 0.0664(7) 0.4914(5) 0.4475(12)
H13_14 H 0.0841 0.4743 0.4594
H14_14 H 0.0828 0.5153 0.3984
H15_14 H 0.0655 0.5077 0.5043
O9_10 O 0.03458(33) 0.5671(2) 0.4570(3)
O3_9 O 0.17408(18) 0.79611(18) 0.5558(3)
O4_17 O 0.2240(2) 0.7732(3) 0.6140(4)
O5_15 O 0.1512(3) 0.8763(3) 0.1027(6)
O6_15 O 0.2273(2) 0.9252(2) 0.0852(4)
O7_15 O 0.1740(5) 0.9376(5) 0.0089(9)
O8_17 O 0.1480(2) 0.7992(2) 0.2276(4)
N1_17 N 0.29545(15) 0.88880(14) 0.1573(3)
N2_17 N 0.24498(16) 0.83908(15) 0.3067(3)
N3_15 N 0.1822(3) 0.9120(3) 0.0652(7)
N4_15 N 0.0736(4) 0.7426(4) 0.2669(10)
C1_17 C 0.3203(2) 0.91767(19) 0.0844(4)
H1_17 H 0.3050 0.9303 0.0465
C2_17 C 0.3675(2) 0.9295(2) 0.0635(4)
C3_17 C 0.3893(2) 0.9102(3) 0.1190(5)
H2_17 H 0.4209 0.9166 0.1056
C4_15 C 0.3640(2) 0.8815(3) 0.1942(5)
H3_15 H 0.3786 0.8684 0.2330
C5_17 C 0.3173(2) 0.8717(2) 0.2129(4)
C6_17 C 0.28938(19) 0.8446(2) 0.2972(4)
C7_17 C 0.3084(3) 0.8270(3) 0.3642(5)
H4_15 H 0.3380 0.8277 0.3542
C8_17 C 0.2820(3) 0.8081(3) 0.4477(5)
H5_17 H 0.2943 0.7968 0.4953
C9_17 C 0.2381(2) 0.8062(2) 0.4595(4)
C10_17 C 0.22065(19) 0.82118(19) 0.3867(3)
H6_17 H 0.1900 0.8188 0.3934
C12_17 C 0.2103(2) 0.7897(3) 0.5516(4)
C13_15 C 0.1067(4) 0.7900(4) 0.2511(12)
C14_17 C 0.0977(5) 0.7095(5) 0.2810(12)
H7_17 H 0.0819 0.6873 0.3327
H8_17 H 0.1320 0.7300 0.2947
H9_17 H 0.0938 0.6912 0.2242
C15_15 C 0.0227(4) 0.7192(5) 0.2895(12)
H10_15 H 0.0102 0.6846 0.2978
H11_15 H 0.0053 0.7243 0.2389
H12_15 H 0.0184 0.7329 0.3469
C16_15 C 0.0917(5) 0.8248(5) 0.2809(12)
H13_15 H 0.0569 0.8077 0.2928
H14_15 H 0.0992 0.8487 0.2318
H15_15 H 0.1089 0.8411 0.3377
O10_9 O 0.20389(18) 0.82592(18) 0.0558(3)
O4_18 O 0.2268(3) 0.7760(2) 0.1140(4)
C12_18 C 0.2103(3) 0.7897(2) 0.0516(4)
O1_16 O 0.0131(2) 0.6230(2) 0.4474(4)
O5_16 O 0.1237(3) 0.8488(3) 0.6027(6)
O6_16 O 0.0748(2) 0.7727(2) 0.5852(4)
O7_16 O 0.0624(5) 0.8260(5) 0.5089(9)
O8_18 O 0.2008(2) 0.8520(2) 0.7276(4)
N1_18 N 0.11120(14) 0.70455(15) 0.6573(3)
N2_18 N 0.16092(15) 0.75502(16) 0.8067(3)
N3_16 N 0.0880(3) 0.8178(3) 0.5652(7)
N4_16 N 0.2574(4) 0.9264(4) 0.7669(10)
C1_18 C 0.08233(19) 0.6797(2) 0.5844(4)
H1_18 H 0.0697 0.6950 0.5465
C2_18 C 0.0705(2) 0.6325(2) 0.5635(4)
C3_18 C 0.0898(3) 0.6107(2) 0.6190(5)
H2_18 H 0.0834 0.5791 0.6056
C4_16 C 0.1185(3) 0.6360(2) 0.6942(5)
H3_16 H 0.1316 0.6214 0.7330
C5_18 C 0.1283(2) 0.6827(2) 0.7129(4)
C6_18 C 0.1554(2) 0.71062(19) 0.7972(4)
C7_18 C 0.1730(3) 0.6916(3) 0.8642(5)
H4_16 H 0.1723 0.6620 0.8542
C8_18 C 0.1919(3) 0.7180(3) 0.9477(5)
H5_18 H 0.2032 0.7057 0.9953
C9_18 C 0.1938(2) 0.7619(2) 0.9595(4)
C10_18 C 0.17882(19) 0.77935(19) 0.8867(3)
H6_18 H 0.1812 0.8100 0.8934
C11_16 C 0.0370(2) 0.6070(2) 0.4830(4)
C13_16 C 0.2100(4) 0.8933(4) 0.7511(12)
C14_18 C 0.2905(5) 0.9023(5) 0.7810(12)
H7_18 H 0.3127 0.9181 0.8327
H8_18 H 0.2700 0.8680 0.7947
H9_18 H 0.3088 0.9062 0.7242
C15_16 C 0.2808(5) 0.9773(4) 0.7895(12)
H10_16 H 0.3154 0.9898 0.7978
H11_16 H 0.2757 0.9947 0.7389
H12_16 H 0.2671 0.9816 0.8469
C16_16 C 0.1752(5) 0.9083(5) 0.7809(12)
H13_16 H 0.1923 0.9431 0.7928
H14_16 H 0.1513 0.9008 0.7318
H15_16 H 0.1589 0.8911 0.8377
C4_17 C 0.7852(3) 0.9693(2) 0.0275(5)
H3_17 H 0.7983 0.9547 0.0663
H4_17 H 0.8390 0.9953 0.1875
C4_18 C 0.0307(2) 0.8159(4) 0.0275(5)
H3_18 H 0.0453 0.8436 0.0663
H4_18 H 0.0047 0.8437 0.1875
H12_17 H 0.6005 0.9522 0.0135
H15_17 H 0.4923 0.9345 0.0043
O5_17 O 0.4571(3) 0.9416(4) 0.7693(6)
O6_17 O 0.4082(2) 0.9688(3) 0.7518(4)
O7_17 O 0.3958(5) 0.9031(7) 0.6755(9)
N3_17 N 0.4214(3) 0.9369(4) 0.7318(7)
N4_17 N 0.5908(4) 0.9977(6) 0.9335(10)
C13_17 C 0.5434(4) 0.9834(6) 0.9177(12)
C15_17 C 0.6142(5) 0.9702(6) 0.9561(12)
H10_17 H 0.6488 0.9923 0.9644
H11_17 H 0.6091 0.9477 0.9055
C16_17 C 0.5086(5) 0.9336(7) 0.9475(12)
H13_17 H 0.5257 0.9159 0.9594
H14_17 H 0.4847 0.9172 0.8984
O9_11 O 0.4329(2) 0.96542(33) 0.9570(3)
O1_17 O 0.3770(2) 0.9869(2) 0.9474(4)
C11_17 C 0.3930(2) 0.9630(2) 0.9830(4)
H12_18 H 0.0478 0.6482 0.0135
H15_18 H 0.0655 0.5577 0.0043
O5_18 O 0.0584(4) 0.5154(3) 0.7693(6)
O6_18 O 0.0312(3) 0.4393(2) 0.7518(4)
O7_18 O 0.0969(7) 0.4926(5) 0.6755(9)
N3_18 N 0.0631(4) 0.4844(3) 0.7318(7)
N4_18 N 0.0023(6) 0.5930(4) 0.9335(10)
C13_18 C 0.0166(6) 0.5599(4) 0.9177(12)
C15_18 C 0.0298(6) 0.6439(4) 0.9561(12)
H10_18 H 0.0077 0.6564 0.9644
H11_18 H 0.0523 0.6613 0.9055
C16_18 C 0.0664(7) 0.5749(5) 0.9475(12)
H13_18 H 0.0841 0.6097 0.9594
H14_18 H 0.0828 0.5674 0.8984
O9_12 O 0.03458(33) 0.46752(26) 0.9570(3)
O1_18 O 0.0131(2) 0.3902(3) 0.9474(4)
C11_18 C 0.0370(2) 0.4301(3) 0.9830(4)
loop_
_geom_bond_atom_site_label_1
_geom_bond_atom_site_label_2
_geom_bond_site_symmetry_1
_geom_bond_site_symmetry_2
O1 C11 1_555 1_555
O2 C11 1_555 1_555
C3 C2 1_555 1_555
H2 C3 1_555 1_555
C4 C3 1_555 1_555
H3 C4 1_555 1_555
C11 C2 1_555 1_555
In3 O2 1_555 1_555
In1 O5 1_555 1_555
O3 C12 1_555 1_555
O4 C12 1_555 1_555
O5 N3 1_555 1_555
O6 In1 1_555 1_555
O7 N3 1_555 1_555
O8 In1 1_555 1_555
N1 In1 1_555 1_555
N2 In1 1_555 1_555
N3 O6 1_555 1_555
N4 C13 1_555 1_555
C1 N1 1_555 1_555
H1 C1 1_555 1_555
C5 N1 1_555 1_555
C6 N2 1_555 1_555
C7 C6 1_555 1_555
C8 C7 1_555 1_555
H5 C8 1_555 1_555
C9 C8 1_555 1_555
C10 N2 1_555 1_555
H6 C10 1_555 1_555
C12 C9 1_555 1_555
C13 O8 1_555 1_555
C14 N4 1_555 1_555
H7 C14 1_555 1_555
H8 C14 1_555 1_555
H9 C14 1_555 1_555
C15 N4 1_555 1_555
H10 C15 1_555 1_555
H11 C15 1_555 1_555
H12 C15 1_555 1_555
C16 C13 1_555 1_555
H13 C16 1_555 1_555
H14 C16 1_555 1_555
H15 C16 1_555 1_555
O9 In1 1_555 1_555
O10 In1 1_555 1_555
C5 C6 1_555 1_555
C9 C10 1_555 1_555
In1_2 O5_2 1_555 1_555
O1_2 C11_2 1_555 1_555
O2_2 C11_2 1_555 1_555
O3_2 C12_2 1_555 1_555
O4_2 C12_2 1_555 1_555
O5_2 N3_2 1_555 1_555
O6_2 In1_2 1_555 1_555
O7_2 N3_2 1_555 1_555
O8_2 In1_2 1_555 1_555
N1_2 In1_2 1_555 1_555
N2_2 In1_2 1_555 1_555
N3_2 O6_2 1_555 1_555
N4_2 C13_2 1_555 1_555
C1_2 N1_2 1_555 1_555
H1_2 C1_2 1_555 1_555
C2_2 C1_2 1_555 1_555
C3_2 C2_2 1_555 1_555
H2_2 C3_2 1_555 1_555
C4_2 C3_2 1_555 1_555
H3_2 C4_2 1_555 1_555
C5_2 N1_2 1_555 1_555
C6_2 N2_2 1_555 1_555
C7_2 C6_2 1_555 1_555
H4_2 C7_2 1_555 1_555
C8_2 C7_2 1_555 1_555
H5_2 C8_2 1_555 1_555
C9_2 C8_2 1_555 1_555
C10_2 N2_2 1_555 1_555
H6_2 C10_2 1_555 1_555
C11_2 C2_2 1_555 1_555
C12_2 C9_2 1_555 1_555
C13_2 O8_2 1_555 1_555
C14_2 N4_2 1_555 1_555
H7_2 C14_2 1_555 1_555
H8_2 C14_2 1_555 1_555
H9_2 C14_2 1_555 1_555
C15_2 N4_2 1_555 1_555
H10_2 C15_2 1_555 1_555
H11_2 C15_2 1_555 1_555
H12_2 C15_2 1_555 1_555
C16_2 C13_2 1_555 1_555
H13_2 C16_2 1_555 1_555
H14_2 C16_2 1_555 1_555
H15_2 C16_2 1_555 1_555
In3_2 O2_2 1_555 1_555
O9_2 In1_2 1_555 1_555
O10_2 In1_2 1_555 1_555
C4_2 C5_2 1_555 1_555
C5_2 C6_2 1_555 1_555
C9_2 C10_2 1_555 1_555
In1_3 O5_3 1_555 1_555
O3_3 C12_3 1_555 1_555
O4_3 C12_3 1_555 1_555
O5_3 N3_3 1_555 1_555
O6_3 In1_3 1_555 1_555
O7_3 N3_3 1_555 1_555
O8_3 In1_3 1_555 1_555
N1_3 In1_3 1_555 1_555
N2_3 In1_3 1_555 1_555
N3_3 O6_3 1_555 1_555
N4_3 C13_3 1_555 1_555
C1_3 N1_3 1_555 1_555
H1_3 C1_3 1_555 1_555
C5_3 N1_3 1_555 1_555
C6_3 N2_3 1_555 1_555
C7_3 C6_3 1_555 1_555
C8_3 C7_3 1_555 1_555
H5_3 C8_3 1_555 1_555
C9_3 C8_3 1_555 1_555
C10_3 N2_3 1_555 1_555
H6_3 C10_3 1_555 1_555
C12_3 C9_3 1_555 1_555
C13_3 O8_3 1_555 1_555
C14_3 N4_3 1_555 1_555
H7_3 C14_3 1_555 1_555
H8_3 C14_3 1_555 1_555
H9_3 C14_3 1_555 1_555
C15_3 N4_3 1_555 1_555
H10_3 C15_3 1_555 1_555
H11_3 C15_3 1_555 1_555
H12_3 C15_3 1_555 1_555
C16_3 C13_3 1_555 1_555
H13_3 C16_3 1_555 1_555
H14_3 C16_3 1_555 1_555
H15_3 C16_3 1_555 1_555
O9_3 In1_3 1_555 1_555
O10_3 In1_3 1_555 1_555
C5_3 C6_3 1_555 1_555
C9_3 C10_3 1_555 1_555
O10 C12_4 1_555 1_555
O4_4 C12_4 1_555 1_555
O8_4 In2 1_555 1_555
N2_4 In2 1_555 1_555
N4_4 C13_4 1_555 1_555
C6_4 N2_4 1_555 1_555
C7_4 C6_4 1_555 1_555
C8_4 C7_4 1_555 1_555
H5_4 C8_4 1_555 1_555
C9_4 C8_4 1_555 1_555
C10_4 N2_4 1_555 1_555
H6_4 C10_4 1_555 1_555
C12_4 C9_4 1_555 1_555
C13_4 O8_4 1_555 1_555
C14_4 N4_4 1_555 1_555
H7_4 C14_4 1_555 1_555
H8_4 C14_4 1_555 1_555
H9_4 C14_4 1_555 1_555
C15_4 N4_4 1_555 1_555
H10_4 C15_4 1_555 1_555
H11_4 C15_4 1_555 1_555
H12_4 C15_4 1_555 1_555
C16_4 C13_4 1_555 1_555
H13_4 C16_4 1_555 1_555
H14_4 C16_4 1_555 1_555
H15_4 C16_4 1_555 1_555
O9_4 In2 1_555 1_555
C5_4 C6_4 1_555 1_555
C9_4 C10_4 1_555 1_555
O5_4 N3_4 1_555 1_555
O7_4 N3_4 1_555 1_555
N3_4 O6_4 1_555 1_555
C1_4 N1_4 1_555 1_555
H1_4 C1_4 1_555 1_555
O1_3 C11_3 1_555 1_555
O2_3 C11_3 1_555 1_555
C3_3 C2_3 1_555 1_555
H2_3 C3_3 1_555 1_555
C11_3 C2_3 1_555 1_555
In3_3 O2_3 1_555 1_555
O10_3 C12_5 1_555 1_555
O4_5 C12_5 1_555 1_555
O8_5 In2_3 1_555 1_555
N2_5 In2_3 1_555 1_555
N4_5 C13_5 1_555 1_555
H3_3 C4_3 1_555 1_555
C6_5 N2_5 1_555 1_555
C7_5 C6_5 1_555 1_555
H4_3 C7_5 1_555 1_555
C8_5 C7_5 1_555 1_555
H5_5 C8_5 1_555 1_555
C9_5 C8_5 1_555 1_555
C10_5 N2_5 1_555 1_555
H6_5 C10_5 1_555 1_555
C12_5 C9_5 1_555 1_555
C13_5 O8_5 1_555 1_555
C14_5 N4_5 1_555 1_555
H7_5 C14_5 1_555 1_555
H8_5 C14_5 1_555 1_555
H9_5 C14_5 1_555 1_555
C15_5 N4_5 1_555 1_555
H10_5 C15_5 1_555 1_555
H11_5 C15_5 1_555 1_555
H12_5 C15_5 1_555 1_555
C16_5 C13_5 1_555 1_555
H13_5 C16_5 1_555 1_555
H14_5 C16_5 1_555 1_555
H15_5 C16_5 1_555 1_555
O9_5 In2_3 1_555 1_555
C4_3 C5_5 1_555 1_555
C5_5 C6_5 1_555 1_555
C9_5 C10_5 1_555 1_555
O1_4 C11_4 1_555 1_555
O2_4 C11_4 1_555 1_555
O5_5 N3_5 1_555 1_555
O7_5 N3_5 1_555 1_555
N3_5 O6_5 1_555 1_555
C1_5 N1_5 1_555 1_555
H1_5 C1_5 1_555 1_555
C2_4 C1_5 1_555 1_555
C3_4 C2_4 1_555 1_555
H2_4 C3_4 1_555 1_555
C11_4 C2_4 1_555 1_555
In3_4 O2_4 1_555 1_555
O10_2 C12_6 1_555 1_555
O4_6 C12_6 1_555 1_555
O8_6 In2_2 1_555 1_555
N2_6 In2_2 1_555 1_555
N4_6 C13_6 1_555 1_555
C6_6 N2_6 1_555 1_555
C7_6 C6_6 1_555 1_555
C8_6 C7_6 1_555 1_555
H5_6 C8_6 1_555 1_555
C9_6 C8_6 1_555 1_555
C10_6 N2_6 1_555 1_555
H6_6 C10_6 1_555 1_555
C12_6 C9_6 1_555 1_555
C13_6 O8_6 1_555 1_555
C14_6 N4_6 1_555 1_555
H7_6 C14_6 1_555 1_555
H8_6 C14_6 1_555 1_555
H9_6 C14_6 1_555 1_555
C15_6 N4_6 1_555 1_555
H10_6 C15_6 1_555 1_555
H11_6 C15_6 1_555 1_555
H12_6 C15_6 1_555 1_555
C16_6 C13_6 1_555 1_555
H13_6 C16_6 1_555 1_555
H14_6 C16_6 1_555 1_555
H15_6 C16_6 1_555 1_555
O9_6 In2_2 1_555 1_555
C5_6 C6_6 1_555 1_555
C9_6 C10_6 1_555 1_555
O5_6 N3_6 1_555 1_555
O7_6 N3_6 1_555 1_555
N3_6 O6_6 1_555 1_555
C1_6 N1_6 1_555 1_555
H1_6 C1_6 1_555 1_555
O3_4 C12_7 1_555 1_555
O4_7 C12_7 1_555 1_555
H4_4 C7_7 1_555 1_555
C8_7 C7_7 1_555 1_555
H5_7 C8_7 1_555 1_555
C9_7 C8_7 1_555 1_555
H6_7 C10_7 1_555 1_555
C12_7 C9_7 1_555 1_555
In2_4 O3_4 1_555 1_555
C9_7 C10_7 1_555 1_555
In1_4 O5_7 1_555 1_555
O1_5 C11_5 1_555 1_555
O9_2 C11_5 1_555 1_555
O5_7 N3_7 1_555 1_555
O6_7 In1_4 1_555 1_555
O7_7 N3_7 1_555 1_555
O8_7 In1_4 1_555 1_555
N1_7 In1_4 1_555 1_555
N2_7 In1_4 1_555 1_555
N3_7 O6_7 1_555 1_555
N4_7 C13_7 1_555 1_555
C1_7 N1_7 1_555 1_555
H1_7 C1_7 1_555 1_555
C2_5 C1_7 1_555 1_555
C3_5 C2_5 1_555 1_555
H2_5 C3_5 1_555 1_555
C4_4 C3_5 1_555 1_555
H3_4 C4_4 1_555 1_555
C5_7 N1_7 1_555 1_555
C6_7 N2_7 1_555 1_555
C11_5 C2_5 1_555 1_555
C13_7 O8_7 1_555 1_555
C14_7 N4_7 1_555 1_555
H7_7 C14_7 1_555 1_555
H8_7 C14_7 1_555 1_555
H9_7 C14_7 1_555 1_555
C15_7 N4_7 1_555 1_555
H10_7 C15_7 1_555 1_555
H11_7 C15_7 1_555 1_555
C16_7 C13_7 1_555 1_555
H13_7 C16_7 1_555 1_555
H14_7 C16_7 1_555 1_555
O9_7 In1_4 1_555 1_555
O10_4 In1_4 1_555 1_555
C4_4 C5_7 1_555 1_555
C5_7 C6_7 1_555 1_555
O3_5 C12_8 1_555 1_555
O4_8 C12_8 1_555 1_555
H4_5 C7_8 1_555 1_555
C8_8 C7_8 1_555 1_555
H5_8 C8_8 1_555 1_555
C9_8 C8_8 1_555 1_555
H6_8 C10_8 1_555 1_555
C12_8 C9_8 1_555 1_555
In2_5 O3_5 1_555 1_555
C9_8 C10_8 1_555 1_555
O1_6 C11_6 1_555 1_555
O9_3 C11_6 1_555 1_555
O8_8 In1_5 1_555 1_555
N1_8 In1_5 1_555 1_555
N2_8 In1_5 1_555 1_555
C1_8 N1_8 1_555 1_555
H1_8 C1_8 1_555 1_555
C2_6 C1_8 1_555 1_555
C3_6 C2_6 1_555 1_555
H2_6 C3_6 1_555 1_555
C4_5 C3_6 1_555 1_555
H3_5 C4_5 1_555 1_555
C5_8 N1_8 1_555 1_555
C6_8 N2_8 1_555 1_555
C11_6 C2_6 1_555 1_555
H7_8 C14_8 1_555 1_555
H8_8 C14_8 1_555 1_555
H9_8 C14_8 1_555 1_555
O10_5 In1_5 1_555 1_555
C4_5 C5_8 1_555 1_555
C5_8 C6_8 1_555 1_555
O3_6 C12_9 1_555 1_555
O4_9 C12_9 1_555 1_555
H4_6 C7_9 1_555 1_555
C8_9 C7_9 1_555 1_555
H5_9 C8_9 1_555 1_555
C9_9 C8_9 1_555 1_555
H6_9 C10_9 1_555 1_555
C12_9 C9_9 1_555 1_555
In2_6 O3_6 1_555 1_555
C9_9 C10_9 1_555 1_555
O1_7 C11_7 1_555 1_555
O9 C11_7 1_555 1_555
O8_9 In1_6 1_555 1_555
N1_9 In1_6 1_555 1_555
N2_9 In1_6 1_555 1_555
C1_9 N1_9 1_555 1_555
H1_9 C1_9 1_555 1_555
C2_7 C1_9 1_555 1_555
C3_7 C2_7 1_555 1_555
H2_7 C3_7 1_555 1_555
C4_6 C3_7 1_555 1_555
H3_6 C4_6 1_555 1_555
C5_9 N1_9 1_555 1_555
C6_9 N2_9 1_555 1_555
C11_7 C2_7 1_555 1_555
H7_9 C14_9 1_555 1_555
H8_9 C14_9 1_555 1_555
H9_9 C14_9 1_555 1_555
O10_6 In1_6 1_555 1_555
C4_6 C5_9 1_555 1_555
C5_9 C6_9 1_555 1_555
In2_4 O5_8 1_555 1_555
O1_8 C11_8 1_555 1_555
O9_5 C11_8 1_555 1_555
O10_4 C12_10 1_555 1_555
O4_10 C12_10 1_555 1_555
O5_8 N3_8 1_555 1_555
O6_8 In2_4 1_555 1_555
O7_8 N3_8 1_555 1_555
O8_10 In2_4 1_555 1_555
N1_10 In2_4 1_555 1_555
N2_10 In2_4 1_555 1_555
N3_8 O6_8 1_555 1_555
N4_8 C13_8 1_555 1_555
C1_10 N1_10 1_555 1_555
H1_10 C1_10 1_555 1_555
C2_8 C1_10 1_555 1_555
C3_8 C2_8 1_555 1_555
H2_8 C3_8 1_555 1_555
C4_7 C3_8 1_555 1_555
H3_7 C4_7 1_555 1_555
C5_10 N1_10 1_555 1_555
C6_10 N2_10 1_555 1_555
C7_10 C6_10 1_555 1_555
H4_7 C7_10 1_555 1_555
C8_10 C7_10 1_555 1_555
H5_10 C8_10 1_555 1_555
C9_10 C8_10 1_555 1_555
C10_10 N2_10 1_555 1_555
H6_10 C10_10 1_555 1_555
C11_8 C2_8 1_555 1_555
C12_10 C9_10 1_555 1_555
C13_8 O8_10 1_555 1_555
C14_10 N4_8 1_555 1_555
H7_10 C14_10 1_555 1_555
H8_10 C14_10 1_555 1_555
H9_10 C14_10 1_555 1_555
C15_8 N4_8 1_555 1_555
H10_8 C15_8 1_555 1_555
H11_8 C15_8 1_555 1_555
H12_8 C15_8 1_555 1_555
C16_8 C13_8 1_555 1_555
H13_8 C16_8 1_555 1_555
H14_8 C16_8 1_555 1_555
H15_8 C16_8 1_555 1_555
O9_8 In2_4 1_555 1_555
C4_7 C5_10 1_555 1_555
C5_10 C6_10 1_555 1_555
C9_10 C10_10 1_555 1_555
O1_9 C11_9 1_555 1_555
O9_6 C11_9 1_555 1_555
O10_6 C12_11 1_555 1_555
O4_11 C12_11 1_555 1_555
O8_11 In2_6 1_555 1_555
N1_11 In2_6 1_555 1_555
N2_11 In2_6 1_555 1_555
C1_11 N1_11 1_555 1_555
H1_11 C1_11 1_555 1_555
C2_9 C1_11 1_555 1_555
C3_9 C2_9 1_555 1_555
H2_9 C3_9 1_555 1_555
C4_8 C3_9 1_555 1_555
H3_8 C4_8 1_555 1_555
C5_11 N1_11 1_555 1_555
C6_11 N2_11 1_555 1_555
C7_11 C6_11 1_555 1_555
H4_8 C7_11 1_555 1_555
C8_11 C7_11 1_555 1_555
H5_11 C8_11 1_555 1_555
C9_11 C8_11 1_555 1_555
C10_11 N2_11 1_555 1_555
H6_11 C10_11 1_555 1_555
C11_9 C2_9 1_555 1_555
C12_11 C9_11 1_555 1_555
H7_11 C14_11 1_555 1_555
H8_11 C14_11 1_555 1_555
H9_11 C14_11 1_555 1_555
C4_8 C5_11 1_555 1_555
C5_11 C6_11 1_555 1_555
C9_11 C10_11 1_555 1_555
O1_10 C11_10 1_555 1_555
O9_4 C11_10 1_555 1_555
O10_5 C12_12 1_555 1_555
O4_12 C12_12 1_555 1_555
O8_12 In2_5 1_555 1_555
N1_12 In2_5 1_555 1_555
N2_12 In2_5 1_555 1_555
C1_12 N1_12 1_555 1_555
H1_12 C1_12 1_555 1_555
C2_10 C1_12 1_555 1_555
C3_10 C2_10 1_555 1_555
H2_10 C3_10 1_555 1_555
C4_9 C3_10 1_555 1_555
H3_9 C4_9 1_555 1_555
C5_12 N1_12 1_555 1_555
C6_12 N2_12 1_555 1_555
C7_12 C6_12 1_555 1_555
H4_9 C7_12 1_555 1_555
C8_12 C7_12 1_555 1_555
H5_12 C8_12 1_555 1_555
C9_12 C8_12 1_555 1_555
C10_12 N2_12 1_555 1_555
H6_12 C10_12 1_555 1_555
C11_10 C2_10 1_555 1_555
C12_12 C9_12 1_555 1_555
H7_12 C14_12 1_555 1_555
H8_12 C14_12 1_555 1_555
H9_12 C14_12 1_555 1_555
C4_9 C5_12 1_555 1_555
C5_12 C6_12 1_555 1_555
C9_12 C10_12 1_555 1_555
O5_9 N3_9 1_555 1_555
O7_9 N3_9 1_555 1_555
N3_9 O6_9 1_555 1_555
N4_9 C13_9 1_555 1_555
C15_9 N4_9 1_555 1_555
H10_9 C15_9 1_555 1_555
H11_9 C15_9 1_555 1_555
H12_9 C15_9 1_555 1_555
C16_9 C13_9 1_555 1_555
H13_9 C16_9 1_555 1_555
H14_9 C16_9 1_555 1_555
H15_9 C16_9 1_555 1_555
In3 O5_10 1_555 1_555
O3_7 C12_13 1_555 1_555
O4_13 C12_13 1_555 1_555
O5_10 N3_10 1_555 1_555
O6_10 In3 1_555 1_555
O7_10 N3_10 1_555 1_555
O8_13 In3 1_555 1_555
N1_13 In3 1_555 1_555
N2_13 In3 1_555 1_555
N3_10 O6_10 1_555 1_555
N4_10 C13_10 1_555 1_555
C1_13 N1_13 1_555 1_555
H1_13 C1_13 1_555 1_555
C2_11 C1_13 1_555 1_555
C3_11 C2_11 1_555 1_555
H2_11 C3_11 1_555 1_555
C4_10 C3_11 1_555 1_555
H3_10 C4_10 1_555 1_555
C5_13 N1_13 1_555 1_555
C6_13 N2_13 1_555 1_555
C7_13 C6_13 1_555 1_555
H4_10 C7_13 1_555 1_555
C8_13 C7_13 1_555 1_555
H5_13 C8_13 1_555 1_555
C9_13 C8_13 1_555 1_555
C10_13 N2_13 1_555 1_555
H6_13 C10_13 1_555 1_555
C12_13 C9_13 1_555 1_555
C13_10 O8_13 1_555 1_555
C14_13 N4_10 1_555 1_555
H7_13 C14_13 1_555 1_555
H8_13 C14_13 1_555 1_555
H9_13 C14_13 1_555 1_555
C15_10 N4_10 1_555 1_555
H10_10 C15_10 1_555 1_555
H11_10 C15_10 1_555 1_555
H12_10 C15_10 1_555 1_555
C16_10 C13_10 1_555 1_555
H13_10 C16_10 1_555 1_555
H14_10 C16_10 1_555 1_555
H15_10 C16_10 1_555 1_555
In3_4 O3_7 1_555 1_555
O10_7 In3 1_555 1_555
C4_10 C5_13 1_555 1_555
C5_13 C6_13 1_555 1_555
C9_13 C10_13 1_555 1_555
In3_2 O5_11 1_555 1_555
O3_8 C12_14 1_555 1_555
O4_14 C12_14 1_555 1_555
O5_11 N3_11 1_555 1_555
O6_11 In3_2 1_555 1_555
O7_11 N3_11 1_555 1_555
O8_14 In3_2 1_555 1_555
N1_14 In3_2 1_555 1_555
N2_14 In3_2 1_555 1_555
N3_11 O6_11 1_555 1_555
N4_11 C13_11 1_555 1_555
C1_14 N1_14 1_555 1_555
H1_14 C1_14 1_555 1_555
C2_12 C1_14 1_555 1_555
C3_12 C2_12 1_555 1_555
H2_12 C3_12 1_555 1_555
C4_11 C3_12 1_555 1_555
H3_11 C4_11 1_555 1_555
C5_14 N1_14 1_555 1_555
C6_14 N2_14 1_555 1_555
C7_14 C6_14 1_555 1_555
H4_11 C7_14 1_555 1_555
C8_14 C7_14 1_555 1_555
H5_14 C8_14 1_555 1_555
C9_14 C8_14 1_555 1_555
C10_14 N2_14 1_555 1_555
H6_14 C10_14 1_555 1_555
C12_14 C9_14 1_555 1_555
C13_11 O8_14 1_555 1_555
C14_14 N4_11 1_555 1_555
H7_14 C14_14 1_555 1_555
H8_14 C14_14 1_555 1_555
H9_14 C14_14 1_555 1_555
C15_11 N4_11 1_555 1_555
H10_11 C15_11 1_555 1_555
H11_11 C15_11 1_555 1_555
H12_11 C15_11 1_555 1_555
C16_11 C13_11 1_555 1_555
H13_11 C16_11 1_555 1_555
H14_11 C16_11 1_555 1_555
H15_11 C16_11 1_555 1_555
In3_3 O3_8 1_555 1_555
O10_8 In3_2 1_555 1_555
C4_11 C5_14 1_555 1_555
C5_14 C6_14 1_555 1_555
C9_14 C10_14 1_555 1_555
O1_11 C11_11 1_555 1_555
O9_7 C11_11 1_555 1_555
O10_8 C12_15 1_555 1_555
O4_15 C12_15 1_555 1_555
In3_3 O5_12 1_555 1_555
O1_12 C11_12 1_555 1_555
O9_9 C11_12 1_555 1_555
O5_12 N3_12 1_555 1_555
O6_12 In3_3 1_555 1_555
O7_12 N3_12 1_555 1_555
O8_15 In3_3 1_555 1_555
N1_15 In3_3 1_555 1_555
N2_15 In3_3 1_555 1_555
N3_12 O6_12 1_555 1_555
N4_12 C13_12 1_555 1_555
C1_15 N1_15 1_555 1_555
H1_15 C1_15 1_555 1_555
C2_13 C1_15 1_555 1_555
C3_13 C2_13 1_555 1_555
H2_13 C3_13 1_555 1_555
C4_12 C3_13 1_555 1_555
H3_12 C4_12 1_555 1_555
C5_15 N1_15 1_555 1_555
C6_15 N2_15 1_555 1_555
C7_15 C6_15 1_555 1_555
H4_12 C7_15 1_555 1_555
C8_15 C7_15 1_555 1_555
H5_15 C8_15 1_555 1_555
C9_15 C8_15 1_555 1_555
C10_15 N2_15 1_555 1_555
H6_15 C10_15 1_555 1_555
C11_12 C2_13 1_555 1_555
C13_12 O8_15 1_555 1_555
C14_15 N4_12 1_555 1_555
H7_15 C14_15 1_555 1_555
H8_15 C14_15 1_555 1_555
H9_15 C14_15 1_555 1_555
C15_12 N4_12 1_555 1_555
H10_12 C15_12 1_555 1_555
H11_12 C15_12 1_555 1_555
H12_12 C15_12 1_555 1_555
C16_12 C13_12 1_555 1_555
H13_12 C16_12 1_555 1_555
H14_12 C16_12 1_555 1_555
H15_12 C16_12 1_555 1_555
C4_12 C5_15 1_555 1_555
C5_15 C6_15 1_555 1_555
C9_15 C10_15 1_555 1_555
O10_7 C12_16 1_555 1_555
O4_16 C12_16 1_555 1_555
In3_4 O5_13 1_555 1_555
O1_13 C11_13 1_555 1_555
O9_8 C11_13 1_555 1_555
O5_13 N3_13 1_555 1_555
O6_13 In3_4 1_555 1_555
O7_13 N3_13 1_555 1_555
O8_16 In3_4 1_555 1_555
N1_16 In3_4 1_555 1_555
N2_16 In3_4 1_555 1_555
N3_13 O6_13 1_555 1_555
N4_13 C13_13 1_555 1_555
C1_16 N1_16 1_555 1_555
H1_16 C1_16 1_555 1_555
C2_14 C1_16 1_555 1_555
C3_14 C2_14 1_555 1_555
H2_14 C3_14 1_555 1_555
C4_13 C3_14 1_555 1_555
H3_13 C4_13 1_555 1_555
C5_16 N1_16 1_555 1_555
C6_16 N2_16 1_555 1_555
C7_16 C6_16 1_555 1_555
H4_13 C7_16 1_555 1_555
C8_16 C7_16 1_555 1_555
H5_16 C8_16 1_555 1_555
C9_16 C8_16 1_555 1_555
C10_16 N2_16 1_555 1_555
H6_16 C10_16 1_555 1_555
C11_13 C2_14 1_555 1_555
C13_13 O8_16 1_555 1_555
C14_16 N4_13 1_555 1_555
H7_16 C14_16 1_555 1_555
H8_16 C14_16 1_555 1_555
H9_16 C14_16 1_555 1_555
C15_13 N4_13 1_555 1_555
H10_13 C15_13 1_555 1_555
H11_13 C15_13 1_555 1_555
H12_13 C15_13 1_555 1_555
C16_13 C13_13 1_555 1_555
H13_13 C16_13 1_555 1_555
H14_13 C16_13 1_555 1_555
H15_13 C16_13 1_555 1_555
C4_13 C5_16 1_555 1_555
C5_16 C6_16 1_555 1_555
C9_16 C10_16 1_555 1_555
O1_14 C11_14 1_555 1_555
O2_5 C11_14 1_555 1_555
C3_15 C2_15 1_555 1_555
H2_15 C3_15 1_555 1_555
C4_14 C3_15 1_555 1_555
H3_14 C4_14 1_555 1_555
C11_14 C2_15 1_555 1_555
In3_5 O2_5 1_555 1_555
O1_15 C11_15 1_555 1_555
O2_6 C11_15 1_555 1_555
C3_16 C2_16 1_555 1_555
H2_16 C3_16 1_555 1_555
C11_15 C2_16 1_555 1_555
In3_6 O2_6 1_555 1_555
O5_14 N3_14 1_555 1_555
O7_14 N3_14 1_555 1_555
N3_14 O6_14 1_555 1_555
N4_14 C13_14 1_555 1_555
C15_14 N4_14 1_555 1_555
H10_14 C15_14 1_555 1_555
H11_14 C15_14 1_555 1_555
H12_14 C15_14 1_555 1_555
C16_14 C13_14 1_555 1_555
H13_14 C16_14 1_555 1_555
H14_14 C16_14 1_555 1_555
H15_14 C16_14 1_555 1_555
In3_5 O5_15 1_555 1_555
O3_9 C12_17 1_555 1_555
O4_17 C12_17 1_555 1_555
O5_15 N3_15 1_555 1_555
O6_15 In3_5 1_555 1_555
O7_15 N3_15 1_555 1_555
O8_17 In3_5 1_555 1_555
N1_17 In3_5 1_555 1_555
N2_17 In3_5 1_555 1_555
N3_15 O6_15 1_555 1_555
N4_15 C13_15 1_555 1_555
C1_17 N1_17 1_555 1_555
H1_17 C1_17 1_555 1_555
C2_17 C1_17 1_555 1_555
C3_17 C2_17 1_555 1_555
H2_17 C3_17 1_555 1_555
C4_15 C3_17 1_555 1_555
H3_15 C4_15 1_555 1_555
C5_17 N1_17 1_555 1_555
C6_17 N2_17 1_555 1_555
C7_17 C6_17 1_555 1_555
H4_15 C7_17 1_555 1_555
C8_17 C7_17 1_555 1_555
H5_17 C8_17 1_555 1_555
C9_17 C8_17 1_555 1_555
C10_17 N2_17 1_555 1_555
H6_17 C10_17 1_555 1_555
C12_17 C9_17 1_555 1_555
C13_15 O8_17 1_555 1_555
C14_17 N4_15 1_555 1_555
H7_17 C14_17 1_555 1_555
H8_17 C14_17 1_555 1_555
H9_17 C14_17 1_555 1_555
C15_15 N4_15 1_555 1_555
H10_15 C15_15 1_555 1_555
H11_15 C15_15 1_555 1_555
H12_15 C15_15 1_555 1_555
C16_15 C13_15 1_555 1_555
H13_15 C16_15 1_555 1_555
H14_15 C16_15 1_555 1_555
H15_15 C16_15 1_555 1_555
In3_6 O3_9 1_555 1_555
O10_9 In3_5 1_555 1_555
C4_15 C5_17 1_555 1_555
C5_17 C6_17 1_555 1_555
C9_17 C10_17 1_555 1_555
O10_9 C12_18 1_555 1_555
O4_18 C12_18 1_555 1_555
In3_6 O5_16 1_555 1_555
O1_16 C11_16 1_555 1_555
O9_10 C11_16 1_555 1_555
O5_16 N3_16 1_555 1_555
O6_16 In3_6 1_555 1_555
O7_16 N3_16 1_555 1_555
O8_18 In3_6 1_555 1_555
N1_18 In3_6 1_555 1_555
N2_18 In3_6 1_555 1_555
N3_16 O6_16 1_555 1_555
N4_16 C13_16 1_555 1_555
C1_18 N1_18 1_555 1_555
H1_18 C1_18 1_555 1_555
C2_18 C1_18 1_555 1_555
C3_18 C2_18 1_555 1_555
H2_18 C3_18 1_555 1_555
C4_16 C3_18 1_555 1_555
H3_16 C4_16 1_555 1_555
C5_18 N1_18 1_555 1_555
C6_18 N2_18 1_555 1_555
C7_18 C6_18 1_555 1_555
H4_16 C7_18 1_555 1_555
C8_18 C7_18 1_555 1_555
H5_18 C8_18 1_555 1_555
C9_18 C8_18 1_555 1_555
C10_18 N2_18 1_555 1_555
H6_18 C10_18 1_555 1_555
C11_16 C2_18 1_555 1_555
C13_16 O8_18 1_555 1_555
C14_18 N4_16 1_555 1_555
H7_18 C14_18 1_555 1_555
H8_18 C14_18 1_555 1_555
H9_18 C14_18 1_555 1_555
C15_16 N4_16 1_555 1_555
H10_16 C15_16 1_555 1_555
H11_16 C15_16 1_555 1_555
H12_16 C15_16 1_555 1_555
C16_16 C13_16 1_555 1_555
H13_16 C16_16 1_555 1_555
H14_16 C16_16 1_555 1_555
H15_16 C16_16 1_555 1_555
C4_16 C5_18 1_555 1_555
C5_18 C6_18 1_555 1_555
C9_18 C10_18 1_555 1_555
H3_17 C4_17 1_555 1_555
H3_18 C4_18 1_555 1_555
O5_17 N3_17 1_555 1_555
O7_17 N3_17 1_555 1_555
N3_17 O6_17 1_555 1_555
N4_17 C13_17 1_555 1_555
C15_17 N4_17 1_555 1_555
H10_17 C15_17 1_555 1_555
H11_17 C15_17 1_555 1_555
C16_17 C13_17 1_555 1_555
H13_17 C16_17 1_555 1_555
H14_17 C16_17 1_555 1_555
O1_17 C11_17 1_555 1_555
O9_11 C11_17 1_555 1_555
O5_18 N3_18 1_555 1_555
O7_18 N3_18 1_555 1_555
N3_18 O6_18 1_555 1_555
N4_18 C13_18 1_555 1_555
C15_18 N4_18 1_555 1_555
H10_18 C15_18 1_555 1_555
H11_18 C15_18 1_555 1_555
C16_18 C13_18 1_555 1_555
H13_18 C16_18 1_555 1_555
H14_18 C16_18 1_555 1_555
O1_18 C11_18 1_555 1_555
O9_12 C11_18 1_555 1_555

#END
