
###############################################################################
#
# This file contains modified crystal structure data generated from the
# MOF subset of the Cambridge Structural Database (CSD) v543 
# hosted by the Cambridge Crystallographic Data Centre (CCDC).
#
# This work is licensed under the Creative Commons
# Attribution-NonCommercial-ShareAlike 4.0 International License.
# To view a copy of this license, visit
# http://creativecommons.org/licenses/by-nc-sa/4.0/
# or send a letter to
# Creative Commons, PO Box 1866, Mountain View, CA 94042, USA.
#
# CIF created using the CSD Python API on 29 September 2022
# The structure has been converted into the P1 space group
# The structure has a 3D framework
# The original CSD entry COTVOZ is in the monoclinic crystal system
# The framework has been calculated to contain at least 10.0% void space
# The void calculation uses a probe of radius 1.32A, grid spacing 0.4
#
###############################################################################

data_COTVOZ
_chemical_formula_moiety         '(C296 H296 Mn12 N8 O30)n'
_symmetry_cell_setting           triclinic
_symmetry_space_group_name_H-M   'P 1'
_symmetry_Int_Tables_number      1
_space_group_name_Hall           'P 1'
loop_
_symmetry_equiv_pos_site_id
_symmetry_equiv_pos_as_xyz
1 x,y,z
_cell_length_a                   20.415(3)
_cell_length_b                   38.697(7)
_cell_length_c                   14.284(2)
_cell_angle_alpha                90
_cell_angle_beta                 125.167(4)
_cell_angle_gamma                90
_cell_volume                     9224.69
loop_
_atom_site_label
_atom_site_type_symbol
_atom_site_fract_x
_atom_site_fract_y
_atom_site_fract_z
Mn4 Mn 0.0000 0.5000 0.5000
Mn8 Mn 0.0000 0.46727(2) 0.7500
Mn1 Mn 0.5000 -0.0000 0.5000
C35 C 0.6776(6) 0.0034(3) 0.6995(8)
H31 H 0.6659 0.0263 0.7093
C37 C 0.8100(8) 0.0279(4) 0.8205(16)
H35 H 0.8280 0.0313 0.9000
H36 H 0.7833 0.0490 0.7765
H37 H 0.8563 0.0229 0.8187
O10 O 0.3753(2) 0.00810(10) 0.3635(3)
N2 N 0.2466(4) 0.0012(2) 0.2299(5)
C73 C 0.2076(11) 0.0323(3) 0.1959(17)
H69 H 0.2463 0.0508 0.2153
H70 H 0.1670 0.0321 0.1129
H71 H 0.1817 0.0364 0.2351
Mn3 Mn 0.5000 -0.0000 0.0000
O11 O 0.46792(17) 0.01045(6) 0.6228(2)
O12 O 0.53208(17) 0.01045(6) 0.8772(2)
O16 O 0.52953(19) 0.05569(6) 0.5108(3)
Mn3_2 Mn 0.5000 -0.0000 1.0000
Mn1_2 Mn 0.5000 1.0000 0.5000
Mn2 Mn 0.5000 0.96727(2) 0.7500
C1 C 0.6727(2) 0.69104(8) 0.4684(4)
C2 C 0.7089(2) 0.65840(9) 0.5021(4)
C3 C 0.7199(2) 0.63996(8) 0.4281(4)
C4 C 0.6956(2) 0.65293(8) 0.3224(4)
C5 C 0.6619(2) 0.68621(8) 0.2906(4)
C6 C 0.6538(2) 0.70548(8) 0.3659(4)
C7 C 0.7381(3) 0.64395(11) 0.6182(4)
H1 H 0.7664 0.6221 0.6305
H2 H 0.6922 0.6398 0.6218
H3 H 0.7746 0.6605 0.6778
C8 C 0.7642(3) 0.60565(8) 0.4681(4)
C9 C 0.7277(3) 0.57577(10) 0.4679(5)
H4 H 0.6725 0.5760 0.4388
C10 C 0.7713(3) 0.54519(10) 0.5103(5)
H5 H 0.7456 0.5246 0.5096
C11 C 0.8502(2) 0.54443(8) 0.5526(3)
C12 C 0.8869(3) 0.57409(9) 0.5506(4)
H6 H 0.9417 0.5737 0.5779
C13 C 0.8431(3) 0.60445(9) 0.5085(4)
H7 H 0.8687 0.6249 0.5078
C14 C 0.8982(3) 0.51185(8) 0.6039(3)
O1 O 0.96792(17) 0.51045(6) 0.6228(2)
O2 O 0.87458(18) 0.48860(6) 0.6345(3)
C15 C 0.7086(3) 0.63188(10) 0.2444(4)
H8 H 0.7394 0.6456 0.2246
H9 H 0.6566 0.6258 0.1744
H10 H 0.7382 0.6107 0.2841
C16 C 0.6311(3) 0.74349(8) 0.3430(4)
H11 H 0.5726 0.7457 0.2971
H12 H 0.6512 0.7536 0.3012
H13 H 0.6548 0.7556 0.4159
C17 C 0.3565(2) 0.70148(9) 0.3206(4)
H14 H 0.3589 0.6822 0.3682
H15 H 0.3108 0.7164 0.3013
C18 C 0.4331(2) 0.72267(8) 0.3937(4)
C19 C 0.4280(2) 0.75731(8) 0.4201(4)
C20 C 0.4989(2) 0.77689(8) 0.4815(4)
C21 C 0.5724(2) 0.76279(9) 0.5181(4)
C22 C 0.5778(2) 0.72765(8) 0.4972(4)
C23 C 0.5080(2) 0.70793(8) 0.4356(4)
C24 C 0.3513(3) 0.77314(10) 0.3884(5)
H16 H 0.3208 0.7810 0.3086
H17 H 0.3627 0.7929 0.4385
H18 H 0.3199 0.7560 0.3971
C25 C 0.4937(2) 0.81463(9) 0.5021(4)
C26 C 0.5203(3) 0.82622(10) 0.6099(4)
H19 H 0.5399 0.8102 0.6709
C27 C 0.5185(3) 0.86135(10) 0.6291(4)
H20 H 0.5363 0.8691 0.7033
C28 C 0.4915(2) 0.88483(8) 0.5426(4)
C29 C 0.4639(3) 0.87333(9) 0.4352(4)
H21 H 0.4438 0.8894 0.3742
C30 C 0.4651(3) 0.83855(9) 0.4148(4)
H22 H 0.4461 0.8310 0.3399
C31 C 0.4937(3) 0.92306(10) 0.5679(4)
O3 O 0.47047(19) 0.94431(6) 0.4892(3)
O4 O 0.5219(2) 0.93027(8) 0.6703(3)
C32 C 0.6470(3) 0.78553(10) 0.5856(4)
H23 H 0.6312 0.8099 0.5692
H24 H 0.6830 0.7801 0.5631
H25 H 0.6745 0.7812 0.6677
C33 C 0.5124(3) 0.66995(8) 0.4156(4)
H26 H 0.5105 0.6670 0.3459
H27 H 0.4669 0.6579 0.4068
H28 H 0.5626 0.6603 0.4811
C34 C 0.6593(2) 0.71072(9) 0.5477(4)
H29 H 0.7006 0.7290 0.5854
H30 H 0.6693 0.6946 0.6084
O5 O 0.6247(2) 0.99190(10) 0.6365(3)
N1 N 0.7534(4) 0.9988(2) 0.7701(5)
C36 C 0.7924(11) 0.9677(3) 0.8041(17)
H32 H 0.7537 0.9492 0.7847
H33 H 0.8330 0.9679 0.8871
H34 H 0.8183 0.9636 0.7649
C38 C 0.3273(2) 0.69104(8) 0.0316(4)
C40 C 0.2801(2) 0.63996(8) 0.0719(4)
C41 C 0.3044(2) 0.65293(8) 0.1776(4)
C42 C 0.3381(2) 0.68621(8) 0.2094(4)
C43 C 0.3462(2) 0.70548(8) 0.1341(4)
C45 C 0.2358(3) 0.60565(8) 0.0319(4)
C46 C 0.2723(3) 0.57577(10) 0.0321(5)
H41 H 0.3275 0.5760 0.0612
C52 C 0.2914(3) 0.63188(10) 0.2556(4)
H45 H 0.2606 0.6456 0.2754
H46 H 0.3434 0.6258 0.3256
H47 H 0.2618 0.6107 0.2159
C53 C 0.3689(3) 0.74349(8) 0.1570(4)
H48 H 0.4274 0.7457 0.2029
H49 H 0.3488 0.7536 0.1988
H50 H 0.3452 0.7556 0.0841
C54 C 0.6435(2) 0.70148(9) 0.1794(4)
H51 H 0.6411 0.6822 0.1318
H52 H 0.6892 0.7164 0.1987
C55 C 0.5669(2) 0.72267(8) 0.1063(4)
C56 C 0.5720(2) 0.75731(8) 0.0799(4)
C57 C 0.5011(2) 0.77689(8) 0.0185(4)
C59 C 0.4222(2) 0.72765(8) 0.0028(4)
C60 C 0.4920(2) 0.70793(8) 0.0644(4)
C61 C 0.6487(3) 0.77314(10) 0.1116(5)
H53 H 0.6792 0.7810 0.1914
H54 H 0.6373 0.7929 0.0615
H55 H 0.6801 0.7560 0.1029
C66 C 0.5361(3) 0.87333(9) 0.0648(4)
H58 H 0.5562 0.8894 0.1258
C67 C 0.5349(3) 0.83855(9) 0.0852(4)
H59 H 0.5539 0.8310 0.1601
O8 O 0.52953(19) 0.94431(6) 0.0108(3)
C70 C 0.4876(3) 0.66995(8) 0.0844(4)
H63 H 0.4895 0.6670 0.1541
H64 H 0.5331 0.6579 0.0932
H65 H 0.4374 0.6603 0.0189
C72 C 0.3224(6) 0.9966(3) 0.3005(8)
H68 H 0.3341 0.9737 0.2907
C74 C 0.1900(8) 0.9721(4) 0.1795(16)
H72 H 0.1720 0.9687 0.1000
H73 H 0.2167 0.9510 0.2235
H74 H 0.1437 0.9771 0.1813
Mn3_3 Mn 0.5000 1.0000 0.0000
Mn4_2 Mn 1.0000 0.5000 0.5000
Mn5 Mn 0.0000 0.5000 0.0000
Mn8_2 Mn 1.0000 0.46727(2) 0.7500
O13 O 0.53208(17) 0.98955(6) 0.3772(2)
O14 O 0.37458(18) 0.98860(6) 0.6345(3)
O15 O 0.62542(18) 0.98860(6) 0.8655(3)
O17 O 0.4781(2) 0.93027(8) 0.8297(3)
C39 C 0.2911(2) 0.65840(9) 0.9979(4)
C44 C 0.2619(3) 0.64395(11) 0.8818(4)
H38 H 0.2336 0.6221 0.8695
H39 H 0.3078 0.6398 0.8782
H40 H 0.2254 0.6605 0.8222
C47 C 0.2287(3) 0.54519(10) 0.9897(5)
H42 H 0.2544 0.5246 0.9904
C48 C 0.1498(2) 0.54443(8) 0.9474(3)
C49 C 0.1131(3) 0.57409(9) 0.9494(4)
H43 H 0.0583 0.5737 0.9221
C50 C 0.1569(3) 0.60445(9) 0.9915(4)
H44 H 0.1313 0.6249 0.9922
C51 C 0.1018(3) 0.51185(8) 0.8961(3)
O6 O 0.03208(17) 0.51045(6) 0.8772(2)
O7 O 0.12542(18) 0.48860(6) 0.8655(3)
C58 C 0.4276(2) 0.76279(9) 0.9819(4)
C62 C 0.5063(2) 0.81463(9) 0.9979(4)
C63 C 0.4797(3) 0.82622(10) 0.8901(4)
H56 H 0.4601 0.8102 0.8291
C64 C 0.4815(3) 0.86135(10) 0.8709(4)
H57 H 0.4637 0.8691 0.7967
C65 C 0.5085(2) 0.88483(8) 0.9574(4)
C68 C 0.5063(3) 0.92306(10) 0.9321(4)
C69 C 0.3530(3) 0.78553(10) 0.9144(4)
H60 H 0.3688 0.8099 0.9308
H61 H 0.3170 0.7801 0.9369
H62 H 0.3255 0.7812 0.8323
C71 C 0.3407(2) 0.71072(9) 0.9523(4)
H66 H 0.2994 0.7290 0.9146
H67 H 0.3307 0.6946 0.8916
Mn3_4 Mn 0.5000 1.0000 1.0000
Mn5_2 Mn 0.0000 0.5000 1.0000
Mn5_3 Mn 1.0000 0.5000 0.0000
Mn5_4 Mn 1.0000 0.5000 1.0000
O10_2 O 0.6247(2) 0.00810(10) 0.1365(3)
N2_2 N 0.7534(4) 0.0012(2) 0.2701(5)
C73_2 C 0.7924(11) 0.0323(3) 0.3041(17)
H69_2 H 0.7537 0.0508 0.2847
H70_2 H 0.8330 0.0321 0.3871
H71_2 H 0.8183 0.0364 0.2649
C35_2 C 0.3224(6) 0.0034(3) 0.8005(8)
H31_2 H 0.3341 0.0263 0.7907
C37_2 C 0.1900(8) 0.0279(4) 0.6795(16)
H35_2 H 0.1720 0.0313 0.6000
H36_2 H 0.2167 0.0490 0.7235
H37_2 H 0.1437 0.0229 0.6813
O16_2 O 0.47047(19) 0.05569(6) 0.9892(3)
C72_2 C 0.6776(6) 0.9966(3) 0.1995(8)
H68_2 H 0.6659 0.9737 0.2093
C74_2 C 0.8100(8) 0.9721(4) 0.3205(16)
H72_2 H 0.8280 0.9687 0.4000
H73_2 H 0.7833 0.9510 0.2765
H74_2 H 0.8563 0.9771 0.3187
O13_2 O 0.46792(17) 0.98955(6) 0.1228(2)
O5_2 O 0.3753(2) 0.99190(10) 0.8635(3)
N1_2 N 0.2466(4) 0.9988(2) 0.7299(5)
C36_2 C 0.2076(11) 0.9677(3) 0.6959(17)
H32_2 H 0.2463 0.9492 0.7153
H33_2 H 0.1670 0.9679 0.6129
H34_2 H 0.1817 0.9636 0.7351
C1_2 C 0.1727(2) 0.19104(8) 0.4684(4)
C2_2 C 0.2089(2) 0.15840(9) 0.5021(4)
C3_2 C 0.2199(2) 0.13996(8) 0.4281(4)
C4_2 C 0.1956(2) 0.15293(8) 0.3224(4)
C5_2 C 0.1619(2) 0.18621(8) 0.2906(4)
C6_2 C 0.1538(2) 0.20548(8) 0.3659(4)
C7_2 C 0.2381(3) 0.14395(11) 0.6182(4)
H1_2 H 0.2664 0.1221 0.6305
H2_2 H 0.1922 0.1398 0.6218
H3_2 H 0.2746 0.1605 0.6778
C8_2 C 0.2642(3) 0.10565(8) 0.4681(4)
C9_2 C 0.2277(3) 0.07577(10) 0.4679(5)
H4_2 H 0.1725 0.0760 0.4388
C10_2 C 0.2713(3) 0.04519(10) 0.5103(5)
H5_2 H 0.2456 0.0246 0.5096
C11_2 C 0.3502(2) 0.04443(8) 0.5526(3)
C12_2 C 0.3869(3) 0.07409(9) 0.5506(4)
H6_2 H 0.4417 0.0737 0.5779
C13_2 C 0.3431(3) 0.10445(9) 0.5085(4)
H7_2 H 0.3687 0.1249 0.5078
C14_2 C 0.3982(3) 0.01185(8) 0.6039(3)
C15_2 C 0.2086(3) 0.13188(10) 0.2444(4)
H8_2 H 0.2394 0.1456 0.2246
H9_2 H 0.1566 0.1258 0.1744
H10_2 H 0.2382 0.1107 0.2841
C16_2 C 0.1311(3) 0.24349(8) 0.3430(4)
H11_2 H 0.0726 0.2457 0.2971
H12_2 H 0.1512 0.2536 0.3012
H13_2 H 0.1548 0.2556 0.4159
C21_2 C 0.0724(2) 0.26279(9) 0.5181(4)
C22_2 C 0.0778(2) 0.22765(8) 0.4972(4)
C23_2 C 0.0080(2) 0.20793(8) 0.4356(4)
C26_2 C 0.0203(3) 0.32622(10) 0.6099(4)
H19_2 H 0.0399 0.3102 0.6709
C27_2 C 0.0185(3) 0.36135(10) 0.6291(4)
H20_2 H 0.0363 0.3691 0.7033
O4_2 O 0.0219(2) 0.43027(8) 0.6703(3)
C32_2 C 0.1470(3) 0.28553(10) 0.5856(4)
H23_2 H 0.1312 0.3099 0.5692
H24_2 H 0.1830 0.2801 0.5631
H25_2 H 0.1745 0.2812 0.6677
C33_2 C 0.0124(3) 0.16995(8) 0.4156(4)
H26_2 H 0.0105 0.1670 0.3459
H28_2 H 0.0626 0.1603 0.4811
C34_2 C 0.1593(2) 0.21072(9) 0.5477(4)
H29_2 H 0.2006 0.2290 0.5854
H30_2 H 0.1693 0.1946 0.6084
O5_3 O 0.1247(2) 0.49190(10) 0.6365(3)
C35_3 C 0.1776(6) 0.5034(3) 0.6995(8)
H31_3 H 0.1659 0.5263 0.7093
N1_3 N 0.2534(4) 0.4988(2) 0.7701(5)
C36_3 C 0.2924(11) 0.4677(3) 0.8041(17)
H32_3 H 0.2537 0.4492 0.7847
H33_3 H 0.3330 0.4679 0.8871
H34_3 H 0.3183 0.4636 0.7649
C37_3 C 0.3100(8) 0.5279(4) 0.8205(16)
H35_3 H 0.3280 0.5313 0.9000
H36_3 H 0.2833 0.5490 0.7765
H37_3 H 0.3563 0.5229 0.8187
C54_2 C 0.1435(2) 0.20148(9) 0.1794(4)
H51_2 H 0.1411 0.1822 0.1318
H52_2 H 0.1892 0.2164 0.1987
C55_2 C 0.0669(2) 0.22267(8) 0.1063(4)
C56_2 C 0.0720(2) 0.25731(8) 0.0799(4)
C57_2 C 0.0011(2) 0.27689(8) 0.0185(4)
C61_2 C 0.1487(3) 0.27314(10) 0.1116(5)
H53_2 H 0.1792 0.2810 0.1914
H54_2 H 0.1373 0.2929 0.0615
H55_2 H 0.1801 0.2560 0.1029
C66_2 C 0.0361(3) 0.37333(9) 0.0648(4)
H58_2 H 0.0562 0.3894 0.1258
C67_2 C 0.0349(3) 0.33855(9) 0.0852(4)
H59_2 H 0.0539 0.3310 0.1601
O8_2 O 0.02953(19) 0.44431(6) 0.0108(3)
H64_2 H 0.0331 0.1579 0.0932
O13_3 O 0.03208(17) 0.48955(6) 0.3772(2)
O16_3 O 0.02953(19) 0.55569(6) 0.5108(3)
C62_2 C 0.0063(2) 0.31463(9) 0.9979(4)
C65_2 C 0.0085(2) 0.38483(8) 0.9574(4)
C68_2 C 0.0063(3) 0.42306(10) 0.9321(4)
C17_2 C 0.8565(2) 0.20148(9) 0.3206(4)
H14_2 H 0.8589 0.1822 0.3682
H15_2 H 0.8108 0.2164 0.3013
C18_2 C 0.9331(2) 0.22267(8) 0.3937(4)
C19_2 C 0.9280(2) 0.25731(8) 0.4201(4)
C20_2 C 0.9989(2) 0.27689(8) 0.4815(4)
C24_2 C 0.8513(3) 0.27314(10) 0.3884(5)
H16_2 H 0.8208 0.2810 0.3086
H17_2 H 0.8627 0.2929 0.4385
H18_2 H 0.8199 0.2560 0.3971
C25_2 C 0.9937(2) 0.31463(9) 0.5021(4)
C28_2 C 0.9915(2) 0.38483(8) 0.5426(4)
C29_2 C 0.9639(3) 0.37333(9) 0.4352(4)
H21_2 H 0.9438 0.3894 0.3742
C30_2 C 0.9651(3) 0.33855(9) 0.4148(4)
H22_2 H 0.9461 0.3310 0.3399
C31_2 C 0.9937(3) 0.42306(10) 0.5679(4)
O3_2 O 0.97047(19) 0.44431(6) 0.4892(3)
H27_2 H 0.9669 0.1579 0.4068
C38_2 C 0.8273(2) 0.19104(8) 0.0316(4)
C40_2 C 0.7801(2) 0.13996(8) 0.0719(4)
C41_2 C 0.8044(2) 0.15293(8) 0.1776(4)
C42_2 C 0.8381(2) 0.18621(8) 0.2094(4)
C43_2 C 0.8462(2) 0.20548(8) 0.1341(4)
C45_2 C 0.7358(3) 0.10565(8) 0.0319(4)
C46_2 C 0.7723(3) 0.07577(10) 0.0321(5)
H41_2 H 0.8275 0.0760 0.0612
C52_2 C 0.7914(3) 0.13188(10) 0.2556(4)
H45_2 H 0.7606 0.1456 0.2754
H46_2 H 0.8434 0.1258 0.3256
H47_2 H 0.7618 0.1107 0.2159
C53_2 C 0.8689(3) 0.24349(8) 0.1570(4)
H48_2 H 0.9274 0.2457 0.2029
H49_2 H 0.8488 0.2536 0.1988
H50_2 H 0.8452 0.2556 0.0841
C59_2 C 0.9222(2) 0.22765(8) 0.0028(4)
C60_2 C 0.9920(2) 0.20793(8) 0.0644(4)
C70_2 C 0.9876(3) 0.16995(8) 0.0844(4)
H63_2 H 0.9895 0.1670 0.1541
H65_2 H 0.9374 0.1603 0.0189
O10_3 O 0.8753(2) 0.50810(10) 0.3635(3)
C72_3 C 0.8224(6) 0.4966(3) 0.3005(8)
H68_3 H 0.8341 0.4737 0.2907
N2_3 N 0.7466(4) 0.5012(2) 0.2299(5)
C73_3 C 0.7076(11) 0.5323(3) 0.1959(17)
H69_3 H 0.7463 0.5508 0.2153
H70_3 H 0.6670 0.5321 0.1129
H71_3 H 0.6817 0.5364 0.2351
C74_3 C 0.6900(8) 0.4721(4) 0.1795(16)
H72_3 H 0.6720 0.4687 0.1000
H73_3 H 0.7167 0.4510 0.2235
H74_3 H 0.6437 0.4771 0.1813
O17_2 O 0.9781(2) 0.43027(8) 0.8297(3)
C39_2 C 0.7911(2) 0.15840(9) 0.9979(4)
C44_2 C 0.7619(3) 0.14395(11) 0.8818(4)
H38_2 H 0.7336 0.1221 0.8695
H39_2 H 0.8078 0.1398 0.8782
H40_2 H 0.7254 0.1605 0.8222
C47_2 C 0.7287(3) 0.04519(10) 0.9897(5)
H42_2 H 0.7544 0.0246 0.9904
C48_2 C 0.6498(2) 0.04443(8) 0.9474(3)
C49_2 C 0.6131(3) 0.07409(9) 0.9494(4)
H43_2 H 0.5583 0.0737 0.9221
C50_2 C 0.6569(3) 0.10445(9) 0.9915(4)
H44_2 H 0.6313 0.1249 0.9922
C51_2 C 0.6018(3) 0.01185(8) 0.8961(3)
C58_2 C 0.9276(2) 0.26279(9) 0.9819(4)
C63_2 C 0.9797(3) 0.32622(10) 0.8901(4)
H56_2 H 0.9601 0.3102 0.8291
C64_2 C 0.9815(3) 0.36135(10) 0.8709(4)
H57_2 H 0.9637 0.3691 0.7967
C69_2 C 0.8530(3) 0.28553(10) 0.9144(4)
H60_2 H 0.8688 0.3099 0.9308
H61_2 H 0.8170 0.2801 0.9369
H62_2 H 0.8255 0.2812 0.8323
C71_2 C 0.8407(2) 0.21072(9) 0.9523(4)
H66_2 H 0.7994 0.2290 0.9146
H67_2 H 0.8307 0.1946 0.8916
O10_4 O 0.1247(2) 0.50810(10) 0.1365(3)
C72_4 C 0.1776(6) 0.4966(3) 0.1995(8)
H68_4 H 0.1659 0.4737 0.2093
N2_4 N 0.2534(4) 0.5012(2) 0.2701(5)
C73_4 C 0.2924(11) 0.5323(3) 0.3041(17)
H69_4 H 0.2537 0.5508 0.2847
H70_4 H 0.3330 0.5321 0.3871
H71_4 H 0.3183 0.5364 0.2649
C74_4 C 0.3100(8) 0.4721(4) 0.3205(16)
H72_4 H 0.3280 0.4687 0.4000
H73_4 H 0.2833 0.4510 0.2765
H74_4 H 0.3563 0.4771 0.3187
O13_4 O 0.96792(17) 0.48955(6) 0.1228(2)
O5_4 O 0.8753(2) 0.49190(10) 0.8635(3)
C35_4 C 0.8224(6) 0.5034(3) 0.8005(8)
H31_4 H 0.8341 0.5263 0.7907
N1_4 N 0.7466(4) 0.4988(2) 0.7299(5)
C36_4 C 0.7076(11) 0.4677(3) 0.6959(17)
H32_4 H 0.7463 0.4492 0.7153
H33_4 H 0.6670 0.4679 0.6129
H34_4 H 0.6817 0.4636 0.7351
C37_4 C 0.6900(8) 0.5279(4) 0.6795(16)
H35_4 H 0.6720 0.5313 0.6000
H36_4 H 0.7167 0.5490 0.7235
H37_4 H 0.6437 0.5229 0.6813
O16_4 O 0.97047(19) 0.55569(6) 0.9892(3)
Mn7 Mn 0.0000 0.53273(2) 0.2500
C39_3 C 0.7089(2) 0.34160(9) 0.0021(4)
C44_3 C 0.7381(3) 0.35605(11) 0.1182(4)
H38_3 H 0.7664 0.3779 0.1305
H39_3 H 0.6922 0.3602 0.1218
H40_3 H 0.7746 0.3395 0.1778
C47_3 C 0.7713(3) 0.45481(10) 0.0103(5)
H42_3 H 0.7456 0.4754 0.0096
C48_3 C 0.8502(2) 0.45557(8) 0.0526(3)
C49_3 C 0.8869(3) 0.42591(9) 0.0506(4)
H43_3 H 0.9417 0.4263 0.0779
C50_3 C 0.8431(3) 0.39555(9) 0.0085(4)
H44_3 H 0.8687 0.3751 0.0078
C51_3 C 0.8982(3) 0.48815(8) 0.1039(3)
O7_2 O 0.87458(18) 0.51140(6) 0.1345(3)
C58_3 C 0.5724(2) 0.23721(9) 0.0181(4)
C62_3 C 0.4937(2) 0.18537(9) 0.0021(4)
C63_3 C 0.5203(3) 0.17378(10) 0.1099(4)
H56_3 H 0.5399 0.1898 0.1709
C64_3 C 0.5185(3) 0.13865(10) 0.1291(4)
H57_3 H 0.5363 0.1309 0.2033
C65_3 C 0.4915(2) 0.11517(8) 0.0426(4)
C68_3 C 0.4937(3) 0.07694(10) 0.0679(4)
O9 O 0.5219(2) 0.06973(8) 0.1703(3)
C69_3 C 0.6470(3) 0.21447(10) 0.0856(4)
H60_3 H 0.6312 0.1901 0.0692
H61_3 H 0.6830 0.2199 0.0631
H62_3 H 0.6745 0.2188 0.1677
C71_3 C 0.6593(2) 0.28928(9) 0.0477(4)
H66_3 H 0.7006 0.2710 0.0854
H67_3 H 0.6693 0.3054 0.1084
Mn6 Mn 0.5000 0.03273(2) 0.2500
Mn7_2 Mn 1.0000 0.53273(2) 0.2500
C1_3 C 0.3273(2) 0.30896(8) 0.5316(4)
C2_3 C 0.2911(2) 0.34160(9) 0.4979(4)
C3_3 C 0.2801(2) 0.36004(8) 0.5719(4)
C4_3 C 0.3044(2) 0.34707(8) 0.6776(4)
C5_3 C 0.3381(2) 0.31379(8) 0.7094(4)
C6_3 C 0.3462(2) 0.29452(8) 0.6341(4)
C7_3 C 0.2619(3) 0.35605(11) 0.3818(4)
H1_3 H 0.2336 0.3779 0.3695
H2_3 H 0.3078 0.3602 0.3782
H3_3 H 0.2254 0.3395 0.3222
C8_3 C 0.2358(3) 0.39435(8) 0.5319(4)
C9_3 C 0.2723(3) 0.42423(10) 0.5321(5)
H4_3 H 0.3275 0.4240 0.5612
C10_3 C 0.2287(3) 0.45481(10) 0.4897(5)
H5_3 H 0.2544 0.4754 0.4904
C11_3 C 0.1498(2) 0.45557(8) 0.4474(3)
C12_3 C 0.1131(3) 0.42591(9) 0.4494(4)
H6_3 H 0.0583 0.4263 0.4221
C13_3 C 0.1569(3) 0.39555(9) 0.4915(4)
H7_3 H 0.1313 0.3751 0.4922
C14_3 C 0.1018(3) 0.48815(8) 0.3961(3)
O2_2 O 0.12542(18) 0.51140(6) 0.3655(3)
C15_3 C 0.2914(3) 0.36812(10) 0.7556(4)
H8_3 H 0.2606 0.3544 0.7754
H9_3 H 0.3434 0.3742 0.8256
H10_3 H 0.2618 0.3893 0.7159
C16_3 C 0.3689(3) 0.25651(8) 0.6570(4)
H11_3 H 0.4274 0.2543 0.7029
H12_3 H 0.3488 0.2464 0.6988
H13_3 H 0.3452 0.2444 0.5841
C17_3 C 0.6435(2) 0.29852(9) 0.6794(4)
H14_3 H 0.6411 0.3178 0.6318
H15_3 H 0.6892 0.2836 0.6987
C18_3 C 0.5669(2) 0.27733(8) 0.6063(4)
C19_3 C 0.5720(2) 0.24269(8) 0.5799(4)
C20_3 C 0.5011(2) 0.22311(8) 0.5185(4)
C21_3 C 0.4276(2) 0.23721(9) 0.4819(4)
C22_3 C 0.4222(2) 0.27235(8) 0.5028(4)
C23_3 C 0.4920(2) 0.29207(8) 0.5644(4)
C24_3 C 0.6487(3) 0.22686(10) 0.6116(5)
H16_3 H 0.6792 0.2190 0.6914
H17_3 H 0.6373 0.2071 0.5615
H18_3 H 0.6801 0.2440 0.6029
C25_3 C 0.5063(2) 0.18537(9) 0.4979(4)
C26_3 C 0.4797(3) 0.17378(10) 0.3901(4)
H19_3 H 0.4601 0.1898 0.3291
C27_3 C 0.4815(3) 0.13865(10) 0.3709(4)
H20_3 H 0.4637 0.1309 0.2967
C28_3 C 0.5085(2) 0.11517(8) 0.4574(4)
C29_3 C 0.5361(3) 0.12667(9) 0.5648(4)
H21_3 H 0.5562 0.1106 0.6258
C30_3 C 0.5349(3) 0.16145(9) 0.5852(4)
H22_3 H 0.5539 0.1690 0.6601
C31_3 C 0.5063(3) 0.07694(10) 0.4321(4)
O4_3 O 0.4781(2) 0.06973(8) 0.3297(3)
C32_3 C 0.3530(3) 0.21447(10) 0.4144(4)
H23_3 H 0.3688 0.1901 0.4308
H24_3 H 0.3170 0.2199 0.4369
H25_3 H 0.3255 0.2188 0.3323
C33_3 C 0.4876(3) 0.33005(8) 0.5844(4)
H26_3 H 0.4895 0.3330 0.6541
H27_3 H 0.5331 0.3421 0.5932
H28_3 H 0.4374 0.3397 0.5189
C34_3 C 0.3407(2) 0.28928(9) 0.4523(4)
H29_3 H 0.2994 0.2710 0.4146
H30_3 H 0.3307 0.3054 0.3916
C38_3 C 0.6727(2) 0.30896(8) 0.9684(4)
C40_3 C 0.7199(2) 0.36004(8) 0.9281(4)
C41_3 C 0.6956(2) 0.34707(8) 0.8224(4)
C42_3 C 0.6619(2) 0.31379(8) 0.7906(4)
C43_3 C 0.6538(2) 0.29452(8) 0.8659(4)
C45_3 C 0.7642(3) 0.39435(8) 0.9681(4)
C46_3 C 0.7277(3) 0.42423(10) 0.9679(5)
H41_3 H 0.6725 0.4240 0.9388
C52_3 C 0.7086(3) 0.36812(10) 0.7444(4)
H45_3 H 0.7394 0.3544 0.7246
H46_3 H 0.6566 0.3742 0.6744
H47_3 H 0.7382 0.3893 0.7841
C53_3 C 0.6311(3) 0.25651(8) 0.8430(4)
H48_3 H 0.5726 0.2543 0.7971
H49_3 H 0.6512 0.2464 0.8012
H50_3 H 0.6548 0.2444 0.9159
C54_3 C 0.3565(2) 0.29852(9) 0.8206(4)
H51_3 H 0.3589 0.3178 0.8682
H52_3 H 0.3108 0.2836 0.8013
C55_3 C 0.4331(2) 0.27733(8) 0.8937(4)
C56_3 C 0.4280(2) 0.24269(8) 0.9201(4)
C57_3 C 0.4989(2) 0.22311(8) 0.9815(4)
C59_3 C 0.5778(2) 0.27235(8) 0.9972(4)
C60_3 C 0.5080(2) 0.29207(8) 0.9356(4)
C61_3 C 0.3513(3) 0.22686(10) 0.8884(5)
H53_3 H 0.3208 0.2190 0.8086
H54_3 H 0.3627 0.2071 0.9385
H55_3 H 0.3199 0.2440 0.8971
C66_3 C 0.4639(3) 0.12667(9) 0.9352(4)
H58_3 H 0.4438 0.1106 0.8742
C67_3 C 0.4651(3) 0.16145(9) 0.9148(4)
H59_3 H 0.4461 0.1690 0.8399
C70_3 C 0.5124(3) 0.33005(8) 0.9156(4)
H63_3 H 0.5105 0.3330 0.8459
H64_3 H 0.4669 0.3421 0.9068
H65_3 H 0.5626 0.3397 0.9811
O14_2 O 0.62542(18) 0.01140(6) 0.3655(3)
O15_2 O 0.37458(18) 0.01140(6) 0.1345(3)
C39_4 C 0.2089(2) 0.84160(9) 0.0021(4)
C44_4 C 0.2381(3) 0.85605(11) 0.1182(4)
H38_4 H 0.2664 0.8779 0.1305
H39_4 H 0.1922 0.8602 0.1218
H40_4 H 0.2746 0.8395 0.1778
C47_4 C 0.2713(3) 0.95481(10) 0.0103(5)
H42_4 H 0.2456 0.9754 0.0096
C48_4 C 0.3502(2) 0.95557(8) 0.0526(3)
C49_4 C 0.3869(3) 0.92591(9) 0.0506(4)
H43_4 H 0.4417 0.9263 0.0779
C50_4 C 0.3431(3) 0.89555(9) 0.0085(4)
H44_4 H 0.3687 0.8751 0.0078
C51_4 C 0.3982(3) 0.98815(8) 0.1039(3)
C58_4 C 0.0724(2) 0.73721(9) 0.0181(4)
C63_4 C 0.0203(3) 0.67378(10) 0.1099(4)
H56_4 H 0.0399 0.6898 0.1709
C64_4 C 0.0185(3) 0.63865(10) 0.1291(4)
H57_4 H 0.0363 0.6309 0.2033
O9_2 O 0.0219(2) 0.56973(8) 0.1703(3)
C69_4 C 0.1470(3) 0.71447(10) 0.0856(4)
H60_4 H 0.1312 0.6901 0.0692
H61_4 H 0.1830 0.7199 0.0631
H62_4 H 0.1745 0.7188 0.1677
C71_4 C 0.1593(2) 0.78928(9) 0.0477(4)
H66_4 H 0.2006 0.7710 0.0854
H67_4 H 0.1693 0.8054 0.1084
C17_4 C 0.1435(2) 0.79852(9) 0.6794(4)
H14_4 H 0.1411 0.8178 0.6318
H15_4 H 0.1892 0.7836 0.6987
C18_4 C 0.0669(2) 0.77733(8) 0.6063(4)
C19_4 C 0.0720(2) 0.74269(8) 0.5799(4)
C20_4 C 0.0011(2) 0.72311(8) 0.5185(4)
C24_4 C 0.1487(3) 0.72686(10) 0.6116(5)
H16_4 H 0.1792 0.7190 0.6914
H17_4 H 0.1373 0.7071 0.5615
H18_4 H 0.1801 0.7440 0.6029
C25_4 C 0.0063(2) 0.68537(9) 0.4979(4)
C28_4 C 0.0085(2) 0.61517(8) 0.4574(4)
C29_4 C 0.0361(3) 0.62667(9) 0.5648(4)
H21_4 H 0.0562 0.6106 0.6258
C30_4 C 0.0349(3) 0.66145(9) 0.5852(4)
H22_4 H 0.0539 0.6690 0.6601
C31_4 C 0.0063(3) 0.57694(10) 0.4321(4)
H27_4 H 0.0331 0.8421 0.5932
C38_4 C 0.1727(2) 0.80896(8) 0.9684(4)
C40_4 C 0.2199(2) 0.86004(8) 0.9281(4)
C41_4 C 0.1956(2) 0.84707(8) 0.8224(4)
C42_4 C 0.1619(2) 0.81379(8) 0.7906(4)
C43_4 C 0.1538(2) 0.79452(8) 0.8659(4)
C45_4 C 0.2642(3) 0.89435(8) 0.9681(4)
C46_4 C 0.2277(3) 0.92423(10) 0.9679(5)
H41_4 H 0.1725 0.9240 0.9388
C52_4 C 0.2086(3) 0.86812(10) 0.7444(4)
H45_4 H 0.2394 0.8544 0.7246
H46_4 H 0.1566 0.8742 0.6744
H47_4 H 0.2382 0.8893 0.7841
C53_4 C 0.1311(3) 0.75651(8) 0.8430(4)
H48_4 H 0.0726 0.7543 0.7971
H49_4 H 0.1512 0.7464 0.8012
H50_4 H 0.1548 0.7444 0.9159
C59_4 C 0.0778(2) 0.77235(8) 0.9972(4)
C60_4 C 0.0080(2) 0.79207(8) 0.9356(4)
C70_4 C 0.0124(3) 0.83005(8) 0.9156(4)
H63_4 H 0.0105 0.8330 0.8459
H65_4 H 0.0626 0.8397 0.9811
C62_4 C 0.9937(2) 0.68537(9) 0.0021(4)
C65_4 C 0.9915(2) 0.61517(8) 0.0426(4)
C68_4 C 0.9937(3) 0.57694(10) 0.0679(4)
C1_4 C 0.8273(2) 0.80896(8) 0.5316(4)
C2_4 C 0.7911(2) 0.84160(9) 0.4979(4)
C3_4 C 0.7801(2) 0.86004(8) 0.5719(4)
C4_4 C 0.8044(2) 0.84707(8) 0.6776(4)
C5_4 C 0.8381(2) 0.81379(8) 0.7094(4)
C6_4 C 0.8462(2) 0.79452(8) 0.6341(4)
C7_4 C 0.7619(3) 0.85605(11) 0.3818(4)
H1_4 H 0.7336 0.8779 0.3695
H2_4 H 0.8078 0.8602 0.3782
H3_4 H 0.7254 0.8395 0.3222
C8_4 C 0.7358(3) 0.89435(8) 0.5319(4)
C9_4 C 0.7723(3) 0.92423(10) 0.5321(5)
H4_4 H 0.8275 0.9240 0.5612
C10_4 C 0.7287(3) 0.95481(10) 0.4897(5)
H5_4 H 0.7544 0.9754 0.4904
C11_4 C 0.6498(2) 0.95557(8) 0.4474(3)
C12_4 C 0.6131(3) 0.92591(9) 0.4494(4)
H6_4 H 0.5583 0.9263 0.4221
C13_4 C 0.6569(3) 0.89555(9) 0.4915(4)
H7_4 H 0.6313 0.8751 0.4922
C14_4 C 0.6018(3) 0.98815(8) 0.3961(3)
C15_4 C 0.7914(3) 0.86812(10) 0.7556(4)
H8_4 H 0.7606 0.8544 0.7754
H9_4 H 0.8434 0.8742 0.8256
H10_4 H 0.7618 0.8893 0.7159
C16_4 C 0.8689(3) 0.75651(8) 0.6570(4)
H11_4 H 0.9274 0.7543 0.7029
H12_4 H 0.8488 0.7464 0.6988
H13_4 H 0.8452 0.7444 0.5841
C21_4 C 0.9276(2) 0.73721(9) 0.4819(4)
C22_4 C 0.9222(2) 0.77235(8) 0.5028(4)
C23_4 C 0.9920(2) 0.79207(8) 0.5644(4)
C26_4 C 0.9797(3) 0.67378(10) 0.3901(4)
H19_4 H 0.9601 0.6898 0.3291
C27_4 C 0.9815(3) 0.63865(10) 0.3709(4)
H20_4 H 0.9637 0.6309 0.2967
O4_4 O 0.9781(2) 0.56973(8) 0.3297(3)
C32_4 C 0.8530(3) 0.71447(10) 0.4144(4)
H23_4 H 0.8688 0.6901 0.4308
H24_4 H 0.8170 0.7199 0.4369
H25_4 H 0.8255 0.7188 0.3323
C33_4 C 0.9876(3) 0.83005(8) 0.5844(4)
H26_4 H 0.9895 0.8330 0.6541
H28_4 H 0.9374 0.8397 0.5189
C34_4 C 0.8407(2) 0.78928(9) 0.4523(4)
H29_4 H 0.7994 0.7710 0.4146
H30_4 H 0.8307 0.8054 0.3916
C54_4 C 0.8565(2) 0.79852(9) 0.8206(4)
H51_4 H 0.8589 0.8178 0.8682
H52_4 H 0.8108 0.7836 0.8013
C55_4 C 0.9331(2) 0.77733(8) 0.8937(4)
C56_4 C 0.9280(2) 0.74269(8) 0.9201(4)
C57_4 C 0.9989(2) 0.72311(8) 0.9815(4)
C61_4 C 0.8513(3) 0.72686(10) 0.8884(5)
H53_4 H 0.8208 0.7190 0.8086
H54_4 H 0.8627 0.7071 0.9385
H55_4 H 0.8199 0.7440 0.8971
C66_4 C 0.9639(3) 0.62667(9) 0.9352(4)
H58_4 H 0.9438 0.6106 0.8742
C67_4 C 0.9651(3) 0.66145(9) 0.9148(4)
H59_4 H 0.9461 0.6690 0.8399
H64_4 H 0.9669 0.8421 0.9068
loop_
_geom_bond_atom_site_label_1
_geom_bond_atom_site_label_2
_geom_bond_site_symmetry_1
_geom_bond_site_symmetry_2
H31 C35 1_555 1_555
H35 C37 1_555 1_555
H36 C37 1_555 1_555
H37 C37 1_555 1_555
O10 Mn1 1_555 1_555
C73 N2 1_555 1_555
H69 C73 1_555 1_555
H70 C73 1_555 1_555
H71 C73 1_555 1_555
O11 Mn1 1_555 1_555
O16 Mn1 1_555 1_555
Mn1_2 O3 1_555 1_555
Mn2 O4 1_555 1_555
C1 C2 1_555 1_555
C2 C3 1_555 1_555
C3 C4 1_555 1_555
C4 C5 1_555 1_555
C5 C6 1_555 1_555
C6 C1 1_555 1_555
C7 C2 1_555 1_555
H1 C7 1_555 1_555
H2 C7 1_555 1_555
H3 C7 1_555 1_555
C8 C3 1_555 1_555
C9 C8 1_555 1_555
H4 C9 1_555 1_555
C10 C9 1_555 1_555
H5 C10 1_555 1_555
C11 C10 1_555 1_555
C12 C11 1_555 1_555
H6 C12 1_555 1_555
C13 C8 1_555 1_555
H7 C13 1_555 1_555
C14 C11 1_555 1_555
O1 C14 1_555 1_555
O2 C14 1_555 1_555
C15 C4 1_555 1_555
H8 C15 1_555 1_555
H9 C15 1_555 1_555
H10 C15 1_555 1_555
C16 C6 1_555 1_555
H11 C16 1_555 1_555
H12 C16 1_555 1_555
H13 C16 1_555 1_555
C17 H14 1_555 1_555
H15 C17 1_555 1_555
C18 C17 1_555 1_555
C19 C18 1_555 1_555
C20 C19 1_555 1_555
C21 C20 1_555 1_555
C22 C21 1_555 1_555
C23 C18 1_555 1_555
C24 C19 1_555 1_555
H16 C24 1_555 1_555
H17 C24 1_555 1_555
H18 C24 1_555 1_555
C25 C20 1_555 1_555
C26 C25 1_555 1_555
H19 C26 1_555 1_555
C27 C26 1_555 1_555
H20 C27 1_555 1_555
C28 C27 1_555 1_555
C29 C28 1_555 1_555
H21 C29 1_555 1_555
C30 C25 1_555 1_555
H22 C30 1_555 1_555
C31 C28 1_555 1_555
O3 C31 1_555 1_555
O4 C31 1_555 1_555
C32 C21 1_555 1_555
H23 C32 1_555 1_555
H24 C32 1_555 1_555
H25 C32 1_555 1_555
C33 C23 1_555 1_555
H26 C33 1_555 1_555
H27 C33 1_555 1_555
H28 C33 1_555 1_555
C34 C1 1_555 1_555
H29 C34 1_555 1_555
H30 C34 1_555 1_555
O5 Mn1_2 1_555 1_555
C36 N1 1_555 1_555
H32 C36 1_555 1_555
H33 C36 1_555 1_555
H34 C36 1_555 1_555
C40 C41 1_555 1_555
C41 C42 1_555 1_555
C42 C17 1_555 1_555
C43 C38 1_555 1_555
C45 C40 1_555 1_555
C46 C45 1_555 1_555
H41 C46 1_555 1_555
C52 C41 1_555 1_555
H45 C52 1_555 1_555
H46 C52 1_555 1_555
H47 C52 1_555 1_555
C53 C43 1_555 1_555
H48 C53 1_555 1_555
H49 C53 1_555 1_555
H50 C53 1_555 1_555
C54 C5 1_555 1_555
H51 C54 1_555 1_555
H52 C54 1_555 1_555
C55 C54 1_555 1_555
C56 C55 1_555 1_555
C57 C56 1_555 1_555
C60 C55 1_555 1_555
C61 C56 1_555 1_555
H53 C61 1_555 1_555
H54 C61 1_555 1_555
H55 C61 1_555 1_555
H58 C66 1_555 1_555
H59 C67 1_555 1_555
C70 C60 1_555 1_555
H63 C70 1_555 1_555
H64 C70 1_555 1_555
H65 C70 1_555 1_555
H68 C72 1_555 1_555
H72 C74 1_555 1_555
H73 C74 1_555 1_555
H74 C74 1_555 1_555
Mn3_3 O8 1_555 1_555
Mn4_2 O1 1_555 1_555
Mn8_2 O1 1_555 1_555
O13 Mn1_2 1_555 1_555
O14 Mn2 1_555 1_555
O15 Mn2 1_555 1_555
O17 Mn2 1_555 1_555
C12 C13 1_555 1_555
O2 Mn8_2 1_555 1_555
C22 C23 1_555 1_555
C22 C34 1_555 1_555
C29 C30 1_555 1_555
C42 C43 1_555 1_555
C59 C60 1_555 1_555
C66 C67 1_555 1_555
C44 C39 1_555 1_555
H38 C44 1_555 1_555
H39 C44 1_555 1_555
H40 C44 1_555 1_555
H42 C47 1_555 1_555
C48 C47 1_555 1_555
C49 C48 1_555 1_555
H43 C49 1_555 1_555
H44 C50 1_555 1_555
C51 C48 1_555 1_555
O6 C51 1_555 1_555
O7 C51 1_555 1_555
C63 C62 1_555 1_555
H56 C63 1_555 1_555
C64 C63 1_555 1_555
H57 C64 1_555 1_555
C65 C64 1_555 1_555
C68 C65 1_555 1_555
O17 C68 1_555 1_555
C69 C58 1_555 1_555
H60 C69 1_555 1_555
H61 C69 1_555 1_555
H62 C69 1_555 1_555
H66 C71 1_555 1_555
H67 C71 1_555 1_555
Mn5_2 O6 1_555 1_555
Mn8 O6 1_555 1_555
C49 C50 1_555 1_555
O7 Mn8 1_555 1_555
O10_2 Mn3 1_555 1_555
C73_2 N2_2 1_555 1_555
H69_2 C73_2 1_555 1_555
H70_2 C73_2 1_555 1_555
H71_2 C73_2 1_555 1_555
H31_2 C35_2 1_555 1_555
H35_2 C37_2 1_555 1_555
H36_2 C37_2 1_555 1_555
H37_2 C37_2 1_555 1_555
O12 Mn3_2 1_555 1_555
O16_2 Mn3_2 1_555 1_555
H68_2 C72_2 1_555 1_555
H72_2 C74_2 1_555 1_555
H73_2 C74_2 1_555 1_555
H74_2 C74_2 1_555 1_555
O13_2 Mn3_3 1_555 1_555
O5_2 Mn3_4 1_555 1_555
C36_2 N1_2 1_555 1_555
H32_2 C36_2 1_555 1_555
H33_2 C36_2 1_555 1_555
H34_2 C36_2 1_555 1_555
Mn8 O4_2 1_555 1_555
C1_2 C2_2 1_555 1_555
C2_2 C3_2 1_555 1_555
C3_2 C4_2 1_555 1_555
C4_2 C5_2 1_555 1_555
C5_2 C6_2 1_555 1_555
C6_2 C1_2 1_555 1_555
C7_2 C2_2 1_555 1_555
H1_2 C7_2 1_555 1_555
H2_2 C7_2 1_555 1_555
H3_2 C7_2 1_555 1_555
C8_2 C3_2 1_555 1_555
C9_2 C8_2 1_555 1_555
H4_2 C9_2 1_555 1_555
C10_2 C9_2 1_555 1_555
H5_2 C10_2 1_555 1_555
C11_2 C10_2 1_555 1_555
C12_2 C11_2 1_555 1_555
H6_2 C12_2 1_555 1_555
C13_2 C8_2 1_555 1_555
H7_2 C13_2 1_555 1_555
C14_2 C11_2 1_555 1_555
O11 C14_2 1_555 1_555
C15_2 C4_2 1_555 1_555
H8_2 C15_2 1_555 1_555
H9_2 C15_2 1_555 1_555
H10_2 C15_2 1_555 1_555
C16_2 C6_2 1_555 1_555
H11_2 C16_2 1_555 1_555
H12_2 C16_2 1_555 1_555
H13_2 C16_2 1_555 1_555
C22_2 C21_2 1_555 1_555
H19_2 C26_2 1_555 1_555
C27_2 C26_2 1_555 1_555
H20_2 C27_2 1_555 1_555
C32_2 C21_2 1_555 1_555
H23_2 C32_2 1_555 1_555
H24_2 C32_2 1_555 1_555
H25_2 C32_2 1_555 1_555
C33_2 C23_2 1_555 1_555
H26_2 C33_2 1_555 1_555
H28_2 C33_2 1_555 1_555
C34_2 C1_2 1_555 1_555
H29_2 C34_2 1_555 1_555
H30_2 C34_2 1_555 1_555
O5_3 Mn4 1_555 1_555
C35_3 O5_3 1_555 1_555
H31_3 C35_3 1_555 1_555
N1_3 C35_3 1_555 1_555
C36_3 N1_3 1_555 1_555
H32_3 C36_3 1_555 1_555
H33_3 C36_3 1_555 1_555
H34_3 C36_3 1_555 1_555
C37_3 N1_3 1_555 1_555
H35_3 C37_3 1_555 1_555
H36_3 C37_3 1_555 1_555
H37_3 C37_3 1_555 1_555
C54_2 C5_2 1_555 1_555
H51_2 C54_2 1_555 1_555
H52_2 C54_2 1_555 1_555
C55_2 C54_2 1_555 1_555
C56_2 C55_2 1_555 1_555
C57_2 C56_2 1_555 1_555
C61_2 C56_2 1_555 1_555
H53_2 C61_2 1_555 1_555
H54_2 C61_2 1_555 1_555
H55_2 C61_2 1_555 1_555
H58_2 C66_2 1_555 1_555
H59_2 C67_2 1_555 1_555
Mn5 O8_2 1_555 1_555
O13_3 Mn4 1_555 1_555
O16_3 Mn4 1_555 1_555
C12_2 C13_2 1_555 1_555
C22_2 C23_2 1_555 1_555
C22_2 C34_2 1_555 1_555
C66_2 C67_2 1_555 1_555
C68_2 C65_2 1_555 1_555
Mn4_2 O3_2 1_555 1_555
C17_2 H14_2 1_555 1_555
H15_2 C17_2 1_555 1_555
C18_2 C17_2 1_555 1_555
C19_2 C18_2 1_555 1_555
C20_2 C19_2 1_555 1_555
C24_2 C19_2 1_555 1_555
H16_2 C24_2 1_555 1_555
H17_2 C24_2 1_555 1_555
H18_2 C24_2 1_555 1_555
C25_2 C20_2 1_555 1_555
C29_2 C28_2 1_555 1_555
H21_2 C29_2 1_555 1_555
C30_2 C25_2 1_555 1_555
H22_2 C30_2 1_555 1_555
C31_2 C28_2 1_555 1_555
O3_2 C31_2 1_555 1_555
C40_2 C41_2 1_555 1_555
C41_2 C42_2 1_555 1_555
C42_2 C17_2 1_555 1_555
C43_2 C38_2 1_555 1_555
C45_2 C40_2 1_555 1_555
C46_2 C45_2 1_555 1_555
H41_2 C46_2 1_555 1_555
C52_2 C41_2 1_555 1_555
H45_2 C52_2 1_555 1_555
H46_2 C52_2 1_555 1_555
H47_2 C52_2 1_555 1_555
C53_2 C43_2 1_555 1_555
H48_2 C53_2 1_555 1_555
H49_2 C53_2 1_555 1_555
H50_2 C53_2 1_555 1_555
C70_2 C60_2 1_555 1_555
H63_2 C70_2 1_555 1_555
H65_2 C70_2 1_555 1_555
O10_3 Mn4_2 1_555 1_555
C72_3 O10_3 1_555 1_555
H68_3 C72_3 1_555 1_555
N2_3 C72_3 1_555 1_555
C73_3 N2_3 1_555 1_555
H69_3 C73_3 1_555 1_555
H70_3 C73_3 1_555 1_555
H71_3 C73_3 1_555 1_555
C74_3 N2_3 1_555 1_555
H72_3 C74_3 1_555 1_555
H73_3 C74_3 1_555 1_555
H74_3 C74_3 1_555 1_555
O17_2 Mn8_2 1_555 1_555
C29_2 C30_2 1_555 1_555
C42_2 C43_2 1_555 1_555
C59_2 C60_2 1_555 1_555
C44_2 C39_2 1_555 1_555
H38_2 C44_2 1_555 1_555
H39_2 C44_2 1_555 1_555
H40_2 C44_2 1_555 1_555
H42_2 C47_2 1_555 1_555
C48_2 C47_2 1_555 1_555
C49_2 C48_2 1_555 1_555
H43_2 C49_2 1_555 1_555
H44_2 C50_2 1_555 1_555
C51_2 C48_2 1_555 1_555
O12 C51_2 1_555 1_555
H56_2 C63_2 1_555 1_555
C64_2 C63_2 1_555 1_555
H57_2 C64_2 1_555 1_555
C69_2 C58_2 1_555 1_555
H60_2 C69_2 1_555 1_555
H61_2 C69_2 1_555 1_555
H62_2 C69_2 1_555 1_555
H66_2 C71_2 1_555 1_555
H67_2 C71_2 1_555 1_555
C49_2 C50_2 1_555 1_555
O10_4 Mn5 1_555 1_555
C72_4 O10_4 1_555 1_555
H68_4 C72_4 1_555 1_555
N2_4 C72_4 1_555 1_555
C73_4 N2_4 1_555 1_555
H69_4 C73_4 1_555 1_555
H70_4 C73_4 1_555 1_555
H71_4 C73_4 1_555 1_555
C74_4 N2_4 1_555 1_555
H72_4 C74_4 1_555 1_555
H73_4 C74_4 1_555 1_555
H74_4 C74_4 1_555 1_555
O13_4 Mn5_3 1_555 1_555
O5_4 Mn5_4 1_555 1_555
C35_4 O5_4 1_555 1_555
H31_4 C35_4 1_555 1_555
N1_4 C35_4 1_555 1_555
C36_4 N1_4 1_555 1_555
H32_4 C36_4 1_555 1_555
H33_4 C36_4 1_555 1_555
H34_4 C36_4 1_555 1_555
C37_4 N1_4 1_555 1_555
H35_4 C37_4 1_555 1_555
H36_4 C37_4 1_555 1_555
H37_4 C37_4 1_555 1_555
O16_4 Mn5_4 1_555 1_555
C44_3 C39_3 1_555 1_555
H38_3 C44_3 1_555 1_555
H39_3 C44_3 1_555 1_555
H40_3 C44_3 1_555 1_555
H42_3 C47_3 1_555 1_555
C48_3 C47_3 1_555 1_555
C49_3 C48_3 1_555 1_555
H43_3 C49_3 1_555 1_555
H44_3 C50_3 1_555 1_555
C51_3 C48_3 1_555 1_555
O13_4 C51_3 1_555 1_555
O7_2 C51_3 1_555 1_555
C63_3 C62_3 1_555 1_555
H56_3 C63_3 1_555 1_555
C64_3 C63_3 1_555 1_555
H57_3 C64_3 1_555 1_555
C65_3 C64_3 1_555 1_555
C68_3 C65_3 1_555 1_555
O9 C68_3 1_555 1_555
C69_3 C58_3 1_555 1_555
H60_3 C69_3 1_555 1_555
H61_3 C69_3 1_555 1_555
H62_3 C69_3 1_555 1_555
H66_3 C71_3 1_555 1_555
H67_3 C71_3 1_555 1_555
Mn6 O9 1_555 1_555
Mn7_2 O13_4 1_555 1_555
C49_3 C50_3 1_555 1_555
O7_2 Mn7_2 1_555 1_555
Mn6 O4_3 1_555 1_555
C1_3 C2_3 1_555 1_555
C2_3 C3_3 1_555 1_555
C3_3 C4_3 1_555 1_555
C4_3 C5_3 1_555 1_555
C5_3 C6_3 1_555 1_555
C6_3 C1_3 1_555 1_555
C7_3 C2_3 1_555 1_555
H1_3 C7_3 1_555 1_555
H2_3 C7_3 1_555 1_555
H3_3 C7_3 1_555 1_555
C8_3 C3_3 1_555 1_555
C9_3 C8_3 1_555 1_555
H4_3 C9_3 1_555 1_555
C10_3 C9_3 1_555 1_555
H5_3 C10_3 1_555 1_555
C11_3 C10_3 1_555 1_555
C12_3 C11_3 1_555 1_555
H6_3 C12_3 1_555 1_555
C13_3 C8_3 1_555 1_555
H7_3 C13_3 1_555 1_555
C14_3 C11_3 1_555 1_555
O13_3 C14_3 1_555 1_555
O2_2 C14_3 1_555 1_555
C15_3 C4_3 1_555 1_555
H8_3 C15_3 1_555 1_555
H9_3 C15_3 1_555 1_555
H10_3 C15_3 1_555 1_555
C16_3 C6_3 1_555 1_555
H11_3 C16_3 1_555 1_555
H12_3 C16_3 1_555 1_555
H13_3 C16_3 1_555 1_555
C17_3 H14_3 1_555 1_555
H15_3 C17_3 1_555 1_555
C18_3 C17_3 1_555 1_555
C19_3 C18_3 1_555 1_555
C20_3 C19_3 1_555 1_555
C21_3 C20_3 1_555 1_555
C22_3 C21_3 1_555 1_555
C23_3 C18_3 1_555 1_555
C24_3 C19_3 1_555 1_555
H16_3 C24_3 1_555 1_555
H17_3 C24_3 1_555 1_555
H18_3 C24_3 1_555 1_555
C25_3 C20_3 1_555 1_555
C26_3 C25_3 1_555 1_555
H19_3 C26_3 1_555 1_555
C27_3 C26_3 1_555 1_555
H20_3 C27_3 1_555 1_555
C28_3 C27_3 1_555 1_555
C29_3 C28_3 1_555 1_555
H21_3 C29_3 1_555 1_555
C30_3 C25_3 1_555 1_555
H22_3 C30_3 1_555 1_555
C31_3 C28_3 1_555 1_555
O16 C31_3 1_555 1_555
O4_3 C31_3 1_555 1_555
C32_3 C21_3 1_555 1_555
H23_3 C32_3 1_555 1_555
H24_3 C32_3 1_555 1_555
H25_3 C32_3 1_555 1_555
C33_3 C23_3 1_555 1_555
H26_3 C33_3 1_555 1_555
H27_3 C33_3 1_555 1_555
H28_3 C33_3 1_555 1_555
C34_3 C1_3 1_555 1_555
H29_3 C34_3 1_555 1_555
H30_3 C34_3 1_555 1_555
C40_3 C41_3 1_555 1_555
C41_3 C42_3 1_555 1_555
C42_3 C17_3 1_555 1_555
C43_3 C38_3 1_555 1_555
C45_3 C40_3 1_555 1_555
C46_3 C45_3 1_555 1_555
H41_3 C46_3 1_555 1_555
C52_3 C41_3 1_555 1_555
H45_3 C52_3 1_555 1_555
H46_3 C52_3 1_555 1_555
H47_3 C52_3 1_555 1_555
C53_3 C43_3 1_555 1_555
H48_3 C53_3 1_555 1_555
H49_3 C53_3 1_555 1_555
H50_3 C53_3 1_555 1_555
C54_3 C5_3 1_555 1_555
H51_3 C54_3 1_555 1_555
H52_3 C54_3 1_555 1_555
C55_3 C54_3 1_555 1_555
C56_3 C55_3 1_555 1_555
C57_3 C56_3 1_555 1_555
C60_3 C55_3 1_555 1_555
C61_3 C56_3 1_555 1_555
H53_3 C61_3 1_555 1_555
H54_3 C61_3 1_555 1_555
H55_3 C61_3 1_555 1_555
H58_3 C66_3 1_555 1_555
H59_3 C67_3 1_555 1_555
C70_3 C60_3 1_555 1_555
H63_3 C70_3 1_555 1_555
H64_3 C70_3 1_555 1_555
H65_3 C70_3 1_555 1_555
Mn7 O13_3 1_555 1_555
O14_2 Mn6 1_555 1_555
O15_2 Mn6 1_555 1_555
C12_3 C13_3 1_555 1_555
O2_2 Mn7 1_555 1_555
C22_3 C23_3 1_555 1_555
C22_3 C34_3 1_555 1_555
C29_3 C30_3 1_555 1_555
C42_3 C43_3 1_555 1_555
C59_3 C60_3 1_555 1_555
C66_3 C67_3 1_555 1_555
C44_4 C39_4 1_555 1_555
H38_4 C44_4 1_555 1_555
H39_4 C44_4 1_555 1_555
H40_4 C44_4 1_555 1_555
H42_4 C47_4 1_555 1_555
C48_4 C47_4 1_555 1_555
C49_4 C48_4 1_555 1_555
H43_4 C49_4 1_555 1_555
H44_4 C50_4 1_555 1_555
C51_4 C48_4 1_555 1_555
O13_2 C51_4 1_555 1_555
H56_4 C63_4 1_555 1_555
C64_4 C63_4 1_555 1_555
H57_4 C64_4 1_555 1_555
C69_4 C58_4 1_555 1_555
H60_4 C69_4 1_555 1_555
H61_4 C69_4 1_555 1_555
H62_4 C69_4 1_555 1_555
H66_4 C71_4 1_555 1_555
H67_4 C71_4 1_555 1_555
Mn7 O9_2 1_555 1_555
C49_4 C50_4 1_555 1_555
C17_4 H14_4 1_555 1_555
H15_4 C17_4 1_555 1_555
C18_4 C17_4 1_555 1_555
C19_4 C18_4 1_555 1_555
C20_4 C19_4 1_555 1_555
C24_4 C19_4 1_555 1_555
H16_4 C24_4 1_555 1_555
H17_4 C24_4 1_555 1_555
H18_4 C24_4 1_555 1_555
C25_4 C20_4 1_555 1_555
C29_4 C28_4 1_555 1_555
H21_4 C29_4 1_555 1_555
C30_4 C25_4 1_555 1_555
H22_4 C30_4 1_555 1_555
C31_4 C28_4 1_555 1_555
O16_3 C31_4 1_555 1_555
C40_4 C41_4 1_555 1_555
C41_4 C42_4 1_555 1_555
C42_4 C17_4 1_555 1_555
C43_4 C38_4 1_555 1_555
C45_4 C40_4 1_555 1_555
C46_4 C45_4 1_555 1_555
H41_4 C46_4 1_555 1_555
C52_4 C41_4 1_555 1_555
H45_4 C52_4 1_555 1_555
H46_4 C52_4 1_555 1_555
H47_4 C52_4 1_555 1_555
C53_4 C43_4 1_555 1_555
H48_4 C53_4 1_555 1_555
H49_4 C53_4 1_555 1_555
H50_4 C53_4 1_555 1_555
C70_4 C60_4 1_555 1_555
H63_4 C70_4 1_555 1_555
H65_4 C70_4 1_555 1_555
C29_4 C30_4 1_555 1_555
C42_4 C43_4 1_555 1_555
C59_4 C60_4 1_555 1_555
C68_4 C65_4 1_555 1_555
Mn7_2 O4_4 1_555 1_555
C1_4 C2_4 1_555 1_555
C2_4 C3_4 1_555 1_555
C3_4 C4_4 1_555 1_555
C4_4 C5_4 1_555 1_555
C5_4 C6_4 1_555 1_555
C6_4 C1_4 1_555 1_555
C7_4 C2_4 1_555 1_555
H1_4 C7_4 1_555 1_555
H2_4 C7_4 1_555 1_555
H3_4 C7_4 1_555 1_555
C8_4 C3_4 1_555 1_555
C9_4 C8_4 1_555 1_555
H4_4 C9_4 1_555 1_555
C10_4 C9_4 1_555 1_555
H5_4 C10_4 1_555 1_555
C11_4 C10_4 1_555 1_555
C12_4 C11_4 1_555 1_555
H6_4 C12_4 1_555 1_555
C13_4 C8_4 1_555 1_555
H7_4 C13_4 1_555 1_555
C14_4 C11_4 1_555 1_555
O13 C14_4 1_555 1_555
C15_4 C4_4 1_555 1_555
H8_4 C15_4 1_555 1_555
H9_4 C15_4 1_555 1_555
H10_4 C15_4 1_555 1_555
C16_4 C6_4 1_555 1_555
H11_4 C16_4 1_555 1_555
H12_4 C16_4 1_555 1_555
H13_4 C16_4 1_555 1_555
C22_4 C21_4 1_555 1_555
H19_4 C26_4 1_555 1_555
C27_4 C26_4 1_555 1_555
H20_4 C27_4 1_555 1_555
C32_4 C21_4 1_555 1_555
H23_4 C32_4 1_555 1_555
H24_4 C32_4 1_555 1_555
H25_4 C32_4 1_555 1_555
C33_4 C23_4 1_555 1_555
H26_4 C33_4 1_555 1_555
H28_4 C33_4 1_555 1_555
C34_4 C1_4 1_555 1_555
H29_4 C34_4 1_555 1_555
H30_4 C34_4 1_555 1_555
C54_4 C5_4 1_555 1_555
H51_4 C54_4 1_555 1_555
H52_4 C54_4 1_555 1_555
C55_4 C54_4 1_555 1_555
C56_4 C55_4 1_555 1_555
C57_4 C56_4 1_555 1_555
C61_4 C56_4 1_555 1_555
H53_4 C61_4 1_555 1_555
H54_4 C61_4 1_555 1_555
H55_4 C61_4 1_555 1_555
H58_4 C66_4 1_555 1_555
H59_4 C67_4 1_555 1_555
C12_4 C13_4 1_555 1_555
C22_4 C23_4 1_555 1_555
C22_4 C34_4 1_555 1_555
C66_4 C67_4 1_555 1_555

#END
