
###############################################################################
#
# This file contains modified crystal structure data generated from the
# MOF subset of the Cambridge Structural Database (CSD) v543 
# hosted by the Cambridge Crystallographic Data Centre (CCDC).
#
# This work is licensed under the Creative Commons
# Attribution-NonCommercial-ShareAlike 4.0 International License.
# To view a copy of this license, visit
# http://creativecommons.org/licenses/by-nc-sa/4.0/
# or send a letter to
# Creative Commons, PO Box 1866, Mountain View, CA 94042, USA.
#
# CIF created using the CSD Python API on 29 September 2022
# The structure has been converted into the P1 space group
# The structure has a 3D framework
# The original CSD entry COTYIV is in the orthorhombic crystal system
# The framework has been calculated to contain at least 10.0% void space
# The void calculation uses a probe of radius 1.32A, grid spacing 0.4
# The framework is charged, counterions have been retained in the structure
#
###############################################################################

data_COTYIV
_chemical_formula_moiety         '(C560 H656 Cu56 N628 24+)n'
_symmetry_cell_setting           triclinic
_symmetry_space_group_name_H-M   'P 1'
_symmetry_Int_Tables_number      1
_space_group_name_Hall           'P 1'
loop_
_symmetry_equiv_pos_site_id
_symmetry_equiv_pos_as_xyz
1 x,y,z
_cell_length_a                   16.180(2)
_cell_length_b                   43.077(5)
_cell_length_c                   45.485(6)
_cell_angle_alpha                90
_cell_angle_beta                 90
_cell_angle_gamma                90
_cell_volume                     31702.4
loop_
_atom_site_label
_atom_site_type_symbol
_atom_site_fract_x
_atom_site_fract_y
_atom_site_fract_z
Cu1 Cu 0.6250 0.42783(2) 0.1250
Cu2 Cu 0.50118(3) 0.42879(2) 0.06245(2)
C1 C 0.5333(3) 0.49541(9) 0.16348(9)
C2 C 0.5823(3) 0.47863(9) 0.18251(9)
H1 H 0.5962 0.4583 0.1778
C3 C 0.6116(3) 0.49157(9) 0.20858(9)
C4 C 0.5909(3) 0.52226(9) 0.21518(10)
H2 H 0.6100 0.5313 0.2325
C5 C 0.5421(3) 0.53926(10) 0.19614(10)
C6 C 0.5118(3) 0.52553(10) 0.17050(10)
H3 H 0.4770 0.5367 0.1581
C7 C 0.3750 0.3750 0.10576(11)
C8 C 0.3026(3) 0.36899(9) 0.12112(8)
H4 H 0.2540 0.3650 0.1109
C9 C 0.3023(3) 0.36891(10) 0.15178(9)
C10 C 0.3750 0.3750 0.16647(13)
H5 H 0.3750 0.3750 0.1869
C11 C 0.3750 0.3750 0.07342(11)
N1 N 0.4347(2) 0.49453(7) 0.12222(7)
C12 C 0.4994(2) 0.48255(7) 0.13639(6)
N2 N 0.52790(16) 0.45872(5) 0.12062(5)
N3 N 0.48074(17) 0.45600(6) 0.09671(5)
N4 N 0.4231(2) 0.47812(7) 0.09769(6)
N5 N 0.71463(16) 0.45163(5) 0.22553(4)
N6 N 0.74250(17) 0.44224(5) 0.25162(5)
N7 N 0.70570(18) 0.45930(6) 0.27226(5)
N8 N 0.65510(19) 0.47923(6) 0.25892(5)
C13 C 0.66062(19) 0.47448(6) 0.23004(5)
N9 N 0.5251(3) 0.61853(8) 0.21847(8)
N10 N 0.4569(3) 0.61507(9) 0.20313(11)
N11 N 0.4529(3) 0.58603(9) 0.19246(11)
N12 N 0.3986(2) 0.38740(7) 0.02872(6)
N13 N 0.4150(2) 0.39574(7) 0.05676(6)
C14 C 0.22713(17) 0.36390(7) 0.16880(6)
N14 N 0.2183(2) 0.37230(8) 0.19679(6)
N15 N 0.14379(19) 0.36321(8) 0.20574(6)
N16 N 0.10657(15) 0.34919(6) 0.18326(5)
N17 N 0.15806(15) 0.34961(6) 0.16044(5)
C15 C 0.5208(4) 0.57175(10) 0.20259(11)
N18 N 0.5676(3) 0.59127(7) 0.21874(8)
C16 C 0.4474(3) 0.38101(9) 0.12112(8)
H6 H 0.4960 0.3850 0.1109
C17 C 0.4477(3) 0.38109(10) 0.15178(9)
N19 N 0.3514(2) 0.36260(7) 0.02872(6)
N20 N 0.3350(2) 0.35426(7) 0.05676(6)
C18 C 0.52287(17) 0.38610(7) 0.16880(6)
N21 N 0.5317(2) 0.37770(8) 0.19679(6)
N22 N 0.60621(19) 0.38679(8) 0.20574(6)
N23 N 0.64343(15) 0.40081(6) 0.18326(5)
N24 N 0.59194(15) 0.40039(6) 0.16044(5)
Cu4 Cu 0.24882(3) 0.32121(2) 0.06245(2)
C19 C 0.2167(3) 0.25459(9) 0.16348(9)
C20 C 0.1677(3) 0.27137(9) 0.18251(9)
H7 H 0.1538 0.2917 0.1778
C21 C 0.1384(3) 0.25843(9) 0.20858(9)
C22 C 0.1591(3) 0.22774(9) 0.21518(10)
H8 H 0.1400 0.2187 0.2325
C23 C 0.2079(3) 0.21074(10) 0.19614(10)
C24 C 0.2382(3) 0.22447(10) 0.17050(10)
H9 H 0.2730 0.2133 0.1581
N25 N 0.3153(2) 0.25547(7) 0.12222(7)
C25 C 0.2506(2) 0.26745(7) 0.13639(6)
N26 N 0.22210(16) 0.29128(5) 0.12062(5)
N27 N 0.26926(17) 0.29400(6) 0.09671(5)
N28 N 0.3269(2) 0.27188(7) 0.09769(6)
N29 N 0.03537(16) 0.29837(5) 0.22553(4)
N30 N 0.00750(17) 0.30776(5) 0.25162(5)
N31 N 0.04430(18) 0.29070(6) 0.27226(5)
N32 N 0.09490(19) 0.27077(6) 0.25892(5)
C26 C 0.08938(19) 0.27552(6) 0.23004(5)
N33 N 0.2249(3) 0.13147(8) 0.21847(8)
N34 N 0.2931(3) 0.13493(9) 0.20313(11)
N35 N 0.2971(3) 0.16397(9) 0.19246(11)
C27 C 0.2292(4) 0.17825(10) 0.20259(11)
N36 N 0.1824(3) 0.15873(7) 0.21874(8)
Cu6 Cu 0.1250 0.32217(2) 0.1250
Cu7 Cu 0.74882(3) 0.42879(2) 0.18755(2)
Cu8 Cu 0.00118(3) 0.32121(2) 0.18755(2)
Cu9 Cu 0.81845(4) 0.40796(2) 0.26052(2)
Cu11 Cu 0.68155(4) 0.59204(2) 0.23948(2)
Cu12 Cu 0.56845(4) 0.65796(2) 0.23948(2)
Cu13 Cu 0.18155(4) 0.09204(2) 0.23948(2)
Cu14 Cu 0.06845(4) 0.15796(2) 0.23948(2)
N37 N 0.72210(16) 0.45872(5) 0.12938(5)
N38 N 0.53537(16) 0.45163(5) 0.02447(4)
N39 N 0.21463(16) 0.29837(5) 0.02447(4)
N44 N 0.14343(15) 0.34919(6) 0.06674(5)
N45 N 0.60657(15) 0.40081(6) 0.06674(5)
N46 N 0.65806(15) 0.40039(6) 0.08956(5)
Cu3 Cu 0.43155(4) 0.40796(2) 0.98948(2)
Cu5 Cu 0.31845(4) 0.34204(2) 0.98948(2)
N40 N 0.50750(17) 0.44224(5) 0.99838(5)
N41 N 0.24250(17) 0.30776(5) 0.99838(5)
N42 N 0.4749(3) 0.36853(8) 0.96847(8)
N43 N 0.2751(3) 0.38147(8) 0.96847(8)
N47 N 0.4324(3) 0.34127(7) 0.96874(8)
N48 N 0.3176(3) 0.40873(7) 0.96874(8)
Cu10 Cu 0.93155(4) 0.34204(2) 0.26052(2)
N37_2 N 0.02790(16) 0.29128(5) 0.12938(5)
N46_2 N 0.09194(15) 0.34961(6) 0.08956(5)
Cu1_2 Cu 0.1250 0.42783(2) 0.6250
Cu2_2 Cu 0.24882(3) 0.42879(2) 0.68755(2)
Cu3_2 Cu 0.31845(4) 0.40796(2) 0.76052(2)
C1_2 C 0.2167(3) 0.49541(9) 0.58652(9)
C2_2 C 0.1677(3) 0.47863(9) 0.56749(9)
H1_2 H 0.1538 0.4583 0.5722
C3_2 C 0.1384(3) 0.49157(9) 0.54142(9)
C4_2 C 0.1591(3) 0.52226(9) 0.53482(10)
H2_2 H 0.1400 0.5313 0.5175
C5_2 C 0.2079(3) 0.53926(10) 0.55386(10)
C6_2 C 0.2382(3) 0.52553(10) 0.57950(10)
H3_2 H 0.2730 0.5367 0.5919
C7_2 C 0.3750 0.3750 0.64424(11)
C8_2 C 0.4474(3) 0.36899(9) 0.62888(8)
H4_2 H 0.4960 0.3650 0.6391
C9_2 C 0.4477(3) 0.36891(10) 0.59822(9)
C10_2 C 0.3750 0.3750 0.58353(13)
H5_2 H 0.3750 0.3750 0.5631
C11_2 C 0.3750 0.3750 0.67658(11)
N1_2 N 0.3153(2) 0.49453(7) 0.62778(7)
C12_2 C 0.2506(2) 0.48255(7) 0.61361(6)
N2_2 N 0.22210(16) 0.45872(5) 0.62938(5)
N3_2 N 0.26926(17) 0.45600(6) 0.65329(5)
N4_2 N 0.3269(2) 0.47812(7) 0.65231(6)
N5_2 N 0.03537(16) 0.45163(5) 0.52447(4)
N6_2 N 0.00750(17) 0.44224(5) 0.49838(5)
N7_2 N 0.04430(18) 0.45930(6) 0.47774(5)
N8_2 N 0.09490(19) 0.47923(6) 0.49108(5)
C13_2 C 0.08938(19) 0.47448(6) 0.51996(5)
N9_2 N 0.2249(3) 0.61853(8) 0.53153(8)
N10_2 N 0.2931(3) 0.61507(9) 0.54687(11)
N11_2 N 0.2971(3) 0.58603(9) 0.55754(11)
N12_2 N 0.3514(2) 0.38740(7) 0.72128(6)
N13_2 N 0.3350(2) 0.39574(7) 0.69324(6)
C14_2 C 0.52287(17) 0.36390(7) 0.58120(6)
N14_2 N 0.5317(2) 0.37230(8) 0.55321(6)
N15_2 N 0.60621(19) 0.36321(8) 0.54426(6)
N16_2 N 0.64343(15) 0.34919(6) 0.56674(5)
N17_2 N 0.59194(15) 0.34961(6) 0.58956(5)
C15_2 C 0.2292(4) 0.57175(10) 0.54741(11)
N18_2 N 0.1824(3) 0.59127(7) 0.53126(8)
C16_2 C 0.3026(3) 0.38101(9) 0.62888(8)
H6_2 H 0.2540 0.3850 0.6391
C17_2 C 0.3023(3) 0.38109(10) 0.59822(9)
N19_2 N 0.3986(2) 0.36260(7) 0.72128(6)
N20_2 N 0.4150(2) 0.35426(7) 0.69324(6)
C18_2 C 0.22713(17) 0.38610(7) 0.58120(6)
N21_2 N 0.2183(2) 0.37770(8) 0.55321(6)
N22_2 N 0.14379(19) 0.38679(8) 0.54426(6)
N23_2 N 0.10657(15) 0.40081(6) 0.56674(5)
N24_2 N 0.15806(15) 0.40039(6) 0.58956(5)
Cu4_2 Cu 0.50118(3) 0.32121(2) 0.68755(2)
Cu5_2 Cu 0.43155(4) 0.34204(2) 0.76052(2)
C19_2 C 0.5333(3) 0.25459(9) 0.58652(9)
C20_2 C 0.5823(3) 0.27137(9) 0.56749(9)
H7_2 H 0.5962 0.2917 0.5722
C21_2 C 0.6116(3) 0.25843(9) 0.54142(9)
C22_2 C 0.5909(3) 0.22774(9) 0.53482(10)
H8_2 H 0.6100 0.2187 0.5175
C23_2 C 0.5421(3) 0.21074(10) 0.55386(10)
C24_2 C 0.5118(3) 0.22447(10) 0.57950(10)
H9_2 H 0.4770 0.2133 0.5919
N25_2 N 0.4347(2) 0.25547(7) 0.62778(7)
C25_2 C 0.4994(2) 0.26745(7) 0.61361(6)
N26_2 N 0.52790(16) 0.29128(5) 0.62938(5)
N27_2 N 0.48074(17) 0.29400(6) 0.65329(5)
N28_2 N 0.4231(2) 0.27188(7) 0.65231(6)
N29_2 N 0.71463(16) 0.29837(5) 0.52447(4)
N30_2 N 0.74250(17) 0.30776(5) 0.49838(5)
N31_2 N 0.70570(18) 0.29070(6) 0.47774(5)
N32_2 N 0.65510(19) 0.27077(6) 0.49108(5)
C26_2 C 0.66062(19) 0.27552(6) 0.51996(5)
N33_2 N 0.5251(3) 0.13147(8) 0.53153(8)
N34_2 N 0.4569(3) 0.13493(9) 0.54687(11)
N35_2 N 0.4529(3) 0.16397(9) 0.55754(11)
C27_2 C 0.5208(4) 0.17825(10) 0.54741(11)
N36_2 N 0.5676(3) 0.15873(7) 0.53126(8)
Cu6_2 Cu 0.6250 0.32217(2) 0.6250
Cu7_2 Cu 0.00118(3) 0.42879(2) 0.56245(2)
Cu8_2 Cu 0.74882(3) 0.32121(2) 0.56245(2)
Cu10_2 Cu 0.81845(4) 0.34204(2) 0.48948(2)
Cu11_2 Cu 0.06845(4) 0.59204(2) 0.51052(2)
Cu12_2 Cu 0.18155(4) 0.65796(2) 0.51052(2)
Cu13_2 Cu 0.56845(4) 0.09204(2) 0.51052(2)
Cu14_2 Cu 0.68155(4) 0.15796(2) 0.51052(2)
N37_3 N 0.02790(16) 0.45872(5) 0.62062(5)
N38_2 N 0.21463(16) 0.45163(5) 0.72553(4)
N39_2 N 0.53537(16) 0.29837(5) 0.72553(4)
N40_2 N 0.24250(17) 0.44224(5) 0.75162(5)
N41_2 N 0.50750(17) 0.30776(5) 0.75162(5)
N42_2 N 0.2751(3) 0.36853(8) 0.78153(8)
N43_2 N 0.4749(3) 0.38147(8) 0.78153(8)
N44_2 N 0.60657(15) 0.34919(6) 0.68326(5)
N45_2 N 0.14343(15) 0.40081(6) 0.68326(5)
N46_3 N 0.09194(15) 0.40039(6) 0.66044(5)
N47_2 N 0.3176(3) 0.34127(7) 0.78126(8)
N48_2 N 0.4324(3) 0.40873(7) 0.78126(8)
Cu9_2 Cu 0.93155(4) 0.40796(2) 0.48948(2)
N37_4 N 0.72210(16) 0.29128(5) 0.62062(5)
N46_4 N 0.65806(15) 0.34961(6) 0.66044(5)
C4_3 C 0.5909(3) 0.02226(9) 0.71518(10)
H2_3 H 0.6100 0.0313 0.7325
C5_3 C 0.5421(3) 0.03926(10) 0.69614(10)
C6_3 C 0.5118(3) 0.02553(10) 0.67050(10)
H3_3 H 0.4770 0.0367 0.6581
N9_3 N 0.5251(3) 0.11853(8) 0.71847(8)
N10_3 N 0.4569(3) 0.11507(9) 0.70313(11)
N11_3 N 0.4529(3) 0.08603(9) 0.69246(11)
C15_3 C 0.5208(4) 0.07175(10) 0.70259(11)
N18_3 N 0.5676(3) 0.09127(7) 0.71874(8)
Cu11_3 Cu 0.68155(4) 0.09204(2) 0.73948(2)
Cu12_3 Cu 0.56845(4) 0.15796(2) 0.73948(2)
Cu1_3 Cu 0.6250 0.92783(2) 0.6250
Cu2_3 Cu 0.50118(3) 0.92879(2) 0.56245(2)
Cu3_3 Cu 0.43155(4) 0.90796(2) 0.48948(2)
C1_3 C 0.5333(3) 0.99541(9) 0.66348(9)
C2_3 C 0.5823(3) 0.97863(9) 0.68251(9)
H1_3 H 0.5962 0.9583 0.6778
C3_3 C 0.6116(3) 0.99157(9) 0.70858(9)
C7_3 C 0.3750 0.8750 0.60576(11)
C8_3 C 0.3026(3) 0.86899(9) 0.62112(8)
H4_3 H 0.2540 0.8650 0.6109
C9_3 C 0.3023(3) 0.86891(10) 0.65178(9)
C10_3 C 0.3750 0.8750 0.66647(13)
H5_3 H 0.3750 0.8750 0.6869
C11_3 C 0.3750 0.8750 0.57342(11)
N1_3 N 0.4347(2) 0.99453(7) 0.62222(7)
C12_3 C 0.4994(2) 0.98255(7) 0.63639(6)
N2_3 N 0.52790(16) 0.95872(5) 0.62062(5)
N3_3 N 0.48074(17) 0.95600(6) 0.59671(5)
N4_3 N 0.4231(2) 0.97812(7) 0.59769(6)
N5_3 N 0.71463(16) 0.95163(5) 0.72553(4)
N6_3 N 0.74250(17) 0.94224(5) 0.75162(5)
N7_3 N 0.70570(18) 0.95930(6) 0.77226(5)
N8_3 N 0.65510(19) 0.97923(6) 0.75892(5)
C13_3 C 0.66062(19) 0.97448(6) 0.73004(5)
N12_3 N 0.3986(2) 0.88740(7) 0.52872(6)
N13_3 N 0.4150(2) 0.89574(7) 0.55676(6)
C14_3 C 0.22713(17) 0.86390(7) 0.66880(6)
N14_3 N 0.2183(2) 0.87230(8) 0.69679(6)
N15_3 N 0.14379(19) 0.86321(8) 0.70574(6)
N16_3 N 0.10657(15) 0.84919(6) 0.68326(5)
N17_3 N 0.15806(15) 0.84961(6) 0.66044(5)
C16_3 C 0.4474(3) 0.88101(9) 0.62112(8)
H6_3 H 0.4960 0.8850 0.6109
C17_3 C 0.4477(3) 0.88109(10) 0.65178(9)
N19_3 N 0.3514(2) 0.86260(7) 0.52872(6)
N20_3 N 0.3350(2) 0.85426(7) 0.55676(6)
C18_3 C 0.52287(17) 0.88610(7) 0.66880(6)
N21_3 N 0.5317(2) 0.87770(8) 0.69679(6)
N22_3 N 0.60621(19) 0.88679(8) 0.70574(6)
N23_3 N 0.64343(15) 0.90081(6) 0.68326(5)
N24_3 N 0.59194(15) 0.90039(6) 0.66044(5)
Cu4_3 Cu 0.24882(3) 0.82121(2) 0.56245(2)
Cu5_3 Cu 0.31845(4) 0.84204(2) 0.48948(2)
C19_3 C 0.2167(3) 0.75459(9) 0.66348(9)
C20_3 C 0.1677(3) 0.77137(9) 0.68251(9)
H7_3 H 0.1538 0.7917 0.6778
C21_3 C 0.1384(3) 0.75843(9) 0.70858(9)
C22_3 C 0.1591(3) 0.72774(9) 0.71518(10)
H8_3 H 0.1400 0.7187 0.7325
C23_3 C 0.2079(3) 0.71074(10) 0.69614(10)
C24_3 C 0.2382(3) 0.72447(10) 0.67050(10)
H9_3 H 0.2730 0.7133 0.6581
N25_3 N 0.3153(2) 0.75547(7) 0.62222(7)
C25_3 C 0.2506(2) 0.76745(7) 0.63639(6)
N26_3 N 0.22210(16) 0.79128(5) 0.62062(5)
N27_3 N 0.26926(17) 0.79400(6) 0.59671(5)
N28_3 N 0.3269(2) 0.77188(7) 0.59769(6)
N29_3 N 0.03537(16) 0.79837(5) 0.72553(4)
N30_3 N 0.00750(17) 0.80776(5) 0.75162(5)
N31_3 N 0.04430(18) 0.79070(6) 0.77226(5)
N32_3 N 0.09490(19) 0.77077(6) 0.75892(5)
C26_3 C 0.08938(19) 0.77552(6) 0.73004(5)
N33_3 N 0.2249(3) 0.63147(8) 0.71847(8)
N34_3 N 0.2931(3) 0.63493(9) 0.70313(11)
N35_3 N 0.2971(3) 0.66397(9) 0.69246(11)
C27_3 C 0.2292(4) 0.67825(10) 0.70259(11)
N36_3 N 0.1824(3) 0.65873(7) 0.71874(8)
Cu6_3 Cu 0.1250 0.82217(2) 0.6250
Cu7_3 Cu 0.74882(3) 0.92879(2) 0.68755(2)
Cu8_3 Cu 0.00118(3) 0.82121(2) 0.68755(2)
Cu9_3 Cu 0.81845(4) 0.90796(2) 0.76052(2)
Cu13_3 Cu 0.18155(4) 0.59204(2) 0.73948(2)
Cu14_3 Cu 0.06845(4) 0.65796(2) 0.73948(2)
N37_5 N 0.72210(16) 0.95872(5) 0.62938(5)
N38_3 N 0.53537(16) 0.95163(5) 0.52447(4)
N39_3 N 0.21463(16) 0.79837(5) 0.52447(4)
N40_3 N 0.50750(17) 0.94224(5) 0.49838(5)
N41_3 N 0.24250(17) 0.80776(5) 0.49838(5)
N42_3 N 0.4749(3) 0.86853(8) 0.46847(8)
N43_3 N 0.2751(3) 0.88147(8) 0.46847(8)
N44_3 N 0.14343(15) 0.84919(6) 0.56674(5)
N45_3 N 0.60657(15) 0.90081(6) 0.56674(5)
N46_5 N 0.65806(15) 0.90039(6) 0.58956(5)
N47_3 N 0.4324(3) 0.84127(7) 0.46874(8)
N48_3 N 0.3176(3) 0.90873(7) 0.46874(8)
Cu10_3 Cu 0.93155(4) 0.84204(2) 0.76052(2)
N37_6 N 0.02790(16) 0.79128(5) 0.62938(5)
N46_6 N 0.09194(15) 0.84961(6) 0.58956(5)
C4_4 C 0.1591(3) 0.02226(9) 0.03482(10)
H2_4 H 0.1400 0.0313 0.0175
C5_4 C 0.2079(3) 0.03926(10) 0.05386(10)
C6_4 C 0.2382(3) 0.02553(10) 0.07950(10)
H3_4 H 0.2730 0.0367 0.0919
N9_4 N 0.2249(3) 0.11853(8) 0.03153(8)
N10_4 N 0.2931(3) 0.11507(9) 0.04687(11)
N11_4 N 0.2971(3) 0.08603(9) 0.05754(11)
C15_4 C 0.2292(4) 0.07175(10) 0.04741(11)
N18_4 N 0.1824(3) 0.09127(7) 0.03126(8)
Cu11_4 Cu 0.06845(4) 0.09204(2) 0.01052(2)
Cu12_4 Cu 0.18155(4) 0.15796(2) 0.01052(2)
Cu1_4 Cu 0.1250 0.92783(2) 0.1250
Cu2_4 Cu 0.24882(3) 0.92879(2) 0.18755(2)
Cu3_4 Cu 0.31845(4) 0.90796(2) 0.26052(2)
C1_4 C 0.2167(3) 0.99541(9) 0.08652(9)
C2_4 C 0.1677(3) 0.97863(9) 0.06749(9)
H1_4 H 0.1538 0.9583 0.0722
C3_4 C 0.1384(3) 0.99157(9) 0.04142(9)
C7_4 C 0.3750 0.8750 0.14424(11)
C8_4 C 0.4474(3) 0.86899(9) 0.12888(8)
H4_4 H 0.4960 0.8650 0.1391
C9_4 C 0.4477(3) 0.86891(10) 0.09822(9)
C10_4 C 0.3750 0.8750 0.08353(13)
H5_4 H 0.3750 0.8750 0.0631
C11_4 C 0.3750 0.8750 0.17658(11)
N1_4 N 0.3153(2) 0.99453(7) 0.12778(7)
C12_4 C 0.2506(2) 0.98255(7) 0.11361(6)
N2_4 N 0.22210(16) 0.95872(5) 0.12938(5)
N3_4 N 0.26926(17) 0.95600(6) 0.15329(5)
N4_4 N 0.3269(2) 0.97812(7) 0.15231(6)
N5_4 N 0.03537(16) 0.95163(5) 0.02447(4)
C13_4 C 0.08938(19) 0.97448(6) 0.01996(5)
N12_4 N 0.3514(2) 0.88740(7) 0.22128(6)
N13_4 N 0.3350(2) 0.89574(7) 0.19324(6)
C14_4 C 0.52287(17) 0.86390(7) 0.08120(6)
N14_4 N 0.5317(2) 0.87230(8) 0.05321(6)
N15_4 N 0.60621(19) 0.86321(8) 0.04426(6)
N16_4 N 0.64343(15) 0.84919(6) 0.06674(5)
N17_4 N 0.59194(15) 0.84961(6) 0.08956(5)
C16_4 C 0.3026(3) 0.88101(9) 0.12888(8)
H6_4 H 0.2540 0.8850 0.1391
C17_4 C 0.3023(3) 0.88109(10) 0.09822(9)
N19_4 N 0.3986(2) 0.86260(7) 0.22128(6)
N20_4 N 0.4150(2) 0.85426(7) 0.19324(6)
C18_4 C 0.22713(17) 0.88610(7) 0.08120(6)
N21_4 N 0.2183(2) 0.87770(8) 0.05321(6)
N22_4 N 0.14379(19) 0.88679(8) 0.04426(6)
N23_4 N 0.10657(15) 0.90081(6) 0.06674(5)
N24_4 N 0.15806(15) 0.90039(6) 0.08956(5)
Cu4_4 Cu 0.50118(3) 0.82121(2) 0.18755(2)
Cu5_4 Cu 0.43155(4) 0.84204(2) 0.26052(2)
C19_4 C 0.5333(3) 0.75459(9) 0.08652(9)
C20_4 C 0.5823(3) 0.77137(9) 0.06749(9)
H7_4 H 0.5962 0.7917 0.0722
C21_4 C 0.6116(3) 0.75843(9) 0.04142(9)
C22_4 C 0.5909(3) 0.72774(9) 0.03482(10)
H8_4 H 0.6100 0.7187 0.0175
C23_4 C 0.5421(3) 0.71074(10) 0.05386(10)
C24_4 C 0.5118(3) 0.72447(10) 0.07950(10)
H9_4 H 0.4770 0.7133 0.0919
N25_4 N 0.4347(2) 0.75547(7) 0.12778(7)
C25_4 C 0.4994(2) 0.76745(7) 0.11361(6)
N26_4 N 0.52790(16) 0.79128(5) 0.12938(5)
N27_4 N 0.48074(17) 0.79400(6) 0.15329(5)
N28_4 N 0.4231(2) 0.77188(7) 0.15231(6)
N29_4 N 0.71463(16) 0.79837(5) 0.02447(4)
C26_4 C 0.66062(19) 0.77552(6) 0.01996(5)
N33_4 N 0.5251(3) 0.63147(8) 0.03153(8)
N34_4 N 0.4569(3) 0.63493(9) 0.04687(11)
N35_4 N 0.4529(3) 0.66397(9) 0.05754(11)
C27_4 C 0.5208(4) 0.67825(10) 0.04741(11)
N36_4 N 0.5676(3) 0.65873(7) 0.03126(8)
Cu6_4 Cu 0.6250 0.82217(2) 0.1250
Cu7_4 Cu 0.00118(3) 0.92879(2) 0.06245(2)
Cu8_4 Cu 0.74882(3) 0.82121(2) 0.06245(2)
Cu13_4 Cu 0.56845(4) 0.59204(2) 0.01052(2)
Cu14_4 Cu 0.68155(4) 0.65796(2) 0.01052(2)
N37_7 N 0.02790(16) 0.95872(5) 0.12062(5)
N38_4 N 0.21463(16) 0.95163(5) 0.22553(4)
N39_4 N 0.53537(16) 0.79837(5) 0.22553(4)
N40_4 N 0.24250(17) 0.94224(5) 0.25162(5)
N41_4 N 0.50750(17) 0.80776(5) 0.25162(5)
N42_4 N 0.2751(3) 0.86853(8) 0.28153(8)
N43_4 N 0.4749(3) 0.88147(8) 0.28153(8)
N44_4 N 0.60657(15) 0.84919(6) 0.18326(5)
N45_4 N 0.14343(15) 0.90081(6) 0.18326(5)
N46_7 N 0.09194(15) 0.90039(6) 0.16044(5)
N47_4 N 0.3176(3) 0.84127(7) 0.28126(8)
N48_4 N 0.4324(3) 0.90873(7) 0.28126(8)
N6_4 N 0.00750(17) 0.94224(5) 0.99838(5)
N7_4 N 0.04430(18) 0.95930(6) 0.97774(5)
N8_4 N 0.09490(19) 0.97923(6) 0.99108(5)
N30_4 N 0.74250(17) 0.80776(5) 0.99838(5)
N31_4 N 0.70570(18) 0.79070(6) 0.97774(5)
N32_4 N 0.65510(19) 0.77077(6) 0.99108(5)
Cu10_4 Cu 0.81845(4) 0.84204(2) 0.98948(2)
Cu9_4 Cu 0.93155(4) 0.90796(2) 0.98948(2)
N37_8 N 0.72210(16) 0.79128(5) 0.12062(5)
N46_8 N 0.65806(15) 0.84961(6) 0.16044(5)
C1_5 C 0.0333(3) 0.49541(9) 0.66348(9)
C2_5 C 0.0823(3) 0.47863(9) 0.68251(9)
H1_5 H 0.0962 0.4583 0.6778
C3_5 C 0.1116(3) 0.49157(9) 0.70858(9)
C4_5 C 0.0909(3) 0.52226(9) 0.71518(10)
H2_5 H 0.1100 0.5313 0.7325
C5_5 C 0.0421(3) 0.53926(10) 0.69614(10)
C6_5 C 0.0118(3) 0.52553(10) 0.67050(10)
N7_5 N 0.20570(18) 0.45930(6) 0.77226(5)
N8_5 N 0.15510(19) 0.47923(6) 0.75892(5)
C13_5 C 0.16062(19) 0.47448(6) 0.73004(5)
N9_5 N 0.0251(3) 0.61853(8) 0.71847(8)
C15_5 C 0.0208(4) 0.57175(10) 0.70259(11)
N18_5 N 0.0676(3) 0.59127(7) 0.71874(8)
C18_5 C 0.02287(17) 0.38610(7) 0.66880(6)
N21_5 N 0.0317(2) 0.37770(8) 0.69679(6)
N22_5 N 0.10621(19) 0.38679(8) 0.70574(6)
H3_5 H 0.9770 0.5367 0.6581
C7_5 C 0.8750 0.3750 0.60576(11)
C8_5 C 0.8026(3) 0.36899(9) 0.62112(8)
H4_5 H 0.7540 0.3650 0.6109
C9_5 C 0.8023(3) 0.36891(10) 0.65178(9)
C10_5 C 0.8750 0.3750 0.66647(13)
H5_5 H 0.8750 0.3750 0.6869
C11_5 C 0.8750 0.3750 0.57342(11)
N1_5 N 0.9347(2) 0.49453(7) 0.62222(7)
C12_5 C 0.9994(2) 0.48255(7) 0.63639(6)
N3_5 N 0.98074(17) 0.45600(6) 0.59671(5)
N4_5 N 0.9231(2) 0.47812(7) 0.59769(6)
N10_5 N 0.9569(3) 0.61507(9) 0.70313(11)
N11_5 N 0.9529(3) 0.58603(9) 0.69246(11)
N12_5 N 0.8986(2) 0.38740(7) 0.52872(6)
N13_5 N 0.9150(2) 0.39574(7) 0.55676(6)
C14_5 C 0.72713(17) 0.36390(7) 0.66880(6)
N14_5 N 0.7183(2) 0.37230(8) 0.69679(6)
N15_5 N 0.64379(19) 0.36321(8) 0.70574(6)
C16_5 C 0.9474(3) 0.38101(9) 0.62112(8)
H6_5 H 0.9960 0.3850 0.6109
C17_5 C 0.9477(3) 0.38109(10) 0.65178(9)
N19_5 N 0.8514(2) 0.36260(7) 0.52872(6)
N20_5 N 0.8350(2) 0.35426(7) 0.55676(6)
C19_5 C 0.7167(3) 0.25459(9) 0.66348(9)
C20_5 C 0.6677(3) 0.27137(9) 0.68251(9)
H7_5 H 0.6538 0.2917 0.6778
C21_5 C 0.6384(3) 0.25843(9) 0.70858(9)
C22_5 C 0.6591(3) 0.22774(9) 0.71518(10)
H8_5 H 0.6400 0.2187 0.7325
C23_5 C 0.7079(3) 0.21074(10) 0.69614(10)
C24_5 C 0.7382(3) 0.22447(10) 0.67050(10)
H9_5 H 0.7730 0.2133 0.6581
N25_5 N 0.8153(2) 0.25547(7) 0.62222(7)
C25_5 C 0.7506(2) 0.26745(7) 0.63639(6)
N27_5 N 0.76926(17) 0.29400(6) 0.59671(5)
N28_5 N 0.8269(2) 0.27188(7) 0.59769(6)
N31_5 N 0.54430(18) 0.29070(6) 0.77226(5)
N32_5 N 0.59490(19) 0.27077(6) 0.75892(5)
C26_5 C 0.58938(19) 0.27552(6) 0.73004(5)
N33_5 N 0.7249(3) 0.13147(8) 0.71847(8)
N34_5 N 0.7931(3) 0.13493(9) 0.70313(11)
N35_5 N 0.7971(3) 0.16397(9) 0.69246(11)
C27_5 C 0.7292(4) 0.17825(10) 0.70259(11)
N36_5 N 0.6824(3) 0.15873(7) 0.71874(8)
N42_5 N 0.9749(3) 0.36853(8) 0.46847(8)
N43_5 N 0.7751(3) 0.38147(8) 0.46847(8)
N47_5 N 0.9324(3) 0.34127(7) 0.46874(8)
N48_5 N 0.8176(3) 0.40873(7) 0.46874(8)
C14_6 C 0.02287(17) 0.36390(7) 0.08120(6)
N14_6 N 0.0317(2) 0.37230(8) 0.05321(6)
N15_6 N 0.10621(19) 0.36321(8) 0.04426(6)
C19_6 C 0.0333(3) 0.25459(9) 0.08652(9)
C20_6 C 0.0823(3) 0.27137(9) 0.06749(9)
H7_6 H 0.0962 0.2917 0.0722
C21_6 C 0.1116(3) 0.25843(9) 0.04142(9)
C22_6 C 0.0909(3) 0.22774(9) 0.03482(10)
H8_6 H 0.1100 0.2187 0.0175
C23_6 C 0.0421(3) 0.21074(10) 0.05386(10)
C24_6 C 0.0118(3) 0.22447(10) 0.07950(10)
C26_6 C 0.16062(19) 0.27552(6) 0.01996(5)
N33_6 N 0.0251(3) 0.13147(8) 0.03153(8)
C27_6 C 0.0208(4) 0.17825(10) 0.04741(11)
N36_6 N 0.0676(3) 0.15873(7) 0.03126(8)
N31_6 N 0.20570(18) 0.29070(6) 0.97774(5)
N32_6 N 0.15510(19) 0.27077(6) 0.99108(5)
C1_6 C 0.7167(3) 0.49541(9) 0.08652(9)
C2_6 C 0.6677(3) 0.47863(9) 0.06749(9)
H1_6 H 0.6538 0.4583 0.0722
C3_6 C 0.6384(3) 0.49157(9) 0.04142(9)
C4_6 C 0.6591(3) 0.52226(9) 0.03482(10)
H2_6 H 0.6400 0.5313 0.0175
C5_6 C 0.7079(3) 0.53926(10) 0.05386(10)
C6_6 C 0.7382(3) 0.52553(10) 0.07950(10)
H3_6 H 0.7730 0.5367 0.0919
C7_6 C 0.8750 0.3750 0.14424(11)
C8_6 C 0.9474(3) 0.36899(9) 0.12888(8)
H4_6 H 0.9960 0.3650 0.1391
C9_6 C 0.9477(3) 0.36891(10) 0.09822(9)
C10_6 C 0.8750 0.3750 0.08353(13)
H5_6 H 0.8750 0.3750 0.0631
C11_6 C 0.8750 0.3750 0.17658(11)
N1_6 N 0.8153(2) 0.49453(7) 0.12778(7)
C12_6 C 0.7506(2) 0.48255(7) 0.11361(6)
N3_6 N 0.76926(17) 0.45600(6) 0.15329(5)
N4_6 N 0.8269(2) 0.47812(7) 0.15231(6)
C13_6 C 0.58938(19) 0.47448(6) 0.01996(5)
N9_6 N 0.7249(3) 0.61853(8) 0.03153(8)
N10_6 N 0.7931(3) 0.61507(9) 0.04687(11)
N11_6 N 0.7971(3) 0.58603(9) 0.05754(11)
N12_6 N 0.8514(2) 0.38740(7) 0.22128(6)
N13_6 N 0.8350(2) 0.39574(7) 0.19324(6)
C15_6 C 0.7292(4) 0.57175(10) 0.04741(11)
N18_6 N 0.6824(3) 0.59127(7) 0.03126(8)
C16_6 C 0.8026(3) 0.38101(9) 0.12888(8)
H6_6 H 0.7540 0.3850 0.1391
C17_6 C 0.8023(3) 0.38109(10) 0.09822(9)
N19_6 N 0.8986(2) 0.36260(7) 0.22128(6)
N20_6 N 0.9150(2) 0.35426(7) 0.19324(6)
C18_6 C 0.72713(17) 0.38610(7) 0.08120(6)
N21_6 N 0.7183(2) 0.37770(8) 0.05321(6)
N22_6 N 0.64379(19) 0.38679(8) 0.04426(6)
H9_6 H 0.9770 0.2133 0.0919
N25_6 N 0.9347(2) 0.25547(7) 0.12778(7)
C25_6 C 0.9994(2) 0.26745(7) 0.11361(6)
N27_6 N 0.98074(17) 0.29400(6) 0.15329(5)
N28_6 N 0.9231(2) 0.27188(7) 0.15231(6)
N34_6 N 0.9569(3) 0.13493(9) 0.04687(11)
N35_6 N 0.9529(3) 0.16397(9) 0.05754(11)
N42_6 N 0.7751(3) 0.36853(8) 0.28153(8)
N43_6 N 0.9749(3) 0.38147(8) 0.28153(8)
N47_6 N 0.8176(3) 0.34127(7) 0.28126(8)
N48_6 N 0.9324(3) 0.40873(7) 0.28126(8)
N7_6 N 0.54430(18) 0.45930(6) 0.97774(5)
N8_6 N 0.59490(19) 0.47923(6) 0.99108(5)
C4_7 C 0.0909(3) 0.02226(9) 0.21518(10)
H2_7 H 0.1100 0.0313 0.2325
C5_7 C 0.0421(3) 0.03926(10) 0.19614(10)
C6_7 C 0.0118(3) 0.02553(10) 0.17050(10)
N9_7 N 0.0251(3) 0.11853(8) 0.21847(8)
C15_7 C 0.0208(4) 0.07175(10) 0.20259(11)
N18_7 N 0.0676(3) 0.09127(7) 0.21874(8)
C1_7 C 0.0333(3) 0.99541(9) 0.16348(9)
C2_7 C 0.0823(3) 0.97863(9) 0.18251(9)
H1_7 H 0.0962 0.9583 0.1778
C3_7 C 0.1116(3) 0.99157(9) 0.20858(9)
N7_7 N 0.20570(18) 0.95930(6) 0.27226(5)
N8_7 N 0.15510(19) 0.97923(6) 0.25892(5)
C13_7 C 0.16062(19) 0.97448(6) 0.23004(5)
C18_7 C 0.02287(17) 0.88610(7) 0.16880(6)
N21_7 N 0.0317(2) 0.87770(8) 0.19679(6)
N22_7 N 0.10621(19) 0.88679(8) 0.20574(6)
C7_7 C 0.8750 0.8750 0.10576(11)
C8_7 C 0.8026(3) 0.86899(9) 0.12112(8)
H4_7 H 0.7540 0.8650 0.1109
C9_7 C 0.8023(3) 0.86891(10) 0.15178(9)
C10_7 C 0.8750 0.8750 0.16647(13)
H5_7 H 0.8750 0.8750 0.1869
C11_7 C 0.8750 0.8750 0.07342(11)
N1_7 N 0.9347(2) 0.99453(7) 0.12222(7)
C12_7 C 0.9994(2) 0.98255(7) 0.13639(6)
N3_7 N 0.98074(17) 0.95600(6) 0.09671(5)
N4_7 N 0.9231(2) 0.97812(7) 0.09769(6)
N12_7 N 0.8986(2) 0.88740(7) 0.02872(6)
N13_7 N 0.9150(2) 0.89574(7) 0.05676(6)
C14_7 C 0.72713(17) 0.86390(7) 0.16880(6)
N14_7 N 0.7183(2) 0.87230(8) 0.19679(6)
N15_7 N 0.64379(19) 0.86321(8) 0.20574(6)
C16_7 C 0.9474(3) 0.88101(9) 0.12112(8)
H6_7 H 0.9960 0.8850 0.1109
C17_7 C 0.9477(3) 0.88109(10) 0.15178(9)
N19_7 N 0.8514(2) 0.86260(7) 0.02872(6)
N20_7 N 0.8350(2) 0.85426(7) 0.05676(6)
C19_7 C 0.7167(3) 0.75459(9) 0.16348(9)
C20_7 C 0.6677(3) 0.77137(9) 0.18251(9)
H7_7 H 0.6538 0.7917 0.1778
C21_7 C 0.6384(3) 0.75843(9) 0.20858(9)
C22_7 C 0.6591(3) 0.72774(9) 0.21518(10)
H8_7 H 0.6400 0.7187 0.2325
C23_7 C 0.7079(3) 0.71074(10) 0.19614(10)
C24_7 C 0.7382(3) 0.72447(10) 0.17050(10)
H9_7 H 0.7730 0.7133 0.1581
N25_7 N 0.8153(2) 0.75547(7) 0.12222(7)
C25_7 C 0.7506(2) 0.76745(7) 0.13639(6)
N27_7 N 0.76926(17) 0.79400(6) 0.09671(5)
N28_7 N 0.8269(2) 0.77188(7) 0.09769(6)
N31_7 N 0.54430(18) 0.79070(6) 0.27226(5)
N32_7 N 0.59490(19) 0.77077(6) 0.25892(5)
C26_7 C 0.58938(19) 0.77552(6) 0.23004(5)
N33_7 N 0.7249(3) 0.63147(8) 0.21847(8)
N34_7 N 0.7931(3) 0.63493(9) 0.20313(11)
N35_7 N 0.7971(3) 0.66397(9) 0.19246(11)
C27_7 C 0.7292(4) 0.67825(10) 0.20259(11)
N36_7 N 0.6824(3) 0.65873(7) 0.21874(8)
N42_7 N 0.9749(3) 0.86853(8) 0.96847(8)
N43_7 N 0.7751(3) 0.88147(8) 0.96847(8)
N47_7 N 0.9324(3) 0.84127(7) 0.96874(8)
N48_7 N 0.8176(3) 0.90873(7) 0.96874(8)
C14_8 C 0.02287(17) 0.86390(7) 0.58120(6)
N14_8 N 0.0317(2) 0.87230(8) 0.55321(6)
N15_8 N 0.10621(19) 0.86321(8) 0.54426(6)
C19_8 C 0.0333(3) 0.75459(9) 0.58652(9)
C20_8 C 0.0823(3) 0.77137(9) 0.56749(9)
H7_8 H 0.0962 0.7917 0.5722
C21_8 C 0.1116(3) 0.75843(9) 0.54142(9)
C22_8 C 0.0909(3) 0.72774(9) 0.53482(10)
H8_8 H 0.1100 0.7187 0.5175
C23_8 C 0.0421(3) 0.71074(10) 0.55386(10)
C24_8 C 0.0118(3) 0.72447(10) 0.57950(10)
N31_8 N 0.20570(18) 0.79070(6) 0.47774(5)
N32_8 N 0.15510(19) 0.77077(6) 0.49108(5)
C26_8 C 0.16062(19) 0.77552(6) 0.51996(5)
N33_8 N 0.0251(3) 0.63147(8) 0.53153(8)
C27_8 C 0.0208(4) 0.67825(10) 0.54741(11)
N36_8 N 0.0676(3) 0.65873(7) 0.53126(8)
C4_8 C 0.6591(3) 0.02226(9) 0.53482(10)
H2_8 H 0.6400 0.0313 0.5175
C5_8 C 0.7079(3) 0.03926(10) 0.55386(10)
C6_8 C 0.7382(3) 0.02553(10) 0.57950(10)
H3_7 H 0.7730 0.0367 0.5919
N9_8 N 0.7249(3) 0.11853(8) 0.53153(8)
N10_7 N 0.7931(3) 0.11507(9) 0.54687(11)
N11_7 N 0.7971(3) 0.08603(9) 0.55754(11)
C15_8 C 0.7292(4) 0.07175(10) 0.54741(11)
N18_8 N 0.6824(3) 0.09127(7) 0.53126(8)
C1_8 C 0.7167(3) 0.99541(9) 0.58652(9)
C2_8 C 0.6677(3) 0.97863(9) 0.56749(9)
H1_8 H 0.6538 0.9583 0.5722
C3_8 C 0.6384(3) 0.99157(9) 0.54142(9)
C7_8 C 0.8750 0.8750 0.64424(11)
C8_8 C 0.9474(3) 0.86899(9) 0.62888(8)
H4_8 H 0.9960 0.8650 0.6391
C9_8 C 0.9477(3) 0.86891(10) 0.59822(9)
C10_8 C 0.8750 0.8750 0.58353(13)
H5_8 H 0.8750 0.8750 0.5631
C11_8 C 0.8750 0.8750 0.67658(11)
N1_8 N 0.8153(2) 0.99453(7) 0.62778(7)
C12_8 C 0.7506(2) 0.98255(7) 0.61361(6)
N3_8 N 0.76926(17) 0.95600(6) 0.65329(5)
N4_8 N 0.8269(2) 0.97812(7) 0.65231(6)
N7_8 N 0.54430(18) 0.95930(6) 0.47774(5)
N8_8 N 0.59490(19) 0.97923(6) 0.49108(5)
C13_8 C 0.58938(19) 0.97448(6) 0.51996(5)
N12_8 N 0.8514(2) 0.88740(7) 0.72128(6)
N13_8 N 0.8350(2) 0.89574(7) 0.69324(6)
C16_8 C 0.8026(3) 0.88101(9) 0.62888(8)
H6_8 H 0.7540 0.8850 0.6391
C17_8 C 0.8023(3) 0.88109(10) 0.59822(9)
N19_8 N 0.8986(2) 0.86260(7) 0.72128(6)
N20_8 N 0.9150(2) 0.85426(7) 0.69324(6)
C18_8 C 0.72713(17) 0.88610(7) 0.58120(6)
N21_8 N 0.7183(2) 0.87770(8) 0.55321(6)
N22_8 N 0.64379(19) 0.88679(8) 0.54426(6)
H9_8 H 0.9770 0.7133 0.5919
N25_8 N 0.9347(2) 0.75547(7) 0.62778(7)
C25_8 C 0.9994(2) 0.76745(7) 0.61361(6)
N27_8 N 0.98074(17) 0.79400(6) 0.65329(5)
N28_8 N 0.9231(2) 0.77188(7) 0.65231(6)
N34_8 N 0.9569(3) 0.63493(9) 0.54687(11)
N35_8 N 0.9529(3) 0.66397(9) 0.55754(11)
N42_8 N 0.7751(3) 0.86853(8) 0.78153(8)
N43_8 N 0.9749(3) 0.88147(8) 0.78153(8)
N47_8 N 0.8176(3) 0.84127(7) 0.78126(8)
N48_8 N 0.9324(3) 0.90873(7) 0.78126(8)
N40_5 N 0.49250(17) 0.55776(5) 0.00162(5)
N41_5 N 0.75750(17) 0.69224(5) 0.00162(5)
Cu1_5 Cu 0.3750 0.57217(2) 0.8750
Cu2_5 Cu 0.49882(3) 0.57121(2) 0.93755(2)
C1_9 C 0.4667(3) 0.50459(9) 0.83652(9)
C2_9 C 0.4177(3) 0.52137(9) 0.81749(9)
H1_9 H 0.4038 0.5417 0.8222
C3_9 C 0.3884(3) 0.50843(9) 0.79142(9)
C4_9 C 0.4091(3) 0.47774(9) 0.78482(10)
H2_9 H 0.3900 0.4687 0.7675
C5_9 C 0.4579(3) 0.46074(10) 0.80386(10)
C6_9 C 0.4882(3) 0.47447(10) 0.82950(10)
H3_8 H 0.5230 0.4633 0.8419
C7_9 C 0.6250 0.6250 0.89424(11)
C8_9 C 0.6974(3) 0.63101(9) 0.87888(8)
H4_9 H 0.7460 0.6350 0.8891
C9_9 C 0.6977(3) 0.63109(10) 0.84822(9)
C10_9 C 0.6250 0.6250 0.83353(13)
H5_9 H 0.6250 0.6250 0.8131
C11_9 C 0.6250 0.6250 0.92658(11)
N1_9 N 0.5653(2) 0.50547(7) 0.87778(7)
C12_9 C 0.5006(2) 0.51745(7) 0.86361(6)
N2_5 N 0.47210(16) 0.54128(5) 0.87938(5)
N3_9 N 0.51926(17) 0.54400(6) 0.90329(5)
N4_9 N 0.5769(2) 0.52188(7) 0.90231(6)
N5_5 N 0.28537(16) 0.54837(5) 0.77447(4)
N6_5 N 0.25750(17) 0.55776(5) 0.74838(5)
N7_9 N 0.29430(18) 0.54070(6) 0.72774(5)
N8_9 N 0.34490(19) 0.52077(6) 0.74108(5)
C13_9 C 0.33938(19) 0.52552(6) 0.76996(5)
N10_8 N 0.5431(3) 0.38493(9) 0.79687(11)
N11_8 N 0.5471(3) 0.41397(9) 0.80754(11)
N12_9 N 0.6014(2) 0.61260(7) 0.97128(6)
N13_9 N 0.5850(2) 0.60426(7) 0.94324(6)
C14_9 C 0.77287(17) 0.63610(7) 0.83120(6)
N14_9 N 0.7817(2) 0.62770(8) 0.80321(6)
N15_9 N 0.85621(19) 0.63679(8) 0.79426(6)
N16_5 N 0.89343(15) 0.65081(6) 0.81674(5)
N17_5 N 0.84194(15) 0.65039(6) 0.83956(5)
C15_9 C 0.4792(4) 0.42825(10) 0.79741(11)
C16_9 C 0.5526(3) 0.61899(9) 0.87888(8)
H6_9 H 0.5040 0.6150 0.8891
C17_9 C 0.5523(3) 0.61891(10) 0.84822(9)
N19_9 N 0.6486(2) 0.63740(7) 0.97128(6)
N20_9 N 0.6650(2) 0.64574(7) 0.94324(6)
C18_9 C 0.47713(17) 0.61390(7) 0.83120(6)
N21_9 N 0.4683(2) 0.62230(8) 0.80321(6)
N22_9 N 0.39379(19) 0.61321(8) 0.79426(6)
N23_5 N 0.35657(15) 0.59919(6) 0.81674(5)
N24_5 N 0.40806(15) 0.59961(6) 0.83956(5)
Cu4_5 Cu 0.75118(3) 0.67879(2) 0.93755(2)
C19_9 C 0.7833(3) 0.74541(9) 0.83652(9)
C20_9 C 0.8323(3) 0.72863(9) 0.81749(9)
H7_9 H 0.8462 0.7083 0.8222
C21_9 C 0.8616(3) 0.74157(9) 0.79142(9)
C22_9 C 0.8409(3) 0.77226(9) 0.78482(10)
H8_9 H 0.8600 0.7813 0.7675
C23_9 C 0.7921(3) 0.78926(10) 0.80386(10)
C24_9 C 0.7618(3) 0.77553(10) 0.82950(10)
H9_9 H 0.7270 0.7867 0.8419
N25_9 N 0.6847(2) 0.74453(7) 0.87778(7)
C25_9 C 0.7494(2) 0.73255(7) 0.86361(6)
N26_5 N 0.77790(16) 0.70872(5) 0.87938(5)
N27_9 N 0.73074(17) 0.70600(6) 0.90329(5)
N28_9 N 0.6731(2) 0.72812(7) 0.90231(6)
N29_5 N 0.96463(16) 0.70163(5) 0.77447(4)
N30_5 N 0.99250(17) 0.69224(5) 0.74838(5)
N31_9 N 0.95570(18) 0.70930(6) 0.72774(5)
N32_9 N 0.90510(19) 0.72923(6) 0.74108(5)
C26_9 C 0.91062(19) 0.72448(6) 0.76996(5)
N34_9 N 0.7069(3) 0.86507(9) 0.79687(11)
N35_9 N 0.7029(3) 0.83603(9) 0.80754(11)
C27_9 C 0.7708(4) 0.82175(10) 0.79741(11)
Cu6_5 Cu 0.8750 0.67783(2) 0.8750
Cu7_5 Cu 0.25118(3) 0.57121(2) 0.81245(2)
Cu8_5 Cu 0.99882(3) 0.67879(2) 0.81245(2)
N37_9 N 0.27790(16) 0.54128(5) 0.87062(5)
N38_5 N 0.46463(16) 0.54837(5) 0.97553(4)
N39_5 N 0.78537(16) 0.70163(5) 0.97553(4)
N44_5 N 0.85657(15) 0.65081(6) 0.93326(5)
N45_5 N 0.39343(15) 0.59919(6) 0.93326(5)
N46_9 N 0.34194(15) 0.59961(6) 0.91044(5)
N37_10 N 0.97210(16) 0.70872(5) 0.87062(5)
N46_10 N 0.90806(15) 0.65039(6) 0.91044(5)
Cu1_6 Cu 0.8750 0.57217(2) 0.3750
Cu2_6 Cu 0.75118(3) 0.57121(2) 0.31245(2)
C1_10 C 0.7833(3) 0.50459(9) 0.41348(9)
C2_10 C 0.8323(3) 0.52137(9) 0.43251(9)
H1_10 H 0.8462 0.5417 0.4278
C3_10 C 0.8616(3) 0.50843(9) 0.45858(9)
C4_10 C 0.8409(3) 0.47774(9) 0.46518(10)
H2_10 H 0.8600 0.4687 0.4825
C5_10 C 0.7921(3) 0.46074(10) 0.44614(10)
C6_10 C 0.7618(3) 0.47447(10) 0.42050(10)
H3_9 H 0.7270 0.4633 0.4081
C7_10 C 0.6250 0.6250 0.35576(11)
C8_10 C 0.5526(3) 0.63101(9) 0.37112(8)
H4_10 H 0.5040 0.6350 0.3609
C9_10 C 0.5523(3) 0.63109(10) 0.40178(9)
C10_10 C 0.6250 0.6250 0.41647(13)
H5_10 H 0.6250 0.6250 0.4369
C11_10 C 0.6250 0.6250 0.32342(11)
N1_10 N 0.6847(2) 0.50547(7) 0.37222(7)
C12_10 C 0.7494(2) 0.51745(7) 0.38639(6)
N2_6 N 0.77790(16) 0.54128(5) 0.37062(5)
N3_10 N 0.73074(17) 0.54400(6) 0.34671(5)
N4_10 N 0.6731(2) 0.52188(7) 0.34769(6)
N5_6 N 0.96463(16) 0.54837(5) 0.47553(4)
N6_6 N 0.99250(17) 0.55776(5) 0.50162(5)
N7_10 N 0.95570(18) 0.54070(6) 0.52226(5)
N8_10 N 0.90510(19) 0.52077(6) 0.50892(5)
C13_10 C 0.91062(19) 0.52552(6) 0.48004(5)
N10_9 N 0.7069(3) 0.38493(9) 0.45313(11)
N11_9 N 0.7029(3) 0.41397(9) 0.44246(11)
N12_10 N 0.6486(2) 0.61260(7) 0.27872(6)
N13_10 N 0.6650(2) 0.60426(7) 0.30676(6)
C14_10 C 0.47713(17) 0.63610(7) 0.41880(6)
N14_10 N 0.4683(2) 0.62770(8) 0.44679(6)
N15_10 N 0.39379(19) 0.63679(8) 0.45574(6)
N16_6 N 0.35657(15) 0.65081(6) 0.43326(5)
N17_6 N 0.40806(15) 0.65039(6) 0.41044(5)
C15_10 C 0.7708(4) 0.42825(10) 0.45259(11)
C16_10 C 0.6974(3) 0.61899(9) 0.37112(8)
H6_10 H 0.7460 0.6150 0.3609
C17_10 C 0.6977(3) 0.61891(10) 0.40178(9)
N19_10 N 0.6014(2) 0.63740(7) 0.27872(6)
N20_10 N 0.5850(2) 0.64574(7) 0.30676(6)
C18_10 C 0.77287(17) 0.61390(7) 0.41880(6)
N21_10 N 0.7817(2) 0.62230(8) 0.44679(6)
N22_10 N 0.85621(19) 0.61321(8) 0.45574(6)
N23_6 N 0.89343(15) 0.59919(6) 0.43326(5)
N24_6 N 0.84194(15) 0.59961(6) 0.41044(5)
Cu4_6 Cu 0.49882(3) 0.67879(2) 0.31245(2)
C19_10 C 0.4667(3) 0.74541(9) 0.41348(9)
C20_10 C 0.4177(3) 0.72863(9) 0.43251(9)
H7_10 H 0.4038 0.7083 0.4278
C21_10 C 0.3884(3) 0.74157(9) 0.45858(9)
C22_10 C 0.4091(3) 0.77226(9) 0.46518(10)
H8_10 H 0.3900 0.7813 0.4825
C23_10 C 0.4579(3) 0.78926(10) 0.44614(10)
C24_10 C 0.4882(3) 0.77553(10) 0.42050(10)
H9_10 H 0.5230 0.7867 0.4081
N25_10 N 0.5653(2) 0.74453(7) 0.37222(7)
C25_10 C 0.5006(2) 0.73255(7) 0.38639(6)
N26_6 N 0.47210(16) 0.70872(5) 0.37062(5)
N27_10 N 0.51926(17) 0.70600(6) 0.34671(5)
N28_10 N 0.5769(2) 0.72812(7) 0.34769(6)
N29_6 N 0.28537(16) 0.70163(5) 0.47553(4)
N30_6 N 0.25750(17) 0.69224(5) 0.50162(5)
N31_10 N 0.29430(18) 0.70930(6) 0.52226(5)
N32_10 N 0.34490(19) 0.72923(6) 0.50892(5)
C26_10 C 0.33938(19) 0.72448(6) 0.48004(5)
N34_10 N 0.5431(3) 0.86507(9) 0.45313(11)
N35_10 N 0.5471(3) 0.83603(9) 0.44246(11)
C27_10 C 0.4792(4) 0.82175(10) 0.45259(11)
Cu6_6 Cu 0.3750 0.67783(2) 0.3750
Cu7_6 Cu 0.99882(3) 0.57121(2) 0.43755(2)
Cu8_6 Cu 0.25118(3) 0.67879(2) 0.43755(2)
N37_11 N 0.97210(16) 0.54128(5) 0.37938(5)
N38_6 N 0.78537(16) 0.54837(5) 0.27447(4)
N39_6 N 0.46463(16) 0.70163(5) 0.27447(4)
N40_6 N 0.75750(17) 0.55776(5) 0.24838(5)
N41_6 N 0.49250(17) 0.69224(5) 0.24838(5)
N44_6 N 0.39343(15) 0.65081(6) 0.31674(5)
N45_6 N 0.85657(15) 0.59919(6) 0.31674(5)
N46_11 N 0.90806(15) 0.59961(6) 0.33956(5)
N37_12 N 0.27790(16) 0.70872(5) 0.37938(5)
N46_12 N 0.34194(15) 0.65039(6) 0.33956(5)
Cu1_7 Cu 0.3750 0.07217(2) 0.3750
Cu2_7 Cu 0.49882(3) 0.07121(2) 0.43755(2)
C1_11 C 0.4667(3) 0.00459(9) 0.33652(9)
C2_11 C 0.4177(3) 0.02137(9) 0.31749(9)
H1_11 H 0.4038 0.0417 0.3222
C3_11 C 0.3884(3) 0.00843(9) 0.29142(9)
C7_11 C 0.6250 0.1250 0.39424(11)
C8_11 C 0.6974(3) 0.13101(9) 0.37888(8)
H4_11 H 0.7460 0.1350 0.3891
C9_11 C 0.6977(3) 0.13109(10) 0.34822(9)
C10_11 C 0.6250 0.1250 0.33353(13)
H5_11 H 0.6250 0.1250 0.3131
C11_11 C 0.6250 0.1250 0.42658(11)
N1_11 N 0.5653(2) 0.00547(7) 0.37778(7)
C12_11 C 0.5006(2) 0.01745(7) 0.36361(6)
N2_7 N 0.47210(16) 0.04128(5) 0.37938(5)
N3_11 N 0.51926(17) 0.04400(6) 0.40329(5)
N4_11 N 0.5769(2) 0.02188(7) 0.40231(6)
N5_7 N 0.28537(16) 0.04837(5) 0.27447(4)
N6_7 N 0.25750(17) 0.05776(5) 0.24838(5)
N7_11 N 0.29430(18) 0.04070(6) 0.22774(5)
N8_11 N 0.34490(19) 0.02077(6) 0.24108(5)
C13_11 C 0.33938(19) 0.02552(6) 0.26996(5)
N12_11 N 0.6014(2) 0.11260(7) 0.47128(6)
N13_11 N 0.5850(2) 0.10426(7) 0.44324(6)
C14_11 C 0.77287(17) 0.13610(7) 0.33120(6)
N14_11 N 0.7817(2) 0.12770(8) 0.30321(6)
N15_11 N 0.85621(19) 0.13679(8) 0.29426(6)
N16_7 N 0.89343(15) 0.15081(6) 0.31674(5)
N17_7 N 0.84194(15) 0.15039(6) 0.33956(5)
C16_11 C 0.5526(3) 0.11899(9) 0.37888(8)
H6_11 H 0.5040 0.1150 0.3891
C17_11 C 0.5523(3) 0.11891(10) 0.34822(9)
N19_11 N 0.6486(2) 0.13740(7) 0.47128(6)
N20_11 N 0.6650(2) 0.14574(7) 0.44324(6)
C18_11 C 0.47713(17) 0.11390(7) 0.33120(6)
N21_11 N 0.4683(2) 0.12230(8) 0.30321(6)
N22_11 N 0.39379(19) 0.11321(8) 0.29426(6)
N23_7 N 0.35657(15) 0.09919(6) 0.31674(5)
N24_7 N 0.40806(15) 0.09961(6) 0.33956(5)
Cu4_7 Cu 0.75118(3) 0.17879(2) 0.43755(2)
C19_11 C 0.7833(3) 0.24541(9) 0.33652(9)
C20_11 C 0.8323(3) 0.22863(9) 0.31749(9)
H7_11 H 0.8462 0.2083 0.3222
C21_11 C 0.8616(3) 0.24157(9) 0.29142(9)
C22_11 C 0.8409(3) 0.27226(9) 0.28482(10)
H8_11 H 0.8600 0.2813 0.2675
C23_11 C 0.7921(3) 0.28926(10) 0.30386(10)
C24_11 C 0.7618(3) 0.27553(10) 0.32950(10)
H9_11 H 0.7270 0.2867 0.3419
N25_11 N 0.6847(2) 0.24453(7) 0.37778(7)
C25_11 C 0.7494(2) 0.23255(7) 0.36361(6)
N26_7 N 0.77790(16) 0.20872(5) 0.37938(5)
N27_11 N 0.73074(17) 0.20600(6) 0.40329(5)
N28_11 N 0.6731(2) 0.22812(7) 0.40231(6)
N29_7 N 0.96463(16) 0.20163(5) 0.27447(4)
N30_7 N 0.99250(17) 0.19224(5) 0.24838(5)
N31_11 N 0.95570(18) 0.20930(6) 0.22774(5)
N32_11 N 0.90510(19) 0.22923(6) 0.24108(5)
C26_11 C 0.91062(19) 0.22448(6) 0.26996(5)
N34_11 N 0.7069(3) 0.36507(9) 0.29687(11)
N35_11 N 0.7029(3) 0.33603(9) 0.30754(11)
C27_11 C 0.7708(4) 0.32175(10) 0.29741(11)
Cu6_7 Cu 0.8750 0.17783(2) 0.3750
Cu7_7 Cu 0.25118(3) 0.07121(2) 0.31245(2)
Cu8_7 Cu 0.99882(3) 0.17879(2) 0.31245(2)
N37_13 N 0.27790(16) 0.04128(5) 0.37062(5)
N38_7 N 0.46463(16) 0.04837(5) 0.47553(4)
N39_7 N 0.78537(16) 0.20163(5) 0.47553(4)
N40_7 N 0.49250(17) 0.05776(5) 0.50162(5)
N41_7 N 0.75750(17) 0.19224(5) 0.50162(5)
N44_7 N 0.85657(15) 0.15081(6) 0.43326(5)
N45_7 N 0.39343(15) 0.09919(6) 0.43326(5)
N46_13 N 0.34194(15) 0.09961(6) 0.41044(5)
C4_11 C 0.4091(3) 0.97774(9) 0.28482(10)
H2_11 H 0.3900 0.9687 0.2675
C5_11 C 0.4579(3) 0.96074(10) 0.30386(10)
C6_11 C 0.4882(3) 0.97447(10) 0.32950(10)
H3_10 H 0.5230 0.9633 0.3419
N10_10 N 0.5431(3) 0.88493(9) 0.29687(11)
N11_10 N 0.5471(3) 0.91397(9) 0.30754(11)
C15_11 C 0.4792(4) 0.92825(10) 0.29741(11)
N37_14 N 0.97210(16) 0.20872(5) 0.37062(5)
N46_14 N 0.90806(15) 0.15039(6) 0.41044(5)
N6_8 N 0.99250(17) 0.05776(5) 0.00162(5)
N7_12 N 0.95570(18) 0.04070(6) 0.02226(5)
N8_12 N 0.90510(19) 0.02077(6) 0.00892(5)
N30_8 N 0.25750(17) 0.19224(5) 0.00162(5)
N31_12 N 0.29430(18) 0.20930(6) 0.02226(5)
N32_12 N 0.34490(19) 0.22923(6) 0.00892(5)
Cu1_8 Cu 0.8750 0.07217(2) 0.8750
Cu2_8 Cu 0.75118(3) 0.07121(2) 0.81245(2)
C1_12 C 0.7833(3) 0.00459(9) 0.91348(9)
C2_12 C 0.8323(3) 0.02137(9) 0.93251(9)
H1_12 H 0.8462 0.0417 0.9278
C3_12 C 0.8616(3) 0.00843(9) 0.95858(9)
C7_12 C 0.6250 0.1250 0.85576(11)
C8_12 C 0.5526(3) 0.13101(9) 0.87112(8)
H4_12 H 0.5040 0.1350 0.8609
C9_12 C 0.5523(3) 0.13109(10) 0.90178(9)
C10_12 C 0.6250 0.1250 0.91647(13)
H5_12 H 0.6250 0.1250 0.9369
C11_12 C 0.6250 0.1250 0.82342(11)
N1_12 N 0.6847(2) 0.00547(7) 0.87222(7)
C12_12 C 0.7494(2) 0.01745(7) 0.88639(6)
N2_8 N 0.77790(16) 0.04128(5) 0.87062(5)
N3_12 N 0.73074(17) 0.04400(6) 0.84671(5)
N4_12 N 0.6731(2) 0.02188(7) 0.84769(6)
N5_8 N 0.96463(16) 0.04837(5) 0.97553(4)
C13_12 C 0.91062(19) 0.02552(6) 0.98004(5)
N12_12 N 0.6486(2) 0.11260(7) 0.77872(6)
N13_12 N 0.6650(2) 0.10426(7) 0.80676(6)
C14_12 C 0.47713(17) 0.13610(7) 0.91880(6)
N14_12 N 0.4683(2) 0.12770(8) 0.94679(6)
N15_12 N 0.39379(19) 0.13679(8) 0.95574(6)
N16_8 N 0.35657(15) 0.15081(6) 0.93326(5)
N17_8 N 0.40806(15) 0.15039(6) 0.91044(5)
C16_12 C 0.6974(3) 0.11899(9) 0.87112(8)
H6_12 H 0.7460 0.1150 0.8609
C17_12 C 0.6977(3) 0.11891(10) 0.90178(9)
N19_12 N 0.6014(2) 0.13740(7) 0.77872(6)
N20_12 N 0.5850(2) 0.14574(7) 0.80676(6)
C18_12 C 0.77287(17) 0.11390(7) 0.91880(6)
N21_12 N 0.7817(2) 0.12230(8) 0.94679(6)
N22_12 N 0.85621(19) 0.11321(8) 0.95574(6)
N23_8 N 0.89343(15) 0.09919(6) 0.93326(5)
N24_8 N 0.84194(15) 0.09961(6) 0.91044(5)
Cu4_8 Cu 0.49882(3) 0.17879(2) 0.81245(2)
C19_12 C 0.4667(3) 0.24541(9) 0.91348(9)
C20_12 C 0.4177(3) 0.22863(9) 0.93251(9)
H7_12 H 0.4038 0.2083 0.9278
C21_12 C 0.3884(3) 0.24157(9) 0.95858(9)
C22_12 C 0.4091(3) 0.27226(9) 0.96518(10)
H8_12 H 0.3900 0.2813 0.9825
C23_12 C 0.4579(3) 0.28926(10) 0.94614(10)
C24_12 C 0.4882(3) 0.27553(10) 0.92050(10)
H9_12 H 0.5230 0.2867 0.9081
N25_12 N 0.5653(2) 0.24453(7) 0.87222(7)
C25_12 C 0.5006(2) 0.23255(7) 0.88639(6)
N26_8 N 0.47210(16) 0.20872(5) 0.87062(5)
N27_12 N 0.51926(17) 0.20600(6) 0.84671(5)
N28_12 N 0.5769(2) 0.22812(7) 0.84769(6)
N29_8 N 0.28537(16) 0.20163(5) 0.97553(4)
C26_12 C 0.33938(19) 0.22448(6) 0.98004(5)
N34_12 N 0.5431(3) 0.36507(9) 0.95313(11)
N35_12 N 0.5471(3) 0.33603(9) 0.94246(11)
C27_12 C 0.4792(4) 0.32175(10) 0.95259(11)
Cu6_8 Cu 0.3750 0.17783(2) 0.8750
Cu7_8 Cu 0.99882(3) 0.07121(2) 0.93755(2)
Cu8_8 Cu 0.25118(3) 0.17879(2) 0.93755(2)
N37_15 N 0.97210(16) 0.04128(5) 0.87938(5)
N38_8 N 0.78537(16) 0.04837(5) 0.77447(4)
N39_8 N 0.46463(16) 0.20163(5) 0.77447(4)
N40_8 N 0.75750(17) 0.05776(5) 0.74838(5)
N41_8 N 0.49250(17) 0.19224(5) 0.74838(5)
N44_8 N 0.39343(15) 0.15081(6) 0.81674(5)
N45_8 N 0.85657(15) 0.09919(6) 0.81674(5)
N46_15 N 0.90806(15) 0.09961(6) 0.83956(5)
C4_12 C 0.8409(3) 0.97774(9) 0.96518(10)
H2_12 H 0.8600 0.9687 0.9825
C5_12 C 0.7921(3) 0.96074(10) 0.94614(10)
C6_12 C 0.7618(3) 0.97447(10) 0.92050(10)
H3_11 H 0.7270 0.9633 0.9081
N10_11 N 0.7069(3) 0.88493(9) 0.95313(11)
N11_11 N 0.7029(3) 0.91397(9) 0.94246(11)
C15_12 C 0.7708(4) 0.92825(10) 0.95259(11)
N37_16 N 0.27790(16) 0.20872(5) 0.87938(5)
N46_16 N 0.34194(15) 0.15039(6) 0.83956(5)
H3_12 H 0.0230 0.4633 0.3419
C7_13 C 0.1250 0.6250 0.39424(11)
C8_13 C 0.1974(3) 0.63101(9) 0.37888(8)
H4_13 H 0.2460 0.6350 0.3891
C9_13 C 0.1977(3) 0.63109(10) 0.34822(9)
C10_13 C 0.1250 0.6250 0.33353(13)
H5_13 H 0.1250 0.6250 0.3131
C11_13 C 0.1250 0.6250 0.42658(11)
N1_13 N 0.0653(2) 0.50547(7) 0.37778(7)
C12_13 C 0.0006(2) 0.51745(7) 0.36361(6)
N3_13 N 0.01926(17) 0.54400(6) 0.40329(5)
N4_13 N 0.0769(2) 0.52188(7) 0.40231(6)
N10_12 N 0.0431(3) 0.38493(9) 0.29687(11)
N11_12 N 0.0471(3) 0.41397(9) 0.30754(11)
N12_13 N 0.1014(2) 0.61260(7) 0.47128(6)
N13_13 N 0.0850(2) 0.60426(7) 0.44324(6)
C14_13 C 0.27287(17) 0.63610(7) 0.33120(6)
N14_13 N 0.2817(2) 0.62770(8) 0.30321(6)
N15_13 N 0.35621(19) 0.63679(8) 0.29426(6)
C16_13 C 0.0526(3) 0.61899(9) 0.37888(8)
H6_13 H 0.0040 0.6150 0.3891
C17_13 C 0.0523(3) 0.61891(10) 0.34822(9)
N19_13 N 0.1486(2) 0.63740(7) 0.47128(6)
N20_13 N 0.1650(2) 0.64574(7) 0.44324(6)
C19_13 C 0.2833(3) 0.74541(9) 0.33652(9)
C20_13 C 0.3323(3) 0.72863(9) 0.31749(9)
H7_13 H 0.3462 0.7083 0.3222
C21_13 C 0.3616(3) 0.74157(9) 0.29142(9)
C22_13 C 0.3409(3) 0.77226(9) 0.28482(10)
H8_13 H 0.3600 0.7813 0.2675
C23_13 C 0.2921(3) 0.78926(10) 0.30386(10)
C24_13 C 0.2618(3) 0.77553(10) 0.32950(10)
H9_13 H 0.2270 0.7867 0.3419
N25_13 N 0.1847(2) 0.74453(7) 0.37778(7)
C25_13 C 0.2494(2) 0.73255(7) 0.36361(6)
N27_13 N 0.23074(17) 0.70600(6) 0.40329(5)
N28_13 N 0.1731(2) 0.72812(7) 0.40231(6)
N31_13 N 0.45570(18) 0.70930(6) 0.22774(5)
N32_13 N 0.40510(19) 0.72923(6) 0.24108(5)
C26_13 C 0.41062(19) 0.72448(6) 0.26996(5)
N34_13 N 0.2069(3) 0.86507(9) 0.29687(11)
N35_13 N 0.2029(3) 0.83603(9) 0.30754(11)
C27_13 C 0.2708(4) 0.82175(10) 0.29741(11)
C1_13 C 0.9667(3) 0.50459(9) 0.33652(9)
C2_13 C 0.9177(3) 0.52137(9) 0.31749(9)
H1_13 H 0.9038 0.5417 0.3222
C3_13 C 0.8884(3) 0.50843(9) 0.29142(9)
C4_13 C 0.9091(3) 0.47774(9) 0.28482(10)
H2_13 H 0.8900 0.4687 0.2675
C5_13 C 0.9579(3) 0.46074(10) 0.30386(10)
C6_13 C 0.9882(3) 0.47447(10) 0.32950(10)
N7_13 N 0.79430(18) 0.54070(6) 0.22774(5)
N8_13 N 0.84490(19) 0.52077(6) 0.24108(5)
C13_13 C 0.83938(19) 0.52552(6) 0.26996(5)
C15_13 C 0.9792(4) 0.42825(10) 0.29741(11)
C18_13 C 0.97713(17) 0.61390(7) 0.33120(6)
N21_13 N 0.9683(2) 0.62230(8) 0.30321(6)
N22_13 N 0.89379(19) 0.61321(8) 0.29426(6)
N7_14 N 0.45570(18) 0.54070(6) 0.02226(5)
N8_14 N 0.40510(19) 0.52077(6) 0.00892(5)
C1_14 C 0.2833(3) 0.50459(9) 0.91348(9)
C2_14 C 0.3323(3) 0.52137(9) 0.93251(9)
H1_14 H 0.3462 0.5417 0.9278
C3_14 C 0.3616(3) 0.50843(9) 0.95858(9)
C4_14 C 0.3409(3) 0.47774(9) 0.96518(10)
H2_14 H 0.3600 0.4687 0.9825
C5_14 C 0.2921(3) 0.46074(10) 0.94614(10)
C6_14 C 0.2618(3) 0.47447(10) 0.92050(10)
H3_13 H 0.2270 0.4633 0.9081
C7_14 C 0.1250 0.6250 0.85576(11)
C8_14 C 0.0526(3) 0.63101(9) 0.87112(8)
H4_14 H 0.0040 0.6350 0.8609
C9_14 C 0.0523(3) 0.63109(10) 0.90178(9)
C10_14 C 0.1250 0.6250 0.91647(13)
H5_14 H 0.1250 0.6250 0.9369
C11_14 C 0.1250 0.6250 0.82342(11)
N1_14 N 0.1847(2) 0.50547(7) 0.87222(7)
C12_14 C 0.2494(2) 0.51745(7) 0.88639(6)
N3_14 N 0.23074(17) 0.54400(6) 0.84671(5)
N4_14 N 0.1731(2) 0.52188(7) 0.84769(6)
C13_14 C 0.41062(19) 0.52552(6) 0.98004(5)
N10_13 N 0.2069(3) 0.38493(9) 0.95313(11)
N11_13 N 0.2029(3) 0.41397(9) 0.94246(11)
N12_14 N 0.1486(2) 0.61260(7) 0.77872(6)
N13_14 N 0.1650(2) 0.60426(7) 0.80676(6)
C15_14 C 0.2708(4) 0.42825(10) 0.95259(11)
C16_14 C 0.1974(3) 0.61899(9) 0.87112(8)
H6_14 H 0.2460 0.6150 0.8609
C17_14 C 0.1977(3) 0.61891(10) 0.90178(9)
N19_14 N 0.1014(2) 0.63740(7) 0.77872(6)
N20_14 N 0.0850(2) 0.64574(7) 0.80676(6)
C18_14 C 0.27287(17) 0.61390(7) 0.91880(6)
N21_14 N 0.2817(2) 0.62230(8) 0.94679(6)
N22_14 N 0.35621(19) 0.61321(8) 0.95574(6)
H9_14 H 0.0230 0.7867 0.9081
N25_14 N 0.0653(2) 0.74453(7) 0.87222(7)
C25_14 C 0.0006(2) 0.73255(7) 0.88639(6)
N27_14 N 0.01926(17) 0.70600(6) 0.84671(5)
N28_14 N 0.0769(2) 0.72812(7) 0.84769(6)
N34_14 N 0.0431(3) 0.86507(9) 0.95313(11)
N35_14 N 0.0471(3) 0.83603(9) 0.94246(11)
N31_14 N 0.79430(18) 0.70930(6) 0.02226(5)
N32_14 N 0.84490(19) 0.72923(6) 0.00892(5)
C14_14 C 0.97713(17) 0.63610(7) 0.91880(6)
N14_14 N 0.9683(2) 0.62770(8) 0.94679(6)
N15_14 N 0.89379(19) 0.63679(8) 0.95574(6)
C19_14 C 0.9667(3) 0.74541(9) 0.91348(9)
C20_14 C 0.9177(3) 0.72863(9) 0.93251(9)
H7_14 H 0.9038 0.7083 0.9278
C21_14 C 0.8884(3) 0.74157(9) 0.95858(9)
C22_14 C 0.9091(3) 0.77226(9) 0.96518(10)
H8_14 H 0.8900 0.7813 0.9825
C23_14 C 0.9579(3) 0.78926(10) 0.94614(10)
C24_14 C 0.9882(3) 0.77553(10) 0.92050(10)
C26_14 C 0.83938(19) 0.72448(6) 0.98004(5)
C27_14 C 0.9792(4) 0.82175(10) 0.95259(11)
C7_15 C 0.1250 0.1250 0.89424(11)
C8_15 C 0.1974(3) 0.13101(9) 0.87888(8)
H4_15 H 0.2460 0.1350 0.8891
C9_15 C 0.1977(3) 0.13109(10) 0.84822(9)
C10_15 C 0.1250 0.1250 0.83353(13)
H5_15 H 0.1250 0.1250 0.8131
C11_15 C 0.1250 0.1250 0.92658(11)
N1_15 N 0.0653(2) 0.00547(7) 0.87778(7)
C12_15 C 0.0006(2) 0.01745(7) 0.86361(6)
N3_15 N 0.01926(17) 0.04400(6) 0.90329(5)
N4_15 N 0.0769(2) 0.02188(7) 0.90231(6)
N12_15 N 0.1014(2) 0.11260(7) 0.97128(6)
N13_15 N 0.0850(2) 0.10426(7) 0.94324(6)
C14_15 C 0.27287(17) 0.13610(7) 0.83120(6)
N14_15 N 0.2817(2) 0.12770(8) 0.80321(6)
N15_15 N 0.35621(19) 0.13679(8) 0.79426(6)
C16_15 C 0.0526(3) 0.11899(9) 0.87888(8)
H6_15 H 0.0040 0.1150 0.8891
C17_15 C 0.0523(3) 0.11891(10) 0.84822(9)
N19_15 N 0.1486(2) 0.13740(7) 0.97128(6)
N20_15 N 0.1650(2) 0.14574(7) 0.94324(6)
C19_15 C 0.2833(3) 0.24541(9) 0.83652(9)
C20_15 C 0.3323(3) 0.22863(9) 0.81749(9)
H7_15 H 0.3462 0.2083 0.8222
C21_15 C 0.3616(3) 0.24157(9) 0.79142(9)
C22_15 C 0.3409(3) 0.27226(9) 0.78482(10)
H8_15 H 0.3600 0.2813 0.7675
C23_15 C 0.2921(3) 0.28926(10) 0.80386(10)
C24_15 C 0.2618(3) 0.27553(10) 0.82950(10)
H9_15 H 0.2270 0.2867 0.8419
N25_15 N 0.1847(2) 0.24453(7) 0.87778(7)
C25_15 C 0.2494(2) 0.23255(7) 0.86361(6)
N27_15 N 0.23074(17) 0.20600(6) 0.90329(5)
N28_15 N 0.1731(2) 0.22812(7) 0.90231(6)
N31_15 N 0.45570(18) 0.20930(6) 0.72774(5)
N32_15 N 0.40510(19) 0.22923(6) 0.74108(5)
C26_15 C 0.41062(19) 0.22448(6) 0.76996(5)
N34_15 N 0.2069(3) 0.36507(9) 0.79687(11)
N35_15 N 0.2029(3) 0.33603(9) 0.80754(11)
C27_15 C 0.2708(4) 0.32175(10) 0.79741(11)
C1_15 C 0.9667(3) 0.00459(9) 0.83652(9)
C2_15 C 0.9177(3) 0.02137(9) 0.81749(9)
H1_15 H 0.9038 0.0417 0.8222
C3_15 C 0.8884(3) 0.00843(9) 0.79142(9)
N7_15 N 0.79430(18) 0.04070(6) 0.72774(5)
N8_15 N 0.84490(19) 0.02077(6) 0.74108(5)
C13_15 C 0.83938(19) 0.02552(6) 0.76996(5)
C18_15 C 0.97713(17) 0.11390(7) 0.83120(6)
N21_15 N 0.9683(2) 0.12230(8) 0.80321(6)
N22_15 N 0.89379(19) 0.11321(8) 0.79426(6)
C4_15 C 0.9091(3) 0.97774(9) 0.78482(10)
H2_15 H 0.8900 0.9687 0.7675
C5_15 C 0.9579(3) 0.96074(10) 0.80386(10)
C6_15 C 0.9882(3) 0.97447(10) 0.82950(10)
C15_15 C 0.9792(4) 0.92825(10) 0.79741(11)
C1_16 C 0.2833(3) 0.00459(9) 0.41348(9)
C2_16 C 0.3323(3) 0.02137(9) 0.43251(9)
H1_16 H 0.3462 0.0417 0.4278
C3_16 C 0.3616(3) 0.00843(9) 0.45858(9)
C7_16 C 0.1250 0.1250 0.35576(11)
C8_16 C 0.0526(3) 0.13101(9) 0.37112(8)
H4_16 H 0.0040 0.1350 0.3609
C9_16 C 0.0523(3) 0.13109(10) 0.40178(9)
C10_16 C 0.1250 0.1250 0.41647(13)
H5_16 H 0.1250 0.1250 0.4369
C11_16 C 0.1250 0.1250 0.32342(11)
N1_16 N 0.1847(2) 0.00547(7) 0.37222(7)
C12_16 C 0.2494(2) 0.01745(7) 0.38639(6)
N3_16 N 0.23074(17) 0.04400(6) 0.34671(5)
N4_16 N 0.1731(2) 0.02188(7) 0.34769(6)
N7_16 N 0.45570(18) 0.04070(6) 0.52226(5)
N8_16 N 0.40510(19) 0.02077(6) 0.50892(5)
C13_16 C 0.41062(19) 0.02552(6) 0.48004(5)
N12_16 N 0.1486(2) 0.11260(7) 0.27872(6)
N13_16 N 0.1650(2) 0.10426(7) 0.30676(6)
C16_16 C 0.1974(3) 0.11899(9) 0.37112(8)
H6_16 H 0.2460 0.1150 0.3609
C17_16 C 0.1977(3) 0.11891(10) 0.40178(9)
N19_16 N 0.1014(2) 0.13740(7) 0.27872(6)
N20_16 N 0.0850(2) 0.14574(7) 0.30676(6)
C18_16 C 0.27287(17) 0.11390(7) 0.41880(6)
N21_16 N 0.2817(2) 0.12230(8) 0.44679(6)
N22_16 N 0.35621(19) 0.11321(8) 0.45574(6)
H9_16 H 0.0230 0.2867 0.4081
N25_16 N 0.0653(2) 0.24453(7) 0.37222(7)
C25_16 C 0.0006(2) 0.23255(7) 0.38639(6)
N27_16 N 0.01926(17) 0.20600(6) 0.34671(5)
N28_16 N 0.0769(2) 0.22812(7) 0.34769(6)
N34_16 N 0.0431(3) 0.36507(9) 0.45313(11)
N35_16 N 0.0471(3) 0.33603(9) 0.44246(11)
C4_16 C 0.3409(3) 0.97774(9) 0.46518(10)
H2_16 H 0.3600 0.9687 0.4825
C5_16 C 0.2921(3) 0.96074(10) 0.44614(10)
C6_16 C 0.2618(3) 0.97447(10) 0.42050(10)
H3_14 H 0.2270 0.9633 0.4081
N10_14 N 0.2069(3) 0.88493(9) 0.45313(11)
N11_14 N 0.2029(3) 0.91397(9) 0.44246(11)
C15_16 C 0.2708(4) 0.92825(10) 0.45259(11)
C14_16 C 0.97713(17) 0.13610(7) 0.41880(6)
N14_16 N 0.9683(2) 0.12770(8) 0.44679(6)
N15_16 N 0.89379(19) 0.13679(8) 0.45574(6)
C19_16 C 0.9667(3) 0.24541(9) 0.41348(9)
C20_16 C 0.9177(3) 0.22863(9) 0.43251(9)
H7_16 H 0.9038 0.2083 0.4278
C21_16 C 0.8884(3) 0.24157(9) 0.45858(9)
C22_16 C 0.9091(3) 0.27226(9) 0.46518(10)
H8_16 H 0.8900 0.2813 0.4825
C23_16 C 0.9579(3) 0.28926(10) 0.44614(10)
C24_16 C 0.9882(3) 0.27553(10) 0.42050(10)
N31_16 N 0.79430(18) 0.20930(6) 0.52226(5)
N32_16 N 0.84490(19) 0.22923(6) 0.50892(5)
C26_16 C 0.83938(19) 0.22448(6) 0.48004(5)
C27_16 C 0.9792(4) 0.32175(10) 0.45259(11)
H3_15 H 0.9770 0.0367 0.1581
N10_15 N 0.9569(3) 0.11507(9) 0.20313(11)
N11_15 N 0.9529(3) 0.08603(9) 0.19246(11)
H3_16 H 0.0230 0.9633 0.8419
N10_16 N 0.0431(3) 0.88493(9) 0.79687(11)
N11_16 N 0.0471(3) 0.91397(9) 0.80754(11)
N49 N 0.8261(13) 0.5497(4) 0.9432(5)
H10 H 0.7932 0.5309 0.9419
H11 H 0.8837 0.5435 0.9440
C28 C 0.8123(18) 0.5690(5) 0.9150(6)
H12 H 0.8240 0.5564 0.8981
H13 H 0.8484 0.5867 0.9151
H14 H 0.7559 0.5759 0.9142
C29 C 0.8044(14) 0.5664(4) 0.9720(4)
H15 H 0.8091 0.5522 0.9881
H16 H 0.7488 0.5741 0.9709
H17 H 0.8417 0.5835 0.9749
H16_2 H 0.0012 0.1759 0.9709
N49_2 N 0.9239(13) 0.2003(4) 0.9432(5)
H10_2 H 0.9568 0.2191 0.9419
H11_2 H 0.8663 0.2065 0.9440
C28_2 C 0.9377(18) 0.1810(5) 0.9150(6)
H12_2 H 0.9260 0.1936 0.8981
H13_2 H 0.9016 0.1633 0.9151
H14_2 H 0.9941 0.1741 0.9142
C29_2 C 0.9456(14) 0.1836(4) 0.9720(4)
H15_2 H 0.9409 0.1978 0.9881
H17_2 H 0.9083 0.1665 0.9749
H16_3 H 0.0012 0.5741 0.7791
N49_3 N 0.9239(13) 0.5497(4) 0.8068(5)
H10_3 H 0.9568 0.5309 0.8081
H11_3 H 0.8663 0.5435 0.8060
C28_3 C 0.9377(18) 0.5690(5) 0.8350(6)
H12_3 H 0.9260 0.5564 0.8519
H13_3 H 0.9016 0.5867 0.8349
H14_3 H 0.9941 0.5759 0.8358
C29_3 C 0.9456(14) 0.5664(4) 0.7780(4)
H15_3 H 0.9409 0.5522 0.7619
H17_3 H 0.9083 0.5835 0.7751
N49_4 N 0.8261(13) 0.2003(4) 0.8068(5)
H10_4 H 0.7932 0.2191 0.8081
H11_4 H 0.8837 0.2065 0.8060
C28_4 C 0.8123(18) 0.1810(5) 0.8350(6)
H12_4 H 0.8240 0.1936 0.8519
H13_4 H 0.8484 0.1633 0.8349
H14_4 H 0.7559 0.1741 0.8358
C29_4 C 0.8044(14) 0.1836(4) 0.7780(4)
H15_4 H 0.8091 0.1978 0.7619
H16_4 H 0.7488 0.1759 0.7791
H17_4 H 0.8417 0.1665 0.7751
N49_5 N 0.8261(13) 0.0497(4) 0.4432(5)
H10_5 H 0.7932 0.0309 0.4419
H11_5 H 0.8837 0.0435 0.4440
C28_5 C 0.8123(18) 0.0690(5) 0.4150(6)
H12_5 H 0.8240 0.0564 0.3981
H13_5 H 0.8484 0.0867 0.4151
H14_5 H 0.7559 0.0759 0.4142
C29_5 C 0.8044(14) 0.0664(4) 0.4720(4)
H15_5 H 0.8091 0.0522 0.4881
H16_5 H 0.7488 0.0741 0.4709
H17_5 H 0.8417 0.0835 0.4749
H16_6 H 0.0012 0.6759 0.4709
N49_6 N 0.9239(13) 0.7003(4) 0.4432(5)
H10_6 H 0.9568 0.7191 0.4419
H11_6 H 0.8663 0.7065 0.4440
C28_6 C 0.9377(18) 0.6810(5) 0.4150(6)
H12_6 H 0.9260 0.6936 0.3981
H13_6 H 0.9016 0.6633 0.4151
H14_6 H 0.9941 0.6741 0.4142
C29_6 C 0.9456(14) 0.6836(4) 0.4720(4)
H15_6 H 0.9409 0.6978 0.4881
H17_6 H 0.9083 0.6665 0.4749
H16_7 H 0.0012 0.0741 0.2791
N49_7 N 0.9239(13) 0.0497(4) 0.3068(5)
H10_7 H 0.9568 0.0309 0.3081
H11_7 H 0.8663 0.0435 0.3060
C28_7 C 0.9377(18) 0.0690(5) 0.3350(6)
H12_7 H 0.9260 0.0564 0.3519
H13_7 H 0.9016 0.0867 0.3349
H14_7 H 0.9941 0.0759 0.3358
C29_7 C 0.9456(14) 0.0664(4) 0.2780(4)
H15_7 H 0.9409 0.0522 0.2619
H17_7 H 0.9083 0.0835 0.2751
N49_8 N 0.8261(13) 0.7003(4) 0.3068(5)
H10_8 H 0.7932 0.7191 0.3081
H11_8 H 0.8837 0.7065 0.3060
C28_8 C 0.8123(18) 0.6810(5) 0.3350(6)
H12_8 H 0.8240 0.6936 0.3519
H13_8 H 0.8484 0.6633 0.3349
H14_8 H 0.7559 0.6741 0.3358
C29_8 C 0.8044(14) 0.6836(4) 0.2780(4)
H15_8 H 0.8091 0.6978 0.2619
H16_8 H 0.7488 0.6759 0.2791
H17_8 H 0.8417 0.6665 0.2751
N49_9 N 0.3261(13) 0.5497(4) 0.4432(5)
H10_9 H 0.2932 0.5309 0.4419
H11_9 H 0.3837 0.5435 0.4440
C28_9 C 0.3123(18) 0.5690(5) 0.4150(6)
H12_9 H 0.3240 0.5564 0.3981
H13_9 H 0.3484 0.5867 0.4151
H14_9 H 0.2559 0.5759 0.4142
C29_9 C 0.3044(14) 0.5664(4) 0.4720(4)
H15_9 H 0.3091 0.5522 0.4881
H16_9 H 0.2488 0.5741 0.4709
H17_9 H 0.3417 0.5835 0.4749
N49_10 N 0.4239(13) 0.2003(4) 0.4432(5)
H10_10 H 0.4568 0.2191 0.4419
H11_10 H 0.3663 0.2065 0.4440
C28_10 C 0.4377(18) 0.1810(5) 0.4150(6)
H12_10 H 0.4260 0.1936 0.3981
H13_10 H 0.4016 0.1633 0.4151
H14_10 H 0.4941 0.1741 0.4142
C29_10 C 0.4456(14) 0.1836(4) 0.4720(4)
H15_10 H 0.4409 0.1978 0.4881
H16_10 H 0.5012 0.1759 0.4709
H17_10 H 0.4083 0.1665 0.4749
N49_11 N 0.4239(13) 0.5497(4) 0.3068(5)
H10_11 H 0.4568 0.5309 0.3081
H11_11 H 0.3663 0.5435 0.3060
C28_11 C 0.4377(18) 0.5690(5) 0.3350(6)
H12_11 H 0.4260 0.5564 0.3519
H13_11 H 0.4016 0.5867 0.3349
H14_11 H 0.4941 0.5759 0.3358
C29_11 C 0.4456(14) 0.5664(4) 0.2780(4)
H15_11 H 0.4409 0.5522 0.2619
H16_11 H 0.5012 0.5741 0.2791
H17_11 H 0.4083 0.5835 0.2751
N49_12 N 0.3261(13) 0.2003(4) 0.3068(5)
H10_12 H 0.2932 0.2191 0.3081
H11_12 H 0.3837 0.2065 0.3060
C28_12 C 0.3123(18) 0.1810(5) 0.3350(6)
H12_12 H 0.3240 0.1936 0.3519
H13_12 H 0.3484 0.1633 0.3349
H14_12 H 0.2559 0.1741 0.3358
C29_12 C 0.3044(14) 0.1836(4) 0.2780(4)
H15_12 H 0.3091 0.1978 0.2619
H16_12 H 0.2488 0.1759 0.2791
H17_12 H 0.3417 0.1665 0.2751
N49_13 N 0.3261(13) 0.0497(4) 0.9432(5)
H10_13 H 0.2932 0.0309 0.9419
H11_13 H 0.3837 0.0435 0.9440
C28_13 C 0.3123(18) 0.0690(5) 0.9150(6)
H12_13 H 0.3240 0.0564 0.8981
H13_13 H 0.3484 0.0867 0.9151
H14_13 H 0.2559 0.0759 0.9142
C29_13 C 0.3044(14) 0.0664(4) 0.9720(4)
H15_13 H 0.3091 0.0522 0.9881
H16_13 H 0.2488 0.0741 0.9709
H17_13 H 0.3417 0.0835 0.9749
N49_14 N 0.4239(13) 0.7003(4) 0.9432(5)
H10_14 H 0.4568 0.7191 0.9419
H11_14 H 0.3663 0.7065 0.9440
C28_14 C 0.4377(18) 0.6810(5) 0.9150(6)
H12_14 H 0.4260 0.6936 0.8981
H13_14 H 0.4016 0.6633 0.9151
H14_14 H 0.4941 0.6741 0.9142
C29_14 C 0.4456(14) 0.6836(4) 0.9720(4)
H15_14 H 0.4409 0.6978 0.9881
H16_14 H 0.5012 0.6759 0.9709
H17_14 H 0.4083 0.6665 0.9749
N49_15 N 0.4239(13) 0.0497(4) 0.8068(5)
H10_15 H 0.4568 0.0309 0.8081
H11_15 H 0.3663 0.0435 0.8060
C28_15 C 0.4377(18) 0.0690(5) 0.8350(6)
H12_15 H 0.4260 0.0564 0.8519
H13_15 H 0.4016 0.0867 0.8349
H14_15 H 0.4941 0.0759 0.8358
C29_15 C 0.4456(14) 0.0664(4) 0.7780(4)
H15_15 H 0.4409 0.0522 0.7619
H16_15 H 0.5012 0.0741 0.7791
H17_15 H 0.4083 0.0835 0.7751
N49_16 N 0.3261(13) 0.7003(4) 0.8068(5)
H10_16 H 0.2932 0.7191 0.8081
H11_16 H 0.3837 0.7065 0.8060
C28_16 C 0.3123(18) 0.6810(5) 0.8350(6)
H12_16 H 0.3240 0.6936 0.8519
H13_16 H 0.3484 0.6633 0.8349
H14_16 H 0.2559 0.6741 0.8358
C29_16 C 0.3044(14) 0.6836(4) 0.7780(4)
H15_16 H 0.3091 0.6978 0.7619
H16_16 H 0.2488 0.6759 0.7791
H17_16 H 0.3417 0.6665 0.7751
N49_17 N 0.1739(13) 0.4503(4) 0.0568(5)
H10_17 H 0.2068 0.4691 0.0581
H11_17 H 0.1163 0.4565 0.0560
C28_17 C 0.1877(18) 0.4310(5) 0.0850(6)
H12_17 H 0.1760 0.4436 0.1019
H13_17 H 0.1516 0.4133 0.0849
H14_17 H 0.2441 0.4241 0.0858
C29_17 C 0.1956(14) 0.4336(4) 0.0280(4)
H15_17 H 0.1909 0.4478 0.0119
H16_17 H 0.2512 0.4259 0.0291
H17_17 H 0.1583 0.4165 0.0251
N49_18 N 0.0761(13) 0.7997(4) 0.0568(5)
H10_18 H 0.0432 0.7809 0.0581
H11_18 H 0.1337 0.7935 0.0560
C28_18 C 0.0623(18) 0.8190(5) 0.0850(6)
H12_18 H 0.0740 0.8064 0.1019
H13_18 H 0.0984 0.8367 0.0849
H14_18 H 0.0059 0.8259 0.0858
C29_18 C 0.0544(14) 0.8164(4) 0.0280(4)
H15_18 H 0.0591 0.8022 0.0119
H17_18 H 0.0917 0.8335 0.0251
H16_18 H 0.9988 0.8241 0.0291
N49_19 N 0.0761(13) 0.4503(4) 0.1932(5)
H10_19 H 0.0432 0.4691 0.1919
H11_19 H 0.1337 0.4565 0.1940
C28_19 C 0.0623(18) 0.4310(5) 0.1650(6)
H12_19 H 0.0740 0.4436 0.1481
H13_19 H 0.0984 0.4133 0.1651
H14_19 H 0.0059 0.4241 0.1642
C29_19 C 0.0544(14) 0.4336(4) 0.2220(4)
H15_19 H 0.0591 0.4478 0.2381
H17_19 H 0.0917 0.4165 0.2249
H16_19 H 0.9988 0.4259 0.2209
N49_20 N 0.1739(13) 0.7997(4) 0.1932(5)
H10_20 H 0.2068 0.7809 0.1919
H11_20 H 0.1163 0.7935 0.1940
C28_20 C 0.1877(18) 0.8190(5) 0.1650(6)
H12_20 H 0.1760 0.8064 0.1481
H13_20 H 0.1516 0.8367 0.1651
H14_20 H 0.2441 0.8259 0.1642
C29_20 C 0.1956(14) 0.8164(4) 0.2220(4)
H15_20 H 0.1909 0.8022 0.2381
H16_20 H 0.2512 0.8241 0.2209
H17_20 H 0.1583 0.8335 0.2249
N49_21 N 0.1739(13) 0.9503(4) 0.5568(5)
H10_21 H 0.2068 0.9691 0.5581
H11_21 H 0.1163 0.9565 0.5560
C28_21 C 0.1877(18) 0.9310(5) 0.5850(6)
H12_21 H 0.1760 0.9436 0.6019
H13_21 H 0.1516 0.9133 0.5849
H14_21 H 0.2441 0.9241 0.5858
C29_21 C 0.1956(14) 0.9336(4) 0.5280(4)
H15_21 H 0.1909 0.9478 0.5119
H16_21 H 0.2512 0.9259 0.5291
H17_21 H 0.1583 0.9165 0.5251
N49_22 N 0.0761(13) 0.2997(4) 0.5568(5)
H10_22 H 0.0432 0.2809 0.5581
H11_22 H 0.1337 0.2935 0.5560
C28_22 C 0.0623(18) 0.3190(5) 0.5850(6)
H12_22 H 0.0740 0.3064 0.6019
H13_22 H 0.0984 0.3367 0.5849
H14_22 H 0.0059 0.3259 0.5858
C29_22 C 0.0544(14) 0.3164(4) 0.5280(4)
H15_22 H 0.0591 0.3022 0.5119
H17_22 H 0.0917 0.3335 0.5251
H16_22 H 0.9988 0.3241 0.5291
N49_23 N 0.0761(13) 0.9503(4) 0.6932(5)
H10_23 H 0.0432 0.9691 0.6919
H11_23 H 0.1337 0.9565 0.6940
C28_23 C 0.0623(18) 0.9310(5) 0.6650(6)
H12_23 H 0.0740 0.9436 0.6481
H13_23 H 0.0984 0.9133 0.6651
H14_23 H 0.0059 0.9241 0.6642
C29_23 C 0.0544(14) 0.9336(4) 0.7220(4)
H15_23 H 0.0591 0.9478 0.7381
H17_23 H 0.0917 0.9165 0.7249
H16_23 H 0.9988 0.9259 0.7209
N49_24 N 0.1739(13) 0.2997(4) 0.6932(5)
H10_24 H 0.2068 0.2809 0.6919
H11_24 H 0.1163 0.2935 0.6940
C28_24 C 0.1877(18) 0.3190(5) 0.6650(6)
H12_24 H 0.1760 0.3064 0.6481
H13_24 H 0.1516 0.3367 0.6651
H14_24 H 0.2441 0.3259 0.6642
C29_24 C 0.1956(14) 0.3164(4) 0.7220(4)
H15_24 H 0.1909 0.3022 0.7381
H16_24 H 0.2512 0.3241 0.7209
H17_24 H 0.1583 0.3335 0.7249
N49_25 N 0.6739(13) 0.4503(4) 0.5568(5)
H10_25 H 0.7068 0.4691 0.5581
H11_25 H 0.6163 0.4565 0.5560
C28_25 C 0.6877(18) 0.4310(5) 0.5850(6)
H12_25 H 0.6760 0.4436 0.6019
H13_25 H 0.6516 0.4133 0.5849
H14_25 H 0.7441 0.4241 0.5858
C29_25 C 0.6956(14) 0.4336(4) 0.5280(4)
H15_25 H 0.6909 0.4478 0.5119
H16_25 H 0.7512 0.4259 0.5291
H17_25 H 0.6583 0.4165 0.5251
N49_26 N 0.5761(13) 0.7997(4) 0.5568(5)
H10_26 H 0.5432 0.7809 0.5581
H11_26 H 0.6337 0.7935 0.5560
C28_26 C 0.5623(18) 0.8190(5) 0.5850(6)
H12_26 H 0.5740 0.8064 0.6019
H13_26 H 0.5984 0.8367 0.5849
H14_26 H 0.5059 0.8259 0.5858
C29_26 C 0.5544(14) 0.8164(4) 0.5280(4)
H15_26 H 0.5591 0.8022 0.5119
H16_26 H 0.4988 0.8241 0.5291
H17_26 H 0.5917 0.8335 0.5251
N49_27 N 0.5761(13) 0.4503(4) 0.6932(5)
H10_27 H 0.5432 0.4691 0.6919
H11_27 H 0.6337 0.4565 0.6940
C28_27 C 0.5623(18) 0.4310(5) 0.6650(6)
H12_27 H 0.5740 0.4436 0.6481
H13_27 H 0.5984 0.4133 0.6651
H14_27 H 0.5059 0.4241 0.6642
C29_27 C 0.5544(14) 0.4336(4) 0.7220(4)
H15_27 H 0.5591 0.4478 0.7381
H16_27 H 0.4988 0.4259 0.7209
H17_27 H 0.5917 0.4165 0.7249
N49_28 N 0.6739(13) 0.7997(4) 0.6932(5)
H10_28 H 0.7068 0.7809 0.6919
H11_28 H 0.6163 0.7935 0.6940
C28_28 C 0.6877(18) 0.8190(5) 0.6650(6)
H12_28 H 0.6760 0.8064 0.6481
H13_28 H 0.6516 0.8367 0.6651
H14_28 H 0.7441 0.8259 0.6642
C29_28 C 0.6956(14) 0.8164(4) 0.7220(4)
H15_28 H 0.6909 0.8022 0.7381
H16_28 H 0.7512 0.8241 0.7209
H17_28 H 0.6583 0.8335 0.7249
N49_29 N 0.6739(13) 0.9503(4) 0.0568(5)
H10_29 H 0.7068 0.9691 0.0581
H11_29 H 0.6163 0.9565 0.0560
C28_29 C 0.6877(18) 0.9310(5) 0.0850(6)
H12_29 H 0.6760 0.9436 0.1019
H13_29 H 0.6516 0.9133 0.0849
H14_29 H 0.7441 0.9241 0.0858
C29_29 C 0.6956(14) 0.9336(4) 0.0280(4)
H15_29 H 0.6909 0.9478 0.0119
H16_29 H 0.7512 0.9259 0.0291
H17_29 H 0.6583 0.9165 0.0251
N49_30 N 0.5761(13) 0.2997(4) 0.0568(5)
H10_30 H 0.5432 0.2809 0.0581
H11_30 H 0.6337 0.2935 0.0560
C28_30 C 0.5623(18) 0.3190(5) 0.0850(6)
H12_30 H 0.5740 0.3064 0.1019
H13_30 H 0.5984 0.3367 0.0849
H14_30 H 0.5059 0.3259 0.0858
C29_30 C 0.5544(14) 0.3164(4) 0.0280(4)
H15_30 H 0.5591 0.3022 0.0119
H16_30 H 0.4988 0.3241 0.0291
H17_30 H 0.5917 0.3335 0.0251
N49_31 N 0.5761(13) 0.9503(4) 0.1932(5)
H10_31 H 0.5432 0.9691 0.1919
H11_31 H 0.6337 0.9565 0.1940
C28_31 C 0.5623(18) 0.9310(5) 0.1650(6)
H12_31 H 0.5740 0.9436 0.1481
H13_31 H 0.5984 0.9133 0.1651
H14_31 H 0.5059 0.9241 0.1642
C29_31 C 0.5544(14) 0.9336(4) 0.2220(4)
H15_31 H 0.5591 0.9478 0.2381
H16_31 H 0.4988 0.9259 0.2209
H17_31 H 0.5917 0.9165 0.2249
N49_32 N 0.6739(13) 0.2997(4) 0.1932(5)
H10_32 H 0.7068 0.2809 0.1919
H11_32 H 0.6163 0.2935 0.1940
C28_32 C 0.6877(18) 0.3190(5) 0.1650(6)
H12_32 H 0.6760 0.3064 0.1481
H13_32 H 0.6516 0.3367 0.1651
H14_32 H 0.7441 0.3259 0.1642
C29_32 C 0.6956(14) 0.3164(4) 0.2220(4)
H15_32 H 0.6909 0.3022 0.2381
H16_32 H 0.7512 0.3241 0.2209
H17_32 H 0.6583 0.3335 0.2249
N50 N 0.197(2) 0.4377(4) 0.8338(3)
H18 H 0.1914 0.4276 0.8149
H19 H 0.2108 0.4592 0.8296
C30 C 0.1066(19) 0.4392(11) 0.8462(11)
H20 H 0.0710 0.4486 0.8319
H21 H 0.1060 0.4513 0.8639
H22 H 0.0876 0.4185 0.8503
C31 C 0.2749(19) 0.4241(8) 0.8471(6)
H23 H 0.3159 0.4217 0.8321
H24 H 0.2626 0.4042 0.8556
H25 H 0.2955 0.4377 0.8621
N50_2 N 0.553(2) 0.3123(4) 0.8338(3)
H18_2 H 0.5586 0.3224 0.8149
H19_2 H 0.5392 0.2908 0.8296
C30_2 C 0.6434(19) 0.3108(11) 0.8462(11)
H20_2 H 0.6790 0.3014 0.8319
H21_2 H 0.6440 0.2987 0.8639
H22_2 H 0.6624 0.3315 0.8503
C31_2 C 0.4751(19) 0.3259(8) 0.8471(6)
H23_2 H 0.4341 0.3283 0.8321
H24_2 H 0.4874 0.3458 0.8556
H25_2 H 0.4545 0.3123 0.8621
N50_3 N 0.553(2) 0.4377(4) 0.9162(3)
H18_3 H 0.5586 0.4276 0.9351
H19_3 H 0.5392 0.4592 0.9204
C30_3 C 0.6434(19) 0.4392(11) 0.9038(11)
H20_3 H 0.6790 0.4486 0.9181
H21_3 H 0.6440 0.4513 0.8861
H22_3 H 0.6624 0.4185 0.8997
C31_3 C 0.4751(19) 0.4241(8) 0.9029(6)
H23_3 H 0.4341 0.4217 0.9179
H24_3 H 0.4874 0.4042 0.8944
H25_3 H 0.4545 0.4377 0.8879
N50_4 N 0.197(2) 0.3123(4) 0.9162(3)
H18_4 H 0.1914 0.3224 0.9351
H19_4 H 0.2108 0.2908 0.9204
C30_4 C 0.1066(19) 0.3108(11) 0.9038(11)
H20_4 H 0.0710 0.3014 0.9181
H21_4 H 0.1060 0.2987 0.8861
H22_4 H 0.0876 0.3315 0.8997
C31_4 C 0.2749(19) 0.3259(8) 0.9029(6)
H23_4 H 0.3159 0.3283 0.9179
H24_4 H 0.2626 0.3458 0.8944
H25_4 H 0.2955 0.3123 0.8879
N50_5 N 0.197(2) 0.9377(4) 0.3338(3)
H18_5 H 0.1914 0.9276 0.3149
H19_5 H 0.2108 0.9592 0.3296
C30_5 C 0.1066(19) 0.9392(11) 0.3462(11)
H20_5 H 0.0710 0.9486 0.3319
H21_5 H 0.1060 0.9513 0.3639
H22_5 H 0.0876 0.9185 0.3503
C31_5 C 0.2749(19) 0.9241(8) 0.3471(6)
H23_5 H 0.3159 0.9217 0.3321
H24_5 H 0.2626 0.9042 0.3556
H25_5 H 0.2955 0.9377 0.3621
N50_6 N 0.553(2) 0.8123(4) 0.3338(3)
H18_6 H 0.5586 0.8224 0.3149
H19_6 H 0.5392 0.7908 0.3296
C30_6 C 0.6434(19) 0.8108(11) 0.3462(11)
H20_6 H 0.6790 0.8014 0.3319
H21_6 H 0.6440 0.7987 0.3639
H22_6 H 0.6624 0.8315 0.3503
C31_6 C 0.4751(19) 0.8259(8) 0.3471(6)
H23_6 H 0.4341 0.8283 0.3321
H24_6 H 0.4874 0.8458 0.3556
H25_6 H 0.4545 0.8123 0.3621
N50_7 N 0.553(2) 0.9377(4) 0.4162(3)
H18_7 H 0.5586 0.9276 0.4351
H19_7 H 0.5392 0.9592 0.4204
C30_7 C 0.6434(19) 0.9392(11) 0.4038(11)
H20_7 H 0.6790 0.9486 0.4181
H21_7 H 0.6440 0.9513 0.3861
H22_7 H 0.6624 0.9185 0.3997
C31_7 C 0.4751(19) 0.9241(8) 0.4029(6)
H23_7 H 0.4341 0.9217 0.4179
H24_7 H 0.4874 0.9042 0.3944
H25_7 H 0.4545 0.9377 0.3879
N50_8 N 0.197(2) 0.8123(4) 0.4162(3)
H18_8 H 0.1914 0.8224 0.4351
H19_8 H 0.2108 0.7908 0.4204
C30_8 C 0.1066(19) 0.8108(11) 0.4038(11)
H20_8 H 0.0710 0.8014 0.4181
H21_8 H 0.1060 0.7987 0.3861
H22_8 H 0.0876 0.8315 0.3997
C31_8 C 0.2749(19) 0.8259(8) 0.4029(6)
H23_8 H 0.3159 0.8283 0.4179
H24_8 H 0.2626 0.8458 0.3944
H25_8 H 0.2955 0.8123 0.3879
N50_9 N 0.697(2) 0.4377(4) 0.3338(3)
H18_9 H 0.6914 0.4276 0.3149
H19_9 H 0.7108 0.4592 0.3296
C30_9 C 0.6066(19) 0.4392(11) 0.3462(11)
H20_9 H 0.5710 0.4486 0.3319
H21_9 H 0.6060 0.4513 0.3639
H22_9 H 0.5876 0.4185 0.3503
C31_9 C 0.7749(19) 0.4241(8) 0.3471(6)
H23_9 H 0.8159 0.4217 0.3321
H24_9 H 0.7626 0.4042 0.3556
H25_9 H 0.7955 0.4377 0.3621
N50_10 N 0.053(2) 0.3123(4) 0.3338(3)
H18_10 H 0.0586 0.3224 0.3149
H19_10 H 0.0392 0.2908 0.3296
C30_10 C 0.1434(19) 0.3108(11) 0.3462(11)
H20_10 H 0.1790 0.3014 0.3319
H21_10 H 0.1440 0.2987 0.3639
H22_10 H 0.1624 0.3315 0.3503
C31_10 C 0.9751(19) 0.3259(8) 0.3471(6)
H23_10 H 0.9341 0.3283 0.3321
H24_10 H 0.9874 0.3458 0.3556
H25_10 H 0.9545 0.3123 0.3621
N50_11 N 0.053(2) 0.4377(4) 0.4162(3)
H18_11 H 0.0586 0.4276 0.4351
H19_11 H 0.0392 0.4592 0.4204
C30_11 C 0.1434(19) 0.4392(11) 0.4038(11)
H20_11 H 0.1790 0.4486 0.4181
H21_11 H 0.1440 0.4513 0.3861
H22_11 H 0.1624 0.4185 0.3997
C31_11 C 0.9751(19) 0.4241(8) 0.4029(6)
H23_11 H 0.9341 0.4217 0.4179
H24_11 H 0.9874 0.4042 0.3944
H25_11 H 0.9545 0.4377 0.3879
N50_12 N 0.697(2) 0.3123(4) 0.4162(3)
H18_12 H 0.6914 0.3224 0.4351
H19_12 H 0.7108 0.2908 0.4204
C30_12 C 0.6066(19) 0.3108(11) 0.4038(11)
H20_12 H 0.5710 0.3014 0.4181
H21_12 H 0.6060 0.2987 0.3861
H22_12 H 0.5876 0.3315 0.3997
C31_12 C 0.7749(19) 0.3259(8) 0.4029(6)
H23_12 H 0.8159 0.3283 0.4179
H24_12 H 0.7626 0.3458 0.3944
H25_12 H 0.7955 0.3123 0.3879
N50_13 N 0.697(2) 0.9377(4) 0.8338(3)
H18_13 H 0.6914 0.9276 0.8149
H19_13 H 0.7108 0.9592 0.8296
C30_13 C 0.6066(19) 0.9392(11) 0.8462(11)
H20_13 H 0.5710 0.9486 0.8319
H21_13 H 0.6060 0.9513 0.8639
H22_13 H 0.5876 0.9185 0.8503
C31_13 C 0.7749(19) 0.9241(8) 0.8471(6)
H23_13 H 0.8159 0.9217 0.8321
H24_13 H 0.7626 0.9042 0.8556
H25_13 H 0.7955 0.9377 0.8621
N50_14 N 0.053(2) 0.8123(4) 0.8338(3)
H18_14 H 0.0586 0.8224 0.8149
H19_14 H 0.0392 0.7908 0.8296
C30_14 C 0.1434(19) 0.8108(11) 0.8462(11)
H20_14 H 0.1790 0.8014 0.8319
H21_14 H 0.1440 0.7987 0.8639
H22_14 H 0.1624 0.8315 0.8503
C31_14 C 0.9751(19) 0.8259(8) 0.8471(6)
H23_14 H 0.9341 0.8283 0.8321
H24_14 H 0.9874 0.8458 0.8556
H25_14 H 0.9545 0.8123 0.8621
N50_15 N 0.053(2) 0.9377(4) 0.9162(3)
H18_15 H 0.0586 0.9276 0.9351
H19_15 H 0.0392 0.9592 0.9204
C30_15 C 0.1434(19) 0.9392(11) 0.9038(11)
H20_15 H 0.1790 0.9486 0.9181
H21_15 H 0.1440 0.9513 0.8861
H22_15 H 0.1624 0.9185 0.8997
C31_15 C 0.9751(19) 0.9241(8) 0.9029(6)
H23_15 H 0.9341 0.9217 0.9179
H24_15 H 0.9874 0.9042 0.8944
H25_15 H 0.9545 0.9377 0.8879
N50_16 N 0.697(2) 0.8123(4) 0.9162(3)
H18_16 H 0.6914 0.8224 0.9351
H19_16 H 0.7108 0.7908 0.9204
C30_16 C 0.6066(19) 0.8108(11) 0.9038(11)
H20_16 H 0.5710 0.8014 0.9181
H21_16 H 0.6060 0.7987 0.8861
H22_16 H 0.5876 0.8315 0.8997
C31_16 C 0.7749(19) 0.8259(8) 0.9029(6)
H23_16 H 0.8159 0.8283 0.9179
H24_16 H 0.7626 0.8458 0.8944
H25_16 H 0.7955 0.8123 0.8879
N50_17 N 0.803(2) 0.5623(4) 0.1662(3)
H18_17 H 0.8086 0.5724 0.1851
H19_17 H 0.7892 0.5408 0.1704
C30_17 C 0.8934(19) 0.5608(11) 0.1538(11)
H20_17 H 0.9290 0.5514 0.1681
H21_17 H 0.8940 0.5487 0.1361
H22_17 H 0.9124 0.5815 0.1497
C31_17 C 0.7251(19) 0.5759(8) 0.1529(6)
H23_17 H 0.6841 0.5783 0.1679
H24_17 H 0.7374 0.5958 0.1444
H25_17 H 0.7045 0.5623 0.1379
N50_18 N 0.447(2) 0.6877(4) 0.1662(3)
H18_18 H 0.4414 0.6776 0.1851
H19_18 H 0.4608 0.7092 0.1704
C30_18 C 0.3566(19) 0.6892(11) 0.1538(11)
H20_18 H 0.3210 0.6986 0.1681
H21_18 H 0.3560 0.7013 0.1361
H22_18 H 0.3376 0.6685 0.1497
C31_18 C 0.5249(19) 0.6741(8) 0.1529(6)
H23_18 H 0.5659 0.6717 0.1679
H24_18 H 0.5126 0.6542 0.1444
H25_18 H 0.5455 0.6877 0.1379
N50_19 N 0.447(2) 0.5623(4) 0.0838(3)
H18_19 H 0.4414 0.5724 0.0649
H19_19 H 0.4608 0.5408 0.0796
C30_19 C 0.3566(19) 0.5608(11) 0.0962(11)
H20_19 H 0.3210 0.5514 0.0819
H21_19 H 0.3560 0.5487 0.1139
H22_19 H 0.3376 0.5815 0.1003
C31_19 C 0.5249(19) 0.5759(8) 0.0971(6)
H23_19 H 0.5659 0.5783 0.0821
H24_19 H 0.5126 0.5958 0.1056
H25_19 H 0.5455 0.5623 0.1121
N50_20 N 0.803(2) 0.6877(4) 0.0838(3)
H18_20 H 0.8086 0.6776 0.0649
H19_20 H 0.7892 0.7092 0.0796
C30_20 C 0.8934(19) 0.6892(11) 0.0962(11)
H20_20 H 0.9290 0.6986 0.0819
H21_20 H 0.8940 0.7013 0.1139
H22_20 H 0.9124 0.6685 0.1003
C31_20 C 0.7251(19) 0.6741(8) 0.0971(6)
H23_20 H 0.6841 0.6717 0.0821
H24_20 H 0.7374 0.6542 0.1056
H25_20 H 0.7045 0.6877 0.1121
N50_21 N 0.803(2) 0.0623(4) 0.6662(3)
H18_21 H 0.8086 0.0724 0.6851
H19_21 H 0.7892 0.0408 0.6704
C30_21 C 0.8934(19) 0.0608(11) 0.6538(11)
H20_21 H 0.9290 0.0514 0.6681
H21_21 H 0.8940 0.0487 0.6361
H22_21 H 0.9124 0.0815 0.6497
C31_21 C 0.7251(19) 0.0759(8) 0.6529(6)
H23_21 H 0.6841 0.0783 0.6679
H24_21 H 0.7374 0.0958 0.6444
H25_21 H 0.7045 0.0623 0.6379
N50_22 N 0.447(2) 0.1877(4) 0.6662(3)
H18_22 H 0.4414 0.1776 0.6851
H19_22 H 0.4608 0.2092 0.6704
C30_22 C 0.3566(19) 0.1892(11) 0.6538(11)
H20_22 H 0.3210 0.1986 0.6681
H21_22 H 0.3560 0.2013 0.6361
H22_22 H 0.3376 0.1685 0.6497
C31_22 C 0.5249(19) 0.1741(8) 0.6529(6)
H23_22 H 0.5659 0.1717 0.6679
H24_22 H 0.5126 0.1542 0.6444
H25_22 H 0.5455 0.1877 0.6379
N50_23 N 0.447(2) 0.0623(4) 0.5838(3)
H18_23 H 0.4414 0.0724 0.5649
H19_23 H 0.4608 0.0408 0.5796
C30_23 C 0.3566(19) 0.0608(11) 0.5962(11)
H20_23 H 0.3210 0.0514 0.5819
H21_23 H 0.3560 0.0487 0.6139
H22_23 H 0.3376 0.0815 0.6003
C31_23 C 0.5249(19) 0.0759(8) 0.5971(6)
H23_23 H 0.5659 0.0783 0.5821
H24_23 H 0.5126 0.0958 0.6056
H25_23 H 0.5455 0.0623 0.6121
N50_24 N 0.803(2) 0.1877(4) 0.5838(3)
H18_24 H 0.8086 0.1776 0.5649
H19_24 H 0.7892 0.2092 0.5796
C30_24 C 0.8934(19) 0.1892(11) 0.5962(11)
H20_24 H 0.9290 0.1986 0.5819
H21_24 H 0.8940 0.2013 0.6139
H22_24 H 0.9124 0.1685 0.6003
C31_24 C 0.7251(19) 0.1741(8) 0.5971(6)
H23_24 H 0.6841 0.1717 0.5821
H24_24 H 0.7374 0.1542 0.6056
H25_24 H 0.7045 0.1877 0.6121
N50_25 N 0.303(2) 0.5623(4) 0.6662(3)
H18_25 H 0.3086 0.5724 0.6851
H19_25 H 0.2892 0.5408 0.6704
C30_25 C 0.3934(19) 0.5608(11) 0.6538(11)
H20_25 H 0.4290 0.5514 0.6681
H21_25 H 0.3940 0.5487 0.6361
H22_25 H 0.4124 0.5815 0.6497
C31_25 C 0.2251(19) 0.5759(8) 0.6529(6)
H23_25 H 0.1841 0.5783 0.6679
H24_25 H 0.2374 0.5958 0.6444
H25_25 H 0.2045 0.5623 0.6379
C31_26 C 0.0249(19) 0.6741(8) 0.6529(6)
H23_26 H 0.0659 0.6717 0.6679
H24_26 H 0.0126 0.6542 0.6444
H25_26 H 0.0455 0.6877 0.6379
N50_26 N 0.947(2) 0.6877(4) 0.6662(3)
H18_26 H 0.9414 0.6776 0.6851
H19_26 H 0.9608 0.7092 0.6704
C30_26 C 0.8566(19) 0.6892(11) 0.6538(11)
H20_26 H 0.8210 0.6986 0.6681
H21_26 H 0.8560 0.7013 0.6361
H22_26 H 0.8376 0.6685 0.6497
C31_27 C 0.0249(19) 0.5759(8) 0.5971(6)
H23_27 H 0.0659 0.5783 0.5821
H24_27 H 0.0126 0.5958 0.6056
H25_27 H 0.0455 0.5623 0.6121
N50_27 N 0.947(2) 0.5623(4) 0.5838(3)
H18_27 H 0.9414 0.5724 0.5649
H19_27 H 0.9608 0.5408 0.5796
C30_27 C 0.8566(19) 0.5608(11) 0.5962(11)
H20_27 H 0.8210 0.5514 0.5819
H21_27 H 0.8560 0.5487 0.6139
H22_27 H 0.8376 0.5815 0.6003
N50_28 N 0.303(2) 0.6877(4) 0.5838(3)
H18_28 H 0.3086 0.6776 0.5649
H19_28 H 0.2892 0.7092 0.5796
C30_28 C 0.3934(19) 0.6892(11) 0.5962(11)
H20_28 H 0.4290 0.6986 0.5819
H21_28 H 0.3940 0.7013 0.6139
H22_28 H 0.4124 0.6685 0.6003
C31_28 C 0.2251(19) 0.6741(8) 0.5971(6)
H23_28 H 0.1841 0.6717 0.5821
H24_28 H 0.2374 0.6542 0.6056
H25_28 H 0.2045 0.6877 0.6121
N50_29 N 0.303(2) 0.0623(4) 0.1662(3)
H18_29 H 0.3086 0.0724 0.1851
H19_29 H 0.2892 0.0408 0.1704
C30_29 C 0.3934(19) 0.0608(11) 0.1538(11)
H20_29 H 0.4290 0.0514 0.1681
H21_29 H 0.3940 0.0487 0.1361
H22_29 H 0.4124 0.0815 0.1497
C31_29 C 0.2251(19) 0.0759(8) 0.1529(6)
H23_29 H 0.1841 0.0783 0.1679
H24_29 H 0.2374 0.0958 0.1444
H25_29 H 0.2045 0.0623 0.1379
C31_30 C 0.0249(19) 0.1741(8) 0.1529(6)
H23_30 H 0.0659 0.1717 0.1679
H24_30 H 0.0126 0.1542 0.1444
H25_30 H 0.0455 0.1877 0.1379
N50_30 N 0.947(2) 0.1877(4) 0.1662(3)
H18_30 H 0.9414 0.1776 0.1851
H19_30 H 0.9608 0.2092 0.1704
C30_30 C 0.8566(19) 0.1892(11) 0.1538(11)
H20_30 H 0.8210 0.1986 0.1681
H21_30 H 0.8560 0.2013 0.1361
H22_30 H 0.8376 0.1685 0.1497
C31_31 C 0.0249(19) 0.0759(8) 0.0971(6)
H23_31 H 0.0659 0.0783 0.0821
H24_31 H 0.0126 0.0958 0.1056
H25_31 H 0.0455 0.0623 0.1121
N50_31 N 0.947(2) 0.0623(4) 0.0838(3)
H18_31 H 0.9414 0.0724 0.0649
H19_31 H 0.9608 0.0408 0.0796
C30_31 C 0.8566(19) 0.0608(11) 0.0962(11)
H20_31 H 0.8210 0.0514 0.0819
H21_31 H 0.8560 0.0487 0.1139
H22_31 H 0.8376 0.0815 0.1003
N50_32 N 0.303(2) 0.1877(4) 0.0838(3)
H18_32 H 0.3086 0.1776 0.0649
H19_32 H 0.2892 0.2092 0.0796
C30_32 C 0.3934(19) 0.1892(11) 0.0962(11)
H20_32 H 0.4290 0.1986 0.0819
H21_32 H 0.3940 0.2013 0.1139
H22_32 H 0.4124 0.1685 0.1003
C31_32 C 0.2251(19) 0.1741(8) 0.0971(6)
H23_32 H 0.1841 0.1717 0.0821
H24_32 H 0.2374 0.1542 0.1056
H25_32 H 0.2045 0.1877 0.1121
loop_
_geom_bond_atom_site_label_1
_geom_bond_atom_site_label_2
_geom_bond_site_symmetry_1
_geom_bond_site_symmetry_2
Cu1 N2 1_555 1_555
Cu2 N3 1_555 1_555
C1 C2 1_555 1_555
C2 H1 1_555 1_555
C3 C2 1_555 1_555
C4 C3 1_555 1_555
H2 C4 1_555 1_555
C5 C4 1_555 1_555
C6 C1 1_555 1_555
H3 C6 1_555 1_555
C7 C8 1_555 1_555
C8 H4 1_555 1_555
C9 C8 1_555 1_555
C10 C9 1_555 1_555
H5 C10 1_555 1_555
C11 C7 1_555 1_555
N1 C12 1_555 1_555
C12 C1 1_555 1_555
N2 C12 1_555 1_555
N3 N2 1_555 1_555
N4 N1 1_555 1_555
N5 N6 1_555 1_555
N6 N7 1_555 1_555
N7 N8 1_555 1_555
N8 C13 1_555 1_555
C13 C3 1_555 1_555
N9 N10 1_555 1_555
N10 N11 1_555 1_555
N11 C15 1_555 1_555
N12 N13 1_555 1_555
N13 Cu2 1_555 1_555
C14 C9 1_555 1_555
N14 C14 1_555 1_555
N15 N14 1_555 1_555
N16 N15 1_555 1_555
N17 C14 1_555 1_555
C15 C5 1_555 1_555
N18 N9 1_555 1_555
C16 C7 1_555 1_555
H6 C16 1_555 1_555
C17 C10 1_555 1_555
N19 N12 1_555 1_555
N20 C11 1_555 1_555
C18 C17 1_555 1_555
N21 C18 1_555 1_555
N22 N21 1_555 1_555
N23 N22 1_555 1_555
N24 Cu1 1_555 1_555
Cu4 N20 1_555 1_555
C19 C20 1_555 1_555
C20 H7 1_555 1_555
C21 C20 1_555 1_555
C22 C21 1_555 1_555
H8 C22 1_555 1_555
C23 C22 1_555 1_555
C24 C19 1_555 1_555
H9 C24 1_555 1_555
N25 C25 1_555 1_555
C25 C19 1_555 1_555
N26 C25 1_555 1_555
N27 Cu4 1_555 1_555
N28 N25 1_555 1_555
N29 N30 1_555 1_555
N30 N31 1_555 1_555
N31 N32 1_555 1_555
N32 C26 1_555 1_555
C26 C21 1_555 1_555
N33 N34 1_555 1_555
N34 N35 1_555 1_555
N35 C27 1_555 1_555
C27 C23 1_555 1_555
N36 N33 1_555 1_555
Cu6 N17 1_555 1_555
Cu7 N5 1_555 1_555
Cu8 N16 1_555 1_555
Cu9 N6 1_555 1_555
Cu11 N18 1_555 1_555
Cu12 N9 1_555 1_555
Cu13 N33 1_555 1_555
Cu14 N36 1_555 1_555
N37 Cu1 1_555 1_555
N38 Cu2 1_555 1_555
N39 Cu4 1_555 1_555
N44 Cu4 1_555 1_555
N45 Cu2 1_555 1_555
N46 Cu1 1_555 1_555
C5 C6 1_555 1_555
C11 N13 1_555 1_555
N3 N4 1_555 1_555
N5 C13 1_555 1_555
N16 N17 1_555 1_555
C15 N18 1_555 1_555
C16 C17 1_555 1_555
N19 N20 1_555 1_555
C18 N24 1_555 1_555
N23 N24 1_555 1_555
N23 Cu7 1_555 1_555
C23 C24 1_555 1_555
N26 N27 1_555 1_555
N26 Cu6 1_555 1_555
N27 N28 1_555 1_555
N29 C26 1_555 1_555
N29 Cu8 1_555 1_555
C27 N36 1_555 1_555
N45 N46 1_555 1_555
N40 Cu3 1_555 1_555
N41 Cu5 1_555 1_555
N42 Cu3 1_555 1_555
N43 Cu5 1_555 1_555
N47 Cu5 1_555 1_555
N48 Cu3 1_555 1_555
N42 N47 1_555 1_555
N43 N48 1_555 1_555
N37_2 Cu6 1_555 1_555
N46_2 Cu6 1_555 1_555
N44 N46_2 1_555 1_555
Cu1_2 N2_2 1_555 1_555
Cu2_2 N3_2 1_555 1_555
Cu3_2 N12_2 1_555 1_555
C1_2 C2_2 1_555 1_555
C2_2 H1_2 1_555 1_555
C3_2 C2_2 1_555 1_555
C4_2 C3_2 1_555 1_555
H2_2 C4_2 1_555 1_555
C5_2 C4_2 1_555 1_555
C6_2 C1_2 1_555 1_555
H3_2 C6_2 1_555 1_555
C7_2 C8_2 1_555 1_555
C8_2 H4_2 1_555 1_555
C9_2 C8_2 1_555 1_555
C10_2 C9_2 1_555 1_555
H5_2 C10_2 1_555 1_555
C11_2 C7_2 1_555 1_555
N1_2 C12_2 1_555 1_555
C12_2 C1_2 1_555 1_555
N2_2 C12_2 1_555 1_555
N3_2 N2_2 1_555 1_555
N4_2 N1_2 1_555 1_555
N5_2 N6_2 1_555 1_555
N6_2 N7_2 1_555 1_555
N7_2 N8_2 1_555 1_555
N8_2 C13_2 1_555 1_555
C13_2 C3_2 1_555 1_555
N9_2 N10_2 1_555 1_555
N10_2 N11_2 1_555 1_555
N11_2 C15_2 1_555 1_555
N12_2 N13_2 1_555 1_555
N13_2 Cu2_2 1_555 1_555
C14_2 C9_2 1_555 1_555
N14_2 C14_2 1_555 1_555
N15_2 N14_2 1_555 1_555
N16_2 N15_2 1_555 1_555
N17_2 C14_2 1_555 1_555
C15_2 C5_2 1_555 1_555
N18_2 N9_2 1_555 1_555
C16_2 C7_2 1_555 1_555
H6_2 C16_2 1_555 1_555
C17_2 C10_2 1_555 1_555
N19_2 N12_2 1_555 1_555
N20_2 C11_2 1_555 1_555
C18_2 C17_2 1_555 1_555
N21_2 C18_2 1_555 1_555
N22_2 N21_2 1_555 1_555
N23_2 N22_2 1_555 1_555
N24_2 Cu1_2 1_555 1_555
Cu4_2 N20_2 1_555 1_555
Cu5_2 N19_2 1_555 1_555
C19_2 C20_2 1_555 1_555
C20_2 H7_2 1_555 1_555
C21_2 C20_2 1_555 1_555
C22_2 C21_2 1_555 1_555
H8_2 C22_2 1_555 1_555
C23_2 C22_2 1_555 1_555
C24_2 C19_2 1_555 1_555
H9_2 C24_2 1_555 1_555
N25_2 C25_2 1_555 1_555
C25_2 C19_2 1_555 1_555
N26_2 C25_2 1_555 1_555
N27_2 Cu4_2 1_555 1_555
N28_2 N25_2 1_555 1_555
N29_2 N30_2 1_555 1_555
N30_2 N31_2 1_555 1_555
N31_2 N32_2 1_555 1_555
N32_2 C26_2 1_555 1_555
C26_2 C21_2 1_555 1_555
N33_2 N34_2 1_555 1_555
N34_2 N35_2 1_555 1_555
N35_2 C27_2 1_555 1_555
C27_2 C23_2 1_555 1_555
N36_2 N33_2 1_555 1_555
Cu6_2 N17_2 1_555 1_555
Cu7_2 N5_2 1_555 1_555
Cu8_2 N16_2 1_555 1_555
Cu10_2 N30_2 1_555 1_555
Cu11_2 N18_2 1_555 1_555
Cu12_2 N9_2 1_555 1_555
Cu13_2 N33_2 1_555 1_555
Cu14_2 N36_2 1_555 1_555
N37_3 Cu1_2 1_555 1_555
N38_2 Cu2_2 1_555 1_555
N39_2 Cu4_2 1_555 1_555
N40_2 Cu3_2 1_555 1_555
N41_2 Cu5_2 1_555 1_555
N42_2 Cu3_2 1_555 1_555
N43_2 Cu5_2 1_555 1_555
N44_2 Cu4_2 1_555 1_555
N45_2 Cu2_2 1_555 1_555
N46_3 Cu1_2 1_555 1_555
N47_2 Cu5_2 1_555 1_555
N48_2 Cu3_2 1_555 1_555
C5_2 C6_2 1_555 1_555
C11_2 N13_2 1_555 1_555
N3_2 N4_2 1_555 1_555
N5_2 C13_2 1_555 1_555
N16_2 N17_2 1_555 1_555
C15_2 N18_2 1_555 1_555
C16_2 C17_2 1_555 1_555
N19_2 N20_2 1_555 1_555
C18_2 N24_2 1_555 1_555
N23_2 N24_2 1_555 1_555
N23_2 Cu7_2 1_555 1_555
C23_2 C24_2 1_555 1_555
N26_2 N27_2 1_555 1_555
N26_2 Cu6_2 1_555 1_555
N27_2 N28_2 1_555 1_555
N29_2 C26_2 1_555 1_555
N29_2 Cu8_2 1_555 1_555
C27_2 N36_2 1_555 1_555
N38_2 N40_2 1_555 1_555
N39_2 N41_2 1_555 1_555
N42_2 N47_2 1_555 1_555
N43_2 N48_2 1_555 1_555
N45_2 N46_3 1_555 1_555
N37_4 Cu6_2 1_555 1_555
N46_4 Cu6_2 1_555 1_555
N44_2 N46_4 1_555 1_555
H2_3 C4_3 1_555 1_555
C5_3 C4_3 1_555 1_555
H3_3 C6_3 1_555 1_555
N9_3 N10_3 1_555 1_555
N10_3 N11_3 1_555 1_555
N11_3 C15_3 1_555 1_555
C15_3 C5_3 1_555 1_555
N18_3 N9_3 1_555 1_555
Cu11_3 N18_3 1_555 1_555
Cu12_3 N9_3 1_555 1_555
C5_3 C6_3 1_555 1_555
C15_3 N18_3 1_555 1_555
Cu1_3 N2_3 1_555 1_555
Cu2_3 N3_3 1_555 1_555
Cu3_3 N12_3 1_555 1_555
C1_3 C2_3 1_555 1_555
C2_3 H1_3 1_555 1_555
C3_3 C2_3 1_555 1_555
C7_3 C8_3 1_555 1_555
C8_3 H4_3 1_555 1_555
C9_3 C8_3 1_555 1_555
C10_3 C9_3 1_555 1_555
H5_3 C10_3 1_555 1_555
C11_3 C7_3 1_555 1_555
N1_3 C12_3 1_555 1_555
C12_3 C1_3 1_555 1_555
N2_3 C12_3 1_555 1_555
N3_3 N2_3 1_555 1_555
N4_3 N1_3 1_555 1_555
N5_3 N6_3 1_555 1_555
N6_3 N7_3 1_555 1_555
N7_3 N8_3 1_555 1_555
N8_3 C13_3 1_555 1_555
C13_3 C3_3 1_555 1_555
N12_3 N13_3 1_555 1_555
N13_3 Cu2_3 1_555 1_555
C14_3 C9_3 1_555 1_555
N14_3 C14_3 1_555 1_555
N15_3 N14_3 1_555 1_555
N16_3 N15_3 1_555 1_555
N17_3 C14_3 1_555 1_555
C16_3 C7_3 1_555 1_555
H6_3 C16_3 1_555 1_555
C17_3 C10_3 1_555 1_555
N19_3 N12_3 1_555 1_555
N20_3 C11_3 1_555 1_555
C18_3 C17_3 1_555 1_555
N21_3 C18_3 1_555 1_555
N22_3 N21_3 1_555 1_555
N23_3 N22_3 1_555 1_555
N24_3 Cu1_3 1_555 1_555
Cu4_3 N20_3 1_555 1_555
Cu5_3 N19_3 1_555 1_555
C19_3 C20_3 1_555 1_555
C20_3 H7_3 1_555 1_555
C21_3 C20_3 1_555 1_555
C22_3 C21_3 1_555 1_555
H8_3 C22_3 1_555 1_555
C23_3 C22_3 1_555 1_555
C24_3 C19_3 1_555 1_555
H9_3 C24_3 1_555 1_555
N25_3 C25_3 1_555 1_555
C25_3 C19_3 1_555 1_555
N26_3 C25_3 1_555 1_555
N27_3 Cu4_3 1_555 1_555
N28_3 N25_3 1_555 1_555
N29_3 N30_3 1_555 1_555
N30_3 N31_3 1_555 1_555
N31_3 N32_3 1_555 1_555
N32_3 C26_3 1_555 1_555
C26_3 C21_3 1_555 1_555
N33_3 N34_3 1_555 1_555
N34_3 N35_3 1_555 1_555
N35_3 C27_3 1_555 1_555
C27_3 C23_3 1_555 1_555
N36_3 N33_3 1_555 1_555
Cu6_3 N17_3 1_555 1_555
Cu7_3 N5_3 1_555 1_555
Cu8_3 N16_3 1_555 1_555
Cu9_3 N6_3 1_555 1_555
Cu13_3 N33_3 1_555 1_555
Cu14_3 N36_3 1_555 1_555
N37_5 Cu1_3 1_555 1_555
N38_3 Cu2_3 1_555 1_555
N39_3 Cu4_3 1_555 1_555
N40_3 Cu3_3 1_555 1_555
N41_3 Cu5_3 1_555 1_555
N42_3 Cu3_3 1_555 1_555
N43_3 Cu5_3 1_555 1_555
N44_3 Cu4_3 1_555 1_555
N45_3 Cu2_3 1_555 1_555
N46_5 Cu1_3 1_555 1_555
N47_3 Cu5_3 1_555 1_555
N48_3 Cu3_3 1_555 1_555
C11_3 N13_3 1_555 1_555
N3_3 N4_3 1_555 1_555
N5_3 C13_3 1_555 1_555
N16_3 N17_3 1_555 1_555
C16_3 C17_3 1_555 1_555
N19_3 N20_3 1_555 1_555
C18_3 N24_3 1_555 1_555
N23_3 N24_3 1_555 1_555
N23_3 Cu7_3 1_555 1_555
C23_3 C24_3 1_555 1_555
N26_3 N27_3 1_555 1_555
N26_3 Cu6_3 1_555 1_555
N27_3 N28_3 1_555 1_555
N29_3 C26_3 1_555 1_555
N29_3 Cu8_3 1_555 1_555
C27_3 N36_3 1_555 1_555
N38_3 N40_3 1_555 1_555
N39_3 N41_3 1_555 1_555
N42_3 N47_3 1_555 1_555
N43_3 N48_3 1_555 1_555
N45_3 N46_5 1_555 1_555
N37_6 Cu6_3 1_555 1_555
N46_6 Cu6_3 1_555 1_555
N44_3 N46_6 1_555 1_555
H2_4 C4_4 1_555 1_555
C5_4 C4_4 1_555 1_555
H3_4 C6_4 1_555 1_555
N9_4 N10_4 1_555 1_555
N10_4 N11_4 1_555 1_555
N11_4 C15_4 1_555 1_555
C15_4 C5_4 1_555 1_555
N18_4 N9_4 1_555 1_555
Cu11_4 N18_4 1_555 1_555
Cu12_4 N9_4 1_555 1_555
C5_4 C6_4 1_555 1_555
C15_4 N18_4 1_555 1_555
Cu1_4 N2_4 1_555 1_555
Cu2_4 N3_4 1_555 1_555
Cu3_4 N12_4 1_555 1_555
C1_4 C2_4 1_555 1_555
C2_4 H1_4 1_555 1_555
C3_4 C2_4 1_555 1_555
C7_4 C8_4 1_555 1_555
C8_4 H4_4 1_555 1_555
C9_4 C8_4 1_555 1_555
C10_4 C9_4 1_555 1_555
H5_4 C10_4 1_555 1_555
C11_4 C7_4 1_555 1_555
N1_4 C12_4 1_555 1_555
C12_4 C1_4 1_555 1_555
N2_4 C12_4 1_555 1_555
N3_4 N2_4 1_555 1_555
N4_4 N1_4 1_555 1_555
C13_4 C3_4 1_555 1_555
N12_4 N13_4 1_555 1_555
N13_4 Cu2_4 1_555 1_555
C14_4 C9_4 1_555 1_555
N14_4 C14_4 1_555 1_555
N15_4 N14_4 1_555 1_555
N16_4 N15_4 1_555 1_555
N17_4 C14_4 1_555 1_555
C16_4 C7_4 1_555 1_555
H6_4 C16_4 1_555 1_555
C17_4 C10_4 1_555 1_555
N19_4 N12_4 1_555 1_555
N20_4 C11_4 1_555 1_555
C18_4 C17_4 1_555 1_555
N21_4 C18_4 1_555 1_555
N22_4 N21_4 1_555 1_555
N23_4 N22_4 1_555 1_555
N24_4 Cu1_4 1_555 1_555
Cu4_4 N20_4 1_555 1_555
Cu5_4 N19_4 1_555 1_555
C19_4 C20_4 1_555 1_555
C20_4 H7_4 1_555 1_555
C21_4 C20_4 1_555 1_555
C22_4 C21_4 1_555 1_555
H8_4 C22_4 1_555 1_555
C23_4 C22_4 1_555 1_555
C24_4 C19_4 1_555 1_555
H9_4 C24_4 1_555 1_555
N25_4 C25_4 1_555 1_555
C25_4 C19_4 1_555 1_555
N26_4 C25_4 1_555 1_555
N27_4 Cu4_4 1_555 1_555
N28_4 N25_4 1_555 1_555
C26_4 C21_4 1_555 1_555
N33_4 N34_4 1_555 1_555
N34_4 N35_4 1_555 1_555
N35_4 C27_4 1_555 1_555
C27_4 C23_4 1_555 1_555
N36_4 N33_4 1_555 1_555
Cu6_4 N17_4 1_555 1_555
Cu7_4 N5_4 1_555 1_555
Cu8_4 N16_4 1_555 1_555
Cu13_4 N33_4 1_555 1_555
Cu14_4 N36_4 1_555 1_555
N37_7 Cu1_4 1_555 1_555
N38_4 Cu2_4 1_555 1_555
N39_4 Cu4_4 1_555 1_555
N40_4 Cu3_4 1_555 1_555
N41_4 Cu5_4 1_555 1_555
N42_4 Cu3_4 1_555 1_555
N43_4 Cu5_4 1_555 1_555
N44_4 Cu4_4 1_555 1_555
N45_4 Cu2_4 1_555 1_555
N46_7 Cu1_4 1_555 1_555
N47_4 Cu5_4 1_555 1_555
N48_4 Cu3_4 1_555 1_555
C11_4 N13_4 1_555 1_555
N3_4 N4_4 1_555 1_555
N5_4 C13_4 1_555 1_555
N16_4 N17_4 1_555 1_555
C16_4 C17_4 1_555 1_555
N19_4 N20_4 1_555 1_555
C18_4 N24_4 1_555 1_555
N23_4 N24_4 1_555 1_555
N23_4 Cu7_4 1_555 1_555
C23_4 C24_4 1_555 1_555
N26_4 N27_4 1_555 1_555
N26_4 Cu6_4 1_555 1_555
N27_4 N28_4 1_555 1_555
N29_4 C26_4 1_555 1_555
N29_4 Cu8_4 1_555 1_555
C27_4 N36_4 1_555 1_555
N38_4 N40_4 1_555 1_555
N39_4 N41_4 1_555 1_555
N42_4 N47_4 1_555 1_555
N43_4 N48_4 1_555 1_555
N45_4 N46_7 1_555 1_555
N6_4 N7_4 1_555 1_555
N7_4 N8_4 1_555 1_555
N30_4 N31_4 1_555 1_555
N31_4 N32_4 1_555 1_555
Cu10_4 N30_4 1_555 1_555
N37_8 Cu6_4 1_555 1_555
N46_8 Cu6_4 1_555 1_555
N44_4 N46_8 1_555 1_555
C1_5 C2_5 1_555 1_555
C2_5 H1_5 1_555 1_555
C3_5 C2_5 1_555 1_555
C4_5 C3_5 1_555 1_555
H2_5 C4_5 1_555 1_555
C5_5 C4_5 1_555 1_555
C6_5 C1_5 1_555 1_555
N40_2 N7_5 1_555 1_555
N7_5 N8_5 1_555 1_555
N8_5 C13_5 1_555 1_555
C13_5 C3_5 1_555 1_555
C15_5 C5_5 1_555 1_555
N18_5 N9_5 1_555 1_555
N21_5 C18_5 1_555 1_555
N22_5 N21_5 1_555 1_555
N45_2 N22_5 1_555 1_555
Cu13_3 N18_5 1_555 1_555
Cu14_3 N9_5 1_555 1_555
C5_5 C6_5 1_555 1_555
N38_2 C13_5 1_555 1_555
C15_5 N18_5 1_555 1_555
C18_5 N46_3 1_555 1_555
Cu9_2 N12_5 1_555 1_555
C7_5 C8_5 1_555 1_555
C8_5 H4_5 1_555 1_555
C9_5 C8_5 1_555 1_555
C10_5 C9_5 1_555 1_555
H5_5 C10_5 1_555 1_555
C11_5 C7_5 1_555 1_555
N1_5 C12_5 1_555 1_555
N4_5 N1_5 1_555 1_555
N10_5 N11_5 1_555 1_555
N12_5 N13_5 1_555 1_555
C14_5 C9_5 1_555 1_555
N14_5 C14_5 1_555 1_555
N15_5 N14_5 1_555 1_555
N44_2 N15_5 1_555 1_555
N46_4 C14_5 1_555 1_555
C16_5 C7_5 1_555 1_555
H6_5 C16_5 1_555 1_555
C17_5 C10_5 1_555 1_555
N19_5 N12_5 1_555 1_555
N20_5 C11_5 1_555 1_555
Cu8_2 N20_5 1_555 1_555
Cu10_2 N19_5 1_555 1_555
C19_5 C20_5 1_555 1_555
C20_5 H7_5 1_555 1_555
C21_5 C20_5 1_555 1_555
C22_5 C21_5 1_555 1_555
H8_5 C22_5 1_555 1_555
C23_5 C22_5 1_555 1_555
C24_5 C19_5 1_555 1_555
H9_5 C24_5 1_555 1_555
N25_5 C25_5 1_555 1_555
C25_5 C19_5 1_555 1_555
N37_4 C25_5 1_555 1_555
N27_5 Cu8_2 1_555 1_555
N28_5 N25_5 1_555 1_555
N41_2 N31_5 1_555 1_555
N31_5 N32_5 1_555 1_555
N32_5 C26_5 1_555 1_555
C26_5 C21_5 1_555 1_555
N33_5 N34_5 1_555 1_555
N34_5 N35_5 1_555 1_555
N35_5 C27_5 1_555 1_555
C27_5 C23_5 1_555 1_555
N36_5 N33_5 1_555 1_555
Cu11_3 N33_5 1_555 1_555
Cu12_3 N36_5 1_555 1_555
N42_5 Cu9_2 1_555 1_555
N43_5 Cu10_2 1_555 1_555
N47_5 Cu10_2 1_555 1_555
N48_5 Cu9_2 1_555 1_555
C11_5 N13_5 1_555 1_555
N3_5 N4_5 1_555 1_555
C16_5 C17_5 1_555 1_555
N19_5 N20_5 1_555 1_555
C23_5 C24_5 1_555 1_555
N37_4 N27_5 1_555 1_555
N27_5 N28_5 1_555 1_555
N39_2 C26_5 1_555 1_555
C27_5 N36_5 1_555 1_555
N42_5 N47_5 1_555 1_555
N43_5 N48_5 1_555 1_555
N14_6 C14_6 1_555 1_555
N15_6 N14_6 1_555 1_555
N44 N15_6 1_555 1_555
N46_2 C14_6 1_555 1_555
C19_6 C20_6 1_555 1_555
C20_6 H7_6 1_555 1_555
C21_6 C20_6 1_555 1_555
C22_6 C21_6 1_555 1_555
H8_6 C22_6 1_555 1_555
C23_6 C22_6 1_555 1_555
C24_6 C19_6 1_555 1_555
C26_6 C21_6 1_555 1_555
C27_6 C23_6 1_555 1_555
N36_6 N33_6 1_555 1_555
Cu11_4 N33_6 1_555 1_555
Cu12_4 N36_6 1_555 1_555
C23_6 C24_6 1_555 1_555
N39 C26_6 1_555 1_555
C27_6 N36_6 1_555 1_555
N41 N31_6 1_555 1_555
N31_6 N32_6 1_555 1_555
Cu7 N3_6 1_555 1_555
Cu9 N12_6 1_555 1_555
C1_6 C2_6 1_555 1_555
C2_6 H1_6 1_555 1_555
C3_6 C2_6 1_555 1_555
C4_6 C3_6 1_555 1_555
H2_6 C4_6 1_555 1_555
C5_6 C4_6 1_555 1_555
C6_6 C1_6 1_555 1_555
H3_6 C6_6 1_555 1_555
C7_6 C8_6 1_555 1_555
C8_6 H4_6 1_555 1_555
C9_6 C8_6 1_555 1_555
C10_6 C9_6 1_555 1_555
H5_6 C10_6 1_555 1_555
C11_6 C7_6 1_555 1_555
N1_6 C12_6 1_555 1_555
C12_6 C1_6 1_555 1_555
N37 C12_6 1_555 1_555
N3_6 N37 1_555 1_555
N4_6 N1_6 1_555 1_555
C13_6 C3_6 1_555 1_555
N9_6 N10_6 1_555 1_555
N10_6 N11_6 1_555 1_555
N11_6 C15_6 1_555 1_555
N12_6 N13_6 1_555 1_555
N13_6 Cu7 1_555 1_555
C15_6 C5_6 1_555 1_555
N18_6 N9_6 1_555 1_555
C16_6 C7_6 1_555 1_555
H6_6 C16_6 1_555 1_555
C17_6 C10_6 1_555 1_555
N19_6 N12_6 1_555 1_555
N20_6 C11_6 1_555 1_555
C18_6 C17_6 1_555 1_555
N21_6 C18_6 1_555 1_555
N22_6 N21_6 1_555 1_555
N45 N22_6 1_555 1_555
Cu10 N19_6 1_555 1_555
N25_6 C25_6 1_555 1_555
N28_6 N25_6 1_555 1_555
N34_6 N35_6 1_555 1_555
Cu13_4 N18_6 1_555 1_555
Cu14_4 N9_6 1_555 1_555
N42_6 Cu9 1_555 1_555
N43_6 Cu10 1_555 1_555
N47_6 Cu10 1_555 1_555
N48_6 Cu9 1_555 1_555
C5_6 C6_6 1_555 1_555
C11_6 N13_6 1_555 1_555
N3_6 N4_6 1_555 1_555
N38 C13_6 1_555 1_555
C15_6 N18_6 1_555 1_555
C16_6 C17_6 1_555 1_555
N19_6 N20_6 1_555 1_555
C18_6 N46 1_555 1_555
N27_6 N28_6 1_555 1_555
N42_6 N47_6 1_555 1_555
N43_6 N48_6 1_555 1_555
N40 N7_6 1_555 1_555
N7_6 N8_6 1_555 1_555
H2_7 C4_7 1_555 1_555
C5_7 C4_7 1_555 1_555
C15_7 C5_7 1_555 1_555
N18_7 N9_7 1_555 1_555
Cu13 N18_7 1_555 1_555
Cu14 N9_7 1_555 1_555
C5_7 C6_7 1_555 1_555
C15_7 N18_7 1_555 1_555
C1_7 C2_7 1_555 1_555
C2_7 H1_7 1_555 1_555
C3_7 C2_7 1_555 1_555
N40_4 N7_7 1_555 1_555
N7_7 N8_7 1_555 1_555
N8_7 C13_7 1_555 1_555
C13_7 C3_7 1_555 1_555
N21_7 C18_7 1_555 1_555
N22_7 N21_7 1_555 1_555
N45_4 N22_7 1_555 1_555
N38_4 C13_7 1_555 1_555
C18_7 N46_7 1_555 1_555
C7_7 C8_7 1_555 1_555
C8_7 H4_7 1_555 1_555
C9_7 C8_7 1_555 1_555
C10_7 C9_7 1_555 1_555
H5_7 C10_7 1_555 1_555
C11_7 C7_7 1_555 1_555
N1_7 C12_7 1_555 1_555
N4_7 N1_7 1_555 1_555
N12_7 N13_7 1_555 1_555
C14_7 C9_7 1_555 1_555
N14_7 C14_7 1_555 1_555
N15_7 N14_7 1_555 1_555
N44_4 N15_7 1_555 1_555
N46_8 C14_7 1_555 1_555
C16_7 C7_7 1_555 1_555
H6_7 C16_7 1_555 1_555
C17_7 C10_7 1_555 1_555
N19_7 N12_7 1_555 1_555
N20_7 C11_7 1_555 1_555
Cu8_4 N20_7 1_555 1_555
C19_7 C20_7 1_555 1_555
C20_7 H7_7 1_555 1_555
C21_7 C20_7 1_555 1_555
C22_7 C21_7 1_555 1_555
H8_7 C22_7 1_555 1_555
C23_7 C22_7 1_555 1_555
C24_7 C19_7 1_555 1_555
H9_7 C24_7 1_555 1_555
N25_7 C25_7 1_555 1_555
C25_7 C19_7 1_555 1_555
N37_8 C25_7 1_555 1_555
N27_7 Cu8_4 1_555 1_555
N28_7 N25_7 1_555 1_555
N41_4 N31_7 1_555 1_555
N31_7 N32_7 1_555 1_555
N32_7 C26_7 1_555 1_555
C26_7 C21_7 1_555 1_555
N33_7 N34_7 1_555 1_555
N34_7 N35_7 1_555 1_555
N35_7 C27_7 1_555 1_555
C27_7 C23_7 1_555 1_555
N36_7 N33_7 1_555 1_555
Cu11 N33_7 1_555 1_555
Cu12 N36_7 1_555 1_555
C11_7 N13_7 1_555 1_555
N3_7 N4_7 1_555 1_555
C16_7 C17_7 1_555 1_555
N19_7 N20_7 1_555 1_555
C23_7 C24_7 1_555 1_555
N37_8 N27_7 1_555 1_555
N27_7 N28_7 1_555 1_555
N39_4 C26_7 1_555 1_555
C27_7 N36_7 1_555 1_555
N42_7 Cu9_4 1_555 1_555
N43_7 Cu10_4 1_555 1_555
N47_7 Cu10_4 1_555 1_555
N48_7 Cu9_4 1_555 1_555
N42_7 N47_7 1_555 1_555
N43_7 N48_7 1_555 1_555
N14_8 C14_8 1_555 1_555
N15_8 N14_8 1_555 1_555
N44_3 N15_8 1_555 1_555
N46_6 C14_8 1_555 1_555
C19_8 C20_8 1_555 1_555
C20_8 H7_8 1_555 1_555
C21_8 C20_8 1_555 1_555
C22_8 C21_8 1_555 1_555
H8_8 C22_8 1_555 1_555
C23_8 C22_8 1_555 1_555
C24_8 C19_8 1_555 1_555
N41_3 N31_8 1_555 1_555
N31_8 N32_8 1_555 1_555
N32_8 C26_8 1_555 1_555
C26_8 C21_8 1_555 1_555
C27_8 C23_8 1_555 1_555
N36_8 N33_8 1_555 1_555
Cu11_2 N33_8 1_555 1_555
Cu12_2 N36_8 1_555 1_555
C23_8 C24_8 1_555 1_555
N39_3 C26_8 1_555 1_555
C27_8 N36_8 1_555 1_555
H2_8 C4_8 1_555 1_555
C5_8 C4_8 1_555 1_555
H3_7 C6_8 1_555 1_555
N9_8 N10_7 1_555 1_555
N10_7 N11_7 1_555 1_555
N11_7 C15_8 1_555 1_555
C15_8 C5_8 1_555 1_555
N18_8 N9_8 1_555 1_555
Cu13_2 N18_8 1_555 1_555
Cu14_2 N9_8 1_555 1_555
C5_8 C6_8 1_555 1_555
C15_8 N18_8 1_555 1_555
Cu7_3 N3_8 1_555 1_555
Cu9_3 N12_8 1_555 1_555
C1_8 C2_8 1_555 1_555
C2_8 H1_8 1_555 1_555
C3_8 C2_8 1_555 1_555
C7_8 C8_8 1_555 1_555
C8_8 H4_8 1_555 1_555
C9_8 C8_8 1_555 1_555
C10_8 C9_8 1_555 1_555
H5_8 C10_8 1_555 1_555
C11_8 C7_8 1_555 1_555
N1_8 C12_8 1_555 1_555
C12_8 C1_8 1_555 1_555
N37_5 C12_8 1_555 1_555
N3_8 N37_5 1_555 1_555
N4_8 N1_8 1_555 1_555
N40_3 N7_8 1_555 1_555
N7_8 N8_8 1_555 1_555
N8_8 C13_8 1_555 1_555
C13_8 C3_8 1_555 1_555
N12_8 N13_8 1_555 1_555
N13_8 Cu7_3 1_555 1_555
C16_8 C7_8 1_555 1_555
H6_8 C16_8 1_555 1_555
C17_8 C10_8 1_555 1_555
N19_8 N12_8 1_555 1_555
N20_8 C11_8 1_555 1_555
C18_8 C17_8 1_555 1_555
N21_8 C18_8 1_555 1_555
N22_8 N21_8 1_555 1_555
N45_3 N22_8 1_555 1_555
Cu10_3 N19_8 1_555 1_555
N25_8 C25_8 1_555 1_555
N28_8 N25_8 1_555 1_555
N34_8 N35_8 1_555 1_555
N42_8 Cu9_3 1_555 1_555
N43_8 Cu10_3 1_555 1_555
N47_8 Cu10_3 1_555 1_555
N48_8 Cu9_3 1_555 1_555
C11_8 N13_8 1_555 1_555
N3_8 N4_8 1_555 1_555
N38_3 C13_8 1_555 1_555
C16_8 C17_8 1_555 1_555
N19_8 N20_8 1_555 1_555
C18_8 N46_5 1_555 1_555
N27_8 N28_8 1_555 1_555
N42_8 N47_8 1_555 1_555
N43_8 N48_8 1_555 1_555
N40_5 Cu13_4 1_555 1_555
N41_5 Cu14_4 1_555 1_555
Cu1_5 N2_5 1_555 1_555
Cu2_5 N3_9 1_555 1_555
C1_9 C2_9 1_555 1_555
C2_9 H1_9 1_555 1_555
C3_9 C2_9 1_555 1_555
C4_9 C3_9 1_555 1_555
H2_9 C4_9 1_555 1_555
C5_9 C4_9 1_555 1_555
C6_9 C1_9 1_555 1_555
H3_8 C6_9 1_555 1_555
C7_9 C8_9 1_555 1_555
C8_9 H4_9 1_555 1_555
C9_9 C8_9 1_555 1_555
C10_9 C9_9 1_555 1_555
H5_9 C10_9 1_555 1_555
C11_9 C7_9 1_555 1_555
N1_9 C12_9 1_555 1_555
C12_9 C1_9 1_555 1_555
N2_5 C12_9 1_555 1_555
N3_9 N2_5 1_555 1_555
N4_9 N1_9 1_555 1_555
N5_5 N6_5 1_555 1_555
N6_5 N7_9 1_555 1_555
N7_9 N8_9 1_555 1_555
N8_9 C13_9 1_555 1_555
C13_9 C3_9 1_555 1_555
N43_2 N10_8 1_555 1_555
N10_8 N11_8 1_555 1_555
N11_8 C15_9 1_555 1_555
N12_9 N13_9 1_555 1_555
N13_9 Cu2_5 1_555 1_555
C14_9 C9_9 1_555 1_555
N14_9 C14_9 1_555 1_555
N15_9 N14_9 1_555 1_555
N16_5 N15_9 1_555 1_555
N17_5 C14_9 1_555 1_555
C15_9 C5_9 1_555 1_555
C16_9 C7_9 1_555 1_555
H6_9 C16_9 1_555 1_555
C17_9 C10_9 1_555 1_555
N19_9 N12_9 1_555 1_555
N20_9 C11_9 1_555 1_555
C18_9 C17_9 1_555 1_555
N21_9 C18_9 1_555 1_555
N22_9 N21_9 1_555 1_555
N23_5 N22_9 1_555 1_555
N24_5 Cu1_5 1_555 1_555
Cu4_5 N20_9 1_555 1_555
C19_9 C20_9 1_555 1_555
C20_9 H7_9 1_555 1_555
C21_9 C20_9 1_555 1_555
C22_9 C21_9 1_555 1_555
H8_9 C22_9 1_555 1_555
C23_9 C22_9 1_555 1_555
C24_9 C19_9 1_555 1_555
H9_9 C24_9 1_555 1_555
N25_9 C25_9 1_555 1_555
C25_9 C19_9 1_555 1_555
N26_5 C25_9 1_555 1_555
N27_9 Cu4_5 1_555 1_555
N28_9 N25_9 1_555 1_555
N29_5 N30_5 1_555 1_555
N30_5 N31_9 1_555 1_555
N31_9 N32_9 1_555 1_555
N32_9 C26_9 1_555 1_555
C26_9 C21_9 1_555 1_555
N42_8 N34_9 1_555 1_555
N34_9 N35_9 1_555 1_555
N35_9 C27_9 1_555 1_555
C27_9 C23_9 1_555 1_555
Cu6_5 N17_5 1_555 1_555
Cu7_5 N5_5 1_555 1_555
Cu8_5 N16_5 1_555 1_555
Cu13_3 N6_5 1_555 1_555
N37_9 Cu1_5 1_555 1_555
N38_5 Cu2_5 1_555 1_555
N39_5 Cu4_5 1_555 1_555
N44_5 Cu4_5 1_555 1_555
N45_5 Cu2_5 1_555 1_555
N46_9 Cu1_5 1_555 1_555
C5_9 C6_9 1_555 1_555
C11_9 N13_9 1_555 1_555
N3_9 N4_9 1_555 1_555
N5_5 C13_9 1_555 1_555
N16_5 N17_5 1_555 1_555
C15_9 N48_2 1_555 1_555
C16_9 C17_9 1_555 1_555
N19_9 N20_9 1_555 1_555
C18_9 N24_5 1_555 1_555
N23_5 N24_5 1_555 1_555
N23_5 Cu7_5 1_555 1_555
C23_9 C24_9 1_555 1_555
N26_5 N27_9 1_555 1_555
N26_5 Cu6_5 1_555 1_555
N27_9 N28_9 1_555 1_555
N29_5 C26_9 1_555 1_555
N29_5 Cu8_5 1_555 1_555
C27_9 N47_8 1_555 1_555
N45_5 N46_9 1_555 1_555
N37_10 Cu6_5 1_555 1_555
N46_10 Cu6_5 1_555 1_555
N44_5 N46_10 1_555 1_555
Cu1_6 N2_6 1_555 1_555
Cu2_6 N3_10 1_555 1_555
Cu11 N12_10 1_555 1_555
C1_10 C2_10 1_555 1_555
C2_10 H1_10 1_555 1_555
C3_10 C2_10 1_555 1_555
C4_10 C3_10 1_555 1_555
H2_10 C4_10 1_555 1_555
C5_10 C4_10 1_555 1_555
C6_10 C1_10 1_555 1_555
H3_9 C6_10 1_555 1_555
C7_10 C8_10 1_555 1_555
C8_10 H4_10 1_555 1_555
C9_10 C8_10 1_555 1_555
C10_10 C9_10 1_555 1_555
H5_10 C10_10 1_555 1_555
C11_10 C7_10 1_555 1_555
N1_10 C12_10 1_555 1_555
C12_10 C1_10 1_555 1_555
N2_6 C12_10 1_555 1_555
N3_10 N2_6 1_555 1_555
N4_10 N1_10 1_555 1_555
N5_6 N6_6 1_555 1_555
N6_6 N7_10 1_555 1_555
N7_10 N8_10 1_555 1_555
N8_10 C13_10 1_555 1_555
C13_10 C3_10 1_555 1_555
N43_5 N10_9 1_555 1_555
N10_9 N11_9 1_555 1_555
N11_9 C15_10 1_555 1_555
N12_10 N13_10 1_555 1_555
N13_10 Cu2_6 1_555 1_555
C14_10 C9_10 1_555 1_555
N14_10 C14_10 1_555 1_555
N15_10 N14_10 1_555 1_555
N16_6 N15_10 1_555 1_555
N17_6 C14_10 1_555 1_555
C15_10 C5_10 1_555 1_555
C16_10 C7_10 1_555 1_555
H6_10 C16_10 1_555 1_555
C17_10 C10_10 1_555 1_555
N19_10 N12_10 1_555 1_555
N20_10 C11_10 1_555 1_555
C18_10 C17_10 1_555 1_555
N21_10 C18_10 1_555 1_555
N22_10 N21_10 1_555 1_555
N23_6 N22_10 1_555 1_555
N24_6 Cu1_6 1_555 1_555
Cu4_6 N20_10 1_555 1_555
Cu12 N19_10 1_555 1_555
C19_10 C20_10 1_555 1_555
C20_10 H7_10 1_555 1_555
C21_10 C20_10 1_555 1_555
C22_10 C21_10 1_555 1_555
H8_10 C22_10 1_555 1_555
C23_10 C22_10 1_555 1_555
C24_10 C19_10 1_555 1_555
H9_10 C24_10 1_555 1_555
N25_10 C25_10 1_555 1_555
C25_10 C19_10 1_555 1_555
N26_6 C25_10 1_555 1_555
N27_10 Cu4_6 1_555 1_555
N28_10 N25_10 1_555 1_555
N29_6 N30_6 1_555 1_555
N30_6 N31_10 1_555 1_555
N31_10 N32_10 1_555 1_555
N32_10 C26_10 1_555 1_555
C26_10 C21_10 1_555 1_555
N42_3 N34_10 1_555 1_555
N34_10 N35_10 1_555 1_555
N35_10 C27_10 1_555 1_555
C27_10 C23_10 1_555 1_555
Cu6_6 N17_6 1_555 1_555
Cu7_6 N5_6 1_555 1_555
Cu8_6 N16_6 1_555 1_555
Cu12_2 N30_6 1_555 1_555
N37_11 Cu1_6 1_555 1_555
N38_6 Cu2_6 1_555 1_555
N39_6 Cu4_6 1_555 1_555
N40_6 Cu11 1_555 1_555
N41_6 Cu12 1_555 1_555
N44_6 Cu4_6 1_555 1_555
N45_6 Cu2_6 1_555 1_555
N46_11 Cu1_6 1_555 1_555
C5_10 C6_10 1_555 1_555
C11_10 N13_10 1_555 1_555
N3_10 N4_10 1_555 1_555
N5_6 C13_10 1_555 1_555
N16_6 N17_6 1_555 1_555
C15_10 N48_5 1_555 1_555
C16_10 C17_10 1_555 1_555
N19_10 N20_10 1_555 1_555
C18_10 N24_6 1_555 1_555
N23_6 N24_6 1_555 1_555
N23_6 Cu7_6 1_555 1_555
C23_10 C24_10 1_555 1_555
N26_6 N27_10 1_555 1_555
N26_6 Cu6_6 1_555 1_555
N27_10 N28_10 1_555 1_555
N29_6 C26_10 1_555 1_555
N29_6 Cu8_6 1_555 1_555
C27_10 N47_3 1_555 1_555
N38_6 N40_6 1_555 1_555
N39_6 N41_6 1_555 1_555
N45_6 N46_11 1_555 1_555
N37_12 Cu6_6 1_555 1_555
N46_12 Cu6_6 1_555 1_555
N44_6 N46_12 1_555 1_555
Cu1_7 N2_7 1_555 1_555
Cu2_7 N3_11 1_555 1_555
Cu13_2 N12_11 1_555 1_555
C1_11 C2_11 1_555 1_555
C2_11 H1_11 1_555 1_555
C3_11 C2_11 1_555 1_555
C7_11 C8_11 1_555 1_555
C8_11 H4_11 1_555 1_555
C9_11 C8_11 1_555 1_555
C10_11 C9_11 1_555 1_555
H5_11 C10_11 1_555 1_555
C11_11 C7_11 1_555 1_555
N1_11 C12_11 1_555 1_555
C12_11 C1_11 1_555 1_555
N2_7 C12_11 1_555 1_555
N3_11 N2_7 1_555 1_555
N4_11 N1_11 1_555 1_555
N5_7 N6_7 1_555 1_555
N6_7 N7_11 1_555 1_555
N7_11 N8_11 1_555 1_555
N8_11 C13_11 1_555 1_555
C13_11 C3_11 1_555 1_555
N12_11 N13_11 1_555 1_555
N13_11 Cu2_7 1_555 1_555
C14_11 C9_11 1_555 1_555
N14_11 C14_11 1_555 1_555
N15_11 N14_11 1_555 1_555
N16_7 N15_11 1_555 1_555
N17_7 C14_11 1_555 1_555
C16_11 C7_11 1_555 1_555
H6_11 C16_11 1_555 1_555
C17_11 C10_11 1_555 1_555
N19_11 N12_11 1_555 1_555
N20_11 C11_11 1_555 1_555
C18_11 C17_11 1_555 1_555
N21_11 C18_11 1_555 1_555
N22_11 N21_11 1_555 1_555
N23_7 N22_11 1_555 1_555
N24_7 Cu1_7 1_555 1_555
Cu4_7 N20_11 1_555 1_555
Cu14_2 N19_11 1_555 1_555
C19_11 C20_11 1_555 1_555
C20_11 H7_11 1_555 1_555
C21_11 C20_11 1_555 1_555
C22_11 C21_11 1_555 1_555
H8_11 C22_11 1_555 1_555
C23_11 C22_11 1_555 1_555
C24_11 C19_11 1_555 1_555
H9_11 C24_11 1_555 1_555
N25_11 C25_11 1_555 1_555
C25_11 C19_11 1_555 1_555
N26_7 C25_11 1_555 1_555
N27_11 Cu4_7 1_555 1_555
N28_11 N25_11 1_555 1_555
N29_7 N30_7 1_555 1_555
N30_7 N31_11 1_555 1_555
N31_11 N32_11 1_555 1_555
N32_11 C26_11 1_555 1_555
C26_11 C21_11 1_555 1_555
N42_6 N34_11 1_555 1_555
N34_11 N35_11 1_555 1_555
N35_11 C27_11 1_555 1_555
C27_11 C23_11 1_555 1_555
Cu6_7 N17_7 1_555 1_555
Cu7_7 N5_7 1_555 1_555
Cu8_7 N16_7 1_555 1_555
Cu13 N6_7 1_555 1_555
N37_13 Cu1_7 1_555 1_555
N38_7 Cu2_7 1_555 1_555
N39_7 Cu4_7 1_555 1_555
N40_7 Cu13_2 1_555 1_555
N41_7 Cu14_2 1_555 1_555
N44_7 Cu4_7 1_555 1_555
N45_7 Cu2_7 1_555 1_555
N46_13 Cu1_7 1_555 1_555
C11_11 N13_11 1_555 1_555
N3_11 N4_11 1_555 1_555
N5_7 C13_11 1_555 1_555
N16_7 N17_7 1_555 1_555
C16_11 C17_11 1_555 1_555
N19_11 N20_11 1_555 1_555
C18_11 N24_7 1_555 1_555
N23_7 N24_7 1_555 1_555
N23_7 Cu7_7 1_555 1_555
C23_11 C24_11 1_555 1_555
N26_7 N27_11 1_555 1_555
N26_7 Cu6_7 1_555 1_555
N27_11 N28_11 1_555 1_555
N29_7 C26_11 1_555 1_555
N29_7 Cu8_7 1_555 1_555
C27_11 N47_6 1_555 1_555
N38_7 N40_7 1_555 1_555
N39_7 N41_7 1_555 1_555
N45_7 N46_13 1_555 1_555
H2_11 C4_11 1_555 1_555
C5_11 C4_11 1_555 1_555
H3_10 C6_11 1_555 1_555
N43_4 N10_10 1_555 1_555
N10_10 N11_10 1_555 1_555
N11_10 C15_11 1_555 1_555
C15_11 C5_11 1_555 1_555
C5_11 C6_11 1_555 1_555
C15_11 N48_4 1_555 1_555
N37_14 Cu6_7 1_555 1_555
N46_14 Cu6_7 1_555 1_555
N44_7 N46_14 1_555 1_555
N6_8 N7_12 1_555 1_555
N7_12 N8_12 1_555 1_555
N30_8 N31_12 1_555 1_555
N31_12 N32_12 1_555 1_555
Cu12_4 N30_8 1_555 1_555
Cu1_8 N2_8 1_555 1_555
Cu2_8 N3_12 1_555 1_555
Cu11_3 N12_12 1_555 1_555
C1_12 C2_12 1_555 1_555
C2_12 H1_12 1_555 1_555
C3_12 C2_12 1_555 1_555
C7_12 C8_12 1_555 1_555
C8_12 H4_12 1_555 1_555
C9_12 C8_12 1_555 1_555
C10_12 C9_12 1_555 1_555
H5_12 C10_12 1_555 1_555
C11_12 C7_12 1_555 1_555
N1_12 C12_12 1_555 1_555
C12_12 C1_12 1_555 1_555
N2_8 C12_12 1_555 1_555
N3_12 N2_8 1_555 1_555
N4_12 N1_12 1_555 1_555
C13_12 C3_12 1_555 1_555
N12_12 N13_12 1_555 1_555
N13_12 Cu2_8 1_555 1_555
C14_12 C9_12 1_555 1_555
N14_12 C14_12 1_555 1_555
N15_12 N14_12 1_555 1_555
N16_8 N15_12 1_555 1_555
N17_8 C14_12 1_555 1_555
C16_12 C7_12 1_555 1_555
H6_12 C16_12 1_555 1_555
C17_12 C10_12 1_555 1_555
N19_12 N12_12 1_555 1_555
N20_12 C11_12 1_555 1_555
C18_12 C17_12 1_555 1_555
N21_12 C18_12 1_555 1_555
N22_12 N21_12 1_555 1_555
N23_8 N22_12 1_555 1_555
N24_8 Cu1_8 1_555 1_555
Cu4_8 N20_12 1_555 1_555
Cu12_3 N19_12 1_555 1_555
C19_12 C20_12 1_555 1_555
C20_12 H7_12 1_555 1_555
C21_12 C20_12 1_555 1_555
C22_12 C21_12 1_555 1_555
H8_12 C22_12 1_555 1_555
C23_12 C22_12 1_555 1_555
C24_12 C19_12 1_555 1_555
H9_12 C24_12 1_555 1_555
N25_12 C25_12 1_555 1_555
C25_12 C19_12 1_555 1_555
N26_8 C25_12 1_555 1_555
N27_12 Cu4_8 1_555 1_555
N28_12 N25_12 1_555 1_555
C26_12 C21_12 1_555 1_555
N42 N34_12 1_555 1_555
N34_12 N35_12 1_555 1_555
N35_12 C27_12 1_555 1_555
C27_12 C23_12 1_555 1_555
Cu6_8 N17_8 1_555 1_555
Cu7_8 N5_8 1_555 1_555
Cu8_8 N16_8 1_555 1_555
N37_15 Cu1_8 1_555 1_555
N38_8 Cu2_8 1_555 1_555
N39_8 Cu4_8 1_555 1_555
N40_8 Cu11_3 1_555 1_555
N41_8 Cu12_3 1_555 1_555
N44_8 Cu4_8 1_555 1_555
N45_8 Cu2_8 1_555 1_555
N46_15 Cu1_8 1_555 1_555
C11_12 N13_12 1_555 1_555
N3_12 N4_12 1_555 1_555
N5_8 C13_12 1_555 1_555
N16_8 N17_8 1_555 1_555
C16_12 C17_12 1_555 1_555
N19_12 N20_12 1_555 1_555
C18_12 N24_8 1_555 1_555
N23_8 N24_8 1_555 1_555
N23_8 Cu7_8 1_555 1_555
C23_12 C24_12 1_555 1_555
N26_8 N27_12 1_555 1_555
N26_8 Cu6_8 1_555 1_555
N27_12 N28_12 1_555 1_555
N29_8 C26_12 1_555 1_555
N29_8 Cu8_8 1_555 1_555
C27_12 N47 1_555 1_555
N38_8 N40_8 1_555 1_555
N39_8 N41_8 1_555 1_555
N45_8 N46_15 1_555 1_555
H2_12 C4_12 1_555 1_555
C5_12 C4_12 1_555 1_555
H3_11 C6_12 1_555 1_555
N43_7 N10_11 1_555 1_555
N10_11 N11_11 1_555 1_555
N11_11 C15_12 1_555 1_555
C15_12 C5_12 1_555 1_555
C5_12 C6_12 1_555 1_555
C15_12 N48_7 1_555 1_555
N37_16 Cu6_8 1_555 1_555
N46_16 Cu6_8 1_555 1_555
N44_8 N46_16 1_555 1_555
Cu11_2 N12_13 1_555 1_555
C7_13 C8_13 1_555 1_555
C8_13 H4_13 1_555 1_555
C9_13 C8_13 1_555 1_555
C10_13 C9_13 1_555 1_555
H5_13 C10_13 1_555 1_555
C11_13 C7_13 1_555 1_555
N1_13 C12_13 1_555 1_555
N4_13 N1_13 1_555 1_555
N10_12 N11_12 1_555 1_555
N12_13 N13_13 1_555 1_555
C14_13 C9_13 1_555 1_555
N14_13 C14_13 1_555 1_555
N15_13 N14_13 1_555 1_555
N44_6 N15_13 1_555 1_555
N46_12 C14_13 1_555 1_555
C16_13 C7_13 1_555 1_555
H6_13 C16_13 1_555 1_555
C17_13 C10_13 1_555 1_555
N19_13 N12_13 1_555 1_555
N20_13 C11_13 1_555 1_555
Cu8_6 N20_13 1_555 1_555
Cu12_2 N19_13 1_555 1_555
C19_13 C20_13 1_555 1_555
C20_13 H7_13 1_555 1_555
C21_13 C20_13 1_555 1_555
C22_13 C21_13 1_555 1_555
H8_13 C22_13 1_555 1_555
C23_13 C22_13 1_555 1_555
C24_13 C19_13 1_555 1_555
H9_13 C24_13 1_555 1_555
N25_13 C25_13 1_555 1_555
C25_13 C19_13 1_555 1_555
N37_12 C25_13 1_555 1_555
N27_13 Cu8_6 1_555 1_555
N28_13 N25_13 1_555 1_555
N41_6 N31_13 1_555 1_555
N31_13 N32_13 1_555 1_555
N32_13 C26_13 1_555 1_555
C26_13 C21_13 1_555 1_555
N42_4 N34_13 1_555 1_555
N34_13 N35_13 1_555 1_555
N35_13 C27_13 1_555 1_555
C27_13 C23_13 1_555 1_555
C11_13 N13_13 1_555 1_555
N3_13 N4_13 1_555 1_555
C16_13 C17_13 1_555 1_555
N19_13 N20_13 1_555 1_555
C23_13 C24_13 1_555 1_555
N37_12 N27_13 1_555 1_555
N27_13 N28_13 1_555 1_555
N39_6 C26_13 1_555 1_555
C27_13 N47_4 1_555 1_555
C1_13 C2_13 1_555 1_555
C2_13 H1_13 1_555 1_555
C3_13 C2_13 1_555 1_555
C4_13 C3_13 1_555 1_555
H2_13 C4_13 1_555 1_555
C5_13 C4_13 1_555 1_555
C6_13 C1_13 1_555 1_555
N40_6 N7_13 1_555 1_555
N7_13 N8_13 1_555 1_555
N8_13 C13_13 1_555 1_555
C13_13 C3_13 1_555 1_555
C15_13 C5_13 1_555 1_555
N21_13 C18_13 1_555 1_555
N22_13 N21_13 1_555 1_555
N45_6 N22_13 1_555 1_555
C5_13 C6_13 1_555 1_555
N38_6 C13_13 1_555 1_555
C15_13 N48_6 1_555 1_555
C18_13 N46_11 1_555 1_555
N40_5 N7_14 1_555 1_555
N7_14 N8_14 1_555 1_555
Cu7_5 N3_14 1_555 1_555
Cu13_3 N12_14 1_555 1_555
C1_14 C2_14 1_555 1_555
C2_14 H1_14 1_555 1_555
C3_14 C2_14 1_555 1_555
C4_14 C3_14 1_555 1_555
H2_14 C4_14 1_555 1_555
C5_14 C4_14 1_555 1_555
C6_14 C1_14 1_555 1_555
H3_13 C6_14 1_555 1_555
C7_14 C8_14 1_555 1_555
C8_14 H4_14 1_555 1_555
C9_14 C8_14 1_555 1_555
C10_14 C9_14 1_555 1_555
H5_14 C10_14 1_555 1_555
C11_14 C7_14 1_555 1_555
N1_14 C12_14 1_555 1_555
C12_14 C1_14 1_555 1_555
N37_9 C12_14 1_555 1_555
N3_14 N37_9 1_555 1_555
N4_14 N1_14 1_555 1_555
C13_14 C3_14 1_555 1_555
N43 N10_13 1_555 1_555
N10_13 N11_13 1_555 1_555
N11_13 C15_14 1_555 1_555
N12_14 N13_14 1_555 1_555
N13_14 Cu7_5 1_555 1_555
C15_14 C5_14 1_555 1_555
C16_14 C7_14 1_555 1_555
H6_14 C16_14 1_555 1_555
C17_14 C10_14 1_555 1_555
N19_14 N12_14 1_555 1_555
N20_14 C11_14 1_555 1_555
C18_14 C17_14 1_555 1_555
N21_14 C18_14 1_555 1_555
N22_14 N21_14 1_555 1_555
N45_5 N22_14 1_555 1_555
Cu14_3 N19_14 1_555 1_555
N25_14 C25_14 1_555 1_555
N28_14 N25_14 1_555 1_555
N34_14 N35_14 1_555 1_555
C5_14 C6_14 1_555 1_555
C11_14 N13_14 1_555 1_555
N3_14 N4_14 1_555 1_555
N38_5 C13_14 1_555 1_555
C15_14 N48 1_555 1_555
C16_14 C17_14 1_555 1_555
N19_14 N20_14 1_555 1_555
C18_14 N46_9 1_555 1_555
N27_14 N28_14 1_555 1_555
N41_5 N31_14 1_555 1_555
N31_14 N32_14 1_555 1_555
N14_14 C14_14 1_555 1_555
N15_14 N14_14 1_555 1_555
N44_5 N15_14 1_555 1_555
N46_10 C14_14 1_555 1_555
C19_14 C20_14 1_555 1_555
C20_14 H7_14 1_555 1_555
C21_14 C20_14 1_555 1_555
C22_14 C21_14 1_555 1_555
H8_14 C22_14 1_555 1_555
C23_14 C22_14 1_555 1_555
C24_14 C19_14 1_555 1_555
C26_14 C21_14 1_555 1_555
C27_14 C23_14 1_555 1_555
C23_14 C24_14 1_555 1_555
N39_5 C26_14 1_555 1_555
C27_14 N47_7 1_555 1_555
C7_15 C8_15 1_555 1_555
C8_15 H4_15 1_555 1_555
C9_15 C8_15 1_555 1_555
C10_15 C9_15 1_555 1_555
H5_15 C10_15 1_555 1_555
C11_15 C7_15 1_555 1_555
N1_15 C12_15 1_555 1_555
N4_15 N1_15 1_555 1_555
N12_15 N13_15 1_555 1_555
C14_15 C9_15 1_555 1_555
N14_15 C14_15 1_555 1_555
N15_15 N14_15 1_555 1_555
N44_8 N15_15 1_555 1_555
N46_16 C14_15 1_555 1_555
C16_15 C7_15 1_555 1_555
H6_15 C16_15 1_555 1_555
C17_15 C10_15 1_555 1_555
N19_15 N12_15 1_555 1_555
N20_15 C11_15 1_555 1_555
Cu8_8 N20_15 1_555 1_555
C19_15 C20_15 1_555 1_555
C20_15 H7_15 1_555 1_555
C21_15 C20_15 1_555 1_555
C22_15 C21_15 1_555 1_555
H8_15 C22_15 1_555 1_555
C23_15 C22_15 1_555 1_555
C24_15 C19_15 1_555 1_555
H9_15 C24_15 1_555 1_555
N25_15 C25_15 1_555 1_555
C25_15 C19_15 1_555 1_555
N37_16 C25_15 1_555 1_555
N27_15 Cu8_8 1_555 1_555
N28_15 N25_15 1_555 1_555
N41_8 N31_15 1_555 1_555
N31_15 N32_15 1_555 1_555
N32_15 C26_15 1_555 1_555
C26_15 C21_15 1_555 1_555
N42_2 N34_15 1_555 1_555
N34_15 N35_15 1_555 1_555
N35_15 C27_15 1_555 1_555
C27_15 C23_15 1_555 1_555
C11_15 N13_15 1_555 1_555
N3_15 N4_15 1_555 1_555
C16_15 C17_15 1_555 1_555
N19_15 N20_15 1_555 1_555
C23_15 C24_15 1_555 1_555
N37_16 N27_15 1_555 1_555
N27_15 N28_15 1_555 1_555
N39_8 C26_15 1_555 1_555
C27_15 N47_2 1_555 1_555
C1_15 C2_15 1_555 1_555
C2_15 H1_15 1_555 1_555
C3_15 C2_15 1_555 1_555
N40_8 N7_15 1_555 1_555
N7_15 N8_15 1_555 1_555
N8_15 C13_15 1_555 1_555
C13_15 C3_15 1_555 1_555
N21_15 C18_15 1_555 1_555
N22_15 N21_15 1_555 1_555
N45_8 N22_15 1_555 1_555
N38_8 C13_15 1_555 1_555
C18_15 N46_15 1_555 1_555
H2_15 C4_15 1_555 1_555
C5_15 C4_15 1_555 1_555
C15_15 C5_15 1_555 1_555
C5_15 C6_15 1_555 1_555
C15_15 N48_8 1_555 1_555
Cu7_7 N3_16 1_555 1_555
Cu13 N12_16 1_555 1_555
C1_16 C2_16 1_555 1_555
C2_16 H1_16 1_555 1_555
C3_16 C2_16 1_555 1_555
C7_16 C8_16 1_555 1_555
C8_16 H4_16 1_555 1_555
C9_16 C8_16 1_555 1_555
C10_16 C9_16 1_555 1_555
H5_16 C10_16 1_555 1_555
C11_16 C7_16 1_555 1_555
N1_16 C12_16 1_555 1_555
C12_16 C1_16 1_555 1_555
N37_13 C12_16 1_555 1_555
N3_16 N37_13 1_555 1_555
N4_16 N1_16 1_555 1_555
N40_7 N7_16 1_555 1_555
N7_16 N8_16 1_555 1_555
N8_16 C13_16 1_555 1_555
C13_16 C3_16 1_555 1_555
N12_16 N13_16 1_555 1_555
N13_16 Cu7_7 1_555 1_555
C16_16 C7_16 1_555 1_555
H6_16 C16_16 1_555 1_555
C17_16 C10_16 1_555 1_555
N19_16 N12_16 1_555 1_555
N20_16 C11_16 1_555 1_555
C18_16 C17_16 1_555 1_555
N21_16 C18_16 1_555 1_555
N22_16 N21_16 1_555 1_555
N45_7 N22_16 1_555 1_555
Cu14 N19_16 1_555 1_555
N25_16 C25_16 1_555 1_555
N28_16 N25_16 1_555 1_555
N34_16 N35_16 1_555 1_555
C11_16 N13_16 1_555 1_555
N3_16 N4_16 1_555 1_555
N38_7 C13_16 1_555 1_555
C16_16 C17_16 1_555 1_555
N19_16 N20_16 1_555 1_555
C18_16 N46_13 1_555 1_555
N27_16 N28_16 1_555 1_555
H2_16 C4_16 1_555 1_555
C5_16 C4_16 1_555 1_555
H3_14 C6_16 1_555 1_555
N43_3 N10_14 1_555 1_555
N10_14 N11_14 1_555 1_555
N11_14 C15_16 1_555 1_555
C15_16 C5_16 1_555 1_555
C5_16 C6_16 1_555 1_555
C15_16 N48_3 1_555 1_555
N14_16 C14_16 1_555 1_555
N15_16 N14_16 1_555 1_555
N44_7 N15_16 1_555 1_555
N46_14 C14_16 1_555 1_555
C19_16 C20_16 1_555 1_555
C20_16 H7_16 1_555 1_555
C21_16 C20_16 1_555 1_555
C22_16 C21_16 1_555 1_555
H8_16 C22_16 1_555 1_555
C23_16 C22_16 1_555 1_555
C24_16 C19_16 1_555 1_555
N41_7 N31_16 1_555 1_555
N31_16 N32_16 1_555 1_555
N32_16 C26_16 1_555 1_555
C26_16 C21_16 1_555 1_555
C27_16 C23_16 1_555 1_555
C23_16 C24_16 1_555 1_555
N39_7 C26_16 1_555 1_555
C27_16 N47_5 1_555 1_555
N10_15 N11_15 1_555 1_555
N10_16 N11_16 1_555 1_555
N49 H10 1_555 1_555
H11 N49 1_555 1_555
C28 N49 1_555 1_555
H12 C28 1_555 1_555
H13 C28 1_555 1_555
H14 C28 1_555 1_555
C29 N49 1_555 1_555
H15 C29 1_555 1_555
H16 C29 1_555 1_555
H17 C29 1_555 1_555
N49_2 H10_2 1_555 1_555
H11_2 N49_2 1_555 1_555
C28_2 N49_2 1_555 1_555
H12_2 C28_2 1_555 1_555
H13_2 C28_2 1_555 1_555
H14_2 C28_2 1_555 1_555
C29_2 N49_2 1_555 1_555
H15_2 C29_2 1_555 1_555
H17_2 C29_2 1_555 1_555
N49_3 H10_3 1_555 1_555
H11_3 N49_3 1_555 1_555
C28_3 N49_3 1_555 1_555
H12_3 C28_3 1_555 1_555
H13_3 C28_3 1_555 1_555
H14_3 C28_3 1_555 1_555
C29_3 N49_3 1_555 1_555
H15_3 C29_3 1_555 1_555
H17_3 C29_3 1_555 1_555
N49_4 H10_4 1_555 1_555
H11_4 N49_4 1_555 1_555
C28_4 N49_4 1_555 1_555
H12_4 C28_4 1_555 1_555
H13_4 C28_4 1_555 1_555
H14_4 C28_4 1_555 1_555
C29_4 N49_4 1_555 1_555
H15_4 C29_4 1_555 1_555
H16_4 C29_4 1_555 1_555
H17_4 C29_4 1_555 1_555
N49_5 H10_5 1_555 1_555
H11_5 N49_5 1_555 1_555
C28_5 N49_5 1_555 1_555
H12_5 C28_5 1_555 1_555
H13_5 C28_5 1_555 1_555
H14_5 C28_5 1_555 1_555
C29_5 N49_5 1_555 1_555
H15_5 C29_5 1_555 1_555
H16_5 C29_5 1_555 1_555
H17_5 C29_5 1_555 1_555
N49_6 H10_6 1_555 1_555
H11_6 N49_6 1_555 1_555
C28_6 N49_6 1_555 1_555
H12_6 C28_6 1_555 1_555
H13_6 C28_6 1_555 1_555
H14_6 C28_6 1_555 1_555
C29_6 N49_6 1_555 1_555
H15_6 C29_6 1_555 1_555
H17_6 C29_6 1_555 1_555
N49_7 H10_7 1_555 1_555
H11_7 N49_7 1_555 1_555
C28_7 N49_7 1_555 1_555
H12_7 C28_7 1_555 1_555
H13_7 C28_7 1_555 1_555
H14_7 C28_7 1_555 1_555
C29_7 N49_7 1_555 1_555
H15_7 C29_7 1_555 1_555
H17_7 C29_7 1_555 1_555
N49_8 H10_8 1_555 1_555
H11_8 N49_8 1_555 1_555
C28_8 N49_8 1_555 1_555
H12_8 C28_8 1_555 1_555
H13_8 C28_8 1_555 1_555
H14_8 C28_8 1_555 1_555
C29_8 N49_8 1_555 1_555
H15_8 C29_8 1_555 1_555
H16_8 C29_8 1_555 1_555
H17_8 C29_8 1_555 1_555
N49_9 H10_9 1_555 1_555
H11_9 N49_9 1_555 1_555
C28_9 N49_9 1_555 1_555
H12_9 C28_9 1_555 1_555
H13_9 C28_9 1_555 1_555
H14_9 C28_9 1_555 1_555
C29_9 N49_9 1_555 1_555
H15_9 C29_9 1_555 1_555
H16_9 C29_9 1_555 1_555
H17_9 C29_9 1_555 1_555
N49_10 H10_10 1_555 1_555
H11_10 N49_10 1_555 1_555
C28_10 N49_10 1_555 1_555
H12_10 C28_10 1_555 1_555
H13_10 C28_10 1_555 1_555
H14_10 C28_10 1_555 1_555
C29_10 N49_10 1_555 1_555
H15_10 C29_10 1_555 1_555
H16_10 C29_10 1_555 1_555
H17_10 C29_10 1_555 1_555
N49_11 H10_11 1_555 1_555
H11_11 N49_11 1_555 1_555
C28_11 N49_11 1_555 1_555
H12_11 C28_11 1_555 1_555
H13_11 C28_11 1_555 1_555
H14_11 C28_11 1_555 1_555
C29_11 N49_11 1_555 1_555
H15_11 C29_11 1_555 1_555
H16_11 C29_11 1_555 1_555
H17_11 C29_11 1_555 1_555
N49_12 H10_12 1_555 1_555
H11_12 N49_12 1_555 1_555
C28_12 N49_12 1_555 1_555
H12_12 C28_12 1_555 1_555
H13_12 C28_12 1_555 1_555
H14_12 C28_12 1_555 1_555
C29_12 N49_12 1_555 1_555
H15_12 C29_12 1_555 1_555
H16_12 C29_12 1_555 1_555
H17_12 C29_12 1_555 1_555
N49_13 H10_13 1_555 1_555
H11_13 N49_13 1_555 1_555
C28_13 N49_13 1_555 1_555
H12_13 C28_13 1_555 1_555
H13_13 C28_13 1_555 1_555
H14_13 C28_13 1_555 1_555
C29_13 N49_13 1_555 1_555
H15_13 C29_13 1_555 1_555
H16_13 C29_13 1_555 1_555
H17_13 C29_13 1_555 1_555
N49_14 H10_14 1_555 1_555
H11_14 N49_14 1_555 1_555
C28_14 N49_14 1_555 1_555
H12_14 C28_14 1_555 1_555
H13_14 C28_14 1_555 1_555
H14_14 C28_14 1_555 1_555
C29_14 N49_14 1_555 1_555
H15_14 C29_14 1_555 1_555
H16_14 C29_14 1_555 1_555
H17_14 C29_14 1_555 1_555
N49_15 H10_15 1_555 1_555
H11_15 N49_15 1_555 1_555
C28_15 N49_15 1_555 1_555
H12_15 C28_15 1_555 1_555
H13_15 C28_15 1_555 1_555
H14_15 C28_15 1_555 1_555
C29_15 N49_15 1_555 1_555
H15_15 C29_15 1_555 1_555
H16_15 C29_15 1_555 1_555
H17_15 C29_15 1_555 1_555
N49_16 H10_16 1_555 1_555
H11_16 N49_16 1_555 1_555
C28_16 N49_16 1_555 1_555
H12_16 C28_16 1_555 1_555
H13_16 C28_16 1_555 1_555
H14_16 C28_16 1_555 1_555
C29_16 N49_16 1_555 1_555
H15_16 C29_16 1_555 1_555
H16_16 C29_16 1_555 1_555
H17_16 C29_16 1_555 1_555
N49_17 H10_17 1_555 1_555
H11_17 N49_17 1_555 1_555
C28_17 N49_17 1_555 1_555
H12_17 C28_17 1_555 1_555
H13_17 C28_17 1_555 1_555
H14_17 C28_17 1_555 1_555
C29_17 N49_17 1_555 1_555
H15_17 C29_17 1_555 1_555
H16_17 C29_17 1_555 1_555
H17_17 C29_17 1_555 1_555
N49_18 H10_18 1_555 1_555
H11_18 N49_18 1_555 1_555
C28_18 N49_18 1_555 1_555
H12_18 C28_18 1_555 1_555
H13_18 C28_18 1_555 1_555
H14_18 C28_18 1_555 1_555
C29_18 N49_18 1_555 1_555
H15_18 C29_18 1_555 1_555
H17_18 C29_18 1_555 1_555
N49_19 H10_19 1_555 1_555
H11_19 N49_19 1_555 1_555
C28_19 N49_19 1_555 1_555
H12_19 C28_19 1_555 1_555
H13_19 C28_19 1_555 1_555
H14_19 C28_19 1_555 1_555
C29_19 N49_19 1_555 1_555
H15_19 C29_19 1_555 1_555
H17_19 C29_19 1_555 1_555
N49_20 H10_20 1_555 1_555
H11_20 N49_20 1_555 1_555
C28_20 N49_20 1_555 1_555
H12_20 C28_20 1_555 1_555
H13_20 C28_20 1_555 1_555
H14_20 C28_20 1_555 1_555
C29_20 N49_20 1_555 1_555
H15_20 C29_20 1_555 1_555
H16_20 C29_20 1_555 1_555
H17_20 C29_20 1_555 1_555
N49_21 H10_21 1_555 1_555
H11_21 N49_21 1_555 1_555
C28_21 N49_21 1_555 1_555
H12_21 C28_21 1_555 1_555
H13_21 C28_21 1_555 1_555
H14_21 C28_21 1_555 1_555
C29_21 N49_21 1_555 1_555
H15_21 C29_21 1_555 1_555
H16_21 C29_21 1_555 1_555
H17_21 C29_21 1_555 1_555
N49_22 H10_22 1_555 1_555
H11_22 N49_22 1_555 1_555
C28_22 N49_22 1_555 1_555
H12_22 C28_22 1_555 1_555
H13_22 C28_22 1_555 1_555
H14_22 C28_22 1_555 1_555
C29_22 N49_22 1_555 1_555
H15_22 C29_22 1_555 1_555
H17_22 C29_22 1_555 1_555
N49_23 H10_23 1_555 1_555
H11_23 N49_23 1_555 1_555
C28_23 N49_23 1_555 1_555
H12_23 C28_23 1_555 1_555
H13_23 C28_23 1_555 1_555
H14_23 C28_23 1_555 1_555
C29_23 N49_23 1_555 1_555
H15_23 C29_23 1_555 1_555
H17_23 C29_23 1_555 1_555
N49_24 H10_24 1_555 1_555
H11_24 N49_24 1_555 1_555
C28_24 N49_24 1_555 1_555
H12_24 C28_24 1_555 1_555
H13_24 C28_24 1_555 1_555
H14_24 C28_24 1_555 1_555
C29_24 N49_24 1_555 1_555
H15_24 C29_24 1_555 1_555
H16_24 C29_24 1_555 1_555
H17_24 C29_24 1_555 1_555
N49_25 H10_25 1_555 1_555
H11_25 N49_25 1_555 1_555
C28_25 N49_25 1_555 1_555
H12_25 C28_25 1_555 1_555
H13_25 C28_25 1_555 1_555
H14_25 C28_25 1_555 1_555
C29_25 N49_25 1_555 1_555
H15_25 C29_25 1_555 1_555
H16_25 C29_25 1_555 1_555
H17_25 C29_25 1_555 1_555
N49_26 H10_26 1_555 1_555
H11_26 N49_26 1_555 1_555
C28_26 N49_26 1_555 1_555
H12_26 C28_26 1_555 1_555
H13_26 C28_26 1_555 1_555
H14_26 C28_26 1_555 1_555
C29_26 N49_26 1_555 1_555
H15_26 C29_26 1_555 1_555
H16_26 C29_26 1_555 1_555
H17_26 C29_26 1_555 1_555
N49_27 H10_27 1_555 1_555
H11_27 N49_27 1_555 1_555
C28_27 N49_27 1_555 1_555
H12_27 C28_27 1_555 1_555
H13_27 C28_27 1_555 1_555
H14_27 C28_27 1_555 1_555
C29_27 N49_27 1_555 1_555
H15_27 C29_27 1_555 1_555
H16_27 C29_27 1_555 1_555
H17_27 C29_27 1_555 1_555
N49_28 H10_28 1_555 1_555
H11_28 N49_28 1_555 1_555
C28_28 N49_28 1_555 1_555
H12_28 C28_28 1_555 1_555
H13_28 C28_28 1_555 1_555
H14_28 C28_28 1_555 1_555
C29_28 N49_28 1_555 1_555
H15_28 C29_28 1_555 1_555
H16_28 C29_28 1_555 1_555
H17_28 C29_28 1_555 1_555
N49_29 H10_29 1_555 1_555
H11_29 N49_29 1_555 1_555
C28_29 N49_29 1_555 1_555
H12_29 C28_29 1_555 1_555
H13_29 C28_29 1_555 1_555
H14_29 C28_29 1_555 1_555
C29_29 N49_29 1_555 1_555
H15_29 C29_29 1_555 1_555
H16_29 C29_29 1_555 1_555
H17_29 C29_29 1_555 1_555
N49_30 H10_30 1_555 1_555
H11_30 N49_30 1_555 1_555
C28_30 N49_30 1_555 1_555
H12_30 C28_30 1_555 1_555
H13_30 C28_30 1_555 1_555
H14_30 C28_30 1_555 1_555
C29_30 N49_30 1_555 1_555
H15_30 C29_30 1_555 1_555
H16_30 C29_30 1_555 1_555
H17_30 C29_30 1_555 1_555
N49_31 H10_31 1_555 1_555
H11_31 N49_31 1_555 1_555
C28_31 N49_31 1_555 1_555
H12_31 C28_31 1_555 1_555
H13_31 C28_31 1_555 1_555
H14_31 C28_31 1_555 1_555
C29_31 N49_31 1_555 1_555
H15_31 C29_31 1_555 1_555
H16_31 C29_31 1_555 1_555
H17_31 C29_31 1_555 1_555
N49_32 H10_32 1_555 1_555
H11_32 N49_32 1_555 1_555
C28_32 N49_32 1_555 1_555
H12_32 C28_32 1_555 1_555
H13_32 C28_32 1_555 1_555
H14_32 C28_32 1_555 1_555
C29_32 N49_32 1_555 1_555
H15_32 C29_32 1_555 1_555
H16_32 C29_32 1_555 1_555
H17_32 C29_32 1_555 1_555
N50 H18 1_555 1_555
H19 N50 1_555 1_555
C30 N50 1_555 1_555
H20 C30 1_555 1_555
H21 C30 1_555 1_555
H22 C30 1_555 1_555
C31 N50 1_555 1_555
H23 C31 1_555 1_555
H24 C31 1_555 1_555
H25 C31 1_555 1_555
N50_2 H18_2 1_555 1_555
H19_2 N50_2 1_555 1_555
C30_2 N50_2 1_555 1_555
H20_2 C30_2 1_555 1_555
H21_2 C30_2 1_555 1_555
H22_2 C30_2 1_555 1_555
C31_2 N50_2 1_555 1_555
H23_2 C31_2 1_555 1_555
H24_2 C31_2 1_555 1_555
H25_2 C31_2 1_555 1_555
N50_3 H18_3 1_555 1_555
H19_3 N50_3 1_555 1_555
C30_3 N50_3 1_555 1_555
H20_3 C30_3 1_555 1_555
H21_3 C30_3 1_555 1_555
H22_3 C30_3 1_555 1_555
C31_3 N50_3 1_555 1_555
H23_3 C31_3 1_555 1_555
H24_3 C31_3 1_555 1_555
H25_3 C31_3 1_555 1_555
N50_4 H18_4 1_555 1_555
H19_4 N50_4 1_555 1_555
C30_4 N50_4 1_555 1_555
H20_4 C30_4 1_555 1_555
H21_4 C30_4 1_555 1_555
H22_4 C30_4 1_555 1_555
C31_4 N50_4 1_555 1_555
H23_4 C31_4 1_555 1_555
H24_4 C31_4 1_555 1_555
H25_4 C31_4 1_555 1_555
N50_5 H18_5 1_555 1_555
H19_5 N50_5 1_555 1_555
C30_5 N50_5 1_555 1_555
H20_5 C30_5 1_555 1_555
H21_5 C30_5 1_555 1_555
H22_5 C30_5 1_555 1_555
C31_5 N50_5 1_555 1_555
H23_5 C31_5 1_555 1_555
H24_5 C31_5 1_555 1_555
H25_5 C31_5 1_555 1_555
N50_6 H18_6 1_555 1_555
H19_6 N50_6 1_555 1_555
C30_6 N50_6 1_555 1_555
H20_6 C30_6 1_555 1_555
H21_6 C30_6 1_555 1_555
H22_6 C30_6 1_555 1_555
C31_6 N50_6 1_555 1_555
H23_6 C31_6 1_555 1_555
H24_6 C31_6 1_555 1_555
H25_6 C31_6 1_555 1_555
N50_7 H18_7 1_555 1_555
H19_7 N50_7 1_555 1_555
C30_7 N50_7 1_555 1_555
H20_7 C30_7 1_555 1_555
H21_7 C30_7 1_555 1_555
H22_7 C30_7 1_555 1_555
C31_7 N50_7 1_555 1_555
H23_7 C31_7 1_555 1_555
H24_7 C31_7 1_555 1_555
H25_7 C31_7 1_555 1_555
N50_8 H18_8 1_555 1_555
H19_8 N50_8 1_555 1_555
C30_8 N50_8 1_555 1_555
H20_8 C30_8 1_555 1_555
H21_8 C30_8 1_555 1_555
H22_8 C30_8 1_555 1_555
C31_8 N50_8 1_555 1_555
H23_8 C31_8 1_555 1_555
H24_8 C31_8 1_555 1_555
H25_8 C31_8 1_555 1_555
N50_9 H18_9 1_555 1_555
H19_9 N50_9 1_555 1_555
C30_9 N50_9 1_555 1_555
H20_9 C30_9 1_555 1_555
H21_9 C30_9 1_555 1_555
H22_9 C30_9 1_555 1_555
C31_9 N50_9 1_555 1_555
H23_9 C31_9 1_555 1_555
H24_9 C31_9 1_555 1_555
H25_9 C31_9 1_555 1_555
N50_10 H18_10 1_555 1_555
H19_10 N50_10 1_555 1_555
C30_10 N50_10 1_555 1_555
H20_10 C30_10 1_555 1_555
H21_10 C30_10 1_555 1_555
H22_10 C30_10 1_555 1_555
H23_10 C31_10 1_555 1_555
H24_10 C31_10 1_555 1_555
H25_10 C31_10 1_555 1_555
N50_11 H18_11 1_555 1_555
H19_11 N50_11 1_555 1_555
C30_11 N50_11 1_555 1_555
H20_11 C30_11 1_555 1_555
H21_11 C30_11 1_555 1_555
H22_11 C30_11 1_555 1_555
H23_11 C31_11 1_555 1_555
H24_11 C31_11 1_555 1_555
H25_11 C31_11 1_555 1_555
N50_12 H18_12 1_555 1_555
H19_12 N50_12 1_555 1_555
C30_12 N50_12 1_555 1_555
H20_12 C30_12 1_555 1_555
H21_12 C30_12 1_555 1_555
H22_12 C30_12 1_555 1_555
C31_12 N50_12 1_555 1_555
H23_12 C31_12 1_555 1_555
H24_12 C31_12 1_555 1_555
H25_12 C31_12 1_555 1_555
N50_13 H18_13 1_555 1_555
H19_13 N50_13 1_555 1_555
C30_13 N50_13 1_555 1_555
H20_13 C30_13 1_555 1_555
H21_13 C30_13 1_555 1_555
H22_13 C30_13 1_555 1_555
C31_13 N50_13 1_555 1_555
H23_13 C31_13 1_555 1_555
H24_13 C31_13 1_555 1_555
H25_13 C31_13 1_555 1_555
N50_14 H18_14 1_555 1_555
H19_14 N50_14 1_555 1_555
C30_14 N50_14 1_555 1_555
H20_14 C30_14 1_555 1_555
H21_14 C30_14 1_555 1_555
H22_14 C30_14 1_555 1_555
H23_14 C31_14 1_555 1_555
H24_14 C31_14 1_555 1_555
H25_14 C31_14 1_555 1_555
N50_15 H18_15 1_555 1_555
H19_15 N50_15 1_555 1_555
C30_15 N50_15 1_555 1_555
H20_15 C30_15 1_555 1_555
H21_15 C30_15 1_555 1_555
H22_15 C30_15 1_555 1_555
H23_15 C31_15 1_555 1_555
H24_15 C31_15 1_555 1_555
H25_15 C31_15 1_555 1_555
N50_16 H18_16 1_555 1_555
H19_16 N50_16 1_555 1_555
C30_16 N50_16 1_555 1_555
H20_16 C30_16 1_555 1_555
H21_16 C30_16 1_555 1_555
H22_16 C30_16 1_555 1_555
C31_16 N50_16 1_555 1_555
H23_16 C31_16 1_555 1_555
H24_16 C31_16 1_555 1_555
H25_16 C31_16 1_555 1_555
N50_17 H18_17 1_555 1_555
H19_17 N50_17 1_555 1_555
C30_17 N50_17 1_555 1_555
H20_17 C30_17 1_555 1_555
H21_17 C30_17 1_555 1_555
H22_17 C30_17 1_555 1_555
C31_17 N50_17 1_555 1_555
H23_17 C31_17 1_555 1_555
H24_17 C31_17 1_555 1_555
H25_17 C31_17 1_555 1_555
N50_18 H18_18 1_555 1_555
H19_18 N50_18 1_555 1_555
C30_18 N50_18 1_555 1_555
H20_18 C30_18 1_555 1_555
H21_18 C30_18 1_555 1_555
H22_18 C30_18 1_555 1_555
C31_18 N50_18 1_555 1_555
H23_18 C31_18 1_555 1_555
H24_18 C31_18 1_555 1_555
H25_18 C31_18 1_555 1_555
N50_19 H18_19 1_555 1_555
H19_19 N50_19 1_555 1_555
C30_19 N50_19 1_555 1_555
H20_19 C30_19 1_555 1_555
H21_19 C30_19 1_555 1_555
H22_19 C30_19 1_555 1_555
C31_19 N50_19 1_555 1_555
H23_19 C31_19 1_555 1_555
H24_19 C31_19 1_555 1_555
H25_19 C31_19 1_555 1_555
N50_20 H18_20 1_555 1_555
H19_20 N50_20 1_555 1_555
C30_20 N50_20 1_555 1_555
H20_20 C30_20 1_555 1_555
H21_20 C30_20 1_555 1_555
H22_20 C30_20 1_555 1_555
C31_20 N50_20 1_555 1_555
H23_20 C31_20 1_555 1_555
H24_20 C31_20 1_555 1_555
H25_20 C31_20 1_555 1_555
N50_21 H18_21 1_555 1_555
H19_21 N50_21 1_555 1_555
C30_21 N50_21 1_555 1_555
H20_21 C30_21 1_555 1_555
H21_21 C30_21 1_555 1_555
H22_21 C30_21 1_555 1_555
C31_21 N50_21 1_555 1_555
H23_21 C31_21 1_555 1_555
H24_21 C31_21 1_555 1_555
H25_21 C31_21 1_555 1_555
N50_22 H18_22 1_555 1_555
H19_22 N50_22 1_555 1_555
C30_22 N50_22 1_555 1_555
H20_22 C30_22 1_555 1_555
H21_22 C30_22 1_555 1_555
H22_22 C30_22 1_555 1_555
C31_22 N50_22 1_555 1_555
H23_22 C31_22 1_555 1_555
H24_22 C31_22 1_555 1_555
H25_22 C31_22 1_555 1_555
N50_23 H18_23 1_555 1_555
H19_23 N50_23 1_555 1_555
C30_23 N50_23 1_555 1_555
H20_23 C30_23 1_555 1_555
H21_23 C30_23 1_555 1_555
H22_23 C30_23 1_555 1_555
C31_23 N50_23 1_555 1_555
H23_23 C31_23 1_555 1_555
H24_23 C31_23 1_555 1_555
H25_23 C31_23 1_555 1_555
N50_24 H18_24 1_555 1_555
H19_24 N50_24 1_555 1_555
C30_24 N50_24 1_555 1_555
H20_24 C30_24 1_555 1_555
H21_24 C30_24 1_555 1_555
H22_24 C30_24 1_555 1_555
C31_24 N50_24 1_555 1_555
H23_24 C31_24 1_555 1_555
H24_24 C31_24 1_555 1_555
H25_24 C31_24 1_555 1_555
N50_25 H18_25 1_555 1_555
H19_25 N50_25 1_555 1_555
C30_25 N50_25 1_555 1_555
H20_25 C30_25 1_555 1_555
H21_25 C30_25 1_555 1_555
H22_25 C30_25 1_555 1_555
C31_25 N50_25 1_555 1_555
H23_25 C31_25 1_555 1_555
H24_25 C31_25 1_555 1_555
H25_25 C31_25 1_555 1_555
H23_26 C31_26 1_555 1_555
H24_26 C31_26 1_555 1_555
H25_26 C31_26 1_555 1_555
N50_26 H18_26 1_555 1_555
H19_26 N50_26 1_555 1_555
C30_26 N50_26 1_555 1_555
H20_26 C30_26 1_555 1_555
H21_26 C30_26 1_555 1_555
H22_26 C30_26 1_555 1_555
H23_27 C31_27 1_555 1_555
H24_27 C31_27 1_555 1_555
H25_27 C31_27 1_555 1_555
N50_27 H18_27 1_555 1_555
H19_27 N50_27 1_555 1_555
C30_27 N50_27 1_555 1_555
H20_27 C30_27 1_555 1_555
H21_27 C30_27 1_555 1_555
H22_27 C30_27 1_555 1_555
N50_28 H18_28 1_555 1_555
H19_28 N50_28 1_555 1_555
C30_28 N50_28 1_555 1_555
H20_28 C30_28 1_555 1_555
H21_28 C30_28 1_555 1_555
H22_28 C30_28 1_555 1_555
C31_28 N50_28 1_555 1_555
H23_28 C31_28 1_555 1_555
H24_28 C31_28 1_555 1_555
H25_28 C31_28 1_555 1_555
N50_29 H18_29 1_555 1_555
H19_29 N50_29 1_555 1_555
C30_29 N50_29 1_555 1_555
H20_29 C30_29 1_555 1_555
H21_29 C30_29 1_555 1_555
H22_29 C30_29 1_555 1_555
C31_29 N50_29 1_555 1_555
H23_29 C31_29 1_555 1_555
H24_29 C31_29 1_555 1_555
H25_29 C31_29 1_555 1_555
H23_30 C31_30 1_555 1_555
H24_30 C31_30 1_555 1_555
H25_30 C31_30 1_555 1_555
N50_30 H18_30 1_555 1_555
H19_30 N50_30 1_555 1_555
C30_30 N50_30 1_555 1_555
H20_30 C30_30 1_555 1_555
H21_30 C30_30 1_555 1_555
H22_30 C30_30 1_555 1_555
H23_31 C31_31 1_555 1_555
H24_31 C31_31 1_555 1_555
H25_31 C31_31 1_555 1_555
N50_31 H18_31 1_555 1_555
H19_31 N50_31 1_555 1_555
C30_31 N50_31 1_555 1_555
H20_31 C30_31 1_555 1_555
H21_31 C30_31 1_555 1_555
H22_31 C30_31 1_555 1_555
N50_32 H18_32 1_555 1_555
H19_32 N50_32 1_555 1_555
C30_32 N50_32 1_555 1_555
H20_32 C30_32 1_555 1_555
H21_32 C30_32 1_555 1_555
H22_32 C30_32 1_555 1_555
C31_32 N50_32 1_555 1_555
H23_32 C31_32 1_555 1_555
H24_32 C31_32 1_555 1_555
H25_32 C31_32 1_555 1_555

#END
