
###############################################################################
#
# This file contains modified crystal structure data generated from the
# MOF subset of the Cambridge Structural Database (CSD) v543 
# hosted by the Cambridge Crystallographic Data Centre (CCDC).
#
# This work is licensed under the Creative Commons
# Attribution-NonCommercial-ShareAlike 4.0 International License.
# To view a copy of this license, visit
# http://creativecommons.org/licenses/by-nc-sa/4.0/
# or send a letter to
# Creative Commons, PO Box 1866, Mountain View, CA 94042, USA.
#
# CIF created using the CSD Python API on 29 September 2022
# The structure has been converted into the P1 space group
# The structure has a 3D framework
# The original CSD entry COVJAA is in the tetragonal crystal system
# The framework has been calculated to contain at least 10.0% void space
# The void calculation uses a probe of radius 1.32A, grid spacing 0.4
#
###############################################################################

data_COVJAA
_chemical_formula_moiety         '(C144 H176 N80 Ni16 O32)n'
_symmetry_cell_setting           triclinic
_symmetry_space_group_name_H-M   'P 1'
_symmetry_Int_Tables_number      1
_space_group_name_Hall           'P 1'
loop_
_symmetry_equiv_pos_site_id
_symmetry_equiv_pos_as_xyz
1 x,y,z
_cell_length_a                   15.1973(5)
_cell_length_b                   15.1973(5)
_cell_length_c                   22.1529(8)
_cell_angle_alpha                90
_cell_angle_beta                 90
_cell_angle_gamma                90
_cell_volume                     5116.39
loop_
_atom_site_label
_atom_site_type_symbol
_atom_site_fract_x
_atom_site_fract_y
_atom_site_fract_z
N7 N 0.0771(4) 0.0783(4) 0.0709(3)
Ni3 Ni 0.03904(9) 0.98659(10) 0.94215(6)
Ni1 Ni 0.96096(9) 0.01341(10) 0.05785(6)
C1 C 0.8343(7) 0.0325(7) 0.3064(4)
H1 H 0.8183 0.0288 0.3468
N2 N 0.8079(5) 0.1060(5) 0.2763(3)
C2 C 0.8368(5) 0.1070(5) 0.2179(3)
C3 C 0.8834(5) 0.0373(5) 0.1900(3)
N4 N 0.9011(4) 0.0639(4) 0.1320(3)
C5 C 0.8668(6) 0.1430(6) 0.1288(4)
H4 H 0.8692 0.1764 0.0937
N5 N 0.8283(4) 0.1729(4) 0.1791(3)
Ni2 Ni 0.73659(10) 0.21096(9) 0.30785(6)
Ni4 Ni 0.76341(10) 0.28904(9) 0.19215(6)
Ni1_2 Ni 0.03904(9) 0.48659(10) 0.05785(6)
N1 N 0.1200(7) 0.5342(6) 0.2846(4)
C1_2 C 0.1657(7) 0.4675(7) 0.3064(4)
H1_2 H 0.1817 0.4712 0.3468
N2_2 N 0.1921(5) 0.3940(5) 0.2763(3)
C2_2 C 0.1632(5) 0.3930(5) 0.2179(3)
C3_2 C 0.1166(5) 0.4627(5) 0.1900(3)
C4 C 0.0952(8) 0.5344(7) 0.2255(5)
N3 N 0.0499(10) 0.6037(7) 0.2046(5)
H2 H 0.0372 0.6466 0.2283
H3 H 0.0336 0.6052 0.1674
N4_2 N 0.0989(4) 0.4361(4) 0.1320(3)
C5_2 C 0.1332(6) 0.3570(6) 0.1288(4)
H4_2 H 0.1308 0.3236 0.0937
N5_2 N 0.1717(4) 0.3271(4) 0.1791(3)
Ni2_2 Ni 0.26341(10) 0.28904(9) 0.30785(6)
Ni4_2 Ni 0.23659(10) 0.21096(9) 0.19215(6)
N6 N 0.1440(5) 0.5579(5) 0.0263(3)
O1 O 0.0765(5) 0.3902(5) 0.9999(3)
O2 O 0.0168(4) 0.4018(4) 0.9108(3)
C6 C 0.0670(5) 0.3666(5) 0.9469(4)
C7 C 0.1234(7) 0.2927(6) 0.9234(6)
H5 H 0.0867 0.2495 0.9032
H6 H 0.1530 0.2639 0.9567
C8 C 0.1961(11) 0.3311(11) 0.8760(12)
H7 H 0.1713 0.3748 0.8490
H8 H 0.2240 0.2848 0.8528
C9 C 0.2682(15) 0.3780(12) 0.9293(10)
H9 H 0.2864 0.4351 0.9156
H10 H 0.3188 0.3409 0.9340
H11 H 0.2385 0.3836 0.9674
N7_2 N 0.9229(4) 0.4217(4) 0.0709(3)
O3 O 0.9832(4) 0.5982(4) 0.0892(3)
Ni3_2 Ni 0.96096(9) 0.51341(10) 0.94215(6)
N1_2 N 0.7842(6) 0.1300(7) 0.5346(4)
C1_3 C 0.7175(7) 0.0843(7) 0.5564(4)
H1_3 H 0.7212 0.0683 0.5968
N2_3 N 0.6440(5) 0.0579(5) 0.5263(3)
C2_3 C 0.6430(5) 0.0868(5) 0.4679(3)
C3_3 C 0.7127(5) 0.1334(5) 0.4400(3)
C4_2 C 0.7844(7) 0.1548(8) 0.4755(5)
N3_2 N 0.8537(7) 0.2001(10) 0.4546(5)
H2_2 H 0.8966 0.2128 0.4783
H3_2 H 0.8552 0.2164 0.4174
N4_3 N 0.6861(4) 0.1511(4) 0.3820(3)
C5_3 C 0.6070(6) 0.1168(6) 0.3788(4)
H4_3 H 0.5736 0.1192 0.3437
N5_3 N 0.5771(4) 0.0783(4) 0.4291(3)
O1_2 O 0.6402(5) 0.1735(5) 0.2499(3)
O2_2 O 0.6518(4) 0.2332(4) 0.1608(3)
C6_2 C 0.6166(5) 0.1830(5) 0.1969(4)
C7_2 C 0.5427(6) 0.1266(7) 0.1734(6)
H5_2 H 0.4995 0.1633 0.1532
H6_2 H 0.5139 0.0970 0.2067
C8_2 C 0.5811(11) 0.0539(11) 0.1260(12)
H7_2 H 0.6248 0.0787 0.0990
H8_2 H 0.5348 0.0260 0.1028
H11_2 H 0.6336 0.0115 0.2174
Ni4_3 Ni 0.46096(9) 0.01341(10) 0.44215(6)
N7_3 N 0.6717(4) 0.3271(4) 0.3209(3)
O3_2 O 0.8482(4) 0.2668(4) 0.3392(3)
C9_2 C 0.6280(12) 0.9818(15) 0.1793(10)
H9_2 H 0.6851 0.9636 0.1656
H10_2 H 0.5909 0.9312 0.1840
Ni2_3 Ni 0.53904(9) 0.98659(10) 0.55785(6)
N1_3 N 0.2158(6) 0.3700(7) 0.5346(4)
C1_4 C 0.2825(7) 0.4157(7) 0.5564(4)
H1_4 H 0.2788 0.4317 0.5968
N2_4 N 0.3560(5) 0.4421(5) 0.5263(3)
C2_4 C 0.3570(5) 0.4132(5) 0.4679(3)
C3_4 C 0.2873(5) 0.3666(5) 0.4400(3)
C4_3 C 0.2156(7) 0.3452(8) 0.4755(5)
N3_3 N 0.1463(7) 0.2999(10) 0.4546(5)
H2_3 H 0.1034 0.2872 0.4783
H3_3 H 0.1448 0.2836 0.4174
N4_4 N 0.3139(4) 0.3489(4) 0.3820(3)
C5_4 C 0.3930(6) 0.3832(6) 0.3788(4)
H4_4 H 0.4264 0.3808 0.3437
N5_4 N 0.4229(4) 0.4217(4) 0.4291(3)
O1_3 O 0.3598(5) 0.3265(5) 0.2499(3)
O2_3 O 0.3482(4) 0.2668(4) 0.1608(3)
C6_3 C 0.3834(5) 0.3170(5) 0.1969(4)
C7_3 C 0.4573(6) 0.3734(7) 0.1734(6)
H5_3 H 0.5005 0.3367 0.1532
H6_3 H 0.4861 0.4030 0.2067
C8_3 C 0.4189(11) 0.4461(11) 0.1260(12)
H7_3 H 0.3752 0.4213 0.0990
H8_3 H 0.4652 0.4740 0.1028
C9_3 C 0.3720(12) 0.5182(15) 0.1793(10)
H9_3 H 0.3149 0.5364 0.1656
H10_3 H 0.4091 0.5688 0.1840
H11_3 H 0.3664 0.4885 0.2174
Ni2_4 Ni 0.46096(9) 0.51341(10) 0.55785(6)
Ni4_4 Ni 0.53904(9) 0.48659(10) 0.44215(6)
N7_4 N 0.3283(4) 0.1729(4) 0.3209(3)
O3_3 O 0.1518(4) 0.2332(4) 0.3392(3)
N1_4 N 0.3800(7) 0.4658(6) 0.7846(4)
C1_5 C 0.3343(7) 0.5325(7) 0.8064(4)
H1_5 H 0.3183 0.5288 0.8468
N2_5 N 0.3079(5) 0.6060(5) 0.7763(3)
C2_5 C 0.3368(5) 0.6070(5) 0.7179(3)
C3_5 C 0.3834(5) 0.5373(5) 0.6900(3)
C4_4 C 0.4048(8) 0.4656(7) 0.7255(5)
N3_4 N 0.4501(10) 0.3963(7) 0.7046(5)
H2_4 H 0.4628 0.3534 0.7283
H3_4 H 0.4664 0.3948 0.6674
N4_5 N 0.4011(4) 0.5639(4) 0.6320(3)
C5_5 C 0.3668(6) 0.6430(6) 0.6288(4)
H4_5 H 0.3692 0.6764 0.5937
N5_5 N 0.3283(4) 0.6729(4) 0.6791(3)
O1_4 O 0.4235(5) 0.6098(5) 0.4999(3)
O2_4 O 0.4832(4) 0.5982(4) 0.4108(3)
C6_4 C 0.4330(5) 0.6334(5) 0.4469(4)
C7_4 C 0.3766(7) 0.7073(6) 0.4234(6)
H5_4 H 0.4133 0.7505 0.4032
H6_4 H 0.3470 0.7361 0.4567
C8_4 C 0.3039(11) 0.6689(11) 0.3760(12)
H7_4 H 0.3287 0.6252 0.3490
H8_4 H 0.2760 0.7152 0.3528
C9_4 C 0.2318(15) 0.6220(12) 0.4293(10)
H9_4 H 0.2136 0.5649 0.4156
H10_4 H 0.1812 0.6591 0.4340
H11_4 H 0.2615 0.6164 0.4674
Ni2_5 Ni 0.23659(10) 0.71096(9) 0.80785(6)
Ni4_5 Ni 0.26341(10) 0.78904(9) 0.69215(6)
N7_5 N 0.5771(4) 0.5783(4) 0.5709(3)
O3_4 O 0.5168(4) 0.4018(4) 0.5892(3)
N1_5 N 0.6200(7) 0.0342(6) 0.7846(4)
C4_5 C 0.5952(8) 0.0344(7) 0.7255(5)
N3_5 N 0.5499(10) 0.1037(7) 0.7046(5)
H2_5 H 0.5372 0.1466 0.7283
H3_5 H 0.5336 0.1052 0.6674
O3_5 O 0.4832(4) 0.0982(4) 0.5892(3)
C1_6 C 0.6657(7) 0.9675(7) 0.8064(4)
H1_6 H 0.6817 0.9712 0.8468
N2_6 N 0.6921(5) 0.8940(5) 0.7763(3)
C2_6 C 0.6632(5) 0.8930(5) 0.7179(3)
C3_6 C 0.6166(5) 0.9627(5) 0.6900(3)
N4_6 N 0.5989(4) 0.9361(4) 0.6320(3)
C5_6 C 0.6332(6) 0.8570(6) 0.6288(4)
H4_6 H 0.6308 0.8236 0.5937
N5_6 N 0.6717(4) 0.8271(4) 0.6791(3)
O1_5 O 0.5765(5) 0.8902(5) 0.4999(3)
O2_5 O 0.5168(4) 0.9018(4) 0.4108(3)
C6_5 C 0.5670(5) 0.8666(5) 0.4469(4)
C7_5 C 0.6234(7) 0.7927(6) 0.4234(6)
H5_5 H 0.5867 0.7495 0.4032
H6_5 H 0.6530 0.7639 0.4567
C8_5 C 0.6961(11) 0.8311(11) 0.3760(12)
H7_5 H 0.6713 0.8748 0.3490
H8_5 H 0.7240 0.7848 0.3528
C9_5 C 0.7682(15) 0.8780(12) 0.4293(10)
H9_5 H 0.7864 0.9351 0.4156
H10_5 H 0.8188 0.8409 0.4340
H11_5 H 0.7385 0.8836 0.4674
Ni2_6 Ni 0.76341(10) 0.78904(9) 0.80785(6)
Ni4_6 Ni 0.73659(10) 0.71096(9) 0.69215(6)
N7_6 N 0.4229(4) 0.9217(4) 0.5709(3)
N1_6 N 0.2842(6) 0.6300(7) 0.0346(4)
C1_7 C 0.2175(7) 0.5843(7) 0.0564(4)
H1_7 H 0.2212 0.5683 0.0968
C2_7 C 0.1430(5) 0.5868(5) 0.9679(3)
C3_7 C 0.2127(5) 0.6334(5) 0.9400(3)
C4_6 C 0.2844(7) 0.6548(8) 0.9755(5)
N3_6 N 0.3537(7) 0.7001(10) 0.9546(5)
H2_6 H 0.3966 0.7128 0.9783
H3_6 H 0.3552 0.7164 0.9174
N4_7 N 0.1861(4) 0.6511(4) 0.8820(3)
C5_7 C 0.1070(6) 0.6168(6) 0.8788(4)
H4_7 H 0.0736 0.6192 0.8437
N5_7 N 0.0771(4) 0.5783(4) 0.9291(3)
O1_6 O 0.1402(5) 0.6735(5) 0.7499(3)
O2_6 O 0.1518(4) 0.7332(4) 0.6608(3)
C6_6 C 0.1166(5) 0.6830(5) 0.6969(4)
C7_6 C 0.0427(6) 0.6266(7) 0.6734(6)
H6_6 H 0.0139 0.5970 0.7067
C8_6 C 0.0811(11) 0.5539(11) 0.6260(12)
H7_6 H 0.1248 0.5787 0.5990
H8_6 H 0.0348 0.5260 0.6028
C9_6 C 0.1280(12) 0.4818(15) 0.6793(10)
H9_6 H 0.1851 0.4636 0.6656
H10_6 H 0.0909 0.4312 0.6840
H11_6 H 0.1336 0.5115 0.7174
N7_7 N 0.1717(4) 0.8271(4) 0.8209(3)
O3_6 O 0.3482(4) 0.7668(4) 0.8392(3)
H5_6 H 0.9995 0.6633 0.6532
H5_7 H 0.0005 0.8367 0.6532
C2_8 C 0.8570(5) 0.9132(5) 0.9679(3)
C3_8 C 0.7873(5) 0.8666(5) 0.9400(3)
C4_7 C 0.7156(7) 0.8452(8) 0.9755(5)
N3_7 N 0.6463(7) 0.7999(10) 0.9546(5)
H2_7 H 0.6034 0.7872 0.9783
H3_7 H 0.6448 0.7836 0.9174
N4_8 N 0.8139(4) 0.8489(4) 0.8820(3)
C5_8 C 0.8930(6) 0.8832(6) 0.8788(4)
H4_8 H 0.9264 0.8808 0.8437
N5_8 N 0.9229(4) 0.9217(4) 0.9291(3)
O1_7 O 0.8598(5) 0.8265(5) 0.7499(3)
O2_7 O 0.8482(4) 0.7668(4) 0.6608(3)
C6_7 C 0.8834(5) 0.8170(5) 0.6969(4)
C7_7 C 0.9573(6) 0.8734(7) 0.6734(6)
H6_7 H 0.9861 0.9030 0.7067
C8_7 C 0.9189(11) 0.9461(11) 0.6260(12)
H7_7 H 0.8752 0.9213 0.5990
H8_7 H 0.9652 0.9740 0.6028
H11_7 H 0.8664 0.9885 0.7174
N7_8 N 0.8283(4) 0.6729(4) 0.8209(3)
O3_7 O 0.6518(4) 0.7332(4) 0.8392(3)
C1_8 C 0.1657(7) 0.9675(7) 0.6936(4)
H1_8 H 0.1817 0.9712 0.6532
N2_7 N 0.1921(5) 0.8940(5) 0.7237(3)
C2_9 C 0.1632(5) 0.8930(5) 0.7821(3)
C3_9 C 0.1166(5) 0.9627(5) 0.8100(3)
N4_9 N 0.0989(4) 0.9361(4) 0.8680(3)
C5_9 C 0.1332(6) 0.8570(6) 0.8712(4)
H4_9 H 0.1308 0.8236 0.9063
O1_8 O 0.9235(5) 0.6098(5) 0.0001(3)
C6_8 C 0.9330(5) 0.6334(5) 0.0531(4)
C7_8 C 0.8766(7) 0.7073(6) 0.0766(6)
H5_8 H 0.9133 0.7505 0.0968
H6_8 H 0.8470 0.7361 0.0433
C8_8 C 0.8039(11) 0.6689(11) 0.1240(12)
H7_8 H 0.8287 0.6252 0.1510
H8_8 H 0.7760 0.7152 0.1472
C9_7 C 0.7318(15) 0.6220(12) 0.0707(10)
H9_7 H 0.7136 0.5649 0.0844
H10_7 H 0.6812 0.6591 0.0660
H11_8 H 0.7615 0.6164 0.0326
N1_7 N 0.8800(7) 0.4658(6) 0.7154(4)
C1_9 C 0.8343(7) 0.5325(7) 0.6936(4)
H1_9 H 0.8183 0.5288 0.6532
N2_8 N 0.8079(5) 0.6060(5) 0.7237(3)
C2_10 C 0.8368(5) 0.6070(5) 0.7821(3)
C3_10 C 0.8834(5) 0.5373(5) 0.8100(3)
C4_8 C 0.9048(8) 0.4656(7) 0.7745(5)
N3_8 N 0.9501(10) 0.3963(7) 0.7954(5)
H2_8 H 0.9628 0.3534 0.7717
H3_8 H 0.9664 0.3948 0.8326
N4_10 N 0.9011(4) 0.5639(4) 0.8680(3)
C5_10 C 0.8668(6) 0.6430(6) 0.8712(4)
H4_10 H 0.8692 0.6764 0.9063
N6_2 N 0.8560(5) 0.4421(5) 0.9737(3)
C9_8 C 0.3720(12) 0.0182(15) 0.8207(10)
H9_8 H 0.3149 0.0364 0.8344
H10_8 H 0.4091 0.0688 0.8160
N1_8 N 0.2158(6) 0.8700(7) 0.4654(4)
C1_10 C 0.2825(7) 0.9157(7) 0.4436(4)
H1_10 H 0.2788 0.9317 0.4032
N2_9 N 0.3560(5) 0.9421(5) 0.4737(3)
C2_11 C 0.3570(5) 0.9132(5) 0.5321(3)
C3_11 C 0.2873(5) 0.8666(5) 0.5600(3)
C4_9 C 0.2156(7) 0.8452(8) 0.5245(5)
N3_9 N 0.1463(7) 0.7999(10) 0.5454(5)
H2_9 H 0.1034 0.7872 0.5217
H3_9 H 0.1448 0.7836 0.5826
N4_11 N 0.3139(4) 0.8489(4) 0.6180(3)
C5_11 C 0.3930(6) 0.8832(6) 0.6212(4)
H4_11 H 0.4264 0.8808 0.6563
O1_9 O 0.3598(5) 0.8265(5) 0.7501(3)
C6_9 C 0.3834(5) 0.8170(5) 0.8031(4)
C7_9 C 0.4573(6) 0.8734(7) 0.8266(6)
H5_9 H 0.5005 0.8367 0.8468
H6_9 H 0.4861 0.9030 0.7933
C8_9 C 0.4189(11) 0.9461(11) 0.8740(12)
H7_9 H 0.3752 0.9213 0.9010
H8_9 H 0.4652 0.9740 0.8972
H11_9 H 0.3664 0.9885 0.7826
N1_9 N 0.7842(6) 0.6300(7) 0.4654(4)
C1_11 C 0.7175(7) 0.5843(7) 0.4436(4)
H1_11 H 0.7212 0.5683 0.4032
N2_10 N 0.6440(5) 0.5579(5) 0.4737(3)
C2_12 C 0.6430(5) 0.5868(5) 0.5321(3)
C3_12 C 0.7127(5) 0.6334(5) 0.5600(3)
C4_10 C 0.7844(7) 0.6548(8) 0.5245(5)
N3_10 N 0.8537(7) 0.7001(10) 0.5454(5)
H2_10 H 0.8966 0.7128 0.5217
H3_10 H 0.8552 0.7164 0.5826
N4_12 N 0.6861(4) 0.6511(4) 0.6180(3)
C5_12 C 0.6070(6) 0.6168(6) 0.6212(4)
H4_12 H 0.5736 0.6192 0.6563
O1_10 O 0.6402(5) 0.6735(5) 0.7501(3)
C6_10 C 0.6166(5) 0.6830(5) 0.8031(4)
C7_10 C 0.5427(6) 0.6266(7) 0.8266(6)
H5_10 H 0.4995 0.6633 0.8468
H6_10 H 0.5139 0.5970 0.7933
C8_10 C 0.5811(11) 0.5539(11) 0.8740(12)
H7_10 H 0.6248 0.5787 0.9010
H8_10 H 0.5348 0.5260 0.8972
C9_9 C 0.6280(12) 0.4818(15) 0.8207(10)
H9_9 H 0.6851 0.4636 0.8344
H10_9 H 0.5909 0.4312 0.8160
H11_10 H 0.6336 0.5115 0.7826
N1_10 N 0.6200(7) 0.5342(6) 0.2154(4)
C1_12 C 0.6657(7) 0.4675(7) 0.1936(4)
H1_12 H 0.6817 0.4712 0.1532
N2_11 N 0.6921(5) 0.3940(5) 0.2237(3)
C2_13 C 0.6632(5) 0.3930(5) 0.2821(3)
C3_13 C 0.6166(5) 0.4627(5) 0.3100(3)
C4_11 C 0.5952(8) 0.5344(7) 0.2745(5)
N3_11 N 0.5499(10) 0.6037(7) 0.2954(5)
H2_11 H 0.5372 0.6466 0.2717
H3_11 H 0.5336 0.6052 0.3326
N4_13 N 0.5989(4) 0.4361(4) 0.3680(3)
C5_13 C 0.6332(6) 0.3570(6) 0.3712(4)
H4_13 H 0.6308 0.3236 0.4063
O1_11 O 0.5765(5) 0.3902(5) 0.5001(3)
C6_11 C 0.5670(5) 0.3666(5) 0.5531(4)
C7_11 C 0.6234(7) 0.2927(6) 0.5766(6)
H5_11 H 0.5867 0.2495 0.5968
H6_11 H 0.6530 0.2639 0.5433
C8_11 C 0.6961(11) 0.3311(11) 0.6240(12)
H7_11 H 0.6713 0.3748 0.6510
H8_11 H 0.7240 0.2848 0.6472
C9_10 C 0.7682(15) 0.3780(12) 0.5707(10)
H9_10 H 0.7864 0.4351 0.5844
H10_10 H 0.8188 0.3409 0.5660
H11_11 H 0.7385 0.3836 0.5326
C1_13 C 0.3343(7) 0.0325(7) 0.1936(4)
H1_13 H 0.3183 0.0288 0.1532
N2_12 N 0.3079(5) 0.1060(5) 0.2237(3)
C2_14 C 0.3368(5) 0.1070(5) 0.2821(3)
C3_14 C 0.3834(5) 0.0373(5) 0.3100(3)
N4_14 N 0.4011(4) 0.0639(4) 0.3680(3)
C5_14 C 0.3668(6) 0.1430(6) 0.3712(4)
H4_14 H 0.3692 0.1764 0.4063
O1_12 O 0.4235(5) 0.1098(5) 0.5001(3)
C6_12 C 0.4330(5) 0.1334(5) 0.5531(4)
C7_12 C 0.3766(7) 0.2073(6) 0.5766(6)
H5_12 H 0.4133 0.2505 0.5968
H6_12 H 0.3470 0.2361 0.5433
C8_12 C 0.3039(11) 0.1689(11) 0.6240(12)
H7_12 H 0.3287 0.1252 0.6510
H8_12 H 0.2760 0.2152 0.6472
C9_11 C 0.2318(15) 0.1220(12) 0.5707(10)
H9_11 H 0.2136 0.0649 0.5844
H10_11 H 0.1812 0.1591 0.5660
H11_12 H 0.2615 0.1164 0.5326
N1_11 N 0.3800(7) 0.9658(6) 0.2154(4)
C4_12 C 0.4048(8) 0.9656(7) 0.2745(5)
N3_12 N 0.4501(10) 0.8963(7) 0.2954(5)
H2_12 H 0.4628 0.8534 0.2717
H3_12 H 0.4664 0.8948 0.3326
H5_13 H 0.0005 0.3367 0.3468
C2_15 C 0.8570(5) 0.4132(5) 0.0321(3)
C3_15 C 0.7873(5) 0.3666(5) 0.0600(3)
C4_13 C 0.7156(7) 0.3452(8) 0.0245(5)
N3_13 N 0.6463(7) 0.2999(10) 0.0454(5)
H2_13 H 0.6034 0.2872 0.0217
H3_13 H 0.6448 0.2836 0.0826
N4_15 N 0.8139(4) 0.3489(4) 0.1180(3)
C5_15 C 0.8930(6) 0.3832(6) 0.1212(4)
H4_15 H 0.9264 0.3808 0.1563
O1_13 O 0.8598(5) 0.3265(5) 0.2501(3)
C6_13 C 0.8834(5) 0.3170(5) 0.3031(4)
C7_13 C 0.9573(6) 0.3734(7) 0.3266(6)
H6_13 H 0.9861 0.4030 0.2933
C8_13 C 0.9189(11) 0.4461(11) 0.3740(12)
H7_13 H 0.8752 0.4213 0.4010
H8_13 H 0.9652 0.4740 0.3972
C9_12 C 0.8720(12) 0.5182(15) 0.3207(10)
H9_12 H 0.8149 0.5364 0.3344
H10_12 H 0.9091 0.5688 0.3160
H11_13 H 0.8664 0.4885 0.2826
N1_12 N 0.7158(6) 0.3700(7) 0.9654(4)
C1_14 C 0.7825(7) 0.4157(7) 0.9436(4)
H1_14 H 0.7788 0.4317 0.9032
C2_16 C 0.1430(5) 0.0868(5) 0.0321(3)
C3_16 C 0.2127(5) 0.1334(5) 0.0600(3)
C4_14 C 0.2844(7) 0.1548(8) 0.0245(5)
N3_14 N 0.3537(7) 0.2001(10) 0.0454(5)
H2_14 H 0.3966 0.2128 0.0217
H3_14 H 0.3552 0.2164 0.0826
N4_16 N 0.1861(4) 0.1511(4) 0.1180(3)
C5_16 C 0.1070(6) 0.1168(6) 0.1212(4)
H4_16 H 0.0736 0.1192 0.1563
O1_14 O 0.1402(5) 0.1735(5) 0.2501(3)
C6_14 C 0.1166(5) 0.1830(5) 0.3031(4)
C7_14 C 0.0427(6) 0.1266(7) 0.3266(6)
H6_14 H 0.0139 0.0970 0.2933
C8_14 C 0.0811(11) 0.0539(11) 0.3740(12)
H7_14 H 0.1248 0.0787 0.4010
H8_14 H 0.0348 0.0260 0.3972
H11_14 H 0.1336 0.0115 0.2826
H5_14 H 0.9995 0.1633 0.3468
O3_8 O 0.0168(4) 0.9018(4) 0.0892(3)
O1_15 O 0.0765(5) 0.8902(5) 0.0001(3)
C6_15 C 0.0670(5) 0.8666(5) 0.0531(4)
C7_15 C 0.1234(7) 0.7927(6) 0.0766(6)
H5_15 H 0.0867 0.7495 0.0968
H6_15 H 0.1530 0.7639 0.0433
C8_15 C 0.1961(11) 0.8311(11) 0.1240(12)
H7_15 H 0.1713 0.8748 0.1510
H8_15 H 0.2240 0.7848 0.1472
C9_13 C 0.2682(15) 0.8780(12) 0.0707(10)
H9_13 H 0.2864 0.9351 0.0844
H10_13 H 0.3188 0.8409 0.0660
H11_15 H 0.2385 0.8836 0.0326
O1_16 O 0.9235(5) 0.1098(5) 0.9999(3)
O2_8 O 0.9832(4) 0.0982(4) 0.9108(3)
C6_16 C 0.9330(5) 0.1334(5) 0.9469(4)
C7_16 C 0.8766(7) 0.2073(6) 0.9234(6)
H5_16 H 0.9133 0.2505 0.9032
H6_16 H 0.8470 0.2361 0.9567
C8_16 C 0.8039(11) 0.1689(11) 0.8760(12)
H7_16 H 0.8287 0.1252 0.8490
H8_16 H 0.7760 0.2152 0.8528
C9_14 C 0.7318(15) 0.1220(12) 0.9293(10)
H9_14 H 0.7136 0.0649 0.9156
H10_14 H 0.6812 0.1591 0.9340
H11_16 H 0.7615 0.1164 0.9674
N1_13 N 0.8800(7) 0.9658(6) 0.2846(4)
C4_15 C 0.9048(8) 0.9656(7) 0.2255(5)
N3_15 N 0.9501(10) 0.8963(7) 0.2046(5)
H2_15 H 0.9628 0.8534 0.2283
H3_15 H 0.9664 0.8948 0.1674
N6_3 N 0.8560(5) 0.9421(5) 0.0263(3)
N1_14 N 0.7158(6) 0.8700(7) 0.0346(4)
C1_15 C 0.7825(7) 0.9157(7) 0.0564(4)
H1_15 H 0.7788 0.9317 0.0968
C9_15 C 0.8720(12) 0.0182(15) 0.6793(10)
H9_15 H 0.8149 0.0364 0.6656
H10_15 H 0.9091 0.0688 0.6840
N1_15 N 0.1200(7) 0.0342(6) 0.7154(4)
C4_16 C 0.0952(8) 0.0344(7) 0.7745(5)
N3_16 N 0.0499(10) 0.1037(7) 0.7954(5)
H2_16 H 0.0372 0.1466 0.7717
H3_16 H 0.0336 0.1052 0.8326
N6_4 N 0.1440(5) 0.0579(5) 0.9737(3)
N1_16 N 0.2842(6) 0.1300(7) 0.9654(4)
C1_16 C 0.2175(7) 0.0843(7) 0.9436(4)
H1_16 H 0.2212 0.0683 0.9032
C9_16 C 0.1280(12) 0.9818(15) 0.3207(10)
H9_16 H 0.1851 0.9636 0.3344
H10_16 H 0.0909 0.9312 0.3160
loop_
_geom_bond_atom_site_label_1
_geom_bond_atom_site_label_2
_geom_bond_site_symmetry_1
_geom_bond_site_symmetry_2
Ni1 N4 1_555 1_555
C1 H1 1_555 1_555
N2 C1 1_555 1_555
C2 N2 1_555 1_555
C3 C2 1_555 1_555
N4 C3 1_555 1_555
C5 N4 1_555 1_555
H4 C5 1_555 1_555
N5 C2 1_555 1_555
Ni2 N2 1_555 1_555
Ni4 N5 1_555 1_555
C5 N5 1_555 1_555
Ni2 Ni4 1_555 1_555
Ni1_2 N4_2 1_555 1_555
N1 C1_2 1_555 1_555
C1_2 H1_2 1_555 1_555
N2_2 C1_2 1_555 1_555
C2_2 N2_2 1_555 1_555
C3_2 C2_2 1_555 1_555
C4 N1 1_555 1_555
N3 C4 1_555 1_555
H2 N3 1_555 1_555
H3 N3 1_555 1_555
N4_2 C3_2 1_555 1_555
C5_2 N4_2 1_555 1_555
H4_2 C5_2 1_555 1_555
N5_2 C2_2 1_555 1_555
Ni2_2 N2_2 1_555 1_555
Ni4_2 N5_2 1_555 1_555
N6 Ni1_2 1_555 1_555
C3_2 C4 1_555 1_555
C5_2 N5_2 1_555 1_555
Ni2_2 Ni4_2 1_555 1_555
O2 C6 1_555 1_555
C6 O1 1_555 1_555
C7 C6 1_555 1_555
H5 C7 1_555 1_555
H6 C7 1_555 1_555
C8 C7 1_555 1_555
H7 C8 1_555 1_555
H8 C8 1_555 1_555
C9 C8 1_555 1_555
H9 C9 1_555 1_555
H10 C9 1_555 1_555
H11 C9 1_555 1_555
Ni2 N4_3 1_555 1_555
N1_2 C1_3 1_555 1_555
C1_3 H1_3 1_555 1_555
N2_3 C1_3 1_555 1_555
C2_3 N2_3 1_555 1_555
C3_3 C2_3 1_555 1_555
C4_2 N1_2 1_555 1_555
N3_2 C4_2 1_555 1_555
H2_2 N3_2 1_555 1_555
H3_2 N3_2 1_555 1_555
N4_3 C3_3 1_555 1_555
C5_3 N4_3 1_555 1_555
H4_3 C5_3 1_555 1_555
N5_3 C2_3 1_555 1_555
O1_2 Ni2 1_555 1_555
O2_2 C6_2 1_555 1_555
C6_2 O1_2 1_555 1_555
C7_2 C6_2 1_555 1_555
H5_2 C7_2 1_555 1_555
H6_2 C7_2 1_555 1_555
C8_2 C7_2 1_555 1_555
H7_2 C8_2 1_555 1_555
H8_2 C8_2 1_555 1_555
Ni4_3 N5_3 1_555 1_555
N7_3 Ni2 1_555 1_555
O3_2 Ni2 1_555 1_555
C3_3 C4_2 1_555 1_555
C5_3 N5_3 1_555 1_555
O2_2 Ni4 1_555 1_555
H9_2 C9_2 1_555 1_555
H10_2 C9_2 1_555 1_555
Ni2_2 N4_4 1_555 1_555
N1_3 C1_4 1_555 1_555
C1_4 H1_4 1_555 1_555
N2_4 C1_4 1_555 1_555
C2_4 N2_4 1_555 1_555
C3_4 C2_4 1_555 1_555
C4_3 N1_3 1_555 1_555
N3_3 C4_3 1_555 1_555
H2_3 N3_3 1_555 1_555
H3_3 N3_3 1_555 1_555
N4_4 C3_4 1_555 1_555
C5_4 N4_4 1_555 1_555
H4_4 C5_4 1_555 1_555
N5_4 C2_4 1_555 1_555
O1_3 Ni2_2 1_555 1_555
O2_3 C6_3 1_555 1_555
C6_3 O1_3 1_555 1_555
C7_3 C6_3 1_555 1_555
H5_3 C7_3 1_555 1_555
H6_3 C7_3 1_555 1_555
C8_3 C7_3 1_555 1_555
H7_3 C8_3 1_555 1_555
H8_3 C8_3 1_555 1_555
C9_3 C8_3 1_555 1_555
H9_3 C9_3 1_555 1_555
H10_3 C9_3 1_555 1_555
H11_3 C9_3 1_555 1_555
Ni2_4 N2_4 1_555 1_555
Ni4_4 N5_4 1_555 1_555
N7_4 Ni2_2 1_555 1_555
O3_3 Ni2_2 1_555 1_555
C3_4 C4_3 1_555 1_555
C5_4 N5_4 1_555 1_555
O2_3 Ni4_2 1_555 1_555
Ni2_4 Ni4_4 1_555 1_555
Ni2_4 N4_5 1_555 1_555
N1_4 C1_5 1_555 1_555
C1_5 H1_5 1_555 1_555
N2_5 C1_5 1_555 1_555
C2_5 N2_5 1_555 1_555
C3_5 C2_5 1_555 1_555
C4_4 N1_4 1_555 1_555
N3_4 C4_4 1_555 1_555
H2_4 N3_4 1_555 1_555
H3_4 N3_4 1_555 1_555
N4_5 C3_5 1_555 1_555
C5_5 N4_5 1_555 1_555
H4_5 C5_5 1_555 1_555
N5_5 C2_5 1_555 1_555
O1_4 Ni2_4 1_555 1_555
O2_4 C6_4 1_555 1_555
C6_4 O1_4 1_555 1_555
C7_4 C6_4 1_555 1_555
H5_4 C7_4 1_555 1_555
H6_4 C7_4 1_555 1_555
C8_4 C7_4 1_555 1_555
H7_4 C8_4 1_555 1_555
H8_4 C8_4 1_555 1_555
C9_4 C8_4 1_555 1_555
H9_4 C9_4 1_555 1_555
H10_4 C9_4 1_555 1_555
H11_4 C9_4 1_555 1_555
Ni2_5 N2_5 1_555 1_555
Ni4_5 N5_5 1_555 1_555
N7_5 Ni2_4 1_555 1_555
O3_4 Ni2_4 1_555 1_555
C3_5 C4_4 1_555 1_555
C5_5 N5_5 1_555 1_555
O2_4 Ni4_4 1_555 1_555
Ni2_5 Ni4_5 1_555 1_555
C4_5 N1_5 1_555 1_555
N3_5 C4_5 1_555 1_555
H2_5 N3_5 1_555 1_555
H3_5 N3_5 1_555 1_555
Ni2_3 N4_6 1_555 1_555
C1_6 H1_6 1_555 1_555
N2_6 C1_6 1_555 1_555
C2_6 N2_6 1_555 1_555
C3_6 C2_6 1_555 1_555
N4_6 C3_6 1_555 1_555
C5_6 N4_6 1_555 1_555
H4_6 C5_6 1_555 1_555
N5_6 C2_6 1_555 1_555
O1_5 Ni2_3 1_555 1_555
O2_5 C6_5 1_555 1_555
C6_5 O1_5 1_555 1_555
C7_5 C6_5 1_555 1_555
H5_5 C7_5 1_555 1_555
H6_5 C7_5 1_555 1_555
C8_5 C7_5 1_555 1_555
H7_5 C8_5 1_555 1_555
H8_5 C8_5 1_555 1_555
C9_5 C8_5 1_555 1_555
H9_5 C9_5 1_555 1_555
H10_5 C9_5 1_555 1_555
H11_5 C9_5 1_555 1_555
Ni2_6 N2_6 1_555 1_555
Ni4_6 N5_6 1_555 1_555
N7_6 Ni2_3 1_555 1_555
C5_6 N5_6 1_555 1_555
Ni2_6 Ni4_6 1_555 1_555
N1_6 C1_7 1_555 1_555
C1_7 H1_7 1_555 1_555
N6 C1_7 1_555 1_555
Ni2_5 N4_7 1_555 1_555
C3_7 C2_7 1_555 1_555
N3_6 C4_6 1_555 1_555
H2_6 N3_6 1_555 1_555
H3_6 N3_6 1_555 1_555
N4_7 C3_7 1_555 1_555
C5_7 N4_7 1_555 1_555
H4_7 C5_7 1_555 1_555
N5_7 C2_7 1_555 1_555
O1_6 Ni2_5 1_555 1_555
O2_6 C6_6 1_555 1_555
C6_6 O1_6 1_555 1_555
C7_6 C6_6 1_555 1_555
H6_6 C7_6 1_555 1_555
C8_6 C7_6 1_555 1_555
H7_6 C8_6 1_555 1_555
H8_6 C8_6 1_555 1_555
C9_6 C8_6 1_555 1_555
H9_6 C9_6 1_555 1_555
H10_6 C9_6 1_555 1_555
H11_6 C9_6 1_555 1_555
N7_7 Ni2_5 1_555 1_555
O3_6 Ni2_5 1_555 1_555
C3_7 C4_6 1_555 1_555
C5_7 N5_7 1_555 1_555
O2_6 Ni4_5 1_555 1_555
Ni2_6 N4_8 1_555 1_555
C3_8 C2_8 1_555 1_555
N3_7 C4_7 1_555 1_555
H2_7 N3_7 1_555 1_555
H3_7 N3_7 1_555 1_555
N4_8 C3_8 1_555 1_555
C5_8 N4_8 1_555 1_555
H4_8 C5_8 1_555 1_555
N5_8 C2_8 1_555 1_555
O1_7 Ni2_6 1_555 1_555
O2_7 C6_7 1_555 1_555
C6_7 O1_7 1_555 1_555
C7_7 C6_7 1_555 1_555
H6_7 C7_7 1_555 1_555
C8_7 C7_7 1_555 1_555
H7_7 C8_7 1_555 1_555
H8_7 C8_7 1_555 1_555
N7_8 Ni2_6 1_555 1_555
O3_7 Ni2_6 1_555 1_555
C3_8 C4_7 1_555 1_555
C5_8 N5_8 1_555 1_555
O2_7 Ni4_6 1_555 1_555
Ni3 N4_9 1_555 1_555
C1_8 H1_8 1_555 1_555
N2_7 C1_8 1_555 1_555
C2_9 N2_7 1_555 1_555
C3_9 C2_9 1_555 1_555
N4_9 C3_9 1_555 1_555
C5_9 N4_9 1_555 1_555
H4_9 C5_9 1_555 1_555
N7_7 C2_9 1_555 1_555
Ni4_5 N2_7 1_555 1_555
C5_9 N7_7 1_555 1_555
O3 C6_8 1_555 1_555
C6_8 O1_8 1_555 1_555
C7_8 C6_8 1_555 1_555
H5_8 C7_8 1_555 1_555
H6_8 C7_8 1_555 1_555
C8_8 C7_8 1_555 1_555
H7_8 C8_8 1_555 1_555
H8_8 C8_8 1_555 1_555
C9_7 C8_8 1_555 1_555
H9_7 C9_7 1_555 1_555
H10_7 C9_7 1_555 1_555
H11_8 C9_7 1_555 1_555
Ni3_2 N4_10 1_555 1_555
N1_7 C1_9 1_555 1_555
C1_9 H1_9 1_555 1_555
N2_8 C1_9 1_555 1_555
C2_10 N2_8 1_555 1_555
C3_10 C2_10 1_555 1_555
C4_8 N1_7 1_555 1_555
N3_8 C4_8 1_555 1_555
H2_8 N3_8 1_555 1_555
H3_8 N3_8 1_555 1_555
N4_10 C3_10 1_555 1_555
C5_10 N4_10 1_555 1_555
H4_10 C5_10 1_555 1_555
N7_8 C2_10 1_555 1_555
Ni4_6 N2_8 1_555 1_555
N6_2 Ni3_2 1_555 1_555
C3_10 C4_8 1_555 1_555
C5_10 N7_8 1_555 1_555
H9_8 C9_8 1_555 1_555
H10_8 C9_8 1_555 1_555
Ni4_5 N4_11 1_555 1_555
N1_8 C1_10 1_555 1_555
C1_10 H1_10 1_555 1_555
N2_9 C1_10 1_555 1_555
C2_11 N2_9 1_555 1_555
C3_11 C2_11 1_555 1_555
C4_9 N1_8 1_555 1_555
N3_9 C4_9 1_555 1_555
H2_9 N3_9 1_555 1_555
H3_9 N3_9 1_555 1_555
N4_11 C3_11 1_555 1_555
C5_11 N4_11 1_555 1_555
H4_11 C5_11 1_555 1_555
N7_6 C2_11 1_555 1_555
O1_9 Ni4_5 1_555 1_555
O3_6 C6_9 1_555 1_555
C6_9 O1_9 1_555 1_555
C7_9 C6_9 1_555 1_555
H5_9 C7_9 1_555 1_555
H6_9 C7_9 1_555 1_555
C8_9 C7_9 1_555 1_555
H7_9 C8_9 1_555 1_555
H8_9 C8_9 1_555 1_555
C3_11 C4_9 1_555 1_555
C5_11 N7_6 1_555 1_555
Ni4_6 N4_12 1_555 1_555
N1_9 C1_11 1_555 1_555
C1_11 H1_11 1_555 1_555
N2_10 C1_11 1_555 1_555
C2_12 N2_10 1_555 1_555
C3_12 C2_12 1_555 1_555
C4_10 N1_9 1_555 1_555
N3_10 C4_10 1_555 1_555
H2_10 N3_10 1_555 1_555
H3_10 N3_10 1_555 1_555
N4_12 C3_12 1_555 1_555
C5_12 N4_12 1_555 1_555
H4_12 C5_12 1_555 1_555
N7_5 C2_12 1_555 1_555
O1_10 Ni4_6 1_555 1_555
O3_7 C6_10 1_555 1_555
C6_10 O1_10 1_555 1_555
C7_10 C6_10 1_555 1_555
H5_10 C7_10 1_555 1_555
H6_10 C7_10 1_555 1_555
C8_10 C7_10 1_555 1_555
H7_10 C8_10 1_555 1_555
H8_10 C8_10 1_555 1_555
C9_9 C8_10 1_555 1_555
H9_9 C9_9 1_555 1_555
H10_9 C9_9 1_555 1_555
H11_10 C9_9 1_555 1_555
Ni4_4 N2_10 1_555 1_555
C3_12 C4_10 1_555 1_555
C5_12 N7_5 1_555 1_555
Ni4_4 N4_13 1_555 1_555
N1_10 C1_12 1_555 1_555
C1_12 H1_12 1_555 1_555
N2_11 C1_12 1_555 1_555
C2_13 N2_11 1_555 1_555
C3_13 C2_13 1_555 1_555
C4_11 N1_10 1_555 1_555
N3_11 C4_11 1_555 1_555
H2_11 N3_11 1_555 1_555
H3_11 N3_11 1_555 1_555
N4_13 C3_13 1_555 1_555
C5_13 N4_13 1_555 1_555
H4_13 C5_13 1_555 1_555
N7_3 C2_13 1_555 1_555
O1_11 Ni4_4 1_555 1_555
O3_4 C6_11 1_555 1_555
C6_11 O1_11 1_555 1_555
C7_11 C6_11 1_555 1_555
H5_11 C7_11 1_555 1_555
H6_11 C7_11 1_555 1_555
C8_11 C7_11 1_555 1_555
H7_11 C8_11 1_555 1_555
H8_11 C8_11 1_555 1_555
C9_10 C8_11 1_555 1_555
H9_10 C9_10 1_555 1_555
H10_10 C9_10 1_555 1_555
H11_11 C9_10 1_555 1_555
Ni4 N2_11 1_555 1_555
C3_13 C4_11 1_555 1_555
C5_13 N7_3 1_555 1_555
Ni4_3 N4_14 1_555 1_555
C1_13 H1_13 1_555 1_555
N2_12 C1_13 1_555 1_555
C2_14 N2_12 1_555 1_555
C3_14 C2_14 1_555 1_555
N4_14 C3_14 1_555 1_555
C5_14 N4_14 1_555 1_555
H4_14 C5_14 1_555 1_555
N7_4 C2_14 1_555 1_555
O1_12 Ni4_3 1_555 1_555
O3_5 C6_12 1_555 1_555
C6_12 O1_12 1_555 1_555
C7_12 C6_12 1_555 1_555
H5_12 C7_12 1_555 1_555
H6_12 C7_12 1_555 1_555
C8_12 C7_12 1_555 1_555
H7_12 C8_12 1_555 1_555
H8_12 C8_12 1_555 1_555
C9_11 C8_12 1_555 1_555
H9_11 C9_11 1_555 1_555
H10_11 C9_11 1_555 1_555
H11_12 C9_11 1_555 1_555
Ni4_2 N2_12 1_555 1_555
C5_14 N7_4 1_555 1_555
C4_12 N1_11 1_555 1_555
N3_12 C4_12 1_555 1_555
H2_12 N3_12 1_555 1_555
H3_12 N3_12 1_555 1_555
Ni4 N4_15 1_555 1_555
C3_15 C2_15 1_555 1_555
N3_13 C4_13 1_555 1_555
H2_13 N3_13 1_555 1_555
H3_13 N3_13 1_555 1_555
N4_15 C3_15 1_555 1_555
C5_15 N4_15 1_555 1_555
H4_15 C5_15 1_555 1_555
N7_2 C2_15 1_555 1_555
O1_13 Ni4 1_555 1_555
O3_2 C6_13 1_555 1_555
C6_13 O1_13 1_555 1_555
C7_13 C6_13 1_555 1_555
H6_13 C7_13 1_555 1_555
C8_13 C7_13 1_555 1_555
H7_13 C8_13 1_555 1_555
H8_13 C8_13 1_555 1_555
C9_12 C8_13 1_555 1_555
H9_12 C9_12 1_555 1_555
H10_12 C9_12 1_555 1_555
H11_13 C9_12 1_555 1_555
C3_15 C4_13 1_555 1_555
C5_15 N7_2 1_555 1_555
N1_12 C1_14 1_555 1_555
C1_14 H1_14 1_555 1_555
N6_2 C1_14 1_555 1_555
Ni4_2 N4_16 1_555 1_555
C3_16 C2_16 1_555 1_555
N3_14 C4_14 1_555 1_555
H2_14 N3_14 1_555 1_555
H3_14 N3_14 1_555 1_555
N4_16 C3_16 1_555 1_555
C5_16 N4_16 1_555 1_555
H4_16 C5_16 1_555 1_555
N7 C2_16 1_555 1_555
O1_14 Ni4_2 1_555 1_555
O3_3 C6_14 1_555 1_555
C6_14 O1_14 1_555 1_555
C7_14 C6_14 1_555 1_555
H6_14 C7_14 1_555 1_555
C8_14 C7_14 1_555 1_555
H7_14 C8_14 1_555 1_555
H8_14 C8_14 1_555 1_555
C3_16 C4_14 1_555 1_555
C5_16 N7 1_555 1_555
O3_8 C6_15 1_555 1_555
C6_15 O1_15 1_555 1_555
C7_15 C6_15 1_555 1_555
H5_15 C7_15 1_555 1_555
H6_15 C7_15 1_555 1_555
C8_15 C7_15 1_555 1_555
H7_15 C8_15 1_555 1_555
H8_15 C8_15 1_555 1_555
C9_13 C8_15 1_555 1_555
H9_13 C9_13 1_555 1_555
H10_13 C9_13 1_555 1_555
H11_15 C9_13 1_555 1_555
O2_8 C6_16 1_555 1_555
C6_16 O1_16 1_555 1_555
C7_16 C6_16 1_555 1_555
H5_16 C7_16 1_555 1_555
H6_16 C7_16 1_555 1_555
C8_16 C7_16 1_555 1_555
H7_16 C8_16 1_555 1_555
H8_16 C8_16 1_555 1_555
C9_14 C8_16 1_555 1_555
H9_14 C9_14 1_555 1_555
H10_14 C9_14 1_555 1_555
H11_16 C9_14 1_555 1_555
C4_15 N1_13 1_555 1_555
N3_15 C4_15 1_555 1_555
H2_15 N3_15 1_555 1_555
H3_15 N3_15 1_555 1_555
N1_14 C1_15 1_555 1_555
C1_15 H1_15 1_555 1_555
N6_3 C1_15 1_555 1_555
H9_15 C9_15 1_555 1_555
H10_15 C9_15 1_555 1_555
C4_16 N1_15 1_555 1_555
N3_16 C4_16 1_555 1_555
H2_16 N3_16 1_555 1_555
H3_16 N3_16 1_555 1_555
N1_16 C1_16 1_555 1_555
C1_16 H1_16 1_555 1_555
N6_4 C1_16 1_555 1_555
H9_16 C9_16 1_555 1_555
H10_16 C9_16 1_555 1_555

#END
