
###############################################################################
#
# This file contains modified crystal structure data generated from the
# MOF subset of the Cambridge Structural Database (CSD) v543 
# hosted by the Cambridge Crystallographic Data Centre (CCDC).
#
# This work is licensed under the Creative Commons
# Attribution-NonCommercial-ShareAlike 4.0 International License.
# To view a copy of this license, visit
# http://creativecommons.org/licenses/by-nc-sa/4.0/
# or send a letter to
# Creative Commons, PO Box 1866, Mountain View, CA 94042, USA.
#
# CIF created using the CSD Python API on 29 September 2022
# The structure has been converted into the P1 space group
# The structure has a 3D framework
# The original CSD entry COVNOT is in the monoclinic crystal system
# The framework has been calculated to contain at least 10.0% void space
# The void calculation uses a probe of radius 1.32A, grid spacing 0.4
#
###############################################################################

data_COVNOT
_chemical_formula_moiety         '(C200 H184 Cd8 N56 O32)n'
_symmetry_cell_setting           triclinic
_symmetry_space_group_name_H-M   'P 1'
_symmetry_Int_Tables_number      1
_space_group_name_Hall           'P 1'
loop_
_symmetry_equiv_pos_site_id
_symmetry_equiv_pos_as_xyz
1 x,y,z
_cell_length_a                   13.3656(7)
_cell_length_b                   16.6082(8)
_cell_length_c                   26.9671(13)
_cell_angle_alpha                90
_cell_angle_beta                 96.741(5)
_cell_angle_gamma                90
_cell_volume                     5944.74
loop_
_atom_site_label
_atom_site_type_symbol
_atom_site_fract_x
_atom_site_fract_y
_atom_site_fract_z
C13 C 0.0100(3) 0.06131(19) 0.39531(13)
C16 C 0.1139(3) 0.0666(2) 0.48704(13)
H8 H 0.1503 0.0694 0.5186
C17 C 0.0299(3) 0.1344(2) 0.41940(14)
H9 H 0.0075 0.1821 0.4038
N2 N 0.0815(2) 0.13607(16) 0.46530(11)
Cd4 Cd 0.10621(2) 0.25799(2) 0.50682(2)
N8 N 0.5815(2) 0.36393(16) 0.96530(11)
O5 O 0.5882(2) 0.17009(17) 0.93056(10)
O7 O 0.7441(2) 0.20265(18) 0.95201(12)
C1 C 0.2957(3) 0.1271(2) 0.40462(13)
H1 H 0.2719 0.1760 0.3912
C2 C 0.2727(3) 0.0561(2) 0.37888(12)
C5 C 0.3859(3) 0.0527(2) 0.46774(14)
H3 H 0.4252 0.0526 0.4986
H4 H 0.1276 0.0185 0.2410
C18 C 0.5739(3) 0.24495(19) 0.45227(15)
C19 C 0.6724(3) 0.2438(2) 0.43069(19)
H10 H 0.7182 0.2816 0.4490
H11 H 0.6613 0.2618 0.3963
C20 C 0.7221(3) 0.1602(2) 0.43238(18)
H12 H 0.7896 0.1655 0.4230
H13 H 0.7279 0.1403 0.4664
C21 C 0.6651(4) 0.0999(3) 0.39865(18)
H14 H 0.6653 0.1170 0.3643
H15 H 0.5956 0.0985 0.4058
C22 C 0.7093(4) 0.0154(3) 0.40455(17)
H16 H 0.7809 0.0184 0.4016
Cd1 Cd 0.39379(2) 0.24201(2) 0.49318(2)
N1 N 0.3522(2) 0.12498(17) 0.44892(11)
N3 N 0.2167(2) 0.04169(17) 0.33307(10)
N5 N 0.0418(2) 0.04478(16) 0.15157(11)
O1 O 0.4997(2) 0.28452(15) 0.43011(10)
O2 O 0.5649(2) 0.20724(17) 0.49141(11)
N8_2 N 0.4185(2) 0.36393(16) 0.53470(11)
O5_2 O 0.4118(2) 0.17009(17) 0.56944(10)
O6 O 0.2441(2) 0.29735(18) 0.45201(12)
O7_2 O 0.2559(2) 0.20265(18) 0.54799(12)
H8_2 H 0.8497 0.0694 0.9814
Cd4_2 Cd 0.89379(2) 0.25799(2) 0.99318(2)
C18_2 C 0.0739(3) 0.74495(19) 0.45227(15)
C19_2 C 0.1724(3) 0.7438(2) 0.43069(19)
H10_2 H 0.2182 0.7816 0.4490
H11_2 H 0.1613 0.7618 0.3963
C20_2 C 0.2221(3) 0.6602(2) 0.43238(18)
H12_2 H 0.2896 0.6655 0.4230
H13_2 H 0.2279 0.6403 0.4664
C21_2 C 0.1651(4) 0.5999(3) 0.39865(18)
H14_2 H 0.1653 0.6170 0.3643
H15_2 H 0.0956 0.5985 0.4058
C22_2 C 0.2093(4) 0.5154(3) 0.40455(17)
H16_2 H 0.2809 0.5184 0.4016
H17 H 0.2019 0.4963 0.4379
C23 C 0.1625(5) 0.4546(3) 0.36745(17)
H18 H 0.0905 0.4527 0.3694
H19 H 0.1725 0.4722 0.3341
C24 C 0.2050(4) 0.3711(3) 0.37561(18)
H20 H 0.1810 0.3380 0.3470
H21 H 0.2778 0.3739 0.3774
C25 C 0.1779(3) 0.3310(2) 0.42184(14)
O2_2 O 0.0649(2) 0.70724(17) 0.49141(11)
O3 O 0.0882(2) 0.32991(17) 0.43056(10)
C3 C 0.3074(3) 0.01724(19) 0.89852(13)
C4 C 0.3665(3) 0.0197(2) 0.94483(14)
H2 H 0.3911 0.0678 0.9591
C6 C 0.2211(3) 0.0384(2) 0.82667(13)
C7 C 0.1750(3) 0.0793(2) 0.78157(12)
C8 C 0.1297(3) 0.0375(2) 0.74041(12)
C9 C 0.0875(2) 0.07861(19) 0.69850(12)
C10 C 0.0918(3) 0.1624(2) 0.69967(14)
H5 H 0.0631 0.1907 0.6718
C11 C 0.1760(3) 0.1630(2) 0.77839(14)
H6 H 0.2071 0.1918 0.8055
C12 C 0.0408(2) 0.03446(19) 0.65464(12)
H17_2 H 0.7019 0.0037 0.9379
C23_2 C 0.6625(5) 0.0454(3) 0.86745(17)
H18_2 H 0.5905 0.0473 0.8694
H19_2 H 0.6725 0.0278 0.8341
C24_2 C 0.7050(4) 0.1289(3) 0.87561(18)
H20_2 H 0.6810 0.1620 0.8470
H21_2 H 0.7778 0.1261 0.8774
C25_2 C 0.6779(3) 0.1690(2) 0.92184(14)
N4 N 0.2734(2) 0.07591(16) 0.86502(11)
H22 H 0.2838 0.1269 0.8681
N7 N 0.1347(3) 0.20426(19) 0.73862(12)
C3_2 C 0.6926(3) 0.01724(19) 0.60148(13)
C4_2 C 0.6335(3) 0.0197(2) 0.55517(14)
H2_2 H 0.6089 0.0678 0.5409
C6_2 C 0.7789(3) 0.0384(2) 0.67333(13)
C7_2 C 0.8250(3) 0.0793(2) 0.71843(12)
C8_2 C 0.8703(3) 0.0375(2) 0.75959(12)
C9_2 C 0.9125(2) 0.07861(19) 0.80150(12)
C10_2 C 0.9082(3) 0.1624(2) 0.80033(14)
H5_2 H 0.9369 0.1907 0.8282
C11_2 C 0.8240(3) 0.1630(2) 0.72161(14)
H6_2 H 0.7929 0.1918 0.6945
C12_2 C 0.9592(2) 0.03446(19) 0.84536(12)
H17_3 H 0.2981 0.0037 0.5621
C23_3 C 0.3375(5) 0.0454(3) 0.63255(17)
H18_3 H 0.4095 0.0473 0.6306
H19_3 H 0.3275 0.0278 0.6659
C24_3 C 0.2950(4) 0.1289(3) 0.62439(18)
H20_3 H 0.3190 0.1620 0.6530
H21_3 H 0.2222 0.1261 0.6226
C25_3 C 0.3221(3) 0.1690(2) 0.57816(14)
N4_2 N 0.7266(2) 0.07591(16) 0.63498(11)
H22_2 H 0.7162 0.1269 0.6319
N7_2 N 0.8653(3) 0.20426(19) 0.76138(12)
C1_2 C 0.7957(3) 0.3729(2) 0.90462(13)
H1_2 H 0.7719 0.3240 0.8912
C2_2 C 0.7727(3) 0.4439(2) 0.87888(12)
C3_3 C 0.8074(3) 0.51724(19) 0.89852(13)
C4_3 C 0.8665(3) 0.5197(2) 0.94483(14)
H2_3 H 0.8911 0.5678 0.9591
C5_2 C 0.8859(3) 0.4473(2) 0.96774(14)
H3_2 H 0.9252 0.4474 0.9986
C6_3 C 0.7211(3) 0.5384(2) 0.82667(13)
C7_3 C 0.6750(3) 0.5793(2) 0.78157(12)
C8_3 C 0.6297(3) 0.5375(2) 0.74041(12)
H4_2 H 0.6276 0.4815 0.7410
C9_3 C 0.5875(2) 0.57861(19) 0.69850(12)
C10_3 C 0.5918(3) 0.6624(2) 0.69967(14)
H5_3 H 0.5631 0.6907 0.6718
C11_3 C 0.6760(3) 0.6630(2) 0.77839(14)
H6_3 H 0.7071 0.6918 0.8055
C12_3 C 0.5408(2) 0.53446(19) 0.65464(12)
C13_2 C 0.4900(3) 0.43869(19) 0.60469(13)
C14 C 0.4581(2) 0.50995(19) 0.58122(12)
C15 C 0.4027(3) 0.5085(2) 0.53383(13)
H7 H 0.3787 0.5552 0.5175
C16_2 C 0.3861(3) 0.4334(2) 0.51296(13)
H8_3 H 0.3497 0.4306 0.4814
C17_2 C 0.4701(3) 0.3656(2) 0.58060(14)
H9_2 H 0.4925 0.3179 0.5962
N1_2 N 0.8522(2) 0.37502(17) 0.94892(11)
N3_2 N 0.7167(2) 0.45831(17) 0.83307(10)
N4_3 N 0.7734(2) 0.57591(16) 0.86502(11)
H22_3 H 0.7838 0.6269 0.8681
N5_2 N 0.5418(2) 0.45522(16) 0.65157(11)
N6 N 0.4913(2) 0.57023(16) 0.61336(10)
H23 H 0.4827 0.6211 0.6085
N7_3 N 0.6347(3) 0.70426(19) 0.73862(12)
O1_2 O 0.9997(2) 0.21548(15) 0.93011(10)
C1_3 C 0.2043(3) 0.3729(2) 0.59538(13)
H1_3 H 0.2281 0.3240 0.6088
C2_3 C 0.2273(3) 0.4439(2) 0.62112(12)
C3_4 C 0.1926(3) 0.51724(19) 0.60148(13)
C4_4 C 0.1335(3) 0.5197(2) 0.55517(14)
H2_4 H 0.1089 0.5678 0.5409
C5_3 C 0.1141(3) 0.4473(2) 0.53226(14)
H3_3 H 0.0748 0.4474 0.5014
C6_4 C 0.2789(3) 0.5384(2) 0.67333(13)
C7_4 C 0.3250(3) 0.5793(2) 0.71843(12)
C8_4 C 0.3703(3) 0.5375(2) 0.75959(12)
H4_3 H 0.3724 0.4815 0.7590
C9_4 C 0.4125(2) 0.57861(19) 0.80150(12)
C10_4 C 0.4082(3) 0.6624(2) 0.80033(14)
H5_4 H 0.4369 0.6907 0.8282
C11_4 C 0.3240(3) 0.6630(2) 0.72161(14)
H6_4 H 0.2929 0.6918 0.6945
C12_4 C 0.4592(2) 0.53446(19) 0.84536(12)
C13_3 C 0.5100(3) 0.43869(19) 0.89531(13)
C14_2 C 0.5419(2) 0.50995(19) 0.91878(12)
C15_2 C 0.5973(3) 0.5085(2) 0.96617(13)
H7_2 H 0.6213 0.5552 0.9825
C16_3 C 0.6139(3) 0.4334(2) 0.98704(13)
C17_3 C 0.5299(3) 0.3656(2) 0.91940(14)
H9_3 H 0.5075 0.3179 0.9038
N1_3 N 0.1478(2) 0.37502(17) 0.55108(11)
N3_3 N 0.2833(2) 0.45831(17) 0.66693(10)
N4_4 N 0.2266(2) 0.57591(16) 0.63498(11)
H22_4 H 0.2162 0.6269 0.6319
N5_3 N 0.4582(2) 0.45522(16) 0.84843(11)
N6_2 N 0.5087(2) 0.57023(16) 0.88664(10)
H23_2 H 0.5173 0.6211 0.8915
N7_4 N 0.3653(3) 0.70426(19) 0.76138(12)
O1_3 O 0.0003(2) 0.21548(15) 0.56989(10)
C14_3 C 0.0419(2) 0.99005(19) 0.41878(12)
C15_3 C 0.0973(3) 0.9915(2) 0.46617(13)
H7_3 H 0.1213 0.9448 0.4825
N6_3 N 0.0087(2) 0.92977(16) 0.38664(10)
H23_3 H 0.0173 0.8789 0.3915
C1_4 C 0.7043(3) 0.1271(2) 0.09538(13)
H1_4 H 0.7281 0.1760 0.1088
C2_4 C 0.7273(3) 0.0561(2) 0.12112(12)
C5_4 C 0.6141(3) 0.0527(2) 0.03226(14)
H3_4 H 0.5748 0.0526 0.0014
H4_4 H 0.8724 0.0185 0.2590
C18_3 C 0.4261(3) 0.24495(19) 0.04773(15)
C19_3 C 0.3276(3) 0.2438(2) 0.06931(19)
H10_3 H 0.2818 0.2816 0.0510
H11_3 H 0.3387 0.2618 0.1037
C20_3 C 0.2779(3) 0.1602(2) 0.06762(18)
H12_3 H 0.2104 0.1655 0.0770
H13_3 H 0.2721 0.1403 0.0336
C21_3 C 0.3349(4) 0.0999(3) 0.10135(18)
H14_3 H 0.3347 0.1170 0.1357
H15_3 H 0.4044 0.0985 0.0942
C22_3 C 0.2907(4) 0.0154(3) 0.09545(17)
H16_3 H 0.2191 0.0184 0.0984
Cd1_2 Cd 0.60621(2) 0.24201(2) 0.00682(2)
N1_4 N 0.6478(2) 0.12498(17) 0.05108(11)
N3_4 N 0.7833(2) 0.04169(17) 0.16693(10)
N5_4 N 0.9582(2) 0.04478(16) 0.34843(11)
O1_4 O 0.5003(2) 0.28452(15) 0.06989(10)
O2_3 O 0.4351(2) 0.20724(17) 0.00859(11)
O6_2 O 0.7559(2) 0.29735(18) 0.04799(12)
C13_4 C 0.9900(3) 0.06131(19) 0.10469(13)
C16_4 C 0.8861(3) 0.0666(2) 0.01296(13)
C17_4 C 0.9701(3) 0.1344(2) 0.08060(14)
H9_4 H 0.9925 0.1821 0.0962
N2_2 N 0.9185(2) 0.13607(16) 0.03470(11)
C18_4 C 0.9261(3) 0.74495(19) 0.04773(15)
C19_4 C 0.8276(3) 0.7438(2) 0.06931(19)
H10_4 H 0.7818 0.7816 0.0510
H11_4 H 0.8387 0.7618 0.1037
C20_4 C 0.7779(3) 0.6602(2) 0.06762(18)
H12_4 H 0.7104 0.6655 0.0770
H13_4 H 0.7721 0.6403 0.0336
C21_4 C 0.8349(4) 0.5999(3) 0.10135(18)
H14_4 H 0.8347 0.6170 0.1357
H15_4 H 0.9044 0.5985 0.0942
C22_4 C 0.7907(4) 0.5154(3) 0.09545(17)
H16_4 H 0.7191 0.5184 0.0984
H17_4 H 0.7981 0.4963 0.0621
C23_4 C 0.8375(5) 0.4546(3) 0.13255(17)
H18_4 H 0.9095 0.4527 0.1306
H19_4 H 0.8275 0.4722 0.1659
C24_4 C 0.7950(4) 0.3711(3) 0.12439(18)
H20_4 H 0.8190 0.3380 0.1530
H21_4 H 0.7222 0.3739 0.1226
C25_4 C 0.8221(3) 0.3310(2) 0.07816(14)
O2_4 O 0.9351(2) 0.70724(17) 0.00859(11)
O3_2 O 0.9118(2) 0.32991(17) 0.06944(10)
H8_4 H 0.6503 0.4306 0.0186
C3_5 C 0.6926(3) 0.98276(19) 0.10148(13)
C4_5 C 0.6335(3) 0.9803(2) 0.05517(14)
H2_5 H 0.6089 0.9322 0.0409
C6_5 C 0.7789(3) 0.9616(2) 0.17333(13)
C7_5 C 0.8250(3) 0.9207(2) 0.21843(12)
C8_5 C 0.8703(3) 0.9625(2) 0.25959(12)
C9_5 C 0.9125(2) 0.92139(19) 0.30150(12)
C10_5 C 0.9082(3) 0.8376(2) 0.30033(14)
H5_5 H 0.9369 0.8093 0.3282
C11_5 C 0.8240(3) 0.8370(2) 0.22161(14)
H6_5 H 0.7929 0.8082 0.1945
C12_5 C 0.9592(2) 0.96554(19) 0.34536(12)
H17_5 H 0.2981 0.9963 0.0621
C23_5 C 0.3375(5) 0.9546(3) 0.13255(17)
H18_5 H 0.4095 0.9527 0.1306
H19_5 H 0.3275 0.9722 0.1659
C24_5 C 0.2950(4) 0.8711(3) 0.12439(18)
H20_5 H 0.3190 0.8380 0.1530
H21_5 H 0.2222 0.8739 0.1226
C25_5 C 0.3221(3) 0.8310(2) 0.07816(14)
N4_5 N 0.7266(2) 0.92409(16) 0.13498(11)
H22_5 H 0.7162 0.8731 0.1319
N7_5 N 0.8653(3) 0.79574(19) 0.26138(12)
O3_3 O 0.4118(2) 0.82991(17) 0.06944(10)
O4 O 0.2559(2) 0.79735(18) 0.04799(12)
Cd2 Cd 0.10621(2) 0.74201(2) 0.00682(2)
C3_6 C 0.3074(3) 0.98276(19) 0.39852(13)
C4_6 C 0.3665(3) 0.9803(2) 0.44483(14)
H2_6 H 0.3911 0.9322 0.4591
C6_6 C 0.2211(3) 0.9616(2) 0.32667(13)
C7_6 C 0.1750(3) 0.9207(2) 0.28157(12)
C8_6 C 0.1297(3) 0.9625(2) 0.24041(12)
C9_6 C 0.0875(2) 0.92139(19) 0.19850(12)
C10_6 C 0.0918(3) 0.8376(2) 0.19967(14)
H5_6 H 0.0631 0.8093 0.1718
C11_6 C 0.1760(3) 0.8370(2) 0.27839(14)
H6_6 H 0.2071 0.8082 0.3055
C12_6 C 0.0408(2) 0.96554(19) 0.15464(12)
H17_6 H 0.7019 0.9963 0.4379
C23_6 C 0.6625(5) 0.9546(3) 0.36745(17)
H18_6 H 0.5905 0.9527 0.3694
H19_6 H 0.6725 0.9722 0.3341
C24_6 C 0.7050(4) 0.8711(3) 0.37561(18)
H20_6 H 0.6810 0.8380 0.3470
H21_6 H 0.7778 0.8739 0.3774
C25_6 C 0.6779(3) 0.8310(2) 0.42184(14)
N4_6 N 0.2734(2) 0.92409(16) 0.36502(11)
H22_6 H 0.2838 0.8731 0.3681
N7_6 N 0.1347(3) 0.79574(19) 0.23862(12)
O3_4 O 0.5882(2) 0.82991(17) 0.43056(10)
O4_2 O 0.7441(2) 0.79735(18) 0.45201(12)
Cd2_2 Cd 0.89379(2) 0.74201(2) 0.49318(2)
Cd3 Cd 0.60621(2) 0.75799(2) 0.50682(2)
C1_5 C 0.2043(3) 0.6271(2) 0.09538(13)
H1_5 H 0.2281 0.6760 0.1088
C2_5 C 0.2273(3) 0.5561(2) 0.12112(12)
C3_7 C 0.1926(3) 0.48276(19) 0.10148(13)
C4_7 C 0.1335(3) 0.4803(2) 0.05517(14)
H2_7 H 0.1089 0.4322 0.0409
C5_5 C 0.1141(3) 0.5527(2) 0.03226(14)
H3_5 H 0.0748 0.5526 0.0014
C6_7 C 0.2789(3) 0.4616(2) 0.17333(13)
C7_7 C 0.3250(3) 0.4207(2) 0.21843(12)
C8_7 C 0.3703(3) 0.4625(2) 0.25959(12)
H4_5 H 0.3724 0.5185 0.2590
C9_7 C 0.4125(2) 0.42139(19) 0.30150(12)
C10_7 C 0.4082(3) 0.3376(2) 0.30033(14)
H5_7 H 0.4369 0.3093 0.3282
C11_7 C 0.3240(3) 0.3370(2) 0.22161(14)
H6_7 H 0.2929 0.3082 0.1945
C12_7 C 0.4592(2) 0.46554(19) 0.34536(12)
C13_5 C 0.5100(3) 0.56131(19) 0.39531(13)
C14_4 C 0.5419(2) 0.49005(19) 0.41878(12)
C15_4 C 0.5973(3) 0.4915(2) 0.46617(13)
H7_4 H 0.6213 0.4448 0.4825
C16_5 C 0.6139(3) 0.5666(2) 0.48704(13)
H8_5 H 0.6503 0.5694 0.5186
C17_5 C 0.5299(3) 0.6344(2) 0.41940(14)
H9_5 H 0.5075 0.6821 0.4038
N1_5 N 0.1478(2) 0.62498(17) 0.05108(11)
N2_3 N 0.5815(2) 0.63607(16) 0.46530(11)
N3_5 N 0.2833(2) 0.54169(17) 0.16693(10)
N4_7 N 0.2266(2) 0.42409(16) 0.13498(11)
H22_7 H 0.2162 0.3731 0.1319
N5_5 N 0.4582(2) 0.54478(16) 0.34843(11)
N6_4 N 0.5087(2) 0.42977(16) 0.38664(10)
H23_4 H 0.5173 0.3789 0.3915
N7_7 N 0.3653(3) 0.29574(19) 0.26138(12)
O1_5 O 0.0003(2) 0.78452(15) 0.06989(10)
C1_6 C 0.7957(3) 0.6271(2) 0.40462(13)
H1_6 H 0.7719 0.6760 0.3912
C2_6 C 0.7727(3) 0.5561(2) 0.37888(12)
C3_8 C 0.8074(3) 0.48276(19) 0.39852(13)
C4_8 C 0.8665(3) 0.4803(2) 0.44483(14)
H2_8 H 0.8911 0.4322 0.4591
C5_6 C 0.8859(3) 0.5527(2) 0.46774(14)
H3_6 H 0.9252 0.5526 0.4986
C6_8 C 0.7211(3) 0.4616(2) 0.32667(13)
C7_8 C 0.6750(3) 0.4207(2) 0.28157(12)
C8_8 C 0.6297(3) 0.4625(2) 0.24041(12)
H4_6 H 0.6276 0.5185 0.2410
C9_8 C 0.5875(2) 0.42139(19) 0.19850(12)
C10_8 C 0.5918(3) 0.3376(2) 0.19967(14)
H5_8 H 0.5631 0.3093 0.1718
C11_8 C 0.6760(3) 0.3370(2) 0.27839(14)
H6_8 H 0.7071 0.3082 0.3055
C12_8 C 0.5408(2) 0.46554(19) 0.15464(12)
C13_6 C 0.4900(3) 0.56131(19) 0.10469(13)
C14_5 C 0.4581(2) 0.49005(19) 0.08122(12)
C15_5 C 0.4027(3) 0.4915(2) 0.03383(13)
H7_5 H 0.3787 0.4448 0.0175
C16_6 C 0.3861(3) 0.5666(2) 0.01296(13)
C17_6 C 0.4701(3) 0.6344(2) 0.08060(14)
H9_6 H 0.4925 0.6821 0.0962
N1_6 N 0.8522(2) 0.62498(17) 0.44892(11)
N2_4 N 0.4185(2) 0.63607(16) 0.03470(11)
N3_6 N 0.7167(2) 0.54169(17) 0.33307(10)
N4_8 N 0.7734(2) 0.42409(16) 0.36502(11)
H22_8 H 0.7838 0.3731 0.3681
N5_6 N 0.5418(2) 0.54478(16) 0.15157(11)
N6_5 N 0.4913(2) 0.42977(16) 0.11336(10)
H23_5 H 0.4827 0.3789 0.1085
N7_8 N 0.6347(3) 0.29574(19) 0.23862(12)
O1_6 O 0.9997(2) 0.78452(15) 0.43011(10)
N8_3 N 0.9185(2) 0.86393(16) 0.53470(11)
O5_3 O 0.9118(2) 0.67009(17) 0.56944(10)
O7_3 O 0.7559(2) 0.70265(18) 0.54799(12)
C13_7 C 0.9900(3) 0.93869(19) 0.60469(13)
C16_7 C 0.8861(3) 0.9334(2) 0.51296(13)
H8_6 H 0.8497 0.9306 0.4814
C17_7 C 0.9701(3) 0.8656(2) 0.58060(14)
H9_7 H 0.9925 0.8179 0.5962
H8_7 H 0.1503 0.9306 0.0186
C1_7 C 0.7043(3) 0.8729(2) 0.59538(13)
H1_7 H 0.7281 0.8240 0.6088
C2_7 C 0.7273(3) 0.9439(2) 0.62112(12)
C5_7 C 0.6141(3) 0.9473(2) 0.53226(14)
H3_7 H 0.5748 0.9474 0.5014
H4_7 H 0.8724 0.9815 0.7590
C18_5 C 0.4261(3) 0.75505(19) 0.54773(15)
C19_5 C 0.3276(3) 0.7562(2) 0.56931(19)
H10_5 H 0.2818 0.7184 0.5510
H11_5 H 0.3387 0.7382 0.6037
C20_5 C 0.2779(3) 0.8398(2) 0.56762(18)
H12_5 H 0.2104 0.8345 0.5770
H13_5 H 0.2721 0.8597 0.5336
C21_5 C 0.3349(4) 0.9001(3) 0.60135(18)
H14_5 H 0.3347 0.8830 0.6357
H15_5 H 0.4044 0.9015 0.5942
C22_5 C 0.2907(4) 0.9846(3) 0.59545(17)
H16_5 H 0.2191 0.9816 0.5984
N1_7 N 0.6478(2) 0.87502(17) 0.55108(11)
N3_7 N 0.7833(2) 0.95831(17) 0.66693(10)
N5_7 N 0.9582(2) 0.95522(16) 0.84843(11)
O1_7 O 0.5003(2) 0.71548(15) 0.56989(10)
O2_5 O 0.4351(2) 0.79276(17) 0.50859(11)
C18_6 C 0.9261(3) 0.25505(19) 0.54773(15)
C19_6 C 0.8276(3) 0.2562(2) 0.56931(19)
H10_6 H 0.7818 0.2184 0.5510
H11_6 H 0.8387 0.2382 0.6037
C20_6 C 0.7779(3) 0.3398(2) 0.56762(18)
H12_6 H 0.7104 0.3345 0.5770
H13_6 H 0.7721 0.3597 0.5336
C21_6 C 0.8349(4) 0.4001(3) 0.60135(18)
H14_6 H 0.8347 0.3830 0.6357
H15_6 H 0.9044 0.4015 0.5942
C22_6 C 0.7907(4) 0.4846(3) 0.59545(17)
H16_6 H 0.7191 0.4816 0.5984
H17_7 H 0.7981 0.5037 0.5621
C23_7 C 0.8375(5) 0.5454(3) 0.63255(17)
H18_7 H 0.9095 0.5473 0.6306
H19_7 H 0.8275 0.5278 0.6659
C24_7 C 0.7950(4) 0.6289(3) 0.62439(18)
H20_7 H 0.8190 0.6620 0.6530
H21_7 H 0.7222 0.6261 0.6226
C25_7 C 0.8221(3) 0.6690(2) 0.57816(14)
O2_6 O 0.9351(2) 0.29276(17) 0.50859(11)
Cd3_2 Cd 0.39379(2) 0.75799(2) 0.99318(2)
N8_4 N 0.0815(2) 0.86393(16) 0.96530(11)
O5_4 O 0.0882(2) 0.67009(17) 0.93056(10)
O7_4 O 0.2441(2) 0.70265(18) 0.95201(12)
H8_8 H 0.3497 0.5694 0.9814
C1_8 C 0.2957(3) 0.8729(2) 0.90462(13)
H1_8 H 0.2719 0.8240 0.8912
C2_8 C 0.2727(3) 0.9439(2) 0.87888(12)
C5_8 C 0.3859(3) 0.9473(2) 0.96774(14)
H3_8 H 0.4252 0.9474 0.9986
H4_8 H 0.1276 0.9815 0.7410
C18_7 C 0.5739(3) 0.75505(19) 0.95227(15)
C19_7 C 0.6724(3) 0.7562(2) 0.93069(19)
H10_7 H 0.7182 0.7184 0.9490
H11_7 H 0.6613 0.7382 0.8963
C20_7 C 0.7221(3) 0.8398(2) 0.93238(18)
H12_7 H 0.7896 0.8345 0.9230
H13_7 H 0.7279 0.8597 0.9664
C21_7 C 0.6651(4) 0.9001(3) 0.89865(18)
H14_7 H 0.6653 0.8830 0.8643
H15_7 H 0.5956 0.9015 0.9058
C22_7 C 0.7093(4) 0.9846(3) 0.90455(17)
H16_7 H 0.7809 0.9816 0.9016
N1_8 N 0.3522(2) 0.87502(17) 0.94892(11)
N3_8 N 0.2167(2) 0.95831(17) 0.83307(10)
N5_8 N 0.0418(2) 0.95522(16) 0.65157(11)
O1_8 O 0.4997(2) 0.71548(15) 0.93011(10)
O2_7 O 0.5649(2) 0.79276(17) 0.99141(11)
C13_8 C 0.0100(3) 0.93869(19) 0.89531(13)
C16_8 C 0.1139(3) 0.9334(2) 0.98704(13)
C17_8 C 0.0299(3) 0.8656(2) 0.91940(14)
H9_8 H 0.0075 0.8179 0.9038
C18_8 C 0.0739(3) 0.25505(19) 0.95227(15)
C19_8 C 0.1724(3) 0.2562(2) 0.93069(19)
H10_8 H 0.2182 0.2184 0.9490
H11_8 H 0.1613 0.2382 0.8963
C20_8 C 0.2221(3) 0.3398(2) 0.93238(18)
H12_8 H 0.2896 0.3345 0.9230
H13_8 H 0.2279 0.3597 0.9664
C21_8 C 0.1651(4) 0.4001(3) 0.89865(18)
H14_8 H 0.1653 0.3830 0.8643
H15_8 H 0.0956 0.4015 0.9058
C22_8 C 0.2093(4) 0.4846(3) 0.90455(17)
H16_8 H 0.2809 0.4816 0.9016
H17_8 H 0.2019 0.5037 0.9379
C23_8 C 0.1625(5) 0.5454(3) 0.86745(17)
H18_8 H 0.0905 0.5473 0.8694
H19_8 H 0.1725 0.5278 0.8341
C24_8 C 0.2050(4) 0.6289(3) 0.87561(18)
H20_8 H 0.1810 0.6620 0.8470
H21_8 H 0.2778 0.6261 0.8774
C25_8 C 0.1779(3) 0.6690(2) 0.92184(14)
O2_8 O 0.0649(2) 0.29276(17) 0.99141(11)
C14_6 C 0.9581(2) 0.99005(19) 0.08122(12)
C15_6 C 0.9027(3) 0.9915(2) 0.03383(13)
H7_6 H 0.8787 0.9448 0.0175
N6_6 N 0.9913(2) 0.92977(16) 0.11336(10)
H23_6 H 0.9827 0.8789 0.1085
C14_7 C 0.9581(2) 0.00995(19) 0.58122(12)
C15_7 C 0.9027(3) 0.0085(2) 0.53383(13)
H7_7 H 0.8787 0.0552 0.5175
N6_7 N 0.9913(2) 0.07023(16) 0.61336(10)
H23_7 H 0.9827 0.1211 0.6085
C14_8 C 0.0419(2) 0.00995(19) 0.91878(12)
C15_8 C 0.0973(3) 0.0085(2) 0.96617(13)
H7_8 H 0.1213 0.0552 0.9825
N6_8 N 0.0087(2) 0.07023(16) 0.88664(10)
H23_8 H 0.0173 0.1211 0.8915
loop_
_geom_bond_atom_site_label_1
_geom_bond_atom_site_label_2
_geom_bond_site_symmetry_1
_geom_bond_site_symmetry_2
H8 C16 1_555 1_555
C17 C13 1_555 1_555
H9 C17 1_555 1_555
N2 C16 1_555 1_555
Cd4 N2 1_555 1_555
C17 N2 1_555 1_555
C1 H1 1_555 1_555
C2 C1 1_555 1_555
H3 C5 1_555 1_555
C18 C19 1_555 1_555
C19 H10 1_555 1_555
H11 C19 1_555 1_555
C20 C19 1_555 1_555
H12 C20 1_555 1_555
H13 C20 1_555 1_555
C21 C20 1_555 1_555
H14 C21 1_555 1_555
H15 C21 1_555 1_555
C22 C21 1_555 1_555
H16 C22 1_555 1_555
Cd1 N1 1_555 1_555
N1 C1 1_555 1_555
N3 C2 1_555 1_555
O1 C18 1_555 1_555
O2 C18 1_555 1_555
N8_2 Cd1 1_555 1_555
O5_2 Cd1 1_555 1_555
O6 Cd1 1_555 1_555
O7_2 Cd1 1_555 1_555
C5 N1 1_555 1_555
Cd1 O1 1_555 1_555
Cd1 O2 1_555 1_555
C18_2 C19_2 1_555 1_555
C19_2 H10_2 1_555 1_555
H11_2 C19_2 1_555 1_555
C20_2 C19_2 1_555 1_555
H12_2 C20_2 1_555 1_555
H13_2 C20_2 1_555 1_555
C21_2 C20_2 1_555 1_555
H14_2 C21_2 1_555 1_555
H15_2 C21_2 1_555 1_555
C22_2 C21_2 1_555 1_555
H16_2 C22_2 1_555 1_555
H17 C22_2 1_555 1_555
C23 C22_2 1_555 1_555
H18 C23 1_555 1_555
H19 C23 1_555 1_555
C24 C23 1_555 1_555
H20 C24 1_555 1_555
H21 C24 1_555 1_555
C25 C24 1_555 1_555
O2_2 C18_2 1_555 1_555
O3 C25 1_555 1_555
O6 C25 1_555 1_555
Cd4 O3 1_555 1_555
O6 Cd4 1_555 1_555
C4 C3 1_555 1_555
H2 C4 1_555 1_555
C6 C7 1_555 1_555
C7 C8 1_555 1_555
C9 C8 1_555 1_555
C10 C9 1_555 1_555
H5 C10 1_555 1_555
C11 C7 1_555 1_555
H6 C11 1_555 1_555
C12 C9 1_555 1_555
H18_2 C23_2 1_555 1_555
H19_2 C23_2 1_555 1_555
C24_2 C23_2 1_555 1_555
H20_2 C24_2 1_555 1_555
H21_2 C24_2 1_555 1_555
C25_2 C24_2 1_555 1_555
N4 C3 1_555 1_555
H22 N4 1_555 1_555
N7 C10 1_555 1_555
O5 C25_2 1_555 1_555
O7 C25_2 1_555 1_555
Cd4_2 O7 1_555 1_555
C6 N4 1_555 1_555
C11 N7 1_555 1_555
C4_2 C3_2 1_555 1_555
H2_2 C4_2 1_555 1_555
C6_2 C7_2 1_555 1_555
C7_2 C8_2 1_555 1_555
C9_2 C8_2 1_555 1_555
C10_2 C9_2 1_555 1_555
H5_2 C10_2 1_555 1_555
C11_2 C7_2 1_555 1_555
H6_2 C11_2 1_555 1_555
C12_2 C9_2 1_555 1_555
H18_3 C23_3 1_555 1_555
H19_3 C23_3 1_555 1_555
C24_3 C23_3 1_555 1_555
H20_3 C24_3 1_555 1_555
H21_3 C24_3 1_555 1_555
C25_3 C24_3 1_555 1_555
N4_2 C3_2 1_555 1_555
H22_2 N4_2 1_555 1_555
N7_2 C10_2 1_555 1_555
O5_2 C25_3 1_555 1_555
O7_2 C25_3 1_555 1_555
Cd4 O7_2 1_555 1_555
C6_2 N4_2 1_555 1_555
C11_2 N7_2 1_555 1_555
C1_2 H1_2 1_555 1_555
C2_2 C1_2 1_555 1_555
C3_3 C2_2 1_555 1_555
C4_3 C3_3 1_555 1_555
H2_3 C4_3 1_555 1_555
C5_2 C4_3 1_555 1_555
H3_2 C5_2 1_555 1_555
C6_3 C7_3 1_555 1_555
C7_3 C8_3 1_555 1_555
C8_3 H4_2 1_555 1_555
C9_3 C8_3 1_555 1_555
C10_3 C9_3 1_555 1_555
H5_3 C10_3 1_555 1_555
C11_3 C7_3 1_555 1_555
H6_3 C11_3 1_555 1_555
C12_3 C9_3 1_555 1_555
C13_2 C14 1_555 1_555
C14 C15 1_555 1_555
C15 H7 1_555 1_555
C16_2 C15 1_555 1_555
H8_3 C16_2 1_555 1_555
C17_2 C13_2 1_555 1_555
H9_2 C17_2 1_555 1_555
Cd4_2 N1_2 1_555 1_555
N1_2 C1_2 1_555 1_555
N8_2 C16_2 1_555 1_555
N3_2 C2_2 1_555 1_555
N4_3 C3_3 1_555 1_555
H22_3 N4_3 1_555 1_555
N5_2 C12_3 1_555 1_555
N6 C12_3 1_555 1_555
H23 N6 1_555 1_555
N7_3 C10_3 1_555 1_555
C5_2 N1_2 1_555 1_555
C6_3 N3_2 1_555 1_555
C6_3 N4_3 1_555 1_555
C11_3 N7_3 1_555 1_555
C13_2 N5_2 1_555 1_555
C14 N6 1_555 1_555
C17_2 N8_2 1_555 1_555
Cd4_2 O1_2 1_555 1_555
C1_3 H1_3 1_555 1_555
C2_3 C1_3 1_555 1_555
C3_4 C2_3 1_555 1_555
C4_4 C3_4 1_555 1_555
H2_4 C4_4 1_555 1_555
C5_3 C4_4 1_555 1_555
H3_3 C5_3 1_555 1_555
C6_4 C7_4 1_555 1_555
C7_4 C8_4 1_555 1_555
C8_4 H4_3 1_555 1_555
C9_4 C8_4 1_555 1_555
C10_4 C9_4 1_555 1_555
H5_4 C10_4 1_555 1_555
C11_4 C7_4 1_555 1_555
H6_4 C11_4 1_555 1_555
C12_4 C9_4 1_555 1_555
C13_3 C14_2 1_555 1_555
C14_2 C15_2 1_555 1_555
C15_2 H7_2 1_555 1_555
C16_3 C15_2 1_555 1_555
C17_3 C13_3 1_555 1_555
H9_3 C17_3 1_555 1_555
Cd4 N1_3 1_555 1_555
N1_3 C1_3 1_555 1_555
N8 C16_3 1_555 1_555
N3_3 C2_3 1_555 1_555
N4_4 C3_4 1_555 1_555
H22_4 N4_4 1_555 1_555
N5_3 C12_4 1_555 1_555
N6_2 C12_4 1_555 1_555
H23_2 N6_2 1_555 1_555
N7_4 C10_4 1_555 1_555
C5_3 N1_3 1_555 1_555
C6_4 N3_3 1_555 1_555
C6_4 N4_4 1_555 1_555
C11_4 N7_4 1_555 1_555
C13_3 N5_3 1_555 1_555
C14_2 N6_2 1_555 1_555
C17_3 N8 1_555 1_555
Cd4 O1_3 1_555 1_555
C14_3 C15_3 1_555 1_555
C15_3 H7_3 1_555 1_555
H23_3 N6_3 1_555 1_555
C14_3 N6_3 1_555 1_555
C1_4 H1_4 1_555 1_555
C2_4 C1_4 1_555 1_555
H3_4 C5_4 1_555 1_555
C18_3 C19_3 1_555 1_555
C19_3 H10_3 1_555 1_555
H11_3 C19_3 1_555 1_555
C20_3 C19_3 1_555 1_555
H12_3 C20_3 1_555 1_555
H13_3 C20_3 1_555 1_555
C21_3 C20_3 1_555 1_555
H14_3 C21_3 1_555 1_555
H15_3 C21_3 1_555 1_555
C22_3 C21_3 1_555 1_555
H16_3 C22_3 1_555 1_555
Cd1_2 N1_4 1_555 1_555
N1_4 C1_4 1_555 1_555
N3_4 C2_4 1_555 1_555
O1_4 C18_3 1_555 1_555
O2_3 C18_3 1_555 1_555
O6_2 Cd1_2 1_555 1_555
C5_4 N1_4 1_555 1_555
Cd1_2 O1_4 1_555 1_555
Cd1_2 O2_3 1_555 1_555
C17_4 C13_4 1_555 1_555
H9_4 C17_4 1_555 1_555
N2_2 C16_4 1_555 1_555
C17_4 N2_2 1_555 1_555
C18_4 C19_4 1_555 1_555
C19_4 H10_4 1_555 1_555
H11_4 C19_4 1_555 1_555
C20_4 C19_4 1_555 1_555
H12_4 C20_4 1_555 1_555
H13_4 C20_4 1_555 1_555
C21_4 C20_4 1_555 1_555
H14_4 C21_4 1_555 1_555
H15_4 C21_4 1_555 1_555
C22_4 C21_4 1_555 1_555
H16_4 C22_4 1_555 1_555
H17_4 C22_4 1_555 1_555
C23_4 C22_4 1_555 1_555
H18_4 C23_4 1_555 1_555
H19_4 C23_4 1_555 1_555
C24_4 C23_4 1_555 1_555
H20_4 C24_4 1_555 1_555
H21_4 C24_4 1_555 1_555
C25_4 C24_4 1_555 1_555
O2_4 C18_4 1_555 1_555
O3_2 C25_4 1_555 1_555
O6_2 C25_4 1_555 1_555
C4_5 C3_5 1_555 1_555
H2_5 C4_5 1_555 1_555
C6_5 C7_5 1_555 1_555
C7_5 C8_5 1_555 1_555
C9_5 C8_5 1_555 1_555
C10_5 C9_5 1_555 1_555
H5_5 C10_5 1_555 1_555
C11_5 C7_5 1_555 1_555
H6_5 C11_5 1_555 1_555
C12_5 C9_5 1_555 1_555
H18_5 C23_5 1_555 1_555
H19_5 C23_5 1_555 1_555
C24_5 C23_5 1_555 1_555
H20_5 C24_5 1_555 1_555
H21_5 C24_5 1_555 1_555
C25_5 C24_5 1_555 1_555
N4_5 C3_5 1_555 1_555
H22_5 N4_5 1_555 1_555
N7_5 C10_5 1_555 1_555
O3_3 C25_5 1_555 1_555
O4 C25_5 1_555 1_555
Cd2 O4 1_555 1_555
C6_5 N4_5 1_555 1_555
C11_5 N7_5 1_555 1_555
C4_6 C3_6 1_555 1_555
H2_6 C4_6 1_555 1_555
C6_6 C7_6 1_555 1_555
C7_6 C8_6 1_555 1_555
C9_6 C8_6 1_555 1_555
C10_6 C9_6 1_555 1_555
H5_6 C10_6 1_555 1_555
C11_6 C7_6 1_555 1_555
H6_6 C11_6 1_555 1_555
C12_6 C9_6 1_555 1_555
H18_6 C23_6 1_555 1_555
H19_6 C23_6 1_555 1_555
C24_6 C23_6 1_555 1_555
H20_6 C24_6 1_555 1_555
H21_6 C24_6 1_555 1_555
C25_6 C24_6 1_555 1_555
N4_6 C3_6 1_555 1_555
H22_6 N4_6 1_555 1_555
N7_6 C10_6 1_555 1_555
O3_4 C25_6 1_555 1_555
O4_2 C25_6 1_555 1_555
Cd2_2 O4_2 1_555 1_555
Cd3 O3_4 1_555 1_555
C6_6 N4_6 1_555 1_555
C11_6 N7_6 1_555 1_555
O4_2 Cd3 1_555 1_555
C1_5 H1_5 1_555 1_555
C2_5 C1_5 1_555 1_555
C3_7 C2_5 1_555 1_555
C4_7 C3_7 1_555 1_555
H2_7 C4_7 1_555 1_555
C5_5 C4_7 1_555 1_555
H3_5 C5_5 1_555 1_555
C6_7 C7_7 1_555 1_555
C7_7 C8_7 1_555 1_555
C8_7 H4_5 1_555 1_555
C9_7 C8_7 1_555 1_555
C10_7 C9_7 1_555 1_555
H5_7 C10_7 1_555 1_555
C11_7 C7_7 1_555 1_555
H6_7 C11_7 1_555 1_555
C12_7 C9_7 1_555 1_555
C13_5 C14_4 1_555 1_555
C14_4 C15_4 1_555 1_555
C15_4 H7_4 1_555 1_555
C16_5 C15_4 1_555 1_555
H8_5 C16_5 1_555 1_555
C17_5 C13_5 1_555 1_555
H9_5 C17_5 1_555 1_555
Cd2 N1_5 1_555 1_555
N1_5 C1_5 1_555 1_555
N2_3 C16_5 1_555 1_555
N3_5 C2_5 1_555 1_555
N4_7 C3_7 1_555 1_555
H22_7 N4_7 1_555 1_555
N5_5 C12_7 1_555 1_555
N6_4 C12_7 1_555 1_555
H23_4 N6_4 1_555 1_555
N7_7 C10_7 1_555 1_555
Cd3 N2_3 1_555 1_555
C5_5 N1_5 1_555 1_555
C6_7 N3_5 1_555 1_555
C6_7 N4_7 1_555 1_555
C11_7 N7_7 1_555 1_555
C13_5 N5_5 1_555 1_555
C14_4 N6_4 1_555 1_555
C17_5 N2_3 1_555 1_555
Cd2 O1_5 1_555 1_555
C1_6 H1_6 1_555 1_555
C2_6 C1_6 1_555 1_555
C3_8 C2_6 1_555 1_555
C4_8 C3_8 1_555 1_555
H2_8 C4_8 1_555 1_555
C5_6 C4_8 1_555 1_555
H3_6 C5_6 1_555 1_555
C6_8 C7_8 1_555 1_555
C7_8 C8_8 1_555 1_555
C8_8 H4_6 1_555 1_555
C9_8 C8_8 1_555 1_555
C10_8 C9_8 1_555 1_555
H5_8 C10_8 1_555 1_555
C11_8 C7_8 1_555 1_555
H6_8 C11_8 1_555 1_555
C12_8 C9_8 1_555 1_555
C13_6 C14_5 1_555 1_555
C14_5 C15_5 1_555 1_555
C15_5 H7_5 1_555 1_555
C16_6 C15_5 1_555 1_555
C17_6 C13_6 1_555 1_555
H9_6 C17_6 1_555 1_555
Cd2_2 N1_6 1_555 1_555
N1_6 C1_6 1_555 1_555
N2_4 C16_6 1_555 1_555
N3_6 C2_6 1_555 1_555
N4_8 C3_8 1_555 1_555
H22_8 N4_8 1_555 1_555
N5_6 C12_8 1_555 1_555
N6_5 C12_8 1_555 1_555
H23_5 N6_5 1_555 1_555
N7_8 C10_8 1_555 1_555
N8_3 Cd2_2 1_555 1_555
O5_3 Cd2_2 1_555 1_555
O7_3 Cd2_2 1_555 1_555
C5_6 N1_6 1_555 1_555
C6_8 N3_6 1_555 1_555
C6_8 N4_8 1_555 1_555
C11_8 N7_8 1_555 1_555
C13_6 N5_6 1_555 1_555
C14_5 N6_5 1_555 1_555
C17_6 N2_4 1_555 1_555
Cd2_2 O1_6 1_555 1_555
H8_6 C16_7 1_555 1_555
C17_7 C13_7 1_555 1_555
H9_7 C17_7 1_555 1_555
N8_3 C16_7 1_555 1_555
C17_7 N8_3 1_555 1_555
C1_7 H1_7 1_555 1_555
C2_7 C1_7 1_555 1_555
H3_7 C5_7 1_555 1_555
C18_5 C19_5 1_555 1_555
C19_5 H10_5 1_555 1_555
H11_5 C19_5 1_555 1_555
C20_5 C19_5 1_555 1_555
H12_5 C20_5 1_555 1_555
H13_5 C20_5 1_555 1_555
C21_5 C20_5 1_555 1_555
H14_5 C21_5 1_555 1_555
H15_5 C21_5 1_555 1_555
C22_5 C21_5 1_555 1_555
H16_5 C22_5 1_555 1_555
Cd3 N1_7 1_555 1_555
N1_7 C1_7 1_555 1_555
N3_7 C2_7 1_555 1_555
O1_7 C18_5 1_555 1_555
O2_5 C18_5 1_555 1_555
O7_3 Cd3 1_555 1_555
C5_7 N1_7 1_555 1_555
Cd3 O1_7 1_555 1_555
Cd3 O2_5 1_555 1_555
C18_6 C19_6 1_555 1_555
C19_6 H10_6 1_555 1_555
H11_6 C19_6 1_555 1_555
C20_6 C19_6 1_555 1_555
H12_6 C20_6 1_555 1_555
H13_6 C20_6 1_555 1_555
C21_6 C20_6 1_555 1_555
H14_6 C21_6 1_555 1_555
H15_6 C21_6 1_555 1_555
C22_6 C21_6 1_555 1_555
H16_6 C22_6 1_555 1_555
H17_7 C22_6 1_555 1_555
C23_7 C22_6 1_555 1_555
H18_7 C23_7 1_555 1_555
H19_7 C23_7 1_555 1_555
C24_7 C23_7 1_555 1_555
H20_7 C24_7 1_555 1_555
H21_7 C24_7 1_555 1_555
C25_7 C24_7 1_555 1_555
O2_6 C18_6 1_555 1_555
O5_3 C25_7 1_555 1_555
O7_3 C25_7 1_555 1_555
C1_8 H1_8 1_555 1_555
C2_8 C1_8 1_555 1_555
H3_8 C5_8 1_555 1_555
C18_7 C19_7 1_555 1_555
C19_7 H10_7 1_555 1_555
H11_7 C19_7 1_555 1_555
C20_7 C19_7 1_555 1_555
H12_7 C20_7 1_555 1_555
H13_7 C20_7 1_555 1_555
C21_7 C20_7 1_555 1_555
H14_7 C21_7 1_555 1_555
H15_7 C21_7 1_555 1_555
C22_7 C21_7 1_555 1_555
H16_7 C22_7 1_555 1_555
Cd3_2 N1_8 1_555 1_555
N1_8 C1_8 1_555 1_555
N3_8 C2_8 1_555 1_555
O1_8 C18_7 1_555 1_555
O2_7 C18_7 1_555 1_555
O7_4 Cd3_2 1_555 1_555
C5_8 N1_8 1_555 1_555
Cd3_2 O1_8 1_555 1_555
Cd3_2 O2_7 1_555 1_555
C17_8 C13_8 1_555 1_555
H9_8 C17_8 1_555 1_555
N8_4 C16_8 1_555 1_555
C17_8 N8_4 1_555 1_555
C18_8 C19_8 1_555 1_555
C19_8 H10_8 1_555 1_555
H11_8 C19_8 1_555 1_555
C20_8 C19_8 1_555 1_555
H12_8 C20_8 1_555 1_555
H13_8 C20_8 1_555 1_555
C21_8 C20_8 1_555 1_555
H14_8 C21_8 1_555 1_555
H15_8 C21_8 1_555 1_555
C22_8 C21_8 1_555 1_555
H16_8 C22_8 1_555 1_555
H17_8 C22_8 1_555 1_555
C23_8 C22_8 1_555 1_555
H18_8 C23_8 1_555 1_555
H19_8 C23_8 1_555 1_555
C24_8 C23_8 1_555 1_555
H20_8 C24_8 1_555 1_555
H21_8 C24_8 1_555 1_555
C25_8 C24_8 1_555 1_555
O2_8 C18_8 1_555 1_555
O5_4 C25_8 1_555 1_555
O7_4 C25_8 1_555 1_555
C14_6 C15_6 1_555 1_555
C15_6 H7_6 1_555 1_555
H23_6 N6_6 1_555 1_555
C14_6 N6_6 1_555 1_555
C14_7 C15_7 1_555 1_555
C15_7 H7_7 1_555 1_555
H23_7 N6_7 1_555 1_555
C14_7 N6_7 1_555 1_555
C14_8 C15_8 1_555 1_555
C15_8 H7_8 1_555 1_555
H23_8 N6_8 1_555 1_555
C14_8 N6_8 1_555 1_555

#END
