
###############################################################################
#
# This file contains modified crystal structure data generated from the
# MOF subset of the Cambridge Structural Database (CSD) v543 
# hosted by the Cambridge Crystallographic Data Centre (CCDC).
#
# This work is licensed under the Creative Commons
# Attribution-NonCommercial-ShareAlike 4.0 International License.
# To view a copy of this license, visit
# http://creativecommons.org/licenses/by-nc-sa/4.0/
# or send a letter to
# Creative Commons, PO Box 1866, Mountain View, CA 94042, USA.
#
# CIF created using the CSD Python API on 29 September 2022
# The structure has been converted into the P1 space group
# The structure has a 3D framework
# The original CSD entry COVPAG is in the orthorhombic crystal system
# The framework has been calculated to contain at least 10.0% void space
# The void calculation uses a probe of radius 1.32A, grid spacing 0.4
# H atom positions have been added when not included in the experimental data
# Generated hydrogen atom positions removed from atoms on special positions
#
###############################################################################

data_COVPAG
_chemical_formula_moiety         '(C136 H96 K16 O69 Zn8)n'
_symmetry_cell_setting           triclinic
_symmetry_space_group_name_H-M   'P 1'
_symmetry_Int_Tables_number      1
_space_group_name_Hall           'P 1'
loop_
_symmetry_equiv_pos_site_id
_symmetry_equiv_pos_as_xyz
1 x,y,z
_cell_length_a                   19.764(6)
_cell_length_b                   19.948(6)
_cell_length_c                   12.039(4)
_cell_angle_alpha                90
_cell_angle_beta                 90
_cell_angle_gamma                90
_cell_volume                     4746.4
loop_
_atom_site_label
_atom_site_type_symbol
_atom_site_fract_x
_atom_site_fract_y
_atom_site_fract_z
O8 O 0.3750(5) 0.0467(6) 0.0611(7)
H8 H 0.5000 0.0435 0.0283
O14 O 0.6250(5) 0.0467(6) 0.0611(7)
O23 O 0.1778(3) 0.0376(3) 0.4391(5)
O26 O 0.2321(4) 0.0620(3) 0.1447(5)
K12 K 0.6420(2) 0.09934(18) 0.2728(3)
K14 K 0.3580(2) 0.09934(18) 0.2728(3)
O7 O 0.3230(4) 0.0172(3) 0.9096(6)
C14 C 0.3753(6) 0.0374(4) 0.9624(8)
C15 C 0.4380(5) 0.0474(4) 0.8916(7)
C16 C 0.5000 0.0457(5) 0.9511(9)
C17 C 0.4395(5) 0.0525(4) 0.7767(9)
H9 H 0.3989 0.0536 0.7377
C18 C 0.5000 0.0560(6) 0.7184(12)
H10 H 0.5000 0.0606 0.6415
O13 O 0.6770(4) 0.0172(3) 0.9096(6)
C22 C 0.6247(6) 0.0374(4) 0.9624(8)
C23 C 0.5620(5) 0.0474(4) 0.8916(7)
C24 C 0.5605(5) 0.0525(4) 0.7767(9)
H12 H 0.6011 0.0536 0.7377
K6 K 0.80378(13) 0.05593(11) 0.7854(2)
K7 K 0.19622(13) 0.05593(11) 0.7854(2)
Zn1 Zn 0.25821(4) 0.99203(3) 0.03076(13)
K1 K 0.19622(13) 0.94407(11) 0.2854(2)
O1 O 0.2859(3) 0.9165(3) 0.1267(5)
O2 O 0.1248(5) 0.9426(6) 0.0970(6)
O6 O 0.2679(4) 0.5620(3) 0.1447(5)
C1 C 0.3050(6) 0.7416(4) 0.3237(9)
H1 H 0.3093 0.7428 0.4006
C2 C 0.3013(5) 0.7381(4) 0.0925(7)
H2 H 0.3017 0.7367 0.0153
C3 C 0.2981(5) 0.6785(4) 0.1522(7)
C4 C 0.3039(5) 0.7989(4) 0.1462(8)
C5 C 0.3044(5) 0.8019(4) 0.2620(8)
H3 H 0.3044 0.8431 0.2981
C8 C 0.2864(5) 0.6138(4) 0.0903(8)
C9 C 0.3015(5) 0.8640(4) 0.0774(7)
C11 C 0.2991(5) 0.6797(4) 0.2681(8)
H5 H 0.2959 0.6400 0.3083
H6 H 0.0000 0.9425 0.0632
Zn3 Zn 0.74179(4) 0.99203(3) 0.03076(13)
Zn5 Zn 0.24179(4) 0.49203(3) 0.03076(13)
K10 K 0.30378(13) 0.44407(11) 0.2854(2)
O20 O 0.2051(6) 0.8874(3) 0.4875(6)
O30 O 0.3230(4) 0.9828(3) 0.4096(6)
K15 K 0.1420(2) 0.59934(18) 0.2728(3)
O3 O 0.3187(6) 0.8599(3) 0.9777(6)
O4 O 0.2949(6) 0.6126(3) 0.9875(6)
O5 O 0.1778(3) 0.9624(3) 0.9391(5)
C6 C 0.0606(5) 0.9384(4) 0.8145(7)
H4 H 0.1014 0.9378 0.7759
C7 C 0.0604(5) 0.9425(4) 0.9288(7)
C10 C 0.1248(6) 0.9463(4) 0.9958(7)
C12 C 0.0000 0.9425(5) 0.9859(10)
C13 C 0.0000 0.9352(7) 0.7574(12)
H7 H -0.0000 0.9308 0.6805
O9 O 0.5000 0.8769(10) 0.829(3)
O10 O 0.3803(14) 0.7709(12) 0.692(3)
K2 K 0.3580(2) 0.90066(18) 0.7728(3)
K9 K 0.30378(13) 0.55593(11) 0.7854(2)
O25 O 0.2321(4) 0.9380(3) 0.6447(5)
O33 O 0.3750(5) 0.9533(6) 0.5611(7)
K13 K 0.6420(2) 0.90066(18) 0.7728(3)
O22 O 0.8222(3) 0.0376(3) 0.4391(5)
O24 O 0.7679(4) 0.0620(3) 0.1447(5)
H6_2 H 1.0000 0.9425 0.0632
O11 O 0.8752(5) 0.9426(6) 0.0970(6)
K3 K 0.80378(13) 0.94407(11) 0.2854(2)
O15 O 0.7141(3) 0.9165(3) 0.1267(5)
O18 O 0.7321(4) 0.5620(3) 0.1447(5)
C25 C 0.6950(6) 0.7416(4) 0.3237(9)
H13 H 0.6907 0.7428 0.4006
C26 C 0.6987(5) 0.7381(4) 0.0925(7)
H14 H 0.6983 0.7367 0.0153
C27 C 0.7019(5) 0.6785(4) 0.1522(7)
C28 C 0.6961(5) 0.7989(4) 0.1462(8)
C29 C 0.6956(5) 0.8019(4) 0.2620(8)
H15 H 0.6956 0.8431 0.2981
C30 C 0.7136(5) 0.6138(4) 0.0903(8)
C31 C 0.6985(5) 0.8640(4) 0.0774(7)
C32 C 0.7009(5) 0.6797(4) 0.2681(8)
H16 H 0.7041 0.6400 0.3083
Zn4 Zn 0.75821(4) 0.49203(3) 0.03076(13)
K8 K 0.69622(13) 0.44407(11) 0.2854(2)
O21 O 0.7949(6) 0.8874(3) 0.4875(6)
O28 O 0.6770(4) 0.9828(3) 0.4096(6)
K16 K 0.8580(2) 0.59934(18) 0.2728(3)
C12_2 C 1.0000 0.9425(5) 0.9859(10)
C13_2 C 1.0000 0.9352(7) 0.7574(12)
H7_2 H 1.0000 0.9308 0.6805
O12 O 0.8222(3) 0.9624(3) 0.9391(5)
C19 C 0.9394(5) 0.9384(4) 0.8145(7)
H11 H 0.8986 0.9378 0.7759
C20 C 0.9396(5) 0.9425(4) 0.9288(7)
C21 C 0.8752(6) 0.9463(4) 0.9958(7)
O16 O 0.6813(6) 0.8599(3) 0.9777(6)
O17 O 0.7051(6) 0.6126(3) 0.9875(6)
O19 O 0.6197(14) 0.7709(12) 0.692(3)
K11 K 0.69622(13) 0.55593(11) 0.7854(2)
O27 O 0.7679(4) 0.9380(3) 0.6447(5)
O31 O 0.6250(5) 0.9533(6) 0.5611(7)
C12_3 C 0.0000 0.0575(5) 0.4859(10)
H6_3 H -0.0000 0.0575 0.5632
C13_3 C -0.0000 0.0648(7) 0.2574(12)
H7_3 H -0.0000 0.0692 0.1805
O11_2 O 0.1248(5) 0.0574(6) 0.5970(6)
C19_2 C 0.0606(5) 0.0616(4) 0.3145(7)
H11_2 H 0.1014 0.0622 0.2759
C20_2 C 0.0604(5) 0.0575(4) 0.4288(7)
C21_2 C 0.1248(6) 0.0537(4) 0.4958(7)
Zn2 Zn 0.25821(4) 0.00797(3) 0.53076(13)
O15_2 O 0.2859(3) 0.0835(3) 0.6267(5)
O16_2 O 0.3187(6) 0.1401(3) 0.4777(6)
O17_2 O 0.2949(6) 0.3874(3) 0.4875(6)
O18_2 O 0.2679(4) 0.4380(3) 0.6447(5)
C25_2 C 0.3050(6) 0.2584(4) 0.8237(9)
H13_2 H 0.3093 0.2572 0.9006
C26_2 C 0.3013(5) 0.2619(4) 0.5925(7)
H14_2 H 0.3017 0.2633 0.5153
C27_2 C 0.2981(5) 0.3215(4) 0.6522(7)
C28_2 C 0.3039(5) 0.2011(4) 0.6462(8)
C29_2 C 0.3044(5) 0.1981(4) 0.7620(8)
H15_2 H 0.3044 0.1569 0.7981
C30_2 C 0.2864(5) 0.3862(4) 0.5903(8)
C31_2 C 0.3015(5) 0.1360(4) 0.5774(7)
C32_2 C 0.2991(5) 0.3203(4) 0.7681(8)
H16_2 H 0.2959 0.3600 0.8083
O19_2 O 0.3803(14) 0.2291(12) 0.192(3)
Zn4_2 Zn 0.24179(4) 0.50797(3) 0.53076(13)
O21_2 O 0.2051(6) 0.1126(3) 0.9875(6)
O34 O 0.5000 0.1231(10) 0.329(3)
K16_2 K 0.1420(2) 0.40066(18) 0.7728(3)
Zn1_2 Zn 0.74179(4) 0.00797(3) 0.53076(13)
O1_2 O 0.7141(3) 0.0835(3) 0.6267(5)
O2_2 O 0.8752(5) 0.0574(6) 0.5970(6)
O3_2 O 0.6813(6) 0.1401(3) 0.4777(6)
O4_2 O 0.7051(6) 0.3874(3) 0.4875(6)
O6_2 O 0.7321(4) 0.4380(3) 0.6447(5)
C1_2 C 0.6950(6) 0.2584(4) 0.8237(9)
H1_2 H 0.6907 0.2572 0.9006
C2_2 C 0.6987(5) 0.2619(4) 0.5925(7)
H2_2 H 0.6983 0.2633 0.5153
C3_2 C 0.7019(5) 0.3215(4) 0.6522(7)
C4_2 C 0.6961(5) 0.2011(4) 0.6462(8)
C5_2 C 0.6956(5) 0.1981(4) 0.7620(8)
H3_2 H 0.6956 0.1569 0.7981
C6_2 C 0.9394(5) 0.0616(4) 0.3145(7)
H4_2 H 0.8986 0.0622 0.2759
C7_2 C 0.9396(5) 0.0575(4) 0.4288(7)
C8_2 C 0.7136(5) 0.3862(4) 0.5903(8)
C9_2 C 0.6985(5) 0.1360(4) 0.5774(7)
C10_2 C 0.8752(6) 0.0537(4) 0.4958(7)
C11_2 C 0.7009(5) 0.3203(4) 0.7681(8)
H5_2 H 0.7041 0.3600 0.8083
C12_4 C 1.0000 0.0575(5) 0.4859(10)
H6_4 H 1.0000 0.0575 0.5632
C13_4 C 1.0000 0.0648(7) 0.2574(12)
H7_4 H 1.0000 0.0692 0.1805
O10_2 O 0.6197(14) 0.2291(12) 0.192(3)
Zn5_2 Zn 0.75821(4) 0.50797(3) 0.53076(13)
O20_2 O 0.7949(6) 0.1126(3) 0.9875(6)
K15_2 K 0.8580(2) 0.40066(18) 0.7728(3)
C14_2 C 0.6247(6) 0.9626(4) 0.4624(8)
C15_2 C 0.5620(5) 0.9526(4) 0.3916(7)
C16_2 C 0.5000 0.9543(5) 0.4511(9)
H8_2 H 0.5000 0.9565 0.5283
C17_2 C 0.5605(5) 0.9475(4) 0.2767(9)
H9_2 H 0.6011 0.9464 0.2377
C18_2 C 0.5000 0.9440(6) 0.2184(12)
H10_2 H 0.5000 0.9394 0.1415
C22_2 C 0.3753(6) 0.9626(4) 0.4624(8)
C23_2 C 0.4380(5) 0.9526(4) 0.3916(7)
C24_2 C 0.4395(5) 0.9475(4) 0.2767(9)
H12_2 H 0.3989 0.9464 0.2377
H8_3 H -0.0000 0.5435 0.0283
O14_2 O 0.1250(5) 0.5467(6) 0.0611(7)
C16_3 C -0.0000 0.5457(5) 0.9511(9)
C18_3 C -0.0000 0.5560(6) 0.7184(12)
H10_3 H -0.0000 0.5606 0.6415
O9_2 O -0.0000 0.3769(10) 0.829(3)
O13_2 O 0.1770(4) 0.5172(3) 0.9096(6)
C22_3 C 0.1247(6) 0.5374(4) 0.9624(8)
C23_3 C 0.0620(5) 0.5474(4) 0.8916(7)
C24_3 C 0.0605(5) 0.5525(4) 0.7767(9)
H12_3 H 0.1011 0.5536 0.7377
O1_3 O 0.7859(3) 0.4165(3) 0.1267(5)
O2_3 O 0.6248(5) 0.4426(6) 0.0970(6)
C1_3 C 0.8050(6) 0.2416(4) 0.3237(9)
H1_3 H 0.8093 0.2428 0.4006
C2_3 C 0.8013(5) 0.2381(4) 0.0925(7)
H2_3 H 0.8017 0.2367 0.0153
C3_3 C 0.7981(5) 0.1785(4) 0.1522(7)
C4_3 C 0.8039(5) 0.2989(4) 0.1462(8)
C5_3 C 0.8044(5) 0.3019(4) 0.2620(8)
H3_3 H 0.8044 0.3431 0.2981
C8_3 C 0.7864(5) 0.1138(4) 0.0903(8)
C9_3 C 0.8015(5) 0.3640(4) 0.0774(7)
C11_3 C 0.7991(5) 0.1797(4) 0.2681(8)
H5_3 H 0.7959 0.1400 0.3083
H6_5 H 0.5000 0.4425 0.0632
O8_2 O 0.8750(5) 0.5467(6) 0.0611(7)
H8_4 H 1.0000 0.5435 0.0283
O11_3 O 0.3752(5) 0.4426(6) 0.0970(6)
O15_3 O 0.2141(3) 0.4165(3) 0.1267(5)
C25_3 C 0.1950(6) 0.2416(4) 0.3237(9)
H13_3 H 0.1907 0.2428 0.4006
C26_3 C 0.1987(5) 0.2381(4) 0.0925(7)
H14_3 H 0.1983 0.2367 0.0153
C27_3 C 0.2019(5) 0.1785(4) 0.1522(7)
C28_3 C 0.1961(5) 0.2989(4) 0.1462(8)
C29_3 C 0.1956(5) 0.3019(4) 0.2620(8)
H15_3 H 0.1956 0.3431 0.2981
C30_3 C 0.2136(5) 0.1138(4) 0.0903(8)
C31_3 C 0.1985(5) 0.3640(4) 0.0774(7)
C32_3 C 0.2009(5) 0.1797(4) 0.2681(8)
H16_3 H 0.2041 0.1400 0.3083
O22_2 O 0.3222(3) 0.5376(3) 0.4391(5)
O23_2 O 0.6778(3) 0.5376(3) 0.4391(5)
O28_2 O 0.1770(4) 0.4828(3) 0.4096(6)
O30_2 O 0.8230(4) 0.4828(3) 0.4096(6)
O3_3 O 0.8187(6) 0.3599(3) 0.9777(6)
O5_2 O 0.6778(3) 0.4624(3) 0.9391(5)
C6_3 C 0.5606(5) 0.4384(4) 0.8145(7)
H4_3 H 0.6014 0.4378 0.7759
C7_3 C 0.5604(5) 0.4425(4) 0.9288(7)
C10_3 C 0.6248(6) 0.4463(4) 0.9958(7)
C12_5 C 0.5000 0.4425(5) 0.9859(10)
C13_5 C 0.5000 0.4352(7) 0.7574(12)
H7_5 H 0.5000 0.4308 0.6805
O7_2 O 0.8230(4) 0.5172(3) 0.9096(6)
C14_3 C 0.8753(6) 0.5374(4) 0.9624(8)
C15_3 C 0.9380(5) 0.5474(4) 0.8916(7)
C16_4 C 1.0000 0.5457(5) 0.9511(9)
C17_3 C 0.9395(5) 0.5525(4) 0.7767(9)
H9_3 H 0.8989 0.5536 0.7377
C18_4 C 1.0000 0.5560(6) 0.7184(12)
H10_4 H 1.0000 0.5606 0.6415
O9_3 O 1.0000 0.3769(10) 0.829(3)
O10_3 O 0.8803(14) 0.2709(12) 0.692(3)
O12_2 O 0.3222(3) 0.4624(3) 0.9391(5)
C19_3 C 0.4394(5) 0.4384(4) 0.8145(7)
H11_3 H 0.3986 0.4378 0.7759
C20_3 C 0.4396(5) 0.4425(4) 0.9288(7)
C21_3 C 0.3752(6) 0.4463(4) 0.9958(7)
O16_3 O 0.1813(6) 0.3599(3) 0.9777(6)
O19_3 O 0.1197(14) 0.2709(12) 0.692(3)
O31_2 O 0.1250(5) 0.4533(6) 0.5611(7)
O33_2 O 0.8750(5) 0.4533(6) 0.5611(7)
O34_2 O 0.0000 0.6231(10) 0.329(3)
O1_4 O 0.2141(3) 0.5835(3) 0.6267(5)
O2_4 O 0.3752(5) 0.5574(6) 0.5970(6)
O3_4 O 0.1813(6) 0.6401(3) 0.4777(6)
C1_4 C 0.1950(6) 0.7584(4) 0.8237(9)
H1_4 H 0.1907 0.7572 0.9006
C2_4 C 0.1987(5) 0.7619(4) 0.5925(7)
H2_4 H 0.1983 0.7633 0.5153
C3_4 C 0.2019(5) 0.8215(4) 0.6522(7)
C4_4 C 0.1961(5) 0.7011(4) 0.6462(8)
C5_4 C 0.1956(5) 0.6981(4) 0.7620(8)
H3_4 H 0.1956 0.6569 0.7981
C6_4 C 0.4394(5) 0.5616(4) 0.3145(7)
H4_4 H 0.3986 0.5622 0.2759
C7_4 C 0.4396(5) 0.5575(4) 0.4288(7)
C8_4 C 0.2136(5) 0.8862(4) 0.5903(8)
C9_4 C 0.1985(5) 0.6360(4) 0.5774(7)
C10_4 C 0.3752(6) 0.5537(4) 0.4958(7)
C11_4 C 0.2009(5) 0.8203(4) 0.7681(8)
H5_4 H 0.2041 0.8600 0.8083
C12_6 C 0.5000 0.5575(5) 0.4859(10)
H6_6 H 0.5000 0.5575 0.5632
C13_6 C 0.5000 0.5648(7) 0.2574(12)
H7_6 H 0.5000 0.5692 0.1805
C14_4 C 0.1247(6) 0.4626(4) 0.4624(8)
C15_4 C 0.0620(5) 0.4526(4) 0.3916(7)
C16_5 C 0.0000 0.4543(5) 0.4511(9)
H8_5 H 0.0000 0.4565 0.5283
C17_4 C 0.0605(5) 0.4475(4) 0.2767(9)
H9_4 H 0.1011 0.4464 0.2377
C18_5 C 0.0000 0.4440(6) 0.2184(12)
H10_5 H -0.0000 0.4394 0.1415
O10_4 O 0.1197(14) 0.7291(12) 0.192(3)
O11_4 O 0.6248(5) 0.5574(6) 0.5970(6)
C19_4 C 0.5606(5) 0.5616(4) 0.3145(7)
H11_4 H 0.6014 0.5622 0.2759
C20_4 C 0.5604(5) 0.5575(4) 0.4288(7)
C21_4 C 0.6248(6) 0.5537(4) 0.4958(7)
O15_4 O 0.7859(3) 0.5835(3) 0.6267(5)
O16_4 O 0.8187(6) 0.6401(3) 0.4777(6)
C25_4 C 0.8050(6) 0.7584(4) 0.8237(9)
H13_4 H 0.8093 0.7572 0.9006
C26_4 C 0.8013(5) 0.7619(4) 0.5925(7)
H14_4 H 0.8017 0.7633 0.5153
C27_4 C 0.7981(5) 0.8215(4) 0.6522(7)
C28_4 C 0.8039(5) 0.7011(4) 0.6462(8)
C29_4 C 0.8044(5) 0.6981(4) 0.7620(8)
H15_4 H 0.8044 0.6569 0.7981
C30_4 C 0.7864(5) 0.8862(4) 0.5903(8)
C31_4 C 0.8015(5) 0.6360(4) 0.5774(7)
C32_4 C 0.7991(5) 0.8203(4) 0.7681(8)
H16_4 H 0.7959 0.8600 0.8083
O19_4 O 0.8803(14) 0.7291(12) 0.192(3)
O34_3 O 1.0000 0.6231(10) 0.329(3)
C16_6 C 1.0000 0.4543(5) 0.4511(9)
H8_6 H 1.0000 0.4565 0.5283
C18_6 C 1.0000 0.4440(6) 0.2184(12)
H10_6 H 1.0000 0.4394 0.1415
C22_4 C 0.8753(6) 0.4626(4) 0.4624(8)
C23_4 C 0.9380(5) 0.4526(4) 0.3916(7)
C24_4 C 0.9395(5) 0.4475(4) 0.2767(9)
H12_4 H 0.8989 0.4464 0.2377
loop_
_geom_bond_atom_site_label_1
_geom_bond_atom_site_label_2
_geom_bond_site_symmetry_1
_geom_bond_site_symmetry_2
K12 O14 1_555 1_555
K14 O8 1_555 1_555
O26 K14 1_555 1_555
C14 O7 1_555 1_555
C15 C14 1_555 1_555
C16 C15 1_555 1_555
C17 C15 1_555 1_555
H9 C17 1_555 1_555
C18 C17 1_555 1_555
H10 C18 1_555 1_555
O13 C22 1_555 1_555
C22 C23 1_555 1_555
C23 C16 1_555 1_555
C24 C18 1_555 1_555
H12 C24 1_555 1_555
K6 O13 1_555 1_555
O7 K7 1_555 1_555
C23 C24 1_555 1_555
Zn1 O1 1_555 1_555
K1 O1 1_555 1_555
O1 C9 1_555 1_555
O2 K1 1_555 1_555
O6 C8 1_555 1_555
C1 H1 1_555 1_555
C2 H2 1_555 1_555
C3 C2 1_555 1_555
C4 C2 1_555 1_555
C5 C1 1_555 1_555
H3 C5 1_555 1_555
C8 C3 1_555 1_555
C9 C4 1_555 1_555
C11 C1 1_555 1_555
H5 C11 1_555 1_555
Zn5 O6 1_555 1_555
K10 O6 1_555 1_555
O20 K1 1_555 1_555
O30 K1 1_555 1_555
K15 O6 1_555 1_555
C3 C11 1_555 1_555
C4 C5 1_555 1_555
C6 H4 1_555 1_555
C7 C6 1_555 1_555
C12 C7 1_555 1_555
C13 C6 1_555 1_555
H7 C13 1_555 1_555
O9 K2 1_555 1_555
O10 K2 1_555 1_555
K2 O3 1_555 1_555
K9 O4 1_555 1_555
O25 K2 1_555 1_555
O33 K2 1_555 1_555
K13 O9 1_555 1_555
O5 C10 1_555 1_555
C7 C10 1_555 1_555
K3 O11 1_555 1_555
O15 Zn3 1_555 1_555
O18 C30 1_555 1_555
C25 H13 1_555 1_555
C26 H14 1_555 1_555
C27 C26 1_555 1_555
C28 C26 1_555 1_555
C29 C25 1_555 1_555
H15 C29 1_555 1_555
C30 C27 1_555 1_555
C31 O15 1_555 1_555
C32 C25 1_555 1_555
H16 C32 1_555 1_555
Zn4 O18 1_555 1_555
K8 O18 1_555 1_555
O21 K3 1_555 1_555
O28 K3 1_555 1_555
K16 O18 1_555 1_555
K3 O15 1_555 1_555
C27 C32 1_555 1_555
C28 C29 1_555 1_555
C28 C31 1_555 1_555
H7_2 C13_2 1_555 1_555
O12 C21 1_555 1_555
C19 C13_2 1_555 1_555
H11 C19 1_555 1_555
C20 C12_2 1_555 1_555
C21 C20 1_555 1_555
O19 K13 1_555 1_555
K13 O16 1_555 1_555
K11 O17 1_555 1_555
O27 K13 1_555 1_555
O31 K13 1_555 1_555
C19 C20 1_555 1_555
H6_3 C12_3 1_555 1_555
H7_3 C13_3 1_555 1_555
O11_2 C21_2 1_555 1_555
O23 C21_2 1_555 1_555
C19_2 C13_3 1_555 1_555
H11_2 C19_2 1_555 1_555
C20_2 C12_3 1_555 1_555
C21_2 C20_2 1_555 1_555
Zn2 O23 1_555 1_555
K7 O11_2 1_555 1_555
O15_2 Zn2 1_555 1_555
O16_2 C31_2 1_555 1_555
O17_2 C30_2 1_555 1_555
O18_2 C30_2 1_555 1_555
C25_2 H13_2 1_555 1_555
C26_2 H14_2 1_555 1_555
C27_2 C26_2 1_555 1_555
C28_2 C26_2 1_555 1_555
C29_2 C25_2 1_555 1_555
H15_2 C29_2 1_555 1_555
C30_2 C27_2 1_555 1_555
C31_2 O15_2 1_555 1_555
C32_2 C25_2 1_555 1_555
H16_2 C32_2 1_555 1_555
O19_2 K14 1_555 1_555
K14 O16_2 1_555 1_555
Zn4_2 O18_2 1_555 1_555
K9 O18_2 1_555 1_555
K10 O17_2 1_555 1_555
O21_2 K7 1_555 1_555
O34 K14 1_555 1_555
K16_2 O18_2 1_555 1_555
C19_2 C20_2 1_555 1_555
K7 O15_2 1_555 1_555
C27_2 C32_2 1_555 1_555
C28_2 C29_2 1_555 1_555
C28_2 C31_2 1_555 1_555
Zn1_2 O1_2 1_555 1_555
K6 O1_2 1_555 1_555
O1_2 C9_2 1_555 1_555
O2_2 K6 1_555 1_555
O3_2 C9_2 1_555 1_555
O4_2 C8_2 1_555 1_555
O22 Zn1_2 1_555 1_555
O6_2 C8_2 1_555 1_555
C1_2 H1_2 1_555 1_555
C2_2 H2_2 1_555 1_555
C3_2 C2_2 1_555 1_555
C4_2 C2_2 1_555 1_555
C5_2 C1_2 1_555 1_555
H3_2 C5_2 1_555 1_555
C6_2 H4_2 1_555 1_555
C7_2 C6_2 1_555 1_555
C8_2 C3_2 1_555 1_555
C9_2 C4_2 1_555 1_555
C10_2 O2_2 1_555 1_555
C11_2 C1_2 1_555 1_555
H5_2 C11_2 1_555 1_555
C12_4 C7_2 1_555 1_555
H6_4 C12_4 1_555 1_555
C13_4 C6_2 1_555 1_555
H7_4 C13_4 1_555 1_555
O34 K12 1_555 1_555
O10_2 K12 1_555 1_555
K12 O3_2 1_555 1_555
Zn5_2 O6_2 1_555 1_555
K8 O4_2 1_555 1_555
K11 O6_2 1_555 1_555
O20_2 K6 1_555 1_555
O24 K12 1_555 1_555
K15_2 O6_2 1_555 1_555
O22 C10_2 1_555 1_555
C3_2 C11_2 1_555 1_555
C4_2 C5_2 1_555 1_555
C7_2 C10_2 1_555 1_555
C14_2 O28 1_555 1_555
C15_2 C14_2 1_555 1_555
C16_2 C15_2 1_555 1_555
H8_2 C16_2 1_555 1_555
C17_2 C15_2 1_555 1_555
H9_2 C17_2 1_555 1_555
C18_2 C17_2 1_555 1_555
H10_2 C18_2 1_555 1_555
O30 C22_2 1_555 1_555
O33 C22_2 1_555 1_555
C22_2 C23_2 1_555 1_555
C23_2 C16_2 1_555 1_555
C24_2 C18_2 1_555 1_555
H12_2 C24_2 1_555 1_555
O31 C14_2 1_555 1_555
C23_2 C24_2 1_555 1_555
K15 O14_2 1_555 1_555
O14_2 Zn5 1_555 1_555
H10_3 C18_3 1_555 1_555
O13_2 C22_3 1_555 1_555
C22_3 C23_3 1_555 1_555
C23_3 C16_3 1_555 1_555
C24_3 C18_3 1_555 1_555
H12_3 C24_3 1_555 1_555
K9 O13_2 1_555 1_555
K16_2 O9_2 1_555 1_555
O13_2 K16_2 1_555 1_555
C23_3 C24_3 1_555 1_555
Zn4 O1_3 1_555 1_555
K8 O1_3 1_555 1_555
O1_3 C9_3 1_555 1_555
O2_3 K8 1_555 1_555
O24 C8_3 1_555 1_555
C1_3 H1_3 1_555 1_555
C2_3 H2_3 1_555 1_555
C3_3 C2_3 1_555 1_555
C4_3 C2_3 1_555 1_555
C5_3 C1_3 1_555 1_555
H3_3 C5_3 1_555 1_555
C8_3 C3_3 1_555 1_555
C9_3 C4_3 1_555 1_555
C11_3 C1_3 1_555 1_555
H5_3 C11_3 1_555 1_555
O8_2 Zn4 1_555 1_555
K10 O11_3 1_555 1_555
O15_3 Zn5 1_555 1_555
O26 C30_3 1_555 1_555
C25_3 H13_3 1_555 1_555
C26_3 H14_3 1_555 1_555
C27_3 C26_3 1_555 1_555
C28_3 C26_3 1_555 1_555
C29_3 C25_3 1_555 1_555
H15_3 C29_3 1_555 1_555
C30_3 C27_3 1_555 1_555
C31_3 O15_3 1_555 1_555
C32_3 C25_3 1_555 1_555
H16_3 C32_3 1_555 1_555
O22_2 K10 1_555 1_555
O23_2 K8 1_555 1_555
O28_2 K10 1_555 1_555
O30_2 K8 1_555 1_555
K16 O8_2 1_555 1_555
C3_3 C11_3 1_555 1_555
C4_3 C5_3 1_555 1_555
K10 O15_3 1_555 1_555
C27_3 C32_3 1_555 1_555
C28_3 C29_3 1_555 1_555
C28_3 C31_3 1_555 1_555
O30_2 K16 1_555 1_555
C6_3 H4_3 1_555 1_555
C7_3 C6_3 1_555 1_555
C12_5 C7_3 1_555 1_555
C13_5 C6_3 1_555 1_555
H7_5 C13_5 1_555 1_555
C14_3 O7_2 1_555 1_555
C15_3 C14_3 1_555 1_555
C16_4 C15_3 1_555 1_555
C17_3 C15_3 1_555 1_555
H9_3 C17_3 1_555 1_555
C18_4 C17_3 1_555 1_555
H10_4 C18_4 1_555 1_555
O9_3 K15_2 1_555 1_555
O10_3 K15_2 1_555 1_555
K15_2 O3_3 1_555 1_555
O12_2 C21_3 1_555 1_555
C19_3 C13_5 1_555 1_555
H11_3 C19_3 1_555 1_555
C20_3 C12_5 1_555 1_555
C21_3 C20_3 1_555 1_555
O19_3 K16_2 1_555 1_555
K16_2 O16_3 1_555 1_555
K9 O12_2 1_555 1_555
K11 O5_2 1_555 1_555
O31_2 K16_2 1_555 1_555
O33_2 K15_2 1_555 1_555
O5_2 C10_3 1_555 1_555
C7_3 C10_3 1_555 1_555
O7_2 K15_2 1_555 1_555
O7_2 K11 1_555 1_555
C19_3 C20_3 1_555 1_555
Zn4_2 O1_4 1_555 1_555
K9 O1_4 1_555 1_555
O1_4 C9_4 1_555 1_555
O2_4 K9 1_555 1_555
O3_4 C9_4 1_555 1_555
O20 C8_4 1_555 1_555
O22_2 Zn4_2 1_555 1_555
O25 C8_4 1_555 1_555
C1_4 H1_4 1_555 1_555
C2_4 H2_4 1_555 1_555
C3_4 C2_4 1_555 1_555
C4_4 C2_4 1_555 1_555
C5_4 C1_4 1_555 1_555
H3_4 C5_4 1_555 1_555
C6_4 H4_4 1_555 1_555
C7_4 C6_4 1_555 1_555
C8_4 C3_4 1_555 1_555
C9_4 C4_4 1_555 1_555
C10_4 O2_4 1_555 1_555
C11_4 C1_4 1_555 1_555
H5_4 C11_4 1_555 1_555
C12_6 C7_4 1_555 1_555
H6_6 C12_6 1_555 1_555
C13_6 C6_4 1_555 1_555
H7_6 C13_6 1_555 1_555
O28_2 Zn4_2 1_555 1_555
O31_2 Zn4_2 1_555 1_555
C14_4 O28_2 1_555 1_555
C15_4 C14_4 1_555 1_555
C16_5 C15_4 1_555 1_555
H8_5 C16_5 1_555 1_555
C17_4 C15_4 1_555 1_555
H9_4 C17_4 1_555 1_555
C18_5 C17_4 1_555 1_555
H10_5 C18_5 1_555 1_555
O34_2 K15 1_555 1_555
O10_4 K15 1_555 1_555
K15 O3_4 1_555 1_555
O11_4 C21_4 1_555 1_555
O23_2 C21_4 1_555 1_555
C19_4 C13_6 1_555 1_555
H11_4 C19_4 1_555 1_555
C20_4 C12_6 1_555 1_555
C21_4 C20_4 1_555 1_555
Zn5_2 O23_2 1_555 1_555
K11 O11_4 1_555 1_555
O15_4 Zn5_2 1_555 1_555
O16_4 C31_4 1_555 1_555
O21 C30_4 1_555 1_555
O27 C30_4 1_555 1_555
C25_4 H13_4 1_555 1_555
C26_4 H14_4 1_555 1_555
C27_4 C26_4 1_555 1_555
C28_4 C26_4 1_555 1_555
C29_4 C25_4 1_555 1_555
H15_4 C29_4 1_555 1_555
C30_4 C27_4 1_555 1_555
C31_4 O15_4 1_555 1_555
C32_4 C25_4 1_555 1_555
H16_4 C32_4 1_555 1_555
O19_4 K16 1_555 1_555
K16 O16_4 1_555 1_555
O30_2 Zn5_2 1_555 1_555
O33_2 Zn5_2 1_555 1_555
O34_3 K16 1_555 1_555
O22_2 C10_4 1_555 1_555
C3_4 C11_4 1_555 1_555
C4_4 C5_4 1_555 1_555
C7_4 C10_4 1_555 1_555
O28_2 K15 1_555 1_555
O31_2 C14_4 1_555 1_555
C19_4 C20_4 1_555 1_555
K11 O15_4 1_555 1_555
C27_4 C32_4 1_555 1_555
C28_4 C29_4 1_555 1_555
C28_4 C31_4 1_555 1_555
H8_6 C16_6 1_555 1_555
H10_6 C18_6 1_555 1_555
O30_2 C22_4 1_555 1_555
O33_2 C22_4 1_555 1_555
C22_4 C23_4 1_555 1_555
C23_4 C16_6 1_555 1_555
C24_4 C18_6 1_555 1_555
H12_4 C24_4 1_555 1_555
C23_4 C24_4 1_555 1_555

#END
