
###############################################################################
#
# This file contains modified crystal structure data generated from the
# MOF subset of the Cambridge Structural Database (CSD) v543 
# hosted by the Cambridge Crystallographic Data Centre (CCDC).
#
# This work is licensed under the Creative Commons
# Attribution-NonCommercial-ShareAlike 4.0 International License.
# To view a copy of this license, visit
# http://creativecommons.org/licenses/by-nc-sa/4.0/
# or send a letter to
# Creative Commons, PO Box 1866, Mountain View, CA 94042, USA.
#
# CIF created using the CSD Python API on 29 September 2022
# The structure has been converted into the P1 space group
# The structure has a 3D framework
# The original CSD entry COWBEX is in the monoclinic crystal system
# The framework has been calculated to contain at least 10.0% void space
# The void calculation uses a probe of radius 1.32A, grid spacing 0.4
#
###############################################################################

data_COWBEX
_chemical_formula_moiety         '(C116 H64 Cd8 F24 N8 O36)n'
_symmetry_cell_setting           triclinic
_symmetry_space_group_name_H-M   'P 1'
_symmetry_Int_Tables_number      1
_space_group_name_Hall           'P 1'
loop_
_symmetry_equiv_pos_site_id
_symmetry_equiv_pos_as_xyz
1 x,y,z
_cell_length_a                   16.0121(8)
_cell_length_b                   7.5502(4)
_cell_length_c                   27.8153(15)
_cell_angle_alpha                90
_cell_angle_beta                 99.7330(10)
_cell_angle_gamma                90
_cell_volume                     3314.32
loop_
_atom_site_label
_atom_site_type_symbol
_atom_site_fract_x
_atom_site_fract_y
_atom_site_fract_z
Cd1 Cd 0.215607(15) 0.52604(3) 0.080136(8)
Cd2 Cd 0.150996(15) 0.04265(3) 0.046512(9)
O1 O 0.17731(18) 0.2637(3) 0.10964(9)
O2 O 0.30694(19) 0.3182(4) 0.14816(10)
O7 O 0.08121(15) 0.2400(3) 0.49984(8)
O8 O 0.17962(18) 0.0306(4) 0.50002(9)
N1 N 0.34271(18) 0.6081(4) 0.05865(11)
C1 C 0.2387(3) 0.2412(5) 0.14517(13)
C2 C 0.2227(2) 0.1310(5) 0.18848(12)
C6 C 0.2002(3) 0.1394(5) 0.27210(14)
H2 H 0.1952 0.2052 0.2997
C7 C 0.2146(3) 0.2256(5) 0.23041(14)
H3 H 0.2188 0.3484 0.2304
C13 C 0.0524(3) 0.0515(6) 0.32544(14)
H4 H 0.0384 0.0363 0.2919
C15 C 0.0193(2) 0.1744(5) 0.39966(12)
C16 C 0.0921(2) 0.0966(5) 0.42539(12)
C19 C 0.1189(2) 0.1235(5) 0.47959(12)
C20 C 0.3458(3) 0.6583(7) 0.01294(15)
C22 C 0.4941(2) 0.7277(5) 0.03049(14)
C23 C 0.4905(3) 0.6769(8) 0.07762(16)
H9 H 0.5389 0.6816 0.1014
C24 C 0.4145(3) 0.6187(8) 0.08959(16)
H10 H 0.4142 0.5848 0.1217
C25 C 0.5732(2) 0.7917(5) 0.01466(14)
C28 C 0.7184(2) 0.8839(6) 0.03067(14)
H13 H 0.7667 0.9074 0.0534
C29 C 0.6464(2) 0.8287(6) 0.04776(14)
H14 H 0.6470 0.8164 0.0811
Cd8 Cd 0.150996(15) 0.45735(3) 0.546512(9)
O10 O 0.21943(19) 0.6697(3) 0.15094(9)
O12 O 0.09657(16) 0.6990(4) 0.05736(10)
O15 O 0.17962(18) 0.4694(4) 0.00002(9)
N3 N 0.27738(18) 0.0945(4) 0.01664(11)
N2 N 0.72262(18) 0.9055(4) 0.98336(11)
H7 H 0.2963 0.6531 0.9900
C21 C 0.4187(3) 0.7174(6) 0.99804(15)
H8 H 0.4172 0.7507 0.9657
C26 C 0.5774(2) 0.8170(6) 0.96571(14)
H11 H 0.5299 0.7956 0.9422
C27 C 0.6518(2) 0.8738(6) 0.95162(14)
H12 H 0.6525 0.8907 0.9186
Cd7 Cd 0.849004(15) 0.95735(3) 0.953488(9)
O14 O 0.08121(15) 0.2600(3) 0.99984(8)
O15_2 O 0.17962(18) 0.4694(4) 1.00002(9)
O3 O 0.24574(15) 0.9072(3) 0.10858(8)
F1 F 0.3236(2) 0.7628(5) 0.32262(10)
F2 F 0.30796(18) 0.9884(5) 0.36690(11)
F3 F 0.2751(2) 0.7291(4) 0.38927(9)
F4 F 0.1155(3) 0.6193(4) 0.35374(10)
F5 F 0.0692(2) 0.6912(4) 0.27943(11)
F6 F 0.1886(3) 0.5577(3) 0.29804(11)
C3 C 0.2166(2) 0.9473(4) 0.18939(12)
C4 C 0.2030(2) 0.8620(5) 0.23186(12)
H1 H 0.2005 0.7390 0.2324
C5 C 0.1932(2) 0.9561(5) 0.27338(13)
C8 C 0.2283(2) 0.8338(5) 0.14643(12)
C9 C 0.1822(2) 0.8640(5) 0.32154(13)
C10 C 0.1385(4) 0.6823(6) 0.31327(16)
C11 C 0.2728(3) 0.8370(7) 0.35067(15)
C12 C 0.1263(3) 0.9753(5) 0.35052(13)
C17 C 0.1446(2) 0.9972(5) 0.40051(12)
H6 H 0.1930 0.9447 0.4179
Cd5 Cd 0.215607(15) 0.97396(3) 0.580136(8)
O13 O 0.03763(17) 0.9465(3) 0.07761(10)
O5 O 0.90343(16) 0.1990(4) 0.44264(10)
O6 O 0.96237(17) 0.4465(3) 0.42239(10)
C14 C 0.9999(3) 0.1490(6) 0.34964(14)
H5 H 0.9508 0.1986 0.3322
C18 C 0.9586(2) 0.2796(5) 0.42417(12)
Cd4 Cd 0.784393(15) 0.02604(3) 0.419864(8)
Cd6 Cd 0.849004(15) 0.54265(3) 0.453488(9)
C14_2 C 0.0001(3) 0.6490(6) 0.15036(14)
H5_2 H 0.0492 0.6986 0.1678
C18_2 C 0.0414(2) 0.7796(5) 0.07583(12)
N1_2 N 0.65729(18) 0.1081(4) 0.44135(11)
N2_2 N 0.27738(18) 0.4055(4) 0.51664(11)
C20_2 C 0.6542(3) 0.1583(7) 0.48706(15)
H7_2 H 0.7037 0.1531 0.5100
C21_2 C 0.5813(3) 0.2174(6) 0.50196(15)
H8_2 H 0.5828 0.2507 0.5343
C22_2 C 0.5059(2) 0.2277(5) 0.46951(14)
C23_2 C 0.5095(3) 0.1769(8) 0.42238(16)
H9_2 H 0.4611 0.1816 0.3986
C24_2 C 0.5855(3) 0.1187(8) 0.41041(16)
H10_2 H 0.5858 0.0848 0.3783
C25_2 C 0.4268(2) 0.2917(5) 0.48534(14)
C26_2 C 0.4226(2) 0.3170(6) 0.53429(14)
H11_2 H 0.4701 0.2956 0.5578
C27_2 C 0.3482(2) 0.3738(6) 0.54838(14)
H12_2 H 0.3475 0.3907 0.5814
C28_2 C 0.2816(2) 0.3839(6) 0.46933(14)
H13_2 H 0.2333 0.4074 0.4466
C29_2 C 0.3536(2) 0.3287(6) 0.45224(14)
H14_2 H 0.3530 0.3164 0.4189
O10_2 O 0.78057(19) 0.1697(3) 0.34906(9)
O1_2 O 0.82269(18) 0.7637(3) 0.39036(9)
O2_2 O 0.69306(19) 0.8182(4) 0.35184(10)
O3_2 O 0.75426(15) 0.4072(3) 0.39142(8)
O7_2 O 0.91879(15) 0.7400(3) 0.00016(8)
O8_2 O 0.82038(18) 0.5306(4) -0.00002(9)
O9 O 0.8883(2) 0.3863(5) 0.52887(12)
F1_2 F 0.6764(2) 0.2628(5) 0.17738(10)
F2_2 F 0.69204(18) 0.4884(5) 0.13310(11)
F3_2 F 0.7249(2) 0.2291(4) 0.11073(9)
F4_2 F 0.8845(3) 0.1193(4) 0.14626(10)
F5_2 F 0.9308(2) 0.1912(4) 0.22057(11)
F6_2 F 0.8114(3) 0.0577(3) 0.20196(11)
C1_2 C 0.7613(3) 0.7412(5) 0.35483(13)
C2_2 C 0.7773(2) 0.6310(5) 0.31152(12)
C3_2 C 0.7834(2) 0.4473(4) 0.31061(12)
C4_2 C 0.7970(2) 0.3620(5) 0.26814(12)
H1_2 H 0.7995 0.2390 0.2676
C5_2 C 0.8068(2) 0.4561(5) 0.22662(13)
C6_2 C 0.7998(3) 0.6394(5) 0.22790(14)
H2_2 H 0.8048 0.7052 0.2003
C7_2 C 0.7854(3) 0.7256(5) 0.26959(14)
H3_2 H 0.7812 0.8484 0.2696
C8_2 C 0.7717(2) 0.3338(5) 0.35357(12)
C9_2 C 0.8178(2) 0.3640(5) 0.17846(13)
C10_2 C 0.8615(4) 0.1823(6) 0.18673(16)
C11_2 C 0.7272(3) 0.3370(7) 0.14933(15)
C12_2 C 0.8737(3) 0.4753(5) 0.14948(13)
C13_2 C 0.9476(3) 0.5515(6) 0.17456(14)
H4_2 H 0.9616 0.5363 0.2081
C15_2 C 0.9807(2) 0.6744(5) 0.10034(12)
C16_2 C 0.9079(2) 0.5966(5) 0.07461(12)
C17_2 C 0.8554(2) 0.4972(5) 0.09949(12)
H6_2 H 0.8070 0.4447 0.0821
C19_2 C 0.8811(2) 0.6235(5) 0.02041(12)
H15 H 0.924(3) 0.436(7) 0.5480(19)
H16 H 0.898(3) 0.302(7) 0.5196(18)
O14_2 O 0.91879(15) 0.7600(3) 0.50016(8)
O15_3 O 0.82038(18) 0.9694(4) 0.49998(9)
N3_2 N 0.72262(18) 0.5945(4) 0.48336(11)
O8_3 O 0.82038(18) 0.5306(4) 0.99998(9)
Cd5_2 Cd 0.784393(15) 0.47396(3) 0.919864(8)
O5_2 O 0.09657(16) 0.8010(4) 0.55736(10)
O6_2 O 0.03763(17) 0.5535(3) 0.57761(10)
C14_3 C 0.0001(3) 0.8510(6) 0.65036(14)
H5_3 H 0.0492 0.8014 0.6678
C18_3 C 0.0414(2) 0.7204(5) 0.57583(12)
O3_3 O 0.75426(15) 0.0928(3) 0.89142(8)
O4 O 0.78057(19) 0.3303(3) 0.84906(9)
F1_3 F 0.6764(2) 0.2372(5) 0.67738(10)
F2_3 F 0.69204(18) 0.0116(5) 0.63310(11)
F3_3 F 0.7249(2) 0.2709(4) 0.61073(9)
F4_3 F 0.8845(3) 0.3807(4) 0.64626(10)
F5_3 F 0.9308(2) 0.3088(4) 0.72057(11)
F6_3 F 0.8114(3) 0.4423(3) 0.70196(11)
C3_3 C 0.7834(2) 0.0527(4) 0.81061(12)
C4_3 C 0.7970(2) 0.1380(5) 0.76814(12)
H1_3 H 0.7995 0.2610 0.7676
C5_3 C 0.8068(2) 0.0439(5) 0.72662(13)
C8_3 C 0.7717(2) 0.1662(5) 0.85357(12)
C9_3 C 0.8178(2) 0.1360(5) 0.67846(13)
C10_3 C 0.8615(4) 0.3177(6) 0.68673(16)
C11_3 C 0.7272(3) 0.1630(7) 0.64933(15)
C12_3 C 0.8737(3) 0.0247(5) 0.64948(13)
C17_3 C 0.8554(2) 0.0028(5) 0.59949(12)
H6_3 H 0.8070 0.0553 0.5821
O11 O 0.90343(16) 0.3010(4) 0.94264(10)
O13_2 O 0.96237(17) 0.0535(3) 0.92239(10)
H7_3 H 0.7037 0.3469 0.0100
C21_3 C 0.5813(3) 0.2826(6) 0.00196(15)
H8_3 H 0.5828 0.2493 0.0343
C26_3 C 0.4226(2) 0.1830(6) 0.03429(14)
H11_3 H 0.4701 0.2044 0.0578
C27_3 C 0.3482(2) 0.1262(6) 0.04838(14)
H12_3 H 0.3475 0.1093 0.0814
O1_3 O 0.82269(18) 0.7363(3) 0.89036(9)
O2_3 O 0.69306(19) 0.6818(4) 0.85184(10)
N1_3 N 0.65729(18) 0.3919(4) 0.94135(11)
C1_3 C 0.7613(3) 0.7588(5) 0.85483(13)
C2_3 C 0.7773(2) 0.8690(5) 0.81152(12)
C6_3 C 0.7998(3) 0.8606(5) 0.72790(14)
H2_3 H 0.8048 0.7948 0.7003
C7_3 C 0.7854(3) 0.7744(5) 0.76959(14)
H3_3 H 0.7812 0.6516 0.7696
C13_3 C 0.9476(3) 0.9485(6) 0.67456(14)
H4_3 H 0.9616 0.9637 0.7081
C15_3 C 0.9807(2) 0.8256(5) 0.60034(12)
C16_3 C 0.9079(2) 0.9034(5) 0.57461(12)
C19_3 C 0.8811(2) 0.8765(5) 0.52041(12)
C20_3 C 0.6542(3) 0.3417(7) 0.98706(15)
C22_3 C 0.5059(2) 0.2723(5) 0.96951(14)
C23_3 C 0.5095(3) 0.3231(8) 0.92238(16)
H9_3 H 0.4611 0.3184 0.8986
C24_3 C 0.5855(3) 0.3813(8) 0.91041(16)
H10_3 H 0.5858 0.4152 0.8783
C25_3 C 0.4268(2) 0.2083(5) 0.98534(14)
C28_3 C 0.2816(2) 0.1161(6) 0.96933(14)
H13_3 H 0.2333 0.0926 0.9466
C29_3 C 0.3536(2) 0.1713(6) 0.95224(14)
H14_3 H 0.3530 0.1836 0.9189
O1_4 O 0.17731(18) 0.2363(3) 0.60964(9)
O2_4 O 0.30694(19) 0.1818(4) 0.64816(10)
O3_4 O 0.24574(15) 0.5928(3) 0.60858(8)
O4_2 O 0.21943(19) 0.8303(3) 0.65094(9)
O9_2 O 0.1117(2) 0.6137(5) 0.47113(12)
F1_4 F 0.3236(2) 0.7372(5) 0.82262(10)
F2_4 F 0.30796(18) 0.5116(5) 0.86690(11)
F3_4 F 0.2751(2) 0.7709(4) 0.88927(9)
F4_4 F 0.1155(3) 0.8807(4) 0.85374(10)
F5_4 F 0.0692(2) 0.8088(4) 0.77943(11)
F6_4 F 0.1886(3) 0.9423(3) 0.79804(11)
C1_4 C 0.2387(3) 0.2588(5) 0.64517(13)
C2_4 C 0.2227(2) 0.3690(5) 0.68848(12)
C3_4 C 0.2166(2) 0.5527(4) 0.68939(12)
C4_4 C 0.2030(2) 0.6380(5) 0.73186(12)
H1_4 H 0.2005 0.7610 0.7324
C5_4 C 0.1932(2) 0.5439(5) 0.77338(13)
C6_4 C 0.2002(3) 0.3606(5) 0.77210(14)
H2_4 H 0.1952 0.2948 0.7997
C7_4 C 0.2146(3) 0.2744(5) 0.73041(14)
H3_4 H 0.2188 0.1516 0.7304
C8_4 C 0.2283(2) 0.6662(5) 0.64643(12)
C9_4 C 0.1822(2) 0.6360(5) 0.82154(13)
C10_4 C 0.1385(4) 0.8177(6) 0.81327(16)
C11_4 C 0.2728(3) 0.6630(7) 0.85067(15)
C12_4 C 0.1263(3) 0.5247(5) 0.85052(13)
C13_4 C 0.0524(3) 0.4485(6) 0.82544(14)
H4_4 H 0.0384 0.4637 0.7919
C15_4 C 0.0193(2) 0.3256(5) 0.89966(12)
C16_4 C 0.0921(2) 0.4034(5) 0.92539(12)
C17_4 C 0.1446(2) 0.5028(5) 0.90051(12)
H6_4 H 0.1930 0.5553 0.9179
C19_4 C 0.1189(2) 0.3765(5) 0.97959(12)
H15_2 H 0.076(3) 0.564(7) 0.4520(19)
H16_2 H 0.102(3) 0.698(7) 0.4804(18)
N1_4 N 0.34271(18) 0.8919(4) 0.55865(11)
C20_4 C 0.3458(3) 0.8417(7) 0.51294(15)
H7_4 H 0.2963 0.8469 0.4900
C21_4 C 0.4187(3) 0.7826(6) 0.49804(15)
H8_4 H 0.4172 0.7493 0.4657
C22_4 C 0.4941(2) 0.7723(5) 0.53049(14)
C23_4 C 0.4905(3) 0.8231(8) 0.57762(16)
H9_4 H 0.5389 0.8184 0.6014
C24_4 C 0.4145(3) 0.8813(8) 0.58959(16)
H10_4 H 0.4142 0.9152 0.6217
C25_4 C 0.5732(2) 0.7083(5) 0.51466(14)
C26_4 C 0.5774(2) 0.6830(6) 0.46571(14)
H11_4 H 0.5299 0.7044 0.4422
C27_4 C 0.6518(2) 0.6262(6) 0.45162(14)
H12_4 H 0.6525 0.6093 0.4186
C28_4 C 0.7184(2) 0.6161(6) 0.53067(14)
H13_4 H 0.7667 0.5926 0.5534
C29_4 C 0.6464(2) 0.6713(6) 0.54776(14)
H14_4 H 0.6470 0.6836 0.5811
C14_4 C 0.9999(3) 0.3510(6) 0.84964(14)
H5_4 H 0.9508 0.3014 0.8322
C18_4 C 0.9586(2) 0.2204(5) 0.92417(12)
O9_3 O 0.1117(2) 0.8863(5) 0.97113(12)
H15_3 H 0.076(3) 0.936(7) 0.9520(19)
H16_3 H 0.102(3) 0.802(7) 0.9804(18)
O9_4 O 0.8883(2) 0.1137(5) 0.02887(12)
H15_4 H 0.924(3) 0.064(7) 0.0480(19)
H16_4 H 0.898(3) 0.198(7) 0.0196(18)
loop_
_geom_bond_atom_site_label_1
_geom_bond_atom_site_label_2
_geom_bond_site_symmetry_1
_geom_bond_site_symmetry_2
Cd1 O1 1_555 1_555
Cd2 O1 1_555 1_555
O1 C1 1_555 1_555
O2 Cd1 1_555 1_555
O7 C19 1_555 1_555
O8 C19 1_555 1_555
N1 Cd1 1_555 1_555
C1 O2 1_555 1_555
C2 C1 1_555 1_555
H2 C6 1_555 1_555
C7 C2 1_555 1_555
H3 C7 1_555 1_555
H4 C13 1_555 1_555
C16 C15 1_555 1_555
C19 C16 1_555 1_555
C20 N1 1_555 1_555
C23 C22 1_555 1_555
H9 C23 1_555 1_555
C24 N1 1_555 1_555
H10 C24 1_555 1_555
C25 C22 1_555 1_555
H13 C28 1_555 1_555
C29 C25 1_555 1_555
H14 C29 1_555 1_555
Cd8 O7 1_555 1_555
O10 Cd1 1_555 1_555
O12 Cd1 1_555 1_555
O15 Cd1 1_555 1_555
N3 Cd2 1_555 1_555
C6 C7 1_555 1_555
C23 C24 1_555 1_555
C28 C29 1_555 1_555
N2 C27 1_555 1_555
H8 C21 1_555 1_555
H11 C26 1_555 1_555
C27 C26 1_555 1_555
H12 C27 1_555 1_555
Cd7 N2 1_555 1_555
O10 C8 1_555 1_555
F1 C11 1_555 1_555
F2 C11 1_555 1_555
F3 C11 1_555 1_555
F4 C10 1_555 1_555
F5 C10 1_555 1_555
F6 C10 1_555 1_555
C4 C3 1_555 1_555
H1 C4 1_555 1_555
C5 C4 1_555 1_555
C8 O3 1_555 1_555
C9 C5 1_555 1_555
C10 C9 1_555 1_555
C11 C9 1_555 1_555
C12 C9 1_555 1_555
C17 C12 1_555 1_555
H6 C17 1_555 1_555
C3 C8 1_555 1_555
O5 C18 1_555 1_555
O6 C18 1_555 1_555
H5 C14 1_555 1_555
Cd4 O5 1_555 1_555
Cd6 O5 1_555 1_555
O6 Cd6 1_555 1_555
O12 C18_2 1_555 1_555
O13 C18_2 1_555 1_555
H5_2 C14_2 1_555 1_555
N1_2 Cd4 1_555 1_555
N2_2 C27_2 1_555 1_555
C20_2 N1_2 1_555 1_555
H7_2 C20_2 1_555 1_555
C21_2 C20_2 1_555 1_555
H8_2 C21_2 1_555 1_555
C22_2 C21_2 1_555 1_555
C23_2 C22_2 1_555 1_555
H9_2 C23_2 1_555 1_555
C24_2 N1_2 1_555 1_555
H10_2 C24_2 1_555 1_555
C25_2 C22_2 1_555 1_555
C26_2 C25_2 1_555 1_555
H11_2 C26_2 1_555 1_555
C27_2 C26_2 1_555 1_555
H12_2 C27_2 1_555 1_555
C28_2 N2_2 1_555 1_555
H13_2 C28_2 1_555 1_555
C29_2 C25_2 1_555 1_555
H14_2 C29_2 1_555 1_555
Cd8 N2_2 1_555 1_555
O10_2 Cd4 1_555 1_555
C23_2 C24_2 1_555 1_555
C28_2 C29_2 1_555 1_555
Cd6 O1_2 1_555 1_555
O1_2 C1_2 1_555 1_555
O3_2 Cd6 1_555 1_555
O10_2 C8_2 1_555 1_555
O7_2 C19_2 1_555 1_555
O8_2 C19_2 1_555 1_555
O9 Cd6 1_555 1_555
F1_2 C11_2 1_555 1_555
F2_2 C11_2 1_555 1_555
F3_2 C11_2 1_555 1_555
F4_2 C10_2 1_555 1_555
F5_2 C10_2 1_555 1_555
F6_2 C10_2 1_555 1_555
C1_2 O2_2 1_555 1_555
C2_2 C1_2 1_555 1_555
C3_2 C2_2 1_555 1_555
C4_2 C3_2 1_555 1_555
H1_2 C4_2 1_555 1_555
C5_2 C4_2 1_555 1_555
C6_2 C5_2 1_555 1_555
H2_2 C6_2 1_555 1_555
C7_2 C2_2 1_555 1_555
H3_2 C7_2 1_555 1_555
C8_2 O3_2 1_555 1_555
C9_2 C5_2 1_555 1_555
C10_2 C9_2 1_555 1_555
C11_2 C9_2 1_555 1_555
C12_2 C9_2 1_555 1_555
C13_2 C12_2 1_555 1_555
H4_2 C13_2 1_555 1_555
C16_2 C15_2 1_555 1_555
C17_2 C12_2 1_555 1_555
H6_2 C17_2 1_555 1_555
C19_2 C16_2 1_555 1_555
H15 O9 1_555 1_555
H16 O9 1_555 1_555
O14_2 Cd6 1_555 1_555
N3_2 Cd6 1_555 1_555
C3_2 C8_2 1_555 1_555
C6_2 C7_2 1_555 1_555
C16_2 C17_2 1_555 1_555
Cd5_2 O8_3 1_555 1_555
O5_2 C18_3 1_555 1_555
O6_2 C18_3 1_555 1_555
H5_3 C14_3 1_555 1_555
Cd5 O5_2 1_555 1_555
Cd8 O5_2 1_555 1_555
O6_2 Cd8 1_555 1_555
O4 C8_3 1_555 1_555
F1_3 C11_3 1_555 1_555
F2_3 C11_3 1_555 1_555
F3_3 C11_3 1_555 1_555
F4_3 C10_3 1_555 1_555
F5_3 C10_3 1_555 1_555
F6_3 C10_3 1_555 1_555
C4_3 C3_3 1_555 1_555
H1_3 C4_3 1_555 1_555
C5_3 C4_3 1_555 1_555
C8_3 O3_3 1_555 1_555
C9_3 C5_3 1_555 1_555
C10_3 C9_3 1_555 1_555
C11_3 C9_3 1_555 1_555
C12_3 C9_3 1_555 1_555
C17_3 C12_3 1_555 1_555
H6_3 C17_3 1_555 1_555
Cd5_2 O4 1_555 1_555
C3_3 C8_3 1_555 1_555
Cd5_2 O11 1_555 1_555
N3 C27_3 1_555 1_555
H8_3 C21_3 1_555 1_555
H11_3 C26_3 1_555 1_555
C27_3 C26_3 1_555 1_555
H12_3 C27_3 1_555 1_555
Cd5_2 O1_3 1_555 1_555
Cd7 O1_3 1_555 1_555
O1_3 C1_3 1_555 1_555
O2_3 Cd5_2 1_555 1_555
O14_2 C19_3 1_555 1_555
O15_3 C19_3 1_555 1_555
N1_3 Cd5_2 1_555 1_555
C1_3 O2_3 1_555 1_555
C2_3 C1_3 1_555 1_555
H2_3 C6_3 1_555 1_555
C7_3 C2_3 1_555 1_555
H3_3 C7_3 1_555 1_555
H4_3 C13_3 1_555 1_555
C16_3 C15_3 1_555 1_555
C19_3 C16_3 1_555 1_555
C20_3 N1_3 1_555 1_555
C23_3 C22_3 1_555 1_555
H9_3 C23_3 1_555 1_555
C24_3 N1_3 1_555 1_555
H10_3 C24_3 1_555 1_555
C25_3 C22_3 1_555 1_555
H13_3 C28_3 1_555 1_555
C29_3 C25_3 1_555 1_555
H14_3 C29_3 1_555 1_555
C6_3 C7_3 1_555 1_555
C23_3 C24_3 1_555 1_555
C28_3 C29_3 1_555 1_555
Cd8 O1_4 1_555 1_555
O1_4 C1_4 1_555 1_555
O3_4 Cd8 1_555 1_555
O4_2 C8_4 1_555 1_555
O14 C19_4 1_555 1_555
O15_2 C19_4 1_555 1_555
O9_2 Cd8 1_555 1_555
F1_4 C11_4 1_555 1_555
F2_4 C11_4 1_555 1_555
F3_4 C11_4 1_555 1_555
F4_4 C10_4 1_555 1_555
F5_4 C10_4 1_555 1_555
F6_4 C10_4 1_555 1_555
C1_4 O2_4 1_555 1_555
C2_4 C1_4 1_555 1_555
C3_4 C2_4 1_555 1_555
C4_4 C3_4 1_555 1_555
H1_4 C4_4 1_555 1_555
C5_4 C4_4 1_555 1_555
C6_4 C5_4 1_555 1_555
H2_4 C6_4 1_555 1_555
C7_4 C2_4 1_555 1_555
H3_4 C7_4 1_555 1_555
C8_4 O3_4 1_555 1_555
C9_4 C5_4 1_555 1_555
C10_4 C9_4 1_555 1_555
C11_4 C9_4 1_555 1_555
C12_4 C9_4 1_555 1_555
C13_4 C12_4 1_555 1_555
H4_4 C13_4 1_555 1_555
C16_4 C15_4 1_555 1_555
C17_4 C12_4 1_555 1_555
H6_4 C17_4 1_555 1_555
C19_4 C16_4 1_555 1_555
H15_2 O9_2 1_555 1_555
H16_2 O9_2 1_555 1_555
Cd5 O4_2 1_555 1_555
C3_4 C8_4 1_555 1_555
C6_4 C7_4 1_555 1_555
C16_4 C17_4 1_555 1_555
N1_4 Cd5 1_555 1_555
N3_2 C27_4 1_555 1_555
C20_4 N1_4 1_555 1_555
H7_4 C20_4 1_555 1_555
C21_4 C20_4 1_555 1_555
H8_4 C21_4 1_555 1_555
C22_4 C21_4 1_555 1_555
C23_4 C22_4 1_555 1_555
H9_4 C23_4 1_555 1_555
C24_4 N1_4 1_555 1_555
H10_4 C24_4 1_555 1_555
C25_4 C22_4 1_555 1_555
C26_4 C25_4 1_555 1_555
H11_4 C26_4 1_555 1_555
C27_4 C26_4 1_555 1_555
H12_4 C27_4 1_555 1_555
C28_4 N3_2 1_555 1_555
H13_4 C28_4 1_555 1_555
C29_4 C25_4 1_555 1_555
H14_4 C29_4 1_555 1_555
C23_4 C24_4 1_555 1_555
C28_4 C29_4 1_555 1_555
O11 C18_4 1_555 1_555
O13_2 C18_4 1_555 1_555
H5_4 C14_4 1_555 1_555
H15_3 O9_3 1_555 1_555
H16_3 O9_3 1_555 1_555
H15_4 O9_4 1_555 1_555
H16_4 O9_4 1_555 1_555

#END
