
###############################################################################
#
# This file contains modified crystal structure data generated from the
# MOF subset of the Cambridge Structural Database (CSD) v543 
# hosted by the Cambridge Crystallographic Data Centre (CCDC).
#
# This work is licensed under the Creative Commons
# Attribution-NonCommercial-ShareAlike 4.0 International License.
# To view a copy of this license, visit
# http://creativecommons.org/licenses/by-nc-sa/4.0/
# or send a letter to
# Creative Commons, PO Box 1866, Mountain View, CA 94042, USA.
#
# CIF created using the CSD Python API on 29 September 2022
# The structure has been converted into the P1 space group
# The structure has a 3D framework
# The original CSD entry COWMOR is in the monoclinic crystal system
# The framework has been calculated to contain at least 10.0% void space
# The void calculation uses a probe of radius 1.32A, grid spacing 0.4
# H atom positions have been added when not included in the experimental data
#
###############################################################################

data_COWMOR
_chemical_formula_moiety         '(C48 H72 Er4 N4 O30)n'
_symmetry_cell_setting           triclinic
_symmetry_space_group_name_H-M   'P 1'
_symmetry_Int_Tables_number      1
_space_group_name_Hall           'P 1'
loop_
_symmetry_equiv_pos_site_id
_symmetry_equiv_pos_as_xyz
1 x,y,z
_cell_length_a                   9.5631(7)
_cell_length_b                   13.8741(10)
_cell_length_c                   15.3000(11)
_cell_angle_alpha                90
_cell_angle_beta                 93.382(2)
_cell_angle_gamma                90
_cell_volume                     2026.46
loop_
_atom_site_label
_atom_site_type_symbol
_atom_site_fract_x
_atom_site_fract_y
_atom_site_fract_z
C9 C 0.2195(16) 0.0088(11) 0.1226(10)
O6 O 0.2061(12) 0.0943(8) 0.1012(8)
Er4 Er 0.45733(7) 0.11095(5) 0.08577(5)
C3 C 0.1044(15) 0.8708(12) 0.2061(12)
H4 H 0.1911 0.8347 0.2049
H5 H 0.1046 0.9053 0.2612
C4 C 0.0938(16) 0.9444(13) 0.1278(12)
H6 H 0.0929 0.9045 0.0750
O5 O 0.0777(13) 0.6633(10) 0.2696(8)
O7 O 0.3412(11) 0.9709(9) 0.1365(8)
Er3 Er 0.04267(7) 0.61095(5) 0.41423(5)
H7 H 0.9473 0.0373 0.0716
H8 H 0.9467 0.0363 0.1741
O1 O 0.6640(13) 0.0443(10) 0.1652(8)
O8 O 0.3507(14) 0.2475(10) 0.0171(10)
O10 O 0.5676(14) 0.2463(10) 0.1560(8)
O11 O 0.4223(13) 0.1633(10) 0.2304(8)
C10 C 0.401(3) 0.315(2) 0.9818(17)
H10 H 0.4983 0.3165 0.9826
C11 C 0.400(5) 0.465(3) 0.899(3)
H11 H 0.5003 0.4581 0.9049
H12 H 0.3732 0.5246 0.9240
H13 H 0.3701 0.4633 0.8378
C12 C 0.188(4) 0.391(3) 0.936(3)
H14 H 0.1504 0.3375 0.9674
H15 H 0.1552 0.3870 0.8756
H16 H 0.1567 0.4501 0.9606
O2 O 0.6265(12) 0.1652(10) 0.9894(8)
N1 N 0.337(3) 0.3868(17) 0.9429(14)
O9 O 0.3942(11) 0.0375(9) 0.9517(7)
H17 H 0.676394 0.108875 0.966053
H18 H 0.578977 0.201408 0.940161
C1 C 0.8394(17) 0.8572(13) 0.1941(12)
H1 H 0.7630 0.8113 0.1884
H2 H 0.8306 0.8930 0.2480
C2 C 0.9811(17) 0.8026(14) 0.1983(14)
H3 H 0.9869 0.7650 0.1444
C5 C 0.9531(15) 0.9958(12) 0.1228(11)
C6 C 0.8304(17) 0.9257(13) 0.1174(12)
H9 H 0.8357 0.8877 0.0637
C7 C 0.6934(15) 0.9805(11) 0.1119(10)
C8 C 0.9963(16) 0.7348(13) 0.2752(11)
O3 O 0.6058(11) 0.9625(9) 0.0483(7)
O4 O 0.9324(14) 0.7463(10) 0.3440(8)
Er2 Er 0.54267(7) 0.88905(5) 0.91423(5)
C10_2 C 0.099(3) 0.815(2) 0.5182(17)
H10_2 H 0.0017 0.8165 0.5174
C11_2 C 0.100(5) 0.965(3) 0.601(3)
H13_2 H 0.1299 0.9633 0.6622
C12_2 C 0.312(4) 0.891(3) 0.564(3)
H14_2 H 0.3496 0.8375 0.5326
H15_2 H 0.3448 0.8870 0.6244
H16_2 H 0.3433 0.9501 0.5394
O8_2 O 0.1493(14) 0.7475(10) 0.4829(10)
N1_2 N 0.163(3) 0.8868(17) 0.5571(14)
O9_2 O 0.1058(11) 0.5375(9) 0.5483(7)
O12 O 0.2939(12) 0.5943(8) 0.3988(8)
O13 O 0.1588(11) 0.4709(9) 0.3635(8)
C1_2 C 0.6606(17) 0.3572(13) 0.3059(12)
H1_2 H 0.7370 0.3113 0.3116
H2_2 H 0.6694 0.3930 0.2520
C2_2 C 0.5189(17) 0.3026(14) 0.3017(14)
H3_2 H 0.5131 0.2650 0.3556
C3_2 C 0.3956(15) 0.3708(12) 0.2939(12)
H4_2 H 0.3089 0.3347 0.2951
H5_2 H 0.3954 0.4053 0.2388
C4_2 C 0.4062(16) 0.4444(13) 0.3722(12)
H6_2 H 0.4071 0.4045 0.4250
C5_2 C 0.5469(15) 0.4958(12) 0.3772(11)
H7_2 H 0.5527 0.5373 0.4284
H8_2 H 0.5533 0.5363 0.3259
C6_2 C 0.6696(17) 0.4257(13) 0.3826(12)
H9_2 H 0.6643 0.3877 0.4363
C7_2 C 0.8066(15) 0.4805(11) 0.3881(10)
C8_2 C 0.5037(16) 0.2348(13) 0.2248(11)
C9_2 C 0.2805(16) 0.5088(11) 0.3774(10)
H11_2 H 0.9997 0.9581 0.5951
O1_2 O 0.8360(13) 0.5443(10) 0.3348(8)
O2_2 O 0.8735(12) 0.6652(10) 0.5106(8)
O3_2 O 0.8942(11) 0.4625(9) 0.4517(7)
Er2_2 Er 0.95733(7) 0.38905(5) 0.58577(5)
H17_2 H 0.823606 0.608875 0.533947
H18_2 H 0.921023 0.701408 0.559839
C1_3 C 0.1606(17) 0.1428(13) 0.8059(12)
H1_3 H 0.2370 0.1887 0.8116
H2_3 H 0.1694 0.1070 0.7520
C2_3 C 0.0189(17) 0.1974(14) 0.8017(14)
H3_3 H 0.0131 0.2350 0.8556
C5_3 C 0.0469(15) 0.0042(12) 0.8772(11)
C6_3 C 0.1696(17) 0.0743(13) 0.8826(12)
H9_3 H 0.1643 0.1123 0.9363
C7_3 C 0.3066(15) 0.0195(11) 0.8881(10)
C8_3 C 0.0037(16) 0.2652(13) 0.7248(11)
O4_2 O 0.0676(14) 0.2537(10) 0.6560(8)
O13_2 O 0.6588(11) 0.0291(9) 0.8635(8)
C10_3 C 0.599(3) 0.685(2) 0.0182(17)
H10_3 H 0.5017 0.6835 0.0174
C11_3 C 0.600(5) 0.535(3) 0.101(3)
H11_3 H 0.4997 0.5419 0.0951
H12_2 H 0.6268 0.4754 0.0760
H13_3 H 0.6299 0.5367 0.1622
C12_3 C 0.812(4) 0.609(3) 0.064(3)
H14_3 H 0.8496 0.6625 0.0326
H15_3 H 0.8448 0.6130 0.1244
H16_3 H 0.8433 0.5499 0.0394
O2_3 O 0.3735(12) 0.8348(10) 0.0106(8)
N1_3 N 0.663(3) 0.6132(17) 0.0571(14)
H17_3 H 0.323606 0.891125 0.0339473
H18_3 H 0.421023 0.798592 0.0598386
H7_3 H 0.0527 0.9627 0.9284
H8_3 H 0.0533 0.9637 0.8259
O1_3 O 0.3360(13) 0.9557(10) 0.8348(8)
O8_3 O 0.6493(14) 0.7525(10) 0.9829(10)
O10_2 O 0.4324(14) 0.7537(10) 0.8440(8)
O11_2 O 0.5777(13) 0.8367(10) 0.7696(8)
O12_2 O 0.7939(12) 0.9057(8) 0.8988(8)
C3_3 C 0.8956(15) 0.1292(12) 0.7939(12)
H4_3 H 0.8089 0.1653 0.7951
H5_3 H 0.8954 0.0947 0.7388
C4_3 C 0.9062(16) 0.0556(13) 0.8722(12)
H6_3 H 0.9071 0.0955 0.9250
O5_2 O 0.9223(13) 0.3367(10) 0.7304(8)
C9_3 C 0.7805(16) 0.9912(11) 0.8774(10)
C1_4 C 0.3394(17) 0.6428(13) 0.6941(12)
H1_4 H 0.2630 0.6887 0.6884
H2_4 H 0.3306 0.6070 0.7480
C2_4 C 0.4811(17) 0.6974(14) 0.6983(14)
H3_4 H 0.4869 0.7350 0.6444
C3_4 C 0.6044(15) 0.6292(12) 0.7061(12)
H4_4 H 0.6911 0.6653 0.7049
H5_4 H 0.6046 0.5947 0.7612
C4_4 C 0.5938(16) 0.5556(13) 0.6278(12)
H6_4 H 0.5929 0.5955 0.5750
C5_4 C 0.4531(15) 0.5042(12) 0.6228(11)
H7_4 H 0.4473 0.4627 0.5716
H8_4 H 0.4467 0.4637 0.6741
C6_4 C 0.3304(17) 0.5743(13) 0.6174(12)
H9_4 H 0.3357 0.6123 0.5637
C7_4 C 0.1934(15) 0.5195(11) 0.6119(10)
C8_4 C 0.4963(16) 0.7652(13) 0.7752(11)
C9_4 C 0.7195(16) 0.4912(11) 0.6226(10)
H11_4 H 0.0003 0.0419 0.4049
O1_4 O 0.1640(13) 0.4557(10) 0.6652(8)
O2_4 O 0.1265(12) 0.3348(10) 0.4894(8)
O6_2 O 0.7061(12) 0.4057(8) 0.6012(8)
O7_2 O 0.8412(11) 0.5291(9) 0.6365(8)
H17_4 H 0.176394 0.391125 0.466053
H18_4 H 0.0789768 0.298592 0.440161
C10_4 C 0.901(3) 0.185(2) 0.4818(17)
H10_4 H 0.9983 0.1835 0.4826
C11_4 C 0.900(5) 0.035(3) 0.399(3)
H13_4 H 0.8701 0.0367 0.3378
C12_4 C 0.688(4) 0.109(3) 0.436(3)
H14_4 H 0.6504 0.1625 0.4674
H15_4 H 0.6552 0.1130 0.3756
H16_4 H 0.6567 0.0499 0.4606
O8_4 O 0.8507(14) 0.2525(10) 0.5171(10)
N1_4 N 0.837(3) 0.1132(17) 0.4429(14)
H12_3 H 0.1268 0.0246 0.5760
H12_4 H 0.8732 0.9754 0.4240
loop_
_geom_bond_atom_site_label_1
_geom_bond_atom_site_label_2
_geom_bond_site_symmetry_1
_geom_bond_site_symmetry_2
O6 C9 1_555 1_555
Er4 O6 1_555 1_555
H4 C3 1_555 1_555
H5 C3 1_555 1_555
C4 C3 1_555 1_555
H6 C4 1_555 1_555
O5 Er3 1_555 1_555
Er4 O1 1_555 1_555
O8 Er4 1_555 1_555
O10 Er4 1_555 1_555
O11 Er4 1_555 1_555
C10 H10 1_555 1_555
C11 H11 1_555 1_555
H12 C11 1_555 1_555
H13 C11 1_555 1_555
C12 H14 1_555 1_555
H15 C12 1_555 1_555
H16 C12 1_555 1_555
N1 C10 1_555 1_555
C11 N1 1_555 1_555
C12 N1 1_555 1_555
O2 H17 1_555 1_555
O2 H18 1_555 1_555
C1 H1 1_555 1_555
H2 C1 1_555 1_555
C2 C1 1_555 1_555
H3 C2 1_555 1_555
C6 C1 1_555 1_555
H9 C6 1_555 1_555
C7 C6 1_555 1_555
C8 C2 1_555 1_555
O4 C8 1_555 1_555
C5 C6 1_555 1_555
C7 O3 1_555 1_555
C10_2 H10_2 1_555 1_555
H13_2 C11_2 1_555 1_555
C12_2 H14_2 1_555 1_555
H15_2 C12_2 1_555 1_555
H16_2 C12_2 1_555 1_555
O8_2 Er3 1_555 1_555
N1_2 C10_2 1_555 1_555
O9_2 Er3 1_555 1_555
O12 Er3 1_555 1_555
O13 Er3 1_555 1_555
C10_2 O8_2 1_555 1_555
C11_2 N1_2 1_555 1_555
C12_2 N1_2 1_555 1_555
C1_2 H1_2 1_555 1_555
H2_2 C1_2 1_555 1_555
C2_2 C1_2 1_555 1_555
H3_2 C2_2 1_555 1_555
C3_2 C2_2 1_555 1_555
H4_2 C3_2 1_555 1_555
H5_2 C3_2 1_555 1_555
C4_2 C3_2 1_555 1_555
H6_2 C4_2 1_555 1_555
C5_2 C4_2 1_555 1_555
H7_2 C5_2 1_555 1_555
H8_2 C5_2 1_555 1_555
C6_2 C1_2 1_555 1_555
H9_2 C6_2 1_555 1_555
C7_2 C6_2 1_555 1_555
C8_2 C2_2 1_555 1_555
C9_2 C4_2 1_555 1_555
O1_2 C7_2 1_555 1_555
O10 C8_2 1_555 1_555
O11 C8_2 1_555 1_555
O12 C9_2 1_555 1_555
O13 C9_2 1_555 1_555
Er2_2 O3_2 1_555 1_555
C5_2 C6_2 1_555 1_555
C7_2 O3_2 1_555 1_555
O2_2 H17_2 1_555 1_555
O2_2 H18_2 1_555 1_555
C1_3 H1_3 1_555 1_555
H2_3 C1_3 1_555 1_555
C2_3 C1_3 1_555 1_555
H3_3 C2_3 1_555 1_555
C6_3 C1_3 1_555 1_555
H9_3 C6_3 1_555 1_555
C7_3 C6_3 1_555 1_555
C8_3 C2_3 1_555 1_555
O4_2 C8_3 1_555 1_555
C5_3 C6_3 1_555 1_555
C7_3 O9 1_555 1_555
C10_3 H10_3 1_555 1_555
C11_3 H11_3 1_555 1_555
H12_2 C11_3 1_555 1_555
H13_3 C11_3 1_555 1_555
C12_3 H14_3 1_555 1_555
H15_3 C12_3 1_555 1_555
H16_3 C12_3 1_555 1_555
N1_3 C10_3 1_555 1_555
C11_3 N1_3 1_555 1_555
C12_3 N1_3 1_555 1_555
O2_3 H17_3 1_555 1_555
O2_3 H18_3 1_555 1_555
Er2 O1_3 1_555 1_555
O8_3 Er2 1_555 1_555
O10_2 Er2 1_555 1_555
O11_2 Er2 1_555 1_555
O12_2 Er2 1_555 1_555
H4_3 C3_3 1_555 1_555
H5_3 C3_3 1_555 1_555
C4_3 C3_3 1_555 1_555
H6_3 C4_3 1_555 1_555
O5_2 Er2_2 1_555 1_555
O12_2 C9_3 1_555 1_555
C1_4 H1_4 1_555 1_555
H2_4 C1_4 1_555 1_555
C2_4 C1_4 1_555 1_555
H3_4 C2_4 1_555 1_555
C3_4 C2_4 1_555 1_555
H4_4 C3_4 1_555 1_555
H5_4 C3_4 1_555 1_555
C4_4 C3_4 1_555 1_555
H6_4 C4_4 1_555 1_555
C5_4 C4_4 1_555 1_555
H7_4 C5_4 1_555 1_555
H8_4 C5_4 1_555 1_555
C6_4 C1_4 1_555 1_555
H9_4 C6_4 1_555 1_555
C7_4 C6_4 1_555 1_555
C8_4 C2_4 1_555 1_555
C9_4 C4_4 1_555 1_555
O1_4 C7_4 1_555 1_555
O10_2 C8_4 1_555 1_555
O11_2 C8_4 1_555 1_555
O6_2 C9_4 1_555 1_555
O7_2 C9_4 1_555 1_555
Er2_2 O6_2 1_555 1_555
C5_4 C6_4 1_555 1_555
C7_4 O9_2 1_555 1_555
O7_2 Er2_2 1_555 1_555
O2_4 H17_4 1_555 1_555
O2_4 H18_4 1_555 1_555
C10_4 H10_4 1_555 1_555
H13_4 C11_4 1_555 1_555
C12_4 H14_4 1_555 1_555
H15_4 C12_4 1_555 1_555
H16_4 C12_4 1_555 1_555
O8_4 Er2_2 1_555 1_555
N1_4 C10_4 1_555 1_555
C10_4 O8_4 1_555 1_555
C11_4 N1_4 1_555 1_555
C12_4 N1_4 1_555 1_555

#END
