
###############################################################################
#
# This file contains modified crystal structure data generated from the
# MOF subset of the Cambridge Structural Database (CSD) v543 
# hosted by the Cambridge Crystallographic Data Centre (CCDC).
#
# This work is licensed under the Creative Commons
# Attribution-NonCommercial-ShareAlike 4.0 International License.
# To view a copy of this license, visit
# http://creativecommons.org/licenses/by-nc-sa/4.0/
# or send a letter to
# Creative Commons, PO Box 1866, Mountain View, CA 94042, USA.
#
# CIF created using the CSD Python API on 29 September 2022
# The structure has been converted into the P1 space group
# The structure has a 3D framework
# The original CSD entry COWMAD is in the monoclinic crystal system
# The framework has been calculated to contain at least 10.0% void space
# The void calculation uses a probe of radius 1.32A, grid spacing 0.4
# H atom positions have been added when not included in the experimental data
#
###############################################################################

data_COWMAD
_chemical_formula_moiety         '(C48 H72 Dy4 N4 O30)n'
_symmetry_cell_setting           triclinic
_symmetry_space_group_name_H-M   'P 1'
_symmetry_Int_Tables_number      1
_space_group_name_Hall           'P 1'
loop_
_symmetry_equiv_pos_site_id
_symmetry_equiv_pos_as_xyz
1 x,y,z
_cell_length_a                   9.5983(10)
_cell_length_b                   13.8789(15)
_cell_length_c                   15.3443(17)
_cell_angle_alpha                90
_cell_angle_beta                 93.451(2)
_cell_angle_gamma                90
_cell_volume                     2040.37
loop_
_atom_site_label
_atom_site_type_symbol
_atom_site_fract_x
_atom_site_fract_y
_atom_site_fract_z
O11 O 0.1674(8) 0.0444(6) 0.1652(5)
O13 O 0.0661(8) 0.2479(6) 0.1578(5)
H18 H 0.223761 0.155306 0.016722
O9 O 0.1062(7) 0.9625(6) 0.0493(5)
Dy1 Dy 0.95753(4) 0.11128(4) 0.08579(3)
H7 H 0.4479 0.0366 0.1742
H8 H 0.4478 0.0382 0.0719
C7 C 0.7191(10) 0.0089(8) 0.1223(6)
O1 O 0.7050(7) 0.0945(6) 0.1025(5)
O8 O 0.8496(9) 0.2485(6) 0.0155(6)
O12 O 0.9229(8) 0.1638(6) 0.2324(5)
C10 C 0.8999(16) 0.3159(11) 0.9804(11)
H10 H 0.9969 0.3171 0.9818
C11 C 0.905(3) 0.4659(18) 0.8970(19)
H12 H 0.8787 0.5263 0.9218
H13 H 0.8770 0.4652 0.8358
C12 C 0.687(2) 0.3921(15) 0.9334(19)
H14 H 0.6498 0.3381 0.9635
H15 H 0.6545 0.3900 0.8730
H16 H 0.6561 0.4508 0.9592
N1 N 0.8360(17) 0.3882(10) 0.9402(8)
O10 O 0.8938(7) 0.0375(6) 0.9507(5)
C1 C 0.6030(10) 0.8735(8) 0.2024(7)
H1 H 0.6045 0.9089 0.2569
H2 H 0.6897 0.8378 0.2010
C2 C 0.4804(10) 0.8029(8) 0.1982(7)
H3 H 0.4846 0.7648 0.1447
C3 C 0.3406(9) 0.8575(8) 0.1940(7)
H4 H 0.2642 0.8118 0.1878
H5 H 0.3317 0.8929 0.2480
C4 C 0.3319(9) 0.9273(8) 0.1174(7)
H6 H 0.3373 0.8896 0.0637
C5 C 0.4533(9) 0.9965(8) 0.1228(7)
C6 C 0.5921(10) 0.9432(8) 0.1273(7)
H9 H 0.5906 0.9034 0.0745
C8 C 0.4963(10) 0.7346(8) 0.2756(7)
C9 C 0.1941(9) 0.9813(7) 0.1118(6)
O3 O 0.8391(7) 0.9702(5) 0.1353(5)
O6 O 0.5771(8) 0.6638(6) 0.2676(5)
O7 O 0.4339(8) 0.7479(6) 0.3422(5)
Dy4 Dy 0.54247(4) 0.61128(4) 0.41421(3)
Dy3 Dy 0.04247(4) 0.88872(4) 0.91421(3)
C2_2 C 0.0196(10) 0.3029(8) 0.3018(7)
H3_2 H 0.0154 0.2648 0.3553
C3_2 C 0.1594(9) 0.3575(8) 0.3060(7)
H4_2 H 0.2358 0.3118 0.3122
H5_2 H 0.1683 0.3929 0.2520
C4_2 C 0.1681(9) 0.4273(8) 0.3826(7)
H6_2 H 0.1627 0.3896 0.4363
C5_2 C 0.0467(9) 0.4965(8) 0.3772(7)
H7_2 H 0.0521 0.5366 0.3258
H8_2 H 0.0522 0.5382 0.4281
C8_2 C 0.0037(10) 0.2346(8) 0.2244(7)
C9_2 C 0.3059(9) 0.4813(7) 0.3882(6)
O4 O 0.3938(7) 0.4625(6) 0.4507(5)
O5 O 0.3326(8) 0.5444(6) 0.3348(5)
Dy3_2 Dy 0.45753(4) 0.38872(4) 0.58579(3)
C1_2 C 0.8970(10) 0.3735(8) 0.2976(7)
H1_2 H 0.8955 0.4089 0.2431
H2_2 H 0.8103 0.3378 0.2990
C6_2 C 0.9079(10) 0.4432(8) 0.3727(7)
H9_2 H 0.9094 0.4034 0.4255
C7_2 C 0.7809(10) 0.5089(8) 0.3777(6)
C10_2 C 0.6001(16) 0.8159(11) 0.5196(11)
H10_2 H 0.5031 0.8171 0.5182
C11_2 C 0.595(3) 0.9659(18) 0.6030(19)
H11 H 0.4960 0.9578 0.5953
H13_2 H 0.6230 0.9652 0.6642
C12_2 C 0.813(2) 0.8921(15) 0.5666(19)
H14_2 H 0.8502 0.8381 0.5365
H15_2 H 0.8455 0.8900 0.6270
H16_2 H 0.8439 0.9508 0.5408
O1_2 O 0.7950(7) 0.5945(6) 0.3975(5)
O2 O 0.3712(7) 0.6663(6) 0.5108(5)
O3_2 O 0.6609(7) 0.4702(5) 0.3647(5)
O8_2 O 0.6504(9) 0.7485(6) 0.4845(6)
N1_2 N 0.6640(17) 0.8882(10) 0.5598(8)
O10_2 O 0.6062(7) 0.5375(6) 0.5493(5)
H17 H 0.384776 0.736168 0.522376
H18_2 H 0.276239 0.655306 0.483278
C1_3 C 0.3970(10) 0.1265(8) 0.7976(7)
H1_3 H 0.3955 0.0911 0.7431
H2_3 H 0.3103 0.1622 0.7990
C2_3 C 0.5196(10) 0.1971(8) 0.8018(7)
H3_3 H 0.5154 0.2352 0.8553
C3_3 C 0.6594(9) 0.1425(8) 0.8060(7)
H4_3 H 0.7358 0.1882 0.8122
H5_3 H 0.6683 0.1071 0.7520
C4_3 C 0.6681(9) 0.0727(8) 0.8826(7)
H6_3 H 0.6627 0.1104 0.9363
C5_3 C 0.5467(9) 0.0035(8) 0.8772(7)
C6_3 C 0.4079(10) 0.0568(8) 0.8727(7)
H9_3 H 0.4094 0.0966 0.9255
C8_3 C 0.5037(10) 0.2654(8) 0.7244(7)
C9_3 C 0.8059(9) 0.0187(7) 0.8882(6)
O3_3 O 0.1609(7) 0.0298(5) 0.8647(5)
O6_2 O 0.4229(8) 0.3362(6) 0.7324(5)
O7_2 O 0.5661(8) 0.2521(6) 0.6578(5)
C10_3 C 0.1001(16) 0.6841(11) 0.0196(11)
H10_3 H 0.0031 0.6829 0.0182
C11_3 C 0.095(3) 0.5341(18) 0.1030(19)
H12_2 H 0.1213 0.4737 0.0782
H13_3 H 0.1230 0.5348 0.1642
C12_3 C 0.313(2) 0.6079(15) 0.0666(19)
H14_3 H 0.3502 0.6619 0.0365
H15_3 H 0.3455 0.6100 0.1270
H16_3 H 0.3439 0.5492 0.0408
N1_3 N 0.1640(17) 0.6118(10) 0.0598(8)
H7_3 H 0.5521 0.9634 0.8258
H8_3 H 0.5522 0.9618 0.9281
C7_3 C 0.2809(10) 0.9911(8) 0.8777(6)
O1_3 O 0.2950(7) 0.9055(6) 0.8975(5)
O5_2 O 0.8326(8) 0.9556(6) 0.8348(5)
O8_3 O 0.1504(9) 0.7515(6) 0.9845(6)
O12_2 O 0.0771(8) 0.8362(6) 0.7676(5)
O13_2 O 0.9339(8) 0.7521(6) 0.8422(5)
H18_3 H 0.776239 0.844694 0.983278
C1_4 C 0.1030(10) 0.6265(8) 0.7024(7)
H1_4 H 0.1045 0.5911 0.7569
H2_4 H 0.1897 0.6622 0.7010
C6_4 C 0.0921(10) 0.5568(8) 0.6273(7)
H9_4 H 0.0906 0.5966 0.5745
C7_4 C 0.2191(10) 0.4911(8) 0.6223(6)
C10_4 C 0.3999(16) 0.1841(11) 0.4804(11)
H10_4 H 0.4969 0.1829 0.4818
C11_4 C 0.405(3) 0.0341(18) 0.3970(19)
H11_2 H 0.5040 0.0422 0.4047
H13_4 H 0.3770 0.0348 0.3358
C12_4 C 0.187(2) 0.1079(15) 0.4334(19)
H14_4 H 0.1498 0.1619 0.4635
H15_4 H 0.1545 0.1100 0.3730
H16_4 H 0.1561 0.0492 0.4592
O1_4 O 0.2050(7) 0.4055(6) 0.6025(5)
O2_2 O 0.6288(7) 0.3337(6) 0.4892(5)
O3_4 O 0.3391(7) 0.5298(5) 0.6353(5)
O8_4 O 0.3496(9) 0.2515(6) 0.5155(6)
N1_4 N 0.3360(17) 0.1118(10) 0.4402(8)
O11_2 O 0.6674(8) 0.4556(6) 0.6652(5)
H17_2 H 0.615224 0.263832 0.477624
H18_4 H 0.723761 0.344694 0.516722
C2_4 C 0.9804(10) 0.6971(8) 0.6982(7)
H3_4 H 0.9846 0.7352 0.6447
C3_4 C 0.8406(9) 0.6425(8) 0.6940(7)
H4_4 H 0.7642 0.6882 0.6878
H5_4 H 0.8317 0.6071 0.7480
C4_4 C 0.8319(9) 0.5727(8) 0.6174(7)
H6_4 H 0.8373 0.6104 0.5637
C5_4 C 0.9533(9) 0.5035(8) 0.6228(7)
H7_4 H 0.9479 0.4634 0.6742
H8_4 H 0.9478 0.4618 0.5719
C8_4 C 0.9963(10) 0.7654(8) 0.7756(7)
C9_4 C 0.6941(9) 0.5187(7) 0.6118(6)
H11_3 H 0.0040 0.4578 0.9047
O2_3 O 0.1288(7) 0.1663(6) 0.9892(5)
H17_3 H 0.115224 0.236168 0.977624
H12_3 H 0.6213 0.0263 0.5782
H11_4 H 0.9960 0.5422 0.0953
O2_4 O 0.8712(7) 0.8337(6) 0.0108(5)
H17_4 H 0.884776 0.763832 0.0223759
H12_4 H 0.3787 0.9737 0.4218
loop_
_geom_bond_atom_site_label_1
_geom_bond_atom_site_label_2
_geom_bond_site_symmetry_1
_geom_bond_site_symmetry_2
Dy1 O1 1_555 1_555
O1 C7 1_555 1_555
O8 Dy1 1_555 1_555
O12 Dy1 1_555 1_555
C10 H10 1_555 1_555
H12 C11 1_555 1_555
H13 C11 1_555 1_555
C12 H14 1_555 1_555
H15 C12 1_555 1_555
H16 C12 1_555 1_555
N1 C10 1_555 1_555
C11 N1 1_555 1_555
C12 N1 1_555 1_555
C1 H1 1_555 1_555
H2 C1 1_555 1_555
C2 C1 1_555 1_555
H3 C2 1_555 1_555
C3 C2 1_555 1_555
H4 C3 1_555 1_555
H5 C3 1_555 1_555
C4 C3 1_555 1_555
H6 C4 1_555 1_555
C5 C4 1_555 1_555
C6 C1 1_555 1_555
H9 C6 1_555 1_555
C8 C2 1_555 1_555
C9 C4 1_555 1_555
O9 C9 1_555 1_555
O6 C8 1_555 1_555
O7 C8 1_555 1_555
Dy4 O6 1_555 1_555
C5 C6 1_555 1_555
O7 Dy4 1_555 1_555
H3_2 C2_2 1_555 1_555
C3_2 C2_2 1_555 1_555
H4_2 C3_2 1_555 1_555
H5_2 C3_2 1_555 1_555
C4_2 C3_2 1_555 1_555
H6_2 C4_2 1_555 1_555
C5_2 C4_2 1_555 1_555
H7_2 C5_2 1_555 1_555
H8_2 C5_2 1_555 1_555
C8_2 C2_2 1_555 1_555
C9_2 C4_2 1_555 1_555
O4 C9_2 1_555 1_555
O5 C9_2 1_555 1_555
O13 C8_2 1_555 1_555
Dy4 O4 1_555 1_555
Dy3_2 O4 1_555 1_555
O5 Dy4 1_555 1_555
Dy4 O1_2 1_555 1_555
C1_2 H1_2 1_555 1_555
H2_2 C1_2 1_555 1_555
C6_2 C1_2 1_555 1_555
H9_2 C6_2 1_555 1_555
C7_2 C6_2 1_555 1_555
C10_2 H10_2 1_555 1_555
C11_2 H11 1_555 1_555
H13_2 C11_2 1_555 1_555
C12_2 H14_2 1_555 1_555
H15_2 C12_2 1_555 1_555
H16_2 C12_2 1_555 1_555
O1_2 C7_2 1_555 1_555
O2 Dy4 1_555 1_555
O3_2 Dy4 1_555 1_555
O8_2 Dy4 1_555 1_555
N1_2 C10_2 1_555 1_555
O10_2 Dy4 1_555 1_555
C7_2 O3_2 1_555 1_555
C10_2 O8_2 1_555 1_555
C11_2 N1_2 1_555 1_555
C12_2 N1_2 1_555 1_555
O2 H17 1_555 1_555
O2 H18_2 1_555 1_555
C1_3 H1_3 1_555 1_555
H2_3 C1_3 1_555 1_555
C2_3 C1_3 1_555 1_555
H3_3 C2_3 1_555 1_555
C3_3 C2_3 1_555 1_555
H4_3 C3_3 1_555 1_555
H5_3 C3_3 1_555 1_555
C4_3 C3_3 1_555 1_555
H6_3 C4_3 1_555 1_555
C5_3 C4_3 1_555 1_555
C6_3 C1_3 1_555 1_555
H9_3 C6_3 1_555 1_555
C8_3 C2_3 1_555 1_555
C9_3 C4_3 1_555 1_555
O10 C9_3 1_555 1_555
O6_2 C8_3 1_555 1_555
O7_2 C8_3 1_555 1_555
Dy3_2 O6_2 1_555 1_555
C5_3 C6_3 1_555 1_555
O7_2 Dy3_2 1_555 1_555
C10_3 H10_3 1_555 1_555
H12_2 C11_3 1_555 1_555
H13_3 C11_3 1_555 1_555
C12_3 H14_3 1_555 1_555
H15_3 C12_3 1_555 1_555
H16_3 C12_3 1_555 1_555
N1_3 C10_3 1_555 1_555
C11_3 N1_3 1_555 1_555
C12_3 N1_3 1_555 1_555
Dy3 O1_3 1_555 1_555
O1_3 C7_3 1_555 1_555
O8_3 Dy3 1_555 1_555
O12_2 Dy3 1_555 1_555
Dy3_2 O1_4 1_555 1_555
C1_4 H1_4 1_555 1_555
H2_4 C1_4 1_555 1_555
C6_4 C1_4 1_555 1_555
H9_4 C6_4 1_555 1_555
C7_4 C6_4 1_555 1_555
C10_4 H10_4 1_555 1_555
C11_4 H11_2 1_555 1_555
H13_4 C11_4 1_555 1_555
C12_4 H14_4 1_555 1_555
H15_4 C12_4 1_555 1_555
H16_4 C12_4 1_555 1_555
O1_4 C7_4 1_555 1_555
O2_2 Dy3_2 1_555 1_555
O3_4 Dy3_2 1_555 1_555
O8_4 Dy3_2 1_555 1_555
N1_4 C10_4 1_555 1_555
O10_2 Dy3_2 1_555 1_555
O11_2 Dy3_2 1_555 1_555
C7_4 O3_4 1_555 1_555
C10_4 O8_4 1_555 1_555
C11_4 N1_4 1_555 1_555
C12_4 N1_4 1_555 1_555
O2_2 H17_2 1_555 1_555
O2_2 H18_4 1_555 1_555
H3_4 C2_4 1_555 1_555
C3_4 C2_4 1_555 1_555
H4_4 C3_4 1_555 1_555
H5_4 C3_4 1_555 1_555
C4_4 C3_4 1_555 1_555
H6_4 C4_4 1_555 1_555
C5_4 C4_4 1_555 1_555
H7_4 C5_4 1_555 1_555
H8_4 C5_4 1_555 1_555
C8_4 C2_4 1_555 1_555
C9_4 C4_4 1_555 1_555
O10_2 C9_4 1_555 1_555
O11_2 C9_4 1_555 1_555
O13_2 C8_4 1_555 1_555
O2_3 H17_3 1_555 1_555
O2_4 H17_4 1_555 1_555

#END
