
###############################################################################
#
# This file contains modified crystal structure data generated from the
# MOF subset of the Cambridge Structural Database (CSD) v543 
# hosted by the Cambridge Crystallographic Data Centre (CCDC).
#
# This work is licensed under the Creative Commons
# Attribution-NonCommercial-ShareAlike 4.0 International License.
# To view a copy of this license, visit
# http://creativecommons.org/licenses/by-nc-sa/4.0/
# or send a letter to
# Creative Commons, PO Box 1866, Mountain View, CA 94042, USA.
#
# CIF created using the CSD Python API on 29 September 2022
# The structure has been converted into the P1 space group
# The structure has a 3D framework
# The original CSD entry COWMEH is in the monoclinic crystal system
# The framework has been calculated to contain at least 10.0% void space
# The void calculation uses a probe of radius 1.32A, grid spacing 0.4
# H atom positions have been added when not included in the experimental data
#
###############################################################################

data_COWMEH
_chemical_formula_moiety         '(C48 H72 N4 O30 Tb4)n'
_symmetry_cell_setting           triclinic
_symmetry_space_group_name_H-M   'P 1'
_symmetry_Int_Tables_number      1
_space_group_name_Hall           'P 1'
loop_
_symmetry_equiv_pos_site_id
_symmetry_equiv_pos_as_xyz
1 x,y,z
_cell_length_a                   9.621(2)
_cell_length_b                   13.908(3)
_cell_length_c                   15.337(4)
_cell_angle_alpha                90
_cell_angle_beta                 93.425(6)
_cell_angle_gamma                90
_cell_volume                     2048.56
loop_
_atom_site_label
_atom_site_type_symbol
_atom_site_fract_x
_atom_site_fract_y
_atom_site_fract_z
O10 O 0.1064(9) 0.0371(6) 0.0503(6)
O9 O 0.1676(10) 0.9544(8) 0.1667(7)
O13 O 0.0671(10) 0.7505(7) 0.1563(7)
H17 H 0.220367 0.862235 0.00376976
C1 C 0.3413(13) 0.1427(9) 0.1941(9)
H1 H 0.3326 0.1077 0.2482
H2 H 0.2654 0.1886 0.1882
C2 C 0.3297(13) 0.0741(10) 0.1197(10)
H3 H 0.3339 0.1119 0.0660
C3 C 0.4537(12) 0.0042(9) 0.1231(9)
C4 C 0.5927(13) 0.0575(10) 0.1278(10)
H6 H 0.5923 0.0967 0.0747
C5 C 0.6040(12) 0.1284(9) 0.2040(9)
H7 H 0.6901 0.1645 0.2023
H8 H 0.6057 0.0935 0.2588
C6 C 0.4812(13) 0.1972(10) 0.1985(10)
H9 H 0.4858 0.2353 0.1450
C8 C 0.1922(13) 0.0180(10) 0.1132(9)
C9 C 0.4953(15) 0.2642(11) 0.2749(11)
O1 O 0.8382(9) 0.0298(6) 0.1364(6)
O6 O 0.5752(10) 0.3347(7) 0.2681(6)
O7 O 0.4329(10) 0.2505(7) 0.3437(7)
Tb4 Tb 0.54234(7) 0.38853(5) 0.41414(5)
Tb3 Tb 0.04234(7) 0.11147(5) 0.91414(5)
Tb1 Tb 0.95766(7) 0.88853(5) 0.08586(5)
H4 H 0.4476 0.9637 0.0715
H5 H 0.4492 0.9629 0.1739
C7 C 0.7178(14) 0.9906(11) 0.1239(8)
O3 O 0.7065(9) 0.9045(7) 0.1032(6)
O8 O 0.8505(10) 0.7484(8) 0.0140(7)
O12 O 0.9248(10) 0.8347(7) 0.2319(6)
C10 C 0.901(2) 0.6761(15) 0.9798(14)
H10 H 0.9969 0.6695 0.9847
C11 C 0.909(3) 0.5302(16) 0.9057(17)
H12 H 0.8814 0.5203 0.8451
H13 H 0.8895 0.4732 0.9381
C12 C 0.686(2) 0.6026(16) 0.9365(16)
H14 H 0.6484 0.6598 0.9608
H15 H 0.6607 0.5478 0.9700
H16 H 0.6505 0.5952 0.8771
N1 N 0.831(2) 0.6099(12) 0.9387(11)
O11 O 0.8936(9) 0.9629(6) 0.9497(6)
C1_2 C 0.1587(13) 0.6427(9) 0.3059(9)
H1_2 H 0.1674 0.6077 0.2518
H2_2 H 0.2346 0.6886 0.3118
C2_2 C 0.1703(13) 0.5741(10) 0.3803(10)
H3_2 H 0.1661 0.6119 0.4340
C3_2 C 0.0463(12) 0.5042(9) 0.3769(9)
H4_2 H 0.0524 0.4637 0.4285
H5_2 H 0.0508 0.4629 0.3261
C6_2 C 0.0188(13) 0.6972(10) 0.3015(10)
H9_2 H 0.0142 0.7353 0.3550
C8_2 C 0.3078(13) 0.5180(10) 0.3868(9)
C9_2 C 0.0047(15) 0.7642(11) 0.2251(11)
O4 O 0.3324(10) 0.4544(8) 0.3333(7)
O5 O 0.3936(9) 0.5371(6) 0.4497(6)
Tb3_2 Tb 0.45766(7) 0.61147(5) 0.58586(5)
C4_2 C 0.9073(13) 0.5575(10) 0.3722(10)
H6_2 H 0.9077 0.5967 0.4253
C5_2 C 0.8960(12) 0.6284(9) 0.2960(9)
H7_2 H 0.8099 0.6645 0.2977
H8_2 H 0.8943 0.5935 0.2412
C7_2 C 0.7822(14) 0.4906(11) 0.3761(8)
C10_2 C 0.599(2) 0.1761(15) 0.5202(14)
H10_2 H 0.5031 0.1695 0.5153
C11_2 C 0.591(3) 0.0302(16) 0.5943(17)
H11 H 0.4935 0.0441 0.5882
H12_2 H 0.6186 0.0203 0.6549
C12_2 C 0.814(2) 0.1026(16) 0.5635(16)
H14_2 H 0.8516 0.1598 0.5392
H15_2 H 0.8393 0.0478 0.5300
H16_2 H 0.8495 0.0952 0.6229
O1_2 O 0.6618(9) 0.5298(6) 0.3636(6)
O2 O 0.3707(9) 0.3311(7) 0.5116(6)
O3_2 O 0.7935(9) 0.4045(7) 0.3968(6)
O8_2 O 0.6495(10) 0.2484(8) 0.4860(7)
N1_2 N 0.669(2) 0.1099(12) 0.5613(11)
O11_2 O 0.6064(9) 0.4629(6) 0.5503(6)
H17_2 H 0.279633 0.362235 0.49623
H18 H 0.360944 0.260292 0.50561
C10_3 C 0.099(2) 0.3239(15) 0.0202(14)
H10_3 H 0.0031 0.3305 0.0153
C11_3 C 0.091(3) 0.4698(16) 0.0943(17)
H12_3 H 0.1186 0.4797 0.1549
H13_2 H 0.1105 0.5268 0.0619
C12_3 C 0.314(2) 0.3974(16) 0.0635(16)
H14_3 H 0.3516 0.3402 0.0392
H15_3 H 0.3393 0.4522 0.0300
H16_3 H 0.3495 0.4048 0.1229
N1_3 N 0.169(2) 0.3901(12) 0.0613(11)
H4_3 H 0.5524 0.0363 0.9285
H5_3 H 0.5508 0.0371 0.8261
C7_3 C 0.2822(14) 0.0094(11) 0.8761(8)
O3_3 O 0.2935(9) 0.0955(7) 0.8968(6)
O4_2 O 0.8324(10) 0.0456(8) 0.8333(7)
O8_3 O 0.1495(10) 0.2516(8) 0.9860(7)
O12_2 O 0.0752(10) 0.1653(7) 0.7681(6)
C1_3 C 0.6587(13) 0.8573(9) 0.8059(9)
H1_3 H 0.6674 0.8923 0.7518
H2_3 H 0.7346 0.8114 0.8118
C2_3 C 0.6703(13) 0.9259(10) 0.8803(10)
H3_3 H 0.6661 0.8881 0.9340
C3_3 C 0.5463(12) 0.9958(9) 0.8769(9)
C4_3 C 0.4073(13) 0.9425(10) 0.8722(10)
H6_3 H 0.4077 0.9033 0.9253
C5_3 C 0.3960(12) 0.8716(9) 0.7960(9)
H7_3 H 0.3099 0.8355 0.7977
H8_3 H 0.3943 0.9065 0.7412
C6_3 C 0.5188(13) 0.8028(10) 0.8015(10)
H9_3 H 0.5142 0.7647 0.8550
C8_3 C 0.8078(13) 0.9820(10) 0.8868(9)
C9_3 C 0.5047(15) 0.7358(11) 0.7251(11)
O1_3 O 0.1618(9) 0.9702(6) 0.8636(6)
O6_2 O 0.4248(10) 0.6653(7) 0.7319(6)
O7_2 O 0.5671(10) 0.7495(7) 0.6563(7)
O13_2 O 0.9329(10) 0.2495(7) 0.8437(7)
H17_3 H 0.779633 0.137765 0.99623
C4_4 C 0.0927(13) 0.4425(10) 0.6278(10)
H6_4 H 0.0923 0.4033 0.5747
C5_4 C 0.1040(12) 0.3716(9) 0.7040(9)
H7_4 H 0.1901 0.3355 0.7023
H8_4 H 0.1057 0.4065 0.7588
C7_4 C 0.2178(14) 0.5094(11) 0.6239(8)
C10_4 C 0.401(2) 0.8239(15) 0.4798(14)
H10_4 H 0.4969 0.8305 0.4847
C11_4 C 0.409(3) 0.9698(16) 0.4057(17)
H11_2 H 0.5065 0.9559 0.4118
H12_4 H 0.3814 0.9797 0.3451
C12_4 C 0.186(2) 0.8974(16) 0.4365(16)
H14_4 H 0.1484 0.8402 0.4608
H15_4 H 0.1607 0.9522 0.4700
H16_4 H 0.1505 0.9048 0.3771
O1_4 O 0.3382(9) 0.4702(6) 0.6364(6)
O2_2 O 0.6293(9) 0.6689(7) 0.4884(6)
O3_4 O 0.2065(9) 0.5955(7) 0.6032(6)
O8_4 O 0.3505(10) 0.7516(8) 0.5140(7)
N1_4 N 0.331(2) 0.8901(12) 0.4387(11)
O9_2 O 0.6676(10) 0.5456(8) 0.6667(7)
H17_4 H 0.720367 0.637765 0.50377
H18_2 H 0.639056 0.739708 0.49439
C1_4 C 0.8413(13) 0.3573(9) 0.6941(9)
H1_4 H 0.8326 0.3923 0.7482
H2_4 H 0.7654 0.3114 0.6882
C2_4 C 0.8297(13) 0.4259(10) 0.6197(10)
H3_4 H 0.8339 0.3881 0.5660
C3_4 C 0.9537(12) 0.4958(9) 0.6231(9)
H4_4 H 0.9476 0.5363 0.5715
H5_4 H 0.9492 0.5371 0.6739
C6_4 C 0.9812(13) 0.3028(10) 0.6985(10)
H9_4 H 0.9858 0.2647 0.6450
C8_4 C 0.6922(13) 0.4820(10) 0.6132(9)
C9_4 C 0.9953(15) 0.2358(11) 0.7749(11)
H11_3 H 0.0065 0.5441 0.9118
O2_3 O 0.1293(9) 0.8311(7) 0.9884(6)
H18_3 H 0.139056 0.760292 0.99439
H13_3 H 0.6105 0.9732 0.5619
H11_4 H 0.9935 0.4559 0.0882
O2_4 O 0.8707(9) 0.1689(7) 0.0116(6)
H18_4 H 0.860944 0.239708 0.00561013
H13_4 H 0.3895 0.0268 0.4381
loop_
_geom_bond_atom_site_label_1
_geom_bond_atom_site_label_2
_geom_bond_site_symmetry_1
_geom_bond_site_symmetry_2
C1 H1 1_555 1_555
H2 C1 1_555 1_555
C2 C1 1_555 1_555
H3 C2 1_555 1_555
C3 C2 1_555 1_555
C4 C3 1_555 1_555
H6 C4 1_555 1_555
C5 C4 1_555 1_555
H7 C5 1_555 1_555
H8 C5 1_555 1_555
C6 C1 1_555 1_555
H9 C6 1_555 1_555
C8 C2 1_555 1_555
C9 C6 1_555 1_555
O10 C8 1_555 1_555
O6 C9 1_555 1_555
O7 C9 1_555 1_555
Tb4 O6 1_555 1_555
C5 C6 1_555 1_555
O7 Tb4 1_555 1_555
O3 Tb1 1_555 1_555
O8 Tb1 1_555 1_555
O12 Tb1 1_555 1_555
C7 O3 1_555 1_555
C10 H10 1_555 1_555
H12 C11 1_555 1_555
H13 C11 1_555 1_555
C12 H14 1_555 1_555
H15 C12 1_555 1_555
H16 C12 1_555 1_555
N1 C10 1_555 1_555
C11 N1 1_555 1_555
C12 N1 1_555 1_555
C1_2 H1_2 1_555 1_555
H2_2 C1_2 1_555 1_555
C2_2 C1_2 1_555 1_555
H3_2 C2_2 1_555 1_555
C3_2 C2_2 1_555 1_555
H4_2 C3_2 1_555 1_555
H5_2 C3_2 1_555 1_555
C6_2 C1_2 1_555 1_555
H9_2 C6_2 1_555 1_555
C8_2 C2_2 1_555 1_555
C9_2 C6_2 1_555 1_555
O4 C8_2 1_555 1_555
O5 C8_2 1_555 1_555
O13 C9_2 1_555 1_555
Tb4 O4 1_555 1_555
Tb3_2 O5 1_555 1_555
O5 Tb4 1_555 1_555
Tb4 O1_2 1_555 1_555
H6_2 C4_2 1_555 1_555
C5_2 C4_2 1_555 1_555
H7_2 C5_2 1_555 1_555
H8_2 C5_2 1_555 1_555
C7_2 C4_2 1_555 1_555
C10_2 H10_2 1_555 1_555
C11_2 H11 1_555 1_555
H12_2 C11_2 1_555 1_555
C12_2 H14_2 1_555 1_555
H15_2 C12_2 1_555 1_555
H16_2 C12_2 1_555 1_555
O1_2 C7_2 1_555 1_555
O2 Tb4 1_555 1_555
O3_2 Tb4 1_555 1_555
O8_2 Tb4 1_555 1_555
N1_2 C10_2 1_555 1_555
O11_2 Tb4 1_555 1_555
C7_2 O3_2 1_555 1_555
C10_2 O8_2 1_555 1_555
C11_2 N1_2 1_555 1_555
C12_2 N1_2 1_555 1_555
O2 H17_2 1_555 1_555
O2 H18 1_555 1_555
C10_3 H10_3 1_555 1_555
H12_3 C11_3 1_555 1_555
H13_2 C11_3 1_555 1_555
C12_3 H14_3 1_555 1_555
H15_3 C12_3 1_555 1_555
H16_3 C12_3 1_555 1_555
N1_3 C10_3 1_555 1_555
C11_3 N1_3 1_555 1_555
C12_3 N1_3 1_555 1_555
O3_3 Tb3 1_555 1_555
O8_3 Tb3 1_555 1_555
O12_2 Tb3 1_555 1_555
C7_3 O3_3 1_555 1_555
C1_3 H1_3 1_555 1_555
H2_3 C1_3 1_555 1_555
C2_3 C1_3 1_555 1_555
H3_3 C2_3 1_555 1_555
C3_3 C2_3 1_555 1_555
C4_3 C3_3 1_555 1_555
H6_3 C4_3 1_555 1_555
C5_3 C4_3 1_555 1_555
H7_3 C5_3 1_555 1_555
H8_3 C5_3 1_555 1_555
C6_3 C1_3 1_555 1_555
H9_3 C6_3 1_555 1_555
C8_3 C2_3 1_555 1_555
C9_3 C6_3 1_555 1_555
O11 C8_3 1_555 1_555
O6_2 C9_3 1_555 1_555
O7_2 C9_3 1_555 1_555
Tb3_2 O6_2 1_555 1_555
C5_3 C6_3 1_555 1_555
O7_2 Tb3_2 1_555 1_555
Tb3_2 O1_4 1_555 1_555
H6_4 C4_4 1_555 1_555
C5_4 C4_4 1_555 1_555
H7_4 C5_4 1_555 1_555
H8_4 C5_4 1_555 1_555
C7_4 C4_4 1_555 1_555
C10_4 H10_4 1_555 1_555
C11_4 H11_2 1_555 1_555
H12_4 C11_4 1_555 1_555
C12_4 H14_4 1_555 1_555
H15_4 C12_4 1_555 1_555
H16_4 C12_4 1_555 1_555
O1_4 C7_4 1_555 1_555
O2_2 Tb3_2 1_555 1_555
O3_4 Tb3_2 1_555 1_555
O8_4 Tb3_2 1_555 1_555
N1_4 C10_4 1_555 1_555
O9_2 Tb3_2 1_555 1_555
O11_2 Tb3_2 1_555 1_555
C7_4 O3_4 1_555 1_555
C10_4 O8_4 1_555 1_555
C11_4 N1_4 1_555 1_555
C12_4 N1_4 1_555 1_555
O2_2 H17_4 1_555 1_555
O2_2 H18_2 1_555 1_555
C1_4 H1_4 1_555 1_555
H2_4 C1_4 1_555 1_555
C2_4 C1_4 1_555 1_555
H3_4 C2_4 1_555 1_555
C3_4 C2_4 1_555 1_555
H4_4 C3_4 1_555 1_555
H5_4 C3_4 1_555 1_555
C6_4 C1_4 1_555 1_555
H9_4 C6_4 1_555 1_555
C8_4 C2_4 1_555 1_555
C9_4 C6_4 1_555 1_555
O9_2 C8_4 1_555 1_555
O11_2 C8_4 1_555 1_555
O13_2 C9_4 1_555 1_555
O2_3 H18_3 1_555 1_555
O2_4 H18_4 1_555 1_555

#END
