
###############################################################################
#
# This file contains modified crystal structure data generated from the
# MOF subset of the Cambridge Structural Database (CSD) v543 
# hosted by the Cambridge Crystallographic Data Centre (CCDC).
#
# This work is licensed under the Creative Commons
# Attribution-NonCommercial-ShareAlike 4.0 International License.
# To view a copy of this license, visit
# http://creativecommons.org/licenses/by-nc-sa/4.0/
# or send a letter to
# Creative Commons, PO Box 1866, Mountain View, CA 94042, USA.
#
# CIF created using the CSD Python API on 29 September 2022
# The structure has been converted into the P1 space group
# The structure has a 3D framework
# The original CSD entry COWMIL is in the monoclinic crystal system
# The framework has been calculated to contain at least 10.0% void space
# The void calculation uses a probe of radius 1.32A, grid spacing 0.4
# H atom positions have been added when not included in the experimental data
#
###############################################################################

data_COWMIL
_chemical_formula_moiety         '(C48 H72 Ho4 N4 O30)n'
_symmetry_cell_setting           triclinic
_symmetry_space_group_name_H-M   'P 1'
_symmetry_Int_Tables_number      1
_space_group_name_Hall           'P 1'
loop_
_symmetry_equiv_pos_site_id
_symmetry_equiv_pos_as_xyz
1 x,y,z
_cell_length_a                   9.5736(12)
_cell_length_b                   13.8317(17)
_cell_length_c                   15.3442(19)
_cell_angle_alpha                90
_cell_angle_beta                 93.436(2)
_cell_angle_gamma                90
_cell_volume                     2028.21
loop_
_atom_site_label
_atom_site_type_symbol
_atom_site_fract_x
_atom_site_fract_y
_atom_site_fract_z
C4 C 0.0921(5) 0.4425(4) 0.1271(4)
H6 H 0.0909 0.4023 0.0744
C5 C 0.1030(5) 0.3730(4) 0.2029(4)
H7 H 0.1048 0.4091 0.2572
H8 H 0.1899 0.3371 0.2017
C8 C 0.2189(5) 0.5086(4) 0.1225(3)
O4 O 0.3400(3) 0.4698(2) 0.1348(2)
O5 O 0.2056(3) 0.5947(3) 0.1011(2)
O6 O 0.0783(4) 0.1633(3) 0.2696(3)
Ho3 Ho 0.45730(2) 0.611338(18) 0.085611(17)
Ho4 Ho 0.04270(2) 0.111338(18) 0.414389(17)
C1 C 0.8402(5) 0.3577(4) 0.1941(4)
H1 H 0.7641 0.3115 0.1876
H2 H 0.8302 0.3931 0.2479
C2 C 0.8309(5) 0.4271(4) 0.1185(4)
H3 H 0.8358 0.3889 0.0650
C3 C 0.9537(5) 0.4961(4) 0.1225(4)
H4 H 0.9492 0.5372 0.1735
H5 H 0.9480 0.5372 0.0712
C6 C 0.9812(5) 0.3029(4) 0.1997(4)
H9 H 0.9857 0.2647 0.1462
C7 C 0.6932(5) 0.4816(4) 0.1120(4)
C9 C 0.9968(5) 0.2347(4) 0.2752(4)
O1 O 0.6056(3) 0.4628(2) 0.0485(2)
O3 O 0.6655(4) 0.5449(3) 0.1649(3)
O7 O 0.9349(4) 0.2489(3) 0.3428(3)
O8 O 0.3494(4) 0.7478(3) 0.0155(3)
O12 O 0.4217(4) 0.6633(3) 0.2304(3)
O13 O 0.5651(4) 0.7489(3) 0.1572(3)
C10 C 0.4002(7) 0.8158(5) 0.9801(5)
H10 H 0.4973 0.8176 0.9809
C11 C 0.1851(9) 0.8931(6) 0.9362(8)
H11 H 0.1479 0.8389 0.9663
H12 H 0.1505 0.8921 0.8762
H13 H 0.1567 0.9520 0.9630
C12 C 0.4040(11) 0.9662(7) 0.8972(8)
H14 H 0.5033 0.9560 0.9027
H16 H 0.3732 0.9675 0.8365
O2 O 0.6285(3) 0.6653(3) 0.9894(2)
N1 N 0.3334(7) 0.8875(5) 0.9407(4)
Ho2 Ho 0.54270(2) 0.388662(18) 0.914389(17)
O9 O 0.3944(3) 0.5372(2) 0.9515(2)
H17 H 0.616434 0.629778 0.933215
H18 H 0.616564 0.735677 0.978556
C10_2 C 0.0998(7) 0.3158(5) 0.5199(5)
H10_2 H 0.0027 0.3176 0.5191
C11_2 C 0.3149(9) 0.3931(6) 0.5638(8)
H11_2 H 0.3521 0.3389 0.5337
H12_2 H 0.3495 0.3921 0.6238
H13_2 H 0.3433 0.4520 0.5370
C12_2 C 0.0960(11) 0.4662(7) 0.6028(8)
H15 H 0.1182 0.5266 0.5762
H16_2 H 0.1268 0.4675 0.6635
O8_2 O 0.1506(4) 0.2478(3) 0.4845(3)
N1_2 N 0.1666(7) 0.3875(5) 0.5593(4)
O9_2 O 0.1056(3) 0.0372(2) 0.5485(2)
O11 O 0.2944(3) 0.0947(3) 0.3989(2)
O10 O 0.1600(3) 0.9698(2) 0.3652(2)
H4_2 H 0.5508 0.0372 0.3265
H5_2 H 0.5520 0.0372 0.4288
C8_2 C 0.2811(5) 0.0086(4) 0.3775(3)
H14_2 H 0.9967 0.4560 0.5973
O2_2 O 0.8715(3) 0.1653(3) 0.5106(2)
O3_2 O 0.8345(4) 0.0449(3) 0.3351(3)
H17_2 H 0.883566 0.129778 0.566785
H18_2 H 0.883436 0.235677 0.521444
C1_2 C 0.6598(5) 0.8577(4) 0.3059(4)
H1_2 H 0.7359 0.8115 0.3124
H2_2 H 0.6698 0.8931 0.2521
C2_2 C 0.6691(5) 0.9271(4) 0.3815(4)
H3_2 H 0.6642 0.8889 0.4350
C3_2 C 0.5463(5) 0.9961(4) 0.3775(4)
C4_2 C 0.4079(5) 0.9425(4) 0.3729(4)
H6_2 H 0.4091 0.9023 0.4256
C5_2 C 0.3970(5) 0.8730(4) 0.2971(4)
H7_2 H 0.3952 0.9091 0.2428
H8_2 H 0.3101 0.8371 0.2983
C6_2 C 0.5188(5) 0.8029(4) 0.3003(4)
H9_2 H 0.5143 0.7647 0.3538
C7_2 C 0.8068(5) 0.9816(4) 0.3880(4)
C9_2 C 0.5032(5) 0.7347(4) 0.2248(4)
O1_2 O 0.8944(3) 0.9628(2) 0.4515(2)
Ho2_2 Ho 0.95730(2) 0.888662(18) 0.585611(17)
C10_3 C 0.5998(7) 0.1842(5) 0.0199(5)
H10_3 H 0.5027 0.1824 0.0191
C11_3 C 0.8149(9) 0.1069(6) 0.0638(8)
H11_3 H 0.8521 0.1611 0.0337
H12_3 H 0.8495 0.1079 0.1238
H13_3 H 0.8433 0.0480 0.0370
C12_3 C 0.5960(11) 0.0338(7) 0.1028(8)
H14_3 H 0.4967 0.0440 0.0973
H16_3 H 0.6268 0.0325 0.1635
O2_3 O 0.3715(3) 0.3347(3) 0.0106(2)
N1_3 N 0.6666(7) 0.1125(5) 0.0593(4)
H17_3 H 0.383566 0.370222 0.0667851
H18_3 H 0.383436 0.264323 0.0214438
C1_3 C 0.1598(5) 0.6423(4) 0.8059(4)
H1_3 H 0.2359 0.6885 0.8124
H2_3 H 0.1698 0.6069 0.7521
C2_3 C 0.1691(5) 0.5729(4) 0.8815(4)
H3_3 H 0.1642 0.6111 0.9350
C3_3 C 0.0463(5) 0.5039(4) 0.8775(4)
H4_3 H 0.0508 0.4628 0.8265
H5_3 H 0.0520 0.4628 0.9288
C6_3 C 0.0188(5) 0.6971(4) 0.8003(4)
H9_3 H 0.0143 0.7353 0.8538
C7_3 C 0.3068(5) 0.5184(4) 0.8880(4)
C9_3 C 0.0032(5) 0.7653(4) 0.7248(4)
O3_3 O 0.3345(4) 0.4551(3) 0.8351(3)
O7_2 O 0.0651(4) 0.7511(3) 0.6572(3)
O8_3 O 0.6506(4) 0.2522(3) 0.9845(3)
O10_2 O 0.6600(3) 0.5302(2) 0.8652(2)
O11_2 O 0.7944(3) 0.4053(3) 0.8989(2)
O12_2 O 0.5783(4) 0.3367(3) 0.7696(3)
O13_2 O 0.4349(4) 0.2511(3) 0.8428(3)
C4_3 C 0.9079(5) 0.5575(4) 0.8729(4)
H6_3 H 0.9091 0.5977 0.9256
C5_3 C 0.8970(5) 0.6270(4) 0.7971(4)
H7_3 H 0.8952 0.5909 0.7428
H8_3 H 0.8101 0.6629 0.7983
C8_3 C 0.7811(5) 0.4914(4) 0.8775(3)
O6_2 O 0.9217(4) 0.8367(3) 0.7304(3)
C1_4 C 0.3402(5) 0.1423(4) 0.6941(4)
H1_4 H 0.2641 0.1885 0.6876
H2_4 H 0.3302 0.1069 0.7479
C2_4 C 0.3309(5) 0.0729(4) 0.6185(4)
H3_4 H 0.3358 0.1111 0.5650
C3_4 C 0.4537(5) 0.0039(4) 0.6225(4)
C4_4 C 0.5921(5) 0.0575(4) 0.6271(4)
H6_4 H 0.5909 0.0977 0.5744
C5_4 C 0.6030(5) 0.1270(4) 0.7029(4)
H7_4 H 0.6048 0.0909 0.7572
H8_4 H 0.6899 0.1629 0.7017
C6_4 C 0.4812(5) 0.1971(4) 0.6997(4)
H9_4 H 0.4857 0.2353 0.6462
C7_4 C 0.1932(5) 0.0184(4) 0.6120(4)
C9_4 C 0.4968(5) 0.2653(4) 0.7752(4)
O4_2 O 0.8400(3) 0.0302(2) 0.6348(2)
H4_4 H 0.4492 0.9628 0.6735
H5_4 H 0.4480 0.9628 0.5712
C8_4 C 0.7189(5) 0.9914(4) 0.6225(3)
H14_4 H 0.0033 0.5440 0.4027
O2_4 O 0.1285(3) 0.8347(3) 0.4894(2)
O3_4 O 0.1655(4) 0.9551(3) 0.6649(3)
O5_2 O 0.7056(3) 0.9053(3) 0.6011(2)
H17_4 H 0.116434 0.870222 0.433215
H18_4 H 0.116564 0.764323 0.478556
C10_4 C 0.9002(7) 0.6842(5) 0.4801(5)
H10_4 H 0.9973 0.6824 0.4809
C11_4 C 0.6851(9) 0.6069(6) 0.4362(8)
H11_4 H 0.6479 0.6611 0.4663
H12_4 H 0.6505 0.6079 0.3762
H13_4 H 0.6567 0.5480 0.4630
C12_4 C 0.9040(11) 0.5338(7) 0.3972(8)
H15_2 H 0.8818 0.4734 0.4238
H16_4 H 0.8732 0.5325 0.3365
O8_4 O 0.8494(4) 0.7522(3) 0.5155(3)
N1_4 N 0.8334(7) 0.6125(5) 0.4407(4)
H15_3 H 0.3818 0.0266 0.9238
H15_4 H 0.6182 0.9734 0.0762
loop_
_geom_bond_atom_site_label_1
_geom_bond_atom_site_label_2
_geom_bond_site_symmetry_1
_geom_bond_site_symmetry_2
H6 C4 1_555 1_555
C5 C4 1_555 1_555
H7 C5 1_555 1_555
H8 C5 1_555 1_555
C8 C4 1_555 1_555
O4 C8 1_555 1_555
O5 C8 1_555 1_555
Ho3 O4 1_555 1_555
Ho4 O6 1_555 1_555
O5 Ho3 1_555 1_555
Ho3 O1 1_555 1_555
C1 H1 1_555 1_555
H2 C1 1_555 1_555
C2 C1 1_555 1_555
H3 C2 1_555 1_555
C3 C2 1_555 1_555
H4 C3 1_555 1_555
H5 C3 1_555 1_555
C6 C1 1_555 1_555
H9 C6 1_555 1_555
C7 C2 1_555 1_555
C9 C6 1_555 1_555
O1 C7 1_555 1_555
O3 Ho3 1_555 1_555
O7 C9 1_555 1_555
O8 Ho3 1_555 1_555
O12 Ho3 1_555 1_555
O13 Ho3 1_555 1_555
C7 O3 1_555 1_555
C10 H10 1_555 1_555
C11 H11 1_555 1_555
H12 C11 1_555 1_555
H13 C11 1_555 1_555
C12 H14 1_555 1_555
H16 C12 1_555 1_555
N1 C10 1_555 1_555
C11 N1 1_555 1_555
C12 N1 1_555 1_555
Ho2 O9 1_555 1_555
O2 H17 1_555 1_555
O2 H18 1_555 1_555
C10_2 H10_2 1_555 1_555
C11_2 H11_2 1_555 1_555
H12_2 C11_2 1_555 1_555
H13_2 C11_2 1_555 1_555
H15 C12_2 1_555 1_555
H16_2 C12_2 1_555 1_555
O8_2 Ho4 1_555 1_555
N1_2 C10_2 1_555 1_555
O9_2 Ho4 1_555 1_555
O11 Ho4 1_555 1_555
C10_2 O8_2 1_555 1_555
C11_2 N1_2 1_555 1_555
C12_2 N1_2 1_555 1_555
O11 C8_2 1_555 1_555
O2_2 H17_2 1_555 1_555
O2_2 H18_2 1_555 1_555
C1_2 H1_2 1_555 1_555
H2_2 C1_2 1_555 1_555
C2_2 C1_2 1_555 1_555
H3_2 C2_2 1_555 1_555
C3_2 C2_2 1_555 1_555
C4_2 C3_2 1_555 1_555
H6_2 C4_2 1_555 1_555
C5_2 C4_2 1_555 1_555
H7_2 C5_2 1_555 1_555
H8_2 C5_2 1_555 1_555
C6_2 C1_2 1_555 1_555
H9_2 C6_2 1_555 1_555
C7_2 C2_2 1_555 1_555
C9_2 C6_2 1_555 1_555
O1_2 C7_2 1_555 1_555
O12 C9_2 1_555 1_555
O13 C9_2 1_555 1_555
Ho2_2 O1_2 1_555 1_555
C5_2 C6_2 1_555 1_555
C10_3 H10_3 1_555 1_555
C11_3 H11_3 1_555 1_555
H12_3 C11_3 1_555 1_555
H13_3 C11_3 1_555 1_555
C12_3 H14_3 1_555 1_555
H16_3 C12_3 1_555 1_555
N1_3 C10_3 1_555 1_555
C11_3 N1_3 1_555 1_555
C12_3 N1_3 1_555 1_555
O2_3 H17_3 1_555 1_555
O2_3 H18_3 1_555 1_555
C1_3 H1_3 1_555 1_555
H2_3 C1_3 1_555 1_555
C2_3 C1_3 1_555 1_555
H3_3 C2_3 1_555 1_555
C3_3 C2_3 1_555 1_555
H4_3 C3_3 1_555 1_555
H5_3 C3_3 1_555 1_555
C6_3 C1_3 1_555 1_555
H9_3 C6_3 1_555 1_555
C7_3 C2_3 1_555 1_555
C9_3 C6_3 1_555 1_555
O9 C7_3 1_555 1_555
O3_3 Ho2 1_555 1_555
O7_2 C9_3 1_555 1_555
O8_3 Ho2 1_555 1_555
O10_2 Ho2 1_555 1_555
O11_2 Ho2 1_555 1_555
O12_2 Ho2 1_555 1_555
O13_2 Ho2 1_555 1_555
C7_3 O3_3 1_555 1_555
H6_3 C4_3 1_555 1_555
C5_3 C4_3 1_555 1_555
H7_3 C5_3 1_555 1_555
H8_3 C5_3 1_555 1_555
C8_3 C4_3 1_555 1_555
O10_2 C8_3 1_555 1_555
O11_2 C8_3 1_555 1_555
Ho2_2 O6_2 1_555 1_555
C1_4 H1_4 1_555 1_555
H2_4 C1_4 1_555 1_555
C2_4 C1_4 1_555 1_555
H3_4 C2_4 1_555 1_555
C3_4 C2_4 1_555 1_555
C4_4 C3_4 1_555 1_555
H6_4 C4_4 1_555 1_555
C5_4 C4_4 1_555 1_555
H7_4 C5_4 1_555 1_555
H8_4 C5_4 1_555 1_555
C6_4 C1_4 1_555 1_555
H9_4 C6_4 1_555 1_555
C7_4 C2_4 1_555 1_555
C9_4 C6_4 1_555 1_555
O9_2 C7_4 1_555 1_555
O12_2 C9_4 1_555 1_555
O13_2 C9_4 1_555 1_555
C5_4 C6_4 1_555 1_555
O5_2 C8_4 1_555 1_555
O5_2 Ho2_2 1_555 1_555
O2_4 H17_4 1_555 1_555
O2_4 H18_4 1_555 1_555
C10_4 H10_4 1_555 1_555
C11_4 H11_4 1_555 1_555
H12_4 C11_4 1_555 1_555
H13_4 C11_4 1_555 1_555
H15_2 C12_4 1_555 1_555
H16_4 C12_4 1_555 1_555
O8_4 Ho2_2 1_555 1_555
N1_4 C10_4 1_555 1_555
C10_4 O8_4 1_555 1_555
C11_4 N1_4 1_555 1_555
C12_4 N1_4 1_555 1_555

#END
