
###############################################################################
#
# This file contains modified crystal structure data generated from the
# MOF subset of the Cambridge Structural Database (CSD) v543 
# hosted by the Cambridge Crystallographic Data Centre (CCDC).
#
# This work is licensed under the Creative Commons
# Attribution-NonCommercial-ShareAlike 4.0 International License.
# To view a copy of this license, visit
# http://creativecommons.org/licenses/by-nc-sa/4.0/
# or send a letter to
# Creative Commons, PO Box 1866, Mountain View, CA 94042, USA.
#
# CIF created using the CSD Python API on 29 September 2022
# The structure has been converted into the P1 space group
# The structure has a 3D framework
# The original CSD entry COWPOU is in the monoclinic crystal system
# The framework has been calculated to contain at least 10.0% void space
# The void calculation uses a probe of radius 1.32A, grid spacing 0.4
#
###############################################################################

data_COWPOU
_chemical_formula_moiety         '(C160 H104 N8 O32 Zn6)n'
_symmetry_cell_setting           triclinic
_symmetry_space_group_name_H-M   'P 1'
_symmetry_Int_Tables_number      1
_space_group_name_Hall           'P 1'
loop_
_symmetry_equiv_pos_site_id
_symmetry_equiv_pos_as_xyz
1 x,y,z
_cell_length_a                   26.1377(16)
_cell_length_b                   6.7464(4)
_cell_length_c                   25.0235(15)
_cell_angle_alpha                90
_cell_angle_beta                 105.916(1)
_cell_angle_gamma                90
_cell_volume                     4243.37
loop_
_atom_site_label
_atom_site_type_symbol
_atom_site_fract_x
_atom_site_fract_y
_atom_site_fract_z
O9 O 0.00342(8) 0.2482(3) 0.47806(8)
O8 O 0.00342(8) 0.7518(3) 0.97806(8)
O1 O 0.08056(10) 0.0527(3) 0.59941(9)
O4 O 0.07034(9) 0.9461(3) 0.97166(9)
C1 C 0.08559(12) 0.0659(4) 0.69480(12)
C2 C 0.09744(14) 0.2649(5) 0.69842(13)
H1 H 0.1068 0.3272 0.6693
C3 C 0.09558(15) 0.3733(5) 0.74446(13)
H2 H 0.1043 0.5072 0.7462
C4 C 0.08096(12) 0.2870(5) 0.78830(12)
C5 C 0.06949(14) 0.0848(5) 0.78470(13)
H3 H 0.0598 0.0222 0.8136
C8 C 0.07485(13) 0.4083(4) 0.83592(12)
C9 C 0.10486(13) 0.5787(5) 0.85269(13)
H5 H 0.1318 0.6112 0.8365
C10 C 0.09498(12) 0.7004(5) 0.89324(12)
H6 H 0.1153 0.8141 0.9040
C11 C 0.05512(11) 0.6549(4) 0.91811(11)
C12 C 0.02681(13) 0.4804(5) 0.90328(14)
H7 H 0.0007 0.4456 0.9204
C13 C 0.03697(13) 0.3586(5) 0.86349(14)
H8 H 0.0182 0.2405 0.8547
C14 C 0.04174(11) 0.7931(4) 0.95843(11)
O5 O 0.08056(10) 0.9473(3) 0.09941(9)
O10 O 0.07034(9) 0.0539(3) 0.47166(9)
C21 C 0.08559(12) 0.9341(4) 0.19480(12)
C22 C 0.09744(14) 0.7351(5) 0.19842(13)
H14 H 0.1068 0.6728 0.1693
C23 C 0.09558(15) 0.6267(5) 0.24446(13)
H15 H 0.1043 0.4928 0.2462
C24 C 0.08096(12) 0.7130(5) 0.28830(12)
C25 C 0.06949(14) 0.9152(5) 0.28470(13)
H16 H 0.0598 0.9778 0.3136
C28 C 0.07485(13) 0.5917(4) 0.33592(12)
C29 C 0.10486(13) 0.4213(5) 0.35269(13)
H18 H 0.1318 0.3888 0.3365
C30 C 0.09498(12) 0.2996(5) 0.39324(12)
H19 H 0.1153 0.1859 0.4040
C31 C 0.05512(11) 0.3451(4) 0.41811(11)
C32 C 0.02681(13) 0.5196(5) 0.40328(14)
H20 H 0.0007 0.5544 0.4204
C33 C 0.03697(13) 0.6414(5) 0.36349(14)
H21 H 0.0182 0.7595 0.3547
C34 C 0.04174(11) 0.2069(4) 0.45843(11)
Zn6 Zn 0.065034(13) 0.11445(5) 0.034244(13)
Zn3 Zn 0.065034(13) 0.88555(5) 0.534244(13)
N2 N 0.11893(9) 0.3210(3) 0.02760(10)
C37 C 0.19498(12) 0.6002(5) 0.01948(13)
C38 C 0.16072(12) 0.6326(5) 0.05254(13)
H24 H 0.1629 0.7497 0.0726
C39 C 0.12399(13) 0.4922(4) 0.05540(13)
H25 H 0.1015 0.5168 0.0777
C40 C 0.23419(13) 0.7528(5) 0.01640(15)
H26 H 0.2369 0.8624 0.0395
O6 O 0.08456(11) 0.2323(3) 0.14411(10)
C26 C 0.07224(14) 0.0236(5) 0.23888(13)
H17 H 0.0650 0.1588 0.2376
C27 C 0.08377(13) 0.0504(5) 0.14310(13)
O2 O 0.08456(11) 0.7677(3) 0.64411(10)
C6 C 0.07224(14) 0.9764(5) 0.73888(13)
H4 H 0.0650 0.8412 0.7376
C7 C 0.08377(13) 0.9496(5) 0.64310(13)
N1 N 0.11893(9) 0.6790(3) 0.52760(10)
C15 C 0.15104(13) 0.7095(5) 0.49481(14)
H9 H 0.1475 0.8267 0.4746
C16 C 0.18881(13) 0.5757(5) 0.48982(14)
H10 H 0.2103 0.6027 0.4666
C17 C 0.19498(12) 0.3998(5) 0.51948(13)
C18 C 0.16072(12) 0.3674(5) 0.55254(13)
H11 H 0.1629 0.2503 0.5726
C19 C 0.12399(13) 0.5078(4) 0.55540(13)
H12 H 0.1015 0.4832 0.5777
C20 C 0.23419(13) 0.2472(5) 0.51640(15)
H13 H 0.2369 0.1376 0.5395
C37_2 C 0.30502(12) 0.1002(5) 0.48052(13)
C38_2 C 0.33928(12) 0.1326(5) 0.44746(13)
H24_2 H 0.3371 0.2497 0.4274
H25_2 H 0.3985 0.0168 0.4223
C40_2 C 0.26581(13) 0.2528(5) 0.48360(15)
H26_2 H 0.2631 0.3624 0.4605
Zn2 Zn 0.934966(13) 0.11445(5) 0.465756(13)
O6_2 O 0.91544(11) 0.2323(3) 0.35589(10)
C26_2 C 0.92776(14) 0.0236(5) 0.26112(13)
H17_2 H 0.9350 0.1588 0.2624
C27_2 C 0.91623(13) 0.0504(5) 0.35690(13)
N3 N 0.88107(9) 0.3210(3) 0.47240(10)
Zn1 Zn 0.934966(13) 0.88555(5) 0.965756(13)
O2_2 O 0.91544(11) 0.7677(3) 0.85589(10)
C6_2 C 0.92776(14) 0.9764(5) 0.76112(13)
H4_2 H 0.9350 0.8412 0.7624
C7_2 C 0.91623(13) 0.9496(5) 0.85690(13)
N1_2 N 0.88107(9) 0.6790(3) 0.97240(10)
C17_2 C 0.80502(12) 0.3998(5) 0.98052(13)
C18_2 C 0.83928(12) 0.3674(5) 0.94746(13)
H11_2 H 0.8371 0.2503 0.9274
C19_2 C 0.87601(13) 0.5078(4) 0.94460(13)
H12_2 H 0.8985 0.4832 0.9223
C20_2 C 0.76581(13) 0.2472(5) 0.98360(15)
H13_2 H 0.7631 0.1376 0.9605
C17_3 C 0.69498(12) 0.8998(5) 0.51948(13)
C18_3 C 0.66072(12) 0.8674(5) 0.55254(13)
H11_3 H 0.6629 0.7503 0.5726
H12_3 H 0.6015 0.9832 0.5777
C20_3 C 0.73419(13) 0.7472(5) 0.51640(15)
H13_3 H 0.7369 0.6376 0.5395
C35 C 0.84896(13) 0.2905(5) 0.50519(14)
H22 H 0.8525 0.1733 0.5254
C36 C 0.81119(13) 0.4243(5) 0.51018(14)
H23 H 0.7897 0.3973 0.5334
C37_3 C 0.80502(12) 0.6002(5) 0.48052(13)
C38_3 C 0.83928(12) 0.6326(5) 0.44746(13)
H24_3 H 0.8371 0.7497 0.4274
C39_2 C 0.87601(13) 0.4922(4) 0.44460(13)
H25_3 H 0.8985 0.5168 0.4223
C40_3 C 0.76581(13) 0.7528(5) 0.48360(15)
H26_3 H 0.7631 0.8624 0.4605
O5_2 O 0.91944(10) 0.9473(3) 0.40059(9)
O7 O 0.99658(8) 0.2482(3) 0.02194(8)
O10_2 O 0.92966(9) 0.0539(3) 0.02834(9)
O11 O 0.92966(9) 0.9461(3) 0.52834(9)
C21_2 C 0.91441(12) 0.9341(4) 0.30520(12)
C22_2 C 0.90256(14) 0.7351(5) 0.30158(13)
H14_2 H 0.8932 0.6728 0.3307
C23_2 C 0.90442(15) 0.6267(5) 0.25554(13)
H15_2 H 0.8957 0.4928 0.2538
C24_2 C 0.91904(12) 0.7130(5) 0.21170(12)
C25_2 C 0.93051(14) 0.9152(5) 0.21530(13)
H16_2 H 0.9402 0.9778 0.1864
C28_2 C 0.92515(13) 0.5917(4) 0.16408(12)
C29_2 C 0.89514(13) 0.4213(5) 0.14731(13)
H18_2 H 0.8682 0.3888 0.1635
C30_2 C 0.90502(12) 0.2996(5) 0.10676(12)
H19_2 H 0.8847 0.1859 0.0960
C31_2 C 0.94488(11) 0.3451(4) 0.08189(11)
C32_2 C 0.97319(13) 0.5196(5) 0.09672(14)
H20_2 H 0.9993 0.5544 0.0796
C33_2 C 0.96303(13) 0.6414(5) 0.13651(14)
H21_2 H 0.9818 0.7595 0.1453
C34_2 C 0.95826(11) 0.2069(4) 0.04157(11)
O1_2 O 0.91944(10) 0.0527(3) 0.90059(9)
O3 O 0.99658(8) 0.7518(3) 0.52194(8)
C1_2 C 0.91441(12) 0.0659(4) 0.80520(12)
C2_2 C 0.90256(14) 0.2649(5) 0.80158(13)
H1_2 H 0.8932 0.3272 0.8307
C3_2 C 0.90442(15) 0.3733(5) 0.75554(13)
H2_2 H 0.8957 0.5072 0.7538
C4_2 C 0.91904(12) 0.2870(5) 0.71170(12)
C5_2 C 0.93051(14) 0.0848(5) 0.71530(13)
H3_2 H 0.9402 0.0222 0.6864
C8_2 C 0.92515(13) 0.4083(4) 0.66408(12)
C9_2 C 0.89514(13) 0.5787(5) 0.64731(13)
H5_2 H 0.8682 0.6112 0.6635
C10_2 C 0.90502(12) 0.7004(5) 0.60676(12)
H6_2 H 0.8847 0.8141 0.5960
C11_2 C 0.94488(11) 0.6549(4) 0.58189(11)
C12_2 C 0.97319(13) 0.4804(5) 0.59672(14)
H7_2 H 0.9993 0.4456 0.5796
C13_2 C 0.96303(13) 0.3586(5) 0.63651(14)
H8_2 H 0.9818 0.2405 0.6453
C14_2 C 0.95826(11) 0.7931(4) 0.54157(11)
C15_2 C 0.84896(13) 0.7095(5) 0.00519(14)
H9_2 H 0.8525 0.8267 0.0254
C16_2 C 0.81119(13) 0.5757(5) 0.01018(14)
H10_2 H 0.7897 0.6027 0.0334
C37_4 C 0.69498(12) 0.1002(5) 0.01948(13)
C38_4 C 0.66072(12) 0.1326(5) 0.05254(13)
H24_4 H 0.6629 0.2497 0.0726
H25_4 H 0.6015 0.0168 0.0777
C40_4 C 0.73419(13) 0.2528(5) 0.01640(15)
H26_4 H 0.7369 0.3624 0.0395
Zn5 Zn 0.565034(13) 0.61445(5) 0.034244(13)
N2_2 N 0.61893(9) 0.8210(3) 0.02760(10)
C39_3 C 0.62399(13) 0.9922(4) 0.05540(13)
C35_2 C 0.65104(13) 0.7905(5) 0.99481(14)
H22_2 H 0.6475 0.6733 0.9746
C36_2 C 0.68881(13) 0.9243(5) 0.98982(14)
H23_2 H 0.7103 0.8973 0.9666
C15_3 C 0.34896(13) 0.2095(5) 0.00519(14)
H9_3 H 0.3525 0.3267 0.0254
C16_3 C 0.31119(13) 0.0757(5) 0.01018(14)
H10_3 H 0.2897 0.1027 0.0334
O7_2 O 0.49658(8) 0.7482(3) 0.02194(8)
O10_3 O 0.42966(9) 0.5539(3) 0.02834(9)
H15_3 H 0.3957 0.9928 0.2538
C29_3 C 0.39514(13) 0.9213(5) 0.14731(13)
H18_3 H 0.3682 0.8888 0.1635
C30_3 C 0.40502(12) 0.7996(5) 0.10676(12)
H19_3 H 0.3847 0.6859 0.0960
C31_3 C 0.44488(11) 0.8451(4) 0.08189(11)
C34_3 C 0.45826(11) 0.7069(4) 0.04157(11)
Zn1_2 Zn 0.434966(13) 0.38555(5) 0.965756(13)
O1_3 O 0.41944(10) 0.5527(3) 0.90059(9)
O2_3 O 0.41544(11) 0.2677(3) 0.85589(10)
C1_3 C 0.41441(12) 0.5659(4) 0.80520(12)
C2_3 C 0.40256(14) 0.7649(5) 0.80158(13)
H1_3 H 0.3932 0.8272 0.8307
C3_3 C 0.40442(15) 0.8733(5) 0.75554(13)
C4_3 C 0.41904(12) 0.7870(5) 0.71170(12)
C5_3 C 0.43051(14) 0.5848(5) 0.71530(13)
H3_3 H 0.4402 0.5222 0.6864
C6_3 C 0.42776(14) 0.4764(5) 0.76112(13)
H4_3 H 0.4350 0.3412 0.7624
C7_3 C 0.41623(13) 0.4496(5) 0.85690(13)
C8_3 C 0.42515(13) 0.9083(4) 0.66408(12)
C12_3 C 0.47319(13) 0.9804(5) 0.59672(14)
H7_3 H 0.4993 0.9456 0.5796
C13_3 C 0.46303(13) 0.8586(5) 0.63651(14)
H8_3 H 0.4818 0.7405 0.6453
N1_3 N 0.38107(9) 0.1790(3) 0.97240(10)
C19_3 C 0.37601(13) 0.0078(4) 0.94460(13)
O8_2 O 0.50342(8) 0.2518(3) 0.97806(8)
O4_2 O 0.57034(9) 0.4461(3) 0.97166(9)
H2_3 H 0.6043 0.0072 0.7462
C9_3 C 0.60486(13) 0.0787(5) 0.85269(13)
H5_3 H 0.6318 0.1112 0.8365
C10_3 C 0.59498(12) 0.2004(5) 0.89324(12)
H6_3 H 0.6153 0.3141 0.9040
C11_3 C 0.55512(11) 0.1549(4) 0.91811(11)
C14_3 C 0.54174(11) 0.2931(4) 0.95843(11)
O5_3 O 0.58056(10) 0.4473(3) 0.09941(9)
O6_3 O 0.58456(11) 0.7323(3) 0.14411(10)
C21_3 C 0.58559(12) 0.4341(4) 0.19480(12)
C22_3 C 0.59744(14) 0.2351(5) 0.19842(13)
H14_3 H 0.6068 0.1728 0.1693
C23_3 C 0.59558(15) 0.1267(5) 0.24446(13)
C24_3 C 0.58096(12) 0.2130(5) 0.28830(12)
C25_3 C 0.56949(14) 0.4152(5) 0.28470(13)
H16_3 H 0.5598 0.4778 0.3136
C26_3 C 0.57224(14) 0.5236(5) 0.23888(13)
H17_3 H 0.5650 0.6588 0.2376
C27_3 C 0.58377(13) 0.5504(5) 0.14310(13)
C28_3 C 0.57485(13) 0.0917(4) 0.33592(12)
C32_3 C 0.52681(13) 0.0196(5) 0.40328(14)
H20_3 H 0.5007 0.0544 0.4204
C33_3 C 0.53697(13) 0.1414(5) 0.36349(14)
H21_3 H 0.5182 0.2595 0.3547
Zn2_2 Zn 0.434966(13) 0.61445(5) 0.465756(13)
O5_4 O 0.41944(10) 0.4473(3) 0.40059(9)
O6_4 O 0.41544(11) 0.7323(3) 0.35589(10)
O9_2 O 0.50342(8) 0.7482(3) 0.47806(8)
O11_2 O 0.42966(9) 0.4461(3) 0.52834(9)
C21_4 C 0.41441(12) 0.4341(4) 0.30520(12)
C22_4 C 0.40256(14) 0.2351(5) 0.30158(13)
H14_4 H 0.3932 0.1728 0.3307
C23_4 C 0.40442(15) 0.1267(5) 0.25554(13)
C24_4 C 0.41904(12) 0.2130(5) 0.21170(12)
C25_4 C 0.43051(14) 0.4152(5) 0.21530(13)
H16_4 H 0.4402 0.4778 0.1864
C26_4 C 0.42776(14) 0.5236(5) 0.26112(13)
H17_4 H 0.4350 0.6588 0.2624
C27_4 C 0.41623(13) 0.5504(5) 0.35690(13)
C28_4 C 0.42515(13) 0.0917(4) 0.16408(12)
C32_4 C 0.47319(13) 0.0196(5) 0.09672(14)
H20_4 H 0.4993 0.0544 0.0796
C33_4 C 0.46303(13) 0.1414(5) 0.13651(14)
H21_4 H 0.4818 0.2595 0.1453
N3_2 N 0.38107(9) 0.8210(3) 0.47240(10)
O3_2 O 0.49658(8) 0.2518(3) 0.52194(8)
H2_4 H 0.3957 0.0072 0.7538
C9_4 C 0.39514(13) 0.0787(5) 0.64731(13)
H5_4 H 0.3682 0.1112 0.6635
C10_4 C 0.40502(12) 0.2004(5) 0.60676(12)
H6_4 H 0.3847 0.3141 0.5960
C11_4 C 0.44488(11) 0.1549(4) 0.58189(11)
C14_4 C 0.45826(11) 0.2931(4) 0.54157(11)
Zn3_2 Zn 0.565034(13) 0.38555(5) 0.534244(13)
C35_3 C 0.34896(13) 0.7905(5) 0.50519(14)
H22_3 H 0.3525 0.6733 0.5254
C36_3 C 0.31119(13) 0.9243(5) 0.51018(14)
H23_3 H 0.2897 0.8973 0.5334
C39_4 C 0.37601(13) 0.9922(4) 0.44460(13)
O1_4 O 0.58056(10) 0.5527(3) 0.59941(9)
O2_4 O 0.58456(11) 0.2677(3) 0.64411(10)
C1_4 C 0.58559(12) 0.5659(4) 0.69480(12)
C2_4 C 0.59744(14) 0.7649(5) 0.69842(13)
H1_4 H 0.6068 0.8272 0.6693
C3_4 C 0.59558(15) 0.8733(5) 0.74446(13)
C4_4 C 0.58096(12) 0.7870(5) 0.78830(12)
C5_4 C 0.56949(14) 0.5848(5) 0.78470(13)
H3_4 H 0.5598 0.5222 0.8136
C6_4 C 0.57224(14) 0.4764(5) 0.73888(13)
H4_4 H 0.5650 0.3412 0.7376
C7_4 C 0.58377(13) 0.4496(5) 0.64310(13)
C8_4 C 0.57485(13) 0.9083(4) 0.83592(12)
C12_4 C 0.52681(13) 0.9804(5) 0.90328(14)
H7_4 H 0.5007 0.9456 0.9204
C13_4 C 0.53697(13) 0.8586(5) 0.86349(14)
H8_4 H 0.5182 0.7405 0.8547
N1_4 N 0.61893(9) 0.1790(3) 0.52760(10)
C15_4 C 0.65104(13) 0.2095(5) 0.49481(14)
H9_4 H 0.6475 0.3267 0.4746
C16_4 C 0.68881(13) 0.0757(5) 0.48982(14)
H10_4 H 0.7103 0.1027 0.4666
C19_4 C 0.62399(13) 0.0078(4) 0.55540(13)
O10_4 O 0.57034(9) 0.5539(3) 0.47166(9)
H15_4 H 0.6043 0.9928 0.2462
C29_4 C 0.60486(13) 0.9213(5) 0.35269(13)
H18_4 H 0.6318 0.8888 0.3365
C30_4 C 0.59498(12) 0.7996(5) 0.39324(12)
H19_4 H 0.6153 0.6859 0.4040
C31_4 C 0.55512(11) 0.8451(4) 0.41811(11)
C34_4 C 0.54174(11) 0.7069(4) 0.45843(11)
C17_4 C 0.30502(12) 0.8998(5) 0.98052(13)
C18_4 C 0.33928(12) 0.8674(5) 0.94746(13)
H11_4 H 0.3371 0.7503 0.9274
H12_4 H 0.3985 0.9832 0.9223
C20_4 C 0.26581(13) 0.7472(5) 0.98360(15)
H13_4 H 0.2631 0.6376 0.9605
C35_4 C 0.15104(13) 0.2905(5) 0.99481(14)
H22_4 H 0.1475 0.1733 0.9746
C36_4 C 0.18881(13) 0.4243(5) 0.98982(14)
H23_4 H 0.2103 0.3973 0.9666
loop_
_geom_bond_atom_site_label_1
_geom_bond_atom_site_label_2
_geom_bond_site_symmetry_1
_geom_bond_site_symmetry_2
O8 C14 1_555 1_555
O4 C14 1_555 1_555
C1 C2 1_555 1_555
C2 H1 1_555 1_555
C3 C2 1_555 1_555
H2 C3 1_555 1_555
C4 C3 1_555 1_555
C5 C4 1_555 1_555
H3 C5 1_555 1_555
C8 C4 1_555 1_555
C9 C8 1_555 1_555
H5 C9 1_555 1_555
C10 C9 1_555 1_555
H6 C10 1_555 1_555
C11 C10 1_555 1_555
C12 C11 1_555 1_555
H7 C12 1_555 1_555
C13 C8 1_555 1_555
H8 C13 1_555 1_555
C14 C11 1_555 1_555
O9 C34 1_555 1_555
C21 C22 1_555 1_555
C22 H14 1_555 1_555
C23 C22 1_555 1_555
H15 C23 1_555 1_555
C24 C23 1_555 1_555
C25 C24 1_555 1_555
H16 C25 1_555 1_555
C28 C24 1_555 1_555
C29 C28 1_555 1_555
H18 C29 1_555 1_555
C30 C29 1_555 1_555
H19 C30 1_555 1_555
C31 C30 1_555 1_555
C32 C31 1_555 1_555
H20 C32 1_555 1_555
C33 C28 1_555 1_555
H21 C33 1_555 1_555
C34 O10 1_555 1_555
C12 C13 1_555 1_555
C31 C34 1_555 1_555
C32 C33 1_555 1_555
Zn6 N2 1_555 1_555
C38 C37 1_555 1_555
H24 C38 1_555 1_555
C39 N2 1_555 1_555
H25 C39 1_555 1_555
H26 C40 1_555 1_555
C37 C40 1_555 1_555
C38 C39 1_555 1_555
O6 C27 1_555 1_555
H17 C26 1_555 1_555
O2 C7 1_555 1_555
H4 C6 1_555 1_555
N1 Zn3 1_555 1_555
C15 N1 1_555 1_555
H9 C15 1_555 1_555
C16 C15 1_555 1_555
H10 C16 1_555 1_555
C17 C16 1_555 1_555
C18 C17 1_555 1_555
H11 C18 1_555 1_555
C19 N1 1_555 1_555
H12 C19 1_555 1_555
C20 C17 1_555 1_555
H13 C20 1_555 1_555
C38_2 C37_2 1_555 1_555
H24_2 C38_2 1_555 1_555
C40_2 C20 1_555 1_555
H26_2 C40_2 1_555 1_555
C18 C19 1_555 1_555
C37_2 C40_2 1_555 1_555
O6_2 C27_2 1_555 1_555
H17_2 C26_2 1_555 1_555
N3 Zn2 1_555 1_555
O2_2 C7_2 1_555 1_555
H4_2 C6_2 1_555 1_555
N1_2 Zn1 1_555 1_555
C18_2 C17_2 1_555 1_555
H11_2 C18_2 1_555 1_555
C19_2 N1_2 1_555 1_555
H12_2 C19_2 1_555 1_555
C20_2 C17_2 1_555 1_555
H13_2 C20_2 1_555 1_555
C18_2 C19_2 1_555 1_555
C18_3 C17_3 1_555 1_555
H11_3 C18_3 1_555 1_555
C20_3 C17_3 1_555 1_555
H13_3 C20_3 1_555 1_555
N3 C35 1_555 1_555
C35 H22 1_555 1_555
C36 C35 1_555 1_555
H23 C36 1_555 1_555
C37_3 C36 1_555 1_555
C38_3 C37_3 1_555 1_555
H24_3 C38_3 1_555 1_555
C39_2 N3 1_555 1_555
H25_3 C39_2 1_555 1_555
C40_3 C20_3 1_555 1_555
H26_3 C40_3 1_555 1_555
C37_3 C40_3 1_555 1_555
C38_3 C39_2 1_555 1_555
O7 C34_2 1_555 1_555
C21_2 C22_2 1_555 1_555
C22_2 H14_2 1_555 1_555
C23_2 C22_2 1_555 1_555
H15_2 C23_2 1_555 1_555
C24_2 C23_2 1_555 1_555
C25_2 C24_2 1_555 1_555
H16_2 C25_2 1_555 1_555
C28_2 C24_2 1_555 1_555
C29_2 C28_2 1_555 1_555
H18_2 C29_2 1_555 1_555
C30_2 C29_2 1_555 1_555
H19_2 C30_2 1_555 1_555
C31_2 C30_2 1_555 1_555
C32_2 C31_2 1_555 1_555
H20_2 C32_2 1_555 1_555
C33_2 C28_2 1_555 1_555
H21_2 C33_2 1_555 1_555
C34_2 O10_2 1_555 1_555
C31_2 C34_2 1_555 1_555
C32_2 C33_2 1_555 1_555
O3 C14_2 1_555 1_555
O11 C14_2 1_555 1_555
C1_2 C2_2 1_555 1_555
C2_2 H1_2 1_555 1_555
C3_2 C2_2 1_555 1_555
H2_2 C3_2 1_555 1_555
C4_2 C3_2 1_555 1_555
C5_2 C4_2 1_555 1_555
H3_2 C5_2 1_555 1_555
C8_2 C4_2 1_555 1_555
C9_2 C8_2 1_555 1_555
H5_2 C9_2 1_555 1_555
C10_2 C9_2 1_555 1_555
H6_2 C10_2 1_555 1_555
C11_2 C10_2 1_555 1_555
C12_2 C11_2 1_555 1_555
H7_2 C12_2 1_555 1_555
C13_2 C8_2 1_555 1_555
H8_2 C13_2 1_555 1_555
C14_2 C11_2 1_555 1_555
C12_2 C13_2 1_555 1_555
H9_2 C15_2 1_555 1_555
C16_2 C15_2 1_555 1_555
H10_2 C16_2 1_555 1_555
C38_4 C37_4 1_555 1_555
H24_4 C38_4 1_555 1_555
H26_4 C40_4 1_555 1_555
C37_4 C40_4 1_555 1_555
Zn5 N2_2 1_555 1_555
C39_3 N2_2 1_555 1_555
C35_2 H22_2 1_555 1_555
C36_2 C35_2 1_555 1_555
H23_2 C36_2 1_555 1_555
H9_3 C15_3 1_555 1_555
C16_3 C15_3 1_555 1_555
H10_3 C16_3 1_555 1_555
Zn5 O7_2 1_555 1_555
O7_2 C34_3 1_555 1_555
H18_3 C29_3 1_555 1_555
C30_3 C29_3 1_555 1_555
H19_3 C30_3 1_555 1_555
C31_3 C30_3 1_555 1_555
C34_3 O10_3 1_555 1_555
C31_3 C34_3 1_555 1_555
Zn1_2 O1_3 1_555 1_555
O1_3 C7_3 1_555 1_555
O2_3 C7_3 1_555 1_555
C1_3 C2_3 1_555 1_555
C2_3 H1_3 1_555 1_555
C3_3 C2_3 1_555 1_555
C4_3 C3_3 1_555 1_555
C5_3 C4_3 1_555 1_555
H3_3 C5_3 1_555 1_555
C6_3 C1_3 1_555 1_555
H4_3 C6_3 1_555 1_555
C7_3 C1_3 1_555 1_555
C8_3 C4_3 1_555 1_555
H7_3 C12_3 1_555 1_555
C13_3 C8_3 1_555 1_555
H8_3 C13_3 1_555 1_555
N1_3 Zn1_2 1_555 1_555
C19_3 N1_3 1_555 1_555
O8_2 Zn1_2 1_555 1_555
C5_3 C6_3 1_555 1_555
C12_3 C13_3 1_555 1_555
O8_2 C14_3 1_555 1_555
O4_2 C14_3 1_555 1_555
H5_3 C9_3 1_555 1_555
C10_3 C9_3 1_555 1_555
H6_3 C10_3 1_555 1_555
C11_3 C10_3 1_555 1_555
C14_3 C11_3 1_555 1_555
Zn5 O5_3 1_555 1_555
O5_3 C27_3 1_555 1_555
O6_3 C27_3 1_555 1_555
C21_3 C22_3 1_555 1_555
C22_3 H14_3 1_555 1_555
C23_3 C22_3 1_555 1_555
C24_3 C23_3 1_555 1_555
C25_3 C24_3 1_555 1_555
H16_3 C25_3 1_555 1_555
C26_3 C21_3 1_555 1_555
H17_3 C26_3 1_555 1_555
C27_3 C21_3 1_555 1_555
C28_3 C24_3 1_555 1_555
H20_3 C32_3 1_555 1_555
C33_3 C28_3 1_555 1_555
H21_3 C33_3 1_555 1_555
C25_3 C26_3 1_555 1_555
C32_3 C33_3 1_555 1_555
Zn2_2 O5_4 1_555 1_555
O5_4 C27_4 1_555 1_555
O6_4 C27_4 1_555 1_555
O9_2 Zn2_2 1_555 1_555
O11_2 Zn2_2 1_555 1_555
C21_4 C22_4 1_555 1_555
C22_4 H14_4 1_555 1_555
C23_4 C22_4 1_555 1_555
C24_4 C23_4 1_555 1_555
C25_4 C24_4 1_555 1_555
H16_4 C25_4 1_555 1_555
C26_4 C21_4 1_555 1_555
H17_4 C26_4 1_555 1_555
C27_4 C21_4 1_555 1_555
C28_4 C24_4 1_555 1_555
H20_4 C32_4 1_555 1_555
C33_4 C28_4 1_555 1_555
H21_4 C33_4 1_555 1_555
N3_2 Zn2_2 1_555 1_555
C25_4 C26_4 1_555 1_555
C32_4 C33_4 1_555 1_555
O3_2 C14_4 1_555 1_555
O11_2 C14_4 1_555 1_555
H5_4 C9_4 1_555 1_555
C10_4 C9_4 1_555 1_555
H6_4 C10_4 1_555 1_555
C11_4 C10_4 1_555 1_555
C14_4 C11_4 1_555 1_555
Zn3_2 O3_2 1_555 1_555
N3_2 C35_3 1_555 1_555
C35_3 H22_3 1_555 1_555
C36_3 C35_3 1_555 1_555
H23_3 C36_3 1_555 1_555
C39_4 N3_2 1_555 1_555
Zn3_2 O1_4 1_555 1_555
O1_4 C7_4 1_555 1_555
O2_4 C7_4 1_555 1_555
C1_4 C2_4 1_555 1_555
C2_4 H1_4 1_555 1_555
C3_4 C2_4 1_555 1_555
C4_4 C3_4 1_555 1_555
C5_4 C4_4 1_555 1_555
H3_4 C5_4 1_555 1_555
C6_4 C1_4 1_555 1_555
H4_4 C6_4 1_555 1_555
C7_4 C1_4 1_555 1_555
C8_4 C4_4 1_555 1_555
H7_4 C12_4 1_555 1_555
C13_4 C8_4 1_555 1_555
H8_4 C13_4 1_555 1_555
N1_4 Zn3_2 1_555 1_555
C15_4 N1_4 1_555 1_555
H9_4 C15_4 1_555 1_555
C16_4 C15_4 1_555 1_555
H10_4 C16_4 1_555 1_555
C19_4 N1_4 1_555 1_555
O9_2 C34_4 1_555 1_555
O10_4 Zn3_2 1_555 1_555
H18_4 C29_4 1_555 1_555
C30_4 C29_4 1_555 1_555
H19_4 C30_4 1_555 1_555
C31_4 C30_4 1_555 1_555
C34_4 O10_4 1_555 1_555
C5_4 C6_4 1_555 1_555
C12_4 C13_4 1_555 1_555
C31_4 C34_4 1_555 1_555
C18_4 C17_4 1_555 1_555
H11_4 C18_4 1_555 1_555
C20_4 C17_4 1_555 1_555
H13_4 C20_4 1_555 1_555
C35_4 H22_4 1_555 1_555
C36_4 C35_4 1_555 1_555
H23_4 C36_4 1_555 1_555

#END
