
###############################################################################
#
# This file contains modified crystal structure data generated from the
# MOF subset of the Cambridge Structural Database (CSD) v543 
# hosted by the Cambridge Crystallographic Data Centre (CCDC).
#
# This work is licensed under the Creative Commons
# Attribution-NonCommercial-ShareAlike 4.0 International License.
# To view a copy of this license, visit
# http://creativecommons.org/licenses/by-nc-sa/4.0/
# or send a letter to
# Creative Commons, PO Box 1866, Mountain View, CA 94042, USA.
#
# CIF created using the CSD Python API on 29 September 2022
# The structure has been converted into the P1 space group
# The structure has a 3D framework
# The original CSD entry COWQUC is in the monoclinic crystal system
# The framework has been calculated to contain at least 10.0% void space
# The void calculation uses a probe of radius 1.32A, grid spacing 0.4
# H atom positions have been added when not included in the experimental data
#
###############################################################################

data_COWQUC
_chemical_formula_moiety         '(C204 H180 Co12 N8 O82 S12)n'
_symmetry_cell_setting           triclinic
_symmetry_space_group_name_H-M   'P 1'
_symmetry_Int_Tables_number      1
_space_group_name_Hall           'P 1'
loop_
_symmetry_equiv_pos_site_id
_symmetry_equiv_pos_as_xyz
1 x,y,z
_cell_length_a                   16.7033(9)
_cell_length_b                   20.0195(11)
_cell_length_c                   17.4602(12)
_cell_angle_alpha                90
_cell_angle_beta                 100.423(6)
_cell_angle_gamma                90
_cell_volume                     5742.2
loop_
_atom_site_label
_atom_site_type_symbol
_atom_site_fract_x
_atom_site_fract_y
_atom_site_fract_z
O19 O 0.0185(3) 0.0856(3) 0.7187(4)
O4 O 0.0058(4) 0.7388(3) 0.6709(3)
H15 H 0.0136 0.8461 0.7396
H16 H 0.0095 0.9607 0.7558
Co5 Co 0.03953(6) 0.66399(5) 0.75493(6)
Co1 Co 0.46047(6) 0.16399(5) 0.74507(6)
Co2 Co 0.35093(7) 0.12329(6) 0.55739(7)
Co3 Co 0.58808(6) 0.14431(5) 0.94173(6)
S2 S 0.94934(13) 0.06884(10) 0.66037(13)
S3 S 0.10095(11) 0.01731(10) 0.95904(11)
N1 N 0.2541(4) 0.1543(3) 0.3193(4)
O2 O 0.4437(3) 0.0992(3) 0.8345(3)
O3 O 0.5823(3) 0.1351(3) 0.7495(3)
O5 O 0.0746(3) 0.5847(3) 0.8341(3)
O6 O 0.3375(3) 0.1930(3) 0.7375(3)
O7 O 0.2971(4) 0.1417(4) 0.4473(4)
O8 O 0.2834(3) 0.1854(3) 0.6097(3)
O10 O 0.0727(4) 0.5397(3) 0.9475(3)
O11 O 0.2590(4) 0.0460(3) 0.5687(4)
O12 O 0.6513(3) 0.1070(3) 0.8690(3)
O13 O 0.4876(3) 0.1051(3) 0.9633(4)
O18 O 0.9372(4) 0.1000(3) 0.5852(4)
O21 O 0.0501(3) 0.0026(3) 0.8851(3)
C1 C 0.2798(5) 0.1976(4) 0.6799(5)
C2 C 0.1959(5) 0.2188(4) 0.6945(5)
C3 C 0.1817(5) 0.2248(4) 0.7686(5)
H1 H 0.2239 0.2182 0.8105
C4 C 0.1049(4) 0.2408(4) 0.7816(5)
H2 H 0.0949 0.2439 0.8322
C5 C 0.0420(4) 0.2522(4) 0.7176(5)
C6 C 0.0567(5) 0.2474(4) 0.6434(5)
H3 H 0.0154 0.2556 0.6011
C7 C 0.1349(5) 0.2298(4) 0.6319(5)
H4 H 0.1454 0.2255 0.5816
C11 C 0.0098(5) 0.4775(4) 0.8376(5)
H7 H 0.0042 0.5045 0.7237
C14 C 0.0517(5) 0.5374(4) 0.8748(5)
C15 C 0.6451(5) 0.1161(4) 0.7956(5)
C16 C 0.7210(5) 0.1022(4) 0.7624(4)
C17 C 0.7211(5) 0.1157(5) 0.6847(5)
H9 H 0.6738 0.1311 0.6533
C18 C 0.7909(6) 0.1066(5) 0.6526(5)
H10 H 0.7910 0.1161 0.6005
C19 C 0.8605(5) 0.0828(4) 0.7010(5)
C20 C 0.8614(4) 0.0699(3) 0.7790(4)
H11 H 0.9085 0.0541 0.8105
C21 C 0.7916(4) 0.0806(4) 0.8099(4)
H12 H 0.7924 0.0733 0.8626
C29 C 0.4334(5) 0.0942(4) 0.9032(5)
C30 C 0.3506(4) 0.0730(4) 0.9171(4)
C31 C 0.3416(5) 0.0496(4) 0.9897(5)
C33 C 0.1992(4) 0.0375(4) 0.9410(4)
C34 C 0.2080(5) 0.0595(4) 0.8682(5)
H19 H 0.1631 0.0630 0.8282
C35 C 0.2855(4) 0.0764(4) 0.8560(5)
H20 H 0.2934 0.0899 0.8069
C36 C 0.0677(4) 0.0923(4) 0.9956(4)
C41 C 0.0229(5) 0.1377(4) 0.9448(5)
H24 H 0.0133 0.1304 0.8914
C43 C 0.2016(8) 0.0473(6) 0.6283(7)
H25 H 0.1674 0.0085 0.6216
H26 H 0.1684 0.0867 0.6206
H27 H 0.2331 0.0476 0.6801
C44 C 0.2955(8) 0.0458(5) 0.3788(7)
C45 C 0.2806(8) 0.1197(5) 0.3817(5)
C46 C 0.2348(8) 0.2254(5) 0.3212(9)
C47 C 0.2380(8) 0.1127(9) 0.2498(9)
Co7 Co 0.14907(7) 0.62329(6) 0.94261(7)
O22 O 0.4788(3) 0.2326(3) 0.6625(3)
O23 O 0.4942(4) 0.2388(3) 0.8291(3)
O24 O 0.4254(3) 0.0847(3) 0.6659(3)
O25 O 0.4388(3) 0.1909(3) 0.5418(3)
O26 O 0.4273(4) 0.0397(3) 0.5525(3)
O27 O 0.5874(3) 0.2426(3) 0.9381(3)
H34 H 0.192084 0.0755035 0.256165
H35 H 0.216001 0.143808 0.199201
H36 H 0.293875 0.0876769 0.242057
H38 H 0.752252 0.171762 0.969722
H40 H 0.340924 0.0360335 0.342637
H41 H 0.31743 0.0272658 0.437484
H42 H 0.238945 0.0205422 0.354178
H43 H 0.289036 0.252978 0.347507
H44 H 0.21384 0.243294 0.262072
H45 H 0.18714 0.23292 0.355436
O15 O 0.9126(3) 0.7426(3) 0.5619(3)
C22 C 0.9497(4) 0.9809(4) 0.6465(4)
C23 C 0.9138(5) 0.9537(4) 0.5769(5)
H13 H 0.8896 0.9812 0.5362
C24 C 0.9137(5) 0.8852(4) 0.5675(5)
H14 H 0.8887 0.8661 0.5207
C25 C 0.9515(4) 0.8445(4) 0.6288(5)
C26 C 0.9880(4) 0.8731(4) 0.6990(4)
C27 C 0.9864(5) 0.9413(4) 0.7086(5)
C28 C 0.9579(5) 0.7697(4) 0.6197(5)
Co9 Co 0.91192(6) 0.64431(5) 0.55827(6)
O1 O 0.9788(3) 0.2674(3) 0.1625(3)
O9 O 0.9388(3) 0.3091(3) 0.0418(3)
C42 C 0.9737(5) 0.2667(4) 0.0905(5)
Co6 Co 0.96047(6) 0.33601(5) 0.24507(6)
Co8 Co 0.85093(7) 0.37671(6) 0.05739(7)
H7_2 H 0.4958 0.0045 0.7763
C14_2 C 0.4483(5) 0.0374(4) 0.6252(5)
S1 S 0.55644(12) 0.77478(10) 0.76629(12)
S3_2 S 0.39905(11) 0.51731(10) 0.54096(11)
O1_2 O 0.5212(3) 0.7674(3) 0.3375(3)
O2_2 O 0.0563(3) 0.5992(3) 0.6655(3)
O6_2 O 0.1625(3) 0.6930(3) 0.7625(3)
O8_2 O 0.2166(3) 0.6854(3) 0.8903(3)
O9_2 O 0.5612(3) 0.8091(3) 0.4582(3)
O11_2 O 0.2410(4) 0.5460(3) 0.9313(4)
O13_2 O 0.0124(3) 0.6051(3) 0.5367(4)
O16 O 0.5776(3) 0.7319(3) 0.7069(3)
O17 O 0.6102(3) 0.7784(3) 0.8403(3)
O20 O 0.3904(3) 0.4688(2) 0.4796(3)
O21_2 O 0.4499(3) 0.5026(3) 0.6149(3)
C1_2 C 0.2202(5) 0.6976(4) 0.8201(5)
C2_2 C 0.3041(5) 0.7188(4) 0.8055(5)
C3_2 C 0.3183(5) 0.7248(4) 0.7314(5)
H1_2 H 0.2761 0.7182 0.6895
C4_2 C 0.3951(4) 0.7408(4) 0.7184(5)
H2_2 H 0.4051 0.7439 0.6678
C5_2 C 0.4580(4) 0.7522(4) 0.7824(5)
C6_2 C 0.4433(5) 0.7474(4) 0.8566(5)
H3_2 H 0.4846 0.7556 0.8989
C7_2 C 0.3651(5) 0.7298(4) 0.8681(5)
H4_2 H 0.3546 0.7255 0.9184
C8 C 0.5398(4) 0.8564(4) 0.7267(5)
C9 C 0.5338(6) 0.8655(5) 0.6489(6)
H5 H 0.5463 0.8308 0.6177
C10 C 0.5089(5) 0.9267(4) 0.6163(5)
H6 H 0.5048 0.9333 0.5630
C11_2 C 0.4902(5) 0.9775(4) 0.6624(5)
C12 C 0.5036(5) 0.9689(4) 0.7442(5)
C13 C 0.5276(5) 0.9092(4) 0.7756(5)
H8 H 0.5359 0.9031 0.8292
C29_2 C 0.0666(5) 0.5942(4) 0.5968(5)
C30_2 C 0.1494(4) 0.5730(4) 0.5829(4)
C31_2 C 0.1584(5) 0.5496(4) 0.5103(5)
H17 H 0.1136 0.5467 0.4701
C32 C 0.2341(4) 0.5309(4) 0.4981(5)
H18 H 0.2410 0.5140 0.4502
C33_2 C 0.3008(4) 0.5375(4) 0.5590(4)
C34_2 C 0.2920(5) 0.5595(4) 0.6318(5)
H19_2 H 0.3369 0.5630 0.6718
C35_2 C 0.2145(4) 0.5764(4) 0.6440(5)
H20_2 H 0.2066 0.5899 0.6931
C36_2 C 0.4323(4) 0.5923(4) 0.5044(4)
C37 C 0.4174(4) 0.6033(4) 0.4252(5)
H21 H 0.3873 0.5726 0.3918
C38 C 0.4473(4) 0.6600(4) 0.3960(5)
H22 H 0.4369 0.6674 0.3426
C39 C 0.4923(4) 0.7062(4) 0.4442(4)
C40 C 0.5074(4) 0.6944(4) 0.5239(5)
H23 H 0.5383 0.7249 0.5570
C41_2 C 0.4771(5) 0.6377(4) 0.5552(5)
H24_2 H 0.4867 0.6304 0.6086
C42_2 C 0.5263(5) 0.7667(4) 0.4095(5)
C43_2 C 0.2984(8) 0.5473(6) 0.8717(7)
H25_2 H 0.3326 0.5085 0.8784
H26_2 H 0.3316 0.5867 0.8794
H27_2 H 0.2669 0.5476 0.8199
Co6_2 Co 0.53953(6) 0.83601(5) 0.25493(6)
Co8_2 Co 0.64907(7) 0.87671(6) 0.44261(7)
O22_2 O 0.0212(3) 0.7326(3) 0.8375(3)
O25_2 O 0.0612(3) 0.6909(3) 0.9582(3)
S2_2 S 0.55066(13) 0.56884(10) 0.83963(13)
N2 N 0.7500(5) 0.6195(4) 0.3515(5)
O3_2 O 0.9177(3) 0.6351(3) 0.7505(3)
O12_2 O 0.8487(3) 0.6070(3) 0.6310(3)
O14 O 0.8472(4) 0.6240(3) 0.4559(4)
O18_2 O 0.5628(4) 0.6000(3) 0.9148(4)
O19_2 O 0.4815(3) 0.5856(3) 0.7813(4)
C15_2 C 0.8549(5) 0.6161(4) 0.7044(5)
C16_2 C 0.7790(5) 0.6022(4) 0.7376(4)
C17_2 C 0.7789(5) 0.6157(5) 0.8153(5)
H9_2 H 0.8262 0.6311 0.8467
C18_2 C 0.7091(6) 0.6066(5) 0.8474(5)
H10_2 H 0.7090 0.6161 0.8995
C19_2 C 0.6395(5) 0.5828(4) 0.7990(5)
C20_2 C 0.6386(4) 0.5699(3) 0.7210(4)
H11_2 H 0.5915 0.5541 0.6895
C21_2 C 0.7084(4) 0.5806(4) 0.6901(4)
H12_2 H 0.7076 0.5733 0.6374
C22_2 C 0.5503(4) 0.4809(4) 0.8535(4)
C23_2 C 0.5862(5) 0.4537(4) 0.9231(5)
H13_2 H 0.6104 0.4812 0.9638
C24_2 C 0.5863(5) 0.3852(4) 0.9325(5)
H14_2 H 0.6113 0.3661 0.9793
C25_2 C 0.5485(4) 0.3445(4) 0.8712(5)
C26_2 C 0.5120(4) 0.3731(4) 0.8010(4)
H15_2 H 0.4864 0.3461 0.7604
C27_2 C 0.5136(5) 0.4413(4) 0.7914(5)
H16_2 H 0.4905 0.4607 0.7442
C28_2 C 0.5421(5) 0.2697(4) 0.8803(5)
C48 C 0.7804(7) 0.6316(5) 0.4219(8)
C49 C 0.7172(7) 0.6628(6) 0.4706(8)
C50 C 0.6709(9) 0.6291(7) 0.3073(9)
C51 C 0.8100(10) 0.5940(7) 0.3047(9)
H28 H 0.836627 0.547617 0.330144
H29 H 0.779274 0.584848 0.245121
H30 H 0.857863 0.630936 0.304699
H31 H 0.655412 0.68196 0.30671
H32 H 0.669485 0.611941 0.247884
H33 H 0.627032 0.600774 0.333349
H37 H 0.666977 0.628105 0.470553
H38_2 H 0.747748 0.671762 0.530278
H39 H 0.693795 0.7098 0.444165
C42_3 C 0.0263(5) 0.7333(4) 0.9095(5)
O15_2 O 0.0874(3) 0.2574(3) 0.4381(3)
C22_3 C 0.0503(4) 0.0191(4) 0.3535(4)
C23_3 C 0.0862(5) 0.0463(4) 0.4231(5)
H13_3 H 0.1104 0.0188 0.4638
C24_3 C 0.0863(5) 0.1148(4) 0.4325(5)
H14_3 H 0.1113 0.1339 0.4793
C25_3 C 0.0485(4) 0.1555(4) 0.3712(5)
C26_3 C 0.0120(4) 0.1269(4) 0.3010(4)
C27_3 C 0.0136(5) 0.0587(4) 0.2914(5)
C28_3 C 0.0421(5) 0.2303(4) 0.3803(5)
Co9_2 Co 0.08808(6) 0.35569(5) 0.44173(6)
Co3_2 Co 0.41192(6) 0.85569(5) 0.05827(6)
S2_3 S 0.05066(13) 0.93116(10) 0.33963(13)
S3_3 S 0.89905(11) 0.98269(10) 0.04096(11)
N1_2 N 0.7459(4) 0.8457(3) 0.6807(4)
O2_3 O 0.5563(3) 0.9008(3) 0.1655(3)
O3_3 O 0.4177(3) 0.8649(3) 0.2505(3)
O5_2 O 0.9254(3) 0.4153(3) 0.1659(3)
O6_3 O 0.6625(3) 0.8070(3) 0.2625(3)
O7_2 O 0.7029(4) 0.8583(4) 0.5527(4)
O8_3 O 0.7166(3) 0.8146(3) 0.3903(3)
O10_2 O 0.9273(4) 0.4603(3) 0.0525(3)
O11_3 O 0.7410(4) 0.9540(3) 0.4313(4)
O12_3 O 0.3487(3) 0.8930(3) 0.1310(3)
O13_3 O 0.5124(3) 0.8949(3) 0.0367(4)
O18_3 O 0.0628(4) 0.9000(3) 0.4148(4)
O21_3 O 0.9499(3) 0.9974(3) 0.1149(3)
C1_3 C 0.7202(5) 0.8024(4) 0.3201(5)
C2_3 C 0.8041(5) 0.7812(4) 0.3055(5)
C3_3 C 0.8183(5) 0.7752(4) 0.2314(5)
H1_3 H 0.7761 0.7818 0.1895
C4_3 C 0.8951(4) 0.7592(4) 0.2184(5)
H2_3 H 0.9051 0.7561 0.1678
C5_3 C 0.9580(4) 0.7478(4) 0.2824(5)
C6_3 C 0.9433(5) 0.7526(4) 0.3566(5)
H3_3 H 0.9846 0.7444 0.3989
C7_3 C 0.8651(5) 0.7702(4) 0.3681(5)
H4_3 H 0.8546 0.7745 0.4184
C11_3 C 0.9902(5) 0.5225(4) 0.1624(5)
H7_3 H 0.9958 0.4955 0.2763
C14_3 C 0.9483(5) 0.4626(4) 0.1252(5)
C15_3 C 0.3549(5) 0.8839(4) 0.2044(5)
C16_3 C 0.2790(5) 0.8978(4) 0.2376(4)
C17_3 C 0.2789(5) 0.8843(5) 0.3153(5)
H9_3 H 0.3262 0.8689 0.3467
C18_3 C 0.2091(6) 0.8934(5) 0.3474(5)
H10_3 H 0.2090 0.8839 0.3995
C19_3 C 0.1395(5) 0.9172(4) 0.2990(5)
C20_3 C 0.1386(4) 0.9301(3) 0.2210(4)
H11_3 H 0.0915 0.9459 0.1895
C21_3 C 0.2084(4) 0.9194(4) 0.1901(4)
H12_3 H 0.2076 0.9267 0.1374
C29_3 C 0.5666(5) 0.9058(4) 0.0968(5)
C30_3 C 0.6494(4) 0.9270(4) 0.0829(4)
C31_3 C 0.6584(5) 0.9504(4) 0.0103(5)
C33_3 C 0.8008(4) 0.9625(4) 0.0590(4)
C34_3 C 0.7920(5) 0.9405(4) 0.1318(5)
H19_3 H 0.8369 0.9370 0.1718
C35_3 C 0.7145(4) 0.9236(4) 0.1440(5)
H20_3 H 0.7066 0.9101 0.1931
C36_3 C 0.9323(4) 0.9077(4) 0.0044(4)
C41_3 C 0.9771(5) 0.8623(4) 0.0552(5)
H24_3 H 0.9867 0.8696 0.1086
C43_3 C 0.7984(8) 0.9527(6) 0.3717(7)
H25_3 H 0.8326 0.9915 0.3784
H26_3 H 0.8316 0.9133 0.3794
H27_3 H 0.7669 0.9524 0.3199
C44_2 C 0.7045(8) 0.9542(5) 0.6212(7)
C45_2 C 0.7194(8) 0.8803(5) 0.6183(5)
C46_2 C 0.7652(8) 0.7746(5) 0.6788(9)
C47_2 C 0.7620(8) 0.8873(9) 0.7502(9)
O23_2 O 0.5058(4) 0.7612(3) 0.1709(3)
O24_2 O 0.5746(3) 0.9153(3) 0.3341(3)
O26_2 O 0.5727(4) 0.9603(3) 0.4475(3)
O27_2 O 0.4126(3) 0.7574(3) 0.0619(3)
H34_2 H 0.807916 0.924496 0.743835
H35_2 H 0.783999 0.856192 0.800799
H36_2 H 0.706125 0.912323 0.757943
H38_3 H 0.247748 0.828238 0.030278
H40_2 H 0.659076 0.963967 0.657363
H41_2 H 0.68257 0.972734 0.562516
H42_2 H 0.761055 0.979458 0.645822
H43_2 H 0.710964 0.747022 0.652493
H44_2 H 0.78616 0.756706 0.737928
H45_2 H 0.81286 0.76708 0.644564
O4_2 O 0.9942(4) 0.2612(3) 0.3291(3)
H15_3 H 0.9864 0.1539 0.2604
H16_3 H 0.9905 0.0393 0.2442
S2_4 S 0.44934(13) 0.43116(10) 0.16037(13)
N2_2 N 0.2500(5) 0.3805(4) 0.6485(5)
O3_4 O 0.0823(3) 0.3649(3) 0.2495(3)
O12_4 O 0.1513(3) 0.3930(3) 0.3690(3)
O14_2 O 0.1528(4) 0.3760(3) 0.5441(4)
O18_4 O 0.4372(4) 0.4000(3) 0.0852(4)
O19_3 O 0.5185(3) 0.4144(3) 0.2187(4)
C15_4 C 0.1451(5) 0.3839(4) 0.2956(5)
C16_4 C 0.2210(5) 0.3978(4) 0.2624(4)
C17_4 C 0.2211(5) 0.3843(5) 0.1847(5)
H9_4 H 0.1738 0.3689 0.1533
C18_4 C 0.2909(6) 0.3934(5) 0.1526(5)
H10_4 H 0.2910 0.3839 0.1005
C19_4 C 0.3605(5) 0.4172(4) 0.2010(5)
C20_4 C 0.3614(4) 0.4301(3) 0.2790(4)
H11_4 H 0.4085 0.4459 0.3105
C21_4 C 0.2916(4) 0.4194(4) 0.3099(4)
H12_4 H 0.2924 0.4267 0.3626
C22_4 C 0.4497(4) 0.5191(4) 0.1465(4)
C23_4 C 0.4138(5) 0.5463(4) 0.0769(5)
H13_4 H 0.3896 0.5188 0.0362
C24_4 C 0.4137(5) 0.6148(4) 0.0675(5)
H14_4 H 0.3887 0.6339 0.0207
C25_4 C 0.4515(4) 0.6555(4) 0.1288(5)
C26_4 C 0.4880(4) 0.6269(4) 0.1990(4)
H15_4 H 0.5136 0.6539 0.2396
C27_4 C 0.4864(5) 0.5587(4) 0.2086(5)
H16_4 H 0.5095 0.5393 0.2558
C28_4 C 0.4579(5) 0.7303(4) 0.1197(5)
C48_2 C 0.2196(7) 0.3684(5) 0.5781(8)
C49_2 C 0.2828(7) 0.3372(6) 0.5294(8)
C50_2 C 0.3291(9) 0.3709(7) 0.6927(9)
C51_2 C 0.1900(10) 0.4060(7) 0.6953(9)
H28_2 H 0.163373 0.452383 0.669856
H29_2 H 0.220726 0.415152 0.754879
H30_2 H 0.142137 0.369064 0.695301
H31_2 H 0.344588 0.31804 0.69329
H32_2 H 0.330515 0.388059 0.752116
H33_2 H 0.372968 0.399226 0.666651
H37_2 H 0.333023 0.371895 0.529447
H38_4 H 0.252252 0.328238 0.469722
H39_2 H 0.306205 0.2902 0.555835
S1_2 S 0.44356(12) 0.22522(10) 0.23371(12)
S3_4 S 0.60095(11) 0.48269(10) 0.45904(11)
O2_4 O 0.9437(3) 0.4008(3) 0.3345(3)
O6_4 O 0.8375(3) 0.3070(3) 0.2375(3)
O8_4 O 0.7834(3) 0.3146(3) 0.1097(3)
O11_4 O 0.7590(4) 0.4540(3) 0.0687(4)
O13_4 O 0.9876(3) 0.3949(3) 0.4633(4)
O16_2 O 0.4224(3) 0.2681(3) 0.2931(3)
O17_2 O 0.3898(3) 0.2216(3) 0.1597(3)
O20_2 O 0.6096(3) 0.5312(2) 0.5204(3)
O21_4 O 0.5501(3) 0.4974(3) 0.3851(3)
C1_4 C 0.7798(5) 0.3024(4) 0.1799(5)
C2_4 C 0.6959(5) 0.2812(4) 0.1945(5)
C3_4 C 0.6817(5) 0.2752(4) 0.2686(5)
H1_4 H 0.7239 0.2818 0.3105
C4_4 C 0.6049(4) 0.2592(4) 0.2816(5)
H2_4 H 0.5949 0.2561 0.3322
C5_4 C 0.5420(4) 0.2478(4) 0.2176(5)
C6_4 C 0.5567(5) 0.2526(4) 0.1434(5)
H3_4 H 0.5154 0.2444 0.1011
C7_4 C 0.6349(5) 0.2702(4) 0.1319(5)
H4_4 H 0.6454 0.2745 0.0816
C8_2 C 0.4602(4) 0.1436(4) 0.2733(5)
C9_2 C 0.4662(6) 0.1345(5) 0.3511(6)
H5_2 H 0.4537 0.1692 0.3823
C10_2 C 0.4911(5) 0.0733(4) 0.3837(5)
H6_2 H 0.4952 0.0667 0.4370
C11_4 C 0.5098(5) 0.0225(4) 0.3376(5)
C12_2 C 0.4964(5) 0.0311(4) 0.2558(5)
C13_2 C 0.4724(5) 0.0908(4) 0.2244(5)
H8_2 H 0.4641 0.0969 0.1708
C29_4 C 0.9334(5) 0.4058(4) 0.4032(5)
C30_4 C 0.8506(4) 0.4270(4) 0.4171(4)
C31_4 C 0.8416(5) 0.4504(4) 0.4897(5)
H17_2 H 0.8864 0.4533 0.5299
C32_2 C 0.7659(4) 0.4691(4) 0.5019(5)
H18_2 H 0.7590 0.4860 0.5498
C33_4 C 0.6992(4) 0.4625(4) 0.4410(4)
C34_4 C 0.7080(5) 0.4405(4) 0.3682(5)
H19_4 H 0.6631 0.4370 0.3282
C35_4 C 0.7855(4) 0.4236(4) 0.3560(5)
H20_4 H 0.7934 0.4101 0.3069
C36_4 C 0.5677(4) 0.4077(4) 0.4956(4)
C37_2 C 0.5826(4) 0.3967(4) 0.5748(5)
H21_2 H 0.6127 0.4274 0.6082
C38_2 C 0.5527(4) 0.3400(4) 0.6040(5)
H22_2 H 0.5631 0.3326 0.6574
C39_2 C 0.5077(4) 0.2938(4) 0.5558(4)
C40_2 C 0.4926(4) 0.3056(4) 0.4761(5)
H23_2 H 0.4617 0.2751 0.4430
C41_4 C 0.5229(5) 0.3623(4) 0.4448(5)
H24_4 H 0.5133 0.3696 0.3914
C42_4 C 0.4737(5) 0.2333(4) 0.5905(5)
C43_4 C 0.7016(8) 0.4527(6) 0.1283(7)
H25_4 H 0.6674 0.4915 0.1216
H26_4 H 0.6684 0.4133 0.1206
H27_4 H 0.7331 0.4524 0.1801
H7_4 H 0.5042 0.9955 0.2237
C14_4 C 0.5517(5) 0.9626(4) 0.3748(5)
N2_3 N 0.7500(5) 0.1195(4) 0.1485(5)
O14_3 O 0.6528(4) 0.1240(3) 0.0441(4)
H17_3 H 0.3864 0.0467 0.0299
C32_3 C 0.2659(4) 0.0309(4) 0.0019(5)
H18_3 H 0.2590 0.0140 0.0498
C37_3 C 0.0826(4) 0.1033(4) 0.0748(5)
H21_3 H 0.1127 0.0726 0.1082
C38_3 C 0.0527(4) 0.1600(4) 0.1040(5)
H22_3 H 0.0631 0.1674 0.1574
C39_3 C 0.0077(4) 0.2062(4) 0.0558(4)
C48_3 C 0.7196(7) 0.1316(5) 0.0781(8)
C49_3 C 0.7828(7) 0.1628(6) 0.0294(8)
C50_3 C 0.8291(9) 0.1291(7) 0.1927(9)
C51_3 C 0.6900(10) 0.0940(7) 0.1953(9)
H28_3 H 0.663373 0.0476167 0.169856
H29_3 H 0.720726 0.0848478 0.254879
H30_3 H 0.642137 0.130936 0.195301
H31_3 H 0.844588 0.18196 0.19329
H32_3 H 0.830515 0.111941 0.252116
H33_3 H 0.872968 0.100774 0.166651
H37_3 H 0.833023 0.128105 0.0294469
H39_3 H 0.806205 0.2098 0.0558351
O20_3 O 0.1096(3) 0.9688(2) 0.0204(3)
S1_3 S 0.94356(12) 0.27478(10) 0.73371(12)
O16_3 O 0.9224(3) 0.2319(3) 0.7931(3)
O17_3 O 0.8898(3) 0.2784(3) 0.6597(3)
C8_3 C 0.9602(4) 0.3564(4) 0.7733(5)
C9_3 C 0.9662(6) 0.3655(5) 0.8511(6)
H5_3 H 0.9537 0.3308 0.8823
C10_3 C 0.9911(5) 0.4267(4) 0.8837(5)
H6_3 H 0.9952 0.4333 0.9370
C12_3 C 0.9964(5) 0.4689(4) 0.7558(5)
C13_3 C 0.9724(5) 0.4092(4) 0.7244(5)
H8_3 H 0.9641 0.4031 0.6708
C40_3 C 0.9926(4) 0.1944(4) 0.9761(5)
H23_3 H 0.9617 0.2249 0.9430
N1_3 N 0.2459(4) 0.6543(3) 0.1807(4)
O7_3 O 0.2029(4) 0.6417(4) 0.0527(4)
C44_3 C 0.2045(8) 0.5458(5) 0.1212(7)
C45_3 C 0.2194(8) 0.6197(5) 0.1183(5)
C46_3 C 0.2652(8) 0.7254(5) 0.1788(9)
C47_3 C 0.2620(8) 0.6127(9) 0.2502(9)
H34_3 H 0.307916 0.575504 0.243835
H35_3 H 0.283999 0.643808 0.300799
H36_3 H 0.206125 0.587677 0.257943
H40_3 H 0.159076 0.536033 0.157363
H41_3 H 0.18257 0.527266 0.0625161
H42_3 H 0.261055 0.520542 0.145822
H43_3 H 0.210964 0.752978 0.152493
H44_3 H 0.28616 0.743294 0.237928
H45_3 H 0.31286 0.73292 0.144564
S1_4 S 0.05644(12) 0.72522(10) 0.26629(12)
O16_4 O 0.0776(3) 0.7681(3) 0.2069(3)
O17_4 O 0.1102(3) 0.7216(3) 0.3403(3)
C8_4 C 0.0398(4) 0.6436(4) 0.2267(5)
C9_4 C 0.0338(6) 0.6345(5) 0.1489(6)
H5_4 H 0.0463 0.6692 0.1177
C10_4 C 0.0089(5) 0.5733(4) 0.1163(5)
H6_4 H 0.0048 0.5667 0.0630
C12_4 C 0.0036(5) 0.5311(4) 0.2442(5)
C13_4 C 0.0276(5) 0.5908(4) 0.2756(5)
H8_4 H 0.0359 0.5969 0.3292
C40_4 C 0.0074(4) 0.8056(4) 0.0239(5)
H23_4 H 0.0383 0.7751 0.0570
O20_4 O 0.8904(3) 0.0312(2) 0.9796(3)
N2_4 N 0.2500(5) 0.8805(4) 0.8515(5)
O14_4 O 0.3472(4) 0.8760(3) 0.9559(4)
H17_4 H 0.6136 0.9533 0.9701
C32_4 C 0.7341(4) 0.9691(4) 0.9981(5)
H18_4 H 0.7410 0.9860 0.9502
C37_4 C 0.9174(4) 0.8967(4) 0.9252(5)
H21_4 H 0.8873 0.9274 0.8918
C38_4 C 0.9473(4) 0.8400(4) 0.8960(5)
H22_4 H 0.9369 0.8326 0.8426
C39_4 C 0.9923(4) 0.7938(4) 0.9442(4)
C48_4 C 0.2804(7) 0.8684(5) 0.9219(8)
C49_4 C 0.2172(7) 0.8372(6) 0.9706(8)
C50_4 C 0.1709(9) 0.8709(7) 0.8073(9)
C51_4 C 0.3100(10) 0.9060(7) 0.8047(9)
H28_4 H 0.336627 0.952383 0.830144
H29_4 H 0.279274 0.915152 0.745121
H30_4 H 0.357863 0.869064 0.804699
H31_4 H 0.155412 0.81804 0.80671
H32_4 H 0.169485 0.888059 0.747884
H33_4 H 0.127032 0.899226 0.833349
H37_4 H 0.166977 0.871895 0.970553
H39_4 H 0.193795 0.7902 0.944165
O19_4 O 0.9815(3) 0.9144(3) 0.2813(4)
N1_4 N 0.7541(4) 0.3457(3) 0.8193(4)
O7_4 O 0.7971(4) 0.3583(4) 0.9473(4)
C44_4 C 0.7955(8) 0.4542(5) 0.8788(7)
C45_4 C 0.7806(8) 0.3803(5) 0.8817(5)
C46_4 C 0.7348(8) 0.2746(5) 0.8212(9)
C47_4 C 0.7380(8) 0.3873(9) 0.7498(9)
H34_4 H 0.692084 0.424496 0.756165
H35_4 H 0.716001 0.356192 0.699201
H36_4 H 0.793875 0.412323 0.742057
H40_4 H 0.840924 0.463967 0.842637
H41_4 H 0.81743 0.472734 0.937484
H42_4 H 0.738945 0.479458 0.854178
H43_4 H 0.789036 0.247022 0.847507
H44_4 H 0.71384 0.256706 0.762072
H45_4 H 0.68714 0.26708 0.855436
loop_
_geom_bond_atom_site_label_1
_geom_bond_atom_site_label_2
_geom_bond_site_symmetry_1
_geom_bond_site_symmetry_2
Co5 O4 1_555 1_555
Co1 O2 1_555 1_555
Co2 O7 1_555 1_555
Co3 O12 1_555 1_555
S2 O18 1_555 1_555
N1 C45 1_555 1_555
O2 C29 1_555 1_555
O3 Co1 1_555 1_555
O5 C14 1_555 1_555
O6 Co1 1_555 1_555
O7 C45 1_555 1_555
O8 Co2 1_555 1_555
O10 C14 1_555 1_555
O11 Co2 1_555 1_555
O12 C15 1_555 1_555
O13 Co3 1_555 1_555
O21 S3 1_555 1_555
C1 O6 1_555 1_555
C2 C1 1_555 1_555
C3 C2 1_555 1_555
H1 C3 1_555 1_555
C4 C3 1_555 1_555
H2 C4 1_555 1_555
C6 C5 1_555 1_555
H3 C6 1_555 1_555
C7 C2 1_555 1_555
H4 C7 1_555 1_555
C14 C11 1_555 1_555
C15 O3 1_555 1_555
C16 C15 1_555 1_555
C17 C16 1_555 1_555
H9 C17 1_555 1_555
C18 C17 1_555 1_555
H10 C18 1_555 1_555
C19 S2 1_555 1_555
C20 C19 1_555 1_555
H11 C20 1_555 1_555
C21 C16 1_555 1_555
H12 C21 1_555 1_555
C29 O13 1_555 1_555
C30 C29 1_555 1_555
C31 C30 1_555 1_555
C33 S3 1_555 1_555
C34 C33 1_555 1_555
H19 C34 1_555 1_555
C35 C30 1_555 1_555
H20 C35 1_555 1_555
C36 S3 1_555 1_555
C41 C36 1_555 1_555
H24 C41 1_555 1_555
C43 O11 1_555 1_555
H25 C43 1_555 1_555
H26 C43 1_555 1_555
H27 C43 1_555 1_555
C44 C45 1_555 1_555
C46 N1 1_555 1_555
C47 N1 1_555 1_555
Co5 O5 1_555 1_555
Co7 O5 1_555 1_555
O22 Co1 1_555 1_555
O23 Co1 1_555 1_555
O24 Co1 1_555 1_555
O25 Co2 1_555 1_555
O26 Co2 1_555 1_555
O27 Co3 1_555 1_555
Co2 O24 1_555 1_555
O8 C1 1_555 1_555
O10 Co7 1_555 1_555
C4 C5 1_555 1_555
C6 C7 1_555 1_555
C18 C19 1_555 1_555
C20 C21 1_555 1_555
C34 C35 1_555 1_555
C47 H34 1_555 1_555
C47 H35 1_555 1_555
C47 H36 1_555 1_555
C44 H40 1_555 1_555
C44 H41 1_555 1_555
C44 H42 1_555 1_555
C46 H43 1_555 1_555
C46 H44 1_555 1_555
C46 H45 1_555 1_555
O15 C28 1_555 1_555
C23 C22 1_555 1_555
H13 C23 1_555 1_555
C24 C23 1_555 1_555
H14 C24 1_555 1_555
C25 C24 1_555 1_555
C26 C25 1_555 1_555
C27 C22 1_555 1_555
C28 C25 1_555 1_555
Co9 O15 1_555 1_555
C26 C27 1_555 1_555
O1 C42 1_555 1_555
O9 C42 1_555 1_555
Co6 O1 1_555 1_555
Co8 O9 1_555 1_555
O24 C14_2 1_555 1_555
O26 C14_2 1_555 1_555
Co5 O2_2 1_555 1_555
S1 O16 1_555 1_555
S3_2 O20 1_555 1_555
O1_2 C42_2 1_555 1_555
O2_2 C29_2 1_555 1_555
O6_2 Co5 1_555 1_555
O8_2 Co7 1_555 1_555
O9_2 C42_2 1_555 1_555
O11_2 Co7 1_555 1_555
O17 S1 1_555 1_555
O21_2 S3_2 1_555 1_555
C1_2 O6_2 1_555 1_555
C2_2 C1_2 1_555 1_555
C3_2 C2_2 1_555 1_555
H1_2 C3_2 1_555 1_555
C4_2 C3_2 1_555 1_555
H2_2 C4_2 1_555 1_555
C5_2 S1 1_555 1_555
C6_2 C5_2 1_555 1_555
H3_2 C6_2 1_555 1_555
C7_2 C2_2 1_555 1_555
H4_2 C7_2 1_555 1_555
C8 S1 1_555 1_555
C9 C8 1_555 1_555
H5 C9 1_555 1_555
C10 C9 1_555 1_555
H6 C10 1_555 1_555
C11_2 C10 1_555 1_555
C12 C11_2 1_555 1_555
C13 C8 1_555 1_555
H8 C13 1_555 1_555
C29_2 O13_2 1_555 1_555
C30_2 C29_2 1_555 1_555
C31_2 C30_2 1_555 1_555
H17 C31_2 1_555 1_555
C32 C31_2 1_555 1_555
H18 C32 1_555 1_555
C33_2 S3_2 1_555 1_555
C34_2 C33_2 1_555 1_555
H19_2 C34_2 1_555 1_555
C35_2 C30_2 1_555 1_555
H20_2 C35_2 1_555 1_555
C36_2 S3_2 1_555 1_555
C37 C36_2 1_555 1_555
H21 C37 1_555 1_555
C38 C37 1_555 1_555
H22 C38 1_555 1_555
C39 C38 1_555 1_555
C40 C39 1_555 1_555
H23 C40 1_555 1_555
C41_2 C36_2 1_555 1_555
H24_2 C41_2 1_555 1_555
C42_2 C39 1_555 1_555
C43_2 O11_2 1_555 1_555
H25_2 C43_2 1_555 1_555
H26_2 C43_2 1_555 1_555
H27_2 C43_2 1_555 1_555
Co6_2 O1_2 1_555 1_555
Co8_2 O9_2 1_555 1_555
O22_2 Co5 1_555 1_555
O25_2 Co7 1_555 1_555
O8_2 C1_2 1_555 1_555
C4_2 C5_2 1_555 1_555
C6_2 C7_2 1_555 1_555
C12 C13 1_555 1_555
C32 C33_2 1_555 1_555
C34_2 C35_2 1_555 1_555
C40 C41_2 1_555 1_555
Co9 O12_2 1_555 1_555
S2_2 O18_2 1_555 1_555
N2 C48 1_555 1_555
O23 C28_2 1_555 1_555
O12_2 C15_2 1_555 1_555
O14 Co9 1_555 1_555
O27 C28_2 1_555 1_555
O19_2 S2_2 1_555 1_555
C15_2 O3_2 1_555 1_555
C16_2 C15_2 1_555 1_555
C17_2 C16_2 1_555 1_555
H9_2 C17_2 1_555 1_555
C18_2 C17_2 1_555 1_555
H10_2 C18_2 1_555 1_555
C19_2 S2_2 1_555 1_555
C20_2 C19_2 1_555 1_555
H11_2 C20_2 1_555 1_555
C21_2 C16_2 1_555 1_555
H12_2 C21_2 1_555 1_555
C22_2 S2_2 1_555 1_555
C23_2 C22_2 1_555 1_555
H13_2 C23_2 1_555 1_555
C24_2 C23_2 1_555 1_555
H14_2 C24_2 1_555 1_555
C25_2 C24_2 1_555 1_555
C26_2 C25_2 1_555 1_555
H15_2 C26_2 1_555 1_555
C27_2 C22_2 1_555 1_555
H16_2 C27_2 1_555 1_555
C28_2 C25_2 1_555 1_555
C48 O14 1_555 1_555
C49 C48 1_555 1_555
C50 N2 1_555 1_555
C51 N2 1_555 1_555
C18_2 C19_2 1_555 1_555
C20_2 C21_2 1_555 1_555
C26_2 C27_2 1_555 1_555
C51 H28 1_555 1_555
C51 H29 1_555 1_555
C51 H30 1_555 1_555
C50 H31 1_555 1_555
C50 H32 1_555 1_555
C50 H33 1_555 1_555
C49 H37 1_555 1_555
C49 H38_2 1_555 1_555
C49 H39 1_555 1_555
O22_2 C42_3 1_555 1_555
O25_2 C42_3 1_555 1_555
O15_2 C28_3 1_555 1_555
C23_3 C22_3 1_555 1_555
H13_3 C23_3 1_555 1_555
C24_3 C23_3 1_555 1_555
H14_3 C24_3 1_555 1_555
C25_3 C24_3 1_555 1_555
C26_3 C25_3 1_555 1_555
C27_3 C22_3 1_555 1_555
C28_3 C25_3 1_555 1_555
Co9_2 O15_2 1_555 1_555
C26_3 C27_3 1_555 1_555
Co6_2 O2_3 1_555 1_555
Co8_2 O7_2 1_555 1_555
Co3_2 O12_3 1_555 1_555
S2_3 O18_3 1_555 1_555
N1_2 C45_2 1_555 1_555
O2_3 C29_3 1_555 1_555
O3_3 Co6_2 1_555 1_555
O5_2 C14_3 1_555 1_555
O6_3 Co6_2 1_555 1_555
O7_2 C45_2 1_555 1_555
O8_3 Co8_2 1_555 1_555
O10_2 C14_3 1_555 1_555
O11_3 Co8_2 1_555 1_555
O12_3 C15_3 1_555 1_555
O13_3 Co3_2 1_555 1_555
O21_3 S3_3 1_555 1_555
C1_3 O6_3 1_555 1_555
C2_3 C1_3 1_555 1_555
C3_3 C2_3 1_555 1_555
H1_3 C3_3 1_555 1_555
C4_3 C3_3 1_555 1_555
H2_3 C4_3 1_555 1_555
C6_3 C5_3 1_555 1_555
H3_3 C6_3 1_555 1_555
C7_3 C2_3 1_555 1_555
H4_3 C7_3 1_555 1_555
C14_3 C11_3 1_555 1_555
C15_3 O3_3 1_555 1_555
C16_3 C15_3 1_555 1_555
C17_3 C16_3 1_555 1_555
H9_3 C17_3 1_555 1_555
C18_3 C17_3 1_555 1_555
H10_3 C18_3 1_555 1_555
C19_3 S2_3 1_555 1_555
C20_3 C19_3 1_555 1_555
H11_3 C20_3 1_555 1_555
C21_3 C16_3 1_555 1_555
H12_3 C21_3 1_555 1_555
C29_3 O13_3 1_555 1_555
C30_3 C29_3 1_555 1_555
C31_3 C30_3 1_555 1_555
C33_3 S3_3 1_555 1_555
C34_3 C33_3 1_555 1_555
H19_3 C34_3 1_555 1_555
C35_3 C30_3 1_555 1_555
H20_3 C35_3 1_555 1_555
C36_3 S3_3 1_555 1_555
C41_3 C36_3 1_555 1_555
H24_3 C41_3 1_555 1_555
C43_3 O11_3 1_555 1_555
H25_3 C43_3 1_555 1_555
H26_3 C43_3 1_555 1_555
H27_3 C43_3 1_555 1_555
C44_2 C45_2 1_555 1_555
C46_2 N1_2 1_555 1_555
C47_2 N1_2 1_555 1_555
Co6 O5_2 1_555 1_555
Co8 O5_2 1_555 1_555
O23_2 Co6_2 1_555 1_555
O24_2 Co6_2 1_555 1_555
O26_2 Co8_2 1_555 1_555
O27_2 Co3_2 1_555 1_555
Co8_2 O24_2 1_555 1_555
O8_3 C1_3 1_555 1_555
O10_2 Co8 1_555 1_555
C4_3 C5_3 1_555 1_555
C6_3 C7_3 1_555 1_555
C18_3 C19_3 1_555 1_555
C20_3 C21_3 1_555 1_555
C34_3 C35_3 1_555 1_555
C47_2 H34_2 1_555 1_555
C47_2 H35_2 1_555 1_555
C47_2 H36_2 1_555 1_555
C44_2 H40_2 1_555 1_555
C44_2 H41_2 1_555 1_555
C44_2 H42_2 1_555 1_555
C46_2 H43_2 1_555 1_555
C46_2 H44_2 1_555 1_555
C46_2 H45_2 1_555 1_555
Co6 O4_2 1_555 1_555
Co9_2 O12_4 1_555 1_555
S2_4 O18_4 1_555 1_555
N2_2 C48_2 1_555 1_555
O23_2 C28_4 1_555 1_555
O12_4 C15_4 1_555 1_555
O14_2 Co9_2 1_555 1_555
O27_2 C28_4 1_555 1_555
O19_3 S2_4 1_555 1_555
C15_4 O3_4 1_555 1_555
C16_4 C15_4 1_555 1_555
C17_4 C16_4 1_555 1_555
H9_4 C17_4 1_555 1_555
C18_4 C17_4 1_555 1_555
H10_4 C18_4 1_555 1_555
C19_4 S2_4 1_555 1_555
C20_4 C19_4 1_555 1_555
H11_4 C20_4 1_555 1_555
C21_4 C16_4 1_555 1_555
H12_4 C21_4 1_555 1_555
C22_4 S2_4 1_555 1_555
C23_4 C22_4 1_555 1_555
H13_4 C23_4 1_555 1_555
C24_4 C23_4 1_555 1_555
H14_4 C24_4 1_555 1_555
C25_4 C24_4 1_555 1_555
C26_4 C25_4 1_555 1_555
H15_4 C26_4 1_555 1_555
C27_4 C22_4 1_555 1_555
H16_4 C27_4 1_555 1_555
C28_4 C25_4 1_555 1_555
C48_2 O14_2 1_555 1_555
C49_2 C48_2 1_555 1_555
C50_2 N2_2 1_555 1_555
C51_2 N2_2 1_555 1_555
C18_4 C19_4 1_555 1_555
C20_4 C21_4 1_555 1_555
C26_4 C27_4 1_555 1_555
C51_2 H28_2 1_555 1_555
C51_2 H29_2 1_555 1_555
C51_2 H30_2 1_555 1_555
C50_2 H31_2 1_555 1_555
C50_2 H32_2 1_555 1_555
C50_2 H33_2 1_555 1_555
C49_2 H37_2 1_555 1_555
C49_2 H38_4 1_555 1_555
C49_2 H39_2 1_555 1_555
Co6 O2_4 1_555 1_555
S1_2 O16_2 1_555 1_555
S3_4 O20_2 1_555 1_555
O22 C42_4 1_555 1_555
O2_4 C29_4 1_555 1_555
O6_4 Co6 1_555 1_555
O8_4 Co8 1_555 1_555
O25 C42_4 1_555 1_555
O11_4 Co8 1_555 1_555
O17_2 S1_2 1_555 1_555
O21_4 S3_4 1_555 1_555
C1_4 O6_4 1_555 1_555
C2_4 C1_4 1_555 1_555
C3_4 C2_4 1_555 1_555
H1_4 C3_4 1_555 1_555
C4_4 C3_4 1_555 1_555
H2_4 C4_4 1_555 1_555
C5_4 S1_2 1_555 1_555
C6_4 C5_4 1_555 1_555
H3_4 C6_4 1_555 1_555
C7_4 C2_4 1_555 1_555
H4_4 C7_4 1_555 1_555
C8_2 S1_2 1_555 1_555
C9_2 C8_2 1_555 1_555
H5_2 C9_2 1_555 1_555
C10_2 C9_2 1_555 1_555
H6_2 C10_2 1_555 1_555
C11_4 C10_2 1_555 1_555
C12_2 C11_4 1_555 1_555
C13_2 C8_2 1_555 1_555
H8_2 C13_2 1_555 1_555
C29_4 O13_4 1_555 1_555
C30_4 C29_4 1_555 1_555
C31_4 C30_4 1_555 1_555
H17_2 C31_4 1_555 1_555
C32_2 C31_4 1_555 1_555
H18_2 C32_2 1_555 1_555
C33_4 S3_4 1_555 1_555
C34_4 C33_4 1_555 1_555
H19_4 C34_4 1_555 1_555
C35_4 C30_4 1_555 1_555
H20_4 C35_4 1_555 1_555
C36_4 S3_4 1_555 1_555
C37_2 C36_4 1_555 1_555
H21_2 C37_2 1_555 1_555
C38_2 C37_2 1_555 1_555
H22_2 C38_2 1_555 1_555
C39_2 C38_2 1_555 1_555
C40_2 C39_2 1_555 1_555
H23_2 C40_2 1_555 1_555
C41_4 C36_4 1_555 1_555
H24_4 C41_4 1_555 1_555
C42_4 C39_2 1_555 1_555
C43_4 O11_4 1_555 1_555
H25_4 C43_4 1_555 1_555
H26_4 C43_4 1_555 1_555
H27_4 C43_4 1_555 1_555
O8_4 C1_4 1_555 1_555
C4_4 C5_4 1_555 1_555
C6_4 C7_4 1_555 1_555
C12_2 C13_2 1_555 1_555
C32_2 C33_4 1_555 1_555
C34_4 C35_4 1_555 1_555
C40_2 C41_4 1_555 1_555
O24_2 C14_4 1_555 1_555
O26_2 C14_4 1_555 1_555
N2_3 C48_3 1_555 1_555
H18_3 C32_3 1_555 1_555
H21_3 C37_3 1_555 1_555
C38_3 C37_3 1_555 1_555
H22_3 C38_3 1_555 1_555
C39_3 C38_3 1_555 1_555
C48_3 O14_3 1_555 1_555
C49_3 C48_3 1_555 1_555
C50_3 N2_3 1_555 1_555
C51_3 N2_3 1_555 1_555
C51_3 H28_3 1_555 1_555
C51_3 H29_3 1_555 1_555
C51_3 H30_3 1_555 1_555
C50_3 H31_3 1_555 1_555
C50_3 H32_3 1_555 1_555
C50_3 H33_3 1_555 1_555
C49_3 H37_3 1_555 1_555
C49_3 H39_3 1_555 1_555
S1_3 O16_3 1_555 1_555
O17_3 S1_3 1_555 1_555
C8_3 S1_3 1_555 1_555
C9_3 C8_3 1_555 1_555
H5_3 C9_3 1_555 1_555
C10_3 C9_3 1_555 1_555
H6_3 C10_3 1_555 1_555
C13_3 C8_3 1_555 1_555
H8_3 C13_3 1_555 1_555
H23_3 C40_3 1_555 1_555
C12_3 C13_3 1_555 1_555
N1_3 C45_3 1_555 1_555
O7_3 C45_3 1_555 1_555
C44_3 C45_3 1_555 1_555
C46_3 N1_3 1_555 1_555
C47_3 N1_3 1_555 1_555
C47_3 H34_3 1_555 1_555
C47_3 H35_3 1_555 1_555
C47_3 H36_3 1_555 1_555
C44_3 H40_3 1_555 1_555
C44_3 H41_3 1_555 1_555
C44_3 H42_3 1_555 1_555
C46_3 H43_3 1_555 1_555
C46_3 H44_3 1_555 1_555
C46_3 H45_3 1_555 1_555
S1_4 O16_4 1_555 1_555
O17_4 S1_4 1_555 1_555
C8_4 S1_4 1_555 1_555
C9_4 C8_4 1_555 1_555
H5_4 C9_4 1_555 1_555
C10_4 C9_4 1_555 1_555
H6_4 C10_4 1_555 1_555
C13_4 C8_4 1_555 1_555
H8_4 C13_4 1_555 1_555
H23_4 C40_4 1_555 1_555
C12_4 C13_4 1_555 1_555
N2_4 C48_4 1_555 1_555
H18_4 C32_4 1_555 1_555
H21_4 C37_4 1_555 1_555
C38_4 C37_4 1_555 1_555
H22_4 C38_4 1_555 1_555
C39_4 C38_4 1_555 1_555
C48_4 O14_4 1_555 1_555
C49_4 C48_4 1_555 1_555
C50_4 N2_4 1_555 1_555
C51_4 N2_4 1_555 1_555
C51_4 H28_4 1_555 1_555
C51_4 H29_4 1_555 1_555
C51_4 H30_4 1_555 1_555
C50_4 H31_4 1_555 1_555
C50_4 H32_4 1_555 1_555
C50_4 H33_4 1_555 1_555
C49_4 H37_4 1_555 1_555
C49_4 H39_4 1_555 1_555
N1_4 C45_4 1_555 1_555
O7_4 C45_4 1_555 1_555
C44_4 C45_4 1_555 1_555
C46_4 N1_4 1_555 1_555
C47_4 N1_4 1_555 1_555
C47_4 H34_4 1_555 1_555
C47_4 H35_4 1_555 1_555
C47_4 H36_4 1_555 1_555
C44_4 H40_4 1_555 1_555
C44_4 H41_4 1_555 1_555
C44_4 H42_4 1_555 1_555
C46_4 H43_4 1_555 1_555
C46_4 H44_4 1_555 1_555
C46_4 H45_4 1_555 1_555

#END
