
###############################################################################
#
# This file contains modified crystal structure data generated from the
# MOF subset of the Cambridge Structural Database (CSD) v543 
# hosted by the Cambridge Crystallographic Data Centre (CCDC).
#
# This work is licensed under the Creative Commons
# Attribution-NonCommercial-ShareAlike 4.0 International License.
# To view a copy of this license, visit
# http://creativecommons.org/licenses/by-nc-sa/4.0/
# or send a letter to
# Creative Commons, PO Box 1866, Mountain View, CA 94042, USA.
#
# CIF created using the CSD Python API on 29 September 2022
# The structure has been converted into the P1 space group
# The structure has a 3D framework
# The original CSD entry COWRUC is in the tetragonal crystal system
# The framework has been calculated to contain at least 10.0% void space
# The void calculation uses a probe of radius 1.32A, grid spacing 0.4
#
###############################################################################

data_COWRUC
_chemical_formula_moiety         '(C96 Ag20 F144 N82)n'
_symmetry_cell_setting           triclinic
_symmetry_space_group_name_H-M   'P 1'
_symmetry_Int_Tables_number      1
_space_group_name_Hall           'P 1'
loop_
_symmetry_equiv_pos_site_id
_symmetry_equiv_pos_as_xyz
1 x,y,z
_cell_length_a                   14.726(2)
_cell_length_b                   14.726(2)
_cell_length_c                   35.593(10)
_cell_angle_alpha                90
_cell_angle_beta                 90
_cell_angle_gamma                90
_cell_volume                     7718.52
loop_
_atom_site_label
_atom_site_type_symbol
_atom_site_fract_x
_atom_site_fract_y
_atom_site_fract_z
Ag1 Ag 0.0000 0.5000 0.420303(17)
Ag2 Ag 0.11059(3) 0.37573(3) 0.255997(12)
N1 N 0.0000 0.5000 0.3564(2)
F3 F 0.0421(3) 0.2827(3) 0.33739(13)
Ag7 Ag 0.12427(3) 0.61059(3) 0.244003(12)
Ag8 Ag 0.37573(3) 0.61059(3) 0.505997(12)
Ag9 Ag 0.38941(3) 0.37573(3) 0.494003(12)
N6 N 0.0089(3) 0.5459(3) 0.29627(13)
N7 N 0.0459(3) 0.4911(3) 0.20373(13)
N9 N 0.1343(3) 0.4945(3) 0.45143(13)
N10 N 0.2594(3) 0.5373(3) 0.48332(14)
N11 N 0.0373(3) 0.2594(3) 0.23332(14)
N13 N 0.2703(3) 0.4479(3) 0.47284(14)
N14 N 0.2297(3) 0.4479(3) 0.27716(14)
C7 C 0.0131(4) 0.5694(4) 0.33204(16)
C8 C 0.0309(4) 0.6652(4) 0.34371(16)
C9 C 0.1791(4) 0.5614(4) 0.47022(17)
C10 C 0.1959(4) 0.4268(4) 0.45342(18)
C11 C 0.1813(5) 0.3351(5) 0.4369(2)
C12 C 0.1409(4) 0.6545(4) 0.4762(2)
F10 F 0.0983(3) 0.7014(3) 0.32359(12)
F11 F 0.0520(3) 0.6721(2) 0.37958(11)
F13 F 0.2553(3) 0.2889(3) 0.43347(16)
F14 F 0.1281(5) 0.2849(4) 0.4571(3)
F15 F 0.1431(7) 0.3407(4) 0.4047(3)
F16 F 0.1847(6) 0.7132(4) 0.4570(4)
F17 F 0.0593(3) 0.6634(3) 0.46486(19)
F18 F 0.1517(7) 0.6825(5) 0.5089(2)
Ag1_2 Ag 1.0000 0.5000 0.420303(17)
N1_2 N 1.0000 0.5000 0.3564(2)
N2 N 0.9911(3) 0.4541(3) 0.29627(13)
N3 N 0.8657(3) 0.5055(3) 0.45143(13)
N4 N 0.7406(3) 0.4627(3) 0.48332(14)
N5 N 0.7297(3) 0.5521(3) 0.47284(14)
C1 C 0.9869(4) 0.4306(4) 0.33204(16)
C2 C 0.9691(4) 0.3348(4) 0.34371(16)
C3 C 0.8209(4) 0.4386(4) 0.47022(17)
C4 C 0.8041(4) 0.5732(4) 0.45342(18)
C5 C 0.8187(5) 0.6649(5) 0.4369(2)
C6 C 0.8591(4) 0.3455(4) 0.4762(2)
F1 F 0.9017(3) 0.2986(3) 0.32359(12)
F2 F 0.9480(3) 0.3279(2) 0.37958(11)
F4 F 0.7447(3) 0.7111(3) 0.43347(16)
F5 F 0.8719(5) 0.7151(4) 0.4571(3)
F6 F 0.8569(7) 0.6593(4) 0.4047(3)
F7 F 0.8153(6) 0.2868(4) 0.4570(4)
F8 F 0.9407(3) 0.3366(3) 0.46486(19)
F9 F 0.8483(7) 0.3175(5) 0.5089(2)
Ag3 Ag 0.88941(3) 0.62427(3) 0.255997(12)
Ag4 Ag 0.87573(3) 0.38941(3) 0.244003(12)
Ag5 Ag 0.62427(3) 0.38941(3) 0.505997(12)
Ag6 Ag 0.61059(3) 0.62427(3) 0.494003(12)
N8 N 0.9541(3) 0.5089(3) 0.20373(13)
N12 N 0.9627(3) 0.7406(3) 0.23332(14)
N15 N 0.7703(3) 0.5521(3) 0.27716(14)
F12 F 0.9579(3) 0.7173(3) 0.33739(13)
Ag1_3 Ag 0.5000 0.0000 0.579697(17)
N1_3 N 0.5000 0.0000 0.6436(2)
N2_2 N 0.4541(3) 0.0089(3) 0.70373(13)
N3_2 N 0.5055(3) 0.1343(3) 0.54857(13)
N4_2 N 0.4627(3) 0.2594(3) 0.51668(14)
N5_2 N 0.5521(3) 0.2703(3) 0.52716(14)
C1_2 C 0.4306(4) 0.0131(4) 0.66796(16)
C2_2 C 0.3348(4) 0.0309(4) 0.65629(16)
C3_2 C 0.4386(4) 0.1791(4) 0.52978(17)
C4_2 C 0.5732(4) 0.1959(4) 0.54658(18)
C5_2 C 0.6649(5) 0.1813(5) 0.5631(2)
C6_2 C 0.3455(4) 0.1409(4) 0.5238(2)
F1_2 F 0.2986(3) 0.0983(3) 0.67641(12)
F2_2 F 0.3279(2) 0.0520(3) 0.62042(11)
F4_2 F 0.7111(3) 0.2553(3) 0.56653(16)
F5_2 F 0.7151(4) 0.1281(5) 0.5429(3)
F6_2 F 0.6593(4) 0.1431(7) 0.5953(3)
F7_2 F 0.2868(4) 0.1847(6) 0.5430(4)
F8_2 F 0.3366(3) 0.0593(3) 0.53514(19)
F9_2 F 0.3175(5) 0.1517(7) 0.4911(2)
Ag3_2 Ag 0.62427(3) 0.11059(3) 0.744003(12)
Ag4_2 Ag 0.38941(3) 0.12427(3) 0.755997(12)
N8_2 N 0.5089(3) 0.0459(3) 0.79627(13)
N12_2 N 0.7406(3) 0.0373(3) 0.76668(14)
N15_2 N 0.5521(3) 0.2297(3) 0.72284(14)
F12_2 F 0.7173(3) 0.0421(3) 0.66261(13)
Ag1_4 Ag 0.5000 1.0000 0.579697(17)
Ag2_2 Ag 0.37573(3) 0.88941(3) 0.744003(12)
N1_4 N 0.5000 1.0000 0.6436(2)
F3_2 F 0.2827(3) 0.9579(3) 0.66261(13)
Ag7_2 Ag 0.61059(3) 0.87573(3) 0.755997(12)
N6_2 N 0.5459(3) 0.9911(3) 0.70373(13)
N7_2 N 0.4911(3) 0.9541(3) 0.79627(13)
N9_2 N 0.4945(3) 0.8657(3) 0.54857(13)
N10_2 N 0.5373(3) 0.7406(3) 0.51668(14)
N11_2 N 0.2594(3) 0.9627(3) 0.76668(14)
N13_2 N 0.4479(3) 0.7297(3) 0.52716(14)
N14_2 N 0.4479(3) 0.7703(3) 0.72284(14)
C7_2 C 0.5694(4) 0.9869(4) 0.66796(16)
C8_2 C 0.6652(4) 0.9691(4) 0.65629(16)
C9_2 C 0.5614(4) 0.8209(4) 0.52978(17)
C10_2 C 0.4268(4) 0.8041(4) 0.54658(18)
C11_2 C 0.3351(5) 0.8187(5) 0.5631(2)
C12_2 C 0.6545(4) 0.8591(4) 0.5238(2)
F10_2 F 0.7014(3) 0.9017(3) 0.67641(12)
F11_2 F 0.6721(2) 0.9480(3) 0.62042(11)
F13_2 F 0.2889(3) 0.7447(3) 0.56653(16)
F14_2 F 0.2849(4) 0.8719(5) 0.5429(3)
F15_2 F 0.3407(4) 0.8569(7) 0.5953(3)
F16_2 F 0.7132(4) 0.8153(6) 0.5430(4)
F17_2 F 0.6634(3) 0.9407(3) 0.53514(19)
F18_2 F 0.6825(5) 0.8483(7) 0.4911(2)
Ag1_5 Ag 0.5000 0.5000 0.329697(17)
N1_5 N 0.5000 0.5000 0.3936(2)
N2_3 N 0.5089(3) 0.4541(3) 0.45373(13)
N3_3 N 0.6343(3) 0.5055(3) 0.29857(13)
N4_3 N 0.7594(3) 0.4627(3) 0.26668(14)
C1_3 C 0.5131(4) 0.4306(4) 0.41796(16)
C2_3 C 0.5309(4) 0.3348(4) 0.40629(16)
C3_3 C 0.6791(4) 0.4386(4) 0.27978(17)
C4_3 C 0.6959(4) 0.5732(4) 0.29658(18)
C5_3 C 0.6813(5) 0.6649(5) 0.3131(2)
C6_3 C 0.6409(4) 0.3455(4) 0.2738(2)
F1_3 F 0.5983(3) 0.2986(3) 0.42641(12)
F2_3 F 0.5520(3) 0.3279(2) 0.37042(11)
F3_3 F 0.4579(3) 0.2827(3) 0.41261(13)
F4_3 F 0.7553(3) 0.7111(3) 0.31653(16)
F5_3 F 0.6281(5) 0.7151(4) 0.2929(3)
F6_3 F 0.6431(7) 0.6593(4) 0.3453(3)
F7_3 F 0.6847(6) 0.2868(4) 0.2930(4)
F8_3 F 0.5593(3) 0.3366(3) 0.28514(19)
F9_3 F 0.6517(7) 0.3175(5) 0.2411(2)
N6_3 N 0.4911(3) 0.5459(3) 0.45373(13)
N7_3 N 0.4541(3) 0.4911(3) 0.54627(13)
N8_3 N 0.5459(3) 0.5089(3) 0.54627(13)
N9_3 N 0.3657(3) 0.4945(3) 0.29857(13)
N10_3 N 0.2406(3) 0.5373(3) 0.26668(14)
C7_3 C 0.4869(4) 0.5694(4) 0.41796(16)
C8_3 C 0.4691(4) 0.6652(4) 0.40629(16)
C9_3 C 0.3209(4) 0.5614(4) 0.27978(17)
C10_3 C 0.3041(4) 0.4268(4) 0.29658(18)
C11_3 C 0.3187(5) 0.3351(5) 0.3131(2)
C12_3 C 0.3591(4) 0.6545(4) 0.2738(2)
F10_3 F 0.4017(3) 0.7014(3) 0.42641(12)
F11_3 F 0.4480(3) 0.6721(2) 0.37042(11)
F12_3 F 0.5421(3) 0.7173(3) 0.41261(13)
F13_3 F 0.2447(3) 0.2889(3) 0.31653(16)
F14_3 F 0.3719(5) 0.2849(4) 0.2929(3)
F15_3 F 0.3569(7) 0.3407(4) 0.3453(3)
F16_3 F 0.3153(6) 0.7132(4) 0.2930(4)
F17_3 F 0.4407(3) 0.6634(3) 0.28514(19)
F18_3 F 0.3483(7) 0.6825(5) 0.2411(2)
Ag1_6 Ag 0.0000 -0.0000 0.170303(17)
N1_6 N -0.0000 -0.0000 0.1064(2)
N2_4 N 0.0459(3) 0.0089(3) 0.04627(13)
C1_4 C 0.0694(4) 0.0131(4) 0.08204(16)
C2_4 C 0.1652(4) 0.0309(4) 0.09371(16)
C3_4 C 0.0614(4) 0.1791(4) 0.22022(17)
C6_4 C 0.1545(4) 0.1409(4) 0.2262(2)
F1_4 F 0.2014(3) 0.0983(3) 0.07359(12)
F2_4 F 0.1721(2) 0.0520(3) 0.12958(11)
F7_4 F 0.2132(4) 0.1847(6) 0.2070(4)
F8_4 F 0.1634(3) 0.0593(3) 0.21486(19)
F9_4 F 0.1825(5) 0.1517(7) 0.2589(2)
Ag4_3 Ag 0.11059(3) 0.12427(3) 0.994003(12)
Ag1_7 Ag 0.0000 1.0000 0.170303(17)
Ag2_3 Ag 0.12427(3) 0.88941(3) 0.005997(12)
N1_7 N -0.0000 1.0000 0.1064(2)
F3_4 F 0.2173(3) 0.9579(3) 0.08739(13)
N9_4 N 0.0055(3) 0.8657(3) 0.20143(13)
N13_3 N 0.0521(3) 0.7297(3) 0.22284(14)
N14_3 N 0.0521(3) 0.7703(3) 0.02716(14)
C10_4 C 0.0732(4) 0.8041(4) 0.20342(18)
C11_4 C 0.1649(5) 0.8187(5) 0.1869(2)
F13_4 F 0.2111(3) 0.7447(3) 0.18347(16)
F14_4 F 0.2151(4) 0.8719(5) 0.2071(3)
F15_4 F 0.1593(4) 0.8569(7) 0.1547(3)
N7_4 N 0.0089(3) 0.9541(3) 0.95373(13)
N11_3 N 0.2406(3) 0.9627(3) 0.98332(14)
Ag1_8 Ag 1.0000 -0.0000 0.170303(17)
N1_8 N 1.0000 -0.0000 0.1064(2)
N3_4 N 0.9945(3) 0.1343(3) 0.20143(13)
N5_3 N 0.9479(3) 0.2703(3) 0.22284(14)
C4_4 C 0.9268(4) 0.1959(4) 0.20342(18)
C5_4 C 0.8351(5) 0.1813(5) 0.1869(2)
F4_4 F 0.7889(3) 0.2553(3) 0.18347(16)
F5_4 F 0.7849(4) 0.1281(5) 0.2071(3)
F6_4 F 0.8407(4) 0.1431(7) 0.1547(3)
Ag3_3 Ag 0.87573(3) 0.11059(3) 0.005997(12)
N15_3 N 0.9479(3) 0.2297(3) 0.02716(14)
F12_4 F 0.7827(3) 0.0421(3) 0.08739(13)
N8_4 N 0.9911(3) 0.0459(3) 0.95373(13)
N12_3 N 0.7594(3) 0.0373(3) 0.98332(14)
Ag1_9 Ag 1.0000 1.0000 0.170303(17)
N1_9 N 1.0000 1.0000 0.1064(2)
N6_4 N 0.9541(3) 0.9911(3) 0.04627(13)
C7_4 C 0.9306(4) 0.9869(4) 0.08204(16)
C8_4 C 0.8348(4) 0.9691(4) 0.09371(16)
C9_4 C 0.9386(4) 0.8209(4) 0.22022(17)
C12_4 C 0.8455(4) 0.8591(4) 0.2262(2)
F10_4 F 0.7986(3) 0.9017(3) 0.07359(12)
F11_4 F 0.8279(2) 0.9480(3) 0.12958(11)
F16_4 F 0.7868(4) 0.8153(6) 0.2070(4)
F17_4 F 0.8366(3) 0.9407(3) 0.21486(19)
F18_4 F 0.8175(5) 0.8483(7) 0.2589(2)
Ag7_3 Ag 0.88941(3) 0.87573(3) 0.994003(12)
F18_5 F 0.6517(7) 0.1825(5) 0.0089(2)
Ag1_10 Ag 0.5000 0.0000 0.920303(17)
N1_10 N 0.5000 0.0000 0.8564(2)
N3_5 N 0.3657(3) 0.0055(3) 0.95143(13)
N5_4 N 0.2297(3) 0.0521(3) 0.97284(14)
C4_5 C 0.3041(4) 0.0732(4) 0.95342(18)
C5_5 C 0.3187(5) 0.1649(5) 0.9369(2)
F4_5 F 0.2447(3) 0.2111(3) 0.93347(16)
F5_5 F 0.3719(5) 0.2151(4) 0.9571(3)
F6_5 F 0.3569(7) 0.1593(4) 0.9047(3)
N12_4 N 0.4627(3) 0.2406(3) 0.73332(14)
N15_4 N 0.2703(3) 0.0521(3) 0.77716(14)
C7_5 C 0.5131(4) 0.0694(4) 0.83204(16)
C8_5 C 0.5309(4) 0.1652(4) 0.84371(16)
C9_5 C 0.6791(4) 0.0614(4) 0.97022(17)
C12_5 C 0.6409(4) 0.1545(4) 0.9762(2)
F10_5 F 0.5983(3) 0.2014(3) 0.82359(12)
F11_5 F 0.5520(3) 0.1721(2) 0.87958(11)
F12_5 F 0.4579(3) 0.2173(3) 0.83739(13)
F16_5 F 0.6847(6) 0.2132(4) 0.9570(4)
F17_5 F 0.5593(3) 0.1634(3) 0.96486(19)
F9_5 F 0.3483(7) 0.8175(5) 0.0089(2)
Ag1_11 Ag 0.5000 1.0000 0.920303(17)
N1_11 N 0.5000 1.0000 0.8564(2)
C1_5 C 0.4869(4) 0.9306(4) 0.83204(16)
C2_5 C 0.4691(4) 0.8348(4) 0.84371(16)
C3_5 C 0.3209(4) 0.9386(4) 0.97022(17)
C6_5 C 0.3591(4) 0.8455(4) 0.9762(2)
F1_5 F 0.4017(3) 0.7986(3) 0.82359(12)
F2_5 F 0.4480(3) 0.8279(2) 0.87958(11)
F3_5 F 0.5421(3) 0.7827(3) 0.83739(13)
F7_5 F 0.3153(6) 0.7868(4) 0.9570(4)
F8_5 F 0.4407(3) 0.8366(3) 0.96486(19)
N9_5 N 0.6343(3) 0.9945(3) 0.95143(13)
N11_4 N 0.5373(3) 0.7594(3) 0.73332(14)
N13_4 N 0.7703(3) 0.9479(3) 0.97284(14)
N14_4 N 0.7297(3) 0.9479(3) 0.77716(14)
C10_5 C 0.6959(4) 0.9268(4) 0.95342(18)
C11_5 C 0.6813(5) 0.8351(5) 0.9369(2)
F13_5 F 0.7553(3) 0.7889(3) 0.93347(16)
F14_5 F 0.6281(5) 0.7849(4) 0.9571(3)
F15_5 F 0.6431(7) 0.8407(4) 0.9047(3)
Ag1_12 Ag 0.0000 0.5000 0.079697(17)
N1_12 N 0.0000 0.5000 0.1436(2)
N3_6 N 0.0055(3) 0.6343(3) 0.04857(13)
C4_6 C 0.0732(4) 0.6959(4) 0.04658(18)
C5_6 C 0.1649(5) 0.6813(5) 0.0631(2)
F4_6 F 0.2111(3) 0.7553(3) 0.06653(16)
F5_6 F 0.2151(4) 0.6281(5) 0.0429(3)
F6_6 F 0.1593(4) 0.6431(7) 0.0953(3)
N10_4 N 0.0373(3) 0.2406(3) 0.01668(14)
C7_6 C 0.0694(4) 0.4869(4) 0.16796(16)
C8_6 C 0.1652(4) 0.4691(4) 0.15629(16)
C9_6 C 0.0614(4) 0.3209(4) 0.02978(17)
C12_6 C 0.1545(4) 0.3591(4) 0.0238(2)
F10_6 F 0.2014(3) 0.4017(3) 0.17641(12)
F11_6 F 0.1721(2) 0.4480(3) 0.12042(11)
F12_6 F 0.2173(3) 0.5421(3) 0.16261(13)
F16_6 F 0.2132(4) 0.3153(6) 0.0430(4)
F17_6 F 0.1634(3) 0.4407(3) 0.03514(19)
F18_6 F 0.1825(5) 0.3483(7) 0.9911(2)
Ag1_13 Ag 1.0000 0.5000 0.079697(17)
N1_13 N 1.0000 0.5000 0.1436(2)
N4_4 N 0.9627(3) 0.7594(3) 0.01668(14)
C1_6 C 0.9306(4) 0.5131(4) 0.16796(16)
C2_6 C 0.8348(4) 0.5309(4) 0.15629(16)
C3_6 C 0.9386(4) 0.6791(4) 0.02978(17)
C6_6 C 0.8455(4) 0.6409(4) 0.0238(2)
F1_6 F 0.7986(3) 0.5983(3) 0.17641(12)
F2_6 F 0.8279(2) 0.5520(3) 0.12042(11)
F3_6 F 0.7827(3) 0.4579(3) 0.16261(13)
F7_6 F 0.7868(4) 0.6847(6) 0.0430(4)
F8_6 F 0.8366(3) 0.5593(3) 0.03514(19)
N9_6 N 0.9945(3) 0.3657(3) 0.04857(13)
C10_6 C 0.9268(4) 0.3041(4) 0.04658(18)
C11_6 C 0.8351(5) 0.3187(5) 0.0631(2)
F13_6 F 0.7889(3) 0.2447(3) 0.06653(16)
F14_6 F 0.7849(4) 0.3719(5) 0.0429(3)
F15_6 F 0.8407(4) 0.3569(7) 0.0953(3)
F9_6 F 0.8175(5) 0.6517(7) 0.9911(2)
Ag1_14 Ag 0.0000 0.0000 0.829697(17)
N1_14 N 0.0000 0.0000 0.8936(2)
N3_7 N 0.1343(3) 0.0055(3) 0.79857(13)
C4_7 C 0.1959(4) 0.0732(4) 0.79658(18)
C5_7 C 0.1813(5) 0.1649(5) 0.8131(2)
F4_7 F 0.2553(3) 0.2111(3) 0.81653(16)
F5_7 F 0.1281(5) 0.2151(4) 0.7929(3)
F6_7 F 0.1431(7) 0.1593(4) 0.8453(3)
F12_7 F 0.0421(3) 0.2173(3) 0.91261(13)
Ag1_15 Ag 0.0000 1.0000 0.829697(17)
N1_15 N 0.0000 1.0000 0.8936(2)
C1_7 C 0.0131(4) 0.9306(4) 0.91796(16)
C2_7 C 0.0309(4) 0.8348(4) 0.90629(16)
C3_7 C 0.1791(4) 0.9386(4) 0.77978(17)
C6_7 C 0.1409(4) 0.8455(4) 0.7738(2)
F1_7 F 0.0983(3) 0.7986(3) 0.92641(12)
F2_7 F 0.0520(3) 0.8279(2) 0.87042(11)
F7_7 F 0.1847(6) 0.7868(4) 0.7930(4)
F8_7 F 0.0593(3) 0.8366(3) 0.78514(19)
F9_7 F 0.1517(7) 0.8175(5) 0.7411(2)
Ag1_16 Ag 1.0000 0.0000 0.829697(17)
N1_16 N 1.0000 0.0000 0.8936(2)
C7_7 C 0.9869(4) 0.0694(4) 0.91796(16)
C8_7 C 0.9691(4) 0.1652(4) 0.90629(16)
C9_7 C 0.8209(4) 0.0614(4) 0.77978(17)
C12_7 C 0.8591(4) 0.1545(4) 0.7738(2)
F10_7 F 0.9017(3) 0.2014(3) 0.92641(12)
F11_7 F 0.9480(3) 0.1721(2) 0.87042(11)
F16_7 F 0.8153(6) 0.2132(4) 0.7930(4)
F17_7 F 0.9407(3) 0.1634(3) 0.78514(19)
F18_7 F 0.8483(7) 0.1825(5) 0.7411(2)
Ag1_17 Ag 1.0000 1.0000 0.829697(17)
N1_17 N 1.0000 1.0000 0.8936(2)
F3_7 F 0.9579(3) 0.7827(3) 0.91261(13)
N9_7 N 0.8657(3) 0.9945(3) 0.79857(13)
C10_7 C 0.8041(4) 0.9268(4) 0.79658(18)
C11_7 C 0.8187(5) 0.8351(5) 0.8131(2)
F13_7 F 0.7447(3) 0.7889(3) 0.81653(16)
F14_7 F 0.8719(5) 0.7849(4) 0.7929(3)
F15_7 F 0.8569(7) 0.8407(4) 0.8453(3)
Ag1_18 Ag 0.5000 0.5000 0.670303(17)
N1_18 N 0.5000 0.5000 0.6064(2)
N3_8 N 0.4945(3) 0.6343(3) 0.70143(13)
C1_8 C 0.5694(4) 0.5131(4) 0.58204(16)
C2_8 C 0.6652(4) 0.5309(4) 0.59371(16)
C3_8 C 0.5614(4) 0.6791(4) 0.72022(17)
C4_8 C 0.4268(4) 0.6959(4) 0.70342(18)
C5_8 C 0.3351(5) 0.6813(5) 0.6869(2)
C6_8 C 0.6545(4) 0.6409(4) 0.7262(2)
F1_8 F 0.7014(3) 0.5983(3) 0.57359(12)
F2_8 F 0.6721(2) 0.5520(3) 0.62958(11)
F3_8 F 0.7173(3) 0.4579(3) 0.58739(13)
F4_8 F 0.2889(3) 0.7553(3) 0.68347(16)
F5_8 F 0.2849(4) 0.6281(5) 0.7071(3)
F6_8 F 0.3407(4) 0.6431(7) 0.6547(3)
F7_8 F 0.7132(4) 0.6847(6) 0.7070(4)
F8_8 F 0.6634(3) 0.5593(3) 0.71486(19)
F9_8 F 0.6825(5) 0.6517(7) 0.7589(2)
N9_8 N 0.5055(3) 0.3657(3) 0.70143(13)
C7_8 C 0.4306(4) 0.4869(4) 0.58204(16)
C8_8 C 0.3348(4) 0.4691(4) 0.59371(16)
C9_8 C 0.4386(4) 0.3209(4) 0.72022(17)
C10_8 C 0.5732(4) 0.3041(4) 0.70342(18)
C11_8 C 0.6649(5) 0.3187(5) 0.6869(2)
C12_8 C 0.3455(4) 0.3591(4) 0.7262(2)
F10_8 F 0.2986(3) 0.4017(3) 0.57359(12)
F11_8 F 0.3279(2) 0.4480(3) 0.62958(11)
F12_8 F 0.2827(3) 0.5421(3) 0.58739(13)
F13_8 F 0.7111(3) 0.2447(3) 0.68347(16)
F14_8 F 0.7151(4) 0.3719(5) 0.7071(3)
F15_8 F 0.6593(4) 0.3569(7) 0.6547(3)
F16_8 F 0.2868(4) 0.3153(6) 0.7070(4)
F17_8 F 0.3366(3) 0.4407(3) 0.71486(19)
F18_8 F 0.3175(5) 0.3483(7) 0.7589(2)
loop_
_geom_bond_atom_site_label_1
_geom_bond_atom_site_label_2
_geom_bond_site_symmetry_1
_geom_bond_site_symmetry_2
Ag1 N1 1_555 1_555
Ag7 N6 1_555 1_555
Ag8 N10 1_555 1_555
Ag9 N13 1_555 1_555
N7 Ag2 1_555 1_555
N9 Ag1 1_555 1_555
N10 N13 1_555 1_555
N11 Ag2 1_555 1_555
N13 C10 1_555 1_555
N14 Ag2 1_555 1_555
C7 N1 1_555 1_555
C8 C7 1_555 1_555
C9 N9 1_555 1_555
C10 N9 1_555 1_555
C11 C10 1_555 1_555
C12 C9 1_555 1_555
F10 C8 1_555 1_555
F11 C8 1_555 1_555
F13 C11 1_555 1_555
F14 C11 1_555 1_555
F15 C11 1_555 1_555
F16 C12 1_555 1_555
F17 C12 1_555 1_555
F18 C12 1_555 1_555
Ag7 N7 1_555 1_555
N6 C7 1_555 1_555
N10 C9 1_555 1_555
Ag1_2 N1_2 1_555 1_555
N1_2 C1 1_555 1_555
N2 C1 1_555 1_555
N3 Ag1_2 1_555 1_555
N4 N5 1_555 1_555
N5 C4 1_555 1_555
C1 C2 1_555 1_555
C2 F1 1_555 1_555
C3 N3 1_555 1_555
C4 N3 1_555 1_555
C5 C4 1_555 1_555
C6 C3 1_555 1_555
F2 C2 1_555 1_555
F4 C5 1_555 1_555
F5 C5 1_555 1_555
F6 C5 1_555 1_555
F7 C6 1_555 1_555
F8 C6 1_555 1_555
F9 C6 1_555 1_555
Ag4 N2 1_555 1_555
Ag5 N4 1_555 1_555
Ag6 N5 1_555 1_555
N8 Ag3 1_555 1_555
N12 Ag3 1_555 1_555
N15 Ag3 1_555 1_555
N4 C3 1_555 1_555
Ag4 N8 1_555 1_555
Ag1_3 N1_3 1_555 1_555
N1_3 C1_2 1_555 1_555
N2_2 C1_2 1_555 1_555
N3_2 Ag1_3 1_555 1_555
N4_2 N5_2 1_555 1_555
N5_2 C4_2 1_555 1_555
C1_2 C2_2 1_555 1_555
C2_2 F1_2 1_555 1_555
C3_2 N3_2 1_555 1_555
C4_2 N3_2 1_555 1_555
C5_2 C4_2 1_555 1_555
C6_2 C3_2 1_555 1_555
F2_2 C2_2 1_555 1_555
F4_2 C5_2 1_555 1_555
F5_2 C5_2 1_555 1_555
F6_2 C5_2 1_555 1_555
F7_2 C6_2 1_555 1_555
F8_2 C6_2 1_555 1_555
F9_2 C6_2 1_555 1_555
Ag4_2 N2_2 1_555 1_555
Ag9 N4_2 1_555 1_555
Ag5 N5_2 1_555 1_555
N8_2 Ag3_2 1_555 1_555
N12_2 Ag3_2 1_555 1_555
N15_2 Ag3_2 1_555 1_555
N4_2 C3_2 1_555 1_555
Ag4_2 N8_2 1_555 1_555
Ag1_4 N1_4 1_555 1_555
Ag7_2 N6_2 1_555 1_555
Ag6 N10_2 1_555 1_555
Ag8 N13_2 1_555 1_555
N7_2 Ag2_2 1_555 1_555
N9_2 Ag1_4 1_555 1_555
N10_2 N13_2 1_555 1_555
N11_2 Ag2_2 1_555 1_555
N13_2 C10_2 1_555 1_555
N14_2 Ag2_2 1_555 1_555
C7_2 N1_4 1_555 1_555
C8_2 C7_2 1_555 1_555
C9_2 N9_2 1_555 1_555
C10_2 N9_2 1_555 1_555
C11_2 C10_2 1_555 1_555
C12_2 C9_2 1_555 1_555
F10_2 C8_2 1_555 1_555
F11_2 C8_2 1_555 1_555
F13_2 C11_2 1_555 1_555
F14_2 C11_2 1_555 1_555
F15_2 C11_2 1_555 1_555
F16_2 C12_2 1_555 1_555
F17_2 C12_2 1_555 1_555
F18_2 C12_2 1_555 1_555
Ag7_2 N7_2 1_555 1_555
N6_2 C7_2 1_555 1_555
N10_2 C9_2 1_555 1_555
Ag1_5 N1_5 1_555 1_555
Ag9 N2_3 1_555 1_555
N1_5 C1_3 1_555 1_555
N2_3 C1_3 1_555 1_555
N3_3 Ag1_5 1_555 1_555
N4_3 N15 1_555 1_555
N15 C4_3 1_555 1_555
C1_3 C2_3 1_555 1_555
C2_3 F1_3 1_555 1_555
C3_3 N3_3 1_555 1_555
C4_3 N3_3 1_555 1_555
C5_3 C4_3 1_555 1_555
C6_3 C3_3 1_555 1_555
F2_3 C2_3 1_555 1_555
F3_3 C2_3 1_555 1_555
F4_3 C5_3 1_555 1_555
F5_3 C5_3 1_555 1_555
F6_3 C5_3 1_555 1_555
F7_3 C6_3 1_555 1_555
F8_3 C6_3 1_555 1_555
F9_3 C6_3 1_555 1_555
Ag6 N6_3 1_555 1_555
Ag5 N2_3 1_555 1_555
Ag4 N4_3 1_555 1_555
Ag8 N6_3 1_555 1_555
Ag7 N10_3 1_555 1_555
N6_3 N2_3 1_555 1_555
N7_3 Ag9 1_555 1_555
N8_3 Ag6 1_555 1_555
N9_3 Ag1_5 1_555 1_555
N10_3 N14 1_555 1_555
N14 C10_3 1_555 1_555
C7_3 N1_5 1_555 1_555
C8_3 C7_3 1_555 1_555
C9_3 N9_3 1_555 1_555
C10_3 N9_3 1_555 1_555
C11_3 C10_3 1_555 1_555
C12_3 C9_3 1_555 1_555
F10_3 C8_3 1_555 1_555
F11_3 C8_3 1_555 1_555
F12_3 C8_3 1_555 1_555
F13_3 C11_3 1_555 1_555
F14_3 C11_3 1_555 1_555
F15_3 C11_3 1_555 1_555
F16_3 C12_3 1_555 1_555
F17_3 C12_3 1_555 1_555
F18_3 C12_3 1_555 1_555
N4_3 C3_3 1_555 1_555
Ag5 N8_3 1_555 1_555
Ag8 N7_3 1_555 1_555
N6_3 C7_3 1_555 1_555
N7_3 N8_3 1_555 1_555
N10_3 C9_3 1_555 1_555
Ag1_6 N1_6 1_555 1_555
N1_6 C1_4 1_555 1_555
N2_4 C1_4 1_555 1_555
C1_4 C2_4 1_555 1_555
C2_4 F1_4 1_555 1_555
C6_4 C3_4 1_555 1_555
F2_4 C2_4 1_555 1_555
F7_4 C6_4 1_555 1_555
F8_4 C6_4 1_555 1_555
F9_4 C6_4 1_555 1_555
N11 C3_4 1_555 1_555
Ag1_7 N1_7 1_555 1_555
Ag7 N13_3 1_555 1_555
N9_4 Ag1_7 1_555 1_555
N13_3 C10_4 1_555 1_555
N14_3 Ag2_3 1_555 1_555
C10_4 N9_4 1_555 1_555
C11_4 C10_4 1_555 1_555
F13_4 C11_4 1_555 1_555
F14_4 C11_4 1_555 1_555
F15_4 C11_4 1_555 1_555
Ag1_8 N1_8 1_555 1_555
N3_4 Ag1_8 1_555 1_555
N5_3 C4_4 1_555 1_555
C4_4 N3_4 1_555 1_555
C5_4 C4_4 1_555 1_555
F4_4 C5_4 1_555 1_555
F5_4 C5_4 1_555 1_555
F6_4 C5_4 1_555 1_555
Ag4 N5_3 1_555 1_555
N15_3 Ag3_3 1_555 1_555
Ag1_9 N1_9 1_555 1_555
C7_4 N1_9 1_555 1_555
C8_4 C7_4 1_555 1_555
C12_4 C9_4 1_555 1_555
F10_4 C8_4 1_555 1_555
F11_4 C8_4 1_555 1_555
F16_4 C12_4 1_555 1_555
F17_4 C12_4 1_555 1_555
F18_4 C12_4 1_555 1_555
N6_4 C7_4 1_555 1_555
N12 C9_4 1_555 1_555
Ag1_10 N1_10 1_555 1_555
N3_5 Ag1_10 1_555 1_555
N5_4 C4_5 1_555 1_555
C4_5 N3_5 1_555 1_555
C5_5 C4_5 1_555 1_555
F4_5 C5_5 1_555 1_555
F5_5 C5_5 1_555 1_555
F6_5 C5_5 1_555 1_555
Ag4_3 N5_4 1_555 1_555
N12_4 Ag4_2 1_555 1_555
N15_4 Ag4_2 1_555 1_555
C7_5 N1_10 1_555 1_555
C8_5 C7_5 1_555 1_555
C12_5 C9_5 1_555 1_555
F10_5 C8_5 1_555 1_555
F11_5 C8_5 1_555 1_555
F12_5 C8_5 1_555 1_555
F16_5 C12_5 1_555 1_555
F17_5 C12_5 1_555 1_555
N8_2 C7_5 1_555 1_555
N12_3 C9_5 1_555 1_555
Ag1_11 N1_11 1_555 1_555
N1_11 C1_5 1_555 1_555
N7_2 C1_5 1_555 1_555
C1_5 C2_5 1_555 1_555
C2_5 F1_5 1_555 1_555
C6_5 C3_5 1_555 1_555
F2_5 C2_5 1_555 1_555
F3_5 C2_5 1_555 1_555
F7_5 C6_5 1_555 1_555
F8_5 C6_5 1_555 1_555
Ag7_3 N13_4 1_555 1_555
N9_5 Ag1_11 1_555 1_555
N11_4 Ag7_2 1_555 1_555
N13_4 C10_5 1_555 1_555
N14_4 Ag7_2 1_555 1_555
C10_5 N9_5 1_555 1_555
C11_5 C10_5 1_555 1_555
F13_5 C11_5 1_555 1_555
F14_5 C11_5 1_555 1_555
F15_5 C11_5 1_555 1_555
N11_3 C3_5 1_555 1_555
Ag1_12 N1_12 1_555 1_555
N3_6 Ag1_12 1_555 1_555
N14_3 C4_6 1_555 1_555
C4_6 N3_6 1_555 1_555
C5_6 C4_6 1_555 1_555
F4_6 C5_6 1_555 1_555
F5_6 C5_6 1_555 1_555
F6_6 C5_6 1_555 1_555
C7_6 N1_12 1_555 1_555
C8_6 C7_6 1_555 1_555
C12_6 C9_6 1_555 1_555
F10_6 C8_6 1_555 1_555
F11_6 C8_6 1_555 1_555
F12_6 C8_6 1_555 1_555
F16_6 C12_6 1_555 1_555
F17_6 C12_6 1_555 1_555
N7 C7_6 1_555 1_555
N10_4 C9_6 1_555 1_555
Ag1_13 N1_13 1_555 1_555
N1_13 C1_6 1_555 1_555
N8 C1_6 1_555 1_555
C1_6 C2_6 1_555 1_555
C2_6 F1_6 1_555 1_555
C6_6 C3_6 1_555 1_555
F2_6 C2_6 1_555 1_555
F3_6 C2_6 1_555 1_555
F7_6 C6_6 1_555 1_555
F8_6 C6_6 1_555 1_555
N9_6 Ag1_13 1_555 1_555
N15_3 C10_6 1_555 1_555
C10_6 N9_6 1_555 1_555
C11_6 C10_6 1_555 1_555
F13_6 C11_6 1_555 1_555
F14_6 C11_6 1_555 1_555
F15_6 C11_6 1_555 1_555
N4_4 C3_6 1_555 1_555
Ag1_14 N1_14 1_555 1_555
N3_7 Ag1_14 1_555 1_555
N15_4 C4_7 1_555 1_555
C4_7 N3_7 1_555 1_555
C5_7 C4_7 1_555 1_555
F4_7 C5_7 1_555 1_555
F5_7 C5_7 1_555 1_555
F6_7 C5_7 1_555 1_555
Ag1_15 N1_15 1_555 1_555
N1_15 C1_7 1_555 1_555
N7_4 C1_7 1_555 1_555
C1_7 C2_7 1_555 1_555
C2_7 F1_7 1_555 1_555
C6_7 C3_7 1_555 1_555
F2_7 C2_7 1_555 1_555
F7_7 C6_7 1_555 1_555
F8_7 C6_7 1_555 1_555
F9_7 C6_7 1_555 1_555
N11_2 C3_7 1_555 1_555
Ag1_16 N1_16 1_555 1_555
C7_7 N1_16 1_555 1_555
C8_7 C7_7 1_555 1_555
C12_7 C9_7 1_555 1_555
F10_7 C8_7 1_555 1_555
F11_7 C8_7 1_555 1_555
F16_7 C12_7 1_555 1_555
F17_7 C12_7 1_555 1_555
F18_7 C12_7 1_555 1_555
N8_4 C7_7 1_555 1_555
N12_2 C9_7 1_555 1_555
Ag1_17 N1_17 1_555 1_555
N9_7 Ag1_17 1_555 1_555
N14_4 C10_7 1_555 1_555
C10_7 N9_7 1_555 1_555
C11_7 C10_7 1_555 1_555
F13_7 C11_7 1_555 1_555
F14_7 C11_7 1_555 1_555
F15_7 C11_7 1_555 1_555
Ag1_18 N1_18 1_555 1_555
N1_18 C1_8 1_555 1_555
N8_3 C1_8 1_555 1_555
N3_8 Ag1_18 1_555 1_555
N11_4 N14_2 1_555 1_555
N14_2 C4_8 1_555 1_555
C1_8 C2_8 1_555 1_555
C2_8 F1_8 1_555 1_555
C3_8 N3_8 1_555 1_555
C4_8 N3_8 1_555 1_555
C5_8 C4_8 1_555 1_555
C6_8 C3_8 1_555 1_555
F2_8 C2_8 1_555 1_555
F3_8 C2_8 1_555 1_555
F4_8 C5_8 1_555 1_555
F5_8 C5_8 1_555 1_555
F6_8 C5_8 1_555 1_555
F7_8 C6_8 1_555 1_555
F8_8 C6_8 1_555 1_555
F9_8 C6_8 1_555 1_555
N9_8 Ag1_18 1_555 1_555
N12_4 N15_2 1_555 1_555
N15_2 C10_8 1_555 1_555
C7_8 N1_18 1_555 1_555
C8_8 C7_8 1_555 1_555
C9_8 N9_8 1_555 1_555
C10_8 N9_8 1_555 1_555
C11_8 C10_8 1_555 1_555
C12_8 C9_8 1_555 1_555
F10_8 C8_8 1_555 1_555
F11_8 C8_8 1_555 1_555
F12_8 C8_8 1_555 1_555
F13_8 C11_8 1_555 1_555
F14_8 C11_8 1_555 1_555
F15_8 C11_8 1_555 1_555
F16_8 C12_8 1_555 1_555
F17_8 C12_8 1_555 1_555
F18_8 C12_8 1_555 1_555
N11_4 C3_8 1_555 1_555
N7_3 C7_8 1_555 1_555
N12_4 C9_8 1_555 1_555

#END
