
###############################################################################
#
# This file contains modified crystal structure data generated from the
# MOF subset of the Cambridge Structural Database (CSD) v543 
# hosted by the Cambridge Crystallographic Data Centre (CCDC).
#
# This work is licensed under the Creative Commons
# Attribution-NonCommercial-ShareAlike 4.0 International License.
# To view a copy of this license, visit
# http://creativecommons.org/licenses/by-nc-sa/4.0/
# or send a letter to
# Creative Commons, PO Box 1866, Mountain View, CA 94042, USA.
#
# CIF created using the CSD Python API on 29 September 2022
# The structure has been converted into the P1 space group
# The structure has a 3D framework
# The original CSD entry COWRIR is in the monoclinic crystal system
# The framework has been calculated to contain at least 10.0% void space
# The void calculation uses a probe of radius 1.32A, grid spacing 0.4
#
###############################################################################

data_COWRIR
_chemical_formula_moiety         '(C200 H168 Co12 N8 O78 S12)n'
_symmetry_cell_setting           triclinic
_symmetry_space_group_name_H-M   'P 1'
_symmetry_Int_Tables_number      1
_space_group_name_Hall           'P 1'
loop_
_symmetry_equiv_pos_site_id
_symmetry_equiv_pos_as_xyz
1 x,y,z
_cell_length_a                   16.7033(9)
_cell_length_b                   20.0195(11)
_cell_length_c                   17.4602(12)
_cell_angle_alpha                90
_cell_angle_beta                 100.423(6)
_cell_angle_gamma                90
_cell_volume                     5742.2
loop_
_atom_site_label
_atom_site_type_symbol
_atom_site_fract_x
_atom_site_fract_y
_atom_site_fract_z
N2 N 0.2499(4) 0.3756(3) 0.1463(3)
O14 O 0.1536(3) 0.3717(2) 0.0419(3)
C47 C 0.2829(4) 0.3282(4) 0.0252(5)
H34 H 0.3356 0.3230 0.0574
H36 H 0.2622 0.2852 0.0070
C48 C 0.2243(4) 0.3609(4) 0.0730(5)
C49 C 0.3313(5) 0.3651(5) 0.1893(5)
H37 H 0.3343 0.3802 0.2419
H38 H 0.3694 0.3897 0.1653
H39 H 0.3442 0.3184 0.1894
C50 C 0.1905(5) 0.4022(4) 0.1923(4)
H40 H 0.2177 0.4108 0.2447
H41 H 0.1480 0.3700 0.1929
H42 H 0.1674 0.4429 0.1692
Co3 Co 0.09065(5) 0.35220(4) 0.93744(5)
S3 S 0.45469(10) 0.43097(9) 0.65249(11)
O2 O 0.0909(3) 0.3558(3) 0.7467(3)
O4 O 0.5026(3) 0.7575(2) 0.6728(3)
O11 O 0.4098(3) 0.7552(2) 0.5646(3)
O13 O 0.1555(2) 0.3891(2) 0.8642(2)
O19 O 0.5246(3) 0.4149(2) 0.7108(3)
O20 O 0.4443(3) 0.4015(3) 0.5761(3)
C29 C 0.1505(4) 0.3777(3) 0.7914(4)
C30 C 0.2267(4) 0.3924(3) 0.7566(4)
C31 C 0.2962(4) 0.4155(3) 0.8037(4)
H17 H 0.2966 0.4230 0.8564
C32 C 0.3660(4) 0.4279(3) 0.7726(4)
H18 H 0.4124 0.4449 0.8041
C33 C 0.3662(4) 0.4146(3) 0.6938(4)
C34 C 0.2979(4) 0.3891(4) 0.6468(4)
H19 H 0.2982 0.3797 0.5947
C35 C 0.2285(4) 0.3778(4) 0.6785(4)
H20 H 0.1824 0.3601 0.6472
C36 C 0.4522(4) 0.5185(3) 0.6411(4)
C37 C 0.4887(4) 0.5565(3) 0.7041(4)
H21 H 0.5126 0.5363 0.7505
C38 C 0.4887(4) 0.6240(3) 0.6965(4)
H22 H 0.5132 0.6504 0.7380
C39 C 0.4523(3) 0.6536(3) 0.6268(4)
C40 C 0.4133(5) 0.6148(4) 0.5655(4)
H23 H 0.3864 0.6349 0.5200
C41 C 0.4147(5) 0.5469(4) 0.5725(4)
H24 H 0.3904 0.5202 0.5312
C42 C 0.4549(4) 0.7275(3) 0.6218(3)
H35 H 0.2874 0.3561 0.9814
Co5 Co 0.53149(5) 0.83096(4) 0.75864(5)
Co9 Co 0.40935(5) 0.85220(4) 0.56256(5)
O26 O 0.0902(3) 0.2552(2) 0.9354(3)
Co1 Co 0.96851(5) 0.33096(4) 0.74136(5)
Co2 Co 0.86543(5) 0.36639(5) 0.54754(5)
S1 S 0.45430(9) 0.22236(8) 0.73844(10)
S2 S 0.60746(9) 0.48977(8) 0.95545(9)
N1 N 0.7591(3) 0.3484(3) 0.3111(3)
O3 O 0.9489(3) 0.3974(2) 0.8283(3)
O6 O 0.8441(2) 0.3066(2) 0.7306(2)
O9 O 0.7857(3) 0.3272(3) 0.6054(2)
O10 O 0.8029(3) 0.3509(3) 0.4393(3)
O12 O 0.9904(3) 0.3931(3) 0.9577(3)
O15 O 0.4011(3) 0.2152(3) 0.6639(3)
O16 O 0.4306(3) 0.2648(2) 0.7975(3)
O17 O 0.5574(2) 0.5044(2) 0.8809(2)
C1 C 0.7847(4) 0.3087(3) 0.6760(4)
C2 C 0.7030(4) 0.2869(3) 0.6922(3)
C3 C 0.6400(4) 0.2754(3) 0.6296(4)
H1 H 0.6486 0.2814 0.5789
C4 C 0.5640(4) 0.2548(3) 0.6431(4)
H2 H 0.5223 0.2458 0.6014
C5 C 0.5508(4) 0.2479(3) 0.7196(4)
C6 C 0.6131(4) 0.2600(3) 0.7831(4)
H3 H 0.6039 0.2560 0.8339
C7 C 0.6884(4) 0.2779(3) 0.7684(4)
H4 H 0.7310 0.2842 0.8102
C8 C 0.4742(4) 0.1427(3) 0.7802(4)
C9 C 0.4765(4) 0.0886(4) 0.7309(4)
H5 H 0.4625 0.0934 0.6771
C10 C 0.5001(4) 0.0279(3) 0.7639(4)
C11 C 0.5231(4) 0.0222(4) 0.8441(4)
C12 C 0.5210(6) 0.0757(4) 0.8930(4)
H7 H 0.5366 0.0709 0.9466
C13 C 0.4956(5) 0.1367(4) 0.8610(4)
H8 H 0.4927 0.1735 0.8929
C15 C 0.9375(4) 0.4044(3) 0.8975(4)
C16 C 0.8564(4) 0.4293(3) 0.9119(3)
C17 C 0.7899(4) 0.4251(3) 0.8510(4)
H9 H 0.7965 0.4099 0.8021
C18 C 0.7138(4) 0.4438(3) 0.8646(3)
H10 H 0.6684 0.4398 0.8254
C19 C 0.7058(3) 0.4687(3) 0.9374(3)
C20 C 0.7713(4) 0.4754(4) 0.9977(4)
C21 C 0.8472(4) 0.4546(4) 0.9845(4)
C22 C 0.5727(3) 0.4161(3) 0.9923(3)
C23 C 0.5321(4) 0.3698(3) 0.9415(3)
H13 H 0.5243 0.3767 0.8880
C24 C 0.5031(4) 0.3130(3) 0.9715(3)
H14 H 0.4754 0.2812 0.9380
C43 C 0.8035(5) 0.4533(4) 0.3727(5)
H25 H 0.7896 0.4680 0.3196
H26 H 0.8598 0.4628 0.3923
H27 H 0.7703 0.4764 0.4037
C44 C 0.7891(5) 0.3793(5) 0.3767(5)
C45 C 0.7427(5) 0.3833(5) 0.2356(5)
H28 H 0.7213 0.3522 0.1953
H29 H 0.7924 0.4022 0.2250
H30 H 0.7038 0.4183 0.2375
C46 C 0.7410(5) 0.2793(5) 0.3102(6)
H31 H 0.7200 0.2654 0.2578
H32 H 0.7011 0.2709 0.3424
H33 H 0.7897 0.2546 0.3300
O21 O 0.9859(3) 0.2609(2) 0.6589(2)
O22 O 0.9974(3) 0.2575(2) 0.8272(3)
O23 O 0.9396(3) 0.4080(2) 0.6603(3)
O24 O 0.9091(4) 0.4575(3) 0.5495(3)
O25 O 0.9485(3) 0.2993(2) 0.5358(3)
O5 O 0.5604(3) 0.9080(2) 0.8397(3)
O7 O 0.5909(4) 0.9575(3) 0.9505(3)
H6 H 0.5006 0.9905 0.7324
C14 C 0.5573(4) 0.9585(4) 0.8788(4)
Co7 Co 0.63457(5) 0.86639(5) 0.95246(5)
O17_2 O 0.9426(2) 0.0044(2) 0.6191(2)
O18 O 0.8838(2) 0.0383(2) 0.4826(2)
C36_2 C 0.0478(4) 0.0185(3) 0.8589(4)
C37_2 C 0.0113(4) 0.0565(3) 0.7959(4)
C38_2 C 0.0113(4) 0.1240(3) 0.8035(4)
C39_2 C 0.0477(3) 0.1536(3) 0.8732(4)
C40_2 C 0.0867(5) 0.1148(4) 0.9345(4)
H23_2 H 0.1136 0.1349 0.9800
C41_2 C 0.0853(5) 0.0469(4) 0.9275(4)
H24_2 H 0.1096 0.0202 0.9688
C42_2 C 0.0451(4) 0.2275(3) 0.8782(3)
S2_2 S 0.89254(9) 0.98977(8) 0.54455(9)
S3_2 S 0.04531(10) 0.93097(9) 0.84751(11)
N2_2 N 0.2501(4) 0.8756(3) 0.3537(3)
O2_2 O 0.4091(3) 0.8558(3) 0.7533(3)
O3_2 O 0.5511(3) 0.8974(2) 0.6717(3)
O6_2 O 0.6559(2) 0.8066(2) 0.7694(2)
O9_2 O 0.7143(3) 0.8272(3) 0.8946(2)
O12_2 O 0.5096(3) 0.8931(3) 0.5423(3)
O13_2 O 0.3445(2) 0.8891(2) 0.6358(2)
O14_2 O 0.3464(3) 0.8717(2) 0.4581(3)
O20_2 O 0.0557(3) 0.9015(3) 0.9239(3)
C1_2 C 0.7153(4) 0.8087(3) 0.8240(4)
C2_2 C 0.7970(4) 0.7869(3) 0.8078(3)
C3_2 C 0.8600(4) 0.7754(3) 0.8704(4)
H1_2 H 0.8514 0.7814 0.9211
C4_2 C 0.9360(4) 0.7548(3) 0.8569(4)
H2_2 H 0.9777 0.7458 0.8986
C5_2 C 0.9492(4) 0.7479(3) 0.7804(4)
C6_2 C 0.8869(4) 0.7600(3) 0.7169(4)
H3_2 H 0.8961 0.7560 0.6661
C7_2 C 0.8116(4) 0.7779(3) 0.7316(4)
H4_2 H 0.7690 0.7842 0.6898
C10_2 C 0.9999(4) 0.5279(3) 0.7361(4)
H6_2 H 0.9994 0.4905 0.7676
C11_2 C 0.9769(4) 0.5222(4) 0.6559(4)
C12_2 C 0.9790(6) 0.5757(4) 0.6070(4)
H7_2 H 0.9634 0.5709 0.5534
C14_2 C 0.9427(4) 0.4585(4) 0.6212(4)
C15_2 C 0.5625(4) 0.9044(3) 0.6025(4)
C16_2 C 0.6436(4) 0.9293(3) 0.5881(3)
C17_2 C 0.7101(4) 0.9251(3) 0.6490(4)
H9_2 H 0.7035 0.9099 0.6979
C18_2 C 0.7862(4) 0.9438(3) 0.6354(3)
H10_2 H 0.8316 0.9398 0.6746
C19_2 C 0.7942(3) 0.9687(3) 0.5626(3)
C20_2 C 0.7287(4) 0.9754(4) 0.5023(4)
H11 H 0.7350 0.9933 0.4546
C21_2 C 0.6528(4) 0.9546(4) 0.5155(4)
H12 H 0.6078 0.9575 0.4756
C22_2 C 0.9273(3) 0.9161(3) 0.5077(3)
C23_2 C 0.9679(4) 0.8698(3) 0.5585(3)
H13_2 H 0.9757 0.8767 0.6120
C24_2 C 0.9969(4) 0.8130(3) 0.5285(3)
C25 C 0.9849(4) 0.8027(3) 0.4476(4)
C26 C 0.9439(4) 0.8495(4) 0.3979(4)
H15 H 0.9358 0.8426 0.3444
C27 C 0.9148(4) 0.9067(4) 0.4272(3)
H16 H 0.8872 0.9386 0.3937
C29_2 C 0.3495(4) 0.8777(3) 0.7086(4)
C30_2 C 0.2733(4) 0.8924(3) 0.7434(4)
C31_2 C 0.2038(4) 0.9155(3) 0.6963(4)
H17_2 H 0.2034 0.9230 0.6436
C32_2 C 0.1340(4) 0.9279(3) 0.7274(4)
H18_2 H 0.0876 0.9449 0.6959
C33_2 C 0.1338(4) 0.9146(3) 0.8062(4)
C34_2 C 0.2021(4) 0.8891(4) 0.8532(4)
H19_2 H 0.2018 0.8797 0.9053
C35_2 C 0.2715(4) 0.8778(4) 0.8215(4)
H20_2 H 0.3176 0.8601 0.8528
C47_2 C 0.2171(4) 0.8282(4) 0.4748(5)
H34_2 H 0.1644 0.8230 0.4426
H35_2 H 0.2126 0.8561 0.5186
H36_2 H 0.2378 0.7852 0.4930
C48_2 C 0.2757(4) 0.8609(4) 0.4270(5)
C49_2 C 0.1687(5) 0.8651(5) 0.3107(5)
H37_2 H 0.1657 0.8802 0.2581
H38_2 H 0.1306 0.8897 0.3347
H39_2 H 0.1558 0.8184 0.3106
C50_2 C 0.3095(5) 0.9022(4) 0.3077(4)
H40_2 H 0.2823 0.9108 0.2553
H41_2 H 0.3520 0.8700 0.3071
H42_2 H 0.3326 0.9429 0.3308
O21_2 O 0.5141(3) 0.7609(2) 0.8411(2)
O25_2 O 0.5515(3) 0.7993(2) 0.9642(3)
H21_2 H 0.9874 0.0363 0.7495
H22_2 H 0.9868 0.1504 0.7620
O18_2 O 0.3838(2) 0.4617(2) 0.9826(2)
H11_2 H 0.2350 0.5067 0.9546
H12_2 H 0.1078 0.5425 0.9756
C25_2 C 0.4849(4) 0.6973(3) 0.9476(4)
C26_2 C 0.4439(4) 0.6505(4) 0.8979(4)
H15_2 H 0.4358 0.6574 0.8444
C27_2 C 0.4148(4) 0.5933(4) 0.9272(3)
H16_2 H 0.3872 0.5614 0.8937
C28 C 0.5185(4) 0.7581(3) 0.9142(4)
S1_2 S 0.95430(9) 0.27764(8) 0.23844(10)
O15_2 O 0.9011(3) 0.2848(3) 0.1639(3)
O16_2 O 0.9306(3) 0.2352(2) 0.2975(3)
C8_2 C 0.9742(4) 0.3573(3) 0.2802(4)
C9_2 C 0.9765(4) 0.4114(4) 0.2309(4)
H5_2 H 0.9625 0.4066 0.1771
C13_2 C 0.9956(5) 0.3633(4) 0.3610(4)
H8_2 H 0.9927 0.3265 0.3929
H14_2 H 0.9754 0.2188 0.4380
C28_2 C 0.9815(4) 0.2581(3) 0.5858(4)
O1 O 0.4859(3) 0.2391(2) 0.1589(2)
O8 O 0.4485(3) 0.2007(2) 0.0358(3)
O18_3 O 0.6162(2) 0.5383(2) 0.0174(2)
H11_3 H 0.7650 0.4933 0.0454
H12_3 H 0.8922 0.4575 0.0244
C25_3 C 0.5151(4) 0.3027(3) 0.0524(4)
C26_3 C 0.5561(4) 0.3495(4) 0.1021(4)
H15_3 H 0.5642 0.3426 0.1556
C27_3 C 0.5852(4) 0.4067(4) 0.0728(3)
H16_3 H 0.6128 0.4386 0.1063
C28_3 C 0.4815(4) 0.2419(3) 0.0858(4)
Co6 Co 0.46851(5) 0.16904(4) 0.24136(5)
Co8 Co 0.36543(5) 0.13361(5) 0.04754(5)
S1_3 S 0.04570(9) 0.72236(8) 0.76156(10)
O1_2 O 0.0141(3) 0.7391(2) 0.3411(2)
O8_2 O 0.0515(3) 0.7007(2) 0.4642(3)
O15_3 O 0.0989(3) 0.7152(3) 0.8361(3)
O16_3 O 0.0694(3) 0.7648(2) 0.7025(3)
C8_3 C 0.0258(4) 0.6427(3) 0.7198(4)
C9_3 C 0.0235(4) 0.5886(4) 0.7691(4)
H5_3 H 0.0375 0.5934 0.8229
C13_3 C 0.0044(5) 0.6367(4) 0.6390(4)
H8_3 H 0.0073 0.6735 0.6071
H14_3 H 0.0246 0.7812 0.5620
C28_4 C 0.0185(4) 0.7419(3) 0.4142(4)
Co6_2 Co 0.03149(5) 0.66904(4) 0.25864(5)
Co8_2 Co 0.13457(5) 0.63361(5) 0.45246(5)
O5_2 O 0.4396(3) 0.0920(2) 0.1603(3)
O7_2 O 0.4091(4) 0.0425(3) 0.0495(3)
H6_3 H 0.4994 0.0095 0.2676
C14_3 C 0.4427(4) 0.0415(4) 0.1212(4)
S1_4 S 0.54570(9) 0.77764(8) 0.26156(10)
S2_3 S 0.39254(9) 0.51023(8) 0.04455(9)
N1_2 N 0.2409(3) 0.6516(3) 0.6889(3)
O3_3 O 0.0511(3) 0.6026(2) 0.1717(3)
O6_3 O 0.1559(2) 0.6934(2) 0.2694(2)
O9_3 O 0.2143(3) 0.6728(3) 0.3946(2)
O10_2 O 0.1971(3) 0.6491(3) 0.5607(3)
O12_3 O 0.0096(3) 0.6069(3) 0.0423(3)
O15_4 O 0.5989(3) 0.7848(3) 0.3361(3)
O16_4 O 0.5694(3) 0.7352(2) 0.2025(3)
O17_3 O 0.4426(2) 0.4956(2) 0.1191(2)
C1_3 C 0.2153(4) 0.6913(3) 0.3240(4)
C2_3 C 0.2970(4) 0.7131(3) 0.3078(3)
C3_3 C 0.3600(4) 0.7246(3) 0.3704(4)
H1_3 H 0.3514 0.7186 0.4211
C4_3 C 0.4360(4) 0.7452(3) 0.3569(4)
H2_3 H 0.4777 0.7542 0.3986
C5_3 C 0.4492(4) 0.7521(3) 0.2804(4)
C6_3 C 0.3869(4) 0.7400(3) 0.2169(4)
H3_3 H 0.3961 0.7440 0.1661
C7_3 C 0.3116(4) 0.7221(3) 0.2316(4)
H4_3 H 0.2690 0.7158 0.1898
C8_4 C 0.5258(4) 0.8573(3) 0.2198(4)
C9_4 C 0.5235(4) 0.9114(4) 0.2691(4)
H5_4 H 0.5375 0.9066 0.3229
C10_3 C 0.4999(4) 0.9721(3) 0.2361(4)
C11_3 C 0.4769(4) 0.9778(4) 0.1559(4)
C12_3 C 0.4790(6) 0.9243(4) 0.1070(4)
H7_3 H 0.4634 0.9291 0.0534
C13_4 C 0.5044(5) 0.8633(4) 0.1390(4)
H8_4 H 0.5073 0.8265 0.1071
C15_3 C 0.0625(4) 0.5956(3) 0.1025(4)
C16_3 C 0.1436(4) 0.5707(3) 0.0881(3)
C17_3 C 0.2101(4) 0.5749(3) 0.1490(4)
H9_3 H 0.2035 0.5901 0.1979
C18_3 C 0.2862(4) 0.5562(3) 0.1354(3)
H10_3 H 0.3316 0.5602 0.1746
C19_3 C 0.2942(3) 0.5313(3) 0.0626(3)
C20_3 C 0.2287(4) 0.5246(4) 0.0023(4)
C21_3 C 0.1528(4) 0.5454(4) 0.0155(4)
C22_3 C 0.4273(3) 0.5839(3) 0.0077(3)
C23_3 C 0.4679(4) 0.6302(3) 0.0585(3)
H13_3 H 0.4757 0.6233 0.1120
C24_3 C 0.4969(4) 0.6870(3) 0.0285(3)
H14_4 H 0.5246 0.7188 0.0620
C43_2 C 0.1965(5) 0.5467(4) 0.6273(5)
H25_2 H 0.2104 0.5320 0.6804
H26_2 H 0.1402 0.5372 0.6077
H27_2 H 0.2297 0.5236 0.5963
C44_2 C 0.2109(5) 0.6207(5) 0.6233(5)
C45_2 C 0.2573(5) 0.6167(5) 0.7644(5)
H28_2 H 0.2787 0.6478 0.8047
H29_2 H 0.2076 0.5978 0.7750
H30_2 H 0.2962 0.5817 0.7625
C46_2 C 0.2590(5) 0.7207(5) 0.6898(6)
H31_2 H 0.2800 0.7346 0.7422
H32_2 H 0.2989 0.7291 0.6576
H33_2 H 0.2103 0.7454 0.6700
O22_2 O 0.0026(3) 0.7425(2) 0.1728(3)
O23_2 O 0.0604(3) 0.5920(2) 0.3397(3)
O24_2 O 0.0909(4) 0.5425(3) 0.4505(3)
Co3_2 Co 0.90935(5) 0.64780(4) 0.06256(5)
S3_3 S 0.54531(10) 0.56903(9) 0.34751(11)
O2_3 O 0.9091(3) 0.6442(3) 0.2533(3)
O4_2 O 0.4974(3) 0.2425(2) 0.3272(3)
O11_2 O 0.5902(3) 0.2448(2) 0.4354(3)
O13_3 O 0.8445(2) 0.6109(2) 0.1358(2)
O19_2 O 0.4754(3) 0.5851(2) 0.2892(3)
O20_3 O 0.5557(3) 0.5985(3) 0.4239(3)
C29_3 C 0.8495(4) 0.6223(3) 0.2086(4)
C30_3 C 0.7733(4) 0.6076(3) 0.2434(4)
C31_3 C 0.7038(4) 0.5845(3) 0.1963(4)
H17_3 H 0.7034 0.5770 0.1436
C32_3 C 0.6340(4) 0.5721(3) 0.2274(4)
H18_3 H 0.5876 0.5551 0.1959
C33_3 C 0.6338(4) 0.5854(3) 0.3062(4)
C34_3 C 0.7021(4) 0.6109(4) 0.3532(4)
H19_3 H 0.7018 0.6203 0.4053
C35_3 C 0.7715(4) 0.6222(4) 0.3215(4)
H20_3 H 0.8176 0.6399 0.3528
C36_3 C 0.5478(4) 0.4815(3) 0.3589(4)
C37_3 C 0.5113(4) 0.4435(3) 0.2959(4)
H21_3 H 0.4874 0.4637 0.2495
C38_3 C 0.5113(4) 0.3760(3) 0.3035(4)
H22_3 H 0.4868 0.3496 0.2620
C39_3 C 0.5477(3) 0.3464(3) 0.3732(4)
C40_3 C 0.5867(5) 0.3852(4) 0.4345(4)
H23_3 H 0.6136 0.3651 0.4800
C41_3 C 0.5853(5) 0.4531(4) 0.4275(4)
H24_3 H 0.6096 0.4798 0.4688
C42_3 C 0.5451(4) 0.2725(3) 0.3782(3)
H35_3 H 0.7126 0.6439 0.0186
Co9_2 Co 0.59065(5) 0.14780(4) 0.43744(5)
O26_2 O 0.9098(3) 0.7448(2) 0.0646(3)
H21_4 H 0.0126 0.9637 0.2505
H22_4 H 0.0132 0.8496 0.2380
S2_4 S 0.10746(9) 0.01023(8) 0.45545(9)
S3_4 S 0.95469(10) 0.06903(9) 0.15249(11)
N2_3 N 0.7499(4) 0.1244(3) 0.6463(3)
O2_4 O 0.5909(3) 0.1442(3) 0.2467(3)
O3_4 O 0.4489(3) 0.1026(2) 0.3283(3)
O6_4 O 0.3441(2) 0.1934(2) 0.2306(2)
O9_4 O 0.2857(3) 0.1728(3) 0.1054(2)
O12_4 O 0.4904(3) 0.1069(3) 0.4577(3)
O13_4 O 0.6555(2) 0.1109(2) 0.3642(2)
O14_3 O 0.6536(3) 0.1283(2) 0.5419(3)
O20_4 O 0.9443(3) 0.0985(3) 0.0761(3)
C1_4 C 0.2847(4) 0.1913(3) 0.1760(4)
C2_4 C 0.2030(4) 0.2131(3) 0.1922(3)
C3_4 C 0.1400(4) 0.2246(3) 0.1296(4)
H1_4 H 0.1486 0.2186 0.0789
C4_4 C 0.0640(4) 0.2452(3) 0.1431(4)
H2_4 H 0.0223 0.2542 0.1014
C5_4 C 0.0508(4) 0.2521(3) 0.2196(4)
C6_4 C 0.1131(4) 0.2400(3) 0.2831(4)
H3_4 H 0.1039 0.2440 0.3339
C7_4 C 0.1884(4) 0.2221(3) 0.2684(4)
H4_4 H 0.2310 0.2158 0.3102
C10_4 C 0.0001(4) 0.4721(3) 0.2639(4)
H6_4 H 0.0006 0.5095 0.2324
C11_4 C 0.0231(4) 0.4778(4) 0.3441(4)
C12_4 C 0.0210(6) 0.4243(4) 0.3930(4)
H7_4 H 0.0366 0.4291 0.4466
C14_4 C 0.0573(4) 0.5415(4) 0.3788(4)
C15_4 C 0.4375(4) 0.0956(3) 0.3975(4)
C16_4 C 0.3564(4) 0.0707(3) 0.4119(3)
C17_4 C 0.2899(4) 0.0749(3) 0.3510(4)
H9_4 H 0.2965 0.0901 0.3021
C18_4 C 0.2138(4) 0.0562(3) 0.3646(3)
H10_4 H 0.1684 0.0602 0.3254
C19_4 C 0.2058(3) 0.0313(3) 0.4374(3)
C20_4 C 0.2713(4) 0.0246(4) 0.4977(4)
H11_4 H 0.2650 0.0067 0.5454
C21_4 C 0.3472(4) 0.0454(4) 0.4845(4)
H12_4 H 0.3922 0.0425 0.5244
C22_4 C 0.0727(3) 0.0839(3) 0.4923(3)
C23_4 C 0.0321(4) 0.1302(3) 0.4415(3)
H13_4 H 0.0243 0.1233 0.3880
C24_4 C 0.0031(4) 0.1870(3) 0.4715(3)
C25_4 C 0.0151(4) 0.1973(3) 0.5524(4)
C26_4 C 0.0561(4) 0.1505(4) 0.6021(4)
H15_4 H 0.0642 0.1574 0.6556
C27_4 C 0.0852(4) 0.0933(4) 0.5728(3)
H16_4 H 0.1128 0.0614 0.6063
C29_4 C 0.6505(4) 0.1223(3) 0.2914(4)
C30_4 C 0.7267(4) 0.1076(3) 0.2566(4)
C31_4 C 0.7962(4) 0.0845(3) 0.3037(4)
H17_4 H 0.7966 0.0770 0.3564
C32_4 C 0.8660(4) 0.0721(3) 0.2726(4)
H18_4 H 0.9124 0.0551 0.3041
C33_4 C 0.8662(4) 0.0854(3) 0.1938(4)
C34_4 C 0.7979(4) 0.1109(4) 0.1468(4)
H19_4 H 0.7982 0.1203 0.0947
C35_4 C 0.7285(4) 0.1222(4) 0.1785(4)
H20_4 H 0.6824 0.1399 0.1472
C47_3 C 0.7829(4) 0.1718(4) 0.5252(5)
H34_3 H 0.8356 0.1770 0.5574
H35_4 H 0.7874 0.1439 0.4814
H36_3 H 0.7622 0.2148 0.5070
C48_3 C 0.7243(4) 0.1391(4) 0.5730(5)
C49_3 C 0.8313(5) 0.1349(5) 0.6893(5)
H37_3 H 0.8343 0.1198 0.7419
H38_3 H 0.8694 0.1103 0.6653
H39_3 H 0.8442 0.1816 0.6894
C50_3 C 0.6905(5) 0.0978(4) 0.6923(4)
H40_3 H 0.7177 0.0892 0.7447
H41_3 H 0.6480 0.1300 0.6929
H42_3 H 0.6674 0.0571 0.6692
O17_4 O 0.0574(2) 0.9956(2) 0.3809(2)
O18_4 O 0.1162(2) 0.9617(2) 0.5174(2)
C36_4 C 0.9522(4) 0.9815(3) 0.1411(4)
C37_4 C 0.9887(4) 0.9435(3) 0.2041(4)
C38_4 C 0.9887(4) 0.8760(3) 0.1965(4)
C39_4 C 0.9523(3) 0.8464(3) 0.1268(4)
C40_4 C 0.9133(5) 0.8852(4) 0.0655(4)
H23_4 H 0.8864 0.8651 0.0200
C41_4 C 0.9147(5) 0.9531(4) 0.0725(4)
H24_4 H 0.8904 0.9798 0.0312
C42_4 C 0.9549(4) 0.7725(3) 0.1218(3)
N1_3 N 0.7409(3) 0.8484(3) 0.1889(3)
O10_3 O 0.6971(3) 0.8509(3) 0.0607(3)
C43_3 C 0.6965(5) 0.9533(4) 0.1273(5)
H25_3 H 0.7104 0.9680 0.1804
H26_3 H 0.6402 0.9628 0.1077
H27_3 H 0.7297 0.9764 0.0963
C44_3 C 0.7109(5) 0.8793(5) 0.1233(5)
C45_3 C 0.7573(5) 0.8833(5) 0.2644(5)
H28_3 H 0.7787 0.8522 0.3047
H29_3 H 0.7076 0.9022 0.2750
H30_3 H 0.7962 0.9183 0.2625
C46_3 C 0.7590(5) 0.7793(5) 0.1898(6)
H31_3 H 0.7800 0.7654 0.2422
H32_3 H 0.7989 0.7709 0.1576
H33_3 H 0.7103 0.7546 0.1700
O19_3 O 0.9754(3) 0.9149(2) 0.7892(3)
N2_4 N 0.7501(4) 0.6244(3) 0.8537(3)
O14_4 O 0.8464(3) 0.6283(2) 0.9581(3)
C47_4 C 0.7171(4) 0.6718(4) 0.9748(5)
H34_4 H 0.6644 0.6770 0.9426
H36_4 H 0.7378 0.7148 0.9930
C48_4 C 0.7757(4) 0.6391(4) 0.9270(5)
C49_4 C 0.6687(5) 0.6349(5) 0.8107(5)
H37_4 H 0.6657 0.6198 0.7581
H38_4 H 0.6306 0.6103 0.8347
H39_4 H 0.6558 0.6816 0.8106
C50_4 C 0.8095(5) 0.5978(4) 0.8077(4)
H40_4 H 0.7823 0.5892 0.7553
H41_4 H 0.8520 0.6300 0.8071
H42_4 H 0.8326 0.5571 0.8308
O19_4 O 0.0246(3) 0.0851(2) 0.2108(3)
N1_4 N 0.2591(3) 0.1516(3) 0.8111(3)
O10_4 O 0.3029(3) 0.1491(3) 0.9393(3)
C43_4 C 0.3035(5) 0.0467(4) 0.8727(5)
H25_4 H 0.2896 0.0320 0.8196
H26_4 H 0.3598 0.0372 0.8923
H27_4 H 0.2703 0.0236 0.9037
C44_4 C 0.2891(5) 0.1207(5) 0.8767(5)
C45_4 C 0.2427(5) 0.1167(5) 0.7356(5)
H28_4 H 0.2213 0.1478 0.6953
H29_4 H 0.2924 0.0978 0.7250
H30_4 H 0.2038 0.0817 0.7375
C46_4 C 0.2410(5) 0.2207(5) 0.8102(6)
H31_4 H 0.2200 0.2346 0.7578
H32_4 H 0.2011 0.2291 0.8424
H33_4 H 0.2897 0.2454 0.8300
loop_
_geom_bond_atom_site_label_1
_geom_bond_atom_site_label_2
_geom_bond_site_symmetry_1
_geom_bond_site_symmetry_2
N2 C48 1_555 1_555
C47 H34 1_555 1_555
H36 C47 1_555 1_555
C48 O14 1_555 1_555
C49 N2 1_555 1_555
H37 C49 1_555 1_555
H38 C49 1_555 1_555
H39 C49 1_555 1_555
C50 N2 1_555 1_555
H40 C50 1_555 1_555
H41 C50 1_555 1_555
H42 C50 1_555 1_555
C47 C48 1_555 1_555
S3 O19 1_555 1_555
O2 C29 1_555 1_555
O4 C42 1_555 1_555
O11 C42 1_555 1_555
O13 Co3 1_555 1_555
O20 S3 1_555 1_555
C29 O13 1_555 1_555
C30 C29 1_555 1_555
C31 C30 1_555 1_555
H17 C31 1_555 1_555
C32 C31 1_555 1_555
H18 C32 1_555 1_555
C33 S3 1_555 1_555
C34 C33 1_555 1_555
H19 C34 1_555 1_555
C35 C30 1_555 1_555
H20 C35 1_555 1_555
C36 S3 1_555 1_555
C37 C36 1_555 1_555
H21 C37 1_555 1_555
C38 C37 1_555 1_555
H22 C38 1_555 1_555
C39 C38 1_555 1_555
C40 C39 1_555 1_555
H23 C40 1_555 1_555
C41 C36 1_555 1_555
H24 C41 1_555 1_555
C42 C39 1_555 1_555
Co5 O4 1_555 1_555
Co9 O11 1_555 1_555
O26 Co3 1_555 1_555
C32 C33 1_555 1_555
C34 C35 1_555 1_555
C40 C41 1_555 1_555
Co2 O9 1_555 1_555
S1 O15 1_555 1_555
S2 O17 1_555 1_555
N1 C44 1_555 1_555
O3 Co1 1_555 1_555
O6 Co1 1_555 1_555
O9 C1 1_555 1_555
O10 Co2 1_555 1_555
O12 C15 1_555 1_555
O16 S1 1_555 1_555
C1 O6 1_555 1_555
C2 C1 1_555 1_555
C3 C2 1_555 1_555
H1 C3 1_555 1_555
C4 C3 1_555 1_555
H2 C4 1_555 1_555
C5 S1 1_555 1_555
C6 C5 1_555 1_555
H3 C6 1_555 1_555
C7 C2 1_555 1_555
H4 C7 1_555 1_555
C8 S1 1_555 1_555
C9 C8 1_555 1_555
H5 C9 1_555 1_555
C10 C9 1_555 1_555
C11 C10 1_555 1_555
C12 C11 1_555 1_555
H7 C12 1_555 1_555
C13 C8 1_555 1_555
H8 C13 1_555 1_555
C15 O3 1_555 1_555
C16 C15 1_555 1_555
C17 C16 1_555 1_555
H9 C17 1_555 1_555
C18 C17 1_555 1_555
H10 C18 1_555 1_555
C19 S2 1_555 1_555
C20 C19 1_555 1_555
C21 C16 1_555 1_555
C22 S2 1_555 1_555
C23 C22 1_555 1_555
H13 C23 1_555 1_555
C24 C23 1_555 1_555
H14 C24 1_555 1_555
C43 H25 1_555 1_555
H26 C43 1_555 1_555
H27 C43 1_555 1_555
C44 O10 1_555 1_555
C45 N1 1_555 1_555
H28 C45 1_555 1_555
H29 C45 1_555 1_555
H30 C45 1_555 1_555
C46 N1 1_555 1_555
H31 C46 1_555 1_555
H32 C46 1_555 1_555
H33 C46 1_555 1_555
O21 Co1 1_555 1_555
O22 Co1 1_555 1_555
O23 Co1 1_555 1_555
O24 Co2 1_555 1_555
O25 Co2 1_555 1_555
Co2 O23 1_555 1_555
C4 C5 1_555 1_555
C6 C7 1_555 1_555
C12 C13 1_555 1_555
C18 C19 1_555 1_555
C20 C21 1_555 1_555
C43 C44 1_555 1_555
O5 C14 1_555 1_555
O7 C14 1_555 1_555
Co5 O5 1_555 1_555
Co7 O5 1_555 1_555
O7 Co7 1_555 1_555
O26 C42_2 1_555 1_555
C37_2 C36_2 1_555 1_555
C38_2 C37_2 1_555 1_555
C39_2 C38_2 1_555 1_555
C40_2 C39_2 1_555 1_555
H23_2 C40_2 1_555 1_555
C41_2 C36_2 1_555 1_555
H24_2 C41_2 1_555 1_555
C42_2 C39_2 1_555 1_555
C40_2 C41_2 1_555 1_555
Co5 O2_2 1_555 1_555
Co7 O9_2 1_555 1_555
Co9 O12_2 1_555 1_555
N2_2 C48_2 1_555 1_555
O2_2 C29_2 1_555 1_555
O3_2 Co5 1_555 1_555
O23 C14_2 1_555 1_555
O6_2 Co5 1_555 1_555
O24 C14_2 1_555 1_555
O9_2 C1_2 1_555 1_555
O12_2 C15_2 1_555 1_555
O13_2 Co9 1_555 1_555
O14_2 Co9 1_555 1_555
O20_2 S3_2 1_555 1_555
C1_2 O6_2 1_555 1_555
C2_2 C1_2 1_555 1_555
C3_2 C2_2 1_555 1_555
H1_2 C3_2 1_555 1_555
C4_2 C3_2 1_555 1_555
H2_2 C4_2 1_555 1_555
C6_2 C5_2 1_555 1_555
H3_2 C6_2 1_555 1_555
C7_2 C2_2 1_555 1_555
H4_2 C7_2 1_555 1_555
H6_2 C10_2 1_555 1_555
C11_2 C10_2 1_555 1_555
C12_2 C11_2 1_555 1_555
H7_2 C12_2 1_555 1_555
C14_2 C11_2 1_555 1_555
C15_2 O3_2 1_555 1_555
C16_2 C15_2 1_555 1_555
C17_2 C16_2 1_555 1_555
H9_2 C17_2 1_555 1_555
C18_2 C17_2 1_555 1_555
H10_2 C18_2 1_555 1_555
C19_2 S2_2 1_555 1_555
C20_2 C19_2 1_555 1_555
H11 C20_2 1_555 1_555
C21_2 C16_2 1_555 1_555
H12 C21_2 1_555 1_555
C22_2 S2_2 1_555 1_555
C23_2 C22_2 1_555 1_555
H13_2 C23_2 1_555 1_555
C24_2 C23_2 1_555 1_555
C25 C24_2 1_555 1_555
C26 C25 1_555 1_555
H15 C26 1_555 1_555
C27 C22_2 1_555 1_555
H16 C27 1_555 1_555
C29_2 O13_2 1_555 1_555
C30_2 C29_2 1_555 1_555
C31_2 C30_2 1_555 1_555
H17_2 C31_2 1_555 1_555
C32_2 C31_2 1_555 1_555
H18_2 C32_2 1_555 1_555
C33_2 S3_2 1_555 1_555
C34_2 C33_2 1_555 1_555
H19_2 C34_2 1_555 1_555
C35_2 C30_2 1_555 1_555
H20_2 C35_2 1_555 1_555
C47_2 H34_2 1_555 1_555
H35_2 C47_2 1_555 1_555
H36_2 C47_2 1_555 1_555
C48_2 O14_2 1_555 1_555
C49_2 N2_2 1_555 1_555
H37_2 C49_2 1_555 1_555
H38_2 C49_2 1_555 1_555
H39_2 C49_2 1_555 1_555
C50_2 N2_2 1_555 1_555
H40_2 C50_2 1_555 1_555
H41_2 C50_2 1_555 1_555
H42_2 C50_2 1_555 1_555
O21_2 Co5 1_555 1_555
O25_2 Co7 1_555 1_555
C4_2 C5_2 1_555 1_555
C6_2 C7_2 1_555 1_555
C18_2 C19_2 1_555 1_555
C20_2 C21_2 1_555 1_555
C26 C27 1_555 1_555
C32_2 C33_2 1_555 1_555
C34_2 C35_2 1_555 1_555
C47_2 C48_2 1_555 1_555
O21_2 C28 1_555 1_555
O25_2 C28 1_555 1_555
C26_2 C25_2 1_555 1_555
H15_2 C26_2 1_555 1_555
H16_2 C27_2 1_555 1_555
C28 C25_2 1_555 1_555
C26_2 C27_2 1_555 1_555
S1_2 O15_2 1_555 1_555
O21 C28_2 1_555 1_555
O25 C28_2 1_555 1_555
O16_2 S1_2 1_555 1_555
C8_2 S1_2 1_555 1_555
C9_2 C8_2 1_555 1_555
H5_2 C9_2 1_555 1_555
C13_2 C8_2 1_555 1_555
H8_2 C13_2 1_555 1_555
O1 C28_3 1_555 1_555
O8 C28_3 1_555 1_555
C26_3 C25_3 1_555 1_555
H15_3 C26_3 1_555 1_555
H16_3 C27_3 1_555 1_555
C28_3 C25_3 1_555 1_555
Co6 O1 1_555 1_555
Co8 O8 1_555 1_555
C26_3 C27_3 1_555 1_555
S1_3 O15_3 1_555 1_555
O1_2 C28_4 1_555 1_555
O8_2 C28_4 1_555 1_555
O16_3 S1_3 1_555 1_555
C8_3 S1_3 1_555 1_555
C9_3 C8_3 1_555 1_555
H5_3 C9_3 1_555 1_555
C13_3 C8_3 1_555 1_555
H8_3 C13_3 1_555 1_555
Co6_2 O1_2 1_555 1_555
Co8_2 O8_2 1_555 1_555
O5_2 C14_3 1_555 1_555
O7_2 C14_3 1_555 1_555
Co6 O5_2 1_555 1_555
Co8 O5_2 1_555 1_555
O7_2 Co8 1_555 1_555
Co8_2 O9_3 1_555 1_555
S1_4 O15_4 1_555 1_555
S2_3 O17_3 1_555 1_555
N1_2 C44_2 1_555 1_555
O3_3 Co6_2 1_555 1_555
O6_3 Co6_2 1_555 1_555
O9_3 C1_3 1_555 1_555
O10_2 Co8_2 1_555 1_555
O12_3 C15_3 1_555 1_555
O16_4 S1_4 1_555 1_555
C1_3 O6_3 1_555 1_555
C2_3 C1_3 1_555 1_555
C3_3 C2_3 1_555 1_555
H1_3 C3_3 1_555 1_555
C4_3 C3_3 1_555 1_555
H2_3 C4_3 1_555 1_555
C5_3 S1_4 1_555 1_555
C6_3 C5_3 1_555 1_555
H3_3 C6_3 1_555 1_555
C7_3 C2_3 1_555 1_555
H4_3 C7_3 1_555 1_555
C8_4 S1_4 1_555 1_555
C9_4 C8_4 1_555 1_555
H5_4 C9_4 1_555 1_555
C10_3 C9_4 1_555 1_555
C11_3 C10_3 1_555 1_555
C12_3 C11_3 1_555 1_555
H7_3 C12_3 1_555 1_555
C13_4 C8_4 1_555 1_555
H8_4 C13_4 1_555 1_555
C15_3 O3_3 1_555 1_555
C16_3 C15_3 1_555 1_555
C17_3 C16_3 1_555 1_555
H9_3 C17_3 1_555 1_555
C18_3 C17_3 1_555 1_555
H10_3 C18_3 1_555 1_555
C19_3 S2_3 1_555 1_555
C20_3 C19_3 1_555 1_555
C21_3 C16_3 1_555 1_555
C22_3 S2_3 1_555 1_555
C23_3 C22_3 1_555 1_555
H13_3 C23_3 1_555 1_555
C24_3 C23_3 1_555 1_555
H14_4 C24_3 1_555 1_555
C43_2 H25_2 1_555 1_555
H26_2 C43_2 1_555 1_555
H27_2 C43_2 1_555 1_555
C44_2 O10_2 1_555 1_555
C45_2 N1_2 1_555 1_555
H28_2 C45_2 1_555 1_555
H29_2 C45_2 1_555 1_555
H30_2 C45_2 1_555 1_555
C46_2 N1_2 1_555 1_555
H31_2 C46_2 1_555 1_555
H32_2 C46_2 1_555 1_555
H33_2 C46_2 1_555 1_555
O22_2 Co6_2 1_555 1_555
O23_2 Co6_2 1_555 1_555
O24_2 Co8_2 1_555 1_555
Co8_2 O23_2 1_555 1_555
C4_3 C5_3 1_555 1_555
C6_3 C7_3 1_555 1_555
C12_3 C13_4 1_555 1_555
C18_3 C19_3 1_555 1_555
C20_3 C21_3 1_555 1_555
C43_2 C44_2 1_555 1_555
S3_3 O19_2 1_555 1_555
O2_3 C29_3 1_555 1_555
O4_2 C42_3 1_555 1_555
O11_2 C42_3 1_555 1_555
O13_3 Co3_2 1_555 1_555
O20_3 S3_3 1_555 1_555
C29_3 O13_3 1_555 1_555
C30_3 C29_3 1_555 1_555
C31_3 C30_3 1_555 1_555
H17_3 C31_3 1_555 1_555
C32_3 C31_3 1_555 1_555
H18_3 C32_3 1_555 1_555
C33_3 S3_3 1_555 1_555
C34_3 C33_3 1_555 1_555
H19_3 C34_3 1_555 1_555
C35_3 C30_3 1_555 1_555
H20_3 C35_3 1_555 1_555
C36_3 S3_3 1_555 1_555
C37_3 C36_3 1_555 1_555
H21_3 C37_3 1_555 1_555
C38_3 C37_3 1_555 1_555
H22_3 C38_3 1_555 1_555
C39_3 C38_3 1_555 1_555
C40_3 C39_3 1_555 1_555
H23_3 C40_3 1_555 1_555
C41_3 C36_3 1_555 1_555
H24_3 C41_3 1_555 1_555
C42_3 C39_3 1_555 1_555
Co6 O4_2 1_555 1_555
Co9_2 O11_2 1_555 1_555
O26_2 Co3_2 1_555 1_555
C32_3 C33_3 1_555 1_555
C34_3 C35_3 1_555 1_555
C40_3 C41_3 1_555 1_555
Co6 O2_4 1_555 1_555
Co8 O9_4 1_555 1_555
Co9_2 O12_4 1_555 1_555
N2_3 C48_3 1_555 1_555
O2_4 C29_4 1_555 1_555
O3_4 Co6 1_555 1_555
O23_2 C14_4 1_555 1_555
O6_4 Co6 1_555 1_555
O24_2 C14_4 1_555 1_555
O9_4 C1_4 1_555 1_555
O12_4 C15_4 1_555 1_555
O13_4 Co9_2 1_555 1_555
O14_3 Co9_2 1_555 1_555
O20_4 S3_4 1_555 1_555
C1_4 O6_4 1_555 1_555
C2_4 C1_4 1_555 1_555
C3_4 C2_4 1_555 1_555
H1_4 C3_4 1_555 1_555
C4_4 C3_4 1_555 1_555
H2_4 C4_4 1_555 1_555
C6_4 C5_4 1_555 1_555
H3_4 C6_4 1_555 1_555
C7_4 C2_4 1_555 1_555
H4_4 C7_4 1_555 1_555
H6_4 C10_4 1_555 1_555
C11_4 C10_4 1_555 1_555
C12_4 C11_4 1_555 1_555
H7_4 C12_4 1_555 1_555
C14_4 C11_4 1_555 1_555
C15_4 O3_4 1_555 1_555
C16_4 C15_4 1_555 1_555
C17_4 C16_4 1_555 1_555
H9_4 C17_4 1_555 1_555
C18_4 C17_4 1_555 1_555
H10_4 C18_4 1_555 1_555
C19_4 S2_4 1_555 1_555
C20_4 C19_4 1_555 1_555
H11_4 C20_4 1_555 1_555
C21_4 C16_4 1_555 1_555
H12_4 C21_4 1_555 1_555
C22_4 S2_4 1_555 1_555
C23_4 C22_4 1_555 1_555
H13_4 C23_4 1_555 1_555
C24_4 C23_4 1_555 1_555
C25_4 C24_4 1_555 1_555
C26_4 C25_4 1_555 1_555
H15_4 C26_4 1_555 1_555
C27_4 C22_4 1_555 1_555
H16_4 C27_4 1_555 1_555
C29_4 O13_4 1_555 1_555
C30_4 C29_4 1_555 1_555
C31_4 C30_4 1_555 1_555
H17_4 C31_4 1_555 1_555
C32_4 C31_4 1_555 1_555
H18_4 C32_4 1_555 1_555
C33_4 S3_4 1_555 1_555
C34_4 C33_4 1_555 1_555
H19_4 C34_4 1_555 1_555
C35_4 C30_4 1_555 1_555
H20_4 C35_4 1_555 1_555
C47_3 H34_3 1_555 1_555
H35_4 C47_3 1_555 1_555
H36_3 C47_3 1_555 1_555
C48_3 O14_3 1_555 1_555
C49_3 N2_3 1_555 1_555
H37_3 C49_3 1_555 1_555
H38_3 C49_3 1_555 1_555
H39_3 C49_3 1_555 1_555
C50_3 N2_3 1_555 1_555
H40_3 C50_3 1_555 1_555
H41_3 C50_3 1_555 1_555
H42_3 C50_3 1_555 1_555
C4_4 C5_4 1_555 1_555
C6_4 C7_4 1_555 1_555
C18_4 C19_4 1_555 1_555
C20_4 C21_4 1_555 1_555
C26_4 C27_4 1_555 1_555
C32_4 C33_4 1_555 1_555
C34_4 C35_4 1_555 1_555
C47_3 C48_3 1_555 1_555
O26_2 C42_4 1_555 1_555
C37_4 C36_4 1_555 1_555
C38_4 C37_4 1_555 1_555
C39_4 C38_4 1_555 1_555
C40_4 C39_4 1_555 1_555
H23_4 C40_4 1_555 1_555
C41_4 C36_4 1_555 1_555
H24_4 C41_4 1_555 1_555
C42_4 C39_4 1_555 1_555
C40_4 C41_4 1_555 1_555
N1_3 C44_3 1_555 1_555
C43_3 H25_3 1_555 1_555
H26_3 C43_3 1_555 1_555
H27_3 C43_3 1_555 1_555
C44_3 O10_3 1_555 1_555
C45_3 N1_3 1_555 1_555
H28_3 C45_3 1_555 1_555
H29_3 C45_3 1_555 1_555
H30_3 C45_3 1_555 1_555
C46_3 N1_3 1_555 1_555
H31_3 C46_3 1_555 1_555
H32_3 C46_3 1_555 1_555
H33_3 C46_3 1_555 1_555
C43_3 C44_3 1_555 1_555
N2_4 C48_4 1_555 1_555
C47_4 H34_4 1_555 1_555
H36_4 C47_4 1_555 1_555
C48_4 O14_4 1_555 1_555
C49_4 N2_4 1_555 1_555
H37_4 C49_4 1_555 1_555
H38_4 C49_4 1_555 1_555
H39_4 C49_4 1_555 1_555
C50_4 N2_4 1_555 1_555
H40_4 C50_4 1_555 1_555
H41_4 C50_4 1_555 1_555
H42_4 C50_4 1_555 1_555
C47_4 C48_4 1_555 1_555
N1_4 C44_4 1_555 1_555
C43_4 H25_4 1_555 1_555
H26_4 C43_4 1_555 1_555
H27_4 C43_4 1_555 1_555
C44_4 O10_4 1_555 1_555
C45_4 N1_4 1_555 1_555
H28_4 C45_4 1_555 1_555
H29_4 C45_4 1_555 1_555
H30_4 C45_4 1_555 1_555
C46_4 N1_4 1_555 1_555
H31_4 C46_4 1_555 1_555
H32_4 C46_4 1_555 1_555
H33_4 C46_4 1_555 1_555
C43_4 C44_4 1_555 1_555

#END
