
###############################################################################
#
# This file contains modified crystal structure data generated from the
# MOF subset of the Cambridge Structural Database (CSD) v543 
# hosted by the Cambridge Crystallographic Data Centre (CCDC).
#
# This work is licensed under the Creative Commons
# Attribution-NonCommercial-ShareAlike 4.0 International License.
# To view a copy of this license, visit
# http://creativecommons.org/licenses/by-nc-sa/4.0/
# or send a letter to
# Creative Commons, PO Box 1866, Mountain View, CA 94042, USA.
#
# CIF created using the CSD Python API on 29 September 2022
# The structure has been converted into the P1 space group
# The structure has a 3D framework
# The original CSD entry COWRAJ is in the monoclinic crystal system
# The framework has been calculated to contain at least 10.0% void space
# The void calculation uses a probe of radius 1.32A, grid spacing 0.4
# H atom positions have been added when not included in the experimental data
#
###############################################################################

data_COWRAJ
_chemical_formula_moiety         '(C208 H192 Co12 N8 O82 S12)n'
_symmetry_cell_setting           triclinic
_symmetry_space_group_name_H-M   'P 1'
_symmetry_Int_Tables_number      1
_space_group_name_Hall           'P 1'
loop_
_symmetry_equiv_pos_site_id
_symmetry_equiv_pos_as_xyz
1 x,y,z
_cell_length_a                   16.7033(9)
_cell_length_b                   20.0195(11)
_cell_length_c                   17.4602(12)
_cell_angle_alpha                90
_cell_angle_beta                 100.423(6)
_cell_angle_gamma                90
_cell_volume                     5742.2
loop_
_atom_site_label
_atom_site_type_symbol
_atom_site_fract_x
_atom_site_fract_y
_atom_site_fract_z
Co3 Co 0.08528(4) 0.14594(4) 0.43907(4)
S3 S 0.44446(9) 0.06989(8) 0.16560(9)
N2 N 0.2486(6) 0.1204(4) 0.6452(4)
O3 O 0.0804(2) 0.1369(2) 0.2490(2)
O13 O 0.1469(2) 0.1069(2) 0.3669(2)
O14 O 0.1495(3) 0.1251(2) 0.5410(2)
O20 O 0.5134(2) 0.0869(2) 0.2235(3)
O21 O 0.4342(3) 0.1014(2) 0.0909(3)
C29 C 0.1409(3) 0.1170(3) 0.2956(3)
C30 C 0.2164(3) 0.1039(3) 0.2624(3)
C31 C 0.2872(3) 0.0819(3) 0.3111(3)
H17 H 0.2871 0.0743 0.3636
C32 C 0.3575(3) 0.0715(3) 0.2815(3)
H18 H 0.4048 0.0566 0.3135
C33 C 0.3559(3) 0.0836(3) 0.2032(3)
C34 C 0.2876(4) 0.1076(4) 0.1553(3)
H19 H 0.2887 0.1175 0.1034
C35 C 0.2174(4) 0.1170(4) 0.1849(3)
H20 H 0.1705 0.1322 0.1526
C49 C 0.2789(5) 0.1633(5) 0.5275(5)
H30 H 0.3315 0.1667 0.5602
H31 H 0.2607 0.2069 0.5091
H32 H 0.2825 0.1350 0.4838
C50 C 0.2177(5) 0.1330(4) 0.5745(5)
C51 C 0.3244(8) 0.1287(6) 0.6892(8)
H33 H 0.3244 0.1131 0.7412
H34 H 0.3388 0.1751 0.6905
H35 H 0.3633 0.1035 0.6667
C52 C 0.1864(7) 0.0949(4) 0.6918(5)
H36 H 0.2127 0.0862 0.7444
H37 H 0.1623 0.0544 0.6686
H38 H 0.1447 0.1279 0.6917
O27 O 0.0883(2) 0.2436(2) 0.4343(2)
S1 S 0.05238(8) 0.77511(7) 0.26585(8)
O5 O 0.5082(3) 0.7403(2) 0.1722(2)
O15 O 0.4117(2) 0.7436(2) 0.0657(2)
O16 O 0.0719(2) 0.7320(2) 0.2062(2)
O17 O 0.1069(2) 0.7799(2) 0.3385(2)
C3 C 0.0052(4) 0.9267(3) 0.1158(4)
H1 H 0.0011 0.9332 0.0625
C4 C 0.0279(4) 0.8649(3) 0.1471(4)
H2 H 0.0373 0.8296 0.1154
C5 C 0.0362(3) 0.8567(3) 0.2256(3)
C6 C 0.0245(4) 0.9090(3) 0.2744(3)
H3 H 0.0317 0.9028 0.3280
C7 C 0.0017(4) 0.9711(3) 0.2414(3)
C36 C 0.4463(3) 0.9822(3) 0.1528(3)
C37 C 0.4862(3) 0.9427(3) 0.2123(3)
H21 H 0.5105 0.9619 0.2593
C38 C 0.4899(3) 0.8746(3) 0.2015(3)
H22 H 0.5185 0.8481 0.2409
C39 C 0.4510(3) 0.8449(3) 0.1320(3)
C40 C 0.4079(4) 0.8865(3) 0.0740(3)
H23 H 0.3801 0.8674 0.0282
C41 C 0.4059(4) 0.9531(3) 0.0830(3)
H24 H 0.3779 0.9799 0.0435
C42 C 0.4576(5) 0.7710(4) 0.1234(5)
Co5 Co 0.54089(4) 0.66580(4) 0.25668(4)
Co9 Co 0.41472(4) 0.64594(4) 0.06093(4)
Co1 Co 0.95911(4) 0.16580(4) 0.24332(4)
Co2 Co 0.85349(4) 0.12517(4) 0.05558(4)
S2 S 0.60313(8) 0.01649(7) 0.46048(7)
O1 O 0.4784(2) 0.2651(2) 0.6626(2)
O2 O 0.9390(2) 0.1007(2) 0.3308(2)
O6 O 0.9265(2) 0.08666(19) 0.1644(2)
O9 O 0.4381(2) 0.3059(2) 0.5421(2)
O10 O 0.9329(3) 0.0438(2) 0.0515(2)
O11 O 0.7653(3) 0.0472(2) 0.0634(3)
O12 O 0.9845(2) 0.1086(2) 0.4579(2)
O18 O 0.5519(2) 0.0012(2) 0.3877(2)
C1 C 0.9498(3) 0.0401(3) 0.1234(3)
H4 H 0.9953 0.0072 0.2733
C15 C 0.9300(3) 0.0964(3) 0.3997(3)
C16 C 0.8498(3) 0.0737(3) 0.4146(3)
C17 C 0.7823(3) 0.0794(3) 0.3553(3)
H9 H 0.7882 0.0948 0.3063
C18 C 0.7062(3) 0.0618(3) 0.3699(3)
H10 H 0.6600 0.0663 0.3316
C19 C 0.7006(3) 0.0377(3) 0.4425(3)
C20 C 0.7670(3) 0.0304(3) 0.5010(3)
H11 H 0.7610 0.0134 0.5492
C21 C 0.8425(3) 0.0488(3) 0.4873(3)
H12 H 0.8882 0.0446 0.5263
C22 C 0.5687(3) 0.0907(3) 0.4971(3)
C23 C 0.5244(3) 0.1369(3) 0.4468(3)
H13 H 0.5152 0.1300 0.3933
C24 C 0.4944(3) 0.1925(3) 0.4770(3)
H14 H 0.4642 0.2233 0.4438
C25 C 0.5085(3) 0.2036(3) 0.5565(3)
C26 C 0.5544(3) 0.1581(3) 0.6058(3)
H15 H 0.5654 0.1660 0.6592
C27 C 0.5840(3) 0.1010(3) 0.5760(3)
H16 H 0.6138 0.0699 0.6092
C28 C 0.4724(3) 0.2631(3) 0.5897(3)
C43 C 0.7497(5) 0.0312(4) 0.1392(4)
H25 H 0.7833 0.0598 0.1768
C44 C 0.6587(7) 0.0382(6) 0.1511(8)
H27 H 0.6552 0.0272 0.2039
H28 H 0.6248 0.0083 0.1163
H29 H 0.6406 0.0833 0.1403
H39 H 0.7308 0.0239 0.0273
Co6 Co 0.45911(4) 0.33420(4) 0.74332(4)
Co8 Co 0.35349(4) 0.37483(4) 0.55558(4)
O22 O 0.9784(2) 0.2349(2) 0.1626(2)
O23 O 0.8365(2) 0.1935(2) 0.2331(2)
O24 O 0.9918(3) 0.2403(2) 0.3278(2)
O25 O 0.7816(2) 0.1845(2) 0.1066(2)
O26 O 0.9381(2) 0.1941(2) 0.0421(2)
O4 O 0.6635(2) 0.6935(2) 0.2669(2)
O8 O 0.7184(2) 0.6845(2) 0.3934(2)
O19 O 0.6144(2) 0.9674(2) 0.5213(2)
C2 C 0.9885(3) 0.9791(3) 0.1614(3)
C8 C 0.9553(3) 0.7525(3) 0.2829(3)
C9 C 0.8926(3) 0.7427(3) 0.2207(3)
H5 H 0.9021 0.7470 0.1701
C10 C 0.8163(3) 0.7266(3) 0.2333(3)
H6 H 0.7737 0.7210 0.1915
C11 C 0.8033(3) 0.7189(3) 0.3090(3)
C12 C 0.8677(3) 0.7276(3) 0.3712(3)
H7 H 0.8594 0.7204 0.4219
C13 C 0.9433(3) 0.7468(3) 0.3584(3)
H8 H 0.9853 0.7556 0.3999
C14 C 0.7204(3) 0.6973(3) 0.3230(3)
H26 H 0.7670 0.9855 0.1512
Co7 Co 0.64651(4) 0.62517(4) 0.44442(4)
O1_2 O 0.0216(2) 0.7651(2) 0.8374(2)
O9_2 O 0.0619(2) 0.8059(2) 0.9579(2)
C28_2 C 0.0276(3) 0.7631(3) 0.9103(3)
Co6_2 Co 0.04089(4) 0.83420(4) 0.75668(4)
Co8_2 Co 0.14651(4) 0.87483(4) 0.94442(4)
S1_2 S 0.44762(8) 0.27511(7) 0.23415(8)
S2_2 S 0.89687(8) 0.51649(7) 0.03952(7)
S3_2 S 0.05554(9) 0.56989(8) 0.33440(9)
N1 N 0.7428(3) 0.6535(3) 0.6830(3)
O2_2 O 0.5610(2) 0.6007(2) 0.1692(2)
O3_2 O 0.4196(2) 0.6369(2) 0.2510(2)
O6_2 O 0.5735(2) 0.58666(19) 0.3356(2)
O7 O 0.6984(3) 0.6406(3) 0.5554(2)
O10_2 O 0.5671(3) 0.5438(2) 0.4485(2)
O11_2 O 0.7347(3) 0.5472(2) 0.4366(3)
O12_2 O 0.5155(2) 0.6086(2) 0.0421(2)
O13_2 O 0.3531(2) 0.6069(2) 0.1331(2)
O16_2 O 0.4281(2) 0.2320(2) 0.2938(2)
O17_2 O 0.3931(2) 0.2799(2) 0.1615(2)
O18_2 O 0.9481(2) 0.5012(2) 0.1123(2)
O21_2 O 0.0658(3) 0.6014(2) 0.4091(3)
C1_2 C 0.5502(3) 0.5401(3) 0.3766(3)
C2_2 C 0.5115(3) 0.4791(3) 0.3386(3)
C3_2 C 0.4948(4) 0.4267(3) 0.3842(4)
H1_2 H 0.4989 0.4332 0.4375
C4_2 C 0.4721(4) 0.3649(3) 0.3529(4)
H2_2 H 0.4627 0.3296 0.3846
C5_2 C 0.4638(3) 0.3567(3) 0.2744(3)
C6_2 C 0.4755(4) 0.4090(3) 0.2256(3)
H3_2 H 0.4683 0.4028 0.1720
C7_2 C 0.4983(4) 0.4711(3) 0.2586(3)
H4_2 H 0.5047 0.5072 0.2267
C8_2 C 0.5447(3) 0.2525(3) 0.2171(3)
C9_2 C 0.6074(3) 0.2427(3) 0.2793(3)
H5_2 H 0.5979 0.2470 0.3299
C10_2 C 0.6837(3) 0.2266(3) 0.2667(3)
H6_2 H 0.7263 0.2210 0.3085
C11_2 C 0.6967(3) 0.2189(3) 0.1910(3)
C12_2 C 0.6323(3) 0.2276(3) 0.1288(3)
H7_2 H 0.6406 0.2204 0.0781
C13_2 C 0.5567(3) 0.2468(3) 0.1416(3)
H8_2 H 0.5147 0.2556 0.1001
C14_2 C 0.7796(3) 0.1973(3) 0.1770(3)
C15_2 C 0.5700(3) 0.5964(3) 0.1003(3)
C16_2 C 0.6502(3) 0.5737(3) 0.0854(3)
C17_2 C 0.7177(3) 0.5794(3) 0.1447(3)
H9_2 H 0.7118 0.5948 0.1937
C18_2 C 0.7938(3) 0.5618(3) 0.1301(3)
H10_2 H 0.8400 0.5663 0.1684
C19_2 C 0.7994(3) 0.5377(3) 0.0575(3)
C21_2 C 0.6575(3) 0.5488(3) 0.0127(3)
C22_2 C 0.9313(3) 0.5907(3) 0.0029(3)
C23_2 C 0.9756(3) 0.6369(3) 0.0532(3)
H13_2 H 0.9848 0.6300 0.1067
C29_2 C 0.3591(3) 0.6170(3) 0.2044(3)
C30_2 C 0.2836(3) 0.6039(3) 0.2376(3)
C31_2 C 0.2128(3) 0.5819(3) 0.1889(3)
H17_2 H 0.2129 0.5743 0.1364
C32_2 C 0.1425(3) 0.5715(3) 0.2185(3)
H18_2 H 0.0952 0.5566 0.1865
C33_2 C 0.1441(3) 0.5836(3) 0.2968(3)
C34_2 C 0.2124(4) 0.6076(4) 0.3447(3)
H19_2 H 0.2113 0.6175 0.3966
C35_2 C 0.2826(4) 0.6170(4) 0.3151(3)
H20_2 H 0.3295 0.6322 0.3474
C36_2 C 0.0537(3) 0.4822(3) 0.3472(3)
C37_2 C 0.0138(3) 0.4427(3) 0.2877(3)
C38_2 C 0.0101(3) 0.3746(3) 0.2985(3)
C39_2 C 0.0490(3) 0.3449(3) 0.3680(3)
C40_2 C 0.0921(4) 0.3865(3) 0.4260(3)
H23_2 H 0.1199 0.3674 0.4718
C41_2 C 0.0941(4) 0.4531(3) 0.4170(3)
H24_2 H 0.1221 0.4799 0.4565
C42_2 C 0.0424(5) 0.2710(4) 0.3766(5)
C43_2 C 0.7503(5) 0.5312(4) 0.3608(4)
H25_2 H 0.7167 0.5598 0.3232
H26_2 H 0.7330 0.4855 0.3488
C44_2 C 0.8413(7) 0.5382(6) 0.3489(8)
H27_2 H 0.8448 0.5272 0.2961
H28_2 H 0.8752 0.5083 0.3837
H29_2 H 0.8594 0.5833 0.3597
C45 C 0.7013(6) 0.5458(6) 0.6230(6)
C46 C 0.7131(6) 0.6213(5) 0.6145(6)
C47 C 0.7599(8) 0.6202(7) 0.7572(7)
C48 C 0.7599(6) 0.7243(6) 0.6788(6)
H32_2 H 0.2175 0.6350 0.0162
H39_2 H 0.7692 0.5239 0.4727
O22_2 O 0.5216(2) 0.7349(2) 0.3374(2)
O26_2 O 0.5619(2) 0.6941(2) 0.4579(2)
H40 H 0.805486 0.581563 0.755711
H41 H 0.782826 0.656305 0.802533
H42 H 0.704329 0.597531 0.76951
H43 H 0.704238 0.750745 0.654068
H44 H 0.782975 0.743276 0.737065
H45 H 0.805327 0.732039 0.642114
H46 H 0.658372 0.536832 0.661972
H47 H 0.677655 0.524269 0.566128
H48 H 0.759501 0.522733 0.646931
O20_2 O 0.9866(2) 0.5869(2) 0.2765(3)
H21_2 H 0.9895 0.4619 0.2407
H22_2 H 0.9815 0.3481 0.2591
O4_2 O 0.3365(2) 0.3065(2) 0.7331(2)
O8_2 O 0.2816(2) 0.3155(2) 0.6066(2)
O19_2 O 0.3856(2) 0.0326(2) 0.4787(2)
C2_3 C 0.0115(3) 0.0209(3) 0.8386(3)
C8_3 C 0.0447(3) 0.2475(3) 0.7171(3)
C9_3 C 0.1074(3) 0.2573(3) 0.7793(3)
H5_3 H 0.0979 0.2530 0.8299
C10_3 C 0.1837(3) 0.2734(3) 0.7667(3)
H6_3 H 0.2263 0.2790 0.8085
C11_3 C 0.1967(3) 0.2811(3) 0.6910(3)
C12_3 C 0.1323(3) 0.2724(3) 0.6288(3)
H7_3 H 0.1406 0.2796 0.5781
C13_3 C 0.0567(3) 0.2532(3) 0.6416(3)
H8_3 H 0.0147 0.2444 0.6001
C14_3 C 0.2796(3) 0.3027(3) 0.6770(3)
H26_3 H 0.2330 0.0145 0.8488
S2_3 S 0.39687(8) 0.98351(7) 0.53952(7)
O2_3 O 0.0610(2) 0.8993(2) 0.6692(2)
O6_3 O 0.0735(2) 0.91334(19) 0.8356(2)
O10_3 O 0.0671(3) 0.9562(2) 0.9485(2)
O11_3 O 0.2347(3) 0.9528(2) 0.9366(3)
O12_3 O 0.0155(2) 0.8914(2) 0.5421(2)
O18_3 O 0.4481(2) 0.9988(2) 0.6123(2)
C1_3 C 0.0502(3) 0.9599(3) 0.8766(3)
H4_3 H 0.0047 0.9928 0.7267
C15_3 C 0.0700(3) 0.9036(3) 0.6003(3)
C16_3 C 0.1502(3) 0.9263(3) 0.5854(3)
C17_3 C 0.2177(3) 0.9206(3) 0.6447(3)
H9_3 H 0.2118 0.9052 0.6937
C18_3 C 0.2938(3) 0.9382(3) 0.6301(3)
H10_3 H 0.3400 0.9337 0.6684
C19_3 C 0.2994(3) 0.9623(3) 0.5575(3)
C20_2 C 0.2330(3) 0.9696(3) 0.4990(3)
H11_2 H 0.2390 0.9866 0.4508
C21_3 C 0.1575(3) 0.9512(3) 0.5127(3)
H12_2 H 0.1118 0.9554 0.4737
C22_3 C 0.4313(3) 0.9093(3) 0.5029(3)
C23_3 C 0.4756(3) 0.8631(3) 0.5532(3)
H13_3 H 0.4848 0.8700 0.6067
C24_2 C 0.5056(3) 0.8075(3) 0.5230(3)
H14_2 H 0.5358 0.7767 0.5562
C25_2 C 0.4915(3) 0.7964(3) 0.4435(3)
C26_2 C 0.4456(3) 0.8419(3) 0.3942(3)
H15_2 H 0.4346 0.8340 0.3408
C27_2 C 0.4160(3) 0.8990(3) 0.4240(3)
H16_2 H 0.3862 0.9301 0.3908
C28_3 C 0.5276(3) 0.7369(3) 0.4103(3)
C43_3 C 0.2503(5) 0.9688(4) 0.8608(4)
H25_3 H 0.2167 0.9402 0.8232
C44_3 C 0.3413(7) 0.9618(6) 0.8489(8)
H27_3 H 0.3448 0.9728 0.7961
H28_3 H 0.3752 0.9917 0.8837
H29_3 H 0.3594 0.9167 0.8597
H39_3 H 0.2692 0.9761 0.9727
O23_2 O 0.1635(2) 0.8065(2) 0.7669(2)
O24_2 O 0.0082(3) 0.7597(2) 0.6722(2)
O25_2 O 0.2184(2) 0.8155(2) 0.8934(2)
S1_3 S 0.94762(8) 0.22489(7) 0.73415(8)
O5_2 O 0.4918(3) 0.2597(2) 0.8278(2)
O15_2 O 0.5883(2) 0.2564(2) 0.9343(2)
O16_3 O 0.9281(2) 0.2680(2) 0.7938(2)
O17_3 O 0.8931(2) 0.2201(2) 0.6615(2)
C3_3 C 0.9948(4) 0.0733(3) 0.8842(4)
H1_3 H 0.9989 0.0668 0.9375
C4_3 C 0.9721(4) 0.1351(3) 0.8529(4)
H2_3 H 0.9627 0.1704 0.8846
C5_3 C 0.9638(3) 0.1433(3) 0.7744(3)
C6_3 C 0.9755(4) 0.0910(3) 0.7256(3)
H3_3 H 0.9683 0.0972 0.6720
C7_3 C 0.9983(4) 0.0289(3) 0.7586(3)
C36_3 C 0.5537(3) 0.0178(3) 0.8472(3)
C37_3 C 0.5138(3) 0.0573(3) 0.7877(3)
H21_3 H 0.4895 0.0381 0.7407
C38_3 C 0.5101(3) 0.1254(3) 0.7985(3)
H22_3 H 0.4815 0.1519 0.7591
C39_3 C 0.5490(3) 0.1551(3) 0.8680(3)
C40_3 C 0.5921(4) 0.1135(3) 0.9260(3)
H23_3 H 0.6199 0.1326 0.9718
C41_3 C 0.5941(4) 0.0469(3) 0.9170(3)
H24_3 H 0.6221 0.0201 0.9565
C42_3 C 0.5424(5) 0.2290(4) 0.8766(5)
Co9_2 Co 0.58528(4) 0.35406(4) 0.93907(4)
Co3_2 Co 0.91472(4) 0.85406(4) 0.56093(4)
S3_3 S 0.55554(9) 0.93011(8) 0.83440(9)
N2_2 N 0.7514(6) 0.8796(4) 0.3548(4)
O3_3 O 0.9196(2) 0.8631(2) 0.7510(2)
O13_3 O 0.8531(2) 0.8931(2) 0.6331(2)
O14_2 O 0.8505(3) 0.8749(2) 0.4590(2)
O20_3 O 0.4866(2) 0.9131(2) 0.7765(3)
O21_3 O 0.5658(3) 0.8986(2) 0.9091(3)
C29_3 C 0.8591(3) 0.8830(3) 0.7044(3)
C30_3 C 0.7836(3) 0.8961(3) 0.7376(3)
C31_3 C 0.7128(3) 0.9181(3) 0.6889(3)
H17_3 H 0.7129 0.9257 0.6364
C32_3 C 0.6425(3) 0.9285(3) 0.7185(3)
H18_3 H 0.5952 0.9434 0.6865
C33_3 C 0.6441(3) 0.9164(3) 0.7968(3)
C34_3 C 0.7124(4) 0.8924(4) 0.8447(3)
H19_3 H 0.7113 0.8825 0.8966
C35_3 C 0.7826(4) 0.8830(4) 0.8151(3)
H20_3 H 0.8295 0.8678 0.8474
C49_2 C 0.7211(5) 0.8367(5) 0.4725(5)
H30_2 H 0.6685 0.8333 0.4398
H31_2 H 0.7393 0.7931 0.4909
H32_3 H 0.7175 0.8650 0.5162
C50_2 C 0.7823(5) 0.8670(4) 0.4255(5)
C51_2 C 0.6756(8) 0.8713(6) 0.3108(8)
H33_2 H 0.6756 0.8869 0.2588
H34_2 H 0.6612 0.8249 0.3095
H35_2 H 0.6367 0.8965 0.3333
C52_2 C 0.8136(7) 0.9051(4) 0.3082(5)
H36_2 H 0.7873 0.9138 0.2556
H37_2 H 0.8377 0.9456 0.3314
H38_2 H 0.8553 0.8721 0.3083
O27_2 O 0.9117(2) 0.7564(2) 0.5657(2)
O20_4 O 0.0134(2) 0.4131(2) 0.7235(3)
H21_4 H 0.0105 0.5381 0.7593
H22_4 H 0.0185 0.6519 0.7409
S1_4 S 0.55238(8) 0.72489(7) 0.76585(8)
S2_4 S 0.10313(8) 0.48351(7) 0.96048(7)
S3_4 S 0.94446(9) 0.43011(8) 0.66560(9)
N1_2 N 0.2572(3) 0.3465(3) 0.3170(3)
O2_4 O 0.4390(2) 0.3993(2) 0.8308(2)
O3_4 O 0.5804(2) 0.3631(2) 0.7490(2)
O6_4 O 0.4265(2) 0.41334(19) 0.6644(2)
O7_2 O 0.3016(3) 0.3594(3) 0.4446(2)
O10_4 O 0.4329(3) 0.4562(2) 0.5515(2)
O11_4 O 0.2653(3) 0.4528(2) 0.5634(3)
O12_4 O 0.4845(2) 0.3914(2) 0.9579(2)
O13_4 O 0.6469(2) 0.3931(2) 0.8669(2)
O16_4 O 0.5719(2) 0.7680(2) 0.7062(2)
O17_4 O 0.6069(2) 0.7201(2) 0.8385(2)
O18_4 O 0.0519(2) 0.4988(2) 0.8877(2)
O21_4 O 0.9342(3) 0.3986(2) 0.5909(3)
C1_4 C 0.4498(3) 0.4599(3) 0.6234(3)
C2_4 C 0.4885(3) 0.5209(3) 0.6614(3)
C3_4 C 0.5052(4) 0.5733(3) 0.6158(4)
H1_4 H 0.5011 0.5668 0.5625
C4_4 C 0.5279(4) 0.6351(3) 0.6471(4)
H2_4 H 0.5373 0.6704 0.6154
C5_4 C 0.5362(3) 0.6433(3) 0.7256(3)
C6_4 C 0.5245(4) 0.5910(3) 0.7744(3)
H3_4 H 0.5317 0.5972 0.8280
C7_4 C 0.5017(4) 0.5289(3) 0.7414(3)
H4_4 H 0.4953 0.4928 0.7733
C8_4 C 0.4553(3) 0.7475(3) 0.7829(3)
C9_4 C 0.3926(3) 0.7573(3) 0.7207(3)
H5_4 H 0.4021 0.7530 0.6701
C10_4 C 0.3163(3) 0.7734(3) 0.7333(3)
H6_4 H 0.2737 0.7790 0.6915
C11_4 C 0.3033(3) 0.7811(3) 0.8090(3)
C12_4 C 0.3677(3) 0.7724(3) 0.8712(3)
H7_4 H 0.3594 0.7796 0.9219
C13_4 C 0.4433(3) 0.7532(3) 0.8584(3)
H8_4 H 0.4853 0.7444 0.8999
C14_4 C 0.2204(3) 0.8027(3) 0.8230(3)
C15_4 C 0.4300(3) 0.4036(3) 0.8997(3)
C16_4 C 0.3498(3) 0.4263(3) 0.9146(3)
C17_4 C 0.2823(3) 0.4206(3) 0.8553(3)
H9_4 H 0.2882 0.4052 0.8063
C18_4 C 0.2062(3) 0.4382(3) 0.8699(3)
H10_4 H 0.1600 0.4337 0.8316
C19_4 C 0.2006(3) 0.4623(3) 0.9425(3)
C21_4 C 0.3425(3) 0.4512(3) 0.9873(3)
C22_4 C 0.0687(3) 0.4093(3) 0.9971(3)
C23_4 C 0.0244(3) 0.3631(3) 0.9468(3)
H13_4 H 0.0152 0.3700 0.8933
C29_4 C 0.6409(3) 0.3830(3) 0.7956(3)
C30_4 C 0.7164(3) 0.3961(3) 0.7624(3)
C31_4 C 0.7872(3) 0.4181(3) 0.8111(3)
H17_4 H 0.7871 0.4257 0.8636
C32_4 C 0.8575(3) 0.4285(3) 0.7815(3)
H18_4 H 0.9048 0.4434 0.8135
C33_4 C 0.8559(3) 0.4164(3) 0.7032(3)
C34_4 C 0.7876(4) 0.3924(4) 0.6553(3)
H19_4 H 0.7887 0.3825 0.6034
C35_4 C 0.7174(4) 0.3830(4) 0.6849(3)
H20_4 H 0.6705 0.3678 0.6526
C36_4 C 0.9463(3) 0.5178(3) 0.6528(3)
C37_4 C 0.9862(3) 0.5573(3) 0.7123(3)
C38_4 C 0.9899(3) 0.6254(3) 0.7015(3)
C39_4 C 0.9510(3) 0.6551(3) 0.6320(3)
C40_4 C 0.9079(4) 0.6135(3) 0.5740(3)
H23_4 H 0.8801 0.6326 0.5282
C41_4 C 0.9059(4) 0.5469(3) 0.5830(3)
H24_4 H 0.8779 0.5201 0.5435
C42_4 C 0.9576(5) 0.7290(4) 0.6234(5)
C43_4 C 0.2497(5) 0.4688(4) 0.6392(4)
H25_4 H 0.2833 0.4402 0.6768
H26_4 H 0.2670 0.5145 0.6512
C44_4 C 0.1587(7) 0.4618(6) 0.6511(8)
H27_4 H 0.1552 0.4728 0.7039
H28_4 H 0.1248 0.4917 0.6163
H29_4 H 0.1406 0.4167 0.6403
C45_2 C 0.2987(6) 0.4542(6) 0.3770(6)
C46_2 C 0.2869(6) 0.3787(5) 0.3855(6)
C47_2 C 0.2401(8) 0.3798(7) 0.2428(7)
C48_2 C 0.2401(6) 0.2757(6) 0.3212(6)
H32_4 H 0.7825 0.3650 0.9838
H39_4 H 0.2308 0.4761 0.5273
H40_2 H 0.194514 0.418437 0.244289
H41_2 H 0.217174 0.343695 0.197467
H42_2 H 0.295671 0.402469 0.23049
H43_2 H 0.295762 0.249255 0.345932
H44_2 H 0.217025 0.256724 0.262935
H45_2 H 0.194673 0.267961 0.357886
H46_2 H 0.341628 0.463168 0.338028
H47_2 H 0.322345 0.475731 0.433872
H48_2 H 0.240499 0.477267 0.353069
C28_4 C 0.9724(3) 0.2369(3) 0.0897(3)
N1_3 N 0.7572(3) 0.1535(3) 0.8170(3)
O7_3 O 0.8016(3) 0.1406(3) 0.9446(2)
C45_3 C 0.7987(6) 0.0458(6) 0.8770(6)
C46_3 C 0.7869(6) 0.1213(5) 0.8855(6)
C47_3 C 0.7401(8) 0.1202(7) 0.7428(7)
C48_3 C 0.7401(6) 0.2243(6) 0.8212(6)
H40_3 H 0.694514 0.0815629 0.744289
H41_3 H 0.717174 0.156305 0.697467
H42_3 H 0.795671 0.097531 0.73049
H43_3 H 0.795762 0.250745 0.845932
H44_3 H 0.717025 0.243276 0.762935
H45_3 H 0.694673 0.232039 0.857886
H46_3 H 0.841628 0.0368324 0.838028
H47_3 H 0.822345 0.0242688 0.933872
H48_3 H 0.740499 0.0227331 0.853069
C24_3 C 0.0056(3) 0.6925(3) 0.0230(3)
H14_3 H 0.0358 0.7233 0.0562
N2_3 N 0.2514(6) 0.6204(4) 0.8548(4)
O14_3 O 0.3505(3) 0.6251(2) 0.9590(2)
O19_3 O 0.8856(2) 0.4674(2) 0.9787(2)
C20_3 C 0.7330(3) 0.5304(3) 0.9990(3)
H11_3 H 0.7390 0.5134 0.9508
H12_3 H 0.6118 0.5446 0.9737
C25_3 C 0.9915(3) 0.7036(3) 0.9435(3)
C26_3 C 0.9456(3) 0.6581(3) 0.8942(3)
H15_3 H 0.9346 0.6660 0.8408
C27_3 C 0.9160(3) 0.6010(3) 0.9240(3)
H16_3 H 0.8862 0.5699 0.8908
C49_3 C 0.2211(5) 0.6633(5) 0.9725(5)
H30_3 H 0.1685 0.6667 0.9398
H31_3 H 0.2393 0.7069 0.9909
C50_3 C 0.2823(5) 0.6330(4) 0.9255(5)
C51_3 C 0.1756(8) 0.6287(6) 0.8108(8)
H33_3 H 0.1756 0.6131 0.7588
H34_3 H 0.1612 0.6751 0.8095
H35_3 H 0.1367 0.6035 0.8333
C52_3 C 0.3136(7) 0.5949(4) 0.8082(5)
H36_3 H 0.2873 0.5862 0.7556
H37_3 H 0.3377 0.5544 0.8314
H38_3 H 0.3553 0.6279 0.8083
N1_4 N 0.2428(3) 0.8465(3) 0.1830(3)
O7_4 O 0.1984(3) 0.8594(3) 0.0554(2)
C45_4 C 0.2013(6) 0.9542(6) 0.1230(6)
C46_4 C 0.2131(6) 0.8787(5) 0.1145(6)
C47_4 C 0.2599(8) 0.8798(7) 0.2572(7)
C48_4 C 0.2599(6) 0.7757(6) 0.1788(6)
H40_4 H 0.305486 0.918437 0.255711
H41_4 H 0.282826 0.843695 0.302533
H42_4 H 0.204329 0.902469 0.26951
H43_4 H 0.204238 0.749255 0.154068
H44_4 H 0.282975 0.756724 0.237065
H45_4 H 0.305327 0.767961 0.142114
H46_4 H 0.158372 0.963168 0.161972
H47_4 H 0.177655 0.975731 0.066128
H48_4 H 0.259501 0.977267 0.146931
N2_4 N 0.7486(6) 0.3796(4) 0.1452(4)
O14_4 O 0.6495(3) 0.3749(2) 0.0410(2)
O19_4 O 0.1144(2) 0.5326(2) 0.0213(2)
C20_4 C 0.2670(3) 0.4696(3) 0.0010(3)
H11_4 H 0.2610 0.4866 0.0492
H12_4 H 0.3882 0.4554 0.0263
C25_4 C 0.0085(3) 0.2964(3) 0.0565(3)
C26_4 C 0.0544(3) 0.3419(3) 0.1058(3)
H15_4 H 0.0654 0.3340 0.1592
C27_4 C 0.0840(3) 0.3990(3) 0.0760(3)
H16_4 H 0.1138 0.4301 0.1092
C49_4 C 0.7789(5) 0.3367(5) 0.0275(5)
H30_4 H 0.8315 0.3333 0.0602
H31_4 H 0.7607 0.2931 0.0091
C50_4 C 0.7177(5) 0.3670(4) 0.0745(5)
C51_4 C 0.8244(8) 0.3713(6) 0.1892(8)
H33_4 H 0.8244 0.3869 0.2412
H34_4 H 0.8388 0.3249 0.1905
H35_4 H 0.8633 0.3965 0.1667
C52_4 C 0.6864(7) 0.4051(4) 0.1918(5)
H36_4 H 0.7127 0.4138 0.2444
H37_4 H 0.6623 0.4456 0.1686
H38_4 H 0.6447 0.3721 0.1917
C24_4 C 0.9944(3) 0.3075(3) 0.9770(3)
H14_4 H 0.9642 0.2767 0.9438
loop_
_geom_bond_atom_site_label_1
_geom_bond_atom_site_label_2
_geom_bond_site_symmetry_1
_geom_bond_site_symmetry_2
S3 O20 1_555 1_555
N2 C50 1_555 1_555
O13 Co3 1_555 1_555
O14 Co3 1_555 1_555
O21 S3 1_555 1_555
C29 O3 1_555 1_555
C30 C29 1_555 1_555
C31 C30 1_555 1_555
H17 C31 1_555 1_555
C32 C31 1_555 1_555
H18 C32 1_555 1_555
C33 S3 1_555 1_555
C34 C33 1_555 1_555
H19 C34 1_555 1_555
C35 C30 1_555 1_555
H20 C35 1_555 1_555
C49 H30 1_555 1_555
H31 C49 1_555 1_555
H32 C49 1_555 1_555
C50 O14 1_555 1_555
C51 N2 1_555 1_555
H33 C51 1_555 1_555
H34 C51 1_555 1_555
H35 C51 1_555 1_555
C52 N2 1_555 1_555
H36 C52 1_555 1_555
H37 C52 1_555 1_555
H38 C52 1_555 1_555
O27 Co3 1_555 1_555
O13 C29 1_555 1_555
C32 C33 1_555 1_555
C34 C35 1_555 1_555
C49 C50 1_555 1_555
S1 O16 1_555 1_555
O5 C42 1_555 1_555
O15 C42 1_555 1_555
O17 S1 1_555 1_555
H1 C3 1_555 1_555
C4 C3 1_555 1_555
H2 C4 1_555 1_555
C5 S1 1_555 1_555
C6 C5 1_555 1_555
H3 C6 1_555 1_555
C37 C36 1_555 1_555
H21 C37 1_555 1_555
C38 C37 1_555 1_555
H22 C38 1_555 1_555
C39 C38 1_555 1_555
C40 C39 1_555 1_555
H23 C40 1_555 1_555
C41 C36 1_555 1_555
H24 C41 1_555 1_555
C42 C39 1_555 1_555
Co5 O5 1_555 1_555
Co9 O15 1_555 1_555
C4 C5 1_555 1_555
C6 C7 1_555 1_555
C40 C41 1_555 1_555
Co1 O2 1_555 1_555
Co2 O6 1_555 1_555
S2 O18 1_555 1_555
O1 C28 1_555 1_555
O2 C15 1_555 1_555
O6 Co1 1_555 1_555
O9 C28 1_555 1_555
O10 Co2 1_555 1_555
O11 Co2 1_555 1_555
O12 C15 1_555 1_555
C1 O6 1_555 1_555
C15 C16 1_555 1_555
C16 C17 1_555 1_555
C17 H9 1_555 1_555
C18 C17 1_555 1_555
H10 C18 1_555 1_555
C19 S2 1_555 1_555
C20 C19 1_555 1_555
H11 C20 1_555 1_555
C21 C16 1_555 1_555
H12 C21 1_555 1_555
C22 S2 1_555 1_555
C23 C22 1_555 1_555
H13 C23 1_555 1_555
C24 C23 1_555 1_555
H14 C24 1_555 1_555
C25 C24 1_555 1_555
C26 C25 1_555 1_555
H15 C26 1_555 1_555
C27 C22 1_555 1_555
H16 C27 1_555 1_555
C28 C25 1_555 1_555
C43 O11 1_555 1_555
H25 C43 1_555 1_555
C44 C43 1_555 1_555
H27 C44 1_555 1_555
H28 C44 1_555 1_555
H29 C44 1_555 1_555
H39 O11 1_555 1_555
Co6 O1 1_555 1_555
Co8 O9 1_555 1_555
O22 Co1 1_555 1_555
O23 Co1 1_555 1_555
O24 Co1 1_555 1_555
O25 Co2 1_555 1_555
O26 Co2 1_555 1_555
O10 C1 1_555 1_555
C18 C19 1_555 1_555
C20 C21 1_555 1_555
C26 C27 1_555 1_555
O4 C14 1_555 1_555
O8 C14 1_555 1_555
C9 C8 1_555 1_555
H5 C9 1_555 1_555
C10 C9 1_555 1_555
H6 C10 1_555 1_555
C11 C10 1_555 1_555
C12 C11 1_555 1_555
H7 C12 1_555 1_555
C13 C8 1_555 1_555
H8 C13 1_555 1_555
C14 C11 1_555 1_555
Co5 O4 1_555 1_555
Co7 O8 1_555 1_555
C12 C13 1_555 1_555
O1_2 C28_2 1_555 1_555
O9_2 C28_2 1_555 1_555
Co6_2 O1_2 1_555 1_555
Co8_2 O9_2 1_555 1_555
Co5 O2_2 1_555 1_555
Co7 O6_2 1_555 1_555
Co9 O12_2 1_555 1_555
S1_2 O16_2 1_555 1_555
S2_2 O18_2 1_555 1_555
N1 C46 1_555 1_555
O2_2 C15_2 1_555 1_555
O3_2 Co5 1_555 1_555
O23 C14_2 1_555 1_555
O6_2 Co5 1_555 1_555
O7 Co7 1_555 1_555
O25 C14_2 1_555 1_555
O10_2 Co7 1_555 1_555
O11_2 Co7 1_555 1_555
O12_2 C15_2 1_555 1_555
O13_2 Co9 1_555 1_555
O27 C42_2 1_555 1_555
O17_2 S1_2 1_555 1_555
O21_2 S3_2 1_555 1_555
C1_2 O6_2 1_555 1_555
C2_2 C1_2 1_555 1_555
C3_2 C2_2 1_555 1_555
H1_2 C3_2 1_555 1_555
C4_2 C3_2 1_555 1_555
H2_2 C4_2 1_555 1_555
C5_2 S1_2 1_555 1_555
C6_2 C5_2 1_555 1_555
H3_2 C6_2 1_555 1_555
C7_2 C2_2 1_555 1_555
H4_2 C7_2 1_555 1_555
C8_2 S1_2 1_555 1_555
C9_2 C8_2 1_555 1_555
H5_2 C9_2 1_555 1_555
C10_2 C9_2 1_555 1_555
H6_2 C10_2 1_555 1_555
C11_2 C10_2 1_555 1_555
C12_2 C11_2 1_555 1_555
H7_2 C12_2 1_555 1_555
C13_2 C8_2 1_555 1_555
H8_2 C13_2 1_555 1_555
C14_2 C11_2 1_555 1_555
C15_2 C16_2 1_555 1_555
C16_2 C17_2 1_555 1_555
C17_2 H9_2 1_555 1_555
C18_2 C17_2 1_555 1_555
H10_2 C18_2 1_555 1_555
C19_2 S2_2 1_555 1_555
C21_2 C16_2 1_555 1_555
C22_2 S2_2 1_555 1_555
C23_2 C22_2 1_555 1_555
H13_2 C23_2 1_555 1_555
C29_2 O3_2 1_555 1_555
C30_2 C29_2 1_555 1_555
C31_2 C30_2 1_555 1_555
H17_2 C31_2 1_555 1_555
C32_2 C31_2 1_555 1_555
H18_2 C32_2 1_555 1_555
C33_2 S3_2 1_555 1_555
C34_2 C33_2 1_555 1_555
H19_2 C34_2 1_555 1_555
C35_2 C30_2 1_555 1_555
H20_2 C35_2 1_555 1_555
C36_2 S3_2 1_555 1_555
C37_2 C36_2 1_555 1_555
C38_2 C37_2 1_555 1_555
C39_2 C38_2 1_555 1_555
C40_2 C39_2 1_555 1_555
H23_2 C40_2 1_555 1_555
C41_2 C36_2 1_555 1_555
H24_2 C41_2 1_555 1_555
C42_2 C39_2 1_555 1_555
C43_2 O11_2 1_555 1_555
H25_2 C43_2 1_555 1_555
H26_2 C43_2 1_555 1_555
C44_2 C43_2 1_555 1_555
H27_2 C44_2 1_555 1_555
H28_2 C44_2 1_555 1_555
H29_2 C44_2 1_555 1_555
C45 C46 1_555 1_555
C46 O7 1_555 1_555
C47 N1 1_555 1_555
C48 N1 1_555 1_555
H39_2 O11_2 1_555 1_555
O22_2 Co5 1_555 1_555
O26_2 Co7 1_555 1_555
O10_2 C1_2 1_555 1_555
O13_2 C29_2 1_555 1_555
C4_2 C5_2 1_555 1_555
C6_2 C7_2 1_555 1_555
C12_2 C13_2 1_555 1_555
C18_2 C19_2 1_555 1_555
C32_2 C33_2 1_555 1_555
C34_2 C35_2 1_555 1_555
C40_2 C41_2 1_555 1_555
C47 H40 1_555 1_555
C47 H41 1_555 1_555
C47 H42 1_555 1_555
C48 H43 1_555 1_555
C48 H44 1_555 1_555
C48 H45 1_555 1_555
C45 H46 1_555 1_555
C45 H47 1_555 1_555
C45 H48 1_555 1_555
O4_2 C14_3 1_555 1_555
O8_2 C14_3 1_555 1_555
C9_3 C8_3 1_555 1_555
H5_3 C9_3 1_555 1_555
C10_3 C9_3 1_555 1_555
H6_3 C10_3 1_555 1_555
C11_3 C10_3 1_555 1_555
C12_3 C11_3 1_555 1_555
H7_3 C12_3 1_555 1_555
C13_3 C8_3 1_555 1_555
H8_3 C13_3 1_555 1_555
C14_3 C11_3 1_555 1_555
Co6 O4_2 1_555 1_555
Co8 O8_2 1_555 1_555
C12_3 C13_3 1_555 1_555
Co6_2 O2_3 1_555 1_555
Co8_2 O6_3 1_555 1_555
S2_3 O18_3 1_555 1_555
O22_2 C28_3 1_555 1_555
O2_3 C15_3 1_555 1_555
O6_3 Co6_2 1_555 1_555
O26_2 C28_3 1_555 1_555
O10_3 Co8_2 1_555 1_555
O11_3 Co8_2 1_555 1_555
O12_3 C15_3 1_555 1_555
C1_3 O6_3 1_555 1_555
C15_3 C16_3 1_555 1_555
C16_3 C17_3 1_555 1_555
C17_3 H9_3 1_555 1_555
C18_3 C17_3 1_555 1_555
H10_3 C18_3 1_555 1_555
C19_3 S2_3 1_555 1_555
C20_2 C19_3 1_555 1_555
H11_2 C20_2 1_555 1_555
C21_3 C16_3 1_555 1_555
H12_2 C21_3 1_555 1_555
C22_3 S2_3 1_555 1_555
C23_3 C22_3 1_555 1_555
H13_3 C23_3 1_555 1_555
C24_2 C23_3 1_555 1_555
H14_2 C24_2 1_555 1_555
C25_2 C24_2 1_555 1_555
C26_2 C25_2 1_555 1_555
H15_2 C26_2 1_555 1_555
C27_2 C22_3 1_555 1_555
H16_2 C27_2 1_555 1_555
C28_3 C25_2 1_555 1_555
C43_3 O11_3 1_555 1_555
H25_3 C43_3 1_555 1_555
C44_3 C43_3 1_555 1_555
H27_3 C44_3 1_555 1_555
H28_3 C44_3 1_555 1_555
H29_3 C44_3 1_555 1_555
H39_3 O11_3 1_555 1_555
O23_2 Co6_2 1_555 1_555
O24_2 Co6_2 1_555 1_555
O25_2 Co8_2 1_555 1_555
O10_3 C1_3 1_555 1_555
C18_3 C19_3 1_555 1_555
C20_2 C21_3 1_555 1_555
C26_2 C27_2 1_555 1_555
S1_3 O16_3 1_555 1_555
O5_2 C42_3 1_555 1_555
O15_2 C42_3 1_555 1_555
O17_3 S1_3 1_555 1_555
H1_3 C3_3 1_555 1_555
C4_3 C3_3 1_555 1_555
H2_3 C4_3 1_555 1_555
C5_3 S1_3 1_555 1_555
C6_3 C5_3 1_555 1_555
H3_3 C6_3 1_555 1_555
C37_3 C36_3 1_555 1_555
H21_3 C37_3 1_555 1_555
C38_3 C37_3 1_555 1_555
H22_3 C38_3 1_555 1_555
C39_3 C38_3 1_555 1_555
C40_3 C39_3 1_555 1_555
H23_3 C40_3 1_555 1_555
C41_3 C36_3 1_555 1_555
H24_3 C41_3 1_555 1_555
C42_3 C39_3 1_555 1_555
Co6 O5_2 1_555 1_555
Co9_2 O15_2 1_555 1_555
C4_3 C5_3 1_555 1_555
C6_3 C7_3 1_555 1_555
C40_3 C41_3 1_555 1_555
S3_3 O20_3 1_555 1_555
N2_2 C50_2 1_555 1_555
O13_3 Co3_2 1_555 1_555
O14_2 Co3_2 1_555 1_555
O21_3 S3_3 1_555 1_555
C29_3 O3_3 1_555 1_555
C30_3 C29_3 1_555 1_555
C31_3 C30_3 1_555 1_555
H17_3 C31_3 1_555 1_555
C32_3 C31_3 1_555 1_555
H18_3 C32_3 1_555 1_555
C33_3 S3_3 1_555 1_555
C34_3 C33_3 1_555 1_555
H19_3 C34_3 1_555 1_555
C35_3 C30_3 1_555 1_555
H20_3 C35_3 1_555 1_555
C49_2 H30_2 1_555 1_555
H31_2 C49_2 1_555 1_555
H32_3 C49_2 1_555 1_555
C50_2 O14_2 1_555 1_555
C51_2 N2_2 1_555 1_555
H33_2 C51_2 1_555 1_555
H34_2 C51_2 1_555 1_555
H35_2 C51_2 1_555 1_555
C52_2 N2_2 1_555 1_555
H36_2 C52_2 1_555 1_555
H37_2 C52_2 1_555 1_555
H38_2 C52_2 1_555 1_555
O27_2 Co3_2 1_555 1_555
O13_3 C29_3 1_555 1_555
C32_3 C33_3 1_555 1_555
C34_3 C35_3 1_555 1_555
C49_2 C50_2 1_555 1_555
Co6 O2_4 1_555 1_555
Co8 O6_4 1_555 1_555
Co9_2 O12_4 1_555 1_555
S1_4 O16_4 1_555 1_555
S2_4 O18_4 1_555 1_555
N1_2 C46_2 1_555 1_555
O2_4 C15_4 1_555 1_555
O3_4 Co6 1_555 1_555
O23_2 C14_4 1_555 1_555
O6_4 Co6 1_555 1_555
O7_2 Co8 1_555 1_555
O25_2 C14_4 1_555 1_555
O10_4 Co8 1_555 1_555
O11_4 Co8 1_555 1_555
O12_4 C15_4 1_555 1_555
O13_4 Co9_2 1_555 1_555
O27_2 C42_4 1_555 1_555
O17_4 S1_4 1_555 1_555
O21_4 S3_4 1_555 1_555
C1_4 O6_4 1_555 1_555
C2_4 C1_4 1_555 1_555
C3_4 C2_4 1_555 1_555
H1_4 C3_4 1_555 1_555
C4_4 C3_4 1_555 1_555
H2_4 C4_4 1_555 1_555
C5_4 S1_4 1_555 1_555
C6_4 C5_4 1_555 1_555
H3_4 C6_4 1_555 1_555
C7_4 C2_4 1_555 1_555
H4_4 C7_4 1_555 1_555
C8_4 S1_4 1_555 1_555
C9_4 C8_4 1_555 1_555
H5_4 C9_4 1_555 1_555
C10_4 C9_4 1_555 1_555
H6_4 C10_4 1_555 1_555
C11_4 C10_4 1_555 1_555
C12_4 C11_4 1_555 1_555
H7_4 C12_4 1_555 1_555
C13_4 C8_4 1_555 1_555
H8_4 C13_4 1_555 1_555
C14_4 C11_4 1_555 1_555
C15_4 C16_4 1_555 1_555
C16_4 C17_4 1_555 1_555
C17_4 H9_4 1_555 1_555
C18_4 C17_4 1_555 1_555
H10_4 C18_4 1_555 1_555
C19_4 S2_4 1_555 1_555
C21_4 C16_4 1_555 1_555
C22_4 S2_4 1_555 1_555
C23_4 C22_4 1_555 1_555
H13_4 C23_4 1_555 1_555
C29_4 O3_4 1_555 1_555
C30_4 C29_4 1_555 1_555
C31_4 C30_4 1_555 1_555
H17_4 C31_4 1_555 1_555
C32_4 C31_4 1_555 1_555
H18_4 C32_4 1_555 1_555
C33_4 S3_4 1_555 1_555
C34_4 C33_4 1_555 1_555
H19_4 C34_4 1_555 1_555
C35_4 C30_4 1_555 1_555
H20_4 C35_4 1_555 1_555
C36_4 S3_4 1_555 1_555
C37_4 C36_4 1_555 1_555
C38_4 C37_4 1_555 1_555
C39_4 C38_4 1_555 1_555
C40_4 C39_4 1_555 1_555
H23_4 C40_4 1_555 1_555
C41_4 C36_4 1_555 1_555
H24_4 C41_4 1_555 1_555
C42_4 C39_4 1_555 1_555
C43_4 O11_4 1_555 1_555
H25_4 C43_4 1_555 1_555
H26_4 C43_4 1_555 1_555
C44_4 C43_4 1_555 1_555
H27_4 C44_4 1_555 1_555
H28_4 C44_4 1_555 1_555
H29_4 C44_4 1_555 1_555
C45_2 C46_2 1_555 1_555
C46_2 O7_2 1_555 1_555
C47_2 N1_2 1_555 1_555
C48_2 N1_2 1_555 1_555
H39_4 O11_4 1_555 1_555
O10_4 C1_4 1_555 1_555
O13_4 C29_4 1_555 1_555
C4_4 C5_4 1_555 1_555
C6_4 C7_4 1_555 1_555
C12_4 C13_4 1_555 1_555
C18_4 C19_4 1_555 1_555
C32_4 C33_4 1_555 1_555
C34_4 C35_4 1_555 1_555
C40_4 C41_4 1_555 1_555
C47_2 H40_2 1_555 1_555
C47_2 H41_2 1_555 1_555
C47_2 H42_2 1_555 1_555
C48_2 H43_2 1_555 1_555
C48_2 H44_2 1_555 1_555
C48_2 H45_2 1_555 1_555
C45_2 H46_2 1_555 1_555
C45_2 H47_2 1_555 1_555
C45_2 H48_2 1_555 1_555
O22 C28_4 1_555 1_555
O26 C28_4 1_555 1_555
N1_3 C46_3 1_555 1_555
C45_3 C46_3 1_555 1_555
C46_3 O7_3 1_555 1_555
C47_3 N1_3 1_555 1_555
C48_3 N1_3 1_555 1_555
C47_3 H40_3 1_555 1_555
C47_3 H41_3 1_555 1_555
C47_3 H42_3 1_555 1_555
C48_3 H43_3 1_555 1_555
C48_3 H44_3 1_555 1_555
C48_3 H45_3 1_555 1_555
C45_3 H46_3 1_555 1_555
C45_3 H47_3 1_555 1_555
C45_3 H48_3 1_555 1_555
H14_3 C24_3 1_555 1_555
N2_3 C50_3 1_555 1_555
H11_3 C20_3 1_555 1_555
C26_3 C25_3 1_555 1_555
H15_3 C26_3 1_555 1_555
H16_3 C27_3 1_555 1_555
C49_3 H30_3 1_555 1_555
H31_3 C49_3 1_555 1_555
C50_3 O14_3 1_555 1_555
C51_3 N2_3 1_555 1_555
H33_3 C51_3 1_555 1_555
H34_3 C51_3 1_555 1_555
H35_3 C51_3 1_555 1_555
C52_3 N2_3 1_555 1_555
H36_3 C52_3 1_555 1_555
H37_3 C52_3 1_555 1_555
H38_3 C52_3 1_555 1_555
C26_3 C27_3 1_555 1_555
C49_3 C50_3 1_555 1_555
N1_4 C46_4 1_555 1_555
C45_4 C46_4 1_555 1_555
C46_4 O7_4 1_555 1_555
C47_4 N1_4 1_555 1_555
C48_4 N1_4 1_555 1_555
C47_4 H40_4 1_555 1_555
C47_4 H41_4 1_555 1_555
C47_4 H42_4 1_555 1_555
C48_4 H43_4 1_555 1_555
C48_4 H44_4 1_555 1_555
C48_4 H45_4 1_555 1_555
C45_4 H46_4 1_555 1_555
C45_4 H47_4 1_555 1_555
C45_4 H48_4 1_555 1_555
N2_4 C50_4 1_555 1_555
H11_4 C20_4 1_555 1_555
C26_4 C25_4 1_555 1_555
H15_4 C26_4 1_555 1_555
H16_4 C27_4 1_555 1_555
C49_4 H30_4 1_555 1_555
H31_4 C49_4 1_555 1_555
C50_4 O14_4 1_555 1_555
C51_4 N2_4 1_555 1_555
H33_4 C51_4 1_555 1_555
H34_4 C51_4 1_555 1_555
H35_4 C51_4 1_555 1_555
C52_4 N2_4 1_555 1_555
H36_4 C52_4 1_555 1_555
H37_4 C52_4 1_555 1_555
H38_4 C52_4 1_555 1_555
C26_4 C27_4 1_555 1_555
C49_4 C50_4 1_555 1_555
H14_4 C24_4 1_555 1_555

#END
