
###############################################################################
#
# This file contains modified crystal structure data generated from the
# MOF subset of the Cambridge Structural Database (CSD) v543 
# hosted by the Cambridge Crystallographic Data Centre (CCDC).
#
# This work is licensed under the Creative Commons
# Attribution-NonCommercial-ShareAlike 4.0 International License.
# To view a copy of this license, visit
# http://creativecommons.org/licenses/by-nc-sa/4.0/
# or send a letter to
# Creative Commons, PO Box 1866, Mountain View, CA 94042, USA.
#
# CIF created using the CSD Python API on 29 September 2022
# The structure has been converted into the P1 space group
# The structure has a 3D framework
# The original CSD entry COWREN is in the monoclinic crystal system
# The framework has been calculated to contain at least 10.0% void space
# The void calculation uses a probe of radius 1.32A, grid spacing 0.4
#
###############################################################################

data_COWREN
_chemical_formula_moiety         '(C208 H180 Co12 N12 O78 S12)n'
_symmetry_cell_setting           triclinic
_symmetry_space_group_name_H-M   'P 1'
_symmetry_Int_Tables_number      1
_space_group_name_Hall           'P 1'
loop_
_symmetry_equiv_pos_site_id
_symmetry_equiv_pos_as_xyz
1 x,y,z
_cell_length_a                   16.7033(9)
_cell_length_b                   20.0195(11)
_cell_length_c                   17.4602(12)
_cell_angle_alpha                90
_cell_angle_beta                 100.423(6)
_cell_angle_gamma                90
_cell_volume                     5742.2
loop_
_atom_site_label
_atom_site_type_symbol
_atom_site_fract_x
_atom_site_fract_y
_atom_site_fract_z
Co1 Co 0.03884(5) 0.16495(4) 0.25465(4)
Co2 Co 0.14356(5) 0.12542(4) 0.44473(5)
S1 S 0.55103(9) 0.27362(7) 0.26788(9)
S2 S 0.39628(8) 0.01533(7) 0.04112(8)
N1 N 0.2334(4) 0.0492(3) 0.4343(4)
N2 N 0.2425(3) 0.1543(3) 0.6850(3)
O3 O 0.1614(2) 0.1914(2) 0.2625(2)
O4 O 0.0548(2) 0.0993(2) 0.1642(2)
O6 O 0.4279(3) 0.58590(19) 0.1657(2)
O7 O 0.2136(3) 0.1834(2) 0.3913(3)
O9 O 0.1987(3) 0.1462(3) 0.5557(3)
O10 O 0.4282(3) 0.5398(2) 0.0513(3)
O11 O 0.0139(3) 0.1065(2) 0.0350(3)
O15 O 0.6030(3) 0.2787(2) 0.3434(3)
O16 O 0.5736(3) 0.2308(2) 0.2087(3)
O17 O 0.4451(2) 0.0003(2) 0.1162(2)
C1 C 0.2176(4) 0.1953(3) 0.3203(3)
C2 C 0.3011(3) 0.2155(3) 0.3062(3)
C3 C 0.3617(4) 0.2273(3) 0.3709(3)
H1 H 0.3507 0.2228 0.4210
C4 C 0.4383(4) 0.2457(3) 0.3594(3)
H2 H 0.4792 0.2551 0.4017
C5 C 0.4534(3) 0.2499(3) 0.2836(3)
C6 C 0.3938(4) 0.2379(3) 0.2187(3)
H3 H 0.4056 0.2410 0.1687
C7 C 0.3165(4) 0.2212(3) 0.2300(3)
H4 H 0.2751 0.2137 0.1875
C8 C 0.5342(4) 0.3549(3) 0.2274(4)
C9 C 0.5225(4) 0.4076(3) 0.2761(4)
H5 H 0.5310 0.4019 0.3298
C10 C 0.4979(4) 0.4693(3) 0.2429(4)
H6 H 0.4892 0.5050 0.2744
C11 C 0.4864(4) 0.4772(3) 0.1625(4)
C12 C 0.5041(6) 0.4248(3) 0.1152(4)
H7 H 0.4997 0.4312 0.0619
C13 C 0.5283(5) 0.3634(3) 0.1483(4)
H8 H 0.5404 0.3283 0.1174
C14 C 0.4470(4) 0.5386(3) 0.1240(4)
C15 C 0.0663(4) 0.0940(3) 0.0950(4)
C16 C 0.1474(3) 0.0724(3) 0.0822(3)
C17 C 0.2127(4) 0.0743(3) 0.1438(3)
H9 H 0.2048 0.0871 0.1931
C18 C 0.2892(3) 0.0571(3) 0.1317(3)
H10 H 0.3338 0.0599 0.1720
C19 C 0.2987(3) 0.0354(3) 0.0577(3)
C21 C 0.1588(4) 0.0501(3) 0.0081(3)
C22 C 0.4312(3) 0.0900(3) 0.0057(3)
C23 C 0.4743(3) 0.1353(3) 0.0562(3)
H13 H 0.4833 0.1278 0.1097
C24 C 0.5045(3) 0.1927(3) 0.0258(3)
H14 H 0.5340 0.2237 0.0592
C43 C 0.2775(10) 0.0374(7) 0.4026(14)
C44 C 0.3439(7) 0.0278(9) 0.3433(9)
H25 H 0.3153 0.0182 0.2917
H27 H 0.3747 0.0682 0.3425
C45 C 0.2000(6) 0.0473(4) 0.6247(6)
H28 H 0.2150 0.0349 0.6785
H29 H 0.2328 0.0230 0.5944
H30 H 0.1436 0.0370 0.6067
C46 C 0.2135(5) 0.1223(4) 0.6161(6)
C47 C 0.2600(9) 0.2247(7) 0.6844(12)
H31 H 0.2797 0.2397 0.7367
H32 H 0.2113 0.2487 0.6631
H33 H 0.3007 0.2327 0.6531
C48 C 0.2586(6) 0.1194(6) 0.7582(6)
H34 H 0.2784 0.1504 0.7992
H35 H 0.2987 0.0854 0.7564
H36 H 0.2093 0.0991 0.7679
Co5 Co 0.46116(5) 0.66495(4) 0.24535(4)
Co7 Co 0.35644(5) 0.62542(4) 0.05527(5)
O21 O 0.0215(3) 0.2341(2) 0.3380(2)
O22 O 0.0056(3) 0.2397(2) 0.1698(3)
O23 O 0.0721(3) 0.08590(19) 0.3343(2)
O24 O 0.0575(3) 0.1927(2) 0.4604(2)
O25 O 0.0718(3) 0.0398(2) 0.4487(3)
Co3 Co 0.91311(5) 0.14345(4) 0.05737(4)
S3 S 0.55563(10) 0.06881(7) 0.34144(10)
O2 O 0.9176(2) 0.1373(2) 0.2510(2)
O12 O 0.8512(2) 0.1054(2) 0.1322(2)
O19 O 0.4863(3) 0.0860(2) 0.2839(3)
O20 O 0.5663(3) 0.0990(2) 0.4180(3)
C29 C 0.8571(3) 0.1165(3) 0.2051(3)
C30 C 0.7817(3) 0.1040(3) 0.2394(3)
C31 C 0.7118(4) 0.0814(3) 0.1919(3)
H17 H 0.7116 0.0731 0.1394
C32 C 0.6421(4) 0.0711(3) 0.2224(3)
H18 H 0.5949 0.0557 0.1907
C33 C 0.6430(4) 0.0839(3) 0.3006(4)
C34 C 0.7114(4) 0.1081(4) 0.3484(4)
H19 H 0.7110 0.1173 0.4006
C35 C 0.7806(4) 0.1184(4) 0.3174(4)
H20 H 0.8272 0.1352 0.3489
H39 H 0.7163 0.1333 0.0137
O26 O 0.9106(3) 0.2418(2) 0.0625(2)
O5 O 0.4944(3) 0.7397(2) 0.3302(3)
O13 O 0.5894(3) 0.7418(2) 0.4375(2)
C36 C 0.5555(4) 0.9810(3) 0.3538(4)
C37 C 0.5159(4) 0.9423(3) 0.2924(4)
H21 H 0.4915 0.9619 0.2458
C38 C 0.5138(4) 0.8733(3) 0.3023(3)
H22 H 0.4873 0.8467 0.2619
C39 C 0.5509(3) 0.8436(3) 0.3721(3)
C40 C 0.5918(4) 0.8838(3) 0.4323(4)
H23 H 0.6178 0.8642 0.4785
C41 C 0.5938(4) 0.9521(3) 0.4235(4)
H24 H 0.6205 0.9787 0.4638
C42 C 0.5440(3) 0.7689(3) 0.3798(3)
Co9 Co 0.58689(5) 0.64345(4) 0.44263(4)
O19_2 O 0.0137(3) 0.5860(2) 0.2161(3)
H21_2 H 0.0085 0.4619 0.2542
H22_2 H 0.0127 0.3467 0.2381
H6_2 H 0.0108 0.0050 0.2256
C14_2 C 0.0530(4) 0.0386(3) 0.3760(4)
S2_2 S 0.10372(8) 0.51533(7) 0.45888(8)
S3_2 S 0.94437(10) 0.56881(7) 0.15856(10)
N1_2 N 0.2666(4) 0.5492(3) 0.0657(4)
N3 N 0.7499(4) 0.6220(3) 0.6506(3)
O2_2 O 0.5824(2) 0.6373(2) 0.2490(2)
O3_2 O 0.3386(2) 0.6914(2) 0.2375(2)
O4_2 O 0.4452(2) 0.5993(2) 0.3358(2)
O7_2 O 0.2864(3) 0.6834(2) 0.1087(3)
O11_2 O 0.4861(3) 0.6065(2) 0.4650(3)
O12_2 O 0.6488(2) 0.6054(2) 0.3678(2)
O14 O 0.6517(3) 0.6233(2) 0.5460(3)
O17_2 O 0.0549(2) 0.5003(2) 0.3838(2)
O18 O 0.1124(2) 0.46660(19) 0.5210(2)
O20_2 O 0.9337(3) 0.5990(2) 0.0820(3)
C1_2 C 0.2824(4) 0.6953(3) 0.1797(3)
C2_2 C 0.1989(3) 0.7155(3) 0.1938(3)
C3_2 C 0.1383(4) 0.7273(3) 0.1291(3)
H1_2 H 0.1493 0.7228 0.0790
C4_2 C 0.0617(4) 0.7457(3) 0.1406(3)
H2_2 H 0.0208 0.7551 0.0983
C5_2 C 0.0466(3) 0.7499(3) 0.2164(3)
C6_2 C 0.1062(4) 0.7379(3) 0.2813(3)
H3_2 H 0.0944 0.7410 0.3313
C7_2 C 0.1835(4) 0.7212(3) 0.2700(3)
H4_2 H 0.2249 0.7137 0.3125
C10_2 C 0.0021(4) 0.9693(3) 0.2571(4)
C11_2 C 0.0136(4) 0.9772(3) 0.3375(4)
H7_2 H 0.0003 0.9312 0.4381
C15_2 C 0.4337(4) 0.5940(3) 0.4050(4)
C16_2 C 0.3526(3) 0.5724(3) 0.4178(3)
C17_2 C 0.2873(4) 0.5743(3) 0.3562(3)
H9_2 H 0.2952 0.5871 0.3069
C18_2 C 0.2108(3) 0.5571(3) 0.3683(3)
H10_2 H 0.1662 0.5599 0.3280
C19_2 C 0.2013(3) 0.5354(3) 0.4423(3)
C20 C 0.2665(4) 0.5310(3) 0.5039(3)
H11 H 0.2591 0.5154 0.5523
C21_2 C 0.3412(4) 0.5501(3) 0.4919(3)
H12 H 0.3853 0.5485 0.5328
C22_2 C 0.0688(3) 0.5900(3) 0.4943(3)
C23_2 C 0.0257(3) 0.6353(3) 0.4438(3)
H13_2 H 0.0167 0.6278 0.3903
C25 C 0.0097(3) 0.7039(3) 0.5551(3)
C26 C 0.0545(3) 0.6574(3) 0.6050(3)
H15 H 0.0645 0.6650 0.6584
C27 C 0.0838(3) 0.6007(3) 0.5758(3)
H16 H 0.1132 0.5695 0.6092
C29_2 C 0.6429(3) 0.6165(3) 0.2949(3)
C30_2 C 0.7183(3) 0.6040(3) 0.2606(3)
C31_2 C 0.7882(4) 0.5814(3) 0.3081(3)
H17_2 H 0.7884 0.5731 0.3606
C32_2 C 0.8579(4) 0.5711(3) 0.2776(3)
H18_2 H 0.9051 0.5557 0.3093
C33_2 C 0.8570(4) 0.5839(3) 0.1994(4)
C34_2 C 0.7886(4) 0.6081(4) 0.1516(4)
H19_2 H 0.7890 0.6173 0.0994
C35_2 C 0.7194(4) 0.6184(4) 0.1826(4)
H20_2 H 0.6728 0.6352 0.1511
C36_2 C 0.9445(4) 0.4810(3) 0.1462(4)
C37_2 C 0.9841(4) 0.4423(3) 0.2076(4)
C38_2 C 0.9862(4) 0.3733(3) 0.1977(3)
C39_2 C 0.9491(3) 0.3436(3) 0.1279(3)
C40_2 C 0.9082(4) 0.3838(3) 0.0677(4)
H23_2 H 0.8822 0.3642 0.0215
C41_2 C 0.9062(4) 0.4521(3) 0.0765(4)
H24_2 H 0.8795 0.4787 0.0362
C42_2 C 0.9560(3) 0.2689(3) 0.1202(3)
C43_2 C 0.2225(10) 0.5374(7) 0.0974(14)
C44_2 C 0.1561(7) 0.5278(9) 0.1567(9)
H25_2 H 0.1847 0.5182 0.2083
H26 H 0.1200 0.4916 0.1386
H27_2 H 0.1253 0.5682 0.1575
C49 C 0.7794(4) 0.6633(4) 0.5283(5)
H37 H 0.8321 0.6692 0.5602
H38 H 0.7592 0.7057 0.5075
H39_2 H 0.7837 0.6333 0.4863
C50 C 0.7215(4) 0.6343(3) 0.5769(5)
C51 C 0.6926(5) 0.5967(4) 0.6989(5)
H40 H 0.7210 0.5899 0.7513
H41 H 0.6698 0.5552 0.6780
H42 H 0.6498 0.6287 0.6990
C52 C 0.8292(5) 0.6340(5) 0.6932(6)
H43 H 0.8320 0.6199 0.7462
H44 H 0.8412 0.6809 0.6921
H45 H 0.8682 0.6094 0.6702
O21_2 O 0.4785(3) 0.7341(2) 0.1620(2)
O24_2 O 0.4425(3) 0.6927(2) 0.0396(2)
C20_2 C 0.7665(4) 0.9690(3) 0.0039(3)
H11_2 H 0.7591 0.9846 0.0523
H12_2 H 0.8853 0.9515 0.0328
C25_2 C 0.5097(3) 0.7961(3) 0.0551(3)
C26_2 C 0.5545(3) 0.8426(3) 0.1050(3)
H15_2 H 0.5645 0.8350 0.1584
C27_2 C 0.5838(3) 0.8993(3) 0.0758(3)
H16_2 H 0.6132 0.9305 0.1092
C28 C 0.4745(3) 0.7360(3) 0.0887(3)
S1_2 S 0.05103(9) 0.22638(7) 0.76788(9)
O15_2 O 0.1030(3) 0.2213(2) 0.8434(3)
O16_2 O 0.0736(3) 0.2692(2) 0.7087(3)
C8_2 C 0.0342(4) 0.1451(3) 0.7274(4)
C9_2 C 0.0225(4) 0.0924(3) 0.7761(4)
H5_2 H 0.0310 0.0981 0.8298
C12_2 C 0.0041(6) 0.0752(3) 0.6152(4)
C13_2 C 0.0283(5) 0.1366(3) 0.6483(4)
H8_2 H 0.0404 0.1717 0.6174
C24_2 C 0.0045(3) 0.3073(3) 0.5258(3)
H14_2 H 0.0340 0.2763 0.5592
C28_2 C 0.0255(3) 0.2360(3) 0.4113(3)
O1 O 0.5215(3) 0.2659(2) 0.8380(2)
O8 O 0.5575(3) 0.3073(2) 0.9604(2)
C20_3 C 0.2335(4) 0.0310(3) 0.9961(3)
H11_3 H 0.2409 0.0154 0.9477
H12_3 H 0.1147 0.0485 0.9672
C25_3 C 0.4903(3) 0.2039(3) 0.9449(3)
C26_3 C 0.4455(3) 0.1574(3) 0.8950(3)
H15_3 H 0.4355 0.1650 0.8416
C27_3 C 0.4162(3) 0.1007(3) 0.9242(3)
H16_3 H 0.3868 0.0695 0.8908
C28_3 C 0.5255(3) 0.2640(3) 0.9113(3)
Co6 Co 0.53884(5) 0.33505(4) 0.75465(4)
Co8 Co 0.64356(5) 0.37458(4) 0.94473(5)
S1_3 S 0.94897(9) 0.77362(7) 0.23212(9)
O1_2 O 0.9785(3) 0.7659(2) 0.6620(2)
O8_2 O 0.9425(3) 0.8073(2) 0.5396(2)
O15_3 O 0.8970(3) 0.7787(2) 0.1566(3)
O16_3 O 0.9264(3) 0.7308(2) 0.2913(3)
C8_3 C 0.9658(4) 0.8549(3) 0.2726(4)
C9_3 C 0.9775(4) 0.9076(3) 0.2239(4)
H5_3 H 0.9690 0.9019 0.1702
C12_3 C 0.9959(6) 0.9248(3) 0.3848(4)
C13_3 C 0.9717(5) 0.8634(3) 0.3517(4)
H8_3 H 0.9596 0.8283 0.3826
C24_3 C 0.9955(3) 0.6927(3) 0.4742(3)
H14_3 H 0.9660 0.7237 0.4408
C28_4 C 0.9745(3) 0.7640(3) 0.5887(3)
Co6_2 Co 0.96116(5) 0.83505(4) 0.74535(4)
Co8_2 Co 0.85644(5) 0.87458(4) 0.55527(5)
O5_2 O 0.5056(3) 0.2603(2) 0.6698(3)
O13_2 O 0.4106(3) 0.2582(2) 0.5625(2)
C36_3 C 0.4445(4) 0.0190(3) 0.6462(4)
C37_3 C 0.4841(4) 0.0577(3) 0.7076(4)
H21_3 H 0.5085 0.0381 0.7542
C38_3 C 0.4862(4) 0.1267(3) 0.6977(3)
H22_3 H 0.5127 0.1533 0.7381
C39_3 C 0.4491(3) 0.1564(3) 0.6279(3)
C40_3 C 0.4082(4) 0.1162(3) 0.5677(4)
H23_3 H 0.3822 0.1358 0.5215
C41_3 C 0.4062(4) 0.0479(3) 0.5765(4)
H24_3 H 0.3795 0.0213 0.5362
C42_3 C 0.4560(3) 0.2311(3) 0.6202(3)
Co9_2 Co 0.41311(5) 0.35655(4) 0.55737(4)
Co3_2 Co 0.08689(5) 0.85655(4) 0.94263(4)
S3_3 S 0.44437(10) 0.93119(7) 0.65856(10)
O2_3 O 0.0824(2) 0.8627(2) 0.7490(2)
O12_3 O 0.1488(2) 0.8946(2) 0.8678(2)
O19_3 O 0.5137(3) 0.9140(2) 0.7161(3)
O20_3 O 0.4337(3) 0.9010(2) 0.5820(3)
C29_3 C 0.1429(3) 0.8835(3) 0.7949(3)
C30_3 C 0.2183(3) 0.8960(3) 0.7606(3)
C31_3 C 0.2882(4) 0.9186(3) 0.8081(3)
H17_3 H 0.2884 0.9269 0.8606
C32_3 C 0.3579(4) 0.9289(3) 0.7776(3)
H18_3 H 0.4051 0.9443 0.8093
C33_3 C 0.3570(4) 0.9161(3) 0.6994(4)
C34_3 C 0.2886(4) 0.8919(4) 0.6516(4)
H19_3 H 0.2890 0.8827 0.5994
C35_3 C 0.2194(4) 0.8816(4) 0.6826(4)
H20_3 H 0.1728 0.8648 0.6511
H39_3 H 0.2837 0.8667 0.9863
O26_2 O 0.0894(3) 0.7582(2) 0.9375(2)
S1_4 S 0.44897(9) 0.72638(7) 0.73212(9)
S2_3 S 0.60372(8) 0.98467(7) 0.95888(8)
N1_3 N 0.7666(4) 0.9508(3) 0.5657(4)
N2_2 N 0.7575(3) 0.8457(3) 0.3150(3)
O3_3 O 0.8386(2) 0.8086(2) 0.7375(2)
O4_3 O 0.9452(2) 0.9007(2) 0.8358(2)
O6_2 O 0.5721(3) 0.41410(19) 0.8343(2)
O7_3 O 0.7864(3) 0.8166(2) 0.6087(3)
O9_2 O 0.8013(3) 0.8538(3) 0.4443(3)
O10_2 O 0.5718(3) 0.4602(2) 0.9487(3)
O11_3 O 0.9861(3) 0.8935(2) 0.9650(3)
O15_4 O 0.3970(3) 0.7213(2) 0.6566(3)
O16_4 O 0.4264(3) 0.7692(2) 0.7913(3)
O17_3 O 0.5549(2) 0.9997(2) 0.8838(2)
C1_3 C 0.7824(4) 0.8047(3) 0.6797(3)
C2_3 C 0.6989(3) 0.7845(3) 0.6938(3)
C3_3 C 0.6383(4) 0.7727(3) 0.6291(3)
H1_3 H 0.6493 0.7772 0.5790
C4_3 C 0.5617(4) 0.7543(3) 0.6406(3)
H2_3 H 0.5208 0.7449 0.5983
C5_3 C 0.5466(3) 0.7501(3) 0.7164(3)
C6_3 C 0.6062(4) 0.7621(3) 0.7813(3)
H3_3 H 0.5944 0.7590 0.8313
C7_3 C 0.6835(4) 0.7788(3) 0.7700(3)
H4_3 H 0.7249 0.7863 0.8125
C8_4 C 0.4658(4) 0.6451(3) 0.7726(4)
C9_4 C 0.4775(4) 0.5924(3) 0.7239(4)
H5_4 H 0.4690 0.5981 0.6702
C10_3 C 0.5021(4) 0.5307(3) 0.7571(4)
H6_3 H 0.5108 0.4950 0.7256
C11_3 C 0.5136(4) 0.5228(3) 0.8375(4)
C12_4 C 0.4959(6) 0.5752(3) 0.8848(4)
H7_3 H 0.5003 0.5688 0.9381
C13_4 C 0.4717(5) 0.6366(3) 0.8517(4)
H8_4 H 0.4596 0.6717 0.8826
C14_3 C 0.5530(4) 0.4614(3) 0.8760(4)
C15_3 C 0.9337(4) 0.9060(3) 0.9050(4)
C16_3 C 0.8526(3) 0.9276(3) 0.9178(3)
C17_3 C 0.7873(4) 0.9257(3) 0.8562(3)
H9_3 H 0.7952 0.9129 0.8069
C18_3 C 0.7108(3) 0.9429(3) 0.8683(3)
H10_3 H 0.6662 0.9401 0.8280
C19_3 C 0.7013(3) 0.9646(3) 0.9423(3)
C21_3 C 0.8412(4) 0.9499(3) 0.9919(3)
C22_3 C 0.5688(3) 0.9100(3) 0.9943(3)
C23_3 C 0.5257(3) 0.8647(3) 0.9438(3)
H13_3 H 0.5167 0.8722 0.8903
C24_4 C 0.4955(3) 0.8073(3) 0.9742(3)
H14_4 H 0.4660 0.7763 0.9408
C43_3 C 0.7225(10) 0.9626(7) 0.5974(14)
C44_3 C 0.6561(7) 0.9722(9) 0.6567(9)
H25_3 H 0.6847 0.9818 0.7083
H27_3 H 0.6253 0.9318 0.6575
C45_2 C 0.8000(6) 0.9527(4) 0.3753(6)
H28_2 H 0.7850 0.9651 0.3215
H29_2 H 0.7672 0.9770 0.4056
H30_2 H 0.8564 0.9630 0.3933
C46_2 C 0.7865(5) 0.8777(4) 0.3839(6)
C47_2 C 0.7400(9) 0.7753(7) 0.3156(12)
H31_2 H 0.7203 0.7603 0.2633
H32_2 H 0.7887 0.7513 0.3369
H33_2 H 0.6993 0.7673 0.3469
C48_2 C 0.7414(6) 0.8806(6) 0.2418(6)
H34_2 H 0.7216 0.8496 0.2008
H35_2 H 0.7013 0.9146 0.2436
H36_2 H 0.7907 0.9009 0.2321
O22_2 O 0.9944(3) 0.7603(2) 0.8302(3)
O23_2 O 0.9279(3) 0.91410(19) 0.6657(2)
O25_2 O 0.9282(3) 0.9602(2) 0.5513(3)
S2_4 S 0.89628(8) 0.48467(7) 0.54112(8)
S3_4 S 0.05563(10) 0.43119(7) 0.84144(10)
N1_4 N 0.7334(4) 0.4508(3) 0.9343(4)
N3_2 N 0.2501(4) 0.3780(3) 0.3494(3)
O2_4 O 0.4176(2) 0.3627(2) 0.7510(2)
O3_4 O 0.6614(2) 0.3086(2) 0.7625(2)
O4_4 O 0.5548(2) 0.4007(2) 0.6642(2)
O7_4 O 0.7136(3) 0.3166(2) 0.8913(3)
O11_4 O 0.5139(3) 0.3935(2) 0.5350(3)
O12_4 O 0.3512(2) 0.3946(2) 0.6322(2)
O14_2 O 0.3483(3) 0.3767(2) 0.4540(3)
O17_4 O 0.9451(2) 0.4997(2) 0.6162(2)
O18_2 O 0.8876(2) 0.53340(19) 0.4790(2)
O20_4 O 0.0663(3) 0.4010(2) 0.9180(3)
C1_4 C 0.7176(4) 0.3047(3) 0.8203(3)
C2_4 C 0.8011(3) 0.2845(3) 0.8062(3)
C3_4 C 0.8617(4) 0.2727(3) 0.8709(3)
H1_4 H 0.8507 0.2772 0.9210
C4_4 C 0.9383(4) 0.2543(3) 0.8594(3)
H2_4 H 0.9792 0.2449 0.9017
C5_4 C 0.9534(3) 0.2501(3) 0.7836(3)
C6_4 C 0.8938(4) 0.2621(3) 0.7187(3)
H3_4 H 0.9056 0.2590 0.6687
C7_4 C 0.8165(4) 0.2788(3) 0.7300(3)
H4_4 H 0.7751 0.2863 0.6875
C10_4 C 0.9979(4) 0.0307(3) 0.7429(4)
C11_4 C 0.9864(4) 0.0228(3) 0.6625(4)
H7_4 H 0.9997 0.0688 0.5619
C15_4 C 0.5663(4) 0.4060(3) 0.5950(4)
C16_4 C 0.6474(3) 0.4276(3) 0.5822(3)
C17_4 C 0.7127(4) 0.4257(3) 0.6438(3)
H9_4 H 0.7048 0.4129 0.6931
C18_4 C 0.7892(3) 0.4429(3) 0.6317(3)
H10_4 H 0.8338 0.4401 0.6720
C19_4 C 0.7987(3) 0.4646(3) 0.5577(3)
C20_4 C 0.7335(4) 0.4690(3) 0.4961(3)
H11_4 H 0.7409 0.4846 0.4477
C21_4 C 0.6588(4) 0.4499(3) 0.5081(3)
H12_4 H 0.6147 0.4515 0.4672
C22_4 C 0.9312(3) 0.4100(3) 0.5057(3)
C23_4 C 0.9743(3) 0.3647(3) 0.5562(3)
H13_4 H 0.9833 0.3722 0.6097
C25_4 C 0.9903(3) 0.2961(3) 0.4449(3)
C26_4 C 0.9455(3) 0.3426(3) 0.3950(3)
H15_4 H 0.9355 0.3350 0.3416
C27_4 C 0.9162(3) 0.3993(3) 0.4242(3)
H16_4 H 0.8868 0.4305 0.3908
C29_4 C 0.3571(3) 0.3835(3) 0.7051(3)
C30_4 C 0.2817(3) 0.3960(3) 0.7394(3)
C31_4 C 0.2118(4) 0.4186(3) 0.6919(3)
H17_4 H 0.2116 0.4269 0.6394
C32_4 C 0.1421(4) 0.4289(3) 0.7224(3)
H18_4 H 0.0949 0.4443 0.6907
C33_4 C 0.1430(4) 0.4161(3) 0.8006(4)
C34_4 C 0.2114(4) 0.3919(4) 0.8484(4)
H19_4 H 0.2110 0.3827 0.9006
C35_4 C 0.2806(4) 0.3816(4) 0.8174(4)
H20_4 H 0.3272 0.3648 0.8489
C36_4 C 0.0555(4) 0.5190(3) 0.8538(4)
C37_4 C 0.0159(4) 0.5577(3) 0.7924(4)
C38_4 C 0.0138(4) 0.6267(3) 0.8023(3)
C39_4 C 0.0509(3) 0.6564(3) 0.8721(3)
C40_4 C 0.0918(4) 0.6162(3) 0.9323(4)
H23_4 H 0.1178 0.6358 0.9785
C41_4 C 0.0938(4) 0.5479(3) 0.9235(4)
H24_4 H 0.1205 0.5213 0.9638
C42_4 C 0.0440(3) 0.7311(3) 0.8798(3)
C43_4 C 0.7775(10) 0.4626(7) 0.9026(14)
C44_4 C 0.8439(7) 0.4722(9) 0.8433(9)
H25_4 H 0.8153 0.4818 0.7917
H26_2 H 0.8800 0.5084 0.8614
H27_4 H 0.8747 0.4318 0.8425
C49_2 C 0.2206(4) 0.3367(4) 0.4717(5)
H37_2 H 0.1679 0.3308 0.4398
H38_2 H 0.2408 0.2943 0.4925
H39_4 H 0.2163 0.3667 0.5137
C50_2 C 0.2785(4) 0.3657(3) 0.4231(5)
C51_2 C 0.3074(5) 0.4033(4) 0.3011(5)
H40_2 H 0.2790 0.4101 0.2487
H41_2 H 0.3302 0.4448 0.3220
H42_2 H 0.3502 0.3713 0.3010
C52_2 C 0.1708(5) 0.3660(5) 0.3068(6)
H43_2 H 0.1680 0.3801 0.2538
H44_2 H 0.1588 0.3191 0.3079
H45_2 H 0.1318 0.3906 0.3298
H6_4 H 0.9892 0.9950 0.7744
C14_4 C 0.9470(4) 0.9614(3) 0.6240(4)
O19_4 O 0.9863(3) 0.4140(2) 0.7839(3)
H21_4 H 0.9915 0.5381 0.7458
H22_4 H 0.9873 0.6533 0.7619
H26_3 H 0.3800 0.9916 0.3614
O18_3 O 0.3876(2) 0.96660(19) 0.9790(2)
N3_3 N 0.7501(4) 0.1220(3) 0.8494(3)
O14_3 O 0.8483(3) 0.1233(2) 0.9540(3)
C49_3 C 0.7206(4) 0.1633(4) 0.9717(5)
H37_3 H 0.6679 0.1692 0.9398
H38_3 H 0.7408 0.2057 0.9925
C50_3 C 0.7785(4) 0.1343(3) 0.9231(5)
C51_3 C 0.8074(5) 0.0967(4) 0.8011(5)
H40_3 H 0.7790 0.0899 0.7487
H41_3 H 0.8302 0.0552 0.8220
H42_3 H 0.8502 0.1287 0.8010
C52_3 C 0.6708(5) 0.1340(5) 0.8068(6)
H43_3 H 0.6680 0.1199 0.7538
H44_3 H 0.6588 0.1809 0.8079
H45_3 H 0.6318 0.1094 0.8298
N2_3 N 0.2575(3) 0.6543(3) 0.8150(3)
O9_3 O 0.3013(3) 0.6462(3) 0.9443(3)
C45_3 C 0.3000(6) 0.5473(4) 0.8753(6)
H28_3 H 0.2850 0.5349 0.8215
H29_3 H 0.2672 0.5230 0.9056
H30_3 H 0.3564 0.5370 0.8933
C46_3 C 0.2865(5) 0.6223(4) 0.8839(6)
C47_3 C 0.2400(9) 0.7247(7) 0.8156(12)
H31_3 H 0.2203 0.7397 0.7633
H32_3 H 0.2887 0.7487 0.8369
H33_3 H 0.1993 0.7327 0.8469
C48_3 C 0.2414(6) 0.6194(6) 0.7418(6)
H34_3 H 0.2216 0.6504 0.7008
H35_3 H 0.2013 0.5854 0.7436
H36_3 H 0.2907 0.5991 0.7321
N3_4 N 0.2499(4) 0.8780(3) 0.1506(3)
O14_4 O 0.1517(3) 0.8767(2) 0.0460(3)
C49_4 C 0.2794(4) 0.8367(4) 0.0283(5)
H37_4 H 0.3321 0.8308 0.0602
H38_4 H 0.2592 0.7943 0.0075
C50_4 C 0.2215(4) 0.8657(3) 0.0769(5)
C51_4 C 0.1926(5) 0.9033(4) 0.1989(5)
H40_4 H 0.2210 0.9101 0.2513
H41_4 H 0.1698 0.9448 0.1780
H42_4 H 0.1498 0.8713 0.1990
C52_4 C 0.3292(5) 0.8660(5) 0.1932(6)
H43_4 H 0.3320 0.8801 0.2462
H44_4 H 0.3412 0.8191 0.1921
H45_4 H 0.3682 0.8906 0.1702
O18_4 O 0.6124(2) 0.03340(19) 0.0210(2)
H26_4 H 0.6200 0.0084 0.6386
N2_4 N 0.7425(3) 0.3457(3) 0.1850(3)
O9_4 O 0.6987(3) 0.3538(3) 0.0557(3)
C45_4 C 0.7000(6) 0.4527(4) 0.1247(6)
H28_4 H 0.7150 0.4651 0.1785
H29_4 H 0.7328 0.4770 0.0944
H30_4 H 0.6436 0.4630 0.1067
C46_4 C 0.7135(5) 0.3777(4) 0.1161(6)
C47_4 C 0.7600(9) 0.2753(7) 0.1844(12)
H31_4 H 0.7797 0.2603 0.2367
H32_4 H 0.7113 0.2513 0.1631
H33_4 H 0.8007 0.2673 0.1531
C48_4 C 0.7586(6) 0.3806(6) 0.2582(6)
H34_4 H 0.7784 0.3496 0.2992
H35_4 H 0.7987 0.4146 0.2564
H36_4 H 0.7093 0.4009 0.2679
loop_
_geom_bond_atom_site_label_1
_geom_bond_atom_site_label_2
_geom_bond_site_symmetry_1
_geom_bond_site_symmetry_2
Co2 N1 1_555 1_555
S1 O15 1_555 1_555
S2 O17 1_555 1_555
N1 C43 1_555 1_555
N2 C46 1_555 1_555
O3 Co1 1_555 1_555
O4 Co1 1_555 1_555
O6 C14 1_555 1_555
O7 Co2 1_555 1_555
O9 Co2 1_555 1_555
O10 C14 1_555 1_555
O11 C15 1_555 1_555
O16 S1 1_555 1_555
C1 O3 1_555 1_555
C2 C1 1_555 1_555
C3 C2 1_555 1_555
H1 C3 1_555 1_555
C4 C3 1_555 1_555
H2 C4 1_555 1_555
C5 S1 1_555 1_555
C6 C5 1_555 1_555
H3 C6 1_555 1_555
C7 C2 1_555 1_555
H4 C7 1_555 1_555
C8 S1 1_555 1_555
C9 C8 1_555 1_555
H5 C9 1_555 1_555
C10 C9 1_555 1_555
H6 C10 1_555 1_555
C11 C10 1_555 1_555
C12 C11 1_555 1_555
H7 C12 1_555 1_555
C13 C8 1_555 1_555
H8 C13 1_555 1_555
C14 C11 1_555 1_555
C15 O4 1_555 1_555
C16 C15 1_555 1_555
C17 C16 1_555 1_555
H9 C17 1_555 1_555
C18 C17 1_555 1_555
H10 C18 1_555 1_555
C19 S2 1_555 1_555
C21 C16 1_555 1_555
C22 S2 1_555 1_555
C23 C22 1_555 1_555
H13 C23 1_555 1_555
C24 C23 1_555 1_555
H14 C24 1_555 1_555
C43 C44 1_555 1_555
C44 H25 1_555 1_555
H27 C44 1_555 1_555
C45 H28 1_555 1_555
H29 C45 1_555 1_555
H30 C45 1_555 1_555
C46 O9 1_555 1_555
C47 N2 1_555 1_555
H31 C47 1_555 1_555
H32 C47 1_555 1_555
H33 C47 1_555 1_555
C48 N2 1_555 1_555
H34 C48 1_555 1_555
H35 C48 1_555 1_555
H36 C48 1_555 1_555
Co5 O6 1_555 1_555
Co7 O6 1_555 1_555
O21 Co1 1_555 1_555
O22 Co1 1_555 1_555
O23 Co1 1_555 1_555
O24 Co2 1_555 1_555
O25 Co2 1_555 1_555
Co2 O23 1_555 1_555
O7 C1 1_555 1_555
O10 Co7 1_555 1_555
C4 C5 1_555 1_555
C6 C7 1_555 1_555
C12 C13 1_555 1_555
C18 C19 1_555 1_555
C45 C46 1_555 1_555
S3 O19 1_555 1_555
O2 C29 1_555 1_555
O12 Co3 1_555 1_555
O20 S3 1_555 1_555
C29 O12 1_555 1_555
C30 C29 1_555 1_555
C31 C30 1_555 1_555
H17 C31 1_555 1_555
C32 C31 1_555 1_555
H18 C32 1_555 1_555
C33 S3 1_555 1_555
C34 C33 1_555 1_555
H19 C34 1_555 1_555
C35 C30 1_555 1_555
H20 C35 1_555 1_555
O26 Co3 1_555 1_555
C32 C33 1_555 1_555
C34 C35 1_555 1_555
O5 C42 1_555 1_555
O13 C42 1_555 1_555
C37 C36 1_555 1_555
H21 C37 1_555 1_555
C38 C37 1_555 1_555
H22 C38 1_555 1_555
C39 C38 1_555 1_555
C40 C39 1_555 1_555
H23 C40 1_555 1_555
C41 C36 1_555 1_555
H24 C41 1_555 1_555
C42 C39 1_555 1_555
Co5 O5 1_555 1_555
Co9 O13 1_555 1_555
C40 C41 1_555 1_555
O23 C14_2 1_555 1_555
O25 C14_2 1_555 1_555
Co5 O2_2 1_555 1_555
Co7 N1_2 1_555 1_555
Co9 O11_2 1_555 1_555
S2_2 O17_2 1_555 1_555
N1_2 C43_2 1_555 1_555
N3 C50 1_555 1_555
O2_2 C29_2 1_555 1_555
O3_2 Co5 1_555 1_555
O4_2 Co5 1_555 1_555
O7_2 Co7 1_555 1_555
O11_2 C15_2 1_555 1_555
O12_2 Co9 1_555 1_555
O26 C42_2 1_555 1_555
O14 Co9 1_555 1_555
O18 S2_2 1_555 1_555
O20_2 S3_2 1_555 1_555
C1_2 O3_2 1_555 1_555
C2_2 C1_2 1_555 1_555
C3_2 C2_2 1_555 1_555
H1_2 C3_2 1_555 1_555
C4_2 C3_2 1_555 1_555
H2_2 C4_2 1_555 1_555
C6_2 C5_2 1_555 1_555
H3_2 C6_2 1_555 1_555
C7_2 C2_2 1_555 1_555
H4_2 C7_2 1_555 1_555
C11_2 C10_2 1_555 1_555
C15_2 O4_2 1_555 1_555
C16_2 C15_2 1_555 1_555
C17_2 C16_2 1_555 1_555
H9_2 C17_2 1_555 1_555
C18_2 C17_2 1_555 1_555
H10_2 C18_2 1_555 1_555
C19_2 S2_2 1_555 1_555
C20 C19_2 1_555 1_555
H11 C20 1_555 1_555
C21_2 C16_2 1_555 1_555
H12 C21_2 1_555 1_555
C22_2 S2_2 1_555 1_555
C23_2 C22_2 1_555 1_555
H13_2 C23_2 1_555 1_555
C26 C25 1_555 1_555
H15 C26 1_555 1_555
C27 C22_2 1_555 1_555
H16 C27 1_555 1_555
C29_2 O12_2 1_555 1_555
C30_2 C29_2 1_555 1_555
C31_2 C30_2 1_555 1_555
H17_2 C31_2 1_555 1_555
C32_2 C31_2 1_555 1_555
H18_2 C32_2 1_555 1_555
C33_2 S3_2 1_555 1_555
C34_2 C33_2 1_555 1_555
H19_2 C34_2 1_555 1_555
C35_2 C30_2 1_555 1_555
H20_2 C35_2 1_555 1_555
C36_2 S3_2 1_555 1_555
C37_2 C36_2 1_555 1_555
C38_2 C37_2 1_555 1_555
C39_2 C38_2 1_555 1_555
C40_2 C39_2 1_555 1_555
H23_2 C40_2 1_555 1_555
C41_2 C36_2 1_555 1_555
H24_2 C41_2 1_555 1_555
C42_2 C39_2 1_555 1_555
C43_2 C44_2 1_555 1_555
C44_2 H25_2 1_555 1_555
H26 C44_2 1_555 1_555
H27_2 C44_2 1_555 1_555
C49 H37 1_555 1_555
H38 C49 1_555 1_555
H39_2 C49 1_555 1_555
C50 O14 1_555 1_555
C51 N3 1_555 1_555
H40 C51 1_555 1_555
H41 C51 1_555 1_555
H42 C51 1_555 1_555
C52 N3 1_555 1_555
H43 C52 1_555 1_555
H44 C52 1_555 1_555
H45 C52 1_555 1_555
O21_2 Co5 1_555 1_555
O24_2 Co7 1_555 1_555
O7_2 C1_2 1_555 1_555
C4_2 C5_2 1_555 1_555
C6_2 C7_2 1_555 1_555
C18_2 C19_2 1_555 1_555
C20 C21_2 1_555 1_555
C26 C27 1_555 1_555
C32_2 C33_2 1_555 1_555
C34_2 C35_2 1_555 1_555
C40_2 C41_2 1_555 1_555
C49 C50 1_555 1_555
O21_2 C28 1_555 1_555
O24_2 C28 1_555 1_555
H11_2 C20_2 1_555 1_555
C26_2 C25_2 1_555 1_555
H15_2 C26_2 1_555 1_555
H16_2 C27_2 1_555 1_555
C28 C25_2 1_555 1_555
C26_2 C27_2 1_555 1_555
S1_2 O15_2 1_555 1_555
O21 C28_2 1_555 1_555
O24 C28_2 1_555 1_555
O16_2 S1_2 1_555 1_555
C8_2 S1_2 1_555 1_555
C9_2 C8_2 1_555 1_555
H5_2 C9_2 1_555 1_555
C13_2 C8_2 1_555 1_555
H8_2 C13_2 1_555 1_555
H14_2 C24_2 1_555 1_555
C12_2 C13_2 1_555 1_555
O1 C28_3 1_555 1_555
O8 C28_3 1_555 1_555
H11_3 C20_3 1_555 1_555
C26_3 C25_3 1_555 1_555
H15_3 C26_3 1_555 1_555
H16_3 C27_3 1_555 1_555
C28_3 C25_3 1_555 1_555
Co6 O1 1_555 1_555
Co8 O8 1_555 1_555
C26_3 C27_3 1_555 1_555
S1_3 O15_3 1_555 1_555
O1_2 C28_4 1_555 1_555
O8_2 C28_4 1_555 1_555
O16_3 S1_3 1_555 1_555
C8_3 S1_3 1_555 1_555
C9_3 C8_3 1_555 1_555
H5_3 C9_3 1_555 1_555
C13_3 C8_3 1_555 1_555
H8_3 C13_3 1_555 1_555
H14_3 C24_3 1_555 1_555
Co6_2 O1_2 1_555 1_555
Co8_2 O8_2 1_555 1_555
C12_3 C13_3 1_555 1_555
O5_2 C42_3 1_555 1_555
O13_2 C42_3 1_555 1_555
C37_3 C36_3 1_555 1_555
H21_3 C37_3 1_555 1_555
C38_3 C37_3 1_555 1_555
H22_3 C38_3 1_555 1_555
C39_3 C38_3 1_555 1_555
C40_3 C39_3 1_555 1_555
H23_3 C40_3 1_555 1_555
C41_3 C36_3 1_555 1_555
H24_3 C41_3 1_555 1_555
C42_3 C39_3 1_555 1_555
Co6 O5_2 1_555 1_555
Co9_2 O13_2 1_555 1_555
C40_3 C41_3 1_555 1_555
S3_3 O19_3 1_555 1_555
O2_3 C29_3 1_555 1_555
O12_3 Co3_2 1_555 1_555
O20_3 S3_3 1_555 1_555
C29_3 O12_3 1_555 1_555
C30_3 C29_3 1_555 1_555
C31_3 C30_3 1_555 1_555
H17_3 C31_3 1_555 1_555
C32_3 C31_3 1_555 1_555
H18_3 C32_3 1_555 1_555
C33_3 S3_3 1_555 1_555
C34_3 C33_3 1_555 1_555
H19_3 C34_3 1_555 1_555
C35_3 C30_3 1_555 1_555
H20_3 C35_3 1_555 1_555
O26_2 Co3_2 1_555 1_555
C32_3 C33_3 1_555 1_555
C34_3 C35_3 1_555 1_555
Co8_2 N1_3 1_555 1_555
S1_4 O15_4 1_555 1_555
S2_3 O17_3 1_555 1_555
N1_3 C43_3 1_555 1_555
N2_2 C46_2 1_555 1_555
O3_3 Co6_2 1_555 1_555
O4_3 Co6_2 1_555 1_555
O6_2 C14_3 1_555 1_555
O7_3 Co8_2 1_555 1_555
O9_2 Co8_2 1_555 1_555
O10_2 C14_3 1_555 1_555
O11_3 C15_3 1_555 1_555
O16_4 S1_4 1_555 1_555
C1_3 O3_3 1_555 1_555
C2_3 C1_3 1_555 1_555
C3_3 C2_3 1_555 1_555
H1_3 C3_3 1_555 1_555
C4_3 C3_3 1_555 1_555
H2_3 C4_3 1_555 1_555
C5_3 S1_4 1_555 1_555
C6_3 C5_3 1_555 1_555
H3_3 C6_3 1_555 1_555
C7_3 C2_3 1_555 1_555
H4_3 C7_3 1_555 1_555
C8_4 S1_4 1_555 1_555
C9_4 C8_4 1_555 1_555
H5_4 C9_4 1_555 1_555
C10_3 C9_4 1_555 1_555
H6_3 C10_3 1_555 1_555
C11_3 C10_3 1_555 1_555
C12_4 C11_3 1_555 1_555
H7_3 C12_4 1_555 1_555
C13_4 C8_4 1_555 1_555
H8_4 C13_4 1_555 1_555
C14_3 C11_3 1_555 1_555
C15_3 O4_3 1_555 1_555
C16_3 C15_3 1_555 1_555
C17_3 C16_3 1_555 1_555
H9_3 C17_3 1_555 1_555
C18_3 C17_3 1_555 1_555
H10_3 C18_3 1_555 1_555
C19_3 S2_3 1_555 1_555
C21_3 C16_3 1_555 1_555
C22_3 S2_3 1_555 1_555
C23_3 C22_3 1_555 1_555
H13_3 C23_3 1_555 1_555
C24_4 C23_3 1_555 1_555
H14_4 C24_4 1_555 1_555
C43_3 C44_3 1_555 1_555
C44_3 H25_3 1_555 1_555
H27_3 C44_3 1_555 1_555
C45_2 H28_2 1_555 1_555
H29_2 C45_2 1_555 1_555
H30_2 C45_2 1_555 1_555
C46_2 O9_2 1_555 1_555
C47_2 N2_2 1_555 1_555
H31_2 C47_2 1_555 1_555
H32_2 C47_2 1_555 1_555
H33_2 C47_2 1_555 1_555
C48_2 N2_2 1_555 1_555
H34_2 C48_2 1_555 1_555
H35_2 C48_2 1_555 1_555
H36_2 C48_2 1_555 1_555
Co6 O6_2 1_555 1_555
Co8 O6_2 1_555 1_555
O22_2 Co6_2 1_555 1_555
O23_2 Co6_2 1_555 1_555
O25_2 Co8_2 1_555 1_555
Co8_2 O23_2 1_555 1_555
O7_3 C1_3 1_555 1_555
O10_2 Co8 1_555 1_555
C4_3 C5_3 1_555 1_555
C6_3 C7_3 1_555 1_555
C12_4 C13_4 1_555 1_555
C18_3 C19_3 1_555 1_555
C45_2 C46_2 1_555 1_555
Co6 O2_4 1_555 1_555
Co8 N1_4 1_555 1_555
Co9_2 O11_4 1_555 1_555
S2_4 O17_4 1_555 1_555
N1_4 C43_4 1_555 1_555
N3_2 C50_2 1_555 1_555
O2_4 C29_4 1_555 1_555
O3_4 Co6 1_555 1_555
O4_4 Co6 1_555 1_555
O7_4 Co8 1_555 1_555
O11_4 C15_4 1_555 1_555
O12_4 Co9_2 1_555 1_555
O26_2 C42_4 1_555 1_555
O14_2 Co9_2 1_555 1_555
O18_2 S2_4 1_555 1_555
O20_4 S3_4 1_555 1_555
C1_4 O3_4 1_555 1_555
C2_4 C1_4 1_555 1_555
C3_4 C2_4 1_555 1_555
H1_4 C3_4 1_555 1_555
C4_4 C3_4 1_555 1_555
H2_4 C4_4 1_555 1_555
C6_4 C5_4 1_555 1_555
H3_4 C6_4 1_555 1_555
C7_4 C2_4 1_555 1_555
H4_4 C7_4 1_555 1_555
C11_4 C10_4 1_555 1_555
C15_4 O4_4 1_555 1_555
C16_4 C15_4 1_555 1_555
C17_4 C16_4 1_555 1_555
H9_4 C17_4 1_555 1_555
C18_4 C17_4 1_555 1_555
H10_4 C18_4 1_555 1_555
C19_4 S2_4 1_555 1_555
C20_4 C19_4 1_555 1_555
H11_4 C20_4 1_555 1_555
C21_4 C16_4 1_555 1_555
H12_4 C21_4 1_555 1_555
C22_4 S2_4 1_555 1_555
C23_4 C22_4 1_555 1_555
H13_4 C23_4 1_555 1_555
C26_4 C25_4 1_555 1_555
H15_4 C26_4 1_555 1_555
C27_4 C22_4 1_555 1_555
H16_4 C27_4 1_555 1_555
C29_4 O12_4 1_555 1_555
C30_4 C29_4 1_555 1_555
C31_4 C30_4 1_555 1_555
H17_4 C31_4 1_555 1_555
C32_4 C31_4 1_555 1_555
H18_4 C32_4 1_555 1_555
C33_4 S3_4 1_555 1_555
C34_4 C33_4 1_555 1_555
H19_4 C34_4 1_555 1_555
C35_4 C30_4 1_555 1_555
H20_4 C35_4 1_555 1_555
C36_4 S3_4 1_555 1_555
C37_4 C36_4 1_555 1_555
C38_4 C37_4 1_555 1_555
C39_4 C38_4 1_555 1_555
C40_4 C39_4 1_555 1_555
H23_4 C40_4 1_555 1_555
C41_4 C36_4 1_555 1_555
H24_4 C41_4 1_555 1_555
C42_4 C39_4 1_555 1_555
C43_4 C44_4 1_555 1_555
C44_4 H25_4 1_555 1_555
H26_2 C44_4 1_555 1_555
H27_4 C44_4 1_555 1_555
C49_2 H37_2 1_555 1_555
H38_2 C49_2 1_555 1_555
H39_4 C49_2 1_555 1_555
C50_2 O14_2 1_555 1_555
C51_2 N3_2 1_555 1_555
H40_2 C51_2 1_555 1_555
H41_2 C51_2 1_555 1_555
H42_2 C51_2 1_555 1_555
C52_2 N3_2 1_555 1_555
H43_2 C52_2 1_555 1_555
H44_2 C52_2 1_555 1_555
H45_2 C52_2 1_555 1_555
O7_4 C1_4 1_555 1_555
C4_4 C5_4 1_555 1_555
C6_4 C7_4 1_555 1_555
C18_4 C19_4 1_555 1_555
C20_4 C21_4 1_555 1_555
C26_4 C27_4 1_555 1_555
C32_4 C33_4 1_555 1_555
C34_4 C35_4 1_555 1_555
C40_4 C41_4 1_555 1_555
C49_2 C50_2 1_555 1_555
O23_2 C14_4 1_555 1_555
O25_2 C14_4 1_555 1_555
N3_3 C50_3 1_555 1_555
C49_3 H37_3 1_555 1_555
H38_3 C49_3 1_555 1_555
C50_3 O14_3 1_555 1_555
C51_3 N3_3 1_555 1_555
H40_3 C51_3 1_555 1_555
H41_3 C51_3 1_555 1_555
H42_3 C51_3 1_555 1_555
C52_3 N3_3 1_555 1_555
H43_3 C52_3 1_555 1_555
H44_3 C52_3 1_555 1_555
H45_3 C52_3 1_555 1_555
C49_3 C50_3 1_555 1_555
N2_3 C46_3 1_555 1_555
C45_3 H28_3 1_555 1_555
H29_3 C45_3 1_555 1_555
H30_3 C45_3 1_555 1_555
C46_3 O9_3 1_555 1_555
C47_3 N2_3 1_555 1_555
H31_3 C47_3 1_555 1_555
H32_3 C47_3 1_555 1_555
H33_3 C47_3 1_555 1_555
C48_3 N2_3 1_555 1_555
H34_3 C48_3 1_555 1_555
H35_3 C48_3 1_555 1_555
H36_3 C48_3 1_555 1_555
C45_3 C46_3 1_555 1_555
N3_4 C50_4 1_555 1_555
C49_4 H37_4 1_555 1_555
H38_4 C49_4 1_555 1_555
C50_4 O14_4 1_555 1_555
C51_4 N3_4 1_555 1_555
H40_4 C51_4 1_555 1_555
H41_4 C51_4 1_555 1_555
H42_4 C51_4 1_555 1_555
C52_4 N3_4 1_555 1_555
H43_4 C52_4 1_555 1_555
H44_4 C52_4 1_555 1_555
H45_4 C52_4 1_555 1_555
C49_4 C50_4 1_555 1_555
N2_4 C46_4 1_555 1_555
C45_4 H28_4 1_555 1_555
H29_4 C45_4 1_555 1_555
H30_4 C45_4 1_555 1_555
C46_4 O9_4 1_555 1_555
C47_4 N2_4 1_555 1_555
H31_4 C47_4 1_555 1_555
H32_4 C47_4 1_555 1_555
H33_4 C47_4 1_555 1_555
C48_4 N2_4 1_555 1_555
H34_4 C48_4 1_555 1_555
H35_4 C48_4 1_555 1_555
H36_4 C48_4 1_555 1_555
C45_4 C46_4 1_555 1_555

#END
