
###############################################################################
#
# This file contains modified crystal structure data generated from the
# MOF subset of the Cambridge Structural Database (CSD) v543 
# hosted by the Cambridge Crystallographic Data Centre (CCDC).
#
# This work is licensed under the Creative Commons
# Attribution-NonCommercial-ShareAlike 4.0 International License.
# To view a copy of this license, visit
# http://creativecommons.org/licenses/by-nc-sa/4.0/
# or send a letter to
# Creative Commons, PO Box 1866, Mountain View, CA 94042, USA.
#
# CIF created using the CSD Python API on 29 September 2022
# The structure has been converted into the P1 space group
# The structure has a 3D framework
# The original CSD entry COWROX is in the monoclinic crystal system
# The framework has been calculated to contain at least 10.0% void space
# The void calculation uses a probe of radius 1.32A, grid spacing 0.4
# H atom positions have been added when not included in the experimental data
#
###############################################################################

data_COWROX
_chemical_formula_moiety         '(C208 H188 Co12 N8 O88 S12)n'
_symmetry_cell_setting           triclinic
_symmetry_space_group_name_H-M   'P 1'
_symmetry_Int_Tables_number      1
_space_group_name_Hall           'P 1'
loop_
_symmetry_equiv_pos_site_id
_symmetry_equiv_pos_as_xyz
1 x,y,z
_cell_length_a                   16.7033(9)
_cell_length_b                   20.0195(11)
_cell_length_c                   17.4602(12)
_cell_angle_alpha                90
_cell_angle_beta                 100.423(6)
_cell_angle_gamma                90
_cell_volume                     5742.2
loop_
_atom_site_label
_atom_site_type_symbol
_atom_site_fract_x
_atom_site_fract_y
_atom_site_fract_z
N2 N 0.2588(5) 0.3760(3) 0.1447(5)
O12 O 0.1661(3) 0.3661(2) 0.0434(3)
C49 C 0.2999(6) 0.3335(5) 0.0358(6)
H29 H 0.3514 0.3328 0.0708
H31 H 0.2855 0.2889 0.0184
C50 C 0.2299(6) 0.3636(4) 0.0812(6)
C51 C 0.1878(7) 0.4046(5) 0.1865(6)
H32 H 0.2100 0.4156 0.2396
H33 H 0.1463 0.3713 0.1852
H34 H 0.1648 0.4439 0.1596
C52 C 0.3334(6) 0.3733(5) 0.1919(6)
H35 H 0.3293 0.3895 0.2427
H36 H 0.3712 0.4004 0.1703
H37 H 0.3523 0.3279 0.1957
Co3 Co 0.09087(5) 0.34918(4) 0.94262(5)
S1 S 0.03806(8) 0.72495(7) 0.76686(8)
O1 O 0.0152(3) 0.2546(2) 0.8283(3)
O13 O 0.0864(3) 0.24868(19) 0.9432(2)
O17 O 0.0870(2) 0.7235(2) 0.8411(2)
O18 O 0.0614(2) 0.76414(19) 0.7059(2)
C3 C 0.0041(4) 0.5329(3) 0.7533(3)
C4 C 0.0194(4) 0.5945(3) 0.7826(4)
H2 H 0.0250 0.6027 0.8357
C5 C 0.0266(3) 0.6444(3) 0.7313(3)
C6 C 0.0219(3) 0.6335(3) 0.6531(3)
H3 H 0.0277 0.6687 0.6198
C7 C 0.0087(4) 0.5716(3) 0.6260(3)
H4 H 0.0070 0.5629 0.5734
C15 C 0.0505(3) 0.2230(3) 0.8823(3)
C16 C 0.0502(3) 0.1514(3) 0.8751(3)
C17 C 0.0179(3) 0.1234(3) 0.8053(3)
C18 C 0.0160(3) 0.0574(3) 0.7957(3)
C19 C 0.0463(3) 0.0188(3) 0.8573(3)
C20 C 0.0776(5) 0.0443(3) 0.9262(4)
H11 H 0.0975 0.0166 0.9680
C21 C 0.0800(5) 0.1114(3) 0.9345(4)
H12 H 0.1028 0.1299 0.9823
H30 H 0.3039 0.3612 0.9918
O24 O 0.0982(2) 0.3621(2) 0.7524(2)
O28 O 0.1645(2) 0.3830(2) 0.8686(2)
S2 S 0.04208(9) 0.93309(7) 0.84508(10)
O4 O 0.4018(2) 0.8621(2) 0.7476(2)
O14 O 0.3355(2) 0.8830(2) 0.6314(2)
O20 O 0.0501(3) 0.9042(2) 0.9204(3)
C22 C 0.1295(3) 0.9150(3) 0.8030(3)
C23 C 0.1284(3) 0.9242(3) 0.7251(3)
H13 H 0.0810 0.9393 0.6936
C24 C 0.1963(3) 0.9116(3) 0.6924(3)
H14 H 0.1940 0.9172 0.6392
C25 C 0.2660(3) 0.8911(3) 0.7379(3)
C26 C 0.2643(4) 0.8814(3) 0.8156(4)
H15 H 0.3114 0.8662 0.8476
C27 C 0.1964(4) 0.8931(3) 0.8488(3)
H16 H 0.1977 0.8858 0.9016
C28 C 0.3405(3) 0.8778(3) 0.7035(4)
Co5 Co 0.52417(4) 0.83010(4) 0.75139(4)
Co9 Co 0.40913(5) 0.84918(4) 0.55738(5)
Co1 Co 0.97583(4) 0.33010(4) 0.74861(4)
Co2 Co 0.87669(5) 0.37450(4) 0.55576(5)
S3 S 0.61128(8) 0.48469(7) 0.95687(8)
N1 N 0.7658(4) 0.3635(5) 0.3181(4)
O2 O 0.9433(2) 0.41535(19) 0.6810(2)
O5 O 0.6497(2) 0.80494(19) 0.7587(2)
O6 O 0.9649(3) 0.3864(2) 0.8591(3)
O7 O 0.8208(3) 0.3740(3) 0.4422(3)
O9 O 0.6960(2) 0.8196(2) 0.8837(2)
O10 O 0.8018(4) 0.4612(3) 0.5646(3)
O11 O 0.9757(4) 0.4479(2) 0.5703(3)
O15 O 0.9956(3) 0.3976(3) 0.9836(3)
O16 O 0.6684(5) 0.4878(6) 0.6994(6)
O22 O 0.5670(2) 0.49677(19) 0.8823(2)
C1 C 0.9730(4) 0.4571(3) 0.6417(4)
C2 C 0.9979(3) 0.5213(3) 0.6748(3)
H1 H 0.9975 0.4977 0.7863
C8 C 0.9397(3) 0.7477(2) 0.7807(3)
C9 C 0.9230(3) 0.7589(3) 0.8549(3)
H5 H 0.9643 0.7538 0.8980
C10 C 0.8469(3) 0.7773(3) 0.8657(3)
H6 H 0.8365 0.7852 0.9154
C11 C 0.7872(3) 0.7840(2) 0.8026(3)
C12 C 0.8056(3) 0.7731(3) 0.7291(3)
H7 H 0.7646 0.7783 0.6858
C13 C 0.8815(3) 0.7550(3) 0.7180(3)
H8 H 0.8923 0.7480 0.6682
C14 C 0.7041(3) 0.8046(3) 0.8157(3)
H9 H 0.9968 0.1508 0.7635
H10 H 0.9943 0.0385 0.7478
C29 C 0.9466(3) 0.4022(3) 0.9225(4)
C30 C 0.8639(3) 0.4269(3) 0.9284(3)
C31 C 0.8493(4) 0.4576(3) 0.9962(4)
C33 C 0.7112(3) 0.4649(2) 0.9449(3)
C34 C 0.7254(3) 0.4351(3) 0.8770(3)
H19 H 0.6822 0.4276 0.8362
C35 C 0.8026(3) 0.4166(3) 0.8695(3)
H20 H 0.8120 0.3970 0.8236
C36 C 0.5752(3) 0.4127(3) 0.9934(3)
C40 C 0.5108(3) 0.3104(3) 0.9724(3)
H23 H 0.4856 0.2778 0.9385
C41 C 0.5383(3) 0.3668(3) 0.9430(3)
H24 H 0.5319 0.3735 0.8895
C43 C 0.7755(7) 0.4824(6) 0.6352(8)
H25 H 0.8059 0.4581 0.6790
H26 H 0.7874 0.5296 0.6434
C44 C 0.6901(7) 0.4715(6) 0.6320(6)
H27 H 0.6594 0.4983 0.5905
H28 H 0.6774 0.4249 0.6205
C45 C 0.7851(7) 0.2697(4) 0.3850(8)
C46 C 0.7927(7) 0.3466(5) 0.3835(5)
C47 C 0.7727(9) 0.4407(5) 0.3155(9)
C48 C 0.7352(6) 0.3305(7) 0.2465(5)
Co7 Co 0.62331(5) 0.87450(4) 0.94424(5)
O23 O 0.9940(3) 0.2651(2) 0.6558(2)
O25 O 0.8503(2) 0.30494(19) 0.7413(2)
O26 O 0.9544(3) 0.3005(2) 0.5355(2)
O27 O 0.8040(2) 0.3196(2) 0.6163(2)
H38 H 0.680626 0.535707 0.710731
H39 H 0.819797 0.247884 0.344115
H40 H 0.808804 0.251435 0.443454
H41 H 0.721344 0.255589 0.368488
H42 H 0.836323 0.455266 0.331788
H43 H 0.748807 0.458296 0.256797
H44 H 0.737814 0.46274 0.35609
H45 H 0.682743 0.300185 0.253105
H46 H 0.717037 0.367519 0.200972
H47 H 0.782428 0.298569 0.230689
S1_2 S 0.46194(8) 0.22495(7) 0.73314(8)
O17_2 O 0.4130(2) 0.2235(2) 0.6589(2)
O18_2 O 0.4386(2) 0.26414(19) 0.7941(2)
O21 O 0.8859(2) 0.03295(18) 0.4836(2)
C2_2 C 0.5021(3) 0.0213(3) 0.8252(3)
C3_2 C 0.4959(4) 0.0329(3) 0.7467(3)
C4_2 C 0.4806(4) 0.0945(3) 0.7174(4)
H2_2 H 0.4750 0.1027 0.6643
C5_2 C 0.4734(3) 0.1444(3) 0.7687(3)
C6_2 C 0.4781(3) 0.1335(3) 0.8469(3)
H3_2 H 0.4723 0.1687 0.8802
C7_2 C 0.4913(4) 0.0716(3) 0.8740(3)
H4_2 H 0.4930 0.0629 0.9266
C8_2 C 0.5603(3) 0.2477(2) 0.7193(3)
C9_2 C 0.5770(3) 0.2589(3) 0.6451(3)
H5_2 H 0.5357 0.2538 0.6020
C10_2 C 0.6531(3) 0.2773(3) 0.6343(3)
H6_2 H 0.6635 0.2852 0.5846
C11_2 C 0.7128(3) 0.2840(2) 0.6974(3)
C12_2 C 0.6944(3) 0.2731(3) 0.7709(3)
H7_2 H 0.7354 0.2783 0.8142
C13_2 C 0.6185(3) 0.2550(3) 0.7820(3)
H8_2 H 0.6077 0.2480 0.8318
C14_2 C 0.7959(3) 0.3046(3) 0.6843(3)
H26_2 H 0.7126 0.0296 0.8566
H38_2 H 0.819374 0.035707 0.789269
S2_2 S 0.45792(9) 0.43309(7) 0.65492(10)
S3_2 S 0.88872(8) 0.98469(7) 0.54313(8)
N2_2 N 0.2412(5) 0.8760(3) 0.3553(5)
O1_2 O 0.4848(3) 0.7546(2) 0.6717(3)
O2_2 O 0.5567(2) 0.91535(19) 0.8190(2)
O6_2 O 0.5351(3) 0.8864(2) 0.6409(3)
O10_2 O 0.6982(4) 0.9612(3) 0.9354(3)
O11_2 O 0.5243(4) 0.9479(2) 0.9297(3)
O12_2 O 0.3339(3) 0.8661(2) 0.4566(3)
O13_2 O 0.4136(3) 0.74868(19) 0.5568(2)
O15_2 O 0.5044(3) 0.8976(3) 0.5164(3)
O16_2 O 0.8316(5) 0.9878(6) 0.8006(6)
O19 O 0.5268(3) 0.4186(2) 0.7110(3)
O20_2 O 0.4499(3) 0.4042(2) 0.5796(3)
O22_2 O 0.9330(2) 0.99677(19) 0.6177(2)
C1_2 C 0.5270(4) 0.9571(3) 0.8583(4)
H1_2 H 0.5025 0.9977 0.7137
C15_2 C 0.4495(3) 0.7230(3) 0.6177(3)
C16_2 C 0.4498(3) 0.6514(3) 0.6249(3)
C17_2 C 0.4821(3) 0.6234(3) 0.6947(3)
H9_2 H 0.5032 0.6508 0.7365
C18_2 C 0.4840(3) 0.5574(3) 0.7043(3)
H10_2 H 0.5057 0.5385 0.7522
C19_2 C 0.4537(3) 0.5188(3) 0.6427(3)
C20_2 C 0.4224(5) 0.5443(3) 0.5738(4)
H11_2 H 0.4025 0.5166 0.5320
C21_2 C 0.4200(5) 0.6114(3) 0.5655(4)
H12_2 H 0.3972 0.6299 0.5177
C22_2 C 0.3705(3) 0.4150(3) 0.6970(3)
C23_2 C 0.3716(3) 0.4242(3) 0.7749(3)
H13_2 H 0.4190 0.4393 0.8064
C24_2 C 0.3037(3) 0.4116(3) 0.8076(3)
H14_2 H 0.3060 0.4172 0.8608
C25_2 C 0.2340(3) 0.3911(3) 0.7621(3)
C26_2 C 0.2357(4) 0.3814(3) 0.6844(4)
H15_2 H 0.1886 0.3662 0.6524
C27_2 C 0.3036(4) 0.3931(3) 0.6512(3)
H16_2 H 0.3023 0.3858 0.5984
C28_2 C 0.1595(3) 0.3778(3) 0.7965(4)
C29_2 C 0.5534(3) 0.9022(3) 0.5775(4)
C30_2 C 0.6361(3) 0.9269(3) 0.5716(3)
C31_2 C 0.6507(4) 0.9576(3) 0.5038(4)
H17 H 0.6075 0.9651 0.4631
C32 C 0.7273(3) 0.9770(3) 0.4961(3)
H18 H 0.7364 0.9980 0.4510
C33_2 C 0.7888(3) 0.9649(2) 0.5551(3)
C34_2 C 0.7746(3) 0.9351(3) 0.6230(3)
H19_2 H 0.8178 0.9276 0.6638
C35_2 C 0.6974(3) 0.9166(3) 0.6305(3)
H20_2 H 0.6880 0.8970 0.6764
C36_2 C 0.9248(3) 0.9127(3) 0.5066(3)
C37 C 0.9162(3) 0.9030(3) 0.4279(3)
H21 H 0.8907 0.9355 0.3939
C38 C 0.9442(3) 0.8470(3) 0.3991(3)
H22 H 0.9381 0.8409 0.3456
C39 C 0.9808(3) 0.8003(3) 0.4482(3)
C40_2 C 0.9892(3) 0.8104(3) 0.5276(3)
C41_2 C 0.9617(3) 0.8668(3) 0.5570(3)
H24_2 H 0.9681 0.8735 0.6105
C43_2 C 0.7245(7) 0.9824(6) 0.8648(8)
H25_2 H 0.6941 0.9581 0.8210
C44_2 C 0.8099(7) 0.9715(6) 0.8680(6)
H27_2 H 0.8406 0.9983 0.9095
H28_2 H 0.8226 0.9249 0.8795
C49_2 C 0.2001(6) 0.8335(5) 0.4642(6)
H29_2 H 0.1486 0.8328 0.4292
H30_2 H 0.1961 0.8612 0.5082
H31_2 H 0.2145 0.7889 0.4816
C50_2 C 0.2701(6) 0.8636(4) 0.4188(6)
C51_2 C 0.3122(7) 0.9046(5) 0.3135(6)
H32_2 H 0.2900 0.9156 0.2604
H33_2 H 0.3537 0.8713 0.3148
H34_2 H 0.3352 0.9439 0.3404
C52_2 C 0.1666(6) 0.8733(5) 0.3081(6)
H35_2 H 0.1707 0.8895 0.2573
H36_2 H 0.1288 0.9004 0.3297
H37_2 H 0.1477 0.8279 0.3043
O23_2 O 0.5060(3) 0.7651(2) 0.8442(2)
O26_2 O 0.5456(3) 0.8005(2) 0.9645(2)
O21_2 O 0.3859(2) 0.46705(18) 0.9836(2)
H17_2 H 0.1075 0.5349 0.9631
C32_2 C 0.2273(3) 0.5230(3) 0.9961(3)
H18_2 H 0.2364 0.5020 0.9510
C37_2 C 0.4162(3) 0.5970(3) 0.9279(3)
H21_2 H 0.3907 0.5645 0.8939
C38_2 C 0.4442(3) 0.6530(3) 0.8991(3)
H22_2 H 0.4381 0.6591 0.8456
C39_2 C 0.4808(3) 0.6997(3) 0.9482(3)
C42 C 0.5128(3) 0.7606(3) 0.9158(4)
H23_2 H 0.9856 0.2222 0.4385
C42_2 C 0.9872(3) 0.2606(3) 0.5842(4)
O3 O 0.4940(3) 0.2349(2) 0.1558(2)
O8 O 0.4544(3) 0.1995(2) 0.0355(2)
O21_3 O 0.6141(2) 0.53295(18) 0.0164(2)
H17_3 H 0.8925 0.4651 0.0369
C32_3 C 0.7727(3) 0.4770(3) 0.0039(3)
H18_3 H 0.7636 0.4980 0.0490
C37_3 C 0.5838(3) 0.4030(3) 0.0721(3)
H21_3 H 0.6093 0.4355 0.1061
C38_3 C 0.5558(3) 0.3470(3) 0.1009(3)
H22_3 H 0.5619 0.3409 0.1544
C39_3 C 0.5192(3) 0.3003(3) 0.0518(3)
C42_3 C 0.4872(3) 0.2394(3) 0.0842(4)
Co6 Co 0.47583(4) 0.16990(4) 0.24861(4)
Co8 Co 0.37669(5) 0.12550(4) 0.05576(5)
O3_2 O 0.0060(3) 0.7349(2) 0.3442(2)
O8_2 O 0.0456(3) 0.6995(2) 0.4645(2)
H23_3 H 0.0144 0.7778 0.5615
C42_4 C 0.0128(3) 0.7394(3) 0.4158(4)
Co6_2 Co 0.02417(4) 0.66990(4) 0.25139(4)
Co8_2 Co 0.12331(5) 0.62550(4) 0.44424(5)
S3_3 S 0.38872(8) 0.51531(7) 0.04313(8)
N1_2 N 0.2342(4) 0.6365(5) 0.6819(4)
O2_3 O 0.0567(2) 0.58465(19) 0.3190(2)
O5_2 O 0.3503(2) 0.19506(19) 0.2413(2)
O6_3 O 0.0351(3) 0.6136(2) 0.1409(3)
O7_2 O 0.1792(3) 0.6260(3) 0.5578(3)
O9_2 O 0.3040(2) 0.1804(2) 0.1163(2)
O10_3 O 0.1982(4) 0.5388(3) 0.4354(3)
O11_3 O 0.0243(4) 0.5521(2) 0.4297(3)
O15_3 O 0.0044(3) 0.6024(3) 0.0164(3)
O16_3 O 0.3316(5) 0.5122(6) 0.3006(6)
O22_3 O 0.4330(2) 0.50323(19) 0.1177(2)
C1_3 C 0.0270(4) 0.5429(3) 0.3583(4)
C2_3 C 0.0021(3) 0.4787(3) 0.3252(3)
H1_3 H 0.0025 0.5023 0.2137
C8_3 C 0.0603(3) 0.2523(2) 0.2193(3)
C9_3 C 0.0770(3) 0.2411(3) 0.1451(3)
H5_3 H 0.0357 0.2462 0.1020
C10_3 C 0.1531(3) 0.2227(3) 0.1343(3)
H6_3 H 0.1635 0.2148 0.0846
C11_3 C 0.2128(3) 0.2160(2) 0.1974(3)
C12_3 C 0.1944(3) 0.2269(3) 0.2709(3)
H7_3 H 0.2354 0.2217 0.3142
C13_3 C 0.1185(3) 0.2450(3) 0.2820(3)
H8_3 H 0.1077 0.2520 0.3318
C14_3 C 0.2959(3) 0.1954(3) 0.1843(3)
H9_3 H 0.0032 0.8492 0.2365
H10_3 H 0.0057 0.9615 0.2522
C29_3 C 0.0534(3) 0.5978(3) 0.0775(4)
C30_3 C 0.1361(3) 0.5731(3) 0.0716(3)
C31_3 C 0.1507(4) 0.5424(3) 0.0038(4)
C33_3 C 0.2888(3) 0.5351(2) 0.0551(3)
C34_3 C 0.2746(3) 0.5649(3) 0.1230(3)
H19_3 H 0.3178 0.5724 0.1638
C35_3 C 0.1974(3) 0.5834(3) 0.1305(3)
H20_3 H 0.1880 0.6030 0.1764
C36_3 C 0.4248(3) 0.5873(3) 0.0066(3)
C40_3 C 0.4892(3) 0.6896(3) 0.0276(3)
H23_4 H 0.5144 0.7222 0.0615
C41_3 C 0.4617(3) 0.6332(3) 0.0570(3)
H24_3 H 0.4681 0.6265 0.1105
C43_3 C 0.2245(7) 0.5176(6) 0.3648(8)
H25_3 H 0.1941 0.5419 0.3210
H26_3 H 0.2126 0.4704 0.3566
C44_3 C 0.3099(7) 0.5285(6) 0.3680(6)
H27_3 H 0.3406 0.5017 0.4095
H28_3 H 0.3226 0.5751 0.3795
C45_2 C 0.2149(7) 0.7303(4) 0.6150(8)
C46_2 C 0.2073(7) 0.6534(5) 0.6165(5)
C47_2 C 0.2273(9) 0.5593(5) 0.6845(9)
C48_2 C 0.2648(6) 0.6695(7) 0.7535(5)
O25_2 O 0.1497(2) 0.69506(19) 0.2587(2)
O27_2 O 0.1960(2) 0.6804(2) 0.3837(2)
H38_3 H 0.319374 0.464293 0.289269
H39_2 H 0.180203 0.752116 0.655885
H40_2 H 0.191196 0.748565 0.556546
H41_2 H 0.278656 0.744411 0.631512
H42_2 H 0.163677 0.544734 0.668212
H43_2 H 0.251193 0.541704 0.743203
H44_2 H 0.262186 0.53726 0.64391
H45_2 H 0.317257 0.699815 0.746895
H46_2 H 0.282963 0.632481 0.799028
H47_2 H 0.217572 0.701431 0.769311
S2_3 S 0.95792(9) 0.06691(7) 0.15492(10)
O4_2 O 0.5982(2) 0.1379(2) 0.2524(2)
O14_2 O 0.6645(2) 0.1170(2) 0.3686(2)
O20_3 O 0.9499(3) 0.0958(2) 0.0796(3)
C22_3 C 0.8705(3) 0.0850(3) 0.1970(3)
C23_3 C 0.8716(3) 0.0758(3) 0.2749(3)
H13_3 H 0.9190 0.0607 0.3064
C24_3 C 0.8037(3) 0.0884(3) 0.3076(3)
H14_3 H 0.8060 0.0828 0.3608
C25_3 C 0.7340(3) 0.1089(3) 0.2621(3)
C26_3 C 0.7357(4) 0.1186(3) 0.1844(4)
H15_3 H 0.6886 0.1338 0.1524
C27_3 C 0.8036(4) 0.1069(3) 0.1512(3)
H16_3 H 0.8023 0.1142 0.0984
C28_3 C 0.6595(3) 0.1222(3) 0.2965(4)
Co9_2 Co 0.59087(5) 0.15082(4) 0.44262(5)
Co3_2 Co 0.90913(5) 0.65082(4) 0.05738(5)
S1_3 S 0.96194(8) 0.27505(7) 0.23314(8)
O1_3 O 0.9848(3) 0.7454(2) 0.1717(3)
O13_3 O 0.9136(3) 0.75132(19) 0.0568(2)
O17_3 O 0.9130(2) 0.2765(2) 0.1589(2)
O18_3 O 0.9386(2) 0.23586(19) 0.2941(2)
C3_3 C 0.9959(4) 0.4671(3) 0.2467(3)
C4_3 C 0.9806(4) 0.4055(3) 0.2174(4)
H2_3 H 0.9750 0.3973 0.1643
C5_3 C 0.9734(3) 0.3556(3) 0.2687(3)
C6_3 C 0.9781(3) 0.3665(3) 0.3469(3)
H3_3 H 0.9723 0.3313 0.3802
C7_3 C 0.9913(4) 0.4284(3) 0.3740(3)
H4_3 H 0.9930 0.4371 0.4266
C15_3 C 0.9495(3) 0.7770(3) 0.1177(3)
C16_3 C 0.9498(3) 0.8486(3) 0.1249(3)
C17_3 C 0.9821(3) 0.8766(3) 0.1947(3)
C18_3 C 0.9840(3) 0.9426(3) 0.2043(3)
C19_3 C 0.9537(3) 0.9812(3) 0.1427(3)
C20_3 C 0.9224(5) 0.9557(3) 0.0738(4)
H11_3 H 0.9025 0.9834 0.0320
C21_3 C 0.9200(5) 0.8886(3) 0.0655(4)
H12_3 H 0.8972 0.8701 0.0177
H30_3 H 0.6961 0.6388 0.0082
O24_2 O 0.9018(2) 0.6379(2) 0.2476(2)
O28_2 O 0.8355(2) 0.6170(2) 0.1314(2)
S2_4 S 0.54208(9) 0.56691(7) 0.34508(10)
S3_4 S 0.11128(8) 0.01531(7) 0.45687(8)
N2_3 N 0.7588(5) 0.1240(3) 0.6447(5)
O1_4 O 0.5152(3) 0.2454(2) 0.3283(3)
O2_4 O 0.4433(2) 0.08465(19) 0.1810(2)
O6_4 O 0.4649(3) 0.1136(2) 0.3591(3)
O10_4 O 0.3018(4) 0.0388(3) 0.0646(3)
O11_4 O 0.4757(4) 0.0521(2) 0.0703(3)
O12_3 O 0.6661(3) 0.1339(2) 0.5434(3)
O13_4 O 0.5864(3) 0.25132(19) 0.4432(2)
O15_4 O 0.4956(3) 0.1024(3) 0.4836(3)
O16_4 O 0.1684(5) 0.0122(6) 0.1994(6)
O19_2 O 0.4732(3) 0.5814(2) 0.2890(3)
O20_4 O 0.5501(3) 0.5958(2) 0.4204(3)
O22_4 O 0.0670(2) 0.00323(19) 0.3823(2)
C1_4 C 0.4730(4) 0.0429(3) 0.1417(4)
H1_4 H 0.4975 0.0023 0.2863
C15_4 C 0.5505(3) 0.2770(3) 0.3823(3)
C16_4 C 0.5502(3) 0.3486(3) 0.3751(3)
C17_4 C 0.5179(3) 0.3766(3) 0.3053(3)
H9_4 H 0.4968 0.3492 0.2635
C18_4 C 0.5160(3) 0.4426(3) 0.2957(3)
H10_4 H 0.4943 0.4615 0.2478
C19_4 C 0.5463(3) 0.4812(3) 0.3573(3)
C20_4 C 0.5776(5) 0.4557(3) 0.4262(4)
H11_4 H 0.5975 0.4834 0.4680
C21_4 C 0.5800(5) 0.3886(3) 0.4345(4)
H12_4 H 0.6028 0.3701 0.4823
C22_4 C 0.6295(3) 0.5850(3) 0.3030(3)
C23_4 C 0.6284(3) 0.5758(3) 0.2251(3)
H13_4 H 0.5810 0.5607 0.1936
C24_4 C 0.6963(3) 0.5884(3) 0.1924(3)
H14_4 H 0.6940 0.5828 0.1392
C25_4 C 0.7660(3) 0.6089(3) 0.2379(3)
C26_4 C 0.7643(4) 0.6186(3) 0.3156(4)
H15_4 H 0.8114 0.6338 0.3476
C27_4 C 0.6964(4) 0.6069(3) 0.3488(3)
H16_4 H 0.6977 0.6142 0.4016
C28_4 C 0.8405(3) 0.6222(3) 0.2035(4)
C29_4 C 0.4466(3) 0.0978(3) 0.4225(4)
C30_4 C 0.3639(3) 0.0731(3) 0.4284(3)
C31_4 C 0.3493(4) 0.0424(3) 0.4962(4)
H17_4 H 0.3925 0.0349 0.5369
C32_4 C 0.2727(3) 0.0230(3) 0.5039(3)
H18_4 H 0.2636 0.0020 0.5490
C33_4 C 0.2112(3) 0.0351(2) 0.4449(3)
C34_4 C 0.2254(3) 0.0649(3) 0.3770(3)
H19_4 H 0.1822 0.0724 0.3362
C35_4 C 0.3026(3) 0.0834(3) 0.3695(3)
H20_4 H 0.3120 0.1030 0.3236
C36_4 C 0.0752(3) 0.0873(3) 0.4934(3)
C37_4 C 0.0838(3) 0.0970(3) 0.5721(3)
H21_4 H 0.1093 0.0645 0.6061
C38_4 C 0.0558(3) 0.1530(3) 0.6009(3)
H22_4 H 0.0619 0.1591 0.6544
C39_4 C 0.0192(3) 0.1997(3) 0.5518(3)
C40_4 C 0.0108(3) 0.1896(3) 0.4724(3)
C41_4 C 0.0383(3) 0.1332(3) 0.4430(3)
H24_4 H 0.0319 0.1265 0.3895
C43_4 C 0.2755(7) 0.0176(6) 0.1352(8)
H25_4 H 0.3059 0.0419 0.1790
C44_4 C 0.1901(7) 0.0285(6) 0.1320(6)
H27_4 H 0.1594 0.0017 0.0905
H28_4 H 0.1774 0.0751 0.1205
C49_3 C 0.7999(6) 0.1665(5) 0.5358(6)
H29_3 H 0.8514 0.1672 0.5708
H30_4 H 0.8039 0.1388 0.4918
H31_3 H 0.7855 0.2111 0.5184
C50_3 C 0.7299(6) 0.1364(4) 0.5812(6)
C51_3 C 0.6878(7) 0.0954(5) 0.6865(6)
H32_3 H 0.7100 0.0844 0.7396
H33_3 H 0.6463 0.1287 0.6852
H34_3 H 0.6648 0.0561 0.6596
C52_3 C 0.8334(6) 0.1267(5) 0.6919(6)
H35_3 H 0.8293 0.1105 0.7427
H36_3 H 0.8712 0.0996 0.6703
H37_3 H 0.8523 0.1721 0.6957
S1_4 S 0.53806(8) 0.77505(7) 0.26686(8)
O17_4 O 0.5870(2) 0.7765(2) 0.3411(2)
O18_4 O 0.5614(2) 0.73586(19) 0.2059(2)
O21_4 O 0.1141(2) 0.96705(18) 0.5164(2)
C2_4 C 0.4979(3) 0.9787(3) 0.1748(3)
C3_4 C 0.5041(4) 0.9671(3) 0.2533(3)
C4_4 C 0.5194(4) 0.9055(3) 0.2826(4)
H2_4 H 0.5250 0.8973 0.3357
C5_4 C 0.5266(3) 0.8556(3) 0.2313(3)
C6_4 C 0.5219(3) 0.8665(3) 0.1531(3)
H3_4 H 0.5277 0.8313 0.1198
C7_4 C 0.5087(4) 0.9284(3) 0.1260(3)
H4_4 H 0.5070 0.9371 0.0734
C8_4 C 0.4397(3) 0.7523(2) 0.2807(3)
C9_4 C 0.4230(3) 0.7411(3) 0.3549(3)
H5_4 H 0.4643 0.7462 0.3980
C10_4 C 0.3469(3) 0.7227(3) 0.3657(3)
H6_4 H 0.3365 0.7148 0.4154
C11_4 C 0.2872(3) 0.7160(2) 0.3026(3)
C12_4 C 0.3056(3) 0.7269(3) 0.2291(3)
H7_4 H 0.2646 0.7217 0.1858
C13_4 C 0.3815(3) 0.7450(3) 0.2180(3)
H8_4 H 0.3923 0.7520 0.1682
C14_4 C 0.2041(3) 0.6954(3) 0.3157(3)
H26_4 H 0.2874 0.9704 0.1434
H38_4 H 0.180626 0.964293 0.210731
O19_3 O 0.9732(3) 0.9186(2) 0.7890(3)
N1_3 N 0.7342(4) 0.8635(5) 0.1819(4)
O7_3 O 0.6792(3) 0.8740(3) 0.0578(3)
C45_3 C 0.7149(7) 0.7697(4) 0.1150(8)
C46_3 C 0.7073(7) 0.8466(5) 0.1165(5)
C47_3 C 0.7273(9) 0.9407(5) 0.1845(9)
C48_3 C 0.7648(6) 0.8305(7) 0.2535(5)
H39_3 H 0.680203 0.747884 0.155885
H40_3 H 0.691196 0.751435 0.0565458
H41_3 H 0.778656 0.755589 0.131512
H42_3 H 0.663677 0.955266 0.168212
H43_3 H 0.751193 0.958296 0.243203
H44_3 H 0.762186 0.96274 0.14391
H45_3 H 0.817257 0.800185 0.246895
H46_3 H 0.782963 0.867519 0.299028
H47_3 H 0.717572 0.798569 0.269311
O19_4 O 0.0268(3) 0.0814(2) 0.2110(3)
N2_4 N 0.7412(5) 0.6240(3) 0.8553(5)
O12_4 O 0.8339(3) 0.6339(2) 0.9566(3)
C49_4 C 0.7001(6) 0.6665(5) 0.9642(6)
H29_4 H 0.6486 0.6672 0.9292
H31_4 H 0.7145 0.7111 0.9816
C50_4 C 0.7701(6) 0.6364(4) 0.9188(6)
C51_4 C 0.8122(7) 0.5954(5) 0.8135(6)
H32_4 H 0.7900 0.5844 0.7604
H33_4 H 0.8537 0.6287 0.8148
H34_4 H 0.8352 0.5561 0.8404
C52_4 C 0.6666(6) 0.6267(5) 0.8081(6)
H35_4 H 0.6707 0.6105 0.7573
H36_4 H 0.6288 0.5996 0.8297
H37_4 H 0.6477 0.6721 0.8043
N1_4 N 0.2658(4) 0.1365(5) 0.8181(4)
O7_4 O 0.3208(3) 0.1260(3) 0.9422(3)
C45_4 C 0.2851(7) 0.2303(4) 0.8850(8)
C46_4 C 0.2927(7) 0.1534(5) 0.8835(5)
C47_4 C 0.2727(9) 0.0593(5) 0.8155(9)
C48_4 C 0.2352(6) 0.1695(7) 0.7465(5)
H39_4 H 0.319797 0.252116 0.844115
H40_4 H 0.308804 0.248565 0.943454
H41_4 H 0.221344 0.244411 0.868488
H42_4 H 0.336323 0.0447342 0.831788
H43_4 H 0.248807 0.0417044 0.756797
H44_4 H 0.237814 0.0372597 0.85609
H45_4 H 0.182743 0.199815 0.753105
H46_4 H 0.217037 0.132481 0.700972
H47_4 H 0.282428 0.201431 0.730689
loop_
_geom_bond_atom_site_label_1
_geom_bond_atom_site_label_2
_geom_bond_site_symmetry_1
_geom_bond_site_symmetry_2
N2 C50 1_555 1_555
C49 H29 1_555 1_555
H31 C49 1_555 1_555
C50 O12 1_555 1_555
C51 N2 1_555 1_555
H32 C51 1_555 1_555
H33 C51 1_555 1_555
H34 C51 1_555 1_555
C52 N2 1_555 1_555
H35 C52 1_555 1_555
H36 C52 1_555 1_555
H37 C52 1_555 1_555
C49 C50 1_555 1_555
S1 O17 1_555 1_555
O1 C15 1_555 1_555
O13 Co3 1_555 1_555
O18 S1 1_555 1_555
C4 C3 1_555 1_555
H2 C4 1_555 1_555
C5 S1 1_555 1_555
C6 C5 1_555 1_555
H3 C6 1_555 1_555
H4 C7 1_555 1_555
C15 O13 1_555 1_555
C16 C15 1_555 1_555
C17 C16 1_555 1_555
C18 C17 1_555 1_555
C20 C19 1_555 1_555
H11 C20 1_555 1_555
C21 C16 1_555 1_555
H12 C21 1_555 1_555
O28 Co3 1_555 1_555
C4 C5 1_555 1_555
C6 C7 1_555 1_555
C18 C19 1_555 1_555
C20 C21 1_555 1_555
O4 C28 1_555 1_555
O14 C28 1_555 1_555
O20 S2 1_555 1_555
C22 S2 1_555 1_555
C23 C22 1_555 1_555
H13 C23 1_555 1_555
C24 C23 1_555 1_555
H14 C24 1_555 1_555
C25 C24 1_555 1_555
C26 C25 1_555 1_555
H15 C26 1_555 1_555
C27 C22 1_555 1_555
H16 C27 1_555 1_555
C28 C25 1_555 1_555
Co5 O4 1_555 1_555
Co9 O14 1_555 1_555
C26 C27 1_555 1_555
Co2 O2 1_555 1_555
N1 C46 1_555 1_555
O2 Co1 1_555 1_555
O5 C14 1_555 1_555
O6 Co1 1_555 1_555
O7 Co2 1_555 1_555
O9 C14 1_555 1_555
O10 Co2 1_555 1_555
O11 Co2 1_555 1_555
O16 C44 1_555 1_555
O22 S3 1_555 1_555
C1 O2 1_555 1_555
C2 C1 1_555 1_555
C9 C8 1_555 1_555
H5 C9 1_555 1_555
C10 C9 1_555 1_555
H6 C10 1_555 1_555
C11 C10 1_555 1_555
C12 C11 1_555 1_555
H7 C12 1_555 1_555
C13 C8 1_555 1_555
H8 C13 1_555 1_555
C14 C11 1_555 1_555
C29 O6 1_555 1_555
C30 C29 1_555 1_555
C31 C30 1_555 1_555
C33 S3 1_555 1_555
C34 C33 1_555 1_555
H19 C34 1_555 1_555
C35 C30 1_555 1_555
H20 C35 1_555 1_555
C36 S3 1_555 1_555
H23 C40 1_555 1_555
C41 C36 1_555 1_555
H24 C41 1_555 1_555
C43 O10 1_555 1_555
H25 C43 1_555 1_555
H26 C43 1_555 1_555
C44 C43 1_555 1_555
H27 C44 1_555 1_555
H28 C44 1_555 1_555
C45 C46 1_555 1_555
C46 O7 1_555 1_555
C47 N1 1_555 1_555
C48 N1 1_555 1_555
Co5 O5 1_555 1_555
Co7 O9 1_555 1_555
O23 Co1 1_555 1_555
O25 Co1 1_555 1_555
O26 Co2 1_555 1_555
O27 Co2 1_555 1_555
O11 C1 1_555 1_555
O15 C29 1_555 1_555
C12 C13 1_555 1_555
C34 C35 1_555 1_555
C40 C41 1_555 1_555
O16 H38 1_555 1_555
C45 H39 1_555 1_555
C45 H40 1_555 1_555
C45 H41 1_555 1_555
C47 H42 1_555 1_555
C47 H43 1_555 1_555
C47 H44 1_555 1_555
C48 H45 1_555 1_555
C48 H46 1_555 1_555
C48 H47 1_555 1_555
S1_2 O17_2 1_555 1_555
O25 C14_2 1_555 1_555
O27 C14_2 1_555 1_555
O18_2 S1_2 1_555 1_555
C3_2 C2_2 1_555 1_555
C4_2 C3_2 1_555 1_555
H2_2 C4_2 1_555 1_555
C5_2 S1_2 1_555 1_555
C6_2 C5_2 1_555 1_555
H3_2 C6_2 1_555 1_555
C7_2 C2_2 1_555 1_555
H4_2 C7_2 1_555 1_555
C8_2 S1_2 1_555 1_555
C9_2 C8_2 1_555 1_555
H5_2 C9_2 1_555 1_555
C10_2 C9_2 1_555 1_555
H6_2 C10_2 1_555 1_555
C11_2 C10_2 1_555 1_555
C12_2 C11_2 1_555 1_555
H7_2 C12_2 1_555 1_555
C13_2 C8_2 1_555 1_555
H8_2 C13_2 1_555 1_555
C14_2 C11_2 1_555 1_555
C4_2 C5_2 1_555 1_555
C6_2 C7_2 1_555 1_555
C12_2 C13_2 1_555 1_555
Co5 O1_2 1_555 1_555
Co7 O2_2 1_555 1_555
Co9 O6_2 1_555 1_555
S2_2 O19 1_555 1_555
N2_2 C50_2 1_555 1_555
O1_2 C15_2 1_555 1_555
O2_2 Co5 1_555 1_555
O24 C28_2 1_555 1_555
O6_2 Co5 1_555 1_555
O10_2 Co7 1_555 1_555
O11_2 Co7 1_555 1_555
O12_2 Co9 1_555 1_555
O13_2 Co9 1_555 1_555
O28 C28_2 1_555 1_555
O15_2 Co9 1_555 1_555
O16_2 C44_2 1_555 1_555
O20_2 S2_2 1_555 1_555
O22_2 S3_2 1_555 1_555
C1_2 O2_2 1_555 1_555
C15_2 O13_2 1_555 1_555
C16_2 C15_2 1_555 1_555
C17_2 C16_2 1_555 1_555
H9_2 C17_2 1_555 1_555
C18_2 C17_2 1_555 1_555
H10_2 C18_2 1_555 1_555
C19_2 S2_2 1_555 1_555
C20_2 C19_2 1_555 1_555
H11_2 C20_2 1_555 1_555
C21_2 C16_2 1_555 1_555
H12_2 C21_2 1_555 1_555
C22_2 S2_2 1_555 1_555
C23_2 C22_2 1_555 1_555
H13_2 C23_2 1_555 1_555
C24_2 C23_2 1_555 1_555
H14_2 C24_2 1_555 1_555
C25_2 C24_2 1_555 1_555
C26_2 C25_2 1_555 1_555
H15_2 C26_2 1_555 1_555
C27_2 C22_2 1_555 1_555
H16_2 C27_2 1_555 1_555
C28_2 C25_2 1_555 1_555
C29_2 O6_2 1_555 1_555
C30_2 C29_2 1_555 1_555
C31_2 C30_2 1_555 1_555
H17 C31_2 1_555 1_555
C32 C31_2 1_555 1_555
H18 C32 1_555 1_555
C33_2 S3_2 1_555 1_555
C34_2 C33_2 1_555 1_555
H19_2 C34_2 1_555 1_555
C35_2 C30_2 1_555 1_555
H20_2 C35_2 1_555 1_555
C36_2 S3_2 1_555 1_555
C37 C36_2 1_555 1_555
H21 C37 1_555 1_555
C38 C37 1_555 1_555
H22 C38 1_555 1_555
C39 C38 1_555 1_555
C40_2 C39 1_555 1_555
C41_2 C36_2 1_555 1_555
H24_2 C41_2 1_555 1_555
C43_2 O10_2 1_555 1_555
H25_2 C43_2 1_555 1_555
C44_2 C43_2 1_555 1_555
H27_2 C44_2 1_555 1_555
H28_2 C44_2 1_555 1_555
C49_2 H29_2 1_555 1_555
H30_2 C49_2 1_555 1_555
H31_2 C49_2 1_555 1_555
C50_2 O12_2 1_555 1_555
C51_2 N2_2 1_555 1_555
H32_2 C51_2 1_555 1_555
H33_2 C51_2 1_555 1_555
H34_2 C51_2 1_555 1_555
C52_2 N2_2 1_555 1_555
H35_2 C52_2 1_555 1_555
H36_2 C52_2 1_555 1_555
H37_2 C52_2 1_555 1_555
O23_2 Co5 1_555 1_555
O26_2 Co7 1_555 1_555
O11_2 C1_2 1_555 1_555
O15_2 C29_2 1_555 1_555
C18_2 C19_2 1_555 1_555
C20_2 C21_2 1_555 1_555
C26_2 C27_2 1_555 1_555
C32 C33_2 1_555 1_555
C34_2 C35_2 1_555 1_555
C40_2 C41_2 1_555 1_555
C49_2 C50_2 1_555 1_555
O23_2 C42 1_555 1_555
O26_2 C42 1_555 1_555
H18_2 C32_2 1_555 1_555
H21_2 C37_2 1_555 1_555
C38_2 C37_2 1_555 1_555
H22_2 C38_2 1_555 1_555
C39_2 C38_2 1_555 1_555
C42 C39_2 1_555 1_555
O23 C42_2 1_555 1_555
O26 C42_2 1_555 1_555
O3 C42_3 1_555 1_555
O8 C42_3 1_555 1_555
H18_3 C32_3 1_555 1_555
H21_3 C37_3 1_555 1_555
C38_3 C37_3 1_555 1_555
H22_3 C38_3 1_555 1_555
C39_3 C38_3 1_555 1_555
C42_3 C39_3 1_555 1_555
Co6 O3 1_555 1_555
Co8 O8 1_555 1_555
O3_2 C42_4 1_555 1_555
O8_2 C42_4 1_555 1_555
Co6_2 O3_2 1_555 1_555
Co8_2 O8_2 1_555 1_555
Co8_2 O2_3 1_555 1_555
N1_2 C46_2 1_555 1_555
O2_3 Co6_2 1_555 1_555
O5_2 C14_3 1_555 1_555
O6_3 Co6_2 1_555 1_555
O7_2 Co8_2 1_555 1_555
O9_2 C14_3 1_555 1_555
O10_3 Co8_2 1_555 1_555
O11_3 Co8_2 1_555 1_555
O16_3 C44_3 1_555 1_555
O22_3 S3_3 1_555 1_555
C1_3 O2_3 1_555 1_555
C2_3 C1_3 1_555 1_555
C9_3 C8_3 1_555 1_555
H5_3 C9_3 1_555 1_555
C10_3 C9_3 1_555 1_555
H6_3 C10_3 1_555 1_555
C11_3 C10_3 1_555 1_555
C12_3 C11_3 1_555 1_555
H7_3 C12_3 1_555 1_555
C13_3 C8_3 1_555 1_555
H8_3 C13_3 1_555 1_555
C14_3 C11_3 1_555 1_555
C29_3 O6_3 1_555 1_555
C30_3 C29_3 1_555 1_555
C31_3 C30_3 1_555 1_555
C33_3 S3_3 1_555 1_555
C34_3 C33_3 1_555 1_555
H19_3 C34_3 1_555 1_555
C35_3 C30_3 1_555 1_555
H20_3 C35_3 1_555 1_555
C36_3 S3_3 1_555 1_555
H23_4 C40_3 1_555 1_555
C41_3 C36_3 1_555 1_555
H24_3 C41_3 1_555 1_555
C43_3 O10_3 1_555 1_555
H25_3 C43_3 1_555 1_555
H26_3 C43_3 1_555 1_555
C44_3 C43_3 1_555 1_555
H27_3 C44_3 1_555 1_555
H28_3 C44_3 1_555 1_555
C45_2 C46_2 1_555 1_555
C46_2 O7_2 1_555 1_555
C47_2 N1_2 1_555 1_555
C48_2 N1_2 1_555 1_555
Co6 O5_2 1_555 1_555
Co8 O9_2 1_555 1_555
O25_2 Co6_2 1_555 1_555
O27_2 Co8_2 1_555 1_555
O11_3 C1_3 1_555 1_555
O15_3 C29_3 1_555 1_555
C12_3 C13_3 1_555 1_555
C34_3 C35_3 1_555 1_555
C40_3 C41_3 1_555 1_555
O16_3 H38_3 1_555 1_555
C45_2 H39_2 1_555 1_555
C45_2 H40_2 1_555 1_555
C45_2 H41_2 1_555 1_555
C47_2 H42_2 1_555 1_555
C47_2 H43_2 1_555 1_555
C47_2 H44_2 1_555 1_555
C48_2 H45_2 1_555 1_555
C48_2 H46_2 1_555 1_555
C48_2 H47_2 1_555 1_555
O4_2 C28_3 1_555 1_555
O14_2 C28_3 1_555 1_555
O20_3 S2_3 1_555 1_555
C22_3 S2_3 1_555 1_555
C23_3 C22_3 1_555 1_555
H13_3 C23_3 1_555 1_555
C24_3 C23_3 1_555 1_555
H14_3 C24_3 1_555 1_555
C25_3 C24_3 1_555 1_555
C26_3 C25_3 1_555 1_555
H15_3 C26_3 1_555 1_555
C27_3 C22_3 1_555 1_555
H16_3 C27_3 1_555 1_555
C28_3 C25_3 1_555 1_555
Co6 O4_2 1_555 1_555
Co9_2 O14_2 1_555 1_555
C26_3 C27_3 1_555 1_555
S1_3 O17_3 1_555 1_555
O1_3 C15_3 1_555 1_555
O13_3 Co3_2 1_555 1_555
O18_3 S1_3 1_555 1_555
C4_3 C3_3 1_555 1_555
H2_3 C4_3 1_555 1_555
C5_3 S1_3 1_555 1_555
C6_3 C5_3 1_555 1_555
H3_3 C6_3 1_555 1_555
H4_3 C7_3 1_555 1_555
C15_3 O13_3 1_555 1_555
C16_3 C15_3 1_555 1_555
C17_3 C16_3 1_555 1_555
C18_3 C17_3 1_555 1_555
C20_3 C19_3 1_555 1_555
H11_3 C20_3 1_555 1_555
C21_3 C16_3 1_555 1_555
H12_3 C21_3 1_555 1_555
O28_2 Co3_2 1_555 1_555
C4_3 C5_3 1_555 1_555
C6_3 C7_3 1_555 1_555
C18_3 C19_3 1_555 1_555
C20_3 C21_3 1_555 1_555
Co6 O1_4 1_555 1_555
Co8 O2_4 1_555 1_555
Co9_2 O6_4 1_555 1_555
S2_4 O19_2 1_555 1_555
N2_3 C50_3 1_555 1_555
O1_4 C15_4 1_555 1_555
O2_4 Co6 1_555 1_555
O24_2 C28_4 1_555 1_555
O6_4 Co6 1_555 1_555
O10_4 Co8 1_555 1_555
O11_4 Co8 1_555 1_555
O12_3 Co9_2 1_555 1_555
O13_4 Co9_2 1_555 1_555
O28_2 C28_4 1_555 1_555
O15_4 Co9_2 1_555 1_555
O16_4 C44_4 1_555 1_555
O20_4 S2_4 1_555 1_555
O22_4 S3_4 1_555 1_555
C1_4 O2_4 1_555 1_555
C15_4 O13_4 1_555 1_555
C16_4 C15_4 1_555 1_555
C17_4 C16_4 1_555 1_555
H9_4 C17_4 1_555 1_555
C18_4 C17_4 1_555 1_555
H10_4 C18_4 1_555 1_555
C19_4 S2_4 1_555 1_555
C20_4 C19_4 1_555 1_555
H11_4 C20_4 1_555 1_555
C21_4 C16_4 1_555 1_555
H12_4 C21_4 1_555 1_555
C22_4 S2_4 1_555 1_555
C23_4 C22_4 1_555 1_555
H13_4 C23_4 1_555 1_555
C24_4 C23_4 1_555 1_555
H14_4 C24_4 1_555 1_555
C25_4 C24_4 1_555 1_555
C26_4 C25_4 1_555 1_555
H15_4 C26_4 1_555 1_555
C27_4 C22_4 1_555 1_555
H16_4 C27_4 1_555 1_555
C28_4 C25_4 1_555 1_555
C29_4 O6_4 1_555 1_555
C30_4 C29_4 1_555 1_555
C31_4 C30_4 1_555 1_555
H17_4 C31_4 1_555 1_555
C32_4 C31_4 1_555 1_555
H18_4 C32_4 1_555 1_555
C33_4 S3_4 1_555 1_555
C34_4 C33_4 1_555 1_555
H19_4 C34_4 1_555 1_555
C35_4 C30_4 1_555 1_555
H20_4 C35_4 1_555 1_555
C36_4 S3_4 1_555 1_555
C37_4 C36_4 1_555 1_555
H21_4 C37_4 1_555 1_555
C38_4 C37_4 1_555 1_555
H22_4 C38_4 1_555 1_555
C39_4 C38_4 1_555 1_555
C40_4 C39_4 1_555 1_555
C41_4 C36_4 1_555 1_555
H24_4 C41_4 1_555 1_555
C43_4 O10_4 1_555 1_555
H25_4 C43_4 1_555 1_555
C44_4 C43_4 1_555 1_555
H27_4 C44_4 1_555 1_555
H28_4 C44_4 1_555 1_555
C49_3 H29_3 1_555 1_555
H30_4 C49_3 1_555 1_555
H31_3 C49_3 1_555 1_555
C50_3 O12_3 1_555 1_555
C51_3 N2_3 1_555 1_555
H32_3 C51_3 1_555 1_555
H33_3 C51_3 1_555 1_555
H34_3 C51_3 1_555 1_555
C52_3 N2_3 1_555 1_555
H35_3 C52_3 1_555 1_555
H36_3 C52_3 1_555 1_555
H37_3 C52_3 1_555 1_555
O11_4 C1_4 1_555 1_555
O15_4 C29_4 1_555 1_555
C18_4 C19_4 1_555 1_555
C20_4 C21_4 1_555 1_555
C26_4 C27_4 1_555 1_555
C32_4 C33_4 1_555 1_555
C34_4 C35_4 1_555 1_555
C40_4 C41_4 1_555 1_555
C49_3 C50_3 1_555 1_555
S1_4 O17_4 1_555 1_555
O25_2 C14_4 1_555 1_555
O27_2 C14_4 1_555 1_555
O18_4 S1_4 1_555 1_555
C3_4 C2_4 1_555 1_555
C4_4 C3_4 1_555 1_555
H2_4 C4_4 1_555 1_555
C5_4 S1_4 1_555 1_555
C6_4 C5_4 1_555 1_555
H3_4 C6_4 1_555 1_555
C7_4 C2_4 1_555 1_555
H4_4 C7_4 1_555 1_555
C8_4 S1_4 1_555 1_555
C9_4 C8_4 1_555 1_555
H5_4 C9_4 1_555 1_555
C10_4 C9_4 1_555 1_555
H6_4 C10_4 1_555 1_555
C11_4 C10_4 1_555 1_555
C12_4 C11_4 1_555 1_555
H7_4 C12_4 1_555 1_555
C13_4 C8_4 1_555 1_555
H8_4 C13_4 1_555 1_555
C14_4 C11_4 1_555 1_555
C4_4 C5_4 1_555 1_555
C6_4 C7_4 1_555 1_555
C12_4 C13_4 1_555 1_555
N1_3 C46_3 1_555 1_555
C45_3 C46_3 1_555 1_555
C46_3 O7_3 1_555 1_555
C47_3 N1_3 1_555 1_555
C48_3 N1_3 1_555 1_555
C45_3 H39_3 1_555 1_555
C45_3 H40_3 1_555 1_555
C45_3 H41_3 1_555 1_555
C47_3 H42_3 1_555 1_555
C47_3 H43_3 1_555 1_555
C47_3 H44_3 1_555 1_555
C48_3 H45_3 1_555 1_555
C48_3 H46_3 1_555 1_555
C48_3 H47_3 1_555 1_555
N2_4 C50_4 1_555 1_555
C49_4 H29_4 1_555 1_555
H31_4 C49_4 1_555 1_555
C50_4 O12_4 1_555 1_555
C51_4 N2_4 1_555 1_555
H32_4 C51_4 1_555 1_555
H33_4 C51_4 1_555 1_555
H34_4 C51_4 1_555 1_555
C52_4 N2_4 1_555 1_555
H35_4 C52_4 1_555 1_555
H36_4 C52_4 1_555 1_555
H37_4 C52_4 1_555 1_555
C49_4 C50_4 1_555 1_555
N1_4 C46_4 1_555 1_555
C45_4 C46_4 1_555 1_555
C46_4 O7_4 1_555 1_555
C47_4 N1_4 1_555 1_555
C48_4 N1_4 1_555 1_555
C45_4 H39_4 1_555 1_555
C45_4 H40_4 1_555 1_555
C45_4 H41_4 1_555 1_555
C47_4 H42_4 1_555 1_555
C47_4 H43_4 1_555 1_555
C47_4 H44_4 1_555 1_555
C48_4 H45_4 1_555 1_555
C48_4 H46_4 1_555 1_555
C48_4 H47_4 1_555 1_555

#END
