
###############################################################################
#
# This file contains modified crystal structure data generated from the
# MOF subset of the Cambridge Structural Database (CSD) v543 
# hosted by the Cambridge Crystallographic Data Centre (CCDC).
#
# This work is licensed under the Creative Commons
# Attribution-NonCommercial-ShareAlike 4.0 International License.
# To view a copy of this license, visit
# http://creativecommons.org/licenses/by-nc-sa/4.0/
# or send a letter to
# Creative Commons, PO Box 1866, Mountain View, CA 94042, USA.
#
# CIF created using the CSD Python API on 29 September 2022
# The structure has been converted into the P1 space group
# The structure has a 3D framework
# The original CSD entry COWSAJ is in the tetragonal crystal system
# The framework has been calculated to contain at least 10.0% void space
# The void calculation uses a probe of radius 1.32A, grid spacing 0.4
#
###############################################################################

data_COWSAJ
_chemical_formula_moiety         '(C96 Ag20 F144 N82)n'
_symmetry_cell_setting           triclinic
_symmetry_space_group_name_H-M   'P 1'
_symmetry_Int_Tables_number      1
_space_group_name_Hall           'P 1'
loop_
_symmetry_equiv_pos_site_id
_symmetry_equiv_pos_as_xyz
1 x,y,z
_cell_length_a                   12.950(4)
_cell_length_b                   12.950(4)
_cell_length_c                   40.69(2)
_cell_angle_alpha                90
_cell_angle_beta                 90
_cell_angle_gamma                90
_cell_volume                     6823.81
loop_
_atom_site_label
_atom_site_type_symbol
_atom_site_fract_x
_atom_site_fract_y
_atom_site_fract_z
Ag1 Ag 0.0000 0.5000 0.398176(7)
Ag2 Ag 0.119397(18) 0.355315(17) 0.254902(5)
N1 N 0.0000 0.5000 0.34403(8)
N3 N 0.13308(18) 0.4913(2) 0.43565(5)
N4 N 0.2386(2) 0.5374(2) 0.47651(6)
N5 N 0.25928(19) 0.43668(19) 0.46873(6)
C3 C 0.1640(2) 0.5652(2) 0.45632(7)
C4 C 0.1953(2) 0.4132(2) 0.44470(7)
C5 C 0.1983(3) 0.3085(3) 0.42895(10)
C6 C 0.1172(3) 0.6718(3) 0.45695(10)
F4 F 0.28879(19) 0.2880(2) 0.41653(9)
F5 F 0.1818(3) 0.2338(2) 0.45098(8)
F6 F 0.1271(2) 0.2979(2) 0.40628(7)
F7 F 0.0994(3) 0.7064(2) 0.42701(6)
F8 F 0.0246(2) 0.6696(2) 0.47223(8)
F9 F 0.1750(2) 0.73847(18) 0.47264(8)
Ag5 Ag 0.355315(17) 0.619397(18) 0.504902(5)
Ag6 Ag 0.380603(18) 0.355315(17) 0.495098(5)
Ag7 Ag 0.144685(17) 0.619397(18) 0.245098(5)
N6 N 0.0184(2) 0.5496(2) 0.29152(6)
N7 N 0.0496(2) 0.4816(2) 0.20848(6)
N11 N 0.0374(2) 0.2386(2) 0.22651(6)
N14 N 0.24072(19) 0.43668(19) 0.28127(6)
C7 C 0.0282(2) 0.5746(2) 0.32287(7)
C8 C 0.0720(3) 0.6760(3) 0.33405(7)
F10 F 0.16777(19) 0.6645(2) 0.34511(9)
F11 F 0.0177(2) 0.71775(17) 0.35802(5)
F12 F 0.0772(3) 0.74280(19) 0.30956(5)
Ag1_2 Ag 1.0000 0.5000 0.398176(7)
N1_2 N 1.0000 0.5000 0.34403(8)
N2 N 0.9816(2) 0.4504(2) 0.29152(6)
C1 C 0.9718(2) 0.4254(2) 0.32287(7)
C2 C 0.9280(3) 0.3240(3) 0.33405(7)
F1 F 0.83223(19) 0.3355(2) 0.34511(9)
F2 F 0.9823(2) 0.28225(17) 0.35802(5)
F3 F 0.9228(3) 0.25720(19) 0.30956(5)
Ag3 Ag 0.880603(18) 0.644685(17) 0.254902(5)
Ag4 Ag 0.855315(17) 0.380603(18) 0.245098(5)
Ag8 Ag 0.644685(17) 0.380603(18) 0.504902(5)
Ag9 Ag 0.619397(18) 0.644685(17) 0.495098(5)
N8 N 0.9504(2) 0.5184(2) 0.20848(6)
N9 N 0.86692(18) 0.5087(2) 0.43565(5)
N10 N 0.7614(2) 0.4626(2) 0.47651(6)
N12 N 0.9626(2) 0.7614(2) 0.22651(6)
N13 N 0.74072(19) 0.56332(19) 0.46873(6)
N15 N 0.75928(19) 0.56332(19) 0.28127(6)
C9 C 0.8360(2) 0.4348(2) 0.45632(7)
C10 C 0.8047(2) 0.5868(2) 0.44470(7)
C11 C 0.8017(3) 0.6915(3) 0.42895(10)
C12 C 0.8828(3) 0.3282(3) 0.45695(10)
F13 F 0.71121(19) 0.7120(2) 0.41653(9)
F14 F 0.8182(3) 0.7662(2) 0.45098(8)
F15 F 0.8729(2) 0.7021(2) 0.40628(7)
F16 F 0.9006(3) 0.2936(2) 0.42701(6)
F17 F 0.9754(2) 0.3304(2) 0.47223(8)
F18 F 0.8250(2) 0.26153(18) 0.47264(8)
Ag1_3 Ag 0.5000 0.0000 0.601824(7)
N1_3 N 0.5000 0.0000 0.65597(8)
N2_2 N 0.4504(2) 0.0184(2) 0.70848(6)
C1_2 C 0.4254(2) 0.0282(2) 0.67713(7)
C2_2 C 0.3240(3) 0.0720(3) 0.66595(7)
F1_2 F 0.3355(2) 0.16777(19) 0.65489(9)
F2_2 F 0.28225(17) 0.0177(2) 0.64198(5)
F3_2 F 0.25720(19) 0.0772(3) 0.69044(5)
Ag3_2 Ag 0.644685(17) 0.119397(18) 0.745098(5)
Ag4_2 Ag 0.380603(18) 0.144685(17) 0.754902(5)
N8_2 N 0.5184(2) 0.0496(2) 0.79152(6)
N9_2 N 0.5087(2) 0.13308(18) 0.56435(5)
N10_2 N 0.4626(2) 0.2386(2) 0.52349(6)
N12_2 N 0.7614(2) 0.0374(2) 0.77349(6)
N13_2 N 0.56332(19) 0.25928(19) 0.53127(6)
N15_2 N 0.56332(19) 0.24072(19) 0.71873(6)
C9_2 C 0.4348(2) 0.1640(2) 0.54368(7)
C10_2 C 0.5868(2) 0.1953(2) 0.55530(7)
C11_2 C 0.6915(3) 0.1983(3) 0.57105(10)
C12_2 C 0.3282(3) 0.1172(3) 0.54305(10)
F13_2 F 0.7120(2) 0.28879(19) 0.58347(9)
F14_2 F 0.7662(2) 0.1818(3) 0.54902(8)
F15_2 F 0.7021(2) 0.1271(2) 0.59372(7)
F16_2 F 0.2936(2) 0.0994(3) 0.57299(6)
F17_2 F 0.3304(2) 0.0246(2) 0.52777(8)
F18_2 F 0.26153(18) 0.1750(2) 0.52736(8)
Ag1_4 Ag 0.5000 1.0000 0.601824(7)
Ag2_2 Ag 0.355315(17) 0.880603(18) 0.745098(5)
N1_4 N 0.5000 1.0000 0.65597(8)
N3_2 N 0.4913(2) 0.86692(18) 0.56435(5)
N4_2 N 0.5374(2) 0.7614(2) 0.52349(6)
N5_2 N 0.43668(19) 0.74072(19) 0.53127(6)
C3_2 C 0.5652(2) 0.8360(2) 0.54368(7)
C4_2 C 0.4132(2) 0.8047(2) 0.55530(7)
C5_2 C 0.3085(3) 0.8017(3) 0.57105(10)
C6_2 C 0.6718(3) 0.8828(3) 0.54305(10)
F4_2 F 0.2880(2) 0.71121(19) 0.58347(9)
F5_2 F 0.2338(2) 0.8182(3) 0.54902(8)
F6_2 F 0.2979(2) 0.8729(2) 0.59372(7)
F7_2 F 0.7064(2) 0.9006(3) 0.57299(6)
F8_2 F 0.6696(2) 0.9754(2) 0.52777(8)
F9_2 F 0.73847(18) 0.8250(2) 0.52736(8)
Ag7_2 Ag 0.619397(18) 0.855315(17) 0.754902(5)
N6_2 N 0.5496(2) 0.9816(2) 0.70848(6)
N7_2 N 0.4816(2) 0.9504(2) 0.79152(6)
N11_2 N 0.2386(2) 0.9626(2) 0.77349(6)
N14_2 N 0.43668(19) 0.75928(19) 0.71873(6)
C7_2 C 0.5746(2) 0.9718(2) 0.67713(7)
C8_2 C 0.6760(3) 0.9280(3) 0.66595(7)
F10_2 F 0.6645(2) 0.83223(19) 0.65489(9)
F11_2 F 0.71775(17) 0.9823(2) 0.64198(5)
F12_2 F 0.74280(19) 0.9228(3) 0.69044(5)
Ag1_5 Ag 0.5000 0.5000 0.351824(7)
N1_5 N 0.5000 0.5000 0.40597(8)
N2_3 N 0.5184(2) 0.4504(2) 0.45848(6)
N3_3 N 0.36692(18) 0.4913(2) 0.31435(5)
N4_3 N 0.2614(2) 0.5374(2) 0.27349(6)
C1_3 C 0.5282(2) 0.4254(2) 0.42713(7)
C2_3 C 0.5720(3) 0.3240(3) 0.41595(7)
C3_3 C 0.3360(2) 0.5652(2) 0.29368(7)
C4_3 C 0.3047(2) 0.4132(2) 0.30530(7)
C5_3 C 0.3017(3) 0.3085(3) 0.32105(10)
C6_3 C 0.3828(3) 0.6718(3) 0.29305(10)
F1_3 F 0.66777(19) 0.3355(2) 0.40489(9)
F2_3 F 0.5177(2) 0.28225(17) 0.39198(5)
F3_3 F 0.5772(3) 0.25720(19) 0.44044(5)
F4_3 F 0.21121(19) 0.2880(2) 0.33347(9)
F5_3 F 0.3182(3) 0.2338(2) 0.29902(8)
F6_3 F 0.3729(2) 0.2979(2) 0.34372(7)
F7_3 F 0.4006(3) 0.7064(2) 0.32299(6)
F8_3 F 0.4754(2) 0.6696(2) 0.27777(8)
F9_3 F 0.3250(2) 0.73847(18) 0.27736(8)
N6_3 N 0.4816(2) 0.5496(2) 0.45848(6)
N7_3 N 0.4504(2) 0.4816(2) 0.54152(6)
N8_3 N 0.5496(2) 0.5184(2) 0.54152(6)
N9_3 N 0.63308(18) 0.5087(2) 0.31435(5)
N10_3 N 0.7386(2) 0.4626(2) 0.27349(6)
C7_3 C 0.4718(2) 0.5746(2) 0.42713(7)
C8_3 C 0.4280(3) 0.6760(3) 0.41595(7)
C9_3 C 0.6640(2) 0.4348(2) 0.29368(7)
C10_3 C 0.6953(2) 0.5868(2) 0.30530(7)
C11_3 C 0.6983(3) 0.6915(3) 0.32105(10)
C12_3 C 0.6172(3) 0.3282(3) 0.29305(10)
F10_3 F 0.33223(19) 0.6645(2) 0.40489(9)
F11_3 F 0.4823(2) 0.71775(17) 0.39198(5)
F12_3 F 0.4228(3) 0.74280(19) 0.44044(5)
F13_3 F 0.78879(19) 0.7120(2) 0.33347(9)
F14_3 F 0.6818(3) 0.7662(2) 0.29902(8)
F15_3 F 0.6271(2) 0.7021(2) 0.34372(7)
F16_3 F 0.5994(3) 0.2936(2) 0.32299(6)
F17_3 F 0.5246(2) 0.3304(2) 0.27777(8)
F18_3 F 0.6750(2) 0.26153(18) 0.27736(8)
Ag1_6 Ag 0.0000 0.0000 0.148176(7)
N1_6 N 0.0000 0.0000 0.09403(8)
N2_4 N 0.0496(2) 0.0184(2) 0.04152(6)
C1_4 C 0.0746(2) 0.0282(2) 0.07287(7)
C2_4 C 0.1760(3) 0.0720(3) 0.08405(7)
F1_4 F 0.1645(2) 0.16777(19) 0.09511(9)
F2_4 F 0.21775(17) 0.0177(2) 0.10802(5)
F3_4 F 0.24280(19) 0.0772(3) 0.05956(5)
C9_4 C 0.0652(2) 0.1640(2) 0.20632(7)
C12_4 C 0.1718(3) 0.1172(3) 0.20695(10)
F16_4 F 0.2064(2) 0.0994(3) 0.17701(6)
F17_4 F 0.1696(2) 0.0246(2) 0.22223(8)
F18_4 F 0.23847(18) 0.1750(2) 0.22264(8)
Ag4_3 Ag 0.119397(18) 0.144685(17) 0.995098(5)
Ag1_7 Ag 0.0000 1.0000 0.148176(7)
Ag2_3 Ag 0.144685(17) 0.880603(18) 0.004902(5)
N1_7 N 0.0000 1.0000 0.09403(8)
N3_4 N 0.0087(2) 0.86692(18) 0.18565(5)
N5_3 N 0.06332(19) 0.74072(19) 0.21873(6)
C4_4 C 0.0868(2) 0.8047(2) 0.19470(7)
C5_4 C 0.1915(3) 0.8017(3) 0.17895(10)
F4_4 F 0.2120(2) 0.71121(19) 0.16653(9)
F5_4 F 0.2662(2) 0.8182(3) 0.20098(8)
F6_4 F 0.2021(2) 0.8729(2) 0.15628(7)
N14_3 N 0.06332(19) 0.75928(19) 0.03127(6)
N7_4 N 0.0184(2) 0.9504(2) 0.95848(6)
N11_3 N 0.2614(2) 0.9626(2) 0.97651(6)
Ag1_8 Ag 1.0000 0.0000 0.148176(7)
N1_8 N 1.0000 0.0000 0.09403(8)
Ag3_3 Ag 0.855315(17) 0.119397(18) 0.004902(5)
N9_4 N 0.9913(2) 0.13308(18) 0.18565(5)
N13_3 N 0.93668(19) 0.25928(19) 0.21873(6)
N15_3 N 0.93668(19) 0.24072(19) 0.03127(6)
C10_4 C 0.9132(2) 0.1953(2) 0.19470(7)
C11_4 C 0.8085(3) 0.1983(3) 0.17895(10)
F13_4 F 0.7880(2) 0.28879(19) 0.16653(9)
F14_4 F 0.7338(2) 0.1818(3) 0.20098(8)
F15_4 F 0.7979(2) 0.1271(2) 0.15628(7)
N8_4 N 0.9816(2) 0.0496(2) 0.95848(6)
N12_3 N 0.7386(2) 0.0374(2) 0.97651(6)
Ag1_9 Ag 1.0000 1.0000 0.148176(7)
N1_9 N 1.0000 1.0000 0.09403(8)
C3_4 C 0.9348(2) 0.8360(2) 0.20632(7)
C6_4 C 0.8282(3) 0.8828(3) 0.20695(10)
F7_4 F 0.7936(2) 0.9006(3) 0.17701(6)
F8_4 F 0.8304(2) 0.9754(2) 0.22223(8)
F9_4 F 0.76153(18) 0.8250(2) 0.22264(8)
N6_4 N 0.9504(2) 0.9816(2) 0.04152(6)
C7_4 C 0.9254(2) 0.9718(2) 0.07287(7)
C8_4 C 0.8240(3) 0.9280(3) 0.08405(7)
F10_4 F 0.8355(2) 0.83223(19) 0.09511(9)
F11_4 F 0.78225(17) 0.9823(2) 0.10802(5)
F12_4 F 0.75720(19) 0.9228(3) 0.05956(5)
Ag7_3 Ag 0.880603(18) 0.855315(17) 0.995098(5)
Ag1_10 Ag 0.5000 0.0000 0.898176(7)
N1_10 N 0.5000 0.0000 0.84403(8)
C3_5 C 0.6640(2) 0.0652(2) 0.95632(7)
C6_5 C 0.6172(3) 0.1718(3) 0.95695(10)
F7_5 F 0.5994(3) 0.2064(2) 0.92701(6)
F8_5 F 0.5246(2) 0.1696(2) 0.97223(8)
F9_5 F 0.6750(2) 0.23847(18) 0.97264(8)
N9_5 N 0.36692(18) 0.0087(2) 0.93565(5)
N12_4 N 0.4626(2) 0.2614(2) 0.72651(6)
N13_4 N 0.24072(19) 0.06332(19) 0.96873(6)
N15_4 N 0.25928(19) 0.06332(19) 0.78127(6)
C7_5 C 0.5282(2) 0.0746(2) 0.82287(7)
C8_5 C 0.5720(3) 0.1760(3) 0.83405(7)
C10_5 C 0.3047(2) 0.0868(2) 0.94470(7)
C11_5 C 0.3017(3) 0.1915(3) 0.92895(10)
F10_5 F 0.66777(19) 0.1645(2) 0.84511(9)
F11_5 F 0.5177(2) 0.21775(17) 0.85802(5)
F12_5 F 0.5772(3) 0.24280(19) 0.80956(5)
F13_5 F 0.21121(19) 0.2120(2) 0.91653(9)
F14_5 F 0.3182(3) 0.2662(2) 0.95098(8)
F15_5 F 0.3729(2) 0.2021(2) 0.90628(7)
Ag1_11 Ag 0.5000 1.0000 0.898176(7)
N1_11 N 0.5000 1.0000 0.84403(8)
N3_5 N 0.63308(18) 0.9913(2) 0.93565(5)
N5_4 N 0.75928(19) 0.93668(19) 0.96873(6)
C1_5 C 0.4718(2) 0.9254(2) 0.82287(7)
C2_5 C 0.4280(3) 0.8240(3) 0.83405(7)
C4_5 C 0.6953(2) 0.9132(2) 0.94470(7)
C5_5 C 0.6983(3) 0.8085(3) 0.92895(10)
F1_5 F 0.33223(19) 0.8355(2) 0.84511(9)
F2_5 F 0.4823(2) 0.78225(17) 0.85802(5)
F3_5 F 0.4228(3) 0.75720(19) 0.80956(5)
F4_5 F 0.78879(19) 0.7880(2) 0.91653(9)
F5_5 F 0.6818(3) 0.7338(2) 0.95098(8)
F6_5 F 0.6271(2) 0.7979(2) 0.90628(7)
N11_4 N 0.5374(2) 0.7386(2) 0.72651(6)
N14_4 N 0.74072(19) 0.93668(19) 0.78127(6)
C9_5 C 0.3360(2) 0.9348(2) 0.95632(7)
C12_5 C 0.3828(3) 0.8282(3) 0.95695(10)
F16_5 F 0.4006(3) 0.7936(2) 0.92701(6)
F17_5 F 0.4754(2) 0.8304(2) 0.97223(8)
F18_5 F 0.3250(2) 0.76153(18) 0.97264(8)
Ag1_12 Ag 0.0000 0.5000 0.101824(7)
N1_12 N 0.0000 0.5000 0.15597(8)
N4_4 N 0.0374(2) 0.2614(2) 0.02349(6)
C3_6 C 0.0652(2) 0.3360(2) 0.04368(7)
C6_6 C 0.1718(3) 0.3828(3) 0.04305(10)
F7_6 F 0.2064(2) 0.4006(3) 0.07299(6)
F8_6 F 0.1696(2) 0.4754(2) 0.02777(8)
F9_6 F 0.23847(18) 0.3250(2) 0.02736(8)
N9_6 N 0.0087(2) 0.63308(18) 0.06435(5)
C7_6 C 0.0746(2) 0.4718(2) 0.17713(7)
C8_6 C 0.1760(3) 0.4280(3) 0.16595(7)
C10_6 C 0.0868(2) 0.6953(2) 0.05530(7)
C11_6 C 0.1915(3) 0.6983(3) 0.07105(10)
F10_6 F 0.1645(2) 0.33223(19) 0.15489(9)
F11_6 F 0.21775(17) 0.4823(2) 0.14198(5)
F12_6 F 0.24280(19) 0.4228(3) 0.19044(5)
F13_6 F 0.2120(2) 0.78879(19) 0.08347(9)
F14_6 F 0.2662(2) 0.6818(3) 0.04902(8)
F15_6 F 0.2021(2) 0.6271(2) 0.09372(7)
Ag1_13 Ag 1.0000 0.5000 0.101824(7)
N1_13 N 1.0000 0.5000 0.15597(8)
N3_6 N 0.9913(2) 0.36692(18) 0.06435(5)
C1_6 C 0.9254(2) 0.5282(2) 0.17713(7)
C2_6 C 0.8240(3) 0.5720(3) 0.16595(7)
C4_6 C 0.9132(2) 0.3047(2) 0.05530(7)
C5_6 C 0.8085(3) 0.3017(3) 0.07105(10)
F1_6 F 0.8355(2) 0.66777(19) 0.15489(9)
F2_6 F 0.78225(17) 0.5177(2) 0.14198(5)
F3_6 F 0.75720(19) 0.5772(3) 0.19044(5)
F4_6 F 0.7880(2) 0.21121(19) 0.08347(9)
F5_6 F 0.7338(2) 0.3182(3) 0.04902(8)
F6_6 F 0.7979(2) 0.3729(2) 0.09372(7)
N10_4 N 0.9626(2) 0.7386(2) 0.02349(6)
C9_6 C 0.9348(2) 0.6640(2) 0.04368(7)
C12_6 C 0.8282(3) 0.6172(3) 0.04305(10)
F16_6 F 0.7936(2) 0.5994(3) 0.07299(6)
F17_6 F 0.8304(2) 0.5246(2) 0.02777(8)
F18_6 F 0.76153(18) 0.6750(2) 0.02736(8)
Ag1_14 Ag 0.0000 0.0000 0.851824(7)
N1_14 N 0.0000 0.0000 0.90597(8)
N9_7 N 0.13308(18) 0.0087(2) 0.81435(5)
C10_7 C 0.1953(2) 0.0868(2) 0.80530(7)
C11_7 C 0.1983(3) 0.1915(3) 0.82105(10)
F13_7 F 0.28879(19) 0.2120(2) 0.83347(9)
F14_7 F 0.1818(3) 0.2662(2) 0.79902(8)
F15_7 F 0.1271(2) 0.2021(2) 0.84372(7)
Ag1_15 Ag 0.0000 1.0000 0.851824(7)
N1_15 N 0.0000 1.0000 0.90597(8)
C1_7 C 0.0282(2) 0.9254(2) 0.92713(7)
C2_7 C 0.0720(3) 0.8240(3) 0.91595(7)
F1_7 F 0.16777(19) 0.8355(2) 0.90489(9)
F2_7 F 0.0177(2) 0.78225(17) 0.89198(5)
F3_7 F 0.0772(3) 0.75720(19) 0.94044(5)
C9_7 C 0.1640(2) 0.9348(2) 0.79368(7)
C12_7 C 0.1172(3) 0.8282(3) 0.79305(10)
F16_7 F 0.0994(3) 0.7936(2) 0.82299(6)
F17_7 F 0.0246(2) 0.8304(2) 0.77777(8)
F18_7 F 0.1750(2) 0.76153(18) 0.77736(8)
Ag1_16 Ag 1.0000 0.0000 0.851824(7)
N1_16 N 1.0000 0.0000 0.90597(8)
C3_7 C 0.8360(2) 0.0652(2) 0.79368(7)
C6_7 C 0.8828(3) 0.1718(3) 0.79305(10)
F7_7 F 0.9006(3) 0.2064(2) 0.82299(6)
F8_7 F 0.9754(2) 0.1696(2) 0.77777(8)
F9_7 F 0.8250(2) 0.23847(18) 0.77736(8)
C7_7 C 0.9718(2) 0.0746(2) 0.92713(7)
C8_7 C 0.9280(3) 0.1760(3) 0.91595(7)
F10_7 F 0.83223(19) 0.1645(2) 0.90489(9)
F11_7 F 0.9823(2) 0.21775(17) 0.89198(5)
F12_7 F 0.9228(3) 0.24280(19) 0.94044(5)
Ag1_17 Ag 1.0000 1.0000 0.851824(7)
N1_17 N 1.0000 1.0000 0.90597(8)
N3_7 N 0.86692(18) 0.9913(2) 0.81435(5)
C4_7 C 0.8047(2) 0.9132(2) 0.80530(7)
C5_7 C 0.8017(3) 0.8085(3) 0.82105(10)
F4_7 F 0.71121(19) 0.7880(2) 0.83347(9)
F5_7 F 0.8182(3) 0.7338(2) 0.79902(8)
F6_7 F 0.8729(2) 0.7979(2) 0.84372(7)
Ag1_18 Ag 0.5000 0.5000 0.648176(7)
N1_18 N 0.5000 0.5000 0.59403(8)
N3_8 N 0.5087(2) 0.36692(18) 0.68565(5)
C1_8 C 0.5746(2) 0.5282(2) 0.57287(7)
C2_8 C 0.6760(3) 0.5720(3) 0.58405(7)
C3_8 C 0.4348(2) 0.3360(2) 0.70632(7)
C4_8 C 0.5868(2) 0.3047(2) 0.69470(7)
C5_8 C 0.6915(3) 0.3017(3) 0.67895(10)
C6_8 C 0.3282(3) 0.3828(3) 0.70695(10)
F1_8 F 0.6645(2) 0.66777(19) 0.59511(9)
F2_8 F 0.71775(17) 0.5177(2) 0.60802(5)
F3_8 F 0.74280(19) 0.5772(3) 0.55956(5)
F4_8 F 0.7120(2) 0.21121(19) 0.66653(9)
F5_8 F 0.7662(2) 0.3182(3) 0.70098(8)
F6_8 F 0.7021(2) 0.3729(2) 0.65628(7)
F7_8 F 0.2936(2) 0.4006(3) 0.67701(6)
F8_8 F 0.3304(2) 0.4754(2) 0.72223(8)
F9_8 F 0.26153(18) 0.3250(2) 0.72264(8)
N9_8 N 0.4913(2) 0.63308(18) 0.68565(5)
C7_8 C 0.4254(2) 0.4718(2) 0.57287(7)
C8_8 C 0.3240(3) 0.4280(3) 0.58405(7)
C9_8 C 0.5652(2) 0.6640(2) 0.70632(7)
C10_8 C 0.4132(2) 0.6953(2) 0.69470(7)
C11_8 C 0.3085(3) 0.6983(3) 0.67895(10)
C12_8 C 0.6718(3) 0.6172(3) 0.70695(10)
F10_8 F 0.3355(2) 0.33223(19) 0.59511(9)
F11_8 F 0.28225(17) 0.4823(2) 0.60802(5)
F12_8 F 0.25720(19) 0.4228(3) 0.55956(5)
F13_8 F 0.2880(2) 0.78879(19) 0.66653(9)
F14_8 F 0.2338(2) 0.6818(3) 0.70098(8)
F15_8 F 0.2979(2) 0.6271(2) 0.65628(7)
F16_8 F 0.7064(2) 0.5994(3) 0.67701(6)
F17_8 F 0.6696(2) 0.5246(2) 0.72223(8)
F18_8 F 0.73847(18) 0.6750(2) 0.72264(8)
loop_
_geom_bond_atom_site_label_1
_geom_bond_atom_site_label_2
_geom_bond_site_symmetry_1
_geom_bond_site_symmetry_2
Ag1 N1 1_555 1_555
N3 Ag1 1_555 1_555
N4 N5 1_555 1_555
N5 C4 1_555 1_555
C3 N3 1_555 1_555
C4 N3 1_555 1_555
C5 C4 1_555 1_555
C6 C3 1_555 1_555
F4 C5 1_555 1_555
F5 C5 1_555 1_555
F6 C5 1_555 1_555
F7 C6 1_555 1_555
F8 C6 1_555 1_555
F9 C6 1_555 1_555
Ag5 N4 1_555 1_555
Ag6 N5 1_555 1_555
Ag7 N6 1_555 1_555
N7 Ag2 1_555 1_555
N11 Ag2 1_555 1_555
N14 Ag2 1_555 1_555
C7 N1 1_555 1_555
C8 C7 1_555 1_555
F10 C8 1_555 1_555
F11 C8 1_555 1_555
F12 C8 1_555 1_555
N4 C3 1_555 1_555
Ag7 N7 1_555 1_555
N6 C7 1_555 1_555
Ag1_2 N1_2 1_555 1_555
N1_2 C1 1_555 1_555
N2 C1 1_555 1_555
C1 C2 1_555 1_555
C2 F1 1_555 1_555
F2 C2 1_555 1_555
F3 C2 1_555 1_555
Ag4 N2 1_555 1_555
Ag8 N10 1_555 1_555
Ag9 N13 1_555 1_555
N8 Ag3 1_555 1_555
N9 Ag1_2 1_555 1_555
N10 N13 1_555 1_555
N12 Ag3 1_555 1_555
N13 C10 1_555 1_555
N15 Ag3 1_555 1_555
C9 N9 1_555 1_555
C10 N9 1_555 1_555
C11 C10 1_555 1_555
C12 C9 1_555 1_555
F13 C11 1_555 1_555
F14 C11 1_555 1_555
F15 C11 1_555 1_555
F16 C12 1_555 1_555
F17 C12 1_555 1_555
F18 C12 1_555 1_555
Ag4 N8 1_555 1_555
N10 C9 1_555 1_555
Ag1_3 N1_3 1_555 1_555
N1_3 C1_2 1_555 1_555
N2_2 C1_2 1_555 1_555
C1_2 C2_2 1_555 1_555
C2_2 F1_2 1_555 1_555
F2_2 C2_2 1_555 1_555
F3_2 C2_2 1_555 1_555
Ag4_2 N2_2 1_555 1_555
Ag6 N10_2 1_555 1_555
Ag8 N13_2 1_555 1_555
N8_2 Ag3_2 1_555 1_555
N9_2 Ag1_3 1_555 1_555
N10_2 N13_2 1_555 1_555
N12_2 Ag3_2 1_555 1_555
N13_2 C10_2 1_555 1_555
N15_2 Ag3_2 1_555 1_555
C9_2 N9_2 1_555 1_555
C10_2 N9_2 1_555 1_555
C11_2 C10_2 1_555 1_555
C12_2 C9_2 1_555 1_555
F13_2 C11_2 1_555 1_555
F14_2 C11_2 1_555 1_555
F15_2 C11_2 1_555 1_555
F16_2 C12_2 1_555 1_555
F17_2 C12_2 1_555 1_555
F18_2 C12_2 1_555 1_555
Ag4_2 N8_2 1_555 1_555
N10_2 C9_2 1_555 1_555
Ag1_4 N1_4 1_555 1_555
N3_2 Ag1_4 1_555 1_555
N4_2 N5_2 1_555 1_555
N5_2 C4_2 1_555 1_555
C3_2 N3_2 1_555 1_555
C4_2 N3_2 1_555 1_555
C5_2 C4_2 1_555 1_555
C6_2 C3_2 1_555 1_555
F4_2 C5_2 1_555 1_555
F5_2 C5_2 1_555 1_555
F6_2 C5_2 1_555 1_555
F7_2 C6_2 1_555 1_555
F8_2 C6_2 1_555 1_555
F9_2 C6_2 1_555 1_555
Ag9 N4_2 1_555 1_555
Ag5 N5_2 1_555 1_555
Ag7_2 N6_2 1_555 1_555
N7_2 Ag2_2 1_555 1_555
N11_2 Ag2_2 1_555 1_555
N14_2 Ag2_2 1_555 1_555
C7_2 N1_4 1_555 1_555
C8_2 C7_2 1_555 1_555
F10_2 C8_2 1_555 1_555
F11_2 C8_2 1_555 1_555
F12_2 C8_2 1_555 1_555
N4_2 C3_2 1_555 1_555
Ag7_2 N7_2 1_555 1_555
N6_2 C7_2 1_555 1_555
Ag1_5 N1_5 1_555 1_555
Ag6 N2_3 1_555 1_555
N1_5 C1_3 1_555 1_555
N2_3 C1_3 1_555 1_555
N3_3 Ag1_5 1_555 1_555
N4_3 N14 1_555 1_555
N14 C4_3 1_555 1_555
C1_3 C2_3 1_555 1_555
C2_3 F1_3 1_555 1_555
C3_3 N3_3 1_555 1_555
C4_3 N3_3 1_555 1_555
C5_3 C4_3 1_555 1_555
C6_3 C3_3 1_555 1_555
F2_3 C2_3 1_555 1_555
F3_3 C2_3 1_555 1_555
F4_3 C5_3 1_555 1_555
F5_3 C5_3 1_555 1_555
F6_3 C5_3 1_555 1_555
F7_3 C6_3 1_555 1_555
F8_3 C6_3 1_555 1_555
F9_3 C6_3 1_555 1_555
Ag9 N6_3 1_555 1_555
Ag8 N2_3 1_555 1_555
Ag7 N4_3 1_555 1_555
Ag5 N6_3 1_555 1_555
Ag4 N10_3 1_555 1_555
N6_3 N2_3 1_555 1_555
N7_3 Ag6 1_555 1_555
N8_3 Ag9 1_555 1_555
N9_3 Ag1_5 1_555 1_555
N10_3 N15 1_555 1_555
N15 C10_3 1_555 1_555
C7_3 N1_5 1_555 1_555
C8_3 C7_3 1_555 1_555
C9_3 N9_3 1_555 1_555
C10_3 N9_3 1_555 1_555
C11_3 C10_3 1_555 1_555
C12_3 C9_3 1_555 1_555
F10_3 C8_3 1_555 1_555
F11_3 C8_3 1_555 1_555
F12_3 C8_3 1_555 1_555
F13_3 C11_3 1_555 1_555
F14_3 C11_3 1_555 1_555
F15_3 C11_3 1_555 1_555
F16_3 C12_3 1_555 1_555
F17_3 C12_3 1_555 1_555
F18_3 C12_3 1_555 1_555
N4_3 C3_3 1_555 1_555
Ag8 N8_3 1_555 1_555
Ag5 N7_3 1_555 1_555
N6_3 C7_3 1_555 1_555
N7_3 N8_3 1_555 1_555
N10_3 C9_3 1_555 1_555
Ag1_6 N1_6 1_555 1_555
N1_6 C1_4 1_555 1_555
N2_4 C1_4 1_555 1_555
C1_4 C2_4 1_555 1_555
C2_4 F1_4 1_555 1_555
F2_4 C2_4 1_555 1_555
F3_4 C2_4 1_555 1_555
C12_4 C9_4 1_555 1_555
F16_4 C12_4 1_555 1_555
F17_4 C12_4 1_555 1_555
F18_4 C12_4 1_555 1_555
N11 C9_4 1_555 1_555
Ag1_7 N1_7 1_555 1_555
N3_4 Ag1_7 1_555 1_555
N5_3 C4_4 1_555 1_555
C4_4 N3_4 1_555 1_555
C5_4 C4_4 1_555 1_555
F4_4 C5_4 1_555 1_555
F5_4 C5_4 1_555 1_555
F6_4 C5_4 1_555 1_555
Ag7 N5_3 1_555 1_555
N14_3 Ag2_3 1_555 1_555
Ag1_8 N1_8 1_555 1_555
Ag4 N13_3 1_555 1_555
N9_4 Ag1_8 1_555 1_555
N13_3 C10_4 1_555 1_555
N15_3 Ag3_3 1_555 1_555
C10_4 N9_4 1_555 1_555
C11_4 C10_4 1_555 1_555
F13_4 C11_4 1_555 1_555
F14_4 C11_4 1_555 1_555
F15_4 C11_4 1_555 1_555
Ag1_9 N1_9 1_555 1_555
C6_4 C3_4 1_555 1_555
F7_4 C6_4 1_555 1_555
F8_4 C6_4 1_555 1_555
F9_4 C6_4 1_555 1_555
C7_4 N1_9 1_555 1_555
C8_4 C7_4 1_555 1_555
F10_4 C8_4 1_555 1_555
F11_4 C8_4 1_555 1_555
F12_4 C8_4 1_555 1_555
N12 C3_4 1_555 1_555
N6_4 C7_4 1_555 1_555
Ag1_10 N1_10 1_555 1_555
C6_5 C3_5 1_555 1_555
F7_5 C6_5 1_555 1_555
F8_5 C6_5 1_555 1_555
F9_5 C6_5 1_555 1_555
Ag4_3 N13_4 1_555 1_555
N9_5 Ag1_10 1_555 1_555
N12_4 Ag4_2 1_555 1_555
N13_4 C10_5 1_555 1_555
N15_4 Ag4_2 1_555 1_555
C7_5 N1_10 1_555 1_555
C8_5 C7_5 1_555 1_555
C10_5 N9_5 1_555 1_555
C11_5 C10_5 1_555 1_555
F10_5 C8_5 1_555 1_555
F11_5 C8_5 1_555 1_555
F12_5 C8_5 1_555 1_555
F13_5 C11_5 1_555 1_555
F14_5 C11_5 1_555 1_555
F15_5 C11_5 1_555 1_555
N12_3 C3_5 1_555 1_555
N8_2 C7_5 1_555 1_555
Ag1_11 N1_11 1_555 1_555
N1_11 C1_5 1_555 1_555
N7_2 C1_5 1_555 1_555
N3_5 Ag1_11 1_555 1_555
N5_4 C4_5 1_555 1_555
C1_5 C2_5 1_555 1_555
C2_5 F1_5 1_555 1_555
C4_5 N3_5 1_555 1_555
C5_5 C4_5 1_555 1_555
F2_5 C2_5 1_555 1_555
F3_5 C2_5 1_555 1_555
F4_5 C5_5 1_555 1_555
F5_5 C5_5 1_555 1_555
F6_5 C5_5 1_555 1_555
Ag7_3 N5_4 1_555 1_555
N11_4 Ag7_2 1_555 1_555
N14_4 Ag7_2 1_555 1_555
C12_5 C9_5 1_555 1_555
F16_5 C12_5 1_555 1_555
F17_5 C12_5 1_555 1_555
F18_5 C12_5 1_555 1_555
N11_3 C9_5 1_555 1_555
Ag1_12 N1_12 1_555 1_555
C6_6 C3_6 1_555 1_555
F7_6 C6_6 1_555 1_555
F8_6 C6_6 1_555 1_555
F9_6 C6_6 1_555 1_555
N9_6 Ag1_12 1_555 1_555
N14_3 C10_6 1_555 1_555
C7_6 N1_12 1_555 1_555
C8_6 C7_6 1_555 1_555
C10_6 N9_6 1_555 1_555
C11_6 C10_6 1_555 1_555
F10_6 C8_6 1_555 1_555
F11_6 C8_6 1_555 1_555
F12_6 C8_6 1_555 1_555
F13_6 C11_6 1_555 1_555
F14_6 C11_6 1_555 1_555
F15_6 C11_6 1_555 1_555
N4_4 C3_6 1_555 1_555
N7 C7_6 1_555 1_555
Ag1_13 N1_13 1_555 1_555
N1_13 C1_6 1_555 1_555
N8 C1_6 1_555 1_555
N3_6 Ag1_13 1_555 1_555
N15_3 C4_6 1_555 1_555
C1_6 C2_6 1_555 1_555
C2_6 F1_6 1_555 1_555
C4_6 N3_6 1_555 1_555
C5_6 C4_6 1_555 1_555
F2_6 C2_6 1_555 1_555
F3_6 C2_6 1_555 1_555
F4_6 C5_6 1_555 1_555
F5_6 C5_6 1_555 1_555
F6_6 C5_6 1_555 1_555
C12_6 C9_6 1_555 1_555
F16_6 C12_6 1_555 1_555
F17_6 C12_6 1_555 1_555
F18_6 C12_6 1_555 1_555
N10_4 C9_6 1_555 1_555
Ag1_14 N1_14 1_555 1_555
N9_7 Ag1_14 1_555 1_555
N15_4 C10_7 1_555 1_555
C10_7 N9_7 1_555 1_555
C11_7 C10_7 1_555 1_555
F13_7 C11_7 1_555 1_555
F14_7 C11_7 1_555 1_555
F15_7 C11_7 1_555 1_555
Ag1_15 N1_15 1_555 1_555
N1_15 C1_7 1_555 1_555
N7_4 C1_7 1_555 1_555
C1_7 C2_7 1_555 1_555
C2_7 F1_7 1_555 1_555
F2_7 C2_7 1_555 1_555
F3_7 C2_7 1_555 1_555
C12_7 C9_7 1_555 1_555
F16_7 C12_7 1_555 1_555
F17_7 C12_7 1_555 1_555
F18_7 C12_7 1_555 1_555
N11_2 C9_7 1_555 1_555
Ag1_16 N1_16 1_555 1_555
C6_7 C3_7 1_555 1_555
F7_7 C6_7 1_555 1_555
F8_7 C6_7 1_555 1_555
F9_7 C6_7 1_555 1_555
C7_7 N1_16 1_555 1_555
C8_7 C7_7 1_555 1_555
F10_7 C8_7 1_555 1_555
F11_7 C8_7 1_555 1_555
F12_7 C8_7 1_555 1_555
N12_2 C3_7 1_555 1_555
N8_4 C7_7 1_555 1_555
Ag1_17 N1_17 1_555 1_555
N3_7 Ag1_17 1_555 1_555
N14_4 C4_7 1_555 1_555
C4_7 N3_7 1_555 1_555
C5_7 C4_7 1_555 1_555
F4_7 C5_7 1_555 1_555
F5_7 C5_7 1_555 1_555
F6_7 C5_7 1_555 1_555
Ag1_18 N1_18 1_555 1_555
N1_18 C1_8 1_555 1_555
N8_3 C1_8 1_555 1_555
N3_8 Ag1_18 1_555 1_555
N12_4 N15_2 1_555 1_555
N15_2 C4_8 1_555 1_555
C1_8 C2_8 1_555 1_555
C2_8 F1_8 1_555 1_555
C3_8 N3_8 1_555 1_555
C4_8 N3_8 1_555 1_555
C5_8 C4_8 1_555 1_555
C6_8 C3_8 1_555 1_555
F2_8 C2_8 1_555 1_555
F3_8 C2_8 1_555 1_555
F4_8 C5_8 1_555 1_555
F5_8 C5_8 1_555 1_555
F6_8 C5_8 1_555 1_555
F7_8 C6_8 1_555 1_555
F8_8 C6_8 1_555 1_555
F9_8 C6_8 1_555 1_555
N9_8 Ag1_18 1_555 1_555
N11_4 N14_2 1_555 1_555
N14_2 C10_8 1_555 1_555
C7_8 N1_18 1_555 1_555
C8_8 C7_8 1_555 1_555
C9_8 N9_8 1_555 1_555
C10_8 N9_8 1_555 1_555
C11_8 C10_8 1_555 1_555
C12_8 C9_8 1_555 1_555
F10_8 C8_8 1_555 1_555
F11_8 C8_8 1_555 1_555
F12_8 C8_8 1_555 1_555
F13_8 C11_8 1_555 1_555
F14_8 C11_8 1_555 1_555
F15_8 C11_8 1_555 1_555
F16_8 C12_8 1_555 1_555
F17_8 C12_8 1_555 1_555
F18_8 C12_8 1_555 1_555
N12_4 C3_8 1_555 1_555
N7_3 C7_8 1_555 1_555
N11_4 C9_8 1_555 1_555

#END
