
###############################################################################
#
# This file contains modified crystal structure data generated from the
# MOF subset of the Cambridge Structural Database (CSD) v543 
# hosted by the Cambridge Crystallographic Data Centre (CCDC).
#
# This work is licensed under the Creative Commons
# Attribution-NonCommercial-ShareAlike 4.0 International License.
# To view a copy of this license, visit
# http://creativecommons.org/licenses/by-nc-sa/4.0/
# or send a letter to
# Creative Commons, PO Box 1866, Mountain View, CA 94042, USA.
#
# CIF created using the CSD Python API on 29 September 2022
# The structure has been converted into the P1 space group
# The structure has a 3D framework
# The original CSD entry COWSAL is in the monoclinic crystal system
# The framework has been calculated to contain at least 10.0% void space
# The void calculation uses a probe of radius 1.32A, grid spacing 0.4
# The framework is charged, counterions have been retained in the structure
# H atom positions have been added when not included in the experimental data
#
###############################################################################

data_COWSAL
_chemical_formula_moiety         '(C116 H148 N12 O108 U20 2-)n'
_symmetry_cell_setting           triclinic
_symmetry_space_group_name_H-M   'P 1'
_symmetry_Int_Tables_number      1
_space_group_name_Hall           'P 1'
loop_
_symmetry_equiv_pos_site_id
_symmetry_equiv_pos_as_xyz
1 x,y,z
_cell_length_a                   25.3322(19)
_cell_length_b                   8.8310(7)
_cell_length_c                   25.293(3)
_cell_angle_alpha                90
_cell_angle_beta                 118.825(2)
_cell_angle_gamma                90
_cell_volume                     4957.18
loop_
_atom_site_label
_atom_site_type_symbol
_atom_site_fract_x
_atom_site_fract_y
_atom_site_fract_z
N1 N 0.5466(9) 0.249(2) 0.7510(9)
C1 C 0.5519(12) 0.317(3) 0.8084(13)
C2 C 0.4960(13) 0.138(3) 0.7272(13)
C3 C 0.4845(16) 0.321(4) 0.7936(16)
C4 C 0.4490(17) 0.212(4) 0.7406(18)
C5 C 0.5380(14) 0.375(4) 0.7094(15)
H1 H 0.5721 0.4417 0.7276
H2 H 0.5341 0.3357 0.6723
H3 H 0.5022 0.4300 0.7013
C6 C 0.6045(15) 0.163(4) 0.7687(16)
H4 H 0.6083 0.0824 0.7957
H5 H 0.6038 0.1223 0.7333
H6 H 0.6381 0.2310 0.7885
H25 H 0.466774 0.435404 0.781001
H26 H 0.480778 0.284939 0.832846
H27 H 0.426102 0.12649 0.75318
H28 H 0.416011 0.274087 0.701304
H29 H 0.510682 0.0296812 0.750337
H30 H 0.47798 0.121226 0.678882
H31 H 0.571243 0.430264 0.81639
H32 H 0.578854 0.245715 0.847395
N1_2 N 0.5466(9) 0.751(2) 0.2510(9)
C1_2 C 0.5519(12) 0.683(3) 0.3084(13)
C2_2 C 0.4960(13) 0.862(3) 0.2272(13)
C3_2 C 0.4845(16) 0.679(4) 0.2936(16)
C4_2 C 0.4490(17) 0.788(4) 0.2406(18)
C5_2 C 0.5380(14) 0.625(4) 0.2094(15)
H1_2 H 0.5721 0.5583 0.2276
H2_2 H 0.5341 0.6643 0.1723
H3_2 H 0.5022 0.5700 0.2013
C6_2 C 0.6045(15) 0.837(4) 0.2687(16)
H4_2 H 0.6083 0.9176 0.2957
H5_2 H 0.6038 0.8777 0.2333
H6_2 H 0.6381 0.7690 0.2885
H25_2 H 0.466774 0.564596 0.281001
H26_2 H 0.480778 0.715061 0.332846
H27_2 H 0.426102 0.87351 0.25318
H28_2 H 0.416011 0.725913 0.201304
H29_2 H 0.510682 0.970319 0.250337
H30_2 H 0.47798 0.878774 0.178882
H31_2 H 0.571243 0.569736 0.31639
H32_2 H 0.578854 0.754285 0.347395
N1_3 N 0.0466(9) 0.749(2) 0.7510(9)
C1_3 C 0.0519(12) 0.817(3) 0.8084(13)
C5_3 C 0.0380(14) 0.875(4) 0.7094(15)
H1_3 H 0.0721 0.9417 0.7276
H2_3 H 0.0341 0.8357 0.6723
H3_3 H 0.0022 0.9300 0.7013
C6_3 C 0.1045(15) 0.663(4) 0.7687(16)
H4_3 H 0.1083 0.5824 0.7957
H5_3 H 0.1038 0.6223 0.7333
H6_3 H 0.1381 0.7310 0.7885
H29_3 H 0.0106823 0.529681 0.750337
H31_3 H 0.0712425 0.930264 0.81639
H32_3 H 0.0788544 0.745715 0.847395
C2_3 C 0.9960(13) 0.638(3) 0.7272(13)
C3_3 C 0.9845(16) 0.821(4) 0.7936(16)
C4_3 C 0.9490(17) 0.712(4) 0.7406(18)
H25_3 H 0.966774 0.935404 0.781001
H26_3 H 0.980778 0.784939 0.832846
H27_3 H 0.926102 0.62649 0.75318
H28_3 H 0.916011 0.774087 0.701304
H30_3 H 0.97798 0.621226 0.678882
N1_4 N 0.0466(9) 0.251(2) 0.2510(9)
C1_4 C 0.0519(12) 0.183(3) 0.3084(13)
C5_4 C 0.0380(14) 0.125(4) 0.2094(15)
H1_4 H 0.0721 0.0583 0.2276
H2_4 H 0.0341 0.1643 0.1723
H3_4 H 0.0022 0.0700 0.2013
C6_4 C 0.1045(15) 0.337(4) 0.2687(16)
H4_4 H 0.1083 0.4176 0.2957
H5_4 H 0.1038 0.3777 0.2333
H6_4 H 0.1381 0.2690 0.2885
H29_4 H 0.0106823 0.470319 0.250337
H31_4 H 0.0712425 0.0697356 0.31639
H32_4 H 0.0788544 0.254285 0.347395
C2_4 C 0.9960(13) 0.362(3) 0.2272(13)
C3_4 C 0.9845(16) 0.179(4) 0.2936(16)
C4_4 C 0.9490(17) 0.288(4) 0.2406(18)
H25_4 H 0.966774 0.0645955 0.281001
H26_4 H 0.980778 0.215061 0.332846
H27_4 H 0.926102 0.37351 0.25318
H28_4 H 0.916011 0.225913 0.201304
H30_4 H 0.97798 0.378774 0.178882
N2 N 0.3139(8) 0.475(2) 0.3573(8)
C7 C 0.2829(14) 0.334(3) 0.3439(14)
H7 H 0.2756 0.3065 0.3765
H8 H 0.2452 0.3438 0.3074
H9 H 0.3070 0.2579 0.3388
C8 C 0.3245(12) 0.515(3) 0.3066(12)
H10 H 0.3454 0.6097 0.3148
H11 H 0.3483 0.4373 0.3017
H12 H 0.2866 0.5232 0.2703
H35 H 0.353885 0.465666 0.395813
H36 H 0.288511 0.556293 0.362604
N2_2 N 0.3139(8) 0.525(2) 0.8573(8)
C7_2 C 0.2829(14) 0.666(3) 0.8439(14)
H7_2 H 0.2756 0.6935 0.8765
H8_2 H 0.2452 0.6562 0.8074
H9_2 H 0.3070 0.7421 0.8388
C8_2 C 0.3245(12) 0.485(3) 0.8066(12)
H10_2 H 0.3454 0.3903 0.8148
H11_2 H 0.3483 0.5627 0.8017
H12_2 H 0.2866 0.4768 0.7703
H35_2 H 0.353885 0.534334 0.895813
H36_2 H 0.288511 0.443707 0.862604
C8_3 C 0.8245(12) 0.015(3) 0.3066(12)
H10_3 H 0.8454 0.1097 0.3148
H12_3 H 0.7866 0.0232 0.2703
H36_3 H 0.788511 0.0562933 0.362604
N2_3 N 0.8139(8) 0.975(2) 0.3573(8)
C7_3 C 0.7829(14) 0.834(3) 0.3439(14)
H7_3 H 0.7756 0.8065 0.3765
H8_3 H 0.7452 0.8438 0.3074
H9_3 H 0.8070 0.7579 0.3388
H11_3 H 0.8483 0.9373 0.3017
H35_3 H 0.853885 0.965666 0.395813
N2_4 N 0.8139(8) 0.025(2) 0.8573(8)
C7_4 C 0.7829(14) 0.166(3) 0.8439(14)
H7_4 H 0.7756 0.1935 0.8765
H8_4 H 0.7452 0.1562 0.8074
H9_4 H 0.8070 0.2421 0.8388
H11_4 H 0.8483 0.0627 0.8017
H35_4 H 0.853885 0.0343338 0.895813
C8_4 C 0.8245(12) 0.985(3) 0.8066(12)
H10_4 H 0.8454 0.8903 0.8148
H12_4 H 0.7866 0.9768 0.7703
H36_4 H 0.788511 0.943707 0.862604
C9 C 0.2072(17) 0.188(4) 0.4604(18)
H13 H 0.2035 0.1993 0.4210
H14 H 0.1878 0.0962 0.4620
H15 H 0.1885 0.2728 0.4686
N3 N 0.2680(11) 0.183(3) 0.5035(12)
C10 C 0.2820(19) 0.166(5) 0.5673(18)
H16 H 0.3249 0.1632 0.5928
H17 H 0.2655 0.2496 0.5785
H18 H 0.2648 0.0730 0.5719
H33 H 0.2873 0.280745 0.500213
H34 H 0.286834 0.094041 0.493293
N3_2 N 0.2680(11) 0.817(3) 0.0035(12)
C10_2 C 0.2820(19) 0.834(5) 0.0673(18)
H16_2 H 0.3249 0.8368 0.0928
H17_2 H 0.2655 0.7504 0.0785
H18_2 H 0.2648 0.9270 0.0719
H33_2 H 0.2873 0.719255 0.000212922
C9_2 C 0.2072(17) 0.812(4) 0.9604(18)
H13_2 H 0.2035 0.8007 0.9210
H14_2 H 0.1878 0.9038 0.9620
H15_2 H 0.1885 0.7272 0.9686
H34_2 H 0.286834 0.905959 0.993293
C9_3 C 0.7072(17) 0.688(4) 0.4604(18)
H13_3 H 0.7035 0.6993 0.4210
H14_3 H 0.6878 0.5962 0.4620
H15_3 H 0.6885 0.7728 0.4686
N3_3 N 0.7680(11) 0.683(3) 0.5035(12)
C10_3 C 0.7820(19) 0.666(5) 0.5673(18)
H16_3 H 0.8249 0.6632 0.5928
H17_3 H 0.7655 0.7496 0.5785
H18_3 H 0.7648 0.5730 0.5719
H33_3 H 0.7873 0.780745 0.500213
H34_3 H 0.786834 0.594041 0.493293
N3_4 N 0.7680(11) 0.317(3) 0.0035(12)
C10_4 C 0.7820(19) 0.334(5) 0.0673(18)
H16_4 H 0.8249 0.3368 0.0928
H17_4 H 0.7655 0.2504 0.0785
H18_4 H 0.7648 0.4270 0.0719
H33_4 H 0.7873 0.219255 0.000212922
C9_4 C 0.7072(17) 0.312(4) 0.9604(18)
H13_4 H 0.7035 0.3007 0.9210
H14_4 H 0.6878 0.4038 0.9620
H15_4 H 0.6885 0.2272 0.9686
H34_4 H 0.786834 0.405959 0.993293
O7 O 0.7164(5) 0.0447(13) 0.5274(5)
O8 O 0.3396(5) 0.3696(13) 0.0943(5)
O10 O 0.3397(5) 0.0482(14) 0.4545(6)
O11 O 0.6336(5) 0.1874(13) 0.4898(5)
O12 O 0.4751(6) 0.2263(16) 0.2996(7)
O17 O 0.4489(5) 0.3156(12) 0.2078(5)
O20 O 0.5064(5) 0.1934(14) 0.4202(5)
C12 C 0.3040(7) 0.0567(18) 0.2456(7)
O22 O 0.4445(6) 0.0658(15) 0.4420(6)
O23 O 0.3301(5) 0.5266(14) 0.1585(5)
O24 O 0.4911(6) 0.1257(16) 0.5820(6)
C13 C 0.2573(8) 0.111(2) 0.1929(8)
H19 H 0.2183 0.0775 0.1809
C14 C 0.5035(6) 0.0013(18) 0.5736(7)
C15 C 0.3317(7) 0.4041(18) 0.1401(7)
C17 C 0.3619(7) 0.1064(18) 0.2620(7)
H20 H 0.3942 0.0707 0.2975
C18 C 0.3239(7) 0.2699(16) 0.1745(7)
C20 C 0.6485(7) 0.0066(19) 0.5659(7)
C21 C 0.5908(7) 0.0383(18) 0.5565(7)
H22 H 0.5671 0.1090 0.5274
C24 C 0.3723(6) 0.2078(17) 0.2266(7)
C26 C 0.4768(9) 0.075(2) 0.4174(9)
C27 C 0.4374(7) 0.2530(17) 0.2460(7)
C28 C 0.6674(7) 0.0847(19) 0.5247(7)
C29 C 0.2669(9) 0.212(2) 0.1578(9)
H24 H 0.2345 0.2437 0.1216
U8 U 0.76680(2) 0.17996(6) 0.47994(2)
U9 U 0.58068(2) 0.21649(7) 0.38274(2)
U10 U 0.43115(2) 0.24656(6) 0.10902(2)
U7 U 0.26680(2) 0.32004(6) 0.97994(2)
U1 U 0.18647(2) 0.79622(7) 0.31947(2)
U2 U 0.26680(2) 0.67996(6) 0.47994(2)
U3 U 0.08068(2) 0.71649(7) 0.38274(2)
U4 U 0.37126(2) 0.88094(7) 0.44223(2)
U5 U 0.43115(2) 0.75344(6) 0.60902(2)
O1 O 0.1797(6) 0.9900(15) 0.3350(6)
O2 O 0.2793(5) 0.4936(14) 0.4596(5)
O3 O 0.1756(5) 0.7061(12) 0.3986(5)
O4 O 0.4596(5) 0.5775(14) 0.5989(5)
O5 O 0.6172(5) 0.6745(12) 0.7069(5)
O6 O 0.2795(5) 0.7698(13) 0.3996(5)
O9 O 0.1932(5) 0.6066(14) 0.2974(5)
O13 O 0.4065(5) 0.9292(13) 0.6232(5)
O14 O 0.4664(5) 0.8895(13) 0.5470(5)
O15 O 0.2540(6) 0.8559(14) 0.5053(6)
O16 O 0.2437(5) 0.8945(14) 0.2701(5)
O18 O 0.0844(6) 0.7604(15) 0.2951(6)
O19 O 0.0815(5) 0.9152(14) 0.3971(6)
C11 C 0.2931(7) 0.9547(17) 0.2876(7)
O21 O 0.3372(6) 0.9426(15) 0.3395(6)
O25 O 0.0743(6) 0.5139(15) 0.3747(6)
O26 O 0.3628(5) 0.7538(12) 0.5136(5)
O27 O 0.4069(6) 0.7213(15) 0.4278(6)
C16 C 0.5680(7) 0.9644(18) 0.5904(7)
O28 O 0.5340(5) 0.8192(12) 0.6690(5)
C19 C 0.6850(7) 0.9072(19) 0.6098(7)
H21 H 0.7240 0.8891 0.6168
C22 C 0.6632(8) 0.835(2) 0.6431(8)
H23 H 0.6883 0.7682 0.6732
C23 C 0.6037(7) 0.8581(18) 0.6332(7)
C25 C 0.5838(7) 0.7792(17) 0.6734(7)
U6 U 0.68647(2) 0.70378(7) 0.81947(2)
O29 O 0.1172(5) 0.8255(12) 0.2069(5)
O30 O 0.2164(5) 0.5447(13) 0.5274(5)
O31 O 0.3396(5) 0.6304(13) 0.5943(5)
O32 O 0.1336(5) 0.6874(13) 0.4898(5)
O34 O 0.4489(5) 0.6844(12) 0.7078(5)
O35 O 0.0064(5) 0.6934(14) 0.4202(5)
H37 H 0.47972 0.977586 0.392534
O33 O 0.9751(6) 0.7263(16) 0.2996(7)
O4_2 O 0.4596(5) 0.4225(14) 0.0989(5)
O5_2 O 0.6172(5) 0.3255(12) 0.2069(5)
O13_2 O 0.4065(5) 0.0708(13) 0.1232(5)
O14_2 O 0.4664(5) 0.1105(13) 0.0470(5)
O15_2 O 0.2540(6) 0.1441(14) 0.0053(6)
O26_2 O 0.3628(5) 0.2462(12) 0.0136(5)
C16_2 C 0.5680(7) 0.0356(18) 0.0904(7)
O28_2 O 0.5340(5) 0.1808(12) 0.1690(5)
C19_2 C 0.6850(7) 0.0928(19) 0.1098(7)
H21_2 H 0.7240 0.1109 0.1168
C22_2 C 0.6632(8) 0.165(2) 0.1431(8)
H23_2 H 0.6883 0.2318 0.1732
C23_2 C 0.6037(7) 0.1419(18) 0.1332(7)
C25_2 C 0.5838(7) 0.2208(17) 0.1734(7)
U6_2 U 0.68647(2) 0.29622(7) 0.31947(2)
O30_2 O 0.2164(5) 0.4553(13) 0.0274(5)
U1_2 U 0.18647(2) 0.20378(7) 0.81947(2)
U3_2 U 0.08068(2) 0.28351(7) 0.88274(2)
U4_2 U 0.37126(2) 0.11906(7) 0.94223(2)
O1_2 O 0.1797(6) 0.0100(15) 0.8350(6)
O2_2 O 0.2793(5) 0.5064(14) 0.9596(5)
O3_2 O 0.1756(5) 0.2939(12) 0.8986(5)
O6_2 O 0.2795(5) 0.2302(13) 0.8996(5)
O9_2 O 0.1932(5) 0.3934(14) 0.7974(5)
O16_2 O 0.2437(5) 0.1055(14) 0.7701(5)
O18_2 O 0.0844(6) 0.2396(15) 0.7951(6)
O19_2 O 0.0815(5) 0.0848(14) 0.8971(6)
C11_2 C 0.2931(7) 0.0453(17) 0.7876(7)
O21_2 O 0.3372(6) 0.0574(15) 0.8395(6)
O25_2 O 0.0743(6) 0.4861(15) 0.8747(6)
O27_2 O 0.4069(6) 0.2787(15) 0.9278(6)
O29_2 O 0.1172(5) 0.1745(12) 0.7069(5)
O32_2 O 0.1336(5) 0.3126(13) 0.9898(5)
O35_2 O 0.0064(5) 0.3066(14) 0.9202(5)
H37_2 H 0.47972 0.0224139 0.892534
O7_2 O 0.7164(5) 0.9553(13) 0.0274(5)
O24_2 O 0.4911(6) 0.8743(16) 0.0820(6)
C14_2 C 0.5035(6) 0.9987(18) 0.0736(7)
C20_2 C 0.6485(7) 0.9934(19) 0.0659(7)
C21_2 C 0.5908(7) 0.9617(18) 0.0565(7)
H22_2 H 0.5671 0.8910 0.0274
C28_2 C 0.6674(7) 0.9153(19) 0.0247(7)
O10_2 O 0.3397(5) 0.9518(14) 0.9545(6)
O11_2 O 0.6336(5) 0.8126(13) 0.9898(5)
O12_2 O 0.4751(6) 0.7737(16) 0.7996(7)
O20_2 O 0.5064(5) 0.8066(14) 0.9202(5)
C12_2 C 0.3040(7) 0.9433(18) 0.7456(7)
O22_2 O 0.4445(6) 0.9342(15) 0.9420(6)
O23_2 O 0.3301(5) 0.4734(14) 0.6585(5)
C13_2 C 0.2573(8) 0.889(2) 0.6929(8)
H19_2 H 0.2183 0.9225 0.6809
C15_2 C 0.3317(7) 0.5959(18) 0.6401(7)
C17_2 C 0.3619(7) 0.8936(18) 0.7620(7)
H20_2 H 0.3942 0.9293 0.7975
C18_2 C 0.3239(7) 0.7301(16) 0.6745(7)
C24_2 C 0.3723(6) 0.7922(17) 0.7266(7)
C26_2 C 0.4768(9) 0.925(2) 0.9174(9)
C27_2 C 0.4374(7) 0.7470(17) 0.7460(7)
C29_2 C 0.2669(9) 0.788(2) 0.6578(9)
H24_2 H 0.2345 0.7563 0.6216
U8_2 U 0.76680(2) 0.82004(6) 0.97994(2)
U9_2 U 0.58068(2) 0.78351(7) 0.88274(2)
O33_2 O 0.9751(6) 0.2737(16) 0.7996(7)
C14_3 C 0.0035(6) 0.5013(18) 0.5736(7)
C16_3 C 0.0680(7) 0.4644(18) 0.5904(7)
O28_3 O 0.0340(5) 0.3192(12) 0.6690(5)
C19_3 C 0.1850(7) 0.4072(19) 0.6098(7)
H21_3 H 0.2240 0.3891 0.6168
C20_3 C 0.1485(7) 0.5066(19) 0.5659(7)
C21_3 C 0.0908(7) 0.5383(18) 0.5565(7)
H22_3 H 0.0671 0.6090 0.5274
C22_3 C 0.1632(8) 0.335(2) 0.6431(8)
H23_3 H 0.1883 0.2682 0.6732
C23_3 C 0.1037(7) 0.3581(18) 0.6332(7)
C25_3 C 0.0838(7) 0.2792(17) 0.6734(7)
C28_3 C 0.1674(7) 0.5847(19) 0.5247(7)
U4_3 U 0.87126(2) 0.38094(7) 0.44223(2)
U5_2 U 0.93115(2) 0.25344(6) 0.60902(2)
O1_3 O 0.6797(6) 0.4900(15) 0.3350(6)
O3_3 O 0.6756(5) 0.2061(12) 0.3986(5)
O4_3 O 0.9596(5) 0.0775(14) 0.5989(5)
O6_3 O 0.7795(5) 0.2698(13) 0.3996(5)
O8_2 O 0.8396(5) 0.8696(13) 0.0943(5)
O9_3 O 0.6932(5) 0.1066(14) 0.2974(5)
O10_3 O 0.8397(5) 0.5482(14) 0.4545(6)
O13_3 O 0.9065(5) 0.4292(13) 0.6232(5)
O14_3 O 0.9664(5) 0.3895(13) 0.5470(5)
O15_3 O 0.7540(6) 0.3559(14) 0.5053(6)
O16_3 O 0.7437(5) 0.3945(14) 0.2701(5)
O17_2 O 0.9489(5) 0.8156(12) 0.2078(5)
O18_3 O 0.5844(6) 0.2604(15) 0.2951(6)
O19_3 O 0.5815(5) 0.4152(14) 0.3971(6)
C11_3 C 0.7931(7) 0.4547(17) 0.2876(7)
O21_3 O 0.8372(6) 0.4426(15) 0.3395(6)
C12_3 C 0.8040(7) 0.5567(18) 0.2456(7)
O22_3 O 0.9445(6) 0.5658(15) 0.4420(6)
O24_3 O 0.9911(6) 0.6257(16) 0.5820(6)
O25_3 O 0.5743(6) 0.0139(15) 0.3747(6)
O26_3 O 0.8628(5) 0.2538(12) 0.5136(5)
O27_3 O 0.9069(6) 0.2213(15) 0.4278(6)
C13_3 C 0.7573(8) 0.611(2) 0.1929(8)
H19_3 H 0.7183 0.5775 0.1809
C15_3 C 0.8317(7) 0.9041(18) 0.1401(7)
C17_3 C 0.8619(7) 0.6064(18) 0.2620(7)
H20_3 H 0.8942 0.5707 0.2975
C18_3 C 0.8239(7) 0.7699(16) 0.1745(7)
C24_3 C 0.8723(6) 0.7078(17) 0.2266(7)
C26_3 C 0.9768(9) 0.575(2) 0.4174(9)
C27_3 C 0.9374(7) 0.7530(17) 0.2460(7)
C29_3 C 0.7669(9) 0.712(2) 0.1578(9)
H24_3 H 0.7345 0.7437 0.1216
U10_2 U 0.93115(2) 0.74656(6) 0.10902(2)
O31_2 O 0.8396(5) 0.1304(13) 0.5943(5)
O34_2 O 0.9489(5) 0.1844(12) 0.7078(5)
H37_3 H 0.97972 0.477586 0.392534
C14_4 C 0.0035(6) 0.4987(18) 0.0736(7)
C16_4 C 0.0680(7) 0.5356(18) 0.0904(7)
O28_4 O 0.0340(5) 0.6808(12) 0.1690(5)
C19_4 C 0.1850(7) 0.5928(19) 0.1098(7)
H21_4 H 0.2240 0.6109 0.1168
C20_4 C 0.1485(7) 0.4934(19) 0.0659(7)
C21_4 C 0.0908(7) 0.4617(18) 0.0565(7)
H22_4 H 0.0671 0.3910 0.0274
C22_4 C 0.1632(8) 0.665(2) 0.1431(8)
H23_4 H 0.1883 0.7318 0.1732
C23_4 C 0.1037(7) 0.6419(18) 0.1332(7)
C25_4 C 0.0838(7) 0.7208(17) 0.1734(7)
C28_4 C 0.1674(7) 0.4153(19) 0.0247(7)
O4_4 O 0.9596(5) 0.9225(14) 0.0989(5)
O13_4 O 0.9065(5) 0.5708(13) 0.1232(5)
O14_4 O 0.9664(5) 0.6105(13) 0.0470(5)
O15_4 O 0.7540(6) 0.6441(14) 0.0053(6)
O24_4 O 0.9911(6) 0.3743(16) 0.0820(6)
O26_4 O 0.8628(5) 0.7462(12) 0.0136(5)
U4_4 U 0.87126(2) 0.61906(7) 0.94223(2)
O1_4 O 0.6797(6) 0.5100(15) 0.8350(6)
O3_4 O 0.6756(5) 0.7939(12) 0.8986(5)
O6_4 O 0.7795(5) 0.7302(13) 0.8996(5)
O9_4 O 0.6932(5) 0.8934(14) 0.7974(5)
O10_4 O 0.8397(5) 0.4518(14) 0.9545(6)
O16_4 O 0.7437(5) 0.6055(14) 0.7701(5)
O18_4 O 0.5844(6) 0.7396(15) 0.7951(6)
O19_4 O 0.5815(5) 0.5848(14) 0.8971(6)
C11_4 C 0.7931(7) 0.5453(17) 0.7876(7)
O21_4 O 0.8372(6) 0.5574(15) 0.8395(6)
C12_4 C 0.8040(7) 0.4433(18) 0.7456(7)
O22_4 O 0.9445(6) 0.4342(15) 0.9420(6)
O25_4 O 0.5743(6) 0.9861(15) 0.8747(6)
O27_4 O 0.9069(6) 0.7787(15) 0.9278(6)
C13_4 C 0.7573(8) 0.389(2) 0.6929(8)
H19_4 H 0.7183 0.4225 0.6809
C15_4 C 0.8317(7) 0.0959(18) 0.6401(7)
C17_4 C 0.8619(7) 0.3936(18) 0.7620(7)
H20_4 H 0.8942 0.4293 0.7975
C18_4 C 0.8239(7) 0.2301(16) 0.6745(7)
C24_4 C 0.8723(6) 0.2922(17) 0.7266(7)
C26_4 C 0.9768(9) 0.425(2) 0.9174(9)
C27_4 C 0.9374(7) 0.2470(17) 0.7460(7)
C29_4 C 0.7669(9) 0.288(2) 0.6578(9)
H24_4 H 0.7345 0.2563 0.6216
H37_4 H 0.97972 0.522414 0.892534
O23_3 O 0.8301(5) 0.0266(14) 0.1585(5)
O2_3 O 0.7793(5) 0.9936(14) 0.4596(5)
O2_4 O 0.7793(5) 0.0064(14) 0.9596(5)
O23_4 O 0.8301(5) 0.9734(14) 0.6585(5)
loop_
_geom_bond_atom_site_label_1
_geom_bond_atom_site_label_2
_geom_bond_site_symmetry_1
_geom_bond_site_symmetry_2
N1 C1 1_555 1_555
C1 C3 1_555 1_555
C2 N1 1_555 1_555
C3 C4 1_555 1_555
C4 C2 1_555 1_555
C5 N1 1_555 1_555
H1 C5 1_555 1_555
H2 C5 1_555 1_555
H3 C5 1_555 1_555
C6 N1 1_555 1_555
H4 C6 1_555 1_555
H5 C6 1_555 1_555
H6 C6 1_555 1_555
C3 H25 1_555 1_555
C3 H26 1_555 1_555
C4 H27 1_555 1_555
C4 H28 1_555 1_555
C2 H29 1_555 1_555
C2 H30 1_555 1_555
C1 H31 1_555 1_555
C1 H32 1_555 1_555
N1_2 C1_2 1_555 1_555
C1_2 C3_2 1_555 1_555
C2_2 N1_2 1_555 1_555
C3_2 C4_2 1_555 1_555
C4_2 C2_2 1_555 1_555
C5_2 N1_2 1_555 1_555
H1_2 C5_2 1_555 1_555
H2_2 C5_2 1_555 1_555
H3_2 C5_2 1_555 1_555
C6_2 N1_2 1_555 1_555
H4_2 C6_2 1_555 1_555
H5_2 C6_2 1_555 1_555
H6_2 C6_2 1_555 1_555
C3_2 H25_2 1_555 1_555
C3_2 H26_2 1_555 1_555
C4_2 H27_2 1_555 1_555
C4_2 H28_2 1_555 1_555
C2_2 H29_2 1_555 1_555
C2_2 H30_2 1_555 1_555
C1_2 H31_2 1_555 1_555
C1_2 H32_2 1_555 1_555
N1_3 C1_3 1_555 1_555
C5_3 N1_3 1_555 1_555
H1_3 C5_3 1_555 1_555
H2_3 C5_3 1_555 1_555
H3_3 C5_3 1_555 1_555
C6_3 N1_3 1_555 1_555
H4_3 C6_3 1_555 1_555
H5_3 C6_3 1_555 1_555
H6_3 C6_3 1_555 1_555
C1_3 H31_3 1_555 1_555
C1_3 H32_3 1_555 1_555
C3_3 C4_3 1_555 1_555
C4_3 C2_3 1_555 1_555
C3_3 H25_3 1_555 1_555
C3_3 H26_3 1_555 1_555
C4_3 H27_3 1_555 1_555
C4_3 H28_3 1_555 1_555
C2_3 H30_3 1_555 1_555
N1_4 C1_4 1_555 1_555
C5_4 N1_4 1_555 1_555
H1_4 C5_4 1_555 1_555
H2_4 C5_4 1_555 1_555
H3_4 C5_4 1_555 1_555
C6_4 N1_4 1_555 1_555
H4_4 C6_4 1_555 1_555
H5_4 C6_4 1_555 1_555
H6_4 C6_4 1_555 1_555
C1_4 H31_4 1_555 1_555
C1_4 H32_4 1_555 1_555
C3_4 C4_4 1_555 1_555
C4_4 C2_4 1_555 1_555
C3_4 H25_4 1_555 1_555
C3_4 H26_4 1_555 1_555
C4_4 H27_4 1_555 1_555
C4_4 H28_4 1_555 1_555
C2_4 H30_4 1_555 1_555
N2 C7 1_555 1_555
C7 H7 1_555 1_555
H8 C7 1_555 1_555
H9 C7 1_555 1_555
C8 N2 1_555 1_555
H10 C8 1_555 1_555
H11 C8 1_555 1_555
H12 C8 1_555 1_555
N2 H35 1_555 1_555
N2 H36 1_555 1_555
N2_2 C7_2 1_555 1_555
C7_2 H7_2 1_555 1_555
H8_2 C7_2 1_555 1_555
H9_2 C7_2 1_555 1_555
C8_2 N2_2 1_555 1_555
H10_2 C8_2 1_555 1_555
H11_2 C8_2 1_555 1_555
H12_2 C8_2 1_555 1_555
N2_2 H35_2 1_555 1_555
N2_2 H36_2 1_555 1_555
H10_3 C8_3 1_555 1_555
H12_3 C8_3 1_555 1_555
N2_3 C7_3 1_555 1_555
C7_3 H7_3 1_555 1_555
H8_3 C7_3 1_555 1_555
H9_3 C7_3 1_555 1_555
N2_3 H35_3 1_555 1_555
N2_4 C7_4 1_555 1_555
C7_4 H7_4 1_555 1_555
H8_4 C7_4 1_555 1_555
H9_4 C7_4 1_555 1_555
N2_4 H35_4 1_555 1_555
H10_4 C8_4 1_555 1_555
H12_4 C8_4 1_555 1_555
C9 H13 1_555 1_555
H14 C9 1_555 1_555
H15 C9 1_555 1_555
N3 C9 1_555 1_555
C10 N3 1_555 1_555
H16 C10 1_555 1_555
H17 C10 1_555 1_555
H18 C10 1_555 1_555
N3 H33 1_555 1_555
N3 H34 1_555 1_555
C10_2 N3_2 1_555 1_555
H16_2 C10_2 1_555 1_555
H17_2 C10_2 1_555 1_555
H18_2 C10_2 1_555 1_555
N3_2 H33_2 1_555 1_555
C9_2 H13_2 1_555 1_555
H14_2 C9_2 1_555 1_555
H15_2 C9_2 1_555 1_555
C9_3 H13_3 1_555 1_555
H14_3 C9_3 1_555 1_555
H15_3 C9_3 1_555 1_555
N3_3 C9_3 1_555 1_555
C10_3 N3_3 1_555 1_555
H16_3 C10_3 1_555 1_555
H17_3 C10_3 1_555 1_555
H18_3 C10_3 1_555 1_555
N3_3 H33_3 1_555 1_555
N3_3 H34_3 1_555 1_555
C10_4 N3_4 1_555 1_555
H16_4 C10_4 1_555 1_555
H17_4 C10_4 1_555 1_555
H18_4 C10_4 1_555 1_555
N3_4 H33_4 1_555 1_555
C9_4 H13_4 1_555 1_555
H14_4 C9_4 1_555 1_555
H15_4 C9_4 1_555 1_555
O7 C28 1_555 1_555
O8 C15 1_555 1_555
O11 C28 1_555 1_555
O12 C27 1_555 1_555
O17 C27 1_555 1_555
O20 C26 1_555 1_555
O23 C15 1_555 1_555
O24 C14 1_555 1_555
C13 C12 1_555 1_555
H19 C13 1_555 1_555
C15 C18 1_555 1_555
C17 C12 1_555 1_555
H20 C17 1_555 1_555
C18 C24 1_555 1_555
H22 C21 1_555 1_555
C24 C17 1_555 1_555
C26 O22 1_555 1_555
C27 C24 1_555 1_555
C28 C20 1_555 1_555
C29 C13 1_555 1_555
H24 C29 1_555 1_555
U8 O7 1_555 1_555
U9 O11 1_555 1_555
U10 O8 1_555 1_555
O12 U9 1_555 1_555
O17 U10 1_555 1_555
O20 U9 1_555 1_555
C18 C29 1_555 1_555
C20 C21 1_555 1_555
U1 O1 1_555 1_555
U2 O2 1_555 1_555
U3 O3 1_555 1_555
U4 O6 1_555 1_555
U5 O4 1_555 1_555
O3 U1 1_555 1_555
O5 C25 1_555 1_555
O6 U1 1_555 1_555
O9 U1 1_555 1_555
O13 U5 1_555 1_555
O14 U4 1_555 1_555
O15 U2 1_555 1_555
O16 U1 1_555 1_555
O18 U1 1_555 1_555
O19 U3 1_555 1_555
C11 O16 1_555 1_555
O21 U4 1_555 1_555
O25 U3 1_555 1_555
O26 U2 1_555 1_555
O27 U4 1_555 1_555
O28 U5 1_555 1_555
C19 H21 1_555 1_555
C22 C19 1_555 1_555
H23 C22 1_555 1_555
C23 C16 1_555 1_555
C25 O28 1_555 1_555
U6 O5 1_555 1_555
O29 U1 1_555 1_555
O30 U2 1_555 1_555
O31 U2 1_555 1_555
O32 U3 1_555 1_555
O34 U5 1_555 1_555
O35 U3 1_555 1_555
U2 O3 1_555 1_555
U2 O6 1_555 1_555
U3 O18 1_555 1_555
U4 O26 1_555 1_555
U5 O14 1_555 1_555
U5 O26 1_555 1_555
U5 O31 1_555 1_555
C11 O21 1_555 1_555
C22 C23 1_555 1_555
C23 C25 1_555 1_555
U10 O4_2 1_555 1_555
O5_2 C25_2 1_555 1_555
O13_2 U10 1_555 1_555
O28_2 U10 1_555 1_555
C19_2 H21_2 1_555 1_555
C22_2 C19_2 1_555 1_555
H23_2 C22_2 1_555 1_555
C23_2 C16_2 1_555 1_555
C25_2 O28_2 1_555 1_555
U6_2 O5_2 1_555 1_555
U10 O14_2 1_555 1_555
U10 O26_2 1_555 1_555
C22_2 C23_2 1_555 1_555
C23_2 C25_2 1_555 1_555
U1_2 O1_2 1_555 1_555
U7 O2_2 1_555 1_555
U3_2 O3_2 1_555 1_555
U4_2 O6_2 1_555 1_555
O3_2 U1_2 1_555 1_555
O6_2 U1_2 1_555 1_555
O9_2 U1_2 1_555 1_555
O16_2 U1_2 1_555 1_555
O18_2 U1_2 1_555 1_555
O19_2 U3_2 1_555 1_555
C11_2 O16_2 1_555 1_555
O21_2 U4_2 1_555 1_555
O25_2 U3_2 1_555 1_555
O27_2 U4_2 1_555 1_555
O29_2 U1_2 1_555 1_555
O32_2 U3_2 1_555 1_555
O35_2 U3_2 1_555 1_555
U7 O3_2 1_555 1_555
U7 O6_2 1_555 1_555
U3_2 O18_2 1_555 1_555
C11_2 O21_2 1_555 1_555
O7_2 C28_2 1_555 1_555
O24_2 C14_2 1_555 1_555
H22_2 C21_2 1_555 1_555
C28_2 C20_2 1_555 1_555
C20_2 C21_2 1_555 1_555
O31 C15_2 1_555 1_555
O12_2 C27_2 1_555 1_555
O34 C27_2 1_555 1_555
O20_2 C26_2 1_555 1_555
O23_2 C15_2 1_555 1_555
C13_2 C12_2 1_555 1_555
H19_2 C13_2 1_555 1_555
C15_2 C18_2 1_555 1_555
C17_2 C12_2 1_555 1_555
H20_2 C17_2 1_555 1_555
C18_2 C24_2 1_555 1_555
C24_2 C17_2 1_555 1_555
C26_2 O22_2 1_555 1_555
C27_2 C24_2 1_555 1_555
C29_2 C13_2 1_555 1_555
H24_2 C29_2 1_555 1_555
U9_2 O11_2 1_555 1_555
O12_2 U9_2 1_555 1_555
O20_2 U9_2 1_555 1_555
C18_2 C29_2 1_555 1_555
O29_2 C25_3 1_555 1_555
O30 C28_3 1_555 1_555
O32 C28_3 1_555 1_555
C16_3 C14_3 1_555 1_555
C19_3 H21_3 1_555 1_555
C20_3 C19_3 1_555 1_555
C21_3 C16_3 1_555 1_555
H22_3 C21_3 1_555 1_555
C22_3 C19_3 1_555 1_555
H23_3 C22_3 1_555 1_555
C23_3 C16_3 1_555 1_555
C25_3 O28_3 1_555 1_555
C28_3 C20_3 1_555 1_555
C20_3 C21_3 1_555 1_555
C22_3 C23_3 1_555 1_555
C23_3 C25_3 1_555 1_555
U6_2 O1_3 1_555 1_555
U9 O3_3 1_555 1_555
U4_3 O6_3 1_555 1_555
U5_2 O4_3 1_555 1_555
O3_3 U6_2 1_555 1_555
O6_3 U6_2 1_555 1_555
O8_2 C15_3 1_555 1_555
O9_3 U6_2 1_555 1_555
O10_3 U4_3 1_555 1_555
O33 C27_3 1_555 1_555
O13_3 U5_2 1_555 1_555
O14_3 U4_3 1_555 1_555
O15_3 U8 1_555 1_555
O16_3 U6_2 1_555 1_555
O17_2 C27_3 1_555 1_555
O18_3 U6_2 1_555 1_555
O19_3 U9 1_555 1_555
C11_3 O16_3 1_555 1_555
O21_3 U4_3 1_555 1_555
C12_3 C11_3 1_555 1_555
O22_3 U4_3 1_555 1_555
O25_3 U9 1_555 1_555
O26_3 U8 1_555 1_555
O27_3 U4_3 1_555 1_555
C13_3 C12_3 1_555 1_555
H19_3 C13_3 1_555 1_555
C15_3 C18_3 1_555 1_555
C17_3 C12_3 1_555 1_555
H20_3 C17_3 1_555 1_555
C18_3 C24_3 1_555 1_555
C24_3 C17_3 1_555 1_555
C26_3 O22_3 1_555 1_555
C27_3 C24_3 1_555 1_555
C29_3 C13_3 1_555 1_555
H24_3 C29_3 1_555 1_555
U10_2 O8_2 1_555 1_555
O31_2 U8 1_555 1_555
O34_2 U5_2 1_555 1_555
U8 O3_3 1_555 1_555
U8 O6_3 1_555 1_555
U9 O18_3 1_555 1_555
U4_3 O26_3 1_555 1_555
U5_2 O14_3 1_555 1_555
U5_2 O26_3 1_555 1_555
U5_2 O31_2 1_555 1_555
O17_2 U10_2 1_555 1_555
C11_3 O21_3 1_555 1_555
C18_3 C29_3 1_555 1_555
C26_3 H37_3 1_555 1_555
O29 C25_4 1_555 1_555
O30_2 C28_4 1_555 1_555
C16_4 C14_4 1_555 1_555
C19_4 H21_4 1_555 1_555
C20_4 C19_4 1_555 1_555
C21_4 C16_4 1_555 1_555
H22_4 C21_4 1_555 1_555
C22_4 C19_4 1_555 1_555
H23_4 C22_4 1_555 1_555
C23_4 C16_4 1_555 1_555
C25_4 O28_4 1_555 1_555
C28_4 C20_4 1_555 1_555
C20_4 C21_4 1_555 1_555
C22_4 C23_4 1_555 1_555
C23_4 C25_4 1_555 1_555
U10_2 O4_4 1_555 1_555
O13_4 U10_2 1_555 1_555
U10_2 O14_4 1_555 1_555
U10_2 O26_4 1_555 1_555
U6 O1_4 1_555 1_555
U9_2 O3_4 1_555 1_555
U4_4 O6_4 1_555 1_555
O3_4 U6 1_555 1_555
O6_4 U6 1_555 1_555
O31_2 C15_4 1_555 1_555
O9_4 U6 1_555 1_555
O10_4 U4_4 1_555 1_555
O33_2 C27_4 1_555 1_555
O16_4 U6 1_555 1_555
O34_2 C27_4 1_555 1_555
O18_4 U6 1_555 1_555
O19_4 U9_2 1_555 1_555
C11_4 O16_4 1_555 1_555
O21_4 U4_4 1_555 1_555
C12_4 C11_4 1_555 1_555
O22_4 U4_4 1_555 1_555
O25_4 U9_2 1_555 1_555
O27_4 U4_4 1_555 1_555
C13_4 C12_4 1_555 1_555
H19_4 C13_4 1_555 1_555
C15_4 C18_4 1_555 1_555
C17_4 C12_4 1_555 1_555
H20_4 C17_4 1_555 1_555
C18_4 C24_4 1_555 1_555
C24_4 C17_4 1_555 1_555
C26_4 O22_4 1_555 1_555
C27_4 C24_4 1_555 1_555
C29_4 C13_4 1_555 1_555
H24_4 C29_4 1_555 1_555
U8_2 O3_4 1_555 1_555
U8_2 O6_4 1_555 1_555
U9_2 O18_4 1_555 1_555
C11_4 O21_4 1_555 1_555
C18_4 C29_4 1_555 1_555
C26_4 H37_4 1_555 1_555

#END
