
###############################################################################
#
# This file contains modified crystal structure data generated from the
# MOF subset of the Cambridge Structural Database (CSD) v543 
# hosted by the Cambridge Crystallographic Data Centre (CCDC).
#
# This work is licensed under the Creative Commons
# Attribution-NonCommercial-ShareAlike 4.0 International License.
# To view a copy of this license, visit
# http://creativecommons.org/licenses/by-nc-sa/4.0/
# or send a letter to
# Creative Commons, PO Box 1866, Mountain View, CA 94042, USA.
#
# CIF created using the CSD Python API on 29 September 2022
# The structure has been converted into the P1 space group
# The structure has a 3D framework
# The original CSD entry COWSEN is in the tetragonal crystal system
# The framework has been calculated to contain at least 10.0% void space
# The void calculation uses a probe of radius 1.32A, grid spacing 0.4
#
###############################################################################

data_COWSEN
_chemical_formula_moiety         '(C96 Ag24 F144 N82)n'
_symmetry_cell_setting           triclinic
_symmetry_space_group_name_H-M   'P 1'
_symmetry_Int_Tables_number      1
_space_group_name_Hall           'P 1'
loop_
_symmetry_equiv_pos_site_id
_symmetry_equiv_pos_as_xyz
1 x,y,z
_cell_length_a                   13.3735(10)
_cell_length_b                   13.3735(10)
_cell_length_c                   39.469(6)
_cell_angle_alpha                90
_cell_angle_beta                 90
_cell_angle_gamma                90
_cell_volume                     7059.05
loop_
_atom_site_label
_atom_site_type_symbol
_atom_site_fract_x
_atom_site_fract_y
_atom_site_fract_z
Ag1 Ag 0.0000 0.5000 0.09753(2)
N1 N 0.0000 0.5000 0.1535(3)
N3 N 0.0092(7) 0.6322(5) 0.0608(2)
N5 N 0.0613(6) 0.7627(6) 0.0305(2)
C4 C 0.0839(8) 0.6957(8) 0.0535(3)
C5 C 0.1857(11) 0.6931(10) 0.0703(4)
F4 F 0.2157(8) 0.7811(6) 0.0783(3)
F5 F 0.2558(8) 0.6651(12) 0.0477(3)
F6 F 0.1929(7) 0.6310(7) 0.0933(3)
Ag3 Ag 0.13998(6) 0.61507(6) 0.24432(2)
Ag6 Ag 0.13998(6) 0.88493(6) 0.00568(2)
Ag7 Ag 0.11507(6) 0.36002(6) 0.25568(2)
N6 N 0.0485(6) 0.4811(6) 0.2072(2)
N8 N 0.0189(6) 0.5485(6) 0.2928(2)
N10 N 0.0346(6) 0.2566(6) 0.0215(2)
N12 N 0.2566(6) 0.5346(6) 0.2715(2)
N15 N 0.0613(6) 0.7373(6) 0.2195(2)
C7 C 0.0713(8) 0.4720(8) 0.1750(3)
C8 C 0.1695(9) 0.4272(10) 0.1642(3)
C9 C 0.0609(8) 0.3327(8) 0.0402(3)
C12 C 0.1630(9) 0.3795(10) 0.0372(3)
F10 F 0.1575(7) 0.3359(8) 0.1525(3)
F11 F 0.2080(6) 0.4758(8) 0.1391(2)
F12 F 0.2315(6) 0.4174(9) 0.1885(2)
F16 F 0.1985(7) 0.4056(10) 0.0664(3)
F17 F 0.1567(8) 0.4665(8) 0.0207(3)
F18 F 0.2261(6) 0.3263(7) 0.0211(3)
Ag8 Ag 0.11507(6) 0.13998(6) 0.99432(2)
Ag1_2 Ag 1.0000 0.5000 0.09753(2)
Ag2 Ag 0.86002(6) 0.38493(6) 0.24432(2)
N1_2 N 1.0000 0.5000 0.1535(3)
N2 N 0.9515(6) 0.5189(6) 0.2072(2)
N4 N 0.9654(6) 0.7434(6) 0.0215(2)
C1 C 0.9287(8) 0.5280(8) 0.1750(3)
C2 C 0.8305(9) 0.5728(10) 0.1642(3)
C3 C 0.9391(8) 0.6673(8) 0.0402(3)
C6 C 0.8370(9) 0.6205(10) 0.0372(3)
F1 F 0.8425(7) 0.6641(8) 0.1525(3)
F2 F 0.7920(6) 0.5242(8) 0.1391(2)
F3 F 0.7685(6) 0.5826(9) 0.1885(2)
F7 F 0.8015(7) 0.5944(10) 0.0664(3)
F8 F 0.8433(8) 0.5335(8) 0.0207(3)
F9 F 0.7739(6) 0.6737(7) 0.0211(3)
Ag4 Ag 0.88493(6) 0.63998(6) 0.25568(2)
Ag9 Ag 0.86002(6) 0.11507(6) 0.00568(2)
N7 N 0.9811(6) 0.4515(6) 0.2928(2)
N9 N 0.9908(7) 0.3678(5) 0.0608(2)
N11 N 0.7434(6) 0.4654(6) 0.2715(2)
N13 N 0.9387(6) 0.2373(6) 0.0305(2)
N14 N 0.9387(6) 0.2627(6) 0.2195(2)
C10 C 0.9161(8) 0.3043(8) 0.0535(3)
C11 C 0.8143(11) 0.3069(10) 0.0703(4)
F13 F 0.7843(8) 0.2189(6) 0.0783(3)
F14 F 0.7442(8) 0.3349(12) 0.0477(3)
F15 F 0.8071(7) 0.3690(7) 0.0933(3)
Ag5 Ag 0.88493(6) 0.86002(6) 0.99432(2)
Ag1_3 Ag 0.5000 0.0000 0.90247(2)
Ag2_2 Ag 0.38493(6) 0.13998(6) 0.75568(2)
N1_3 N 0.5000 0.0000 0.8465(3)
N2_2 N 0.5189(6) 0.0485(6) 0.7928(2)
N4_2 N 0.7434(6) 0.0346(6) 0.9785(2)
C1_2 C 0.5280(8) 0.0713(8) 0.8250(3)
C2_2 C 0.5728(10) 0.1695(9) 0.8358(3)
C3_2 C 0.6673(8) 0.0609(8) 0.9598(3)
C6_2 C 0.6205(10) 0.1630(9) 0.9628(3)
F1_2 F 0.6641(8) 0.1575(7) 0.8475(3)
F2_2 F 0.5242(8) 0.2080(6) 0.8609(2)
F3_2 F 0.5826(9) 0.2315(6) 0.8115(2)
F7_2 F 0.5944(10) 0.1985(7) 0.9336(3)
F8_2 F 0.5335(8) 0.1567(8) 0.9793(3)
F9_2 F 0.6737(7) 0.2261(6) 0.9789(3)
Ag4_2 Ag 0.63998(6) 0.11507(6) 0.74432(2)
N7_2 N 0.4515(6) 0.0189(6) 0.7072(2)
N9_2 N 0.3678(5) 0.0092(7) 0.9392(2)
N11_2 N 0.4654(6) 0.2566(6) 0.7285(2)
N13_2 N 0.2373(6) 0.0613(6) 0.9695(2)
N14_2 N 0.2627(6) 0.0613(6) 0.7805(2)
C10_2 C 0.3043(8) 0.0839(8) 0.9465(3)
C11_2 C 0.3069(10) 0.1857(11) 0.9297(4)
F13_2 F 0.2189(6) 0.2157(8) 0.9217(3)
F14_2 F 0.3349(12) 0.2558(8) 0.9523(3)
F15_2 F 0.3690(7) 0.1929(7) 0.9067(3)
Ag1_4 Ag 0.5000 1.0000 0.90247(2)
N1_4 N 0.5000 1.0000 0.8465(3)
N3_2 N 0.6322(5) 0.9908(7) 0.9392(2)
N5_2 N 0.7627(6) 0.9387(6) 0.9695(2)
C4_2 C 0.6957(8) 0.9161(8) 0.9465(3)
C5_2 C 0.6931(10) 0.8143(11) 0.9297(4)
F4_2 F 0.7811(6) 0.7843(8) 0.9217(3)
F5_2 F 0.6651(12) 0.7442(8) 0.9523(3)
F6_2 F 0.6310(7) 0.8071(7) 0.9067(3)
Ag3_2 Ag 0.61507(6) 0.86002(6) 0.75568(2)
Ag7_2 Ag 0.36002(6) 0.88493(6) 0.74432(2)
N6_2 N 0.4811(6) 0.9515(6) 0.7928(2)
N8_2 N 0.5485(6) 0.9811(6) 0.7072(2)
N10_2 N 0.2566(6) 0.9654(6) 0.9785(2)
N12_2 N 0.5346(6) 0.7434(6) 0.7285(2)
N15_2 N 0.7373(6) 0.9387(6) 0.7805(2)
C7_2 C 0.4720(8) 0.9287(8) 0.8250(3)
C8_2 C 0.4272(10) 0.8305(9) 0.8358(3)
C9_2 C 0.3327(8) 0.9391(8) 0.9598(3)
C12_2 C 0.3795(10) 0.8370(9) 0.9628(3)
F10_2 F 0.3359(8) 0.8425(7) 0.8475(3)
F11_2 F 0.4758(8) 0.7920(6) 0.8609(2)
F12_2 F 0.4174(9) 0.7685(6) 0.8115(2)
F16_2 F 0.4056(10) 0.8015(7) 0.9336(3)
F17_2 F 0.4665(8) 0.8433(8) 0.9793(3)
F18_2 F 0.3263(7) 0.7739(6) 0.9789(3)
Ag1_5 Ag 0.5000 0.5000 0.65247(2)
Ag2_3 Ag 0.63998(6) 0.38493(6) 0.50568(2)
N1_5 N 0.5000 0.5000 0.5965(3)
N2_3 N 0.5485(6) 0.5189(6) 0.5428(2)
N3_3 N 0.4908(7) 0.6322(5) 0.6892(2)
N5_3 N 0.4387(6) 0.7627(6) 0.7195(2)
C1_3 C 0.5713(8) 0.5280(8) 0.5750(3)
C2_3 C 0.6695(9) 0.5728(10) 0.5858(3)
C3_3 C 0.5609(8) 0.6673(8) 0.7098(3)
C4_3 C 0.4161(8) 0.6957(8) 0.6965(3)
C5_3 C 0.3143(11) 0.6931(10) 0.6797(4)
C6_3 C 0.6630(9) 0.6205(10) 0.7128(3)
F1_3 F 0.6575(7) 0.6641(8) 0.5975(3)
F2_3 F 0.7080(6) 0.5242(8) 0.6109(2)
F3_3 F 0.7315(6) 0.5826(9) 0.5615(2)
F4_3 F 0.2843(8) 0.7811(6) 0.6717(3)
F5_3 F 0.2442(8) 0.6651(12) 0.7023(3)
F6_3 F 0.3071(7) 0.6310(7) 0.6567(3)
F7_3 F 0.6985(7) 0.5944(10) 0.6836(3)
F8_3 F 0.6567(8) 0.5335(8) 0.7293(3)
F9_3 F 0.7261(6) 0.6737(7) 0.7289(3)
Ag3_3 Ag 0.36002(6) 0.61507(6) 0.50568(2)
Ag4_3 Ag 0.61507(6) 0.63998(6) 0.49432(2)
Ag7_3 Ag 0.38493(6) 0.36002(6) 0.49432(2)
N6_3 N 0.4515(6) 0.4811(6) 0.5428(2)
N7_3 N 0.5189(6) 0.4515(6) 0.4572(2)
N8_3 N 0.4811(6) 0.5485(6) 0.4572(2)
N9_3 N 0.5092(7) 0.3678(5) 0.6892(2)
N11_3 N 0.7566(6) 0.4654(6) 0.4785(2)
N12_3 N 0.2434(6) 0.5346(6) 0.4785(2)
N13_3 N 0.5613(6) 0.2373(6) 0.7195(2)
N14_3 N 0.5613(6) 0.2627(6) 0.5305(2)
N15_3 N 0.4387(6) 0.7373(6) 0.5305(2)
C7_3 C 0.4287(8) 0.4720(8) 0.5750(3)
C8_3 C 0.3305(9) 0.4272(10) 0.5858(3)
C9_3 C 0.4391(8) 0.3327(8) 0.7098(3)
C10_3 C 0.5839(8) 0.3043(8) 0.6965(3)
C11_3 C 0.6857(11) 0.3069(10) 0.6797(4)
C12_3 C 0.3370(9) 0.3795(10) 0.7128(3)
F10_3 F 0.3425(7) 0.3359(8) 0.5975(3)
F11_3 F 0.2920(6) 0.4758(8) 0.6109(2)
F12_3 F 0.2685(6) 0.4174(9) 0.5615(2)
F13_3 F 0.7157(8) 0.2189(6) 0.6717(3)
F14_3 F 0.7558(8) 0.3349(12) 0.7023(3)
F15_3 F 0.6929(7) 0.3690(7) 0.6567(3)
F16_3 F 0.3015(7) 0.4056(10) 0.6836(3)
F17_3 F 0.3433(8) 0.4665(8) 0.7293(3)
F18_3 F 0.2739(6) 0.3263(7) 0.7289(3)
N7_4 N 0.0485(6) 0.0189(6) 0.0428(2)
Ag1_6 Ag 0.0000 -0.0000 0.84753(2)
N1_6 N 0.0000 0.0000 0.9035(3)
N9_4 N 0.1322(5) 0.0092(7) 0.8108(2)
C10_4 C 0.1957(8) 0.0839(8) 0.8035(3)
C11_4 C 0.1931(10) 0.1857(11) 0.8203(4)
F13_4 F 0.2811(6) 0.2157(8) 0.8283(3)
F14_4 F 0.1651(12) 0.2558(8) 0.7977(3)
F15_4 F 0.1310(7) 0.1929(7) 0.8433(3)
Ag1_7 Ag 0.0000 1.0000 0.84753(2)
N1_7 N 0.0000 1.0000 0.9035(3)
N6_4 N 0.0189(6) 0.9515(6) 0.9572(2)
N10_3 N 0.2434(6) 0.9654(6) 0.7715(2)
C7_4 C 0.0280(8) 0.9287(8) 0.9250(3)
C8_4 C 0.0728(10) 0.8305(9) 0.9142(3)
C9_4 C 0.1673(8) 0.9391(8) 0.7902(3)
C12_4 C 0.1205(10) 0.8370(9) 0.7872(3)
F10_4 F 0.1641(8) 0.8425(7) 0.9025(3)
F11_4 F 0.0242(8) 0.7920(6) 0.8891(2)
F12_4 F 0.0826(9) 0.7685(6) 0.9385(2)
F16_4 F 0.0944(10) 0.8015(7) 0.8164(3)
F17_4 F 0.0335(8) 0.8433(8) 0.7707(3)
F18_4 F 0.1737(7) 0.7739(6) 0.7711(3)
Ag1_8 Ag 1.0000 -0.0000 0.84753(2)
N1_8 N 1.0000 0.0000 0.9035(3)
N2_4 N 0.9811(6) 0.0485(6) 0.9572(2)
N4_3 N 0.7566(6) 0.0346(6) 0.7715(2)
C1_4 C 0.9720(8) 0.0713(8) 0.9250(3)
C2_4 C 0.9272(10) 0.1695(9) 0.9142(3)
C3_4 C 0.8327(8) 0.0609(8) 0.7902(3)
C6_4 C 0.8795(10) 0.1630(9) 0.7872(3)
F1_4 F 0.8359(8) 0.1575(7) 0.9025(3)
F2_4 F 0.9758(8) 0.2080(6) 0.8891(2)
F3_4 F 0.9174(9) 0.2315(6) 0.9385(2)
F7_4 F 0.9056(10) 0.1985(7) 0.8164(3)
F8_4 F 0.9665(8) 0.1567(8) 0.7707(3)
F9_4 F 0.8263(7) 0.2261(6) 0.7711(3)
N8_4 N 0.9515(6) 0.9811(6) 0.0428(2)
Ag1_9 Ag 1.0000 1.0000 0.84753(2)
N1_9 N 1.0000 1.0000 0.9035(3)
N3_4 N 0.8678(5) 0.9908(7) 0.8108(2)
C4_4 C 0.8043(8) 0.9161(8) 0.8035(3)
C5_4 C 0.8069(10) 0.8143(11) 0.8203(4)
F4_4 F 0.7189(6) 0.7843(8) 0.8283(3)
F5_4 F 0.8349(12) 0.7442(8) 0.7977(3)
F6_4 F 0.8690(7) 0.8071(7) 0.8433(3)
Ag1_10 Ag 0.5000 -0.0000 0.59753(2)
N1_10 N 0.5000 -0.0000 0.6535(3)
N3_5 N 0.5092(7) 0.1322(5) 0.5608(2)
N4_4 N 0.4654(6) 0.2434(6) 0.5215(2)
C1_5 C 0.4287(8) 0.0280(8) 0.6750(3)
C2_5 C 0.3305(9) 0.0728(10) 0.6642(3)
C3_5 C 0.4391(8) 0.1673(8) 0.5402(3)
C4_5 C 0.5839(8) 0.1957(8) 0.5535(3)
C5_5 C 0.6857(11) 0.1931(10) 0.5703(4)
C6_5 C 0.3370(9) 0.1205(10) 0.5372(3)
F1_5 F 0.3425(7) 0.1641(8) 0.6525(3)
F2_5 F 0.2920(6) 0.0242(8) 0.6391(2)
F3_5 F 0.2685(6) 0.0826(9) 0.6885(2)
F4_5 F 0.7157(8) 0.2811(6) 0.5783(3)
F5_5 F 0.7558(8) 0.1651(12) 0.5477(3)
F6_5 F 0.6929(7) 0.1310(7) 0.5933(3)
F7_5 F 0.3015(7) 0.0944(10) 0.5664(3)
F8_5 F 0.3433(8) 0.0335(8) 0.5207(3)
F9_5 F 0.2739(6) 0.1737(7) 0.5211(3)
Ag1_11 Ag 0.5000 1.0000 0.59753(2)
N1_11 N 0.5000 1.0000 0.6535(3)
N9_5 N 0.4908(7) 0.8678(5) 0.5608(2)
N10_4 N 0.5346(6) 0.7566(6) 0.5215(2)
C7_5 C 0.5713(8) 0.9720(8) 0.6750(3)
C8_5 C 0.6695(9) 0.9272(10) 0.6642(3)
C9_5 C 0.5609(8) 0.8327(8) 0.5402(3)
C10_5 C 0.4161(8) 0.8043(8) 0.5535(3)
C11_5 C 0.3143(11) 0.8069(10) 0.5703(4)
C12_5 C 0.6630(9) 0.8795(10) 0.5372(3)
F10_5 F 0.6575(7) 0.8359(8) 0.6525(3)
F11_5 F 0.7080(6) 0.9758(8) 0.6391(2)
F12_5 F 0.7315(6) 0.9174(9) 0.6885(2)
F13_5 F 0.2843(8) 0.7189(6) 0.5783(3)
F14_5 F 0.2442(8) 0.8349(12) 0.5477(3)
F15_5 F 0.3071(7) 0.8690(7) 0.5933(3)
F16_5 F 0.6985(7) 0.9056(10) 0.5664(3)
F17_5 F 0.6567(8) 0.9665(8) 0.5207(3)
F18_5 F 0.7261(6) 0.8263(7) 0.5211(3)
Ag1_12 Ag -0.0000 0.5000 0.40247(2)
N1_12 N -0.0000 0.5000 0.3465(3)
N3_6 N 0.1322(5) 0.4908(7) 0.4392(2)
N5_4 N 0.2627(6) 0.4387(6) 0.4695(2)
C1_6 C 0.0280(8) 0.5713(8) 0.3250(3)
C2_6 C 0.0728(10) 0.6695(9) 0.3358(3)
C3_6 C 0.1673(8) 0.5609(8) 0.4598(3)
C4_6 C 0.1957(8) 0.4161(8) 0.4465(3)
C5_6 C 0.1931(10) 0.3143(11) 0.4297(4)
C6_6 C 0.1205(10) 0.6630(9) 0.4628(3)
F1_6 F 0.1641(8) 0.6575(7) 0.3475(3)
F2_6 F 0.0242(8) 0.7080(6) 0.3609(2)
F3_6 F 0.0826(9) 0.7315(6) 0.3115(2)
F4_6 F 0.2811(6) 0.2843(8) 0.4217(3)
F5_6 F 0.1651(12) 0.2442(8) 0.4523(3)
F6_6 F 0.1310(7) 0.3071(7) 0.4067(3)
F7_6 F 0.0944(10) 0.6985(7) 0.4336(3)
F8_6 F 0.0335(8) 0.6567(8) 0.4793(3)
F9_6 F 0.1737(7) 0.7261(6) 0.4789(3)
N12_4 N 0.0346(6) 0.2434(6) 0.2285(2)
N15_4 N 0.2373(6) 0.4387(6) 0.2805(2)
Ag1_13 Ag 1.0000 0.5000 0.40247(2)
N1_13 N 1.0000 0.5000 0.3465(3)
N9_6 N 0.8678(5) 0.5092(7) 0.4392(2)
N11_4 N 0.9654(6) 0.7566(6) 0.2285(2)
N13_4 N 0.7373(6) 0.5613(6) 0.4695(2)
N14_4 N 0.7627(6) 0.5613(6) 0.2805(2)
C7_6 C 0.9720(8) 0.4287(8) 0.3250(3)
C8_6 C 0.9272(10) 0.3305(9) 0.3358(3)
C9_6 C 0.8327(8) 0.4391(8) 0.4598(3)
C10_6 C 0.8043(8) 0.5839(8) 0.4465(3)
C11_6 C 0.8069(10) 0.6857(11) 0.4297(4)
C12_6 C 0.8795(10) 0.3370(9) 0.4628(3)
F10_6 F 0.8359(8) 0.3425(7) 0.3475(3)
F11_6 F 0.9758(8) 0.2920(6) 0.3609(2)
F12_6 F 0.9174(9) 0.2685(6) 0.3115(2)
F13_6 F 0.7189(6) 0.7157(8) 0.4217(3)
F14_6 F 0.8349(12) 0.7558(8) 0.4523(3)
F15_6 F 0.8690(7) 0.6929(7) 0.4067(3)
F16_6 F 0.9056(10) 0.3015(7) 0.4336(3)
F17_6 F 0.9665(8) 0.3433(8) 0.4793(3)
F18_6 F 0.8263(7) 0.2739(6) 0.4789(3)
Ag1_14 Ag -0.0000 -0.0000 0.15247(2)
N1_14 N 0.0000 -0.0000 0.0965(3)
C1_7 C 0.0713(8) 0.0280(8) 0.0750(3)
C2_7 C 0.1695(9) 0.0728(10) 0.0858(3)
C3_7 C 0.0609(8) 0.1673(8) 0.2098(3)
C6_7 C 0.1630(9) 0.1205(10) 0.2128(3)
F1_7 F 0.1575(7) 0.1641(8) 0.0975(3)
F2_7 F 0.2080(6) 0.0242(8) 0.1109(2)
F3_7 F 0.2315(6) 0.0826(9) 0.0615(2)
F7_7 F 0.1985(7) 0.0944(10) 0.1836(3)
F8_7 F 0.1567(8) 0.0335(8) 0.2293(3)
F9_7 F 0.2261(6) 0.1737(7) 0.2289(3)
Ag1_15 Ag -0.0000 1.0000 0.15247(2)
N1_15 N 0.0000 1.0000 0.0965(3)
N9_7 N 0.0092(7) 0.8678(5) 0.1892(2)
C10_7 C 0.0839(8) 0.8043(8) 0.1965(3)
C11_7 C 0.1857(11) 0.8069(10) 0.1797(4)
F13_7 F 0.2157(8) 0.7189(6) 0.1717(3)
F14_7 F 0.2558(8) 0.8349(12) 0.2023(3)
F15_7 F 0.1929(7) 0.8690(7) 0.1567(3)
Ag1_16 Ag 1.0000 -0.0000 0.15247(2)
N1_16 N 1.0000 -0.0000 0.0965(3)
N3_7 N 0.9908(7) 0.1322(5) 0.1892(2)
C4_7 C 0.9161(8) 0.1957(8) 0.1965(3)
C5_7 C 0.8143(11) 0.1931(10) 0.1797(4)
F4_7 F 0.7843(8) 0.2811(6) 0.1717(3)
F5_7 F 0.7442(8) 0.1651(12) 0.2023(3)
F6_7 F 0.8071(7) 0.1310(7) 0.1567(3)
Ag1_17 Ag 1.0000 1.0000 0.15247(2)
N1_17 N 1.0000 1.0000 0.0965(3)
C7_7 C 0.9287(8) 0.9720(8) 0.0750(3)
C8_7 C 0.8305(9) 0.9272(10) 0.0858(3)
C9_7 C 0.9391(8) 0.8327(8) 0.2098(3)
C12_7 C 0.8370(9) 0.8795(10) 0.2128(3)
F10_7 F 0.8425(7) 0.8359(8) 0.0975(3)
F11_7 F 0.7920(6) 0.9758(8) 0.1109(2)
F12_7 F 0.7685(6) 0.9174(9) 0.0615(2)
F16_7 F 0.8015(7) 0.9056(10) 0.1836(3)
F17_7 F 0.8433(8) 0.9665(8) 0.2293(3)
F18_7 F 0.7739(6) 0.8263(7) 0.2289(3)
Ag1_18 Ag 0.5000 0.5000 0.34753(2)
N1_18 N 0.5000 0.5000 0.4035(3)
N3_8 N 0.3678(5) 0.4908(7) 0.3108(2)
C1_8 C 0.4720(8) 0.5713(8) 0.4250(3)
C2_8 C 0.4272(10) 0.6695(9) 0.4142(3)
C3_8 C 0.3327(8) 0.5609(8) 0.2902(3)
C4_8 C 0.3043(8) 0.4161(8) 0.3035(3)
C5_8 C 0.3069(10) 0.3143(11) 0.3203(4)
C6_8 C 0.3795(10) 0.6630(9) 0.2872(3)
F1_8 F 0.3359(8) 0.6575(7) 0.4025(3)
F2_8 F 0.4758(8) 0.7080(6) 0.3891(2)
F3_8 F 0.4174(9) 0.7315(6) 0.4385(2)
F4_8 F 0.2189(6) 0.2843(8) 0.3283(3)
F5_8 F 0.3349(12) 0.2442(8) 0.2977(3)
F6_8 F 0.3690(7) 0.3071(7) 0.3433(3)
F7_8 F 0.4056(10) 0.6985(7) 0.3164(3)
F8_8 F 0.4665(8) 0.6567(8) 0.2707(3)
F9_8 F 0.3263(7) 0.7261(6) 0.2711(3)
N9_8 N 0.6322(5) 0.5092(7) 0.3108(2)
C7_8 C 0.5280(8) 0.4287(8) 0.4250(3)
C8_8 C 0.5728(10) 0.3305(9) 0.4142(3)
C9_8 C 0.6673(8) 0.4391(8) 0.2902(3)
C10_8 C 0.6957(8) 0.5839(8) 0.3035(3)
C11_8 C 0.6931(10) 0.6857(11) 0.3203(4)
C12_8 C 0.6205(10) 0.3370(9) 0.2872(3)
F10_8 F 0.6641(8) 0.3425(7) 0.4025(3)
F11_8 F 0.5242(8) 0.2920(6) 0.3891(2)
F12_8 F 0.5826(9) 0.2685(6) 0.4385(2)
F13_8 F 0.7811(6) 0.7157(8) 0.3283(3)
F14_8 F 0.6651(12) 0.7558(8) 0.2977(3)
F15_8 F 0.6310(7) 0.6929(7) 0.3433(3)
F16_8 F 0.5944(10) 0.3015(7) 0.3164(3)
F17_8 F 0.5335(8) 0.3433(8) 0.2707(3)
F18_8 F 0.6737(7) 0.2739(6) 0.2711(3)
loop_
_geom_bond_atom_site_label_1
_geom_bond_atom_site_label_2
_geom_bond_site_symmetry_1
_geom_bond_site_symmetry_2
Ag1 N1 1_555 1_555
N3 Ag1 1_555 1_555
N5 C4 1_555 1_555
C4 N3 1_555 1_555
C5 C4 1_555 1_555
F4 C5 1_555 1_555
F5 C5 1_555 1_555
F6 C5 1_555 1_555
Ag3 N6 1_555 1_555
Ag6 N5 1_555 1_555
Ag7 N6 1_555 1_555
N8 Ag3 1_555 1_555
N12 Ag3 1_555 1_555
N15 Ag3 1_555 1_555
C7 N1 1_555 1_555
C8 C7 1_555 1_555
C12 C9 1_555 1_555
F10 C8 1_555 1_555
F11 C8 1_555 1_555
F12 C8 1_555 1_555
F16 C12 1_555 1_555
F17 C12 1_555 1_555
F18 C12 1_555 1_555
N6 C7 1_555 1_555
N10 C9 1_555 1_555
Ag1_2 N1_2 1_555 1_555
Ag2 N2 1_555 1_555
N1_2 C1 1_555 1_555
N2 C1 1_555 1_555
C1 C2 1_555 1_555
C2 F1 1_555 1_555
C6 C3 1_555 1_555
F2 C2 1_555 1_555
F3 C2 1_555 1_555
F7 C6 1_555 1_555
F8 C6 1_555 1_555
F9 C6 1_555 1_555
Ag4 N2 1_555 1_555
Ag9 N13 1_555 1_555
N7 Ag2 1_555 1_555
N9 Ag1_2 1_555 1_555
N11 Ag2 1_555 1_555
N13 C10 1_555 1_555
N14 Ag2 1_555 1_555
C10 N9 1_555 1_555
C11 C10 1_555 1_555
F13 C11 1_555 1_555
F14 C11 1_555 1_555
F15 C11 1_555 1_555
N4 C3 1_555 1_555
Ag1_3 N1_3 1_555 1_555
Ag2_2 N2_2 1_555 1_555
N1_3 C1_2 1_555 1_555
N2_2 C1_2 1_555 1_555
C1_2 C2_2 1_555 1_555
C2_2 F1_2 1_555 1_555
C6_2 C3_2 1_555 1_555
F2_2 C2_2 1_555 1_555
F3_2 C2_2 1_555 1_555
F7_2 C6_2 1_555 1_555
F8_2 C6_2 1_555 1_555
F9_2 C6_2 1_555 1_555
Ag4_2 N2_2 1_555 1_555
Ag8 N13_2 1_555 1_555
N7_2 Ag2_2 1_555 1_555
N9_2 Ag1_3 1_555 1_555
N11_2 Ag2_2 1_555 1_555
N13_2 C10_2 1_555 1_555
N14_2 Ag2_2 1_555 1_555
C10_2 N9_2 1_555 1_555
C11_2 C10_2 1_555 1_555
F13_2 C11_2 1_555 1_555
F14_2 C11_2 1_555 1_555
F15_2 C11_2 1_555 1_555
N4_2 C3_2 1_555 1_555
Ag1_4 N1_4 1_555 1_555
N3_2 Ag1_4 1_555 1_555
N5_2 C4_2 1_555 1_555
C4_2 N3_2 1_555 1_555
C5_2 C4_2 1_555 1_555
F4_2 C5_2 1_555 1_555
F5_2 C5_2 1_555 1_555
F6_2 C5_2 1_555 1_555
Ag3_2 N6_2 1_555 1_555
Ag5 N5_2 1_555 1_555
Ag7_2 N6_2 1_555 1_555
N8_2 Ag3_2 1_555 1_555
N12_2 Ag3_2 1_555 1_555
N15_2 Ag3_2 1_555 1_555
C7_2 N1_4 1_555 1_555
C8_2 C7_2 1_555 1_555
C12_2 C9_2 1_555 1_555
F10_2 C8_2 1_555 1_555
F11_2 C8_2 1_555 1_555
F12_2 C8_2 1_555 1_555
F16_2 C12_2 1_555 1_555
F17_2 C12_2 1_555 1_555
F18_2 C12_2 1_555 1_555
N6_2 C7_2 1_555 1_555
N10_2 C9_2 1_555 1_555
Ag1_5 N1_5 1_555 1_555
Ag2_3 N2_3 1_555 1_555
N1_5 C1_3 1_555 1_555
N2_3 C1_3 1_555 1_555
N3_3 Ag1_5 1_555 1_555
N12_2 N5_3 1_555 1_555
N5_3 C4_3 1_555 1_555
C1_3 C2_3 1_555 1_555
C2_3 F1_3 1_555 1_555
C3_3 N3_3 1_555 1_555
C4_3 N3_3 1_555 1_555
C5_3 C4_3 1_555 1_555
C6_3 C3_3 1_555 1_555
F2_3 C2_3 1_555 1_555
F3_3 C2_3 1_555 1_555
F4_3 C5_3 1_555 1_555
F5_3 C5_3 1_555 1_555
F6_3 C5_3 1_555 1_555
F7_3 C6_3 1_555 1_555
F8_3 C6_3 1_555 1_555
F9_3 C6_3 1_555 1_555
Ag3_3 N6_3 1_555 1_555
Ag4_3 N2_3 1_555 1_555
Ag7_2 N5_3 1_555 1_555
Ag7_3 N6_3 1_555 1_555
Ag4_2 N13_3 1_555 1_555
N6_3 N2_3 1_555 1_555
N7_3 Ag2_3 1_555 1_555
N8_3 Ag3_3 1_555 1_555
N9_3 Ag1_5 1_555 1_555
N11_2 N13_3 1_555 1_555
N11_3 Ag2_3 1_555 1_555
N12_3 Ag3_3 1_555 1_555
N13_3 C10_3 1_555 1_555
N14_3 Ag2_3 1_555 1_555
N15_3 Ag3_3 1_555 1_555
C7_3 N1_5 1_555 1_555
C8_3 C7_3 1_555 1_555
C9_3 N9_3 1_555 1_555
C10_3 N9_3 1_555 1_555
C11_3 C10_3 1_555 1_555
C12_3 C9_3 1_555 1_555
F10_3 C8_3 1_555 1_555
F11_3 C8_3 1_555 1_555
F12_3 C8_3 1_555 1_555
F13_3 C11_3 1_555 1_555
F14_3 C11_3 1_555 1_555
F15_3 C11_3 1_555 1_555
F16_3 C12_3 1_555 1_555
F17_3 C12_3 1_555 1_555
F18_3 C12_3 1_555 1_555
N12_2 C3_3 1_555 1_555
Ag4_3 N8_3 1_555 1_555
Ag7_3 N7_3 1_555 1_555
N6_3 C7_3 1_555 1_555
N7_3 N8_3 1_555 1_555
N11_2 C9_3 1_555 1_555
Ag1_6 N1_6 1_555 1_555
N9_4 Ag1_6 1_555 1_555
N14_2 C10_4 1_555 1_555
C10_4 N9_4 1_555 1_555
C11_4 C10_4 1_555 1_555
F13_4 C11_4 1_555 1_555
F14_4 C11_4 1_555 1_555
F15_4 C11_4 1_555 1_555
Ag1_7 N1_7 1_555 1_555
Ag7_2 N10_3 1_555 1_555
C7_4 N1_7 1_555 1_555
C8_4 C7_4 1_555 1_555
C12_4 C9_4 1_555 1_555
F10_4 C8_4 1_555 1_555
F11_4 C8_4 1_555 1_555
F12_4 C8_4 1_555 1_555
F16_4 C12_4 1_555 1_555
F17_4 C12_4 1_555 1_555
F18_4 C12_4 1_555 1_555
N6_4 C7_4 1_555 1_555
N10_3 C9_4 1_555 1_555
Ag1_8 N1_8 1_555 1_555
N1_8 C1_4 1_555 1_555
N2_4 C1_4 1_555 1_555
C1_4 C2_4 1_555 1_555
C2_4 F1_4 1_555 1_555
C6_4 C3_4 1_555 1_555
F2_4 C2_4 1_555 1_555
F3_4 C2_4 1_555 1_555
F7_4 C6_4 1_555 1_555
F8_4 C6_4 1_555 1_555
F9_4 C6_4 1_555 1_555
Ag4_2 N4_3 1_555 1_555
N4_3 C3_4 1_555 1_555
Ag1_9 N1_9 1_555 1_555
N3_4 Ag1_9 1_555 1_555
N15_2 C4_4 1_555 1_555
C4_4 N3_4 1_555 1_555
C5_4 C4_4 1_555 1_555
F4_4 C5_4 1_555 1_555
F5_4 C5_4 1_555 1_555
F6_4 C5_4 1_555 1_555
Ag1_10 N1_10 1_555 1_555
N1_10 C1_5 1_555 1_555
N7_2 C1_5 1_555 1_555
N3_5 Ag1_10 1_555 1_555
N4_4 N14_3 1_555 1_555
N14_3 C4_5 1_555 1_555
C1_5 C2_5 1_555 1_555
C2_5 F1_5 1_555 1_555
C3_5 N3_5 1_555 1_555
C4_5 N3_5 1_555 1_555
C5_5 C4_5 1_555 1_555
C6_5 C3_5 1_555 1_555
F2_5 C2_5 1_555 1_555
F3_5 C2_5 1_555 1_555
F4_5 C5_5 1_555 1_555
F5_5 C5_5 1_555 1_555
F6_5 C5_5 1_555 1_555
F7_5 C6_5 1_555 1_555
F8_5 C6_5 1_555 1_555
F9_5 C6_5 1_555 1_555
Ag7_3 N4_4 1_555 1_555
N4_4 C3_5 1_555 1_555
Ag1_11 N1_11 1_555 1_555
Ag4_3 N10_4 1_555 1_555
N9_5 Ag1_11 1_555 1_555
N10_4 N15_3 1_555 1_555
N15_3 C10_5 1_555 1_555
C7_5 N1_11 1_555 1_555
C8_5 C7_5 1_555 1_555
C9_5 N9_5 1_555 1_555
C10_5 N9_5 1_555 1_555
C11_5 C10_5 1_555 1_555
C12_5 C9_5 1_555 1_555
F10_5 C8_5 1_555 1_555
F11_5 C8_5 1_555 1_555
F12_5 C8_5 1_555 1_555
F13_5 C11_5 1_555 1_555
F14_5 C11_5 1_555 1_555
F15_5 C11_5 1_555 1_555
F16_5 C12_5 1_555 1_555
F17_5 C12_5 1_555 1_555
F18_5 C12_5 1_555 1_555
N8_2 C7_5 1_555 1_555
N10_4 C9_5 1_555 1_555
Ag1_12 N1_12 1_555 1_555
N1_12 C1_6 1_555 1_555
N8 C1_6 1_555 1_555
N3_6 Ag1_12 1_555 1_555
N12_3 N5_4 1_555 1_555
N5_4 C4_6 1_555 1_555
C1_6 C2_6 1_555 1_555
C2_6 F1_6 1_555 1_555
C3_6 N3_6 1_555 1_555
C4_6 N3_6 1_555 1_555
C5_6 C4_6 1_555 1_555
C6_6 C3_6 1_555 1_555
F2_6 C2_6 1_555 1_555
F3_6 C2_6 1_555 1_555
F4_6 C5_6 1_555 1_555
F5_6 C5_6 1_555 1_555
F6_6 C5_6 1_555 1_555
F7_6 C6_6 1_555 1_555
F8_6 C6_6 1_555 1_555
F9_6 C6_6 1_555 1_555
Ag7_3 N5_4 1_555 1_555
N12_4 Ag7 1_555 1_555
N15_4 Ag7 1_555 1_555
N12_3 C3_6 1_555 1_555
Ag1_13 N1_13 1_555 1_555
Ag4_3 N13_4 1_555 1_555
N9_6 Ag1_13 1_555 1_555
N11_3 N13_4 1_555 1_555
N11_4 Ag4 1_555 1_555
N13_4 C10_6 1_555 1_555
N14_4 Ag4 1_555 1_555
C7_6 N1_13 1_555 1_555
C8_6 C7_6 1_555 1_555
C9_6 N9_6 1_555 1_555
C10_6 N9_6 1_555 1_555
C11_6 C10_6 1_555 1_555
C12_6 C9_6 1_555 1_555
F10_6 C8_6 1_555 1_555
F11_6 C8_6 1_555 1_555
F12_6 C8_6 1_555 1_555
F13_6 C11_6 1_555 1_555
F14_6 C11_6 1_555 1_555
F15_6 C11_6 1_555 1_555
F16_6 C12_6 1_555 1_555
F17_6 C12_6 1_555 1_555
F18_6 C12_6 1_555 1_555
N7 C7_6 1_555 1_555
N11_3 C9_6 1_555 1_555
Ag1_14 N1_14 1_555 1_555
N1_14 C1_7 1_555 1_555
N7_4 C1_7 1_555 1_555
C1_7 C2_7 1_555 1_555
C2_7 F1_7 1_555 1_555
C6_7 C3_7 1_555 1_555
F2_7 C2_7 1_555 1_555
F3_7 C2_7 1_555 1_555
F7_7 C6_7 1_555 1_555
F8_7 C6_7 1_555 1_555
F9_7 C6_7 1_555 1_555
N12_4 C3_7 1_555 1_555
Ag1_15 N1_15 1_555 1_555
N9_7 Ag1_15 1_555 1_555
N15 C10_7 1_555 1_555
C10_7 N9_7 1_555 1_555
C11_7 C10_7 1_555 1_555
F13_7 C11_7 1_555 1_555
F14_7 C11_7 1_555 1_555
F15_7 C11_7 1_555 1_555
Ag1_16 N1_16 1_555 1_555
N3_7 Ag1_16 1_555 1_555
N14 C4_7 1_555 1_555
C4_7 N3_7 1_555 1_555
C5_7 C4_7 1_555 1_555
F4_7 C5_7 1_555 1_555
F5_7 C5_7 1_555 1_555
F6_7 C5_7 1_555 1_555
Ag1_17 N1_17 1_555 1_555
C7_7 N1_17 1_555 1_555
C8_7 C7_7 1_555 1_555
C12_7 C9_7 1_555 1_555
F10_7 C8_7 1_555 1_555
F11_7 C8_7 1_555 1_555
F12_7 C8_7 1_555 1_555
F16_7 C12_7 1_555 1_555
F17_7 C12_7 1_555 1_555
F18_7 C12_7 1_555 1_555
N8_4 C7_7 1_555 1_555
N11_4 C9_7 1_555 1_555
Ag1_18 N1_18 1_555 1_555
N1_18 C1_8 1_555 1_555
N8_3 C1_8 1_555 1_555
N3_8 Ag1_18 1_555 1_555
N12 N15_4 1_555 1_555
N15_4 C4_8 1_555 1_555
C1_8 C2_8 1_555 1_555
C2_8 F1_8 1_555 1_555
C3_8 N3_8 1_555 1_555
C4_8 N3_8 1_555 1_555
C5_8 C4_8 1_555 1_555
C6_8 C3_8 1_555 1_555
F2_8 C2_8 1_555 1_555
F3_8 C2_8 1_555 1_555
F4_8 C5_8 1_555 1_555
F5_8 C5_8 1_555 1_555
F6_8 C5_8 1_555 1_555
F7_8 C6_8 1_555 1_555
F8_8 C6_8 1_555 1_555
F9_8 C6_8 1_555 1_555
N9_8 Ag1_18 1_555 1_555
N11 N14_4 1_555 1_555
N14_4 C10_8 1_555 1_555
C7_8 N1_18 1_555 1_555
C8_8 C7_8 1_555 1_555
C9_8 N9_8 1_555 1_555
C10_8 N9_8 1_555 1_555
C11_8 C10_8 1_555 1_555
C12_8 C9_8 1_555 1_555
F10_8 C8_8 1_555 1_555
F11_8 C8_8 1_555 1_555
F12_8 C8_8 1_555 1_555
F13_8 C11_8 1_555 1_555
F14_8 C11_8 1_555 1_555
F15_8 C11_8 1_555 1_555
F16_8 C12_8 1_555 1_555
F17_8 C12_8 1_555 1_555
F18_8 C12_8 1_555 1_555
N12 C3_8 1_555 1_555
N7_3 C7_8 1_555 1_555
N11 C9_8 1_555 1_555

#END
