
###############################################################################
#
# This file contains modified crystal structure data generated from the
# MOF subset of the Cambridge Structural Database (CSD) v543 
# hosted by the Cambridge Crystallographic Data Centre (CCDC).
#
# This work is licensed under the Creative Commons
# Attribution-NonCommercial-ShareAlike 4.0 International License.
# To view a copy of this license, visit
# http://creativecommons.org/licenses/by-nc-sa/4.0/
# or send a letter to
# Creative Commons, PO Box 1866, Mountain View, CA 94042, USA.
#
# CIF created using the CSD Python API on 29 September 2022
# The structure has been converted into the P1 space group
# The structure has a 3D framework
# The original CSD entry COWXOC is in the monoclinic crystal system
# The framework has been calculated to contain at least 10.0% void space
# The void calculation uses a probe of radius 1.32A, grid spacing 0.4
# H atom positions have been added when not included in the experimental data
#
###############################################################################

data_COWXOC
_chemical_formula_moiety         '(C304 H344 Cd16 N40 O72)n'
_symmetry_cell_setting           triclinic
_symmetry_space_group_name_H-M   'P 1'
_symmetry_Int_Tables_number      1
_space_group_name_Hall           'P 1'
loop_
_symmetry_equiv_pos_site_id
_symmetry_equiv_pos_as_xyz
1 x,y,z
_cell_length_a                   25.765(3)
_cell_length_b                   18.5139(18)
_cell_length_c                   20.060(2)
_cell_angle_alpha                90
_cell_angle_beta                 97.1160(10)
_cell_angle_gamma                90
_cell_volume                     9495.13
loop_
_atom_site_label
_atom_site_type_symbol
_atom_site_fract_x
_atom_site_fract_y
_atom_site_fract_z
C5 C 0.15293(14) 0.1251(3) 0.03848(19)
H5 H 0.1615 0.1766 0.0408
C6 C 0.23853(16) 0.0868(3) 0.0201(2)
H6 H 0.2430 0.0692 0.0654
H8 H 0.2500 0.1361 0.0196
C8 C 0.14222(16) 0.0919(2) 0.1035(2)
O3 O 0.09781(10) 0.10413(16) 0.12517(14)
O4 O 0.17936(10) 0.06011(15) 0.13701(13)
C1 C 0.18105(17) 0.0824(2) 0.9917(2)
C2 C 0.17397(15) 0.1191(2) 0.92353(19)
C3 C 0.11314(17) 0.1111(3) 0.9190(2)
H1 H 0.1016 0.0682 0.8935
H2 H 0.0959 0.1528 0.8970
C4 C 0.10015(17) 0.1050(3) 0.9906(2)
H3 H 0.0723 0.1381 0.9979
H4 H 0.0891 0.0562 0.9996
H7 H 0.2589 0.0580 0.9932
C9 C 0.19945(16) 0.0815(2) 0.8703(2)
C10 C 0.18259(17) 0.1963(2) 0.9126(2)
H12 H 0.1521 0.2167 0.8871
H13 H 0.1892 0.2204 0.9552
H14 H 0.2122 0.2023 0.8883
C11 C 0.27057(15) 0.2618(2) 0.6961(2)
C12 C 0.27564(15) 0.1878(2) 0.66195(18)
C13 C 0.22483(16) 0.1940(2) 0.60595(19)
H15 H 0.1953 0.1699 0.6219
H16 H 0.2319 0.1705 0.5648
C14 C 0.21174(17) 0.2731(3) 0.5922(2)
H17 H 0.2119 0.2846 0.5450
H18 H 0.1778 0.2853 0.6053
C15 C 0.25849(15) 0.3152(2) 0.6386(2)
H19 H 0.2889 0.3214 0.6143
C16 C 0.32226(15) 0.2793(2) 0.7393(2)
H20 H 0.3467 0.2408 0.7358
H21 H 0.3363 0.3235 0.7239
H22 H 0.3163 0.2847 0.7853
C17 C 0.22779(16) 0.2616(2) 0.7454(2)
C18 C 0.27395(17) 0.1236(2) 0.7033(2)
C19 C 0.23843(14) 0.3882(2) 0.6595(2)
C20 C 0.32487(16) 0.1897(3) 0.6276(2)
H23 H 0.3180 0.1676 0.5841
H24 H 0.3355 0.2389 0.6227
H25 H 0.3522 0.1637 0.6543
H36 H 0.3745 0.0182 0.4509
O1 O 0.16672(11) 0.05048(17) 0.83080(13)
O2 O 0.24924(11) 0.08383(16) 0.86881(14)
O5 O 0.24017(10) 0.07902(15) 0.70141(13)
O6 O 0.31536(11) 0.11742(15) 0.74660(13)
Cd1 Cd 0.300390(11) 0.021240(15) 0.811640(15)
O7 O 0.26357(10) 0.42212(16) 0.70739(14)
O8 O 0.20073(11) 0.41407(15) 0.62537(13)
N6 N 0.36855(13) 0.06437(19) 0.89082(16)
Cd4 Cd 0.199610(11) 0.521240(15) 0.688360(15)
Cd5 Cd 0.174450(11) 0.002030(16) 0.731180(15)
Cd7 Cd 0.325550(11) 0.502030(16) 0.768820(15)
H41 H 0.237914 0.221597 0.784661
H42 H 0.225816 0.314836 0.768036
H43 H 0.189955 0.248228 0.717712
H11 H 0.1568 0.9798 0.0165
Cd6 Cd 0.174450(11) 0.997970(16) 0.231180(15)
C7 C 0.17470(19) 0.9997(3) 0.9815(3)
H9 H 0.1548 0.9902 0.9387
H10 H 0.2086 0.9777 0.9829
C21 C 0.44562(15) 0.8319(2) 0.62701(19)
C22 C 0.44950(14) 0.8255(2) 0.55830(18)
C23 C 0.50150(14) 0.7501(2) 0.61730(18)
C24 C 0.41152(14) 0.8732(2) 0.6638(2)
C25 C 0.36178(13) 0.9046(2) 0.63640(18)
H26 H 0.3483 0.8976 0.5917
C26 C 0.33558(16) 0.9445(2) 0.6783(2)
H27 H 0.3057 0.9686 0.6591
C27 C 0.39512(14) 0.9272(2) 0.7703(2)
H28 H 0.4082 0.9389 0.8143
C28 C 0.42509(17) 0.8818(2) 0.7305(2)
H29 H 0.4545 0.8580 0.7514
C29 C 0.54089(14) 0.6932(2) 0.63625(19)
C30 C 0.55843(15) 0.6452(2) 0.59273(18)
H30 H 0.5455 0.6472 0.5474
C31 C 0.59519(16) 0.5938(2) 0.6152(2)
H31 H 0.6081 0.5633 0.5843
C32 C 0.59452(16) 0.6314(2) 0.72331(19)
H32 H 0.6060 0.6270 0.7689
C33 C 0.55769(13) 0.6867(2) 0.70272(17)
H33 H 0.5455 0.7175 0.7339
C34 C 0.42297(16) 0.8633(2) 0.50012(18)
C35 C 0.40633(15) 0.8265(2) 0.43955(19)
H34 H 0.4147 0.7781 0.4343
C36 C 0.37757(17) 0.8636(2) 0.3887(2)
H35 H 0.3635 0.8381 0.3507
C37 C 0.38409(16) 0.9701(2) 0.4471(2)
C38 C 0.41353(14) 0.9385(2) 0.4998(2)
H37 H 0.4277 0.9665 0.5360
N1 N 0.47692(11) 0.78376(18) 0.66082(14)
N2 N 0.48454(12) 0.77345(19) 0.55152(16)
H38 H 0.4945 0.7577 0.5148
N3 N 0.34852(12) 0.95228(17) 0.74333(16)
N4 N 0.61309(11) 0.58667(18) 0.68225(15)
N5 N 0.36855(13) 0.93563(19) 0.39082(16)
Cd2 Cd 0.674450(11) 0.502030(16) 0.731180(15)
O9 O 0.59680(10) 0.43600(15) 0.75324(14)
H39 H 0.5812 0.4041 0.7277
H40 H 0.5875 0.4501 0.7903
O10 O 0.66672(11) 0.55048(17) 0.83080(13)
O11 O 0.67936(10) 0.43989(15) 0.63701(13)
O12 O 0.74017(10) 0.57902(15) 0.70141(13)
Cd3 Cd 0.300390(11) 0.978760(15) 0.311640(15)
O13 O 0.23643(10) 0.92212(16) 0.79261(14)
O14 O 0.73643(10) 0.42212(16) 0.79261(14)
O15 O 0.29927(11) 0.91407(15) 0.87463(13)
C1_2 C 0.81895(17) 0.0824(2) 0.5083(2)
C2_2 C 0.82603(15) 0.1191(2) 0.57647(19)
C3_2 C 0.88686(17) 0.1111(3) 0.5810(2)
H1_2 H 0.8984 0.0682 0.6065
H2_2 H 0.9041 0.1528 0.6030
C4_2 C 0.89985(17) 0.1050(3) 0.5094(2)
H3_2 H 0.9277 0.1381 0.5021
H4_2 H 0.9109 0.0562 0.5004
C5_2 C 0.84707(14) 0.1251(3) 0.46152(19)
H5_2 H 0.8385 0.1766 0.4592
C6_2 C 0.76147(16) 0.0868(3) 0.4799(2)
H6_2 H 0.7570 0.0692 0.4346
H7_2 H 0.7411 0.0580 0.5068
H8_2 H 0.7500 0.1361 0.4804
C8_2 C 0.85778(16) 0.0919(2) 0.3965(2)
C9_2 C 0.80055(16) 0.0815(2) 0.6297(2)
C10_2 C 0.81741(17) 0.1963(2) 0.5874(2)
H12_2 H 0.8479 0.2167 0.6129
H13_2 H 0.8108 0.2204 0.5448
H14_2 H 0.7878 0.2023 0.6117
C11_2 C 0.72943(15) 0.2618(2) 0.8039(2)
C12_2 C 0.72436(15) 0.1878(2) 0.83805(18)
C13_2 C 0.77517(16) 0.1940(2) 0.89405(19)
H15_2 H 0.8047 0.1699 0.8781
H16_2 H 0.7681 0.1705 0.9352
C14_2 C 0.78826(17) 0.2731(3) 0.9078(2)
H17_2 H 0.7881 0.2846 0.9550
H18_2 H 0.8222 0.2853 0.8947
C15_2 C 0.74151(15) 0.3152(2) 0.8614(2)
H19_2 H 0.7111 0.3214 0.8857
C16_2 C 0.67774(15) 0.2793(2) 0.7607(2)
H20_2 H 0.6533 0.2408 0.7642
H21_2 H 0.6637 0.3235 0.7761
H22_2 H 0.6837 0.2847 0.7147
C17_2 C 0.77221(16) 0.2616(2) 0.7546(2)
C18_2 C 0.72605(17) 0.1236(2) 0.7967(2)
C19_2 C 0.76157(14) 0.3882(2) 0.8405(2)
C20_2 C 0.67513(16) 0.1897(3) 0.8724(2)
H23_2 H 0.6820 0.1676 0.9159
H24_2 H 0.6645 0.2389 0.8773
H25_2 H 0.6478 0.1637 0.8457
O1_2 O 0.83328(11) 0.05048(17) 0.66920(13)
O2_2 O 0.75076(11) 0.08383(16) 0.63119(14)
O3_2 O 0.90219(10) 0.10413(16) 0.37483(14)
O4_2 O 0.82064(10) 0.06011(15) 0.36299(13)
O5_2 O 0.75983(10) 0.07902(15) 0.79859(13)
O6_2 O 0.68464(11) 0.11742(15) 0.75340(13)
Cd1_2 Cd 0.699610(11) 0.021240(15) 0.688360(15)
O8_2 O 0.79927(11) 0.41407(15) 0.87463(13)
N6_2 N 0.63145(13) 0.06437(19) 0.60918(16)
Cd4_2 Cd 0.800390(11) 0.521240(15) 0.811640(15)
Cd5_2 Cd 0.825550(11) 0.002030(16) 0.768820(15)
H41_2 H 0.762086 0.221597 0.715339
H42_2 H 0.774184 0.314836 0.731964
H43_2 H 0.810045 0.248228 0.782288
C35_2 C 0.59367(15) 0.8265(2) 0.06045(19)
H34_2 H 0.5853 0.7781 0.0657
C36_2 C 0.62243(17) 0.8636(2) 0.1113(2)
H35_2 H 0.6365 0.8381 0.1493
C37_2 C 0.61591(16) 0.9701(2) 0.0529(2)
C38_2 C 0.58647(14) 0.9385(2) 0.0002(2)
N5_2 N 0.63145(13) 0.93563(19) 0.10918(16)
Cd3_2 Cd 0.699610(11) 0.978760(15) 0.188360(15)
C7_2 C 0.82530(19) 0.9997(3) 0.5185(3)
H9_2 H 0.8452 0.9902 0.5613
H10_2 H 0.7914 0.9777 0.5171
H11_2 H 0.8432 0.9798 0.4835
C21_2 C 0.55438(15) 0.8319(2) 0.87299(19)
C22_2 C 0.55050(14) 0.8255(2) 0.94170(18)
C23_2 C 0.49850(14) 0.7501(2) 0.88270(18)
C24_2 C 0.58848(14) 0.8732(2) 0.8362(2)
C25_2 C 0.63822(13) 0.9046(2) 0.86360(18)
H26_2 H 0.6517 0.8976 0.9083
C26_2 C 0.66442(16) 0.9445(2) 0.8217(2)
H27_2 H 0.6943 0.9686 0.8409
C27_2 C 0.60488(14) 0.9272(2) 0.7297(2)
H28_2 H 0.5918 0.9389 0.6857
C28_2 C 0.57491(17) 0.8818(2) 0.7695(2)
H29_2 H 0.5455 0.8580 0.7486
C29_2 C 0.45911(14) 0.6932(2) 0.86375(19)
C30_2 C 0.44157(15) 0.6452(2) 0.90727(18)
H30_2 H 0.4545 0.6472 0.9526
C31_2 C 0.40481(16) 0.5938(2) 0.8848(2)
H31_2 H 0.3919 0.5633 0.9157
C32_2 C 0.40548(16) 0.6314(2) 0.77669(19)
H32_2 H 0.3940 0.6270 0.7311
C33_2 C 0.44231(13) 0.6867(2) 0.79728(17)
H33_2 H 0.4545 0.7175 0.7661
C34_2 C 0.57703(16) 0.8633(2) 0.99988(18)
H37_2 H 0.5723 0.9665 0.9640
N1_2 N 0.52308(11) 0.78376(18) 0.83918(14)
N2_2 N 0.51546(12) 0.77345(19) 0.94848(16)
H38_2 H 0.5055 0.7577 0.9852
N3_2 N 0.65148(12) 0.95228(17) 0.75667(16)
N4_2 N 0.38691(11) 0.58667(18) 0.81775(15)
O9_2 O 0.40320(10) 0.43600(15) 0.74676(14)
H39_2 H 0.4188 0.4041 0.7723
H40_2 H 0.4125 0.4501 0.7097
O10_2 O 0.33328(11) 0.55048(17) 0.66920(13)
O11_2 O 0.32064(10) 0.43989(15) 0.86299(13)
O12_2 O 0.25983(10) 0.57902(15) 0.79859(13)
Cd6_2 Cd 0.825550(11) 0.997970(16) 0.268820(15)
O13_2 O 0.76357(10) 0.92212(16) 0.70739(14)
O15_2 O 0.70073(11) 0.91407(15) 0.62537(13)
C23_3 C 0.00150(14) 0.2501(2) 0.61730(18)
C29_3 C 0.04089(14) 0.1932(2) 0.63625(19)
C30_3 C 0.05843(15) 0.1452(2) 0.59273(18)
H30_3 H 0.0455 0.1472 0.5474
C31_3 C 0.09519(16) 0.0938(2) 0.6152(2)
H31_3 H 0.1081 0.0633 0.5843
C32_3 C 0.09452(16) 0.1314(2) 0.72331(19)
H32_3 H 0.1060 0.1270 0.7689
C33_3 C 0.05769(13) 0.1867(2) 0.70272(17)
H33_3 H 0.0455 0.2175 0.7339
N4_3 N 0.11309(11) 0.08667(18) 0.68225(15)
O9_3 O 0.09680(10) 0.93600(15) 0.75324(14)
H39_3 H 0.0812 0.9041 0.7277
H40_3 H 0.0875 0.9501 0.7903
O11_3 O 0.17936(10) 0.93989(15) 0.63701(13)
C5_3 C 0.65293(14) 0.6251(3) 0.03848(19)
H5_3 H 0.6615 0.6766 0.0408
C6_3 C 0.73853(16) 0.5868(3) 0.0201(2)
H6_3 H 0.7430 0.5692 0.0654
H8_3 H 0.7500 0.6361 0.0196
H11_3 H 0.6568 0.4798 0.0165
C8_3 C 0.64222(16) 0.5919(2) 0.1035(2)
O3_3 O 0.59781(10) 0.60413(16) 0.12517(14)
O4_3 O 0.67936(10) 0.56011(15) 0.13701(13)
Cd6_3 Cd 0.674450(11) 0.497970(16) 0.231180(15)
C1_3 C 0.68105(17) 0.5824(2) 0.9917(2)
C2_3 C 0.67397(15) 0.6191(2) 0.92353(19)
C3_3 C 0.61314(17) 0.6111(3) 0.9190(2)
H1_3 H 0.6016 0.5682 0.8935
H2_3 H 0.5959 0.6528 0.8970
C4_3 C 0.60015(17) 0.6050(3) 0.9906(2)
H3_3 H 0.5723 0.6381 0.9979
H4_3 H 0.5891 0.5562 0.9996
H7_3 H 0.7589 0.5580 0.9932
C7_3 C 0.67470(19) 0.4997(3) 0.9815(3)
H9_3 H 0.6548 0.4902 0.9387
H10_3 H 0.7086 0.4777 0.9829
C9_3 C 0.69945(16) 0.5815(2) 0.8703(2)
C10_3 C 0.68259(17) 0.6963(2) 0.9126(2)
H12_3 H 0.6521 0.7167 0.8871
H13_3 H 0.6892 0.7204 0.9552
H14_3 H 0.7122 0.7023 0.8883
C11_3 C 0.77057(15) 0.7618(2) 0.6961(2)
C12_3 C 0.77564(15) 0.6878(2) 0.66195(18)
C13_3 C 0.72483(16) 0.6940(2) 0.60595(19)
H15_3 H 0.6953 0.6699 0.6219
H16_3 H 0.7319 0.6705 0.5648
C14_3 C 0.71174(17) 0.7731(3) 0.5922(2)
H17_3 H 0.7119 0.7846 0.5450
H18_3 H 0.6778 0.7853 0.6053
C15_3 C 0.75849(15) 0.8152(2) 0.6386(2)
H19_3 H 0.7889 0.8214 0.6143
C16_3 C 0.82226(15) 0.7793(2) 0.7393(2)
H20_3 H 0.8467 0.7408 0.7358
H21_3 H 0.8363 0.8235 0.7239
H22_3 H 0.8163 0.7847 0.7853
C17_3 C 0.72779(16) 0.7616(2) 0.7454(2)
C18_3 C 0.77395(17) 0.6236(2) 0.7033(2)
C19_3 C 0.73843(14) 0.8882(2) 0.6595(2)
C20_3 C 0.82487(16) 0.6897(3) 0.6276(2)
H23_3 H 0.8180 0.6676 0.5841
H24_3 H 0.8355 0.7389 0.6227
H25_3 H 0.8522 0.6637 0.6543
C21_3 C 0.94562(15) 0.3319(2) 0.62701(19)
C22_3 C 0.94950(14) 0.3255(2) 0.55830(18)
C24_3 C 0.91152(14) 0.3732(2) 0.6638(2)
C25_3 C 0.86178(13) 0.4046(2) 0.63640(18)
H26_3 H 0.8483 0.3976 0.5917
C26_3 C 0.83558(16) 0.4445(2) 0.6783(2)
H27_3 H 0.8057 0.4686 0.6591
C27_3 C 0.89512(14) 0.4272(2) 0.7703(2)
H28_3 H 0.9082 0.4389 0.8143
C28_3 C 0.92509(17) 0.3818(2) 0.7305(2)
H29_3 H 0.9545 0.3580 0.7514
C34_3 C 0.92297(16) 0.3633(2) 0.50012(18)
C35_3 C 0.90633(15) 0.3265(2) 0.43955(19)
H34_3 H 0.9147 0.2781 0.4343
C36_3 C 0.87757(17) 0.3636(2) 0.3887(2)
H35_3 H 0.8635 0.3381 0.3507
C37_3 C 0.88409(16) 0.4701(2) 0.4471(2)
H36_2 H 0.8745 0.5182 0.4509
C38_3 C 0.91353(14) 0.4385(2) 0.4998(2)
H37_3 H 0.9277 0.4665 0.5360
N1_3 N 0.97692(11) 0.28376(18) 0.66082(14)
N2_3 N 0.98454(12) 0.27345(19) 0.55152(16)
H38_3 H 0.9945 0.2577 0.5148
N3_3 N 0.84852(12) 0.45228(17) 0.74333(16)
N5_3 N 0.86855(13) 0.43563(19) 0.39082(16)
O2_3 O 0.74924(11) 0.58383(16) 0.86881(14)
O6_3 O 0.81536(11) 0.61742(15) 0.74660(13)
N6_3 N 0.86855(13) 0.56437(19) 0.89082(16)
Cd3_3 Cd 0.800390(11) 0.478760(15) 0.311640(15)
H41_3 H 0.737914 0.721597 0.784661
H42_3 H 0.725816 0.814836 0.768036
H43_3 H 0.689955 0.748228 0.717712
C35_4 C 0.09367(15) 0.3265(2) 0.06045(19)
H34_4 H 0.0853 0.2781 0.0657
C36_4 C 0.12243(17) 0.3636(2) 0.1113(2)
H35_4 H 0.1365 0.3381 0.1493
C37_4 C 0.11591(16) 0.4701(2) 0.0529(2)
H36_3 H 0.1255 0.5182 0.0491
C38_4 C 0.08647(14) 0.4385(2) 0.0002(2)
N5_4 N 0.13145(13) 0.43563(19) 0.10918(16)
Cd3_4 Cd 0.199610(11) 0.478760(15) 0.188360(15)
C1_4 C 0.31895(17) 0.5824(2) 0.5083(2)
C2_4 C 0.32603(15) 0.6191(2) 0.57647(19)
C3_4 C 0.38686(17) 0.6111(3) 0.5810(2)
H1_4 H 0.3984 0.5682 0.6065
H2_4 H 0.4041 0.6528 0.6030
C4_4 C 0.39985(17) 0.6050(3) 0.5094(2)
H3_4 H 0.4277 0.6381 0.5021
H4_4 H 0.4109 0.5562 0.5004
C5_4 C 0.34707(14) 0.6251(3) 0.46152(19)
H5_4 H 0.3385 0.6766 0.4592
C6_4 C 0.26147(16) 0.5868(3) 0.4799(2)
H6_4 H 0.2570 0.5692 0.4346
H7_4 H 0.2411 0.5580 0.5068
H8_4 H 0.2500 0.6361 0.4804
C7_4 C 0.32530(19) 0.4997(3) 0.5185(3)
H9_4 H 0.3452 0.4902 0.5613
H10_4 H 0.2914 0.4777 0.5171
H11_4 H 0.3432 0.4798 0.4835
C8_4 C 0.35778(16) 0.5919(2) 0.3965(2)
C9_4 C 0.30055(16) 0.5815(2) 0.6297(2)
C10_4 C 0.31741(17) 0.6963(2) 0.5874(2)
H12_4 H 0.3479 0.7167 0.6129
H13_4 H 0.3108 0.7204 0.5448
H14_4 H 0.2878 0.7023 0.6117
C11_4 C 0.22943(15) 0.7618(2) 0.8039(2)
C12_4 C 0.22436(15) 0.6878(2) 0.83805(18)
C13_4 C 0.27517(16) 0.6940(2) 0.89405(19)
H15_4 H 0.3047 0.6699 0.8781
H16_4 H 0.2681 0.6705 0.9352
C14_4 C 0.28826(17) 0.7731(3) 0.9078(2)
H17_4 H 0.2881 0.7846 0.9550
H18_4 H 0.3222 0.7853 0.8947
C15_4 C 0.24151(15) 0.8152(2) 0.8614(2)
H19_4 H 0.2111 0.8214 0.8857
C16_4 C 0.17774(15) 0.7793(2) 0.7607(2)
H20_4 H 0.1533 0.7408 0.7642
H21_4 H 0.1637 0.8235 0.7761
H22_4 H 0.1837 0.7847 0.7147
C17_4 C 0.27221(16) 0.7616(2) 0.7546(2)
C18_4 C 0.22605(17) 0.6236(2) 0.7967(2)
C19_4 C 0.26157(14) 0.8882(2) 0.8405(2)
C20_4 C 0.17513(16) 0.6897(3) 0.8724(2)
H23_4 H 0.1820 0.6676 0.9159
H24_4 H 0.1645 0.7389 0.8773
H25_4 H 0.1478 0.6637 0.8457
C21_4 C 0.05438(15) 0.3319(2) 0.87299(19)
C22_4 C 0.05050(14) 0.3255(2) 0.94170(18)
C24_4 C 0.08848(14) 0.3732(2) 0.8362(2)
C25_4 C 0.13822(13) 0.4046(2) 0.86360(18)
H26_4 H 0.1517 0.3976 0.9083
C26_4 C 0.16442(16) 0.4445(2) 0.8217(2)
H27_4 H 0.1943 0.4686 0.8409
C27_4 C 0.10488(14) 0.4272(2) 0.7297(2)
H28_4 H 0.0918 0.4389 0.6857
C28_4 C 0.07491(17) 0.3818(2) 0.7695(2)
H29_4 H 0.0455 0.3580 0.7486
C34_4 C 0.07703(16) 0.3633(2) 0.99988(18)
H37_4 H 0.0723 0.4665 0.9640
N1_4 N 0.02308(11) 0.28376(18) 0.83918(14)
N2_4 N 0.01546(12) 0.27345(19) 0.94848(16)
H38_4 H 0.0055 0.2577 0.9852
N3_4 N 0.15148(12) 0.45228(17) 0.75667(16)
O2_4 O 0.25076(11) 0.58383(16) 0.63119(14)
O3_4 O 0.40219(10) 0.60413(16) 0.37483(14)
O4_4 O 0.32064(10) 0.56011(15) 0.36299(13)
O6_4 O 0.18464(11) 0.61742(15) 0.75340(13)
N6_4 N 0.13145(13) 0.56437(19) 0.60918(16)
Cd6_4 Cd 0.325550(11) 0.497970(16) 0.268820(15)
H41_4 H 0.262086 0.721597 0.715339
H42_4 H 0.274184 0.814836 0.731964
H43_4 H 0.310045 0.748228 0.782288
C23_4 C 0.99850(14) 0.2501(2) 0.88270(18)
C29_4 C 0.95911(14) 0.1932(2) 0.86375(19)
C30_4 C 0.94157(15) 0.1452(2) 0.90727(18)
H30_4 H 0.9545 0.1472 0.9526
C31_4 C 0.90481(16) 0.0938(2) 0.8848(2)
H31_4 H 0.8919 0.0633 0.9157
C32_4 C 0.90548(16) 0.1314(2) 0.77669(19)
H32_4 H 0.8940 0.1270 0.7311
C33_4 C 0.94231(13) 0.1867(2) 0.79728(17)
H33_4 H 0.9545 0.2175 0.7661
N4_4 N 0.88691(11) 0.08667(18) 0.81775(15)
O9_4 O 0.90320(10) 0.93600(15) 0.74676(14)
H39_4 H 0.9188 0.9041 0.7723
H40_4 H 0.9125 0.9501 0.7097
O11_4 O 0.82064(10) 0.93989(15) 0.86299(13)
C7_5 C 0.82530(19) 0.0003(3) 0.0185(3)
H9_5 H 0.8452 0.0098 0.0613
H10_5 H 0.7914 0.0223 0.0171
C21_5 C 0.55438(15) 0.1681(2) 0.37299(19)
C22_5 C 0.55050(14) 0.1745(2) 0.44170(18)
C23_5 C 0.49850(14) 0.2499(2) 0.38270(18)
C24_5 C 0.58848(14) 0.1268(2) 0.3362(2)
C25_5 C 0.63822(13) 0.0954(2) 0.36360(18)
H26_5 H 0.6517 0.1024 0.4083
C26_5 C 0.66442(16) 0.0555(2) 0.3217(2)
H27_5 H 0.6943 0.0314 0.3409
C27_5 C 0.60488(14) 0.0728(2) 0.2297(2)
H28_5 H 0.5918 0.0611 0.1857
C28_5 C 0.57491(17) 0.1182(2) 0.2695(2)
H29_5 H 0.5455 0.1420 0.2486
C29_5 C 0.45911(14) 0.3068(2) 0.36375(19)
C30_5 C 0.44157(15) 0.3548(2) 0.40727(18)
H30_5 H 0.4545 0.3528 0.4526
C31_5 C 0.40481(16) 0.4062(2) 0.3848(2)
H31_5 H 0.3919 0.4367 0.4157
C32_5 C 0.40548(16) 0.3686(2) 0.27669(19)
H32_5 H 0.3940 0.3730 0.2311
C33_5 C 0.44231(13) 0.3133(2) 0.29728(17)
H33_5 H 0.4545 0.2825 0.2661
C34_5 C 0.57703(16) 0.1367(2) 0.49988(18)
C35_5 C 0.59367(15) 0.1735(2) 0.56045(19)
H34_5 H 0.5853 0.2219 0.5657
C36_5 C 0.62243(17) 0.1364(2) 0.6113(2)
H35_5 H 0.6365 0.1619 0.6493
C37_5 C 0.61591(16) 0.0299(2) 0.5529(2)
C38_5 C 0.58647(14) 0.0615(2) 0.5002(2)
H37_5 H 0.5723 0.0335 0.4640
N1_5 N 0.52308(11) 0.21624(18) 0.33918(14)
N2_5 N 0.51546(12) 0.22655(19) 0.44848(16)
H38_5 H 0.5055 0.2423 0.4852
N3_5 N 0.65148(12) 0.04772(17) 0.25667(16)
N4_5 N 0.38691(11) 0.41333(18) 0.31775(15)
O9_5 O 0.40320(10) 0.56400(15) 0.24676(14)
H39_5 H 0.4188 0.5959 0.2723
H40_5 H 0.4125 0.5499 0.2097
O10_3 O 0.33328(11) 0.44952(17) 0.16920(13)
O12_3 O 0.25983(10) 0.42098(15) 0.29859(13)
O13_3 O 0.76357(10) 0.07788(16) 0.20739(14)
O14_2 O 0.26357(10) 0.57788(16) 0.20739(14)
O15_3 O 0.70073(11) 0.08593(15) 0.12537(13)
H11_5 H 0.8432 0.0202 0.9835
C1_5 C 0.81895(17) 0.9176(2) 0.0083(2)
C2_5 C 0.82603(15) 0.8809(2) 0.07647(19)
C3_5 C 0.88686(17) 0.8889(3) 0.0810(2)
H1_5 H 0.8984 0.9318 0.1065
H2_5 H 0.9041 0.8472 0.1030
C4_5 C 0.89985(17) 0.8950(3) 0.0094(2)
H3_5 H 0.9277 0.8619 0.0021
H4_5 H 0.9109 0.9438 0.0004
H7_5 H 0.7411 0.9420 0.0068
C9_5 C 0.80055(16) 0.9185(2) 0.1297(2)
C10_5 C 0.81741(17) 0.8037(2) 0.0874(2)
H12_5 H 0.8479 0.7833 0.1129
H13_5 H 0.8108 0.7796 0.0448
H14_5 H 0.7878 0.7977 0.1117
C11_5 C 0.72943(15) 0.7382(2) 0.3039(2)
C12_5 C 0.72436(15) 0.8122(2) 0.33805(18)
C13_5 C 0.77517(16) 0.8060(2) 0.39405(19)
H15_5 H 0.8047 0.8301 0.3781
H16_5 H 0.7681 0.8295 0.4352
C14_5 C 0.78826(17) 0.7269(3) 0.4078(2)
H17_5 H 0.7881 0.7154 0.4550
H18_5 H 0.8222 0.7147 0.3947
C15_5 C 0.74151(15) 0.6848(2) 0.3614(2)
H19_5 H 0.7111 0.6786 0.3857
C16_5 C 0.67774(15) 0.7207(2) 0.2607(2)
H20_5 H 0.6533 0.7592 0.2642
H21_5 H 0.6637 0.6765 0.2761
H22_5 H 0.6837 0.7153 0.2147
C17_5 C 0.77221(16) 0.7384(2) 0.2546(2)
C18_5 C 0.72605(17) 0.8764(2) 0.2967(2)
C19_5 C 0.76157(14) 0.6118(2) 0.3405(2)
C20_5 C 0.67513(16) 0.8103(3) 0.3724(2)
H23_5 H 0.6820 0.8324 0.4159
H24_5 H 0.6645 0.7611 0.3773
H25_5 H 0.6478 0.8363 0.3457
H36_4 H 0.6255 0.9818 0.5491
O1_3 O 0.83328(11) 0.94952(17) 0.16920(13)
O2_5 O 0.75076(11) 0.91617(16) 0.13119(14)
O5_3 O 0.75983(10) 0.92098(15) 0.29859(13)
O6_5 O 0.68464(11) 0.88258(15) 0.25340(13)
O7_2 O 0.73643(10) 0.57788(16) 0.29261(14)
O8_3 O 0.79927(11) 0.58593(15) 0.37463(13)
H41_5 H 0.762086 0.778403 0.215339
H42_5 H 0.774184 0.685164 0.231964
H43_5 H 0.810045 0.751772 0.282288
C5_5 C 0.84707(14) 0.8749(3) 0.96152(19)
H5_5 H 0.8385 0.8234 0.9592
C6_5 C 0.76147(16) 0.9132(3) 0.9799(2)
H6_5 H 0.7570 0.9308 0.9346
H8_5 H 0.7500 0.8639 0.9804
C8_5 C 0.85778(16) 0.9081(2) 0.8965(2)
O3_5 O 0.90219(10) 0.89587(16) 0.87483(14)
C7_6 C 0.17470(19) 0.0003(3) 0.4815(3)
H9_6 H 0.1548 0.0098 0.4387
H10_6 H 0.2086 0.0223 0.4829
H11_6 H 0.1568 0.0202 0.5165
C21_6 C 0.44562(15) 0.1681(2) 0.12701(19)
C22_6 C 0.44950(14) 0.1745(2) 0.05830(18)
C23_6 C 0.50150(14) 0.2499(2) 0.11730(18)
C24_6 C 0.41152(14) 0.1268(2) 0.1638(2)
C25_6 C 0.36178(13) 0.0954(2) 0.13640(18)
H26_6 H 0.3483 0.1024 0.0917
C26_6 C 0.33558(16) 0.0555(2) 0.1783(2)
H27_6 H 0.3057 0.0314 0.1591
C27_6 C 0.39512(14) 0.0728(2) 0.2703(2)
H28_6 H 0.4082 0.0611 0.3143
C28_6 C 0.42509(17) 0.1182(2) 0.2305(2)
H29_6 H 0.4545 0.1420 0.2514
C29_6 C 0.54089(14) 0.3068(2) 0.13625(19)
C30_6 C 0.55843(15) 0.3548(2) 0.09273(18)
H30_6 H 0.5455 0.3528 0.0474
C31_6 C 0.59519(16) 0.4062(2) 0.1152(2)
H31_6 H 0.6081 0.4367 0.0843
C32_6 C 0.59452(16) 0.3686(2) 0.22331(19)
H32_6 H 0.6060 0.3730 0.2689
C33_6 C 0.55769(13) 0.3133(2) 0.20272(17)
H33_6 H 0.5455 0.2825 0.2339
C34_6 C 0.42297(16) 0.1367(2) 0.00012(18)
H37_6 H 0.4277 0.0335 0.0360
N1_6 N 0.47692(11) 0.21624(18) 0.16082(14)
N2_6 N 0.48454(12) 0.22655(19) 0.05152(16)
H38_6 H 0.4945 0.2423 0.0148
N3_6 N 0.34852(12) 0.04772(17) 0.24333(16)
N4_6 N 0.61309(11) 0.41333(18) 0.18225(15)
O9_6 O 0.59680(10) 0.56400(15) 0.25324(14)
H39_6 H 0.5812 0.5959 0.2277
H40_6 H 0.5875 0.5499 0.2903
O10_4 O 0.66672(11) 0.44952(17) 0.33080(13)
O12_4 O 0.74017(10) 0.42098(15) 0.20141(13)
O13_4 O 0.23643(10) 0.07788(16) 0.29261(14)
O15_4 O 0.29927(11) 0.08593(15) 0.37463(13)
C35_6 C 0.40633(15) 0.1735(2) 0.93955(19)
H34_6 H 0.4147 0.2219 0.9343
C36_6 C 0.37757(17) 0.1364(2) 0.8887(2)
H35_6 H 0.3635 0.1619 0.8507
C37_6 C 0.38409(16) 0.0299(2) 0.9471(2)
C38_6 C 0.41353(14) 0.0615(2) 0.9998(2)
C1_6 C 0.18105(17) 0.9176(2) 0.4917(2)
C2_6 C 0.17397(15) 0.8809(2) 0.42353(19)
C3_6 C 0.11314(17) 0.8889(3) 0.4190(2)
H1_6 H 0.1016 0.9318 0.3935
H2_6 H 0.0959 0.8472 0.3970
C4_6 C 0.10015(17) 0.8950(3) 0.4906(2)
H3_6 H 0.0723 0.8619 0.4979
H4_6 H 0.0891 0.9438 0.4996
C5_6 C 0.15293(14) 0.8749(3) 0.53848(19)
H5_6 H 0.1615 0.8234 0.5408
C6_6 C 0.23853(16) 0.9132(3) 0.5201(2)
H6_6 H 0.2430 0.9308 0.5654
H7_6 H 0.2589 0.9420 0.4932
H8_6 H 0.2500 0.8639 0.5196
C8_6 C 0.14222(16) 0.9081(2) 0.6035(2)
C9_6 C 0.19945(16) 0.9185(2) 0.3703(2)
C10_6 C 0.18259(17) 0.8037(2) 0.4126(2)
H12_6 H 0.1521 0.7833 0.3871
H13_6 H 0.1892 0.7796 0.4552
H14_6 H 0.2122 0.7977 0.3883
C11_6 C 0.27057(15) 0.7382(2) 0.1961(2)
C12_6 C 0.27564(15) 0.8122(2) 0.16195(18)
C13_6 C 0.22483(16) 0.8060(2) 0.10595(19)
H15_6 H 0.1953 0.8301 0.1219
H16_6 H 0.2319 0.8295 0.0648
C14_6 C 0.21174(17) 0.7269(3) 0.0922(2)
H17_6 H 0.2119 0.7154 0.0450
H18_6 H 0.1778 0.7147 0.1053
C15_6 C 0.25849(15) 0.6848(2) 0.1386(2)
H19_6 H 0.2889 0.6786 0.1143
C16_6 C 0.32226(15) 0.7207(2) 0.2393(2)
H20_6 H 0.3467 0.7592 0.2358
H21_6 H 0.3363 0.6765 0.2239
H22_6 H 0.3163 0.7153 0.2853
C17_6 C 0.22779(16) 0.7384(2) 0.2454(2)
C18_6 C 0.27395(17) 0.8764(2) 0.2033(2)
C19_6 C 0.23843(14) 0.6118(2) 0.1595(2)
C20_6 C 0.32487(16) 0.8103(3) 0.1276(2)
H23_6 H 0.3180 0.8324 0.0841
H24_6 H 0.3355 0.7611 0.1227
H25_6 H 0.3522 0.8363 0.1543
O1_4 O 0.16672(11) 0.94952(17) 0.33080(13)
O2_6 O 0.24924(11) 0.91617(16) 0.36881(14)
O3_6 O 0.09781(10) 0.89587(16) 0.62517(14)
O5_4 O 0.24017(10) 0.92098(15) 0.20141(13)
O6_6 O 0.31536(11) 0.88258(15) 0.24660(13)
O8_4 O 0.20073(11) 0.58593(15) 0.12537(13)
H41_6 H 0.237914 0.778403 0.284661
H42_6 H 0.225816 0.685164 0.268036
H43_6 H 0.189955 0.751772 0.217712
C1_7 C 0.31895(17) 0.4176(2) 0.0083(2)
C2_7 C 0.32603(15) 0.3809(2) 0.07647(19)
C3_7 C 0.38686(17) 0.3889(3) 0.0810(2)
H1_7 H 0.3984 0.4318 0.1065
H2_7 H 0.4041 0.3472 0.1030
C4_7 C 0.39985(17) 0.3950(3) 0.0094(2)
H3_7 H 0.4277 0.3619 0.0021
H4_7 H 0.4109 0.4438 0.0004
H7_7 H 0.2411 0.4420 0.0068
C7_7 C 0.32530(19) 0.5003(3) 0.0185(3)
H9_7 H 0.3452 0.5098 0.0613
H10_7 H 0.2914 0.5223 0.0171
C9_7 C 0.30055(16) 0.4185(2) 0.1297(2)
C10_7 C 0.31741(17) 0.3037(2) 0.0874(2)
H12_7 H 0.3479 0.2833 0.1129
H13_7 H 0.3108 0.2796 0.0448
H14_7 H 0.2878 0.2977 0.1117
C11_7 C 0.22943(15) 0.2382(2) 0.3039(2)
C12_7 C 0.22436(15) 0.3122(2) 0.33805(18)
C13_7 C 0.27517(16) 0.3060(2) 0.39405(19)
H15_7 H 0.3047 0.3301 0.3781
H16_7 H 0.2681 0.3295 0.4352
C14_7 C 0.28826(17) 0.2269(3) 0.4078(2)
H17_7 H 0.2881 0.2154 0.4550
H18_7 H 0.3222 0.2147 0.3947
C15_7 C 0.24151(15) 0.1848(2) 0.3614(2)
H19_7 H 0.2111 0.1786 0.3857
C16_7 C 0.17774(15) 0.2207(2) 0.2607(2)
H20_7 H 0.1533 0.2592 0.2642
H21_7 H 0.1637 0.1765 0.2761
H22_7 H 0.1837 0.2153 0.2147
C17_7 C 0.27221(16) 0.2384(2) 0.2546(2)
C18_7 C 0.22605(17) 0.3764(2) 0.2967(2)
C19_7 C 0.26157(14) 0.1118(2) 0.3405(2)
C20_7 C 0.17513(16) 0.3103(3) 0.3724(2)
H23_7 H 0.1820 0.3324 0.4159
H24_7 H 0.1645 0.2611 0.3773
H25_7 H 0.1478 0.3363 0.3457
C21_7 C 0.05438(15) 0.6681(2) 0.37299(19)
C22_7 C 0.05050(14) 0.6745(2) 0.44170(18)
C24_7 C 0.08848(14) 0.6268(2) 0.3362(2)
C25_7 C 0.13822(13) 0.5954(2) 0.36360(18)
H26_7 H 0.1517 0.6024 0.4083
C26_7 C 0.16442(16) 0.5555(2) 0.3217(2)
H27_7 H 0.1943 0.5314 0.3409
C27_7 C 0.10488(14) 0.5728(2) 0.2297(2)
H28_7 H 0.0918 0.5611 0.1857
C28_7 C 0.07491(17) 0.6182(2) 0.2695(2)
H29_7 H 0.0455 0.6420 0.2486
C34_7 C 0.07703(16) 0.6367(2) 0.49988(18)
C35_7 C 0.09367(15) 0.6735(2) 0.56045(19)
H34_7 H 0.0853 0.7219 0.5657
C36_7 C 0.12243(17) 0.6364(2) 0.6113(2)
H35_7 H 0.1365 0.6619 0.6493
C37_7 C 0.11591(16) 0.5299(2) 0.5529(2)
H36_5 H 0.1255 0.4818 0.5491
C38_7 C 0.08647(14) 0.5615(2) 0.5002(2)
H37_7 H 0.0723 0.5335 0.4640
N1_7 N 0.02308(11) 0.71624(18) 0.33918(14)
N2_7 N 0.01546(12) 0.72655(19) 0.44848(16)
H38_7 H 0.0055 0.7423 0.4852
N3_7 N 0.15148(12) 0.54772(17) 0.25667(16)
O2_7 O 0.25076(11) 0.41617(16) 0.13119(14)
O6_7 O 0.18464(11) 0.38258(15) 0.25340(13)
H41_7 H 0.262086 0.278403 0.215339
H42_7 H 0.274184 0.185164 0.231964
H43_7 H 0.310045 0.251772 0.282288
C5_7 C 0.34707(14) 0.3749(3) 0.96152(19)
H5_7 H 0.3385 0.3234 0.9592
C6_7 C 0.26147(16) 0.4132(3) 0.9799(2)
H6_7 H 0.2570 0.4308 0.9346
H8_7 H 0.2500 0.3639 0.9804
H11_7 H 0.3432 0.5202 0.9835
C8_7 C 0.35778(16) 0.4081(2) 0.8965(2)
O3_7 O 0.40219(10) 0.39587(16) 0.87483(14)
O9_7 O 0.90320(10) 0.06400(15) 0.24676(14)
H39_7 H 0.9188 0.0959 0.2723
H40_7 H 0.9125 0.0499 0.2097
C23_7 C 0.99850(14) 0.7499(2) 0.38270(18)
C29_7 C 0.95911(14) 0.8068(2) 0.36375(19)
C30_7 C 0.94157(15) 0.8548(2) 0.40727(18)
H30_7 H 0.9545 0.8528 0.4526
C31_7 C 0.90481(16) 0.9062(2) 0.3848(2)
H31_7 H 0.8919 0.9367 0.4157
C32_7 C 0.90548(16) 0.8686(2) 0.27669(19)
H32_7 H 0.8940 0.8730 0.2311
C33_7 C 0.94231(13) 0.8133(2) 0.29728(17)
H33_7 H 0.9545 0.7825 0.2661
N4_7 N 0.88691(11) 0.91333(18) 0.31775(15)
O9_8 O 0.09680(10) 0.06400(15) 0.25324(14)
H39_8 H 0.0812 0.0959 0.2277
H40_8 H 0.0875 0.0499 0.2903
C23_8 C 0.00150(14) 0.7499(2) 0.11730(18)
C29_8 C 0.04089(14) 0.8068(2) 0.13625(19)
C30_8 C 0.05843(15) 0.8548(2) 0.09273(18)
H30_8 H 0.0455 0.8528 0.0474
C31_8 C 0.09519(16) 0.9062(2) 0.1152(2)
H31_8 H 0.1081 0.9367 0.0843
C32_8 C 0.09452(16) 0.8686(2) 0.22331(19)
H32_8 H 0.1060 0.8730 0.2689
C33_8 C 0.05769(13) 0.8133(2) 0.20272(17)
H33_8 H 0.0455 0.7825 0.2339
N4_8 N 0.11309(11) 0.91333(18) 0.18225(15)
C1_8 C 0.68105(17) 0.4176(2) 0.4917(2)
C2_8 C 0.67397(15) 0.3809(2) 0.42353(19)
C3_8 C 0.61314(17) 0.3889(3) 0.4190(2)
H1_8 H 0.6016 0.4318 0.3935
H2_8 H 0.5959 0.3472 0.3970
C4_8 C 0.60015(17) 0.3950(3) 0.4906(2)
H3_8 H 0.5723 0.3619 0.4979
H4_8 H 0.5891 0.4438 0.4996
C5_8 C 0.65293(14) 0.3749(3) 0.53848(19)
H5_8 H 0.6615 0.3234 0.5408
C6_8 C 0.73853(16) 0.4132(3) 0.5201(2)
H6_8 H 0.7430 0.4308 0.5654
H7_8 H 0.7589 0.4420 0.4932
H8_8 H 0.7500 0.3639 0.5196
C7_8 C 0.67470(19) 0.5003(3) 0.4815(3)
H9_8 H 0.6548 0.5098 0.4387
H10_8 H 0.7086 0.5223 0.4829
H11_8 H 0.6568 0.5202 0.5165
C8_8 C 0.64222(16) 0.4081(2) 0.6035(2)
C9_8 C 0.69945(16) 0.4185(2) 0.3703(2)
C10_8 C 0.68259(17) 0.3037(2) 0.4126(2)
H12_8 H 0.6521 0.2833 0.3871
H13_8 H 0.6892 0.2796 0.4552
H14_8 H 0.7122 0.2977 0.3883
C11_8 C 0.77057(15) 0.2382(2) 0.1961(2)
C12_8 C 0.77564(15) 0.3122(2) 0.16195(18)
C13_8 C 0.72483(16) 0.3060(2) 0.10595(19)
H15_8 H 0.6953 0.3301 0.1219
H16_8 H 0.7319 0.3295 0.0648
C14_8 C 0.71174(17) 0.2269(3) 0.0922(2)
H17_8 H 0.7119 0.2154 0.0450
H18_8 H 0.6778 0.2147 0.1053
C15_8 C 0.75849(15) 0.1848(2) 0.1386(2)
H19_8 H 0.7889 0.1786 0.1143
C16_8 C 0.82226(15) 0.2207(2) 0.2393(2)
H20_8 H 0.8467 0.2592 0.2358
H21_8 H 0.8363 0.1765 0.2239
H22_8 H 0.8163 0.2153 0.2853
C17_8 C 0.72779(16) 0.2384(2) 0.2454(2)
C18_8 C 0.77395(17) 0.3764(2) 0.2033(2)
C19_8 C 0.73843(14) 0.1118(2) 0.1595(2)
C20_8 C 0.82487(16) 0.3103(3) 0.1276(2)
H23_8 H 0.8180 0.3324 0.0841
H24_8 H 0.8355 0.2611 0.1227
H25_8 H 0.8522 0.3363 0.1543
C21_8 C 0.94562(15) 0.6681(2) 0.12701(19)
C22_8 C 0.94950(14) 0.6745(2) 0.05830(18)
C24_8 C 0.91152(14) 0.6268(2) 0.1638(2)
C25_8 C 0.86178(13) 0.5954(2) 0.13640(18)
H26_8 H 0.8483 0.6024 0.0917
C26_8 C 0.83558(16) 0.5555(2) 0.1783(2)
H27_8 H 0.8057 0.5314 0.1591
C27_8 C 0.89512(14) 0.5728(2) 0.2703(2)
H28_8 H 0.9082 0.5611 0.3143
C28_8 C 0.92509(17) 0.6182(2) 0.2305(2)
H29_8 H 0.9545 0.6420 0.2514
C34_8 C 0.92297(16) 0.6367(2) 0.00012(18)
H37_8 H 0.9277 0.5335 0.0360
N1_8 N 0.97692(11) 0.71624(18) 0.16082(14)
N2_8 N 0.98454(12) 0.72655(19) 0.05152(16)
H38_8 H 0.9945 0.7423 0.0148
N3_8 N 0.84852(12) 0.54772(17) 0.24333(16)
O2_8 O 0.74924(11) 0.41617(16) 0.36881(14)
O3_8 O 0.59781(10) 0.39587(16) 0.62517(14)
O6_8 O 0.81536(11) 0.38258(15) 0.24660(13)
H41_8 H 0.737914 0.278403 0.284661
H42_8 H 0.725816 0.185164 0.268036
H43_8 H 0.689955 0.251772 0.217712
C35_8 C 0.90633(15) 0.6735(2) 0.93955(19)
H34_8 H 0.9147 0.7219 0.9343
C36_8 C 0.87757(17) 0.6364(2) 0.8887(2)
H35_8 H 0.8635 0.6619 0.8507
C37_8 C 0.88409(16) 0.5299(2) 0.9471(2)
H36_6 H 0.8745 0.4818 0.9509
C38_8 C 0.91353(14) 0.5615(2) 0.9998(2)
H36_7 H 0.6255 0.0182 0.0491
H36_8 H 0.3745 0.9818 0.9509
loop_
_geom_bond_atom_site_label_1
_geom_bond_atom_site_label_2
_geom_bond_site_symmetry_1
_geom_bond_site_symmetry_2
H5 C5 1_555 1_555
H6 C6 1_555 1_555
H8 C6 1_555 1_555
C8 C5 1_555 1_555
O3 C8 1_555 1_555
O4 C8 1_555 1_555
C1 C2 1_555 1_555
C2 C3 1_555 1_555
C3 H1 1_555 1_555
H2 C3 1_555 1_555
C4 C3 1_555 1_555
H3 C4 1_555 1_555
H4 C4 1_555 1_555
C9 C2 1_555 1_555
C10 C2 1_555 1_555
H12 C10 1_555 1_555
H13 C10 1_555 1_555
H14 C10 1_555 1_555
C11 C12 1_555 1_555
C12 C13 1_555 1_555
C13 H15 1_555 1_555
H16 C13 1_555 1_555
C14 C13 1_555 1_555
H17 C14 1_555 1_555
H18 C14 1_555 1_555
C15 C11 1_555 1_555
H19 C15 1_555 1_555
C16 C11 1_555 1_555
H20 C16 1_555 1_555
H21 C16 1_555 1_555
H22 C16 1_555 1_555
C17 C11 1_555 1_555
C18 C12 1_555 1_555
C19 C15 1_555 1_555
C20 C12 1_555 1_555
H23 C20 1_555 1_555
H24 C20 1_555 1_555
H25 C20 1_555 1_555
O1 C9 1_555 1_555
O2 C9 1_555 1_555
O5 C18 1_555 1_555
O6 C18 1_555 1_555
O7 C19 1_555 1_555
O8 C19 1_555 1_555
N6 Cd1 1_555 1_555
Cd4 O7 1_555 1_555
Cd5 O1 1_555 1_555
Cd7 O7 1_555 1_555
C14 C15 1_555 1_555
O2 Cd1 1_555 1_555
O5 Cd5 1_555 1_555
O6 Cd1 1_555 1_555
O8 Cd4 1_555 1_555
C17 H41 1_555 1_555
C17 H42 1_555 1_555
C17 H43 1_555 1_555
H9 C7 1_555 1_555
H10 C7 1_555 1_555
C21 C22 1_555 1_555
C22 C34 1_555 1_555
C23 C29 1_555 1_555
C24 C21 1_555 1_555
C25 C24 1_555 1_555
H26 C25 1_555 1_555
C26 C25 1_555 1_555
H27 C26 1_555 1_555
C27 H28 1_555 1_555
C28 C24 1_555 1_555
H29 C28 1_555 1_555
C29 C30 1_555 1_555
C30 H30 1_555 1_555
C31 C30 1_555 1_555
H31 C31 1_555 1_555
C32 H32 1_555 1_555
C33 C29 1_555 1_555
H33 C33 1_555 1_555
C34 C35 1_555 1_555
C35 H34 1_555 1_555
C36 C35 1_555 1_555
H35 C36 1_555 1_555
C38 C34 1_555 1_555
H37 C38 1_555 1_555
N1 C21 1_555 1_555
N2 C22 1_555 1_555
H38 N2 1_555 1_555
N3 C26 1_555 1_555
N4 C31 1_555 1_555
N5 C36 1_555 1_555
Cd2 N4 1_555 1_555
O9 Cd2 1_555 1_555
H39 O9 1_555 1_555
H40 O9 1_555 1_555
O10 Cd2 1_555 1_555
O11 Cd2 1_555 1_555
O12 Cd2 1_555 1_555
Cd3 N5 1_555 1_555
O14 Cd2 1_555 1_555
C23 N1 1_555 1_555
C23 N2 1_555 1_555
C27 C28 1_555 1_555
C27 N3 1_555 1_555
C32 C33 1_555 1_555
C32 N4 1_555 1_555
C37 C38 1_555 1_555
C37 N5 1_555 1_555
C1_2 C2_2 1_555 1_555
C2_2 C3_2 1_555 1_555
C3_2 H1_2 1_555 1_555
H2_2 C3_2 1_555 1_555
C4_2 C3_2 1_555 1_555
H3_2 C4_2 1_555 1_555
H4_2 C4_2 1_555 1_555
C5_2 C1_2 1_555 1_555
H5_2 C5_2 1_555 1_555
C6_2 C1_2 1_555 1_555
H6_2 C6_2 1_555 1_555
H7_2 C6_2 1_555 1_555
H8_2 C6_2 1_555 1_555
C8_2 C5_2 1_555 1_555
C9_2 C2_2 1_555 1_555
C10_2 C2_2 1_555 1_555
H12_2 C10_2 1_555 1_555
H13_2 C10_2 1_555 1_555
H14_2 C10_2 1_555 1_555
C11_2 C12_2 1_555 1_555
C12_2 C13_2 1_555 1_555
C13_2 H15_2 1_555 1_555
H16_2 C13_2 1_555 1_555
C14_2 C13_2 1_555 1_555
H17_2 C14_2 1_555 1_555
H18_2 C14_2 1_555 1_555
C15_2 C11_2 1_555 1_555
H19_2 C15_2 1_555 1_555
C16_2 C11_2 1_555 1_555
H20_2 C16_2 1_555 1_555
H21_2 C16_2 1_555 1_555
H22_2 C16_2 1_555 1_555
C17_2 C11_2 1_555 1_555
C18_2 C12_2 1_555 1_555
C19_2 C15_2 1_555 1_555
C20_2 C12_2 1_555 1_555
H23_2 C20_2 1_555 1_555
H24_2 C20_2 1_555 1_555
H25_2 C20_2 1_555 1_555
O1_2 C9_2 1_555 1_555
O2_2 C9_2 1_555 1_555
O3_2 C8_2 1_555 1_555
O4_2 C8_2 1_555 1_555
O5_2 C18_2 1_555 1_555
O6_2 C18_2 1_555 1_555
O14 C19_2 1_555 1_555
O8_2 C19_2 1_555 1_555
N6_2 Cd1_2 1_555 1_555
Cd4_2 O14 1_555 1_555
Cd5_2 O1_2 1_555 1_555
C4_2 C5_2 1_555 1_555
C14_2 C15_2 1_555 1_555
O2_2 Cd1_2 1_555 1_555
O5_2 Cd5_2 1_555 1_555
O6_2 Cd1_2 1_555 1_555
O8_2 Cd4_2 1_555 1_555
C17_2 H41_2 1_555 1_555
C17_2 H42_2 1_555 1_555
C17_2 H43_2 1_555 1_555
C35_2 H34_2 1_555 1_555
C36_2 C35_2 1_555 1_555
H35_2 C36_2 1_555 1_555
N5_2 C36_2 1_555 1_555
Cd3_2 N5_2 1_555 1_555
C37_2 C38_2 1_555 1_555
C37_2 N5_2 1_555 1_555
H9_2 C7_2 1_555 1_555
H10_2 C7_2 1_555 1_555
H11_2 C7_2 1_555 1_555
C21_2 C22_2 1_555 1_555
C22_2 C34_2 1_555 1_555
C23_2 C29_2 1_555 1_555
C24_2 C21_2 1_555 1_555
C25_2 C24_2 1_555 1_555
H26_2 C25_2 1_555 1_555
C26_2 C25_2 1_555 1_555
H27_2 C26_2 1_555 1_555
C27_2 H28_2 1_555 1_555
C28_2 C24_2 1_555 1_555
H29_2 C28_2 1_555 1_555
C29_2 C30_2 1_555 1_555
C30_2 H30_2 1_555 1_555
C31_2 C30_2 1_555 1_555
H31_2 C31_2 1_555 1_555
C32_2 H32_2 1_555 1_555
C33_2 C29_2 1_555 1_555
H33_2 C33_2 1_555 1_555
N1_2 C21_2 1_555 1_555
N2_2 C22_2 1_555 1_555
H38_2 N2_2 1_555 1_555
N3_2 C26_2 1_555 1_555
N4_2 C31_2 1_555 1_555
Cd7 N4_2 1_555 1_555
O9_2 Cd7 1_555 1_555
H39_2 O9_2 1_555 1_555
H40_2 O9_2 1_555 1_555
O10_2 Cd7 1_555 1_555
O11_2 Cd7 1_555 1_555
O12_2 Cd7 1_555 1_555
C23_2 N1_2 1_555 1_555
C23_2 N2_2 1_555 1_555
C27_2 C28_2 1_555 1_555
C27_2 N3_2 1_555 1_555
C32_2 C33_2 1_555 1_555
C32_2 N4_2 1_555 1_555
C23_3 C29_3 1_555 1_555
C29_3 C30_3 1_555 1_555
C30_3 H30_3 1_555 1_555
C31_3 C30_3 1_555 1_555
H31_3 C31_3 1_555 1_555
C32_3 H32_3 1_555 1_555
C33_3 C29_3 1_555 1_555
H33_3 C33_3 1_555 1_555
N4_3 C31_3 1_555 1_555
Cd5 N4_3 1_555 1_555
C32_3 C33_3 1_555 1_555
C32_3 N4_3 1_555 1_555
H39_3 O9_3 1_555 1_555
H40_3 O9_3 1_555 1_555
H5_3 C5_3 1_555 1_555
H6_3 C6_3 1_555 1_555
H8_3 C6_3 1_555 1_555
C8_3 C5_3 1_555 1_555
O3_3 C8_3 1_555 1_555
O4_3 C8_3 1_555 1_555
Cd6_3 O4_3 1_555 1_555
C1_3 C2_3 1_555 1_555
C2_3 C3_3 1_555 1_555
C3_3 H1_3 1_555 1_555
H2_3 C3_3 1_555 1_555
C4_3 C3_3 1_555 1_555
H3_3 C4_3 1_555 1_555
H4_3 C4_3 1_555 1_555
C7_3 C1_3 1_555 1_555
H9_3 C7_3 1_555 1_555
H10_3 C7_3 1_555 1_555
C9_3 C2_3 1_555 1_555
C10_3 C2_3 1_555 1_555
H12_3 C10_3 1_555 1_555
H13_3 C10_3 1_555 1_555
H14_3 C10_3 1_555 1_555
C11_3 C12_3 1_555 1_555
C12_3 C13_3 1_555 1_555
C13_3 H15_3 1_555 1_555
H16_3 C13_3 1_555 1_555
C14_3 C13_3 1_555 1_555
H17_3 C14_3 1_555 1_555
H18_3 C14_3 1_555 1_555
C15_3 C11_3 1_555 1_555
H19_3 C15_3 1_555 1_555
C16_3 C11_3 1_555 1_555
H20_3 C16_3 1_555 1_555
H21_3 C16_3 1_555 1_555
H22_3 C16_3 1_555 1_555
C17_3 C11_3 1_555 1_555
C18_3 C12_3 1_555 1_555
C19_3 C15_3 1_555 1_555
C20_3 C12_3 1_555 1_555
H23_3 C20_3 1_555 1_555
H24_3 C20_3 1_555 1_555
H25_3 C20_3 1_555 1_555
C21_3 C22_3 1_555 1_555
C22_3 C34_3 1_555 1_555
C24_3 C21_3 1_555 1_555
C25_3 C24_3 1_555 1_555
H26_3 C25_3 1_555 1_555
C26_3 C25_3 1_555 1_555
H27_3 C26_3 1_555 1_555
C27_3 H28_3 1_555 1_555
C28_3 C24_3 1_555 1_555
H29_3 C28_3 1_555 1_555
C34_3 C35_3 1_555 1_555
C35_3 H34_3 1_555 1_555
C36_3 C35_3 1_555 1_555
H35_3 C36_3 1_555 1_555
C37_3 H36_2 1_555 1_555
C38_3 C34_3 1_555 1_555
H37_3 C38_3 1_555 1_555
N1_3 C21_3 1_555 1_555
N2_3 C22_3 1_555 1_555
H38_3 N2_3 1_555 1_555
N3_3 C26_3 1_555 1_555
N5_3 C36_3 1_555 1_555
O10 C9_3 1_555 1_555
O2_3 C9_3 1_555 1_555
O12 C18_3 1_555 1_555
O6_3 C18_3 1_555 1_555
Cd4_2 N3_3 1_555 1_555
O13_2 C19_3 1_555 1_555
O15_2 C19_3 1_555 1_555
N6_3 Cd4_2 1_555 1_555
Cd3_3 N5_3 1_555 1_555
C14_3 C15_3 1_555 1_555
C27_3 C28_3 1_555 1_555
C27_3 N3_3 1_555 1_555
C37_3 C38_3 1_555 1_555
C37_3 N5_3 1_555 1_555
O2_3 Cd4_2 1_555 1_555
O6_3 Cd4_2 1_555 1_555
C17_3 H41_3 1_555 1_555
C17_3 H42_3 1_555 1_555
C17_3 H43_3 1_555 1_555
C35_4 H34_4 1_555 1_555
C36_4 C35_4 1_555 1_555
H35_4 C36_4 1_555 1_555
C37_4 H36_3 1_555 1_555
N5_4 C36_4 1_555 1_555
Cd3_4 N5_4 1_555 1_555
C37_4 C38_4 1_555 1_555
C37_4 N5_4 1_555 1_555
C1_4 C2_4 1_555 1_555
C2_4 C3_4 1_555 1_555
C3_4 H1_4 1_555 1_555
H2_4 C3_4 1_555 1_555
C4_4 C3_4 1_555 1_555
H3_4 C4_4 1_555 1_555
H4_4 C4_4 1_555 1_555
C5_4 C1_4 1_555 1_555
H5_4 C5_4 1_555 1_555
C6_4 C1_4 1_555 1_555
H6_4 C6_4 1_555 1_555
H7_4 C6_4 1_555 1_555
H8_4 C6_4 1_555 1_555
C7_4 C1_4 1_555 1_555
H9_4 C7_4 1_555 1_555
H10_4 C7_4 1_555 1_555
H11_4 C7_4 1_555 1_555
C8_4 C5_4 1_555 1_555
C9_4 C2_4 1_555 1_555
C10_4 C2_4 1_555 1_555
H12_4 C10_4 1_555 1_555
H13_4 C10_4 1_555 1_555
H14_4 C10_4 1_555 1_555
C11_4 C12_4 1_555 1_555
C12_4 C13_4 1_555 1_555
C13_4 H15_4 1_555 1_555
H16_4 C13_4 1_555 1_555
C14_4 C13_4 1_555 1_555
H17_4 C14_4 1_555 1_555
H18_4 C14_4 1_555 1_555
C15_4 C11_4 1_555 1_555
H19_4 C15_4 1_555 1_555
C16_4 C11_4 1_555 1_555
H20_4 C16_4 1_555 1_555
H21_4 C16_4 1_555 1_555
H22_4 C16_4 1_555 1_555
C17_4 C11_4 1_555 1_555
C18_4 C12_4 1_555 1_555
C19_4 C15_4 1_555 1_555
C20_4 C12_4 1_555 1_555
H23_4 C20_4 1_555 1_555
H24_4 C20_4 1_555 1_555
H25_4 C20_4 1_555 1_555
C21_4 C22_4 1_555 1_555
C22_4 C34_4 1_555 1_555
C24_4 C21_4 1_555 1_555
C25_4 C24_4 1_555 1_555
H26_4 C25_4 1_555 1_555
C26_4 C25_4 1_555 1_555
H27_4 C26_4 1_555 1_555
C27_4 H28_4 1_555 1_555
C28_4 C24_4 1_555 1_555
H29_4 C28_4 1_555 1_555
N1_4 C21_4 1_555 1_555
N2_4 C22_4 1_555 1_555
H38_4 N2_4 1_555 1_555
N3_4 C26_4 1_555 1_555
O10_2 C9_4 1_555 1_555
O2_4 C9_4 1_555 1_555
O3_4 C8_4 1_555 1_555
O4_4 C8_4 1_555 1_555
O12_2 C18_4 1_555 1_555
O6_4 C18_4 1_555 1_555
Cd4 N3_4 1_555 1_555
O13 C19_4 1_555 1_555
O15 C19_4 1_555 1_555
N6_4 Cd4 1_555 1_555
Cd6_4 O4_4 1_555 1_555
C4_4 C5_4 1_555 1_555
C14_4 C15_4 1_555 1_555
C27_4 C28_4 1_555 1_555
C27_4 N3_4 1_555 1_555
O2_4 Cd4 1_555 1_555
O6_4 Cd4 1_555 1_555
C17_4 H41_4 1_555 1_555
C17_4 H42_4 1_555 1_555
C17_4 H43_4 1_555 1_555
C23_4 C29_4 1_555 1_555
C29_4 C30_4 1_555 1_555
C30_4 H30_4 1_555 1_555
C31_4 C30_4 1_555 1_555
H31_4 C31_4 1_555 1_555
C32_4 H32_4 1_555 1_555
C33_4 C29_4 1_555 1_555
H33_4 C33_4 1_555 1_555
N4_4 C31_4 1_555 1_555
Cd5_2 N4_4 1_555 1_555
C32_4 C33_4 1_555 1_555
C32_4 N4_4 1_555 1_555
H39_4 O9_4 1_555 1_555
H40_4 O9_4 1_555 1_555
H9_5 C7_5 1_555 1_555
H10_5 C7_5 1_555 1_555
C21_5 C22_5 1_555 1_555
C22_5 C34_5 1_555 1_555
C23_5 C29_5 1_555 1_555
C24_5 C21_5 1_555 1_555
C25_5 C24_5 1_555 1_555
H26_5 C25_5 1_555 1_555
C26_5 C25_5 1_555 1_555
H27_5 C26_5 1_555 1_555
C27_5 H28_5 1_555 1_555
C28_5 C24_5 1_555 1_555
H29_5 C28_5 1_555 1_555
C29_5 C30_5 1_555 1_555
C30_5 H30_5 1_555 1_555
C31_5 C30_5 1_555 1_555
H31_5 C31_5 1_555 1_555
C32_5 H32_5 1_555 1_555
C33_5 C29_5 1_555 1_555
H33_5 C33_5 1_555 1_555
C34_5 C35_5 1_555 1_555
C35_5 H34_5 1_555 1_555
C36_5 C35_5 1_555 1_555
H35_5 C36_5 1_555 1_555
C38_5 C34_5 1_555 1_555
H37_5 C38_5 1_555 1_555
N1_5 C21_5 1_555 1_555
N2_5 C22_5 1_555 1_555
H38_5 N2_5 1_555 1_555
N3_5 C26_5 1_555 1_555
N4_5 C31_5 1_555 1_555
N6_2 C36_5 1_555 1_555
Cd6_4 N4_5 1_555 1_555
O9_5 Cd6_4 1_555 1_555
H39_5 O9_5 1_555 1_555
H40_5 O9_5 1_555 1_555
O10_3 Cd6_4 1_555 1_555
O12_3 Cd6_4 1_555 1_555
O14_2 Cd6_4 1_555 1_555
C23_5 N1_5 1_555 1_555
C23_5 N2_5 1_555 1_555
C27_5 C28_5 1_555 1_555
C27_5 N3_5 1_555 1_555
C32_5 C33_5 1_555 1_555
C32_5 N4_5 1_555 1_555
C37_5 C38_5 1_555 1_555
C37_5 N6_2 1_555 1_555
C1_5 C2_5 1_555 1_555
C2_5 C3_5 1_555 1_555
C3_5 H1_5 1_555 1_555
H2_5 C3_5 1_555 1_555
C4_5 C3_5 1_555 1_555
H3_5 C4_5 1_555 1_555
H4_5 C4_5 1_555 1_555
C9_5 C2_5 1_555 1_555
C10_5 C2_5 1_555 1_555
H12_5 C10_5 1_555 1_555
H13_5 C10_5 1_555 1_555
H14_5 C10_5 1_555 1_555
C11_5 C12_5 1_555 1_555
C12_5 C13_5 1_555 1_555
C13_5 H15_5 1_555 1_555
H16_5 C13_5 1_555 1_555
C14_5 C13_5 1_555 1_555
H17_5 C14_5 1_555 1_555
H18_5 C14_5 1_555 1_555
C15_5 C11_5 1_555 1_555
H19_5 C15_5 1_555 1_555
C16_5 C11_5 1_555 1_555
H20_5 C16_5 1_555 1_555
H21_5 C16_5 1_555 1_555
H22_5 C16_5 1_555 1_555
C17_5 C11_5 1_555 1_555
C18_5 C12_5 1_555 1_555
C19_5 C15_5 1_555 1_555
C20_5 C12_5 1_555 1_555
H23_5 C20_5 1_555 1_555
H24_5 C20_5 1_555 1_555
H25_5 C20_5 1_555 1_555
O1_3 C9_5 1_555 1_555
O2_5 C9_5 1_555 1_555
O5_3 C18_5 1_555 1_555
O6_5 C18_5 1_555 1_555
O7_2 C19_5 1_555 1_555
O8_3 C19_5 1_555 1_555
Cd3_3 O7_2 1_555 1_555
Cd6_2 O1_3 1_555 1_555
Cd6_3 O7_2 1_555 1_555
C14_5 C15_5 1_555 1_555
O2_5 Cd3_2 1_555 1_555
O5_3 Cd6_2 1_555 1_555
O6_5 Cd3_2 1_555 1_555
O8_3 Cd3_3 1_555 1_555
C17_5 H41_5 1_555 1_555
C17_5 H42_5 1_555 1_555
C17_5 H43_5 1_555 1_555
H5_5 C5_5 1_555 1_555
H6_5 C6_5 1_555 1_555
H8_5 C6_5 1_555 1_555
C8_5 C5_5 1_555 1_555
O3_5 C8_5 1_555 1_555
O11_4 C8_5 1_555 1_555
H9_6 C7_6 1_555 1_555
H10_6 C7_6 1_555 1_555
H11_6 C7_6 1_555 1_555
C21_6 C22_6 1_555 1_555
C22_6 C34_6 1_555 1_555
C23_6 C29_6 1_555 1_555
C24_6 C21_6 1_555 1_555
C25_6 C24_6 1_555 1_555
H26_6 C25_6 1_555 1_555
C26_6 C25_6 1_555 1_555
H27_6 C26_6 1_555 1_555
C27_6 H28_6 1_555 1_555
C28_6 C24_6 1_555 1_555
H29_6 C28_6 1_555 1_555
C29_6 C30_6 1_555 1_555
C30_6 H30_6 1_555 1_555
C31_6 C30_6 1_555 1_555
H31_6 C31_6 1_555 1_555
C32_6 H32_6 1_555 1_555
C33_6 C29_6 1_555 1_555
H33_6 C33_6 1_555 1_555
N1_6 C21_6 1_555 1_555
N2_6 C22_6 1_555 1_555
H38_6 N2_6 1_555 1_555
N3_6 C26_6 1_555 1_555
N4_6 C31_6 1_555 1_555
Cd6_3 N4_6 1_555 1_555
O9_6 Cd6_3 1_555 1_555
H39_6 O9_6 1_555 1_555
H40_6 O9_6 1_555 1_555
O10_4 Cd6_3 1_555 1_555
O12_4 Cd6_3 1_555 1_555
C23_6 N1_6 1_555 1_555
C23_6 N2_6 1_555 1_555
C27_6 C28_6 1_555 1_555
C27_6 N3_6 1_555 1_555
C32_6 C33_6 1_555 1_555
C32_6 N4_6 1_555 1_555
C35_6 H34_6 1_555 1_555
C36_6 C35_6 1_555 1_555
H35_6 C36_6 1_555 1_555
N6 C36_6 1_555 1_555
C37_6 C38_6 1_555 1_555
C37_6 N6 1_555 1_555
C1_6 C2_6 1_555 1_555
C2_6 C3_6 1_555 1_555
C3_6 H1_6 1_555 1_555
H2_6 C3_6 1_555 1_555
C4_6 C3_6 1_555 1_555
H3_6 C4_6 1_555 1_555
H4_6 C4_6 1_555 1_555
C5_6 C1_6 1_555 1_555
H5_6 C5_6 1_555 1_555
C6_6 C1_6 1_555 1_555
H6_6 C6_6 1_555 1_555
H7_6 C6_6 1_555 1_555
H8_6 C6_6 1_555 1_555
C8_6 C5_6 1_555 1_555
C9_6 C2_6 1_555 1_555
C10_6 C2_6 1_555 1_555
H12_6 C10_6 1_555 1_555
H13_6 C10_6 1_555 1_555
H14_6 C10_6 1_555 1_555
C11_6 C12_6 1_555 1_555
C12_6 C13_6 1_555 1_555
C13_6 H15_6 1_555 1_555
H16_6 C13_6 1_555 1_555
C14_6 C13_6 1_555 1_555
H17_6 C14_6 1_555 1_555
H18_6 C14_6 1_555 1_555
C15_6 C11_6 1_555 1_555
H19_6 C15_6 1_555 1_555
C16_6 C11_6 1_555 1_555
H20_6 C16_6 1_555 1_555
H21_6 C16_6 1_555 1_555
H22_6 C16_6 1_555 1_555
C17_6 C11_6 1_555 1_555
C18_6 C12_6 1_555 1_555
C19_6 C15_6 1_555 1_555
C20_6 C12_6 1_555 1_555
H23_6 C20_6 1_555 1_555
H24_6 C20_6 1_555 1_555
H25_6 C20_6 1_555 1_555
O1_4 C9_6 1_555 1_555
O2_6 C9_6 1_555 1_555
O3_6 C8_6 1_555 1_555
O11_3 C8_6 1_555 1_555
O5_4 C18_6 1_555 1_555
O6_6 C18_6 1_555 1_555
O14_2 C19_6 1_555 1_555
O8_4 C19_6 1_555 1_555
Cd3_4 O14_2 1_555 1_555
Cd6 O1_4 1_555 1_555
C4_6 C5_6 1_555 1_555
C14_6 C15_6 1_555 1_555
O2_6 Cd3 1_555 1_555
O5_4 Cd6 1_555 1_555
O6_6 Cd3 1_555 1_555
O8_4 Cd3_4 1_555 1_555
C17_6 H41_6 1_555 1_555
C17_6 H42_6 1_555 1_555
C17_6 H43_6 1_555 1_555
C1_7 C2_7 1_555 1_555
C2_7 C3_7 1_555 1_555
C3_7 H1_7 1_555 1_555
H2_7 C3_7 1_555 1_555
C4_7 C3_7 1_555 1_555
H3_7 C4_7 1_555 1_555
H4_7 C4_7 1_555 1_555
C7_7 C1_7 1_555 1_555
H9_7 C7_7 1_555 1_555
H10_7 C7_7 1_555 1_555
C9_7 C2_7 1_555 1_555
C10_7 C2_7 1_555 1_555
H12_7 C10_7 1_555 1_555
H13_7 C10_7 1_555 1_555
H14_7 C10_7 1_555 1_555
C11_7 C12_7 1_555 1_555
C12_7 C13_7 1_555 1_555
C13_7 H15_7 1_555 1_555
H16_7 C13_7 1_555 1_555
C14_7 C13_7 1_555 1_555
H17_7 C14_7 1_555 1_555
H18_7 C14_7 1_555 1_555
C15_7 C11_7 1_555 1_555
H19_7 C15_7 1_555 1_555
C16_7 C11_7 1_555 1_555
H20_7 C16_7 1_555 1_555
H21_7 C16_7 1_555 1_555
H22_7 C16_7 1_555 1_555
C17_7 C11_7 1_555 1_555
C18_7 C12_7 1_555 1_555
C19_7 C15_7 1_555 1_555
C20_7 C12_7 1_555 1_555
H23_7 C20_7 1_555 1_555
H24_7 C20_7 1_555 1_555
H25_7 C20_7 1_555 1_555
C21_7 C22_7 1_555 1_555
C22_7 C34_7 1_555 1_555
C24_7 C21_7 1_555 1_555
C25_7 C24_7 1_555 1_555
H26_7 C25_7 1_555 1_555
C26_7 C25_7 1_555 1_555
H27_7 C26_7 1_555 1_555
C27_7 H28_7 1_555 1_555
C28_7 C24_7 1_555 1_555
H29_7 C28_7 1_555 1_555
C34_7 C35_7 1_555 1_555
C35_7 H34_7 1_555 1_555
C36_7 C35_7 1_555 1_555
H35_7 C36_7 1_555 1_555
C37_7 H36_5 1_555 1_555
C38_7 C34_7 1_555 1_555
H37_7 C38_7 1_555 1_555
N1_7 C21_7 1_555 1_555
N2_7 C22_7 1_555 1_555
H38_7 N2_7 1_555 1_555
N3_7 C26_7 1_555 1_555
N6_4 C36_7 1_555 1_555
O10_3 C9_7 1_555 1_555
O2_7 C9_7 1_555 1_555
O12_3 C18_7 1_555 1_555
O6_7 C18_7 1_555 1_555
Cd3_4 N3_7 1_555 1_555
O13_4 C19_7 1_555 1_555
O15_4 C19_7 1_555 1_555
C14_7 C15_7 1_555 1_555
C27_7 C28_7 1_555 1_555
C27_7 N3_7 1_555 1_555
C37_7 C38_7 1_555 1_555
C37_7 N6_4 1_555 1_555
O2_7 Cd3_4 1_555 1_555
O6_7 Cd3_4 1_555 1_555
C17_7 H41_7 1_555 1_555
C17_7 H42_7 1_555 1_555
C17_7 H43_7 1_555 1_555
H5_7 C5_7 1_555 1_555
H6_7 C6_7 1_555 1_555
H8_7 C6_7 1_555 1_555
C8_7 C5_7 1_555 1_555
O3_7 C8_7 1_555 1_555
O11_2 C8_7 1_555 1_555
H39_7 O9_7 1_555 1_555
H40_7 O9_7 1_555 1_555
C23_7 C29_7 1_555 1_555
C29_7 C30_7 1_555 1_555
C30_7 H30_7 1_555 1_555
C31_7 C30_7 1_555 1_555
H31_7 C31_7 1_555 1_555
C32_7 H32_7 1_555 1_555
C33_7 C29_7 1_555 1_555
H33_7 C33_7 1_555 1_555
N4_7 C31_7 1_555 1_555
Cd6_2 N4_7 1_555 1_555
C32_7 C33_7 1_555 1_555
C32_7 N4_7 1_555 1_555
H39_8 O9_8 1_555 1_555
H40_8 O9_8 1_555 1_555
C23_8 C29_8 1_555 1_555
C29_8 C30_8 1_555 1_555
C30_8 H30_8 1_555 1_555
C31_8 C30_8 1_555 1_555
H31_8 C31_8 1_555 1_555
C32_8 H32_8 1_555 1_555
C33_8 C29_8 1_555 1_555
H33_8 C33_8 1_555 1_555
N4_8 C31_8 1_555 1_555
Cd6 N4_8 1_555 1_555
C32_8 C33_8 1_555 1_555
C32_8 N4_8 1_555 1_555
C1_8 C2_8 1_555 1_555
C2_8 C3_8 1_555 1_555
C3_8 H1_8 1_555 1_555
H2_8 C3_8 1_555 1_555
C4_8 C3_8 1_555 1_555
H3_8 C4_8 1_555 1_555
H4_8 C4_8 1_555 1_555
C5_8 C1_8 1_555 1_555
H5_8 C5_8 1_555 1_555
C6_8 C1_8 1_555 1_555
H6_8 C6_8 1_555 1_555
H7_8 C6_8 1_555 1_555
H8_8 C6_8 1_555 1_555
C7_8 C1_8 1_555 1_555
H9_8 C7_8 1_555 1_555
H10_8 C7_8 1_555 1_555
H11_8 C7_8 1_555 1_555
C8_8 C5_8 1_555 1_555
C9_8 C2_8 1_555 1_555
C10_8 C2_8 1_555 1_555
H12_8 C10_8 1_555 1_555
H13_8 C10_8 1_555 1_555
H14_8 C10_8 1_555 1_555
C11_8 C12_8 1_555 1_555
C12_8 C13_8 1_555 1_555
C13_8 H15_8 1_555 1_555
H16_8 C13_8 1_555 1_555
C14_8 C13_8 1_555 1_555
H17_8 C14_8 1_555 1_555
H18_8 C14_8 1_555 1_555
C15_8 C11_8 1_555 1_555
H19_8 C15_8 1_555 1_555
C16_8 C11_8 1_555 1_555
H20_8 C16_8 1_555 1_555
H21_8 C16_8 1_555 1_555
H22_8 C16_8 1_555 1_555
C17_8 C11_8 1_555 1_555
C18_8 C12_8 1_555 1_555
C19_8 C15_8 1_555 1_555
C20_8 C12_8 1_555 1_555
H23_8 C20_8 1_555 1_555
H24_8 C20_8 1_555 1_555
H25_8 C20_8 1_555 1_555
C21_8 C22_8 1_555 1_555
C22_8 C34_8 1_555 1_555
C24_8 C21_8 1_555 1_555
C25_8 C24_8 1_555 1_555
H26_8 C25_8 1_555 1_555
C26_8 C25_8 1_555 1_555
H27_8 C26_8 1_555 1_555
C27_8 H28_8 1_555 1_555
C28_8 C24_8 1_555 1_555
H29_8 C28_8 1_555 1_555
N1_8 C21_8 1_555 1_555
N2_8 C22_8 1_555 1_555
H38_8 N2_8 1_555 1_555
N3_8 C26_8 1_555 1_555
O10_4 C9_8 1_555 1_555
O2_8 C9_8 1_555 1_555
O3_8 C8_8 1_555 1_555
O11 C8_8 1_555 1_555
O12_4 C18_8 1_555 1_555
O6_8 C18_8 1_555 1_555
Cd3_3 N3_8 1_555 1_555
O13_3 C19_8 1_555 1_555
O15_3 C19_8 1_555 1_555
C4_8 C5_8 1_555 1_555
C14_8 C15_8 1_555 1_555
C27_8 C28_8 1_555 1_555
C27_8 N3_8 1_555 1_555
O2_8 Cd3_3 1_555 1_555
O6_8 Cd3_3 1_555 1_555
C17_8 H41_8 1_555 1_555
C17_8 H42_8 1_555 1_555
C17_8 H43_8 1_555 1_555
C35_8 H34_8 1_555 1_555
C36_8 C35_8 1_555 1_555
H35_8 C36_8 1_555 1_555
C37_8 H36_6 1_555 1_555
N6_3 C36_8 1_555 1_555
C37_8 C38_8 1_555 1_555
C37_8 N6_3 1_555 1_555

#END
