
###############################################################################
#
# This file contains modified crystal structure data generated from the
# MOF subset of the Cambridge Structural Database (CSD) v543 
# hosted by the Cambridge Crystallographic Data Centre (CCDC).
#
# This work is licensed under the Creative Commons
# Attribution-NonCommercial-ShareAlike 4.0 International License.
# To view a copy of this license, visit
# http://creativecommons.org/licenses/by-nc-sa/4.0/
# or send a letter to
# Creative Commons, PO Box 1866, Mountain View, CA 94042, USA.
#
# CIF created using the CSD Python API on 29 September 2022
# The structure has been converted into the P1 space group
# The structure has a 3D framework
# The original CSD entry COXCUP is in the monoclinic crystal system
# The framework has been calculated to contain at least 10.0% void space
# The void calculation uses a probe of radius 1.32A, grid spacing 0.4
#
###############################################################################

data_COXCUP
_chemical_formula_moiety         '(C112 H128 Cu26 N96)n'
_symmetry_cell_setting           triclinic
_symmetry_space_group_name_H-M   'P 1'
_symmetry_Int_Tables_number      1
_space_group_name_Hall           'P 1'
loop_
_symmetry_equiv_pos_site_id
_symmetry_equiv_pos_as_xyz
1 x,y,z
_cell_length_a                   26.2092(16)
_cell_length_b                   11.6278(9)
_cell_length_c                   16.1167(11)
_cell_angle_alpha                90
_cell_angle_beta                 122.490(9)
_cell_angle_gamma                90
_cell_volume                     4142.9
loop_
_atom_site_label
_atom_site_type_symbol
_atom_site_fract_x
_atom_site_fract_y
_atom_site_fract_z
Cu1 Cu 0.5000 0.17748(12) 0.7500
Cu2 Cu 0.24229(3) 0.11737(8) 0.44998(6)
Cu3 Cu 0.31227(3) 0.23223(9) 0.32770(6)
Cu4 Cu 0.56794(3) 0.35388(8) 0.50811(5)
Cu5 Cu 0.5000 0.39124(12) 0.2500
N1 N 0.42410(19) 0.1774(5) 0.6339(3)
N2 N 0.3269(2) 0.1463(5) 0.5243(3)
N3 N 0.35157(19) 0.1996(5) 0.4770(3)
N4 N 0.38930(19) 0.2581(5) 0.3418(3)
N5 N 0.48567(19) 0.3076(5) 0.4134(3)
N6 N 0.46131(19) 0.3019(5) 0.3132(3)
N7 N 0.57487(19) 0.4823(5) 0.3537(3)
N8 N 0.60266(19) 0.4625(5) 0.4530(3)
N9 N 0.66742(19) 0.5575(5) 0.4287(3)
N10 N 0.62977(19) 0.6895(4) 0.1447(3)
N11 N 0.72665(19) 0.7198(5) 0.2597(3)
N12 N 0.70167(19) 0.6557(5) 0.3014(3)
C1 C 0.3660(3) 0.0774(6) 0.6955(4)
H1 H 0.3234 0.0606 0.6699
H2 H 0.3819 0.1289 0.7522
H3 H 0.3892 0.0055 0.7157
C2 C 0.3712(2) 0.1333(5) 0.6178(4)
C3 C 0.4091(2) 0.2175(6) 0.5446(4)
C4 C 0.4534(2) 0.2789(6) 0.5293(4)
H4 H 0.4936 0.2437 0.5736
H5 H 0.4559 0.3595 0.5508
C5 C 0.4418(2) 0.2808(6) 0.4277(4)
C6 C 0.4040(2) 0.2725(6) 0.2733(4)
C7 C 0.3607(3) 0.2541(6) 0.1655(4)
H6 H 0.3833 0.2420 0.1337
H7 H 0.3347 0.3219 0.1370
H8 H 0.3357 0.1864 0.1553
C8 C 0.7032(2) 0.5132(6) 0.6032(4)
H9 H 0.6826 0.5086 0.6388
H10 H 0.7259 0.5855 0.6196
H11 H 0.7312 0.4483 0.6220
C9 C 0.6577(2) 0.5090(6) 0.4954(4)
C10 C 0.6144(2) 0.5386(6) 0.3416(4)
C11 C 0.5989(3) 0.5734(6) 0.2411(4)
H12 H 0.5615 0.6202 0.2109
H13 H 0.5890 0.5026 0.2012
C12 C 0.6447(2) 0.6394(6) 0.2317(4)
C13 C 0.6829(2) 0.7395(6) 0.1668(4)
C14 C 0.6904(3) 0.8086(6) 0.0968(4)
H14 H 0.7272 0.8551 0.1333
H15 H 0.6553 0.8592 0.0592
H16 H 0.6935 0.7571 0.0517
Cu6 Cu 0.75771(3) 0.11737(8) 0.05002(6)
Cu7 Cu 0.68773(3) 0.23223(9) 0.17230(6)
N15 N 0.64843(19) 0.1996(5) 0.0230(3)
N16 N 0.61070(19) 0.2581(5) 0.1582(3)
N17 N 0.51433(19) 0.3076(5) 0.0866(3)
N18 N 0.53869(19) 0.3019(5) 0.1868(3)
N19 N 0.42513(19) 0.4823(5) 0.1463(3)
N20 N 0.39734(19) 0.4625(5) 0.0470(3)
N21 N 0.33258(19) 0.5575(5) 0.0713(3)
N22 N 0.37023(19) 0.6895(4) 0.3553(3)
N23 N 0.27335(19) 0.7198(5) 0.2403(3)
N24 N 0.29833(19) 0.6557(5) 0.1986(3)
C19 C 0.5582(2) 0.2808(6) 0.0723(4)
C20 C 0.5960(2) 0.2725(6) 0.2267(4)
C21 C 0.6393(3) 0.2541(6) 0.3345(4)
H22 H 0.6167 0.2420 0.3663
H23 H 0.6653 0.3219 0.3630
H24 H 0.6643 0.1864 0.3447
C23 C 0.3423(2) 0.5090(6) 0.0046(4)
C24 C 0.3856(2) 0.5386(6) 0.1584(4)
C25 C 0.4011(3) 0.5734(6) 0.2589(4)
H28 H 0.4385 0.6202 0.2891
H29 H 0.4110 0.5026 0.2988
C26 C 0.3553(2) 0.6394(6) 0.2683(4)
C27 C 0.3171(2) 0.7395(6) 0.3332(4)
C28 C 0.3096(3) 0.8086(6) 0.4032(4)
H30 H 0.2728 0.8551 0.3667
H31 H 0.3447 0.8592 0.4408
H32 H 0.3065 0.7571 0.4483
Cu10 Cu 0.74229(3) 0.61737(8) 0.44998(6)
Cu11 Cu 0.25771(3) 0.61737(8) 0.05002(6)
Cu12 Cu 0.81227(3) 0.73223(9) 0.32770(6)
Cu13 Cu 0.18773(3) 0.73223(9) 0.17230(6)
Cu14 Cu 0.43206(3) 0.64612(8) 0.49189(5)
Cu15 Cu 0.56794(3) 0.64612(8) 0.00811(5)
N25 N 0.57590(19) 0.1774(5) 0.8661(3)
N26 N 0.16742(19) 0.0575(5) 0.4287(3)
N27 N 0.83258(19) 0.0575(5) 0.0713(3)
N29 N 0.62977(19) 0.3105(4) 0.6447(3)
N30 N 0.22665(19) 0.2198(5) 0.2597(3)
N31 N 0.77335(19) 0.2198(5) 0.2403(3)
N32 N 0.20167(19) 0.1557(5) 0.3014(3)
N33 N 0.79833(19) 0.1557(5) 0.1986(3)
Cu8 Cu 0.43206(3) 0.35388(8) 0.99189(5)
N14 N 0.6731(2) 0.1463(5) 0.9757(3)
C15 C 0.6340(3) 0.0774(6) 0.8045(4)
H17 H 0.6766 0.0606 0.8301
H18 H 0.6181 0.1289 0.7478
H19 H 0.6108 0.0055 0.7843
C16 C 0.6288(2) 0.1333(5) 0.8822(4)
C17 C 0.5909(2) 0.2175(6) 0.9554(4)
C18 C 0.5466(2) 0.2789(6) 0.9707(4)
H20 H 0.5064 0.2437 0.9264
H21 H 0.5441 0.3595 0.9492
C22 C 0.2968(2) 0.5132(6) 0.8968(4)
H25 H 0.3174 0.5086 0.8612
H26 H 0.2741 0.5855 0.8804
H27 H 0.2688 0.4483 0.8780
N28 N 0.37023(19) 0.3105(4) 0.8553(3)
N10_2 N 0.12977(19) 0.1895(4) 0.1447(3)
C8_2 C 0.2032(2) 0.0132(6) 0.6032(4)
H9_2 H 0.1826 0.0086 0.6388
H10_2 H 0.2259 0.0855 0.6196
C9_2 C 0.1577(2) 0.0090(6) 0.4954(4)
C10_2 C 0.1144(2) 0.0386(6) 0.3416(4)
C11_2 C 0.0989(3) 0.0734(6) 0.2411(4)
H12_2 H 0.0615 0.1202 0.2109
H13_2 H 0.0890 0.0026 0.2012
C12_2 C 0.1447(2) 0.1394(6) 0.2317(4)
C13_2 C 0.1829(2) 0.2395(6) 0.1668(4)
C14_2 C 0.1904(3) 0.3086(6) 0.0968(4)
H14_2 H 0.2272 0.3551 0.1333
H15_2 H 0.1553 0.3592 0.0592
H16_2 H 0.1935 0.2571 0.0517
Cu15_2 Cu 0.06794(3) 0.14612(8) 0.00811(5)
Cu1_2 Cu 0.0000 0.67748(12) 0.7500
Cu4_2 Cu 0.06794(3) 0.85388(8) 0.50811(5)
Cu5_2 Cu 0.0000 0.89124(12) 0.2500
N7_2 N 0.07487(19) 0.9823(5) 0.3537(3)
N8_2 N 0.10266(19) 0.9625(5) 0.4530(3)
H11_2 H 0.2312 0.9483 0.6220
N15_2 N 0.14843(19) 0.6996(5) 0.0230(3)
N16_2 N 0.11070(19) 0.7581(5) 0.1582(3)
N17_2 N 0.01433(19) 0.8076(5) 0.0866(3)
N18_2 N 0.03869(19) 0.8019(5) 0.1868(3)
C19_2 C 0.0582(2) 0.7808(6) 0.0723(4)
C20_2 C 0.0960(2) 0.7725(6) 0.2267(4)
C21_2 C 0.1393(3) 0.7541(6) 0.3345(4)
H22_2 H 0.1167 0.7420 0.3663
H23_2 H 0.1653 0.8219 0.3630
H24_2 H 0.1643 0.6864 0.3447
N25_2 N 0.07590(19) 0.6774(5) 0.8661(3)
N29_2 N 0.12977(19) 0.8105(4) 0.6447(3)
N14_2 N 0.1731(2) 0.6463(5) 0.9757(3)
C15_2 C 0.1340(3) 0.5774(6) 0.8045(4)
H17_2 H 0.1766 0.5606 0.8301
H18_2 H 0.1181 0.6289 0.7478
H19_2 H 0.1108 0.5055 0.7843
C16_2 C 0.1288(2) 0.6333(5) 0.8822(4)
C17_2 C 0.0909(2) 0.7175(6) 0.9554(4)
C18_2 C 0.0466(2) 0.7789(6) 0.9707(4)
H20_2 H 0.0064 0.7437 0.9264
H21_2 H 0.0441 0.8595 0.9492
N22_2 N 0.87023(19) 0.1895(4) 0.3553(3)
C23_2 C 0.8423(2) 0.0090(6) 0.0046(4)
C24_2 C 0.8856(2) 0.0386(6) 0.1584(4)
C25_2 C 0.9011(3) 0.0734(6) 0.2589(4)
H28_2 H 0.9385 0.1202 0.2891
H29_2 H 0.9110 0.0026 0.2988
C26_2 C 0.8553(2) 0.1394(6) 0.2683(4)
C27_2 C 0.8171(2) 0.2395(6) 0.3332(4)
C28_2 C 0.8096(3) 0.3086(6) 0.4032(4)
H30_2 H 0.7728 0.3551 0.3667
H31_2 H 0.8447 0.3592 0.4408
H32_2 H 0.8065 0.2571 0.4483
Cu14_2 Cu 0.93206(3) 0.14612(8) 0.49189(5)
Cu1_3 Cu 1.0000 0.67748(12) 0.7500
Cu5_3 Cu 1.0000 0.89124(12) 0.2500
N1_2 N 0.92410(19) 0.6774(5) 0.6339(3)
N2_2 N 0.8269(2) 0.6463(5) 0.5243(3)
N3_2 N 0.85157(19) 0.6996(5) 0.4770(3)
N4_2 N 0.88930(19) 0.7581(5) 0.3418(3)
N5_2 N 0.98567(19) 0.8076(5) 0.4134(3)
N6_2 N 0.96131(19) 0.8019(5) 0.3132(3)
C1_2 C 0.8660(3) 0.5774(6) 0.6955(4)
H1_2 H 0.8234 0.5606 0.6699
H2_2 H 0.8819 0.6289 0.7522
H3_2 H 0.8892 0.5055 0.7157
C2_2 C 0.8712(2) 0.6333(5) 0.6178(4)
C3_2 C 0.9091(2) 0.7175(6) 0.5446(4)
C4_2 C 0.9534(2) 0.7789(6) 0.5293(4)
H4_2 H 0.9936 0.7437 0.5736
H5_2 H 0.9559 0.8595 0.5508
C5_2 C 0.9418(2) 0.7808(6) 0.4277(4)
C6_2 C 0.9040(2) 0.7725(6) 0.2733(4)
C7_2 C 0.8607(3) 0.7541(6) 0.1655(4)
H6_2 H 0.8833 0.7420 0.1337
H7_2 H 0.8347 0.8219 0.1370
H8_2 H 0.8357 0.6864 0.1553
N19_2 N 0.92513(19) 0.9823(5) 0.1463(3)
N20_2 N 0.89734(19) 0.9625(5) 0.0470(3)
Cu8_2 Cu 0.93206(3) 0.85388(8) 0.99189(5)
H27_2 H 0.7688 0.9483 0.8780
N28_2 N 0.87023(19) 0.8105(4) 0.8553(3)
N13 N 0.42410(19) 0.8226(5) 0.1339(3)
N14_3 N 0.3269(2) 0.8537(5) 0.0243(3)
C15_3 C 0.3660(3) 0.9226(6) 0.1955(4)
H17_3 H 0.3234 0.9394 0.1699
H18_3 H 0.3819 0.8711 0.2522
H19_3 H 0.3892 0.9945 0.2157
C16_3 C 0.3712(2) 0.8667(5) 0.1178(4)
C17_3 C 0.4091(2) 0.7825(6) 0.0446(4)
C18_3 C 0.4534(2) 0.7211(6) 0.0293(4)
H20_3 H 0.4936 0.7563 0.0736
H21_3 H 0.4559 0.6405 0.0508
C22_2 C 0.7032(2) 0.4868(6) 0.1032(4)
H25_2 H 0.6826 0.4914 0.1388
H26_2 H 0.7259 0.4145 0.1196
H27_3 H 0.7312 0.5517 0.1220
Cu9 Cu 0.5000 0.82252(12) 0.2500
Cu2_2 Cu 0.75771(3) 0.88263(8) 0.55002(6)
Cu3_2 Cu 0.68773(3) 0.76777(9) 0.67230(6)
Cu5_4 Cu 0.5000 0.60876(12) 0.7500
N1_3 N 0.57590(19) 0.8226(5) 0.3661(3)
N2_3 N 0.6731(2) 0.8537(5) 0.4757(3)
N3_3 N 0.64843(19) 0.8004(5) 0.5230(3)
N4_3 N 0.61070(19) 0.7419(5) 0.6582(3)
N5_3 N 0.51433(19) 0.6924(5) 0.5866(3)
N6_3 N 0.53869(19) 0.6981(5) 0.6868(3)
N7_3 N 0.42513(19) 0.5177(5) 0.6463(3)
N8_3 N 0.39734(19) 0.5375(5) 0.5470(3)
N9_2 N 0.33258(19) 0.4425(5) 0.5713(3)
N11_2 N 0.27335(19) 0.2802(5) 0.7403(3)
N12_2 N 0.29833(19) 0.3443(5) 0.6986(3)
C1_3 C 0.6340(3) 0.9226(6) 0.3045(4)
H1_3 H 0.6766 0.9394 0.3301
H2_3 H 0.6181 0.8711 0.2478
H3_3 H 0.6108 0.9945 0.2843
C2_3 C 0.6288(2) 0.8667(5) 0.3822(4)
C3_3 C 0.5909(2) 0.7825(6) 0.4554(4)
C4_3 C 0.5466(2) 0.7211(6) 0.4707(4)
H4_3 H 0.5064 0.7563 0.4264
H5_3 H 0.5441 0.6405 0.4492
C5_3 C 0.5582(2) 0.7192(6) 0.5723(4)
C6_3 C 0.5960(2) 0.7275(6) 0.7267(4)
C7_3 C 0.6393(3) 0.7459(6) 0.8345(4)
H6_3 H 0.6167 0.7580 0.8663
H7_3 H 0.6653 0.6781 0.8630
H8_3 H 0.6643 0.8136 0.8447
C8_3 C 0.2968(2) 0.4868(6) 0.3968(4)
H9_3 H 0.3174 0.4914 0.3612
H10_3 H 0.2741 0.4145 0.3804
H11_3 H 0.2688 0.5517 0.3780
C9_3 C 0.3423(2) 0.4910(6) 0.5046(4)
C10_3 C 0.3856(2) 0.4614(6) 0.6584(4)
C11_3 C 0.4011(3) 0.4266(6) 0.7589(4)
H12_3 H 0.4385 0.3798 0.7891
H13_3 H 0.4110 0.4974 0.7988
C12_3 C 0.3553(2) 0.3606(6) 0.7683(4)
C13_3 C 0.3171(2) 0.2605(6) 0.8332(4)
C14_3 C 0.3096(3) 0.1914(6) 0.9032(4)
H14_3 H 0.2728 0.1449 0.8667
H15_3 H 0.3447 0.1408 0.9408
H16_3 H 0.3065 0.2429 0.9483
Cu6_2 Cu 0.24229(3) 0.88263(8) 0.94998(6)
Cu7_2 Cu 0.31227(3) 0.76777(9) 0.82770(6)
N15_3 N 0.35157(19) 0.8004(5) 0.9770(3)
N16_3 N 0.38930(19) 0.7419(5) 0.8418(3)
N17_3 N 0.48567(19) 0.6924(5) 0.9134(3)
N18_3 N 0.46131(19) 0.6981(5) 0.8132(3)
N19_3 N 0.57487(19) 0.5177(5) 0.8537(3)
N20_3 N 0.60266(19) 0.5375(5) 0.9530(3)
N21_2 N 0.66742(19) 0.4425(5) 0.9287(3)
N23_2 N 0.72665(19) 0.2802(5) 0.7597(3)
N24_2 N 0.70167(19) 0.3443(5) 0.8014(3)
C19_3 C 0.4418(2) 0.7192(6) 0.9277(4)
C20_3 C 0.4040(2) 0.7275(6) 0.7733(4)
C21_3 C 0.3607(3) 0.7459(6) 0.6655(4)
H22_3 H 0.3833 0.7580 0.6337
H23_3 H 0.3347 0.6781 0.6370
H24_3 H 0.3357 0.8136 0.6553
C23_3 C 0.6577(2) 0.4910(6) 0.9954(4)
C24_3 C 0.6144(2) 0.4614(6) 0.8416(4)
C25_3 C 0.5989(3) 0.4266(6) 0.7411(4)
H28_3 H 0.5615 0.3798 0.7109
H29_3 H 0.5890 0.4974 0.7012
C26_3 C 0.6447(2) 0.3606(6) 0.7317(4)
C27_3 C 0.6829(2) 0.2605(6) 0.6668(4)
C28_3 C 0.6904(3) 0.1914(6) 0.5968(4)
H30_3 H 0.7272 0.1449 0.6333
H31_3 H 0.6553 0.1408 0.5592
H32_3 H 0.6935 0.2429 0.5517
Cu10_2 Cu 0.25771(3) 0.38263(8) 0.55002(6)
Cu11_2 Cu 0.74229(3) 0.38263(8) 0.94998(6)
Cu12_2 Cu 0.18773(3) 0.26777(9) 0.67230(6)
Cu13_2 Cu 0.81227(3) 0.26777(9) 0.82770(6)
N26_2 N 0.83258(19) 0.9425(5) 0.5713(3)
N27_2 N 0.16742(19) 0.9425(5) 0.9287(3)
N30_2 N 0.77335(19) 0.7802(5) 0.7403(3)
N31_2 N 0.22665(19) 0.7802(5) 0.7597(3)
N32_2 N 0.79833(19) 0.8443(5) 0.6986(3)
N33_2 N 0.20167(19) 0.8443(5) 0.8014(3)
H27_4 H 0.2312 0.0517 0.1220
Cu9_2 Cu 0.0000 0.32252(12) 0.2500
Cu5_5 Cu 0.0000 0.10876(12) 0.7500
N1_4 N 0.07590(19) 0.3226(5) 0.3661(3)
N2_4 N 0.1731(2) 0.3537(5) 0.4757(3)
N3_4 N 0.14843(19) 0.3004(5) 0.5230(3)
N4_4 N 0.11070(19) 0.2419(5) 0.6582(3)
N5_4 N 0.01433(19) 0.1924(5) 0.5866(3)
N6_4 N 0.03869(19) 0.1981(5) 0.6868(3)
C1_4 C 0.1340(3) 0.4226(6) 0.3045(4)
H1_4 H 0.1766 0.4394 0.3301
H2_4 H 0.1181 0.3711 0.2478
H3_4 H 0.1108 0.4945 0.2843
C2_4 C 0.1288(2) 0.3667(5) 0.3822(4)
C3_4 C 0.0909(2) 0.2825(6) 0.4554(4)
C4_4 C 0.0466(2) 0.2211(6) 0.4707(4)
H4_4 H 0.0064 0.2563 0.4264
H5_4 H 0.0441 0.1405 0.4492
C5_4 C 0.0582(2) 0.2192(6) 0.5723(4)
C6_4 C 0.0960(2) 0.2275(6) 0.7267(4)
C7_4 C 0.1393(3) 0.2459(6) 0.8345(4)
H6_4 H 0.1167 0.2580 0.8663
H7_4 H 0.1653 0.1781 0.8630
H8_4 H 0.1643 0.3136 0.8447
N19_4 N 0.07487(19) 0.0177(5) 0.8537(3)
N20_4 N 0.10266(19) 0.0375(5) 0.9530(3)
C23_4 C 0.1577(2) 0.9910(6) 0.9954(4)
C24_4 C 0.1144(2) 0.9614(6) 0.8416(4)
C25_4 C 0.0989(3) 0.9266(6) 0.7411(4)
H28_4 H 0.0615 0.8798 0.7109
H29_4 H 0.0890 0.9974 0.7012
C26_4 C 0.1447(2) 0.8606(6) 0.7317(4)
C27_4 C 0.1829(2) 0.7605(6) 0.6668(4)
C28_4 C 0.1904(3) 0.6914(6) 0.5968(4)
H30_4 H 0.2272 0.6449 0.6333
H31_4 H 0.1553 0.6408 0.5592
H32_4 H 0.1935 0.7429 0.5517
N13_2 N 0.92410(19) 0.3226(5) 0.1339(3)
N14_4 N 0.8269(2) 0.3537(5) 0.0243(3)
C15_4 C 0.8660(3) 0.4226(6) 0.1955(4)
H17_4 H 0.8234 0.4394 0.1699
H18_4 H 0.8819 0.3711 0.2522
H19_4 H 0.8892 0.4945 0.2157
C16_4 C 0.8712(2) 0.3667(5) 0.1178(4)
C17_4 C 0.9091(2) 0.2825(6) 0.0446(4)
C18_4 C 0.9534(2) 0.2211(6) 0.0293(4)
H20_4 H 0.9936 0.2563 0.0736
H21_4 H 0.9559 0.1405 0.0508
Cu9_3 Cu 1.0000 0.32252(12) 0.2500
Cu5_6 Cu 1.0000 0.10876(12) 0.7500
N7_4 N 0.92513(19) 0.0177(5) 0.6463(3)
N8_4 N 0.89734(19) 0.0375(5) 0.5470(3)
H11_4 H 0.7688 0.0517 0.3780
N15_4 N 0.85157(19) 0.3004(5) 0.9770(3)
N16_4 N 0.88930(19) 0.2419(5) 0.8418(3)
N17_4 N 0.98567(19) 0.1924(5) 0.9134(3)
N18_4 N 0.96131(19) 0.1981(5) 0.8132(3)
C19_4 C 0.9418(2) 0.2192(6) 0.9277(4)
C20_4 C 0.9040(2) 0.2275(6) 0.7733(4)
C21_4 C 0.8607(3) 0.2459(6) 0.6655(4)
H22_4 H 0.8833 0.2580 0.6337
H23_4 H 0.8347 0.1781 0.6370
H24_4 H 0.8357 0.3136 0.6553
C8_4 C 0.7968(2) 0.9868(6) 0.3968(4)
H9_4 H 0.8174 0.9914 0.3612
H10_4 H 0.7741 0.9145 0.3804
C9_4 C 0.8423(2) 0.9910(6) 0.5046(4)
C10_4 C 0.8856(2) 0.9614(6) 0.6584(4)
C11_4 C 0.9011(3) 0.9266(6) 0.7589(4)
H12_4 H 0.9385 0.8798 0.7891
H13_4 H 0.9110 0.9974 0.7988
C12_4 C 0.8553(2) 0.8606(6) 0.7683(4)
C13_4 C 0.8171(2) 0.7605(6) 0.8332(4)
C14_4 C 0.8096(3) 0.6914(6) 0.9032(4)
H14_4 H 0.7728 0.6449 0.8667
H15_4 H 0.8447 0.6408 0.9408
H16_4 H 0.8065 0.7429 0.9483
C22_3 C 0.7968(2) 0.0132(6) 0.8968(4)
H25_3 H 0.8174 0.0086 0.8612
H26_3 H 0.7741 0.0855 0.8804
C22_4 C 0.2032(2) 0.9868(6) 0.1032(4)
H25_4 H 0.1826 0.9914 0.1388
H26_4 H 0.2259 0.9145 0.1196
loop_
_geom_bond_atom_site_label_1
_geom_bond_atom_site_label_2
_geom_bond_site_symmetry_1
_geom_bond_site_symmetry_2
Cu1 N1 1_555 1_555
Cu2 N2 1_555 1_555
Cu3 N3 1_555 1_555
Cu4 N5 1_555 1_555
Cu5 N6 1_555 1_555
N1 C2 1_555 1_555
N2 N3 1_555 1_555
N3 C3 1_555 1_555
N4 Cu3 1_555 1_555
N5 N6 1_555 1_555
N6 C6 1_555 1_555
N7 Cu5 1_555 1_555
N8 Cu4 1_555 1_555
N9 C9 1_555 1_555
N10 C12 1_555 1_555
N11 N12 1_555 1_555
N12 C12 1_555 1_555
C1 H1 1_555 1_555
H2 C1 1_555 1_555
H3 C1 1_555 1_555
C2 N2 1_555 1_555
C3 N1 1_555 1_555
C4 C3 1_555 1_555
H4 C4 1_555 1_555
H5 C4 1_555 1_555
C5 N4 1_555 1_555
C6 N4 1_555 1_555
C7 C6 1_555 1_555
H6 C7 1_555 1_555
H7 C7 1_555 1_555
H8 C7 1_555 1_555
C8 H9 1_555 1_555
H10 C8 1_555 1_555
H11 C8 1_555 1_555
C9 N8 1_555 1_555
C10 N7 1_555 1_555
C11 C10 1_555 1_555
H12 C11 1_555 1_555
H13 C11 1_555 1_555
C12 C11 1_555 1_555
C13 N10 1_555 1_555
C14 C13 1_555 1_555
H14 C14 1_555 1_555
H15 C14 1_555 1_555
H16 C14 1_555 1_555
Cu7 N15 1_555 1_555
N16 Cu7 1_555 1_555
N17 N18 1_555 1_555
N18 Cu5 1_555 1_555
N19 Cu5 1_555 1_555
N21 C23 1_555 1_555
N22 C26 1_555 1_555
N23 N24 1_555 1_555
N24 C26 1_555 1_555
C19 N16 1_555 1_555
C20 N16 1_555 1_555
C21 C20 1_555 1_555
H22 C21 1_555 1_555
H23 C21 1_555 1_555
H24 C21 1_555 1_555
C23 N20 1_555 1_555
C24 N19 1_555 1_555
C25 C24 1_555 1_555
H28 C25 1_555 1_555
H29 C25 1_555 1_555
C26 C25 1_555 1_555
C27 N22 1_555 1_555
C28 C27 1_555 1_555
H30 C28 1_555 1_555
H31 C28 1_555 1_555
H32 C28 1_555 1_555
Cu10 N9 1_555 1_555
Cu11 N21 1_555 1_555
Cu12 N11 1_555 1_555
Cu13 N23 1_555 1_555
Cu14 N22 1_555 1_555
Cu15 N10 1_555 1_555
N25 Cu1 1_555 1_555
N26 Cu2 1_555 1_555
N27 Cu6 1_555 1_555
N29 Cu4 1_555 1_555
N30 Cu3 1_555 1_555
N31 Cu7 1_555 1_555
N32 Cu2 1_555 1_555
N33 Cu6 1_555 1_555
N5 C5 1_555 1_555
N7 N8 1_555 1_555
N9 C10 1_555 1_555
N11 C13 1_555 1_555
N12 Cu10 1_555 1_555
C1 C2 1_555 1_555
C4 C5 1_555 1_555
C8 C9 1_555 1_555
N17 C19 1_555 1_555
N18 C20 1_555 1_555
N19 N20 1_555 1_555
N21 C24 1_555 1_555
N23 C27 1_555 1_555
N24 Cu11 1_555 1_555
N30 N32 1_555 1_555
N31 N33 1_555 1_555
N25 C16 1_555 1_555
C15 H17 1_555 1_555
H18 C15 1_555 1_555
H19 C15 1_555 1_555
C16 N14 1_555 1_555
C17 N25 1_555 1_555
C18 C17 1_555 1_555
H20 C18 1_555 1_555
H21 C18 1_555 1_555
C22 H25 1_555 1_555
H26 C22 1_555 1_555
H27 C22 1_555 1_555
N28 Cu8 1_555 1_555
C15 C16 1_555 1_555
N26 C9_2 1_555 1_555
N10_2 C12_2 1_555 1_555
N32 C12_2 1_555 1_555
C8_2 H9_2 1_555 1_555
H10_2 C8_2 1_555 1_555
C11_2 C10_2 1_555 1_555
H12_2 C11_2 1_555 1_555
H13_2 C11_2 1_555 1_555
C12_2 C11_2 1_555 1_555
C13_2 N10_2 1_555 1_555
C14_2 C13_2 1_555 1_555
H14_2 C14_2 1_555 1_555
H15_2 C14_2 1_555 1_555
H16_2 C14_2 1_555 1_555
Cu15_2 N10_2 1_555 1_555
N26 C10_2 1_555 1_555
N30 C13_2 1_555 1_555
C8_2 C9_2 1_555 1_555
N7_2 Cu5_2 1_555 1_555
N8_2 Cu4_2 1_555 1_555
Cu13 N15_2 1_555 1_555
N16_2 Cu13 1_555 1_555
N17_2 N18_2 1_555 1_555
N18_2 Cu5_2 1_555 1_555
C19_2 N16_2 1_555 1_555
C20_2 N16_2 1_555 1_555
C21_2 C20_2 1_555 1_555
H22_2 C21_2 1_555 1_555
H23_2 C21_2 1_555 1_555
H24_2 C21_2 1_555 1_555
N25_2 Cu1_2 1_555 1_555
N29_2 Cu4_2 1_555 1_555
N7_2 N8_2 1_555 1_555
N17_2 C19_2 1_555 1_555
N18_2 C20_2 1_555 1_555
N25_2 C16_2 1_555 1_555
C15_2 H17_2 1_555 1_555
H18_2 C15_2 1_555 1_555
H19_2 C15_2 1_555 1_555
C16_2 N14_2 1_555 1_555
C17_2 N25_2 1_555 1_555
C18_2 C17_2 1_555 1_555
H20_2 C18_2 1_555 1_555
H21_2 C18_2 1_555 1_555
C15_2 C16_2 1_555 1_555
N27 C23_2 1_555 1_555
N22_2 C26_2 1_555 1_555
N33 C26_2 1_555 1_555
C25_2 C24_2 1_555 1_555
H28_2 C25_2 1_555 1_555
H29_2 C25_2 1_555 1_555
C26_2 C25_2 1_555 1_555
C27_2 N22_2 1_555 1_555
C28_2 C27_2 1_555 1_555
H30_2 C28_2 1_555 1_555
H31_2 C28_2 1_555 1_555
H32_2 C28_2 1_555 1_555
Cu14_2 N22_2 1_555 1_555
N27 C24_2 1_555 1_555
N31 C27_2 1_555 1_555
Cu1_3 N1_2 1_555 1_555
Cu10 N2_2 1_555 1_555
Cu12 N3_2 1_555 1_555
Cu5_3 N6_2 1_555 1_555
N1_2 C2_2 1_555 1_555
N2_2 N3_2 1_555 1_555
N3_2 C3_2 1_555 1_555
N4_2 Cu12 1_555 1_555
N5_2 N6_2 1_555 1_555
N6_2 C6_2 1_555 1_555
C1_2 H1_2 1_555 1_555
H2_2 C1_2 1_555 1_555
H3_2 C1_2 1_555 1_555
C2_2 N2_2 1_555 1_555
C3_2 N1_2 1_555 1_555
C4_2 C3_2 1_555 1_555
H4_2 C4_2 1_555 1_555
H5_2 C4_2 1_555 1_555
C5_2 N4_2 1_555 1_555
C6_2 N4_2 1_555 1_555
C7_2 C6_2 1_555 1_555
H6_2 C7_2 1_555 1_555
H7_2 C7_2 1_555 1_555
H8_2 C7_2 1_555 1_555
N19_2 Cu5_3 1_555 1_555
N5_2 C5_2 1_555 1_555
C1_2 C2_2 1_555 1_555
C4_2 C5_2 1_555 1_555
N19_2 N20_2 1_555 1_555
N28_2 Cu8_2 1_555 1_555
N13 C16_3 1_555 1_555
C15_3 H17_3 1_555 1_555
H18_3 C15_3 1_555 1_555
H19_3 C15_3 1_555 1_555
C16_3 N14_3 1_555 1_555
C17_3 N13 1_555 1_555
C18_3 C17_3 1_555 1_555
H20_3 C18_3 1_555 1_555
H21_3 C18_3 1_555 1_555
C22_2 H25_2 1_555 1_555
H26_2 C22_2 1_555 1_555
H27_3 C22_2 1_555 1_555
Cu9 N13 1_555 1_555
C15_3 C16_3 1_555 1_555
Cu9 N1_3 1_555 1_555
Cu2_2 N2_3 1_555 1_555
Cu3_2 N3_3 1_555 1_555
Cu14 N5_3 1_555 1_555
Cu5_4 N6_3 1_555 1_555
N1_3 C2_3 1_555 1_555
N2_3 N3_3 1_555 1_555
N3_3 C3_3 1_555 1_555
N4_3 Cu3_2 1_555 1_555
N5_3 N6_3 1_555 1_555
N6_3 C6_3 1_555 1_555
N7_3 Cu5_4 1_555 1_555
N8_3 Cu14 1_555 1_555
N9_2 C9_3 1_555 1_555
N28 C12_3 1_555 1_555
N11_2 N12_2 1_555 1_555
N12_2 C12_3 1_555 1_555
C1_3 H1_3 1_555 1_555
H2_3 C1_3 1_555 1_555
H3_3 C1_3 1_555 1_555
C2_3 N2_3 1_555 1_555
C3_3 N1_3 1_555 1_555
C4_3 C3_3 1_555 1_555
H4_3 C4_3 1_555 1_555
H5_3 C4_3 1_555 1_555
C5_3 N4_3 1_555 1_555
C6_3 N4_3 1_555 1_555
C7_3 C6_3 1_555 1_555
H6_3 C7_3 1_555 1_555
H7_3 C7_3 1_555 1_555
H8_3 C7_3 1_555 1_555
C8_3 H9_3 1_555 1_555
H10_3 C8_3 1_555 1_555
H11_3 C8_3 1_555 1_555
C9_3 N8_3 1_555 1_555
C10_3 N7_3 1_555 1_555
C11_3 C10_3 1_555 1_555
H12_3 C11_3 1_555 1_555
H13_3 C11_3 1_555 1_555
C12_3 C11_3 1_555 1_555
C13_3 N28 1_555 1_555
C14_3 C13_3 1_555 1_555
H14_3 C14_3 1_555 1_555
H15_3 C14_3 1_555 1_555
H16_3 C14_3 1_555 1_555
Cu7_2 N15_3 1_555 1_555
N16_3 Cu7_2 1_555 1_555
N17_3 N18_3 1_555 1_555
N18_3 Cu5_4 1_555 1_555
N19_3 Cu5_4 1_555 1_555
N21_2 C23_3 1_555 1_555
N29 C26_3 1_555 1_555
N23_2 N24_2 1_555 1_555
N24_2 C26_3 1_555 1_555
C19_3 N16_3 1_555 1_555
C20_3 N16_3 1_555 1_555
C21_3 C20_3 1_555 1_555
H22_3 C21_3 1_555 1_555
H23_3 C21_3 1_555 1_555
H24_3 C21_3 1_555 1_555
C23_3 N20_3 1_555 1_555
C24_3 N19_3 1_555 1_555
C25_3 C24_3 1_555 1_555
H28_3 C25_3 1_555 1_555
H29_3 C25_3 1_555 1_555
C26_3 C25_3 1_555 1_555
C27_3 N29 1_555 1_555
C28_3 C27_3 1_555 1_555
H30_3 C28_3 1_555 1_555
H31_3 C28_3 1_555 1_555
H32_3 C28_3 1_555 1_555
Cu10_2 N9_2 1_555 1_555
Cu11_2 N21_2 1_555 1_555
Cu12_2 N11_2 1_555 1_555
Cu13_2 N23_2 1_555 1_555
N26_2 Cu2_2 1_555 1_555
N27_2 Cu6_2 1_555 1_555
N30_2 Cu3_2 1_555 1_555
N31_2 Cu7_2 1_555 1_555
N32_2 Cu2_2 1_555 1_555
N33_2 Cu6_2 1_555 1_555
N5_3 C5_3 1_555 1_555
N7_3 N8_3 1_555 1_555
N9_2 C10_3 1_555 1_555
N11_2 C13_3 1_555 1_555
N12_2 Cu10_2 1_555 1_555
C1_3 C2_3 1_555 1_555
C4_3 C5_3 1_555 1_555
C8_3 C9_3 1_555 1_555
N17_3 C19_3 1_555 1_555
N18_3 C20_3 1_555 1_555
N19_3 N20_3 1_555 1_555
N21_2 C24_3 1_555 1_555
N23_2 C27_3 1_555 1_555
N24_2 Cu11_2 1_555 1_555
N30_2 N32_2 1_555 1_555
N31_2 N33_2 1_555 1_555
Cu9_2 N1_4 1_555 1_555
Cu10_2 N2_4 1_555 1_555
Cu12_2 N3_4 1_555 1_555
Cu5_5 N6_4 1_555 1_555
N1_4 C2_4 1_555 1_555
N2_4 N3_4 1_555 1_555
N3_4 C3_4 1_555 1_555
N4_4 Cu12_2 1_555 1_555
N5_4 N6_4 1_555 1_555
N6_4 C6_4 1_555 1_555
C1_4 H1_4 1_555 1_555
H2_4 C1_4 1_555 1_555
H3_4 C1_4 1_555 1_555
C2_4 N2_4 1_555 1_555
C3_4 N1_4 1_555 1_555
C4_4 C3_4 1_555 1_555
H4_4 C4_4 1_555 1_555
H5_4 C4_4 1_555 1_555
C5_4 N4_4 1_555 1_555
C6_4 N4_4 1_555 1_555
C7_4 C6_4 1_555 1_555
H6_4 C7_4 1_555 1_555
H7_4 C7_4 1_555 1_555
H8_4 C7_4 1_555 1_555
N19_4 Cu5_5 1_555 1_555
N5_4 C5_4 1_555 1_555
C1_4 C2_4 1_555 1_555
C4_4 C5_4 1_555 1_555
N19_4 N20_4 1_555 1_555
N27_2 C23_4 1_555 1_555
N29_2 C26_4 1_555 1_555
N33_2 C26_4 1_555 1_555
C25_4 C24_4 1_555 1_555
H28_4 C25_4 1_555 1_555
H29_4 C25_4 1_555 1_555
C26_4 C25_4 1_555 1_555
C27_4 N29_2 1_555 1_555
C28_4 C27_4 1_555 1_555
H30_4 C28_4 1_555 1_555
H31_4 C28_4 1_555 1_555
H32_4 C28_4 1_555 1_555
N27_2 C24_4 1_555 1_555
N31_2 C27_4 1_555 1_555
N13_2 C16_4 1_555 1_555
C15_4 H17_4 1_555 1_555
H18_4 C15_4 1_555 1_555
H19_4 C15_4 1_555 1_555
C16_4 N14_4 1_555 1_555
C17_4 N13_2 1_555 1_555
C18_4 C17_4 1_555 1_555
H20_4 C18_4 1_555 1_555
H21_4 C18_4 1_555 1_555
Cu9_3 N13_2 1_555 1_555
C15_4 C16_4 1_555 1_555
N7_4 Cu5_6 1_555 1_555
N8_4 Cu14_2 1_555 1_555
Cu13_2 N15_4 1_555 1_555
N16_4 Cu13_2 1_555 1_555
N17_4 N18_4 1_555 1_555
N18_4 Cu5_6 1_555 1_555
C19_4 N16_4 1_555 1_555
C20_4 N16_4 1_555 1_555
C21_4 C20_4 1_555 1_555
H22_4 C21_4 1_555 1_555
H23_4 C21_4 1_555 1_555
H24_4 C21_4 1_555 1_555
N7_4 N8_4 1_555 1_555
N17_4 C19_4 1_555 1_555
N18_4 C20_4 1_555 1_555
N26_2 C9_4 1_555 1_555
N28_2 C12_4 1_555 1_555
N32_2 C12_4 1_555 1_555
C8_4 H9_4 1_555 1_555
H10_4 C8_4 1_555 1_555
C11_4 C10_4 1_555 1_555
H12_4 C11_4 1_555 1_555
H13_4 C11_4 1_555 1_555
C12_4 C11_4 1_555 1_555
C13_4 N28_2 1_555 1_555
C14_4 C13_4 1_555 1_555
H14_4 C14_4 1_555 1_555
H15_4 C14_4 1_555 1_555
H16_4 C14_4 1_555 1_555
N26_2 C10_4 1_555 1_555
N30_2 C13_4 1_555 1_555
C8_4 C9_4 1_555 1_555
C22_3 H25_3 1_555 1_555
H26_3 C22_3 1_555 1_555
C22_4 H25_4 1_555 1_555
H26_4 C22_4 1_555 1_555

#END
