
###############################################################################
#
# This file contains modified crystal structure data generated from the
# MOF subset of the Cambridge Structural Database (CSD) v543 
# hosted by the Cambridge Crystallographic Data Centre (CCDC).
#
# This work is licensed under the Creative Commons
# Attribution-NonCommercial-ShareAlike 4.0 International License.
# To view a copy of this license, visit
# http://creativecommons.org/licenses/by-nc-sa/4.0/
# or send a letter to
# Creative Commons, PO Box 1866, Mountain View, CA 94042, USA.
#
# CIF created using the CSD Python API on 29 September 2022
# The structure has been converted into the P1 space group
# The structure has a 3D framework
# The original CSD entry COXCOJ is in the monoclinic crystal system
# The framework has been calculated to contain at least 10.0% void space
# The void calculation uses a probe of radius 1.32A, grid spacing 0.4
#
###############################################################################

data_COXCOJ
_chemical_formula_moiety         '(C112 H128 Cu26 N96)n'
_symmetry_cell_setting           triclinic
_symmetry_space_group_name_H-M   'P 1'
_symmetry_Int_Tables_number      1
_space_group_name_Hall           'P 1'
loop_
_symmetry_equiv_pos_site_id
_symmetry_equiv_pos_as_xyz
1 x,y,z
_cell_length_a                   26.217(2)
_cell_length_b                   11.5371(9)
_cell_length_c                   16.1404(12)
_cell_angle_alpha                90
_cell_angle_beta                 122.5070(10)
_cell_angle_gamma                90
_cell_volume                     4117.08
loop_
_atom_site_label
_atom_site_type_symbol
_atom_site_fract_x
_atom_site_fract_y
_atom_site_fract_z
Cu1 Cu 0.5000 0.17549(8) 0.7500
Cu2 Cu 0.24216(2) 0.11702(5) 0.44988(4)
Cu3 Cu 0.31276(2) 0.22911(5) 0.32746(4)
Cu4 Cu 0.56792(2) 0.35319(5) 0.50811(4)
Cu5 Cu 0.5000 0.38887(7) 0.2500
N1 N 0.42445(16) 0.1748(4) 0.6343(2)
N2 N 0.32684(16) 0.1441(4) 0.5246(3)
N3 N 0.35175(16) 0.1975(4) 0.4765(3)
N4 N 0.38944(16) 0.2543(4) 0.3413(3)
N5 N 0.48618(15) 0.3050(3) 0.4139(2)
N6 N 0.46144(16) 0.3004(4) 0.3128(2)
N7 N 0.57426(15) 0.4825(3) 0.3526(2)
N8 N 0.60252(16) 0.4629(3) 0.4535(2)
N9 N 0.66702(16) 0.5585(3) 0.4285(2)
N10 N 0.63007(16) 0.6888(3) 0.1448(3)
N11 N 0.72710(16) 0.7178(3) 0.2591(3)
N12 N 0.70194(16) 0.6538(3) 0.3015(3)
C1 C 0.3656(2) 0.0780(5) 0.6964(3)
H1 H 0.3237 0.0533 0.6685
H2 H 0.3768 0.1347 0.7487
H3 H 0.3925 0.0107 0.7236
C2 C 0.37150(19) 0.1321(4) 0.6176(3)
C3 C 0.40963(19) 0.2144(4) 0.5442(3)
C4 C 0.45388(19) 0.2759(4) 0.5293(3)
H4 H 0.4941 0.2407 0.5737
H5 H 0.4562 0.3574 0.5503
C5 C 0.44184(19) 0.2765(4) 0.4270(3)
C6 C 0.40456(19) 0.2694(4) 0.2731(3)
C7 C 0.3609(2) 0.2530(4) 0.1652(3)
H6 H 0.3813 0.2685 0.1303
H7 H 0.3269 0.3067 0.1421
H8 H 0.3458 0.1731 0.1524
C8 C 0.7023(2) 0.5148(5) 0.6028(3)
H9 H 0.6862 0.4748 0.6375
H10 H 0.7108 0.5958 0.6242
H11 H 0.7397 0.4767 0.6176
C9 C 0.65699(19) 0.5102(4) 0.4949(3)
C10 C 0.61405(18) 0.5382(4) 0.3412(3)
C11 C 0.5985(2) 0.5734(5) 0.2404(3)
H12 H 0.5883 0.5022 0.2003
H13 H 0.5613 0.6213 0.2104
C12 C 0.64451(19) 0.6389(4) 0.2312(3)
C13 C 0.68297(19) 0.7388(4) 0.1667(3)
C14 C 0.6913(2) 0.8070(5) 0.0966(3)
H14 H 0.7332 0.8341 0.1298
H15 H 0.6639 0.8738 0.0732
H16 H 0.6822 0.7580 0.0407
Cu6 Cu 0.75784(2) 0.11702(5) 0.05012(4)
Cu7 Cu 0.68724(2) 0.22911(5) 0.17254(4)
N15 N 0.64825(16) 0.1975(4) 0.0235(3)
N16 N 0.61056(16) 0.2543(4) 0.1587(3)
N17 N 0.51382(15) 0.3050(3) 0.0861(2)
N18 N 0.53856(16) 0.3004(4) 0.1872(2)
N19 N 0.42574(15) 0.4825(3) 0.1474(2)
N20 N 0.39748(16) 0.4629(3) 0.0465(2)
N21 N 0.33298(16) 0.5585(3) 0.0715(2)
N22 N 0.36993(16) 0.6888(3) 0.3552(3)
N23 N 0.27290(16) 0.7178(3) 0.2409(3)
N24 N 0.29806(16) 0.6538(3) 0.1985(3)
C19 C 0.55816(19) 0.2765(4) 0.0730(3)
C20 C 0.59544(19) 0.2694(4) 0.2269(3)
C21 C 0.6391(2) 0.2530(4) 0.3348(3)
H22 H 0.6187 0.2685 0.3697
H23 H 0.6731 0.3067 0.3579
H24 H 0.6542 0.1731 0.3476
C23 C 0.34301(19) 0.5102(4) 0.0051(3)
C24 C 0.38595(18) 0.5382(4) 0.1588(3)
C25 C 0.4015(2) 0.5734(5) 0.2596(3)
H28 H 0.4117 0.5022 0.2997
H29 H 0.4387 0.6213 0.2896
C26 C 0.35549(19) 0.6389(4) 0.2688(3)
C27 C 0.31703(19) 0.7388(4) 0.3333(3)
C28 C 0.3087(2) 0.8070(5) 0.4034(3)
H30 H 0.2668 0.8341 0.3702
H31 H 0.3361 0.8738 0.4268
H32 H 0.3178 0.7580 0.4593
Cu10 Cu 0.74216(2) 0.61702(5) 0.44988(4)
Cu11 Cu 0.25784(2) 0.61702(5) 0.05012(4)
Cu12 Cu 0.81276(2) 0.72911(5) 0.32746(4)
Cu13 Cu 0.18724(2) 0.72911(5) 0.17254(4)
Cu14 Cu 0.43208(2) 0.64681(5) 0.49189(4)
Cu15 Cu 0.56792(2) 0.64681(5) 0.00811(4)
N25 N 0.57555(16) 0.1748(4) 0.8657(2)
N26 N 0.16702(16) 0.0585(3) 0.4285(2)
N27 N 0.83298(16) 0.0585(3) 0.0715(2)
N29 N 0.63007(16) 0.3112(3) 0.6448(3)
N30 N 0.22710(16) 0.2178(3) 0.2591(3)
N31 N 0.77290(16) 0.2178(3) 0.2409(3)
N32 N 0.20194(16) 0.1538(3) 0.3015(3)
N33 N 0.79806(16) 0.1538(3) 0.1985(3)
Cu8 Cu 0.43208(2) 0.35319(5) 0.99189(4)
N14 N 0.67316(16) 0.1441(4) 0.9754(3)
C15 C 0.6344(2) 0.0780(5) 0.8036(3)
H17 H 0.6763 0.0533 0.8315
H18 H 0.6232 0.1347 0.7513
H19 H 0.6075 0.0107 0.7764
C16 C 0.62850(19) 0.1321(4) 0.8824(3)
C17 C 0.59037(19) 0.2144(4) 0.9558(3)
C18 C 0.54612(19) 0.2759(4) 0.9707(3)
H20 H 0.5059 0.2407 0.9263
H21 H 0.5438 0.3574 0.9497
C22 C 0.2977(2) 0.5148(5) 0.8972(3)
H25 H 0.3138 0.4748 0.8625
H26 H 0.2892 0.5958 0.8758
H27 H 0.2603 0.4767 0.8824
N28 N 0.36993(16) 0.3112(3) 0.8552(3)
N10_2 N 0.13007(16) 0.1888(3) 0.1448(3)
C8_2 C 0.2023(2) 0.0148(5) 0.6028(3)
H10_2 H 0.2108 0.0958 0.6242
C9_2 C 0.15699(19) 0.0102(4) 0.4949(3)
C10_2 C 0.11405(18) 0.0382(4) 0.3412(3)
C11_2 C 0.0985(2) 0.0734(5) 0.2404(3)
H12_2 H 0.0883 0.0022 0.2003
H13_2 H 0.0613 0.1213 0.2104
C12_2 C 0.14451(19) 0.1389(4) 0.2312(3)
C13_2 C 0.18297(19) 0.2388(4) 0.1667(3)
C14_2 C 0.1913(2) 0.3070(5) 0.0966(3)
H14_2 H 0.2332 0.3341 0.1298
H15_2 H 0.1639 0.3738 0.0732
H16_2 H 0.1822 0.2580 0.0407
Cu15_2 Cu 0.06792(2) 0.14681(5) 0.00811(4)
Cu1_2 Cu 0.0000 0.67549(8) 0.7500
Cu4_2 Cu 0.06792(2) 0.85319(5) 0.50811(4)
Cu5_2 Cu -0.0000 0.88887(7) 0.2500
N7_2 N 0.07426(15) 0.9825(3) 0.3526(2)
N8_2 N 0.10252(16) 0.9629(3) 0.4535(2)
H9_2 H 0.1862 0.9748 0.6375
H11_2 H 0.2397 0.9767 0.6176
N15_2 N 0.14825(16) 0.6975(4) 0.0235(3)
N16_2 N 0.11056(16) 0.7543(4) 0.1587(3)
N17_2 N 0.01382(15) 0.8050(3) 0.0861(2)
N18_2 N 0.03856(16) 0.8004(4) 0.1872(2)
C19_2 C 0.05816(19) 0.7765(4) 0.0730(3)
C20_2 C 0.09544(19) 0.7694(4) 0.2269(3)
C21_2 C 0.1391(2) 0.7530(4) 0.3348(3)
H22_2 H 0.1187 0.7685 0.3697
H23_2 H 0.1731 0.8067 0.3579
H24_2 H 0.1542 0.6731 0.3476
N25_2 N 0.07555(16) 0.6748(4) 0.8657(2)
N29_2 N 0.13007(16) 0.8112(3) 0.6448(3)
N14_2 N 0.17316(16) 0.6441(4) 0.9754(3)
C15_2 C 0.1344(2) 0.5780(5) 0.8036(3)
H17_2 H 0.1763 0.5533 0.8315
H18_2 H 0.1232 0.6347 0.7513
H19_2 H 0.1075 0.5107 0.7764
C16_2 C 0.12850(19) 0.6321(4) 0.8824(3)
C17_2 C 0.09037(19) 0.7144(4) 0.9558(3)
C18_2 C 0.04612(19) 0.7759(4) 0.9707(3)
H20_2 H 0.0059 0.7407 0.9263
H21_2 H 0.0438 0.8574 0.9497
N22_2 N 0.86993(16) 0.1888(3) 0.3552(3)
C23_2 C 0.84301(19) 0.0102(4) 0.0051(3)
C24_2 C 0.88595(18) 0.0382(4) 0.1588(3)
C25_2 C 0.9015(2) 0.0734(5) 0.2596(3)
H28_2 H 0.9117 0.0022 0.2997
H29_2 H 0.9387 0.1213 0.2896
C26_2 C 0.85549(19) 0.1389(4) 0.2688(3)
C27_2 C 0.81703(19) 0.2388(4) 0.3333(3)
C28_2 C 0.8087(2) 0.3070(5) 0.4034(3)
H30_2 H 0.7668 0.3341 0.3702
H31_2 H 0.8361 0.3738 0.4268
H32_2 H 0.8178 0.2580 0.4593
Cu14_2 Cu 0.93208(2) 0.14681(5) 0.49189(4)
Cu1_3 Cu 1.0000 0.67549(8) 0.7500
Cu5_3 Cu 1.0000 0.88887(7) 0.2500
N1_2 N 0.92445(16) 0.6748(4) 0.6343(2)
N2_2 N 0.82684(16) 0.6441(4) 0.5246(3)
N3_2 N 0.85175(16) 0.6975(4) 0.4765(3)
N4_2 N 0.88944(16) 0.7543(4) 0.3413(3)
N5_2 N 0.98618(15) 0.8050(3) 0.4139(2)
N6_2 N 0.96144(16) 0.8004(4) 0.3128(2)
C1_2 C 0.8656(2) 0.5780(5) 0.6964(3)
H1_2 H 0.8237 0.5533 0.6685
H2_2 H 0.8768 0.6347 0.7487
H3_2 H 0.8925 0.5107 0.7236
C2_2 C 0.87150(19) 0.6321(4) 0.6176(3)
C3_2 C 0.90963(19) 0.7144(4) 0.5442(3)
C4_2 C 0.95388(19) 0.7759(4) 0.5293(3)
H4_2 H 0.9941 0.7407 0.5737
H5_2 H 0.9562 0.8574 0.5503
C5_2 C 0.94184(19) 0.7765(4) 0.4270(3)
C6_2 C 0.90456(19) 0.7694(4) 0.2731(3)
C7_2 C 0.8609(2) 0.7530(4) 0.1652(3)
H6_2 H 0.8813 0.7685 0.1303
H7_2 H 0.8269 0.8067 0.1421
H8_2 H 0.8458 0.6731 0.1524
N19_2 N 0.92574(15) 0.9825(3) 0.1474(2)
N20_2 N 0.89748(16) 0.9629(3) 0.0465(2)
Cu8_2 Cu 0.93208(2) 0.85319(5) 0.99189(4)
H25_2 H 0.8138 0.9748 0.8625
H27_2 H 0.7603 0.9767 0.8824
N28_2 N 0.86993(16) 0.8112(3) 0.8552(3)
N13 N 0.42445(16) 0.8252(4) 0.1343(2)
N14_3 N 0.32684(16) 0.8559(4) 0.0246(3)
C15_3 C 0.3656(2) 0.9220(5) 0.1964(3)
H17_3 H 0.3237 0.9467 0.1685
H18_3 H 0.3768 0.8653 0.2487
H19_3 H 0.3925 0.9893 0.2236
C16_3 C 0.37150(19) 0.8679(4) 0.1176(3)
C17_3 C 0.40963(19) 0.7856(4) 0.0442(3)
C18_3 C 0.45388(19) 0.7241(4) 0.0293(3)
H20_3 H 0.4941 0.7593 0.0737
H21_3 H 0.4562 0.6426 0.0503
C22_2 C 0.7023(2) 0.4852(5) 0.1028(3)
H25_3 H 0.6862 0.5252 0.1375
H26_2 H 0.7108 0.4042 0.1242
H27_3 H 0.7397 0.5233 0.1176
Cu9 Cu 0.5000 0.82451(8) 0.2500
Cu2_2 Cu 0.75784(2) 0.88298(5) 0.55012(4)
Cu3_2 Cu 0.68724(2) 0.77089(5) 0.67254(4)
Cu5_4 Cu 0.5000 0.61113(7) 0.7500
N1_3 N 0.57555(16) 0.8252(4) 0.3657(2)
N2_3 N 0.67316(16) 0.8559(4) 0.4754(3)
N3_3 N 0.64825(16) 0.8025(4) 0.5235(3)
N4_3 N 0.61056(16) 0.7457(4) 0.6587(3)
N5_3 N 0.51382(15) 0.6950(3) 0.5861(2)
N6_3 N 0.53856(16) 0.6996(4) 0.6872(2)
N7_3 N 0.42574(15) 0.5175(3) 0.6474(2)
N8_3 N 0.39748(16) 0.5371(3) 0.5465(2)
N9_2 N 0.33298(16) 0.4415(3) 0.5715(2)
N11_2 N 0.27290(16) 0.2822(3) 0.7409(3)
N12_2 N 0.29806(16) 0.3462(3) 0.6985(3)
C1_3 C 0.6344(2) 0.9220(5) 0.3036(3)
H1_3 H 0.6763 0.9467 0.3315
H2_3 H 0.6232 0.8653 0.2513
H3_3 H 0.6075 0.9893 0.2764
C2_3 C 0.62850(19) 0.8679(4) 0.3824(3)
C3_3 C 0.59037(19) 0.7856(4) 0.4558(3)
C4_3 C 0.54612(19) 0.7241(4) 0.4707(3)
H4_3 H 0.5059 0.7593 0.4263
H5_3 H 0.5438 0.6426 0.4497
C5_3 C 0.55816(19) 0.7235(4) 0.5730(3)
C6_3 C 0.59544(19) 0.7306(4) 0.7269(3)
C7_3 C 0.6391(2) 0.7470(4) 0.8348(3)
H6_3 H 0.6187 0.7315 0.8697
H7_3 H 0.6731 0.6933 0.8579
H8_3 H 0.6542 0.8269 0.8476
C8_3 C 0.2977(2) 0.4852(5) 0.3972(3)
H9_3 H 0.3138 0.5252 0.3625
H10_3 H 0.2892 0.4042 0.3758
H11_3 H 0.2603 0.5233 0.3824
C9_3 C 0.34301(19) 0.4898(4) 0.5051(3)
C10_3 C 0.38595(18) 0.4618(4) 0.6588(3)
C11_3 C 0.4015(2) 0.4266(5) 0.7596(3)
H12_3 H 0.4117 0.4978 0.7997
H13_3 H 0.4387 0.3787 0.7896
C12_3 C 0.35549(19) 0.3611(4) 0.7688(3)
C13_3 C 0.31703(19) 0.2612(4) 0.8333(3)
C14_3 C 0.3087(2) 0.1930(5) 0.9034(3)
H14_3 H 0.2668 0.1659 0.8702
H15_3 H 0.3361 0.1262 0.9268
H16_3 H 0.3178 0.2420 0.9593
Cu6_2 Cu 0.24216(2) 0.88298(5) 0.94988(4)
Cu7_2 Cu 0.31276(2) 0.77089(5) 0.82746(4)
N15_3 N 0.35175(16) 0.8025(4) 0.9765(3)
N16_3 N 0.38944(16) 0.7457(4) 0.8413(3)
N17_3 N 0.48618(15) 0.6950(3) 0.9139(2)
N18_3 N 0.46144(16) 0.6996(4) 0.8128(2)
N19_3 N 0.57426(15) 0.5175(3) 0.8526(2)
N20_3 N 0.60252(16) 0.5371(3) 0.9535(2)
N21_2 N 0.66702(16) 0.4415(3) 0.9285(2)
N23_2 N 0.72710(16) 0.2822(3) 0.7591(3)
N24_2 N 0.70194(16) 0.3462(3) 0.8015(3)
C19_3 C 0.44184(19) 0.7235(4) 0.9270(3)
C20_3 C 0.40456(19) 0.7306(4) 0.7731(3)
C21_3 C 0.3609(2) 0.7470(4) 0.6652(3)
H22_3 H 0.3813 0.7315 0.6303
H23_3 H 0.3269 0.6933 0.6421
H24_3 H 0.3458 0.8269 0.6524
C23_3 C 0.65699(19) 0.4898(4) 0.9949(3)
C24_3 C 0.61405(18) 0.4618(4) 0.8412(3)
C25_3 C 0.5985(2) 0.4266(5) 0.7404(3)
H28_3 H 0.5883 0.4978 0.7003
H29_3 H 0.5613 0.3787 0.7104
C26_3 C 0.64451(19) 0.3611(4) 0.7312(3)
C27_3 C 0.68297(19) 0.2612(4) 0.6667(3)
C28_3 C 0.6913(2) 0.1930(5) 0.5966(3)
H30_3 H 0.7332 0.1659 0.6298
H31_3 H 0.6639 0.1262 0.5732
H32_3 H 0.6822 0.2420 0.5407
Cu10_2 Cu 0.25784(2) 0.38298(5) 0.55012(4)
Cu11_2 Cu 0.74216(2) 0.38298(5) 0.94988(4)
Cu12_2 Cu 0.18724(2) 0.27089(5) 0.67254(4)
Cu13_2 Cu 0.81276(2) 0.27089(5) 0.82746(4)
N26_2 N 0.83298(16) 0.9415(3) 0.5715(2)
N27_2 N 0.16702(16) 0.9415(3) 0.9285(2)
N30_2 N 0.77290(16) 0.7822(3) 0.7409(3)
N31_2 N 0.22710(16) 0.7822(3) 0.7591(3)
N32_2 N 0.79806(16) 0.8462(3) 0.6985(3)
N33_2 N 0.20194(16) 0.8462(3) 0.8015(3)
H25_4 H 0.1862 0.0252 0.1375
H27_4 H 0.2397 0.0233 0.1176
Cu9_2 Cu 0.0000 0.32451(8) 0.2500
Cu5_5 Cu 0.0000 0.11113(7) 0.7500
N1_4 N 0.07555(16) 0.3252(4) 0.3657(2)
N2_4 N 0.17316(16) 0.3559(4) 0.4754(3)
N3_4 N 0.14825(16) 0.3025(4) 0.5235(3)
N4_4 N 0.11056(16) 0.2457(4) 0.6587(3)
N5_4 N 0.01382(15) 0.1950(3) 0.5861(2)
N6_4 N 0.03856(16) 0.1996(4) 0.6872(2)
C1_4 C 0.1344(2) 0.4220(5) 0.3036(3)
H1_4 H 0.1763 0.4467 0.3315
H2_4 H 0.1232 0.3653 0.2513
H3_4 H 0.1075 0.4893 0.2764
C2_4 C 0.12850(19) 0.3679(4) 0.3824(3)
C3_4 C 0.09037(19) 0.2856(4) 0.4558(3)
C4_4 C 0.04612(19) 0.2241(4) 0.4707(3)
H4_4 H 0.0059 0.2593 0.4263
H5_4 H 0.0438 0.1426 0.4497
C5_4 C 0.05816(19) 0.2235(4) 0.5730(3)
C6_4 C 0.09544(19) 0.2306(4) 0.7269(3)
C7_4 C 0.1391(2) 0.2470(4) 0.8348(3)
H6_4 H 0.1187 0.2315 0.8697
H7_4 H 0.1731 0.1933 0.8579
H8_4 H 0.1542 0.3269 0.8476
N19_4 N 0.07426(15) 0.0175(3) 0.8526(2)
N20_4 N 0.10252(16) 0.0371(3) 0.9535(2)
C23_4 C 0.15699(19) 0.9898(4) 0.9949(3)
C24_4 C 0.11405(18) 0.9618(4) 0.8412(3)
C25_4 C 0.0985(2) 0.9266(5) 0.7404(3)
H28_4 H 0.0883 0.9978 0.7003
H29_4 H 0.0613 0.8787 0.7104
C26_4 C 0.14451(19) 0.8611(4) 0.7312(3)
C27_4 C 0.18297(19) 0.7612(4) 0.6667(3)
C28_4 C 0.1913(2) 0.6930(5) 0.5966(3)
H30_4 H 0.2332 0.6659 0.6298
H31_4 H 0.1639 0.6262 0.5732
H32_4 H 0.1822 0.7420 0.5407
N13_2 N 0.92445(16) 0.3252(4) 0.1343(2)
N14_4 N 0.82684(16) 0.3559(4) 0.0246(3)
C15_4 C 0.8656(2) 0.4220(5) 0.1964(3)
H17_4 H 0.8237 0.4467 0.1685
H18_4 H 0.8768 0.3653 0.2487
H19_4 H 0.8925 0.4893 0.2236
C16_4 C 0.87150(19) 0.3679(4) 0.1176(3)
C17_4 C 0.90963(19) 0.2856(4) 0.0442(3)
C18_4 C 0.95388(19) 0.2241(4) 0.0293(3)
H20_4 H 0.9941 0.2593 0.0737
H21_4 H 0.9562 0.1426 0.0503
Cu9_3 Cu 1.0000 0.32451(8) 0.2500
Cu5_6 Cu 1.0000 0.11113(7) 0.7500
N7_4 N 0.92574(15) 0.0175(3) 0.6474(2)
N8_4 N 0.89748(16) 0.0371(3) 0.5465(2)
H9_4 H 0.8138 0.0252 0.3625
H11_4 H 0.7603 0.0233 0.3824
N15_4 N 0.85175(16) 0.3025(4) 0.9765(3)
N16_4 N 0.88944(16) 0.2457(4) 0.8413(3)
N17_4 N 0.98618(15) 0.1950(3) 0.9139(2)
N18_4 N 0.96144(16) 0.1996(4) 0.8128(2)
C19_4 C 0.94184(19) 0.2235(4) 0.9270(3)
C20_4 C 0.90456(19) 0.2306(4) 0.7731(3)
C21_4 C 0.8609(2) 0.2470(4) 0.6652(3)
H22_4 H 0.8813 0.2315 0.6303
H23_4 H 0.8269 0.1933 0.6421
H24_4 H 0.8458 0.3269 0.6524
C8_4 C 0.7977(2) 0.9852(5) 0.3972(3)
H10_4 H 0.7892 0.9042 0.3758
C9_4 C 0.84301(19) 0.9898(4) 0.5051(3)
C10_4 C 0.88595(18) 0.9618(4) 0.6588(3)
C11_4 C 0.9015(2) 0.9266(5) 0.7596(3)
H12_4 H 0.9117 0.9978 0.7997
H13_4 H 0.9387 0.8787 0.7896
C12_4 C 0.85549(19) 0.8611(4) 0.7688(3)
C13_4 C 0.81703(19) 0.7612(4) 0.8333(3)
C14_4 C 0.8087(2) 0.6930(5) 0.9034(3)
H14_4 H 0.7668 0.6659 0.8702
H15_4 H 0.8361 0.6262 0.9268
H16_4 H 0.8178 0.7420 0.9593
C22_3 C 0.7977(2) 0.0148(5) 0.8972(3)
H26_3 H 0.7892 0.0958 0.8758
C22_4 C 0.2023(2) 0.9852(5) 0.1028(3)
H26_4 H 0.2108 0.9042 0.1242
loop_
_geom_bond_atom_site_label_1
_geom_bond_atom_site_label_2
_geom_bond_site_symmetry_1
_geom_bond_site_symmetry_2
Cu1 N1 1_555 1_555
Cu2 N2 1_555 1_555
Cu3 N3 1_555 1_555
Cu4 N5 1_555 1_555
Cu5 N6 1_555 1_555
N1 C2 1_555 1_555
N2 N3 1_555 1_555
N3 C3 1_555 1_555
N4 Cu3 1_555 1_555
N5 N6 1_555 1_555
N6 C6 1_555 1_555
N7 Cu5 1_555 1_555
N8 Cu4 1_555 1_555
N9 C9 1_555 1_555
N10 C12 1_555 1_555
N11 N12 1_555 1_555
N12 C12 1_555 1_555
C1 H1 1_555 1_555
H2 C1 1_555 1_555
H3 C1 1_555 1_555
C2 N2 1_555 1_555
C3 N1 1_555 1_555
C4 C3 1_555 1_555
H4 C4 1_555 1_555
H5 C4 1_555 1_555
C5 N4 1_555 1_555
C6 N4 1_555 1_555
C7 C6 1_555 1_555
H6 C7 1_555 1_555
H7 C7 1_555 1_555
H8 C7 1_555 1_555
C8 H9 1_555 1_555
H10 C8 1_555 1_555
H11 C8 1_555 1_555
C9 N8 1_555 1_555
C10 N7 1_555 1_555
C11 C10 1_555 1_555
H12 C11 1_555 1_555
H13 C11 1_555 1_555
C12 C11 1_555 1_555
C13 N10 1_555 1_555
C14 C13 1_555 1_555
H14 C14 1_555 1_555
H15 C14 1_555 1_555
H16 C14 1_555 1_555
Cu7 N15 1_555 1_555
N16 Cu7 1_555 1_555
N17 N18 1_555 1_555
N18 Cu5 1_555 1_555
N19 Cu5 1_555 1_555
N21 C23 1_555 1_555
N22 C26 1_555 1_555
N23 N24 1_555 1_555
N24 C26 1_555 1_555
C19 N16 1_555 1_555
C20 N16 1_555 1_555
C21 C20 1_555 1_555
H22 C21 1_555 1_555
H23 C21 1_555 1_555
H24 C21 1_555 1_555
C23 N20 1_555 1_555
C24 N19 1_555 1_555
C25 C24 1_555 1_555
H28 C25 1_555 1_555
H29 C25 1_555 1_555
C26 C25 1_555 1_555
C27 N22 1_555 1_555
C28 C27 1_555 1_555
H30 C28 1_555 1_555
H31 C28 1_555 1_555
H32 C28 1_555 1_555
Cu10 N9 1_555 1_555
Cu11 N21 1_555 1_555
Cu12 N11 1_555 1_555
Cu13 N23 1_555 1_555
Cu14 N22 1_555 1_555
Cu15 N10 1_555 1_555
N25 Cu1 1_555 1_555
N26 Cu2 1_555 1_555
N27 Cu6 1_555 1_555
N29 Cu4 1_555 1_555
N30 Cu3 1_555 1_555
N31 Cu7 1_555 1_555
N32 Cu2 1_555 1_555
N33 Cu6 1_555 1_555
N5 C5 1_555 1_555
N7 N8 1_555 1_555
N9 C10 1_555 1_555
N11 C13 1_555 1_555
N12 Cu10 1_555 1_555
C1 C2 1_555 1_555
C4 C5 1_555 1_555
C8 C9 1_555 1_555
N17 C19 1_555 1_555
N18 C20 1_555 1_555
N19 N20 1_555 1_555
N21 C24 1_555 1_555
N23 C27 1_555 1_555
N24 Cu11 1_555 1_555
N30 N32 1_555 1_555
N31 N33 1_555 1_555
N25 C16 1_555 1_555
C15 H17 1_555 1_555
H18 C15 1_555 1_555
H19 C15 1_555 1_555
C16 N14 1_555 1_555
C17 N25 1_555 1_555
C18 C17 1_555 1_555
H20 C18 1_555 1_555
H21 C18 1_555 1_555
C22 H25 1_555 1_555
H26 C22 1_555 1_555
H27 C22 1_555 1_555
N28 Cu8 1_555 1_555
C15 C16 1_555 1_555
N26 C9_2 1_555 1_555
N10_2 C12_2 1_555 1_555
N32 C12_2 1_555 1_555
H10_2 C8_2 1_555 1_555
C11_2 C10_2 1_555 1_555
H12_2 C11_2 1_555 1_555
H13_2 C11_2 1_555 1_555
C12_2 C11_2 1_555 1_555
C13_2 N10_2 1_555 1_555
C14_2 C13_2 1_555 1_555
H14_2 C14_2 1_555 1_555
H15_2 C14_2 1_555 1_555
H16_2 C14_2 1_555 1_555
Cu15_2 N10_2 1_555 1_555
N26 C10_2 1_555 1_555
N30 C13_2 1_555 1_555
C8_2 C9_2 1_555 1_555
N7_2 Cu5_2 1_555 1_555
N8_2 Cu4_2 1_555 1_555
Cu13 N15_2 1_555 1_555
N16_2 Cu13 1_555 1_555
N17_2 N18_2 1_555 1_555
N18_2 Cu5_2 1_555 1_555
C19_2 N16_2 1_555 1_555
C20_2 N16_2 1_555 1_555
C21_2 C20_2 1_555 1_555
H22_2 C21_2 1_555 1_555
H23_2 C21_2 1_555 1_555
H24_2 C21_2 1_555 1_555
N25_2 Cu1_2 1_555 1_555
N29_2 Cu4_2 1_555 1_555
N7_2 N8_2 1_555 1_555
N17_2 C19_2 1_555 1_555
N18_2 C20_2 1_555 1_555
N25_2 C16_2 1_555 1_555
C15_2 H17_2 1_555 1_555
H18_2 C15_2 1_555 1_555
H19_2 C15_2 1_555 1_555
C16_2 N14_2 1_555 1_555
C17_2 N25_2 1_555 1_555
C18_2 C17_2 1_555 1_555
H20_2 C18_2 1_555 1_555
H21_2 C18_2 1_555 1_555
C15_2 C16_2 1_555 1_555
N27 C23_2 1_555 1_555
N22_2 C26_2 1_555 1_555
N33 C26_2 1_555 1_555
C25_2 C24_2 1_555 1_555
H28_2 C25_2 1_555 1_555
H29_2 C25_2 1_555 1_555
C26_2 C25_2 1_555 1_555
C27_2 N22_2 1_555 1_555
C28_2 C27_2 1_555 1_555
H30_2 C28_2 1_555 1_555
H31_2 C28_2 1_555 1_555
H32_2 C28_2 1_555 1_555
Cu14_2 N22_2 1_555 1_555
N27 C24_2 1_555 1_555
N31 C27_2 1_555 1_555
Cu1_3 N1_2 1_555 1_555
Cu10 N2_2 1_555 1_555
Cu12 N3_2 1_555 1_555
Cu5_3 N6_2 1_555 1_555
N1_2 C2_2 1_555 1_555
N2_2 N3_2 1_555 1_555
N3_2 C3_2 1_555 1_555
N4_2 Cu12 1_555 1_555
N5_2 N6_2 1_555 1_555
N6_2 C6_2 1_555 1_555
C1_2 H1_2 1_555 1_555
H2_2 C1_2 1_555 1_555
H3_2 C1_2 1_555 1_555
C2_2 N2_2 1_555 1_555
C3_2 N1_2 1_555 1_555
C4_2 C3_2 1_555 1_555
H4_2 C4_2 1_555 1_555
H5_2 C4_2 1_555 1_555
C5_2 N4_2 1_555 1_555
C6_2 N4_2 1_555 1_555
C7_2 C6_2 1_555 1_555
H6_2 C7_2 1_555 1_555
H7_2 C7_2 1_555 1_555
H8_2 C7_2 1_555 1_555
N19_2 Cu5_3 1_555 1_555
N5_2 C5_2 1_555 1_555
C1_2 C2_2 1_555 1_555
C4_2 C5_2 1_555 1_555
N19_2 N20_2 1_555 1_555
N28_2 Cu8_2 1_555 1_555
N13 C16_3 1_555 1_555
C15_3 H17_3 1_555 1_555
H18_3 C15_3 1_555 1_555
H19_3 C15_3 1_555 1_555
C16_3 N14_3 1_555 1_555
C17_3 N13 1_555 1_555
C18_3 C17_3 1_555 1_555
H20_3 C18_3 1_555 1_555
H21_3 C18_3 1_555 1_555
C22_2 H25_3 1_555 1_555
H26_2 C22_2 1_555 1_555
H27_3 C22_2 1_555 1_555
Cu9 N13 1_555 1_555
C15_3 C16_3 1_555 1_555
Cu9 N1_3 1_555 1_555
Cu2_2 N2_3 1_555 1_555
Cu3_2 N3_3 1_555 1_555
Cu14 N5_3 1_555 1_555
Cu5_4 N6_3 1_555 1_555
N1_3 C2_3 1_555 1_555
N2_3 N3_3 1_555 1_555
N3_3 C3_3 1_555 1_555
N4_3 Cu3_2 1_555 1_555
N5_3 N6_3 1_555 1_555
N6_3 C6_3 1_555 1_555
N7_3 Cu5_4 1_555 1_555
N8_3 Cu14 1_555 1_555
N9_2 C9_3 1_555 1_555
N28 C12_3 1_555 1_555
N11_2 N12_2 1_555 1_555
N12_2 C12_3 1_555 1_555
C1_3 H1_3 1_555 1_555
H2_3 C1_3 1_555 1_555
H3_3 C1_3 1_555 1_555
C2_3 N2_3 1_555 1_555
C3_3 N1_3 1_555 1_555
C4_3 C3_3 1_555 1_555
H4_3 C4_3 1_555 1_555
H5_3 C4_3 1_555 1_555
C5_3 N4_3 1_555 1_555
C6_3 N4_3 1_555 1_555
C7_3 C6_3 1_555 1_555
H6_3 C7_3 1_555 1_555
H7_3 C7_3 1_555 1_555
H8_3 C7_3 1_555 1_555
C8_3 H9_3 1_555 1_555
H10_3 C8_3 1_555 1_555
H11_3 C8_3 1_555 1_555
C9_3 N8_3 1_555 1_555
C10_3 N7_3 1_555 1_555
C11_3 C10_3 1_555 1_555
H12_3 C11_3 1_555 1_555
H13_3 C11_3 1_555 1_555
C12_3 C11_3 1_555 1_555
C13_3 N28 1_555 1_555
C14_3 C13_3 1_555 1_555
H14_3 C14_3 1_555 1_555
H15_3 C14_3 1_555 1_555
H16_3 C14_3 1_555 1_555
Cu7_2 N15_3 1_555 1_555
N16_3 Cu7_2 1_555 1_555
N17_3 N18_3 1_555 1_555
N18_3 Cu5_4 1_555 1_555
N19_3 Cu5_4 1_555 1_555
N21_2 C23_3 1_555 1_555
N29 C26_3 1_555 1_555
N23_2 N24_2 1_555 1_555
N24_2 C26_3 1_555 1_555
C19_3 N16_3 1_555 1_555
C20_3 N16_3 1_555 1_555
C21_3 C20_3 1_555 1_555
H22_3 C21_3 1_555 1_555
H23_3 C21_3 1_555 1_555
H24_3 C21_3 1_555 1_555
C23_3 N20_3 1_555 1_555
C24_3 N19_3 1_555 1_555
C25_3 C24_3 1_555 1_555
H28_3 C25_3 1_555 1_555
H29_3 C25_3 1_555 1_555
C26_3 C25_3 1_555 1_555
C27_3 N29 1_555 1_555
C28_3 C27_3 1_555 1_555
H30_3 C28_3 1_555 1_555
H31_3 C28_3 1_555 1_555
H32_3 C28_3 1_555 1_555
Cu10_2 N9_2 1_555 1_555
Cu11_2 N21_2 1_555 1_555
Cu12_2 N11_2 1_555 1_555
Cu13_2 N23_2 1_555 1_555
N26_2 Cu2_2 1_555 1_555
N27_2 Cu6_2 1_555 1_555
N30_2 Cu3_2 1_555 1_555
N31_2 Cu7_2 1_555 1_555
N32_2 Cu2_2 1_555 1_555
N33_2 Cu6_2 1_555 1_555
N5_3 C5_3 1_555 1_555
N7_3 N8_3 1_555 1_555
N9_2 C10_3 1_555 1_555
N11_2 C13_3 1_555 1_555
N12_2 Cu10_2 1_555 1_555
C1_3 C2_3 1_555 1_555
C4_3 C5_3 1_555 1_555
C8_3 C9_3 1_555 1_555
N17_3 C19_3 1_555 1_555
N18_3 C20_3 1_555 1_555
N19_3 N20_3 1_555 1_555
N21_2 C24_3 1_555 1_555
N23_2 C27_3 1_555 1_555
N24_2 Cu11_2 1_555 1_555
N30_2 N32_2 1_555 1_555
N31_2 N33_2 1_555 1_555
Cu9_2 N1_4 1_555 1_555
Cu10_2 N2_4 1_555 1_555
Cu12_2 N3_4 1_555 1_555
Cu5_5 N6_4 1_555 1_555
N1_4 C2_4 1_555 1_555
N2_4 N3_4 1_555 1_555
N3_4 C3_4 1_555 1_555
N4_4 Cu12_2 1_555 1_555
N5_4 N6_4 1_555 1_555
N6_4 C6_4 1_555 1_555
C1_4 H1_4 1_555 1_555
H2_4 C1_4 1_555 1_555
H3_4 C1_4 1_555 1_555
C2_4 N2_4 1_555 1_555
C3_4 N1_4 1_555 1_555
C4_4 C3_4 1_555 1_555
H4_4 C4_4 1_555 1_555
H5_4 C4_4 1_555 1_555
C5_4 N4_4 1_555 1_555
C6_4 N4_4 1_555 1_555
C7_4 C6_4 1_555 1_555
H6_4 C7_4 1_555 1_555
H7_4 C7_4 1_555 1_555
H8_4 C7_4 1_555 1_555
N19_4 Cu5_5 1_555 1_555
N5_4 C5_4 1_555 1_555
C1_4 C2_4 1_555 1_555
C4_4 C5_4 1_555 1_555
N19_4 N20_4 1_555 1_555
N27_2 C23_4 1_555 1_555
N29_2 C26_4 1_555 1_555
N33_2 C26_4 1_555 1_555
C25_4 C24_4 1_555 1_555
H28_4 C25_4 1_555 1_555
H29_4 C25_4 1_555 1_555
C26_4 C25_4 1_555 1_555
C27_4 N29_2 1_555 1_555
C28_4 C27_4 1_555 1_555
H30_4 C28_4 1_555 1_555
H31_4 C28_4 1_555 1_555
H32_4 C28_4 1_555 1_555
N27_2 C24_4 1_555 1_555
N31_2 C27_4 1_555 1_555
N13_2 C16_4 1_555 1_555
C15_4 H17_4 1_555 1_555
H18_4 C15_4 1_555 1_555
H19_4 C15_4 1_555 1_555
C16_4 N14_4 1_555 1_555
C17_4 N13_2 1_555 1_555
C18_4 C17_4 1_555 1_555
H20_4 C18_4 1_555 1_555
H21_4 C18_4 1_555 1_555
Cu9_3 N13_2 1_555 1_555
C15_4 C16_4 1_555 1_555
N7_4 Cu5_6 1_555 1_555
N8_4 Cu14_2 1_555 1_555
Cu13_2 N15_4 1_555 1_555
N16_4 Cu13_2 1_555 1_555
N17_4 N18_4 1_555 1_555
N18_4 Cu5_6 1_555 1_555
C19_4 N16_4 1_555 1_555
C20_4 N16_4 1_555 1_555
C21_4 C20_4 1_555 1_555
H22_4 C21_4 1_555 1_555
H23_4 C21_4 1_555 1_555
H24_4 C21_4 1_555 1_555
N7_4 N8_4 1_555 1_555
N17_4 C19_4 1_555 1_555
N18_4 C20_4 1_555 1_555
N26_2 C9_4 1_555 1_555
N28_2 C12_4 1_555 1_555
N32_2 C12_4 1_555 1_555
H10_4 C8_4 1_555 1_555
C11_4 C10_4 1_555 1_555
H12_4 C11_4 1_555 1_555
H13_4 C11_4 1_555 1_555
C12_4 C11_4 1_555 1_555
C13_4 N28_2 1_555 1_555
C14_4 C13_4 1_555 1_555
H14_4 C14_4 1_555 1_555
H15_4 C14_4 1_555 1_555
H16_4 C14_4 1_555 1_555
N26_2 C10_4 1_555 1_555
N30_2 C13_4 1_555 1_555
C8_4 C9_4 1_555 1_555
H26_3 C22_3 1_555 1_555
H26_4 C22_4 1_555 1_555

#END
