
###############################################################################
#
# This file contains modified crystal structure data generated from the
# MOF subset of the Cambridge Structural Database (CSD) v543 
# hosted by the Cambridge Crystallographic Data Centre (CCDC).
#
# This work is licensed under the Creative Commons
# Attribution-NonCommercial-ShareAlike 4.0 International License.
# To view a copy of this license, visit
# http://creativecommons.org/licenses/by-nc-sa/4.0/
# or send a letter to
# Creative Commons, PO Box 1866, Mountain View, CA 94042, USA.
#
# CIF created using the CSD Python API on 29 September 2022
# The structure has been converted into the P1 space group
# The structure has a 3D framework
# The original CSD entry COXFOL is in the monoclinic crystal system
# The framework has been calculated to contain at least 10.0% void space
# The void calculation uses a probe of radius 1.32A, grid spacing 0.4
# The framework is charged, counterions have been retained in the structure
# H atom positions have been added when not included in the experimental data
#
###############################################################################

data_COXFOL
_chemical_formula_moiety         '(C208 H174 Co24 N8 O102)n'
_symmetry_cell_setting           triclinic
_symmetry_space_group_name_H-M   'P 1'
_symmetry_Int_Tables_number      1
_space_group_name_Hall           'P 1'
loop_
_symmetry_equiv_pos_site_id
_symmetry_equiv_pos_as_xyz
1 x,y,z
_cell_length_a                   22.787(5)
_cell_length_b                   10.590(2)
_cell_length_c                   27.675(5)
_cell_angle_alpha                90
_cell_angle_beta                 107.79(3)
_cell_angle_gamma                90
_cell_volume                     6359.03
loop_
_atom_site_label
_atom_site_type_symbol
_atom_site_fract_x
_atom_site_fract_y
_atom_site_fract_z
C15 C 0.2561(4) 0.0415(9) 0.8431(3)
H12 H 0.3740 0.0317 0.8562
O19 O 0.2079(3) 0.0400(6) 0.8568(2)
O20 O 0.2702(2) 0.1334(5) 0.8189(2)
O24 O 0.1902(3) 0.0315(6) 0.7204(2)
Co8 Co 0.14803(6) 0.19679(12) 0.85126(5)
Co9 Co 0.30107(5) 0.30934(11) 0.85823(4)
Co11 Co 0.21954(6) 0.20835(11) 0.74343(4)
Co16 Co 0.28869(6) 0.08500(13) 0.66707(5)
C3 C 0.3579(5) 0.1781(11) 0.0578(4)
H2 H 0.3296 0.2371 0.0620
C5 C 0.3687(4) 0.1658(9) 0.0114(3)
C12 C 0.1585(5) 0.1532(10) 0.0857(3)
C19 C 0.1668(4) 0.1816(9) 0.0401(3)
H5 H 0.1959 0.2421 0.0390
C21 C 0.1922(5) 0.2294(10) 0.1324(4)
C25 C 0.4087(5) 0.0723(10) 0.0046(4)
C26 C 0.3895(6) 0.1019(15) 0.0980(4)
C30 C 0.1177(5) 0.0582(10) 0.0882(4)
H9 H 0.1122 0.0371 0.1192
C38 C 0.4305(7) 0.0079(14) 0.0914(5)
C43 C 0.3714(11) 0.130(3) 0.1477(4)
Co5 Co 0.35256(6) 0.16069(14) 0.23143(5)
Co6 Co 0.28869(6) 0.41500(13) 0.16707(5)
O1 O 0.2193(3) 0.4960(7) 0.0023(2)
O7 O 0.1909(3) 0.1950(6) 0.1749(2)
O8 O 0.2182(4) 0.3292(6) 0.1231(3)
O25 O 0.4062(5) 0.0471(16) 0.1840(4)
O26 O 0.3388(9) 0.1901(15) 0.1546(6)
Co10 Co 0.21954(6) 0.29165(11) 0.24343(4)
H27 H 0.318(2) 0.362(4) 0.2597(12)
O30 O 0.4254(4) 0.1331(11) 0.2890(3)
O31 O 0.3718(4) 0.4736(7) 0.1650(4)
O35 O 0.2985(3) 0.0126(6) 0.2332(3)
O37 O 0.2548(3) 0.5748(6) 0.1890(3)
O39 O 0.3062(3) 0.3202(6) 0.2325(2)
H44 H 0.189568 0.450185 0.0157182
H45 H 0.260856 0.493492 0.027755
C1 C 0.5410(6) 0.3890(14) 0.9618(5)
H1 H 0.5443 0.3815 0.9960
C2 C 0.1431(6) 0.1567(12) 0.9468(4)
C4 C 0.2177(5) 0.5940(10) 0.7517(4)
C6 C 0.2802(4) 0.8158(8) 0.8692(3)
H3 H 0.2394 0.8038 0.8681
C8 C 0.1974(5) 0.8096(11) 0.7309(4)
C9 C 0.3344(5) 0.2470(11) 0.9665(4)
C10 C 0.2993(4) 0.9334(8) 0.8579(3)
C11 C 0.2326(5) 0.7054(10) 0.7331(4)
H4 H 0.2671 0.7095 0.7220
C13 C 0.2997(5) 0.5855(10) 0.8915(4)
C14 C 0.2569(5) 0.4833(10) 0.7548(3)
C16 C 0.3214(5) 0.7154(9) 0.8821(3)
C17 C 0.1338(4) 0.1243(9) 0.9962(3)
C18 C 0.0914(5) 0.4477(11) 0.8700(4)
H6 H 0.0008 0.4980 0.7832
C22 C 0.4259(5) 0.3405(11) 0.8334(4)
C24 C 0.0374(4) 0.5438(8) 0.8580(3)
H7 H 0.4145 0.0629 0.9730
C27 C 0.1657(5) 0.5889(13) 0.7685(5)
H8 H 0.1554 0.5131 0.7809
C28 C 0.2157(5) 0.9336(11) 0.7123(3)
C29 C 0.4836(5) 0.3732(9) 0.8742(4)
C31 C 0.5334(4) 0.4119(8) 0.8615(4)
H10 H 0.5305 0.4167 0.8273
C32 C 0.3820(5) 0.7371(10) 0.8851(4)
H11 H 0.4100 0.6705 0.8933
C33 C 0.3606(5) 0.9521(9) 0.8625(4)
C34 C 0.0926(5) 0.0302(11) 0.9977(4)
C36 C 0.4023(5) 0.8544(11) 0.8762(5)
H15 H 0.4437 0.8677 0.8795
C37 C 0.5890(5) 0.4451(10) 0.8974(4)
C39 C 0.0319(6) 0.6270(13) 0.8951(4)
H17 H 0.0600 0.6228 0.9275
C40 C 0.6403(5) 0.4932(12) 0.8800(6)
C42 C 0.4871(5) 0.3558(12) 0.9252(4)
H19 H 0.4540 0.3227 0.9341
C44 C 0.5911(6) 0.4343(12) 0.9472(4)
H20 H 0.6270 0.4579 0.9723
C46 C 0.1467(6) 0.8009(12) 0.7488(5)
H22 H 0.1229 0.8725 0.7483
C47 C 0.1307(6) 0.6898(15) 0.7671(5)
H23 H 0.0961 0.6854 0.7783
Co1 Co 0.22264(6) 0.40893(12) 0.93433(4)
H25 H 0.198(2) 0.384(4) 0.8444(16)
O2 O 0.2164(2) 0.3289(6) 0.8657(2)
O5 O 0.0847(3) 0.3552(7) 0.8411(2)
O6 O 0.1361(3) 0.4794(7) 0.9077(3)
O9 O 0.1122(4) 0.1160(8) 0.9063(3)
O10 O 0.1889(5) 0.2274(9) 0.9489(3)
O11 O 0.3827(3) 0.2811(6) 0.8427(3)
O12 O 0.4254(4) 0.3669(11) 0.7890(3)
O13 O 0.6935(4) 0.4929(10) 0.9083(3)
O14 O 0.6282(4) 0.5264(7) 0.8350(4)
O15 O 0.3369(3) 0.2148(6) 0.9242(2)
O16 O 0.3052(3) 0.3403(7) 0.9760(3)
O17 O 0.2594(3) 0.5780(6) 0.9137(3)
O18 O 0.3251(3) 0.4948(5) 0.8774(2)
O21 O 0.2985(3) 0.4874(6) 0.7332(3)
O22 O 0.2488(3) 0.3826(5) 0.7782(2)
O23 O 0.2548(3) 0.9252(6) 0.6890(3)
Co13 Co 0.35256(6) 0.33931(14) 0.73143(5)
Co15 Co 0.71131(6) 0.58500(13) 0.83293(5)
O28 O 0.0787(3) 0.1118(6) 0.7911(2)
C7 C 0.9085(4) 0.6631(9) 0.7459(3)
C20 C 0.9969(4) 0.5521(9) 0.8085(3)
C23 C 0.9506(4) 0.6433(9) 0.7980(3)
C45 C 0.9867(6) 0.7135(15) 0.8852(5)
H21 H 0.9818 0.7656 0.9108
C48 C 0.9473(6) 0.7235(13) 0.8359(5)
H24 H 0.9177 0.7870 0.8283
Co4 Co 0.78046(6) 0.70835(11) 0.75657(4)
H26 H 0.682(2) 0.638(4) 0.7403(12)
O3 O 0.9213(3) 0.6118(6) 0.7089(2)
O4 O 0.8608(3) 0.7314(6) 0.7373(2)
O27 O 0.6938(3) 0.6798(6) 0.7675(2)
Co7 Co 0.85197(6) 0.69679(12) 0.64874(5)
Co14 Co 0.64744(6) 0.83931(14) 0.76857(5)
O29 O 0.8091(3) 0.8050(6) 0.8251(2)
O34 O 0.7298(2) 0.6334(5) 0.6811(2)
O36 O 0.7512(3) 0.8826(5) 0.7218(2)
O38 O 0.8098(3) 0.5315(6) 0.7796(2)
C7_2 C 0.0915(4) 0.1631(9) 0.7541(3)
C20_2 C 0.0031(4) 0.0521(9) 0.6915(3)
C23_2 C 0.0494(4) 0.1433(9) 0.7020(3)
C45_2 C 0.0133(6) 0.2135(15) 0.6148(5)
H21_2 H 0.0182 0.2656 0.5892
C48_2 C 0.0527(6) 0.2235(13) 0.6641(5)
H24_2 H 0.0823 0.2870 0.6717
H26_2 H 0.318(2) 0.138(4) 0.7597(12)
O4_2 O 0.1392(3) 0.2314(6) 0.7627(2)
O27_2 O 0.3062(3) 0.1798(6) 0.7325(2)
O29_2 O 0.1909(3) 0.3050(6) 0.6749(2)
C4_2 C 0.7823(5) 0.0940(10) 0.7483(4)
C6_2 C 0.7198(4) 0.3158(8) 0.6308(3)
H3_2 H 0.7606 0.3038 0.6319
C8_2 C 0.8026(5) 0.3096(11) 0.7691(4)
C10_2 C 0.7007(4) 0.4334(8) 0.6421(3)
C11_2 C 0.7674(5) 0.2054(10) 0.7669(4)
H4_2 H 0.7329 0.2095 0.7780
C13_2 C 0.7003(5) 0.0855(10) 0.6085(4)
C15_2 C 0.7439(4) 0.5415(9) 0.6569(3)
C16_2 C 0.6786(5) 0.2154(9) 0.6179(3)
C24_2 C 0.9626(4) 0.0438(8) 0.6420(3)
C27_2 C 0.8343(5) 0.0889(13) 0.7315(5)
H8_2 H 0.8446 0.0131 0.7191
C28_2 C 0.7843(5) 0.4336(11) 0.7877(3)
C32_2 C 0.6180(5) 0.2371(10) 0.6149(4)
H11_2 H 0.5900 0.1705 0.6067
C33_2 C 0.6394(5) 0.4521(9) 0.6375(4)
H12_2 H 0.6260 0.5317 0.6438
C36_2 C 0.5977(5) 0.3544(11) 0.6238(5)
H15_2 H 0.5563 0.3677 0.6205
C39_2 C 0.9681(6) 0.1270(13) 0.6049(4)
H17_2 H 0.9400 0.1228 0.5725
C46_2 C 0.8533(6) 0.3009(12) 0.7512(5)
H22_2 H 0.8771 0.3725 0.7517
C47_2 C 0.8693(6) 0.1898(15) 0.7329(5)
H23_2 H 0.9039 0.1854 0.7217
O14_2 O 0.3718(4) 0.0264(7) 0.6650(4)
O17_2 O 0.7406(3) 0.0780(6) 0.5863(3)
O19_2 O 0.7921(3) 0.5400(6) 0.6432(2)
O23_2 O 0.7452(3) 0.4252(6) 0.8110(3)
Co9_2 Co 0.69893(5) 0.80934(11) 0.64177(4)
O37_2 O 0.7452(3) 0.0748(6) 0.3110(3)
C1_2 C 0.4590(6) 0.8890(14) 0.5382(5)
H1_2 H 0.4557 0.8815 0.5040
C2_2 C 0.8569(6) 0.6567(12) 0.5532(4)
C3_2 C 0.6421(5) 0.6781(11) 0.4422(4)
H2_2 H 0.6704 0.7371 0.4380
C5_2 C 0.6313(4) 0.6658(9) 0.4886(3)
C9_2 C 0.6656(5) 0.7470(11) 0.5335(4)
C12_2 C 0.8415(5) 0.6532(10) 0.4143(3)
C14_2 C 0.7431(5) 0.9833(10) 0.7452(3)
C17_2 C 0.8662(4) 0.6243(9) 0.5038(3)
C18_2 C 0.9086(5) 0.9477(11) 0.6300(4)
C19_2 C 0.8332(4) 0.6816(9) 0.4599(3)
H5_2 H 0.8041 0.7421 0.4610
H6_2 H 0.9992 0.9980 0.7168
C21_2 C 0.8078(5) 0.7294(10) 0.3676(4)
C22_2 C 0.5741(5) 0.8405(11) 0.6666(4)
C25_2 C 0.5913(5) 0.5723(10) 0.4954(4)
H7_2 H 0.5855 0.5629 0.5270
C26_2 C 0.6105(6) 0.6019(15) 0.4020(4)
C29_2 C 0.5164(5) 0.8732(9) 0.6258(4)
C30_2 C 0.8823(5) 0.5582(10) 0.4118(4)
H9_2 H 0.8878 0.5371 0.3808
C31_2 C 0.4666(4) 0.9119(8) 0.6385(4)
H10_2 H 0.4695 0.9167 0.6727
C34_2 C 0.9074(5) 0.5302(11) 0.5023(4)
H13 H 0.9301 0.4905 0.5321
C35 C 0.9151(5) 0.4945(10) 0.4559(4)
H14 H 0.9418 0.4291 0.4545
C37_2 C 0.4110(5) 0.9451(10) 0.6026(4)
C38_2 C 0.5695(7) 0.5079(14) 0.4086(5)
H16 H 0.5488 0.4558 0.3817
C40_2 C 0.3597(5) 0.9932(12) 0.6200(6)
C41 C 0.5604(5) 0.4940(12) 0.4565(5)
H18 H 0.5338 0.4326 0.4616
C42_2 C 0.5129(5) 0.8558(12) 0.5748(4)
H19_2 H 0.5460 0.8227 0.5659
C43_2 C 0.6286(11) 0.630(3) 0.3523(4)
C44_2 C 0.4089(6) 0.9343(12) 0.5528(4)
H20_2 H 0.3730 0.9579 0.5277
Co1_2 Co 0.77736(6) 0.90893(12) 0.56567(4)
Co5_2 Co 0.64744(6) 0.66069(14) 0.26857(5)
Co6_2 Co 0.71131(6) 0.91500(13) 0.33293(5)
H25_2 H 0.802(2) 0.884(4) 0.6556(16)
O1_2 O 0.7807(3) 0.9960(7) 0.4977(2)
O2_2 O 0.7836(2) 0.8289(6) 0.6343(2)
O5_2 O 0.9153(3) 0.8552(7) 0.6589(2)
O6_2 O 0.8639(3) 0.9794(7) 0.5923(3)
O7_2 O 0.8091(3) 0.6950(6) 0.3251(2)
O8_2 O 0.7818(4) 0.8292(6) 0.3769(3)
O9_2 O 0.8878(4) 0.6160(8) 0.5937(3)
O10_2 O 0.8111(5) 0.7274(9) 0.5511(3)
O11_2 O 0.6173(3) 0.7811(6) 0.6573(3)
O12_2 O 0.5746(4) 0.8669(11) 0.7110(3)
O13_2 O 0.3065(4) 0.9929(10) 0.5917(3)
O15_2 O 0.6631(3) 0.7148(6) 0.5758(2)
O16_2 O 0.6948(3) 0.8403(7) 0.5240(3)
O18_2 O 0.6749(3) 0.9948(5) 0.6226(2)
O21_2 O 0.7015(3) 0.9874(6) 0.7668(3)
O25_2 O 0.5938(5) 0.5471(16) 0.3160(4)
O26_2 O 0.6612(9) 0.6901(15) 0.3454(6)
Co10_2 Co 0.78046(6) 0.79165(11) 0.25657(4)
H27_2 H 0.682(2) 0.862(4) 0.2403(12)
O30_2 O 0.5746(4) 0.6331(11) 0.2110(3)
O31_2 O 0.6282(4) 0.9736(7) 0.3350(4)
O35_2 O 0.7015(3) 0.5126(6) 0.2668(3)
O39_2 O 0.6938(3) 0.8202(6) 0.2675(2)
H44_2 H 0.810432 0.950185 0.484282
H45_2 H 0.739144 0.993492 0.472245
C7_3 C 0.0915(4) 0.3369(9) 0.2541(3)
C20_3 C 0.0031(4) 0.4479(9) 0.1915(3)
C23_3 C 0.0494(4) 0.3567(9) 0.2020(3)
C45_3 C 0.0133(6) 0.2865(15) 0.1148(5)
H21_3 H 0.0182 0.2344 0.0892
C48_3 C 0.0527(6) 0.2765(13) 0.1641(5)
H24_3 H 0.0823 0.2130 0.1717
O3_2 O 0.0787(3) 0.3882(6) 0.2911(2)
O4_3 O 0.1392(3) 0.2686(6) 0.2627(2)
Co7_2 Co 0.14803(6) 0.30321(12) 0.35126(5)
O34_2 O 0.2702(2) 0.3666(5) 0.3189(2)
O36_2 O 0.2488(3) 0.1174(5) 0.2782(2)
O38_2 O 0.1902(3) 0.4685(6) 0.2204(2)
C1_3 C 0.4590(6) 0.6110(14) 0.0382(5)
H1_3 H 0.4557 0.6185 0.0040
C2_3 C 0.8569(6) 0.8433(12) 0.0532(4)
C4_3 C 0.7823(5) 0.4060(10) 0.2483(4)
C6_3 C 0.7198(4) 0.1842(8) 0.1308(3)
H3_3 H 0.7606 0.1962 0.1319
C8_3 C 0.8026(5) 0.1904(11) 0.2691(4)
C9_3 C 0.6656(5) 0.7530(11) 0.0335(4)
C10_3 C 0.7007(4) 0.0666(8) 0.1421(3)
C11_3 C 0.7674(5) 0.2946(10) 0.2669(4)
H4_3 H 0.7329 0.2905 0.2780
C13_3 C 0.7003(5) 0.4145(10) 0.1085(4)
C14_3 C 0.7431(5) 0.5167(10) 0.2452(3)
C16_3 C 0.6786(5) 0.2846(9) 0.1179(3)
C17_3 C 0.8662(4) 0.8757(9) 0.0038(3)
C18_3 C 0.9086(5) 0.5523(11) 0.1300(4)
H6_3 H 0.9992 0.5020 0.2168
C22_3 C 0.5741(5) 0.6595(11) 0.1666(4)
C24_3 C 0.9626(4) 0.4562(8) 0.1420(3)
H7_3 H 0.5855 0.9371 0.0270
C27_3 C 0.8343(5) 0.4111(13) 0.2315(5)
H8_3 H 0.8446 0.4869 0.2191
C28_3 C 0.7843(5) 0.0664(11) 0.2877(3)
C29_3 C 0.5164(5) 0.6268(9) 0.1258(4)
C31_3 C 0.4666(4) 0.5881(8) 0.1385(4)
H10_3 H 0.4695 0.5833 0.1727
C32_3 C 0.6180(5) 0.2629(10) 0.1149(4)
H11_3 H 0.5900 0.3295 0.1067
C33_3 C 0.6394(5) 0.0479(9) 0.1375(4)
C34_3 C 0.9074(5) 0.9698(11) 0.0023(4)
C36_3 C 0.5977(5) 0.1456(11) 0.1238(5)
H15_3 H 0.5563 0.1323 0.1205
C37_3 C 0.4110(5) 0.5549(10) 0.1026(4)
C39_3 C 0.9681(6) 0.3730(13) 0.1049(4)
H17_3 H 0.9400 0.3772 0.0725
C40_3 C 0.3597(5) 0.5068(12) 0.1200(6)
C42_3 C 0.5129(5) 0.6442(12) 0.0748(4)
H19_3 H 0.5460 0.6773 0.0659
C44_3 C 0.4089(6) 0.5657(12) 0.0528(4)
H20_3 H 0.3730 0.5421 0.0277
C46_3 C 0.8533(6) 0.1991(12) 0.2512(5)
H22_3 H 0.8771 0.1275 0.2517
C47_3 C 0.8693(6) 0.3102(15) 0.2329(5)
H23_3 H 0.9039 0.3146 0.2217
Co1_3 Co 0.77736(6) 0.59107(12) 0.06567(4)
Co2 Co 0.85197(6) 0.80321(12) 0.14874(5)
Co3 Co 0.69893(5) 0.69066(11) 0.14177(4)
H25_3 H 0.802(2) 0.616(4) 0.1556(16)
O2_3 O 0.7836(2) 0.6711(6) 0.1343(2)
O5_3 O 0.9153(3) 0.6448(7) 0.1589(2)
O6_3 O 0.8639(3) 0.5206(7) 0.0923(3)
O9_3 O 0.8878(4) 0.8840(8) 0.0937(3)
O10_3 O 0.8111(5) 0.7726(9) 0.0511(3)
O11_3 O 0.6173(3) 0.7189(6) 0.1573(3)
O13_3 O 0.3065(4) 0.5071(10) 0.0917(3)
O15_3 O 0.6631(3) 0.7852(6) 0.0758(2)
O16_3 O 0.6948(3) 0.6597(7) 0.0240(3)
O17_3 O 0.7406(3) 0.4220(6) 0.0863(3)
O18_3 O 0.6749(3) 0.5052(5) 0.1226(2)
O22_2 O 0.7512(3) 0.6174(5) 0.2218(2)
O28_2 O 0.9213(3) 0.8882(6) 0.2089(2)
O32 O 0.7921(3) 0.9600(6) 0.1432(2)
O33 O 0.7298(2) 0.8666(5) 0.1811(2)
C3_3 C 0.6421(5) 0.8219(11) 0.9422(4)
H2_3 H 0.6704 0.7629 0.9380
C5_3 C 0.6313(4) 0.8342(9) 0.9886(3)
C12_3 C 0.8415(5) 0.8468(10) 0.9143(3)
C19_3 C 0.8332(4) 0.8184(9) 0.9599(3)
H5_3 H 0.8041 0.7579 0.9610
C21_3 C 0.8078(5) 0.7706(10) 0.8676(4)
C25_3 C 0.5913(5) 0.9277(10) 0.9954(4)
C26_3 C 0.6105(6) 0.8981(15) 0.9020(4)
C30_3 C 0.8823(5) 0.9418(10) 0.9118(4)
H9_3 H 0.8878 0.9629 0.8808
C38_3 C 0.5695(7) 0.9921(14) 0.9086(5)
C43_3 C 0.6286(11) 0.870(3) 0.8523(4)
O1_3 O 0.7807(3) 0.5040(7) 0.9977(2)
O8_3 O 0.7818(4) 0.6708(6) 0.8769(3)
O25_3 O 0.5938(5) 0.9529(16) 0.8160(4)
O26_3 O 0.6612(9) 0.8099(15) 0.8454(6)
H44_3 H 0.810432 0.549815 0.984282
H45_3 H 0.739144 0.506508 0.972245
C15_3 C 0.7439(4) 0.9585(9) 0.1569(3)
H12_3 H 0.6260 0.9683 0.1438
O24_2 O 0.8098(3) 0.9685(6) 0.2796(2)
C1_4 C 0.5410(6) 0.1110(14) 0.4618(5)
H1_4 H 0.5443 0.1185 0.4960
C2_4 C 0.1431(6) 0.3433(12) 0.4468(4)
C3_4 C 0.3579(5) 0.3219(11) 0.5578(4)
H2_4 H 0.3296 0.2629 0.5620
C5_4 C 0.3687(4) 0.3342(9) 0.5114(3)
C9_4 C 0.3344(5) 0.2530(11) 0.4665(4)
C12_4 C 0.1585(5) 0.3468(10) 0.5857(3)
C14_4 C 0.2569(5) 0.0167(10) 0.2548(3)
C17_4 C 0.1338(4) 0.3757(9) 0.4962(3)
C18_4 C 0.0914(5) 0.0523(11) 0.3700(4)
C19_4 C 0.1668(4) 0.3184(9) 0.5401(3)
H5_4 H 0.1959 0.2579 0.5390
H6_4 H 0.0008 0.0020 0.2832
C21_4 C 0.1922(5) 0.2706(10) 0.6324(4)
C22_4 C 0.4259(5) 0.1595(11) 0.3334(4)
C25_4 C 0.4087(5) 0.4277(10) 0.5046(4)
H7_4 H 0.4145 0.4371 0.4730
C26_4 C 0.3895(6) 0.3981(15) 0.5980(4)
C29_4 C 0.4836(5) 0.1268(9) 0.3742(4)
C30_4 C 0.1177(5) 0.4418(10) 0.5882(4)
H9_4 H 0.1122 0.4629 0.6192
C31_4 C 0.5334(4) 0.0881(8) 0.3615(4)
H10_4 H 0.5305 0.0833 0.3273
C34_4 C 0.0926(5) 0.4698(11) 0.4977(4)
H13_2 H 0.0699 0.5095 0.4679
C35_2 C 0.0849(5) 0.5055(10) 0.5441(4)
H14_2 H 0.0582 0.5709 0.5455
C37_4 C 0.5890(5) 0.0549(10) 0.3974(4)
C38_4 C 0.4305(7) 0.4921(14) 0.5914(5)
H16_2 H 0.4512 0.5442 0.6183
C40_4 C 0.6403(5) 0.0068(12) 0.3800(6)
C41_2 C 0.4396(5) 0.5060(12) 0.5435(5)
H18_2 H 0.4662 0.5674 0.5384
C42_4 C 0.4871(5) 0.1442(12) 0.4252(4)
H19_4 H 0.4540 0.1773 0.4341
C43_4 C 0.3714(11) 0.370(3) 0.6477(4)
C44_4 C 0.5911(6) 0.0657(12) 0.4472(4)
H20_4 H 0.6270 0.0421 0.4723
Co1_4 Co 0.22264(6) 0.09107(12) 0.43433(4)
Co3_2 Co 0.30107(5) 0.19066(11) 0.35823(4)
H25_4 H 0.198(2) 0.116(4) 0.3444(16)
O1_4 O 0.2193(3) 0.0040(7) 0.5023(2)
O2_4 O 0.2164(2) 0.1711(6) 0.3657(2)
O5_4 O 0.0847(3) 0.1448(7) 0.3411(2)
O6_4 O 0.1361(3) 0.0206(7) 0.4077(3)
O8_4 O 0.2182(4) 0.1708(6) 0.6231(3)
O9_4 O 0.1122(4) 0.3840(8) 0.4063(3)
O10_4 O 0.1889(5) 0.2726(9) 0.4489(3)
O11_4 O 0.3827(3) 0.2189(6) 0.3427(3)
O13_4 O 0.6935(4) 0.0071(10) 0.4083(3)
O15_4 O 0.3369(3) 0.2852(6) 0.4242(2)
O16_4 O 0.3052(3) 0.1597(7) 0.4760(3)
O18_4 O 0.3251(3) 0.0052(5) 0.3774(2)
O25_4 O 0.4062(5) 0.4529(16) 0.6840(4)
O26_4 O 0.3388(9) 0.3099(15) 0.6546(6)
O32_2 O 0.2079(3) 0.4600(6) 0.3568(2)
H44_4 H 0.189568 0.0498145 0.515718
H45_4 H 0.260856 0.00650828 0.527755
C4_4 C 0.2177(5) 0.9060(10) 0.2517(4)
C6_4 C 0.2802(4) 0.6842(8) 0.3692(3)
H3_4 H 0.2394 0.6962 0.3681
C8_4 C 0.1974(5) 0.6904(11) 0.2309(4)
C10_4 C 0.2993(4) 0.5666(8) 0.3579(3)
C11_4 C 0.2326(5) 0.7946(10) 0.2331(4)
H4_4 H 0.2671 0.7905 0.2220
C13_4 C 0.2997(5) 0.9145(10) 0.3915(4)
C15_4 C 0.2561(4) 0.4585(9) 0.3431(3)
C16_4 C 0.3214(5) 0.7846(9) 0.3821(3)
C24_4 C 0.0374(4) 0.9562(8) 0.3580(3)
C27_4 C 0.1657(5) 0.9111(13) 0.2685(5)
H8_4 H 0.1554 0.9869 0.2809
C28_4 C 0.2157(5) 0.5664(11) 0.2123(3)
C32_4 C 0.3820(5) 0.7629(10) 0.3851(4)
H11_4 H 0.4100 0.8295 0.3933
C33_4 C 0.3606(5) 0.5479(9) 0.3625(4)
H12_4 H 0.3740 0.4683 0.3562
C36_4 C 0.4023(5) 0.6456(11) 0.3762(5)
H15_4 H 0.4437 0.6323 0.3795
C39_4 C 0.0319(6) 0.8730(13) 0.3951(4)
H17_4 H 0.0600 0.8772 0.4275
C46_4 C 0.1467(6) 0.6991(12) 0.2488(5)
H22_4 H 0.1229 0.6275 0.2483
C47_4 C 0.1307(6) 0.8102(15) 0.2671(5)
H23_4 H 0.0961 0.8146 0.2783
O17_4 O 0.2594(3) 0.9220(6) 0.4137(3)
C7_4 C 0.9085(4) 0.8369(9) 0.2459(3)
C20_4 C 0.9969(4) 0.9479(9) 0.3085(3)
C23_4 C 0.9506(4) 0.8567(9) 0.2980(3)
C45_4 C 0.9867(6) 0.7865(15) 0.3852(5)
H21_4 H 0.9818 0.7344 0.4108
C48_4 C 0.9473(6) 0.7765(13) 0.3359(5)
H24_4 H 0.9177 0.7130 0.3283
O4_4 O 0.8608(3) 0.7686(6) 0.2373(2)
C35_3 C 0.0849(5) 0.9945(10) 0.0441(4)
H14_3 H 0.0582 0.9291 0.0455
H16_3 H 0.4512 0.9558 0.1183
C41_3 C 0.4396(5) 0.9940(12) 0.0435(5)
H18_3 H 0.4662 0.9326 0.0384
H13_3 H 0.0699 0.9905 0.9679
H13_4 H 0.9301 0.0095 0.0321
C35_4 C 0.9151(5) 0.0055(10) 0.9559(4)
H14_4 H 0.9418 0.0709 0.9545
H16_4 H 0.5488 0.0442 0.8817
C41_4 C 0.5604(5) 0.0060(12) 0.9565(5)
H18_4 H 0.5338 0.0674 0.9616
C49 C 0.6052(13) 0.239(3) 0.7830(17)
H28 H 0.6340 0.2387 0.7639
H29 H 0.6230 0.1959 0.8147
H30 H 0.5957 0.3243 0.7895
C50 C 0.5068(10) 0.206(2) 0.7001(10)
H31 H 0.4660 0.1727 0.6942
H32 H 0.5246 0.1717 0.6757
H33 H 0.5047 0.2964 0.6969
N1 N 0.5462(15) 0.171(2) 0.7528(11)
H34 H 0.5567 0.0896 0.7512
H35 H 0.5211 0.1730 0.7724
C49_2 C 0.3948(13) 0.739(3) 0.7170(17)
H28_2 H 0.3660 0.7387 0.7361
H29_2 H 0.3770 0.6959 0.6853
H30_2 H 0.4043 0.8243 0.7105
C50_2 C 0.4932(10) 0.706(2) 0.7999(10)
H31_2 H 0.5340 0.6727 0.8058
H32_2 H 0.4754 0.6717 0.8243
H33_2 H 0.4953 0.7964 0.8031
N1_2 N 0.4538(15) 0.671(2) 0.7472(11)
H34_2 H 0.4433 0.5896 0.7488
H35_2 H 0.4789 0.6730 0.7276
C49_3 C 0.3948(13) 0.761(3) 0.2170(17)
H28_3 H 0.3660 0.7613 0.2361
H29_3 H 0.3770 0.8041 0.1853
H30_3 H 0.4043 0.6757 0.2105
C50_3 C 0.4932(10) 0.794(2) 0.2999(10)
H31_3 H 0.5340 0.8273 0.3058
H32_3 H 0.4754 0.8283 0.3243
H33_3 H 0.4953 0.7036 0.3031
N1_3 N 0.4538(15) 0.829(2) 0.2472(11)
H34_3 H 0.4433 0.9104 0.2488
H35_3 H 0.4789 0.8270 0.2276
C49_4 C 0.6052(13) 0.261(3) 0.2830(17)
H28_4 H 0.6340 0.2613 0.2639
H29_4 H 0.6230 0.3041 0.3147
H30_4 H 0.5957 0.1757 0.2895
C50_4 C 0.5068(10) 0.294(2) 0.2001(10)
H31_4 H 0.4660 0.3273 0.1942
H32_4 H 0.5246 0.3283 0.1757
H33_4 H 0.5047 0.2036 0.1969
N1_4 N 0.5462(15) 0.329(2) 0.2528(11)
H34_4 H 0.5567 0.4104 0.2512
H35_4 H 0.5211 0.3270 0.2724
H40 H 0.3192 0.8341 0.0040
H41 H 0.2716 0.9005 0.0262
H42 H 0.2270 0.7236 0.0058
C51 C 0.1662(12) 0.802(3) 0.9354(14)
H36 H 0.1563 0.7435 0.9075
H37 H 0.1697 0.8853 0.9233
H38 H 0.1341 0.8000 0.9513
C52 C 0.2776(15) 0.864(2) 0.9963(10)
H39 H 0.2702 0.9272 0.9702
N2 N 0.2348(10) 0.7588(14) 0.9788(9)
H43 H 0.2530 0.6999 0.9648
C51_2 C 0.8338(12) 0.302(3) 0.5646(14)
H36_2 H 0.8437 0.2435 0.5925
H37_2 H 0.8303 0.3853 0.5767
H38_2 H 0.8659 0.3000 0.5487
C52_2 C 0.7224(15) 0.364(2) 0.5037(10)
H39_2 H 0.7298 0.4272 0.5298
H40_2 H 0.6808 0.3341 0.4960
H41_2 H 0.7284 0.4005 0.4738
N2_2 N 0.7652(10) 0.2588(14) 0.5212(9)
H42_2 H 0.7730 0.2236 0.4942
H43_2 H 0.7470 0.1999 0.5352
C51_3 C 0.8338(12) 0.198(3) 0.0646(14)
H36_3 H 0.8437 0.2565 0.0925
H37_3 H 0.8303 0.1147 0.0767
H38_3 H 0.8659 0.2000 0.0487
C52_3 C 0.7224(15) 0.136(2) 0.0037(10)
H39_3 H 0.7298 0.0728 0.0298
N2_3 N 0.7652(10) 0.2412(14) 0.0212(9)
H43_3 H 0.7470 0.3001 0.0352
H40_3 H 0.6808 0.1659 0.9960
H41_3 H 0.7284 0.0995 0.9738
H42_3 H 0.7730 0.2764 0.9942
C51_4 C 0.1662(12) 0.698(3) 0.4354(14)
H36_4 H 0.1563 0.7565 0.4075
H37_4 H 0.1697 0.6147 0.4233
H38_4 H 0.1341 0.7000 0.4513
C52_4 C 0.2776(15) 0.636(2) 0.4963(10)
H39_4 H 0.2702 0.5728 0.4702
H40_4 H 0.3192 0.6659 0.5040
H41_4 H 0.2716 0.5995 0.5262
N2_4 N 0.2348(10) 0.7412(14) 0.4788(9)
H42_4 H 0.2270 0.7764 0.5058
H43_4 H 0.2530 0.8001 0.4648
loop_
_geom_bond_atom_site_label_1
_geom_bond_atom_site_label_2
_geom_bond_site_symmetry_1
_geom_bond_site_symmetry_2
O19 C15 1_555 1_555
O20 C15 1_555 1_555
Co8 O19 1_555 1_555
Co9 O20 1_555 1_555
Co11 O20 1_555 1_555
O24 Co11 1_555 1_555
C3 H2 1_555 1_555
C5 C3 1_555 1_555
C12 C19 1_555 1_555
C19 H5 1_555 1_555
C21 C12 1_555 1_555
C25 C5 1_555 1_555
C26 C3 1_555 1_555
C30 C12 1_555 1_555
H9 C30 1_555 1_555
C38 C26 1_555 1_555
C43 C26 1_555 1_555
Co5 O25 1_555 1_555
Co6 O8 1_555 1_555
O7 C21 1_555 1_555
O8 C21 1_555 1_555
O25 C43 1_555 1_555
O26 C43 1_555 1_555
Co10 O7 1_555 1_555
H27 O39 1_555 1_555
O30 Co5 1_555 1_555
O31 Co6 1_555 1_555
O35 Co5 1_555 1_555
O37 Co6 1_555 1_555
O39 Co5 1_555 1_555
Co5 O26 1_555 1_555
Co6 O39 1_555 1_555
Co10 O39 1_555 1_555
O1 H44 1_555 1_555
O1 H45 1_555 1_555
C1 H1 1_555 1_555
C2 C17 1_555 1_555
C4 C11 1_555 1_555
C6 H3 1_555 1_555
C8 C11 1_555 1_555
C10 C6 1_555 1_555
C11 H4 1_555 1_555
C13 C16 1_555 1_555
C14 C4 1_555 1_555
C16 C6 1_555 1_555
C18 C24 1_555 1_555
C22 C29 1_555 1_555
C27 C4 1_555 1_555
H8 C27 1_555 1_555
C28 C8 1_555 1_555
C29 C31 1_555 1_555
C31 H10 1_555 1_555
C32 C16 1_555 1_555
H11 C32 1_555 1_555
C33 C10 1_555 1_555
C34 C17 1_555 1_555
C36 C32 1_555 1_555
H15 C36 1_555 1_555
C37 C31 1_555 1_555
C39 C24 1_555 1_555
H17 C39 1_555 1_555
C40 C37 1_555 1_555
C42 C1 1_555 1_555
H19 C42 1_555 1_555
C44 C1 1_555 1_555
H20 C44 1_555 1_555
C46 C8 1_555 1_555
H22 C46 1_555 1_555
C47 C27 1_555 1_555
H23 C47 1_555 1_555
Co8 O2 1_555 1_555
Co9 O2 1_555 1_555
H25 O2 1_555 1_555
O2 Co1 1_555 1_555
O5 C18 1_555 1_555
O6 C18 1_555 1_555
O9 C2 1_555 1_555
O10 C2 1_555 1_555
O11 C22 1_555 1_555
O12 C22 1_555 1_555
O13 C40 1_555 1_555
O14 C40 1_555 1_555
O15 C9 1_555 1_555
O16 C9 1_555 1_555
O17 C13 1_555 1_555
O18 C13 1_555 1_555
O21 C14 1_555 1_555
O22 C14 1_555 1_555
O23 C28 1_555 1_555
Co11 O22 1_555 1_555
Co13 O12 1_555 1_555
Co15 O14 1_555 1_555
O28 Co8 1_555 1_555
C29 C42 1_555 1_555
C33 C36 1_555 1_555
C37 C44 1_555 1_555
C46 C47 1_555 1_555
Co1 O6 1_555 1_555
Co1 O10 1_555 1_555
Co1 O16 1_555 1_555
Co1 O17 1_555 1_555
Co8 O5 1_555 1_555
Co8 O9 1_555 1_555
Co9 O11 1_555 1_555
Co9 O15 1_555 1_555
Co9 O18 1_555 1_555
Co9 O22 1_555 1_555
O21 Co13 1_555 1_555
C7 C23 1_555 1_555
C23 C20 1_555 1_555
H21 C45 1_555 1_555
C48 C23 1_555 1_555
H24 C48 1_555 1_555
Co4 O4 1_555 1_555
H26 O27 1_555 1_555
O3 C7 1_555 1_555
O4 C7 1_555 1_555
O27 Co4 1_555 1_555
Co7 O3 1_555 1_555
Co14 O27 1_555 1_555
Co15 O27 1_555 1_555
O29 Co4 1_555 1_555
O34 Co4 1_555 1_555
O36 Co4 1_555 1_555
O38 Co4 1_555 1_555
C45 C48 1_555 1_555
C7_2 C23_2 1_555 1_555
C23_2 C20_2 1_555 1_555
H21_2 C45_2 1_555 1_555
C48_2 C23_2 1_555 1_555
H24_2 C48_2 1_555 1_555
Co11 O4_2 1_555 1_555
H26_2 O27_2 1_555 1_555
O28 C7_2 1_555 1_555
O4_2 C7_2 1_555 1_555
O27_2 Co11 1_555 1_555
Co13 O27_2 1_555 1_555
Co16 O27_2 1_555 1_555
O29_2 Co11 1_555 1_555
C45_2 C48_2 1_555 1_555
C4_2 C11_2 1_555 1_555
C6_2 H3_2 1_555 1_555
C8_2 C11_2 1_555 1_555
C10_2 C6_2 1_555 1_555
C11_2 H4_2 1_555 1_555
C13_2 C16_2 1_555 1_555
C15_2 C10_2 1_555 1_555
C16_2 C6_2 1_555 1_555
C27_2 C4_2 1_555 1_555
H8_2 C27_2 1_555 1_555
C28_2 C8_2 1_555 1_555
C32_2 C16_2 1_555 1_555
H11_2 C32_2 1_555 1_555
C33_2 C10_2 1_555 1_555
H12_2 C33_2 1_555 1_555
C36_2 C32_2 1_555 1_555
H15_2 C36_2 1_555 1_555
C39_2 C24_2 1_555 1_555
H17_2 C39_2 1_555 1_555
C46_2 C8_2 1_555 1_555
H22_2 C46_2 1_555 1_555
C47_2 C27_2 1_555 1_555
H23_2 C47_2 1_555 1_555
O17_2 C13_2 1_555 1_555
O19_2 C15_2 1_555 1_555
O34 C15_2 1_555 1_555
O23_2 C28_2 1_555 1_555
O38 C28_2 1_555 1_555
Co7 O19_2 1_555 1_555
Co9_2 O34 1_555 1_555
Co16 O14_2 1_555 1_555
Co15 O23_2 1_555 1_555
C33_2 C36_2 1_555 1_555
C46_2 C47_2 1_555 1_555
C1_2 H1_2 1_555 1_555
C2_2 C17_2 1_555 1_555
C3_2 H2_2 1_555 1_555
C5_2 C3_2 1_555 1_555
C9_2 C5_2 1_555 1_555
C12_2 C19_2 1_555 1_555
C17_2 C19_2 1_555 1_555
C19_2 H5_2 1_555 1_555
C21_2 C12_2 1_555 1_555
C22_2 C29_2 1_555 1_555
C25_2 C5_2 1_555 1_555
H7_2 C25_2 1_555 1_555
C26_2 C3_2 1_555 1_555
C29_2 C31_2 1_555 1_555
C30_2 C12_2 1_555 1_555
H9_2 C30_2 1_555 1_555
C31_2 H10_2 1_555 1_555
C34_2 C17_2 1_555 1_555
H13 C34_2 1_555 1_555
C35 C30_2 1_555 1_555
H14 C35 1_555 1_555
C37_2 C31_2 1_555 1_555
C38_2 C26_2 1_555 1_555
H16 C38_2 1_555 1_555
C40_2 C37_2 1_555 1_555
C41 C25_2 1_555 1_555
H18 C41 1_555 1_555
C42_2 C1_2 1_555 1_555
H19_2 C42_2 1_555 1_555
C43_2 C26_2 1_555 1_555
C44_2 C1_2 1_555 1_555
H20_2 C44_2 1_555 1_555
Co1_2 O1_2 1_555 1_555
Co7 O2_2 1_555 1_555
Co9_2 O2_2 1_555 1_555
Co5_2 O25_2 1_555 1_555
Co6_2 O8_2 1_555 1_555
H25_2 O2_2 1_555 1_555
O2_2 Co1_2 1_555 1_555
O5_2 C18_2 1_555 1_555
O6_2 C18_2 1_555 1_555
O7_2 C21_2 1_555 1_555
O8_2 C21_2 1_555 1_555
O9_2 C2_2 1_555 1_555
O10_2 C2_2 1_555 1_555
O11_2 C22_2 1_555 1_555
O12_2 C22_2 1_555 1_555
O13_2 C40_2 1_555 1_555
O15_2 C9_2 1_555 1_555
O16_2 C9_2 1_555 1_555
O21_2 C14_2 1_555 1_555
O36 C14_2 1_555 1_555
O25_2 C43_2 1_555 1_555
O26_2 C43_2 1_555 1_555
Co10_2 O7_2 1_555 1_555
Co14 O12_2 1_555 1_555
H27_2 O39_2 1_555 1_555
O30_2 Co5_2 1_555 1_555
O31_2 Co6_2 1_555 1_555
O35_2 Co5_2 1_555 1_555
O39_2 Co5_2 1_555 1_555
C29_2 C42_2 1_555 1_555
C34_2 C35 1_555 1_555
C37_2 C44_2 1_555 1_555
C38_2 C41 1_555 1_555
Co1_2 O6_2 1_555 1_555
Co1_2 O10_2 1_555 1_555
Co1_2 O16_2 1_555 1_555
Co7 O5_2 1_555 1_555
Co7 O9_2 1_555 1_555
Co9_2 O11_2 1_555 1_555
Co9_2 O15_2 1_555 1_555
Co9_2 O18_2 1_555 1_555
Co9_2 O36 1_555 1_555
Co5_2 O26_2 1_555 1_555
Co6_2 O39_2 1_555 1_555
O21_2 Co14 1_555 1_555
Co10_2 O39_2 1_555 1_555
O1_2 H44_2 1_555 1_555
O1_2 H45_2 1_555 1_555
C7_3 C23_3 1_555 1_555
C23_3 C20_3 1_555 1_555
H21_3 C45_3 1_555 1_555
C48_3 C23_3 1_555 1_555
H24_3 C48_3 1_555 1_555
Co10 O4_3 1_555 1_555
O3_2 C7_3 1_555 1_555
O4_3 C7_3 1_555 1_555
Co7_2 O3_2 1_555 1_555
O34_2 Co10 1_555 1_555
O36_2 Co10 1_555 1_555
O38_2 Co10 1_555 1_555
C45_3 C48_3 1_555 1_555
C1_3 H1_3 1_555 1_555
C2_3 C17_3 1_555 1_555
C4_3 C11_3 1_555 1_555
C6_3 H3_3 1_555 1_555
C8_3 C11_3 1_555 1_555
C10_3 C6_3 1_555 1_555
C11_3 H4_3 1_555 1_555
C13_3 C16_3 1_555 1_555
C14_3 C4_3 1_555 1_555
C16_3 C6_3 1_555 1_555
C18_3 C24_3 1_555 1_555
C22_3 C29_3 1_555 1_555
C27_3 C4_3 1_555 1_555
H8_3 C27_3 1_555 1_555
C28_3 C8_3 1_555 1_555
C29_3 C31_3 1_555 1_555
C31_3 H10_3 1_555 1_555
C32_3 C16_3 1_555 1_555
H11_3 C32_3 1_555 1_555
C33_3 C10_3 1_555 1_555
C34_3 C17_3 1_555 1_555
C36_3 C32_3 1_555 1_555
H15_3 C36_3 1_555 1_555
C37_3 C31_3 1_555 1_555
C39_3 C24_3 1_555 1_555
H17_3 C39_3 1_555 1_555
C40_3 C37_3 1_555 1_555
C42_3 C1_3 1_555 1_555
H19_3 C42_3 1_555 1_555
C44_3 C1_3 1_555 1_555
H20_3 C44_3 1_555 1_555
C46_3 C8_3 1_555 1_555
H22_3 C46_3 1_555 1_555
C47_3 C27_3 1_555 1_555
H23_3 C47_3 1_555 1_555
Co2 O2_3 1_555 1_555
Co3 O2_3 1_555 1_555
H25_3 O2_3 1_555 1_555
O2_3 Co1_3 1_555 1_555
O5_3 C18_3 1_555 1_555
O6_3 C18_3 1_555 1_555
O9_3 C2_3 1_555 1_555
O10_3 C2_3 1_555 1_555
O11_3 C22_3 1_555 1_555
O30_2 C22_3 1_555 1_555
O13_3 C40_3 1_555 1_555
O31 C40_3 1_555 1_555
O15_3 C9_3 1_555 1_555
O16_3 C9_3 1_555 1_555
O17_3 C13_3 1_555 1_555
O18_3 C13_3 1_555 1_555
O35_2 C14_3 1_555 1_555
O22_2 C14_3 1_555 1_555
O37_2 C28_3 1_555 1_555
Co10_2 O22_2 1_555 1_555
O28_2 Co2 1_555 1_555
O32 Co2 1_555 1_555
O33 Co3 1_555 1_555
C29_3 C42_3 1_555 1_555
C33_3 C36_3 1_555 1_555
C37_3 C44_3 1_555 1_555
C46_3 C47_3 1_555 1_555
Co1_3 O6_3 1_555 1_555
Co1_3 O10_3 1_555 1_555
Co1_3 O16_3 1_555 1_555
Co1_3 O17_3 1_555 1_555
Co2 O5_3 1_555 1_555
Co2 O9_3 1_555 1_555
Co3 O11_3 1_555 1_555
Co3 O15_3 1_555 1_555
Co3 O18_3 1_555 1_555
Co3 O22_2 1_555 1_555
Co10_2 O33 1_555 1_555
C3_3 H2_3 1_555 1_555
C5_3 C3_3 1_555 1_555
C12_3 C19_3 1_555 1_555
C19_3 H5_3 1_555 1_555
C21_3 C12_3 1_555 1_555
C25_3 C5_3 1_555 1_555
C26_3 C3_3 1_555 1_555
C30_3 C12_3 1_555 1_555
H9_3 C30_3 1_555 1_555
C38_3 C26_3 1_555 1_555
C43_3 C26_3 1_555 1_555
Co14 O25_3 1_555 1_555
Co15 O8_3 1_555 1_555
O29 C21_3 1_555 1_555
O8_3 C21_3 1_555 1_555
O25_3 C43_3 1_555 1_555
O26_3 C43_3 1_555 1_555
Co14 O26_3 1_555 1_555
O1_3 H44_3 1_555 1_555
O1_3 H45_3 1_555 1_555
O32 C15_3 1_555 1_555
O33 C15_3 1_555 1_555
O24_2 Co10_2 1_555 1_555
C1_4 H1_4 1_555 1_555
C2_4 C17_4 1_555 1_555
C3_4 H2_4 1_555 1_555
C5_4 C3_4 1_555 1_555
C9_4 C5_4 1_555 1_555
C12_4 C19_4 1_555 1_555
C17_4 C19_4 1_555 1_555
C19_4 H5_4 1_555 1_555
C21_4 C12_4 1_555 1_555
C22_4 C29_4 1_555 1_555
C25_4 C5_4 1_555 1_555
H7_4 C25_4 1_555 1_555
C26_4 C3_4 1_555 1_555
C29_4 C31_4 1_555 1_555
C30_4 C12_4 1_555 1_555
H9_4 C30_4 1_555 1_555
C31_4 H10_4 1_555 1_555
C34_4 C17_4 1_555 1_555
H13_2 C34_4 1_555 1_555
C35_2 C30_4 1_555 1_555
H14_2 C35_2 1_555 1_555
C37_4 C31_4 1_555 1_555
C38_4 C26_4 1_555 1_555
H16_2 C38_4 1_555 1_555
C40_4 C37_4 1_555 1_555
C41_2 C25_4 1_555 1_555
H18_2 C41_2 1_555 1_555
C42_4 C1_4 1_555 1_555
H19_4 C42_4 1_555 1_555
C43_4 C26_4 1_555 1_555
C44_4 C1_4 1_555 1_555
H20_4 C44_4 1_555 1_555
Co1_4 O1_4 1_555 1_555
Co7_2 O2_4 1_555 1_555
Co3_2 O2_4 1_555 1_555
Co13 O25_4 1_555 1_555
Co16 O8_4 1_555 1_555
H25_4 O2_4 1_555 1_555
O2_4 Co1_4 1_555 1_555
O5_4 C18_4 1_555 1_555
O6_4 C18_4 1_555 1_555
O29_2 C21_4 1_555 1_555
O8_4 C21_4 1_555 1_555
O9_4 C2_4 1_555 1_555
O10_4 C2_4 1_555 1_555
O11_4 C22_4 1_555 1_555
O30 C22_4 1_555 1_555
O13_4 C40_4 1_555 1_555
O15_4 C9_4 1_555 1_555
O16_4 C9_4 1_555 1_555
O35 C14_4 1_555 1_555
O36_2 C14_4 1_555 1_555
O25_4 C43_4 1_555 1_555
O26_4 C43_4 1_555 1_555
O32_2 Co7_2 1_555 1_555
O34_2 Co3_2 1_555 1_555
C29_4 C42_4 1_555 1_555
C34_4 C35_2 1_555 1_555
C37_4 C44_4 1_555 1_555
C38_4 C41_2 1_555 1_555
Co1_4 O6_4 1_555 1_555
Co1_4 O10_4 1_555 1_555
Co1_4 O16_4 1_555 1_555
Co7_2 O5_4 1_555 1_555
Co7_2 O9_4 1_555 1_555
Co3_2 O11_4 1_555 1_555
Co3_2 O15_4 1_555 1_555
Co3_2 O18_4 1_555 1_555
Co3_2 O36_2 1_555 1_555
Co13 O26_4 1_555 1_555
O1_4 H44_4 1_555 1_555
O1_4 H45_4 1_555 1_555
C4_4 C11_4 1_555 1_555
C6_4 H3_4 1_555 1_555
C8_4 C11_4 1_555 1_555
C10_4 C6_4 1_555 1_555
C11_4 H4_4 1_555 1_555
C13_4 C16_4 1_555 1_555
C15_4 C10_4 1_555 1_555
C16_4 C6_4 1_555 1_555
C27_4 C4_4 1_555 1_555
H8_4 C27_4 1_555 1_555
C28_4 C8_4 1_555 1_555
C32_4 C16_4 1_555 1_555
H11_4 C32_4 1_555 1_555
C33_4 C10_4 1_555 1_555
H12_4 C33_4 1_555 1_555
C36_4 C32_4 1_555 1_555
H15_4 C36_4 1_555 1_555
C39_4 C24_4 1_555 1_555
H17_4 C39_4 1_555 1_555
C46_4 C8_4 1_555 1_555
H22_4 C46_4 1_555 1_555
C47_4 C27_4 1_555 1_555
H23_4 C47_4 1_555 1_555
O17_4 C13_4 1_555 1_555
O32_2 C15_4 1_555 1_555
O34_2 C15_4 1_555 1_555
O37 C28_4 1_555 1_555
O38_2 C28_4 1_555 1_555
C33_4 C36_4 1_555 1_555
C46_4 C47_4 1_555 1_555
C7_4 C23_4 1_555 1_555
C23_4 C20_4 1_555 1_555
H21_4 C45_4 1_555 1_555
C48_4 C23_4 1_555 1_555
H24_4 C48_4 1_555 1_555
Co10_2 O4_4 1_555 1_555
O28_2 C7_4 1_555 1_555
O4_4 C7_4 1_555 1_555
C45_4 C48_4 1_555 1_555
H14_3 C35_3 1_555 1_555
H18_3 C41_3 1_555 1_555
H14_4 C35_4 1_555 1_555
H18_4 C41_4 1_555 1_555
C49 H28 1_555 1_555
H29 C49 1_555 1_555
H30 C49 1_555 1_555
C50 H31 1_555 1_555
H32 C50 1_555 1_555
H33 C50 1_555 1_555
N1 C49 1_555 1_555
H34 N1 1_555 1_555
H35 N1 1_555 1_555
C50 N1 1_555 1_555
C49_2 H28_2 1_555 1_555
H29_2 C49_2 1_555 1_555
H30_2 C49_2 1_555 1_555
C50_2 H31_2 1_555 1_555
H32_2 C50_2 1_555 1_555
H33_2 C50_2 1_555 1_555
N1_2 C49_2 1_555 1_555
H34_2 N1_2 1_555 1_555
H35_2 N1_2 1_555 1_555
C50_2 N1_2 1_555 1_555
C49_3 H28_3 1_555 1_555
H29_3 C49_3 1_555 1_555
H30_3 C49_3 1_555 1_555
C50_3 H31_3 1_555 1_555
H32_3 C50_3 1_555 1_555
H33_3 C50_3 1_555 1_555
N1_3 C49_3 1_555 1_555
H34_3 N1_3 1_555 1_555
H35_3 N1_3 1_555 1_555
C50_3 N1_3 1_555 1_555
C49_4 H28_4 1_555 1_555
H29_4 C49_4 1_555 1_555
H30_4 C49_4 1_555 1_555
C50_4 H31_4 1_555 1_555
H32_4 C50_4 1_555 1_555
H33_4 C50_4 1_555 1_555
N1_4 C49_4 1_555 1_555
H34_4 N1_4 1_555 1_555
H35_4 N1_4 1_555 1_555
C50_4 N1_4 1_555 1_555
C51 H36 1_555 1_555
H37 C51 1_555 1_555
H38 C51 1_555 1_555
C52 H39 1_555 1_555
N2 C51 1_555 1_555
H43 N2 1_555 1_555
C52 N2 1_555 1_555
C51_2 H36_2 1_555 1_555
H37_2 C51_2 1_555 1_555
H38_2 C51_2 1_555 1_555
C52_2 H39_2 1_555 1_555
H40_2 C52_2 1_555 1_555
H41_2 C52_2 1_555 1_555
N2_2 C51_2 1_555 1_555
H42_2 N2_2 1_555 1_555
H43_2 N2_2 1_555 1_555
C52_2 N2_2 1_555 1_555
C51_3 H36_3 1_555 1_555
H37_3 C51_3 1_555 1_555
H38_3 C51_3 1_555 1_555
C52_3 H39_3 1_555 1_555
N2_3 C51_3 1_555 1_555
H43_3 N2_3 1_555 1_555
C52_3 N2_3 1_555 1_555
C51_4 H36_4 1_555 1_555
H37_4 C51_4 1_555 1_555
H38_4 C51_4 1_555 1_555
C52_4 H39_4 1_555 1_555
H40_4 C52_4 1_555 1_555
H41_4 C52_4 1_555 1_555
N2_4 C51_4 1_555 1_555
H42_4 N2_4 1_555 1_555
H43_4 N2_4 1_555 1_555
C52_4 N2_4 1_555 1_555

#END
