
###############################################################################
#
# This file contains modified crystal structure data generated from the
# MOF subset of the Cambridge Structural Database (CSD) v543 
# hosted by the Cambridge Crystallographic Data Centre (CCDC).
#
# This work is licensed under the Creative Commons
# Attribution-NonCommercial-ShareAlike 4.0 International License.
# To view a copy of this license, visit
# http://creativecommons.org/licenses/by-nc-sa/4.0/
# or send a letter to
# Creative Commons, PO Box 1866, Mountain View, CA 94042, USA.
#
# CIF created using the CSD Python API on 29 September 2022
# The structure has been converted into the P1 space group
# The structure has a 3D framework
# The original CSD entry COYCID is in the triclinic crystal system
# The framework has been calculated to contain at least 10.0% void space
# The void calculation uses a probe of radius 1.32A, grid spacing 0.4
#
###############################################################################

data_COYCID
_chemical_formula_moiety         '(C94 H72 Cu12 Mo4 N22 O4 S15)n'
_symmetry_cell_setting           triclinic
_symmetry_space_group_name_H-M   'P 1'
_symmetry_Int_Tables_number      1
_space_group_name_Hall           'P 1'
loop_
_symmetry_equiv_pos_site_id
_symmetry_equiv_pos_as_xyz
1 x,y,z
_cell_length_a                   17.1042(16)
_cell_length_b                   18.3052(10)
_cell_length_c                   20.236(2)
_cell_angle_alpha                75.305(11)
_cell_angle_beta                 86.882(12)
_cell_angle_gamma                67.409(8)
_cell_volume                     5651.74
loop_
_atom_site_label
_atom_site_type_symbol
_atom_site_fract_x
_atom_site_fract_y
_atom_site_fract_z
_atom_site_U_iso_or_equiv
_atom_site_thermal_displace_type
Mo3 Mo 0.03572(10) 0.31375(10) 0.64154(9) 0.0408 Uani
Cu7 Cu 0.07860(17) 0.15204(17) 0.67788(17) 0.0543 Uani
Cu8 Cu 0.01278(14) 0.30128(14) 0.77457(12) 0.0395 Uani
Cu11 Cu 0.19708(14) 0.29156(15) 0.66860(12) 0.0412 Uani
Cu15 Cu 0.37374(18) 0.69543(17) 0.21973(13) 0.0493 Uani
S10 S 0.1530(3) 0.2195(4) 0.6112(3) 0.0531 Uani
S11 S 0.0778(3) 0.3774(3) 0.7072(3) 0.0420 Uani
N12 N 0.0423(19) 0.0951(14) 0.6167(17) 0.0964 Uani
N13 N 0.3443(12) 0.6225(10) 0.3065(10) 0.0501 Uani
N15 N 0.2370(10) 0.3712(11) 0.5920(8) 0.0458 Uani
N18 N 0.1546(11) 0.0600(10) 0.7609(12) 0.0607 Uani
N24 N 0.1007(11) 0.2146(11) 0.8494(9) 0.0490 Uani
N26 N 0.3008(11) 0.2234(11) 0.7264(9) 0.0457 Uani
C48 C 0.065(2) 0.0073(17) 0.646(2) 0.0964 Uani
C50 C 0.004(2) 0.0198(17) 0.5314(19) 0.0964 Uani
C53 C 0.2669(14) 0.6374(15) 0.3277(12) 0.0564 Uani
H41 H 0.2237 0.6857 0.3022 0.0670 Uiso
C54 C 0.2421(14) 0.5932(15) 0.3805(11) 0.0573 Uani
H42 H 0.1836 0.6060 0.3884 0.0680 Uiso
C55 C 0.3030(17) 0.5286(15) 0.4231(13) 0.0596 Uani
C56 C 0.3873(19) 0.508(2) 0.407(2) 0.1143 Uani
H43 H 0.4317 0.4610 0.4322 0.1400 Uiso
C57 C 0.402(2) 0.5632(19) 0.350(2) 0.1197 Uani
H44 H 0.4594 0.5570 0.3432 0.1420 Uiso
C58 C 0.2819(16) 0.4707(14) 0.4823(12) 0.0537 Uani
C59 C 0.2042(18) 0.465(2) 0.4833(14) 0.0826 Uani
H45 H 0.1630 0.4974 0.4469 0.0980 Uiso
C60 C 0.188(2) 0.414(2) 0.5366(16) 0.0874 Uani
H46 H 0.1352 0.4081 0.5343 0.1060 Uiso
C61 C 0.3075(15) 0.3793(17) 0.5904(12) 0.0682 Uani
H47 H 0.3448 0.3478 0.6294 0.0820 Uiso
C62 C 0.3362(16) 0.4244(15) 0.5432(13) 0.0611 Uani
H48 H 0.3900 0.4268 0.5485 0.0730 Uiso
C70 C 0.1287(15) 0.0060(15) 0.7957(17) 0.0683 Uani
H54 H 0.0732 0.0091 0.7874 0.0830 Uiso
C71 C 0.2345(17) 0.0545(12) 0.7664(13) 0.0564 Uani
H55 H 0.2508 0.0956 0.7377 0.0680 Uiso
Cu19 Cu 0.52600(16) 0.65595(18) 0.08125(12) 0.0474 Uani
N16 N 0.4412(12) 0.7418(13) 0.0037(8) 0.0489 Uani
C63 C 0.3575(14) 0.7759(14) 0.0181(12) 0.0477 Uani
H49 H 0.3397 0.7576 0.0623 0.0580 Uiso
N6 N 0.3936(11) 0.4224(13) 0.9715(8) 0.0491 Uani
C26 C 0.3096(14) 0.4586(15) 0.9521(12) 0.0535 Uani
H21 H 0.2923 0.4533 0.9103 0.0650 Uiso
C27 C 0.2497(12) 0.5015(11) 0.9889(11) 0.0390 Uani
H22 H 0.1917 0.5228 0.9740 0.0470 Uiso
Cu16 Cu 0.47400(16) 0.34405(18) 0.91875(12) 0.0474 Uani
S13 S 0.5352(4) 0.4005(4) 0.8310(3) 0.0493 Uani
S18 S 0.4012(3) 0.2823(4) 0.8778(2) 0.0464 Uani
N17 N 0.5588(12) 0.2582(13) 0.9963(8) 0.0489 Uani
N8 N 0.5874(9) 0.0959(10) 0.9047(8) 0.0412 Uani
C16 C 0.6425(14) 0.2241(14) 0.9819(12) 0.0477 Uani
H13 H 0.6603 0.2424 0.9377 0.0580 Uiso
C36 C 0.6721(11) 0.0629(11) 0.8907(9) 0.0342 Uani
H29 H 0.6893 0.0825 0.8466 0.0410 Uiso
C37 C 0.7309(12) 0.0043(11) 0.9367(9) 0.0369 Uani
C40 C 0.5673(12) 0.0648(16) 0.9675(10) 0.0521 Uani
H32 H 0.5106 0.0878 0.9807 0.0630 Uiso
Mo4 Mo 0.45771(13) 0.34444(12) 0.78839(8) 0.0466 Uani
Cu13 Cu 0.62626(18) 0.30457(17) 0.78027(13) 0.0493 Uani
Cu20 Cu 0.49860(15) 0.18258(16) 0.83481(12) 0.0430 Uani
S15 S 0.5476(5) 0.2478(4) 0.7409(3) 0.0572 Uani
S19 S 0.4412(3) 0.0979(3) 0.8028(3) 0.0466 Uani
S20 S 0.8819(5) 0.1124(5) 0.9009(5) 0.0861 Uani
O4 O 0.3773(13) 0.4191(11) 0.7286(8) 0.0652 Uani
N14 N 0.6557(12) 0.3775(10) 0.6935(10) 0.0501 Uani
N27 N 0.7367(15) 0.2294(14) 0.8258(11) 0.0536 Uani
C86 C 0.3727(12) 0.0010(12) 0.9849(9) 0.0399 Uani
H67 H 0.3900 0.0242 0.9421 0.0480 Uiso
C88 C 0.2245(11) 0.0950(11) 0.9484(9) 0.0334 Uani
C89 C 0.1435(13) 0.0906(12) 0.9418(10) 0.0432 Uani
H69 H 0.1300 0.0473 0.9697 0.0520 Uiso
C90 C 0.0865(12) 0.1520(10) 0.8933(11) 0.0437 Uani
H70 H 0.0320 0.1505 0.8901 0.0520 Uiso
C91 C 0.1774(11) 0.2168(12) 0.8569(10) 0.0385 Uani
H71 H 0.1898 0.2602 0.8277 0.0460 Uiso
C92 C 0.2396(13) 0.1585(11) 0.9055(10) 0.0354 Uani
H72 H 0.2927 0.1629 0.9087 0.0420 Uiso
C93 C 0.3601(12) 0.1683(11) 0.7586(9) 0.0371 Uani
C94 C 0.794(2) 0.183(2) 0.8562(15) 0.0679 Uani
Mo1 Mo 0.96428(10) 0.68625(10) 0.35846(9) 0.0408 Uani
Cu1 Cu 0.92140(17) 0.84796(17) 0.32212(17) 0.0543 Uani
Cu2 Cu 0.98722(14) 0.69872(14) 0.22543(12) 0.0395 Uani
Cu3 Cu 0.80292(14) 0.70844(15) 0.33140(12) 0.0412 Uani
Cu6 Cu 0.50140(15) 0.81742(16) 0.16519(12) 0.0430 Uani
S2 S 0.8470(3) 0.7805(4) 0.3888(3) 0.0531 Uani
S3 S 0.9222(3) 0.6226(3) 0.2928(3) 0.0420 Uani
S7 S 0.5588(3) 0.9021(3) 0.1972(3) 0.0466 Uani
N1 N 0.9577(19) 0.9049(14) 0.3833(17) 0.0964 Uani
N3 N 0.7630(10) 0.6288(11) 0.4080(8) 0.0458 Uani
N5 N 0.8454(11) 0.9400(10) 0.2391(12) 0.0607 Uani
N9 N 0.8993(11) 0.7854(11) 0.1506(9) 0.0490 Uani
N10 N 0.6992(11) 0.7766(11) 0.2736(9) 0.0457 Uani
C1 C 0.935(2) 0.9927(17) 0.354(2) 0.0964 Uani
C3 C 0.996(2) 0.9802(17) 0.4686(19) 0.0964 Uani
C6 C 0.7331(14) 0.3626(15) 0.6723(12) 0.0564 Uani
H5 H 0.7763 0.3143 0.6978 0.0670 Uiso
C7 C 0.7579(14) 0.4068(15) 0.6195(11) 0.0573 Uani
H6 H 0.8164 0.3940 0.6116 0.0680 Uiso
C8 C 0.6970(17) 0.4714(15) 0.5769(13) 0.0596 Uani
C9 C 0.6127(19) 0.492(2) 0.593(2) 0.1143 Uani
H7 H 0.5683 0.5390 0.5678 0.1400 Uiso
C10 C 0.598(2) 0.4368(19) 0.650(2) 0.1197 Uani
H8 H 0.5406 0.4430 0.6568 0.1420 Uiso
C11 C 0.7181(16) 0.5293(14) 0.5177(12) 0.0537 Uani
C12 C 0.7958(18) 0.535(2) 0.5167(14) 0.0826 Uani
H9 H 0.8370 0.5026 0.5531 0.0980 Uiso
C13 C 0.812(2) 0.586(2) 0.4634(16) 0.0874 Uani
H10 H 0.8648 0.5919 0.4657 0.1060 Uiso
C14 C 0.6925(15) 0.6207(17) 0.4096(12) 0.0682 Uani
H11 H 0.6552 0.6522 0.3706 0.0820 Uiso
C15 C 0.6638(16) 0.5756(15) 0.4568(13) 0.0611 Uani
H12 H 0.6100 0.5732 0.4515 0.0730 Uiso
C23 C 0.8713(15) 0.9940(15) 0.2043(17) 0.0683 Uani
H18 H 0.9268 0.9909 0.2126 0.0830 Uiso
C24 C 0.7655(17) 0.9455(12) 0.2336(13) 0.0564 Uani
H19 H 0.7492 0.9044 0.2623 0.0680 Uiso
C39 C 0.6273(12) 0.9990(12) 0.0151(9) 0.0399 Uani
H31 H 0.6100 0.9758 0.0579 0.0480 Uiso
C41 C 0.7755(11) 0.9050(11) 0.0516(9) 0.0334 Uani
C42 C 0.8565(13) 0.9094(12) 0.0582(10) 0.0432 Uani
H33 H 0.8700 0.9527 0.0303 0.0520 Uiso
C43 C 0.9135(12) 0.8480(10) 0.1067(11) 0.0437 Uani
H34 H 0.9680 0.8495 0.1099 0.0520 Uiso
C44 C 0.8226(11) 0.7832(12) 0.1431(10) 0.0385 Uani
H35 H 0.8102 0.7398 0.1723 0.0460 Uiso
C45 C 0.7604(13) 0.8415(11) 0.0945(10) 0.0354 Uani
H36 H 0.7073 0.8371 0.0913 0.0420 Uiso
C46 C 0.6399(12) 0.8317(11) 0.2414(9) 0.0371 Uani
Mo5 Mo 0.54229(13) 0.65556(12) 0.21161(8) 0.0466 Uani
S14 S 0.4524(5) 0.7522(4) 0.2591(3) 0.0572 Uani
S16 S 0.5988(3) 0.7177(4) 0.1222(2) 0.0464 Uani
N22 N 0.4126(9) 0.9041(10) 0.0953(8) 0.0412 Uani
C83 C 0.3279(11) 0.9371(11) 0.1093(9) 0.0342 Uani
H65 H 0.3107 0.9175 0.1534 0.0410 Uiso
C84 C 0.2691(12) 0.9957(11) 0.0633(9) 0.0369 Uani
C87 C 0.4327(12) 0.9352(16) 0.0325(10) 0.0521 Uani
H68 H 0.4894 0.9122 0.0193 0.0630 Uiso
S4 S 0.4648(4) 0.5995(4) 0.1690(3) 0.0493 Uani
S8 S 0.1181(5) 0.8876(5) 0.0991(5) 0.0861 Uani
O2 O 0.6227(13) 0.5809(11) 0.2714(8) 0.0652 Uani
N11 N 0.2633(15) 0.7706(14) 0.1742(11) 0.0536 Uani
C47 C 0.206(2) 0.817(2) 0.1438(15) 0.0679 Uani
N19 N 0.6064(11) 0.5776(13) 0.0285(8) 0.0491 Uani
C73 C 0.6904(14) 0.5414(15) 0.0479(12) 0.0535 Uani
H57 H 0.7077 0.5467 0.0897 0.0650 Uiso
C74 C 0.7503(12) 0.4985(11) 0.0111(11) 0.0390 Uani
H58 H 0.8083 0.4772 0.0260 0.0470 Uiso
S1 S 0.0372(3) 0.7556(3) 0.2920(3) 0.0468 Uani
O1 O 0.0258(10) 0.6165(11) 0.4306(9) 0.0610 Uani
N7 N 0.0813(9) 0.6380(9) 0.1719(8) 0.0388 Uani
C4 C 0.023(2) 0.8966(17) 0.487(2) 0.0964 Uani
H3 H 0.0508 0.8632 0.5299 0.1160 Uiso
C5 C 0.004(2) 0.8668(18) 0.436(2) 0.0964 Uani
H4 H 0.0293 0.8091 0.4430 0.1160 Uiso
C28 C 0.2727(14) 0.5150(14) 0.0500(11) 0.0476 Uani
C29 C 0.3610(13) 0.4823(15) 0.0666(12) 0.0562 Uani
H23 H 0.3814 0.4900 0.1060 0.0680 Uiso
C30 C 0.4142(13) 0.4413(16) 0.0274(12) 0.0555 Uani
H24 H 0.4729 0.4231 0.0391 0.0660 Uiso
C31 C 0.2072(11) 0.5583(12) 0.0913(10) 0.0419 Uani
C32 C 0.1345(14) 0.5427(14) 0.1029(13) 0.0509 Uani
H25 H 0.1260 0.5043 0.0831 0.0610 Uiso
C33 C 0.0738(14) 0.5823(12) 0.1432(10) 0.0455 Uani
H26 H 0.0246 0.5698 0.1510 0.0550 Uiso
C34 C 0.1514(13) 0.6533(13) 0.1601(10) 0.0435 Uani
H27 H 0.1574 0.6937 0.1786 0.0520 Uiso
C35 C 0.2156(13) 0.6137(12) 0.1226(12) 0.0477 Uani
H28 H 0.2659 0.6245 0.1182 0.0570 Uiso
H37 H 0.0895 0.9766 0.6899 0.1160 Uiso
C49 C 0.0435(18) 0.9773(17) 0.5942(19) 0.0964 Uani
H38 H 0.0583 0.9199 0.6049 0.1160 Uiso
C64 C 0.3019(12) 0.8333(13) 0.9717(12) 0.0472 Uani
H50 H 0.2441 0.8530 0.9829 0.0570 Uiso
C65 C 0.3236(12) 0.8677(12) 0.9053(12) 0.0455 Uani
C66 C 0.4118(15) 0.8311(16) 0.8939(12) 0.0534 Uani
H51 H 0.4329 0.8484 0.8509 0.0640 Uiso
C67 C 0.4649(12) 0.7722(17) 0.9437(12) 0.0563 Uani
H52 H 0.5235 0.7512 0.9350 0.0680 Uiso
C68 C 0.2665(14) 0.9298(14) 0.8532(12) 0.0494 Uani
C69 C 0.1837(12) 0.9417(12) 0.8466(13) 0.0522 Uani
H53 H 0.1624 0.9057 0.8771 0.0630 Uiso
C72 C 0.2922(16) 0.9923(15) 0.8113(13) 0.0573 Uani
H56 H 0.3483 0.9897 0.8154 0.0680 Uiso
H1 H 0.9105 0.0234 0.3101 0.1160 Uiso
C2 C 0.9565(18) 0.0227(17) 0.4058(19) 0.0964 Uani
H2 H 0.9417 0.0801 0.3951 0.1160 Uiso
C17 C 0.6981(12) 0.1667(13) 0.0283(12) 0.0472 Uani
H14 H 0.7559 0.1470 0.0171 0.0570 Uiso
C18 C 0.6764(12) 0.1323(12) 0.0947(12) 0.0455 Uani
C19 C 0.5882(15) 0.1689(16) 0.1061(12) 0.0534 Uani
H15 H 0.5671 0.1516 0.1491 0.0640 Uiso
C20 C 0.5351(12) 0.2278(17) 0.0563(12) 0.0563 Uani
H16 H 0.4765 0.2488 0.0650 0.0680 Uiso
C21 C 0.7335(14) 0.0702(14) 0.1468(12) 0.0494 Uani
C22 C 0.8163(12) 0.0583(12) 0.1534(13) 0.0522 Uani
H17 H 0.8376 0.0943 0.1229 0.0630 Uiso
C25 C 0.7078(16) 0.0077(15) 0.1887(13) 0.0573 Uani
H20 H 0.6517 0.0103 0.1846 0.0680 Uiso
S9 S 0.9628(3) 0.2444(3) 0.7080(3) 0.0468 Uani
O3 O 0.9742(10) 0.3835(11) 0.5694(9) 0.0610 Uani
N21 N 0.9187(9) 0.3620(9) 0.8281(8) 0.0388 Uani
C51 C 0.977(2) 0.1034(17) 0.513(2) 0.0964 Uani
H39 H 0.9492 0.1368 0.4701 0.1160 Uiso
C52 C 0.996(2) 0.1332(18) 0.564(2) 0.0964 Uani
H40 H 0.9707 0.1909 0.5570 0.1160 Uiso
H66 H 0.2113 0.0131 0.0745 0.0450 Uiso
C85 C 0.2901(12) 0.0308(11) 0.0008(10) 0.0364 Uani
H30 H 0.7887 0.9869 0.9255 0.0450 Uiso
C38 C 0.7099(12) 0.9692(11) 0.9992(10) 0.0364 Uani
C75 C 0.7273(14) 0.4850(14) 0.9500(11) 0.0476 Uani
C76 C 0.6390(13) 0.5177(15) 0.9334(12) 0.0562 Uani
H59 H 0.6186 0.5100 0.8940 0.0680 Uiso
C77 C 0.5858(13) 0.5587(16) 0.9726(12) 0.0555 Uani
H60 H 0.5271 0.5769 0.9609 0.0660 Uiso
C78 C 0.7928(11) 0.4417(12) 0.9087(10) 0.0419 Uani
C79 C 0.8655(14) 0.4573(14) 0.8971(13) 0.0509 Uani
H61 H 0.8740 0.4957 0.9169 0.0610 Uiso
C80 C 0.9262(14) 0.4177(12) 0.8568(10) 0.0455 Uani
H62 H 0.9754 0.4302 0.8490 0.0550 Uiso
C81 C 0.8486(13) 0.3467(13) 0.8399(10) 0.0435 Uani
H63 H 0.8426 0.3063 0.8214 0.0520 Uiso
C82 C 0.7844(13) 0.3863(12) 0.8774(12) 0.0477 Uani
H64 H 0.7341 0.3755 0.8818 0.0570 Uiso
loop_
_atom_site_aniso_label
_atom_site_aniso_U_11
_atom_site_aniso_U_22
_atom_site_aniso_U_33
_atom_site_aniso_U_23
_atom_site_aniso_U_13
_atom_site_aniso_U_12
Mo3 0.0281 0.046 0.045 -0.0109 0.0041 -0.0113
Cu7 0.0364 0.0477 0.082 -0.0265 0.0056 -0.0135
Cu8 0.0271 0.0373 0.047 -0.006 0.0044 -0.0079
Cu11 0.0302 0.0462 0.0409 -0.0009 0.0024 -0.0145
Cu15 0.0547 0.0632 0.0438 -0.016 0.0178 -0.038
S10 0.033 0.061 0.064 -0.025 0.012 -0.012
S11 0.037 0.036 0.049 -0.006 0.004 -0.013
N12 0.096 0.052 0.14 -0.035 -0.034 -0.015
N13 0.059 0.033 0.058 -0.007 0.024 -0.023
N15 0.031 0.062 0.035 0.011 -0.001 -0.022
N18 0.03 0.03 0.11 -0.009 0.004 -0.004
N24 0.042 0.047 0.044 -0.002 0.016 -0.01
N26 0.029 0.055 0.046 -0.001 0.009 -0.017
C48 0.096 0.052 0.14 -0.035 -0.034 -0.015
C50 0.096 0.052 0.14 -0.035 -0.034 -0.015
C53 0.047 0.073 0.052 -0.002 0.005 -0.035
C54 0.04 0.067 0.045 0.018 -0.001 -0.019
C55 0.068 0.053 0.061 -0.006 0.019 -0.034
C56 0.047 0.11 0.12 0.04 0.035 -0.007
C57 0.08 0.07 0.17 0.01 0.08 -0.022
C58 0.053 0.056 0.058 -0.009 0.021 -0.033
C59 0.052 0.12 0.063 0.034 -0.015 -0.053
C60 0.076 0.11 0.067 0.036 0 -0.062
C61 0.049 0.09 0.046 0.016 0.006 -0.027
C62 0.056 0.068 0.054 0.009 0.007 -0.034
C70 0.032 0.048 0.12 0.001 -0.005 -0.023
C71 0.07 0.041 0.066 -0.013 0.01 -0.031
Cu19 0.0355 0.0757 0.0354 -0.0205 0.0051 -0.0225
N16 0.047 0.076 0.025 -0.014 0.008 -0.025
C63 0.041 0.056 0.051 -0.02 -0.012 -0.018
N6 0.033 0.086 0.027 -0.017 -0.004 -0.019
C26 0.046 0.075 0.045 -0.005 -0.01 -0.034
C27 0.032 0.035 0.044 -0.019 -0.012 0.001
Cu16 0.0355 0.0757 0.0354 -0.0205 0.0051 -0.0225
S13 0.05 0.064 0.05 -0.025 0.014 -0.034
S18 0.038 0.067 0.035 -0.004 0.005 -0.027
N17 0.047 0.076 0.025 -0.014 0.008 -0.025
N8 0.027 0.043 0.04 0.007 -0.006 -0.009
C16 0.041 0.056 0.051 -0.02 -0.012 -0.018
C36 0.026 0.054 0.029 -0.012 0.007 -0.022
C37 0.033 0.049 0.039 -0.018 0.014 -0.024
C40 0.027 0.091 0.042 -0.007 -0.004 -0.032
Mo4 0.0567 0.0643 0.0311 -0.0073 0.0029 -0.0394
Cu13 0.0547 0.0632 0.0438 -0.016 0.0178 -0.038
Cu20 0.0315 0.0551 0.0387 0.0027 -0.0047 -0.0209
S15 0.086 0.078 0.031 -0.014 0.016 -0.058
S19 0.03 0.04 0.064 -0.002 -0.006 -0.013
S20 0.05 0.075 0.131 -0.002 -0.001 -0.036
O4 0.087 0.073 0.048 0.002 -0.01 -0.053
N14 0.059 0.033 0.058 -0.007 0.024 -0.023
N27 0.058 0.067 0.047 -0.005 0.012 -0.043
C86 0.031 0.052 0.029 0.005 -0.001 -0.017
C88 0.026 0.039 0.039 -0.013 0.013 -0.016
C89 0.045 0.039 0.045 -0.004 0.012 -0.021
C90 0.025 0.028 0.07 0.007 0.005 -0.014
C91 0.021 0.043 0.049 -0.011 0.001 -0.01
C92 0.04 0.033 0.04 -0.005 0.009 -0.025
C93 0.041 0.037 0.038 -0.017 0.007 -0.016
C94 0.09 0.09 0.062 -0.037 0.048 -0.07
Mo1 0.0281 0.046 0.045 -0.0109 0.0041 -0.0113
Cu1 0.0364 0.0477 0.082 -0.0265 0.0056 -0.0135
Cu2 0.0271 0.0373 0.047 -0.006 0.0044 -0.0079
Cu3 0.0302 0.0462 0.0409 -0.0009 0.0024 -0.0145
Cu6 0.0315 0.0551 0.0387 0.0027 -0.0047 -0.0209
S2 0.033 0.061 0.064 -0.025 0.012 -0.012
S3 0.037 0.036 0.049 -0.006 0.004 -0.013
S7 0.03 0.04 0.064 -0.002 -0.006 -0.013
N1 0.096 0.052 0.14 -0.035 -0.034 -0.015
N3 0.031 0.062 0.035 0.011 -0.001 -0.022
N5 0.03 0.03 0.11 -0.009 0.004 -0.004
N9 0.042 0.047 0.044 -0.002 0.016 -0.01
N10 0.029 0.055 0.046 -0.001 0.009 -0.017
C1 0.096 0.052 0.14 -0.035 -0.034 -0.015
C3 0.096 0.052 0.14 -0.035 -0.034 -0.015
C6 0.047 0.073 0.052 -0.002 0.005 -0.035
C7 0.04 0.067 0.045 0.018 -0.001 -0.019
C8 0.068 0.053 0.061 -0.006 0.019 -0.034
C9 0.047 0.11 0.12 0.04 0.035 -0.007
C10 0.08 0.07 0.17 0.01 0.08 -0.022
C11 0.053 0.056 0.058 -0.009 0.021 -0.033
C12 0.052 0.12 0.063 0.034 -0.015 -0.053
C13 0.076 0.11 0.067 0.036 0 -0.062
C14 0.049 0.09 0.046 0.016 0.006 -0.027
C15 0.056 0.068 0.054 0.009 0.007 -0.034
C23 0.032 0.048 0.12 0.001 -0.005 -0.023
C24 0.07 0.041 0.066 -0.013 0.01 -0.031
C39 0.031 0.052 0.029 0.005 -0.001 -0.017
C41 0.026 0.039 0.039 -0.013 0.013 -0.016
C42 0.045 0.039 0.045 -0.004 0.012 -0.021
C43 0.025 0.028 0.07 0.007 0.005 -0.014
C44 0.021 0.043 0.049 -0.011 0.001 -0.01
C45 0.04 0.033 0.04 -0.005 0.009 -0.025
C46 0.041 0.037 0.038 -0.017 0.007 -0.016
Mo5 0.0567 0.0643 0.0311 -0.0073 0.0029 -0.0394
S14 0.086 0.078 0.031 -0.014 0.016 -0.058
S16 0.038 0.067 0.035 -0.004 0.005 -0.027
N22 0.027 0.043 0.04 0.007 -0.006 -0.009
C83 0.026 0.054 0.029 -0.012 0.007 -0.022
C84 0.033 0.049 0.039 -0.018 0.014 -0.024
C87 0.027 0.091 0.042 -0.007 -0.004 -0.032
S4 0.05 0.064 0.05 -0.025 0.014 -0.034
S8 0.05 0.075 0.131 -0.002 -0.001 -0.036
O2 0.087 0.073 0.048 0.002 -0.01 -0.053
N11 0.058 0.067 0.047 -0.005 0.012 -0.043
C47 0.09 0.09 0.062 -0.037 0.048 -0.07
N19 0.033 0.086 0.027 -0.017 -0.004 -0.019
C73 0.046 0.075 0.045 -0.005 -0.01 -0.034
C74 0.032 0.035 0.044 -0.019 -0.012 0.001
S1 0.028 0.044 0.066 -0.011 0.002 -0.013
O1 0.041 0.077 0.053 -0.002 0.004 -0.019
N7 0.027 0.035 0.048 -0.007 0.008 -0.008
C4 0.096 0.052 0.14 -0.035 -0.034 -0.015
C5 0.096 0.052 0.14 -0.035 -0.034 -0.015
C28 0.048 0.062 0.04 -0.008 0.002 -0.032
C29 0.033 0.068 0.054 -0.012 -0.004 -0.006
C30 0.023 0.082 0.055 -0.019 0.009 -0.013
C31 0.024 0.048 0.05 -0.006 -0.004 -0.013
C32 0.032 0.06 0.064 -0.022 0.009 -0.018
C33 0.043 0.045 0.043 0.001 0.004 -0.019
C34 0.045 0.052 0.046 -0.021 0.005 -0.027
C35 0.032 0.043 0.069 -0.015 0.018 -0.017
C49 0.096 0.052 0.14 -0.035 -0.034 -0.015
C64 0.029 0.06 0.072 -0.036 0.02 -0.028
C65 0.027 0.052 0.062 -0.015 -0.003 -0.019
C66 0.046 0.079 0.051 -0.037 0.019 -0.03
C67 0.023 0.091 0.051 -0.028 0.007 -0.012
C68 0.041 0.054 0.065 -0.027 -0.001 -0.023
C69 0.033 0.04 0.069 0.004 -0.002 -0.009
C72 0.05 0.059 0.077 -0.022 -0.005 -0.032
C2 0.096 0.052 0.14 -0.035 -0.034 -0.015
C17 0.029 0.06 0.072 -0.036 0.02 -0.028
C18 0.027 0.052 0.062 -0.015 -0.003 -0.019
C19 0.046 0.079 0.051 -0.037 0.019 -0.03
C20 0.023 0.091 0.051 -0.028 0.007 -0.012
C21 0.041 0.054 0.065 -0.027 -0.001 -0.023
C22 0.033 0.04 0.069 0.004 -0.002 -0.009
C25 0.05 0.059 0.077 -0.022 -0.005 -0.032
S9 0.028 0.044 0.066 -0.011 0.002 -0.013
O3 0.041 0.077 0.053 -0.002 0.004 -0.019
N21 0.027 0.035 0.048 -0.007 0.008 -0.008
C51 0.096 0.052 0.14 -0.035 -0.034 -0.015
C52 0.096 0.052 0.14 -0.035 -0.034 -0.015
C85 0.035 0.033 0.045 -0.009 0.004 -0.018
C38 0.035 0.033 0.045 -0.009 0.004 -0.018
C75 0.048 0.062 0.04 -0.008 0.002 -0.032
C76 0.033 0.068 0.054 -0.012 -0.004 -0.006
C77 0.023 0.082 0.055 -0.019 0.009 -0.013
C78 0.024 0.048 0.05 -0.006 -0.004 -0.013
C79 0.032 0.06 0.064 -0.022 0.009 -0.018
C80 0.043 0.045 0.043 0.001 0.004 -0.019
C81 0.045 0.052 0.046 -0.021 0.005 -0.027
C82 0.032 0.043 0.069 -0.015 0.018 -0.017
loop_
_geom_bond_atom_site_label_1
_geom_bond_atom_site_label_2
_geom_bond_site_symmetry_1
_geom_bond_site_symmetry_2
Cu11 S10 1_555 1_555
Cu15 N13 1_555 1_555
S10 Mo3 1_555 1_555
S11 Mo3 1_555 1_555
N12 Cu7 1_555 1_555
N13 C53 1_555 1_555
N15 Cu11 1_555 1_555
N18 Cu7 1_555 1_555
N24 Cu8 1_555 1_555
N26 Cu11 1_555 1_555
C48 N12 1_555 1_555
C53 H41 1_555 1_555
C54 C53 1_555 1_555
H42 C54 1_555 1_555
C55 C54 1_555 1_555
C56 C55 1_555 1_555
H43 C56 1_555 1_555
C57 N13 1_555 1_555
H44 C57 1_555 1_555
C58 C55 1_555 1_555
C59 C58 1_555 1_555
H45 C59 1_555 1_555
C60 N15 1_555 1_555
H46 C60 1_555 1_555
C61 N15 1_555 1_555
H47 C61 1_555 1_555
C62 C58 1_555 1_555
H48 C62 1_555 1_555
C70 N18 1_555 1_555
H54 C70 1_555 1_555
C71 N18 1_555 1_555
H55 C71 1_555 1_555
Cu7 S10 1_555 1_555
Cu8 S11 1_555 1_555
Cu11 S11 1_555 1_555
C56 C57 1_555 1_555
C59 C60 1_555 1_555
C61 C62 1_555 1_555
Cu19 N16 1_555 1_555
N16 C63 1_555 1_555
C63 H49 1_555 1_555
N6 C26 1_555 1_555
C26 H21 1_555 1_555
C27 C26 1_555 1_555
H22 C27 1_555 1_555
Cu16 N6 1_555 1_555
S13 Cu16 1_555 1_555
S18 Cu16 1_555 1_555
N17 Cu16 1_555 1_555
S18 Mo4 1_555 1_555
N8 C36 1_555 1_555
C16 N17 1_555 1_555
H13 C16 1_555 1_555
C36 H29 1_555 1_555
C37 C36 1_555 1_555
C40 N8 1_555 1_555
H32 C40 1_555 1_555
Mo4 S13 1_555 1_555
Cu13 S13 1_555 1_555
Cu20 S18 1_555 1_555
S15 Mo4 1_555 1_555
S19 Cu20 1_555 1_555
S20 C94 1_555 1_555
O4 Mo4 1_555 1_555
N14 Cu13 1_555 1_555
N24 C90 1_555 1_555
N26 C93 1_555 1_555
N27 Cu13 1_555 1_555
H67 C86 1_555 1_555
C89 C88 1_555 1_555
H69 C89 1_555 1_555
C90 C89 1_555 1_555
H70 C90 1_555 1_555
C91 N24 1_555 1_555
H71 C91 1_555 1_555
C92 C88 1_555 1_555
H72 C92 1_555 1_555
C93 S19 1_555 1_555
C94 N27 1_555 1_555
N8 Cu20 1_555 1_555
Cu13 S15 1_555 1_555
Cu20 S15 1_555 1_555
C91 C92 1_555 1_555
Cu3 S2 1_555 1_555
Cu6 S7 1_555 1_555
S2 Mo1 1_555 1_555
S3 Mo1 1_555 1_555
S7 C46 1_555 1_555
N1 Cu1 1_555 1_555
N3 Cu3 1_555 1_555
N5 Cu1 1_555 1_555
N9 Cu2 1_555 1_555
N10 Cu3 1_555 1_555
C1 N1 1_555 1_555
C6 N14 1_555 1_555
H5 C6 1_555 1_555
C7 C6 1_555 1_555
H6 C7 1_555 1_555
C8 C7 1_555 1_555
C9 C8 1_555 1_555
H7 C9 1_555 1_555
C10 N14 1_555 1_555
H8 C10 1_555 1_555
C11 C8 1_555 1_555
C12 C11 1_555 1_555
H9 C12 1_555 1_555
C13 N3 1_555 1_555
H10 C13 1_555 1_555
C14 N3 1_555 1_555
H11 C14 1_555 1_555
C15 C11 1_555 1_555
H12 C15 1_555 1_555
C23 N5 1_555 1_555
H18 C23 1_555 1_555
C24 N5 1_555 1_555
H19 C24 1_555 1_555
H31 C39 1_555 1_555
C42 C41 1_555 1_555
H33 C42 1_555 1_555
C43 N9 1_555 1_555
H34 C43 1_555 1_555
C44 N9 1_555 1_555
H35 C44 1_555 1_555
C45 C41 1_555 1_555
H36 C45 1_555 1_555
C46 N10 1_555 1_555
Mo5 S14 1_555 1_555
Cu15 S14 1_555 1_555
Cu19 S16 1_555 1_555
S14 Cu6 1_555 1_555
S16 Cu6 1_555 1_555
N22 Cu6 1_555 1_555
C83 N22 1_555 1_555
H65 C83 1_555 1_555
C84 C83 1_555 1_555
C87 N22 1_555 1_555
H68 C87 1_555 1_555
Cu1 S2 1_555 1_555
Cu2 S3 1_555 1_555
Cu3 S3 1_555 1_555
C9 C10 1_555 1_555
C12 C13 1_555 1_555
C14 C15 1_555 1_555
C42 C43 1_555 1_555
C44 C45 1_555 1_555
Mo5 S16 1_555 1_555
Mo5 S4 1_555 1_555
Cu15 S4 1_555 1_555
S4 Cu19 1_555 1_555
S8 C47 1_555 1_555
O2 Mo5 1_555 1_555
N11 Cu15 1_555 1_555
C47 N11 1_555 1_555
N19 Cu19 1_555 1_555
C73 N19 1_555 1_555
H57 C73 1_555 1_555
C74 C73 1_555 1_555
H58 C74 1_555 1_555
H3 C4 1_555 1_555
H4 C5 1_555 1_555
C29 C28 1_555 1_555
H23 C29 1_555 1_555
H24 C30 1_555 1_555
C31 C28 1_555 1_555
C32 C31 1_555 1_555
H25 C32 1_555 1_555
C33 N7 1_555 1_555
H26 C33 1_555 1_555
C34 N7 1_555 1_555
H27 C34 1_555 1_555
C35 C31 1_555 1_555
H28 C35 1_555 1_555
H38 C49 1_555 1_555
H50 C64 1_555 1_555
C65 C64 1_555 1_555
C66 C65 1_555 1_555
H51 C66 1_555 1_555
H52 C67 1_555 1_555
C68 C65 1_555 1_555
C69 C68 1_555 1_555
H53 C69 1_555 1_555
C72 C68 1_555 1_555
H56 C72 1_555 1_555
C4 C5 1_555 1_555
C29 C30 1_555 1_555
C32 C33 1_555 1_555
C34 C35 1_555 1_555
C66 C67 1_555 1_555
H2 C2 1_555 1_555
H14 C17 1_555 1_555
C18 C17 1_555 1_555
C19 C18 1_555 1_555
H15 C19 1_555 1_555
H16 C20 1_555 1_555
C21 C18 1_555 1_555
C22 C21 1_555 1_555
H17 C22 1_555 1_555
C25 C21 1_555 1_555
H20 C25 1_555 1_555
H39 C51 1_555 1_555
H40 C52 1_555 1_555
C19 C20 1_555 1_555
C51 C52 1_555 1_555
N21 C80 1_555 1_555
C76 C75 1_555 1_555
H59 C76 1_555 1_555
H60 C77 1_555 1_555
C78 C75 1_555 1_555
C79 C78 1_555 1_555
H61 C79 1_555 1_555
C80 C79 1_555 1_555
H62 C80 1_555 1_555
C81 N21 1_555 1_555
H63 C81 1_555 1_555
C82 C78 1_555 1_555
H64 C82 1_555 1_555
C76 C77 1_555 1_555
C81 C82 1_555 1_555

#END
