
###############################################################################
#
# This file contains modified crystal structure data generated from the
# MOF subset of the Cambridge Structural Database (CSD) v543 
# hosted by the Cambridge Crystallographic Data Centre (CCDC).
#
# This work is licensed under the Creative Commons
# Attribution-NonCommercial-ShareAlike 4.0 International License.
# To view a copy of this license, visit
# http://creativecommons.org/licenses/by-nc-sa/4.0/
# or send a letter to
# Creative Commons, PO Box 1866, Mountain View, CA 94042, USA.
#
# CIF created using the CSD Python API on 29 September 2022
# The structure has been converted into the P1 space group
# The structure has a 3D framework
# The original CSD entry COYCEZ is in the monoclinic crystal system
# The framework has been calculated to contain at least 10.0% void space
# The void calculation uses a probe of radius 1.32A, grid spacing 0.4
#
###############################################################################

data_COYCEZ
_chemical_formula_moiety         '(C104 H80 Cu12 Mo4 N24 O4 S15)n'
_symmetry_cell_setting           triclinic
_symmetry_space_group_name_H-M   'P 1'
_symmetry_Int_Tables_number      1
_space_group_name_Hall           'P 1'
loop_
_symmetry_equiv_pos_site_id
_symmetry_equiv_pos_as_xyz
1 x,y,z
_cell_length_a                   9.9998(17)
_cell_length_b                   27.294(3)
_cell_length_c                   17.664(3)
_cell_angle_alpha                90
_cell_angle_beta                 100.510(9)
_cell_angle_gamma                90
_cell_volume                     4740.23
loop_
_atom_site_label
_atom_site_type_symbol
_atom_site_fract_x
_atom_site_fract_y
_atom_site_fract_z
S6 S 0.15600(18) 0.16642(7) 0.27583(10)
Cu2 Cu 0.88469(9) 0.45045(3) 0.81947(5)
Cu3 Cu 0.94581(9) 0.34212(3) 0.70163(5)
S2 S 0.80778(17) 0.37502(7) 0.77712(10)
N1 N 0.7526(6) 0.4759(2) 0.8868(3)
N4 N 0.8999(6) 0.4951(2) 0.7289(4)
C2 C 0.7691(8) 0.4625(4) 0.9602(5)
H1 H 0.8509 0.4461 0.9821
C4 C 0.5531(7) 0.4952(3) 0.9762(4)
C5 C 0.5383(9) 0.5094(4) 0.9005(5)
H3 H 0.4583 0.5261 0.8767
C6 C 0.6395(9) 0.4994(4) 0.8587(5)
H4 H 0.6266 0.5101 0.8067
C17 C 0.8035(8) 0.4987(4) 0.6660(5)
H13 H 0.7185 0.4833 0.6663
C18 C 0.8213(9) 0.5242(4) 0.5996(5)
H14 H 0.7486 0.5268 0.5569
C19 C 0.9466(7) 0.5458(3) 0.5968(4)
C22 C 0.9747(7) 0.5710(3) 0.5276(4)
C23 C 0.9015(8) 0.5613(3) 0.4554(5)
H17 H 0.8295 0.5381 0.4489
C24 C 0.9338(8) 0.5858(3) 0.3920(4)
H18 H 0.8824 0.5783 0.3427
Mo2 Mo 0.01573(6) 0.13556(2) 0.35121(3)
Cu4 Cu 0.24595(9) 0.09216(3) 0.32374(5)
S10 S 0.09444(18) 0.06050(6) 0.39394(10)
O2 O 0.0071(6) 0.1733(2) 0.4278(3)
N8 N 0.8440(6) 0.2815(2) 0.6495(3)
N9 N 0.4124(6) 0.1168(2) 0.4085(3)
N12 N 0.9679(6) 0.3811(2) 0.6038(3)
N14 N 0.3245(7) 0.0486(3) 0.2558(4)
C27 C 0.3631(8) 0.0203(4) 0.2168(5)
C29 C 0.3271(8) 0.5289(3) 0.9928(4)
H22 H 0.3107 0.5393 0.9406
C33 C 0.7119(9) 0.2750(4) 0.6529(5)
H25 H 0.6722 0.2949 0.6871
C34 C 0.6320(8) 0.2407(3) 0.6089(6)
H26 H 0.5389 0.2375 0.6130
C35 C 0.6857(7) 0.2109(3) 0.5591(5)
C36 C 0.8239(8) 0.2164(3) 0.5568(5)
H27 H 0.8664 0.1963 0.5241
C37 C 0.8969(8) 0.2514(3) 0.6029(5)
H28 H 0.9911 0.2545 0.6015
C38 C 0.5971(7) 0.1760(3) 0.5076(4)
C39 C 0.6176(8) 0.1645(3) 0.4347(5)
H29 H 0.6956 0.1765 0.4172
C40 C 0.5245(8) 0.1353(3) 0.3868(5)
H30 H 0.5406 0.1280 0.3366
C41 C 0.3980(7) 0.1257(3) 0.4802(4)
H31 H 0.3223 0.1114 0.4975
C42 C 0.4852(8) 0.1542(3) 0.5313(4)
H32 H 0.4696 0.1589 0.5823
C46 C 0.9549(8) 0.4576(3) 0.3365(4)
H35 H 0.8688 0.4425 0.3346
C47 C 0.9817(8) 0.4827(3) 0.2734(5)
H36 H 0.9122 0.4843 0.2289
C51 C 0.8976(10) 0.3712(4) 0.5323(5)
H39 H 0.8294 0.3466 0.5268
C52 C 0.9200(11) 0.3950(4) 0.4675(5)
H40 H 0.8637 0.3884 0.4192
S12 S 0.4187(3) 0.97899(13) 0.1617(2)
Mo3 Mo 0.98427(6) 0.63556(2) 0.14879(3)
S11 S 0.90556(18) 0.56050(6) 0.10606(10)
C23_2 C 0.0985(8) 0.0613(3) 0.0446(5)
H17_2 H 0.1705 0.0381 0.0511
C24_2 C 0.0662(8) 0.0858(3) 0.1080(4)
H18_2 H 0.1176 0.0783 0.1573
Cu4_2 Cu 0.75405(9) 0.59216(3) 0.17626(5)
S5 S 0.84400(18) 0.66642(7) 0.22417(10)
S12_2 S 0.5813(3) 0.47899(13) 0.3383(2)
O2_2 O 0.9929(6) 0.6733(2) 0.0722(3)
N9_2 N 0.5876(6) 0.6168(2) 0.0915(3)
N14_2 N 0.6755(7) 0.5486(3) 0.2442(4)
C27_2 C 0.6369(8) 0.5203(4) 0.2832(5)
C39_2 C 0.3824(8) 0.6645(3) 0.0653(5)
H29_2 H 0.3044 0.6765 0.0828
C40_2 C 0.4755(8) 0.6353(3) 0.1132(5)
H30_2 H 0.4594 0.6280 0.1634
C41_2 C 0.6020(7) 0.6257(3) 0.0198(4)
H31_2 H 0.6777 0.6114 0.0025
C46_2 C 0.0451(8) 0.9576(3) 0.1635(4)
H35_2 H 0.1312 0.9425 0.1654
C47_2 C 0.0183(8) 0.9827(3) 0.2266(5)
H36_2 H 0.0878 0.9843 0.2711
C52_2 C 0.0800(11) 0.8950(4) 0.0325(5)
H40_2 H 0.1363 0.8884 0.0808
N2 N 0.8440(6) 0.2185(2) 0.1495(3)
C7 C 0.7119(9) 0.2250(4) 0.1529(5)
H5 H 0.6722 0.2051 0.1871
C8 C 0.6320(8) 0.2593(3) 0.1089(6)
H6 H 0.5389 0.2625 0.1130
C9 C 0.6857(7) 0.2891(3) 0.0591(5)
C10 C 0.8239(8) 0.2836(3) 0.0568(5)
H7 H 0.8664 0.3037 0.0241
C11 C 0.8969(8) 0.2486(3) 0.1029(5)
H8 H 0.9911 0.2455 0.1015
C12 C 0.5971(7) 0.3240(3) 0.0076(4)
C16 C 0.4852(8) 0.3458(3) 0.0313(4)
H12 H 0.4696 0.3411 0.0823
Cu8 Cu 0.94581(9) 0.15788(3) 0.20163(5)
S8 S 0.80778(17) 0.12498(7) 0.27712(10)
N13 N 0.9679(6) 0.1189(2) 0.1038(3)
Cu7 Cu 0.88469(9) 0.04955(3) 0.31947(5)
C5_2 C 0.4617(9) 0.0094(4) 0.5995(5)
H3_2 H 0.5417 0.0261 0.6233
H4_2 H 0.3734 0.0101 0.6933
C18_2 C 0.1787(9) 0.0242(4) 0.9004(5)
H14_2 H 0.2514 0.0268 0.9431
C19_2 C 0.0534(7) 0.0458(3) 0.9032(4)
C22_2 C 0.0253(7) 0.0710(3) 0.9724(4)
N7 N 0.7526(6) 0.0241(2) 0.3868(3)
N11 N 0.8999(6) 0.0049(2) 0.2289(4)
C28 C 0.7691(8) 0.0375(4) 0.4602(5)
H21 H 0.8509 0.0539 0.4821
C29_2 C 0.6729(8) 0.0289(3) 0.5072(4)
H22_2 H 0.6893 0.0393 0.5594
C30 C 0.5531(7) 0.0048(3) 0.4762(4)
C32 C 0.6395(9) 0.0006(4) 0.3587(5)
C25 C 0.8976(10) 0.1288(4) 0.0323(5)
H19 H 0.8294 0.1534 0.0268
C43 C 0.8035(8) 0.0013(4) 0.1660(5)
H33 H 0.7185 0.0167 0.1663
Mo1 Mo 0.01573(6) 0.36444(2) 0.85121(3)
Cu1 Cu 0.24595(9) 0.40784(3) 0.82374(5)
S1 S 0.15600(18) 0.33358(7) 0.77583(10)
S3 S 0.09444(18) 0.43950(6) 0.89394(10)
S4 S 0.4187(3) 0.52101(13) 0.6617(2)
O1 O 0.0071(6) 0.3267(2) 0.9278(3)
N3 N 0.4124(6) 0.3832(2) 0.9085(3)
N5 N 0.0321(6) 0.6189(2) 0.3962(3)
N6 N 0.3245(7) 0.4514(3) 0.7558(4)
C1 C 0.3631(8) 0.4797(4) 0.7168(5)
C13 C 0.6176(8) 0.3355(3) 0.9347(5)
H9 H 0.6956 0.3235 0.9172
C14 C 0.5245(8) 0.3647(3) 0.8868(5)
H10 H 0.5406 0.3720 0.8366
C15 C 0.3980(7) 0.3743(3) 0.9802(4)
H11 H 0.3223 0.3886 0.9975
C20 C 0.0451(8) 0.5424(3) 0.6635(4)
H15 H 0.1312 0.5575 0.6654
C21 C 0.0183(8) 0.5173(3) 0.7266(5)
H16 H 0.0878 0.5157 0.7711
C25_2 C 0.1024(10) 0.6288(4) 0.4677(5)
H19_2 H 0.1706 0.6534 0.4732
C26 C 0.0800(11) 0.6050(4) 0.5325(5)
H20 H 0.1363 0.6116 0.5808
Cu6 Cu 0.11531(9) 0.54955(3) 0.18053(5)
Cu9 Cu 0.05419(9) 0.65788(3) 0.29837(5)
N10 N 0.1001(6) 0.5049(2) 0.2711(4)
C43_2 C 0.1965(8) 0.5013(4) 0.3340(5)
H33_2 H 0.2815 0.5167 0.3337
C44 C 0.1787(9) 0.4758(4) 0.4004(5)
H34 H 0.2514 0.4732 0.4431
C45 C 0.0534(7) 0.4542(3) 0.4032(4)
C48 C 0.0253(7) 0.4290(3) 0.4724(4)
C49 C 0.0985(8) 0.4387(3) 0.5446(5)
H37 H 0.1705 0.4619 0.5511
C50 C 0.0662(8) 0.4142(3) 0.6080(4)
H38 H 0.1176 0.4217 0.6573
C3 C 0.6729(8) 0.4711(3) 0.0072(4)
H2 H 0.6893 0.4607 0.0594
S7 S 0.19222(17) 0.62498(7) 0.22288(10)
N7_2 N 0.2474(6) 0.5241(2) 0.1132(3)
C28_2 C 0.2309(8) 0.5375(4) 0.0398(5)
H21_2 H 0.1491 0.5539 0.0179
C30_2 C 0.4469(7) 0.5048(3) 0.0238(4)
C31 C 0.4617(9) 0.4906(4) 0.0995(5)
H23 H 0.5417 0.4739 0.1233
C32_2 C 0.3605(9) 0.5006(4) 0.1413(5)
H24 H 0.3734 0.4899 0.1933
S4_2 S 0.5813(3) 0.02101(13) 0.8383(2)
C20_2 C 0.9549(8) 0.0424(3) 0.8365(4)
H15_2 H 0.8688 0.0575 0.8346
C21_2 C 0.9817(8) 0.0173(3) 0.7734(5)
H16_2 H 0.9122 0.0157 0.7289
C26_2 C 0.9200(11) 0.1050(4) 0.9675(5)
H20_2 H 0.8637 0.1116 0.9192
Mo1_2 Mo 0.98427(6) 0.86444(2) 0.64879(3)
Cu1_2 Cu 0.75405(9) 0.90784(3) 0.67626(5)
S1_2 S 0.84400(18) 0.83358(7) 0.72417(10)
S3_2 S 0.90556(18) 0.93950(6) 0.60606(10)
O1_2 O 0.9929(6) 0.8267(2) 0.5722(3)
N2_2 N 0.1560(6) 0.7185(2) 0.3505(3)
N3_2 N 0.5876(6) 0.8832(2) 0.5915(3)
N6_2 N 0.6755(7) 0.9514(3) 0.7442(4)
C1_2 C 0.6369(8) 0.9797(4) 0.7832(5)
C7_2 C 0.2881(9) 0.7250(4) 0.3471(5)
H5_2 H 0.3278 0.7051 0.3129
C8_2 C 0.3680(8) 0.7593(3) 0.3911(6)
H6_2 H 0.4611 0.7625 0.3870
C9_2 C 0.3143(7) 0.7891(3) 0.4409(5)
C10_2 C 0.1761(8) 0.7836(3) 0.4432(5)
H7_2 H 0.1336 0.8037 0.4759
C11_2 C 0.1031(8) 0.7486(3) 0.3971(5)
H8_2 H 0.0089 0.7455 0.3985
C12_2 C 0.4029(7) 0.8240(3) 0.4924(4)
C13_2 C 0.3824(8) 0.8355(3) 0.5653(5)
H9_2 H 0.3044 0.8235 0.5828
C14_2 C 0.4755(8) 0.8647(3) 0.6132(5)
H10_2 H 0.4594 0.8720 0.6634
C15_2 C 0.6020(7) 0.8743(3) 0.5198(4)
H11_2 H 0.6777 0.8886 0.5025
C16_2 C 0.5148(8) 0.8458(3) 0.4687(4)
H12_2 H 0.5304 0.8411 0.4177
C49_2 C 0.9015(8) 0.9387(3) 0.9554(5)
H37_2 H 0.8295 0.9619 0.9489
C50_2 C 0.9338(8) 0.9142(3) 0.8920(4)
H38_2 H 0.8824 0.9217 0.8427
Cu2_2 Cu 0.11531(9) 0.95045(3) 0.68053(5)
Cu3_2 Cu 0.05419(9) 0.84212(3) 0.79837(5)
S2_2 S 0.19222(17) 0.87502(7) 0.72288(10)
N1_2 N 0.2474(6) 0.9759(2) 0.6132(3)
N4_2 N 0.1001(6) 0.9951(2) 0.7711(4)
C2_2 C 0.2309(8) 0.9625(4) 0.5398(5)
H1_2 H 0.1491 0.9461 0.5179
C3_2 C 0.3271(8) 0.9711(3) 0.4928(4)
H2_2 H 0.3107 0.9607 0.4406
C4_2 C 0.4469(7) 0.9952(3) 0.5238(4)
C6_2 C 0.3605(9) 0.9994(4) 0.6413(5)
C17_2 C 0.1965(8) 0.9987(4) 0.8340(5)
H13_2 H 0.2815 0.9833 0.8337
N8_2 N 0.1560(6) 0.7815(2) 0.8505(3)
N12_2 N 0.0321(6) 0.8811(2) 0.8962(3)
C31_2 C 0.5383(9) 0.9906(4) 0.4005(5)
H23_2 H 0.4583 0.9739 0.3767
H24_2 H 0.6266 0.9899 0.3067
C33_2 C 0.2881(9) 0.7750(4) 0.8471(5)
H25_2 H 0.3278 0.7949 0.8129
C34_2 C 0.3680(8) 0.7407(3) 0.8911(6)
H26_2 H 0.4611 0.7375 0.8870
C35_2 C 0.3143(7) 0.7109(3) 0.9409(5)
C36_2 C 0.1761(8) 0.7164(3) 0.9432(5)
H27_2 H 0.1336 0.6963 0.9759
C37_2 C 0.1031(8) 0.7514(3) 0.8971(5)
H28_2 H 0.0089 0.7545 0.8985
C38_2 C 0.4029(7) 0.6760(3) 0.9924(4)
C42_2 C 0.5148(8) 0.6542(3) 0.9687(4)
H32_2 H 0.5304 0.6589 0.9177
C51_2 C 0.1024(10) 0.8712(4) 0.9677(5)
H39_2 H 0.1706 0.8466 0.9732
C44_2 C 0.8213(9) 0.9758(4) 0.0996(5)
H34_2 H 0.7486 0.9732 0.0569
C45_2 C 0.9466(7) 0.9542(3) 0.0968(4)
C48_2 C 0.9747(7) 0.9290(3) 0.0276(4)
loop_
_geom_bond_atom_site_label_1
_geom_bond_atom_site_label_2
_geom_bond_site_symmetry_1
_geom_bond_site_symmetry_2
Cu2 S2 1_555 1_555
N1 Cu2 1_555 1_555
N4 Cu2 1_555 1_555
C2 N1 1_555 1_555
H1 C2 1_555 1_555
C5 C4 1_555 1_555
H3 C5 1_555 1_555
C6 N1 1_555 1_555
H4 C6 1_555 1_555
C17 N4 1_555 1_555
H13 C17 1_555 1_555
C18 C17 1_555 1_555
H14 C18 1_555 1_555
C19 C18 1_555 1_555
C22 C19 1_555 1_555
C23 C22 1_555 1_555
H17 C23 1_555 1_555
C24 C23 1_555 1_555
H18 C24 1_555 1_555
Mo2 S6 1_555 1_555
Cu4 S6 1_555 1_555
S10 Mo2 1_555 1_555
O2 Mo2 1_555 1_555
N8 Cu3 1_555 1_555
N9 Cu4 1_555 1_555
N12 Cu3 1_555 1_555
N14 Cu4 1_555 1_555
C27 N14 1_555 1_555
H22 C29 1_555 1_555
C33 N8 1_555 1_555
H25 C33 1_555 1_555
C34 C33 1_555 1_555
H26 C34 1_555 1_555
C35 C34 1_555 1_555
C36 C35 1_555 1_555
H27 C36 1_555 1_555
C37 N8 1_555 1_555
H28 C37 1_555 1_555
C38 C35 1_555 1_555
C39 C38 1_555 1_555
H29 C39 1_555 1_555
C40 N9 1_555 1_555
H30 C40 1_555 1_555
C41 N9 1_555 1_555
H31 C41 1_555 1_555
C42 C38 1_555 1_555
H32 C42 1_555 1_555
H35 C46 1_555 1_555
H36 C47 1_555 1_555
C51 N12 1_555 1_555
H39 C51 1_555 1_555
H40 C52 1_555 1_555
Cu3 S2 1_555 1_555
C5 C6 1_555 1_555
Cu4 S10 1_555 1_555
C36 C37 1_555 1_555
C39 C40 1_555 1_555
C41 C42 1_555 1_555
C46 C47 1_555 1_555
C51 C52 1_555 1_555
S11 Mo3 1_555 1_555
H17_2 C23_2 1_555 1_555
C24_2 C23_2 1_555 1_555
H18_2 C24_2 1_555 1_555
Mo3 S5 1_555 1_555
Cu4_2 S5 1_555 1_555
S12_2 C27_2 1_555 1_555
O2_2 Mo3 1_555 1_555
N9_2 Cu4_2 1_555 1_555
N14_2 Cu4_2 1_555 1_555
C27_2 N14_2 1_555 1_555
H29_2 C39_2 1_555 1_555
C40_2 N9_2 1_555 1_555
H30_2 C40_2 1_555 1_555
C41_2 N9_2 1_555 1_555
H31_2 C41_2 1_555 1_555
H35_2 C46_2 1_555 1_555
H36_2 C47_2 1_555 1_555
H40_2 C52_2 1_555 1_555
Cu4_2 S11 1_555 1_555
C39_2 C40_2 1_555 1_555
C46_2 C47_2 1_555 1_555
N2 C7 1_555 1_555
C7 H5 1_555 1_555
C8 C7 1_555 1_555
H6 C8 1_555 1_555
C9 C8 1_555 1_555
C10 C9 1_555 1_555
H7 C10 1_555 1_555
C11 N2 1_555 1_555
H8 C11 1_555 1_555
C12 C9 1_555 1_555
C16 C12 1_555 1_555
H12 C16 1_555 1_555
Cu8 N2 1_555 1_555
S8 Cu8 1_555 1_555
N13 Cu8 1_555 1_555
C10 C11 1_555 1_555
Cu7 S8 1_555 1_555
H3_2 C5_2 1_555 1_555
H14_2 C18_2 1_555 1_555
C19_2 C18_2 1_555 1_555
C22_2 C19_2 1_555 1_555
N7 Cu7 1_555 1_555
N11 Cu7 1_555 1_555
C28 N7 1_555 1_555
H21 C28 1_555 1_555
C29_2 C28 1_555 1_555
H22_2 C29_2 1_555 1_555
C32 N7 1_555 1_555
C29_2 C30 1_555 1_555
C25 N13 1_555 1_555
H19 C25 1_555 1_555
N11 C43 1_555 1_555
C43 H33 1_555 1_555
Mo1 S1 1_555 1_555
Cu1 S1 1_555 1_555
S3 Mo1 1_555 1_555
S4 C1 1_555 1_555
O1 Mo1 1_555 1_555
N3 Cu1 1_555 1_555
N6 Cu1 1_555 1_555
C1 N6 1_555 1_555
H9 C13 1_555 1_555
C14 N3 1_555 1_555
H10 C14 1_555 1_555
C15 N3 1_555 1_555
H11 C15 1_555 1_555
H15 C20 1_555 1_555
H16 C21 1_555 1_555
C25_2 N5 1_555 1_555
H19_2 C25_2 1_555 1_555
H20 C26 1_555 1_555
Cu6 N10 1_555 1_555
Cu9 N5 1_555 1_555
N10 C43_2 1_555 1_555
C43_2 H33_2 1_555 1_555
C44 C43_2 1_555 1_555
H34 C44 1_555 1_555
C45 C44 1_555 1_555
C48 C45 1_555 1_555
C49 C48 1_555 1_555
H37 C49 1_555 1_555
H38 C50 1_555 1_555
Cu1 S3 1_555 1_555
C13 C14 1_555 1_555
C20 C21 1_555 1_555
C25_2 C26 1_555 1_555
C49 C50 1_555 1_555
H2 C3 1_555 1_555
Cu6 S7 1_555 1_555
Cu9 S7 1_555 1_555
N7_2 Cu6 1_555 1_555
C28_2 N7_2 1_555 1_555
H21_2 C28_2 1_555 1_555
C31 C30_2 1_555 1_555
H23 C31 1_555 1_555
C32_2 N7_2 1_555 1_555
H24 C32_2 1_555 1_555
C31 C32_2 1_555 1_555
H15_2 C20_2 1_555 1_555
H16_2 C21_2 1_555 1_555
H20_2 C26_2 1_555 1_555
C20_2 C21_2 1_555 1_555
Mo1_2 S1_2 1_555 1_555
Cu1_2 S1_2 1_555 1_555
S3_2 Mo1_2 1_555 1_555
O1_2 Mo1_2 1_555 1_555
N2_2 C7_2 1_555 1_555
N3_2 Cu1_2 1_555 1_555
N6_2 Cu1_2 1_555 1_555
C1_2 N6_2 1_555 1_555
C7_2 H5_2 1_555 1_555
C8_2 C7_2 1_555 1_555
H6_2 C8_2 1_555 1_555
C9_2 C8_2 1_555 1_555
C10_2 C9_2 1_555 1_555
H7_2 C10_2 1_555 1_555
C11_2 N2_2 1_555 1_555
H8_2 C11_2 1_555 1_555
C12_2 C9_2 1_555 1_555
C13_2 C12_2 1_555 1_555
H9_2 C13_2 1_555 1_555
C14_2 N3_2 1_555 1_555
H10_2 C14_2 1_555 1_555
C15_2 N3_2 1_555 1_555
H11_2 C15_2 1_555 1_555
C16_2 C12_2 1_555 1_555
H12_2 C16_2 1_555 1_555
Cu9 N2_2 1_555 1_555
H37_2 C49_2 1_555 1_555
H38_2 C50_2 1_555 1_555
Cu1_2 S3_2 1_555 1_555
C10_2 C11_2 1_555 1_555
C13_2 C14_2 1_555 1_555
C15_2 C16_2 1_555 1_555
C49_2 C50_2 1_555 1_555
Cu2_2 S2_2 1_555 1_555
N1_2 Cu2_2 1_555 1_555
N4_2 Cu2_2 1_555 1_555
C2_2 N1_2 1_555 1_555
H1_2 C2_2 1_555 1_555
C3_2 C2_2 1_555 1_555
H2_2 C3_2 1_555 1_555
C4_2 C3_2 1_555 1_555
C6_2 N1_2 1_555 1_555
C17_2 N4_2 1_555 1_555
H13_2 C17_2 1_555 1_555
N8_2 Cu3_2 1_555 1_555
N12_2 Cu3_2 1_555 1_555
H23_2 C31_2 1_555 1_555
C33_2 N8_2 1_555 1_555
H25_2 C33_2 1_555 1_555
C34_2 C33_2 1_555 1_555
H26_2 C34_2 1_555 1_555
C35_2 C34_2 1_555 1_555
C36_2 C35_2 1_555 1_555
H27_2 C36_2 1_555 1_555
C37_2 N8_2 1_555 1_555
H28_2 C37_2 1_555 1_555
C38_2 C35_2 1_555 1_555
C42_2 C38_2 1_555 1_555
H32_2 C42_2 1_555 1_555
C51_2 N12_2 1_555 1_555
H39_2 C51_2 1_555 1_555
Cu3_2 S2_2 1_555 1_555
C36_2 C37_2 1_555 1_555
H34_2 C44_2 1_555 1_555
C45_2 C44_2 1_555 1_555
C48_2 C45_2 1_555 1_555

#END
