
###############################################################################
#
# This file contains modified crystal structure data generated from the
# MOF subset of the Cambridge Structural Database (CSD) v543 
# hosted by the Cambridge Crystallographic Data Centre (CCDC).
#
# This work is licensed under the Creative Commons
# Attribution-NonCommercial-ShareAlike 4.0 International License.
# To view a copy of this license, visit
# http://creativecommons.org/licenses/by-nc-sa/4.0/
# or send a letter to
# Creative Commons, PO Box 1866, Mountain View, CA 94042, USA.
#
# CIF created using the CSD Python API on 29 September 2022
# The structure has been converted into the P1 space group
# The structure has a 3D framework
# The original CSD entry COYJAD is in the monoclinic crystal system
# The framework has been calculated to contain at least 10.0% void space
# The void calculation uses a probe of radius 1.32A, grid spacing 0.4
#
###############################################################################

data_COYJAD
_chemical_formula_moiety         '(C232 H120 Eu8 N32 O44)n'
_symmetry_cell_setting           triclinic
_symmetry_space_group_name_H-M   'P 1'
_symmetry_Int_Tables_number      1
_space_group_name_Hall           'P 1'
loop_
_symmetry_equiv_pos_site_id
_symmetry_equiv_pos_as_xyz
1 x,y,z
_cell_length_a                   24.1650(15)
_cell_length_b                   11.2586(7)
_cell_length_c                   20.1253(12)
_cell_angle_alpha                90
_cell_angle_beta                 95.3670(10)
_cell_angle_gamma                90
_cell_volume                     5451.37
loop_
_atom_site_label
_atom_site_type_symbol
_atom_site_fract_x
_atom_site_fract_y
_atom_site_fract_z
O11 O 0.03065(14) 0.1152(4) 0.89620(17)
Eu7 Eu 0.076302(8) 0.169258(18) 0.793150(10)
Eu1 Eu 0.423698(8) 0.330742(18) 0.206850(10)
C1 C 0.3564(2) 0.5375(5) 0.3049(3)
H1 H 0.3810 0.5865 0.2849
C2 C 0.3254(3) 0.5872(5) 0.3521(3)
H2 H 0.3297 0.6669 0.3636
C3 C 0.2877(2) 0.5165(5) 0.3822(3)
H3 H 0.2666 0.5474 0.4145
C4 C 0.2824(2) 0.3985(5) 0.3626(3)
C5 C 0.3170(2) 0.3554(5) 0.3149(3)
C6 C 0.31165(19) 0.2309(4) 0.2926(2)
C7 C 0.2728(2) 0.1528(4) 0.3185(3)
C8 C 0.2722(2) 0.0327(4) 0.2982(3)
C10 C 0.3436(2) 0.0801(5) 0.2300(3)
H6 H 0.3670 0.0547 0.1987
C11 C 0.2386(2) 0.2021(5) 0.3650(3)
C12 C 0.2432(2) 0.3155(5) 0.3877(3)
C13 C 0.1805(2) 0.2356(5) 0.4405(3)
C14 C 0.0172(2) 0.1534(4) 0.6247(3)
C15 C 0.0595(2) 0.1723(4) 0.5760(3)
C16 C 0.0909(2) 0.2751(5) 0.5811(2)
H7 H 0.0863 0.3297 0.6148
C17 C 0.1301(2) 0.2962(5) 0.5346(3)
H8 H 0.1510 0.3657 0.5376
C18 C 0.1377(2) 0.2147(5) 0.4844(2)
C19 C 0.1068(2) 0.1097(5) 0.4822(3)
H9 H 0.1127 0.0518 0.4507
C20 C 0.0674(2) 0.0914(5) 0.5269(3)
H10 H 0.0459 0.0228 0.5236
C21 C 0.3403(2) 0.3078(5) 0.0986(3)
C22 C 0.2938(2) 0.2816(5) 0.0473(2)
C23 C 0.2977(2) 0.1821(5) 0.0056(3)
H11 H 0.3298 0.1360 0.0094
C24 C 0.2456(3) 0.3476(5) 0.0409(3)
H12 H 0.2423 0.4133 0.0683
C27 C 0.5000 0.0868(6) 0.2500
N1 N 0.35340(17) 0.4250(4) 0.28630(19)
N2 N 0.34697(18) 0.1928(4) 0.2479(2)
N3 N 0.2067(2) 0.3358(4) 0.4341(3)
H15 H 0.2020 0.4011 0.4550
N4 N 0.19769(18) 0.1504(4) 0.3975(2)
O1 O 0.34184(14) 0.4054(3) 0.13151(17)
O2 O 0.37754(15) 0.2289(3) 0.11024(17)
O4 O 0.02854(15) 0.1791(3) 0.68536(17)
O5 O 0.46068(15) 0.1379(3) 0.2153(2)
O9 O 0.53932(15) 0.1379(3) 0.2847(2)
Eu2 Eu 0.576302(8) 0.330742(18) 0.293150(10)
C37 C 0.6436(2) 0.5375(5) 0.1951(3)
H20 H 0.6190 0.5865 0.2151
C38 C 0.6746(3) 0.5872(5) 0.1479(3)
H21 H 0.6703 0.6669 0.1364
C39 C 0.7123(2) 0.5165(5) 0.1178(3)
H22 H 0.7334 0.5474 0.0855
C40 C 0.7176(2) 0.3985(5) 0.1374(3)
C41 C 0.6830(2) 0.3554(5) 0.1851(3)
C42 C 0.68835(19) 0.2309(4) 0.2074(2)
C43 C 0.7272(2) 0.1528(4) 0.1815(3)
C44 C 0.7278(2) 0.0327(4) 0.2018(3)
C46 C 0.6564(2) 0.0801(5) 0.2700(3)
H25 H 0.6330 0.0547 0.3013
C47 C 0.7614(2) 0.2021(5) 0.1350(3)
C48 C 0.7568(2) 0.3155(5) 0.1123(3)
C49 C 0.8195(2) 0.2356(5) 0.0595(3)
C54 C 0.8623(2) 0.2147(5) 0.0156(2)
C55 C 0.8932(2) 0.1097(5) 0.0178(3)
H28 H 0.8873 0.0518 0.0493
N5 N 0.64660(17) 0.4250(4) 0.21370(19)
N6 N 0.65303(18) 0.1928(4) 0.2521(2)
N7 N 0.7933(2) 0.3358(4) 0.0659(3)
H30 H 0.7980 0.4011 0.0450
N8 N 0.80231(18) 0.1504(4) 0.1025(2)
O13 O 0.65816(14) 0.4054(3) 0.36849(17)
O14 O 0.62246(15) 0.2289(3) 0.38976(17)
O15 O 0.53065(14) 0.3848(4) 0.39620(17)
O16 O 0.46935(14) 0.3848(4) 0.10380(17)
O17 O 0.47146(15) 0.3209(3) 0.31464(17)
O18 O 0.52854(15) 0.3209(3) 0.18536(17)
O19 O 0.45696(14) 0.5241(3) 0.22421(18)
O20 O 0.54304(14) 0.5241(3) 0.27579(18)
C31 C 0.1597(2) 0.1922(5) 0.9014(3)
C32 C 0.2062(2) 0.2184(5) 0.9527(2)
C33 C 0.2023(2) 0.3179(5) 0.9944(3)
H16 H 0.1702 0.3640 0.9906
C34 C 0.2544(3) 0.1524(5) 0.9591(3)
H17 H 0.2577 0.0867 0.9317
O7 O 0.15816(14) 0.0946(3) 0.86849(17)
O8 O 0.12246(15) 0.2711(3) 0.88976(17)
C50 C 0.9828(2) 0.1534(4) 0.8753(3)
C51 C 0.9405(2) 0.1723(4) 0.9240(3)
C52 C 0.9091(2) 0.2751(5) 0.9189(2)
H26 H 0.9137 0.3297 0.8852
C53 C 0.8699(2) 0.2962(5) 0.9654(3)
H27 H 0.8490 0.3657 0.9624
C56 C 0.9326(2) 0.0914(5) 0.9731(3)
H29 H 0.9541 0.0228 0.9764
O12 O 0.97146(15) 0.1791(3) 0.81464(17)
Eu9 Eu 0.923698(8) 0.169258(18) 0.706850(10)
H4 H 0.2478 0.9786 0.3146
C9 C 0.3090(2) 0.9978(5) 0.2532(3)
H5 H 0.3100 0.9193 0.2390
C25 C 0.4656(2) 0.8918(5) 0.2027(3)
H13 H 0.4429 0.9326 0.1706
C26 C 0.5000 0.9541(6) 0.2500
C28 C 0.4655(2) 0.7699(5) 0.2038(3)
H14 H 0.4418 0.7285 0.1729
C29 C 0.5000 0.7076(6) 0.2500
C30 C 0.5000 0.5745(5) 0.2500
C35 C 0.5344(2) 0.8918(5) 0.2973(3)
H18 H 0.5571 0.9326 0.3294
C36 C 0.5345(2) 0.7699(5) 0.2962(3)
H19 H 0.5582 0.7285 0.3271
H23 H 0.7522 0.9786 0.1854
C45 C 0.6910(2) 0.9978(5) 0.2468(3)
H24 H 0.6900 0.9193 0.2610
O3 O 0.96935(14) 0.1152(4) 0.60380(17)
C21_2 C 0.6597(2) 0.3078(5) 0.4014(3)
C22_2 C 0.7062(2) 0.2816(5) 0.4527(2)
C23_2 C 0.7023(2) 0.1821(5) 0.4944(3)
H11_2 H 0.6702 0.1360 0.4906
C24_2 C 0.7544(3) 0.3476(5) 0.4591(3)
H12_2 H 0.7577 0.4133 0.4317
C31_2 C 0.8403(2) 0.1922(5) 0.5986(3)
C32_2 C 0.7938(2) 0.2184(5) 0.5473(2)
C33_2 C 0.7977(2) 0.3179(5) 0.5056(3)
H16_2 H 0.8298 0.3640 0.5094
C34_2 C 0.7456(3) 0.1524(5) 0.5409(3)
H17_2 H 0.7423 0.0867 0.5683
O7_2 O 0.84184(14) 0.0946(3) 0.63151(17)
O8_2 O 0.87754(15) 0.2711(3) 0.61024(17)
C4_2 C 0.2176(2) 0.1015(5) 0.6374(3)
C5_2 C 0.1830(2) 0.1446(5) 0.6851(3)
C6_2 C 0.18835(19) 0.2691(4) 0.7074(2)
C7_2 C 0.2272(2) 0.3472(4) 0.6815(3)
C8_2 C 0.2278(2) 0.4673(4) 0.7018(3)
H4_2 H 0.2522 0.5214 0.6854
C9_2 C 0.1910(2) 0.5022(5) 0.7468(3)
H5_2 H 0.1900 0.5807 0.7610
C10_2 C 0.1564(2) 0.4199(5) 0.7700(3)
H6_2 H 0.1330 0.4453 0.8013
C11_2 C 0.2614(2) 0.2979(5) 0.6350(3)
C12_2 C 0.2568(2) 0.1845(5) 0.6123(3)
C13_2 C 0.3195(2) 0.2644(5) 0.5595(3)
C14_2 C 0.4828(2) 0.3466(4) 0.3753(3)
C15_2 C 0.4405(2) 0.3277(4) 0.4240(3)
C16_2 C 0.4091(2) 0.2249(5) 0.4189(2)
H7_2 H 0.4137 0.1703 0.3852
C17_2 C 0.3699(2) 0.2038(5) 0.4654(3)
H8_2 H 0.3490 0.1343 0.4624
C18_2 C 0.3623(2) 0.2853(5) 0.5156(2)
C19_2 C 0.3932(2) 0.3903(5) 0.5178(3)
H9_2 H 0.3873 0.4482 0.5493
C20_2 C 0.4326(2) 0.4086(5) 0.4731(3)
H10_2 H 0.4541 0.4772 0.4764
C25_2 C 0.0344(2) 0.6082(5) 0.7973(3)
H13_2 H 0.0571 0.5674 0.8294
C26_2 C 0.0000 0.5459(6) 0.7500
C27_2 C -0.0000 0.4132(6) 0.7500
C28_2 C 0.0345(2) 0.7301(5) 0.7962(3)
H14_2 H 0.0582 0.7715 0.8271
C29_2 C -0.0000 0.7924(6) 0.7500
C30_2 C -0.0000 0.9255(5) 0.7500
N1_2 N 0.14660(17) 0.0750(4) 0.71370(19)
N2_2 N 0.15303(18) 0.3072(4) 0.7521(2)
N3_2 N 0.2933(2) 0.1642(4) 0.5659(3)
H15_2 H 0.2980 0.0989 0.5450
N4_2 N 0.30231(18) 0.3496(4) 0.6025(2)
O5_2 O 0.03932(15) 0.3621(3) 0.7847(2)
O6 O 0.04304(14) 0.9759(3) 0.77579(18)
C1_2 C 0.1436(2) 0.9625(5) 0.6951(3)
H1_2 H 0.1190 0.9135 0.7151
C2_2 C 0.1746(3) 0.9128(5) 0.6479(3)
H2_2 H 0.1703 0.8331 0.6364
C3_2 C 0.2123(2) 0.9835(5) 0.6178(3)
H3_2 H 0.2334 0.9526 0.5855
C50_2 C 0.5172(2) 0.3466(4) 0.1247(3)
C51_2 C 0.5595(2) 0.3277(4) 0.0760(3)
C52_2 C 0.5909(2) 0.2249(5) 0.0811(2)
H26_2 H 0.5863 0.1703 0.1148
C53_2 C 0.6301(2) 0.2038(5) 0.0346(3)
H27_2 H 0.6510 0.1343 0.0376
C56_2 C 0.5674(2) 0.4086(5) 0.0269(3)
H29_2 H 0.5459 0.4772 0.0236
C26_3 C 1.0000 0.5459(6) 0.7500
C27_3 C 1.0000 0.4132(6) 0.7500
C29_3 C 1.0000 0.7924(6) 0.7500
C30_3 C 1.0000 0.9255(5) 0.7500
C35_2 C 0.9656(2) 0.6082(5) 0.7027(3)
H18_2 H 0.9429 0.5674 0.6706
O9_2 O 0.96068(15) 0.3621(3) 0.7153(2)
C36_2 C 0.9655(2) 0.7301(5) 0.7038(3)
H19_2 H 0.9418 0.7715 0.6729
O10 O 0.95696(14) 0.9759(3) 0.72421(18)
C40_2 C 0.7824(2) 0.1015(5) 0.8626(3)
C41_2 C 0.8170(2) 0.1446(5) 0.8149(3)
C42_2 C 0.81165(19) 0.2691(4) 0.7926(2)
C43_2 C 0.7728(2) 0.3472(4) 0.8185(3)
C44_2 C 0.7722(2) 0.4673(4) 0.7982(3)
H23_2 H 0.7478 0.5214 0.8146
C45_2 C 0.8090(2) 0.5022(5) 0.7532(3)
H24_2 H 0.8100 0.5807 0.7390
C46_2 C 0.8436(2) 0.4199(5) 0.7300(3)
H25_2 H 0.8670 0.4453 0.6987
C47_2 C 0.7386(2) 0.2979(5) 0.8650(3)
C48_2 C 0.7432(2) 0.1845(5) 0.8877(3)
C49_2 C 0.6805(2) 0.2644(5) 0.9405(3)
C54_2 C 0.6377(2) 0.2853(5) 0.9844(2)
C55_2 C 0.6068(2) 0.3903(5) 0.9822(3)
H28_2 H 0.6127 0.4482 0.9507
N5_2 N 0.85340(17) 0.0750(4) 0.78630(19)
N6_2 N 0.84697(18) 0.3072(4) 0.7479(2)
N7_2 N 0.7067(2) 0.1642(4) 0.9341(3)
H30_2 H 0.7020 0.0989 0.9550
N8_2 N 0.69769(18) 0.3496(4) 0.8975(2)
C37_2 C 0.8564(2) 0.9625(5) 0.8049(3)
H20_2 H 0.8810 0.9135 0.7849
C38_2 C 0.8254(3) 0.9128(5) 0.8521(3)
H21_2 H 0.8297 0.8331 0.8636
C39_2 C 0.7877(2) 0.9835(5) 0.8822(3)
H22_2 H 0.7666 0.9526 0.9145
C37_3 C 0.1436(2) 0.0375(5) 0.1951(3)
H20_3 H 0.1190 0.0865 0.2151
C38_3 C 0.1746(3) 0.0872(5) 0.1479(3)
H21_3 H 0.1703 0.1669 0.1364
C39_3 C 0.2123(2) 0.0165(5) 0.1178(3)
H22_3 H 0.2334 0.0474 0.0855
O20_2 O 0.04304(14) 0.0241(3) 0.27579(18)
C26_4 C 0.0000 0.4541(6) 0.2500
C27_4 C 0.0000 0.5868(6) 0.2500
C29_4 C 0.0000 0.2076(6) 0.2500
C30_4 C 0.0000 0.0745(5) 0.2500
C35_3 C 0.0344(2) 0.3918(5) 0.2973(3)
H18_3 H 0.0571 0.4326 0.3294
O9_3 O 0.03932(15) 0.6379(3) 0.2847(2)
C36_3 C 0.0345(2) 0.2699(5) 0.2962(3)
H19_3 H 0.0582 0.2285 0.3271
Eu2_2 Eu 0.076302(8) 0.830742(18) 0.293150(10)
C40_3 C 0.2176(2) 0.8985(5) 0.1374(3)
C41_3 C 0.1830(2) 0.8554(5) 0.1851(3)
C42_3 C 0.18835(19) 0.7309(4) 0.2074(2)
C43_3 C 0.2272(2) 0.6528(4) 0.1815(3)
C44_3 C 0.2278(2) 0.5327(4) 0.2018(3)
H23_3 H 0.2522 0.4786 0.1854
C45_3 C 0.1910(2) 0.4978(5) 0.2468(3)
H24_3 H 0.1900 0.4193 0.2610
C46_3 C 0.1564(2) 0.5801(5) 0.2700(3)
H25_3 H 0.1330 0.5547 0.3013
C47_3 C 0.2614(2) 0.7021(5) 0.1350(3)
C48_3 C 0.2568(2) 0.8155(5) 0.1123(3)
C49_3 C 0.3195(2) 0.7356(5) 0.0595(3)
C54_3 C 0.3623(2) 0.7147(5) 0.0156(2)
C55_3 C 0.3932(2) 0.6097(5) 0.0178(3)
H28_3 H 0.3873 0.5518 0.0493
N5_3 N 0.14660(17) 0.9250(4) 0.21370(19)
N6_3 N 0.15303(18) 0.6928(4) 0.2521(2)
N7_3 N 0.2933(2) 0.8358(4) 0.0659(3)
H30_3 H 0.2980 0.9011 0.0450
N8_3 N 0.30231(18) 0.6504(4) 0.1025(2)
O13_2 O 0.15816(14) 0.9054(3) 0.36849(17)
O14_2 O 0.12246(15) 0.7289(3) 0.38976(17)
O15_2 O 0.03065(14) 0.8848(4) 0.39620(17)
O18_2 O 0.02854(15) 0.8209(3) 0.18536(17)
C50_3 C 0.4828(2) 0.6534(4) 0.8753(3)
C51_3 C 0.4405(2) 0.6723(4) 0.9240(3)
C52_3 C 0.4091(2) 0.7751(5) 0.9189(2)
H26_3 H 0.4137 0.8297 0.8852
C53_3 C 0.3699(2) 0.7962(5) 0.9654(3)
H27_3 H 0.3490 0.8657 0.9624
C56_3 C 0.4326(2) 0.5914(5) 0.9731(3)
H29_3 H 0.4541 0.5228 0.9764
O11_2 O 0.53065(14) 0.6152(4) 0.89620(17)
O12_2 O 0.47146(15) 0.6791(3) 0.81464(17)
Eu7_2 Eu 0.576302(8) 0.669258(18) 0.793150(10)
Eu9_2 Eu 0.423698(8) 0.669258(18) 0.706850(10)
C1_3 C 0.8564(2) 0.0375(5) 0.3049(3)
H1_3 H 0.8810 0.0865 0.2849
C2_3 C 0.8254(3) 0.0872(5) 0.3521(3)
H2_3 H 0.8297 0.1669 0.3636
C3_3 C 0.7877(2) 0.0165(5) 0.3822(3)
H3_3 H 0.7666 0.0474 0.4145
O19_2 O 0.95696(14) 0.0241(3) 0.22421(18)
Eu1_2 Eu 0.923698(8) 0.830742(18) 0.206850(10)
C4_3 C 0.7824(2) 0.8985(5) 0.3626(3)
C5_3 C 0.8170(2) 0.8554(5) 0.3149(3)
C6_3 C 0.81165(19) 0.7309(4) 0.2926(2)
C7_3 C 0.7728(2) 0.6528(4) 0.3185(3)
C8_3 C 0.7722(2) 0.5327(4) 0.2982(3)
H4_3 H 0.7478 0.4786 0.3146
C9_3 C 0.8090(2) 0.4978(5) 0.2532(3)
H5_3 H 0.8100 0.4193 0.2390
C10_3 C 0.8436(2) 0.5801(5) 0.2300(3)
H6_3 H 0.8670 0.5547 0.1987
C11_3 C 0.7386(2) 0.7021(5) 0.3650(3)
C12_3 C 0.7432(2) 0.8155(5) 0.3877(3)
C13_3 C 0.6805(2) 0.7356(5) 0.4405(3)
C14_3 C 0.5172(2) 0.6534(4) 0.6247(3)
C15_3 C 0.5595(2) 0.6723(4) 0.5760(3)
C16_3 C 0.5909(2) 0.7751(5) 0.5811(2)
H7_3 H 0.5863 0.8297 0.6148
C17_3 C 0.6301(2) 0.7962(5) 0.5346(3)
H8_3 H 0.6510 0.8657 0.5376
C18_3 C 0.6377(2) 0.7147(5) 0.4844(2)
C19_3 C 0.6068(2) 0.6097(5) 0.4822(3)
H9_3 H 0.6127 0.5518 0.4507
C20_3 C 0.5674(2) 0.5914(5) 0.5269(3)
H10_3 H 0.5459 0.5228 0.5236
C21_3 C 0.8403(2) 0.8078(5) 0.0986(3)
C22_3 C 0.7938(2) 0.7816(5) 0.0473(2)
C23_3 C 0.7977(2) 0.6821(5) 0.0056(3)
H11_3 H 0.8298 0.6360 0.0094
C24_3 C 0.7456(3) 0.8476(5) 0.0409(3)
H12_3 H 0.7423 0.9133 0.0683
C25_3 C 0.9656(2) 0.3918(5) 0.2027(3)
H13_3 H 0.9429 0.4326 0.1706
C26_5 C 1.0000 0.4541(6) 0.2500
C27_5 C 1.0000 0.5868(6) 0.2500
C28_3 C 0.9655(2) 0.2699(5) 0.2038(3)
H14_3 H 0.9418 0.2285 0.1729
C29_5 C 1.0000 0.2076(6) 0.2500
C30_5 C 1.0000 0.0745(5) 0.2500
N1_3 N 0.85340(17) 0.9250(4) 0.28630(19)
N2_3 N 0.84697(18) 0.6928(4) 0.2479(2)
N3_3 N 0.7067(2) 0.8358(4) 0.4341(3)
H15_3 H 0.7020 0.9011 0.4550
N4_3 N 0.69769(18) 0.6504(4) 0.3975(2)
O1_2 O 0.84184(14) 0.9054(3) 0.13151(17)
O2_2 O 0.87754(15) 0.7289(3) 0.11024(17)
O3_2 O 0.46935(14) 0.6152(4) 0.60380(17)
O4_2 O 0.52854(15) 0.6791(3) 0.68536(17)
O5_3 O 0.96068(15) 0.6379(3) 0.2153(2)
O16_2 O 0.96935(14) 0.8848(4) 0.10380(17)
O17_2 O 0.97146(15) 0.8209(3) 0.31464(17)
C31_3 C 0.6597(2) 0.6922(5) 0.9014(3)
C32_3 C 0.7062(2) 0.7184(5) 0.9527(2)
C33_3 C 0.7023(2) 0.8179(5) 0.9944(3)
H16_3 H 0.6702 0.8640 0.9906
C34_3 C 0.7544(3) 0.6524(5) 0.9591(3)
H17_3 H 0.7577 0.5867 0.9317
O7_3 O 0.65816(14) 0.5946(3) 0.86849(17)
O8_3 O 0.62246(15) 0.7711(3) 0.88976(17)
C21_4 C 0.1597(2) 0.8078(5) 0.4014(3)
C22_4 C 0.2062(2) 0.7816(5) 0.4527(2)
C23_4 C 0.2023(2) 0.6821(5) 0.4944(3)
H11_4 H 0.1702 0.6360 0.4906
C24_4 C 0.2544(3) 0.8476(5) 0.4591(3)
H12_4 H 0.2577 0.9133 0.4317
C31_4 C 0.3403(2) 0.6922(5) 0.5986(3)
C32_4 C 0.2938(2) 0.7184(5) 0.5473(2)
C33_4 C 0.2977(2) 0.8179(5) 0.5056(3)
H16_4 H 0.3298 0.8640 0.5094
C34_4 C 0.2456(3) 0.6524(5) 0.5409(3)
H17_4 H 0.2423 0.5867 0.5683
O7_4 O 0.34184(14) 0.5946(3) 0.63151(17)
O8_4 O 0.37754(15) 0.7711(3) 0.61024(17)
H4_4 H 0.7522 0.0214 0.6854
C9_4 C 0.6910(2) 0.0022(5) 0.7468(3)
H5_4 H 0.6900 0.0807 0.7610
C25_4 C 0.5344(2) 0.1082(5) 0.7973(3)
H13_4 H 0.5571 0.0674 0.8294
C26_6 C 0.5000 0.0459(6) 0.7500
C28_4 C 0.5345(2) 0.2301(5) 0.7962(3)
H14_4 H 0.5582 0.2715 0.8271
C29_6 C 0.5000 0.2924(6) 0.7500
C30_6 C 0.5000 0.4255(5) 0.7500
O6_2 O 0.54304(14) 0.4759(3) 0.77579(18)
C35_4 C 0.4656(2) 0.1082(5) 0.7027(3)
H18_4 H 0.4429 0.0674 0.6706
C36_4 C 0.4655(2) 0.2301(5) 0.7038(3)
H19_4 H 0.4418 0.2715 0.6729
O10_2 O 0.45696(14) 0.4759(3) 0.72421(18)
H23_4 H 0.2478 0.0214 0.8146
C45_4 C 0.3090(2) 0.0022(5) 0.7532(3)
H24_4 H 0.3100 0.0807 0.7390
C50_4 C 0.0172(2) 0.8466(4) 0.1247(3)
C51_4 C 0.0595(2) 0.8277(4) 0.0760(3)
C52_4 C 0.0909(2) 0.7249(5) 0.0811(2)
H26_4 H 0.0863 0.6703 0.1148
C53_4 C 0.1301(2) 0.7038(5) 0.0346(3)
H27_4 H 0.1510 0.6343 0.0376
C56_4 C 0.0674(2) 0.9086(5) 0.0269(3)
H29_4 H 0.0459 0.9772 0.0236
C1_4 C 0.6436(2) 0.4625(5) 0.6951(3)
H1_4 H 0.6190 0.4135 0.7151
C2_4 C 0.6746(3) 0.4128(5) 0.6479(3)
H2_4 H 0.6703 0.3331 0.6364
C3_4 C 0.7123(2) 0.4835(5) 0.6178(3)
H3_4 H 0.7334 0.4526 0.5855
C4_4 C 0.7176(2) 0.6015(5) 0.6374(3)
C5_4 C 0.6830(2) 0.6446(5) 0.6851(3)
C6_4 C 0.68835(19) 0.7691(4) 0.7074(2)
C7_4 C 0.7272(2) 0.8472(4) 0.6815(3)
C8_4 C 0.7278(2) 0.9673(4) 0.7018(3)
C10_4 C 0.6564(2) 0.9199(5) 0.7700(3)
H6_4 H 0.6330 0.9453 0.8013
C11_4 C 0.7614(2) 0.7979(5) 0.6350(3)
C12_4 C 0.7568(2) 0.6845(5) 0.6123(3)
C13_4 C 0.8195(2) 0.7644(5) 0.5595(3)
C14_4 C 0.9828(2) 0.8466(4) 0.3753(3)
C15_4 C 0.9405(2) 0.8277(4) 0.4240(3)
C16_4 C 0.9091(2) 0.7249(5) 0.4189(2)
H7_4 H 0.9137 0.6703 0.3852
C17_4 C 0.8699(2) 0.7038(5) 0.4654(3)
H8_4 H 0.8490 0.6343 0.4624
C18_4 C 0.8623(2) 0.7853(5) 0.5156(2)
C19_4 C 0.8932(2) 0.8903(5) 0.5178(3)
H9_4 H 0.8873 0.9482 0.5493
C20_4 C 0.9326(2) 0.9086(5) 0.4731(3)
H10_4 H 0.9541 0.9772 0.4764
C27_6 C 0.5000 0.9132(6) 0.7500
N1_4 N 0.64660(17) 0.5750(4) 0.71370(19)
N2_4 N 0.65303(18) 0.8072(4) 0.7521(2)
N3_4 N 0.7933(2) 0.6642(4) 0.5659(3)
H15_4 H 0.7980 0.5989 0.5450
N4_4 N 0.80231(18) 0.8496(4) 0.6025(2)
O5_4 O 0.53932(15) 0.8621(3) 0.7847(2)
O9_4 O 0.46068(15) 0.8621(3) 0.7153(2)
C37_4 C 0.3564(2) 0.4625(5) 0.8049(3)
H20_4 H 0.3810 0.4135 0.7849
C38_4 C 0.3254(3) 0.4128(5) 0.8521(3)
H21_4 H 0.3297 0.3331 0.8636
C39_4 C 0.2877(2) 0.4835(5) 0.8822(3)
H22_4 H 0.2666 0.4526 0.9145
C40_4 C 0.2824(2) 0.6015(5) 0.8626(3)
C41_4 C 0.3170(2) 0.6446(5) 0.8149(3)
C42_4 C 0.31165(19) 0.7691(4) 0.7926(2)
C43_4 C 0.2728(2) 0.8472(4) 0.8185(3)
C44_4 C 0.2722(2) 0.9673(4) 0.7982(3)
C46_4 C 0.3436(2) 0.9199(5) 0.7300(3)
H25_4 H 0.3670 0.9453 0.6987
C47_4 C 0.2386(2) 0.7979(5) 0.8650(3)
C48_4 C 0.2432(2) 0.6845(5) 0.8877(3)
C49_4 C 0.1805(2) 0.7644(5) 0.9405(3)
C54_4 C 0.1377(2) 0.7853(5) 0.9844(2)
C55_4 C 0.1068(2) 0.8903(5) 0.9822(3)
H28_4 H 0.1127 0.9482 0.9507
N5_4 N 0.35340(17) 0.5750(4) 0.78630(19)
N6_4 N 0.34697(18) 0.8072(4) 0.7479(2)
N7_4 N 0.2067(2) 0.6642(4) 0.9341(3)
H30_4 H 0.2020 0.5989 0.9550
N8_4 N 0.19769(18) 0.8496(4) 0.8975(2)
loop_
_geom_bond_atom_site_label_1
_geom_bond_atom_site_label_2
_geom_bond_site_symmetry_1
_geom_bond_site_symmetry_2
Eu7 O11 1_555 1_555
Eu1 N1 1_555 1_555
C1 H1 1_555 1_555
C2 C1 1_555 1_555
H2 C2 1_555 1_555
C3 C2 1_555 1_555
H3 C3 1_555 1_555
C4 C3 1_555 1_555
C5 C4 1_555 1_555
C6 C5 1_555 1_555
C7 C6 1_555 1_555
C8 C7 1_555 1_555
H6 C10 1_555 1_555
C11 C7 1_555 1_555
C12 C4 1_555 1_555
C13 C18 1_555 1_555
C14 C15 1_555 1_555
C15 C16 1_555 1_555
C16 H7 1_555 1_555
C17 C16 1_555 1_555
H8 C17 1_555 1_555
C18 C17 1_555 1_555
C19 C18 1_555 1_555
H9 C19 1_555 1_555
C20 C15 1_555 1_555
H10 C20 1_555 1_555
C21 C22 1_555 1_555
C22 C23 1_555 1_555
C23 H11 1_555 1_555
C24 C22 1_555 1_555
H12 C24 1_555 1_555
N1 C1 1_555 1_555
N2 Eu1 1_555 1_555
N3 C12 1_555 1_555
H15 N3 1_555 1_555
N4 C11 1_555 1_555
O1 Eu1 1_555 1_555
O2 Eu1 1_555 1_555
O4 C14 1_555 1_555
O5 Eu1 1_555 1_555
O9 C27 1_555 1_555
Eu2 O9 1_555 1_555
C37 H20 1_555 1_555
C38 C37 1_555 1_555
H21 C38 1_555 1_555
C39 C38 1_555 1_555
H22 C39 1_555 1_555
C40 C39 1_555 1_555
C41 C40 1_555 1_555
C42 C41 1_555 1_555
C43 C42 1_555 1_555
C44 C43 1_555 1_555
H25 C46 1_555 1_555
C47 C43 1_555 1_555
C48 C40 1_555 1_555
C49 C54 1_555 1_555
C55 C54 1_555 1_555
H28 C55 1_555 1_555
N5 Eu2 1_555 1_555
N6 Eu2 1_555 1_555
N7 C48 1_555 1_555
H30 N7 1_555 1_555
N8 C47 1_555 1_555
Eu7 O4 1_555 1_555
O13 Eu2 1_555 1_555
O14 Eu2 1_555 1_555
O15 Eu2 1_555 1_555
O16 Eu1 1_555 1_555
O17 Eu1 1_555 1_555
O18 Eu1 1_555 1_555
O19 Eu1 1_555 1_555
O20 Eu2 1_555 1_555
C5 N1 1_555 1_555
C6 N2 1_555 1_555
C10 N2 1_555 1_555
C11 C12 1_555 1_555
C13 N3 1_555 1_555
C13 N4 1_555 1_555
C19 C20 1_555 1_555
C21 O1 1_555 1_555
C21 O2 1_555 1_555
C27 O5 1_555 1_555
Eu2 O17 1_555 1_555
Eu2 O18 1_555 1_555
C37 N5 1_555 1_555
C41 N5 1_555 1_555
C42 N6 1_555 1_555
C46 N6 1_555 1_555
C47 C48 1_555 1_555
C49 N7 1_555 1_555
C49 N8 1_555 1_555
C31 C32 1_555 1_555
C32 C33 1_555 1_555
H16 C33 1_555 1_555
H17 C34 1_555 1_555
O7 C31 1_555 1_555
O8 C31 1_555 1_555
C50 C51 1_555 1_555
C51 C52 1_555 1_555
C52 H26 1_555 1_555
C53 C52 1_555 1_555
H27 C53 1_555 1_555
C56 C51 1_555 1_555
H29 C56 1_555 1_555
O12 C50 1_555 1_555
Eu7 O7 1_555 1_555
Eu9 O12 1_555 1_555
C32 C34 1_555 1_555
O8 Eu7 1_555 1_555
H5 C9 1_555 1_555
C25 H13 1_555 1_555
C26 C25 1_555 1_555
C28 C25 1_555 1_555
H14 C28 1_555 1_555
C29 C28 1_555 1_555
C30 C29 1_555 1_555
O19 C30 1_555 1_555
C35 C26 1_555 1_555
H18 C35 1_555 1_555
C36 C29 1_555 1_555
H19 C36 1_555 1_555
O20 C30 1_555 1_555
H24 C45 1_555 1_555
C35 C36 1_555 1_555
Eu9 O3 1_555 1_555
C21_2 C22_2 1_555 1_555
C22_2 C23_2 1_555 1_555
C23_2 H11_2 1_555 1_555
C24_2 C22_2 1_555 1_555
H12_2 C24_2 1_555 1_555
C31_2 C32_2 1_555 1_555
C32_2 C33_2 1_555 1_555
C33_2 C24_2 1_555 1_555
H16_2 C33_2 1_555 1_555
C34_2 C23_2 1_555 1_555
H17_2 C34_2 1_555 1_555
O7_2 C31_2 1_555 1_555
O8_2 C31_2 1_555 1_555
Eu9 O7_2 1_555 1_555
C21_2 O13 1_555 1_555
C21_2 O14 1_555 1_555
C32_2 C34_2 1_555 1_555
O8_2 Eu9 1_555 1_555
Eu7 N1_2 1_555 1_555
C5_2 C4_2 1_555 1_555
C6_2 C5_2 1_555 1_555
C7_2 C6_2 1_555 1_555
C8_2 C7_2 1_555 1_555
H4_2 C8_2 1_555 1_555
C9_2 C8_2 1_555 1_555
H5_2 C9_2 1_555 1_555
C10_2 C9_2 1_555 1_555
H6_2 C10_2 1_555 1_555
C11_2 C7_2 1_555 1_555
C12_2 C4_2 1_555 1_555
C13_2 C18_2 1_555 1_555
C14_2 C15_2 1_555 1_555
C15_2 C16_2 1_555 1_555
C16_2 H7_2 1_555 1_555
C17_2 C16_2 1_555 1_555
H8_2 C17_2 1_555 1_555
C18_2 C17_2 1_555 1_555
C19_2 C18_2 1_555 1_555
H9_2 C19_2 1_555 1_555
C20_2 C15_2 1_555 1_555
H10_2 C20_2 1_555 1_555
C25_2 H13_2 1_555 1_555
C26_2 C25_2 1_555 1_555
C27_2 C26_2 1_555 1_555
C28_2 C25_2 1_555 1_555
H14_2 C28_2 1_555 1_555
C29_2 C28_2 1_555 1_555
C30_2 C29_2 1_555 1_555
N2_2 Eu7 1_555 1_555
N3_2 C12_2 1_555 1_555
H15_2 N3_2 1_555 1_555
N4_2 C11_2 1_555 1_555
O15 C14_2 1_555 1_555
O17 C14_2 1_555 1_555
O5_2 Eu7 1_555 1_555
O6 C30_2 1_555 1_555
C5_2 N1_2 1_555 1_555
C6_2 N2_2 1_555 1_555
C10_2 N2_2 1_555 1_555
C11_2 C12_2 1_555 1_555
C13_2 N3_2 1_555 1_555
C13_2 N4_2 1_555 1_555
C19_2 C20_2 1_555 1_555
C27_2 O5_2 1_555 1_555
C1_2 H1_2 1_555 1_555
C2_2 C1_2 1_555 1_555
H2_2 C2_2 1_555 1_555
C3_2 C2_2 1_555 1_555
H3_2 C3_2 1_555 1_555
C50_2 C51_2 1_555 1_555
C51_2 C52_2 1_555 1_555
C52_2 H26_2 1_555 1_555
C53_2 C52_2 1_555 1_555
H27_2 C53_2 1_555 1_555
C56_2 C51_2 1_555 1_555
H29_2 C56_2 1_555 1_555
O16 C50_2 1_555 1_555
O18 C50_2 1_555 1_555
C27_3 C26_3 1_555 1_555
C30_3 C29_3 1_555 1_555
C35_2 C26_3 1_555 1_555
H18_2 C35_2 1_555 1_555
O9_2 C27_3 1_555 1_555
C36_2 C29_3 1_555 1_555
H19_2 C36_2 1_555 1_555
O10 C30_3 1_555 1_555
Eu9 O9_2 1_555 1_555
C41_2 C40_2 1_555 1_555
C42_2 C41_2 1_555 1_555
C43_2 C42_2 1_555 1_555
C44_2 C43_2 1_555 1_555
H23_2 C44_2 1_555 1_555
C45_2 C44_2 1_555 1_555
H24_2 C45_2 1_555 1_555
C46_2 C45_2 1_555 1_555
H25_2 C46_2 1_555 1_555
C47_2 C43_2 1_555 1_555
C48_2 C40_2 1_555 1_555
C49_2 C54_2 1_555 1_555
C55_2 C54_2 1_555 1_555
H28_2 C55_2 1_555 1_555
N5_2 Eu9 1_555 1_555
N6_2 Eu9 1_555 1_555
N7_2 C48_2 1_555 1_555
H30_2 N7_2 1_555 1_555
N8_2 C47_2 1_555 1_555
C35_2 C36_2 1_555 1_555
C41_2 N5_2 1_555 1_555
C42_2 N6_2 1_555 1_555
C46_2 N6_2 1_555 1_555
C47_2 C48_2 1_555 1_555
C49_2 N7_2 1_555 1_555
C49_2 N8_2 1_555 1_555
C37_2 H20_2 1_555 1_555
C38_2 C37_2 1_555 1_555
H21_2 C38_2 1_555 1_555
C39_2 C38_2 1_555 1_555
H22_2 C39_2 1_555 1_555
C37_3 H20_3 1_555 1_555
C38_3 C37_3 1_555 1_555
H21_3 C38_3 1_555 1_555
C39_3 C38_3 1_555 1_555
H22_3 C39_3 1_555 1_555
C27_4 C26_4 1_555 1_555
C30_4 C29_4 1_555 1_555
C35_3 C26_4 1_555 1_555
H18_3 C35_3 1_555 1_555
O9_3 C27_4 1_555 1_555
C36_3 C29_4 1_555 1_555
H19_3 C36_3 1_555 1_555
O20_2 C30_4 1_555 1_555
Eu2_2 O9_3 1_555 1_555
C41_3 C40_3 1_555 1_555
C42_3 C41_3 1_555 1_555
C43_3 C42_3 1_555 1_555
C44_3 C43_3 1_555 1_555
H23_3 C44_3 1_555 1_555
C45_3 C44_3 1_555 1_555
H24_3 C45_3 1_555 1_555
C46_3 C45_3 1_555 1_555
H25_3 C46_3 1_555 1_555
C47_3 C43_3 1_555 1_555
C48_3 C40_3 1_555 1_555
C49_3 C54_3 1_555 1_555
C55_3 C54_3 1_555 1_555
H28_3 C55_3 1_555 1_555
N5_3 Eu2_2 1_555 1_555
N6_3 Eu2_2 1_555 1_555
N7_3 C48_3 1_555 1_555
H30_3 N7_3 1_555 1_555
N8_3 C47_3 1_555 1_555
O13_2 Eu2_2 1_555 1_555
O14_2 Eu2_2 1_555 1_555
O15_2 Eu2_2 1_555 1_555
C35_3 C36_3 1_555 1_555
Eu2_2 O18_2 1_555 1_555
C41_3 N5_3 1_555 1_555
C42_3 N6_3 1_555 1_555
C46_3 N6_3 1_555 1_555
C47_3 C48_3 1_555 1_555
C49_3 N7_3 1_555 1_555
C49_3 N8_3 1_555 1_555
C50_3 C51_3 1_555 1_555
C51_3 C52_3 1_555 1_555
C52_3 H26_3 1_555 1_555
C53_3 C52_3 1_555 1_555
H27_3 C53_3 1_555 1_555
C56_3 C51_3 1_555 1_555
H29_3 C56_3 1_555 1_555
O11_2 C50_3 1_555 1_555
O12_2 C50_3 1_555 1_555
Eu7_2 O11_2 1_555 1_555
Eu9_2 O12_2 1_555 1_555
O12_2 Eu7_2 1_555 1_555
C1_3 H1_3 1_555 1_555
C2_3 C1_3 1_555 1_555
H2_3 C2_3 1_555 1_555
C3_3 C2_3 1_555 1_555
H3_3 C3_3 1_555 1_555
Eu1_2 N1_3 1_555 1_555
C5_3 C4_3 1_555 1_555
C6_3 C5_3 1_555 1_555
C7_3 C6_3 1_555 1_555
C8_3 C7_3 1_555 1_555
H4_3 C8_3 1_555 1_555
C9_3 C8_3 1_555 1_555
H5_3 C9_3 1_555 1_555
C10_3 C9_3 1_555 1_555
H6_3 C10_3 1_555 1_555
C11_3 C7_3 1_555 1_555
C12_3 C4_3 1_555 1_555
C13_3 C18_3 1_555 1_555
C14_3 C15_3 1_555 1_555
C15_3 C16_3 1_555 1_555
C16_3 H7_3 1_555 1_555
C17_3 C16_3 1_555 1_555
H8_3 C17_3 1_555 1_555
C18_3 C17_3 1_555 1_555
C19_3 C18_3 1_555 1_555
H9_3 C19_3 1_555 1_555
C20_3 C15_3 1_555 1_555
H10_3 C20_3 1_555 1_555
C21_3 C22_3 1_555 1_555
C22_3 C23_3 1_555 1_555
C23_3 H11_3 1_555 1_555
C24_3 C22_3 1_555 1_555
H12_3 C24_3 1_555 1_555
C25_3 H13_3 1_555 1_555
C26_5 C25_3 1_555 1_555
C27_5 C26_5 1_555 1_555
C28_3 C25_3 1_555 1_555
H14_3 C28_3 1_555 1_555
C29_5 C28_3 1_555 1_555
C30_5 C29_5 1_555 1_555
N2_3 Eu1_2 1_555 1_555
N3_3 C12_3 1_555 1_555
H15_3 N3_3 1_555 1_555
N4_3 C11_3 1_555 1_555
O1_2 Eu1_2 1_555 1_555
O2_2 Eu1_2 1_555 1_555
O3_2 C14_3 1_555 1_555
O4_2 C14_3 1_555 1_555
O5_3 Eu1_2 1_555 1_555
O19_2 C30_5 1_555 1_555
Eu7_2 O4_2 1_555 1_555
Eu9_2 O3_2 1_555 1_555
O16_2 Eu1_2 1_555 1_555
O17_2 Eu1_2 1_555 1_555
C5_3 N1_3 1_555 1_555
C6_3 N2_3 1_555 1_555
C10_3 N2_3 1_555 1_555
C11_3 C12_3 1_555 1_555
C13_3 N3_3 1_555 1_555
C13_3 N4_3 1_555 1_555
C19_3 C20_3 1_555 1_555
C21_3 O1_2 1_555 1_555
C21_3 O2_2 1_555 1_555
C27_5 O5_3 1_555 1_555
O4_2 Eu9_2 1_555 1_555
C31_3 C32_3 1_555 1_555
C32_3 C33_3 1_555 1_555
H16_3 C33_3 1_555 1_555
H17_3 C34_3 1_555 1_555
O7_3 C31_3 1_555 1_555
O8_3 C31_3 1_555 1_555
Eu7_2 O7_3 1_555 1_555
C32_3 C34_3 1_555 1_555
O8_3 Eu7_2 1_555 1_555
C21_4 C22_4 1_555 1_555
C22_4 C23_4 1_555 1_555
C23_4 H11_4 1_555 1_555
C24_4 C22_4 1_555 1_555
H12_4 C24_4 1_555 1_555
C31_4 C32_4 1_555 1_555
C32_4 C33_4 1_555 1_555
C33_4 C24_4 1_555 1_555
H16_4 C33_4 1_555 1_555
C34_4 C23_4 1_555 1_555
H17_4 C34_4 1_555 1_555
O7_4 C31_4 1_555 1_555
O8_4 C31_4 1_555 1_555
Eu9_2 O7_4 1_555 1_555
C21_4 O13_2 1_555 1_555
C21_4 O14_2 1_555 1_555
C32_4 C34_4 1_555 1_555
O8_4 Eu9_2 1_555 1_555
H5_4 C9_4 1_555 1_555
C25_4 H13_4 1_555 1_555
C26_6 C25_4 1_555 1_555
C28_4 C25_4 1_555 1_555
H14_4 C28_4 1_555 1_555
C29_6 C28_4 1_555 1_555
C30_6 C29_6 1_555 1_555
O6_2 C30_6 1_555 1_555
C35_4 C26_6 1_555 1_555
H18_4 C35_4 1_555 1_555
C36_4 C29_6 1_555 1_555
H19_4 C36_4 1_555 1_555
O10_2 C30_6 1_555 1_555
H24_4 C45_4 1_555 1_555
Eu7_2 O6_2 1_555 1_555
Eu9_2 O10_2 1_555 1_555
C35_4 C36_4 1_555 1_555
C50_4 C51_4 1_555 1_555
C51_4 C52_4 1_555 1_555
C52_4 H26_4 1_555 1_555
C53_4 C52_4 1_555 1_555
H27_4 C53_4 1_555 1_555
C56_4 C51_4 1_555 1_555
H29_4 C56_4 1_555 1_555
O18_2 C50_4 1_555 1_555
Eu7_2 N1_4 1_555 1_555
C1_4 H1_4 1_555 1_555
C2_4 C1_4 1_555 1_555
H2_4 C2_4 1_555 1_555
C3_4 C2_4 1_555 1_555
H3_4 C3_4 1_555 1_555
C4_4 C3_4 1_555 1_555
C5_4 C4_4 1_555 1_555
C6_4 C5_4 1_555 1_555
C7_4 C6_4 1_555 1_555
C8_4 C7_4 1_555 1_555
H6_4 C10_4 1_555 1_555
C11_4 C7_4 1_555 1_555
C12_4 C4_4 1_555 1_555
C13_4 C18_4 1_555 1_555
C14_4 C15_4 1_555 1_555
C15_4 C16_4 1_555 1_555
C16_4 H7_4 1_555 1_555
C17_4 C16_4 1_555 1_555
H8_4 C17_4 1_555 1_555
C18_4 C17_4 1_555 1_555
C19_4 C18_4 1_555 1_555
H9_4 C19_4 1_555 1_555
C20_4 C15_4 1_555 1_555
H10_4 C20_4 1_555 1_555
N1_4 C1_4 1_555 1_555
N2_4 Eu7_2 1_555 1_555
N3_4 C12_4 1_555 1_555
H15_4 N3_4 1_555 1_555
N4_4 C11_4 1_555 1_555
O17_2 C14_4 1_555 1_555
O5_4 Eu7_2 1_555 1_555
O9_4 C27_6 1_555 1_555
Eu9_2 O9_4 1_555 1_555
C37_4 H20_4 1_555 1_555
C38_4 C37_4 1_555 1_555
H21_4 C38_4 1_555 1_555
C39_4 C38_4 1_555 1_555
H22_4 C39_4 1_555 1_555
C40_4 C39_4 1_555 1_555
C41_4 C40_4 1_555 1_555
C42_4 C41_4 1_555 1_555
C43_4 C42_4 1_555 1_555
C44_4 C43_4 1_555 1_555
H25_4 C46_4 1_555 1_555
C47_4 C43_4 1_555 1_555
C48_4 C40_4 1_555 1_555
C49_4 C54_4 1_555 1_555
C55_4 C54_4 1_555 1_555
H28_4 C55_4 1_555 1_555
N5_4 Eu9_2 1_555 1_555
N6_4 Eu9_2 1_555 1_555
N7_4 C48_4 1_555 1_555
H30_4 N7_4 1_555 1_555
N8_4 C47_4 1_555 1_555
C5_4 N1_4 1_555 1_555
C6_4 N2_4 1_555 1_555
C10_4 N2_4 1_555 1_555
C11_4 C12_4 1_555 1_555
C13_4 N3_4 1_555 1_555
C13_4 N4_4 1_555 1_555
C19_4 C20_4 1_555 1_555
C27_6 O5_4 1_555 1_555
C37_4 N5_4 1_555 1_555
C41_4 N5_4 1_555 1_555
C42_4 N6_4 1_555 1_555
C46_4 N6_4 1_555 1_555
C47_4 C48_4 1_555 1_555
C49_4 N7_4 1_555 1_555
C49_4 N8_4 1_555 1_555

#END
