
###############################################################################
#
# This file contains modified crystal structure data generated from the
# MOF subset of the Cambridge Structural Database (CSD) v543 
# hosted by the Cambridge Crystallographic Data Centre (CCDC).
#
# This work is licensed under the Creative Commons
# Attribution-NonCommercial-ShareAlike 4.0 International License.
# To view a copy of this license, visit
# http://creativecommons.org/licenses/by-nc-sa/4.0/
# or send a letter to
# Creative Commons, PO Box 1866, Mountain View, CA 94042, USA.
#
# CIF created using the CSD Python API on 29 September 2022
# The structure has been converted into the P1 space group
# The structure has a 3D framework
# The original CSD entry COYJIL is in the triclinic crystal system
# The framework has been calculated to contain at least 10.0% void space
# The void calculation uses a probe of radius 1.32A, grid spacing 0.4
#
###############################################################################

data_COYJIL
_chemical_formula_moiety         '(C68 H38 Eu1 N8 O12)n'
_symmetry_cell_setting           triclinic
_symmetry_space_group_name_H-M   'P 1'
_symmetry_Int_Tables_number      1
_space_group_name_Hall           'P 1'
loop_
_symmetry_equiv_pos_site_id
_symmetry_equiv_pos_as_xyz
1 x,y,z
_cell_length_a                   9.5948(19)
_cell_length_b                   11.227(2)
_cell_length_c                   14.752(3)
_cell_angle_alpha                82.390(4)
_cell_angle_beta                 83.808(4)
_cell_angle_gamma                83.401(4)
_cell_volume                     1557.72
loop_
_atom_site_label
_atom_site_type_symbol
_atom_site_fract_x
_atom_site_fract_y
_atom_site_fract_z
_atom_site_U_iso_or_equiv
_atom_site_thermal_displace_type
C42 C 0.0959(15) 0.1382(14) 0.9622(11) 0.1266 Uani
H24 H 0.1706 0.1203 0.9987 0.1520 Uiso
C43 C 0.0856(15) 0.2451(13) 0.9028(12) 0.1222 Uani
H25 H 0.1535 0.2988 0.8995 0.1450 Uiso
O9 O 0.0415(13) 0.4669(11) 0.7873(9) 0.0560 Uani
Eu1 Eu 0.06398(8) 0.40557(7) 0.33874(6) 0.0302 Uani
C21 C 0.269(2) 0.2625(17) 0.2332(16) 0.0551 Uani
C22 C 0.3492(14) 0.1844(10) 0.1689(8) 0.0573 Uani
C23 C 0.3676(17) 0.2329(9) 0.0772(9) 0.0958 Uani
H11 H 0.3386 0.3139 0.0599 0.1160 Uiso
C24 C 0.4294(17) 0.1604(12) 0.0114(7) 0.0906 Uani
C25 C 0.4727(14) 0.0393(11) 0.0372(7) 0.0544 Uani
C27 C 0.3925(14) 0.0634(11) 0.1947(6) 0.0516 Uani
H14 H 0.3802 0.0309 0.2561 0.0620 Uiso
C30 C 0.0261(14) 0.7281(10) 0.1517(9) 0.0541 Uani
C31 C 0.1275(12) 0.8084(11) 0.1468(9) 0.0565 Uani
H17 H 0.2022 0.7905 0.1832 0.0680 Uiso
C32 C 0.1172(12) 0.9153(10) 0.0874(9) 0.0632 Uani
H18 H 0.1851 0.9690 0.0841 0.0750 Uiso
C33 C 0.0056(15) 0.9420(11) 0.0329(9) 0.0640 Uani
C34 C 0.033(2) 0.6161(16) 0.2199(13) 0.0530 Uani
O3 O 0.2438(12) 0.2257(10) 0.3191(9) 0.0479 Uani
O4 O 0.2240(17) 0.3675(13) 0.2047(9) 0.0748 Uani
O6 O 0.1217(14) 0.6056(11) 0.2787(9) 0.0581 Uani
C53 C 0.0036(16) 0.2299(15) 0.5458(12) 0.0407 Uani
H30 H 0.0639 0.2813 0.5617 0.0490 Uiso
O14 O 0.1969(12) 0.4399(11) 0.4494(8) 0.0458 Uani
C1 C 0.1133(14) 0.8403(14) 0.5643(10) 0.0317 Uani
C2 C 0.1713(15) 0.9270(14) 0.4970(11) 0.0362 Uani
C3 C 0.1382(16) 0.9352(15) 0.4087(11) 0.0404 Uani
H1 H 0.1721 0.9950 0.3649 0.0490 Uiso
C4 C 0.0553(16) 0.8554(16) 0.3846(12) 0.0402 Uani
H2 H 0.0376 0.8569 0.3237 0.0480 Uiso
C6 C 0.1380(16) 0.8269(14) 0.6604(11) 0.0324 Uani
C7 C 0.224(2) 0.9050(16) 0.6899(13) 0.0498 Uani
C8 C 0.243(2) 0.8948(19) 0.7837(14) 0.0610 Uani
H4 H 0.2910 0.9501 0.8065 0.0730 Uiso
C9 C 0.191(2) 0.805(2) 0.8388(16) 0.0750 Uani
H5 H 0.2066 0.7932 0.9007 0.0900 Uiso
C10 C 0.112(2) 0.7264(18) 0.8030(14) 0.0630 Uani
H6 H 0.0779 0.6627 0.8430 0.0760 Uiso
C11 C 0.2848(15) 0.9950(14) 0.6220(11) 0.0346 Uani
N1 N 0.0249(12) 0.7618(11) 0.5412(9) 0.0291 Uani
N2 N 0.0815(13) 0.7375(12) 0.7157(10) 0.0429 Uani
C60 C 0.7416(14) 0.9973(14) 0.4674(11) 0.0342 Uani
C61 C 0.6097(16) 0.8596(14) 0.4443(13) 0.0403 Uani
C62 C 0.5150(16) 0.7591(14) 0.4664(12) 0.0375 Uani
C63 C 0.4662(18) 0.7166(17) 0.3941(12) 0.0483 Uani
H34 H 0.4956 0.7479 0.3345 0.0580 Uiso
C64 C 0.3735(17) 0.6277(15) 0.4082(12) 0.0425 Uani
H35 H 0.3437 0.5975 0.3586 0.0510 Uiso
C65 C 0.3274(16) 0.5862(14) 0.4954(11) 0.0353 Uani
C66 C 0.3805(16) 0.6256(15) 0.5673(13) 0.0433 Uani
H36 H 0.3532 0.5917 0.6266 0.0520 Uiso
C67 C 0.4690(17) 0.7099(16) 0.5563(12) 0.0444 Uani
H37 H 0.5003 0.7363 0.6070 0.0530 Uiso
C68 C 0.2125(17) 0.5021(12) 0.5130(12) 0.0346 Uani
N7 N 0.6736(12) 0.9026(11) 0.5116(9) 0.0335 Uani
N8 N 0.6332(14) 0.9226(13) 0.3631(11) 0.0462 Uani
H38 H 0.6026 0.9128 0.3122 0.0550 Uiso
O11 O 0.1336(11) 0.4994(11) 0.5861(8) 0.0426 Uani
H12 H 0.4417 0.1928 0.9501 0.1090 Uiso
C40 C 0.5457(13) 0.0092(9) 0.8711(8) 0.0478 Uani
H22 H 0.5167 0.0902 0.8538 0.0570 Uiso
C26 C 0.4543(13) 0.9908(9) 0.1289(8) 0.0478 Uani
H13 H 0.4833 0.9098 0.1462 0.0570 Uiso
H21 H 0.5583 0.8072 0.0499 0.1090 Uiso
C35 C 0.731(2) 0.7375(17) 0.7668(16) 0.0551 Uani
C36 C 0.6508(14) 0.8156(10) 0.8311(8) 0.0573 Uani
C37 C 0.6324(17) 0.7671(9) 0.9228(9) 0.0958 Uani
H20 H 0.6614 0.6861 0.9401 0.1160 Uiso
C38 C 0.5706(17) 0.8396(12) 0.9886(7) 0.0906 Uani
C39 C 0.5273(14) 0.9607(11) 0.9628(7) 0.0544 Uani
C41 C 0.6075(14) 0.9366(11) 0.8053(6) 0.0516 Uani
H23 H 0.6198 0.9691 0.7439 0.0620 Uiso
O7 O 0.7562(12) 0.7743(10) 0.6809(9) 0.0479 Uani
O8 O 0.7760(17) 0.6325(13) 0.7953(9) 0.0748 Uani
Eu6 Eu 0.93602(8) 0.59443(7) 0.66126(6) 0.0302 Uani
C44 C 0.9739(14) 0.2719(10) 0.8483(9) 0.0541 Uani
C45 C 0.8725(12) 0.1916(11) 0.8532(9) 0.0565 Uani
H26 H 0.7978 0.2095 0.8168 0.0680 Uiso
C46 C 0.8828(12) 0.0847(10) 0.9126(9) 0.0632 Uani
H27 H 0.8149 0.0310 0.9159 0.0750 Uiso
C47 C 0.9944(15) 0.0580(11) 0.9671(9) 0.0640 Uani
C48 C 0.967(2) 0.3839(16) 0.7801(13) 0.0530 Uani
O10 O 0.8783(14) 0.3944(11) 0.7213(9) 0.0581 Uani
C12 C 0.2584(14) 0.0027(14) 0.5326(11) 0.0342 Uani
C13 C 0.3903(16) 0.1404(14) 0.5557(13) 0.0403 Uani
C14 C 0.4850(16) 0.2409(14) 0.5336(12) 0.0375 Uani
C15 C 0.5338(18) 0.2834(17) 0.6059(12) 0.0483 Uani
H7 H 0.5044 0.2521 0.6655 0.0580 Uiso
C16 C 0.6265(17) 0.3723(15) 0.5918(12) 0.0425 Uani
H8 H 0.6563 0.4025 0.6414 0.0510 Uiso
C17 C 0.6726(16) 0.4138(14) 0.5046(11) 0.0353 Uani
C18 C 0.6195(16) 0.3744(15) 0.4327(13) 0.0433 Uani
H9 H 0.6468 0.4083 0.3734 0.0520 Uiso
C19 C 0.5310(17) 0.2901(16) 0.4437(12) 0.0444 Uani
H10 H 0.4997 0.2637 0.3930 0.0530 Uiso
C20 C 0.7875(17) 0.4979(12) 0.4870(12) 0.0346 Uani
C28 C 0.9041(15) 0.8618(14) 0.0378(11) 0.1266 Uani
H15 H 0.8294 0.8797 0.0013 0.1520 Uiso
C29 C 0.9144(15) 0.7549(13) 0.0972(12) 0.1222 Uani
H16 H 0.8465 0.7012 0.1005 0.1450 Uiso
N3 N 0.3264(12) 0.0974(11) 0.4884(9) 0.0335 Uani
N4 N 0.3668(14) 0.0774(13) 0.6369(11) 0.0462 Uani
H19 H 0.3974 0.0872 0.6878 0.0550 Uiso
O1 O 0.8664(11) 0.5006(11) 0.4139(8) 0.0426 Uani
O2 O 0.8031(12) 0.5601(11) 0.5506(8) 0.0458 Uani
O5 O 0.9585(13) 0.5331(11) 0.2127(9) 0.0560 Uani
C49 C 0.8867(14) 0.1597(14) 0.4357(10) 0.0317 Uani
C50 C 0.8287(15) 0.0730(14) 0.5030(11) 0.0362 Uani
C51 C 0.8618(16) 0.0648(15) 0.5913(11) 0.0404 Uani
H28 H 0.8279 0.0050 0.6351 0.0490 Uiso
C52 C 0.9447(16) 0.1446(16) 0.6154(12) 0.0402 Uani
H29 H 0.9624 0.1431 0.6763 0.0480 Uiso
C54 C 0.8620(16) 0.1731(14) 0.3396(11) 0.0324 Uani
C55 C 0.776(2) 0.0950(16) 0.3101(13) 0.0498 Uani
C56 C 0.757(2) 0.1052(19) 0.2163(14) 0.0610 Uani
H31 H 0.7090 0.0499 0.1935 0.0730 Uiso
C57 C 0.809(2) 0.195(2) 0.1612(16) 0.0750 Uani
H32 H 0.7934 0.2068 0.0993 0.0900 Uiso
C58 C 0.888(2) 0.2736(18) 0.1970(14) 0.0630 Uani
H33 H 0.9221 0.3373 0.1570 0.0760 Uiso
C59 C 0.7152(15) 0.0050(14) 0.3780(11) 0.0346 Uani
N5 N 0.9751(12) 0.2382(11) 0.4588(9) 0.0291 Uani
N6 N 0.9185(13) 0.2625(12) 0.2843(10) 0.0429 Uani
C5 C 0.9964(16) 0.7701(15) 0.4542(12) 0.0407 Uani
H3 H 0.9361 0.7187 0.4383 0.0490 Uiso
loop_
_atom_site_aniso_label
_atom_site_aniso_U_11
_atom_site_aniso_U_22
_atom_site_aniso_U_33
_atom_site_aniso_U_23
_atom_site_aniso_U_13
_atom_site_aniso_U_12
C42 0.126 0.092 0.156 0.052 -0.042 -0.037
C43 0.1 0.09 0.17 0.08 -0.05 -0.057
O9 0.062 0.033 0.075 0.013 -0.015 -0.028
Eu1 0.0296 0.0236 0.037 0.0001 0.0024 -0.0107
C21 0.052 0.032 0.083 -0.015 -0.003 -0.006
C22 0.049 0.065 0.054 0.002 0.01 -0.014
C23 0.14 0.069 0.064 -0.015 0.056 -0.003
C24 0.121 0.075 0.064 0.004 0.019 0
C25 0.051 0.047 0.065 -0.018 0.003 0.001
C27 0.062 0.043 0.048 -0.009 0.003 -0.002
C30 0.054 0.056 0.053 0.015 -0.017 -0.022
C31 0.039 0.05 0.076 0.019 -0.008 -0.014
C32 0.055 0.072 0.062 0.005 -0.019 -0.007
C33 0.065 0.069 0.061 0.024 -0.013 -0.05
C34 0.069 0.032 0.055 -0.003 0.017 -0.016
O3 0.052 0.035 0.055 -0.001 0.002 -0.009
O4 0.108 0.06 0.044 -0.002 0.031 0.003
O6 0.065 0.045 0.065 0.013 -0.022 -0.017
C53 0.029 0.031 0.059 -0.002 0.001 0.001
O14 0.038 0.04 0.059 0.006 -0.018 -0.004
C1 0.021 0.036 0.038 -0.005 -0.001 -0.004
C2 0.027 0.027 0.049 0.004 0.012 -0.003
C3 0.032 0.045 0.039 0.01 0.018 -0.019
C4 0.035 0.051 0.037 -0.014 0.002 -0.009
C6 0.035 0.03 0.033 0.002 -0.014 -0.003
C7 0.059 0.036 0.052 0.009 -0.006 -0.011
C8 0.065 0.064 0.063 -0.006 -0.019 -0.034
C9 0.08 0.1 0.056 -0.015 -0.02 -0.037
C10 0.091 0.044 0.056 0.016 -0.02 -0.028
C11 0.028 0.031 0.047 -0.001 -0.001 -0.019
N1 0.021 0.025 0.042 -0.001 -0.011 -0.001
N2 0.033 0.032 0.06 0.009 0.003 -0.012
C60 0.014 0.038 0.049 -0.004 0.012 -0.011
C61 0.028 0.022 0.071 0.004 -0.011 -0.008
C62 0.033 0.025 0.059 -0.016 -0.007 -0.007
C63 0.045 0.065 0.034 0.002 0.016 -0.03
C64 0.044 0.041 0.046 0 -0.012 -0.018
C65 0.03 0.033 0.046 -0.007 -0.005 -0.012
C66 0.034 0.032 0.061 0.004 0 -0.007
C67 0.035 0.049 0.049 0.002 0 -0.016
C68 0.046 0.01 0.052 0 -0.03 -0.001
N7 0.023 0.027 0.052 -0.005 -0.008 -0.005
N8 0.041 0.038 0.063 -0.001 -0.015 -0.015
O11 0.028 0.046 0.051 -0.004 0.017 -0.013
C40 0.038 0.057 0.046 -0.005 0 0
C26 0.038 0.057 0.046 -0.005 0 0
C35 0.052 0.032 0.083 -0.015 -0.003 -0.006
C36 0.049 0.065 0.054 0.002 0.01 -0.014
C37 0.14 0.069 0.064 -0.015 0.056 -0.003
C38 0.121 0.075 0.064 0.004 0.019 0
C39 0.051 0.047 0.065 -0.018 0.003 0.001
C41 0.062 0.043 0.048 -0.009 0.003 -0.002
O7 0.052 0.035 0.055 -0.001 0.002 -0.009
O8 0.108 0.06 0.044 -0.002 0.031 0.003
Eu6 0.0296 0.0236 0.037 0.0001 0.0024 -0.0107
C44 0.054 0.056 0.053 0.015 -0.017 -0.022
C45 0.039 0.05 0.076 0.019 -0.008 -0.014
C46 0.055 0.072 0.062 0.005 -0.019 -0.007
C47 0.065 0.069 0.061 0.024 -0.013 -0.05
C48 0.069 0.032 0.055 -0.003 0.017 -0.016
O10 0.065 0.045 0.065 0.013 -0.022 -0.017
C12 0.014 0.038 0.049 -0.004 0.012 -0.011
C13 0.028 0.022 0.071 0.004 -0.011 -0.008
C14 0.033 0.025 0.059 -0.016 -0.007 -0.007
C15 0.045 0.065 0.034 0.002 0.016 -0.03
C16 0.044 0.041 0.046 0 -0.012 -0.018
C17 0.03 0.033 0.046 -0.007 -0.005 -0.012
C18 0.034 0.032 0.061 0.004 0 -0.007
C19 0.035 0.049 0.049 0.002 0 -0.016
C20 0.046 0.01 0.052 0 -0.03 -0.001
C28 0.126 0.092 0.156 0.052 -0.042 -0.037
C29 0.1 0.09 0.17 0.08 -0.05 -0.057
N3 0.023 0.027 0.052 -0.005 -0.008 -0.005
N4 0.041 0.038 0.063 -0.001 -0.015 -0.015
O1 0.028 0.046 0.051 -0.004 0.017 -0.013
O2 0.038 0.04 0.059 0.006 -0.018 -0.004
O5 0.062 0.033 0.075 0.013 -0.015 -0.028
C49 0.021 0.036 0.038 -0.005 -0.001 -0.004
C50 0.027 0.027 0.049 0.004 0.012 -0.003
C51 0.032 0.045 0.039 0.01 0.018 -0.019
C52 0.035 0.051 0.037 -0.014 0.002 -0.009
C54 0.035 0.03 0.033 0.002 -0.014 -0.003
C55 0.059 0.036 0.052 0.009 -0.006 -0.011
C56 0.065 0.064 0.063 -0.006 -0.019 -0.034
C57 0.08 0.1 0.056 -0.015 -0.02 -0.037
C58 0.091 0.044 0.056 0.016 -0.02 -0.028
C59 0.028 0.031 0.047 -0.001 -0.001 -0.019
N5 0.021 0.025 0.042 -0.001 -0.011 -0.001
N6 0.033 0.032 0.06 0.009 0.003 -0.012
C5 0.029 0.031 0.059 -0.002 0.001 0.001
loop_
_geom_bond_atom_site_label_1
_geom_bond_atom_site_label_2
_geom_bond_site_symmetry_1
_geom_bond_site_symmetry_2
C42 H24 1_555 1_555
C43 C42 1_555 1_555
H25 C43 1_555 1_555
C21 C22 1_555 1_555
C22 C23 1_555 1_555
C23 H11 1_555 1_555
C24 C23 1_555 1_555
C25 C24 1_555 1_555
C27 C22 1_555 1_555
H14 C27 1_555 1_555
C31 C30 1_555 1_555
H17 C31 1_555 1_555
C32 C31 1_555 1_555
H18 C32 1_555 1_555
C34 C30 1_555 1_555
O3 Eu1 1_555 1_555
O4 Eu1 1_555 1_555
O6 Eu1 1_555 1_555
H30 C53 1_555 1_555
O14 Eu1 1_555 1_555
C21 O3 1_555 1_555
C21 O4 1_555 1_555
C32 C33 1_555 1_555
C34 O6 1_555 1_555
C1 C2 1_555 1_555
C2 C3 1_555 1_555
C3 H1 1_555 1_555
C4 C3 1_555 1_555
H2 C4 1_555 1_555
C6 C1 1_555 1_555
C7 C6 1_555 1_555
C8 C7 1_555 1_555
H4 C8 1_555 1_555
C9 C8 1_555 1_555
H5 C9 1_555 1_555
C10 C9 1_555 1_555
H6 C10 1_555 1_555
C11 C7 1_555 1_555
N1 C1 1_555 1_555
N2 C6 1_555 1_555
C61 C62 1_555 1_555
C62 C63 1_555 1_555
C63 H34 1_555 1_555
C64 C63 1_555 1_555
H35 C64 1_555 1_555
C65 C64 1_555 1_555
C66 C65 1_555 1_555
H36 C66 1_555 1_555
C67 C62 1_555 1_555
H37 C67 1_555 1_555
C68 C65 1_555 1_555
N7 C60 1_555 1_555
H38 N8 1_555 1_555
O14 C68 1_555 1_555
C10 N2 1_555 1_555
C61 N7 1_555 1_555
C61 N8 1_555 1_555
C66 C67 1_555 1_555
C68 O11 1_555 1_555
H22 C40 1_555 1_555
H13 C26 1_555 1_555
C35 C36 1_555 1_555
C36 C37 1_555 1_555
C37 H20 1_555 1_555
C38 C37 1_555 1_555
C41 C36 1_555 1_555
H23 C41 1_555 1_555
O7 C35 1_555 1_555
O8 C35 1_555 1_555
Eu6 O7 1_555 1_555
C38 C39 1_555 1_555
O8 Eu6 1_555 1_555
C45 C44 1_555 1_555
H26 C45 1_555 1_555
C46 C45 1_555 1_555
H27 C46 1_555 1_555
C48 C44 1_555 1_555
O10 C48 1_555 1_555
C46 C47 1_555 1_555
O10 Eu6 1_555 1_555
C13 C14 1_555 1_555
C14 C15 1_555 1_555
C15 H7 1_555 1_555
C16 C15 1_555 1_555
H8 C16 1_555 1_555
C17 C16 1_555 1_555
C18 C17 1_555 1_555
H9 C18 1_555 1_555
C19 C14 1_555 1_555
H10 C19 1_555 1_555
C20 C17 1_555 1_555
C28 H15 1_555 1_555
C29 C28 1_555 1_555
H16 C29 1_555 1_555
N3 C12 1_555 1_555
H19 N4 1_555 1_555
O1 C20 1_555 1_555
O2 C20 1_555 1_555
C49 C50 1_555 1_555
C50 C51 1_555 1_555
C51 H28 1_555 1_555
C52 C51 1_555 1_555
H29 C52 1_555 1_555
C54 C49 1_555 1_555
C55 C54 1_555 1_555
C56 C55 1_555 1_555
H31 C56 1_555 1_555
C57 C56 1_555 1_555
H32 C57 1_555 1_555
C58 C57 1_555 1_555
H33 C58 1_555 1_555
C59 C55 1_555 1_555
Eu6 O2 1_555 1_555
C13 N3 1_555 1_555
C13 N4 1_555 1_555
C18 C19 1_555 1_555
C49 N5 1_555 1_555
C54 N6 1_555 1_555
C58 N6 1_555 1_555
H3 C5 1_555 1_555

#END
