
###############################################################################
#
# This file contains modified crystal structure data generated from the
# MOF subset of the Cambridge Structural Database (CSD) v543 
# hosted by the Cambridge Crystallographic Data Centre (CCDC).
#
# This work is licensed under the Creative Commons
# Attribution-NonCommercial-ShareAlike 4.0 International License.
# To view a copy of this license, visit
# http://creativecommons.org/licenses/by-nc-sa/4.0/
# or send a letter to
# Creative Commons, PO Box 1866, Mountain View, CA 94042, USA.
#
# CIF created using the CSD Python API on 29 September 2022
# The structure has been converted into the P1 space group
# The structure has a 3D framework
# The original CSD entry COYTUG01 is in the monoclinic crystal system
# The framework has been calculated to contain at least 10.0% void space
# The void calculation uses a probe of radius 1.32A, grid spacing 0.4
# H atom positions have been added when not included in the experimental data
# Generated hydrogen atom positions removed from atoms on special positions
#
###############################################################################

data_COYTUG01
_chemical_formula_moiety         '(C172 H144 N28 O124 Tb20)n'
_symmetry_cell_setting           triclinic
_symmetry_space_group_name_H-M   'P 1'
_symmetry_Int_Tables_number      1
_space_group_name_Hall           'P 1'
loop_
_symmetry_equiv_pos_site_id
_symmetry_equiv_pos_as_xyz
1 x,y,z
_cell_length_a                   12.130(4)
_cell_length_b                   22.320(7)
_cell_length_c                   21.819(9)
_cell_angle_alpha                90
_cell_angle_beta                 105.325(12)
_cell_angle_gamma                90
_cell_volume                     5697.26
loop_
_atom_site_label
_atom_site_type_symbol
_atom_site_fract_x
_atom_site_fract_y
_atom_site_fract_z
O16 O 0.052(3) 0.3331(19) 0.5265(16)
H27 H 0.109603 0.356661 0.511802
H28 H 0.0661814 0.337512 0.573227
Tb1 Tb 0.0000 0.21250(5) 0.2500
Tb2 Tb 0.5000 0.25298(5) 0.2500
Tb3 Tb 0.86219(8) 0.36955(7) 0.47444(4)
O1 O 0.6434(12) 0.3246(7) 0.3016(5)
O2 O 0.7149(10) 0.3891(5) 0.3816(5)
O3 O 0.3262(11) 0.2260(5) 0.2761(5)
O4 O 0.1784(11) 0.2533(5) 0.3126(6)
O5 O 0.3049(17) 0.6569(7) 0.4898(9)
O6 O 0.409(3) 0.6375(14) 0.4229(14)
O7 O 0.0596(16) 0.5412(7) 0.5354(9)
O8 O 0.170(3) 0.4459(12) 0.5850(13)
O9 O 0.0433(13) 0.2630(7) 0.1582(6)
O10 O 0.0359(13) 0.3449(8) 0.0978(6)
O11 O 0.0757(12) 0.7052(6) 0.3524(6)
O12 O 0.0884(14) 0.6230(7) 0.4134(6)
O13 O 0.1484(12) 0.1549(7) 0.2170(7)
O14 O 0.0771(14) 0.1414(7) 0.3366(8)
O15 O 0.802(2) 0.2719(8) 0.4344(12)
N1 N 0.4494(12) 0.3163(6) 0.3314(6)
N2 N 0.2446(13) 0.5449(8) 0.4939(6)
C1 C 0.0370(17) 0.3165(11) 0.1494(9)
C2 C 0.0685(17) 0.6501(11) 0.3609(9)
C3 C 0.6374(15) 0.3592(8) 0.3470(8)
C4 C 0.5192(13) 0.3603(7) 0.3608(7)
C5 C 0.4857(13) 0.4042(7) 0.3954(7)
H1 H 0.5371 0.4352 0.4145
C6 C 0.3740(15) 0.4030(7) 0.4024(8)
C7 C 0.3057(17) 0.3550(8) 0.3773(8)
H2 H 0.2315 0.3510 0.3838
C8 C 0.3470(14) 0.3124(7) 0.3423(7)
C9 C 0.2763(17) 0.2589(8) 0.3065(8)
C10 C 0.344(3) 0.6223(11) 0.4556(18)
C11 C 0.317(2) 0.5552(8) 0.4592(11)
C12 C 0.363(2) 0.5106(8) 0.4308(11)
H3 H 0.4164 0.5200 0.4071
C13 C 0.3316(15) 0.4507(8) 0.4370(8)
C14 C 0.2528(19) 0.4427(8) 0.4718(10)
H4 H 0.2251 0.4036 0.4759
C15 C 0.213(2) 0.4902(9) 0.5010(11)
C16 C 0.1329(16) 0.4947(8) 0.5472(10)
N3 N 0.0000 0.3265(9) 0.2500
C17 C 0.0168(17) 0.3573(7) 0.2008(8)
C18 C 0.017(2) 0.4179(8) 0.1988(10)
H5 H 0.0288 0.4380 0.1627
C19 C 0.0000 0.4509(9) 0.2500
N4 N 0.0000 0.6414(9) 0.2500
C20 C 0.0318(19) 0.6093(7) 0.3028(8)
C21 C 0.0319(19) 0.5488(8) 0.3055(9)
H6 H 0.0538 0.5291 0.3455
C22 C 0.0000 0.5154(15) 0.2500
Tb4 Tb 0.0000 0.75298(5) 0.2500
Tb7 Tb 0.13781(8) 0.63045(7) 0.52556(4)
Tb8 Tb 0.13781(8) 0.36955(7) 0.02556(4)
O18 O 0.3566(12) 0.3246(7) 0.1984(5)
O21 O 0.6738(11) 0.2260(5) 0.2239(5)
O24 O 0.6951(17) 0.3431(7) 0.5102(9)
O28 O 0.9404(16) 0.4588(7) 0.4646(9)
O33 O 0.9641(13) 0.3449(8) 0.4022(6)
O36 O 0.5757(12) 0.2052(6) 0.3524(6)
O37 O 0.4243(12) 0.2052(6) 0.1476(6)
O39 O 0.9116(14) 0.3770(7) 0.5866(6)
N6 N 0.5506(12) 0.3163(6) 0.1686(6)
N8 N 0.7554(13) 0.4551(8) 0.5061(6)
N10 N 0.5000 0.1414(9) 0.2500
H21 H 0.813001 0.267487 0.391116
H22 H 0.848068 0.241192 0.462948
Tb1_2 Tb 1.0000 0.21250(5) 0.2500
N3_2 N 1.0000 0.3265(9) 0.2500
C19_2 C 1.0000 0.4509(9) 0.2500
N4_2 N 1.0000 0.6414(9) 0.2500
C22_2 C 1.0000 0.5154(15) 0.2500
Tb4_2 Tb 1.0000 0.75298(5) 0.2500
O19 O 0.2851(10) 0.3891(5) 0.1184(5)
O22 O 0.8216(11) 0.2533(5) 0.1874(6)
O23 O 0.6951(17) 0.6569(7) 0.0102(9)
O26 O 0.591(3) 0.6375(14) 0.0771(14)
O29 O 0.0596(16) 0.4588(7) 0.0354(9)
O31 O 0.9567(13) 0.2630(7) 0.3418(6)
O35 O 0.9243(12) 0.7052(6) 0.1476(6)
O38 O 0.9116(14) 0.6230(7) 0.0866(6)
O41 O 0.8516(12) 0.1549(7) 0.2830(7)
O42 O 0.9229(14) 0.1414(7) 0.1634(8)
O43 O 0.198(2) 0.2719(8) 0.0656(12)
N7 N 0.7554(13) 0.5449(8) 0.0061(6)
C23 C 0.9630(17) 0.3165(11) 0.3506(9)
C24 C 0.9315(17) 0.6501(11) 0.1391(9)
C25 C 0.3626(15) 0.3592(8) 0.1530(8)
C26 C 0.4808(13) 0.3603(7) 0.1392(7)
C27 C 0.5143(13) 0.4042(7) 0.1046(7)
H7 H 0.4629 0.4352 0.0855
C28 C 0.6260(15) 0.4030(7) 0.0976(8)
C29 C 0.6943(17) 0.3550(8) 0.1227(8)
H8 H 0.7685 0.3510 0.1162
C30 C 0.6530(14) 0.3124(7) 0.1577(7)
C31 C 0.7237(17) 0.2589(8) 0.1935(8)
C32 C 0.656(3) 0.6223(11) 0.0444(18)
C33 C 0.683(2) 0.5552(8) 0.0408(11)
C34 C 0.637(2) 0.5106(8) 0.0692(11)
H9 H 0.5836 0.5200 0.0929
C35 C 0.6684(15) 0.4507(8) 0.0630(8)
C36 C 0.7472(19) 0.4427(8) 0.0282(10)
H10 H 0.7749 0.4036 0.0241
C39 C 0.9832(17) 0.3573(7) 0.2992(8)
C40 C 0.983(2) 0.4179(8) 0.3012(10)
H11 H 0.9712 0.4380 0.3373
C41 C 0.9682(19) 0.6093(7) 0.1972(8)
C42 C 0.9681(19) 0.5488(8) 0.1945(9)
H12 H 0.9462 0.5291 0.1545
H17 H 0.186999 0.267487 0.108884
H18 H 0.151932 0.241192 0.0370515
Tb10 Tb 0.86219(8) 0.63045(7) 0.97444(4)
O25 O 0.3049(17) 0.3431(7) 0.9898(9)
O27 O 0.9404(16) 0.5412(7) 0.9646(9)
O30 O 0.830(3) 0.4459(12) 0.9150(13)
O40 O 0.0884(14) 0.3770(7) 0.9134(6)
N9 N 0.2446(13) 0.4551(8) 0.9939(6)
C37 C 0.787(2) 0.4902(9) 0.9990(11)
C38 C 0.8671(16) 0.4947(8) 0.9528(10)
Tb3_2 Tb 0.36219(8) 0.86955(7) 0.47444(4)
O1_2 O 0.1434(12) 0.8246(7) 0.3016(5)
O2_2 O 0.2149(10) 0.8891(5) 0.3816(5)
O15_2 O 0.302(2) 0.7719(8) 0.4344(12)
O16_2 O 0.552(3) 0.8331(19) 0.5265(16)
C3_2 C 0.1374(15) 0.8592(8) 0.3470(8)
C4_2 C 0.0192(13) 0.8603(7) 0.3608(7)
H1_2 H 0.0371 0.9352 0.4145
O21_2 O 0.1738(11) 0.7260(5) 0.2239(5)
O24_2 O 0.1951(17) 0.8431(7) 0.5102(9)
O28_2 O 0.4404(16) 0.9588(7) 0.4646(9)
O33_2 O 0.4641(13) 0.8449(8) 0.4022(6)
O39_2 O 0.4116(14) 0.8770(7) 0.5866(6)
N6_2 N 0.0506(12) 0.8163(6) 0.1686(6)
N8_2 N 0.2554(13) 0.9551(8) 0.5061(6)
H21_2 H 0.313001 0.767487 0.391116
H22_2 H 0.348068 0.741192 0.462948
H27_2 H 0.609603 0.856661 0.511802
H28_2 H 0.566181 0.837512 0.573227
O5_2 O 0.8049(17) 0.1569(7) 0.4898(9)
O6_2 O 0.909(3) 0.1375(14) 0.4229(14)
O7_2 O 0.5596(16) 0.0412(7) 0.5354(9)
O12_2 O 0.5884(14) 0.1230(7) 0.4134(6)
N2_2 N 0.7446(13) 0.0449(8) 0.4939(6)
C2_2 C 0.5685(17) 0.1501(11) 0.3609(9)
C10_2 C 0.844(3) 0.1223(11) 0.4556(18)
C11_2 C 0.817(2) 0.0552(8) 0.4592(11)
C12_2 C 0.863(2) 0.0106(8) 0.4308(11)
H3_2 H 0.9164 0.0200 0.4071
C20_2 C 0.5318(19) 0.1093(7) 0.3028(8)
C21_2 C 0.5319(19) 0.0488(8) 0.3055(9)
H6_2 H 0.5538 0.0291 0.3455
C22_3 C 0.5000 0.0154(15) 0.2500
Tb7_2 Tb 0.63781(8) 0.13045(7) 0.52556(4)
O23_2 O 0.1951(17) 0.1569(7) 0.0102(9)
O26_2 O 0.091(3) 0.1375(14) 0.0771(14)
O38_2 O 0.4116(14) 0.1230(7) 0.0866(6)
N7_2 N 0.2554(13) 0.0449(8) 0.0061(6)
C24_2 C 0.4315(17) 0.1501(11) 0.1391(9)
C32_2 C 0.156(3) 0.1223(11) 0.0444(18)
C33_2 C 0.183(2) 0.0552(8) 0.0408(11)
C34_2 C 0.137(2) 0.0106(8) 0.0692(11)
H9_2 H 0.0836 0.0200 0.0929
C41_2 C 0.4682(19) 0.1093(7) 0.1972(8)
C42_2 C 0.4681(19) 0.0488(8) 0.1945(9)
H12_2 H 0.4462 0.0291 0.1545
Tb10_2 Tb 0.36219(8) 0.13045(7) 0.97444(4)
O27_2 O 0.4404(16) 0.0412(7) 0.9646(9)
Tb1_3 Tb 0.5000 0.71250(5) 0.2500
O3_2 O 0.8262(11) 0.7260(5) 0.2761(5)
O4_2 O 0.6784(11) 0.7533(5) 0.3126(6)
O8_2 O 0.670(3) 0.9459(12) 0.5850(13)
O9_2 O 0.5433(13) 0.7630(7) 0.1582(6)
O10_2 O 0.5359(13) 0.8449(8) 0.0978(6)
O13_2 O 0.6484(12) 0.6549(7) 0.2170(7)
O14_2 O 0.5771(14) 0.6414(7) 0.3366(8)
N1_2 N 0.9494(12) 0.8163(6) 0.3314(6)
C1_2 C 0.5370(17) 0.8165(11) 0.1494(9)
C5_2 C 0.9857(13) 0.9042(7) 0.3954(7)
C6_2 C 0.8740(15) 0.9030(7) 0.4024(8)
C7_2 C 0.8057(17) 0.8550(8) 0.3773(8)
H2_2 H 0.7315 0.8510 0.3838
C8_2 C 0.8470(14) 0.8124(7) 0.3423(7)
C9_2 C 0.7763(17) 0.7589(8) 0.3065(8)
C13_2 C 0.8316(15) 0.9507(8) 0.4370(8)
C14_2 C 0.7528(19) 0.9427(8) 0.4718(10)
H4_2 H 0.7251 0.9036 0.4759
C15_2 C 0.713(2) 0.9902(9) 0.5010(11)
C16_2 C 0.6329(16) 0.9947(8) 0.5472(10)
N3_3 N 0.5000 0.8265(9) 0.2500
C17_2 C 0.5168(17) 0.8573(7) 0.2008(8)
C18_2 C 0.517(2) 0.9179(8) 0.1988(10)
H5_2 H 0.5288 0.9380 0.1627
C19_3 C 0.5000 0.9509(9) 0.2500
Tb8_2 Tb 0.63781(8) 0.86955(7) 0.02556(4)
O18_2 O 0.8566(12) 0.8246(7) 0.1984(5)
O22_2 O 0.3216(11) 0.7533(5) 0.1874(6)
O31_2 O 0.4567(13) 0.7630(7) 0.3418(6)
O41_2 O 0.3516(12) 0.6549(7) 0.2830(7)
O42_2 O 0.4229(14) 0.6414(7) 0.1634(8)
C23_2 C 0.4630(17) 0.8165(11) 0.3506(9)
C27_2 C 0.0143(13) 0.9042(7) 0.1046(7)
C28_2 C 0.1260(15) 0.9030(7) 0.0976(8)
C29_2 C 0.1943(17) 0.8550(8) 0.1227(8)
H8_2 H 0.2685 0.8510 0.1162
C30_2 C 0.1530(14) 0.8124(7) 0.1577(7)
C31_2 C 0.2237(17) 0.7589(8) 0.1935(8)
C35_2 C 0.1684(15) 0.9507(8) 0.0630(8)
C36_2 C 0.2472(19) 0.9427(8) 0.0282(10)
H10_2 H 0.2749 0.9036 0.0241
C39_2 C 0.4832(17) 0.8573(7) 0.2992(8)
C40_2 C 0.483(2) 0.9179(8) 0.3012(10)
H11_2 H 0.4712 0.9380 0.3373
O19_2 O 0.7851(10) 0.8891(5) 0.1184(5)
O29_2 O 0.5596(16) 0.9588(7) 0.0354(9)
O43_2 O 0.698(2) 0.7719(8) 0.0656(12)
C25_2 C 0.8626(15) 0.8592(8) 0.1530(8)
C26_2 C 0.9808(13) 0.8603(7) 0.1392(7)
H7_2 H 0.9629 0.9352 0.0855
H17_2 H 0.686999 0.767487 0.108884
H18_2 H 0.651932 0.741192 0.0370515
O25_2 O 0.8049(17) 0.8431(7) 0.9898(9)
O40_2 O 0.5884(14) 0.8770(7) 0.9134(6)
O44 O 0.448(3) 0.8331(19) 0.9735(16)
N9_2 N 0.7446(13) 0.9551(8) 0.9939(6)
H19 H 0.390397 0.856661 0.988198
H20 H 0.433819 0.837512 0.926773
O30_2 O 0.170(3) 0.5541(12) 0.0850(13)
C37_2 C 0.213(2) 0.5098(9) 0.0010(11)
C38_2 C 0.1329(16) 0.5053(8) 0.0472(10)
Tb1_4 Tb 0.0000 0.78750(5) 0.7500
N3_4 N 0.0000 0.6735(9) 0.7500
C19_4 C 0.0000 0.5491(9) 0.7500
N4_3 N 0.0000 0.3586(9) 0.7500
C22_4 C 0.0000 0.4846(15) 0.7500
Tb4_3 Tb 0.0000 0.24702(5) 0.7500
Tb5 Tb 0.5000 0.74702(5) 0.7500
O17 O 0.6434(12) 0.6754(7) 0.8016(5)
O19_3 O 0.7149(10) 0.6109(5) 0.8816(5)
O20 O 0.3262(11) 0.7740(5) 0.7761(5)
O22_3 O 0.1784(11) 0.7467(5) 0.8126(6)
O26_3 O 0.409(3) 0.3625(14) 0.9229(14)
O31_3 O 0.0433(13) 0.7370(7) 0.6582(6)
O32 O 0.0359(13) 0.6551(8) 0.5978(6)
O34 O 0.9641(13) 0.6551(8) 0.9022(6)
O35_2 O 0.0757(12) 0.2948(6) 0.8524(6)
O41_3 O 0.1484(12) 0.8451(7) 0.7170(7)
O42_3 O 0.0771(14) 0.8586(7) 0.8366(8)
O43_3 O 0.802(2) 0.7281(8) 0.9344(12)
N5 N 0.4494(12) 0.6837(6) 0.8314(6)
C23_3 C 0.0370(17) 0.6835(11) 0.6494(9)
C24_3 C 0.0685(17) 0.3499(11) 0.8609(9)
C25_3 C 0.6374(15) 0.6408(8) 0.8470(8)
C26_3 C 0.5192(13) 0.6397(7) 0.8608(7)
C27_3 C 0.4857(13) 0.5958(7) 0.8954(7)
H7_3 H 0.5371 0.5648 0.9145
C28_3 C 0.3740(15) 0.5970(7) 0.9024(8)
C29_3 C 0.3057(17) 0.6450(8) 0.8773(8)
H8_3 H 0.2315 0.6490 0.8838
C30_3 C 0.3470(14) 0.6876(7) 0.8423(7)
C31_3 C 0.2763(17) 0.7411(8) 0.8065(8)
C32_3 C 0.344(3) 0.3777(11) 0.9556(18)
C33_3 C 0.317(2) 0.4448(8) 0.9592(11)
C34_3 C 0.363(2) 0.4894(8) 0.9308(11)
H9_3 H 0.4164 0.4800 0.9071
C35_3 C 0.3316(15) 0.5493(8) 0.9370(8)
C36_3 C 0.2528(19) 0.5573(8) 0.9718(10)
H10_3 H 0.2251 0.5964 0.9759
C39_3 C 0.0168(17) 0.6427(7) 0.7008(8)
C40_3 C 0.017(2) 0.5821(8) 0.6988(10)
H11_3 H 0.0288 0.5620 0.6627
C41_3 C 0.0318(19) 0.3907(7) 0.8028(8)
C42_3 C 0.0319(19) 0.4512(8) 0.8055(9)
H12_3 H 0.0538 0.4709 0.8455
H17_3 H 0.813001 0.732513 0.891116
H18_3 H 0.848068 0.758808 0.962948
Tb1_5 Tb 1.0000 0.78750(5) 0.7500
O1_3 O 0.3566(12) 0.6754(7) 0.6984(5)
O2_3 O 0.2851(10) 0.6109(5) 0.6184(5)
O3_3 O 0.6738(11) 0.7740(5) 0.7239(5)
O4_3 O 0.8216(11) 0.7467(5) 0.6874(6)
O6_3 O 0.591(3) 0.3625(14) 0.5771(14)
O8_3 O 0.830(3) 0.5541(12) 0.4150(13)
O9_3 O 0.9567(13) 0.7370(7) 0.8418(6)
O11_2 O 0.9243(12) 0.2948(6) 0.6476(6)
O13_3 O 0.8516(12) 0.8451(7) 0.7830(7)
O14_3 O 0.9229(14) 0.8586(7) 0.6634(8)
O15_3 O 0.198(2) 0.7281(8) 0.5656(12)
N1_3 N 0.5506(12) 0.6837(6) 0.6686(6)
C1_3 C 0.9630(17) 0.6835(11) 0.8506(9)
C2_3 C 0.9315(17) 0.3499(11) 0.6391(9)
C3_3 C 0.3626(15) 0.6408(8) 0.6530(8)
C4_3 C 0.4808(13) 0.6397(7) 0.6392(7)
C5_3 C 0.5143(13) 0.5958(7) 0.6046(7)
H1_3 H 0.4629 0.5648 0.5855
C6_3 C 0.6260(15) 0.5970(7) 0.5976(8)
C7_3 C 0.6943(17) 0.6450(8) 0.6227(8)
H2_3 H 0.7685 0.6490 0.6162
C8_3 C 0.6530(14) 0.6876(7) 0.6577(7)
C9_3 C 0.7237(17) 0.7411(8) 0.6935(8)
C10_3 C 0.656(3) 0.3777(11) 0.5444(18)
C11_3 C 0.683(2) 0.4448(8) 0.5408(11)
C12_3 C 0.637(2) 0.4894(8) 0.5692(11)
H3_3 H 0.5836 0.4800 0.5929
C13_3 C 0.6684(15) 0.5493(8) 0.5630(8)
C14_3 C 0.7472(19) 0.5573(8) 0.5282(10)
H4_3 H 0.7749 0.5964 0.5241
C15_3 C 0.787(2) 0.5098(9) 0.4990(11)
C16_3 C 0.8671(16) 0.5053(8) 0.4528(10)
N3_5 N 1.0000 0.6735(9) 0.7500
C17_3 C 0.9832(17) 0.6427(7) 0.7992(8)
C18_3 C 0.983(2) 0.5821(8) 0.8012(10)
H5_3 H 0.9712 0.5620 0.8373
C19_5 C 1.0000 0.5491(9) 0.7500
N4_4 N 1.0000 0.3586(9) 0.7500
C20_3 C 0.9682(19) 0.3907(7) 0.6972(8)
C21_3 C 0.9681(19) 0.4512(8) 0.6945(9)
H6_3 H 0.9462 0.4709 0.6545
C22_5 C 1.0000 0.4846(15) 0.7500
Tb4_4 Tb 1.0000 0.24702(5) 0.7500
O36_2 O 0.4243(12) 0.7948(6) 0.6476(6)
O37_2 O 0.5757(12) 0.7948(6) 0.8524(6)
N10_2 N 0.5000 0.8586(9) 0.7500
H21_3 H 0.186999 0.732513 0.608884
H22_3 H 0.151932 0.758808 0.537052
O44_2 O 0.552(3) 0.1669(19) 0.0265(16)
H19_2 H 0.609603 0.143339 0.011802
H20_2 H 0.566181 0.162488 0.0732273
O17_2 O 0.1434(12) 0.1754(7) 0.8016(5)
O19_4 O 0.2149(10) 0.1109(5) 0.8816(5)
O34_2 O 0.4641(13) 0.1551(8) 0.9022(6)
O43_4 O 0.302(2) 0.2281(8) 0.9344(12)
C25_4 C 0.1374(15) 0.1408(8) 0.8470(8)
C26_4 C 0.0192(13) 0.1397(7) 0.8608(7)
H7_4 H 0.0371 0.0648 0.9145
H17_4 H 0.313001 0.232513 0.891116
H18_4 H 0.348068 0.258808 0.962948
Tb1_6 Tb 0.5000 0.28750(5) 0.7500
O3_4 O 0.1738(11) 0.2740(5) 0.7239(5)
O4_4 O 0.3216(11) 0.2467(5) 0.6874(6)
O8_4 O 0.330(3) 0.0541(12) 0.4150(13)
O9_4 O 0.4567(13) 0.2370(7) 0.8418(6)
O13_4 O 0.3516(12) 0.3451(7) 0.7830(7)
O14_4 O 0.4229(14) 0.3586(7) 0.6634(8)
N1_4 N 0.0506(12) 0.1837(6) 0.6686(6)
C1_4 C 0.4630(17) 0.1835(11) 0.8506(9)
C5_4 C 0.0143(13) 0.0958(7) 0.6046(7)
C6_4 C 0.1260(15) 0.0970(7) 0.5976(8)
C7_4 C 0.1943(17) 0.1450(8) 0.6227(8)
H2_4 H 0.2685 0.1490 0.6162
C8_4 C 0.1530(14) 0.1876(7) 0.6577(7)
C9_4 C 0.2237(17) 0.2411(8) 0.6935(8)
C13_4 C 0.1684(15) 0.0493(8) 0.5630(8)
C14_4 C 0.2472(19) 0.0573(8) 0.5282(10)
H4_4 H 0.2749 0.0964 0.5241
C15_4 C 0.287(2) 0.0098(9) 0.4990(11)
C16_4 C 0.3671(16) 0.0053(8) 0.4528(10)
N3_6 N 0.5000 0.1735(9) 0.7500
C17_4 C 0.4832(17) 0.1427(7) 0.7992(8)
C18_4 C 0.483(2) 0.0821(8) 0.8012(10)
H5_4 H 0.4712 0.0620 0.8373
C19_6 C 0.5000 0.0491(9) 0.7500
O20_2 O 0.8262(11) 0.2740(5) 0.7761(5)
O22_4 O 0.6784(11) 0.2467(5) 0.8126(6)
O31_4 O 0.5433(13) 0.2370(7) 0.6582(6)
O32_2 O 0.5359(13) 0.1551(8) 0.5978(6)
O41_4 O 0.6484(12) 0.3451(7) 0.7170(7)
O42_4 O 0.5771(14) 0.3586(7) 0.8366(8)
N5_2 N 0.9494(12) 0.1837(6) 0.8314(6)
C23_4 C 0.5370(17) 0.1835(11) 0.6494(9)
C27_4 C 0.9857(13) 0.0958(7) 0.8954(7)
C28_4 C 0.8740(15) 0.0970(7) 0.9024(8)
C29_4 C 0.8057(17) 0.1450(8) 0.8773(8)
H8_4 H 0.7315 0.1490 0.8838
C30_4 C 0.8470(14) 0.1876(7) 0.8423(7)
C31_4 C 0.7763(17) 0.2411(8) 0.8065(8)
C35_4 C 0.8316(15) 0.0493(8) 0.9370(8)
C36_4 C 0.7528(19) 0.0573(8) 0.9718(10)
H10_4 H 0.7251 0.0964 0.9759
C39_4 C 0.5168(17) 0.1427(7) 0.7008(8)
C40_4 C 0.517(2) 0.0821(8) 0.6988(10)
H11_4 H 0.5288 0.0620 0.6627
O6_4 O 0.091(3) 0.8625(14) 0.5771(14)
C2_4 C 0.4315(17) 0.8499(11) 0.6391(9)
C10_4 C 0.156(3) 0.8777(11) 0.5444(18)
C11_4 C 0.183(2) 0.9448(8) 0.5408(11)
C12_4 C 0.137(2) 0.9894(8) 0.5692(11)
H3_4 H 0.0836 0.9800 0.5929
C20_4 C 0.4682(19) 0.8907(7) 0.6972(8)
C21_4 C 0.4681(19) 0.9512(8) 0.6945(9)
H6_4 H 0.4462 0.9709 0.6545
C22_6 C 0.5000 0.9846(15) 0.7500
O26_4 O 0.909(3) 0.8625(14) 0.9229(14)
C24_4 C 0.5685(17) 0.8499(11) 0.8609(9)
C32_4 C 0.844(3) 0.8777(11) 0.9556(18)
C33_4 C 0.817(2) 0.9448(8) 0.9592(11)
C34_4 C 0.863(2) 0.9894(8) 0.9308(11)
H9_4 H 0.9164 0.9800 0.9071
C41_4 C 0.5318(19) 0.8907(7) 0.8028(8)
C42_4 C 0.5319(19) 0.9512(8) 0.8055(9)
H12_4 H 0.5538 0.9709 0.8455
O1_4 O 0.8566(12) 0.1754(7) 0.6984(5)
O2_4 O 0.7851(10) 0.1109(5) 0.6184(5)
O15_4 O 0.698(2) 0.2281(8) 0.5656(12)
O16_3 O 0.448(3) 0.1669(19) 0.4735(16)
C3_4 C 0.8626(15) 0.1408(8) 0.6530(8)
C4_4 C 0.9808(13) 0.1397(7) 0.6392(7)
H1_4 H 0.9629 0.0648 0.5855
H21_4 H 0.686999 0.232513 0.608884
H22_4 H 0.651932 0.258808 0.537052
H27_3 H 0.390397 0.143339 0.488198
H28_3 H 0.433819 0.162488 0.426773
O44_3 O 0.948(3) 0.3331(19) 0.9735(16)
H19_3 H 0.890397 0.356661 0.988198
H20_3 H 0.933819 0.337512 0.926773
O30_3 O 0.330(3) 0.9459(12) 0.9150(13)
C37_3 C 0.287(2) 0.9902(9) 0.9990(11)
C38_3 C 0.3671(16) 0.9947(8) 0.9528(10)
O44_4 O 0.052(3) 0.6669(19) 0.0265(16)
H19_4 H 0.109603 0.643339 0.011802
H20_4 H 0.0661814 0.662488 0.0732273
O16_4 O 0.948(3) 0.6669(19) 0.4735(16)
H27_4 H 0.890397 0.643339 0.488198
H28_4 H 0.933819 0.662488 0.426773
O30_4 O 0.670(3) 0.0541(12) 0.0850(13)
C37_4 C 0.713(2) 0.0098(9) 0.0010(11)
C38_4 C 0.6329(16) 0.0053(8) 0.0472(10)
loop_
_geom_bond_atom_site_label_1
_geom_bond_atom_site_label_2
_geom_bond_site_symmetry_1
_geom_bond_site_symmetry_2
O16 H27 1_555 1_555
O16 H28 1_555 1_555
Tb1 O4 1_555 1_555
Tb2 O1 1_555 1_555
Tb3 O2 1_555 1_555
O1 C3 1_555 1_555
O2 C3 1_555 1_555
O3 Tb2 1_555 1_555
O4 C9 1_555 1_555
O5 C10 1_555 1_555
O6 C10 1_555 1_555
O7 C16 1_555 1_555
O8 C16 1_555 1_555
O9 Tb1 1_555 1_555
O10 C1 1_555 1_555
O11 C2 1_555 1_555
O12 C2 1_555 1_555
O13 Tb1 1_555 1_555
O14 Tb1 1_555 1_555
O15 Tb3 1_555 1_555
N1 Tb2 1_555 1_555
N2 C11 1_555 1_555
C1 O9 1_555 1_555
C2 C20 1_555 1_555
C3 C4 1_555 1_555
C4 N1 1_555 1_555
C5 C4 1_555 1_555
H1 C5 1_555 1_555
C6 C5 1_555 1_555
C7 C6 1_555 1_555
H2 C7 1_555 1_555
C8 N1 1_555 1_555
C9 O3 1_555 1_555
C10 C11 1_555 1_555
C11 C12 1_555 1_555
C12 H3 1_555 1_555
C13 C6 1_555 1_555
C14 C13 1_555 1_555
H4 C14 1_555 1_555
C15 N2 1_555 1_555
C16 C15 1_555 1_555
N3 Tb1 1_555 1_555
C17 C1 1_555 1_555
C18 C17 1_555 1_555
H5 C18 1_555 1_555
C19 C18 1_555 1_555
N4 C20 1_555 1_555
C20 C21 1_555 1_555
C21 H6 1_555 1_555
C22 C19 1_555 1_555
Tb4 O11 1_555 1_555
Tb7 O5 1_555 1_555
Tb8 O10 1_555 1_555
O18 Tb2 1_555 1_555
O21 Tb2 1_555 1_555
O24 Tb3 1_555 1_555
O28 Tb3 1_555 1_555
O33 Tb3 1_555 1_555
O36 Tb2 1_555 1_555
O37 Tb2 1_555 1_555
O39 Tb3 1_555 1_555
N6 Tb2 1_555 1_555
N8 Tb3 1_555 1_555
N10 Tb2 1_555 1_555
O7 Tb7 1_555 1_555
O12 Tb7 1_555 1_555
N2 Tb7 1_555 1_555
C7 C8 1_555 1_555
C8 C9 1_555 1_555
C12 C13 1_555 1_555
C14 C15 1_555 1_555
N3 C17 1_555 1_555
N4 Tb4 1_555 1_555
C21 C22 1_555 1_555
O15 H21 1_555 1_555
O15 H22 1_555 1_555
N3_2 Tb1_2 1_555 1_555
C22_2 C19_2 1_555 1_555
Tb8 O19 1_555 1_555
O18 C25 1_555 1_555
O19 C25 1_555 1_555
O22 Tb1_2 1_555 1_555
O23 C32 1_555 1_555
O26 C32 1_555 1_555
O29 Tb8 1_555 1_555
O31 Tb1_2 1_555 1_555
O33 C23 1_555 1_555
O35 Tb4_2 1_555 1_555
O41 Tb1_2 1_555 1_555
O42 Tb1_2 1_555 1_555
O43 Tb8 1_555 1_555
C23 O31 1_555 1_555
C24 O35 1_555 1_555
C25 C26 1_555 1_555
C26 N6 1_555 1_555
C27 C26 1_555 1_555
H7 C27 1_555 1_555
C28 C27 1_555 1_555
C29 C28 1_555 1_555
H8 C29 1_555 1_555
C30 N6 1_555 1_555
C31 O21 1_555 1_555
C32 C33 1_555 1_555
C33 N7 1_555 1_555
C34 C33 1_555 1_555
H9 C34 1_555 1_555
C35 C28 1_555 1_555
C36 C35 1_555 1_555
H10 C36 1_555 1_555
C39 N3_2 1_555 1_555
C40 C19_2 1_555 1_555
H11 C40 1_555 1_555
C41 N4_2 1_555 1_555
C42 C22_2 1_555 1_555
H12 C42 1_555 1_555
N4_2 Tb4_2 1_555 1_555
O22 C31 1_555 1_555
O38 C24 1_555 1_555
C23 C39 1_555 1_555
C24 C41 1_555 1_555
C29 C30 1_555 1_555
C30 C31 1_555 1_555
C34 C35 1_555 1_555
C39 C40 1_555 1_555
C41 C42 1_555 1_555
O43 H17 1_555 1_555
O43 H18 1_555 1_555
O27 Tb10 1_555 1_555
O30 C38 1_555 1_555
C38 O27 1_555 1_555
C37 C38 1_555 1_555
Tb4 O1_2 1_555 1_555
Tb3_2 O2_2 1_555 1_555
O1_2 C3_2 1_555 1_555
O2_2 C3_2 1_555 1_555
O15_2 Tb3_2 1_555 1_555
O16_2 Tb3_2 1_555 1_555
C3_2 C4_2 1_555 1_555
O21_2 Tb4 1_555 1_555
O24_2 Tb3_2 1_555 1_555
O28_2 Tb3_2 1_555 1_555
O33_2 Tb3_2 1_555 1_555
O39_2 Tb3_2 1_555 1_555
N6_2 Tb4 1_555 1_555
N8_2 Tb3_2 1_555 1_555
O15_2 H21_2 1_555 1_555
O15_2 H22_2 1_555 1_555
O16_2 H27_2 1_555 1_555
O16_2 H28_2 1_555 1_555
O5_2 C10_2 1_555 1_555
O6_2 C10_2 1_555 1_555
O36 C2_2 1_555 1_555
O12_2 C2_2 1_555 1_555
N2_2 C11_2 1_555 1_555
C2_2 C20_2 1_555 1_555
C10_2 C11_2 1_555 1_555
C11_2 C12_2 1_555 1_555
C12_2 H3_2 1_555 1_555
N10 C20_2 1_555 1_555
C20_2 C21_2 1_555 1_555
C21_2 H6_2 1_555 1_555
Tb7_2 O5_2 1_555 1_555
O23_2 C32_2 1_555 1_555
O26_2 C32_2 1_555 1_555
C24_2 O37 1_555 1_555
C32_2 C33_2 1_555 1_555
C33_2 N7_2 1_555 1_555
C34_2 C33_2 1_555 1_555
H9_2 C34_2 1_555 1_555
C41_2 N10 1_555 1_555
C42_2 C22_3 1_555 1_555
H12_2 C42_2 1_555 1_555
O7_2 Tb7_2 1_555 1_555
O12_2 Tb7_2 1_555 1_555
N2_2 Tb7_2 1_555 1_555
C21_2 C22_3 1_555 1_555
O38_2 C24_2 1_555 1_555
C24_2 C41_2 1_555 1_555
C41_2 C42_2 1_555 1_555
O27_2 Tb10_2 1_555 1_555
Tb1_3 O4_2 1_555 1_555
O3_2 Tb4_2 1_555 1_555
O4_2 C9_2 1_555 1_555
O8_2 C16_2 1_555 1_555
O9_2 Tb1_3 1_555 1_555
O10_2 C1_2 1_555 1_555
O13_2 Tb1_3 1_555 1_555
O14_2 Tb1_3 1_555 1_555
N1_2 Tb4_2 1_555 1_555
C1_2 O9_2 1_555 1_555
C6_2 C5_2 1_555 1_555
C7_2 C6_2 1_555 1_555
H2_2 C7_2 1_555 1_555
C8_2 N1_2 1_555 1_555
C9_2 O3_2 1_555 1_555
C13_2 C6_2 1_555 1_555
C14_2 C13_2 1_555 1_555
H4_2 C14_2 1_555 1_555
C16_2 C15_2 1_555 1_555
N3_3 Tb1_3 1_555 1_555
C17_2 C1_2 1_555 1_555
C18_2 C17_2 1_555 1_555
H5_2 C18_2 1_555 1_555
C19_3 C18_2 1_555 1_555
Tb8_2 O10_2 1_555 1_555
O18_2 Tb4_2 1_555 1_555
O22_2 Tb1_3 1_555 1_555
O31_2 Tb1_3 1_555 1_555
O33_2 C23_2 1_555 1_555
O41_2 Tb1_3 1_555 1_555
O42_2 Tb1_3 1_555 1_555
C23_2 O31_2 1_555 1_555
C28_2 C27_2 1_555 1_555
C29_2 C28_2 1_555 1_555
H8_2 C29_2 1_555 1_555
C30_2 N6_2 1_555 1_555
C31_2 O21_2 1_555 1_555
C35_2 C28_2 1_555 1_555
C36_2 C35_2 1_555 1_555
H10_2 C36_2 1_555 1_555
C39_2 N3_3 1_555 1_555
C40_2 C19_3 1_555 1_555
H11_2 C40_2 1_555 1_555
C7_2 C8_2 1_555 1_555
C8_2 C9_2 1_555 1_555
C14_2 C15_2 1_555 1_555
N3_3 C17_2 1_555 1_555
O22_2 C31_2 1_555 1_555
C23_2 C39_2 1_555 1_555
C29_2 C30_2 1_555 1_555
C30_2 C31_2 1_555 1_555
C39_2 C40_2 1_555 1_555
Tb8_2 O19_2 1_555 1_555
O18_2 C25_2 1_555 1_555
O19_2 C25_2 1_555 1_555
O29_2 Tb8_2 1_555 1_555
O43_2 Tb8_2 1_555 1_555
C25_2 C26_2 1_555 1_555
O43_2 H17_2 1_555 1_555
O43_2 H18_2 1_555 1_555
O44 H19 1_555 1_555
O44 H20 1_555 1_555
O30_2 C38_2 1_555 1_555
C38_2 O29 1_555 1_555
C37_2 C38_2 1_555 1_555
N3_4 Tb1_4 1_555 1_555
C22_4 C19_4 1_555 1_555
Tb5 O17 1_555 1_555
Tb10 O19_3 1_555 1_555
Tb7 O32 1_555 1_555
O17 C25_3 1_555 1_555
O19_3 C25_3 1_555 1_555
O20 Tb5 1_555 1_555
O22_3 Tb1_4 1_555 1_555
O25 C32_3 1_555 1_555
O26_3 C32_3 1_555 1_555
O31_3 Tb1_4 1_555 1_555
O32 C23_3 1_555 1_555
O34 Tb10 1_555 1_555
O35_2 Tb4_3 1_555 1_555
O41_3 Tb1_4 1_555 1_555
O42_3 Tb1_4 1_555 1_555
O43_3 Tb10 1_555 1_555
N5 Tb5 1_555 1_555
C23_3 O31_3 1_555 1_555
C24_3 O35_2 1_555 1_555
C25_3 C26_3 1_555 1_555
C26_3 N5 1_555 1_555
C27_3 C26_3 1_555 1_555
H7_3 C27_3 1_555 1_555
C28_3 C27_3 1_555 1_555
C29_3 C28_3 1_555 1_555
H8_3 C29_3 1_555 1_555
C30_3 N5 1_555 1_555
C31_3 O20 1_555 1_555
C32_3 C33_3 1_555 1_555
C33_3 N9 1_555 1_555
C34_3 C33_3 1_555 1_555
H9_3 C34_3 1_555 1_555
C35_3 C28_3 1_555 1_555
C36_3 C35_3 1_555 1_555
H10_3 C36_3 1_555 1_555
C39_3 N3_4 1_555 1_555
C40_3 C19_4 1_555 1_555
H11_3 C40_3 1_555 1_555
C41_3 N4_3 1_555 1_555
C42_3 C22_4 1_555 1_555
H12_3 C42_3 1_555 1_555
N4_3 Tb4_3 1_555 1_555
O22_3 C31_3 1_555 1_555
O40 C24_3 1_555 1_555
C23_3 C39_3 1_555 1_555
C24_3 C41_3 1_555 1_555
C29_3 C30_3 1_555 1_555
C30_3 C31_3 1_555 1_555
C34_3 C35_3 1_555 1_555
C39_3 C40_3 1_555 1_555
C41_3 C42_3 1_555 1_555
O43_3 H17_3 1_555 1_555
O43_3 H18_3 1_555 1_555
Tb1_5 O4_3 1_555 1_555
Tb5 O1_3 1_555 1_555
Tb7 O2_3 1_555 1_555
O1_3 C3_3 1_555 1_555
O2_3 C3_3 1_555 1_555
O3_3 Tb5 1_555 1_555
O4_3 C9_3 1_555 1_555
O24 C10_3 1_555 1_555
O6_3 C10_3 1_555 1_555
O28 C16_3 1_555 1_555
O8_3 C16_3 1_555 1_555
O9_3 Tb1_5 1_555 1_555
O34 C1_3 1_555 1_555
O11_2 C2_3 1_555 1_555
O39 C2_3 1_555 1_555
O13_3 Tb1_5 1_555 1_555
O14_3 Tb1_5 1_555 1_555
O15_3 Tb7 1_555 1_555
N1_3 Tb5 1_555 1_555
N8 C11_3 1_555 1_555
C1_3 O9_3 1_555 1_555
C2_3 C20_3 1_555 1_555
C3_3 C4_3 1_555 1_555
C4_3 N1_3 1_555 1_555
C5_3 C4_3 1_555 1_555
H1_3 C5_3 1_555 1_555
C6_3 C5_3 1_555 1_555
C7_3 C6_3 1_555 1_555
H2_3 C7_3 1_555 1_555
C8_3 N1_3 1_555 1_555
C9_3 O3_3 1_555 1_555
C10_3 C11_3 1_555 1_555
C11_3 C12_3 1_555 1_555
C12_3 H3_3 1_555 1_555
C13_3 C6_3 1_555 1_555
C14_3 C13_3 1_555 1_555
H4_3 C14_3 1_555 1_555
C15_3 N8 1_555 1_555
C16_3 C15_3 1_555 1_555
N3_5 Tb1_5 1_555 1_555
C17_3 C1_3 1_555 1_555
C18_3 C17_3 1_555 1_555
H5_3 C18_3 1_555 1_555
C19_5 C18_3 1_555 1_555
N4_4 C20_3 1_555 1_555
C20_3 C21_3 1_555 1_555
C21_3 H6_3 1_555 1_555
C22_5 C19_5 1_555 1_555
Tb4_4 O11_2 1_555 1_555
O36_2 Tb5 1_555 1_555
O37_2 Tb5 1_555 1_555
N10_2 Tb5 1_555 1_555
C7_3 C8_3 1_555 1_555
C8_3 C9_3 1_555 1_555
C12_3 C13_3 1_555 1_555
C14_3 C15_3 1_555 1_555
N3_5 C17_3 1_555 1_555
N4_4 Tb4_4 1_555 1_555
C21_3 C22_5 1_555 1_555
O15_3 H21_3 1_555 1_555
O15_3 H22_3 1_555 1_555
O44_2 H19_2 1_555 1_555
O44_2 H20_2 1_555 1_555
Tb4_3 O17_2 1_555 1_555
Tb10_2 O19_4 1_555 1_555
O17_2 C25_4 1_555 1_555
O19_4 C25_4 1_555 1_555
O34_2 Tb10_2 1_555 1_555
O43_4 Tb10_2 1_555 1_555
C25_4 C26_4 1_555 1_555
O43_4 H17_4 1_555 1_555
O43_4 H18_4 1_555 1_555
Tb1_6 O4_4 1_555 1_555
O3_4 Tb4_3 1_555 1_555
O4_4 C9_4 1_555 1_555
O8_4 C16_4 1_555 1_555
O9_4 Tb1_6 1_555 1_555
O34_2 C1_4 1_555 1_555
O13_4 Tb1_6 1_555 1_555
O14_4 Tb1_6 1_555 1_555
N1_4 Tb4_3 1_555 1_555
C1_4 O9_4 1_555 1_555
C6_4 C5_4 1_555 1_555
C7_4 C6_4 1_555 1_555
H2_4 C7_4 1_555 1_555
C8_4 N1_4 1_555 1_555
C9_4 O3_4 1_555 1_555
C13_4 C6_4 1_555 1_555
C14_4 C13_4 1_555 1_555
H4_4 C14_4 1_555 1_555
C16_4 C15_4 1_555 1_555
N3_6 Tb1_6 1_555 1_555
C17_4 C1_4 1_555 1_555
C18_4 C17_4 1_555 1_555
H5_4 C18_4 1_555 1_555
C19_6 C18_4 1_555 1_555
Tb7_2 O32_2 1_555 1_555
O20_2 Tb4_4 1_555 1_555
O22_4 Tb1_6 1_555 1_555
O31_4 Tb1_6 1_555 1_555
O32_2 C23_4 1_555 1_555
O41_4 Tb1_6 1_555 1_555
O42_4 Tb1_6 1_555 1_555
N5_2 Tb4_4 1_555 1_555
C23_4 O31_4 1_555 1_555
C28_4 C27_4 1_555 1_555
C29_4 C28_4 1_555 1_555
H8_4 C29_4 1_555 1_555
C30_4 N5_2 1_555 1_555
C31_4 O20_2 1_555 1_555
C35_4 C28_4 1_555 1_555
C36_4 C35_4 1_555 1_555
H10_4 C36_4 1_555 1_555
C39_4 N3_6 1_555 1_555
C40_4 C19_6 1_555 1_555
H11_4 C40_4 1_555 1_555
C7_4 C8_4 1_555 1_555
C8_4 C9_4 1_555 1_555
C14_4 C15_4 1_555 1_555
N3_6 C17_4 1_555 1_555
O22_4 C31_4 1_555 1_555
C23_4 C39_4 1_555 1_555
C29_4 C30_4 1_555 1_555
C30_4 C31_4 1_555 1_555
C39_4 C40_4 1_555 1_555
O24_2 C10_4 1_555 1_555
O6_4 C10_4 1_555 1_555
O36_2 C2_4 1_555 1_555
O39_2 C2_4 1_555 1_555
N8_2 C11_4 1_555 1_555
C2_4 C20_4 1_555 1_555
C10_4 C11_4 1_555 1_555
C11_4 C12_4 1_555 1_555
C12_4 H3_4 1_555 1_555
N10_2 C20_4 1_555 1_555
C20_4 C21_4 1_555 1_555
C21_4 H6_4 1_555 1_555
O25_2 C32_4 1_555 1_555
O26_4 C32_4 1_555 1_555
C24_4 O37_2 1_555 1_555
C32_4 C33_4 1_555 1_555
C33_4 N9_2 1_555 1_555
C34_4 C33_4 1_555 1_555
H9_4 C34_4 1_555 1_555
C41_4 N10_2 1_555 1_555
C42_4 C22_6 1_555 1_555
H12_4 C42_4 1_555 1_555
C21_4 C22_6 1_555 1_555
O40_2 C24_4 1_555 1_555
C24_4 C41_4 1_555 1_555
C41_4 C42_4 1_555 1_555
Tb4_4 O1_4 1_555 1_555
Tb7_2 O2_4 1_555 1_555
O1_4 C3_4 1_555 1_555
O2_4 C3_4 1_555 1_555
O15_4 Tb7_2 1_555 1_555
O16_3 Tb7_2 1_555 1_555
C3_4 C4_4 1_555 1_555
O15_4 H21_4 1_555 1_555
O15_4 H22_4 1_555 1_555
O16_3 H27_3 1_555 1_555
O16_3 H28_3 1_555 1_555
O44_3 H19_3 1_555 1_555
O44_3 H20_3 1_555 1_555
O30_3 C38_3 1_555 1_555
C37_3 C38_3 1_555 1_555
O44_4 H19_4 1_555 1_555
O44_4 H20_4 1_555 1_555
O16_4 H27_4 1_555 1_555
O16_4 H28_4 1_555 1_555
O30_4 C38_4 1_555 1_555
C37_4 C38_4 1_555 1_555

#END
