
###############################################################################
#
# This file contains modified crystal structure data generated from the
# MOF subset of the Cambridge Structural Database (CSD) v543 
# hosted by the Cambridge Crystallographic Data Centre (CCDC).
#
# This work is licensed under the Creative Commons
# Attribution-NonCommercial-ShareAlike 4.0 International License.
# To view a copy of this license, visit
# http://creativecommons.org/licenses/by-nc-sa/4.0/
# or send a letter to
# Creative Commons, PO Box 1866, Mountain View, CA 94042, USA.
#
# CIF created using the CSD Python API on 29 September 2022
# The structure has been converted into the P1 space group
# The structure has a 3D framework
# The original CSD entry COYTIU is in the monoclinic crystal system
# The framework has been calculated to contain at least 10.0% void space
# The void calculation uses a probe of radius 1.32A, grid spacing 0.4
#
###############################################################################

data_COYTIU
_chemical_formula_moiety         '(C56 H28 Ce4 N8 O34)n'
_symmetry_cell_setting           triclinic
_symmetry_space_group_name_H-M   'P 1'
_symmetry_Int_Tables_number      1
_space_group_name_Hall           'P 1'
loop_
_symmetry_equiv_pos_site_id
_symmetry_equiv_pos_as_xyz
1 x,y,z
_cell_length_a                   12.134(3)
_cell_length_b                   12.720(4)
_cell_length_c                   12.391(4)
_cell_angle_alpha                90
_cell_angle_beta                 114.777(11)
_cell_angle_gamma                90
_cell_volume                     1736.43
loop_
_atom_site_label
_atom_site_type_symbol
_atom_site_fract_x
_atom_site_fract_y
_atom_site_fract_z
O5 O 0.43668(16) 0.21592(15) 0.51919(17)
O6 O 0.30536(19) 0.2722(2) 0.3391(2)
H1 H 0.379(3) 0.278(3) 0.327(3)
O7 O 0.30666(17) 0.01099(15) 0.73614(17)
O8 O 0.12193(19) 0.02571(18) 0.7353(2)
N2 N 0.25167(19) 0.15019(18) 0.5649(2)
C3 C 0.3330(2) 0.2340(2) 0.4437(3)
C4 C 0.1982(2) 0.0460(2) 0.6973(2)
C10 C 0.2251(2) 0.2093(2) 0.4685(2)
C11 C 0.1093(2) 0.2428(2) 0.3957(3)
H6 H 0.0946 0.2837 0.3269
C12 C 0.0142(2) 0.2152(2) 0.4257(2)
C13 C 0.0417(2) 0.1522(2) 0.5256(2)
C14 C 0.1612(2) 0.1203(2) 0.5918(2)
Ce4 Ce 0.455104(12) 0.046609(11) 0.646353(13)
Ce1 Ce 0.455104(12) 0.453391(11) 0.146353(13)
O1 O 0.61902(16) 0.49743(15) 0.07438(17)
O2 O 0.78952(18) 0.45907(16) 0.05599(18)
O3 O 0.47993(16) 0.30067(15) 0.28729(17)
O4 O 0.56182(17) 0.14660(16) 0.36644(18)
O9 O 0.5915(2) 0.5224(2) 0.3519(2)
H2 H 0.601(4) 0.492(3) 0.408(4)
H3 H 0.655(4) 0.541(3) 0.364(4)
N1 N 0.65882(19) 0.34267(17) 0.2294(2)
C1 C 0.7215(2) 0.4488(2) 0.1057(2)
C2 C 0.5651(2) 0.2325(2) 0.3228(2)
C5 C 0.7521(2) 0.3716(2) 0.2052(2)
C6 C 0.8678(2) 0.3308(2) 0.2650(2)
H4 H 0.9321 0.3546 0.2465
C7 C 0.8893(2) 0.2547(2) 0.3526(2)
C8 C 0.7895(2) 0.2188(2) 0.3709(2)
H5 H 0.7984 0.1636 0.4256
C9 C 0.6774(2) 0.2653(2) 0.3079(2)
H7 H 0.9795 0.1310 0.5485
O11 O 0.43818(17) 0.64660(16) 0.13356(18)
O12 O 0.43668(16) 0.28408(15) 0.01919(17)
O13 O 0.30666(17) 0.48901(15) 0.23614(17)
N3 N 0.25167(19) 0.34981(18) 0.0649(2)
Ce2 Ce 0.544896(12) 0.546609(11) 0.853647(13)
O10 O 0.38098(16) 0.50257(15) 0.92562(17)
Ce3 Ce 0.544896(12) 0.953391(11) 0.353647(13)
O9_2 O 0.4085(2) 0.0224(2) 0.1481(2)
H3_2 H 0.345(4) 0.041(3) 0.136(4)
O10_2 O 0.61902(16) 0.00257(15) 0.57438(17)
O1_2 O 0.38098(16) 0.99743(15) 0.42562(17)
O2_2 O 0.21048(18) 0.95907(16) 0.44401(18)
O3_2 O 0.52007(16) 0.80067(15) 0.21271(17)
H2_2 H 0.399(4) 0.992(3) 0.092(4)
N1_2 N 0.34118(19) 0.84267(17) 0.2706(2)
C1_2 C 0.2785(2) 0.9488(2) 0.3943(2)
C2_2 C 0.4349(2) 0.7325(2) 0.1772(2)
C5_2 C 0.2479(2) 0.8716(2) 0.2948(2)
C6_2 C 0.1322(2) 0.8308(2) 0.2350(2)
H4_2 H 0.0679 0.8546 0.2535
C7_2 C 0.1107(2) 0.7547(2) 0.1474(2)
C8_2 C 0.2105(2) 0.7188(2) 0.1291(2)
H5_2 H 0.2016 0.6636 0.0744
C9_2 C 0.3226(2) 0.7653(2) 0.1921(2)
O12_2 O 0.56332(16) 0.78408(15) 0.48081(17)
O13_2 O 0.69334(17) 0.98901(15) 0.26386(17)
N3_2 N 0.74833(19) 0.84981(18) 0.4351(2)
O5_2 O 0.56332(16) 0.71592(15) 0.98081(17)
O7_2 O 0.69334(17) 0.51099(15) 0.76386(17)
O8_2 O 0.87807(19) 0.52571(18) 0.7647(2)
N2_2 N 0.74833(19) 0.65019(18) 0.9351(2)
C4_2 C 0.8018(2) 0.5460(2) 0.8027(2)
C13_2 C 0.9583(2) 0.6522(2) 0.9744(2)
C14_2 C 0.8388(2) 0.6203(2) 0.9082(2)
O2_3 O 0.21048(18) 0.54093(16) 0.94401(18)
O3_3 O 0.52007(16) 0.69933(15) 0.71271(17)
O4_2 O 0.43818(17) 0.85340(16) 0.63356(18)
O9_3 O 0.4085(2) 0.4776(2) 0.6481(2)
H2_3 H 0.399(4) 0.508(3) 0.592(4)
H3_3 H 0.345(4) 0.459(3) 0.636(4)
N1_3 N 0.34118(19) 0.65733(17) 0.7706(2)
C1_3 C 0.2785(2) 0.5512(2) 0.8943(2)
C2_3 C 0.4349(2) 0.7675(2) 0.6772(2)
C5_3 C 0.2479(2) 0.6284(2) 0.7948(2)
C6_3 C 0.1322(2) 0.6692(2) 0.7350(2)
H4_3 H 0.0679 0.6454 0.7535
C7_3 C 0.1107(2) 0.7453(2) 0.6474(2)
C8_3 C 0.2105(2) 0.7812(2) 0.6291(2)
H5_3 H 0.2016 0.8364 0.5744
C9_3 C 0.3226(2) 0.7347(2) 0.6921(2)
H7_2 H 0.0205 0.8690 0.4515
O11_2 O 0.56182(17) 0.35340(16) 0.86644(18)
O6_2 O 0.69464(19) 0.7278(2) 0.6609(2)
H1_2 H 0.621(3) 0.722(3) 0.673(3)
O8_3 O 0.87807(19) 0.97429(18) 0.2647(2)
C3_2 C 0.6670(2) 0.7660(2) 0.5563(3)
C4_3 C 0.8018(2) 0.9540(2) 0.3027(2)
C10_2 C 0.7749(2) 0.7907(2) 0.5315(2)
C11_2 C 0.8907(2) 0.7572(2) 0.6043(3)
H6_2 H 0.9054 0.7163 0.6731
C12_2 C 0.9858(2) 0.7848(2) 0.5743(2)
C13_3 C 0.9583(2) 0.8478(2) 0.4744(2)
C14_3 C 0.8388(2) 0.8797(2) 0.4082(2)
O8_4 O 0.12193(19) 0.47429(18) 0.2353(2)
C4_4 C 0.1982(2) 0.4540(2) 0.1973(2)
C13_4 C 0.0417(2) 0.3478(2) 0.0256(2)
C14_4 C 0.1612(2) 0.3797(2) 0.0918(2)
O2_4 O 0.78952(18) 0.04093(16) 0.55599(18)
O3_4 O 0.47993(16) 0.19933(15) 0.78729(17)
H2_4 H 0.601(4) 0.008(3) 0.908(4)
N1_4 N 0.65882(19) 0.15733(17) 0.7294(2)
C1_4 C 0.7215(2) 0.0512(2) 0.6057(2)
C2_4 C 0.5651(2) 0.2675(2) 0.8228(2)
C5_4 C 0.7521(2) 0.1284(2) 0.7052(2)
C6_4 C 0.8678(2) 0.1692(2) 0.7650(2)
H4_4 H 0.9321 0.1454 0.7465
C7_4 C 0.8893(2) 0.2453(2) 0.8526(2)
C8_4 C 0.7895(2) 0.2812(2) 0.8709(2)
H5_4 H 0.7984 0.3364 0.9256
C9_4 C 0.6774(2) 0.2347(2) 0.8079(2)
O9_4 O 0.5915(2) 0.9776(2) 0.8519(2)
H3_4 H 0.655(4) 0.959(3) 0.864(4)
H7_3 H 0.0205 0.6310 0.9515
O6_3 O 0.69464(19) 0.7722(2) 0.1609(2)
H1_3 H 0.621(3) 0.778(3) 0.173(3)
C3_3 C 0.6670(2) 0.7340(2) 0.0563(3)
C10_3 C 0.7749(2) 0.7093(2) 0.0315(2)
C11_3 C 0.8907(2) 0.7428(2) 0.1043(3)
H6_3 H 0.9054 0.7837 0.1731
C12_3 C 0.9858(2) 0.7152(2) 0.0743(2)
O6_4 O 0.30536(19) 0.2278(2) 0.8391(2)
H1_4 H 0.379(3) 0.222(3) 0.827(3)
C3_4 C 0.3330(2) 0.2660(2) 0.9437(3)
C10_4 C 0.2251(2) 0.2907(2) 0.9685(2)
C11_4 C 0.1093(2) 0.2572(2) 0.8957(3)
H6_4 H 0.0946 0.2163 0.8269
C12_4 C 0.0142(2) 0.2848(2) 0.9257(2)
H7_4 H 0.9795 0.3690 0.0485
loop_
_geom_bond_atom_site_label_1
_geom_bond_atom_site_label_2
_geom_bond_site_symmetry_1
_geom_bond_site_symmetry_2
O5 C3 1_555 1_555
O6 H1 1_555 1_555
O7 C4 1_555 1_555
O8 C4 1_555 1_555
N2 C10 1_555 1_555
C3 O6 1_555 1_555
C4 C14 1_555 1_555
C10 C3 1_555 1_555
C11 C10 1_555 1_555
H6 C11 1_555 1_555
C13 C12 1_555 1_555
C14 N2 1_555 1_555
Ce4 O5 1_555 1_555
O7 Ce4 1_555 1_555
N2 Ce4 1_555 1_555
C11 C12 1_555 1_555
C13 C14 1_555 1_555
Ce1 O1 1_555 1_555
O1 C1 1_555 1_555
O2 C1 1_555 1_555
O3 Ce1 1_555 1_555
O4 C2 1_555 1_555
O9 Ce1 1_555 1_555
H2 O9 1_555 1_555
H3 O9 1_555 1_555
N1 Ce1 1_555 1_555
C1 C5 1_555 1_555
C2 O3 1_555 1_555
C5 N1 1_555 1_555
C6 C5 1_555 1_555
H4 C6 1_555 1_555
C7 C6 1_555 1_555
C8 C7 1_555 1_555
H5 C8 1_555 1_555
C9 N1 1_555 1_555
O11 Ce1 1_555 1_555
O12 Ce1 1_555 1_555
O13 Ce1 1_555 1_555
N3 Ce1 1_555 1_555
C2 C9 1_555 1_555
C8 C9 1_555 1_555
Ce2 O10 1_555 1_555
H3_2 O9_2 1_555 1_555
Ce4 O10_2 1_555 1_555
Ce3 O1_2 1_555 1_555
O1_2 C1_2 1_555 1_555
O2_2 C1_2 1_555 1_555
O3_2 Ce3 1_555 1_555
O11 C2_2 1_555 1_555
N1_2 Ce3 1_555 1_555
C1_2 C5_2 1_555 1_555
C2_2 O3_2 1_555 1_555
C5_2 N1_2 1_555 1_555
C6_2 C5_2 1_555 1_555
H4_2 C6_2 1_555 1_555
C7_2 C6_2 1_555 1_555
C8_2 C7_2 1_555 1_555
H5_2 C8_2 1_555 1_555
C9_2 N1_2 1_555 1_555
O12_2 Ce3 1_555 1_555
O13_2 Ce3 1_555 1_555
N3_2 Ce3 1_555 1_555
C2_2 C9_2 1_555 1_555
C8_2 C9_2 1_555 1_555
O7_2 C4_2 1_555 1_555
O8_2 C4_2 1_555 1_555
C4_2 C14_2 1_555 1_555
C14_2 N2_2 1_555 1_555
Ce2 O5_2 1_555 1_555
O7_2 Ce2 1_555 1_555
N2_2 Ce2 1_555 1_555
C13_2 C14_2 1_555 1_555
O10 C1_3 1_555 1_555
O2_3 C1_3 1_555 1_555
O3_3 Ce2 1_555 1_555
O4_2 C2_3 1_555 1_555
O9_3 Ce2 1_555 1_555
H2_3 O9_3 1_555 1_555
H3_3 O9_3 1_555 1_555
N1_3 Ce2 1_555 1_555
C1_3 C5_3 1_555 1_555
C2_3 O3_3 1_555 1_555
C5_3 N1_3 1_555 1_555
C6_3 C5_3 1_555 1_555
H4_3 C6_3 1_555 1_555
C7_3 C6_3 1_555 1_555
C8_3 C7_3 1_555 1_555
H5_3 C8_3 1_555 1_555
C9_3 N1_3 1_555 1_555
O11_2 Ce2 1_555 1_555
C2_3 C9_3 1_555 1_555
C8_3 C9_3 1_555 1_555
O12_2 C3_2 1_555 1_555
O6_2 H1_2 1_555 1_555
O13_2 C4_3 1_555 1_555
O8_3 C4_3 1_555 1_555
N3_2 C10_2 1_555 1_555
C3_2 O6_2 1_555 1_555
C4_3 C14_3 1_555 1_555
C10_2 C3_2 1_555 1_555
C11_2 C10_2 1_555 1_555
H6_2 C11_2 1_555 1_555
C13_3 C12_2 1_555 1_555
C14_3 N3_2 1_555 1_555
C11_2 C12_2 1_555 1_555
C13_3 C14_3 1_555 1_555
O13 C4_4 1_555 1_555
O8_4 C4_4 1_555 1_555
C4_4 C14_4 1_555 1_555
C14_4 N3 1_555 1_555
C13_4 C14_4 1_555 1_555
O10_2 C1_4 1_555 1_555
O2_4 C1_4 1_555 1_555
O3_4 Ce4 1_555 1_555
O11_2 C2_4 1_555 1_555
N1_4 Ce4 1_555 1_555
C1_4 C5_4 1_555 1_555
C2_4 O3_4 1_555 1_555
C5_4 N1_4 1_555 1_555
C6_4 C5_4 1_555 1_555
H4_4 C6_4 1_555 1_555
C7_4 C6_4 1_555 1_555
C8_4 C7_4 1_555 1_555
H5_4 C8_4 1_555 1_555
C9_4 N1_4 1_555 1_555
C2_4 C9_4 1_555 1_555
C8_4 C9_4 1_555 1_555
H3_4 O9_4 1_555 1_555
O6_3 H1_3 1_555 1_555
C3_3 O6_3 1_555 1_555
C10_3 C3_3 1_555 1_555
C11_3 C10_3 1_555 1_555
H6_3 C11_3 1_555 1_555
C11_3 C12_3 1_555 1_555
O6_4 H1_4 1_555 1_555
C3_4 O6_4 1_555 1_555
C10_4 C3_4 1_555 1_555
C11_4 C10_4 1_555 1_555
H6_4 C11_4 1_555 1_555
C11_4 C12_4 1_555 1_555

#END
