
###############################################################################
#
# This file contains modified crystal structure data generated from the
# MOF subset of the Cambridge Structural Database (CSD) v543 
# hosted by the Cambridge Crystallographic Data Centre (CCDC).
#
# This work is licensed under the Creative Commons
# Attribution-NonCommercial-ShareAlike 4.0 International License.
# To view a copy of this license, visit
# http://creativecommons.org/licenses/by-nc-sa/4.0/
# or send a letter to
# Creative Commons, PO Box 1866, Mountain View, CA 94042, USA.
#
# CIF created using the CSD Python API on 29 September 2022
# The structure has been converted into the P1 space group
# The structure has a 3D framework
# The original CSD entry COYTUG is in the monoclinic crystal system
# The framework has been calculated to contain at least 10.0% void space
# The void calculation uses a probe of radius 1.32A, grid spacing 0.4
# H atom positions have been added when not included in the experimental data
# Generated hydrogen atom positions removed from atoms on special positions
#
###############################################################################

data_COYTUG
_chemical_formula_moiety         '(C172 H144 N28 O124 Tb20)n'
_symmetry_cell_setting           triclinic
_symmetry_space_group_name_H-M   'P 1'
_symmetry_Int_Tables_number      1
_space_group_name_Hall           'P 1'
loop_
_symmetry_equiv_pos_site_id
_symmetry_equiv_pos_as_xyz
1 x,y,z
_cell_length_a                   12.130(4)
_cell_length_b                   22.320(7)
_cell_length_c                   21.819(9)
_cell_angle_alpha                90
_cell_angle_beta                 105.325(12)
_cell_angle_gamma                90
_cell_volume                     5697.26
loop_
_atom_site_label
_atom_site_type_symbol
_atom_site_fract_x
_atom_site_fract_y
_atom_site_fract_z
O16 O 0.052(4) 0.334(2) 0.5272(19)
H17 H 0.109533 0.357933 0.512844
H18 H 0.065392 0.338319 0.573891
Tb1 Tb 0.0000 0.21250(6) 0.2500
Tb2 Tb 0.5000 0.25299(6) 0.2500
Tb3 Tb 0.86221(9) 0.36953(8) 0.47445(5)
O1 O 0.6439(13) 0.3245(8) 0.3017(6)
O2 O 0.7148(11) 0.3889(6) 0.3817(6)
O3 O 0.3261(13) 0.2262(6) 0.2762(6)
O4 O 0.1784(13) 0.2532(6) 0.3125(7)
O5 O 0.3042(19) 0.6565(8) 0.4894(10)
O6 O 0.408(3) 0.6372(16) 0.4225(17)
O7 O 0.0559(18) 0.5419(8) 0.5338(10)
O8 O 0.166(3) 0.4502(14) 0.5827(15)
O9 O 0.0436(15) 0.2629(8) 0.1583(7)
O10 O 0.0365(15) 0.3445(9) 0.0978(7)
O11 O 0.0760(14) 0.7052(7) 0.3525(6)
O12 O 0.0888(17) 0.6229(8) 0.4131(7)
O13 O 0.1483(15) 0.1550(8) 0.2171(9)
O14 O 0.0765(16) 0.1414(8) 0.3364(9)
O15 O 0.802(3) 0.2720(9) 0.4338(13)
N1 N 0.4500(14) 0.3161(7) 0.3313(7)
N2 N 0.2448(15) 0.5446(9) 0.4940(7)
C1 C 0.0374(19) 0.3158(13) 0.1496(11)
C2 C 0.0689(19) 0.6502(12) 0.3605(10)
C3 C 0.6371(17) 0.3590(9) 0.3471(9)
C4 C 0.5192(15) 0.3604(8) 0.3607(8)
C5 C 0.4850(15) 0.4041(8) 0.3955(8)
H1 H 0.5367 0.4347 0.4151
C6 C 0.3735(16) 0.4034(8) 0.4021(9)
C7 C 0.3050(18) 0.3550(9) 0.3768(9)
H2 H 0.2308 0.3510 0.3832
C8 C 0.3464(16) 0.3123(8) 0.3420(8)
C9 C 0.2767(19) 0.2584(9) 0.3065(8)
C10 C 0.344(4) 0.6219(12) 0.456(2)
C11 C 0.317(2) 0.5552(10) 0.4595(12)
C12 C 0.363(2) 0.5107(9) 0.4311(12)
H3 H 0.4162 0.5201 0.4075
C13 C 0.3311(17) 0.4512(9) 0.4369(9)
C14 C 0.251(2) 0.4430(9) 0.4715(12)
H4 H 0.2236 0.4038 0.4756
C15 C 0.211(2) 0.4905(10) 0.5002(13)
C16 C 0.1297(17) 0.4971(9) 0.5446(11)
N3 N 0.0000 0.3263(10) 0.2500
C17 C 0.017(2) 0.3572(9) 0.2011(10)
C18 C 0.018(2) 0.4180(9) 0.1991(12)
H5 H 0.0303 0.4380 0.1631
C19 C 0.0000 0.4510(11) 0.2500
N4 N 0.0000 0.6413(10) 0.2500
C20 C 0.031(2) 0.6092(8) 0.3029(9)
C21 C 0.033(2) 0.5486(10) 0.3055(10)
H6 H 0.0559 0.5289 0.3454
C22 C 0.0000 0.5153(16) 0.2500
Tb4 Tb 0.0000 0.75299(6) 0.2500
Tb7 Tb 0.13779(9) 0.63047(8) 0.52555(5)
Tb8 Tb 0.13779(9) 0.36953(8) 0.02555(5)
O18 O 0.3561(13) 0.3245(8) 0.1983(6)
O21 O 0.6739(13) 0.2262(6) 0.2238(6)
O24 O 0.6958(19) 0.3435(8) 0.5106(10)
O28 O 0.9441(18) 0.4581(8) 0.4662(10)
O33 O 0.9635(15) 0.3445(9) 0.4022(7)
O36 O 0.5760(14) 0.2052(7) 0.3525(6)
O37 O 0.4240(14) 0.2052(7) 0.1475(6)
O39 O 0.9112(17) 0.3771(8) 0.5869(7)
N6 N 0.5500(14) 0.3161(7) 0.1687(7)
N8 N 0.7552(15) 0.4554(9) 0.5060(7)
N10 N 0.5000 0.1413(10) 0.2500
H15 H 0.81297 0.267852 0.390483
H16 H 0.848096 0.24117 0.462154
Tb1_2 Tb 1.0000 0.21250(6) 0.2500
N3_2 N 1.0000 0.3263(10) 0.2500
C19_2 C 1.0000 0.4510(11) 0.2500
N4_2 N 1.0000 0.6413(10) 0.2500
C22_2 C 1.0000 0.5153(16) 0.2500
Tb4_2 Tb 1.0000 0.75299(6) 0.2500
O19 O 0.2852(11) 0.3889(6) 0.1183(6)
O22 O 0.8216(13) 0.2532(6) 0.1875(7)
O23 O 0.6958(19) 0.6565(8) 0.0106(10)
O26 O 0.592(3) 0.6372(16) 0.0775(17)
O29 O 0.0559(18) 0.4581(8) 0.0338(10)
O31 O 0.9564(15) 0.2629(8) 0.3417(7)
O35 O 0.9240(14) 0.7052(7) 0.1475(6)
O38 O 0.9112(17) 0.6229(8) 0.0869(7)
O41 O 0.8517(15) 0.1550(8) 0.2829(9)
O42 O 0.9235(16) 0.1414(8) 0.1636(9)
O43 O 0.198(3) 0.2720(9) 0.0662(13)
N7 N 0.7552(15) 0.5446(9) 0.0060(7)
C23 C 0.9626(19) 0.3158(13) 0.3504(11)
C24 C 0.9311(19) 0.6502(12) 0.1395(10)
C25 C 0.3629(17) 0.3590(9) 0.1529(9)
C26 C 0.4808(15) 0.3604(8) 0.1393(8)
C27 C 0.5150(15) 0.4041(8) 0.1045(8)
H7 H 0.4633 0.4347 0.0849
C28 C 0.6265(16) 0.4034(8) 0.0979(9)
C29 C 0.6950(18) 0.3550(9) 0.1232(9)
H8 H 0.7692 0.3510 0.1168
C30 C 0.6536(16) 0.3123(8) 0.1580(8)
C31 C 0.7233(19) 0.2584(9) 0.1935(8)
C32 C 0.656(4) 0.6219(12) 0.044(2)
C33 C 0.683(2) 0.5552(10) 0.0405(12)
C34 C 0.637(2) 0.5107(9) 0.0689(12)
H9 H 0.5838 0.5201 0.0925
C35 C 0.6689(17) 0.4512(9) 0.0631(9)
C36 C 0.749(2) 0.4430(9) 0.0285(12)
H10 H 0.7764 0.4038 0.0244
C39 C 0.983(2) 0.3572(9) 0.2989(10)
C40 C 0.982(2) 0.4180(9) 0.3009(12)
H11 H 0.9697 0.4380 0.3369
C41 C 0.969(2) 0.6092(8) 0.1971(9)
C42 C 0.967(2) 0.5486(10) 0.1945(10)
H12 H 0.9441 0.5289 0.1546
H27 H 0.18703 0.267852 0.109517
H28 H 0.151904 0.24117 0.0378464
Tb10 Tb 0.86221(9) 0.63047(8) 0.97445(5)
O25 O 0.3042(19) 0.3435(8) 0.9894(10)
O27 O 0.9441(18) 0.5419(8) 0.9662(10)
O30 O 0.834(3) 0.4502(14) 0.9173(15)
O40 O 0.0888(17) 0.3771(8) 0.9131(7)
N9 N 0.2448(15) 0.4554(9) 0.9940(7)
C37 C 0.789(2) 0.4905(10) 0.9998(13)
C38 C 0.8703(17) 0.4971(9) 0.9554(11)
Tb3_2 Tb 0.36221(9) 0.86953(8) 0.47445(5)
O1_2 O 0.1439(13) 0.8245(8) 0.3017(6)
O2_2 O 0.2148(11) 0.8889(6) 0.3817(6)
O15_2 O 0.302(3) 0.7720(9) 0.4338(13)
O16_2 O 0.552(4) 0.834(2) 0.5272(19)
C3_2 C 0.1371(17) 0.8590(9) 0.3471(9)
C4_2 C 0.0192(15) 0.8604(8) 0.3607(8)
H1_2 H 0.0367 0.9347 0.4151
O21_2 O 0.1739(13) 0.7262(6) 0.2238(6)
O24_2 O 0.1958(19) 0.8435(8) 0.5106(10)
O28_2 O 0.4441(18) 0.9581(8) 0.4662(10)
O33_2 O 0.4635(15) 0.8445(9) 0.4022(7)
O39_2 O 0.4112(17) 0.8771(8) 0.5869(7)
N6_2 N 0.0500(14) 0.8161(7) 0.1687(7)
N8_2 N 0.2552(15) 0.9554(9) 0.5060(7)
H15_2 H 0.31297 0.767852 0.390483
H16_2 H 0.348096 0.74117 0.462154
H17_2 H 0.609533 0.857933 0.512844
H18_2 H 0.565392 0.838319 0.573891
O5_2 O 0.8042(19) 0.1565(8) 0.4894(10)
O6_2 O 0.908(3) 0.1372(16) 0.4225(17)
O7_2 O 0.5559(18) 0.0419(8) 0.5338(10)
O12_2 O 0.5888(17) 0.1229(8) 0.4131(7)
N2_2 N 0.7448(15) 0.0446(9) 0.4940(7)
C2_2 C 0.5689(19) 0.1502(12) 0.3605(10)
C10_2 C 0.844(4) 0.1219(12) 0.456(2)
C11_2 C 0.817(2) 0.0552(10) 0.4595(12)
C12_2 C 0.863(2) 0.0107(9) 0.4311(12)
H3_2 H 0.9162 0.0201 0.4075
C20_2 C 0.531(2) 0.1092(8) 0.3029(9)
C21_2 C 0.533(2) 0.0486(10) 0.3055(10)
H6_2 H 0.5559 0.0289 0.3454
C22_3 C 0.5000 0.0153(16) 0.2500
Tb7_2 Tb 0.63779(9) 0.13047(8) 0.52555(5)
O23_2 O 0.1958(19) 0.1565(8) 0.0106(10)
O26_2 O 0.092(3) 0.1372(16) 0.0775(17)
O38_2 O 0.4112(17) 0.1229(8) 0.0869(7)
N7_2 N 0.2552(15) 0.0446(9) 0.0060(7)
C24_2 C 0.4311(19) 0.1502(12) 0.1395(10)
C32_2 C 0.156(4) 0.1219(12) 0.044(2)
C33_2 C 0.183(2) 0.0552(10) 0.0405(12)
C34_2 C 0.137(2) 0.0107(9) 0.0689(12)
H9_2 H 0.0838 0.0201 0.0925
C41_2 C 0.469(2) 0.1092(8) 0.1971(9)
C42_2 C 0.467(2) 0.0486(10) 0.1945(10)
H12_2 H 0.4441 0.0289 0.1546
Tb10_2 Tb 0.36221(9) 0.13047(8) 0.97445(5)
O27_2 O 0.4441(18) 0.0419(8) 0.9662(10)
Tb1_3 Tb 0.5000 0.71250(6) 0.2500
O3_2 O 0.8261(13) 0.7262(6) 0.2762(6)
O4_2 O 0.6784(13) 0.7532(6) 0.3125(7)
O8_2 O 0.666(3) 0.9502(14) 0.5827(15)
O9_2 O 0.5436(15) 0.7629(8) 0.1583(7)
O10_2 O 0.5365(15) 0.8445(9) 0.0978(7)
O13_2 O 0.6483(15) 0.6550(8) 0.2171(9)
O14_2 O 0.5765(16) 0.6414(8) 0.3364(9)
N1_2 N 0.9500(14) 0.8161(7) 0.3313(7)
C1_2 C 0.5374(19) 0.8158(13) 0.1496(11)
C5_2 C 0.9850(15) 0.9041(8) 0.3955(8)
C6_2 C 0.8735(16) 0.9034(8) 0.4021(9)
C7_2 C 0.8050(18) 0.8550(9) 0.3768(9)
H2_2 H 0.7308 0.8510 0.3832
C8_2 C 0.8464(16) 0.8123(8) 0.3420(8)
C9_2 C 0.7767(19) 0.7584(9) 0.3065(8)
C13_2 C 0.8311(17) 0.9512(9) 0.4369(9)
C14_2 C 0.751(2) 0.9430(9) 0.4715(12)
H4_2 H 0.7236 0.9038 0.4756
C15_2 C 0.711(2) 0.9905(10) 0.5002(13)
C16_2 C 0.6297(17) 0.9971(9) 0.5446(11)
N3_3 N 0.5000 0.8263(10) 0.2500
C17_2 C 0.517(2) 0.8572(9) 0.2011(10)
C18_2 C 0.518(2) 0.9180(9) 0.1991(12)
H5_2 H 0.5303 0.9380 0.1631
C19_3 C 0.5000 0.9510(11) 0.2500
Tb8_2 Tb 0.63779(9) 0.86953(8) 0.02555(5)
O18_2 O 0.8561(13) 0.8245(8) 0.1983(6)
O22_2 O 0.3216(13) 0.7532(6) 0.1875(7)
O31_2 O 0.4564(15) 0.7629(8) 0.3417(7)
O41_2 O 0.3517(15) 0.6550(8) 0.2829(9)
O42_2 O 0.4235(16) 0.6414(8) 0.1636(9)
C23_2 C 0.4626(19) 0.8158(13) 0.3504(11)
C27_2 C 0.0150(15) 0.9041(8) 0.1045(8)
C28_2 C 0.1265(16) 0.9034(8) 0.0979(9)
C29_2 C 0.1950(18) 0.8550(9) 0.1232(9)
H8_2 H 0.2692 0.8510 0.1168
C30_2 C 0.1536(16) 0.8123(8) 0.1580(8)
C31_2 C 0.2233(19) 0.7584(9) 0.1935(8)
C35_2 C 0.1689(17) 0.9512(9) 0.0631(9)
C36_2 C 0.249(2) 0.9430(9) 0.0285(12)
H10_2 H 0.2764 0.9038 0.0244
C39_2 C 0.483(2) 0.8572(9) 0.2989(10)
C40_2 C 0.482(2) 0.9180(9) 0.3009(12)
H11_2 H 0.4697 0.9380 0.3369
O19_2 O 0.7852(11) 0.8889(6) 0.1183(6)
O29_2 O 0.5559(18) 0.9581(8) 0.0338(10)
O43_2 O 0.698(3) 0.7720(9) 0.0662(13)
C25_2 C 0.8629(17) 0.8590(9) 0.1529(9)
C26_2 C 0.9808(15) 0.8604(8) 0.1393(8)
H7_2 H 0.9633 0.9347 0.0849
H27_2 H 0.68703 0.767852 0.109517
H28_2 H 0.651904 0.74117 0.0378464
O25_2 O 0.8042(19) 0.8435(8) 0.9894(10)
O40_2 O 0.5888(17) 0.8771(8) 0.9131(7)
O44 O 0.448(4) 0.834(2) 0.9728(19)
N9_2 N 0.7448(15) 0.9554(9) 0.9940(7)
H25 H 0.390467 0.857933 0.987156
H26 H 0.434608 0.838319 0.926109
O30_2 O 0.166(3) 0.5498(14) 0.0827(15)
C37_2 C 0.211(2) 0.5095(10) 0.0002(13)
C38_2 C 0.1297(17) 0.5029(9) 0.0446(11)
Tb1_4 Tb 0.0000 0.78750(6) 0.7500
N3_4 N 0.0000 0.6737(10) 0.7500
C19_4 C 0.0000 0.5490(11) 0.7500
N4_3 N 0.0000 0.3587(10) 0.7500
C22_4 C 0.0000 0.4847(16) 0.7500
Tb4_3 Tb 0.0000 0.24701(6) 0.7500
Tb5 Tb 0.5000 0.74701(6) 0.7500
O17 O 0.6439(13) 0.6755(8) 0.8017(6)
O19_3 O 0.7148(11) 0.6111(6) 0.8817(6)
O20 O 0.3261(13) 0.7738(6) 0.7762(6)
O22_3 O 0.1784(13) 0.7468(6) 0.8125(7)
O26_3 O 0.408(3) 0.3628(16) 0.9225(17)
O31_3 O 0.0436(15) 0.7371(8) 0.6583(7)
O32 O 0.0365(15) 0.6555(9) 0.5978(7)
O34 O 0.9635(15) 0.6555(9) 0.9022(7)
O35_2 O 0.0760(14) 0.2948(7) 0.8525(6)
O41_3 O 0.1483(15) 0.8450(8) 0.7171(9)
O42_3 O 0.0765(16) 0.8586(8) 0.8364(9)
O43_3 O 0.802(3) 0.7280(9) 0.9338(13)
N5 N 0.4500(14) 0.6839(7) 0.8313(7)
C23_3 C 0.0374(19) 0.6842(13) 0.6496(11)
C24_3 C 0.0689(19) 0.3498(12) 0.8605(10)
C25_3 C 0.6371(17) 0.6410(9) 0.8471(9)
C26_3 C 0.5192(15) 0.6396(8) 0.8607(8)
C27_3 C 0.4850(15) 0.5959(8) 0.8955(8)
H7_3 H 0.5367 0.5653 0.9151
C28_3 C 0.3735(16) 0.5966(8) 0.9021(9)
C29_3 C 0.3050(18) 0.6450(9) 0.8768(9)
H8_3 H 0.2308 0.6490 0.8832
C30_3 C 0.3464(16) 0.6877(8) 0.8420(8)
C31_3 C 0.2767(19) 0.7416(9) 0.8065(8)
C32_3 C 0.344(4) 0.3781(12) 0.956(2)
C33_3 C 0.317(2) 0.4448(10) 0.9595(12)
C34_3 C 0.363(2) 0.4893(9) 0.9311(12)
H9_3 H 0.4162 0.4799 0.9075
C35_3 C 0.3311(17) 0.5488(9) 0.9369(9)
C36_3 C 0.251(2) 0.5570(9) 0.9715(12)
H10_3 H 0.2236 0.5962 0.9756
C39_3 C 0.017(2) 0.6428(9) 0.7011(10)
C40_3 C 0.018(2) 0.5820(9) 0.6991(12)
H11_3 H 0.0303 0.5620 0.6631
C41_3 C 0.031(2) 0.3908(8) 0.8029(9)
C42_3 C 0.033(2) 0.4514(10) 0.8055(10)
H12_3 H 0.0559 0.4711 0.8454
H27_3 H 0.81297 0.732148 0.890483
H28_3 H 0.848096 0.75883 0.962154
Tb1_5 Tb 1.0000 0.78750(6) 0.7500
O1_3 O 0.3561(13) 0.6755(8) 0.6983(6)
O2_3 O 0.2852(11) 0.6111(6) 0.6183(6)
O3_3 O 0.6739(13) 0.7738(6) 0.7238(6)
O4_3 O 0.8216(13) 0.7468(6) 0.6875(7)
O6_3 O 0.592(3) 0.3628(16) 0.5775(17)
O8_3 O 0.834(3) 0.5498(14) 0.4173(15)
O9_3 O 0.9564(15) 0.7371(8) 0.8417(7)
O11_2 O 0.9240(14) 0.2948(7) 0.6475(6)
O13_3 O 0.8517(15) 0.8450(8) 0.7829(9)
O14_3 O 0.9235(16) 0.8586(8) 0.6636(9)
O15_3 O 0.198(3) 0.7280(9) 0.5662(13)
N1_3 N 0.5500(14) 0.6839(7) 0.6687(7)
C1_3 C 0.9626(19) 0.6842(13) 0.8504(11)
C2_3 C 0.9311(19) 0.3498(12) 0.6395(10)
C3_3 C 0.3629(17) 0.6410(9) 0.6529(9)
C4_3 C 0.4808(15) 0.6396(8) 0.6393(8)
C5_3 C 0.5150(15) 0.5959(8) 0.6045(8)
H1_3 H 0.4633 0.5653 0.5849
C6_3 C 0.6265(16) 0.5966(8) 0.5979(9)
C7_3 C 0.6950(18) 0.6450(9) 0.6232(9)
H2_3 H 0.7692 0.6490 0.6168
C8_3 C 0.6536(16) 0.6877(8) 0.6580(8)
C9_3 C 0.7233(19) 0.7416(9) 0.6935(8)
C10_3 C 0.656(4) 0.3781(12) 0.544(2)
C11_3 C 0.683(2) 0.4448(10) 0.5405(12)
C12_3 C 0.637(2) 0.4893(9) 0.5689(12)
H3_3 H 0.5838 0.4799 0.5925
C13_3 C 0.6689(17) 0.5488(9) 0.5631(9)
C14_3 C 0.749(2) 0.5570(9) 0.5285(12)
H4_3 H 0.7764 0.5962 0.5244
C15_3 C 0.789(2) 0.5095(10) 0.4998(13)
C16_3 C 0.8703(17) 0.5029(9) 0.4554(11)
N3_5 N 1.0000 0.6737(10) 0.7500
C17_3 C 0.983(2) 0.6428(9) 0.7989(10)
C18_3 C 0.982(2) 0.5820(9) 0.8009(12)
H5_3 H 0.9697 0.5620 0.8369
C19_5 C 1.0000 0.5490(11) 0.7500
N4_4 N 1.0000 0.3587(10) 0.7500
C20_3 C 0.969(2) 0.3908(8) 0.6971(9)
C21_3 C 0.967(2) 0.4514(10) 0.6945(10)
H6_3 H 0.9441 0.4711 0.6546
C22_5 C 1.0000 0.4847(16) 0.7500
Tb4_4 Tb 1.0000 0.24701(6) 0.7500
O36_2 O 0.4240(14) 0.7948(7) 0.6475(6)
O37_2 O 0.5760(14) 0.7948(7) 0.8525(6)
N10_2 N 0.5000 0.8587(10) 0.7500
H15_3 H 0.18703 0.732148 0.609517
H16_3 H 0.151904 0.75883 0.537846
O44_2 O 0.552(4) 0.166(2) 0.0272(19)
H25_2 H 0.609533 0.142067 0.0128444
H26_2 H 0.565392 0.161681 0.0738907
O17_2 O 0.1439(13) 0.1755(8) 0.8017(6)
O19_4 O 0.2148(11) 0.1111(6) 0.8817(6)
O34_2 O 0.4635(15) 0.1555(9) 0.9022(7)
O43_4 O 0.302(3) 0.2280(9) 0.9338(13)
C25_4 C 0.1371(17) 0.1410(9) 0.8471(9)
C26_4 C 0.0192(15) 0.1396(8) 0.8607(8)
H7_4 H 0.0367 0.0653 0.9151
H27_4 H 0.31297 0.232148 0.890483
H28_4 H 0.348096 0.25883 0.962154
Tb1_6 Tb 0.5000 0.28750(6) 0.7500
O3_4 O 0.1739(13) 0.2738(6) 0.7238(6)
O4_4 O 0.3216(13) 0.2468(6) 0.6875(7)
O8_4 O 0.334(3) 0.0498(14) 0.4173(15)
O9_4 O 0.4564(15) 0.2371(8) 0.8417(7)
O13_4 O 0.3517(15) 0.3450(8) 0.7829(9)
O14_4 O 0.4235(16) 0.3586(8) 0.6636(9)
N1_4 N 0.0500(14) 0.1839(7) 0.6687(7)
C1_4 C 0.4626(19) 0.1842(13) 0.8504(11)
C5_4 C 0.0150(15) 0.0959(8) 0.6045(8)
C6_4 C 0.1265(16) 0.0966(8) 0.5979(9)
C7_4 C 0.1950(18) 0.1450(9) 0.6232(9)
H2_4 H 0.2692 0.1490 0.6168
C8_4 C 0.1536(16) 0.1877(8) 0.6580(8)
C9_4 C 0.2233(19) 0.2416(9) 0.6935(8)
C13_4 C 0.1689(17) 0.0488(9) 0.5631(9)
C14_4 C 0.249(2) 0.0570(9) 0.5285(12)
H4_4 H 0.2764 0.0962 0.5244
C15_4 C 0.289(2) 0.0095(10) 0.4998(13)
C16_4 C 0.3703(17) 0.0029(9) 0.4554(11)
N3_6 N 0.5000 0.1737(10) 0.7500
C17_4 C 0.483(2) 0.1428(9) 0.7989(10)
C18_4 C 0.482(2) 0.0820(9) 0.8009(12)
H5_4 H 0.4697 0.0620 0.8369
C19_6 C 0.5000 0.0490(11) 0.7500
O20_2 O 0.8261(13) 0.2738(6) 0.7762(6)
O22_4 O 0.6784(13) 0.2468(6) 0.8125(7)
O31_4 O 0.5436(15) 0.2371(8) 0.6583(7)
O32_2 O 0.5365(15) 0.1555(9) 0.5978(7)
O41_4 O 0.6483(15) 0.3450(8) 0.7171(9)
O42_4 O 0.5765(16) 0.3586(8) 0.8364(9)
N5_2 N 0.9500(14) 0.1839(7) 0.8313(7)
C23_4 C 0.5374(19) 0.1842(13) 0.6496(11)
C27_4 C 0.9850(15) 0.0959(8) 0.8955(8)
C28_4 C 0.8735(16) 0.0966(8) 0.9021(9)
C29_4 C 0.8050(18) 0.1450(9) 0.8768(9)
H8_4 H 0.7308 0.1490 0.8832
C30_4 C 0.8464(16) 0.1877(8) 0.8420(8)
C31_4 C 0.7767(19) 0.2416(9) 0.8065(8)
C35_4 C 0.8311(17) 0.0488(9) 0.9369(9)
C36_4 C 0.751(2) 0.0570(9) 0.9715(12)
H10_4 H 0.7236 0.0962 0.9756
C39_4 C 0.517(2) 0.1428(9) 0.7011(10)
C40_4 C 0.518(2) 0.0820(9) 0.6991(12)
H11_4 H 0.5303 0.0620 0.6631
O6_4 O 0.092(3) 0.8628(16) 0.5775(17)
C2_4 C 0.4311(19) 0.8498(12) 0.6395(10)
C10_4 C 0.156(4) 0.8781(12) 0.544(2)
C11_4 C 0.183(2) 0.9448(10) 0.5405(12)
C12_4 C 0.137(2) 0.9893(9) 0.5689(12)
H3_4 H 0.0838 0.9799 0.5925
C20_4 C 0.469(2) 0.8908(8) 0.6971(9)
C21_4 C 0.467(2) 0.9514(10) 0.6945(10)
H6_4 H 0.4441 0.9711 0.6546
C22_6 C 0.5000 0.9847(16) 0.7500
O26_4 O 0.908(3) 0.8628(16) 0.9225(17)
C24_4 C 0.5689(19) 0.8498(12) 0.8605(10)
C32_4 C 0.844(4) 0.8781(12) 0.956(2)
C33_4 C 0.817(2) 0.9448(10) 0.9595(12)
C34_4 C 0.863(2) 0.9893(9) 0.9311(12)
H9_4 H 0.9162 0.9799 0.9075
C41_4 C 0.531(2) 0.8908(8) 0.8029(9)
C42_4 C 0.533(2) 0.9514(10) 0.8055(10)
H12_4 H 0.5559 0.9711 0.8454
O1_4 O 0.8561(13) 0.1755(8) 0.6983(6)
O2_4 O 0.7852(11) 0.1111(6) 0.6183(6)
O15_4 O 0.698(3) 0.2280(9) 0.5662(13)
O16_3 O 0.448(4) 0.166(2) 0.4728(19)
C3_4 C 0.8629(17) 0.1410(9) 0.6529(9)
C4_4 C 0.9808(15) 0.1396(8) 0.6393(8)
H1_4 H 0.9633 0.0653 0.5849
H15_4 H 0.68703 0.232148 0.609517
H16_4 H 0.651904 0.25883 0.537846
H17_3 H 0.390467 0.142067 0.487156
H18_3 H 0.434608 0.161681 0.426109
O44_3 O 0.948(4) 0.334(2) 0.9728(19)
H25_3 H 0.890467 0.357933 0.987156
H26_3 H 0.934608 0.338319 0.926109
O30_3 O 0.334(3) 0.9502(14) 0.9173(15)
C37_3 C 0.289(2) 0.9905(10) 0.9998(13)
C38_3 C 0.3703(17) 0.9971(9) 0.9554(11)
O44_4 O 0.052(4) 0.666(2) 0.0272(19)
H25_4 H 0.109533 0.642067 0.0128444
H26_4 H 0.065392 0.661681 0.0738907
O16_4 O 0.948(4) 0.666(2) 0.4728(19)
H17_4 H 0.890467 0.642067 0.487156
H18_4 H 0.934608 0.661681 0.426109
O30_4 O 0.666(3) 0.0498(14) 0.0827(15)
C37_4 C 0.711(2) 0.0095(10) 0.0002(13)
C38_4 C 0.6297(17) 0.0029(9) 0.0446(11)
loop_
_geom_bond_atom_site_label_1
_geom_bond_atom_site_label_2
_geom_bond_site_symmetry_1
_geom_bond_site_symmetry_2
O16 H17 1_555 1_555
O16 H18 1_555 1_555
Tb1 O4 1_555 1_555
Tb2 O1 1_555 1_555
Tb3 O2 1_555 1_555
O1 C3 1_555 1_555
O2 C3 1_555 1_555
O3 Tb2 1_555 1_555
O4 C9 1_555 1_555
O5 C10 1_555 1_555
O6 C10 1_555 1_555
O7 C16 1_555 1_555
O8 C16 1_555 1_555
O9 Tb1 1_555 1_555
O10 C1 1_555 1_555
O11 C2 1_555 1_555
O12 C2 1_555 1_555
O13 Tb1 1_555 1_555
O14 Tb1 1_555 1_555
O15 Tb3 1_555 1_555
N1 Tb2 1_555 1_555
N2 C11 1_555 1_555
C1 O9 1_555 1_555
C2 C20 1_555 1_555
C3 C4 1_555 1_555
C4 N1 1_555 1_555
C5 C4 1_555 1_555
H1 C5 1_555 1_555
C6 C5 1_555 1_555
C7 C6 1_555 1_555
H2 C7 1_555 1_555
C8 N1 1_555 1_555
C9 O3 1_555 1_555
C10 C11 1_555 1_555
C11 C12 1_555 1_555
C12 H3 1_555 1_555
C13 C6 1_555 1_555
C14 C13 1_555 1_555
H4 C14 1_555 1_555
C15 N2 1_555 1_555
C16 C15 1_555 1_555
N3 Tb1 1_555 1_555
C17 C1 1_555 1_555
C18 C17 1_555 1_555
H5 C18 1_555 1_555
C19 C18 1_555 1_555
N4 C20 1_555 1_555
C20 C21 1_555 1_555
C21 H6 1_555 1_555
C22 C19 1_555 1_555
Tb4 O11 1_555 1_555
Tb7 O5 1_555 1_555
Tb8 O10 1_555 1_555
O18 Tb2 1_555 1_555
O21 Tb2 1_555 1_555
O24 Tb3 1_555 1_555
O28 Tb3 1_555 1_555
O33 Tb3 1_555 1_555
O36 Tb2 1_555 1_555
O37 Tb2 1_555 1_555
O39 Tb3 1_555 1_555
N6 Tb2 1_555 1_555
N8 Tb3 1_555 1_555
N10 Tb2 1_555 1_555
O7 Tb7 1_555 1_555
O12 Tb7 1_555 1_555
N2 Tb7 1_555 1_555
C7 C8 1_555 1_555
C8 C9 1_555 1_555
C12 C13 1_555 1_555
C14 C15 1_555 1_555
N3 C17 1_555 1_555
N4 Tb4 1_555 1_555
C21 C22 1_555 1_555
O15 H15 1_555 1_555
O15 H16 1_555 1_555
N3_2 Tb1_2 1_555 1_555
C22_2 C19_2 1_555 1_555
Tb8 O19 1_555 1_555
O18 C25 1_555 1_555
O19 C25 1_555 1_555
O22 Tb1_2 1_555 1_555
O23 C32 1_555 1_555
O26 C32 1_555 1_555
O29 Tb8 1_555 1_555
O31 Tb1_2 1_555 1_555
O33 C23 1_555 1_555
O35 Tb4_2 1_555 1_555
O41 Tb1_2 1_555 1_555
O42 Tb1_2 1_555 1_555
O43 Tb8 1_555 1_555
C23 O31 1_555 1_555
C24 O35 1_555 1_555
C25 C26 1_555 1_555
C26 N6 1_555 1_555
C27 C26 1_555 1_555
H7 C27 1_555 1_555
C28 C27 1_555 1_555
C29 C28 1_555 1_555
H8 C29 1_555 1_555
C30 N6 1_555 1_555
C31 O21 1_555 1_555
C32 C33 1_555 1_555
C33 N7 1_555 1_555
C34 C33 1_555 1_555
H9 C34 1_555 1_555
C35 C28 1_555 1_555
C36 C35 1_555 1_555
H10 C36 1_555 1_555
C39 N3_2 1_555 1_555
C40 C19_2 1_555 1_555
H11 C40 1_555 1_555
C41 N4_2 1_555 1_555
C42 C22_2 1_555 1_555
H12 C42 1_555 1_555
N4_2 Tb4_2 1_555 1_555
O22 C31 1_555 1_555
O38 C24 1_555 1_555
C23 C39 1_555 1_555
C24 C41 1_555 1_555
C29 C30 1_555 1_555
C30 C31 1_555 1_555
C34 C35 1_555 1_555
C39 C40 1_555 1_555
C41 C42 1_555 1_555
O43 H27 1_555 1_555
O43 H28 1_555 1_555
O27 Tb10 1_555 1_555
O30 C38 1_555 1_555
C38 O27 1_555 1_555
C37 C38 1_555 1_555
Tb4 O1_2 1_555 1_555
Tb3_2 O2_2 1_555 1_555
O1_2 C3_2 1_555 1_555
O2_2 C3_2 1_555 1_555
O15_2 Tb3_2 1_555 1_555
O16_2 Tb3_2 1_555 1_555
C3_2 C4_2 1_555 1_555
O21_2 Tb4 1_555 1_555
O24_2 Tb3_2 1_555 1_555
O28_2 Tb3_2 1_555 1_555
O33_2 Tb3_2 1_555 1_555
O39_2 Tb3_2 1_555 1_555
N6_2 Tb4 1_555 1_555
N8_2 Tb3_2 1_555 1_555
O15_2 H15_2 1_555 1_555
O15_2 H16_2 1_555 1_555
O16_2 H17_2 1_555 1_555
O16_2 H18_2 1_555 1_555
O5_2 C10_2 1_555 1_555
O6_2 C10_2 1_555 1_555
O36 C2_2 1_555 1_555
O12_2 C2_2 1_555 1_555
N2_2 C11_2 1_555 1_555
C2_2 C20_2 1_555 1_555
C10_2 C11_2 1_555 1_555
C11_2 C12_2 1_555 1_555
C12_2 H3_2 1_555 1_555
N10 C20_2 1_555 1_555
C20_2 C21_2 1_555 1_555
C21_2 H6_2 1_555 1_555
Tb7_2 O5_2 1_555 1_555
O23_2 C32_2 1_555 1_555
O26_2 C32_2 1_555 1_555
C24_2 O37 1_555 1_555
C32_2 C33_2 1_555 1_555
C33_2 N7_2 1_555 1_555
C34_2 C33_2 1_555 1_555
H9_2 C34_2 1_555 1_555
C41_2 N10 1_555 1_555
C42_2 C22_3 1_555 1_555
H12_2 C42_2 1_555 1_555
O7_2 Tb7_2 1_555 1_555
O12_2 Tb7_2 1_555 1_555
N2_2 Tb7_2 1_555 1_555
C21_2 C22_3 1_555 1_555
O38_2 C24_2 1_555 1_555
C24_2 C41_2 1_555 1_555
C41_2 C42_2 1_555 1_555
O27_2 Tb10_2 1_555 1_555
Tb1_3 O4_2 1_555 1_555
O3_2 Tb4_2 1_555 1_555
O4_2 C9_2 1_555 1_555
O8_2 C16_2 1_555 1_555
O9_2 Tb1_3 1_555 1_555
O10_2 C1_2 1_555 1_555
O13_2 Tb1_3 1_555 1_555
O14_2 Tb1_3 1_555 1_555
N1_2 Tb4_2 1_555 1_555
C1_2 O9_2 1_555 1_555
C6_2 C5_2 1_555 1_555
C7_2 C6_2 1_555 1_555
H2_2 C7_2 1_555 1_555
C8_2 N1_2 1_555 1_555
C9_2 O3_2 1_555 1_555
C13_2 C6_2 1_555 1_555
C14_2 C13_2 1_555 1_555
H4_2 C14_2 1_555 1_555
C16_2 C15_2 1_555 1_555
N3_3 Tb1_3 1_555 1_555
C17_2 C1_2 1_555 1_555
C18_2 C17_2 1_555 1_555
H5_2 C18_2 1_555 1_555
C19_3 C18_2 1_555 1_555
Tb8_2 O10_2 1_555 1_555
O18_2 Tb4_2 1_555 1_555
O22_2 Tb1_3 1_555 1_555
O31_2 Tb1_3 1_555 1_555
O33_2 C23_2 1_555 1_555
O41_2 Tb1_3 1_555 1_555
O42_2 Tb1_3 1_555 1_555
C23_2 O31_2 1_555 1_555
C28_2 C27_2 1_555 1_555
C29_2 C28_2 1_555 1_555
H8_2 C29_2 1_555 1_555
C30_2 N6_2 1_555 1_555
C31_2 O21_2 1_555 1_555
C35_2 C28_2 1_555 1_555
C36_2 C35_2 1_555 1_555
H10_2 C36_2 1_555 1_555
C39_2 N3_3 1_555 1_555
C40_2 C19_3 1_555 1_555
H11_2 C40_2 1_555 1_555
C7_2 C8_2 1_555 1_555
C8_2 C9_2 1_555 1_555
C14_2 C15_2 1_555 1_555
N3_3 C17_2 1_555 1_555
O22_2 C31_2 1_555 1_555
C23_2 C39_2 1_555 1_555
C29_2 C30_2 1_555 1_555
C30_2 C31_2 1_555 1_555
C39_2 C40_2 1_555 1_555
Tb8_2 O19_2 1_555 1_555
O18_2 C25_2 1_555 1_555
O19_2 C25_2 1_555 1_555
O29_2 Tb8_2 1_555 1_555
O43_2 Tb8_2 1_555 1_555
C25_2 C26_2 1_555 1_555
O43_2 H27_2 1_555 1_555
O43_2 H28_2 1_555 1_555
O44 H25 1_555 1_555
O44 H26 1_555 1_555
O30_2 C38_2 1_555 1_555
C38_2 O29 1_555 1_555
C37_2 C38_2 1_555 1_555
N3_4 Tb1_4 1_555 1_555
C22_4 C19_4 1_555 1_555
Tb5 O17 1_555 1_555
Tb10 O19_3 1_555 1_555
Tb7 O32 1_555 1_555
O17 C25_3 1_555 1_555
O19_3 C25_3 1_555 1_555
O20 Tb5 1_555 1_555
O22_3 Tb1_4 1_555 1_555
O25 C32_3 1_555 1_555
O26_3 C32_3 1_555 1_555
O31_3 Tb1_4 1_555 1_555
O32 C23_3 1_555 1_555
O34 Tb10 1_555 1_555
O35_2 Tb4_3 1_555 1_555
O41_3 Tb1_4 1_555 1_555
O42_3 Tb1_4 1_555 1_555
O43_3 Tb10 1_555 1_555
N5 Tb5 1_555 1_555
C23_3 O31_3 1_555 1_555
C24_3 O35_2 1_555 1_555
C25_3 C26_3 1_555 1_555
C26_3 N5 1_555 1_555
C27_3 C26_3 1_555 1_555
H7_3 C27_3 1_555 1_555
C28_3 C27_3 1_555 1_555
C29_3 C28_3 1_555 1_555
H8_3 C29_3 1_555 1_555
C30_3 N5 1_555 1_555
C31_3 O20 1_555 1_555
C32_3 C33_3 1_555 1_555
C33_3 N9 1_555 1_555
C34_3 C33_3 1_555 1_555
H9_3 C34_3 1_555 1_555
C35_3 C28_3 1_555 1_555
C36_3 C35_3 1_555 1_555
H10_3 C36_3 1_555 1_555
C39_3 N3_4 1_555 1_555
C40_3 C19_4 1_555 1_555
H11_3 C40_3 1_555 1_555
C41_3 N4_3 1_555 1_555
C42_3 C22_4 1_555 1_555
H12_3 C42_3 1_555 1_555
N4_3 Tb4_3 1_555 1_555
O22_3 C31_3 1_555 1_555
O40 C24_3 1_555 1_555
C23_3 C39_3 1_555 1_555
C24_3 C41_3 1_555 1_555
C29_3 C30_3 1_555 1_555
C30_3 C31_3 1_555 1_555
C34_3 C35_3 1_555 1_555
C39_3 C40_3 1_555 1_555
C41_3 C42_3 1_555 1_555
O43_3 H27_3 1_555 1_555
O43_3 H28_3 1_555 1_555
Tb1_5 O4_3 1_555 1_555
Tb5 O1_3 1_555 1_555
Tb7 O2_3 1_555 1_555
O1_3 C3_3 1_555 1_555
O2_3 C3_3 1_555 1_555
O3_3 Tb5 1_555 1_555
O4_3 C9_3 1_555 1_555
O24 C10_3 1_555 1_555
O6_3 C10_3 1_555 1_555
O28 C16_3 1_555 1_555
O8_3 C16_3 1_555 1_555
O9_3 Tb1_5 1_555 1_555
O34 C1_3 1_555 1_555
O11_2 C2_3 1_555 1_555
O39 C2_3 1_555 1_555
O13_3 Tb1_5 1_555 1_555
O14_3 Tb1_5 1_555 1_555
O15_3 Tb7 1_555 1_555
N1_3 Tb5 1_555 1_555
N8 C11_3 1_555 1_555
C1_3 O9_3 1_555 1_555
C2_3 C20_3 1_555 1_555
C3_3 C4_3 1_555 1_555
C4_3 N1_3 1_555 1_555
C5_3 C4_3 1_555 1_555
H1_3 C5_3 1_555 1_555
C6_3 C5_3 1_555 1_555
C7_3 C6_3 1_555 1_555
H2_3 C7_3 1_555 1_555
C8_3 N1_3 1_555 1_555
C9_3 O3_3 1_555 1_555
C10_3 C11_3 1_555 1_555
C11_3 C12_3 1_555 1_555
C12_3 H3_3 1_555 1_555
C13_3 C6_3 1_555 1_555
C14_3 C13_3 1_555 1_555
H4_3 C14_3 1_555 1_555
C15_3 N8 1_555 1_555
C16_3 C15_3 1_555 1_555
N3_5 Tb1_5 1_555 1_555
C17_3 C1_3 1_555 1_555
C18_3 C17_3 1_555 1_555
H5_3 C18_3 1_555 1_555
C19_5 C18_3 1_555 1_555
N4_4 C20_3 1_555 1_555
C20_3 C21_3 1_555 1_555
C21_3 H6_3 1_555 1_555
C22_5 C19_5 1_555 1_555
Tb4_4 O11_2 1_555 1_555
O36_2 Tb5 1_555 1_555
O37_2 Tb5 1_555 1_555
N10_2 Tb5 1_555 1_555
C7_3 C8_3 1_555 1_555
C8_3 C9_3 1_555 1_555
C12_3 C13_3 1_555 1_555
C14_3 C15_3 1_555 1_555
N3_5 C17_3 1_555 1_555
N4_4 Tb4_4 1_555 1_555
C21_3 C22_5 1_555 1_555
O15_3 H15_3 1_555 1_555
O15_3 H16_3 1_555 1_555
O44_2 H25_2 1_555 1_555
O44_2 H26_2 1_555 1_555
Tb4_3 O17_2 1_555 1_555
Tb10_2 O19_4 1_555 1_555
O17_2 C25_4 1_555 1_555
O19_4 C25_4 1_555 1_555
O34_2 Tb10_2 1_555 1_555
O43_4 Tb10_2 1_555 1_555
C25_4 C26_4 1_555 1_555
O43_4 H27_4 1_555 1_555
O43_4 H28_4 1_555 1_555
Tb1_6 O4_4 1_555 1_555
O3_4 Tb4_3 1_555 1_555
O4_4 C9_4 1_555 1_555
O8_4 C16_4 1_555 1_555
O9_4 Tb1_6 1_555 1_555
O34_2 C1_4 1_555 1_555
O13_4 Tb1_6 1_555 1_555
O14_4 Tb1_6 1_555 1_555
N1_4 Tb4_3 1_555 1_555
C1_4 O9_4 1_555 1_555
C6_4 C5_4 1_555 1_555
C7_4 C6_4 1_555 1_555
H2_4 C7_4 1_555 1_555
C8_4 N1_4 1_555 1_555
C9_4 O3_4 1_555 1_555
C13_4 C6_4 1_555 1_555
C14_4 C13_4 1_555 1_555
H4_4 C14_4 1_555 1_555
C16_4 C15_4 1_555 1_555
N3_6 Tb1_6 1_555 1_555
C17_4 C1_4 1_555 1_555
C18_4 C17_4 1_555 1_555
H5_4 C18_4 1_555 1_555
C19_6 C18_4 1_555 1_555
Tb7_2 O32_2 1_555 1_555
O20_2 Tb4_4 1_555 1_555
O22_4 Tb1_6 1_555 1_555
O31_4 Tb1_6 1_555 1_555
O32_2 C23_4 1_555 1_555
O41_4 Tb1_6 1_555 1_555
O42_4 Tb1_6 1_555 1_555
N5_2 Tb4_4 1_555 1_555
C23_4 O31_4 1_555 1_555
C28_4 C27_4 1_555 1_555
C29_4 C28_4 1_555 1_555
H8_4 C29_4 1_555 1_555
C30_4 N5_2 1_555 1_555
C31_4 O20_2 1_555 1_555
C35_4 C28_4 1_555 1_555
C36_4 C35_4 1_555 1_555
H10_4 C36_4 1_555 1_555
C39_4 N3_6 1_555 1_555
C40_4 C19_6 1_555 1_555
H11_4 C40_4 1_555 1_555
C7_4 C8_4 1_555 1_555
C8_4 C9_4 1_555 1_555
C14_4 C15_4 1_555 1_555
N3_6 C17_4 1_555 1_555
O22_4 C31_4 1_555 1_555
C23_4 C39_4 1_555 1_555
C29_4 C30_4 1_555 1_555
C30_4 C31_4 1_555 1_555
C39_4 C40_4 1_555 1_555
O24_2 C10_4 1_555 1_555
O6_4 C10_4 1_555 1_555
O36_2 C2_4 1_555 1_555
O39_2 C2_4 1_555 1_555
N8_2 C11_4 1_555 1_555
C2_4 C20_4 1_555 1_555
C10_4 C11_4 1_555 1_555
C11_4 C12_4 1_555 1_555
C12_4 H3_4 1_555 1_555
N10_2 C20_4 1_555 1_555
C20_4 C21_4 1_555 1_555
C21_4 H6_4 1_555 1_555
O25_2 C32_4 1_555 1_555
O26_4 C32_4 1_555 1_555
C24_4 O37_2 1_555 1_555
C32_4 C33_4 1_555 1_555
C33_4 N9_2 1_555 1_555
C34_4 C33_4 1_555 1_555
H9_4 C34_4 1_555 1_555
C41_4 N10_2 1_555 1_555
C42_4 C22_6 1_555 1_555
H12_4 C42_4 1_555 1_555
C21_4 C22_6 1_555 1_555
O40_2 C24_4 1_555 1_555
C24_4 C41_4 1_555 1_555
C41_4 C42_4 1_555 1_555
Tb4_4 O1_4 1_555 1_555
Tb7_2 O2_4 1_555 1_555
O1_4 C3_4 1_555 1_555
O2_4 C3_4 1_555 1_555
O15_4 Tb7_2 1_555 1_555
O16_3 Tb7_2 1_555 1_555
C3_4 C4_4 1_555 1_555
O15_4 H15_4 1_555 1_555
O15_4 H16_4 1_555 1_555
O16_3 H17_3 1_555 1_555
O16_3 H18_3 1_555 1_555
O44_3 H25_3 1_555 1_555
O44_3 H26_3 1_555 1_555
O30_3 C38_3 1_555 1_555
C37_3 C38_3 1_555 1_555
O44_4 H25_4 1_555 1_555
O44_4 H26_4 1_555 1_555
O16_4 H17_4 1_555 1_555
O16_4 H18_4 1_555 1_555
O30_4 C38_4 1_555 1_555
C37_4 C38_4 1_555 1_555

#END
