
###############################################################################
#
# This file contains modified crystal structure data generated from the
# MOF subset of the Cambridge Structural Database (CSD) v543 
# hosted by the Cambridge Crystallographic Data Centre (CCDC).
#
# This work is licensed under the Creative Commons
# Attribution-NonCommercial-ShareAlike 4.0 International License.
# To view a copy of this license, visit
# http://creativecommons.org/licenses/by-nc-sa/4.0/
# or send a letter to
# Creative Commons, PO Box 1866, Mountain View, CA 94042, USA.
#
# CIF created using the CSD Python API on 29 September 2022
# The structure has been converted into the P1 space group
# The structure has a 3D framework
# The original CSD entry COYVES is in the monoclinic crystal system
# The framework has been calculated to contain at least 10.0% void space
# The void calculation uses a probe of radius 1.32A, grid spacing 0.4
# H atom positions have been added when not included in the experimental data
# Generated hydrogen atom positions removed from atoms on special positions
#
###############################################################################

data_COYVES
_chemical_formula_moiety         '(C172 H144 Ho20 N28 O128)n'
_symmetry_cell_setting           triclinic
_symmetry_space_group_name_H-M   'P 1'
_symmetry_Int_Tables_number      1
_space_group_name_Hall           'P 1'
loop_
_symmetry_equiv_pos_site_id
_symmetry_equiv_pos_as_xyz
1 x,y,z
_cell_length_a                   12.126(2)
_cell_length_b                   22.270(5)
_cell_length_c                   21.568(5)
_cell_angle_alpha                90
_cell_angle_beta                 105.283(10)
_cell_angle_gamma                90
_cell_volume                     5618.38
loop_
_atom_site_label
_atom_site_type_symbol
_atom_site_fract_x
_atom_site_fract_y
_atom_site_fract_z
O16 O 0.053(5) 0.336(3) 0.531(3)
H13 H 0.110499 0.361223 0.517864
H14 H 0.0635499 0.339749 0.578083
Ho1 Ho -0.0000 0.21489(7) 0.2500
Ho2 Ho 0.5000 0.25311(7) 0.2500
Ho3 Ho 0.86037(11) 0.36964(10) 0.47432(6)
O1 O 0.6443(15) 0.3244(8) 0.3021(8)
O2 O 0.7156(13) 0.3886(7) 0.3820(7)
O3 O 0.326(2) 0.2259(10) 0.2743(12)
O4 O 0.176(3) 0.2546(15) 0.3099(13)
O5 O 0.3010(15) 0.6572(9) 0.4888(9)
O6 O 0.408(4) 0.6389(11) 0.4226(17)
O7 O 0.052(2) 0.5447(10) 0.5315(11)
O8 O 0.158(3) 0.4562(13) 0.5804(12)
O11 O 0.0749(17) 0.7070(8) 0.3524(8)
O12 O 0.088(2) 0.6248(10) 0.4144(11)
O13 O 0.1471(19) 0.1569(10) 0.2172(13)
O14 O 0.078(2) 0.1445(10) 0.3366(12)
O15 O 0.808(4) 0.2726(13) 0.4366(18)
N1 N 0.4492(16) 0.3162(8) 0.3306(8)
N2 N 0.2442(18) 0.5443(11) 0.4938(9)
C2 C 0.069(2) 0.6522(13) 0.3613(13)
C3 C 0.6365(19) 0.3582(10) 0.3480(10)
C4 C 0.5176(17) 0.3604(9) 0.3597(10)
C5 C 0.4839(17) 0.4043(10) 0.3949(10)
H1 H 0.5362 0.4347 0.4148
C6 C 0.3728(18) 0.4045(10) 0.4015(10)
C7 C 0.304(2) 0.3547(9) 0.3746(10)
H2 H 0.2295 0.3505 0.3806
C8 C 0.344(2) 0.3126(9) 0.3400(10)
C9 C 0.279(2) 0.2587(10) 0.3041(11)
C10 C 0.347(4) 0.6228(13) 0.456(2)
C11 C 0.317(3) 0.5564(12) 0.4587(15)
C12 C 0.362(3) 0.5117(10) 0.4298(15)
H3 H 0.4152 0.5211 0.4056
C13 C 0.331(2) 0.4524(11) 0.4357(12)
C14 C 0.252(3) 0.4432(11) 0.4729(15)
H4 H 0.2283 0.4036 0.4798
C15 C 0.210(3) 0.4906(13) 0.4986(15)
C16 C 0.1271(18) 0.5012(10) 0.5397(12)
N3 N -0.0000 0.3272(12) 0.2500
C19 C -0.0000 0.4509(15) 0.2500
N4 N -0.0000 0.6425(11) 0.2500
C20 C 0.031(3) 0.6115(10) 0.3042(12)
C21 C 0.030(3) 0.5502(11) 0.3066(14)
H6 H 0.0498 0.5299 0.3467
C22 C -0.0000 0.5185(14) 0.2500
Ho4 Ho 0.0000 0.75311(7) 0.2500
Ho7 Ho 0.13963(11) 0.63036(10) 0.52568(6)
Ho9 Ho 0.13963(11) 0.36964(10) 0.02568(6)
O18 O 0.3557(15) 0.3244(8) 0.1979(8)
O21 O 0.674(2) 0.2259(10) 0.2257(12)
O24 O 0.6990(15) 0.3428(9) 0.5112(9)
O28 O 0.948(2) 0.4553(10) 0.4685(11)
O31 O 0.0430(18) 0.2633(10) 0.1577(9)
O32 O 0.0366(18) 0.3455(12) 0.0962(9)
O33 O 0.9634(18) 0.3455(12) 0.4038(9)
O36 O 0.5749(17) 0.2070(8) 0.3524(8)
O37 O 0.4251(17) 0.2070(8) 0.1476(8)
O39 O 0.912(2) 0.3752(10) 0.5856(11)
N6 N 0.5508(16) 0.3162(8) 0.1694(8)
N8 N 0.7558(18) 0.4557(11) 0.5062(9)
C23 C 0.037(3) 0.3175(16) 0.1479(14)
C39 C 0.016(2) 0.3576(10) 0.2003(11)
C40 C 0.018(3) 0.4189(11) 0.1991(15)
H11 H 0.0321 0.4394 0.1633
N10 N 0.5000 0.1425(11) 0.2500
H17 H 0.81964 0.267924 0.392976
H18 H 0.855879 0.242892 0.466157
Ho1_2 Ho 1.0000 0.21489(7) 0.2500
O9 O 0.9570(18) 0.2633(10) 0.3423(9)
C1 C 0.963(3) 0.3175(16) 0.3521(14)
N3_2 N 1.0000 0.3272(12) 0.2500
C17 C 0.984(2) 0.3576(10) 0.2997(11)
C18 C 0.982(3) 0.4189(11) 0.3009(15)
H5 H 0.9679 0.4394 0.3367
C19_2 C 1.0000 0.4509(15) 0.2500
N4_2 N 1.0000 0.6425(11) 0.2500
C22_2 C 1.0000 0.5185(14) 0.2500
Ho4_2 Ho 1.0000 0.75311(7) 0.2500
O19 O 0.2844(13) 0.3886(7) 0.1180(7)
O22 O 0.824(3) 0.2546(15) 0.1901(13)
O23 O 0.6990(15) 0.6572(9) 0.0112(9)
O26 O 0.592(4) 0.6389(11) 0.0774(17)
O29 O 0.052(2) 0.4553(10) 0.0315(11)
O35 O 0.9251(17) 0.7070(8) 0.1476(8)
O38 O 0.912(2) 0.6248(10) 0.0856(11)
O41 O 0.8529(19) 0.1569(10) 0.2828(13)
O42 O 0.922(2) 0.1445(10) 0.1634(12)
O43 O 0.192(4) 0.2726(13) 0.0634(18)
N7 N 0.7558(18) 0.5443(11) 0.0062(9)
C24 C 0.931(2) 0.6522(13) 0.1387(13)
C25 C 0.3635(19) 0.3582(10) 0.1520(10)
C26 C 0.4824(17) 0.3604(9) 0.1403(10)
C27 C 0.5161(17) 0.4043(10) 0.1051(10)
H7 H 0.4638 0.4347 0.0852
C28 C 0.6272(18) 0.4045(10) 0.0985(10)
C29 C 0.696(2) 0.3547(9) 0.1254(10)
H8 H 0.7705 0.3505 0.1194
C30 C 0.656(2) 0.3126(9) 0.1600(10)
C31 C 0.721(2) 0.2587(10) 0.1959(11)
C32 C 0.653(4) 0.6228(13) 0.044(2)
C33 C 0.683(3) 0.5564(12) 0.0413(15)
C34 C 0.638(3) 0.5117(10) 0.0702(15)
H9 H 0.5848 0.5211 0.0944
C35 C 0.669(2) 0.4524(11) 0.0643(12)
C36 C 0.748(3) 0.4432(11) 0.0271(15)
H10 H 0.7717 0.4036 0.0202
C37 C 0.790(3) 0.4906(13) 0.0014(15)
C41 C 0.969(3) 0.6115(10) 0.1958(12)
C42 C 0.970(3) 0.5502(11) 0.1934(14)
H12 H 0.9502 0.5299 0.1533
H27 H 0.18036 0.267924 0.107024
H28 H 0.144121 0.242892 0.0338431
Ho10 Ho 0.86037(11) 0.63036(10) 0.97432(6)
O25 O 0.3010(15) 0.3428(9) 0.9888(9)
O27 O 0.948(2) 0.5447(10) 0.9685(11)
O30 O 0.842(3) 0.4562(13) 0.9196(12)
O40 O 0.088(2) 0.3752(10) 0.9144(11)
N9 N 0.2442(18) 0.4557(11) 0.9938(9)
C38 C 0.8729(18) 0.5012(10) 0.9603(12)
Ho3_2 Ho 0.36037(11) 0.86964(10) 0.47432(6)
O1_2 O 0.1443(15) 0.8244(8) 0.3021(8)
O2_2 O 0.2156(13) 0.8886(7) 0.3820(7)
O15_2 O 0.308(4) 0.7726(13) 0.4366(18)
O16_2 O 0.553(5) 0.836(3) 0.531(3)
C3_2 C 0.1365(19) 0.8582(10) 0.3480(10)
C4_2 C 0.0176(17) 0.8604(9) 0.3597(10)
H1_2 H 0.0362 0.9347 0.4148
O21_2 O 0.174(2) 0.7259(10) 0.2257(12)
O24_2 O 0.1990(15) 0.8428(9) 0.5112(9)
O28_2 O 0.448(2) 0.9553(10) 0.4685(11)
O33_2 O 0.4634(18) 0.8455(12) 0.4038(9)
O39_2 O 0.412(2) 0.8752(10) 0.5856(11)
N6_2 N 0.0508(16) 0.8162(8) 0.1694(8)
N8_2 N 0.2558(18) 0.9557(11) 0.5062(9)
H13_2 H 0.610499 0.861223 0.517864
H14_2 H 0.56355 0.839749 0.578083
H17_2 H 0.31964 0.767924 0.392976
H18_2 H 0.355879 0.742892 0.466157
O5_2 O 0.8010(15) 0.1572(9) 0.4888(9)
O6_2 O 0.908(4) 0.1389(11) 0.4226(17)
O7_2 O 0.552(2) 0.0447(10) 0.5315(11)
O12_2 O 0.588(2) 0.1248(10) 0.4144(11)
N2_2 N 0.7442(18) 0.0443(11) 0.4938(9)
C2_2 C 0.569(2) 0.1522(13) 0.3613(13)
C10_2 C 0.847(4) 0.1228(13) 0.456(2)
C11_2 C 0.817(3) 0.0564(12) 0.4587(15)
C12_2 C 0.862(3) 0.0117(10) 0.4298(15)
H3_2 H 0.9152 0.0211 0.4056
C16_2 C 0.6271(18) 0.0012(10) 0.5397(12)
C20_2 C 0.531(3) 0.1115(10) 0.3042(12)
C21_2 C 0.530(3) 0.0502(11) 0.3066(14)
H6_2 H 0.5498 0.0299 0.3467
C22_3 C 0.5000 0.0185(14) 0.2500
Ho7_2 Ho 0.63963(11) 0.13036(10) 0.52568(6)
O23_2 O 0.1990(15) 0.1572(9) 0.0112(9)
O26_2 O 0.092(4) 0.1389(11) 0.0774(17)
O38_2 O 0.412(2) 0.1248(10) 0.0856(11)
N7_2 N 0.2558(18) 0.0443(11) 0.0062(9)
C24_2 C 0.431(2) 0.1522(13) 0.1387(13)
C32_2 C 0.153(4) 0.1228(13) 0.044(2)
C33_2 C 0.183(3) 0.0564(12) 0.0413(15)
C34_2 C 0.138(3) 0.0117(10) 0.0702(15)
H9_2 H 0.0848 0.0211 0.0944
C41_2 C 0.469(3) 0.1115(10) 0.1958(12)
C42_2 C 0.470(3) 0.0502(11) 0.1934(14)
H12_2 H 0.4502 0.0299 0.1533
Ho10_2 Ho 0.36037(11) 0.13036(10) 0.97432(6)
O27_2 O 0.448(2) 0.0447(10) 0.9685(11)
C38_2 C 0.3729(18) 0.0012(10) 0.9603(12)
Ho1_3 Ho 0.5000 0.71489(7) 0.2500
O3_2 O 0.826(2) 0.7259(10) 0.2743(12)
O4_2 O 0.676(3) 0.7546(15) 0.3099(13)
O8_2 O 0.658(3) 0.9562(13) 0.5804(12)
O9_2 O 0.4570(18) 0.7633(10) 0.3423(9)
O13_2 O 0.6471(19) 0.6569(10) 0.2172(13)
O14_2 O 0.578(2) 0.6445(10) 0.3366(12)
N1_2 N 0.9492(16) 0.8162(8) 0.3306(8)
C1_2 C 0.463(3) 0.8175(16) 0.3521(14)
C5_2 C 0.9839(17) 0.9043(10) 0.3949(10)
C6_2 C 0.8728(18) 0.9045(10) 0.4015(10)
C7_2 C 0.804(2) 0.8547(9) 0.3746(10)
H2_2 H 0.7295 0.8505 0.3806
C8_2 C 0.844(2) 0.8126(9) 0.3400(10)
C9_2 C 0.779(2) 0.7587(10) 0.3041(11)
C13_2 C 0.831(2) 0.9524(11) 0.4357(12)
C14_2 C 0.752(3) 0.9432(11) 0.4729(15)
H4_2 H 0.7283 0.9036 0.4798
C15_2 C 0.710(3) 0.9906(13) 0.4986(15)
N3_3 N 0.5000 0.8272(12) 0.2500
C17_2 C 0.484(2) 0.8576(10) 0.2997(11)
C18_2 C 0.482(3) 0.9189(11) 0.3009(15)
H5_2 H 0.4679 0.9394 0.3367
C19_3 C 0.5000 0.9509(15) 0.2500
Ho9_2 Ho 0.63963(11) 0.86964(10) 0.02568(6)
O18_2 O 0.8557(15) 0.8244(8) 0.1979(8)
O22_2 O 0.324(3) 0.7546(15) 0.1901(13)
O31_2 O 0.5430(18) 0.7633(10) 0.1577(9)
O32_2 O 0.5366(18) 0.8455(12) 0.0962(9)
O41_2 O 0.3529(19) 0.6569(10) 0.2828(13)
O42_2 O 0.422(2) 0.6445(10) 0.1634(12)
C23_2 C 0.537(3) 0.8175(16) 0.1479(14)
C27_2 C 0.0161(17) 0.9043(10) 0.1051(10)
C28_2 C 0.1272(18) 0.9045(10) 0.0985(10)
C29_2 C 0.196(2) 0.8547(9) 0.1254(10)
H8_2 H 0.2705 0.8505 0.1194
C30_2 C 0.156(2) 0.8126(9) 0.1600(10)
C31_2 C 0.221(2) 0.7587(10) 0.1959(11)
C35_2 C 0.169(2) 0.9524(11) 0.0643(12)
C36_2 C 0.248(3) 0.9432(11) 0.0271(15)
H10_2 H 0.2717 0.9036 0.0202
C37_2 C 0.290(3) 0.9906(13) 0.0014(15)
C39_2 C 0.516(2) 0.8576(10) 0.2003(11)
C40_2 C 0.518(3) 0.9189(11) 0.1991(15)
H11_2 H 0.5321 0.9394 0.1633
O19_2 O 0.7844(13) 0.8886(7) 0.1180(7)
O29_2 O 0.552(2) 0.9553(10) 0.0315(11)
O43_2 O 0.692(4) 0.7726(13) 0.0634(18)
C25_2 C 0.8635(19) 0.8582(10) 0.1520(10)
C26_2 C 0.9824(17) 0.8604(9) 0.1403(10)
H7_2 H 0.9638 0.9347 0.0852
H27_2 H 0.68036 0.767924 0.107024
H28_2 H 0.644121 0.742892 0.0338431
O25_2 O 0.8010(15) 0.8428(9) 0.9888(9)
O40_2 O 0.588(2) 0.8752(10) 0.9144(11)
O44 O 0.447(5) 0.836(3) 0.969(3)
N9_2 N 0.7442(18) 0.9557(11) 0.9938(9)
H23 H 0.389501 0.861223 0.982136
H24 H 0.43645 0.839749 0.921917
O30_2 O 0.158(3) 0.5438(13) 0.0804(12)
C38_3 C 0.1271(18) 0.4988(10) 0.0397(12)
Ho1_4 Ho 0.0000 0.78511(7) 0.7500
O9_3 O 0.0430(18) 0.7367(10) 0.6577(9)
O10 O 0.0366(18) 0.6545(12) 0.5962(9)
C1_3 C 0.037(3) 0.6825(16) 0.6479(14)
N3_4 N -0.0000 0.6728(12) 0.7500
C17_3 C 0.016(2) 0.6424(10) 0.7003(11)
C18_3 C 0.018(3) 0.5811(11) 0.6991(15)
H5_3 H 0.0321 0.5606 0.6633
C19_4 C -0.0000 0.5491(15) 0.7500
N4_3 N -0.0000 0.3575(11) 0.7500
C22_4 C -0.0000 0.4815(14) 0.7500
Ho4_3 Ho -0.0000 0.24689(7) 0.7500
Ho5 Ho 0.5000 0.74689(7) 0.7500
O17 O 0.6443(15) 0.6756(8) 0.8021(8)
O19_3 O 0.7156(13) 0.6114(7) 0.8820(7)
O20 O 0.326(2) 0.7741(10) 0.7743(12)
O22_3 O 0.176(3) 0.7454(15) 0.8099(13)
O26_3 O 0.408(4) 0.3611(11) 0.9226(17)
O34 O 0.9634(18) 0.6545(12) 0.9038(9)
O35_2 O 0.0749(17) 0.2930(8) 0.8524(8)
O41_3 O 0.1471(19) 0.8431(10) 0.7172(13)
O42_3 O 0.078(2) 0.8555(10) 0.8366(12)
O43_3 O 0.808(4) 0.7274(13) 0.9366(18)
N5 N 0.4492(16) 0.6838(8) 0.8306(8)
C24_3 C 0.069(2) 0.3478(13) 0.8613(13)
C25_3 C 0.6365(19) 0.6418(10) 0.8480(10)
C26_3 C 0.5176(17) 0.6396(9) 0.8597(10)
C27_3 C 0.4839(17) 0.5957(10) 0.8949(10)
H7_3 H 0.5362 0.5653 0.9148
C28_3 C 0.3728(18) 0.5955(10) 0.9015(10)
C29_3 C 0.304(2) 0.6453(9) 0.8746(10)
H8_3 H 0.2295 0.6495 0.8806
C30_3 C 0.344(2) 0.6874(9) 0.8400(10)
C31_3 C 0.279(2) 0.7413(10) 0.8041(11)
C32_3 C 0.347(4) 0.3772(13) 0.956(2)
C33_3 C 0.317(3) 0.4436(12) 0.9587(15)
C34_3 C 0.362(3) 0.4883(10) 0.9298(15)
H9_3 H 0.4152 0.4789 0.9056
C35_3 C 0.331(2) 0.5476(11) 0.9357(12)
C36_3 C 0.252(3) 0.5568(11) 0.9729(15)
H10_3 H 0.2283 0.5964 0.9798
C37_3 C 0.210(3) 0.5094(13) 0.9986(15)
C41_3 C 0.031(3) 0.3885(10) 0.8042(12)
C42_3 C 0.030(3) 0.4498(11) 0.8066(14)
H12_3 H 0.0498 0.4701 0.8467
H27_3 H 0.81964 0.732076 0.892976
H28_3 H 0.855879 0.757108 0.966157
Ho1_5 Ho 1.0000 0.78511(7) 0.7500
O1_3 O 0.3557(15) 0.6756(8) 0.6979(8)
O2_3 O 0.2844(13) 0.6114(7) 0.6180(7)
O3_3 O 0.674(2) 0.7741(10) 0.7257(12)
O4_3 O 0.824(3) 0.7454(15) 0.6901(13)
O6_3 O 0.592(4) 0.3611(11) 0.5774(17)
O8_3 O 0.842(3) 0.5438(13) 0.4196(12)
O11_2 O 0.9251(17) 0.2930(8) 0.6476(8)
O13_3 O 0.8529(19) 0.8431(10) 0.7828(13)
O14_3 O 0.922(2) 0.8555(10) 0.6634(12)
O15_3 O 0.192(4) 0.7274(13) 0.5634(18)
N1_3 N 0.5508(16) 0.6838(8) 0.6694(8)
C2_3 C 0.931(2) 0.3478(13) 0.6387(13)
C3_3 C 0.3635(19) 0.6418(10) 0.6520(10)
C4_3 C 0.4824(17) 0.6396(9) 0.6403(10)
C5_3 C 0.5161(17) 0.5957(10) 0.6051(10)
H1_3 H 0.4638 0.5653 0.5852
C6_3 C 0.6272(18) 0.5955(10) 0.5985(10)
C7_3 C 0.696(2) 0.6453(9) 0.6254(10)
H2_3 H 0.7705 0.6495 0.6194
C8_3 C 0.656(2) 0.6874(9) 0.6600(10)
C9_3 C 0.721(2) 0.7413(10) 0.6959(11)
C10_3 C 0.653(4) 0.3772(13) 0.544(2)
C11_3 C 0.683(3) 0.4436(12) 0.5413(15)
C12_3 C 0.638(3) 0.4883(10) 0.5702(15)
H3_3 H 0.5848 0.4789 0.5944
C13_3 C 0.669(2) 0.5476(11) 0.5643(12)
C14_3 C 0.748(3) 0.5568(11) 0.5271(15)
H4_3 H 0.7717 0.5964 0.5202
C15_3 C 0.790(3) 0.5094(13) 0.5014(15)
C16_3 C 0.8729(18) 0.4988(10) 0.4603(12)
N3_5 N 1.0000 0.6728(12) 0.7500
C19_5 C 1.0000 0.5491(15) 0.7500
N4_4 N 1.0000 0.3575(11) 0.7500
C20_3 C 0.969(3) 0.3885(10) 0.6958(12)
C21_3 C 0.970(3) 0.4498(11) 0.6934(14)
H6_3 H 0.9502 0.4701 0.6533
C22_5 C 1.0000 0.4815(14) 0.7500
Ho4_4 Ho 1.0000 0.24689(7) 0.7500
O31_3 O 0.9570(18) 0.7367(10) 0.8423(9)
O36_2 O 0.4251(17) 0.7930(8) 0.6476(8)
O37_2 O 0.5749(17) 0.7930(8) 0.8524(8)
C23_3 C 0.963(3) 0.6825(16) 0.8521(14)
C39_3 C 0.984(2) 0.6424(10) 0.7997(11)
C40_3 C 0.982(3) 0.5811(11) 0.8009(15)
H11_3 H 0.9679 0.5606 0.8367
N10_2 N 0.5000 0.8575(11) 0.7500
H17_3 H 0.18036 0.732076 0.607024
H18_3 H 0.144121 0.757108 0.533843
O44_2 O 0.553(5) 0.164(3) 0.031(3)
H23_2 H 0.610499 0.138777 0.0178638
H24_2 H 0.56355 0.160251 0.0780826
O17_2 O 0.1443(15) 0.1756(8) 0.8021(8)
O19_4 O 0.2156(13) 0.1114(7) 0.8820(7)
O34_2 O 0.4634(18) 0.1545(12) 0.9038(9)
O43_4 O 0.308(4) 0.2274(13) 0.9366(18)
C25_4 C 0.1365(19) 0.1418(10) 0.8480(10)
C26_4 C 0.0176(17) 0.1396(9) 0.8597(10)
H7_4 H 0.0362 0.0653 0.9148
H27_4 H 0.31964 0.232076 0.892976
H28_4 H 0.355879 0.257108 0.966157
Ho1_6 Ho 0.5000 0.28511(7) 0.7500
O3_4 O 0.174(2) 0.2741(10) 0.7257(12)
O4_4 O 0.324(3) 0.2454(15) 0.6901(13)
O8_4 O 0.342(3) 0.0438(13) 0.4196(12)
O9_4 O 0.5430(18) 0.2367(10) 0.6577(9)
O10_2 O 0.5366(18) 0.1545(12) 0.5962(9)
O13_4 O 0.3529(19) 0.3431(10) 0.7828(13)
O14_4 O 0.422(2) 0.3555(10) 0.6634(12)
N1_4 N 0.0508(16) 0.1838(8) 0.6694(8)
C1_4 C 0.537(3) 0.1825(16) 0.6479(14)
C5_4 C 0.0161(17) 0.0957(10) 0.6051(10)
C6_4 C 0.1272(18) 0.0955(10) 0.5985(10)
C7_4 C 0.196(2) 0.1453(9) 0.6254(10)
H2_4 H 0.2705 0.1495 0.6194
C8_4 C 0.156(2) 0.1874(9) 0.6600(10)
C9_4 C 0.221(2) 0.2413(10) 0.6959(11)
C13_4 C 0.169(2) 0.0476(11) 0.5643(12)
C14_4 C 0.248(3) 0.0568(11) 0.5271(15)
H4_4 H 0.2717 0.0964 0.5202
C15_4 C 0.290(3) 0.0094(13) 0.5014(15)
N3_6 N 0.5000 0.1728(12) 0.7500
C17_4 C 0.516(2) 0.1424(10) 0.7003(11)
C18_4 C 0.518(3) 0.0811(11) 0.6991(15)
H5_4 H 0.5321 0.0606 0.6633
C19_6 C 0.5000 0.0491(15) 0.7500
O20_2 O 0.826(2) 0.2741(10) 0.7743(12)
O22_4 O 0.676(3) 0.2454(15) 0.8099(13)
O31_4 O 0.4570(18) 0.2367(10) 0.8423(9)
O41_4 O 0.6471(19) 0.3431(10) 0.7172(13)
O42_4 O 0.578(2) 0.3555(10) 0.8366(12)
N5_2 N 0.9492(16) 0.1838(8) 0.8306(8)
C23_4 C 0.463(3) 0.1825(16) 0.8521(14)
C27_4 C 0.9839(17) 0.0957(10) 0.8949(10)
C28_4 C 0.8728(18) 0.0955(10) 0.9015(10)
C29_4 C 0.804(2) 0.1453(9) 0.8746(10)
H8_4 H 0.7295 0.1495 0.8806
C30_4 C 0.844(2) 0.1874(9) 0.8400(10)
C31_4 C 0.779(2) 0.2413(10) 0.8041(11)
C35_4 C 0.831(2) 0.0476(11) 0.9357(12)
C36_4 C 0.752(3) 0.0568(11) 0.9729(15)
H10_4 H 0.7283 0.0964 0.9798
C37_4 C 0.710(3) 0.0094(13) 0.9986(15)
C39_4 C 0.484(2) 0.1424(10) 0.7997(11)
C40_4 C 0.482(3) 0.0811(11) 0.8009(15)
H11_4 H 0.4679 0.0606 0.8367
C38_4 C 0.6271(18) 0.9988(10) 0.0397(12)
O6_4 O 0.092(4) 0.8611(11) 0.5774(17)
C2_4 C 0.431(2) 0.8478(13) 0.6387(13)
C10_4 C 0.153(4) 0.8772(13) 0.544(2)
C11_4 C 0.183(3) 0.9436(12) 0.5413(15)
C12_4 C 0.138(3) 0.9883(10) 0.5702(15)
H3_4 H 0.0848 0.9789 0.5944
C16_4 C 0.3729(18) 0.9988(10) 0.4603(12)
C20_4 C 0.469(3) 0.8885(10) 0.6958(12)
C21_4 C 0.470(3) 0.9498(11) 0.6934(14)
H6_4 H 0.4502 0.9701 0.6533
C22_6 C 0.5000 0.9815(14) 0.7500
O26_4 O 0.908(4) 0.8611(11) 0.9226(17)
C24_4 C 0.569(2) 0.8478(13) 0.8613(13)
C32_4 C 0.847(4) 0.8772(13) 0.956(2)
C33_4 C 0.817(3) 0.9436(12) 0.9587(15)
C34_4 C 0.862(3) 0.9883(10) 0.9298(15)
H9_4 H 0.9152 0.9789 0.9056
C41_4 C 0.531(3) 0.8885(10) 0.8042(12)
C42_4 C 0.530(3) 0.9498(11) 0.8066(14)
H12_4 H 0.5498 0.9701 0.8467
O1_4 O 0.8557(15) 0.1756(8) 0.6979(8)
O2_4 O 0.7844(13) 0.1114(7) 0.6180(7)
O15_4 O 0.692(4) 0.2274(13) 0.5634(18)
O16_3 O 0.447(5) 0.164(3) 0.469(3)
C3_4 C 0.8635(19) 0.1418(10) 0.6520(10)
C4_4 C 0.9824(17) 0.1396(9) 0.6403(10)
H1_4 H 0.9638 0.0653 0.5852
H13_3 H 0.389501 0.138777 0.482136
H14_3 H 0.43645 0.160251 0.421917
H17_4 H 0.68036 0.232076 0.607024
H18_4 H 0.644121 0.257108 0.533843
O44_3 O 0.947(5) 0.336(3) 0.969(3)
H23_3 H 0.889501 0.361223 0.982136
H24_3 H 0.93645 0.339749 0.921917
O30_3 O 0.342(3) 0.9562(13) 0.9196(12)
O44_4 O 0.053(5) 0.664(3) 0.031(3)
H23_4 H 0.110499 0.638777 0.0178638
H24_4 H 0.0635499 0.660251 0.0780826
O16_4 O 0.947(5) 0.664(3) 0.469(3)
H13_4 H 0.889501 0.638777 0.482136
H14_4 H 0.93645 0.660251 0.421917
O30_4 O 0.658(3) 0.0438(13) 0.0804(12)
loop_
_geom_bond_atom_site_label_1
_geom_bond_atom_site_label_2
_geom_bond_site_symmetry_1
_geom_bond_site_symmetry_2
O16 H13 1_555 1_555
O16 H14 1_555 1_555
Ho1 O4 1_555 1_555
Ho2 O1 1_555 1_555
Ho3 O2 1_555 1_555
O1 C3 1_555 1_555
O2 C3 1_555 1_555
O3 Ho2 1_555 1_555
O4 C9 1_555 1_555
O5 C10 1_555 1_555
O6 C10 1_555 1_555
O7 C16 1_555 1_555
O8 C16 1_555 1_555
O11 C2 1_555 1_555
O12 C2 1_555 1_555
O13 Ho1 1_555 1_555
O14 Ho1 1_555 1_555
O15 Ho3 1_555 1_555
N1 Ho2 1_555 1_555
N2 C11 1_555 1_555
C2 C20 1_555 1_555
C3 C4 1_555 1_555
C4 N1 1_555 1_555
C5 C4 1_555 1_555
H1 C5 1_555 1_555
C6 C5 1_555 1_555
C7 C6 1_555 1_555
H2 C7 1_555 1_555
C8 N1 1_555 1_555
C9 O3 1_555 1_555
C10 C11 1_555 1_555
C11 C12 1_555 1_555
C12 H3 1_555 1_555
C13 C6 1_555 1_555
C14 C13 1_555 1_555
H4 C14 1_555 1_555
C15 N2 1_555 1_555
C16 C15 1_555 1_555
N3 Ho1 1_555 1_555
N4 C20 1_555 1_555
C20 C21 1_555 1_555
C21 H6 1_555 1_555
C22 C19 1_555 1_555
Ho4 O11 1_555 1_555
Ho7 O5 1_555 1_555
Ho9 O32 1_555 1_555
O18 Ho2 1_555 1_555
O21 Ho2 1_555 1_555
O24 Ho3 1_555 1_555
O28 Ho3 1_555 1_555
O31 Ho1 1_555 1_555
O32 C23 1_555 1_555
O33 Ho3 1_555 1_555
O36 Ho2 1_555 1_555
O37 Ho2 1_555 1_555
O39 Ho3 1_555 1_555
N6 Ho2 1_555 1_555
N8 Ho3 1_555 1_555
C23 O31 1_555 1_555
C39 N3 1_555 1_555
C40 C19 1_555 1_555
H11 C40 1_555 1_555
N10 Ho2 1_555 1_555
O7 Ho7 1_555 1_555
O12 Ho7 1_555 1_555
N2 Ho7 1_555 1_555
C7 C8 1_555 1_555
C8 C9 1_555 1_555
C12 C13 1_555 1_555
C14 C15 1_555 1_555
N4 Ho4 1_555 1_555
C21 C22 1_555 1_555
C23 C39 1_555 1_555
C39 C40 1_555 1_555
O15 H17 1_555 1_555
O15 H18 1_555 1_555
O9 Ho1_2 1_555 1_555
O33 C1 1_555 1_555
C1 O9 1_555 1_555
N3_2 Ho1_2 1_555 1_555
C17 C1 1_555 1_555
C18 C17 1_555 1_555
H5 C18 1_555 1_555
C19_2 C18 1_555 1_555
C22_2 C19_2 1_555 1_555
Ho9 O19 1_555 1_555
O18 C25 1_555 1_555
O19 C25 1_555 1_555
O22 Ho1_2 1_555 1_555
O23 C32 1_555 1_555
O26 C32 1_555 1_555
O29 Ho9 1_555 1_555
O35 Ho4_2 1_555 1_555
O41 Ho1_2 1_555 1_555
O42 Ho1_2 1_555 1_555
O43 Ho9 1_555 1_555
C24 O35 1_555 1_555
C25 C26 1_555 1_555
C26 N6 1_555 1_555
C27 C26 1_555 1_555
H7 C27 1_555 1_555
C28 C27 1_555 1_555
C29 C28 1_555 1_555
H8 C29 1_555 1_555
C30 N6 1_555 1_555
C31 O21 1_555 1_555
C32 C33 1_555 1_555
C33 N7 1_555 1_555
C34 C33 1_555 1_555
H9 C34 1_555 1_555
C35 C28 1_555 1_555
C36 C35 1_555 1_555
H10 C36 1_555 1_555
C37 N7 1_555 1_555
C41 N4_2 1_555 1_555
C42 C22_2 1_555 1_555
H12 C42 1_555 1_555
N3_2 C17 1_555 1_555
N4_2 Ho4_2 1_555 1_555
O22 C31 1_555 1_555
O38 C24 1_555 1_555
C24 C41 1_555 1_555
C29 C30 1_555 1_555
C30 C31 1_555 1_555
C34 C35 1_555 1_555
C36 C37 1_555 1_555
C41 C42 1_555 1_555
O43 H27 1_555 1_555
O43 H28 1_555 1_555
O27 Ho10 1_555 1_555
O30 C38 1_555 1_555
C38 O27 1_555 1_555
Ho4 O1_2 1_555 1_555
Ho3_2 O2_2 1_555 1_555
O1_2 C3_2 1_555 1_555
O2_2 C3_2 1_555 1_555
O15_2 Ho3_2 1_555 1_555
O16_2 Ho3_2 1_555 1_555
C3_2 C4_2 1_555 1_555
O21_2 Ho4 1_555 1_555
O24_2 Ho3_2 1_555 1_555
O28_2 Ho3_2 1_555 1_555
O33_2 Ho3_2 1_555 1_555
O39_2 Ho3_2 1_555 1_555
N6_2 Ho4 1_555 1_555
N8_2 Ho3_2 1_555 1_555
O16_2 H13_2 1_555 1_555
O16_2 H14_2 1_555 1_555
O15_2 H17_2 1_555 1_555
O15_2 H18_2 1_555 1_555
O5_2 C10_2 1_555 1_555
O6_2 C10_2 1_555 1_555
O7_2 C16_2 1_555 1_555
O36 C2_2 1_555 1_555
O12_2 C2_2 1_555 1_555
N2_2 C11_2 1_555 1_555
C2_2 C20_2 1_555 1_555
C10_2 C11_2 1_555 1_555
C11_2 C12_2 1_555 1_555
C12_2 H3_2 1_555 1_555
N10 C20_2 1_555 1_555
C20_2 C21_2 1_555 1_555
C21_2 H6_2 1_555 1_555
Ho7_2 O5_2 1_555 1_555
O23_2 C32_2 1_555 1_555
O26_2 C32_2 1_555 1_555
C24_2 O37 1_555 1_555
C32_2 C33_2 1_555 1_555
C33_2 N7_2 1_555 1_555
C34_2 C33_2 1_555 1_555
H9_2 C34_2 1_555 1_555
C41_2 N10 1_555 1_555
C42_2 C22_3 1_555 1_555
H12_2 C42_2 1_555 1_555
O7_2 Ho7_2 1_555 1_555
O12_2 Ho7_2 1_555 1_555
N2_2 Ho7_2 1_555 1_555
C21_2 C22_3 1_555 1_555
O38_2 C24_2 1_555 1_555
C24_2 C41_2 1_555 1_555
C41_2 C42_2 1_555 1_555
O27_2 Ho10_2 1_555 1_555
C38_2 O27_2 1_555 1_555
Ho1_3 O4_2 1_555 1_555
O3_2 Ho4_2 1_555 1_555
O4_2 C9_2 1_555 1_555
O9_2 Ho1_3 1_555 1_555
O33_2 C1_2 1_555 1_555
O13_2 Ho1_3 1_555 1_555
O14_2 Ho1_3 1_555 1_555
N1_2 Ho4_2 1_555 1_555
C1_2 O9_2 1_555 1_555
C6_2 C5_2 1_555 1_555
C7_2 C6_2 1_555 1_555
H2_2 C7_2 1_555 1_555
C8_2 N1_2 1_555 1_555
C9_2 O3_2 1_555 1_555
C13_2 C6_2 1_555 1_555
C14_2 C13_2 1_555 1_555
H4_2 C14_2 1_555 1_555
N3_3 Ho1_3 1_555 1_555
C17_2 C1_2 1_555 1_555
C18_2 C17_2 1_555 1_555
H5_2 C18_2 1_555 1_555
C19_3 C18_2 1_555 1_555
Ho9_2 O32_2 1_555 1_555
O18_2 Ho4_2 1_555 1_555
O22_2 Ho1_3 1_555 1_555
O31_2 Ho1_3 1_555 1_555
O32_2 C23_2 1_555 1_555
O41_2 Ho1_3 1_555 1_555
O42_2 Ho1_3 1_555 1_555
C23_2 O31_2 1_555 1_555
C28_2 C27_2 1_555 1_555
C29_2 C28_2 1_555 1_555
H8_2 C29_2 1_555 1_555
C30_2 N6_2 1_555 1_555
C31_2 O21_2 1_555 1_555
C35_2 C28_2 1_555 1_555
C36_2 C35_2 1_555 1_555
H10_2 C36_2 1_555 1_555
C39_2 N3_3 1_555 1_555
C40_2 C19_3 1_555 1_555
H11_2 C40_2 1_555 1_555
C7_2 C8_2 1_555 1_555
C8_2 C9_2 1_555 1_555
C14_2 C15_2 1_555 1_555
N3_3 C17_2 1_555 1_555
O22_2 C31_2 1_555 1_555
C23_2 C39_2 1_555 1_555
C29_2 C30_2 1_555 1_555
C30_2 C31_2 1_555 1_555
C36_2 C37_2 1_555 1_555
C39_2 C40_2 1_555 1_555
Ho9_2 O19_2 1_555 1_555
O18_2 C25_2 1_555 1_555
O19_2 C25_2 1_555 1_555
O29_2 Ho9_2 1_555 1_555
O43_2 Ho9_2 1_555 1_555
C25_2 C26_2 1_555 1_555
O43_2 H27_2 1_555 1_555
O43_2 H28_2 1_555 1_555
O44 H23 1_555 1_555
O44 H24 1_555 1_555
O30_2 C38_3 1_555 1_555
C38_3 O29 1_555 1_555
O9_3 Ho1_4 1_555 1_555
O10 C1_3 1_555 1_555
C1_3 O9_3 1_555 1_555
N3_4 Ho1_4 1_555 1_555
C17_3 C1_3 1_555 1_555
C18_3 C17_3 1_555 1_555
H5_3 C18_3 1_555 1_555
C19_4 C18_3 1_555 1_555
C22_4 C19_4 1_555 1_555
Ho5 O17 1_555 1_555
Ho10 O19_3 1_555 1_555
Ho7 O10 1_555 1_555
O17 C25_3 1_555 1_555
O19_3 C25_3 1_555 1_555
O20 Ho5 1_555 1_555
O22_3 Ho1_4 1_555 1_555
O25 C32_3 1_555 1_555
O26_3 C32_3 1_555 1_555
O34 Ho10 1_555 1_555
O35_2 Ho4_3 1_555 1_555
O41_3 Ho1_4 1_555 1_555
O42_3 Ho1_4 1_555 1_555
O43_3 Ho10 1_555 1_555
N5 Ho5 1_555 1_555
C24_3 O35_2 1_555 1_555
C25_3 C26_3 1_555 1_555
C26_3 N5 1_555 1_555
C27_3 C26_3 1_555 1_555
H7_3 C27_3 1_555 1_555
C28_3 C27_3 1_555 1_555
C29_3 C28_3 1_555 1_555
H8_3 C29_3 1_555 1_555
C30_3 N5 1_555 1_555
C31_3 O20 1_555 1_555
C32_3 C33_3 1_555 1_555
C33_3 N9 1_555 1_555
C34_3 C33_3 1_555 1_555
H9_3 C34_3 1_555 1_555
C35_3 C28_3 1_555 1_555
C36_3 C35_3 1_555 1_555
H10_3 C36_3 1_555 1_555
C37_3 N9 1_555 1_555
C41_3 N4_3 1_555 1_555
C42_3 C22_4 1_555 1_555
H12_3 C42_3 1_555 1_555
N3_4 C17_3 1_555 1_555
N4_3 Ho4_3 1_555 1_555
O22_3 C31_3 1_555 1_555
O40 C24_3 1_555 1_555
C24_3 C41_3 1_555 1_555
C29_3 C30_3 1_555 1_555
C30_3 C31_3 1_555 1_555
C34_3 C35_3 1_555 1_555
C36_3 C37_3 1_555 1_555
C41_3 C42_3 1_555 1_555
O43_3 H27_3 1_555 1_555
O43_3 H28_3 1_555 1_555
Ho1_5 O4_3 1_555 1_555
Ho5 O1_3 1_555 1_555
Ho7 O2_3 1_555 1_555
O1_3 C3_3 1_555 1_555
O2_3 C3_3 1_555 1_555
O3_3 Ho5 1_555 1_555
O4_3 C9_3 1_555 1_555
O24 C10_3 1_555 1_555
O6_3 C10_3 1_555 1_555
O28 C16_3 1_555 1_555
O8_3 C16_3 1_555 1_555
O11_2 C2_3 1_555 1_555
O39 C2_3 1_555 1_555
O13_3 Ho1_5 1_555 1_555
O14_3 Ho1_5 1_555 1_555
O15_3 Ho7 1_555 1_555
N1_3 Ho5 1_555 1_555
N8 C11_3 1_555 1_555
C2_3 C20_3 1_555 1_555
C3_3 C4_3 1_555 1_555
C4_3 N1_3 1_555 1_555
C5_3 C4_3 1_555 1_555
H1_3 C5_3 1_555 1_555
C6_3 C5_3 1_555 1_555
C7_3 C6_3 1_555 1_555
H2_3 C7_3 1_555 1_555
C8_3 N1_3 1_555 1_555
C9_3 O3_3 1_555 1_555
C10_3 C11_3 1_555 1_555
C11_3 C12_3 1_555 1_555
C12_3 H3_3 1_555 1_555
C13_3 C6_3 1_555 1_555
C14_3 C13_3 1_555 1_555
H4_3 C14_3 1_555 1_555
C15_3 N8 1_555 1_555
C16_3 C15_3 1_555 1_555
N3_5 Ho1_5 1_555 1_555
N4_4 C20_3 1_555 1_555
C20_3 C21_3 1_555 1_555
C21_3 H6_3 1_555 1_555
C22_5 C19_5 1_555 1_555
Ho4_4 O11_2 1_555 1_555
O31_3 Ho1_5 1_555 1_555
O34 C23_3 1_555 1_555
O36_2 Ho5 1_555 1_555
O37_2 Ho5 1_555 1_555
C23_3 O31_3 1_555 1_555
C39_3 N3_5 1_555 1_555
C40_3 C19_5 1_555 1_555
H11_3 C40_3 1_555 1_555
N10_2 Ho5 1_555 1_555
C7_3 C8_3 1_555 1_555
C8_3 C9_3 1_555 1_555
C12_3 C13_3 1_555 1_555
C14_3 C15_3 1_555 1_555
N4_4 Ho4_4 1_555 1_555
C21_3 C22_5 1_555 1_555
C23_3 C39_3 1_555 1_555
C39_3 C40_3 1_555 1_555
O15_3 H17_3 1_555 1_555
O15_3 H18_3 1_555 1_555
O44_2 H23_2 1_555 1_555
O44_2 H24_2 1_555 1_555
Ho4_3 O17_2 1_555 1_555
Ho10_2 O19_4 1_555 1_555
O17_2 C25_4 1_555 1_555
O19_4 C25_4 1_555 1_555
O34_2 Ho10_2 1_555 1_555
O43_4 Ho10_2 1_555 1_555
C25_4 C26_4 1_555 1_555
O43_4 H27_4 1_555 1_555
O43_4 H28_4 1_555 1_555
Ho1_6 O4_4 1_555 1_555
O3_4 Ho4_3 1_555 1_555
O4_4 C9_4 1_555 1_555
O9_4 Ho1_6 1_555 1_555
O10_2 C1_4 1_555 1_555
O13_4 Ho1_6 1_555 1_555
O14_4 Ho1_6 1_555 1_555
N1_4 Ho4_3 1_555 1_555
C1_4 O9_4 1_555 1_555
C6_4 C5_4 1_555 1_555
C7_4 C6_4 1_555 1_555
H2_4 C7_4 1_555 1_555
C8_4 N1_4 1_555 1_555
C9_4 O3_4 1_555 1_555
C13_4 C6_4 1_555 1_555
C14_4 C13_4 1_555 1_555
H4_4 C14_4 1_555 1_555
N3_6 Ho1_6 1_555 1_555
C17_4 C1_4 1_555 1_555
C18_4 C17_4 1_555 1_555
H5_4 C18_4 1_555 1_555
C19_6 C18_4 1_555 1_555
Ho7_2 O10_2 1_555 1_555
O20_2 Ho4_4 1_555 1_555
O22_4 Ho1_6 1_555 1_555
O31_4 Ho1_6 1_555 1_555
O34_2 C23_4 1_555 1_555
O41_4 Ho1_6 1_555 1_555
O42_4 Ho1_6 1_555 1_555
N5_2 Ho4_4 1_555 1_555
C23_4 O31_4 1_555 1_555
C28_4 C27_4 1_555 1_555
C29_4 C28_4 1_555 1_555
H8_4 C29_4 1_555 1_555
C30_4 N5_2 1_555 1_555
C31_4 O20_2 1_555 1_555
C35_4 C28_4 1_555 1_555
C36_4 C35_4 1_555 1_555
H10_4 C36_4 1_555 1_555
C39_4 N3_6 1_555 1_555
C40_4 C19_6 1_555 1_555
H11_4 C40_4 1_555 1_555
C7_4 C8_4 1_555 1_555
C8_4 C9_4 1_555 1_555
C14_4 C15_4 1_555 1_555
N3_6 C17_4 1_555 1_555
O22_4 C31_4 1_555 1_555
C23_4 C39_4 1_555 1_555
C29_4 C30_4 1_555 1_555
C30_4 C31_4 1_555 1_555
C36_4 C37_4 1_555 1_555
C39_4 C40_4 1_555 1_555
C38_4 O29_2 1_555 1_555
O24_2 C10_4 1_555 1_555
O6_4 C10_4 1_555 1_555
O28_2 C16_4 1_555 1_555
O36_2 C2_4 1_555 1_555
O39_2 C2_4 1_555 1_555
N8_2 C11_4 1_555 1_555
C2_4 C20_4 1_555 1_555
C10_4 C11_4 1_555 1_555
C11_4 C12_4 1_555 1_555
C12_4 H3_4 1_555 1_555
N10_2 C20_4 1_555 1_555
C20_4 C21_4 1_555 1_555
C21_4 H6_4 1_555 1_555
O25_2 C32_4 1_555 1_555
O26_4 C32_4 1_555 1_555
C24_4 O37_2 1_555 1_555
C32_4 C33_4 1_555 1_555
C33_4 N9_2 1_555 1_555
C34_4 C33_4 1_555 1_555
H9_4 C34_4 1_555 1_555
C41_4 N10_2 1_555 1_555
C42_4 C22_6 1_555 1_555
H12_4 C42_4 1_555 1_555
C21_4 C22_6 1_555 1_555
O40_2 C24_4 1_555 1_555
C24_4 C41_4 1_555 1_555
C41_4 C42_4 1_555 1_555
Ho4_4 O1_4 1_555 1_555
Ho7_2 O2_4 1_555 1_555
O1_4 C3_4 1_555 1_555
O2_4 C3_4 1_555 1_555
O15_4 Ho7_2 1_555 1_555
O16_3 Ho7_2 1_555 1_555
C3_4 C4_4 1_555 1_555
O16_3 H13_3 1_555 1_555
O16_3 H14_3 1_555 1_555
O15_4 H17_4 1_555 1_555
O15_4 H18_4 1_555 1_555
O44_3 H23_3 1_555 1_555
O44_3 H24_3 1_555 1_555
O44_4 H23_4 1_555 1_555
O44_4 H24_4 1_555 1_555
O16_4 H13_4 1_555 1_555
O16_4 H14_4 1_555 1_555

#END
