
###############################################################################
#
# This file contains modified crystal structure data generated from the
# MOF subset of the Cambridge Structural Database (CSD) v543 
# hosted by the Cambridge Crystallographic Data Centre (CCDC).
#
# This work is licensed under the Creative Commons
# Attribution-NonCommercial-ShareAlike 4.0 International License.
# To view a copy of this license, visit
# http://creativecommons.org/licenses/by-nc-sa/4.0/
# or send a letter to
# Creative Commons, PO Box 1866, Mountain View, CA 94042, USA.
#
# CIF created using the CSD Python API on 29 September 2022
# The structure has been converted into the P1 space group
# The structure has a 3D framework
# The original CSD entry COYVES01 is in the monoclinic crystal system
# The framework has been calculated to contain at least 10.0% void space
# The void calculation uses a probe of radius 1.32A, grid spacing 0.4
# H atom positions have been added when not included in the experimental data
# Generated hydrogen atom positions removed from atoms on special positions
#
###############################################################################

data_COYVES01
_chemical_formula_moiety         '(C176 H144 Ho20 N28 O128)n'
_symmetry_cell_setting           triclinic
_symmetry_space_group_name_H-M   'P 1'
_symmetry_Int_Tables_number      1
_space_group_name_Hall           'P 1'
loop_
_symmetry_equiv_pos_site_id
_symmetry_equiv_pos_as_xyz
1 x,y,z
_cell_length_a                   12.126(2)
_cell_length_b                   22.270(5)
_cell_length_c                   21.568(5)
_cell_angle_alpha                90
_cell_angle_beta                 105.283(10)
_cell_angle_gamma                90
_cell_volume                     5618.38
loop_
_atom_site_label
_atom_site_type_symbol
_atom_site_fract_x
_atom_site_fract_y
_atom_site_fract_z
O16 O 0.057(5) 0.338(3) 0.530(2)
H15 H 0.112663 0.365101 0.517625
H16 H 0.0676872 0.340056 0.577209
Ho1 Ho -0.0000 0.21487(6) 0.2500
Ho2 Ho 0.5000 0.25307(6) 0.2500
Ho3 Ho 0.86040(10) 0.36959(9) 0.47434(6)
O1 O 0.6440(13) 0.3248(8) 0.3020(7)
O2 O 0.7154(12) 0.3885(6) 0.3819(6)
O3 O 0.326(2) 0.2257(9) 0.2743(11)
O4 O 0.176(3) 0.2548(14) 0.3100(12)
O5 O 0.3012(14) 0.6573(8) 0.4893(8)
O6 O 0.408(3) 0.6393(10) 0.4230(15)
O7 O 0.0565(19) 0.5453(9) 0.5336(10)
O8 O 0.160(3) 0.4533(12) 0.5815(11)
O11 O 0.0749(15) 0.7070(7) 0.3525(7)
O12 O 0.0871(19) 0.6252(9) 0.4148(10)
O13 O 0.1473(17) 0.1565(9) 0.2173(11)
O14 O 0.0781(18) 0.1443(9) 0.3367(11)
O15 O 0.810(3) 0.2731(12) 0.4378(16)
N1 N 0.4492(15) 0.3164(7) 0.3307(7)
N2 N 0.2446(16) 0.5446(10) 0.4938(8)
C2 C 0.069(2) 0.6523(12) 0.3614(12)
C3 C 0.6368(16) 0.3585(9) 0.3478(9)
C4 C 0.5179(16) 0.3605(8) 0.3599(9)
C5 C 0.4840(16) 0.4044(8) 0.3948(9)
H1 H 0.5361 0.4350 0.4144
C6 C 0.3728(16) 0.4044(9) 0.4016(9)
C7 C 0.3036(18) 0.3551(8) 0.3747(10)
H2 H 0.2289 0.3511 0.3804
C8 C 0.3450(18) 0.3129(8) 0.3403(9)
C9 C 0.2790(19) 0.2588(9) 0.3044(10)
C10 C 0.348(3) 0.6233(12) 0.457(2)
C11 C 0.317(2) 0.5567(11) 0.4586(14)
C12 C 0.362(2) 0.5118(9) 0.4297(14)
H3 H 0.4147 0.5211 0.4052
C13 C 0.3313(18) 0.4521(10) 0.4360(10)
C14 C 0.253(2) 0.4426(10) 0.4734(13)
H4 H 0.2308 0.4030 0.4810
C15 C 0.210(2) 0.4907(12) 0.4985(14)
C16 C 0.1296(17) 0.5000(9) 0.5418(11)
N3 N -0.0000 0.3274(11) 0.2500
C19 C -0.0000 0.4512(12) 0.2500
N4 N -0.0000 0.6424(10) 0.2500
C20 C 0.030(2) 0.6114(9) 0.3039(11)
C21 C 0.030(3) 0.5506(10) 0.3059(13)
H6 H 0.0515 0.5303 0.3461
C22 C -0.0000 0.5188(13) 0.2500
Ho4 Ho 0.0000 0.75307(6) 0.2500
Ho7 Ho 0.13960(10) 0.63041(9) 0.52566(6)
Ho9 Ho 0.13960(10) 0.36959(9) 0.02566(6)
O18 O 0.3560(13) 0.3248(8) 0.1980(7)
O21 O 0.674(2) 0.2257(9) 0.2257(11)
O24 O 0.6988(14) 0.3427(8) 0.5107(8)
O28 O 0.9435(19) 0.4547(9) 0.4664(10)
O31 O 0.0423(17) 0.2634(9) 0.1574(8)
O32 O 0.0358(16) 0.3453(11) 0.0959(8)
O33 O 0.9642(16) 0.3453(11) 0.4041(8)
O36 O 0.5749(15) 0.2070(7) 0.3525(7)
O37 O 0.4251(15) 0.2070(7) 0.1475(7)
O39 O 0.9129(19) 0.3748(9) 0.5852(10)
N6 N 0.5508(15) 0.3164(7) 0.1693(7)
N8 N 0.7554(16) 0.4554(10) 0.5062(8)
C23 C 0.036(2) 0.3187(14) 0.1477(12)
C39 C 0.016(2) 0.3579(9) 0.2007(10)
C40 C 0.019(2) 0.4189(10) 0.2000(14)
H11 H 0.0339 0.4392 0.1644
N10 N 0.5000 0.1424(10) 0.2500
H17 H 0.821733 0.268205 0.394221
H18 H 0.858314 0.243725 0.467614
Ho1_2 Ho 1.0000 0.21487(6) 0.2500
O9 O 0.9577(17) 0.2634(9) 0.3426(8)
C1 C 0.964(2) 0.3187(14) 0.3523(12)
N3_2 N 1.0000 0.3274(11) 0.2500
C17 C 0.984(2) 0.3579(9) 0.2993(10)
C18 C 0.981(2) 0.4189(10) 0.3000(14)
H5 H 0.9661 0.4392 0.3356
C19_2 C 1.0000 0.4512(12) 0.2500
N4_2 N 1.0000 0.6424(10) 0.2500
C22_2 C 1.0000 0.5188(13) 0.2500
Ho4_2 Ho 1.0000 0.75307(6) 0.2500
O19 O 0.2846(12) 0.3885(6) 0.1181(6)
O22 O 0.824(3) 0.2548(14) 0.1900(12)
O23 O 0.6988(14) 0.6573(8) 0.0107(8)
O26 O 0.592(3) 0.6393(10) 0.0770(15)
O29 O 0.0565(19) 0.4547(9) 0.0336(10)
O35 O 0.9251(15) 0.7070(7) 0.1475(7)
O38 O 0.9129(19) 0.6252(9) 0.0852(10)
O41 O 0.8527(17) 0.1565(9) 0.2827(11)
O42 O 0.9219(18) 0.1443(9) 0.1633(11)
O43 O 0.190(3) 0.2731(12) 0.0622(16)
N7 N 0.7554(16) 0.5446(10) 0.0062(8)
C24 C 0.931(2) 0.6523(12) 0.1386(12)
C25 C 0.3632(16) 0.3585(9) 0.1522(9)
C26 C 0.4821(16) 0.3605(8) 0.1401(9)
C27 C 0.5160(16) 0.4044(8) 0.1052(9)
H7 H 0.4639 0.4350 0.0856
C28 C 0.6272(16) 0.4044(9) 0.0984(9)
C29 C 0.6964(18) 0.3551(8) 0.1253(10)
H8 H 0.7711 0.3511 0.1196
C30 C 0.6550(18) 0.3129(8) 0.1597(9)
C31 C 0.7210(19) 0.2588(9) 0.1956(10)
C32 C 0.652(3) 0.6233(12) 0.043(2)
C33 C 0.683(2) 0.5567(11) 0.0414(14)
C34 C 0.638(2) 0.5118(9) 0.0703(14)
H9 H 0.5853 0.5211 0.0948
C35 C 0.6687(18) 0.4521(10) 0.0640(10)
C36 C 0.747(2) 0.4426(10) 0.0266(13)
H10 H 0.7692 0.4030 0.0190
C37 C 0.790(2) 0.4907(12) 0.0015(14)
C41 C 0.970(2) 0.6114(9) 0.1961(11)
C42 C 0.970(3) 0.5506(10) 0.1941(13)
H12 H 0.9485 0.5303 0.1539
H25 H 0.178267 0.268205 0.105779
H26 H 0.141686 0.243725 0.0323863
Ho10 Ho 0.86040(10) 0.63041(9) 0.97434(6)
O25 O 0.3012(14) 0.3427(8) 0.9893(8)
O27 O 0.9435(19) 0.5453(9) 0.9664(10)
O30 O 0.840(3) 0.4533(12) 0.9185(11)
O40 O 0.0871(19) 0.3748(9) 0.9148(10)
N9 N 0.2446(16) 0.4554(10) 0.9938(8)
C38 C 0.8704(17) 0.5000(9) 0.9582(11)
Ho3_2 Ho 0.36040(10) 0.86959(9) 0.47434(6)
O1_2 O 0.1440(13) 0.8248(8) 0.3020(7)
O2_2 O 0.2154(12) 0.8885(6) 0.3819(6)
O15_2 O 0.310(3) 0.7731(12) 0.4378(16)
O16_2 O 0.557(5) 0.838(3) 0.530(2)
C3_2 C 0.1368(16) 0.8585(9) 0.3478(9)
C4_2 C 0.0179(16) 0.8605(8) 0.3599(9)
H1_2 H 0.0361 0.9350 0.4144
O21_2 O 0.174(2) 0.7257(9) 0.2257(11)
O24_2 O 0.1988(14) 0.8427(8) 0.5107(8)
O28_2 O 0.4435(19) 0.9547(9) 0.4664(10)
O33_2 O 0.4642(16) 0.8453(11) 0.4041(8)
O39_2 O 0.4129(19) 0.8748(9) 0.5852(10)
N6_2 N 0.0508(15) 0.8164(7) 0.1693(7)
N8_2 N 0.2554(16) 0.9554(10) 0.5062(8)
H15_2 H 0.612663 0.865101 0.517625
H16_2 H 0.567687 0.840056 0.577209
H17_2 H 0.321733 0.768205 0.394221
H18_2 H 0.358314 0.743725 0.467614
O5_2 O 0.8012(14) 0.1573(8) 0.4893(8)
O6_2 O 0.908(3) 0.1393(10) 0.4230(15)
O7_2 O 0.5565(19) 0.0453(9) 0.5336(10)
O12_2 O 0.5871(19) 0.1252(9) 0.4148(10)
N2_2 N 0.7446(16) 0.0446(10) 0.4938(8)
C2_2 C 0.569(2) 0.1523(12) 0.3614(12)
C10_2 C 0.848(3) 0.1233(12) 0.457(2)
C11_2 C 0.817(2) 0.0567(11) 0.4586(14)
C12_2 C 0.862(2) 0.0118(9) 0.4297(14)
H3_2 H 0.9147 0.0211 0.4052
C16_2 C 0.6296(17) 0.0000(9) 0.5418(11)
C20_2 C 0.530(2) 0.1114(9) 0.3039(11)
C21_2 C 0.530(3) 0.0506(10) 0.3059(13)
H6_2 H 0.5515 0.0303 0.3461
C22_3 C 0.5000 0.0188(13) 0.2500
Ho7_2 Ho 0.63960(10) 0.13041(9) 0.52566(6)
O23_2 O 0.1988(14) 0.1573(8) 0.0107(8)
O26_2 O 0.092(3) 0.1393(10) 0.0770(15)
O38_2 O 0.4129(19) 0.1252(9) 0.0852(10)
N7_2 N 0.2554(16) 0.0446(10) 0.0062(8)
C24_2 C 0.431(2) 0.1523(12) 0.1386(12)
C32_2 C 0.152(3) 0.1233(12) 0.043(2)
C33_2 C 0.183(2) 0.0567(11) 0.0414(14)
C34_2 C 0.138(2) 0.0118(9) 0.0703(14)
H9_2 H 0.0853 0.0211 0.0948
C41_2 C 0.470(2) 0.1114(9) 0.1961(11)
C42_2 C 0.470(3) 0.0506(10) 0.1941(13)
H12_2 H 0.4485 0.0303 0.1539
Ho10_2 Ho 0.36040(10) 0.13041(9) 0.97434(6)
O27_2 O 0.4435(19) 0.0453(9) 0.9664(10)
C38_2 C 0.3704(17) 0.0000(9) 0.9582(11)
Ho1_3 Ho 0.5000 0.71487(6) 0.2500
O3_2 O 0.826(2) 0.7257(9) 0.2743(11)
O4_2 O 0.676(3) 0.7548(14) 0.3100(12)
O8_2 O 0.660(3) 0.9533(12) 0.5815(11)
O9_2 O 0.4577(17) 0.7634(9) 0.3426(8)
O13_2 O 0.6473(17) 0.6565(9) 0.2173(11)
O14_2 O 0.5781(18) 0.6443(9) 0.3367(11)
N1_2 N 0.9492(15) 0.8164(7) 0.3307(7)
C1_2 C 0.464(2) 0.8187(14) 0.3523(12)
C5_2 C 0.9840(16) 0.9044(8) 0.3948(9)
C6_2 C 0.8728(16) 0.9044(9) 0.4016(9)
C7_2 C 0.8036(18) 0.8551(8) 0.3747(10)
H2_2 H 0.7289 0.8511 0.3804
C8_2 C 0.8450(18) 0.8129(8) 0.3403(9)
C9_2 C 0.7790(19) 0.7588(9) 0.3044(10)
C13_2 C 0.8313(18) 0.9521(10) 0.4360(10)
C14_2 C 0.753(2) 0.9426(10) 0.4734(13)
H4_2 H 0.7308 0.9030 0.4810
C15_2 C 0.710(2) 0.9907(12) 0.4985(14)
C16_3 C 0.6296(17) 1.0000(9) 0.5418(11)
N3_3 N 0.5000 0.8274(11) 0.2500
C17_2 C 0.484(2) 0.8579(9) 0.2993(10)
C18_2 C 0.481(2) 0.9189(10) 0.3000(14)
H5_2 H 0.4661 0.9392 0.3356
C19_3 C 0.5000 0.9512(12) 0.2500
Ho9_2 Ho 0.63960(10) 0.86959(9) 0.02566(6)
O18_2 O 0.8560(13) 0.8248(8) 0.1980(7)
O22_2 O 0.324(3) 0.7548(14) 0.1900(12)
O31_2 O 0.5423(17) 0.7634(9) 0.1574(8)
O32_2 O 0.5358(16) 0.8453(11) 0.0959(8)
O41_2 O 0.3527(17) 0.6565(9) 0.2827(11)
O42_2 O 0.4219(18) 0.6443(9) 0.1633(11)
C23_2 C 0.536(2) 0.8187(14) 0.1477(12)
C27_2 C 0.0160(16) 0.9044(8) 0.1052(9)
C28_2 C 0.1272(16) 0.9044(9) 0.0984(9)
C29_2 C 0.1964(18) 0.8551(8) 0.1253(10)
H8_2 H 0.2711 0.8511 0.1196
C30_2 C 0.1550(18) 0.8129(8) 0.1597(9)
C31_2 C 0.2210(19) 0.7588(9) 0.1956(10)
C35_2 C 0.1687(18) 0.9521(10) 0.0640(10)
C36_2 C 0.247(2) 0.9426(10) 0.0266(13)
H10_2 H 0.2692 0.9030 0.0190
C37_2 C 0.290(2) 0.9907(12) 0.0015(14)
C39_2 C 0.516(2) 0.8579(9) 0.2007(10)
C40_2 C 0.519(2) 0.9189(10) 0.2000(14)
H11_2 H 0.5339 0.9392 0.1644
O19_2 O 0.7846(12) 0.8885(6) 0.1181(6)
O29_2 O 0.5565(19) 0.9547(9) 0.0336(10)
O43_2 O 0.690(3) 0.7731(12) 0.0622(16)
C25_2 C 0.8632(16) 0.8585(9) 0.1522(9)
C26_2 C 0.9821(16) 0.8605(8) 0.1401(9)
H7_2 H 0.9639 0.9350 0.0856
H25_2 H 0.678267 0.768205 0.105779
H26_2 H 0.641686 0.743725 0.0323863
O25_2 O 0.8012(14) 0.8427(8) 0.9893(8)
O40_2 O 0.5871(19) 0.8748(9) 0.9148(10)
O44 O 0.443(5) 0.838(3) 0.970(2)
N9_2 N 0.7446(16) 0.9554(10) 0.9938(8)
H21 H 0.387337 0.865101 0.982375
H22 H 0.432313 0.840056 0.922791
O30_2 O 0.160(3) 0.5467(12) 0.0815(11)
C38_3 C 0.1296(17) 0.5000(9) 0.0418(11)
Ho1_4 Ho 0.0000 0.78513(6) 0.7500
O9_3 O 0.0423(17) 0.7366(9) 0.6574(8)
O10 O 0.0358(16) 0.6547(11) 0.5959(8)
C1_3 C 0.036(2) 0.6813(14) 0.6477(12)
N3_4 N -0.0000 0.6726(11) 0.7500
C17_3 C 0.016(2) 0.6421(9) 0.7007(10)
C18_3 C 0.019(2) 0.5811(10) 0.7000(14)
H5_3 H 0.0339 0.5608 0.6644
C19_4 C -0.0000 0.5488(12) 0.7500
N4_3 N -0.0000 0.3576(10) 0.7500
C22_4 C -0.0000 0.4812(13) 0.7500
Ho4_3 Ho -0.0000 0.24693(6) 0.7500
Ho5 Ho 0.5000 0.74693(6) 0.7500
O17 O 0.6440(13) 0.6752(8) 0.8020(7)
O19_3 O 0.7154(12) 0.6115(6) 0.8819(6)
O20 O 0.326(2) 0.7743(9) 0.7743(11)
O22_3 O 0.176(3) 0.7452(14) 0.8100(12)
O26_3 O 0.408(3) 0.3607(10) 0.9230(15)
O34 O 0.9642(16) 0.6547(11) 0.9041(8)
O35_2 O 0.0749(15) 0.2930(7) 0.8525(7)
O41_3 O 0.1473(17) 0.8435(9) 0.7173(11)
O42_3 O 0.0781(18) 0.8557(9) 0.8367(11)
O43_3 O 0.810(3) 0.7269(12) 0.9378(16)
N5 N 0.4492(15) 0.6836(7) 0.8307(7)
C24_3 C 0.069(2) 0.3477(12) 0.8614(12)
C25_3 C 0.6368(16) 0.6415(9) 0.8478(9)
C26_3 C 0.5179(16) 0.6395(8) 0.8599(9)
C27_3 C 0.4840(16) 0.5956(8) 0.8948(9)
H7_3 H 0.5361 0.5650 0.9144
C28_3 C 0.3728(16) 0.5956(9) 0.9016(9)
C29_3 C 0.3036(18) 0.6449(8) 0.8747(10)
H8_3 H 0.2289 0.6489 0.8804
C30_3 C 0.3450(18) 0.6871(8) 0.8403(9)
C31_3 C 0.2790(19) 0.7412(9) 0.8044(10)
C32_3 C 0.348(3) 0.3767(12) 0.957(2)
C33_3 C 0.317(2) 0.4433(11) 0.9586(14)
C34_3 C 0.362(2) 0.4882(9) 0.9297(14)
H9_3 H 0.4147 0.4789 0.9052
C35_3 C 0.3313(18) 0.5479(10) 0.9360(10)
C36_3 C 0.253(2) 0.5574(10) 0.9734(13)
H10_3 H 0.2308 0.5970 0.9810
C37_3 C 0.210(2) 0.5093(12) 0.9985(14)
C41_3 C 0.030(2) 0.3886(9) 0.8039(11)
C42_3 C 0.030(3) 0.4494(10) 0.8059(13)
H12_3 H 0.0515 0.4697 0.8461
H25_3 H 0.821733 0.731795 0.894221
H26_3 H 0.858314 0.756275 0.967614
Ho1_5 Ho 1.0000 0.78513(6) 0.7500
O1_3 O 0.3560(13) 0.6752(8) 0.6980(7)
O2_3 O 0.2846(12) 0.6115(6) 0.6181(6)
O3_3 O 0.674(2) 0.7743(9) 0.7257(11)
O4_3 O 0.824(3) 0.7452(14) 0.6900(12)
O6_3 O 0.592(3) 0.3607(10) 0.5770(15)
O8_3 O 0.840(3) 0.5467(12) 0.4185(11)
O11_2 O 0.9251(15) 0.2930(7) 0.6475(7)
O13_3 O 0.8527(17) 0.8435(9) 0.7827(11)
O14_3 O 0.9219(18) 0.8557(9) 0.6633(11)
O15_3 O 0.190(3) 0.7269(12) 0.5622(16)
N1_3 N 0.5508(15) 0.6836(7) 0.6693(7)
C2_3 C 0.931(2) 0.3477(12) 0.6386(12)
C3_3 C 0.3632(16) 0.6415(9) 0.6522(9)
C4_3 C 0.4821(16) 0.6395(8) 0.6401(9)
C5_3 C 0.5160(16) 0.5956(8) 0.6052(9)
H1_3 H 0.4639 0.5650 0.5856
C6_3 C 0.6272(16) 0.5956(9) 0.5984(9)
C7_3 C 0.6964(18) 0.6449(8) 0.6253(10)
H2_3 H 0.7711 0.6489 0.6196
C8_3 C 0.6550(18) 0.6871(8) 0.6597(9)
C9_3 C 0.7210(19) 0.7412(9) 0.6956(10)
C10_3 C 0.652(3) 0.3767(12) 0.543(2)
C11_3 C 0.683(2) 0.4433(11) 0.5414(14)
C12_3 C 0.638(2) 0.4882(9) 0.5703(14)
H3_3 H 0.5853 0.4789 0.5948
C13_3 C 0.6687(18) 0.5479(10) 0.5640(10)
C14_3 C 0.747(2) 0.5574(10) 0.5266(13)
H4_3 H 0.7692 0.5970 0.5190
C15_3 C 0.790(2) 0.5093(12) 0.5015(14)
C16_4 C 0.8704(17) 0.5000(9) 0.4582(11)
N3_5 N 1.0000 0.6726(11) 0.7500
C19_5 C 1.0000 0.5488(12) 0.7500
N4_4 N 1.0000 0.3576(10) 0.7500
C20_3 C 0.970(2) 0.3886(9) 0.6961(11)
C21_3 C 0.970(3) 0.4494(10) 0.6941(13)
H6_3 H 0.9485 0.4697 0.6539
C22_5 C 1.0000 0.4812(13) 0.7500
Ho4_4 Ho 1.0000 0.24693(6) 0.7500
O31_3 O 0.9577(17) 0.7366(9) 0.8426(8)
O36_2 O 0.4251(15) 0.7930(7) 0.6475(7)
O37_2 O 0.5749(15) 0.7930(7) 0.8525(7)
C23_3 C 0.964(2) 0.6813(14) 0.8523(12)
C39_3 C 0.984(2) 0.6421(9) 0.7993(10)
C40_3 C 0.981(2) 0.5811(10) 0.8000(14)
H11_3 H 0.9661 0.5608 0.8356
N10_2 N 0.5000 0.8576(10) 0.7500
H17_3 H 0.178267 0.731795 0.605779
H18_3 H 0.141686 0.756275 0.532386
O44_2 O 0.557(5) 0.162(3) 0.030(2)
H21_2 H 0.612663 0.134899 0.017625
H22_2 H 0.567687 0.159944 0.0772085
O17_2 O 0.1440(13) 0.1752(8) 0.8020(7)
O19_4 O 0.2154(12) 0.1115(6) 0.8819(6)
O34_2 O 0.4642(16) 0.1547(11) 0.9041(8)
O43_4 O 0.310(3) 0.2269(12) 0.9378(16)
C25_4 C 0.1368(16) 0.1415(9) 0.8478(9)
C26_4 C 0.0179(16) 0.1395(8) 0.8599(9)
H7_4 H 0.0361 0.0650 0.9144
H25_4 H 0.321733 0.231795 0.894221
H26_4 H 0.358314 0.256275 0.967614
Ho1_6 Ho 0.5000 0.28513(6) 0.7500
O3_4 O 0.174(2) 0.2743(9) 0.7257(11)
O4_4 O 0.324(3) 0.2452(14) 0.6900(12)
O8_4 O 0.340(3) 0.0467(12) 0.4185(11)
O9_4 O 0.5423(17) 0.2366(9) 0.6574(8)
O10_2 O 0.5358(16) 0.1547(11) 0.5959(8)
O13_4 O 0.3527(17) 0.3435(9) 0.7827(11)
O14_4 O 0.4219(18) 0.3557(9) 0.6633(11)
N1_4 N 0.0508(15) 0.1836(7) 0.6693(7)
C1_4 C 0.536(2) 0.1813(14) 0.6477(12)
C5_4 C 0.0160(16) 0.0956(8) 0.6052(9)
C6_4 C 0.1272(16) 0.0956(9) 0.5984(9)
C7_4 C 0.1964(18) 0.1449(8) 0.6253(10)
H2_4 H 0.2711 0.1489 0.6196
C8_4 C 0.1550(18) 0.1871(8) 0.6597(9)
C9_4 C 0.2210(19) 0.2412(9) 0.6956(10)
C13_4 C 0.1687(18) 0.0479(10) 0.5640(10)
C14_4 C 0.247(2) 0.0574(10) 0.5266(13)
H4_4 H 0.2692 0.0970 0.5190
C15_4 C 0.290(2) 0.0093(12) 0.5015(14)
C16_5 C 0.3704(17) -0.0000(9) 0.4582(11)
N3_6 N 0.5000 0.1726(11) 0.7500
C17_4 C 0.516(2) 0.1421(9) 0.7007(10)
C18_4 C 0.519(2) 0.0811(10) 0.7000(14)
H5_4 H 0.5339 0.0608 0.6644
C19_6 C 0.5000 0.0488(12) 0.7500
O20_2 O 0.826(2) 0.2743(9) 0.7743(11)
O22_4 O 0.676(3) 0.2452(14) 0.8100(12)
O31_4 O 0.4577(17) 0.2366(9) 0.8426(8)
O41_4 O 0.6473(17) 0.3435(9) 0.7173(11)
O42_4 O 0.5781(18) 0.3557(9) 0.8367(11)
N5_2 N 0.9492(15) 0.1836(7) 0.8307(7)
C23_4 C 0.464(2) 0.1813(14) 0.8523(12)
C27_4 C 0.9840(16) 0.0956(8) 0.8948(9)
C28_4 C 0.8728(16) 0.0956(9) 0.9016(9)
C29_4 C 0.8036(18) 0.1449(8) 0.8747(10)
H8_4 H 0.7289 0.1489 0.8804
C30_4 C 0.8450(18) 0.1871(8) 0.8403(9)
C31_4 C 0.7790(19) 0.2412(9) 0.8044(10)
C35_4 C 0.8313(18) 0.0479(10) 0.9360(10)
C36_4 C 0.753(2) 0.0574(10) 0.9734(13)
H10_4 H 0.7308 0.0970 0.9810
C37_4 C 0.710(2) 0.0093(12) 0.9985(14)
C39_4 C 0.484(2) 0.1421(9) 0.7993(10)
C40_4 C 0.481(2) 0.0811(10) 0.8000(14)
H11_4 H 0.4661 0.0608 0.8356
C38_4 C 0.6296(17) 1.0000(9) 0.0418(11)
O6_4 O 0.092(3) 0.8607(10) 0.5770(15)
C2_4 C 0.431(2) 0.8477(12) 0.6386(12)
C10_4 C 0.152(3) 0.8767(12) 0.543(2)
C11_4 C 0.183(2) 0.9433(11) 0.5414(14)
C12_4 C 0.138(2) 0.9882(9) 0.5703(14)
H3_4 H 0.0853 0.9789 0.5948
C16_6 C 0.3704(17) 1.0000(9) 0.4582(11)
C20_4 C 0.470(2) 0.8886(9) 0.6961(11)
C21_4 C 0.470(3) 0.9494(10) 0.6941(13)
H6_4 H 0.4485 0.9697 0.6539
C22_6 C 0.5000 0.9812(13) 0.7500
O26_4 O 0.908(3) 0.8607(10) 0.9230(15)
C24_4 C 0.569(2) 0.8477(12) 0.8614(12)
C32_4 C 0.848(3) 0.8767(12) 0.957(2)
C33_4 C 0.817(2) 0.9433(11) 0.9586(14)
C34_4 C 0.862(2) 0.9882(9) 0.9297(14)
H9_4 H 0.9147 0.9789 0.9052
C41_4 C 0.530(2) 0.8886(9) 0.8039(11)
C42_4 C 0.530(3) 0.9494(10) 0.8059(13)
H12_4 H 0.5515 0.9697 0.8461
O1_4 O 0.8560(13) 0.1752(8) 0.6980(7)
O2_4 O 0.7846(12) 0.1115(6) 0.6181(6)
O15_4 O 0.690(3) 0.2269(12) 0.5622(16)
O16_3 O 0.443(5) 0.162(3) 0.470(2)
C3_4 C 0.8632(16) 0.1415(9) 0.6522(9)
C4_4 C 0.9821(16) 0.1395(8) 0.6401(9)
H1_4 H 0.9639 0.0650 0.5856
H15_3 H 0.387337 0.134899 0.482375
H16_3 H 0.432313 0.159944 0.422791
H17_4 H 0.678267 0.231795 0.605779
H18_4 H 0.641686 0.256275 0.532386
O44_3 O 0.943(5) 0.338(3) 0.970(2)
H21_3 H 0.887337 0.365101 0.982375
H22_3 H 0.932313 0.340056 0.922791
O30_3 O 0.340(3) 0.9533(12) 0.9185(11)
C38_5 C 0.3704(17) 1.0000(9) 0.9582(11)
O44_4 O 0.057(5) 0.662(3) 0.030(2)
H21_4 H 0.112663 0.634899 0.017625
H22_4 H 0.0676872 0.659944 0.0772085
O16_4 O 0.943(5) 0.662(3) 0.470(2)
H15_4 H 0.887337 0.634899 0.482375
H16_4 H 0.932313 0.659944 0.422791
O30_4 O 0.660(3) 0.0467(12) 0.0815(11)
C38_6 C 0.6296(17) 0.0000(9) 0.0418(11)
loop_
_geom_bond_atom_site_label_1
_geom_bond_atom_site_label_2
_geom_bond_site_symmetry_1
_geom_bond_site_symmetry_2
O16 H15 1_555 1_555
O16 H16 1_555 1_555
Ho1 O4 1_555 1_555
Ho2 O1 1_555 1_555
Ho3 O2 1_555 1_555
O1 C3 1_555 1_555
O2 C3 1_555 1_555
O3 Ho2 1_555 1_555
O4 C9 1_555 1_555
O5 C10 1_555 1_555
O6 C10 1_555 1_555
O7 C16 1_555 1_555
O8 C16 1_555 1_555
O11 C2 1_555 1_555
O12 C2 1_555 1_555
O13 Ho1 1_555 1_555
O14 Ho1 1_555 1_555
O15 Ho3 1_555 1_555
N1 Ho2 1_555 1_555
N2 C11 1_555 1_555
C2 C20 1_555 1_555
C3 C4 1_555 1_555
C4 N1 1_555 1_555
C5 C4 1_555 1_555
H1 C5 1_555 1_555
C6 C5 1_555 1_555
C7 C6 1_555 1_555
H2 C7 1_555 1_555
C8 N1 1_555 1_555
C9 O3 1_555 1_555
C10 C11 1_555 1_555
C11 C12 1_555 1_555
C12 H3 1_555 1_555
C13 C6 1_555 1_555
C14 C13 1_555 1_555
H4 C14 1_555 1_555
C15 N2 1_555 1_555
C16 C15 1_555 1_555
N3 Ho1 1_555 1_555
N4 C20 1_555 1_555
C20 C21 1_555 1_555
C21 H6 1_555 1_555
C22 C19 1_555 1_555
Ho4 O11 1_555 1_555
Ho7 O5 1_555 1_555
Ho9 O32 1_555 1_555
O18 Ho2 1_555 1_555
O21 Ho2 1_555 1_555
O24 Ho3 1_555 1_555
O28 Ho3 1_555 1_555
O31 Ho1 1_555 1_555
O32 C23 1_555 1_555
O33 Ho3 1_555 1_555
O36 Ho2 1_555 1_555
O37 Ho2 1_555 1_555
O39 Ho3 1_555 1_555
N6 Ho2 1_555 1_555
N8 Ho3 1_555 1_555
C23 O31 1_555 1_555
C39 N3 1_555 1_555
C40 C19 1_555 1_555
H11 C40 1_555 1_555
N10 Ho2 1_555 1_555
O7 Ho7 1_555 1_555
O12 Ho7 1_555 1_555
N2 Ho7 1_555 1_555
C7 C8 1_555 1_555
C8 C9 1_555 1_555
C12 C13 1_555 1_555
C14 C15 1_555 1_555
N4 Ho4 1_555 1_555
C21 C22 1_555 1_555
C23 C39 1_555 1_555
C39 C40 1_555 1_555
O15 H17 1_555 1_555
O15 H18 1_555 1_555
O9 Ho1_2 1_555 1_555
O33 C1 1_555 1_555
C1 O9 1_555 1_555
N3_2 Ho1_2 1_555 1_555
C17 C1 1_555 1_555
C18 C17 1_555 1_555
H5 C18 1_555 1_555
C19_2 C18 1_555 1_555
C22_2 C19_2 1_555 1_555
Ho9 O19 1_555 1_555
O18 C25 1_555 1_555
O19 C25 1_555 1_555
O22 Ho1_2 1_555 1_555
O23 C32 1_555 1_555
O26 C32 1_555 1_555
O29 Ho9 1_555 1_555
O35 Ho4_2 1_555 1_555
O41 Ho1_2 1_555 1_555
O42 Ho1_2 1_555 1_555
O43 Ho9 1_555 1_555
C24 O35 1_555 1_555
C25 C26 1_555 1_555
C26 N6 1_555 1_555
C27 C26 1_555 1_555
H7 C27 1_555 1_555
C28 C27 1_555 1_555
C29 C28 1_555 1_555
H8 C29 1_555 1_555
C30 N6 1_555 1_555
C31 O21 1_555 1_555
C32 C33 1_555 1_555
C33 N7 1_555 1_555
C34 C33 1_555 1_555
H9 C34 1_555 1_555
C35 C28 1_555 1_555
C36 C35 1_555 1_555
H10 C36 1_555 1_555
C37 N7 1_555 1_555
C41 N4_2 1_555 1_555
C42 C22_2 1_555 1_555
H12 C42 1_555 1_555
N3_2 C17 1_555 1_555
N4_2 Ho4_2 1_555 1_555
O22 C31 1_555 1_555
O38 C24 1_555 1_555
C24 C41 1_555 1_555
C29 C30 1_555 1_555
C30 C31 1_555 1_555
C34 C35 1_555 1_555
C36 C37 1_555 1_555
C41 C42 1_555 1_555
O43 H25 1_555 1_555
O43 H26 1_555 1_555
O27 Ho10 1_555 1_555
O30 C38 1_555 1_555
C38 O27 1_555 1_555
Ho4 O1_2 1_555 1_555
Ho3_2 O2_2 1_555 1_555
O1_2 C3_2 1_555 1_555
O2_2 C3_2 1_555 1_555
O15_2 Ho3_2 1_555 1_555
O16_2 Ho3_2 1_555 1_555
C3_2 C4_2 1_555 1_555
O21_2 Ho4 1_555 1_555
O24_2 Ho3_2 1_555 1_555
O28_2 Ho3_2 1_555 1_555
O33_2 Ho3_2 1_555 1_555
O39_2 Ho3_2 1_555 1_555
N6_2 Ho4 1_555 1_555
N8_2 Ho3_2 1_555 1_555
O16_2 H15_2 1_555 1_555
O16_2 H16_2 1_555 1_555
O15_2 H17_2 1_555 1_555
O15_2 H18_2 1_555 1_555
O5_2 C10_2 1_555 1_555
O6_2 C10_2 1_555 1_555
O7_2 C16_2 1_555 1_555
O36 C2_2 1_555 1_555
O12_2 C2_2 1_555 1_555
N2_2 C11_2 1_555 1_555
C2_2 C20_2 1_555 1_555
C10_2 C11_2 1_555 1_555
C11_2 C12_2 1_555 1_555
C12_2 H3_2 1_555 1_555
N10 C20_2 1_555 1_555
C20_2 C21_2 1_555 1_555
C21_2 H6_2 1_555 1_555
Ho7_2 O5_2 1_555 1_555
O23_2 C32_2 1_555 1_555
O26_2 C32_2 1_555 1_555
C24_2 O37 1_555 1_555
C32_2 C33_2 1_555 1_555
C33_2 N7_2 1_555 1_555
C34_2 C33_2 1_555 1_555
H9_2 C34_2 1_555 1_555
C41_2 N10 1_555 1_555
C42_2 C22_3 1_555 1_555
H12_2 C42_2 1_555 1_555
O7_2 Ho7_2 1_555 1_555
O12_2 Ho7_2 1_555 1_555
N2_2 Ho7_2 1_555 1_555
C21_2 C22_3 1_555 1_555
O38_2 C24_2 1_555 1_555
C24_2 C41_2 1_555 1_555
C41_2 C42_2 1_555 1_555
O27_2 Ho10_2 1_555 1_555
C38_2 O27_2 1_555 1_555
Ho1_3 O4_2 1_555 1_555
O3_2 Ho4_2 1_555 1_555
O4_2 C9_2 1_555 1_555
O8_2 C16_3 1_555 1_555
O9_2 Ho1_3 1_555 1_555
O33_2 C1_2 1_555 1_555
O13_2 Ho1_3 1_555 1_555
O14_2 Ho1_3 1_555 1_555
N1_2 Ho4_2 1_555 1_555
C1_2 O9_2 1_555 1_555
C6_2 C5_2 1_555 1_555
C7_2 C6_2 1_555 1_555
H2_2 C7_2 1_555 1_555
C8_2 N1_2 1_555 1_555
C9_2 O3_2 1_555 1_555
C13_2 C6_2 1_555 1_555
C14_2 C13_2 1_555 1_555
H4_2 C14_2 1_555 1_555
C16_3 C15_2 1_555 1_555
N3_3 Ho1_3 1_555 1_555
C17_2 C1_2 1_555 1_555
C18_2 C17_2 1_555 1_555
H5_2 C18_2 1_555 1_555
C19_3 C18_2 1_555 1_555
Ho9_2 O32_2 1_555 1_555
O18_2 Ho4_2 1_555 1_555
O22_2 Ho1_3 1_555 1_555
O31_2 Ho1_3 1_555 1_555
O32_2 C23_2 1_555 1_555
O41_2 Ho1_3 1_555 1_555
O42_2 Ho1_3 1_555 1_555
C23_2 O31_2 1_555 1_555
C28_2 C27_2 1_555 1_555
C29_2 C28_2 1_555 1_555
H8_2 C29_2 1_555 1_555
C30_2 N6_2 1_555 1_555
C31_2 O21_2 1_555 1_555
C35_2 C28_2 1_555 1_555
C36_2 C35_2 1_555 1_555
H10_2 C36_2 1_555 1_555
C39_2 N3_3 1_555 1_555
C40_2 C19_3 1_555 1_555
H11_2 C40_2 1_555 1_555
C7_2 C8_2 1_555 1_555
C8_2 C9_2 1_555 1_555
C14_2 C15_2 1_555 1_555
N3_3 C17_2 1_555 1_555
O22_2 C31_2 1_555 1_555
C23_2 C39_2 1_555 1_555
C29_2 C30_2 1_555 1_555
C30_2 C31_2 1_555 1_555
C36_2 C37_2 1_555 1_555
C39_2 C40_2 1_555 1_555
Ho9_2 O19_2 1_555 1_555
O18_2 C25_2 1_555 1_555
O19_2 C25_2 1_555 1_555
O29_2 Ho9_2 1_555 1_555
O43_2 Ho9_2 1_555 1_555
C25_2 C26_2 1_555 1_555
O43_2 H25_2 1_555 1_555
O43_2 H26_2 1_555 1_555
O44 H21 1_555 1_555
O44 H22 1_555 1_555
O30_2 C38_3 1_555 1_555
C38_3 O29 1_555 1_555
O9_3 Ho1_4 1_555 1_555
O10 C1_3 1_555 1_555
C1_3 O9_3 1_555 1_555
N3_4 Ho1_4 1_555 1_555
C17_3 C1_3 1_555 1_555
C18_3 C17_3 1_555 1_555
H5_3 C18_3 1_555 1_555
C19_4 C18_3 1_555 1_555
C22_4 C19_4 1_555 1_555
Ho5 O17 1_555 1_555
Ho10 O19_3 1_555 1_555
Ho7 O10 1_555 1_555
O17 C25_3 1_555 1_555
O19_3 C25_3 1_555 1_555
O20 Ho5 1_555 1_555
O22_3 Ho1_4 1_555 1_555
O25 C32_3 1_555 1_555
O26_3 C32_3 1_555 1_555
O34 Ho10 1_555 1_555
O35_2 Ho4_3 1_555 1_555
O41_3 Ho1_4 1_555 1_555
O42_3 Ho1_4 1_555 1_555
O43_3 Ho10 1_555 1_555
N5 Ho5 1_555 1_555
C24_3 O35_2 1_555 1_555
C25_3 C26_3 1_555 1_555
C26_3 N5 1_555 1_555
C27_3 C26_3 1_555 1_555
H7_3 C27_3 1_555 1_555
C28_3 C27_3 1_555 1_555
C29_3 C28_3 1_555 1_555
H8_3 C29_3 1_555 1_555
C30_3 N5 1_555 1_555
C31_3 O20 1_555 1_555
C32_3 C33_3 1_555 1_555
C33_3 N9 1_555 1_555
C34_3 C33_3 1_555 1_555
H9_3 C34_3 1_555 1_555
C35_3 C28_3 1_555 1_555
C36_3 C35_3 1_555 1_555
H10_3 C36_3 1_555 1_555
C37_3 N9 1_555 1_555
C41_3 N4_3 1_555 1_555
C42_3 C22_4 1_555 1_555
H12_3 C42_3 1_555 1_555
N3_4 C17_3 1_555 1_555
N4_3 Ho4_3 1_555 1_555
O22_3 C31_3 1_555 1_555
O40 C24_3 1_555 1_555
C24_3 C41_3 1_555 1_555
C29_3 C30_3 1_555 1_555
C30_3 C31_3 1_555 1_555
C34_3 C35_3 1_555 1_555
C36_3 C37_3 1_555 1_555
C41_3 C42_3 1_555 1_555
O43_3 H25_3 1_555 1_555
O43_3 H26_3 1_555 1_555
Ho1_5 O4_3 1_555 1_555
Ho5 O1_3 1_555 1_555
Ho7 O2_3 1_555 1_555
O1_3 C3_3 1_555 1_555
O2_3 C3_3 1_555 1_555
O3_3 Ho5 1_555 1_555
O4_3 C9_3 1_555 1_555
O24 C10_3 1_555 1_555
O6_3 C10_3 1_555 1_555
O28 C16_4 1_555 1_555
O8_3 C16_4 1_555 1_555
O11_2 C2_3 1_555 1_555
O39 C2_3 1_555 1_555
O13_3 Ho1_5 1_555 1_555
O14_3 Ho1_5 1_555 1_555
O15_3 Ho7 1_555 1_555
N1_3 Ho5 1_555 1_555
N8 C11_3 1_555 1_555
C2_3 C20_3 1_555 1_555
C3_3 C4_3 1_555 1_555
C4_3 N1_3 1_555 1_555
C5_3 C4_3 1_555 1_555
H1_3 C5_3 1_555 1_555
C6_3 C5_3 1_555 1_555
C7_3 C6_3 1_555 1_555
H2_3 C7_3 1_555 1_555
C8_3 N1_3 1_555 1_555
C9_3 O3_3 1_555 1_555
C10_3 C11_3 1_555 1_555
C11_3 C12_3 1_555 1_555
C12_3 H3_3 1_555 1_555
C13_3 C6_3 1_555 1_555
C14_3 C13_3 1_555 1_555
H4_3 C14_3 1_555 1_555
C15_3 N8 1_555 1_555
C16_4 C15_3 1_555 1_555
N3_5 Ho1_5 1_555 1_555
N4_4 C20_3 1_555 1_555
C20_3 C21_3 1_555 1_555
C21_3 H6_3 1_555 1_555
C22_5 C19_5 1_555 1_555
Ho4_4 O11_2 1_555 1_555
O31_3 Ho1_5 1_555 1_555
O34 C23_3 1_555 1_555
O36_2 Ho5 1_555 1_555
O37_2 Ho5 1_555 1_555
C23_3 O31_3 1_555 1_555
C39_3 N3_5 1_555 1_555
C40_3 C19_5 1_555 1_555
H11_3 C40_3 1_555 1_555
N10_2 Ho5 1_555 1_555
C7_3 C8_3 1_555 1_555
C8_3 C9_3 1_555 1_555
C12_3 C13_3 1_555 1_555
C14_3 C15_3 1_555 1_555
N4_4 Ho4_4 1_555 1_555
C21_3 C22_5 1_555 1_555
C23_3 C39_3 1_555 1_555
C39_3 C40_3 1_555 1_555
O15_3 H17_3 1_555 1_555
O15_3 H18_3 1_555 1_555
O44_2 H21_2 1_555 1_555
O44_2 H22_2 1_555 1_555
Ho4_3 O17_2 1_555 1_555
Ho10_2 O19_4 1_555 1_555
O17_2 C25_4 1_555 1_555
O19_4 C25_4 1_555 1_555
O34_2 Ho10_2 1_555 1_555
O43_4 Ho10_2 1_555 1_555
C25_4 C26_4 1_555 1_555
O43_4 H25_4 1_555 1_555
O43_4 H26_4 1_555 1_555
Ho1_6 O4_4 1_555 1_555
O3_4 Ho4_3 1_555 1_555
O4_4 C9_4 1_555 1_555
O8_4 C16_5 1_555 1_555
O9_4 Ho1_6 1_555 1_555
O10_2 C1_4 1_555 1_555
O13_4 Ho1_6 1_555 1_555
O14_4 Ho1_6 1_555 1_555
N1_4 Ho4_3 1_555 1_555
C1_4 O9_4 1_555 1_555
C6_4 C5_4 1_555 1_555
C7_4 C6_4 1_555 1_555
H2_4 C7_4 1_555 1_555
C8_4 N1_4 1_555 1_555
C9_4 O3_4 1_555 1_555
C13_4 C6_4 1_555 1_555
C14_4 C13_4 1_555 1_555
H4_4 C14_4 1_555 1_555
C16_5 C15_4 1_555 1_555
N3_6 Ho1_6 1_555 1_555
C17_4 C1_4 1_555 1_555
C18_4 C17_4 1_555 1_555
H5_4 C18_4 1_555 1_555
C19_6 C18_4 1_555 1_555
Ho7_2 O10_2 1_555 1_555
O20_2 Ho4_4 1_555 1_555
O22_4 Ho1_6 1_555 1_555
O31_4 Ho1_6 1_555 1_555
O34_2 C23_4 1_555 1_555
O41_4 Ho1_6 1_555 1_555
O42_4 Ho1_6 1_555 1_555
N5_2 Ho4_4 1_555 1_555
C23_4 O31_4 1_555 1_555
C28_4 C27_4 1_555 1_555
C29_4 C28_4 1_555 1_555
H8_4 C29_4 1_555 1_555
C30_4 N5_2 1_555 1_555
C31_4 O20_2 1_555 1_555
C35_4 C28_4 1_555 1_555
C36_4 C35_4 1_555 1_555
H10_4 C36_4 1_555 1_555
C39_4 N3_6 1_555 1_555
C40_4 C19_6 1_555 1_555
H11_4 C40_4 1_555 1_555
C7_4 C8_4 1_555 1_555
C8_4 C9_4 1_555 1_555
C14_4 C15_4 1_555 1_555
N3_6 C17_4 1_555 1_555
O22_4 C31_4 1_555 1_555
C23_4 C39_4 1_555 1_555
C29_4 C30_4 1_555 1_555
C30_4 C31_4 1_555 1_555
C36_4 C37_4 1_555 1_555
C39_4 C40_4 1_555 1_555
C38_4 O29_2 1_555 1_555
O24_2 C10_4 1_555 1_555
O6_4 C10_4 1_555 1_555
O28_2 C16_6 1_555 1_555
O36_2 C2_4 1_555 1_555
O39_2 C2_4 1_555 1_555
N8_2 C11_4 1_555 1_555
C2_4 C20_4 1_555 1_555
C10_4 C11_4 1_555 1_555
C11_4 C12_4 1_555 1_555
C12_4 H3_4 1_555 1_555
N10_2 C20_4 1_555 1_555
C20_4 C21_4 1_555 1_555
C21_4 H6_4 1_555 1_555
O25_2 C32_4 1_555 1_555
O26_4 C32_4 1_555 1_555
C24_4 O37_2 1_555 1_555
C32_4 C33_4 1_555 1_555
C33_4 N9_2 1_555 1_555
C34_4 C33_4 1_555 1_555
H9_4 C34_4 1_555 1_555
C41_4 N10_2 1_555 1_555
C42_4 C22_6 1_555 1_555
H12_4 C42_4 1_555 1_555
C21_4 C22_6 1_555 1_555
O40_2 C24_4 1_555 1_555
C24_4 C41_4 1_555 1_555
C41_4 C42_4 1_555 1_555
Ho4_4 O1_4 1_555 1_555
Ho7_2 O2_4 1_555 1_555
O1_4 C3_4 1_555 1_555
O2_4 C3_4 1_555 1_555
O15_4 Ho7_2 1_555 1_555
O16_3 Ho7_2 1_555 1_555
C3_4 C4_4 1_555 1_555
O16_3 H15_3 1_555 1_555
O16_3 H16_3 1_555 1_555
O15_4 H17_4 1_555 1_555
O15_4 H18_4 1_555 1_555
O44_3 H21_3 1_555 1_555
O44_3 H22_3 1_555 1_555
O30_3 C38_5 1_555 1_555
O44_4 H21_4 1_555 1_555
O44_4 H22_4 1_555 1_555
O16_4 H15_4 1_555 1_555
O16_4 H16_4 1_555 1_555
O30_4 C38_6 1_555 1_555

#END
