
###############################################################################
#
# This file contains modified crystal structure data generated from the
# MOF subset of the Cambridge Structural Database (CSD) v543 
# hosted by the Cambridge Crystallographic Data Centre (CCDC).
#
# This work is licensed under the Creative Commons
# Attribution-NonCommercial-ShareAlike 4.0 International License.
# To view a copy of this license, visit
# http://creativecommons.org/licenses/by-nc-sa/4.0/
# or send a letter to
# Creative Commons, PO Box 1866, Mountain View, CA 94042, USA.
#
# CIF created using the CSD Python API on 29 September 2022
# The structure has been converted into the P1 space group
# The structure has a 3D framework
# The original CSD entry COYVAO01 is in the monoclinic crystal system
# The framework has been calculated to contain at least 10.0% void space
# The void calculation uses a probe of radius 1.32A, grid spacing 0.4
# H atom positions have been added when not included in the experimental data
# Generated hydrogen atom positions removed from atoms on special positions
#
###############################################################################

data_COYVAO01
_chemical_formula_moiety         '(C172 H144 Dy20 N28 O124)n'
_symmetry_cell_setting           triclinic
_symmetry_space_group_name_H-M   'P 1'
_symmetry_Int_Tables_number      1
_space_group_name_Hall           'P 1'
loop_
_symmetry_equiv_pos_site_id
_symmetry_equiv_pos_as_xyz
1 x,y,z
_cell_length_a                   12.1025(16)
_cell_length_b                   22.287(4)
_cell_length_c                   21.695(3)
_cell_angle_alpha                90
_cell_angle_beta                 105.315(8)
_cell_angle_gamma                90
_cell_volume                     5643.95
loop_
_atom_site_label
_atom_site_type_symbol
_atom_site_fract_x
_atom_site_fract_y
_atom_site_fract_z
O16 O 0.047(3) 0.6701(19) 0.5287(14)
H19 H 0.0485136 0.713886 0.520496
H20 H 0.0618169 0.662957 0.575353
Dy1 Dy 0.5000 0.74694(5) 0.2500
Dy2 Dy 0.0000 0.78664(5) 0.2500
Dy3 Dy 0.86134(7) 0.63017(6) 0.47429(4)
O1 O 0.6438(10) 0.6752(5) 0.3016(5)
O2 O 0.7149(9) 0.6109(4) 0.3813(5)
O3 O 0.3260(10) 0.7742(5) 0.2753(5)
O4 O 0.1767(10) 0.7469(5) 0.3109(5)
O5 O 0.3044(18) 0.3426(8) 0.4899(10)
O6 O 0.410(3) 0.3625(9) 0.4231(14)
O7 O 0.1267(18) 0.4768(8) 0.5751(10)
O8 O 0.014(2) 0.5524(9) 0.5020(12)
O11 O 0.0766(11) 0.2940(5) 0.3525(5)
O12 O 0.0884(14) 0.3759(7) 0.4141(7)
O13 O 0.1483(11) 0.8446(6) 0.2183(8)
O14 O 0.0772(13) 0.8577(6) 0.3370(8)
O15 O 0.806(2) 0.7286(8) 0.4349(12)
N1 N 0.4493(11) 0.6837(5) 0.3315(6)
N2 N 0.2435(12) 0.4558(7) 0.4936(6)
C2 C 0.0681(16) 0.3496(9) 0.3618(8)
C3 C 0.6357(12) 0.6422(6) 0.3469(7)
C4 C 0.5179(12) 0.6391(6) 0.3592(6)
C5 C 0.4844(12) 0.5953(7) 0.3952(7)
H1 H 0.5356 0.5643 0.4147
C6 C 0.3723(12) 0.5975(6) 0.4024(7)
C7 C 0.3036(13) 0.6460(6) 0.3754(7)
H2 H 0.2290 0.6503 0.3813
C8 C 0.3452(13) 0.6874(6) 0.3402(7)
C9 C 0.2763(13) 0.7404(7) 0.3065(6)
C10 C 0.346(3) 0.3785(9) 0.456(2)
C11 C 0.3161(19) 0.4442(7) 0.4590(10)
C12 C 0.3616(18) 0.4891(7) 0.4300(10)
H3 H 0.4139 0.4797 0.4055
C13 C 0.3306(13) 0.5487(7) 0.4365(8)
C14 C 0.2545(18) 0.5582(8) 0.4736(10)
H4 H 0.2335 0.5980 0.4815
C15 C 0.2094(18) 0.5104(8) 0.4990(10)
C16 C 0.1053(17) 0.5151(7) 0.5262(9)
N3 N 0.0000 0.6724(8) 0.2500
C19 C -0.0000 0.5490(9) 0.2500
N4 N -0.0000 0.3581(8) 0.2500
C20 C 0.0301(17) 0.3890(6) 0.3040(8)
C21 C 0.0316(19) 0.4509(7) 0.3063(9)
H6 H 0.0542 0.4711 0.3462
C22 C -0.0000 0.4835(12) 0.2500
Dy5 Dy -0.0000 0.24694(5) 0.2500
Dy6 Dy 0.13866(7) 0.63017(6) 0.02571(4)
Dy7 Dy 0.13866(7) 0.36983(6) 0.52571(4)
O17 O 0.3562(10) 0.6752(5) 0.1984(5)
O20 O 0.6740(10) 0.7742(5) 0.2247(5)
O24 O 0.6956(18) 0.6574(8) 0.5101(10)
O28 O 0.8733(18) 0.5232(8) 0.4249(10)
O31 O 0.0427(12) 0.7373(6) 0.1578(6)
O32 O 0.0366(12) 0.6548(7) 0.0971(6)
O33 O 0.9634(12) 0.6548(7) 0.4029(6)
O35 O 0.4234(11) 0.7940(5) 0.1475(5)
O36 O 0.5766(11) 0.7940(5) 0.3525(5)
O39 O 0.9116(14) 0.6241(7) 0.5859(7)
N5 N 0.5507(11) 0.6837(5) 0.1685(6)
N8 N 0.7565(12) 0.5442(7) 0.5064(6)
C23 C 0.0350(15) 0.6814(10) 0.1479(9)
C39 C 0.0165(16) 0.6428(7) 0.2002(8)
C40 C 0.0182(17) 0.5806(7) 0.1982(9)
H11 H 0.0315 0.5601 0.1624
N10 N 0.5000 0.8581(8) 0.2500
H17 H 0.723904 0.735087 0.432781
H18 H 0.853345 0.758704 0.464005
Dy2_2 Dy 1.0000 0.78664(5) 0.2500
O9 O 0.9573(12) 0.7373(6) 0.3422(6)
C1 C 0.9650(15) 0.6814(10) 0.3521(9)
N3_2 N 1.0000 0.6724(8) 0.2500
C17 C 0.9835(16) 0.6428(7) 0.2998(8)
C18 C 0.9818(17) 0.5806(7) 0.3018(9)
H5 H 0.9685 0.5601 0.3376
C19_2 C 1.0000 0.5490(9) 0.2500
N4_2 N 1.0000 0.3581(8) 0.2500
C22_2 C 1.0000 0.4835(12) 0.2500
Dy5_2 Dy 1.0000 0.24694(5) 0.2500
O19 O 0.2851(9) 0.6109(4) 0.1187(5)
O22 O 0.8233(10) 0.7469(5) 0.1891(5)
O23 O 0.6956(18) 0.3426(8) 0.0101(10)
O26 O 0.590(3) 0.3625(9) 0.0769(14)
O29 O 0.1267(18) 0.5232(8) 0.0751(10)
O37 O 0.9234(11) 0.2940(5) 0.1475(5)
O38 O 0.9116(14) 0.3759(7) 0.0859(7)
O41 O 0.8517(11) 0.8446(6) 0.2817(8)
O42 O 0.9228(13) 0.8577(6) 0.1630(8)
O43 O 0.194(2) 0.7286(8) 0.0651(12)
N7 N 0.7565(12) 0.4558(7) 0.0064(6)
C24 C 0.9319(16) 0.3496(9) 0.1382(8)
C25 C 0.3643(12) 0.6422(6) 0.1531(7)
C26 C 0.4821(12) 0.6391(6) 0.1408(6)
C27 C 0.5156(12) 0.5953(7) 0.1048(7)
H7 H 0.4644 0.5643 0.0853
C28 C 0.6277(12) 0.5975(6) 0.0976(7)
C29 C 0.6964(13) 0.6460(6) 0.1246(7)
H8 H 0.7710 0.6503 0.1187
C30 C 0.6548(13) 0.6874(6) 0.1598(7)
C31 C 0.7237(13) 0.7404(7) 0.1935(6)
C32 C 0.654(3) 0.3785(9) 0.044(2)
C33 C 0.6839(19) 0.4442(7) 0.0410(10)
C34 C 0.6384(18) 0.4891(7) 0.0700(10)
H9 H 0.5861 0.4797 0.0945
C35 C 0.6694(13) 0.5487(7) 0.0635(8)
C36 C 0.7455(18) 0.5582(8) 0.0264(10)
H10 H 0.7665 0.5980 0.0185
C37 C 0.7906(18) 0.5104(8) 0.0010(10)
C41 C 0.9699(17) 0.3890(6) 0.1960(8)
C42 C 0.9684(19) 0.4509(7) 0.1937(9)
H12 H 0.9458 0.4711 0.1538
H23 H 0.276096 0.735087 0.0672192
H24 H 0.146655 0.758704 0.035995
Dy10 Dy 0.86134(7) 0.36983(6) 0.97429(4)
O25 O 0.3044(18) 0.6574(8) 0.9899(10)
O27 O 0.8733(18) 0.4768(8) 0.9249(10)
O30 O 0.986(2) 0.5524(9) 0.9980(12)
O40 O 0.0884(14) 0.6241(7) 0.9141(7)
N9 N 0.2435(12) 0.5442(7) 0.9936(6)
C38 C 0.8947(17) 0.5151(7) 0.9738(9)
Dy3_2 Dy 0.36134(7) 0.13017(6) 0.47429(4)
O1_2 O 0.1438(10) 0.1752(5) 0.3016(5)
O2_2 O 0.2149(9) 0.1109(4) 0.3813(5)
O15_2 O 0.306(2) 0.2286(8) 0.4349(12)
O16_2 O 0.547(3) 0.1701(19) 0.5287(14)
C3_2 C 0.1357(12) 0.1422(6) 0.3469(7)
C4_2 C 0.0179(12) 0.1391(6) 0.3592(6)
H1_2 H 0.0356 0.0643 0.4147
O20_2 O 0.1740(10) 0.2742(5) 0.2247(5)
O24_2 O 0.1956(18) 0.1574(8) 0.5101(10)
O28_2 O 0.3733(18) 0.0232(8) 0.4249(10)
O33_2 O 0.4634(12) 0.1548(7) 0.4029(6)
O39_2 O 0.4116(14) 0.1241(7) 0.5859(7)
N5_2 N 0.0507(11) 0.1837(5) 0.1685(6)
N8_2 N 0.2565(12) 0.0442(7) 0.5064(6)
H17_2 H 0.223904 0.235087 0.432781
H18_2 H 0.353345 0.258704 0.464005
H19_2 H 0.548514 0.213886 0.520496
H20_2 H 0.561817 0.162957 0.575353
Dy2_3 Dy 0.5000 0.28664(5) 0.2500
O3_2 O 0.8260(10) 0.2742(5) 0.2753(5)
O4_2 O 0.6767(10) 0.2469(5) 0.3109(5)
O8_2 O 0.514(2) 0.0524(9) 0.5020(12)
O9_2 O 0.4573(12) 0.2373(6) 0.3422(6)
O13_2 O 0.6483(11) 0.3446(6) 0.2183(8)
O14_2 O 0.5772(13) 0.3577(6) 0.3370(8)
N1_2 N 0.9493(11) 0.1837(5) 0.3315(6)
C1_2 C 0.4650(15) 0.1814(10) 0.3521(9)
C5_2 C 0.9844(12) 0.0953(7) 0.3952(7)
C6_2 C 0.8723(12) 0.0975(6) 0.4024(7)
C7_2 C 0.8036(13) 0.1460(6) 0.3754(7)
H2_2 H 0.7290 0.1503 0.3813
C8_2 C 0.8452(13) 0.1874(6) 0.3402(7)
C9_2 C 0.7763(13) 0.2404(7) 0.3065(6)
C13_2 C 0.8306(13) 0.0487(7) 0.4365(8)
C14_2 C 0.7545(18) 0.0582(8) 0.4736(10)
H4_2 H 0.7335 0.0980 0.4815
C15_2 C 0.7094(18) 0.0104(8) 0.4990(10)
C16_2 C 0.6053(17) 0.0151(7) 0.5262(9)
N3_3 N 0.5000 0.1724(8) 0.2500
C17_2 C 0.4835(16) 0.1428(7) 0.2998(8)
C18_2 C 0.4818(17) 0.0806(7) 0.3018(9)
H5_2 H 0.4685 0.0601 0.3376
C19_3 C 0.5000 0.0490(9) 0.2500
Dy6_2 Dy 0.63866(7) 0.13017(6) 0.02571(4)
O17_2 O 0.8562(10) 0.1752(5) 0.1984(5)
O22_2 O 0.3233(10) 0.2469(5) 0.1891(5)
O31_2 O 0.5427(12) 0.2373(6) 0.1578(6)
O32_2 O 0.5366(12) 0.1548(7) 0.0971(6)
O41_2 O 0.3517(11) 0.3446(6) 0.2817(8)
O42_2 O 0.4228(13) 0.3577(6) 0.1630(8)
C23_2 C 0.5350(15) 0.1814(10) 0.1479(9)
C27_2 C 0.0156(12) 0.0953(7) 0.1048(7)
C28_2 C 0.1277(12) 0.0975(6) 0.0976(7)
C29_2 C 0.1964(13) 0.1460(6) 0.1246(7)
H8_2 H 0.2710 0.1503 0.1187
C30_2 C 0.1548(13) 0.1874(6) 0.1598(7)
C31_2 C 0.2237(13) 0.2404(7) 0.1935(6)
C35_2 C 0.1694(13) 0.0487(7) 0.0635(8)
C36_2 C 0.2455(18) 0.0582(8) 0.0264(10)
H10_2 H 0.2665 0.0980 0.0185
C37_2 C 0.2906(18) 0.0104(8) 0.0010(10)
C39_2 C 0.5165(16) 0.1428(7) 0.2002(8)
C40_2 C 0.5182(17) 0.0806(7) 0.1982(9)
H11_2 H 0.5315 0.0601 0.1624
O5_2 O 0.8044(18) 0.8426(8) 0.4899(10)
O6_2 O 0.910(3) 0.8625(9) 0.4231(14)
O7_2 O 0.6267(18) 0.9768(8) 0.5751(10)
O12_2 O 0.5884(14) 0.8759(7) 0.4141(7)
N2_2 N 0.7435(12) 0.9558(7) 0.4936(6)
C2_2 C 0.5681(16) 0.8496(9) 0.3618(8)
C10_2 C 0.846(3) 0.8785(9) 0.456(2)
C11_2 C 0.8161(19) 0.9442(7) 0.4590(10)
C12_2 C 0.8616(18) 0.9891(7) 0.4300(10)
H3_2 H 0.9139 0.9797 0.4055
C20_2 C 0.5301(17) 0.8890(6) 0.3040(8)
C21_2 C 0.5316(19) 0.9509(7) 0.3063(9)
H6_2 H 0.5542 0.9711 0.3462
C22_3 C 0.5000 0.9835(12) 0.2500
Dy7_2 Dy 0.63866(7) 0.86983(6) 0.52571(4)
O23_2 O 0.1956(18) 0.8426(8) 0.0101(10)
O26_2 O 0.090(3) 0.8625(9) 0.0769(14)
O38_2 O 0.4116(14) 0.8759(7) 0.0859(7)
N7_2 N 0.2565(12) 0.9558(7) 0.0064(6)
C24_2 C 0.4319(16) 0.8496(9) 0.1382(8)
C32_2 C 0.154(3) 0.8785(9) 0.044(2)
C33_2 C 0.1839(19) 0.9442(7) 0.0410(10)
C34_2 C 0.1384(18) 0.9891(7) 0.0700(10)
H9_2 H 0.0861 0.9797 0.0945
C41_2 C 0.4699(17) 0.8890(6) 0.1960(8)
C42_2 C 0.4684(19) 0.9509(7) 0.1937(9)
H12_2 H 0.4458 0.9711 0.1538
Dy10_2 Dy 0.36134(7) 0.86983(6) 0.97429(4)
O27_2 O 0.3733(18) 0.9768(8) 0.9249(10)
O19_2 O 0.7851(9) 0.1109(4) 0.1187(5)
O29_2 O 0.6267(18) 0.0232(8) 0.0751(10)
O43_2 O 0.694(2) 0.2286(8) 0.0651(12)
C25_2 C 0.8643(12) 0.1422(6) 0.1531(7)
C26_2 C 0.9821(12) 0.1391(6) 0.1408(6)
H7_2 H 0.9644 0.0643 0.0853
H23_2 H 0.776096 0.235087 0.0672192
H24_2 H 0.646655 0.258704 0.035995
O25_2 O 0.8044(18) 0.1574(8) 0.9899(10)
O40_2 O 0.5884(14) 0.1241(7) 0.9141(7)
O44 O 0.453(3) 0.1701(19) 0.9713(14)
N9_2 N 0.7435(12) 0.0442(7) 0.9936(6)
H25 H 0.451486 0.213886 0.979504
H26 H 0.438183 0.162957 0.924647
O30_2 O 0.014(2) 0.4476(9) 0.0020(12)
C38_2 C 0.1053(17) 0.4849(7) 0.0262(9)
Dy2_4 Dy -0.0000 0.21336(5) 0.7500
O9_3 O 0.0427(12) 0.2627(6) 0.6578(6)
O10 O 0.0366(12) 0.3452(7) 0.5971(6)
C1_3 C 0.0350(15) 0.3186(10) 0.6479(9)
N3_4 N 0.0000 0.3276(8) 0.7500
C17_3 C 0.0165(16) 0.3572(7) 0.7002(8)
C18_3 C 0.0182(17) 0.4194(7) 0.6982(9)
H5_3 H 0.0315 0.4399 0.6624
C19_4 C 0.0000 0.4510(9) 0.7500
N4_3 N 0.0000 0.6419(8) 0.7500
C22_4 C 0.0000 0.5165(12) 0.7500
Dy4 Dy 0.5000 0.25306(5) 0.7500
Dy5_3 Dy -0.0000 0.75306(5) 0.7500
O18 O 0.6438(10) 0.3248(5) 0.8016(5)
O19_3 O 0.7149(9) 0.3891(4) 0.8813(5)
O21 O 0.3260(10) 0.2258(5) 0.7753(5)
O22_3 O 0.1767(10) 0.2531(5) 0.8109(5)
O26_3 O 0.410(3) 0.6375(9) 0.9231(14)
O34 O 0.9634(12) 0.3452(7) 0.9029(6)
O37_2 O 0.0766(11) 0.7060(5) 0.8525(5)
O41_3 O 0.1483(11) 0.1554(6) 0.7183(8)
O42_3 O 0.0772(13) 0.1423(6) 0.8370(8)
O43_3 O 0.806(2) 0.2714(8) 0.9349(12)
N6 N 0.4493(11) 0.3163(5) 0.8315(6)
C24_3 C 0.0681(16) 0.6504(9) 0.8618(8)
C25_3 C 0.6357(12) 0.3578(6) 0.8469(7)
C26_3 C 0.5179(12) 0.3609(6) 0.8592(6)
C27_3 C 0.4844(12) 0.4047(7) 0.8952(7)
H7_3 H 0.5356 0.4357 0.9147
C28_3 C 0.3723(12) 0.4025(6) 0.9024(7)
C29_3 C 0.3036(13) 0.3540(6) 0.8754(7)
H8_3 H 0.2290 0.3497 0.8813
C30_3 C 0.3452(13) 0.3126(6) 0.8402(7)
C31_3 C 0.2763(13) 0.2596(7) 0.8065(6)
C32_3 C 0.346(3) 0.6215(9) 0.956(2)
C33_3 C 0.3161(19) 0.5558(7) 0.9590(10)
C34_3 C 0.3616(18) 0.5109(7) 0.9300(10)
H9_3 H 0.4139 0.5203 0.9055
C35_3 C 0.3306(13) 0.4513(7) 0.9365(8)
C36_3 C 0.2545(18) 0.4418(8) 0.9736(10)
H10_3 H 0.2335 0.4020 0.9815
C37_3 C 0.2094(18) 0.4896(8) 0.9990(10)
C41_3 C 0.0301(17) 0.6110(6) 0.8040(8)
C42_3 C 0.0316(19) 0.5491(7) 0.8063(9)
H12_3 H 0.0542 0.5289 0.8462
H23_3 H 0.723904 0.264913 0.932781
H24_3 H 0.853345 0.241296 0.964005
Dy2_5 Dy 1.0000 0.21336(5) 0.7500
O1_3 O 0.3562(10) 0.3248(5) 0.6984(5)
O2_3 O 0.2851(9) 0.3891(4) 0.6187(5)
O3_3 O 0.6740(10) 0.2258(5) 0.7247(5)
O4_3 O 0.8233(10) 0.2531(5) 0.6891(5)
O6_3 O 0.590(3) 0.6375(9) 0.5769(14)
O8_3 O 0.986(2) 0.4476(9) 0.4980(12)
O11_2 O 0.9234(11) 0.7060(5) 0.6475(5)
O13_3 O 0.8517(11) 0.1554(6) 0.7817(8)
O14_3 O 0.9228(13) 0.1423(6) 0.6630(8)
O15_3 O 0.194(2) 0.2714(8) 0.5651(12)
N1_3 N 0.5507(11) 0.3163(5) 0.6685(6)
C2_3 C 0.9319(16) 0.6504(9) 0.6382(8)
C3_3 C 0.3643(12) 0.3578(6) 0.6531(7)
C4_3 C 0.4821(12) 0.3609(6) 0.6408(6)
C5_3 C 0.5156(12) 0.4047(7) 0.6048(7)
H1_3 H 0.4644 0.4357 0.5853
C6_3 C 0.6277(12) 0.4025(6) 0.5976(7)
C7_3 C 0.6964(13) 0.3540(6) 0.6246(7)
H2_3 H 0.7710 0.3497 0.6187
C8_3 C 0.6548(13) 0.3126(6) 0.6598(7)
C9_3 C 0.7237(13) 0.2596(7) 0.6935(6)
C10_3 C 0.654(3) 0.6215(9) 0.544(2)
C11_3 C 0.6839(19) 0.5558(7) 0.5410(10)
C12_3 C 0.6384(18) 0.5109(7) 0.5700(10)
H3_3 H 0.5861 0.5203 0.5945
C13_3 C 0.6694(13) 0.4513(7) 0.5635(8)
C14_3 C 0.7455(18) 0.4418(8) 0.5264(10)
H4_3 H 0.7665 0.4020 0.5185
C15_3 C 0.7906(18) 0.4896(8) 0.5010(10)
C16_3 C 0.8947(17) 0.4849(7) 0.4738(9)
N3_5 N 1.0000 0.3276(8) 0.7500
C19_5 C 1.0000 0.4510(9) 0.7500
N4_4 N 1.0000 0.6419(8) 0.7500
C20_3 C 0.9699(17) 0.6110(6) 0.6960(8)
C21_3 C 0.9684(19) 0.5491(7) 0.6937(9)
H6_3 H 0.9458 0.5289 0.6538
C22_5 C 1.0000 0.5165(12) 0.7500
Dy5_4 Dy 1.0000 0.75306(5) 0.7500
O31_3 O 0.9573(12) 0.2627(6) 0.8422(6)
O35_2 O 0.5766(11) 0.2060(5) 0.8525(5)
O36_2 O 0.4234(11) 0.2060(5) 0.6475(5)
C23_3 C 0.9650(15) 0.3186(10) 0.8521(9)
C39_3 C 0.9835(16) 0.3572(7) 0.7998(8)
C40_3 C 0.9818(17) 0.4194(7) 0.8018(9)
H11_3 H 0.9685 0.4399 0.8376
N10_2 N 0.5000 0.1419(8) 0.7500
H17_3 H 0.276096 0.264913 0.567219
H18_3 H 0.146655 0.241296 0.535995
O44_2 O 0.547(3) 0.8299(19) 0.0287(14)
H25_2 H 0.548514 0.786114 0.020496
H26_2 H 0.561817 0.837043 0.0753531
O18_2 O 0.1438(10) 0.8248(5) 0.8016(5)
O19_4 O 0.2149(9) 0.8891(4) 0.8813(5)
O34_2 O 0.4634(12) 0.8452(7) 0.9029(6)
O43_4 O 0.306(2) 0.7714(8) 0.9349(12)
C25_4 C 0.1357(12) 0.8578(6) 0.8469(7)
C26_4 C 0.0179(12) 0.8609(6) 0.8592(6)
H7_4 H 0.0356 0.9357 0.9147
H23_4 H 0.223904 0.764913 0.932781
H24_4 H 0.353345 0.741296 0.964005
O6_4 O 0.090(3) 0.1375(9) 0.5769(14)
C2_4 C 0.4319(16) 0.1504(9) 0.6382(8)
C10_4 C 0.154(3) 0.1215(9) 0.544(2)
C11_4 C 0.1839(19) 0.0558(7) 0.5410(10)
C12_4 C 0.1384(18) 0.0109(7) 0.5700(10)
H3_4 H 0.0861 0.0203 0.5945
C20_4 C 0.4699(17) 0.1110(6) 0.6960(8)
C21_4 C 0.4684(19) 0.0491(7) 0.6937(9)
H6_4 H 0.4458 0.0289 0.6538
C22_6 C 0.5000 0.0165(12) 0.7500
O26_4 O 0.910(3) 0.1375(9) 0.9231(14)
C24_4 C 0.5681(16) 0.1504(9) 0.8618(8)
C32_4 C 0.846(3) 0.1215(9) 0.956(2)
C33_4 C 0.8161(19) 0.0558(7) 0.9590(10)
C34_4 C 0.8616(18) 0.0109(7) 0.9300(10)
H9_4 H 0.9139 0.0203 0.9055
C41_4 C 0.5301(17) 0.1110(6) 0.8040(8)
C42_4 C 0.5316(19) 0.0491(7) 0.8063(9)
H12_4 H 0.5542 0.0289 0.8462
Dy2_6 Dy 0.5000 0.71336(5) 0.7500
O3_4 O 0.1740(10) 0.7258(5) 0.7247(5)
O4_4 O 0.3233(10) 0.7531(5) 0.6891(5)
O8_4 O 0.486(2) 0.9476(9) 0.4980(12)
O9_4 O 0.5427(12) 0.7627(6) 0.6578(6)
O10_2 O 0.5366(12) 0.8452(7) 0.5971(6)
O13_4 O 0.3517(11) 0.6554(6) 0.7817(8)
O14_4 O 0.4228(13) 0.6423(6) 0.6630(8)
N1_4 N 0.0507(11) 0.8163(5) 0.6685(6)
C1_4 C 0.5350(15) 0.8186(10) 0.6479(9)
C5_4 C 0.0156(12) 0.9047(7) 0.6048(7)
C6_4 C 0.1277(12) 0.9025(6) 0.5976(7)
C7_4 C 0.1964(13) 0.8540(6) 0.6246(7)
H2_4 H 0.2710 0.8497 0.6187
C8_4 C 0.1548(13) 0.8126(6) 0.6598(7)
C9_4 C 0.2237(13) 0.7596(7) 0.6935(6)
C13_4 C 0.1694(13) 0.9513(7) 0.5635(8)
C14_4 C 0.2455(18) 0.9418(8) 0.5264(10)
H4_4 H 0.2665 0.9020 0.5185
C15_4 C 0.2906(18) 0.9896(8) 0.5010(10)
C16_4 C 0.3947(17) 0.9849(7) 0.4738(9)
N3_6 N 0.5000 0.8276(8) 0.7500
C17_4 C 0.5165(16) 0.8572(7) 0.7002(8)
C18_4 C 0.5182(17) 0.9194(7) 0.6982(9)
H5_4 H 0.5315 0.9399 0.6624
C19_6 C 0.5000 0.9510(9) 0.7500
O21_2 O 0.8260(10) 0.7258(5) 0.7753(5)
O22_4 O 0.6767(10) 0.7531(5) 0.8109(5)
O31_4 O 0.4573(12) 0.7627(6) 0.8422(6)
O41_4 O 0.6483(11) 0.6554(6) 0.7183(8)
O42_4 O 0.5772(13) 0.6423(6) 0.8370(8)
N6_2 N 0.9493(11) 0.8163(5) 0.8315(6)
C23_4 C 0.4650(15) 0.8186(10) 0.8521(9)
C27_4 C 0.9844(12) 0.9047(7) 0.8952(7)
C28_4 C 0.8723(12) 0.9025(6) 0.9024(7)
C29_4 C 0.8036(13) 0.8540(6) 0.8754(7)
H8_4 H 0.7290 0.8497 0.8813
C30_4 C 0.8452(13) 0.8126(6) 0.8402(7)
C31_4 C 0.7763(13) 0.7596(7) 0.8065(6)
C35_4 C 0.8306(13) 0.9513(7) 0.9365(8)
C36_4 C 0.7545(18) 0.9418(8) 0.9736(10)
H10_4 H 0.7335 0.9020 0.9815
C37_4 C 0.7094(18) 0.9896(8) 0.9990(10)
C39_4 C 0.4835(16) 0.8572(7) 0.7998(8)
C40_4 C 0.4818(17) 0.9194(7) 0.8018(9)
H11_4 H 0.4685 0.9399 0.8376
O1_4 O 0.8562(10) 0.8248(5) 0.6984(5)
O2_4 O 0.7851(9) 0.8891(4) 0.6187(5)
O15_4 O 0.694(2) 0.7714(8) 0.5651(12)
O16_3 O 0.453(3) 0.8299(19) 0.4713(14)
C3_4 C 0.8643(12) 0.8578(6) 0.6531(7)
C4_4 C 0.9821(12) 0.8609(6) 0.6408(6)
H1_4 H 0.9644 0.9357 0.5853
H17_4 H 0.776096 0.764913 0.567219
H18_4 H 0.646655 0.741296 0.535995
H19_3 H 0.451486 0.786114 0.479504
H20_3 H 0.438183 0.837043 0.424647
O44_3 O 0.953(3) 0.6701(19) 0.9713(14)
H25_3 H 0.951486 0.713886 0.979504
H26_3 H 0.938183 0.662957 0.924647
O30_3 O 0.486(2) 0.0524(9) 0.9980(12)
C38_3 C 0.3947(17) 0.0151(7) 0.9738(9)
O44_4 O 0.047(3) 0.3299(19) 0.0287(14)
H25_4 H 0.0485136 0.286114 0.020496
H26_4 H 0.0618169 0.337043 0.0753531
O16_4 O 0.953(3) 0.3299(19) 0.4713(14)
H19_4 H 0.951486 0.286114 0.479504
H20_4 H 0.938183 0.337043 0.424647
O30_4 O 0.514(2) 0.9476(9) 0.0020(12)
C38_4 C 0.6053(17) 0.9849(7) 0.0262(9)
loop_
_geom_bond_atom_site_label_1
_geom_bond_atom_site_label_2
_geom_bond_site_symmetry_1
_geom_bond_site_symmetry_2
O16 H19 1_555 1_555
O16 H20 1_555 1_555
Dy1 O1 1_555 1_555
Dy2 O4 1_555 1_555
Dy3 O2 1_555 1_555
O1 C3 1_555 1_555
O2 C3 1_555 1_555
O3 Dy1 1_555 1_555
O4 C9 1_555 1_555
O5 C10 1_555 1_555
O6 C10 1_555 1_555
O7 C16 1_555 1_555
O8 C16 1_555 1_555
O11 C2 1_555 1_555
O12 C2 1_555 1_555
O13 Dy2 1_555 1_555
O14 Dy2 1_555 1_555
O15 Dy3 1_555 1_555
N1 Dy1 1_555 1_555
N2 C11 1_555 1_555
C2 C20 1_555 1_555
C3 C4 1_555 1_555
C4 N1 1_555 1_555
C5 C4 1_555 1_555
H1 C5 1_555 1_555
C6 C5 1_555 1_555
C7 C6 1_555 1_555
H2 C7 1_555 1_555
C8 N1 1_555 1_555
C9 O3 1_555 1_555
C10 C11 1_555 1_555
C11 C12 1_555 1_555
C12 H3 1_555 1_555
C13 C6 1_555 1_555
C14 C13 1_555 1_555
H4 C14 1_555 1_555
C15 N2 1_555 1_555
C16 C15 1_555 1_555
N3 Dy2 1_555 1_555
N4 C20 1_555 1_555
C20 C21 1_555 1_555
C21 H6 1_555 1_555
C22 C19 1_555 1_555
Dy5 O11 1_555 1_555
Dy6 O32 1_555 1_555
Dy7 O5 1_555 1_555
O17 Dy1 1_555 1_555
O20 Dy1 1_555 1_555
O24 Dy3 1_555 1_555
O28 Dy3 1_555 1_555
O31 Dy2 1_555 1_555
O32 C23 1_555 1_555
O33 Dy3 1_555 1_555
O35 Dy1 1_555 1_555
O36 Dy1 1_555 1_555
O39 Dy3 1_555 1_555
N5 Dy1 1_555 1_555
N8 Dy3 1_555 1_555
C23 O31 1_555 1_555
C39 N3 1_555 1_555
C40 C19 1_555 1_555
H11 C40 1_555 1_555
N10 Dy1 1_555 1_555
O7 Dy7 1_555 1_555
O12 Dy7 1_555 1_555
N2 Dy7 1_555 1_555
C7 C8 1_555 1_555
C8 C9 1_555 1_555
C12 C13 1_555 1_555
C14 C15 1_555 1_555
N4 Dy5 1_555 1_555
C21 C22 1_555 1_555
C23 C39 1_555 1_555
C39 C40 1_555 1_555
O15 H17 1_555 1_555
O15 H18 1_555 1_555
O9 Dy2_2 1_555 1_555
O33 C1 1_555 1_555
C1 O9 1_555 1_555
N3_2 Dy2_2 1_555 1_555
C17 C1 1_555 1_555
C18 C17 1_555 1_555
H5 C18 1_555 1_555
C19_2 C18 1_555 1_555
C22_2 C19_2 1_555 1_555
Dy6 O19 1_555 1_555
O17 C25 1_555 1_555
O19 C25 1_555 1_555
O22 Dy2_2 1_555 1_555
O23 C32 1_555 1_555
O26 C32 1_555 1_555
O29 Dy6 1_555 1_555
O37 Dy5_2 1_555 1_555
O41 Dy2_2 1_555 1_555
O42 Dy2_2 1_555 1_555
O43 Dy6 1_555 1_555
C24 O37 1_555 1_555
C25 C26 1_555 1_555
C26 N5 1_555 1_555
C27 C26 1_555 1_555
H7 C27 1_555 1_555
C28 C27 1_555 1_555
C29 C28 1_555 1_555
H8 C29 1_555 1_555
C30 N5 1_555 1_555
C31 O20 1_555 1_555
C32 C33 1_555 1_555
C33 N7 1_555 1_555
C34 C33 1_555 1_555
H9 C34 1_555 1_555
C35 C28 1_555 1_555
C36 C35 1_555 1_555
H10 C36 1_555 1_555
C37 N7 1_555 1_555
C41 N4_2 1_555 1_555
C42 C22_2 1_555 1_555
H12 C42 1_555 1_555
N3_2 C17 1_555 1_555
N4_2 Dy5_2 1_555 1_555
O22 C31 1_555 1_555
O38 C24 1_555 1_555
C24 C41 1_555 1_555
C29 C30 1_555 1_555
C30 C31 1_555 1_555
C34 C35 1_555 1_555
C36 C37 1_555 1_555
C41 C42 1_555 1_555
O43 H23 1_555 1_555
O43 H24 1_555 1_555
O27 Dy10 1_555 1_555
O30 C38 1_555 1_555
C38 O27 1_555 1_555
Dy5 O1_2 1_555 1_555
Dy3_2 O2_2 1_555 1_555
O1_2 C3_2 1_555 1_555
O2_2 C3_2 1_555 1_555
O15_2 Dy3_2 1_555 1_555
O16_2 Dy3_2 1_555 1_555
C3_2 C4_2 1_555 1_555
O20_2 Dy5 1_555 1_555
O24_2 Dy3_2 1_555 1_555
O28_2 Dy3_2 1_555 1_555
O33_2 Dy3_2 1_555 1_555
O39_2 Dy3_2 1_555 1_555
N5_2 Dy5 1_555 1_555
N8_2 Dy3_2 1_555 1_555
O15_2 H17_2 1_555 1_555
O15_2 H18_2 1_555 1_555
O16_2 H19_2 1_555 1_555
O16_2 H20_2 1_555 1_555
Dy2_3 O4_2 1_555 1_555
O3_2 Dy5_2 1_555 1_555
O4_2 C9_2 1_555 1_555
O8_2 C16_2 1_555 1_555
O9_2 Dy2_3 1_555 1_555
O33_2 C1_2 1_555 1_555
O13_2 Dy2_3 1_555 1_555
O14_2 Dy2_3 1_555 1_555
N1_2 Dy5_2 1_555 1_555
C1_2 O9_2 1_555 1_555
C6_2 C5_2 1_555 1_555
C7_2 C6_2 1_555 1_555
H2_2 C7_2 1_555 1_555
C8_2 N1_2 1_555 1_555
C9_2 O3_2 1_555 1_555
C13_2 C6_2 1_555 1_555
C14_2 C13_2 1_555 1_555
H4_2 C14_2 1_555 1_555
C16_2 C15_2 1_555 1_555
N3_3 Dy2_3 1_555 1_555
C17_2 C1_2 1_555 1_555
C18_2 C17_2 1_555 1_555
H5_2 C18_2 1_555 1_555
C19_3 C18_2 1_555 1_555
Dy6_2 O32_2 1_555 1_555
O17_2 Dy5_2 1_555 1_555
O22_2 Dy2_3 1_555 1_555
O31_2 Dy2_3 1_555 1_555
O32_2 C23_2 1_555 1_555
O41_2 Dy2_3 1_555 1_555
O42_2 Dy2_3 1_555 1_555
C23_2 O31_2 1_555 1_555
C28_2 C27_2 1_555 1_555
C29_2 C28_2 1_555 1_555
H8_2 C29_2 1_555 1_555
C30_2 N5_2 1_555 1_555
C31_2 O20_2 1_555 1_555
C35_2 C28_2 1_555 1_555
C36_2 C35_2 1_555 1_555
H10_2 C36_2 1_555 1_555
C39_2 N3_3 1_555 1_555
C40_2 C19_3 1_555 1_555
H11_2 C40_2 1_555 1_555
C7_2 C8_2 1_555 1_555
C8_2 C9_2 1_555 1_555
C14_2 C15_2 1_555 1_555
N3_3 C17_2 1_555 1_555
O22_2 C31_2 1_555 1_555
C23_2 C39_2 1_555 1_555
C29_2 C30_2 1_555 1_555
C30_2 C31_2 1_555 1_555
C36_2 C37_2 1_555 1_555
C39_2 C40_2 1_555 1_555
O5_2 C10_2 1_555 1_555
O6_2 C10_2 1_555 1_555
O36 C2_2 1_555 1_555
O12_2 C2_2 1_555 1_555
N2_2 C11_2 1_555 1_555
C2_2 C20_2 1_555 1_555
C10_2 C11_2 1_555 1_555
C11_2 C12_2 1_555 1_555
C12_2 H3_2 1_555 1_555
N10 C20_2 1_555 1_555
C20_2 C21_2 1_555 1_555
C21_2 H6_2 1_555 1_555
Dy7_2 O5_2 1_555 1_555
O23_2 C32_2 1_555 1_555
O26_2 C32_2 1_555 1_555
C24_2 O35 1_555 1_555
C32_2 C33_2 1_555 1_555
C33_2 N7_2 1_555 1_555
C34_2 C33_2 1_555 1_555
H9_2 C34_2 1_555 1_555
C41_2 N10 1_555 1_555
C42_2 C22_3 1_555 1_555
H12_2 C42_2 1_555 1_555
O7_2 Dy7_2 1_555 1_555
O12_2 Dy7_2 1_555 1_555
N2_2 Dy7_2 1_555 1_555
C21_2 C22_3 1_555 1_555
O38_2 C24_2 1_555 1_555
C24_2 C41_2 1_555 1_555
C41_2 C42_2 1_555 1_555
O27_2 Dy10_2 1_555 1_555
Dy6_2 O19_2 1_555 1_555
O17_2 C25_2 1_555 1_555
O19_2 C25_2 1_555 1_555
O29_2 Dy6_2 1_555 1_555
O43_2 Dy6_2 1_555 1_555
C25_2 C26_2 1_555 1_555
O43_2 H23_2 1_555 1_555
O43_2 H24_2 1_555 1_555
O44 H25 1_555 1_555
O44 H26 1_555 1_555
O30_2 C38_2 1_555 1_555
C38_2 O29 1_555 1_555
O9_3 Dy2_4 1_555 1_555
O10 C1_3 1_555 1_555
C1_3 O9_3 1_555 1_555
N3_4 Dy2_4 1_555 1_555
C17_3 C1_3 1_555 1_555
C18_3 C17_3 1_555 1_555
H5_3 C18_3 1_555 1_555
C19_4 C18_3 1_555 1_555
C22_4 C19_4 1_555 1_555
Dy4 O18 1_555 1_555
Dy7 O10 1_555 1_555
Dy10 O19_3 1_555 1_555
O18 C25_3 1_555 1_555
O19_3 C25_3 1_555 1_555
O21 Dy4 1_555 1_555
O22_3 Dy2_4 1_555 1_555
O25 C32_3 1_555 1_555
O26_3 C32_3 1_555 1_555
O34 Dy10 1_555 1_555
O37_2 Dy5_3 1_555 1_555
O41_3 Dy2_4 1_555 1_555
O42_3 Dy2_4 1_555 1_555
O43_3 Dy10 1_555 1_555
N6 Dy4 1_555 1_555
C24_3 O37_2 1_555 1_555
C25_3 C26_3 1_555 1_555
C26_3 N6 1_555 1_555
C27_3 C26_3 1_555 1_555
H7_3 C27_3 1_555 1_555
C28_3 C27_3 1_555 1_555
C29_3 C28_3 1_555 1_555
H8_3 C29_3 1_555 1_555
C30_3 N6 1_555 1_555
C31_3 O21 1_555 1_555
C32_3 C33_3 1_555 1_555
C33_3 N9 1_555 1_555
C34_3 C33_3 1_555 1_555
H9_3 C34_3 1_555 1_555
C35_3 C28_3 1_555 1_555
C36_3 C35_3 1_555 1_555
H10_3 C36_3 1_555 1_555
C37_3 N9 1_555 1_555
C41_3 N4_3 1_555 1_555
C42_3 C22_4 1_555 1_555
H12_3 C42_3 1_555 1_555
N3_4 C17_3 1_555 1_555
N4_3 Dy5_3 1_555 1_555
O22_3 C31_3 1_555 1_555
O40 C24_3 1_555 1_555
C24_3 C41_3 1_555 1_555
C29_3 C30_3 1_555 1_555
C30_3 C31_3 1_555 1_555
C34_3 C35_3 1_555 1_555
C36_3 C37_3 1_555 1_555
C41_3 C42_3 1_555 1_555
O43_3 H23_3 1_555 1_555
O43_3 H24_3 1_555 1_555
Dy4 O1_3 1_555 1_555
Dy2_5 O4_3 1_555 1_555
Dy7 O2_3 1_555 1_555
O1_3 C3_3 1_555 1_555
O2_3 C3_3 1_555 1_555
O3_3 Dy4 1_555 1_555
O4_3 C9_3 1_555 1_555
O24 C10_3 1_555 1_555
O6_3 C10_3 1_555 1_555
O28 C16_3 1_555 1_555
O8_3 C16_3 1_555 1_555
O11_2 C2_3 1_555 1_555
O39 C2_3 1_555 1_555
O13_3 Dy2_5 1_555 1_555
O14_3 Dy2_5 1_555 1_555
O15_3 Dy7 1_555 1_555
N1_3 Dy4 1_555 1_555
N8 C11_3 1_555 1_555
C2_3 C20_3 1_555 1_555
C3_3 C4_3 1_555 1_555
C4_3 N1_3 1_555 1_555
C5_3 C4_3 1_555 1_555
H1_3 C5_3 1_555 1_555
C6_3 C5_3 1_555 1_555
C7_3 C6_3 1_555 1_555
H2_3 C7_3 1_555 1_555
C8_3 N1_3 1_555 1_555
C9_3 O3_3 1_555 1_555
C10_3 C11_3 1_555 1_555
C11_3 C12_3 1_555 1_555
C12_3 H3_3 1_555 1_555
C13_3 C6_3 1_555 1_555
C14_3 C13_3 1_555 1_555
H4_3 C14_3 1_555 1_555
C15_3 N8 1_555 1_555
C16_3 C15_3 1_555 1_555
N3_5 Dy2_5 1_555 1_555
N4_4 C20_3 1_555 1_555
C20_3 C21_3 1_555 1_555
C21_3 H6_3 1_555 1_555
C22_5 C19_5 1_555 1_555
Dy5_4 O11_2 1_555 1_555
O31_3 Dy2_5 1_555 1_555
O34 C23_3 1_555 1_555
O35_2 Dy4 1_555 1_555
O36_2 Dy4 1_555 1_555
C23_3 O31_3 1_555 1_555
C39_3 N3_5 1_555 1_555
C40_3 C19_5 1_555 1_555
H11_3 C40_3 1_555 1_555
N10_2 Dy4 1_555 1_555
C7_3 C8_3 1_555 1_555
C8_3 C9_3 1_555 1_555
C12_3 C13_3 1_555 1_555
C14_3 C15_3 1_555 1_555
N4_4 Dy5_4 1_555 1_555
C21_3 C22_5 1_555 1_555
C23_3 C39_3 1_555 1_555
C39_3 C40_3 1_555 1_555
O15_3 H17_3 1_555 1_555
O15_3 H18_3 1_555 1_555
O44_2 H25_2 1_555 1_555
O44_2 H26_2 1_555 1_555
Dy5_3 O18_2 1_555 1_555
Dy10_2 O19_4 1_555 1_555
O18_2 C25_4 1_555 1_555
O19_4 C25_4 1_555 1_555
O34_2 Dy10_2 1_555 1_555
O43_4 Dy10_2 1_555 1_555
C25_4 C26_4 1_555 1_555
O43_4 H23_4 1_555 1_555
O43_4 H24_4 1_555 1_555
O24_2 C10_4 1_555 1_555
O6_4 C10_4 1_555 1_555
O36_2 C2_4 1_555 1_555
O39_2 C2_4 1_555 1_555
N8_2 C11_4 1_555 1_555
C2_4 C20_4 1_555 1_555
C10_4 C11_4 1_555 1_555
C11_4 C12_4 1_555 1_555
C12_4 H3_4 1_555 1_555
N10_2 C20_4 1_555 1_555
C20_4 C21_4 1_555 1_555
C21_4 H6_4 1_555 1_555
O25_2 C32_4 1_555 1_555
O26_4 C32_4 1_555 1_555
C24_4 O35_2 1_555 1_555
C32_4 C33_4 1_555 1_555
C33_4 N9_2 1_555 1_555
C34_4 C33_4 1_555 1_555
H9_4 C34_4 1_555 1_555
C41_4 N10_2 1_555 1_555
C42_4 C22_6 1_555 1_555
H12_4 C42_4 1_555 1_555
C21_4 C22_6 1_555 1_555
O40_2 C24_4 1_555 1_555
C24_4 C41_4 1_555 1_555
C41_4 C42_4 1_555 1_555
Dy2_6 O4_4 1_555 1_555
O3_4 Dy5_3 1_555 1_555
O4_4 C9_4 1_555 1_555
O8_4 C16_4 1_555 1_555
O9_4 Dy2_6 1_555 1_555
O10_2 C1_4 1_555 1_555
O13_4 Dy2_6 1_555 1_555
O14_4 Dy2_6 1_555 1_555
N1_4 Dy5_3 1_555 1_555
C1_4 O9_4 1_555 1_555
C6_4 C5_4 1_555 1_555
C7_4 C6_4 1_555 1_555
H2_4 C7_4 1_555 1_555
C8_4 N1_4 1_555 1_555
C9_4 O3_4 1_555 1_555
C13_4 C6_4 1_555 1_555
C14_4 C13_4 1_555 1_555
H4_4 C14_4 1_555 1_555
C16_4 C15_4 1_555 1_555
N3_6 Dy2_6 1_555 1_555
C17_4 C1_4 1_555 1_555
C18_4 C17_4 1_555 1_555
H5_4 C18_4 1_555 1_555
C19_6 C18_4 1_555 1_555
Dy7_2 O10_2 1_555 1_555
O21_2 Dy5_4 1_555 1_555
O22_4 Dy2_6 1_555 1_555
O31_4 Dy2_6 1_555 1_555
O34_2 C23_4 1_555 1_555
O41_4 Dy2_6 1_555 1_555
O42_4 Dy2_6 1_555 1_555
N6_2 Dy5_4 1_555 1_555
C23_4 O31_4 1_555 1_555
C28_4 C27_4 1_555 1_555
C29_4 C28_4 1_555 1_555
H8_4 C29_4 1_555 1_555
C30_4 N6_2 1_555 1_555
C31_4 O21_2 1_555 1_555
C35_4 C28_4 1_555 1_555
C36_4 C35_4 1_555 1_555
H10_4 C36_4 1_555 1_555
C39_4 N3_6 1_555 1_555
C40_4 C19_6 1_555 1_555
H11_4 C40_4 1_555 1_555
C7_4 C8_4 1_555 1_555
C8_4 C9_4 1_555 1_555
C14_4 C15_4 1_555 1_555
N3_6 C17_4 1_555 1_555
O22_4 C31_4 1_555 1_555
C23_4 C39_4 1_555 1_555
C29_4 C30_4 1_555 1_555
C30_4 C31_4 1_555 1_555
C36_4 C37_4 1_555 1_555
C39_4 C40_4 1_555 1_555
Dy5_4 O1_4 1_555 1_555
Dy7_2 O2_4 1_555 1_555
O1_4 C3_4 1_555 1_555
O2_4 C3_4 1_555 1_555
O15_4 Dy7_2 1_555 1_555
O16_3 Dy7_2 1_555 1_555
C3_4 C4_4 1_555 1_555
O15_4 H17_4 1_555 1_555
O15_4 H18_4 1_555 1_555
O16_3 H19_3 1_555 1_555
O16_3 H20_3 1_555 1_555
O44_3 H25_3 1_555 1_555
O44_3 H26_3 1_555 1_555
O30_3 C38_3 1_555 1_555
O44_4 H25_4 1_555 1_555
O44_4 H26_4 1_555 1_555
O16_4 H19_4 1_555 1_555
O16_4 H20_4 1_555 1_555
O30_4 C38_4 1_555 1_555

#END
