
###############################################################################
#
# This file contains modified crystal structure data generated from the
# MOF subset of the Cambridge Structural Database (CSD) v543 
# hosted by the Cambridge Crystallographic Data Centre (CCDC).
#
# This work is licensed under the Creative Commons
# Attribution-NonCommercial-ShareAlike 4.0 International License.
# To view a copy of this license, visit
# http://creativecommons.org/licenses/by-nc-sa/4.0/
# or send a letter to
# Creative Commons, PO Box 1866, Mountain View, CA 94042, USA.
#
# CIF created using the CSD Python API on 29 September 2022
# The structure has been converted into the P1 space group
# The structure has a 3D framework
# The original CSD entry COYVAO is in the monoclinic crystal system
# The framework has been calculated to contain at least 10.0% void space
# The void calculation uses a probe of radius 1.32A, grid spacing 0.4
# H atom positions have been added when not included in the experimental data
# Generated hydrogen atom positions removed from atoms on special positions
#
###############################################################################

data_COYVAO
_chemical_formula_moiety         '(C172 H144 Dy20 N28 O124)n'
_symmetry_cell_setting           triclinic
_symmetry_space_group_name_H-M   'P 1'
_symmetry_Int_Tables_number      1
_space_group_name_Hall           'P 1'
loop_
_symmetry_equiv_pos_site_id
_symmetry_equiv_pos_as_xyz
1 x,y,z
_cell_length_a                   12.1025(16)
_cell_length_b                   22.287(4)
_cell_length_c                   21.695(3)
_cell_angle_alpha                90
_cell_angle_beta                 105.315(8)
_cell_angle_gamma                90
_cell_volume                     5643.95
loop_
_atom_site_label
_atom_site_type_symbol
_atom_site_fract_x
_atom_site_fract_y
_atom_site_fract_z
O16 O 0.047(4) 0.670(2) 0.5285(19)
H13 H 0.0485308 0.713788 0.520308
H14 H 0.0619545 0.662843 0.575158
Dy1 Dy 0.5000 0.74692(5) 0.2500
Dy2 Dy 0.0000 0.78666(5) 0.2500
Dy3 Dy 0.86136(8) 0.63016(7) 0.47428(5)
O1 O 0.6440(12) 0.6756(6) 0.3017(6)
O2 O 0.7146(10) 0.6109(5) 0.3815(6)
O3 O 0.3260(11) 0.7741(6) 0.2753(6)
O4 O 0.1764(12) 0.7469(6) 0.3110(7)
O5 O 0.304(2) 0.3427(10) 0.4898(13)
O6 O 0.411(3) 0.3625(11) 0.4234(16)
O7 O 0.116(2) 0.4729(10) 0.5695(12)
O8 O 0.016(3) 0.5525(10) 0.5027(14)
O11 O 0.0765(13) 0.2942(6) 0.3524(6)
O12 O 0.0885(17) 0.3759(8) 0.4134(8)
O13 O 0.1478(13) 0.8445(7) 0.2181(9)
O14 O 0.0765(16) 0.8576(8) 0.3370(10)
O15 O 0.805(3) 0.7285(10) 0.4346(14)
N1 N 0.4493(13) 0.6837(6) 0.3316(7)
N2 N 0.2436(15) 0.4560(9) 0.4937(8)
C2 C 0.0680(19) 0.3492(11) 0.3623(10)
C3 C 0.6359(14) 0.6421(7) 0.3470(8)
C4 C 0.5181(14) 0.6393(7) 0.3595(8)
C5 C 0.4847(14) 0.5956(8) 0.3952(8)
H1 H 0.5363 0.5647 0.4148
C6 C 0.3724(14) 0.5973(7) 0.4021(8)
C7 C 0.3027(16) 0.6461(7) 0.3750(9)
H2 H 0.2277 0.6504 0.3804
C8 C 0.3456(16) 0.6877(7) 0.3403(8)
C9 C 0.2760(16) 0.7405(8) 0.3064(8)
C10 C 0.345(4) 0.3784(10) 0.456(2)
C11 C 0.316(2) 0.4445(9) 0.4586(12)
C12 C 0.363(2) 0.4890(8) 0.4305(12)
H3 H 0.4164 0.4795 0.4071
C13 C 0.3306(16) 0.5487(8) 0.4364(9)
C14 C 0.254(2) 0.5581(9) 0.4737(12)
H4 H 0.2327 0.5978 0.4820
C15 C 0.208(2) 0.5099(9) 0.4982(12)
C16 C 0.1029(19) 0.5137(8) 0.5241(9)
N3 N 0.0000 0.6725(9) 0.2500
C19 C -0.0000 0.5491(11) 0.2500
N4 N -0.0000 0.3583(10) 0.2500
C20 C 0.029(2) 0.3895(7) 0.3041(9)
C21 C 0.032(2) 0.4512(9) 0.3056(11)
H6 H 0.0556 0.4714 0.3454
C22 C -0.0000 0.4841(14) 0.2500
Dy5 Dy -0.0000 0.24692(5) 0.2500
Dy6 Dy 0.13864(8) 0.63016(7) 0.02572(5)
Dy7 Dy 0.13864(8) 0.36984(7) 0.52572(5)
O17 O 0.3560(12) 0.6756(6) 0.1983(6)
O20 O 0.6740(11) 0.7741(6) 0.2247(6)
O24 O 0.696(2) 0.6573(10) 0.5102(13)
O28 O 0.884(2) 0.5271(10) 0.4305(12)
O31 O 0.0427(14) 0.7373(7) 0.1578(7)
O32 O 0.0367(14) 0.6549(9) 0.0971(7)
O33 O 0.9633(14) 0.6549(9) 0.4029(7)
O35 O 0.4235(13) 0.7942(6) 0.1476(6)
O36 O 0.5765(13) 0.7942(6) 0.3524(6)
O39 O 0.9115(17) 0.6241(8) 0.5866(8)
N5 N 0.5507(13) 0.6837(6) 0.1684(7)
N8 N 0.7564(15) 0.5440(9) 0.5063(8)
C23 C 0.0351(18) 0.6823(12) 0.1481(10)
C39 C 0.017(2) 0.6429(8) 0.2002(9)
C40 C 0.0194(19) 0.5807(9) 0.1991(11)
H11 H 0.0341 0.5600 0.1638
N10 N 0.5000 0.8583(10) 0.2500
H19 H 0.722914 0.734829 0.432612
H20 H 0.85224 0.758751 0.463543
Dy2_2 Dy 1.0000 0.78666(5) 0.2500
O9 O 0.9573(14) 0.7373(7) 0.3422(7)
C1 C 0.9649(18) 0.6823(12) 0.3519(10)
N3_2 N 1.0000 0.6725(9) 0.2500
C17 C 0.983(2) 0.6429(8) 0.2998(9)
C18 C 0.9806(19) 0.5807(9) 0.3009(11)
H5 H 0.9659 0.5600 0.3362
C19_2 C 1.0000 0.5491(11) 0.2500
N4_2 N 1.0000 0.3583(10) 0.2500
C22_2 C 1.0000 0.4841(14) 0.2500
Dy5_2 Dy 1.0000 0.24692(5) 0.2500
O19 O 0.2854(10) 0.6109(5) 0.1185(6)
O22 O 0.8236(12) 0.7469(6) 0.1890(7)
O23 O 0.696(2) 0.3427(10) 0.0102(13)
O26 O 0.589(3) 0.3625(11) 0.0766(16)
O29 O 0.116(2) 0.5271(10) 0.0695(12)
O37 O 0.9235(13) 0.2942(6) 0.1476(6)
O38 O 0.9115(17) 0.3759(8) 0.0866(8)
O41 O 0.8522(13) 0.8445(7) 0.2819(9)
O42 O 0.9235(16) 0.8576(8) 0.1630(10)
O43 O 0.195(3) 0.7285(10) 0.0654(14)
N7 N 0.7564(15) 0.4560(9) 0.0063(8)
C24 C 0.9320(19) 0.3492(11) 0.1377(10)
C25 C 0.3641(14) 0.6421(7) 0.1530(8)
C26 C 0.4819(14) 0.6393(7) 0.1405(8)
C27 C 0.5153(14) 0.5956(8) 0.1048(8)
H7 H 0.4637 0.5647 0.0852
C28 C 0.6276(14) 0.5973(7) 0.0979(8)
C29 C 0.6973(16) 0.6461(7) 0.1250(9)
H8 H 0.7723 0.6504 0.1196
C30 C 0.6544(16) 0.6877(7) 0.1597(8)
C31 C 0.7240(16) 0.7405(8) 0.1936(8)
C32 C 0.655(4) 0.3784(10) 0.044(2)
C33 C 0.684(2) 0.4445(9) 0.0414(12)
C34 C 0.637(2) 0.4890(8) 0.0695(12)
H9 H 0.5836 0.4795 0.0929
C35 C 0.6694(16) 0.5487(8) 0.0636(9)
C36 C 0.746(2) 0.5581(9) 0.0263(12)
H10 H 0.7673 0.5978 0.0180
C37 C 0.792(2) 0.5099(9) 0.0018(12)
C41 C 0.971(2) 0.3895(7) 0.1959(9)
C42 C 0.968(2) 0.4512(9) 0.1944(11)
H12 H 0.9444 0.4714 0.1546
H27 H 0.277086 0.734829 0.067388
H28 H 0.14776 0.758751 0.0364567
Dy10 Dy 0.86136(8) 0.36984(7) 0.97428(5)
O25 O 0.304(2) 0.6573(10) 0.9898(13)
O27 O 0.884(2) 0.4729(10) 0.9305(12)
O30 O 0.984(3) 0.5525(10) 0.9973(14)
O40 O 0.0885(17) 0.6241(8) 0.9134(8)
N9 N 0.2436(15) 0.5440(9) 0.9937(8)
C38 C 0.8971(19) 0.5137(8) 0.9759(9)
Dy3_2 Dy 0.36136(8) 0.13016(7) 0.47428(5)
O1_2 O 0.1440(12) 0.1756(6) 0.3017(6)
O2_2 O 0.2146(10) 0.1109(5) 0.3815(6)
O15_2 O 0.305(3) 0.2285(10) 0.4346(14)
O16_2 O 0.547(4) 0.170(2) 0.5285(19)
C3_2 C 0.1359(14) 0.1421(7) 0.3470(8)
C4_2 C 0.0181(14) 0.1393(7) 0.3595(8)
H1_2 H 0.0363 0.0647 0.4148
O20_2 O 0.1740(11) 0.2741(6) 0.2247(6)
O24_2 O 0.196(2) 0.1573(10) 0.5102(13)
O28_2 O 0.384(2) 0.0271(10) 0.4305(12)
O33_2 O 0.4633(14) 0.1549(9) 0.4029(7)
O39_2 O 0.4115(17) 0.1241(8) 0.5866(8)
N5_2 N 0.0507(13) 0.1837(6) 0.1684(7)
N8_2 N 0.2564(15) 0.0440(9) 0.5063(8)
H13_2 H 0.548531 0.213788 0.520308
H14_2 H 0.561955 0.162843 0.575158
H19_2 H 0.222914 0.234829 0.432612
H20_2 H 0.35224 0.258751 0.463543
Dy2_3 Dy 0.5000 0.28666(5) 0.2500
O3_2 O 0.8260(11) 0.2741(6) 0.2753(6)
O4_2 O 0.6764(12) 0.2469(6) 0.3110(7)
O8_2 O 0.516(3) 0.0525(10) 0.5027(14)
O9_2 O 0.4573(14) 0.2373(7) 0.3422(7)
O13_2 O 0.6478(13) 0.3445(7) 0.2181(9)
O14_2 O 0.5765(16) 0.3576(8) 0.3370(10)
N1_2 N 0.9493(13) 0.1837(6) 0.3316(7)
C1_2 C 0.4649(18) 0.1823(12) 0.3519(10)
C5_2 C 0.9847(14) 0.0956(8) 0.3952(8)
C6_2 C 0.8724(14) 0.0973(7) 0.4021(8)
C7_2 C 0.8027(16) 0.1461(7) 0.3750(9)
H2_2 H 0.7277 0.1504 0.3804
C8_2 C 0.8456(16) 0.1877(7) 0.3403(8)
C9_2 C 0.7760(16) 0.2405(8) 0.3064(8)
C13_2 C 0.8306(16) 0.0487(8) 0.4364(9)
C14_2 C 0.754(2) 0.0581(9) 0.4737(12)
H4_2 H 0.7327 0.0978 0.4820
C15_2 C 0.708(2) 0.0099(9) 0.4982(12)
C16_2 C 0.6029(19) 0.0137(8) 0.5241(9)
N3_3 N 0.5000 0.1725(9) 0.2500
C17_2 C 0.483(2) 0.1429(8) 0.2998(9)
C18_2 C 0.4806(19) 0.0807(9) 0.3009(11)
H5_2 H 0.4659 0.0600 0.3362
C19_3 C 0.5000 0.0491(11) 0.2500
Dy6_2 Dy 0.63864(8) 0.13016(7) 0.02572(5)
O17_2 O 0.8560(12) 0.1756(6) 0.1983(6)
O22_2 O 0.3236(12) 0.2469(6) 0.1890(7)
O31_2 O 0.5427(14) 0.2373(7) 0.1578(7)
O32_2 O 0.5367(14) 0.1549(9) 0.0971(7)
O41_2 O 0.3522(13) 0.3445(7) 0.2819(9)
O42_2 O 0.4235(16) 0.3576(8) 0.1630(10)
C23_2 C 0.5351(18) 0.1823(12) 0.1481(10)
C27_2 C 0.0153(14) 0.0956(8) 0.1048(8)
C28_2 C 0.1276(14) 0.0973(7) 0.0979(8)
C29_2 C 0.1973(16) 0.1461(7) 0.1250(9)
H8_2 H 0.2723 0.1504 0.1196
C30_2 C 0.1544(16) 0.1877(7) 0.1597(8)
C31_2 C 0.2240(16) 0.2405(8) 0.1936(8)
C35_2 C 0.1694(16) 0.0487(8) 0.0636(9)
C36_2 C 0.246(2) 0.0581(9) 0.0263(12)
H10_2 H 0.2673 0.0978 0.0180
C37_2 C 0.292(2) 0.0099(9) 0.0018(12)
C39_2 C 0.517(2) 0.1429(8) 0.2002(9)
C40_2 C 0.5194(19) 0.0807(9) 0.1991(11)
H11_2 H 0.5341 0.0600 0.1638
O5_2 O 0.804(2) 0.8427(10) 0.4898(13)
O6_2 O 0.911(3) 0.8625(11) 0.4234(16)
O7_2 O 0.616(2) 0.9729(10) 0.5695(12)
O12_2 O 0.5885(17) 0.8759(8) 0.4134(8)
N2_2 N 0.7436(15) 0.9560(9) 0.4937(8)
C2_2 C 0.5680(19) 0.8492(11) 0.3623(10)
C10_2 C 0.845(4) 0.8784(10) 0.456(2)
C11_2 C 0.816(2) 0.9445(9) 0.4586(12)
C12_2 C 0.863(2) 0.9890(8) 0.4305(12)
H3_2 H 0.9164 0.9795 0.4071
C20_2 C 0.529(2) 0.8895(7) 0.3041(9)
C21_2 C 0.532(2) 0.9512(9) 0.3056(11)
H6_2 H 0.5556 0.9714 0.3454
C22_3 C 0.5000 0.9841(14) 0.2500
Dy7_2 Dy 0.63864(8) 0.86984(7) 0.52572(5)
O23_2 O 0.196(2) 0.8427(10) 0.0102(13)
O26_2 O 0.089(3) 0.8625(11) 0.0766(16)
O38_2 O 0.4115(17) 0.8759(8) 0.0866(8)
N7_2 N 0.2564(15) 0.9560(9) 0.0063(8)
C24_2 C 0.4320(19) 0.8492(11) 0.1377(10)
C32_2 C 0.155(4) 0.8784(10) 0.044(2)
C33_2 C 0.184(2) 0.9445(9) 0.0414(12)
C34_2 C 0.137(2) 0.9890(8) 0.0695(12)
H9_2 H 0.0836 0.9795 0.0929
C41_2 C 0.471(2) 0.8895(7) 0.1959(9)
C42_2 C 0.468(2) 0.9512(9) 0.1944(11)
H12_2 H 0.4444 0.9714 0.1546
Dy10_2 Dy 0.36136(8) 0.86984(7) 0.97428(5)
O27_2 O 0.384(2) 0.9729(10) 0.9305(12)
O19_2 O 0.7854(10) 0.1109(5) 0.1185(6)
O29_2 O 0.616(2) 0.0271(10) 0.0695(12)
O43_2 O 0.695(3) 0.2285(10) 0.0654(14)
C25_2 C 0.8641(14) 0.1421(7) 0.1530(8)
C26_2 C 0.9819(14) 0.1393(7) 0.1405(8)
H7_2 H 0.9637 0.0647 0.0852
H27_2 H 0.777086 0.234829 0.067388
H28_2 H 0.64776 0.258751 0.0364567
O25_2 O 0.804(2) 0.1573(10) 0.9898(13)
O40_2 O 0.5885(17) 0.1241(8) 0.9134(8)
O44 O 0.453(4) 0.170(2) 0.9715(19)
N9_2 N 0.7436(15) 0.0440(9) 0.9937(8)
H21 H 0.451469 0.213788 0.979692
H22 H 0.438045 0.162843 0.924842
O30_2 O 0.016(3) 0.4475(10) 0.0027(14)
C38_2 C 0.1029(19) 0.4863(8) 0.0241(9)
Dy2_4 Dy -0.0000 0.21334(5) 0.7500
O9_3 O 0.0427(14) 0.2627(7) 0.6578(7)
O10 O 0.0367(14) 0.3451(9) 0.5971(7)
C1_3 C 0.0351(18) 0.3177(12) 0.6481(10)
N3_4 N 0.0000 0.3275(9) 0.7500
C17_3 C 0.017(2) 0.3571(8) 0.7002(9)
C18_3 C 0.0194(19) 0.4193(9) 0.6991(11)
H5_3 H 0.0341 0.4400 0.6638
C19_4 C 0.0000 0.4509(11) 0.7500
N4_3 N 0.0000 0.6417(10) 0.7500
C22_4 C 0.0000 0.5159(14) 0.7500
Dy4 Dy 0.5000 0.25308(5) 0.7500
Dy5_3 Dy -0.0000 0.75308(5) 0.7500
O18 O 0.6440(12) 0.3244(6) 0.8017(6)
O19_3 O 0.7146(10) 0.3891(5) 0.8815(6)
O21 O 0.3260(11) 0.2259(6) 0.7753(6)
O22_3 O 0.1764(12) 0.2531(6) 0.8110(7)
O26_3 O 0.411(3) 0.6375(11) 0.9234(16)
O34 O 0.9633(14) 0.3451(9) 0.9029(7)
O37_2 O 0.0765(13) 0.7058(6) 0.8524(6)
O41_3 O 0.1478(13) 0.1555(7) 0.7181(9)
O42_3 O 0.0765(16) 0.1424(8) 0.8370(10)
O43_3 O 0.805(3) 0.2715(10) 0.9346(14)
N6 N 0.4493(13) 0.3163(6) 0.8316(7)
C24_3 C 0.0680(19) 0.6508(11) 0.8623(10)
C25_3 C 0.6359(14) 0.3579(7) 0.8470(8)
C26_3 C 0.5181(14) 0.3607(7) 0.8595(8)
C27_3 C 0.4847(14) 0.4044(8) 0.8952(8)
H7_3 H 0.5363 0.4353 0.9148
C28_3 C 0.3724(14) 0.4027(7) 0.9021(8)
C29_3 C 0.3027(16) 0.3539(7) 0.8750(9)
H8_3 H 0.2277 0.3496 0.8804
C30_3 C 0.3456(16) 0.3123(7) 0.8403(8)
C31_3 C 0.2760(16) 0.2595(8) 0.8064(8)
C32_3 C 0.345(4) 0.6216(10) 0.956(2)
C33_3 C 0.316(2) 0.5555(9) 0.9586(12)
C34_3 C 0.363(2) 0.5110(8) 0.9305(12)
H9_3 H 0.4164 0.5205 0.9071
C35_3 C 0.3306(16) 0.4513(8) 0.9364(9)
C36_3 C 0.254(2) 0.4419(9) 0.9737(12)
H10_3 H 0.2327 0.4022 0.9820
C37_3 C 0.208(2) 0.4901(9) 0.9982(12)
C41_3 C 0.029(2) 0.6105(7) 0.8041(9)
C42_3 C 0.032(2) 0.5488(9) 0.8056(11)
H12_3 H 0.0556 0.5286 0.8454
H27_3 H 0.722914 0.265171 0.932612
H28_3 H 0.85224 0.241249 0.963543
Dy2_5 Dy 1.0000 0.21334(5) 0.7500
O1_3 O 0.3560(12) 0.3244(6) 0.6983(6)
O2_3 O 0.2854(10) 0.3891(5) 0.6185(6)
O3_3 O 0.6740(11) 0.2259(6) 0.7247(6)
O4_3 O 0.8236(12) 0.2531(6) 0.6890(7)
O6_3 O 0.589(3) 0.6375(11) 0.5766(16)
O8_3 O 0.984(3) 0.4475(10) 0.4973(14)
O11_2 O 0.9235(13) 0.7058(6) 0.6476(6)
O13_3 O 0.8522(13) 0.1555(7) 0.7819(9)
O14_3 O 0.9235(16) 0.1424(8) 0.6630(10)
O15_3 O 0.195(3) 0.2715(10) 0.5654(14)
N1_3 N 0.5507(13) 0.3163(6) 0.6684(7)
C2_3 C 0.9320(19) 0.6508(11) 0.6377(10)
C3_3 C 0.3641(14) 0.3579(7) 0.6530(8)
C4_3 C 0.4819(14) 0.3607(7) 0.6405(8)
C5_3 C 0.5153(14) 0.4044(8) 0.6048(8)
H1_3 H 0.4637 0.4353 0.5852
C6_3 C 0.6276(14) 0.4027(7) 0.5979(8)
C7_3 C 0.6973(16) 0.3539(7) 0.6250(9)
H2_3 H 0.7723 0.3496 0.6196
C8_3 C 0.6544(16) 0.3123(7) 0.6597(8)
C9_3 C 0.7240(16) 0.2595(8) 0.6936(8)
C10_3 C 0.655(4) 0.6216(10) 0.544(2)
C11_3 C 0.684(2) 0.5555(9) 0.5414(12)
C12_3 C 0.637(2) 0.5110(8) 0.5695(12)
H3_3 H 0.5836 0.5205 0.5929
C13_3 C 0.6694(16) 0.4513(8) 0.5636(9)
C14_3 C 0.746(2) 0.4419(9) 0.5263(12)
H4_3 H 0.7673 0.4022 0.5180
C15_3 C 0.792(2) 0.4901(9) 0.5018(12)
C16_3 C 0.8971(19) 0.4863(8) 0.4759(9)
N3_5 N 1.0000 0.3275(9) 0.7500
C19_5 C 1.0000 0.4509(11) 0.7500
N4_4 N 1.0000 0.6417(10) 0.7500
C20_3 C 0.971(2) 0.6105(7) 0.6959(9)
C21_3 C 0.968(2) 0.5488(9) 0.6944(11)
H6_3 H 0.9444 0.5286 0.6546
C22_5 C 1.0000 0.5159(14) 0.7500
Dy5_4 Dy 1.0000 0.75308(5) 0.7500
O31_3 O 0.9573(14) 0.2627(7) 0.8422(7)
O35_2 O 0.5765(13) 0.2058(6) 0.8524(6)
O36_2 O 0.4235(13) 0.2058(6) 0.6476(6)
C23_3 C 0.9649(18) 0.3177(12) 0.8519(10)
C39_3 C 0.983(2) 0.3571(8) 0.7998(9)
C40_3 C 0.9806(19) 0.4193(9) 0.8009(11)
H11_3 H 0.9659 0.4400 0.8362
N10_2 N 0.5000 0.1417(10) 0.7500
H19_3 H 0.277086 0.265171 0.567388
H20_3 H 0.14776 0.241249 0.536457
O44_2 O 0.547(4) 0.830(2) 0.0285(19)
H21_2 H 0.548531 0.786212 0.0203076
H22_2 H 0.561955 0.837157 0.0751576
O18_2 O 0.1440(12) 0.8244(6) 0.8017(6)
O19_4 O 0.2146(10) 0.8891(5) 0.8815(6)
O34_2 O 0.4633(14) 0.8451(9) 0.9029(7)
O43_4 O 0.305(3) 0.7715(10) 0.9346(14)
C25_4 C 0.1359(14) 0.8579(7) 0.8470(8)
C26_4 C 0.0181(14) 0.8607(7) 0.8595(8)
H7_4 H 0.0363 0.9353 0.9148
H27_4 H 0.222914 0.765171 0.932612
H28_4 H 0.35224 0.741249 0.963543
O6_4 O 0.089(3) 0.1375(11) 0.5766(16)
C2_4 C 0.4320(19) 0.1508(11) 0.6377(10)
C10_4 C 0.155(4) 0.1216(10) 0.544(2)
C11_4 C 0.184(2) 0.0555(9) 0.5414(12)
C12_4 C 0.137(2) 0.0110(8) 0.5695(12)
H3_4 H 0.0836 0.0205 0.5929
C20_4 C 0.471(2) 0.1105(7) 0.6959(9)
C21_4 C 0.468(2) 0.0488(9) 0.6944(11)
H6_4 H 0.4444 0.0286 0.6546
C22_6 C 0.5000 0.0159(14) 0.7500
O26_4 O 0.911(3) 0.1375(11) 0.9234(16)
C24_4 C 0.5680(19) 0.1508(11) 0.8623(10)
C32_4 C 0.845(4) 0.1216(10) 0.956(2)
C33_4 C 0.816(2) 0.0555(9) 0.9586(12)
C34_4 C 0.863(2) 0.0110(8) 0.9305(12)
H9_4 H 0.9164 0.0205 0.9071
C41_4 C 0.529(2) 0.1105(7) 0.8041(9)
C42_4 C 0.532(2) 0.0488(9) 0.8056(11)
H12_4 H 0.5556 0.0286 0.8454
Dy2_6 Dy 0.5000 0.71334(5) 0.7500
O3_4 O 0.1740(11) 0.7259(6) 0.7247(6)
O4_4 O 0.3236(12) 0.7531(6) 0.6890(7)
O8_4 O 0.484(3) 0.9475(10) 0.4973(14)
O9_4 O 0.5427(14) 0.7627(7) 0.6578(7)
O10_2 O 0.5367(14) 0.8451(9) 0.5971(7)
O13_4 O 0.3522(13) 0.6555(7) 0.7819(9)
O14_4 O 0.4235(16) 0.6424(8) 0.6630(10)
N1_4 N 0.0507(13) 0.8163(6) 0.6684(7)
C1_4 C 0.5351(18) 0.8177(12) 0.6481(10)
C5_4 C 0.0153(14) 0.9044(8) 0.6048(8)
C6_4 C 0.1276(14) 0.9027(7) 0.5979(8)
C7_4 C 0.1973(16) 0.8539(7) 0.6250(9)
H2_4 H 0.2723 0.8496 0.6196
C8_4 C 0.1544(16) 0.8123(7) 0.6597(8)
C9_4 C 0.2240(16) 0.7595(8) 0.6936(8)
C13_4 C 0.1694(16) 0.9513(8) 0.5636(9)
C14_4 C 0.246(2) 0.9419(9) 0.5263(12)
H4_4 H 0.2673 0.9022 0.5180
C15_4 C 0.292(2) 0.9901(9) 0.5018(12)
C16_4 C 0.3971(19) 0.9863(8) 0.4759(9)
N3_6 N 0.5000 0.8275(9) 0.7500
C17_4 C 0.517(2) 0.8571(8) 0.7002(9)
C18_4 C 0.5194(19) 0.9193(9) 0.6991(11)
H5_4 H 0.5341 0.9400 0.6638
C19_6 C 0.5000 0.9509(11) 0.7500
O21_2 O 0.8260(11) 0.7259(6) 0.7753(6)
O22_4 O 0.6764(12) 0.7531(6) 0.8110(7)
O31_4 O 0.4573(14) 0.7627(7) 0.8422(7)
O41_4 O 0.6478(13) 0.6555(7) 0.7181(9)
O42_4 O 0.5765(16) 0.6424(8) 0.8370(10)
N6_2 N 0.9493(13) 0.8163(6) 0.8316(7)
C23_4 C 0.4649(18) 0.8177(12) 0.8519(10)
C27_4 C 0.9847(14) 0.9044(8) 0.8952(8)
C28_4 C 0.8724(14) 0.9027(7) 0.9021(8)
C29_4 C 0.8027(16) 0.8539(7) 0.8750(9)
H8_4 H 0.7277 0.8496 0.8804
C30_4 C 0.8456(16) 0.8123(7) 0.8403(8)
C31_4 C 0.7760(16) 0.7595(8) 0.8064(8)
C35_4 C 0.8306(16) 0.9513(8) 0.9364(9)
C36_4 C 0.754(2) 0.9419(9) 0.9737(12)
H10_4 H 0.7327 0.9022 0.9820
C37_4 C 0.708(2) 0.9901(9) 0.9982(12)
C39_4 C 0.483(2) 0.8571(8) 0.7998(9)
C40_4 C 0.4806(19) 0.9193(9) 0.8009(11)
H11_4 H 0.4659 0.9400 0.8362
O1_4 O 0.8560(12) 0.8244(6) 0.6983(6)
O2_4 O 0.7854(10) 0.8891(5) 0.6185(6)
O15_4 O 0.695(3) 0.7715(10) 0.5654(14)
O16_3 O 0.453(4) 0.830(2) 0.4715(19)
C3_4 C 0.8641(14) 0.8579(7) 0.6530(8)
C4_4 C 0.9819(14) 0.8607(7) 0.6405(8)
H1_4 H 0.9637 0.9353 0.5852
H13_3 H 0.451469 0.786212 0.479692
H14_3 H 0.438045 0.837157 0.424842
H19_4 H 0.777086 0.765171 0.567388
H20_4 H 0.64776 0.741249 0.536457
O44_3 O 0.953(4) 0.670(2) 0.9715(19)
H21_3 H 0.951469 0.713788 0.979692
H22_3 H 0.938045 0.662843 0.924842
O30_3 O 0.484(3) 0.0525(10) 0.9973(14)
C38_3 C 0.3971(19) 0.0137(8) 0.9759(9)
O44_4 O 0.047(4) 0.330(2) 0.0285(19)
H21_4 H 0.0485308 0.286212 0.0203076
H22_4 H 0.0619545 0.337157 0.0751576
O16_4 O 0.953(4) 0.330(2) 0.4715(19)
H13_4 H 0.951469 0.286212 0.479692
H14_4 H 0.938045 0.337157 0.424842
O30_4 O 0.516(3) 0.9475(10) 0.0027(14)
C38_4 C 0.6029(19) 0.9863(8) 0.0241(9)
loop_
_geom_bond_atom_site_label_1
_geom_bond_atom_site_label_2
_geom_bond_site_symmetry_1
_geom_bond_site_symmetry_2
O16 H13 1_555 1_555
O16 H14 1_555 1_555
Dy1 O1 1_555 1_555
Dy2 O4 1_555 1_555
Dy3 O2 1_555 1_555
O1 C3 1_555 1_555
O2 C3 1_555 1_555
O3 Dy1 1_555 1_555
O4 C9 1_555 1_555
O5 C10 1_555 1_555
O6 C10 1_555 1_555
O7 C16 1_555 1_555
O8 C16 1_555 1_555
O11 C2 1_555 1_555
O12 C2 1_555 1_555
O13 Dy2 1_555 1_555
O14 Dy2 1_555 1_555
O15 Dy3 1_555 1_555
N1 Dy1 1_555 1_555
N2 C11 1_555 1_555
C2 C20 1_555 1_555
C3 C4 1_555 1_555
C4 N1 1_555 1_555
C5 C4 1_555 1_555
H1 C5 1_555 1_555
C6 C5 1_555 1_555
C7 C6 1_555 1_555
H2 C7 1_555 1_555
C8 N1 1_555 1_555
C9 O3 1_555 1_555
C10 C11 1_555 1_555
C11 C12 1_555 1_555
C12 H3 1_555 1_555
C13 C6 1_555 1_555
C14 C13 1_555 1_555
H4 C14 1_555 1_555
C15 N2 1_555 1_555
C16 C15 1_555 1_555
N3 Dy2 1_555 1_555
N4 C20 1_555 1_555
C20 C21 1_555 1_555
C21 H6 1_555 1_555
C22 C19 1_555 1_555
Dy5 O11 1_555 1_555
Dy6 O32 1_555 1_555
Dy7 O5 1_555 1_555
O17 Dy1 1_555 1_555
O20 Dy1 1_555 1_555
O24 Dy3 1_555 1_555
O28 Dy3 1_555 1_555
O31 Dy2 1_555 1_555
O32 C23 1_555 1_555
O33 Dy3 1_555 1_555
O35 Dy1 1_555 1_555
O36 Dy1 1_555 1_555
O39 Dy3 1_555 1_555
N5 Dy1 1_555 1_555
N8 Dy3 1_555 1_555
C23 O31 1_555 1_555
C39 N3 1_555 1_555
C40 C19 1_555 1_555
H11 C40 1_555 1_555
N10 Dy1 1_555 1_555
O7 Dy7 1_555 1_555
O12 Dy7 1_555 1_555
N2 Dy7 1_555 1_555
C7 C8 1_555 1_555
C8 C9 1_555 1_555
C12 C13 1_555 1_555
C14 C15 1_555 1_555
N4 Dy5 1_555 1_555
C21 C22 1_555 1_555
C23 C39 1_555 1_555
C39 C40 1_555 1_555
O15 H19 1_555 1_555
O15 H20 1_555 1_555
O9 Dy2_2 1_555 1_555
O33 C1 1_555 1_555
C1 O9 1_555 1_555
N3_2 Dy2_2 1_555 1_555
C17 C1 1_555 1_555
C18 C17 1_555 1_555
H5 C18 1_555 1_555
C19_2 C18 1_555 1_555
C22_2 C19_2 1_555 1_555
Dy6 O19 1_555 1_555
O17 C25 1_555 1_555
O19 C25 1_555 1_555
O22 Dy2_2 1_555 1_555
O23 C32 1_555 1_555
O26 C32 1_555 1_555
O29 Dy6 1_555 1_555
O37 Dy5_2 1_555 1_555
O41 Dy2_2 1_555 1_555
O42 Dy2_2 1_555 1_555
O43 Dy6 1_555 1_555
C24 O37 1_555 1_555
C25 C26 1_555 1_555
C26 N5 1_555 1_555
C27 C26 1_555 1_555
H7 C27 1_555 1_555
C28 C27 1_555 1_555
C29 C28 1_555 1_555
H8 C29 1_555 1_555
C30 N5 1_555 1_555
C31 O20 1_555 1_555
C32 C33 1_555 1_555
C33 N7 1_555 1_555
C34 C33 1_555 1_555
H9 C34 1_555 1_555
C35 C28 1_555 1_555
C36 C35 1_555 1_555
H10 C36 1_555 1_555
C37 N7 1_555 1_555
C41 N4_2 1_555 1_555
C42 C22_2 1_555 1_555
H12 C42 1_555 1_555
N3_2 C17 1_555 1_555
N4_2 Dy5_2 1_555 1_555
O22 C31 1_555 1_555
O38 C24 1_555 1_555
C24 C41 1_555 1_555
C29 C30 1_555 1_555
C30 C31 1_555 1_555
C34 C35 1_555 1_555
C36 C37 1_555 1_555
C41 C42 1_555 1_555
O43 H27 1_555 1_555
O43 H28 1_555 1_555
O27 Dy10 1_555 1_555
O30 C38 1_555 1_555
C38 O27 1_555 1_555
Dy5 O1_2 1_555 1_555
Dy3_2 O2_2 1_555 1_555
O1_2 C3_2 1_555 1_555
O2_2 C3_2 1_555 1_555
O15_2 Dy3_2 1_555 1_555
O16_2 Dy3_2 1_555 1_555
C3_2 C4_2 1_555 1_555
O20_2 Dy5 1_555 1_555
O24_2 Dy3_2 1_555 1_555
O28_2 Dy3_2 1_555 1_555
O33_2 Dy3_2 1_555 1_555
O39_2 Dy3_2 1_555 1_555
N5_2 Dy5 1_555 1_555
N8_2 Dy3_2 1_555 1_555
O16_2 H13_2 1_555 1_555
O16_2 H14_2 1_555 1_555
O15_2 H19_2 1_555 1_555
O15_2 H20_2 1_555 1_555
Dy2_3 O4_2 1_555 1_555
O3_2 Dy5_2 1_555 1_555
O4_2 C9_2 1_555 1_555
O8_2 C16_2 1_555 1_555
O9_2 Dy2_3 1_555 1_555
O33_2 C1_2 1_555 1_555
O13_2 Dy2_3 1_555 1_555
O14_2 Dy2_3 1_555 1_555
N1_2 Dy5_2 1_555 1_555
C1_2 O9_2 1_555 1_555
C6_2 C5_2 1_555 1_555
C7_2 C6_2 1_555 1_555
H2_2 C7_2 1_555 1_555
C8_2 N1_2 1_555 1_555
C9_2 O3_2 1_555 1_555
C13_2 C6_2 1_555 1_555
C14_2 C13_2 1_555 1_555
H4_2 C14_2 1_555 1_555
C16_2 C15_2 1_555 1_555
N3_3 Dy2_3 1_555 1_555
C17_2 C1_2 1_555 1_555
C18_2 C17_2 1_555 1_555
H5_2 C18_2 1_555 1_555
C19_3 C18_2 1_555 1_555
Dy6_2 O32_2 1_555 1_555
O17_2 Dy5_2 1_555 1_555
O22_2 Dy2_3 1_555 1_555
O31_2 Dy2_3 1_555 1_555
O32_2 C23_2 1_555 1_555
O41_2 Dy2_3 1_555 1_555
O42_2 Dy2_3 1_555 1_555
C23_2 O31_2 1_555 1_555
C28_2 C27_2 1_555 1_555
C29_2 C28_2 1_555 1_555
H8_2 C29_2 1_555 1_555
C30_2 N5_2 1_555 1_555
C31_2 O20_2 1_555 1_555
C35_2 C28_2 1_555 1_555
C36_2 C35_2 1_555 1_555
H10_2 C36_2 1_555 1_555
C39_2 N3_3 1_555 1_555
C40_2 C19_3 1_555 1_555
H11_2 C40_2 1_555 1_555
C7_2 C8_2 1_555 1_555
C8_2 C9_2 1_555 1_555
C14_2 C15_2 1_555 1_555
N3_3 C17_2 1_555 1_555
O22_2 C31_2 1_555 1_555
C23_2 C39_2 1_555 1_555
C29_2 C30_2 1_555 1_555
C30_2 C31_2 1_555 1_555
C36_2 C37_2 1_555 1_555
C39_2 C40_2 1_555 1_555
O5_2 C10_2 1_555 1_555
O6_2 C10_2 1_555 1_555
O36 C2_2 1_555 1_555
O12_2 C2_2 1_555 1_555
N2_2 C11_2 1_555 1_555
C2_2 C20_2 1_555 1_555
C10_2 C11_2 1_555 1_555
C11_2 C12_2 1_555 1_555
C12_2 H3_2 1_555 1_555
N10 C20_2 1_555 1_555
C20_2 C21_2 1_555 1_555
C21_2 H6_2 1_555 1_555
Dy7_2 O5_2 1_555 1_555
O23_2 C32_2 1_555 1_555
O26_2 C32_2 1_555 1_555
C24_2 O35 1_555 1_555
C32_2 C33_2 1_555 1_555
C33_2 N7_2 1_555 1_555
C34_2 C33_2 1_555 1_555
H9_2 C34_2 1_555 1_555
C41_2 N10 1_555 1_555
C42_2 C22_3 1_555 1_555
H12_2 C42_2 1_555 1_555
O7_2 Dy7_2 1_555 1_555
O12_2 Dy7_2 1_555 1_555
N2_2 Dy7_2 1_555 1_555
C21_2 C22_3 1_555 1_555
O38_2 C24_2 1_555 1_555
C24_2 C41_2 1_555 1_555
C41_2 C42_2 1_555 1_555
O27_2 Dy10_2 1_555 1_555
Dy6_2 O19_2 1_555 1_555
O17_2 C25_2 1_555 1_555
O19_2 C25_2 1_555 1_555
O29_2 Dy6_2 1_555 1_555
O43_2 Dy6_2 1_555 1_555
C25_2 C26_2 1_555 1_555
O43_2 H27_2 1_555 1_555
O43_2 H28_2 1_555 1_555
O44 H21 1_555 1_555
O44 H22 1_555 1_555
O30_2 C38_2 1_555 1_555
C38_2 O29 1_555 1_555
O9_3 Dy2_4 1_555 1_555
O10 C1_3 1_555 1_555
C1_3 O9_3 1_555 1_555
N3_4 Dy2_4 1_555 1_555
C17_3 C1_3 1_555 1_555
C18_3 C17_3 1_555 1_555
H5_3 C18_3 1_555 1_555
C19_4 C18_3 1_555 1_555
C22_4 C19_4 1_555 1_555
Dy4 O18 1_555 1_555
Dy7 O10 1_555 1_555
Dy10 O19_3 1_555 1_555
O18 C25_3 1_555 1_555
O19_3 C25_3 1_555 1_555
O21 Dy4 1_555 1_555
O22_3 Dy2_4 1_555 1_555
O25 C32_3 1_555 1_555
O26_3 C32_3 1_555 1_555
O34 Dy10 1_555 1_555
O37_2 Dy5_3 1_555 1_555
O41_3 Dy2_4 1_555 1_555
O42_3 Dy2_4 1_555 1_555
O43_3 Dy10 1_555 1_555
N6 Dy4 1_555 1_555
C24_3 O37_2 1_555 1_555
C25_3 C26_3 1_555 1_555
C26_3 N6 1_555 1_555
C27_3 C26_3 1_555 1_555
H7_3 C27_3 1_555 1_555
C28_3 C27_3 1_555 1_555
C29_3 C28_3 1_555 1_555
H8_3 C29_3 1_555 1_555
C30_3 N6 1_555 1_555
C31_3 O21 1_555 1_555
C32_3 C33_3 1_555 1_555
C33_3 N9 1_555 1_555
C34_3 C33_3 1_555 1_555
H9_3 C34_3 1_555 1_555
C35_3 C28_3 1_555 1_555
C36_3 C35_3 1_555 1_555
H10_3 C36_3 1_555 1_555
C37_3 N9 1_555 1_555
C41_3 N4_3 1_555 1_555
C42_3 C22_4 1_555 1_555
H12_3 C42_3 1_555 1_555
N3_4 C17_3 1_555 1_555
N4_3 Dy5_3 1_555 1_555
O22_3 C31_3 1_555 1_555
O40 C24_3 1_555 1_555
C24_3 C41_3 1_555 1_555
C29_3 C30_3 1_555 1_555
C30_3 C31_3 1_555 1_555
C34_3 C35_3 1_555 1_555
C36_3 C37_3 1_555 1_555
C41_3 C42_3 1_555 1_555
O43_3 H27_3 1_555 1_555
O43_3 H28_3 1_555 1_555
Dy4 O1_3 1_555 1_555
Dy2_5 O4_3 1_555 1_555
Dy7 O2_3 1_555 1_555
O1_3 C3_3 1_555 1_555
O2_3 C3_3 1_555 1_555
O3_3 Dy4 1_555 1_555
O4_3 C9_3 1_555 1_555
O24 C10_3 1_555 1_555
O6_3 C10_3 1_555 1_555
O28 C16_3 1_555 1_555
O8_3 C16_3 1_555 1_555
O11_2 C2_3 1_555 1_555
O39 C2_3 1_555 1_555
O13_3 Dy2_5 1_555 1_555
O14_3 Dy2_5 1_555 1_555
O15_3 Dy7 1_555 1_555
N1_3 Dy4 1_555 1_555
N8 C11_3 1_555 1_555
C2_3 C20_3 1_555 1_555
C3_3 C4_3 1_555 1_555
C4_3 N1_3 1_555 1_555
C5_3 C4_3 1_555 1_555
H1_3 C5_3 1_555 1_555
C6_3 C5_3 1_555 1_555
C7_3 C6_3 1_555 1_555
H2_3 C7_3 1_555 1_555
C8_3 N1_3 1_555 1_555
C9_3 O3_3 1_555 1_555
C10_3 C11_3 1_555 1_555
C11_3 C12_3 1_555 1_555
C12_3 H3_3 1_555 1_555
C13_3 C6_3 1_555 1_555
C14_3 C13_3 1_555 1_555
H4_3 C14_3 1_555 1_555
C15_3 N8 1_555 1_555
C16_3 C15_3 1_555 1_555
N3_5 Dy2_5 1_555 1_555
N4_4 C20_3 1_555 1_555
C20_3 C21_3 1_555 1_555
C21_3 H6_3 1_555 1_555
C22_5 C19_5 1_555 1_555
Dy5_4 O11_2 1_555 1_555
O31_3 Dy2_5 1_555 1_555
O34 C23_3 1_555 1_555
O35_2 Dy4 1_555 1_555
O36_2 Dy4 1_555 1_555
C23_3 O31_3 1_555 1_555
C39_3 N3_5 1_555 1_555
C40_3 C19_5 1_555 1_555
H11_3 C40_3 1_555 1_555
N10_2 Dy4 1_555 1_555
C7_3 C8_3 1_555 1_555
C8_3 C9_3 1_555 1_555
C12_3 C13_3 1_555 1_555
C14_3 C15_3 1_555 1_555
N4_4 Dy5_4 1_555 1_555
C21_3 C22_5 1_555 1_555
C23_3 C39_3 1_555 1_555
C39_3 C40_3 1_555 1_555
O15_3 H19_3 1_555 1_555
O15_3 H20_3 1_555 1_555
O44_2 H21_2 1_555 1_555
O44_2 H22_2 1_555 1_555
Dy5_3 O18_2 1_555 1_555
Dy10_2 O19_4 1_555 1_555
O18_2 C25_4 1_555 1_555
O19_4 C25_4 1_555 1_555
O34_2 Dy10_2 1_555 1_555
O43_4 Dy10_2 1_555 1_555
C25_4 C26_4 1_555 1_555
O43_4 H27_4 1_555 1_555
O43_4 H28_4 1_555 1_555
O24_2 C10_4 1_555 1_555
O6_4 C10_4 1_555 1_555
O36_2 C2_4 1_555 1_555
O39_2 C2_4 1_555 1_555
N8_2 C11_4 1_555 1_555
C2_4 C20_4 1_555 1_555
C10_4 C11_4 1_555 1_555
C11_4 C12_4 1_555 1_555
C12_4 H3_4 1_555 1_555
N10_2 C20_4 1_555 1_555
C20_4 C21_4 1_555 1_555
C21_4 H6_4 1_555 1_555
O25_2 C32_4 1_555 1_555
O26_4 C32_4 1_555 1_555
C24_4 O35_2 1_555 1_555
C32_4 C33_4 1_555 1_555
C33_4 N9_2 1_555 1_555
C34_4 C33_4 1_555 1_555
H9_4 C34_4 1_555 1_555
C41_4 N10_2 1_555 1_555
C42_4 C22_6 1_555 1_555
H12_4 C42_4 1_555 1_555
C21_4 C22_6 1_555 1_555
O40_2 C24_4 1_555 1_555
C24_4 C41_4 1_555 1_555
C41_4 C42_4 1_555 1_555
Dy2_6 O4_4 1_555 1_555
O3_4 Dy5_3 1_555 1_555
O4_4 C9_4 1_555 1_555
O8_4 C16_4 1_555 1_555
O9_4 Dy2_6 1_555 1_555
O10_2 C1_4 1_555 1_555
O13_4 Dy2_6 1_555 1_555
O14_4 Dy2_6 1_555 1_555
N1_4 Dy5_3 1_555 1_555
C1_4 O9_4 1_555 1_555
C6_4 C5_4 1_555 1_555
C7_4 C6_4 1_555 1_555
H2_4 C7_4 1_555 1_555
C8_4 N1_4 1_555 1_555
C9_4 O3_4 1_555 1_555
C13_4 C6_4 1_555 1_555
C14_4 C13_4 1_555 1_555
H4_4 C14_4 1_555 1_555
C16_4 C15_4 1_555 1_555
N3_6 Dy2_6 1_555 1_555
C17_4 C1_4 1_555 1_555
C18_4 C17_4 1_555 1_555
H5_4 C18_4 1_555 1_555
C19_6 C18_4 1_555 1_555
Dy7_2 O10_2 1_555 1_555
O21_2 Dy5_4 1_555 1_555
O22_4 Dy2_6 1_555 1_555
O31_4 Dy2_6 1_555 1_555
O34_2 C23_4 1_555 1_555
O41_4 Dy2_6 1_555 1_555
O42_4 Dy2_6 1_555 1_555
N6_2 Dy5_4 1_555 1_555
C23_4 O31_4 1_555 1_555
C28_4 C27_4 1_555 1_555
C29_4 C28_4 1_555 1_555
H8_4 C29_4 1_555 1_555
C30_4 N6_2 1_555 1_555
C31_4 O21_2 1_555 1_555
C35_4 C28_4 1_555 1_555
C36_4 C35_4 1_555 1_555
H10_4 C36_4 1_555 1_555
C39_4 N3_6 1_555 1_555
C40_4 C19_6 1_555 1_555
H11_4 C40_4 1_555 1_555
C7_4 C8_4 1_555 1_555
C8_4 C9_4 1_555 1_555
C14_4 C15_4 1_555 1_555
N3_6 C17_4 1_555 1_555
O22_4 C31_4 1_555 1_555
C23_4 C39_4 1_555 1_555
C29_4 C30_4 1_555 1_555
C30_4 C31_4 1_555 1_555
C36_4 C37_4 1_555 1_555
C39_4 C40_4 1_555 1_555
Dy5_4 O1_4 1_555 1_555
Dy7_2 O2_4 1_555 1_555
O1_4 C3_4 1_555 1_555
O2_4 C3_4 1_555 1_555
O15_4 Dy7_2 1_555 1_555
O16_3 Dy7_2 1_555 1_555
C3_4 C4_4 1_555 1_555
O16_3 H13_3 1_555 1_555
O16_3 H14_3 1_555 1_555
O15_4 H19_4 1_555 1_555
O15_4 H20_4 1_555 1_555
O44_3 H21_3 1_555 1_555
O44_3 H22_3 1_555 1_555
O30_3 C38_3 1_555 1_555
O44_4 H21_4 1_555 1_555
O44_4 H22_4 1_555 1_555
O16_4 H13_4 1_555 1_555
O16_4 H14_4 1_555 1_555
O30_4 C38_4 1_555 1_555

#END
