
###############################################################################
#
# This file contains modified crystal structure data generated from the
# MOF subset of the Cambridge Structural Database (CSD) v543 
# hosted by the Cambridge Crystallographic Data Centre (CCDC).
#
# This work is licensed under the Creative Commons
# Attribution-NonCommercial-ShareAlike 4.0 International License.
# To view a copy of this license, visit
# http://creativecommons.org/licenses/by-nc-sa/4.0/
# or send a letter to
# Creative Commons, PO Box 1866, Mountain View, CA 94042, USA.
#
# CIF created using the CSD Python API on 29 September 2022
# The structure has been converted into the P1 space group
# The structure has a 3D framework
# The original CSD entry COZLIP is in the cubic crystal system
# The framework has been calculated to contain at least 10.0% void space
# The void calculation uses a probe of radius 1.32A, grid spacing 0.4
#
###############################################################################

data_COZLIP
_chemical_formula_moiety         '(C120 H72 N48 Zn12)n'
_symmetry_cell_setting           triclinic
_symmetry_space_group_name_H-M   'P 1'
_symmetry_Int_Tables_number      1
_space_group_name_Hall           'P 1'
loop_
_symmetry_equiv_pos_site_id
_symmetry_equiv_pos_as_xyz
1 x,y,z
_cell_length_a                   17.0454(11)
_cell_length_b                   17.0454(11)
_cell_length_c                   17.0454(11)
_cell_angle_alpha                90
_cell_angle_beta                 90
_cell_angle_gamma                90
_cell_volume                     4952.47
loop_
_atom_site_label
_atom_site_type_symbol
_atom_site_fract_x
_atom_site_fract_y
_atom_site_fract_z
_atom_site_U_iso_or_equiv
_atom_site_thermal_displace_type
Zn1 Zn 0.750 -0.000 0.500 0.0241 Uiso
N1 N 0.68272(18) 0.0308(6) 0.58932(18) 0.0418 Uiso
C1 C 0.6857(3) 0.1010(6) 0.6282(3) 0.0418 Uiso
H2 H 0.7239(4) 0.1396(6) 0.6154(4) 0.0494 Uiso
N2 N 0.58932(18) 0.0308(6) 0.68272(18) 0.0418 Uiso
C5 C 0.6282(3) 0.1010(6) 0.6857(3) 0.0418 Uiso
H3 H 0.6154(4) 0.1396(6) 0.7239(4) 0.0494 Uiso
C7 C 0.62379(14) 0.0103(6) 0.37621(14) 0.0418 Uiso
C8 C 0.6010(3) 0.0868(6) 0.3990(3) 0.0418 Uiso
C9 C 0.5814(4) 0.1526(6) 0.4186(4) 0.0418 Uiso
H4 H 0.5653(6) 0.2064(7) 0.4347(6) 0.0494 Uiso
Zn2 Zn 0.500 0.000 0.750 0.0241 Uiso
Zn3 Zn 0.500 -0.000 0.250 0.0241 Uiso
N6 N 0.81728(18) 0.08932(18) 0.4692(6) 0.0418 Uiso
Zn1_2 Zn 0.750 1.000 0.500 0.0241 Uiso
C2 C 0.62379(14) 0.9897(6) 0.62379(14) 0.0418 Uiso
C3 C 0.6010(3) 0.9132(6) 0.6010(3) 0.0418 Uiso
C4 C 0.5814(4) 0.8474(6) 0.5814(4) 0.0418 Uiso
H1 H 0.5653(6) 0.7936(7) 0.5653(6) 0.0494 Uiso
N3 N 0.68272(18) 0.9692(6) 0.41068(18) 0.0418 Uiso
C6 C 0.6857(3) 0.8990(6) 0.3718(3) 0.0418 Uiso
H5 H 0.7239(4) 0.8604(6) 0.3846(4) 0.0494 Uiso
N4 N 0.58932(18) 0.9692(6) 0.31728(18) 0.0418 Uiso
C10 C 0.6282(3) 0.8990(6) 0.3143(3) 0.0418 Uiso
H6 H 0.6154(4) 0.8604(6) 0.2761(4) 0.0494 Uiso
Zn2_2 Zn 0.500 1.000 0.750 0.0241 Uiso
Zn3_2 Zn 0.500 1.000 0.250 0.0241 Uiso
N5 N 0.81728(18) 0.91068(18) 0.5308(6) 0.0418 Uiso
Zn1_3 Zn 0.250 0.500 -0.000 0.0241 Uiso
N1_2 N 0.31728(18) 0.41068(18) 0.0308(6) 0.0418 Uiso
C1_2 C 0.3143(3) 0.3718(3) 0.1010(6) 0.0418 Uiso
H2_2 H 0.2761(4) 0.3846(4) 0.1396(6) 0.0494 Uiso
N2_2 N 0.41068(18) 0.31728(18) 0.0308(6) 0.0418 Uiso
C5_2 C 0.3718(3) 0.3143(3) 0.1010(6) 0.0418 Uiso
H3_2 H 0.3846(4) 0.2761(4) 0.1396(6) 0.0494 Uiso
C7_2 C 0.37621(14) 0.62379(14) 0.0103(6) 0.0418 Uiso
C8_2 C 0.3990(3) 0.6010(3) 0.0868(6) 0.0418 Uiso
C9_2 C 0.4186(4) 0.5814(4) 0.1526(6) 0.0418 Uiso
H4_2 H 0.4347(6) 0.5653(6) 0.2064(7) 0.0494 Uiso
Zn2_3 Zn 0.500 0.250 0.000 0.0241 Uiso
Zn3_3 Zn 0.500 0.750 -0.000 0.0241 Uiso
N6_2 N 0.18272(18) 0.5308(6) 0.08932(18) 0.0418 Uiso
Zn1_4 Zn 0.250 0.500 1.000 0.0241 Uiso
C2_2 C 0.37621(14) 0.37621(14) 0.9897(6) 0.0418 Uiso
C3_2 C 0.3990(3) 0.3990(3) 0.9132(6) 0.0418 Uiso
C4_2 C 0.4186(4) 0.4186(4) 0.8474(6) 0.0418 Uiso
H1_2 H 0.4347(6) 0.4347(6) 0.7936(7) 0.0494 Uiso
N3_2 N 0.31728(18) 0.58932(18) 0.9692(6) 0.0418 Uiso
C6_2 C 0.3143(3) 0.6282(3) 0.8990(6) 0.0418 Uiso
H5_2 H 0.2761(4) 0.6154(4) 0.8604(6) 0.0494 Uiso
N4_2 N 0.41068(18) 0.68272(18) 0.9692(6) 0.0418 Uiso
C10_2 C 0.3718(3) 0.6857(3) 0.8990(6) 0.0418 Uiso
H6_2 H 0.3846(4) 0.7239(4) 0.8604(6) 0.0494 Uiso
Zn2_4 Zn 0.500 0.250 1.000 0.0241 Uiso
Zn3_4 Zn 0.500 0.750 1.000 0.0241 Uiso
N5_2 N 0.18272(18) 0.4692(6) 0.91068(18) 0.0418 Uiso
Zn1_5 Zn 0.250 -0.000 0.500 0.0241 Uiso
N1_3 N 0.31728(18) 0.0308(6) 0.41068(18) 0.0418 Uiso
C1_3 C 0.3143(3) 0.1010(6) 0.3718(3) 0.0418 Uiso
H2_3 H 0.2761(4) 0.1396(6) 0.3846(4) 0.0494 Uiso
N2_3 N 0.41068(18) 0.0308(6) 0.31728(18) 0.0418 Uiso
C5_3 C 0.3718(3) 0.1010(6) 0.3143(3) 0.0418 Uiso
H3_3 H 0.3846(4) 0.1396(6) 0.2761(4) 0.0494 Uiso
C7_3 C 0.37621(14) 0.0103(6) 0.62379(14) 0.0418 Uiso
C8_3 C 0.3990(3) 0.0868(6) 0.6010(3) 0.0418 Uiso
C9_3 C 0.4186(4) 0.1526(6) 0.5814(4) 0.0418 Uiso
H4_3 H 0.4347(6) 0.2064(7) 0.5653(6) 0.0494 Uiso
N6_3 N 0.18272(18) 0.08932(18) 0.5308(6) 0.0418 Uiso
Zn1_6 Zn 0.250 1.000 0.500 0.0241 Uiso
C2_3 C 0.37621(14) 0.9897(6) 0.37621(14) 0.0418 Uiso
C3_3 C 0.3990(3) 0.9132(6) 0.3990(3) 0.0418 Uiso
C4_3 C 0.4186(4) 0.8474(6) 0.4186(4) 0.0418 Uiso
H1_3 H 0.4347(6) 0.7936(7) 0.4347(6) 0.0494 Uiso
N3_3 N 0.31728(18) 0.9692(6) 0.58932(18) 0.0418 Uiso
C6_3 C 0.3143(3) 0.8990(6) 0.6282(3) 0.0418 Uiso
H5_3 H 0.2761(4) 0.8604(6) 0.6154(4) 0.0494 Uiso
N4_3 N 0.41068(18) 0.9692(6) 0.68272(18) 0.0418 Uiso
C10_3 C 0.3718(3) 0.8990(6) 0.6857(3) 0.0418 Uiso
H6_3 H 0.3846(4) 0.8604(6) 0.7239(4) 0.0494 Uiso
N5_3 N 0.18272(18) 0.91068(18) 0.4692(6) 0.0418 Uiso
Zn1_7 Zn -0.000 0.250 0.500 0.0241 Uiso
C2_4 C 0.0103(6) 0.37621(14) 0.62379(14) 0.0418 Uiso
C3_4 C 0.0868(6) 0.3990(3) 0.6010(3) 0.0418 Uiso
C4_4 C 0.1526(6) 0.4186(4) 0.5814(4) 0.0418 Uiso
H1_4 H 0.2064(7) 0.4347(6) 0.5653(6) 0.0494 Uiso
N3_4 N 0.0308(6) 0.31728(18) 0.41068(18) 0.0418 Uiso
C6_4 C 0.1010(6) 0.3143(3) 0.3718(3) 0.0418 Uiso
H5_4 H 0.1396(6) 0.2761(4) 0.3846(4) 0.0494 Uiso
N4_4 N 0.0308(6) 0.41068(18) 0.31728(18) 0.0418 Uiso
C10_4 C 0.1010(6) 0.3718(3) 0.3143(3) 0.0418 Uiso
H6_4 H 0.1396(6) 0.3846(4) 0.2761(4) 0.0494 Uiso
Zn2_5 Zn -0.000 0.500 0.750 0.0241 Uiso
Zn3_5 Zn -0.000 0.500 0.250 0.0241 Uiso
N5_4 N 0.08932(18) 0.18272(18) 0.5308(6) 0.0418 Uiso
Zn1_8 Zn 1.000 0.250 0.500 0.0241 Uiso
N1_4 N 0.9692(6) 0.31728(18) 0.58932(18) 0.0418 Uiso
C1_4 C 0.8990(6) 0.3143(3) 0.6282(3) 0.0418 Uiso
H2_4 H 0.8604(6) 0.2761(4) 0.6154(4) 0.0494 Uiso
N2_4 N 0.9692(6) 0.41068(18) 0.68272(18) 0.0418 Uiso
C5_4 C 0.8990(6) 0.3718(3) 0.6857(3) 0.0418 Uiso
H3_4 H 0.8604(6) 0.3846(4) 0.7239(4) 0.0494 Uiso
C7_4 C 0.9897(6) 0.37621(14) 0.37621(14) 0.0418 Uiso
C8_4 C 0.9132(6) 0.3990(3) 0.3990(3) 0.0418 Uiso
C9_4 C 0.8474(6) 0.4186(4) 0.4186(4) 0.0418 Uiso
H4_4 H 0.7936(7) 0.4347(6) 0.4347(6) 0.0494 Uiso
Zn2_6 Zn 1.000 0.500 0.750 0.0241 Uiso
Zn3_6 Zn 1.000 0.500 0.250 0.0241 Uiso
N6_4 N 0.91068(18) 0.18272(18) 0.4692(6) 0.0418 Uiso
N3_5 N 0.0308(6) 0.58932(18) 0.68272(18) 0.0418 Uiso
C6_5 C 0.1010(6) 0.6282(3) 0.6857(3) 0.0418 Uiso
H5_5 H 0.1396(6) 0.6154(4) 0.7239(4) 0.0494 Uiso
N4_5 N 0.0308(6) 0.68272(18) 0.58932(18) 0.0418 Uiso
C10_5 C 0.1010(6) 0.6857(3) 0.6282(3) 0.0418 Uiso
H6_5 H 0.1396(6) 0.7239(4) 0.6154(4) 0.0494 Uiso
Zn3_7 Zn 0.000 0.750 0.500 0.0241 Uiso
N5_5 N 0.08932(18) 0.4692(6) 0.81728(18) 0.0418 Uiso
C7_5 C 0.9897(6) 0.62379(14) 0.62379(14) 0.0418 Uiso
C8_5 C 0.9132(6) 0.6010(3) 0.6010(3) 0.0418 Uiso
C9_5 C 0.8474(6) 0.5814(4) 0.5814(4) 0.0418 Uiso
H4_5 H 0.7936(7) 0.5653(6) 0.5653(6) 0.0494 Uiso
Zn3_8 Zn 1.000 0.750 0.500 0.0241 Uiso
N6_5 N 0.91068(18) 0.5308(6) 0.81728(18) 0.0418 Uiso
C2_5 C 0.0103(6) 0.62379(14) 0.37621(14) 0.0418 Uiso
C3_5 C 0.0868(6) 0.6010(3) 0.3990(3) 0.0418 Uiso
C4_5 C 0.1526(6) 0.5814(4) 0.4186(4) 0.0418 Uiso
H1_5 H 0.2064(7) 0.5653(6) 0.4347(6) 0.0494 Uiso
N5_6 N 0.08932(18) 0.5308(6) 0.18272(18) 0.0418 Uiso
N1_5 N 0.9692(6) 0.58932(18) 0.31728(18) 0.0418 Uiso
C1_5 C 0.8990(6) 0.6282(3) 0.3143(3) 0.0418 Uiso
H2_5 H 0.8604(6) 0.6154(4) 0.2761(4) 0.0494 Uiso
N2_5 N 0.9692(6) 0.68272(18) 0.41068(18) 0.0418 Uiso
C5_5 C 0.8990(6) 0.6857(3) 0.3718(3) 0.0418 Uiso
H3_5 H 0.8604(6) 0.7239(4) 0.3846(4) 0.0494 Uiso
N6_6 N 0.91068(18) 0.4692(6) 0.18272(18) 0.0418 Uiso
N5_7 N 0.08932(18) 0.81728(18) 0.4692(6) 0.0418 Uiso
N6_7 N 0.91068(18) 0.81728(18) 0.5308(6) 0.0418 Uiso
C7_6 C 0.62379(14) 0.37621(14) 0.0103(6) 0.0418 Uiso
C8_6 C 0.6010(3) 0.3990(3) 0.0868(6) 0.0418 Uiso
C9_6 C 0.5814(4) 0.4186(4) 0.1526(6) 0.0418 Uiso
H4_6 H 0.5653(6) 0.4347(6) 0.2064(7) 0.0494 Uiso
Zn3_9 Zn 0.750 0.500 -0.000 0.0241 Uiso
N6_8 N 0.5308(6) 0.18272(18) 0.08932(18) 0.0418 Uiso
N3_6 N 0.58932(18) 0.31728(18) 0.9692(6) 0.0418 Uiso
C6_6 C 0.6282(3) 0.3143(3) 0.8990(6) 0.0418 Uiso
H5_6 H 0.6154(4) 0.2761(4) 0.8604(6) 0.0494 Uiso
N4_6 N 0.68272(18) 0.41068(18) 0.9692(6) 0.0418 Uiso
C10_6 C 0.6857(3) 0.3718(3) 0.8990(6) 0.0418 Uiso
H6_6 H 0.7239(4) 0.3846(4) 0.8604(6) 0.0494 Uiso
Zn3_10 Zn 0.750 0.500 1.000 0.0241 Uiso
N5_8 N 0.4692(6) 0.18272(18) 0.91068(18) 0.0418 Uiso
N5_9 N 0.4692(6) 0.08932(18) 0.81728(18) 0.0418 Uiso
N6_9 N 0.5308(6) 0.91068(18) 0.81728(18) 0.0418 Uiso
N6_10 N 0.5308(6) 0.08932(18) 0.18272(18) 0.0418 Uiso
N5_10 N 0.4692(6) 0.91068(18) 0.18272(18) 0.0418 Uiso
N3_7 N 0.58932(18) 0.68272(18) 0.0308(6) 0.0418 Uiso
C6_7 C 0.6282(3) 0.6857(3) 0.1010(6) 0.0418 Uiso
H5_7 H 0.6154(4) 0.7239(4) 0.1396(6) 0.0494 Uiso
N4_7 N 0.68272(18) 0.58932(18) 0.0308(6) 0.0418 Uiso
C10_7 C 0.6857(3) 0.6282(3) 0.1010(6) 0.0418 Uiso
H6_7 H 0.7239(4) 0.6154(4) 0.1396(6) 0.0494 Uiso
N5_11 N 0.4692(6) 0.81728(18) 0.08932(18) 0.0418 Uiso
C7_7 C 0.62379(14) 0.62379(14) 0.9897(6) 0.0418 Uiso
C8_7 C 0.6010(3) 0.6010(3) 0.9132(6) 0.0418 Uiso
C9_7 C 0.5814(4) 0.5814(4) 0.8474(6) 0.0418 Uiso
H4_7 H 0.5653(6) 0.5653(6) 0.7936(7) 0.0494 Uiso
N6_11 N 0.5308(6) 0.81728(18) 0.91068(18) 0.0418 Uiso
N5_12 N 0.81728(18) 0.4692(6) 0.08932(18) 0.0418 Uiso
N6_12 N 0.81728(18) 0.5308(6) 0.91068(18) 0.0418 Uiso
C1_6 C 0.1857(3) 0.6010(6) 0.1282(3) 0.0418 Uiso
C2_6 C 0.12379(14) 0.4897(6) 0.12379(14) 0.0418 Uiso
C3_6 C 0.1010(3) 0.4132(6) 0.1010(3) 0.0418 Uiso
C4_6 C 0.0814(4) 0.3474(6) 0.0814(4) 0.0418 Uiso
H1_6 H 0.0653(6) 0.2936(7) 0.0653(6) 0.0494 Uiso
H2_6 H 0.2239(4) 0.6396(6) 0.1154(4) 0.0494 Uiso
C5_6 C 0.1282(3) 0.6010(6) 0.1857(3) 0.0418 Uiso
H3_6 H 0.1154(4) 0.6396(6) 0.2239(4) 0.0494 Uiso
C6_8 C 0.1857(3) 0.3990(6) 0.8718(3) 0.0418 Uiso
C7_8 C 0.12379(14) 0.5103(6) 0.87621(14) 0.0418 Uiso
C8_8 C 0.1010(3) 0.5868(6) 0.8990(3) 0.0418 Uiso
C9_8 C 0.0814(4) 0.6526(6) 0.9186(4) 0.0418 Uiso
H4_8 H 0.0653(6) 0.7064(7) 0.9347(6) 0.0494 Uiso
H5_8 H 0.2239(4) 0.3604(6) 0.8846(4) 0.0494 Uiso
C10_8 C 0.1282(3) 0.3990(6) 0.8143(3) 0.0418 Uiso
H6_8 H 0.1154(4) 0.3604(6) 0.7761(4) 0.0494 Uiso
C6_9 C 0.8143(3) 0.1282(3) 0.3990(6) 0.0418 Uiso
C7_9 C 0.87621(14) 0.12379(14) 0.5103(6) 0.0418 Uiso
C8_9 C 0.8990(3) 0.1010(3) 0.5868(6) 0.0418 Uiso
C9_9 C 0.9186(4) 0.0814(4) 0.6526(6) 0.0418 Uiso
H4_9 H 0.9347(6) 0.0653(6) 0.7064(7) 0.0494 Uiso
H5_9 H 0.7761(4) 0.1154(4) 0.3604(6) 0.0494 Uiso
C10_9 C 0.8718(3) 0.1857(3) 0.3990(6) 0.0418 Uiso
H6_9 H 0.8846(4) 0.2239(4) 0.3604(6) 0.0494 Uiso
C1_7 C 0.8143(3) 0.8718(3) 0.6010(6) 0.0418 Uiso
C2_7 C 0.87621(14) 0.87621(14) 0.4897(6) 0.0418 Uiso
C3_7 C 0.8990(3) 0.8990(3) 0.4132(6) 0.0418 Uiso
C4_7 C 0.9186(4) 0.9186(4) 0.3474(6) 0.0418 Uiso
H1_7 H 0.9347(6) 0.9347(6) 0.2936(7) 0.0494 Uiso
H2_7 H 0.7761(4) 0.8846(4) 0.6396(6) 0.0494 Uiso
C5_7 C 0.8718(3) 0.8143(3) 0.6010(6) 0.0418 Uiso
H3_7 H 0.8846(4) 0.7761(4) 0.6396(6) 0.0494 Uiso
C6_10 C 0.8143(3) 0.3990(6) 0.1282(3) 0.0418 Uiso
C7_10 C 0.87621(14) 0.5103(6) 0.12379(14) 0.0418 Uiso
C8_10 C 0.8990(3) 0.5868(6) 0.1010(3) 0.0418 Uiso
C9_10 C 0.9186(4) 0.6526(6) 0.0814(4) 0.0418 Uiso
H4_10 H 0.9347(6) 0.7064(7) 0.0653(6) 0.0494 Uiso
H5_10 H 0.7761(4) 0.3604(6) 0.1154(4) 0.0494 Uiso
C10_10 C 0.8718(3) 0.3990(6) 0.1857(3) 0.0418 Uiso
H6_10 H 0.8846(4) 0.3604(6) 0.2239(4) 0.0494 Uiso
C1_8 C 0.8143(3) 0.6010(6) 0.8718(3) 0.0418 Uiso
C2_8 C 0.87621(14) 0.4897(6) 0.87621(14) 0.0418 Uiso
C3_8 C 0.8990(3) 0.4132(6) 0.8990(3) 0.0418 Uiso
C4_8 C 0.9186(4) 0.3474(6) 0.9186(4) 0.0418 Uiso
H1_8 H 0.9347(6) 0.2936(7) 0.9347(6) 0.0494 Uiso
H2_8 H 0.7761(4) 0.6396(6) 0.8846(4) 0.0494 Uiso
C5_8 C 0.8718(3) 0.6010(6) 0.8143(3) 0.0418 Uiso
H3_8 H 0.8846(4) 0.6396(6) 0.7761(4) 0.0494 Uiso
C1_9 C 0.3990(6) 0.8143(3) 0.1282(3) 0.0418 Uiso
C2_9 C 0.5103(6) 0.87621(14) 0.12379(14) 0.0418 Uiso
C3_9 C 0.5868(6) 0.8990(3) 0.1010(3) 0.0418 Uiso
C4_9 C 0.6526(6) 0.9186(4) 0.0814(4) 0.0418 Uiso
H1_9 H 0.7064(7) 0.9347(6) 0.0653(6) 0.0494 Uiso
H2_9 H 0.3604(6) 0.7761(4) 0.1154(4) 0.0494 Uiso
C5_9 C 0.3990(6) 0.8718(3) 0.1857(3) 0.0418 Uiso
H3_9 H 0.3604(6) 0.8846(4) 0.2239(4) 0.0494 Uiso
C6_11 C 0.6010(6) 0.8143(3) 0.8718(3) 0.0418 Uiso
C7_11 C 0.4897(6) 0.87621(14) 0.87621(14) 0.0418 Uiso
C8_11 C 0.4132(6) 0.8990(3) 0.8990(3) 0.0418 Uiso
C9_11 C 0.3474(6) 0.9186(4) 0.9186(4) 0.0418 Uiso
H4_11 H 0.2936(7) 0.9347(6) 0.9347(6) 0.0494 Uiso
H5_11 H 0.6396(6) 0.7761(4) 0.8846(4) 0.0494 Uiso
C10_11 C 0.6010(6) 0.8718(3) 0.8143(3) 0.0418 Uiso
H6_11 H 0.6396(6) 0.8846(4) 0.7761(4) 0.0494 Uiso
C6_12 C 0.6010(6) 0.1282(3) 0.1857(3) 0.0418 Uiso
C7_12 C 0.4897(6) 0.12379(14) 0.12379(14) 0.0418 Uiso
C8_12 C 0.4132(6) 0.1010(3) 0.1010(3) 0.0418 Uiso
C9_12 C 0.3474(6) 0.0814(4) 0.0814(4) 0.0418 Uiso
H4_12 H 0.2936(7) 0.0653(6) 0.0653(6) 0.0494 Uiso
H5_12 H 0.6396(6) 0.1154(4) 0.2239(4) 0.0494 Uiso
C10_12 C 0.6010(6) 0.1857(3) 0.1282(3) 0.0418 Uiso
H6_12 H 0.6396(6) 0.2239(4) 0.1154(4) 0.0494 Uiso
C1_10 C 0.3990(6) 0.1282(3) 0.8143(3) 0.0418 Uiso
C2_10 C 0.5103(6) 0.12379(14) 0.87621(14) 0.0418 Uiso
C3_10 C 0.5868(6) 0.1010(3) 0.8990(3) 0.0418 Uiso
C4_10 C 0.6526(6) 0.0814(4) 0.9186(4) 0.0418 Uiso
H1_10 H 0.7064(7) 0.0653(6) 0.9347(6) 0.0494 Uiso
H2_10 H 0.3604(6) 0.1154(4) 0.7761(4) 0.0494 Uiso
C5_10 C 0.3990(6) 0.1857(3) 0.8718(3) 0.0418 Uiso
H3_10 H 0.3604(6) 0.2239(4) 0.8846(4) 0.0494 Uiso
C6_13 C 0.1282(3) 0.8143(3) 0.3990(6) 0.0418 Uiso
C7_13 C 0.12379(14) 0.87621(14) 0.5103(6) 0.0418 Uiso
C8_13 C 0.1010(3) 0.8990(3) 0.5868(6) 0.0418 Uiso
C9_13 C 0.0814(4) 0.9186(4) 0.6526(6) 0.0418 Uiso
H4_13 H 0.0653(6) 0.9347(6) 0.7064(7) 0.0494 Uiso
H5_13 H 0.1154(4) 0.7761(4) 0.3604(6) 0.0494 Uiso
C10_13 C 0.1857(3) 0.8718(3) 0.3990(6) 0.0418 Uiso
H6_13 H 0.2239(4) 0.8846(4) 0.3604(6) 0.0494 Uiso
C6_14 C 0.1282(3) 0.1857(3) 0.6010(6) 0.0418 Uiso
C7_14 C 0.12379(14) 0.12379(14) 0.4897(6) 0.0418 Uiso
C8_14 C 0.1010(3) 0.1010(3) 0.4132(6) 0.0418 Uiso
C9_14 C 0.0814(4) 0.0814(4) 0.3474(6) 0.0418 Uiso
H4_14 H 0.0653(6) 0.0653(6) 0.2936(7) 0.0494 Uiso
H5_14 H 0.1154(4) 0.2239(4) 0.6396(6) 0.0494 Uiso
C10_14 C 0.1857(3) 0.1282(3) 0.6010(6) 0.0418 Uiso
H6_14 H 0.2239(4) 0.1154(4) 0.6396(6) 0.0494 Uiso
loop_
_geom_bond_atom_site_label_1
_geom_bond_atom_site_label_2
_geom_bond_site_symmetry_1
_geom_bond_site_symmetry_2
Zn1 N1 1_555 1_555
N1 C1 1_555 1_555
C1 H2 1_555 1_555
C5 C1 1_555 1_555
H3 C5 1_555 1_555
C8 C7 1_555 1_555
C9 C8 1_555 1_555
H4 C9 1_555 1_555
Zn2 N2 1_555 1_555
N6 Zn1 1_555 1_555
N2 C5 1_555 1_555
C3 C2 1_555 1_555
C4 C3 1_555 1_555
H1 C4 1_555 1_555
N3 Zn1_2 1_555 1_555
C6 N3 1_555 1_555
H5 C6 1_555 1_555
C10 C6 1_555 1_555
H6 C10 1_555 1_555
Zn3_2 N4 1_555 1_555
N5 Zn1_2 1_555 1_555
N4 C10 1_555 1_555
Zn1_3 N1_2 1_555 1_555
N1_2 C1_2 1_555 1_555
C1_2 H2_2 1_555 1_555
C5_2 C1_2 1_555 1_555
H3_2 C5_2 1_555 1_555
C8_2 C7_2 1_555 1_555
C9_2 C8_2 1_555 1_555
H4_2 C9_2 1_555 1_555
Zn2_3 N2_2 1_555 1_555
N6_2 Zn1_3 1_555 1_555
N2_2 C5_2 1_555 1_555
C3_2 C2_2 1_555 1_555
C4_2 C3_2 1_555 1_555
H1_2 C4_2 1_555 1_555
N3_2 Zn1_4 1_555 1_555
C6_2 N3_2 1_555 1_555
H5_2 C6_2 1_555 1_555
C10_2 C6_2 1_555 1_555
H6_2 C10_2 1_555 1_555
Zn3_4 N4_2 1_555 1_555
N5_2 Zn1_4 1_555 1_555
N4_2 C10_2 1_555 1_555
Zn1_5 N1_3 1_555 1_555
N1_3 C1_3 1_555 1_555
C1_3 H2_3 1_555 1_555
C5_3 C1_3 1_555 1_555
H3_3 C5_3 1_555 1_555
C8_3 C7_3 1_555 1_555
C9_3 C8_3 1_555 1_555
H4_3 C9_3 1_555 1_555
Zn3 N2_3 1_555 1_555
N6_3 Zn1_5 1_555 1_555
N2_3 C5_3 1_555 1_555
C3_3 C2_3 1_555 1_555
C4_3 C3_3 1_555 1_555
H1_3 C4_3 1_555 1_555
N3_3 Zn1_6 1_555 1_555
C6_3 N3_3 1_555 1_555
H5_3 C6_3 1_555 1_555
C10_3 C6_3 1_555 1_555
H6_3 C10_3 1_555 1_555
Zn2_2 N4_3 1_555 1_555
N5_3 Zn1_6 1_555 1_555
N4_3 C10_3 1_555 1_555
C3_4 C2_4 1_555 1_555
C4_4 C3_4 1_555 1_555
H1_4 C4_4 1_555 1_555
N3_4 Zn1_7 1_555 1_555
C6_4 N3_4 1_555 1_555
H5_4 C6_4 1_555 1_555
C10_4 C6_4 1_555 1_555
H6_4 C10_4 1_555 1_555
Zn3_5 N4_4 1_555 1_555
N5_4 Zn1_7 1_555 1_555
N4_4 C10_4 1_555 1_555
Zn1_8 N1_4 1_555 1_555
N1_4 C1_4 1_555 1_555
C1_4 H2_4 1_555 1_555
C5_4 C1_4 1_555 1_555
H3_4 C5_4 1_555 1_555
C8_4 C7_4 1_555 1_555
C9_4 C8_4 1_555 1_555
H4_4 C9_4 1_555 1_555
Zn2_6 N2_4 1_555 1_555
N6_4 Zn1_8 1_555 1_555
N2_4 C5_4 1_555 1_555
N3_5 Zn2_5 1_555 1_555
C6_5 N3_5 1_555 1_555
H5_5 C6_5 1_555 1_555
C10_5 C6_5 1_555 1_555
H6_5 C10_5 1_555 1_555
Zn3_7 N4_5 1_555 1_555
N5_5 Zn2_5 1_555 1_555
N4_5 C10_5 1_555 1_555
C8_5 C7_5 1_555 1_555
C9_5 C8_5 1_555 1_555
H4_5 C9_5 1_555 1_555
N6_5 Zn2_6 1_555 1_555
C3_5 C2_5 1_555 1_555
C4_5 C3_5 1_555 1_555
H1_5 C4_5 1_555 1_555
N5_6 Zn3_5 1_555 1_555
Zn3_6 N1_5 1_555 1_555
N1_5 C1_5 1_555 1_555
C1_5 H2_5 1_555 1_555
C5_5 C1_5 1_555 1_555
H3_5 C5_5 1_555 1_555
Zn3_8 N2_5 1_555 1_555
N6_6 Zn3_6 1_555 1_555
N2_5 C5_5 1_555 1_555
N5_7 Zn3_7 1_555 1_555
N6_7 Zn3_8 1_555 1_555
C8_6 C7_6 1_555 1_555
C9_6 C8_6 1_555 1_555
H4_6 C9_6 1_555 1_555
N6_8 Zn2_3 1_555 1_555
N3_6 Zn2_4 1_555 1_555
C6_6 N3_6 1_555 1_555
H5_6 C6_6 1_555 1_555
C10_6 C6_6 1_555 1_555
H6_6 C10_6 1_555 1_555
Zn3_10 N4_6 1_555 1_555
N5_8 Zn2_4 1_555 1_555
N4_6 C10_6 1_555 1_555
N5_9 Zn2 1_555 1_555
N6_9 Zn2_2 1_555 1_555
N6_10 Zn3 1_555 1_555
N5_10 Zn3_2 1_555 1_555
N3_7 Zn3_3 1_555 1_555
C6_7 N3_7 1_555 1_555
H5_7 C6_7 1_555 1_555
C10_7 C6_7 1_555 1_555
H6_7 C10_7 1_555 1_555
Zn3_9 N4_7 1_555 1_555
N5_11 Zn3_3 1_555 1_555
N4_7 C10_7 1_555 1_555
C8_7 C7_7 1_555 1_555
C9_7 C8_7 1_555 1_555
H4_7 C9_7 1_555 1_555
N6_11 Zn3_4 1_555 1_555
N5_12 Zn3_9 1_555 1_555
N6_12 Zn3_10 1_555 1_555
N6_2 C1_6 1_555 1_555
C1_6 H2_6 1_555 1_555
C2_6 N6_2 1_555 1_555
C3_6 C2_6 1_555 1_555
C4_6 C3_6 1_555 1_555
H1_6 C4_6 1_555 1_555
N5_6 C2_6 1_555 1_555
C5_6 C1_6 1_555 1_555
H3_6 C5_6 1_555 1_555
N5_6 C5_6 1_555 1_555
C6_8 N5_2 1_555 1_555
C7_8 N5_2 1_555 1_555
C8_8 C7_8 1_555 1_555
C9_8 C8_8 1_555 1_555
H4_8 C9_8 1_555 1_555
H5_8 C6_8 1_555 1_555
N5_5 C7_8 1_555 1_555
C10_8 C6_8 1_555 1_555
H6_8 C10_8 1_555 1_555
N5_5 C10_8 1_555 1_555
C6_9 N6 1_555 1_555
C7_9 N6 1_555 1_555
C8_9 C7_9 1_555 1_555
C9_9 C8_9 1_555 1_555
H4_9 C9_9 1_555 1_555
H5_9 C6_9 1_555 1_555
N6_4 C7_9 1_555 1_555
C10_9 C6_9 1_555 1_555
H6_9 C10_9 1_555 1_555
N6_4 C10_9 1_555 1_555
N5 C1_7 1_555 1_555
C1_7 H2_7 1_555 1_555
C2_7 N5 1_555 1_555
C3_7 C2_7 1_555 1_555
C4_7 C3_7 1_555 1_555
H1_7 C4_7 1_555 1_555
N6_7 C2_7 1_555 1_555
C5_7 C1_7 1_555 1_555
H3_7 C5_7 1_555 1_555
N6_7 C5_7 1_555 1_555
C6_10 N5_12 1_555 1_555
C7_10 N5_12 1_555 1_555
C8_10 C7_10 1_555 1_555
C9_10 C8_10 1_555 1_555
H4_10 C9_10 1_555 1_555
H5_10 C6_10 1_555 1_555
N6_6 C7_10 1_555 1_555
C10_10 C6_10 1_555 1_555
H6_10 C10_10 1_555 1_555
N6_6 C10_10 1_555 1_555
N6_12 C1_8 1_555 1_555
C1_8 H2_8 1_555 1_555
C2_8 N6_12 1_555 1_555
C3_8 C2_8 1_555 1_555
C4_8 C3_8 1_555 1_555
H1_8 C4_8 1_555 1_555
N6_5 C2_8 1_555 1_555
C5_8 C1_8 1_555 1_555
H3_8 C5_8 1_555 1_555
N6_5 C5_8 1_555 1_555
N5_11 C1_9 1_555 1_555
C1_9 H2_9 1_555 1_555
C2_9 N5_11 1_555 1_555
C3_9 C2_9 1_555 1_555
C4_9 C3_9 1_555 1_555
H1_9 C4_9 1_555 1_555
N5_10 C2_9 1_555 1_555
C5_9 C1_9 1_555 1_555
H3_9 C5_9 1_555 1_555
N5_10 C5_9 1_555 1_555
C6_11 N6_11 1_555 1_555
C7_11 N6_11 1_555 1_555
C8_11 C7_11 1_555 1_555
C9_11 C8_11 1_555 1_555
H4_11 C9_11 1_555 1_555
H5_11 C6_11 1_555 1_555
N6_9 C7_11 1_555 1_555
C10_11 C6_11 1_555 1_555
H6_11 C10_11 1_555 1_555
N6_9 C10_11 1_555 1_555
C6_12 N6_10 1_555 1_555
C7_12 N6_10 1_555 1_555
C8_12 C7_12 1_555 1_555
C9_12 C8_12 1_555 1_555
H4_12 C9_12 1_555 1_555
H5_12 C6_12 1_555 1_555
N6_8 C7_12 1_555 1_555
C10_12 C6_12 1_555 1_555
H6_12 C10_12 1_555 1_555
N6_8 C10_12 1_555 1_555
N5_9 C1_10 1_555 1_555
C1_10 H2_10 1_555 1_555
C2_10 N5_9 1_555 1_555
C3_10 C2_10 1_555 1_555
C4_10 C3_10 1_555 1_555
H1_10 C4_10 1_555 1_555
N5_8 C2_10 1_555 1_555
C5_10 C1_10 1_555 1_555
H3_10 C5_10 1_555 1_555
N5_8 C5_10 1_555 1_555
C6_13 N5_7 1_555 1_555
C7_13 N5_7 1_555 1_555
C8_13 C7_13 1_555 1_555
C9_13 C8_13 1_555 1_555
H4_13 C9_13 1_555 1_555
H5_13 C6_13 1_555 1_555
N5_3 C7_13 1_555 1_555
C10_13 C6_13 1_555 1_555
H6_13 C10_13 1_555 1_555
N5_3 C10_13 1_555 1_555
C6_14 N5_4 1_555 1_555
C7_14 N5_4 1_555 1_555
C8_14 C7_14 1_555 1_555
C9_14 C8_14 1_555 1_555
H4_14 C9_14 1_555 1_555
H5_14 C6_14 1_555 1_555
N6_3 C7_14 1_555 1_555
C10_14 C6_14 1_555 1_555
H6_14 C10_14 1_555 1_555
N6_3 C10_14 1_555 1_555

#END
