
###############################################################################
#
# This file contains modified crystal structure data generated from the
# MOF subset of the Cambridge Structural Database (CSD) v543 
# hosted by the Cambridge Crystallographic Data Centre (CCDC).
#
# This work is licensed under the Creative Commons
# Attribution-NonCommercial-ShareAlike 4.0 International License.
# To view a copy of this license, visit
# http://creativecommons.org/licenses/by-nc-sa/4.0/
# or send a letter to
# Creative Commons, PO Box 1866, Mountain View, CA 94042, USA.
#
# CIF created using the CSD Python API on 29 September 2022
# The structure has been converted into the P1 space group
# The structure has a 3D framework
# The original CSD entry COZMUA is in the orthorhombic crystal system
# The framework has been calculated to contain at least 10.0% void space
# The void calculation uses a probe of radius 1.32A, grid spacing 0.4
# H atom positions have been added when not included in the experimental data
# Generated hydrogen atom positions removed from atoms on special positions
#
###############################################################################

data_COZMUA
_chemical_formula_moiety         '(C122 H96 Co11 O50)n'
_symmetry_cell_setting           triclinic
_symmetry_space_group_name_H-M   'P 1'
_symmetry_Int_Tables_number      1
_space_group_name_Hall           'P 1'
loop_
_symmetry_equiv_pos_site_id
_symmetry_equiv_pos_as_xyz
1 x,y,z
_cell_length_a                   15.5094(4)
_cell_length_b                   17.8251(5)
_cell_length_c                   24.2210(7)
_cell_angle_alpha                90
_cell_angle_beta                 90
_cell_angle_gamma                90
_cell_volume                     6696.06
loop_
_atom_site_label
_atom_site_type_symbol
_atom_site_fract_x
_atom_site_fract_y
_atom_site_fract_z
Co2 Co 0.39332(4) 0.02507(4) 0.50000
O3 O 0.24825(16) 0.14609(15) 0.43900(11)
O4 O 0.31150(17) 0.03362(15) 0.43405(11)
O8 O 0.50000 0.00000 0.44198(14)
C6 C 0.0326(2) 0.1237(2) 0.20393(15)
H3 H 0.0834 0.1273 0.2241
C7 C 0.0142(3) 0.1779(2) 0.16454(16)
H4 H 0.0518 0.218 0.1596
C8 C 0.00000 0.00000 0.25368(17)
C9 C 0.2564(2) 0.0818(2) 0.41998(15)
C10 C 0.1937(2) 0.06020(19) 0.37503(14)
C11 C 0.1249(2) 0.1040(2) 0.36467(15)
H5 H 0.118 0.1481 0.3847
C12 C 0.0651(2) 0.08551(19) 0.32574(14)
H6 H 0.0174 0.1165 0.3207
C13 C 0.0735(2) 0.02182(17) 0.29350(13)
Co3 Co 0.30445(4) 0.20863(3) 0.50000
O16 O 0.31150(17) 0.03362(15) 0.56595(11)
O17 O 0.4228(2) 0.13869(16) 0.50000
O18 O 0.50000 0.00000 0.55802(14)
O7 O 0.3699(3) 0.90896(19) 0.50000
O8_2 O 0.50000 1.00000 0.44198(14)
C8_2 C 0.00000 1.00000 0.25368(17)
C14 C 0.1449(2) 0.9760(2) 0.30452(15)
H7 H 0.1535 0.9329 0.2836
C15 C 0.2032(2) 0.9938(2) 0.34627(15)
H8 H 0.2482 0.9612 0.3547
Co4 Co 0.19555(4) 0.70863(3) 0.00000
Co7 Co 0.60668(4) 0.97493(4) 0.50000
O9 O 0.14429(17) 0.77842(13) 0.06042(11)
O11 O 0.0277(2) 0.71431(15) 0.08497(12)
O18_2 O 0.50000 1.00000 0.55802(14)
C16 C 0.0783(3) 0.7682(2) 0.08937(15)
C17 C 0.0597(2) 0.82707(19) 0.13232(14)
C18 C 0.1142(2) 0.8861(2) 0.14200(15)
H9 H 0.1646 0.8903 0.1214
C19 C 0.0962(2) 0.9387(2) 0.18114(15)
H10 H 0.1343 0.9784 0.1862
C20 C 0.0222(2) 0.93501(18) 0.21384(13)
Co4_2 Co 0.19555(4) 0.70863(3) 1.00000
Co1 Co 0.80445(4) 0.29137(3) 0.00000
O1 O 0.85571(17) 0.22158(13) 0.06042(11)
O2 O 0.9723(2) 0.28569(15) 0.08497(12)
O5 O 0.9228(2) 0.36131(16) 0.00000
O6 O 0.6909(2) 0.2235(2) 0.00000
C1 C 0.9217(3) 0.2318(2) 0.08937(15)
C2 C 0.9403(2) 0.17293(19) 0.13232(14)
C3 C 0.8858(2) 0.1139(2) 0.14200(15)
H1 H 0.8354 0.1097 0.1214
C4 C 0.9038(2) 0.0613(2) 0.18114(15)
H2 H 0.8657 0.0216 0.1862
C5 C 0.9778(2) 0.06499(18) 0.21384(13)
C8_3 C 1.00000 0.00000 0.25368(17)
Co6 Co 0.89332(4) 0.47493(4) 0.00000
O13 O 0.74825(16) 0.35391(15) 0.06100(11)
C28 C 0.8551(2) 0.0240(2) 0.30452(15)
H15 H 0.8465 0.0671 0.2836
C29 C 0.7968(2) 0.0062(2) 0.34627(15)
H16 H 0.7518 0.0388 0.3547
H17 H 0.664599 0.224018 0.0373766
Co1_2 Co 0.80445(4) 0.29137(3) 1.00000
O5_2 O 0.9228(2) 0.36131(16) 1.00000
O6_2 O 0.6909(2) 0.2235(2) 1.00000
Co6_2 Co 0.89332(4) 0.47493(4) 1.00000
O10 O 0.85571(17) 0.22158(13) 0.93958(11)
O14 O 0.74825(16) 0.35391(15) 0.93900(11)
H18 H 0.649041 0.243723 0.972781
C8_4 C 1.00000 1.00000 0.25368(17)
Co5 Co 0.69555(4) 0.79137(3) 0.50000
O12 O 0.75175(16) 0.85391(15) 0.43900(11)
O15 O 0.68850(17) 0.96638(15) 0.43405(11)
C21 C 0.9674(2) 0.8763(2) 0.20393(15)
H11 H 0.9166 0.8727 0.2241
C22 C 0.9858(3) 0.8221(2) 0.16454(16)
H12 H 0.9482 0.782 0.1596
C23 C 0.7436(2) 0.9182(2) 0.41998(15)
C24 C 0.8063(2) 0.93980(19) 0.37503(14)
C25 C 0.8751(2) 0.8960(2) 0.36467(15)
H13 H 0.882 0.8519 0.3847
C26 C 0.9349(2) 0.91449(19) 0.32574(14)
H14 H 0.9826 0.8835 0.3207
C27 C 0.9265(2) 0.97818(17) 0.29350(13)
O5_3 O 0.0772(2) 0.63869(16) 0.00000
O6_3 O 0.3091(2) 0.7765(2) 0.00000
Co6_3 Co 0.10668(4) 0.52507(4) 0.00000
O13_2 O 0.25175(16) 0.64609(15) 0.06100(11)
H17_2 H 0.335401 0.775982 0.0373766
O5_4 O 0.0772(2) 0.63869(16) 1.00000
O6_4 O 0.3091(2) 0.7765(2) 1.00000
Co6_4 Co 0.10668(4) 0.52507(4) 1.00000
O10_2 O 0.14429(17) 0.77842(13) 0.93958(11)
O14_2 O 0.25175(16) 0.64609(15) 0.93900(11)
H18_2 H 0.350959 0.756277 0.972781
O7_2 O 0.6301(3) 0.09104(19) 0.50000
O16_2 O 0.68850(17) 0.96638(15) 0.56595(11)
O17_2 O 0.5772(2) 0.86131(16) 0.50000
O8_3 O 0.00000 0.50000 0.05802(14)
O18_3 O -0.00000 0.50000 0.94198(14)
O1_2 O 0.35571(17) 0.27842(13) 0.43958(11)
O2_2 O 0.4723(2) 0.21431(15) 0.41503(12)
O4_2 O 0.81150(17) 0.46638(15) 0.06595(11)
O6_5 O 0.1909(2) 0.2765(2) 0.50000
O7_3 O 0.8699(3) 0.59104(19) 0.00000
O8_4 O 1.00000 0.50000 0.05802(14)
C1_2 C 0.4217(3) 0.2682(2) 0.41063(15)
C2_2 C 0.4403(2) 0.32707(19) 0.36768(14)
C3_2 C 0.3858(2) 0.3861(2) 0.35800(15)
H1_2 H 0.3354 0.3903 0.3786
C4_2 C 0.4038(2) 0.4387(2) 0.31886(15)
H2_2 H 0.3657 0.4784 0.3138
C5_2 C 0.4778(2) 0.43501(18) 0.28616(13)
C6_2 C 0.5326(2) 0.3763(2) 0.29607(15)
H3_2 H 0.5834 0.3727 0.2759
C7_2 C 0.5142(3) 0.3221(2) 0.33546(16)
H4_2 H 0.5518 0.282 0.3404
C8_5 C 0.50000 0.50000 0.24632(17)
C9_2 C 0.7564(2) 0.4182(2) 0.08002(15)
C10_2 C 0.6937(2) 0.43980(19) 0.12497(14)
C11_2 C 0.6249(2) 0.3960(2) 0.13533(15)
H5_2 H 0.618 0.3519 0.1153
C12_2 C 0.5651(2) 0.41449(19) 0.17426(14)
H6_2 H 0.5174 0.3835 0.1793
C13_2 C 0.5735(2) 0.47818(17) 0.20650(13)
C14_2 C 0.6449(2) 0.5240(2) 0.19548(15)
H7_2 H 0.6535 0.5671 0.2164
C15_2 C 0.7032(2) 0.5062(2) 0.15373(15)
H8_2 H 0.7482 0.5388 0.1453
O9_2 O 0.64429(17) 0.72158(13) 0.43958(11)
O10_3 O 0.35571(17) 0.27842(13) 0.56042(11)
O11_2 O 0.5277(2) 0.78569(15) 0.41503(12)
O14_3 O 0.24825(16) 0.14609(15) 0.56100(11)
O15_2 O 0.18850(17) 0.53362(15) 0.06595(11)
C16_2 C 0.5783(3) 0.7318(2) 0.41063(15)
C17_2 C 0.5597(2) 0.67293(19) 0.36768(14)
C18_2 C 0.6142(2) 0.6139(2) 0.35800(15)
H9_2 H 0.6646 0.6097 0.3786
C19_2 C 0.5962(2) 0.5613(2) 0.31886(15)
H10_2 H 0.6343 0.5216 0.3138
C20_2 C 0.5222(2) 0.56499(18) 0.28616(13)
C21_2 C 0.4674(2) 0.6237(2) 0.29607(15)
H11_2 H 0.4166 0.6273 0.2759
C22_2 C 0.4858(3) 0.6779(2) 0.33546(16)
H12_2 H 0.4482 0.718 0.3404
C23_2 C 0.2436(2) 0.5818(2) 0.08002(15)
C24_2 C 0.3063(2) 0.56020(19) 0.12497(14)
C25_2 C 0.3751(2) 0.6040(2) 0.13533(15)
H13_2 H 0.382 0.6481 0.1153
C26_2 C 0.4349(2) 0.58551(19) 0.17426(14)
H14_2 H 0.4826 0.6165 0.1793
C27_2 C 0.4265(2) 0.52182(17) 0.20650(13)
C28_2 C 0.3551(2) 0.4760(2) 0.19548(15)
H15_2 H 0.3465 0.4329 0.2164
C29_2 C 0.2968(2) 0.4938(2) 0.15373(15)
H16_2 H 0.2518 0.4612 0.1453
H19 H 0.887882 0.612639 0.0359936
O7_4 O 0.8699(3) 0.59104(19) 1.00000
O16_3 O 0.81150(17) 0.46638(15) 0.93405(11)
O18_4 O 1.00000 0.50000 0.94198(14)
H20 H 0.903323 0.614997 0.969802
O6_6 O 0.8091(2) 0.7235(2) 0.50000
O7_5 O 0.1301(3) 0.40896(19) 0.00000
O10_4 O 0.64429(17) 0.72158(13) 0.56042(11)
O14_4 O 0.75175(16) 0.85391(15) 0.56100(11)
H19_2 H 0.112118 0.387361 0.0359936
O7_6 O 0.1301(3) 0.40896(19) 1.00000
O16_4 O 0.18850(17) 0.53362(15) 0.93405(11)
H20_2 H 0.0966775 0.385003 0.969802
C8_6 C 0.00000 -0.00000 0.74632(17)
C21_3 C 0.0326(2) 0.1237(2) 0.79607(15)
H11_3 H 0.0834 0.1273 0.7759
C22_3 C 0.0142(3) 0.1779(2) 0.83546(16)
H12_3 H 0.0518 0.218 0.8404
C23_3 C 0.2564(2) 0.0818(2) 0.58002(15)
C24_3 C 0.1937(2) 0.06020(19) 0.62497(14)
C25_3 C 0.1249(2) 0.1040(2) 0.63533(15)
H13_3 H 0.118 0.1481 0.6153
C26_3 C 0.0651(2) 0.08551(19) 0.67426(14)
H14_3 H 0.0174 0.1165 0.6793
C27_3 C 0.0735(2) 0.02182(17) 0.70650(13)
H18_3 H 0.350959 0.756277 0.0272189
O2_3 O 0.0277(2) 0.71431(15) 0.91503(12)
C1_3 C 0.0783(3) 0.7682(2) 0.91063(15)
C2_3 C 0.0597(2) 0.82707(19) 0.86768(14)
C3_3 C 0.1142(2) 0.8861(2) 0.85800(15)
H1_3 H 0.1646 0.8903 0.8786
C4_3 C 0.0962(2) 0.9387(2) 0.81886(15)
H2_3 H 0.1343 0.9784 0.8138
C5_3 C 0.0222(2) 0.93501(18) 0.78616(13)
C8_7 C 0.00000 1.00000 0.74632(17)
C28_3 C 0.1449(2) 0.9760(2) 0.69548(15)
H15_3 H 0.1535 0.9329 0.7164
C29_3 C 0.2032(2) 0.9938(2) 0.65373(15)
H16_3 H 0.2482 0.9612 0.6453
H17_3 H 0.335401 0.775982 0.962623
C8_8 C 1.00000 -0.00000 0.74632(17)
C14_3 C 0.8551(2) 0.0240(2) 0.69548(15)
H7_3 H 0.8465 0.0671 0.7164
C15_3 C 0.7968(2) 0.0062(2) 0.65373(15)
H8_3 H 0.7518 0.0388 0.6453
O11_3 O 0.9723(2) 0.28569(15) 0.91503(12)
C16_3 C 0.9217(3) 0.2318(2) 0.91063(15)
C17_3 C 0.9403(2) 0.17293(19) 0.86768(14)
C18_3 C 0.8858(2) 0.1139(2) 0.85800(15)
H9_3 H 0.8354 0.1097 0.8786
C19_3 C 0.9038(2) 0.0613(2) 0.81886(15)
H10_3 H 0.8657 0.0216 0.8138
C20_3 C 0.9778(2) 0.06499(18) 0.78616(13)
C6_3 C 0.9674(2) 0.8763(2) 0.79607(15)
H3_3 H 0.9166 0.8727 0.7759
C7_3 C 0.9858(3) 0.8221(2) 0.83546(16)
H4_3 H 0.9482 0.782 0.8404
C8_9 C 1.00000 1.00000 0.74632(17)
C9_3 C 0.7436(2) 0.9182(2) 0.58002(15)
C10_3 C 0.8063(2) 0.93980(19) 0.62497(14)
C11_3 C 0.8751(2) 0.8960(2) 0.63533(15)
H5_3 H 0.882 0.8519 0.6153
C12_3 C 0.9349(2) 0.91449(19) 0.67426(14)
H6_3 H 0.9826 0.8835 0.6793
C13_3 C 0.9265(2) 0.97818(17) 0.70650(13)
H18_4 H 0.649041 0.243723 0.0272189
H17_4 H 0.664599 0.224018 0.962623
H20_3 H 0.0966775 0.385003 0.0301982
O2_4 O 0.5277(2) 0.78569(15) 0.58497(12)
C1_4 C 0.5783(3) 0.7318(2) 0.58937(15)
C2_4 C 0.5597(2) 0.67293(19) 0.63232(14)
C3_4 C 0.6142(2) 0.6139(2) 0.64200(15)
H1_4 H 0.6646 0.6097 0.6214
C4_4 C 0.5962(2) 0.5613(2) 0.68114(15)
H2_4 H 0.6343 0.5216 0.6862
C5_4 C 0.5222(2) 0.56499(18) 0.71384(13)
C6_4 C 0.4674(2) 0.6237(2) 0.70393(15)
H3_4 H 0.4166 0.6273 0.7241
C7_4 C 0.4858(3) 0.6779(2) 0.66454(16)
H4_4 H 0.4482 0.718 0.6596
C8_10 C 0.50000 0.50000 0.75368(17)
C9_4 C 0.2436(2) 0.5818(2) 0.91998(15)
C10_4 C 0.3063(2) 0.56020(19) 0.87503(14)
C11_4 C 0.3751(2) 0.6040(2) 0.86467(15)
H5_4 H 0.382 0.6481 0.8847
C12_4 C 0.4349(2) 0.58551(19) 0.82574(14)
H6_4 H 0.4826 0.6165 0.8207
C13_4 C 0.4265(2) 0.52182(17) 0.79350(13)
C14_4 C 0.3551(2) 0.4760(2) 0.80452(15)
H7_4 H 0.3465 0.4329 0.7836
C15_4 C 0.2968(2) 0.4938(2) 0.84627(15)
H8_4 H 0.2518 0.4612 0.8547
O11_4 O 0.4723(2) 0.21431(15) 0.58497(12)
C16_4 C 0.4217(3) 0.2682(2) 0.58937(15)
C17_4 C 0.4403(2) 0.32707(19) 0.63232(14)
C18_4 C 0.3858(2) 0.3861(2) 0.64200(15)
H9_4 H 0.3354 0.3903 0.6214
C19_4 C 0.4038(2) 0.4387(2) 0.68114(15)
H10_4 H 0.3657 0.4784 0.6862
C20_4 C 0.4778(2) 0.43501(18) 0.71384(13)
C21_4 C 0.5326(2) 0.3763(2) 0.70393(15)
H11_4 H 0.5834 0.3727 0.7241
C22_4 C 0.5142(3) 0.3221(2) 0.66454(16)
H12_4 H 0.5518 0.282 0.6596
C23_4 C 0.7564(2) 0.4182(2) 0.91998(15)
C24_4 C 0.6937(2) 0.43980(19) 0.87503(14)
C25_4 C 0.6249(2) 0.3960(2) 0.86467(15)
H13_4 H 0.618 0.3519 0.8847
C26_4 C 0.5651(2) 0.41449(19) 0.82574(14)
H14_4 H 0.5174 0.3835 0.8207
C27_4 C 0.5735(2) 0.47818(17) 0.79350(13)
C28_4 C 0.6449(2) 0.5240(2) 0.80452(15)
H15_4 H 0.6535 0.5671 0.7836
C29_4 C 0.7032(2) 0.5062(2) 0.84627(15)
H16_4 H 0.7482 0.5388 0.8547
H19_3 H 0.112118 0.387361 0.964006
H20_4 H 0.903323 0.614997 0.0301982
H19_4 H 0.887882 0.612639 0.964006
loop_
_geom_bond_atom_site_label_1
_geom_bond_atom_site_label_2
_geom_bond_site_symmetry_1
_geom_bond_site_symmetry_2
Co2 O4 1_555 1_555
O3 C9 1_555 1_555
O4 C9 1_555 1_555
O8 Co2 1_555 1_555
H3 C6 1_555 1_555
H4 C7 1_555 1_555
C9 C10 1_555 1_555
C10 C11 1_555 1_555
C11 H5 1_555 1_555
C12 C11 1_555 1_555
H6 C12 1_555 1_555
C13 C8 1_555 1_555
Co3 O3 1_555 1_555
O16 Co2 1_555 1_555
O17 Co2 1_555 1_555
O18 Co2 1_555 1_555
C6 C7 1_555 1_555
C12 C13 1_555 1_555
Co3 O17 1_555 1_555
H7 C14 1_555 1_555
H8 C15 1_555 1_555
Co4 O9 1_555 1_555
Co7 O8_2 1_555 1_555
O9 C16 1_555 1_555
O11 C16 1_555 1_555
C16 C17 1_555 1_555
C17 C18 1_555 1_555
C18 H9 1_555 1_555
C19 C18 1_555 1_555
H10 C19 1_555 1_555
C20 C8_2 1_555 1_555
C14 C15 1_555 1_555
Co7 O18_2 1_555 1_555
C19 C20 1_555 1_555
Co1 O1 1_555 1_555
O1 C1 1_555 1_555
O2 C1 1_555 1_555
O5 Co1 1_555 1_555
O6 Co1 1_555 1_555
C1 C2 1_555 1_555
C2 C3 1_555 1_555
C3 H1 1_555 1_555
C4 C3 1_555 1_555
H2 C4 1_555 1_555
C5 C4 1_555 1_555
C8_3 C5 1_555 1_555
Co6 O5 1_555 1_555
O13 Co1 1_555 1_555
H15 C28 1_555 1_555
H16 C29 1_555 1_555
C28 C29 1_555 1_555
O6 H17 1_555 1_555
O5_2 Co1_2 1_555 1_555
O6_2 Co1_2 1_555 1_555
Co6_2 O5_2 1_555 1_555
O10 Co1_2 1_555 1_555
O14 Co1_2 1_555 1_555
O6_2 H18 1_555 1_555
Co5 O12 1_555 1_555
Co7 O15 1_555 1_555
O12 C23 1_555 1_555
O15 C23 1_555 1_555
H11 C21 1_555 1_555
H12 C22 1_555 1_555
C23 C24 1_555 1_555
C24 C25 1_555 1_555
C25 H13 1_555 1_555
C26 C25 1_555 1_555
H14 C26 1_555 1_555
C27 C8_4 1_555 1_555
C21 C22 1_555 1_555
C26 C27 1_555 1_555
O5_3 Co4 1_555 1_555
O6_3 Co4 1_555 1_555
Co6_3 O5_3 1_555 1_555
O13_2 Co4 1_555 1_555
O6_3 H17_2 1_555 1_555
O5_4 Co4_2 1_555 1_555
O6_4 Co4_2 1_555 1_555
Co6_4 O5_4 1_555 1_555
O10_2 Co4_2 1_555 1_555
O14_2 Co4_2 1_555 1_555
O6_4 H18_2 1_555 1_555
O16_2 Co7 1_555 1_555
O17_2 Co7 1_555 1_555
Co5 O17_2 1_555 1_555
Co6_3 O8_3 1_555 1_555
Co6_4 O18_3 1_555 1_555
Co3 O1_2 1_555 1_555
Co6 O4_2 1_555 1_555
O1_2 C1_2 1_555 1_555
O2_2 C1_2 1_555 1_555
O13 C9_2 1_555 1_555
O4_2 C9_2 1_555 1_555
O6_5 Co3 1_555 1_555
O7_3 Co6 1_555 1_555
O8_4 Co6 1_555 1_555
C1_2 C2_2 1_555 1_555
C2_2 C3_2 1_555 1_555
C3_2 H1_2 1_555 1_555
C4_2 C3_2 1_555 1_555
H2_2 C4_2 1_555 1_555
C5_2 C4_2 1_555 1_555
C6_2 C5_2 1_555 1_555
H3_2 C6_2 1_555 1_555
C7_2 C2_2 1_555 1_555
H4_2 C7_2 1_555 1_555
C8_5 C5_2 1_555 1_555
C9_2 C10_2 1_555 1_555
C10_2 C11_2 1_555 1_555
C11_2 H5_2 1_555 1_555
C12_2 C11_2 1_555 1_555
H6_2 C12_2 1_555 1_555
C13_2 C8_5 1_555 1_555
C14_2 C13_2 1_555 1_555
H7_2 C14_2 1_555 1_555
C15_2 C10_2 1_555 1_555
H8_2 C15_2 1_555 1_555
Co5 O9_2 1_555 1_555
Co6_3 O15_2 1_555 1_555
O9_2 C16_2 1_555 1_555
O10_3 Co3 1_555 1_555
O11_2 C16_2 1_555 1_555
O13_2 C23_2 1_555 1_555
O14_3 Co3 1_555 1_555
O15_2 C23_2 1_555 1_555
C16_2 C17_2 1_555 1_555
C17_2 C18_2 1_555 1_555
C18_2 H9_2 1_555 1_555
C19_2 C18_2 1_555 1_555
H10_2 C19_2 1_555 1_555
C20_2 C8_5 1_555 1_555
C21_2 C20_2 1_555 1_555
H11_2 C21_2 1_555 1_555
C22_2 C17_2 1_555 1_555
H12_2 C22_2 1_555 1_555
C23_2 C24_2 1_555 1_555
C24_2 C25_2 1_555 1_555
C25_2 H13_2 1_555 1_555
C26_2 C25_2 1_555 1_555
H14_2 C26_2 1_555 1_555
C27_2 C8_5 1_555 1_555
C28_2 C27_2 1_555 1_555
H15_2 C28_2 1_555 1_555
C29_2 C24_2 1_555 1_555
H16_2 C29_2 1_555 1_555
C6_2 C7_2 1_555 1_555
C12_2 C13_2 1_555 1_555
C14_2 C15_2 1_555 1_555
C19_2 C20_2 1_555 1_555
C21_2 C22_2 1_555 1_555
C26_2 C27_2 1_555 1_555
C28_2 C29_2 1_555 1_555
O7_3 H19 1_555 1_555
O7_4 Co6_2 1_555 1_555
O16_3 Co6_2 1_555 1_555
O18_4 Co6_2 1_555 1_555
O7_4 H20 1_555 1_555
O6_6 Co5 1_555 1_555
O7_5 Co6_3 1_555 1_555
O10_4 Co5 1_555 1_555
O14_4 Co5 1_555 1_555
O7_5 H19_2 1_555 1_555
O7_6 Co6_4 1_555 1_555
O16_4 Co6_4 1_555 1_555
O7_6 H20_2 1_555 1_555
O14_3 C23_3 1_555 1_555
O16 C23_3 1_555 1_555
H11_3 C21_3 1_555 1_555
H12_3 C22_3 1_555 1_555
C23_3 C24_3 1_555 1_555
C24_3 C25_3 1_555 1_555
C25_3 H13_3 1_555 1_555
C26_3 C25_3 1_555 1_555
H14_3 C26_3 1_555 1_555
C27_3 C8_6 1_555 1_555
C21_3 C22_3 1_555 1_555
C26_3 C27_3 1_555 1_555
O6_3 H18_3 1_555 1_555
O10_2 C1_3 1_555 1_555
O2_3 C1_3 1_555 1_555
C1_3 C2_3 1_555 1_555
C2_3 C3_3 1_555 1_555
C3_3 H1_3 1_555 1_555
C4_3 C3_3 1_555 1_555
H2_3 C4_3 1_555 1_555
C5_3 C4_3 1_555 1_555
C8_7 C5_3 1_555 1_555
H15_3 C28_3 1_555 1_555
H16_3 C29_3 1_555 1_555
C28_3 C29_3 1_555 1_555
O6_4 H17_3 1_555 1_555
H7_3 C14_3 1_555 1_555
H8_3 C15_3 1_555 1_555
O10 C16_3 1_555 1_555
O11_3 C16_3 1_555 1_555
C16_3 C17_3 1_555 1_555
C17_3 C18_3 1_555 1_555
C18_3 H9_3 1_555 1_555
C19_3 C18_3 1_555 1_555
H10_3 C19_3 1_555 1_555
C20_3 C8_8 1_555 1_555
C14_3 C15_3 1_555 1_555
C19_3 C20_3 1_555 1_555
O14_4 C9_3 1_555 1_555
O16_2 C9_3 1_555 1_555
H3_3 C6_3 1_555 1_555
H4_3 C7_3 1_555 1_555
C9_3 C10_3 1_555 1_555
C10_3 C11_3 1_555 1_555
C11_3 H5_3 1_555 1_555
C12_3 C11_3 1_555 1_555
H6_3 C12_3 1_555 1_555
C13_3 C8_9 1_555 1_555
C6_3 C7_3 1_555 1_555
C12_3 C13_3 1_555 1_555
O6 H18_4 1_555 1_555
O6_2 H17_4 1_555 1_555
O7_5 H20_3 1_555 1_555
O10_4 C1_4 1_555 1_555
O2_4 C1_4 1_555 1_555
O14_2 C9_4 1_555 1_555
O16_4 C9_4 1_555 1_555
C1_4 C2_4 1_555 1_555
C2_4 C3_4 1_555 1_555
C3_4 H1_4 1_555 1_555
C4_4 C3_4 1_555 1_555
H2_4 C4_4 1_555 1_555
C5_4 C4_4 1_555 1_555
C6_4 C5_4 1_555 1_555
H3_4 C6_4 1_555 1_555
C7_4 C2_4 1_555 1_555
H4_4 C7_4 1_555 1_555
C8_10 C5_4 1_555 1_555
C9_4 C10_4 1_555 1_555
C10_4 C11_4 1_555 1_555
C11_4 H5_4 1_555 1_555
C12_4 C11_4 1_555 1_555
H6_4 C12_4 1_555 1_555
C13_4 C8_10 1_555 1_555
C14_4 C13_4 1_555 1_555
H7_4 C14_4 1_555 1_555
C15_4 C10_4 1_555 1_555
H8_4 C15_4 1_555 1_555
O10_3 C16_4 1_555 1_555
O11_4 C16_4 1_555 1_555
O14 C23_4 1_555 1_555
O16_3 C23_4 1_555 1_555
C16_4 C17_4 1_555 1_555
C17_4 C18_4 1_555 1_555
C18_4 H9_4 1_555 1_555
C19_4 C18_4 1_555 1_555
H10_4 C19_4 1_555 1_555
C20_4 C8_10 1_555 1_555
C21_4 C20_4 1_555 1_555
H11_4 C21_4 1_555 1_555
C22_4 C17_4 1_555 1_555
H12_4 C22_4 1_555 1_555
C23_4 C24_4 1_555 1_555
C24_4 C25_4 1_555 1_555
C25_4 H13_4 1_555 1_555
C26_4 C25_4 1_555 1_555
H14_4 C26_4 1_555 1_555
C27_4 C8_10 1_555 1_555
C28_4 C27_4 1_555 1_555
H15_4 C28_4 1_555 1_555
C29_4 C24_4 1_555 1_555
H16_4 C29_4 1_555 1_555
C6_4 C7_4 1_555 1_555
C12_4 C13_4 1_555 1_555
C14_4 C15_4 1_555 1_555
C19_4 C20_4 1_555 1_555
C21_4 C22_4 1_555 1_555
C26_4 C27_4 1_555 1_555
C28_4 C29_4 1_555 1_555
O7_6 H19_3 1_555 1_555
O7_3 H20_4 1_555 1_555
O7_4 H19_4 1_555 1_555

#END
