
###############################################################################
#
# This file contains modified crystal structure data generated from the
# MOF subset of the Cambridge Structural Database (CSD) v543 
# hosted by the Cambridge Crystallographic Data Centre (CCDC).
#
# This work is licensed under the Creative Commons
# Attribution-NonCommercial-ShareAlike 4.0 International License.
# To view a copy of this license, visit
# http://creativecommons.org/licenses/by-nc-sa/4.0/
# or send a letter to
# Creative Commons, PO Box 1866, Mountain View, CA 94042, USA.
#
# CIF created using the CSD Python API on 29 September 2022
# The structure has been converted into the P1 space group
# The structure has a 3D framework
# The original CSD entry CUBBEI is in the trigonal crystal system
# The original CSD entry CUBBEI is in a Sohncke space group
# The framework has been calculated to contain at least 10.0% void space
# The void calculation uses a probe of radius 1.32A, grid spacing 0.4
#
###############################################################################

data_CUBBEI
_chemical_formula_moiety         '(C126 H102 O36 Zn8)n'
_symmetry_cell_setting           triclinic
_symmetry_space_group_name_H-M   'P 1'
_symmetry_Int_Tables_number      1
_space_group_name_Hall           'P 1'
loop_
_symmetry_equiv_pos_site_id
_symmetry_equiv_pos_as_xyz
1 x,y,z
_cell_length_a                   18.1019(8)
_cell_length_b                   18.1019(8)
_cell_length_c                   24.668(2)
_cell_angle_alpha                90
_cell_angle_beta                 90
_cell_angle_gamma                120
_cell_volume                     7000.24
loop_
_atom_site_label
_atom_site_type_symbol
_atom_site_fract_x
_atom_site_fract_y
_atom_site_fract_z
C18 C 0.1359(6) 0.2448(6) 0.0023(3)
C19 C 0.0671(6) 0.1752(6) 0.0276(3)
C21 C 0.0230(7) 0.0904(8) 0.1090(4)
H16 H 0.0488 0.0855 0.1418
H17 H 0.0062 0.0409 0.0869
O5 O 0.2072(4) 0.2916(4) 0.0288(2)
O6 O 0.0829(4) 0.1649(4) 0.0801(2)
C37 C 0.2086(7) 0.0505(6) 0.0795(4)
H29 H 0.2199 0.0461 0.1158
C38 C 0.2629(7) 0.1252(7) 0.0515(4)
H30 H 0.3112 0.1681 0.0685
Zn4 Zn 0.32423(8) 0.32423(8) 0.0000
Zn7 Zn 0.22203(6) 0.28048(7) 0.10626(4)
C16 C 0.0505(6) 0.2086(7) 0.9205(4)
H12 H 0.0461 0.2199 0.8842
C17 C 0.1252(7) 0.2629(7) 0.9485(4)
H13 H 0.1681 0.3112 0.9315
C39 C 0.2448(6) 0.1359(6) 0.9977(3)
C40 C 0.1752(6) 0.0671(6) 0.9724(3)
C42 C 0.0904(8) 0.0230(7) 0.8910(4)
H33 H 0.0855 0.0488 0.8582
H34 H 0.0409 0.0062 0.9131
O11 O 0.2916(4) 0.2072(4) 0.9712(2)
O12 O 0.1649(4) 0.0829(4) 0.9199(2)
Zn4_2 Zn 0.32423(8) 0.32423(8) 1.0000
Zn5 Zn 0.28048(7) 0.22203(6) 0.89374(4)
C34 C 0.0157(6) 0.8383(7) 0.0764(3)
C35 C 0.0869(7) 0.9109(6) 0.0896(4)
H28 H 0.1048 0.9152 0.1254
C36 C 0.1391(6) 0.9830(6) 0.0554(3)
C41 C 0.1232(6) 0.9918(6) 0.0008(4)
O10 O 0.0003(4) 0.7893(4) 0.1650(2)
C13 C 0.8383(7) 0.0157(6) 0.9236(3)
C14 C 0.9109(6) 0.0869(7) 0.9104(4)
H11 H 0.9152 0.1048 0.8746
C15 C 0.9830(6) 0.1391(6) 0.9446(3)
C20 C 0.9918(6) 0.1232(6) 0.9992(4)
O4 O 0.7893(4) 0.0003(4) 0.8350(2)
C1 C 0.3848(13) 0.5241(9) 0.0309(5)
H1 H 0.4286 0.5790 0.0184
H2 H 0.4032 0.5098 0.0637
H3 H 0.3335 0.5259 0.0377
C23 C 0.4219(6) 0.3725(6) 0.0978(3)
C24 C 0.4886(6) 0.3966(6) 0.0604(3)
C25 C 0.5732(6) 0.4450(7) 0.0753(4)
H21 H 0.6167 0.4602 0.0501
C26 C 0.5923(6) 0.4714(8) 0.1313(4)
C27 C 0.5276(7) 0.4422(9) 0.1675(4)
H22 H 0.5405 0.4540 0.2041
C28 C 0.4416(7) 0.3945(7) 0.1518(3)
H23 H 0.3984 0.3779 0.1774
C29 C 0.6799(7) 0.5299(7) 0.1491(4)
H24 H 0.6897 0.5339 0.1862
C30 C 0.7483(7) 0.5789(8) 0.1169(4)
H25 H 0.7411 0.5730 0.0795
C31 C 0.8319(6) 0.6399(6) 0.1377(3)
C32 C 0.8883(6) 0.7001(7) 0.1044(4)
H26 H 0.8735 0.6933 0.0679
C33 C 0.9675(7) 0.7728(6) 0.1175(3)
H27 H 0.9965 0.8293 0.0407
O7 O 0.4630(4) 0.3692(5) 0.0085(2)
O8 O 0.3425(4) 0.3295(4) 0.07914(19)
O9 O 0.8413(4) 0.6351(4) 0.1881(2)
O13 O 0.2062(6) 0.3649(4) 0.1452(2)
O15 O 0.2110(6) 0.2107(4) 0.1683(2)
Zn6 Zn 0.94155(9) 0.71952(7) 0.22707(4)
C2 C 0.3725(6) 0.4219(6) 0.9022(3)
C3 C 0.3966(6) 0.4886(6) 0.9396(3)
C4 C 0.4450(7) 0.5732(6) 0.9247(4)
H4 H 0.4602 0.6167 0.9499
C5 C 0.4714(8) 0.5923(6) 0.8687(4)
C6 C 0.4422(9) 0.5276(7) 0.8325(4)
H5 H 0.4540 0.5405 0.7959
C7 C 0.3945(7) 0.4416(7) 0.8482(3)
H6 H 0.3779 0.3984 0.8226
C8 C 0.5299(7) 0.6799(7) 0.8509(4)
H7 H 0.5339 0.6897 0.8138
C9 C 0.5789(8) 0.7483(7) 0.8831(4)
H8 H 0.5730 0.7411 0.9205
C10 C 0.6399(6) 0.8319(6) 0.8623(3)
C11 C 0.7001(7) 0.8883(6) 0.8956(4)
H9 H 0.6933 0.8735 0.9321
C12 C 0.7728(6) 0.9675(7) 0.8825(3)
H10 H 0.8293 0.9965 0.9593
O1 O 0.3692(5) 0.4630(4) 0.9915(2)
O2 O 0.3295(4) 0.3425(4) 0.92086(19)
O3 O 0.6351(4) 0.8413(4) 0.8119(2)
C22 C 0.5241(9) 0.3848(13) 0.9691(5)
H18 H 0.5790 0.4286 0.9816
H19 H 0.5098 0.4032 0.9363
H20 H 0.5259 0.3335 0.9623
O14 O 0.3649(4) 0.2062(6) 0.8548(2)
O16 O 0.2107(4) 0.2110(6) 0.8317(2)
Zn8 Zn 0.71952(7) 0.94155(9) 0.77293(4)
Zn1 Zn 0.67577(8) -0.00000(11) 0.6667
Zn2 Zn 0.77797(6) 0.05845(9) 0.56041(4)
C22_2 C 0.6152(13) 0.1393(16) 0.6358(5)
H18_2 H 0.5714 0.1504 0.6483
H19_2 H 0.5968 0.1066 0.6030
H20_2 H 0.6665 0.1924 0.6290
C23_2 C 0.6275(6) 0.0494(8) 0.7645(3)
C24_2 C 0.6034(6) 0.0920(8) 0.7271(3)
C25_2 C 0.5550(7) 0.1282(9) 0.7420(4)
H21_2 H 0.5398 0.1565 0.7168
C26_2 C 0.5286(8) 0.1209(10) 0.7980(4)
C27_2 C 0.5578(9) 0.0854(11) 0.8342(4)
H22_2 H 0.5460 0.0865 0.8708
C28_2 C 0.6055(7) 0.0471(10) 0.8185(3)
H23_2 H 0.6221 0.0205 0.8441
C29_2 C 0.4701(7) 0.1500(10) 0.8158(4)
H24_2 H 0.4661 0.1558 0.8529
C30_2 C 0.4211(8) 0.1694(11) 0.7836(4)
H25_2 H 0.4270 0.1681 0.7462
C31_2 C 0.3601(6) 0.1920(8) 0.8044(3)
C32_2 C 0.2999(7) 0.1882(9) 0.7711(4)
H26_2 H 0.3067 0.1802 0.7346
C33_2 C 0.2272(6) 0.1947(9) 0.7842(3)
C34_2 C 0.1617(7) 0.1774(9) 0.7431(3)
H27_2 H 0.1707 0.1672 0.7074
C35_2 C 0.0891(6) 0.1760(9) 0.7563(4)
H28_2 H 0.0848 0.1896 0.7921
C36_2 C 0.0170(6) 0.1561(8) 0.7221(3)
C41_2 C 0.0082(6) 0.1314(8) 0.6675(4)
H31 H 0.0531 0.1304 0.6499
H32 H 0.0263 0.1211 0.5489
O7_2 O 0.6308(5) 0.0938(6) 0.6752(2)
O8_2 O 0.6705(4) 0.0130(6) 0.74581(19)
O14_2 O 0.7938(6) 0.1587(7) 0.5214(2)
O18 O 0.7928(4) 0.0844(6) 0.6379(2)
O20 O 0.9171(4) 0.0820(6) 0.5866(2)
C1_2 C 0.4759(9) 0.8607(16) 0.6976(5)
H1_2 H 0.4210 0.8496 0.6851
H2_2 H 0.4902 0.8934 0.7304
H3_2 H 0.4741 0.8076 0.7044
C2_2 C 0.5781(6) 0.9506(8) 0.5689(3)
C3_2 C 0.5114(6) 0.9080(8) 0.6063(3)
C4_2 C 0.4268(6) 0.8718(9) 0.5914(4)
H4_2 H 0.3833 0.8435 0.6166
C5_2 C 0.4077(6) 0.8791(10) 0.5354(4)
C6_2 C 0.4724(7) 0.9146(11) 0.4992(4)
H5_2 H 0.4595 0.9135 0.4626
C7_2 C 0.5584(7) 0.9529(10) 0.5149(3)
H6_2 H 0.6016 0.9795 0.4893
C8_2 C 0.3201(7) 0.8500(10) 0.5176(4)
H7_2 H 0.3103 0.8442 0.4805
C9_2 C 0.2517(7) 0.8306(11) 0.5498(4)
H8_2 H 0.2589 0.8319 0.5872
C10_2 C 0.1681(6) 0.8080(8) 0.5290(3)
C11_2 C 0.1117(6) 0.8118(9) 0.5623(4)
H9_2 H 0.1265 0.8198 0.5988
C12_2 C 0.0325(7) 0.8053(9) 0.5492(3)
H10_2 H 0.0035 0.8328 0.6260
O1_2 O 0.5370(4) 0.9062(6) 0.6582(2)
O2_2 O 0.6575(4) 0.9870(6) 0.58753(19)
O3_2 O 0.1587(4) 0.7938(6) 0.4786(2)
Zn1_2 Zn 0.67577(8) 1.00000(11) 0.6667
O16_2 O 0.7890(6) 0.9997(7) 0.4983(2)
O17 O 0.7084(4) 0.9156(6) 0.6955(2)
O19 O 0.8351(4) 0.9180(6) 0.7468(2)
Zn8_2 Zn 0.05845(9) 0.77797(11) 0.43959(4)
C37_2 C 0.9495(6) 0.1581(9) 0.7462(4)
H29_2 H 0.9539 0.1738 0.7825
C38_2 C 0.8748(7) 0.1377(10) 0.7182(4)
H30_2 H 0.8319 0.1431 0.7352
C39_2 C 0.8641(6) 0.1089(8) 0.6644(3)
C40_2 C 0.9329(6) 0.1081(8) 0.6391(3)
C42_2 C 0.9770(7) 0.0674(11) 0.5577(4)
H33_2 H 0.9512 0.0367 0.5249
H34_2 H 0.9938 0.0347 0.5798
C13_2 C 0.9843(6) 0.8226(9) 0.5903(3)
C14_2 C 0.9131(7) 0.8240(9) 0.5771(4)
H11_2 H 0.8952 0.8104 0.5413
C15_2 C 0.8609(6) 0.8439(8) 0.6113(3)
C16_2 C 0.7914(7) 0.8419(9) 0.5872(4)
H12_2 H 0.7801 0.8262 0.5509
C17_2 C 0.7371(7) 0.8623(10) 0.6152(4)
H13_2 H 0.6888 0.8569 0.5982
C18_2 C 0.7552(6) 0.8911(8) 0.6690(3)
C19_2 C 0.8248(6) 0.8919(8) 0.6943(3)
C20_2 C 0.8768(6) 0.8686(8) 0.6659(4)
H14 H 0.9227 0.8696 0.6835
C21_2 C 0.9096(8) 0.9326(11) 0.7757(4)
H15 H 0.9052 0.8789 0.7845
H16_2 H 0.9145 0.9633 0.8085
H17_2 H 0.9591 0.9653 0.7536
O4_2 O 0.9997(4) 0.7890(6) 0.5017(2)
C1_3 C 0.1393(16) 0.6152(13) 0.3642(5)
H1_3 H 0.1504 0.5714 0.3517
H2_3 H 0.1066 0.5968 0.3970
H3_3 H 0.1924 0.6665 0.3710
C2_3 C 0.0494(8) 0.6275(6) 0.2355(3)
C3_3 C 0.0920(8) 0.6034(6) 0.2729(3)
C4_3 C 0.1282(9) 0.5550(7) 0.2580(4)
H4_3 H 0.1565 0.5398 0.2832
C5_3 C 0.1209(10) 0.5286(8) 0.2020(4)
C6_3 C 0.0854(11) 0.5578(9) 0.1658(4)
H5_3 H 0.0865 0.5460 0.1292
C7_3 C 0.0471(10) 0.6055(7) 0.1815(3)
H6_3 H 0.0205 0.6221 0.1559
C8_3 C 0.1500(10) 0.4701(7) 0.1842(4)
H7_3 H 0.1558 0.4661 0.1471
C9_3 C 0.1694(11) 0.4211(8) 0.2164(4)
H8_3 H 0.1681 0.4270 0.2538
C10_3 C 0.1920(8) 0.3601(6) 0.1956(3)
C11_3 C 0.1882(9) 0.2999(7) 0.2289(4)
H9_3 H 0.1802 0.3067 0.2654
C12_3 C 0.1947(9) 0.2272(6) 0.2158(3)
C13_3 C 0.1774(9) 0.1617(7) 0.2569(3)
H10_3 H 0.1672 0.1707 0.2926
C14_3 C 0.1760(9) 0.0891(6) 0.2437(4)
H11_3 H 0.1896 0.0848 0.2079
C15_3 C 0.1561(8) 0.0170(6) 0.2779(3)
C20_3 C 0.1314(8) 0.0082(6) 0.3325(4)
H14_2 H 0.1304 0.0531 0.3501
H15_2 H 0.1211 0.0263 0.4511
O1_3 O 0.0938(6) 0.6308(5) 0.3248(2)
O2_3 O 0.0130(6) 0.6705(4) 0.25419(19)
Zn1_3 Zn -0.00000(11) 0.67577(8) 0.3333
O17_2 O 0.0844(6) 0.7928(4) 0.3621(2)
O19_2 O 0.0820(6) 0.9171(4) 0.4134(2)
C16_3 C 0.1581(9) 0.9495(6) 0.2538(4)
H12_3 H 0.1738 0.9539 0.2175
C17_3 C 0.1377(10) 0.8748(7) 0.2818(4)
H13_3 H 0.1431 0.8319 0.2648
C18_3 C 0.1089(8) 0.8641(6) 0.3356(3)
C19_3 C 0.1081(8) 0.9329(6) 0.3609(3)
C21_3 C 0.0674(11) 0.9770(7) 0.4423(4)
H16_3 H 0.0367 0.9512 0.4751
H17_3 H 0.0347 0.9938 0.4202
Zn1_4 Zn 1.00000(11) 0.67577(8) 0.3333
C22_3 C 0.8607(16) 0.4759(9) 0.3024(5)
H18_3 H 0.8496 0.4210 0.3149
H19_3 H 0.8934 0.4902 0.2696
H20_3 H 0.8076 0.4741 0.2956
C23_3 C 0.9506(8) 0.5781(6) 0.4311(3)
C24_3 C 0.9080(8) 0.5114(6) 0.3937(3)
C25_3 C 0.8718(9) 0.4268(6) 0.4086(4)
H21_3 H 0.8435 0.3833 0.3834
C26_3 C 0.8791(10) 0.4077(6) 0.4646(4)
C27_3 C 0.9146(11) 0.4724(7) 0.5008(4)
H22_3 H 0.9135 0.4595 0.5374
C28_3 C 0.9529(10) 0.5584(7) 0.4851(3)
H23_3 H 0.9795 0.6016 0.5107
C29_3 C 0.8500(10) 0.3201(7) 0.4824(4)
H24_3 H 0.8442 0.3103 0.5195
C30_3 C 0.8306(11) 0.2517(7) 0.4502(4)
H25_3 H 0.8319 0.2589 0.4128
C31_3 C 0.8080(8) 0.1681(6) 0.4710(3)
C32_3 C 0.8118(9) 0.1117(6) 0.4377(4)
H26_3 H 0.8198 0.1265 0.4012
C33_3 C 0.8053(9) 0.0325(7) 0.4508(3)
H27_3 H 0.8328 0.0035 0.3740
O7_3 O 0.9062(6) 0.5370(4) 0.3418(2)
O8_3 O 0.9870(6) 0.6575(4) 0.41247(19)
O18_2 O 0.9156(6) 0.7084(4) 0.3045(2)
O20_2 O 0.9180(6) 0.8351(4) 0.2532(2)
C34_3 C 0.8226(9) 0.9843(6) 0.4097(3)
C35_3 C 0.8240(9) 0.9131(7) 0.4229(4)
H28_3 H 0.8104 0.8952 0.4587
C36_3 C 0.8439(8) 0.8609(6) 0.3887(3)
C37_3 C 0.8419(9) 0.7914(7) 0.4128(4)
H29_3 H 0.8262 0.7801 0.4491
C38_3 C 0.8623(10) 0.7371(7) 0.3848(4)
H30_3 H 0.8569 0.6888 0.4018
C39_3 C 0.8911(8) 0.7552(6) 0.3310(3)
C40_3 C 0.8919(8) 0.8248(6) 0.3057(3)
C41_3 C 0.8686(8) 0.8768(6) 0.3341(4)
H31_2 H 0.8696 0.9227 0.3165
C42_3 C 0.9326(11) 0.9096(8) 0.2243(4)
H32_2 H 0.8789 0.9052 0.2155
H33_3 H 0.9633 0.9145 0.1915
H34_3 H 0.9653 0.9591 0.2464
H31_3 H 0.0773 0.9469 0.9832
H32_3 H 0.0948 0.9737 0.8822
H14_3 H 0.9469 0.0773 0.0168
H15_3 H 0.9737 0.0948 0.1178
loop_
_geom_bond_atom_site_label_1
_geom_bond_atom_site_label_2
_geom_bond_site_symmetry_1
_geom_bond_site_symmetry_2
C19 C18 1_555 1_555
H16 C21 1_555 1_555
H17 C21 1_555 1_555
O5 C18 1_555 1_555
O6 C19 1_555 1_555
H29 C37 1_555 1_555
C38 C37 1_555 1_555
H30 C38 1_555 1_555
Zn4 O5 1_555 1_555
Zn7 O5 1_555 1_555
C21 O6 1_555 1_555
O6 Zn7 1_555 1_555
H12 C16 1_555 1_555
C17 C16 1_555 1_555
H13 C17 1_555 1_555
C40 C39 1_555 1_555
H33 C42 1_555 1_555
H34 C42 1_555 1_555
O11 C39 1_555 1_555
O12 C40 1_555 1_555
Zn5 O11 1_555 1_555
C42 O12 1_555 1_555
O11 Zn4_2 1_555 1_555
O12 Zn5 1_555 1_555
C35 C34 1_555 1_555
H28 C35 1_555 1_555
C36 C35 1_555 1_555
C41 C36 1_555 1_555
C14 C13 1_555 1_555
H11 C14 1_555 1_555
C15 C14 1_555 1_555
C20 C15 1_555 1_555
C1 H1 1_555 1_555
H2 C1 1_555 1_555
H3 C1 1_555 1_555
C23 C24 1_555 1_555
C24 C25 1_555 1_555
C25 H21 1_555 1_555
C26 C25 1_555 1_555
C27 C26 1_555 1_555
H22 C27 1_555 1_555
C28 C23 1_555 1_555
H23 C28 1_555 1_555
C29 C26 1_555 1_555
H24 C29 1_555 1_555
C30 C29 1_555 1_555
H25 C30 1_555 1_555
C31 C30 1_555 1_555
C32 C31 1_555 1_555
H26 C32 1_555 1_555
C33 C32 1_555 1_555
O7 Zn4 1_555 1_555
O8 Zn4 1_555 1_555
O9 C31 1_555 1_555
Zn7 O8 1_555 1_555
O13 Zn7 1_555 1_555
O15 Zn7 1_555 1_555
Zn6 O9 1_555 1_555
C23 O8 1_555 1_555
C24 O7 1_555 1_555
C27 C28 1_555 1_555
C2 C3 1_555 1_555
C3 C4 1_555 1_555
C4 H4 1_555 1_555
C5 C4 1_555 1_555
C6 C5 1_555 1_555
H5 C6 1_555 1_555
C7 C2 1_555 1_555
H6 C7 1_555 1_555
C8 C5 1_555 1_555
H7 C8 1_555 1_555
C9 C8 1_555 1_555
H8 C9 1_555 1_555
C10 C9 1_555 1_555
C11 C10 1_555 1_555
H9 C11 1_555 1_555
C12 C11 1_555 1_555
O2 C2 1_555 1_555
O3 C10 1_555 1_555
Zn4_2 O1 1_555 1_555
Zn5 O2 1_555 1_555
C22 H18 1_555 1_555
H19 C22 1_555 1_555
H20 C22 1_555 1_555
O14 Zn5 1_555 1_555
O16 Zn5 1_555 1_555
Zn8 O3 1_555 1_555
C3 O1 1_555 1_555
C6 C7 1_555 1_555
O2 Zn4_2 1_555 1_555
C22_2 H18_2 1_555 1_555
H19_2 C22_2 1_555 1_555
H20_2 C22_2 1_555 1_555
C23_2 C24_2 1_555 1_555
C24_2 C25_2 1_555 1_555
C25_2 H21_2 1_555 1_555
C26_2 C25_2 1_555 1_555
C27_2 C26_2 1_555 1_555
H22_2 C27_2 1_555 1_555
C28_2 C23_2 1_555 1_555
H23_2 C28_2 1_555 1_555
C29_2 C26_2 1_555 1_555
H24_2 C29_2 1_555 1_555
C30_2 C29_2 1_555 1_555
H25_2 C30_2 1_555 1_555
C31_2 C30_2 1_555 1_555
C32_2 C31_2 1_555 1_555
H26_2 C32_2 1_555 1_555
C33_2 C32_2 1_555 1_555
C34_2 C33_2 1_555 1_555
H27_2 C34_2 1_555 1_555
C35_2 C34_2 1_555 1_555
H28_2 C35_2 1_555 1_555
C36_2 C35_2 1_555 1_555
C41_2 C36_2 1_555 1_555
H31 C41_2 1_555 1_555
O7_2 Zn1 1_555 1_555
O8_2 Zn1 1_555 1_555
O14 C31_2 1_555 1_555
O16 C33_2 1_555 1_555
O14_2 Zn2 1_555 1_555
O18 Zn1 1_555 1_555
O20 Zn2 1_555 1_555
Zn2 O18 1_555 1_555
C22_2 O7_2 1_555 1_555
C23_2 O8_2 1_555 1_555
C24_2 O7_2 1_555 1_555
C27_2 C28_2 1_555 1_555
C1_2 H1_2 1_555 1_555
H2_2 C1_2 1_555 1_555
H3_2 C1_2 1_555 1_555
C2_2 C3_2 1_555 1_555
C3_2 C4_2 1_555 1_555
C4_2 H4_2 1_555 1_555
C5_2 C4_2 1_555 1_555
C6_2 C5_2 1_555 1_555
H5_2 C6_2 1_555 1_555
C7_2 C2_2 1_555 1_555
H6_2 C7_2 1_555 1_555
C8_2 C5_2 1_555 1_555
H7_2 C8_2 1_555 1_555
C9_2 C8_2 1_555 1_555
H8_2 C9_2 1_555 1_555
C10_2 C9_2 1_555 1_555
C11_2 C10_2 1_555 1_555
H9_2 C11_2 1_555 1_555
C12_2 C11_2 1_555 1_555
O1_2 C1_2 1_555 1_555
O2_2 C2_2 1_555 1_555
O3_2 C10_2 1_555 1_555
Zn1_2 O1_2 1_555 1_555
O17 Zn1_2 1_555 1_555
O19 Zn8 1_555 1_555
Zn8_2 O3_2 1_555 1_555
C3_2 O1_2 1_555 1_555
C6_2 C7_2 1_555 1_555
O2_2 Zn1_2 1_555 1_555
Zn8 O17 1_555 1_555
H29_2 C37_2 1_555 1_555
C38_2 C37_2 1_555 1_555
H30_2 C38_2 1_555 1_555
C39_2 C38_2 1_555 1_555
C40_2 C39_2 1_555 1_555
H33_2 C42_2 1_555 1_555
H34_2 C42_2 1_555 1_555
O18 C39_2 1_555 1_555
O20 C40_2 1_555 1_555
C42_2 O20 1_555 1_555
C14_2 C13_2 1_555 1_555
H11_2 C14_2 1_555 1_555
C15_2 C14_2 1_555 1_555
C16_2 C15_2 1_555 1_555
H12_2 C16_2 1_555 1_555
C17_2 C16_2 1_555 1_555
H13_2 C17_2 1_555 1_555
C18_2 C17_2 1_555 1_555
C19_2 C18_2 1_555 1_555
C20_2 C15_2 1_555 1_555
H14 C20_2 1_555 1_555
C21_2 H15 1_555 1_555
H16_2 C21_2 1_555 1_555
H17_2 C21_2 1_555 1_555
O17 C18_2 1_555 1_555
O19 C19_2 1_555 1_555
C19_2 C20_2 1_555 1_555
C21_2 O19 1_555 1_555
C1_3 H1_3 1_555 1_555
H2_3 C1_3 1_555 1_555
H3_3 C1_3 1_555 1_555
C2_3 C3_3 1_555 1_555
C3_3 C4_3 1_555 1_555
C4_3 H4_3 1_555 1_555
C5_3 C4_3 1_555 1_555
C6_3 C5_3 1_555 1_555
H5_3 C6_3 1_555 1_555
C7_3 C2_3 1_555 1_555
H6_3 C7_3 1_555 1_555
C8_3 C5_3 1_555 1_555
H7_3 C8_3 1_555 1_555
C9_3 C8_3 1_555 1_555
H8_3 C9_3 1_555 1_555
C10_3 C9_3 1_555 1_555
C11_3 C10_3 1_555 1_555
H9_3 C11_3 1_555 1_555
C12_3 C11_3 1_555 1_555
C13_3 C12_3 1_555 1_555
H10_3 C13_3 1_555 1_555
C14_3 C13_3 1_555 1_555
H11_3 C14_3 1_555 1_555
C15_3 C14_3 1_555 1_555
C20_3 C15_3 1_555 1_555
H14_2 C20_3 1_555 1_555
O1_3 C1_3 1_555 1_555
O2_3 C2_3 1_555 1_555
O13 C10_3 1_555 1_555
O15 C12_3 1_555 1_555
Zn1_3 O1_3 1_555 1_555
O17_2 Zn1_3 1_555 1_555
O19_2 Zn8_2 1_555 1_555
C3_3 O1_3 1_555 1_555
C6_3 C7_3 1_555 1_555
O2_3 Zn1_3 1_555 1_555
Zn8_2 O17_2 1_555 1_555
H12_3 C16_3 1_555 1_555
C17_3 C16_3 1_555 1_555
H13_3 C17_3 1_555 1_555
C18_3 C17_3 1_555 1_555
C19_3 C18_3 1_555 1_555
H16_3 C21_3 1_555 1_555
H17_3 C21_3 1_555 1_555
O17_2 C18_3 1_555 1_555
O19_2 C19_3 1_555 1_555
C21_3 O19_2 1_555 1_555
C22_3 H18_3 1_555 1_555
H19_3 C22_3 1_555 1_555
H20_3 C22_3 1_555 1_555
C23_3 C24_3 1_555 1_555
C24_3 C25_3 1_555 1_555
C25_3 H21_3 1_555 1_555
C26_3 C25_3 1_555 1_555
C27_3 C26_3 1_555 1_555
H22_3 C27_3 1_555 1_555
C28_3 C23_3 1_555 1_555
H23_3 C28_3 1_555 1_555
C29_3 C26_3 1_555 1_555
H24_3 C29_3 1_555 1_555
C30_3 C29_3 1_555 1_555
H25_3 C30_3 1_555 1_555
C31_3 C30_3 1_555 1_555
C32_3 C31_3 1_555 1_555
H26_3 C32_3 1_555 1_555
C33_3 C32_3 1_555 1_555
O7_3 Zn1_4 1_555 1_555
O8_3 Zn1_4 1_555 1_555
O14_2 C31_3 1_555 1_555
O18_2 Zn1_4 1_555 1_555
O20_2 Zn6 1_555 1_555
Zn6 O18_2 1_555 1_555
C22_3 O7_3 1_555 1_555
C23_3 O8_3 1_555 1_555
C24_3 O7_3 1_555 1_555
C27_3 C28_3 1_555 1_555
C35_3 C34_3 1_555 1_555
H28_3 C35_3 1_555 1_555
C36_3 C35_3 1_555 1_555
C37_3 C36_3 1_555 1_555
H29_3 C37_3 1_555 1_555
C38_3 C37_3 1_555 1_555
H30_3 C38_3 1_555 1_555
C39_3 C38_3 1_555 1_555
C40_3 C39_3 1_555 1_555
C41_3 C36_3 1_555 1_555
H31_2 C41_3 1_555 1_555
C42_3 H32_2 1_555 1_555
H33_3 C42_3 1_555 1_555
H34_3 C42_3 1_555 1_555
O18_2 C39_3 1_555 1_555
O20_2 C40_3 1_555 1_555
C40_3 C41_3 1_555 1_555
C42_3 O20_2 1_555 1_555

#END
