
###############################################################################
#
# This file contains modified crystal structure data generated from the
# MOF subset of the Cambridge Structural Database (CSD) v543 
# hosted by the Cambridge Crystallographic Data Centre (CCDC).
#
# This work is licensed under the Creative Commons
# Attribution-NonCommercial-ShareAlike 4.0 International License.
# To view a copy of this license, visit
# http://creativecommons.org/licenses/by-nc-sa/4.0/
# or send a letter to
# Creative Commons, PO Box 1866, Mountain View, CA 94042, USA.
#
# CIF created using the CSD Python API on 29 September 2022
# The structure has been converted into the P1 space group
# The structure has a 3D framework
# The original CSD entry CUBCAG is in the monoclinic crystal system
# The framework has been calculated to contain at least 10.0% void space
# The void calculation uses a probe of radius 1.32A, grid spacing 0.4
#
###############################################################################

data_CUBCAG
_chemical_formula_moiety         '(C180 H128 Cd8 N80 O36)n'
_symmetry_cell_setting           triclinic
_symmetry_space_group_name_H-M   'P 1'
_symmetry_Int_Tables_number      1
_space_group_name_Hall           'P 1'
loop_
_symmetry_equiv_pos_site_id
_symmetry_equiv_pos_as_xyz
1 x,y,z
_cell_length_a                   32.1445(9)
_cell_length_b                   8.4739(2)
_cell_length_c                   30.3835(10)
_cell_angle_alpha                90
_cell_angle_beta                 117.571(4)
_cell_angle_gamma                90
_cell_volume                     7336.28
loop_
_atom_site_label
_atom_site_type_symbol
_atom_site_fract_x
_atom_site_fract_y
_atom_site_fract_z
Cd1 Cd 0.03823(3) 0.62554(10) 0.56200(3)
O2 O 0.0961(3) 0.4702(11) 0.6214(3)
H1 H 0.087478 0.372080 0.617652
H2 H 0.099454 0.493661 0.650669
H15 H 0.013247 0.356477 0.613905
O10 O 0.0246(3) 0.3690(10) 0.5210(3)
N21 N 0.0697(3) 0.8365(12) 0.6141(4)
N22 N 0.0841(3) 0.6872(12) 0.5252(4)
Cd2 Cd 0.53279(4) 0.6558(2) 0.56571(7)
O1 O 0.9754(3) 0.6310(10) 0.4790(3)
N1 N 0.1495(3) 0.9424(12) 0.4220(3)
N2 N 0.8997(3) 0.1933(12) 0.7448(4)
N3 N 0.2155(3) 0.8067(14) 0.4856(4)
O3 O 0.9753(3) 0.8556(10) 0.5116(3)
N4 N 0.7589(3) 0.2987(15) 0.6777(4)
N7 N 0.9091(3) 0.3294(13) 0.6836(4)
N8 N 0.8432(3) 0.4581(13) 0.6170(4)
N9 N 0.9825(3) 0.5617(11) 0.5861(3)
N10 N 0.7690(3) 0.4467(13) 0.6140(4)
N11 N 0.8230(3) 0.1709(13) 0.7405(4)
O4 O 0.9253(4) 0.8093(12) 0.4357(4)
N13 N 0.9577(3) 0.7682(12) 0.4748(4)
N14 N 0.2894(3) 0.8201(15) 0.4889(4)
C1 C 0.9432(6) 0.6497(14) 0.5784(5)
H3 H 0.936382 0.742069 0.558531
C2 C 0.8815(4) 0.2768(14) 0.7025(4)
N16 N 0.3000(4) 0.9751(15) 0.4276(4)
C3 C 0.1701(4) 0.8504(15) 0.4621(5)
C4 C 0.1775(4) 0.9996(14) 0.4021(4)
C5 C 0.1401(4) 0.7919(15) 0.4835(4)
C6 C 0.8335(4) 0.3118(14) 0.6785(4)
C7 C 0.8698(4) 0.1446(14) 0.7614(4)
C8 C 0.8884(4) 0.4156(14) 0.6418(4)
C9 C 0.8044(4) 0.2558(16) 0.6988(5)
C10 C 0.2250(4) 0.9557(15) 0.4249(4)
C11 C 0.9389(4) 0.0309(15) 0.8336(4)
H4 H 0.959033 0.091483 0.825144
C14 C 0.8147(4) 0.4069(15) 0.6355(5)
C16 C 0.7442(4) 0.3892(17) 0.6363(5)
C17 C 0.1040(5) 0.8826(17) 0.4830(5)
H6 H 0.097385 0.983240 0.467438
C19 C 0.8905(4) 0.0461(14) 0.8066(4)
C20 C 0.2432(4) 0.8607(16) 0.4666(4)
C21 C 0.9583(5) 0.3750(17) 0.6287(6)
H7 H 0.964072 0.278086 0.646317
C24 C 0.9194(4) 0.4683(14) 0.6220(4)
N18 N 0.6036(4) 0.554(2) 0.5818(6)
C26 C 0.3638(5) 0.8312(18) 0.4910(5)
C27 C 0.1187(5) 0.5968(16) 0.5258(5)
H11 H 0.123893 0.495505 0.540758
C29 C 0.0782(5) 0.8283(15) 0.5046(6)
H13 H 0.054644 0.895110 0.504953
C30 C 0.9143(5) 0.6109(17) 0.5974(5)
H14 H 0.890142 0.681776 0.594044
C31 C 0.3143(4) 0.8793(18) 0.4675(5)
C32 C 0.9880(5) 0.4234(17) 0.6099(5)
N19 N 0.4586(4) 0.744(2) 0.5374(6)
C34 C 0.6948(5) 0.4410(19) 0.6151(6)
O5 O 0.5658(5) 0.8969(19) 0.5954(7)
H17 H 0.584(6) 0.952(10) 0.588(6)
C36 C 0.1476(5) 0.6464(17) 0.5050(5)
H19 H 0.171853 0.579981 0.506006
C37 C 0.3802(5) 0.706(3) 0.5244(7)
H20 H 0.358504 0.645951 0.530758
C38 C 0.6636(5) 0.365(2) 0.6269(9)
H21 H 0.672570 0.271076 0.646038
C39 C 0.6192(5) 0.426(3) 0.6108(9)
H22 H 0.598651 0.373870 0.620614
C40 C 0.6807(5) 0.576(2) 0.5852(7)
H23 H 0.701886 0.629890 0.576797
C41 C 0.4423(7) 0.853(3) 0.5038(7)
H24 H 0.463719 0.901545 0.494466
C42 C 0.3957(6) 0.905(2) 0.4802(7)
H25 H 0.386434 0.989489 0.457062
C43 C 0.6354(7) 0.628(3) 0.5684(9)
H26 H 0.625160 0.716528 0.546808
O6 O 0.5412(7) 0.602(3) 0.6420(8)
H27 H 0.574531 0.595803 0.670997
H28 H 0.530941 0.494691 0.647577
C44 C 0.4263(7) 0.667(3) 0.5478(10)
H29 H 0.436623 0.584834 0.571965
O7 O 0.5371(6) 0.785(3) 0.4907(8)
O8 O 0.5011(9) 0.568(3) 0.4747(11)
N20 N 0.5150(11) 0.683(3) 0.4605(11)
C45 C 0.5510(11) 0.990(5) 0.6249(13)
H32 H 0.554523 0.928650 0.653733
O9 O 0.5115(15) 0.670(4) 0.4191(11)
Cd5 Cd 0.96177(3) 0.37446(10) 0.43800(3)
Cd6 Cd 0.46721(4) 0.3442(2) 0.43429(7)
O11 O 0.4989(9) 0.432(3) 0.5253(11)
C12 C 0.1164(5) 0.8567(15) 0.6392(5)
H5 H 0.135716 0.796801 0.629510
C23 C 0.0427(5) 0.9263(16) 0.6272(5)
H9 H 0.009593 0.917410 0.608609
C33 C 0.1376(5) 0.9607(15) 0.6786(5)
H16 H 0.170775 0.973097 0.695106
N1_2 N 0.8505(3) 0.0576(12) 0.5780(3)
N2_2 N 0.1003(3) 0.8067(12) 0.2552(4)
N3_2 N 0.7845(3) 0.1933(14) 0.5144(4)
O3_2 O 0.0247(3) 0.1444(10) 0.4884(3)
N4_2 N 0.2411(3) 0.7013(15) 0.3223(4)
N7_2 N 0.0909(3) 0.6706(13) 0.3164(4)
N8_2 N 0.1568(3) 0.5419(13) 0.3830(4)
N9_2 N 0.0175(3) 0.4383(11) 0.4139(3)
N10_2 N 0.2310(3) 0.5533(13) 0.3860(4)
N11_2 N 0.1770(3) 0.8291(13) 0.2595(4)
O4_2 O 0.0747(4) 0.1907(12) 0.5643(4)
N13_2 N 0.0423(3) 0.2318(12) 0.5252(4)
N14_2 N 0.7106(3) 0.1799(15) 0.5111(4)
C1_2 C 0.0568(6) 0.3503(14) 0.4216(5)
H3_2 H 0.063618 0.257931 0.441469
C2_2 C 0.1185(4) 0.7232(14) 0.2975(4)
N15 N 0.9159(3) 0.3128(12) 0.4748(4)
N16_2 N 0.7000(4) 0.0249(15) 0.5724(4)
C3_2 C 0.8299(4) 0.1496(15) 0.5379(5)
C4_2 C 0.8225(4) 0.0004(14) 0.5979(4)
C5_2 C 0.8599(4) 0.2081(15) 0.5165(4)
C6_2 C 0.1665(4) 0.6882(14) 0.3215(4)
C7_2 C 0.1302(4) 0.8554(14) 0.2386(4)
C8_2 C 0.1116(4) 0.5844(14) 0.3582(4)
C9_2 C 0.1956(4) 0.7442(16) 0.3012(5)
C10_2 C 0.7750(4) 0.0443(15) 0.5751(4)
C11_2 C 0.0611(4) 0.9691(15) 0.1664(4)
H4_2 H 0.040967 0.908517 0.174856
C14_2 C 0.1853(4) 0.5931(15) 0.3645(5)
C16_2 C 0.2558(4) 0.6108(17) 0.3637(5)
C17_2 C 0.8960(5) 0.1174(17) 0.5170(5)
H6_2 H 0.902615 0.016760 0.532562
C19_2 C 0.1095(4) 0.9539(14) 0.1934(4)
C20_2 C 0.7568(4) 0.1393(16) 0.5334(4)
C21_2 C 0.0417(5) 0.6250(17) 0.3713(6)
H7_2 H 0.035928 0.721914 0.353683
C24_2 C 0.0806(4) 0.5317(14) 0.3780(4)
N18_2 N 0.3964(4) 0.446(2) 0.4182(6)
C26_2 C 0.6362(5) 0.1688(18) 0.5090(5)
C27_2 C 0.8813(5) 0.4032(16) 0.4742(5)
H11_2 H 0.876107 0.504495 0.459242
C29_2 C 0.9218(5) 0.1717(15) 0.4954(6)
H13_2 H 0.945356 0.104890 0.495047
C30_2 C 0.0857(5) 0.3891(17) 0.4026(5)
H14_2 H 0.109858 0.318224 0.405956
C31_2 C 0.6857(4) 0.1207(18) 0.5325(5)
C32_2 C 0.0120(5) 0.5766(17) 0.3901(5)
N19_2 N 0.5414(4) 0.256(2) 0.4626(6)
C34_2 C 0.3052(5) 0.5590(19) 0.3849(6)
O5_2 O 0.4342(5) 0.1031(19) 0.4046(7)
H17_2 H 0.416(6) 0.048(10) 0.412(6)
C36_2 C 0.8524(5) 0.3536(17) 0.4950(5)
H19_2 H 0.828147 0.420019 0.493994
C37_2 C 0.6198(5) 0.294(3) 0.4756(7)
H20_2 H 0.641496 0.354049 0.469242
C38_2 C 0.3364(5) 0.635(2) 0.3731(9)
H21_2 H 0.327430 0.728924 0.353962
C39_2 C 0.3808(5) 0.574(3) 0.3892(9)
H22_2 H 0.401349 0.626130 0.379386
C40_2 C 0.3193(5) 0.424(2) 0.4148(7)
H23_2 H 0.298114 0.370110 0.423203
C41_2 C 0.5577(7) 0.147(3) 0.4962(7)
H24_2 H 0.536281 0.098455 0.505534
C42_2 C 0.6043(6) 0.095(2) 0.5198(7)
H25_2 H 0.613566 0.010511 0.542938
C43_2 C 0.3646(7) 0.372(3) 0.4316(9)
H26_2 H 0.374840 0.283472 0.453192
O6_2 O 0.4588(7) 0.398(3) 0.3580(8)
H27_2 H 0.425469 0.404197 0.329003
H28_2 H 0.469059 0.505309 0.352423
C44_2 C 0.5737(7) 0.333(3) 0.4522(10)
H29_2 H 0.563377 0.415166 0.428035
O7_2 O 0.4629(6) 0.215(3) 0.5093(8)
N20_2 N 0.4850(11) 0.317(3) 0.5395(11)
C45_2 C 0.4490(11) 0.010(5) 0.3751(13)
H32_2 H 0.445477 0.071350 0.346267
O9_2 O 0.4885(15) 0.330(4) 0.5809(11)
O2_2 O 0.9039(3) 0.5298(11) 0.3786(3)
H1_2 H 0.912522 0.627920 0.382348
H2_2 H 0.900546 0.506339 0.349331
H15_2 H 0.986753 0.643523 0.386095
N21_2 N 0.9303(3) 0.1635(12) 0.3859(4)
C12_2 C 0.8836(5) 0.1433(15) 0.3608(5)
H5_2 H 0.864284 0.203199 0.370490
C23_2 C 0.9573(5) 0.0737(16) 0.3728(5)
H9_2 H 0.990407 0.082590 0.391391
C33_2 C 0.8624(5) 0.0393(15) 0.3214(5)
H16_2 H 0.829225 0.026903 0.304894
N6 N 0.1593(3) 0.0893(12) 0.3614(4)
N12 N 0.1341(4) 0.4404(15) 0.2176(4)
C13 C 0.2542(4) 0.0142(17) 0.4063(5)
C15 C 0.1894(4) 0.1418(15) 0.3462(4)
N17 N 0.2364(3) 0.1053(14) 0.3655(4)
C18 C 0.1698(4) 0.2448(16) 0.3019(4)
C22 C 0.1985(5) 0.3087(17) 0.2836(5)
H8 H 0.231275 0.287601 0.299558
C25 C 0.1062(5) 0.3775(17) 0.2356(5)
H10 H 0.073533 0.400115 0.218720
C28 C 0.1230(4) 0.2813(17) 0.2776(5)
H12 H 0.102207 0.241619 0.289208
C35 C 0.1786(6) 0.4043(18) 0.2415(5)
H18 H 0.198755 0.445964 0.229355
H30 H 0.518041 0.019813 0.604929
H31 H 0.570369 0.085401 0.636152
N5 N 0.9303(3) 0.8365(12) 0.8859(4)
C12_3 C 0.8836(5) 0.8567(15) 0.8608(5)
H5_3 H 0.864284 0.796801 0.870490
C23_3 C 0.9573(5) 0.9263(16) 0.8728(5)
H9_3 H 0.990407 0.917410 0.891391
C33_3 C 0.8624(5) 0.9607(15) 0.8214(5)
H16_3 H 0.829225 0.973097 0.804894
Cd4 Cd 0.96177(3) 0.62554(10) 0.93800(3)
Cd2_2 Cd 0.46721(4) 0.6558(2) 0.93429(7)
N2_3 N 0.1003(3) 0.1933(12) 0.7552(4)
O3_3 O 0.0247(3) 0.8556(10) 0.9884(3)
N4_3 N 0.2411(3) 0.2987(15) 0.8223(4)
N7_3 N 0.0909(3) 0.3294(13) 0.8164(4)
N8_3 N 0.1568(3) 0.4581(13) 0.8830(4)
N9_3 N 0.0175(3) 0.5617(11) 0.9139(3)
N10_3 N 0.2310(3) 0.4467(13) 0.8860(4)
N11_3 N 0.1770(3) 0.1709(13) 0.7595(4)
C1_3 C 0.0568(6) 0.6497(14) 0.9216(5)
H3_3 H 0.063618 0.742069 0.941469
C2_3 C 0.1185(4) 0.2768(14) 0.7975(4)
N15_2 N 0.9159(3) 0.6872(12) 0.9748(4)
C6_3 C 0.1665(4) 0.3118(14) 0.8215(4)
C7_3 C 0.1302(4) 0.1446(14) 0.7386(4)
C8_3 C 0.1116(4) 0.4156(14) 0.8582(4)
C9_3 C 0.1956(4) 0.2558(16) 0.8012(5)
C11_3 C 0.0611(4) 0.0309(15) 0.6664(4)
H4_3 H 0.040967 0.091483 0.674856
C14_3 C 0.1853(4) 0.4069(15) 0.8645(5)
C16_3 C 0.2558(4) 0.3892(17) 0.8637(5)
C19_3 C 0.1095(4) 0.0461(14) 0.6934(4)
C21_3 C 0.0417(5) 0.3750(17) 0.8713(6)
H7_3 H 0.035928 0.278086 0.853683
C24_3 C 0.0806(4) 0.4683(14) 0.8780(4)
N18_3 N 0.3964(4) 0.554(2) 0.9182(6)
C27_3 C 0.8813(5) 0.5968(16) 0.9742(5)
H11_3 H 0.876107 0.495505 0.959242
C29_3 C 0.9218(5) 0.8283(15) 0.9954(6)
H13_3 H 0.945356 0.895110 0.995047
C30_3 C 0.0857(5) 0.6109(17) 0.9026(5)
H14_3 H 0.109858 0.681776 0.905956
C32_3 C 0.0120(5) 0.4234(17) 0.8901(5)
N19_3 N 0.5414(4) 0.744(2) 0.9626(6)
C34_3 C 0.3052(5) 0.4410(19) 0.8849(6)
O5_3 O 0.4342(5) 0.8969(19) 0.9046(7)
H17_3 H 0.416(6) 0.952(10) 0.912(6)
C36_3 C 0.8524(5) 0.6464(17) 0.9950(5)
H19_3 H 0.828147 0.579981 0.993994
C37_3 C 0.6198(5) 0.706(3) 0.9756(7)
H20_3 H 0.641496 0.645951 0.969242
C38_3 C 0.3364(5) 0.365(2) 0.8731(9)
H21_3 H 0.327430 0.271076 0.853962
C39_3 C 0.3808(5) 0.426(3) 0.8892(9)
H22_3 H 0.401349 0.373870 0.879386
C40_3 C 0.3193(5) 0.576(2) 0.9148(7)
H23_3 H 0.298114 0.629890 0.923203
C41_3 C 0.5577(7) 0.853(3) 0.9962(7)
C43_3 C 0.3646(7) 0.628(3) 0.9316(9)
H26_3 H 0.374840 0.716528 0.953192
O6_3 O 0.4588(7) 0.602(3) 0.8580(8)
H27_3 H 0.425469 0.595803 0.829003
H28_3 H 0.469059 0.494691 0.852423
C44_3 C 0.5737(7) 0.667(3) 0.9522(10)
H29_3 H 0.563377 0.584834 0.928035
C45_3 C 0.4490(11) 0.990(5) 0.8751(13)
H32_3 H 0.445477 0.928650 0.846267
O11_2 O 0.5011(9) 0.432(3) 0.9747(11)
O2_3 O 0.9039(3) 0.4702(11) 0.8786(3)
H1_3 H 0.912522 0.372080 0.882348
H2_3 H 0.900546 0.493661 0.849331
H15_3 H 0.986753 0.356477 0.886095
O10_2 O 0.9754(3) 0.3690(10) 0.9790(3)
N1_3 N 0.1495(3) 0.0576(12) 0.9220(3)
N3_3 N 0.2155(3) 0.1933(14) 0.9856(4)
O4_3 O 0.9253(4) 0.1907(12) 0.9357(4)
N13_3 N 0.9577(3) 0.2318(12) 0.9748(4)
N14_3 N 0.2894(3) 0.1799(15) 0.9889(4)
N16_3 N 0.3000(4) 0.0249(15) 0.9276(4)
C3_3 C 0.1701(4) 0.1496(15) 0.9621(5)
C4_3 C 0.1775(4) 0.0004(14) 0.9021(4)
C5_3 C 0.1401(4) 0.2081(15) 0.9835(4)
C10_3 C 0.2250(4) 0.0443(15) 0.9249(4)
C17_3 C 0.1040(5) 0.1174(17) 0.9830(5)
H6_3 H 0.097385 0.016760 0.967438
C20_3 C 0.2432(4) 0.1393(16) 0.9666(4)
C26_3 C 0.3638(5) 0.1688(18) 0.9910(5)
C31_3 C 0.3143(4) 0.1207(18) 0.9675(5)
H24_3 H 0.463719 0.098455 0.994466
C42_3 C 0.3957(6) 0.095(2) 0.9802(7)
H25_3 H 0.386434 0.010511 0.957062
O7_3 O 0.5371(6) 0.215(3) 0.9907(8)
N20_3 N 0.5150(11) 0.317(3) 0.9605(11)
O9_3 O 0.5115(15) 0.330(4) 0.9191(11)
N6_2 N 0.8407(3) 0.0893(12) 0.1386(4)
N12_2 N 0.8659(4) 0.4404(15) 0.2824(4)
C13_2 C 0.7458(4) 0.0142(17) 0.0937(5)
C15_2 C 0.8106(4) 0.1418(15) 0.1538(4)
N17_2 N 0.7636(3) 0.1053(14) 0.1345(4)
C18_2 C 0.8302(4) 0.2448(16) 0.1981(4)
C22_2 C 0.8015(5) 0.3087(17) 0.2164(5)
H8_2 H 0.768725 0.287601 0.200442
C25_2 C 0.8938(5) 0.3775(17) 0.2644(5)
H10_2 H 0.926467 0.400115 0.281280
C28_2 C 0.8770(4) 0.2813(17) 0.2224(5)
H12_2 H 0.897793 0.241619 0.210792
C35_2 C 0.8214(6) 0.4043(18) 0.2585(5)
H18_2 H 0.801245 0.445964 0.270645
H30_2 H 0.481959 0.019813 0.895071
H31_2 H 0.429631 0.085401 0.863848
O1_2 O 0.0246(3) 0.6310(10) 0.0210(3)
N1_4 N 0.8505(3) 0.9424(12) 0.0780(3)
N3_4 N 0.7845(3) 0.8067(14) 0.0144(4)
O4_4 O 0.0747(4) 0.8093(12) 0.0643(4)
N13_4 N 0.0423(3) 0.7682(12) 0.0252(4)
N14_4 N 0.7106(3) 0.8201(15) 0.0111(4)
N16_4 N 0.7000(4) 0.9751(15) 0.0724(4)
C3_4 C 0.8299(4) 0.8504(15) 0.0379(5)
C4_4 C 0.8225(4) 0.9996(14) 0.0979(4)
C5_4 C 0.8599(4) 0.7919(15) 0.0165(4)
C10_4 C 0.7750(4) 0.9557(15) 0.0751(4)
C17_4 C 0.8960(5) 0.8826(17) 0.0170(5)
H6_4 H 0.902615 0.983240 0.032562
C20_4 C 0.7568(4) 0.8607(16) 0.0334(4)
C26_4 C 0.6362(5) 0.8312(18) 0.0090(5)
C31_4 C 0.6857(4) 0.8793(18) 0.0325(5)
H24_4 H 0.536281 0.901545 0.005534
C42_4 C 0.6043(6) 0.905(2) 0.0198(7)
H25_4 H 0.613566 0.989489 0.042938
O7_4 O 0.4629(6) 0.785(3) 0.0093(8)
O8_2 O 0.4989(9) 0.568(3) 0.0253(11)
N20_4 N 0.4850(11) 0.683(3) 0.0395(11)
O9_4 O 0.4885(15) 0.670(4) 0.0809(11)
Cd5_2 Cd 0.03823(3) 0.37446(10) 0.06200(3)
Cd6_2 Cd 0.53279(4) 0.3442(2) 0.06571(7)
N5_2 N 0.0697(3) 0.1635(12) 0.1141(4)
C12_4 C 0.1164(5) 0.1433(15) 0.1392(5)
H5_4 H 0.135716 0.203199 0.129510
C23_4 C 0.0427(5) 0.0737(16) 0.1272(5)
H9_4 H 0.009593 0.082590 0.108609
C33_4 C 0.1376(5) 0.0393(15) 0.1786(5)
H16_4 H 0.170775 0.026903 0.195106
O2_4 O 0.0961(3) 0.5298(11) 0.1214(3)
H1_4 H 0.087478 0.627920 0.117652
H2_4 H 0.099454 0.506339 0.150669
H15_4 H 0.013247 0.643523 0.113905
N22_2 N 0.0841(3) 0.3128(12) 0.0252(4)
N2_4 N 0.8997(3) 0.8067(12) 0.2448(4)
O3_4 O 0.9753(3) 0.1444(10) 0.0116(3)
N4_4 N 0.7589(3) 0.7013(15) 0.1777(4)
N7_4 N 0.9091(3) 0.6706(13) 0.1836(4)
N8_4 N 0.8432(3) 0.5419(13) 0.1170(4)
N9_4 N 0.9825(3) 0.4383(11) 0.0861(3)
N10_4 N 0.7690(3) 0.5533(13) 0.1140(4)
N11_4 N 0.8230(3) 0.8291(13) 0.2405(4)
C1_4 C 0.9432(6) 0.3503(14) 0.0784(5)
H3_4 H 0.936382 0.257931 0.058531
C2_4 C 0.8815(4) 0.7232(14) 0.2025(4)
C6_4 C 0.8335(4) 0.6882(14) 0.1785(4)
C7_4 C 0.8698(4) 0.8554(14) 0.2614(4)
C8_4 C 0.8884(4) 0.5844(14) 0.1418(4)
C9_4 C 0.8044(4) 0.7442(16) 0.1988(5)
C11_4 C 0.9389(4) 0.9691(15) 0.3336(4)
H4_4 H 0.959033 0.908517 0.325144
C14_4 C 0.8147(4) 0.5931(15) 0.1355(5)
C16_4 C 0.7442(4) 0.6108(17) 0.1363(5)
C19_4 C 0.8905(4) 0.9539(14) 0.3066(4)
C21_4 C 0.9583(5) 0.6250(17) 0.1287(6)
H7_4 H 0.964072 0.721914 0.146317
C24_4 C 0.9194(4) 0.5317(14) 0.1220(4)
N18_4 N 0.6036(4) 0.446(2) 0.0818(6)
C27_4 C 0.1187(5) 0.4032(16) 0.0258(5)
H11_4 H 0.123893 0.504495 0.040758
C29_4 C 0.0782(5) 0.1717(15) 0.0046(6)
H13_4 H 0.054644 0.104890 0.004953
C30_4 C 0.9143(5) 0.3891(17) 0.0974(5)
H14_4 H 0.890142 0.318224 0.094044
C32_4 C 0.9880(5) 0.5766(17) 0.1099(5)
N19_4 N 0.4586(4) 0.256(2) 0.0374(6)
C34_4 C 0.6948(5) 0.5590(19) 0.1151(6)
O5_4 O 0.5658(5) 0.1031(19) 0.0954(7)
H17_4 H 0.584(6) 0.048(10) 0.088(6)
C36_4 C 0.1476(5) 0.3536(17) 0.0050(5)
H19_4 H 0.171853 0.420019 0.006006
C37_4 C 0.3802(5) 0.294(3) 0.0244(7)
H20_4 H 0.358504 0.354049 0.030758
C38_4 C 0.6636(5) 0.635(2) 0.1269(9)
H21_4 H 0.672570 0.728924 0.146038
C39_4 C 0.6192(5) 0.574(3) 0.1108(9)
H22_4 H 0.598651 0.626130 0.120614
C40_4 C 0.6807(5) 0.424(2) 0.0852(7)
H23_4 H 0.701886 0.370110 0.076797
C41_4 C 0.4423(7) 0.147(3) 0.0038(7)
C43_4 C 0.6354(7) 0.372(3) 0.0684(9)
H26_4 H 0.625160 0.283472 0.046808
O6_4 O 0.5412(7) 0.398(3) 0.1420(8)
H27_4 H 0.574531 0.404197 0.170997
H28_4 H 0.530941 0.505309 0.147577
C44_4 C 0.4263(7) 0.333(3) 0.0478(10)
H29_4 H 0.436623 0.415166 0.071965
C45_4 C 0.5510(11) 0.010(5) 0.1249(13)
H32_4 H 0.554523 0.071350 0.153733
N6_3 N 0.8407(3) 0.9107(12) 0.6386(4)
N12_3 N 0.8659(4) 0.5596(15) 0.7824(4)
C13_3 C 0.7458(4) 0.9858(17) 0.5937(5)
C15_3 C 0.8106(4) 0.8582(15) 0.6538(4)
N17_3 N 0.7636(3) 0.8947(14) 0.6345(4)
C18_3 C 0.8302(4) 0.7552(16) 0.6981(4)
C22_3 C 0.8015(5) 0.6913(17) 0.7164(5)
H8_3 H 0.768725 0.712399 0.700442
C25_3 C 0.8938(5) 0.6225(17) 0.7644(5)
H10_3 H 0.926467 0.599885 0.781280
C28_3 C 0.8770(4) 0.7187(17) 0.7224(5)
H12_3 H 0.897793 0.758381 0.710792
C35_3 C 0.8214(6) 0.5957(18) 0.7585(5)
H18_3 H 0.801245 0.554036 0.770645
H30_3 H 0.481959 0.980187 0.395071
H31_3 H 0.429631 0.914599 0.363848
H30_4 H 0.518041 0.980187 0.104929
H31_4 H 0.570369 0.914599 0.136152
N6_4 N 0.1593(3) 0.9107(12) 0.8614(4)
N12_4 N 0.1341(4) 0.5596(15) 0.7176(4)
C13_4 C 0.2542(4) 0.9858(17) 0.9063(5)
C15_4 C 0.1894(4) 0.8582(15) 0.8462(4)
N17_4 N 0.2364(3) 0.8947(14) 0.8655(4)
C18_4 C 0.1698(4) 0.7552(16) 0.8019(4)
C22_4 C 0.1985(5) 0.6913(17) 0.7836(5)
H8_4 H 0.231275 0.712399 0.799558
C25_4 C 0.1062(5) 0.6225(17) 0.7356(5)
H10_4 H 0.073533 0.599885 0.718720
C28_4 C 0.1230(4) 0.7187(17) 0.7776(5)
H12_4 H 0.102207 0.758381 0.789208
C35_4 C 0.1786(6) 0.5957(18) 0.7415(5)
H18_4 H 0.198755 0.554036 0.729355
loop_
_geom_bond_atom_site_label_1
_geom_bond_atom_site_label_2
_geom_bond_site_symmetry_1
_geom_bond_site_symmetry_2
O2 Cd1 1_555 1_555
H1 O2 1_555 1_555
H2 O2 1_555 1_555
O10 Cd1 1_555 1_555
N21 Cd1 1_555 1_555
N22 Cd1 1_555 1_555
Cd2 N18 1_555 1_555
O1 N13 1_555 1_555
N1 C3 1_555 1_555
N2 C2 1_555 1_555
N3 C3 1_555 1_555
N4 C9 1_555 1_555
N7 C2 1_555 1_555
N8 C8 1_555 1_555
N10 C14 1_555 1_555
N11 C7 1_555 1_555
O4 N13 1_555 1_555
N13 O3 1_555 1_555
N14 C20 1_555 1_555
C1 N9 1_555 1_555
H3 C1 1_555 1_555
C2 C6 1_555 1_555
N22 C27 1_555 1_555
C3 C5 1_555 1_555
C4 N1 1_555 1_555
C5 C17 1_555 1_555
C6 C9 1_555 1_555
C7 N2 1_555 1_555
C8 N7 1_555 1_555
C9 N11 1_555 1_555
C10 C4 1_555 1_555
C11 H4 1_555 1_555
C14 N8 1_555 1_555
C16 N4 1_555 1_555
C17 H6 1_555 1_555
C19 C7 1_555 1_555
C20 N3 1_555 1_555
C21 H7 1_555 1_555
C24 C8 1_555 1_555
N18 C39 1_555 1_555
C26 C31 1_555 1_555
C27 H11 1_555 1_555
C29 N22 1_555 1_555
H13 C29 1_555 1_555
C30 C1 1_555 1_555
H14 C30 1_555 1_555
C31 N14 1_555 1_555
C32 N9 1_555 1_555
N19 Cd2 1_555 1_555
C34 C16 1_555 1_555
O5 Cd2 1_555 1_555
H17 O5 1_555 1_555
C36 C5 1_555 1_555
H19 C36 1_555 1_555
C37 C26 1_555 1_555
H20 C37 1_555 1_555
C38 C34 1_555 1_555
H21 C38 1_555 1_555
C39 C38 1_555 1_555
H22 C39 1_555 1_555
C40 C34 1_555 1_555
H23 C40 1_555 1_555
C41 N19 1_555 1_555
H24 C41 1_555 1_555
C42 C26 1_555 1_555
H25 C42 1_555 1_555
C43 N18 1_555 1_555
H26 C43 1_555 1_555
O6 Cd2 1_555 1_555
H27 O6 1_555 1_555
H28 O6 1_555 1_555
C44 N19 1_555 1_555
H29 C44 1_555 1_555
O7 Cd2 1_555 1_555
O8 Cd2 1_555 1_555
N20 O7 1_555 1_555
C45 O5 1_555 1_555
H32 C45 1_555 1_555
O9 N20 1_555 1_555
Cd5 O1 1_555 1_555
Cd6 O8 1_555 1_555
O11 Cd2 1_555 1_555
N10 C16 1_555 1_555
N16 C31 1_555 1_555
C6 C14 1_555 1_555
C10 C20 1_555 1_555
C11 C19 1_555 1_555
C17 C29 1_555 1_555
C21 C24 1_555 1_555
C21 C32 1_555 1_555
C24 C30 1_555 1_555
C27 C36 1_555 1_555
C37 C44 1_555 1_555
C40 C43 1_555 1_555
C41 C42 1_555 1_555
O8 N20 1_555 1_555
Cd6 O11 1_555 1_555
N21 C12 1_555 1_555
C12 H5 1_555 1_555
C23 N21 1_555 1_555
H9 C23 1_555 1_555
C33 C12 1_555 1_555
H16 C33 1_555 1_555
Cd6 N18_2 1_555 1_555
O10 N13_2 1_555 1_555
N1_2 C3_2 1_555 1_555
N2_2 C2_2 1_555 1_555
N3_2 C3_2 1_555 1_555
N4_2 C9_2 1_555 1_555
N7_2 C2_2 1_555 1_555
N8_2 C8_2 1_555 1_555
N10_2 C14_2 1_555 1_555
N11_2 C7_2 1_555 1_555
O4_2 N13_2 1_555 1_555
N13_2 O3_2 1_555 1_555
N14_2 C20_2 1_555 1_555
C1_2 N9_2 1_555 1_555
H3_2 C1_2 1_555 1_555
C2_2 C6_2 1_555 1_555
N15 C27_2 1_555 1_555
C3_2 C5_2 1_555 1_555
C4_2 N1_2 1_555 1_555
C5_2 C17_2 1_555 1_555
C6_2 C9_2 1_555 1_555
C7_2 N2_2 1_555 1_555
C8_2 N7_2 1_555 1_555
C9_2 N11_2 1_555 1_555
C10_2 C4_2 1_555 1_555
C11_2 H4_2 1_555 1_555
C14_2 N8_2 1_555 1_555
C16_2 N4_2 1_555 1_555
C17_2 H6_2 1_555 1_555
C19_2 C7_2 1_555 1_555
C20_2 N3_2 1_555 1_555
C21_2 H7_2 1_555 1_555
C24_2 C8_2 1_555 1_555
N18_2 C39_2 1_555 1_555
C26_2 C31_2 1_555 1_555
C27_2 H11_2 1_555 1_555
C29_2 N15 1_555 1_555
H13_2 C29_2 1_555 1_555
C30_2 C1_2 1_555 1_555
H14_2 C30_2 1_555 1_555
C31_2 N14_2 1_555 1_555
C32_2 N9_2 1_555 1_555
N19_2 Cd6 1_555 1_555
C34_2 C16_2 1_555 1_555
O5_2 Cd6 1_555 1_555
H17_2 O5_2 1_555 1_555
C36_2 C5_2 1_555 1_555
H19_2 C36_2 1_555 1_555
C37_2 C26_2 1_555 1_555
H20_2 C37_2 1_555 1_555
C38_2 C34_2 1_555 1_555
H21_2 C38_2 1_555 1_555
C39_2 C38_2 1_555 1_555
H22_2 C39_2 1_555 1_555
C40_2 C34_2 1_555 1_555
H23_2 C40_2 1_555 1_555
C41_2 N19_2 1_555 1_555
H24_2 C41_2 1_555 1_555
C42_2 C26_2 1_555 1_555
H25_2 C42_2 1_555 1_555
C43_2 N18_2 1_555 1_555
H26_2 C43_2 1_555 1_555
O6_2 Cd6 1_555 1_555
H27_2 O6_2 1_555 1_555
H28_2 O6_2 1_555 1_555
C44_2 N19_2 1_555 1_555
H29_2 C44_2 1_555 1_555
O7_2 Cd6 1_555 1_555
N20_2 O7_2 1_555 1_555
C45_2 O5_2 1_555 1_555
H32_2 C45_2 1_555 1_555
O9_2 N20_2 1_555 1_555
Cd5 N15 1_555 1_555
N10_2 C16_2 1_555 1_555
N16_2 C31_2 1_555 1_555
C6_2 C14_2 1_555 1_555
C10_2 C20_2 1_555 1_555
C11_2 C19_2 1_555 1_555
C17_2 C29_2 1_555 1_555
C21_2 C24_2 1_555 1_555
C21_2 C32_2 1_555 1_555
C24_2 C30_2 1_555 1_555
C27_2 C36_2 1_555 1_555
C37_2 C44_2 1_555 1_555
C40_2 C43_2 1_555 1_555
C41_2 C42_2 1_555 1_555
O11 N20_2 1_555 1_555
O2_2 Cd5 1_555 1_555
H1_2 O2_2 1_555 1_555
H2_2 O2_2 1_555 1_555
N21_2 Cd5 1_555 1_555
N21_2 C12_2 1_555 1_555
C12_2 H5_2 1_555 1_555
C23_2 N21_2 1_555 1_555
H9_2 C23_2 1_555 1_555
C33_2 C12_2 1_555 1_555
H16_2 C33_2 1_555 1_555
N12 C25 1_555 1_555
C15 N6 1_555 1_555
N17 C13 1_555 1_555
C18 C15 1_555 1_555
C22 C18 1_555 1_555
H8 C22 1_555 1_555
C25 H10 1_555 1_555
C28 C18 1_555 1_555
H12 C28 1_555 1_555
C35 N12 1_555 1_555
H18 C35 1_555 1_555
C15 N17 1_555 1_555
C22 C35 1_555 1_555
C25 C28 1_555 1_555
N5 C12_3 1_555 1_555
C12_3 H5_3 1_555 1_555
C23_3 N5 1_555 1_555
H9_3 C23_3 1_555 1_555
C33_3 C12_3 1_555 1_555
H16_3 C33_3 1_555 1_555
Cd4 N5 1_555 1_555
Cd2_2 N18_3 1_555 1_555
N2_3 C2_3 1_555 1_555
N4_3 C9_3 1_555 1_555
N7_3 C2_3 1_555 1_555
N8_3 C8_3 1_555 1_555
N10_3 C14_3 1_555 1_555
N11_3 C7_3 1_555 1_555
C1_3 N9_3 1_555 1_555
H3_3 C1_3 1_555 1_555
C2_3 C6_3 1_555 1_555
N15_2 C27_3 1_555 1_555
C6_3 C9_3 1_555 1_555
C7_3 N2_3 1_555 1_555
C8_3 N7_3 1_555 1_555
C9_3 N11_3 1_555 1_555
C11_3 H4_3 1_555 1_555
C14_3 N8_3 1_555 1_555
C16_3 N4_3 1_555 1_555
C19_3 C7_3 1_555 1_555
C21_3 H7_3 1_555 1_555
C24_3 C8_3 1_555 1_555
N18_3 C39_3 1_555 1_555
C27_3 H11_3 1_555 1_555
C29_3 N15_2 1_555 1_555
H13_3 C29_3 1_555 1_555
C30_3 C1_3 1_555 1_555
H14_3 C30_3 1_555 1_555
C32_3 N9_3 1_555 1_555
N19_3 Cd2_2 1_555 1_555
C34_3 C16_3 1_555 1_555
O5_3 Cd2_2 1_555 1_555
H17_3 O5_3 1_555 1_555
H19_3 C36_3 1_555 1_555
H20_3 C37_3 1_555 1_555
C38_3 C34_3 1_555 1_555
H21_3 C38_3 1_555 1_555
C39_3 C38_3 1_555 1_555
H22_3 C39_3 1_555 1_555
C40_3 C34_3 1_555 1_555
H23_3 C40_3 1_555 1_555
C41_3 N19_3 1_555 1_555
C43_3 N18_3 1_555 1_555
H26_3 C43_3 1_555 1_555
O6_3 Cd2_2 1_555 1_555
H27_3 O6_3 1_555 1_555
H28_3 O6_3 1_555 1_555
C44_3 N19_3 1_555 1_555
H29_3 C44_3 1_555 1_555
C45_3 O5_3 1_555 1_555
H32_3 C45_3 1_555 1_555
Cd4 N15_2 1_555 1_555
O11_2 Cd2_2 1_555 1_555
N10_3 C16_3 1_555 1_555
C6_3 C14_3 1_555 1_555
C11_3 C19_3 1_555 1_555
C21_3 C24_3 1_555 1_555
C21_3 C32_3 1_555 1_555
C24_3 C30_3 1_555 1_555
C27_3 C36_3 1_555 1_555
C37_3 C44_3 1_555 1_555
C40_3 C43_3 1_555 1_555
O2_3 Cd4 1_555 1_555
H1_3 O2_3 1_555 1_555
H2_3 O2_3 1_555 1_555
O10_2 Cd4 1_555 1_555
O10_2 N13_3 1_555 1_555
N1_3 C3_3 1_555 1_555
N3_3 C3_3 1_555 1_555
O4_3 N13_3 1_555 1_555
N14_3 C20_3 1_555 1_555
C3_3 C5_3 1_555 1_555
C4_3 N1_3 1_555 1_555
C5_3 C17_3 1_555 1_555
C10_3 C4_3 1_555 1_555
C17_3 H6_3 1_555 1_555
C20_3 N3_3 1_555 1_555
C26_3 C31_3 1_555 1_555
C31_3 N14_3 1_555 1_555
C42_3 C26_3 1_555 1_555
H25_3 C42_3 1_555 1_555
N20_3 O7_3 1_555 1_555
O9_3 N20_3 1_555 1_555
N16_3 C31_3 1_555 1_555
C10_3 C20_3 1_555 1_555
O11_2 N20_3 1_555 1_555
N12_2 C25_2 1_555 1_555
C15_2 N6_2 1_555 1_555
N17_2 C13_2 1_555 1_555
C18_2 C15_2 1_555 1_555
C22_2 C18_2 1_555 1_555
H8_2 C22_2 1_555 1_555
C25_2 H10_2 1_555 1_555
C28_2 C18_2 1_555 1_555
H12_2 C28_2 1_555 1_555
C35_2 N12_2 1_555 1_555
H18_2 C35_2 1_555 1_555
C15_2 N17_2 1_555 1_555
C22_2 C35_2 1_555 1_555
C25_2 C28_2 1_555 1_555
O1_2 N13_4 1_555 1_555
N1_4 C3_4 1_555 1_555
N3_4 C3_4 1_555 1_555
O4_4 N13_4 1_555 1_555
N14_4 C20_4 1_555 1_555
C3_4 C5_4 1_555 1_555
C4_4 N1_4 1_555 1_555
C5_4 C17_4 1_555 1_555
C10_4 C4_4 1_555 1_555
C17_4 H6_4 1_555 1_555
C20_4 N3_4 1_555 1_555
C26_4 C31_4 1_555 1_555
C31_4 N14_4 1_555 1_555
C42_4 C26_4 1_555 1_555
H25_4 C42_4 1_555 1_555
N20_4 O7_4 1_555 1_555
O9_4 N20_4 1_555 1_555
Cd5_2 O1_2 1_555 1_555
Cd6_2 O8_2 1_555 1_555
N16_4 C31_4 1_555 1_555
C10_4 C20_4 1_555 1_555
O8_2 N20_4 1_555 1_555
N5_2 C12_4 1_555 1_555
C12_4 H5_4 1_555 1_555
C23_4 N5_2 1_555 1_555
H9_4 C23_4 1_555 1_555
C33_4 C12_4 1_555 1_555
H16_4 C33_4 1_555 1_555
Cd5_2 N5_2 1_555 1_555
O2_4 Cd5_2 1_555 1_555
H1_4 O2_4 1_555 1_555
H2_4 O2_4 1_555 1_555
N22_2 Cd5_2 1_555 1_555
Cd6_2 N18_4 1_555 1_555
N2_4 C2_4 1_555 1_555
N4_4 C9_4 1_555 1_555
N7_4 C2_4 1_555 1_555
N8_4 C8_4 1_555 1_555
N10_4 C14_4 1_555 1_555
N11_4 C7_4 1_555 1_555
C1_4 N9_4 1_555 1_555
H3_4 C1_4 1_555 1_555
C2_4 C6_4 1_555 1_555
N22_2 C27_4 1_555 1_555
C6_4 C9_4 1_555 1_555
C7_4 N2_4 1_555 1_555
C8_4 N7_4 1_555 1_555
C9_4 N11_4 1_555 1_555
C11_4 H4_4 1_555 1_555
C14_4 N8_4 1_555 1_555
C16_4 N4_4 1_555 1_555
C19_4 C7_4 1_555 1_555
C21_4 H7_4 1_555 1_555
C24_4 C8_4 1_555 1_555
N18_4 C39_4 1_555 1_555
C27_4 H11_4 1_555 1_555
C29_4 N22_2 1_555 1_555
H13_4 C29_4 1_555 1_555
C30_4 C1_4 1_555 1_555
H14_4 C30_4 1_555 1_555
C32_4 N9_4 1_555 1_555
N19_4 Cd6_2 1_555 1_555
C34_4 C16_4 1_555 1_555
O5_4 Cd6_2 1_555 1_555
H17_4 O5_4 1_555 1_555
H19_4 C36_4 1_555 1_555
H20_4 C37_4 1_555 1_555
C38_4 C34_4 1_555 1_555
H21_4 C38_4 1_555 1_555
C39_4 C38_4 1_555 1_555
H22_4 C39_4 1_555 1_555
C40_4 C34_4 1_555 1_555
H23_4 C40_4 1_555 1_555
C41_4 N19_4 1_555 1_555
C43_4 N18_4 1_555 1_555
H26_4 C43_4 1_555 1_555
O6_4 Cd6_2 1_555 1_555
H27_4 O6_4 1_555 1_555
H28_4 O6_4 1_555 1_555
C44_4 N19_4 1_555 1_555
H29_4 C44_4 1_555 1_555
C45_4 O5_4 1_555 1_555
H32_4 C45_4 1_555 1_555
N10_4 C16_4 1_555 1_555
C6_4 C14_4 1_555 1_555
C11_4 C19_4 1_555 1_555
C21_4 C24_4 1_555 1_555
C21_4 C32_4 1_555 1_555
C24_4 C30_4 1_555 1_555
C27_4 C36_4 1_555 1_555
C37_4 C44_4 1_555 1_555
C40_4 C43_4 1_555 1_555
N12_3 C25_3 1_555 1_555
C15_3 N6_3 1_555 1_555
N17_3 C13_3 1_555 1_555
C18_3 C15_3 1_555 1_555
C22_3 C18_3 1_555 1_555
H8_3 C22_3 1_555 1_555
C25_3 H10_3 1_555 1_555
C28_3 C18_3 1_555 1_555
H12_3 C28_3 1_555 1_555
C35_3 N12_3 1_555 1_555
H18_3 C35_3 1_555 1_555
C15_3 N17_3 1_555 1_555
C22_3 C35_3 1_555 1_555
C25_3 C28_3 1_555 1_555
N12_4 C25_4 1_555 1_555
C15_4 N6_4 1_555 1_555
N17_4 C13_4 1_555 1_555
C18_4 C15_4 1_555 1_555
C22_4 C18_4 1_555 1_555
H8_4 C22_4 1_555 1_555
C25_4 H10_4 1_555 1_555
C28_4 C18_4 1_555 1_555
H12_4 C28_4 1_555 1_555
C35_4 N12_4 1_555 1_555
H18_4 C35_4 1_555 1_555
C15_4 N17_4 1_555 1_555
C22_4 C35_4 1_555 1_555
C25_4 C28_4 1_555 1_555

#END
