
###############################################################################
#
# This file contains modified crystal structure data generated from the
# MOF subset of the Cambridge Structural Database (CSD) v543 
# hosted by the Cambridge Crystallographic Data Centre (CCDC).
#
# This work is licensed under the Creative Commons
# Attribution-NonCommercial-ShareAlike 4.0 International License.
# To view a copy of this license, visit
# http://creativecommons.org/licenses/by-nc-sa/4.0/
# or send a letter to
# Creative Commons, PO Box 1866, Mountain View, CA 94042, USA.
#
# CIF created using the CSD Python API on 29 September 2022
# The structure has been converted into the P1 space group
# The structure has a 3D framework
# The original CSD entry CUBQIB is in the monoclinic crystal system
# The framework has been calculated to contain at least 10.0% void space
# The void calculation uses a probe of radius 1.32A, grid spacing 0.4
# The framework is charged, counterions have been retained in the structure
# H atom positions have been added when not included in the experimental data
# Generated hydrogen atom positions removed from atoms on special positions
#
###############################################################################

data_CUBQIB
_chemical_formula_moiety         '(C128 H106 Ho28 Na12 O152 S16 4+)n'
_symmetry_cell_setting           triclinic
_symmetry_space_group_name_H-M   'P 1'
_symmetry_Int_Tables_number      1
_space_group_name_Hall           'P 1'
loop_
_symmetry_equiv_pos_site_id
_symmetry_equiv_pos_as_xyz
1 x,y,z
_cell_length_a                   26.781(8)
_cell_length_b                   17.916(5)
_cell_length_c                   13.763(4)
_cell_angle_alpha                90
_cell_angle_beta                 118.719(5)
_cell_angle_gamma                90
_cell_volume                     5791.27
loop_
_atom_site_label
_atom_site_type_symbol
_atom_site_fract_x
_atom_site_fract_y
_atom_site_fract_z
Ho1 Ho 0.47833(5) -0.0000 0.34105(9)
Ho2 Ho 0.63236(4) 0.0000 0.41108(9)
O17 O 0.5830(6) -0.0000 0.2094(12)
H3 H 0.6051 0.0000 0.1811
O19 O 0.4705(6) -0.0000 0.1607(12)
H5 H 0.4370 -0.0000 0.1063
O20 O 0.7386(7) -0.0000 0.5225(15)
O22 O 0.3819(8) 0.0000 0.322(2)
Ho8 Ho 0.52167(5) -0.0000 0.65895(9)
Ho12 Ho 0.52261(3) 0.10376(5) 0.15805(6)
O40 O 0.6487(5) 0.0825(7) 0.5562(9)
O42 O 0.6705(5) 0.1017(7) 0.3720(9)
O43 O 0.4269(5) 0.1082(8) 0.2726(9)
O47 O 0.5502(4) 0.0773(6) 0.3416(9)
O49 O 0.5000 0.0808(19) 0.5000
H21 H 0.755313 0.000725352 0.471859
H22 H 0.751305 0.0448875 0.570728
H24 H 0.370917 0.0518551 0.328986
Ho9 Ho 0.36764(4) -0.0000 0.58892(9)
O46 O 0.4170(6) -0.0000 0.7906(12)
O48 O 0.5295(6) 0.0000 0.8393(12)
Ho1_2 Ho 0.47833(5) 1.0000 0.34105(9)
Ho2_2 Ho 0.63236(4) 1.0000 0.41108(9)
Ho3 Ho 0.52261(3) 0.89624(5) 0.15805(6)
Ho4 Ho 0.57757(3) 0.76585(6) 0.03626(7)
S2 S 0.64034(19) 0.6644(3) 0.2862(4)
O1 O 0.8513(5) 0.5825(7) 0.4438(9)
O2 O 0.9063(5) 0.6800(8) 0.4837(12)
O3 O 0.6705(5) 0.8983(7) 0.3720(9)
O4 O 0.6152(5) 0.8312(7) 0.2221(10)
O5 O 0.6138(5) 0.6693(7) 0.1617(10)
O6 O 0.6555(6) 0.5879(8) 0.3187(13)
O7 O 0.6065(5) 0.6997(8) 0.3300(11)
O15 O 0.5516(4) 0.8905(7) 0.0223(8)
H1 H 0.5773 0.9228 0.0347
O16 O 0.5146(5) 0.7716(7) 0.1060(10)
H2 H 0.5208 0.7370 0.1527
O17_2 O 0.5830(6) 1.0000 0.2094(12)
H3_2 H 0.6051 1.0000 0.1811
O18 O 0.5502(4) 0.9227(6) 0.3416(9)
H4 H 0.5565 0.8841 0.3817
O19_2 O 0.4705(6) 1.0000 0.1607(12)
H5_2 H 0.4370 1.0000 0.1063
O20_2 O 0.7386(7) 1.0000 0.5225(15)
O21 O 0.5000 0.9192(19) 0.5000
O22_2 O 0.3819(8) 1.0000 0.322(2)
C1 C 0.8110(8) 0.7774(10) 0.4123(14)
H6 H 0.8472 0.8001 0.4374
C2 C 0.7643(6) 0.8231(10) 0.3804(13)
H7 H 0.7684 0.8759 0.3840
C3 C 0.7108(7) 0.7902(11) 0.3424(13)
C4 C 0.7053(7) 0.7133(9) 0.3350(14)
C5 C 0.7553(7) 0.6689(11) 0.3709(14)
H8 H 0.7522 0.6161 0.3680
C6 C 0.8081(7) 0.7017(10) 0.4100(14)
C7 C 0.8594(7) 0.6525(11) 0.4461(14)
C8 C 0.6616(7) 0.8427(12) 0.3085(15)
S3 S 0.4200(2) 0.6655(3) 0.1807(5)
O30 O 0.4269(5) 0.8918(8) 0.2726(9)
O31 O 0.4364(5) 0.8353(7) 0.1379(11)
O32 O 0.1670(5) 0.7069(7) 0.0806(10)
O33 O 0.2146(5) 0.6028(8) 0.0966(12)
O34 O 0.4713(5) 0.7008(8) 0.2663(11)
O35 O 0.4106(6) 0.5896(9) 0.2039(14)
O36 O 0.4168(5) 0.6713(7) 0.0718(12)
C25 C 0.2628(7) 0.7165(10) 0.1287(14)
C26 C 0.3122(7) 0.6807(12) 0.1435(15)
H18 H 0.3113 0.6281 0.1342
C27 C 0.3615(7) 0.7175(10) 0.1707(15)
C28 C 0.3613(6) 0.7951(10) 0.1761(14)
C29 C 0.3135(7) 0.8321(10) 0.1629(13)
H19 H 0.3140 0.8848 0.1706
C30 C 0.2642(6) 0.7916(10) 0.1379(12)
H20 H 0.2309 0.8175 0.1273
C31 C 0.2110(7) 0.6723(11) 0.1015(14)
C32 C 0.4130(8) 0.8439(12) 0.1991(16)
Ho8_2 Ho 0.52167(5) 1.0000 0.65895(9)
Ho11 Ho 0.86764(4) 0.5000 0.58892(9)
Ho14 Ho 0.07757(3) 0.73415(6) 0.03626(7)
O41 O 0.6487(5) 0.9175(7) 0.5562(9)
O44 O 0.6670(5) 0.7931(7) 0.0806(10)
H23 H 0.381576 0.968481 0.381042
S1 S 0.5800(2) 0.6655(3) 0.8193(5)
O8 O 0.5731(5) 0.8918(8) 0.7274(9)
O9 O 0.5636(5) 0.8353(7) 0.8621(11)
O10 O 0.8330(5) 0.7069(7) 0.9194(10)
O11 O 0.7854(5) 0.6028(8) 0.9034(12)
O12 O 0.5287(5) 0.7008(8) 0.7337(11)
O13 O 0.5894(6) 0.5896(9) 0.7961(14)
O14 O 0.5832(5) 0.6713(7) 0.9282(12)
C9 C 0.7372(7) 0.7165(10) 0.8713(14)
C10 C 0.6878(7) 0.6807(12) 0.8565(15)
H9 H 0.6887 0.6281 0.8658
C11 C 0.6385(7) 0.7175(10) 0.8293(15)
C12 C 0.6387(6) 0.7951(10) 0.8239(14)
C13 C 0.6865(7) 0.8321(10) 0.8371(13)
H10 H 0.6860 0.8848 0.8294
C14 C 0.7358(6) 0.7916(10) 0.8621(12)
H11 H 0.7691 0.8175 0.8727
C15 C 0.7890(7) 0.6723(11) 0.8985(14)
C16 C 0.5870(8) 0.8439(12) 0.8009(16)
Ho5 Ho 0.47739(3) 0.89624(5) 0.84195(6)
Ho6 Ho 0.42243(3) 0.76585(6) 0.96374(7)
S4 S 0.35966(19) 0.6644(3) 0.7138(4)
O23 O 0.1487(5) 0.5825(7) 0.5562(9)
O24 O 0.0937(5) 0.6800(8) 0.5163(12)
O25 O 0.3295(5) 0.8983(7) 0.6280(9)
O26 O 0.3848(5) 0.8312(7) 0.7779(10)
O27 O 0.3862(5) 0.6693(7) 0.8383(10)
O28 O 0.3445(6) 0.5879(8) 0.6813(13)
O29 O 0.3935(5) 0.6997(8) 0.6700(11)
O37 O 0.4484(4) 0.8905(7) 0.9777(8)
H12 H 0.4227 0.9228 0.9653
O38 O 0.4854(5) 0.7716(7) 0.8940(10)
H13 H 0.4792 0.7370 0.8473
O39 O 0.4498(4) 0.9227(6) 0.6584(9)
H14 H 0.4435 0.8841 0.6183
C17 C 0.1890(8) 0.7774(10) 0.5877(14)
H15 H 0.1528 0.8001 0.5626
C18 C 0.2357(6) 0.8231(10) 0.6196(13)
H16 H 0.2316 0.8759 0.6160
C19 C 0.2892(7) 0.7902(11) 0.6576(13)
C20 C 0.2947(7) 0.7133(9) 0.6650(14)
C21 C 0.2447(7) 0.6689(11) 0.6291(14)
H17 H 0.2478 0.6161 0.6320
C22 C 0.1919(7) 0.7017(10) 0.5900(14)
C23 C 0.1406(7) 0.6525(11) 0.5539(14)
C24 C 0.3384(7) 0.8427(12) 0.6915(15)
Ho9_2 Ho 0.36764(4) 1.0000 0.58892(9)
Ho10 Ho 0.13236(4) 0.5000 0.41108(9)
Ho13 Ho 0.92243(3) 0.73415(6) 0.96374(7)
O45 O 0.3330(5) 0.7931(7) 0.9194(10)
O46_2 O 0.4170(6) 1.0000 0.7906(12)
O48_2 O 0.5295(6) 1.0000 0.8393(12)
H3_3 H 0.3949 0.0000 0.8189
H5_3 H 0.5630 -0.0000 0.8937
O20_3 O 0.2614(7) 0.0000 0.4775(15)
O22_3 O 0.6181(8) 0.0000 0.678(2)
Ho12_2 Ho 0.47739(3) 0.10376(5) 0.84195(6)
O40_2 O 0.3513(5) 0.0825(7) 0.4438(9)
O42_2 O 0.3295(5) 0.1017(7) 0.6280(9)
O43_2 O 0.5731(5) 0.1082(8) 0.7274(9)
O47_2 O 0.4498(4) 0.0773(6) 0.6584(9)
H21_2 H 0.244687 0.000725352 0.528141
H22_2 H 0.248695 0.0448875 0.429272
H24_2 H 0.629083 0.0518551 0.671014
H3_4 H 0.3949 1.0000 0.8189
H5_4 H 0.5630 1.0000 0.8937
O20_4 O 0.2614(7) 1.0000 0.4775(15)
O22_4 O 0.6181(8) 1.0000 0.678(2)
O41_2 O 0.3513(5) 0.9175(7) 0.4438(9)
H23_2 H 0.618424 0.968481 0.618958
Ho3_2 Ho 0.02261(3) 0.39624(5) 0.15805(6)
Ho4_2 Ho 0.07757(3) 0.26585(6) 0.03626(7)
S2_2 S 0.14034(19) 0.1644(3) 0.2862(4)
O2_2 O 0.4063(5) 0.1800(8) 0.4837(12)
O3_2 O 0.1705(5) 0.3983(7) 0.3720(9)
O4_2 O 0.1152(5) 0.3312(7) 0.2221(10)
O5_2 O 0.1138(5) 0.1693(7) 0.1617(10)
O6_2 O 0.1555(6) 0.0879(8) 0.3187(13)
O7_2 O 0.1065(5) 0.1997(8) 0.3300(11)
O15_2 O 0.0516(4) 0.3905(7) 0.0223(8)
H1_2 H 0.0773 0.4228 0.0347
O16_2 O 0.0146(5) 0.2716(7) 0.1060(10)
H2_2 H 0.0208 0.2370 0.1527
O17_3 O 0.0830(6) 0.5000 0.2094(12)
H3_5 H 0.1051 0.5000 0.1811
O18_2 O 0.0502(4) 0.4227(6) 0.3416(9)
H4_2 H 0.0565 0.3841 0.3817
O20_5 O 0.2386(7) 0.5000 0.5225(15)
O21_2 O -0.0000 0.4192(19) 0.5000
C1_2 C 0.3110(8) 0.2774(10) 0.4123(14)
H6_2 H 0.3472 0.3001 0.4374
C2_2 C 0.2643(6) 0.3231(10) 0.3804(13)
H7_2 H 0.2684 0.3759 0.3840
C3_2 C 0.2108(7) 0.2902(11) 0.3424(13)
C4_2 C 0.2053(7) 0.2133(9) 0.3350(14)
C5_2 C 0.2553(7) 0.1689(11) 0.3709(14)
H8_2 H 0.2522 0.1161 0.3680
C6_2 C 0.3081(7) 0.2017(10) 0.4100(14)
C7_2 C 0.3594(7) 0.1525(11) 0.4461(14)
C8_2 C 0.1616(7) 0.3427(12) 0.3085(15)
Ho8_3 Ho 0.02167(5) 0.5000 0.65895(9)
Ho12_3 Ho 0.02261(3) 0.60376(5) 0.15805(6)
O41_3 O 0.1487(5) 0.4175(7) 0.5562(9)
O42_3 O 0.1705(5) 0.6017(7) 0.3720(9)
O44_2 O 0.1670(5) 0.2931(7) 0.0806(10)
O47_3 O 0.0502(4) 0.5773(6) 0.3416(9)
O49_2 O -0.0000 0.5808(19) 0.5000
S1_2 S 0.0800(2) 0.1655(3) 0.8193(5)
O8_2 O 0.0731(5) 0.3918(8) 0.7274(9)
O9_2 O 0.0636(5) 0.3353(7) 0.8621(11)
O10_2 O 0.3330(5) 0.2069(7) 0.9194(10)
O11_2 O 0.2854(5) 0.1028(8) 0.9034(12)
O12_2 O 0.0287(5) 0.2008(8) 0.7337(11)
O13_2 O 0.0894(6) 0.0896(9) 0.7961(14)
O14_2 O 0.0832(5) 0.1713(7) 0.9282(12)
C9_2 C 0.2372(7) 0.2165(10) 0.8713(14)
C10_2 C 0.1878(7) 0.1807(12) 0.8565(15)
H9_2 H 0.1887 0.1281 0.8658
C11_2 C 0.1385(7) 0.2175(10) 0.8293(15)
C12_2 C 0.1387(6) 0.2951(10) 0.8239(14)
C13_2 C 0.1865(7) 0.3321(10) 0.8371(13)
H10_2 H 0.1860 0.3848 0.8294
C14_2 C 0.2358(6) 0.2916(10) 0.8621(12)
H11_2 H 0.2691 0.3175 0.8727
C15_2 C 0.2890(7) 0.1723(11) 0.8985(14)
C16_2 C 0.0870(8) 0.3439(12) 0.8009(16)
Ho13_2 Ho 0.42243(3) 0.23415(6) 0.96374(7)
O48_3 O 0.0295(6) 0.5000 0.8393(12)
Ho1_3 Ho 0.97833(5) 0.5000 0.34105(9)
O19_3 O 0.9705(6) 0.5000 0.1607(12)
H5_5 H 0.9370 0.5000 0.1063
O21_3 O 1.0000 0.4192(19) 0.5000
O22_5 O 0.8819(8) 0.5000 0.322(2)
S3_2 S 0.9200(2) 0.1655(3) 0.1807(5)
O30_2 O 0.9269(5) 0.3918(8) 0.2726(9)
O31_2 O 0.9364(5) 0.3353(7) 0.1379(11)
O32_2 O 0.6670(5) 0.2069(7) 0.0806(10)
O33_2 O 0.7146(5) 0.1028(8) 0.0966(12)
O34_2 O 0.9713(5) 0.2008(8) 0.2663(11)
O35_2 O 0.9106(6) 0.0896(9) 0.2039(14)
O36_2 O 0.9168(5) 0.1713(7) 0.0718(12)
C25_2 C 0.7628(7) 0.2165(10) 0.1287(14)
C26_2 C 0.8122(7) 0.1807(12) 0.1435(15)
H18_2 H 0.8113 0.1281 0.1342
C27_2 C 0.8615(7) 0.2175(10) 0.1707(15)
C28_2 C 0.8613(6) 0.2951(10) 0.1761(14)
C29_2 C 0.8135(7) 0.3321(10) 0.1629(13)
H19_2 H 0.8140 0.3848 0.1706
C30_2 C 0.7642(6) 0.2916(10) 0.1379(12)
H20_2 H 0.7309 0.3175 0.1273
C31_2 C 0.7110(7) 0.1723(11) 0.1015(14)
C32_2 C 0.9130(8) 0.3439(12) 0.1991(16)
Ho14_2 Ho 0.57757(3) 0.23415(6) 0.03626(7)
O43_3 O 0.9269(5) 0.6082(8) 0.2726(9)
O49_3 O 1.0000 0.5808(19) 0.5000
Ho5_2 Ho 0.97739(3) 0.39624(5) 0.84195(6)
Ho6_2 Ho 0.92243(3) 0.26585(6) 0.96374(7)
S4_2 S 0.85966(19) 0.1644(3) 0.7138(4)
O24_2 O 0.5937(5) 0.1800(8) 0.5163(12)
O25_2 O 0.8295(5) 0.3983(7) 0.6280(9)
O26_2 O 0.8848(5) 0.3312(7) 0.7779(10)
O27_2 O 0.8862(5) 0.1693(7) 0.8383(10)
O28_2 O 0.8445(6) 0.0879(8) 0.6813(13)
O29_2 O 0.8935(5) 0.1997(8) 0.6700(11)
O37_2 O 0.9484(4) 0.3905(7) 0.9777(8)
H12_2 H 0.9227 0.4228 0.9653
O38_2 O 0.9854(5) 0.2716(7) 0.8940(10)
H13_2 H 0.9792 0.2370 0.8473
O39_2 O 0.9498(4) 0.4227(6) 0.6584(9)
H14_2 H 0.9435 0.3841 0.6183
C17_2 C 0.6890(8) 0.2774(10) 0.5877(14)
H15_2 H 0.6528 0.3001 0.5626
C18_2 C 0.7357(6) 0.3231(10) 0.6196(13)
H16_2 H 0.7316 0.3759 0.6160
C19_2 C 0.7892(7) 0.2902(11) 0.6576(13)
C20_2 C 0.7947(7) 0.2133(9) 0.6650(14)
C21_2 C 0.7447(7) 0.1689(11) 0.6291(14)
H17_2 H 0.7478 0.1161 0.6320
C22_2 C 0.6919(7) 0.2017(10) 0.5900(14)
C23_2 C 0.6406(7) 0.1525(11) 0.5539(14)
C24_2 C 0.8384(7) 0.3427(12) 0.6915(15)
O45_2 O 0.8330(5) 0.2931(7) 0.9194(10)
O46_3 O 0.9170(6) 0.5000 0.7906(12)
H5_6 H 0.0630 0.5000 0.8937
O22_6 O 0.1181(8) 0.5000 0.678(2)
O43_4 O 0.0731(5) 0.6082(8) 0.7274(9)
H3_6 H 0.8949 0.5000 0.8189
O20_6 O 0.7614(7) 0.5000 0.4775(15)
Ho12_4 Ho 0.97739(3) 0.60376(5) 0.84195(6)
O41_4 O 0.8513(5) 0.4175(7) 0.4438(9)
O42_4 O 0.8295(5) 0.6017(7) 0.6280(9)
O47_4 O 0.9498(4) 0.5773(6) 0.6584(9)
S1_3 S 0.4200(2) 0.3345(3) 0.1807(5)
O9_3 O 0.4364(5) 0.1647(7) 0.1379(11)
O11_3 O 0.2146(5) 0.3972(8) 0.0966(12)
O12_3 O 0.4713(5) 0.2992(8) 0.2663(11)
O13_3 O 0.4106(6) 0.4104(9) 0.2039(14)
O14_3 O 0.4168(5) 0.3287(7) 0.0718(12)
C9_3 C 0.2628(7) 0.2835(10) 0.1287(14)
C10_3 C 0.3122(7) 0.3193(12) 0.1435(15)
H9_3 H 0.3113 0.3719 0.1342
C11_3 C 0.3615(7) 0.2825(10) 0.1707(15)
C12_3 C 0.3613(6) 0.2049(10) 0.1761(14)
C13_3 C 0.3135(7) 0.1679(10) 0.1629(13)
H10_3 H 0.3140 0.1152 0.1706
C14_3 C 0.2642(6) 0.2084(10) 0.1379(12)
H11_3 H 0.2309 0.1825 0.1273
C15_3 C 0.2110(7) 0.3277(11) 0.1015(14)
C16_3 C 0.4130(8) 0.1561(12) 0.1991(16)
S4_3 S 0.64034(19) 0.3356(3) 0.2862(4)
O24_3 O 0.9063(5) 0.3200(8) 0.4837(12)
O26_3 O 0.6152(5) 0.1688(7) 0.2221(10)
O27_3 O 0.6138(5) 0.3307(7) 0.1617(10)
O28_3 O 0.6555(6) 0.4121(8) 0.3187(13)
O29_3 O 0.6065(5) 0.3003(8) 0.3300(11)
O37_3 O 0.5516(4) 0.1095(7) 0.0223(8)
H12_3 H 0.5773 0.0772 0.0347
O38_3 O 0.5146(5) 0.2284(7) 0.1060(10)
H13_3 H 0.5208 0.2630 0.1527
H14_3 H 0.5565 0.1159 0.3817
C17_3 C 0.8110(8) 0.2226(10) 0.4123(14)
H15_3 H 0.8472 0.1999 0.4374
C18_3 C 0.7643(6) 0.1769(10) 0.3804(13)
H16_3 H 0.7684 0.1241 0.3840
C19_3 C 0.7108(7) 0.2098(11) 0.3424(13)
C20_3 C 0.7053(7) 0.2867(9) 0.3350(14)
C21_3 C 0.7553(7) 0.3311(11) 0.3709(14)
H17_3 H 0.7522 0.3839 0.3680
C22_3 C 0.8081(7) 0.2983(10) 0.4100(14)
C23_3 C 0.8594(7) 0.3475(11) 0.4461(14)
C24_3 C 0.6616(7) 0.1573(12) 0.3085(15)
S2_3 S 0.35966(19) 0.3356(3) 0.7138(4)
O2_3 O 0.0937(5) 0.3200(8) 0.5163(12)
O4_3 O 0.3848(5) 0.1688(7) 0.7779(10)
O5_3 O 0.3862(5) 0.3307(7) 0.8383(10)
O6_3 O 0.3445(6) 0.4121(8) 0.6813(13)
O7_3 O 0.3935(5) 0.3003(8) 0.6700(11)
O15_3 O 0.4484(4) 0.1095(7) 0.9777(8)
H1_3 H 0.4227 0.0772 0.9653
O16_3 O 0.4854(5) 0.2284(7) 0.8940(10)
H2_3 H 0.4792 0.2630 0.8473
H4_3 H 0.4435 0.1159 0.6183
C1_3 C 0.1890(8) 0.2226(10) 0.5877(14)
H6_3 H 0.1528 0.1999 0.5626
C2_3 C 0.2357(6) 0.1769(10) 0.6196(13)
H7_3 H 0.2316 0.1241 0.6160
C3_3 C 0.2892(7) 0.2098(11) 0.6576(13)
C4_3 C 0.2947(7) 0.2867(9) 0.6650(14)
C5_3 C 0.2447(7) 0.3311(11) 0.6291(14)
H8_3 H 0.2478 0.3839 0.6320
C6_3 C 0.1919(7) 0.2983(10) 0.5900(14)
C7_3 C 0.1406(7) 0.3475(11) 0.5539(14)
C8_3 C 0.3384(7) 0.1573(12) 0.6915(15)
S3_3 S 0.5800(2) 0.3345(3) 0.8193(5)
O31_3 O 0.5636(5) 0.1647(7) 0.8621(11)
O33_3 O 0.7854(5) 0.3972(8) 0.9034(12)
O34_3 O 0.5287(5) 0.2992(8) 0.7337(11)
O35_3 O 0.5894(6) 0.4104(9) 0.7961(14)
O36_3 O 0.5832(5) 0.3287(7) 0.9282(12)
C25_3 C 0.7372(7) 0.2835(10) 0.8713(14)
C26_3 C 0.6878(7) 0.3193(12) 0.8565(15)
H18_3 H 0.6887 0.3719 0.8658
C27_3 C 0.6385(7) 0.2825(10) 0.8293(15)
C28_3 C 0.6387(6) 0.2049(10) 0.8239(14)
C29_3 C 0.6865(7) 0.1679(10) 0.8371(13)
H19_3 H 0.6860 0.1152 0.8294
C30_3 C 0.7358(6) 0.2084(10) 0.8621(12)
H20_3 H 0.7691 0.1825 0.8727
C31_3 C 0.7890(7) 0.3277(11) 0.8985(14)
C32_3 C 0.5870(8) 0.1561(12) 0.8009(16)
H23_3 H 0.618424 0.0315188 0.618958
H21_3 H 0.244687 0.999275 0.528141
H22_3 H 0.248695 0.955112 0.429272
H24_3 H 0.629083 0.948145 0.671014
H23_4 H 0.381576 0.0315188 0.381042
H21_4 H 0.755313 0.999275 0.471859
H22_4 H 0.751305 0.955112 0.570728
H24_4 H 0.370917 0.948145 0.328986
S4_4 S 0.14034(19) 0.8356(3) 0.2862(4)
O24_4 O 0.4063(5) 0.8200(8) 0.4837(12)
O26_4 O 0.1152(5) 0.6688(7) 0.2221(10)
O27_4 O 0.1138(5) 0.8307(7) 0.1617(10)
O28_4 O 0.1555(6) 0.9121(8) 0.3187(13)
O29_4 O 0.1065(5) 0.8003(8) 0.3300(11)
O37_4 O 0.0516(4) 0.6095(7) 0.0223(8)
H12_4 H 0.0773 0.5772 0.0347
O38_4 O 0.0146(5) 0.7284(7) 0.1060(10)
H13_4 H 0.0208 0.7630 0.1527
H14_4 H 0.0565 0.6159 0.3817
C17_4 C 0.3110(8) 0.7226(10) 0.4123(14)
H15_4 H 0.3472 0.6999 0.4374
C18_4 C 0.2643(6) 0.6769(10) 0.3804(13)
H16_4 H 0.2684 0.6241 0.3840
C19_4 C 0.2108(7) 0.7098(11) 0.3424(13)
C20_4 C 0.2053(7) 0.7867(9) 0.3350(14)
C21_4 C 0.2553(7) 0.8311(11) 0.3709(14)
H17_4 H 0.2522 0.8839 0.3680
C22_4 C 0.3081(7) 0.7983(10) 0.4100(14)
C23_4 C 0.3594(7) 0.8475(11) 0.4461(14)
C24_4 C 0.1616(7) 0.6573(12) 0.3085(15)
S3_4 S 0.0800(2) 0.8345(3) 0.8193(5)
O31_4 O 0.0636(5) 0.6647(7) 0.8621(11)
O33_4 O 0.2854(5) 0.8972(8) 0.9034(12)
O34_4 O 0.0287(5) 0.7992(8) 0.7337(11)
O35_4 O 0.0894(6) 0.9104(9) 0.7961(14)
O36_4 O 0.0832(5) 0.8287(7) 0.9282(12)
C25_4 C 0.2372(7) 0.7835(10) 0.8713(14)
C26_4 C 0.1878(7) 0.8193(12) 0.8565(15)
H18_4 H 0.1887 0.8719 0.8658
C27_4 C 0.1385(7) 0.7825(10) 0.8293(15)
C28_4 C 0.1387(6) 0.7049(10) 0.8239(14)
C29_4 C 0.1865(7) 0.6679(10) 0.8371(13)
H19_4 H 0.1860 0.6152 0.8294
C30_4 C 0.2358(6) 0.7084(10) 0.8621(12)
H20_4 H 0.2691 0.6825 0.8727
C31_4 C 0.2890(7) 0.8277(11) 0.8985(14)
C32_4 C 0.0870(8) 0.6561(12) 0.8009(16)
S1_4 S 0.9200(2) 0.8345(3) 0.1807(5)
O9_4 O 0.9364(5) 0.6647(7) 0.1379(11)
O11_4 O 0.7146(5) 0.8972(8) 0.0966(12)
O12_4 O 0.9713(5) 0.7992(8) 0.2663(11)
O13_4 O 0.9106(6) 0.9104(9) 0.2039(14)
O14_4 O 0.9168(5) 0.8287(7) 0.0718(12)
C9_4 C 0.7628(7) 0.7835(10) 0.1287(14)
C10_4 C 0.8122(7) 0.8193(12) 0.1435(15)
H9_4 H 0.8113 0.8719 0.1342
C11_4 C 0.8615(7) 0.7825(10) 0.1707(15)
C12_4 C 0.8613(6) 0.7049(10) 0.1761(14)
C13_4 C 0.8135(7) 0.6679(10) 0.1629(13)
H10_4 H 0.8140 0.6152 0.1706
C14_4 C 0.7642(6) 0.7084(10) 0.1379(12)
H11_4 H 0.7309 0.6825 0.1273
C15_4 C 0.7110(7) 0.8277(11) 0.1015(14)
C16_4 C 0.9130(8) 0.6561(12) 0.1991(16)
S2_4 S 0.85966(19) 0.8356(3) 0.7138(4)
O2_4 O 0.5937(5) 0.8200(8) 0.5163(12)
O4_4 O 0.8848(5) 0.6688(7) 0.7779(10)
O5_4 O 0.8862(5) 0.8307(7) 0.8383(10)
O6_4 O 0.8445(6) 0.9121(8) 0.6813(13)
O7_4 O 0.8935(5) 0.8003(8) 0.6700(11)
O15_4 O 0.9484(4) 0.6095(7) 0.9777(8)
H1_4 H 0.9227 0.5772 0.9653
O16_4 O 0.9854(5) 0.7284(7) 0.8940(10)
H2_4 H 0.9792 0.7630 0.8473
H4_4 H 0.9435 0.6159 0.6183
C1_4 C 0.6890(8) 0.7226(10) 0.5877(14)
H6_4 H 0.6528 0.6999 0.5626
C2_4 C 0.7357(6) 0.6769(10) 0.6196(13)
H7_4 H 0.7316 0.6241 0.6160
C3_4 C 0.7892(7) 0.7098(11) 0.6576(13)
C4_4 C 0.7947(7) 0.7867(9) 0.6650(14)
C5_4 C 0.7447(7) 0.8311(11) 0.6291(14)
H8_4 H 0.7478 0.8839 0.6320
C6_4 C 0.6919(7) 0.7983(10) 0.5900(14)
C7_4 C 0.6406(7) 0.8475(11) 0.5539(14)
C8_4 C 0.8384(7) 0.6573(12) 0.6915(15)
Na1 Na 0.6367(6) 0.0000 0.0529(15)
Na1_2 Na 0.6367(6) 1.0000 0.0529(15)
Na1_3 Na 0.3633(6) -0.0000 0.9471(15)
Na1_4 Na 0.3633(6) 1.0000 0.9471(15)
Na1_5 Na 0.1367(6) 0.5000 0.0529(15)
Na1_6 Na 0.8633(6) 0.5000 0.9471(15)
Na2 Na 0.6288(6) 0.5000 0.1675(12)
Na2_2 Na 0.3712(6) 0.5000 0.8325(12)
Na2_3 Na 0.1288(6) 0.0000 0.1675(12)
Na2_4 Na 0.1288(6) 1.0000 0.1675(12)
Na2_5 Na 0.8712(6) -0.0000 0.8325(12)
Na2_6 Na 0.8712(6) 1.0000 0.8325(12)
loop_
_geom_bond_atom_site_label_1
_geom_bond_atom_site_label_2
_geom_bond_site_symmetry_1
_geom_bond_site_symmetry_2
O17 Ho2 1_555 1_555
H3 O17 1_555 1_555
O19 Ho1 1_555 1_555
H5 O19 1_555 1_555
O20 Ho2 1_555 1_555
O22 Ho1 1_555 1_555
Ho12 O17 1_555 1_555
O40 Ho2 1_555 1_555
O42 Ho2 1_555 1_555
O43 Ho1 1_555 1_555
O47 Ho1 1_555 1_555
O49 Ho1 1_555 1_555
Ho2 O47 1_555 1_555
O19 Ho12 1_555 1_555
Ho8 O49 1_555 1_555
Ho12 O47 1_555 1_555
O20 H21 1_555 1_555
O20 H22 1_555 1_555
O22 H24 1_555 1_555
Ho8 O48 1_555 1_555
Ho9 O46 1_555 1_555
Ho1_2 O18 1_555 1_555
Ho2_2 O3 1_555 1_555
Ho3 O4 1_555 1_555
Ho4 O4 1_555 1_555
S2 O5 1_555 1_555
O1 C7 1_555 1_555
O2 C7 1_555 1_555
O3 C8 1_555 1_555
O4 C8 1_555 1_555
O5 Ho4 1_555 1_555
O6 S2 1_555 1_555
O7 S2 1_555 1_555
O15 Ho3 1_555 1_555
H1 O15 1_555 1_555
O16 Ho3 1_555 1_555
H2 O16 1_555 1_555
O17_2 Ho2_2 1_555 1_555
H3_2 O17_2 1_555 1_555
O18 Ho2_2 1_555 1_555
H4 O18 1_555 1_555
O19_2 Ho1_2 1_555 1_555
H5_2 O19_2 1_555 1_555
O20_2 Ho2_2 1_555 1_555
O21 Ho1_2 1_555 1_555
O22_2 Ho1_2 1_555 1_555
C1 H6 1_555 1_555
C2 C1 1_555 1_555
H7 C2 1_555 1_555
C3 C2 1_555 1_555
C4 S2 1_555 1_555
C5 C4 1_555 1_555
H8 C5 1_555 1_555
C6 C1 1_555 1_555
C7 C6 1_555 1_555
C8 C3 1_555 1_555
S3 O34 1_555 1_555
O30 Ho1_2 1_555 1_555
O31 Ho3 1_555 1_555
O32 C31 1_555 1_555
O33 C31 1_555 1_555
O35 S3 1_555 1_555
C25 C26 1_555 1_555
C26 H18 1_555 1_555
C27 S3 1_555 1_555
C28 C27 1_555 1_555
C29 C28 1_555 1_555
H19 C29 1_555 1_555
C30 C25 1_555 1_555
H20 C30 1_555 1_555
C31 C25 1_555 1_555
C32 O30 1_555 1_555
Ho8_2 O21 1_555 1_555
Ho11 O1 1_555 1_555
Ho14 O32 1_555 1_555
O41 Ho2_2 1_555 1_555
O44 Ho4 1_555 1_555
Ho3 O17_2 1_555 1_555
Ho3 O18 1_555 1_555
Ho3 O19_2 1_555 1_555
Ho4 O15 1_555 1_555
Ho4 O16 1_555 1_555
C3 C4 1_555 1_555
C5 C6 1_555 1_555
S3 O36 1_555 1_555
O31 C32 1_555 1_555
C26 C27 1_555 1_555
C28 C32 1_555 1_555
C29 C30 1_555 1_555
O22_2 H23 1_555 1_555
S1 O12 1_555 1_555
O8 C16 1_555 1_555
O10 C15 1_555 1_555
O11 C15 1_555 1_555
O13 S1 1_555 1_555
C9 C10 1_555 1_555
C10 H9 1_555 1_555
C11 S1 1_555 1_555
C12 C11 1_555 1_555
C13 C12 1_555 1_555
H10 C13 1_555 1_555
C14 C9 1_555 1_555
H11 C14 1_555 1_555
C15 C9 1_555 1_555
C16 O9 1_555 1_555
Ho5 O9 1_555 1_555
S4 O27 1_555 1_555
O23 C23 1_555 1_555
O24 C23 1_555 1_555
O25 C24 1_555 1_555
O26 Ho5 1_555 1_555
O27 Ho6 1_555 1_555
O28 S4 1_555 1_555
O29 S4 1_555 1_555
H12 O37 1_555 1_555
H13 O38 1_555 1_555
O39 Ho5 1_555 1_555
H14 O39 1_555 1_555
C17 H15 1_555 1_555
C18 C17 1_555 1_555
H16 C18 1_555 1_555
C19 C18 1_555 1_555
C20 S4 1_555 1_555
C21 C20 1_555 1_555
H17 C21 1_555 1_555
C22 C17 1_555 1_555
C23 C22 1_555 1_555
C24 O26 1_555 1_555
Ho8_2 O8 1_555 1_555
Ho9_2 O25 1_555 1_555
Ho10 O23 1_555 1_555
Ho13 O10 1_555 1_555
O45 Ho6 1_555 1_555
O46_2 Ho5 1_555 1_555
O48_2 Ho5 1_555 1_555
S1 O14 1_555 1_555
C10 C11 1_555 1_555
C12 C16 1_555 1_555
C13 C14 1_555 1_555
Ho5 O37 1_555 1_555
Ho5 O38 1_555 1_555
Ho6 O26 1_555 1_555
Ho6 O37 1_555 1_555
Ho6 O38 1_555 1_555
O39 Ho8_2 1_555 1_555
O39 Ho9_2 1_555 1_555
C19 C20 1_555 1_555
C19 C24 1_555 1_555
C21 C22 1_555 1_555
Ho8_2 O48_2 1_555 1_555
Ho9_2 O46_2 1_555 1_555
H3_3 O46 1_555 1_555
H5_3 O48 1_555 1_555
O20_3 Ho9 1_555 1_555
O22_3 Ho8 1_555 1_555
Ho12_2 O46 1_555 1_555
O40_2 Ho9 1_555 1_555
O42_2 Ho9 1_555 1_555
O43_2 Ho8 1_555 1_555
O47_2 Ho8 1_555 1_555
Ho9 O47_2 1_555 1_555
O48 Ho12_2 1_555 1_555
Ho12_2 O47_2 1_555 1_555
O20_3 H21_2 1_555 1_555
O20_3 H22_2 1_555 1_555
O22_3 H24_2 1_555 1_555
H3_4 O46_2 1_555 1_555
H5_4 O48_2 1_555 1_555
O20_4 Ho9_2 1_555 1_555
O22_4 Ho8_2 1_555 1_555
O41_2 Ho9_2 1_555 1_555
O22_4 H23_2 1_555 1_555
Ho10 O3_2 1_555 1_555
Ho3_2 O4_2 1_555 1_555
Ho4_2 O4_2 1_555 1_555
S2_2 O5_2 1_555 1_555
O40_2 C7_2 1_555 1_555
O2_2 C7_2 1_555 1_555
O3_2 C8_2 1_555 1_555
O4_2 C8_2 1_555 1_555
O5_2 Ho4_2 1_555 1_555
O6_2 S2_2 1_555 1_555
O7_2 S2_2 1_555 1_555
O15_2 Ho3_2 1_555 1_555
H1_2 O15_2 1_555 1_555
O16_2 Ho3_2 1_555 1_555
H2_2 O16_2 1_555 1_555
O17_3 Ho10 1_555 1_555
H3_5 O17_3 1_555 1_555
O18_2 Ho10 1_555 1_555
H4_2 O18_2 1_555 1_555
O20_5 Ho10 1_555 1_555
C1_2 H6_2 1_555 1_555
C2_2 C1_2 1_555 1_555
H7_2 C2_2 1_555 1_555
C3_2 C2_2 1_555 1_555
C4_2 S2_2 1_555 1_555
C5_2 C4_2 1_555 1_555
H8_2 C5_2 1_555 1_555
C6_2 C1_2 1_555 1_555
C7_2 C6_2 1_555 1_555
C8_2 C3_2 1_555 1_555
Ho8_3 O21_2 1_555 1_555
Ho12_3 O17_3 1_555 1_555
O41_3 Ho10 1_555 1_555
O42_3 Ho10 1_555 1_555
O44_2 Ho4_2 1_555 1_555
Ho10 O47_3 1_555 1_555
Ho3_2 O17_3 1_555 1_555
Ho3_2 O18_2 1_555 1_555
Ho4_2 O15_2 1_555 1_555
Ho4_2 O16_2 1_555 1_555
C3_2 C4_2 1_555 1_555
C5_2 C6_2 1_555 1_555
Ho8_3 O49_2 1_555 1_555
Ho12_3 O47_3 1_555 1_555
S1_2 O12_2 1_555 1_555
O8_2 C16_2 1_555 1_555
O10_2 C15_2 1_555 1_555
O11_2 C15_2 1_555 1_555
O13_2 S1_2 1_555 1_555
C9_2 C10_2 1_555 1_555
C10_2 H9_2 1_555 1_555
C11_2 S1_2 1_555 1_555
C12_2 C11_2 1_555 1_555
C13_2 C12_2 1_555 1_555
H10_2 C13_2 1_555 1_555
C14_2 C9_2 1_555 1_555
H11_2 C14_2 1_555 1_555
C15_2 C9_2 1_555 1_555
C16_2 O9_2 1_555 1_555
Ho8_3 O8_2 1_555 1_555
Ho13_2 O10_2 1_555 1_555
S1_2 O14_2 1_555 1_555
C10_2 C11_2 1_555 1_555
C12_2 C16_2 1_555 1_555
C13_2 C14_2 1_555 1_555
Ho8_3 O48_3 1_555 1_555
O19_3 Ho1_3 1_555 1_555
H5_5 O19_3 1_555 1_555
O21_3 Ho1_3 1_555 1_555
O22_5 Ho1_3 1_555 1_555
S3_2 O34_2 1_555 1_555
O30_2 Ho1_3 1_555 1_555
O32_2 C31_2 1_555 1_555
O33_2 C31_2 1_555 1_555
O35_2 S3_2 1_555 1_555
C25_2 C26_2 1_555 1_555
C26_2 H18_2 1_555 1_555
C27_2 S3_2 1_555 1_555
C28_2 C27_2 1_555 1_555
C29_2 C28_2 1_555 1_555
H19_2 C29_2 1_555 1_555
C30_2 C25_2 1_555 1_555
H20_2 C30_2 1_555 1_555
C31_2 C25_2 1_555 1_555
C32_2 O30_2 1_555 1_555
Ho14_2 O32_2 1_555 1_555
O43_3 Ho1_3 1_555 1_555
O49_3 Ho1_3 1_555 1_555
S3_2 O36_2 1_555 1_555
O31_2 C32_2 1_555 1_555
C26_2 C27_2 1_555 1_555
C28_2 C32_2 1_555 1_555
C29_2 C30_2 1_555 1_555
S4_2 O27_2 1_555 1_555
O40 C23_2 1_555 1_555
O24_2 C23_2 1_555 1_555
O25_2 C24_2 1_555 1_555
O26_2 Ho5_2 1_555 1_555
O27_2 Ho6_2 1_555 1_555
O28_2 S4_2 1_555 1_555
O29_2 S4_2 1_555 1_555
H12_2 O37_2 1_555 1_555
H13_2 O38_2 1_555 1_555
O39_2 Ho5_2 1_555 1_555
H14_2 O39_2 1_555 1_555
C17_2 H15_2 1_555 1_555
C18_2 C17_2 1_555 1_555
H16_2 C18_2 1_555 1_555
C19_2 C18_2 1_555 1_555
C20_2 S4_2 1_555 1_555
C21_2 C20_2 1_555 1_555
H17_2 C21_2 1_555 1_555
C22_2 C17_2 1_555 1_555
C23_2 C22_2 1_555 1_555
C24_2 O26_2 1_555 1_555
Ho11 O25_2 1_555 1_555
O45_2 Ho6_2 1_555 1_555
O46_3 Ho5_2 1_555 1_555
Ho5_2 O37_2 1_555 1_555
Ho5_2 O38_2 1_555 1_555
Ho6_2 O26_2 1_555 1_555
Ho6_2 O37_2 1_555 1_555
Ho6_2 O38_2 1_555 1_555
O39_2 Ho11 1_555 1_555
C19_2 C20_2 1_555 1_555
C19_2 C24_2 1_555 1_555
C21_2 C22_2 1_555 1_555
Ho11 O46_3 1_555 1_555
H5_6 O48_3 1_555 1_555
O22_6 Ho8_3 1_555 1_555
O43_4 Ho8_3 1_555 1_555
H3_6 O46_3 1_555 1_555
O20_6 Ho11 1_555 1_555
Ho12_4 O46_3 1_555 1_555
O41_4 Ho11 1_555 1_555
O42_4 Ho11 1_555 1_555
Ho11 O47_4 1_555 1_555
Ho12_4 O47_4 1_555 1_555
S1_3 O12_3 1_555 1_555
O43 C16_3 1_555 1_555
O44_2 C15_3 1_555 1_555
O11_3 C15_3 1_555 1_555
O13_3 S1_3 1_555 1_555
C9_3 C10_3 1_555 1_555
C10_3 H9_3 1_555 1_555
C11_3 S1_3 1_555 1_555
C12_3 C11_3 1_555 1_555
C13_3 C12_3 1_555 1_555
H10_3 C13_3 1_555 1_555
C14_3 C9_3 1_555 1_555
H11_3 C14_3 1_555 1_555
C15_3 C9_3 1_555 1_555
C16_3 O9_3 1_555 1_555
Ho12 O9_3 1_555 1_555
S4_3 O27_3 1_555 1_555
O41_4 C23_3 1_555 1_555
O24_3 C23_3 1_555 1_555
O42 C24_3 1_555 1_555
O26_3 Ho12 1_555 1_555
O27_3 Ho14_2 1_555 1_555
O28_3 S4_3 1_555 1_555
O29_3 S4_3 1_555 1_555
H12_3 O37_3 1_555 1_555
H13_3 O38_3 1_555 1_555
H14_3 O47 1_555 1_555
C17_3 H15_3 1_555 1_555
C18_3 C17_3 1_555 1_555
H16_3 C18_3 1_555 1_555
C19_3 C18_3 1_555 1_555
C20_3 S4_3 1_555 1_555
C21_3 C20_3 1_555 1_555
H17_3 C21_3 1_555 1_555
C22_3 C17_3 1_555 1_555
C23_3 C22_3 1_555 1_555
C24_3 O26_3 1_555 1_555
S1_3 O14_3 1_555 1_555
C10_3 C11_3 1_555 1_555
C12_3 C16_3 1_555 1_555
C13_3 C14_3 1_555 1_555
Ho12 O37_3 1_555 1_555
Ho12 O38_3 1_555 1_555
Ho14_2 O26_3 1_555 1_555
Ho14_2 O37_3 1_555 1_555
Ho14_2 O38_3 1_555 1_555
C19_3 C20_3 1_555 1_555
C19_3 C24_3 1_555 1_555
C21_3 C22_3 1_555 1_555
Ho12_2 O4_3 1_555 1_555
Ho13_2 O4_3 1_555 1_555
S2_3 O5_3 1_555 1_555
O41_3 C7_3 1_555 1_555
O2_3 C7_3 1_555 1_555
O42_2 C8_3 1_555 1_555
O4_3 C8_3 1_555 1_555
O5_3 Ho13_2 1_555 1_555
O6_3 S2_3 1_555 1_555
O7_3 S2_3 1_555 1_555
O15_3 Ho12_2 1_555 1_555
H1_3 O15_3 1_555 1_555
O16_3 Ho12_2 1_555 1_555
H2_3 O16_3 1_555 1_555
H4_3 O47_2 1_555 1_555
C1_3 H6_3 1_555 1_555
C2_3 C1_3 1_555 1_555
H7_3 C2_3 1_555 1_555
C3_3 C2_3 1_555 1_555
C4_3 S2_3 1_555 1_555
C5_3 C4_3 1_555 1_555
H8_3 C5_3 1_555 1_555
C6_3 C1_3 1_555 1_555
C7_3 C6_3 1_555 1_555
C8_3 C3_3 1_555 1_555
S3_3 O34_3 1_555 1_555
O31_3 Ho12_2 1_555 1_555
O45_2 C31_3 1_555 1_555
O33_3 C31_3 1_555 1_555
O35_3 S3_3 1_555 1_555
C25_3 C26_3 1_555 1_555
C26_3 H18_3 1_555 1_555
C27_3 S3_3 1_555 1_555
C28_3 C27_3 1_555 1_555
C29_3 C28_3 1_555 1_555
H19_3 C29_3 1_555 1_555
C30_3 C25_3 1_555 1_555
H20_3 C30_3 1_555 1_555
C31_3 C25_3 1_555 1_555
C32_3 O43_2 1_555 1_555
Ho13_2 O15_3 1_555 1_555
Ho13_2 O16_3 1_555 1_555
C3_3 C4_3 1_555 1_555
C5_3 C6_3 1_555 1_555
S3_3 O36_3 1_555 1_555
O31_3 C32_3 1_555 1_555
C26_3 C27_3 1_555 1_555
C28_3 C32_3 1_555 1_555
C29_3 C30_3 1_555 1_555
O22_3 H23_3 1_555 1_555
O20_4 H21_3 1_555 1_555
O20_4 H22_3 1_555 1_555
O22_4 H24_3 1_555 1_555
O22 H23_4 1_555 1_555
O20_2 H21_4 1_555 1_555
O20_2 H22_4 1_555 1_555
O22_2 H24_4 1_555 1_555
S4_4 O27_4 1_555 1_555
O41_2 C23_4 1_555 1_555
O24_4 C23_4 1_555 1_555
O42_3 C24_4 1_555 1_555
O26_4 Ho12_3 1_555 1_555
O27_4 Ho14 1_555 1_555
O28_4 S4_4 1_555 1_555
O29_4 S4_4 1_555 1_555
H12_4 O37_4 1_555 1_555
H13_4 O38_4 1_555 1_555
H14_4 O47_3 1_555 1_555
C17_4 H15_4 1_555 1_555
C18_4 C17_4 1_555 1_555
H16_4 C18_4 1_555 1_555
C19_4 C18_4 1_555 1_555
C20_4 S4_4 1_555 1_555
C21_4 C20_4 1_555 1_555
H17_4 C21_4 1_555 1_555
C22_4 C17_4 1_555 1_555
C23_4 C22_4 1_555 1_555
C24_4 O26_4 1_555 1_555
Ho12_3 O37_4 1_555 1_555
Ho12_3 O38_4 1_555 1_555
Ho14 O26_4 1_555 1_555
Ho14 O37_4 1_555 1_555
Ho14 O38_4 1_555 1_555
C19_4 C20_4 1_555 1_555
C19_4 C24_4 1_555 1_555
C21_4 C22_4 1_555 1_555
S3_4 O34_4 1_555 1_555
O45 C31_4 1_555 1_555
O33_4 C31_4 1_555 1_555
O35_4 S3_4 1_555 1_555
C25_4 C26_4 1_555 1_555
C26_4 H18_4 1_555 1_555
C27_4 S3_4 1_555 1_555
C28_4 C27_4 1_555 1_555
C29_4 C28_4 1_555 1_555
H19_4 C29_4 1_555 1_555
C30_4 C25_4 1_555 1_555
H20_4 C30_4 1_555 1_555
C31_4 C25_4 1_555 1_555
C32_4 O43_4 1_555 1_555
S3_4 O36_4 1_555 1_555
O31_4 C32_4 1_555 1_555
C26_4 C27_4 1_555 1_555
C28_4 C32_4 1_555 1_555
C29_4 C30_4 1_555 1_555
S1_4 O12_4 1_555 1_555
O43_3 C16_4 1_555 1_555
O44 C15_4 1_555 1_555
O11_4 C15_4 1_555 1_555
O13_4 S1_4 1_555 1_555
C9_4 C10_4 1_555 1_555
C10_4 H9_4 1_555 1_555
C11_4 S1_4 1_555 1_555
C12_4 C11_4 1_555 1_555
C13_4 C12_4 1_555 1_555
H10_4 C13_4 1_555 1_555
C14_4 C9_4 1_555 1_555
H11_4 C14_4 1_555 1_555
C15_4 C9_4 1_555 1_555
C16_4 O9_4 1_555 1_555
S1_4 O14_4 1_555 1_555
C10_4 C11_4 1_555 1_555
C12_4 C16_4 1_555 1_555
C13_4 C14_4 1_555 1_555
Ho12_4 O4_4 1_555 1_555
Ho13 O4_4 1_555 1_555
S2_4 O5_4 1_555 1_555
O41 C7_4 1_555 1_555
O2_4 C7_4 1_555 1_555
O42_4 C8_4 1_555 1_555
O4_4 C8_4 1_555 1_555
O5_4 Ho13 1_555 1_555
O6_4 S2_4 1_555 1_555
O7_4 S2_4 1_555 1_555
O15_4 Ho12_4 1_555 1_555
H1_4 O15_4 1_555 1_555
O16_4 Ho12_4 1_555 1_555
H2_4 O16_4 1_555 1_555
H4_4 O47_4 1_555 1_555
C1_4 H6_4 1_555 1_555
C2_4 C1_4 1_555 1_555
H7_4 C2_4 1_555 1_555
C3_4 C2_4 1_555 1_555
C4_4 S2_4 1_555 1_555
C5_4 C4_4 1_555 1_555
H8_4 C5_4 1_555 1_555
C6_4 C1_4 1_555 1_555
C7_4 C6_4 1_555 1_555
C8_4 C3_4 1_555 1_555
Ho13 O15_4 1_555 1_555
Ho13 O16_4 1_555 1_555
C3_4 C4_4 1_555 1_555
C5_4 C6_4 1_555 1_555

#END
