
###############################################################################
#
# This file contains modified crystal structure data generated from the
# MOF subset of the Cambridge Structural Database (CSD) v543 
# hosted by the Cambridge Crystallographic Data Centre (CCDC).
#
# This work is licensed under the Creative Commons
# Attribution-NonCommercial-ShareAlike 4.0 International License.
# To view a copy of this license, visit
# http://creativecommons.org/licenses/by-nc-sa/4.0/
# or send a letter to
# Creative Commons, PO Box 1866, Mountain View, CA 94042, USA.
#
# CIF created using the CSD Python API on 29 September 2022
# The structure has been converted into the P1 space group
# The structure has a 3D framework
# The original CSD entry CUBXUV is in the monoclinic crystal system
# The framework has been calculated to contain at least 10.0% void space
# The void calculation uses a probe of radius 1.32A, grid spacing 0.4
#
###############################################################################

data_CUBXUV
_chemical_formula_moiety         '(C128 H100 Co20 O102)n'
_symmetry_cell_setting           triclinic
_symmetry_space_group_name_H-M   'P 1'
_symmetry_Int_Tables_number      1
_space_group_name_Hall           'P 1'
loop_
_symmetry_equiv_pos_site_id
_symmetry_equiv_pos_as_xyz
1 x,y,z
_cell_length_a                   19.9632(18)
_cell_length_b                   13.5266(18)
_cell_length_c                   22.045(2)
_cell_angle_alpha                90
_cell_angle_beta                 95.648(5)
_cell_angle_gamma                90
_cell_volume                     5924
loop_
_atom_site_label
_atom_site_type_symbol
_atom_site_fract_x
_atom_site_fract_y
_atom_site_fract_z
Co1 Co 0.2500 0.7500 0.5000
Co2 Co 0.32370(2) 0.77196(3) 0.62696(2)
Co3 Co 0.19646(2) 0.59070(2) 0.58928(2)
O1 O 0.26072(9) 0.86893(13) 0.56514(8)
H1 H 0.2241 0.8864 0.5787
H2 H 0.2817 0.9186 0.5530
O2 O 0.36493(11) 0.89911(18) 0.66976(10)
H3 H 0.3996 0.9163 0.6529
H4 H 0.3760 0.8869 0.7072
O3 O 0.38402(11) 0.6733(2) 0.68281(10)
H5 H 0.4249 0.6911 0.6835
H6 H 0.3720 0.6744 0.7187
O4 O 0.27997(8) 0.66340(13) 0.57157(7)
H7 H 0.3086 0.6242 0.5624
O5 O 0.16860(10) 0.50360(15) 0.50381(9)
O6 O 0.10892(9) 0.49783(14) 0.58185(9)
C1 C 0.11782(13) 0.47271(19) 0.52854(13)
C4 C 0.01210(12) 0.37149(18) 0.52004(11)
H8 H 0.0089 0.3827 0.5622
C5 C 0.06702(12) 0.40801(18) 0.49290(12)
C6 C 0.07234(12) 0.38928(19) 0.43155(12)
H9 H 0.1093 0.4146 0.4123
C7 C 0.02321(13) 0.33339(19) 0.39897(11)
C9 C 0.08269(12) 0.2656(2) 0.32135(12)
C10 C 0.10931(13) 0.1883(2) 0.35685(12)
H11 H 0.0894 0.1696 0.3926
C11 C 0.16551(14) 0.1378(2) 0.34002(13)
C12 C 0.19338(13) 0.1653(2) 0.28734(12)
H12 H 0.2320 0.1316 0.2760
C13 C 0.16544(13) 0.2413(2) 0.25118(11)
C14 C 0.10943(13) 0.2923(2) 0.26804(12)
H13 H 0.0899 0.3444 0.2434
C15 C 0.19460(16) 0.0530(2) 0.37885(14)
C16 C 0.19807(13) 0.2714(2) 0.19514(11)
O9 O 0.02660(9) 0.31761(14) 0.33644(8)
O10 O 0.16198(15) 0.0202(2) 0.41935(15)
O11 O 0.25140(9) 0.02278(14) 0.36705(9)
O12 O 0.25056(10) 0.22640(15) 0.18510(8)
O13 O 0.17028(9) 0.34049(14) 0.16382(8)
C18 C 0.10124(12) 0.70787(19) 0.48646(11)
C19 C 0.03802(12) 0.68104(18) 0.51379(11)
C24 C 0.03234(12) 0.70104(19) 0.57541(11)
H23 H 0.0662 0.7376 0.5990
O20 O 0.15398(8) 0.71728(13) 0.52372(8)
O21 O 0.09850(9) 0.71721(14) 0.42993(8)
Co9 Co 0.32370(2) 0.22804(3) 0.12696(2)
Co10 Co 0.17630(2) 0.72804(3) 0.37304(2)
Co13 Co 0.19646(2) 0.40930(2) 0.08928(2)
O27 O 0.23928(9) 0.63107(13) 0.43486(8)
O28 O 0.22003(8) 0.83660(13) 0.42843(7)
O29 O 0.34602(8) 0.78272(13) 0.47628(8)
O30 O 0.40150(9) 0.78279(14) 0.57007(8)
O33 O 0.24860(9) 0.47722(14) 0.63295(9)
O35 O 0.25056(10) 0.77360(15) 0.68510(8)
O37 O 0.17028(9) 0.65951(14) 0.66382(8)
Co14 Co 0.30354(2) 0.90930(2) 0.41072(2)
Co12 Co 0.69646(2) 0.09070(2) 0.58928(2)
C2 C 0.89876(12) 0.29213(19) 0.51354(11)
C3 C 0.96198(12) 0.31896(18) 0.48621(11)
C8 C 0.96766(12) 0.29896(19) 0.42459(11)
H10 H 0.9338 0.2624 0.4010
O7 O 0.84602(8) 0.28272(13) 0.47628(8)
O8 O 0.90150(9) 0.28279(14) 0.57007(8)
Co4 Co 0.67630(2) 0.22804(3) 0.37304(2)
Co5 Co 0.80354(2) 0.40930(2) 0.41072(2)
O14 O 0.73928(9) 0.13107(13) 0.43486(8)
H14 H 0.7759 0.1136 0.4213
H15 H 0.7183 0.0814 0.4470
O15 O 0.63507(11) 0.10089(18) 0.33024(10)
H16 H 0.6004 0.0837 0.3471
H17 H 0.6240 0.1131 0.2928
O16 O 0.61598(11) 0.3267(2) 0.31719(10)
H18 H 0.5751 0.3089 0.3165
H19 H 0.6280 0.3256 0.2813
O17 O 0.72003(8) 0.33660(13) 0.42843(7)
H20 H 0.6914 0.3758 0.4376
O18 O 0.83140(10) 0.49640(15) 0.49619(9)
O19 O 0.89108(9) 0.50217(14) 0.41815(9)
C17 C 0.88218(13) 0.52729(19) 0.47146(13)
C20 C 0.98790(12) 0.62851(18) 0.47996(11)
H21 H 0.9911 0.6173 0.4378
C21 C 0.93298(12) 0.59199(18) 0.50710(12)
C22 C 0.92766(12) 0.61072(19) 0.56845(12)
H22 H 0.8907 0.5854 0.5877
C23 C 0.97679(13) 0.66661(19) 0.60103(11)
C25 C 0.91731(12) 0.7344(2) 0.67865(12)
C26 C 0.89069(13) 0.8117(2) 0.64315(12)
H24 H 0.9106 0.8304 0.6074
C27 C 0.83449(14) 0.8622(2) 0.65998(13)
C28 C 0.80662(13) 0.8347(2) 0.71266(12)
H25 H 0.7680 0.8684 0.7240
C29 C 0.83456(13) 0.7587(2) 0.74882(11)
C30 C 0.89057(13) 0.7077(2) 0.73196(12)
H26 H 0.9101 0.6556 0.7566
C31 C 0.80540(16) 0.9470(2) 0.62115(14)
C32 C 0.80193(13) 0.7286(2) 0.80486(11)
O22 O 0.97340(9) 0.68239(14) 0.66356(8)
O23 O 0.83802(15) 0.9798(2) 0.58065(15)
O24 O 0.74860(9) 0.97722(14) 0.63295(9)
O25 O 0.74944(10) 0.77360(15) 0.81490(8)
O26 O 0.82972(9) 0.65951(14) 0.83618(8)
Co6 Co 0.7500 0.2500 0.5000
Co7 Co 0.67630(2) 0.77196(3) 0.87304(2)
Co8 Co 0.82370(2) 0.27196(3) 0.62696(2)
Co11 Co 0.80354(2) 0.59070(2) 0.91072(2)
O31 O 0.59850(9) 0.21721(14) 0.42993(8)
O32 O 0.75140(9) 0.52278(14) 0.36705(9)
O34 O 0.74944(10) 0.22640(15) 0.31490(8)
O36 O 0.82972(9) 0.34049(14) 0.33618(8)
Co12_2 Co 0.30354(2) 0.09070(2) 0.91072(2)
C3_2 C 0.03802(12) 0.31896(18) 0.01379(11)
C8_2 C 0.03234(12) 0.29896(19) 0.07541(11)
H10_2 H 0.0662 0.2624 0.0990
O7_2 O 0.15398(8) 0.28272(13) 0.02372(8)
O14_2 O 0.26072(9) 0.13107(13) 0.06514(8)
H14_2 H 0.2241 0.1136 0.0787
H15_2 H 0.2817 0.0814 0.0530
O15_2 O 0.36493(11) 0.10089(18) 0.16976(10)
H16_2 H 0.3996 0.0837 0.1529
H17_2 H 0.3760 0.1131 0.2072
O16_2 O 0.38402(11) 0.3267(2) 0.18281(10)
H18_2 H 0.4249 0.3089 0.1835
H19_2 H 0.3720 0.3256 0.2187
O17_2 O 0.27997(8) 0.33660(13) 0.07157(7)
H20_2 H 0.3086 0.3758 0.0624
O18_2 O 0.16860(10) 0.49640(15) 0.00381(9)
O19_2 O 0.10892(9) 0.50217(14) 0.08185(9)
C17_2 C 0.11782(13) 0.52729(19) 0.02854(13)
C20_2 C 0.01210(12) 0.62851(18) 0.02004(11)
H21_2 H 0.0089 0.6173 0.0622
Co6_2 Co 0.2500 0.2500 0.0000
O31_2 O 0.40150(9) 0.21721(14) 0.07007(8)
O32_2 O 0.24860(9) 0.52278(14) 0.13295(9)
C2_2 C 0.10124(12) 0.29213(19) 0.98646(11)
O8_2 O 0.09850(9) 0.28279(14) 0.92993(8)
C21_2 C 0.06702(12) 0.59199(18) 0.99290(12)
C22_2 C 0.07234(12) 0.61072(19) 0.93155(12)
H22_2 H 0.1093 0.5854 0.9123
C23_2 C 0.02321(13) 0.66661(19) 0.89897(11)
C25_2 C 0.08269(12) 0.7344(2) 0.82135(12)
C26_2 C 0.10931(13) 0.8117(2) 0.85685(12)
H24_2 H 0.0894 0.8304 0.8926
C27_2 C 0.16551(14) 0.8622(2) 0.84002(13)
C28_2 C 0.19338(13) 0.8347(2) 0.78734(12)
H25_2 H 0.2320 0.8684 0.7760
C29_2 C 0.16544(13) 0.7587(2) 0.75118(11)
C30_2 C 0.10943(13) 0.7077(2) 0.76804(12)
H26_2 H 0.0899 0.6556 0.7434
C31_2 C 0.19460(16) 0.9470(2) 0.87885(14)
C32_2 C 0.19807(13) 0.7286(2) 0.69514(11)
O22_2 O 0.02660(9) 0.68239(14) 0.83644(8)
O23_2 O 0.16198(15) 0.9798(2) 0.91935(15)
O24_2 O 0.25140(9) 0.97722(14) 0.86705(9)
Co6_3 Co 0.2500 0.2500 1.0000
Co8_2 Co 0.17630(2) 0.27196(3) 0.87304(2)
Co1_2 Co 0.7500 0.7500 0.0000
C5_2 C 0.93298(12) 0.40801(18) 0.00710(12)
C6_2 C 0.92766(12) 0.38928(19) 0.06845(12)
H9_2 H 0.8907 0.4146 0.0877
C7_2 C 0.97679(13) 0.33339(19) 0.10103(11)
C9_2 C 0.91731(12) 0.2656(2) 0.17865(12)
C10_2 C 0.89069(13) 0.1883(2) 0.14315(12)
H11_2 H 0.9106 0.1696 0.1074
C11_2 C 0.83449(14) 0.1378(2) 0.15998(13)
C12_2 C 0.80662(13) 0.1653(2) 0.21266(12)
H12_2 H 0.7680 0.1316 0.2240
C13_2 C 0.83456(13) 0.2413(2) 0.24882(11)
C14_2 C 0.89057(13) 0.2923(2) 0.23196(12)
H13_2 H 0.9101 0.3444 0.2566
C15_2 C 0.80540(16) 0.0530(2) 0.12115(14)
C16_2 C 0.80193(13) 0.2714(2) 0.30486(11)
O9_2 O 0.97340(9) 0.31761(14) 0.16356(8)
O10_2 O 0.83802(15) 0.0202(2) 0.08065(15)
O11_2 O 0.74860(9) 0.02278(14) 0.13295(9)
C18_2 C 0.89876(12) 0.70787(19) 0.01354(11)
O21_2 O 0.90150(9) 0.71721(14) 0.07007(8)
Co10_2 Co 0.82370(2) 0.72804(3) 0.12696(2)
O27_2 O 0.76072(9) 0.63107(13) 0.06514(8)
O28_2 O 0.77997(8) 0.83660(13) 0.07157(7)
O29_2 O 0.65398(8) 0.78272(13) 0.02372(8)
Co1_3 Co 0.7500 0.7500 1.0000
O1_2 O 0.73928(9) 0.86893(13) 0.93486(8)
H1_2 H 0.7759 0.8864 0.9213
H2_2 H 0.7183 0.9186 0.9470
O2_2 O 0.63507(11) 0.89911(18) 0.83024(10)
H3_2 H 0.6004 0.9163 0.8471
H4_2 H 0.6240 0.8869 0.7928
O3_2 O 0.61598(11) 0.6733(2) 0.81719(10)
H5_2 H 0.5751 0.6911 0.8165
H6_2 H 0.6280 0.6744 0.7813
O4_2 O 0.72003(8) 0.66340(13) 0.92843(7)
H7_2 H 0.6914 0.6242 0.9376
O5_2 O 0.83140(10) 0.50360(15) 0.99619(9)
O6_2 O 0.89108(9) 0.49783(14) 0.91815(9)
C1_2 C 0.88218(13) 0.47271(19) 0.97146(13)
C4_2 C 0.98790(12) 0.37149(18) 0.97996(11)
H8_2 H 0.9911 0.3827 0.9378
C19_2 C 0.96198(12) 0.68104(18) 0.98621(11)
C24_2 C 0.96766(12) 0.70104(19) 0.92459(11)
H23_2 H 0.9338 0.7376 0.9010
O20_2 O 0.84602(8) 0.71728(13) 0.97628(8)
O30_2 O 0.59850(9) 0.78279(14) 0.92993(8)
O33_2 O 0.75140(9) 0.47722(14) 0.86705(9)
Co14_2 Co 0.69646(2) 0.90930(2) 0.08928(2)
O1_3 O 0.76072(9) 0.36893(13) 0.56514(8)
H1_3 H 0.7241 0.3864 0.5787
H2_3 H 0.7817 0.4186 0.5530
O2_3 O 0.86493(11) 0.39911(18) 0.66976(10)
H3_3 H 0.8996 0.4163 0.6529
H4_3 H 0.8760 0.3869 0.7072
O3_3 O 0.88402(11) 0.1733(2) 0.68281(10)
H5_3 H 0.9249 0.1911 0.6835
H6_3 H 0.8720 0.1744 0.7187
O4_3 O 0.77997(8) 0.16340(13) 0.57157(7)
H7_3 H 0.8086 0.1242 0.5624
O5_3 O 0.66860(10) 0.00360(15) 0.50381(9)
O19_3 O 0.39108(9) 0.00217(14) 0.41815(9)
C17_3 C 0.38218(13) 0.02729(19) 0.47146(13)
C18_3 C 0.60124(12) 0.20787(19) 0.48646(11)
C19_3 C 0.53802(12) 0.18104(18) 0.51379(11)
C20_3 C 0.48790(12) 0.12851(18) 0.47996(11)
H21_3 H 0.4911 0.1173 0.4378
C21_3 C 0.43298(12) 0.09199(18) 0.50710(12)
C22_3 C 0.42766(12) 0.11072(19) 0.56845(12)
H22_3 H 0.3907 0.0854 0.5877
C23_3 C 0.47679(13) 0.16661(19) 0.60103(11)
C24_3 C 0.53234(12) 0.20104(19) 0.57541(11)
H23_3 H 0.5662 0.2376 0.5990
C25_3 C 0.41731(12) 0.2344(2) 0.67865(12)
C26_3 C 0.39069(13) 0.3117(2) 0.64315(12)
H24_3 H 0.4106 0.3304 0.6074
C27_3 C 0.33449(14) 0.3622(2) 0.65998(13)
C28_3 C 0.30662(13) 0.3347(2) 0.71266(12)
H25_3 H 0.2680 0.3684 0.7240
C29_3 C 0.33456(13) 0.2587(2) 0.74882(11)
C30_3 C 0.39057(13) 0.2077(2) 0.73196(12)
H26_3 H 0.4101 0.1556 0.7566
C31_3 C 0.30540(16) 0.4470(2) 0.62115(14)
C32_3 C 0.30193(13) 0.2286(2) 0.80486(11)
O20_3 O 0.65398(8) 0.21728(13) 0.52372(8)
O22_3 O 0.47340(9) 0.18239(14) 0.66356(8)
O23_3 O 0.33802(15) 0.4798(2) 0.58065(15)
O25_2 O 0.24944(10) 0.27360(15) 0.81490(8)
O26_2 O 0.32972(9) 0.15951(14) 0.83618(8)
O35_2 O 0.75056(10) 0.27360(15) 0.68510(8)
O37_2 O 0.67028(9) 0.15951(14) 0.66382(8)
O6_3 O 0.60892(9) 0.99783(14) 0.58185(9)
C1_3 C 0.61782(13) 0.97271(19) 0.52854(13)
C2_3 C 0.39876(12) 0.79213(19) 0.51354(11)
C3_3 C 0.46198(12) 0.81896(18) 0.48621(11)
C4_3 C 0.51210(12) 0.87149(18) 0.52004(11)
H8_3 H 0.5089 0.8827 0.5622
C5_3 C 0.56702(12) 0.90801(18) 0.49290(12)
C6_3 C 0.57234(12) 0.88928(19) 0.43155(12)
H9_3 H 0.6093 0.9146 0.4123
C7_3 C 0.52321(13) 0.83339(19) 0.39897(11)
C8_3 C 0.46766(12) 0.79896(19) 0.42459(11)
H10_3 H 0.4338 0.7624 0.4010
C9_3 C 0.58269(12) 0.7656(2) 0.32135(12)
C10_3 C 0.60931(13) 0.6883(2) 0.35685(12)
H11_3 H 0.5894 0.6696 0.3926
C11_3 C 0.66551(14) 0.6378(2) 0.34002(13)
C12_3 C 0.69338(13) 0.6653(2) 0.28734(12)
H12_3 H 0.7320 0.6316 0.2760
C13_3 C 0.66544(13) 0.7413(2) 0.25118(11)
C14_3 C 0.60943(13) 0.7923(2) 0.26804(12)
H13_3 H 0.5899 0.8444 0.2434
C15_3 C 0.69460(16) 0.5530(2) 0.37885(14)
C16_3 C 0.69807(13) 0.7714(2) 0.19514(11)
O9_3 O 0.52660(9) 0.81761(14) 0.33644(8)
O10_3 O 0.66198(15) 0.5202(2) 0.41935(15)
O12_2 O 0.75056(10) 0.72640(15) 0.18510(8)
O13_2 O 0.67028(9) 0.84049(14) 0.16382(8)
H14_3 H 0.2759 0.6136 0.4213
H15_3 H 0.2183 0.5814 0.4470
O15_3 O 0.13507(11) 0.60089(18) 0.33024(10)
H16_3 H 0.1004 0.5837 0.3471
H17_3 H 0.1240 0.6131 0.2928
O16_3 O 0.11598(11) 0.8267(2) 0.31719(10)
H18_3 H 0.0751 0.8089 0.3165
H19_3 H 0.1280 0.8256 0.2813
H20_3 H 0.1914 0.8758 0.4376
O18_3 O 0.33140(10) 0.99640(15) 0.49619(9)
O34_2 O 0.24944(10) 0.72640(15) 0.31490(8)
O36_2 O 0.32972(9) 0.84049(14) 0.33618(8)
O19_4 O 0.60892(9) 0.00217(14) 0.08185(9)
C17_4 C 0.61782(13) 0.02729(19) 0.02854(13)
C18_4 C 0.39876(12) 0.20787(19) 0.01354(11)
C20_4 C 0.51210(12) 0.12851(18) 0.02004(11)
H21_4 H 0.5089 0.1173 0.0622
O1_4 O 0.23928(9) 0.36893(13) 0.93486(8)
H1_4 H 0.2759 0.3864 0.9213
H2_4 H 0.2183 0.4186 0.9470
O2_4 O 0.13507(11) 0.39911(18) 0.83024(10)
H3_4 H 0.1004 0.4163 0.8471
H4_4 H 0.1240 0.3869 0.7928
O3_4 O 0.11598(11) 0.1733(2) 0.81719(10)
H5_4 H 0.0751 0.1911 0.8165
H6_4 H 0.1280 0.1744 0.7813
O4_4 O 0.22003(8) 0.16340(13) 0.92843(7)
H7_4 H 0.1914 0.1242 0.9376
O5_4 O 0.33140(10) 0.00360(15) 0.99619(9)
C19_4 C 0.46198(12) 0.18104(18) 0.98621(11)
C21_4 C 0.56702(12) 0.09199(18) 0.99290(12)
C22_4 C 0.57234(12) 0.11072(19) 0.93155(12)
H22_4 H 0.6093 0.0854 0.9123
C23_4 C 0.52321(13) 0.16661(19) 0.89897(11)
C24_4 C 0.46766(12) 0.20104(19) 0.92459(11)
H23_4 H 0.4338 0.2376 0.9010
C25_4 C 0.58269(12) 0.2344(2) 0.82135(12)
C26_4 C 0.60931(13) 0.3117(2) 0.85685(12)
H24_4 H 0.5894 0.3304 0.8926
C27_4 C 0.66551(14) 0.3622(2) 0.84002(13)
C28_4 C 0.69338(13) 0.3347(2) 0.78734(12)
H25_4 H 0.7320 0.3684 0.7760
C29_4 C 0.66544(13) 0.2587(2) 0.75118(11)
C30_4 C 0.60943(13) 0.2077(2) 0.76804(12)
H26_4 H 0.5899 0.1556 0.7434
C31_4 C 0.69460(16) 0.4470(2) 0.87885(14)
C32_4 C 0.69807(13) 0.2286(2) 0.69514(11)
O20_4 O 0.34602(8) 0.21728(13) 0.97628(8)
O22_4 O 0.52660(9) 0.18239(14) 0.83644(8)
O23_4 O 0.66198(15) 0.4798(2) 0.91935(15)
C3_4 C 0.53802(12) 0.81896(18) 0.01379(11)
C5_4 C 0.43298(12) 0.90801(18) 0.00710(12)
C6_4 C 0.42766(12) 0.88928(19) 0.06845(12)
H9_4 H 0.3907 0.9146 0.0877
C7_4 C 0.47679(13) 0.83339(19) 0.10103(11)
C8_4 C 0.53234(12) 0.79896(19) 0.07541(11)
H10_4 H 0.5662 0.7624 0.0990
C9_4 C 0.41731(12) 0.7656(2) 0.17865(12)
C10_4 C 0.39069(13) 0.6883(2) 0.14315(12)
H11_4 H 0.4106 0.6696 0.1074
C11_4 C 0.33449(14) 0.6378(2) 0.15998(13)
C12_4 C 0.30662(13) 0.6653(2) 0.21266(12)
H12_4 H 0.2680 0.6316 0.2240
C13_4 C 0.33456(13) 0.7413(2) 0.24882(11)
C14_4 C 0.39057(13) 0.7923(2) 0.23196(12)
H13_4 H 0.4101 0.8444 0.2566
C15_4 C 0.30540(16) 0.5530(2) 0.12115(14)
C16_4 C 0.30193(13) 0.7714(2) 0.30486(11)
O9_4 O 0.47340(9) 0.81761(14) 0.16356(8)
O10_4 O 0.33802(15) 0.5202(2) 0.08065(15)
H14_4 H 0.7241 0.6136 0.0787
H15_4 H 0.7817 0.5814 0.0530
O15_4 O 0.86493(11) 0.60089(18) 0.16976(10)
H16_4 H 0.8996 0.5837 0.1529
H17_4 H 0.8760 0.6131 0.2072
O16_4 O 0.88402(11) 0.8267(2) 0.18281(10)
H18_4 H 0.9249 0.8089 0.1835
H19_4 H 0.8720 0.8256 0.2187
H20_4 H 0.8086 0.8758 0.0624
O18_4 O 0.66860(10) 0.99640(15) 0.00381(9)
O6_4 O 0.39108(9) 0.99783(14) 0.91815(9)
C1_4 C 0.38218(13) 0.97271(19) 0.97146(13)
C2_4 C 0.60124(12) 0.79213(19) 0.98646(11)
C4_4 C 0.48790(12) 0.87149(18) 0.97996(11)
H8_4 H 0.4911 0.8827 0.9378
loop_
_geom_bond_atom_site_label_1
_geom_bond_atom_site_label_2
_geom_bond_site_symmetry_1
_geom_bond_site_symmetry_2
Co1 O1 1_555 1_555
Co2 O1 1_555 1_555
Co3 O4 1_555 1_555
O1 H1 1_555 1_555
H2 O1 1_555 1_555
O2 Co2 1_555 1_555
H3 O2 1_555 1_555
H4 O2 1_555 1_555
O3 Co2 1_555 1_555
H5 O3 1_555 1_555
H6 O3 1_555 1_555
O4 Co1 1_555 1_555
H7 O4 1_555 1_555
O5 Co3 1_555 1_555
O6 Co3 1_555 1_555
C1 O5 1_555 1_555
C4 H8 1_555 1_555
C5 C1 1_555 1_555
C6 C5 1_555 1_555
H9 C6 1_555 1_555
C7 C6 1_555 1_555
C9 C10 1_555 1_555
C10 H11 1_555 1_555
C11 C10 1_555 1_555
C12 C11 1_555 1_555
H12 C12 1_555 1_555
C13 C12 1_555 1_555
C14 C9 1_555 1_555
H13 C14 1_555 1_555
C15 C11 1_555 1_555
C16 C13 1_555 1_555
O9 C7 1_555 1_555
O10 C15 1_555 1_555
O11 C15 1_555 1_555
O12 C16 1_555 1_555
O13 C16 1_555 1_555
C18 C19 1_555 1_555
C24 C19 1_555 1_555
H23 C24 1_555 1_555
O20 Co1 1_555 1_555
O21 C18 1_555 1_555
Co9 O12 1_555 1_555
Co10 O21 1_555 1_555
Co13 O13 1_555 1_555
O27 Co1 1_555 1_555
O28 Co1 1_555 1_555
O29 Co1 1_555 1_555
O30 Co2 1_555 1_555
O33 Co3 1_555 1_555
O35 Co2 1_555 1_555
O37 Co3 1_555 1_555
Co2 O4 1_555 1_555
Co3 O20 1_555 1_555
O6 C1 1_555 1_555
C4 C5 1_555 1_555
C9 O9 1_555 1_555
C13 C14 1_555 1_555
C18 O20 1_555 1_555
Co10 O27 1_555 1_555
Co10 O28 1_555 1_555
C2 C3 1_555 1_555
C8 C3 1_555 1_555
H10 C8 1_555 1_555
O7 C2 1_555 1_555
O8 C2 1_555 1_555
Co4 O14 1_555 1_555
Co5 O7 1_555 1_555
O14 H14 1_555 1_555
H15 O14 1_555 1_555
O15 Co4 1_555 1_555
H16 O15 1_555 1_555
H17 O15 1_555 1_555
O16 Co4 1_555 1_555
H18 O16 1_555 1_555
H19 O16 1_555 1_555
O17 Co4 1_555 1_555
H20 O17 1_555 1_555
O18 Co5 1_555 1_555
O19 Co5 1_555 1_555
C17 O18 1_555 1_555
C20 H21 1_555 1_555
C21 C17 1_555 1_555
C22 C21 1_555 1_555
H22 C22 1_555 1_555
C23 C22 1_555 1_555
C25 C26 1_555 1_555
C26 H24 1_555 1_555
C27 C26 1_555 1_555
C28 C27 1_555 1_555
H25 C28 1_555 1_555
C29 C28 1_555 1_555
C30 C25 1_555 1_555
H26 C30 1_555 1_555
C31 C27 1_555 1_555
C32 C29 1_555 1_555
O22 C23 1_555 1_555
O23 C31 1_555 1_555
O24 C31 1_555 1_555
O25 C32 1_555 1_555
O26 C32 1_555 1_555
Co6 O7 1_555 1_555
Co7 O25 1_555 1_555
Co8 O8 1_555 1_555
Co11 O26 1_555 1_555
O31 Co4 1_555 1_555
O32 Co5 1_555 1_555
O34 Co4 1_555 1_555
O36 Co5 1_555 1_555
Co5 O17 1_555 1_555
O14 Co6 1_555 1_555
O17 Co6 1_555 1_555
O19 C17 1_555 1_555
C20 C21 1_555 1_555
C25 O22 1_555 1_555
C29 C30 1_555 1_555
C8_2 C3_2 1_555 1_555
H10_2 C8_2 1_555 1_555
Co9 O14_2 1_555 1_555
Co13 O7_2 1_555 1_555
O14_2 H14_2 1_555 1_555
H15_2 O14_2 1_555 1_555
O15_2 Co9 1_555 1_555
H16_2 O15_2 1_555 1_555
H17_2 O15_2 1_555 1_555
O16_2 Co9 1_555 1_555
H18_2 O16_2 1_555 1_555
H19_2 O16_2 1_555 1_555
O17_2 Co9 1_555 1_555
H20_2 O17_2 1_555 1_555
O18_2 Co13 1_555 1_555
O19_2 Co13 1_555 1_555
C17_2 O18_2 1_555 1_555
C20_2 H21_2 1_555 1_555
Co6_2 O7_2 1_555 1_555
O31_2 Co9 1_555 1_555
O32_2 Co13 1_555 1_555
Co13 O17_2 1_555 1_555
O14_2 Co6_2 1_555 1_555
O17_2 Co6_2 1_555 1_555
O19_2 C17_2 1_555 1_555
O8_2 C2_2 1_555 1_555
C22_2 C21_2 1_555 1_555
H22_2 C22_2 1_555 1_555
C23_2 C22_2 1_555 1_555
C25_2 C26_2 1_555 1_555
C26_2 H24_2 1_555 1_555
C27_2 C26_2 1_555 1_555
C28_2 C27_2 1_555 1_555
H25_2 C28_2 1_555 1_555
C29_2 C28_2 1_555 1_555
C30_2 C25_2 1_555 1_555
H26_2 C30_2 1_555 1_555
C31_2 C27_2 1_555 1_555
C32_2 C29_2 1_555 1_555
O22_2 C23_2 1_555 1_555
O23_2 C31_2 1_555 1_555
O24_2 C31_2 1_555 1_555
O35 C32_2 1_555 1_555
O37 C32_2 1_555 1_555
Co8_2 O8_2 1_555 1_555
C25_2 O22_2 1_555 1_555
C29_2 C30_2 1_555 1_555
C6_2 C5_2 1_555 1_555
H9_2 C6_2 1_555 1_555
C7_2 C6_2 1_555 1_555
C9_2 C10_2 1_555 1_555
C10_2 H11_2 1_555 1_555
C11_2 C10_2 1_555 1_555
C12_2 C11_2 1_555 1_555
H12_2 C12_2 1_555 1_555
C13_2 C12_2 1_555 1_555
C14_2 C9_2 1_555 1_555
H13_2 C14_2 1_555 1_555
C15_2 C11_2 1_555 1_555
C16_2 C13_2 1_555 1_555
O9_2 C7_2 1_555 1_555
O10_2 C15_2 1_555 1_555
O11_2 C15_2 1_555 1_555
O34 C16_2 1_555 1_555
O36 C16_2 1_555 1_555
O21_2 C18_2 1_555 1_555
Co10_2 O21_2 1_555 1_555
O27_2 Co1_2 1_555 1_555
O28_2 Co1_2 1_555 1_555
O29_2 Co1_2 1_555 1_555
C9_2 O9_2 1_555 1_555
C13_2 C14_2 1_555 1_555
Co10_2 O27_2 1_555 1_555
Co10_2 O28_2 1_555 1_555
Co1_3 O1_2 1_555 1_555
Co7 O1_2 1_555 1_555
Co11 O4_2 1_555 1_555
O1_2 H1_2 1_555 1_555
H2_2 O1_2 1_555 1_555
O2_2 Co7 1_555 1_555
H3_2 O2_2 1_555 1_555
H4_2 O2_2 1_555 1_555
O3_2 Co7 1_555 1_555
H5_2 O3_2 1_555 1_555
H6_2 O3_2 1_555 1_555
O4_2 Co1_3 1_555 1_555
H7_2 O4_2 1_555 1_555
O5_2 Co11 1_555 1_555
O6_2 Co11 1_555 1_555
C1_2 O5_2 1_555 1_555
C4_2 H8_2 1_555 1_555
C24_2 C19_2 1_555 1_555
H23_2 C24_2 1_555 1_555
O20_2 Co1_3 1_555 1_555
O30_2 Co7 1_555 1_555
O33_2 Co11 1_555 1_555
Co7 O4_2 1_555 1_555
Co11 O20_2 1_555 1_555
O6_2 C1_2 1_555 1_555
Co6 O1_3 1_555 1_555
Co8 O1_3 1_555 1_555
Co12 O4_3 1_555 1_555
O1_3 H1_3 1_555 1_555
H2_3 O1_3 1_555 1_555
O2_3 Co8 1_555 1_555
H3_3 O2_3 1_555 1_555
H4_3 O2_3 1_555 1_555
O3_3 Co8 1_555 1_555
H5_3 O3_3 1_555 1_555
H6_3 O3_3 1_555 1_555
O4_3 Co6 1_555 1_555
H7_3 O4_3 1_555 1_555
O5_3 Co12 1_555 1_555
C18_3 C19_3 1_555 1_555
C19_3 C20_3 1_555 1_555
C20_3 H21_3 1_555 1_555
C21_3 C17_3 1_555 1_555
C22_3 C21_3 1_555 1_555
H22_3 C22_3 1_555 1_555
C23_3 C22_3 1_555 1_555
C24_3 C19_3 1_555 1_555
H23_3 C24_3 1_555 1_555
C25_3 C26_3 1_555 1_555
C26_3 H24_3 1_555 1_555
C27_3 C26_3 1_555 1_555
C28_3 C27_3 1_555 1_555
H25_3 C28_3 1_555 1_555
C29_3 C28_3 1_555 1_555
C30_3 C25_3 1_555 1_555
H26_3 C30_3 1_555 1_555
C31_3 C27_3 1_555 1_555
C32_3 C29_3 1_555 1_555
O20_3 Co6 1_555 1_555
O31 C18_3 1_555 1_555
O22_3 C23_3 1_555 1_555
O23_3 C31_3 1_555 1_555
O33 C31_3 1_555 1_555
O25_2 C32_3 1_555 1_555
O26_2 C32_3 1_555 1_555
Co8_2 O25_2 1_555 1_555
Co12_2 O26_2 1_555 1_555
O35_2 Co8 1_555 1_555
O37_2 Co12 1_555 1_555
Co8 O4_3 1_555 1_555
Co12 O20_3 1_555 1_555
O19_3 C17_3 1_555 1_555
C18_3 O20_3 1_555 1_555
C20_3 C21_3 1_555 1_555
C23_3 C24_3 1_555 1_555
C25_3 O22_3 1_555 1_555
C29_3 C30_3 1_555 1_555
C2_3 C3_3 1_555 1_555
C3_3 C4_3 1_555 1_555
C4_3 H8_3 1_555 1_555
C5_3 C1_3 1_555 1_555
C6_3 C5_3 1_555 1_555
H9_3 C6_3 1_555 1_555
C7_3 C6_3 1_555 1_555
C8_3 C3_3 1_555 1_555
H10_3 C8_3 1_555 1_555
C9_3 C10_3 1_555 1_555
C10_3 H11_3 1_555 1_555
C11_3 C10_3 1_555 1_555
C12_3 C11_3 1_555 1_555
H12_3 C12_3 1_555 1_555
C13_3 C12_3 1_555 1_555
C14_3 C9_3 1_555 1_555
H13_3 C14_3 1_555 1_555
C15_3 C11_3 1_555 1_555
C16_3 C13_3 1_555 1_555
O29 C2_3 1_555 1_555
O30 C2_3 1_555 1_555
O9_3 C7_3 1_555 1_555
O10_3 C15_3 1_555 1_555
O32 C15_3 1_555 1_555
O12_2 C16_3 1_555 1_555
O13_2 C16_3 1_555 1_555
Co14 O29 1_555 1_555
O27 H14_3 1_555 1_555
H15_3 O27 1_555 1_555
O15_3 Co10 1_555 1_555
H16_3 O15_3 1_555 1_555
H17_3 O15_3 1_555 1_555
O16_3 Co10 1_555 1_555
H18_3 O16_3 1_555 1_555
H19_3 O16_3 1_555 1_555
H20_3 O28 1_555 1_555
O18_3 Co14 1_555 1_555
Co10_2 O12_2 1_555 1_555
Co14_2 O13_2 1_555 1_555
O34_2 Co10 1_555 1_555
O36_2 Co14 1_555 1_555
O6_3 C1_3 1_555 1_555
C4_3 C5_3 1_555 1_555
C7_3 C8_3 1_555 1_555
C9_3 O9_3 1_555 1_555
C13_3 C14_3 1_555 1_555
Co14 O28 1_555 1_555
C20_4 H21_4 1_555 1_555
O31_2 C18_4 1_555 1_555
O19_4 C17_4 1_555 1_555
Co6_3 O1_4 1_555 1_555
Co8_2 O1_4 1_555 1_555
Co12_2 O4_4 1_555 1_555
O1_4 H1_4 1_555 1_555
H2_4 O1_4 1_555 1_555
O2_4 Co8_2 1_555 1_555
H3_4 O2_4 1_555 1_555
H4_4 O2_4 1_555 1_555
O3_4 Co8_2 1_555 1_555
H5_4 O3_4 1_555 1_555
H6_4 O3_4 1_555 1_555
O4_4 Co6_3 1_555 1_555
H7_4 O4_4 1_555 1_555
O5_4 Co12_2 1_555 1_555
C22_4 C21_4 1_555 1_555
H22_4 C22_4 1_555 1_555
C23_4 C22_4 1_555 1_555
C24_4 C19_4 1_555 1_555
H23_4 C24_4 1_555 1_555
C25_4 C26_4 1_555 1_555
C26_4 H24_4 1_555 1_555
C27_4 C26_4 1_555 1_555
C28_4 C27_4 1_555 1_555
H25_4 C28_4 1_555 1_555
C29_4 C28_4 1_555 1_555
C30_4 C25_4 1_555 1_555
H26_4 C30_4 1_555 1_555
C31_4 C27_4 1_555 1_555
C32_4 C29_4 1_555 1_555
O20_4 Co6_3 1_555 1_555
O22_4 C23_4 1_555 1_555
O23_4 C31_4 1_555 1_555
O33_2 C31_4 1_555 1_555
O35_2 C32_4 1_555 1_555
O37_2 C32_4 1_555 1_555
Co8_2 O4_4 1_555 1_555
Co12_2 O20_4 1_555 1_555
C23_4 C24_4 1_555 1_555
C25_4 O22_4 1_555 1_555
C29_4 C30_4 1_555 1_555
C6_4 C5_4 1_555 1_555
H9_4 C6_4 1_555 1_555
C7_4 C6_4 1_555 1_555
C8_4 C3_4 1_555 1_555
H10_4 C8_4 1_555 1_555
C9_4 C10_4 1_555 1_555
C10_4 H11_4 1_555 1_555
C11_4 C10_4 1_555 1_555
C12_4 C11_4 1_555 1_555
H12_4 C12_4 1_555 1_555
C13_4 C12_4 1_555 1_555
C14_4 C9_4 1_555 1_555
H13_4 C14_4 1_555 1_555
C15_4 C11_4 1_555 1_555
C16_4 C13_4 1_555 1_555
O9_4 C7_4 1_555 1_555
O10_4 C15_4 1_555 1_555
O32_2 C15_4 1_555 1_555
O34_2 C16_4 1_555 1_555
O36_2 C16_4 1_555 1_555
Co14_2 O29_2 1_555 1_555
O27_2 H14_4 1_555 1_555
H15_4 O27_2 1_555 1_555
O15_4 Co10_2 1_555 1_555
H16_4 O15_4 1_555 1_555
H17_4 O15_4 1_555 1_555
O16_4 Co10_2 1_555 1_555
H18_4 O16_4 1_555 1_555
H19_4 O16_4 1_555 1_555
H20_4 O28_2 1_555 1_555
O18_4 Co14_2 1_555 1_555
C7_4 C8_4 1_555 1_555
C9_4 O9_4 1_555 1_555
C13_4 C14_4 1_555 1_555
Co14_2 O28_2 1_555 1_555
C4_4 H8_4 1_555 1_555
O30_2 C2_4 1_555 1_555
O6_4 C1_4 1_555 1_555

#END
