
###############################################################################
#
# This file contains modified crystal structure data generated from the
# MOF subset of the Cambridge Structural Database (CSD) v543 
# hosted by the Cambridge Crystallographic Data Centre (CCDC).
#
# This work is licensed under the Creative Commons
# Attribution-NonCommercial-ShareAlike 4.0 International License.
# To view a copy of this license, visit
# http://creativecommons.org/licenses/by-nc-sa/4.0/
# or send a letter to
# Creative Commons, PO Box 1866, Mountain View, CA 94042, USA.
#
# CIF created using the CSD Python API on 29 September 2022
# The structure has been converted into the P1 space group
# The structure has a 3D framework
# The original CSD entry CUBZOR is in the tetragonal crystal system
# The framework has been calculated to contain at least 10.0% void space
# The void calculation uses a probe of radius 1.32A, grid spacing 0.4
#
###############################################################################

data_CUBZOR
_chemical_formula_moiety         '(C192 H144 Br9 Cu16 N16 O16 S16)n'
_symmetry_cell_setting           triclinic
_symmetry_space_group_name_H-M   'P 1'
_symmetry_Int_Tables_number      1
_space_group_name_Hall           'P 1'
loop_
_symmetry_equiv_pos_site_id
_symmetry_equiv_pos_as_xyz
1 x,y,z
_cell_length_a                   26.4609(8)
_cell_length_b                   26.4609(8)
_cell_length_c                   8.1990(10)
_cell_angle_alpha                90
_cell_angle_beta                 90
_cell_angle_gamma                90
_cell_volume                     5740.77
loop_
_atom_site_label
_atom_site_type_symbol
_atom_site_fract_x
_atom_site_fract_y
_atom_site_fract_z
H3 H 0.6027 0.0404 0.0930
H4 H 0.6660 0.0973 0.0427
H30 H 0.3973 0.4596 0.0930
H31 H 0.3340 0.4027 0.0427
Cu1 Cu 0.52459(2) 0.04564(2) 0.53995(7)
S1 S 0.64576(3) 0.23635(3) 0.38244(12)
C1 C 0.59893(13) 0.20369(13) 0.2653(5)
O1 O 0.57739(9) 0.15615(9) 0.5060(3)
N1 N 0.57512(14) 0.06444(13) 0.7161(4)
C2 C 0.56856(13) 0.16831(13) 0.3454(4)
C3 C 0.61327(16) 0.09704(15) 0.6886(5)
C4 C 0.61657(15) 0.11868(15) 0.5214(5)
H1 H 0.6494 0.1340 0.5045
H2 H 0.6120 0.0923 0.4406
C5 C 0.6057(3) 0.0557(2) 0.9912(7)
C6 C 0.6431(2) 0.0889(2) 0.9609(7)
C7 C 0.64730(19) 0.11048(19) 0.8095(6)
H5 H 0.6727 0.1338 0.7881
C8 C 0.5717(2) 0.04453(19) 0.8662(7)
H6 H 0.5454 0.0222 0.8879
C9 C 0.52865(13) 0.14566(13) 0.2623(5)
C10 C 0.52068(15) 0.15644(14) 0.0983(5)
H7 H 0.4940 0.1414 0.0427
C11 C 0.59102(15) 0.21388(15) 0.1023(5)
H8 H 0.6116 0.2371 0.0489
C12 C 0.55261(15) 0.18976(15) 0.0177(5)
S2 S 0.48635(3) 0.10424(3) 0.36756(12)
C13 C 0.45369(13) 0.15107(13) 0.4847(5)
O2 O 0.40615(9) 0.17261(9) 0.2440(3)
N2 N 0.31444(13) 0.17488(14) 0.0339(4)
C14 C 0.41831(13) 0.18144(13) 0.4046(4)
C15 C 0.34704(15) 0.13673(16) 0.0614(5)
C16 C 0.36868(15) 0.13343(15) 0.2286(5)
H10 H 0.3840 0.1006 0.2455
H11 H 0.3423 0.1380 0.3094
C21 C 0.39566(13) 0.22135(13) 0.4877(5)
C22 C 0.40644(14) 0.22932(15) 0.6517(5)
H16 H 0.3914 0.2560 0.7073
C23 C 0.46388(15) 0.15898(15) 0.6477(5)
H17 H 0.4871 0.1384 0.7011
C24 C 0.43976(15) 0.19739(15) 0.7323(5)
H18 H 0.4459 0.2018 0.8431
S3 S 0.51365(3) 0.39576(3) 0.36756(12)
C25 C 0.54631(13) 0.34893(13) 0.4847(5)
O3 O 0.59385(9) 0.32739(9) 0.2440(3)
N3 N 0.68556(13) 0.32512(14) 0.0339(4)
C26 C 0.58169(13) 0.31856(13) 0.4046(4)
C27 C 0.65296(15) 0.36327(16) 0.0614(5)
C28 C 0.63132(15) 0.36657(15) 0.2286(5)
H19 H 0.6160 0.3994 0.2455
H20 H 0.6577 0.3620 0.3094
C33 C 0.60434(13) 0.27865(13) 0.4877(5)
C34 C 0.59356(14) 0.27068(15) 0.6517(5)
H25 H 0.6086 0.2440 0.7073
C35 C 0.53612(15) 0.34102(15) 0.6477(5)
H26 H 0.5129 0.3616 0.7011
C36 C 0.56024(15) 0.30261(15) 0.7323(5)
H27 H 0.5541 0.2982 0.8431
S4 S 0.35424(3) 0.26365(3) 0.38244(12)
C37 C 0.40107(13) 0.29631(13) 0.2653(5)
O4 O 0.42261(9) 0.34385(9) 0.5060(3)
N4 N 0.42488(14) 0.43556(13) 0.7161(4)
C38 C 0.43144(13) 0.33169(13) 0.3454(4)
C39 C 0.38673(16) 0.40296(15) 0.6886(5)
C40 C 0.38343(15) 0.38132(15) 0.5214(5)
H28 H 0.3506 0.3660 0.5045
H29 H 0.3880 0.4077 0.4406
C41 C 0.3943(3) 0.4443(2) 0.9912(7)
C42 C 0.3569(2) 0.4111(2) 0.9609(7)
C43 C 0.35270(19) 0.38952(19) 0.8095(6)
H32 H 0.3273 0.3662 0.7881
C44 C 0.4283(2) 0.45547(19) 0.8662(7)
H33 H 0.4546 0.4778 0.8879
C45 C 0.47135(13) 0.35434(13) 0.2623(5)
C46 C 0.47932(15) 0.34356(14) 0.0983(5)
H34 H 0.5060 0.3586 0.0427
C47 C 0.40898(15) 0.28612(15) 0.1023(5)
H35 H 0.3884 0.2629 0.0489
C48 C 0.44739(15) 0.31024(15) 0.0177(5)
Br2 Br 0.44309(2) 0.51593(2) 0.33842(7)
Cu2 Cu 0.47541(2) 0.45436(2) 0.53995(7)
Br3 Br 0.23407(2) 0.19309(2) 0.41158(7)
Cu3 Cu 0.29564(2) 0.22541(2) 0.21005(7)
Br4 Br 0.76593(2) 0.30691(2) 0.41158(7)
Cu4 Cu 0.70436(2) 0.27459(2) 0.21005(7)
Br5 Br 0.26593(2) 0.30691(2) 0.08842(7)
Br6 Br 0.73407(2) 0.19309(2) 0.08842(7)
Br7 Br 0.44309(2) 0.01593(2) 0.66158(7)
Br8 Br 0.55691(2) 0.48407(2) 0.66158(7)
Cu5 Cu 0.20436(2) 0.27459(2) 0.28995(7)
Cu6 Cu 0.79564(2) 0.22541(2) 0.28995(7)
Cu8 Cu 0.52459(2) 0.54564(2) 0.46005(7)
Br1 Br 0.55691(2) 0.98407(2) 0.33842(7)
Cu7 Cu 0.47541(2) 0.95436(2) 0.46005(7)
Br1_2 Br 0.76593(2) 0.80691(2) 0.58842(7)
Cu1_2 Cu 0.70436(2) 0.77459(2) 0.78995(7)
S1_2 S 0.51365(3) 0.89576(3) 0.63244(12)
C1_2 C 0.54631(13) 0.84893(13) 0.5153(5)
O1_2 O 0.59385(9) 0.82739(9) 0.7560(3)
N1_2 N 0.68556(13) 0.82512(14) 0.9661(4)
C2_2 C 0.58169(13) 0.81856(13) 0.5954(4)
C3_2 C 0.65296(15) 0.86327(16) 0.9386(5)
C4_2 C 0.63132(15) 0.86657(15) 0.7714(5)
H1_2 H 0.6160 0.8994 0.7545
H2_2 H 0.6577 0.8620 0.6906
C9_2 C 0.60434(13) 0.77865(13) 0.5123(5)
C10_2 C 0.59356(14) 0.77068(15) 0.3483(5)
H7_2 H 0.6086 0.7440 0.2927
C11_2 C 0.53612(15) 0.84102(15) 0.3523(5)
H8_2 H 0.5129 0.8616 0.2989
C12_2 C 0.56024(15) 0.80261(15) 0.2677(5)
H9 H 0.5541 0.7982 0.1569
S2_2 S 0.64576(3) 0.73635(3) 0.61756(12)
C13_2 C 0.59893(13) 0.70369(13) 0.7347(5)
O2_2 O 0.57739(9) 0.65615(9) 0.4940(3)
N2_2 N 0.57512(14) 0.56444(13) 0.2839(4)
C14_2 C 0.56856(13) 0.66831(13) 0.6546(4)
C15_2 C 0.61327(16) 0.59704(15) 0.3114(5)
C16_2 C 0.61657(15) 0.61868(15) 0.4786(5)
H10_2 H 0.6494 0.6340 0.4955
H11_2 H 0.6120 0.5923 0.5594
C17 C 0.6057(3) 0.5557(2) 0.0088(7)
C18 C 0.6431(2) 0.5889(2) 0.0391(7)
C19 C 0.64730(19) 0.61048(19) 0.1905(6)
H14 H 0.6727 0.6338 0.2119
C20 C 0.5717(2) 0.54453(19) 0.1338(7)
H15 H 0.5454 0.5222 0.1121
C21_2 C 0.52865(13) 0.64566(13) 0.7377(5)
C22_2 C 0.52068(15) 0.65644(14) 0.9017(5)
H16_2 H 0.4940 0.6414 0.9573
C23_2 C 0.59102(15) 0.71388(15) 0.8977(5)
H17_2 H 0.6116 0.7371 0.9511
C24_2 C 0.55261(15) 0.68976(15) 0.9823(5)
S3_2 S 0.35424(3) 0.76365(3) 0.61756(12)
C25_2 C 0.40107(13) 0.79631(13) 0.7347(5)
O3_2 O 0.42261(9) 0.84385(9) 0.4940(3)
N3_2 N 0.42488(14) 0.93556(13) 0.2839(4)
C26_2 C 0.43144(13) 0.83169(13) 0.6546(4)
C27_2 C 0.38673(16) 0.90296(15) 0.3114(5)
C28_2 C 0.38343(15) 0.88132(15) 0.4786(5)
H19_2 H 0.3506 0.8660 0.4955
H20_2 H 0.3880 0.9077 0.5594
C29 C 0.3943(3) 0.9443(2) 0.0088(7)
C30 C 0.3569(2) 0.9111(2) 0.0391(7)
C31 C 0.35270(19) 0.88952(19) 0.1905(6)
H23 H 0.3273 0.8662 0.2119
C32 C 0.4283(2) 0.95547(19) 0.1338(7)
H24 H 0.4546 0.9778 0.1121
C33_2 C 0.47135(13) 0.85434(13) 0.7377(5)
C34_2 C 0.47932(15) 0.84356(14) 0.9017(5)
H25_2 H 0.5060 0.8586 0.9573
C35_2 C 0.40898(15) 0.78612(15) 0.8977(5)
H26_2 H 0.3884 0.7629 0.9511
C36_2 C 0.44739(15) 0.81024(15) 0.9823(5)
S4_2 S 0.48635(3) 0.60424(3) 0.63244(12)
C37_2 C 0.45369(13) 0.65107(13) 0.5153(5)
O4_2 O 0.40615(9) 0.67261(9) 0.7560(3)
N4_2 N 0.31444(13) 0.67488(14) 0.9661(4)
C38_2 C 0.41831(13) 0.68144(13) 0.5954(4)
C39_2 C 0.34704(15) 0.63673(16) 0.9386(5)
C40_2 C 0.36868(15) 0.63343(15) 0.7714(5)
H28_2 H 0.3840 0.6006 0.7545
H29_2 H 0.3423 0.6380 0.6906
C45_2 C 0.39566(13) 0.72135(13) 0.5123(5)
C46_2 C 0.40644(14) 0.72932(15) 0.3483(5)
H34_2 H 0.3914 0.7560 0.2927
C47_2 C 0.46388(15) 0.65898(15) 0.3523(5)
H35_2 H 0.4871 0.6384 0.2989
C48_2 C 0.43976(15) 0.69739(15) 0.2677(5)
H36 H 0.4459 0.7018 0.1569
Br2_2 Br 0.23407(2) 0.69309(2) 0.58842(7)
Cu2_2 Cu 0.29564(2) 0.72541(2) 0.78995(7)
Br7_2 Br 0.73407(2) 0.69309(2) 0.91158(7)
Br8_2 Br 0.26593(2) 0.80691(2) 0.91158(7)
Cu7_2 Cu 0.79564(2) 0.72541(2) 0.71005(7)
Cu8_2 Cu 0.20436(2) 0.77459(2) 0.71005(7)
Cu8_3 Cu 0.02459(2) 0.04564(2) 0.96005(7)
Cu1_3 Cu 0.02459(2) 0.54564(2) 0.03995(7)
O1_3 O 0.07739(9) 0.65615(9) 0.0060(3)
N1_3 N 0.07512(14) 0.56444(13) 0.2161(4)
C3_3 C 0.11327(16) 0.59704(15) 0.1886(5)
C4_3 C 0.11657(15) 0.61868(15) 0.0214(5)
H1_3 H 0.1494 0.6340 0.0045
C5_2 C 0.1057(3) 0.5557(2) 0.4912(7)
H3_2 H 0.1027 0.5404 0.5930
C6_2 C 0.1431(2) 0.5889(2) 0.4609(7)
H4_2 H 0.1660 0.5973 0.5427
C7_2 C 0.14730(19) 0.61048(19) 0.3095(6)
H5_2 H 0.1727 0.6338 0.2881
C8_2 C 0.0717(2) 0.54453(19) 0.3662(7)
H6_2 H 0.0454 0.5222 0.3879
C34_3 C 0.09356(14) 0.77068(15) 0.1517(5)
H25_3 H 0.1086 0.7440 0.2073
C35_3 C 0.03612(15) 0.84102(15) 0.1477(5)
H26_3 H 0.0129 0.8616 0.2011
C36_3 C 0.06024(15) 0.80261(15) 0.2323(5)
H27_2 H 0.0541 0.7982 0.3431
Br8_3 Br 0.05691(2) 0.98407(2) 0.16158(7)
Br1_3 Br 0.05691(2) 0.48407(2) 0.83842(7)
S1_3 S 0.14576(3) 0.73635(3) 0.88244(12)
C1_3 C 0.09893(13) 0.70369(13) 0.7653(5)
C2_3 C 0.06856(13) 0.66831(13) 0.8454(4)
H2_3 H 0.1120 0.5923 0.9406
C9_3 C 0.02865(13) 0.64566(13) 0.7623(5)
C10_3 C 0.02068(15) 0.65644(14) 0.5983(5)
C11_3 C 0.09102(15) 0.71388(15) 0.6023(5)
H8_3 H 0.1116 0.7371 0.5489
C12_3 C 0.05261(15) 0.68976(15) 0.5177(5)
H9_2 H 0.0482 0.6959 0.4069
S3_3 S 0.01365(3) 0.89576(3) 0.86756(12)
C25_3 C 0.04631(13) 0.84893(13) 0.9847(5)
O3_3 O 0.09385(9) 0.82739(9) 0.7440(3)
N3_3 N 0.18556(13) 0.82512(14) 0.5339(4)
C26_3 C 0.08169(13) 0.81856(13) 0.9046(4)
C27_3 C 0.15296(15) 0.86327(16) 0.5614(5)
C28_3 C 0.13132(15) 0.86657(15) 0.7286(5)
H19_3 H 0.1160 0.8994 0.7455
H20_3 H 0.1577 0.8620 0.8094
C29_2 C 0.1943(2) 0.8557(3) 0.2588(7)
H21 H 0.2096 0.8527 0.1570
C30_2 C 0.1611(2) 0.8931(2) 0.2891(7)
H22 H 0.1527 0.9160 0.2073
C31_2 C 0.13952(19) 0.89730(19) 0.4405(6)
H23_2 H 0.1162 0.9227 0.4619
C32_2 C 0.20547(19) 0.8217(2) 0.3838(7)
H24_2 H 0.2278 0.7954 0.3621
C33_3 C 0.10434(13) 0.77865(13) 0.9877(5)
H34_3 H 0.0060 0.8586 0.5427
Br2_3 Br 0.94309(2) 0.01593(2) 0.83842(7)
C22_3 C 0.90644(14) 0.72932(15) 0.1517(5)
H16_3 H 0.8914 0.7560 0.2073
C23_3 C 0.96388(15) 0.65898(15) 0.1477(5)
H17_3 H 0.9871 0.6384 0.2011
C24_3 C 0.93976(15) 0.69739(15) 0.2323(5)
H18_2 H 0.9459 0.7018 0.3431
O4_3 O 0.92261(9) 0.84385(9) 0.0060(3)
N4_3 N 0.92488(14) 0.93556(13) 0.2161(4)
C39_3 C 0.88673(16) 0.90296(15) 0.1886(5)
C40_3 C 0.88343(15) 0.88132(15) 0.0214(5)
H28_3 H 0.8506 0.8660 0.0045
C41_2 C 0.8943(3) 0.9443(2) 0.4912(7)
H30_2 H 0.8973 0.9596 0.5930
C42_2 C 0.8569(2) 0.9111(2) 0.4609(7)
H31_2 H 0.8340 0.9027 0.5427
C43_2 C 0.85270(19) 0.88952(19) 0.3095(6)
H32_2 H 0.8273 0.8662 0.2881
C44_2 C 0.9283(2) 0.95547(19) 0.3662(7)
H33_2 H 0.9546 0.9778 0.3879
Cu2_3 Cu 0.97541(2) 0.95436(2) 0.03995(7)
Br7_3 Br 0.94309(2) 0.51593(2) 0.16158(7)
H7_3 H 0.9940 0.6414 0.5427
S2_3 S 0.98635(3) 0.60424(3) 0.86756(12)
C13_3 C 0.95369(13) 0.65107(13) 0.9847(5)
O2_3 O 0.90615(9) 0.67261(9) 0.7440(3)
N2_3 N 0.81444(13) 0.67488(14) 0.5339(4)
C14_3 C 0.91831(13) 0.68144(13) 0.9046(4)
C15_3 C 0.84704(15) 0.63673(16) 0.5614(5)
C16_3 C 0.86868(15) 0.63343(15) 0.7286(5)
H10_3 H 0.8840 0.6006 0.7455
H11_3 H 0.8423 0.6380 0.8094
C17_2 C 0.8057(2) 0.6443(3) 0.2588(7)
H12 H 0.7904 0.6473 0.1570
C18_2 C 0.8389(2) 0.6069(2) 0.2891(7)
H13 H 0.8473 0.5840 0.2073
C19_2 C 0.86048(19) 0.60270(19) 0.4405(6)
H14_2 H 0.8838 0.5773 0.4619
C20_2 C 0.79453(19) 0.6783(2) 0.3838(7)
H15_2 H 0.7722 0.7046 0.3621
C21_3 C 0.89566(13) 0.72135(13) 0.9877(5)
S4_3 S 0.85424(3) 0.76365(3) 0.88244(12)
C37_3 C 0.90107(13) 0.79631(13) 0.7653(5)
C38_3 C 0.93144(13) 0.83169(13) 0.8454(4)
H29_3 H 0.8880 0.9077 0.9406
C45_3 C 0.97135(13) 0.85434(13) 0.7623(5)
C46_3 C 0.97932(15) 0.84356(14) 0.5983(5)
C47_3 C 0.90898(15) 0.78612(15) 0.6023(5)
H35_3 H 0.8884 0.7629 0.5489
C48_3 C 0.94739(15) 0.81024(15) 0.5177(5)
H36_2 H 0.9518 0.8041 0.4069
Cu7_3 Cu 0.97541(2) 0.45436(2) 0.96005(7)
S1_4 S 0.01365(3) 0.39576(3) 0.13244(12)
C1_4 C 0.04631(13) 0.34893(13) 0.0153(5)
O1_4 O 0.09385(9) 0.32739(9) 0.2560(3)
N1_4 N 0.18556(13) 0.32512(14) 0.4661(4)
C2_4 C 0.08169(13) 0.31856(13) 0.0954(4)
C3_4 C 0.15296(15) 0.36327(16) 0.4386(5)
C4_4 C 0.13132(15) 0.36657(15) 0.2714(5)
H1_4 H 0.1160 0.3994 0.2545
H2_4 H 0.1577 0.3620 0.1906
C5_3 C 0.1943(2) 0.3557(3) 0.7412(7)
H3_3 H 0.2096 0.3527 0.8430
C6_3 C 0.1611(2) 0.3931(2) 0.7109(7)
H4_3 H 0.1527 0.4160 0.7927
C7_3 C 0.13952(19) 0.39730(19) 0.5595(6)
H5_3 H 0.1162 0.4227 0.5381
C8_3 C 0.20547(19) 0.3217(2) 0.6162(7)
H6_3 H 0.2278 0.2954 0.6379
C9_4 C 0.10434(13) 0.27865(13) 0.0123(5)
S2_4 S 0.14576(3) 0.23635(3) 0.11756(12)
C13_4 C 0.09893(13) 0.20369(13) 0.2347(5)
C14_4 C 0.06856(13) 0.16831(13) 0.1546(4)
H11_4 H 0.1120 0.0923 0.0594
C21_4 C 0.02865(13) 0.14566(13) 0.2377(5)
C22_4 C 0.02068(15) 0.15644(14) 0.4017(5)
C23_4 C 0.09102(15) 0.21388(15) 0.3977(5)
H17_4 H 0.1116 0.2371 0.4511
C24_4 C 0.05261(15) 0.18976(15) 0.4823(5)
H18_3 H 0.0482 0.1959 0.5931
H25_4 H 0.0060 0.3586 0.4573
C10_4 C 0.09356(14) 0.27068(15) 0.8483(5)
H7_4 H 0.1086 0.2440 0.7927
C11_4 C 0.03612(15) 0.34102(15) 0.8523(5)
H8_4 H 0.0129 0.3616 0.7989
C12_4 C 0.06024(15) 0.30261(15) 0.7677(5)
H9_3 H 0.0541 0.2982 0.6569
O2_4 O 0.07739(9) 0.15615(9) 0.9940(3)
N2_4 N 0.07512(14) 0.06444(13) 0.7839(4)
C15_4 C 0.11327(16) 0.09704(15) 0.8114(5)
C16_4 C 0.11657(15) 0.11868(15) 0.9786(5)
H10_4 H 0.1494 0.1340 0.9955
C17_3 C 0.1057(3) 0.0557(2) 0.5088(7)
H12_2 H 0.1027 0.0404 0.4070
C18_3 C 0.1431(2) 0.0889(2) 0.5391(7)
H13_2 H 0.1660 0.0973 0.4573
C19_3 C 0.14730(19) 0.11048(19) 0.6905(6)
H14_3 H 0.1727 0.1338 0.7119
C20_3 C 0.0717(2) 0.04453(19) 0.6338(7)
H15_3 H 0.0454 0.0222 0.6121
H16_4 H 0.9940 0.1414 0.4573
S3_4 S 0.85424(3) 0.26365(3) 0.11756(12)
C25_4 C 0.90107(13) 0.29631(13) 0.2347(5)
C26_4 C 0.93144(13) 0.33169(13) 0.1546(4)
H20_4 H 0.8880 0.4077 0.0594
C33_4 C 0.97135(13) 0.35434(13) 0.2377(5)
C34_4 C 0.97932(15) 0.34356(14) 0.4017(5)
C35_4 C 0.90898(15) 0.28612(15) 0.3977(5)
H26_4 H 0.8884 0.2629 0.4511
C36_4 C 0.94739(15) 0.31024(15) 0.4823(5)
H27_3 H 0.9518 0.3041 0.5931
S4_4 S 0.98635(3) 0.10424(3) 0.13244(12)
C37_4 C 0.95369(13) 0.15107(13) 0.0153(5)
O4_4 O 0.90615(9) 0.17261(9) 0.2560(3)
N4_4 N 0.81444(13) 0.17488(14) 0.4661(4)
C38_4 C 0.91831(13) 0.18144(13) 0.0954(4)
C39_4 C 0.84704(15) 0.13673(16) 0.4386(5)
C40_4 C 0.86868(15) 0.13343(15) 0.2714(5)
H28_4 H 0.8840 0.1006 0.2545
H29_4 H 0.8423 0.1380 0.1906
C41_3 C 0.8057(2) 0.1443(3) 0.7412(7)
H30_3 H 0.7904 0.1473 0.8430
C42_3 C 0.8389(2) 0.1069(2) 0.7109(7)
H31_3 H 0.8473 0.0840 0.7927
C43_3 C 0.86048(19) 0.10270(19) 0.5595(6)
H32_3 H 0.8838 0.0773 0.5381
C44_3 C 0.79453(19) 0.1783(2) 0.6162(7)
H33_3 H 0.7722 0.2046 0.6379
C45_4 C 0.89566(13) 0.22135(13) 0.0123(5)
O3_4 O 0.92261(9) 0.34385(9) 0.9940(3)
N3_4 N 0.92488(14) 0.43556(13) 0.7839(4)
C27_4 C 0.88673(16) 0.40296(15) 0.8114(5)
C28_4 C 0.88343(15) 0.38132(15) 0.9786(5)
H19_4 H 0.8506 0.3660 0.9955
C29_3 C 0.8943(3) 0.4443(2) 0.5088(7)
H21_2 H 0.8973 0.4596 0.4070
C30_3 C 0.8569(2) 0.4111(2) 0.5391(7)
H22_2 H 0.8340 0.4027 0.4573
C31_3 C 0.85270(19) 0.38952(19) 0.6905(6)
H23_3 H 0.8273 0.3662 0.7119
C32_3 C 0.9283(2) 0.45547(19) 0.6338(7)
H24_3 H 0.9546 0.4778 0.6121
C46_4 C 0.90644(14) 0.22932(15) 0.8483(5)
H34_4 H 0.8914 0.2560 0.7927
C47_4 C 0.96388(15) 0.15898(15) 0.8523(5)
H35_4 H 0.9871 0.1384 0.7989
C48_4 C 0.93976(15) 0.19739(15) 0.7677(5)
H36_3 H 0.9459 0.2018 0.6569
H9_4 H 0.5482 0.1959 0.9069
C17_4 C 0.3057(2) 0.1443(3) 0.7588(7)
H12_3 H 0.2904 0.1473 0.6570
C18_4 C 0.3389(2) 0.1069(2) 0.7891(7)
H13_3 H 0.3473 0.0840 0.7073
C19_4 C 0.36048(19) 0.10270(19) 0.9405(6)
H14_4 H 0.3838 0.0773 0.9619
C20_4 C 0.29453(19) 0.1783(2) 0.8838(7)
H15_4 H 0.2722 0.2046 0.8621
C29_4 C 0.6943(2) 0.3557(3) 0.7588(7)
H21_3 H 0.7096 0.3527 0.6570
C30_4 C 0.6611(2) 0.3931(2) 0.7891(7)
H22_3 H 0.6527 0.4160 0.7073
C31_4 C 0.63952(19) 0.39730(19) 0.9405(6)
H23_4 H 0.6162 0.4227 0.9619
C32_4 C 0.70547(19) 0.3217(2) 0.8838(7)
H24_4 H 0.7278 0.2954 0.8621
H36_4 H 0.4518 0.3041 0.9069
C5_4 C 0.6943(2) 0.8557(3) 0.2412(7)
H3_4 H 0.7096 0.8527 0.3430
C6_4 C 0.6611(2) 0.8931(2) 0.2109(7)
H4_4 H 0.6527 0.9160 0.2927
C7_4 C 0.63952(19) 0.89730(19) 0.0595(6)
H5_4 H 0.6162 0.9227 0.0381
C8_4 C 0.70547(19) 0.8217(2) 0.1162(7)
H6_4 H 0.7278 0.7954 0.1379
H18_4 H 0.5482 0.6959 0.0931
H27_4 H 0.4518 0.8041 0.0931
C41_4 C 0.3057(2) 0.6443(3) 0.2412(7)
H30_4 H 0.2904 0.6473 0.3430
C42_4 C 0.3389(2) 0.6069(2) 0.2109(7)
H31_4 H 0.3473 0.5840 0.2927
C43_4 C 0.36048(19) 0.60270(19) 0.0595(6)
H32_4 H 0.3838 0.5773 0.0381
C44_4 C 0.29453(19) 0.6783(2) 0.1162(7)
H33_4 H 0.2722 0.7046 0.1379
H12_4 H 0.6027 0.5404 0.9070
H13_4 H 0.6660 0.5973 0.9573
H21_4 H 0.3973 0.9596 0.9070
H22_4 H 0.3340 0.9027 0.9573
loop_
_geom_bond_atom_site_label_1
_geom_bond_atom_site_label_2
_geom_bond_site_symmetry_1
_geom_bond_site_symmetry_2
Cu1 N1 1_555 1_555
S1 C1 1_555 1_555
C1 C2 1_555 1_555
O1 C2 1_555 1_555
N1 C3 1_555 1_555
C2 C9 1_555 1_555
C3 C4 1_555 1_555
C4 O1 1_555 1_555
H1 C4 1_555 1_555
H2 C4 1_555 1_555
C6 C5 1_555 1_555
C7 C3 1_555 1_555
H5 C7 1_555 1_555
C8 N1 1_555 1_555
H6 C8 1_555 1_555
C9 C10 1_555 1_555
C10 H7 1_555 1_555
C11 C1 1_555 1_555
H8 C11 1_555 1_555
C12 C10 1_555 1_555
S2 Cu1 1_555 1_555
C13 S2 1_555 1_555
O2 C14 1_555 1_555
N2 C15 1_555 1_555
C14 C13 1_555 1_555
C15 C16 1_555 1_555
C16 O2 1_555 1_555
H10 C16 1_555 1_555
H11 C16 1_555 1_555
C21 C14 1_555 1_555
C22 C21 1_555 1_555
H16 C22 1_555 1_555
C23 C13 1_555 1_555
H17 C23 1_555 1_555
C24 C22 1_555 1_555
H18 C24 1_555 1_555
S3 C25 1_555 1_555
C25 C26 1_555 1_555
O3 C26 1_555 1_555
N3 C27 1_555 1_555
C26 C33 1_555 1_555
C27 C28 1_555 1_555
C28 O3 1_555 1_555
H19 C28 1_555 1_555
H20 C28 1_555 1_555
C33 S1 1_555 1_555
C34 C33 1_555 1_555
H25 C34 1_555 1_555
C35 C25 1_555 1_555
H26 C35 1_555 1_555
C36 C34 1_555 1_555
H27 C36 1_555 1_555
S4 C21 1_555 1_555
C37 S4 1_555 1_555
O4 C38 1_555 1_555
N4 C39 1_555 1_555
C38 C37 1_555 1_555
C39 C40 1_555 1_555
C40 O4 1_555 1_555
H28 C40 1_555 1_555
H29 C40 1_555 1_555
C42 C41 1_555 1_555
C43 C39 1_555 1_555
H32 C43 1_555 1_555
C44 N4 1_555 1_555
H33 C44 1_555 1_555
C45 S3 1_555 1_555
C46 C45 1_555 1_555
H34 C46 1_555 1_555
C47 C37 1_555 1_555
H35 C47 1_555 1_555
C48 C46 1_555 1_555
Br2 Cu2 1_555 1_555
Cu2 S3 1_555 1_555
Br3 Cu3 1_555 1_555
Cu3 N2 1_555 1_555
Br4 Cu4 1_555 1_555
Cu4 S1 1_555 1_555
Br5 Cu3 1_555 1_555
Br6 Cu4 1_555 1_555
Br7 Cu1 1_555 1_555
Br8 Cu2 1_555 1_555
Cu5 Br3 1_555 1_555
Cu6 Br4 1_555 1_555
Cu8 Br2 1_555 1_555
C5 C8 1_555 1_555
C6 C7 1_555 1_555
C9 S2 1_555 1_555
C11 C12 1_555 1_555
C23 C24 1_555 1_555
N3 Cu4 1_555 1_555
C35 C36 1_555 1_555
S4 Cu3 1_555 1_555
N4 Cu2 1_555 1_555
C38 C45 1_555 1_555
C41 C44 1_555 1_555
C42 C43 1_555 1_555
C47 C48 1_555 1_555
Br5 Cu5 1_555 1_555
Br6 Cu6 1_555 1_555
Br8 Cu8 1_555 1_555
Cu7 Br1 1_555 1_555
Br1_2 Cu1_2 1_555 1_555
Cu1_2 N1_2 1_555 1_555
S1_2 C1_2 1_555 1_555
C1_2 C2_2 1_555 1_555
O1_2 C2_2 1_555 1_555
N1_2 C3_2 1_555 1_555
C2_2 C9_2 1_555 1_555
C3_2 C4_2 1_555 1_555
C4_2 O1_2 1_555 1_555
H1_2 C4_2 1_555 1_555
H2_2 C4_2 1_555 1_555
C9_2 C10_2 1_555 1_555
C10_2 H7_2 1_555 1_555
C11_2 C1_2 1_555 1_555
H8_2 C11_2 1_555 1_555
C12_2 C10_2 1_555 1_555
H9 C12_2 1_555 1_555
S2_2 Cu1_2 1_555 1_555
C13_2 S2_2 1_555 1_555
O2_2 C14_2 1_555 1_555
N2_2 C15_2 1_555 1_555
C14_2 C13_2 1_555 1_555
C15_2 C16_2 1_555 1_555
C16_2 O2_2 1_555 1_555
H10_2 C16_2 1_555 1_555
H11_2 C16_2 1_555 1_555
C18 C17 1_555 1_555
C19 C15_2 1_555 1_555
H14 C19 1_555 1_555
C20 N2_2 1_555 1_555
H15 C20 1_555 1_555
C21_2 C14_2 1_555 1_555
C22_2 C21_2 1_555 1_555
H16_2 C22_2 1_555 1_555
C23_2 C13_2 1_555 1_555
H17_2 C23_2 1_555 1_555
C24_2 C22_2 1_555 1_555
S3_2 C25_2 1_555 1_555
C25_2 C26_2 1_555 1_555
O3_2 C26_2 1_555 1_555
N3_2 C27_2 1_555 1_555
C26_2 C33_2 1_555 1_555
C27_2 C28_2 1_555 1_555
C28_2 O3_2 1_555 1_555
H19_2 C28_2 1_555 1_555
H20_2 C28_2 1_555 1_555
C30 C29 1_555 1_555
C31 C27_2 1_555 1_555
H23 C31 1_555 1_555
C32 N3_2 1_555 1_555
H24 C32 1_555 1_555
C33_2 S1_2 1_555 1_555
C34_2 C33_2 1_555 1_555
H25_2 C34_2 1_555 1_555
C35_2 C25_2 1_555 1_555
H26_2 C35_2 1_555 1_555
C36_2 C34_2 1_555 1_555
S4_2 C21_2 1_555 1_555
C37_2 S4_2 1_555 1_555
O4_2 C38_2 1_555 1_555
N4_2 C39_2 1_555 1_555
C38_2 C37_2 1_555 1_555
C39_2 C40_2 1_555 1_555
C40_2 O4_2 1_555 1_555
H28_2 C40_2 1_555 1_555
H29_2 C40_2 1_555 1_555
C45_2 S3_2 1_555 1_555
C46_2 C45_2 1_555 1_555
H34_2 C46_2 1_555 1_555
C47_2 C37_2 1_555 1_555
H35_2 C47_2 1_555 1_555
C48_2 C46_2 1_555 1_555
H36 C48_2 1_555 1_555
Br2_2 Cu2_2 1_555 1_555
Cu2_2 S3_2 1_555 1_555
Cu8 N2_2 1_555 1_555
Cu7 S1_2 1_555 1_555
Br7_2 Cu1_2 1_555 1_555
Br8_2 Cu2_2 1_555 1_555
Cu7_2 Br1_2 1_555 1_555
Cu8_2 Br2_2 1_555 1_555
C9_2 S2_2 1_555 1_555
C11_2 C12_2 1_555 1_555
C17 C20 1_555 1_555
C18 C19 1_555 1_555
C23_2 C24_2 1_555 1_555
N3_2 Cu7 1_555 1_555
C29 C32 1_555 1_555
C30 C31 1_555 1_555
C35_2 C36_2 1_555 1_555
S4_2 Cu8 1_555 1_555
N4_2 Cu2_2 1_555 1_555
C38_2 C45_2 1_555 1_555
C47_2 C48_2 1_555 1_555
Br7_2 Cu7_2 1_555 1_555
Br8_2 Cu8_2 1_555 1_555
Cu1_3 N1_3 1_555 1_555
N1_3 C3_3 1_555 1_555
C3_3 C4_3 1_555 1_555
C4_3 O1_3 1_555 1_555
H1_3 C4_3 1_555 1_555
C5_2 H3_2 1_555 1_555
C6_2 C5_2 1_555 1_555
H4_2 C6_2 1_555 1_555
C7_2 C3_3 1_555 1_555
H5_2 C7_2 1_555 1_555
C8_2 N1_3 1_555 1_555
H6_2 C8_2 1_555 1_555
H25_3 C34_3 1_555 1_555
H26_3 C35_3 1_555 1_555
C36_3 C34_3 1_555 1_555
H27_2 C36_3 1_555 1_555
C5_2 C8_2 1_555 1_555
C6_2 C7_2 1_555 1_555
C35_3 C36_3 1_555 1_555
S1_3 C1_3 1_555 1_555
C1_3 C2_3 1_555 1_555
C2_3 C9_3 1_555 1_555
C9_3 C10_3 1_555 1_555
C11_3 C1_3 1_555 1_555
H8_3 C11_3 1_555 1_555
C12_3 C10_3 1_555 1_555
H9_2 C12_3 1_555 1_555
S3_3 C25_3 1_555 1_555
C25_3 C26_3 1_555 1_555
O3_3 C26_3 1_555 1_555
N3_3 C27_3 1_555 1_555
C26_3 C33_3 1_555 1_555
C27_3 C28_3 1_555 1_555
C28_3 O3_3 1_555 1_555
H19_3 C28_3 1_555 1_555
H20_3 C28_3 1_555 1_555
C29_2 H21 1_555 1_555
C30_2 C29_2 1_555 1_555
H22 C30_2 1_555 1_555
C31_2 C27_3 1_555 1_555
H23_2 C31_2 1_555 1_555
C32_2 N3_3 1_555 1_555
H24_2 C32_2 1_555 1_555
C33_3 S1_3 1_555 1_555
Cu8_2 S1_3 1_555 1_555
C11_3 C12_3 1_555 1_555
N3_3 Cu8_2 1_555 1_555
C29_2 C32_2 1_555 1_555
C30_2 C31_2 1_555 1_555
H16_3 C22_3 1_555 1_555
H17_3 C23_3 1_555 1_555
C24_3 C22_3 1_555 1_555
H18_2 C24_3 1_555 1_555
N4_3 C39_3 1_555 1_555
C39_3 C40_3 1_555 1_555
C40_3 O4_3 1_555 1_555
H28_3 C40_3 1_555 1_555
C41_2 H30_2 1_555 1_555
C42_2 C41_2 1_555 1_555
H31_2 C42_2 1_555 1_555
C43_2 C39_3 1_555 1_555
H32_2 C43_2 1_555 1_555
C44_2 N4_3 1_555 1_555
H33_2 C44_2 1_555 1_555
C23_3 C24_3 1_555 1_555
N4_3 Cu2_3 1_555 1_555
C41_2 C44_2 1_555 1_555
C42_2 C43_2 1_555 1_555
C13_3 S2_3 1_555 1_555
O2_3 C14_3 1_555 1_555
N2_3 C15_3 1_555 1_555
C14_3 C13_3 1_555 1_555
C15_3 C16_3 1_555 1_555
C16_3 O2_3 1_555 1_555
H10_3 C16_3 1_555 1_555
H11_3 C16_3 1_555 1_555
C17_2 H12 1_555 1_555
C18_2 C17_2 1_555 1_555
H13 C18_2 1_555 1_555
C19_2 C15_3 1_555 1_555
H14_2 C19_2 1_555 1_555
C20_2 N2_3 1_555 1_555
H15_2 C20_2 1_555 1_555
C21_3 C14_3 1_555 1_555
S4_3 C21_3 1_555 1_555
C37_3 S4_3 1_555 1_555
C38_3 C37_3 1_555 1_555
C46_3 C45_3 1_555 1_555
C47_3 C37_3 1_555 1_555
H35_3 C47_3 1_555 1_555
C48_3 C46_3 1_555 1_555
H36_2 C48_3 1_555 1_555
Cu7_2 N2_3 1_555 1_555
C17_2 C20_2 1_555 1_555
C18_2 C19_2 1_555 1_555
S4_3 Cu7_2 1_555 1_555
C38_3 C45_3 1_555 1_555
C47_3 C48_3 1_555 1_555
Cu5 N1_4 1_555 1_555
S1_4 C1_4 1_555 1_555
C1_4 C2_4 1_555 1_555
O1_4 C2_4 1_555 1_555
N1_4 C3_4 1_555 1_555
C2_4 C9_4 1_555 1_555
C3_4 C4_4 1_555 1_555
C4_4 O1_4 1_555 1_555
H1_4 C4_4 1_555 1_555
H2_4 C4_4 1_555 1_555
C5_3 H3_3 1_555 1_555
C6_3 C5_3 1_555 1_555
H4_3 C6_3 1_555 1_555
C7_3 C3_4 1_555 1_555
H5_3 C7_3 1_555 1_555
C8_3 N1_4 1_555 1_555
H6_3 C8_3 1_555 1_555
S2_4 Cu5 1_555 1_555
C13_4 S2_4 1_555 1_555
C14_4 C13_4 1_555 1_555
C21_4 C14_4 1_555 1_555
C22_4 C21_4 1_555 1_555
C23_4 C13_4 1_555 1_555
H17_4 C23_4 1_555 1_555
C24_4 C22_4 1_555 1_555
H18_3 C24_4 1_555 1_555
C5_3 C8_3 1_555 1_555
C6_3 C7_3 1_555 1_555
C9_4 S2_4 1_555 1_555
C23_4 C24_4 1_555 1_555
C10_4 H7_4 1_555 1_555
H8_4 C11_4 1_555 1_555
C12_4 C10_4 1_555 1_555
H9_3 C12_4 1_555 1_555
N2_4 C15_4 1_555 1_555
C15_4 C16_4 1_555 1_555
C16_4 O2_4 1_555 1_555
H10_4 C16_4 1_555 1_555
C17_3 H12_2 1_555 1_555
C18_3 C17_3 1_555 1_555
H13_2 C18_3 1_555 1_555
C19_3 C15_4 1_555 1_555
H14_3 C19_3 1_555 1_555
C20_3 N2_4 1_555 1_555
H15_3 C20_3 1_555 1_555
Cu8_3 N2_4 1_555 1_555
C11_4 C12_4 1_555 1_555
C17_3 C20_3 1_555 1_555
C18_3 C19_3 1_555 1_555
S3_4 C25_4 1_555 1_555
C25_4 C26_4 1_555 1_555
C26_4 C33_4 1_555 1_555
C34_4 C33_4 1_555 1_555
C35_4 C25_4 1_555 1_555
H26_4 C35_4 1_555 1_555
C36_4 C34_4 1_555 1_555
H27_3 C36_4 1_555 1_555
C37_4 S4_4 1_555 1_555
O4_4 C38_4 1_555 1_555
N4_4 C39_4 1_555 1_555
C38_4 C37_4 1_555 1_555
C39_4 C40_4 1_555 1_555
C40_4 O4_4 1_555 1_555
H28_4 C40_4 1_555 1_555
H29_4 C40_4 1_555 1_555
C41_3 H30_3 1_555 1_555
C42_3 C41_3 1_555 1_555
H31_3 C42_3 1_555 1_555
C43_3 C39_4 1_555 1_555
H32_3 C43_3 1_555 1_555
C44_3 N4_4 1_555 1_555
H33_3 C44_3 1_555 1_555
C45_4 S3_4 1_555 1_555
Cu6 S3_4 1_555 1_555
C35_4 C36_4 1_555 1_555
N4_4 Cu6 1_555 1_555
C38_4 C45_4 1_555 1_555
C41_3 C44_3 1_555 1_555
C42_3 C43_3 1_555 1_555
N3_4 C27_4 1_555 1_555
C27_4 C28_4 1_555 1_555
C28_4 O3_4 1_555 1_555
H19_4 C28_4 1_555 1_555
C29_3 H21_2 1_555 1_555
C30_3 C29_3 1_555 1_555
H22_2 C30_3 1_555 1_555
C31_3 C27_4 1_555 1_555
H23_3 C31_3 1_555 1_555
C32_3 N3_4 1_555 1_555
H24_3 C32_3 1_555 1_555
H34_4 C46_4 1_555 1_555
H35_4 C47_4 1_555 1_555
C48_4 C46_4 1_555 1_555
H36_3 C48_4 1_555 1_555
N3_4 Cu7_3 1_555 1_555
C29_3 C32_3 1_555 1_555
C30_3 C31_3 1_555 1_555
C47_4 C48_4 1_555 1_555
C17_4 H12_3 1_555 1_555
C18_4 C17_4 1_555 1_555
H13_3 C18_4 1_555 1_555
H14_4 C19_4 1_555 1_555
H15_4 C20_4 1_555 1_555
C29_4 H21_3 1_555 1_555
C30_4 C29_4 1_555 1_555
H22_3 C30_4 1_555 1_555
H23_4 C31_4 1_555 1_555
H24_4 C32_4 1_555 1_555
C17_4 C20_4 1_555 1_555
C18_4 C19_4 1_555 1_555
C29_4 C32_4 1_555 1_555
C30_4 C31_4 1_555 1_555
C5_4 H3_4 1_555 1_555
C6_4 C5_4 1_555 1_555
H4_4 C6_4 1_555 1_555
H5_4 C7_4 1_555 1_555
H6_4 C8_4 1_555 1_555
C41_4 H30_4 1_555 1_555
C42_4 C41_4 1_555 1_555
H31_4 C42_4 1_555 1_555
H32_4 C43_4 1_555 1_555
H33_4 C44_4 1_555 1_555
C5_4 C8_4 1_555 1_555
C6_4 C7_4 1_555 1_555
C41_4 C44_4 1_555 1_555
C42_4 C43_4 1_555 1_555

#END
