
###############################################################################
#
# This file contains modified crystal structure data generated from the
# MOF subset of the Cambridge Structural Database (CSD) v543 
# hosted by the Cambridge Crystallographic Data Centre (CCDC).
#
# This work is licensed under the Creative Commons
# Attribution-NonCommercial-ShareAlike 4.0 International License.
# To view a copy of this license, visit
# http://creativecommons.org/licenses/by-nc-sa/4.0/
# or send a letter to
# Creative Commons, PO Box 1866, Mountain View, CA 94042, USA.
#
# CIF created using the CSD Python API on 29 September 2022
# The structure has been converted into the P1 space group
# The structure has a 3D framework
# The original CSD entry CUBZIL is in the tetragonal crystal system
# The framework has been calculated to contain at least 10.0% void space
# The void calculation uses a probe of radius 1.32A, grid spacing 0.4
#
###############################################################################

data_CUBZIL
_chemical_formula_moiety         '(C192 H144 Cl10 Cu16 N16 O16 S16)n'
_symmetry_cell_setting           triclinic
_symmetry_space_group_name_H-M   'P 1'
_symmetry_Int_Tables_number      1
_space_group_name_Hall           'P 1'
loop_
_symmetry_equiv_pos_site_id
_symmetry_equiv_pos_as_xyz
1 x,y,z
_cell_length_a                   26.1853(8)
_cell_length_b                   26.1853(8)
_cell_length_c                   8.0681(6)
_cell_angle_alpha                90
_cell_angle_beta                 90
_cell_angle_gamma                90
_cell_volume                     5532.05
loop_
_atom_site_label
_atom_site_type_symbol
_atom_site_fract_x
_atom_site_fract_y
_atom_site_fract_z
C2 C 0.6062(2) 0.05402(19) 0.0038(5)
H2 H 0.6028 0.0387 0.1072
H3 H 0.6660 0.0969 0.0601
C38 C 0.3938(2) 0.44598(19) 0.0038(5)
H29 H 0.3972 0.4613 0.1072
H30 H 0.3340 0.4031 0.0601
Cu1 Cu 0.52635(2) 0.04391(2) 0.54361(7)
C1 C 0.57306(18) 0.04232(16) 0.8782(5)
H1 H 0.5468 0.0193 0.8995
C3 C 0.6435(2) 0.08792(19) 0.9757(6)
C4 C 0.64823(17) 0.10926(17) 0.8213(5)
H4 H 0.6742 0.1325 0.8000
C5 C 0.61452(14) 0.09616(14) 0.6985(5)
C6 C 0.61825(13) 0.11753(14) 0.5280(5)
H5 H 0.6515 0.1331 0.5114
H6 H 0.6139 0.0906 0.4466
C7 C 0.52940(12) 0.14467(12) 0.2614(4)
C8 C 0.52171(14) 0.15543(13) 0.0945(4)
H7 H 0.4950 0.1399 0.0377
C9 C 0.55345(14) 0.18906(14) 0.0125(4)
C10 C 0.59239(13) 0.21382(14) 0.0977(4)
H9 H 0.6131 0.2372 0.0429
C11 C 0.60039(12) 0.20364(12) 0.2646(4)
C12 C 0.56989(12) 0.16747(12) 0.3456(4)
N1 N 0.57665(12) 0.06271(12) 0.7242(4)
O1 O 0.57826(8) 0.15545(8) 0.5098(3)
S1 S 0.48676(3) 0.10247(3) 0.36713(11)
Cl1 Cl 0.44576(4) 0.01565(4) 0.65524(15)
C17 C 0.34616(14) 0.13548(14) 0.0515(5)
C18 C 0.36753(14) 0.13175(13) 0.2220(5)
H14 H 0.3831 0.0985 0.2386
H15 H 0.3406 0.1361 0.3034
C19 C 0.39467(12) 0.22060(12) 0.4886(4)
C20 C 0.40543(13) 0.22829(14) 0.6555(4)
H16 H 0.3899 0.2550 0.7123
C21 C 0.43906(14) 0.19655(14) 0.7375(4)
H17 H 0.4452 0.2012 0.8500
C22 C 0.46382(14) 0.15761(13) 0.6523(4)
H18 H 0.4872 0.1369 0.7071
C23 C 0.45364(12) 0.14961(12) 0.4854(4)
C24 C 0.41747(12) 0.18011(12) 0.4044(4)
N2 N 0.31271(12) 0.17335(12) 0.0258(4)
O2 O 0.40545(8) 0.17174(8) 0.2402(3)
S2 S 0.35247(3) 0.26324(3) 0.38287(11)
C29 C 0.65384(14) 0.36452(14) 0.0515(5)
C30 C 0.63247(14) 0.36825(13) 0.2220(5)
H23 H 0.6169 0.4015 0.2386
H24 H 0.6594 0.3639 0.3034
C31 C 0.60533(12) 0.27940(12) 0.4886(4)
C32 C 0.59457(13) 0.27171(14) 0.6555(4)
H25 H 0.6101 0.2450 0.7123
C33 C 0.56094(14) 0.30345(14) 0.7375(4)
H26 H 0.5548 0.2988 0.8500
C34 C 0.53618(14) 0.34239(13) 0.6523(4)
H27 H 0.5128 0.3631 0.7071
C35 C 0.54636(12) 0.35039(12) 0.4854(4)
C36 C 0.58253(12) 0.31989(12) 0.4044(4)
N3 N 0.68729(12) 0.32665(12) 0.0258(4)
O3 O 0.59455(8) 0.32826(8) 0.2402(3)
S3 S 0.64753(3) 0.23676(3) 0.38287(11)
C37 C 0.42694(18) 0.45768(16) 0.8782(5)
H28 H 0.4532 0.4807 0.8995
C39 C 0.3565(2) 0.41208(19) 0.9757(6)
C40 C 0.35177(17) 0.39074(17) 0.8213(5)
H31 H 0.3258 0.3675 0.8000
C41 C 0.38548(14) 0.40384(14) 0.6985(5)
C42 C 0.38175(13) 0.38247(14) 0.5280(5)
H32 H 0.3485 0.3669 0.5114
H33 H 0.3861 0.4094 0.4466
C43 C 0.47060(12) 0.35533(12) 0.2614(4)
C44 C 0.47829(14) 0.34457(13) 0.0945(4)
H34 H 0.5050 0.3601 0.0377
C45 C 0.44655(14) 0.31094(14) 0.0125(4)
C46 C 0.40761(13) 0.28618(14) 0.0977(4)
H36 H 0.3869 0.2628 0.0429
C47 C 0.39961(12) 0.29636(12) 0.2646(4)
C48 C 0.43011(12) 0.33253(12) 0.3456(4)
N4 N 0.42335(12) 0.43729(12) 0.7242(4)
O4 O 0.42174(8) 0.34455(8) 0.5098(3)
S4 S 0.51324(3) 0.39753(3) 0.36713(11)
Cu2 Cu 0.47365(2) 0.45609(2) 0.54361(7)
Cl2 Cl 0.55424(4) 0.48435(4) 0.65524(15)
Cu3 Cu 0.29391(2) 0.22365(2) 0.20639(7)
Cl3 Cl 0.26565(4) 0.30424(4) 0.09476(15)
Cu4 Cu 0.70609(2) 0.27635(2) 0.20639(7)
Cl4 Cl 0.73435(4) 0.19576(4) 0.09476(15)
Cu5 Cu 0.20609(2) 0.27635(2) 0.29361(7)
Cu6 Cu 0.79391(2) 0.22365(2) 0.29361(7)
Cu8 Cu 0.52635(2) 0.54391(2) 0.45639(7)
Cl5 Cl 0.23435(4) 0.19576(4) 0.40524(15)
Cl6 Cl 0.76565(4) 0.30424(4) 0.40524(15)
Cl8 Cl 0.44576(4) 0.51565(4) 0.34476(15)
Cu7 Cu 0.47365(2) 0.95609(2) 0.45639(7)
Cl7 Cl 0.55424(4) 0.98435(4) 0.34476(15)
Cu1_2 Cu 0.70609(2) 0.77635(2) 0.79361(7)
C5_2 C 0.65384(14) 0.86452(14) 0.9485(5)
C6_2 C 0.63247(14) 0.86825(13) 0.7780(5)
H5_2 H 0.6169 0.9015 0.7614
H6_2 H 0.6594 0.8639 0.6966
C7_2 C 0.60533(12) 0.77940(12) 0.5114(4)
C8_2 C 0.59457(13) 0.77171(14) 0.3445(4)
H7_2 H 0.6101 0.7450 0.2877
C9_2 C 0.56094(14) 0.80345(14) 0.2625(4)
H8 H 0.5548 0.7988 0.1500
C10_2 C 0.53618(14) 0.84239(13) 0.3477(4)
H9_2 H 0.5128 0.8631 0.2929
C11_2 C 0.54636(12) 0.85039(12) 0.5146(4)
C12_2 C 0.58253(12) 0.81989(12) 0.5956(4)
N1_2 N 0.68729(12) 0.82665(12) 0.9742(4)
O1_2 O 0.59455(8) 0.82826(8) 0.7598(3)
S1_2 S 0.64753(3) 0.73676(3) 0.61713(11)
Cl1_2 Cl 0.73435(4) 0.69576(4) 0.90524(15)
C13 C 0.57306(18) 0.54232(16) 0.1218(5)
H10 H 0.5468 0.5193 0.1005
C15 C 0.6435(2) 0.58792(19) 0.0243(6)
C16 C 0.64823(17) 0.60926(17) 0.1787(5)
H13 H 0.6742 0.6325 0.2000
C17_2 C 0.61452(14) 0.59616(14) 0.3015(5)
C18_2 C 0.61825(13) 0.61753(14) 0.4720(5)
H14_2 H 0.6515 0.6331 0.4886
H15_2 H 0.6139 0.5906 0.5534
C19_2 C 0.52940(12) 0.64467(12) 0.7386(4)
C20_2 C 0.52171(14) 0.65543(13) 0.9055(4)
H16_2 H 0.4950 0.6399 0.9623
C21_2 C 0.55345(14) 0.68906(14) 0.9875(4)
C22_2 C 0.59239(13) 0.71382(14) 0.9023(4)
H18_2 H 0.6131 0.7372 0.9571
C23_2 C 0.60039(12) 0.70364(12) 0.7354(4)
C24_2 C 0.56989(12) 0.66747(12) 0.6544(4)
N2_2 N 0.57665(12) 0.56271(12) 0.2758(4)
O2_2 O 0.57826(8) 0.65545(8) 0.4902(3)
S2_2 S 0.48676(3) 0.60247(3) 0.63287(11)
C25 C 0.42694(18) 0.95768(16) 0.1218(5)
H19 H 0.4532 0.9807 0.1005
C27 C 0.3565(2) 0.91208(19) 0.0243(6)
C28 C 0.35177(17) 0.89074(17) 0.1787(5)
H22 H 0.3258 0.8675 0.2000
C29_2 C 0.38548(14) 0.90384(14) 0.3015(5)
C30_2 C 0.38175(13) 0.88247(14) 0.4720(5)
H23_2 H 0.3485 0.8669 0.4886
H24_2 H 0.3861 0.9094 0.5534
C31_2 C 0.47060(12) 0.85533(12) 0.7386(4)
C32_2 C 0.47829(14) 0.84457(13) 0.9055(4)
H25_2 H 0.5050 0.8601 0.9623
C33_2 C 0.44655(14) 0.81094(14) 0.9875(4)
C34_2 C 0.40761(13) 0.78618(14) 0.9023(4)
H27_2 H 0.3869 0.7628 0.9571
C35_2 C 0.39961(12) 0.79636(12) 0.7354(4)
C36_2 C 0.43011(12) 0.83253(12) 0.6544(4)
N3_2 N 0.42335(12) 0.93729(12) 0.2758(4)
O3_2 O 0.42174(8) 0.84455(8) 0.4902(3)
S3_2 S 0.51324(3) 0.89753(3) 0.63287(11)
C41_2 C 0.34616(14) 0.63548(14) 0.9485(5)
C42_2 C 0.36753(14) 0.63175(13) 0.7780(5)
H32_2 H 0.3831 0.5985 0.7614
H33_2 H 0.3406 0.6361 0.6966
C43_2 C 0.39467(12) 0.72060(12) 0.5114(4)
C44_2 C 0.40543(13) 0.72829(14) 0.3445(4)
H34_2 H 0.3899 0.7550 0.2877
C45_2 C 0.43906(14) 0.69655(14) 0.2625(4)
H35 H 0.4452 0.7012 0.1500
C46_2 C 0.46382(14) 0.65761(13) 0.3477(4)
H36_2 H 0.4872 0.6369 0.2929
C47_2 C 0.45364(12) 0.64961(12) 0.5146(4)
C48_2 C 0.41747(12) 0.68011(12) 0.5956(4)
N4_2 N 0.31271(12) 0.67335(12) 0.9742(4)
O4_2 O 0.40545(8) 0.67174(8) 0.7598(3)
S4_2 S 0.35247(3) 0.76324(3) 0.61713(11)
Cu2_2 Cu 0.29391(2) 0.72365(2) 0.79361(7)
Cl2_2 Cl 0.26565(4) 0.80424(4) 0.90524(15)
Cu7_2 Cu 0.79391(2) 0.72365(2) 0.70639(7)
Cu8_2 Cu 0.20609(2) 0.77635(2) 0.70639(7)
Cl7_2 Cl 0.76565(4) 0.80424(4) 0.59476(15)
Cl8_2 Cl 0.23435(4) 0.69576(4) 0.59476(15)
Cu8_3 Cu 0.02635(2) 0.04391(2) 0.95639(7)
Cu1_3 Cu 0.02635(2) 0.54391(2) 0.04361(7)
C1_2 C 0.07306(18) 0.54232(16) 0.3782(5)
H1_2 H 0.0468 0.5193 0.3995
C2_2 C 0.1062(2) 0.55402(19) 0.5038(5)
H2_2 H 0.1028 0.5387 0.6072
C3_2 C 0.1435(2) 0.58792(19) 0.4757(6)
H3_2 H 0.1660 0.5969 0.5601
C4_2 C 0.14823(17) 0.60926(17) 0.3213(5)
H4_2 H 0.1742 0.6325 0.3000
C5_3 C 0.11452(14) 0.59616(14) 0.1985(5)
C6_3 C 0.11825(13) 0.61753(14) 0.0280(5)
H5_3 H 0.1515 0.6331 0.0114
N1_3 N 0.07665(12) 0.56271(12) 0.2242(4)
O1_3 O 0.07826(8) 0.65545(8) 0.0098(3)
C32_3 C 0.09457(13) 0.77171(14) 0.1555(4)
H25_3 H 0.1101 0.7450 0.2123
C33_3 C 0.06094(14) 0.80345(14) 0.2375(4)
H26_2 H 0.0548 0.7988 0.3500
C34_3 C 0.03618(14) 0.84239(13) 0.1523(4)
H27_3 H 0.0128 0.8631 0.2071
Cl2_3 Cl 0.05424(4) 0.98435(4) 0.15524(15)
H6_3 H 0.1139 0.5906 0.9466
C7_3 C 0.02940(12) 0.64467(12) 0.7614(4)
C8_3 C 0.02171(14) 0.65543(13) 0.5945(4)
C9_3 C 0.05345(14) 0.68906(14) 0.5125(4)
H8_2 H 0.0488 0.6952 0.4000
C10_3 C 0.09239(13) 0.71382(14) 0.5977(4)
H9_3 H 0.1131 0.7372 0.5429
C11_3 C 0.10039(12) 0.70364(12) 0.7646(4)
C12_3 C 0.06989(12) 0.66747(12) 0.8456(4)
C25_2 C 0.20768(16) 0.82306(18) 0.3718(5)
H19_2 H 0.2307 0.7968 0.3505
C26 C 0.19598(19) 0.8562(2) 0.2462(5)
H20 H 0.2113 0.8528 0.1428
C27_2 C 0.16208(19) 0.8935(2) 0.2743(6)
H21 H 0.1531 0.9160 0.1899
C28_2 C 0.14074(17) 0.89823(17) 0.4287(5)
H22_2 H 0.1175 0.9242 0.4500
C29_3 C 0.15384(14) 0.86452(14) 0.5515(5)
C30_3 C 0.13247(14) 0.86825(13) 0.7220(5)
H23_3 H 0.1169 0.9015 0.7386
H24_3 H 0.1594 0.8639 0.8034
C31_3 C 0.10533(12) 0.77940(12) 0.9886(4)
C35_3 C 0.04636(12) 0.85039(12) 0.9854(4)
C36_3 C 0.08253(12) 0.81989(12) 0.9044(4)
N3_3 N 0.18729(12) 0.82665(12) 0.5258(4)
O3_3 O 0.09455(8) 0.82826(8) 0.7402(3)
S3_3 S 0.14753(3) 0.73676(3) 0.88287(11)
H34_3 H 0.0050 0.8601 0.5377
S4_3 S 0.01324(3) 0.89753(3) 0.86713(11)
Cl7_3 Cl 0.05424(4) 0.48435(4) 0.84476(15)
Cl8_3 Cl 0.94576(4) 0.01565(4) 0.84476(15)
Cl1_3 Cl 0.94576(4) 0.51565(4) 0.15524(15)
C20_3 C 0.90543(13) 0.72829(14) 0.1555(4)
H16_3 H 0.8899 0.7550 0.2123
C21_3 C 0.93906(14) 0.69655(14) 0.2375(4)
H17_2 H 0.9452 0.7012 0.3500
C22_3 C 0.96382(14) 0.65761(13) 0.1523(4)
H18_3 H 0.9872 0.6369 0.2071
C37_2 C 0.92694(18) 0.95768(16) 0.3782(5)
H28_2 H 0.9532 0.9807 0.3995
C38_2 C 0.8938(2) 0.94598(19) 0.5038(5)
H29_2 H 0.8972 0.9613 0.6072
C39_2 C 0.8565(2) 0.91208(19) 0.4757(6)
H30_2 H 0.8340 0.9031 0.5601
C40_2 C 0.85177(17) 0.89074(17) 0.3213(5)
H31_2 H 0.8258 0.8675 0.3000
C41_3 C 0.88548(14) 0.90384(14) 0.1985(5)
C42_3 C 0.88175(13) 0.88247(14) 0.0280(5)
H32_3 H 0.8485 0.8669 0.0114
N4_3 N 0.92335(12) 0.93729(12) 0.2242(4)
O4_3 O 0.92174(8) 0.84455(8) 0.0098(3)
Cu2_3 Cu 0.97365(2) 0.95609(2) 0.04361(7)
H7_3 H 0.9950 0.6399 0.5377
S1_3 S 0.98676(3) 0.60247(3) 0.86713(11)
C13_2 C 0.79232(16) 0.67694(18) 0.3718(5)
H10_2 H 0.7693 0.7032 0.3505
C14 C 0.80402(19) 0.6438(2) 0.2462(5)
H11 H 0.7887 0.6472 0.1428
C15_2 C 0.83792(19) 0.6065(2) 0.2743(6)
H12 H 0.8469 0.5840 0.1899
C16_2 C 0.85926(17) 0.60177(17) 0.4287(5)
H13_2 H 0.8825 0.5758 0.4500
C17_3 C 0.84616(14) 0.63548(14) 0.5515(5)
C18_3 C 0.86753(14) 0.63175(13) 0.7220(5)
H14_3 H 0.8831 0.5985 0.7386
H15_3 H 0.8406 0.6361 0.8034
C19_3 C 0.89467(12) 0.72060(12) 0.9886(4)
C23_3 C 0.95364(12) 0.64961(12) 0.9854(4)
C24_3 C 0.91747(12) 0.68011(12) 0.9044(4)
N2_3 N 0.81271(12) 0.67335(12) 0.5258(4)
O2_3 O 0.90545(8) 0.67174(8) 0.7402(3)
S2_3 S 0.85247(3) 0.76324(3) 0.88287(11)
H33_3 H 0.8861 0.9094 0.9466
C43_3 C 0.97060(12) 0.85533(12) 0.7614(4)
C44_3 C 0.97829(14) 0.84457(13) 0.5945(4)
C45_3 C 0.94655(14) 0.81094(14) 0.5125(4)
H35_2 H 0.9512 0.8048 0.4000
C46_3 C 0.90761(13) 0.78618(14) 0.5977(4)
H36_3 H 0.8869 0.7628 0.5429
C47_3 C 0.89961(12) 0.79636(12) 0.7646(4)
C48_3 C 0.93011(12) 0.83253(12) 0.8456(4)
Cu7_3 Cu 0.97365(2) 0.45609(2) 0.95639(7)
C1_3 C 0.20768(16) 0.32306(18) 0.6282(5)
H1_3 H 0.2307 0.2968 0.6495
C2_3 C 0.19598(19) 0.3562(2) 0.7538(5)
H2_3 H 0.2113 0.3528 0.8572
C3_3 C 0.16208(19) 0.3935(2) 0.7257(6)
H3_3 H 0.1531 0.4160 0.8101
C4_3 C 0.14074(17) 0.39823(17) 0.5713(5)
H4_3 H 0.1175 0.4242 0.5500
C5_4 C 0.15384(14) 0.36452(14) 0.4485(5)
C6_4 C 0.13247(14) 0.36825(13) 0.2780(5)
H5_4 H 0.1169 0.4015 0.2614
H6_4 H 0.1594 0.3639 0.1966
C7_4 C 0.10533(12) 0.27940(12) 0.0114(4)
C11_4 C 0.04636(12) 0.35039(12) 0.0146(4)
C12_4 C 0.08253(12) 0.31989(12) 0.0956(4)
N1_4 N 0.18729(12) 0.32665(12) 0.4742(4)
O1_4 O 0.09455(8) 0.32826(8) 0.2598(3)
S1_4 S 0.14753(3) 0.23676(3) 0.11713(11)
H15_4 H 0.1139 0.0906 0.0534
C19_4 C 0.02940(12) 0.14467(12) 0.2386(4)
C20_4 C 0.02171(14) 0.15543(13) 0.4055(4)
C21_4 C 0.05345(14) 0.18906(14) 0.4875(4)
H17_3 H 0.0488 0.1952 0.6000
C22_4 C 0.09239(13) 0.21382(14) 0.4023(4)
H18_4 H 0.1131 0.2372 0.4571
C23_4 C 0.10039(12) 0.20364(12) 0.2354(4)
C24_4 C 0.06989(12) 0.16747(12) 0.1544(4)
H25_4 H 0.0050 0.3601 0.4623
S3_4 S 0.01324(3) 0.39753(3) 0.13287(11)
C8_4 C 0.09457(13) 0.27171(14) 0.8445(4)
H7_4 H 0.1101 0.2450 0.7877
C9_4 C 0.06094(14) 0.30345(14) 0.7625(4)
H8_3 H 0.0548 0.2988 0.6500
C10_4 C 0.03618(14) 0.34239(13) 0.8477(4)
H9_4 H 0.0128 0.3631 0.7929
C13_3 C 0.07306(18) 0.04232(16) 0.6218(5)
H10_3 H 0.0468 0.0193 0.6005
C14_2 C 0.1062(2) 0.05402(19) 0.4962(5)
H11_2 H 0.1028 0.0387 0.3928
C15_3 C 0.1435(2) 0.08792(19) 0.5243(6)
H12_2 H 0.1660 0.0969 0.4399
C16_3 C 0.14823(17) 0.10926(17) 0.6787(5)
H13_3 H 0.1742 0.1325 0.7000
C17_4 C 0.11452(14) 0.09616(14) 0.8015(5)
C18_4 C 0.11825(13) 0.11753(14) 0.9720(5)
H14_4 H 0.1515 0.1331 0.9886
N2_4 N 0.07665(12) 0.06271(12) 0.7758(4)
O2_4 O 0.07826(8) 0.15545(8) 0.9902(3)
H16_4 H 0.9950 0.1399 0.4623
S2_4 S 0.98676(3) 0.10247(3) 0.13287(11)
H24_4 H 0.8861 0.4094 0.0534
C31_4 C 0.97060(12) 0.35533(12) 0.2386(4)
C32_4 C 0.97829(14) 0.34457(13) 0.4055(4)
C33_4 C 0.94655(14) 0.31094(14) 0.4875(4)
H26_3 H 0.9512 0.3048 0.6000
C34_4 C 0.90761(13) 0.28618(14) 0.4023(4)
H27_4 H 0.8869 0.2628 0.4571
C35_4 C 0.89961(12) 0.29636(12) 0.2354(4)
C36_4 C 0.93011(12) 0.33253(12) 0.1544(4)
C37_3 C 0.79232(16) 0.17694(18) 0.6282(5)
H28_3 H 0.7693 0.2032 0.6495
C38_3 C 0.80402(19) 0.1438(2) 0.7538(5)
H29_3 H 0.7887 0.1472 0.8572
C39_3 C 0.83792(19) 0.1065(2) 0.7257(6)
H30_3 H 0.8469 0.0840 0.8101
C40_3 C 0.85926(17) 0.10177(17) 0.5713(5)
H31_3 H 0.8825 0.0758 0.5500
C41_4 C 0.84616(14) 0.13548(14) 0.4485(5)
C42_4 C 0.86753(14) 0.13175(13) 0.2780(5)
H32_4 H 0.8831 0.0985 0.2614
H33_4 H 0.8406 0.1361 0.1966
C43_4 C 0.89467(12) 0.22060(12) 0.0114(4)
C47_4 C 0.95364(12) 0.14961(12) 0.0146(4)
C48_4 C 0.91747(12) 0.18011(12) 0.0956(4)
N4_4 N 0.81271(12) 0.17335(12) 0.4742(4)
O4_4 O 0.90545(8) 0.17174(8) 0.2598(3)
S4_4 S 0.85247(3) 0.26324(3) 0.11713(11)
C25_3 C 0.92694(18) 0.45768(16) 0.6218(5)
H19_3 H 0.9532 0.4807 0.6005
C26_2 C 0.8938(2) 0.44598(19) 0.4962(5)
H20_2 H 0.8972 0.4613 0.3928
C27_3 C 0.8565(2) 0.41208(19) 0.5243(6)
H21_2 H 0.8340 0.4031 0.4399
C28_3 C 0.85177(17) 0.39074(17) 0.6787(5)
H22_3 H 0.8258 0.3675 0.7000
C29_4 C 0.88548(14) 0.40384(14) 0.8015(5)
C30_4 C 0.88175(13) 0.38247(14) 0.9720(5)
H23_4 H 0.8485 0.3669 0.9886
N3_4 N 0.92335(12) 0.43729(12) 0.7758(4)
O3_4 O 0.92174(8) 0.34455(8) 0.9902(3)
C44_4 C 0.90543(13) 0.22829(14) 0.8445(4)
H34_4 H 0.8899 0.2550 0.7877
C45_4 C 0.93906(14) 0.19655(14) 0.7625(4)
H35_3 H 0.9452 0.2012 0.6500
C46_4 C 0.96382(14) 0.15761(13) 0.8477(4)
H36_4 H 0.9872 0.1369 0.7929
H8_4 H 0.5488 0.1952 0.9000
C13_4 C 0.29232(16) 0.17694(18) 0.8718(5)
H10_4 H 0.2693 0.2032 0.8505
C14_3 C 0.30402(19) 0.1438(2) 0.7462(5)
H11_3 H 0.2887 0.1472 0.6428
C15_4 C 0.33792(19) 0.1065(2) 0.7743(6)
H12_3 H 0.3469 0.0840 0.6899
C16_4 C 0.35926(17) 0.10177(17) 0.9287(5)
H13_4 H 0.3825 0.0758 0.9500
C25_4 C 0.70768(16) 0.32306(18) 0.8718(5)
H19_4 H 0.7307 0.2968 0.8505
C26_3 C 0.69598(19) 0.3562(2) 0.7462(5)
H20_3 H 0.7113 0.3528 0.6428
C27_4 C 0.66208(19) 0.3935(2) 0.7743(6)
H21_3 H 0.6531 0.4160 0.6899
C28_4 C 0.64074(17) 0.39823(17) 0.9287(5)
H22_4 H 0.6175 0.4242 0.9500
H35_4 H 0.4512 0.3048 0.9000
C1_4 C 0.70768(16) 0.82306(18) 0.1282(5)
H1_4 H 0.7307 0.7968 0.1495
C2_4 C 0.69598(19) 0.8562(2) 0.2538(5)
H2_4 H 0.7113 0.8528 0.3572
C3_4 C 0.66208(19) 0.8935(2) 0.2257(6)
H3_4 H 0.6531 0.9160 0.3101
C4_4 C 0.64074(17) 0.89823(17) 0.0713(5)
H4_4 H 0.6175 0.9242 0.0500
H17_4 H 0.5488 0.6952 0.1000
H26_4 H 0.4512 0.8048 0.1000
C37_4 C 0.29232(16) 0.67694(18) 0.1282(5)
H28_4 H 0.2693 0.7032 0.1495
C38_4 C 0.30402(19) 0.6438(2) 0.2538(5)
H29_4 H 0.2887 0.6472 0.3572
C39_4 C 0.33792(19) 0.6065(2) 0.2257(6)
H30_4 H 0.3469 0.5840 0.3101
C40_4 C 0.35926(17) 0.60177(17) 0.0713(5)
H31_4 H 0.3825 0.5758 0.0500
C14_4 C 0.6062(2) 0.55402(19) 0.9962(5)
H11_4 H 0.6028 0.5387 0.8928
H12_4 H 0.6660 0.5969 0.9399
C26_4 C 0.3938(2) 0.94598(19) 0.9962(5)
H20_4 H 0.3972 0.9613 0.8928
H21_4 H 0.3340 0.9031 0.9399
loop_
_geom_bond_atom_site_label_1
_geom_bond_atom_site_label_2
_geom_bond_site_symmetry_1
_geom_bond_site_symmetry_2
H2 C2 1_555 1_555
H29 C38 1_555 1_555
Cu1 N1 1_555 1_555
C1 H1 1_555 1_555
C4 C3 1_555 1_555
H4 C4 1_555 1_555
C5 C4 1_555 1_555
C6 C5 1_555 1_555
H5 C6 1_555 1_555
H6 C6 1_555 1_555
C7 C8 1_555 1_555
C8 H7 1_555 1_555
C9 C8 1_555 1_555
C10 C9 1_555 1_555
H9 C10 1_555 1_555
C11 C10 1_555 1_555
C12 C7 1_555 1_555
N1 C1 1_555 1_555
O1 C6 1_555 1_555
S1 Cu1 1_555 1_555
Cl1 Cu1 1_555 1_555
C18 C17 1_555 1_555
H14 C18 1_555 1_555
H15 C18 1_555 1_555
C19 C20 1_555 1_555
C20 H16 1_555 1_555
C21 C20 1_555 1_555
H17 C21 1_555 1_555
C22 C21 1_555 1_555
H18 C22 1_555 1_555
C23 S1 1_555 1_555
C24 C19 1_555 1_555
O2 C18 1_555 1_555
S2 C19 1_555 1_555
C30 C29 1_555 1_555
H23 C30 1_555 1_555
H24 C30 1_555 1_555
C31 C32 1_555 1_555
C32 H25 1_555 1_555
C33 C32 1_555 1_555
H26 C33 1_555 1_555
C34 C33 1_555 1_555
H27 C34 1_555 1_555
C35 C34 1_555 1_555
C36 C31 1_555 1_555
O3 C30 1_555 1_555
S3 C11 1_555 1_555
C37 H28 1_555 1_555
C40 C39 1_555 1_555
H31 C40 1_555 1_555
C41 C40 1_555 1_555
C42 C41 1_555 1_555
H32 C42 1_555 1_555
H33 C42 1_555 1_555
C43 C44 1_555 1_555
C44 H34 1_555 1_555
C45 C44 1_555 1_555
C46 C45 1_555 1_555
H36 C46 1_555 1_555
C47 S2 1_555 1_555
C48 C43 1_555 1_555
N4 C37 1_555 1_555
O4 C42 1_555 1_555
S4 C35 1_555 1_555
Cu2 N4 1_555 1_555
Cl2 Cu2 1_555 1_555
Cu3 N2 1_555 1_555
Cl3 Cu3 1_555 1_555
Cu4 N3 1_555 1_555
Cl4 Cu4 1_555 1_555
Cu5 Cl3 1_555 1_555
Cu6 Cl4 1_555 1_555
Cu8 Cl2 1_555 1_555
Cl5 Cu3 1_555 1_555
Cl6 Cu4 1_555 1_555
Cl8 Cu2 1_555 1_555
C5 N1 1_555 1_555
C7 S1 1_555 1_555
C11 C12 1_555 1_555
C12 O1 1_555 1_555
C17 N2 1_555 1_555
C22 C23 1_555 1_555
C23 C24 1_555 1_555
C24 O2 1_555 1_555
S2 Cu3 1_555 1_555
C29 N3 1_555 1_555
C31 S3 1_555 1_555
C35 C36 1_555 1_555
C36 O3 1_555 1_555
S3 Cu4 1_555 1_555
C41 N4 1_555 1_555
C43 S4 1_555 1_555
C46 C47 1_555 1_555
C47 C48 1_555 1_555
C48 O4 1_555 1_555
S4 Cu2 1_555 1_555
Cu5 Cl5 1_555 1_555
Cu6 Cl6 1_555 1_555
Cu8 Cl8 1_555 1_555
Cu7 Cl7 1_555 1_555
Cu1_2 N1_2 1_555 1_555
C6_2 C5_2 1_555 1_555
H5_2 C6_2 1_555 1_555
H6_2 C6_2 1_555 1_555
C7_2 C8_2 1_555 1_555
C8_2 H7_2 1_555 1_555
C9_2 C8_2 1_555 1_555
H8 C9_2 1_555 1_555
C10_2 C9_2 1_555 1_555
H9_2 C10_2 1_555 1_555
C11_2 C10_2 1_555 1_555
C12_2 C7_2 1_555 1_555
O1_2 C6_2 1_555 1_555
S1_2 Cu1_2 1_555 1_555
Cl1_2 Cu1_2 1_555 1_555
C13 H10 1_555 1_555
C16 C15 1_555 1_555
H13 C16 1_555 1_555
C17_2 C16 1_555 1_555
C18_2 C17_2 1_555 1_555
H14_2 C18_2 1_555 1_555
H15_2 C18_2 1_555 1_555
C19_2 C20_2 1_555 1_555
C20_2 H16_2 1_555 1_555
C21_2 C20_2 1_555 1_555
C22_2 C21_2 1_555 1_555
H18_2 C22_2 1_555 1_555
C23_2 S1_2 1_555 1_555
C24_2 C19_2 1_555 1_555
N2_2 C13 1_555 1_555
O2_2 C18_2 1_555 1_555
S2_2 C19_2 1_555 1_555
C25 H19 1_555 1_555
C28 C27 1_555 1_555
H22 C28 1_555 1_555
C29_2 C28 1_555 1_555
C30_2 C29_2 1_555 1_555
H23_2 C30_2 1_555 1_555
H24_2 C30_2 1_555 1_555
C31_2 C32_2 1_555 1_555
C32_2 H25_2 1_555 1_555
C33_2 C32_2 1_555 1_555
C34_2 C33_2 1_555 1_555
H27_2 C34_2 1_555 1_555
C35_2 C34_2 1_555 1_555
C36_2 C31_2 1_555 1_555
N3_2 C25 1_555 1_555
O3_2 C30_2 1_555 1_555
S3_2 C11_2 1_555 1_555
C42_2 C41_2 1_555 1_555
H32_2 C42_2 1_555 1_555
H33_2 C42_2 1_555 1_555
C43_2 C44_2 1_555 1_555
C44_2 H34_2 1_555 1_555
C45_2 C44_2 1_555 1_555
H35 C45_2 1_555 1_555
C46_2 C45_2 1_555 1_555
H36_2 C46_2 1_555 1_555
C47_2 S2_2 1_555 1_555
C48_2 C43_2 1_555 1_555
O4_2 C42_2 1_555 1_555
S4_2 C35_2 1_555 1_555
Cu2_2 N4_2 1_555 1_555
Cl2_2 Cu2_2 1_555 1_555
Cu8 N2_2 1_555 1_555
Cu7 N3_2 1_555 1_555
Cu7_2 Cl1_2 1_555 1_555
Cu8_2 Cl2_2 1_555 1_555
Cl7_2 Cu1_2 1_555 1_555
Cl8_2 Cu2_2 1_555 1_555
C5_2 N1_2 1_555 1_555
C7_2 S1_2 1_555 1_555
C11_2 C12_2 1_555 1_555
C12_2 O1_2 1_555 1_555
C17_2 N2_2 1_555 1_555
C22_2 C23_2 1_555 1_555
C23_2 C24_2 1_555 1_555
C24_2 O2_2 1_555 1_555
S2_2 Cu8 1_555 1_555
C29_2 N3_2 1_555 1_555
C31_2 S3_2 1_555 1_555
C35_2 C36_2 1_555 1_555
C36_2 O3_2 1_555 1_555
S3_2 Cu7 1_555 1_555
C41_2 N4_2 1_555 1_555
C43_2 S4_2 1_555 1_555
C46_2 C47_2 1_555 1_555
C47_2 C48_2 1_555 1_555
C48_2 O4_2 1_555 1_555
S4_2 Cu2_2 1_555 1_555
Cu7_2 Cl7_2 1_555 1_555
Cu8_2 Cl8_2 1_555 1_555
Cu1_3 N1_3 1_555 1_555
C1_2 H1_2 1_555 1_555
C2_2 C1_2 1_555 1_555
H2_2 C2_2 1_555 1_555
C3_2 C2_2 1_555 1_555
H3_2 C3_2 1_555 1_555
C4_2 C3_2 1_555 1_555
H4_2 C4_2 1_555 1_555
C5_3 C4_2 1_555 1_555
C6_3 C5_3 1_555 1_555
H5_3 C6_3 1_555 1_555
N1_3 C1_2 1_555 1_555
O1_3 C6_3 1_555 1_555
C32_3 H25_3 1_555 1_555
C33_3 C32_3 1_555 1_555
H26_2 C33_3 1_555 1_555
C34_3 C33_3 1_555 1_555
H27_3 C34_3 1_555 1_555
C5_3 N1_3 1_555 1_555
C7_3 C8_3 1_555 1_555
C9_3 C8_3 1_555 1_555
H8_2 C9_3 1_555 1_555
C10_3 C9_3 1_555 1_555
H9_3 C10_3 1_555 1_555
C11_3 C10_3 1_555 1_555
C12_3 C7_3 1_555 1_555
C25_2 H19_2 1_555 1_555
C26 C25_2 1_555 1_555
H20 C26 1_555 1_555
C27_2 C26 1_555 1_555
H21 C27_2 1_555 1_555
C28_2 C27_2 1_555 1_555
H22_2 C28_2 1_555 1_555
C29_3 C28_2 1_555 1_555
C30_3 C29_3 1_555 1_555
H23_3 C30_3 1_555 1_555
H24_3 C30_3 1_555 1_555
C36_3 C31_3 1_555 1_555
N3_3 C25_2 1_555 1_555
O3_3 C30_3 1_555 1_555
S3_3 C11_3 1_555 1_555
S4_3 C35_3 1_555 1_555
Cu8_2 N3_3 1_555 1_555
C11_3 C12_3 1_555 1_555
C29_3 N3_3 1_555 1_555
C31_3 S3_3 1_555 1_555
C35_3 C36_3 1_555 1_555
C36_3 O3_3 1_555 1_555
S3_3 Cu8_2 1_555 1_555
C20_3 H16_3 1_555 1_555
C21_3 C20_3 1_555 1_555
H17_2 C21_3 1_555 1_555
C22_3 C21_3 1_555 1_555
H18_3 C22_3 1_555 1_555
C37_2 H28_2 1_555 1_555
C38_2 C37_2 1_555 1_555
H29_2 C38_2 1_555 1_555
C39_2 C38_2 1_555 1_555
H30_2 C39_2 1_555 1_555
C40_2 C39_2 1_555 1_555
H31_2 C40_2 1_555 1_555
C41_3 C40_2 1_555 1_555
C42_3 C41_3 1_555 1_555
H32_3 C42_3 1_555 1_555
N4_3 C37_2 1_555 1_555
O4_3 C42_3 1_555 1_555
Cu2_3 N4_3 1_555 1_555
C41_3 N4_3 1_555 1_555
C13_2 H10_2 1_555 1_555
C14 C13_2 1_555 1_555
H11 C14 1_555 1_555
C15_2 C14 1_555 1_555
H12 C15_2 1_555 1_555
C16_2 C15_2 1_555 1_555
H13_2 C16_2 1_555 1_555
C17_3 C16_2 1_555 1_555
C18_3 C17_3 1_555 1_555
H14_3 C18_3 1_555 1_555
H15_3 C18_3 1_555 1_555
C23_3 S1_3 1_555 1_555
C24_3 C19_3 1_555 1_555
N2_3 C13_2 1_555 1_555
O2_3 C18_3 1_555 1_555
S2_3 C19_3 1_555 1_555
C43_3 C44_3 1_555 1_555
C45_3 C44_3 1_555 1_555
H35_2 C45_3 1_555 1_555
C46_3 C45_3 1_555 1_555
H36_3 C46_3 1_555 1_555
C47_3 S2_3 1_555 1_555
C48_3 C43_3 1_555 1_555
Cu7_2 N2_3 1_555 1_555
C17_3 N2_3 1_555 1_555
C23_3 C24_3 1_555 1_555
C24_3 O2_3 1_555 1_555
S2_3 Cu7_2 1_555 1_555
C46_3 C47_3 1_555 1_555
C47_3 C48_3 1_555 1_555
Cu5 N1_4 1_555 1_555
C1_3 H1_3 1_555 1_555
C2_3 C1_3 1_555 1_555
H2_3 C2_3 1_555 1_555
C3_3 C2_3 1_555 1_555
H3_3 C3_3 1_555 1_555
C4_3 C3_3 1_555 1_555
H4_3 C4_3 1_555 1_555
C5_4 C4_3 1_555 1_555
C6_4 C5_4 1_555 1_555
H5_4 C6_4 1_555 1_555
H6_4 C6_4 1_555 1_555
C12_4 C7_4 1_555 1_555
N1_4 C1_3 1_555 1_555
O1_4 C6_4 1_555 1_555
S1_4 Cu5 1_555 1_555
C19_4 C20_4 1_555 1_555
C21_4 C20_4 1_555 1_555
H17_3 C21_4 1_555 1_555
C22_4 C21_4 1_555 1_555
H18_4 C22_4 1_555 1_555
C23_4 S1_4 1_555 1_555
C24_4 C19_4 1_555 1_555
S3_4 C11_4 1_555 1_555
C5_4 N1_4 1_555 1_555
C7_4 S1_4 1_555 1_555
C11_4 C12_4 1_555 1_555
C12_4 O1_4 1_555 1_555
C22_4 C23_4 1_555 1_555
C23_4 C24_4 1_555 1_555
C8_4 H7_4 1_555 1_555
C9_4 C8_4 1_555 1_555
H8_3 C9_4 1_555 1_555
C10_4 C9_4 1_555 1_555
H9_4 C10_4 1_555 1_555
C13_3 H10_3 1_555 1_555
C14_2 C13_3 1_555 1_555
H11_2 C14_2 1_555 1_555
C15_3 C14_2 1_555 1_555
H12_2 C15_3 1_555 1_555
C16_3 C15_3 1_555 1_555
H13_3 C16_3 1_555 1_555
C17_4 C16_3 1_555 1_555
C18_4 C17_4 1_555 1_555
H14_4 C18_4 1_555 1_555
N2_4 C13_3 1_555 1_555
O2_4 C18_4 1_555 1_555
Cu8_3 N2_4 1_555 1_555
C17_4 N2_4 1_555 1_555
C31_4 C32_4 1_555 1_555
C33_4 C32_4 1_555 1_555
H26_3 C33_4 1_555 1_555
C34_4 C33_4 1_555 1_555
H27_4 C34_4 1_555 1_555
C35_4 C34_4 1_555 1_555
C36_4 C31_4 1_555 1_555
C37_3 H28_3 1_555 1_555
C38_3 C37_3 1_555 1_555
H29_3 C38_3 1_555 1_555
C39_3 C38_3 1_555 1_555
H30_3 C39_3 1_555 1_555
C40_3 C39_3 1_555 1_555
H31_3 C40_3 1_555 1_555
C41_4 C40_3 1_555 1_555
C42_4 C41_4 1_555 1_555
H32_4 C42_4 1_555 1_555
H33_4 C42_4 1_555 1_555
C47_4 S2_4 1_555 1_555
C48_4 C43_4 1_555 1_555
N4_4 C37_3 1_555 1_555
O4_4 C42_4 1_555 1_555
S4_4 C35_4 1_555 1_555
Cu6 N4_4 1_555 1_555
C35_4 C36_4 1_555 1_555
C41_4 N4_4 1_555 1_555
C43_4 S4_4 1_555 1_555
C47_4 C48_4 1_555 1_555
C48_4 O4_4 1_555 1_555
S4_4 Cu6 1_555 1_555
C25_3 H19_3 1_555 1_555
C26_2 C25_3 1_555 1_555
H20_2 C26_2 1_555 1_555
C27_3 C26_2 1_555 1_555
H21_2 C27_3 1_555 1_555
C28_3 C27_3 1_555 1_555
H22_3 C28_3 1_555 1_555
C29_4 C28_3 1_555 1_555
C30_4 C29_4 1_555 1_555
H23_4 C30_4 1_555 1_555
N3_4 C25_3 1_555 1_555
O3_4 C30_4 1_555 1_555
C44_4 H34_4 1_555 1_555
C45_4 C44_4 1_555 1_555
H35_3 C45_4 1_555 1_555
C46_4 C45_4 1_555 1_555
H36_4 C46_4 1_555 1_555
Cu7_3 N3_4 1_555 1_555
C29_4 N3_4 1_555 1_555
C13_4 H10_4 1_555 1_555
C14_3 C13_4 1_555 1_555
H11_3 C14_3 1_555 1_555
C15_4 C14_3 1_555 1_555
H12_3 C15_4 1_555 1_555
C16_4 C15_4 1_555 1_555
H13_4 C16_4 1_555 1_555
C25_4 H19_4 1_555 1_555
C26_3 C25_4 1_555 1_555
H20_3 C26_3 1_555 1_555
C27_4 C26_3 1_555 1_555
H21_3 C27_4 1_555 1_555
C28_4 C27_4 1_555 1_555
H22_4 C28_4 1_555 1_555
C1_4 H1_4 1_555 1_555
C2_4 C1_4 1_555 1_555
H2_4 C2_4 1_555 1_555
C3_4 C2_4 1_555 1_555
H3_4 C3_4 1_555 1_555
C4_4 C3_4 1_555 1_555
H4_4 C4_4 1_555 1_555
C37_4 H28_4 1_555 1_555
C38_4 C37_4 1_555 1_555
H29_4 C38_4 1_555 1_555
C39_4 C38_4 1_555 1_555
H30_4 C39_4 1_555 1_555
C40_4 C39_4 1_555 1_555
H31_4 C40_4 1_555 1_555
H11_4 C14_4 1_555 1_555
H20_4 C26_4 1_555 1_555

#END
