
###############################################################################
#
# This file contains modified crystal structure data generated from the
# MOF subset of the Cambridge Structural Database (CSD) v543 
# hosted by the Cambridge Crystallographic Data Centre (CCDC).
#
# This work is licensed under the Creative Commons
# Attribution-NonCommercial-ShareAlike 4.0 International License.
# To view a copy of this license, visit
# http://creativecommons.org/licenses/by-nc-sa/4.0/
# or send a letter to
# Creative Commons, PO Box 1866, Mountain View, CA 94042, USA.
#
# CIF created using the CSD Python API on 29 September 2022
# The structure has been converted into the P1 space group
# The structure has a 3D framework
# The original CSD entry CUCFOX is in the monoclinic crystal system
# The framework has been calculated to contain at least 10.0% void space
# The void calculation uses a probe of radius 1.32A, grid spacing 0.4
# The framework is charged, counterions have been retained in the structure
# H atom positions have been added when not included in the experimental data
#
###############################################################################

data_CUCFOX
_chemical_formula_moiety         '(C128 H176 N96 O64 Zn8)n'
_symmetry_cell_setting           triclinic
_symmetry_space_group_name_H-M   'P 1'
_symmetry_Int_Tables_number      1
_space_group_name_Hall           'P 1'
loop_
_symmetry_equiv_pos_site_id
_symmetry_equiv_pos_as_xyz
1 x,y,z
_cell_length_a                   27.511(5)
_cell_length_b                   23.284(5)
_cell_length_c                   18.752(5)
_cell_angle_alpha                90
_cell_angle_beta                 131.079(5)
_cell_angle_gamma                90
_cell_volume                     9054.62
loop_
_atom_site_label
_atom_site_type_symbol
_atom_site_fract_x
_atom_site_fract_y
_atom_site_fract_z
C1 C 0.3138(4) 0.1957(4) 0.1473(6)
H1 H 0.2895 0.2287 0.1160
C2 C 0.3800(4) 0.2009(4) 0.2204(7)
H2 H 0.3991 0.2370 0.2402
C3 C 0.4155(4) 0.1543(4) 0.2616(6)
C4 C 0.3857(6) 0.1025(4) 0.2365(8)
H3 H 0.4093 0.0690 0.2662
C5 C 0.3220(5) 0.1008(4) 0.1687(8)
H4 H 0.3019 0.0652 0.1530
C6 C 0.4926(4) 0.1612(5) 0.3441(6)
C7 C 0.5293(4) 0.1054(4) 0.3931(8)
H5 H 0.5635 0.1017 0.3919
H6 H 0.5004 0.0735 0.3607
H7 H 0.5471 0.1061 0.4575
C8 C 0.6021(5) 0.2699(4) 0.4266(6)
N1 N 0.2850(3) 0.1469(3) 0.1214(4)
N4 N 0.5562(3) 0.3124(3) 0.3697(5)
N5 N 0.5785(3) 0.3666(3) 0.3876(4)
N6 N 0.5129(3) 0.2116(3) 0.3485(4)
N10 N 0.5804(3) 0.2159(3) 0.4169(5)
O1 O 0.6618(3) 0.2792(2) 0.4845(4)
O2 O 0.1886(2) 0.0451(3) 0.0128(4)
Zn1 Zn 0.18495(4) 0.13490(4) 0.01192(6)
N12 N 0.1682(3) 0.1299(3) 0.1078(5)
Zn3 Zn 0.68495(4) 0.36510(4) 0.51192(6)
H18 H 0.508724 0.303028 0.31779
H19 H 0.555943 0.391271 0.402857
H20 H 0.570187 0.382904 0.330236
H21 H 0.609831 0.181978 0.455084
C10 C 0.1682(5) 0.9016(5) 0.8326(7)
C11 C 0.1699(7) 0.8483(4) 0.8879(10)
H8 H 0.1348 0.8514 0.8873
H9 H 0.2100 0.8483 0.9522
H10 H 0.1658 0.8132 0.8576
C12 C 0.1426(4) 0.9173(4) 0.6119(6)
H11 H 0.1250 0.9454 0.5656
C13 C 0.1421(4) 0.9247(4) 0.6849(8)
H12 H 0.1268 0.9593 0.6883
C14 C 0.1619(5) 0.8853(5) 0.7493(7)
C15 C 0.1862(5) 0.8332(4) 0.7440(8)
H13 H 0.2000 0.8033 0.7865
C16 C 0.1881(4) 0.8291(4) 0.6718(7)
H14 H 0.2045 0.7954 0.6678
N7 N 0.1682(3) 0.8701(3) 0.6078(5)
N8 N 0.1754(3) 0.9700(4) 0.9257(5)
N9 N 0.1695(3) 0.9510(4) 0.8469(6)
Zn2 Zn 0.18495(4) 0.86510(4) 0.51192(6)
H22 H 0.171822 0.941502 0.963018
C7_2 C 0.0293(4) 0.6054(4) 0.3931(8)
H5_2 H 0.0635 0.6017 0.3919
H6_2 H 0.0004 0.5735 0.3607
H7_2 H 0.0471 0.6061 0.4575
C8_2 C 0.1021(5) 0.7699(4) 0.4266(6)
N4_2 N 0.0562(3) 0.8124(3) 0.3697(5)
N5_2 N 0.0785(3) 0.8666(3) 0.3876(4)
N6_2 N 0.0129(3) 0.7116(3) 0.3485(4)
N10_2 N 0.0804(3) 0.7159(3) 0.4169(5)
O1_2 O 0.1618(3) 0.7792(2) 0.4845(4)
H18_2 H 0.00872421 0.803028 0.31779
H19_2 H 0.0559435 0.891271 0.402857
H20_2 H 0.0701874 0.882904 0.330236
H21_2 H 0.109831 0.681978 0.455084
C1_2 C 0.8138(4) 0.6957(4) 0.1473(6)
H1_2 H 0.7895 0.7287 0.1160
C2_2 C 0.8800(4) 0.7009(4) 0.2204(7)
H2_2 H 0.8991 0.7370 0.2402
C3_2 C 0.9155(4) 0.6543(4) 0.2616(6)
C4_2 C 0.8857(6) 0.6025(4) 0.2365(8)
H3_2 H 0.9093 0.5690 0.2662
C5_2 C 0.8220(5) 0.6008(4) 0.1687(8)
H4_2 H 0.8019 0.5652 0.1530
C6_2 C 0.9926(4) 0.6612(5) 0.3441(6)
N1_2 N 0.7850(3) 0.6469(3) 0.1214(4)
O2_2 O 0.6886(2) 0.5451(3) 0.0128(4)
Zn1_2 Zn 0.68495(4) 0.63490(4) 0.01192(6)
N12_2 N 0.6682(3) 0.6299(3) 0.1078(5)
C9 C 0.6859(3) 0.5271(4) 0.9492(7)
C10_2 C 0.6682(5) 0.4016(5) 0.8326(7)
C11_2 C 0.6699(7) 0.3483(4) 0.8879(10)
H8_2 H 0.6348 0.3514 0.8873
H9_2 H 0.7100 0.3483 0.9522
H10_2 H 0.6658 0.3132 0.8576
C12_2 C 0.6426(4) 0.4173(4) 0.6119(6)
H11_2 H 0.6250 0.4454 0.5656
C13_2 C 0.6421(4) 0.4247(4) 0.6849(8)
H12_2 H 0.6268 0.4593 0.6883
C14_2 C 0.6619(5) 0.3853(5) 0.7493(7)
C15_2 C 0.6862(5) 0.3332(4) 0.7440(8)
H13_2 H 0.7000 0.3033 0.7865
C16_2 C 0.6881(4) 0.3291(4) 0.6718(7)
H14_2 H 0.7045 0.2954 0.6678
N2 N 0.6886(2) 0.5593(3) 0.8897(4)
N3 N 0.6960(3) 0.6194(3) 0.9077(4)
N7_2 N 0.6682(3) 0.3701(3) 0.6078(5)
N8_2 N 0.6754(3) 0.4700(4) 0.9257(5)
N9_2 N 0.6695(3) 0.4510(4) 0.8469(6)
N11 N 0.5785(3) 0.6334(3) 0.8876(4)
O3 O 0.6618(3) 0.7208(2) 0.9845(4)
H15 H 0.685543 0.541433 0.837497
H16 H 0.661713 0.641211 0.847105
H17 H 0.740359 0.632226 0.934043
H22_2 H 0.671822 0.441502 0.963018
C10_3 C 0.1682(5) 0.0984(5) 0.3326(7)
C11_3 C 0.1699(7) 0.1517(4) 0.3879(10)
H8_3 H 0.1348 0.1486 0.3873
H9_3 H 0.2100 0.1517 0.4522
H10_3 H 0.1658 0.1868 0.3576
C12_3 C 0.1426(4) 0.0827(4) 0.1119(6)
H11_3 H 0.1250 0.0546 0.0656
C13_3 C 0.1421(4) 0.0753(4) 0.1849(8)
H12_3 H 0.1268 0.0407 0.1883
C14_3 C 0.1619(5) 0.1147(5) 0.2493(7)
C15_3 C 0.1862(5) 0.1668(4) 0.2440(8)
H13_3 H 0.2000 0.1967 0.2865
C16_3 C 0.1881(4) 0.1709(4) 0.1718(7)
H14_3 H 0.2045 0.2046 0.1678
N8_3 N 0.1754(3) 0.0300(4) 0.4257(5)
N9_3 N 0.1695(3) 0.0490(4) 0.3469(6)
H22_3 H 0.171822 0.0584981 0.463018
C1_3 C 0.3138(4) 0.8043(4) 0.6473(6)
H1_3 H 0.2895 0.7713 0.6160
C2_3 C 0.3800(4) 0.7991(4) 0.7204(7)
H2_3 H 0.3991 0.7630 0.7402
C3_3 C 0.4155(4) 0.8457(4) 0.7616(6)
C4_3 C 0.3857(6) 0.8975(4) 0.7365(8)
H3_3 H 0.4093 0.9310 0.7662
C5_3 C 0.3220(5) 0.8992(4) 0.6687(8)
H4_3 H 0.3019 0.9348 0.6530
C6_3 C 0.4926(4) 0.8388(5) 0.8441(6)
C7_3 C 0.5293(4) 0.8946(4) 0.8931(8)
H5_3 H 0.5635 0.8983 0.8919
H6_3 H 0.5004 0.9265 0.8607
H7_3 H 0.5471 0.8939 0.9575
C8_3 C 0.6021(5) 0.7301(4) 0.9266(6)
C9_2 C 0.1859(3) 0.9729(4) 0.4492(7)
N1_3 N 0.2850(3) 0.8531(3) 0.6214(4)
N2_2 N 0.1886(2) 0.9407(3) 0.3897(4)
N3_2 N 0.1960(3) 0.8806(3) 0.4077(4)
N4_3 N 0.5562(3) 0.6876(3) 0.8697(5)
N6_3 N 0.5129(3) 0.7884(3) 0.8485(4)
N10_3 N 0.5804(3) 0.7841(3) 0.9169(5)
O2_3 O 0.1886(2) 0.9549(3) 0.5128(4)
H15_2 H 0.185543 0.958567 0.337497
H16_2 H 0.161713 0.858789 0.347105
H17_2 H 0.240359 0.867774 0.434043
H18_3 H 0.508724 0.696972 0.81779
H19_3 H 0.555943 0.608729 0.902857
H20_3 H 0.570187 0.617096 0.830236
H21_3 H 0.609831 0.818022 0.955084
C1_4 C 0.8138(4) 0.3043(4) 0.6473(6)
H1_4 H 0.7895 0.2713 0.6160
C2_4 C 0.8800(4) 0.2991(4) 0.7204(7)
H2_4 H 0.8991 0.2630 0.7402
C3_4 C 0.9155(4) 0.3457(4) 0.7616(6)
C4_4 C 0.8857(6) 0.3975(4) 0.7365(8)
H3_4 H 0.9093 0.4310 0.7662
C5_4 C 0.8220(5) 0.3992(4) 0.6687(8)
H4_4 H 0.8019 0.4348 0.6530
C6_4 C 0.9926(4) 0.3388(5) 0.8441(6)
C9_3 C 0.6859(3) 0.4729(4) 0.4492(7)
C10_4 C 0.6682(5) 0.5984(5) 0.3326(7)
C11_4 C 0.6699(7) 0.6517(4) 0.3879(10)
H8_4 H 0.6348 0.6486 0.3873
H9_4 H 0.7100 0.6517 0.4522
H10_4 H 0.6658 0.6868 0.3576
C12_4 C 0.6426(4) 0.5827(4) 0.1119(6)
H11_4 H 0.6250 0.5546 0.0656
C13_4 C 0.6421(4) 0.5753(4) 0.1849(8)
H12_4 H 0.6268 0.5407 0.1883
C14_4 C 0.6619(5) 0.6147(5) 0.2493(7)
C15_4 C 0.6862(5) 0.6668(4) 0.2440(8)
H13_4 H 0.7000 0.6967 0.2865
C16_4 C 0.6881(4) 0.6709(4) 0.1718(7)
H14_4 H 0.7045 0.7046 0.1678
N1_4 N 0.7850(3) 0.3531(3) 0.6214(4)
N2_3 N 0.6886(2) 0.4407(3) 0.3897(4)
N3_3 N 0.6960(3) 0.3806(3) 0.4077(4)
N8_4 N 0.6754(3) 0.5300(4) 0.4257(5)
N9_4 N 0.6695(3) 0.5490(4) 0.3469(6)
O2_4 O 0.6886(2) 0.4549(3) 0.5128(4)
H15_3 H 0.685543 0.458567 0.337497
H16_3 H 0.661713 0.358789 0.347105
H17_3 H 0.740359 0.367774 0.434043
H22_4 H 0.671822 0.558498 0.463018
C9_4 C 0.1859(3) 0.0271(4) 0.9492(7)
N2_4 N 0.1886(2) 0.0593(3) 0.8897(4)
N3_4 N 0.1960(3) 0.1194(3) 0.9077(4)
N11_2 N 0.0785(3) 0.1334(3) 0.8876(4)
O3_2 O 0.1618(3) 0.2208(2) 0.9845(4)
H15_4 H 0.185543 0.0414332 0.837497
H16_4 H 0.161713 0.141211 0.847105
H17_4 H 0.240359 0.132226 0.934043
C7_4 C 0.0293(4) 0.3946(4) 0.8931(8)
H5_4 H 0.0635 0.3983 0.8919
H6_4 H 0.0004 0.4265 0.8607
H7_4 H 0.0471 0.3939 0.9575
C8_4 C 0.1021(5) 0.2301(4) 0.9266(6)
N4_4 N 0.0562(3) 0.1876(3) 0.8697(5)
N6_4 N 0.0129(3) 0.2884(3) 0.8485(4)
N10_4 N 0.0804(3) 0.2841(3) 0.9169(5)
H18_4 H 0.00872421 0.196972 0.81779
H19_4 H 0.0559435 0.108729 0.902857
H20_4 H 0.0701874 0.117096 0.830236
H21_4 H 0.109831 0.318022 0.955084
C1_5 C 0.6862(4) 0.1957(4) 0.3527(6)
H1_5 H 0.7105 0.2287 0.3840
C2_5 C 0.6200(4) 0.2009(4) 0.2796(7)
H2_5 H 0.6009 0.2370 0.2598
C3_5 C 0.5845(4) 0.1543(4) 0.2384(6)
C4_5 C 0.6143(6) 0.1025(4) 0.2635(8)
H3_5 H 0.5907 0.0690 0.2338
C5_5 C 0.6780(5) 0.1008(4) 0.3313(8)
H4_5 H 0.6981 0.0652 0.3470
C6_5 C 0.5074(4) 0.1612(5) 0.1559(6)
C7_5 C 0.4707(4) 0.1054(4) 0.1069(8)
H5_5 H 0.4365 0.1017 0.1081
H6_5 H 0.4996 0.0735 0.1393
H7_5 H 0.4529 0.1061 0.0425
C8_5 C 0.3979(5) 0.2699(4) 0.0734(6)
C9_5 C 0.8141(3) 0.0271(4) 0.5508(7)
N1_5 N 0.7150(3) 0.1469(3) 0.3786(4)
N2_5 N 0.8114(2) 0.0593(3) 0.6103(4)
N3_5 N 0.8040(3) 0.1194(3) 0.5923(4)
N4_5 N 0.4438(3) 0.3124(3) 0.1303(5)
N5_3 N 0.4215(3) 0.3666(3) 0.1124(4)
N6_5 N 0.4871(3) 0.2116(3) 0.1515(4)
N10_5 N 0.4196(3) 0.2159(3) 0.0831(5)
O1_3 O 0.3382(3) 0.2792(2) 0.0155(4)
O2_5 O 0.8114(2) 0.0451(3) 0.4872(4)
Zn1_3 Zn 0.81505(4) 0.13490(4) 0.48808(6)
N11_3 N 0.9215(3) 0.1334(3) 0.6124(4)
N12_3 N 0.8318(3) 0.1299(3) 0.3922(5)
O3_3 O 0.8382(3) 0.2208(2) 0.5155(4)
H15_5 H 0.814457 0.0414332 0.662503
H16_5 H 0.838287 0.141211 0.652895
H17_5 H 0.759641 0.132226 0.565957
H18_5 H 0.491276 0.303028 0.18221
H19_5 H 0.444057 0.391271 0.0971432
H20_5 H 0.429813 0.382904 0.169764
H21_5 H 0.390169 0.181978 0.0449158
Zn3_2 Zn 0.31505(4) 0.36510(4) 0.98808(6)
C10_5 C 0.8318(5) 0.9016(5) 0.6674(7)
C11_5 C 0.8301(7) 0.8483(4) 0.6121(10)
H8_5 H 0.8652 0.8514 0.6127
H9_5 H 0.7900 0.8483 0.5478
H10_5 H 0.8342 0.8132 0.6424
C12_5 C 0.8574(4) 0.9173(4) 0.8881(6)
H11_5 H 0.8750 0.9454 0.9344
C13_5 C 0.8579(4) 0.9247(4) 0.8151(8)
H12_5 H 0.8732 0.9593 0.8117
C14_5 C 0.8381(5) 0.8853(5) 0.7507(7)
C15_5 C 0.8138(5) 0.8332(4) 0.7560(8)
H13_5 H 0.8000 0.8033 0.7135
C16_5 C 0.8119(4) 0.8291(4) 0.8282(7)
H14_5 H 0.7955 0.7954 0.8322
N7_3 N 0.8318(3) 0.8701(3) 0.8922(5)
N8_5 N 0.8246(3) 0.9700(4) 0.5743(5)
N9_5 N 0.8305(3) 0.9510(4) 0.6531(6)
Zn2_2 Zn 0.81505(4) 0.86510(4) 0.98808(6)
H22_5 H 0.828178 0.941502 0.536982
C1_6 C 0.1862(4) 0.6957(4) 0.3527(6)
H1_6 H 0.2105 0.7287 0.3840
C2_6 C 0.1200(4) 0.7009(4) 0.2796(7)
H2_6 H 0.1009 0.7370 0.2598
C3_6 C 0.0845(4) 0.6543(4) 0.2384(6)
C4_6 C 0.1143(6) 0.6025(4) 0.2635(8)
H3_6 H 0.0907 0.5690 0.2338
C5_6 C 0.1780(5) 0.6008(4) 0.3313(8)
H4_6 H 0.1981 0.5652 0.3470
C6_6 C 0.0074(4) 0.6612(5) 0.1559(6)
C9_6 C 0.3141(3) 0.5271(4) 0.5508(7)
C10_6 C 0.3318(5) 0.4016(5) 0.6674(7)
C11_6 C 0.3301(7) 0.3483(4) 0.6121(10)
H8_6 H 0.3652 0.3514 0.6127
H9_6 H 0.2900 0.3483 0.5478
H10_6 H 0.3342 0.3132 0.6424
C12_6 C 0.3574(4) 0.4173(4) 0.8881(6)
H11_6 H 0.3750 0.4454 0.9344
C13_6 C 0.3579(4) 0.4247(4) 0.8151(8)
H12_6 H 0.3732 0.4593 0.8117
C14_6 C 0.3381(5) 0.3853(5) 0.7507(7)
C15_6 C 0.3138(5) 0.3332(4) 0.7560(8)
H13_6 H 0.3000 0.3033 0.7135
C16_6 C 0.3119(4) 0.3291(4) 0.8282(7)
H14_6 H 0.2955 0.2954 0.8322
N1_6 N 0.2150(3) 0.6469(3) 0.3786(4)
N2_6 N 0.3114(2) 0.5593(3) 0.6103(4)
N3_6 N 0.3040(3) 0.6194(3) 0.5923(4)
N7_4 N 0.3318(3) 0.3701(3) 0.8922(5)
N8_6 N 0.3246(3) 0.4700(4) 0.5743(5)
N9_6 N 0.3305(3) 0.4510(4) 0.6531(6)
O2_6 O 0.3114(2) 0.5451(3) 0.4872(4)
Zn1_4 Zn 0.31505(4) 0.63490(4) 0.48808(6)
N11_4 N 0.4215(3) 0.6334(3) 0.6124(4)
N12_4 N 0.3318(3) 0.6299(3) 0.3922(5)
O3_4 O 0.3382(3) 0.7208(2) 0.5155(4)
H15_6 H 0.314457 0.541433 0.662503
H16_6 H 0.338287 0.641211 0.652895
H17_6 H 0.259641 0.632226 0.565957
H22_6 H 0.328178 0.441502 0.536982
C10_7 C 0.8318(5) 0.0984(5) 0.1674(7)
C11_7 C 0.8301(7) 0.1517(4) 0.1121(10)
H8_7 H 0.8652 0.1486 0.1127
H9_7 H 0.7900 0.1517 0.0478
H10_7 H 0.8342 0.1868 0.1424
C12_7 C 0.8574(4) 0.0827(4) 0.3881(6)
H11_7 H 0.8750 0.0546 0.4344
C13_7 C 0.8579(4) 0.0753(4) 0.3151(8)
H12_7 H 0.8732 0.0407 0.3117
C14_7 C 0.8381(5) 0.1147(5) 0.2507(7)
C15_7 C 0.8138(5) 0.1668(4) 0.2560(8)
H13_7 H 0.8000 0.1967 0.2135
C16_7 C 0.8119(4) 0.1709(4) 0.3282(7)
H14_7 H 0.7955 0.2046 0.3322
N8_7 N 0.8246(3) 0.0300(4) 0.0743(5)
N9_7 N 0.8305(3) 0.0490(4) 0.1531(6)
H22_7 H 0.828178 0.0584981 0.0369815
C1_7 C 0.6862(4) 0.8043(4) 0.8527(6)
H1_7 H 0.7105 0.7713 0.8840
C2_7 C 0.6200(4) 0.7991(4) 0.7796(7)
H2_7 H 0.6009 0.7630 0.7598
C3_7 C 0.5845(4) 0.8457(4) 0.7384(6)
C4_7 C 0.6143(6) 0.8975(4) 0.7635(8)
H3_7 H 0.5907 0.9310 0.7338
C5_7 C 0.6780(5) 0.8992(4) 0.8313(8)
H4_7 H 0.6981 0.9348 0.8470
C6_7 C 0.5074(4) 0.8388(5) 0.6559(6)
C7_6 C 0.4707(4) 0.8946(4) 0.6069(8)
H5_6 H 0.4365 0.8983 0.6081
H6_6 H 0.4996 0.9265 0.6393
H7_6 H 0.4529 0.8939 0.5425
C8_6 C 0.3979(5) 0.7301(4) 0.5734(6)
N1_7 N 0.7150(3) 0.8531(3) 0.8786(4)
N4_6 N 0.4438(3) 0.6876(3) 0.6303(5)
N6_6 N 0.4871(3) 0.7884(3) 0.6515(4)
N10_6 N 0.4196(3) 0.7841(3) 0.5831(5)
O2_7 O 0.8114(2) 0.9549(3) 0.9872(4)
H18_6 H 0.491276 0.696972 0.68221
H19_6 H 0.444057 0.608729 0.597143
H20_6 H 0.429813 0.617096 0.669764
H21_6 H 0.390169 0.818022 0.544916
C9_7 C 0.3141(3) 0.4729(4) 0.0508(7)
C10_8 C 0.3318(5) 0.5984(5) 0.1674(7)
C11_8 C 0.3301(7) 0.6517(4) 0.1121(10)
H8_8 H 0.3652 0.6486 0.1127
H9_8 H 0.2900 0.6517 0.0478
H10_8 H 0.3342 0.6868 0.1424
C12_8 C 0.3574(4) 0.5827(4) 0.3881(6)
H11_8 H 0.3750 0.5546 0.4344
C13_8 C 0.3579(4) 0.5753(4) 0.3151(8)
H12_8 H 0.3732 0.5407 0.3117
C14_8 C 0.3381(5) 0.6147(5) 0.2507(7)
C15_8 C 0.3138(5) 0.6668(4) 0.2560(8)
H13_8 H 0.3000 0.6967 0.2135
C16_8 C 0.3119(4) 0.6709(4) 0.3282(7)
H14_8 H 0.2955 0.7046 0.3322
N2_7 N 0.3114(2) 0.4407(3) 0.1103(4)
N3_7 N 0.3040(3) 0.3806(3) 0.0923(4)
N8_8 N 0.3246(3) 0.5300(4) 0.0743(5)
N9_8 N 0.3305(3) 0.5490(4) 0.1531(6)
H15_7 H 0.314457 0.458567 0.162503
H16_7 H 0.338287 0.358789 0.152895
H17_7 H 0.259641 0.367774 0.0659566
H22_8 H 0.328178 0.558498 0.0369815
C1_8 C 0.1862(4) 0.3043(4) 0.8527(6)
H1_8 H 0.2105 0.2713 0.8840
C2_8 C 0.1200(4) 0.2991(4) 0.7796(7)
H2_8 H 0.1009 0.2630 0.7598
C3_8 C 0.0845(4) 0.3457(4) 0.7384(6)
C4_8 C 0.1143(6) 0.3975(4) 0.7635(8)
H3_8 H 0.0907 0.4310 0.7338
C5_8 C 0.1780(5) 0.3992(4) 0.8313(8)
H4_8 H 0.1981 0.4348 0.8470
C6_8 C 0.0074(4) 0.3388(5) 0.6559(6)
N1_8 N 0.2150(3) 0.3531(3) 0.8786(4)
O2_8 O 0.3114(2) 0.4549(3) 0.9872(4)
C7_7 C 0.9707(4) 0.3946(4) 0.6069(8)
H5_7 H 0.9365 0.3983 0.6081
H6_7 H 0.9996 0.4265 0.6393
H7_7 H 0.9529 0.3939 0.5425
C8_7 C 0.8979(5) 0.2301(4) 0.5734(6)
N4_7 N 0.9438(3) 0.1876(3) 0.6303(5)
N6_7 N 0.9871(3) 0.2884(3) 0.6515(4)
N10_7 N 0.9196(3) 0.2841(3) 0.5831(5)
H18_7 H 0.991276 0.196972 0.68221
H19_7 H 0.944057 0.108729 0.597143
H20_7 H 0.929813 0.117096 0.669764
H21_7 H 0.890169 0.318022 0.544916
C7_8 C 0.9707(4) 0.6054(4) 0.1069(8)
H5_8 H 0.9365 0.6017 0.1081
H6_8 H 0.9996 0.5735 0.1393
H7_8 H 0.9529 0.6061 0.0425
C8_8 C 0.8979(5) 0.7699(4) 0.0734(6)
N4_8 N 0.9438(3) 0.8124(3) 0.1303(5)
N5_4 N 0.9215(3) 0.8666(3) 0.1124(4)
N6_8 N 0.9871(3) 0.7116(3) 0.1515(4)
N10_8 N 0.9196(3) 0.7159(3) 0.0831(5)
O1_4 O 0.8382(3) 0.7792(2) 0.0155(4)
H18_8 H 0.991276 0.803028 0.18221
H19_8 H 0.944057 0.891271 0.0971432
H20_8 H 0.929813 0.882904 0.169764
H21_8 H 0.890169 0.681978 0.0449158
C9_8 C 0.8141(3) 0.9729(4) 0.0508(7)
N2_8 N 0.8114(2) 0.9407(3) 0.1103(4)
N3_8 N 0.8040(3) 0.8806(3) 0.0923(4)
H15_8 H 0.814457 0.958567 0.162503
H16_8 H 0.838287 0.858789 0.152895
H17_8 H 0.759641 0.867774 0.0659566
N13 N 0.7007(5) 0.1677(4) 0.6236(8)
O4 O 0.6850(3) 0.1437(2) 0.5508(5)
O5 O 0.6618(4) 0.1745(4) 0.6348(5)
O6 O 0.7592(4) 0.1865(3) 0.6898(5)
N13_2 N 0.2993(5) 0.1677(4) 0.8764(8)
O4_2 O 0.3150(3) 0.1437(2) 0.9492(5)
O5_2 O 0.3382(4) 0.1745(4) 0.8652(5)
O6_2 O 0.2408(4) 0.1865(3) 0.8102(5)
N13_3 N 0.2007(5) 0.6677(4) 0.6236(8)
O4_3 O 0.1850(3) 0.6437(2) 0.5508(5)
O5_3 O 0.1618(4) 0.6745(4) 0.6348(5)
O6_3 O 0.2592(4) 0.6865(3) 0.6898(5)
N13_4 N 0.7993(5) 0.6677(4) 0.8764(8)
O4_4 O 0.8150(3) 0.6437(2) 0.9492(5)
O5_4 O 0.8382(4) 0.6745(4) 0.8652(5)
O6_4 O 0.7408(4) 0.6865(3) 0.8102(5)
N13_5 N 0.2993(5) 0.8323(4) 0.3764(8)
O4_5 O 0.3150(3) 0.8563(2) 0.4492(5)
O5_5 O 0.3382(4) 0.8255(4) 0.3652(5)
O6_5 O 0.2408(4) 0.8135(3) 0.3102(5)
N13_6 N 0.7007(5) 0.8323(4) 0.1236(8)
O4_6 O 0.6850(3) 0.8563(2) 0.0508(5)
O5_6 O 0.6618(4) 0.8255(4) 0.1348(5)
O6_6 O 0.7592(4) 0.8135(3) 0.1898(5)
N13_7 N 0.7993(5) 0.3323(4) 0.3764(8)
O4_7 O 0.8150(3) 0.3563(2) 0.4492(5)
O5_7 O 0.8382(4) 0.3255(4) 0.3652(5)
O6_7 O 0.7408(4) 0.3135(3) 0.3102(5)
N13_8 N 0.2007(5) 0.3323(4) 0.1236(8)
O4_8 O 0.1850(3) 0.3563(2) 0.0508(5)
O5_8 O 0.1618(4) 0.3255(4) 0.1348(5)
O6_8 O 0.2592(4) 0.3135(3) 0.1898(5)
N14 N 0.9375(4) 0.0973(4) 0.8350(6)
O7 O 0.9335(2) 0.1366(2) 0.7827(4)
O8 O 0.8901(3) 0.0720(3) 0.8115(4)
O9 O 0.9919(3) 0.0859(2) 0.9127(4)
N14_2 N 0.0625(4) 0.0973(4) 0.6650(6)
O7_2 O 0.0665(2) 0.1366(2) 0.7173(4)
O8_2 O 0.1099(3) 0.0720(3) 0.6885(4)
O9_2 O 0.0081(3) 0.0859(2) 0.5873(4)
N14_3 N 0.4375(4) 0.5973(4) 0.8350(6)
O7_3 O 0.4335(2) 0.6366(2) 0.7827(4)
O8_3 O 0.3901(3) 0.5720(3) 0.8115(4)
O9_3 O 0.4919(3) 0.5859(2) 0.9127(4)
N14_4 N 0.5625(4) 0.5973(4) 0.6650(6)
O7_4 O 0.5665(2) 0.6366(2) 0.7173(4)
O8_4 O 0.6099(3) 0.5720(3) 0.6885(4)
O9_4 O 0.5081(3) 0.5859(2) 0.5873(4)
N14_5 N 0.0625(4) 0.9027(4) 0.1650(6)
O7_5 O 0.0665(2) 0.8634(2) 0.2173(4)
O8_5 O 0.1099(3) 0.9280(3) 0.1885(4)
O9_5 O 0.0081(3) 0.9141(2) 0.0873(4)
N14_6 N 0.9375(4) 0.9027(4) 0.3350(6)
O7_6 O 0.9335(2) 0.8634(2) 0.2827(4)
O8_6 O 0.8901(3) 0.9280(3) 0.3115(4)
O9_6 O 0.9919(3) 0.9141(2) 0.4127(4)
N14_7 N 0.5625(4) 0.4027(4) 0.1650(6)
O7_7 O 0.5665(2) 0.3634(2) 0.2173(4)
O8_7 O 0.6099(3) 0.4280(3) 0.1885(4)
O9_7 O 0.5081(3) 0.4141(2) 0.0873(4)
N14_8 N 0.4375(4) 0.4027(4) 0.3350(6)
O7_8 O 0.4335(2) 0.3634(2) 0.2827(4)
O8_8 O 0.3901(3) 0.4280(3) 0.3115(4)
O9_8 O 0.4919(3) 0.4141(2) 0.4127(4)
loop_
_geom_bond_atom_site_label_1
_geom_bond_atom_site_label_2
_geom_bond_site_symmetry_1
_geom_bond_site_symmetry_2
C1 H1 1_555 1_555
C2 C1 1_555 1_555
H2 C2 1_555 1_555
C3 C2 1_555 1_555
C4 C3 1_555 1_555
H3 C4 1_555 1_555
C5 C4 1_555 1_555
H4 C5 1_555 1_555
C6 C3 1_555 1_555
C7 C6 1_555 1_555
H5 C7 1_555 1_555
H6 C7 1_555 1_555
H7 C7 1_555 1_555
C8 N4 1_555 1_555
N1 C1 1_555 1_555
N4 N5 1_555 1_555
N5 Zn3 1_555 1_555
N6 C6 1_555 1_555
N10 C8 1_555 1_555
O1 C8 1_555 1_555
Zn1 N1 1_555 1_555
N12 Zn1 1_555 1_555
Zn3 O1 1_555 1_555
C5 N1 1_555 1_555
N6 N10 1_555 1_555
O2 Zn1 1_555 1_555
N4 H18 1_555 1_555
N5 H19 1_555 1_555
N5 H20 1_555 1_555
N10 H21 1_555 1_555
C10 C11 1_555 1_555
C11 H8 1_555 1_555
H9 C11 1_555 1_555
H10 C11 1_555 1_555
C12 H11 1_555 1_555
C13 C12 1_555 1_555
H12 C13 1_555 1_555
C14 C10 1_555 1_555
C15 C14 1_555 1_555
H13 C15 1_555 1_555
C16 C15 1_555 1_555
H14 C16 1_555 1_555
N7 C12 1_555 1_555
N9 C10 1_555 1_555
Zn2 N7 1_555 1_555
C13 C14 1_555 1_555
C16 N7 1_555 1_555
N8 N9 1_555 1_555
N8 H22 1_555 1_555
H5_2 C7_2 1_555 1_555
H6_2 C7_2 1_555 1_555
H7_2 C7_2 1_555 1_555
C8_2 N4_2 1_555 1_555
N4_2 N5_2 1_555 1_555
N5_2 Zn2 1_555 1_555
N10_2 C8_2 1_555 1_555
O1_2 C8_2 1_555 1_555
Zn2 O1_2 1_555 1_555
N6_2 N10_2 1_555 1_555
N4_2 H18_2 1_555 1_555
N5_2 H19_2 1_555 1_555
N5_2 H20_2 1_555 1_555
N10_2 H21_2 1_555 1_555
C1_2 H1_2 1_555 1_555
C2_2 C1_2 1_555 1_555
H2_2 C2_2 1_555 1_555
C3_2 C2_2 1_555 1_555
C4_2 C3_2 1_555 1_555
H3_2 C4_2 1_555 1_555
C5_2 C4_2 1_555 1_555
H4_2 C5_2 1_555 1_555
C6_2 C3_2 1_555 1_555
N1_2 C1_2 1_555 1_555
Zn1_2 N1_2 1_555 1_555
N12_2 Zn1_2 1_555 1_555
C5_2 N1_2 1_555 1_555
O2_2 Zn1_2 1_555 1_555
C9 N2 1_555 1_555
C10_2 C11_2 1_555 1_555
C11_2 H8_2 1_555 1_555
H9_2 C11_2 1_555 1_555
H10_2 C11_2 1_555 1_555
C12_2 H11_2 1_555 1_555
C13_2 C12_2 1_555 1_555
H12_2 C13_2 1_555 1_555
C14_2 C10_2 1_555 1_555
C15_2 C14_2 1_555 1_555
H13_2 C15_2 1_555 1_555
C16_2 C15_2 1_555 1_555
H14_2 C16_2 1_555 1_555
N2 N3 1_555 1_555
N7_2 C12_2 1_555 1_555
N8_2 C9 1_555 1_555
N9_2 C10_2 1_555 1_555
Zn3 N7_2 1_555 1_555
C13_2 C14_2 1_555 1_555
C16_2 N7_2 1_555 1_555
N8_2 N9_2 1_555 1_555
N2 H15 1_555 1_555
N3 H16 1_555 1_555
N3 H17 1_555 1_555
N8_2 H22_2 1_555 1_555
C10_3 C11_3 1_555 1_555
C11_3 H8_3 1_555 1_555
H9_3 C11_3 1_555 1_555
H10_3 C11_3 1_555 1_555
C12_3 H11_3 1_555 1_555
C13_3 C12_3 1_555 1_555
H12_3 C13_3 1_555 1_555
C14_3 C10_3 1_555 1_555
C15_3 C14_3 1_555 1_555
H13_3 C15_3 1_555 1_555
C16_3 C15_3 1_555 1_555
H14_3 C16_3 1_555 1_555
N12 C12_3 1_555 1_555
N9_3 C10_3 1_555 1_555
C13_3 C14_3 1_555 1_555
C16_3 N12 1_555 1_555
N8_3 N9_3 1_555 1_555
N8_3 H22_3 1_555 1_555
C1_3 H1_3 1_555 1_555
C2_3 C1_3 1_555 1_555
H2_3 C2_3 1_555 1_555
C3_3 C2_3 1_555 1_555
C4_3 C3_3 1_555 1_555
H3_3 C4_3 1_555 1_555
C5_3 C4_3 1_555 1_555
H4_3 C5_3 1_555 1_555
C6_3 C3_3 1_555 1_555
C7_3 C6_3 1_555 1_555
H5_3 C7_3 1_555 1_555
H6_3 C7_3 1_555 1_555
H7_3 C7_3 1_555 1_555
C8_3 N4_3 1_555 1_555
C9_2 N2_2 1_555 1_555
N1_3 C1_3 1_555 1_555
N2_2 N3_2 1_555 1_555
N3_2 Zn2 1_555 1_555
N4_3 N11 1_555 1_555
N6_3 C6_3 1_555 1_555
N10_3 C8_3 1_555 1_555
O3 C8_3 1_555 1_555
O2_3 C9_2 1_555 1_555
Zn2 N1_3 1_555 1_555
C5_3 N1_3 1_555 1_555
N6_3 N10_3 1_555 1_555
O2_3 Zn2 1_555 1_555
N2_2 H15_2 1_555 1_555
N3_2 H16_2 1_555 1_555
N3_2 H17_2 1_555 1_555
N4_3 H18_3 1_555 1_555
N11 H19_3 1_555 1_555
N11 H20_3 1_555 1_555
N10_3 H21_3 1_555 1_555
C1_4 H1_4 1_555 1_555
C2_4 C1_4 1_555 1_555
H2_4 C2_4 1_555 1_555
C3_4 C2_4 1_555 1_555
C4_4 C3_4 1_555 1_555
H3_4 C4_4 1_555 1_555
C5_4 C4_4 1_555 1_555
H4_4 C5_4 1_555 1_555
C6_4 C3_4 1_555 1_555
C9_3 N2_3 1_555 1_555
C10_4 C11_4 1_555 1_555
C11_4 H8_4 1_555 1_555
H9_4 C11_4 1_555 1_555
H10_4 C11_4 1_555 1_555
C12_4 H11_4 1_555 1_555
C13_4 C12_4 1_555 1_555
H12_4 C13_4 1_555 1_555
C14_4 C10_4 1_555 1_555
C15_4 C14_4 1_555 1_555
H13_4 C15_4 1_555 1_555
C16_4 C15_4 1_555 1_555
H14_4 C16_4 1_555 1_555
N1_4 C1_4 1_555 1_555
N2_3 N3_3 1_555 1_555
N3_3 Zn3 1_555 1_555
N12_2 C12_4 1_555 1_555
N8_4 C9_3 1_555 1_555
N9_4 C10_4 1_555 1_555
O2_4 C9_3 1_555 1_555
Zn3 N1_4 1_555 1_555
C5_4 N1_4 1_555 1_555
C13_4 C14_4 1_555 1_555
C16_4 N12_2 1_555 1_555
N8_4 N9_4 1_555 1_555
O2_4 Zn3 1_555 1_555
N2_3 H15_3 1_555 1_555
N3_3 H16_3 1_555 1_555
N3_3 H17_3 1_555 1_555
N8_4 H22_4 1_555 1_555
C9_4 N2_4 1_555 1_555
N2_4 N3_4 1_555 1_555
N2_4 H15_4 1_555 1_555
N3_4 H16_4 1_555 1_555
N3_4 H17_4 1_555 1_555
H5_4 C7_4 1_555 1_555
H6_4 C7_4 1_555 1_555
H7_4 C7_4 1_555 1_555
C8_4 N4_4 1_555 1_555
N4_4 N11_2 1_555 1_555
N10_4 C8_4 1_555 1_555
O3_2 C8_4 1_555 1_555
N6_4 N10_4 1_555 1_555
N4_4 H18_4 1_555 1_555
N11_2 H19_4 1_555 1_555
N11_2 H20_4 1_555 1_555
N10_4 H21_4 1_555 1_555
C1_5 H1_5 1_555 1_555
C2_5 C1_5 1_555 1_555
H2_5 C2_5 1_555 1_555
C3_5 C2_5 1_555 1_555
C4_5 C3_5 1_555 1_555
H3_5 C4_5 1_555 1_555
C5_5 C4_5 1_555 1_555
H4_5 C5_5 1_555 1_555
C6_5 C3_5 1_555 1_555
C7_5 C6_5 1_555 1_555
H5_5 C7_5 1_555 1_555
H6_5 C7_5 1_555 1_555
H7_5 C7_5 1_555 1_555
C8_5 N4_5 1_555 1_555
C9_5 N2_5 1_555 1_555
N1_5 C1_5 1_555 1_555
N2_5 N3_5 1_555 1_555
N3_5 Zn1_3 1_555 1_555
N4_5 N5_3 1_555 1_555
N6_5 C6_5 1_555 1_555
N10_5 C8_5 1_555 1_555
O1_3 C8_5 1_555 1_555
O2_5 C9_5 1_555 1_555
Zn1_3 N1_5 1_555 1_555
N11_3 Zn1_3 1_555 1_555
N12_3 Zn1_3 1_555 1_555
O3_3 Zn1_3 1_555 1_555
C5_5 N1_5 1_555 1_555
N6_5 N10_5 1_555 1_555
O2_5 Zn1_3 1_555 1_555
N2_5 H15_5 1_555 1_555
N3_5 H16_5 1_555 1_555
N3_5 H17_5 1_555 1_555
N4_5 H18_5 1_555 1_555
N5_3 H19_5 1_555 1_555
N5_3 H20_5 1_555 1_555
N10_5 H21_5 1_555 1_555
C10_5 C11_5 1_555 1_555
C11_5 H8_5 1_555 1_555
H9_5 C11_5 1_555 1_555
H10_5 C11_5 1_555 1_555
C12_5 H11_5 1_555 1_555
C13_5 C12_5 1_555 1_555
H12_5 C13_5 1_555 1_555
C14_5 C10_5 1_555 1_555
C15_5 C14_5 1_555 1_555
H13_5 C15_5 1_555 1_555
C16_5 C15_5 1_555 1_555
H14_5 C16_5 1_555 1_555
N7_3 C12_5 1_555 1_555
N9_5 C10_5 1_555 1_555
Zn2_2 N7_3 1_555 1_555
C13_5 C14_5 1_555 1_555
C16_5 N7_3 1_555 1_555
N8_5 N9_5 1_555 1_555
N8_5 H22_5 1_555 1_555
C1_6 H1_6 1_555 1_555
C2_6 C1_6 1_555 1_555
H2_6 C2_6 1_555 1_555
C3_6 C2_6 1_555 1_555
C4_6 C3_6 1_555 1_555
H3_6 C4_6 1_555 1_555
C5_6 C4_6 1_555 1_555
H4_6 C5_6 1_555 1_555
C6_6 C3_6 1_555 1_555
C9_6 N2_6 1_555 1_555
C10_6 C11_6 1_555 1_555
C11_6 H8_6 1_555 1_555
H9_6 C11_6 1_555 1_555
H10_6 C11_6 1_555 1_555
C12_6 H11_6 1_555 1_555
C13_6 C12_6 1_555 1_555
H12_6 C13_6 1_555 1_555
C14_6 C10_6 1_555 1_555
C15_6 C14_6 1_555 1_555
H13_6 C15_6 1_555 1_555
C16_6 C15_6 1_555 1_555
H14_6 C16_6 1_555 1_555
N1_6 C1_6 1_555 1_555
N2_6 N3_6 1_555 1_555
N3_6 Zn1_4 1_555 1_555
N7_4 C12_6 1_555 1_555
N8_6 C9_6 1_555 1_555
N9_6 C10_6 1_555 1_555
O2_6 C9_6 1_555 1_555
Zn1_4 N1_6 1_555 1_555
N11_4 Zn1_4 1_555 1_555
N12_4 Zn1_4 1_555 1_555
O3_4 Zn1_4 1_555 1_555
Zn3_2 N7_4 1_555 1_555
C5_6 N1_6 1_555 1_555
C13_6 C14_6 1_555 1_555
C16_6 N7_4 1_555 1_555
N8_6 N9_6 1_555 1_555
O2_6 Zn1_4 1_555 1_555
N2_6 H15_6 1_555 1_555
N3_6 H16_6 1_555 1_555
N3_6 H17_6 1_555 1_555
N8_6 H22_6 1_555 1_555
C10_7 C11_7 1_555 1_555
C11_7 H8_7 1_555 1_555
H9_7 C11_7 1_555 1_555
H10_7 C11_7 1_555 1_555
C12_7 H11_7 1_555 1_555
C13_7 C12_7 1_555 1_555
H12_7 C13_7 1_555 1_555
C14_7 C10_7 1_555 1_555
C15_7 C14_7 1_555 1_555
H13_7 C15_7 1_555 1_555
C16_7 C15_7 1_555 1_555
H14_7 C16_7 1_555 1_555
N12_3 C12_7 1_555 1_555
N9_7 C10_7 1_555 1_555
C13_7 C14_7 1_555 1_555
C16_7 N12_3 1_555 1_555
N8_7 N9_7 1_555 1_555
N8_7 H22_7 1_555 1_555
C1_7 H1_7 1_555 1_555
C2_7 C1_7 1_555 1_555
H2_7 C2_7 1_555 1_555
C3_7 C2_7 1_555 1_555
C4_7 C3_7 1_555 1_555
H3_7 C4_7 1_555 1_555
C5_7 C4_7 1_555 1_555
H4_7 C5_7 1_555 1_555
C6_7 C3_7 1_555 1_555
C7_6 C6_7 1_555 1_555
H5_6 C7_6 1_555 1_555
H6_6 C7_6 1_555 1_555
H7_6 C7_6 1_555 1_555
C8_6 N4_6 1_555 1_555
N1_7 C1_7 1_555 1_555
N4_6 N11_4 1_555 1_555
N6_6 C6_7 1_555 1_555
N10_6 C8_6 1_555 1_555
O3_4 C8_6 1_555 1_555
Zn2_2 N1_7 1_555 1_555
C5_7 N1_7 1_555 1_555
N6_6 N10_6 1_555 1_555
O2_7 Zn2_2 1_555 1_555
N4_6 H18_6 1_555 1_555
N11_4 H19_6 1_555 1_555
N11_4 H20_6 1_555 1_555
N10_6 H21_6 1_555 1_555
C9_7 N2_7 1_555 1_555
C10_8 C11_8 1_555 1_555
C11_8 H8_8 1_555 1_555
H9_8 C11_8 1_555 1_555
H10_8 C11_8 1_555 1_555
C12_8 H11_8 1_555 1_555
C13_8 C12_8 1_555 1_555
H12_8 C13_8 1_555 1_555
C14_8 C10_8 1_555 1_555
C15_8 C14_8 1_555 1_555
H13_8 C15_8 1_555 1_555
C16_8 C15_8 1_555 1_555
H14_8 C16_8 1_555 1_555
N2_7 N3_7 1_555 1_555
N12_4 C12_8 1_555 1_555
N8_8 C9_7 1_555 1_555
N9_8 C10_8 1_555 1_555
C13_8 C14_8 1_555 1_555
C16_8 N12_4 1_555 1_555
N8_8 N9_8 1_555 1_555
N2_7 H15_7 1_555 1_555
N3_7 H16_7 1_555 1_555
N3_7 H17_7 1_555 1_555
N8_8 H22_8 1_555 1_555
C1_8 H1_8 1_555 1_555
C2_8 C1_8 1_555 1_555
H2_8 C2_8 1_555 1_555
C3_8 C2_8 1_555 1_555
C4_8 C3_8 1_555 1_555
H3_8 C4_8 1_555 1_555
C5_8 C4_8 1_555 1_555
H4_8 C5_8 1_555 1_555
C6_8 C3_8 1_555 1_555
N1_8 C1_8 1_555 1_555
Zn3_2 N1_8 1_555 1_555
C5_8 N1_8 1_555 1_555
O2_8 Zn3_2 1_555 1_555
H5_7 C7_7 1_555 1_555
H6_7 C7_7 1_555 1_555
H7_7 C7_7 1_555 1_555
C8_7 N4_7 1_555 1_555
N4_7 N11_3 1_555 1_555
N10_7 C8_7 1_555 1_555
O3_3 C8_7 1_555 1_555
N6_7 N10_7 1_555 1_555
N4_7 H18_7 1_555 1_555
N11_3 H19_7 1_555 1_555
N11_3 H20_7 1_555 1_555
N10_7 H21_7 1_555 1_555
H5_8 C7_8 1_555 1_555
H6_8 C7_8 1_555 1_555
H7_8 C7_8 1_555 1_555
C8_8 N4_8 1_555 1_555
N4_8 N5_4 1_555 1_555
N10_8 C8_8 1_555 1_555
O1_4 C8_8 1_555 1_555
N6_8 N10_8 1_555 1_555
N4_8 H18_8 1_555 1_555
N5_4 H19_8 1_555 1_555
N5_4 H20_8 1_555 1_555
N10_8 H21_8 1_555 1_555
C9_8 N2_8 1_555 1_555
N2_8 N3_8 1_555 1_555
N2_8 H15_8 1_555 1_555
N3_8 H16_8 1_555 1_555
N3_8 H17_8 1_555 1_555
N13 O4 1_555 1_555
O5 N13 1_555 1_555
O6 N13 1_555 1_555
N13_2 O4_2 1_555 1_555
O5_2 N13_2 1_555 1_555
O6_2 N13_2 1_555 1_555
N13_3 O4_3 1_555 1_555
O5_3 N13_3 1_555 1_555
O6_3 N13_3 1_555 1_555
N13_4 O4_4 1_555 1_555
O5_4 N13_4 1_555 1_555
O6_4 N13_4 1_555 1_555
N13_5 O4_5 1_555 1_555
O5_5 N13_5 1_555 1_555
O6_5 N13_5 1_555 1_555
N13_6 O4_6 1_555 1_555
O5_6 N13_6 1_555 1_555
O6_6 N13_6 1_555 1_555
N13_7 O4_7 1_555 1_555
O5_7 N13_7 1_555 1_555
O6_7 N13_7 1_555 1_555
N13_8 O4_8 1_555 1_555
O5_8 N13_8 1_555 1_555
O6_8 N13_8 1_555 1_555
N14 O7 1_555 1_555
O8 N14 1_555 1_555
O9 N14 1_555 1_555
N14_2 O7_2 1_555 1_555
O8_2 N14_2 1_555 1_555
O9_2 N14_2 1_555 1_555
N14_3 O7_3 1_555 1_555
O8_3 N14_3 1_555 1_555
O9_3 N14_3 1_555 1_555
N14_4 O7_4 1_555 1_555
O8_4 N14_4 1_555 1_555
O9_4 N14_4 1_555 1_555
N14_5 O7_5 1_555 1_555
O8_5 N14_5 1_555 1_555
O9_5 N14_5 1_555 1_555
N14_6 O7_6 1_555 1_555
O8_6 N14_6 1_555 1_555
O9_6 N14_6 1_555 1_555
N14_7 O7_7 1_555 1_555
O8_7 N14_7 1_555 1_555
O9_7 N14_7 1_555 1_555
N14_8 O7_8 1_555 1_555
O8_8 N14_8 1_555 1_555
O9_8 N14_8 1_555 1_555

#END
