
###############################################################################
#
# This file contains modified crystal structure data generated from the
# MOF subset of the Cambridge Structural Database (CSD) v543 
# hosted by the Cambridge Crystallographic Data Centre (CCDC).
#
# This work is licensed under the Creative Commons
# Attribution-NonCommercial-ShareAlike 4.0 International License.
# To view a copy of this license, visit
# http://creativecommons.org/licenses/by-nc-sa/4.0/
# or send a letter to
# Creative Commons, PO Box 1866, Mountain View, CA 94042, USA.
#
# CIF created using the CSD Python API on 29 September 2022
# The structure has been converted into the P1 space group
# The structure has a 3D framework
# The original CSD entry CUCFEN is in the monoclinic crystal system
# The framework has been calculated to contain at least 10.0% void space
# The void calculation uses a probe of radius 1.32A, grid spacing 0.4
# H atom positions have been added when not included in the experimental data
# Generated hydrogen atom positions removed from atoms on special positions
#
###############################################################################

data_CUCFEN
_chemical_formula_moiety         '(C128 H154 Dy28 Na8 O170 S16)n'
_symmetry_cell_setting           triclinic
_symmetry_space_group_name_H-M   'P 1'
_symmetry_Int_Tables_number      1
_space_group_name_Hall           'P 1'
loop_
_symmetry_equiv_pos_site_id
_symmetry_equiv_pos_as_xyz
1 x,y,z
_cell_length_a                   26.953(3)
_cell_length_b                   17.962(2)
_cell_length_c                   13.8757(17)
_cell_angle_alpha                90
_cell_angle_beta                 119.110(2)
_cell_angle_gamma                90
_cell_volume                     5869.12
loop_
_atom_site_label
_atom_site_type_symbol
_atom_site_fract_x
_atom_site_fract_y
_atom_site_fract_z
Dy1 Dy 0.47745(3) -0.0000 0.33997(6)
O2 O 0.4700(4) -0.0000 0.1588(8)
O4 O 0.3823(5) -0.0000 0.3186(11)
Dy2 Dy 0.63278(3) -0.0000 0.41307(5)
H2 H 0.4363 -0.0000 0.1049
O7 O 0.5825(4) -0.0000 0.2118(8)
O8 O 0.7399(4) -0.0000 0.5194(9)
O9 O 0.6489(3) 0.0823(4) 0.5581(6)
H3 H 0.6038 -0.0000 0.1825
O26 O 0.4279(3) 0.1119(5) 0.2731(6)
O27 O 0.5505(3) 0.0759(4) 0.3435(6)
O28 O 0.5000 0.0795(13) 0.5000
Dy5 Dy 0.522827(19) 0.10430(3) 0.15881(4)
Dy6 Dy 0.52255(3) -0.0000 0.66003(6)
O30 O 0.6711(3) 0.1033(5) 0.3750(6)
Na3 Na 0.6369(5) -0.0000 0.0593(11)
H22 H 0.754087 0.051731 0.525233
H24 H 0.371222 0.0517465 0.324891
Na1 Na 0.3631(5) -0.0000 0.9407(11)
O32 O 0.4175(4) -0.0000 0.7882(8)
Dy9 Dy 0.36722(3) -0.0000 0.58693(5)
O33 O 0.5300(4) -0.0000 0.8412(8)
Dy1_2 Dy 0.47745(3) 1.0000 0.33997(6)
O1 O 0.5505(3) 0.9241(4) 0.3435(6)
O2_2 O 0.4700(4) 1.0000 0.1588(8)
O3 O 0.5000 0.9205(13) 0.5000
O4_2 O 0.3823(5) 1.0000 0.3186(11)
O5 O 0.4279(3) 0.8881(5) 0.2731(6)
Dy2_2 Dy 0.63278(3) 1.0000 0.41307(5)
Dy3 Dy 0.522827(19) 0.89570(3) 0.15881(4)
H1 H 0.5564 0.8847 0.3814
H2_2 H 0.4363 1.0000 0.1049
C1 C 0.4126(4) 0.8416(6) 0.1978(8)
O6 O 0.6711(3) 0.8967(5) 0.3750(6)
O7_2 O 0.5825(4) 1.0000 0.2118(8)
O8_2 O 0.7399(4) 1.0000 0.5194(9)
O10 O 0.6160(3) 0.8303(4) 0.2238(6)
O11 O 0.5519(3) 0.8906(4) 0.0242(5)
O12 O 0.5147(3) 0.7705(4) 0.1058(6)
O13 O 0.4354(3) 0.8330(4) 0.1363(6)
C2 C 0.3615(4) 0.7936(6) 0.1744(8)
C3 C 0.6620(4) 0.8419(7) 0.3115(9)
H3_2 H 0.6038 1.0000 0.1825
Dy4 Dy 0.57810(2) 0.76525(3) 0.03659(5)
H4 H 0.5771 0.9229 0.0346
H5 H 0.5209 0.7365 0.1529
C4 C 0.3615(4) 0.7172(7) 0.1687(9)
C5 C 0.3134(4) 0.8325(6) 0.1616(8)
C6 C 0.7106(4) 0.7907(6) 0.3430(8)
O14 O 0.6147(3) 0.6671(5) 0.1632(6)
O16 O 0.6680(3) 0.7923(5) 0.0823(7)
S1 S 0.42008(13) 0.66477(19) 0.1808(3)
C7 C 0.3123(5) 0.6776(7) 0.1479(9)
H6 H 0.3141 0.8851 0.1689
C8 C 0.2649(4) 0.7920(7) 0.1379(8)
C9 C 0.7639(5) 0.8209(6) 0.3820(9)
C10 C 0.7061(4) 0.7133(6) 0.3349(9)
S2 S 0.64155(12) 0.66337(19) 0.2864(3)
Na2 Na 0.6283(4) 0.5000 0.1705(7)
O17 O 0.4711(4) 0.6996(6) 0.2665(7)
O18 O 0.4110(4) 0.5889(5) 0.2039(10)
C11 C 0.2644(4) 0.7162(6) 0.1323(9)
H7 H 0.3118 0.6247 0.1445
H8 H 0.2314 0.8177 0.1254
C12 C 0.8121(4) 0.7788(6) 0.4130(9)
H9 H 0.7677 0.8736 0.3878
C13 C 0.7546(5) 0.6688(7) 0.3661(9)
O19 O 0.6073(3) 0.6987(6) 0.3278(7)
O20 O 0.6567(4) 0.5884(5) 0.3227(8)
O21 O 0.5345(7) 0.5000 0.1517(16)
O22 O 0.7224(7) 0.5000 0.1948(14)
C14 C 0.2120(4) 0.6713(7) 0.1041(9)
H10 H 0.8478 0.8023 0.4379
C15 C 0.8079(5) 0.7026(6) 0.4075(8)
H11 H 0.7512 0.6162 0.3591
O24 O 0.2149(4) 0.6023(5) 0.1054(9)
C16 C 0.8598(5) 0.6530(6) 0.4461(9)
O25 O 0.9069(3) 0.6809(5) 0.4801(7)
Dy6_2 Dy 0.52255(3) 1.0000 0.66003(6)
O29 O 0.6489(3) 0.9177(4) 0.5581(6)
Na3_2 Na 0.6369(5) 1.0000 0.0593(11)
O39 O 0.4164(3) 0.6706(5) 0.0705(7)
O43 O 0.6147(3) 0.3329(5) 0.1632(6)
O44 O 0.6567(4) 0.4116(5) 0.3227(8)
O49 O 0.1680(3) 0.7077(5) 0.0823(7)
Dy11 Dy 0.07810(2) 0.73475(3) 0.03659(5)
Na5 Na 0.1369(5) 0.5000 0.0593(11)
O50 O 0.8511(3) 0.5823(4) 0.4419(6)
Dy12 Dy 0.86722(3) 0.5000 0.58693(5)
O59 O 0.9700(4) 0.5000 0.1588(8)
H21 H 0.754841 0.968618 0.480339
H23 H 0.381787 0.968721 0.377117
Na1_2 Na 0.3631(5) 1.0000 0.9407(11)
O15 O 0.5836(3) 0.6706(5) 0.9295(7)
O23 O 0.5898(6) 0.5000 0.9818(11)
O31 O 0.4481(3) 0.8906(4) 0.9758(5)
O32_2 O 0.4175(4) 1.0000 0.7882(8)
Dy7 Dy 0.477173(19) 0.89570(3) 0.84119(4)
Dy8 Dy 0.42190(2) 0.76525(3) 0.96341(5)
H12 H 0.4229 0.9229 0.9654
Dy9_2 Dy 0.36722(3) 1.0000 0.58693(5)
O33_2 O 0.5300(4) 1.0000 0.8412(8)
O34 O 0.5646(3) 0.8330(4) 0.8637(6)
O35 O 0.4853(3) 0.7705(4) 0.8942(6)
O36 O 0.3840(3) 0.8303(4) 0.7762(6)
O37 O 0.4495(3) 0.9241(4) 0.6565(6)
O38 O 0.3853(3) 0.6671(5) 0.8368(6)
O40 O 0.3320(3) 0.7923(5) 0.9177(7)
O41 O 0.3289(3) 0.8967(5) 0.6250(6)
C17 C 0.5874(4) 0.8416(6) 0.8022(8)
S3 S 0.57992(13) 0.66477(19) 0.8192(3)
H13 H 0.4791 0.7365 0.8471
C18 C 0.3380(4) 0.8419(7) 0.6885(9)
H14 H 0.4436 0.8847 0.6186
S4 S 0.35845(12) 0.66337(19) 0.7136(3)
Na4 Na 0.3717(4) 0.5000 0.8295(7)
O42 O 0.5721(3) 0.8881(5) 0.7269(6)
C19 C 0.6385(4) 0.7936(6) 0.8256(8)
O45 O 0.5289(4) 0.6996(6) 0.7335(7)
O46 O 0.5890(4) 0.5889(5) 0.7961(10)
C20 C 0.6385(4) 0.7172(7) 0.8313(9)
C21 C 0.2894(4) 0.7907(6) 0.6570(8)
O47 O 0.3927(3) 0.6987(6) 0.6722(7)
O48 O 0.3433(4) 0.5884(5) 0.6773(8)
C22 C 0.2939(4) 0.7133(6) 0.6651(9)
C23 C 0.6866(4) 0.8325(6) 0.8384(8)
C24 C 0.6877(5) 0.6776(7) 0.8521(9)
C25 C 0.2361(5) 0.8209(6) 0.6180(9)
C26 C 0.2454(5) 0.6688(7) 0.6339(9)
H15 H 0.6859 0.8851 0.8311
C27 C 0.7351(4) 0.7920(7) 0.8621(8)
C28 C 0.7356(4) 0.7162(6) 0.8677(9)
H16 H 0.6882 0.6247 0.8555
C29 C 0.1879(4) 0.7788(6) 0.5870(9)
H17 H 0.2323 0.8736 0.6122
H18 H 0.2488 0.6162 0.6409
C30 C 0.1921(5) 0.7026(6) 0.5925(8)
H19 H 0.7686 0.8177 0.8746
C31 C 0.7880(4) 0.6713(7) 0.8959(9)
H20 H 0.1522 0.8023 0.5621
C32 C 0.1402(5) 0.6530(6) 0.5539(9)
O51 O 0.8320(3) 0.7077(5) 0.9177(7)
O52 O 0.7851(4) 0.6023(5) 0.8946(9)
O53 O 0.1489(3) 0.5823(4) 0.5581(6)
O54 O 0.0931(3) 0.6809(5) 0.5199(7)
Dy13 Dy 0.92190(2) 0.73475(3) 0.96341(5)
Na6 Na 0.8631(5) 0.5000 0.9407(11)
Dy14 Dy 0.13278(3) 0.5000 0.41307(5)
O55 O 0.9481(3) 0.6094(4) 0.9758(5)
O56 O 0.7851(4) 0.3977(5) 0.8946(9)
O57 O 0.9481(3) 0.3906(4) 0.9758(5)
O58 O 0.9175(4) 0.5000 0.7882(8)
O4_3 O 0.6177(5) -0.0000 0.6814(11)
H2_3 H 0.5637 -0.0000 0.8951
O8_3 O 0.2601(4) -0.0000 0.4806(9)
O9_2 O 0.3511(3) 0.0823(4) 0.4419(6)
H3_3 H 0.3962 -0.0000 0.8175
O26_2 O 0.5721(3) 0.1119(5) 0.7269(6)
O27_2 O 0.4495(3) 0.0759(4) 0.6565(6)
Dy5_2 Dy 0.477173(19) 0.10430(3) 0.84119(4)
O30_2 O 0.3289(3) 0.1033(5) 0.6250(6)
H22_2 H 0.245913 0.051731 0.474767
H24_2 H 0.628778 0.0517465 0.675109
O23_2 O 0.4102(6) 0.5000 0.0182(11)
O55_2 O 0.0519(3) 0.6094(4) 0.0242(5)
O56_2 O 0.2149(4) 0.3977(5) 0.1054(9)
O57_2 O 0.0519(3) 0.3906(4) 0.0242(5)
O58_2 O 0.0825(4) 0.5000 0.2118(8)
O4_4 O 0.6177(5) 1.0000 0.6814(11)
H2_4 H 0.5637 1.0000 0.8951
O8_4 O 0.2601(4) 1.0000 0.4806(9)
H3_4 H 0.3962 1.0000 0.8175
O21_2 O 0.4655(7) 0.5000 0.8483(16)
O22_2 O 0.2776(7) 0.5000 0.8052(14)
O29_2 O 0.3511(3) 0.9177(4) 0.4419(6)
O43_2 O 0.3853(3) 0.3329(5) 0.8368(6)
O44_2 O 0.3433(4) 0.4116(5) 0.6773(8)
O59_2 O 0.0300(4) 0.5000 0.8412(8)
H21_2 H 0.245159 0.968618 0.519661
H23_2 H 0.618213 0.968721 0.622883
O1_2 O 0.0505(3) 0.4241(4) 0.3435(6)
O3_2 O -0.0000 0.4205(13) 0.5000
Dy3_2 Dy 0.022827(19) 0.39570(3) 0.15881(4)
H1_2 H 0.0564 0.3847 0.3814
O6_2 O 0.1711(3) 0.3967(5) 0.3750(6)
O8_5 O 0.2399(4) 0.5000 0.5194(9)
O10_2 O 0.1160(3) 0.3303(4) 0.2238(6)
O12_2 O 0.0147(3) 0.2705(4) 0.1058(6)
C3_2 C 0.1620(4) 0.3419(7) 0.3115(9)
H3_5 H 0.1038 0.5000 0.1825
Dy4_2 Dy 0.07810(2) 0.26525(3) 0.03659(5)
H4_2 H 0.0771 0.4229 0.0346
H5_2 H 0.0209 0.2365 0.1529
C6_2 C 0.2106(4) 0.2907(6) 0.3430(8)
O14_2 O 0.1147(3) 0.1671(5) 0.1632(6)
O16_2 O 0.1680(3) 0.2923(5) 0.0823(7)
C9_2 C 0.2639(5) 0.3209(6) 0.3820(9)
C10_2 C 0.2061(4) 0.2133(6) 0.3349(9)
S2_2 S 0.14155(12) 0.16337(19) 0.2864(3)
Na2_2 Na 0.1283(4) -0.0000 0.1705(7)
C12_2 C 0.3121(4) 0.2788(6) 0.4130(9)
H9_2 H 0.2677 0.3736 0.3878
C13_2 C 0.2546(5) 0.1688(7) 0.3661(9)
O19_2 O 0.1073(3) 0.1987(6) 0.3278(7)
O20_2 O 0.1567(4) 0.0884(5) 0.3227(8)
O21_3 O 0.0345(7) -0.0000 0.1517(16)
O22_3 O 0.2224(7) -0.0000 0.1948(14)
H10_2 H 0.3478 0.3023 0.4379
C15_2 C 0.3079(5) 0.2026(6) 0.4075(8)
H11_2 H 0.2512 0.1162 0.3591
C16_2 C 0.3598(5) 0.1530(6) 0.4461(9)
O25_2 O 0.4069(3) 0.1809(5) 0.4801(7)
O27_3 O 0.0505(3) 0.5759(4) 0.3435(6)
O28_2 O -0.0000 0.5795(13) 0.5000
Dy5_3 Dy 0.022827(19) 0.60430(3) 0.15881(4)
Dy6_3 Dy 0.02255(3) 0.5000 0.66003(6)
O29_3 O 0.1489(3) 0.4177(4) 0.5581(6)
O30_3 O 0.1711(3) 0.6033(5) 0.3750(6)
H25 H 0.248222 0.02679 0.263904
H29 H 0.00764351 0.025182 0.0818082
O15_2 O 0.0836(3) 0.1706(5) 0.9295(7)
O23_3 O 0.0898(6) -0.0000 0.9818(11)
O34_2 O 0.0646(3) 0.3330(4) 0.8637(6)
C17_2 C 0.0874(4) 0.3416(6) 0.8022(8)
S3_2 S 0.07992(13) 0.16477(19) 0.8192(3)
O42_2 O 0.0721(3) 0.3881(5) 0.7269(6)
C19_2 C 0.1385(4) 0.2936(6) 0.8256(8)
O45_2 O 0.0289(4) 0.1996(6) 0.7335(7)
O46_2 O 0.0890(4) 0.0889(5) 0.7961(10)
C20_2 C 0.1385(4) 0.2172(7) 0.8313(9)
C23_2 C 0.1866(4) 0.3325(6) 0.8384(8)
C24_2 C 0.1877(5) 0.1776(7) 0.8521(9)
H15_2 H 0.1859 0.3851 0.8311
C27_2 C 0.2351(4) 0.2920(7) 0.8621(8)
C28_2 C 0.2356(4) 0.2162(6) 0.8677(9)
H16_2 H 0.1882 0.1247 0.8555
H19_2 H 0.2686 0.3177 0.8746
C31_2 C 0.2880(4) 0.1713(7) 0.8959(9)
O51_2 O 0.3320(3) 0.2077(5) 0.9177(7)
O52_2 O 0.2851(4) 0.1023(5) 0.8946(9)
Dy13_2 Dy 0.42190(2) 0.23475(3) 0.96341(5)
O55_3 O 0.4481(3) 0.1094(4) 0.9758(5)
H27 H 0.113752 0.0307644 0.961041
Na2_3 Na 0.1283(4) 1.0000 0.1705(7)
O21_4 O 0.0345(7) 1.0000 0.1517(16)
O22_4 O 0.2224(7) 1.0000 0.1948(14)
O43_3 O 0.1147(3) 0.8329(5) 0.1632(6)
O44_3 O 0.1567(4) 0.9116(5) 0.3227(8)
H26 H 0.235672 0.947885 0.199409
H30 H 0.0219374 0.947888 0.150609
O23_4 O 0.0898(6) 1.0000 0.9818(11)
O56_3 O 0.2851(4) 0.8977(5) 0.8946(9)
H28 H 0.0881884 0.948181 0.955494
Dy1_3 Dy 0.97745(3) 0.5000 0.33997(6)
O3_3 O 1.0000 0.4205(13) 0.5000
O4_5 O 0.8823(5) 0.5000 0.3186(11)
O5_2 O 0.9279(3) 0.3881(5) 0.2731(6)
H2_5 H 0.9363 0.5000 0.1049
C1_2 C 0.9126(4) 0.3416(6) 0.1978(8)
O13_2 O 0.9354(3) 0.3330(4) 0.1363(6)
C2_2 C 0.8615(4) 0.2936(6) 0.1744(8)
C4_2 C 0.8615(4) 0.2172(7) 0.1687(9)
C5_2 C 0.8134(4) 0.3325(6) 0.1616(8)
S1_2 S 0.92008(13) 0.16477(19) 0.1808(3)
C7_2 C 0.8123(5) 0.1776(7) 0.1479(9)
H6_2 H 0.8141 0.3851 0.1689
C8_2 C 0.7649(4) 0.2920(7) 0.1379(8)
O17_2 O 0.9711(4) 0.1996(6) 0.2665(7)
O18_2 O 0.9110(4) 0.0889(5) 0.2039(10)
C11_2 C 0.7644(4) 0.2162(6) 0.1323(9)
H7_2 H 0.8118 0.1247 0.1445
H8_2 H 0.7314 0.3177 0.1254
C14_2 C 0.7120(4) 0.1713(7) 0.1041(9)
O24_2 O 0.7149(4) 0.1023(5) 0.1054(9)
O26_3 O 0.9279(3) 0.6119(5) 0.2731(6)
O28_3 O 1.0000 0.5795(13) 0.5000
O39_2 O 0.9164(3) 0.1706(5) 0.0705(7)
O49_2 O 0.6680(3) 0.2077(5) 0.0823(7)
Dy11_2 Dy 0.57810(2) 0.23475(3) 0.03659(5)
Dy7_2 Dy 0.977173(19) 0.39570(3) 0.84119(4)
Dy8_2 Dy 0.92190(2) 0.26525(3) 0.96341(5)
H12_2 H 0.9229 0.4229 0.9654
O35_2 O 0.9853(3) 0.2705(4) 0.8942(6)
O36_2 O 0.8840(3) 0.3303(4) 0.7762(6)
O37_2 O 0.9495(3) 0.4241(4) 0.6565(6)
O38_2 O 0.8853(3) 0.1671(5) 0.8368(6)
O40_2 O 0.8320(3) 0.2923(5) 0.9177(7)
O41_2 O 0.8289(3) 0.3967(5) 0.6250(6)
H13_2 H 0.9791 0.2365 0.8471
C18_2 C 0.8380(4) 0.3419(7) 0.6885(9)
H14_2 H 0.9436 0.3847 0.6186
S4_2 S 0.85845(12) 0.16337(19) 0.7136(3)
Na4_2 Na 0.8717(4) -0.0000 0.8295(7)
C21_2 C 0.7894(4) 0.2907(6) 0.6570(8)
O47_2 O 0.8927(3) 0.1987(6) 0.6722(7)
O48_2 O 0.8433(4) 0.0884(5) 0.6773(8)
C22_2 C 0.7939(4) 0.2133(6) 0.6651(9)
C25_2 C 0.7361(5) 0.3209(6) 0.6180(9)
C26_2 C 0.7454(5) 0.1688(7) 0.6339(9)
C29_2 C 0.6879(4) 0.2788(6) 0.5870(9)
H17_2 H 0.7323 0.3736 0.6122
H18_2 H 0.7488 0.1162 0.6409
C30_2 C 0.6921(5) 0.2026(6) 0.5925(8)
H20_2 H 0.6522 0.3023 0.5621
C32_2 C 0.6402(5) 0.1530(6) 0.5539(9)
O54_2 O 0.5931(3) 0.1809(5) 0.5199(7)
Na4_3 Na 0.8717(4) 1.0000 0.8295(7)
O4_6 O 0.1177(5) 0.5000 0.6814(11)
H2_6 H 0.0637 0.5000 0.8951
O26_4 O 0.0721(3) 0.6119(5) 0.7269(6)
O23_5 O 0.9102(6) -0.0000 0.0182(11)
O55_4 O 0.5519(3) 0.1094(4) 0.0242(5)
H27_2 H 0.886248 0.0307644 0.0389592
O8_6 O 0.7601(4) 0.5000 0.4806(9)
H3_6 H 0.8962 0.5000 0.8175
O21_5 O 0.9655(7) -0.0000 0.8483(16)
O22_5 O 0.7776(7) -0.0000 0.8052(14)
O27_4 O 0.9495(3) 0.5759(4) 0.6565(6)
Dy5_4 Dy 0.977173(19) 0.60430(3) 0.84119(4)
O29_4 O 0.8511(3) 0.4177(4) 0.4419(6)
O30_4 O 0.8289(3) 0.6033(5) 0.6250(6)
H25_2 H 0.751778 0.02679 0.736096
H29_2 H 0.992356 0.025182 0.918192
O23_6 O 0.9102(6) 1.0000 0.0182(11)
O56_4 O 0.7149(4) 0.8977(5) 0.1054(9)
H28_2 H 0.911812 0.948181 0.0445065
O21_6 O 0.9655(7) 1.0000 0.8483(16)
O22_6 O 0.7776(7) 1.0000 0.8052(14)
O43_4 O 0.8853(3) 0.8329(5) 0.8368(6)
O44_4 O 0.8433(4) 0.9116(5) 0.6773(8)
H26_2 H 0.764328 0.947885 0.800591
H30_2 H 0.978063 0.947888 0.849391
O15_3 O 0.4164(3) 0.3294(5) 0.0705(7)
H12_3 H 0.5771 0.0771 0.0346
O34_3 O 0.4354(3) 0.1670(4) 0.1363(6)
O35_3 O 0.5147(3) 0.2295(4) 0.1058(6)
O36_3 O 0.6160(3) 0.1697(4) 0.2238(6)
C17_3 C 0.4126(4) 0.1584(6) 0.1978(8)
S3_3 S 0.42008(13) 0.33523(19) 0.1808(3)
H13_3 H 0.5209 0.2635 0.1529
C18_3 C 0.6620(4) 0.1581(7) 0.3115(9)
H14_3 H 0.5564 0.1153 0.3814
S4_3 S 0.64155(12) 0.33663(19) 0.2864(3)
C19_3 C 0.3615(4) 0.2064(6) 0.1744(8)
O45_3 O 0.4711(4) 0.3004(6) 0.2665(7)
O46_3 O 0.4110(4) 0.4111(5) 0.2039(10)
C20_3 C 0.3615(4) 0.2828(7) 0.1687(9)
C21_3 C 0.7106(4) 0.2093(6) 0.3430(8)
O47_3 O 0.6073(3) 0.3013(6) 0.3278(7)
C22_3 C 0.7061(4) 0.2867(6) 0.3349(9)
C23_3 C 0.3134(4) 0.1675(6) 0.1616(8)
C24_3 C 0.3123(5) 0.3224(7) 0.1479(9)
C25_3 C 0.7639(5) 0.1791(6) 0.3820(9)
C26_3 C 0.7546(5) 0.3312(7) 0.3661(9)
H15_3 H 0.3141 0.1149 0.1689
C27_3 C 0.2649(4) 0.2080(7) 0.1379(8)
C28_3 C 0.2644(4) 0.2838(6) 0.1323(9)
H16_3 H 0.3118 0.3753 0.1445
C29_3 C 0.8121(4) 0.2212(6) 0.4130(9)
H17_3 H 0.7677 0.1264 0.3878
H18_3 H 0.7512 0.3838 0.3591
C30_3 C 0.8079(5) 0.2974(6) 0.4075(8)
H19_3 H 0.2314 0.1823 0.1254
C31_3 C 0.2120(4) 0.3287(7) 0.1041(9)
H20_3 H 0.8478 0.1977 0.4379
C32_3 C 0.8598(5) 0.3470(6) 0.4461(9)
O54_3 O 0.9069(3) 0.3191(5) 0.4801(7)
H1_3 H 0.4436 0.1153 0.6186
C1_3 C 0.5874(4) 0.1584(6) 0.8022(8)
O10_3 O 0.3840(3) 0.1697(4) 0.7762(6)
O12_3 O 0.4853(3) 0.2295(4) 0.8942(6)
O13_3 O 0.5646(3) 0.1670(4) 0.8637(6)
C2_3 C 0.6385(4) 0.2064(6) 0.8256(8)
C3_3 C 0.3380(4) 0.1581(7) 0.6885(9)
H4_3 H 0.4229 0.0771 0.9654
H5_3 H 0.4791 0.2635 0.8471
C4_3 C 0.6385(4) 0.2828(7) 0.8313(9)
C5_3 C 0.6866(4) 0.1675(6) 0.8384(8)
C6_3 C 0.2894(4) 0.2093(6) 0.6570(8)
S1_3 S 0.57992(13) 0.33523(19) 0.8192(3)
C7_3 C 0.6877(5) 0.3224(7) 0.8521(9)
H6_3 H 0.6859 0.1149 0.8311
C8_3 C 0.7351(4) 0.2080(7) 0.8621(8)
C9_3 C 0.2361(5) 0.1791(6) 0.6180(9)
C10_3 C 0.2939(4) 0.2867(6) 0.6651(9)
S2_3 S 0.35845(12) 0.33663(19) 0.7136(3)
O17_3 O 0.5289(4) 0.3004(6) 0.7335(7)
O18_3 O 0.5890(4) 0.4111(5) 0.7961(10)
C11_3 C 0.7356(4) 0.2838(6) 0.8677(9)
H7_3 H 0.6882 0.3753 0.8555
H8_3 H 0.7686 0.1823 0.8746
C12_3 C 0.1879(4) 0.2212(6) 0.5870(9)
H9_3 H 0.2323 0.1264 0.6122
C13_3 C 0.2454(5) 0.3312(7) 0.6339(9)
O19_3 O 0.3927(3) 0.3013(6) 0.6722(7)
C14_3 C 0.7880(4) 0.3287(7) 0.8959(9)
H10_3 H 0.1522 0.1977 0.5621
C15_3 C 0.1921(5) 0.2974(6) 0.5925(8)
H11_3 H 0.2488 0.3838 0.6409
C16_3 C 0.1402(5) 0.3470(6) 0.5539(9)
O25_3 O 0.0931(3) 0.3191(5) 0.5199(7)
O39_3 O 0.5836(3) 0.3294(5) 0.9295(7)
H21_3 H 0.245159 0.031382 0.519661
H23_3 H 0.618213 0.0312794 0.622883
H22_3 H 0.245913 0.948269 0.474767
H24_3 H 0.628778 0.948254 0.675109
H21_4 H 0.754841 0.031382 0.480339
H23_4 H 0.381787 0.0312794 0.377117
H22_4 H 0.754087 0.948269 0.525233
H24_4 H 0.371222 0.948254 0.324891
H12_4 H 0.0771 0.5771 0.0346
O35_4 O 0.0147(3) 0.7295(4) 0.1058(6)
O36_4 O 0.1160(3) 0.6697(4) 0.2238(6)
H13_4 H 0.0209 0.7635 0.1529
C18_4 C 0.1620(4) 0.6581(7) 0.3115(9)
H14_4 H 0.0564 0.6153 0.3814
S4_4 S 0.14155(12) 0.83663(19) 0.2864(3)
C21_4 C 0.2106(4) 0.7093(6) 0.3430(8)
O47_4 O 0.1073(3) 0.8013(6) 0.3278(7)
C22_4 C 0.2061(4) 0.7867(6) 0.3349(9)
C25_4 C 0.2639(5) 0.6791(6) 0.3820(9)
C26_4 C 0.2546(5) 0.8312(7) 0.3661(9)
C29_4 C 0.3121(4) 0.7212(6) 0.4130(9)
H17_4 H 0.2677 0.6264 0.3878
H18_4 H 0.2512 0.8838 0.3591
C30_4 C 0.3079(5) 0.7974(6) 0.4075(8)
H20_4 H 0.3478 0.6977 0.4379
C32_4 C 0.3598(5) 0.8470(6) 0.4461(9)
O54_4 O 0.4069(3) 0.8191(5) 0.4801(7)
C1_4 C 0.0874(4) 0.6584(6) 0.8022(8)
O13_4 O 0.0646(3) 0.6670(4) 0.8637(6)
C2_4 C 0.1385(4) 0.7064(6) 0.8256(8)
C4_4 C 0.1385(4) 0.7828(7) 0.8313(9)
C5_4 C 0.1866(4) 0.6675(6) 0.8384(8)
S1_4 S 0.07992(13) 0.83523(19) 0.8192(3)
C7_4 C 0.1877(5) 0.8224(7) 0.8521(9)
H6_4 H 0.1859 0.6149 0.8311
C8_4 C 0.2351(4) 0.7080(7) 0.8621(8)
O17_4 O 0.0289(4) 0.8004(6) 0.7335(7)
O18_4 O 0.0890(4) 0.9111(5) 0.7961(10)
C11_4 C 0.2356(4) 0.7838(6) 0.8677(9)
H7_4 H 0.1882 0.8753 0.8555
H8_4 H 0.2686 0.6823 0.8746
C14_4 C 0.2880(4) 0.8287(7) 0.8959(9)
O39_4 O 0.0836(3) 0.8294(5) 0.9295(7)
H28_3 H 0.911812 0.0518193 0.0445065
H26_3 H 0.764328 0.0521148 0.800591
H30_3 H 0.978063 0.0521119 0.849391
O15_4 O 0.9164(3) 0.8294(5) 0.0705(7)
O34_4 O 0.9354(3) 0.6670(4) 0.1363(6)
C17_4 C 0.9126(4) 0.6584(6) 0.1978(8)
S3_4 S 0.92008(13) 0.83523(19) 0.1808(3)
C19_4 C 0.8615(4) 0.7064(6) 0.1744(8)
O45_4 O 0.9711(4) 0.8004(6) 0.2665(7)
O46_4 O 0.9110(4) 0.9111(5) 0.2039(10)
C20_4 C 0.8615(4) 0.7828(7) 0.1687(9)
C23_4 C 0.8134(4) 0.6675(6) 0.1616(8)
C24_4 C 0.8123(5) 0.8224(7) 0.1479(9)
H15_4 H 0.8141 0.6149 0.1689
C27_4 C 0.7649(4) 0.7080(7) 0.1379(8)
C28_4 C 0.7644(4) 0.7838(6) 0.1323(9)
H16_4 H 0.8118 0.8753 0.1445
H19_4 H 0.7314 0.6823 0.1254
C31_4 C 0.7120(4) 0.8287(7) 0.1041(9)
H27_3 H 0.886248 0.969236 0.0389592
H1_4 H 0.9436 0.6153 0.6186
O10_4 O 0.8840(3) 0.6697(4) 0.7762(6)
O12_4 O 0.9853(3) 0.7295(4) 0.8942(6)
C3_4 C 0.8380(4) 0.6581(7) 0.6885(9)
H4_4 H 0.9229 0.5771 0.9654
H5_4 H 0.9791 0.7635 0.8471
C6_4 C 0.7894(4) 0.7093(6) 0.6570(8)
C9_4 C 0.7361(5) 0.6791(6) 0.6180(9)
C10_4 C 0.7939(4) 0.7867(6) 0.6651(9)
S2_4 S 0.85845(12) 0.83663(19) 0.7136(3)
C12_4 C 0.6879(4) 0.7212(6) 0.5870(9)
H9_4 H 0.7323 0.6264 0.6122
C13_4 C 0.7454(5) 0.8312(7) 0.6339(9)
O19_4 O 0.8927(3) 0.8013(6) 0.6722(7)
H10_4 H 0.6522 0.6977 0.5621
C15_4 C 0.6921(5) 0.7974(6) 0.5925(8)
H11_4 H 0.7488 0.8838 0.6409
C16_4 C 0.6402(5) 0.8470(6) 0.5539(9)
O25_4 O 0.5931(3) 0.8191(5) 0.5199(7)
H25_3 H 0.751778 0.97321 0.736096
H29_3 H 0.992356 0.974818 0.918192
H26_4 H 0.235672 0.0521148 0.199409
H30_4 H 0.0219374 0.0521119 0.150609
H28_4 H 0.0881884 0.0518193 0.955494
H25_4 H 0.248222 0.97321 0.263904
H29_4 H 0.00764351 0.974818 0.0818082
H27_4 H 0.113752 0.969236 0.961041
loop_
_geom_bond_atom_site_label_1
_geom_bond_atom_site_label_2
_geom_bond_site_symmetry_1
_geom_bond_site_symmetry_2
O2 Dy1 1_555 1_555
O4 Dy1 1_555 1_555
H2 O2 1_555 1_555
O7 Dy2 1_555 1_555
O8 Dy2 1_555 1_555
O9 Dy2 1_555 1_555
H3 O7 1_555 1_555
O26 Dy1 1_555 1_555
O27 Dy1 1_555 1_555
O28 Dy1 1_555 1_555
Dy5 O2 1_555 1_555
O30 Dy2 1_555 1_555
Na3 O7 1_555 1_555
Dy2 O27 1_555 1_555
O7 Dy5 1_555 1_555
O27 Dy5 1_555 1_555
O28 Dy6 1_555 1_555
O8 H22 1_555 1_555
O4 H24 1_555 1_555
O32 Na1 1_555 1_555
Dy9 O32 1_555 1_555
Dy6 O33 1_555 1_555
Dy1_2 O1 1_555 1_555
O1 Dy2_2 1_555 1_555
O2_2 Dy1_2 1_555 1_555
O3 Dy1_2 1_555 1_555
O4_2 Dy1_2 1_555 1_555
O5 Dy1_2 1_555 1_555
Dy2_2 O6 1_555 1_555
Dy3 O1 1_555 1_555
H1 O1 1_555 1_555
H2_2 O2_2 1_555 1_555
C1 O5 1_555 1_555
O6 C3 1_555 1_555
O7_2 Dy2_2 1_555 1_555
O8_2 Dy2_2 1_555 1_555
O10 Dy3 1_555 1_555
O11 Dy3 1_555 1_555
O12 Dy3 1_555 1_555
O13 Dy3 1_555 1_555
C2 C1 1_555 1_555
C3 O10 1_555 1_555
H3_2 O7_2 1_555 1_555
Dy4 O10 1_555 1_555
H4 O11 1_555 1_555
H5 O12 1_555 1_555
C4 C2 1_555 1_555
C5 C2 1_555 1_555
C6 C3 1_555 1_555
O14 Dy4 1_555 1_555
O16 Dy4 1_555 1_555
S1 C4 1_555 1_555
C7 C4 1_555 1_555
H6 C5 1_555 1_555
C8 C5 1_555 1_555
C9 C6 1_555 1_555
C10 C6 1_555 1_555
S2 O14 1_555 1_555
Na2 O14 1_555 1_555
O17 S1 1_555 1_555
O18 S1 1_555 1_555
C11 C7 1_555 1_555
H7 C7 1_555 1_555
H8 C8 1_555 1_555
C12 C9 1_555 1_555
H9 C9 1_555 1_555
C13 C10 1_555 1_555
O19 S2 1_555 1_555
O20 S2 1_555 1_555
O21 Na2 1_555 1_555
O22 Na2 1_555 1_555
C14 C11 1_555 1_555
H10 C12 1_555 1_555
C15 C12 1_555 1_555
H11 C13 1_555 1_555
O24 C14 1_555 1_555
C16 C15 1_555 1_555
O25 C16 1_555 1_555
Dy6_2 O3 1_555 1_555
O29 Dy2_2 1_555 1_555
Na3_2 O7_2 1_555 1_555
O39 S1 1_555 1_555
O43 Na2 1_555 1_555
O44 Na2 1_555 1_555
O49 C14 1_555 1_555
Dy11 O49 1_555 1_555
Na5 O24 1_555 1_555
O50 C16 1_555 1_555
Dy12 O50 1_555 1_555
O2_2 Dy3 1_555 1_555
Dy3 O7_2 1_555 1_555
C1 O13 1_555 1_555
O11 Dy4 1_555 1_555
O11 Na3_2 1_555 1_555
O12 Dy4 1_555 1_555
C8 C11 1_555 1_555
C10 S2 1_555 1_555
Na2 O20 1_555 1_555
C13 C15 1_555 1_555
O8_2 H21 1_555 1_555
O4_2 H23 1_555 1_555
O32_2 Na1_2 1_555 1_555
H12 O31 1_555 1_555
Dy9_2 O32_2 1_555 1_555
O36 Dy7 1_555 1_555
O37 Dy7 1_555 1_555
O38 Dy8 1_555 1_555
O40 Dy8 1_555 1_555
O41 Dy9_2 1_555 1_555
Dy6_2 O33_2 1_555 1_555
C17 O34 1_555 1_555
S3 O15 1_555 1_555
H13 O35 1_555 1_555
C18 O36 1_555 1_555
H14 O37 1_555 1_555
S4 O38 1_555 1_555
Na4 O38 1_555 1_555
O42 Dy6_2 1_555 1_555
C19 C17 1_555 1_555
O45 S3 1_555 1_555
O46 S3 1_555 1_555
C20 S3 1_555 1_555
C21 C18 1_555 1_555
O47 S4 1_555 1_555
O48 S4 1_555 1_555
C22 S4 1_555 1_555
C23 C19 1_555 1_555
C24 C20 1_555 1_555
C25 C21 1_555 1_555
C26 C22 1_555 1_555
H15 C23 1_555 1_555
C27 C23 1_555 1_555
C28 C24 1_555 1_555
H16 C24 1_555 1_555
C29 C25 1_555 1_555
H17 C25 1_555 1_555
H18 C26 1_555 1_555
C30 C26 1_555 1_555
H19 C27 1_555 1_555
C31 C28 1_555 1_555
H20 C29 1_555 1_555
C32 C30 1_555 1_555
O51 C31 1_555 1_555
O52 C31 1_555 1_555
O53 C32 1_555 1_555
O54 C32 1_555 1_555
Dy13 O51 1_555 1_555
Na6 O52 1_555 1_555
Dy14 O53 1_555 1_555
O55 Dy13 1_555 1_555
O56 Na6 1_555 1_555
O57 Na6 1_555 1_555
O58 Na6 1_555 1_555
Na1_2 O31 1_555 1_555
O31 Dy7 1_555 1_555
O31 Dy8 1_555 1_555
O32_2 Dy7 1_555 1_555
Dy7 O33_2 1_555 1_555
Dy7 O34 1_555 1_555
Dy7 O35 1_555 1_555
Dy8 O35 1_555 1_555
Dy8 O36 1_555 1_555
Dy9_2 O37 1_555 1_555
O37 Dy6_2 1_555 1_555
O41 C18 1_555 1_555
C17 O42 1_555 1_555
Na4 O48 1_555 1_555
C19 C20 1_555 1_555
C21 C22 1_555 1_555
C27 C28 1_555 1_555
C29 C30 1_555 1_555
Na6 O55 1_555 1_555
O4_3 Dy6 1_555 1_555
H2_3 O33 1_555 1_555
O8_3 Dy9 1_555 1_555
O9_2 Dy9 1_555 1_555
H3_3 O32 1_555 1_555
O26_2 Dy6 1_555 1_555
O27_2 Dy6 1_555 1_555
Dy5_2 O33 1_555 1_555
O30_2 Dy9 1_555 1_555
Dy9 O27_2 1_555 1_555
O32 Dy5_2 1_555 1_555
O27_2 Dy5_2 1_555 1_555
O8_3 H22_2 1_555 1_555
O4_3 H24_2 1_555 1_555
O55_2 Dy11 1_555 1_555
O56_2 Na5 1_555 1_555
O57_2 Na5 1_555 1_555
O58_2 Na5 1_555 1_555
Na5 O55_2 1_555 1_555
O4_4 Dy6_2 1_555 1_555
H2_4 O33_2 1_555 1_555
O8_4 Dy9_2 1_555 1_555
H3_4 O32_2 1_555 1_555
O21_2 Na4 1_555 1_555
O22_2 Na4 1_555 1_555
O29_2 Dy9_2 1_555 1_555
O43_2 Na4 1_555 1_555
O44_2 Na4 1_555 1_555
O8_4 H21_2 1_555 1_555
O4_4 H23_2 1_555 1_555
O1_2 Dy14 1_555 1_555
Dy14 O6_2 1_555 1_555
Dy3_2 O1_2 1_555 1_555
H1_2 O1_2 1_555 1_555
O6_2 C3_2 1_555 1_555
O58_2 Dy14 1_555 1_555
O8_5 Dy14 1_555 1_555
O10_2 Dy3_2 1_555 1_555
O57_2 Dy3_2 1_555 1_555
O12_2 Dy3_2 1_555 1_555
C3_2 O10_2 1_555 1_555
H3_5 O58_2 1_555 1_555
Dy4_2 O10_2 1_555 1_555
H4_2 O57_2 1_555 1_555
H5_2 O12_2 1_555 1_555
C6_2 C3_2 1_555 1_555
O14_2 Dy4_2 1_555 1_555
O16_2 Dy4_2 1_555 1_555
C9_2 C6_2 1_555 1_555
C10_2 C6_2 1_555 1_555
S2_2 O14_2 1_555 1_555
Na2_2 O14_2 1_555 1_555
C12_2 C9_2 1_555 1_555
H9_2 C9_2 1_555 1_555
C13_2 C10_2 1_555 1_555
O19_2 S2_2 1_555 1_555
O20_2 S2_2 1_555 1_555
O21_3 Na2_2 1_555 1_555
O22_3 Na2_2 1_555 1_555
H10_2 C12_2 1_555 1_555
C15_2 C12_2 1_555 1_555
H11_2 C13_2 1_555 1_555
C16_2 C15_2 1_555 1_555
O25_2 C16_2 1_555 1_555
Dy6_3 O3_2 1_555 1_555
O29_3 Dy14 1_555 1_555
O30_3 Dy14 1_555 1_555
O9_2 C16_2 1_555 1_555
Dy14 O27_3 1_555 1_555
Dy3_2 O58_2 1_555 1_555
O58_2 Dy5_3 1_555 1_555
O57_2 Dy4_2 1_555 1_555
O12_2 Dy4_2 1_555 1_555
C10_2 S2_2 1_555 1_555
Na2_2 O20_2 1_555 1_555
C13_2 C15_2 1_555 1_555
O27_3 Dy5_3 1_555 1_555
O28_2 Dy6_3 1_555 1_555
O22_3 H25 1_555 1_555
O21_3 H29 1_555 1_555
Dy6_3 O59_2 1_555 1_555
C17_2 O34_2 1_555 1_555
S3_2 O15_2 1_555 1_555
O42_2 Dy6_3 1_555 1_555
C19_2 C17_2 1_555 1_555
O45_2 S3_2 1_555 1_555
O46_2 S3_2 1_555 1_555
C20_2 S3_2 1_555 1_555
C23_2 C19_2 1_555 1_555
C24_2 C20_2 1_555 1_555
H15_2 C23_2 1_555 1_555
C27_2 C23_2 1_555 1_555
C28_2 C24_2 1_555 1_555
H16_2 C24_2 1_555 1_555
H19_2 C27_2 1_555 1_555
C31_2 C28_2 1_555 1_555
O51_2 C31_2 1_555 1_555
O52_2 C31_2 1_555 1_555
Dy13_2 O51_2 1_555 1_555
Na1 O52_2 1_555 1_555
O55_3 Dy13_2 1_555 1_555
C17_2 O42_2 1_555 1_555
C19_2 C20_2 1_555 1_555
C27_2 C28_2 1_555 1_555
Na1 O55_3 1_555 1_555
O23_3 H27 1_555 1_555
O21_4 Na2_3 1_555 1_555
O22_4 Na2_3 1_555 1_555
O43_3 Na2_3 1_555 1_555
O44_3 Na2_3 1_555 1_555
O22_4 H26 1_555 1_555
O21_4 H30 1_555 1_555
O56_3 Na1_2 1_555 1_555
O23_4 H28 1_555 1_555
O59 Dy1_3 1_555 1_555
O3_3 Dy1_3 1_555 1_555
O4_5 Dy1_3 1_555 1_555
O5_2 Dy1_3 1_555 1_555
H2_5 O59 1_555 1_555
C1_2 O5_2 1_555 1_555
C2_2 C1_2 1_555 1_555
C4_2 C2_2 1_555 1_555
C5_2 C2_2 1_555 1_555
S1_2 C4_2 1_555 1_555
C7_2 C4_2 1_555 1_555
H6_2 C5_2 1_555 1_555
C8_2 C5_2 1_555 1_555
O17_2 S1_2 1_555 1_555
O18_2 S1_2 1_555 1_555
C11_2 C7_2 1_555 1_555
H7_2 C7_2 1_555 1_555
H8_2 C8_2 1_555 1_555
C14_2 C11_2 1_555 1_555
O24_2 C14_2 1_555 1_555
O26_3 Dy1_3 1_555 1_555
O28_3 Dy1_3 1_555 1_555
O39_2 S1_2 1_555 1_555
O49_2 C14_2 1_555 1_555
Dy11_2 O49_2 1_555 1_555
Na3 O24_2 1_555 1_555
C1_2 O13_2 1_555 1_555
C8_2 C11_2 1_555 1_555
H12_2 O57 1_555 1_555
Dy12 O58 1_555 1_555
O36_2 Dy7_2 1_555 1_555
O37_2 Dy7_2 1_555 1_555
O38_2 Dy8_2 1_555 1_555
O40_2 Dy8_2 1_555 1_555
O41_2 Dy12 1_555 1_555
H13_2 O35_2 1_555 1_555
C18_2 O36_2 1_555 1_555
H14_2 O37_2 1_555 1_555
S4_2 O38_2 1_555 1_555
Na4_2 O38_2 1_555 1_555
C21_2 C18_2 1_555 1_555
O47_2 S4_2 1_555 1_555
O48_2 S4_2 1_555 1_555
C22_2 S4_2 1_555 1_555
C25_2 C21_2 1_555 1_555
C26_2 C22_2 1_555 1_555
C29_2 C25_2 1_555 1_555
H17_2 C25_2 1_555 1_555
H18_2 C26_2 1_555 1_555
C30_2 C26_2 1_555 1_555
H20_2 C29_2 1_555 1_555
C32_2 C30_2 1_555 1_555
O9 C32_2 1_555 1_555
O54_2 C32_2 1_555 1_555
O57 Dy7_2 1_555 1_555
O57 Dy8_2 1_555 1_555
O58 Dy7_2 1_555 1_555
Dy7_2 O35_2 1_555 1_555
Dy8_2 O35_2 1_555 1_555
Dy8_2 O36_2 1_555 1_555
Dy12 O37_2 1_555 1_555
O41_2 C18_2 1_555 1_555
Na4_2 O48_2 1_555 1_555
C21_2 C22_2 1_555 1_555
C29_2 C30_2 1_555 1_555
O4_6 Dy6_3 1_555 1_555
H2_6 O59_2 1_555 1_555
O26_4 Dy6_3 1_555 1_555
O55_4 Dy11_2 1_555 1_555
Na3 O55_4 1_555 1_555
O23_5 H27_2 1_555 1_555
O8_6 Dy12 1_555 1_555
H3_6 O58 1_555 1_555
O21_5 Na4_2 1_555 1_555
O22_5 Na4_2 1_555 1_555
O29_4 Dy12 1_555 1_555
O30_4 Dy12 1_555 1_555
Dy12 O27_4 1_555 1_555
O58 Dy5_4 1_555 1_555
O27_4 Dy5_4 1_555 1_555
O22_5 H25_2 1_555 1_555
O21_5 H29_2 1_555 1_555
O56_4 Na3_2 1_555 1_555
O23_6 H28_2 1_555 1_555
O21_6 Na4_3 1_555 1_555
O22_6 Na4_3 1_555 1_555
O43_4 Na4_3 1_555 1_555
O44_4 Na4_3 1_555 1_555
O22_6 H26_2 1_555 1_555
O21_6 H30_2 1_555 1_555
H12_3 O55_4 1_555 1_555
O36_3 Dy5 1_555 1_555
O43 Dy11_2 1_555 1_555
C17_3 O34_3 1_555 1_555
S3_3 O15_3 1_555 1_555
H13_3 O35_3 1_555 1_555
C18_3 O36_3 1_555 1_555
H14_3 O27 1_555 1_555
S4_3 O43 1_555 1_555
C19_3 C17_3 1_555 1_555
O45_3 S3_3 1_555 1_555
O46_3 S3_3 1_555 1_555
C20_3 S3_3 1_555 1_555
C21_3 C18_3 1_555 1_555
O47_3 S4_3 1_555 1_555
O44 S4_3 1_555 1_555
C22_3 S4_3 1_555 1_555
C23_3 C19_3 1_555 1_555
C24_3 C20_3 1_555 1_555
C25_3 C21_3 1_555 1_555
C26_3 C22_3 1_555 1_555
H15_3 C23_3 1_555 1_555
C27_3 C23_3 1_555 1_555
C28_3 C24_3 1_555 1_555
H16_3 C24_3 1_555 1_555
C29_3 C25_3 1_555 1_555
H17_3 C25_3 1_555 1_555
H18_3 C26_3 1_555 1_555
C30_3 C26_3 1_555 1_555
H19_3 C27_3 1_555 1_555
C31_3 C28_3 1_555 1_555
H20_3 C29_3 1_555 1_555
C32_3 C30_3 1_555 1_555
O16_2 C31_3 1_555 1_555
O56_2 C31_3 1_555 1_555
O29_4 C32_3 1_555 1_555
O54_3 C32_3 1_555 1_555
O55_4 Dy5 1_555 1_555
Dy5 O34_3 1_555 1_555
Dy5 O35_3 1_555 1_555
Dy11_2 O35_3 1_555 1_555
Dy11_2 O36_3 1_555 1_555
O30 C18_3 1_555 1_555
C17_3 O26 1_555 1_555
C19_3 C20_3 1_555 1_555
C21_3 C22_3 1_555 1_555
C27_3 C28_3 1_555 1_555
C29_3 C30_3 1_555 1_555
H1_3 O27_2 1_555 1_555
C1_3 O26_2 1_555 1_555
O30_2 C3_3 1_555 1_555
O10_3 Dy5_2 1_555 1_555
O55_3 Dy5_2 1_555 1_555
O12_3 Dy5_2 1_555 1_555
O13_3 Dy5_2 1_555 1_555
C2_3 C1_3 1_555 1_555
C3_3 O10_3 1_555 1_555
Dy13_2 O10_3 1_555 1_555
H4_3 O55_3 1_555 1_555
H5_3 O12_3 1_555 1_555
C4_3 C2_3 1_555 1_555
C5_3 C2_3 1_555 1_555
C6_3 C3_3 1_555 1_555
O43_2 Dy13_2 1_555 1_555
S1_3 C4_3 1_555 1_555
C7_3 C4_3 1_555 1_555
H6_3 C5_3 1_555 1_555
C8_3 C5_3 1_555 1_555
C9_3 C6_3 1_555 1_555
C10_3 C6_3 1_555 1_555
S2_3 O43_2 1_555 1_555
O17_3 S1_3 1_555 1_555
O18_3 S1_3 1_555 1_555
C11_3 C7_3 1_555 1_555
H7_3 C7_3 1_555 1_555
H8_3 C8_3 1_555 1_555
C12_3 C9_3 1_555 1_555
H9_3 C9_3 1_555 1_555
C13_3 C10_3 1_555 1_555
O19_3 S2_3 1_555 1_555
O44_2 S2_3 1_555 1_555
C14_3 C11_3 1_555 1_555
H10_3 C12_3 1_555 1_555
C15_3 C12_3 1_555 1_555
H11_3 C13_3 1_555 1_555
O56 C14_3 1_555 1_555
C16_3 C15_3 1_555 1_555
O25_3 C16_3 1_555 1_555
O39_3 S1_3 1_555 1_555
O40_2 C14_3 1_555 1_555
O29_3 C16_3 1_555 1_555
C1_3 O13_3 1_555 1_555
O12_3 Dy13_2 1_555 1_555
C8_3 C11_3 1_555 1_555
C10_3 S2_3 1_555 1_555
C13_3 C15_3 1_555 1_555
O8_3 H21_3 1_555 1_555
O4_3 H23_3 1_555 1_555
O8_4 H22_3 1_555 1_555
O4_4 H24_3 1_555 1_555
O8 H21_4 1_555 1_555
O4 H23_4 1_555 1_555
O8_2 H22_4 1_555 1_555
O4_2 H24_4 1_555 1_555
H12_4 O55_2 1_555 1_555
O36_4 Dy5_3 1_555 1_555
O43_3 Dy11 1_555 1_555
H13_4 O35_4 1_555 1_555
C18_4 O36_4 1_555 1_555
H14_4 O27_3 1_555 1_555
S4_4 O43_3 1_555 1_555
C21_4 C18_4 1_555 1_555
O47_4 S4_4 1_555 1_555
O44_3 S4_4 1_555 1_555
C22_4 S4_4 1_555 1_555
C25_4 C21_4 1_555 1_555
C26_4 C22_4 1_555 1_555
C29_4 C25_4 1_555 1_555
H17_4 C25_4 1_555 1_555
H18_4 C26_4 1_555 1_555
C30_4 C26_4 1_555 1_555
H20_4 C29_4 1_555 1_555
C32_4 C30_4 1_555 1_555
O29_2 C32_4 1_555 1_555
O54_4 C32_4 1_555 1_555
O55_2 Dy5_3 1_555 1_555
Dy5_3 O35_4 1_555 1_555
Dy11 O35_4 1_555 1_555
Dy11 O36_4 1_555 1_555
O30_3 C18_4 1_555 1_555
C21_4 C22_4 1_555 1_555
C29_4 C30_4 1_555 1_555
C1_4 O26_4 1_555 1_555
C2_4 C1_4 1_555 1_555
C4_4 C2_4 1_555 1_555
C5_4 C2_4 1_555 1_555
S1_4 C4_4 1_555 1_555
C7_4 C4_4 1_555 1_555
H6_4 C5_4 1_555 1_555
C8_4 C5_4 1_555 1_555
O17_4 S1_4 1_555 1_555
O18_4 S1_4 1_555 1_555
C11_4 C7_4 1_555 1_555
H7_4 C7_4 1_555 1_555
H8_4 C8_4 1_555 1_555
C14_4 C11_4 1_555 1_555
O56_3 C14_4 1_555 1_555
O39_4 S1_4 1_555 1_555
O40 C14_4 1_555 1_555
C1_4 O13_4 1_555 1_555
C8_4 C11_4 1_555 1_555
O23_5 H28_3 1_555 1_555
O22_5 H26_3 1_555 1_555
O21_5 H30_3 1_555 1_555
C17_4 O34_4 1_555 1_555
S3_4 O15_4 1_555 1_555
C19_4 C17_4 1_555 1_555
O45_4 S3_4 1_555 1_555
O46_4 S3_4 1_555 1_555
C20_4 S3_4 1_555 1_555
C23_4 C19_4 1_555 1_555
C24_4 C20_4 1_555 1_555
H15_4 C23_4 1_555 1_555
C27_4 C23_4 1_555 1_555
C28_4 C24_4 1_555 1_555
H16_4 C24_4 1_555 1_555
H19_4 C27_4 1_555 1_555
C31_4 C28_4 1_555 1_555
O16 C31_4 1_555 1_555
O56_4 C31_4 1_555 1_555
C17_4 O26_3 1_555 1_555
C19_4 C20_4 1_555 1_555
C27_4 C28_4 1_555 1_555
O23_6 H27_3 1_555 1_555
H1_4 O27_4 1_555 1_555
O30_4 C3_4 1_555 1_555
O10_4 Dy5_4 1_555 1_555
O55 Dy5_4 1_555 1_555
O12_4 Dy5_4 1_555 1_555
C3_4 O10_4 1_555 1_555
Dy13 O10_4 1_555 1_555
H4_4 O55 1_555 1_555
H5_4 O12_4 1_555 1_555
C6_4 C3_4 1_555 1_555
O43_4 Dy13 1_555 1_555
C9_4 C6_4 1_555 1_555
C10_4 C6_4 1_555 1_555
S2_4 O43_4 1_555 1_555
C12_4 C9_4 1_555 1_555
H9_4 C9_4 1_555 1_555
C13_4 C10_4 1_555 1_555
O19_4 S2_4 1_555 1_555
O44_4 S2_4 1_555 1_555
H10_4 C12_4 1_555 1_555
C15_4 C12_4 1_555 1_555
H11_4 C13_4 1_555 1_555
C16_4 C15_4 1_555 1_555
O25_4 C16_4 1_555 1_555
O29 C16_4 1_555 1_555
O12_4 Dy13 1_555 1_555
C10_4 S2_4 1_555 1_555
C13_4 C15_4 1_555 1_555
O22_6 H25_3 1_555 1_555
O21_6 H29_3 1_555 1_555
O22_3 H26_4 1_555 1_555
O21_3 H30_4 1_555 1_555
O23_3 H28_4 1_555 1_555
O22_4 H25_4 1_555 1_555
O21_4 H29_4 1_555 1_555
O23_4 H27_4 1_555 1_555

#END
