
###############################################################################
#
# This file contains modified crystal structure data generated from the
# MOF subset of the Cambridge Structural Database (CSD) v543 
# hosted by the Cambridge Crystallographic Data Centre (CCDC).
#
# This work is licensed under the Creative Commons
# Attribution-NonCommercial-ShareAlike 4.0 International License.
# To view a copy of this license, visit
# http://creativecommons.org/licenses/by-nc-sa/4.0/
# or send a letter to
# Creative Commons, PO Box 1866, Mountain View, CA 94042, USA.
#
# CIF created using the CSD Python API on 29 September 2022
# The structure has been converted into the P1 space group
# The structure has a 3D framework
# The original CSD entry CUCKIV is in the monoclinic crystal system
# The framework has been calculated to contain at least 10.0% void space
# The void calculation uses a probe of radius 1.32A, grid spacing 0.4
# H atom positions have been added when not included in the experimental data
# Generated hydrogen atom positions removed from atoms on special positions
#
###############################################################################

data_CUCKIV
_chemical_formula_moiety         '(C56 H80 Co17 N8 O48 8+)n'
_symmetry_cell_setting           triclinic
_symmetry_space_group_name_H-M   'P 1'
_symmetry_Int_Tables_number      1
_space_group_name_Hall           'P 1'
loop_
_symmetry_equiv_pos_site_id
_symmetry_equiv_pos_as_xyz
1 x,y,z
_cell_length_a                   14.170(7)
_cell_length_b                   10.833(5)
_cell_length_c                   14.400(7)
_cell_angle_alpha                90
_cell_angle_beta                 100.519(6)
_cell_angle_gamma                90
_cell_volume                     2173.3
loop_
_atom_site_label
_atom_site_type_symbol
_atom_site_fract_x
_atom_site_fract_y
_atom_site_fract_z
Co7 Co -0.0000 0.0000 0.0000
Co1 Co 0.17939(6) 0.28856(9) 0.30066(6)
N1 N 0.0916(4) 0.2770(5) 0.3952(4)
O5 O 0.2056(4) 0.0172(6) 0.5044(4)
O6 O 0.2298(3) 0.1279(5) 0.3838(4)
O8 O 0.0880(3) 0.4492(5) 0.2730(3)
C8 C 0.0218(4) 0.3618(6) 0.3939(5)
C11 C 0.0379(4) 0.1654(7) 0.5187(5)
H4 H 0.0445 0.0970 0.5606
C12 C 0.0998(4) 0.1815(6) 0.4559(5)
C13 C 0.1852(5) 0.1013(7) 0.4479(5)
C14 C 0.0226(5) 0.4599(7) 0.3203(5)
N6 N 0.2709(3) 0.2797(5) 0.2090(4)
O12 O 0.3039(3) 0.3878(5) 0.3681(3)
O18 O 0.0977(3) 0.1955(5) 0.1786(3)
Co7_2 Co -0.0000 0.0000 1.0000
Co7_3 Co -0.0000 1.0000 0.0000
N2 N 0.7709(3) 0.2203(5) 0.7090(4)
O1 O 0.8039(3) 0.1122(5) 0.8681(3)
O2 O 0.9604(3) 0.0872(4) 0.8655(3)
O3 O 0.5977(3) 0.3045(5) 0.6786(3)
O4 O 0.6088(3) 0.3744(4) 0.5362(3)
O7 O 0.9621(4) 0.5416(5) 0.3133(4)
C1 C 0.7440(5) 0.2781(6) 0.6253(5)
C2 C 0.8052(4) 0.2906(6) 0.5632(4)
H1 H 0.7855 0.3334 0.5054
C3 C 0.8966(4) 0.2404(6) 0.5850(5)
C4 C 0.9236(4) 0.1828(6) 0.6723(5)
H2 H 0.9869 0.1512 0.6903
C5 C 0.8594(4) 0.1714(6) 0.7319(4)
C6 C 0.8780(4) 0.1189(6) 0.8291(5)
C7 C 0.6409(4) 0.3225(6) 0.6122(5)
C9 C 0.9578(4) 0.3513(7) 0.4551(5)
H3 H 0.9085 0.4111 0.4539
C10 C 0.9652(4) 0.2529(6) 0.5188(5)
Co2 Co 0.5000 0.5000 0.5000
O9 O 0.3938(3) 0.3924(5) 0.5505(4)
Co4 Co 0.32061(6) 0.78856(9) 0.19934(6)
Co5 Co 0.67939(6) 0.21144(9) 0.80066(6)
N4 N 0.2291(3) 0.7797(5) 0.2910(4)
O10 O 0.1961(3) 0.8878(5) 0.1319(3)
O13 O 0.0396(3) 0.9128(4) 0.1345(3)
O14 O 0.5396(3) 0.5872(4) 0.6345(3)
O15 O 0.4604(3) 0.4128(4) 0.3655(3)
O16 O 0.4023(3) 0.6955(5) 0.3214(3)
O19 O 0.3912(3) 0.6256(4) 0.4638(3)
O22 O 0.0379(4) 0.4584(5) 0.6867(4)
C15 C 0.2560(5) 0.7219(6) 0.3747(5)
C16 C 0.1948(4) 0.7094(6) 0.4368(4)
H5 H 0.2145 0.6666 0.4946
C17 C 0.1034(4) 0.7596(6) 0.4150(5)
C18 C 0.0764(4) 0.8172(6) 0.3277(5)
H6 H 0.0131 0.8488 0.3097
C19 C 0.1406(4) 0.8286(6) 0.2681(4)
C20 C 0.1220(4) 0.8811(6) 0.1709(5)
C21 C 0.3591(4) 0.6775(6) 0.3878(5)
C23 C 0.0422(4) 0.6487(7) 0.5449(5)
H7 H 0.0915 0.5889 0.5461
C24 C 0.0348(4) 0.7471(6) 0.4812(5)
Co7_4 Co 1.0000 0.0000 1.0000
O24 O 0.6062(3) 0.6076(5) 0.4495(4)
Co7_5 Co 1.0000 1.0000 0.0000
Co7_6 Co 1.0000 1.0000 1.0000
Co3 Co 0.82061(6) 0.71144(9) 0.69934(6)
N3 N 0.9084(4) 0.7230(5) 0.6048(4)
N5 N 0.7291(3) 0.7203(5) 0.7910(4)
O11 O 0.6961(3) 0.6122(5) 0.6319(3)
O17 O 0.9023(3) 0.8045(5) 0.8214(3)
O20 O 0.7944(4) 0.9828(6) 0.4956(4)
O21 O 0.7702(3) 0.8721(5) 0.6162(4)
O23 O 0.9120(3) 0.5508(5) 0.7270(3)
C22 C 0.9782(4) 0.6382(6) 0.6061(5)
C25 C 0.9621(4) 0.8346(7) 0.4813(5)
H8 H 0.9555 0.9030 0.4394
C26 C 0.9002(4) 0.8185(6) 0.5441(5)
C27 C 0.8148(5) 0.8987(7) 0.5521(5)
C28 C 0.9774(5) 0.5401(7) 0.6797(5)
O19_2 O 0.1088(3) 0.1256(4) 0.0362(3)
O20_2 O 0.7056(4) 0.4828(6) 0.0044(4)
C15_2 C 0.2440(5) 0.2219(6) 0.1253(5)
C16_2 C 0.3052(4) 0.2094(6) 0.0632(4)
H5_2 H 0.2855 0.1666 0.0054
C17_2 C 0.3966(4) 0.2596(6) 0.0850(5)
C18_2 C 0.4236(4) 0.3172(6) 0.1723(5)
H6_2 H 0.4869 0.3488 0.1903
C19_2 C 0.3594(4) 0.3286(6) 0.2319(4)
C20_2 C 0.3780(4) 0.3811(6) 0.3291(5)
C21_2 C 0.1409(4) 0.1775(6) 0.1122(5)
C24_2 C 0.4652(4) 0.2471(6) 0.0188(5)
C25_2 C 0.5379(4) 0.3346(7) 0.0187(5)
H8_2 H 0.5445 0.4030 0.0606
N3_2 N 0.5916(4) 0.2230(5) 0.8952(4)
O21_2 O 0.7298(3) 0.3721(5) 0.8838(4)
O23_2 O 0.5880(3) 0.0508(5) 0.7730(3)
C22_2 C 0.5218(4) 0.1382(6) 0.8939(5)
C23_2 C 0.4578(4) 0.1487(7) 0.9551(5)
H7_2 H 0.4085 0.0889 0.9539
C26_2 C 0.5998(4) 0.3185(6) 0.9559(5)
C27_2 C 0.6852(5) 0.3987(7) 0.9479(5)
C28_2 C 0.5226(5) 0.0401(7) 0.8203(5)
N1_2 N 0.4084(4) 0.7770(5) 0.1048(4)
O6_2 O 0.2702(3) 0.6279(5) 0.1162(4)
O8_2 O 0.4120(3) 0.9492(5) 0.2270(3)
C8_2 C 0.4782(4) 0.8618(6) 0.1061(5)
C9_2 C 0.5422(4) 0.8513(7) 0.0449(5)
H3_2 H 0.5915 0.9111 0.0461
C12_2 C 0.4002(4) 0.6815(6) 0.0441(5)
C13_2 C 0.3148(5) 0.6013(7) 0.0521(5)
C14_2 C 0.4774(5) 0.9599(7) 0.1797(5)
O4_2 O 0.8912(3) 0.8744(4) 0.9638(3)
O5_2 O 0.2944(4) 0.5172(6) 0.9956(4)
C1_2 C 0.7560(5) 0.7781(6) 0.8747(5)
C2_2 C 0.6948(4) 0.7906(6) 0.9368(4)
H1_2 H 0.7145 0.8334 0.9946
C3_2 C 0.6034(4) 0.7404(6) 0.9150(5)
C4_2 C 0.5764(4) 0.6828(6) 0.8277(5)
H2_2 H 0.5131 0.6512 0.8097
C5_2 C 0.6406(4) 0.6714(6) 0.7681(4)
C6_2 C 0.6220(4) 0.6189(6) 0.6709(5)
C7_2 C 0.8591(4) 0.8225(6) 0.8878(5)
C10_2 C 0.5348(4) 0.7529(6) 0.9812(5)
C11_2 C 0.4621(4) 0.6654(7) 0.9813(5)
H4_2 H 0.4555 0.5970 0.9394
Co7_7 Co -0.0000 1.0000 1.0000
O9_2 O 0.1062(3) 0.8924(5) 0.9495(4)
O22_2 O 0.4621(4) 0.9584(5) 0.8133(4)
Co7_8 Co 1.0000 0.0000 0.0000
O7_2 O 0.5379(4) 0.0416(5) 0.1867(4)
O24_2 O 0.8938(3) 0.1076(5) 0.0505(4)
Co8 Co 0.0000 0.5000 0.0000
O27 O 0.0802(3) 0.5903(5) 0.1187(3)
H14 H 0.000482075 0.292457 0.0961586
H18 H 0.123207 0.325678 0.0239214
Co8_2 Co -0.0000 0.5000 1.0000
O28 O 0.1215(3) 0.4043(5) 0.9882(4)
O29 O 0.0470(3) 0.6392(4) 0.9136(3)
Co8_3 Co 1.0000 0.5000 0.0000
O25 O 0.8785(3) 0.5957(5) 0.0118(4)
O26 O 0.9530(3) 0.3608(4) 0.0864(3)
Co8_4 Co 1.0000 0.5000 1.0000
O30 O 0.9198(3) 0.4097(5) 0.8813(3)
H18_2 H 0.876793 0.674322 0.976079
H14_2 H 0.999518 0.707543 0.903841
Co8_5 Co 0.5000 -0.0000 0.5000
O25_2 O 0.6215(3) 0.0957(5) 0.4882(4)
O27_2 O 0.4198(3) 0.0903(5) 0.3813(3)
O29_2 O 0.4530(3) 0.1392(4) 0.5864(3)
Co8_6 Co 0.5000 1.0000 0.5000
O26_2 O 0.5470(3) 0.8608(4) 0.4136(3)
O28_2 O 0.3785(3) 0.9043(5) 0.5118(4)
O30_2 O 0.5802(3) 0.9097(5) 0.6187(3)
loop_
_geom_bond_atom_site_label_1
_geom_bond_atom_site_label_2
_geom_bond_site_symmetry_1
_geom_bond_site_symmetry_2
Co1 N1 1_555 1_555
N1 C8 1_555 1_555
O5 C13 1_555 1_555
O6 Co1 1_555 1_555
O8 Co1 1_555 1_555
H4 C11 1_555 1_555
C12 N1 1_555 1_555
C13 O6 1_555 1_555
C14 O8 1_555 1_555
N6 Co1 1_555 1_555
O12 Co1 1_555 1_555
O18 Co1 1_555 1_555
C8 C14 1_555 1_555
C11 C12 1_555 1_555
C12 C13 1_555 1_555
N2 C1 1_555 1_555
O1 C6 1_555 1_555
O2 C6 1_555 1_555
O3 C7 1_555 1_555
O4 C7 1_555 1_555
C1 C2 1_555 1_555
C2 H1 1_555 1_555
C3 C2 1_555 1_555
C4 C3 1_555 1_555
H2 C4 1_555 1_555
C5 N2 1_555 1_555
C6 C5 1_555 1_555
C7 C1 1_555 1_555
C9 H3 1_555 1_555
C10 C3 1_555 1_555
Co2 O4 1_555 1_555
O9 Co2 1_555 1_555
Co4 N4 1_555 1_555
Co5 N2 1_555 1_555
N4 C15 1_555 1_555
O10 Co4 1_555 1_555
O13 C20 1_555 1_555
O14 Co2 1_555 1_555
O15 Co2 1_555 1_555
O16 Co4 1_555 1_555
O19 Co2 1_555 1_555
C15 C16 1_555 1_555
C16 H5 1_555 1_555
C17 C16 1_555 1_555
C18 C17 1_555 1_555
H6 C18 1_555 1_555
C19 N4 1_555 1_555
C20 O10 1_555 1_555
C21 O16 1_555 1_555
C23 H7 1_555 1_555
C24 C17 1_555 1_555
Co7_3 O13 1_555 1_555
Co7_4 O2 1_555 1_555
O24 Co2 1_555 1_555
O1 Co5 1_555 1_555
O3 Co5 1_555 1_555
C4 C5 1_555 1_555
C9 C10 1_555 1_555
O19 C21 1_555 1_555
C15 C21 1_555 1_555
C18 C19 1_555 1_555
C19 C20 1_555 1_555
C23 C24 1_555 1_555
Co3 N3 1_555 1_555
N3 C22 1_555 1_555
N5 Co3 1_555 1_555
O11 Co3 1_555 1_555
O17 Co3 1_555 1_555
O20 C27 1_555 1_555
O21 Co3 1_555 1_555
O23 Co3 1_555 1_555
H8 C25 1_555 1_555
C26 N3 1_555 1_555
C27 O21 1_555 1_555
C28 O23 1_555 1_555
C22 C28 1_555 1_555
C25 C26 1_555 1_555
C26 C27 1_555 1_555
N6 C15_2 1_555 1_555
O15 C20_2 1_555 1_555
O19_2 Co7 1_555 1_555
C15_2 C16_2 1_555 1_555
C16_2 H5_2 1_555 1_555
C17_2 C16_2 1_555 1_555
C18_2 C17_2 1_555 1_555
H6_2 C18_2 1_555 1_555
C19_2 N6 1_555 1_555
C20_2 O12 1_555 1_555
C21_2 O18 1_555 1_555
C24_2 C17_2 1_555 1_555
C25_2 C24_2 1_555 1_555
H8_2 C25_2 1_555 1_555
O19_2 C21_2 1_555 1_555
C15_2 C21_2 1_555 1_555
C18_2 C19_2 1_555 1_555
C19_2 C20_2 1_555 1_555
Co5 N3_2 1_555 1_555
N3_2 C22_2 1_555 1_555
O21_2 Co5 1_555 1_555
O23_2 Co5 1_555 1_555
C22_2 C23_2 1_555 1_555
C23_2 H7_2 1_555 1_555
C26_2 N3_2 1_555 1_555
C27_2 O21_2 1_555 1_555
C28_2 O23_2 1_555 1_555
C22_2 C28_2 1_555 1_555
C26_2 C27_2 1_555 1_555
Co4 N1_2 1_555 1_555
N1_2 C8_2 1_555 1_555
O6_2 Co4 1_555 1_555
O8_2 Co4 1_555 1_555
C8_2 C9_2 1_555 1_555
C9_2 H3_2 1_555 1_555
C12_2 N1_2 1_555 1_555
C13_2 O6_2 1_555 1_555
C14_2 O8_2 1_555 1_555
C8_2 C14_2 1_555 1_555
C12_2 C13_2 1_555 1_555
N5 C1_2 1_555 1_555
O11 C6_2 1_555 1_555
O14 C6_2 1_555 1_555
O17 C7_2 1_555 1_555
O4_2 C7_2 1_555 1_555
C1_2 C2_2 1_555 1_555
C2_2 H1_2 1_555 1_555
C3_2 C2_2 1_555 1_555
C4_2 C3_2 1_555 1_555
H2_2 C4_2 1_555 1_555
C5_2 N5 1_555 1_555
C6_2 C5_2 1_555 1_555
C7_2 C1_2 1_555 1_555
C10_2 C3_2 1_555 1_555
C11_2 C10_2 1_555 1_555
H4_2 C11_2 1_555 1_555
Co7_6 O4_2 1_555 1_555
C4_2 C5_2 1_555 1_555
O9_2 Co7_7 1_555 1_555
O24_2 Co7_8 1_555 1_555
O27 Co8 1_555 1_555
O28 Co8_2 1_555 1_555
O29 Co8_2 1_555 1_555
Co8_3 O25 1_555 1_555
O26 Co8_3 1_555 1_555
O30 Co8_4 1_555 1_555
Co8_5 O25_2 1_555 1_555
O27_2 Co8_5 1_555 1_555
O29_2 Co8_5 1_555 1_555
O26_2 Co8_6 1_555 1_555
O28_2 Co8_6 1_555 1_555
O30_2 Co8_6 1_555 1_555

#END
