
###############################################################################
#
# This file contains modified crystal structure data generated from the
# MOF subset of the Cambridge Structural Database (CSD) v543 
# hosted by the Cambridge Crystallographic Data Centre (CCDC).
#
# This work is licensed under the Creative Commons
# Attribution-NonCommercial-ShareAlike 4.0 International License.
# To view a copy of this license, visit
# http://creativecommons.org/licenses/by-nc-sa/4.0/
# or send a letter to
# Creative Commons, PO Box 1866, Mountain View, CA 94042, USA.
#
# CIF created using the CSD Python API on 29 September 2022
# The structure has been converted into the P1 space group
# The structure has a 3D framework
# The original CSD entry CUCTAX is in the monoclinic crystal system
# The framework has been calculated to contain at least 10.0% void space
# The void calculation uses a probe of radius 1.32A, grid spacing 0.4
#
###############################################################################

data_CUCTAX
_chemical_formula_moiety         '(C240 H152 N24 O56 Zn14)n'
_symmetry_cell_setting           triclinic
_symmetry_space_group_name_H-M   'P 1'
_symmetry_Int_Tables_number      1
_space_group_name_Hall           'P 1'
loop_
_symmetry_equiv_pos_site_id
_symmetry_equiv_pos_as_xyz
1 x,y,z
_cell_length_a                   28.654(3)
_cell_length_b                   15.0332(16)
_cell_length_c                   16.5899(18)
_cell_angle_alpha                90
_cell_angle_beta                 119.904(2)
_cell_angle_gamma                90
_cell_volume                     6194.84
loop_
_atom_site_label
_atom_site_type_symbol
_atom_site_fract_x
_atom_site_fract_y
_atom_site_fract_z
Zn8 Zn 0.0000 0.78606(6) 0.2500
H18 H 0.4393 0.0876 0.0092
H21 H 0.4902 0.0137 0.1258
Zn1 Zn 0.36124(3) 0.19766(5) 0.68724(5)
Zn2 Zn 0.5000 0.28606(6) 0.2500
N1 N 0.29134(19) 0.1279(3) 0.6242(3)
N2 N 0.4125(2) 0.1278(3) 0.8008(4)
O1 O 0.4817(3) 0.2720(5) 0.3843(5)
O2 O 0.4472(2) 0.2001(4) 0.2553(5)
O3 O 0.1513(2) 0.1788(3) 0.2996(4)
O4 O 0.1871(3) 0.2149(4) 0.2138(5)
O5 O 0.28033(16) 0.0970(3) 0.3877(3)
O6 O 0.3802(2) 0.2079(3) 0.5880(3)
O7 O 0.3845(2) 0.0616(3) 0.5781(3)
C1 C 0.4469(4) 0.2198(6) 0.3271(8)
C2 C 0.4033(3) 0.1855(4) 0.3432(6)
C3 C 0.3555(3) 0.1591(5) 0.2695(5)
H1 H 0.3509 0.1605 0.2099
C4 C 0.3135(3) 0.1302(5) 0.2822(5)
H2 H 0.2804 0.1155 0.2312
C5 C 0.3213(2) 0.1235(4) 0.3707(4)
C6 C 0.3692(2) 0.1487(4) 0.4466(4)
C7 C 0.4090(3) 0.1834(4) 0.4308(5)
H3 H 0.4403 0.2057 0.4807
C8 C 0.3790(2) 0.1366(4) 0.5445(4)
C9 C 0.2432(3) 0.0353(4) 0.3240(5)
C13 C 0.1541(3) 0.0006(5) 0.2009(5)
H7 H 0.1191 0.0181 0.1585
C14 C 0.1915(2) 0.0634(4) 0.2601(4)
C15 C 0.1760(2) 0.1592(4) 0.2568(4)
C16 C 0.2927(3) 0.0382(4) 0.6185(5)
H8 H 0.3257 0.0094 0.6518
C18 C 0.1979(2) 0.0290(4) 0.5146(4)
C19 C 0.1960(2) 0.1216(4) 0.5206(4)
H10 H 0.1633 0.1515 0.4877
C20 C 0.2427(3) 0.1681(4) 0.5755(4)
H11 H 0.2408 0.2296 0.5794
C25 C 0.1123(3) 0.0045(6) 0.3662(6)
H15 H 0.1164 0.0593 0.3443
C26 C 0.4500(3) 0.0734(6) 0.8020(5)
H16 H 0.4526 0.0696 0.7484
C27 C 0.4847(3) 0.0228(6) 0.8776(5)
C28 C 0.4821(2) 0.0266(4) 0.9587(4)
C29 C 0.4431(4) 0.0828(6) 0.9569(6)
C30 C 0.4095(4) 0.1323(6) 0.8772(6)
H19 H 0.3840 0.1698 0.8784
O8 O 0.5183(3) 0.2720(5) 0.1157(5)
O9 O 0.5528(2) 0.2001(4) 0.2447(5)
O10 O 0.8487(2) 0.1788(3) 0.2004(4)
O11 O 0.8129(3) 0.2149(4) 0.2862(5)
O12 O 0.71967(16) 0.0970(3) 0.1123(3)
C36 C 0.5531(4) 0.2198(6) 0.1729(8)
C37 C 0.5967(3) 0.1855(4) 0.1568(6)
C38 C 0.6445(3) 0.1591(5) 0.2305(5)
H24 H 0.6491 0.1605 0.2901
C39 C 0.6865(3) 0.1302(5) 0.2178(5)
H25 H 0.7196 0.1155 0.2688
C40 C 0.6787(2) 0.1235(4) 0.1293(4)
C41 C 0.6308(2) 0.1487(4) 0.0534(4)
C42 C 0.5910(3) 0.1834(4) 0.0692(5)
H26 H 0.5597 0.2057 0.0193
C44 C 0.7568(3) 0.0353(4) 0.1760(5)
C48 C 0.8459(3) 0.0006(5) 0.2991(5)
H30 H 0.8809 0.0181 0.3415
C49 C 0.8085(2) 0.0634(4) 0.2399(4)
C50 C 0.8240(2) 0.1592(4) 0.2432(4)
H33 H 0.8367 0.1515 0.0123
C60 C 0.8877(3) 0.0045(6) 0.1338(6)
H38 H 0.8836 0.0593 0.1557
Zn5 Zn 0.13876(3) 0.30234(5) 0.31276(5)
Zn6 Zn 0.86124(3) 0.30234(5) 0.18724(5)
N8 N 0.55958(19) 0.3714(3) 0.3381(3)
N9 N 0.44042(19) 0.3714(3) 0.1619(3)
O15 O 0.3487(2) 0.3212(3) 0.7004(4)
Zn3 Zn 0.63876(3) 0.19766(5) 0.81276(5)
N5 N 0.70866(19) 0.1279(3) 0.8758(3)
O13 O 0.6198(2) 0.2079(3) 0.9120(3)
O14 O 0.6155(2) 0.0616(3) 0.9219(3)
C43 C 0.6210(2) 0.1366(4) 0.9555(4)
C51 C 0.7073(3) 0.0382(4) 0.8815(5)
H31 H 0.6743 0.0094 0.8482
C53 C 0.8021(2) 0.0290(4) 0.9854(4)
C54 C 0.8040(2) 0.1216(4) 0.9794(4)
C55 C 0.7573(3) 0.1681(4) 0.9245(4)
H34 H 0.7592 0.2296 0.9206
N7 N 0.5875(2) 0.1278(3) 0.6992(4)
O16 O 0.6513(2) 0.3212(3) 0.7996(4)
N4 N 0.5875(2) 0.8722(3) 0.1992(4)
C31 C 0.5500(3) 0.9266(6) 0.1980(5)
H20 H 0.5474 0.9304 0.2516
C32 C 0.5153(3) 0.9772(6) 0.1224(5)
C33 C 0.5179(2) 0.9734(4) 0.0413(4)
C34 C 0.5569(4) 0.9172(6) 0.0431(6)
C35 C 0.5905(4) 0.8677(6) 0.1228(6)
H23 H 0.6160 0.8302 0.1216
Zn4 Zn 0.63876(3) 0.80234(5) 0.31276(5)
N3 N 0.05958(19) 0.8714(3) 0.3381(3)
C10 C 0.2583(4) 0.9470(5) 0.3282(6)
H4 H 0.2930 0.9298 0.3724
C11 C 0.2239(5) 0.8861(5) 0.2699(8)
H5 H 0.2351 0.8278 0.2708
C12 C 0.1691(4) 0.9129(6) 0.2053(7)
H6 H 0.1440 0.8708 0.1669
C17 C 0.2475(3) 0.9881(4) 0.5654(5)
H9 H 0.2502 0.9266 0.5636
C21 C 0.1492(2) 0.9756(4) 0.4538(4)
C22 C 0.1391(4) 0.8933(6) 0.4847(6)
H12 H 0.1625 0.8724 0.5444
C23 C 0.0938(3) 0.8448(6) 0.4241(6)
H13 H 0.0871 0.7914 0.4446
C24 C 0.0678(3) 0.9488(6) 0.3099(6)
H14 H 0.0433 0.9677 0.2500
H17 H 0.5098 0.9863 0.8742
H22 H 0.5607 0.9124 0.9908
N6 N 0.94042(19) 0.8714(3) 0.1619(3)
C45 C 0.7417(4) 0.9470(5) 0.1718(6)
H27 H 0.7070 0.9298 0.1276
C46 C 0.7761(5) 0.8861(5) 0.2301(8)
H28 H 0.7649 0.8278 0.2292
C47 C 0.8309(4) 0.9129(6) 0.2947(7)
H29 H 0.8560 0.8708 0.3331
C56 C 0.8508(2) 0.9756(4) 0.0462(4)
C57 C 0.8609(4) 0.8933(6) 0.0153(6)
C58 C 0.9062(3) 0.8448(6) 0.0759(6)
H36 H 0.9129 0.7914 0.0554
C59 C 0.9322(3) 0.9488(6) 0.1901(6)
H37 H 0.9567 0.9677 0.2500
Zn8_2 Zn 1.0000 0.78606(6) 0.2500
C52 C 0.7525(3) 0.9881(4) 0.9346(5)
H32 H 0.7498 0.9266 0.9364
H35 H 0.8375 0.8724 0.9556
C26_2 C 0.5500(3) 0.0734(6) 0.6980(5)
H16_2 H 0.5474 0.0696 0.7516
C27_2 C 0.5153(3) 0.0228(6) 0.6224(5)
C28_2 C 0.5179(2) 0.0266(4) 0.5413(4)
C29_2 C 0.5569(4) 0.0828(6) 0.5431(6)
H18_2 H 0.5607 0.0876 0.4908
C30_2 C 0.5905(4) 0.1323(6) 0.6228(6)
H19_2 H 0.6160 0.1698 0.6216
H21_2 H 0.5098 0.0137 0.3742
H17_2 H 0.4902 0.9863 0.6258
N4_2 N 0.4125(2) 0.8722(3) 0.3008(4)
C31_2 C 0.4500(3) 0.9266(6) 0.3020(5)
H20_2 H 0.4526 0.9304 0.2484
C32_2 C 0.4847(3) 0.9772(6) 0.3776(5)
C33_2 C 0.4821(2) 0.9734(4) 0.4587(4)
C34_2 C 0.4431(4) 0.9172(6) 0.4569(6)
H22_2 H 0.4393 0.9124 0.5092
C35_2 C 0.4095(4) 0.8677(6) 0.3772(6)
H23_2 H 0.3840 0.8302 0.3784
Zn4_2 Zn 0.36124(3) 0.80234(5) 0.18724(5)
N4_3 N 0.0875(2) 0.3722(3) 0.1992(4)
C31_3 C 0.0500(3) 0.4266(6) 0.1980(5)
H20_3 H 0.0474 0.4304 0.2516
C32_3 C 0.0153(3) 0.4772(6) 0.1224(5)
C33_3 C 0.0179(2) 0.4734(4) 0.0413(4)
C34_3 C 0.0569(4) 0.4172(6) 0.0431(6)
C35_3 C 0.0905(4) 0.3677(6) 0.1228(6)
H23_3 H 0.1160 0.3302 0.1216
H17_3 H 0.0098 0.4863 0.8742
H22_3 H 0.0607 0.4124 0.9908
O8_2 O 0.0183(3) 0.7720(5) 0.1157(5)
O9_2 O 0.0528(2) 0.7001(4) 0.2447(5)
O10_2 O 0.3487(2) 0.6788(3) 0.2004(4)
O11_2 O 0.3129(3) 0.7149(4) 0.2862(5)
O12_2 O 0.21967(16) 0.5970(3) 0.1123(3)
C36_2 C 0.0531(4) 0.7198(6) 0.1729(8)
C37_2 C 0.0967(3) 0.6855(4) 0.1568(6)
C38_2 C 0.1445(3) 0.6591(5) 0.2305(5)
H24_2 H 0.1491 0.6605 0.2901
C39_2 C 0.1865(3) 0.6302(5) 0.2178(5)
H25_2 H 0.2196 0.6155 0.2688
C40_2 C 0.1787(2) 0.6235(4) 0.1293(4)
C41_2 C 0.1308(2) 0.6487(4) 0.0534(4)
C42_2 C 0.0910(3) 0.6834(4) 0.0692(5)
H26_2 H 0.0597 0.7057 0.0193
C44_2 C 0.2568(3) 0.5353(4) 0.1760(5)
C45_2 C 0.2417(4) 0.4470(5) 0.1718(6)
H27_2 H 0.2070 0.4298 0.1276
C46_2 C 0.2761(5) 0.3861(5) 0.2301(8)
H28_2 H 0.2649 0.3278 0.2292
C47_2 C 0.3309(4) 0.4129(6) 0.2947(7)
H29_2 H 0.3560 0.3708 0.3331
C48_2 C 0.3459(3) 0.5006(5) 0.2991(5)
H30_2 H 0.3809 0.5181 0.3415
C49_2 C 0.3085(2) 0.5634(4) 0.2399(4)
C50_2 C 0.3240(2) 0.6592(4) 0.2432(4)
H33_2 H 0.3367 0.6515 0.0123
C56_2 C 0.3508(2) 0.4756(4) 0.0462(4)
C57_2 C 0.3609(4) 0.3933(6) 0.0153(6)
C58_2 C 0.4062(3) 0.3448(6) 0.0759(6)
H36_2 H 0.4129 0.2914 0.0554
C59_2 C 0.4322(3) 0.4488(6) 0.1901(6)
H37_2 H 0.4567 0.4677 0.2500
C60_2 C 0.3877(3) 0.5045(6) 0.1338(6)
H38_2 H 0.3836 0.5593 0.1557
Zn3_2 Zn 0.13876(3) 0.69766(5) 0.81276(5)
N5_2 N 0.20866(19) 0.6279(3) 0.8758(3)
O13_2 O 0.1198(2) 0.7079(3) 0.9120(3)
O14_2 O 0.1155(2) 0.5616(3) 0.9219(3)
C43_2 C 0.1210(2) 0.6366(4) 0.9555(4)
C51_2 C 0.2073(3) 0.5382(4) 0.8815(5)
H31_2 H 0.1743 0.5094 0.8482
C52_2 C 0.2525(3) 0.4881(4) 0.9346(5)
H32_2 H 0.2498 0.4266 0.9364
C53_2 C 0.3021(2) 0.5290(4) 0.9854(4)
C54_2 C 0.3040(2) 0.6216(4) 0.9794(4)
C55_2 C 0.2573(3) 0.6681(4) 0.9245(4)
H34_2 H 0.2592 0.7296 0.9206
H35_2 H 0.3375 0.3724 0.9556
N7_2 N 0.0875(2) 0.6278(3) 0.6992(4)
O16_2 O 0.1513(2) 0.8212(3) 0.7996(4)
H18_3 H 0.9393 0.5876 0.0092
H21_3 H 0.9902 0.5137 0.1258
Zn1_2 Zn 0.86124(3) 0.69766(5) 0.68724(5)
N1_2 N 0.79134(19) 0.6279(3) 0.6242(3)
N2_2 N 0.9125(2) 0.6278(3) 0.8008(4)
O1_2 O 0.9817(3) 0.7720(5) 0.3843(5)
O2_2 O 0.9472(2) 0.7001(4) 0.2553(5)
O3_2 O 0.6513(2) 0.6788(3) 0.2996(4)
O4_2 O 0.6871(3) 0.7149(4) 0.2138(5)
O5_2 O 0.78033(16) 0.5970(3) 0.3877(3)
O6_2 O 0.8802(2) 0.7079(3) 0.5880(3)
O7_2 O 0.8845(2) 0.5616(3) 0.5781(3)
C1_2 C 0.9469(4) 0.7198(6) 0.3271(8)
C2_2 C 0.9033(3) 0.6855(4) 0.3432(6)
C3_2 C 0.8555(3) 0.6591(5) 0.2695(5)
H1_2 H 0.8509 0.6605 0.2099
C4_2 C 0.8135(3) 0.6302(5) 0.2822(5)
H2_2 H 0.7804 0.6155 0.2312
C5_2 C 0.8213(2) 0.6235(4) 0.3707(4)
C6_2 C 0.8692(2) 0.6487(4) 0.4466(4)
C7_2 C 0.9090(3) 0.6834(4) 0.4308(5)
H3_2 H 0.9403 0.7057 0.4807
C8_2 C 0.8790(2) 0.6366(4) 0.5445(4)
C9_2 C 0.7432(3) 0.5353(4) 0.3240(5)
C10_2 C 0.7583(4) 0.4470(5) 0.3282(6)
H4_2 H 0.7930 0.4298 0.3724
C11_2 C 0.7239(5) 0.3861(5) 0.2699(8)
H5_2 H 0.7351 0.3278 0.2708
C12_2 C 0.6691(4) 0.4129(6) 0.2053(7)
H6_2 H 0.6440 0.3708 0.1669
C13_2 C 0.6541(3) 0.5006(5) 0.2009(5)
H7_2 H 0.6191 0.5181 0.1585
C14_2 C 0.6915(2) 0.5634(4) 0.2601(4)
C15_2 C 0.6760(2) 0.6592(4) 0.2568(4)
C16_2 C 0.7927(3) 0.5382(4) 0.6185(5)
H8_2 H 0.8257 0.5094 0.6518
C17_2 C 0.7475(3) 0.4881(4) 0.5654(5)
H9_2 H 0.7502 0.4266 0.5636
C18_2 C 0.6979(2) 0.5290(4) 0.5146(4)
C19_2 C 0.6960(2) 0.6216(4) 0.5206(4)
H10_2 H 0.6633 0.6515 0.4877
C20_2 C 0.7427(3) 0.6681(4) 0.5755(4)
H11_2 H 0.7408 0.7296 0.5794
C21_2 C 0.6492(2) 0.4756(4) 0.4538(4)
C22_2 C 0.6391(4) 0.3933(6) 0.4847(6)
H12_2 H 0.6625 0.3724 0.5444
C23_2 C 0.5938(3) 0.3448(6) 0.4241(6)
H13_2 H 0.5871 0.2914 0.4446
C24_2 C 0.5678(3) 0.4488(6) 0.3099(6)
H14_2 H 0.5433 0.4677 0.2500
C25_2 C 0.6123(3) 0.5045(6) 0.3662(6)
H15_2 H 0.6164 0.5593 0.3443
C26_3 C 0.9500(3) 0.5734(6) 0.8020(5)
H16_3 H 0.9526 0.5696 0.7484
C27_3 C 0.9847(3) 0.5228(6) 0.8776(5)
C28_3 C 0.9821(2) 0.5266(4) 0.9587(4)
C29_3 C 0.9431(4) 0.5828(6) 0.9569(6)
C30_3 C 0.9095(4) 0.6323(6) 0.8772(6)
H19_3 H 0.8840 0.6698 0.8784
O15_2 O 0.8487(2) 0.8212(3) 0.7004(4)
C26_4 C 0.0500(3) 0.5734(6) 0.6980(5)
H16_4 H 0.0474 0.5696 0.7516
C27_4 C 0.0153(3) 0.5228(6) 0.6224(5)
C28_4 C 0.0179(2) 0.5266(4) 0.5413(4)
C29_4 C 0.0569(4) 0.5828(6) 0.5431(6)
H18_4 H 0.0607 0.5876 0.4908
C30_4 C 0.0905(4) 0.6323(6) 0.6228(6)
H19_4 H 0.1160 0.6698 0.6216
H21_4 H 0.0098 0.5137 0.3742
H17_4 H 0.9902 0.4863 0.6258
N4_4 N 0.9125(2) 0.3722(3) 0.3008(4)
C31_4 C 0.9500(3) 0.4266(6) 0.3020(5)
H20_4 H 0.9526 0.4304 0.2484
C32_4 C 0.9847(3) 0.4772(6) 0.3776(5)
C33_4 C 0.9821(2) 0.4734(4) 0.4587(4)
C34_4 C 0.9431(4) 0.4172(6) 0.4569(6)
H22_4 H 0.9393 0.4124 0.5092
C35_4 C 0.9095(4) 0.3677(6) 0.3772(6)
H23_4 H 0.8840 0.3302 0.3784
Zn7 Zn -0.0000 0.21394(6) 0.7500
C52_3 C 0.2475(3) 0.0119(4) 0.0654(5)
H32_3 H 0.2502 0.0734 0.0636
H35_3 H 0.1625 0.1276 0.0444
N3_2 N 0.94042(19) 0.1286(3) 0.6619(3)
C10_3 C 0.7417(4) 0.0530(5) 0.6718(6)
H4_3 H 0.7070 0.0702 0.6276
C11_3 C 0.7761(5) 0.1139(5) 0.7301(8)
H5_3 H 0.7649 0.1722 0.7292
C12_3 C 0.8309(4) 0.0871(6) 0.7947(7)
H6_3 H 0.8560 0.1292 0.8331
C17_3 C 0.7525(3) 0.0119(4) 0.4346(5)
H9_3 H 0.7498 0.0734 0.4364
C21_3 C 0.8508(2) 0.0244(4) 0.5462(4)
C22_3 C 0.8609(4) 0.1067(6) 0.5153(6)
H12_3 H 0.8375 0.1276 0.4556
C23_3 C 0.9062(3) 0.1552(6) 0.5759(6)
H13_3 H 0.9129 0.2086 0.5554
C24_3 C 0.9322(3) 0.0512(6) 0.6901(6)
H14_3 H 0.9567 0.0323 0.7500
N6_2 N 0.05958(19) 0.1286(3) 0.8381(3)
C45_3 C 0.2583(4) 0.0530(5) 0.8282(6)
H27_3 H 0.2930 0.0702 0.8724
C46_3 C 0.2239(5) 0.1139(5) 0.7699(8)
H28_3 H 0.2351 0.1722 0.7708
C47_3 C 0.1691(4) 0.0871(6) 0.7053(7)
H29_3 H 0.1440 0.1292 0.6669
C56_3 C 0.1492(2) 0.0244(4) 0.9538(4)
C57_3 C 0.1391(4) 0.1067(6) 0.9847(6)
C58_3 C 0.0938(3) 0.1552(6) 0.9241(6)
H36_3 H 0.0871 0.2086 0.9446
C59_3 C 0.0678(3) 0.0512(6) 0.8099(6)
H37_3 H 0.0433 0.0323 0.7500
Zn7_2 Zn 1.0000 0.21394(6) 0.7500
N5_3 N 0.29134(19) 0.8721(3) 0.1242(3)
O13_3 O 0.3802(2) 0.7921(3) 0.0880(3)
O14_3 O 0.3845(2) 0.9384(3) 0.0781(3)
C43_3 C 0.3790(2) 0.8634(4) 0.0445(4)
C51_3 C 0.2927(3) 0.9618(4) 0.1185(5)
H31_3 H 0.3257 0.9906 0.1518
C53_3 C 0.1979(2) 0.9710(4) 0.0146(4)
C54_3 C 0.1960(2) 0.8784(4) 0.0206(4)
C55_3 C 0.2427(3) 0.8319(4) 0.0755(4)
H34_3 H 0.2408 0.7704 0.0794
Zn2_2 Zn 0.5000 0.71394(6) 0.7500
N1_3 N 0.70866(19) 0.8721(3) 0.3758(3)
O1_3 O 0.5183(3) 0.7280(5) 0.6157(5)
O2_3 O 0.5528(2) 0.7999(4) 0.7447(5)
O4_3 O 0.8129(3) 0.7851(4) 0.7862(5)
O5_3 O 0.71967(16) 0.9030(3) 0.6123(3)
O6_3 O 0.6198(2) 0.7921(3) 0.4120(3)
O7_3 O 0.6155(2) 0.9384(3) 0.4219(3)
C1_3 C 0.5531(4) 0.7802(6) 0.6729(8)
C2_3 C 0.5967(3) 0.8145(4) 0.6568(6)
C3_3 C 0.6445(3) 0.8409(5) 0.7305(5)
H1_3 H 0.6491 0.8395 0.7901
C4_3 C 0.6865(3) 0.8698(5) 0.7178(5)
H2_3 H 0.7196 0.8845 0.7688
C5_3 C 0.6787(2) 0.8765(4) 0.6293(4)
C6_3 C 0.6308(2) 0.8513(4) 0.5534(4)
C7_3 C 0.5910(3) 0.8166(4) 0.5692(5)
H3_3 H 0.5597 0.7943 0.5193
C8_3 C 0.6210(2) 0.8634(4) 0.4555(4)
C9_3 C 0.7568(3) 0.9647(4) 0.6760(5)
C13_3 C 0.8459(3) 0.9994(5) 0.7991(5)
H7_3 H 0.8809 0.9819 0.8415
C14_3 C 0.8085(2) 0.9366(4) 0.7399(4)
C15_3 C 0.8240(2) 0.8408(4) 0.7432(4)
C16_3 C 0.7073(3) 0.9618(4) 0.3815(5)
H8_3 H 0.6743 0.9906 0.3482
C18_3 C 0.8021(2) 0.9710(4) 0.4854(4)
C19_3 C 0.8040(2) 0.8784(4) 0.4794(4)
H10_3 H 0.8367 0.8485 0.5123
C20_3 C 0.7573(3) 0.8319(4) 0.4245(4)
H11_3 H 0.7592 0.7704 0.4206
C25_3 C 0.8877(3) 0.9955(6) 0.6338(6)
H15_3 H 0.8836 0.9407 0.6557
O8_3 O 0.4817(3) 0.7280(5) 0.8843(5)
O9_3 O 0.4472(2) 0.7999(4) 0.7553(5)
O11_3 O 0.1871(3) 0.7851(4) 0.7138(5)
O12_3 O 0.28033(16) 0.9030(3) 0.8877(3)
C36_3 C 0.4469(4) 0.7802(6) 0.8271(8)
C37_3 C 0.4033(3) 0.8145(4) 0.8432(6)
C38_3 C 0.3555(3) 0.8409(5) 0.7695(5)
H24_3 H 0.3509 0.8395 0.7099
C39_3 C 0.3135(3) 0.8698(5) 0.7822(5)
H25_3 H 0.2804 0.8845 0.7312
C40_3 C 0.3213(2) 0.8765(4) 0.8707(4)
C41_3 C 0.3692(2) 0.8513(4) 0.9466(4)
C42_3 C 0.4090(3) 0.8166(4) 0.9308(5)
H26_3 H 0.4403 0.7943 0.9807
C44_3 C 0.2432(3) 0.9647(4) 0.8240(5)
C48_3 C 0.1541(3) 0.9994(5) 0.7009(5)
H30_3 H 0.1191 0.9819 0.6585
C49_3 C 0.1915(2) 0.9366(4) 0.7601(4)
C50_3 C 0.1760(2) 0.8408(4) 0.7568(4)
H33_3 H 0.1633 0.8485 0.9877
C60_3 C 0.1123(3) 0.9955(6) 0.8662(6)
H38_3 H 0.1164 0.9407 0.8443
N8_2 N 0.44042(19) 0.6286(3) 0.6619(3)
N9_2 N 0.55958(19) 0.6286(3) 0.8381(3)
N1_4 N 0.20866(19) 0.3721(3) 0.3758(3)
O1_4 O 0.0183(3) 0.2280(5) 0.6157(5)
O2_4 O 0.0528(2) 0.2999(4) 0.7447(5)
O4_4 O 0.3129(3) 0.2851(4) 0.7862(5)
O5_4 O 0.21967(16) 0.4030(3) 0.6123(3)
O6_4 O 0.1198(2) 0.2921(3) 0.4120(3)
O7_4 O 0.1155(2) 0.4384(3) 0.4219(3)
C1_4 C 0.0531(4) 0.2802(6) 0.6729(8)
C2_4 C 0.0967(3) 0.3145(4) 0.6568(6)
C3_4 C 0.1445(3) 0.3409(5) 0.7305(5)
H1_4 H 0.1491 0.3395 0.7901
C4_4 C 0.1865(3) 0.3698(5) 0.7178(5)
H2_4 H 0.2196 0.3845 0.7688
C5_4 C 0.1787(2) 0.3765(4) 0.6293(4)
C6_4 C 0.1308(2) 0.3513(4) 0.5534(4)
C7_4 C 0.0910(3) 0.3166(4) 0.5692(5)
H3_4 H 0.0597 0.2943 0.5193
C8_4 C 0.1210(2) 0.3634(4) 0.4555(4)
C9_4 C 0.2568(3) 0.4647(4) 0.6760(5)
C10_4 C 0.2417(4) 0.5530(5) 0.6718(6)
H4_4 H 0.2070 0.5702 0.6276
C11_4 C 0.2761(5) 0.6139(5) 0.7301(8)
H5_4 H 0.2649 0.6722 0.7292
C12_4 C 0.3309(4) 0.5871(6) 0.7947(7)
H6_4 H 0.3560 0.6292 0.8331
C13_4 C 0.3459(3) 0.4994(5) 0.7991(5)
H7_4 H 0.3809 0.4819 0.8415
C14_4 C 0.3085(2) 0.4366(4) 0.7399(4)
C15_4 C 0.3240(2) 0.3408(4) 0.7432(4)
C16_4 C 0.2073(3) 0.4618(4) 0.3815(5)
H8_4 H 0.1743 0.4906 0.3482
C17_4 C 0.2525(3) 0.5119(4) 0.4346(5)
H9_4 H 0.2498 0.5734 0.4364
C18_4 C 0.3021(2) 0.4710(4) 0.4854(4)
C19_4 C 0.3040(2) 0.3784(4) 0.4794(4)
H10_4 H 0.3367 0.3485 0.5123
C20_4 C 0.2573(3) 0.3319(4) 0.4245(4)
H11_4 H 0.2592 0.2704 0.4206
C21_4 C 0.3508(2) 0.5244(4) 0.5462(4)
C22_4 C 0.3609(4) 0.6067(6) 0.5153(6)
H12_4 H 0.3375 0.6276 0.4556
C23_4 C 0.4062(3) 0.6552(6) 0.5759(6)
H13_4 H 0.4129 0.7086 0.5554
C24_4 C 0.4322(3) 0.5512(6) 0.6901(6)
H14_4 H 0.4567 0.5323 0.7500
C25_4 C 0.3877(3) 0.4955(6) 0.6338(6)
H15_4 H 0.3836 0.4407 0.6557
N5_4 N 0.79134(19) 0.3721(3) 0.1242(3)
O13_4 O 0.8802(2) 0.2921(3) 0.0880(3)
O14_4 O 0.8845(2) 0.4384(3) 0.0781(3)
C43_4 C 0.8790(2) 0.3634(4) 0.0445(4)
C51_4 C 0.7927(3) 0.4618(4) 0.1185(5)
H31_4 H 0.8257 0.4906 0.1518
C52_4 C 0.7475(3) 0.5119(4) 0.0654(5)
H32_4 H 0.7502 0.5734 0.0636
C53_4 C 0.6979(2) 0.4710(4) 0.0146(4)
C54_4 C 0.6960(2) 0.3784(4) 0.0206(4)
C55_4 C 0.7427(3) 0.3319(4) 0.0755(4)
H34_4 H 0.7408 0.2704 0.0794
H35_4 H 0.6625 0.6276 0.0444
O8_4 O 0.9817(3) 0.2280(5) 0.8843(5)
O9_4 O 0.9472(2) 0.2999(4) 0.7553(5)
O11_4 O 0.6871(3) 0.2851(4) 0.7138(5)
O12_4 O 0.78033(16) 0.4030(3) 0.8877(3)
C36_4 C 0.9469(4) 0.2802(6) 0.8271(8)
C37_4 C 0.9033(3) 0.3145(4) 0.8432(6)
C38_4 C 0.8555(3) 0.3409(5) 0.7695(5)
H24_4 H 0.8509 0.3395 0.7099
C39_4 C 0.8135(3) 0.3698(5) 0.7822(5)
H25_4 H 0.7804 0.3845 0.7312
C40_4 C 0.8213(2) 0.3765(4) 0.8707(4)
C41_4 C 0.8692(2) 0.3513(4) 0.9466(4)
C42_4 C 0.9090(3) 0.3166(4) 0.9308(5)
H26_4 H 0.9403 0.2943 0.9807
C44_4 C 0.7432(3) 0.4647(4) 0.8240(5)
C45_4 C 0.7583(4) 0.5530(5) 0.8282(6)
H27_4 H 0.7930 0.5702 0.8724
C46_4 C 0.7239(5) 0.6139(5) 0.7699(8)
H28_4 H 0.7351 0.6722 0.7708
C47_4 C 0.6691(4) 0.5871(6) 0.7053(7)
H29_4 H 0.6440 0.6292 0.6669
C48_4 C 0.6541(3) 0.4994(5) 0.7009(5)
H30_4 H 0.6191 0.4819 0.6585
C49_4 C 0.6915(2) 0.4366(4) 0.7601(4)
C50_4 C 0.6760(2) 0.3408(4) 0.7568(4)
H33_4 H 0.6633 0.3485 0.9877
C56_4 C 0.6492(2) 0.5244(4) 0.9538(4)
C57_4 C 0.6391(4) 0.6067(6) 0.9847(6)
C58_4 C 0.5938(3) 0.6552(6) 0.9241(6)
H36_4 H 0.5871 0.7086 0.9446
C59_4 C 0.5678(3) 0.5512(6) 0.8099(6)
H37_4 H 0.5433 0.5323 0.7500
C60_4 C 0.6123(3) 0.4955(6) 0.8662(6)
H38_4 H 0.6164 0.4407 0.8443
loop_
_geom_bond_atom_site_label_1
_geom_bond_atom_site_label_2
_geom_bond_site_symmetry_1
_geom_bond_site_symmetry_2
Zn1 N1 1_555 1_555
Zn2 O1 1_555 1_555
N1 C16 1_555 1_555
N2 Zn1 1_555 1_555
O1 C1 1_555 1_555
O2 Zn2 1_555 1_555
O3 C15 1_555 1_555
O4 C15 1_555 1_555
O5 C5 1_555 1_555
O6 Zn1 1_555 1_555
O7 C8 1_555 1_555
C1 O2 1_555 1_555
C2 C1 1_555 1_555
C3 C2 1_555 1_555
H1 C3 1_555 1_555
C4 C3 1_555 1_555
H2 C4 1_555 1_555
C5 C4 1_555 1_555
C6 C5 1_555 1_555
C7 C2 1_555 1_555
H3 C7 1_555 1_555
C8 O6 1_555 1_555
C9 O5 1_555 1_555
H7 C13 1_555 1_555
C14 C9 1_555 1_555
C15 C14 1_555 1_555
C16 H8 1_555 1_555
C19 C18 1_555 1_555
H10 C19 1_555 1_555
C20 N1 1_555 1_555
H11 C20 1_555 1_555
H15 C25 1_555 1_555
C26 N2 1_555 1_555
H16 C26 1_555 1_555
C27 C26 1_555 1_555
C28 C27 1_555 1_555
C29 C28 1_555 1_555
C30 N2 1_555 1_555
H19 C30 1_555 1_555
O8 Zn2 1_555 1_555
O9 Zn2 1_555 1_555
O10 C50 1_555 1_555
O11 C50 1_555 1_555
O12 C40 1_555 1_555
C36 O8 1_555 1_555
C37 C36 1_555 1_555
C38 C37 1_555 1_555
H24 C38 1_555 1_555
C39 C38 1_555 1_555
H25 C39 1_555 1_555
C40 C39 1_555 1_555
C41 C40 1_555 1_555
C42 C37 1_555 1_555
H26 C42 1_555 1_555
C44 O12 1_555 1_555
H30 C48 1_555 1_555
C49 C44 1_555 1_555
C50 C49 1_555 1_555
H38 C60 1_555 1_555
Zn5 O3 1_555 1_555
Zn6 O10 1_555 1_555
N8 Zn2 1_555 1_555
N9 Zn2 1_555 1_555
O15 Zn1 1_555 1_555
C6 C7 1_555 1_555
C6 C8 1_555 1_555
C13 C14 1_555 1_555
C19 C20 1_555 1_555
C29 C30 1_555 1_555
O9 C36 1_555 1_555
C41 C42 1_555 1_555
C48 C49 1_555 1_555
Zn3 N5 1_555 1_555
N5 C51 1_555 1_555
O13 Zn3 1_555 1_555
O14 C43 1_555 1_555
C43 O13 1_555 1_555
C51 H31 1_555 1_555
C54 C53 1_555 1_555
C55 N5 1_555 1_555
H34 C55 1_555 1_555
N7 Zn3 1_555 1_555
O16 Zn3 1_555 1_555
C54 C55 1_555 1_555
N4 C31 1_555 1_555
C31 H20 1_555 1_555
C32 C31 1_555 1_555
C34 C33 1_555 1_555
C35 N4 1_555 1_555
H23 C35 1_555 1_555
Zn4 N4 1_555 1_555
C32 C33 1_555 1_555
C34 C35 1_555 1_555
N3 C23 1_555 1_555
H4 C10 1_555 1_555
C11 C10 1_555 1_555
H5 C11 1_555 1_555
C12 C11 1_555 1_555
H6 C12 1_555 1_555
H9 C17 1_555 1_555
C22 C21 1_555 1_555
H12 C22 1_555 1_555
C23 C22 1_555 1_555
H13 C23 1_555 1_555
C24 N3 1_555 1_555
H14 C24 1_555 1_555
N6 C58 1_555 1_555
H27 C45 1_555 1_555
C46 C45 1_555 1_555
H28 C46 1_555 1_555
C47 C46 1_555 1_555
H29 C47 1_555 1_555
C57 C56 1_555 1_555
C58 C57 1_555 1_555
H36 C58 1_555 1_555
C59 N6 1_555 1_555
H37 C59 1_555 1_555
Zn8 N3 1_555 1_555
Zn8_2 N6 1_555 1_555
H32 C52 1_555 1_555
C26_2 N7 1_555 1_555
H16_2 C26_2 1_555 1_555
C27_2 C26_2 1_555 1_555
C28_2 C27_2 1_555 1_555
C29_2 C28_2 1_555 1_555
H18_2 C29_2 1_555 1_555
C30_2 N7 1_555 1_555
H19_2 C30_2 1_555 1_555
C29_2 C30_2 1_555 1_555
N4_2 C31_2 1_555 1_555
C31_2 H20_2 1_555 1_555
C32_2 C31_2 1_555 1_555
C34_2 C33_2 1_555 1_555
H22_2 C34_2 1_555 1_555
C35_2 N4_2 1_555 1_555
H23_2 C35_2 1_555 1_555
Zn4_2 N4_2 1_555 1_555
C32_2 C33_2 1_555 1_555
C34_2 C35_2 1_555 1_555
N4_3 C31_3 1_555 1_555
C31_3 H20_3 1_555 1_555
C32_3 C31_3 1_555 1_555
C34_3 C33_3 1_555 1_555
C35_3 N4_3 1_555 1_555
H23_3 C35_3 1_555 1_555
Zn5 N4_3 1_555 1_555
C32_3 C33_3 1_555 1_555
C34_3 C35_3 1_555 1_555
N9 C58_2 1_555 1_555
O8_2 Zn8 1_555 1_555
O9_2 Zn8 1_555 1_555
O10_2 C50_2 1_555 1_555
O11_2 C50_2 1_555 1_555
O12_2 C40_2 1_555 1_555
C36_2 O8_2 1_555 1_555
C37_2 C36_2 1_555 1_555
C38_2 C37_2 1_555 1_555
H24_2 C38_2 1_555 1_555
C39_2 C38_2 1_555 1_555
H25_2 C39_2 1_555 1_555
C40_2 C39_2 1_555 1_555
C41_2 C40_2 1_555 1_555
C42_2 C37_2 1_555 1_555
H26_2 C42_2 1_555 1_555
C44_2 O12_2 1_555 1_555
C45_2 C44_2 1_555 1_555
H27_2 C45_2 1_555 1_555
C46_2 C45_2 1_555 1_555
H28_2 C46_2 1_555 1_555
C47_2 C46_2 1_555 1_555
H29_2 C47_2 1_555 1_555
C48_2 C47_2 1_555 1_555
H30_2 C48_2 1_555 1_555
C49_2 C44_2 1_555 1_555
C50_2 C49_2 1_555 1_555
C57_2 C56_2 1_555 1_555
C58_2 C57_2 1_555 1_555
H36_2 C58_2 1_555 1_555
C59_2 N9 1_555 1_555
H37_2 C59_2 1_555 1_555
C60_2 C56_2 1_555 1_555
H38_2 C60_2 1_555 1_555
Zn4_2 O10_2 1_555 1_555
O9_2 C36_2 1_555 1_555
C41_2 C42_2 1_555 1_555
C48_2 C49_2 1_555 1_555
C59_2 C60_2 1_555 1_555
Zn3_2 N5_2 1_555 1_555
N5_2 C51_2 1_555 1_555
O13_2 Zn3_2 1_555 1_555
O14_2 C43_2 1_555 1_555
C43_2 O13_2 1_555 1_555
C51_2 H31_2 1_555 1_555
C52_2 C51_2 1_555 1_555
H32_2 C52_2 1_555 1_555
C53_2 C52_2 1_555 1_555
C54_2 C53_2 1_555 1_555
C55_2 N5_2 1_555 1_555
H34_2 C55_2 1_555 1_555
N7_2 Zn3_2 1_555 1_555
O16_2 Zn3_2 1_555 1_555
C54_2 C55_2 1_555 1_555
Zn1_2 N1_2 1_555 1_555
Zn8_2 O1_2 1_555 1_555
N1_2 C16_2 1_555 1_555
N2_2 Zn1_2 1_555 1_555
N8 C23_2 1_555 1_555
O1_2 C1_2 1_555 1_555
O2_2 Zn8_2 1_555 1_555
O3_2 C15_2 1_555 1_555
O4_2 C15_2 1_555 1_555
O5_2 C5_2 1_555 1_555
O6_2 Zn1_2 1_555 1_555
O7_2 C8_2 1_555 1_555
C1_2 O2_2 1_555 1_555
C2_2 C1_2 1_555 1_555
C3_2 C2_2 1_555 1_555
H1_2 C3_2 1_555 1_555
C4_2 C3_2 1_555 1_555
H2_2 C4_2 1_555 1_555
C5_2 C4_2 1_555 1_555
C6_2 C5_2 1_555 1_555
C7_2 C2_2 1_555 1_555
H3_2 C7_2 1_555 1_555
C8_2 O6_2 1_555 1_555
C9_2 O5_2 1_555 1_555
C10_2 C9_2 1_555 1_555
H4_2 C10_2 1_555 1_555
C11_2 C10_2 1_555 1_555
H5_2 C11_2 1_555 1_555
C12_2 C11_2 1_555 1_555
H6_2 C12_2 1_555 1_555
C13_2 C12_2 1_555 1_555
H7_2 C13_2 1_555 1_555
C14_2 C9_2 1_555 1_555
C15_2 C14_2 1_555 1_555
C16_2 H8_2 1_555 1_555
C17_2 C16_2 1_555 1_555
H9_2 C17_2 1_555 1_555
C18_2 C17_2 1_555 1_555
C19_2 C18_2 1_555 1_555
H10_2 C19_2 1_555 1_555
C20_2 N1_2 1_555 1_555
H11_2 C20_2 1_555 1_555
C21_2 C18_2 1_555 1_555
C22_2 C21_2 1_555 1_555
H12_2 C22_2 1_555 1_555
C23_2 C22_2 1_555 1_555
H13_2 C23_2 1_555 1_555
C24_2 N8 1_555 1_555
H14_2 C24_2 1_555 1_555
C25_2 C21_2 1_555 1_555
H15_2 C25_2 1_555 1_555
C26_3 N2_2 1_555 1_555
H16_3 C26_3 1_555 1_555
C27_3 C26_3 1_555 1_555
C28_3 C27_3 1_555 1_555
C29_3 C28_3 1_555 1_555
C30_3 N2_2 1_555 1_555
H19_3 C30_3 1_555 1_555
Zn4 O3_2 1_555 1_555
O15_2 Zn1_2 1_555 1_555
C6_2 C7_2 1_555 1_555
C6_2 C8_2 1_555 1_555
C13_2 C14_2 1_555 1_555
C19_2 C20_2 1_555 1_555
C24_2 C25_2 1_555 1_555
C29_3 C30_3 1_555 1_555
C26_4 N7_2 1_555 1_555
H16_4 C26_4 1_555 1_555
C27_4 C26_4 1_555 1_555
C28_4 C27_4 1_555 1_555
C29_4 C28_4 1_555 1_555
H18_4 C29_4 1_555 1_555
C30_4 N7_2 1_555 1_555
H19_4 C30_4 1_555 1_555
C29_4 C30_4 1_555 1_555
N4_4 C31_4 1_555 1_555
C31_4 H20_4 1_555 1_555
C32_4 C31_4 1_555 1_555
C34_4 C33_4 1_555 1_555
H22_4 C34_4 1_555 1_555
C35_4 N4_4 1_555 1_555
H23_4 C35_4 1_555 1_555
Zn6 N4_4 1_555 1_555
C32_4 C33_4 1_555 1_555
C34_4 C35_4 1_555 1_555
H32_3 C52_3 1_555 1_555
N3_2 C23_3 1_555 1_555
H4_3 C10_3 1_555 1_555
C11_3 C10_3 1_555 1_555
H5_3 C11_3 1_555 1_555
C12_3 C11_3 1_555 1_555
H6_3 C12_3 1_555 1_555
H9_3 C17_3 1_555 1_555
C22_3 C21_3 1_555 1_555
H12_3 C22_3 1_555 1_555
C23_3 C22_3 1_555 1_555
H13_3 C23_3 1_555 1_555
C24_3 N3_2 1_555 1_555
H14_3 C24_3 1_555 1_555
N6_2 C58_3 1_555 1_555
H27_3 C45_3 1_555 1_555
C46_3 C45_3 1_555 1_555
H28_3 C46_3 1_555 1_555
C47_3 C46_3 1_555 1_555
H29_3 C47_3 1_555 1_555
C57_3 C56_3 1_555 1_555
C58_3 C57_3 1_555 1_555
H36_3 C58_3 1_555 1_555
C59_3 N6_2 1_555 1_555
H37_3 C59_3 1_555 1_555
Zn7_2 N3_2 1_555 1_555
Zn7 N6_2 1_555 1_555
Zn4_2 N5_3 1_555 1_555
N5_3 C51_3 1_555 1_555
O13_3 Zn4_2 1_555 1_555
O14_3 C43_3 1_555 1_555
C43_3 O13_3 1_555 1_555
C51_3 H31_3 1_555 1_555
C54_3 C53_3 1_555 1_555
C55_3 N5_3 1_555 1_555
H34_3 C55_3 1_555 1_555
C54_3 C55_3 1_555 1_555
Zn4 N1_3 1_555 1_555
Zn2_2 O1_3 1_555 1_555
N1_3 C16_3 1_555 1_555
O1_3 C1_3 1_555 1_555
O2_3 Zn2_2 1_555 1_555
O15_2 C15_3 1_555 1_555
O4_3 C15_3 1_555 1_555
O5_3 C5_3 1_555 1_555
O6_3 Zn4 1_555 1_555
O7_3 C8_3 1_555 1_555
C1_3 O2_3 1_555 1_555
C2_3 C1_3 1_555 1_555
C3_3 C2_3 1_555 1_555
H1_3 C3_3 1_555 1_555
C4_3 C3_3 1_555 1_555
H2_3 C4_3 1_555 1_555
C5_3 C4_3 1_555 1_555
C6_3 C5_3 1_555 1_555
C7_3 C2_3 1_555 1_555
H3_3 C7_3 1_555 1_555
C8_3 O6_3 1_555 1_555
C9_3 O5_3 1_555 1_555
H7_3 C13_3 1_555 1_555
C14_3 C9_3 1_555 1_555
C15_3 C14_3 1_555 1_555
C16_3 H8_3 1_555 1_555
C19_3 C18_3 1_555 1_555
H10_3 C19_3 1_555 1_555
C20_3 N1_3 1_555 1_555
H11_3 C20_3 1_555 1_555
H15_3 C25_3 1_555 1_555
O8_3 Zn2_2 1_555 1_555
O9_3 Zn2_2 1_555 1_555
O16_2 C50_3 1_555 1_555
O11_3 C50_3 1_555 1_555
O12_3 C40_3 1_555 1_555
C36_3 O8_3 1_555 1_555
C37_3 C36_3 1_555 1_555
C38_3 C37_3 1_555 1_555
H24_3 C38_3 1_555 1_555
C39_3 C38_3 1_555 1_555
H25_3 C39_3 1_555 1_555
C40_3 C39_3 1_555 1_555
C41_3 C40_3 1_555 1_555
C42_3 C37_3 1_555 1_555
H26_3 C42_3 1_555 1_555
C44_3 O12_3 1_555 1_555
H30_3 C48_3 1_555 1_555
C49_3 C44_3 1_555 1_555
C50_3 C49_3 1_555 1_555
H38_3 C60_3 1_555 1_555
N8_2 Zn2_2 1_555 1_555
N9_2 Zn2_2 1_555 1_555
C6_3 C7_3 1_555 1_555
C6_3 C8_3 1_555 1_555
C13_3 C14_3 1_555 1_555
C19_3 C20_3 1_555 1_555
O9_3 C36_3 1_555 1_555
C41_3 C42_3 1_555 1_555
C48_3 C49_3 1_555 1_555
Zn5 N1_4 1_555 1_555
Zn7 O1_4 1_555 1_555
N1_4 C16_4 1_555 1_555
N8_2 C23_4 1_555 1_555
O1_4 C1_4 1_555 1_555
O2_4 Zn7 1_555 1_555
O15 C15_4 1_555 1_555
O4_4 C15_4 1_555 1_555
O5_4 C5_4 1_555 1_555
O6_4 Zn5 1_555 1_555
O7_4 C8_4 1_555 1_555
C1_4 O2_4 1_555 1_555
C2_4 C1_4 1_555 1_555
C3_4 C2_4 1_555 1_555
H1_4 C3_4 1_555 1_555
C4_4 C3_4 1_555 1_555
H2_4 C4_4 1_555 1_555
C5_4 C4_4 1_555 1_555
C6_4 C5_4 1_555 1_555
C7_4 C2_4 1_555 1_555
H3_4 C7_4 1_555 1_555
C8_4 O6_4 1_555 1_555
C9_4 O5_4 1_555 1_555
C10_4 C9_4 1_555 1_555
H4_4 C10_4 1_555 1_555
C11_4 C10_4 1_555 1_555
H5_4 C11_4 1_555 1_555
C12_4 C11_4 1_555 1_555
H6_4 C12_4 1_555 1_555
C13_4 C12_4 1_555 1_555
H7_4 C13_4 1_555 1_555
C14_4 C9_4 1_555 1_555
C15_4 C14_4 1_555 1_555
C16_4 H8_4 1_555 1_555
C17_4 C16_4 1_555 1_555
H9_4 C17_4 1_555 1_555
C18_4 C17_4 1_555 1_555
C19_4 C18_4 1_555 1_555
H10_4 C19_4 1_555 1_555
C20_4 N1_4 1_555 1_555
H11_4 C20_4 1_555 1_555
C21_4 C18_4 1_555 1_555
C22_4 C21_4 1_555 1_555
H12_4 C22_4 1_555 1_555
C23_4 C22_4 1_555 1_555
H13_4 C23_4 1_555 1_555
C24_4 N8_2 1_555 1_555
H14_4 C24_4 1_555 1_555
C25_4 C21_4 1_555 1_555
H15_4 C25_4 1_555 1_555
C6_4 C7_4 1_555 1_555
C6_4 C8_4 1_555 1_555
C13_4 C14_4 1_555 1_555
C19_4 C20_4 1_555 1_555
C24_4 C25_4 1_555 1_555
Zn6 N5_4 1_555 1_555
N5_4 C51_4 1_555 1_555
O13_4 Zn6 1_555 1_555
O14_4 C43_4 1_555 1_555
C43_4 O13_4 1_555 1_555
C51_4 H31_4 1_555 1_555
C52_4 C51_4 1_555 1_555
H32_4 C52_4 1_555 1_555
C53_4 C52_4 1_555 1_555
C54_4 C53_4 1_555 1_555
C55_4 N5_4 1_555 1_555
H34_4 C55_4 1_555 1_555
C54_4 C55_4 1_555 1_555
N9_2 C58_4 1_555 1_555
O8_4 Zn7_2 1_555 1_555
O9_4 Zn7_2 1_555 1_555
O16 C50_4 1_555 1_555
O11_4 C50_4 1_555 1_555
O12_4 C40_4 1_555 1_555
C36_4 O8_4 1_555 1_555
C37_4 C36_4 1_555 1_555
C38_4 C37_4 1_555 1_555
H24_4 C38_4 1_555 1_555
C39_4 C38_4 1_555 1_555
H25_4 C39_4 1_555 1_555
C40_4 C39_4 1_555 1_555
C41_4 C40_4 1_555 1_555
C42_4 C37_4 1_555 1_555
H26_4 C42_4 1_555 1_555
C44_4 O12_4 1_555 1_555
C45_4 C44_4 1_555 1_555
H27_4 C45_4 1_555 1_555
C46_4 C45_4 1_555 1_555
H28_4 C46_4 1_555 1_555
C47_4 C46_4 1_555 1_555
H29_4 C47_4 1_555 1_555
C48_4 C47_4 1_555 1_555
H30_4 C48_4 1_555 1_555
C49_4 C44_4 1_555 1_555
C50_4 C49_4 1_555 1_555
C57_4 C56_4 1_555 1_555
C58_4 C57_4 1_555 1_555
H36_4 C58_4 1_555 1_555
C59_4 N9_2 1_555 1_555
H37_4 C59_4 1_555 1_555
C60_4 C56_4 1_555 1_555
H38_4 C60_4 1_555 1_555
O9_4 C36_4 1_555 1_555
C41_4 C42_4 1_555 1_555
C48_4 C49_4 1_555 1_555
C59_4 C60_4 1_555 1_555

#END
