
###############################################################################
#
# This file contains modified crystal structure data generated from the
# MOF subset of the Cambridge Structural Database (CSD) v543 
# hosted by the Cambridge Crystallographic Data Centre (CCDC).
#
# This work is licensed under the Creative Commons
# Attribution-NonCommercial-ShareAlike 4.0 International License.
# To view a copy of this license, visit
# http://creativecommons.org/licenses/by-nc-sa/4.0/
# or send a letter to
# Creative Commons, PO Box 1866, Mountain View, CA 94042, USA.
#
# CIF created using the CSD Python API on 29 September 2022
# The structure has been converted into the P1 space group
# The structure has a 3D framework
# The original CSD entry CUDBIP is in the monoclinic crystal system
# The framework has been calculated to contain at least 10.0% void space
# The void calculation uses a probe of radius 1.32A, grid spacing 0.4
#
###############################################################################

data_CUDBIP
_chemical_formula_moiety         '(C312 H228 N48 O60 Zn12)n'
_symmetry_cell_setting           triclinic
_symmetry_space_group_name_H-M   'P 1'
_symmetry_Int_Tables_number      1
_space_group_name_Hall           'P 1'
loop_
_symmetry_equiv_pos_site_id
_symmetry_equiv_pos_as_xyz
1 x,y,z
_cell_length_a                   11.3793(9)
_cell_length_b                   21.0931(17)
_cell_length_c                   46.794(4)
_cell_angle_alpha                90
_cell_angle_beta                 92.07
_cell_angle_gamma                90
_cell_volume                     11224.4
loop_
_atom_site_label
_atom_site_type_symbol
_atom_site_fract_x
_atom_site_fract_y
_atom_site_fract_z
H31 H 0.0082 0.1074 0.0012
C46 C 0.1739(19) 0.2493(8) 0.0117(3)
H34 H 0.1359 0.2359 0.0279
C49 C 0.2846(16) 0.2719(8) 0.0150(4)
H37 H 0.3209 0.2751 0.0330
O10 O 0.5377(10) 0.3013(5) 0.0106(2)
C44 C 0.1141(13) 0.2449(6) 0.9856(3)
C47 C 0.1784(18) 0.2636(9) 0.9617(4)
H35 H 0.1431 0.2585 0.9436
C50 C 0.2915(16) 0.2892(9) 0.9636(4)
C51 C 0.3484(13) 0.2918(6) 0.9886(3)
H38 H 0.3265 0.3045 0.9474
C52 C 0.4628(15) 0.3181(7) 0.9908(4)
O12 O 0.4917(9) 0.3618(4) 0.9725(2)
Zn6 Zn 0.64269(16) 0.40112(7) 0.97925(4)
O11 O 0.0879(8) 0.8837(4) 0.8817(2)
N1 N 0.7748(10) 0.1560(5) 0.4708(3)
Zn1 Zn 0.64269(16) 0.09888(7) 0.47925(4)
N2 N 0.6686(11) 0.0641(5) 0.5190(2)
O1 O 0.6423(9) 0.0184(4) 0.4597(2)
O2 O 0.4917(9) 0.1382(4) 0.4725(2)
C1 C 0.7052(15) 0.1040(7) 0.5426(4)
C2 C 0.6538(13) 0.0035(6) 0.5247(3)
C3 C 0.6425(15) 0.0169(6) 0.4319(4)
C4 C 0.7280(15) 0.0796(7) 0.5686(3)
H1 H 0.7130 0.1474 0.5398
O3 O 0.6612(11) 0.0645(5) 0.4183(2)
H3 H 0.7583 0.1059 0.5830
C7 C 0.7081(15) 0.0172(6) 0.5746(3)
O4 O 0.7367(11) 0.0382(4) 0.6228(2)
C14 C 0.7571(17) 0.0197(7) 0.6516(3)
C17 C 0.7523(17) 0.0661(7) 0.6719(4)
C20 C 0.7626(17) 0.0532(8) 0.7006(3)
H13 H 0.7416 0.1079 0.6661
H15 H 0.7512 0.0845 0.7142
C29 C 0.801(2) 0.0189(9) 0.7569(4)
H22 H 0.7220 0.0360 0.7569
H23 H 0.8549 0.0532 0.7529
C33 C 0.851(2) 0.0223(9) 0.8084(4)
H25 H 0.8529 0.0660 0.8059
H27 H 0.8596 0.0263 0.8490
C37 C 0.9460(13) 0.0437(6) 0.9402(3)
C38 C 0.928(2) 0.1013(6) 0.9262(4)
C39 C 0.971(2) 0.0511(8) 0.9685(4)
H28 H 0.9064 0.1015 0.9069
C40 C 0.943(2) 0.1577(10) 0.9405(5)
H29 H 0.9784 0.0147 0.9796
C41 C 0.987(2) 0.1072(7) 0.9818(3)
H30 H 0.9309 0.1955 0.9305
C42 C 0.9739(13) 0.1599(7) 0.9690(3)
C43 C 0.9889(14) 0.2208(6) 0.9846(3)
N7 N 0.9140(11) 0.2713(5) 0.9740(3)
C45 C 0.8209(14) 0.2983(6) 0.9868(3)
N8 N 0.9277(16) 0.3013(8) 0.9482(3)
C48 C 0.8374(19) 0.3449(9) 0.9486(4)
H36 H 0.8229 0.3734 0.9337
N10 N 0.7748(10) 0.3440(5) 0.9708(3)
H2 H 0.6293 0.9767 0.5099
C5 C 0.6721(16) 0.9787(6) 0.5506(3)
C6 C 0.6224(12) 0.9583(5) 0.4185(3)
H4 H 0.6612 0.9354 0.5532
C8 C 0.5870(13) 0.9034(7) 0.4333(3)
C9 C 0.6386(14) 0.9479(7) 0.3879(3)
C10 C 0.7339(18) 0.9904(7) 0.6019(3)
C11 C 0.5684(13) 0.8446(6) 0.4205(3)
H5 H 0.5755 0.9069 0.4528
C12 C 0.6230(15) 0.8905(6) 0.3761(3)
H6 H 0.6601 0.9818 0.3765
H7 H 0.6744 0.9593 0.6063
H8 H 0.8094 0.9691 0.6018
C13 C 0.5883(12) 0.8398(6) 0.3920(3)
H9 H 0.5434 0.8099 0.4310
H10 H 0.6361 0.8851 0.3567
C15 C 0.5725(12) 0.7733(6) 0.3770(3)
C16 C 0.793(2) 0.9607(9) 0.6595(4)
H11 H 0.5889 0.7797 0.3568
N3 N 0.6595(10) 0.7273(5) 0.3881(3)
C18 C 0.4518(14) 0.7482(6) 0.3777(3)
C19 C 0.822(2) 0.9484(9) 0.6883(4)
H12 H 0.7991 0.9288 0.6459
C21 C 0.7361(12) 0.6962(6) 0.3728(3)
N4 N 0.6569(12) 0.7081(6) 0.4155(3)
C22 C 0.3583(14) 0.7864(6) 0.3780(3)
C23 C 0.4309(16) 0.6866(8) 0.3760(4)
C24 C 0.7898(19) 0.9935(8) 0.7082(3)
H14 H 0.8611 0.9114 0.6939
H16 H 0.7475 0.7016 0.3534
N5 N 0.7947(10) 0.6555(5) 0.3903(2)
C25 C 0.7412(14) 0.6657(7) 0.4156(3)
C26 C 0.2416(13) 0.7628(7) 0.3755(3)
H17 H 0.3700 0.8299 0.3798
C27 C 0.3182(14) 0.6598(7) 0.3748(4)
H18 H 0.4951 0.6593 0.3757
O5 O 0.8081(15) 0.9736(6) 0.7368(2)
Zn2 Zn 0.91962(15) 0.59448(7) 0.37903(3)
H19 H 0.7636 0.6435 0.4321
C28 C 0.2225(12) 0.6980(7) 0.3751(3)
H20 H 0.1783 0.7907 0.3741
H21 H 0.3091 0.6161 0.3737
C30 C 0.1049(14) 0.6713(6) 0.3727(3)
C31 C 0.8347(14) 0.9881(7) 0.7877(3)
O6 O 0.0879(8) 0.6163(4) 0.3817(2)
O7 O 0.0243(10) 0.7016(5) 0.3604(2)
C32 C 0.8496(16) 0.9263(9) 0.7885(4)
H24 H 0.8442 0.9014 0.7721
C34 C 0.8761(17) 0.8984(8) 0.8177(4)
C35 C 0.8643(18) 0.9991(9) 0.8334(4)
H26 H 0.8851 0.8549 0.8203
N6 N 0.8856(11) 0.9358(6) 0.8385(3)
O8 O 0.9054(10) 0.9855(4) 0.8999(2)
C36 C 0.9254(13) 0.9801(9) 0.9272(4)
O9 O 0.9332(10) 0.9309(5) 0.9400(2)
Zn4 Zn 0.91962(15) 0.90552(7) 0.87903(3)
N9 N 0.7947(10) 0.8445(5) 0.8903(2)
H31_2 H 0.0082 0.3926 0.5012
C44_2 C 0.1141(13) 0.2551(6) 0.4856(3)
C46_2 C 0.1739(19) 0.2507(8) 0.5117(3)
C47_2 C 0.1784(18) 0.2364(9) 0.4617(4)
H34_2 H 0.1359 0.2641 0.5279
C49_2 C 0.2846(16) 0.2281(8) 0.5150(4)
H35_2 H 0.1431 0.2415 0.4436
C50_2 C 0.2915(16) 0.2108(9) 0.4636(4)
H37_2 H 0.3209 0.2249 0.5330
C51_2 C 0.3484(13) 0.2082(6) 0.4886(3)
H38_2 H 0.3265 0.1955 0.4474
C52_2 C 0.4628(15) 0.1819(7) 0.4908(4)
O10_2 O 0.5377(10) 0.1987(5) 0.5106(2)
N2_2 N 0.6686(11) 0.4359(5) 0.0190(2)
C1_2 C 0.7052(15) 0.3960(7) 0.0426(4)
C2_2 C 0.6538(13) 0.4965(6) 0.0247(3)
C4_2 C 0.7280(15) 0.4204(7) 0.0686(3)
H1_2 H 0.7130 0.3526 0.0398
H2_2 H 0.6293 0.5233 0.0099
C5_2 C 0.6721(16) 0.5213(6) 0.0506(3)
H3_2 H 0.7583 0.3941 0.0830
C7_2 C 0.7081(15) 0.4828(6) 0.0746(3)
H4_2 H 0.6612 0.5646 0.0532
C10_2 C 0.7339(18) 0.5096(7) 0.1019(3)
H7_2 H 0.6744 0.5407 0.1063
H8_2 H 0.8094 0.5309 0.1018
O4_2 O 0.7367(11) 0.4618(4) 0.1228(2)
C14_2 C 0.7571(17) 0.4803(7) 0.1516(3)
C16_2 C 0.793(2) 0.5393(9) 0.1595(4)
C17_2 C 0.7523(17) 0.4339(7) 0.1719(4)
C19_2 C 0.822(2) 0.5516(9) 0.1883(4)
H12_2 H 0.7991 0.5712 0.1459
C20_2 C 0.7626(17) 0.4468(8) 0.2006(3)
H13_2 H 0.7416 0.3921 0.1661
C24_2 C 0.7898(19) 0.5065(8) 0.2082(3)
H14_2 H 0.8611 0.5886 0.1939
H15_2 H 0.7512 0.4155 0.2142
O5_2 O 0.8081(15) 0.5264(6) 0.2368(2)
C29_2 C 0.801(2) 0.4811(9) 0.2569(4)
C31_2 C 0.8347(14) 0.5119(7) 0.2877(3)
H22_2 H 0.7220 0.4640 0.2569
H23_2 H 0.8549 0.4468 0.2529
C32_2 C 0.8496(16) 0.5737(9) 0.2885(4)
C33_2 C 0.851(2) 0.4777(9) 0.3084(4)
H24_2 H 0.8442 0.5986 0.2721
C34_2 C 0.8761(17) 0.6016(8) 0.3177(4)
C35_2 C 0.8643(18) 0.5009(9) 0.3334(4)
H25_2 H 0.8529 0.4340 0.3059
H26_2 H 0.8851 0.6451 0.3203
N6_2 N 0.8856(11) 0.5642(6) 0.3385(3)
H27_2 H 0.8596 0.4737 0.3490
O8_2 O 0.9054(10) 0.5145(4) 0.3999(2)
C36_2 C 0.9254(13) 0.5199(9) 0.4272(4)
C37_2 C 0.9460(13) 0.4563(6) 0.4402(3)
O9_2 O 0.9332(10) 0.5691(5) 0.4400(2)
C38_2 C 0.928(2) 0.3987(6) 0.4262(4)
C39_2 C 0.971(2) 0.4489(8) 0.4685(4)
H28_2 H 0.9064 0.3985 0.4069
C40_2 C 0.943(2) 0.3423(10) 0.4405(5)
H29_2 H 0.9784 0.4853 0.4796
C41_2 C 0.987(2) 0.3928(7) 0.4818(3)
H30_2 H 0.9309 0.3045 0.4305
C42_2 C 0.9739(13) 0.3401(7) 0.4690(3)
C43_2 C 0.9889(14) 0.2792(6) 0.4846(3)
H32 H 0.9678 0.2872 0.5044
N7_2 N 0.9140(11) 0.2287(5) 0.4740(3)
C45_2 C 0.8209(14) 0.2017(6) 0.4868(3)
N8_2 N 0.9277(16) 0.1987(8) 0.4482(3)
H33 H 0.7936 0.2138 0.5045
C48_2 C 0.8374(19) 0.1551(9) 0.4486(4)
H36_2 H 0.8229 0.1266 0.4337
O1_2 O 0.6423(9) 0.4816(4) 0.9597(2)
C3_2 C 0.6425(15) 0.4831(6) 0.9319(4)
O3_2 O 0.6612(11) 0.4355(5) 0.9183(2)
C6_2 C 0.6224(12) 0.5417(5) 0.9185(3)
C8_2 C 0.5870(13) 0.5966(7) 0.9333(3)
C9_2 C 0.6386(14) 0.5521(7) 0.8879(3)
C11_2 C 0.5684(13) 0.6554(6) 0.9205(3)
H5_2 H 0.5755 0.5931 0.9528
C12_2 C 0.6230(15) 0.6095(6) 0.8761(3)
H6_2 H 0.6601 0.5182 0.8765
C13_2 C 0.5883(12) 0.6602(6) 0.8920(3)
H9_2 H 0.5434 0.6901 0.9310
H10_2 H 0.6361 0.6149 0.8567
C15_2 C 0.5725(12) 0.7267(6) 0.8770(3)
H11_2 H 0.5889 0.7203 0.8568
N3_2 N 0.6595(10) 0.7727(5) 0.8881(3)
C18_2 C 0.4518(14) 0.7518(6) 0.8777(3)
C21_2 C 0.7361(12) 0.8038(6) 0.8728(3)
N4_2 N 0.6569(12) 0.7919(6) 0.9155(3)
C22_2 C 0.3583(14) 0.7136(6) 0.8780(3)
C23_2 C 0.4309(16) 0.8134(8) 0.8760(4)
H16_2 H 0.7475 0.7984 0.8534
C25_2 C 0.7412(14) 0.8343(7) 0.9156(3)
C26_2 C 0.2416(13) 0.7372(7) 0.8755(3)
H17_2 H 0.3700 0.6701 0.8798
C27_2 C 0.3182(14) 0.8402(7) 0.8748(4)
H18_2 H 0.4951 0.8407 0.8757
H19_2 H 0.7636 0.8565 0.9321
C28_2 C 0.2225(12) 0.8020(7) 0.8751(3)
H20_2 H 0.1783 0.7093 0.8741
H21_2 H 0.3091 0.8839 0.8737
C30_2 C 0.1049(14) 0.8287(6) 0.8727(3)
O7_2 O 0.0243(10) 0.7984(5) 0.8604(2)
H32_2 H 0.9678 0.2128 0.0044
H33_2 H 0.7936 0.2862 0.0045
Zn3 Zn 0.08038(15) 0.09448(7) 0.12097(3)
N1_2 N 0.2252(10) 0.6560(5) 0.0292(3)
Zn1_2 Zn 0.35731(16) 0.59888(7) 0.02075(4)
O1_3 O 0.3577(9) 0.5184(4) 0.0403(2)
O2_2 O 0.5083(9) 0.6382(4) 0.0275(2)
C3_3 C 0.3575(15) 0.5169(6) 0.0681(4)
O3_3 O 0.3388(11) 0.5645(5) 0.0817(2)
C6_3 C 0.3776(12) 0.4583(5) 0.0815(3)
C8_3 C 0.4130(13) 0.4034(7) 0.0667(3)
C9_3 C 0.3614(14) 0.4479(7) 0.1121(3)
C11_3 C 0.4316(13) 0.3446(6) 0.0795(3)
H5_3 H 0.4245 0.4069 0.0472
C12_3 C 0.3770(15) 0.3905(6) 0.1239(3)
H6_3 H 0.3399 0.4818 0.1235
C13_3 C 0.4117(12) 0.3398(6) 0.1080(3)
H9_3 H 0.4566 0.3099 0.0690
H10_3 H 0.3639 0.3851 0.1433
C15_3 C 0.4275(12) 0.2733(6) 0.1230(3)
H11_3 H 0.4111 0.2797 0.1432
N3_3 N 0.3405(10) 0.2273(5) 0.1119(3)
C18_3 C 0.5482(14) 0.2482(6) 0.1223(3)
C21_3 C 0.2639(12) 0.1962(6) 0.1272(3)
N4_3 N 0.3431(12) 0.2081(6) 0.0845(3)
C22_3 C 0.6417(14) 0.2864(6) 0.1220(3)
C23_3 C 0.5691(16) 0.1866(8) 0.1240(4)
H16_3 H 0.2525 0.2016 0.1466
N5_2 N 0.2053(10) 0.1555(5) 0.1097(2)
C25_3 C 0.2588(14) 0.1657(7) 0.0844(3)
C26_3 C 0.7584(13) 0.2628(7) 0.1245(3)
H17_3 H 0.6300 0.3299 0.1202
C27_3 C 0.6818(14) 0.1598(7) 0.1252(4)
H18_3 H 0.5049 0.1593 0.1243
H19_3 H 0.2364 0.1435 0.0679
C28_3 C 0.7775(12) 0.1980(7) 0.1249(3)
H20_3 H 0.8217 0.2907 0.1259
H21_3 H 0.6909 0.1161 0.1263
C30_3 C 0.8951(14) 0.1713(6) 0.1273(3)
O6_2 O 0.9121(8) 0.1163(4) 0.1183(2)
O7_3 O 0.9757(10) 0.2016(5) 0.1396(2)
N2_3 N 0.3314(11) 0.5641(5) 0.9810(2)
C1_3 C 0.2948(15) 0.6040(7) 0.9574(4)
C2_3 C 0.3462(13) 0.5035(6) 0.9753(3)
C4_3 C 0.2720(15) 0.5796(7) 0.9314(3)
H1_3 H 0.2870 0.6474 0.9602
H2_3 H 0.3707 0.4767 0.9901
C5_3 C 0.3279(16) 0.4787(6) 0.9494(3)
H3_3 H 0.2417 0.6059 0.9170
C7_3 C 0.2919(15) 0.5172(6) 0.9254(3)
H4_3 H 0.3388 0.4354 0.9468
C10_3 C 0.2661(18) 0.4904(7) 0.8981(3)
H7_3 H 0.3256 0.4593 0.8937
H8_3 H 0.1906 0.4691 0.8982
O4_3 O 0.2633(11) 0.5382(4) 0.8772(2)
C14_3 C 0.2429(17) 0.5197(7) 0.8484(3)
C16_3 C 0.207(2) 0.4607(9) 0.8405(4)
C17_3 C 0.2477(17) 0.5661(7) 0.8281(4)
C19_3 C 0.178(2) 0.4484(9) 0.8117(4)
H12_3 H 0.2009 0.4288 0.8541
C20_3 C 0.2374(17) 0.5532(8) 0.7994(3)
H13_3 H 0.2584 0.6079 0.8339
C24_3 C 0.2102(19) 0.4935(8) 0.7918(3)
H14_3 H 0.1389 0.4114 0.8061
H15_3 H 0.2488 0.5845 0.7858
O5_3 O 0.1919(15) 0.4736(6) 0.7632(2)
C29_3 C 0.199(2) 0.5189(9) 0.7431(4)
C31_3 C 0.1653(14) 0.4881(7) 0.7123(3)
H22_3 H 0.2780 0.5360 0.7431
H23_3 H 0.1451 0.5532 0.7471
C32_3 C 0.1504(16) 0.4263(9) 0.7115(4)
C33_3 C 0.149(2) 0.5223(9) 0.6916(4)
H24_3 H 0.1558 0.4014 0.7279
C34_3 C 0.1239(17) 0.3984(8) 0.6823(4)
C35_3 C 0.1357(18) 0.4991(9) 0.6666(4)
H25_3 H 0.1471 0.5660 0.6941
H26_3 H 0.1149 0.3549 0.6797
N6_3 N 0.1144(11) 0.4358(6) 0.6615(3)
H27_3 H 0.1404 0.5263 0.6510
O8_3 O 0.0946(10) 0.4855(4) 0.6001(2)
C36_3 C 0.0746(13) 0.4801(9) 0.5728(4)
C37_3 C 0.0540(13) 0.5437(6) 0.5598(3)
O9_3 O 0.0668(10) 0.4309(5) 0.5600(2)
C38_3 C 0.072(2) 0.6013(6) 0.5738(4)
C39_3 C 0.029(2) 0.5511(8) 0.5315(4)
H28_3 H 0.0936 0.6015 0.5931
C40_3 C 0.057(2) 0.6577(10) 0.5595(5)
H29_3 H 0.0216 0.5147 0.5204
C41_3 C 0.013(2) 0.6072(7) 0.5182(3)
H30_3 H 0.0691 0.6955 0.5695
C42_3 C 0.0261(13) 0.6599(7) 0.5310(3)
C43_3 C 0.0111(14) 0.7208(6) 0.5154(3)
H32_3 H 0.0322 0.7128 0.4956
N7_3 N 0.0860(11) 0.7713(5) 0.5260(3)
C45_3 C 0.1791(14) 0.7983(6) 0.5132(3)
N8_3 N 0.0723(16) 0.8013(8) 0.5518(3)
H33_3 H 0.2064 0.7862 0.4955
C48_3 C 0.1626(19) 0.8449(9) 0.5514(4)
H36_3 H 0.1771 0.8734 0.5663
Zn4_2 Zn 0.08038(15) 0.40552(7) 0.62097(3)
N9_2 N 0.2053(10) 0.3445(5) 0.6097(2)
N10_2 N 0.2252(10) 0.8440(5) 0.5292(3)
Zn5 Zn 0.35731(16) 0.90112(7) 0.52075(4)
H31_3 H 0.9918 0.6074 0.4988
C44_3 C 0.8859(13) 0.7449(6) 0.5144(3)
C46_3 C 0.8261(19) 0.7493(8) 0.4883(3)
C47_3 C 0.8216(18) 0.7636(9) 0.5383(4)
H34_3 H 0.8641 0.7359 0.4721
C49_3 C 0.7154(16) 0.7719(8) 0.4850(4)
H35_3 H 0.8569 0.7585 0.5564
C50_3 C 0.7085(16) 0.7892(9) 0.5364(4)
H37_3 H 0.6791 0.7751 0.4670
C51_3 C 0.6516(13) 0.7918(6) 0.5114(3)
H38_3 H 0.6735 0.8045 0.5526
C52_3 C 0.5372(15) 0.8181(7) 0.5092(4)
O10_3 O 0.4623(10) 0.8013(5) 0.4894(2)
O11_2 O 0.9121(8) 0.3837(4) 0.6183(2)
O12_2 O 0.5083(9) 0.8618(4) 0.5275(2)
H2_4 H 0.3707 0.0233 0.4901
C5_4 C 0.3279(16) 0.0213(6) 0.4494(3)
C6_4 C 0.3776(12) 0.0417(5) 0.5815(3)
H4_4 H 0.3388 0.0646 0.4468
C8_4 C 0.4130(13) 0.0966(7) 0.5667(3)
C9_4 C 0.3614(14) 0.0521(7) 0.6121(3)
C10_4 C 0.2661(18) 0.0096(7) 0.3981(3)
C11_4 C 0.4316(13) 0.1554(6) 0.5795(3)
H5_4 H 0.4245 0.0931 0.5472
C12_4 C 0.3770(15) 0.1095(6) 0.6239(3)
H6_4 H 0.3399 0.0182 0.6235
H7_4 H 0.3256 0.0407 0.3937
H8_4 H 0.1906 0.0309 0.3982
C13_4 C 0.4117(12) 0.1602(6) 0.6080(3)
H9_4 H 0.4566 0.1901 0.5690
H10_4 H 0.3639 0.1149 0.6433
C15_4 C 0.4275(12) 0.2267(6) 0.6230(3)
C16_4 C 0.207(2) 0.0393(9) 0.3405(4)
H11_4 H 0.4111 0.2203 0.6432
N3_4 N 0.3405(10) 0.2727(5) 0.6119(3)
C18_4 C 0.5482(14) 0.2518(6) 0.6223(3)
C19_4 C 0.178(2) 0.0516(9) 0.3117(4)
H12_4 H 0.2009 0.0712 0.3541
C21_4 C 0.2639(12) 0.3038(6) 0.6272(3)
N4_4 N 0.3431(12) 0.2919(6) 0.5845(3)
C22_4 C 0.6417(14) 0.2136(6) 0.6220(3)
C23_4 C 0.5691(16) 0.3134(8) 0.6240(4)
C24_4 C 0.2102(19) 0.0065(8) 0.2918(3)
H14_4 H 0.1389 0.0886 0.3061
H16_4 H 0.2525 0.2984 0.6466
C25_4 C 0.2588(14) 0.3343(7) 0.5844(3)
C26_4 C 0.7584(13) 0.2372(7) 0.6245(3)
H17_4 H 0.6300 0.1701 0.6202
C27_4 C 0.6818(14) 0.3402(7) 0.6252(4)
H18_4 H 0.5049 0.3407 0.6243
O5_4 O 0.1919(15) 0.0264(6) 0.2632(2)
H19_4 H 0.2364 0.3565 0.5679
C28_4 C 0.7775(12) 0.3020(7) 0.6249(3)
H20_4 H 0.8217 0.2093 0.6259
H21_4 H 0.6909 0.3839 0.6263
C30_4 C 0.8951(14) 0.3287(6) 0.6273(3)
C31_4 C 0.1653(14) 0.0119(7) 0.2123(3)
O7_4 O 0.9757(10) 0.2984(5) 0.6396(2)
C32_4 C 0.1504(16) 0.0737(9) 0.2115(4)
H24_4 H 0.1558 0.0986 0.2279
C34_4 C 0.1239(17) 0.1016(8) 0.1823(4)
C35_4 C 0.1357(18) 0.0009(9) 0.1666(4)
H26_4 H 0.1149 0.1451 0.1797
N6_4 N 0.1144(11) 0.0642(6) 0.1615(3)
O8_4 O 0.0946(10) 0.0145(4) 0.1001(2)
C36_4 C 0.0746(13) 0.0199(9) 0.0728(4)
O9_4 O 0.0668(10) 0.0691(5) 0.0600(2)
N2_4 N 0.3314(11) 0.9359(5) 0.4810(2)
O1_4 O 0.3577(9) 0.9816(4) 0.5403(2)
C1_4 C 0.2948(15) 0.8960(7) 0.4574(4)
C2_4 C 0.3462(13) 0.9965(6) 0.4753(3)
C3_4 C 0.3575(15) 0.9831(6) 0.5681(4)
C4_4 C 0.2720(15) 0.9204(7) 0.4314(3)
H1_4 H 0.2870 0.8526 0.4602
O3_4 O 0.3388(11) 0.9355(5) 0.5817(2)
H3_4 H 0.2417 0.8941 0.4170
C7_4 C 0.2919(15) 0.9828(6) 0.4254(3)
O4_4 O 0.2633(11) 0.9618(4) 0.3772(2)
C14_4 C 0.2429(17) 0.9803(7) 0.3484(3)
C17_4 C 0.2477(17) 0.9339(7) 0.3281(4)
C20_4 C 0.2374(17) 0.9468(8) 0.2994(3)
H13_4 H 0.2584 0.8921 0.3339
H15_4 H 0.2488 0.9155 0.2858
C29_4 C 0.199(2) 0.9811(9) 0.2431(4)
H22_4 H 0.2780 0.9640 0.2431
H23_4 H 0.1451 0.9468 0.2471
C33_4 C 0.149(2) 0.9777(9) 0.1916(4)
H25_4 H 0.1471 0.9340 0.1941
H27_4 H 0.1404 0.9737 0.1510
C37_4 C 0.0540(13) 0.9563(6) 0.0598(3)
C38_4 C 0.072(2) 0.8987(6) 0.0738(4)
C39_4 C 0.029(2) 0.9489(8) 0.0315(4)
H28_4 H 0.0936 0.8985 0.0931
C40_4 C 0.057(2) 0.8423(10) 0.0595(5)
H29_4 H 0.0216 0.9853 0.0204
C41_4 C 0.013(2) 0.8928(7) 0.0182(3)
H30_4 H 0.0691 0.8045 0.0695
C42_4 C 0.0261(13) 0.8401(7) 0.0310(3)
C43_4 C 0.0111(14) 0.7792(6) 0.0154(3)
N7_4 N 0.0860(11) 0.7287(5) 0.0260(3)
C45_4 C 0.1791(14) 0.7017(6) 0.0132(3)
N8_4 N 0.0723(16) 0.6987(8) 0.0518(3)
C48_4 C 0.1626(19) 0.6551(9) 0.0514(4)
H36_4 H 0.1771 0.6266 0.0663
C44_4 C 0.8859(13) 0.7551(6) 0.0144(3)
C47_4 C 0.8216(18) 0.7364(9) 0.0383(4)
H35_4 H 0.8569 0.7415 0.0564
C50_4 C 0.7085(16) 0.7108(9) 0.0364(4)
C51_4 C 0.6516(13) 0.7082(6) 0.0114(3)
H38_4 H 0.6735 0.6955 0.0526
C52_4 C 0.5372(15) 0.6819(7) 0.0092(4)
H32_4 H 0.0322 0.7872 0.9956
H33_4 H 0.2064 0.7138 0.9955
H31_4 H 0.9918 0.8926 0.9988
C46_4 C 0.8261(19) 0.7507(8) 0.9883(3)
H34_4 H 0.8641 0.7641 0.9721
C49_4 C 0.7154(16) 0.7281(8) 0.9850(4)
H37_4 H 0.6791 0.7249 0.9670
O10_4 O 0.4623(10) 0.6987(5) 0.9894(2)
Zn9 Zn 0.10862(15) 0.12497(7) 0.69787(4)
O13 O 0.2127(10) 0.2505(5) 0.6885(2)
O14 O 0.8799(10) 0.5375(5) 0.7888(3)
C53 C 0.7999(13) 0.3683(7) 0.7182(3)
O15 O 0.8975(14) 0.5877(6) 0.7467(3)
O16 O 0.2631(9) 0.1577(5) 0.7044(2)
C54 C 0.0953(12) 0.1641(7) 0.6367(3)
H39 H 0.1107 0.2036 0.6448
C55 C 0.2860(14) 0.2133(8) 0.6979(3)
N11 N 0.0868(10) 0.1149(5) 0.6542(3)
C56 C 0.0414(15) 0.0594(8) 0.5058(4)
H40 H 0.0677 0.1001 0.5102
C57 C 0.4940(19) 0.1951(9) 0.7045(4)
H41 H 0.4799 0.1517 0.7048
O17 O 0.0194(10) 0.0343(5) 0.5564(3)
N12 N 0.8456(12) 0.2532(5) 0.7120(4)
C58 C 0.0835(15) 0.1608(7) 0.6086(4)
H42 H 0.0856 0.1969 0.5972
C59 C 0.4030(13) 0.2362(8) 0.7031(4)
C60 C 0.0680(14) 0.1024(8) 0.5971(4)
C61 C 0.4395(17) 0.3021(8) 0.6998(4)
H43 H 0.3820 0.3317 0.6947
C62 C 0.8467(16) 0.4769(8) 0.7467(6)
C63 C 0.6155(17) 0.2192(9) 0.7055(5)
H44 H 0.6779 0.1907 0.7065
C64 C 0.0312(15) 0.0397(8) 0.4779(3)
H45 H 0.0536 0.0655 0.4630
C65 C 0.7693(15) 0.3034(8) 0.7024(4)
H46 H 0.7826 0.3098 0.6820
C66 C 0.8248(18) 0.4202(8) 0.7016(4)
H47 H 0.8207 0.4188 0.6817
C67 C 0.854(2) 0.4704(10) 0.7154(5)
H48 H 0.8817 0.5048 0.7052
C68 C 0.8197(18) 0.4275(9) 0.7623(6)
H49 H 0.8198 0.4310 0.7821
C69 C 0.8742(17) 0.5409(9) 0.7602(5)
C70 C 0.0559(15) 0.0495(7) 0.6136(3)
H50 H 0.0404 0.0098 0.6056
C71 C 0.0675(14) 0.0582(8) 0.6417(4)
H51 H 0.0620 0.0229 0.6535
C72 C 0.5491(17) 0.3225(9) 0.7036(5)
H52 H 0.5646 0.3657 0.7054
C73 C 0.0596(19) 0.0965(8) 0.5633(4)
H53 H 0.0052 0.1278 0.5554
H54 H 0.1362 0.1037 0.5554
C74 C 0.6370(19) 0.2806(7) 0.7050(4)
C75 C 0.0127(14) 0.0189(9) 0.5267(4)
N13 N 0.8425(12) 0.2299(6) 0.7379(3)
C76 C 0.7881(16) 0.3644(9) 0.7478(4)
H55 H 0.7642 0.3282 0.7574
C77 C 0.9245(13) 0.2250(7) 0.6947(4)
H56 H 0.9384 0.2350 0.6758
C78 C 0.9220(15) 0.1874(7) 0.7364(4)
H57 H 0.9430 0.1617 0.7519
N14 N 0.9757(11) 0.1817(5) 0.7100(3)
Zn10 Zn 0.89138(15) 0.62497(7) 0.80213(4)
O23 O 0.1201(10) 0.0375(5) 0.7112(3)
C83 C 0.0312(15) 0.4603(8) 0.9779(3)
H61 H 0.0536 0.4345 0.9630
N19 N 0.0243(11) 0.6817(5) 0.7900(3)
O15_2 O 0.1025(14) 0.0877(6) 0.7533(3)
H48_2 H 0.1183 0.0048 0.7948
C69_2 C 0.1258(17) 0.0409(9) 0.7398(5)
O13_2 O 0.7873(10) 0.7505(5) 0.8115(2)
C53_2 C 0.2001(13) 0.8683(7) 0.7818(3)
O16_2 O 0.7369(9) 0.6577(5) 0.7956(2)
C54_2 C 0.9047(12) 0.6641(7) 0.8633(3)
H39_2 H 0.8893 0.7036 0.8552
C55_2 C 0.7140(14) 0.7133(8) 0.8021(3)
N11_2 N 0.9132(10) 0.6149(5) 0.8458(3)
C56_2 C 0.9586(15) 0.5594(8) 0.9942(4)
H40_2 H 0.9323 0.6001 0.9898
C57_2 C 0.5060(19) 0.6951(9) 0.7955(4)
H41_2 H 0.5201 0.6517 0.7952
O17_2 O 0.9806(10) 0.5343(5) 0.9436(3)
N12_2 N 0.1544(12) 0.7532(5) 0.7880(4)
C58_2 C 0.9165(15) 0.6608(7) 0.8914(4)
H42_2 H 0.9144 0.6969 0.9028
C59_2 C 0.5970(13) 0.7362(8) 0.7969(4)
C60_2 C 0.9320(14) 0.6024(8) 0.9029(4)
C61_2 C 0.5605(17) 0.8021(8) 0.8002(4)
H43_2 H 0.6180 0.8317 0.8053
C62_2 C 0.1533(16) 0.9769(8) 0.7533(6)
C63_2 C 0.3845(17) 0.7192(9) 0.7945(5)
H44_2 H 0.3221 0.6907 0.7935
C65_2 C 0.2307(15) 0.8034(8) 0.7976(4)
H46_2 H 0.2174 0.8098 0.8180
C66_2 C 0.1752(18) 0.9202(8) 0.7984(4)
H47_2 H 0.1793 0.9188 0.8183
C67_2 C 0.146(2) 0.9704(10) 0.7846(5)
C68_2 C 0.1803(18) 0.9275(9) 0.7377(6)
H49_2 H 0.1802 0.9310 0.7179
C70_2 C 0.9441(15) 0.5495(7) 0.8864(3)
H50_2 H 0.9596 0.5098 0.8944
C71_2 C 0.9325(14) 0.5582(8) 0.8583(4)
H51_2 H 0.9380 0.5229 0.8465
C72_2 C 0.4509(17) 0.8225(9) 0.7964(5)
H52_2 H 0.4354 0.8657 0.7946
C73_2 C 0.9404(19) 0.5965(8) 0.9367(4)
H53_2 H 0.9948 0.6278 0.9446
H54_2 H 0.8638 0.6037 0.9446
C74_2 C 0.3630(19) 0.7806(7) 0.7950(4)
C75_2 C 0.9873(14) 0.5189(9) 0.9733(4)
N13_2 N 0.1575(12) 0.7299(6) 0.7621(3)
C76_2 C 0.2119(16) 0.8644(9) 0.7522(4)
H55_2 H 0.2358 0.8282 0.7426
C77_2 C 0.0755(13) 0.7250(7) 0.8053(4)
H56_2 H 0.0616 0.7350 0.8242
C78_2 C 0.0780(15) 0.6874(7) 0.7636(4)
H57_2 H 0.0570 0.6617 0.7481
N20 N 0.0243(11) 0.8183(5) 0.2900(3)
C79 C 0.9047(12) 0.8359(7) 0.3633(3)
H58 H 0.8893 0.7964 0.3552
N15 N 0.9132(10) 0.8851(5) 0.3458(3)
C80 C 0.9586(15) 0.9406(8) 0.4942(4)
H59 H 0.9323 0.8999 0.4898
O18 O 0.9806(10) 0.9657(5) 0.4436(3)
C81 C 0.9165(15) 0.8392(7) 0.3914(4)
H60 H 0.9144 0.8031 0.4028
C82 C 0.9320(14) 0.8976(8) 0.4029(4)
C83_2 C 0.9688(15) 0.9603(8) 0.5221(3)
H61_2 H 0.9464 0.9345 0.5370
C84 C 0.9441(15) 0.9505(7) 0.3864(3)
H62 H 0.9596 0.9902 0.3944
C85 C 0.9325(14) 0.9418(8) 0.3583(4)
H63 H 0.9380 0.9771 0.3465
C86 C 0.9404(19) 0.9035(8) 0.4367(4)
H64 H 0.9948 0.8722 0.4446
H65 H 0.8638 0.8963 0.4446
C87 C 0.9873(14) 0.9811(9) 0.4733(4)
Zn8 Zn 0.89138(15) 0.87503(7) 0.30213(4)
O19 O 0.7873(10) 0.7495(5) 0.3115(2)
O20 O 0.1201(10) 0.4625(5) 0.2112(3)
C88 C 0.2001(13) 0.6317(7) 0.2818(3)
O21 O 0.1025(14) 0.4123(6) 0.2533(3)
O22 O 0.7369(9) 0.8423(5) 0.2956(2)
C89 C 0.7140(14) 0.7867(8) 0.3021(3)
C90 C 0.5060(19) 0.8049(9) 0.2955(4)
H66 H 0.5201 0.8483 0.2952
N16 N 0.1544(12) 0.7468(5) 0.2880(4)
C91 C 0.5970(13) 0.7638(8) 0.2969(4)
C92 C 0.5605(17) 0.6979(8) 0.3002(4)
H67 H 0.6180 0.6683 0.3053
C93 C 0.1533(16) 0.5231(8) 0.2533(6)
C94 C 0.3845(17) 0.7808(9) 0.2945(5)
H68 H 0.3221 0.8093 0.2935
C95 C 0.2307(15) 0.6966(8) 0.2976(4)
H69 H 0.2174 0.6902 0.3180
C96 C 0.1752(18) 0.5798(8) 0.2984(4)
H70 H 0.1793 0.5812 0.3183
C97 C 0.146(2) 0.5296(10) 0.2846(5)
H71 H 0.1183 0.4952 0.2948
C98 C 0.1803(18) 0.5725(9) 0.2377(6)
H72 H 0.1802 0.5690 0.2179
C99 C 0.1258(17) 0.4591(9) 0.2398(5)
C100 C 0.4509(17) 0.6775(9) 0.2964(5)
H73 H 0.4354 0.6343 0.2946
C101 C 0.3630(19) 0.7194(7) 0.2950(4)
N17 N 0.1575(12) 0.7701(6) 0.2621(3)
C102 C 0.2119(16) 0.6356(9) 0.2522(4)
H74 H 0.2358 0.6718 0.2426
C103 C 0.0755(13) 0.7750(7) 0.3053(4)
H75 H 0.0616 0.7650 0.3242
C104 C 0.0780(15) 0.8126(7) 0.2636(4)
H76 H 0.0570 0.8383 0.2481
Zn12 Zn 0.10862(15) 0.37503(7) 0.19787(4)
O24 O 0.8799(10) 0.9625(5) 0.2888(3)
C79_2 C 0.0953(12) 0.3359(7) 0.1367(3)
H58_2 H 0.1107 0.2964 0.1448
N15_2 N 0.0868(10) 0.3851(5) 0.1542(3)
C80_2 C 0.0414(15) 0.4406(8) 0.0058(4)
H59_2 H 0.0677 0.3999 0.0102
O18_2 O 0.0194(10) 0.4657(5) 0.0564(3)
C81_2 C 0.0835(15) 0.3392(7) 0.1086(4)
H60_2 H 0.0856 0.3031 0.0972
C82_2 C 0.0680(14) 0.3976(8) 0.0971(4)
C84_2 C 0.0559(15) 0.4505(7) 0.1136(3)
H62_2 H 0.0404 0.4902 0.1056
C85_2 C 0.0675(14) 0.4418(8) 0.1417(4)
H63_2 H 0.0620 0.4771 0.1535
C86_2 C 0.0596(19) 0.4035(8) 0.0633(4)
H64_2 H 0.0052 0.3722 0.0554
H65_2 H 0.1362 0.3963 0.0554
C87_2 C 0.0127(14) 0.4811(9) 0.0267(4)
O19_2 O 0.2127(10) 0.2495(5) 0.1885(2)
C88_2 C 0.7999(13) 0.1317(7) 0.2182(3)
O22_2 O 0.2631(9) 0.3423(5) 0.2044(2)
C89_2 C 0.2860(14) 0.2867(8) 0.1979(3)
C90_2 C 0.4940(19) 0.3049(9) 0.2045(4)
H66_2 H 0.4799 0.3483 0.2048
N16_2 N 0.8456(12) 0.2468(5) 0.2120(4)
C91_2 C 0.4030(13) 0.2638(8) 0.2031(4)
C92_2 C 0.4395(17) 0.1979(8) 0.1998(4)
H67_2 H 0.3820 0.1683 0.1947
C93_2 C 0.8467(16) 0.0231(8) 0.2467(6)
C94_2 C 0.6155(17) 0.2808(9) 0.2055(5)
H68_2 H 0.6779 0.3093 0.2065
C95_2 C 0.7693(15) 0.1966(8) 0.2024(4)
H69_2 H 0.7826 0.1902 0.1820
C96_2 C 0.8248(18) 0.0798(8) 0.2016(4)
H70_2 H 0.8207 0.0812 0.1817
C97_2 C 0.854(2) 0.0296(10) 0.2154(5)
C98_2 C 0.8197(18) 0.0725(9) 0.2623(6)
H72_2 H 0.8198 0.0690 0.2821
C100_2 C 0.5491(17) 0.1775(9) 0.2036(5)
H73_2 H 0.5646 0.1343 0.2054
C101_2 C 0.6370(19) 0.2194(7) 0.2050(4)
N17_2 N 0.8425(12) 0.2701(6) 0.2379(3)
C102_2 C 0.7881(16) 0.1356(9) 0.2478(4)
H74_2 H 0.7642 0.1718 0.2574
C103_2 C 0.9245(13) 0.2750(7) 0.1947(4)
H75_2 H 0.9384 0.2650 0.1758
C104_2 C 0.9220(15) 0.3126(7) 0.2364(4)
H76_2 H 0.9430 0.3383 0.2519
N18 N 0.9757(11) 0.3183(5) 0.2100(3)
O21_2 O 0.8975(14) 0.9123(6) 0.2467(3)
H71_2 H 0.8817 0.9952 0.2052
C99_2 C 0.8742(17) 0.9591(9) 0.2602(5)
C64_2 C 0.9688(15) 0.5397(8) 0.0221(3)
H45_2 H 0.9464 0.5655 0.0370
loop_
_geom_bond_atom_site_label_1
_geom_bond_atom_site_label_2
_geom_bond_site_symmetry_1
_geom_bond_site_symmetry_2
H34 C46 1_555 1_555
C49 C46 1_555 1_555
H37 C49 1_555 1_555
C47 C44 1_555 1_555
H35 C47 1_555 1_555
C50 C47 1_555 1_555
H38 C50 1_555 1_555
C52 C51 1_555 1_555
O12 C52 1_555 1_555
Zn6 O12 1_555 1_555
C50 C51 1_555 1_555
N1 Zn1 1_555 1_555
Zn1 N2 1_555 1_555
N2 C1 1_555 1_555
O1 Zn1 1_555 1_555
O2 Zn1 1_555 1_555
C1 C4 1_555 1_555
C2 N2 1_555 1_555
C3 O1 1_555 1_555
C4 H3 1_555 1_555
H1 C1 1_555 1_555
O3 C3 1_555 1_555
C7 C4 1_555 1_555
C14 O4 1_555 1_555
C17 C14 1_555 1_555
C20 C17 1_555 1_555
H13 C17 1_555 1_555
H15 C20 1_555 1_555
H22 C29 1_555 1_555
H23 C29 1_555 1_555
H25 C33 1_555 1_555
C37 C38 1_555 1_555
C38 H28 1_555 1_555
C39 C37 1_555 1_555
C40 C38 1_555 1_555
H29 C39 1_555 1_555
C41 C39 1_555 1_555
H30 C40 1_555 1_555
C42 C40 1_555 1_555
C43 C42 1_555 1_555
N7 C43 1_555 1_555
C45 N7 1_555 1_555
N8 N7 1_555 1_555
C48 N8 1_555 1_555
H36 C48 1_555 1_555
N10 C45 1_555 1_555
Zn6 N10 1_555 1_555
C41 C42 1_555 1_555
C48 N10 1_555 1_555
H4 C5 1_555 1_555
C8 C6 1_555 1_555
C9 C6 1_555 1_555
C11 C8 1_555 1_555
H5 C8 1_555 1_555
C12 C9 1_555 1_555
H6 C9 1_555 1_555
H7 C10 1_555 1_555
H8 C10 1_555 1_555
C13 C11 1_555 1_555
H9 C11 1_555 1_555
H10 C12 1_555 1_555
C15 C13 1_555 1_555
H11 C15 1_555 1_555
N3 C15 1_555 1_555
C18 C15 1_555 1_555
C19 C16 1_555 1_555
H12 C16 1_555 1_555
C21 N3 1_555 1_555
N4 N3 1_555 1_555
C22 C18 1_555 1_555
C23 C18 1_555 1_555
C24 C19 1_555 1_555
H14 C19 1_555 1_555
H16 C21 1_555 1_555
N5 C21 1_555 1_555
C25 N4 1_555 1_555
C26 C22 1_555 1_555
H17 C22 1_555 1_555
C27 C23 1_555 1_555
H18 C23 1_555 1_555
O5 C24 1_555 1_555
Zn2 N5 1_555 1_555
H19 C25 1_555 1_555
C28 C26 1_555 1_555
H20 C26 1_555 1_555
H21 C27 1_555 1_555
C30 C28 1_555 1_555
O6 C30 1_555 1_555
O7 C30 1_555 1_555
C32 C31 1_555 1_555
H24 C32 1_555 1_555
C34 C32 1_555 1_555
H26 C34 1_555 1_555
N6 C34 1_555 1_555
O8 C36 1_555 1_555
O9 C36 1_555 1_555
Zn4 N6 1_555 1_555
N9 Zn4 1_555 1_555
C12 C13 1_555 1_555
N5 C25 1_555 1_555
C27 C28 1_555 1_555
C35 N6 1_555 1_555
O8 Zn4 1_555 1_555
C46_2 C44_2 1_555 1_555
C47_2 C44_2 1_555 1_555
H34_2 C46_2 1_555 1_555
C49_2 C46_2 1_555 1_555
H35_2 C47_2 1_555 1_555
C50_2 C47_2 1_555 1_555
H37_2 C49_2 1_555 1_555
C51_2 C49_2 1_555 1_555
H38_2 C50_2 1_555 1_555
C52_2 C51_2 1_555 1_555
O10_2 C52_2 1_555 1_555
O2 C52_2 1_555 1_555
C50_2 C51_2 1_555 1_555
N2_2 C1_2 1_555 1_555
C1_2 C4_2 1_555 1_555
C2_2 N2_2 1_555 1_555
C4_2 H3_2 1_555 1_555
H1_2 C1_2 1_555 1_555
H2_2 C2_2 1_555 1_555
C5_2 C2_2 1_555 1_555
C7_2 C4_2 1_555 1_555
H4_2 C5_2 1_555 1_555
C10_2 C7_2 1_555 1_555
H7_2 C10_2 1_555 1_555
H8_2 C10_2 1_555 1_555
O4_2 C10_2 1_555 1_555
C14_2 O4_2 1_555 1_555
C16_2 C14_2 1_555 1_555
C17_2 C14_2 1_555 1_555
C19_2 C16_2 1_555 1_555
H12_2 C16_2 1_555 1_555
C20_2 C17_2 1_555 1_555
H13_2 C17_2 1_555 1_555
C24_2 C19_2 1_555 1_555
H14_2 C19_2 1_555 1_555
H15_2 C20_2 1_555 1_555
O5_2 C24_2 1_555 1_555
C29_2 O5_2 1_555 1_555
C31_2 C29_2 1_555 1_555
H22_2 C29_2 1_555 1_555
H23_2 C29_2 1_555 1_555
C32_2 C31_2 1_555 1_555
C33_2 C31_2 1_555 1_555
H24_2 C32_2 1_555 1_555
C34_2 C32_2 1_555 1_555
C35_2 C33_2 1_555 1_555
H25_2 C33_2 1_555 1_555
H26_2 C34_2 1_555 1_555
N6_2 C34_2 1_555 1_555
H27_2 C35_2 1_555 1_555
O8_2 C36_2 1_555 1_555
C36_2 C37_2 1_555 1_555
C37_2 C38_2 1_555 1_555
O9_2 C36_2 1_555 1_555
C38_2 H28_2 1_555 1_555
C39_2 C37_2 1_555 1_555
C40_2 C38_2 1_555 1_555
H29_2 C39_2 1_555 1_555
C41_2 C39_2 1_555 1_555
H30_2 C40_2 1_555 1_555
C42_2 C40_2 1_555 1_555
C43_2 C42_2 1_555 1_555
H32 C43_2 1_555 1_555
N7_2 C43_2 1_555 1_555
C45_2 N7_2 1_555 1_555
N8_2 N7_2 1_555 1_555
H33 C45_2 1_555 1_555
C48_2 N8_2 1_555 1_555
H36_2 C48_2 1_555 1_555
Zn2 N6_2 1_555 1_555
N1 C45_2 1_555 1_555
C5_2 C7_2 1_555 1_555
C20_2 C24_2 1_555 1_555
C35_2 N6_2 1_555 1_555
O8_2 Zn2 1_555 1_555
C41_2 C42_2 1_555 1_555
C48_2 N1 1_555 1_555
O1_2 Zn6 1_555 1_555
C3_2 O1_2 1_555 1_555
O3_2 C3_2 1_555 1_555
C6_2 C3_2 1_555 1_555
C8_2 C6_2 1_555 1_555
C9_2 C6_2 1_555 1_555
C11_2 C8_2 1_555 1_555
H5_2 C8_2 1_555 1_555
C12_2 C9_2 1_555 1_555
H6_2 C9_2 1_555 1_555
C13_2 C11_2 1_555 1_555
H9_2 C11_2 1_555 1_555
H10_2 C12_2 1_555 1_555
C15_2 C13_2 1_555 1_555
H11_2 C15_2 1_555 1_555
N3_2 C15_2 1_555 1_555
C18_2 C15_2 1_555 1_555
C21_2 N3_2 1_555 1_555
N4_2 N3_2 1_555 1_555
C22_2 C18_2 1_555 1_555
C23_2 C18_2 1_555 1_555
H16_2 C21_2 1_555 1_555
N9 C21_2 1_555 1_555
C25_2 N4_2 1_555 1_555
C26_2 C22_2 1_555 1_555
H17_2 C22_2 1_555 1_555
C27_2 C23_2 1_555 1_555
H18_2 C23_2 1_555 1_555
H19_2 C25_2 1_555 1_555
C28_2 C26_2 1_555 1_555
H20_2 C26_2 1_555 1_555
H21_2 C27_2 1_555 1_555
C30_2 C28_2 1_555 1_555
O11 C30_2 1_555 1_555
O7_2 C30_2 1_555 1_555
C12_2 C13_2 1_555 1_555
N9 C25_2 1_555 1_555
C27_2 C28_2 1_555 1_555
N1_2 Zn1_2 1_555 1_555
O1_3 Zn1_2 1_555 1_555
O2_2 Zn1_2 1_555 1_555
C3_3 O1_3 1_555 1_555
O3_3 C3_3 1_555 1_555
C6_3 C3_3 1_555 1_555
C8_3 C6_3 1_555 1_555
C9_3 C6_3 1_555 1_555
C11_3 C8_3 1_555 1_555
H5_3 C8_3 1_555 1_555
C12_3 C9_3 1_555 1_555
H6_3 C9_3 1_555 1_555
C13_3 C11_3 1_555 1_555
H9_3 C11_3 1_555 1_555
H10_3 C12_3 1_555 1_555
C15_3 C13_3 1_555 1_555
H11_3 C15_3 1_555 1_555
N3_3 C15_3 1_555 1_555
C18_3 C15_3 1_555 1_555
C21_3 N3_3 1_555 1_555
N4_3 N3_3 1_555 1_555
C22_3 C18_3 1_555 1_555
C23_3 C18_3 1_555 1_555
H16_3 C21_3 1_555 1_555
N5_2 C21_3 1_555 1_555
C25_3 N4_3 1_555 1_555
C26_3 C22_3 1_555 1_555
H17_3 C22_3 1_555 1_555
C27_3 C23_3 1_555 1_555
H18_3 C23_3 1_555 1_555
Zn3 N5_2 1_555 1_555
H19_3 C25_3 1_555 1_555
C28_3 C26_3 1_555 1_555
H20_3 C26_3 1_555 1_555
H21_3 C27_3 1_555 1_555
C30_3 C28_3 1_555 1_555
O6_2 C30_3 1_555 1_555
O7_3 C30_3 1_555 1_555
C12_3 C13_3 1_555 1_555
N5_2 C25_3 1_555 1_555
C27_3 C28_3 1_555 1_555
N2_3 C1_3 1_555 1_555
C1_3 C4_3 1_555 1_555
C2_3 N2_3 1_555 1_555
C4_3 H3_3 1_555 1_555
H1_3 C1_3 1_555 1_555
H2_3 C2_3 1_555 1_555
C5_3 C2_3 1_555 1_555
C7_3 C4_3 1_555 1_555
H4_3 C5_3 1_555 1_555
C10_3 C7_3 1_555 1_555
H7_3 C10_3 1_555 1_555
H8_3 C10_3 1_555 1_555
O4_3 C10_3 1_555 1_555
C14_3 O4_3 1_555 1_555
C16_3 C14_3 1_555 1_555
C17_3 C14_3 1_555 1_555
C19_3 C16_3 1_555 1_555
H12_3 C16_3 1_555 1_555
C20_3 C17_3 1_555 1_555
H13_3 C17_3 1_555 1_555
C24_3 C19_3 1_555 1_555
H14_3 C19_3 1_555 1_555
H15_3 C20_3 1_555 1_555
O5_3 C24_3 1_555 1_555
C29_3 O5_3 1_555 1_555
C31_3 C29_3 1_555 1_555
H22_3 C29_3 1_555 1_555
H23_3 C29_3 1_555 1_555
C32_3 C31_3 1_555 1_555
C33_3 C31_3 1_555 1_555
H24_3 C32_3 1_555 1_555
C34_3 C32_3 1_555 1_555
C35_3 C33_3 1_555 1_555
H25_3 C33_3 1_555 1_555
H26_3 C34_3 1_555 1_555
N6_3 C34_3 1_555 1_555
H27_3 C35_3 1_555 1_555
O8_3 C36_3 1_555 1_555
C36_3 C37_3 1_555 1_555
C37_3 C38_3 1_555 1_555
O9_3 C36_3 1_555 1_555
C38_3 H28_3 1_555 1_555
C39_3 C37_3 1_555 1_555
C40_3 C38_3 1_555 1_555
H29_3 C39_3 1_555 1_555
C41_3 C39_3 1_555 1_555
H30_3 C40_3 1_555 1_555
C42_3 C40_3 1_555 1_555
C43_3 C42_3 1_555 1_555
H32_3 C43_3 1_555 1_555
N7_3 C43_3 1_555 1_555
C45_3 N7_3 1_555 1_555
N8_3 N7_3 1_555 1_555
H33_3 C45_3 1_555 1_555
C48_3 N8_3 1_555 1_555
H36_3 C48_3 1_555 1_555
Zn4_2 N6_3 1_555 1_555
N9_2 Zn4_2 1_555 1_555
N10_2 C45_3 1_555 1_555
Zn5 N10_2 1_555 1_555
C5_3 C7_3 1_555 1_555
C20_3 C24_3 1_555 1_555
C35_3 N6_3 1_555 1_555
O8_3 Zn4_2 1_555 1_555
C41_3 C42_3 1_555 1_555
C48_3 N10_2 1_555 1_555
C46_3 C44_3 1_555 1_555
C47_3 C44_3 1_555 1_555
H34_3 C46_3 1_555 1_555
C49_3 C46_3 1_555 1_555
H35_3 C47_3 1_555 1_555
C50_3 C47_3 1_555 1_555
H37_3 C49_3 1_555 1_555
C51_3 C49_3 1_555 1_555
H38_3 C50_3 1_555 1_555
C52_3 C51_3 1_555 1_555
O10_3 C52_3 1_555 1_555
O12_2 C52_3 1_555 1_555
Zn5 O12_2 1_555 1_555
C50_3 C51_3 1_555 1_555
H4_4 C5_4 1_555 1_555
C8_4 C6_4 1_555 1_555
C9_4 C6_4 1_555 1_555
C11_4 C8_4 1_555 1_555
H5_4 C8_4 1_555 1_555
C12_4 C9_4 1_555 1_555
H6_4 C9_4 1_555 1_555
H7_4 C10_4 1_555 1_555
H8_4 C10_4 1_555 1_555
C13_4 C11_4 1_555 1_555
H9_4 C11_4 1_555 1_555
H10_4 C12_4 1_555 1_555
C15_4 C13_4 1_555 1_555
H11_4 C15_4 1_555 1_555
N3_4 C15_4 1_555 1_555
C18_4 C15_4 1_555 1_555
C19_4 C16_4 1_555 1_555
H12_4 C16_4 1_555 1_555
C21_4 N3_4 1_555 1_555
N4_4 N3_4 1_555 1_555
C22_4 C18_4 1_555 1_555
C23_4 C18_4 1_555 1_555
C24_4 C19_4 1_555 1_555
H14_4 C19_4 1_555 1_555
H16_4 C21_4 1_555 1_555
N9_2 C21_4 1_555 1_555
C25_4 N4_4 1_555 1_555
C26_4 C22_4 1_555 1_555
H17_4 C22_4 1_555 1_555
C27_4 C23_4 1_555 1_555
H18_4 C23_4 1_555 1_555
O5_4 C24_4 1_555 1_555
H19_4 C25_4 1_555 1_555
C28_4 C26_4 1_555 1_555
H20_4 C26_4 1_555 1_555
H21_4 C27_4 1_555 1_555
C30_4 C28_4 1_555 1_555
O11_2 C30_4 1_555 1_555
O7_4 C30_4 1_555 1_555
C32_4 C31_4 1_555 1_555
H24_4 C32_4 1_555 1_555
C34_4 C32_4 1_555 1_555
H26_4 C34_4 1_555 1_555
N6_4 C34_4 1_555 1_555
O8_4 C36_4 1_555 1_555
O9_4 C36_4 1_555 1_555
Zn3 N6_4 1_555 1_555
C12_4 C13_4 1_555 1_555
N9_2 C25_4 1_555 1_555
C27_4 C28_4 1_555 1_555
C35_4 N6_4 1_555 1_555
O8_4 Zn3 1_555 1_555
Zn5 N2_4 1_555 1_555
N2_4 C1_4 1_555 1_555
O1_4 Zn5 1_555 1_555
C1_4 C4_4 1_555 1_555
C2_4 N2_4 1_555 1_555
C3_4 O1_4 1_555 1_555
C4_4 H3_4 1_555 1_555
H1_4 C1_4 1_555 1_555
O3_4 C3_4 1_555 1_555
C7_4 C4_4 1_555 1_555
C14_4 O4_4 1_555 1_555
C17_4 C14_4 1_555 1_555
C20_4 C17_4 1_555 1_555
H13_4 C17_4 1_555 1_555
H15_4 C20_4 1_555 1_555
H22_4 C29_4 1_555 1_555
H23_4 C29_4 1_555 1_555
H25_4 C33_4 1_555 1_555
C37_4 C38_4 1_555 1_555
C38_4 H28_4 1_555 1_555
C39_4 C37_4 1_555 1_555
C40_4 C38_4 1_555 1_555
H29_4 C39_4 1_555 1_555
C41_4 C39_4 1_555 1_555
H30_4 C40_4 1_555 1_555
C42_4 C40_4 1_555 1_555
C43_4 C42_4 1_555 1_555
N7_4 C43_4 1_555 1_555
C45_4 N7_4 1_555 1_555
N8_4 N7_4 1_555 1_555
C48_4 N8_4 1_555 1_555
H36_4 C48_4 1_555 1_555
N1_2 C45_4 1_555 1_555
C41_4 C42_4 1_555 1_555
C48_4 N1_2 1_555 1_555
C47_4 C44_4 1_555 1_555
H35_4 C47_4 1_555 1_555
C50_4 C47_4 1_555 1_555
H38_4 C50_4 1_555 1_555
C52_4 C51_4 1_555 1_555
O2_2 C52_4 1_555 1_555
C50_4 C51_4 1_555 1_555
H34_4 C46_4 1_555 1_555
C49_4 C46_4 1_555 1_555
H37_4 C49_4 1_555 1_555
Zn9 O16 1_555 1_555
O13 C55 1_555 1_555
O14 C69 1_555 1_555
C53 C65 1_555 1_555
O15 C69 1_555 1_555
O16 C55 1_555 1_555
C54 H39 1_555 1_555
C55 C59 1_555 1_555
N11 Zn9 1_555 1_555
C56 H40 1_555 1_555
C57 H41 1_555 1_555
O17 C73 1_555 1_555
N12 C65 1_555 1_555
C58 C54 1_555 1_555
H42 C58 1_555 1_555
C59 C57 1_555 1_555
C60 C58 1_555 1_555
C61 C59 1_555 1_555
H43 C61 1_555 1_555
C62 C67 1_555 1_555
C63 C57 1_555 1_555
H44 C63 1_555 1_555
C64 C56 1_555 1_555
H45 C64 1_555 1_555
C65 H46 1_555 1_555
C66 C53 1_555 1_555
H47 C66 1_555 1_555
C67 C66 1_555 1_555
H48 C67 1_555 1_555
C68 C62 1_555 1_555
H49 C68 1_555 1_555
C69 C62 1_555 1_555
C70 C60 1_555 1_555
H50 C70 1_555 1_555
C71 N11 1_555 1_555
H51 C71 1_555 1_555
C72 C61 1_555 1_555
H52 C72 1_555 1_555
C73 C60 1_555 1_555
H53 C73 1_555 1_555
H54 C73 1_555 1_555
C74 C63 1_555 1_555
C75 C56 1_555 1_555
N13 N12 1_555 1_555
C76 C53 1_555 1_555
H55 C76 1_555 1_555
C77 N12 1_555 1_555
H56 C77 1_555 1_555
C78 N13 1_555 1_555
H57 C78 1_555 1_555
N14 C77 1_555 1_555
Zn10 O14 1_555 1_555
O23 Zn9 1_555 1_555
C54 N11 1_555 1_555
O17 C75 1_555 1_555
C65 C74 1_555 1_555
C68 C76 1_555 1_555
C70 C71 1_555 1_555
C72 C74 1_555 1_555
C78 N14 1_555 1_555
H61 C83 1_555 1_555
O23 C69_2 1_555 1_555
O15_2 C69_2 1_555 1_555
Zn10 O16_2 1_555 1_555
O13_2 C55_2 1_555 1_555
C53_2 C65_2 1_555 1_555
O16_2 C55_2 1_555 1_555
C54_2 H39_2 1_555 1_555
C55_2 C59_2 1_555 1_555
N11_2 Zn10 1_555 1_555
C56_2 H40_2 1_555 1_555
C57_2 H41_2 1_555 1_555
O17_2 C73_2 1_555 1_555
N12_2 C65_2 1_555 1_555
C58_2 C54_2 1_555 1_555
H42_2 C58_2 1_555 1_555
C59_2 C57_2 1_555 1_555
C60_2 C58_2 1_555 1_555
C61_2 C59_2 1_555 1_555
H43_2 C61_2 1_555 1_555
C62_2 C67_2 1_555 1_555
C63_2 C57_2 1_555 1_555
H44_2 C63_2 1_555 1_555
C65_2 H46_2 1_555 1_555
C66_2 C53_2 1_555 1_555
H47_2 C66_2 1_555 1_555
C67_2 C66_2 1_555 1_555
C68_2 C62_2 1_555 1_555
H49_2 C68_2 1_555 1_555
C70_2 C60_2 1_555 1_555
H50_2 C70_2 1_555 1_555
C71_2 N11_2 1_555 1_555
H51_2 C71_2 1_555 1_555
C72_2 C61_2 1_555 1_555
H52_2 C72_2 1_555 1_555
C73_2 C60_2 1_555 1_555
H53_2 C73_2 1_555 1_555
H54_2 C73_2 1_555 1_555
C74_2 C63_2 1_555 1_555
C75_2 C56_2 1_555 1_555
N13_2 N12_2 1_555 1_555
C76_2 C53_2 1_555 1_555
H55_2 C76_2 1_555 1_555
C77_2 N12_2 1_555 1_555
H56_2 C77_2 1_555 1_555
C78_2 N13_2 1_555 1_555
H57_2 C78_2 1_555 1_555
N19 C77_2 1_555 1_555
C54_2 N11_2 1_555 1_555
O17_2 C75_2 1_555 1_555
C65_2 C74_2 1_555 1_555
C68_2 C76_2 1_555 1_555
C70_2 C71_2 1_555 1_555
C72_2 C74_2 1_555 1_555
C78_2 N19 1_555 1_555
C79 H58 1_555 1_555
N15 C79 1_555 1_555
C80 H59 1_555 1_555
O18 C86 1_555 1_555
C81 C79 1_555 1_555
H60 C81 1_555 1_555
C82 C81 1_555 1_555
H61_2 C83_2 1_555 1_555
C84 C82 1_555 1_555
H62 C84 1_555 1_555
C85 N15 1_555 1_555
H63 C85 1_555 1_555
C86 C82 1_555 1_555
H64 C86 1_555 1_555
H65 C86 1_555 1_555
Zn8 N15 1_555 1_555
O19 C89 1_555 1_555
O20 C99 1_555 1_555
C88 C95 1_555 1_555
O21 C99 1_555 1_555
O22 Zn8 1_555 1_555
C89 O22 1_555 1_555
C90 H66 1_555 1_555
N16 C95 1_555 1_555
C91 C89 1_555 1_555
C92 C91 1_555 1_555
H67 C92 1_555 1_555
C93 C97 1_555 1_555
C94 C90 1_555 1_555
H68 C94 1_555 1_555
C95 H69 1_555 1_555
C96 C88 1_555 1_555
H70 C96 1_555 1_555
C97 C96 1_555 1_555
H71 C97 1_555 1_555
C98 C93 1_555 1_555
H72 C98 1_555 1_555
C99 C93 1_555 1_555
C100 C92 1_555 1_555
H73 C100 1_555 1_555
C101 C94 1_555 1_555
N17 N16 1_555 1_555
C102 C88 1_555 1_555
H74 C102 1_555 1_555
C103 N16 1_555 1_555
H75 C103 1_555 1_555
C104 N17 1_555 1_555
H76 C104 1_555 1_555
N20 C103 1_555 1_555
Zn12 O20 1_555 1_555
O24 Zn8 1_555 1_555
C80 C83_2 1_555 1_555
C80 C87 1_555 1_555
O18 C87 1_555 1_555
C84 C85 1_555 1_555
C90 C91 1_555 1_555
C95 C101 1_555 1_555
C98 C102 1_555 1_555
C100 C101 1_555 1_555
C104 N20 1_555 1_555
C79_2 H58_2 1_555 1_555
N15_2 C79_2 1_555 1_555
C80_2 H59_2 1_555 1_555
O18_2 C86_2 1_555 1_555
C81_2 C79_2 1_555 1_555
H60_2 C81_2 1_555 1_555
C82_2 C81_2 1_555 1_555
C84_2 C82_2 1_555 1_555
H62_2 C84_2 1_555 1_555
C85_2 N15_2 1_555 1_555
H63_2 C85_2 1_555 1_555
C86_2 C82_2 1_555 1_555
H64_2 C86_2 1_555 1_555
H65_2 C86_2 1_555 1_555
Zn12 N15_2 1_555 1_555
O19_2 C89_2 1_555 1_555
C88_2 C95_2 1_555 1_555
O22_2 Zn12 1_555 1_555
C89_2 O22_2 1_555 1_555
C90_2 H66_2 1_555 1_555
N16_2 C95_2 1_555 1_555
C91_2 C89_2 1_555 1_555
C92_2 C91_2 1_555 1_555
H67_2 C92_2 1_555 1_555
C93_2 C97_2 1_555 1_555
C94_2 C90_2 1_555 1_555
H68_2 C94_2 1_555 1_555
C95_2 H69_2 1_555 1_555
C96_2 C88_2 1_555 1_555
H70_2 C96_2 1_555 1_555
C97_2 C96_2 1_555 1_555
C98_2 C93_2 1_555 1_555
H72_2 C98_2 1_555 1_555
C100_2 C92_2 1_555 1_555
H73_2 C100_2 1_555 1_555
C101_2 C94_2 1_555 1_555
N17_2 N16_2 1_555 1_555
C102_2 C88_2 1_555 1_555
H74_2 C102_2 1_555 1_555
C103_2 N16_2 1_555 1_555
H75_2 C103_2 1_555 1_555
C104_2 N17_2 1_555 1_555
H76_2 C104_2 1_555 1_555
N18 C103_2 1_555 1_555
C80_2 C87_2 1_555 1_555
O18_2 C87_2 1_555 1_555
C84_2 C85_2 1_555 1_555
C90_2 C91_2 1_555 1_555
C95_2 C101_2 1_555 1_555
C98_2 C102_2 1_555 1_555
C100_2 C101_2 1_555 1_555
C104_2 N18 1_555 1_555
O24 C99_2 1_555 1_555
O21_2 C99_2 1_555 1_555
H45_2 C64_2 1_555 1_555

#END
