
###############################################################################
#
# This file contains modified crystal structure data generated from the
# MOF subset of the Cambridge Structural Database (CSD) v543 
# hosted by the Cambridge Crystallographic Data Centre (CCDC).
#
# This work is licensed under the Creative Commons
# Attribution-NonCommercial-ShareAlike 4.0 International License.
# To view a copy of this license, visit
# http://creativecommons.org/licenses/by-nc-sa/4.0/
# or send a letter to
# Creative Commons, PO Box 1866, Mountain View, CA 94042, USA.
#
# CIF created using the CSD Python API on 29 September 2022
# The structure has been converted into the P1 space group
# The structure has a 3D framework
# The original CSD entry CUDHER is in the monoclinic crystal system
# The framework has been calculated to contain at least 10.0% void space
# The void calculation uses a probe of radius 1.32A, grid spacing 0.4
# H atom positions have been added when not included in the experimental data
# Generated hydrogen atom positions removed from atoms on special positions
#
###############################################################################

data_CUDHER
_chemical_formula_moiety         '(C210 H204 Cu24 N76 O52)n'
_symmetry_cell_setting           triclinic
_symmetry_space_group_name_H-M   'P 1'
_symmetry_Int_Tables_number      1
_space_group_name_Hall           'P 1'
loop_
_symmetry_equiv_pos_site_id
_symmetry_equiv_pos_as_xyz
1 x,y,z
_cell_length_a                   31.421(3)
_cell_length_b                   17.6474(18)
_cell_length_c                   17.2392(17)
_cell_angle_alpha                90
_cell_angle_beta                 117.491(2)
_cell_angle_gamma                90
_cell_volume                     8479.73
loop_
_atom_site_label
_atom_site_type_symbol
_atom_site_fract_x
_atom_site_fract_y
_atom_site_fract_z
Cu6 Cu -0.0000 0.0000 -0.0000
C1 C 0.2483(2) 0.3704(5) 0.6167(5)
H1 H 0.2203 0.3503 0.6142
C2 C 0.3091(2) 0.3893(5) 0.5947(5)
H2 H 0.3312 0.3840 0.5732
C3 C 0.3105(2) 0.4440(5) 0.6501(6)
H3 H 0.3332 0.4823 0.6741
C4 C 0.2549(2) 0.4779(6) 0.7122(6)
C5 C 0.2061(2) 0.4852(6) 0.6822(5)
H4 H 0.1851 0.4582 0.6330
C6 C 0.2854(3) 0.5179(7) 0.7827(6)
H5 H 0.3179 0.5195 0.7980
C7 C 0.2680(3) 0.5566(7) 0.8319(7)
H6 H 0.2895 0.5775 0.8852
C8 C 0.2207(3) 0.5645(7) 0.8042(7)
H7 H 0.2094 0.5914 0.8374
C9 C 0.1883(2) 0.5314(6) 0.7238(6)
C10 C 0.1042(2) 0.5152(6) 0.6134(6)
H8 H 0.1108 0.4914 0.5721
C11 C 0.1150(2) 0.5824(6) 0.7241(6)
H9 H 0.1287 0.6130 0.7735
C12 C 0.0688(2) 0.5723(6) 0.6721(6)
H10 H 0.0445 0.5926 0.6823
C13 C 0.04504(16) 0.4266(3) 0.4320(3)
C14 C 0.07082(15) 0.4011(3) 0.3808(3)
H11 H 0.0547 0.4227 0.3226
H12 H 0.1033 0.4208 0.4091
C15 C 0.11089(15) 0.2808(3) 0.4465(3)
H13 H 0.1013 0.2285 0.4465
H14 H 0.1145 0.3039 0.5003
C16 C 0.15850(16) 0.2815(3) 0.4468(3)
C17 C 0.03576(15) 0.2831(3) 0.3099(3)
C18 C 0.0000 0.1719(4) 0.2500
C19 C 0.0427(3) 0.0550(3) 0.3088(4)
H15 H 0.0702 0.0846 0.3158
H16 H 0.0437 0.0075 0.2814
C20 C 0.0482(4) 0.0376(4) 0.3980(5)
C21 C 0.0138(3) 0.1724(4) 0.5048(5)
H17 H 0.0203 0.1731 0.4574
C22 C 0.0147(4) 0.2320(4) 0.5497(6)
H18 H 0.0221 0.2813 0.5411
C24 C 0.0008(5) 0.2494(4) 0.6814(7)
C25 C 0.0000 0.2130(6) 0.7500
H20 H 0.0000 0.1603 0.7500
C26 C 0.0010(5) 0.3266(5) 0.6806(7)
H21 H 0.0017 0.3530 0.6346
C27 C 0.0000 0.3651(8) 0.7500
H22 H 0.0000 0.4178 0.7500
N1 N 0.07275(12) 0.3196(2) 0.3735(2)
N2 N 0.03804(15) 0.2060(2) 0.3131(3)
N3 N 0.0000 0.3233(3) 0.2500
N4 N 0.0000 0.0950(3) 0.2500
N5 N 0.27043(15) 0.3424(3) 0.5744(3)
N6 N 0.27113(16) 0.4316(4) 0.6642(4)
N7 N 0.13825(18) 0.5392(5) 0.6911(4)
N8 N 0.06108(18) 0.5285(5) 0.6016(4)
N9 N 0.0024(2) 0.2073(3) 0.6130(4)
N10 N 0.0024(2) 0.1097(3) 0.5353(3)
O1 O 0.16596(13) 0.3134(2) 0.3910(3)
O2 O 0.19148(11) 0.24594(19) 0.5114(2)
O3 O 0.03319(13) 0.4945(2) 0.4236(3)
O4 O 0.03711(16) 0.3817(2) 0.4789(3)
O5 O 0.0079(2) 0.0327(2) 0.3996(3)
O6 O 0.0874(3) 0.0266(5) 0.4595(4)
Cu1 Cu 0.0000 0.5000 0.5000
Cu2 Cu 0.0000 0.0000 0.5000
Cu3 Cu 0.2500 0.2500 0.5000
C37 C 0.0037(4) 0.1337(4) 0.8991(5)
H31 H 0.0116 0.1021 0.8644
N19 N 0.22957(15) 0.1576(3) 0.4256(3)
O15 O 0.33404(13) 0.1866(2) 0.6090(3)
O16 O 0.30852(11) 0.25406(19) 0.4886(2)
Cu4 Cu 0.0000 0.5000 0.0000
Cu6_2 Cu 0.0000 0.0000 1.0000
H43 H 0.0970179 0.00808454 0.672203
Cu4_2 Cu 0.0000 0.5000 1.0000
Cu6_3 Cu -0.0000 1.0000 -0.0000
O7 O 0.0926(3) 0.9955(5) 0.6128(6)
Cu2_2 Cu 0.0000 1.0000 0.5000
Cu6_4 Cu 0.0000 1.0000 1.0000
H44 H 0.105273 0.943876 0.613199
H29 H 0.9797 0.1731 0.0426
Cu6_5 Cu 1.0000 0.0000 -0.0000
C18_2 C 1.0000 0.1719(4) 0.2500
C23 C 0.9963(4) 0.1337(4) 0.6009(5)
H19 H 0.9884 0.1021 0.6356
C25_2 C 1.0000 0.2130(6) 0.7500
H20_2 H 1.0000 0.1603 0.7500
C27_2 C 1.0000 0.3651(8) 0.7500
H22_2 H 1.0000 0.4178 0.7500
N3_2 N 1.0000 0.3233(3) 0.2500
N4_2 N 1.0000 0.0950(3) 0.2500
Cu1_2 Cu 1.0000 0.5000 0.5000
Cu2_3 Cu 1.0000 0.0000 0.5000
C28 C 0.95496(16) 0.4266(3) 0.0680(3)
C29 C 0.92918(15) 0.4011(3) 0.1192(3)
H23 H 0.9453 0.4227 0.1774
H24 H 0.8967 0.4208 0.0909
C30 C 0.88911(15) 0.2808(3) 0.0535(3)
H25 H 0.8987 0.2285 0.0535
C31 C 0.84150(16) 0.2815(3) 0.0532(3)
C32 C 0.96424(15) 0.2831(3) 0.1901(3)
C33 C 0.9573(3) 0.0550(3) 0.1912(4)
H27 H 0.9298 0.0846 0.1842
H28 H 0.9563 0.0075 0.2186
C34 C 0.9518(4) 0.0376(4) 0.1020(5)
N11 N 0.92725(12) 0.3196(2) 0.1265(2)
N12 N 0.96196(15) 0.2060(2) 0.1869(3)
O8 O 0.83404(13) 0.3134(2) 0.1090(3)
O10 O 0.96681(13) 0.4945(2) 0.0764(3)
O11 O 0.96289(16) 0.3817(2) 0.0211(3)
O12 O 0.9921(2) 0.0327(2) 0.1004(3)
O13 O 0.9126(3) 0.0266(5) 0.0405(4)
C35 C 0.9862(3) 0.1724(4) 0.9952(5)
C36 C 0.9853(4) 0.2320(4) 0.9503(6)
H30 H 0.9779 0.2813 0.9589
C38 C 0.9992(5) 0.2494(4) 0.8186(7)
C39 C 0.9990(5) 0.3266(5) 0.8194(7)
H32 H 0.9983 0.3530 0.8654
N13 N 0.9976(2) 0.2073(3) 0.8870(4)
N14 N 0.9976(2) 0.1097(3) 0.9647(3)
C40 C 0.7517(2) 0.6296(5) 0.3833(5)
H33 H 0.7797 0.6497 0.3858
C41 C 0.6909(2) 0.6107(5) 0.4053(5)
H34 H 0.6688 0.6160 0.4268
C42 C 0.6895(2) 0.5560(5) 0.3499(6)
H35 H 0.6668 0.5177 0.3259
C43 C 0.7451(2) 0.5221(6) 0.2878(6)
C44 C 0.7939(2) 0.5148(6) 0.3178(5)
H36 H 0.8149 0.5418 0.3670
C45 C 0.7146(3) 0.4821(7) 0.2173(6)
H37 H 0.6821 0.4805 0.2020
C46 C 0.7320(3) 0.4434(7) 0.1681(7)
H38 H 0.7105 0.4225 0.1148
C47 C 0.7793(3) 0.4355(7) 0.1958(7)
H39 H 0.7906 0.4086 0.1626
C48 C 0.8117(2) 0.4686(6) 0.2762(6)
C49 C 0.8958(2) 0.4848(6) 0.3866(6)
H40 H 0.8892 0.5086 0.4279
C50 C 0.8850(2) 0.4176(6) 0.2759(6)
H41 H 0.8713 0.3870 0.2265
C51 C 0.9312(2) 0.4277(6) 0.3279(6)
H42 H 0.9555 0.4074 0.3177
N15 N 0.72957(15) 0.6576(3) 0.4256(3)
N16 N 0.72887(16) 0.5684(4) 0.3358(4)
N17 N 0.86175(18) 0.4608(5) 0.3089(4)
N18 N 0.93892(18) 0.4715(5) 0.3984(4)
O14 O 0.9074(3) 0.0045(5) 0.3872(6)
O17 O 0.96681(13) 0.5055(2) 0.5764(3)
O18 O 0.96289(16) 0.6183(2) 0.5211(3)
Cu4_3 Cu 1.0000 0.5000 0.0000
Cu6_6 Cu 1.0000 0.0000 1.0000
Cu7 Cu 0.7500 0.2500 0.0000
Cu8 Cu 0.7500 0.7500 0.5000
H45 H 0.90187 0.0429777 0.34148
H26 H 0.8855 0.3039 0.9997
O9 O 0.80852(11) 0.24594(19) 0.9886(2)
Cu4_4 Cu 1.0000 0.5000 1.0000
Cu7_2 Cu 0.7500 0.2500 1.0000
Cu6_7 Cu 1.0000 1.0000 -0.0000
Cu2_4 Cu 1.0000 1.0000 0.5000
N20 N 0.9976(2) 0.8903(3) 0.4647(3)
O19 O 0.9921(2) 0.9673(2) 0.6004(3)
Cu6_8 Cu 1.0000 1.0000 1.0000
H46 H 0.896952 0.954 0.359435
C40_2 C 0.2483(2) 0.6296(5) 0.1167(5)
H33_2 H 0.2203 0.6497 0.1142
C41_2 C 0.3091(2) 0.6107(5) 0.0947(5)
H34_2 H 0.3312 0.6160 0.0732
C42_2 C 0.3105(2) 0.5560(5) 0.1501(6)
H35_2 H 0.3332 0.5177 0.1741
C43_2 C 0.2549(2) 0.5221(6) 0.2122(6)
C44_2 C 0.2061(2) 0.5148(6) 0.1822(5)
H36_2 H 0.1851 0.5418 0.1330
C45_2 C 0.2854(3) 0.4821(7) 0.2827(6)
H37_2 H 0.3179 0.4805 0.2980
C46_2 C 0.2680(3) 0.4434(7) 0.3319(7)
H38_2 H 0.2895 0.4225 0.3852
C47_2 C 0.2207(3) 0.4355(7) 0.3042(7)
H39_2 H 0.2094 0.4086 0.3374
C48_2 C 0.1883(2) 0.4686(6) 0.2238(6)
C49_2 C 0.1042(2) 0.4848(6) 0.1134(6)
H40_2 H 0.1108 0.5086 0.0721
C50_2 C 0.1150(2) 0.4176(6) 0.2241(6)
H41_2 H 0.1287 0.3870 0.2735
C51_2 C 0.0688(2) 0.4277(6) 0.1721(6)
H42_2 H 0.0445 0.4074 0.1823
N15_2 N 0.27043(15) 0.6576(3) 0.0744(3)
N16_2 N 0.27113(16) 0.5684(4) 0.1642(4)
N17_2 N 0.13825(18) 0.4608(5) 0.1911(4)
N18_2 N 0.06108(18) 0.4715(5) 0.1016(4)
O14_2 O 0.0926(3) 0.0045(5) 0.1128(6)
Cu8_2 Cu 0.2500 0.7500 0.0000
H45_2 H 0.0981303 0.0429777 0.15852
O17_2 O 0.03319(13) 0.5055(2) 0.9236(3)
O18_2 O 0.03711(16) 0.6183(2) 0.9789(3)
Cu8_3 Cu 0.2500 0.7500 1.0000
N20_2 N 0.0024(2) 0.8903(3) 0.0353(3)
H46_2 H 0.103048 0.954 0.140565
O19_2 O 0.0079(2) 0.9673(2) 0.8996(3)
N19_2 N 0.77043(15) 0.1576(3) 0.0744(3)
O16_2 O 0.69148(11) 0.25406(19) 0.0114(2)
C1_2 C 0.7517(2) 0.3704(5) 0.8833(5)
H1_2 H 0.7797 0.3503 0.8858
C2_2 C 0.6909(2) 0.3893(5) 0.9053(5)
H2_2 H 0.6688 0.3840 0.9268
C3_2 C 0.6895(2) 0.4440(5) 0.8499(6)
H3_2 H 0.6668 0.4823 0.8259
C4_2 C 0.7451(2) 0.4779(6) 0.7878(6)
C5_2 C 0.7939(2) 0.4852(6) 0.8178(5)
H4_2 H 0.8149 0.4582 0.8670
C6_2 C 0.7146(3) 0.5179(7) 0.7173(6)
H5_2 H 0.6821 0.5195 0.7020
C7_2 C 0.7320(3) 0.5566(7) 0.6681(7)
H6_2 H 0.7105 0.5775 0.6148
C8_2 C 0.7793(3) 0.5645(7) 0.6958(7)
H7_2 H 0.7906 0.5914 0.6626
C9_2 C 0.8117(2) 0.5314(6) 0.7762(6)
C10_2 C 0.8958(2) 0.5152(6) 0.8866(6)
H8_2 H 0.8892 0.4914 0.9279
C11_2 C 0.8850(2) 0.5824(6) 0.7759(6)
H9_2 H 0.8713 0.6130 0.7265
C12_2 C 0.9312(2) 0.5723(6) 0.8279(6)
H10_2 H 0.9555 0.5926 0.8177
N5_2 N 0.72957(15) 0.3424(3) 0.9256(3)
N6_2 N 0.72887(16) 0.4316(4) 0.8358(4)
N7_2 N 0.86175(18) 0.5392(5) 0.8089(4)
N8_2 N 0.93892(18) 0.5285(5) 0.8984(4)
O15_2 O 0.66596(13) 0.1866(2) 0.8910(3)
H43_2 H 0.902982 0.00808454 0.827797
O7_2 O 0.9074(3) 0.9955(5) 0.8872(6)
H44_2 H 0.894727 0.943876 0.886801
C6_3 C 0.7854(3) 0.0179(7) 0.7827(6)
H5_3 H 0.8179 0.0195 0.7980
C7_3 C 0.7680(3) 0.0566(7) 0.8319(7)
H6_3 H 0.7895 0.0775 0.8852
C8_3 C 0.7207(3) 0.0645(7) 0.8042(7)
H7_3 H 0.7094 0.0914 0.8374
C9_3 C 0.6883(2) 0.0314(6) 0.7238(6)
C10_3 C 0.6042(2) 0.0152(6) 0.6134(6)
C11_3 C 0.6150(2) 0.0824(6) 0.7241(6)
H9_3 H 0.6287 0.1130 0.7735
C12_3 C 0.5688(2) 0.0723(6) 0.6721(6)
H10_3 H 0.5445 0.0926 0.6823
N7_3 N 0.63825(18) 0.0392(5) 0.6911(4)
N8_3 N 0.56108(18) 0.0285(5) 0.6016(4)
Cu1_3 Cu 0.5000 -0.0000 0.5000
C40_3 C 0.2517(2) 0.1296(5) 0.3833(5)
H33_3 H 0.2797 0.1497 0.3858
C41_3 C 0.1909(2) 0.1107(5) 0.4053(5)
H34_3 H 0.1688 0.1160 0.4268
C42_3 C 0.1895(2) 0.0560(5) 0.3499(6)
H35_3 H 0.1668 0.0177 0.3259
C43_3 C 0.2451(2) 0.0221(6) 0.2878(6)
C44_3 C 0.2939(2) 0.0148(6) 0.3178(5)
H36_3 H 0.3149 0.0418 0.3670
H40_3 H 0.3892 0.0086 0.4279
N16_3 N 0.22887(16) 0.0684(4) 0.3358(4)
O17_3 O 0.46681(13) 0.0055(2) 0.5764(3)
O18_3 O 0.46289(16) 0.1183(2) 0.5211(3)
Cu4_5 Cu 0.5000 0.0000 0.0000
Cu4_6 Cu 0.5000 0.0000 1.0000
H29_2 H 0.4797 0.6731 0.0426
Cu6_9 Cu 0.5000 0.5000 -0.0000
C1_3 C 0.7483(2) 0.8704(5) 0.6167(5)
H1_3 H 0.7203 0.8503 0.6142
C2_3 C 0.8091(2) 0.8893(5) 0.5947(5)
H2_3 H 0.8312 0.8840 0.5732
C3_3 C 0.8105(2) 0.9440(5) 0.6501(6)
H3_3 H 0.8332 0.9823 0.6741
C4_3 C 0.7549(2) 0.9779(6) 0.7122(6)
C5_3 C 0.7061(2) 0.9852(6) 0.6822(5)
H4_3 H 0.6851 0.9582 0.6330
H8_3 H 0.6108 0.9914 0.5721
C13_2 C 0.54504(16) 0.9266(3) 0.4320(3)
C14_2 C 0.57082(15) 0.9011(3) 0.3808(3)
H11_2 H 0.5547 0.9227 0.3226
H12_2 H 0.6033 0.9208 0.4091
C15_2 C 0.61089(15) 0.7808(3) 0.4465(3)
H13_2 H 0.6013 0.7285 0.4465
H14_2 H 0.6145 0.8039 0.5003
C16_2 C 0.65850(16) 0.7815(3) 0.4468(3)
C17_2 C 0.53576(15) 0.7831(3) 0.3099(3)
C18_3 C 0.5000 0.6719(4) 0.2500
C19_2 C 0.5427(3) 0.5550(3) 0.3088(4)
H15_2 H 0.5702 0.5846 0.3158
H16_2 H 0.5437 0.5075 0.2814
C20_2 C 0.5482(4) 0.5376(4) 0.3980(5)
C21_2 C 0.5138(3) 0.6724(4) 0.5048(5)
H17_2 H 0.5203 0.6731 0.4574
C22_2 C 0.5147(4) 0.7320(4) 0.5497(6)
H18_2 H 0.5221 0.7813 0.5411
C23_2 C 0.4963(4) 0.6337(4) 0.6009(5)
H19_2 H 0.4884 0.6021 0.6356
C24_2 C 0.5008(5) 0.7494(4) 0.6814(7)
C25_3 C 0.5000 0.7130(6) 0.7500
H20_3 H 0.5000 0.6603 0.7500
C26_2 C 0.5010(5) 0.8266(5) 0.6806(7)
H21_2 H 0.5017 0.8530 0.6346
C27_3 C 0.5000 0.8651(8) 0.7500
H22_3 H 0.5000 0.9178 0.7500
N1_2 N 0.57275(12) 0.8196(2) 0.3735(2)
N2_2 N 0.53804(15) 0.7060(2) 0.3131(3)
N3_3 N 0.5000 0.8233(3) 0.2500
N4_3 N 0.5000 0.5950(3) 0.2500
N5_3 N 0.77043(15) 0.8424(3) 0.5744(3)
N6_3 N 0.77113(16) 0.9316(4) 0.6642(4)
N9_2 N 0.5024(2) 0.7073(3) 0.6130(4)
N10_2 N 0.5024(2) 0.6097(3) 0.5353(3)
O1_2 O 0.66596(13) 0.8134(2) 0.3910(3)
O2_2 O 0.69148(11) 0.74594(19) 0.5114(2)
O3_2 O 0.53319(13) 0.9945(2) 0.4236(3)
O4_2 O 0.53711(16) 0.8817(2) 0.4789(3)
O5_2 O 0.5079(2) 0.5327(2) 0.3996(3)
O6_2 O 0.5874(3) 0.5266(5) 0.4595(4)
O7_3 O 0.5926(3) 0.4955(5) 0.6128(6)
Cu1_4 Cu 0.5000 1.0000 0.5000
Cu2_5 Cu 0.5000 0.5000 0.5000
C28_2 C 0.45496(16) 0.9266(3) 0.0680(3)
C29_2 C 0.42918(15) 0.9011(3) 0.1192(3)
H23_2 H 0.4453 0.9227 0.1774
H24_2 H 0.3967 0.9208 0.0909
C30_2 C 0.38911(15) 0.7808(3) 0.0535(3)
H25_2 H 0.3987 0.7285 0.0535
C31_2 C 0.34150(16) 0.7815(3) 0.0532(3)
C32_2 C 0.46424(15) 0.7831(3) 0.1901(3)
C33_2 C 0.4573(3) 0.5550(3) 0.1912(4)
H27_2 H 0.4298 0.5846 0.1842
H28_2 H 0.4563 0.5075 0.2186
C34_2 C 0.4518(4) 0.5376(4) 0.1020(5)
N11_2 N 0.42725(12) 0.8196(2) 0.1265(2)
N12_2 N 0.46196(15) 0.7060(2) 0.1869(3)
O8_2 O 0.33404(13) 0.8134(2) 0.1090(3)
O10_2 O 0.46681(13) 0.9945(2) 0.0764(3)
O11_2 O 0.46289(16) 0.8817(2) 0.0211(3)
O12_2 O 0.4921(2) 0.5327(2) 0.1004(3)
O13_2 O 0.4126(3) 0.5266(5) 0.0405(4)
C35_2 C 0.4862(3) 0.6724(4) 0.9952(5)
C36_2 C 0.4853(4) 0.7320(4) 0.9503(6)
H30_2 H 0.4779 0.7813 0.9589
C37_2 C 0.5037(4) 0.6337(4) 0.8991(5)
H31_2 H 0.5116 0.6021 0.8644
C38_2 C 0.4992(5) 0.7494(4) 0.8186(7)
C39_2 C 0.4990(5) 0.8266(5) 0.8194(7)
H32_2 H 0.4983 0.8530 0.8654
N13_2 N 0.4976(2) 0.7073(3) 0.8870(4)
N14_2 N 0.4976(2) 0.6097(3) 0.9647(3)
C45_3 C 0.2146(3) 0.9821(7) 0.2173(6)
H37_3 H 0.1821 0.9805 0.2020
C46_3 C 0.2320(3) 0.9434(7) 0.1681(7)
H38_3 H 0.2105 0.9225 0.1148
C47_3 C 0.2793(3) 0.9355(7) 0.1958(7)
H39_3 H 0.2906 0.9086 0.1626
C48_3 C 0.3117(2) 0.9686(6) 0.2762(6)
C49_3 C 0.3958(2) 0.9848(6) 0.3866(6)
C50_3 C 0.3850(2) 0.9176(6) 0.2759(6)
H41_3 H 0.3713 0.8870 0.2265
C51_3 C 0.4312(2) 0.9277(6) 0.3279(6)
H42_3 H 0.4555 0.9074 0.3177
N17_3 N 0.36175(18) 0.9608(5) 0.3089(4)
N18_3 N 0.43892(18) 0.9715(5) 0.3984(4)
O14_3 O 0.4074(3) 0.5045(5) 0.3872(6)
N20_3 N 0.4976(2) 0.3903(3) 0.4647(3)
O15_3 O 0.83404(13) 0.6866(2) 0.6090(3)
O16_3 O 0.80852(11) 0.75406(19) 0.4886(2)
O19_3 O 0.4921(2) 0.4673(2) 0.6004(3)
Cu4_7 Cu 0.5000 1.0000 0.0000
Cu6_10 Cu 0.5000 0.5000 1.0000
H26_2 H 0.3855 0.8039 0.9997
O9_2 O 0.30852(11) 0.74594(19) 0.9886(2)
Cu4_8 Cu 0.5000 1.0000 1.0000
C40_4 C 0.7483(2) 0.1296(5) 0.1167(5)
H33_4 H 0.7203 0.1497 0.1142
C41_4 C 0.8091(2) 0.1107(5) 0.0947(5)
H34_4 H 0.8312 0.1160 0.0732
C42_4 C 0.8105(2) 0.0560(5) 0.1501(6)
H35_4 H 0.8332 0.0177 0.1741
C43_4 C 0.7549(2) 0.0221(6) 0.2122(6)
C44_4 C 0.7061(2) 0.0148(6) 0.1822(5)
H36_4 H 0.6851 0.0418 0.1330
H40_4 H 0.6108 0.0086 0.0721
N16_4 N 0.77113(16) 0.0684(4) 0.1642(4)
C6_4 C 0.2146(3) 0.0179(7) 0.7173(6)
H5_4 H 0.1821 0.0195 0.7020
C7_4 C 0.2320(3) 0.0566(7) 0.6681(7)
H6_4 H 0.2105 0.0775 0.6148
C8_4 C 0.2793(3) 0.0645(7) 0.6958(7)
H7_4 H 0.2906 0.0914 0.6626
C9_4 C 0.3117(2) 0.0314(6) 0.7762(6)
C10_4 C 0.3958(2) 0.0152(6) 0.8866(6)
C11_4 C 0.3850(2) 0.0824(6) 0.7759(6)
H9_4 H 0.3713 0.1130 0.7265
C12_4 C 0.4312(2) 0.0723(6) 0.8279(6)
H10_4 H 0.4555 0.0926 0.8177
N7_4 N 0.36175(18) 0.0392(5) 0.8089(4)
N8_4 N 0.43892(18) 0.0285(5) 0.8984(4)
O17_4 O 0.53319(13) 0.0055(2) 0.9236(3)
O18_4 O 0.53711(16) 0.1183(2) 0.9789(3)
C45_4 C 0.7854(3) 0.9821(7) 0.2827(6)
H37_4 H 0.8179 0.9805 0.2980
C46_4 C 0.7680(3) 0.9434(7) 0.3319(7)
H38_4 H 0.7895 0.9225 0.3852
C47_4 C 0.7207(3) 0.9355(7) 0.3042(7)
H39_4 H 0.7094 0.9086 0.3374
C48_4 C 0.6883(2) 0.9686(6) 0.2238(6)
C49_4 C 0.6042(2) 0.9848(6) 0.1134(6)
C50_4 C 0.6150(2) 0.9176(6) 0.2241(6)
H41_4 H 0.6287 0.8870 0.2735
C51_4 C 0.5688(2) 0.9277(6) 0.1721(6)
H42_4 H 0.5445 0.9074 0.1823
N17_4 N 0.63825(18) 0.9608(5) 0.1911(4)
N18_4 N 0.56108(18) 0.9715(5) 0.1016(4)
O14_4 O 0.5926(3) 0.5045(5) 0.1128(6)
N20_4 N 0.5024(2) 0.3903(3) 0.0353(3)
O16_4 O 0.19148(11) 0.75406(19) 0.0114(2)
C1_4 C 0.2517(2) 0.8704(5) 0.8833(5)
H1_4 H 0.2797 0.8503 0.8858
C2_4 C 0.1909(2) 0.8893(5) 0.9053(5)
H2_4 H 0.1688 0.8840 0.9268
C3_4 C 0.1895(2) 0.9440(5) 0.8499(6)
H3_4 H 0.1668 0.9823 0.8259
C4_4 C 0.2451(2) 0.9779(6) 0.7878(6)
C5_4 C 0.2939(2) 0.9852(6) 0.8178(5)
H4_4 H 0.3149 0.9582 0.8670
H8_4 H 0.3892 0.9914 0.9279
N5_4 N 0.22957(15) 0.8424(3) 0.9256(3)
N6_4 N 0.22887(16) 0.9316(4) 0.8358(4)
O7_4 O 0.4074(3) 0.4955(5) 0.8872(6)
O15_4 O 0.16596(13) 0.6866(2) 0.8910(3)
O19_4 O 0.5079(2) 0.4673(2) 0.8996(3)
H46_3 H 0.103048 0.0460005 0.640565
H26_3 H 0.1145 0.6961 0.0003
C18_4 C 0.0000 0.8281(4) 0.7500
C23_3 C 0.0037(4) 0.8663(4) 0.3991(5)
H19_3 H 0.0116 0.8979 0.3644
C25_4 C 0.0000 0.7870(6) 0.2500
H20_4 H 0.0000 0.8397 0.2500
C27_4 C 0.0000 0.6349(8) 0.2500
H22_4 H 0.0000 0.5822 0.2500
N3_4 N 0.0000 0.6767(3) 0.7500
N4_4 N 0.0000 0.9050(3) 0.7500
C28_3 C 0.04504(16) 0.5734(3) 0.9320(3)
C29_3 C 0.07082(15) 0.5989(3) 0.8808(3)
H23_3 H 0.0547 0.5773 0.8226
H24_3 H 0.1033 0.5792 0.9091
C30_3 C 0.11089(15) 0.7192(3) 0.9465(3)
H25_3 H 0.1013 0.7715 0.9465
C31_3 C 0.15850(16) 0.7185(3) 0.9468(3)
C32_3 C 0.03576(15) 0.7169(3) 0.8099(3)
C33_3 C 0.0427(3) 0.9450(3) 0.8088(4)
H27_3 H 0.0702 0.9154 0.8158
H28_3 H 0.0437 0.9925 0.7814
C34_3 C 0.0482(4) 0.9624(4) 0.8980(5)
N11_3 N 0.07275(12) 0.6804(2) 0.8735(2)
N12_3 N 0.03804(15) 0.7940(2) 0.8131(3)
O13_3 O 0.0874(3) 0.9734(5) 0.9595(4)
C35_3 C 0.0138(3) 0.8276(4) 0.0048(5)
C36_3 C 0.0147(4) 0.7680(4) 0.0497(6)
H30_3 H 0.0221 0.7187 0.0411
C38_3 C 0.0008(5) 0.7506(4) 0.1814(7)
C39_3 C 0.0010(5) 0.6734(5) 0.1806(7)
H32_3 H 0.0017 0.6470 0.1346
N13_3 N 0.0024(2) 0.7927(3) 0.1130(4)
H45_3 H 0.0981303 0.957022 0.65852
H29_3 H 0.0203 0.8269 0.9574
H44_3 H 0.894727 0.056124 0.386801
C13_3 C 0.95496(16) 0.5734(3) 0.5680(3)
C14_3 C 0.92918(15) 0.5989(3) 0.6192(3)
H11_3 H 0.9453 0.5773 0.6774
H12_3 H 0.8967 0.5792 0.5909
C15_3 C 0.88911(15) 0.7192(3) 0.5535(3)
H13_3 H 0.8987 0.7715 0.5535
H14_3 H 0.8855 0.6961 0.4997
C16_3 C 0.84150(16) 0.7185(3) 0.5532(3)
C17_3 C 0.96424(15) 0.7169(3) 0.6901(3)
C18_5 C 1.0000 0.8281(4) 0.7500
C19_3 C 0.9573(3) 0.9450(3) 0.6912(4)
H15_3 H 0.9298 0.9154 0.6842
H16_3 H 0.9563 0.9925 0.7186
C20_3 C 0.9518(4) 0.9624(4) 0.6020(5)
C21_3 C 0.9862(3) 0.8276(4) 0.4952(5)
H17_3 H 0.9797 0.8269 0.5426
C22_3 C 0.9853(4) 0.7680(4) 0.4503(6)
H18_3 H 0.9779 0.7187 0.4589
C24_3 C 0.9992(5) 0.7506(4) 0.3186(7)
C25_5 C 1.0000 0.7870(6) 0.2500
H20_5 H 1.0000 0.8397 0.2500
C26_3 C 0.9990(5) 0.6734(5) 0.3194(7)
H21_3 H 0.9983 0.6470 0.3654
C27_5 C 1.0000 0.6349(8) 0.2500
H22_5 H 1.0000 0.5822 0.2500
N1_3 N 0.92725(12) 0.6804(2) 0.6265(2)
N2_3 N 0.96196(15) 0.7940(2) 0.6869(3)
N3_5 N 1.0000 0.6767(3) 0.7500
N4_5 N 1.0000 0.9050(3) 0.7500
N9_3 N 0.9976(2) 0.7927(3) 0.3870(4)
O6_3 O 0.9126(3) 0.9734(5) 0.5405(4)
C37_3 C 0.9963(4) 0.8663(4) 0.1009(5)
H31_3 H 0.9884 0.8979 0.1356
H43_3 H 0.902982 0.991915 0.327797
H44_4 H 0.105273 0.056124 0.113199
H43_4 H 0.0970179 0.991915 0.172203
H46_4 H 0.896952 0.0460005 0.859435
H45_4 H 0.90187 0.957022 0.84148
H26_4 H 0.6145 0.1961 0.0003
C13_4 C 0.45496(16) 0.0734(3) 0.5680(3)
C14_4 C 0.42918(15) 0.0989(3) 0.6192(3)
H11_4 H 0.4453 0.0773 0.6774
H12_4 H 0.3967 0.0792 0.5909
C15_4 C 0.38911(15) 0.2192(3) 0.5535(3)
H13_4 H 0.3987 0.2715 0.5535
H14_4 H 0.3855 0.1961 0.4997
C16_4 C 0.34150(16) 0.2185(3) 0.5532(3)
C17_4 C 0.46424(15) 0.2169(3) 0.6901(3)
C18_6 C 0.5000 0.3281(4) 0.7500
C19_4 C 0.4573(3) 0.4450(3) 0.6912(4)
H15_4 H 0.4298 0.4154 0.6842
H16_4 H 0.4563 0.4925 0.7186
C20_4 C 0.4518(4) 0.4624(4) 0.6020(5)
C21_4 C 0.4862(3) 0.3276(4) 0.4952(5)
H17_4 H 0.4797 0.3269 0.5426
C22_4 C 0.4853(4) 0.2680(4) 0.4503(6)
H18_4 H 0.4779 0.2187 0.4589
C23_4 C 0.5037(4) 0.3663(4) 0.3991(5)
H19_4 H 0.5116 0.3979 0.3644
C24_4 C 0.4992(5) 0.2506(4) 0.3186(7)
C25_6 C 0.5000 0.2870(6) 0.2500
H20_6 H 0.5000 0.3397 0.2500
C26_4 C 0.4990(5) 0.1734(5) 0.3194(7)
H21_4 H 0.4983 0.1470 0.3654
C27_6 C 0.5000 0.1349(8) 0.2500
H22_6 H 0.5000 0.0822 0.2500
N1_4 N 0.42725(12) 0.1804(2) 0.6265(2)
N2_4 N 0.46196(15) 0.2940(2) 0.6869(3)
N3_6 N 0.5000 0.1767(3) 0.7500
N4_6 N 0.5000 0.4050(3) 0.7500
N9_4 N 0.4976(2) 0.2927(3) 0.3870(4)
O6_4 O 0.4126(3) 0.4734(5) 0.5405(4)
C28_4 C 0.54504(16) 0.0734(3) 0.9320(3)
C29_4 C 0.57082(15) 0.0989(3) 0.8808(3)
H23_4 H 0.5547 0.0773 0.8226
H24_4 H 0.6033 0.0792 0.9091
C30_4 C 0.61089(15) 0.2192(3) 0.9465(3)
H25_4 H 0.6013 0.2715 0.9465
C31_4 C 0.65850(16) 0.2185(3) 0.9468(3)
C32_4 C 0.53576(15) 0.2169(3) 0.8099(3)
C33_4 C 0.5427(3) 0.4450(3) 0.8088(4)
H27_4 H 0.5702 0.4154 0.8158
H28_4 H 0.5437 0.4925 0.7814
C34_4 C 0.5482(4) 0.4624(4) 0.8980(5)
N11_4 N 0.57275(12) 0.1804(2) 0.8735(2)
N12_4 N 0.53804(15) 0.2940(2) 0.8131(3)
O13_4 O 0.5874(3) 0.4734(5) 0.9595(4)
C35_4 C 0.5138(3) 0.3276(4) 0.0048(5)
C36_4 C 0.5147(4) 0.2680(4) 0.0497(6)
H30_4 H 0.5221 0.2187 0.0411
C37_4 C 0.4963(4) 0.3663(4) 0.1009(5)
H31_4 H 0.4884 0.3979 0.1356
C38_4 C 0.5008(5) 0.2506(4) 0.1814(7)
C39_4 C 0.5010(5) 0.1734(5) 0.1806(7)
H32_4 H 0.5017 0.1470 0.1346
N13_4 N 0.5024(2) 0.2927(3) 0.1130(4)
H29_4 H 0.5203 0.3269 0.9574
loop_
_geom_bond_atom_site_label_1
_geom_bond_atom_site_label_2
_geom_bond_site_symmetry_1
_geom_bond_site_symmetry_2
C1 H1 1_555 1_555
C2 H2 1_555 1_555
C3 C2 1_555 1_555
H3 C3 1_555 1_555
C4 C5 1_555 1_555
C5 H4 1_555 1_555
C6 C4 1_555 1_555
H5 C6 1_555 1_555
C7 C6 1_555 1_555
H6 C7 1_555 1_555
C8 C7 1_555 1_555
H7 C8 1_555 1_555
C9 C5 1_555 1_555
C10 H8 1_555 1_555
C11 H9 1_555 1_555
C12 C11 1_555 1_555
H10 C12 1_555 1_555
C13 C14 1_555 1_555
C14 H11 1_555 1_555
H12 C14 1_555 1_555
C15 H13 1_555 1_555
H14 C15 1_555 1_555
C16 C15 1_555 1_555
C17 N1 1_555 1_555
C18 N2 1_555 1_555
C19 H15 1_555 1_555
H16 C19 1_555 1_555
C20 C19 1_555 1_555
C21 H17 1_555 1_555
C22 C21 1_555 1_555
H18 C22 1_555 1_555
C24 C25 1_555 1_555
C25 H20 1_555 1_555
C26 C24 1_555 1_555
H21 C26 1_555 1_555
C27 C26 1_555 1_555
H22 C27 1_555 1_555
N1 C14 1_555 1_555
N2 C17 1_555 1_555
N3 C17 1_555 1_555
N4 C18 1_555 1_555
N5 C1 1_555 1_555
N6 C1 1_555 1_555
N7 C9 1_555 1_555
N8 C10 1_555 1_555
N9 C22 1_555 1_555
N10 C21 1_555 1_555
O1 C16 1_555 1_555
O2 C16 1_555 1_555
O3 C13 1_555 1_555
O4 C13 1_555 1_555
O5 C20 1_555 1_555
O6 C20 1_555 1_555
Cu1 N8 1_555 1_555
Cu2 N10 1_555 1_555
Cu3 N5 1_555 1_555
C37 H31 1_555 1_555
N19 Cu3 1_555 1_555
O15 Cu3 1_555 1_555
O16 Cu3 1_555 1_555
C2 N5 1_555 1_555
C3 N6 1_555 1_555
C4 N6 1_555 1_555
C8 C9 1_555 1_555
C10 N7 1_555 1_555
C11 N7 1_555 1_555
C12 N8 1_555 1_555
C15 N1 1_555 1_555
C19 N4 1_555 1_555
C24 N9 1_555 1_555
O1 Cu3 1_555 1_555
O2 Cu3 1_555 1_555
O3 Cu1 1_555 1_555
O4 Cu1 1_555 1_555
O5 Cu2 1_555 1_555
O7 Cu2_2 1_555 1_555
O7 H44 1_555 1_555
C23 H19 1_555 1_555
C25_2 H20_2 1_555 1_555
H22_2 C27_2 1_555 1_555
N4_2 C18_2 1_555 1_555
C28 C29 1_555 1_555
C29 H23 1_555 1_555
H24 C29 1_555 1_555
C30 H25 1_555 1_555
C31 C30 1_555 1_555
C32 N3_2 1_555 1_555
C33 N4_2 1_555 1_555
H27 C33 1_555 1_555
H28 C33 1_555 1_555
C34 C33 1_555 1_555
N11 C29 1_555 1_555
N12 C18_2 1_555 1_555
O8 C31 1_555 1_555
O10 C28 1_555 1_555
O11 C28 1_555 1_555
O12 C34 1_555 1_555
O13 C34 1_555 1_555
C36 C35 1_555 1_555
H30 C36 1_555 1_555
C38 C25_2 1_555 1_555
C39 C27_2 1_555 1_555
H32 C39 1_555 1_555
N13 C36 1_555 1_555
N14 C35 1_555 1_555
C40 H33 1_555 1_555
C41 H34 1_555 1_555
C42 C41 1_555 1_555
H35 C42 1_555 1_555
C43 C44 1_555 1_555
C44 H36 1_555 1_555
C45 C43 1_555 1_555
H37 C45 1_555 1_555
C46 C45 1_555 1_555
H38 C46 1_555 1_555
C47 C46 1_555 1_555
H39 C47 1_555 1_555
C48 C44 1_555 1_555
C49 H40 1_555 1_555
C50 H41 1_555 1_555
C51 C50 1_555 1_555
H42 C51 1_555 1_555
N15 C40 1_555 1_555
N16 C40 1_555 1_555
N17 C48 1_555 1_555
N18 Cu1_2 1_555 1_555
O14 Cu2_3 1_555 1_555
O17 Cu1_2 1_555 1_555
O18 Cu1_2 1_555 1_555
Cu4_3 O10 1_555 1_555
Cu6_5 O12 1_555 1_555
Cu6_6 N14 1_555 1_555
Cu7 O8 1_555 1_555
Cu8 N15 1_555 1_555
C30 N11 1_555 1_555
C32 N11 1_555 1_555
C32 N12 1_555 1_555
O11 Cu4_3 1_555 1_555
C38 C39 1_555 1_555
C38 N13 1_555 1_555
C41 N15 1_555 1_555
C42 N16 1_555 1_555
C43 N16 1_555 1_555
C47 C48 1_555 1_555
C49 N17 1_555 1_555
C49 N18 1_555 1_555
C50 N17 1_555 1_555
C51 N18 1_555 1_555
O14 H45 1_555 1_555
O9 Cu7_2 1_555 1_555
N20 Cu2_4 1_555 1_555
O19 Cu2_4 1_555 1_555
C40_2 H33_2 1_555 1_555
C41_2 H34_2 1_555 1_555
C42_2 C41_2 1_555 1_555
H35_2 C42_2 1_555 1_555
C43_2 C44_2 1_555 1_555
C44_2 H36_2 1_555 1_555
C45_2 C43_2 1_555 1_555
H37_2 C45_2 1_555 1_555
C46_2 C45_2 1_555 1_555
H38_2 C46_2 1_555 1_555
C47_2 C46_2 1_555 1_555
H39_2 C47_2 1_555 1_555
C48_2 C44_2 1_555 1_555
C49_2 H40_2 1_555 1_555
C50_2 H41_2 1_555 1_555
C51_2 C50_2 1_555 1_555
H42_2 C51_2 1_555 1_555
N15_2 C40_2 1_555 1_555
N16_2 C40_2 1_555 1_555
N17_2 C48_2 1_555 1_555
N18_2 Cu4 1_555 1_555
O14_2 Cu6 1_555 1_555
Cu8_2 N15_2 1_555 1_555
C41_2 N15_2 1_555 1_555
C42_2 N16_2 1_555 1_555
C43_2 N16_2 1_555 1_555
C47_2 C48_2 1_555 1_555
C49_2 N17_2 1_555 1_555
C49_2 N18_2 1_555 1_555
C50_2 N17_2 1_555 1_555
C51_2 N18_2 1_555 1_555
O14_2 H45_2 1_555 1_555
O17_2 Cu4_2 1_555 1_555
O18_2 Cu4_2 1_555 1_555
N20_2 Cu6_3 1_555 1_555
O19_2 Cu6_4 1_555 1_555
N19_2 Cu7 1_555 1_555
O16_2 Cu7 1_555 1_555
C1_2 H1_2 1_555 1_555
C2_2 H2_2 1_555 1_555
C3_2 C2_2 1_555 1_555
H3_2 C3_2 1_555 1_555
C4_2 C5_2 1_555 1_555
C5_2 H4_2 1_555 1_555
C6_2 C4_2 1_555 1_555
H5_2 C6_2 1_555 1_555
C7_2 C6_2 1_555 1_555
H6_2 C7_2 1_555 1_555
C8_2 C7_2 1_555 1_555
H7_2 C8_2 1_555 1_555
C9_2 C5_2 1_555 1_555
C10_2 H8_2 1_555 1_555
C11_2 H9_2 1_555 1_555
C12_2 C11_2 1_555 1_555
H10_2 C12_2 1_555 1_555
N5_2 C1_2 1_555 1_555
N6_2 C1_2 1_555 1_555
N7_2 C9_2 1_555 1_555
N8_2 C10_2 1_555 1_555
Cu4_4 N8_2 1_555 1_555
Cu7_2 N5_2 1_555 1_555
O15_2 Cu7_2 1_555 1_555
C2_2 N5_2 1_555 1_555
C3_2 N6_2 1_555 1_555
C4_2 N6_2 1_555 1_555
C8_2 C9_2 1_555 1_555
C10_2 N7_2 1_555 1_555
C11_2 N7_2 1_555 1_555
C12_2 N8_2 1_555 1_555
O7_2 Cu6_8 1_555 1_555
O7_2 H44_2 1_555 1_555
H5_3 C6_3 1_555 1_555
C7_3 C6_3 1_555 1_555
H6_3 C7_3 1_555 1_555
C8_3 C7_3 1_555 1_555
H7_3 C8_3 1_555 1_555
C11_3 H9_3 1_555 1_555
C12_3 C11_3 1_555 1_555
H10_3 C12_3 1_555 1_555
N7_3 C9_3 1_555 1_555
N8_3 C10_3 1_555 1_555
Cu1_3 N8_3 1_555 1_555
C40_3 H33_3 1_555 1_555
C41_3 H34_3 1_555 1_555
C42_3 C41_3 1_555 1_555
H35_3 C42_3 1_555 1_555
C43_3 C44_3 1_555 1_555
C44_3 H36_3 1_555 1_555
N19 C40_3 1_555 1_555
N16_3 C40_3 1_555 1_555
O17_3 Cu1_3 1_555 1_555
O18_3 Cu1_3 1_555 1_555
C8_3 C9_3 1_555 1_555
C10_3 N7_3 1_555 1_555
C11_3 N7_3 1_555 1_555
C12_3 N8_3 1_555 1_555
C41_3 N19 1_555 1_555
C42_3 N16_3 1_555 1_555
C43_3 N16_3 1_555 1_555
C1_3 H1_3 1_555 1_555
C2_3 H2_3 1_555 1_555
C3_3 C2_3 1_555 1_555
H3_3 C3_3 1_555 1_555
C4_3 C5_3 1_555 1_555
C5_3 H4_3 1_555 1_555
C13_2 C14_2 1_555 1_555
C14_2 H11_2 1_555 1_555
H12_2 C14_2 1_555 1_555
C15_2 H13_2 1_555 1_555
H14_2 C15_2 1_555 1_555
C16_2 C15_2 1_555 1_555
C17_2 N1_2 1_555 1_555
C18_3 N2_2 1_555 1_555
C19_2 H15_2 1_555 1_555
H16_2 C19_2 1_555 1_555
C20_2 C19_2 1_555 1_555
C21_2 H17_2 1_555 1_555
C22_2 C21_2 1_555 1_555
H18_2 C22_2 1_555 1_555
C23_2 H19_2 1_555 1_555
C24_2 C25_3 1_555 1_555
C25_3 H20_3 1_555 1_555
C26_2 C24_2 1_555 1_555
H21_2 C26_2 1_555 1_555
C27_3 C26_2 1_555 1_555
H22_3 C27_3 1_555 1_555
N1_2 C14_2 1_555 1_555
N2_2 C17_2 1_555 1_555
N3_3 C17_2 1_555 1_555
N4_3 C18_3 1_555 1_555
N5_3 C1_3 1_555 1_555
N6_3 C1_3 1_555 1_555
N9_2 C22_2 1_555 1_555
N10_2 C21_2 1_555 1_555
O1_2 C16_2 1_555 1_555
O2_2 C16_2 1_555 1_555
O3_2 C13_2 1_555 1_555
O4_2 C13_2 1_555 1_555
O5_2 C20_2 1_555 1_555
O6_2 C20_2 1_555 1_555
O7_3 Cu2_5 1_555 1_555
Cu2_5 N10_2 1_555 1_555
Cu8 N5_3 1_555 1_555
C28_2 C29_2 1_555 1_555
C29_2 H23_2 1_555 1_555
H24_2 C29_2 1_555 1_555
C30_2 H25_2 1_555 1_555
C31_2 C30_2 1_555 1_555
C32_2 N3_3 1_555 1_555
C33_2 N4_3 1_555 1_555
H27_2 C33_2 1_555 1_555
H28_2 C33_2 1_555 1_555
C34_2 C33_2 1_555 1_555
N11_2 C29_2 1_555 1_555
N12_2 C18_3 1_555 1_555
O8_2 C31_2 1_555 1_555
O10_2 C28_2 1_555 1_555
O11_2 C28_2 1_555 1_555
O12_2 C34_2 1_555 1_555
O13_2 C34_2 1_555 1_555
C36_2 C35_2 1_555 1_555
H30_2 C36_2 1_555 1_555
C37_2 H31_2 1_555 1_555
C38_2 C25_3 1_555 1_555
C39_2 C27_3 1_555 1_555
H32_2 C39_2 1_555 1_555
N13_2 C36_2 1_555 1_555
N14_2 C35_2 1_555 1_555
H37_3 C45_3 1_555 1_555
C46_3 C45_3 1_555 1_555
H38_3 C46_3 1_555 1_555
C47_3 C46_3 1_555 1_555
H39_3 C47_3 1_555 1_555
C50_3 H41_3 1_555 1_555
C51_3 C50_3 1_555 1_555
H42_3 C51_3 1_555 1_555
N17_3 C48_3 1_555 1_555
N18_3 Cu1_4 1_555 1_555
O14_3 Cu2_5 1_555 1_555
N20_3 Cu2_5 1_555 1_555
O15_3 Cu8 1_555 1_555
O16_3 Cu8 1_555 1_555
O19_3 Cu2_5 1_555 1_555
Cu4_7 O10_2 1_555 1_555
Cu6_9 O12_2 1_555 1_555
Cu6_10 N14_2 1_555 1_555
Cu8_2 O8_2 1_555 1_555
C2_3 N5_3 1_555 1_555
C3_3 N6_3 1_555 1_555
C4_3 N6_3 1_555 1_555
C15_2 N1_2 1_555 1_555
C19_2 N4_3 1_555 1_555
C23_2 N9_2 1_555 1_555
C23_2 N10_2 1_555 1_555
C24_2 N9_2 1_555 1_555
O1_2 Cu8 1_555 1_555
O2_2 Cu8 1_555 1_555
O3_2 Cu1_4 1_555 1_555
O4_2 Cu1_4 1_555 1_555
O5_2 Cu2_5 1_555 1_555
C30_2 N11_2 1_555 1_555
C32_2 N11_2 1_555 1_555
C32_2 N12_2 1_555 1_555
O11_2 Cu4_7 1_555 1_555
C37_2 N13_2 1_555 1_555
C37_2 N14_2 1_555 1_555
C38_2 C39_2 1_555 1_555
C38_2 N13_2 1_555 1_555
C47_3 C48_3 1_555 1_555
C49_3 N17_3 1_555 1_555
C49_3 N18_3 1_555 1_555
C50_3 N17_3 1_555 1_555
C51_3 N18_3 1_555 1_555
O9_2 Cu8_3 1_555 1_555
C40_4 H33_4 1_555 1_555
C41_4 H34_4 1_555 1_555
C42_4 C41_4 1_555 1_555
H35_4 C42_4 1_555 1_555
C43_4 C44_4 1_555 1_555
C44_4 H36_4 1_555 1_555
N19_2 C40_4 1_555 1_555
N16_4 C40_4 1_555 1_555
C41_4 N19_2 1_555 1_555
C42_4 N16_4 1_555 1_555
C43_4 N16_4 1_555 1_555
H5_4 C6_4 1_555 1_555
C7_4 C6_4 1_555 1_555
H6_4 C7_4 1_555 1_555
C8_4 C7_4 1_555 1_555
H7_4 C8_4 1_555 1_555
C11_4 H9_4 1_555 1_555
C12_4 C11_4 1_555 1_555
H10_4 C12_4 1_555 1_555
N7_4 C9_4 1_555 1_555
N8_4 C10_4 1_555 1_555
Cu4_6 N8_4 1_555 1_555
O17_4 Cu4_6 1_555 1_555
O18_4 Cu4_6 1_555 1_555
C8_4 C9_4 1_555 1_555
C10_4 N7_4 1_555 1_555
C11_4 N7_4 1_555 1_555
C12_4 N8_4 1_555 1_555
H37_4 C45_4 1_555 1_555
C46_4 C45_4 1_555 1_555
H38_4 C46_4 1_555 1_555
C47_4 C46_4 1_555 1_555
H39_4 C47_4 1_555 1_555
C50_4 H41_4 1_555 1_555
C51_4 C50_4 1_555 1_555
H42_4 C51_4 1_555 1_555
N17_4 C48_4 1_555 1_555
N18_4 Cu4_7 1_555 1_555
O14_4 Cu6_9 1_555 1_555
N20_4 Cu6_9 1_555 1_555
O16_4 Cu8_2 1_555 1_555
C47_4 C48_4 1_555 1_555
C49_4 N17_4 1_555 1_555
C49_4 N18_4 1_555 1_555
C50_4 N17_4 1_555 1_555
C51_4 N18_4 1_555 1_555
C1_4 H1_4 1_555 1_555
C2_4 H2_4 1_555 1_555
C3_4 C2_4 1_555 1_555
H3_4 C3_4 1_555 1_555
C4_4 C5_4 1_555 1_555
C5_4 H4_4 1_555 1_555
N5_4 C1_4 1_555 1_555
N6_4 C1_4 1_555 1_555
O7_4 Cu6_10 1_555 1_555
Cu8_3 N5_4 1_555 1_555
O15_4 Cu8_3 1_555 1_555
O19_4 Cu6_10 1_555 1_555
C2_4 N5_4 1_555 1_555
C3_4 N6_4 1_555 1_555
C4_4 N6_4 1_555 1_555
C23_3 H19_3 1_555 1_555
C25_4 H20_4 1_555 1_555
H22_4 C27_4 1_555 1_555
N4_4 C18_4 1_555 1_555
C28_3 C29_3 1_555 1_555
C29_3 H23_3 1_555 1_555
H24_3 C29_3 1_555 1_555
C30_3 H25_3 1_555 1_555
C31_3 C30_3 1_555 1_555
C32_3 N3_4 1_555 1_555
C33_3 N4_4 1_555 1_555
H27_3 C33_3 1_555 1_555
H28_3 C33_3 1_555 1_555
C34_3 C33_3 1_555 1_555
N11_3 C29_3 1_555 1_555
N12_3 C18_4 1_555 1_555
O15_4 C31_3 1_555 1_555
O17_2 C28_3 1_555 1_555
O18_2 C28_3 1_555 1_555
O19_2 C34_3 1_555 1_555
O13_3 C34_3 1_555 1_555
C36_3 C35_3 1_555 1_555
H30_3 C36_3 1_555 1_555
C38_3 C25_4 1_555 1_555
C39_3 C27_4 1_555 1_555
H32_3 C39_3 1_555 1_555
N13_3 C36_3 1_555 1_555
N20_2 C35_3 1_555 1_555
C30_3 N11_3 1_555 1_555
C32_3 N11_3 1_555 1_555
C32_3 N12_3 1_555 1_555
C38_3 C39_3 1_555 1_555
C38_3 N13_3 1_555 1_555
O7 H45_3 1_555 1_555
O14 H44_3 1_555 1_555
C13_3 C14_3 1_555 1_555
C14_3 H11_3 1_555 1_555
H12_3 C14_3 1_555 1_555
C15_3 H13_3 1_555 1_555
H14_3 C15_3 1_555 1_555
C16_3 C15_3 1_555 1_555
C17_3 N1_3 1_555 1_555
C18_5 N2_3 1_555 1_555
C19_3 H15_3 1_555 1_555
H16_3 C19_3 1_555 1_555
C20_3 C19_3 1_555 1_555
C21_3 H17_3 1_555 1_555
C22_3 C21_3 1_555 1_555
H18_3 C22_3 1_555 1_555
C24_3 C25_5 1_555 1_555
C25_5 H20_5 1_555 1_555
C26_3 C24_3 1_555 1_555
H21_3 C26_3 1_555 1_555
C27_5 C26_3 1_555 1_555
H22_5 C27_5 1_555 1_555
N1_3 C14_3 1_555 1_555
N2_3 C17_3 1_555 1_555
N3_5 C17_3 1_555 1_555
N4_5 C18_5 1_555 1_555
N9_3 C22_3 1_555 1_555
N20 C21_3 1_555 1_555
O15_3 C16_3 1_555 1_555
O16_3 C16_3 1_555 1_555
O17 C13_3 1_555 1_555
O18 C13_3 1_555 1_555
O19 C20_3 1_555 1_555
O6_3 C20_3 1_555 1_555
C37_3 H31_3 1_555 1_555
C15_3 N1_3 1_555 1_555
C19_3 N4_5 1_555 1_555
C24_3 N9_3 1_555 1_555
O14_2 H44_4 1_555 1_555
O7_2 H45_4 1_555 1_555
C13_4 C14_4 1_555 1_555
C14_4 H11_4 1_555 1_555
H12_4 C14_4 1_555 1_555
C15_4 H13_4 1_555 1_555
H14_4 C15_4 1_555 1_555
C16_4 C15_4 1_555 1_555
C17_4 N1_4 1_555 1_555
C18_6 N2_4 1_555 1_555
C19_4 H15_4 1_555 1_555
H16_4 C19_4 1_555 1_555
C20_4 C19_4 1_555 1_555
C21_4 H17_4 1_555 1_555
C22_4 C21_4 1_555 1_555
H18_4 C22_4 1_555 1_555
C23_4 H19_4 1_555 1_555
C24_4 C25_6 1_555 1_555
C25_6 H20_6 1_555 1_555
C26_4 C24_4 1_555 1_555
H21_4 C26_4 1_555 1_555
C27_6 C26_4 1_555 1_555
H22_6 C27_6 1_555 1_555
N1_4 C14_4 1_555 1_555
N2_4 C17_4 1_555 1_555
N3_6 C17_4 1_555 1_555
N4_6 C18_6 1_555 1_555
N9_4 C22_4 1_555 1_555
N20_3 C21_4 1_555 1_555
O15 C16_4 1_555 1_555
O16 C16_4 1_555 1_555
O17_3 C13_4 1_555 1_555
O18_3 C13_4 1_555 1_555
O19_3 C20_4 1_555 1_555
O6_4 C20_4 1_555 1_555
C28_4 C29_4 1_555 1_555
C29_4 H23_4 1_555 1_555
H24_4 C29_4 1_555 1_555
C30_4 H25_4 1_555 1_555
C31_4 C30_4 1_555 1_555
C32_4 N3_6 1_555 1_555
C33_4 N4_6 1_555 1_555
H27_4 C33_4 1_555 1_555
H28_4 C33_4 1_555 1_555
C34_4 C33_4 1_555 1_555
N11_4 C29_4 1_555 1_555
N12_4 C18_6 1_555 1_555
O15_2 C31_4 1_555 1_555
O17_4 C28_4 1_555 1_555
O18_4 C28_4 1_555 1_555
O19_4 C34_4 1_555 1_555
O13_4 C34_4 1_555 1_555
C36_4 C35_4 1_555 1_555
H30_4 C36_4 1_555 1_555
C37_4 H31_4 1_555 1_555
C38_4 C25_6 1_555 1_555
C39_4 C27_6 1_555 1_555
H32_4 C39_4 1_555 1_555
N13_4 C36_4 1_555 1_555
N20_4 C35_4 1_555 1_555
C15_4 N1_4 1_555 1_555
C19_4 N4_6 1_555 1_555
C23_4 N9_4 1_555 1_555
C23_4 N20_3 1_555 1_555
C24_4 N9_4 1_555 1_555
C30_4 N11_4 1_555 1_555
C32_4 N11_4 1_555 1_555
C32_4 N12_4 1_555 1_555
C37_4 N13_4 1_555 1_555
C37_4 N20_4 1_555 1_555
C38_4 C39_4 1_555 1_555
C38_4 N13_4 1_555 1_555

#END
