
###############################################################################
#
# This file contains modified crystal structure data generated from the
# MOF subset of the Cambridge Structural Database (CSD) v543 
# hosted by the Cambridge Crystallographic Data Centre (CCDC).
#
# This work is licensed under the Creative Commons
# Attribution-NonCommercial-ShareAlike 4.0 International License.
# To view a copy of this license, visit
# http://creativecommons.org/licenses/by-nc-sa/4.0/
# or send a letter to
# Creative Commons, PO Box 1866, Mountain View, CA 94042, USA.
#
# CIF created using the CSD Python API on 29 September 2022
# The structure has been converted into the P1 space group
# The structure has a 3D framework
# The original CSD entry CUDPUO is in the monoclinic crystal system
# The framework has been calculated to contain at least 10.0% void space
# The void calculation uses a probe of radius 1.32A, grid spacing 0.4
# The framework is charged, counterions have been retained in the structure
#
###############################################################################

data_CUDPUO
_chemical_formula_moiety         '(C136 H80 N88 O48 Zn24 8-)n'
_symmetry_cell_setting           triclinic
_symmetry_space_group_name_H-M   'P 1'
_symmetry_Int_Tables_number      1
_space_group_name_Hall           'P 1'
loop_
_symmetry_equiv_pos_site_id
_symmetry_equiv_pos_as_xyz
1 x,y,z
_cell_length_a                   18.5604(10)
_cell_length_b                   13.0176(5)
_cell_length_c                   32.7297(14)
_cell_angle_alpha                90
_cell_angle_beta                 95.844(4)
_cell_angle_gamma                90
_cell_volume                     7866.79
loop_
_atom_site_label
_atom_site_type_symbol
_atom_site_fract_x
_atom_site_fract_y
_atom_site_fract_z
Zn1 Zn 0.25216(2) 0.09542(3) 0.105570(12)
Zn2 Zn 0.53900(2) 0.08089(3) 0.042240(12)
N2 N 0.2473(2) 0.0986(2) 0.19591(8)
N3 N 0.35917(15) 0.0627(2) 0.10872(8)
O1 O 0.2149(2) 0.3385(2) 0.27569(8)
C1 C 0.40235(19) 0.0871(3) 0.07970(9)
H1 H 0.3844 0.1174 0.0550
O2 O 0.2076(2) 0.4389(2) 0.22136(9)
N8 N 0.2370(2) 0.1551(2) 0.16047(8)
C2 C 0.4750(2) 0.0227(3) 0.12760(9)
N9 N 0.47252(16) 0.0654(2) 0.08839(8)
C3 C 0.2248(2) 0.2609(3) 0.21320(10)
C4 C 0.40597(18) 0.0208(2) 0.13920(9)
C6 C 0.2239(2) 0.2522(3) 0.17043(11)
H3 H 0.2155 0.3060 0.1518
C7 C 0.2400(2) 0.1609(3) 0.22738(10)
H4 H 0.2443 0.1411 0.2548
C8 C 0.2150(2) 0.3532(3) 0.23727(10)
H9 H 0.6159 0.0123 0.1282
Zn7 Zn 0.21403(3) 0.45834(3) 0.309661(12)
O8 O 0.5869(2) 0.2191(3) 0.04526(10)
O9 O 0.2279(2) 0.2182(3) 0.07245(10)
O10 O 0.6468(2) 0.1185(2) 0.09039(11)
N12 N 0.46480(16) 0.12098(19) 0.99492(8)
Zn3 Zn 0.28597(3) 0.95834(3) 0.190339(12)
N1 N 0.20860(18) 0.9556(2) 0.10609(8)
N4 N 0.38796(17) 0.9818(2) 0.17543(8)
N5 N 0.57874(16) 0.9450(2) 0.02813(8)
N6 N 0.2335(2) 0.8974(2) 0.13923(9)
N7 N 0.53520(16) 0.87902(19) 0.00508(8)
O3 O 0.0869(2) 0.7191(3) 0.04526(10)
O4 O 0.7279(2) 0.7182(3) 0.07245(10)
O5 O 0.1468(2) 0.6185(2) 0.09039(11)
N10 N 0.5141(2) 0.9469(3) 0.19199(10)
C5 C 0.5654(3) 0.7855(3) 0.00865(11)
C9 C 0.1705(2) 0.8956(3) 0.07949(12)
H5 H 0.1470 0.9171 0.0545
C10 C 0.1708(2) 0.7957(3) 0.09427(11)
C11 C 0.4456(2) 0.9470(3) 0.19953(11)
H6 H 0.4361 0.9196 0.2247
C12 C 0.6284(3) 0.7897(3) 0.03421(11)
C13 C 0.5322(2) 0.9864(3) 0.15610(11)
C14 C 0.2108(2) 0.8017(3) 0.13225(11)
H7 H 0.2204 0.7469 0.1502
N11 N 0.60212(19) 0.9879(3) 0.15056(11)
H8 H 0.6336 0.9645 0.1693
C15 C 0.6739(3) 0.6986(4) 0.04833(15)
C16 C 0.1332(3) 0.7057(3) 0.07612(13)
O6 O 0.6569(4) 0.6128(3) 0.0366(2)
C17 C 0.6346(2) 0.8921(3) 0.04559(11)
H10 H 0.6725 0.9197 0.0630
Zn4 Zn 0.75216(2) 0.59542(3) 0.105570(12)
Zn5 Zn 0.03900(2) 0.58089(3) 0.042240(12)
O7 O 0.2851(2) 0.8385(2) 0.22431(8)
H2 H 0.5464 0.7265 0.9957
Zn6 Zn 0.46100(2) 0.91911(3) 0.957760(12)
Zn1_2 Zn 0.74784(2) 0.09542(3) 0.394430(12)
Zn2_2 Zn 0.46100(2) 0.08089(3) 0.457760(12)
N2_2 N 0.7527(2) 0.0986(2) 0.30409(8)
N3_2 N 0.64083(15) 0.0627(2) 0.39128(8)
O1_2 O 0.7851(2) 0.3385(2) 0.22431(8)
C1_2 C 0.59765(19) 0.0871(3) 0.42030(9)
H1_2 H 0.6156 0.1174 0.4450
O2_2 O 0.7924(2) 0.4389(2) 0.27864(9)
N8_2 N 0.7630(2) 0.1551(2) 0.33953(8)
C2_2 C 0.5250(2) 0.0227(3) 0.37240(9)
N9_2 N 0.52748(16) 0.0654(2) 0.41161(8)
C3_2 C 0.7752(2) 0.2609(3) 0.28680(10)
C4_2 C 0.59403(18) 0.0208(2) 0.36080(9)
C6_2 C 0.7761(2) 0.2522(3) 0.32957(11)
H3_2 H 0.7845 0.3060 0.3482
C7_2 C 0.7600(2) 0.1609(3) 0.27262(10)
H4_2 H 0.7557 0.1411 0.2452
C8_2 C 0.7850(2) 0.3532(3) 0.26273(10)
H9_2 H 0.3841 0.0123 0.3718
Zn7_2 Zn 0.78597(3) 0.45834(3) 0.190339(12)
N12_2 N 0.53520(16) 0.12098(19) 0.50508(8)
O8_2 O 0.4131(2) 0.2191(3) 0.45474(10)
O9_2 O 0.7721(2) 0.2182(3) 0.42755(10)
O10_2 O 0.3532(2) 0.1185(2) 0.40961(11)
Zn3_2 Zn 0.71403(3) 0.95834(3) 0.309661(12)
N1_2 N 0.79140(18) 0.9556(2) 0.39391(8)
N4_2 N 0.61204(17) 0.9818(2) 0.32457(8)
N5_2 N 0.42126(16) 0.9450(2) 0.47187(8)
N6_2 N 0.7665(2) 0.8974(2) 0.36077(9)
N7_2 N 0.46480(16) 0.87902(19) 0.49492(8)
O3_2 O 0.9131(2) 0.7191(3) 0.45474(10)
O4_2 O 0.2721(2) 0.7182(3) 0.42755(10)
O5_2 O 0.8532(2) 0.6185(2) 0.40961(11)
N10_2 N 0.4859(2) 0.9469(3) 0.30801(10)
C5_2 C 0.4346(3) 0.7855(3) 0.49135(11)
H2_2 H 0.4536 0.7265 0.5043
C9_2 C 0.8295(2) 0.8956(3) 0.42051(12)
H5_2 H 0.8530 0.9171 0.4455
C10_2 C 0.8292(2) 0.7957(3) 0.40573(11)
C11_2 C 0.5544(2) 0.9470(3) 0.30047(11)
H6_2 H 0.5639 0.9196 0.2753
C12_2 C 0.3716(3) 0.7897(3) 0.46579(11)
C13_2 C 0.4678(2) 0.9864(3) 0.34390(11)
C14_2 C 0.7892(2) 0.8017(3) 0.36775(11)
H7_2 H 0.7796 0.7469 0.3498
N11_2 N 0.39788(19) 0.9879(3) 0.34944(11)
H8_2 H 0.3664 0.9645 0.3307
C15_2 C 0.3261(3) 0.6986(4) 0.45167(15)
C16_2 C 0.8668(3) 0.7057(3) 0.42388(13)
O6_2 O 0.3431(4) 0.6128(3) 0.4634(2)
C17_2 C 0.3654(2) 0.8921(3) 0.45441(11)
H10_2 H 0.3275 0.9197 0.4370
Zn4_2 Zn 0.24784(2) 0.59542(3) 0.394430(12)
Zn5_2 Zn 0.96100(2) 0.58089(3) 0.457760(12)
Zn6_2 Zn 0.53900(2) 0.91911(3) 0.542240(12)
O7_2 O 0.7149(2) 0.8385(2) 0.27569(8)
N5_3 N 0.07874(16) 0.4450(2) 0.02813(8)
N7_3 N 0.03520(16) 0.37902(19) 0.00508(8)
N10_3 N 0.0141(2) 0.4469(3) 0.19199(10)
C5_3 C 0.0654(3) 0.2855(3) 0.00865(11)
C12_3 C 0.1284(3) 0.2897(3) 0.03421(11)
C13_3 C 0.0322(2) 0.4864(3) 0.15610(11)
N11_3 N 0.10212(19) 0.4879(3) 0.15056(11)
H8_3 H 0.1336 0.4645 0.1693
H9_3 H 0.1159 0.5123 0.1282
C15_3 C 0.1739(3) 0.1986(4) 0.04833(15)
O6_3 O 0.1569(4) 0.1128(3) 0.0366(2)
C17_3 C 0.1346(2) 0.3921(3) 0.04559(11)
H10_3 H 0.1725 0.4197 0.0630
N1_3 N 0.70860(18) 0.4556(2) 0.10609(8)
N2_3 N 0.7473(2) 0.5986(2) 0.19591(8)
N3_3 N 0.85917(15) 0.5627(2) 0.10872(8)
C1_3 C 0.90235(19) 0.5871(3) 0.07970(9)
H1_3 H 0.8844 0.6174 0.0550
N4_3 N 0.88796(17) 0.4818(2) 0.17543(8)
O2_3 O 0.7076(2) 0.9389(2) 0.22136(9)
N6_3 N 0.7335(2) 0.3974(2) 0.13923(9)
N8_3 N 0.7370(2) 0.6551(2) 0.16047(8)
C2_3 C 0.9750(2) 0.5227(3) 0.12760(9)
N9_3 N 0.97252(16) 0.5654(2) 0.08839(8)
C3_3 C 0.7248(2) 0.7609(3) 0.21320(10)
C4_3 C 0.90597(18) 0.5208(2) 0.13920(9)
C6_3 C 0.7239(2) 0.7522(3) 0.17043(11)
H3_3 H 0.7155 0.8060 0.1518
C7_3 C 0.7400(2) 0.6609(3) 0.22738(10)
H4_3 H 0.7443 0.6411 0.2548
C8_3 C 0.7150(2) 0.8532(3) 0.23727(10)
C9_3 C 0.6705(2) 0.3956(3) 0.07949(12)
H5_3 H 0.6470 0.4171 0.0545
C10_3 C 0.6708(2) 0.2957(3) 0.09427(11)
C11_3 C 0.9456(2) 0.4470(3) 0.19953(11)
H6_3 H 0.9361 0.4196 0.2247
C14_3 C 0.7108(2) 0.3017(3) 0.13225(11)
H7_3 H 0.7204 0.2469 0.1502
C16_3 C 0.6332(3) 0.2057(3) 0.07612(13)
Zn6_3 Zn 0.96100(2) 0.41911(3) 0.957760(12)
N12_3 N 0.96480(16) 0.62098(19) 0.99492(8)
N1_4 N 0.29140(18) 0.4556(2) 0.39391(8)
N2_4 N 0.2527(2) 0.5986(2) 0.30409(8)
N3_4 N 0.14083(15) 0.5627(2) 0.39128(8)
C1_4 C 0.09765(19) 0.5871(3) 0.42030(9)
H1_4 H 0.1156 0.6174 0.4450
N4_4 N 0.11204(17) 0.4818(2) 0.32457(8)
O2_4 O 0.2924(2) 0.9389(2) 0.27864(9)
N6_4 N 0.2665(2) 0.3974(2) 0.36077(9)
N8_4 N 0.2630(2) 0.6551(2) 0.33953(8)
C2_4 C 0.0250(2) 0.5227(3) 0.37240(9)
N9_4 N 0.02748(16) 0.5654(2) 0.41161(8)
C3_4 C 0.2752(2) 0.7609(3) 0.28680(10)
C4_4 C 0.09403(18) 0.5208(2) 0.36080(9)
C6_4 C 0.2761(2) 0.7522(3) 0.32957(11)
H3_4 H 0.2845 0.8060 0.3482
C7_4 C 0.2600(2) 0.6609(3) 0.27262(10)
H4_4 H 0.2557 0.6411 0.2452
C8_4 C 0.2850(2) 0.8532(3) 0.26273(10)
C9_4 C 0.3295(2) 0.3956(3) 0.42051(12)
H5_4 H 0.3530 0.4171 0.4455
C10_4 C 0.3292(2) 0.2957(3) 0.40573(11)
C11_4 C 0.0544(2) 0.4470(3) 0.30047(11)
H6_4 H 0.0639 0.4196 0.2753
C14_4 C 0.2892(2) 0.3017(3) 0.36775(11)
H7_4 H 0.2796 0.2469 0.3498
C16_4 C 0.3668(3) 0.2057(3) 0.42388(13)
Zn6_4 Zn 0.03900(2) 0.41911(3) 0.542240(12)
N12_4 N 0.03520(16) 0.62098(19) 0.50508(8)
N5_4 N 0.92126(16) 0.4450(2) 0.47187(8)
N7_4 N 0.96480(16) 0.37902(19) 0.49492(8)
N10_4 N 0.9859(2) 0.4469(3) 0.30801(10)
C5_4 C 0.9346(3) 0.2855(3) 0.49135(11)
H2_3 H 0.9536 0.2265 0.5043
C12_4 C 0.8716(3) 0.2897(3) 0.46579(11)
C13_4 C 0.9678(2) 0.4864(3) 0.34390(11)
N11_4 N 0.89788(19) 0.4879(3) 0.34944(11)
H8_4 H 0.8664 0.4645 0.3307
H9_4 H 0.8841 0.5123 0.3718
C15_4 C 0.8261(3) 0.1986(4) 0.45167(15)
O6_4 O 0.8431(4) 0.1128(3) 0.4634(2)
C17_4 C 0.8654(2) 0.3921(3) 0.45441(11)
H10_4 H 0.8275 0.4197 0.4370
H2_4 H 0.4536 0.2735 0.0043
Zn3_3 Zn 0.71403(3) 0.04166(3) 0.809661(12)
N1_5 N 0.79140(18) 0.0444(2) 0.89391(8)
N4_5 N 0.61204(17) 0.0182(2) 0.82457(8)
N5_5 N 0.42126(16) 0.0550(2) 0.97187(8)
N6_5 N 0.7665(2) 0.1026(2) 0.86077(9)
O3_3 O 0.9131(2) 0.2809(3) 0.95474(10)
O4_3 O 0.2721(2) 0.2818(3) 0.92755(10)
O5_3 O 0.8532(2) 0.3815(2) 0.90961(11)
N10_5 N 0.4859(2) 0.0531(3) 0.80801(10)
C5_5 C 0.4346(3) 0.2145(3) 0.99135(11)
C9_5 C 0.8295(2) 0.1044(3) 0.92051(12)
H5_5 H 0.8530 0.0829 0.9455
C10_5 C 0.8292(2) 0.2043(3) 0.90573(11)
C11_5 C 0.5544(2) 0.0530(3) 0.80047(11)
H6_5 H 0.5639 0.0804 0.7753
C12_5 C 0.3716(3) 0.2103(3) 0.96579(11)
C13_5 C 0.4678(2) 0.0136(3) 0.84390(11)
C14_5 C 0.7892(2) 0.1983(3) 0.86775(11)
H7_5 H 0.7796 0.2531 0.8498
N11_5 N 0.39788(19) 0.0121(3) 0.84944(11)
H8_5 H 0.3664 0.0355 0.8307
C15_5 C 0.3261(3) 0.3014(4) 0.95167(15)
C16_5 C 0.8668(3) 0.2943(3) 0.92388(13)
O6_5 O 0.3431(4) 0.3872(3) 0.9634(2)
C17_5 C 0.3654(2) 0.1079(3) 0.95441(11)
H10_5 H 0.3275 0.0803 0.9370
Zn4_3 Zn 0.24784(2) 0.40458(3) 0.894430(12)
O7_3 O 0.7149(2) 0.1615(2) 0.77569(8)
Zn1_3 Zn 0.74784(2) 0.90458(3) 0.894430(12)
N2_5 N 0.7527(2) 0.9014(2) 0.80409(8)
N3_5 N 0.64083(15) 0.9373(2) 0.89128(8)
O1_3 O 0.7851(2) 0.6615(2) 0.72431(8)
C1_5 C 0.59765(19) 0.9129(3) 0.92030(9)
H1_5 H 0.6156 0.8826 0.9450
O2_5 O 0.7924(2) 0.5611(2) 0.77864(9)
N8_5 N 0.7630(2) 0.8449(2) 0.83953(8)
C2_5 C 0.5250(2) 0.9773(3) 0.87240(9)
N9_5 N 0.52748(16) 0.9346(2) 0.91161(8)
C3_5 C 0.7752(2) 0.7391(3) 0.78680(10)
C4_5 C 0.59403(18) 0.9792(2) 0.86080(9)
C6_5 C 0.7761(2) 0.7478(3) 0.82957(11)
H3_5 H 0.7845 0.6940 0.8482
C7_5 C 0.7600(2) 0.8391(3) 0.77262(10)
H4_5 H 0.7557 0.8589 0.7452
C8_5 C 0.7850(2) 0.6468(3) 0.76273(10)
H9_5 H 0.3841 0.9877 0.8718
Zn7_3 Zn 0.78597(3) 0.54166(3) 0.690339(12)
O8_3 O 0.4131(2) 0.7809(3) 0.95474(10)
O9_3 O 0.7721(2) 0.7818(3) 0.92755(10)
O10_3 O 0.3532(2) 0.8815(2) 0.90961(11)
Zn3_4 Zn 0.28597(3) 0.04166(3) 0.690339(12)
N1_6 N 0.20860(18) 0.0444(2) 0.60609(8)
N4_6 N 0.38796(17) 0.0182(2) 0.67543(8)
N5_6 N 0.57874(16) 0.0550(2) 0.52813(8)
N6_6 N 0.2335(2) 0.1026(2) 0.63923(9)
O3_4 O 0.0869(2) 0.2809(3) 0.54526(10)
O4_4 O 0.7279(2) 0.2818(3) 0.57245(10)
O5_4 O 0.1468(2) 0.3815(2) 0.59039(11)
N10_6 N 0.5141(2) 0.0531(3) 0.69199(10)
C5_6 C 0.5654(3) 0.2145(3) 0.50865(11)
H2_5 H 0.5464 0.2735 0.4957
C9_6 C 0.1705(2) 0.1044(3) 0.57949(12)
H5_6 H 0.1470 0.0829 0.5545
C10_6 C 0.1708(2) 0.2043(3) 0.59427(11)
C11_6 C 0.4456(2) 0.0530(3) 0.69953(11)
H6_6 H 0.4361 0.0804 0.7247
C12_6 C 0.6284(3) 0.2103(3) 0.53421(11)
C13_6 C 0.5322(2) 0.0136(3) 0.65610(11)
C14_6 C 0.2108(2) 0.1983(3) 0.63225(11)
H7_6 H 0.2204 0.2531 0.6502
N11_6 N 0.60212(19) 0.0121(3) 0.65056(11)
H8_6 H 0.6336 0.0355 0.6693
C15_6 C 0.6739(3) 0.3014(4) 0.54833(15)
C16_6 C 0.1332(3) 0.2943(3) 0.57612(13)
O6_6 O 0.6569(4) 0.3872(3) 0.5366(2)
C17_6 C 0.6346(2) 0.1079(3) 0.54559(11)
H10_6 H 0.6725 0.0803 0.5630
Zn4_4 Zn 0.75216(2) 0.40458(3) 0.605570(12)
O7_4 O 0.2851(2) 0.1615(2) 0.72431(8)
Zn1_4 Zn 0.25216(2) 0.90458(3) 0.605570(12)
N2_6 N 0.2473(2) 0.9014(2) 0.69591(8)
N3_6 N 0.35917(15) 0.9373(2) 0.60872(8)
O1_4 O 0.2149(2) 0.6615(2) 0.77569(8)
C1_6 C 0.40235(19) 0.9129(3) 0.57970(9)
H1_6 H 0.3844 0.8826 0.5550
O2_6 O 0.2076(2) 0.5611(2) 0.72136(9)
N8_6 N 0.2370(2) 0.8449(2) 0.66047(8)
C2_6 C 0.4750(2) 0.9773(3) 0.62760(9)
N9_6 N 0.47252(16) 0.9346(2) 0.58839(8)
C3_6 C 0.2248(2) 0.7391(3) 0.71320(10)
C4_6 C 0.40597(18) 0.9792(2) 0.63920(9)
C6_6 C 0.2239(2) 0.7478(3) 0.67043(11)
H3_6 H 0.2155 0.6940 0.6518
C7_6 C 0.2400(2) 0.8391(3) 0.72738(10)
H4_6 H 0.2443 0.8589 0.7548
C8_6 C 0.2150(2) 0.6468(3) 0.73727(10)
H9_6 H 0.6159 0.9877 0.6282
Zn7_4 Zn 0.21403(3) 0.54166(3) 0.809661(12)
O8_4 O 0.5869(2) 0.7809(3) 0.54526(10)
O9_4 O 0.2279(2) 0.7818(3) 0.57245(10)
O10_4 O 0.6468(2) 0.8815(2) 0.59039(11)
N1_7 N 0.29140(18) 0.5444(2) 0.89391(8)
N2_7 N 0.2527(2) 0.4014(2) 0.80409(8)
N3_7 N 0.14083(15) 0.4373(2) 0.89128(8)
C1_7 C 0.09765(19) 0.4129(3) 0.92030(9)
H1_7 H 0.1156 0.3826 0.9450
N4_7 N 0.11204(17) 0.5182(2) 0.82457(8)
O2_7 O 0.2924(2) 0.0611(2) 0.77864(9)
N6_7 N 0.2665(2) 0.6026(2) 0.86077(9)
N8_7 N 0.2630(2) 0.3449(2) 0.83953(8)
C2_7 C 0.0250(2) 0.4773(3) 0.87240(9)
N9_7 N 0.02748(16) 0.4346(2) 0.91161(8)
C3_7 C 0.2752(2) 0.2391(3) 0.78680(10)
C4_7 C 0.09403(18) 0.4792(2) 0.86080(9)
C6_7 C 0.2761(2) 0.2478(3) 0.82957(11)
H3_7 H 0.2845 0.1940 0.8482
C7_7 C 0.2600(2) 0.3391(3) 0.77262(10)
H4_7 H 0.2557 0.3589 0.7452
C8_7 C 0.2850(2) 0.1468(3) 0.76273(10)
C9_7 C 0.3295(2) 0.6044(3) 0.92051(12)
H5_7 H 0.3530 0.5829 0.9455
C10_7 C 0.3292(2) 0.7043(3) 0.90573(11)
C11_7 C 0.0544(2) 0.5530(3) 0.80047(11)
H6_7 H 0.0639 0.5804 0.7753
C14_7 C 0.2892(2) 0.6983(3) 0.86775(11)
H7_7 H 0.2796 0.7531 0.8498
C16_7 C 0.3668(3) 0.7943(3) 0.92388(13)
N5_7 N 0.92126(16) 0.5550(2) 0.97187(8)
N10_7 N 0.9859(2) 0.5531(3) 0.80801(10)
C5_7 C 0.9346(3) 0.7145(3) 0.99135(11)
C12_7 C 0.8716(3) 0.7103(3) 0.96579(11)
C13_7 C 0.9678(2) 0.5136(3) 0.84390(11)
N11_7 N 0.89788(19) 0.5121(3) 0.84944(11)
H8_7 H 0.8664 0.5355 0.8307
H9_7 H 0.8841 0.4877 0.8718
C15_7 C 0.8261(3) 0.8014(4) 0.95167(15)
O6_7 O 0.8431(4) 0.8872(3) 0.9634(2)
C17_7 C 0.8654(2) 0.6079(3) 0.95441(11)
H10_7 H 0.8275 0.5803 0.9370
N5_8 N 0.07874(16) 0.5550(2) 0.52813(8)
N10_8 N 0.0141(2) 0.5531(3) 0.69199(10)
C5_8 C 0.0654(3) 0.7145(3) 0.50865(11)
H2_6 H 0.0464 0.7735 0.4957
C12_8 C 0.1284(3) 0.7103(3) 0.53421(11)
C13_8 C 0.0322(2) 0.5136(3) 0.65610(11)
N11_8 N 0.10212(19) 0.5121(3) 0.65056(11)
H8_8 H 0.1336 0.5355 0.6693
H9_8 H 0.1159 0.4877 0.6282
C15_8 C 0.1739(3) 0.8014(4) 0.54833(15)
O6_8 O 0.1569(4) 0.8872(3) 0.5366(2)
C17_8 C 0.1346(2) 0.6079(3) 0.54559(11)
H10_8 H 0.1725 0.5803 0.5630
N1_8 N 0.70860(18) 0.5444(2) 0.60609(8)
N2_8 N 0.7473(2) 0.4014(2) 0.69591(8)
N3_8 N 0.85917(15) 0.4373(2) 0.60872(8)
C1_8 C 0.90235(19) 0.4129(3) 0.57970(9)
H1_8 H 0.8844 0.3826 0.5550
N4_8 N 0.88796(17) 0.5182(2) 0.67543(8)
O2_8 O 0.7076(2) 0.0611(2) 0.72136(9)
N6_8 N 0.7335(2) 0.6026(2) 0.63923(9)
N8_8 N 0.7370(2) 0.3449(2) 0.66047(8)
C2_8 C 0.9750(2) 0.4773(3) 0.62760(9)
N9_8 N 0.97252(16) 0.4346(2) 0.58839(8)
C3_8 C 0.7248(2) 0.2391(3) 0.71320(10)
C4_8 C 0.90597(18) 0.4792(2) 0.63920(9)
C6_8 C 0.7239(2) 0.2478(3) 0.67043(11)
H3_8 H 0.7155 0.1940 0.6518
C7_8 C 0.7400(2) 0.3391(3) 0.72738(10)
H4_8 H 0.7443 0.3589 0.7548
C8_8 C 0.7150(2) 0.1468(3) 0.73727(10)
C9_8 C 0.6705(2) 0.6044(3) 0.57949(12)
H5_8 H 0.6470 0.5829 0.5545
C10_8 C 0.6708(2) 0.7043(3) 0.59427(11)
C11_8 C 0.9456(2) 0.5530(3) 0.69953(11)
H6_8 H 0.9361 0.5804 0.7247
C14_8 C 0.7108(2) 0.6983(3) 0.63225(11)
H7_8 H 0.7204 0.7531 0.6502
C16_8 C 0.6332(3) 0.7943(3) 0.57612(13)
H2_7 H 0.0464 0.2265 0.9957
H2_8 H 0.9536 0.7735 0.0043
loop_
_geom_bond_atom_site_label_1
_geom_bond_atom_site_label_2
_geom_bond_site_symmetry_1
_geom_bond_site_symmetry_2
N2 N8 1_555 1_555
N3 Zn1 1_555 1_555
O1 C8 1_555 1_555
C1 N3 1_555 1_555
H1 C1 1_555 1_555
O2 C8 1_555 1_555
N8 Zn1 1_555 1_555
C2 N9 1_555 1_555
N9 Zn2 1_555 1_555
C3 C6 1_555 1_555
C4 N3 1_555 1_555
C6 N8 1_555 1_555
H3 C6 1_555 1_555
C7 N2 1_555 1_555
H4 C7 1_555 1_555
C8 C3 1_555 1_555
Zn7 O1 1_555 1_555
O8 Zn2 1_555 1_555
O9 Zn1 1_555 1_555
O10 Zn2 1_555 1_555
C1 N9 1_555 1_555
C2 C4 1_555 1_555
C3 C7 1_555 1_555
N1 N6 1_555 1_555
N4 Zn3 1_555 1_555
N5 N7 1_555 1_555
N6 Zn3 1_555 1_555
N7 C5 1_555 1_555
O3 C16 1_555 1_555
O4 C15 1_555 1_555
O5 C16 1_555 1_555
N10 C11 1_555 1_555
C9 N1 1_555 1_555
H5 C9 1_555 1_555
C10 C9 1_555 1_555
C11 N4 1_555 1_555
H6 C11 1_555 1_555
C12 C5 1_555 1_555
C14 N6 1_555 1_555
H7 C14 1_555 1_555
N11 C13 1_555 1_555
H8 N11 1_555 1_555
C15 C12 1_555 1_555
C16 C10 1_555 1_555
O6 C15 1_555 1_555
C17 N5 1_555 1_555
H10 C17 1_555 1_555
Zn4 O4 1_555 1_555
Zn5 O3 1_555 1_555
O7 Zn3 1_555 1_555
O5 Zn5 1_555 1_555
N10 C13 1_555 1_555
C10 C14 1_555 1_555
C12 C17 1_555 1_555
N2_2 N8_2 1_555 1_555
N3_2 Zn1_2 1_555 1_555
O1_2 C8_2 1_555 1_555
C1_2 N3_2 1_555 1_555
H1_2 C1_2 1_555 1_555
O2_2 C8_2 1_555 1_555
N8_2 Zn1_2 1_555 1_555
C2_2 N9_2 1_555 1_555
N9_2 Zn2_2 1_555 1_555
C3_2 C6_2 1_555 1_555
C4_2 N3_2 1_555 1_555
C6_2 N8_2 1_555 1_555
H3_2 C6_2 1_555 1_555
C7_2 N2_2 1_555 1_555
H4_2 C7_2 1_555 1_555
C8_2 C3_2 1_555 1_555
Zn7_2 O1_2 1_555 1_555
N12_2 Zn2_2 1_555 1_555
O8_2 Zn2_2 1_555 1_555
O9_2 Zn1_2 1_555 1_555
O10_2 Zn2_2 1_555 1_555
C1_2 N9_2 1_555 1_555
C2_2 C4_2 1_555 1_555
C3_2 C7_2 1_555 1_555
N1_2 N6_2 1_555 1_555
N4_2 Zn3_2 1_555 1_555
N5_2 N7_2 1_555 1_555
N6_2 Zn3_2 1_555 1_555
N7_2 C5_2 1_555 1_555
O3_2 C16_2 1_555 1_555
O4_2 C15_2 1_555 1_555
O5_2 C16_2 1_555 1_555
N10_2 C11_2 1_555 1_555
C5_2 H2_2 1_555 1_555
C9_2 N1_2 1_555 1_555
H5_2 C9_2 1_555 1_555
C10_2 C9_2 1_555 1_555
C11_2 N4_2 1_555 1_555
H6_2 C11_2 1_555 1_555
C12_2 C5_2 1_555 1_555
C14_2 N6_2 1_555 1_555
H7_2 C14_2 1_555 1_555
N11_2 C13_2 1_555 1_555
H8_2 N11_2 1_555 1_555
C15_2 C12_2 1_555 1_555
C16_2 C10_2 1_555 1_555
O6_2 C15_2 1_555 1_555
C17_2 N5_2 1_555 1_555
H10_2 C17_2 1_555 1_555
Zn4_2 O4_2 1_555 1_555
Zn5_2 O3_2 1_555 1_555
Zn6_2 N7_2 1_555 1_555
O7_2 Zn3_2 1_555 1_555
O5_2 Zn5_2 1_555 1_555
N10_2 C13_2 1_555 1_555
C10_2 C14_2 1_555 1_555
C12_2 C17_2 1_555 1_555
Zn5 N5_3 1_555 1_555
N5_3 N7_3 1_555 1_555
N7_3 C5_3 1_555 1_555
O9 C15_3 1_555 1_555
C12_3 C5_3 1_555 1_555
N11_3 C13_3 1_555 1_555
H8_3 N11_3 1_555 1_555
H9_3 N11_3 1_555 1_555
C15_3 C12_3 1_555 1_555
O6_3 C15_3 1_555 1_555
C17_3 N5_3 1_555 1_555
H10_3 C17_3 1_555 1_555
N10_3 C13_3 1_555 1_555
C12_3 C17_3 1_555 1_555
Zn4 N1_3 1_555 1_555
Zn7_2 N2_3 1_555 1_555
N1_3 N6_3 1_555 1_555
N2_3 N8_3 1_555 1_555
N3_3 Zn4 1_555 1_555
O7_2 C8_3 1_555 1_555
C1_3 N3_3 1_555 1_555
H1_3 C1_3 1_555 1_555
N4_3 Zn7_2 1_555 1_555
O2_3 C8_3 1_555 1_555
N6_3 Zn7_2 1_555 1_555
N8_3 Zn4 1_555 1_555
C2_3 N9_3 1_555 1_555
O8 C16_3 1_555 1_555
C3_3 C6_3 1_555 1_555
C4_3 N3_3 1_555 1_555
O10 C16_3 1_555 1_555
C6_3 N8_3 1_555 1_555
H3_3 C6_3 1_555 1_555
C7_3 N2_3 1_555 1_555
H4_3 C7_3 1_555 1_555
C8_3 C3_3 1_555 1_555
C9_3 N1_3 1_555 1_555
H5_3 C9_3 1_555 1_555
C10_3 C9_3 1_555 1_555
C11_3 N4_3 1_555 1_555
H6_3 C11_3 1_555 1_555
C14_3 N6_3 1_555 1_555
H7_3 C14_3 1_555 1_555
C16_3 C10_3 1_555 1_555
C1_3 N9_3 1_555 1_555
N4_3 C4_3 1_555 1_555
C2_3 C4_3 1_555 1_555
C3_3 C7_3 1_555 1_555
C10_3 C14_3 1_555 1_555
Zn4_2 N1_4 1_555 1_555
Zn7 N2_4 1_555 1_555
N1_4 N6_4 1_555 1_555
N2_4 N8_4 1_555 1_555
N3_4 Zn4_2 1_555 1_555
O7 C8_4 1_555 1_555
C1_4 N3_4 1_555 1_555
H1_4 C1_4 1_555 1_555
N4_4 Zn7 1_555 1_555
O2_4 C8_4 1_555 1_555
N6_4 Zn7 1_555 1_555
N8_4 Zn4_2 1_555 1_555
C2_4 N9_4 1_555 1_555
O8_2 C16_4 1_555 1_555
C3_4 C6_4 1_555 1_555
C4_4 N3_4 1_555 1_555
O10_2 C16_4 1_555 1_555
C6_4 N8_4 1_555 1_555
H3_4 C6_4 1_555 1_555
C7_4 N2_4 1_555 1_555
H4_4 C7_4 1_555 1_555
C8_4 C3_4 1_555 1_555
C9_4 N1_4 1_555 1_555
H5_4 C9_4 1_555 1_555
C10_4 C9_4 1_555 1_555
C11_4 N4_4 1_555 1_555
H6_4 C11_4 1_555 1_555
C14_4 N6_4 1_555 1_555
H7_4 C14_4 1_555 1_555
C16_4 C10_4 1_555 1_555
C1_4 N9_4 1_555 1_555
N4_4 C4_4 1_555 1_555
C2_4 C4_4 1_555 1_555
C3_4 C7_4 1_555 1_555
C10_4 C14_4 1_555 1_555
Zn5_2 N5_4 1_555 1_555
N5_4 N7_4 1_555 1_555
N7_4 C5_4 1_555 1_555
O9_2 C15_4 1_555 1_555
C5_4 H2_3 1_555 1_555
C12_4 C5_4 1_555 1_555
N11_4 C13_4 1_555 1_555
H8_4 N11_4 1_555 1_555
H9_4 N11_4 1_555 1_555
C15_4 C12_4 1_555 1_555
O6_4 C15_4 1_555 1_555
C17_4 N5_4 1_555 1_555
H10_4 C17_4 1_555 1_555
N10_4 C13_4 1_555 1_555
C12_4 C17_4 1_555 1_555
N1_5 N6_5 1_555 1_555
N4_5 Zn3_3 1_555 1_555
N5_5 N12 1_555 1_555
N6_5 Zn3_3 1_555 1_555
N12 C5_5 1_555 1_555
O3_3 C16_5 1_555 1_555
O4_3 C15_5 1_555 1_555
O5_3 C16_5 1_555 1_555
N10_5 C11_5 1_555 1_555
C9_5 N1_5 1_555 1_555
H5_5 C9_5 1_555 1_555
C10_5 C9_5 1_555 1_555
C11_5 N4_5 1_555 1_555
H6_5 C11_5 1_555 1_555
C12_5 C5_5 1_555 1_555
C14_5 N6_5 1_555 1_555
H7_5 C14_5 1_555 1_555
N11_5 C13_5 1_555 1_555
H8_5 N11_5 1_555 1_555
C15_5 C12_5 1_555 1_555
C16_5 C10_5 1_555 1_555
O6_5 C15_5 1_555 1_555
C17_5 N5_5 1_555 1_555
H10_5 C17_5 1_555 1_555
Zn4_3 O4_3 1_555 1_555
Zn6_3 O3_3 1_555 1_555
O7_3 Zn3_3 1_555 1_555
O5_3 Zn6_3 1_555 1_555
N10_5 C13_5 1_555 1_555
C10_5 C14_5 1_555 1_555
C12_5 C17_5 1_555 1_555
N2_5 N8_5 1_555 1_555
N3_5 Zn1_3 1_555 1_555
O1_3 C8_5 1_555 1_555
C1_5 N3_5 1_555 1_555
H1_5 C1_5 1_555 1_555
O2_5 C8_5 1_555 1_555
N8_5 Zn1_3 1_555 1_555
C2_5 N9_5 1_555 1_555
N9_5 Zn6 1_555 1_555
C3_5 C6_5 1_555 1_555
C4_5 N3_5 1_555 1_555
C6_5 N8_5 1_555 1_555
H3_5 C6_5 1_555 1_555
C7_5 N2_5 1_555 1_555
H4_5 C7_5 1_555 1_555
C8_5 C3_5 1_555 1_555
Zn7_3 O1_3 1_555 1_555
O8_3 Zn6 1_555 1_555
O9_3 Zn1_3 1_555 1_555
O10_3 Zn6 1_555 1_555
C1_5 N9_5 1_555 1_555
C2_5 C4_5 1_555 1_555
C3_5 C7_5 1_555 1_555
N1_6 N6_6 1_555 1_555
N4_6 Zn3_4 1_555 1_555
N5_6 N12_2 1_555 1_555
N6_6 Zn3_4 1_555 1_555
N12_2 C5_6 1_555 1_555
O3_4 C16_6 1_555 1_555
O4_4 C15_6 1_555 1_555
O5_4 C16_6 1_555 1_555
N10_6 C11_6 1_555 1_555
C5_6 H2_5 1_555 1_555
C9_6 N1_6 1_555 1_555
H5_6 C9_6 1_555 1_555
C10_6 C9_6 1_555 1_555
C11_6 N4_6 1_555 1_555
H6_6 C11_6 1_555 1_555
C12_6 C5_6 1_555 1_555
C14_6 N6_6 1_555 1_555
H7_6 C14_6 1_555 1_555
N11_6 C13_6 1_555 1_555
H8_6 N11_6 1_555 1_555
C15_6 C12_6 1_555 1_555
C16_6 C10_6 1_555 1_555
O6_6 C15_6 1_555 1_555
C17_6 N5_6 1_555 1_555
H10_6 C17_6 1_555 1_555
Zn4_4 O4_4 1_555 1_555
Zn6_4 O3_4 1_555 1_555
O7_4 Zn3_4 1_555 1_555
O5_4 Zn6_4 1_555 1_555
N10_6 C13_6 1_555 1_555
C10_6 C14_6 1_555 1_555
C12_6 C17_6 1_555 1_555
N2_6 N8_6 1_555 1_555
N3_6 Zn1_4 1_555 1_555
O1_4 C8_6 1_555 1_555
C1_6 N3_6 1_555 1_555
H1_6 C1_6 1_555 1_555
O2_6 C8_6 1_555 1_555
N8_6 Zn1_4 1_555 1_555
C2_6 N9_6 1_555 1_555
N9_6 Zn6_2 1_555 1_555
C3_6 C6_6 1_555 1_555
C4_6 N3_6 1_555 1_555
C6_6 N8_6 1_555 1_555
H3_6 C6_6 1_555 1_555
C7_6 N2_6 1_555 1_555
H4_6 C7_6 1_555 1_555
C8_6 C3_6 1_555 1_555
Zn7_4 O1_4 1_555 1_555
O8_4 Zn6_2 1_555 1_555
O9_4 Zn1_4 1_555 1_555
O10_4 Zn6_2 1_555 1_555
C1_6 N9_6 1_555 1_555
C2_6 C4_6 1_555 1_555
C3_6 C7_6 1_555 1_555
Zn4_3 N1_7 1_555 1_555
Zn7_4 N2_7 1_555 1_555
N1_7 N6_7 1_555 1_555
N2_7 N8_7 1_555 1_555
N3_7 Zn4_3 1_555 1_555
O7_4 C8_7 1_555 1_555
C1_7 N3_7 1_555 1_555
H1_7 C1_7 1_555 1_555
N4_7 Zn7_4 1_555 1_555
O2_7 C8_7 1_555 1_555
N6_7 Zn7_4 1_555 1_555
N8_7 Zn4_3 1_555 1_555
C2_7 N9_7 1_555 1_555
O8_3 C16_7 1_555 1_555
C3_7 C6_7 1_555 1_555
C4_7 N3_7 1_555 1_555
O10_3 C16_7 1_555 1_555
C6_7 N8_7 1_555 1_555
H3_7 C6_7 1_555 1_555
C7_7 N2_7 1_555 1_555
H4_7 C7_7 1_555 1_555
C8_7 C3_7 1_555 1_555
C9_7 N1_7 1_555 1_555
H5_7 C9_7 1_555 1_555
C10_7 C9_7 1_555 1_555
C11_7 N4_7 1_555 1_555
H6_7 C11_7 1_555 1_555
C14_7 N6_7 1_555 1_555
H7_7 C14_7 1_555 1_555
C16_7 C10_7 1_555 1_555
C1_7 N9_7 1_555 1_555
N4_7 C4_7 1_555 1_555
C2_7 C4_7 1_555 1_555
C3_7 C7_7 1_555 1_555
C10_7 C14_7 1_555 1_555
Zn6_3 N5_7 1_555 1_555
N5_7 N12_3 1_555 1_555
N12_3 C5_7 1_555 1_555
O9_3 C15_7 1_555 1_555
C12_7 C5_7 1_555 1_555
N11_7 C13_7 1_555 1_555
H8_7 N11_7 1_555 1_555
H9_7 N11_7 1_555 1_555
C15_7 C12_7 1_555 1_555
O6_7 C15_7 1_555 1_555
C17_7 N5_7 1_555 1_555
H10_7 C17_7 1_555 1_555
N10_7 C13_7 1_555 1_555
C12_7 C17_7 1_555 1_555
Zn6_4 N5_8 1_555 1_555
N5_8 N12_4 1_555 1_555
N12_4 C5_8 1_555 1_555
O9_4 C15_8 1_555 1_555
C5_8 H2_6 1_555 1_555
C12_8 C5_8 1_555 1_555
N11_8 C13_8 1_555 1_555
H8_8 N11_8 1_555 1_555
H9_8 N11_8 1_555 1_555
C15_8 C12_8 1_555 1_555
O6_8 C15_8 1_555 1_555
C17_8 N5_8 1_555 1_555
H10_8 C17_8 1_555 1_555
N10_8 C13_8 1_555 1_555
C12_8 C17_8 1_555 1_555
Zn4_4 N1_8 1_555 1_555
Zn7_3 N2_8 1_555 1_555
N1_8 N6_8 1_555 1_555
N2_8 N8_8 1_555 1_555
N3_8 Zn4_4 1_555 1_555
O7_3 C8_8 1_555 1_555
C1_8 N3_8 1_555 1_555
H1_8 C1_8 1_555 1_555
N4_8 Zn7_3 1_555 1_555
O2_8 C8_8 1_555 1_555
N6_8 Zn7_3 1_555 1_555
N8_8 Zn4_4 1_555 1_555
C2_8 N9_8 1_555 1_555
O8_4 C16_8 1_555 1_555
C3_8 C6_8 1_555 1_555
C4_8 N3_8 1_555 1_555
O10_4 C16_8 1_555 1_555
C6_8 N8_8 1_555 1_555
H3_8 C6_8 1_555 1_555
C7_8 N2_8 1_555 1_555
H4_8 C7_8 1_555 1_555
C8_8 C3_8 1_555 1_555
C9_8 N1_8 1_555 1_555
H5_8 C9_8 1_555 1_555
C10_8 C9_8 1_555 1_555
C11_8 N4_8 1_555 1_555
H6_8 C11_8 1_555 1_555
C14_8 N6_8 1_555 1_555
H7_8 C14_8 1_555 1_555
C16_8 C10_8 1_555 1_555
C1_8 N9_8 1_555 1_555
N4_8 C4_8 1_555 1_555
C2_8 C4_8 1_555 1_555
C3_8 C7_8 1_555 1_555
C10_8 C14_8 1_555 1_555

#END
