
###############################################################################
#
# This file contains modified crystal structure data generated from the
# MOF subset of the Cambridge Structural Database (CSD) v543 
# hosted by the Cambridge Crystallographic Data Centre (CCDC).
#
# This work is licensed under the Creative Commons
# Attribution-NonCommercial-ShareAlike 4.0 International License.
# To view a copy of this license, visit
# http://creativecommons.org/licenses/by-nc-sa/4.0/
# or send a letter to
# Creative Commons, PO Box 1866, Mountain View, CA 94042, USA.
#
# CIF created using the CSD Python API on 29 September 2022
# The structure has been converted into the P1 space group
# The structure has a 3D framework
# The original CSD entry CUDPOI is in the monoclinic crystal system
# The framework has been calculated to contain at least 10.0% void space
# The void calculation uses a probe of radius 1.32A, grid spacing 0.4
# The framework is charged, counterions have been retained in the structure
#
###############################################################################

data_CUDPOI
_chemical_formula_moiety         '(C136 H80 N88 O48 Zn20 4-)n'
_symmetry_cell_setting           triclinic
_symmetry_space_group_name_H-M   'P 1'
_symmetry_Int_Tables_number      1
_space_group_name_Hall           'P 1'
loop_
_symmetry_equiv_pos_site_id
_symmetry_equiv_pos_as_xyz
1 x,y,z
_cell_length_a                   18.9549(6)
_cell_length_b                   12.8976(4)
_cell_length_c                   32.3865(10)
_cell_angle_alpha                90
_cell_angle_beta                 95.872(3)
_cell_angle_gamma                90
_cell_volume                     7876.07
loop_
_atom_site_label
_atom_site_type_symbol
_atom_site_fract_x
_atom_site_fract_y
_atom_site_fract_z
Zn1 Zn 0.040184(19) 0.08194(3) 0.041535(10)
O1 O 0.08962(14) 0.2183(2) 0.04542(9)
O2 O 0.14991(16) 0.1137(2) 0.08973(9)
H5 H 0.1144 0.0122 0.1282
N2 N 0.07751(12) 0.9438(2) 0.02811(7)
C3 C 0.13268(15) 0.8904(3) 0.04517(8)
C5 C 0.03240(16) 0.9866(3) 0.15635(8)
C6 C 0.06135(18) 0.7821(3) 0.00960(11)
C7 C 0.12614(19) 0.7863(3) 0.03426(10)
H2 H 0.1705 0.9186 0.0621
N6 N 0.01456(15) 0.9462(2) 0.19269(8)
N7 N 0.10083(14) 0.9874(3) 0.15073(8)
C8 C 0.1729(2) 0.6984(3) 0.04723(14)
H4 H 0.1316 0.9631 0.1696
O4 O 0.1581(3) 0.6088(3) 0.0350(2)
N12 N 0.03221(13) 0.87596(19) 0.00579(7)
O7 O 0.22848(12) 0.71811(17) 0.07040(6)
Zn5 Zn 0.25746(2) 0.59456(3) 0.103121(12)
N1 N 0.97446(13) 0.0678(2) 0.08799(7)
C1 C 0.90640(15) 0.0894(2) 0.07895(8)
C2 C 0.97687(15) 0.0235(2) 0.12726(8)
H1 H 0.8892 0.1195 0.0538
N4 N 0.86370(12) 0.06555(18) 0.10789(7)
C4 C 0.90851(15) 0.0224(2) 0.13905(8)
Zn2 Zn 0.75746(2) 0.09456(3) 0.103121(12)
O3 O 0.72848(12) 0.21811(17) 0.07040(6)
N8 N 0.74189(14) 0.15394(19) 0.15929(7)
N10 N 0.74995(14) 0.09570(19) 0.19512(7)
C10 C 0.72647(16) 0.2512(2) 0.16937(9)
C12 C 0.73963(17) 0.1572(2) 0.22688(9)
H7 H 0.7183 0.3057 0.1507
C13 C 0.72445(16) 0.2585(2) 0.21234(9)
H9 H 0.7421 0.1366 0.2545
C16 C 0.71191(16) 0.3506(2) 0.23681(9)
O6 O 0.70526(12) 0.43800(17) 0.22097(7)
O8 O 0.70956(14) 0.33503(16) 0.27588(6)
Zn6 Zn 0.70894(2) 0.45609(3) 0.310576(10)
N3 N 0.96779(13) 0.12404(19) 0.99421(7)
N5 N 0.89098(13) 0.98187(19) 0.17559(7)
N9 N 0.71584(13) 0.9533(2) 0.10440(7)
Zn3 Zn 0.79106(2) 0.95609(3) 0.189424(10)
C9 C 0.94673(17) 0.9464(3) 0.19982(9)
N11 N 0.74146(15) 0.8935(2) 0.13786(7)
C11 C 0.67579(17) 0.8925(3) 0.07836(10)
O5 O 0.79044(14) 0.83503(16) 0.22412(6)
H6 H 0.9369 0.9180 0.2250
C14 C 0.71865(18) 0.7970(3) 0.13102(10)
C15 C 0.67651(19) 0.7929(3) 0.09320(10)
H8 H 0.6509 0.9145 0.0537
H10 H 0.7292 0.7410 0.1487
C17 C 0.6377(2) 0.7024(3) 0.07566(11)
O9 O 0.58962(14) 0.7183(2) 0.04542(9)
O10 O 0.64991(16) 0.6137(2) 0.08973(9)
Zn7 Zn 0.540184(19) 0.58194(3) 0.041535(10)
Zn4 Zn 0.959816(19) 0.91806(3) 0.958465(10)
N1_2 N 0.02554(13) 0.0678(2) 0.41201(7)
N3_2 N 0.03221(13) 0.12404(19) 0.50579(7)
C1_2 C 0.09360(15) 0.0894(2) 0.42105(8)
C2_2 C 0.02313(15) 0.0235(2) 0.37274(8)
H1_2 H 0.1108 0.1195 0.4462
N4_2 N 0.13630(12) 0.06555(18) 0.39211(7)
C4_2 C 0.09149(15) 0.0224(2) 0.36095(8)
Zn2_2 Zn 0.24254(2) 0.09456(3) 0.396879(12)
O3_2 O 0.27152(12) 0.21811(17) 0.42960(6)
N8_2 N 0.25811(14) 0.15394(19) 0.34071(7)
N10_2 N 0.25005(14) 0.09570(19) 0.30488(7)
C10_2 C 0.27353(16) 0.2512(2) 0.33063(9)
C12_2 C 0.26037(17) 0.1572(2) 0.27312(9)
H7_2 H 0.2817 0.3057 0.3493
C13_2 C 0.27555(16) 0.2585(2) 0.28766(9)
H9_2 H 0.2579 0.1366 0.2455
C16_2 C 0.28809(16) 0.3506(2) 0.26319(9)
O6_2 O 0.29474(12) 0.43800(17) 0.27903(7)
O8_2 O 0.29044(14) 0.33503(16) 0.22412(6)
Zn6_2 Zn 0.29106(2) 0.45609(3) 0.189424(10)
N5_2 N 0.10902(13) 0.98187(19) 0.32441(7)
N9_2 N 0.28416(13) 0.9533(2) 0.39560(7)
Zn3_2 Zn 0.20894(2) 0.95609(3) 0.310576(10)
C9_2 C 0.05327(17) 0.9464(3) 0.30018(9)
N11_2 N 0.25854(15) 0.8935(2) 0.36214(7)
C11_2 C 0.32421(17) 0.8925(3) 0.42164(10)
O5_2 O 0.20956(14) 0.83503(16) 0.27588(6)
H6_2 H 0.0631 0.9180 0.2750
C14_2 C 0.28135(18) 0.7970(3) 0.36898(10)
C15_2 C 0.32349(19) 0.7929(3) 0.40680(10)
H8_2 H 0.3491 0.9145 0.4463
H10_2 H 0.2708 0.7410 0.3513
C17_2 C 0.3623(2) 0.7024(3) 0.42434(11)
Zn4_2 Zn 0.040184(19) 0.91806(3) 0.541535(10)
O9_2 O 0.41038(14) 0.7183(2) 0.45458(9)
O10_2 O 0.35009(16) 0.6137(2) 0.41027(9)
Zn7_2 Zn 0.459816(19) 0.58194(3) 0.458465(10)
Zn1_2 Zn 0.959816(19) 0.08194(3) 0.458465(10)
O1_2 O 0.91038(14) 0.2183(2) 0.45458(9)
O2_2 O 0.85009(16) 0.1137(2) 0.41027(9)
H5_2 H 0.8856 0.0122 0.3718
N2_2 N 0.92249(12) 0.9438(2) 0.47189(7)
C3_2 C 0.86732(15) 0.8904(3) 0.45483(8)
C5_2 C 0.96760(16) 0.9866(3) 0.34365(8)
C6_2 C 0.93865(18) 0.7821(3) 0.49040(11)
C7_2 C 0.87386(19) 0.7863(3) 0.46574(10)
H2_2 H 0.8295 0.9186 0.4379
N6_2 N 0.98544(15) 0.9462(2) 0.30731(8)
N7_2 N 0.89917(14) 0.9874(3) 0.34927(8)
H3 H 0.9587 0.7222 0.5025
C8_2 C 0.8271(2) 0.6984(3) 0.45277(14)
H4_2 H 0.8684 0.9631 0.3304
O4_2 O 0.8419(3) 0.6088(3) 0.4650(2)
N12_2 N 0.96779(13) 0.87596(19) 0.49421(7)
O7_2 O 0.77152(12) 0.71811(17) 0.42960(6)
Zn5_2 Zn 0.74254(2) 0.59456(3) 0.396879(12)
N1_3 N 0.47446(13) 0.5678(2) 0.08799(7)
N2_3 N 0.57751(12) 0.4438(2) 0.02811(7)
C1_3 C 0.40640(15) 0.5894(2) 0.07895(8)
C2_3 C 0.47687(15) 0.5235(2) 0.12726(8)
C3_3 C 0.63268(15) 0.3904(3) 0.04517(8)
H1_3 H 0.3892 0.6195 0.0538
N4_3 N 0.36370(12) 0.56555(18) 0.10789(7)
C4_3 C 0.40851(15) 0.5224(2) 0.13905(8)
C5_3 C 0.53240(16) 0.4866(3) 0.15635(8)
C6_3 C 0.56135(18) 0.2821(3) 0.00960(11)
C7_3 C 0.62614(19) 0.2863(3) 0.03426(10)
H2_3 H 0.6705 0.4186 0.0621
N5_3 N 0.39098(13) 0.48187(19) 0.17559(7)
N6_3 N 0.51456(15) 0.4462(2) 0.19269(8)
N7_3 N 0.60083(14) 0.4874(3) 0.15073(8)
C8_3 C 0.6729(2) 0.1984(3) 0.04723(14)
N8_3 N 0.24189(14) 0.65394(19) 0.15929(7)
N9_3 N 0.21584(13) 0.4533(2) 0.10440(7)
C9_3 C 0.44673(17) 0.4464(3) 0.19982(9)
H4_3 H 0.6316 0.4631 0.1696
H5_3 H 0.6144 0.5122 0.1282
O4_3 O 0.6581(3) 0.1088(3) 0.0350(2)
N10_3 N 0.24995(14) 0.59570(19) 0.19512(7)
C10_3 C 0.22647(16) 0.7512(2) 0.16937(9)
N11_3 N 0.24146(15) 0.3935(2) 0.13786(7)
C11_3 C 0.17579(17) 0.3925(3) 0.07836(10)
H6_3 H 0.4369 0.4180 0.2250
C12_3 C 0.23963(17) 0.6572(2) 0.22688(9)
H7_3 H 0.2183 0.8057 0.1507
C13_3 C 0.22445(16) 0.7585(2) 0.21234(9)
C14_3 C 0.21865(18) 0.2970(3) 0.13102(10)
C15_3 C 0.17651(19) 0.2929(3) 0.09320(10)
H8_3 H 0.1509 0.4145 0.0537
H9_3 H 0.2421 0.6366 0.2545
C16_3 C 0.21191(16) 0.8506(2) 0.23681(9)
H10_3 H 0.2292 0.2410 0.1487
C17_3 C 0.1377(2) 0.2024(3) 0.07566(11)
O6_3 O 0.20526(12) 0.93800(17) 0.22097(7)
N12_3 N 0.53221(13) 0.37596(19) 0.00579(7)
N3_3 N 0.46779(13) 0.62404(19) 0.99421(7)
H3_2 H 0.5413 0.2222 0.9975
Zn4_3 Zn 0.459816(19) 0.41806(3) 0.958465(10)
N1_4 N 0.52554(13) 0.5678(2) 0.41201(7)
N2_4 N 0.42249(12) 0.4438(2) 0.47189(7)
N3_4 N 0.53221(13) 0.62404(19) 0.50579(7)
C1_4 C 0.59360(15) 0.5894(2) 0.42105(8)
C2_4 C 0.52313(15) 0.5235(2) 0.37274(8)
C3_4 C 0.36732(15) 0.3904(3) 0.45483(8)
H1_4 H 0.6108 0.6195 0.4462
N4_4 N 0.63630(12) 0.56555(18) 0.39211(7)
C4_4 C 0.59149(15) 0.5224(2) 0.36095(8)
C5_4 C 0.46760(16) 0.4866(3) 0.34365(8)
C6_4 C 0.43865(18) 0.2821(3) 0.49040(11)
C7_4 C 0.37386(19) 0.2863(3) 0.46574(10)
H2_4 H 0.3295 0.4186 0.4379
N5_4 N 0.60902(13) 0.48187(19) 0.32441(7)
N6_4 N 0.48544(15) 0.4462(2) 0.30731(8)
N7_4 N 0.39917(14) 0.4874(3) 0.34927(8)
H3_3 H 0.4587 0.2222 0.5025
C8_4 C 0.3271(2) 0.1984(3) 0.45277(14)
N8_4 N 0.75811(14) 0.65394(19) 0.34071(7)
N9_4 N 0.78416(13) 0.4533(2) 0.39560(7)
C9_4 C 0.55327(17) 0.4464(3) 0.30018(9)
H4_4 H 0.3684 0.4631 0.3304
H5_4 H 0.3856 0.5122 0.3718
O4_4 O 0.3419(3) 0.1088(3) 0.4650(2)
N10_4 N 0.75005(14) 0.59570(19) 0.30488(7)
C10_4 C 0.77353(16) 0.7512(2) 0.33063(9)
N11_4 N 0.75854(15) 0.3935(2) 0.36214(7)
C11_4 C 0.82421(17) 0.3925(3) 0.42164(10)
H6_4 H 0.5631 0.4180 0.2750
C12_4 C 0.76037(17) 0.6572(2) 0.27312(9)
H7_4 H 0.7817 0.8057 0.3493
C13_4 C 0.77555(16) 0.7585(2) 0.28766(9)
C14_4 C 0.78135(18) 0.2970(3) 0.36898(10)
C15_4 C 0.82349(19) 0.2929(3) 0.40680(10)
H8_4 H 0.8491 0.4145 0.4463
H9_4 H 0.7579 0.6366 0.2455
C16_4 C 0.78809(16) 0.8506(2) 0.26319(9)
H10_4 H 0.7708 0.2410 0.3513
C17_4 C 0.8623(2) 0.2024(3) 0.42434(11)
O6_4 O 0.79474(12) 0.93800(17) 0.27903(7)
N12_4 N 0.46779(13) 0.37596(19) 0.49421(7)
Zn4_4 Zn 0.540184(19) 0.41806(3) 0.541535(10)
N5_5 N 0.10902(13) 0.01813(19) 0.82441(7)
N9_5 N 0.28416(13) 0.0467(2) 0.89560(7)
Zn3_3 Zn 0.20894(2) 0.04391(3) 0.810576(10)
C9_5 C 0.05327(17) 0.0536(3) 0.80018(9)
N11_5 N 0.25854(15) 0.1065(2) 0.86214(7)
C11_5 C 0.32421(17) 0.1075(3) 0.92164(10)
O5_3 O 0.20956(14) 0.16497(16) 0.77588(6)
H6_5 H 0.0631 0.0820 0.7750
C14_5 C 0.28135(18) 0.2030(3) 0.86898(10)
C15_5 C 0.32349(19) 0.2071(3) 0.90680(10)
H8_5 H 0.3491 0.0855 0.9463
H10_5 H 0.2708 0.2590 0.8513
C17_5 C 0.3623(2) 0.2976(3) 0.92434(11)
O9_3 O 0.41038(14) 0.2817(2) 0.95458(9)
O10_3 O 0.35009(16) 0.3863(2) 0.91027(9)
N1_5 N 0.02554(13) 0.9322(2) 0.91201(7)
C1_5 C 0.09360(15) 0.9106(2) 0.92105(8)
C2_5 C 0.02313(15) 0.9765(2) 0.87274(8)
H1_5 H 0.1108 0.8805 0.9462
N4_5 N 0.13630(12) 0.93445(18) 0.89211(7)
C4_5 C 0.09149(15) 0.9776(2) 0.86095(8)
Zn2_3 Zn 0.24254(2) 0.90544(3) 0.896879(12)
O3_3 O 0.27152(12) 0.78189(17) 0.92960(6)
N8_5 N 0.25811(14) 0.84606(19) 0.84071(7)
N10_5 N 0.25005(14) 0.90430(19) 0.80488(7)
C10_5 C 0.27353(16) 0.7488(2) 0.83063(9)
C12_5 C 0.26037(17) 0.8428(2) 0.77312(9)
H7_5 H 0.2817 0.6943 0.8493
C13_5 C 0.27555(16) 0.7415(2) 0.78766(9)
H9_5 H 0.2579 0.8634 0.7455
C16_5 C 0.28809(16) 0.6494(2) 0.76319(9)
O6_5 O 0.29474(12) 0.56200(17) 0.77903(7)
O8_3 O 0.29044(14) 0.66497(16) 0.72412(6)
Zn6_3 Zn 0.29106(2) 0.54391(3) 0.689424(10)
N2_5 N 0.92249(12) 0.0562(2) 0.97189(7)
C3_5 C 0.86732(15) 0.1096(3) 0.95483(8)
C5_5 C 0.96760(16) 0.0134(3) 0.84365(8)
C6_5 C 0.93865(18) 0.2179(3) 0.99040(11)
C7_5 C 0.87386(19) 0.2137(3) 0.96574(10)
H2_5 H 0.8295 0.0814 0.9379
N6_5 N 0.98544(15) 0.0538(2) 0.80731(8)
N7_5 N 0.89917(14) 0.0126(3) 0.84927(8)
C8_5 C 0.8271(2) 0.3016(3) 0.95277(14)
H4_5 H 0.8684 0.0369 0.8304
O4_5 O 0.8419(3) 0.3912(3) 0.9650(2)
O7_3 O 0.77152(12) 0.28189(17) 0.92960(6)
Zn5_3 Zn 0.74254(2) 0.40544(3) 0.896879(12)
O1_3 O 0.91038(14) 0.7817(2) 0.95458(9)
O2_3 O 0.85009(16) 0.8863(2) 0.91027(9)
H5_5 H 0.8856 0.9878 0.8718
N2_6 N 0.07751(12) 0.0562(2) 0.52811(7)
C3_6 C 0.13268(15) 0.1096(3) 0.54517(8)
C5_6 C 0.03240(16) 0.0134(3) 0.65635(8)
C6_6 C 0.06135(18) 0.2179(3) 0.50960(11)
C7_6 C 0.12614(19) 0.2137(3) 0.53426(10)
H2_6 H 0.1705 0.0814 0.5621
N6_6 N 0.01456(15) 0.0538(2) 0.69269(8)
N7_6 N 0.10083(14) 0.0126(3) 0.65073(8)
H3_4 H 0.0413 0.2778 0.4975
C8_6 C 0.1729(2) 0.3016(3) 0.54723(14)
H4_6 H 0.1316 0.0369 0.6696
O4_6 O 0.1581(3) 0.3912(3) 0.5350(2)
O7_4 O 0.22848(12) 0.28189(17) 0.57040(6)
Zn5_4 Zn 0.25746(2) 0.40544(3) 0.603121(12)
O1_4 O 0.08962(14) 0.7817(2) 0.54542(9)
O2_4 O 0.14991(16) 0.8863(2) 0.58973(9)
H5_6 H 0.1144 0.9878 0.6282
N5_6 N 0.89098(13) 0.01813(19) 0.67559(7)
N9_6 N 0.71584(13) 0.0467(2) 0.60440(7)
Zn3_4 Zn 0.79106(2) 0.04391(3) 0.689424(10)
C9_6 C 0.94673(17) 0.0536(3) 0.69982(9)
N11_6 N 0.74146(15) 0.1065(2) 0.63786(7)
C11_6 C 0.67579(17) 0.1075(3) 0.57836(10)
O5_4 O 0.79044(14) 0.16497(16) 0.72412(6)
H6_6 H 0.9369 0.0820 0.7250
C14_6 C 0.71865(18) 0.2030(3) 0.63102(10)
C15_6 C 0.67651(19) 0.2071(3) 0.59320(10)
H8_6 H 0.6509 0.0855 0.5537
H10_6 H 0.7292 0.2590 0.6487
C17_6 C 0.6377(2) 0.2976(3) 0.57566(11)
O9_4 O 0.58962(14) 0.2817(2) 0.54542(9)
O10_4 O 0.64991(16) 0.3863(2) 0.58973(9)
N1_6 N 0.97446(13) 0.9322(2) 0.58799(7)
C1_6 C 0.90640(15) 0.9106(2) 0.57895(8)
C2_6 C 0.97687(15) 0.9765(2) 0.62726(8)
H1_6 H 0.8892 0.8805 0.5538
N4_6 N 0.86370(12) 0.93445(18) 0.60789(7)
C4_6 C 0.90851(15) 0.9776(2) 0.63905(8)
Zn2_4 Zn 0.75746(2) 0.90544(3) 0.603121(12)
O3_4 O 0.72848(12) 0.78189(17) 0.57040(6)
N8_6 N 0.74189(14) 0.84606(19) 0.65929(7)
N10_6 N 0.74995(14) 0.90430(19) 0.69512(7)
C10_6 C 0.72647(16) 0.7488(2) 0.66937(9)
C12_6 C 0.73963(17) 0.8428(2) 0.72688(9)
H7_6 H 0.7183 0.6943 0.6507
C13_6 C 0.72445(16) 0.7415(2) 0.71234(9)
H9_6 H 0.7421 0.8634 0.7545
C16_6 C 0.71191(16) 0.6494(2) 0.73681(9)
O6_6 O 0.70526(12) 0.56200(17) 0.72097(7)
O8_4 O 0.70956(14) 0.66497(16) 0.77588(6)
Zn6_4 Zn 0.70894(2) 0.54391(3) 0.810576(10)
H3_5 H 0.4587 0.7778 0.0025
N1_7 N 0.52554(13) 0.4322(2) 0.91201(7)
N2_7 N 0.42249(12) 0.5562(2) 0.97189(7)
C1_7 C 0.59360(15) 0.4106(2) 0.92105(8)
C2_7 C 0.52313(15) 0.4765(2) 0.87274(8)
C3_7 C 0.36732(15) 0.6096(3) 0.95483(8)
H1_7 H 0.6108 0.3805 0.9462
N4_7 N 0.63630(12) 0.43445(18) 0.89211(7)
C4_7 C 0.59149(15) 0.4776(2) 0.86095(8)
C5_7 C 0.46760(16) 0.5134(3) 0.84365(8)
C6_7 C 0.43865(18) 0.7179(3) 0.99040(11)
C7_7 C 0.37386(19) 0.7137(3) 0.96574(10)
H2_7 H 0.3295 0.5814 0.9379
N5_7 N 0.60902(13) 0.51813(19) 0.82441(7)
N6_7 N 0.48544(15) 0.5538(2) 0.80731(8)
N7_7 N 0.39917(14) 0.5126(3) 0.84927(8)
C8_7 C 0.3271(2) 0.8016(3) 0.95277(14)
N8_7 N 0.75811(14) 0.34606(19) 0.84071(7)
N9_7 N 0.78416(13) 0.5467(2) 0.89560(7)
C9_7 C 0.55327(17) 0.5536(3) 0.80018(9)
H4_7 H 0.3684 0.5369 0.8304
H5_7 H 0.3856 0.4878 0.8718
O4_7 O 0.3419(3) 0.8912(3) 0.9650(2)
N10_7 N 0.75005(14) 0.40430(19) 0.80488(7)
C10_7 C 0.77353(16) 0.2488(2) 0.83063(9)
N11_7 N 0.75854(15) 0.6065(2) 0.86214(7)
C11_7 C 0.82421(17) 0.6075(3) 0.92164(10)
H6_7 H 0.5631 0.5820 0.7750
C12_7 C 0.76037(17) 0.3428(2) 0.77312(9)
H7_7 H 0.7817 0.1943 0.8493
C13_7 C 0.77555(16) 0.2415(2) 0.78766(9)
C14_7 C 0.78135(18) 0.7030(3) 0.86898(10)
C15_7 C 0.82349(19) 0.7071(3) 0.90680(10)
H8_7 H 0.8491 0.5855 0.9463
H9_7 H 0.7579 0.3634 0.7455
C16_7 C 0.78809(16) 0.1494(2) 0.76319(9)
H10_7 H 0.7708 0.7590 0.8513
C17_7 C 0.8623(2) 0.7976(3) 0.92434(11)
O6_7 O 0.79474(12) 0.06200(17) 0.77903(7)
N1_8 N 0.47446(13) 0.4322(2) 0.58799(7)
N2_8 N 0.57751(12) 0.5562(2) 0.52811(7)
C1_8 C 0.40640(15) 0.4106(2) 0.57895(8)
C2_8 C 0.47687(15) 0.4765(2) 0.62726(8)
C3_8 C 0.63268(15) 0.6096(3) 0.54517(8)
H1_8 H 0.3892 0.3805 0.5538
N4_8 N 0.36370(12) 0.43445(18) 0.60789(7)
C4_8 C 0.40851(15) 0.4776(2) 0.63905(8)
C5_8 C 0.53240(16) 0.5134(3) 0.65635(8)
C6_8 C 0.56135(18) 0.7179(3) 0.50960(11)
C7_8 C 0.62614(19) 0.7137(3) 0.53426(10)
H2_8 H 0.6705 0.5814 0.5621
N5_8 N 0.39098(13) 0.51813(19) 0.67559(7)
N6_8 N 0.51456(15) 0.5538(2) 0.69269(8)
N7_8 N 0.60083(14) 0.5126(3) 0.65073(8)
H3_6 H 0.5413 0.7778 0.4975
C8_8 C 0.6729(2) 0.8016(3) 0.54723(14)
N8_8 N 0.24189(14) 0.34606(19) 0.65929(7)
N9_8 N 0.21584(13) 0.5467(2) 0.60440(7)
C9_8 C 0.44673(17) 0.5536(3) 0.69982(9)
H4_8 H 0.6316 0.5369 0.6696
H5_8 H 0.6144 0.4878 0.6282
O4_8 O 0.6581(3) 0.8912(3) 0.5350(2)
N10_8 N 0.24995(14) 0.40430(19) 0.69512(7)
C10_8 C 0.22647(16) 0.2488(2) 0.66937(9)
N11_8 N 0.24146(15) 0.6065(2) 0.63786(7)
C11_8 C 0.17579(17) 0.6075(3) 0.57836(10)
H6_8 H 0.4369 0.5820 0.7250
C12_8 C 0.23963(17) 0.3428(2) 0.72688(9)
H7_8 H 0.2183 0.1943 0.6507
C13_8 C 0.22445(16) 0.2415(2) 0.71234(9)
C14_8 C 0.21865(18) 0.7030(3) 0.63102(10)
C15_8 C 0.17651(19) 0.7071(3) 0.59320(10)
H8_8 H 0.1509 0.5855 0.5537
H9_8 H 0.2421 0.3634 0.7545
C16_8 C 0.21191(16) 0.1494(2) 0.73681(9)
H10_8 H 0.2292 0.7590 0.6487
C17_8 C 0.1377(2) 0.7976(3) 0.57566(11)
O6_8 O 0.20526(12) 0.06200(17) 0.72097(7)
H3_7 H 0.0413 0.7222 0.9975
H3_8 H 0.9587 0.2778 0.0025
loop_
_geom_bond_atom_site_label_1
_geom_bond_atom_site_label_2
_geom_bond_site_symmetry_1
_geom_bond_site_symmetry_2
O1 Zn1 1_555 1_555
O2 Zn1 1_555 1_555
C3 N2 1_555 1_555
C6 C7 1_555 1_555
C7 C3 1_555 1_555
H2 C3 1_555 1_555
N6 C5 1_555 1_555
N7 C5 1_555 1_555
C8 C7 1_555 1_555
H4 N7 1_555 1_555
O4 C8 1_555 1_555
N12 N2 1_555 1_555
O7 C8 1_555 1_555
Zn5 O7 1_555 1_555
C6 N12 1_555 1_555
N1 C1 1_555 1_555
C1 H1 1_555 1_555
C2 N1 1_555 1_555
N4 C1 1_555 1_555
C4 C2 1_555 1_555
Zn2 N4 1_555 1_555
O3 Zn2 1_555 1_555
N8 Zn2 1_555 1_555
N10 N8 1_555 1_555
C10 N8 1_555 1_555
C12 N10 1_555 1_555
H7 C10 1_555 1_555
C13 C10 1_555 1_555
H9 C12 1_555 1_555
C16 C13 1_555 1_555
O6 C16 1_555 1_555
O8 C16 1_555 1_555
Zn6 O8 1_555 1_555
N4 C4 1_555 1_555
C12 C13 1_555 1_555
Zn3 N5 1_555 1_555
C9 N5 1_555 1_555
N11 N9 1_555 1_555
C11 N9 1_555 1_555
O5 Zn3 1_555 1_555
H6 C9 1_555 1_555
C14 N11 1_555 1_555
C15 C11 1_555 1_555
H8 C11 1_555 1_555
H10 C14 1_555 1_555
C17 C15 1_555 1_555
O9 C17 1_555 1_555
O10 C17 1_555 1_555
Zn7 O9 1_555 1_555
Zn3 N11 1_555 1_555
C14 C15 1_555 1_555
O10 Zn7 1_555 1_555
N1_2 C1_2 1_555 1_555
C1_2 H1_2 1_555 1_555
C2_2 N1_2 1_555 1_555
N4_2 C1_2 1_555 1_555
C4_2 C2_2 1_555 1_555
Zn2_2 N4_2 1_555 1_555
O3_2 Zn2_2 1_555 1_555
N8_2 Zn2_2 1_555 1_555
N10_2 N8_2 1_555 1_555
C10_2 N8_2 1_555 1_555
C12_2 N10_2 1_555 1_555
H7_2 C10_2 1_555 1_555
C13_2 C10_2 1_555 1_555
H9_2 C12_2 1_555 1_555
C16_2 C13_2 1_555 1_555
O6_2 C16_2 1_555 1_555
O8_2 C16_2 1_555 1_555
Zn6_2 O8_2 1_555 1_555
N4_2 C4_2 1_555 1_555
C12_2 C13_2 1_555 1_555
Zn3_2 N5_2 1_555 1_555
C9_2 N5_2 1_555 1_555
N11_2 N9_2 1_555 1_555
C11_2 N9_2 1_555 1_555
O5_2 Zn3_2 1_555 1_555
H6_2 C9_2 1_555 1_555
C14_2 N11_2 1_555 1_555
C15_2 C11_2 1_555 1_555
H8_2 C11_2 1_555 1_555
H10_2 C14_2 1_555 1_555
C17_2 C15_2 1_555 1_555
O9_2 C17_2 1_555 1_555
O10_2 C17_2 1_555 1_555
Zn7_2 O9_2 1_555 1_555
Zn3_2 N11_2 1_555 1_555
C14_2 C15_2 1_555 1_555
O10_2 Zn7_2 1_555 1_555
O1_2 Zn1_2 1_555 1_555
O2_2 Zn1_2 1_555 1_555
C3_2 N2_2 1_555 1_555
C6_2 C7_2 1_555 1_555
C7_2 C3_2 1_555 1_555
H2_2 C3_2 1_555 1_555
N6_2 C5_2 1_555 1_555
N7_2 C5_2 1_555 1_555
H3 C6_2 1_555 1_555
C8_2 C7_2 1_555 1_555
H4_2 N7_2 1_555 1_555
O4_2 C8_2 1_555 1_555
N12_2 N2_2 1_555 1_555
O7_2 C8_2 1_555 1_555
Zn5_2 O7_2 1_555 1_555
C6_2 N12_2 1_555 1_555
Zn7 N1_3 1_555 1_555
N1_3 C1_3 1_555 1_555
N2_3 Zn7 1_555 1_555
C1_3 H1_3 1_555 1_555
C2_3 N1_3 1_555 1_555
C3_3 N2_3 1_555 1_555
N4_3 C1_3 1_555 1_555
C4_3 C2_3 1_555 1_555
C5_3 C2_3 1_555 1_555
C6_3 C7_3 1_555 1_555
C7_3 C3_3 1_555 1_555
H2_3 C3_3 1_555 1_555
Zn5 N4_3 1_555 1_555
N5_3 C4_3 1_555 1_555
N6_3 C5_3 1_555 1_555
N7_3 C5_3 1_555 1_555
C8_3 C7_3 1_555 1_555
N8_3 Zn5 1_555 1_555
N9_3 Zn5 1_555 1_555
Zn6_2 N5_3 1_555 1_555
C9_3 N5_3 1_555 1_555
H4_3 N7_3 1_555 1_555
H5_3 N7_3 1_555 1_555
O4_3 C8_3 1_555 1_555
N10_3 N8_3 1_555 1_555
C10_3 N8_3 1_555 1_555
N11_3 N9_3 1_555 1_555
C11_3 N9_3 1_555 1_555
H6_3 C9_3 1_555 1_555
C12_3 N10_3 1_555 1_555
H7_3 C10_3 1_555 1_555
C13_3 C10_3 1_555 1_555
C14_3 N11_3 1_555 1_555
C15_3 C11_3 1_555 1_555
H8_3 C11_3 1_555 1_555
H9_3 C12_3 1_555 1_555
C16_3 C13_3 1_555 1_555
H10_3 C14_3 1_555 1_555
C17_3 C15_3 1_555 1_555
O6_3 C16_3 1_555 1_555
N12_3 N2_3 1_555 1_555
O3 C8_3 1_555 1_555
O5_2 C16_3 1_555 1_555
O1 C17_3 1_555 1_555
O2 C17_3 1_555 1_555
N4_3 C4_3 1_555 1_555
C6_3 N12_3 1_555 1_555
N6_3 C9_3 1_555 1_555
Zn6_2 N10_3 1_555 1_555
Zn6_2 N11_3 1_555 1_555
C12_3 C13_3 1_555 1_555
C14_3 C15_3 1_555 1_555
Zn7_2 N1_4 1_555 1_555
N1_4 C1_4 1_555 1_555
N2_4 Zn7_2 1_555 1_555
N3_4 Zn7_2 1_555 1_555
C1_4 H1_4 1_555 1_555
C2_4 N1_4 1_555 1_555
C3_4 N2_4 1_555 1_555
N4_4 C1_4 1_555 1_555
C4_4 C2_4 1_555 1_555
C5_4 C2_4 1_555 1_555
C6_4 C7_4 1_555 1_555
C7_4 C3_4 1_555 1_555
H2_4 C3_4 1_555 1_555
Zn5_2 N4_4 1_555 1_555
N5_4 C4_4 1_555 1_555
N6_4 C5_4 1_555 1_555
N7_4 C5_4 1_555 1_555
H3_3 C6_4 1_555 1_555
C8_4 C7_4 1_555 1_555
N8_4 Zn5_2 1_555 1_555
N9_4 Zn5_2 1_555 1_555
Zn6 N5_4 1_555 1_555
C9_4 N5_4 1_555 1_555
H4_4 N7_4 1_555 1_555
H5_4 N7_4 1_555 1_555
O4_4 C8_4 1_555 1_555
N10_4 N8_4 1_555 1_555
C10_4 N8_4 1_555 1_555
N11_4 N9_4 1_555 1_555
C11_4 N9_4 1_555 1_555
H6_4 C9_4 1_555 1_555
C12_4 N10_4 1_555 1_555
H7_4 C10_4 1_555 1_555
C13_4 C10_4 1_555 1_555
C14_4 N11_4 1_555 1_555
C15_4 C11_4 1_555 1_555
H8_4 C11_4 1_555 1_555
H9_4 C12_4 1_555 1_555
C16_4 C13_4 1_555 1_555
H10_4 C14_4 1_555 1_555
C17_4 C15_4 1_555 1_555
O6_4 C16_4 1_555 1_555
N12_4 N2_4 1_555 1_555
Zn4_4 N12_4 1_555 1_555
O3_2 C8_4 1_555 1_555
O5 C16_4 1_555 1_555
O1_2 C17_4 1_555 1_555
O2_2 C17_4 1_555 1_555
N4_4 C4_4 1_555 1_555
C6_4 N12_4 1_555 1_555
N6_4 C9_4 1_555 1_555
Zn6 N10_4 1_555 1_555
Zn6 N11_4 1_555 1_555
C12_4 C13_4 1_555 1_555
C14_4 C15_4 1_555 1_555
Zn3_3 N5_5 1_555 1_555
C9_5 N5_5 1_555 1_555
N11_5 N9_5 1_555 1_555
C11_5 N9_5 1_555 1_555
O5_3 Zn3_3 1_555 1_555
H6_5 C9_5 1_555 1_555
C14_5 N11_5 1_555 1_555
C15_5 C11_5 1_555 1_555
H8_5 C11_5 1_555 1_555
H10_5 C14_5 1_555 1_555
C17_5 C15_5 1_555 1_555
O9_3 C17_5 1_555 1_555
O10_3 C17_5 1_555 1_555
Zn4_3 O9_3 1_555 1_555
Zn3_3 N11_5 1_555 1_555
C14_5 C15_5 1_555 1_555
O10_3 Zn4_3 1_555 1_555
N1_5 C1_5 1_555 1_555
C1_5 H1_5 1_555 1_555
C2_5 N1_5 1_555 1_555
N4_5 C1_5 1_555 1_555
C4_5 C2_5 1_555 1_555
Zn2_3 N4_5 1_555 1_555
O3_3 Zn2_3 1_555 1_555
N8_5 Zn2_3 1_555 1_555
N10_5 N8_5 1_555 1_555
C10_5 N8_5 1_555 1_555
C12_5 N10_5 1_555 1_555
H7_5 C10_5 1_555 1_555
C13_5 C10_5 1_555 1_555
H9_5 C12_5 1_555 1_555
C16_5 C13_5 1_555 1_555
O6_5 C16_5 1_555 1_555
O8_3 C16_5 1_555 1_555
Zn6_3 O8_3 1_555 1_555
N4_5 C4_5 1_555 1_555
C12_5 C13_5 1_555 1_555
C3_5 N2_5 1_555 1_555
C6_5 C7_5 1_555 1_555
C7_5 C3_5 1_555 1_555
H2_5 C3_5 1_555 1_555
N6_5 C5_5 1_555 1_555
N7_5 C5_5 1_555 1_555
C8_5 C7_5 1_555 1_555
H4_5 N7_5 1_555 1_555
O4_5 C8_5 1_555 1_555
N3 N2_5 1_555 1_555
O7_3 C8_5 1_555 1_555
Zn5_3 O7_3 1_555 1_555
C6_5 N3 1_555 1_555
O1_3 Zn4 1_555 1_555
O2_3 Zn4 1_555 1_555
C3_6 N2_6 1_555 1_555
C6_6 C7_6 1_555 1_555
C7_6 C3_6 1_555 1_555
H2_6 C3_6 1_555 1_555
N6_6 C5_6 1_555 1_555
N7_6 C5_6 1_555 1_555
H3_4 C6_6 1_555 1_555
C8_6 C7_6 1_555 1_555
H4_6 N7_6 1_555 1_555
O4_6 C8_6 1_555 1_555
N3_2 N2_6 1_555 1_555
O7_4 C8_6 1_555 1_555
Zn5_4 O7_4 1_555 1_555
C6_6 N3_2 1_555 1_555
O1_4 Zn4_2 1_555 1_555
O2_4 Zn4_2 1_555 1_555
Zn3_4 N5_6 1_555 1_555
C9_6 N5_6 1_555 1_555
N11_6 N9_6 1_555 1_555
C11_6 N9_6 1_555 1_555
O5_4 Zn3_4 1_555 1_555
H6_6 C9_6 1_555 1_555
C14_6 N11_6 1_555 1_555
C15_6 C11_6 1_555 1_555
H8_6 C11_6 1_555 1_555
H10_6 C14_6 1_555 1_555
C17_6 C15_6 1_555 1_555
O9_4 C17_6 1_555 1_555
O10_4 C17_6 1_555 1_555
Zn4_4 O9_4 1_555 1_555
Zn3_4 N11_6 1_555 1_555
C14_6 C15_6 1_555 1_555
O10_4 Zn4_4 1_555 1_555
N1_6 C1_6 1_555 1_555
C1_6 H1_6 1_555 1_555
C2_6 N1_6 1_555 1_555
N4_6 C1_6 1_555 1_555
C4_6 C2_6 1_555 1_555
Zn2_4 N4_6 1_555 1_555
O3_4 Zn2_4 1_555 1_555
N8_6 Zn2_4 1_555 1_555
N10_6 N8_6 1_555 1_555
C10_6 N8_6 1_555 1_555
C12_6 N10_6 1_555 1_555
H7_6 C10_6 1_555 1_555
C13_6 C10_6 1_555 1_555
H9_6 C12_6 1_555 1_555
C16_6 C13_6 1_555 1_555
O6_6 C16_6 1_555 1_555
O8_4 C16_6 1_555 1_555
Zn6_4 O8_4 1_555 1_555
N4_6 C4_6 1_555 1_555
C12_6 C13_6 1_555 1_555
Zn4_3 N1_7 1_555 1_555
N1_7 C1_7 1_555 1_555
N2_7 Zn4_3 1_555 1_555
C1_7 H1_7 1_555 1_555
C2_7 N1_7 1_555 1_555
C3_7 N2_7 1_555 1_555
N4_7 C1_7 1_555 1_555
C4_7 C2_7 1_555 1_555
C5_7 C2_7 1_555 1_555
C6_7 C7_7 1_555 1_555
C7_7 C3_7 1_555 1_555
H2_7 C3_7 1_555 1_555
Zn5_3 N4_7 1_555 1_555
N5_7 C4_7 1_555 1_555
N6_7 C5_7 1_555 1_555
N7_7 C5_7 1_555 1_555
C8_7 C7_7 1_555 1_555
N8_7 Zn5_3 1_555 1_555
N9_7 Zn5_3 1_555 1_555
Zn6_4 N5_7 1_555 1_555
C9_7 N5_7 1_555 1_555
H4_7 N7_7 1_555 1_555
H5_7 N7_7 1_555 1_555
O4_7 C8_7 1_555 1_555
N10_7 N8_7 1_555 1_555
C10_7 N8_7 1_555 1_555
N11_7 N9_7 1_555 1_555
C11_7 N9_7 1_555 1_555
H6_7 C9_7 1_555 1_555
C12_7 N10_7 1_555 1_555
H7_7 C10_7 1_555 1_555
C13_7 C10_7 1_555 1_555
C14_7 N11_7 1_555 1_555
C15_7 C11_7 1_555 1_555
H8_7 C11_7 1_555 1_555
H9_7 C12_7 1_555 1_555
C16_7 C13_7 1_555 1_555
H10_7 C14_7 1_555 1_555
C17_7 C15_7 1_555 1_555
O6_7 C16_7 1_555 1_555
N3_3 N2_7 1_555 1_555
O3_3 C8_7 1_555 1_555
O5_4 C16_7 1_555 1_555
O1_3 C17_7 1_555 1_555
O2_3 C17_7 1_555 1_555
N4_7 C4_7 1_555 1_555
C6_7 N3_3 1_555 1_555
N6_7 C9_7 1_555 1_555
Zn6_4 N10_7 1_555 1_555
Zn6_4 N11_7 1_555 1_555
C12_7 C13_7 1_555 1_555
C14_7 C15_7 1_555 1_555
Zn4_4 N1_8 1_555 1_555
N1_8 C1_8 1_555 1_555
N2_8 Zn4_4 1_555 1_555
C1_8 H1_8 1_555 1_555
C2_8 N1_8 1_555 1_555
C3_8 N2_8 1_555 1_555
N4_8 C1_8 1_555 1_555
C4_8 C2_8 1_555 1_555
C5_8 C2_8 1_555 1_555
C6_8 C7_8 1_555 1_555
C7_8 C3_8 1_555 1_555
H2_8 C3_8 1_555 1_555
Zn5_4 N4_8 1_555 1_555
N5_8 C4_8 1_555 1_555
N6_8 C5_8 1_555 1_555
N7_8 C5_8 1_555 1_555
H3_6 C6_8 1_555 1_555
C8_8 C7_8 1_555 1_555
N8_8 Zn5_4 1_555 1_555
N9_8 Zn5_4 1_555 1_555
Zn6_3 N5_8 1_555 1_555
C9_8 N5_8 1_555 1_555
H4_8 N7_8 1_555 1_555
H5_8 N7_8 1_555 1_555
O4_8 C8_8 1_555 1_555
N10_8 N8_8 1_555 1_555
C10_8 N8_8 1_555 1_555
N11_8 N9_8 1_555 1_555
C11_8 N9_8 1_555 1_555
H6_8 C9_8 1_555 1_555
C12_8 N10_8 1_555 1_555
H7_8 C10_8 1_555 1_555
C13_8 C10_8 1_555 1_555
C14_8 N11_8 1_555 1_555
C15_8 C11_8 1_555 1_555
H8_8 C11_8 1_555 1_555
H9_8 C12_8 1_555 1_555
C16_8 C13_8 1_555 1_555
H10_8 C14_8 1_555 1_555
C17_8 C15_8 1_555 1_555
O6_8 C16_8 1_555 1_555
N3_4 N2_8 1_555 1_555
O3_4 C8_8 1_555 1_555
O5_3 C16_8 1_555 1_555
O1_4 C17_8 1_555 1_555
O2_4 C17_8 1_555 1_555
N4_8 C4_8 1_555 1_555
C6_8 N3_4 1_555 1_555
N6_8 C9_8 1_555 1_555
Zn6_3 N10_8 1_555 1_555
Zn6_3 N11_8 1_555 1_555
C12_8 C13_8 1_555 1_555
C14_8 C15_8 1_555 1_555

#END
