
###############################################################################
#
# This file contains modified crystal structure data generated from the
# MOF subset of the Cambridge Structural Database (CSD) v543 
# hosted by the Cambridge Crystallographic Data Centre (CCDC).
#
# This work is licensed under the Creative Commons
# Attribution-NonCommercial-ShareAlike 4.0 International License.
# To view a copy of this license, visit
# http://creativecommons.org/licenses/by-nc-sa/4.0/
# or send a letter to
# Creative Commons, PO Box 1866, Mountain View, CA 94042, USA.
#
# CIF created using the CSD Python API on 29 September 2022
# The structure has been converted into the P1 space group
# The structure has a 3D framework
# The original CSD entry CUDQEZ is in the monoclinic crystal system
# The framework has been calculated to contain at least 10.0% void space
# The void calculation uses a probe of radius 1.32A, grid spacing 0.4
# The framework is charged, counterions have been retained in the structure
#
###############################################################################

data_CUDQEZ
_chemical_formula_moiety         '(C136 H80 N88 O48 Zn20 8-)n'
_symmetry_cell_setting           triclinic
_symmetry_space_group_name_H-M   'P 1'
_symmetry_Int_Tables_number      1
_space_group_name_Hall           'P 1'
loop_
_symmetry_equiv_pos_site_id
_symmetry_equiv_pos_as_xyz
1 x,y,z
_cell_length_a                   17.7098(6)
_cell_length_b                   13.6266(4)
_cell_length_c                   31.9688(8)
_cell_angle_alpha                90
_cell_angle_beta                 95.170(3)
_cell_angle_gamma                90
_cell_volume                     7683.46
loop_
_atom_site_label
_atom_site_type_symbol
_atom_site_fract_x
_atom_site_fract_y
_atom_site_fract_z
N2 N 0.08688(13) 0.03730(16) 0.02673(7)
N5 N 0.04279(14) 0.11206(16) 0.00972(6)
O2 O 0.18635(16) 0.33542(17) 0.05838(7)
C1 C 0.2066(2) 0.2456(3) 0.05921(10)
N10 N 0.01265(18) 0.0461(3) 0.19133(9)
C5 C 0.08037(19) 0.1954(2) 0.01806(8)
H3 H 0.0629 0.2576 0.0101
O6 O 0.26795(16) 0.2168(2) 0.07661(10)
C10 C 0.14989(18) 0.1755(2) 0.04055(8)
C11 C 0.03174(19) 0.0062(3) 0.15459(9)
C12 C 0.15062(17) 0.0755(2) 0.04498(9)
H6 H 0.1900 0.0395 0.0588
N11 N 0.10412(17) 0.0017(3) 0.14892(9)
H8 H 0.1373 0.0235 0.1680
Zn6 Zn 0.23760(2) 0.40551(2) 0.105526(10)
Zn1 Zn 0.03727(2) 0.91091(2) 0.038955(10)
H9 H 0.1184 0.9771 0.1261
O7 O 0.07583(18) 0.7710(2) 0.04093(8)
O9 O 0.14166(18) 0.86289(18) 0.08662(9)
Zn3 Zn 0.77313(2) 0.03644(3) 0.191775(10)
N1 N 0.71524(17) 0.09309(18) 0.14009(8)
N4 N 0.69094(16) 0.03772(18) 0.10596(8)
O1 O 0.57583(18) 0.2710(2) 0.04093(8)
O4 O 0.64166(18) 0.36289(18) 0.08662(9)
N6 N 0.88061(16) 0.0159(2) 0.17552(7)
C4 C 0.6957(2) 0.1858(2) 0.13191(10)
H2 H 0.7069 0.2386 0.1498
C6 C 0.6546(2) 0.0964(2) 0.07783(10)
H4 H 0.6315 0.0766 0.0519
C8 C 0.6565(2) 0.1914(2) 0.09283(10)
C16 C 0.9408(2) 0.0496(3) 0.19914(10)
H10 H 0.9310 0.0793 0.2243
C17 C 0.6237(2) 0.2809(3) 0.07213(11)
Zn4 Zn 0.53727(2) 0.41091(2) 0.038955(10)
O10 O 0.7728(2) 0.1558(2) 0.22333(8)
Zn5 Zn 0.96273(2) 0.08909(2) 0.961045(10)
Zn2 Zn 0.73760(2) 0.90551(2) 0.105526(10)
N3 N 0.73540(17) 0.89902(19) 0.19744(7)
O3 O 0.71236(19) 0.5672(2) 0.21913(9)
C2 C 0.89438(16) 0.9097(2) 0.07841(8)
H1 H 0.8754 0.8803 0.0534
C3 C 0.89869(17) 0.9761(2) 0.13883(8)
N7 N 0.84940(14) 0.93483(18) 0.10814(7)
N8 N 0.96790(14) 0.92922(19) 0.08664(7)
N9 N 0.72188(18) 0.84621(19) 0.16115(7)
O5 O 0.7272(2) 0.6558(2) 0.27667(8)
C7 C 0.7120(2) 0.7527(2) 0.17122(10)
H5 H 0.7007 0.7024 0.1520
C9 C 0.97141(17) 0.9709(2) 0.12624(8)
C13 C 0.7209(2) 0.7412(2) 0.21421(9)
C14 C 0.7357(2) 0.8357(3) 0.22913(10)
H7 H 0.7445 0.8524 0.2574
C15 C 0.7199(2) 0.6460(3) 0.23741(10)
Zn7 Zn 0.72687(2) 0.53644(3) 0.308225(10)
O8 O 0.68635(16) 0.83542(17) 0.05838(7)
N12 N 0.95721(14) 0.88794(16) 0.99028(6)
Zn3_2 Zn 0.22687(2) 0.03644(3) 0.308225(10)
N1_2 N 0.28476(17) 0.09309(18) 0.35991(8)
N4_2 N 0.30906(16) 0.03772(18) 0.39404(8)
O1_2 O 0.42417(18) 0.2710(2) 0.45907(8)
O4_2 O 0.35834(18) 0.36289(18) 0.41338(9)
N6_2 N 0.11939(16) 0.0159(2) 0.32448(7)
C4_2 C 0.3043(2) 0.1858(2) 0.36809(10)
H2_2 H 0.2931 0.2386 0.3502
C6_2 C 0.3454(2) 0.0964(2) 0.42217(10)
H4_2 H 0.3685 0.0766 0.4481
C8_2 C 0.3435(2) 0.1914(2) 0.40717(10)
C16_2 C 0.0592(2) 0.0496(3) 0.30086(10)
H10_2 H 0.0690 0.0793 0.2757
C17_2 C 0.3763(2) 0.2809(3) 0.42787(11)
Zn4_2 Zn 0.46273(2) 0.41091(2) 0.461045(10)
Zn5_2 Zn 0.03727(2) 0.08909(2) 0.538955(10)
O10_2 O 0.2272(2) 0.1558(2) 0.27667(8)
Zn2_2 Zn 0.26240(2) 0.90551(2) 0.394474(10)
N3_2 N 0.26460(17) 0.89902(19) 0.30256(7)
O3_2 O 0.28764(19) 0.5672(2) 0.28087(9)
C2_2 C 0.10562(16) 0.9097(2) 0.42159(8)
H1_2 H 0.1246 0.8803 0.4466
C3_2 C 0.10131(17) 0.9761(2) 0.36117(8)
N7_2 N 0.15060(14) 0.93483(18) 0.39186(7)
N8_2 N 0.03210(14) 0.92922(19) 0.41336(7)
N9_2 N 0.27812(18) 0.84621(19) 0.33885(7)
O5_2 O 0.2728(2) 0.6558(2) 0.22333(8)
C7_2 C 0.2880(2) 0.7527(2) 0.32878(10)
H5_2 H 0.2993 0.7024 0.3480
C9_2 C 0.02859(17) 0.9709(2) 0.37376(8)
C13_2 C 0.2791(2) 0.7412(2) 0.28579(9)
C14_2 C 0.2643(2) 0.8357(3) 0.27087(10)
H7_2 H 0.2555 0.8524 0.2426
C15_2 C 0.2801(2) 0.6460(3) 0.26259(10)
Zn7_2 Zn 0.27313(2) 0.53644(3) 0.191775(10)
N12_2 N 0.04279(14) 0.88794(16) 0.50972(6)
O8_2 O 0.31365(16) 0.83542(17) 0.44162(7)
N2_2 N 0.91312(13) 0.03730(16) 0.47327(7)
N5_2 N 0.95721(14) 0.11206(16) 0.49028(6)
O2_2 O 0.81365(16) 0.33542(17) 0.44162(7)
C1_2 C 0.7934(2) 0.2456(3) 0.44079(10)
N10_2 N 0.98735(18) 0.0461(3) 0.30867(9)
C5_2 C 0.91963(19) 0.1954(2) 0.48194(8)
H3_2 H 0.9371 0.2576 0.4899
O6_2 O 0.73205(16) 0.2168(2) 0.42339(10)
C10_2 C 0.85011(18) 0.1755(2) 0.45945(8)
C11_2 C 0.96826(19) 0.0062(3) 0.34541(9)
C12_2 C 0.84938(17) 0.0755(2) 0.45502(9)
H6_2 H 0.8100 0.0395 0.4412
N11_2 N 0.89588(17) 0.0017(3) 0.35108(9)
H8_2 H 0.8627 0.0235 0.3320
Zn6_2 Zn 0.76240(2) 0.40551(2) 0.394474(10)
Zn1_2 Zn 0.96273(2) 0.91091(2) 0.461045(10)
H9_2 H 0.8816 0.9771 0.3739
O7_2 O 0.92417(18) 0.7710(2) 0.45907(8)
O9_2 O 0.85834(18) 0.86289(18) 0.41338(9)
N1_3 N 0.21524(17) 0.59309(18) 0.14009(8)
N2_3 N 0.58688(13) 0.53730(16) 0.02673(7)
N3_3 N 0.23540(17) 0.39902(19) 0.19744(7)
N4_3 N 0.19094(16) 0.53772(18) 0.10596(8)
N5_3 N 0.54279(14) 0.61206(16) 0.00972(6)
O3_3 O 0.21236(19) 0.0672(2) 0.21913(9)
C1_3 C 0.7066(2) 0.7456(3) 0.05921(10)
C2_3 C 0.39438(16) 0.4097(2) 0.07841(8)
H1_3 H 0.3754 0.3803 0.0534
C3_3 C 0.39869(17) 0.4761(2) 0.13883(8)
N6_3 N 0.38061(16) 0.5159(2) 0.17552(7)
N7_3 N 0.34940(14) 0.43483(18) 0.10814(7)
N8_3 N 0.46790(14) 0.42922(19) 0.08664(7)
N9_3 N 0.22188(18) 0.34621(19) 0.16115(7)
C4_3 C 0.1957(2) 0.6858(2) 0.13191(10)
H2_3 H 0.2069 0.7386 0.1498
N10_3 N 0.51265(18) 0.5461(3) 0.19133(9)
C5_3 C 0.58037(19) 0.6954(2) 0.01806(8)
H3_3 H 0.5629 0.7576 0.0101
O6_3 O 0.76795(16) 0.7168(2) 0.07661(10)
C6_3 C 0.1546(2) 0.5964(2) 0.07783(10)
H4_3 H 0.1315 0.5766 0.0519
C7_3 C 0.2120(2) 0.2527(2) 0.17122(10)
H5_3 H 0.2007 0.2024 0.1520
C8_3 C 0.1565(2) 0.6914(2) 0.09283(10)
C9_3 C 0.47141(17) 0.4709(2) 0.12624(8)
C10_3 C 0.64989(18) 0.6755(2) 0.04055(8)
C11_3 C 0.53174(19) 0.5062(3) 0.15459(9)
C12_3 C 0.65062(17) 0.5755(2) 0.04498(9)
H6_3 H 0.6900 0.5395 0.0588
C13_3 C 0.2209(2) 0.2412(2) 0.21421(9)
C14_3 C 0.2357(2) 0.3357(3) 0.22913(10)
H7_3 H 0.2445 0.3524 0.2574
C15_3 C 0.2199(2) 0.1460(3) 0.23741(10)
N11_3 N 0.60412(17) 0.5017(3) 0.14892(9)
H8_3 H 0.6373 0.5235 0.1680
H9_3 H 0.6184 0.4771 0.1261
C16_3 C 0.4408(2) 0.5496(3) 0.19914(10)
H10_3 H 0.4310 0.5793 0.2243
C17_3 C 0.1237(2) 0.7809(3) 0.07213(11)
Zn5_3 Zn 0.46273(2) 0.58909(2) 0.961045(10)
N12_3 N 0.45721(14) 0.38794(16) 0.99028(6)
N1_4 N 0.78476(17) 0.59309(18) 0.35991(8)
N2_4 N 0.41312(13) 0.53730(16) 0.47327(7)
N3_4 N 0.76460(17) 0.39902(19) 0.30256(7)
N4_4 N 0.80906(16) 0.53772(18) 0.39404(8)
N5_4 N 0.45721(14) 0.61206(16) 0.49028(6)
O3_4 O 0.78764(19) 0.0672(2) 0.28087(9)
C1_4 C 0.2934(2) 0.7456(3) 0.44079(10)
C2_4 C 0.60562(16) 0.4097(2) 0.42159(8)
H1_4 H 0.6246 0.3803 0.4466
C3_4 C 0.60131(17) 0.4761(2) 0.36117(8)
N6_4 N 0.61939(16) 0.5159(2) 0.32448(7)
N7_4 N 0.65060(14) 0.43483(18) 0.39186(7)
N8_4 N 0.53210(14) 0.42922(19) 0.41336(7)
N9_4 N 0.77812(18) 0.34621(19) 0.33885(7)
C4_4 C 0.8043(2) 0.6858(2) 0.36809(10)
H2_4 H 0.7931 0.7386 0.3502
N10_4 N 0.48735(18) 0.5461(3) 0.30867(9)
C5_4 C 0.41963(19) 0.6954(2) 0.48194(8)
H3_4 H 0.4371 0.7576 0.4899
O6_4 O 0.23205(16) 0.7168(2) 0.42339(10)
C6_4 C 0.8454(2) 0.5964(2) 0.42217(10)
H4_4 H 0.8685 0.5766 0.4481
C7_4 C 0.7880(2) 0.2527(2) 0.32878(10)
H5_4 H 0.7993 0.2024 0.3480
C8_4 C 0.8435(2) 0.6914(2) 0.40717(10)
C9_4 C 0.52859(17) 0.4709(2) 0.37376(8)
C10_4 C 0.35011(18) 0.6755(2) 0.45945(8)
C11_4 C 0.46826(19) 0.5062(3) 0.34541(9)
C12_4 C 0.34938(17) 0.5755(2) 0.45502(9)
H6_4 H 0.3100 0.5395 0.4412
C13_4 C 0.7791(2) 0.2412(2) 0.28579(9)
C14_4 C 0.7643(2) 0.3357(3) 0.27087(10)
H7_4 H 0.7555 0.3524 0.2426
C15_4 C 0.7801(2) 0.1460(3) 0.26259(10)
N11_4 N 0.39588(17) 0.5017(3) 0.35108(9)
H8_4 H 0.3627 0.5235 0.3320
H9_4 H 0.3816 0.4771 0.3739
C16_4 C 0.5592(2) 0.5496(3) 0.30086(10)
H10_4 H 0.5690 0.5793 0.2757
C17_4 C 0.8763(2) 0.7809(3) 0.42787(11)
Zn5_4 Zn 0.53727(2) 0.58909(2) 0.538955(10)
N12_4 N 0.54279(14) 0.38794(16) 0.50972(6)
Zn2_3 Zn 0.26240(2) 0.09449(2) 0.894474(10)
N3_5 N 0.26460(17) 0.10098(19) 0.80256(7)
O3_5 O 0.28764(19) 0.4328(2) 0.78087(9)
C2_5 C 0.10562(16) 0.0903(2) 0.92159(8)
H1_5 H 0.1246 0.1197 0.9466
C3_5 C 0.10131(17) 0.0239(2) 0.86117(8)
N7_5 N 0.15060(14) 0.06517(18) 0.89186(7)
N8_5 N 0.03210(14) 0.07078(19) 0.91336(7)
N9_5 N 0.27812(18) 0.15379(19) 0.83885(7)
O5_3 O 0.2728(2) 0.3442(2) 0.72333(8)
C7_5 C 0.2880(2) 0.2473(2) 0.82878(10)
H5_5 H 0.2993 0.2976 0.8480
C9_5 C 0.02859(17) 0.0291(2) 0.87376(8)
C13_5 C 0.2791(2) 0.2588(2) 0.78579(9)
C14_5 C 0.2643(2) 0.1643(3) 0.77087(10)
H7_5 H 0.2555 0.1476 0.7426
C15_5 C 0.2801(2) 0.3540(3) 0.76259(10)
Zn7_3 Zn 0.27313(2) 0.46356(3) 0.691775(10)
O8_3 O 0.31365(16) 0.16458(17) 0.94162(7)
Zn3_3 Zn 0.22687(2) 0.96356(3) 0.808225(10)
N1_5 N 0.28476(17) 0.90691(18) 0.85991(8)
N4_5 N 0.30906(16) 0.96228(18) 0.89404(8)
O1_3 O 0.42417(18) 0.7290(2) 0.95907(8)
O4_3 O 0.35834(18) 0.63711(18) 0.91338(9)
N6_5 N 0.11939(16) 0.9841(2) 0.82448(7)
C4_5 C 0.3043(2) 0.8142(2) 0.86809(10)
H2_5 H 0.2931 0.7614 0.8502
C6_5 C 0.3454(2) 0.9036(2) 0.92217(10)
H4_5 H 0.3685 0.9234 0.9481
C8_5 C 0.3435(2) 0.8086(2) 0.90717(10)
C16_5 C 0.0592(2) 0.9504(3) 0.80086(10)
H10_5 H 0.0690 0.9207 0.7757
C17_5 C 0.3763(2) 0.7191(3) 0.92787(11)
O10_3 O 0.2272(2) 0.8442(2) 0.77667(8)
H9_5 H 0.8816 0.0229 0.8739
O7_3 O 0.92417(18) 0.2290(2) 0.95907(8)
O9_3 O 0.85834(18) 0.13711(18) 0.91338(9)
N2_5 N 0.91312(13) 0.96270(16) 0.97327(7)
O2_3 O 0.81365(16) 0.66458(17) 0.94162(7)
C1_5 C 0.7934(2) 0.7544(3) 0.94079(10)
N10_5 N 0.98735(18) 0.9539(3) 0.80867(9)
C5_5 C 0.91963(19) 0.8046(2) 0.98194(8)
H3_5 H 0.9371 0.7424 0.9899
O6_5 O 0.73205(16) 0.7832(2) 0.92339(10)
C10_5 C 0.85011(18) 0.8245(2) 0.95945(8)
C11_5 C 0.96826(19) 0.9938(3) 0.84541(9)
C12_5 C 0.84938(17) 0.9245(2) 0.95502(9)
H6_5 H 0.8100 0.9605 0.9412
N11_5 N 0.89588(17) 0.9983(3) 0.85108(9)
H8_5 H 0.8627 0.9765 0.8320
Zn6_3 Zn 0.76240(2) 0.59449(2) 0.894474(10)
H9_6 H 0.1184 0.0229 0.6261
O7_4 O 0.07583(18) 0.2290(2) 0.54093(8)
O9_4 O 0.14166(18) 0.13711(18) 0.58662(9)
N2_6 N 0.08688(13) 0.96270(16) 0.52673(7)
O2_4 O 0.18635(16) 0.66458(17) 0.55838(7)
C1_6 C 0.2066(2) 0.7544(3) 0.55921(10)
N10_6 N 0.01265(18) 0.9539(3) 0.69133(9)
C5_6 C 0.08037(19) 0.8046(2) 0.51806(8)
H3_6 H 0.0629 0.7424 0.5101
O6_6 O 0.26795(16) 0.7832(2) 0.57661(10)
C10_6 C 0.14989(18) 0.8245(2) 0.54055(8)
C11_6 C 0.03174(19) 0.9938(3) 0.65459(9)
C12_6 C 0.15062(17) 0.9245(2) 0.54498(9)
H6_6 H 0.1900 0.9605 0.5588
N11_6 N 0.10412(17) 0.9983(3) 0.64892(9)
H8_6 H 0.1373 0.9765 0.6680
Zn6_4 Zn 0.23760(2) 0.59449(2) 0.605526(10)
Zn2_4 Zn 0.73760(2) 0.09449(2) 0.605526(10)
N3_6 N 0.73540(17) 0.10098(19) 0.69744(7)
O3_6 O 0.71236(19) 0.4328(2) 0.71913(9)
C2_6 C 0.89438(16) 0.0903(2) 0.57841(8)
H1_6 H 0.8754 0.1197 0.5534
C3_6 C 0.89869(17) 0.0239(2) 0.63883(8)
N7_6 N 0.84940(14) 0.06517(18) 0.60814(7)
N8_6 N 0.96790(14) 0.07078(19) 0.58664(7)
N9_6 N 0.72188(18) 0.15379(19) 0.66115(7)
O5_4 O 0.7272(2) 0.3442(2) 0.77667(8)
C7_6 C 0.7120(2) 0.2473(2) 0.67122(10)
H5_6 H 0.7007 0.2976 0.6520
C9_6 C 0.97141(17) 0.0291(2) 0.62624(8)
C13_6 C 0.7209(2) 0.2588(2) 0.71421(9)
C14_6 C 0.7357(2) 0.1643(3) 0.72913(10)
H7_6 H 0.7445 0.1476 0.7574
C15_6 C 0.7199(2) 0.3540(3) 0.73741(10)
Zn7_4 Zn 0.72687(2) 0.46356(3) 0.808225(10)
O8_4 O 0.68635(16) 0.16458(17) 0.55838(7)
Zn3_4 Zn 0.77313(2) 0.96356(3) 0.691775(10)
N1_6 N 0.71524(17) 0.90691(18) 0.64009(8)
N4_6 N 0.69094(16) 0.96228(18) 0.60596(8)
O1_4 O 0.57583(18) 0.7290(2) 0.54093(8)
O4_4 O 0.64166(18) 0.63711(18) 0.58662(9)
N6_6 N 0.88061(16) 0.9841(2) 0.67552(7)
C4_6 C 0.6957(2) 0.8142(2) 0.63191(10)
H2_6 H 0.7069 0.7614 0.6498
C6_6 C 0.6546(2) 0.9036(2) 0.57783(10)
H4_6 H 0.6315 0.9234 0.5519
C8_6 C 0.6565(2) 0.8086(2) 0.59283(10)
C16_6 C 0.9408(2) 0.9504(3) 0.69914(10)
H10_6 H 0.9310 0.9207 0.7243
C17_6 C 0.6237(2) 0.7191(3) 0.57213(11)
O10_4 O 0.7728(2) 0.8442(2) 0.72333(8)
N1_7 N 0.78476(17) 0.40691(18) 0.85991(8)
N2_7 N 0.41312(13) 0.46270(16) 0.97327(7)
N3_7 N 0.76460(17) 0.60098(19) 0.80256(7)
N4_7 N 0.80906(16) 0.46228(18) 0.89404(8)
O3_7 O 0.78764(19) 0.9328(2) 0.78087(9)
C1_7 C 0.2934(2) 0.2544(3) 0.94079(10)
C2_7 C 0.60562(16) 0.5903(2) 0.92159(8)
H1_7 H 0.6246 0.6197 0.9466
C3_7 C 0.60131(17) 0.5239(2) 0.86117(8)
N6_7 N 0.61939(16) 0.4841(2) 0.82448(7)
N7_7 N 0.65060(14) 0.56517(18) 0.89186(7)
N8_7 N 0.53210(14) 0.57078(19) 0.91336(7)
N9_7 N 0.77812(18) 0.65379(19) 0.83885(7)
C4_7 C 0.8043(2) 0.3142(2) 0.86809(10)
H2_7 H 0.7931 0.2614 0.8502
N10_7 N 0.48735(18) 0.4539(3) 0.80867(9)
C5_7 C 0.41963(19) 0.3046(2) 0.98194(8)
H3_7 H 0.4371 0.2424 0.9899
O6_7 O 0.23205(16) 0.2832(2) 0.92339(10)
C6_7 C 0.8454(2) 0.4036(2) 0.92217(10)
H4_7 H 0.8685 0.4234 0.9481
C7_7 C 0.7880(2) 0.7473(2) 0.82878(10)
H5_7 H 0.7993 0.7976 0.8480
C8_7 C 0.8435(2) 0.3086(2) 0.90717(10)
C9_7 C 0.52859(17) 0.5291(2) 0.87376(8)
C10_7 C 0.35011(18) 0.3245(2) 0.95945(8)
C11_7 C 0.46826(19) 0.4938(3) 0.84541(9)
C12_7 C 0.34938(17) 0.4245(2) 0.95502(9)
H6_7 H 0.3100 0.4605 0.9412
C13_7 C 0.7791(2) 0.7588(2) 0.78579(9)
C14_7 C 0.7643(2) 0.6643(3) 0.77087(10)
H7_7 H 0.7555 0.6476 0.7426
C15_7 C 0.7801(2) 0.8540(3) 0.76259(10)
N11_7 N 0.39588(17) 0.4983(3) 0.85108(9)
H8_7 H 0.3627 0.4765 0.8320
H9_7 H 0.3816 0.5229 0.8739
C16_7 C 0.5592(2) 0.4504(3) 0.80086(10)
H10_7 H 0.5690 0.4207 0.7757
C17_7 C 0.8763(2) 0.2191(3) 0.92787(11)
N1_8 N 0.21524(17) 0.40691(18) 0.64009(8)
N2_8 N 0.58688(13) 0.46270(16) 0.52673(7)
N3_8 N 0.23540(17) 0.60098(19) 0.69744(7)
N4_8 N 0.19094(16) 0.46228(18) 0.60596(8)
O3_8 O 0.21236(19) 0.9328(2) 0.71913(9)
C1_8 C 0.7066(2) 0.2544(3) 0.55921(10)
C2_8 C 0.39438(16) 0.5903(2) 0.57841(8)
H1_8 H 0.3754 0.6197 0.5534
C3_8 C 0.39869(17) 0.5239(2) 0.63883(8)
N6_8 N 0.38061(16) 0.4841(2) 0.67552(7)
N7_8 N 0.34940(14) 0.56517(18) 0.60814(7)
N8_8 N 0.46790(14) 0.57078(19) 0.58664(7)
N9_8 N 0.22188(18) 0.65379(19) 0.66115(7)
C4_8 C 0.1957(2) 0.3142(2) 0.63191(10)
H2_8 H 0.2069 0.2614 0.6498
N10_8 N 0.51265(18) 0.4539(3) 0.69133(9)
C5_8 C 0.58037(19) 0.3046(2) 0.51806(8)
H3_8 H 0.5629 0.2424 0.5101
O6_8 O 0.76795(16) 0.2832(2) 0.57661(10)
C6_8 C 0.1546(2) 0.4036(2) 0.57783(10)
H4_8 H 0.1315 0.4234 0.5519
C7_8 C 0.2120(2) 0.7473(2) 0.67122(10)
H5_8 H 0.2007 0.7976 0.6520
C8_8 C 0.1565(2) 0.3086(2) 0.59283(10)
C9_8 C 0.47141(17) 0.5291(2) 0.62624(8)
C10_8 C 0.64989(18) 0.3245(2) 0.54055(8)
C11_8 C 0.53174(19) 0.4938(3) 0.65459(9)
C12_8 C 0.65062(17) 0.4245(2) 0.54498(9)
H6_8 H 0.6900 0.4605 0.5588
C13_8 C 0.2209(2) 0.7588(2) 0.71421(9)
C14_8 C 0.2357(2) 0.6643(3) 0.72913(10)
H7_8 H 0.2445 0.6476 0.7574
C15_8 C 0.2199(2) 0.8540(3) 0.73741(10)
N11_8 N 0.60412(17) 0.4983(3) 0.64892(9)
H8_8 H 0.6373 0.4765 0.6680
H9_8 H 0.6184 0.5229 0.6261
C16_8 C 0.4408(2) 0.4504(3) 0.69914(10)
H10_8 H 0.4310 0.4207 0.7243
C17_8 C 0.1237(2) 0.2191(3) 0.57213(11)
loop_
_geom_bond_atom_site_label_1
_geom_bond_atom_site_label_2
_geom_bond_site_symmetry_1
_geom_bond_site_symmetry_2
N2 N5 1_555 1_555
N5 C5 1_555 1_555
O2 C1 1_555 1_555
C1 O6 1_555 1_555
N10 C11 1_555 1_555
C5 H3 1_555 1_555
C10 C1 1_555 1_555
C12 N2 1_555 1_555
H6 C12 1_555 1_555
N11 C11 1_555 1_555
H8 N11 1_555 1_555
Zn6 O2 1_555 1_555
C5 C10 1_555 1_555
C10 C12 1_555 1_555
O7 Zn1 1_555 1_555
O9 Zn1 1_555 1_555
Zn3 N1 1_555 1_555
N1 N4 1_555 1_555
N4 C6 1_555 1_555
O1 C17 1_555 1_555
O4 C17 1_555 1_555
N6 Zn3 1_555 1_555
C4 N1 1_555 1_555
H2 C4 1_555 1_555
C6 H4 1_555 1_555
C8 C4 1_555 1_555
C16 N6 1_555 1_555
H10 C16 1_555 1_555
C17 C8 1_555 1_555
Zn4 O1 1_555 1_555
O10 Zn3 1_555 1_555
O4 Zn4 1_555 1_555
C6 C8 1_555 1_555
O3 C15 1_555 1_555
C2 H1 1_555 1_555
N7 Zn2 1_555 1_555
N9 Zn2 1_555 1_555
O5 C15 1_555 1_555
C7 N9 1_555 1_555
H5 C7 1_555 1_555
C9 C3 1_555 1_555
C13 C7 1_555 1_555
C14 N3 1_555 1_555
H7 C14 1_555 1_555
C15 C13 1_555 1_555
Zn7 O5 1_555 1_555
O8 Zn2 1_555 1_555
N3 N9 1_555 1_555
C2 N7 1_555 1_555
C2 N8 1_555 1_555
C3 N7 1_555 1_555
N8 C9 1_555 1_555
C13 C14 1_555 1_555
Zn3_2 N1_2 1_555 1_555
N1_2 N4_2 1_555 1_555
N4_2 C6_2 1_555 1_555
O1_2 C17_2 1_555 1_555
O4_2 C17_2 1_555 1_555
N6_2 Zn3_2 1_555 1_555
C4_2 N1_2 1_555 1_555
H2_2 C4_2 1_555 1_555
C6_2 H4_2 1_555 1_555
C8_2 C4_2 1_555 1_555
C16_2 N6_2 1_555 1_555
H10_2 C16_2 1_555 1_555
C17_2 C8_2 1_555 1_555
Zn4_2 O1_2 1_555 1_555
O10_2 Zn3_2 1_555 1_555
O4_2 Zn4_2 1_555 1_555
C6_2 C8_2 1_555 1_555
O3_2 C15_2 1_555 1_555
C2_2 H1_2 1_555 1_555
N7_2 Zn2_2 1_555 1_555
N9_2 Zn2_2 1_555 1_555
O5_2 C15_2 1_555 1_555
C7_2 N9_2 1_555 1_555
H5_2 C7_2 1_555 1_555
C9_2 C3_2 1_555 1_555
C13_2 C7_2 1_555 1_555
C14_2 N3_2 1_555 1_555
H7_2 C14_2 1_555 1_555
C15_2 C13_2 1_555 1_555
Zn7_2 O5_2 1_555 1_555
O8_2 Zn2_2 1_555 1_555
N3_2 N9_2 1_555 1_555
C2_2 N7_2 1_555 1_555
C2_2 N8_2 1_555 1_555
C3_2 N7_2 1_555 1_555
N8_2 C9_2 1_555 1_555
C13_2 C14_2 1_555 1_555
N2_2 N5_2 1_555 1_555
N5_2 C5_2 1_555 1_555
O2_2 C1_2 1_555 1_555
C1_2 O6_2 1_555 1_555
N10_2 C11_2 1_555 1_555
C5_2 H3_2 1_555 1_555
C10_2 C1_2 1_555 1_555
C12_2 N2_2 1_555 1_555
H6_2 C12_2 1_555 1_555
N11_2 C11_2 1_555 1_555
H8_2 N11_2 1_555 1_555
Zn6_2 O2_2 1_555 1_555
C5_2 C10_2 1_555 1_555
C10_2 C12_2 1_555 1_555
O7_2 Zn1_2 1_555 1_555
O9_2 Zn1_2 1_555 1_555
Zn4 N2_3 1_555 1_555
Zn6 N4_3 1_555 1_555
Zn7_2 N1_3 1_555 1_555
N1_3 N4_3 1_555 1_555
N2_3 N5_3 1_555 1_555
N3_3 Zn7_2 1_555 1_555
N4_3 C6_3 1_555 1_555
N5_3 C5_3 1_555 1_555
O7 C17_3 1_555 1_555
O8 C1_3 1_555 1_555
O3_3 C15_3 1_555 1_555
C1_3 O6_3 1_555 1_555
C2_3 H1_3 1_555 1_555
O9 C17_3 1_555 1_555
C3_3 N6_3 1_555 1_555
N6_3 Zn7_2 1_555 1_555
N7_3 Zn6 1_555 1_555
N8_3 Zn4 1_555 1_555
N9_3 Zn6 1_555 1_555
C4_3 N1_3 1_555 1_555
H2_3 C4_3 1_555 1_555
O10_2 C15_3 1_555 1_555
N10_3 C11_3 1_555 1_555
C5_3 H3_3 1_555 1_555
C6_3 H4_3 1_555 1_555
C7_3 N9_3 1_555 1_555
H5_3 C7_3 1_555 1_555
C8_3 C4_3 1_555 1_555
C9_3 C3_3 1_555 1_555
C10_3 C1_3 1_555 1_555
C11_3 C9_3 1_555 1_555
C12_3 N2_3 1_555 1_555
H6_3 C12_3 1_555 1_555
C13_3 C7_3 1_555 1_555
C14_3 N3_3 1_555 1_555
H7_3 C14_3 1_555 1_555
C15_3 C13_3 1_555 1_555
N11_3 C11_3 1_555 1_555
H8_3 N11_3 1_555 1_555
H9_3 N11_3 1_555 1_555
C16_3 N6_3 1_555 1_555
H10_3 C16_3 1_555 1_555
C17_3 C8_3 1_555 1_555
N3_3 N9_3 1_555 1_555
C2_3 N7_3 1_555 1_555
C2_3 N8_3 1_555 1_555
C3_3 N7_3 1_555 1_555
N8_3 C9_3 1_555 1_555
N10_3 C16_3 1_555 1_555
C5_3 C10_3 1_555 1_555
C6_3 C8_3 1_555 1_555
C10_3 C12_3 1_555 1_555
C13_3 C14_3 1_555 1_555
Zn4_2 N2_4 1_555 1_555
Zn6_2 N4_4 1_555 1_555
Zn7 N1_4 1_555 1_555
N1_4 N4_4 1_555 1_555
N2_4 N5_4 1_555 1_555
N3_4 Zn7 1_555 1_555
N4_4 C6_4 1_555 1_555
N5_4 C5_4 1_555 1_555
O7_2 C17_4 1_555 1_555
O8_2 C1_4 1_555 1_555
O3_4 C15_4 1_555 1_555
C1_4 O6_4 1_555 1_555
C2_4 H1_4 1_555 1_555
O9_2 C17_4 1_555 1_555
C3_4 N6_4 1_555 1_555
N6_4 Zn7 1_555 1_555
N7_4 Zn6_2 1_555 1_555
N8_4 Zn4_2 1_555 1_555
N9_4 Zn6_2 1_555 1_555
C4_4 N1_4 1_555 1_555
H2_4 C4_4 1_555 1_555
O10 C15_4 1_555 1_555
N10_4 C11_4 1_555 1_555
C5_4 H3_4 1_555 1_555
C6_4 H4_4 1_555 1_555
C7_4 N9_4 1_555 1_555
H5_4 C7_4 1_555 1_555
C8_4 C4_4 1_555 1_555
C9_4 C3_4 1_555 1_555
C10_4 C1_4 1_555 1_555
C11_4 C9_4 1_555 1_555
C12_4 N2_4 1_555 1_555
H6_4 C12_4 1_555 1_555
C13_4 C7_4 1_555 1_555
C14_4 N3_4 1_555 1_555
H7_4 C14_4 1_555 1_555
C15_4 C13_4 1_555 1_555
N11_4 C11_4 1_555 1_555
H8_4 N11_4 1_555 1_555
H9_4 N11_4 1_555 1_555
C16_4 N6_4 1_555 1_555
H10_4 C16_4 1_555 1_555
C17_4 C8_4 1_555 1_555
Zn5_4 N5_4 1_555 1_555
N12_4 Zn4_2 1_555 1_555
N3_4 N9_4 1_555 1_555
C2_4 N7_4 1_555 1_555
C2_4 N8_4 1_555 1_555
C3_4 N7_4 1_555 1_555
N8_4 C9_4 1_555 1_555
N10_4 C16_4 1_555 1_555
C5_4 C10_4 1_555 1_555
C6_4 C8_4 1_555 1_555
C10_4 C12_4 1_555 1_555
C13_4 C14_4 1_555 1_555
O3_5 C15_5 1_555 1_555
C2_5 H1_5 1_555 1_555
N7_5 Zn2_3 1_555 1_555
N9_5 Zn2_3 1_555 1_555
O5_3 C15_5 1_555 1_555
C7_5 N9_5 1_555 1_555
H5_5 C7_5 1_555 1_555
C9_5 C3_5 1_555 1_555
C13_5 C7_5 1_555 1_555
C14_5 N3_5 1_555 1_555
H7_5 C14_5 1_555 1_555
C15_5 C13_5 1_555 1_555
Zn7_3 O5_3 1_555 1_555
O8_3 Zn2_3 1_555 1_555
N3_5 N9_5 1_555 1_555
C2_5 N7_5 1_555 1_555
C2_5 N8_5 1_555 1_555
C3_5 N7_5 1_555 1_555
N8_5 C9_5 1_555 1_555
C13_5 C14_5 1_555 1_555
Zn3_3 N1_5 1_555 1_555
N1_5 N4_5 1_555 1_555
N4_5 C6_5 1_555 1_555
O1_3 C17_5 1_555 1_555
O4_3 C17_5 1_555 1_555
N6_5 Zn3_3 1_555 1_555
C4_5 N1_5 1_555 1_555
H2_5 C4_5 1_555 1_555
C6_5 H4_5 1_555 1_555
C8_5 C4_5 1_555 1_555
C16_5 N6_5 1_555 1_555
H10_5 C16_5 1_555 1_555
C17_5 C8_5 1_555 1_555
Zn5_3 O1_3 1_555 1_555
O10_3 Zn3_3 1_555 1_555
O4_3 Zn5_3 1_555 1_555
C6_5 C8_5 1_555 1_555
O7_3 Zn5 1_555 1_555
O9_3 Zn5 1_555 1_555
N2_5 N12 1_555 1_555
N12 C5_5 1_555 1_555
O2_3 C1_5 1_555 1_555
C1_5 O6_5 1_555 1_555
N10_5 C11_5 1_555 1_555
C5_5 H3_5 1_555 1_555
C10_5 C1_5 1_555 1_555
C12_5 N2_5 1_555 1_555
H6_5 C12_5 1_555 1_555
N11_5 C11_5 1_555 1_555
H8_5 N11_5 1_555 1_555
Zn6_3 O2_3 1_555 1_555
C5_5 C10_5 1_555 1_555
C10_5 C12_5 1_555 1_555
O7_4 Zn5_2 1_555 1_555
O9_4 Zn5_2 1_555 1_555
N2_6 N12_2 1_555 1_555
N12_2 C5_6 1_555 1_555
O2_4 C1_6 1_555 1_555
C1_6 O6_6 1_555 1_555
N10_6 C11_6 1_555 1_555
C5_6 H3_6 1_555 1_555
C10_6 C1_6 1_555 1_555
C12_6 N2_6 1_555 1_555
H6_6 C12_6 1_555 1_555
N11_6 C11_6 1_555 1_555
H8_6 N11_6 1_555 1_555
Zn6_4 O2_4 1_555 1_555
C5_6 C10_6 1_555 1_555
C10_6 C12_6 1_555 1_555
O3_6 C15_6 1_555 1_555
C2_6 H1_6 1_555 1_555
N7_6 Zn2_4 1_555 1_555
N9_6 Zn2_4 1_555 1_555
O5_4 C15_6 1_555 1_555
C7_6 N9_6 1_555 1_555
H5_6 C7_6 1_555 1_555
C9_6 C3_6 1_555 1_555
C13_6 C7_6 1_555 1_555
C14_6 N3_6 1_555 1_555
H7_6 C14_6 1_555 1_555
C15_6 C13_6 1_555 1_555
Zn7_4 O5_4 1_555 1_555
O8_4 Zn2_4 1_555 1_555
N3_6 N9_6 1_555 1_555
C2_6 N7_6 1_555 1_555
C2_6 N8_6 1_555 1_555
C3_6 N7_6 1_555 1_555
N8_6 C9_6 1_555 1_555
C13_6 C14_6 1_555 1_555
Zn3_4 N1_6 1_555 1_555
N1_6 N4_6 1_555 1_555
N4_6 C6_6 1_555 1_555
O1_4 C17_6 1_555 1_555
O4_4 C17_6 1_555 1_555
N6_6 Zn3_4 1_555 1_555
C4_6 N1_6 1_555 1_555
H2_6 C4_6 1_555 1_555
C6_6 H4_6 1_555 1_555
C8_6 C4_6 1_555 1_555
C16_6 N6_6 1_555 1_555
H10_6 C16_6 1_555 1_555
C17_6 C8_6 1_555 1_555
Zn5_4 O1_4 1_555 1_555
O10_4 Zn3_4 1_555 1_555
O4_4 Zn5_4 1_555 1_555
C6_6 C8_6 1_555 1_555
Zn5_3 N2_7 1_555 1_555
Zn6_3 N4_7 1_555 1_555
Zn7_4 N1_7 1_555 1_555
N1_7 N4_7 1_555 1_555
N2_7 N12_3 1_555 1_555
N3_7 Zn7_4 1_555 1_555
N4_7 C6_7 1_555 1_555
N12_3 C5_7 1_555 1_555
O7_3 C17_7 1_555 1_555
O8_3 C1_7 1_555 1_555
O3_7 C15_7 1_555 1_555
C1_7 O6_7 1_555 1_555
C2_7 H1_7 1_555 1_555
O9_3 C17_7 1_555 1_555
C3_7 N6_7 1_555 1_555
N6_7 Zn7_4 1_555 1_555
N7_7 Zn6_3 1_555 1_555
N8_7 Zn5_3 1_555 1_555
N9_7 Zn6_3 1_555 1_555
C4_7 N1_7 1_555 1_555
H2_7 C4_7 1_555 1_555
O10_4 C15_7 1_555 1_555
N10_7 C11_7 1_555 1_555
C5_7 H3_7 1_555 1_555
C6_7 H4_7 1_555 1_555
C7_7 N9_7 1_555 1_555
H5_7 C7_7 1_555 1_555
C8_7 C4_7 1_555 1_555
C9_7 C3_7 1_555 1_555
C10_7 C1_7 1_555 1_555
C11_7 C9_7 1_555 1_555
C12_7 N2_7 1_555 1_555
H6_7 C12_7 1_555 1_555
C13_7 C7_7 1_555 1_555
C14_7 N3_7 1_555 1_555
H7_7 C14_7 1_555 1_555
C15_7 C13_7 1_555 1_555
N11_7 C11_7 1_555 1_555
H8_7 N11_7 1_555 1_555
H9_7 N11_7 1_555 1_555
C16_7 N6_7 1_555 1_555
H10_7 C16_7 1_555 1_555
C17_7 C8_7 1_555 1_555
N3_7 N9_7 1_555 1_555
C2_7 N7_7 1_555 1_555
C2_7 N8_7 1_555 1_555
C3_7 N7_7 1_555 1_555
N8_7 C9_7 1_555 1_555
N10_7 C16_7 1_555 1_555
C5_7 C10_7 1_555 1_555
C6_7 C8_7 1_555 1_555
C10_7 C12_7 1_555 1_555
C13_7 C14_7 1_555 1_555
Zn5_4 N2_8 1_555 1_555
Zn6_4 N4_8 1_555 1_555
Zn7_3 N1_8 1_555 1_555
N1_8 N4_8 1_555 1_555
N2_8 N12_4 1_555 1_555
N3_8 Zn7_3 1_555 1_555
N4_8 C6_8 1_555 1_555
N12_4 C5_8 1_555 1_555
O7_4 C17_8 1_555 1_555
O8_4 C1_8 1_555 1_555
O3_8 C15_8 1_555 1_555
C1_8 O6_8 1_555 1_555
C2_8 H1_8 1_555 1_555
O9_4 C17_8 1_555 1_555
C3_8 N6_8 1_555 1_555
N6_8 Zn7_3 1_555 1_555
N7_8 Zn6_4 1_555 1_555
N8_8 Zn5_4 1_555 1_555
N9_8 Zn6_4 1_555 1_555
C4_8 N1_8 1_555 1_555
H2_8 C4_8 1_555 1_555
O10_3 C15_8 1_555 1_555
N10_8 C11_8 1_555 1_555
C5_8 H3_8 1_555 1_555
C6_8 H4_8 1_555 1_555
C7_8 N9_8 1_555 1_555
H5_8 C7_8 1_555 1_555
C8_8 C4_8 1_555 1_555
C9_8 C3_8 1_555 1_555
C10_8 C1_8 1_555 1_555
C11_8 C9_8 1_555 1_555
C12_8 N2_8 1_555 1_555
H6_8 C12_8 1_555 1_555
C13_8 C7_8 1_555 1_555
C14_8 N3_8 1_555 1_555
H7_8 C14_8 1_555 1_555
C15_8 C13_8 1_555 1_555
N11_8 C11_8 1_555 1_555
H8_8 N11_8 1_555 1_555
H9_8 N11_8 1_555 1_555
C16_8 N6_8 1_555 1_555
H10_8 C16_8 1_555 1_555
C17_8 C8_8 1_555 1_555
N3_8 N9_8 1_555 1_555
C2_8 N7_8 1_555 1_555
C2_8 N8_8 1_555 1_555
C3_8 N7_8 1_555 1_555
N8_8 C9_8 1_555 1_555
N10_8 C16_8 1_555 1_555
C5_8 C10_8 1_555 1_555
C6_8 C8_8 1_555 1_555
C10_8 C12_8 1_555 1_555
C13_8 C14_8 1_555 1_555

#END
