
###############################################################################
#
# This file contains modified crystal structure data generated from the
# MOF subset of the Cambridge Structural Database (CSD) v543 
# hosted by the Cambridge Crystallographic Data Centre (CCDC).
#
# This work is licensed under the Creative Commons
# Attribution-NonCommercial-ShareAlike 4.0 International License.
# To view a copy of this license, visit
# http://creativecommons.org/licenses/by-nc-sa/4.0/
# or send a letter to
# Creative Commons, PO Box 1866, Mountain View, CA 94042, USA.
#
# CIF created using the CSD Python API on 29 September 2022
# The structure has been converted into the P1 space group
# The structure has a 3D framework
# The original CSD entry CUDQAV is in the monoclinic crystal system
# The framework has been calculated to contain at least 10.0% void space
# The void calculation uses a probe of radius 1.32A, grid spacing 0.4
# The framework is charged, counterions have been retained in the structure
#
###############################################################################

data_CUDQAV
_chemical_formula_moiety         '(C136 H80 N88 O48 Zn20 8-)n'
_symmetry_cell_setting           triclinic
_symmetry_space_group_name_H-M   'P 1'
_symmetry_Int_Tables_number      1
_space_group_name_Hall           'P 1'
loop_
_symmetry_equiv_pos_site_id
_symmetry_equiv_pos_as_xyz
1 x,y,z
_cell_length_a                   17.6547(5)
_cell_length_b                   13.6660(3)
_cell_length_c                   31.9413(6)
_cell_angle_alpha                90
_cell_angle_beta                 94.871(2)
_cell_angle_gamma                90
_cell_volume                     7678.62
loop_
_atom_site_label
_atom_site_type_symbol
_atom_site_fract_x
_atom_site_fract_y
_atom_site_fract_z
Zn1 Zn 0.037258(19) 0.08903(2) 0.038882(9)
H10 H 0.116(2) 0.027(3) 0.1259(13)
O7 O 0.07568(14) 0.22805(16) 0.04086(7)
O9 O 0.14159(16) 0.13657(15) 0.08729(7)
N2 N 0.08701(12) 0.96317(13) 0.02663(6)
N5 N 0.04296(12) 0.88863(13) 0.00972(6)
O2 O 0.18544(13) 0.66402(13) 0.05820(6)
C3 C 0.20618(18) 0.7537(2) 0.05885(8)
N8 N 0.01151(16) 0.9525(2) 0.19101(8)
C6 C 0.08052(17) 0.80510(17) 0.01816(7)
O6 O 0.26784(14) 0.78124(18) 0.07596(8)
C9 C 0.14976(15) 0.82453(18) 0.04007(7)
C11 C 0.03109(17) 0.9931(2) 0.15474(8)
C15 C 0.15090(16) 0.92432(19) 0.04475(8)
N11 N 0.10350(16) 0.9966(3) 0.14846(8)
H3 H 0.0656(18) 0.754(2) 0.0069(10)
H7 H 0.180(2) 0.966(3) 0.0589(11)
H8 H 0.135(2) 0.973(3) 0.1752(12)
Zn6 Zn 0.235921(19) 0.59425(2) 0.105158(9)
Zn2 Zn 0.735921(19) 0.09425(2) 0.105158(9)
N3 N 0.73408(14) 0.10215(15) 0.19730(6)
O3 O 0.71125(15) 0.43316(15) 0.21883(7)
N7 N 0.84813(13) 0.06530(15) 0.10815(6)
C1 C 0.89393(16) 0.09047(18) 0.07831(7)
C4 C 0.89755(15) 0.02411(17) 0.13881(7)
N9 N 0.96728(13) 0.07054(16) 0.08660(6)
O5 O 0.73030(17) 0.34553(16) 0.27644(6)
N10 N 0.72000(15) 0.15331(15) 0.16086(6)
C7 C 0.71098(18) 0.24784(19) 0.17069(8)
H1 H 0.7000 0.2978 0.1514
C8 C 0.72048(17) 0.2599(2) 0.21381(8)
C10 C 0.72024(17) 0.3543(2) 0.23676(8)
C12 C 0.97075(15) 0.02840(18) 0.12609(7)
C14 C 0.73519(18) 0.1656(2) 0.22897(8)
H4 H 0.8730(17) 0.125(2) 0.0524(9)
H9 H 0.7420(17) 0.137(2) 0.2584(10)
Zn7 Zn 0.72921(2) 0.46456(2) 0.308189(9)
O8 O 0.68544(13) 0.16402(13) 0.05820(6)
N12 N 0.95704(12) 0.11137(13) 0.99028(6)
Zn3 Zn 0.77079(2) 0.96456(2) 0.191811(9)
N1 N 0.71355(15) 0.90759(15) 0.14006(6)
O1 O 0.57568(14) 0.72805(16) 0.04086(7)
N4 N 0.68949(14) 0.96217(15) 0.10557(7)
N6 N 0.87852(14) 0.98411(16) 0.17556(6)
O4 O 0.64159(16) 0.63657(15) 0.08729(7)
C2 C 0.65434(18) 0.90254(19) 0.07746(9)
C5 C 0.69402(18) 0.81465(18) 0.13227(8)
C13 C 0.65591(18) 0.80804(19) 0.09294(8)
C16 C 0.93878(19) 0.9502(2) 0.19934(9)
H2 H 0.9288 0.9217 0.2247
C17 C 0.62358(19) 0.7188(2) 0.07257(9)
H5 H 0.6276(17) 0.930(2) 0.0516(9)
H6 H 0.7132(18) 0.757(2) 0.1550(10)
Zn4 Zn 0.537258(19) 0.58903(2) 0.038882(9)
O10 O 0.76970(17) 0.84553(16) 0.22356(6)
Zn5 Zn 0.962742(19) 0.91097(2) 0.961118(9)
Zn2_2 Zn 0.264079(19) 0.09425(2) 0.394842(9)
N3_2 N 0.26592(14) 0.10215(15) 0.30270(6)
O3_2 O 0.28875(15) 0.43316(15) 0.28117(7)
N7_2 N 0.15187(13) 0.06530(15) 0.39185(6)
C1_2 C 0.10607(16) 0.09047(18) 0.42169(7)
C4_2 C 0.10245(15) 0.02411(17) 0.36119(7)
N9_2 N 0.03272(13) 0.07054(16) 0.41340(6)
O5_2 O 0.26970(17) 0.34553(16) 0.22356(6)
N10_2 N 0.28000(15) 0.15331(15) 0.33914(6)
C7_2 C 0.28902(18) 0.24784(19) 0.32931(8)
H1_2 H 0.3000 0.2978 0.3486
C8_2 C 0.27952(17) 0.2599(2) 0.28619(8)
C10_2 C 0.27976(17) 0.3543(2) 0.26324(8)
C12_2 C 0.02925(15) 0.02840(18) 0.37391(7)
C14_2 C 0.26481(18) 0.1656(2) 0.27103(8)
H4_2 H 0.1270(17) 0.125(2) 0.4476(9)
H9_2 H 0.2580(17) 0.137(2) 0.2416(10)
Zn7_2 Zn 0.27079(2) 0.46456(2) 0.191811(9)
N12_2 N 0.04296(12) 0.11137(13) 0.50972(6)
O8_2 O 0.31456(13) 0.16402(13) 0.44180(6)
Zn3_2 Zn 0.22921(2) 0.96456(2) 0.308189(9)
N1_2 N 0.28645(15) 0.90759(15) 0.35994(6)
O1_2 O 0.42432(14) 0.72805(16) 0.45914(7)
N4_2 N 0.31051(14) 0.96217(15) 0.39443(7)
N6_2 N 0.12148(14) 0.98411(16) 0.32444(6)
O4_2 O 0.35841(16) 0.63657(15) 0.41271(7)
C2_2 C 0.34566(18) 0.90254(19) 0.42254(9)
C5_2 C 0.30598(18) 0.81465(18) 0.36773(8)
C13_2 C 0.34409(18) 0.80804(19) 0.40706(8)
C16_2 C 0.06122(19) 0.9502(2) 0.30066(9)
H2_2 H 0.0712 0.9217 0.2753
C17_2 C 0.37642(19) 0.7188(2) 0.42743(9)
H5_2 H 0.3724(17) 0.930(2) 0.4484(9)
H6_2 H 0.2868(18) 0.757(2) 0.3450(10)
Zn4_2 Zn 0.462742(19) 0.58903(2) 0.461118(9)
Zn5_2 Zn 0.037258(19) 0.91097(2) 0.538882(9)
O10_2 O 0.23030(17) 0.84553(16) 0.27644(6)
Zn1_2 Zn 0.962742(19) 0.08903(2) 0.461118(9)
H10_2 H 0.884(2) 0.027(3) 0.3741(13)
O7_2 O 0.92432(14) 0.22805(16) 0.45914(7)
O9_2 O 0.85841(16) 0.13657(15) 0.41271(7)
N2_2 N 0.91299(12) 0.96317(13) 0.47337(6)
N5_2 N 0.95704(12) 0.88863(13) 0.49028(6)
O2_2 O 0.81456(13) 0.66402(13) 0.44180(6)
C3_2 C 0.79382(18) 0.7537(2) 0.44115(8)
N8_2 N 0.98849(16) 0.9525(2) 0.30899(8)
C6_2 C 0.91948(17) 0.80510(17) 0.48184(7)
O6_2 O 0.73216(14) 0.78124(18) 0.42404(8)
C9_2 C 0.85024(15) 0.82453(18) 0.45993(7)
C11_2 C 0.96891(17) 0.9931(2) 0.34526(8)
C15_2 C 0.84910(16) 0.92432(19) 0.45525(8)
N11_2 N 0.89650(16) 0.9966(3) 0.35154(8)
H3_2 H 0.9344(18) 0.754(2) 0.4931(10)
H7_2 H 0.820(2) 0.966(3) 0.4411(11)
H8_2 H 0.865(2) 0.973(3) 0.3248(12)
Zn6_2 Zn 0.764079(19) 0.59425(2) 0.394842(9)
N1_3 N 0.21355(15) 0.40759(15) 0.14006(6)
N2_3 N 0.58701(12) 0.46317(13) 0.02663(6)
N3_3 N 0.23408(14) 0.60215(15) 0.19730(6)
N4_3 N 0.18949(14) 0.46217(15) 0.10557(7)
N5_3 N 0.54296(12) 0.38863(13) 0.00972(6)
O3_3 O 0.21125(15) 0.93316(15) 0.21883(7)
N6_3 N 0.37852(14) 0.48411(16) 0.17556(6)
N7_3 N 0.34813(13) 0.56530(15) 0.10815(6)
C1_3 C 0.39393(16) 0.59047(18) 0.07831(7)
C2_3 C 0.15434(18) 0.40254(19) 0.07746(9)
C3_3 C 0.70618(18) 0.2537(2) 0.05885(8)
C4_3 C 0.39755(15) 0.52411(17) 0.13881(7)
C5_3 C 0.19402(18) 0.31465(18) 0.13227(8)
N8_3 N 0.51151(16) 0.4525(2) 0.19101(8)
C6_3 C 0.58052(17) 0.30510(17) 0.01816(7)
N9_3 N 0.46728(13) 0.57054(16) 0.08660(6)
N10_3 N 0.22000(15) 0.65331(15) 0.16086(6)
O6_3 O 0.76784(14) 0.28124(18) 0.07596(8)
C7_3 C 0.21098(18) 0.74784(19) 0.17069(8)
H1_3 H 0.2000 0.7978 0.1514
C8_3 C 0.22048(17) 0.7599(2) 0.21381(8)
C9_3 C 0.64976(15) 0.32453(18) 0.04007(7)
C10_3 C 0.22024(17) 0.8543(2) 0.23676(8)
C11_3 C 0.53109(17) 0.4931(2) 0.15474(8)
C12_3 C 0.47075(15) 0.52840(18) 0.12609(7)
C13_3 C 0.15591(18) 0.30804(19) 0.09294(8)
C14_3 C 0.23519(18) 0.6656(2) 0.22897(8)
C15_3 C 0.65090(16) 0.42432(19) 0.04475(8)
C16_3 C 0.43878(19) 0.4502(2) 0.19934(9)
H2_3 H 0.4288 0.4217 0.2247
N11_3 N 0.60350(16) 0.4966(3) 0.14846(8)
C17_3 C 0.12358(19) 0.2188(2) 0.07257(9)
H3_3 H 0.5656(18) 0.254(2) 0.0069(10)
H4_3 H 0.3730(17) 0.625(2) 0.0524(9)
H5_3 H 0.1276(17) 0.430(2) 0.0516(9)
H6_3 H 0.2132(18) 0.257(2) 0.1550(10)
H7_3 H 0.680(2) 0.466(3) 0.0589(11)
H8_3 H 0.635(2) 0.473(3) 0.1752(12)
H9_3 H 0.2420(17) 0.637(2) 0.2584(10)
H10_3 H 0.616(2) 0.527(3) 0.1259(13)
Zn5_3 Zn 0.462742(19) 0.41097(2) 0.961118(9)
N12_3 N 0.45704(12) 0.61137(13) 0.99028(6)
N1_4 N 0.78645(15) 0.40759(15) 0.35994(6)
N2_4 N 0.41299(12) 0.46317(13) 0.47337(6)
N3_4 N 0.76592(14) 0.60215(15) 0.30270(6)
N4_4 N 0.81051(14) 0.46217(15) 0.39443(7)
N5_4 N 0.45704(12) 0.38863(13) 0.49028(6)
O3_4 O 0.78875(15) 0.93316(15) 0.28117(7)
N6_4 N 0.62148(14) 0.48411(16) 0.32444(6)
N7_4 N 0.65187(13) 0.56530(15) 0.39185(6)
C1_4 C 0.60607(16) 0.59047(18) 0.42169(7)
C2_4 C 0.84566(18) 0.40254(19) 0.42254(9)
C3_4 C 0.29382(18) 0.2537(2) 0.44115(8)
C4_4 C 0.60245(15) 0.52411(17) 0.36119(7)
C5_4 C 0.80598(18) 0.31465(18) 0.36773(8)
N8_4 N 0.48849(16) 0.4525(2) 0.30899(8)
C6_4 C 0.41948(17) 0.30510(17) 0.48184(7)
N9_4 N 0.53272(13) 0.57054(16) 0.41340(6)
N10_4 N 0.78000(15) 0.65331(15) 0.33914(6)
O6_4 O 0.23216(14) 0.28124(18) 0.42404(8)
C7_4 C 0.78902(18) 0.74784(19) 0.32931(8)
H1_4 H 0.8000 0.7978 0.3486
C8_4 C 0.77952(17) 0.7599(2) 0.28619(8)
C9_4 C 0.35024(15) 0.32453(18) 0.45993(7)
C10_4 C 0.77976(17) 0.8543(2) 0.26324(8)
C11_4 C 0.46891(17) 0.4931(2) 0.34526(8)
C12_4 C 0.52925(15) 0.52840(18) 0.37391(7)
C13_4 C 0.84409(18) 0.30804(19) 0.40706(8)
C14_4 C 0.76481(18) 0.6656(2) 0.27103(8)
C15_4 C 0.34910(16) 0.42432(19) 0.45525(8)
C16_4 C 0.56122(19) 0.4502(2) 0.30066(9)
H2_4 H 0.5712 0.4217 0.2753
N11_4 N 0.39650(16) 0.4966(3) 0.35154(8)
C17_4 C 0.87642(19) 0.2188(2) 0.42743(9)
H3_4 H 0.4344(18) 0.254(2) 0.4931(10)
H4_4 H 0.6270(17) 0.625(2) 0.4476(9)
H5_4 H 0.8724(17) 0.430(2) 0.4484(9)
H6_4 H 0.7868(18) 0.257(2) 0.3450(10)
H7_4 H 0.320(2) 0.466(3) 0.4411(11)
H8_4 H 0.365(2) 0.473(3) 0.3248(12)
H9_4 H 0.7580(17) 0.637(2) 0.2416(10)
H10_4 H 0.384(2) 0.527(3) 0.3741(13)
Zn5_4 Zn 0.537258(19) 0.41097(2) 0.538882(9)
N12_4 N 0.54296(12) 0.61137(13) 0.50972(6)
Zn3_3 Zn 0.22921(2) 0.03544(2) 0.808189(9)
N1_5 N 0.28645(15) 0.09241(15) 0.85994(6)
O1_3 O 0.42432(14) 0.27195(16) 0.95914(7)
N4_5 N 0.31051(14) 0.03783(15) 0.89443(7)
N6_5 N 0.12148(14) 0.01589(16) 0.82444(6)
O4_3 O 0.35841(16) 0.36343(15) 0.91271(7)
C2_5 C 0.34566(18) 0.09746(19) 0.92254(9)
C5_5 C 0.30598(18) 0.18535(18) 0.86773(8)
C13_5 C 0.34409(18) 0.19196(19) 0.90706(8)
C16_5 C 0.06122(19) 0.0498(2) 0.80066(9)
H2_5 H 0.0712 0.0783 0.7753
C17_5 C 0.37642(19) 0.2812(2) 0.92743(9)
H5_5 H 0.3724(17) 0.070(2) 0.9484(9)
H6_5 H 0.2868(18) 0.243(2) 0.8450(10)
O10_3 O 0.23030(17) 0.15447(16) 0.77644(6)
Zn2_3 Zn 0.264079(19) 0.90575(2) 0.894842(9)
N3_5 N 0.26592(14) 0.89785(15) 0.80270(6)
O3_5 O 0.28875(15) 0.56684(15) 0.78117(7)
N7_5 N 0.15187(13) 0.93470(15) 0.89185(6)
C1_5 C 0.10607(16) 0.90953(18) 0.92169(7)
C4_5 C 0.10245(15) 0.97589(17) 0.86119(7)
N9_5 N 0.03272(13) 0.92946(16) 0.91340(6)
O5_3 O 0.26970(17) 0.65447(16) 0.72356(6)
N10_5 N 0.28000(15) 0.84669(15) 0.83914(6)
C7_5 C 0.28902(18) 0.75216(19) 0.82931(8)
H1_5 H 0.3000 0.7022 0.8486
C8_5 C 0.27952(17) 0.7401(2) 0.78619(8)
C10_5 C 0.27976(17) 0.6457(2) 0.76324(8)
C12_5 C 0.02925(15) 0.97160(18) 0.87391(7)
C14_5 C 0.26481(18) 0.8344(2) 0.77103(8)
H4_5 H 0.1270(17) 0.875(2) 0.9476(9)
H9_5 H 0.2580(17) 0.863(2) 0.7416(10)
Zn7_3 Zn 0.27079(2) 0.53544(2) 0.691811(9)
O8_3 O 0.31456(13) 0.83598(13) 0.94180(6)
N2_5 N 0.91299(12) 0.03683(13) 0.97337(6)
O2_3 O 0.81456(13) 0.33598(13) 0.94180(6)
C3_5 C 0.79382(18) 0.2463(2) 0.94115(8)
N8_5 N 0.98849(16) 0.0475(2) 0.80899(8)
C6_5 C 0.91948(17) 0.19490(17) 0.98184(7)
O6_5 O 0.73216(14) 0.21876(18) 0.92404(8)
C9_5 C 0.85024(15) 0.17547(18) 0.95993(7)
C11_5 C 0.96891(17) 0.0069(2) 0.84526(8)
C15_5 C 0.84910(16) 0.07568(19) 0.95525(8)
N11_5 N 0.89650(16) 0.0034(3) 0.85154(8)
H3_5 H 0.9344(18) 0.246(2) 0.9931(10)
H7_5 H 0.820(2) 0.034(3) 0.9411(11)
H8_5 H 0.865(2) 0.027(3) 0.8248(12)
Zn6_3 Zn 0.764079(19) 0.40575(2) 0.894842(9)
H10_5 H 0.884(2) 0.973(3) 0.8741(13)
O7_3 O 0.92432(14) 0.77195(16) 0.95914(7)
O9_3 O 0.85841(16) 0.86343(15) 0.91271(7)
N2_6 N 0.08701(12) 0.03683(13) 0.52663(6)
O2_4 O 0.18544(13) 0.33598(13) 0.55820(6)
C3_6 C 0.20618(18) 0.2463(2) 0.55885(8)
N8_6 N 0.01151(16) 0.0475(2) 0.69101(8)
C6_6 C 0.08052(17) 0.19490(17) 0.51816(7)
O6_6 O 0.26784(14) 0.21876(18) 0.57596(8)
C9_6 C 0.14976(15) 0.17547(18) 0.54007(7)
C11_6 C 0.03109(17) 0.0069(2) 0.65474(8)
C15_6 C 0.15090(16) 0.07568(19) 0.54475(8)
N11_6 N 0.10350(16) 0.0034(3) 0.64846(8)
H3_6 H 0.0656(18) 0.246(2) 0.5069(10)
H7_6 H 0.180(2) 0.034(3) 0.5589(11)
H8_6 H 0.135(2) 0.027(3) 0.6752(12)
Zn6_4 Zn 0.235921(19) 0.40575(2) 0.605158(9)
H10_6 H 0.116(2) 0.973(3) 0.6259(13)
O7_4 O 0.07568(14) 0.77195(16) 0.54086(7)
O9_4 O 0.14159(16) 0.86343(15) 0.58729(7)
Zn3_4 Zn 0.77079(2) 0.03544(2) 0.691811(9)
N1_6 N 0.71355(15) 0.09241(15) 0.64006(6)
O1_4 O 0.57568(14) 0.27195(16) 0.54086(7)
N4_6 N 0.68949(14) 0.03783(15) 0.60557(7)
N6_6 N 0.87852(14) 0.01589(16) 0.67556(6)
O4_4 O 0.64159(16) 0.36343(15) 0.58729(7)
C2_6 C 0.65434(18) 0.09746(19) 0.57746(9)
C5_6 C 0.69402(18) 0.18535(18) 0.63227(8)
C13_6 C 0.65591(18) 0.19196(19) 0.59294(8)
C16_6 C 0.93878(19) 0.0498(2) 0.69934(9)
H2_6 H 0.9288 0.0783 0.7247
C17_6 C 0.62358(19) 0.2812(2) 0.57257(9)
H5_6 H 0.6276(17) 0.070(2) 0.5516(9)
H6_6 H 0.7132(18) 0.243(2) 0.6550(10)
O10_4 O 0.76970(17) 0.15447(16) 0.72356(6)
Zn2_4 Zn 0.735921(19) 0.90575(2) 0.605158(9)
N3_6 N 0.73408(14) 0.89785(15) 0.69730(6)
O3_6 O 0.71125(15) 0.56684(15) 0.71883(7)
N7_6 N 0.84813(13) 0.93470(15) 0.60815(6)
C1_6 C 0.89393(16) 0.90953(18) 0.57831(7)
C4_6 C 0.89755(15) 0.97589(17) 0.63881(7)
N9_6 N 0.96728(13) 0.92946(16) 0.58660(6)
O5_4 O 0.73030(17) 0.65447(16) 0.77644(6)
N10_6 N 0.72000(15) 0.84669(15) 0.66086(6)
C7_6 C 0.71098(18) 0.75216(19) 0.67069(8)
H1_6 H 0.7000 0.7022 0.6514
C8_6 C 0.72048(17) 0.7401(2) 0.71381(8)
C10_6 C 0.72024(17) 0.6457(2) 0.73676(8)
C12_6 C 0.97075(15) 0.97160(18) 0.62609(7)
C14_6 C 0.73519(18) 0.8344(2) 0.72897(8)
H4_6 H 0.8730(17) 0.875(2) 0.5524(9)
H9_6 H 0.7420(17) 0.863(2) 0.7584(10)
Zn7_4 Zn 0.72921(2) 0.53544(2) 0.808189(9)
O8_4 O 0.68544(13) 0.83598(13) 0.55820(6)
N1_7 N 0.78645(15) 0.59241(15) 0.85994(6)
N2_7 N 0.41299(12) 0.53683(13) 0.97337(6)
N3_7 N 0.76592(14) 0.39785(15) 0.80270(6)
N4_7 N 0.81051(14) 0.53783(15) 0.89443(7)
O3_7 O 0.78875(15) 0.06684(15) 0.78117(7)
N6_7 N 0.62148(14) 0.51589(16) 0.82444(6)
N7_7 N 0.65187(13) 0.43470(15) 0.89185(6)
C1_7 C 0.60607(16) 0.40953(18) 0.92169(7)
C2_7 C 0.84566(18) 0.59746(19) 0.92254(9)
C3_7 C 0.29382(18) 0.7463(2) 0.94115(8)
C4_7 C 0.60245(15) 0.47589(17) 0.86119(7)
C5_7 C 0.80598(18) 0.68535(18) 0.86773(8)
N8_7 N 0.48849(16) 0.5475(2) 0.80899(8)
C6_7 C 0.41948(17) 0.69490(17) 0.98184(7)
N9_7 N 0.53272(13) 0.42946(16) 0.91340(6)
N10_7 N 0.78000(15) 0.34669(15) 0.83914(6)
O6_7 O 0.23216(14) 0.71876(18) 0.92404(8)
C7_7 C 0.78902(18) 0.25216(19) 0.82931(8)
H1_7 H 0.8000 0.2022 0.8486
C8_7 C 0.77952(17) 0.2401(2) 0.78619(8)
C9_7 C 0.35024(15) 0.67547(18) 0.95993(7)
C10_7 C 0.77976(17) 0.1457(2) 0.76324(8)
C11_7 C 0.46891(17) 0.5069(2) 0.84526(8)
C12_7 C 0.52925(15) 0.47160(18) 0.87391(7)
C13_7 C 0.84409(18) 0.69196(19) 0.90706(8)
C14_7 C 0.76481(18) 0.3344(2) 0.77103(8)
C15_7 C 0.34910(16) 0.57568(19) 0.95525(8)
C16_7 C 0.56122(19) 0.5498(2) 0.80066(9)
H2_7 H 0.5712 0.5783 0.7753
N11_7 N 0.39650(16) 0.5034(3) 0.85154(8)
C17_7 C 0.87642(19) 0.7812(2) 0.92743(9)
H3_7 H 0.4344(18) 0.746(2) 0.9931(10)
H4_7 H 0.6270(17) 0.375(2) 0.9476(9)
H5_7 H 0.8724(17) 0.570(2) 0.9484(9)
H6_7 H 0.7868(18) 0.743(2) 0.8450(10)
H7_7 H 0.320(2) 0.534(3) 0.9411(11)
H8_7 H 0.365(2) 0.527(3) 0.8248(12)
H9_7 H 0.7580(17) 0.363(2) 0.7416(10)
H10_7 H 0.384(2) 0.473(3) 0.8741(13)
N1_8 N 0.21355(15) 0.59241(15) 0.64006(6)
N2_8 N 0.58701(12) 0.53683(13) 0.52663(6)
N3_8 N 0.23408(14) 0.39785(15) 0.69730(6)
N4_8 N 0.18949(14) 0.53783(15) 0.60557(7)
O3_8 O 0.21125(15) 0.06684(15) 0.71883(7)
N6_8 N 0.37852(14) 0.51589(16) 0.67556(6)
N7_8 N 0.34813(13) 0.43470(15) 0.60815(6)
C1_8 C 0.39393(16) 0.40953(18) 0.57831(7)
C2_8 C 0.15434(18) 0.59746(19) 0.57746(9)
C3_8 C 0.70618(18) 0.7463(2) 0.55885(8)
C4_8 C 0.39755(15) 0.47589(17) 0.63881(7)
C5_8 C 0.19402(18) 0.68535(18) 0.63227(8)
N8_8 N 0.51151(16) 0.5475(2) 0.69101(8)
C6_8 C 0.58052(17) 0.69490(17) 0.51816(7)
N9_8 N 0.46728(13) 0.42946(16) 0.58660(6)
N10_8 N 0.22000(15) 0.34669(15) 0.66086(6)
O6_8 O 0.76784(14) 0.71876(18) 0.57596(8)
C7_8 C 0.21098(18) 0.25216(19) 0.67069(8)
H1_8 H 0.2000 0.2022 0.6514
C8_8 C 0.22048(17) 0.2401(2) 0.71381(8)
C9_8 C 0.64976(15) 0.67547(18) 0.54007(7)
C10_8 C 0.22024(17) 0.1457(2) 0.73676(8)
C11_8 C 0.53109(17) 0.5069(2) 0.65474(8)
C12_8 C 0.47075(15) 0.47160(18) 0.62609(7)
C13_8 C 0.15591(18) 0.69196(19) 0.59294(8)
C14_8 C 0.23519(18) 0.3344(2) 0.72897(8)
C15_8 C 0.65090(16) 0.57568(19) 0.54475(8)
C16_8 C 0.43878(19) 0.5498(2) 0.69934(9)
H2_8 H 0.4288 0.5783 0.7247
N11_8 N 0.60350(16) 0.5034(3) 0.64846(8)
C17_8 C 0.12358(19) 0.7812(2) 0.57257(9)
H3_8 H 0.5656(18) 0.746(2) 0.5069(10)
H4_8 H 0.3730(17) 0.375(2) 0.5524(9)
H5_8 H 0.1276(17) 0.570(2) 0.5516(9)
H6_8 H 0.2132(18) 0.743(2) 0.6550(10)
H7_8 H 0.680(2) 0.534(3) 0.5589(11)
H8_8 H 0.635(2) 0.527(3) 0.6752(12)
H9_8 H 0.2420(17) 0.363(2) 0.7584(10)
H10_8 H 0.616(2) 0.473(3) 0.6259(13)
loop_
_geom_bond_atom_site_label_1
_geom_bond_atom_site_label_2
_geom_bond_site_symmetry_1
_geom_bond_site_symmetry_2
O7 Zn1 1_555 1_555
O9 Zn1 1_555 1_555
N2 N5 1_555 1_555
N5 C6 1_555 1_555
O2 C3 1_555 1_555
C3 O6 1_555 1_555
N8 C11 1_555 1_555
C6 C9 1_555 1_555
C9 C3 1_555 1_555
C15 N2 1_555 1_555
N11 C11 1_555 1_555
H3 C6 1_555 1_555
H7 C15 1_555 1_555
H8 N11 1_555 1_555
Zn6 O2 1_555 1_555
C9 C15 1_555 1_555
O3 C10 1_555 1_555
N7 Zn2 1_555 1_555
C1 N7 1_555 1_555
O5 C10 1_555 1_555
N10 Zn2 1_555 1_555
C7 N10 1_555 1_555
H1 C7 1_555 1_555
C8 C7 1_555 1_555
C10 C8 1_555 1_555
C12 C4 1_555 1_555
C14 N3 1_555 1_555
H4 C1 1_555 1_555
H9 C14 1_555 1_555
Zn7 O5 1_555 1_555
O8 Zn2 1_555 1_555
N3 N10 1_555 1_555
N7 C4 1_555 1_555
C1 N9 1_555 1_555
N9 C12 1_555 1_555
C8 C14 1_555 1_555
Zn3 N1 1_555 1_555
N1 N4 1_555 1_555
O1 C17 1_555 1_555
N4 C2 1_555 1_555
N6 Zn3 1_555 1_555
O4 C17 1_555 1_555
C2 C13 1_555 1_555
C5 N1 1_555 1_555
C13 C5 1_555 1_555
C16 N6 1_555 1_555
H2 C16 1_555 1_555
C17 C13 1_555 1_555
H5 C2 1_555 1_555
H6 C5 1_555 1_555
Zn4 O1 1_555 1_555
O10 Zn3 1_555 1_555
O4 Zn4 1_555 1_555
O3_2 C10_2 1_555 1_555
N7_2 Zn2_2 1_555 1_555
C1_2 N7_2 1_555 1_555
O5_2 C10_2 1_555 1_555
N10_2 Zn2_2 1_555 1_555
C7_2 N10_2 1_555 1_555
H1_2 C7_2 1_555 1_555
C8_2 C7_2 1_555 1_555
C10_2 C8_2 1_555 1_555
C12_2 C4_2 1_555 1_555
C14_2 N3_2 1_555 1_555
H4_2 C1_2 1_555 1_555
H9_2 C14_2 1_555 1_555
Zn7_2 O5_2 1_555 1_555
O8_2 Zn2_2 1_555 1_555
N3_2 N10_2 1_555 1_555
N7_2 C4_2 1_555 1_555
C1_2 N9_2 1_555 1_555
N9_2 C12_2 1_555 1_555
C8_2 C14_2 1_555 1_555
Zn3_2 N1_2 1_555 1_555
N1_2 N4_2 1_555 1_555
O1_2 C17_2 1_555 1_555
N4_2 C2_2 1_555 1_555
N6_2 Zn3_2 1_555 1_555
O4_2 C17_2 1_555 1_555
C2_2 C13_2 1_555 1_555
C5_2 N1_2 1_555 1_555
C13_2 C5_2 1_555 1_555
C16_2 N6_2 1_555 1_555
H2_2 C16_2 1_555 1_555
C17_2 C13_2 1_555 1_555
H5_2 C2_2 1_555 1_555
H6_2 C5_2 1_555 1_555
Zn4_2 O1_2 1_555 1_555
O10_2 Zn3_2 1_555 1_555
O4_2 Zn4_2 1_555 1_555
O7_2 Zn1_2 1_555 1_555
O9_2 Zn1_2 1_555 1_555
N2_2 N5_2 1_555 1_555
N5_2 C6_2 1_555 1_555
O2_2 C3_2 1_555 1_555
C3_2 O6_2 1_555 1_555
N8_2 C11_2 1_555 1_555
C6_2 C9_2 1_555 1_555
C9_2 C3_2 1_555 1_555
C15_2 N2_2 1_555 1_555
N11_2 C11_2 1_555 1_555
H3_2 C6_2 1_555 1_555
H7_2 C15_2 1_555 1_555
H8_2 N11_2 1_555 1_555
Zn6_2 O2_2 1_555 1_555
C9_2 C15_2 1_555 1_555
Zn4 N2_3 1_555 1_555
Zn6 N4_3 1_555 1_555
Zn7_2 N1_3 1_555 1_555
N1_3 N4_3 1_555 1_555
N2_3 N5_3 1_555 1_555
N3_3 Zn7_2 1_555 1_555
O7 C17_3 1_555 1_555
N4_3 C2_3 1_555 1_555
N5_3 C6_3 1_555 1_555
O8 C3_3 1_555 1_555
O3_3 C10_3 1_555 1_555
N6_3 Zn7_2 1_555 1_555
N7_3 Zn6 1_555 1_555
C1_3 N7_3 1_555 1_555
O9 C17_3 1_555 1_555
C2_3 C13_3 1_555 1_555
C3_3 O6_3 1_555 1_555
C4_3 N6_3 1_555 1_555
C5_3 N1_3 1_555 1_555
N8_3 C11_3 1_555 1_555
C6_3 C9_3 1_555 1_555
N9_3 Zn4 1_555 1_555
O10_2 C10_3 1_555 1_555
N10_3 Zn6 1_555 1_555
C7_3 N10_3 1_555 1_555
H1_3 C7_3 1_555 1_555
C8_3 C7_3 1_555 1_555
C9_3 C3_3 1_555 1_555
C10_3 C8_3 1_555 1_555
C11_3 C12_3 1_555 1_555
C12_3 C4_3 1_555 1_555
C13_3 C5_3 1_555 1_555
C14_3 N3_3 1_555 1_555
C15_3 N2_3 1_555 1_555
C16_3 N6_3 1_555 1_555
H2_3 C16_3 1_555 1_555
N11_3 C11_3 1_555 1_555
C17_3 C13_3 1_555 1_555
H3_3 C6_3 1_555 1_555
H4_3 C1_3 1_555 1_555
H5_3 C2_3 1_555 1_555
H6_3 C5_3 1_555 1_555
H7_3 C15_3 1_555 1_555
H8_3 N11_3 1_555 1_555
H9_3 C14_3 1_555 1_555
H10_3 N11_3 1_555 1_555
N3_3 N10_3 1_555 1_555
N7_3 C4_3 1_555 1_555
C1_3 N9_3 1_555 1_555
N8_3 C16_3 1_555 1_555
N9_3 C12_3 1_555 1_555
C8_3 C14_3 1_555 1_555
C9_3 C15_3 1_555 1_555
Zn4_2 N2_4 1_555 1_555
Zn6_2 N4_4 1_555 1_555
Zn7 N1_4 1_555 1_555
N1_4 N4_4 1_555 1_555
N2_4 N5_4 1_555 1_555
N3_4 Zn7 1_555 1_555
O7_2 C17_4 1_555 1_555
N4_4 C2_4 1_555 1_555
N5_4 C6_4 1_555 1_555
O8_2 C3_4 1_555 1_555
O3_4 C10_4 1_555 1_555
N6_4 Zn7 1_555 1_555
N7_4 Zn6_2 1_555 1_555
C1_4 N7_4 1_555 1_555
O9_2 C17_4 1_555 1_555
C2_4 C13_4 1_555 1_555
C3_4 O6_4 1_555 1_555
C4_4 N6_4 1_555 1_555
C5_4 N1_4 1_555 1_555
N8_4 C11_4 1_555 1_555
C6_4 C9_4 1_555 1_555
N9_4 Zn4_2 1_555 1_555
O10 C10_4 1_555 1_555
N10_4 Zn6_2 1_555 1_555
C7_4 N10_4 1_555 1_555
H1_4 C7_4 1_555 1_555
C8_4 C7_4 1_555 1_555
C9_4 C3_4 1_555 1_555
C10_4 C8_4 1_555 1_555
C11_4 C12_4 1_555 1_555
C12_4 C4_4 1_555 1_555
C13_4 C5_4 1_555 1_555
C14_4 N3_4 1_555 1_555
C15_4 N2_4 1_555 1_555
C16_4 N6_4 1_555 1_555
H2_4 C16_4 1_555 1_555
N11_4 C11_4 1_555 1_555
C17_4 C13_4 1_555 1_555
H3_4 C6_4 1_555 1_555
H4_4 C1_4 1_555 1_555
H5_4 C2_4 1_555 1_555
H6_4 C5_4 1_555 1_555
H7_4 C15_4 1_555 1_555
H8_4 N11_4 1_555 1_555
H9_4 C14_4 1_555 1_555
H10_4 N11_4 1_555 1_555
Zn5_4 N5_4 1_555 1_555
N12_4 Zn4_2 1_555 1_555
N3_4 N10_4 1_555 1_555
N7_4 C4_4 1_555 1_555
C1_4 N9_4 1_555 1_555
N8_4 C16_4 1_555 1_555
N9_4 C12_4 1_555 1_555
C8_4 C14_4 1_555 1_555
C9_4 C15_4 1_555 1_555
Zn3_3 N1_5 1_555 1_555
N1_5 N4_5 1_555 1_555
O1_3 C17_5 1_555 1_555
N4_5 C2_5 1_555 1_555
N6_5 Zn3_3 1_555 1_555
O4_3 C17_5 1_555 1_555
C2_5 C13_5 1_555 1_555
C5_5 N1_5 1_555 1_555
C13_5 C5_5 1_555 1_555
C16_5 N6_5 1_555 1_555
H2_5 C16_5 1_555 1_555
C17_5 C13_5 1_555 1_555
H5_5 C2_5 1_555 1_555
H6_5 C5_5 1_555 1_555
Zn5_3 O1_3 1_555 1_555
O10_3 Zn3_3 1_555 1_555
O4_3 Zn5_3 1_555 1_555
O3_5 C10_5 1_555 1_555
N7_5 Zn2_3 1_555 1_555
C1_5 N7_5 1_555 1_555
O5_3 C10_5 1_555 1_555
N10_5 Zn2_3 1_555 1_555
C7_5 N10_5 1_555 1_555
H1_5 C7_5 1_555 1_555
C8_5 C7_5 1_555 1_555
C10_5 C8_5 1_555 1_555
C12_5 C4_5 1_555 1_555
C14_5 N3_5 1_555 1_555
H4_5 C1_5 1_555 1_555
H9_5 C14_5 1_555 1_555
Zn7_3 O5_3 1_555 1_555
O8_3 Zn2_3 1_555 1_555
N3_5 N10_5 1_555 1_555
N7_5 C4_5 1_555 1_555
C1_5 N9_5 1_555 1_555
N9_5 C12_5 1_555 1_555
C8_5 C14_5 1_555 1_555
N2_5 N12 1_555 1_555
N12 C6_5 1_555 1_555
O2_3 C3_5 1_555 1_555
C3_5 O6_5 1_555 1_555
N8_5 C11_5 1_555 1_555
C6_5 C9_5 1_555 1_555
C9_5 C3_5 1_555 1_555
C15_5 N2_5 1_555 1_555
N11_5 C11_5 1_555 1_555
H3_5 C6_5 1_555 1_555
H7_5 C15_5 1_555 1_555
H8_5 N11_5 1_555 1_555
Zn6_3 O2_3 1_555 1_555
C9_5 C15_5 1_555 1_555
O7_3 Zn5 1_555 1_555
O9_3 Zn5 1_555 1_555
N2_6 N12_2 1_555 1_555
N12_2 C6_6 1_555 1_555
O2_4 C3_6 1_555 1_555
C3_6 O6_6 1_555 1_555
N8_6 C11_6 1_555 1_555
C6_6 C9_6 1_555 1_555
C9_6 C3_6 1_555 1_555
C15_6 N2_6 1_555 1_555
N11_6 C11_6 1_555 1_555
H3_6 C6_6 1_555 1_555
H7_6 C15_6 1_555 1_555
H8_6 N11_6 1_555 1_555
Zn6_4 O2_4 1_555 1_555
C9_6 C15_6 1_555 1_555
O7_4 Zn5_2 1_555 1_555
O9_4 Zn5_2 1_555 1_555
Zn3_4 N1_6 1_555 1_555
N1_6 N4_6 1_555 1_555
O1_4 C17_6 1_555 1_555
N4_6 C2_6 1_555 1_555
N6_6 Zn3_4 1_555 1_555
O4_4 C17_6 1_555 1_555
C2_6 C13_6 1_555 1_555
C5_6 N1_6 1_555 1_555
C13_6 C5_6 1_555 1_555
C16_6 N6_6 1_555 1_555
H2_6 C16_6 1_555 1_555
C17_6 C13_6 1_555 1_555
H5_6 C2_6 1_555 1_555
H6_6 C5_6 1_555 1_555
Zn5_4 O1_4 1_555 1_555
O10_4 Zn3_4 1_555 1_555
O4_4 Zn5_4 1_555 1_555
O3_6 C10_6 1_555 1_555
N7_6 Zn2_4 1_555 1_555
C1_6 N7_6 1_555 1_555
O5_4 C10_6 1_555 1_555
N10_6 Zn2_4 1_555 1_555
C7_6 N10_6 1_555 1_555
H1_6 C7_6 1_555 1_555
C8_6 C7_6 1_555 1_555
C10_6 C8_6 1_555 1_555
C12_6 C4_6 1_555 1_555
C14_6 N3_6 1_555 1_555
H4_6 C1_6 1_555 1_555
H9_6 C14_6 1_555 1_555
Zn7_4 O5_4 1_555 1_555
O8_4 Zn2_4 1_555 1_555
N3_6 N10_6 1_555 1_555
N7_6 C4_6 1_555 1_555
C1_6 N9_6 1_555 1_555
N9_6 C12_6 1_555 1_555
C8_6 C14_6 1_555 1_555
Zn5_3 N2_7 1_555 1_555
Zn6_3 N4_7 1_555 1_555
Zn7_4 N1_7 1_555 1_555
N1_7 N4_7 1_555 1_555
N2_7 N12_3 1_555 1_555
N3_7 Zn7_4 1_555 1_555
O7_3 C17_7 1_555 1_555
N4_7 C2_7 1_555 1_555
N12_3 C6_7 1_555 1_555
O8_3 C3_7 1_555 1_555
O3_7 C10_7 1_555 1_555
N6_7 Zn7_4 1_555 1_555
N7_7 Zn6_3 1_555 1_555
C1_7 N7_7 1_555 1_555
O9_3 C17_7 1_555 1_555
C2_7 C13_7 1_555 1_555
C3_7 O6_7 1_555 1_555
C4_7 N6_7 1_555 1_555
C5_7 N1_7 1_555 1_555
N8_7 C11_7 1_555 1_555
C6_7 C9_7 1_555 1_555
N9_7 Zn5_3 1_555 1_555
O10_4 C10_7 1_555 1_555
N10_7 Zn6_3 1_555 1_555
C7_7 N10_7 1_555 1_555
H1_7 C7_7 1_555 1_555
C8_7 C7_7 1_555 1_555
C9_7 C3_7 1_555 1_555
C10_7 C8_7 1_555 1_555
C11_7 C12_7 1_555 1_555
C12_7 C4_7 1_555 1_555
C13_7 C5_7 1_555 1_555
C14_7 N3_7 1_555 1_555
C15_7 N2_7 1_555 1_555
C16_7 N6_7 1_555 1_555
H2_7 C16_7 1_555 1_555
N11_7 C11_7 1_555 1_555
C17_7 C13_7 1_555 1_555
H3_7 C6_7 1_555 1_555
H4_7 C1_7 1_555 1_555
H5_7 C2_7 1_555 1_555
H6_7 C5_7 1_555 1_555
H7_7 C15_7 1_555 1_555
H8_7 N11_7 1_555 1_555
H9_7 C14_7 1_555 1_555
H10_7 N11_7 1_555 1_555
N3_7 N10_7 1_555 1_555
N7_7 C4_7 1_555 1_555
C1_7 N9_7 1_555 1_555
N8_7 C16_7 1_555 1_555
N9_7 C12_7 1_555 1_555
C8_7 C14_7 1_555 1_555
C9_7 C15_7 1_555 1_555
Zn5_4 N2_8 1_555 1_555
Zn6_4 N4_8 1_555 1_555
Zn7_3 N1_8 1_555 1_555
N1_8 N4_8 1_555 1_555
N2_8 N12_4 1_555 1_555
N3_8 Zn7_3 1_555 1_555
O7_4 C17_8 1_555 1_555
N4_8 C2_8 1_555 1_555
N12_4 C6_8 1_555 1_555
O8_4 C3_8 1_555 1_555
O3_8 C10_8 1_555 1_555
N6_8 Zn7_3 1_555 1_555
N7_8 Zn6_4 1_555 1_555
C1_8 N7_8 1_555 1_555
O9_4 C17_8 1_555 1_555
C2_8 C13_8 1_555 1_555
C3_8 O6_8 1_555 1_555
C4_8 N6_8 1_555 1_555
C5_8 N1_8 1_555 1_555
N8_8 C11_8 1_555 1_555
C6_8 C9_8 1_555 1_555
N9_8 Zn5_4 1_555 1_555
O10_3 C10_8 1_555 1_555
N10_8 Zn6_4 1_555 1_555
C7_8 N10_8 1_555 1_555
H1_8 C7_8 1_555 1_555
C8_8 C7_8 1_555 1_555
C9_8 C3_8 1_555 1_555
C10_8 C8_8 1_555 1_555
C11_8 C12_8 1_555 1_555
C12_8 C4_8 1_555 1_555
C13_8 C5_8 1_555 1_555
C14_8 N3_8 1_555 1_555
C15_8 N2_8 1_555 1_555
C16_8 N6_8 1_555 1_555
H2_8 C16_8 1_555 1_555
N11_8 C11_8 1_555 1_555
C17_8 C13_8 1_555 1_555
H3_8 C6_8 1_555 1_555
H4_8 C1_8 1_555 1_555
H5_8 C2_8 1_555 1_555
H6_8 C5_8 1_555 1_555
H7_8 C15_8 1_555 1_555
H8_8 N11_8 1_555 1_555
H9_8 C14_8 1_555 1_555
H10_8 N11_8 1_555 1_555
N3_8 N10_8 1_555 1_555
N7_8 C4_8 1_555 1_555
C1_8 N9_8 1_555 1_555
N8_8 C16_8 1_555 1_555
N9_8 C12_8 1_555 1_555
C8_8 C14_8 1_555 1_555
C9_8 C15_8 1_555 1_555

#END
