
###############################################################################
#
# This file contains modified crystal structure data generated from the
# MOF subset of the Cambridge Structural Database (CSD) v543 
# hosted by the Cambridge Crystallographic Data Centre (CCDC).
#
# This work is licensed under the Creative Commons
# Attribution-NonCommercial-ShareAlike 4.0 International License.
# To view a copy of this license, visit
# http://creativecommons.org/licenses/by-nc-sa/4.0/
# or send a letter to
# Creative Commons, PO Box 1866, Mountain View, CA 94042, USA.
#
# CIF created using the CSD Python API on 29 September 2022
# The structure has been converted into the P1 space group
# The structure has a 3D framework
# The original CSD entry CUFFOZ is in the cubic crystal system
# The framework has been calculated to contain at least 10.0% void space
# The void calculation uses a probe of radius 1.32A, grid spacing 0.4
# The framework is charged, counterions have been retained in the structure
#
###############################################################################

data_CUFFOZ
_chemical_formula_moiety         '(C144 H48 In14 O88 10-)n'
_symmetry_cell_setting           triclinic
_symmetry_space_group_name_H-M   'P 1'
_symmetry_Int_Tables_number      1
_space_group_name_Hall           'P 1'
loop_
_symmetry_equiv_pos_site_id
_symmetry_equiv_pos_as_xyz
1 x,y,z
_cell_length_a                   20.4029(8)
_cell_length_b                   20.4029(8)
_cell_length_c                   20.4029(8)
_cell_angle_alpha                90
_cell_angle_beta                 90
_cell_angle_gamma                90
_cell_volume                     8493.29
loop_
_atom_site_label
_atom_site_type_symbol
_atom_site_fract_x
_atom_site_fract_y
_atom_site_fract_z
In5 In 0.1250 0.5000 0.2500
O7 O 0.0315(3) 0.5357(3) 0.1861(3)
O24 O 0.0837(3) 0.4450(3) 0.1692(3)
C8 C 0.0393(4) 0.4854(4) 0.1540(4)
C17 C 0.0097(4) 0.4152(4) 0.0581(4)
H4 H 0.0454 0.3885 0.0674
C34 C 0.0305(4) 0.0976(4) 0.0049(5)
C35 C 0.0976(4) 0.0049(5) 0.0305(4)
C36 C 0.0049(5) 0.0305(4) 0.0976(4)
In1 In -0.0000 0.2500 0.8750
In6 In 0.3750 0.5000 0.7500
In7 In 0.2500 0.1250 0.5000
O5 O 0.0357(3) 0.3139(3) 0.9685(3)
O8 O 0.0639(3) 0.2143(3) 0.7815(3)
O9 O 0.2815(3) 0.4361(3) 0.7857(3)
O10 O 0.2857(3) 0.2185(3) 0.5639(3)
O25 O 0.0808(3) 0.3050(3) 0.8337(3)
O26 O 0.3337(3) 0.4192(3) 0.6950(3)
O27 O 0.1950(3) 0.1663(3) 0.5808(3)
O28 O 0.0550(3) 0.1692(3) 0.9163(3)
C9 C 0.0960(4) 0.2646(4) 0.7893(4)
C10 C 0.2893(4) 0.4040(4) 0.7354(4)
C11 C 0.2354(4) 0.2107(4) 0.5960(4)
C12 C 0.0146(4) 0.1540(4) 0.9607(4)
C20 C 0.1652(4) 0.2403(4) 0.6919(4)
C21 C 0.1919(4) 0.3348(4) 0.7597(4)
C22 C 0.2597(4) 0.3081(4) 0.6652(4)
C24 C 0.0848(4) 0.0581(4) 0.9903(4)
H7 H 0.1385 0.2046 0.6826
H8 H 0.1826 0.3615 0.7954
H9 H 0.2954 0.3174 0.6385
H11 H 0.1115 0.0674 0.9546
C31 C 0.1524(4) 0.2805(4) 0.7451(5)
C32 C 0.2451(5) 0.3476(4) 0.7195(4)
C33 C 0.2195(4) 0.2549(5) 0.6524(4)
In8 In 0.2500 0.8750 0.0000
O29 O 0.1692(3) 0.9163(3) 0.0550(3)
C13 C 0.1540(4) 0.9607(4) 0.0146(4)
C25 C 0.0581(4) 0.9903(4) 0.0848(4)
H12 H 0.0674 0.9546 0.1115
In8_2 In 0.2500 0.8750 1.0000
O12 O 0.1861(3) 0.9685(3) 0.9643(3)
In4 In 0.7500 0.6250 0.0000
In9 In 0.8750 0.0000 0.2500
O23 O 0.8308(3) 0.5837(3) 0.0550(3)
O30 O 0.9163(3) 0.0550(3) 0.1692(3)
C7 C 0.8460(4) 0.5393(4) 0.0146(4)
C14 C 0.9607(4) 0.0146(4) 0.1540(4)
C19 C 0.9419(4) 0.5097(4) 0.0848(4)
C23 C 0.9903(4) 0.0848(4) 0.0581(4)
H6 H 0.9326 0.5454 0.1115
H10 H 0.9546 0.1115 0.0674
C28 C 0.9695(4) 0.4024(4) 0.0049(5)
C29 C 0.9024(4) 0.4951(5) 0.0305(4)
C30 C 0.9951(5) 0.4695(4) 0.0976(4)
In1_2 In 1.0000 0.2500 0.8750
O1 O 0.9361(3) 0.2857(3) 0.7815(3)
O2 O 0.9192(3) 0.1950(3) 0.8337(3)
C1 C 0.9040(4) 0.2354(4) 0.7893(4)
C2 C 0.8348(4) 0.2597(4) 0.6919(4)
H1 H 0.8615 0.2954 0.6826
C3 C 0.8476(4) 0.2195(4) 0.7451(5)
In2 In 0.6250 0.0000 0.7500
In3 In 0.7500 0.3750 0.5000
In4_2 In 0.7500 0.6250 1.0000
O3 O 0.7185(3) 0.0639(3) 0.7857(3)
O4 O 0.7143(3) 0.2815(3) 0.5639(3)
O6 O 0.8139(3) 0.5315(3) 0.9643(3)
O11 O 0.9643(3) 0.1861(3) 0.9685(3)
O16 O 0.5315(3) 0.0357(3) 0.6861(3)
O17 O 0.6861(3) 0.4685(3) 0.4643(3)
O18 O 0.7857(3) 0.2815(3) 0.4361(3)
O19 O 0.8139(3) 0.4685(3) 0.5357(3)
O20 O 0.6663(3) 0.0808(3) 0.6950(3)
O21 O 0.8050(3) 0.3337(3) 0.5808(3)
O22 O 0.9450(3) 0.3308(3) 0.9163(3)
O31 O 0.5837(3) 0.0550(3) 0.8308(3)
O34 O 0.6692(3) 0.4163(3) 0.5550(3)
O35 O 0.6950(3) 0.3337(3) 0.4192(3)
O36 O 0.8308(3) 0.4163(3) 0.4450(3)
C4 C 0.7107(4) 0.0960(4) 0.7354(4)
C5 C 0.7646(4) 0.2893(4) 0.5960(4)
C6 C 0.9854(4) 0.3460(4) 0.9607(4)
C15 C 0.8081(4) 0.1652(4) 0.7597(4)
C16 C 0.7403(4) 0.1919(4) 0.6652(4)
C18 C 0.9152(4) 0.4419(4) 0.9903(4)
H2 H 0.8174 0.1385 0.7954
H3 H 0.7046 0.1826 0.6385
H5 H 0.8885 0.4326 0.9546
C26 C 0.7549(5) 0.1524(4) 0.7195(4)
C27 C 0.7805(4) 0.2451(5) 0.6524(4)
In9_2 In 0.8750 1.0000 0.2500
O13 O 0.9685(3) 0.9643(3) 0.1861(3)
In2_2 In 0.6250 1.0000 0.7500
O14 O 0.5315(3) 0.9643(3) 0.8139(3)
O15 O 0.7185(3) 0.9361(3) 0.7143(3)
O32 O 0.6663(3) 0.9192(3) 0.8050(3)
O33 O 0.5837(3) 0.9450(3) 0.6692(3)
O12_2 O 0.3139(3) 0.0315(3) 0.4643(3)
O14_2 O 0.9685(3) 0.0357(3) 0.3139(3)
O15_2 O 0.7815(3) 0.0639(3) 0.2143(3)
O29_2 O 0.3308(3) 0.0837(3) 0.5550(3)
O32_2 O 0.8337(3) 0.0808(3) 0.3050(3)
C13_2 C 0.3460(4) 0.0393(4) 0.5146(4)
C25_2 C 0.4419(4) 0.0097(4) 0.5848(4)
H12_2 H 0.4326 0.0454 0.6115
In1_3 In 0.5000 0.7500 0.3750
O1_2 O 0.5639(3) 0.7143(3) 0.2815(3)
O2_2 O 0.5808(3) 0.8050(3) 0.3337(3)
C1_2 C 0.5960(4) 0.7646(4) 0.2893(4)
C2_2 C 0.6652(4) 0.7403(4) 0.1919(4)
H1_2 H 0.6385 0.7046 0.1826
C3_2 C 0.6524(4) 0.7805(4) 0.2451(5)
O3_2 O 0.7815(3) 0.9361(3) 0.2857(3)
O4_2 O 0.7857(3) 0.7185(3) 0.0639(3)
O5_2 O 0.4643(3) 0.6861(3) 0.4685(3)
O7_2 O 0.4685(3) 0.4643(3) 0.6861(3)
O8_2 O 0.4361(3) 0.7857(3) 0.2815(3)
O9_2 O 0.2185(3) 0.5639(3) 0.2857(3)
O10_2 O 0.2143(3) 0.7815(3) 0.0639(3)
O11_2 O 0.5357(3) 0.8139(3) 0.4685(3)
O19_2 O 0.6861(3) 0.5315(3) 0.0357(3)
O20_2 O 0.8337(3) 0.9192(3) 0.1950(3)
O21_2 O 0.6950(3) 0.6663(3) 0.0808(3)
O22_2 O 0.5550(3) 0.6692(3) 0.4163(3)
O24_2 O 0.4163(3) 0.5550(3) 0.6692(3)
O25_2 O 0.4192(3) 0.6950(3) 0.3337(3)
O26_2 O 0.1663(3) 0.5808(3) 0.1950(3)
O27_2 O 0.3050(3) 0.8337(3) 0.0808(3)
O28_2 O 0.4450(3) 0.8308(3) 0.4163(3)
O31_2 O 0.9163(3) 0.9450(3) 0.3308(3)
C4_2 C 0.7893(4) 0.9040(4) 0.2354(4)
C5_2 C 0.7354(4) 0.7107(4) 0.0960(4)
C6_2 C 0.5146(4) 0.6540(4) 0.4607(4)
C7_2 C 0.6540(4) 0.4607(4) 0.5146(4)
C8_2 C 0.4607(4) 0.5146(4) 0.6540(4)
C9_2 C 0.4040(4) 0.7354(4) 0.2893(4)
C10_2 C 0.2107(4) 0.5960(4) 0.2354(4)
C11_2 C 0.2646(4) 0.7893(4) 0.0960(4)
C12_2 C 0.4854(4) 0.8460(4) 0.4607(4)
C14_2 C 0.5393(4) 0.9854(4) 0.6540(4)
C15_2 C 0.6919(4) 0.8348(4) 0.2597(4)
C16_2 C 0.7597(4) 0.8081(4) 0.1652(4)
C17_2 C 0.4903(4) 0.5848(4) 0.5581(4)
C18_2 C 0.5848(4) 0.5581(4) 0.4903(4)
C19_2 C 0.5581(4) 0.4903(4) 0.5848(4)
C20_2 C 0.3348(4) 0.7597(4) 0.1919(4)
C21_2 C 0.3081(4) 0.6652(4) 0.2597(4)
C22_2 C 0.2403(4) 0.6919(4) 0.1652(4)
C23_2 C 0.5097(4) 0.9152(4) 0.5581(4)
C24_2 C 0.4152(4) 0.9419(4) 0.4903(4)
H2_2 H 0.6826 0.8615 0.2954
H3_2 H 0.7954 0.8174 0.1385
H4_2 H 0.4546 0.6115 0.5674
H5_2 H 0.6115 0.5674 0.4546
H6_2 H 0.5674 0.4546 0.6115
H7_2 H 0.3615 0.7954 0.1826
H8_2 H 0.3174 0.6385 0.2954
H9_2 H 0.2046 0.6826 0.1385
H10_2 H 0.5454 0.8885 0.5674
H11_2 H 0.3885 0.9326 0.4546
C26_2 C 0.7451(5) 0.8476(4) 0.2195(4)
C27_2 C 0.7195(4) 0.7549(5) 0.1524(4)
C28_2 C 0.5305(4) 0.5976(4) 0.5049(5)
C29_2 C 0.5976(4) 0.5049(5) 0.5305(4)
C30_2 C 0.5049(5) 0.5305(4) 0.5976(4)
C31_2 C 0.3476(4) 0.7195(4) 0.2451(5)
C32_2 C 0.2549(5) 0.6524(4) 0.2195(4)
C33_2 C 0.2805(4) 0.7451(5) 0.1524(4)
C34_2 C 0.4695(4) 0.9024(4) 0.5049(5)
C35_2 C 0.4024(4) 0.9951(5) 0.5305(4)
C36_2 C 0.4951(5) 0.9695(4) 0.5976(4)
O18_2 O 0.7143(3) 0.7185(3) 0.9361(3)
O35_2 O 0.8050(3) 0.6663(3) 0.9192(3)
O36_2 O 0.6692(3) 0.5837(3) 0.9450(3)
O6_2 O 0.1861(3) 0.0315(3) 0.5357(3)
O23_2 O 0.1692(3) 0.0837(3) 0.4450(3)
C7_3 C 0.1540(4) 0.0393(4) 0.4854(4)
C19_3 C 0.0581(4) 0.0097(4) 0.4152(4)
H6_3 H 0.0674 0.0454 0.3885
O17_2 O 0.3139(3) 0.9685(3) 0.0357(3)
In1_4 In 0.0000 0.7500 0.6250
O1_3 O 0.0639(3) 0.7857(3) 0.7185(3)
O2_3 O 0.0808(3) 0.6950(3) 0.6663(3)
C1_3 C 0.0960(4) 0.7354(4) 0.7107(4)
C2_3 C 0.1652(4) 0.7597(4) 0.8081(4)
H1_3 H 0.1385 0.7954 0.8174
C3_3 C 0.1524(4) 0.7195(4) 0.7549(5)
O3_3 O 0.2815(3) 0.5639(3) 0.7143(3)
O4_3 O 0.2857(3) 0.7815(3) 0.9361(3)
O11_3 O 0.0357(3) 0.6861(3) 0.5315(3)
O13_2 O 0.0315(3) 0.4643(3) 0.3139(3)
O16_2 O 0.4685(3) 0.5357(3) 0.8139(3)
O20_3 O 0.3337(3) 0.5808(3) 0.8050(3)
O21_3 O 0.1950(3) 0.8337(3) 0.9192(3)
O22_3 O 0.0550(3) 0.8308(3) 0.5837(3)
O30_2 O 0.0837(3) 0.5550(3) 0.3308(3)
O33_2 O 0.4163(3) 0.4450(3) 0.8308(3)
O34_2 O 0.3308(3) 0.9163(3) 0.9450(3)
C4_3 C 0.2893(4) 0.5960(4) 0.7646(4)
C5_3 C 0.2354(4) 0.7893(4) 0.9040(4)
C6_3 C 0.0146(4) 0.8460(4) 0.5393(4)
C14_3 C 0.0393(4) 0.5146(4) 0.3460(4)
C15_3 C 0.1919(4) 0.6652(4) 0.7403(4)
C16_3 C 0.2597(4) 0.6919(4) 0.8348(4)
C18_3 C 0.0848(4) 0.9419(4) 0.5097(4)
C23_3 C 0.0097(4) 0.5848(4) 0.4419(4)
H2_3 H 0.1826 0.6385 0.7046
H3_3 H 0.2954 0.6826 0.8615
H5_3 H 0.1115 0.9326 0.5454
H10_3 H 0.0454 0.6115 0.4326
C26_3 C 0.2451(5) 0.6524(4) 0.7805(4)
C27_3 C 0.2195(4) 0.7451(5) 0.8476(4)
C28_3 C 0.0305(4) 0.9024(4) 0.4951(5)
C29_3 C 0.0976(4) 0.9951(5) 0.4695(4)
C30_3 C 0.0049(5) 0.9695(4) 0.4024(4)
In1_5 In 1.0000 0.7500 0.6250
O5_3 O 0.9643(3) 0.8139(3) 0.5315(3)
O8_3 O 0.9361(3) 0.7143(3) 0.7185(3)
O25_3 O 0.9192(3) 0.8050(3) 0.6663(3)
O28_3 O 0.9450(3) 0.6692(3) 0.5837(3)
C8_3 C 0.9607(4) 0.9854(4) 0.3460(4)
C9_3 C 0.9040(4) 0.7646(4) 0.7107(4)
C10_3 C 0.7107(4) 0.9040(4) 0.7646(4)
C11_3 C 0.7646(4) 0.7107(4) 0.9040(4)
C12_3 C 0.9854(4) 0.6540(4) 0.5393(4)
C13_3 C 0.8460(4) 0.4607(4) 0.4854(4)
C17_3 C 0.9903(4) 0.9152(4) 0.4419(4)
C20_3 C 0.8348(4) 0.7403(4) 0.8081(4)
C21_3 C 0.8081(4) 0.8348(4) 0.7403(4)
C22_3 C 0.7403(4) 0.8081(4) 0.8348(4)
C24_3 C 0.9152(4) 0.5581(4) 0.5097(4)
C25_3 C 0.9419(4) 0.4903(4) 0.4152(4)
H4_3 H 0.9546 0.8885 0.4326
H7_3 H 0.8615 0.7046 0.8174
H8_3 H 0.8174 0.8615 0.7046
H9_3 H 0.7046 0.8174 0.8615
H11_3 H 0.8885 0.5674 0.5454
H12_3 H 0.9326 0.4546 0.3885
C31_3 C 0.8476(4) 0.7805(4) 0.7549(5)
C32_3 C 0.7549(5) 0.8476(4) 0.7805(4)
C33_3 C 0.7805(4) 0.7549(5) 0.8476(4)
C34_3 C 0.9695(4) 0.5976(4) 0.4951(5)
C35_3 C 0.9024(4) 0.5049(5) 0.4695(4)
C36_3 C 0.9951(5) 0.5305(4) 0.4024(4)
In1_6 In 0.5000 0.2500 0.1250
O1_4 O 0.4361(3) 0.2143(3) 0.2185(3)
O2_4 O 0.4192(3) 0.3050(3) 0.1663(3)
C1_4 C 0.4040(4) 0.2646(4) 0.2107(4)
C2_4 C 0.3348(4) 0.2403(4) 0.3081(4)
H1_4 H 0.3615 0.2046 0.3174
C3_4 C 0.3476(4) 0.2805(4) 0.2549(5)
O3_4 O 0.2185(3) 0.4361(3) 0.2143(3)
O4_4 O 0.2143(3) 0.2185(3) 0.4361(3)
O5_4 O 0.5357(3) 0.1861(3) 0.0315(3)
O8_4 O 0.5639(3) 0.2857(3) 0.2185(3)
O11_4 O 0.4643(3) 0.3139(3) 0.0315(3)
O20_4 O 0.1663(3) 0.4192(3) 0.3050(3)
O21_4 O 0.3050(3) 0.1663(3) 0.4192(3)
O22_4 O 0.4450(3) 0.1692(3) 0.0837(3)
O25_4 O 0.5808(3) 0.1950(3) 0.1663(3)
O28_4 O 0.5550(3) 0.3308(3) 0.0837(3)
C4_4 C 0.2107(4) 0.4040(4) 0.2646(4)
C5_4 C 0.2646(4) 0.2107(4) 0.4040(4)
C6_4 C 0.4854(4) 0.1540(4) 0.0393(4)
C9_4 C 0.5960(4) 0.2354(4) 0.2107(4)
C10_4 C 0.7893(4) 0.0960(4) 0.2646(4)
C11_4 C 0.7354(4) 0.2893(4) 0.4040(4)
C12_4 C 0.5146(4) 0.3460(4) 0.0393(4)
C15_4 C 0.3081(4) 0.3348(4) 0.2403(4)
C16_4 C 0.2403(4) 0.3081(4) 0.3348(4)
C18_4 C 0.4152(4) 0.0581(4) 0.0097(4)
C20_4 C 0.6652(4) 0.2597(4) 0.3081(4)
C21_4 C 0.6919(4) 0.1652(4) 0.2403(4)
C22_4 C 0.7597(4) 0.1919(4) 0.3348(4)
C24_4 C 0.5848(4) 0.4419(4) 0.0097(4)
H2_4 H 0.3174 0.3615 0.2046
H3_4 H 0.2046 0.3174 0.3615
H5_4 H 0.3885 0.0674 0.0454
H7_4 H 0.6385 0.2954 0.3174
H8_4 H 0.6826 0.1385 0.2046
H9_4 H 0.7954 0.1826 0.3615
H11_4 H 0.6115 0.4326 0.0454
C26_4 C 0.2549(5) 0.3476(4) 0.2805(4)
C27_4 C 0.2805(4) 0.2549(5) 0.3476(4)
C31_4 C 0.6524(4) 0.2195(4) 0.2549(5)
C32_4 C 0.7451(5) 0.1524(4) 0.2805(4)
C33_4 C 0.7195(4) 0.2451(5) 0.3476(4)
C8_4 C 0.5393(4) 0.0146(4) 0.8460(4)
C13_4 C 0.6540(4) 0.5393(4) 0.9854(4)
C14_4 C 0.4607(4) 0.4854(4) 0.8460(4)
C17_4 C 0.5097(4) 0.0848(4) 0.9419(4)
C23_4 C 0.4903(4) 0.4152(4) 0.9419(4)
C25_4 C 0.5581(4) 0.5097(4) 0.9152(4)
H4_4 H 0.5454 0.1115 0.9326
H10_4 H 0.4546 0.3885 0.9326
H12_4 H 0.5674 0.5454 0.8885
C28_4 C 0.4695(4) 0.0976(4) 0.9951(5)
C29_4 C 0.4024(4) 0.0049(5) 0.9695(4)
C30_4 C 0.4951(5) 0.0305(4) 0.9024(4)
C34_4 C 0.5305(4) 0.4024(4) 0.9951(5)
C35_4 C 0.5976(4) 0.4951(5) 0.9695(4)
C36_4 C 0.5049(5) 0.4695(4) 0.9024(4)
C7_4 C 0.3460(4) 0.9607(4) 0.9854(4)
C19_4 C 0.4419(4) 0.9903(4) 0.9152(4)
H6_4 H 0.4326 0.9546 0.8885
loop_
_geom_bond_atom_site_label_1
_geom_bond_atom_site_label_2
_geom_bond_site_symmetry_1
_geom_bond_site_symmetry_2
In5 O7 1_555 1_555
O7 C8 1_555 1_555
O24 In5 1_555 1_555
C8 O24 1_555 1_555
C17 H4 1_555 1_555
In6 O9 1_555 1_555
In7 O10 1_555 1_555
O5 In1 1_555 1_555
O8 In1 1_555 1_555
O9 C10 1_555 1_555
O10 C11 1_555 1_555
O25 In1 1_555 1_555
O26 In6 1_555 1_555
O27 In7 1_555 1_555
O28 In1 1_555 1_555
C9 O8 1_555 1_555
C10 O26 1_555 1_555
C11 O27 1_555 1_555
C20 H7 1_555 1_555
C21 H8 1_555 1_555
C22 H9 1_555 1_555
C24 H11 1_555 1_555
C31 C9 1_555 1_555
C32 C10 1_555 1_555
C33 C11 1_555 1_555
O25 C9 1_555 1_555
O28 C12 1_555 1_555
C20 C31 1_555 1_555
C20 C33 1_555 1_555
C21 C31 1_555 1_555
C21 C32 1_555 1_555
C22 C32 1_555 1_555
C22 C33 1_555 1_555
O29 In8 1_555 1_555
C13 O29 1_555 1_555
C25 H12 1_555 1_555
In8_2 O12 1_555 1_555
O23 In4 1_555 1_555
O30 In9 1_555 1_555
C7 O23 1_555 1_555
C14 O30 1_555 1_555
C19 H6 1_555 1_555
C23 H10 1_555 1_555
C29 C7 1_555 1_555
C19 C29 1_555 1_555
C19 C30 1_555 1_555
In1_2 O1 1_555 1_555
O1 C1 1_555 1_555
O2 In1_2 1_555 1_555
C1 O2 1_555 1_555
C2 H1 1_555 1_555
C3 C1 1_555 1_555
In2 O3 1_555 1_555
In3 O4 1_555 1_555
In4_2 O6 1_555 1_555
O3 C4 1_555 1_555
O4 C5 1_555 1_555
O11 In1_2 1_555 1_555
O16 In2 1_555 1_555
O17 In3 1_555 1_555
O18 In3 1_555 1_555
O19 In3 1_555 1_555
O20 In2 1_555 1_555
O21 In3 1_555 1_555
O22 In1_2 1_555 1_555
O31 In2 1_555 1_555
O34 In3 1_555 1_555
O35 In3 1_555 1_555
O36 In3 1_555 1_555
C4 O20 1_555 1_555
C5 O21 1_555 1_555
C15 C3 1_555 1_555
C16 H3 1_555 1_555
C18 H5 1_555 1_555
H2 C15 1_555 1_555
C26 C4 1_555 1_555
C27 C2 1_555 1_555
C2 C3 1_555 1_555
O22 C6 1_555 1_555
C5 C27 1_555 1_555
C15 C26 1_555 1_555
C16 C26 1_555 1_555
C16 C27 1_555 1_555
In9_2 O13 1_555 1_555
O14 In2_2 1_555 1_555
O15 In2_2 1_555 1_555
O32 In2_2 1_555 1_555
O33 In2_2 1_555 1_555
In7 O12_2 1_555 1_555
O12_2 C13_2 1_555 1_555
O14_2 In9 1_555 1_555
O15_2 In9 1_555 1_555
O29_2 In7 1_555 1_555
O32_2 In9 1_555 1_555
C13_2 O29_2 1_555 1_555
C25_2 H12_2 1_555 1_555
In1_3 O1_2 1_555 1_555
O1_2 C1_2 1_555 1_555
O2_2 In1_3 1_555 1_555
C1_2 O2_2 1_555 1_555
C2_2 H1_2 1_555 1_555
C3_2 C1_2 1_555 1_555
In9_2 O3_2 1_555 1_555
In4 O4_2 1_555 1_555
In6 O7_2 1_555 1_555
In5 O9_2 1_555 1_555
In8 O10_2 1_555 1_555
O3_2 C4_2 1_555 1_555
O4_2 C5_2 1_555 1_555
O5_2 In1_3 1_555 1_555
O17 C7_2 1_555 1_555
O7_2 C8_2 1_555 1_555
O8_2 In1_3 1_555 1_555
O9_2 C10_2 1_555 1_555
O10_2 C11_2 1_555 1_555
O11_2 In1_3 1_555 1_555
O19_2 In4 1_555 1_555
O20_2 In9_2 1_555 1_555
O21_2 In4 1_555 1_555
O22_2 In1_3 1_555 1_555
O24_2 In6 1_555 1_555
O25_2 In1_3 1_555 1_555
O26_2 In5 1_555 1_555
O27_2 In8 1_555 1_555
O28_2 In1_3 1_555 1_555
O31_2 In9_2 1_555 1_555
C4_2 O20_2 1_555 1_555
C5_2 O21_2 1_555 1_555
C6_2 O5_2 1_555 1_555
C7_2 O34 1_555 1_555
C8_2 O24_2 1_555 1_555
C9_2 O8_2 1_555 1_555
C10_2 O26_2 1_555 1_555
C11_2 O27_2 1_555 1_555
C12_2 O11_2 1_555 1_555
C14_2 O33 1_555 1_555
C15_2 C3_2 1_555 1_555
C16_2 H3_2 1_555 1_555
C17_2 H4_2 1_555 1_555
C18_2 H5_2 1_555 1_555
C19_2 H6_2 1_555 1_555
C20_2 H7_2 1_555 1_555
C21_2 H8_2 1_555 1_555
C22_2 H9_2 1_555 1_555
C23_2 H10_2 1_555 1_555
C24_2 H11_2 1_555 1_555
H2_2 C15_2 1_555 1_555
C26_2 C4_2 1_555 1_555
C27_2 C2_2 1_555 1_555
C28_2 C6_2 1_555 1_555
C29_2 C7_2 1_555 1_555
C30_2 C8_2 1_555 1_555
C31_2 C9_2 1_555 1_555
C32_2 C10_2 1_555 1_555
C33_2 C11_2 1_555 1_555
C34_2 C12_2 1_555 1_555
C36_2 C14_2 1_555 1_555
C2_2 C3_2 1_555 1_555
O22_2 C6_2 1_555 1_555
O25_2 C9_2 1_555 1_555
O28_2 C12_2 1_555 1_555
C5_2 C27_2 1_555 1_555
C15_2 C26_2 1_555 1_555
C16_2 C26_2 1_555 1_555
C16_2 C27_2 1_555 1_555
C17_2 C28_2 1_555 1_555
C17_2 C30_2 1_555 1_555
C18_2 C28_2 1_555 1_555
C18_2 C29_2 1_555 1_555
C19_2 C29_2 1_555 1_555
C19_2 C30_2 1_555 1_555
C20_2 C31_2 1_555 1_555
C20_2 C33_2 1_555 1_555
C21_2 C31_2 1_555 1_555
C21_2 C32_2 1_555 1_555
C22_2 C32_2 1_555 1_555
C22_2 C33_2 1_555 1_555
C23_2 C34_2 1_555 1_555
C23_2 C36_2 1_555 1_555
C24_2 C34_2 1_555 1_555
C24_2 C35_2 1_555 1_555
O18_2 In4_2 1_555 1_555
O35_2 In4_2 1_555 1_555
O36_2 In4_2 1_555 1_555
In7 O6_2 1_555 1_555
O6_2 C7_3 1_555 1_555
O23_2 In7 1_555 1_555
C7_3 O23_2 1_555 1_555
C19_3 H6_3 1_555 1_555
O17_2 In8 1_555 1_555
In1_4 O1_3 1_555 1_555
O1_3 C1_3 1_555 1_555
O2_3 In1_4 1_555 1_555
C1_3 O2_3 1_555 1_555
C2_3 H1_3 1_555 1_555
C3_3 C1_3 1_555 1_555
In6 O3_3 1_555 1_555
In8_2 O4_3 1_555 1_555
In5 O13_2 1_555 1_555
O3_3 C4_3 1_555 1_555
O4_3 C5_3 1_555 1_555
O11_3 In1_4 1_555 1_555
O13_2 C14_3 1_555 1_555
O16_2 In6 1_555 1_555
O20_3 In6 1_555 1_555
O21_3 In8_2 1_555 1_555
O22_3 In1_4 1_555 1_555
O30_2 In5 1_555 1_555
O33_2 In6 1_555 1_555
O34_2 In8_2 1_555 1_555
C4_3 O20_3 1_555 1_555
C5_3 O21_3 1_555 1_555
C14_3 O30_2 1_555 1_555
C15_3 C3_3 1_555 1_555
C16_3 H3_3 1_555 1_555
C18_3 H5_3 1_555 1_555
C23_3 H10_3 1_555 1_555
H2_3 C15_3 1_555 1_555
C26_3 C4_3 1_555 1_555
C27_3 C2_3 1_555 1_555
C28_3 C6_3 1_555 1_555
C2_3 C3_3 1_555 1_555
O22_3 C6_3 1_555 1_555
C5_3 C27_3 1_555 1_555
C15_3 C26_3 1_555 1_555
C16_3 C26_3 1_555 1_555
C16_3 C27_3 1_555 1_555
C18_3 C28_3 1_555 1_555
C18_3 C29_3 1_555 1_555
O5_3 In1_5 1_555 1_555
O8_3 In1_5 1_555 1_555
O15 C10_3 1_555 1_555
O18_2 C11_3 1_555 1_555
O19 C13_3 1_555 1_555
O25_3 In1_5 1_555 1_555
O28_3 In1_5 1_555 1_555
C8_3 O31_2 1_555 1_555
C9_3 O8_3 1_555 1_555
C10_3 O32 1_555 1_555
C11_3 O35_2 1_555 1_555
C13_3 O36 1_555 1_555
C17_3 H4_3 1_555 1_555
C20_3 H7_3 1_555 1_555
C21_3 H8_3 1_555 1_555
C22_3 H9_3 1_555 1_555
C24_3 H11_3 1_555 1_555
C25_3 H12_3 1_555 1_555
C31_3 C9_3 1_555 1_555
C32_3 C10_3 1_555 1_555
C33_3 C11_3 1_555 1_555
C34_3 C12_3 1_555 1_555
C35_3 C13_3 1_555 1_555
O25_3 C9_3 1_555 1_555
O28_3 C12_3 1_555 1_555
C20_3 C31_3 1_555 1_555
C20_3 C33_3 1_555 1_555
C21_3 C31_3 1_555 1_555
C21_3 C32_3 1_555 1_555
C22_3 C32_3 1_555 1_555
C22_3 C33_3 1_555 1_555
C24_3 C34_3 1_555 1_555
C24_3 C35_3 1_555 1_555
C25_3 C35_3 1_555 1_555
C25_3 C36_3 1_555 1_555
In1_6 O1_4 1_555 1_555
O1_4 C1_4 1_555 1_555
O2_4 In1_6 1_555 1_555
C1_4 O2_4 1_555 1_555
C2_4 H1_4 1_555 1_555
C3_4 C1_4 1_555 1_555
In5 O3_4 1_555 1_555
In7 O4_4 1_555 1_555
O3_4 C4_4 1_555 1_555
O4_4 C5_4 1_555 1_555
O5_4 In1_6 1_555 1_555
O8_4 In1_6 1_555 1_555
O15_2 C10_4 1_555 1_555
O18 C11_4 1_555 1_555
O11_4 In1_6 1_555 1_555
O20_4 In5 1_555 1_555
O21_4 In7 1_555 1_555
O22_4 In1_6 1_555 1_555
O25_4 In1_6 1_555 1_555
O28_4 In1_6 1_555 1_555
C4_4 O20_4 1_555 1_555
C5_4 O21_4 1_555 1_555
C6_4 O5_4 1_555 1_555
C9_4 O8_4 1_555 1_555
C10_4 O32_2 1_555 1_555
C11_4 O35 1_555 1_555
C12_4 O11_4 1_555 1_555
C15_4 C3_4 1_555 1_555
C16_4 H3_4 1_555 1_555
C18_4 H5_4 1_555 1_555
C20_4 H7_4 1_555 1_555
C21_4 H8_4 1_555 1_555
C22_4 H9_4 1_555 1_555
C24_4 H11_4 1_555 1_555
H2_4 C15_4 1_555 1_555
C26_4 C4_4 1_555 1_555
C27_4 C2_4 1_555 1_555
C31_4 C9_4 1_555 1_555
C32_4 C10_4 1_555 1_555
C33_4 C11_4 1_555 1_555
C2_4 C3_4 1_555 1_555
O22_4 C6_4 1_555 1_555
O25_4 C9_4 1_555 1_555
O28_4 C12_4 1_555 1_555
C5_4 C27_4 1_555 1_555
C15_4 C26_4 1_555 1_555
C16_4 C26_4 1_555 1_555
C16_4 C27_4 1_555 1_555
C20_4 C31_4 1_555 1_555
C20_4 C33_4 1_555 1_555
C21_4 C31_4 1_555 1_555
C21_4 C32_4 1_555 1_555
C22_4 C32_4 1_555 1_555
C22_4 C33_4 1_555 1_555
O16_2 C14_4 1_555 1_555
C8_4 O31 1_555 1_555
C13_4 O36_2 1_555 1_555
C14_4 O33_2 1_555 1_555
C17_4 H4_4 1_555 1_555
C23_4 H10_4 1_555 1_555
C25_4 H12_4 1_555 1_555
C30_4 C8_4 1_555 1_555
C35_4 C13_4 1_555 1_555
C36_4 C14_4 1_555 1_555
C17_4 C28_4 1_555 1_555
C17_4 C30_4 1_555 1_555
C23_4 C34_4 1_555 1_555
C23_4 C36_4 1_555 1_555
C25_4 C35_4 1_555 1_555
C25_4 C36_4 1_555 1_555
C7_4 O34_2 1_555 1_555
C19_4 H6_4 1_555 1_555

#END
