
###############################################################################
#
# This file contains modified crystal structure data generated from the
# MOF subset of the Cambridge Structural Database (CSD) v543 
# hosted by the Cambridge Crystallographic Data Centre (CCDC).
#
# This work is licensed under the Creative Commons
# Attribution-NonCommercial-ShareAlike 4.0 International License.
# To view a copy of this license, visit
# http://creativecommons.org/licenses/by-nc-sa/4.0/
# or send a letter to
# Creative Commons, PO Box 1866, Mountain View, CA 94042, USA.
#
# CIF created using the CSD Python API on 29 September 2022
# The structure has been converted into the P1 space group
# The structure has a 3D framework
# The original CSD entry CUFFIT is in the cubic crystal system
# The framework has been calculated to contain at least 10.0% void space
# The void calculation uses a probe of radius 1.32A, grid spacing 0.4
# The framework is charged, counterions have been retained in the structure
#
###############################################################################

data_CUFFIT
_chemical_formula_moiety         '(C144 H48 In14 O88 9-)n'
_symmetry_cell_setting           triclinic
_symmetry_space_group_name_H-M   'P 1'
_symmetry_Int_Tables_number      1
_space_group_name_Hall           'P 1'
loop_
_symmetry_equiv_pos_site_id
_symmetry_equiv_pos_as_xyz
1 x,y,z
_cell_length_a                   20.43100(10)
_cell_length_b                   20.43100(10)
_cell_length_c                   20.43100(10)
_cell_angle_alpha                90
_cell_angle_beta                 90
_cell_angle_gamma                90
_cell_volume                     8528.43
loop_
_atom_site_label
_atom_site_type_symbol
_atom_site_fract_x
_atom_site_fract_y
_atom_site_fract_z
In2 In 0.3750 -0.0000 0.2500
O14 O 0.4155(3) 0.0532(3) 0.3329(3)
O15 O 0.3345(3) 0.0829(3) 0.1968(3)
O32 O 0.2817(3) 0.0644(3) 0.2861(3)
O33 O 0.4683(3) 0.0361(3) 0.1856(3)
In5 In 0.1250 -0.0000 0.7500
O24 O 0.0317(3) 0.0361(3) 0.8144(3)
In1 In -0.0000 0.7500 0.1250
O1 O 0.0829(3) 0.8032(3) 0.1655(3)
O2 O 0.0644(3) 0.7139(3) 0.2183(3)
C1 C 0.1533(4) 0.7787(4) 0.2529(5)
C2 C 0.1668(4) 0.7398(4) 0.3062(4)
H1 H 0.1397 0.7045 0.3157
C3 C 0.0978(4) 0.7639(4) 0.2103(4)
In2_2 In 0.3750 1.0000 0.2500
In3 In 0.2500 0.6250 0.5000
In8 In 0.2500 0.3750 0.0000
O3 O 0.3345(3) 0.9171(3) 0.3032(3)
O4 O 0.1968(3) 0.6655(3) 0.4171(3)
O11 O 0.0532(3) 0.6671(3) 0.0845(3)
O16 O 0.4155(3) 0.9468(3) 0.1671(3)
O17 O 0.1671(3) 0.5845(3) 0.5532(3)
O18 O 0.3032(3) 0.6655(3) 0.5829(3)
O19 O 0.3329(3) 0.5845(3) 0.4468(3)
O20 O 0.2817(3) 0.9356(3) 0.2139(3)
O21 O 0.2861(3) 0.7183(3) 0.4356(3)
O22 O 0.0361(3) 0.8144(3) 0.0317(3)
O29 O 0.1856(3) 0.4683(3) 0.0361(3)
O31 O 0.4683(3) 0.9639(3) 0.3144(3)
O34 O 0.1856(3) 0.5317(3) 0.4639(3)
O35 O 0.2139(3) 0.7183(3) 0.5644(3)
O36 O 0.3144(3) 0.5317(3) 0.5361(3)
C4 C 0.2213(4) 0.7529(5) 0.3467(4)
C5 C 0.2471(5) 0.8467(4) 0.2787(4)
C15 C 0.2602(4) 0.8062(4) 0.3332(4)
C16 C 0.1938(4) 0.8332(4) 0.2398(4)
C25 C 0.0832(4) 0.5562(4) 0.0102(4)
H2 H 0.1843 0.8603 0.2045
H3 H 0.2955 0.8157 0.3603
H11 H 0.1103 0.5657 0.0455
C26 C 0.2897(4) 0.9022(4) 0.2639(4)
C27 C 0.2361(4) 0.7103(4) 0.4022(4)
C34 C 0.0139(4) 0.6522(4) 0.0397(4)
In5_2 In 0.1250 1.0000 0.7500
In8_2 In 0.2500 0.3750 1.0000
O7 O 0.0845(3) 0.9468(3) 0.8329(3)
O12 O 0.1671(3) 0.4155(3) 0.9468(3)
C12 C 0.0287(4) 0.5967(4) 0.9971(5)
C13 C 0.0029(5) 0.5287(4) 0.9033(4)
C14 C 0.0967(4) 0.5029(5) 0.9713(4)
C17 C 0.0102(4) 0.9168(4) 0.9438(4)
C24 C 0.0562(4) 0.4898(4) 0.9168(4)
H4 H 0.0455 0.8897 0.9343
H12 H 0.0657 0.4545 0.8897
C30 C 0.0397(4) 0.9861(4) 0.8478(4)
C35 C 0.1522(4) 0.4603(4) 0.9861(4)
In4 In 0.7500 0.1250 0.0000
O23 O 0.8144(3) 0.0317(3) 0.0361(3)
In4_2 In 0.7500 0.1250 1.0000
O6 O 0.8329(3) 0.0845(3) 0.9468(3)
C18 C 0.9438(4) 0.0102(4) 0.9168(4)
H6 H 0.9343 0.0455 0.8897
C29 C 0.8478(4) 0.0397(4) 0.9861(4)
In1_2 In 1.0000 0.7500 0.1250
In6 In 0.6250 0.5000 0.2500
In7 In 0.7500 0.8750 0.5000
O5 O 0.9468(3) 0.8329(3) 0.0845(3)
O8 O 0.9171(3) 0.6968(3) 0.1655(3)
O9 O 0.6655(3) 0.5829(3) 0.3032(3)
O10 O 0.8032(3) 0.8345(3) 0.4171(3)
O25 O 0.9356(3) 0.7861(3) 0.2183(3)
O26 O 0.7183(3) 0.5644(3) 0.2139(3)
O27 O 0.7139(3) 0.7817(3) 0.4356(3)
O28 O 0.9639(3) 0.6856(3) 0.0317(3)
C9 C 0.8467(4) 0.7213(4) 0.2529(5)
C10 C 0.7787(4) 0.7471(5) 0.3467(4)
C11 C 0.7529(5) 0.6533(4) 0.2787(4)
C19 C 0.9168(4) 0.9438(4) 0.0102(4)
C20 C 0.8332(4) 0.7602(4) 0.3062(4)
C21 C 0.7398(4) 0.6938(4) 0.3332(4)
C22 C 0.8062(4) 0.6668(4) 0.2398(4)
H5 H 0.8897 0.9343 0.0455
H7 H 0.8603 0.7955 0.3157
H8 H 0.8157 0.6397 0.2045
H9 H 0.7045 0.6843 0.3603
C28 C 0.9861(4) 0.8478(4) 0.0397(4)
C31 C 0.9022(4) 0.7361(4) 0.2103(4)
C32 C 0.7103(4) 0.5978(4) 0.2639(4)
C33 C 0.7639(4) 0.7897(4) 0.4022(4)
In9 In 0.8750 0.5000 0.7500
O13 O 0.9155(3) 0.5532(3) 0.8329(3)
O30 O 0.9683(3) 0.4639(3) 0.8144(3)
C6 C 0.9713(4) 0.9033(4) 0.9971(5)
C7 C 0.9971(5) 0.9713(4) 0.9033(4)
C8 C 0.9033(4) 0.9971(5) 0.9713(4)
C23 C 0.9898(4) 0.5832(4) 0.9438(4)
H10 H 0.9545 0.6103 0.9343
C36 C 0.9603(4) 0.5139(4) 0.8478(4)
O17_2 O 0.3329(3) 0.4155(3) 0.0532(3)
O18_2 O 0.1968(3) 0.3345(3) 0.0829(3)
O35_2 O 0.2861(3) 0.2817(3) 0.0644(3)
In1_3 In 0.5000 0.2500 0.6250
O1_2 O 0.4171(3) 0.1968(3) 0.6655(3)
O2_2 O 0.4356(3) 0.2861(3) 0.7183(3)
C1_2 C 0.3467(4) 0.2213(4) 0.7529(5)
C2_2 C 0.3332(4) 0.2602(4) 0.8062(4)
H1_2 H 0.3603 0.2955 0.8157
C3_2 C 0.4022(4) 0.2361(4) 0.7103(4)
O3_2 O 0.1655(3) 0.0829(3) 0.8032(3)
O4_2 O 0.3032(3) 0.3345(3) 0.9171(3)
O5_2 O 0.5532(3) 0.1671(3) 0.5845(3)
O8_2 O 0.5829(3) 0.3032(3) 0.6655(3)
O9_2 O 0.8345(3) 0.4171(3) 0.8032(3)
O10_2 O 0.6968(3) 0.1655(3) 0.9171(3)
O11_2 O 0.4468(3) 0.3329(3) 0.5845(3)
O13_2 O 0.5845(3) 0.4468(3) 0.3329(3)
O16_2 O 0.0845(3) 0.0532(3) 0.6671(3)
O20_2 O 0.2183(3) 0.0644(3) 0.7139(3)
O21_2 O 0.2139(3) 0.2817(3) 0.9356(3)
O22_2 O 0.4639(3) 0.1856(3) 0.5317(3)
O25_2 O 0.5644(3) 0.2139(3) 0.7183(3)
O26_2 O 0.7817(3) 0.4356(3) 0.7139(3)
O27_2 O 0.7861(3) 0.2183(3) 0.9356(3)
O28_2 O 0.5361(3) 0.3144(3) 0.5317(3)
O30_2 O 0.5317(3) 0.5361(3) 0.3144(3)
O34_2 O 0.3144(3) 0.4683(3) 0.9639(3)
C4_2 C 0.2787(4) 0.2471(5) 0.8467(4)
C5_2 C 0.2529(5) 0.1533(4) 0.7787(4)
C6_2 C 0.5287(4) 0.0967(4) 0.4971(5)
C7_2 C 0.5029(5) 0.0287(4) 0.4033(4)
C8_2 C 0.5967(4) 0.0029(5) 0.4713(4)
C9_2 C 0.6533(4) 0.2787(4) 0.7529(5)
C10_2 C 0.7213(4) 0.2529(5) 0.8467(4)
C11_2 C 0.7471(5) 0.3467(4) 0.7787(4)
C12_2 C 0.4713(4) 0.4033(4) 0.4971(5)
C13_2 C 0.4971(5) 0.4713(4) 0.4033(4)
C14_2 C 0.4033(4) 0.4971(5) 0.4713(4)
C15_2 C 0.2398(4) 0.1938(4) 0.8332(4)
C16_2 C 0.3062(4) 0.1668(4) 0.7398(4)
C17_2 C 0.4898(4) 0.0832(4) 0.4438(4)
C19_2 C 0.5832(4) 0.0562(4) 0.5102(4)
C20_2 C 0.6668(4) 0.2398(4) 0.8062(4)
C21_2 C 0.7602(4) 0.3062(4) 0.8332(4)
C22_2 C 0.6938(4) 0.3332(4) 0.7398(4)
C23_2 C 0.5102(4) 0.4168(4) 0.4438(4)
C24_2 C 0.4438(4) 0.5102(4) 0.4168(4)
C25_2 C 0.4168(4) 0.4438(4) 0.5102(4)
H2_2 H 0.3157 0.1397 0.7045
H3_2 H 0.2045 0.1843 0.8603
H4_2 H 0.4545 0.1103 0.4343
H5_2 H 0.6103 0.0657 0.5455
H7_2 H 0.6397 0.2045 0.8157
H8_2 H 0.6843 0.3603 0.7045
H9_2 H 0.7955 0.3157 0.8603
H10_2 H 0.5455 0.3897 0.4343
H11_2 H 0.3897 0.4343 0.5455
H12_2 H 0.4343 0.5455 0.3897
C26_2 C 0.2103(4) 0.0978(4) 0.7639(4)
C27_2 C 0.2639(4) 0.2897(4) 0.9022(4)
C28_2 C 0.5139(4) 0.1522(4) 0.5397(4)
C30_2 C 0.4603(4) 0.0139(4) 0.3478(4)
C31_2 C 0.5978(4) 0.2639(4) 0.7103(4)
C32_2 C 0.7897(4) 0.4022(4) 0.7639(4)
C33_2 C 0.7361(4) 0.2103(4) 0.9022(4)
C34_2 C 0.4861(4) 0.3478(4) 0.5397(4)
C35_2 C 0.3478(4) 0.5397(4) 0.4861(4)
C36_2 C 0.5397(4) 0.4861(4) 0.3478(4)
O6_2 O 0.6671(3) 0.9155(3) 0.4468(3)
O15_2 O 0.1655(3) 0.9171(3) 0.6968(3)
O23_2 O 0.6856(3) 0.9683(3) 0.5361(3)
O32_2 O 0.2183(3) 0.9356(3) 0.7861(3)
O33_2 O 0.0317(3) 0.9639(3) 0.6856(3)
C18_2 C 0.5562(4) 0.9898(4) 0.4168(4)
H6_2 H 0.5657 0.9545 0.3897
C29_2 C 0.6522(4) 0.9603(4) 0.4861(4)
In1_4 In 0.0000 0.2500 0.3750
O5_3 O 0.0532(3) 0.3329(3) 0.4155(3)
O8_3 O 0.0829(3) 0.1968(3) 0.3345(3)
O25_3 O 0.0644(3) 0.2861(3) 0.2817(3)
O28_3 O 0.0361(3) 0.1856(3) 0.4683(3)
C6_3 C 0.0287(4) 0.4033(4) 0.5029(5)
C7_3 C 0.0029(5) 0.4713(4) 0.5967(4)
C8_3 C 0.0967(4) 0.4971(5) 0.5287(4)
C9_3 C 0.1533(4) 0.2213(4) 0.2471(5)
C10_3 C 0.2213(4) 0.2471(5) 0.1533(4)
C11_3 C 0.2471(5) 0.1533(4) 0.2213(4)
C18_3 C 0.0562(4) 0.5102(4) 0.5832(4)
C19_3 C 0.0832(4) 0.4438(4) 0.4898(4)
C20_3 C 0.1668(4) 0.2602(4) 0.1938(4)
C21_3 C 0.2602(4) 0.1938(4) 0.1668(4)
C22_3 C 0.1938(4) 0.1668(4) 0.2602(4)
C23_3 C 0.0102(4) 0.0832(4) 0.5562(4)
H5_3 H 0.1103 0.4343 0.4545
H6_3 H 0.0657 0.5455 0.6103
H7_3 H 0.1397 0.2955 0.1843
H8_3 H 0.1843 0.1397 0.2955
H9_3 H 0.2955 0.1843 0.1397
H10_3 H 0.0455 0.1103 0.5657
C28_3 C 0.0139(4) 0.3478(4) 0.4603(4)
C29_3 C 0.1522(4) 0.5397(4) 0.5139(4)
C31_3 C 0.0978(4) 0.2361(4) 0.2897(4)
C32_3 C 0.2897(4) 0.0978(4) 0.2361(4)
C33_3 C 0.2361(4) 0.2897(4) 0.0978(4)
C36_3 C 0.0397(4) 0.0139(4) 0.6522(4)
In1_5 In 1.0000 0.2500 0.3750
O1_3 O 0.9171(3) 0.3032(3) 0.3345(3)
O2_3 O 0.9356(3) 0.2139(3) 0.2817(3)
C1_3 C 0.8467(4) 0.2787(4) 0.2471(5)
C2_3 C 0.8332(4) 0.2398(4) 0.1938(4)
H1_3 H 0.8603 0.2045 0.1843
C3_3 C 0.9022(4) 0.2639(4) 0.2897(4)
O3_3 O 0.6655(3) 0.4171(3) 0.1968(3)
O4_3 O 0.8032(3) 0.1655(3) 0.0829(3)
O7_2 O 0.9155(3) 0.4468(3) 0.6671(3)
O11_3 O 0.9468(3) 0.1671(3) 0.4155(3)
O14_2 O 0.5845(3) 0.5532(3) 0.1671(3)
O19_2 O 0.6671(3) 0.0845(3) 0.0532(3)
O20_3 O 0.7183(3) 0.4356(3) 0.2861(3)
O21_3 O 0.7139(3) 0.2183(3) 0.0644(3)
O22_3 O 0.9639(3) 0.3144(3) 0.4683(3)
O24_2 O 0.9683(3) 0.5361(3) 0.6856(3)
O31_2 O 0.5317(3) 0.4639(3) 0.1856(3)
C4_3 C 0.7787(4) 0.2529(5) 0.1533(4)
C5_3 C 0.7529(5) 0.3467(4) 0.2213(4)
C12_3 C 0.9713(4) 0.0967(4) 0.5029(5)
C13_3 C 0.9971(5) 0.0287(4) 0.5967(4)
C14_3 C 0.9033(4) 0.0029(5) 0.5287(4)
C15_3 C 0.7398(4) 0.3062(4) 0.1668(4)
C16_3 C 0.8062(4) 0.3332(4) 0.2602(4)
C17_3 C 0.9898(4) 0.4168(4) 0.5562(4)
C25_3 C 0.9168(4) 0.0562(4) 0.4898(4)
H2_3 H 0.8157 0.3603 0.2955
H3_3 H 0.7045 0.3157 0.1397
H4_3 H 0.9545 0.3897 0.5657
H11_3 H 0.8897 0.0657 0.4545
C26_3 C 0.7103(4) 0.4022(4) 0.2361(4)
C27_3 C 0.7639(4) 0.2103(4) 0.0978(4)
C30_3 C 0.9603(4) 0.4861(4) 0.6522(4)
C34_3 C 0.9861(4) 0.1522(4) 0.4603(4)
O36_2 O 0.6856(3) 0.0317(3) 0.9639(3)
O12_2 O 0.8329(3) 0.9155(3) 0.5532(3)
O29_2 O 0.8144(3) 0.9683(3) 0.4639(3)
C24_3 C 0.9438(4) 0.9898(4) 0.5832(4)
H12_3 H 0.9343 0.9545 0.6103
C35_3 C 0.8478(4) 0.9603(4) 0.5139(4)
C24_4 C 0.5562(4) 0.0102(4) 0.0832(4)
H12_4 H 0.5657 0.0455 0.1103
C35_4 C 0.6522(4) 0.0397(4) 0.0139(4)
C6_4 C 0.4713(4) 0.5967(4) 0.0029(5)
C7_4 C 0.4971(5) 0.5287(4) 0.0967(4)
C8_4 C 0.4033(4) 0.5029(5) 0.0287(4)
C12_4 C 0.5287(4) 0.9033(4) 0.0029(5)
C13_4 C 0.5029(5) 0.9713(4) 0.0967(4)
C14_4 C 0.5967(4) 0.9971(5) 0.0287(4)
C17_4 C 0.5102(4) 0.5832(4) 0.0562(4)
C18_4 C 0.4438(4) 0.4898(4) 0.0832(4)
C23_4 C 0.4898(4) 0.9168(4) 0.0562(4)
H4_4 H 0.5455 0.6103 0.0657
H6_4 H 0.4343 0.4545 0.1103
H10_4 H 0.4545 0.8897 0.0657
C29_4 C 0.3478(4) 0.4603(4) 0.0139(4)
C30_4 C 0.5397(4) 0.5139(4) 0.1522(4)
C36_4 C 0.4603(4) 0.9861(4) 0.1522(4)
In1_6 In 0.5000 0.7500 0.8750
O1_4 O 0.5829(3) 0.6968(3) 0.8345(3)
O2_4 O 0.5644(3) 0.7861(3) 0.7817(3)
C1_4 C 0.6533(4) 0.7213(4) 0.7471(5)
C2_4 C 0.6668(4) 0.7602(4) 0.6938(4)
H1_4 H 0.6397 0.7955 0.6843
C3_4 C 0.5978(4) 0.7361(4) 0.7897(4)
O3_4 O 0.8345(3) 0.5829(3) 0.6968(3)
O4_4 O 0.6968(3) 0.8345(3) 0.5829(3)
O5_4 O 0.4468(3) 0.6671(3) 0.9155(3)
O8_4 O 0.4171(3) 0.8032(3) 0.8345(3)
O11_4 O 0.5532(3) 0.8329(3) 0.9155(3)
O20_4 O 0.7817(3) 0.5644(3) 0.7861(3)
O21_4 O 0.7861(3) 0.7817(3) 0.5644(3)
O22_4 O 0.5361(3) 0.6856(3) 0.9683(3)
O25_4 O 0.4356(3) 0.7139(3) 0.7817(3)
O28_4 O 0.4639(3) 0.8144(3) 0.9683(3)
C4_4 C 0.7213(4) 0.7471(5) 0.6533(4)
C5_4 C 0.7471(5) 0.6533(4) 0.7213(4)
C9_4 C 0.3467(4) 0.7787(4) 0.7471(5)
C10_4 C 0.2787(4) 0.7529(5) 0.6533(4)
C11_4 C 0.2529(5) 0.8467(4) 0.7213(4)
C15_4 C 0.7602(4) 0.6938(4) 0.6668(4)
C16_4 C 0.6938(4) 0.6668(4) 0.7602(4)
C19_4 C 0.4168(4) 0.5562(4) 0.9898(4)
C20_4 C 0.3332(4) 0.7398(4) 0.6938(4)
C21_4 C 0.2398(4) 0.8062(4) 0.6668(4)
C22_4 C 0.3062(4) 0.8332(4) 0.7602(4)
C25_4 C 0.5832(4) 0.9438(4) 0.9898(4)
H2_4 H 0.6843 0.6397 0.7955
H3_4 H 0.7955 0.6843 0.6397
H5_4 H 0.3897 0.5657 0.9545
H7_4 H 0.3603 0.7045 0.6843
H8_4 H 0.3157 0.8603 0.7955
H9_4 H 0.2045 0.8157 0.6397
H11_4 H 0.6103 0.9343 0.9545
C26_4 C 0.7897(4) 0.5978(4) 0.7361(4)
C27_4 C 0.7361(4) 0.7897(4) 0.5978(4)
C28_4 C 0.4861(4) 0.6522(4) 0.9603(4)
C31_4 C 0.4022(4) 0.7639(4) 0.7897(4)
C32_4 C 0.2103(4) 0.9022(4) 0.7361(4)
C33_4 C 0.2639(4) 0.7103(4) 0.5978(4)
C34_4 C 0.5139(4) 0.8478(4) 0.9603(4)
loop_
_geom_bond_atom_site_label_1
_geom_bond_atom_site_label_2
_geom_bond_site_symmetry_1
_geom_bond_site_symmetry_2
O14 In2 1_555 1_555
O15 In2 1_555 1_555
O32 In2 1_555 1_555
O33 In2 1_555 1_555
O24 In5 1_555 1_555
In1 O1 1_555 1_555
O1 C3 1_555 1_555
O2 In1 1_555 1_555
C1 C2 1_555 1_555
C2 H1 1_555 1_555
C3 O2 1_555 1_555
In2_2 O3 1_555 1_555
In3 O4 1_555 1_555
O3 C26 1_555 1_555
O4 C27 1_555 1_555
O11 In1 1_555 1_555
O16 In2_2 1_555 1_555
O17 In3 1_555 1_555
O18 In3 1_555 1_555
O19 In3 1_555 1_555
O20 In2_2 1_555 1_555
O21 In3 1_555 1_555
O22 In1 1_555 1_555
O29 In8 1_555 1_555
O31 In2_2 1_555 1_555
O34 In3 1_555 1_555
O35 In3 1_555 1_555
O36 In3 1_555 1_555
C4 C2 1_555 1_555
C5 C15 1_555 1_555
C15 C4 1_555 1_555
C16 C1 1_555 1_555
H2 C16 1_555 1_555
H3 C15 1_555 1_555
H11 C25 1_555 1_555
C26 O20 1_555 1_555
C27 O21 1_555 1_555
C34 O11 1_555 1_555
C1 C3 1_555 1_555
C4 C27 1_555 1_555
C5 C16 1_555 1_555
C5 C26 1_555 1_555
In5_2 O7 1_555 1_555
In8_2 O12 1_555 1_555
O7 C30 1_555 1_555
O12 C35 1_555 1_555
C14 C24 1_555 1_555
C17 H4 1_555 1_555
C24 C13 1_555 1_555
H12 C24 1_555 1_555
C14 C35 1_555 1_555
O23 In4 1_555 1_555
In4_2 O6 1_555 1_555
O6 C29 1_555 1_555
H6 C18 1_555 1_555
In6 O9 1_555 1_555
In7 O10 1_555 1_555
O5 In1_2 1_555 1_555
O8 In1_2 1_555 1_555
O9 C32 1_555 1_555
O10 C33 1_555 1_555
O25 In1_2 1_555 1_555
O26 In6 1_555 1_555
O27 In7 1_555 1_555
O28 In1_2 1_555 1_555
C9 C20 1_555 1_555
C10 C20 1_555 1_555
C11 C21 1_555 1_555
C20 H7 1_555 1_555
C21 C10 1_555 1_555
C22 C9 1_555 1_555
H5 C19 1_555 1_555
H8 C22 1_555 1_555
H9 C21 1_555 1_555
C28 O5 1_555 1_555
C31 O8 1_555 1_555
C32 O26 1_555 1_555
C33 O27 1_555 1_555
O25 C31 1_555 1_555
C9 C31 1_555 1_555
C10 C33 1_555 1_555
C11 C22 1_555 1_555
C11 C32 1_555 1_555
In9 O13 1_555 1_555
O13 C36 1_555 1_555
O30 In9 1_555 1_555
C23 H10 1_555 1_555
C36 O30 1_555 1_555
O17_2 In8 1_555 1_555
O18_2 In8 1_555 1_555
O35_2 In8 1_555 1_555
In1_3 O1_2 1_555 1_555
O1_2 C3_2 1_555 1_555
O2_2 In1_3 1_555 1_555
C1_2 C2_2 1_555 1_555
C2_2 H1_2 1_555 1_555
C3_2 O2_2 1_555 1_555
In5 O3_2 1_555 1_555
In8_2 O4_2 1_555 1_555
In9 O9_2 1_555 1_555
In4_2 O10_2 1_555 1_555
In6 O13_2 1_555 1_555
O3_2 C26_2 1_555 1_555
O4_2 C27_2 1_555 1_555
O5_2 In1_3 1_555 1_555
O14 C30_2 1_555 1_555
O8_2 In1_3 1_555 1_555
O9_2 C32_2 1_555 1_555
O10_2 C33_2 1_555 1_555
O11_2 In1_3 1_555 1_555
O19 C35_2 1_555 1_555
O13_2 C36_2 1_555 1_555
O16_2 In5 1_555 1_555
O20_2 In5 1_555 1_555
O21_2 In8_2 1_555 1_555
O22_2 In1_3 1_555 1_555
O25_2 In1_3 1_555 1_555
O26_2 In9 1_555 1_555
O27_2 In4_2 1_555 1_555
O28_2 In1_3 1_555 1_555
O30_2 In6 1_555 1_555
O34_2 In8_2 1_555 1_555
C4_2 C2_2 1_555 1_555
C5_2 C15_2 1_555 1_555
C6_2 C17_2 1_555 1_555
C7_2 C17_2 1_555 1_555
C9_2 C20_2 1_555 1_555
C10_2 C20_2 1_555 1_555
C11_2 C21_2 1_555 1_555
C12_2 C23_2 1_555 1_555
C13_2 C23_2 1_555 1_555
C14_2 C24_2 1_555 1_555
C15_2 C4_2 1_555 1_555
C16_2 C1_2 1_555 1_555
C17_2 H4_2 1_555 1_555
C19_2 C6_2 1_555 1_555
C20_2 H7_2 1_555 1_555
C21_2 C10_2 1_555 1_555
C22_2 C9_2 1_555 1_555
C23_2 H10_2 1_555 1_555
C24_2 C13_2 1_555 1_555
C25_2 C12_2 1_555 1_555
H2_2 C16_2 1_555 1_555
H3_2 C15_2 1_555 1_555
H5_2 C19_2 1_555 1_555
H8_2 C22_2 1_555 1_555
H9_2 C21_2 1_555 1_555
H11_2 C25_2 1_555 1_555
H12_2 C24_2 1_555 1_555
C26_2 O20_2 1_555 1_555
C27_2 O21_2 1_555 1_555
C28_2 O5_2 1_555 1_555
C31_2 O8_2 1_555 1_555
C32_2 O26_2 1_555 1_555
C33_2 O27_2 1_555 1_555
C34_2 O11_2 1_555 1_555
C35_2 O36 1_555 1_555
C36_2 O30_2 1_555 1_555
C1_2 C3_2 1_555 1_555
O22_2 C28_2 1_555 1_555
O25_2 C31_2 1_555 1_555
O28_2 C34_2 1_555 1_555
C4_2 C27_2 1_555 1_555
C5_2 C16_2 1_555 1_555
C5_2 C26_2 1_555 1_555
C6_2 C28_2 1_555 1_555
C7_2 C30_2 1_555 1_555
C8_2 C19_2 1_555 1_555
C9_2 C31_2 1_555 1_555
C10_2 C33_2 1_555 1_555
C11_2 C22_2 1_555 1_555
C11_2 C32_2 1_555 1_555
C12_2 C34_2 1_555 1_555
C13_2 C36_2 1_555 1_555
C14_2 C25_2 1_555 1_555
C14_2 C35_2 1_555 1_555
In7 O6_2 1_555 1_555
O6_2 C29_2 1_555 1_555
O15_2 In5_2 1_555 1_555
O23_2 In7 1_555 1_555
O32_2 In5_2 1_555 1_555
O33_2 In5_2 1_555 1_555
H6_2 C18_2 1_555 1_555
C29_2 O23_2 1_555 1_555
O5_3 In1_4 1_555 1_555
O17 C29_3 1_555 1_555
O8_3 In1_4 1_555 1_555
O15 C32_3 1_555 1_555
O18_2 C33_3 1_555 1_555
O16_2 C36_3 1_555 1_555
O25_3 In1_4 1_555 1_555
O28_3 In1_4 1_555 1_555
C8_3 C18_3 1_555 1_555
C9_3 C20_3 1_555 1_555
C10_3 C20_3 1_555 1_555
C11_3 C21_3 1_555 1_555
C18_3 C7_3 1_555 1_555
C19_3 C6_3 1_555 1_555
C20_3 H7_3 1_555 1_555
C21_3 C10_3 1_555 1_555
C22_3 C9_3 1_555 1_555
C23_3 H10_3 1_555 1_555
H5_3 C19_3 1_555 1_555
H6_3 C18_3 1_555 1_555
H8_3 C22_3 1_555 1_555
H9_3 C21_3 1_555 1_555
C28_3 O5_3 1_555 1_555
C29_3 O34 1_555 1_555
C31_3 O8_3 1_555 1_555
C32_3 O32 1_555 1_555
C33_3 O35_2 1_555 1_555
O25_3 C31_3 1_555 1_555
C6_3 C28_3 1_555 1_555
C8_3 C19_3 1_555 1_555
C8_3 C29_3 1_555 1_555
C9_3 C31_3 1_555 1_555
C10_3 C33_3 1_555 1_555
C11_3 C22_3 1_555 1_555
C11_3 C32_3 1_555 1_555
In1_5 O1_3 1_555 1_555
O1_3 C3_3 1_555 1_555
O2_3 In1_5 1_555 1_555
C1_3 C2_3 1_555 1_555
C2_3 H1_3 1_555 1_555
C3_3 O2_3 1_555 1_555
In6 O3_3 1_555 1_555
In4 O4_3 1_555 1_555
In9 O7_2 1_555 1_555
O3_3 C26_3 1_555 1_555
O4_3 C27_3 1_555 1_555
O7_2 C30_3 1_555 1_555
O11_3 In1_5 1_555 1_555
O14_2 In6 1_555 1_555
O19_2 In4 1_555 1_555
O20_3 In6 1_555 1_555
O21_3 In4 1_555 1_555
O22_3 In1_5 1_555 1_555
O24_2 In9 1_555 1_555
O31_2 In6 1_555 1_555
C4_3 C2_3 1_555 1_555
C5_3 C15_3 1_555 1_555
C15_3 C4_3 1_555 1_555
C16_3 C1_3 1_555 1_555
C17_3 H4_3 1_555 1_555
C25_3 C12_3 1_555 1_555
H2_3 C16_3 1_555 1_555
H3_3 C15_3 1_555 1_555
H11_3 C25_3 1_555 1_555
C26_3 O20_3 1_555 1_555
C27_3 O21_3 1_555 1_555
C30_3 O24_2 1_555 1_555
C34_3 O11_3 1_555 1_555
C1_3 C3_3 1_555 1_555
C4_3 C27_3 1_555 1_555
C5_3 C16_3 1_555 1_555
C5_3 C26_3 1_555 1_555
C12_3 C34_3 1_555 1_555
C14_3 C25_3 1_555 1_555
O36_2 In4_2 1_555 1_555
In7 O12_2 1_555 1_555
O12_2 C35_3 1_555 1_555
O29_2 In7 1_555 1_555
H12_3 C24_3 1_555 1_555
C35_3 O29_2 1_555 1_555
O19_2 C35_4 1_555 1_555
H12_4 C24_4 1_555 1_555
O17_2 C29_4 1_555 1_555
O14_2 C30_4 1_555 1_555
O16 C36_4 1_555 1_555
C6_4 C17_4 1_555 1_555
C7_4 C17_4 1_555 1_555
C8_4 C18_4 1_555 1_555
C12_4 C23_4 1_555 1_555
C13_4 C23_4 1_555 1_555
C17_4 H4_4 1_555 1_555
C18_4 C7_4 1_555 1_555
C23_4 H10_4 1_555 1_555
H6_4 C18_4 1_555 1_555
C30_4 O31_2 1_555 1_555
C7_4 C30_4 1_555 1_555
C8_4 C29_4 1_555 1_555
C13_4 C36_4 1_555 1_555
In1_6 O1_4 1_555 1_555
O1_4 C3_4 1_555 1_555
O2_4 In1_6 1_555 1_555
C1_4 C2_4 1_555 1_555
C2_4 H1_4 1_555 1_555
C3_4 O2_4 1_555 1_555
In9 O3_4 1_555 1_555
In7 O4_4 1_555 1_555
O3_4 C26_4 1_555 1_555
O4_4 C27_4 1_555 1_555
O5_4 In1_6 1_555 1_555
O8_4 In1_6 1_555 1_555
O15_2 C32_4 1_555 1_555
O18 C33_4 1_555 1_555
O11_4 In1_6 1_555 1_555
O20_4 In9 1_555 1_555
O21_4 In7 1_555 1_555
O22_4 In1_6 1_555 1_555
O25_4 In1_6 1_555 1_555
O28_4 In1_6 1_555 1_555
C4_4 C2_4 1_555 1_555
C5_4 C15_4 1_555 1_555
C9_4 C20_4 1_555 1_555
C10_4 C20_4 1_555 1_555
C11_4 C21_4 1_555 1_555
C15_4 C4_4 1_555 1_555
C16_4 C1_4 1_555 1_555
C20_4 H7_4 1_555 1_555
C21_4 C10_4 1_555 1_555
C22_4 C9_4 1_555 1_555
H2_4 C16_4 1_555 1_555
H3_4 C15_4 1_555 1_555
H5_4 C19_4 1_555 1_555
H8_4 C22_4 1_555 1_555
H9_4 C21_4 1_555 1_555
H11_4 C25_4 1_555 1_555
C26_4 O20_4 1_555 1_555
C27_4 O21_4 1_555 1_555
C28_4 O5_4 1_555 1_555
C31_4 O8_4 1_555 1_555
C32_4 O32_2 1_555 1_555
C33_4 O35 1_555 1_555
C34_4 O11_4 1_555 1_555
C1_4 C3_4 1_555 1_555
O22_4 C28_4 1_555 1_555
O25_4 C31_4 1_555 1_555
O28_4 C34_4 1_555 1_555
C4_4 C27_4 1_555 1_555
C5_4 C16_4 1_555 1_555
C5_4 C26_4 1_555 1_555
C9_4 C31_4 1_555 1_555
C10_4 C33_4 1_555 1_555
C11_4 C22_4 1_555 1_555
C11_4 C32_4 1_555 1_555

#END
