
###############################################################################
#
# This file contains modified crystal structure data generated from the
# MOF subset of the Cambridge Structural Database (CSD) v543 
# hosted by the Cambridge Crystallographic Data Centre (CCDC).
#
# This work is licensed under the Creative Commons
# Attribution-NonCommercial-ShareAlike 4.0 International License.
# To view a copy of this license, visit
# http://creativecommons.org/licenses/by-nc-sa/4.0/
# or send a letter to
# Creative Commons, PO Box 1866, Mountain View, CA 94042, USA.
#
# CIF created using the CSD Python API on 29 September 2022
# The structure has been converted into the P1 space group
# The structure has a 3D framework
# The original CSD entry CUFGIV is in the monoclinic crystal system
# The framework has been calculated to contain at least 10.0% void space
# The void calculation uses a probe of radius 1.32A, grid spacing 0.4
#
###############################################################################

data_CUFGIV
_chemical_formula_moiety         '(C384 H368 N56 O152 Tb16)n'
_symmetry_cell_setting           triclinic
_symmetry_space_group_name_H-M   'P 1'
_symmetry_Int_Tables_number      1
_space_group_name_Hall           'P 1'
loop_
_symmetry_equiv_pos_site_id
_symmetry_equiv_pos_as_xyz
1 x,y,z
_cell_length_a                   36.768(14)
_cell_length_b                   21.228(8)
_cell_length_c                   19.238(7)
_cell_angle_alpha                90
_cell_angle_beta                 90.00
_cell_angle_gamma                90
_cell_volume                     15015.5
loop_
_atom_site_label
_atom_site_type_symbol
_atom_site_fract_x
_atom_site_fract_y
_atom_site_fract_z
C2 C 0.00176(12) 0.1849(2) 0.3487(3)
C3 C 0.03490(11) 0.1581(2) 0.3657(3)
H2 H 0.0541 0.1838 0.3791
C4 C 0.03966(9) 0.09494(19) 0.3631(2)
C5 C 0.01115(10) 0.0575(2) 0.3433(3)
H3 H 0.0143 0.0141 0.3404
C7 C 0.07615(9) 0.06444(19) 0.3749(2)
C9 C 0.13456(8) 0.08122(15) 0.43647(18)
C10 C 0.15635(8) 0.13029(14) 0.46105(18)
H5 H 0.1470 0.1709 0.4634
C11 C 0.19158(8) 0.11914(14) 0.48183(16)
C12 C 0.20571(8) 0.05839(13) 0.47934(16)
H6 H 0.2294 0.0505 0.4939
C13 C 0.18413(8) 0.00976(14) 0.45503(16)
C14 C 0.14860(8) 0.02057(15) 0.43289(17)
C15 C 0.21466(9) 0.17326(13) 0.50710(17)
H15 H 0.3818 0.0028 0.6323
C36 C 0.32500(9) 0.04575(15) 0.56363(19)
C37 C 0.0428(2) 0.3317(7) 0.5284(9)
H16 H 0.0429 0.3182 0.4795
H17 H 0.0270 0.3585 0.5481
H18 H 0.0367 0.2924 0.5414
C38 C 0.0862(5) 0.3998(12) 0.5925(16)
H19 H 0.0928 0.4357 0.5649
H20 H 0.1056 0.3904 0.6244
H21 H 0.0644 0.4090 0.6181
C39 C 0.1076(2) 0.3191(3) 0.5198(4)
H22 H 0.1027 0.2879 0.4872
C40 C 0.2130(3) 0.3405(4) 0.7691(3)
H23 H 0.1875 0.3316 0.7735
H24 H 0.2190 0.3766 0.7970
H25 H 0.2269 0.3048 0.7846
C41 C 0.2594(3) 0.3822(9) 0.6939(6)
H26 H 0.2728 0.3611 0.6579
H27 H 0.2720 0.3775 0.7373
H28 H 0.2573 0.4261 0.6828
C42 C 0.2065(2) 0.3392(3) 0.6432(3)
H29 H 0.1858 0.3155 0.6525
C43 C 0.3313(3) 0.0059(5) 0.3413(7)
H30 H 0.3295 0.0131 0.3904
H31 H 0.3237 0.0430 0.3167
N2 N 0.09845(7) 0.09652(14) 0.41728(18)
H45 H 0.0893 0.1320 0.4359
N4 N 0.2212(2) 0.3530(3) 0.7000(2)
N7 N 0.08007(19) 0.3464(5) 0.5479(6)
O1 O 0.20185(7) 0.22720(10) 0.50300(14)
O2 O 0.24508(7) 0.16067(11) 0.53117(16)
O10 O 0.08360(8) 0.01519(17) 0.3466(2)
O11 O 0.30060(8) 0.05573(12) 0.52049(19)
O12 O 0.34076(9) 0.08984(12) 0.59267(18)
O16 O 0.13892(10) 0.33001(19) 0.5316(2)
O17 O 0.20890(13) 0.34469(19) 0.58672(18)
Tb2 Tb 0.193202(4) 0.329681(6) 0.469654(8)
H51 H 0.6182 0.0028 0.8677
C60 C 0.67500(9) 0.04575(15) 0.93637(19)
O20 O 0.69940(8) 0.05573(12) 0.97951(19)
O21 O 0.65924(9) 0.08984(12) 0.90733(18)
C61 C 0.02717(10) 0.1477(2) 0.1700(2)
H53 H 0.0009 0.2285 0.1502
C66 C 0.02251(10) 0.0839(2) 0.1726(3)
H56 H 0.0419 0.0581 0.1849
C68 C 0.06180(12) 0.1811(2) 0.1910(3)
C77 C 0.12596(9) 0.17762(19) 0.2070(2)
C78 C 0.15082(9) 0.17841(17) 0.15315(19)
H60 H 0.1457 0.1581 0.1115
C79 C 0.18341(8) 0.20984(15) 0.16201(16)
C80 C 0.19064(8) 0.24050(15) 0.22435(17)
H61 H 0.2123 0.2626 0.2297
C81 C 0.16631(8) 0.23859(16) 0.27774(17)
C82 C 0.13339(9) 0.2072(2) 0.26899(19)
H62 H 0.1165 0.2061 0.3049
C83 C 0.17440(8) 0.27150(15) 0.34540(17)
C84 C 0.20943(8) 0.21372(15) 0.10300(16)
N9 N 0.09178(8) 0.14741(19) 0.19514(18)
H91 H 0.0907 0.1052 0.1907
O29 O 0.15110(6) 0.27338(11) 0.39156(12)
O30 O 0.20527(6) 0.29573(14) 0.35371(13)
O31 O 0.23717(6) 0.24686(11) 0.11347(12)
O32 O 0.20190(6) 0.18412(11) 0.04886(12)
O33 O 0.06086(10) 0.2375(2) 0.2033(3)
O39 O 0.25492(7) 0.33933(11) 0.46883(16)
O45 O 0.19940(8) 0.44427(12) 0.47951(19)
O47 O 0.15924(9) 0.41016(12) 0.40733(18)
Tb7 Tb 0.271469(3) 0.324306(6) 0.061139(7)
Tb12 Tb 0.306798(4) 0.170319(6) 0.530346(8)
Tb14 Tb 0.693202(4) 0.170319(6) 0.969654(8)
Tb9 Tb 0.228531(3) 0.175694(6) 0.938861(7)
Tb5 Tb 0.771469(3) 0.824306(6) 0.061139(7)
H7 H 0.1345 0.9876 0.4159
C16 C 0.19846(8) 0.94362(14) 0.45318(17)
C25 C 0.46545(12) 0.8524(2) 0.7213(3)
C26 C 0.48261(17) 0.7994(3) 0.7358(5)
H11 H 0.4712 0.7612 0.7269
C27 C 0.48204(18) 0.9052(3) 0.7363(6)
H12 H 0.4702 0.9433 0.7289
C28 C 0.42739(13) 0.8480(2) 0.6915(3)
C29 C 0.37969(10) 0.90765(16) 0.6304(2)
C30 C 0.35896(9) 0.85714(15) 0.6083(2)
H13 H 0.3664 0.8162 0.6178
C31 C 0.32686(8) 0.86785(14) 0.57192(17)
C32 C 0.31531(8) 0.92829(14) 0.55722(17)
H14 H 0.2939 0.9348 0.5326
C33 C 0.33598(9) 0.97940(14) 0.57954(19)
C34 C 0.36811(10) 0.96881(16) 0.6167(2)
C35 C 0.30490(7) 0.81126(14) 0.54944(17)
H32 H 0.3561 0.9965 0.3296
C44 C 0.3126(3) 0.9270(6) 0.2543(5)
H33 H 0.2955 0.8937 0.2463
H34 H 0.3369 0.9107 0.2502
H35 H 0.3090 0.9596 0.2205
C45 C 0.2874(2) 0.9257(5) 0.3666(5)
H36 H 0.2875 0.9478 0.4084
C46 C 0.2048(3) 0.8316(4) 0.1777(4)
H37 H 0.2271 0.8271 0.2031
H38 H 0.2035 0.8732 0.1583
H39 H 0.2040 0.8010 0.1409
C47 C 0.1393(3) 0.8177(6) 0.1934(7)
H40 H 0.1217 0.8092 0.2292
H41 H 0.1388 0.7843 0.1598
H42 H 0.1334 0.8568 0.1710
C48 C 0.18038(18) 0.8189(3) 0.2906(3)
H43 H 0.1602 0.8126 0.3189
N3 N 0.41341(9) 0.90019(15) 0.6655(2)
H46 H 0.4269 0.9353 0.6706
N5 N 0.30753(16) 0.9517(2) 0.3212(3)
N6 N 0.17465(16) 0.8219(3) 0.2235(2)
O3 O 0.22876(6) 0.93293(11) 0.47955(15)
O4 O 0.17981(6) 0.90077(10) 0.42546(14)
O13 O 0.27927(6) 0.82043(11) 0.50788(14)
O14 O 0.31369(6) 0.75900(10) 0.57361(13)
O15 O 0.41175(12) 0.79821(19) 0.6925(3)
O18 O 0.26987(11) 0.88354(17) 0.3690(2)
O19 O 0.20918(9) 0.82363(15) 0.31866(15)
Tb1 Tb 0.228531(3) 0.824306(6) 0.438861(7)
C49 C 0.53455(12) 0.8524(2) 0.7787(3)
C50 C 0.51739(17) 0.7994(3) 0.7642(5)
H47 H 0.5288 0.7612 0.7731
C51 C 0.51796(18) 0.9052(3) 0.7637(6)
H48 H 0.5298 0.9433 0.7711
C52 C 0.57261(13) 0.8480(2) 0.8085(3)
C53 C 0.62031(10) 0.90765(16) 0.8696(2)
C54 C 0.64104(9) 0.85714(15) 0.8917(2)
H49 H 0.6336 0.8162 0.8822
C55 C 0.67314(8) 0.86785(14) 0.92808(17)
C56 C 0.68469(8) 0.92829(14) 0.94278(17)
H50 H 0.7061 0.9348 0.9674
C57 C 0.66402(9) 0.97940(14) 0.92046(19)
C58 C 0.63189(10) 0.96881(16) 0.8833(2)
C59 C 0.69510(7) 0.81126(14) 0.95056(17)
N8 N 0.58659(9) 0.90019(15) 0.8345(2)
H52 H 0.5731 0.9353 0.8294
O22 O 0.72073(6) 0.82043(11) 0.99212(14)
O23 O 0.68631(6) 0.75900(10) 0.92639(13)
O24 O 0.58825(12) 0.79821(19) 0.8075(3)
O41 O 0.26283(6) 0.74686(11) 0.38653(12)
O43 O 0.20190(6) 0.81588(11) 0.54886(12)
O50 O 0.18631(6) 0.74100(10) 0.42639(13)
Tb10 Tb 0.271469(3) 0.675694(6) 0.561139(7)
Tb11 Tb 0.728531(3) 0.675694(6) 0.938861(7)
C1 C 0.97283(10) 0.1477(2) 0.3300(2)
H1 H 0.9991 0.2285 0.3498
C6 C 0.97749(10) 0.0839(2) 0.3274(3)
H4 H 0.9581 0.0581 0.3151
C8 C 0.93820(12) 0.1811(2) 0.3090(3)
C17 C 0.87404(9) 0.17762(19) 0.2930(2)
C18 C 0.84918(9) 0.17841(17) 0.34685(19)
H8 H 0.8543 0.1581 0.3885
C19 C 0.81659(8) 0.20984(15) 0.33799(16)
C20 C 0.80936(8) 0.24050(15) 0.27565(17)
H9 H 0.7877 0.2626 0.2703
C21 C 0.83369(8) 0.23859(16) 0.22226(17)
C22 C 0.86661(9) 0.2072(2) 0.23101(19)
H10 H 0.8835 0.2061 0.1951
C23 C 0.82560(8) 0.27150(15) 0.15460(17)
C24 C 0.79057(8) 0.21372(15) 0.39700(16)
N1 N 0.90822(8) 0.14741(19) 0.30486(18)
H44 H 0.9093 0.1052 0.3093
O5 O 0.84890(6) 0.27338(11) 0.10844(12)
O6 O 0.79473(6) 0.29573(14) 0.14629(13)
O7 O 0.76283(6) 0.24686(11) 0.38653(12)
O8 O 0.79810(6) 0.18412(11) 0.45114(12)
O9 O 0.93914(10) 0.2375(2) 0.2967(3)
C62 C 0.99824(12) 0.1849(2) 0.1513(3)
C63 C 0.96510(11) 0.1581(2) 0.1343(3)
H54 H 0.9459 0.1838 0.1209
C64 C 0.96034(9) 0.09494(19) 0.1369(2)
C65 C 0.98885(10) 0.0575(2) 0.1567(3)
H55 H 0.9857 0.0141 0.1596
C67 C 0.92385(9) 0.06444(19) 0.1251(2)
C69 C 0.86544(8) 0.08122(15) 0.06353(18)
C70 C 0.84365(8) 0.13029(14) 0.03895(18)
H57 H 0.8530 0.1709 0.0366
C71 C 0.80842(8) 0.11914(14) 0.01817(16)
C72 C 0.79429(8) 0.05839(13) 0.02066(16)
H58 H 0.7706 0.0505 0.0061
C73 C 0.81587(8) 0.00976(14) 0.04497(16)
C74 C 0.85140(8) 0.02057(15) 0.06711(17)
H63 H 0.9571 0.3182 0.0205
H69 H 0.8973 0.2879 0.0128
C91 C 0.6687(3) 0.0059(5) 0.1587(7)
H77 H 0.6705 0.0131 0.1096
H78 H 0.6763 0.0430 0.1833
N10 N 0.90155(7) 0.09652(14) 0.08272(18)
H92 H 0.9107 0.1320 0.0641
O34 O 0.91640(8) 0.01519(17) 0.1534(2)
Tb4 Tb 0.806798(4) 0.329681(6) 0.030346(8)
O40 O 0.74508(7) 0.33933(11) 0.03117(16)
O46 O 0.80060(8) 0.44427(12) 0.02049(19)
O48 O 0.84076(9) 0.41016(12) 0.09267(18)
Tb6 Tb 0.728531(3) 0.324306(6) 0.438861(7)
Tb8 Tb 0.771469(3) 0.175694(6) 0.561139(7)
C75 C 0.78534(9) 0.17326(13) 0.99290(17)
C85 C 0.9572(2) 0.3317(7) 0.9716(9)
H64 H 0.9730 0.3585 0.9519
H65 H 0.9633 0.2924 0.9586
C86 C 0.9138(5) 0.3998(12) 0.9075(16)
H66 H 0.9072 0.4357 0.9351
H67 H 0.8944 0.3904 0.8756
H68 H 0.9356 0.4090 0.8819
C87 C 0.8924(2) 0.3191(3) 0.9802(4)
C88 C 0.7870(3) 0.3405(4) 0.7309(3)
H70 H 0.8125 0.3316 0.7265
H71 H 0.7810 0.3766 0.7030
H72 H 0.7731 0.3048 0.7154
C89 C 0.7406(3) 0.3822(9) 0.8061(6)
H73 H 0.7272 0.3611 0.8421
H74 H 0.7280 0.3775 0.7627
H75 H 0.7427 0.4261 0.8172
C90 C 0.7935(2) 0.3392(3) 0.8568(3)
H76 H 0.8142 0.3155 0.8475
N11 N 0.7788(2) 0.3530(3) 0.8000(2)
N14 N 0.91993(19) 0.3464(5) 0.9521(6)
O25 O 0.79815(7) 0.22720(10) 0.99700(14)
O26 O 0.75492(7) 0.16067(11) 0.96883(16)
O35 O 0.86108(10) 0.33001(19) 0.9684(2)
O36 O 0.79110(13) 0.34469(19) 0.91328(18)
H59 H 0.8655 0.9876 0.0841
C76 C 0.80154(8) 0.94362(14) 0.04682(17)
H79 H 0.6439 0.9965 0.1704
C92 C 0.6874(3) 0.9270(6) 0.2457(5)
H80 H 0.7045 0.8937 0.2537
H81 H 0.6631 0.9107 0.2498
H82 H 0.6910 0.9596 0.2795
C93 C 0.7126(2) 0.9257(5) 0.1334(5)
H83 H 0.7125 0.9478 0.0916
C94 C 0.7952(3) 0.8316(4) 0.3223(4)
H84 H 0.7729 0.8271 0.2969
H85 H 0.7965 0.8732 0.3417
H86 H 0.7960 0.8010 0.3591
C95 C 0.8607(3) 0.8177(6) 0.3066(7)
H87 H 0.8783 0.8092 0.2708
H88 H 0.8612 0.7843 0.3402
H89 H 0.8666 0.8568 0.3290
C96 C 0.81962(18) 0.8189(3) 0.2094(3)
H90 H 0.8398 0.8126 0.1811
N12 N 0.69247(16) 0.9517(2) 0.1788(3)
N13 N 0.82535(16) 0.8219(3) 0.2765(2)
O27 O 0.77124(6) 0.93293(11) 0.02045(15)
O28 O 0.82019(6) 0.90077(10) 0.07454(14)
O37 O 0.73013(11) 0.88354(17) 0.1310(2)
O38 O 0.79082(9) 0.82363(15) 0.18134(15)
O42 O 0.73717(6) 0.74686(11) 0.11347(12)
O51 O 0.81369(6) 0.74100(10) 0.07361(13)
O44 O 0.79810(6) 0.81588(11) 0.95114(12)
C49_2 C 0.03455(12) 0.3524(2) 0.7787(3)
C50_2 C 0.01739(17) 0.2994(3) 0.7642(5)
H47_2 H 0.0288 0.2612 0.7731
C51_2 C 0.01796(18) 0.4052(3) 0.7637(6)
H48_2 H 0.0298 0.4433 0.7711
C52_2 C 0.07261(13) 0.3480(2) 0.8085(3)
C53_2 C 0.12031(10) 0.40765(16) 0.8696(2)
C54_2 C 0.14104(9) 0.35714(15) 0.8917(2)
H49_2 H 0.1336 0.3162 0.8822
C55_2 C 0.17314(8) 0.36785(14) 0.92808(17)
C56_2 C 0.18469(8) 0.42829(14) 0.94278(17)
H50_2 H 0.2061 0.4348 0.9674
C57_2 C 0.16402(9) 0.47940(14) 0.92046(19)
C58_2 C 0.13189(10) 0.46881(16) 0.8833(2)
H51_2 H 0.1182 0.5028 0.8677
C59_2 C 0.19510(7) 0.31126(14) 0.95056(17)
C60_2 C 0.17500(9) 0.54575(15) 0.93637(19)
N8_2 N 0.08659(9) 0.40019(15) 0.8345(2)
H52_2 H 0.0731 0.4353 0.8294
O20_2 O 0.19940(8) 0.55573(12) 0.97951(19)
O21_2 O 0.15924(9) 0.58984(12) 0.90733(18)
O22_2 O 0.22073(6) 0.32043(11) 0.99212(14)
O23_2 O 0.18631(6) 0.25900(10) 0.92639(13)
O24_2 O 0.08825(12) 0.29821(19) 0.8075(3)
Tb14_2 Tb 0.193202(4) 0.670319(6) 0.969654(8)
C1_2 C 0.47283(10) 0.6477(2) 0.3300(2)
C2_2 C 0.50176(12) 0.6849(2) 0.3487(3)
H1_2 H 0.4991 0.7285 0.3498
C3_2 C 0.53490(11) 0.6581(2) 0.3657(3)
H2_2 H 0.5541 0.6838 0.3791
C4_2 C 0.53966(9) 0.59494(19) 0.3631(2)
C5_2 C 0.51115(10) 0.5575(2) 0.3433(3)
H3_2 H 0.5143 0.5141 0.3404
C6_2 C 0.47749(10) 0.5839(2) 0.3274(3)
H4_2 H 0.4581 0.5581 0.3151
C7_2 C 0.57615(9) 0.56444(19) 0.3749(2)
C8_2 C 0.43820(12) 0.6811(2) 0.3090(3)
C9_2 C 0.63456(8) 0.58122(15) 0.43647(18)
C10_2 C 0.65635(8) 0.63029(14) 0.46105(18)
H5_2 H 0.6470 0.6709 0.4634
C11_2 C 0.69158(8) 0.61914(14) 0.48183(16)
C12_2 C 0.70571(8) 0.55839(13) 0.47934(16)
H6_2 H 0.7294 0.5505 0.4939
C13_2 C 0.68413(8) 0.50976(14) 0.45503(16)
C14_2 C 0.64860(8) 0.52057(15) 0.43289(17)
H7_2 H 0.6345 0.4876 0.4159
C15_2 C 0.71466(9) 0.67326(13) 0.50710(17)
C16_2 C 0.69846(8) 0.44362(14) 0.45318(17)
C17_2 C 0.37404(9) 0.67762(19) 0.2930(2)
C18_2 C 0.34918(9) 0.67841(17) 0.34685(19)
H8_2 H 0.3543 0.6581 0.3885
C19_2 C 0.31659(8) 0.70984(15) 0.33799(16)
C20_2 C 0.30936(8) 0.74050(15) 0.27565(17)
H9_2 H 0.2877 0.7626 0.2703
C21_2 C 0.33369(8) 0.73859(16) 0.22226(17)
C22_2 C 0.36661(9) 0.7072(2) 0.23101(19)
H10_2 H 0.3835 0.7061 0.1951
C23_2 C 0.32560(8) 0.77150(15) 0.15460(17)
C24_2 C 0.29057(8) 0.71372(15) 0.39700(16)
C25_2 C 0.96545(12) 0.3524(2) 0.7213(3)
C26_2 C 0.98261(17) 0.2994(3) 0.7358(5)
H11_2 H 0.9712 0.2612 0.7269
C27_2 C 0.98204(18) 0.4052(3) 0.7363(6)
H12_2 H 0.9702 0.4433 0.7289
C28_2 C 0.92739(13) 0.3480(2) 0.6915(3)
C29_2 C 0.87969(10) 0.40765(16) 0.6304(2)
C30_2 C 0.85896(9) 0.35714(15) 0.6083(2)
H13_2 H 0.8664 0.3162 0.6178
C31_2 C 0.82686(8) 0.36785(14) 0.57192(17)
C32_2 C 0.81531(8) 0.42829(14) 0.55722(17)
H14_2 H 0.7939 0.4348 0.5326
C33_2 C 0.83598(9) 0.47940(14) 0.57954(19)
C34_2 C 0.86811(10) 0.46881(16) 0.6167(2)
H15_2 H 0.8818 0.5028 0.6323
C35_2 C 0.80490(7) 0.31126(14) 0.54944(17)
C36_2 C 0.82500(9) 0.54575(15) 0.56363(19)
C37_2 C 0.5428(2) 0.8317(7) 0.5284(9)
H16_2 H 0.5429 0.8182 0.4795
H17_2 H 0.5270 0.8585 0.5481
H18_2 H 0.5367 0.7924 0.5414
C38_2 C 0.5862(5) 0.8998(12) 0.5925(16)
H19_2 H 0.5928 0.9357 0.5649
H20_2 H 0.6056 0.8904 0.6244
H21_2 H 0.5644 0.9090 0.6181
C39_2 C 0.6076(2) 0.8191(3) 0.5198(4)
H22_2 H 0.6027 0.7879 0.4872
C40_2 C 0.7130(3) 0.8405(4) 0.7691(3)
H23_2 H 0.6875 0.8316 0.7735
H24_2 H 0.7190 0.8766 0.7970
H25_2 H 0.7269 0.8048 0.7846
C41_2 C 0.7594(3) 0.8822(9) 0.6939(6)
H26_2 H 0.7728 0.8611 0.6579
H27_2 H 0.7720 0.8775 0.7373
H28_2 H 0.7573 0.9261 0.6828
C42_2 C 0.7065(2) 0.8392(3) 0.6432(3)
H29_2 H 0.6858 0.8155 0.6525
C43_2 C 0.8313(3) 0.5059(5) 0.3413(7)
H30_2 H 0.8295 0.5131 0.3904
H31_2 H 0.8237 0.5430 0.3167
H32_2 H 0.8561 0.4965 0.3296
C44_2 C 0.8126(3) 0.4270(6) 0.2543(5)
H33_2 H 0.7955 0.3937 0.2463
H34_2 H 0.8369 0.4107 0.2502
H35_2 H 0.8090 0.4596 0.2205
C45_2 C 0.7874(2) 0.4257(5) 0.3666(5)
H36_2 H 0.7875 0.4478 0.4084
C46_2 C 0.7048(3) 0.3316(4) 0.1777(4)
H37_2 H 0.7271 0.3271 0.2031
H38_2 H 0.7035 0.3732 0.1583
H39_2 H 0.7040 0.3010 0.1409
C47_2 C 0.6393(3) 0.3177(6) 0.1934(7)
H40_2 H 0.6217 0.3092 0.2292
H41_2 H 0.6388 0.2843 0.1598
H42_2 H 0.6334 0.3568 0.1710
C48_2 C 0.68038(18) 0.3189(3) 0.2906(3)
H43_2 H 0.6602 0.3126 0.3189
N1_2 N 0.40822(8) 0.64741(19) 0.30486(18)
H44_2 H 0.4093 0.6052 0.3093
N2_2 N 0.59845(7) 0.59652(14) 0.41728(18)
H45_2 H 0.5893 0.6320 0.4359
N3_2 N 0.91341(9) 0.40019(15) 0.6655(2)
H46_2 H 0.9269 0.4353 0.6706
N4_2 N 0.7212(2) 0.8530(3) 0.7000(2)
N5_2 N 0.80753(16) 0.4517(2) 0.3212(3)
N6_2 N 0.67465(16) 0.3219(3) 0.2235(2)
N7_2 N 0.58007(19) 0.8464(5) 0.5479(6)
O1_2 O 0.70185(7) 0.72720(10) 0.50300(14)
O2_2 O 0.74508(7) 0.66067(11) 0.53117(16)
O3_2 O 0.72876(6) 0.43293(11) 0.47955(15)
O4_2 O 0.67981(6) 0.40077(10) 0.42546(14)
O5_2 O 0.34890(6) 0.77338(11) 0.10844(12)
O6_2 O 0.29473(6) 0.79573(14) 0.14629(13)
O8_2 O 0.29810(6) 0.68412(11) 0.45114(12)
O9_2 O 0.43914(10) 0.7375(2) 0.2967(3)
O10_2 O 0.58360(8) 0.51519(17) 0.3466(2)
O11_2 O 0.80060(8) 0.55573(12) 0.52049(19)
O12_2 O 0.84076(9) 0.58984(12) 0.59267(18)
O13_2 O 0.77927(6) 0.32043(11) 0.50788(14)
O14_2 O 0.81369(6) 0.25900(10) 0.57361(13)
O15_2 O 0.91175(12) 0.29821(19) 0.6925(3)
O16_2 O 0.63892(10) 0.83001(19) 0.5316(2)
O17_2 O 0.70890(13) 0.84469(19) 0.58672(18)
O18_2 O 0.76987(11) 0.38354(17) 0.3690(2)
O19_2 O 0.70918(9) 0.32363(15) 0.31866(15)
Tb2_2 Tb 0.693202(4) 0.829681(6) 0.469654(8)
C61_2 C 0.52717(10) 0.6477(2) 0.1700(2)
C62_2 C 0.49824(12) 0.6849(2) 0.1513(3)
H53_2 H 0.5009 0.7285 0.1502
C63_2 C 0.46510(11) 0.6581(2) 0.1343(3)
H54_2 H 0.4459 0.6838 0.1209
C64_2 C 0.46034(9) 0.59494(19) 0.1369(2)
C65_2 C 0.48885(10) 0.5575(2) 0.1567(3)
H55_2 H 0.4857 0.5141 0.1596
C66_2 C 0.52251(10) 0.5839(2) 0.1726(3)
H56_2 H 0.5419 0.5581 0.1849
C67_2 C 0.42385(9) 0.56444(19) 0.1251(2)
C68_2 C 0.56180(12) 0.6811(2) 0.1910(3)
C69_2 C 0.36544(8) 0.58122(15) 0.06353(18)
C70_2 C 0.34365(8) 0.63029(14) 0.03895(18)
H57_2 H 0.3530 0.6709 0.0366
C71_2 C 0.30842(8) 0.61914(14) 0.01817(16)
C72_2 C 0.29429(8) 0.55839(13) 0.02066(16)
H58_2 H 0.2706 0.5505 0.0061
C73_2 C 0.31587(8) 0.50976(14) 0.04497(16)
C74_2 C 0.35140(8) 0.52057(15) 0.06711(17)
H59_2 H 0.3655 0.4876 0.0841
C76_2 C 0.30154(8) 0.44362(14) 0.04682(17)
C77_2 C 0.62596(9) 0.67762(19) 0.2070(2)
C78_2 C 0.65082(9) 0.67841(17) 0.15315(19)
H60_2 H 0.6457 0.6581 0.1115
C79_2 C 0.68341(8) 0.70984(15) 0.16201(16)
C80_2 C 0.69064(8) 0.74050(15) 0.22435(17)
H61_2 H 0.7123 0.7626 0.2297
C81_2 C 0.66631(8) 0.73859(16) 0.27774(17)
C82_2 C 0.63339(9) 0.7072(2) 0.26899(19)
H62_2 H 0.6165 0.7061 0.3049
C83_2 C 0.67440(8) 0.77150(15) 0.34540(17)
C84_2 C 0.70943(8) 0.71372(15) 0.10300(16)
H63_2 H 0.4571 0.8182 0.0205
H69_2 H 0.3973 0.7879 0.0128
C91_2 C 0.1687(3) 0.5059(5) 0.1587(7)
H77_2 H 0.1705 0.5131 0.1096
H78_2 H 0.1763 0.5430 0.1833
H79_2 H 0.1439 0.4965 0.1704
C92_2 C 0.1874(3) 0.4270(6) 0.2457(5)
H80_2 H 0.2045 0.3937 0.2537
H81_2 H 0.1631 0.4107 0.2498
H82_2 H 0.1910 0.4596 0.2795
C93_2 C 0.2126(2) 0.4257(5) 0.1334(5)
H83_2 H 0.2125 0.4478 0.0916
C94_2 C 0.2952(3) 0.3316(4) 0.3223(4)
H84_2 H 0.2729 0.3271 0.2969
H85_2 H 0.2965 0.3732 0.3417
H86_2 H 0.2960 0.3010 0.3591
C95_2 C 0.3607(3) 0.3177(6) 0.3066(7)
H87_2 H 0.3783 0.3092 0.2708
H88_2 H 0.3612 0.2843 0.3402
H89_2 H 0.3666 0.3568 0.3290
C96_2 C 0.31962(18) 0.3189(3) 0.2094(3)
H90_2 H 0.3398 0.3126 0.1811
N9_2 N 0.59178(8) 0.64741(19) 0.19514(18)
H91_2 H 0.5907 0.6052 0.1907
N10_2 N 0.40155(7) 0.59652(14) 0.08272(18)
H92_2 H 0.4107 0.6320 0.0641
N12_2 N 0.19247(16) 0.4517(2) 0.1788(3)
N13_2 N 0.32535(16) 0.3219(3) 0.2765(2)
O27_2 O 0.27124(6) 0.43293(11) 0.02045(15)
O28_2 O 0.32019(6) 0.40077(10) 0.07454(14)
O29_2 O 0.65110(6) 0.77338(11) 0.39156(12)
O30_2 O 0.70527(6) 0.79573(14) 0.35371(13)
O32_2 O 0.70190(6) 0.68412(11) 0.04886(12)
O33_2 O 0.56086(10) 0.7375(2) 0.2033(3)
O34_2 O 0.41640(8) 0.51519(17) 0.1534(2)
O37_2 O 0.23013(11) 0.38354(17) 0.1310(2)
O38_2 O 0.29082(9) 0.32363(15) 0.18134(15)
Tb4_2 Tb 0.306798(4) 0.829681(6) 0.030346(8)
O39_2 O 0.75492(7) 0.83933(11) 0.46883(16)
O40_2 O 0.24508(7) 0.83933(11) 0.03117(16)
O43_2 O 0.70190(6) 0.31588(11) 0.54886(12)
O45_2 O 0.69940(8) 0.94427(12) 0.47951(19)
O46_2 O 0.30060(8) 0.94427(12) 0.02049(19)
O47_2 O 0.65924(9) 0.91016(12) 0.40733(18)
O48_2 O 0.34076(9) 0.91016(12) 0.09267(18)
O50_2 O 0.68631(6) 0.24100(10) 0.42639(13)
O51_2 O 0.31369(6) 0.24100(10) 0.07361(13)
Tb12_2 Tb 0.806798(4) 0.670319(6) 0.530346(8)
C75_2 C 0.28534(9) 0.67326(13) 0.99290(17)
C85_2 C 0.4572(2) 0.8317(7) 0.9716(9)
H64_2 H 0.4730 0.8585 0.9519
H65_2 H 0.4633 0.7924 0.9586
C86_2 C 0.4138(5) 0.8998(12) 0.9075(16)
H66_2 H 0.4072 0.9357 0.9351
H67_2 H 0.3944 0.8904 0.8756
H68_2 H 0.4356 0.9090 0.8819
C87_2 C 0.3924(2) 0.8191(3) 0.9802(4)
C88_2 C 0.2870(3) 0.8405(4) 0.7309(3)
H70_2 H 0.3125 0.8316 0.7265
H71_2 H 0.2810 0.8766 0.7030
H72_2 H 0.2731 0.8048 0.7154
C89_2 C 0.2406(3) 0.8822(9) 0.8061(6)
H73_2 H 0.2272 0.8611 0.8421
H74_2 H 0.2280 0.8775 0.7627
H75_2 H 0.2427 0.9261 0.8172
C90_2 C 0.2935(2) 0.8392(3) 0.8568(3)
H76_2 H 0.3142 0.8155 0.8475
N11_2 N 0.2788(2) 0.8530(3) 0.8000(2)
N14_2 N 0.41993(19) 0.8464(5) 0.9521(6)
O25_2 O 0.29815(7) 0.72720(10) 0.99700(14)
O26_2 O 0.25492(7) 0.66067(11) 0.96883(16)
O35_2 O 0.36108(10) 0.83001(19) 0.9684(2)
O36_2 O 0.29110(13) 0.84469(19) 0.91328(18)
O44_2 O 0.29810(6) 0.31588(11) 0.95114(12)
O49 O 0.27927(6) 0.17957(11) 0.00788(14)
H59_3 H 0.1345 0.0124 0.9159
C76_3 C 0.19846(8) 0.05638(14) 0.95318(17)
H79_3 H 0.3561 0.0035 0.8296
C92_3 C 0.3126(3) 0.0730(6) 0.7543(5)
H80_3 H 0.2955 0.1063 0.7463
H81_3 H 0.3369 0.0893 0.7502
H82_3 H 0.3090 0.0404 0.7205
C93_3 C 0.2874(2) 0.0743(5) 0.8666(5)
H83_3 H 0.2875 0.0522 0.9084
C94_3 C 0.2048(3) 0.1684(4) 0.6777(4)
H84_3 H 0.2271 0.1729 0.7031
H85_3 H 0.2035 0.1268 0.6583
H86_3 H 0.2040 0.1990 0.6409
C95_3 C 0.1393(3) 0.1823(6) 0.6934(7)
H87_3 H 0.1217 0.1908 0.7292
H88_3 H 0.1388 0.2157 0.6598
H89_3 H 0.1334 0.1432 0.6710
C96_3 C 0.18038(18) 0.1811(3) 0.7906(3)
H90_3 H 0.1602 0.1874 0.8189
N12_3 N 0.30753(16) 0.0483(2) 0.8212(3)
N13_3 N 0.17465(16) 0.1781(3) 0.7235(2)
O27_3 O 0.22876(6) 0.06707(11) 0.97955(15)
O28_3 O 0.17981(6) 0.09923(10) 0.92546(14)
O37_3 O 0.26987(11) 0.11646(17) 0.8690(2)
O38_3 O 0.20918(9) 0.17637(15) 0.81866(15)
O42_2 O 0.26283(6) 0.25314(11) 0.88653(12)
C75_3 C 0.21466(9) 0.82674(13) 0.00710(17)
C85_3 C 0.0428(2) 0.6683(7) 0.0284(9)
H64_3 H 0.0270 0.6415 0.0481
H65_3 H 0.0367 0.7076 0.0414
C86_3 C 0.0862(5) 0.6002(12) 0.0925(16)
H66_3 H 0.0928 0.5643 0.0649
H67_3 H 0.1056 0.6096 0.1244
H68_3 H 0.0644 0.5910 0.1181
C87_3 C 0.1076(2) 0.6809(3) 0.0198(4)
C88_3 C 0.2130(3) 0.6595(4) 0.2691(3)
H70_3 H 0.1875 0.6684 0.2735
H71_3 H 0.2190 0.6234 0.2970
H72_3 H 0.2269 0.6952 0.2846
C89_3 C 0.2594(3) 0.6178(9) 0.1939(6)
H73_3 H 0.2728 0.6389 0.1579
H74_3 H 0.2720 0.6225 0.2373
H75_3 H 0.2573 0.5739 0.1828
C90_3 C 0.2065(2) 0.6608(3) 0.1432(3)
H76_3 H 0.1858 0.6845 0.1525
N11_3 N 0.2212(2) 0.6470(3) 0.2000(2)
N14_3 N 0.08007(19) 0.6536(5) 0.0479(6)
O25_3 O 0.20185(7) 0.77280(10) 0.00300(14)
O35_3 O 0.13892(10) 0.66999(19) 0.0316(2)
O36_3 O 0.20890(13) 0.65531(19) 0.08672(18)
C1_3 C 0.02717(10) 0.8523(2) 0.6700(2)
H1_3 H 0.0009 0.7715 0.6502
C6_3 C 0.02251(10) 0.9161(2) 0.6726(3)
H4_3 H 0.0419 0.9419 0.6849
C8_3 C 0.06180(12) 0.8189(2) 0.6910(3)
C17_3 C 0.12596(9) 0.82238(19) 0.7070(2)
C18_3 C 0.15082(9) 0.82159(17) 0.65315(19)
H8_3 H 0.1457 0.8419 0.6115
C19_3 C 0.18341(8) 0.79016(15) 0.66201(16)
C20_3 C 0.19064(8) 0.75950(15) 0.72435(17)
H9_3 H 0.2123 0.7374 0.7297
C21_3 C 0.16631(8) 0.76141(16) 0.77774(17)
C22_3 C 0.13339(9) 0.7928(2) 0.76899(19)
H10_3 H 0.1165 0.7939 0.8049
C23_3 C 0.17440(8) 0.72850(15) 0.84540(17)
C24_3 C 0.20943(8) 0.78628(15) 0.60300(16)
N1_3 N 0.09178(8) 0.85259(19) 0.69514(18)
H44_3 H 0.0907 0.8948 0.6907
O5_3 O 0.15110(6) 0.72662(11) 0.89156(12)
O6_3 O 0.20527(6) 0.70427(14) 0.85371(13)
O7_2 O 0.23717(6) 0.75314(11) 0.61347(12)
O9_3 O 0.06086(10) 0.7625(2) 0.7033(3)
C62_3 C 0.00176(12) 0.8151(2) 0.8487(3)
C63_3 C 0.03490(11) 0.8419(2) 0.8657(3)
H54_3 H 0.0541 0.8162 0.8791
C64_3 C 0.03966(9) 0.90506(19) 0.8631(2)
C65_3 C 0.01115(10) 0.9425(2) 0.8433(3)
H55_3 H 0.0143 0.9859 0.8404
C67_3 C 0.07615(9) 0.93556(19) 0.8749(2)
C69_3 C 0.13456(8) 0.91878(15) 0.93647(18)
C70_3 C 0.15635(8) 0.86971(14) 0.96105(18)
H57_3 H 0.1470 0.8291 0.9634
C71_3 C 0.19158(8) 0.88086(14) 0.98183(16)
C72_3 C 0.20571(8) 0.94161(13) 0.97934(16)
H58_3 H 0.2294 0.9495 0.9939
C73_3 C 0.18413(8) 0.99024(14) 0.95503(16)
C74_3 C 0.14860(8) 0.97943(15) 0.93289(17)
H63_3 H 0.0429 0.6818 0.9795
H69_3 H 0.1027 0.7121 0.9872
C91_3 C 0.3313(3) 0.9941(5) 0.8413(7)
H77_3 H 0.3295 0.9869 0.8904
H78_3 H 0.3237 0.9570 0.8167
N10_3 N 0.09845(7) 0.90348(14) 0.91728(18)
H92_3 H 0.0893 0.8680 0.9359
O34_3 O 0.08360(8) 0.98481(17) 0.8466(2)
H7_3 H 0.8655 0.0124 0.5841
C16_3 C 0.80154(8) 0.05638(14) 0.54682(17)
C25_3 C 0.53455(12) 0.1476(2) 0.2787(3)
C26_3 C 0.51739(17) 0.2006(3) 0.2642(5)
H11_3 H 0.5288 0.2388 0.2731
C27_3 C 0.51796(18) 0.0948(3) 0.2637(6)
H12_3 H 0.5298 0.0567 0.2711
C28_3 C 0.57261(13) 0.1520(2) 0.3085(3)
C29_3 C 0.62031(10) 0.09235(16) 0.3696(2)
C30_3 C 0.64104(9) 0.14286(15) 0.3917(2)
H13_3 H 0.6336 0.1838 0.3822
C31_3 C 0.67314(8) 0.13215(14) 0.42808(17)
C32_3 C 0.68469(8) 0.07171(14) 0.44278(17)
H14_3 H 0.7061 0.0652 0.4674
C33_3 C 0.66402(9) 0.02060(14) 0.42046(19)
C34_3 C 0.63189(10) 0.03119(16) 0.3833(2)
C35_3 C 0.69510(7) 0.18874(14) 0.45056(17)
H32_3 H 0.6439 0.0035 0.6704
C44_3 C 0.6874(3) 0.0730(6) 0.7457(5)
H33_3 H 0.7045 0.1063 0.7537
H34_3 H 0.6631 0.0893 0.7498
H35_3 H 0.6910 0.0404 0.7795
C45_3 C 0.7126(2) 0.0743(5) 0.6334(5)
H36_3 H 0.7125 0.0522 0.5916
C46_3 C 0.7952(3) 0.1684(4) 0.8223(4)
H37_3 H 0.7729 0.1729 0.7969
H38_3 H 0.7965 0.1268 0.8417
H39_3 H 0.7960 0.1990 0.8591
C47_3 C 0.8607(3) 0.1823(6) 0.8066(7)
H40_3 H 0.8783 0.1908 0.7708
H41_3 H 0.8612 0.2157 0.8402
H42_3 H 0.8666 0.1432 0.8290
C48_3 C 0.81962(18) 0.1811(3) 0.7094(3)
H43_3 H 0.8398 0.1874 0.6811
N3_3 N 0.58659(9) 0.09981(15) 0.3345(2)
H46_3 H 0.5731 0.0647 0.3294
N5_3 N 0.69247(16) 0.0483(2) 0.6788(3)
N6_3 N 0.82535(16) 0.1781(3) 0.7765(2)
O3_3 O 0.77124(6) 0.06707(11) 0.52045(15)
O4_3 O 0.82019(6) 0.09923(10) 0.57454(14)
O13_3 O 0.72073(6) 0.17957(11) 0.49212(14)
O15_3 O 0.58825(12) 0.20179(19) 0.3075(3)
O18_3 O 0.73013(11) 0.11646(17) 0.6310(2)
O19_3 O 0.79082(9) 0.17637(15) 0.68134(15)
C49_3 C 0.46545(12) 0.1476(2) 0.2213(3)
C50_3 C 0.48261(17) 0.2006(3) 0.2358(5)
H47_3 H 0.4712 0.2388 0.2269
C51_3 C 0.48204(18) 0.0948(3) 0.2363(6)
H48_3 H 0.4702 0.0567 0.2289
C52_3 C 0.42739(13) 0.1520(2) 0.1915(3)
C53_3 C 0.37969(10) 0.09235(16) 0.1304(2)
C54_3 C 0.35896(9) 0.14286(15) 0.1083(2)
H49_3 H 0.3664 0.1838 0.1178
C55_3 C 0.32686(8) 0.13215(14) 0.07192(17)
C56_3 C 0.31531(8) 0.07171(14) 0.05722(17)
H50_3 H 0.2939 0.0652 0.0326
C57_3 C 0.33598(9) 0.02060(14) 0.07954(19)
C58_3 C 0.36811(10) 0.03119(16) 0.1167(2)
C59_3 C 0.30490(7) 0.18874(14) 0.04944(17)
N8_3 N 0.41341(9) 0.09981(15) 0.1655(2)
H52_3 H 0.4269 0.0647 0.1706
O24_3 O 0.41175(12) 0.20179(19) 0.1925(3)
O41_2 O 0.73717(6) 0.25314(11) 0.61347(12)
C2_3 C 0.99824(12) 0.8151(2) 0.6513(3)
C3_3 C 0.96510(11) 0.8419(2) 0.6343(3)
H2_3 H 0.9459 0.8162 0.6209
C4_3 C 0.96034(9) 0.90506(19) 0.6369(2)
C5_3 C 0.98885(10) 0.9425(2) 0.6567(3)
H3_3 H 0.9857 0.9859 0.6596
C7_3 C 0.92385(9) 0.93556(19) 0.6251(2)
C9_3 C 0.86544(8) 0.91878(15) 0.56353(18)
C10_3 C 0.84365(8) 0.86971(14) 0.53895(18)
H5_3 H 0.8530 0.8291 0.5366
C11_3 C 0.80842(8) 0.88086(14) 0.51817(16)
C12_3 C 0.79429(8) 0.94161(13) 0.52066(16)
H6_3 H 0.7706 0.9495 0.5061
C13_3 C 0.81587(8) 0.99024(14) 0.54497(16)
C14_3 C 0.85140(8) 0.97943(15) 0.56711(17)
C15_3 C 0.78534(9) 0.82674(13) 0.49290(17)
H15_3 H 0.6182 0.9972 0.3677
C36_3 C 0.67500(9) 0.95425(15) 0.43637(19)
C37_3 C 0.9572(2) 0.6683(7) 0.4716(9)
H16_3 H 0.9571 0.6818 0.5205
H17_3 H 0.9730 0.6415 0.4519
H18_3 H 0.9633 0.7076 0.4586
C38_3 C 0.9138(5) 0.6002(12) 0.4075(16)
H19_3 H 0.9072 0.5643 0.4351
H20_3 H 0.8944 0.6096 0.3756
H21_3 H 0.9356 0.5910 0.3819
C39_3 C 0.8924(2) 0.6809(3) 0.4802(4)
H22_3 H 0.8973 0.7121 0.5128
C40_3 C 0.7870(3) 0.6595(4) 0.2309(3)
H23_3 H 0.8125 0.6684 0.2265
H24_3 H 0.7810 0.6234 0.2030
H25_3 H 0.7731 0.6952 0.2154
C41_3 C 0.7406(3) 0.6178(9) 0.3061(6)
H26_3 H 0.7272 0.6389 0.3421
H27_3 H 0.7280 0.6225 0.2627
H28_3 H 0.7427 0.5739 0.3172
C42_3 C 0.7935(2) 0.6608(3) 0.3568(3)
H29_3 H 0.8142 0.6845 0.3475
C43_3 C 0.6687(3) 0.9941(5) 0.6587(7)
H30_3 H 0.6705 0.9869 0.6096
H31_3 H 0.6763 0.9570 0.6833
N2_3 N 0.90155(7) 0.90348(14) 0.58272(18)
H45_3 H 0.9107 0.8680 0.5641
N4_3 N 0.7788(2) 0.6470(3) 0.3000(2)
N7_3 N 0.91993(19) 0.6536(5) 0.4521(6)
O1_3 O 0.79815(7) 0.77280(10) 0.49700(14)
O10_3 O 0.91640(8) 0.98481(17) 0.6534(2)
O16_3 O 0.86108(10) 0.66999(19) 0.4684(2)
O17_3 O 0.79110(13) 0.65531(19) 0.41328(18)
H51_3 H 0.3818 0.9972 0.1323
C60_3 C 0.32500(9) 0.95425(15) 0.06363(19)
C61_3 C 0.97283(10) 0.8523(2) 0.8300(2)
H53_3 H 0.9991 0.7715 0.8498
C66_3 C 0.97749(10) 0.9161(2) 0.8274(3)
H56_3 H 0.9581 0.9419 0.8151
C68_3 C 0.93820(12) 0.8189(2) 0.8090(3)
C77_3 C 0.87404(9) 0.82238(19) 0.7930(2)
C78_3 C 0.84918(9) 0.82159(17) 0.84685(19)
H60_3 H 0.8543 0.8419 0.8885
C79_3 C 0.81659(8) 0.79016(15) 0.83799(16)
C80_3 C 0.80936(8) 0.75950(15) 0.77565(17)
H61_3 H 0.7877 0.7374 0.7703
C81_3 C 0.83369(8) 0.76141(16) 0.72226(17)
C82_3 C 0.86661(9) 0.7928(2) 0.73101(19)
H62_3 H 0.8835 0.7939 0.6951
C83_3 C 0.82560(8) 0.72850(15) 0.65460(17)
C84_3 C 0.79057(8) 0.78628(15) 0.89700(16)
N9_3 N 0.90822(8) 0.85259(19) 0.80486(18)
H91_3 H 0.9093 0.8948 0.8093
O29_3 O 0.84890(6) 0.72662(11) 0.60844(12)
O30_3 O 0.79473(6) 0.70427(14) 0.64629(13)
O31_2 O 0.76283(6) 0.75314(11) 0.88653(12)
O33_3 O 0.93914(10) 0.7625(2) 0.7967(3)
C75_4 C 0.71466(9) 0.32674(13) 0.00710(17)
C85_4 C 0.5428(2) 0.1683(7) 0.0284(9)
H64_4 H 0.5270 0.1415 0.0481
H65_4 H 0.5367 0.2076 0.0414
C86_4 C 0.5862(5) 0.1002(12) 0.0925(16)
H66_4 H 0.5928 0.0643 0.0649
H67_4 H 0.6056 0.1096 0.1244
H68_4 H 0.5644 0.0910 0.1181
C87_4 C 0.6076(2) 0.1809(3) 0.0198(4)
C88_4 C 0.7130(3) 0.1595(4) 0.2691(3)
H70_4 H 0.6875 0.1684 0.2735
H71_4 H 0.7190 0.1234 0.2970
H72_4 H 0.7269 0.1952 0.2846
C89_4 C 0.7594(3) 0.1178(9) 0.1939(6)
H73_4 H 0.7728 0.1389 0.1579
H74_4 H 0.7720 0.1225 0.2373
H75_4 H 0.7573 0.0739 0.1828
C90_4 C 0.7065(2) 0.1608(3) 0.1432(3)
H76_4 H 0.6858 0.1845 0.1525
N11_4 N 0.7212(2) 0.1470(3) 0.2000(2)
N14_4 N 0.58007(19) 0.1536(5) 0.0479(6)
O25_4 O 0.70185(7) 0.27280(10) 0.00300(14)
O35_4 O 0.63892(10) 0.16999(19) 0.0316(2)
O36_4 O 0.70890(13) 0.15531(19) 0.08672(18)
O49_2 O 0.77927(6) 0.67957(11) 0.00788(14)
C1_4 C 0.52717(10) 0.3523(2) 0.6700(2)
C2_4 C 0.49824(12) 0.3151(2) 0.6513(3)
H1_4 H 0.5009 0.2715 0.6502
C3_4 C 0.46510(11) 0.3419(2) 0.6343(3)
H2_4 H 0.4459 0.3162 0.6209
C4_4 C 0.46034(9) 0.40506(19) 0.6369(2)
C5_4 C 0.48885(10) 0.4425(2) 0.6567(3)
H3_4 H 0.4857 0.4859 0.6596
C6_4 C 0.52251(10) 0.4161(2) 0.6726(3)
H4_4 H 0.5419 0.4419 0.6849
C7_4 C 0.42385(9) 0.43556(19) 0.6251(2)
C8_4 C 0.56180(12) 0.3189(2) 0.6910(3)
C9_4 C 0.36544(8) 0.41878(15) 0.56353(18)
C10_4 C 0.34365(8) 0.36971(14) 0.53895(18)
H5_4 H 0.3530 0.3291 0.5366
C11_4 C 0.30842(8) 0.38086(14) 0.51817(16)
C12_4 C 0.29429(8) 0.44161(13) 0.52066(16)
H6_4 H 0.2706 0.4495 0.5061
C13_4 C 0.31587(8) 0.49024(14) 0.54497(16)
C14_4 C 0.35140(8) 0.47943(15) 0.56711(17)
H7_4 H 0.3655 0.5124 0.5841
C15_4 C 0.28534(9) 0.32674(13) 0.49290(17)
C16_4 C 0.30154(8) 0.55638(14) 0.54682(17)
C17_4 C 0.62596(9) 0.32238(19) 0.7070(2)
C18_4 C 0.65082(9) 0.32159(17) 0.65315(19)
H8_4 H 0.6457 0.3419 0.6115
C19_4 C 0.68341(8) 0.29016(15) 0.66201(16)
C20_4 C 0.69064(8) 0.25950(15) 0.72435(17)
H9_4 H 0.7123 0.2374 0.7297
C21_4 C 0.66631(8) 0.26141(16) 0.77774(17)
C22_4 C 0.63339(9) 0.2928(2) 0.76899(19)
H10_4 H 0.6165 0.2939 0.8049
C23_4 C 0.67440(8) 0.22850(15) 0.84540(17)
C24_4 C 0.70943(8) 0.28628(15) 0.60300(16)
C25_4 C 0.03455(12) 0.6476(2) 0.2787(3)
C26_4 C 0.01739(17) 0.7006(3) 0.2642(5)
H11_4 H 0.0288 0.7388 0.2731
C27_4 C 0.01796(18) 0.5948(3) 0.2637(6)
H12_4 H 0.0298 0.5567 0.2711
C28_4 C 0.07261(13) 0.6520(2) 0.3085(3)
C29_4 C 0.12031(10) 0.59235(16) 0.3696(2)
C30_4 C 0.14104(9) 0.64286(15) 0.3917(2)
H13_4 H 0.1336 0.6838 0.3822
C31_4 C 0.17314(8) 0.63215(14) 0.42808(17)
C32_4 C 0.18469(8) 0.57171(14) 0.44278(17)
H14_4 H 0.2061 0.5652 0.4674
C33_4 C 0.16402(9) 0.52060(14) 0.42046(19)
C34_4 C 0.13189(10) 0.53119(16) 0.3833(2)
H15_4 H 0.1182 0.4972 0.3677
C35_4 C 0.19510(7) 0.68874(14) 0.45056(17)
C36_4 C 0.17500(9) 0.45425(15) 0.43637(19)
C37_4 C 0.4572(2) 0.1683(7) 0.4716(9)
H16_4 H 0.4571 0.1818 0.5205
H17_4 H 0.4730 0.1415 0.4519
H18_4 H 0.4633 0.2076 0.4586
C38_4 C 0.4138(5) 0.1002(12) 0.4075(16)
H19_4 H 0.4072 0.0643 0.4351
H20_4 H 0.3944 0.1096 0.3756
H21_4 H 0.4356 0.0910 0.3819
C39_4 C 0.3924(2) 0.1809(3) 0.4802(4)
H22_4 H 0.3973 0.2121 0.5128
C40_4 C 0.2870(3) 0.1595(4) 0.2309(3)
H23_4 H 0.3125 0.1684 0.2265
H24_4 H 0.2810 0.1234 0.2030
H25_4 H 0.2731 0.1952 0.2154
C41_4 C 0.2406(3) 0.1178(9) 0.3061(6)
H26_4 H 0.2272 0.1389 0.3421
H27_4 H 0.2280 0.1225 0.2627
H28_4 H 0.2427 0.0739 0.3172
C42_4 C 0.2935(2) 0.1608(3) 0.3568(3)
H29_4 H 0.3142 0.1845 0.3475
C43_4 C 0.1687(3) 0.4941(5) 0.6587(7)
H30_4 H 0.1705 0.4869 0.6096
H31_4 H 0.1763 0.4570 0.6833
H32_4 H 0.1439 0.5035 0.6704
C44_4 C 0.1874(3) 0.5730(6) 0.7457(5)
H33_4 H 0.2045 0.6063 0.7537
H34_4 H 0.1631 0.5893 0.7498
H35_4 H 0.1910 0.5404 0.7795
C45_4 C 0.2126(2) 0.5743(5) 0.6334(5)
H36_4 H 0.2125 0.5522 0.5916
C46_4 C 0.2952(3) 0.6684(4) 0.8223(4)
H37_4 H 0.2729 0.6729 0.7969
H38_4 H 0.2965 0.6268 0.8417
H39_4 H 0.2960 0.6990 0.8591
C47_4 C 0.3607(3) 0.6823(6) 0.8066(7)
H40_4 H 0.3783 0.6908 0.7708
H41_4 H 0.3612 0.7157 0.8402
H42_4 H 0.3666 0.6432 0.8290
C48_4 C 0.31962(18) 0.6811(3) 0.7094(3)
H43_4 H 0.3398 0.6874 0.6811
N1_4 N 0.59178(8) 0.35259(19) 0.69514(18)
H44_4 H 0.5907 0.3948 0.6907
N2_4 N 0.40155(7) 0.40348(14) 0.58272(18)
H45_4 H 0.4107 0.3680 0.5641
N3_4 N 0.08659(9) 0.59981(15) 0.3345(2)
H46_4 H 0.0731 0.5647 0.3294
N4_4 N 0.2788(2) 0.1470(3) 0.3000(2)
N5_4 N 0.19247(16) 0.5483(2) 0.6788(3)
N6_4 N 0.32535(16) 0.6781(3) 0.7765(2)
N7_4 N 0.41993(19) 0.1536(5) 0.4521(6)
O1_4 O 0.29815(7) 0.27280(10) 0.49700(14)
O3_4 O 0.27124(6) 0.56707(11) 0.52045(15)
O4_4 O 0.32019(6) 0.59923(10) 0.57454(14)
O5_4 O 0.65110(6) 0.22662(11) 0.89156(12)
O6_4 O 0.70527(6) 0.20427(14) 0.85371(13)
O9_4 O 0.56086(10) 0.2625(2) 0.7033(3)
O10_4 O 0.41640(8) 0.48481(17) 0.6534(2)
O13_4 O 0.22073(6) 0.67957(11) 0.49212(14)
O15_4 O 0.08825(12) 0.70179(19) 0.3075(3)
O16_4 O 0.36108(10) 0.16999(19) 0.4684(2)
O17_4 O 0.29110(13) 0.15531(19) 0.41328(18)
O18_4 O 0.23013(11) 0.61646(17) 0.6310(2)
O19_4 O 0.29082(9) 0.67637(15) 0.68134(15)
C61_4 C 0.47283(10) 0.3523(2) 0.8300(2)
C62_4 C 0.50176(12) 0.3151(2) 0.8487(3)
H53_4 H 0.4991 0.2715 0.8498
C63_4 C 0.53490(11) 0.3419(2) 0.8657(3)
H54_4 H 0.5541 0.3162 0.8791
C64_4 C 0.53966(9) 0.40506(19) 0.8631(2)
C65_4 C 0.51115(10) 0.4425(2) 0.8433(3)
H55_4 H 0.5143 0.4859 0.8404
C66_4 C 0.47749(10) 0.4161(2) 0.8274(3)
H56_4 H 0.4581 0.4419 0.8151
C67_4 C 0.57615(9) 0.43556(19) 0.8749(2)
C68_4 C 0.43820(12) 0.3189(2) 0.8090(3)
C69_4 C 0.63456(8) 0.41878(15) 0.93647(18)
C70_4 C 0.65635(8) 0.36971(14) 0.96105(18)
H57_4 H 0.6470 0.3291 0.9634
C71_4 C 0.69158(8) 0.38086(14) 0.98183(16)
C72_4 C 0.70571(8) 0.44161(13) 0.97934(16)
H58_4 H 0.7294 0.4495 0.9939
C73_4 C 0.68413(8) 0.49024(14) 0.95503(16)
C74_4 C 0.64860(8) 0.47943(15) 0.93289(17)
H59_4 H 0.6345 0.5124 0.9159
C76_4 C 0.69846(8) 0.55638(14) 0.95318(17)
C77_4 C 0.37404(9) 0.32238(19) 0.7930(2)
C78_4 C 0.34918(9) 0.32159(17) 0.84685(19)
H60_4 H 0.3543 0.3419 0.8885
C79_4 C 0.31659(8) 0.29016(15) 0.83799(16)
C80_4 C 0.30936(8) 0.25950(15) 0.77565(17)
H61_4 H 0.2877 0.2374 0.7703
C81_4 C 0.33369(8) 0.26141(16) 0.72226(17)
C82_4 C 0.36661(9) 0.2928(2) 0.73101(19)
H62_4 H 0.3835 0.2939 0.6951
C83_4 C 0.32560(8) 0.22850(15) 0.65460(17)
C84_4 C 0.29057(8) 0.28628(15) 0.89700(16)
H63_4 H 0.5429 0.1818 0.9795
H69_4 H 0.6027 0.2121 0.9872
C91_4 C 0.8313(3) 0.4941(5) 0.8413(7)
H77_4 H 0.8295 0.4869 0.8904
H78_4 H 0.8237 0.4570 0.8167
H79_4 H 0.8561 0.5035 0.8296
C92_4 C 0.8126(3) 0.5730(6) 0.7543(5)
H80_4 H 0.7955 0.6063 0.7463
H81_4 H 0.8369 0.5893 0.7502
H82_4 H 0.8090 0.5404 0.7205
C93_4 C 0.7874(2) 0.5743(5) 0.8666(5)
H83_4 H 0.7875 0.5522 0.9084
C94_4 C 0.7048(3) 0.6684(4) 0.6777(4)
H84_4 H 0.7271 0.6729 0.7031
H85_4 H 0.7035 0.6268 0.6583
H86_4 H 0.7040 0.6990 0.6409
C95_4 C 0.6393(3) 0.6823(6) 0.6934(7)
H87_4 H 0.6217 0.6908 0.7292
H88_4 H 0.6388 0.7157 0.6598
H89_4 H 0.6334 0.6432 0.6710
C96_4 C 0.68038(18) 0.6811(3) 0.7906(3)
H90_4 H 0.6602 0.6874 0.8189
N9_4 N 0.40822(8) 0.35259(19) 0.80486(18)
H91_4 H 0.4093 0.3948 0.8093
N10_4 N 0.59845(7) 0.40348(14) 0.91728(18)
H92_4 H 0.5893 0.3680 0.9359
N12_4 N 0.80753(16) 0.5483(2) 0.8212(3)
N13_4 N 0.67465(16) 0.6781(3) 0.7235(2)
O27_4 O 0.72876(6) 0.56707(11) 0.97955(15)
O28_4 O 0.67981(6) 0.59923(10) 0.92546(14)
O29_4 O 0.34890(6) 0.22662(11) 0.60844(12)
O30_4 O 0.29473(6) 0.20427(14) 0.64629(13)
O33_4 O 0.43914(10) 0.2625(2) 0.7967(3)
O34_4 O 0.58360(8) 0.48481(17) 0.8466(2)
O37_4 O 0.76987(11) 0.61646(17) 0.8690(2)
O38_4 O 0.70918(9) 0.67637(15) 0.81866(15)
C49_4 C 0.96545(12) 0.6476(2) 0.2213(3)
C50_4 C 0.98261(17) 0.7006(3) 0.2358(5)
H47_4 H 0.9712 0.7388 0.2269
C51_4 C 0.98204(18) 0.5948(3) 0.2363(6)
H48_4 H 0.9702 0.5567 0.2289
C52_4 C 0.92739(13) 0.6520(2) 0.1915(3)
C53_4 C 0.87969(10) 0.59235(16) 0.1304(2)
C54_4 C 0.85896(9) 0.64286(15) 0.1083(2)
H49_4 H 0.8664 0.6838 0.1178
C55_4 C 0.82686(8) 0.63215(14) 0.07192(17)
C56_4 C 0.81531(8) 0.57171(14) 0.05722(17)
H50_4 H 0.7939 0.5652 0.0326
C57_4 C 0.83598(9) 0.52060(14) 0.07954(19)
C58_4 C 0.86811(10) 0.53119(16) 0.1167(2)
H51_4 H 0.8818 0.4972 0.1323
C59_4 C 0.80490(7) 0.68874(14) 0.04944(17)
C60_4 C 0.82500(9) 0.45425(15) 0.06363(19)
N8_4 N 0.91341(9) 0.59981(15) 0.1655(2)
H52_4 H 0.9269 0.5647 0.1706
O24_4 O 0.91175(12) 0.70179(19) 0.1925(3)
loop_
_geom_bond_atom_site_label_1
_geom_bond_atom_site_label_2
_geom_bond_site_symmetry_1
_geom_bond_site_symmetry_2
C3 C2 1_555 1_555
H2 C3 1_555 1_555
C4 C3 1_555 1_555
C5 C4 1_555 1_555
H3 C5 1_555 1_555
C7 C4 1_555 1_555
C9 C10 1_555 1_555
C10 H5 1_555 1_555
C11 C10 1_555 1_555
C12 C11 1_555 1_555
H6 C12 1_555 1_555
C13 C12 1_555 1_555
C14 C9 1_555 1_555
C15 C11 1_555 1_555
C37 H16 1_555 1_555
H17 C37 1_555 1_555
H18 C37 1_555 1_555
C38 H19 1_555 1_555
H20 C38 1_555 1_555
H21 C38 1_555 1_555
C39 H22 1_555 1_555
C40 H23 1_555 1_555
H24 C40 1_555 1_555
H25 C40 1_555 1_555
C41 H26 1_555 1_555
H27 C41 1_555 1_555
H28 C41 1_555 1_555
C42 H29 1_555 1_555
C43 H30 1_555 1_555
H31 C43 1_555 1_555
N2 C7 1_555 1_555
H45 N2 1_555 1_555
N4 C40 1_555 1_555
N7 C37 1_555 1_555
O1 C15 1_555 1_555
O2 C15 1_555 1_555
O10 C7 1_555 1_555
O11 C36 1_555 1_555
O12 C36 1_555 1_555
O16 C39 1_555 1_555
O17 C42 1_555 1_555
Tb2 O1 1_555 1_555
O20 C60 1_555 1_555
O21 C60 1_555 1_555
C66 C61 1_555 1_555
H56 C66 1_555 1_555
C68 C61 1_555 1_555
C77 C78 1_555 1_555
C78 H60 1_555 1_555
C79 C78 1_555 1_555
C80 C79 1_555 1_555
H61 C80 1_555 1_555
C81 C80 1_555 1_555
C82 C77 1_555 1_555
H62 C82 1_555 1_555
C83 C81 1_555 1_555
C84 C79 1_555 1_555
N9 C68 1_555 1_555
H91 N9 1_555 1_555
O29 Tb2 1_555 1_555
O30 Tb2 1_555 1_555
O31 C84 1_555 1_555
O32 C84 1_555 1_555
O33 C68 1_555 1_555
O39 Tb2 1_555 1_555
O45 Tb2 1_555 1_555
O47 Tb2 1_555 1_555
Tb7 O31 1_555 1_555
Tb12 O2 1_555 1_555
Tb14 O20 1_555 1_555
C9 N2 1_555 1_555
C13 C14 1_555 1_555
C38 N7 1_555 1_555
C39 N7 1_555 1_555
C41 N4 1_555 1_555
C42 N4 1_555 1_555
O11 Tb12 1_555 1_555
O12 Tb12 1_555 1_555
O16 Tb2 1_555 1_555
O17 Tb2 1_555 1_555
O21 Tb14 1_555 1_555
C77 N9 1_555 1_555
C81 C82 1_555 1_555
C83 O29 1_555 1_555
C83 O30 1_555 1_555
C25 C26 1_555 1_555
C26 H11 1_555 1_555
C27 C25 1_555 1_555
H12 C27 1_555 1_555
C28 C25 1_555 1_555
C29 C30 1_555 1_555
C30 H13 1_555 1_555
C31 C30 1_555 1_555
C32 C31 1_555 1_555
H14 C32 1_555 1_555
C33 C32 1_555 1_555
C34 C29 1_555 1_555
C35 C31 1_555 1_555
C44 H33 1_555 1_555
H34 C44 1_555 1_555
H35 C44 1_555 1_555
C45 H36 1_555 1_555
C46 H37 1_555 1_555
H38 C46 1_555 1_555
H39 C46 1_555 1_555
C47 H40 1_555 1_555
H41 C47 1_555 1_555
H42 C47 1_555 1_555
C48 H43 1_555 1_555
N3 C28 1_555 1_555
H46 N3 1_555 1_555
N6 C46 1_555 1_555
O3 C16 1_555 1_555
O4 C16 1_555 1_555
O13 C35 1_555 1_555
O14 C35 1_555 1_555
O15 C28 1_555 1_555
O18 C45 1_555 1_555
O19 C48 1_555 1_555
Tb1 O3 1_555 1_555
C49 C50 1_555 1_555
C50 C26 1_555 1_555
H47 C50 1_555 1_555
C51 C27 1_555 1_555
H48 C51 1_555 1_555
C52 C49 1_555 1_555
C53 C54 1_555 1_555
C54 H49 1_555 1_555
C55 C54 1_555 1_555
C56 C55 1_555 1_555
H50 C56 1_555 1_555
C57 C56 1_555 1_555
C58 C53 1_555 1_555
C59 C55 1_555 1_555
N8 C52 1_555 1_555
H52 N8 1_555 1_555
O22 C59 1_555 1_555
O23 C59 1_555 1_555
O24 C52 1_555 1_555
O41 Tb1 1_555 1_555
O43 Tb1 1_555 1_555
O50 Tb1 1_555 1_555
Tb10 O14 1_555 1_555
Tb11 O23 1_555 1_555
C29 N3 1_555 1_555
C33 C34 1_555 1_555
C44 N5 1_555 1_555
C45 N5 1_555 1_555
C47 N6 1_555 1_555
C48 N6 1_555 1_555
O4 Tb1 1_555 1_555
O13 Tb1 1_555 1_555
O18 Tb1 1_555 1_555
O19 Tb1 1_555 1_555
C49 C51 1_555 1_555
C53 N8 1_555 1_555
C57 C58 1_555 1_555
C6 C1 1_555 1_555
H4 C6 1_555 1_555
C8 C1 1_555 1_555
C17 C18 1_555 1_555
C18 H8 1_555 1_555
C19 C18 1_555 1_555
C20 C19 1_555 1_555
H9 C20 1_555 1_555
C21 C20 1_555 1_555
C22 C17 1_555 1_555
H10 C22 1_555 1_555
C23 C21 1_555 1_555
C24 C19 1_555 1_555
N1 C8 1_555 1_555
H44 N1 1_555 1_555
O5 C23 1_555 1_555
O6 C23 1_555 1_555
O7 C24 1_555 1_555
O8 C24 1_555 1_555
O9 C8 1_555 1_555
C63 C62 1_555 1_555
H54 C63 1_555 1_555
C64 C63 1_555 1_555
C65 C64 1_555 1_555
H55 C65 1_555 1_555
C67 C64 1_555 1_555
C69 C70 1_555 1_555
C70 H57 1_555 1_555
C71 C70 1_555 1_555
C72 C71 1_555 1_555
H58 C72 1_555 1_555
C73 C72 1_555 1_555
C74 C69 1_555 1_555
C91 H77 1_555 1_555
H78 C91 1_555 1_555
N10 C67 1_555 1_555
H92 N10 1_555 1_555
O34 C67 1_555 1_555
Tb4 O5 1_555 1_555
O40 Tb4 1_555 1_555
O46 Tb4 1_555 1_555
O48 Tb4 1_555 1_555
Tb6 O7 1_555 1_555
Tb8 O8 1_555 1_555
C17 N1 1_555 1_555
C21 C22 1_555 1_555
O6 Tb4 1_555 1_555
C69 N10 1_555 1_555
C73 C74 1_555 1_555
H64 C85 1_555 1_555
H65 C85 1_555 1_555
C86 H66 1_555 1_555
H67 C86 1_555 1_555
H68 C86 1_555 1_555
C88 H70 1_555 1_555
H71 C88 1_555 1_555
H72 C88 1_555 1_555
C89 H73 1_555 1_555
H74 C89 1_555 1_555
H75 C89 1_555 1_555
C90 H76 1_555 1_555
N11 C88 1_555 1_555
N14 C85 1_555 1_555
O25 C75 1_555 1_555
O26 C75 1_555 1_555
O35 C87 1_555 1_555
O36 C90 1_555 1_555
Tb14 O26 1_555 1_555
C86 N14 1_555 1_555
C87 N14 1_555 1_555
C89 N11 1_555 1_555
C90 N11 1_555 1_555
C92 H80 1_555 1_555
H81 C92 1_555 1_555
H82 C92 1_555 1_555
C93 H83 1_555 1_555
C94 H84 1_555 1_555
H85 C94 1_555 1_555
H86 C94 1_555 1_555
C95 H87 1_555 1_555
H88 C95 1_555 1_555
H89 C95 1_555 1_555
C96 H90 1_555 1_555
N13 C94 1_555 1_555
O27 C76 1_555 1_555
O28 C76 1_555 1_555
O37 C93 1_555 1_555
O38 C96 1_555 1_555
Tb5 O27 1_555 1_555
O42 Tb5 1_555 1_555
O51 Tb5 1_555 1_555
C92 N12 1_555 1_555
C93 N12 1_555 1_555
C95 N13 1_555 1_555
C96 N13 1_555 1_555
O28 Tb5 1_555 1_555
O37 Tb5 1_555 1_555
O38 Tb5 1_555 1_555
C49_2 C50_2 1_555 1_555
H47_2 C50_2 1_555 1_555
H48_2 C51_2 1_555 1_555
C52_2 C49_2 1_555 1_555
C53_2 C54_2 1_555 1_555
C54_2 H49_2 1_555 1_555
C55_2 C54_2 1_555 1_555
C56_2 C55_2 1_555 1_555
H50_2 C56_2 1_555 1_555
C57_2 C56_2 1_555 1_555
C58_2 C53_2 1_555 1_555
H51_2 C58_2 1_555 1_555
C59_2 C55_2 1_555 1_555
C60_2 C57_2 1_555 1_555
N8_2 C52_2 1_555 1_555
H52_2 N8_2 1_555 1_555
O20_2 C60_2 1_555 1_555
O21_2 C60_2 1_555 1_555
O22_2 C59_2 1_555 1_555
O23_2 C59_2 1_555 1_555
O24_2 C52_2 1_555 1_555
Tb9 O23_2 1_555 1_555
Tb14_2 O20_2 1_555 1_555
C49_2 C51_2 1_555 1_555
C53_2 N8_2 1_555 1_555
C57_2 C58_2 1_555 1_555
O21_2 Tb14_2 1_555 1_555
C1_2 C2_2 1_555 1_555
C2_2 H1_2 1_555 1_555
C3_2 C2_2 1_555 1_555
H2_2 C3_2 1_555 1_555
C4_2 C3_2 1_555 1_555
C5_2 C4_2 1_555 1_555
H3_2 C5_2 1_555 1_555
C6_2 C1_2 1_555 1_555
H4_2 C6_2 1_555 1_555
C7_2 C4_2 1_555 1_555
C8_2 C1_2 1_555 1_555
C9_2 C10_2 1_555 1_555
C10_2 H5_2 1_555 1_555
C11_2 C10_2 1_555 1_555
C12_2 C11_2 1_555 1_555
H6_2 C12_2 1_555 1_555
C13_2 C12_2 1_555 1_555
C14_2 C9_2 1_555 1_555
H7_2 C14_2 1_555 1_555
C15_2 C11_2 1_555 1_555
C16_2 C13_2 1_555 1_555
C17_2 C18_2 1_555 1_555
C18_2 H8_2 1_555 1_555
C19_2 C18_2 1_555 1_555
C20_2 C19_2 1_555 1_555
H9_2 C20_2 1_555 1_555
C21_2 C20_2 1_555 1_555
C22_2 C17_2 1_555 1_555
H10_2 C22_2 1_555 1_555
C23_2 C21_2 1_555 1_555
C24_2 C19_2 1_555 1_555
C25_2 C26_2 1_555 1_555
C26_2 H11_2 1_555 1_555
C27_2 C25_2 1_555 1_555
H12_2 C27_2 1_555 1_555
C28_2 C25_2 1_555 1_555
C29_2 C30_2 1_555 1_555
C30_2 H13_2 1_555 1_555
C31_2 C30_2 1_555 1_555
C32_2 C31_2 1_555 1_555
H14_2 C32_2 1_555 1_555
C33_2 C32_2 1_555 1_555
C34_2 C29_2 1_555 1_555
H15_2 C34_2 1_555 1_555
C35_2 C31_2 1_555 1_555
C36_2 C33_2 1_555 1_555
C37_2 H16_2 1_555 1_555
H17_2 C37_2 1_555 1_555
H18_2 C37_2 1_555 1_555
C38_2 H19_2 1_555 1_555
H20_2 C38_2 1_555 1_555
H21_2 C38_2 1_555 1_555
C39_2 H22_2 1_555 1_555
C40_2 H23_2 1_555 1_555
H24_2 C40_2 1_555 1_555
H25_2 C40_2 1_555 1_555
C41_2 H26_2 1_555 1_555
H27_2 C41_2 1_555 1_555
H28_2 C41_2 1_555 1_555
C42_2 H29_2 1_555 1_555
C43_2 H30_2 1_555 1_555
H31_2 C43_2 1_555 1_555
H32_2 C43_2 1_555 1_555
C44_2 H33_2 1_555 1_555
H34_2 C44_2 1_555 1_555
H35_2 C44_2 1_555 1_555
C45_2 H36_2 1_555 1_555
C46_2 H37_2 1_555 1_555
H38_2 C46_2 1_555 1_555
H39_2 C46_2 1_555 1_555
C47_2 H40_2 1_555 1_555
H41_2 C47_2 1_555 1_555
H42_2 C47_2 1_555 1_555
C48_2 H43_2 1_555 1_555
N1_2 C8_2 1_555 1_555
H44_2 N1_2 1_555 1_555
N2_2 C7_2 1_555 1_555
H45_2 N2_2 1_555 1_555
N3_2 C28_2 1_555 1_555
H46_2 N3_2 1_555 1_555
N4_2 C40_2 1_555 1_555
N5_2 C43_2 1_555 1_555
N6_2 C46_2 1_555 1_555
N7_2 C37_2 1_555 1_555
O1_2 C15_2 1_555 1_555
O2_2 C15_2 1_555 1_555
O3_2 C16_2 1_555 1_555
O4_2 C16_2 1_555 1_555
O5_2 C23_2 1_555 1_555
O6_2 C23_2 1_555 1_555
O41 C24_2 1_555 1_555
O8_2 C24_2 1_555 1_555
O9_2 C8_2 1_555 1_555
O10_2 C7_2 1_555 1_555
O11_2 C36_2 1_555 1_555
O12_2 C36_2 1_555 1_555
O13_2 C35_2 1_555 1_555
O14_2 C35_2 1_555 1_555
O15_2 C28_2 1_555 1_555
O16_2 C39_2 1_555 1_555
O17_2 C42_2 1_555 1_555
O18_2 C45_2 1_555 1_555
O19_2 C48_2 1_555 1_555
Tb6 O3_2 1_555 1_555
Tb2_2 O1_2 1_555 1_555
C61_2 C62_2 1_555 1_555
C62_2 H53_2 1_555 1_555
C63_2 C62_2 1_555 1_555
H54_2 C63_2 1_555 1_555
C64_2 C63_2 1_555 1_555
C65_2 C64_2 1_555 1_555
H55_2 C65_2 1_555 1_555
C66_2 C61_2 1_555 1_555
H56_2 C66_2 1_555 1_555
C67_2 C64_2 1_555 1_555
C68_2 C61_2 1_555 1_555
C69_2 C70_2 1_555 1_555
C70_2 H57_2 1_555 1_555
C71_2 C70_2 1_555 1_555
C72_2 C71_2 1_555 1_555
H58_2 C72_2 1_555 1_555
C73_2 C72_2 1_555 1_555
C74_2 C69_2 1_555 1_555
H59_2 C74_2 1_555 1_555
C76_2 C73_2 1_555 1_555
C77_2 C78_2 1_555 1_555
C78_2 H60_2 1_555 1_555
C79_2 C78_2 1_555 1_555
C80_2 C79_2 1_555 1_555
H61_2 C80_2 1_555 1_555
C81_2 C80_2 1_555 1_555
C82_2 C77_2 1_555 1_555
H62_2 C82_2 1_555 1_555
C83_2 C81_2 1_555 1_555
C84_2 C79_2 1_555 1_555
C91_2 H77_2 1_555 1_555
H78_2 C91_2 1_555 1_555
H79_2 C91_2 1_555 1_555
C92_2 H80_2 1_555 1_555
H81_2 C92_2 1_555 1_555
H82_2 C92_2 1_555 1_555
C93_2 H83_2 1_555 1_555
C94_2 H84_2 1_555 1_555
H85_2 C94_2 1_555 1_555
H86_2 C94_2 1_555 1_555
C95_2 H87_2 1_555 1_555
H88_2 C95_2 1_555 1_555
H89_2 C95_2 1_555 1_555
C96_2 H90_2 1_555 1_555
N9_2 C68_2 1_555 1_555
H91_2 N9_2 1_555 1_555
N10_2 C67_2 1_555 1_555
H92_2 N10_2 1_555 1_555
N12_2 C91_2 1_555 1_555
N13_2 C94_2 1_555 1_555
O27_2 C76_2 1_555 1_555
O28_2 C76_2 1_555 1_555
O29_2 Tb2_2 1_555 1_555
O30_2 Tb2_2 1_555 1_555
O42 C84_2 1_555 1_555
O32_2 C84_2 1_555 1_555
O33_2 C68_2 1_555 1_555
O34_2 C67_2 1_555 1_555
O37_2 C93_2 1_555 1_555
O38_2 C96_2 1_555 1_555
Tb7 O27_2 1_555 1_555
Tb4_2 O5_2 1_555 1_555
O39_2 Tb2_2 1_555 1_555
O40_2 Tb4_2 1_555 1_555
O43_2 Tb6 1_555 1_555
O45_2 Tb2_2 1_555 1_555
O46_2 Tb4_2 1_555 1_555
O47_2 Tb2_2 1_555 1_555
O48_2 Tb4_2 1_555 1_555
O50_2 Tb6 1_555 1_555
O51_2 Tb7 1_555 1_555
Tb10 O8_2 1_555 1_555
Tb8 O14_2 1_555 1_555
Tb12_2 O2_2 1_555 1_555
C5_2 C6_2 1_555 1_555
C9_2 N2_2 1_555 1_555
C13_2 C14_2 1_555 1_555
C17_2 N1_2 1_555 1_555
C21_2 C22_2 1_555 1_555
C29_2 N3_2 1_555 1_555
C33_2 C34_2 1_555 1_555
C38_2 N7_2 1_555 1_555
C39_2 N7_2 1_555 1_555
C41_2 N4_2 1_555 1_555
C42_2 N4_2 1_555 1_555
C44_2 N5_2 1_555 1_555
C45_2 N5_2 1_555 1_555
C47_2 N6_2 1_555 1_555
C48_2 N6_2 1_555 1_555
O4_2 Tb6 1_555 1_555
O6_2 Tb4_2 1_555 1_555
O11_2 Tb12_2 1_555 1_555
O12_2 Tb12_2 1_555 1_555
O13_2 Tb6 1_555 1_555
O16_2 Tb2_2 1_555 1_555
O17_2 Tb2_2 1_555 1_555
O18_2 Tb6 1_555 1_555
O19_2 Tb6 1_555 1_555
C65_2 C66_2 1_555 1_555
C69_2 N10_2 1_555 1_555
C73_2 C74_2 1_555 1_555
C77_2 N9_2 1_555 1_555
C81_2 C82_2 1_555 1_555
C83_2 O29_2 1_555 1_555
C83_2 O30_2 1_555 1_555
C92_2 N12_2 1_555 1_555
C93_2 N12_2 1_555 1_555
C95_2 N13_2 1_555 1_555
C96_2 N13_2 1_555 1_555
O28_2 Tb7 1_555 1_555
O37_2 Tb7 1_555 1_555
O38_2 Tb7 1_555 1_555
H64_2 C85_2 1_555 1_555
H65_2 C85_2 1_555 1_555
C86_2 H66_2 1_555 1_555
H67_2 C86_2 1_555 1_555
H68_2 C86_2 1_555 1_555
C88_2 H70_2 1_555 1_555
H71_2 C88_2 1_555 1_555
H72_2 C88_2 1_555 1_555
C89_2 H73_2 1_555 1_555
H74_2 C89_2 1_555 1_555
H75_2 C89_2 1_555 1_555
C90_2 H76_2 1_555 1_555
N11_2 C88_2 1_555 1_555
N14_2 C85_2 1_555 1_555
O25_2 C75_2 1_555 1_555
O26_2 C75_2 1_555 1_555
O35_2 C87_2 1_555 1_555
O36_2 C90_2 1_555 1_555
Tb14_2 O26_2 1_555 1_555
C86_2 N14_2 1_555 1_555
C87_2 N14_2 1_555 1_555
C89_2 N11_2 1_555 1_555
C90_2 N11_2 1_555 1_555
C92_3 H80_3 1_555 1_555
H81_3 C92_3 1_555 1_555
H82_3 C92_3 1_555 1_555
C93_3 H83_3 1_555 1_555
C94_3 H84_3 1_555 1_555
H85_3 C94_3 1_555 1_555
H86_3 C94_3 1_555 1_555
C95_3 H87_3 1_555 1_555
H88_3 C95_3 1_555 1_555
H89_3 C95_3 1_555 1_555
C96_3 H90_3 1_555 1_555
N13_3 C94_3 1_555 1_555
O27_3 C76_3 1_555 1_555
O28_3 C76_3 1_555 1_555
O37_3 C93_3 1_555 1_555
O38_3 C96_3 1_555 1_555
Tb9 O27_3 1_555 1_555
O42_2 Tb9 1_555 1_555
C92_3 N12_3 1_555 1_555
C93_3 N12_3 1_555 1_555
C95_3 N13_3 1_555 1_555
C96_3 N13_3 1_555 1_555
O28_3 Tb9 1_555 1_555
O37_3 Tb9 1_555 1_555
O38_3 Tb9 1_555 1_555
H64_3 C85_3 1_555 1_555
H65_3 C85_3 1_555 1_555
C86_3 H66_3 1_555 1_555
H67_3 C86_3 1_555 1_555
H68_3 C86_3 1_555 1_555
C88_3 H70_3 1_555 1_555
H71_3 C88_3 1_555 1_555
H72_3 C88_3 1_555 1_555
C89_3 H73_3 1_555 1_555
H74_3 C89_3 1_555 1_555
H75_3 C89_3 1_555 1_555
C90_3 H76_3 1_555 1_555
N11_3 C88_3 1_555 1_555
N14_3 C85_3 1_555 1_555
O25_3 C75_3 1_555 1_555
O40_2 C75_3 1_555 1_555
O35_3 C87_3 1_555 1_555
O36_3 C90_3 1_555 1_555
C86_3 N14_3 1_555 1_555
C87_3 N14_3 1_555 1_555
C89_3 N11_3 1_555 1_555
C90_3 N11_3 1_555 1_555
C6_3 C1_3 1_555 1_555
H4_3 C6_3 1_555 1_555
C8_3 C1_3 1_555 1_555
C17_3 C18_3 1_555 1_555
C18_3 H8_3 1_555 1_555
C19_3 C18_3 1_555 1_555
C20_3 C19_3 1_555 1_555
H9_3 C20_3 1_555 1_555
C21_3 C20_3 1_555 1_555
C22_3 C17_3 1_555 1_555
H10_3 C22_3 1_555 1_555
C23_3 C21_3 1_555 1_555
C24_3 C19_3 1_555 1_555
N1_3 C8_3 1_555 1_555
H44_3 N1_3 1_555 1_555
O5_3 C23_3 1_555 1_555
O6_3 C23_3 1_555 1_555
O7_2 C24_3 1_555 1_555
O43 C24_3 1_555 1_555
O9_3 C8_3 1_555 1_555
C63_3 C62_3 1_555 1_555
H54_3 C63_3 1_555 1_555
C64_3 C63_3 1_555 1_555
C65_3 C64_3 1_555 1_555
H55_3 C65_3 1_555 1_555
C67_3 C64_3 1_555 1_555
C69_3 C70_3 1_555 1_555
C70_3 H57_3 1_555 1_555
C71_3 C70_3 1_555 1_555
C72_3 C71_3 1_555 1_555
H58_3 C72_3 1_555 1_555
C73_3 C72_3 1_555 1_555
C74_3 C69_3 1_555 1_555
C91_3 H77_3 1_555 1_555
H78_3 C91_3 1_555 1_555
N10_3 C67_3 1_555 1_555
H92_3 N10_3 1_555 1_555
O34_3 C67_3 1_555 1_555
Tb14_2 O5_3 1_555 1_555
Tb10 O7_2 1_555 1_555
C17_3 N1_3 1_555 1_555
C21_3 C22_3 1_555 1_555
O6_3 Tb14_2 1_555 1_555
C69_3 N10_3 1_555 1_555
C73_3 C74_3 1_555 1_555
C25_3 C26_3 1_555 1_555
C26_3 H11_3 1_555 1_555
C27_3 C25_3 1_555 1_555
H12_3 C27_3 1_555 1_555
C28_3 C25_3 1_555 1_555
C29_3 C30_3 1_555 1_555
C30_3 H13_3 1_555 1_555
C31_3 C30_3 1_555 1_555
C32_3 C31_3 1_555 1_555
H14_3 C32_3 1_555 1_555
C33_3 C32_3 1_555 1_555
C34_3 C29_3 1_555 1_555
C35_3 C31_3 1_555 1_555
C44_3 H33_3 1_555 1_555
H34_3 C44_3 1_555 1_555
H35_3 C44_3 1_555 1_555
C45_3 H36_3 1_555 1_555
C46_3 H37_3 1_555 1_555
H38_3 C46_3 1_555 1_555
H39_3 C46_3 1_555 1_555
C47_3 H40_3 1_555 1_555
H41_3 C47_3 1_555 1_555
H42_3 C47_3 1_555 1_555
C48_3 H43_3 1_555 1_555
N3_3 C28_3 1_555 1_555
H46_3 N3_3 1_555 1_555
N6_3 C46_3 1_555 1_555
O3_3 C16_3 1_555 1_555
O4_3 C16_3 1_555 1_555
O13_3 C35_3 1_555 1_555
O50_2 C35_3 1_555 1_555
O15_3 C28_3 1_555 1_555
O18_3 C45_3 1_555 1_555
O19_3 C48_3 1_555 1_555
Tb8 O3_3 1_555 1_555
C49_3 C50_3 1_555 1_555
C50_3 C26_3 1_555 1_555
H47_3 C50_3 1_555 1_555
C51_3 C27_3 1_555 1_555
H48_3 C51_3 1_555 1_555
C52_3 C49_3 1_555 1_555
C53_3 C54_3 1_555 1_555
C54_3 H49_3 1_555 1_555
C55_3 C54_3 1_555 1_555
C56_3 C55_3 1_555 1_555
H50_3 C56_3 1_555 1_555
C57_3 C56_3 1_555 1_555
C58_3 C53_3 1_555 1_555
C59_3 C55_3 1_555 1_555
N8_3 C52_3 1_555 1_555
H52_3 N8_3 1_555 1_555
O49 C59_3 1_555 1_555
O51_2 C59_3 1_555 1_555
O24_3 C52_3 1_555 1_555
O41_2 Tb8 1_555 1_555
C29_3 N3_3 1_555 1_555
C33_3 C34_3 1_555 1_555
C44_3 N5_3 1_555 1_555
C45_3 N5_3 1_555 1_555
C47_3 N6_3 1_555 1_555
C48_3 N6_3 1_555 1_555
O4_3 Tb8 1_555 1_555
O13_3 Tb8 1_555 1_555
O18_3 Tb8 1_555 1_555
O19_3 Tb8 1_555 1_555
C49_3 C51_3 1_555 1_555
C53_3 N8_3 1_555 1_555
C57_3 C58_3 1_555 1_555
C3_3 C2_3 1_555 1_555
H2_3 C3_3 1_555 1_555
C4_3 C3_3 1_555 1_555
C5_3 C4_3 1_555 1_555
H3_3 C5_3 1_555 1_555
C7_3 C4_3 1_555 1_555
C9_3 C10_3 1_555 1_555
C10_3 H5_3 1_555 1_555
C11_3 C10_3 1_555 1_555
C12_3 C11_3 1_555 1_555
H6_3 C12_3 1_555 1_555
C13_3 C12_3 1_555 1_555
C14_3 C9_3 1_555 1_555
C15_3 C11_3 1_555 1_555
C37_3 H16_3 1_555 1_555
H17_3 C37_3 1_555 1_555
H18_3 C37_3 1_555 1_555
C38_3 H19_3 1_555 1_555
H20_3 C38_3 1_555 1_555
H21_3 C38_3 1_555 1_555
C39_3 H22_3 1_555 1_555
C40_3 H23_3 1_555 1_555
H24_3 C40_3 1_555 1_555
H25_3 C40_3 1_555 1_555
C41_3 H26_3 1_555 1_555
H27_3 C41_3 1_555 1_555
H28_3 C41_3 1_555 1_555
C42_3 H29_3 1_555 1_555
C43_3 H30_3 1_555 1_555
H31_3 C43_3 1_555 1_555
N2_3 C7_3 1_555 1_555
H45_3 N2_3 1_555 1_555
N4_3 C40_3 1_555 1_555
N7_3 C37_3 1_555 1_555
O1_3 C15_3 1_555 1_555
O39_2 C15_3 1_555 1_555
O10_3 C7_3 1_555 1_555
O45_2 C36_3 1_555 1_555
O47_2 C36_3 1_555 1_555
O16_3 C39_3 1_555 1_555
O17_3 C42_3 1_555 1_555
Tb12_2 O1_3 1_555 1_555
O46_2 C60_3 1_555 1_555
O48_2 C60_3 1_555 1_555
C66_3 C61_3 1_555 1_555
H56_3 C66_3 1_555 1_555
C68_3 C61_3 1_555 1_555
C77_3 C78_3 1_555 1_555
C78_3 H60_3 1_555 1_555
C79_3 C78_3 1_555 1_555
C80_3 C79_3 1_555 1_555
H61_3 C80_3 1_555 1_555
C81_3 C80_3 1_555 1_555
C82_3 C77_3 1_555 1_555
H62_3 C82_3 1_555 1_555
C83_3 C81_3 1_555 1_555
C84_3 C79_3 1_555 1_555
N9_3 C68_3 1_555 1_555
H91_3 N9_3 1_555 1_555
O29_3 Tb12_2 1_555 1_555
O30_3 Tb12_2 1_555 1_555
O31_2 C84_3 1_555 1_555
O44 C84_3 1_555 1_555
O33_3 C68_3 1_555 1_555
Tb11 O31_2 1_555 1_555
C9_3 N2_3 1_555 1_555
C13_3 C14_3 1_555 1_555
C38_3 N7_3 1_555 1_555
C39_3 N7_3 1_555 1_555
C41_3 N4_3 1_555 1_555
C42_3 N4_3 1_555 1_555
O16_3 Tb12_2 1_555 1_555
O17_3 Tb12_2 1_555 1_555
C77_3 N9_3 1_555 1_555
C81_3 C82_3 1_555 1_555
C83_3 O29_3 1_555 1_555
C83_3 O30_3 1_555 1_555
H64_4 C85_4 1_555 1_555
H65_4 C85_4 1_555 1_555
C86_4 H66_4 1_555 1_555
H67_4 C86_4 1_555 1_555
H68_4 C86_4 1_555 1_555
C88_4 H70_4 1_555 1_555
H71_4 C88_4 1_555 1_555
H72_4 C88_4 1_555 1_555
C89_4 H73_4 1_555 1_555
H74_4 C89_4 1_555 1_555
H75_4 C89_4 1_555 1_555
C90_4 H76_4 1_555 1_555
N11_4 C88_4 1_555 1_555
N14_4 C85_4 1_555 1_555
O25_4 C75_4 1_555 1_555
O40 C75_4 1_555 1_555
O35_4 C87_4 1_555 1_555
O36_4 C90_4 1_555 1_555
C86_4 N14_4 1_555 1_555
C87_4 N14_4 1_555 1_555
C89_4 N11_4 1_555 1_555
C90_4 N11_4 1_555 1_555
C1_4 C2_4 1_555 1_555
C2_4 H1_4 1_555 1_555
C3_4 C2_4 1_555 1_555
H2_4 C3_4 1_555 1_555
C4_4 C3_4 1_555 1_555
C5_4 C4_4 1_555 1_555
H3_4 C5_4 1_555 1_555
C6_4 C1_4 1_555 1_555
H4_4 C6_4 1_555 1_555
C7_4 C4_4 1_555 1_555
C8_4 C1_4 1_555 1_555
C9_4 C10_4 1_555 1_555
C10_4 H5_4 1_555 1_555
C11_4 C10_4 1_555 1_555
C12_4 C11_4 1_555 1_555
H6_4 C12_4 1_555 1_555
C13_4 C12_4 1_555 1_555
C14_4 C9_4 1_555 1_555
H7_4 C14_4 1_555 1_555
C15_4 C11_4 1_555 1_555
C16_4 C13_4 1_555 1_555
C17_4 C18_4 1_555 1_555
C18_4 H8_4 1_555 1_555
C19_4 C18_4 1_555 1_555
C20_4 C19_4 1_555 1_555
H9_4 C20_4 1_555 1_555
C21_4 C20_4 1_555 1_555
C22_4 C17_4 1_555 1_555
H10_4 C22_4 1_555 1_555
C23_4 C21_4 1_555 1_555
C24_4 C19_4 1_555 1_555
C25_4 C26_4 1_555 1_555
C26_4 H11_4 1_555 1_555
C27_4 C25_4 1_555 1_555
H12_4 C27_4 1_555 1_555
C28_4 C25_4 1_555 1_555
C29_4 C30_4 1_555 1_555
C30_4 H13_4 1_555 1_555
C31_4 C30_4 1_555 1_555
C32_4 C31_4 1_555 1_555
H14_4 C32_4 1_555 1_555
C33_4 C32_4 1_555 1_555
C34_4 C29_4 1_555 1_555
H15_4 C34_4 1_555 1_555
C35_4 C31_4 1_555 1_555
C36_4 C33_4 1_555 1_555
C37_4 H16_4 1_555 1_555
H17_4 C37_4 1_555 1_555
H18_4 C37_4 1_555 1_555
C38_4 H19_4 1_555 1_555
H20_4 C38_4 1_555 1_555
H21_4 C38_4 1_555 1_555
C39_4 H22_4 1_555 1_555
C40_4 H23_4 1_555 1_555
H24_4 C40_4 1_555 1_555
H25_4 C40_4 1_555 1_555
C41_4 H26_4 1_555 1_555
H27_4 C41_4 1_555 1_555
H28_4 C41_4 1_555 1_555
C42_4 H29_4 1_555 1_555
C43_4 H30_4 1_555 1_555
H31_4 C43_4 1_555 1_555
H32_4 C43_4 1_555 1_555
C44_4 H33_4 1_555 1_555
H34_4 C44_4 1_555 1_555
H35_4 C44_4 1_555 1_555
C45_4 H36_4 1_555 1_555
C46_4 H37_4 1_555 1_555
H38_4 C46_4 1_555 1_555
H39_4 C46_4 1_555 1_555
C47_4 H40_4 1_555 1_555
H41_4 C47_4 1_555 1_555
H42_4 C47_4 1_555 1_555
C48_4 H43_4 1_555 1_555
N1_4 C8_4 1_555 1_555
H44_4 N1_4 1_555 1_555
N2_4 C7_4 1_555 1_555
H45_4 N2_4 1_555 1_555
N3_4 C28_4 1_555 1_555
H46_4 N3_4 1_555 1_555
N4_4 C40_4 1_555 1_555
N5_4 C43_4 1_555 1_555
N6_4 C46_4 1_555 1_555
N7_4 C37_4 1_555 1_555
O1_4 C15_4 1_555 1_555
O39 C15_4 1_555 1_555
O3_4 C16_4 1_555 1_555
O4_4 C16_4 1_555 1_555
O5_4 C23_4 1_555 1_555
O6_4 C23_4 1_555 1_555
O41_2 C24_4 1_555 1_555
O43_2 C24_4 1_555 1_555
O9_4 C8_4 1_555 1_555
O10_4 C7_4 1_555 1_555
O45 C36_4 1_555 1_555
O47 C36_4 1_555 1_555
O13_4 C35_4 1_555 1_555
O50 C35_4 1_555 1_555
O15_4 C28_4 1_555 1_555
O16_4 C39_4 1_555 1_555
O17_4 C42_4 1_555 1_555
O18_4 C45_4 1_555 1_555
O19_4 C48_4 1_555 1_555
Tb10 O3_4 1_555 1_555
Tb12 O1_4 1_555 1_555
C61_4 C62_4 1_555 1_555
C62_4 H53_4 1_555 1_555
C63_4 C62_4 1_555 1_555
H54_4 C63_4 1_555 1_555
C64_4 C63_4 1_555 1_555
C65_4 C64_4 1_555 1_555
H55_4 C65_4 1_555 1_555
C66_4 C61_4 1_555 1_555
H56_4 C66_4 1_555 1_555
C67_4 C64_4 1_555 1_555
C68_4 C61_4 1_555 1_555
C69_4 C70_4 1_555 1_555
C70_4 H57_4 1_555 1_555
C71_4 C70_4 1_555 1_555
C72_4 C71_4 1_555 1_555
H58_4 C72_4 1_555 1_555
C73_4 C72_4 1_555 1_555
C74_4 C69_4 1_555 1_555
H59_4 C74_4 1_555 1_555
C76_4 C73_4 1_555 1_555
C77_4 C78_4 1_555 1_555
C78_4 H60_4 1_555 1_555
C79_4 C78_4 1_555 1_555
C80_4 C79_4 1_555 1_555
H61_4 C80_4 1_555 1_555
C81_4 C80_4 1_555 1_555
C82_4 C77_4 1_555 1_555
H62_4 C82_4 1_555 1_555
C83_4 C81_4 1_555 1_555
C84_4 C79_4 1_555 1_555
C91_4 H77_4 1_555 1_555
H78_4 C91_4 1_555 1_555
H79_4 C91_4 1_555 1_555
C92_4 H80_4 1_555 1_555
H81_4 C92_4 1_555 1_555
H82_4 C92_4 1_555 1_555
C93_4 H83_4 1_555 1_555
C94_4 H84_4 1_555 1_555
H85_4 C94_4 1_555 1_555
H86_4 C94_4 1_555 1_555
C95_4 H87_4 1_555 1_555
H88_4 C95_4 1_555 1_555
H89_4 C95_4 1_555 1_555
C96_4 H90_4 1_555 1_555
N9_4 C68_4 1_555 1_555
H91_4 N9_4 1_555 1_555
N10_4 C67_4 1_555 1_555
H92_4 N10_4 1_555 1_555
N12_4 C91_4 1_555 1_555
N13_4 C94_4 1_555 1_555
O27_4 C76_4 1_555 1_555
O28_4 C76_4 1_555 1_555
O29_4 Tb12 1_555 1_555
O30_4 Tb12 1_555 1_555
O42_2 C84_4 1_555 1_555
O44_2 C84_4 1_555 1_555
O33_4 C68_4 1_555 1_555
O34_4 C67_4 1_555 1_555
O37_4 C93_4 1_555 1_555
O38_4 C96_4 1_555 1_555
Tb11 O27_4 1_555 1_555
Tb14 O5_4 1_555 1_555
C5_4 C6_4 1_555 1_555
C9_4 N2_4 1_555 1_555
C13_4 C14_4 1_555 1_555
C17_4 N1_4 1_555 1_555
C21_4 C22_4 1_555 1_555
C29_4 N3_4 1_555 1_555
C33_4 C34_4 1_555 1_555
C38_4 N7_4 1_555 1_555
C39_4 N7_4 1_555 1_555
C41_4 N4_4 1_555 1_555
C42_4 N4_4 1_555 1_555
C44_4 N5_4 1_555 1_555
C45_4 N5_4 1_555 1_555
C47_4 N6_4 1_555 1_555
C48_4 N6_4 1_555 1_555
O4_4 Tb10 1_555 1_555
O6_4 Tb14 1_555 1_555
O13_4 Tb10 1_555 1_555
O16_4 Tb12 1_555 1_555
O17_4 Tb12 1_555 1_555
O18_4 Tb10 1_555 1_555
O19_4 Tb10 1_555 1_555
C65_4 C66_4 1_555 1_555
C69_4 N10_4 1_555 1_555
C73_4 C74_4 1_555 1_555
C77_4 N9_4 1_555 1_555
C81_4 C82_4 1_555 1_555
C83_4 O29_4 1_555 1_555
C83_4 O30_4 1_555 1_555
C92_4 N12_4 1_555 1_555
C93_4 N12_4 1_555 1_555
C95_4 N13_4 1_555 1_555
C96_4 N13_4 1_555 1_555
O28_4 Tb11 1_555 1_555
O37_4 Tb11 1_555 1_555
O38_4 Tb11 1_555 1_555
C49_4 C50_4 1_555 1_555
H47_4 C50_4 1_555 1_555
H48_4 C51_4 1_555 1_555
C52_4 C49_4 1_555 1_555
C53_4 C54_4 1_555 1_555
C54_4 H49_4 1_555 1_555
C55_4 C54_4 1_555 1_555
C56_4 C55_4 1_555 1_555
H50_4 C56_4 1_555 1_555
C57_4 C56_4 1_555 1_555
C58_4 C53_4 1_555 1_555
H51_4 C58_4 1_555 1_555
C59_4 C55_4 1_555 1_555
C60_4 C57_4 1_555 1_555
N8_4 C52_4 1_555 1_555
H52_4 N8_4 1_555 1_555
O46 C60_4 1_555 1_555
O48 C60_4 1_555 1_555
O49_2 C59_4 1_555 1_555
O51 C59_4 1_555 1_555
O24_4 C52_4 1_555 1_555
C49_4 C51_4 1_555 1_555
C53_4 N8_4 1_555 1_555
C57_4 C58_4 1_555 1_555

#END
