
###############################################################################
#
# This file contains modified crystal structure data generated from the
# MOF subset of the Cambridge Structural Database (CSD) v543 
# hosted by the Cambridge Crystallographic Data Centre (CCDC).
#
# This work is licensed under the Creative Commons
# Attribution-NonCommercial-ShareAlike 4.0 International License.
# To view a copy of this license, visit
# http://creativecommons.org/licenses/by-nc-sa/4.0/
# or send a letter to
# Creative Commons, PO Box 1866, Mountain View, CA 94042, USA.
#
# CIF created using the CSD Python API on 29 September 2022
# The structure has been converted into the P1 space group
# The structure has a 3D framework
# The original CSD entry CUGDIT is in the orthorhombic crystal system
# The original CSD entry CUGDIT is in a Sohncke space group
# The framework has been calculated to contain at least 10.0% void space
# The void calculation uses a probe of radius 1.32A, grid spacing 0.4
#
###############################################################################

data_CUGDIT
_chemical_formula_moiety         '(C248 H376 N56 Ni8 O42)n'
_symmetry_cell_setting           triclinic
_symmetry_space_group_name_H-M   'P 1'
_symmetry_Int_Tables_number      1
_space_group_name_Hall           'P 1'
loop_
_symmetry_equiv_pos_site_id
_symmetry_equiv_pos_as_xyz
1 x,y,z
_cell_length_a                   29.042(3)
_cell_length_b                   30.750(5)
_cell_length_c                   9.4483(17)
_cell_angle_alpha                90
_cell_angle_beta                 90
_cell_angle_gamma                90
_cell_volume                     8437.72
loop_
_atom_site_label
_atom_site_type_symbol
_atom_site_fract_x
_atom_site_fract_y
_atom_site_fract_z
C21 C 0.0160(7) 0.3669(5) 0.1844(18)
H32 H 0.0401 0.3854 0.1413
C22 C 0.0377(6) 0.3335(5) 0.282(2)
H33 H 0.0650 0.3207 0.2355
H34 H 0.0483 0.3482 0.3698
C23 C 0.0328(5) 0.2632(5) 0.386(2)
H35 H 0.0561 0.2528 0.3176
H36 H 0.0493 0.2749 0.4696
H38 H 0.0029 0.1998 0.2369
H83 H 0.0128 0.3341 0.0076
N8 N 0.0052(5) 0.2983(4) 0.3204(19)
N14 N 0.0042(5) 0.2270(5) 0.4299(15)
O13 O 0.0174(5) 0.2483(5) 0.0669(15)
H41 H 0.3737 0.2734 0.0271
C27 C 0.4000(5) 0.1907(5) 0.062(2)
H43 H 0.3820 0.2008 0.1452
C28 C 0.4594(5) 0.1377(7) 0.370(2)
H45 H 0.4375 0.1486 0.4423
H46 H 0.4519 0.1071 0.3478
N10 N 0.4254(5) 0.2280(5) 0.001(2)
H86 H 0.4428 0.2414 0.0713
O4 O 0.5072(5) 0.1420(5) 0.4194(16)
H89 H 0.5328 0.1433 0.3831
N13 N 0.4309(5) 0.1561(5) 0.1063(15)
C61 C 0.4572(6) 0.1304(5) 0.006(2)
H92 H 0.4738 0.1072 0.0579
C62 C 0.4585(7) 0.1658(7) 0.2380(17)
H93 H 0.4488 0.1951 0.2695
H94 H 0.4909 0.1686 0.2069
O4_2 O 0.0072(5) 0.3580(5) 0.5806(16)
H89_2 H 0.0328 0.3567 0.6169
C9 C 0.7159(3) 0.1803(3) 0.0778(14)
H7 H 0.7267 0.1954 0.1640
H8 H 0.7113 0.2025 0.0035
H9 H 0.8141 0.1805 0.0698
H22 H 0.6145 0.1329 0.0282
C17 C 0.6710(5) 0.1399(4) 0.2539(11)
H23 H 0.7028 0.1371 0.2910
H24 H 0.6571 0.1105 0.2494
C18 C 0.6427(3) 0.1692(4) 0.3496(15)
H25 H 0.6453 0.1585 0.4481
H26 H 0.6560 0.1988 0.3468
N1 N 0.6718(4) 0.1602(4) 0.1084(11)
N2 N 0.7526(4) 0.1502(4) 0.0304(16)
H79 H 0.7592 0.1317 0.1056
O2 O 0.5936(3) 0.1719(5) 0.3124(15)
H87 H 0.5908 0.1731 0.2240
O8 O 0.7413(4) 0.5562(4) 0.0146(13)
Ni3 Ni 0.76870(14) 0.61138(8) 0.1396(4)
O1 O 0.4826(5) 0.7483(5) 0.9331(15)
H41_2 H 0.1263 0.7734 0.9729
C27_2 C 0.1000(5) 0.6907(5) 0.938(2)
H43_2 H 0.1180 0.7008 0.8548
C28_2 C 0.0406(5) 0.6377(7) 0.630(2)
H45_2 H 0.0625 0.6486 0.5577
H46_2 H 0.0481 0.6071 0.6522
N10_2 N 0.0746(5) 0.7280(5) 0.999(2)
H86_2 H 0.0572 0.7414 0.9287
N13_2 N 0.0691(5) 0.6561(5) 0.8937(15)
C61_2 C 0.0428(6) 0.6304(5) 0.994(2)
H92_2 H 0.0262 0.6072 0.9421
C62_2 C 0.0415(7) 0.6658(7) 0.7620(17)
H93_2 H 0.0512 0.6951 0.7305
H94_2 H 0.0091 0.6686 0.7931
Ni4 Ni 0.53366(12) 0.78698(11) 0.8355(4)
C1 C 0.9486(7) 0.7455(6) 0.989(2)
C2 C 0.8733(5) 0.7721(3) 0.9067(16)
H1 H 0.8630 0.7431 0.8932
C3 C 0.9183(4) 0.7800(4) 0.9499(16)
C4 C 0.9334(3) 0.8225(4) 0.9698(15)
H2 H 0.9641 0.8279 0.9993
C5 C 0.9034(5) 0.8570(3) 0.9465(16)
H3 H 0.9138 0.8861 0.9601
C6 C 0.8585(4) 0.8491(4) 0.9033(16)
C7 C 0.8434(3) 0.8067(4) 0.8835(15)
H4 H 0.8126 0.8013 0.8540
C8 C 0.8249(6) 0.8851(6) 0.8695(19)
H5 H 0.7935 0.8747 0.8919
H6 H 0.8315 0.9100 0.9326
C10 C 0.7037(5) 0.6707(4) 0.014(2)
H10 H 0.7097 0.6961 0.0755
C11 C 0.6774(4) 0.6358(4) 0.0942(12)
H11 H 0.6487 0.6484 0.1334
H12 H 0.6688 0.6121 0.0284
C12 C 0.6852(5) 0.5790(4) 0.2786(14)
H13 H 0.6539 0.5867 0.3118
H14 H 0.6819 0.5561 0.2057
C13 C 0.7553(3) 0.5415(4) 0.3708(19)
H15 H 0.7517 0.5161 0.3074
H16 H 0.7686 0.5312 0.4613
C14 C 0.8302(4) 0.5508(5) 0.2734(19)
H17 H 0.8247 0.5240 0.2174
H18 H 0.8469 0.5432 0.3613
C15 C 0.8562(6) 0.5846(6) 0.1878(18)
H19 H 0.8670 0.6076 0.2532
H20 H 0.8839 0.5706 0.1469
C16 C 0.8552(5) 0.6427(5) 0.0073(15)
H21 H 0.8604 0.6655 0.0795
C19 C 0.7164(5) 0.5895(5) 0.5258(14)
H27 H 0.7286 0.6184 0.4984
H28 H 0.7380 0.5759 0.5938
C20 C 0.6688(5) 0.5940(8) 0.5911(17)
H29 H 0.6491 0.6135 0.5339
H30 H 0.6536 0.5654 0.6001
C21_2 C 0.4840(7) 0.8669(5) 0.8156(18)
H31 H 0.5054 0.8858 0.7620
H32_2 H 0.4599 0.8854 0.8587
C22_2 C 0.4623(6) 0.8335(5) 0.718(2)
H33_2 H 0.4350 0.8207 0.7645
H34_2 H 0.4517 0.8482 0.6302
C23_2 C 0.4672(5) 0.7632(5) 0.614(2)
H35_2 H 0.4439 0.7528 0.6824
H36_2 H 0.4507 0.7749 0.5304
C24 C 0.5192(6) 0.7049(5) 0.685(2)
H37 H 0.5301 0.6762 0.6514
H38_2 H 0.4971 0.6998 0.7631
C25 C 0.5798(6) 0.7097(5) 0.8661(15)
H39 H 0.5987 0.6845 0.8362
H40 H 0.5551 0.6988 0.9288
C26 C 0.6099(5) 0.7413(5) 0.948(2)
H42 H 0.6326 0.7559 0.8863
H44 H 0.6219 0.8208 0.9914
C29 C 0.5286(7) 0.7416(6) 0.456(2)
H47 H 0.5555 0.7563 0.4989
H48 H 0.5131 0.7625 0.3922
C30 C 0.5447(7) 0.7023(6) 0.3712(17)
H49 H 0.5658 0.6850 0.4312
H50 H 0.5175 0.6839 0.3503
C31 C 0.8720(5) 0.9269(5) 0.5188(14)
H51 H 0.8494 0.9502 0.4933
C32 C 0.8687(5) 0.9220(5) 0.6785(15)
H52 H 0.8942 0.9020 0.7072
C33 C 0.8774(5) 0.9656(5) 0.7565(19)
H53 H 0.8545 0.9875 0.7265
H54 H 0.8746 0.9614 0.8600
C34 C 0.9263(5) 0.9810(7) 0.7188(14)
H56 H 0.9490 0.9592 0.7516
C35 C 0.9317(7) 0.9877(5) 0.5581(15)
H57 H 0.9638 0.9964 0.5364
C36 C 0.9200(5) 0.9453(6) 0.4788(19)
H59 H 0.9438 0.9232 0.5004
H60 H 0.9208 0.9510 0.3757
C37 C 0.7712(5) 0.6988(4) 0.339(2)
C38 C 0.8006(4) 0.7345(3) 0.3703(12)
C39 C 0.8346(4) 0.7493(3) 0.2788(10)
H61 H 0.8406 0.7341 0.1932
C40 C 0.8599(3) 0.7862(4) 0.3125(11)
H62 H 0.8831 0.7963 0.2500
C41 C 0.8511(4) 0.8084(3) 0.4378(12)
C42 C 0.8170(4) 0.7936(3) 0.5294(10)
H63 H 0.8110 0.8088 0.6150
C43 C 0.7918(3) 0.7566(4) 0.4956(11)
H64 H 0.7685 0.7465 0.5582
C44 C 0.8824(5) 0.8463(4) 0.468(2)
H65 H 0.8923 0.8455 0.5682
H66 H 0.9102 0.8443 0.4076
C47 C 0.7525(3) 0.9672(4) 0.2166(13)
H67 H 0.7204 0.9667 0.2367
C48 C 0.7809(4) 0.9347(3) 0.2689(12)
H68 H 0.7684 0.9119 0.3247
C49 C 0.8278(4) 0.9354(3) 0.2395(13)
C50 C 0.8462(3) 0.9687(4) 0.1578(14)
H69 H 0.8783 0.9693 0.1378
C52 C 0.8572(6) 0.8989(5) 0.2883(17)
H71 H 0.8477 0.8725 0.2355
H72 H 0.8893 0.9054 0.2601
C53 C 0.6250(5) 0.8164(6) 0.675(2)
C54 C 0.6637(3) 0.8449(3) 0.6672(13)
C55 C 0.6650(3) 0.8771(4) 0.7702(12)
H73 H 0.6400 0.8803 0.8344
C56 C 0.7028(4) 0.9047(3) 0.7793(11)
H74 H 0.7037 0.9267 0.8497
C57 C 0.7393(3) 0.8999(3) 0.6855(13)
C58 C 0.7380(3) 0.8677(4) 0.5825(12)
H75 H 0.7630 0.8645 0.5183
C59 C 0.7002(4) 0.8401(3) 0.5734(12)
H76 H 0.6993 0.8181 0.5030
C60 C 0.7827(4) 0.9253(5) 0.700(2)
H77 H 0.7865 0.9431 0.6137
H78 H 0.7789 0.9456 0.7806
N3 N 0.7057(5) 0.6179(4) 0.2107(14)
H80 H 0.7068 0.6393 0.2801
N4 N 0.7106(3) 0.5610(3) 0.3968(10)
N5 N 0.7865(4) 0.5736(4) 0.3048(13)
H81 H 0.7938 0.5930 0.3770
N6 N 0.8303(5) 0.6056(5) 0.0715(16)
H82 H 0.8287 0.5847 0.0004
N7 N 0.5092(5) 0.8428(5) 0.9269(17)
H83_2 H 0.4872 0.8341 0.9924
N8_2 N 0.4948(5) 0.7983(4) 0.6796(19)
H84 H 0.5135 0.8094 0.6084
N9 N 0.5589(5) 0.7300(5) 0.7395(14)
H85 H 0.5805 0.7359 0.6695
N11 N 0.8575(5) 0.8879(4) 0.4386(14)
N12 N 0.8253(4) 0.9007(4) 0.7222(14)
O3 O 0.6783(5) 0.6130(6) 0.7310(16)
H88 H 0.6533 0.6171 0.7740
O5 O 0.5682(5) 0.7120(5) 0.2372(15)
H90 H 0.5942 0.7214 0.2517
O6 O 0.7932(4) 0.6663(4) 0.2548(13)
O7 O 0.7319(4) 0.6918(4) 0.3852(13)
O10 O 0.9421(5) 0.7078(5) 0.9093(15)
O11 O 0.6288(4) 0.7802(5) 0.6028(15)
O12 O 0.5881(5) 0.8229(4) 0.7382(15)
N14_2 N 0.4958(5) 0.7270(5) 0.5701(15)
H91 H 0.5641 0.8837 0.9387
C1_2 C 0.5514(7) 0.2455(6) 0.011(2)
C2_2 C 0.6267(5) 0.2721(3) 0.0933(16)
H1_2 H 0.6370 0.2431 0.1068
C3_2 C 0.5817(4) 0.2800(4) 0.0501(16)
C4_2 C 0.5666(3) 0.3225(4) 0.0302(15)
H2_2 H 0.5359 0.3279 0.0007
C5_2 C 0.5966(5) 0.3570(3) 0.0535(16)
H3_2 H 0.5862 0.3861 0.0399
C6_2 C 0.6415(4) 0.3491(4) 0.0967(16)
C7_2 C 0.6566(3) 0.3067(4) 0.1165(15)
H4_2 H 0.6874 0.3013 0.1460
C8_2 C 0.6751(6) 0.3851(6) 0.1305(19)
H5_2 H 0.7065 0.3747 0.1081
H6_2 H 0.6685 0.4100 0.0674
C10_2 C 0.7963(5) 0.1707(4) 0.986(2)
H10_2 H 0.7903 0.1961 0.9245
C11_2 C 0.8226(4) 0.1358(4) 0.9058(12)
H11_2 H 0.8513 0.1484 0.8666
H12_2 H 0.8312 0.1121 0.9716
C12_2 C 0.8148(5) 0.0790(4) 0.7214(14)
H13_2 H 0.8461 0.0867 0.6882
H14_2 H 0.8181 0.0561 0.7943
C13_2 C 0.7447(3) 0.0415(4) 0.6292(19)
H15_2 H 0.7483 0.0161 0.6926
H16_2 H 0.7314 0.0312 0.5387
C14_2 C 0.6698(4) 0.0508(5) 0.7266(19)
H17_2 H 0.6753 0.0240 0.7826
H18_2 H 0.6531 0.0432 0.6387
C15_2 C 0.6438(6) 0.0846(6) 0.8122(18)
H19_2 H 0.6330 0.1076 0.7468
H20_2 H 0.6161 0.0706 0.8531
C16_2 C 0.6448(5) 0.1427(5) 0.9927(15)
H21_2 H 0.6396 0.1655 0.9205
C19_2 C 0.7836(5) 0.0895(5) 0.4742(14)
H27_2 H 0.7714 0.1184 0.5016
H28_2 H 0.7620 0.0759 0.4062
C20_2 C 0.8312(5) 0.0940(8) 0.4089(17)
H29_2 H 0.8509 0.1135 0.4661
H30_2 H 0.8464 0.0654 0.3999
H31_2 H 0.9946 0.3858 0.2380
C24_2 C 0.9808(6) 0.2049(5) 0.315(2)
H37_2 H 0.9699 0.1762 0.3486
C25_2 C 0.9202(6) 0.2097(5) 0.1339(15)
H39_2 H 0.9013 0.1845 0.1638
H40_2 H 0.9449 0.1988 0.0712
C26_2 C 0.8901(5) 0.2413(5) 0.052(2)
H42_2 H 0.8674 0.2559 0.1137
H44_2 H 0.8781 0.3208 0.0086
C29_2 C 0.9714(7) 0.2416(6) 0.544(2)
H47_2 H 0.9445 0.2563 0.5011
H48_2 H 0.9869 0.2625 0.6078
C30_2 C 0.9553(7) 0.2023(6) 0.6288(17)
H49_2 H 0.9342 0.1850 0.5688
H50_2 H 0.9825 0.1839 0.6497
C31_2 C 0.6280(5) 0.4269(5) 0.4812(14)
H51_2 H 0.6506 0.4502 0.5067
C32_2 C 0.6313(5) 0.4220(5) 0.3215(15)
H52_2 H 0.6058 0.4020 0.2928
C33_2 C 0.6226(5) 0.4656(5) 0.2435(19)
H53_2 H 0.6455 0.4875 0.2735
H54_2 H 0.6254 0.4614 0.1400
C34_2 C 0.5737(5) 0.4810(7) 0.2812(14)
H55 H 0.5672 0.5087 0.2318
H56_2 H 0.5510 0.4592 0.2484
C35_2 C 0.5683(7) 0.4877(5) 0.4419(15)
H57_2 H 0.5362 0.4964 0.4636
H58 H 0.5891 0.5112 0.4738
C36_2 C 0.5800(5) 0.4453(6) 0.5212(19)
H59_2 H 0.5562 0.4232 0.4996
H60_2 H 0.5792 0.4510 0.6243
C37_2 C 0.7288(5) 0.1988(4) 0.661(2)
C38_2 C 0.6994(4) 0.2345(3) 0.6297(12)
C39_2 C 0.6654(4) 0.2493(3) 0.7212(10)
H61_2 H 0.6594 0.2341 0.8068
C40_2 C 0.6401(3) 0.2862(4) 0.6875(11)
H62_2 H 0.6169 0.2963 0.7500
C41_2 C 0.6489(4) 0.3084(3) 0.5622(12)
C42_2 C 0.6830(4) 0.2936(3) 0.4706(10)
H63_2 H 0.6890 0.3088 0.3850
C43_2 C 0.7082(3) 0.2566(4) 0.5044(11)
H64_2 H 0.7315 0.2465 0.4418
C44_2 C 0.6176(5) 0.3463(4) 0.532(2)
H65_2 H 0.6077 0.3455 0.4318
H66_2 H 0.5898 0.3443 0.5924
C45 C 0.7614(6) 0.5314(5) 0.917(2)
C46 C 0.7291(4) 0.5006(3) 0.8650(13)
C47_2 C 0.7475(3) 0.4672(4) 0.7834(13)
H67_2 H 0.7796 0.4667 0.7633
C48_2 C 0.7191(4) 0.4347(3) 0.7311(12)
H68_2 H 0.7316 0.4119 0.6753
C49_2 C 0.6722(4) 0.4354(3) 0.7605(13)
C50_2 C 0.6538(3) 0.4687(4) 0.8422(14)
H69_2 H 0.6217 0.4693 0.8622
C51 C 0.6822(4) 0.5013(3) 0.8944(12)
H70 H 0.6697 0.5241 0.9502
C52_2 C 0.6428(6) 0.3989(5) 0.7117(17)
H71_2 H 0.6523 0.3725 0.7645
H72_2 H 0.6107 0.4054 0.7399
C53_2 C 0.8750(5) 0.3164(6) 0.325(2)
C54_2 C 0.8363(3) 0.3449(3) 0.3328(13)
C55_2 C 0.8350(3) 0.3771(4) 0.2298(12)
H73_2 H 0.8600 0.3803 0.1656
C56_2 C 0.7972(4) 0.4047(3) 0.2207(11)
H74_2 H 0.7963 0.4267 0.1503
C57_2 C 0.7607(3) 0.3999(3) 0.3145(13)
C58_2 C 0.7620(3) 0.3677(4) 0.4175(12)
H75_2 H 0.7370 0.3645 0.4817
C59_2 C 0.7998(4) 0.3401(3) 0.4266(12)
H76_2 H 0.8007 0.3181 0.4970
C60_2 C 0.7173(4) 0.4253(5) 0.300(2)
H77_2 H 0.7135 0.4431 0.3863
H78_2 H 0.7211 0.4456 0.2194
N3_2 N 0.7943(5) 0.1179(4) 0.7893(14)
H80_2 H 0.7932 0.1393 0.7199
N4_2 N 0.7894(3) 0.0610(3) 0.6032(10)
N5_2 N 0.7135(4) 0.0736(4) 0.6952(13)
H81_2 H 0.7062 0.0930 0.6230
N6_2 N 0.6697(5) 0.1056(5) 0.9285(16)
H82_2 H 0.6713 0.0847 0.9996
N7_2 N 0.9908(5) 0.3428(5) 0.0731(17)
H84_2 H 0.9865 0.3094 0.3916
N9_2 N 0.9411(5) 0.2300(5) 0.2605(14)
H85_2 H 0.9195 0.2359 0.3305
N11_2 N 0.6425(5) 0.3879(4) 0.5614(14)
N12_2 N 0.6747(4) 0.4007(4) 0.2778(14)
Ni1 Ni 0.73130(14) 0.11138(8) 0.8604(4)
Ni2 Ni 0.96634(12) 0.28698(11) 0.1645(4)
O3_2 O 0.8217(5) 0.1130(6) 0.2690(16)
H88_2 H 0.8467 0.1171 0.2260
O5_2 O 0.9318(5) 0.2120(5) 0.7628(15)
H90_2 H 0.9058 0.2214 0.7483
O6_2 O 0.7068(4) 0.1663(4) 0.7452(13)
O7_2 O 0.7681(4) 0.1918(4) 0.6148(13)
O9 O 0.7985(4) 0.5350(4) 0.8873(15)
O10_2 O 0.5579(5) 0.2078(5) 0.0907(15)
O11_2 O 0.8712(4) 0.2802(5) 0.3972(15)
O12_2 O 0.9119(5) 0.3229(4) 0.2618(15)
H91_2 H 0.9359 0.3837 0.0613
O14 O 0.7587(4) 0.0562(4) 0.9854(13)
O1_2 O 0.5174(5) 0.2517(5) 0.9331(15)
H41_3 H 0.8737 0.2266 0.9729
C27_3 C 0.9000(5) 0.3093(5) 0.938(2)
H43_3 H 0.8820 0.2992 0.8548
C28_3 C 0.9594(5) 0.3623(7) 0.630(2)
H45_3 H 0.9375 0.3514 0.5577
H46_3 H 0.9519 0.3929 0.6522
N10_3 N 0.9254(5) 0.2720(5) 0.999(2)
H86_3 H 0.9428 0.2586 0.9287
N13_3 N 0.9309(5) 0.3439(5) 0.8937(15)
C61_3 C 0.9572(6) 0.3696(5) 0.994(2)
H92_3 H 0.9738 0.3928 0.9421
C62_3 C 0.9585(7) 0.3342(7) 0.7620(17)
H93_3 H 0.9488 0.3049 0.7305
H94_3 H 0.9909 0.3314 0.7931
Ni4_2 Ni 0.46634(12) 0.21302(11) 0.8355(4)
C9_2 C 0.2841(3) 0.8197(3) 0.0778(14)
H7_2 H 0.2733 0.8046 0.1640
H8_2 H 0.2887 0.7975 0.0035
H9_2 H 0.1859 0.8195 0.0698
H22_2 H 0.3855 0.8671 0.0282
C17_2 C 0.3290(5) 0.8601(4) 0.2539(11)
H23_2 H 0.2972 0.8629 0.2910
H24_2 H 0.3429 0.8895 0.2494
C18_2 C 0.3573(3) 0.8308(4) 0.3496(15)
H25_2 H 0.3547 0.8415 0.4481
H26_2 H 0.3440 0.8012 0.3468
N1_2 N 0.3282(4) 0.8398(4) 0.1084(11)
N2_2 N 0.2474(4) 0.8498(4) 0.0304(16)
H79_2 H 0.2408 0.8683 0.1056
O2_2 O 0.4064(3) 0.8281(5) 0.3124(15)
H87_2 H 0.4092 0.8269 0.2240
O8_2 O 0.2587(4) 0.4438(4) 0.0146(13)
Ni3_2 Ni 0.23130(14) 0.38862(8) 0.1396(4)
C1_3 C 0.0514(7) 0.2545(6) 0.989(2)
C2_3 C 0.1267(5) 0.2279(3) 0.9067(16)
H1_3 H 0.1370 0.2569 0.8932
C3_3 C 0.0817(4) 0.2200(4) 0.9499(16)
C4_3 C 0.0666(3) 0.1775(4) 0.9698(15)
H2_3 H 0.0359 0.1721 0.9993
C5_3 C 0.0966(5) 0.1430(3) 0.9465(16)
H3_3 H 0.0862 0.1139 0.9601
C6_3 C 0.1415(4) 0.1509(4) 0.9033(16)
C7_3 C 0.1566(3) 0.1933(4) 0.8835(15)
H4_3 H 0.1874 0.1987 0.8540
C8_3 C 0.1751(6) 0.1149(6) 0.8695(19)
H5_3 H 0.2065 0.1253 0.8919
H6_3 H 0.1685 0.0900 0.9326
C10_3 C 0.2963(5) 0.3293(4) 0.014(2)
H10_3 H 0.2903 0.3039 0.0755
C11_3 C 0.3226(4) 0.3642(4) 0.0942(12)
H11_3 H 0.3513 0.3516 0.1334
H12_3 H 0.3312 0.3879 0.0284
C12_3 C 0.3148(5) 0.4210(4) 0.2786(14)
H13_3 H 0.3461 0.4133 0.3118
H14_3 H 0.3181 0.4439 0.2057
C13_3 C 0.2447(3) 0.4585(4) 0.3708(19)
H15_3 H 0.2483 0.4839 0.3074
H16_3 H 0.2314 0.4688 0.4613
C14_3 C 0.1698(4) 0.4492(5) 0.2734(19)
H17_3 H 0.1753 0.4760 0.2174
H18_3 H 0.1531 0.4568 0.3613
C15_3 C 0.1438(6) 0.4154(6) 0.1878(18)
H19_3 H 0.1330 0.3924 0.2532
H20_3 H 0.1161 0.4294 0.1469
C16_3 C 0.1448(5) 0.3573(5) 0.0073(15)
H21_3 H 0.1396 0.3345 0.0795
C19_3 C 0.2836(5) 0.4105(5) 0.5258(14)
H27_3 H 0.2714 0.3816 0.4984
H28_3 H 0.2620 0.4241 0.5938
C20_3 C 0.3312(5) 0.4060(8) 0.5911(17)
H29_3 H 0.3509 0.3865 0.5339
H30_3 H 0.3464 0.4346 0.6001
C21_3 C 0.5160(7) 0.1331(5) 0.8156(18)
H31_3 H 0.4946 0.1142 0.7620
H32_3 H 0.5401 0.1146 0.8587
C22_3 C 0.5377(6) 0.1665(5) 0.718(2)
H33_3 H 0.5650 0.1793 0.7645
H34_3 H 0.5483 0.1518 0.6302
C23_3 C 0.5328(5) 0.2368(5) 0.614(2)
H35_3 H 0.5561 0.2472 0.6824
H36_3 H 0.5493 0.2251 0.5304
C24_3 C 0.4808(6) 0.2951(5) 0.685(2)
H37_3 H 0.4699 0.3238 0.6514
H38_3 H 0.5029 0.3002 0.7631
C25_3 C 0.4202(6) 0.2903(5) 0.8661(15)
H39_3 H 0.4013 0.3155 0.8362
H40_3 H 0.4449 0.3012 0.9288
C26_3 C 0.3901(5) 0.2587(5) 0.948(2)
H42_3 H 0.3674 0.2441 0.8863
H44_3 H 0.3781 0.1792 0.9914
C29_3 C 0.4714(7) 0.2584(6) 0.456(2)
H47_3 H 0.4445 0.2437 0.4989
H48_3 H 0.4869 0.2375 0.3922
C30_3 C 0.4553(7) 0.2977(6) 0.3712(17)
H49_3 H 0.4342 0.3150 0.4312
H50_3 H 0.4825 0.3161 0.3503
C31_3 C 0.1280(5) 0.0731(5) 0.5188(14)
H51_3 H 0.1506 0.0498 0.4933
C32_3 C 0.1313(5) 0.0780(5) 0.6785(15)
H52_3 H 0.1058 0.0980 0.7072
C33_3 C 0.1226(5) 0.0344(5) 0.7565(19)
H53_3 H 0.1455 0.0125 0.7265
H54_3 H 0.1254 0.0386 0.8600
C34_3 C 0.0737(5) 0.0190(7) 0.7188(14)
H56_3 H 0.0510 0.0408 0.7516
C35_3 C 0.0683(7) 0.0123(5) 0.5581(15)
H57_3 H 0.0362 0.0036 0.5364
C36_3 C 0.0800(5) 0.0547(6) 0.4788(19)
H59_3 H 0.0562 0.0768 0.5004
H60_3 H 0.0792 0.0490 0.3757
C37_3 C 0.2288(5) 0.3012(4) 0.339(2)
C38_3 C 0.1994(4) 0.2655(3) 0.3703(12)
C39_3 C 0.1654(4) 0.2507(3) 0.2788(10)
H61_3 H 0.1594 0.2659 0.1932
C40_3 C 0.1401(3) 0.2138(4) 0.3125(11)
H62_3 H 0.1169 0.2037 0.2500
C41_3 C 0.1489(4) 0.1916(3) 0.4378(12)
C42_3 C 0.1830(4) 0.2064(3) 0.5294(10)
H63_3 H 0.1890 0.1912 0.6150
C43_3 C 0.2082(3) 0.2434(4) 0.4956(11)
H64_3 H 0.2315 0.2535 0.5582
C44_3 C 0.1176(5) 0.1537(4) 0.468(2)
H65_3 H 0.1077 0.1545 0.5682
H66_3 H 0.0898 0.1557 0.4076
C47_3 C 0.2475(3) 0.0328(4) 0.2166(13)
H67_3 H 0.2796 0.0333 0.2367
C48_3 C 0.2191(4) 0.0653(3) 0.2689(12)
H68_3 H 0.2316 0.0881 0.3247
C49_3 C 0.1722(4) 0.0646(3) 0.2395(13)
C50_3 C 0.1538(3) 0.0313(4) 0.1578(14)
H69_3 H 0.1217 0.0307 0.1378
C52_3 C 0.1428(6) 0.1011(5) 0.2883(17)
H71_3 H 0.1523 0.1275 0.2355
H72_3 H 0.1107 0.0946 0.2601
C53_3 C 0.3750(5) 0.1836(6) 0.675(2)
C54_3 C 0.3363(3) 0.1551(3) 0.6672(13)
C55_3 C 0.3350(3) 0.1229(4) 0.7702(12)
H73_3 H 0.3600 0.1197 0.8344
C56_3 C 0.2972(4) 0.0953(3) 0.7793(11)
H74_3 H 0.2963 0.0733 0.8497
C57_3 C 0.2607(3) 0.1001(3) 0.6855(13)
C58_3 C 0.2620(3) 0.1323(4) 0.5825(12)
H75_3 H 0.2370 0.1355 0.5183
C59_3 C 0.2998(4) 0.1599(3) 0.5734(12)
H76_3 H 0.3007 0.1819 0.5030
C60_3 C 0.2173(4) 0.0747(5) 0.700(2)
H77_3 H 0.2135 0.0569 0.6137
H78_3 H 0.2211 0.0544 0.7806
N3_3 N 0.2943(5) 0.3821(4) 0.2107(14)
H80_3 H 0.2932 0.3607 0.2801
N4_3 N 0.2894(3) 0.4390(3) 0.3968(10)
N5_3 N 0.2135(4) 0.4264(4) 0.3048(13)
H81_3 H 0.2062 0.4070 0.3770
N6_3 N 0.1697(5) 0.3944(5) 0.0715(16)
H82_3 H 0.1713 0.4153 0.0004
N7_3 N 0.4908(5) 0.1572(5) 0.9269(17)
H83_3 H 0.5128 0.1659 0.9924
N8_3 N 0.5052(5) 0.2017(4) 0.6796(19)
H84_3 H 0.4865 0.1906 0.6084
N9_3 N 0.4411(5) 0.2700(5) 0.7395(14)
H85_3 H 0.4195 0.2641 0.6695
N11_3 N 0.1425(5) 0.1121(4) 0.4386(14)
N12_3 N 0.1747(4) 0.0993(4) 0.7222(14)
O3_3 O 0.3217(5) 0.3870(6) 0.7310(16)
H88_3 H 0.3467 0.3829 0.7740
O5_3 O 0.4318(5) 0.2880(5) 0.2372(15)
H90_3 H 0.4058 0.2786 0.2517
O6_3 O 0.2068(4) 0.3337(4) 0.2548(13)
O7_3 O 0.2681(4) 0.3082(4) 0.3852(13)
O10_3 O 0.0579(5) 0.2922(5) 0.9093(15)
O11_3 O 0.3712(4) 0.2198(5) 0.6028(15)
O12_3 O 0.4119(5) 0.1771(4) 0.7382(15)
N14_3 N 0.5042(5) 0.2730(5) 0.5701(15)
H91_3 H 0.4359 0.1163 0.9387
C1_4 C 0.4486(7) 0.7545(6) 0.011(2)
C2_4 C 0.3733(5) 0.7279(3) 0.0933(16)
H1_4 H 0.3630 0.7569 0.1068
C3_4 C 0.4183(4) 0.7200(4) 0.0501(16)
C4_4 C 0.4334(3) 0.6775(4) 0.0302(15)
H2_4 H 0.4641 0.6721 0.0007
C5_4 C 0.4034(5) 0.6430(3) 0.0535(16)
H3_4 H 0.4138 0.6139 0.0399
C6_4 C 0.3585(4) 0.6509(4) 0.0967(16)
C7_4 C 0.3434(3) 0.6933(4) 0.1165(15)
H4_4 H 0.3126 0.6987 0.1460
C8_4 C 0.3249(6) 0.6149(6) 0.1305(19)
H5_4 H 0.2935 0.6253 0.1081
H6_4 H 0.3315 0.5900 0.0674
C10_4 C 0.2037(5) 0.8293(4) 0.986(2)
H10_4 H 0.2097 0.8039 0.9245
C11_4 C 0.1774(4) 0.8642(4) 0.9058(12)
H11_4 H 0.1487 0.8516 0.8666
H12_4 H 0.1688 0.8879 0.9716
C12_4 C 0.1852(5) 0.9210(4) 0.7214(14)
H13_4 H 0.1539 0.9133 0.6882
H14_4 H 0.1819 0.9439 0.7943
C13_4 C 0.2553(3) 0.9585(4) 0.6292(19)
H15_4 H 0.2517 0.9839 0.6926
H16_4 H 0.2686 0.9688 0.5387
C14_4 C 0.3302(4) 0.9492(5) 0.7266(19)
H17_4 H 0.3247 0.9760 0.7826
H18_4 H 0.3469 0.9568 0.6387
C15_4 C 0.3562(6) 0.9154(6) 0.8122(18)
H19_4 H 0.3670 0.8924 0.7468
H20_4 H 0.3839 0.9294 0.8531
C16_4 C 0.3552(5) 0.8573(5) 0.9927(15)
H21_4 H 0.3604 0.8345 0.9205
C19_4 C 0.2164(5) 0.9105(5) 0.4742(14)
H27_4 H 0.2286 0.8816 0.5016
H28_4 H 0.2380 0.9241 0.4062
C20_4 C 0.1688(5) 0.9060(8) 0.4089(17)
H29_4 H 0.1491 0.8865 0.4661
H30_4 H 0.1536 0.9346 0.3999
H31_4 H 0.0054 0.6142 0.2380
C24_4 C 0.0192(6) 0.7951(5) 0.315(2)
H37_4 H 0.0301 0.8238 0.3486
C25_4 C 0.0798(6) 0.7903(5) 0.1339(15)
H39_4 H 0.0987 0.8155 0.1638
H40_4 H 0.0551 0.8012 0.0712
C26_4 C 0.1099(5) 0.7587(5) 0.052(2)
H42_4 H 0.1326 0.7441 0.1137
H44_4 H 0.1219 0.6792 0.0086
C29_4 C 0.0286(7) 0.7584(6) 0.544(2)
H47_4 H 0.0555 0.7437 0.5011
H48_4 H 0.0131 0.7375 0.6078
C30_4 C 0.0447(7) 0.7977(6) 0.6288(17)
H49_4 H 0.0658 0.8150 0.5688
H50_4 H 0.0175 0.8161 0.6497
C31_4 C 0.3720(5) 0.5731(5) 0.4812(14)
H51_4 H 0.3494 0.5498 0.5067
C32_4 C 0.3687(5) 0.5780(5) 0.3215(15)
H52_4 H 0.3942 0.5980 0.2928
C33_4 C 0.3774(5) 0.5344(5) 0.2435(19)
H53_4 H 0.3545 0.5125 0.2735
H54_4 H 0.3746 0.5386 0.1400
C34_4 C 0.4263(5) 0.5190(7) 0.2812(14)
H55_2 H 0.4328 0.4913 0.2318
H56_4 H 0.4490 0.5408 0.2484
C35_4 C 0.4317(7) 0.5123(5) 0.4419(15)
H57_4 H 0.4638 0.5036 0.4636
H58_2 H 0.4109 0.4888 0.4738
C36_4 C 0.4200(5) 0.5547(6) 0.5212(19)
H59_4 H 0.4438 0.5768 0.4996
H60_4 H 0.4208 0.5490 0.6243
C37_4 C 0.2712(5) 0.8012(4) 0.661(2)
C38_4 C 0.3006(4) 0.7655(3) 0.6297(12)
C39_4 C 0.3346(4) 0.7507(3) 0.7212(10)
H61_4 H 0.3406 0.7659 0.8068
C40_4 C 0.3599(3) 0.7138(4) 0.6875(11)
H62_4 H 0.3831 0.7037 0.7500
C41_4 C 0.3511(4) 0.6916(3) 0.5622(12)
C42_4 C 0.3170(4) 0.7064(3) 0.4706(10)
H63_4 H 0.3110 0.6912 0.3850
C43_4 C 0.2918(3) 0.7434(4) 0.5044(11)
H64_4 H 0.2685 0.7535 0.4418
C44_4 C 0.3824(5) 0.6537(4) 0.532(2)
H65_4 H 0.3923 0.6545 0.4318
H66_4 H 0.4102 0.6557 0.5924
C45_2 C 0.2386(6) 0.4686(5) 0.917(2)
C46_2 C 0.2709(4) 0.4994(3) 0.8650(13)
C47_4 C 0.2525(3) 0.5328(4) 0.7834(13)
H67_4 H 0.2204 0.5333 0.7633
C48_4 C 0.2809(4) 0.5653(3) 0.7311(12)
H68_4 H 0.2684 0.5881 0.6753
C49_4 C 0.3278(4) 0.5646(3) 0.7605(13)
C50_4 C 0.3462(3) 0.5313(4) 0.8422(14)
H69_4 H 0.3783 0.5307 0.8622
C51_2 C 0.3178(4) 0.4987(3) 0.8944(12)
H70_2 H 0.3303 0.4759 0.9502
C52_4 C 0.3572(6) 0.6011(5) 0.7117(17)
H71_4 H 0.3477 0.6275 0.7645
H72_4 H 0.3893 0.5946 0.7399
C53_4 C 0.1250(5) 0.6836(6) 0.325(2)
C54_4 C 0.1637(3) 0.6551(3) 0.3328(13)
C55_4 C 0.1650(3) 0.6229(4) 0.2298(12)
H73_4 H 0.1400 0.6197 0.1656
C56_4 C 0.2028(4) 0.5953(3) 0.2207(11)
H74_4 H 0.2037 0.5733 0.1503
C57_4 C 0.2393(3) 0.6001(3) 0.3145(13)
C58_4 C 0.2380(3) 0.6323(4) 0.4175(12)
H75_4 H 0.2630 0.6355 0.4817
C59_4 C 0.2002(4) 0.6599(3) 0.4266(12)
H76_4 H 0.1993 0.6819 0.4970
C60_4 C 0.2827(4) 0.5747(5) 0.300(2)
H77_4 H 0.2865 0.5569 0.3863
H78_4 H 0.2789 0.5544 0.2194
N3_4 N 0.2057(5) 0.8821(4) 0.7893(14)
H80_4 H 0.2068 0.8607 0.7199
N4_4 N 0.2106(3) 0.9390(3) 0.6032(10)
N5_4 N 0.2865(4) 0.9264(4) 0.6952(13)
H81_4 H 0.2938 0.9070 0.6230
N6_4 N 0.3303(5) 0.8944(5) 0.9285(16)
H82_4 H 0.3287 0.9153 0.9996
N7_4 N 0.0092(5) 0.6572(5) 0.0731(17)
H84_4 H 0.0135 0.6906 0.3916
N9_4 N 0.0589(5) 0.7700(5) 0.2605(14)
H85_4 H 0.0805 0.7641 0.3305
N11_4 N 0.3575(5) 0.6121(4) 0.5614(14)
N12_4 N 0.3253(4) 0.5993(4) 0.2778(14)
Ni1_2 Ni 0.26870(14) 0.88862(8) 0.8604(4)
Ni2_2 Ni 0.03366(12) 0.71302(11) 0.1645(4)
O3_4 O 0.1783(5) 0.8870(6) 0.2690(16)
H88_4 H 0.1533 0.8829 0.2260
O5_4 O 0.0682(5) 0.7880(5) 0.7628(15)
H90_4 H 0.0942 0.7786 0.7483
O6_4 O 0.2932(4) 0.8337(4) 0.7452(13)
O7_4 O 0.2319(4) 0.8082(4) 0.6148(13)
O9_2 O 0.2015(4) 0.4650(4) 0.8873(15)
O10_4 O 0.4421(5) 0.7922(5) 0.0907(15)
O11_4 O 0.1288(4) 0.7198(5) 0.3972(15)
O12_4 O 0.0881(5) 0.6771(4) 0.2618(15)
H91_4 H 0.0641 0.6163 0.0613
O14_2 O 0.2413(4) 0.9438(4) 0.9854(13)
C21_4 C 0.9840(7) 0.6331(5) 0.1844(18)
H32_4 H 0.9599 0.6146 0.1413
C22_4 C 0.9623(6) 0.6665(5) 0.282(2)
H33_4 H 0.9350 0.6793 0.2355
H34_4 H 0.9517 0.6518 0.3698
C23_4 C 0.9672(5) 0.7368(5) 0.386(2)
H35_4 H 0.9439 0.7472 0.3176
H36_4 H 0.9507 0.7251 0.4696
H38_4 H 0.9971 0.8002 0.2369
H83_4 H 0.9872 0.6659 0.0076
N8_4 N 0.9948(5) 0.7017(4) 0.3204(19)
N14_4 N 0.9958(5) 0.7730(5) 0.4299(15)
O13_2 O 0.9826(5) 0.7517(5) 0.0669(15)
H41_4 H 0.6263 0.7266 0.0271
C27_4 C 0.6000(5) 0.8093(5) 0.062(2)
H43_4 H 0.6180 0.7992 0.1452
C28_4 C 0.5406(5) 0.8623(7) 0.370(2)
H45_4 H 0.5625 0.8514 0.4423
H46_4 H 0.5481 0.8929 0.3478
N10_4 N 0.5746(5) 0.7720(5) 0.001(2)
H86_4 H 0.5572 0.7586 0.0713
O4_3 O 0.4928(5) 0.8580(5) 0.4194(16)
H89_3 H 0.4672 0.8567 0.3831
N13_4 N 0.5691(5) 0.8439(5) 0.1063(15)
C61_4 C 0.5428(6) 0.8696(5) 0.006(2)
H92_4 H 0.5262 0.8928 0.0579
C62_4 C 0.5415(7) 0.8342(7) 0.2380(17)
H93_4 H 0.5512 0.8049 0.2695
H94_4 H 0.5091 0.8314 0.2069
O4_4 O 0.9928(5) 0.6420(5) 0.5806(16)
H89_4 H 0.9672 0.6433 0.6169
H55_3 H 0.9328 0.0087 0.7682
H58_3 H 0.9109 0.0112 0.5262
C45_3 C 0.7386(6) 0.0314(5) 0.083(2)
C46_3 C 0.7709(4) 0.0006(3) 0.1350(13)
C51_3 C 0.8178(4) 0.0013(3) 0.1056(12)
H70_3 H 0.8303 0.0241 0.0498
O9_3 O 0.7015(4) 0.0350(4) 0.1127(15)
C9_3 C 0.7841(3) 0.6803(3) 0.9222(14)
H7_3 H 0.7733 0.6954 0.8360
H8_3 H 0.7887 0.7025 0.9965
H9_3 H 0.6859 0.6805 0.9302
H22_3 H 0.8855 0.6329 0.9718
C17_3 C 0.8290(5) 0.6399(4) 0.7461(11)
H23_3 H 0.7972 0.6371 0.7090
H24_3 H 0.8429 0.6105 0.7506
C18_3 C 0.8573(3) 0.6692(4) 0.6504(15)
H25_3 H 0.8547 0.6585 0.5519
H26_3 H 0.8440 0.6988 0.6532
N1_3 N 0.8282(4) 0.6602(4) 0.8916(11)
N2_3 N 0.7474(4) 0.6502(4) 0.9696(16)
H79_3 H 0.7408 0.6317 0.8944
O2_3 O 0.9064(3) 0.6719(5) 0.6876(15)
H87_3 H 0.9092 0.6731 0.7760
C9_4 C 0.2159(3) 0.3197(3) 0.9222(14)
H7_4 H 0.2267 0.3046 0.8360
H8_4 H 0.2113 0.2975 0.9965
H9_4 H 0.3141 0.3195 0.9302
H22_4 H 0.1145 0.3671 0.9718
C17_4 C 0.1710(5) 0.3601(4) 0.7461(11)
H23_4 H 0.2028 0.3629 0.7090
H24_4 H 0.1571 0.3895 0.7506
C18_4 C 0.1427(3) 0.3308(4) 0.6504(15)
H25_4 H 0.1453 0.3415 0.5519
H26_4 H 0.1560 0.3012 0.6532
N1_4 N 0.1718(4) 0.3398(4) 0.8916(11)
N2_4 N 0.2526(4) 0.3498(4) 0.9696(16)
H79_4 H 0.2592 0.3683 0.8944
O2_4 O 0.0936(3) 0.3281(5) 0.6876(15)
H87_4 H 0.0908 0.3269 0.7760
H55_4 H 0.0672 0.9913 0.7682
H58_4 H 0.0891 0.9888 0.5262
C45_4 C 0.2614(6) 0.9686(5) 0.083(2)
C46_4 C 0.2291(4) 0.9994(3) 0.1350(13)
C51_4 C 0.1822(4) 0.9987(3) 0.1056(12)
H70_4 H 0.1697 0.9759 0.0498
O9_4 O 0.2985(4) 0.9650(4) 0.1127(15)
loop_
_geom_bond_atom_site_label_1
_geom_bond_atom_site_label_2
_geom_bond_site_symmetry_1
_geom_bond_site_symmetry_2
H32 C21 1_555 1_555
C22 C21 1_555 1_555
H33 C22 1_555 1_555
H34 C22 1_555 1_555
C23 H35 1_555 1_555
H36 C23 1_555 1_555
N8 C22 1_555 1_555
N14 C23 1_555 1_555
C23 N8 1_555 1_555
C27 H43 1_555 1_555
C28 H45 1_555 1_555
H46 C28 1_555 1_555
H86 N10 1_555 1_555
O4 C28 1_555 1_555
H89 O4 1_555 1_555
N13 C27 1_555 1_555
H92 C61 1_555 1_555
C62 C28 1_555 1_555
H93 C62 1_555 1_555
H94 C62 1_555 1_555
C27 N10 1_555 1_555
N13 C61 1_555 1_555
N13 C62 1_555 1_555
H89_2 O4_2 1_555 1_555
C9 H7 1_555 1_555
H8 C9 1_555 1_555
C17 H23 1_555 1_555
H24 C17 1_555 1_555
C18 C17 1_555 1_555
H25 C18 1_555 1_555
H26 C18 1_555 1_555
N1 C9 1_555 1_555
N2 C9 1_555 1_555
H79 N2 1_555 1_555
O2 C18 1_555 1_555
H87 O2 1_555 1_555
Ni3 O8 1_555 1_555
C17 N1 1_555 1_555
C27_2 H43_2 1_555 1_555
C28_2 H45_2 1_555 1_555
H46_2 C28_2 1_555 1_555
H86_2 N10_2 1_555 1_555
N13_2 C27_2 1_555 1_555
H92_2 C61_2 1_555 1_555
C62_2 C28_2 1_555 1_555
H93_2 C62_2 1_555 1_555
H94_2 C62_2 1_555 1_555
Ni4 O1 1_555 1_555
C27_2 N10_2 1_555 1_555
N13_2 C61_2 1_555 1_555
N13_2 C62_2 1_555 1_555
C1 C3 1_555 1_555
C2 H1 1_555 1_555
C3 C2 1_555 1_555
C4 C3 1_555 1_555
H2 C4 1_555 1_555
C5 C4 1_555 1_555
H3 C5 1_555 1_555
C6 C5 1_555 1_555
C7 C2 1_555 1_555
H4 C7 1_555 1_555
C8 C6 1_555 1_555
H5 C8 1_555 1_555
H6 C8 1_555 1_555
H10 C10 1_555 1_555
C11 C10 1_555 1_555
H11 C11 1_555 1_555
H12 C11 1_555 1_555
C12 H13 1_555 1_555
H14 C12 1_555 1_555
C13 H15 1_555 1_555
H16 C13 1_555 1_555
C14 H17 1_555 1_555
H18 C14 1_555 1_555
C15 C14 1_555 1_555
H19 C15 1_555 1_555
H20 C15 1_555 1_555
C16 H21 1_555 1_555
C19 H27 1_555 1_555
H28 C19 1_555 1_555
C20 C19 1_555 1_555
H29 C20 1_555 1_555
H30 C20 1_555 1_555
C21_2 H31 1_555 1_555
H32_2 C21_2 1_555 1_555
C22_2 C21_2 1_555 1_555
H33_2 C22_2 1_555 1_555
H34_2 C22_2 1_555 1_555
C23_2 H35_2 1_555 1_555
H36_2 C23_2 1_555 1_555
C24 H37 1_555 1_555
H38_2 C24 1_555 1_555
C25 H39 1_555 1_555
H40 C25 1_555 1_555
C26 C25 1_555 1_555
H42 C26 1_555 1_555
C29 H47 1_555 1_555
H48 C29 1_555 1_555
C30 C29 1_555 1_555
H49 C30 1_555 1_555
H50 C30 1_555 1_555
C31 H51 1_555 1_555
C32 C31 1_555 1_555
H52 C32 1_555 1_555
C33 C32 1_555 1_555
H53 C33 1_555 1_555
H54 C33 1_555 1_555
C34 C33 1_555 1_555
H56 C34 1_555 1_555
C35 C34 1_555 1_555
H57 C35 1_555 1_555
C36 C31 1_555 1_555
H59 C36 1_555 1_555
H60 C36 1_555 1_555
C37 C38 1_555 1_555
C38 C39 1_555 1_555
C39 H61 1_555 1_555
C40 C39 1_555 1_555
H62 C40 1_555 1_555
C41 C40 1_555 1_555
C42 C41 1_555 1_555
H63 C42 1_555 1_555
C43 C38 1_555 1_555
H64 C43 1_555 1_555
C44 C41 1_555 1_555
H65 C44 1_555 1_555
H66 C44 1_555 1_555
C47 H67 1_555 1_555
C48 C47 1_555 1_555
H68 C48 1_555 1_555
C49 C48 1_555 1_555
C50 C49 1_555 1_555
H69 C50 1_555 1_555
C52 C49 1_555 1_555
H71 C52 1_555 1_555
H72 C52 1_555 1_555
C53 C54 1_555 1_555
C54 C55 1_555 1_555
C55 H73 1_555 1_555
C56 C55 1_555 1_555
H74 C56 1_555 1_555
C57 C56 1_555 1_555
C58 C57 1_555 1_555
H75 C58 1_555 1_555
C59 C54 1_555 1_555
H76 C59 1_555 1_555
C60 C57 1_555 1_555
H77 C60 1_555 1_555
H78 C60 1_555 1_555
N3 C11 1_555 1_555
H80 N3 1_555 1_555
N4 C12 1_555 1_555
N5 C13 1_555 1_555
H81 N5 1_555 1_555
N6 C15 1_555 1_555
H82 N6 1_555 1_555
N7 C21_2 1_555 1_555
H83_2 N7 1_555 1_555
N8_2 C22_2 1_555 1_555
H84 N8_2 1_555 1_555
N9 C24 1_555 1_555
H85 N9 1_555 1_555
N11 C31 1_555 1_555
N12 C8 1_555 1_555
Ni4 N7 1_555 1_555
O3 C20 1_555 1_555
H88 O3 1_555 1_555
O5 C30 1_555 1_555
H90 O5 1_555 1_555
O6 C37 1_555 1_555
O7 C37 1_555 1_555
O10 C1 1_555 1_555
O11 C53 1_555 1_555
O12 C53 1_555 1_555
N14_2 C23_2 1_555 1_555
C6 C7 1_555 1_555
C12 N3 1_555 1_555
C13 N4 1_555 1_555
C14 N5 1_555 1_555
C16 N6 1_555 1_555
C19 N4 1_555 1_555
C23_2 N8_2 1_555 1_555
C24 N14_2 1_555 1_555
C25 N9 1_555 1_555
C29 N14_2 1_555 1_555
C32 N12 1_555 1_555
C35 C36 1_555 1_555
C42 C43 1_555 1_555
C44 N11 1_555 1_555
C52 N11 1_555 1_555
C58 C59 1_555 1_555
C60 N12 1_555 1_555
N3 Ni3 1_555 1_555
N5 Ni3 1_555 1_555
N6 Ni3 1_555 1_555
N8_2 Ni4 1_555 1_555
N9 Ni4 1_555 1_555
Ni3 O6 1_555 1_555
Ni4 O12 1_555 1_555
C1_2 C3_2 1_555 1_555
C2_2 H1_2 1_555 1_555
C3_2 C2_2 1_555 1_555
C4_2 C3_2 1_555 1_555
H2_2 C4_2 1_555 1_555
C5_2 C4_2 1_555 1_555
H3_2 C5_2 1_555 1_555
C6_2 C5_2 1_555 1_555
C7_2 C2_2 1_555 1_555
H4_2 C7_2 1_555 1_555
C8_2 C6_2 1_555 1_555
H5_2 C8_2 1_555 1_555
H6_2 C8_2 1_555 1_555
H10_2 C10_2 1_555 1_555
C11_2 C10_2 1_555 1_555
H11_2 C11_2 1_555 1_555
H12_2 C11_2 1_555 1_555
C12_2 H13_2 1_555 1_555
H14_2 C12_2 1_555 1_555
C13_2 H15_2 1_555 1_555
H16_2 C13_2 1_555 1_555
C14_2 H17_2 1_555 1_555
H18_2 C14_2 1_555 1_555
C15_2 C14_2 1_555 1_555
H19_2 C15_2 1_555 1_555
H20_2 C15_2 1_555 1_555
C16_2 H21_2 1_555 1_555
C19_2 H27_2 1_555 1_555
H28_2 C19_2 1_555 1_555
C20_2 C19_2 1_555 1_555
H29_2 C20_2 1_555 1_555
H30_2 C20_2 1_555 1_555
C24_2 H37_2 1_555 1_555
C25_2 H39_2 1_555 1_555
H40_2 C25_2 1_555 1_555
C26_2 C25_2 1_555 1_555
H42_2 C26_2 1_555 1_555
C29_2 H47_2 1_555 1_555
H48_2 C29_2 1_555 1_555
C30_2 C29_2 1_555 1_555
H49_2 C30_2 1_555 1_555
H50_2 C30_2 1_555 1_555
C31_2 H51_2 1_555 1_555
C32_2 C31_2 1_555 1_555
H52_2 C32_2 1_555 1_555
C33_2 C32_2 1_555 1_555
H53_2 C33_2 1_555 1_555
H54_2 C33_2 1_555 1_555
C34_2 C33_2 1_555 1_555
H55 C34_2 1_555 1_555
H56_2 C34_2 1_555 1_555
C35_2 C34_2 1_555 1_555
H57_2 C35_2 1_555 1_555
H58 C35_2 1_555 1_555
C36_2 C31_2 1_555 1_555
H59_2 C36_2 1_555 1_555
H60_2 C36_2 1_555 1_555
C37_2 C38_2 1_555 1_555
C38_2 C39_2 1_555 1_555
C39_2 H61_2 1_555 1_555
C40_2 C39_2 1_555 1_555
H62_2 C40_2 1_555 1_555
C41_2 C40_2 1_555 1_555
C42_2 C41_2 1_555 1_555
H63_2 C42_2 1_555 1_555
C43_2 C38_2 1_555 1_555
H64_2 C43_2 1_555 1_555
C44_2 C41_2 1_555 1_555
H65_2 C44_2 1_555 1_555
H66_2 C44_2 1_555 1_555
C45 C46 1_555 1_555
C46 C47_2 1_555 1_555
C47_2 H67_2 1_555 1_555
C48_2 C47_2 1_555 1_555
H68_2 C48_2 1_555 1_555
C49_2 C48_2 1_555 1_555
C50_2 C49_2 1_555 1_555
H69_2 C50_2 1_555 1_555
C51 C46 1_555 1_555
H70 C51 1_555 1_555
C52_2 C49_2 1_555 1_555
H71_2 C52_2 1_555 1_555
H72_2 C52_2 1_555 1_555
C53_2 C54_2 1_555 1_555
C54_2 C55_2 1_555 1_555
C55_2 H73_2 1_555 1_555
C56_2 C55_2 1_555 1_555
H74_2 C56_2 1_555 1_555
C57_2 C56_2 1_555 1_555
C58_2 C57_2 1_555 1_555
H75_2 C58_2 1_555 1_555
C59_2 C54_2 1_555 1_555
H76_2 C59_2 1_555 1_555
C60_2 C57_2 1_555 1_555
H77_2 C60_2 1_555 1_555
H78_2 C60_2 1_555 1_555
N3_2 C11_2 1_555 1_555
H80_2 N3_2 1_555 1_555
N4_2 C12_2 1_555 1_555
N5_2 C13_2 1_555 1_555
H81_2 N5_2 1_555 1_555
N6_2 C15_2 1_555 1_555
H82_2 N6_2 1_555 1_555
N9_2 C24_2 1_555 1_555
H85_2 N9_2 1_555 1_555
N11_2 C31_2 1_555 1_555
N12_2 C8_2 1_555 1_555
Ni2 N7_2 1_555 1_555
O3_2 C20_2 1_555 1_555
H88_2 O3_2 1_555 1_555
O5_2 C30_2 1_555 1_555
H90_2 O5_2 1_555 1_555
O6_2 C37_2 1_555 1_555
O7_2 C37_2 1_555 1_555
O9 C45 1_555 1_555
O10_2 C1_2 1_555 1_555
O11_2 C53_2 1_555 1_555
O12_2 C53_2 1_555 1_555
O14 Ni1 1_555 1_555
C6_2 C7_2 1_555 1_555
C12_2 N3_2 1_555 1_555
C13_2 N4_2 1_555 1_555
C14_2 N5_2 1_555 1_555
C16_2 N6_2 1_555 1_555
C19_2 N4_2 1_555 1_555
C25_2 N9_2 1_555 1_555
C32_2 N12_2 1_555 1_555
C35_2 C36_2 1_555 1_555
C42_2 C43_2 1_555 1_555
C44_2 N11_2 1_555 1_555
C50_2 C51 1_555 1_555
C52_2 N11_2 1_555 1_555
C58_2 C59_2 1_555 1_555
C60_2 N12_2 1_555 1_555
N3_2 Ni1 1_555 1_555
N5_2 Ni1 1_555 1_555
N6_2 Ni1 1_555 1_555
N9_2 Ni2 1_555 1_555
Ni1 O6_2 1_555 1_555
Ni2 O12_2 1_555 1_555
C27_3 H43_3 1_555 1_555
C28_3 H45_3 1_555 1_555
H46_3 C28_3 1_555 1_555
H86_3 N10_3 1_555 1_555
N13_3 C27_3 1_555 1_555
H92_3 C61_3 1_555 1_555
C62_3 C28_3 1_555 1_555
H93_3 C62_3 1_555 1_555
H94_3 C62_3 1_555 1_555
Ni4_2 O1_2 1_555 1_555
C27_3 N10_3 1_555 1_555
N13_3 C61_3 1_555 1_555
N13_3 C62_3 1_555 1_555
C9_2 H7_2 1_555 1_555
H8_2 C9_2 1_555 1_555
C17_2 H23_2 1_555 1_555
H24_2 C17_2 1_555 1_555
C18_2 C17_2 1_555 1_555
H25_2 C18_2 1_555 1_555
H26_2 C18_2 1_555 1_555
N1_2 C9_2 1_555 1_555
N2_2 C9_2 1_555 1_555
H79_2 N2_2 1_555 1_555
O2_2 C18_2 1_555 1_555
H87_2 O2_2 1_555 1_555
Ni3_2 O8_2 1_555 1_555
C17_2 N1_2 1_555 1_555
C1_3 C3_3 1_555 1_555
C2_3 H1_3 1_555 1_555
C3_3 C2_3 1_555 1_555
C4_3 C3_3 1_555 1_555
H2_3 C4_3 1_555 1_555
C5_3 C4_3 1_555 1_555
H3_3 C5_3 1_555 1_555
C6_3 C5_3 1_555 1_555
C7_3 C2_3 1_555 1_555
H4_3 C7_3 1_555 1_555
C8_3 C6_3 1_555 1_555
H5_3 C8_3 1_555 1_555
H6_3 C8_3 1_555 1_555
H10_3 C10_3 1_555 1_555
C11_3 C10_3 1_555 1_555
H11_3 C11_3 1_555 1_555
H12_3 C11_3 1_555 1_555
C12_3 H13_3 1_555 1_555
H14_3 C12_3 1_555 1_555
C13_3 H15_3 1_555 1_555
H16_3 C13_3 1_555 1_555
C14_3 H17_3 1_555 1_555
H18_3 C14_3 1_555 1_555
C15_3 C14_3 1_555 1_555
H19_3 C15_3 1_555 1_555
H20_3 C15_3 1_555 1_555
C16_3 H21_3 1_555 1_555
C19_3 H27_3 1_555 1_555
H28_3 C19_3 1_555 1_555
C20_3 C19_3 1_555 1_555
H29_3 C20_3 1_555 1_555
H30_3 C20_3 1_555 1_555
C21_3 H31_3 1_555 1_555
H32_3 C21_3 1_555 1_555
C22_3 C21_3 1_555 1_555
H33_3 C22_3 1_555 1_555
H34_3 C22_3 1_555 1_555
C23_3 H35_3 1_555 1_555
H36_3 C23_3 1_555 1_555
C24_3 H37_3 1_555 1_555
H38_3 C24_3 1_555 1_555
C25_3 H39_3 1_555 1_555
H40_3 C25_3 1_555 1_555
C26_3 C25_3 1_555 1_555
H42_3 C26_3 1_555 1_555
C29_3 H47_3 1_555 1_555
H48_3 C29_3 1_555 1_555
C30_3 C29_3 1_555 1_555
H49_3 C30_3 1_555 1_555
H50_3 C30_3 1_555 1_555
C31_3 H51_3 1_555 1_555
C32_3 C31_3 1_555 1_555
H52_3 C32_3 1_555 1_555
C33_3 C32_3 1_555 1_555
H53_3 C33_3 1_555 1_555
H54_3 C33_3 1_555 1_555
C34_3 C33_3 1_555 1_555
H56_3 C34_3 1_555 1_555
C35_3 C34_3 1_555 1_555
H57_3 C35_3 1_555 1_555
C36_3 C31_3 1_555 1_555
H59_3 C36_3 1_555 1_555
H60_3 C36_3 1_555 1_555
C37_3 C38_3 1_555 1_555
C38_3 C39_3 1_555 1_555
C39_3 H61_3 1_555 1_555
C40_3 C39_3 1_555 1_555
H62_3 C40_3 1_555 1_555
C41_3 C40_3 1_555 1_555
C42_3 C41_3 1_555 1_555
H63_3 C42_3 1_555 1_555
C43_3 C38_3 1_555 1_555
H64_3 C43_3 1_555 1_555
C44_3 C41_3 1_555 1_555
H65_3 C44_3 1_555 1_555
H66_3 C44_3 1_555 1_555
C47_3 H67_3 1_555 1_555
C48_3 C47_3 1_555 1_555
H68_3 C48_3 1_555 1_555
C49_3 C48_3 1_555 1_555
C50_3 C49_3 1_555 1_555
H69_3 C50_3 1_555 1_555
C52_3 C49_3 1_555 1_555
H71_3 C52_3 1_555 1_555
H72_3 C52_3 1_555 1_555
C53_3 C54_3 1_555 1_555
C54_3 C55_3 1_555 1_555
C55_3 H73_3 1_555 1_555
C56_3 C55_3 1_555 1_555
H74_3 C56_3 1_555 1_555
C57_3 C56_3 1_555 1_555
C58_3 C57_3 1_555 1_555
H75_3 C58_3 1_555 1_555
C59_3 C54_3 1_555 1_555
H76_3 C59_3 1_555 1_555
C60_3 C57_3 1_555 1_555
H77_3 C60_3 1_555 1_555
H78_3 C60_3 1_555 1_555
N3_3 C11_3 1_555 1_555
H80_3 N3_3 1_555 1_555
N4_3 C12_3 1_555 1_555
N5_3 C13_3 1_555 1_555
H81_3 N5_3 1_555 1_555
N6_3 C15_3 1_555 1_555
H82_3 N6_3 1_555 1_555
N7_3 C21_3 1_555 1_555
H83_3 N7_3 1_555 1_555
N8_3 C22_3 1_555 1_555
H84_3 N8_3 1_555 1_555
N9_3 C24_3 1_555 1_555
H85_3 N9_3 1_555 1_555
N11_3 C31_3 1_555 1_555
N12_3 C8_3 1_555 1_555
Ni4_2 N7_3 1_555 1_555
O3_3 C20_3 1_555 1_555
H88_3 O3_3 1_555 1_555
O5_3 C30_3 1_555 1_555
H90_3 O5_3 1_555 1_555
O6_3 C37_3 1_555 1_555
O7_3 C37_3 1_555 1_555
O10_3 C1_3 1_555 1_555
O11_3 C53_3 1_555 1_555
O12_3 C53_3 1_555 1_555
N14_3 C23_3 1_555 1_555
C6_3 C7_3 1_555 1_555
C12_3 N3_3 1_555 1_555
C13_3 N4_3 1_555 1_555
C14_3 N5_3 1_555 1_555
C16_3 N6_3 1_555 1_555
C19_3 N4_3 1_555 1_555
C23_3 N8_3 1_555 1_555
C24_3 N14_3 1_555 1_555
C25_3 N9_3 1_555 1_555
C29_3 N14_3 1_555 1_555
C32_3 N12_3 1_555 1_555
C35_3 C36_3 1_555 1_555
C42_3 C43_3 1_555 1_555
C44_3 N11_3 1_555 1_555
C52_3 N11_3 1_555 1_555
C58_3 C59_3 1_555 1_555
C60_3 N12_3 1_555 1_555
N3_3 Ni3_2 1_555 1_555
N5_3 Ni3_2 1_555 1_555
N6_3 Ni3_2 1_555 1_555
N8_3 Ni4_2 1_555 1_555
N9_3 Ni4_2 1_555 1_555
Ni3_2 O6_3 1_555 1_555
Ni4_2 O12_3 1_555 1_555
C1_4 C3_4 1_555 1_555
C2_4 H1_4 1_555 1_555
C3_4 C2_4 1_555 1_555
C4_4 C3_4 1_555 1_555
H2_4 C4_4 1_555 1_555
C5_4 C4_4 1_555 1_555
H3_4 C5_4 1_555 1_555
C6_4 C5_4 1_555 1_555
C7_4 C2_4 1_555 1_555
H4_4 C7_4 1_555 1_555
C8_4 C6_4 1_555 1_555
H5_4 C8_4 1_555 1_555
H6_4 C8_4 1_555 1_555
H10_4 C10_4 1_555 1_555
C11_4 C10_4 1_555 1_555
H11_4 C11_4 1_555 1_555
H12_4 C11_4 1_555 1_555
C12_4 H13_4 1_555 1_555
H14_4 C12_4 1_555 1_555
C13_4 H15_4 1_555 1_555
H16_4 C13_4 1_555 1_555
C14_4 H17_4 1_555 1_555
H18_4 C14_4 1_555 1_555
C15_4 C14_4 1_555 1_555
H19_4 C15_4 1_555 1_555
H20_4 C15_4 1_555 1_555
C16_4 H21_4 1_555 1_555
C19_4 H27_4 1_555 1_555
H28_4 C19_4 1_555 1_555
C20_4 C19_4 1_555 1_555
H29_4 C20_4 1_555 1_555
H30_4 C20_4 1_555 1_555
C24_4 H37_4 1_555 1_555
C25_4 H39_4 1_555 1_555
H40_4 C25_4 1_555 1_555
C26_4 C25_4 1_555 1_555
H42_4 C26_4 1_555 1_555
C29_4 H47_4 1_555 1_555
H48_4 C29_4 1_555 1_555
C30_4 C29_4 1_555 1_555
H49_4 C30_4 1_555 1_555
H50_4 C30_4 1_555 1_555
C31_4 H51_4 1_555 1_555
C32_4 C31_4 1_555 1_555
H52_4 C32_4 1_555 1_555
C33_4 C32_4 1_555 1_555
H53_4 C33_4 1_555 1_555
H54_4 C33_4 1_555 1_555
C34_4 C33_4 1_555 1_555
H55_2 C34_4 1_555 1_555
H56_4 C34_4 1_555 1_555
C35_4 C34_4 1_555 1_555
H57_4 C35_4 1_555 1_555
H58_2 C35_4 1_555 1_555
C36_4 C31_4 1_555 1_555
H59_4 C36_4 1_555 1_555
H60_4 C36_4 1_555 1_555
C37_4 C38_4 1_555 1_555
C38_4 C39_4 1_555 1_555
C39_4 H61_4 1_555 1_555
C40_4 C39_4 1_555 1_555
H62_4 C40_4 1_555 1_555
C41_4 C40_4 1_555 1_555
C42_4 C41_4 1_555 1_555
H63_4 C42_4 1_555 1_555
C43_4 C38_4 1_555 1_555
H64_4 C43_4 1_555 1_555
C44_4 C41_4 1_555 1_555
H65_4 C44_4 1_555 1_555
H66_4 C44_4 1_555 1_555
C45_2 C46_2 1_555 1_555
C46_2 C47_4 1_555 1_555
C47_4 H67_4 1_555 1_555
C48_4 C47_4 1_555 1_555
H68_4 C48_4 1_555 1_555
C49_4 C48_4 1_555 1_555
C50_4 C49_4 1_555 1_555
H69_4 C50_4 1_555 1_555
C51_2 C46_2 1_555 1_555
H70_2 C51_2 1_555 1_555
C52_4 C49_4 1_555 1_555
H71_4 C52_4 1_555 1_555
H72_4 C52_4 1_555 1_555
C53_4 C54_4 1_555 1_555
C54_4 C55_4 1_555 1_555
C55_4 H73_4 1_555 1_555
C56_4 C55_4 1_555 1_555
H74_4 C56_4 1_555 1_555
C57_4 C56_4 1_555 1_555
C58_4 C57_4 1_555 1_555
H75_4 C58_4 1_555 1_555
C59_4 C54_4 1_555 1_555
H76_4 C59_4 1_555 1_555
C60_4 C57_4 1_555 1_555
H77_4 C60_4 1_555 1_555
H78_4 C60_4 1_555 1_555
N3_4 C11_4 1_555 1_555
H80_4 N3_4 1_555 1_555
N4_4 C12_4 1_555 1_555
N5_4 C13_4 1_555 1_555
H81_4 N5_4 1_555 1_555
N6_4 C15_4 1_555 1_555
H82_4 N6_4 1_555 1_555
N9_4 C24_4 1_555 1_555
H85_4 N9_4 1_555 1_555
N11_4 C31_4 1_555 1_555
N12_4 C8_4 1_555 1_555
Ni2_2 N7_4 1_555 1_555
O3_4 C20_4 1_555 1_555
H88_4 O3_4 1_555 1_555
O5_4 C30_4 1_555 1_555
H90_4 O5_4 1_555 1_555
O6_4 C37_4 1_555 1_555
O7_4 C37_4 1_555 1_555
O9_2 C45_2 1_555 1_555
O10_4 C1_4 1_555 1_555
O11_4 C53_4 1_555 1_555
O12_4 C53_4 1_555 1_555
O14_2 Ni1_2 1_555 1_555
C6_4 C7_4 1_555 1_555
C12_4 N3_4 1_555 1_555
C13_4 N4_4 1_555 1_555
C14_4 N5_4 1_555 1_555
C16_4 N6_4 1_555 1_555
C19_4 N4_4 1_555 1_555
C25_4 N9_4 1_555 1_555
C32_4 N12_4 1_555 1_555
C35_4 C36_4 1_555 1_555
C42_4 C43_4 1_555 1_555
C44_4 N11_4 1_555 1_555
C50_4 C51_2 1_555 1_555
C52_4 N11_4 1_555 1_555
C58_4 C59_4 1_555 1_555
C60_4 N12_4 1_555 1_555
N3_4 Ni1_2 1_555 1_555
N5_4 Ni1_2 1_555 1_555
N6_4 Ni1_2 1_555 1_555
N9_4 Ni2_2 1_555 1_555
Ni1_2 O6_4 1_555 1_555
Ni2_2 O12_4 1_555 1_555
H32_4 C21_4 1_555 1_555
C22_4 C21_4 1_555 1_555
H33_4 C22_4 1_555 1_555
H34_4 C22_4 1_555 1_555
C23_4 H35_4 1_555 1_555
H36_4 C23_4 1_555 1_555
N8_4 C22_4 1_555 1_555
N14_4 C23_4 1_555 1_555
C23_4 N8_4 1_555 1_555
C27_4 H43_4 1_555 1_555
C28_4 H45_4 1_555 1_555
H46_4 C28_4 1_555 1_555
H86_4 N10_4 1_555 1_555
O4_3 C28_4 1_555 1_555
H89_3 O4_3 1_555 1_555
N13_4 C27_4 1_555 1_555
H92_4 C61_4 1_555 1_555
C62_4 C28_4 1_555 1_555
H93_4 C62_4 1_555 1_555
H94_4 C62_4 1_555 1_555
C27_4 N10_4 1_555 1_555
N13_4 C61_4 1_555 1_555
N13_4 C62_4 1_555 1_555
H89_4 O4_4 1_555 1_555
C45_3 C46_3 1_555 1_555
C51_3 C46_3 1_555 1_555
H70_3 C51_3 1_555 1_555
O9_3 C45_3 1_555 1_555
C9_3 H7_3 1_555 1_555
H8_3 C9_3 1_555 1_555
C17_3 H23_3 1_555 1_555
H24_3 C17_3 1_555 1_555
C18_3 C17_3 1_555 1_555
H25_3 C18_3 1_555 1_555
H26_3 C18_3 1_555 1_555
N1_3 C9_3 1_555 1_555
N2_3 C9_3 1_555 1_555
H79_3 N2_3 1_555 1_555
O2_3 C18_3 1_555 1_555
H87_3 O2_3 1_555 1_555
C17_3 N1_3 1_555 1_555
C9_4 H7_4 1_555 1_555
H8_4 C9_4 1_555 1_555
C17_4 H23_4 1_555 1_555
H24_4 C17_4 1_555 1_555
C18_4 C17_4 1_555 1_555
H25_4 C18_4 1_555 1_555
H26_4 C18_4 1_555 1_555
N1_4 C9_4 1_555 1_555
N2_4 C9_4 1_555 1_555
H79_4 N2_4 1_555 1_555
O2_4 C18_4 1_555 1_555
H87_4 O2_4 1_555 1_555
C17_4 N1_4 1_555 1_555
C45_4 C46_4 1_555 1_555
C51_4 C46_4 1_555 1_555
H70_4 C51_4 1_555 1_555
O9_4 C45_4 1_555 1_555

#END
