
###############################################################################
#
# This file contains modified crystal structure data generated from the
# MOF subset of the Cambridge Structural Database (CSD) v543 
# hosted by the Cambridge Crystallographic Data Centre (CCDC).
#
# This work is licensed under the Creative Commons
# Attribution-NonCommercial-ShareAlike 4.0 International License.
# To view a copy of this license, visit
# http://creativecommons.org/licenses/by-nc-sa/4.0/
# or send a letter to
# Creative Commons, PO Box 1866, Mountain View, CA 94042, USA.
#
# CIF created using the CSD Python API on 29 September 2022
# The structure has been converted into the P1 space group
# The structure has a 3D framework
# The original CSD entry CUGFAN01 is in the triclinic crystal system
# The framework has been calculated to contain at least 10.0% void space
# The void calculation uses a probe of radius 1.32A, grid spacing 0.4
#
###############################################################################

data_CUGFAN01
_chemical_formula_moiety         '(C26 H24 B2 N16 O4 Zn2)n'
_symmetry_cell_setting           triclinic
_symmetry_space_group_name_H-M   'P 1'
_symmetry_Int_Tables_number      1
_space_group_name_Hall           'P 1'
loop_
_symmetry_equiv_pos_site_id
_symmetry_equiv_pos_as_xyz
1 x,y,z
_cell_length_a                   8.8649(4)
_cell_length_b                   10.5565(4)
_cell_length_c                   10.6310(5)
_cell_angle_alpha                99.986(3)
_cell_angle_beta                 110.233(4)
_cell_angle_gamma                97.819(4)
_cell_volume                     898.421
loop_
_atom_site_label
_atom_site_type_symbol
_atom_site_fract_x
_atom_site_fract_y
_atom_site_fract_z
_atom_site_U_iso_or_equiv
_atom_site_thermal_displace_type
O3 O 0.1901(4) 0.6049(3) 0.5447(3) 0.0120 Uani
O4 O 0.0529(4) 0.4356(3) 0.3622(3) 0.0124 Uani
C14 C 0.0704(5) 0.5119(4) 0.4731(4) 0.0099 Uani
C25 C 0.0276(7) 0.1295(5) 0.3694(5) 0.0235 Uani
H23 H 0.1038 0.1900 0.4476 0.0280 Uiso
C26 C 0.0492(7) 0.0107(5) 0.3151(5) 0.0252 Uani
Zn7 Zn 0.20230(6) 0.67806(5) 0.75122(5) 0.0086 Uani
C18 C 0.0124(5) 0.7537(4) 0.9370(5) 0.0128 Uani
N15 N 0.1507(4) 0.7207(4) 0.9372(4) 0.0122 Uani
N1 N 0.1877(4) 0.2932(3) 0.8265(4) 0.0095 Uani
N4 N 0.0933(4) 0.0501(3) 0.7976(4) 0.0109 Uani
C3 C 0.1749(5) 0.4203(4) 0.8510(4) 0.0114 Uani
H3 H 0.1189 0.4539 0.9043 0.0140 Uiso
C10 C 0.3185(5) 0.4057(4) 0.7244(5) 0.0136 Uani
H9 H 0.3802 0.4277 0.6733 0.0160 Uiso
C11 C 0.2805(5) 0.2839(4) 0.7456(4) 0.0119 Uani
H10 H 0.3113 0.2085 0.7119 0.0150 Uiso
B1 B 0.1374(6) 0.1878(4) 0.8961(5) 0.0097 Uani
N8 N 0.2503(4) 0.4919(4) 0.7914(4) 0.0119 Uani
C6 C 0.1917(5) 0.9626(4) 0.8060(5) 0.0152 Uani
H5 H 0.2967 0.9780 0.8736 0.0180 Uiso
N6 N 0.1241(5) 0.8533(4) 0.7088(4) 0.0133 Uani
N10 N 0.7137(4) 0.8102(3) 0.9732(4) 0.0092 Uani
N11 N 0.4526(4) 0.7631(4) 0.8258(4) 0.0114 Uani
C15 C 0.5627(5) 0.7322(4) 0.9297(4) 0.0103 Uani
H13 H 0.5387 0.6637 0.9689 0.0120 Uiso
C16 C 0.6983(6) 0.8977(4) 0.8881(5) 0.0152 Uani
H14 H 0.7816 0.9637 0.8914 0.0180 Uiso
H16 H 0.9274 0.7582 0.8577 0.0150 Uiso
C21 C 0.5379(5) 0.8686(4) 0.7989(5) 0.0139 Uani
H19 H 0.4929 0.9125 0.7308 0.0170 Uiso
N13 N 0.0075(4) 0.7803(3) 0.0653(4) 0.0099 Uani
C20 C 0.2416(6) 0.7251(5) 0.0720(5) 0.0162 Uani
H18 H 0.3460 0.7067 0.1042 0.0200 Uiso
C22 C 0.1559(6) 0.7605(5) 0.1517(5) 0.0173 Uani
H20 H 0.1904 0.7697 0.2465 0.0210 Uiso
H24 H 0.1427 0.9763 0.3477 0.0300 Uiso
Zn1 Zn 0.79770(6) 0.32194(5) 0.24878(5) 0.0086 Uani
O1 O 0.8099(4) 0.3951(3) 0.4553(3) 0.0120 Uani
O2 O 0.9471(4) 0.5644(3) 0.6378(3) 0.0124 Uani
N2 N 0.2863(4) 0.1898(3) 0.0268(4) 0.0092 Uani
N3 N 0.5474(4) 0.2369(4) 0.1742(4) 0.0114 Uani
C1 C 0.4373(5) 0.2678(4) 0.0703(4) 0.0103 Uani
H1 H 0.4613 0.3363 0.0311 0.0120 Uiso
C2 C 0.3017(6) 0.1023(4) 0.1119(5) 0.0152 Uani
H2 H 0.2184 0.0363 0.1086 0.0180 Uiso
C4 C 0.9296(5) 0.4881(4) 0.5269(4) 0.0099 Uani
H4 H 0.0726 0.2418 0.1423 0.0150 Uiso
C8 C 0.4621(5) 0.1314(4) 0.2011(5) 0.0139 Uani
H7 H 0.5071 0.0875 0.2692 0.0170 Uiso
C19 C 0.8083(5) 0.0374(4) 0.1940(5) 0.0152 Uani
H17 H 0.7033 0.0220 0.1264 0.0180 Uiso
N14 N 0.8759(5) 0.1467(4) 0.2912(4) 0.0133 Uani
N17 N 0.8493(4) 0.2793(4) 0.0628(4) 0.0122 Uani
N20 N 0.7497(4) 0.5081(4) 0.2086(4) 0.0119 Uani
N9 N 0.8123(4) 0.7068(3) 0.1735(4) 0.0095 Uani
N12 N 0.9067(4) 0.9499(3) 0.2024(4) 0.0109 Uani
C17 C 0.8251(5) 0.5797(4) 0.1490(4) 0.0114 Uani
H15 H 0.8811 0.5461 0.0957 0.0140 Uiso
C23 C 0.6815(5) 0.5943(4) 0.2756(5) 0.0136 Uani
H21 H 0.6198 0.5723 0.3267 0.0160 Uiso
C24 C 0.7195(5) 0.7161(4) 0.2544(4) 0.0119 Uani
H22 H 0.6887 0.7915 0.2881 0.0150 Uiso
B2 B 0.8626(6) 0.8122(4) 0.1039(5) 0.0097 Uani
C5 C 0.9876(5) 0.2463(4) 0.0630(5) 0.0128 Uani
C12 C 0.9724(7) 0.8705(5) 0.6306(5) 0.0235 Uani
H11 H 0.8962 0.8100 0.5524 0.0280 Uiso
C13 C 0.9508(7) 0.9893(5) 0.6849(5) 0.0252 Uani
N5 N 0.9925(4) 0.2197(3) 0.9347(4) 0.0099 Uani
C7 C 0.7584(6) 0.2749(5) 0.9280(5) 0.0162 Uani
H6 H 0.6540 0.2933 0.8958 0.0200 Uiso
C9 C 0.8441(6) 0.2395(5) 0.8483(5) 0.0173 Uani
H8 H 0.8096 0.2303 0.7535 0.0210 Uiso
H12 H 0.8573 0.0237 0.6523 0.0300 Uiso
loop_
_atom_site_aniso_label
_atom_site_aniso_U_11
_atom_site_aniso_U_22
_atom_site_aniso_U_33
_atom_site_aniso_U_23
_atom_site_aniso_U_13
_atom_site_aniso_U_12
O3 0.0111 0.0095 0.0137 -0.0005 0.0057 -0.0015
O4 0.0109 0.0131 0.0112 -0.0026 0.0051 0.0009
C14 0.0106 0.007 0.012 0.0022 0.004 0.0025
C25 0.026 0.016 0.017 -0.0033 -0.0034 0.0076
C26 0.023 0.019 0.021 -0.0009 -0.005 0.007
Zn7 0.0081 0.0064 0.0106 -0.0007 0.0041 0.0015
C18 0.013 0.014 0.012 -0.0001 0.0064 0.0046
N15 0.0102 0.0114 0.0141 -0.0002 0.005 0.0024
N1 0.0098 0.0068 0.0124 0.0006 0.0058 0.0015
N4 0.0108 0.0081 0.0136 0.0006 0.0054 0.002
C3 0.0116 0.0084 0.015 0.0011 0.0065 0.0031
C10 0.015 0.012 0.019 0.0044 0.011 0.0068
C11 0.015 0.011 0.014 0.0034 0.0093 0.0058
B1 0.01 0.006 0.013 0 0.0056 0.001
N8 0.0112 0.0113 0.0153 0.0023 0.0079 0.0027
C6 0.012 0.011 0.02 -0.001 0.0047 0.0033
N6 0.0148 0.0085 0.0153 0.0004 0.0055 0.0016
N10 0.0087 0.0065 0.014 0.0014 0.0068 0.001
N11 0.0113 0.0104 0.0134 0.001 0.0067 0.0022
C15 0.0105 0.0075 0.0127 -0.0003 0.0059 0.0008
C16 0.014 0.014 0.02 0.0069 0.0085 0.0012
C21 0.013 0.012 0.019 0.0073 0.0074 0.0021
N13 0.0103 0.0067 0.0131 0.0009 0.0054 0.0024
C20 0.011 0.021 0.017 0.0031 0.0055 0.006
C22 0.012 0.026 0.014 0.0043 0.0038 0.0081
Zn1 0.0081 0.0064 0.0106 -0.0007 0.0041 0.0015
O1 0.0111 0.0095 0.0137 -0.0005 0.0057 -0.0015
O2 0.0109 0.0131 0.0112 -0.0026 0.0051 0.0009
N2 0.0087 0.0065 0.014 0.0014 0.0068 0.001
N3 0.0113 0.0104 0.0134 0.001 0.0067 0.0022
C1 0.0105 0.0075 0.0127 -0.0003 0.0059 0.0008
C2 0.014 0.014 0.02 0.0069 0.0085 0.0012
C4 0.0106 0.007 0.012 0.0022 0.004 0.0025
C8 0.013 0.012 0.019 0.0073 0.0074 0.0021
C19 0.012 0.011 0.02 -0.001 0.0047 0.0033
N14 0.0148 0.0085 0.0153 0.0004 0.0055 0.0016
N17 0.0102 0.0114 0.0141 -0.0002 0.005 0.0024
N20 0.0112 0.0113 0.0153 0.0023 0.0079 0.0027
N9 0.0098 0.0068 0.0124 0.0006 0.0058 0.0015
N12 0.0108 0.0081 0.0136 0.0006 0.0054 0.002
C17 0.0116 0.0084 0.015 0.0011 0.0065 0.0031
C23 0.015 0.012 0.019 0.0044 0.011 0.0068
C24 0.015 0.011 0.014 0.0034 0.0093 0.0058
B2 0.01 0.006 0.013 0 0.0056 0.001
C5 0.013 0.014 0.012 -0.0001 0.0064 0.0046
C12 0.026 0.016 0.017 -0.0033 -0.0034 0.0076
C13 0.023 0.019 0.021 -0.0009 -0.005 0.007
N5 0.0103 0.0067 0.0131 0.0009 0.0054 0.0024
C7 0.011 0.021 0.017 0.0031 0.0055 0.006
C9 0.012 0.026 0.014 0.0043 0.0038 0.0081
loop_
_geom_bond_atom_site_label_1
_geom_bond_atom_site_label_2
_geom_bond_site_symmetry_1
_geom_bond_site_symmetry_2
O3 C14 1_555 1_555
C14 O4 1_555 1_555
C25 H23 1_555 1_555
O3 Zn7 1_555 1_555
C25 C26 1_555 1_555
N15 C18 1_555 1_555
Zn7 N15 1_555 1_555
N1 C3 1_555 1_555
C3 H3 1_555 1_555
C10 H9 1_555 1_555
C11 N1 1_555 1_555
H10 C11 1_555 1_555
B1 N1 1_555 1_555
N8 C3 1_555 1_555
Zn7 N8 1_555 1_555
N4 B1 1_555 1_555
C10 C11 1_555 1_555
C10 N8 1_555 1_555
C6 H5 1_555 1_555
N6 C6 1_555 1_555
Zn7 N6 1_555 1_555
N10 C15 1_555 1_555
N11 Zn7 1_555 1_555
C15 N11 1_555 1_555
H13 C15 1_555 1_555
C16 N10 1_555 1_555
H14 C16 1_555 1_555
C21 N11 1_555 1_555
H19 C21 1_555 1_555
C16 C21 1_555 1_555
C20 H18 1_555 1_555
C22 N13 1_555 1_555
H20 C22 1_555 1_555
C20 C22 1_555 1_555
Zn1 O1 1_555 1_555
O1 C4 1_555 1_555
O2 C4 1_555 1_555
N2 C1 1_555 1_555
N3 Zn1 1_555 1_555
C1 N3 1_555 1_555
H1 C1 1_555 1_555
C2 N2 1_555 1_555
H2 C2 1_555 1_555
C8 N3 1_555 1_555
H7 C8 1_555 1_555
C19 H17 1_555 1_555
N14 Zn1 1_555 1_555
N17 Zn1 1_555 1_555
N20 Zn1 1_555 1_555
C2 C8 1_555 1_555
C19 N14 1_555 1_555
N9 C17 1_555 1_555
C17 H15 1_555 1_555
C23 H21 1_555 1_555
C24 N9 1_555 1_555
H22 C24 1_555 1_555
B2 N9 1_555 1_555
N20 C17 1_555 1_555
N12 B2 1_555 1_555
C23 C24 1_555 1_555
C23 N20 1_555 1_555
N17 C5 1_555 1_555
C12 H11 1_555 1_555
C12 C13 1_555 1_555
C7 H6 1_555 1_555
C9 N5 1_555 1_555
H8 C9 1_555 1_555
C7 C9 1_555 1_555

#END
