
###############################################################################
#
# This file contains modified crystal structure data generated from the
# MOF subset of the Cambridge Structural Database (CSD) v543 
# hosted by the Cambridge Crystallographic Data Centre (CCDC).
#
# This work is licensed under the Creative Commons
# Attribution-NonCommercial-ShareAlike 4.0 International License.
# To view a copy of this license, visit
# http://creativecommons.org/licenses/by-nc-sa/4.0/
# or send a letter to
# Creative Commons, PO Box 1866, Mountain View, CA 94042, USA.
#
# CIF created using the CSD Python API on 29 September 2022
# The structure has been converted into the P1 space group
# The structure has a 3D framework
# The original CSD entry CUGFOB is in the triclinic crystal system
# The framework has been calculated to contain at least 10.0% void space
# The void calculation uses a probe of radius 1.32A, grid spacing 0.4
#
###############################################################################

data_CUGFOB
_chemical_formula_moiety         '(C26 H24 B2 Cd2 N16 O4)n'
_symmetry_cell_setting           triclinic
_symmetry_space_group_name_H-M   'P 1'
_symmetry_Int_Tables_number      1
_space_group_name_Hall           'P 1'
loop_
_symmetry_equiv_pos_site_id
_symmetry_equiv_pos_as_xyz
1 x,y,z
_cell_length_a                   9.0162(7)
_cell_length_b                   10.7479(7)
_cell_length_c                   10.8068(4)
_cell_angle_alpha                97.570(4)
_cell_angle_beta                 97.708(5)
_cell_angle_gamma                110.100(6)
_cell_volume                     956.608
loop_
_atom_site_label
_atom_site_type_symbol
_atom_site_fract_x
_atom_site_fract_y
_atom_site_fract_z
_atom_site_U_iso_or_equiv
_atom_site_thermal_displace_type
C11 C 0.3129(6) 0.7016(5) 0.0235(4) 0.0349 Uani
H10 H 0.2084 0.6391 0.0112 0.0420 Uiso
C13 C 0.5299(7) 0.8638(6) 0.1066(5) 0.0511 Uani
N8 N 0.3804(5) 0.7964(4) 0.1259(4) 0.0364 Uani
H12 H 0.599(9) 0.932(7) 0.160(7) 0.0700 Uiso
Cd8 Cd 0.29431(3) 0.75186(3) 0.31225(3) 0.0244 Uani
N2 N 0.2199(4) 0.4792(3) 0.8167(3) 0.0233 Uani
N3 N 0.3074(4) 0.6723(3) 0.7036(3) 0.0250 Uani
N4 N 0.4087(4) 0.7035(4) 0.9386(3) 0.0278 Uani
C1 C 0.0581(6) 0.3072(5) 0.8833(4) 0.0356 Uani
H1 H 0.0178 0.2416 0.9309 0.0430 Uiso
C2 C 0.2094(5) 0.3984(5) 0.9066(4) 0.0348 Uani
H2 H 0.2922 0.4057 0.9719 0.0410 Uiso
C3 C 0.0738(5) 0.4302(4) 0.7415(4) 0.0266 Uani
H3 H 0.0467 0.4655 0.6715 0.0320 Uiso
C4 C 0.2189(6) 0.7537(5) 0.7124(5) 0.0362 Uani
H4 H 0.1944 0.7906 0.7861 0.0430 Uiso
C5 C 0.3121(5) 0.6445(5) 0.5796(4) 0.0303 Uani
H5 H 0.3649 0.5906 0.5473 0.0360 Uiso
C6 C 0.5141(5) 0.4455(5) 0.7582(4) 0.0309 Uani
H6 H 0.4335 0.3684 0.7693 0.0370 Uiso
C7 C 0.5497(7) 0.8091(6) 0.9938(5) 0.0517 Uani
H7 H 0.6422 0.8375 0.9593 0.0620 Uiso
B1 B 0.3630(6) 0.6071(5) 0.8086(4) 0.0241 Uani
C9 C 0.1740(6) 0.7697(5) 0.5917(5) 0.0399 Uani
H8 H 0.1116 0.8194 0.5693 0.0480 Uiso
C10 C 0.6464(6) 0.6517(5) 0.7496(5) 0.0405 Uani
H9 H 0.6771 0.7440 0.7521 0.0490 Uiso
N5 N 0.5050(4) 0.5690(3) 0.7763(3) 0.0243 Uani
C12 C 0.7330(6) 0.5761(5) 0.7192(5) 0.0408 Uani
H11 H 0.8345 0.6081 0.6986 0.0490 Uiso
N6 N 0.2343(5) 0.7016(4) 0.5083(3) 0.0343 Uani
N7 N 0.6474(5) 0.4445(4) 0.7235(4) 0.0339 Uani
Cd5 Cd 0.70569(3) 0.24814(3) 0.68775(3) 0.0244 Uani
O1 O 0.6802(4) 0.0293(3) 0.6045(3) 0.0341 Uani
N1 N 0.9732(4) 0.3271(4) 0.7777(4) 0.0312 Uani
O4 O 0.4449(4) 0.1313(3) 0.5665(3) 0.0386 Uani
C14 C 0.4321(5) 0.0290(4) 0.4884(4) 0.0271 Uani
N18 N 0.7657(5) 0.2984(4) 0.4917(3) 0.0343 Uani
N22 N 0.6196(5) 0.2036(4) 0.8741(4) 0.0364 Uani
O2 O 0.5551(4) 0.8687(3) 0.4335(3) 0.0386 Uani
C8 C 0.5679(5) 0.9710(4) 0.5116(4) 0.0271 Uani
O3 O 0.3198(4) 0.9707(3) 0.3955(3) 0.0341 Uani
N9 N 0.0268(4) 0.6729(4) 0.2223(4) 0.0312 Uani
N20 N 0.3526(5) 0.5555(4) 0.2765(4) 0.0339 Uani
N10 N 0.7801(4) 0.5208(3) 0.1833(3) 0.0233 Uani
N11 N 0.6926(4) 0.3277(3) 0.2964(3) 0.0250 Uani
N12 N 0.5913(4) 0.2965(4) 0.0614(3) 0.0278 Uani
C15 C 0.9419(6) 0.6928(5) 0.1167(4) 0.0356 Uani
H13 H 0.9822 0.7584 0.0691 0.0430 Uiso
C16 C 0.7906(5) 0.6016(5) 0.0934(4) 0.0348 Uani
H14 H 0.7078 0.5943 0.0281 0.0410 Uiso
C17 C 0.9262(5) 0.5698(4) 0.2585(4) 0.0266 Uani
H15 H 0.9533 0.5345 0.3285 0.0320 Uiso
C18 C 0.7811(6) 0.2463(5) 0.2876(5) 0.0362 Uani
H16 H 0.8056 0.2094 0.2139 0.0430 Uiso
C19 C 0.6879(5) 0.3555(5) 0.4204(4) 0.0303 Uani
H17 H 0.6351 0.4094 0.4527 0.0360 Uiso
C20 C 0.4859(5) 0.5545(5) 0.2418(4) 0.0309 Uani
H18 H 0.5665 0.6316 0.2307 0.0370 Uiso
C21 C 0.4503(7) 0.1909(6) 0.0062(5) 0.0517 Uani
H19 H 0.3578 0.1625 0.0407 0.0620 Uiso
B2 B 0.6370(6) 0.3929(5) 0.1914(4) 0.0241 Uani
C22 C 0.8260(6) 0.2303(5) 0.4083(5) 0.0399 Uani
H20 H 0.8884 0.1806 0.4307 0.0480 Uiso
C23 C 0.3536(6) 0.3483(5) 0.2504(5) 0.0405 Uani
H21 H 0.3229 0.2560 0.2479 0.0490 Uiso
N13 N 0.4950(4) 0.4310(3) 0.2237(3) 0.0243 Uani
C25 C 0.2670(6) 0.4239(5) 0.2808(5) 0.0408 Uani
H23 H 0.1655 0.3919 0.3014 0.0490 Uiso
C24 C 0.6871(6) 0.2984(5) 0.9765(4) 0.0349 Uani
H22 H 0.7916 0.3609 0.9888 0.0420 Uiso
C26 C 0.4701(7) 0.1362(6) 0.8934(5) 0.0511 Uani
H24 H 0.401(9) 0.068(7) 0.840(7) 0.0700 Uiso
loop_
_atom_site_aniso_label
_atom_site_aniso_U_11
_atom_site_aniso_U_22
_atom_site_aniso_U_33
_atom_site_aniso_U_23
_atom_site_aniso_U_13
_atom_site_aniso_U_12
C11 0.031 0.043 0.02 -0.0051 0.0036 0.005
C13 0.051 0.044 0.033 -0.008 0.01 -0.009
N8 0.041 0.04 0.0246 0.001 0.008 0.0117
Cd8 0.02362 0.0285 0.01795 -0.00136 0.00188 0.0087
N2 0.0214 0.0305 0.0187 0.0045 0.0038 0.0105
N3 0.0291 0.0296 0.0201 0.0039 0.0096 0.014
N4 0.0302 0.0346 0.0159 0.0019 0.0043 0.0097
C1 0.038 0.036 0.031 0.0121 0.002 0.011
C2 0.03 0.044 0.031 0.017 -0.0001 0.013
C3 0.024 0.031 0.022 0.0022 0.0005 0.0093
C4 0.049 0.045 0.028 0.01 0.015 0.03
C5 0.037 0.036 0.026 0.0063 0.0119 0.021
C6 0.026 0.032 0.033 0.0024 0.0064 0.0098
C7 0.044 0.051 0.039 -0.005 0.02 -0.008
B1 0.024 0.03 0.016 0.0007 0.0027 0.0088
C9 0.045 0.053 0.038 0.016 0.018 0.032
C10 0.034 0.029 0.061 0.008 0.022 0.01
N5 0.024 0.029 0.0209 0.0025 0.0026 0.0123
C12 0.031 0.039 0.054 0.007 0.02 0.011
N6 0.04 0.051 0.0215 0.0121 0.0072 0.0263
N7 0.031 0.036 0.035 0.0019 0.0069 0.0144
Cd5 0.02362 0.0285 0.01795 -0.00136 0.00188 0.0087
O1 0.0289 0.0358 0.0315 -0.0044 -0.0086 0.0137
N1 0.0233 0.037 0.0276 0.0051 -0.0007 0.0064
O4 0.0286 0.0396 0.0408 -0.0142 -0.0033 0.0158
C14 0.023 0.029 0.027 0.0001 0.001 0.0101
N18 0.04 0.051 0.0215 0.0121 0.0072 0.0263
N22 0.041 0.04 0.0246 0.001 0.008 0.0117
O2 0.0286 0.0396 0.0408 -0.0142 -0.0033 0.0158
C8 0.023 0.029 0.027 0.0001 0.001 0.0101
O3 0.0289 0.0358 0.0315 -0.0044 -0.0086 0.0137
N9 0.0233 0.037 0.0276 0.0051 -0.0007 0.0064
N20 0.031 0.036 0.035 0.0019 0.0069 0.0144
N10 0.0214 0.0305 0.0187 0.0045 0.0038 0.0105
N11 0.0291 0.0296 0.0201 0.0039 0.0096 0.014
N12 0.0302 0.0346 0.0159 0.0019 0.0043 0.0097
C15 0.038 0.036 0.031 0.0121 0.002 0.011
C16 0.03 0.044 0.031 0.017 -0.0001 0.013
C17 0.024 0.031 0.022 0.0022 0.0005 0.0093
C18 0.049 0.045 0.028 0.01 0.015 0.03
C19 0.037 0.036 0.026 0.0063 0.0119 0.021
C20 0.026 0.032 0.033 0.0024 0.0064 0.0098
C21 0.044 0.051 0.039 -0.005 0.02 -0.008
B2 0.024 0.03 0.016 0.0007 0.0027 0.0088
C22 0.045 0.053 0.038 0.016 0.018 0.032
C23 0.034 0.029 0.061 0.008 0.022 0.01
N13 0.024 0.029 0.0209 0.0025 0.0026 0.0123
C25 0.031 0.039 0.054 0.007 0.02 0.011
C24 0.031 0.043 0.02 -0.0051 0.0036 0.005
C26 0.051 0.044 0.033 -0.008 0.01 -0.009
loop_
_geom_bond_atom_site_label_1
_geom_bond_atom_site_label_2
_geom_bond_site_symmetry_1
_geom_bond_site_symmetry_2
H10 C11 1_555 1_555
N8 C11 1_555 1_555
H12 C13 1_555 1_555
Cd8 N8 1_555 1_555
C13 N8 1_555 1_555
N2 C2 1_555 1_555
N3 C4 1_555 1_555
N4 C7 1_555 1_555
H1 C1 1_555 1_555
C2 C1 1_555 1_555
H2 C2 1_555 1_555
H3 C3 1_555 1_555
C4 H4 1_555 1_555
C5 N3 1_555 1_555
H5 C5 1_555 1_555
C6 H6 1_555 1_555
C7 H7 1_555 1_555
B1 N2 1_555 1_555
C9 C4 1_555 1_555
H8 C9 1_555 1_555
C10 H9 1_555 1_555
N5 C6 1_555 1_555
C12 C10 1_555 1_555
H11 C12 1_555 1_555
N6 C5 1_555 1_555
N7 C6 1_555 1_555
Cd5 N7 1_555 1_555
Cd8 N6 1_555 1_555
N2 C3 1_555 1_555
N3 B1 1_555 1_555
N4 B1 1_555 1_555
B1 N5 1_555 1_555
C9 N6 1_555 1_555
C10 N5 1_555 1_555
C12 N7 1_555 1_555
Cd5 O1 1_555 1_555
N1 Cd5 1_555 1_555
O4 Cd5 1_555 1_555
C14 O4 1_555 1_555
N18 Cd5 1_555 1_555
N22 Cd5 1_555 1_555
O2 C8 1_555 1_555
Cd8 O2 1_555 1_555
N9 Cd8 1_555 1_555
N20 Cd8 1_555 1_555
O3 Cd8 1_555 1_555
N10 C16 1_555 1_555
N11 C18 1_555 1_555
N12 C21 1_555 1_555
H13 C15 1_555 1_555
C16 C15 1_555 1_555
H14 C16 1_555 1_555
H15 C17 1_555 1_555
C18 H16 1_555 1_555
C19 N11 1_555 1_555
H17 C19 1_555 1_555
C20 H18 1_555 1_555
C21 H19 1_555 1_555
B2 N10 1_555 1_555
C22 C18 1_555 1_555
H20 C22 1_555 1_555
C23 H21 1_555 1_555
N13 C20 1_555 1_555
C25 C23 1_555 1_555
H23 C25 1_555 1_555
N18 C19 1_555 1_555
N20 C20 1_555 1_555
N10 C17 1_555 1_555
N11 B2 1_555 1_555
N12 B2 1_555 1_555
B2 N13 1_555 1_555
C22 N18 1_555 1_555
C23 N13 1_555 1_555
C25 N20 1_555 1_555
H22 C24 1_555 1_555
N22 C24 1_555 1_555
H24 C26 1_555 1_555
C26 N22 1_555 1_555

#END
