
###############################################################################
#
# This file contains modified crystal structure data generated from the
# MOF subset of the Cambridge Structural Database (CSD) v543 
# hosted by the Cambridge Crystallographic Data Centre (CCDC).
#
# This work is licensed under the Creative Commons
# Attribution-NonCommercial-ShareAlike 4.0 International License.
# To view a copy of this license, visit
# http://creativecommons.org/licenses/by-nc-sa/4.0/
# or send a letter to
# Creative Commons, PO Box 1866, Mountain View, CA 94042, USA.
#
# CIF created using the CSD Python API on 29 September 2022
# The structure has been converted into the P1 space group
# The structure has a 3D framework
# The original CSD entry CUGFUH is in the triclinic crystal system
# The framework has been calculated to contain at least 10.0% void space
# The void calculation uses a probe of radius 1.32A, grid spacing 0.4
#
###############################################################################

data_CUGFUH
_chemical_formula_moiety         '(C26 H24 B2 Mn2 N16 O4)n'
_symmetry_cell_setting           triclinic
_symmetry_space_group_name_H-M   'P 1'
_symmetry_Int_Tables_number      1
_space_group_name_Hall           'P 1'
loop_
_symmetry_equiv_pos_site_id
_symmetry_equiv_pos_as_xyz
1 x,y,z
_cell_length_a                   8.9970(5)
_cell_length_b                   10.5163(5)
_cell_length_c                   10.6860(7)
_cell_angle_alpha                98.008(5)
_cell_angle_beta                 97.436(5)
_cell_angle_gamma                111.110(5)
_cell_volume                     916.188
loop_
_atom_site_label
_atom_site_type_symbol
_atom_site_fract_x
_atom_site_fract_y
_atom_site_fract_z
_atom_site_U_iso_or_equiv
_atom_site_thermal_displace_type
N5 N 0.0071(2) 0.0680(2) 0.27652(18) 0.0152 Uani
C7 C 0.2355(3) 0.0765(3) 0.2167(2) 0.0214 Uani
H6 H 0.3366 0.1094 0.1934 0.0260 Uiso
C10 C 0.1484(3) 0.1549(3) 0.2465(2) 0.0221 Uani
H9 H 0.1785 0.2493 0.2466 0.0260 Uiso
C12 C 0.0569(3) 0.3143(3) 0.4994(2) 0.0240 Uani
H11 H 0.1509 0.3430 0.4652 0.0290 Uiso
C13 C 0.0368(3) 0.3712(3) 0.6150(2) 0.0245 Uani
H12 H 0.1160 0.4462 0.6736 0.0290 Uiso
C5 C 0.0154(3) 0.9407(2) 0.2620(2) 0.0165 Uani
N6 N 0.1508(2) 0.9410(2) 0.22621(18) 0.0169 Uani
Mn5 Mn 0.20171(4) 0.74605(3) 0.18588(3) 0.0137 Uani
N1 N 0.4613(2) 0.8212(2) 0.27313(18) 0.0162 Uani
N3 N 0.7175(2) 0.9740(2) 0.31517(18) 0.0149 Uani
C1 C 0.5691(3) 0.9264(2) 0.2383(2) 0.0153 Uani
H1 H 0.5455 0.9639 0.1681 0.0180 Uiso
C3 C 0.7015(3) 0.8902(3) 0.4059(2) 0.0190 Uani
H2 H 0.7829 0.8963 0.4725 0.0230 Uiso
H4 H 0.9347 0.8618 0.2757 0.0200 Uiso
C6 C 0.5449(3) 0.7974(3) 0.3794(2) 0.0190 Uani
H5 H 0.5009 0.7286 0.4255 0.0230 Uiso
O4 O 0.18134(19) 0.53323(17) 0.10528(15) 0.0175 Uani
C14 C 0.0675(3) 0.4703(2) 0.0105(2) 0.0147 Uani
N20 N 0.1191(2) 0.6995(2) 0.36763(18) 0.0178 Uani
O3 O 0.05043(19) 0.36390(17) 0.93079(16) 0.0184 Uani
N22 N 0.2625(2) 0.7997(2) 0.99575(19) 0.0184 Uani
N10 N 0.1888(2) 0.82655(19) 0.79707(18) 0.0146 Uani
N12 N 0.0892(2) 0.7945(2) 0.55820(18) 0.0160 Uani
C17 C 0.1833(3) 0.8564(2) 0.9233(2) 0.0168 Uani
H15 H 0.1298 0.9108 0.9556 0.0200 Uiso
C21 C 0.2802(3) 0.7455(2) 0.7896(2) 0.0181 Uani
H19 H 0.3066 0.7088 0.7154 0.0220 Uiso
C22 C 0.3242(3) 0.7297(3) 0.9110(2) 0.0190 Uani
H20 H 0.3863 0.6793 0.9337 0.0230 Uiso
C24 C 0.1885(3) 0.7964(2) 0.4736(2) 0.0184 Uani
H22 H 0.2955 0.8598 0.4884 0.0220 Uiso
B2 B 0.1360(3) 0.8946(3) 0.6901(2) 0.0138 Uani
N2 N 0.8112(2) 0.17345(19) 0.20293(18) 0.0146 Uani
N4 N 0.9108(2) 0.2055(2) 0.44180(18) 0.0160 Uani
C4 C 0.8167(3) 0.1436(2) 0.0767(2) 0.0168 Uani
H3 H 0.8702 0.0892 0.0444 0.0200 Uiso
C8 C 0.7198(3) 0.2545(2) 0.2104(2) 0.0181 Uani
H7 H 0.6934 0.2912 0.2846 0.0220 Uiso
C9 C 0.6758(3) 0.2703(3) 0.0890(2) 0.0190 Uani
H8 H 0.6137 0.3207 0.0663 0.0230 Uiso
C11 C 0.8115(3) 0.2036(2) 0.5264(2) 0.0184 Uani
H10 H 0.7045 0.1402 0.5116 0.0220 Uiso
B1 B 0.8640(3) 0.1054(3) 0.3099(2) 0.0138 Uani
N7 N 0.8809(2) 0.3005(2) 0.63237(18) 0.0178 Uani
N8 N 0.7375(2) 0.2003(2) 0.00425(19) 0.0184 Uani
Mn8 Mn 0.79829(4) 0.25395(3) 0.81412(3) 0.0137 Uani
O1 O 0.94957(19) 0.63610(17) 0.06921(16) 0.0184 Uani
O2 O 0.81866(19) 0.46677(17) 0.89472(15) 0.0175 Uani
C2 C 0.9325(3) 0.5297(2) 0.9895(2) 0.0147 Uani
N9 N 0.5387(2) 0.1788(2) 0.72687(18) 0.0162 Uani
N11 N 0.2825(2) 0.0260(2) 0.68483(18) 0.0149 Uani
C15 C 0.4309(3) 0.0736(2) 0.7617(2) 0.0153 Uani
H13 H 0.4545 0.0361 0.8319 0.0180 Uiso
C16 C 0.2985(3) 0.1098(3) 0.5941(2) 0.0190 Uani
H14 H 0.2171 0.1037 0.5275 0.0230 Uiso
H16 H 0.0653 0.1382 0.7243 0.0200 Uiso
C19 C 0.4551(3) 0.2026(3) 0.6206(2) 0.0190 Uani
H17 H 0.4991 0.2714 0.5745 0.0230 Uiso
N18 N 0.8492(2) 0.0590(2) 0.77379(18) 0.0169 Uani
C18 C 0.9846(3) 0.0593(2) 0.7380(2) 0.0165 Uani
N13 N 0.9929(2) 0.9320(2) 0.72348(18) 0.0152 Uani
C20 C 0.7645(3) 0.9235(3) 0.7833(2) 0.0214 Uani
H18 H 0.6634 0.8906 0.8066 0.0260 Uiso
C23 C 0.8516(3) 0.8451(3) 0.7535(2) 0.0221 Uani
H21 H 0.8215 0.7507 0.7534 0.0260 Uiso
C25 C 0.9431(3) 0.6857(3) 0.5006(2) 0.0240 Uani
H23 H 0.8491 0.6570 0.5348 0.0290 Uiso
C26 C 0.9632(3) 0.6288(3) 0.3850(2) 0.0245 Uani
H24 H 0.8840 0.5538 0.3264 0.0290 Uiso
loop_
_atom_site_aniso_label
_atom_site_aniso_U_11
_atom_site_aniso_U_22
_atom_site_aniso_U_33
_atom_site_aniso_U_23
_atom_site_aniso_U_13
_atom_site_aniso_U_12
N5 0.0138 0.019 0.0121 -0.0004 0.0016 0.007
C7 0.0161 0.0223 0.0232 -0.001 0.0062 0.0055
C10 0.0201 0.0183 0.0275 0.0025 0.0079 0.0067
C12 0.0205 0.0245 0.0204 -0.0012 0.0067 0.002
C13 0.0253 0.0211 0.0179 -0.0034 0.0039 0.0011
C5 0.0149 0.0186 0.0152 0.001 0.0017 0.0069
N6 0.0154 0.0203 0.0146 -0.0009 0.0022 0.0081
Mn5 0.01276 0.0171 0.0099 -0.00172 0.00096 0.00615
N1 0.0138 0.0204 0.0137 0.0004 0.001 0.0073
N3 0.0144 0.0192 0.0117 0.0002 0.0018 0.0086
C1 0.0148 0.0204 0.0106 0.0001 0.0011 0.0083
C3 0.0181 0.0253 0.0154 0.0048 0.0011 0.0108
C6 0.0185 0.0235 0.017 0.0058 0.0041 0.0097
O4 0.016 0.0195 0.0148 -0.0027 -0.0016 0.008
C14 0.0134 0.0188 0.0115 0.0001 0.0023 0.0067
N20 0.0195 0.0206 0.0119 0 0.0027 0.0074
O3 0.0162 0.0206 0.0165 -0.0041 0.0005 0.0087
N22 0.0188 0.0239 0.0144 0.0032 0.0039 0.0105
N10 0.0139 0.0177 0.012 -0.0003 0.0028 0.0068
N12 0.017 0.0194 0.0108 -0.0005 0.0022 0.0077
C17 0.018 0.0207 0.0123 0.0001 0.0035 0.0091
C21 0.0184 0.0209 0.0181 0.0018 0.0061 0.0111
C22 0.0202 0.0258 0.0169 0.0051 0.0065 0.0143
C24 0.0164 0.0242 0.013 -0.0004 0.0025 0.0076
B2 0.012 0.0181 0.0104 -0.0022 0.0007 0.007
N2 0.0139 0.0177 0.012 -0.0003 0.0028 0.0068
N4 0.017 0.0194 0.0108 -0.0005 0.0022 0.0077
C4 0.018 0.0207 0.0123 0.0001 0.0035 0.0091
C8 0.0184 0.0209 0.0181 0.0018 0.0061 0.0111
C9 0.0202 0.0258 0.0169 0.0051 0.0065 0.0143
C11 0.0164 0.0242 0.013 -0.0004 0.0025 0.0076
B1 0.012 0.0181 0.0104 -0.0022 0.0007 0.007
N7 0.0195 0.0206 0.0119 0 0.0027 0.0074
N8 0.0188 0.0239 0.0144 0.0032 0.0039 0.0105
Mn8 0.01276 0.0171 0.0099 -0.00172 0.00096 0.00615
O1 0.0162 0.0206 0.0165 -0.0041 0.0005 0.0087
O2 0.016 0.0195 0.0148 -0.0027 -0.0016 0.008
C2 0.0134 0.0188 0.0115 0.0001 0.0023 0.0067
N9 0.0138 0.0204 0.0137 0.0004 0.001 0.0073
N11 0.0144 0.0192 0.0117 0.0002 0.0018 0.0086
C15 0.0148 0.0204 0.0106 0.0001 0.0011 0.0083
C16 0.0181 0.0253 0.0154 0.0048 0.0011 0.0108
C19 0.0185 0.0235 0.017 0.0058 0.0041 0.0097
N18 0.0154 0.0203 0.0146 -0.0009 0.0022 0.0081
C18 0.0149 0.0186 0.0152 0.001 0.0017 0.0069
N13 0.0138 0.019 0.0121 -0.0004 0.0016 0.007
C20 0.0161 0.0223 0.0232 -0.001 0.0062 0.0055
C23 0.0201 0.0183 0.0275 0.0025 0.0079 0.0067
C25 0.0205 0.0245 0.0204 -0.0012 0.0067 0.002
C26 0.0253 0.0211 0.0179 -0.0034 0.0039 0.0011
loop_
_geom_bond_atom_site_label_1
_geom_bond_atom_site_label_2
_geom_bond_site_symmetry_1
_geom_bond_site_symmetry_2
C7 H6 1_555 1_555
C10 N5 1_555 1_555
H9 C10 1_555 1_555
H11 C12 1_555 1_555
C13 C12 1_555 1_555
H12 C13 1_555 1_555
C7 C10 1_555 1_555
N6 C5 1_555 1_555
Mn5 N6 1_555 1_555
N1 Mn5 1_555 1_555
N3 C1 1_555 1_555
C1 N1 1_555 1_555
H1 C1 1_555 1_555
C3 N3 1_555 1_555
H2 C3 1_555 1_555
C6 N1 1_555 1_555
H5 C6 1_555 1_555
O4 Mn5 1_555 1_555
C14 O4 1_555 1_555
N20 Mn5 1_555 1_555
C3 C6 1_555 1_555
N10 C17 1_555 1_555
N12 C24 1_555 1_555
C17 H15 1_555 1_555
C21 N10 1_555 1_555
H19 C21 1_555 1_555
C22 C21 1_555 1_555
H20 C22 1_555 1_555
C24 H22 1_555 1_555
B2 N10 1_555 1_555
N20 C24 1_555 1_555
N22 C17 1_555 1_555
N12 B2 1_555 1_555
C22 N22 1_555 1_555
N2 C4 1_555 1_555
N4 C11 1_555 1_555
C4 H3 1_555 1_555
C8 N2 1_555 1_555
H7 C8 1_555 1_555
C9 C8 1_555 1_555
H8 C9 1_555 1_555
C11 H10 1_555 1_555
B1 N2 1_555 1_555
N7 C11 1_555 1_555
N8 C4 1_555 1_555
Mn8 N7 1_555 1_555
N4 B1 1_555 1_555
C9 N8 1_555 1_555
O2 C2 1_555 1_555
Mn8 O2 1_555 1_555
N9 Mn8 1_555 1_555
N11 C15 1_555 1_555
C15 N9 1_555 1_555
H13 C15 1_555 1_555
C16 N11 1_555 1_555
H14 C16 1_555 1_555
C19 N9 1_555 1_555
H17 C19 1_555 1_555
N18 Mn8 1_555 1_555
C16 C19 1_555 1_555
N18 C18 1_555 1_555
C20 H18 1_555 1_555
C23 N13 1_555 1_555
H21 C23 1_555 1_555
H23 C25 1_555 1_555
C26 C25 1_555 1_555
H24 C26 1_555 1_555
C20 C23 1_555 1_555

#END
