
###############################################################################
#
# This file contains modified crystal structure data generated from the
# MOF subset of the Cambridge Structural Database (CSD) v543 
# hosted by the Cambridge Crystallographic Data Centre (CCDC).
#
# This work is licensed under the Creative Commons
# Attribution-NonCommercial-ShareAlike 4.0 International License.
# To view a copy of this license, visit
# http://creativecommons.org/licenses/by-nc-sa/4.0/
# or send a letter to
# Creative Commons, PO Box 1866, Mountain View, CA 94042, USA.
#
# CIF created using the CSD Python API on 29 September 2022
# The structure has been converted into the P1 space group
# The structure has a 3D framework
# The original CSD entry CUGFAN is in the triclinic crystal system
# The framework has been calculated to contain at least 10.0% void space
# The void calculation uses a probe of radius 1.32A, grid spacing 0.4
#
###############################################################################

data_CUGFAN
_chemical_formula_moiety         '(C26 H24 B2 N16 O4 Zn2)n'
_symmetry_cell_setting           triclinic
_symmetry_space_group_name_H-M   'P 1'
_symmetry_Int_Tables_number      1
_space_group_name_Hall           'P 1'
loop_
_symmetry_equiv_pos_site_id
_symmetry_equiv_pos_as_xyz
1 x,y,z
_cell_length_a                   8.8017(4)
_cell_length_b                   10.6674(8)
_cell_length_c                   10.9422(8)
_cell_angle_alpha                103.157(6)
_cell_angle_beta                 108.193(6)
_cell_angle_gamma                97.410(5)
_cell_volume                     927.912
loop_
_atom_site_label
_atom_site_type_symbol
_atom_site_fract_x
_atom_site_fract_y
_atom_site_fract_z
_atom_site_U_iso_or_equiv
_atom_site_thermal_displace_type
O2 O 0.1986(3) 0.0945(3) 0.5545(3) 0.0294 Uani
C1 C 0.0726(5) 0.0105(4) 0.4742(4) 0.0238 Uani
Zn7 Zn 0.20118(5) 0.16328(4) 0.75445(4) 0.0229 Uani
O1 O 0.0531(3) 0.9431(3) 0.3596(3) 0.0313 Uani
N13 N 0.0021(4) 0.2816(3) 0.0615(3) 0.0238 Uani
C22 C 0.2396(6) 0.2348(6) 0.0672(5) 0.0438 Uani
H20 H 0.3466 0.2236 0.0986 0.0530 Uiso
C24 C 0.0247(8) 0.5139(5) 0.3149(5) 0.0618 Uani
H22 H 0.1099 0.4761 0.3541 0.0740 Uiso
C25 C 0.1525(6) 0.2759(6) 0.1444(5) 0.0480 Uani
H23 H 0.1882 0.2967 0.2375 0.0570 Uiso
C26 C 0.0056(7) 0.6362(5) 0.3639(5) 0.0543 Uani
H24 H 0.0762 0.6970 0.4434 0.0650 Uiso
C20 C 0.0051(5) 0.2404(4) 0.9369(4) 0.0315 Uani
N15 N 0.1462(4) 0.2124(3) 0.9360(3) 0.0297 Uani
N2 N 0.1046(4) 0.5451(3) 0.8034(3) 0.0257 Uani
N4 N 0.1915(4) 0.7854(3) 0.8277(3) 0.0231 Uani
C3 C 0.2814(6) 0.7716(4) 0.7455(4) 0.0333 Uani
H2 H 0.3150 0.6957 0.7130 0.0400 Uiso
C4 C 0.1746(5) 0.9113(4) 0.8493(4) 0.0281 Uani
H3 H 0.1191 0.9479 0.9034 0.0340 Uiso
C5 C 0.3126(6) 0.8889(4) 0.7201(5) 0.0353 Uani
H4 H 0.3711 0.9068 0.6662 0.0420 Uiso
C6 C 0.1928(5) 0.4529(4) 0.8179(5) 0.0340 Uani
H5 H 0.2886 0.4658 0.8907 0.0410 Uiso
B1 B 0.1443(5) 0.6857(4) 0.8982(4) 0.0222 Uani
N6 N 0.1321(4) 0.3427(3) 0.7203(4) 0.0315 Uani
N8 N 0.2444(4) 0.9770(3) 0.7861(3) 0.0281 Uani
N9 N 0.4524(4) 0.2496(3) 0.8314(3) 0.0273 Uani
N11 N 0.7089(4) 0.3033(3) 0.9742(3) 0.0228 Uani
C15 C 0.5592(5) 0.2265(4) 0.9348(4) 0.0250 Uani
H13 H 0.5333 0.1637 0.9759 0.0300 Uiso
H18 H 0.9170 0.2326 0.8596 0.0370 Uiso
C21 C 0.5391(5) 0.3473(4) 0.8006(5) 0.0348 Uani
H19 H 0.4969 0.3845 0.7316 0.0420 Uiso
C23 C 0.6954(5) 0.3801(4) 0.8870(4) 0.0349 Uani
H21 H 0.7792 0.4433 0.8877 0.0420 Uiso
O3 O 0.9469(3) 0.0569(3) 0.6404(3) 0.0313 Uani
N20 N 0.7556(4) 0.0230(3) 0.2139(3) 0.0281 Uani
Zn1 Zn 0.79882(5) 0.83672(4) 0.24555(4) 0.0229 Uani
N1 N 0.5476(4) 0.7504(3) 0.1686(3) 0.0273 Uani
N3 N 0.2911(4) 0.6967(3) 0.0258(3) 0.0228 Uani
C2 C 0.4408(5) 0.7735(4) 0.0652(4) 0.0250 Uani
H1 H 0.4667 0.8363 0.0241 0.0300 Uiso
H6 H 0.0830 0.7674 0.1404 0.0370 Uiso
C8 C 0.4609(5) 0.6527(4) 0.1994(5) 0.0348 Uani
H7 H 0.5031 0.6155 0.2684 0.0420 Uiso
C10 C 0.3046(5) 0.6199(4) 0.1130(4) 0.0349 Uani
H9 H 0.2208 0.5567 0.1123 0.0420 Uiso
O4 O 0.8014(3) 0.9055(3) 0.4455(3) 0.0294 Uani
C14 C 0.9274(5) 0.9895(4) 0.5258(4) 0.0238 Uani
N10 N 0.8954(4) 0.4549(3) 0.1966(3) 0.0257 Uani
N12 N 0.8085(4) 0.2146(3) 0.1723(3) 0.0231 Uani
C16 C 0.7186(6) 0.2284(4) 0.2545(4) 0.0333 Uani
H14 H 0.6850 0.3043 0.2870 0.0400 Uiso
C17 C 0.8254(5) 0.0887(4) 0.1507(4) 0.0281 Uani
H15 H 0.8809 0.0521 0.0966 0.0340 Uiso
C18 C 0.6874(6) 0.1111(4) 0.2799(5) 0.0353 Uani
H16 H 0.6289 0.0932 0.3338 0.0420 Uiso
C19 C 0.8072(5) 0.5471(4) 0.1821(5) 0.0340 Uani
H17 H 0.7114 0.5342 0.1093 0.0410 Uiso
B2 B 0.8557(5) 0.3143(4) 0.1018(4) 0.0222 Uani
N14 N 0.8679(4) 0.6573(3) 0.2797(4) 0.0315 Uani
N17 N 0.8538(4) 0.7876(3) 0.0640(3) 0.0297 Uani
C7 C 0.9949(5) 0.7596(4) 0.0631(4) 0.0315 Uani
N5 N 0.9979(4) 0.7184(3) 0.9385(3) 0.0238 Uani
C9 C 0.7604(6) 0.7652(6) 0.9328(5) 0.0438 Uani
H8 H 0.6534 0.7764 0.9014 0.0530 Uiso
C11 C 0.9753(8) 0.4861(5) 0.6851(5) 0.0618 Uani
H10 H 0.8901 0.5239 0.6459 0.0740 Uiso
C12 C 0.8475(6) 0.7241(6) 0.8556(5) 0.0480 Uani
H11 H 0.8118 0.7033 0.7625 0.0570 Uiso
C13 C 0.9944(7) 0.3638(5) 0.6361(5) 0.0543 Uani
H12 H 0.9238 0.3030 0.5566 0.0650 Uiso
loop_
_atom_site_aniso_label
_atom_site_aniso_U_11
_atom_site_aniso_U_22
_atom_site_aniso_U_33
_atom_site_aniso_U_23
_atom_site_aniso_U_13
_atom_site_aniso_U_12
O2 0.0267 0.028 0.0254 0.0013 0.007 -0.005
C1 0.027 0.0201 0.023 0.0071 0.0069 0.0037
Zn7 0.0224 0.019 0.0226 0.00268 0.00492 0.0023
O1 0.029 0.0314 0.0264 -0.002 0.0099 0.0003
N13 0.0222 0.0203 0.0266 0.0064 0.0067 0.0025
C22 0.027 0.072 0.032 0.013 0.0077 0.019
C24 0.071 0.034 0.043 -0.004 -0.025 0.024
C25 0.029 0.088 0.025 0.012 0.0064 0.021
C26 0.065 0.034 0.035 -0.004 -0.013 0.014
C20 0.025 0.038 0.025 0.0022 0.0056 0.0053
N15 0.0306 0.0286 0.0289 0.0031 0.0116 0.009
N2 0.0274 0.0226 0.0234 0.0054 0.0051 0.0047
N4 0.0236 0.0209 0.0252 0.0066 0.0083 0.0072
C3 0.042 0.031 0.038 0.0134 0.023 0.0172
C4 0.033 0.024 0.03 0.0066 0.0148 0.0077
C5 0.04 0.037 0.044 0.019 0.027 0.0157
C6 0.03 0.022 0.039 0.0034 0.0002 0.0078
B1 0.023 0.018 0.024 0.0046 0.008 0.0022
N6 0.0318 0.0226 0.0311 0.0015 0.003 0.007
N8 0.032 0.0252 0.0322 0.0116 0.016 0.0055
N9 0.0205 0.0283 0.0295 0.0073 0.0057 0.0025
N11 0.0215 0.0238 0.0221 0.0072 0.0069 0.0027
C15 0.0242 0.022 0.027 0.0075 0.0074 0.0019
C21 0.03 0.038 0.037 0.02 0.0077 0.0032
C23 0.026 0.037 0.038 0.0185 0.005 -0.0042
O3 0.029 0.0314 0.0264 -0.002 0.0099 0.0003
N20 0.032 0.0252 0.0322 0.0116 0.016 0.0055
Zn1 0.0224 0.019 0.0226 0.00268 0.00492 0.0023
N1 0.0205 0.0283 0.0295 0.0073 0.0057 0.0025
N3 0.0215 0.0238 0.0221 0.0072 0.0069 0.0027
C2 0.0242 0.022 0.027 0.0075 0.0074 0.0019
C8 0.03 0.038 0.037 0.02 0.0077 0.0032
C10 0.026 0.037 0.038 0.0185 0.005 -0.0042
O4 0.0267 0.028 0.0254 0.0013 0.007 -0.005
C14 0.027 0.0201 0.023 0.0071 0.0069 0.0037
N10 0.0274 0.0226 0.0234 0.0054 0.0051 0.0047
N12 0.0236 0.0209 0.0252 0.0066 0.0083 0.0072
C16 0.042 0.031 0.038 0.0134 0.023 0.0172
C17 0.033 0.024 0.03 0.0066 0.0148 0.0077
C18 0.04 0.037 0.044 0.019 0.027 0.0157
C19 0.03 0.022 0.039 0.0034 0.0002 0.0078
B2 0.023 0.018 0.024 0.0046 0.008 0.0022
N14 0.0318 0.0226 0.0311 0.0015 0.003 0.007
N17 0.0306 0.0286 0.0289 0.0031 0.0116 0.009
C7 0.025 0.038 0.025 0.0022 0.0056 0.0053
N5 0.0222 0.0203 0.0266 0.0064 0.0067 0.0025
C9 0.027 0.072 0.032 0.013 0.0077 0.019
C11 0.071 0.034 0.043 -0.004 -0.025 0.024
C12 0.029 0.088 0.025 0.012 0.0064 0.021
C13 0.065 0.034 0.035 -0.004 -0.013 0.014
loop_
_geom_bond_atom_site_label_1
_geom_bond_atom_site_label_2
_geom_bond_site_symmetry_1
_geom_bond_site_symmetry_2
O2 C1 1_555 1_555
Zn7 O2 1_555 1_555
C22 H20 1_555 1_555
H22 C24 1_555 1_555
C25 N13 1_555 1_555
H23 C25 1_555 1_555
C26 C24 1_555 1_555
H24 C26 1_555 1_555
C22 C25 1_555 1_555
N15 C20 1_555 1_555
Zn7 N15 1_555 1_555
N2 C6 1_555 1_555
N4 C3 1_555 1_555
C3 H2 1_555 1_555
C4 N4 1_555 1_555
H3 C4 1_555 1_555
C5 C3 1_555 1_555
H4 C5 1_555 1_555
C6 H5 1_555 1_555
B1 N2 1_555 1_555
N6 C6 1_555 1_555
N8 C4 1_555 1_555
Zn7 N6 1_555 1_555
N9 Zn7 1_555 1_555
N11 C15 1_555 1_555
C15 N9 1_555 1_555
H13 C15 1_555 1_555
C21 N9 1_555 1_555
H19 C21 1_555 1_555
C23 N11 1_555 1_555
H21 C23 1_555 1_555
N4 B1 1_555 1_555
C5 N8 1_555 1_555
C21 C23 1_555 1_555
N1 Zn1 1_555 1_555
N3 C2 1_555 1_555
C2 N1 1_555 1_555
H1 C2 1_555 1_555
C8 N1 1_555 1_555
H7 C8 1_555 1_555
C10 N3 1_555 1_555
H9 C10 1_555 1_555
O4 Zn1 1_555 1_555
C14 O4 1_555 1_555
N10 C19 1_555 1_555
N12 C16 1_555 1_555
C16 H14 1_555 1_555
C17 N12 1_555 1_555
H15 C17 1_555 1_555
C18 C16 1_555 1_555
H16 C18 1_555 1_555
C19 H17 1_555 1_555
B2 N10 1_555 1_555
N14 Zn1 1_555 1_555
N20 C17 1_555 1_555
N17 Zn1 1_555 1_555
C8 C10 1_555 1_555
N12 B2 1_555 1_555
C18 N20 1_555 1_555
C19 N14 1_555 1_555
N17 C7 1_555 1_555
C9 H8 1_555 1_555
H10 C11 1_555 1_555
C12 N5 1_555 1_555
H11 C12 1_555 1_555
C13 C11 1_555 1_555
H12 C13 1_555 1_555
C9 C12 1_555 1_555

#END
