
###############################################################################
#
# This file contains modified crystal structure data generated from the
# MOF subset of the Cambridge Structural Database (CSD) v543 
# hosted by the Cambridge Crystallographic Data Centre (CCDC).
#
# This work is licensed under the Creative Commons
# Attribution-NonCommercial-ShareAlike 4.0 International License.
# To view a copy of this license, visit
# http://creativecommons.org/licenses/by-nc-sa/4.0/
# or send a letter to
# Creative Commons, PO Box 1866, Mountain View, CA 94042, USA.
#
# CIF created using the CSD Python API on 29 September 2022
# The structure has been converted into the P1 space group
# The structure has a 3D framework
# The original CSD entry CUGFIV is in the triclinic crystal system
# The framework has been calculated to contain at least 10.0% void space
# The void calculation uses a probe of radius 1.32A, grid spacing 0.4
#
###############################################################################

data_CUGFIV
_chemical_formula_moiety         '(C26 H24 B2 Cu2 N16 O3)n'
_symmetry_cell_setting           triclinic
_symmetry_space_group_name_H-M   'P 1'
_symmetry_Int_Tables_number      1
_space_group_name_Hall           'P 1'
loop_
_symmetry_equiv_pos_site_id
_symmetry_equiv_pos_as_xyz
1 x,y,z
_cell_length_a                   8.7768(10)
_cell_length_b                   10.3933(9)
_cell_length_c                   11.0723(12)
_cell_angle_alpha                100.215(8)
_cell_angle_beta                 109.697(10)
_cell_angle_gamma                98.323(8)
_cell_volume                     912.76
loop_
_atom_site_label
_atom_site_type_symbol
_atom_site_fract_x
_atom_site_fract_y
_atom_site_fract_z
_atom_site_U_iso_or_equiv
_atom_site_thermal_displace_type
O2 O 0.4606(4) 0.0641(3) 0.6408(3) 0.0300 Uani
O3 O 0.6916(4) 0.1023(3) 0.5335(3) 0.0347 Uani
C14 C 0.5665(5) 0.0121(4) 0.4699(4) 0.0238 Uani
Cu7 Cu 0.70014(6) 0.16562(4) 0.75003(5) 0.0230 Uani
N18 N 0.2549(4) 0.0120(3) 0.2207(3) 0.0228 Uani
Cu1 Cu 0.29986(6) 0.83438(4) 0.24997(5) 0.0230 Uani
O1 O 0.3084(4) 0.8977(3) 0.4665(3) 0.0347 Uani
N1 N 0.0567(4) 0.7466(3) 0.1664(3) 0.0235 Uani
C3 C 0.4335(5) 0.9879(4) 0.5301(4) 0.0238 Uani
H5 H 0.0063 0.6103 0.2698 0.0340 Uiso
O4 O 0.5394(4) 0.9359(3) 0.3592(3) 0.0300 Uani
C15 C 0.5092(7) 0.5090(5) 0.3211(5) 0.0550 Uani
H13 H 0.5884 0.4664 0.3664 0.0660 Uiso
C16 C 0.2106(5) 0.2170(4) 0.2545(4) 0.0278 Uani
H14 H 0.1740 0.2916 0.2840 0.0330 Uiso
N11 N 0.4983(4) 0.2860(3) 0.0717(3) 0.0225 Uani
N12 N 0.3874(4) 0.4557(3) 0.1981(3) 0.0234 Uani
N13 N 0.3021(4) 0.2103(3) 0.1763(3) 0.0200 Uani
C18 C 0.1827(6) 0.0964(4) 0.2813(5) 0.0315 Uani
H16 H 0.1235 0.0741 0.3331 0.0380 Uiso
C20 C 0.3244(5) 0.0833(4) 0.1589(4) 0.0237 Uani
H18 H 0.3826 0.0501 0.1086 0.0290 Uiso
C21 C 0.3048(5) 0.5520(4) 0.1753(4) 0.0266 Uani
H19 H 0.2133 0.5427 0.0985 0.0320 Uiso
C24 C 0.4935(6) 0.6335(5) 0.3642(5) 0.0464 Uani
H22 H 0.5606 0.6917 0.4451 0.0560 Uiso
C25 C 0.7370(6) 0.2367(6) 0.0859(5) 0.0446 Uani
H23 H 0.8456 0.2265 0.1207 0.0540 Uiso
C26 C 0.6526(6) 0.2836(6) 0.1577(5) 0.0461 Uani
H24 H 0.6913 0.3099 0.2494 0.0550 Uiso
B2 B 0.3499(6) 0.3148(4) 0.1057(5) 0.0204 Uani
N14 N 0.3642(4) 0.6611(3) 0.2711(3) 0.0246 Uani
N19 N 0.3583(5) 0.7941(4) 0.0450(4) 0.0355 Uani
N10 N 0.2019(4) 0.3055(3) 0.9782(3) 0.0201 Uani
C17 C 0.0493(5) 0.2287(4) 0.9393(4) 0.0226 Uani
H15 H 0.0213 0.1650 0.9820 0.0270 Uiso
C19 C 0.0343(5) 0.3515(4) 0.8011(4) 0.0283 Uani
C22 C 0.1917(5) 0.3830(4) 0.8887(4) 0.0307 Uani
H20 H 0.2783 0.4462 0.8887 0.0370 Uiso
C23 C 0.5016(6) 0.2364(5) 0.9523(5) 0.0334 Uani
H21 H 0.4113 0.2247 0.8741 0.0400 Uiso
N16 N 0.6417(5) 0.2059(4) 0.9550(4) 0.0355 Uani
N2 N 0.7981(4) 0.6945(3) 0.0218(3) 0.0201 Uani
C4 C 0.9507(5) 0.7713(4) 0.0607(4) 0.0226 Uani
H3 H 0.9787 0.8350 0.0180 0.0270 Uiso
C6 C 0.9657(5) 0.6485(4) 0.1989(4) 0.0283 Uani
C9 C 0.8083(5) 0.6170(4) 0.1113(4) 0.0307 Uani
H8 H 0.7217 0.5538 0.1113 0.0370 Uiso
C10 C 0.4984(6) 0.7636(5) 0.0477(5) 0.0334 Uani
H9 H 0.5887 0.7753 0.1259 0.0400 Uiso
C1 C 0.4908(7) 0.4910(5) 0.6789(5) 0.0550 Uani
H1 H 0.4116 0.5336 0.6336 0.0660 Uiso
C2 C 0.7894(5) 0.7830(4) 0.7455(4) 0.0278 Uani
H2 H 0.8260 0.7084 0.7160 0.0330 Uiso
N3 N 0.5017(4) 0.7140(3) 0.9283(3) 0.0225 Uani
N4 N 0.6126(4) 0.5443(3) 0.8019(3) 0.0234 Uani
N5 N 0.6979(4) 0.7897(3) 0.8237(3) 0.0200 Uani
C5 C 0.8173(6) 0.9036(4) 0.7187(5) 0.0315 Uani
H4 H 0.8765 0.9259 0.6669 0.0380 Uiso
C7 C 0.6756(5) 0.9167(4) 0.8411(4) 0.0237 Uani
H6 H 0.6174 0.9499 0.8914 0.0290 Uiso
C8 C 0.6952(5) 0.4480(4) 0.8247(4) 0.0266 Uani
H7 H 0.7867 0.4573 0.9015 0.0320 Uiso
C11 C 0.5065(6) 0.3665(5) 0.6358(5) 0.0464 Uani
H10 H 0.4394 0.3083 0.5549 0.0560 Uiso
C12 C 0.2630(6) 0.7633(6) 0.9141(5) 0.0446 Uani
H11 H 0.1544 0.7735 0.8793 0.0540 Uiso
C13 C 0.3474(6) 0.7164(6) 0.8423(5) 0.0461 Uani
H12 H 0.3087 0.6901 0.7506 0.0550 Uiso
B1 B 0.6501(6) 0.6852(4) 0.8943(5) 0.0204 Uani
N6 N 0.6358(4) 0.3389(3) 0.7289(3) 0.0246 Uani
N7 N 0.7451(4) 0.9880(3) 0.7793(3) 0.0228 Uani
N9 N 0.9433(4) 0.2534(3) 0.8336(3) 0.0235 Uani
H17 H 0.9937 0.3897 0.7302 0.0340 Uiso
loop_
_atom_site_aniso_label
_atom_site_aniso_U_11
_atom_site_aniso_U_22
_atom_site_aniso_U_33
_atom_site_aniso_U_23
_atom_site_aniso_U_13
_atom_site_aniso_U_12
O2 0.0282 0.0269 0.0282 -0.0014 0.0072 0.0037
O3 0.0301 0.0324 0.0302 -0.0003 0.0071 -0.0079
C14 0.023 0.0177 0.024 0.0055 0.0011 0.0023
Cu7 0.0217 0.0145 0.0262 0.0025 0.0023 0.0028
N18 0.0235 0.0177 0.028 0.0049 0.0111 0.0044
Cu1 0.0217 0.0145 0.0262 0.0025 0.0023 0.0028
O1 0.0301 0.0324 0.0302 -0.0003 0.0071 -0.0079
N1 0.0223 0.0189 0.027 0.0062 0.0065 0.0037
C3 0.023 0.0177 0.024 0.0055 0.0011 0.0023
O4 0.0282 0.0269 0.0282 -0.0014 0.0072 0.0037
C15 0.063 0.034 0.038 -0.004 -0.018 0.025
C16 0.033 0.024 0.033 0.0075 0.017 0.0142
N11 0.0188 0.021 0.027 0.007 0.0073 0.0034
N12 0.0243 0.0165 0.0243 0.0029 0.004 0.004
N13 0.0205 0.0148 0.0241 0.003 0.0081 0.0044
C18 0.035 0.029 0.041 0.013 0.022 0.014
C20 0.027 0.017 0.025 0 0.0096 0.0054
C21 0.025 0.017 0.031 0.0039 0.0017 0.0075
C24 0.053 0.028 0.031 -0.005 -0.014 0.014
C25 0.022 0.062 0.052 0.014 0.012 0.02
C26 0.024 0.079 0.032 0.008 0.008 0.014
B2 0.021 0.017 0.023 0.0055 0.008 0.0032
N14 0.027 0.0158 0.0249 0.0004 0.0039 0.0059
N19 0.034 0.034 0.042 0.0064 0.0175 0.0139
N10 0.0188 0.0182 0.0233 0.0051 0.0077 0.0045
C17 0.023 0.018 0.024 0.0034 0.0073 0.0018
C19 0.028 0.031 0.027 0.014 0.0078 0.0071
C22 0.025 0.032 0.036 0.016 0.012 -0.0018
C23 0.034 0.038 0.027 0.003 0.01 0.014
N16 0.034 0.034 0.042 0.0064 0.0175 0.0139
N2 0.0188 0.0182 0.0233 0.0051 0.0077 0.0045
C4 0.023 0.018 0.024 0.0034 0.0073 0.0018
C6 0.028 0.031 0.027 0.014 0.0078 0.0071
C9 0.025 0.032 0.036 0.016 0.012 -0.0018
C10 0.034 0.038 0.027 0.003 0.01 0.014
C1 0.063 0.034 0.038 -0.004 -0.018 0.025
C2 0.033 0.024 0.033 0.0075 0.017 0.0142
N3 0.0188 0.021 0.027 0.007 0.0073 0.0034
N4 0.0243 0.0165 0.0243 0.0029 0.004 0.004
N5 0.0205 0.0148 0.0241 0.003 0.0081 0.0044
C5 0.035 0.029 0.041 0.013 0.022 0.014
C7 0.027 0.017 0.025 0 0.0096 0.0054
C8 0.025 0.017 0.031 0.0039 0.0017 0.0075
C11 0.053 0.028 0.031 -0.005 -0.014 0.014
C12 0.022 0.062 0.052 0.014 0.012 0.02
C13 0.024 0.079 0.032 0.008 0.008 0.014
B1 0.021 0.017 0.023 0.0055 0.008 0.0032
N6 0.027 0.0158 0.0249 0.0004 0.0039 0.0059
N7 0.0235 0.0177 0.028 0.0049 0.0111 0.0044
N9 0.0223 0.0189 0.027 0.0062 0.0065 0.0037
loop_
_geom_bond_atom_site_label_1
_geom_bond_atom_site_label_2
_geom_bond_site_symmetry_1
_geom_bond_site_symmetry_2
O3 C14 1_555 1_555
Cu7 O2 1_555 1_555
O3 Cu7 1_555 1_555
Cu1 O1 1_555 1_555
O1 C3 1_555 1_555
N1 Cu1 1_555 1_555
O4 Cu1 1_555 1_555
C15 H13 1_555 1_555
C16 H14 1_555 1_555
N12 C15 1_555 1_555
N13 C16 1_555 1_555
C18 C16 1_555 1_555
H16 C18 1_555 1_555
C20 N13 1_555 1_555
H18 C20 1_555 1_555
C21 N12 1_555 1_555
H19 C21 1_555 1_555
C24 C15 1_555 1_555
H22 C24 1_555 1_555
C25 H23 1_555 1_555
C26 N11 1_555 1_555
H24 C26 1_555 1_555
N14 Cu1 1_555 1_555
N18 C18 1_555 1_555
N19 Cu1 1_555 1_555
N11 B2 1_555 1_555
N12 B2 1_555 1_555
N13 B2 1_555 1_555
C20 N18 1_555 1_555
C21 N14 1_555 1_555
C24 N14 1_555 1_555
C25 C26 1_555 1_555
N10 C17 1_555 1_555
H15 C17 1_555 1_555
C22 N10 1_555 1_555
H20 C22 1_555 1_555
C23 H21 1_555 1_555
N16 C23 1_555 1_555
Cu7 N16 1_555 1_555
C19 C22 1_555 1_555
N2 C4 1_555 1_555
H3 C4 1_555 1_555
C9 N2 1_555 1_555
H8 C9 1_555 1_555
C10 H9 1_555 1_555
N19 C10 1_555 1_555
C6 C9 1_555 1_555
C1 H1 1_555 1_555
C2 H2 1_555 1_555
N4 C1 1_555 1_555
N5 C2 1_555 1_555
C5 C2 1_555 1_555
H4 C5 1_555 1_555
C7 N5 1_555 1_555
H6 C7 1_555 1_555
C8 N4 1_555 1_555
H7 C8 1_555 1_555
C11 C1 1_555 1_555
H10 C11 1_555 1_555
C12 H11 1_555 1_555
C13 N3 1_555 1_555
H12 C13 1_555 1_555
N6 C8 1_555 1_555
N7 C5 1_555 1_555
Cu7 N6 1_555 1_555
N9 Cu7 1_555 1_555
N3 B1 1_555 1_555
N4 B1 1_555 1_555
N5 B1 1_555 1_555
C7 N7 1_555 1_555
C11 N6 1_555 1_555
C12 C13 1_555 1_555

#END
