
###############################################################################
#
# This file contains modified crystal structure data generated from the
# MOF subset of the Cambridge Structural Database (CSD) v543 
# hosted by the Cambridge Crystallographic Data Centre (CCDC).
#
# This work is licensed under the Creative Commons
# Attribution-NonCommercial-ShareAlike 4.0 International License.
# To view a copy of this license, visit
# http://creativecommons.org/licenses/by-nc-sa/4.0/
# or send a letter to
# Creative Commons, PO Box 1866, Mountain View, CA 94042, USA.
#
# CIF created using the CSD Python API on 29 September 2022
# The structure has been converted into the P1 space group
# The structure has a 3D framework
# The original CSD entry CUGQEC is in the triclinic crystal system
# The framework has been calculated to contain at least 10.0% void space
# The void calculation uses a probe of radius 1.32A, grid spacing 0.4
# H atom positions have been added when not included in the experimental data
# Generated hydrogen atom positions removed from atoms on special positions
#
###############################################################################

data_CUGQEC
_chemical_formula_moiety         '(C36 H48 Cr3 Cu4 Mo6 N8 O33)n'
_symmetry_cell_setting           triclinic
_symmetry_space_group_name_H-M   'P 1'
_symmetry_Int_Tables_number      1
_space_group_name_Hall           'P 1'
loop_
_symmetry_equiv_pos_site_id
_symmetry_equiv_pos_as_xyz
1 x,y,z
_cell_length_a                   10.8767(19)
_cell_length_b                   12.698(2)
_cell_length_c                   14.373(3)
_cell_angle_alpha                113.644(3)
_cell_angle_beta                 92.071(4)
_cell_angle_gamma                114.579(3)
_cell_volume                     1603.85
loop_
_atom_site_label
_atom_site_type_symbol
_atom_site_fract_x
_atom_site_fract_y
_atom_site_fract_z
C19 C 0.0775(14) 0.1329(12) 0.0372(10)
H13 H 0.1300 0.2225 0.0626
Cr1 Cr 0.0000 0.5000 0.0000
Mo2 Mo 0.16637(12) 0.56885(12) 0.23395(9)
O12 O 0.0071(10) 0.4036(9) 0.0763(8)
O13 O 0.1748(12) 0.4573(11) 0.2672(8)
O14 O 0.2973(11) 0.5693(10) 0.1461(8)
O15 O 0.2606(12) 0.7195(11) 0.3410(9)
Mo10 Mo 0.34419(12) 0.68434(11) 0.08276(9)
O43 O 0.1354(10) 0.6549(9) 0.1244(8)
O27 O 0.4303(11) 0.8333(10) 0.1874(8)
O28 O 0.4675(11) 0.6476(11) 0.0316(8)
N5 N 0.3995(13) 0.3682(11) 0.7195(9)
O19 O 0.1510(11) 0.2800(10) 0.9173(8)
N6 N 0.1591(13) 0.0902(11) 0.8730(10)
C21 C 0.1862(13) 0.1990(13) 0.8611(11)
C22 C 0.0798(14) 0.0492(13) 0.9390(12)
C23 C 0.2610(13) 0.2164(13) 0.7814(10)
C24 C 0.4053(16) 0.2713(14) 0.6408(11)
H15 H 0.4580 0.2901 0.5947
C25 C 0.2681(16) 0.1172(14) 0.6972(11)
H16 H 0.2268 0.0327 0.6893
C26 C 0.3305(14) 0.3414(13) 0.7902(10)
H17 H 0.3294 0.4097 0.8474
C27 C 0.3388(17) 0.1466(15) 0.6241(12)
H18 H 0.3398 0.0807 0.5647
Cu5 Cu 0.49846(19) 0.55532(16) 0.74867(13)
H26 H 0.200111 0.0333973 0.830099
Cr1_2 Cr 0.0000 0.5000 1.0000
C4 C 0.0017(15) 0.9154(13) 0.9029(12)
H4 H 0.0030 0.8583 0.8379
O44 O 0.1648(11) 0.5042(10) 0.9472(8)
C20 C 0.9983(15) 0.0846(13) 0.0971(12)
H14 H 0.9970 0.1417 0.1621
Cr1_3 Cr 1.0000 0.5000 0.0000
Cu1 Cu 0.50154(19) 0.44468(16) 0.25133(13)
N1 N 0.6005(13) 0.6318(11) 0.2805(9)
Mo1 Mo 0.81948(12) 0.39163(11) 0.15377(9)
O1 O 0.7837(16) 0.6498(14) 0.5679(12)
O2 O 0.5064(13) 0.4854(11) 0.3959(9)
N2 N 0.4139(12) 0.2534(11) 0.2051(9)
Cu2 Cu 0.6068(3) 0.5028(3) 0.5060(2)
C2 C 0.3538(15) 0.0425(14) 0.0681(12)
O4 O 0.6363(17) 0.3673(15) 0.4732(12)
O5 O 0.3907(11) 0.4016(10) 0.1145(8)
O6 O 0.6960(11) 0.4298(10) 0.2054(8)
O7 O 0.8490(11) 0.7200(10) 0.0827(8)
N3 N 0.8409(13) 0.9098(11) 0.1270(10)
O8 O 0.9798(11) 0.5465(10) 0.2447(8)
C5 C 0.0696(14) 0.0281(13) 0.4273(11)
N4 N 0.1456(12) 0.0697(11) 0.3592(9)
C6 C 0.8138(13) 0.8010(13) 0.1389(11)
O11 O 0.8302(12) 0.2869(10) 0.1933(9)
C8 C 0.4199(16) 0.1759(14) 0.1109(11)
H6 H 0.4714 0.2144 0.0727
C10 C 0.9202(14) 0.9508(13) 0.0610(12)
C12 C 0.7390(13) 0.7836(13) 0.2186(10)
C13 C 0.5947(16) 0.7287(14) 0.3592(11)
H8 H 0.5420 0.7099 0.4053
C14 C 0.7319(16) 0.8828(14) 0.3028(11)
H9 H 0.7732 0.9673 0.3107
O17 O 0.7147(11) 0.2658(10) 0.0126(8)
C15 C 0.2618(14) 0.0620(13) 0.2170(11)
O18 O 0.8352(11) 0.4958(10) 0.0528(8)
C16 C 0.6695(14) 0.6586(13) 0.2098(10)
H10 H 0.6706 0.5903 0.1526
C17 C 0.6612(17) 0.8534(15) 0.3759(12)
H11 H 0.6602 0.9193 0.4353
C18 C 0.3363(14) 0.1950(12) 0.2572(10)
H12 H 0.3326 0.2468 0.3235
C33 C 0.0418(16) 0.1196(13) 0.5037(11)
H23 H 0.0724 0.2013 0.5067
O38 O 0.4936(13) 0.5146(11) 0.6041(9)
Cu7 Cu 0.3932(3) 0.4972(3) 0.4940(2)
H33 H 0.180609 0.164423 0.375887
H34 H 0.799889 0.966603 0.169901
C9 C 0.9582(16) 0.8804(13) 0.4963(11)
H7 H 0.9276 0.7987 0.4933
N7 N 0.5861(12) 0.7466(11) 0.7949(9)
C28 C 0.6462(15) 0.9575(14) 0.9319(12)
C30 C 0.9304(14) 0.9719(13) 0.5727(11)
N8 N 0.8544(12) 0.9303(11) 0.6408(9)
C32 C 0.5801(16) 0.8241(14) 0.8891(11)
H22 H 0.5286 0.7856 0.9273
C35 C 0.7382(14) 0.9380(13) 0.7830(11)
C36 C 0.6637(14) 0.8050(12) 0.7428(10)
H24 H 0.6674 0.7532 0.6765
Mo4 Mo 0.18052(12) 0.60837(11) 0.84623(9)
O21 O 0.2163(16) 0.3502(14) 0.4321(12)
O23 O 0.3637(17) 0.6327(15) 0.5268(12)
O24 O 0.6093(11) 0.5984(10) 0.8855(8)
O25 O 0.3040(11) 0.5702(10) 0.7946(8)
O26 O 0.0202(11) 0.4535(10) 0.7553(8)
O29 O 0.1698(12) 0.7131(10) 0.8067(9)
O35 O 0.2853(11) 0.7342(10) 0.9874(8)
H25 H 0.819391 0.835577 0.624113
Cr1_4 Cr 1.0000 0.5000 1.0000
C1 C 0.9225(14) 0.8671(12) 0.9628(10)
H1 H 0.8700 0.7775 0.9374
Mo3 Mo 0.65581(12) 0.31566(11) 0.91724(9)
O9 O 0.5697(11) 0.1667(10) 0.8126(8)
O10 O 0.5325(11) 0.3524(11) 0.9684(8)
O16 O 0.8646(10) 0.3451(9) 0.8756(8)
Mo8 Mo 0.83363(12) 0.43115(12) 0.76605(9)
O39 O 0.9929(10) 0.5964(9) 0.9237(8)
O41 O 0.7027(11) 0.4307(10) 0.8539(8)
O31 O 0.8252(12) 0.5427(11) 0.7328(8)
O33 O 0.7394(12) 0.2805(11) 0.6590(9)
O3 O 0.1354(12) 0.8811(9) 0.2457(9)
H2 H 0.3640 0.9923 0.0038
C3 C 0.0299(16) 0.9078(14) 0.4248(12)
H3 H 0.0512 0.8471 0.3761
C7 C 0.2738(15) 0.9855(13) 0.1207(11)
H5 H 0.2268 0.8952 0.0925
C11 C 0.1759(14) 0.9969(12) 0.2752(10)
O20 O 0.8646(12) 0.1189(9) 0.7543(9)
H19 H 0.6360 0.0077 0.9962
C29 C 0.9701(16) 0.0922(14) 0.5752(12)
H20 H 0.9488 0.1529 0.6239
C31 C 0.7262(15) 0.0145(13) 0.8793(11)
H21 H 0.7732 0.1048 0.9075
C34 C 0.8241(14) 0.0031(12) 0.7248(10)
loop_
_geom_bond_atom_site_label_1
_geom_bond_atom_site_label_2
_geom_bond_site_symmetry_1
_geom_bond_site_symmetry_2
C19 H13 1_555 1_555
Cr1 O12 1_555 1_555
O13 Mo2 1_555 1_555
O14 Mo2 1_555 1_555
O15 Mo2 1_555 1_555
Mo10 O14 1_555 1_555
O43 Cr1 1_555 1_555
Mo2 O12 1_555 1_555
Mo2 O43 1_555 1_555
Mo10 O43 1_555 1_555
Mo10 O27 1_555 1_555
O28 Mo10 1_555 1_555
N5 C24 1_555 1_555
O19 C21 1_555 1_555
N6 C21 1_555 1_555
C21 C23 1_555 1_555
C23 C25 1_555 1_555
C24 H15 1_555 1_555
C25 H16 1_555 1_555
C26 N5 1_555 1_555
H17 C26 1_555 1_555
C27 C24 1_555 1_555
H18 C27 1_555 1_555
Cu5 N5 1_555 1_555
N6 C22 1_555 1_555
C23 C26 1_555 1_555
C25 C27 1_555 1_555
N6 H26 1_555 1_555
H4 C4 1_555 1_555
O44 Cr1_2 1_555 1_555
H14 C20 1_555 1_555
Cu1 N1 1_555 1_555
N1 C13 1_555 1_555
Mo1 O6 1_555 1_555
O1 Cu2 1_555 1_555
O2 Cu1 1_555 1_555
N2 Cu1 1_555 1_555
Cu2 O2 1_555 1_555
O4 Cu2 1_555 1_555
O5 Cu1 1_555 1_555
O6 Cu1 1_555 1_555
O7 C6 1_555 1_555
N3 C6 1_555 1_555
O8 Mo1 1_555 1_555
N4 C5 1_555 1_555
C6 C12 1_555 1_555
O11 Mo1 1_555 1_555
C8 N2 1_555 1_555
H6 C8 1_555 1_555
C12 C14 1_555 1_555
C13 H8 1_555 1_555
C14 H9 1_555 1_555
O17 Mo1 1_555 1_555
O18 Cr1_3 1_555 1_555
C16 N1 1_555 1_555
H10 C16 1_555 1_555
C17 C13 1_555 1_555
H11 C17 1_555 1_555
C18 N2 1_555 1_555
H12 C18 1_555 1_555
C33 C5 1_555 1_555
H23 C33 1_555 1_555
O38 Cu2 1_555 1_555
Cu7 O2 1_555 1_555
Mo1 O18 1_555 1_555
Cu2 Cu7 1_555 1_555
C2 C8 1_555 1_555
N3 C10 1_555 1_555
C12 C16 1_555 1_555
C14 C17 1_555 1_555
C15 C18 1_555 1_555
O38 Cu7 1_555 1_555
N4 H33 1_555 1_555
N3 H34 1_555 1_555
H7 C9 1_555 1_555
N7 C32 1_555 1_555
C30 C9 1_555 1_555
N8 C30 1_555 1_555
C32 C28 1_555 1_555
H22 C32 1_555 1_555
C36 N7 1_555 1_555
H24 C36 1_555 1_555
Cu5 N7 1_555 1_555
Mo4 O25 1_555 1_555
O21 Cu7 1_555 1_555
O38 Cu5 1_555 1_555
O23 Cu7 1_555 1_555
O24 Cu5 1_555 1_555
O25 Cu5 1_555 1_555
O26 Mo4 1_555 1_555
O29 Mo4 1_555 1_555
O35 Mo4 1_555 1_555
O44 Mo4 1_555 1_555
C35 C36 1_555 1_555
N8 H25 1_555 1_555
C1 H1 1_555 1_555
Mo3 O9 1_555 1_555
O10 Mo3 1_555 1_555
O16 Cr1_4 1_555 1_555
Mo8 O16 1_555 1_555
O39 Cr1_4 1_555 1_555
O41 Mo3 1_555 1_555
Mo3 O16 1_555 1_555
Mo8 O39 1_555 1_555
Mo8 O41 1_555 1_555
O31 Mo8 1_555 1_555
O33 Mo8 1_555 1_555
O3 C11 1_555 1_555
C3 H3 1_555 1_555
H5 C7 1_555 1_555
O20 C34 1_555 1_555
C29 H20 1_555 1_555
H21 C31 1_555 1_555

#END
