
###############################################################################
#
# This file contains modified crystal structure data generated from the
# MOF subset of the Cambridge Structural Database (CSD) v543 
# hosted by the Cambridge Crystallographic Data Centre (CCDC).
#
# This work is licensed under the Creative Commons
# Attribution-NonCommercial-ShareAlike 4.0 International License.
# To view a copy of this license, visit
# http://creativecommons.org/licenses/by-nc-sa/4.0/
# or send a letter to
# Creative Commons, PO Box 1866, Mountain View, CA 94042, USA.
#
# CIF created using the CSD Python API on 29 September 2022
# The structure has been converted into the P1 space group
# The structure has a 3D framework
# The original CSD entry CUGVUW is in the rhombohedral crystal system
# The framework has been calculated to contain at least 10.0% void space
# The void calculation uses a probe of radius 1.32A, grid spacing 0.4
#
###############################################################################

data_CUGVUW
_chemical_formula_moiety         '(C198 H126 Cu6 N108)n'
_symmetry_cell_setting           triclinic
_symmetry_space_group_name_H-M   'P 1'
_symmetry_Int_Tables_number      1
_space_group_name_Hall           'P 1'
loop_
_symmetry_equiv_pos_site_id
_symmetry_equiv_pos_as_xyz
1 x,y,z
_cell_length_a                   27.226(6)
_cell_length_b                   27.226(6)
_cell_length_c                   8.981(6)
_cell_angle_alpha                90
_cell_angle_beta                 90
_cell_angle_gamma                120
_cell_volume                     5765.31
loop_
_atom_site_label
_atom_site_type_symbol
_atom_site_fract_x
_atom_site_fract_y
_atom_site_fract_z
Cu3 Cu 0.5000 -0.0000 0.5001
H12 H 0.6121 0.0032 0.5365
Cu3_2 Cu 0.5000 1.0000 0.5001
N9 N 0.84016(28) 0.8923(2) 0.1858(7)
N10 N 0.65820(17) 0.85865(12) 0.0283(4)
N12 N 0.61532(17) 0.86695(12) 0.0775(4)
N13 N 0.68637(18) 0.90169(13) 0.2493(4)
N15 N 0.54128(18) 0.95776(14) 0.4279(4)
C13 C 0.8424(4) 0.8699(3) 0.0587(8)
H9 H 0.8745 0.8673 0.0372
C14 C 0.79284(27) 0.89477(19) 0.2099(6)
H10 H 0.7891 0.9100 0.2992
C15 C 0.75031(23) 0.87601(16) 0.1094(5)
C16 C 0.69855(21) 0.87920(15) 0.1316(4)
C17 C 0.63467(21) 0.89251(15) 0.2088(4)
C18 C 0.60126(22) 0.91233(16) 0.2934(4)
C19 C 0.62604(24) 0.95280(18) 0.4028(5)
H11 H 0.6629 0.9650 0.4341
C20 C 0.59481(25) 0.97486(19) 0.4650(5)
C21 C 0.51676(24) 0.91621(18) 0.3279(5)
H13 H 0.4788 0.9026 0.3043
C22 C 0.54497(23) 0.89271(17) 0.2580(5)
H14 H 0.5265 0.8641 0.1880
Cu3_3 Cu 0.0000 0.5001 0.5001
N9_2 N 0.1077(2) 0.94790(34) 0.1858(7)
N10_2 N 0.14135(12) 0.79956(21) 0.0283(4)
N12_2 N 0.13305(12) 0.74838(21) 0.0775(4)
N13_2 N 0.09831(13) 0.78469(22) 0.2493(4)
N15_2 N 0.04224(14) 0.58353(23) 0.4279(4)
C13_2 C 0.1301(3) 0.9726(5) 0.0587(8)
C14_2 C 0.10523(19) 0.89808(33) 0.2099(6)
H10_2 H 0.0900 0.8792 0.2992
C15_2 C 0.12399(16) 0.87431(28) 0.1094(5)
C16_2 C 0.12080(15) 0.81936(26) 0.1316(4)
C17_2 C 0.10749(15) 0.74217(26) 0.2088(4)
C18_2 C 0.08767(16) 0.68894(27) 0.2934(4)
C19_2 C 0.04720(18) 0.67325(30) 0.4028(5)
H11_2 H 0.0350 0.6980 0.4341
C20_2 C 0.02514(19) 0.61996(31) 0.4650(5)
C21_2 C 0.08379(18) 0.60056(30) 0.3279(5)
H13_2 H 0.0974 0.5763 0.3043
C22_2 C 0.10729(17) 0.65227(29) 0.2580(5)
H14_2 H 0.1359 0.6625 0.1880
Cu3_4 Cu 1.0000 0.5001 0.5001
H12_2 H 0.9968 0.6090 0.5365
Cu3_5 Cu 0.4999 0.5000 0.5001
N9_3 N 0.05210(34) 0.15984(28) 0.1858(7)
N10_3 N 0.20044(21) 0.34180(17) 0.0283(4)
N12_3 N 0.25162(21) 0.38468(17) 0.0775(4)
N13_3 N 0.21531(22) 0.31363(18) 0.2493(4)
N15_3 N 0.41647(23) 0.45872(18) 0.4279(4)
C13_3 C 0.0274(5) 0.1576(4) 0.0587(8)
C14_3 C 0.10192(33) 0.20716(27) 0.2099(6)
H10_3 H 0.1208 0.2109 0.2992
C15_3 C 0.12569(28) 0.24969(23) 0.1094(5)
C16_3 C 0.18064(26) 0.30145(21) 0.1316(4)
C17_3 C 0.25783(26) 0.36533(21) 0.2088(4)
C18_3 C 0.31106(27) 0.39874(22) 0.2934(4)
C19_3 C 0.32675(30) 0.37396(24) 0.4028(5)
H11_3 H 0.3020 0.3371 0.4341
C20_3 C 0.38004(31) 0.40519(25) 0.4650(5)
H12_3 H 0.3910 0.3879 0.5365
C21_3 C 0.39944(30) 0.48324(24) 0.3279(5)
H13_3 H 0.4237 0.5212 0.3043
C22_3 C 0.34773(29) 0.45503(23) 0.2580(5)
H14_3 H 0.3375 0.4735 0.1880
N1 N 0.48029(15) 0.56671(14) 0.6467(5)
N2 N 0.4411(2) 0.61456(19) 0.8524(7)
N3 N 0.47469(12) 0.46622(12) 0.6949(4)
N4 N 0.46639(12) 0.41504(12) 0.7441(4)
N5 N 0.43165(13) 0.45135(13) 0.9159(4)
C1 C 0.4830(2) 0.6161(2) 0.6236(7)
H1 H 0.4987 0.6355 0.5352
C2 C 0.4635(3) 0.6392(2) 0.7253(8)
H2 H 0.4661 0.6739 0.7038
C3 C 0.43857(19) 0.56474(19) 0.8765(6)
H3 H 0.4234 0.5458 0.9658
C4 C 0.45733(16) 0.54097(16) 0.7760(5)
C5 C 0.45414(15) 0.48602(15) 0.7982(4)
C6 C 0.44083(15) 0.40883(15) 0.8754(4)
C7 C 0.42101(16) 0.35560(15) 0.9600(4)
C10 C 0.41713(18) 0.26722(16) 0.9945(5)
H6 H 0.4308 0.2429 0.9709
C11 C 0.44063(17) 0.31893(16) 0.9246(5)
H7 H 0.4693 0.3291 0.8546
N11 N 0.34180(17) 0.14135(12) 0.9717(4)
N3_2 N 0.53378(12) 0.00846(17) 0.6949(4)
N4_2 N 0.58496(12) 0.05134(17) 0.7441(4)
C6_2 C 0.59117(15) 0.03199(21) 0.8754(4)
C7_2 C 0.64440(15) 0.06540(22) 0.9600(4)
C10_2 C 0.73278(16) 0.14990(24) 0.9945(5)
H6_2 H 0.7571 0.1878 0.9709
C11_2 C 0.68107(16) 0.12169(23) 0.9246(5)
H7_2 H 0.6709 0.1401 0.8546
N11_2 N 0.85865(12) 0.20044(21) 0.9717(4)
N1_2 N 0.43329(14) 0.91357(21) 0.6467(5)
N2_2 N 0.38544(19) 0.82650(28) 0.8524(7)
N5_2 N 0.54865(13) 0.98029(18) 0.9159(4)
C1_2 C 0.3839(2) 0.8668(3) 0.6236(7)
H1_2 H 0.3645 0.8631 0.5352
C2_2 C 0.3608(2) 0.8242(4) 0.7253(8)
H2_2 H 0.3261 0.7921 0.7038
C3_2 C 0.43526(19) 0.87382(27) 0.8765(6)
H3_2 H 0.4542 0.8775 0.9658
C4_2 C 0.45903(16) 0.91635(23) 0.7760(5)
C5_2 C 0.51398(15) 0.96811(21) 0.7982(4)
N1_3 N 0.08643(21) 0.51971(15) 0.6467(5)
N2_3 N 0.17350(28) 0.5589(2) 0.8524(7)
N5_3 N 0.01971(18) 0.56835(13) 0.9159(4)
C1_3 C 0.1332(3) 0.5170(2) 0.6236(7)
H1_3 H 0.1369 0.5013 0.5352
C2_3 C 0.1758(4) 0.5365(3) 0.7253(8)
H2_3 H 0.2079 0.5339 0.7038
C3_3 C 0.12618(27) 0.56143(19) 0.8765(6)
H3_3 H 0.1225 0.5766 0.9658
C4_3 C 0.08365(23) 0.54267(16) 0.7760(5)
C5_3 C 0.03189(21) 0.54586(15) 0.7982(4)
N3_3 N 0.99154(17) 0.52531(12) 0.6949(4)
N4_3 N 0.94866(17) 0.53361(12) 0.7441(4)
C6_3 C 0.96801(21) 0.55917(15) 0.8754(4)
C7_3 C 0.93460(22) 0.57899(16) 0.9600(4)
C10_3 C 0.85010(24) 0.58287(18) 0.9945(5)
H6_3 H 0.8122 0.5692 0.9709
C11_3 C 0.87831(23) 0.55937(17) 0.9246(5)
H7_3 H 0.8599 0.5307 0.8546
N11_3 N 0.79956(21) 0.65820(17) 0.9717(4)
N11_4 N 0.00846(17) 0.47469(12) 0.3051(4)
N8 N 0.91357(21) 0.48029(15) 0.3533(5)
N14 N 0.95776(14) 0.41647(12) 0.5721(4)
N8_2 N 0.51971(15) 0.43329(26) 0.3533(5)
N11_5 N 0.52531(12) 0.53378(21) 0.3051(4)
N14_2 N 0.58353(12) 0.54128(18) 0.5721(4)
N8_3 N 0.56671(26) 0.08643(21) 0.3533(5)
N14_3 N 0.45872(18) 0.04224(14) 0.5721(4)
N11_6 N 0.46622(21) 0.99154(17) 0.3051(4)
N9_4 N 0.15984(28) 0.1077(2) 0.8142(7)
N12_4 N 0.38468(17) 0.13305(12) 0.9225(4)
N13_4 N 0.31363(18) 0.09831(13) 0.7507(4)
C13_4 C 0.1576(4) 0.1301(3) 0.9413(8)
H9_2 H 0.1255 0.1327 0.9628
C14_4 C 0.20716(27) 0.10523(19) 0.7901(6)
H10_4 H 0.2109 0.0900 0.7008
C15_4 C 0.24969(23) 0.12399(16) 0.8906(5)
C16_4 C 0.30145(21) 0.12080(15) 0.8684(4)
C17_4 C 0.36533(21) 0.10749(15) 0.7912(4)
C18_4 C 0.39874(22) 0.08767(16) 0.7066(4)
C19_4 C 0.37396(24) 0.04720(18) 0.5972(5)
H11_4 H 0.3371 0.0350 0.5659
C20_4 C 0.40519(25) 0.02514(19) 0.5350(5)
C21_4 C 0.48324(24) 0.08379(18) 0.6721(5)
H13_4 H 0.5212 0.0974 0.6957
C22_4 C 0.45503(23) 0.10729(17) 0.7420(5)
H14_4 H 0.4735 0.1359 0.8120
H12_4 H 0.3879 0.9968 0.4635
H12_5 H 0.0032 0.3910 0.4635
N9_5 N 0.8923(2) 0.05210(34) 0.8142(7)
N12_5 N 0.86695(12) 0.25162(21) 0.9225(4)
N13_5 N 0.90169(13) 0.21531(22) 0.7507(4)
C13_5 C 0.8699(3) 0.0274(5) 0.9413(8)
C14_5 C 0.89477(19) 0.10192(33) 0.7901(6)
H10_5 H 0.9100 0.1208 0.7008
C15_5 C 0.87601(16) 0.12569(28) 0.8906(5)
C16_5 C 0.87920(15) 0.18064(26) 0.8684(4)
C17_5 C 0.89251(15) 0.25783(26) 0.7912(4)
C18_5 C 0.91233(16) 0.31106(27) 0.7066(4)
C19_5 C 0.95280(18) 0.32675(30) 0.5972(5)
H11_5 H 0.9650 0.3020 0.5659
C20_5 C 0.97486(19) 0.38004(31) 0.5350(5)
C21_5 C 0.91621(18) 0.39944(30) 0.6721(5)
H13_5 H 0.9026 0.4237 0.6957
C22_5 C 0.89271(17) 0.34773(29) 0.7420(5)
H14_5 H 0.8641 0.3375 0.8120
N9_6 N 0.94790(34) 0.84016(28) 0.8142(7)
N12_6 N 0.74838(21) 0.61532(17) 0.9225(4)
N13_6 N 0.78469(22) 0.68637(18) 0.7507(4)
C13_6 C 0.9726(5) 0.8424(4) 0.9413(8)
C14_6 C 0.89808(33) 0.79284(27) 0.7901(6)
H10_6 H 0.8792 0.7891 0.7008
C15_6 C 0.87431(28) 0.75031(23) 0.8906(5)
C16_6 C 0.81936(26) 0.69855(21) 0.8684(4)
C17_6 C 0.74217(26) 0.63467(21) 0.7912(4)
C18_6 C 0.68894(27) 0.60126(22) 0.7066(4)
C19_6 C 0.67325(30) 0.62604(24) 0.5972(5)
H11_6 H 0.6980 0.6629 0.5659
C20_6 C 0.61996(31) 0.59481(25) 0.5350(5)
H12_6 H 0.6090 0.6121 0.4635
C21_6 C 0.60056(30) 0.51676(24) 0.6721(5)
H13_6 H 0.5763 0.4788 0.6957
C22_6 C 0.65227(29) 0.54497(23) 0.7420(5)
H14_6 H 0.6625 0.5265 0.8120
N2_4 N 0.5589(2) 0.38544(19) 0.1476(7)
N4_4 N 0.53361(12) 0.58496(12) 0.2559(4)
N5_4 N 0.56835(13) 0.54865(13) 0.0841(4)
C1_4 C 0.5170(2) 0.3839(2) 0.3764(7)
H1_4 H 0.5013 0.3645 0.4648
C2_4 C 0.5365(3) 0.3608(2) 0.2747(8)
H2_4 H 0.5339 0.3261 0.2962
C3_4 C 0.56143(19) 0.43526(19) 0.1235(6)
H3_4 H 0.5766 0.4542 0.0342
C4_4 C 0.54267(16) 0.45903(16) 0.2240(5)
C5_4 C 0.54586(15) 0.51398(15) 0.2018(4)
C6_4 C 0.55917(15) 0.59117(15) 0.1246(4)
C7_4 C 0.57899(16) 0.64440(15) 0.0400(4)
C10_4 C 0.58287(18) 0.73278(16) 0.0055(5)
H6_4 H 0.5692 0.7571 0.0291
C11_4 C 0.55937(17) 0.68107(16) 0.0754(5)
H7_4 H 0.5307 0.6709 0.1454
N2_5 N 0.61456(19) 0.17350(28) 0.1476(7)
N5_5 N 0.45135(13) 0.01971(18) 0.0841(4)
C1_5 C 0.6161(2) 0.1332(3) 0.3764(7)
H1_5 H 0.6355 0.1369 0.4648
C2_5 C 0.6392(2) 0.1758(4) 0.2747(8)
H2_5 H 0.6739 0.2079 0.2962
C3_5 C 0.56474(19) 0.12618(27) 0.1235(6)
H3_5 H 0.5458 0.1225 0.0342
C4_5 C 0.54097(16) 0.08365(23) 0.2240(5)
C5_5 C 0.48602(15) 0.03189(21) 0.2018(4)
N4_5 N 0.41504(12) 0.94866(17) 0.2559(4)
C6_5 C 0.40883(15) 0.96801(21) 0.1246(4)
C7_5 C 0.35560(15) 0.93460(22) 0.0400(4)
C10_5 C 0.26722(16) 0.85010(24) 0.0055(5)
H6_5 H 0.2429 0.8122 0.0291
C11_5 C 0.31893(16) 0.87831(23) 0.0754(5)
H7_5 H 0.3291 0.8599 0.1454
N4_6 N 0.05134(17) 0.46639(12) 0.2559(4)
C6_6 C 0.03199(21) 0.44083(15) 0.1246(4)
C7_6 C 0.06540(22) 0.42101(16) 0.0400(4)
C10_6 C 0.14990(24) 0.41713(18) 0.0055(5)
H6_6 H 0.1878 0.4308 0.0291
C11_6 C 0.12169(23) 0.44063(17) 0.0754(5)
H7_6 H 0.1401 0.4693 0.1454
N2_6 N 0.82650(28) 0.4411(2) 0.1476(7)
N5_6 N 0.98029(18) 0.43165(13) 0.0841(4)
C1_6 C 0.8668(3) 0.4830(2) 0.3764(7)
H1_6 H 0.8631 0.4987 0.4648
C2_6 C 0.8242(4) 0.4635(3) 0.2747(8)
H2_6 H 0.7921 0.4661 0.2962
C3_6 C 0.87382(27) 0.43857(19) 0.1235(6)
H3_6 H 0.8775 0.4234 0.0342
C4_6 C 0.91635(23) 0.45733(16) 0.2240(5)
C5_6 C 0.96811(21) 0.45414(15) 0.2018(4)
N1_4 N 0.81362(15) 0.23338(14) 0.3134(5)
N2_7 N 0.7744(2) 0.28123(19) 0.5191(7)
N3_4 N 0.80802(12) 0.13289(12) 0.3616(4)
N4_7 N 0.79972(12) 0.08171(12) 0.4108(4)
N5_7 N 0.76498(13) 0.11802(13) 0.5826(4)
C1_7 C 0.8163(2) 0.2828(2) 0.2903(7)
H1_7 H 0.8320 0.3022 0.2019
C2_7 C 0.7968(3) 0.3059(2) 0.3920(8)
H2_7 H 0.7994 0.3406 0.3705
C3_7 C 0.77190(19) 0.23141(19) 0.5432(6)
H3_7 H 0.7567 0.2125 0.6325
C4_7 C 0.79066(16) 0.20764(16) 0.4427(5)
C5_7 C 0.78747(15) 0.15269(15) 0.4649(4)
C6_7 C 0.77416(15) 0.07550(15) 0.5421(4)
C7_7 C 0.75434(16) 0.02227(15) 0.6267(4)
C8 C 0.71387(18) 0.00658(16) 0.7361(5)
H4 H 0.7017 0.0313 0.7674
Cu2 Cu 0.8333 0.1666 0.1667
N6 N 0.74981(12) 0.12538(18) 0.0945(4)
C8_2 C 0.66009(16) 0.04062(24) 0.0694(5)
H4_2 H 0.6354 0.0037 0.1007
C9 C 0.71338(17) 0.07185(25) 0.1316(5)
H5 H 0.7244 0.0545 0.2031
N8_4 N 0.85305(15) 0.09995(26) 0.0199(5)
N14_4 N 0.91686(12) 0.20795(18) 0.2388(4)
C9_2 C 0.95329(17) 0.26148(25) 0.2017(5)
H5_2 H 0.9423 0.2788 0.1302
C10_7 C 0.93389(16) 0.18343(24) 0.3388(5)
H6_7 H 0.9096 0.1455 0.3624
C11_7 C 0.98560(16) 0.21164(23) 0.4087(5)
H7_7 H 0.9958 0.1932 0.4787
C12 C 0.8504(2) 0.0505(4) 0.0430(7)
H8 H 0.8347 0.0311 0.1314
Cu1 Cu 0.6667 0.8334 0.8334
N6_2 N 0.70891(14) 0.91686(12) 0.7612(4)
C9_3 C 0.69181(19) 0.95329(17) 0.7983(5)
H5_3 H 0.6635 0.9423 0.8698
C10_8 C 0.75046(18) 0.93389(16) 0.6612(5)
H6_8 H 0.7641 0.9096 0.6376
C11_8 C 0.77396(17) 0.98560(16) 0.5913(5)
H7_8 H 0.8026 0.9958 0.5213
N7 N 0.75309(21) 0.85305(15) 0.9801(5)
N8_5 N 0.58024(21) 0.81362(15) 0.6866(5)
N11_7 N 0.67513(17) 0.80802(12) 0.6384(4)
N14_5 N 0.62442(14) 0.74981(12) 0.9055(4)
C12_2 C 0.7998(3) 0.8504(2) 0.9570(7)
H8_2 H 0.8035 0.8347 0.8686
N1_5 N 0.76662(14) 0.58024(21) 0.3134(5)
N2_8 N 0.71877(19) 0.49317(28) 0.5191(7)
N3_5 N 0.86711(12) 0.67513(17) 0.3616(4)
N4_8 N 0.91829(12) 0.71801(17) 0.4108(4)
N5_8 N 0.88198(13) 0.64696(18) 0.5826(4)
C1_8 C 0.7172(2) 0.5335(3) 0.2903(7)
H1_8 H 0.6978 0.5298 0.2019
C2_8 C 0.6941(2) 0.4909(4) 0.3920(8)
H2_8 H 0.6594 0.4588 0.3705
C3_8 C 0.76859(19) 0.54049(27) 0.5432(6)
H3_8 H 0.7875 0.5442 0.6325
C4_8 C 0.79236(16) 0.58302(23) 0.4427(5)
C5_8 C 0.84731(15) 0.63478(21) 0.4649(4)
C6_8 C 0.92450(15) 0.69866(21) 0.5421(4)
C7_8 C 0.97773(15) 0.73207(22) 0.6267(4)
C8_3 C 0.99342(16) 0.70729(24) 0.7361(5)
H4_3 H 0.9687 0.6704 0.7674
Cu2_2 Cu 0.8334 0.6666 0.1667
N6_3 N 0.87462(18) 0.62442(14) 0.0945(4)
C8_4 C 0.95938(24) 0.61946(18) 0.0694(5)
H4_4 H 0.9963 0.6316 0.1007
C9_4 C 0.92815(25) 0.64152(19) 0.1316(5)
H5_4 H 0.9455 0.6698 0.2031
N8_6 N 0.90005(26) 0.75309(21) 0.0199(5)
N14_6 N 0.79205(18) 0.70891(14) 0.2388(4)
N2_9 N 0.49317(28) 0.7744(2) 0.4809(7)
N4_9 N 0.71801(17) 0.79972(12) 0.5892(4)
N5_9 N 0.64696(18) 0.76498(13) 0.4174(4)
C1_9 C 0.5335(3) 0.8163(2) 0.7097(7)
H1_9 H 0.5298 0.8320 0.7981
C2_9 C 0.4909(4) 0.7968(3) 0.6080(8)
H2_9 H 0.4588 0.7994 0.6295
C3_9 C 0.54049(27) 0.77190(19) 0.4568(6)
H3_9 H 0.5442 0.7567 0.3675
C4_9 C 0.58302(23) 0.79066(16) 0.5573(5)
C5_9 C 0.63478(21) 0.78747(15) 0.5351(4)
C6_9 C 0.69866(21) 0.77416(15) 0.4579(4)
C7_9 C 0.73207(22) 0.75434(16) 0.3733(4)
C8_5 C 0.70729(24) 0.71387(18) 0.2639(5)
H4_5 H 0.6704 0.7017 0.2326
C9_5 C 0.73852(25) 0.69181(19) 0.2017(5)
H5_5 H 0.7212 0.6635 0.1302
C10_9 C 0.81657(24) 0.75046(18) 0.3388(5)
H6_9 H 0.8545 0.7641 0.3624
C11_9 C 0.78836(23) 0.77396(17) 0.4087(5)
H7_9 H 0.8068 0.8026 0.4787
C12_3 C 0.9495(4) 0.7998(3) 0.0430(7)
H8_3 H 0.9689 0.8035 0.1314
C8_6 C 0.61946(18) 0.66009(16) 0.9306(5)
H4_6 H 0.6316 0.6354 0.8993
C9_6 C 0.64152(19) 0.71338(17) 0.8684(5)
H5_6 H 0.6698 0.7244 0.7969
H9_3 H 0.1327 0.0073 0.0372
Cu1_2 Cu 0.1666 0.8333 0.8334
N6_4 N 0.08314(12) 0.79205(18) 0.7612(4)
C9_7 C 0.04671(17) 0.73852(25) 0.7983(5)
H5_7 H 0.0577 0.7212 0.8698
C10_10 C 0.06611(16) 0.81657(24) 0.6612(5)
H6_10 H 0.0904 0.8545 0.6376
C11_10 C 0.01440(16) 0.78836(23) 0.5913(5)
H7_10 H 0.0042 0.8068 0.5213
N7_2 N 0.14695(15) 0.90005(26) 0.9801(5)
N8_7 N 0.18638(15) 0.76662(26) 0.6866(5)
N11_8 N 0.19198(12) 0.86711(21) 0.6384(4)
N14_7 N 0.25019(12) 0.87462(18) 0.9055(4)
C12_4 C 0.1496(2) 0.9495(4) 0.9570(7)
H8_4 H 0.1653 0.9689 0.8686
N2_10 N 0.2256(2) 0.71877(19) 0.4809(7)
N4_10 N 0.20028(12) 0.91829(12) 0.5892(4)
N5_10 N 0.23502(13) 0.88198(13) 0.4174(4)
C1_10 C 0.1837(2) 0.7172(2) 0.7097(7)
H1_10 H 0.1680 0.6978 0.7981
C2_10 C 0.2032(3) 0.6941(2) 0.6080(8)
H2_10 H 0.2006 0.6594 0.6295
C3_10 C 0.22810(19) 0.76859(19) 0.4568(6)
H3_10 H 0.2433 0.7875 0.3675
C4_10 C 0.20934(16) 0.79236(16) 0.5573(5)
C5_10 C 0.21253(15) 0.84731(15) 0.5351(4)
C6_10 C 0.22584(15) 0.92450(15) 0.4579(4)
C7_10 C 0.24566(16) 0.97773(15) 0.3733(4)
C8_7 C 0.28613(18) 0.99342(16) 0.2639(5)
H4_7 H 0.2983 0.9687 0.2326
C8_8 C 0.33991(16) 0.95938(24) 0.9306(5)
H4_8 H 0.3646 0.9963 0.8993
C9_8 C 0.28662(17) 0.92815(25) 0.8684(5)
H5_8 H 0.2756 0.9455 0.7969
Cu1_3 Cu 0.1667 0.3333 0.8334
N1_6 N 0.41976(21) 0.18638(15) 0.3134(5)
N2_11 N 0.50683(28) 0.2256(2) 0.5191(7)
N3_6 N 0.32487(17) 0.19198(12) 0.3616(4)
N4_11 N 0.28199(17) 0.20028(12) 0.4108(4)
N5_11 N 0.35304(18) 0.23502(13) 0.5826(4)
N6_5 N 0.20795(18) 0.29109(14) 0.7612(4)
C1_11 C 0.4665(3) 0.1837(2) 0.2903(7)
H1_11 H 0.4702 0.1680 0.2019
C2_11 C 0.5091(4) 0.2032(3) 0.3920(8)
H2_11 H 0.5412 0.2006 0.3705
C3_11 C 0.45951(27) 0.22810(19) 0.5432(6)
H3_11 H 0.4558 0.2433 0.6325
C4_11 C 0.41698(23) 0.20934(16) 0.4427(5)
C5_11 C 0.36522(21) 0.21253(15) 0.4649(4)
C6_11 C 0.30134(21) 0.22584(15) 0.5421(4)
C7_11 C 0.26793(22) 0.24566(16) 0.6267(4)
C8_9 C 0.29271(24) 0.28613(18) 0.7361(5)
H4_9 H 0.3296 0.2983 0.7674
C9_9 C 0.26148(25) 0.30819(19) 0.7983(5)
H5_9 H 0.2788 0.3365 0.8698
C10_11 C 0.18343(24) 0.24954(18) 0.6612(5)
H6_11 H 0.1455 0.2359 0.6376
C11_11 C 0.21164(23) 0.22604(17) 0.5913(5)
H7_11 H 0.1932 0.1974 0.5213
Cu2_3 Cu 0.3334 0.1667 0.1667
N7_3 N 0.09995(26) 0.24691(21) 0.9801(5)
N8_8 N 0.23338(26) 0.41976(21) 0.6866(5)
N11_9 N 0.13289(21) 0.32487(17) 0.6384(4)
N14_8 N 0.12538(18) 0.37558(14) 0.9055(4)
C12_5 C 0.0505(4) 0.2002(3) 0.9570(7)
H8_5 H 0.0311 0.1965 0.8686
N6_6 N 0.37558(14) 0.25019(12) 0.0945(4)
C8_10 C 0.38054(18) 0.33991(16) 0.0694(5)
H4_10 H 0.3684 0.3646 0.1007
C9_10 C 0.35848(19) 0.28662(17) 0.1316(5)
H5_10 H 0.3302 0.2756 0.2031
N8_9 N 0.24691(21) 0.14695(15) 0.0199(5)
N14_9 N 0.29109(14) 0.08314(12) 0.2388(4)
C9_11 C 0.30819(19) 0.04671(17) 0.2017(5)
H5_11 H 0.3365 0.0577 0.1302
C10_12 C 0.24954(18) 0.06611(16) 0.3388(5)
H6_12 H 0.2359 0.0904 0.3624
C11_12 C 0.22604(17) 0.01440(16) 0.4087(5)
H7_12 H 0.1974 0.0042 0.4787
C12_6 C 0.2002(3) 0.1496(2) 0.0430(7)
H8_6 H 0.1965 0.1653 0.1314
N2_12 N 0.28123(19) 0.50683(28) 0.4809(7)
N4_12 N 0.08171(12) 0.28199(17) 0.5892(4)
N5_12 N 0.11802(13) 0.35304(18) 0.4174(4)
C1_12 C 0.2828(2) 0.4665(3) 0.7097(7)
H1_12 H 0.3022 0.4702 0.7981
C2_12 C 0.3059(2) 0.5091(4) 0.6080(8)
H2_12 H 0.3406 0.5412 0.6295
C3_12 C 0.23141(19) 0.45951(27) 0.4568(6)
H3_12 H 0.2125 0.4558 0.3675
C4_12 C 0.20764(16) 0.41698(23) 0.5573(5)
C5_12 C 0.15269(15) 0.36522(21) 0.5351(4)
C6_12 C 0.07550(15) 0.30134(21) 0.4579(4)
C7_12 C 0.02227(15) 0.26793(22) 0.3733(4)
C8_11 C 0.00658(16) 0.29271(24) 0.2639(5)
H4_11 H 0.0313 0.3296 0.2326
C8_12 C 0.04062(24) 0.38054(18) 0.9306(5)
H4_12 H 0.0037 0.3684 0.8993
C9_12 C 0.07185(25) 0.35848(19) 0.8684(5)
H5_12 H 0.0545 0.3302 0.7969
H9_4 H 0.9927 0.1255 0.0372
H9_5 H 0.8673 0.9927 0.9628
H9_6 H 0.0073 0.8745 0.9628
loop_
_geom_bond_atom_site_label_1
_geom_bond_atom_site_label_2
_geom_bond_site_symmetry_1
_geom_bond_site_symmetry_2
Cu3_2 N15 1_555 1_555
N9 C13 1_555 1_555
N12 N10 1_555 1_555
N13 C16 1_555 1_555
N15 C20 1_555 1_555
H9 C13 1_555 1_555
C14 N9 1_555 1_555
H10 C14 1_555 1_555
C16 N10 1_555 1_555
C17 N12 1_555 1_555
C18 C17 1_555 1_555
C19 C18 1_555 1_555
H11 C19 1_555 1_555
C20 C19 1_555 1_555
C21 N15 1_555 1_555
H13 C21 1_555 1_555
C22 C18 1_555 1_555
H14 C22 1_555 1_555
N13 C17 1_555 1_555
C14 C15 1_555 1_555
C15 C16 1_555 1_555
C21 C22 1_555 1_555
Cu3_3 N15_2 1_555 1_555
N9_2 C13_2 1_555 1_555
N12_2 N10_2 1_555 1_555
N13_2 C16_2 1_555 1_555
N15_2 C20_2 1_555 1_555
C14_2 N9_2 1_555 1_555
H10_2 C14_2 1_555 1_555
C16_2 N10_2 1_555 1_555
C17_2 N12_2 1_555 1_555
C18_2 C17_2 1_555 1_555
C19_2 C18_2 1_555 1_555
H11_2 C19_2 1_555 1_555
C20_2 C19_2 1_555 1_555
C21_2 N15_2 1_555 1_555
H13_2 C21_2 1_555 1_555
C22_2 C18_2 1_555 1_555
H14_2 C22_2 1_555 1_555
N13_2 C17_2 1_555 1_555
C14_2 C15_2 1_555 1_555
C15_2 C16_2 1_555 1_555
C21_2 C22_2 1_555 1_555
Cu3_5 N15_3 1_555 1_555
N9_3 C13_3 1_555 1_555
N12_3 N10_3 1_555 1_555
N13_3 C16_3 1_555 1_555
N15_3 C20_3 1_555 1_555
C14_3 N9_3 1_555 1_555
H10_3 C14_3 1_555 1_555
C16_3 N10_3 1_555 1_555
C17_3 N12_3 1_555 1_555
C18_3 C17_3 1_555 1_555
C19_3 C18_3 1_555 1_555
H11_3 C19_3 1_555 1_555
C20_3 C19_3 1_555 1_555
H12_3 C20_3 1_555 1_555
C21_3 N15_3 1_555 1_555
H13_3 C21_3 1_555 1_555
C22_3 C18_3 1_555 1_555
H14_3 C22_3 1_555 1_555
N13_3 C17_3 1_555 1_555
C14_3 C15_3 1_555 1_555
C15_3 C16_3 1_555 1_555
C21_3 C22_3 1_555 1_555
N1 C1 1_555 1_555
N2 C2 1_555 1_555
N3 N4 1_555 1_555
N4 C6 1_555 1_555
N5 C5 1_555 1_555
C1 H1 1_555 1_555
C2 C1 1_555 1_555
H2 C2 1_555 1_555
C3 N2 1_555 1_555
H3 C3 1_555 1_555
C4 N1 1_555 1_555
C5 N3 1_555 1_555
C6 N5 1_555 1_555
C7 C6 1_555 1_555
H6 C10 1_555 1_555
C11 C7 1_555 1_555
H7 C11 1_555 1_555
Cu3_5 N1 1_555 1_555
N3 Cu3_5 1_555 1_555
C3 C4 1_555 1_555
C4 C5 1_555 1_555
C10 C11 1_555 1_555
N3_2 N4_2 1_555 1_555
N4_2 C6_2 1_555 1_555
C7_2 C6_2 1_555 1_555
H6_2 C10_2 1_555 1_555
C11_2 C7_2 1_555 1_555
H7_2 C11_2 1_555 1_555
N3_2 Cu3 1_555 1_555
C10_2 C11_2 1_555 1_555
N1_2 C1_2 1_555 1_555
N2_2 C2_2 1_555 1_555
N5_2 C5_2 1_555 1_555
C1_2 H1_2 1_555 1_555
C2_2 C1_2 1_555 1_555
H2_2 C2_2 1_555 1_555
C3_2 N2_2 1_555 1_555
H3_2 C3_2 1_555 1_555
C4_2 N1_2 1_555 1_555
Cu3_2 N1_2 1_555 1_555
C3_2 C4_2 1_555 1_555
C4_2 C5_2 1_555 1_555
N1_3 C1_3 1_555 1_555
N2_3 C2_3 1_555 1_555
N5_3 C5_3 1_555 1_555
C1_3 H1_3 1_555 1_555
C2_3 C1_3 1_555 1_555
H2_3 C2_3 1_555 1_555
C3_3 N2_3 1_555 1_555
H3_3 C3_3 1_555 1_555
C4_3 N1_3 1_555 1_555
Cu3_3 N1_3 1_555 1_555
C3_3 C4_3 1_555 1_555
C4_3 C5_3 1_555 1_555
N3_3 N4_3 1_555 1_555
N4_3 C6_3 1_555 1_555
C7_3 C6_3 1_555 1_555
H6_3 C10_3 1_555 1_555
C11_3 C7_3 1_555 1_555
H7_3 C11_3 1_555 1_555
N3_3 Cu3_4 1_555 1_555
C10_3 C11_3 1_555 1_555
N11_4 Cu3_3 1_555 1_555
N8 Cu3_4 1_555 1_555
N14 Cu3_4 1_555 1_555
N8_2 Cu3_5 1_555 1_555
N11_5 Cu3_5 1_555 1_555
N14_2 Cu3_5 1_555 1_555
N8_3 Cu3 1_555 1_555
N14_3 Cu3 1_555 1_555
N11_6 Cu3_2 1_555 1_555
N9_4 C13_4 1_555 1_555
N12_4 N11 1_555 1_555
N13_4 C16_4 1_555 1_555
N14_3 C20_4 1_555 1_555
H9_2 C13_4 1_555 1_555
C14_4 N9_4 1_555 1_555
H10_4 C14_4 1_555 1_555
C16_4 N11 1_555 1_555
C17_4 N12_4 1_555 1_555
C18_4 C17_4 1_555 1_555
C19_4 C18_4 1_555 1_555
H11_4 C19_4 1_555 1_555
C20_4 C19_4 1_555 1_555
C21_4 N14_3 1_555 1_555
H13_4 C21_4 1_555 1_555
C22_4 C18_4 1_555 1_555
H14_4 C22_4 1_555 1_555
N13_4 C17_4 1_555 1_555
C14_4 C15_4 1_555 1_555
C15_4 C16_4 1_555 1_555
C21_4 C22_4 1_555 1_555
N9_5 C13_5 1_555 1_555
N12_5 N11_2 1_555 1_555
N13_5 C16_5 1_555 1_555
N14 C20_5 1_555 1_555
C14_5 N9_5 1_555 1_555
H10_5 C14_5 1_555 1_555
C16_5 N11_2 1_555 1_555
C17_5 N12_5 1_555 1_555
C18_5 C17_5 1_555 1_555
C19_5 C18_5 1_555 1_555
H11_5 C19_5 1_555 1_555
C20_5 C19_5 1_555 1_555
C21_5 N14 1_555 1_555
H13_5 C21_5 1_555 1_555
C22_5 C18_5 1_555 1_555
H14_5 C22_5 1_555 1_555
N13_5 C17_5 1_555 1_555
C14_5 C15_5 1_555 1_555
C15_5 C16_5 1_555 1_555
C21_5 C22_5 1_555 1_555
N9_6 C13_6 1_555 1_555
N12_6 N11_3 1_555 1_555
N13_6 C16_6 1_555 1_555
N14_2 C20_6 1_555 1_555
C14_6 N9_6 1_555 1_555
H10_6 C14_6 1_555 1_555
C16_6 N11_3 1_555 1_555
C17_6 N12_6 1_555 1_555
C18_6 C17_6 1_555 1_555
C19_6 C18_6 1_555 1_555
H11_6 C19_6 1_555 1_555
C20_6 C19_6 1_555 1_555
H12_6 C20_6 1_555 1_555
C21_6 N14_2 1_555 1_555
H13_6 C21_6 1_555 1_555
C22_6 C18_6 1_555 1_555
H14_6 C22_6 1_555 1_555
N13_6 C17_6 1_555 1_555
C14_6 C15_6 1_555 1_555
C15_6 C16_6 1_555 1_555
C21_6 C22_6 1_555 1_555
N8_2 C1_4 1_555 1_555
N2_4 C2_4 1_555 1_555
N11_5 N4_4 1_555 1_555
N4_4 C6_4 1_555 1_555
N5_4 C5_4 1_555 1_555
C1_4 H1_4 1_555 1_555
C2_4 C1_4 1_555 1_555
H2_4 C2_4 1_555 1_555
C3_4 N2_4 1_555 1_555
H3_4 C3_4 1_555 1_555
C4_4 N8_2 1_555 1_555
C5_4 N11_5 1_555 1_555
C6_4 N5_4 1_555 1_555
C7_4 C6_4 1_555 1_555
H6_4 C10_4 1_555 1_555
C11_4 C7_4 1_555 1_555
H7_4 C11_4 1_555 1_555
C3_4 C4_4 1_555 1_555
C4_4 C5_4 1_555 1_555
C10_4 C11_4 1_555 1_555
N8_3 C1_5 1_555 1_555
N2_5 C2_5 1_555 1_555
N5_5 C5_5 1_555 1_555
C1_5 H1_5 1_555 1_555
C2_5 C1_5 1_555 1_555
H2_5 C2_5 1_555 1_555
C3_5 N2_5 1_555 1_555
H3_5 C3_5 1_555 1_555
C4_5 N8_3 1_555 1_555
C3_5 C4_5 1_555 1_555
C4_5 C5_5 1_555 1_555
N11_6 N4_5 1_555 1_555
N4_5 C6_5 1_555 1_555
C7_5 C6_5 1_555 1_555
H6_5 C10_5 1_555 1_555
C11_5 C7_5 1_555 1_555
H7_5 C11_5 1_555 1_555
C10_5 C11_5 1_555 1_555
N11_4 N4_6 1_555 1_555
N4_6 C6_6 1_555 1_555
C7_6 C6_6 1_555 1_555
H6_6 C10_6 1_555 1_555
C11_6 C7_6 1_555 1_555
H7_6 C11_6 1_555 1_555
C10_6 C11_6 1_555 1_555
N8 C1_6 1_555 1_555
N2_6 C2_6 1_555 1_555
N5_6 C5_6 1_555 1_555
C1_6 H1_6 1_555 1_555
C2_6 C1_6 1_555 1_555
H2_6 C2_6 1_555 1_555
C3_6 N2_6 1_555 1_555
H3_6 C3_6 1_555 1_555
C4_6 N8 1_555 1_555
C3_6 C4_6 1_555 1_555
C4_6 C5_6 1_555 1_555
N1_4 C1_7 1_555 1_555
N2_7 C2_7 1_555 1_555
N3_4 N4_7 1_555 1_555
N4_7 C6_7 1_555 1_555
N5_7 C5_7 1_555 1_555
C1_7 H1_7 1_555 1_555
C2_7 C1_7 1_555 1_555
H2_7 C2_7 1_555 1_555
C3_7 N2_7 1_555 1_555
H3_7 C3_7 1_555 1_555
C4_7 N1_4 1_555 1_555
C5_7 N3_4 1_555 1_555
C6_7 N5_7 1_555 1_555
C7_7 C6_7 1_555 1_555
C8 C7_7 1_555 1_555
H4 C8 1_555 1_555
Cu2 N1_4 1_555 1_555
N3_4 Cu2 1_555 1_555
C3_7 C4_7 1_555 1_555
C4_7 C5_7 1_555 1_555
Cu2 N6 1_555 1_555
N6 C9 1_555 1_555
H4_2 C8_2 1_555 1_555
C9 C8_2 1_555 1_555
H5 C9 1_555 1_555
N8_4 Cu2 1_555 1_555
N14_4 Cu2 1_555 1_555
N14_4 C9_2 1_555 1_555
H5_2 C9_2 1_555 1_555
C10_7 N14_4 1_555 1_555
H6_7 C10_7 1_555 1_555
H7_7 C11_7 1_555 1_555
C12 N8_4 1_555 1_555
H8 C12 1_555 1_555
C10_7 C11_7 1_555 1_555
Cu1 N6_2 1_555 1_555
N6_2 C9_3 1_555 1_555
H5_3 C9_3 1_555 1_555
C10_8 N6_2 1_555 1_555
H6_8 C10_8 1_555 1_555
H7_8 C11_8 1_555 1_555
N7 Cu1 1_555 1_555
N8_5 Cu1 1_555 1_555
N11_7 Cu1 1_555 1_555
N14_5 Cu1 1_555 1_555
C12_2 N7 1_555 1_555
H8_2 C12_2 1_555 1_555
C10_8 C11_8 1_555 1_555
N1_5 C1_8 1_555 1_555
N2_8 C2_8 1_555 1_555
N3_5 N4_8 1_555 1_555
N4_8 C6_8 1_555 1_555
N5_8 C5_8 1_555 1_555
C1_8 H1_8 1_555 1_555
C2_8 C1_8 1_555 1_555
H2_8 C2_8 1_555 1_555
C3_8 N2_8 1_555 1_555
H3_8 C3_8 1_555 1_555
C4_8 N1_5 1_555 1_555
C5_8 N3_5 1_555 1_555
C6_8 N5_8 1_555 1_555
C7_8 C6_8 1_555 1_555
C8_3 C7_8 1_555 1_555
H4_3 C8_3 1_555 1_555
Cu2_2 N1_5 1_555 1_555
N3_5 Cu2_2 1_555 1_555
C3_8 C4_8 1_555 1_555
C4_8 C5_8 1_555 1_555
Cu2_2 N6_3 1_555 1_555
N6_3 C9_4 1_555 1_555
H4_4 C8_4 1_555 1_555
C9_4 C8_4 1_555 1_555
H5_4 C9_4 1_555 1_555
N8_6 Cu2_2 1_555 1_555
N14_6 Cu2_2 1_555 1_555
N8_5 C1_9 1_555 1_555
N2_9 C2_9 1_555 1_555
N11_7 N4_9 1_555 1_555
N4_9 C6_9 1_555 1_555
N5_9 C5_9 1_555 1_555
N14_6 C9_5 1_555 1_555
C1_9 H1_9 1_555 1_555
C2_9 C1_9 1_555 1_555
H2_9 C2_9 1_555 1_555
C3_9 N2_9 1_555 1_555
H3_9 C3_9 1_555 1_555
C4_9 N8_5 1_555 1_555
C5_9 N11_7 1_555 1_555
C6_9 N5_9 1_555 1_555
C7_9 C6_9 1_555 1_555
C8_5 C7_9 1_555 1_555
H4_5 C8_5 1_555 1_555
C9_5 C8_5 1_555 1_555
H5_5 C9_5 1_555 1_555
C10_9 N14_6 1_555 1_555
H6_9 C10_9 1_555 1_555
C11_9 C7_9 1_555 1_555
H7_9 C11_9 1_555 1_555
C12_3 N8_6 1_555 1_555
H8_3 C12_3 1_555 1_555
C3_9 C4_9 1_555 1_555
C4_9 C5_9 1_555 1_555
C10_9 C11_9 1_555 1_555
N14_5 C9_6 1_555 1_555
H4_6 C8_6 1_555 1_555
C9_6 C8_6 1_555 1_555
H5_6 C9_6 1_555 1_555
Cu1_2 N6_4 1_555 1_555
N6_4 C9_7 1_555 1_555
H5_7 C9_7 1_555 1_555
C10_10 N6_4 1_555 1_555
H6_10 C10_10 1_555 1_555
H7_10 C11_10 1_555 1_555
N7_2 Cu1_2 1_555 1_555
N8_7 Cu1_2 1_555 1_555
N11_8 Cu1_2 1_555 1_555
N14_7 Cu1_2 1_555 1_555
C12_4 N7_2 1_555 1_555
H8_4 C12_4 1_555 1_555
C10_10 C11_10 1_555 1_555
N8_7 C1_10 1_555 1_555
N2_10 C2_10 1_555 1_555
N11_8 N4_10 1_555 1_555
N4_10 C6_10 1_555 1_555
N5_10 C5_10 1_555 1_555
C1_10 H1_10 1_555 1_555
C2_10 C1_10 1_555 1_555
H2_10 C2_10 1_555 1_555
C3_10 N2_10 1_555 1_555
H3_10 C3_10 1_555 1_555
C4_10 N8_7 1_555 1_555
C5_10 N11_8 1_555 1_555
C6_10 N5_10 1_555 1_555
C7_10 C6_10 1_555 1_555
C8_7 C7_10 1_555 1_555
H4_7 C8_7 1_555 1_555
C3_10 C4_10 1_555 1_555
C4_10 C5_10 1_555 1_555
N14_7 C9_8 1_555 1_555
H4_8 C8_8 1_555 1_555
C9_8 C8_8 1_555 1_555
H5_8 C9_8 1_555 1_555
Cu1_3 N6_5 1_555 1_555
N1_6 C1_11 1_555 1_555
N2_11 C2_11 1_555 1_555
N3_6 N4_11 1_555 1_555
N4_11 C6_11 1_555 1_555
N5_11 C5_11 1_555 1_555
N6_5 C9_9 1_555 1_555
C1_11 H1_11 1_555 1_555
C2_11 C1_11 1_555 1_555
H2_11 C2_11 1_555 1_555
C3_11 N2_11 1_555 1_555
H3_11 C3_11 1_555 1_555
C4_11 N1_6 1_555 1_555
C5_11 N3_6 1_555 1_555
C6_11 N5_11 1_555 1_555
C7_11 C6_11 1_555 1_555
C8_9 C7_11 1_555 1_555
H4_9 C8_9 1_555 1_555
C9_9 C8_9 1_555 1_555
H5_9 C9_9 1_555 1_555
C10_11 N6_5 1_555 1_555
H6_11 C10_11 1_555 1_555
C11_11 C7_11 1_555 1_555
H7_11 C11_11 1_555 1_555
Cu2_3 N1_6 1_555 1_555
N7_3 Cu1_3 1_555 1_555
N8_8 Cu1_3 1_555 1_555
N11_9 Cu1_3 1_555 1_555
N14_8 Cu1_3 1_555 1_555
C12_5 N7_3 1_555 1_555
H8_5 C12_5 1_555 1_555
N3_6 Cu2_3 1_555 1_555
C3_11 C4_11 1_555 1_555
C4_11 C5_11 1_555 1_555
C10_11 C11_11 1_555 1_555
Cu2_3 N6_6 1_555 1_555
N6_6 C9_10 1_555 1_555
H4_10 C8_10 1_555 1_555
C9_10 C8_10 1_555 1_555
H5_10 C9_10 1_555 1_555
N8_9 Cu2_3 1_555 1_555
N14_9 Cu2_3 1_555 1_555
N14_9 C9_11 1_555 1_555
H5_11 C9_11 1_555 1_555
C10_12 N14_9 1_555 1_555
H6_12 C10_12 1_555 1_555
H7_12 C11_12 1_555 1_555
C12_6 N8_9 1_555 1_555
H8_6 C12_6 1_555 1_555
C10_12 C11_12 1_555 1_555
N8_8 C1_12 1_555 1_555
N2_12 C2_12 1_555 1_555
N11_9 N4_12 1_555 1_555
N4_12 C6_12 1_555 1_555
N5_12 C5_12 1_555 1_555
C1_12 H1_12 1_555 1_555
C2_12 C1_12 1_555 1_555
H2_12 C2_12 1_555 1_555
C3_12 N2_12 1_555 1_555
H3_12 C3_12 1_555 1_555
C4_12 N8_8 1_555 1_555
C5_12 N11_9 1_555 1_555
C6_12 N5_12 1_555 1_555
C7_12 C6_12 1_555 1_555
C8_11 C7_12 1_555 1_555
H4_11 C8_11 1_555 1_555
C3_12 C4_12 1_555 1_555
C4_12 C5_12 1_555 1_555
N14_8 C9_12 1_555 1_555
H4_12 C8_12 1_555 1_555
C9_12 C8_12 1_555 1_555
H5_12 C9_12 1_555 1_555

#END
