
###############################################################################
#
# This file contains modified crystal structure data generated from the
# MOF subset of the Cambridge Structural Database (CSD) v543 
# hosted by the Cambridge Crystallographic Data Centre (CCDC).
#
# This work is licensed under the Creative Commons
# Attribution-NonCommercial-ShareAlike 4.0 International License.
# To view a copy of this license, visit
# http://creativecommons.org/licenses/by-nc-sa/4.0/
# or send a letter to
# Creative Commons, PO Box 1866, Mountain View, CA 94042, USA.
#
# CIF created using the CSD Python API on 29 September 2022
# The structure has been converted into the P1 space group
# The structure has a 3D framework
# The original CSD entry CUGXAF is in the rhombohedral crystal system
# The framework has been calculated to contain at least 10.0% void space
# The void calculation uses a probe of radius 1.32A, grid spacing 0.4
#
###############################################################################

data_CUGXAF
_chemical_formula_moiety         '(C1080 H828 Co54 N108 O252)n'
_symmetry_cell_setting           triclinic
_symmetry_space_group_name_H-M   'P 1'
_symmetry_Int_Tables_number      1
_space_group_name_Hall           'P 1'
loop_
_symmetry_equiv_pos_site_id
_symmetry_equiv_pos_as_xyz
1 x,y,z
_cell_length_a                   38.012(7)
_cell_length_b                   38.012(7)
_cell_length_c                   29.603(12)
_cell_angle_alpha                90
_cell_angle_beta                 90
_cell_angle_gamma                120
_cell_volume                     37043.1
loop_
_atom_site_label
_atom_site_type_symbol
_atom_site_fract_x
_atom_site_fract_y
_atom_site_fract_z
O1 O 0.24285(8) 0.08148(9) 0.01165(9)
O4 O 0.49771(9) 0.10114(8) 0.24473(10)
O7 O 0.46199(11) 0.03555(9) 0.22508(11)
N3 N 0.26866(14) 0.22520(14) 0.00060(17)
C1 C 0.37467(13) 0.12688(14) 0.07630(14)
H1 H 0.4021 0.1463 0.0769
C4 C 0.38709(13) 0.08973(13) 0.13882(14)
C5 C 0.34939(12) 0.13033(13) 0.04462(14)
H2 H 0.3602 0.1516 0.0240
C7 C 0.44008(13) 0.07859(13) 0.19582(13)
C8 C 0.30805(12) 0.10208(13) 0.04379(13)
C9 C 0.46927(13) 0.07126(13) 0.22390(14)
C11 C 0.28071(12) 0.10461(12) 0.00899(12)
C13 C 0.35937(13) 0.09475(13) 0.10722(14)
C14 C 0.44984(15) 0.11722(14) 0.18163(16)
H5 H 0.4740 0.1397 0.1910
C17 C 0.40398(14) 0.04567(14) 0.18165(15)
H7 H 0.3972 0.0196 0.1908
C18 C 0.29230(14) 0.07086(15) 0.07533(15)
H8 H 0.2646 0.0521 0.0756
C19 C 0.39504(17) 0.27957(16) 0.06739(17)
H9 H 0.3803 0.2711 0.0941
C20 C 0.37770(14) 0.05111(14) 0.15393(16)
H10 H 0.3533 0.0286 0.1452
C21 C 0.31785(14) 0.06757(16) 0.10643(16)
H11 H 0.3068 0.0465 0.1274
C22 C 0.42369(15) 0.12243(14) 0.15358(16)
H12 H 0.4307 0.1485 0.1443
C24 C 0.38543(16) 0.25205(15) 0.03147(16)
H14 H 0.3644 0.2254 0.0346
C25 C 0.44590(18) 0.33135(15) 0.02232(16)
H15 H 0.4656 0.3584 0.0182
C26 C 0.42620(17) 0.31900(15) 0.06310(16)
H19 H 0.3053 0.2857 0.0098
C30 C 0.2346(3) 0.2246(2) 0.0234(3)
H21 H 0.2097 0.2040 0.0101
H22 H 0.2365 0.2506 0.0204
H23 H 0.2351 0.2186 0.0548
O8 O 0.52221(13) 0.42665(9) 0.23447(11)
O9 O 0.49241(13) 0.46208(9) 0.21568(10)
C31 C 0.47586(18) 0.40257(12) 0.17422(14)
C32 C 0.49850(18) 0.43300(12) 0.21099(14)
C33 C 0.44880(23) 0.38710(16) 0.09928(17)
H24 H 0.4425 0.3956 0.0726
C34 C 0.46671(22) 0.41462(15) 0.13520(16)
H25 H 0.4723 0.4413 0.1321
C35 C 0.44788(23) 0.33532(15) 0.14435(16)
H26 H 0.4405 0.3083 0.1485
C36 C 0.44053(23) 0.34767(15) 0.10357(16)
C37 C 0.46608(22) 0.36267(14) 0.17922(17)
H27 H 0.4717 0.3541 0.2063
C101 C 0.46021(14) 0.04134(13) 0.09037(14)
H81 H 0.4796 0.0688 0.0898
C102 C 0.42306(13) 0.05376(13) 0.02785(14)
C103 C 0.46366(13) 0.01606(12) 0.12205(14)
H82 H 0.4849 0.0269 0.1427
C108 C 0.42808(13) 0.02604(13) 0.05945(14)
C112 C 0.38444(14) 0.04437(14) 0.01274(16)
H86 H 0.3619 0.0200 0.0215
C114 C 0.45576(14) 0.09036(15) 0.01309(16)
H88 H 0.4818 0.0974 0.0224
Co9 Co 0.483256(18) 0.0000 0.2500
Co15 Co 0.516778(18) 0.516744(18) 0.2500
Co21 Co 0.559251(16) 0.459204(22) 0.285885(17)
Co23 Co 0.540796(22) 0.100046(15) 0.285885(17)
O43 O 0.50137(11) 0.03763(8) 0.31048(8)
O55 O 0.53792(9) 0.03034(9) 0.21568(10)
Co1 Co 0.3333 0.149889(18) 0.9167
Co2 Co 0.233287(15) 0.107416(16) 0.952552(17)
O2 O 0.29570(8) 0.13040(8) 0.97715(8)
O3 O 0.23624(10) 0.15601(10) 0.99424(11)
O5 O 0.42890(9) 0.24002(9) 0.93220(11)
O6 O 0.36367(9) 0.20459(9) 0.95099(10)
N1 N 0.02244(9) 0.04167(10) 0.94285(13)
N2 N 0.16931(10) 0.07812(10) 0.95111(12)
C2 C 0.03951(12) 0.01835(11) 0.94293(15)
C3 C 0.08476(11) 0.03903(11) 0.94478(15)
C6 C 0.40663(13) 0.26410(12) 0.99245(14)
C10 C 0.10491(12) 0.01742(13) 0.94783(18)
C12 C 0.10843(12) 0.08137(12) 0.94488(17)
H4 H 0.0962 0.0973 0.9428
C15 C 0.39884(13) 0.23367(12) 0.95568(14)
C16 C 0.14993(13) 0.09921(14) 0.94809(16)
H6 H 0.1653 0.1274 0.9482
C23 C 0.14663(13) 0.03788(13) 0.95063(16)
H13 H 0.1597 0.0227 0.9523
C27 C 0.43675(17) 0.30400(14) 0.98745(17)
H16 H 0.4510 0.3126 0.9604
C28 C 0.26615(17) 0.19088(18) 0.98750(19)
H17 H 0.2882 0.1926 0.9720
C29 C 0.3047(2) 0.2655(2) 0.9898(3)
H18 H 0.3290 0.2641 0.9935
H20 H 0.3028 0.2727 0.9591
H28 H 0.0108 0.1012 0.9480
Co6 Co 0.433380(15) 0.207462(22) 0.880781(17)
O20 O 0.42382(8) 0.17196(12) 0.82168(9)
O21 O 0.37097(8) 0.16803(11) 0.85618(8)
O22 O 0.43043(10) 0.25310(14) 0.83909(11)
N10 N 0.39801(14) 0.28987(20) 0.83273(17)
C84 C 0.29200(13) 0.08554(19) 0.75703(14)
H66 H 0.2646 0.0775 0.7564
C85 C 0.27958(13) 0.03597(18) 0.69451(14)
C86 C 0.31728(12) 0.11427(18) 0.78871(14)
H67 H 0.3065 0.1247 0.8093
C88 C 0.35862(12) 0.12736(18) 0.78954(13)
C90 C 0.38596(12) 0.15723(17) 0.82434(12)
C91 C 0.30730(13) 0.06871(18) 0.72611(14)
C92 C 0.21683(15) 0.00071(21) 0.65170(16)
C94 C 0.37437(14) 0.11189(21) 0.75800(15)
H70 H 0.4021 0.1208 0.7577
C95 C 0.28897(14) 0.00674(20) 0.67940(16)
H71 H 0.3134 0.0086 0.6881
C96 C 0.34882(14) 0.08305(21) 0.72690(16)
H72 H 0.3599 0.0730 0.7059
C97 C 0.24298(15) 0.03207(21) 0.67975(16)
H73 H 0.2360 0.0511 0.6890
C98 C 0.40052(17) 0.25806(25) 0.84583(19)
H74 H 0.3785 0.2377 0.8613
C99 C 0.3620(2) 0.2941(3) 0.8435(3)
H75 H 0.3377 0.2684 0.8398
H76 H 0.3614 0.3137 0.8235
H77 H 0.3639 0.3032 0.8742
C100 C 0.4321(3) 0.3233(4) 0.8099(3)
H78 H 0.4570 0.3276 0.8232
H79 H 0.4302 0.3474 0.8129
H80 H 0.4316 0.3168 0.7785
O28 O 0.43447(8) 0.16438(9) 0.92194(10)
O29 O 0.36888(9) 0.12866(11) 0.94159(11)
C104 C 0.41192(13) 0.10675(13) 0.97085(13)
C106 C 0.40459(13) 0.13594(13) 0.94277(14)
C109 C 0.45055(14) 0.11651(15) 0.98504(16)
H83 H 0.4730 0.1407 0.9757
C110 C 0.37900(14) 0.07065(14) 0.98502(15)
H84 H 0.3529 0.0639 0.9759
O33 O 0.23219(8) 0.06324(12) 0.91140(10)
O34 O 0.29778(9) 0.09311(14) 0.89175(11)
C121 C 0.25474(13) 0.02816(18) 0.86249(13)
C123 C 0.26207(13) 0.06468(18) 0.89057(14)
H98 H 0.1936 0.0010 0.8577
C127 C 0.28766(14) 0.02498(20) 0.84832(15)
H99 H 0.3137 0.0443 0.8575
N13 N 0.64423(9) 0.35256(13) 0.89048(13)
N14 N 0.49736(10) 0.24214(14) 0.88222(12)
C135 C 0.62716(12) 0.31217(16) 0.89040(15)
C136 C 0.58191(11) 0.28760(16) 0.88855(15)
C137 C 0.56176(12) 0.24584(18) 0.88550(18)
H111 H 0.5763 0.2321 0.8853
C138 C 0.55824(12) 0.30627(17) 0.88845(17)
H112 H 0.5705 0.3344 0.8905
C139 C 0.51674(13) 0.28261(19) 0.88524(16)
H113 H 0.5014 0.2954 0.8851
C140 C 0.52004(13) 0.22458(18) 0.88270(16)
H114 H 0.5070 0.1963 0.8810
N15 N 0.70834(10) 0.35577(9) 0.89048(13)
N16 N 0.74479(10) 0.50264(10) 0.88222(12)
C141 C 0.68502(11) 0.37284(12) 0.89040(15)
C142 C 0.70570(11) 0.41809(11) 0.88855(15)
C143 C 0.68409(13) 0.43824(12) 0.88550(18)
H115 H 0.6559 0.4237 0.8853
C144 C 0.74804(12) 0.44176(12) 0.88845(17)
H116 H 0.7640 0.4295 0.8905
C145 C 0.76588(14) 0.48326(13) 0.88524(16)
H117 H 0.7941 0.4986 0.8851
C146 C 0.70455(13) 0.47996(13) 0.88270(16)
H118 H 0.6894 0.4930 0.8810
N17 N 0.64744(13) 0.29166(10) 0.89048(13)
N18 N 0.75786(14) 0.25521(10) 0.88222(12)
C147 C 0.68783(16) 0.31498(11) 0.89040(15)
C148 C 0.71240(16) 0.29430(11) 0.88855(15)
C149 C 0.75416(18) 0.31591(13) 0.88550(18)
H119 H 0.7679 0.3441 0.8853
C150 C 0.69373(17) 0.25196(12) 0.88845(17)
H120 H 0.6656 0.2360 0.8905
C151 C 0.71739(19) 0.23412(14) 0.88524(16)
H121 H 0.7046 0.2059 0.8851
C152 C 0.77542(18) 0.29545(13) 0.88270(16)
H122 H 0.8037 0.3106 0.8810
O35 O 0.23777(9) 0.14445(13) 0.90113(11)
O36 O 0.30300(9) 0.17425(13) 0.88234(10)
C153 C 0.26004(13) 0.19080(18) 0.84088(14)
C154 C 0.26783(13) 0.16816(18) 0.87765(14)
C155 C 0.27163(17) 0.21786(23) 0.76594(17)
H123 H 0.2864 0.2241 0.7392
C156 C 0.28124(16) 0.19995(22) 0.80186(16)
H124 H 0.3023 0.1943 0.7987
C157 C 0.22077(18) 0.21878(23) 0.81101(16)
H125 H 0.2011 0.2261 0.8151
C158 C 0.24047(17) 0.22613(23) 0.77023(16)
C159 C 0.22992(17) 0.20058(22) 0.84588(17)
H126 H 0.2157 0.1949 0.8729
O37 O 0.14445(13) 0.23777(9) 0.59887(11)
O38 O 0.17425(13) 0.30300(9) 0.61766(10)
C160 C 0.19080(18) 0.26004(13) 0.65912(14)
C161 C 0.16816(18) 0.26783(13) 0.62235(14)
C162 C 0.21786(23) 0.27163(17) 0.73406(17)
H127 H 0.2241 0.2864 0.7608
C163 C 0.19995(22) 0.28124(16) 0.69814(16)
H128 H 0.1943 0.3023 0.7013
C164 C 0.21878(23) 0.22077(18) 0.68899(16)
H129 H 0.2261 0.2011 0.6849
C165 C 0.22613(23) 0.24047(17) 0.72977(16)
C166 C 0.20058(22) 0.22992(17) 0.65412(17)
H130 H 0.1949 0.2157 0.6271
Co11 Co 0.149889(18) 0.3333 0.5833
Co17 Co 0.107416(16) 0.233287(15) 0.547448(17)
Co24 Co 0.774083(16) 0.566620(15) 0.880781(17)
Co26 Co 0.792538(22) 0.225917(16) 0.880781(17)
H64 H 0.0141 0.7635 0.0204
Co7 Co 0.440749(16) 0.899954(15) 0.214115(17)
O25 O 0.41481(9) 0.90952(8) 0.15502(9)
O26 O 0.46373(8) 0.96237(8) 0.18952(8)
O27 O 0.48934(10) 0.90291(10) 0.17243(11)
N11 N 0.55853(14) 0.93533(14) 0.16607(17)
C105 C 0.43541(13) 0.97472(12) 0.12288(13)
C107 C 0.43794(12) 0.94738(12) 0.15768(12)
C111 C 0.40419(15) 0.95897(14) 0.09134(15)
H85 H 0.3854 0.9313 0.0911
C113 C 0.40090(16) 0.98452(14) 0.06024(16)
H87 H 0.3798 0.9735 0.0393
C115 C 0.52421(18) 0.93282(17) 0.17917(19)
H89 H 0.5259 0.9549 0.1947
C116 C 0.5988(2) 0.9714(2) 0.1769(3)
H90 H 0.5974 0.9957 0.1732
H91 H 0.6190 0.9720 0.1569
H92 H 0.6060 0.9695 0.2076
C117 C 0.5579(2) 0.9013(3) 0.1433(3)
H93 H 0.5373 0.8764 0.1566
H94 H 0.5839 0.9032 0.1463
H95 H 0.5519 0.9018 0.1119
O45 O 0.39657(12) 0.89886(8) 0.25527(10)
O50 O 0.47779(13) 0.90443(9) 0.26553(11)
O53 O 0.50759(13) 0.96966(9) 0.28432(10)
O56 O 0.42644(14) 0.96445(9) 0.27492(11)
N20 N 0.41145(10) 0.83598(10) 0.21556(12)
H3 H 0.0904 0.9892 0.9480
N6 N 0.01923(13) 0.97756(9) 0.94285(13)
H33 H 0.0011 0.9038 0.9428
O23 O 0.16896(9) 0.93676(12) 0.58860(10)
O24 O 0.20468(11) 0.90689(14) 0.60825(11)
C87 C 0.22659(13) 0.97184(18) 0.63751(13)
C89 C 0.19740(13) 0.93532(18) 0.60943(14)
H68 H 0.1927 0.9990 0.6423
C93 C 0.26269(14) 0.97502(20) 0.65168(15)
H69 H 0.2695 0.9557 0.6425
Co8 Co 0.225917(16) 0.792538(22) 0.619219(17)
O30 O 0.25185(9) 0.82804(12) 0.67832(9)
O31 O 0.20293(8) 0.83197(11) 0.64382(8)
O32 O 0.17732(10) 0.74690(14) 0.66091(11)
N12 N 0.10813(14) 0.71013(20) 0.66727(17)
C118 C 0.20645(14) 0.91446(19) 0.74297(14)
H96 H 0.1870 0.9225 0.7436
C119 C 0.24360(13) 0.96403(18) 0.80549(14)
C120 C 0.20300(13) 0.88573(18) 0.71129(14)
H97 H 0.1817 0.8753 0.6907
C122 C 0.23125(13) 0.87264(18) 0.71046(13)
C124 C 0.22872(12) 0.84277(17) 0.67566(12)
C125 C 0.23858(13) 0.93129(18) 0.77389(14)
C126 C 0.21611(14) 0.99929(21) 0.84830(16)
C128 C 0.26247(15) 0.88811(21) 0.74200(15)
H100 H 0.2812 0.8792 0.7423
C129 C 0.28222(14) 0.99326(20) 0.82060(16)
H101 H 0.3047 0.9914 0.8119
C130 C 0.26576(16) 0.91695(21) 0.77310(16)
H102 H 0.2868 0.9270 0.7941
C131 C 0.21090(14) 0.96793(21) 0.82025(16)
H103 H 0.1848 0.9489 0.8110
C132 C 0.14245(18) 0.74194(25) 0.65417(19)
H104 H 0.1407 0.7623 0.6387
C133 C 0.0678(2) 0.7059(3) 0.6565(3)
H105 H 0.0692 0.7316 0.6602
H106 H 0.0476 0.6863 0.6765
H107 H 0.0606 0.6968 0.6258
C134 C 0.1087(2) 0.6767(4) 0.6901(3)
H108 H 0.1293 0.6724 0.6768
H109 H 0.0827 0.6526 0.6871
H110 H 0.1147 0.6832 0.7215
Co12 Co 0.183411(18) 0.850111(18) 0.5833
Co18 Co 0.125871(22) 0.892584(16) 0.547448(17)
O46 O 0.27010(12) 0.83562(9) 0.57806(10)
O49 O 0.18888(13) 0.75998(9) 0.56780(11)
N19 N 0.25521(10) 0.75786(14) 0.61778(12)
O10 O 0.91852(9) 0.16137(12) 0.01165(9)
O13 O 0.89886(8) 0.39657(12) 0.24473(10)
O14 O 0.96445(9) 0.42644(14) 0.22508(11)
N8 N 0.77480(14) 0.04346(20) 0.00060(17)
C50 C 0.87312(14) 0.24779(19) 0.07630(14)
H36 H 0.8537 0.2558 0.0769
C51 C 0.91027(13) 0.29736(18) 0.13882(14)
C52 C 0.86967(13) 0.21906(18) 0.04462(14)
H37 H 0.8484 0.2086 0.0240
C53 C 0.92141(13) 0.36149(18) 0.19582(13)
C54 C 0.89792(13) 0.20597(18) 0.04379(13)
C55 C 0.92874(13) 0.39801(18) 0.22390(14)
C56 C 0.89539(12) 0.17610(17) 0.00899(12)
C57 C 0.90525(13) 0.26462(18) 0.10722(14)
C58 C 0.88278(14) 0.33262(21) 0.18163(16)
H38 H 0.8603 0.3343 0.1910
C59 C 0.95433(14) 0.35831(20) 0.18165(15)
H39 H 0.9804 0.3776 0.1908
C60 C 0.92914(15) 0.22144(21) 0.07533(15)
H40 H 0.9479 0.2125 0.0756
C61 C 0.94889(14) 0.32659(20) 0.15393(16)
H41 H 0.9714 0.3247 0.1452
C62 C 0.93243(16) 0.25028(21) 0.10643(16)
H42 H 0.9535 0.2603 0.1274
C63 C 0.87757(14) 0.30126(21) 0.15358(16)
H43 H 0.8515 0.2822 0.1443
H46 H 0.7143 0.0196 0.0098
C66 C 0.7754(2) 0.0100(4) 0.0234(3)
H48 H 0.7960 0.0057 0.0101
H50 H 0.7814 0.0165 0.0548
C169 C 0.72043(16) 0.11547(23) 0.06739(17)
H131 H 0.7289 0.1092 0.0941
C170 C 0.74795(15) 0.13338(22) 0.03147(16)
H132 H 0.7746 0.1390 0.0346
C171 C 0.66865(15) 0.11455(23) 0.02232(16)
H133 H 0.6416 0.1072 0.0182
C172 C 0.68100(15) 0.10720(23) 0.06310(16)
O41 O 0.57335(9) 0.09557(9) 0.23447(11)
C174 C 0.59743(12) 0.07330(13) 0.17422(14)
C175 C 0.56700(12) 0.06551(13) 0.21099(14)
C176 C 0.61290(16) 0.06171(17) 0.09928(17)
H135 H 0.6044 0.0470 0.0726
C177 C 0.58538(15) 0.05210(16) 0.13520(16)
H136 H 0.5587 0.0311 0.1321
C178 C 0.66468(15) 0.11257(18) 0.14435(16)
H137 H 0.6917 0.1323 0.1485
C179 C 0.65233(15) 0.09287(17) 0.10357(16)
C180 C 0.63733(14) 0.10342(17) 0.17922(17)
H138 H 0.6459 0.1177 0.2063
Co13 Co 1.0000 0.483222(18) 0.2500
Co19 Co 0.899954(15) 0.440749(16) 0.285885(17)
N5 N 0.92188(10) 0.09119(14) 0.95111(12)
C38 C 0.98165(11) 0.02116(16) 0.94293(15)
C39 C 0.96097(11) 0.04573(16) 0.94478(15)
C40 C 0.98258(13) 0.08749(18) 0.94783(18)
C41 C 0.91863(12) 0.02706(17) 0.94488(17)
C42 C 0.90079(14) 0.05072(19) 0.94809(16)
H30 H 0.8726 0.0379 0.9482
C43 C 0.96212(13) 0.10875(18) 0.95063(16)
H31 H 0.9773 0.1370 0.9523
Co3 Co 0.850111(18) 0.183411(18) 0.9167
Co4 Co 0.892584(16) 0.125871(22) 0.952552(17)
O11 O 0.86960(8) 0.16530(11) 0.97715(8)
O12 O 0.84399(10) 0.08023(14) 0.99424(11)
C64 C 0.80912(18) 0.07527(25) 0.98750(19)
H44 H 0.8074 0.0956 0.9720
C65 C 0.7345(2) 0.0392(3) 0.9898(3)
H45 H 0.7359 0.0649 0.9935
H47 H 0.7273 0.0301 0.9591
O39 O 0.75998(9) 0.18888(13) 0.93220(11)
O40 O 0.79541(9) 0.15908(13) 0.95099(10)
C167 C 0.73590(12) 0.14253(18) 0.99245(14)
C168 C 0.76633(12) 0.16517(18) 0.95568(14)
C173 C 0.69600(14) 0.13275(22) 0.98745(17)
H134 H 0.6874 0.1384 0.9604
O44 O 0.83197(11) 0.20293(8) 0.85618(8)
O48 O 0.93676(12) 0.16896(9) 0.91140(10)
O52 O 0.85555(13) 0.09331(9) 0.90113(11)
O54 O 0.82575(13) 0.12874(9) 0.88234(10)
O57 O 0.90689(14) 0.20468(11) 0.89175(11)
O58 O 0.87134(11) 0.24023(14) 0.94159(11)
H49 H 0.7494 0.9859 0.0204
O15 O 0.83863(12) 0.75715(8) 0.01165(9)
O18 O 0.60343(12) 0.50229(9) 0.24473(10)
O19 O 0.57356(14) 0.53801(11) 0.22508(11)
N9 N 0.95654(20) 0.73134(14) 0.00060(17)
C67 C 0.75221(19) 0.62533(13) 0.07630(14)
H51 H 0.7442 0.5979 0.0769
C68 C 0.70264(18) 0.61291(13) 0.13882(14)
C69 C 0.78094(18) 0.65061(12) 0.04462(14)
H52 H 0.7914 0.6398 0.0240
C70 C 0.63851(18) 0.55992(13) 0.19582(13)
C71 C 0.79403(18) 0.69195(12) 0.04379(13)
C72 C 0.60199(18) 0.53073(13) 0.22390(14)
C73 C 0.82390(17) 0.71929(12) 0.00899(12)
C74 C 0.73538(18) 0.64063(13) 0.10722(14)
C75 C 0.66738(21) 0.55016(15) 0.18163(16)
H53 H 0.6657 0.5260 0.1910
C76 C 0.64169(20) 0.59602(14) 0.18165(15)
H54 H 0.6224 0.6028 0.1908
C77 C 0.77856(21) 0.70770(14) 0.07533(15)
H55 H 0.7875 0.7354 0.0756
C78 C 0.67341(20) 0.62230(14) 0.15393(16)
H56 H 0.6753 0.6467 0.1452
C79 C 0.74972(21) 0.68215(14) 0.10643(16)
H57 H 0.7397 0.6932 0.1274
C80 C 0.69874(21) 0.57631(15) 0.15358(16)
H58 H 0.7178 0.5693 0.1443
H61 H 0.9804 0.6947 0.0098
C83 C 0.9900(4) 0.7654(3) 0.0234(3)
H63 H 0.9943 0.7903 0.0101
H65 H 0.9835 0.7649 0.0548
N4 N 0.95833(10) 0.98077(13) 0.94285(13)
H29 H 0.9027 0.9989 0.9428
N7 N 0.90881(14) 0.83069(10) 0.95111(12)
C44 C 0.97884(16) 0.96049(12) 0.94293(15)
C45 C 0.95427(16) 0.91524(11) 0.94478(15)
C46 C 0.91251(18) 0.89509(12) 0.94783(18)
H32 H 0.8988 0.9096 0.9480
C47 C 0.97294(17) 0.89157(12) 0.94488(17)
C48 C 0.94928(19) 0.85007(13) 0.94809(16)
H34 H 0.9621 0.8347 0.9482
C49 C 0.89125(18) 0.85337(13) 0.95063(16)
H35 H 0.8630 0.8403 0.9523
Co5 Co 0.874129(22) 0.766713(15) 0.952552(17)
O16 O 0.83470(11) 0.70430(8) 0.97715(8)
O17 O 0.91977(14) 0.76376(10) 0.99424(11)
C81 C 0.92473(25) 0.73385(17) 0.98750(19)
H59 H 0.9044 0.7118 0.9720
C82 C 0.9608(3) 0.6953(2) 0.9898(3)
H60 H 0.9351 0.6710 0.9935
H62 H 0.9699 0.6972 0.9591
Co10 Co 0.816589(18) 0.6667 0.9167
O47 O 0.83104(9) 0.76781(8) 0.91140(10)
O51 O 0.90669(9) 0.76223(9) 0.90113(11)
Co7_2 Co 0.100046(15) 0.540796(22) 0.214115(17)
O25_2 O 0.09048(8) 0.50530(12) 0.15502(9)
O26_2 O 0.03763(8) 0.50137(11) 0.18952(8)
O27_2 O 0.09709(10) 0.58644(14) 0.17243(11)
N11_2 N 0.06467(14) 0.62321(20) 0.16607(17)
C105_2 C 0.02528(12) 0.46070(18) 0.12288(13)
C107_2 C 0.05262(12) 0.49057(17) 0.15768(12)
C111_2 C 0.04103(14) 0.44523(21) 0.09134(15)
H85_2 H 0.0687 0.4542 0.0911
C113_2 C 0.01548(14) 0.41639(21) 0.06024(16)
H87_2 H 0.0265 0.4064 0.0393
C115_2 C 0.06718(17) 0.59140(25) 0.17917(19)
H89_2 H 0.0451 0.5711 0.1947
C116_2 C 0.0286(2) 0.6275(3) 0.1769(3)
H90_2 H 0.0043 0.6018 0.1732
H91_2 H 0.0280 0.6471 0.1569
H92_2 H 0.0305 0.6366 0.2076
C117_2 C 0.0987(3) 0.6567(4) 0.1433(3)
H93_2 H 0.1236 0.6610 0.1566
H94_2 H 0.0968 0.6808 0.1463
H95_2 H 0.0982 0.6502 0.1119
O45_2 O 0.10114(8) 0.49771(14) 0.25527(10)
O50_2 O 0.09557(9) 0.57335(16) 0.26553(11)
O53_2 O 0.03034(9) 0.53792(16) 0.28432(10)
O56_2 O 0.03555(9) 0.46199(17) 0.27492(11)
N20_2 N 0.16402(10) 0.57548(14) 0.21556(12)
O23_2 O 0.06324(12) 0.23219(15) 0.58860(10)
O24_2 O 0.09311(14) 0.29778(18) 0.60825(11)
C87_2 C 0.02816(18) 0.25474(22) 0.63751(13)
C89_2 C 0.06468(18) 0.26207(22) 0.60943(14)
H68_2 H 0.0010 0.1936 0.6423
C93_2 C 0.02498(20) 0.28766(24) 0.65168(15)
H69_2 H 0.0443 0.3137 0.6425
Co8_2 Co 0.207462(22) 0.433380(27) 0.619219(17)
O30_2 O 0.17196(12) 0.42382(15) 0.67832(9)
O31_2 O 0.16803(11) 0.37097(14) 0.64382(8)
O32_2 O 0.25310(14) 0.43043(17) 0.66091(11)
N12_2 N 0.28987(20) 0.39801(24) 0.66727(17)
C118_2 C 0.08554(19) 0.29200(24) 0.74297(14)
H96_2 H 0.0775 0.2646 0.7436
C119_2 C 0.03597(18) 0.27958(22) 0.80549(14)
C120_2 C 0.11427(18) 0.31728(22) 0.71129(14)
H97_2 H 0.1247 0.3065 0.6907
C122_2 C 0.12736(18) 0.35862(22) 0.71046(13)
C124_2 C 0.15723(17) 0.38596(21) 0.67566(12)
C125_2 C 0.06871(18) 0.30730(22) 0.77389(14)
C126_2 C 0.00071(21) 0.21683(25) 0.84830(16)
C128_2 C 0.11189(21) 0.37437(26) 0.74200(15)
H100_2 H 0.1208 0.4021 0.7423
C129_2 C 0.00674(20) 0.28897(24) 0.82060(16)
H101_2 H 0.0086 0.3134 0.8119
C130_2 C 0.08305(21) 0.34882(26) 0.77310(16)
H102_2 H 0.0730 0.3599 0.7941
C131_2 C 0.03207(21) 0.24298(25) 0.82025(16)
H103_2 H 0.0511 0.2360 0.8110
C132_2 C 0.25806(25) 0.40052(31) 0.65417(19)
H104_2 H 0.2377 0.3785 0.6387
C133_2 C 0.2941(3) 0.3620(4) 0.6565(3)
H105_2 H 0.2684 0.3377 0.6602
H106_2 H 0.3137 0.3614 0.6765
H107_2 H 0.3032 0.3639 0.6258
C134_2 C 0.3233(4) 0.4321(4) 0.6901(3)
H108_2 H 0.3276 0.4570 0.6768
H109_2 H 0.3474 0.4302 0.6871
H110_2 H 0.3168 0.4316 0.7215
O46_2 O 0.16438(9) 0.43447(15) 0.57806(10)
O49_2 O 0.24002(9) 0.42890(16) 0.56780(11)
N19_2 N 0.24214(14) 0.49736(17) 0.61778(12)
C101_2 C 0.95866(13) 0.41888(19) 0.09037(14)
H81_2 H 0.9312 0.4109 0.0898
C102_2 C 0.94624(13) 0.36931(18) 0.02785(14)
C103_2 C 0.98394(12) 0.44761(18) 0.12205(14)
H82_2 H 0.9731 0.4581 0.1427
C108_2 C 0.97396(13) 0.40205(18) 0.05945(14)
C112_2 C 0.95563(14) 0.34008(20) 0.01274(16)
H86_2 H 0.9800 0.3420 0.0215
C114_2 C 0.90964(15) 0.36541(21) 0.01309(16)
H88_2 H 0.9026 0.3845 0.0224
O43_2 O 0.96237(8) 0.46373(14) 0.31048(8)
O55_2 O 0.96966(9) 0.50759(13) 0.21568(10)
O20_2 O 0.82804(12) 0.25185(14) 0.82168(9)
O22_2 O 0.74690(14) 0.17732(17) 0.83909(11)
N10_2 N 0.71013(20) 0.10813(24) 0.83273(17)
C84_2 C 0.91446(19) 0.20645(23) 0.75703(14)
H66_2 H 0.9225 0.1870 0.7564
C85_2 C 0.96403(18) 0.24360(22) 0.69451(14)
C86_2 C 0.88573(18) 0.20300(22) 0.78871(14)
H67_2 H 0.8753 0.1817 0.8093
C88_2 C 0.87264(18) 0.23125(22) 0.78954(13)
C90_2 C 0.84277(17) 0.22872(21) 0.82434(12)
C91_2 C 0.93129(18) 0.23858(22) 0.72611(14)
C92_2 C 0.99929(21) 0.21611(26) 0.65170(16)
C94_2 C 0.88811(21) 0.26247(25) 0.75800(15)
H70_2 H 0.8792 0.2812 0.7577
C95_2 C 0.99326(20) 0.28222(24) 0.67940(16)
H71_2 H 0.9914 0.3047 0.6881
C96_2 C 0.91695(21) 0.26576(25) 0.72690(16)
H72_2 H 0.9270 0.2868 0.7059
C97_2 C 0.96793(21) 0.21090(26) 0.67975(16)
H73_2 H 0.9489 0.1848 0.6890
C98_2 C 0.74194(25) 0.14245(30) 0.84583(19)
H74_2 H 0.7623 0.1407 0.8613
C99_2 C 0.7059(3) 0.0678(4) 0.8435(3)
H75_2 H 0.7316 0.0692 0.8398
H76_2 H 0.6863 0.0476 0.8235
H77_2 H 0.6968 0.0606 0.8742
C100_2 C 0.6767(4) 0.1087(5) 0.8099(3)
H78_2 H 0.6724 0.1293 0.8232
H79_2 H 0.6526 0.0827 0.8129
H80_2 H 0.6832 0.1147 0.7785
O28_2 O 0.83562(9) 0.27010(12) 0.92194(10)
C104_2 C 0.89325(13) 0.30518(18) 0.97085(13)
C106_2 C 0.86406(13) 0.26866(18) 0.94277(14)
C109_2 C 0.88349(15) 0.33405(21) 0.98504(16)
H83_2 H 0.8593 0.3324 0.9757
C110_2 C 0.92935(14) 0.30836(20) 0.98502(15)
H84_2 H 0.9361 0.2891 0.9759
C121_2 C 0.97184(18) 0.22659(22) 0.86249(13)
C123_2 C 0.93532(18) 0.19740(22) 0.89057(14)
H98_2 H 0.9990 0.1927 0.8577
C127_2 C 0.97502(20) 0.26269(24) 0.84832(15)
H99_2 H 0.9557 0.2695 0.8575
C153_2 C 0.80920(18) 0.06923(22) 0.84088(14)
C154_2 C 0.83184(18) 0.09966(22) 0.87765(14)
C155_2 C 0.78214(23) 0.05376(29) 0.76594(17)
H123_2 H 0.7759 0.0622 0.7392
C156_2 C 0.80005(22) 0.08128(27) 0.80186(16)
H124_2 H 0.8057 0.1079 0.7987
C157_2 C 0.78122(23) 0.00198(29) 0.81101(16)
C158_2 C 0.77387(23) 0.01433(29) 0.77023(16)
C159_2 C 0.79942(22) 0.02933(28) 0.84588(17)
H126_2 H 0.8051 0.0207 0.8729
H129_2 H 0.7989 0.0251 0.6849
C169_2 C 0.88453(23) 0.60496(28) 0.06739(17)
H131_2 H 0.8908 0.6197 0.0941
C170_2 C 0.86662(22) 0.61457(27) 0.03147(16)
H132_2 H 0.8610 0.6356 0.0346
C171_2 C 0.88545(23) 0.55410(27) 0.02232(16)
H133_2 H 0.8928 0.5344 0.0182
C172_2 C 0.89280(23) 0.57380(27) 0.06310(16)
O41_2 O 0.90443(9) 0.47779(13) 0.23447(11)
C174_2 C 0.92670(13) 0.52414(18) 0.17422(14)
C175_2 C 0.93449(13) 0.50150(18) 0.21099(14)
C176_2 C 0.93829(17) 0.55120(23) 0.09928(17)
H135_2 H 0.9530 0.5575 0.0726
C177_2 C 0.94790(16) 0.53329(22) 0.13520(16)
H136_2 H 0.9689 0.5277 0.1321
C178_2 C 0.88743(18) 0.55212(23) 0.14435(16)
H137_2 H 0.8677 0.5595 0.1485
C179_2 C 0.90713(17) 0.55947(23) 0.10357(16)
C180_2 C 0.89658(17) 0.53392(22) 0.17922(17)
H138_2 H 0.8823 0.5283 0.2063
H125_2 H 0.7739 0.9749 0.8151
O37_2 O 0.76223(9) 0.90669(16) 0.59887(11)
O38_2 O 0.69700(9) 0.87126(16) 0.61766(10)
C160_2 C 0.73996(13) 0.93077(22) 0.65912(14)
C161_2 C 0.73217(13) 0.90034(22) 0.62235(14)
C162_2 C 0.72837(17) 0.94624(29) 0.73406(17)
H127_2 H 0.7136 0.9378 0.7608
C163_2 C 0.71876(16) 0.91872(27) 0.69814(16)
H128_2 H 0.6977 0.8921 0.7013
C164_2 C 0.77923(18) 0.99802(29) 0.68899(16)
C165_2 C 0.75953(17) 0.98567(29) 0.72977(16)
C166_2 C 0.77008(17) 0.97067(28) 0.65412(17)
H130_2 H 0.7843 0.9793 0.6271
O39_2 O 0.81112(13) 0.57110(16) 0.93220(11)
O40_2 O 0.84092(13) 0.63633(16) 0.95099(10)
C167_2 C 0.85747(18) 0.59337(22) 0.99245(14)
C168_2 C 0.83483(18) 0.60116(22) 0.95568(14)
C173_2 C 0.86725(22) 0.56325(26) 0.98745(17)
H134_2 H 0.8616 0.5490 0.9604
Co11_2 Co 0.6667 0.816589(18) 0.5833
Co17_2 Co 0.766713(15) 0.874129(22) 0.547448(17)
O44_2 O 0.79707(8) 0.62903(14) 0.85618(8)
O54_2 O 0.87126(9) 0.69700(16) 0.88234(10)
O57_2 O 0.79532(11) 0.70222(18) 0.89175(11)
O58_2 O 0.75977(14) 0.63112(18) 0.94159(11)
H125_3 H 0.0251 0.7989 0.8151
O37_3 O 0.09331(16) 0.85555(13) 0.59887(11)
O38_3 O 0.12874(16) 0.82575(13) 0.61766(10)
C160_3 C 0.06923(22) 0.80920(18) 0.65912(14)
C161_3 C 0.09966(22) 0.83184(18) 0.62235(14)
C162_3 C 0.05376(29) 0.78214(23) 0.73406(17)
H127_3 H 0.0622 0.7759 0.7608
C163_3 C 0.08128(27) 0.80005(22) 0.69814(16)
H128_3 H 0.1079 0.8057 0.7013
C164_3 C 0.00198(29) 0.78122(23) 0.68899(16)
C165_3 C 0.01433(29) 0.77387(23) 0.72977(16)
C166_3 C 0.02933(28) 0.79942(22) 0.65412(17)
H130_3 H 0.0207 0.8051 0.6271
Co7_3 Co 0.459204(22) 0.559251(16) 0.214115(17)
O25_3 O 0.49470(12) 0.58519(9) 0.15502(9)
O26_3 O 0.49863(11) 0.53627(8) 0.18952(8)
O27_3 O 0.41356(14) 0.51066(10) 0.17243(11)
N11_3 N 0.37679(20) 0.44147(14) 0.16607(17)
C101_3 C 0.58112(19) 0.53979(14) 0.09037(14)
H81_3 H 0.5891 0.5204 0.0898
C102_3 C 0.63069(18) 0.57694(13) 0.02785(14)
C103_3 C 0.55239(18) 0.53634(13) 0.12205(14)
H82_3 H 0.5419 0.5151 0.1427
C105_3 C 0.53930(18) 0.56459(13) 0.12288(13)
C107_3 C 0.50943(17) 0.56206(12) 0.15768(12)
C108_3 C 0.59795(18) 0.57192(13) 0.05945(14)
C111_3 C 0.55477(21) 0.59581(15) 0.09134(15)
H85_3 H 0.5458 0.6146 0.0911
C112_3 C 0.65992(20) 0.61556(14) 0.01274(16)
H86_3 H 0.6580 0.6381 0.0215
C113_3 C 0.58361(21) 0.59910(16) 0.06024(16)
H87_3 H 0.5936 0.6202 0.0393
C114_3 C 0.63459(21) 0.54424(14) 0.01309(16)
H88_3 H 0.6155 0.5182 0.0224
C115_3 C 0.40860(25) 0.47579(18) 0.17917(19)
H89_3 H 0.4289 0.4741 0.1947
C116_3 C 0.3725(3) 0.4012(2) 0.1769(3)
H90_3 H 0.3982 0.4026 0.1732
H91_3 H 0.3529 0.3810 0.1569
H92_3 H 0.3634 0.3940 0.2076
C117_3 C 0.3433(4) 0.4421(2) 0.1433(3)
H93_3 H 0.3390 0.4627 0.1566
H94_3 H 0.3192 0.4161 0.1463
H95_3 H 0.3498 0.4481 0.1119
O43_3 O 0.53627(14) 0.49863(11) 0.31048(8)
O45_3 O 0.50229(14) 0.60343(12) 0.25527(10)
O50_3 O 0.42665(16) 0.52221(13) 0.26553(11)
O53_3 O 0.46208(16) 0.49241(13) 0.28432(10)
O56_3 O 0.53801(17) 0.57356(14) 0.27492(11)
N20_3 N 0.42452(14) 0.58855(10) 0.21556(12)
O20_3 O 0.74815(14) 0.57618(8) 0.82168(9)
O22_3 O 0.82268(17) 0.56957(10) 0.83909(11)
O23_3 O 0.76781(15) 0.83104(9) 0.58860(10)
O24_3 O 0.70222(18) 0.79532(11) 0.60825(11)
N10_3 N 0.89187(24) 0.60199(14) 0.83273(17)
C84_3 C 0.79355(23) 0.70800(13) 0.75703(14)
H66_3 H 0.8130 0.7354 0.7564
C85_3 C 0.75640(22) 0.72042(13) 0.69451(14)
C86_3 C 0.79700(22) 0.68272(12) 0.78871(14)
H67_3 H 0.8183 0.6935 0.8093
C87_3 C 0.74526(22) 0.77341(13) 0.63751(13)
C88_3 C 0.76875(22) 0.64138(12) 0.78954(13)
C89_3 C 0.73793(22) 0.80260(13) 0.60943(14)
C90_3 C 0.77128(21) 0.61404(12) 0.82434(12)
C91_3 C 0.76142(22) 0.69270(13) 0.72611(14)
C92_3 C 0.78389(26) 0.78317(15) 0.65170(16)
H68_3 H 0.8064 0.8073 0.6423
C93_3 C 0.71234(24) 0.73731(14) 0.65168(15)
H69_3 H 0.6863 0.7305 0.6425
C94_3 C 0.73753(25) 0.62563(14) 0.75800(15)
H70_3 H 0.7188 0.5979 0.7577
C95_3 C 0.71778(24) 0.71103(14) 0.67940(16)
H71_3 H 0.6953 0.6866 0.6881
C96_3 C 0.73424(25) 0.65118(14) 0.72690(16)
H72_3 H 0.7132 0.6401 0.7059
C97_3 C 0.78910(26) 0.75702(15) 0.67975(16)
H73_3 H 0.8152 0.7640 0.6890
C98_3 C 0.85755(30) 0.59948(17) 0.84583(19)
H74_3 H 0.8593 0.6215 0.8613
C99_3 C 0.9322(4) 0.6380(2) 0.8435(3)
H75_3 H 0.9308 0.6623 0.8398
H76_3 H 0.9524 0.6386 0.8235
H77_3 H 0.9394 0.6361 0.8742
C100_3 C 0.8913(5) 0.5679(3) 0.8099(3)
H78_3 H 0.8707 0.5430 0.8232
H79_3 H 0.9173 0.5698 0.8129
H80_3 H 0.8853 0.5684 0.7785
O28_3 O 0.72990(12) 0.56553(8) 0.92194(10)
C104_3 C 0.69482(18) 0.58808(13) 0.97085(13)
C106_3 C 0.73134(18) 0.59541(13) 0.94277(14)
C109_3 C 0.66595(21) 0.54945(14) 0.98504(16)
H83_3 H 0.6676 0.5270 0.9757
C110_3 C 0.69164(20) 0.62100(14) 0.98502(15)
H84_3 H 0.7109 0.6471 0.9759
Co8_3 Co 0.566620(27) 0.774083(16) 0.619219(17)
O30_3 O 0.57618(15) 0.74815(9) 0.67832(9)
O31_3 O 0.62903(14) 0.79707(8) 0.64382(8)
O32_3 O 0.56957(17) 0.82268(10) 0.66091(11)
N12_3 N 0.60199(24) 0.89187(14) 0.66727(17)
C118_3 C 0.70800(24) 0.79355(14) 0.74297(14)
H96_3 H 0.7354 0.8130 0.7436
C119_3 C 0.72042(22) 0.75640(13) 0.80549(14)
C120_3 C 0.68272(22) 0.79700(13) 0.71129(14)
H97_3 H 0.6935 0.8183 0.6907
C121_3 C 0.77341(22) 0.74526(13) 0.86249(13)
C122_3 C 0.64138(22) 0.76875(13) 0.71046(13)
C123_3 C 0.80260(22) 0.73793(13) 0.89057(14)
C124_3 C 0.61404(21) 0.77128(12) 0.67566(12)
C125_3 C 0.69270(22) 0.76142(13) 0.77389(14)
C126_3 C 0.78317(25) 0.78389(14) 0.84830(16)
H98_3 H 0.8073 0.8064 0.8577
C127_3 C 0.73731(24) 0.71234(14) 0.84832(15)
H99_3 H 0.7305 0.6863 0.8575
C128_3 C 0.62563(26) 0.73753(15) 0.74200(15)
H100_3 H 0.5979 0.7188 0.7423
C129_3 C 0.71103(24) 0.71778(14) 0.82060(16)
H101_3 H 0.6866 0.6953 0.8119
C130_3 C 0.65118(26) 0.73424(16) 0.77310(16)
H102_3 H 0.6401 0.7132 0.7941
C131_3 C 0.75702(25) 0.78910(14) 0.82025(16)
H103_3 H 0.7640 0.8152 0.8110
C132_3 C 0.59948(31) 0.85755(18) 0.65417(19)
H104_3 H 0.6215 0.8593 0.6387
C133_3 C 0.6380(4) 0.9322(2) 0.6565(3)
H105_3 H 0.6623 0.9308 0.6602
H106_3 H 0.6386 0.9524 0.6765
H107_3 H 0.6361 0.9394 0.6258
C134_3 C 0.5679(4) 0.8913(2) 0.6901(3)
H108_3 H 0.5430 0.8707 0.6768
H109_3 H 0.5698 0.9173 0.6871
H110_3 H 0.5684 0.8853 0.7215
C153_3 C 0.93077(22) 0.73996(13) 0.84088(14)
C154_3 C 0.90034(22) 0.73217(13) 0.87765(14)
C155_3 C 0.94624(29) 0.72837(17) 0.76594(17)
H123_3 H 0.9378 0.7136 0.7392
C156_3 C 0.91872(27) 0.71876(16) 0.80186(16)
H124_3 H 0.8921 0.6977 0.7987
C157_3 C 0.99802(29) 0.77923(18) 0.81101(16)
C158_3 C 0.98567(29) 0.75953(17) 0.77023(16)
C159_3 C 0.97067(28) 0.77008(17) 0.84588(17)
H126_3 H 0.9793 0.7843 0.8729
H129_3 H 0.9749 0.7739 0.6849
O46_3 O 0.56553(15) 0.72990(12) 0.57806(10)
O49_3 O 0.57110(16) 0.81112(13) 0.56780(11)
N19_3 N 0.50264(17) 0.74479(10) 0.61778(12)
O1_2 O 0.08148(9) 0.24285(8) 0.48835(9)
O2_2 O 0.13040(8) 0.29570(8) 0.52285(8)
O3_2 O 0.15601(10) 0.23624(10) 0.50576(11)
O6_2 O 0.20459(9) 0.36367(9) 0.54901(10)
N1_2 N 0.04167(10) 0.02244(9) 0.55715(13)
N2_2 N 0.07812(10) 0.16931(10) 0.54889(12)
N3_2 N 0.22520(14) 0.26866(14) 0.49940(17)
C1_2 C 0.12688(14) 0.37467(13) 0.42370(14)
H1_2 H 0.1463 0.4021 0.4231
C2_2 C 0.01835(11) 0.03951(12) 0.55707(15)
C3_2 C 0.03903(11) 0.08476(11) 0.55522(15)
C4_2 C 0.08973(13) 0.38709(13) 0.36118(14)
C5_2 C 0.13033(13) 0.34939(12) 0.45538(14)
H2_2 H 0.1516 0.3602 0.4760
C6_2 C 0.26410(12) 0.40663(13) 0.50755(14)
C7_2 C 0.07859(13) 0.44008(13) 0.30418(13)
C8_2 C 0.10208(13) 0.30805(12) 0.45621(13)
C9_2 C 0.07126(13) 0.46927(13) 0.27610(14)
C10_2 C 0.01742(13) 0.10491(12) 0.55217(18)
C11_2 C 0.10461(12) 0.28071(12) 0.49101(12)
C12_2 C 0.08137(12) 0.10843(12) 0.55512(17)
H4_2 H 0.0973 0.0962 0.5572
C13_2 C 0.09475(13) 0.35937(13) 0.39278(14)
C14_2 C 0.11722(14) 0.44984(15) 0.31837(16)
H5_2 H 0.1397 0.4740 0.3090
C15_2 C 0.23367(12) 0.39884(13) 0.54432(14)
C16_2 C 0.09921(14) 0.14993(13) 0.55191(16)
H6_2 H 0.1274 0.1653 0.5518
C17_2 C 0.04567(14) 0.40398(14) 0.31835(15)
H7_2 H 0.0196 0.3972 0.3092
C18_2 C 0.07086(15) 0.29230(14) 0.42467(15)
H8_2 H 0.0521 0.2646 0.4244
C19_2 C 0.27957(16) 0.39504(17) 0.43261(17)
H9_2 H 0.2711 0.3803 0.4059
C20_2 C 0.05111(14) 0.37770(14) 0.34607(16)
H10_2 H 0.0286 0.3533 0.3548
C21_2 C 0.06757(16) 0.31785(14) 0.39357(16)
H11_2 H 0.0465 0.3068 0.3726
C22_2 C 0.12243(14) 0.42369(15) 0.34642(16)
H12_2 H 0.1485 0.4307 0.3557
C23_2 C 0.03788(13) 0.14663(13) 0.54937(16)
H13_2 H 0.0227 0.1597 0.5477
C24_2 C 0.25205(15) 0.38543(16) 0.46853(16)
H14_2 H 0.2254 0.3644 0.4654
C25_2 C 0.33135(15) 0.44590(18) 0.47768(16)
H15_2 H 0.3584 0.4656 0.4818
C26_2 C 0.31900(15) 0.42620(17) 0.43690(16)
C27_2 C 0.30400(14) 0.43675(17) 0.51255(17)
H16_2 H 0.3126 0.4510 0.5396
C28_2 C 0.19088(18) 0.26615(17) 0.51250(19)
H17_2 H 0.1926 0.2882 0.5280
C29_2 C 0.2655(2) 0.3047(2) 0.5102(3)
H18_2 H 0.2641 0.3290 0.5065
H19_2 H 0.2857 0.3053 0.4902
H20_2 H 0.2727 0.3028 0.5409
C30_2 C 0.2246(2) 0.2346(3) 0.4766(3)
H21_2 H 0.2040 0.2097 0.4899
H22_2 H 0.2506 0.2365 0.4796
H23_2 H 0.2186 0.2351 0.4452
C31_2 C 0.40257(12) 0.47586(18) 0.32578(14)
C32_2 C 0.43300(12) 0.49850(18) 0.28901(14)
C33_2 C 0.38710(16) 0.44880(23) 0.40072(17)
H24_2 H 0.3956 0.4425 0.4274
C34_2 C 0.41462(15) 0.46671(22) 0.36480(16)
H25_2 H 0.4413 0.4723 0.3679
C35_2 C 0.33532(15) 0.44788(23) 0.35565(16)
H26_2 H 0.3083 0.4405 0.3515
C36_2 C 0.34767(15) 0.44053(23) 0.39643(16)
C37_2 C 0.36267(14) 0.46608(22) 0.32078(17)
H27_2 H 0.3541 0.4717 0.2937
H28_2 H 0.1012 0.0108 0.5520
O29_2 O 0.12866(11) 0.36888(9) 0.55841(11)
C101_4 C 0.04134(13) 0.46021(14) 0.40963(14)
H81_4 H 0.0688 0.4796 0.4102
C102_4 C 0.05376(13) 0.42306(13) 0.47215(14)
C103_4 C 0.01606(12) 0.46366(13) 0.37795(14)
H82_4 H 0.0269 0.4849 0.3573
C104_4 C 0.10675(13) 0.41192(13) 0.52915(13)
C106_4 C 0.13594(13) 0.40459(13) 0.55723(14)
C108_4 C 0.02604(13) 0.42808(13) 0.44055(14)
C109_4 C 0.11651(15) 0.45055(14) 0.51496(16)
H83_4 H 0.1407 0.4730 0.5243
C110_4 C 0.07065(14) 0.37900(14) 0.51498(15)
H84_4 H 0.0639 0.3529 0.5241
C112_4 C 0.04437(14) 0.38444(14) 0.48726(16)
H86_4 H 0.0200 0.3619 0.4785
C114_4 C 0.09036(15) 0.45576(14) 0.48691(16)
H88_4 H 0.0974 0.4818 0.4776
N13_2 N 0.35256(13) 0.64423(9) 0.60952(13)
C135_2 C 0.31217(16) 0.62716(12) 0.60960(15)
C136_2 C 0.28760(16) 0.58191(11) 0.61145(15)
C137_2 C 0.24584(18) 0.56176(12) 0.61450(18)
H111_2 H 0.2321 0.5763 0.6147
C138_2 C 0.30627(17) 0.55824(12) 0.61155(17)
H112_2 H 0.3344 0.5705 0.6095
C139_2 C 0.28261(19) 0.51674(13) 0.61476(16)
H113_2 H 0.2954 0.5014 0.6149
C140_2 C 0.22458(18) 0.52004(13) 0.61730(16)
H114_2 H 0.1963 0.5070 0.6190
N15_2 N 0.35577(9) 0.70834(10) 0.60952(13)
C141_2 C 0.37284(12) 0.68502(11) 0.60960(15)
C142_2 C 0.41809(11) 0.70570(11) 0.61145(15)
C143_2 C 0.43824(12) 0.68409(13) 0.61450(18)
H115_2 H 0.4237 0.6559 0.6147
C144_2 C 0.44176(12) 0.74804(12) 0.61155(17)
H116_2 H 0.4295 0.7640 0.6095
C145_2 C 0.48326(13) 0.76588(14) 0.61476(16)
H117_2 H 0.4986 0.7941 0.6149
C146_2 C 0.47996(13) 0.70455(13) 0.61730(16)
H118_2 H 0.4930 0.6894 0.6190
N17_2 N 0.29166(10) 0.64744(13) 0.60952(13)
C147_2 C 0.31498(11) 0.68783(16) 0.60960(15)
C148_2 C 0.29430(11) 0.71240(16) 0.61145(15)
C149_2 C 0.31591(13) 0.75416(18) 0.61450(18)
H119_2 H 0.3441 0.7679 0.6147
C150_2 C 0.25196(12) 0.69373(17) 0.61155(17)
H120_2 H 0.2360 0.6656 0.6095
C151_2 C 0.23412(14) 0.71739(19) 0.61476(16)
H121_2 H 0.2059 0.7046 0.6149
C152_2 C 0.29545(13) 0.77542(18) 0.61730(16)
H122_2 H 0.3106 0.8037 0.6190
Co9_2 Co 0.0000 0.483256(18) 0.2500
N5_2 N 0.09119(14) 0.92188(10) 0.54889(12)
C38_2 C 0.02116(16) 0.98165(11) 0.55707(15)
C39_2 C 0.04573(16) 0.96097(11) 0.55522(15)
C40_2 C 0.08749(18) 0.98258(13) 0.55217(18)
C41_2 C 0.02706(17) 0.91863(12) 0.55512(17)
C42_2 C 0.05072(19) 0.90079(14) 0.55191(16)
H30_2 H 0.0379 0.8726 0.5518
C43_2 C 0.10875(18) 0.96212(13) 0.54937(16)
H31_2 H 0.1370 0.9773 0.5477
O10_2 O 0.16137(12) 0.91852(9) 0.48835(9)
O11_2 O 0.16530(11) 0.86960(8) 0.52285(8)
O12_2 O 0.08023(14) 0.84399(10) 0.50576(11)
N8_2 N 0.04346(20) 0.77480(14) 0.49940(17)
C50_2 C 0.24779(19) 0.87312(14) 0.42370(14)
H36_2 H 0.2558 0.8537 0.4231
C51_2 C 0.29736(18) 0.91027(13) 0.36118(14)
C52_2 C 0.21906(18) 0.86967(13) 0.45538(14)
H37_2 H 0.2086 0.8484 0.4760
C53_2 C 0.36149(18) 0.92141(13) 0.30418(13)
C54_2 C 0.20597(18) 0.89792(13) 0.45621(13)
C55_2 C 0.39801(18) 0.92874(13) 0.27610(14)
C56_2 C 0.17610(17) 0.89539(12) 0.49101(12)
C57_2 C 0.26462(18) 0.90525(13) 0.39278(14)
C58_2 C 0.33262(21) 0.88278(14) 0.31837(16)
H38_2 H 0.3343 0.8603 0.3090
C59_2 C 0.35831(20) 0.95433(14) 0.31835(15)
H39_2 H 0.3776 0.9804 0.3092
C60_2 C 0.22144(21) 0.92914(15) 0.42467(15)
H40_2 H 0.2125 0.9479 0.4244
C61_2 C 0.32659(20) 0.94889(14) 0.34607(16)
H41_2 H 0.3247 0.9714 0.3548
C62_2 C 0.25028(21) 0.93243(16) 0.39357(16)
H42_2 H 0.2603 0.9535 0.3726
C63_2 C 0.30126(21) 0.87757(14) 0.34642(16)
H43_2 H 0.2822 0.8515 0.3557
C64_2 C 0.07527(25) 0.80912(18) 0.51250(19)
H44_2 H 0.0956 0.8074 0.5280
C65_2 C 0.0392(3) 0.7345(2) 0.5102(3)
H45_2 H 0.0649 0.7359 0.5065
H46_2 H 0.0196 0.7143 0.4902
H47_2 H 0.0301 0.7273 0.5409
C66_2 C 0.0100(4) 0.7754(2) 0.4766(3)
H48_2 H 0.0057 0.7960 0.4899
H50_2 H 0.0165 0.7814 0.4452
O40_3 O 0.15908(13) 0.79541(9) 0.54901(10)
C167_3 C 0.14253(18) 0.73590(12) 0.50755(14)
C168_3 C 0.16517(18) 0.76633(12) 0.54432(14)
C169_3 C 0.11547(23) 0.72043(16) 0.43261(17)
H131_3 H 0.1092 0.7289 0.4059
C170_3 C 0.13338(22) 0.74795(15) 0.46853(16)
H132_3 H 0.1390 0.7746 0.4654
C171_3 C 0.11455(23) 0.66865(15) 0.47768(16)
H133_3 H 0.1072 0.6416 0.4818
C172_3 C 0.10720(23) 0.68100(15) 0.43690(16)
C173_3 C 0.13275(22) 0.69600(14) 0.51255(17)
H134_3 H 0.1384 0.6874 0.5396
C174_3 C 0.07330(13) 0.59743(12) 0.32578(14)
C175_3 C 0.06551(13) 0.56700(12) 0.28901(14)
C176_3 C 0.06171(17) 0.61290(16) 0.40072(17)
H135_3 H 0.0470 0.6044 0.4274
C177_3 C 0.05210(16) 0.58538(15) 0.36480(16)
H136_3 H 0.0311 0.5587 0.3679
C178_3 C 0.11257(18) 0.66468(15) 0.35565(16)
H137_3 H 0.1323 0.6917 0.3515
C179_3 C 0.09287(17) 0.65233(15) 0.39643(16)
C180_3 C 0.10342(17) 0.63733(14) 0.32078(17)
H138_3 H 0.1177 0.6459 0.2937
Co13_2 Co 0.483222(18) 1.0000 0.2500
O58_3 O 0.24023(14) 0.87134(11) 0.55841(11)
H3_2 H 0.9892 0.0904 0.5520
N6_2 N 0.97756(9) 0.01923(13) 0.55715(13)
H33_2 H 0.9038 0.0011 0.5572
H64_2 H 0.7635 0.0141 0.4796
O25_4 O 0.90952(8) 0.41481(9) 0.34498(9)
O27_4 O 0.90291(10) 0.48934(10) 0.32757(11)
N11_4 N 0.93533(14) 0.55853(14) 0.33393(17)
C105_4 C 0.97472(12) 0.43541(13) 0.37712(13)
C107_4 C 0.94738(12) 0.43794(12) 0.34232(12)
C111_4 C 0.95897(14) 0.40419(15) 0.40866(15)
H85_4 H 0.9313 0.3854 0.4089
C113_4 C 0.98452(14) 0.40090(16) 0.43976(16)
H87_4 H 0.9735 0.3798 0.4607
C115_4 C 0.93282(17) 0.52421(18) 0.32083(19)
H89_4 H 0.9549 0.5259 0.3053
C116_4 C 0.9714(2) 0.5988(2) 0.3231(3)
H90_4 H 0.9957 0.5974 0.3268
H91_4 H 0.9720 0.6190 0.3431
H92_4 H 0.9695 0.6060 0.2924
C117_4 C 0.9013(3) 0.5579(2) 0.3567(3)
H93_4 H 0.8764 0.5373 0.3434
H94_4 H 0.9032 0.5839 0.3537
H95_4 H 0.9018 0.5519 0.3881
N20_4 N 0.83598(10) 0.41145(10) 0.28444(12)
N4_2 N 0.98077(13) 0.95833(10) 0.55715(13)
H29_2 H 0.9989 0.9027 0.5572
N7_2 N 0.83069(10) 0.90881(14) 0.54889(12)
C44_2 C 0.96049(12) 0.97884(16) 0.55707(15)
C45_2 C 0.91524(11) 0.95427(16) 0.55522(15)
C46_2 C 0.89509(12) 0.91251(18) 0.55217(18)
H32_2 H 0.9096 0.8988 0.5520
C47_2 C 0.89157(12) 0.97294(17) 0.55512(17)
C48_2 C 0.85007(13) 0.94928(19) 0.55191(16)
H34_2 H 0.8347 0.9621 0.5518
C49_2 C 0.85337(13) 0.89125(18) 0.54937(16)
H35_2 H 0.8403 0.8630 0.5477
H49_2 H 0.9859 0.7494 0.4796
O15_2 O 0.75715(8) 0.83863(12) 0.48835(9)
O16_2 O 0.70430(8) 0.83470(11) 0.52285(8)
O17_2 O 0.76376(10) 0.91977(14) 0.50576(11)
N9_2 N 0.73134(14) 0.95654(20) 0.49940(17)
C67_2 C 0.62533(13) 0.75221(19) 0.42370(14)
H51_2 H 0.5979 0.7442 0.4231
C68_2 C 0.61291(13) 0.70264(18) 0.36118(14)
C69_2 C 0.65061(12) 0.78094(18) 0.45538(14)
H52_2 H 0.6398 0.7914 0.4760
C70_2 C 0.55992(13) 0.63851(18) 0.30418(13)
C71_2 C 0.69195(12) 0.79403(18) 0.45621(13)
C72_2 C 0.53073(13) 0.60199(18) 0.27610(14)
C73_2 C 0.71929(12) 0.82390(17) 0.49101(12)
C74_2 C 0.64063(13) 0.73538(18) 0.39278(14)
C75_2 C 0.55016(15) 0.66738(21) 0.31837(16)
H53_2 H 0.5260 0.6657 0.3090
C76_2 C 0.59602(14) 0.64169(20) 0.31835(15)
H54_2 H 0.6028 0.6224 0.3092
C77_2 C 0.70770(14) 0.77856(21) 0.42467(15)
H55_2 H 0.7354 0.7875 0.4244
C78_2 C 0.62230(14) 0.67341(20) 0.34607(16)
H56_2 H 0.6467 0.6753 0.3548
C79_2 C 0.68215(14) 0.74972(21) 0.39357(16)
H57_2 H 0.6932 0.7397 0.3726
C80_2 C 0.57631(15) 0.69874(21) 0.34642(16)
H58_2 H 0.5693 0.7178 0.3557
C81_2 C 0.73385(17) 0.92473(25) 0.51250(19)
H59_2 H 0.7118 0.9044 0.5280
C82_2 C 0.6953(2) 0.9608(3) 0.5102(3)
H60_2 H 0.6710 0.9351 0.5065
H61_2 H 0.6947 0.9804 0.4902
H62_2 H 0.6972 0.9699 0.5409
C83_2 C 0.7654(3) 0.9900(4) 0.4766(3)
H63_2 H 0.7903 0.9943 0.4899
H65_2 H 0.7649 0.9835 0.4452
O6_3 O 0.63633(9) 0.84092(13) 0.54901(10)
C6_3 C 0.59337(13) 0.85747(18) 0.50755(14)
C15_3 C 0.60116(13) 0.83483(18) 0.54432(14)
C19_3 C 0.60496(17) 0.88453(23) 0.43261(17)
H9_3 H 0.6197 0.8908 0.4059
C24_3 C 0.61457(16) 0.86662(22) 0.46853(16)
H14_3 H 0.6356 0.8610 0.4654
C25_3 C 0.55410(18) 0.88545(23) 0.47768(16)
H15_3 H 0.5344 0.8928 0.4818
C26_3 C 0.57380(17) 0.89280(23) 0.43690(16)
C27_3 C 0.56325(17) 0.86725(22) 0.51255(17)
H16_3 H 0.5490 0.8616 0.5396
C31_3 C 0.52414(18) 0.92670(22) 0.32578(14)
C32_3 C 0.50150(18) 0.93449(22) 0.28901(14)
C33_3 C 0.55120(23) 0.93829(28) 0.40072(17)
H24_3 H 0.5575 0.9530 0.4274
C34_3 C 0.53329(22) 0.94790(27) 0.36480(16)
H25_3 H 0.5277 0.9689 0.3679
C35_3 C 0.55212(23) 0.88743(27) 0.35565(16)
H26_3 H 0.5595 0.8677 0.3515
C36_3 C 0.55947(23) 0.90713(27) 0.39643(16)
C37_3 C 0.53392(22) 0.89658(26) 0.32078(17)
H27_3 H 0.5283 0.8823 0.2937
O25_5 O 0.58519(9) 0.49470(12) 0.34498(9)
O27_5 O 0.51066(10) 0.41356(14) 0.32757(11)
O29_3 O 0.63112(9) 0.75977(14) 0.55841(11)
N11_5 N 0.44147(14) 0.37679(20) 0.33393(17)
C101_5 C 0.53979(14) 0.58112(19) 0.40963(14)
H81_5 H 0.5204 0.5891 0.4102
C102_5 C 0.57694(13) 0.63069(18) 0.47215(14)
C103_5 C 0.53634(13) 0.55239(18) 0.37795(14)
H82_5 H 0.5151 0.5419 0.3573
C104_5 C 0.58808(13) 0.69482(18) 0.52915(13)
C105_5 C 0.56459(13) 0.53930(18) 0.37712(13)
C106_5 C 0.59541(13) 0.73134(18) 0.55723(14)
C107_5 C 0.56206(12) 0.50943(17) 0.34232(12)
C108_5 C 0.57192(13) 0.59795(18) 0.44055(14)
C109_5 C 0.54945(14) 0.66595(21) 0.51496(16)
H83_5 H 0.5270 0.6676 0.5243
C110_5 C 0.62100(14) 0.69164(20) 0.51498(15)
H84_5 H 0.6471 0.7109 0.5241
C111_5 C 0.59581(15) 0.55477(21) 0.40866(15)
H85_5 H 0.6146 0.5458 0.4089
C112_5 C 0.61556(14) 0.65992(20) 0.48726(16)
H86_5 H 0.6381 0.6580 0.4785
C113_5 C 0.59910(16) 0.58361(21) 0.43976(16)
H87_5 H 0.6202 0.5936 0.4607
C114_5 C 0.54424(14) 0.63459(21) 0.48691(16)
H88_5 H 0.5182 0.6155 0.4776
C115_5 C 0.47579(18) 0.40860(25) 0.32083(19)
H89_5 H 0.4741 0.4289 0.3053
C116_5 C 0.4012(2) 0.3725(3) 0.3231(3)
H90_5 H 0.4026 0.3982 0.3268
H91_5 H 0.3810 0.3529 0.3431
H92_5 H 0.3940 0.3634 0.2924
C117_5 C 0.4421(2) 0.3433(4) 0.3567(3)
H93_5 H 0.4627 0.3390 0.3434
H94_5 H 0.4161 0.3192 0.3537
H95_5 H 0.4481 0.3498 0.3881
N20_5 N 0.58855(10) 0.42452(14) 0.28444(12)
O25_6 O 0.50530(12) 0.09048(8) 0.34498(9)
O27_6 O 0.58644(14) 0.09709(10) 0.32757(11)
N11_6 N 0.62321(20) 0.06467(14) 0.33393(17)
C105_6 C 0.46070(18) 0.02528(12) 0.37712(13)
C107_6 C 0.49057(17) 0.05262(12) 0.34232(12)
C111_6 C 0.44523(21) 0.04103(14) 0.40866(15)
H85_6 H 0.4542 0.0687 0.4089
C113_6 C 0.41639(21) 0.01548(14) 0.43976(16)
H87_6 H 0.4064 0.0265 0.4607
C115_6 C 0.59140(25) 0.06718(17) 0.32083(19)
H89_6 H 0.5711 0.0451 0.3053
C116_6 C 0.6275(3) 0.0286(2) 0.3231(3)
H90_6 H 0.6018 0.0043 0.3268
H91_6 H 0.6471 0.0280 0.3431
H92_6 H 0.6366 0.0305 0.2924
C117_6 C 0.6567(4) 0.0987(3) 0.3567(3)
H93_6 H 0.6610 0.1236 0.3434
H94_6 H 0.6808 0.0968 0.3537
H95_6 H 0.6502 0.0982 0.3881
N20_6 N 0.57548(14) 0.16402(10) 0.28444(12)
C101_6 C 0.41888(19) 0.95866(13) 0.40963(14)
H81_6 H 0.4109 0.9312 0.4102
C102_6 C 0.36931(18) 0.94624(13) 0.47215(14)
C103_6 C 0.44761(18) 0.98394(12) 0.37795(14)
H82_6 H 0.4581 0.9731 0.3573
C104_6 C 0.30518(18) 0.89325(13) 0.52915(13)
C106_6 C 0.26866(18) 0.86406(13) 0.55723(14)
C108_6 C 0.40205(18) 0.97396(13) 0.44055(14)
C109_6 C 0.33405(21) 0.88349(15) 0.51496(16)
H83_6 H 0.3324 0.8593 0.5243
C110_6 C 0.30836(20) 0.92935(14) 0.51498(15)
H84_6 H 0.2891 0.9361 0.5241
C112_6 C 0.34008(20) 0.95563(14) 0.48726(16)
H86_6 H 0.3420 0.9800 0.4785
C114_6 C 0.36541(21) 0.90964(15) 0.48691(16)
H88_6 H 0.3845 0.9026 0.4776
N13_3 N 0.31089(9) 0.68590(13) 0.22382(13)
C135_3 C 0.29382(12) 0.64551(16) 0.22374(15)
C136_3 C 0.24857(11) 0.62094(16) 0.22189(15)
C137_3 C 0.22842(12) 0.57918(18) 0.21884(18)
H111_3 H 0.2429 0.5655 0.2187
C138_3 C 0.22490(12) 0.63961(17) 0.22179(17)
H112_3 H 0.2371 0.6678 0.2239
C139_3 C 0.18340(13) 0.61595(19) 0.21858(16)
H113_3 H 0.1680 0.6288 0.2185
C140_3 C 0.18670(13) 0.55792(18) 0.21604(16)
H114_3 H 0.1736 0.5297 0.2144
N15_3 N 0.37500(10) 0.68911(9) 0.22382(13)
C141_3 C 0.35168(11) 0.70618(12) 0.22374(15)
C142_3 C 0.37236(11) 0.75143(11) 0.22189(15)
C143_3 C 0.35075(13) 0.77158(12) 0.21884(18)
H115_3 H 0.3225 0.7571 0.2187
C144_3 C 0.41470(12) 0.77510(12) 0.22179(17)
H116_3 H 0.4306 0.7629 0.2239
C145_3 C 0.43254(14) 0.81660(13) 0.21858(16)
H117_3 H 0.4607 0.8320 0.2185
C146_3 C 0.37121(13) 0.81330(13) 0.21604(16)
H118_3 H 0.3560 0.8264 0.2144
N17_3 N 0.31410(13) 0.62500(10) 0.22382(13)
C147_3 C 0.35449(16) 0.64832(11) 0.22374(15)
C148_3 C 0.37906(16) 0.62764(11) 0.22189(15)
C149_3 C 0.42082(18) 0.64925(13) 0.21884(18)
H119_3 H 0.4345 0.6775 0.2187
C150_3 C 0.36039(17) 0.58530(12) 0.22179(17)
H120_3 H 0.3322 0.5694 0.2239
C151_3 C 0.38405(19) 0.56746(14) 0.21858(16)
H121_3 H 0.3712 0.5393 0.2185
C152_3 C 0.44208(18) 0.62879(13) 0.21604(16)
H122_3 H 0.4703 0.6440 0.2144
N1_3 N 0.68911(9) 0.37500(10) 0.27618(13)
C2_3 C 0.70618(12) 0.35168(11) 0.27626(15)
C3_3 C 0.75143(11) 0.37236(11) 0.27811(15)
C10_3 C 0.77158(12) 0.35075(13) 0.28116(18)
H3_3 H 0.7571 0.3225 0.2813
C12_3 C 0.77510(12) 0.41470(12) 0.27821(17)
H4_3 H 0.7629 0.4306 0.2761
C16_3 C 0.81660(13) 0.43254(14) 0.28142(16)
H6_3 H 0.8320 0.4607 0.2815
C23_3 C 0.81330(13) 0.37121(13) 0.28396(16)
H13_3 H 0.8264 0.3560 0.2856
N4_3 N 0.62500(10) 0.31410(13) 0.27618(13)
C38_3 C 0.64832(11) 0.35449(16) 0.27626(15)
C39_3 C 0.62764(11) 0.37906(16) 0.27811(15)
C40_3 C 0.64925(13) 0.42082(18) 0.28116(18)
H28_3 H 0.6775 0.4345 0.2813
C41_3 C 0.58530(12) 0.36039(17) 0.27821(17)
H29_3 H 0.5694 0.3322 0.2761
C42_3 C 0.56746(14) 0.38405(19) 0.28142(16)
H30_3 H 0.5393 0.3712 0.2815
C43_3 C 0.62879(13) 0.44208(18) 0.28396(16)
H31_3 H 0.6440 0.4703 0.2856
N6_3 N 0.68590(13) 0.31089(9) 0.27618(13)
C44_3 C 0.64551(16) 0.29382(12) 0.27626(15)
C45_3 C 0.62094(16) 0.24857(11) 0.27811(15)
C46_3 C 0.57918(18) 0.22842(12) 0.28116(18)
H32_3 H 0.5655 0.2429 0.2813
C47_3 C 0.63961(17) 0.22490(12) 0.27821(17)
H33_3 H 0.6678 0.2371 0.2761
C48_3 C 0.61595(19) 0.18340(13) 0.28142(16)
H34_3 H 0.6288 0.1680 0.2815
C49_3 C 0.55792(18) 0.18670(13) 0.28396(16)
H35_3 H 0.5297 0.1736 0.2856
N4_4 N 0.04167(10) 0.01923(13) 0.05715(13)
H29_4 H 0.0973 0.0011 0.0572
N7_3 N 0.09119(14) 0.16931(10) 0.04889(12)
C44_4 C 0.02116(16) 0.03951(12) 0.05707(15)
C45_4 C 0.04573(16) 0.08476(11) 0.05522(15)
C46_4 C 0.08749(18) 0.10491(12) 0.05217(18)
H32_4 H 0.1012 0.0904 0.0520
C47_4 C 0.02706(17) 0.10843(12) 0.05512(17)
C48_4 C 0.05072(19) 0.14993(13) 0.05191(16)
H34_4 H 0.0379 0.1653 0.0518
C49_4 C 0.10875(18) 0.14663(13) 0.04937(16)
H35_4 H 0.1370 0.1597 0.0477
Co5_2 Co 0.125871(22) 0.233287(15) 0.047448(17)
O16_3 O 0.16530(11) 0.29570(8) 0.02285(8)
O17_3 O 0.08023(14) 0.23624(10) 0.00576(11)
C81_3 C 0.07527(25) 0.26615(17) 0.01250(19)
H59_3 H 0.0956 0.2882 0.0280
C82_3 C 0.0392(3) 0.3047(2) 0.0102(3)
H60_3 H 0.0649 0.3290 0.0065
H62_3 H 0.0301 0.3028 0.0409
Co10_2 Co 0.183411(18) 0.3333 0.0833
O47_2 O 0.16896(9) 0.23219(8) 0.08860(10)
O51_2 O 0.09331(9) 0.23777(9) 0.09887(11)
H49_3 H 0.2506 0.0141 0.9796
O15_3 O 0.16137(12) 0.24285(8) 0.98835(9)
O18_2 O 0.39657(12) 0.49771(9) 0.75527(10)
O19_2 O 0.42644(14) 0.46199(11) 0.77492(11)
N9_3 N 0.04346(20) 0.26866(14) 0.99940(17)
C67_3 C 0.24779(19) 0.37467(13) 0.92370(14)
H51_3 H 0.2558 0.4021 0.9231
C68_3 C 0.29736(18) 0.38709(13) 0.86118(14)
C69_3 C 0.21906(18) 0.34939(12) 0.95538(14)
H52_3 H 0.2086 0.3602 0.9760
C70_3 C 0.36149(18) 0.44008(13) 0.80418(13)
C71_3 C 0.20597(18) 0.30805(12) 0.95621(13)
C72_3 C 0.39801(18) 0.46927(13) 0.77610(14)
C73_3 C 0.17610(17) 0.28071(12) 0.99101(12)
C74_3 C 0.26462(18) 0.35937(13) 0.89278(14)
C75_3 C 0.33262(21) 0.44984(15) 0.81837(16)
H53_3 H 0.3343 0.4740 0.8090
C76_3 C 0.35831(20) 0.40398(14) 0.81835(15)
H54_3 H 0.3776 0.3972 0.8092
C77_3 C 0.22144(21) 0.29230(14) 0.92467(15)
H55_3 H 0.2125 0.2646 0.9244
C78_3 C 0.32659(20) 0.37770(14) 0.84607(16)
H56_3 H 0.3247 0.3533 0.8548
C79_3 C 0.25028(21) 0.31785(14) 0.89357(16)
H57_3 H 0.2603 0.3068 0.8726
C80_3 C 0.30126(21) 0.42369(15) 0.84642(16)
H58_3 H 0.2822 0.4307 0.8557
H61_3 H 0.0196 0.3053 0.9902
C83_3 C 0.0100(4) 0.2346(3) 0.9766(3)
H63_3 H 0.0057 0.2097 0.9899
H65_3 H 0.0165 0.2351 0.9452
Co14 Co 0.483222(18) 0.483256(18) 0.7500
Co20 Co 0.440749(16) 0.540796(22) 0.714115(17)
N5_3 N 0.07812(10) 0.90881(14) 0.04889(12)
C38_4 C 0.01835(11) 0.97884(16) 0.05707(15)
C39_4 C 0.03903(11) 0.95427(16) 0.05522(15)
C40_4 C 0.01742(13) 0.91251(18) 0.05217(18)
C41_4 C 0.08137(12) 0.97294(17) 0.05512(17)
C42_4 C 0.09921(14) 0.94928(19) 0.05191(16)
H30_4 H 0.1274 0.9621 0.0518
C43_4 C 0.03788(13) 0.89125(18) 0.04937(16)
H31_4 H 0.0227 0.8630 0.0477
Co3_2 Co 0.149889(18) 0.816589(18) 0.0833
Co4_2 Co 0.107416(16) 0.874129(22) 0.047448(17)
O11_3 O 0.13040(8) 0.83470(11) 0.02285(8)
O12_3 O 0.15601(10) 0.91977(14) 0.00576(11)
C64_3 C 0.19088(18) 0.92473(25) 0.01250(19)
H44_3 H 0.1926 0.9044 0.0280
C65_3 C 0.2655(2) 0.9608(3) 0.0102(3)
H45_3 H 0.2641 0.9351 0.0065
H47_3 H 0.2727 0.9699 0.0409
O39_3 O 0.24002(9) 0.81112(13) 0.06780(11)
O40_4 O 0.20459(9) 0.84092(13) 0.04901(10)
C167_4 C 0.26410(12) 0.85747(18) 0.00755(14)
C168_4 C 0.23367(12) 0.83483(18) 0.04432(14)
C173_4 C 0.30400(14) 0.86725(22) 0.01255(17)
H134_4 H 0.3126 0.8616 0.0396
Co25 Co 0.207462(22) 0.774083(16) 0.119219(17)
O44_3 O 0.16803(11) 0.79707(8) 0.14382(8)
O48_2 O 0.06324(12) 0.83104(9) 0.08860(10)
O52_2 O 0.14445(13) 0.90669(9) 0.09887(11)
O54_3 O 0.17425(13) 0.87126(9) 0.11766(10)
O57_3 O 0.09311(14) 0.79532(11) 0.10825(11)
O58_4 O 0.12866(11) 0.75977(14) 0.05841(11)
O10_3 O 0.08148(9) 0.83863(12) 0.98835(9)
O13_2 O 0.10114(8) 0.60343(12) 0.75527(10)
O14_2 O 0.03555(9) 0.57356(14) 0.77492(11)
N8_3 N 0.22520(14) 0.95654(20) 0.99940(17)
C50_3 C 0.12688(14) 0.75221(19) 0.92370(14)
H36_3 H 0.1463 0.7442 0.9231
C51_3 C 0.08973(13) 0.70264(18) 0.86118(14)
C52_3 C 0.13033(13) 0.78094(18) 0.95538(14)
H37_3 H 0.1516 0.7914 0.9760
C53_3 C 0.07859(13) 0.63851(18) 0.80418(13)
C54_3 C 0.10208(13) 0.79403(18) 0.95621(13)
C55_3 C 0.07126(13) 0.60199(18) 0.77610(14)
C56_3 C 0.10461(12) 0.82390(17) 0.99101(12)
C57_3 C 0.09475(13) 0.73538(18) 0.89278(14)
C58_3 C 0.11722(14) 0.66738(21) 0.81837(16)
H38_3 H 0.1397 0.6657 0.8090
C59_3 C 0.04567(14) 0.64169(20) 0.81835(15)
H39_3 H 0.0196 0.6224 0.8092
C60_3 C 0.07086(15) 0.77856(21) 0.92467(15)
H40_3 H 0.0521 0.7875 0.9244
C61_3 C 0.05111(14) 0.67341(20) 0.84607(16)
H41_3 H 0.0286 0.6753 0.8548
C62_3 C 0.06757(16) 0.74972(21) 0.89357(16)
H42_3 H 0.0465 0.7397 0.8726
C63_3 C 0.12243(14) 0.69874(21) 0.84642(16)
H43_3 H 0.1485 0.7178 0.8557
H46_3 H 0.2857 0.9804 0.9902
C66_3 C 0.2246(2) 0.9900(4) 0.9766(3)
H48_3 H 0.2040 0.9943 0.9899
H50_3 H 0.2186 0.9835 0.9452
C169_4 C 0.27957(16) 0.88453(23) 0.93261(17)
H131_4 H 0.2711 0.8908 0.9059
C170_4 C 0.25205(15) 0.86662(22) 0.96853(16)
H132_4 H 0.2254 0.8610 0.9654
C171_4 C 0.33135(15) 0.88545(23) 0.97768(16)
H133_4 H 0.3584 0.8928 0.9818
C172_4 C 0.31900(15) 0.89280(23) 0.93690(16)
O41_3 O 0.42665(9) 0.90443(9) 0.76553(11)
O42 O 0.46208(9) 0.96966(9) 0.78432(10)
C174_4 C 0.40257(12) 0.92670(13) 0.82578(14)
C175_4 C 0.43300(12) 0.93449(13) 0.78901(14)
C176_4 C 0.38710(16) 0.93829(17) 0.90072(17)
H135_4 H 0.3956 0.9530 0.9274
C177_4 C 0.41462(15) 0.94790(16) 0.86480(16)
H136_4 H 0.4413 0.9689 0.8679
C178_4 C 0.33532(15) 0.88743(18) 0.85565(16)
H137_4 H 0.3083 0.8677 0.8515
C179_4 C 0.34767(15) 0.90713(17) 0.89643(16)
C180_4 C 0.36267(14) 0.89658(17) 0.82078(17)
H138_4 H 0.3541 0.8823 0.7937
Co13_3 Co 0.0000 0.516778(18) 0.7500
Co16 Co 0.516744(18) 1.0000 0.7500
Co19_2 Co 0.100046(15) 0.559251(16) 0.714115(17)
Co22 Co 0.459204(22) 0.899954(15) 0.714115(17)
H3_4 H 0.9096 0.0108 0.0520
N6_4 N 0.98077(13) 0.02244(9) 0.05715(13)
H33_4 H 0.9989 0.0962 0.0572
O23_4 O 0.83104(9) 0.06324(12) 0.41140(10)
O24_4 O 0.79532(11) 0.09311(14) 0.39175(11)
C87_4 C 0.77341(13) 0.02816(18) 0.36249(13)
C89_4 C 0.80260(13) 0.06468(18) 0.39057(14)
H68_4 H 0.8073 0.0010 0.3577
C93_4 C 0.73731(14) 0.02498(20) 0.34832(15)
H69_4 H 0.7305 0.0443 0.3575
Co8_4 Co 0.774083(16) 0.207462(22) 0.380781(17)
O30_4 O 0.74815(9) 0.17196(12) 0.32168(9)
O31_4 O 0.79707(8) 0.16803(11) 0.35618(8)
O32_4 O 0.82268(10) 0.25310(14) 0.33909(11)
N12_4 N 0.89187(14) 0.28987(20) 0.33273(17)
C118_4 C 0.79355(14) 0.08554(19) 0.25703(14)
H96_4 H 0.8130 0.0775 0.2564
C119_4 C 0.75640(13) 0.03597(18) 0.19451(14)
C120_4 C 0.79700(13) 0.11427(18) 0.28871(14)
H97_4 H 0.8183 0.1247 0.3093
C122_4 C 0.76875(13) 0.12736(18) 0.28954(13)
C124_4 C 0.77128(12) 0.15723(17) 0.32434(12)
C125_4 C 0.76142(13) 0.06871(18) 0.22611(14)
C126_4 C 0.78389(14) 0.00071(21) 0.15170(16)
C128_4 C 0.73753(15) 0.11189(21) 0.25800(15)
H100_4 H 0.7188 0.1208 0.2577
C129_4 C 0.71778(14) 0.00674(20) 0.17940(16)
H101_4 H 0.6953 0.0086 0.1881
C130_4 C 0.73424(16) 0.08305(21) 0.22690(16)
H102_4 H 0.7132 0.0730 0.2059
C131_4 C 0.78910(14) 0.03207(21) 0.17975(16)
H103_4 H 0.8152 0.0511 0.1890
C132_4 C 0.85755(18) 0.25806(25) 0.34583(19)
H104_4 H 0.8593 0.2377 0.3613
C133_4 C 0.9322(2) 0.2941(3) 0.3435(3)
H105_4 H 0.9308 0.2684 0.3398
H106_4 H 0.9524 0.3137 0.3235
H107_4 H 0.9394 0.3032 0.3742
C134_4 C 0.8913(2) 0.3233(4) 0.3099(3)
H108_4 H 0.8707 0.3276 0.3232
H109_4 H 0.9173 0.3474 0.3129
H110_4 H 0.8853 0.3168 0.2785
Co12_2 Co 0.816589(18) 0.149889(18) 0.4167
Co18_2 Co 0.874129(22) 0.107416(16) 0.452552(17)
O46_4 O 0.72990(12) 0.16438(9) 0.42194(10)
O49_4 O 0.81112(13) 0.24002(9) 0.43220(11)
N19_4 N 0.74479(10) 0.24214(14) 0.38222(12)
H64_3 H 0.9859 0.2365 0.9796
Co7_4 Co 0.559251(16) 0.100046(15) 0.785885(17)
O25_7 O 0.58519(9) 0.09048(8) 0.84498(9)
O26_4 O 0.53627(8) 0.03763(8) 0.81048(8)
O27_7 O 0.51066(10) 0.09709(10) 0.82757(11)
N11_7 N 0.44147(14) 0.06467(14) 0.83393(17)
C105_7 C 0.56459(13) 0.02528(12) 0.87712(13)
C107_7 C 0.56206(12) 0.05262(12) 0.84232(12)
C111_7 C 0.59581(15) 0.04103(14) 0.90866(15)
H85_7 H 0.6146 0.0687 0.9089
C113_7 C 0.59910(16) 0.01548(14) 0.93976(16)
H87_7 H 0.6202 0.0265 0.9607
C115_7 C 0.47579(18) 0.06718(17) 0.82083(19)
H89_7 H 0.4741 0.0451 0.8053
C116_7 C 0.4012(2) 0.0286(2) 0.8231(3)
H90_7 H 0.4026 0.0043 0.8268
H91_7 H 0.3810 0.0280 0.8431
H92_7 H 0.3940 0.0305 0.7924
C117_7 C 0.4421(2) 0.0987(3) 0.8567(3)
H93_7 H 0.4627 0.1236 0.8434
H94_7 H 0.4161 0.0968 0.8537
H95_7 H 0.4481 0.0982 0.8881
O45_4 O 0.60343(12) 0.10114(8) 0.74473(10)
O50_4 O 0.52221(13) 0.09557(9) 0.73447(11)
O53_4 O 0.49241(13) 0.03034(9) 0.71568(10)
O56_4 O 0.57356(14) 0.03555(9) 0.72508(11)
N20_7 N 0.58855(10) 0.16402(10) 0.78444(12)
Co1_2 Co 0.6667 0.850111(18) 0.0833
Co2_2 Co 0.766713(15) 0.892584(16) 0.047448(17)
O2_3 O 0.70430(8) 0.86960(8) 0.02285(8)
O3_3 O 0.76376(10) 0.84399(10) 0.00576(11)
O5_2 O 0.57110(9) 0.75998(9) 0.06780(11)
O6_4 O 0.63633(9) 0.79541(9) 0.04901(10)
N1_4 N 0.97756(9) 0.95833(10) 0.05715(13)
N2_3 N 0.83069(10) 0.92188(10) 0.04889(12)
C2_4 C 0.96049(12) 0.98165(11) 0.05707(15)
C3_4 C 0.91524(11) 0.96097(11) 0.05522(15)
C6_4 C 0.59337(13) 0.73590(12) 0.00755(14)
C10_4 C 0.89509(12) 0.98258(13) 0.05217(18)
C12_4 C 0.89157(12) 0.91863(12) 0.05512(17)
H4_4 H 0.9038 0.9027 0.0572
C15_4 C 0.60116(13) 0.76633(12) 0.04432(14)
C16_4 C 0.85007(13) 0.90079(14) 0.05191(16)
H6_4 H 0.8347 0.8726 0.0518
C23_4 C 0.85337(13) 0.96212(13) 0.04937(16)
H13_4 H 0.8403 0.9773 0.0477
C27_4 C 0.56325(17) 0.69600(14) 0.01255(17)
H16_4 H 0.5490 0.6874 0.0396
C28_3 C 0.73385(17) 0.80912(18) 0.01250(19)
H17_3 H 0.7118 0.8074 0.0280
C29_3 C 0.6953(2) 0.7345(2) 0.0102(3)
H18_3 H 0.6710 0.7359 0.0065
H20_3 H 0.6972 0.7273 0.0409
H28_4 H 0.9892 0.8988 0.0520
Co6_2 Co 0.566620(15) 0.792538(22) 0.119219(17)
O20_4 O 0.57618(8) 0.82804(12) 0.17832(9)
O21_2 O 0.62903(8) 0.83197(11) 0.14382(8)
O22_4 O 0.56957(10) 0.74690(14) 0.16091(11)
N10_4 N 0.60199(14) 0.71013(20) 0.16727(17)
C84_4 C 0.70800(13) 0.91446(19) 0.24297(14)
H66_4 H 0.7354 0.9225 0.2436
C85_4 C 0.72042(13) 0.96403(18) 0.30549(14)
C86_4 C 0.68272(12) 0.88573(18) 0.21129(14)
H67_4 H 0.6935 0.8753 0.1907
C88_4 C 0.64138(12) 0.87264(18) 0.21046(13)
C90_4 C 0.61404(12) 0.84277(17) 0.17566(12)
C91_4 C 0.69270(13) 0.93129(18) 0.27389(14)
C92_4 C 0.78317(15) 0.99929(21) 0.34830(16)
C94_4 C 0.62563(14) 0.88811(21) 0.24200(15)
H70_4 H 0.5979 0.8792 0.2423
C95_4 C 0.71103(14) 0.99326(20) 0.32060(16)
H71_4 H 0.6866 0.9914 0.3119
C96_4 C 0.65118(14) 0.91695(21) 0.27310(16)
H72_4 H 0.6401 0.9270 0.2941
C97_4 C 0.75702(15) 0.96793(21) 0.32025(16)
H73_4 H 0.7640 0.9489 0.3110
C98_4 C 0.59948(17) 0.74194(25) 0.15417(19)
H74_4 H 0.6215 0.7623 0.1387
C99_4 C 0.6380(2) 0.7059(3) 0.1565(3)
H75_4 H 0.6623 0.7316 0.1602
H76_4 H 0.6386 0.6863 0.1765
H77_4 H 0.6361 0.6968 0.1258
C100_4 C 0.5679(3) 0.6767(4) 0.1901(3)
H78_4 H 0.5430 0.6724 0.1768
H79_4 H 0.5698 0.6526 0.1871
H80_4 H 0.5684 0.6832 0.2215
O28_4 O 0.56553(8) 0.83562(9) 0.07806(10)
O29_4 O 0.63112(9) 0.87134(11) 0.05841(11)
C104_7 C 0.58808(13) 0.89325(13) 0.02915(13)
C106_7 C 0.59541(13) 0.86406(13) 0.05723(14)
C109_7 C 0.54945(14) 0.88349(15) 0.01496(16)
H83_7 H 0.5270 0.8593 0.0243
C110_7 C 0.62100(14) 0.92935(14) 0.01498(15)
H84_7 H 0.6471 0.9361 0.0241
O33_2 O 0.76781(8) 0.93676(12) 0.08860(10)
O34_2 O 0.70222(9) 0.90689(14) 0.10825(11)
C121_4 C 0.74526(13) 0.97184(18) 0.13751(13)
C123_4 C 0.73793(13) 0.93532(18) 0.10943(14)
H98_4 H 0.8064 0.9990 0.1423
C127_4 C 0.71234(14) 0.97502(20) 0.15168(15)
H99_4 H 0.6863 0.9557 0.1425
N13_4 N 0.35577(9) 0.64744(13) 0.10952(13)
N14_2 N 0.50264(10) 0.75786(14) 0.11778(12)
C135_4 C 0.37284(12) 0.68783(16) 0.10960(15)
C136_4 C 0.41809(11) 0.71240(16) 0.11145(15)
C137_4 C 0.43824(12) 0.75416(18) 0.11450(18)
H111_4 H 0.4237 0.7679 0.1147
C138_4 C 0.44176(12) 0.69373(17) 0.11155(17)
H112_4 H 0.4295 0.6656 0.1095
C139_4 C 0.48326(13) 0.71739(19) 0.11476(16)
H113_4 H 0.4986 0.7046 0.1149
C140_4 C 0.47996(13) 0.77542(18) 0.11730(16)
H114_4 H 0.4930 0.8037 0.1190
N15_4 N 0.29166(10) 0.64423(9) 0.10952(13)
N16_2 N 0.25521(10) 0.49736(10) 0.11778(12)
C141_4 C 0.31498(11) 0.62716(12) 0.10960(15)
C142_4 C 0.29430(11) 0.58191(11) 0.11145(15)
C143_4 C 0.31591(13) 0.56176(12) 0.11450(18)
H115_4 H 0.3441 0.5763 0.1147
C144_4 C 0.25196(12) 0.55824(12) 0.11155(17)
H116_4 H 0.2360 0.5705 0.1095
C145_4 C 0.23412(14) 0.51674(13) 0.11476(16)
H117_4 H 0.2059 0.5014 0.1149
C146_4 C 0.29545(13) 0.52004(13) 0.11730(16)
H118_4 H 0.3106 0.5070 0.1190
N17_4 N 0.35256(13) 0.70834(10) 0.10952(13)
N18_2 N 0.24214(14) 0.74479(10) 0.11778(12)
C147_4 C 0.31217(16) 0.68502(11) 0.10960(15)
C148_4 C 0.28760(16) 0.70570(11) 0.11145(15)
C149_4 C 0.24584(18) 0.68409(13) 0.11450(18)
H119_4 H 0.2321 0.6559 0.1147
C150_4 C 0.30627(17) 0.74804(12) 0.11155(17)
H120_4 H 0.3344 0.7640 0.1095
C151_4 C 0.28261(19) 0.76588(14) 0.11476(16)
H121_4 H 0.2954 0.7941 0.1149
C152_4 C 0.22458(18) 0.70455(13) 0.11730(16)
H122_4 H 0.1963 0.6894 0.1190
O35_2 O 0.76223(9) 0.85555(13) 0.09887(11)
O36_2 O 0.69700(9) 0.82575(13) 0.11766(10)
C153_4 C 0.73996(13) 0.80920(18) 0.15912(14)
C154_4 C 0.73217(13) 0.83184(18) 0.12235(14)
C155_4 C 0.72837(17) 0.78214(23) 0.23406(17)
H123_4 H 0.7136 0.7759 0.2608
C156_4 C 0.71876(16) 0.80005(22) 0.19814(16)
H124_4 H 0.6977 0.8057 0.2013
C157_4 C 0.77923(18) 0.78122(23) 0.18899(16)
H125_4 H 0.7989 0.7739 0.1849
C158_4 C 0.75953(17) 0.77387(23) 0.22977(16)
C159_4 C 0.77008(17) 0.79942(22) 0.15412(17)
H126_4 H 0.7843 0.8051 0.1271
O37_4 O 0.85555(13) 0.76223(9) 0.40113(11)
O38_4 O 0.82575(13) 0.69700(9) 0.38234(10)
C160_4 C 0.80920(18) 0.73996(13) 0.34088(14)
C161_4 C 0.83184(18) 0.73217(13) 0.37765(14)
C162_4 C 0.78214(23) 0.72837(17) 0.26594(17)
H127_4 H 0.7759 0.7136 0.2392
C163_4 C 0.80005(22) 0.71876(16) 0.30186(16)
H128_4 H 0.8057 0.6977 0.2987
C164_4 C 0.78122(23) 0.77923(18) 0.31101(16)
H129_4 H 0.7739 0.7989 0.3151
C165_4 C 0.77387(23) 0.75953(17) 0.27023(16)
C166_4 C 0.79942(22) 0.77008(17) 0.34588(17)
H130_4 H 0.8051 0.7843 0.3729
Co11_3 Co 0.850111(18) 0.6667 0.4167
Co17_3 Co 0.892584(16) 0.766713(15) 0.452552(17)
Co24_2 Co 0.225917(16) 0.433380(15) 0.119219(17)
O1_3 O 0.75715(8) 0.91852(9) 0.98835(9)
O4_2 O 0.50229(9) 0.89886(8) 0.75527(10)
O7_2 O 0.53801(11) 0.96445(9) 0.77492(11)
N3_3 N 0.73134(14) 0.77480(14) 0.99940(17)
C1_3 C 0.62533(13) 0.87312(14) 0.92370(14)
H1_3 H 0.5979 0.8537 0.9231
C4_3 C 0.61291(13) 0.91027(13) 0.86118(14)
C5_3 C 0.65061(12) 0.86967(13) 0.95538(14)
H2_3 H 0.6398 0.8484 0.9760
C7_3 C 0.55992(13) 0.92141(13) 0.80418(13)
C8_3 C 0.69195(12) 0.89792(13) 0.95621(13)
C9_3 C 0.53073(13) 0.92874(13) 0.77610(14)
C11_3 C 0.71929(12) 0.89539(12) 0.99101(12)
C13_3 C 0.64063(13) 0.90525(13) 0.89278(14)
C14_3 C 0.55016(15) 0.88278(14) 0.81837(16)
H5_3 H 0.5260 0.8603 0.8090
C17_3 C 0.59602(14) 0.95433(14) 0.81835(15)
H7_3 H 0.6028 0.9804 0.8092
C18_3 C 0.70770(14) 0.92914(15) 0.92467(15)
H8_3 H 0.7354 0.9479 0.9244
C19_4 C 0.60496(17) 0.72043(16) 0.93261(17)
H9_4 H 0.6197 0.7289 0.9059
C20_3 C 0.62230(14) 0.94889(14) 0.84607(16)
H10_3 H 0.6467 0.9714 0.8548
C21_3 C 0.68215(14) 0.93243(16) 0.89357(16)
H11_3 H 0.6932 0.9535 0.8726
C22_3 C 0.57631(15) 0.87757(14) 0.84642(16)
H12_3 H 0.5693 0.8515 0.8557
C24_4 C 0.61457(16) 0.74795(15) 0.96853(16)
H14_4 H 0.6356 0.7746 0.9654
C25_4 C 0.55410(18) 0.66865(15) 0.97768(16)
H15_4 H 0.5344 0.6416 0.9818
C26_4 C 0.57380(17) 0.68100(15) 0.93690(16)
H19_3 H 0.6947 0.7143 0.9902
C30_3 C 0.7654(3) 0.7754(2) 0.9766(3)
H21_3 H 0.7903 0.7960 0.9899
H22_3 H 0.7635 0.7494 0.9796
H23_3 H 0.7649 0.7814 0.9452
O8_2 O 0.47779(13) 0.57335(9) 0.76553(11)
O9_2 O 0.50759(13) 0.53792(9) 0.78432(10)
C31_4 C 0.52414(18) 0.59743(12) 0.82578(14)
C32_4 C 0.50150(18) 0.56700(12) 0.78901(14)
C33_4 C 0.55120(23) 0.61290(16) 0.90072(17)
H24_4 H 0.5575 0.6044 0.9274
C34_4 C 0.53329(22) 0.58538(15) 0.86480(16)
H25_4 H 0.5277 0.5587 0.8679
C35_4 C 0.55212(23) 0.66468(15) 0.85565(16)
H26_4 H 0.5595 0.6917 0.8515
C36_4 C 0.55947(23) 0.65233(15) 0.89643(16)
C37_4 C 0.53392(22) 0.63733(14) 0.82078(17)
H27_4 H 0.5283 0.6459 0.7937
C101_7 C 0.53979(14) 0.95866(13) 0.90963(14)
H81_7 H 0.5204 0.9312 0.9102
C102_7 C 0.57694(13) 0.94624(13) 0.97215(14)
C103_7 C 0.53634(13) 0.98394(12) 0.87795(14)
H82_7 H 0.5151 0.9731 0.8573
C108_7 C 0.57192(13) 0.97396(13) 0.94055(14)
C112_7 C 0.61556(14) 0.95563(14) 0.98726(16)
H86_7 H 0.6381 0.9800 0.9785
C114_7 C 0.54424(14) 0.90964(15) 0.98691(16)
H88_7 H 0.5182 0.9026 0.9776
O43_4 O 0.49863(11) 0.96237(8) 0.68952(8)
H125_5 H 0.2261 0.0251 0.1849
O37_5 O 0.23777(9) 0.09331(16) 0.40113(11)
O38_5 O 0.30300(9) 0.12874(16) 0.38234(10)
C160_5 C 0.26004(13) 0.06923(22) 0.34088(14)
C161_5 C 0.26783(13) 0.09966(22) 0.37765(14)
C162_5 C 0.27163(17) 0.05376(29) 0.26594(17)
H127_5 H 0.2864 0.0622 0.2392
C163_5 C 0.28124(16) 0.08128(27) 0.30186(16)
H128_5 H 0.3023 0.1079 0.2987
C164_5 C 0.22077(18) 0.00198(29) 0.31101(16)
C165_5 C 0.24047(17) 0.01433(29) 0.27023(16)
C166_5 C 0.22992(17) 0.02933(28) 0.34588(17)
H130_5 H 0.2157 0.0207 0.3729
O39_4 O 0.18888(13) 0.42890(16) 0.06780(11)
O40_5 O 0.15908(13) 0.36367(16) 0.04901(10)
C167_5 C 0.14253(18) 0.40663(22) 0.00755(14)
C168_5 C 0.16517(18) 0.39884(22) 0.04432(14)
C173_5 C 0.13275(22) 0.43675(26) 0.01255(17)
H134_5 H 0.1384 0.4510 0.0396
Co11_4 Co 0.3333 0.183411(18) 0.4167
Co17_4 Co 0.233287(15) 0.125871(22) 0.452552(17)
O44_4 O 0.20293(8) 0.37097(14) 0.14382(8)
O54_4 O 0.12874(9) 0.30300(16) 0.11766(10)
O57_4 O 0.20468(11) 0.29778(18) 0.10825(11)
O58_5 O 0.24023(14) 0.36888(18) 0.05841(11)
C169_5 C 0.11547(23) 0.39504(28) 0.93261(17)
H131_5 H 0.1092 0.3803 0.9059
C170_5 C 0.13338(22) 0.38543(27) 0.96853(16)
H132_5 H 0.1390 0.3644 0.9654
C171_5 C 0.11455(23) 0.44590(27) 0.97768(16)
H133_5 H 0.1072 0.4656 0.9818
C172_5 C 0.10720(23) 0.42620(27) 0.93690(16)
O41_4 O 0.09557(9) 0.52221(13) 0.76553(11)
O42_2 O 0.03034(9) 0.49241(13) 0.78432(10)
C174_5 C 0.07330(13) 0.47586(18) 0.82578(14)
C175_5 C 0.06551(13) 0.49850(18) 0.78901(14)
C176_5 C 0.06171(17) 0.44880(23) 0.90072(17)
H135_5 H 0.0470 0.4425 0.9274
C177_5 C 0.05210(16) 0.46671(22) 0.86480(16)
H136_5 H 0.0311 0.4723 0.8679
C178_5 C 0.11257(18) 0.44788(23) 0.85565(16)
H137_5 H 0.1323 0.4405 0.8515
C179_5 C 0.09287(17) 0.44053(23) 0.89643(16)
C180_5 C 0.10342(17) 0.46608(22) 0.82078(17)
H138_5 H 0.1177 0.4717 0.7937
O20_5 O 0.17196(12) 0.74815(14) 0.17832(9)
O22_5 O 0.25310(14) 0.82268(17) 0.16091(11)
N10_5 N 0.28987(20) 0.89187(24) 0.16727(17)
C84_5 C 0.08554(19) 0.79355(23) 0.24297(14)
H66_5 H 0.0775 0.8130 0.2436
C85_5 C 0.03597(18) 0.75640(22) 0.30549(14)
C86_5 C 0.11427(18) 0.79700(22) 0.21129(14)
H67_5 H 0.1247 0.8183 0.1907
C88_5 C 0.12736(18) 0.76875(22) 0.21046(13)
C90_5 C 0.15723(17) 0.77128(21) 0.17566(12)
C91_5 C 0.06871(18) 0.76142(22) 0.27389(14)
C92_5 C 0.00071(21) 0.78389(26) 0.34830(16)
C94_5 C 0.11189(21) 0.73753(25) 0.24200(15)
H70_5 H 0.1208 0.7188 0.2423
C95_5 C 0.00674(20) 0.71778(24) 0.32060(16)
H71_5 H 0.0086 0.6953 0.3119
C96_5 C 0.08305(21) 0.73424(25) 0.27310(16)
H72_5 H 0.0730 0.7132 0.2941
C97_5 C 0.03207(21) 0.78910(26) 0.32025(16)
H73_5 H 0.0511 0.8152 0.3110
C98_5 C 0.25806(25) 0.85755(30) 0.15417(19)
H74_5 H 0.2377 0.8593 0.1387
C99_5 C 0.2941(3) 0.9322(4) 0.1565(3)
H75_5 H 0.2684 0.9308 0.1602
H76_5 H 0.3137 0.9524 0.1765
H77_5 H 0.3032 0.9394 0.1258
C100_5 C 0.3233(4) 0.8913(5) 0.1901(3)
H78_5 H 0.3276 0.8707 0.1768
H79_5 H 0.3474 0.9173 0.1871
H80_5 H 0.3168 0.8853 0.2215
O28_5 O 0.16438(9) 0.72990(12) 0.07806(10)
C104_8 C 0.10675(13) 0.69482(18) 0.02915(13)
C106_8 C 0.13594(13) 0.73134(18) 0.05723(14)
C109_8 C 0.11651(15) 0.66595(21) 0.01496(16)
H83_8 H 0.1407 0.6676 0.0243
C110_8 C 0.07065(14) 0.69164(20) 0.01498(15)
H84_8 H 0.0639 0.7109 0.0241
C121_5 C 0.02816(18) 0.77341(22) 0.13751(13)
C123_5 C 0.06468(18) 0.80260(22) 0.10943(14)
H98_5 H 0.0010 0.8073 0.1423
C127_5 C 0.02498(20) 0.73731(24) 0.15168(15)
H99_5 H 0.0443 0.7305 0.1425
C153_5 C 0.19080(18) 0.93077(22) 0.15912(14)
C154_5 C 0.16816(18) 0.90034(22) 0.12235(14)
C155_5 C 0.21786(23) 0.94624(29) 0.23406(17)
H123_5 H 0.2241 0.9378 0.2608
C156_5 C 0.19995(22) 0.91872(27) 0.19814(16)
H124_5 H 0.1943 0.8921 0.2013
C157_5 C 0.21878(23) 0.99802(29) 0.18899(16)
C158_5 C 0.22613(23) 0.98567(29) 0.22977(16)
C159_5 C 0.20058(22) 0.97067(28) 0.15412(17)
H126_5 H 0.1949 0.9793 0.1271
H129_5 H 0.2011 0.9749 0.3151
C101_8 C 0.04134(13) 0.58112(19) 0.90963(14)
H81_8 H 0.0688 0.5891 0.9102
C102_8 C 0.05376(13) 0.63069(18) 0.97215(14)
C103_8 C 0.01606(12) 0.55239(18) 0.87795(14)
H82_8 H 0.0269 0.5419 0.8573
C108_8 C 0.02604(13) 0.59795(18) 0.94055(14)
C112_8 C 0.04437(14) 0.65992(20) 0.98726(16)
H86_8 H 0.0200 0.6580 0.9785
C114_8 C 0.09036(15) 0.63459(21) 0.98691(16)
H88_8 H 0.0974 0.6155 0.9776
O43_5 O 0.03763(8) 0.53627(14) 0.68952(8)
O23_5 O 0.93676(12) 0.76781(15) 0.41140(10)
O24_5 O 0.90689(14) 0.70222(18) 0.39175(11)
C87_5 C 0.97184(18) 0.74526(22) 0.36249(13)
C89_5 C 0.93532(18) 0.73793(22) 0.39057(14)
H68_5 H 0.9990 0.8064 0.3577
C93_5 C 0.97502(20) 0.71234(24) 0.34832(15)
H69_5 H 0.9557 0.6863 0.3575
Co8_5 Co 0.792538(22) 0.566620(27) 0.380781(17)
O30_5 O 0.82804(12) 0.57618(15) 0.32168(9)
O31_5 O 0.83197(11) 0.62903(14) 0.35618(8)
O32_5 O 0.74690(14) 0.56957(17) 0.33909(11)
N12_5 N 0.71013(20) 0.60199(24) 0.33273(17)
C118_5 C 0.91446(19) 0.70800(24) 0.25703(14)
H96_5 H 0.9225 0.7354 0.2564
C119_5 C 0.96403(18) 0.72042(22) 0.19451(14)
C120_5 C 0.88573(18) 0.68272(22) 0.28871(14)
H97_5 H 0.8753 0.6935 0.3093
C122_5 C 0.87264(18) 0.64138(22) 0.28954(13)
C124_5 C 0.84277(17) 0.61404(21) 0.32434(12)
C125_5 C 0.93129(18) 0.69270(22) 0.22611(14)
C126_5 C 0.99929(21) 0.78317(25) 0.15170(16)
C128_5 C 0.88811(21) 0.62563(26) 0.25800(15)
H100_5 H 0.8792 0.5979 0.2577
C129_5 C 0.99326(20) 0.71103(24) 0.17940(16)
H101_5 H 0.9914 0.6866 0.1881
C130_5 C 0.91695(21) 0.65118(26) 0.22690(16)
H102_5 H 0.9270 0.6401 0.2059
C131_5 C 0.96793(21) 0.75702(25) 0.17975(16)
H103_5 H 0.9489 0.7640 0.1890
C132_5 C 0.74194(25) 0.59948(31) 0.34583(19)
H104_5 H 0.7623 0.6215 0.3613
C133_5 C 0.7059(3) 0.6380(4) 0.3435(3)
H105_5 H 0.7316 0.6623 0.3398
H106_5 H 0.6863 0.6386 0.3235
H107_5 H 0.6968 0.6361 0.3742
C134_5 C 0.6767(4) 0.5679(4) 0.3099(3)
H108_5 H 0.6724 0.5430 0.3232
H109_5 H 0.6526 0.5698 0.3129
H110_5 H 0.6832 0.5684 0.2785
O46_5 O 0.83562(9) 0.56553(15) 0.42194(10)
O49_5 O 0.75998(9) 0.57110(16) 0.43220(11)
N19_5 N 0.75786(14) 0.50264(17) 0.38222(12)
Co7_5 Co 0.899954(15) 0.459204(22) 0.785885(17)
O25_8 O 0.90952(8) 0.49470(12) 0.84498(9)
O26_5 O 0.96237(8) 0.49863(11) 0.81048(8)
O27_8 O 0.90291(10) 0.41356(14) 0.82757(11)
N11_8 N 0.93533(14) 0.37679(20) 0.83393(17)
C105_8 C 0.97472(12) 0.53930(18) 0.87712(13)
C107_8 C 0.94738(12) 0.50943(17) 0.84232(12)
C111_8 C 0.95897(14) 0.55477(21) 0.90866(15)
H85_8 H 0.9313 0.5458 0.9089
C113_8 C 0.98452(14) 0.58361(21) 0.93976(16)
H87_8 H 0.9735 0.5936 0.9607
C115_8 C 0.93282(17) 0.40860(25) 0.82083(19)
H89_8 H 0.9549 0.4289 0.8053
C116_8 C 0.9714(2) 0.3725(3) 0.8231(3)
H90_8 H 0.9957 0.3982 0.8268
H91_8 H 0.9720 0.3529 0.8431
H92_8 H 0.9695 0.3634 0.7924
C117_8 C 0.9013(3) 0.3433(4) 0.8567(3)
H93_8 H 0.8764 0.3390 0.8434
H94_8 H 0.9032 0.3192 0.8537
H95_8 H 0.9018 0.3498 0.8881
O45_5 O 0.89886(8) 0.50229(14) 0.74473(10)
O50_5 O 0.90443(9) 0.42665(16) 0.73447(11)
O53_5 O 0.96966(9) 0.46208(16) 0.71568(10)
O56_5 O 0.96445(9) 0.53801(17) 0.72508(11)
N20_8 N 0.83598(10) 0.42452(14) 0.78444(12)
O20_6 O 0.25185(14) 0.42382(8) 0.17832(9)
O22_6 O 0.17732(17) 0.43043(10) 0.16091(11)
O23_6 O 0.23219(15) 0.16896(9) 0.41140(10)
O24_6 O 0.29778(18) 0.20468(11) 0.39175(11)
N10_6 N 0.10813(24) 0.39801(14) 0.16727(17)
C84_6 C 0.20645(23) 0.29200(13) 0.24297(14)
H66_6 H 0.1870 0.2646 0.2436
C85_6 C 0.24360(22) 0.27958(13) 0.30549(14)
C86_6 C 0.20300(22) 0.31728(12) 0.21129(14)
H67_6 H 0.1817 0.3065 0.1907
C87_6 C 0.25474(22) 0.22659(13) 0.36249(13)
C88_6 C 0.23125(22) 0.35862(12) 0.21046(13)
C89_6 C 0.26207(22) 0.19740(13) 0.39057(14)
C90_6 C 0.22872(21) 0.38596(12) 0.17566(12)
C91_6 C 0.23858(22) 0.30730(13) 0.27389(14)
C92_6 C 0.21611(26) 0.21683(15) 0.34830(16)
H68_6 H 0.1936 0.1927 0.3577
C93_6 C 0.28766(24) 0.26269(14) 0.34832(15)
H69_6 H 0.3137 0.2695 0.3575
C94_6 C 0.26247(25) 0.37437(14) 0.24200(15)
H70_6 H 0.2812 0.4021 0.2423
C95_6 C 0.28222(24) 0.28897(14) 0.32060(16)
H71_6 H 0.3047 0.3134 0.3119
C96_6 C 0.26576(25) 0.34882(14) 0.27310(16)
H72_6 H 0.2868 0.3599 0.2941
C97_6 C 0.21090(26) 0.24298(15) 0.32025(16)
H73_6 H 0.1848 0.2360 0.3110
C98_6 C 0.14245(30) 0.40052(17) 0.15417(19)
H74_6 H 0.1407 0.3785 0.1387
C99_6 C 0.0678(4) 0.3620(2) 0.1565(3)
H75_6 H 0.0692 0.3377 0.1602
H76_6 H 0.0476 0.3614 0.1765
H77_6 H 0.0606 0.3639 0.1258
C100_6 C 0.1087(5) 0.4321(3) 0.1901(3)
H78_6 H 0.1293 0.4570 0.1768
H79_6 H 0.0827 0.4302 0.1871
H80_6 H 0.1147 0.4316 0.2215
O28_6 O 0.27010(12) 0.43447(8) 0.07806(10)
C104_9 C 0.30518(18) 0.41192(13) 0.02915(13)
C106_9 C 0.26866(18) 0.40459(13) 0.05723(14)
C109_9 C 0.33405(21) 0.45055(14) 0.01496(16)
H83_9 H 0.3324 0.4730 0.0243
C110_9 C 0.30836(20) 0.37900(14) 0.01498(15)
H84_9 H 0.2891 0.3529 0.0241
Co8_6 Co 0.433380(27) 0.225917(16) 0.380781(17)
O30_6 O 0.42382(15) 0.25185(9) 0.32168(9)
O31_6 O 0.37097(14) 0.20293(8) 0.35618(8)
O32_6 O 0.43043(17) 0.17732(10) 0.33909(11)
N12_6 N 0.39801(24) 0.10813(14) 0.33273(17)
C118_6 C 0.29200(24) 0.20645(14) 0.25703(14)
H96_6 H 0.2646 0.1870 0.2564
C119_6 C 0.27958(22) 0.24360(13) 0.19451(14)
C120_6 C 0.31728(22) 0.20300(13) 0.28871(14)
H97_6 H 0.3065 0.1817 0.3093
C121_6 C 0.22659(22) 0.25474(13) 0.13751(13)
C122_6 C 0.35862(22) 0.23125(13) 0.28954(13)
C123_6 C 0.19740(22) 0.26207(13) 0.10943(14)
C124_6 C 0.38596(21) 0.22872(12) 0.32434(12)
C125_6 C 0.30730(22) 0.23858(13) 0.22611(14)
C126_6 C 0.21683(25) 0.21611(14) 0.15170(16)
H98_6 H 0.1927 0.1936 0.1423
C127_6 C 0.26269(24) 0.28766(14) 0.15168(15)
H99_6 H 0.2695 0.3137 0.1425
C128_6 C 0.37437(26) 0.26247(15) 0.25800(15)
H100_6 H 0.4021 0.2812 0.2577
C129_6 C 0.28897(24) 0.28222(14) 0.17940(16)
H101_6 H 0.3134 0.3047 0.1881
C130_6 C 0.34882(26) 0.26576(16) 0.22690(16)
H102_6 H 0.3599 0.2868 0.2059
C131_6 C 0.24298(25) 0.21090(14) 0.17975(16)
H103_6 H 0.2360 0.1848 0.1890
C132_6 C 0.40052(31) 0.14245(18) 0.34583(19)
H104_6 H 0.3785 0.1407 0.3613
C133_6 C 0.3620(4) 0.0678(2) 0.3435(3)
H105_6 H 0.3377 0.0692 0.3398
H106_6 H 0.3614 0.0476 0.3235
H107_6 H 0.3639 0.0606 0.3742
C134_6 C 0.4321(4) 0.1087(2) 0.3099(3)
H108_6 H 0.4570 0.1293 0.3232
H109_6 H 0.4302 0.0827 0.3129
H110_6 H 0.4316 0.1147 0.2785
C153_6 C 0.06923(22) 0.26004(13) 0.15912(14)
C154_6 C 0.09966(22) 0.26783(13) 0.12235(14)
C155_6 C 0.05376(29) 0.27163(17) 0.23406(17)
H123_6 H 0.0622 0.2864 0.2608
C156_6 C 0.08128(27) 0.28124(16) 0.19814(16)
H124_6 H 0.1079 0.3023 0.2013
C157_6 C 0.00198(29) 0.22077(18) 0.18899(16)
C158_6 C 0.01433(29) 0.24047(17) 0.22977(16)
C159_6 C 0.02933(28) 0.22992(17) 0.15412(17)
H126_6 H 0.0207 0.2157 0.1271
H129_6 H 0.0251 0.2261 0.3151
O46_6 O 0.43447(15) 0.27010(12) 0.42194(10)
O49_6 O 0.42890(16) 0.18888(13) 0.43220(11)
N19_6 N 0.49736(17) 0.25521(10) 0.38222(12)
Co7_6 Co 0.540796(22) 0.440749(16) 0.785885(17)
O25_9 O 0.50530(12) 0.41481(9) 0.84498(9)
O26_6 O 0.50137(11) 0.46373(8) 0.81048(8)
O27_9 O 0.58644(14) 0.48934(10) 0.82757(11)
N11_9 N 0.62321(20) 0.55853(14) 0.83393(17)
C101_9 C 0.41888(19) 0.46021(14) 0.90963(14)
H81_9 H 0.4109 0.4796 0.9102
C102_9 C 0.36931(18) 0.42306(13) 0.97215(14)
C103_9 C 0.44761(18) 0.46366(13) 0.87795(14)
H82_9 H 0.4581 0.4849 0.8573
C105_9 C 0.46070(18) 0.43541(13) 0.87712(13)
C107_9 C 0.49057(17) 0.43794(12) 0.84232(12)
C108_9 C 0.40205(18) 0.42808(13) 0.94055(14)
C111_9 C 0.44523(21) 0.40419(15) 0.90866(15)
H85_9 H 0.4542 0.3854 0.9089
C112_9 C 0.34008(20) 0.38444(14) 0.98726(16)
H86_9 H 0.3420 0.3619 0.9785
C113_9 C 0.41639(21) 0.40090(16) 0.93976(16)
H87_9 H 0.4064 0.3798 0.9607
C114_9 C 0.36541(21) 0.45576(14) 0.98691(16)
H88_9 H 0.3845 0.4818 0.9776
C115_9 C 0.59140(25) 0.52421(18) 0.82083(19)
H89_9 H 0.5711 0.5259 0.8053
C116_9 C 0.6275(3) 0.5988(2) 0.8231(3)
H90_9 H 0.6018 0.5974 0.8268
H91_9 H 0.6471 0.6190 0.8431
H92_9 H 0.6366 0.6060 0.7924
C117_9 C 0.6567(4) 0.5579(2) 0.8567(3)
H93_9 H 0.6610 0.5373 0.8434
H94_9 H 0.6808 0.5839 0.8537
H95_9 H 0.6502 0.5519 0.8881
O43_6 O 0.46373(14) 0.50137(11) 0.68952(8)
O45_6 O 0.49771(14) 0.39657(12) 0.74473(10)
O50_6 O 0.57335(16) 0.47779(13) 0.73447(11)
O53_6 O 0.53792(16) 0.50759(13) 0.71568(10)
O56_6 O 0.46199(17) 0.42644(14) 0.72508(11)
N20_9 N 0.57548(14) 0.41145(10) 0.78444(12)
H125_6 H 0.9749 0.2011 0.1849
O37_6 O 0.90669(16) 0.14445(13) 0.40113(11)
O38_6 O 0.87126(16) 0.17425(13) 0.38234(10)
C160_6 C 0.93077(22) 0.19080(18) 0.34088(14)
C161_6 C 0.90034(22) 0.16816(18) 0.37765(14)
C162_6 C 0.94624(29) 0.21786(23) 0.26594(17)
H127_6 H 0.9378 0.2241 0.2392
C163_6 C 0.91872(27) 0.19995(22) 0.30186(16)
H128_6 H 0.8921 0.1943 0.2987
C164_6 C 0.99802(29) 0.21878(23) 0.31101(16)
C165_6 C 0.98567(29) 0.22613(23) 0.27023(16)
C166_6 C 0.97067(28) 0.20058(22) 0.34588(17)
H130_6 H 0.9793 0.1949 0.3729
N4_5 N 0.01923(13) 0.04167(10) 0.44285(13)
H29_5 H 0.0011 0.0973 0.4428
N7_4 N 0.16931(10) 0.09119(14) 0.45111(12)
C44_5 C 0.03951(12) 0.02116(16) 0.44293(15)
C45_5 C 0.08476(11) 0.04573(16) 0.44478(15)
C46_5 C 0.10491(12) 0.08749(18) 0.44783(18)
H32_5 H 0.0904 0.1012 0.4480
C47_5 C 0.10843(12) 0.02706(17) 0.44488(17)
C48_5 C 0.14993(13) 0.05072(19) 0.44809(16)
H34_5 H 0.1653 0.0379 0.4482
C49_5 C 0.14663(13) 0.10875(18) 0.45063(16)
H35_5 H 0.1597 0.1370 0.4523
H49_4 H 0.0141 0.2506 0.5204
O15_4 O 0.24285(8) 0.16137(12) 0.51165(9)
O16_4 O 0.29570(8) 0.16530(11) 0.47715(8)
O17_4 O 0.23624(10) 0.08023(14) 0.49424(11)
N9_4 N 0.26866(14) 0.04346(20) 0.50060(17)
C67_4 C 0.37467(13) 0.24779(19) 0.57630(14)
H51_4 H 0.4021 0.2558 0.5769
C68_4 C 0.38709(13) 0.29736(18) 0.63882(14)
C69_4 C 0.34939(12) 0.21906(18) 0.54462(14)
H52_4 H 0.3602 0.2086 0.5240
C70_4 C 0.44008(13) 0.36149(18) 0.69582(13)
C71_4 C 0.30805(12) 0.20597(18) 0.54379(13)
C72_4 C 0.46927(13) 0.39801(18) 0.72390(14)
C73_4 C 0.28071(12) 0.17610(17) 0.50899(12)
C74_4 C 0.35937(13) 0.26462(18) 0.60722(14)
C75_4 C 0.44984(15) 0.33262(21) 0.68163(16)
H53_4 H 0.4740 0.3343 0.6910
C76_4 C 0.40398(14) 0.35831(20) 0.68165(15)
H54_4 H 0.3972 0.3776 0.6908
C77_4 C 0.29230(14) 0.22144(21) 0.57533(15)
H55_4 H 0.2646 0.2125 0.5756
C78_4 C 0.37770(14) 0.32659(20) 0.65393(16)
H56_4 H 0.3533 0.3247 0.6452
C79_4 C 0.31785(14) 0.25028(21) 0.60643(16)
H57_4 H 0.3068 0.2603 0.6274
C80_4 C 0.42369(15) 0.30126(21) 0.65358(16)
H58_4 H 0.4307 0.2822 0.6443
C81_4 C 0.26615(17) 0.07527(25) 0.48750(19)
H59_4 H 0.2882 0.0956 0.4720
C82_4 C 0.3047(2) 0.0392(3) 0.4898(3)
H60_4 H 0.3290 0.0649 0.4935
H61_4 H 0.3053 0.0196 0.5098
H62_4 H 0.3028 0.0301 0.4591
C83_4 C 0.2346(3) 0.0100(4) 0.5234(3)
H63_4 H 0.2097 0.0057 0.5101
H65_4 H 0.2351 0.0165 0.5548
H3_5 H 0.0108 0.9096 0.4480
N6_5 N 0.02244(9) 0.98077(13) 0.44285(13)
H33_5 H 0.0962 0.9989 0.4428
H64_4 H 0.2365 0.9859 0.5204
O25_10 O 0.09048(8) 0.58519(9) 0.65502(9)
O27_10 O 0.09709(10) 0.51066(10) 0.67243(11)
N11_10 N 0.06467(14) 0.44147(14) 0.66607(17)
C105_10 C 0.02528(12) 0.56459(13) 0.62288(13)
C107_10 C 0.05262(12) 0.56206(12) 0.65768(12)
C111_10 C 0.04103(14) 0.59581(15) 0.59134(15)
H85_10 H 0.0687 0.6146 0.5911
C113_10 C 0.01548(14) 0.59910(16) 0.56024(16)
H87_10 H 0.0265 0.6202 0.5393
C115_10 C 0.06718(17) 0.47579(18) 0.67917(19)
H89_10 H 0.0451 0.4741 0.6947
C116_10 C 0.0286(2) 0.4012(2) 0.6769(3)
H90_10 H 0.0043 0.4026 0.6732
H91_10 H 0.0280 0.3810 0.6569
H92_10 H 0.0305 0.3940 0.7076
C117_10 C 0.0987(3) 0.4421(2) 0.6433(3)
H93_10 H 0.1236 0.4627 0.6566
H94_10 H 0.0968 0.4161 0.6463
H95_10 H 0.0982 0.4481 0.6119
N20_10 N 0.16402(10) 0.58855(10) 0.71556(12)
N5_4 N 0.90881(14) 0.07812(10) 0.45111(12)
C38_5 C 0.97884(16) 0.01835(11) 0.44293(15)
C39_5 C 0.95427(16) 0.03903(11) 0.44478(15)
C40_5 C 0.91251(18) 0.01742(13) 0.44783(18)
C41_5 C 0.97294(17) 0.08137(12) 0.44488(17)
C42_5 C 0.94928(19) 0.09921(14) 0.44809(16)
H30_5 H 0.9621 0.1274 0.4482
C43_5 C 0.89125(18) 0.03788(13) 0.45063(16)
H31_5 H 0.8630 0.0227 0.4523
O10_4 O 0.83863(12) 0.08148(9) 0.51165(9)
O11_4 O 0.83470(11) 0.13040(8) 0.47715(8)
O12_4 O 0.91977(14) 0.15601(10) 0.49424(11)
N8_4 N 0.95654(20) 0.22520(14) 0.50060(17)
C50_4 C 0.75221(19) 0.12688(14) 0.57630(14)
H36_4 H 0.7442 0.1463 0.5769
C51_4 C 0.70264(18) 0.08973(13) 0.63882(14)
C52_4 C 0.78094(18) 0.13033(13) 0.54462(14)
H37_4 H 0.7914 0.1516 0.5240
C53_4 C 0.63851(18) 0.07859(13) 0.69582(13)
C54_4 C 0.79403(18) 0.10208(13) 0.54379(13)
C55_4 C 0.60199(18) 0.07126(13) 0.72390(14)
C56_4 C 0.82390(17) 0.10461(12) 0.50899(12)
C57_4 C 0.73538(18) 0.09475(13) 0.60722(14)
C58_4 C 0.66738(21) 0.11722(14) 0.68163(16)
H38_4 H 0.6657 0.1397 0.6910
C59_4 C 0.64169(20) 0.04567(14) 0.68165(15)
H39_4 H 0.6224 0.0196 0.6908
C60_4 C 0.77856(21) 0.07086(15) 0.57533(15)
H40_4 H 0.7875 0.0521 0.5756
C61_4 C 0.67341(20) 0.05111(14) 0.65393(16)
H41_4 H 0.6753 0.0286 0.6452
C62_4 C 0.74972(21) 0.06757(16) 0.60643(16)
H42_4 H 0.7397 0.0465 0.6274
C63_4 C 0.69874(21) 0.12243(14) 0.65358(16)
H43_4 H 0.7178 0.1485 0.6443
C64_4 C 0.92473(25) 0.19088(18) 0.48750(19)
H44_4 H 0.9044 0.1926 0.4720
C65_4 C 0.9608(3) 0.2655(2) 0.4898(3)
H45_4 H 0.9351 0.2641 0.4935
H46_4 H 0.9804 0.2857 0.5098
H47_4 H 0.9699 0.2727 0.4591
C66_4 C 0.9900(4) 0.2246(2) 0.5234(3)
H48_4 H 0.9943 0.2040 0.5101
H50_4 H 0.9835 0.2186 0.5548
O40_6 O 0.84092(13) 0.20459(9) 0.45099(10)
C167_6 C 0.85747(18) 0.26410(12) 0.49245(14)
C168_6 C 0.83483(18) 0.23367(12) 0.45568(14)
C169_6 C 0.88453(23) 0.27957(16) 0.56739(17)
H131_6 H 0.8908 0.2711 0.5941
C170_6 C 0.86662(22) 0.25205(15) 0.53147(16)
H132_6 H 0.8610 0.2254 0.5346
C171_6 C 0.88545(23) 0.33135(15) 0.52232(16)
H133_6 H 0.8928 0.3584 0.5182
C172_6 C 0.89280(23) 0.31900(15) 0.56310(16)
C173_6 C 0.86725(22) 0.30400(14) 0.48745(17)
H134_6 H 0.8616 0.3126 0.4604
C174_6 C 0.92670(13) 0.40257(12) 0.67422(14)
C175_6 C 0.93449(13) 0.43300(12) 0.71099(14)
C176_6 C 0.93829(17) 0.38710(16) 0.59928(17)
H135_6 H 0.9530 0.3956 0.5726
C177_6 C 0.94790(16) 0.41462(15) 0.63520(16)
H136_6 H 0.9689 0.4413 0.6321
C178_6 C 0.88743(18) 0.33532(15) 0.64435(16)
H137_6 H 0.8677 0.3083 0.6485
C179_6 C 0.90713(17) 0.34767(15) 0.60357(16)
C180_6 C 0.89658(17) 0.36267(14) 0.67922(17)
H138_6 H 0.8823 0.3541 0.7063
Co13_4 Co 0.516778(18) 0.0000 0.7500
Co16_2 Co 1.0000 0.516744(18) 0.7500
O58_6 O 0.75977(14) 0.12866(11) 0.44159(11)
O1_4 O 0.91852(9) 0.75715(8) 0.51165(9)
O2_4 O 0.86960(8) 0.70430(8) 0.47715(8)
O3_4 O 0.84399(10) 0.76376(10) 0.49424(11)
O6_5 O 0.79541(9) 0.63633(9) 0.45099(10)
N1_5 N 0.95833(10) 0.97756(9) 0.44285(13)
N2_4 N 0.92188(10) 0.83069(10) 0.45111(12)
N3_4 N 0.77480(14) 0.73134(14) 0.50060(17)
C1_4 C 0.87312(14) 0.62533(13) 0.57630(14)
H1_4 H 0.8537 0.5979 0.5769
C2_5 C 0.98165(11) 0.96049(12) 0.44293(15)
C3_5 C 0.96097(11) 0.91524(11) 0.44478(15)
C4_4 C 0.91027(13) 0.61291(13) 0.63882(14)
C5_4 C 0.86967(13) 0.65061(12) 0.54462(14)
H2_4 H 0.8484 0.6398 0.5240
C6_5 C 0.73590(12) 0.59337(13) 0.49245(14)
C7_4 C 0.92141(13) 0.55992(13) 0.69582(13)
C8_4 C 0.89792(13) 0.69195(12) 0.54379(13)
C9_4 C 0.92874(13) 0.53073(13) 0.72390(14)
C10_5 C 0.98258(13) 0.89509(12) 0.44783(18)
C11_4 C 0.89539(12) 0.71929(12) 0.50899(12)
C12_5 C 0.91863(12) 0.89157(12) 0.44488(17)
H4_5 H 0.9027 0.9038 0.4428
C13_4 C 0.90525(13) 0.64063(13) 0.60722(14)
C14_4 C 0.88278(14) 0.55016(15) 0.68163(16)
H5_4 H 0.8603 0.5260 0.6910
C15_5 C 0.76633(12) 0.60116(13) 0.45568(14)
C16_5 C 0.90079(14) 0.85007(13) 0.44809(16)
H6_5 H 0.8726 0.8347 0.4482
C17_4 C 0.95433(14) 0.59602(14) 0.68165(15)
H7_4 H 0.9804 0.6028 0.6908
C18_4 C 0.92914(15) 0.70770(14) 0.57533(15)
H8_4 H 0.9479 0.7354 0.5756
C19_5 C 0.72043(16) 0.60496(17) 0.56739(17)
H9_5 H 0.7289 0.6197 0.5941
C20_4 C 0.94889(14) 0.62230(14) 0.65393(16)
H10_4 H 0.9714 0.6467 0.6452
C21_4 C 0.93243(16) 0.68215(14) 0.60643(16)
H11_4 H 0.9535 0.6932 0.6274
C22_4 C 0.87757(14) 0.57631(15) 0.65358(16)
H12_4 H 0.8515 0.5693 0.6443
C23_5 C 0.96212(13) 0.85337(13) 0.45063(16)
H13_5 H 0.9773 0.8403 0.4523
C24_5 C 0.74795(15) 0.61457(16) 0.53147(16)
H14_5 H 0.7746 0.6356 0.5346
C25_5 C 0.66865(15) 0.55410(18) 0.52232(16)
H15_5 H 0.6416 0.5344 0.5182
C26_5 C 0.68100(15) 0.57380(17) 0.56310(16)
C27_5 C 0.69600(14) 0.56325(17) 0.48745(17)
H16_5 H 0.6874 0.5490 0.4604
C28_4 C 0.80912(18) 0.73385(17) 0.48750(19)
H17_4 H 0.8074 0.7118 0.4720
C29_4 C 0.7345(2) 0.6953(2) 0.4898(3)
H18_4 H 0.7359 0.6710 0.4935
H19_4 H 0.7143 0.6947 0.5098
H20_4 H 0.7273 0.6972 0.4591
C30_4 C 0.7754(2) 0.7654(3) 0.5234(3)
H21_4 H 0.7960 0.7903 0.5101
H22_4 H 0.7494 0.7635 0.5204
H23_4 H 0.7814 0.7649 0.5548
C31_5 C 0.59743(12) 0.52414(18) 0.67422(14)
C32_5 C 0.56700(12) 0.50150(18) 0.71099(14)
C33_5 C 0.61290(16) 0.55120(23) 0.59928(17)
H24_5 H 0.6044 0.5575 0.5726
C34_5 C 0.58538(15) 0.53329(22) 0.63520(16)
H25_5 H 0.5587 0.5277 0.6321
C35_5 C 0.66468(15) 0.55212(23) 0.64435(16)
H26_5 H 0.6917 0.5595 0.6485
C36_5 C 0.65233(15) 0.55947(23) 0.60357(16)
C37_5 C 0.63733(14) 0.53392(22) 0.67922(17)
H27_5 H 0.6459 0.5283 0.7063
H28_5 H 0.8988 0.9892 0.4480
O29_5 O 0.87134(11) 0.63112(9) 0.44159(11)
C101_10 C 0.95866(13) 0.53979(14) 0.59037(14)
H81_10 H 0.9312 0.5204 0.5898
C102_10 C 0.94624(13) 0.57694(13) 0.52785(14)
C103_10 C 0.98394(12) 0.53634(13) 0.62205(14)
H82_10 H 0.9731 0.5151 0.6427
C104_10 C 0.89325(13) 0.58808(13) 0.47085(13)
C106_10 C 0.86406(13) 0.59541(13) 0.44277(14)
C108_10 C 0.97396(13) 0.57192(13) 0.55945(14)
C109_10 C 0.88349(15) 0.54945(14) 0.48504(16)
H83_10 H 0.8593 0.5270 0.4757
C110_10 C 0.92935(14) 0.62100(14) 0.48502(15)
H84_10 H 0.9361 0.6471 0.4759
C112_10 C 0.95563(14) 0.61556(14) 0.51274(16)
H86_10 H 0.9800 0.6381 0.5215
C114_10 C 0.90964(15) 0.54424(14) 0.51309(16)
H88_10 H 0.9026 0.5182 0.5224
N13_5 N 0.64744(13) 0.35577(9) 0.39048(13)
C135_5 C 0.68783(16) 0.37284(12) 0.39040(15)
C136_5 C 0.71240(16) 0.41809(11) 0.38855(15)
C137_5 C 0.75416(18) 0.43824(12) 0.38550(18)
H111_5 H 0.7679 0.4237 0.3853
C138_5 C 0.69373(17) 0.44176(12) 0.38845(17)
H112_5 H 0.6656 0.4295 0.3905
C139_5 C 0.71739(19) 0.48326(13) 0.38524(16)
H113_5 H 0.7046 0.4986 0.3851
C140_5 C 0.77542(18) 0.47996(13) 0.38270(16)
H114_5 H 0.8037 0.4930 0.3810
N15_5 N 0.64423(9) 0.29166(10) 0.39048(13)
C141_5 C 0.62716(12) 0.31498(11) 0.39040(15)
C142_5 C 0.58191(11) 0.29430(11) 0.38855(15)
C143_5 C 0.56176(12) 0.31591(13) 0.38550(18)
H115_5 H 0.5763 0.3441 0.3853
C144_5 C 0.55824(12) 0.25196(12) 0.38845(17)
H116_5 H 0.5705 0.2360 0.3905
C145_5 C 0.51674(13) 0.23412(14) 0.38524(16)
H117_5 H 0.5014 0.2059 0.3851
C146_5 C 0.52004(13) 0.29545(13) 0.38270(16)
H118_5 H 0.5070 0.3106 0.3810
N17_5 N 0.70834(10) 0.35256(13) 0.39048(13)
C147_5 C 0.68502(11) 0.31217(16) 0.39040(15)
C148_5 C 0.70570(11) 0.28760(16) 0.38855(15)
C149_5 C 0.68409(13) 0.24584(18) 0.38550(18)
H119_5 H 0.6559 0.2321 0.3853
C150_5 C 0.74804(12) 0.30627(17) 0.38845(17)
H120_5 H 0.7640 0.3344 0.3905
C151_5 C 0.76588(14) 0.28261(19) 0.38524(16)
H121_5 H 0.7941 0.2954 0.3851
C152_5 C 0.70455(13) 0.22458(18) 0.38270(16)
H122_5 H 0.6894 0.1963 0.3810
O6_6 O 0.36367(9) 0.15908(13) 0.45099(10)
C6_6 C 0.40663(13) 0.14253(18) 0.49245(14)
C15_6 C 0.39884(13) 0.16517(18) 0.45568(14)
C19_6 C 0.39504(17) 0.11547(23) 0.56739(17)
H9_6 H 0.3803 0.1092 0.5941
C24_6 C 0.38543(16) 0.13338(22) 0.53147(16)
H14_6 H 0.3644 0.1390 0.5346
C25_6 C 0.44590(18) 0.11455(23) 0.52232(16)
H15_6 H 0.4656 0.1072 0.5182
C26_6 C 0.42620(17) 0.10720(23) 0.56310(16)
C27_6 C 0.43675(17) 0.13275(22) 0.48745(17)
H16_6 H 0.4510 0.1384 0.4604
C31_6 C 0.47586(18) 0.07330(22) 0.67422(14)
C32_6 C 0.49850(18) 0.06551(22) 0.71099(14)
C33_6 C 0.44880(23) 0.06171(28) 0.59928(17)
H24_6 H 0.4425 0.0470 0.5726
C34_6 C 0.46671(22) 0.05210(27) 0.63520(16)
H25_6 H 0.4723 0.0311 0.6321
C35_6 C 0.44788(23) 0.11257(27) 0.64435(16)
H26_6 H 0.4405 0.1323 0.6485
C36_6 C 0.44053(23) 0.09287(27) 0.60357(16)
C37_6 C 0.46608(22) 0.10342(26) 0.67922(17)
H27_6 H 0.4717 0.1177 0.7063
O25_11 O 0.41481(9) 0.50530(12) 0.65502(9)
O27_11 O 0.48934(10) 0.58644(14) 0.67243(11)
O29_6 O 0.36888(9) 0.24023(14) 0.44159(11)
N11_11 N 0.55853(14) 0.62321(20) 0.66607(17)
C101_11 C 0.46021(14) 0.41888(19) 0.59037(14)
H81_11 H 0.4796 0.4109 0.5898
C102_11 C 0.42306(13) 0.36931(18) 0.52785(14)
C103_11 C 0.46366(13) 0.44761(18) 0.62205(14)
H82_11 H 0.4849 0.4581 0.6427
C104_11 C 0.41192(13) 0.30518(18) 0.47085(13)
C105_11 C 0.43541(13) 0.46070(18) 0.62288(13)
C106_11 C 0.40459(13) 0.26866(18) 0.44277(14)
C107_11 C 0.43794(12) 0.49057(17) 0.65768(12)
C108_11 C 0.42808(13) 0.40205(18) 0.55945(14)
C109_11 C 0.45055(14) 0.33405(21) 0.48504(16)
H83_11 H 0.4730 0.3324 0.4757
C110_11 C 0.37900(14) 0.30836(20) 0.48502(15)
H84_11 H 0.3529 0.2891 0.4759
C111_11 C 0.40419(15) 0.44523(21) 0.59134(15)
H85_11 H 0.3854 0.4542 0.5911
C112_11 C 0.38444(14) 0.34008(20) 0.51274(16)
H86_11 H 0.3619 0.3420 0.5215
C113_11 C 0.40090(16) 0.41639(21) 0.56024(16)
H87_11 H 0.3798 0.4064 0.5393
C114_11 C 0.45576(14) 0.36541(21) 0.51309(16)
H88_11 H 0.4818 0.3845 0.5224
C115_11 C 0.52421(18) 0.59140(25) 0.67917(19)
H89_11 H 0.5259 0.5711 0.6947
C116_11 C 0.5988(2) 0.6275(3) 0.6769(3)
H90_11 H 0.5974 0.6018 0.6732
H91_11 H 0.6190 0.6471 0.6569
H92_11 H 0.6060 0.6366 0.7076
C117_11 C 0.5579(2) 0.6567(4) 0.6433(3)
H93_11 H 0.5373 0.6610 0.6566
H94_11 H 0.5839 0.6808 0.6463
H95_11 H 0.5519 0.6502 0.6119
N20_11 N 0.41145(10) 0.57548(14) 0.71556(12)
C101_12 C 0.58112(19) 0.04134(13) 0.59037(14)
H81_12 H 0.5891 0.0688 0.5898
C102_12 C 0.63069(18) 0.05376(13) 0.52785(14)
C103_12 C 0.55239(18) 0.01606(12) 0.62205(14)
H82_12 H 0.5419 0.0269 0.6427
C104_12 C 0.69482(18) 0.10675(13) 0.47085(13)
C106_12 C 0.73134(18) 0.13594(13) 0.44277(14)
C108_12 C 0.59795(18) 0.02604(13) 0.55945(14)
C109_12 C 0.66595(21) 0.11651(15) 0.48504(16)
H83_12 H 0.6676 0.1407 0.4757
C110_12 C 0.69164(20) 0.07065(14) 0.48502(15)
H84_12 H 0.7109 0.0639 0.4759
C112_12 C 0.65992(20) 0.04437(14) 0.51274(16)
H86_12 H 0.6580 0.0200 0.5215
C114_12 C 0.63459(21) 0.09036(15) 0.51309(16)
H88_12 H 0.6155 0.0974 0.5224
O25_12 O 0.49470(12) 0.90952(8) 0.65502(9)
O27_12 O 0.41356(14) 0.90291(10) 0.67243(11)
N11_12 N 0.37679(20) 0.93533(14) 0.66607(17)
C105_12 C 0.53930(18) 0.97472(12) 0.62288(13)
C107_12 C 0.50943(17) 0.94738(12) 0.65768(12)
C111_12 C 0.55477(21) 0.95897(14) 0.59134(15)
H85_12 H 0.5458 0.9313 0.5911
C113_12 C 0.58361(21) 0.98452(14) 0.56024(16)
H87_12 H 0.5936 0.9735 0.5393
C115_12 C 0.40860(25) 0.93282(17) 0.67917(19)
H89_12 H 0.4289 0.9549 0.6947
C116_12 C 0.3725(3) 0.9714(2) 0.6769(3)
H90_12 H 0.3982 0.9957 0.6732
H91_12 H 0.3529 0.9720 0.6569
H92_12 H 0.3634 0.9695 0.7076
C117_12 C 0.3433(4) 0.9013(3) 0.6433(3)
H93_12 H 0.3390 0.8764 0.6566
H94_12 H 0.3192 0.9032 0.6463
H95_12 H 0.3498 0.9018 0.6119
N20_12 N 0.42452(14) 0.83598(10) 0.71556(12)
N1_6 N 0.31089(9) 0.62500(10) 0.72382(13)
C2_6 C 0.29382(12) 0.64832(11) 0.72374(15)
C3_6 C 0.24857(11) 0.62764(11) 0.72189(15)
C10_6 C 0.22842(12) 0.64925(13) 0.71884(18)
H3_6 H 0.2429 0.6775 0.7187
C12_6 C 0.22490(12) 0.58530(12) 0.72179(17)
H4_6 H 0.2371 0.5694 0.7239
C16_6 C 0.18340(13) 0.56746(14) 0.71858(16)
H6_6 H 0.1680 0.5393 0.7185
C23_6 C 0.18670(13) 0.62879(13) 0.71604(16)
H13_6 H 0.1736 0.6440 0.7144
N4_6 N 0.37500(10) 0.68590(13) 0.72382(13)
C38_6 C 0.35168(11) 0.64551(16) 0.72374(15)
C39_6 C 0.37236(11) 0.62094(16) 0.72189(15)
C40_6 C 0.35075(13) 0.57918(18) 0.71884(18)
H28_6 H 0.3225 0.5655 0.7187
C41_6 C 0.41470(12) 0.63961(17) 0.72179(17)
H29_6 H 0.4306 0.6678 0.7239
C42_6 C 0.43254(14) 0.61595(19) 0.71858(16)
H30_6 H 0.4607 0.6288 0.7185
C43_6 C 0.37121(13) 0.55792(18) 0.71604(16)
H31_6 H 0.3560 0.5297 0.7144
N6_6 N 0.31410(13) 0.68911(9) 0.72382(13)
C44_6 C 0.35449(16) 0.70618(12) 0.72374(15)
C45_6 C 0.37906(16) 0.75143(11) 0.72189(15)
C46_6 C 0.42082(18) 0.77158(12) 0.71884(18)
H32_6 H 0.4345 0.7571 0.7187
C47_6 C 0.36039(17) 0.77510(12) 0.72179(17)
H33_6 H 0.3322 0.7629 0.7239
C48_6 C 0.38405(19) 0.81660(13) 0.71858(16)
H34_6 H 0.3712 0.8320 0.7185
C49_6 C 0.44208(18) 0.81330(13) 0.71604(16)
H35_6 H 0.4703 0.8264 0.7144
N13_6 N 0.68911(9) 0.31410(13) 0.77618(13)
C135_6 C 0.70618(12) 0.35449(16) 0.77626(15)
C136_6 C 0.75143(11) 0.37906(16) 0.77811(15)
C137_6 C 0.77158(12) 0.42082(18) 0.78116(18)
H111_6 H 0.7571 0.4345 0.7813
C138_6 C 0.77510(12) 0.36039(17) 0.77821(17)
H112_6 H 0.7629 0.3322 0.7761
C139_6 C 0.81660(13) 0.38405(19) 0.78142(16)
H113_6 H 0.8320 0.3712 0.7815
C140_6 C 0.81330(13) 0.44208(18) 0.78396(16)
H114_6 H 0.8264 0.4703 0.7856
N15_6 N 0.62500(10) 0.31089(9) 0.77618(13)
C141_6 C 0.64832(11) 0.29382(12) 0.77626(15)
C142_6 C 0.62764(11) 0.24857(11) 0.77811(15)
C143_6 C 0.64925(13) 0.22842(12) 0.78116(18)
H115_6 H 0.6775 0.2429 0.7813
C144_6 C 0.58530(12) 0.22490(12) 0.77821(17)
H116_6 H 0.5694 0.2371 0.7761
C145_6 C 0.56746(14) 0.18340(13) 0.78142(16)
H117_6 H 0.5393 0.1680 0.7815
C146_6 C 0.62879(13) 0.18670(13) 0.78396(16)
H118_6 H 0.6440 0.1736 0.7856
N17_6 N 0.68590(13) 0.37500(10) 0.77618(13)
C147_6 C 0.64551(16) 0.35168(11) 0.77626(15)
C148_6 C 0.62094(16) 0.37236(11) 0.77811(15)
C149_6 C 0.57918(18) 0.35075(13) 0.78116(18)
H119_6 H 0.5655 0.3225 0.7813
C150_6 C 0.63961(17) 0.41470(12) 0.77821(17)
H120_6 H 0.6678 0.4306 0.7761
C151_6 C 0.61595(19) 0.43254(14) 0.78142(16)
H121_6 H 0.6288 0.4607 0.7815
C152_6 C 0.55792(18) 0.37121(13) 0.78396(16)
H122_6 H 0.5297 0.3560 0.7856
loop_
_geom_bond_atom_site_label_1
_geom_bond_atom_site_label_2
_geom_bond_site_symmetry_1
_geom_bond_site_symmetry_2
O1 C11 1_555 1_555
O4 C9 1_555 1_555
O7 C9 1_555 1_555
C1 H1 1_555 1_555
C4 C13 1_555 1_555
C5 C1 1_555 1_555
H2 C5 1_555 1_555
C7 C9 1_555 1_555
C8 C5 1_555 1_555
C13 C1 1_555 1_555
C14 C7 1_555 1_555
H5 C14 1_555 1_555
C17 C7 1_555 1_555
H7 C17 1_555 1_555
C18 C8 1_555 1_555
H8 C18 1_555 1_555
C19 H9 1_555 1_555
C20 C4 1_555 1_555
H10 C20 1_555 1_555
C21 C13 1_555 1_555
H11 C21 1_555 1_555
C22 C4 1_555 1_555
H12 C22 1_555 1_555
H14 C24 1_555 1_555
C25 H15 1_555 1_555
C26 C19 1_555 1_555
C30 N3 1_555 1_555
H21 C30 1_555 1_555
H22 C30 1_555 1_555
H23 C30 1_555 1_555
O8 C32 1_555 1_555
O9 C32 1_555 1_555
C31 C32 1_555 1_555
C33 H24 1_555 1_555
C34 C31 1_555 1_555
H25 C34 1_555 1_555
C35 H26 1_555 1_555
C36 C26 1_555 1_555
C37 C31 1_555 1_555
H27 C37 1_555 1_555
C101 H81 1_555 1_555
C102 C108 1_555 1_555
C103 C101 1_555 1_555
H82 C103 1_555 1_555
C108 C101 1_555 1_555
C112 C102 1_555 1_555
H86 C112 1_555 1_555
C114 C102 1_555 1_555
H88 C114 1_555 1_555
Co9 O7 1_555 1_555
Co15 O9 1_555 1_555
Co21 O8 1_555 1_555
Co23 O4 1_555 1_555
O43 Co9 1_555 1_555
O55 Co9 1_555 1_555
C8 C11 1_555 1_555
C14 C22 1_555 1_555
C17 C20 1_555 1_555
C18 C21 1_555 1_555
C19 C24 1_555 1_555
C25 C26 1_555 1_555
C33 C34 1_555 1_555
C33 C36 1_555 1_555
C35 C36 1_555 1_555
C35 C37 1_555 1_555
Co23 O43 1_555 1_555
Co1 O2 1_555 1_555
O2 Co2 1_555 1_555
O3 Co2 1_555 1_555
O5 C15 1_555 1_555
O6 Co1 1_555 1_555
N1 C2 1_555 1_555
N2 Co2 1_555 1_555
C2 C3 1_555 1_555
C3 C10 1_555 1_555
C6 C15 1_555 1_555
C12 C3 1_555 1_555
H4 C12 1_555 1_555
C15 O6 1_555 1_555
C16 N2 1_555 1_555
H6 C16 1_555 1_555
C23 N2 1_555 1_555
H13 C23 1_555 1_555
C27 C6 1_555 1_555
H16 C27 1_555 1_555
C28 O3 1_555 1_555
H17 C28 1_555 1_555
H18 C29 1_555 1_555
H20 C29 1_555 1_555
Co6 O5 1_555 1_555
O20 Co6 1_555 1_555
O21 Co1 1_555 1_555
O22 Co6 1_555 1_555
N10 C98 1_555 1_555
C84 H66 1_555 1_555
C85 C91 1_555 1_555
C86 C84 1_555 1_555
H67 C86 1_555 1_555
C88 C86 1_555 1_555
C90 O20 1_555 1_555
C91 C84 1_555 1_555
C94 C88 1_555 1_555
H70 C94 1_555 1_555
C95 C85 1_555 1_555
H71 C95 1_555 1_555
C96 C91 1_555 1_555
H72 C96 1_555 1_555
C97 C85 1_555 1_555
H73 C97 1_555 1_555
C98 O22 1_555 1_555
H74 C98 1_555 1_555
C99 N10 1_555 1_555
H75 C99 1_555 1_555
H76 C99 1_555 1_555
H77 C99 1_555 1_555
C100 N10 1_555 1_555
H78 C100 1_555 1_555
H79 C100 1_555 1_555
H80 C100 1_555 1_555
O28 Co6 1_555 1_555
O29 Co1 1_555 1_555
C104 C106 1_555 1_555
C106 O28 1_555 1_555
C109 C104 1_555 1_555
H83 C109 1_555 1_555
C110 C104 1_555 1_555
H84 C110 1_555 1_555
O33 Co2 1_555 1_555
O34 Co1 1_555 1_555
C121 C123 1_555 1_555
C123 O33 1_555 1_555
C127 C121 1_555 1_555
H99 C127 1_555 1_555
N13 C135 1_555 1_555
N14 Co6 1_555 1_555
C135 C136 1_555 1_555
C136 C137 1_555 1_555
C137 H111 1_555 1_555
C138 C136 1_555 1_555
H112 C138 1_555 1_555
C139 N14 1_555 1_555
H113 C139 1_555 1_555
C140 N14 1_555 1_555
H114 C140 1_555 1_555
N15 C141 1_555 1_555
N16 C145 1_555 1_555
C141 N13 1_555 1_555
C142 C141 1_555 1_555
C143 C142 1_555 1_555
H115 C143 1_555 1_555
C144 C142 1_555 1_555
H116 C144 1_555 1_555
C145 C144 1_555 1_555
H117 C145 1_555 1_555
C146 N16 1_555 1_555
H118 C146 1_555 1_555
N17 C135 1_555 1_555
N18 C151 1_555 1_555
C147 N15 1_555 1_555
C148 C147 1_555 1_555
C149 C148 1_555 1_555
H119 C149 1_555 1_555
C150 C148 1_555 1_555
H120 C150 1_555 1_555
C151 C150 1_555 1_555
H121 C151 1_555 1_555
C152 N18 1_555 1_555
H122 C152 1_555 1_555
O35 Co2 1_555 1_555
O36 Co1 1_555 1_555
C153 C154 1_555 1_555
C154 O35 1_555 1_555
C155 H123 1_555 1_555
C156 C153 1_555 1_555
H124 C156 1_555 1_555
C157 H125 1_555 1_555
C158 C155 1_555 1_555
C159 C153 1_555 1_555
H126 C159 1_555 1_555
O37 C161 1_555 1_555
O38 C161 1_555 1_555
C160 C161 1_555 1_555
C162 H127 1_555 1_555
C163 C160 1_555 1_555
H128 C163 1_555 1_555
C164 H129 1_555 1_555
C165 C158 1_555 1_555
C166 C160 1_555 1_555
H130 C166 1_555 1_555
Co11 O38 1_555 1_555
Co17 O37 1_555 1_555
Co24 N16 1_555 1_555
Co26 N18 1_555 1_555
C10 C23 1_555 1_555
C12 C16 1_555 1_555
Co6 O21 1_555 1_555
O21 C90 1_555 1_555
C88 C90 1_555 1_555
C92 C97 1_555 1_555
C94 C96 1_555 1_555
O29 C106 1_555 1_555
O34 C123 1_555 1_555
C137 C140 1_555 1_555
C138 C139 1_555 1_555
C143 C146 1_555 1_555
N17 C147 1_555 1_555
C149 C152 1_555 1_555
O36 C154 1_555 1_555
C155 C156 1_555 1_555
C157 C158 1_555 1_555
C157 C159 1_555 1_555
C162 C163 1_555 1_555
C162 C165 1_555 1_555
C164 C165 1_555 1_555
C164 C166 1_555 1_555
Co7 O25 1_555 1_555
O25 C107 1_555 1_555
O26 Co7 1_555 1_555
O27 Co7 1_555 1_555
N11 C115 1_555 1_555
C107 O26 1_555 1_555
C111 C105 1_555 1_555
H85 C111 1_555 1_555
H87 C113 1_555 1_555
C115 O27 1_555 1_555
H89 C115 1_555 1_555
C116 N11 1_555 1_555
H90 C116 1_555 1_555
H91 C116 1_555 1_555
H92 C116 1_555 1_555
C117 N11 1_555 1_555
H93 C117 1_555 1_555
H94 C117 1_555 1_555
H95 C117 1_555 1_555
O45 Co7 1_555 1_555
O50 Co7 1_555 1_555
N20 Co7 1_555 1_555
C105 C107 1_555 1_555
C111 C113 1_555 1_555
O23 C89 1_555 1_555
O24 C89 1_555 1_555
C87 C89 1_555 1_555
C93 C87 1_555 1_555
H69 C93 1_555 1_555
Co8 O30 1_555 1_555
O30 C124 1_555 1_555
O31 Co8 1_555 1_555
O32 Co8 1_555 1_555
N12 C132 1_555 1_555
C118 H96 1_555 1_555
C119 C125 1_555 1_555
C120 C118 1_555 1_555
H97 C120 1_555 1_555
C122 C120 1_555 1_555
C124 O31 1_555 1_555
C125 C118 1_555 1_555
C128 C122 1_555 1_555
H100 C128 1_555 1_555
C129 C119 1_555 1_555
H101 C129 1_555 1_555
C130 C125 1_555 1_555
H102 C130 1_555 1_555
C131 C119 1_555 1_555
H103 C131 1_555 1_555
C132 O32 1_555 1_555
H104 C132 1_555 1_555
C133 N12 1_555 1_555
H105 C133 1_555 1_555
H106 C133 1_555 1_555
H107 C133 1_555 1_555
C134 N12 1_555 1_555
H108 C134 1_555 1_555
H109 C134 1_555 1_555
H110 C134 1_555 1_555
Co12 O24 1_555 1_555
Co18 O23 1_555 1_555
O46 Co8 1_555 1_555
O49 Co8 1_555 1_555
N19 Co8 1_555 1_555
O31 Co12 1_555 1_555
C122 C124 1_555 1_555
C126 C131 1_555 1_555
C128 C130 1_555 1_555
O13 C55 1_555 1_555
O14 C55 1_555 1_555
C50 H36 1_555 1_555
C51 C57 1_555 1_555
C52 C50 1_555 1_555
H37 C52 1_555 1_555
C53 C55 1_555 1_555
C54 C52 1_555 1_555
C56 O10 1_555 1_555
C57 C50 1_555 1_555
C58 C53 1_555 1_555
H38 C58 1_555 1_555
C59 C53 1_555 1_555
H39 C59 1_555 1_555
C60 C54 1_555 1_555
H40 C60 1_555 1_555
C61 C51 1_555 1_555
H41 C61 1_555 1_555
C62 C57 1_555 1_555
H42 C62 1_555 1_555
C63 C51 1_555 1_555
H43 C63 1_555 1_555
C66 N8 1_555 1_555
H48 C66 1_555 1_555
H50 C66 1_555 1_555
C169 H131 1_555 1_555
H132 C170 1_555 1_555
C171 H133 1_555 1_555
C172 C169 1_555 1_555
O41 C175 1_555 1_555
O55 C175 1_555 1_555
C174 C175 1_555 1_555
C176 H135 1_555 1_555
C177 C174 1_555 1_555
H136 C177 1_555 1_555
C178 H137 1_555 1_555
C179 C172 1_555 1_555
C180 C174 1_555 1_555
H138 C180 1_555 1_555
Co13 O14 1_555 1_555
Co19 O13 1_555 1_555
Co23 O41 1_555 1_555
C54 C56 1_555 1_555
C58 C63 1_555 1_555
C59 C61 1_555 1_555
C60 C62 1_555 1_555
C169 C170 1_555 1_555
C171 C172 1_555 1_555
C176 C177 1_555 1_555
C176 C179 1_555 1_555
C178 C179 1_555 1_555
C178 C180 1_555 1_555
N5 C42 1_555 1_555
C39 C38 1_555 1_555
C40 C39 1_555 1_555
C41 C39 1_555 1_555
C42 C41 1_555 1_555
H30 C42 1_555 1_555
C43 N5 1_555 1_555
H31 C43 1_555 1_555
Co3 O11 1_555 1_555
Co4 N5 1_555 1_555
O11 Co4 1_555 1_555
O12 Co4 1_555 1_555
C64 O12 1_555 1_555
H44 C64 1_555 1_555
H45 C65 1_555 1_555
H47 C65 1_555 1_555
O39 C168 1_555 1_555
O40 Co3 1_555 1_555
C167 C168 1_555 1_555
C168 O40 1_555 1_555
C173 C167 1_555 1_555
H134 C173 1_555 1_555
Co26 O39 1_555 1_555
O44 Co3 1_555 1_555
O48 Co4 1_555 1_555
O52 Co4 1_555 1_555
O54 Co3 1_555 1_555
O57 Co3 1_555 1_555
O58 Co3 1_555 1_555
C40 C43 1_555 1_555
Co26 O44 1_555 1_555
O18 C72 1_555 1_555
O19 C72 1_555 1_555
C67 H51 1_555 1_555
C68 C74 1_555 1_555
C69 C67 1_555 1_555
H52 C69 1_555 1_555
C70 C72 1_555 1_555
C71 C69 1_555 1_555
C73 O15 1_555 1_555
C74 C67 1_555 1_555
C75 C70 1_555 1_555
H53 C75 1_555 1_555
C76 C70 1_555 1_555
H54 C76 1_555 1_555
C77 C71 1_555 1_555
H55 C77 1_555 1_555
C78 C68 1_555 1_555
H56 C78 1_555 1_555
C79 C74 1_555 1_555
H57 C79 1_555 1_555
C80 C68 1_555 1_555
H58 C80 1_555 1_555
C83 N9 1_555 1_555
H63 C83 1_555 1_555
H65 C83 1_555 1_555
Co15 O19 1_555 1_555
Co21 O18 1_555 1_555
C71 C73 1_555 1_555
C75 C80 1_555 1_555
C76 C78 1_555 1_555
C77 C79 1_555 1_555
N7 C48 1_555 1_555
C44 N4 1_555 1_555
C45 C44 1_555 1_555
C46 C45 1_555 1_555
H32 C46 1_555 1_555
C47 C45 1_555 1_555
C48 C47 1_555 1_555
H34 C48 1_555 1_555
C49 N7 1_555 1_555
H35 C49 1_555 1_555
Co5 N7 1_555 1_555
O16 Co5 1_555 1_555
O17 Co5 1_555 1_555
C81 O17 1_555 1_555
H59 C81 1_555 1_555
H60 C82 1_555 1_555
H62 C82 1_555 1_555
Co10 O16 1_555 1_555
O47 Co5 1_555 1_555
O51 Co5 1_555 1_555
C46 C49 1_555 1_555
Co7_2 O25_2 1_555 1_555
O25_2 C107_2 1_555 1_555
O26_2 Co7_2 1_555 1_555
O27_2 Co7_2 1_555 1_555
N11_2 C115_2 1_555 1_555
C107_2 O26_2 1_555 1_555
C111_2 C105_2 1_555 1_555
H85_2 C111_2 1_555 1_555
H87_2 C113_2 1_555 1_555
C115_2 O27_2 1_555 1_555
H89_2 C115_2 1_555 1_555
C116_2 N11_2 1_555 1_555
H90_2 C116_2 1_555 1_555
H91_2 C116_2 1_555 1_555
H92_2 C116_2 1_555 1_555
C117_2 N11_2 1_555 1_555
H93_2 C117_2 1_555 1_555
H94_2 C117_2 1_555 1_555
H95_2 C117_2 1_555 1_555
O45_2 Co7_2 1_555 1_555
O50_2 Co7_2 1_555 1_555
N20_2 Co7_2 1_555 1_555
C105_2 C107_2 1_555 1_555
C111_2 C113_2 1_555 1_555
O23_2 C89_2 1_555 1_555
O24_2 C89_2 1_555 1_555
C87_2 C89_2 1_555 1_555
C93_2 C87_2 1_555 1_555
H69_2 C93_2 1_555 1_555
Co8_2 O30_2 1_555 1_555
O30_2 C124_2 1_555 1_555
O31_2 Co8_2 1_555 1_555
O32_2 Co8_2 1_555 1_555
N12_2 C132_2 1_555 1_555
C118_2 H96_2 1_555 1_555
C119_2 C125_2 1_555 1_555
C120_2 C118_2 1_555 1_555
H97_2 C120_2 1_555 1_555
C122_2 C120_2 1_555 1_555
C124_2 O31_2 1_555 1_555
C125_2 C118_2 1_555 1_555
C128_2 C122_2 1_555 1_555
H100_2 C128_2 1_555 1_555
C129_2 C119_2 1_555 1_555
H101_2 C129_2 1_555 1_555
C130_2 C125_2 1_555 1_555
H102_2 C130_2 1_555 1_555
C131_2 C119_2 1_555 1_555
H103_2 C131_2 1_555 1_555
C132_2 O32_2 1_555 1_555
H104_2 C132_2 1_555 1_555
C133_2 N12_2 1_555 1_555
H105_2 C133_2 1_555 1_555
H106_2 C133_2 1_555 1_555
H107_2 C133_2 1_555 1_555
C134_2 N12_2 1_555 1_555
H108_2 C134_2 1_555 1_555
H109_2 C134_2 1_555 1_555
H110_2 C134_2 1_555 1_555
Co11 O24_2 1_555 1_555
Co17 O23_2 1_555 1_555
O46_2 Co8_2 1_555 1_555
O49_2 Co8_2 1_555 1_555
N19_2 Co8_2 1_555 1_555
O31_2 Co11 1_555 1_555
C122_2 C124_2 1_555 1_555
C126_2 C131_2 1_555 1_555
C128_2 C130_2 1_555 1_555
C101_2 H81_2 1_555 1_555
C102_2 C108_2 1_555 1_555
C103_2 C101_2 1_555 1_555
H82_2 C103_2 1_555 1_555
C108_2 C101_2 1_555 1_555
C112_2 C102_2 1_555 1_555
H86_2 C112_2 1_555 1_555
C114_2 C102_2 1_555 1_555
H88_2 C114_2 1_555 1_555
O43_2 Co13 1_555 1_555
O55_2 Co13 1_555 1_555
Co19 O43_2 1_555 1_555
O20_2 Co26 1_555 1_555
O22_2 Co26 1_555 1_555
N10_2 C98_2 1_555 1_555
C84_2 H66_2 1_555 1_555
C85_2 C91_2 1_555 1_555
C86_2 C84_2 1_555 1_555
H67_2 C86_2 1_555 1_555
C88_2 C86_2 1_555 1_555
C90_2 O20_2 1_555 1_555
C91_2 C84_2 1_555 1_555
C94_2 C88_2 1_555 1_555
H70_2 C94_2 1_555 1_555
C95_2 C85_2 1_555 1_555
H71_2 C95_2 1_555 1_555
C96_2 C91_2 1_555 1_555
H72_2 C96_2 1_555 1_555
C97_2 C85_2 1_555 1_555
H73_2 C97_2 1_555 1_555
C98_2 O22_2 1_555 1_555
H74_2 C98_2 1_555 1_555
C99_2 N10_2 1_555 1_555
H75_2 C99_2 1_555 1_555
H76_2 C99_2 1_555 1_555
H77_2 C99_2 1_555 1_555
C100_2 N10_2 1_555 1_555
H78_2 C100_2 1_555 1_555
H79_2 C100_2 1_555 1_555
H80_2 C100_2 1_555 1_555
O28_2 Co26 1_555 1_555
C104_2 C106_2 1_555 1_555
C106_2 O28_2 1_555 1_555
C109_2 C104_2 1_555 1_555
H83_2 C109_2 1_555 1_555
C110_2 C104_2 1_555 1_555
H84_2 C110_2 1_555 1_555
C121_2 C123_2 1_555 1_555
C123_2 O48 1_555 1_555
C127_2 C121_2 1_555 1_555
H99_2 C127_2 1_555 1_555
C153_2 C154_2 1_555 1_555
C154_2 O52 1_555 1_555
C155_2 H123_2 1_555 1_555
C156_2 C153_2 1_555 1_555
H124_2 C156_2 1_555 1_555
C158_2 C155_2 1_555 1_555
C159_2 C153_2 1_555 1_555
H126_2 C159_2 1_555 1_555
O44 C90_2 1_555 1_555
C88_2 C90_2 1_555 1_555
C92_2 C97_2 1_555 1_555
C94_2 C96_2 1_555 1_555
O58 C106_2 1_555 1_555
O57 C123_2 1_555 1_555
O54 C154_2 1_555 1_555
C155_2 C156_2 1_555 1_555
C157_2 C158_2 1_555 1_555
C157_2 C159_2 1_555 1_555
C169_2 H131_2 1_555 1_555
H132_2 C170_2 1_555 1_555
C171_2 H133_2 1_555 1_555
C172_2 C169_2 1_555 1_555
O41_2 C175_2 1_555 1_555
O55_2 C175_2 1_555 1_555
C174_2 C175_2 1_555 1_555
C176_2 H135_2 1_555 1_555
C177_2 C174_2 1_555 1_555
H136_2 C177_2 1_555 1_555
C178_2 H137_2 1_555 1_555
C179_2 C172_2 1_555 1_555
C180_2 C174_2 1_555 1_555
H138_2 C180_2 1_555 1_555
Co19 O41_2 1_555 1_555
C169_2 C170_2 1_555 1_555
C171_2 C172_2 1_555 1_555
C176_2 C177_2 1_555 1_555
C176_2 C179_2 1_555 1_555
C178_2 C179_2 1_555 1_555
C178_2 C180_2 1_555 1_555
O37_2 C161_2 1_555 1_555
O38_2 C161_2 1_555 1_555
C160_2 C161_2 1_555 1_555
C162_2 H127_2 1_555 1_555
C163_2 C160_2 1_555 1_555
H128_2 C163_2 1_555 1_555
C166_2 C160_2 1_555 1_555
H130_2 C166_2 1_555 1_555
O39_2 C168_2 1_555 1_555
O40_2 Co10 1_555 1_555
C167_2 C168_2 1_555 1_555
C168_2 O40_2 1_555 1_555
C173_2 C167_2 1_555 1_555
H134_2 C173_2 1_555 1_555
Co11_2 O38_2 1_555 1_555
Co17_2 O37_2 1_555 1_555
Co24 O39_2 1_555 1_555
O44_2 Co10 1_555 1_555
O54_2 Co10 1_555 1_555
O57_2 Co10 1_555 1_555
O58_2 Co10 1_555 1_555
C162_2 C163_2 1_555 1_555
C162_2 C165_2 1_555 1_555
C164_2 C165_2 1_555 1_555
C164_2 C166_2 1_555 1_555
Co24 O44_2 1_555 1_555
O37_3 C161_3 1_555 1_555
O38_3 C161_3 1_555 1_555
C160_3 C161_3 1_555 1_555
C162_3 H127_3 1_555 1_555
C163_3 C160_3 1_555 1_555
H128_3 C163_3 1_555 1_555
C166_3 C160_3 1_555 1_555
H130_3 C166_3 1_555 1_555
Co12 O38_3 1_555 1_555
Co18 O37_3 1_555 1_555
C162_3 C163_3 1_555 1_555
C162_3 C165_3 1_555 1_555
C164_3 C165_3 1_555 1_555
C164_3 C166_3 1_555 1_555
Co7_3 O25_3 1_555 1_555
O25_3 C107_3 1_555 1_555
O26_3 Co7_3 1_555 1_555
O27_3 Co7_3 1_555 1_555
N11_3 C115_3 1_555 1_555
C101_3 H81_3 1_555 1_555
C102_3 C108_3 1_555 1_555
C103_3 C101_3 1_555 1_555
H82_3 C103_3 1_555 1_555
C105_3 C103_3 1_555 1_555
C107_3 O26_3 1_555 1_555
C108_3 C101_3 1_555 1_555
C111_3 C105_3 1_555 1_555
H85_3 C111_3 1_555 1_555
C112_3 C102_3 1_555 1_555
H86_3 C112_3 1_555 1_555
C113_3 C108_3 1_555 1_555
H87_3 C113_3 1_555 1_555
C114_3 C102_3 1_555 1_555
H88_3 C114_3 1_555 1_555
C115_3 O27_3 1_555 1_555
H89_3 C115_3 1_555 1_555
C116_3 N11_3 1_555 1_555
H90_3 C116_3 1_555 1_555
H91_3 C116_3 1_555 1_555
H92_3 C116_3 1_555 1_555
C117_3 N11_3 1_555 1_555
H93_3 C117_3 1_555 1_555
H94_3 C117_3 1_555 1_555
H95_3 C117_3 1_555 1_555
O43_3 Co15 1_555 1_555
O45_3 Co7_3 1_555 1_555
O50_3 Co7_3 1_555 1_555
O53_3 Co15 1_555 1_555
O56_3 Co15 1_555 1_555
N20_3 Co7_3 1_555 1_555
O26_3 Co15 1_555 1_555
C105_3 C107_3 1_555 1_555
C111_3 C113_3 1_555 1_555
Co21 O43_3 1_555 1_555
O20_3 Co24 1_555 1_555
O22_3 Co24 1_555 1_555
O23_3 C89_3 1_555 1_555
O24_3 C89_3 1_555 1_555
N10_3 C98_3 1_555 1_555
C84_3 H66_3 1_555 1_555
C85_3 C91_3 1_555 1_555
C86_3 C84_3 1_555 1_555
H67_3 C86_3 1_555 1_555
C87_3 C89_3 1_555 1_555
C88_3 C86_3 1_555 1_555
C90_3 O20_3 1_555 1_555
C91_3 C84_3 1_555 1_555
C92_3 C87_3 1_555 1_555
H68_3 C92_3 1_555 1_555
C93_3 C87_3 1_555 1_555
H69_3 C93_3 1_555 1_555
C94_3 C88_3 1_555 1_555
H70_3 C94_3 1_555 1_555
C95_3 C85_3 1_555 1_555
H71_3 C95_3 1_555 1_555
C96_3 C91_3 1_555 1_555
H72_3 C96_3 1_555 1_555
C97_3 C85_3 1_555 1_555
H73_3 C97_3 1_555 1_555
C98_3 O22_3 1_555 1_555
H74_3 C98_3 1_555 1_555
C99_3 N10_3 1_555 1_555
H75_3 C99_3 1_555 1_555
H76_3 C99_3 1_555 1_555
H77_3 C99_3 1_555 1_555
C100_3 N10_3 1_555 1_555
H78_3 C100_3 1_555 1_555
H79_3 C100_3 1_555 1_555
H80_3 C100_3 1_555 1_555
O28_3 Co24 1_555 1_555
C104_3 C106_3 1_555 1_555
C106_3 O28_3 1_555 1_555
C109_3 C104_3 1_555 1_555
H83_3 C109_3 1_555 1_555
C110_3 C104_3 1_555 1_555
H84_3 C110_3 1_555 1_555
Co8_3 O30_3 1_555 1_555
O30_3 C124_3 1_555 1_555
O31_3 Co8_3 1_555 1_555
O32_3 Co8_3 1_555 1_555
N12_3 C132_3 1_555 1_555
C118_3 H96_3 1_555 1_555
C119_3 C125_3 1_555 1_555
C120_3 C118_3 1_555 1_555
H97_3 C120_3 1_555 1_555
C121_3 C123_3 1_555 1_555
C122_3 C120_3 1_555 1_555
C123_3 O47 1_555 1_555
C124_3 O31_3 1_555 1_555
C125_3 C118_3 1_555 1_555
C126_3 C121_3 1_555 1_555
H98_3 C126_3 1_555 1_555
C127_3 C121_3 1_555 1_555
H99_3 C127_3 1_555 1_555
C128_3 C122_3 1_555 1_555
H100_3 C128_3 1_555 1_555
C129_3 C119_3 1_555 1_555
H101_3 C129_3 1_555 1_555
C130_3 C125_3 1_555 1_555
H102_3 C130_3 1_555 1_555
C131_3 C119_3 1_555 1_555
H103_3 C131_3 1_555 1_555
C132_3 O32_3 1_555 1_555
H104_3 C132_3 1_555 1_555
C133_3 N12_3 1_555 1_555
H105_3 C133_3 1_555 1_555
H106_3 C133_3 1_555 1_555
H107_3 C133_3 1_555 1_555
C134_3 N12_3 1_555 1_555
H108_3 C134_3 1_555 1_555
H109_3 C134_3 1_555 1_555
H110_3 C134_3 1_555 1_555
C153_3 C154_3 1_555 1_555
C154_3 O51 1_555 1_555
C155_3 H123_3 1_555 1_555
C156_3 C153_3 1_555 1_555
H124_3 C156_3 1_555 1_555
C158_3 C155_3 1_555 1_555
C159_3 C153_3 1_555 1_555
H126_3 C159_3 1_555 1_555
Co11_2 O24_3 1_555 1_555
Co17_2 O23_3 1_555 1_555
O46_3 Co8_3 1_555 1_555
O49_3 Co8_3 1_555 1_555
N19_3 Co8_3 1_555 1_555
O44_2 C90_3 1_555 1_555
C88_3 C90_3 1_555 1_555
C92_3 C97_3 1_555 1_555
C93_3 C95_3 1_555 1_555
C94_3 C96_3 1_555 1_555
O58_2 C106_3 1_555 1_555
O31_3 Co11_2 1_555 1_555
O57_2 C123_3 1_555 1_555
C122_3 C124_3 1_555 1_555
C126_3 C131_3 1_555 1_555
C127_3 C129_3 1_555 1_555
C128_3 C130_3 1_555 1_555
O54_2 C154_3 1_555 1_555
C155_3 C156_3 1_555 1_555
C157_3 C158_3 1_555 1_555
C157_3 C159_3 1_555 1_555
Co11 O2_2 1_555 1_555
Co17 O1_2 1_555 1_555
O1_2 C11_2 1_555 1_555
O2_2 Co17 1_555 1_555
O3_2 Co17 1_555 1_555
O45_2 C9_2 1_555 1_555
O49_2 C15_2 1_555 1_555
O6_2 Co11 1_555 1_555
O56_2 C9_2 1_555 1_555
N1_2 C2_2 1_555 1_555
N2_2 Co17 1_555 1_555
N3_2 C28_2 1_555 1_555
C1_2 H1_2 1_555 1_555
C2_2 C3_2 1_555 1_555
C3_2 C10_2 1_555 1_555
C4_2 C13_2 1_555 1_555
C5_2 C1_2 1_555 1_555
H2_2 C5_2 1_555 1_555
C6_2 C15_2 1_555 1_555
C7_2 C9_2 1_555 1_555
C8_2 C5_2 1_555 1_555
C11_2 O2_2 1_555 1_555
C12_2 C3_2 1_555 1_555
H4_2 C12_2 1_555 1_555
C13_2 C1_2 1_555 1_555
C14_2 C7_2 1_555 1_555
H5_2 C14_2 1_555 1_555
C15_2 O6_2 1_555 1_555
C16_2 N2_2 1_555 1_555
H6_2 C16_2 1_555 1_555
C17_2 C7_2 1_555 1_555
H7_2 C17_2 1_555 1_555
C18_2 C8_2 1_555 1_555
H8_2 C18_2 1_555 1_555
C19_2 H9_2 1_555 1_555
C20_2 C4_2 1_555 1_555
H10_2 C20_2 1_555 1_555
C21_2 C13_2 1_555 1_555
H11_2 C21_2 1_555 1_555
C22_2 C4_2 1_555 1_555
H12_2 C22_2 1_555 1_555
C23_2 N2_2 1_555 1_555
H13_2 C23_2 1_555 1_555
C24_2 C6_2 1_555 1_555
H14_2 C24_2 1_555 1_555
C25_2 H15_2 1_555 1_555
C26_2 C19_2 1_555 1_555
C27_2 C6_2 1_555 1_555
H16_2 C27_2 1_555 1_555
C28_2 O3_2 1_555 1_555
H17_2 C28_2 1_555 1_555
C29_2 N3_2 1_555 1_555
H18_2 C29_2 1_555 1_555
H19_2 C29_2 1_555 1_555
H20_2 C29_2 1_555 1_555
C30_2 N3_2 1_555 1_555
H21_2 C30_2 1_555 1_555
H22_2 C30_2 1_555 1_555
H23_2 C30_2 1_555 1_555
O50_3 C32_2 1_555 1_555
O53_3 C32_2 1_555 1_555
C31_2 C32_2 1_555 1_555
C33_2 H24_2 1_555 1_555
C34_2 C31_2 1_555 1_555
H25_2 C34_2 1_555 1_555
C35_2 H26_2 1_555 1_555
C36_2 C26_2 1_555 1_555
C37_2 C31_2 1_555 1_555
H27_2 C37_2 1_555 1_555
O29_2 Co11 1_555 1_555
C101_4 H81_4 1_555 1_555
C102_4 C108_4 1_555 1_555
C103_4 C101_4 1_555 1_555
H82_4 C103_4 1_555 1_555
C104_4 C106_4 1_555 1_555
C106_4 O46_2 1_555 1_555
C108_4 C101_4 1_555 1_555
C109_4 C104_4 1_555 1_555
H83_4 C109_4 1_555 1_555
C110_4 C104_4 1_555 1_555
H84_4 C110_4 1_555 1_555
C112_4 C102_4 1_555 1_555
H86_4 C112_4 1_555 1_555
C114_4 C102_4 1_555 1_555
H88_4 C114_4 1_555 1_555
N13_2 C135_2 1_555 1_555
C135_2 C136_2 1_555 1_555
C136_2 C137_2 1_555 1_555
C137_2 H111_2 1_555 1_555
C138_2 C136_2 1_555 1_555
H112_2 C138_2 1_555 1_555
C139_2 N19_2 1_555 1_555
H113_2 C139_2 1_555 1_555
C140_2 N19_2 1_555 1_555
H114_2 C140_2 1_555 1_555
N15_2 C141_2 1_555 1_555
N19_3 C145_2 1_555 1_555
C141_2 N13_2 1_555 1_555
C142_2 C141_2 1_555 1_555
C143_2 C142_2 1_555 1_555
H115_2 C143_2 1_555 1_555
C144_2 C142_2 1_555 1_555
H116_2 C144_2 1_555 1_555
C145_2 C144_2 1_555 1_555
H117_2 C145_2 1_555 1_555
C146_2 N19_3 1_555 1_555
H118_2 C146_2 1_555 1_555
N17_2 C135_2 1_555 1_555
N19 C151_2 1_555 1_555
C147_2 N15_2 1_555 1_555
C148_2 C147_2 1_555 1_555
C149_2 C148_2 1_555 1_555
H119_2 C149_2 1_555 1_555
C150_2 C148_2 1_555 1_555
H120_2 C150_2 1_555 1_555
C151_2 C150_2 1_555 1_555
H121_2 C151_2 1_555 1_555
C152_2 N19 1_555 1_555
H122_2 C152_2 1_555 1_555
Co9_2 O56_2 1_555 1_555
O26_2 Co9_2 1_555 1_555
O53_2 Co9_2 1_555 1_555
C8_2 C11_2 1_555 1_555
C10_2 C23_2 1_555 1_555
C12_2 C16_2 1_555 1_555
C14_2 C22_2 1_555 1_555
C17_2 C20_2 1_555 1_555
C18_2 C21_2 1_555 1_555
C19_2 C24_2 1_555 1_555
C25_2 C26_2 1_555 1_555
C25_2 C27_2 1_555 1_555
C33_2 C34_2 1_555 1_555
C33_2 C36_2 1_555 1_555
C35_2 C36_2 1_555 1_555
C35_2 C37_2 1_555 1_555
O29_2 C106_4 1_555 1_555
C109_4 C114_4 1_555 1_555
C110_4 C112_4 1_555 1_555
C137_2 C140_2 1_555 1_555
C138_2 C139_2 1_555 1_555
C143_2 C146_2 1_555 1_555
N17_2 C147_2 1_555 1_555
C149_2 C152_2 1_555 1_555
N5_2 C42_2 1_555 1_555
C39_2 C38_2 1_555 1_555
C40_2 C39_2 1_555 1_555
C41_2 C39_2 1_555 1_555
C42_2 C41_2 1_555 1_555
H30_2 C42_2 1_555 1_555
C43_2 N5_2 1_555 1_555
H31_2 C43_2 1_555 1_555
Co12 O11_2 1_555 1_555
Co18 N5_2 1_555 1_555
O10_2 Co18 1_555 1_555
O11_2 Co18 1_555 1_555
O12_2 Co18 1_555 1_555
O45 C55_2 1_555 1_555
O56 C55_2 1_555 1_555
N8_2 C64_2 1_555 1_555
C50_2 H36_2 1_555 1_555
C51_2 C57_2 1_555 1_555
C52_2 C50_2 1_555 1_555
H37_2 C52_2 1_555 1_555
C53_2 C55_2 1_555 1_555
C54_2 C52_2 1_555 1_555
C56_2 O10_2 1_555 1_555
C57_2 C50_2 1_555 1_555
C58_2 C53_2 1_555 1_555
H38_2 C58_2 1_555 1_555
C59_2 C53_2 1_555 1_555
H39_2 C59_2 1_555 1_555
C60_2 C54_2 1_555 1_555
H40_2 C60_2 1_555 1_555
C61_2 C51_2 1_555 1_555
H41_2 C61_2 1_555 1_555
C62_2 C57_2 1_555 1_555
H42_2 C62_2 1_555 1_555
C63_2 C51_2 1_555 1_555
H43_2 C63_2 1_555 1_555
C64_2 O12_2 1_555 1_555
H44_2 C64_2 1_555 1_555
C65_2 N8_2 1_555 1_555
H45_2 C65_2 1_555 1_555
H46_2 C65_2 1_555 1_555
H47_2 C65_2 1_555 1_555
C66_2 N8_2 1_555 1_555
H48_2 C66_2 1_555 1_555
H50_2 C66_2 1_555 1_555
O49 C168_3 1_555 1_555
O40_3 Co12 1_555 1_555
C167_3 C168_3 1_555 1_555
C168_3 O40_3 1_555 1_555
C169_3 H131_3 1_555 1_555
C170_3 C167_3 1_555 1_555
H132_3 C170_3 1_555 1_555
C171_3 H133_3 1_555 1_555
C172_3 C169_3 1_555 1_555
C173_3 C167_3 1_555 1_555
H134_3 C173_3 1_555 1_555
O50_2 C175_3 1_555 1_555
O53_2 C175_3 1_555 1_555
C174_3 C175_3 1_555 1_555
C176_3 H135_3 1_555 1_555
C177_3 C174_3 1_555 1_555
H136_3 C177_3 1_555 1_555
C178_3 H137_3 1_555 1_555
C179_3 C172_3 1_555 1_555
C180_3 C174_3 1_555 1_555
H138_3 C180_3 1_555 1_555
Co13_2 O56 1_555 1_555
O58_3 Co12 1_555 1_555
C40_2 C43_2 1_555 1_555
O11_2 C56_2 1_555 1_555
C54_2 C56_2 1_555 1_555
C58_2 C63_2 1_555 1_555
C59_2 C61_2 1_555 1_555
C60_2 C62_2 1_555 1_555
C169_3 C170_3 1_555 1_555
C171_3 C172_3 1_555 1_555
C171_3 C173_3 1_555 1_555
C176_3 C177_3 1_555 1_555
C176_3 C179_3 1_555 1_555
C178_3 C179_3 1_555 1_555
C178_3 C180_3 1_555 1_555
Co19 O25_4 1_555 1_555
O25_4 C107_4 1_555 1_555
O27_4 Co19 1_555 1_555
N11_4 C115_4 1_555 1_555
C107_4 O43_2 1_555 1_555
C111_4 C105_4 1_555 1_555
H85_4 C111_4 1_555 1_555
H87_4 C113_4 1_555 1_555
C115_4 O27_4 1_555 1_555
H89_4 C115_4 1_555 1_555
C116_4 N11_4 1_555 1_555
H90_4 C116_4 1_555 1_555
H91_4 C116_4 1_555 1_555
H92_4 C116_4 1_555 1_555
C117_4 N11_4 1_555 1_555
H93_4 C117_4 1_555 1_555
H94_4 C117_4 1_555 1_555
H95_4 C117_4 1_555 1_555
N20_4 Co19 1_555 1_555
C105_4 C107_4 1_555 1_555
C111_4 C113_4 1_555 1_555
N7_2 C48_2 1_555 1_555
C44_2 N4_2 1_555 1_555
C45_2 C44_2 1_555 1_555
C46_2 C45_2 1_555 1_555
H32_2 C46_2 1_555 1_555
C47_2 C45_2 1_555 1_555
C48_2 C47_2 1_555 1_555
H34_2 C48_2 1_555 1_555
C49_2 N7_2 1_555 1_555
H35_2 C49_2 1_555 1_555
Co17_2 N7_2 1_555 1_555
O15_2 Co17_2 1_555 1_555
O16_2 Co17_2 1_555 1_555
O17_2 Co17_2 1_555 1_555
O45_3 C72_2 1_555 1_555
O56_3 C72_2 1_555 1_555
N9_2 C81_2 1_555 1_555
C67_2 H51_2 1_555 1_555
C68_2 C74_2 1_555 1_555
C69_2 C67_2 1_555 1_555
H52_2 C69_2 1_555 1_555
C70_2 C72_2 1_555 1_555
C71_2 C69_2 1_555 1_555
C73_2 O15_2 1_555 1_555
C74_2 C67_2 1_555 1_555
C75_2 C70_2 1_555 1_555
H53_2 C75_2 1_555 1_555
C76_2 C70_2 1_555 1_555
H54_2 C76_2 1_555 1_555
C77_2 C71_2 1_555 1_555
H55_2 C77_2 1_555 1_555
C78_2 C68_2 1_555 1_555
H56_2 C78_2 1_555 1_555
C79_2 C74_2 1_555 1_555
H57_2 C79_2 1_555 1_555
C80_2 C68_2 1_555 1_555
H58_2 C80_2 1_555 1_555
C81_2 O17_2 1_555 1_555
H59_2 C81_2 1_555 1_555
C82_2 N9_2 1_555 1_555
H60_2 C82_2 1_555 1_555
H61_2 C82_2 1_555 1_555
H62_2 C82_2 1_555 1_555
C83_2 N9_2 1_555 1_555
H63_2 C83_2 1_555 1_555
H65_2 C83_2 1_555 1_555
Co11_2 O16_2 1_555 1_555
C46_2 C49_2 1_555 1_555
O16_2 C73_2 1_555 1_555
C71_2 C73_2 1_555 1_555
C75_2 C80_2 1_555 1_555
C76_2 C78_2 1_555 1_555
C77_2 C79_2 1_555 1_555
O49_3 C15_3 1_555 1_555
O6_3 Co11_2 1_555 1_555
C6_3 C15_3 1_555 1_555
C15_3 O6_3 1_555 1_555
C19_3 H9_3 1_555 1_555
C24_3 C6_3 1_555 1_555
H14_3 C24_3 1_555 1_555
C25_3 H15_3 1_555 1_555
C26_3 C19_3 1_555 1_555
C27_3 C6_3 1_555 1_555
H16_3 C27_3 1_555 1_555
O50 C32_3 1_555 1_555
O53 C32_3 1_555 1_555
C31_3 C32_3 1_555 1_555
C33_3 H24_3 1_555 1_555
C34_3 C31_3 1_555 1_555
H25_3 C34_3 1_555 1_555
C35_3 H26_3 1_555 1_555
C36_3 C26_3 1_555 1_555
C37_3 C31_3 1_555 1_555
H27_3 C37_3 1_555 1_555
Co21 O25_5 1_555 1_555
O25_5 C107_5 1_555 1_555
O27_5 Co21 1_555 1_555
O29_3 Co11_2 1_555 1_555
N11_5 C115_5 1_555 1_555
C101_5 H81_5 1_555 1_555
C102_5 C108_5 1_555 1_555
C103_5 C101_5 1_555 1_555
H82_5 C103_5 1_555 1_555
C104_5 C106_5 1_555 1_555
C105_5 C103_5 1_555 1_555
C106_5 O46_3 1_555 1_555
C107_5 O43_3 1_555 1_555
C108_5 C101_5 1_555 1_555
C109_5 C104_5 1_555 1_555
H83_5 C109_5 1_555 1_555
C110_5 C104_5 1_555 1_555
H84_5 C110_5 1_555 1_555
C111_5 C105_5 1_555 1_555
H85_5 C111_5 1_555 1_555
C112_5 C102_5 1_555 1_555
H86_5 C112_5 1_555 1_555
C113_5 C108_5 1_555 1_555
H87_5 C113_5 1_555 1_555
C114_5 C102_5 1_555 1_555
H88_5 C114_5 1_555 1_555
C115_5 O27_5 1_555 1_555
H89_5 C115_5 1_555 1_555
C116_5 N11_5 1_555 1_555
H90_5 C116_5 1_555 1_555
H91_5 C116_5 1_555 1_555
H92_5 C116_5 1_555 1_555
C117_5 N11_5 1_555 1_555
H93_5 C117_5 1_555 1_555
H94_5 C117_5 1_555 1_555
H95_5 C117_5 1_555 1_555
Co13_2 O53 1_555 1_555
N20_5 Co21 1_555 1_555
C19_3 C24_3 1_555 1_555
C25_3 C26_3 1_555 1_555
C25_3 C27_3 1_555 1_555
C33_3 C34_3 1_555 1_555
C33_3 C36_3 1_555 1_555
C35_3 C36_3 1_555 1_555
C35_3 C37_3 1_555 1_555
O29_3 C106_5 1_555 1_555
C105_5 C107_5 1_555 1_555
C109_5 C114_5 1_555 1_555
C110_5 C112_5 1_555 1_555
C111_5 C113_5 1_555 1_555
Co23 O25_6 1_555 1_555
O25_6 C107_6 1_555 1_555
O27_6 Co23 1_555 1_555
N11_6 C115_6 1_555 1_555
C107_6 O43 1_555 1_555
C111_6 C105_6 1_555 1_555
H85_6 C111_6 1_555 1_555
H87_6 C113_6 1_555 1_555
C115_6 O27_6 1_555 1_555
H89_6 C115_6 1_555 1_555
C116_6 N11_6 1_555 1_555
H90_6 C116_6 1_555 1_555
H91_6 C116_6 1_555 1_555
H92_6 C116_6 1_555 1_555
C117_6 N11_6 1_555 1_555
H93_6 C117_6 1_555 1_555
H94_6 C117_6 1_555 1_555
H95_6 C117_6 1_555 1_555
N20_6 Co23 1_555 1_555
C105_6 C107_6 1_555 1_555
C111_6 C113_6 1_555 1_555
C101_6 H81_6 1_555 1_555
C102_6 C108_6 1_555 1_555
C103_6 C101_6 1_555 1_555
H82_6 C103_6 1_555 1_555
C104_6 C106_6 1_555 1_555
C106_6 O46 1_555 1_555
C108_6 C101_6 1_555 1_555
C109_6 C104_6 1_555 1_555
H83_6 C109_6 1_555 1_555
C110_6 C104_6 1_555 1_555
H84_6 C110_6 1_555 1_555
C112_6 C102_6 1_555 1_555
H86_6 C112_6 1_555 1_555
C114_6 C102_6 1_555 1_555
H88_6 C114_6 1_555 1_555
O26 Co13_2 1_555 1_555
O58_3 C106_6 1_555 1_555
C109_6 C114_6 1_555 1_555
C110_6 C112_6 1_555 1_555
N13_3 C135_3 1_555 1_555
C135_3 C136_3 1_555 1_555
C136_3 C137_3 1_555 1_555
C137_3 H111_3 1_555 1_555
C138_3 C136_3 1_555 1_555
H112_3 C138_3 1_555 1_555
C139_3 N20_2 1_555 1_555
H113_3 C139_3 1_555 1_555
C140_3 N20_2 1_555 1_555
H114_3 C140_3 1_555 1_555
N15_3 C141_3 1_555 1_555
N20 C145_3 1_555 1_555
C141_3 N13_3 1_555 1_555
C142_3 C141_3 1_555 1_555
C143_3 C142_3 1_555 1_555
H115_3 C143_3 1_555 1_555
C144_3 C142_3 1_555 1_555
H116_3 C144_3 1_555 1_555
C145_3 C144_3 1_555 1_555
H117_3 C145_3 1_555 1_555
C146_3 N20 1_555 1_555
H118_3 C146_3 1_555 1_555
N17_3 C135_3 1_555 1_555
N20_3 C151_3 1_555 1_555
C147_3 N15_3 1_555 1_555
C148_3 C147_3 1_555 1_555
C149_3 C148_3 1_555 1_555
H119_3 C149_3 1_555 1_555
C150_3 C148_3 1_555 1_555
H120_3 C150_3 1_555 1_555
C151_3 C150_3 1_555 1_555
H121_3 C151_3 1_555 1_555
C152_3 N20_3 1_555 1_555
H122_3 C152_3 1_555 1_555
C137_3 C140_3 1_555 1_555
C138_3 C139_3 1_555 1_555
C143_3 C146_3 1_555 1_555
N17_3 C147_3 1_555 1_555
C149_3 C152_3 1_555 1_555
N1_3 C2_3 1_555 1_555
C2_3 C3_3 1_555 1_555
C3_3 C10_3 1_555 1_555
C10_3 H3_3 1_555 1_555
C12_3 C3_3 1_555 1_555
H4_3 C12_3 1_555 1_555
C16_3 N20_4 1_555 1_555
H6_3 C16_3 1_555 1_555
C23_3 N20_4 1_555 1_555
H13_3 C23_3 1_555 1_555
N4_3 C38_3 1_555 1_555
N20_5 C42_3 1_555 1_555
C38_3 N1_3 1_555 1_555
C39_3 C38_3 1_555 1_555
C40_3 C39_3 1_555 1_555
H28_3 C40_3 1_555 1_555
C41_3 C39_3 1_555 1_555
H29_3 C41_3 1_555 1_555
C42_3 C41_3 1_555 1_555
H30_3 C42_3 1_555 1_555
C43_3 N20_5 1_555 1_555
H31_3 C43_3 1_555 1_555
N6_3 C2_3 1_555 1_555
N20_6 C48_3 1_555 1_555
C44_3 N4_3 1_555 1_555
C45_3 C44_3 1_555 1_555
C46_3 C45_3 1_555 1_555
H32_3 C46_3 1_555 1_555
C47_3 C45_3 1_555 1_555
H33_3 C47_3 1_555 1_555
C48_3 C47_3 1_555 1_555
H34_3 C48_3 1_555 1_555
C49_3 N20_6 1_555 1_555
H35_3 C49_3 1_555 1_555
C10_3 C23_3 1_555 1_555
C12_3 C16_3 1_555 1_555
C40_3 C43_3 1_555 1_555
N6_3 C44_3 1_555 1_555
C46_3 C49_3 1_555 1_555
N7_3 C48_4 1_555 1_555
C44_4 N4_4 1_555 1_555
C45_4 C44_4 1_555 1_555
C46_4 C45_4 1_555 1_555
H32_4 C46_4 1_555 1_555
C47_4 C45_4 1_555 1_555
C48_4 C47_4 1_555 1_555
H34_4 C48_4 1_555 1_555
C49_4 N7_3 1_555 1_555
H35_4 C49_4 1_555 1_555
Co5_2 N7_3 1_555 1_555
O16_3 Co5_2 1_555 1_555
O17_3 Co5_2 1_555 1_555
C81_3 O17_3 1_555 1_555
H59_3 C81_3 1_555 1_555
H60_3 C82_3 1_555 1_555
H62_3 C82_3 1_555 1_555
Co10_2 O16_3 1_555 1_555
O47_2 Co5_2 1_555 1_555
O51_2 Co5_2 1_555 1_555
C46_4 C49_4 1_555 1_555
O18_2 C72_3 1_555 1_555
O19_2 C72_3 1_555 1_555
C67_3 H51_3 1_555 1_555
C68_3 C74_3 1_555 1_555
C69_3 C67_3 1_555 1_555
H52_3 C69_3 1_555 1_555
C70_3 C72_3 1_555 1_555
C71_3 C69_3 1_555 1_555
C73_3 O15_3 1_555 1_555
C74_3 C67_3 1_555 1_555
C75_3 C70_3 1_555 1_555
H53_3 C75_3 1_555 1_555
C76_3 C70_3 1_555 1_555
H54_3 C76_3 1_555 1_555
C77_3 C71_3 1_555 1_555
H55_3 C77_3 1_555 1_555
C78_3 C68_3 1_555 1_555
H56_3 C78_3 1_555 1_555
C79_3 C74_3 1_555 1_555
H57_3 C79_3 1_555 1_555
C80_3 C68_3 1_555 1_555
H58_3 C80_3 1_555 1_555
C83_3 N9_3 1_555 1_555
H63_3 C83_3 1_555 1_555
H65_3 C83_3 1_555 1_555
Co14 O19_2 1_555 1_555
Co20 O18_2 1_555 1_555
C71_3 C73_3 1_555 1_555
C75_3 C80_3 1_555 1_555
C76_3 C78_3 1_555 1_555
C77_3 C79_3 1_555 1_555
N5_3 C42_4 1_555 1_555
C39_4 C38_4 1_555 1_555
C40_4 C39_4 1_555 1_555
C41_4 C39_4 1_555 1_555
C42_4 C41_4 1_555 1_555
H30_4 C42_4 1_555 1_555
C43_4 N5_3 1_555 1_555
H31_4 C43_4 1_555 1_555
Co3_2 O11_3 1_555 1_555
Co4_2 N5_3 1_555 1_555
O11_3 Co4_2 1_555 1_555
O12_3 Co4_2 1_555 1_555
C64_3 O12_3 1_555 1_555
H44_3 C64_3 1_555 1_555
H45_3 C65_3 1_555 1_555
H47_3 C65_3 1_555 1_555
O39_3 C168_4 1_555 1_555
O40_4 Co3_2 1_555 1_555
C167_4 C168_4 1_555 1_555
C168_4 O40_4 1_555 1_555
C173_4 C167_4 1_555 1_555
H134_4 C173_4 1_555 1_555
Co25 O39_3 1_555 1_555
O44_3 Co3_2 1_555 1_555
O48_2 Co4_2 1_555 1_555
O52_2 Co4_2 1_555 1_555
O54_3 Co3_2 1_555 1_555
O57_3 Co3_2 1_555 1_555
O58_4 Co3_2 1_555 1_555
C40_4 C43_4 1_555 1_555
Co25 O44_3 1_555 1_555
O13_2 C55_3 1_555 1_555
O14_2 C55_3 1_555 1_555
C50_3 H36_3 1_555 1_555
C51_3 C57_3 1_555 1_555
C52_3 C50_3 1_555 1_555
H37_3 C52_3 1_555 1_555
C53_3 C55_3 1_555 1_555
C54_3 C52_3 1_555 1_555
C56_3 O10_3 1_555 1_555
C57_3 C50_3 1_555 1_555
C58_3 C53_3 1_555 1_555
H38_3 C58_3 1_555 1_555
C59_3 C53_3 1_555 1_555
H39_3 C59_3 1_555 1_555
C60_3 C54_3 1_555 1_555
H40_3 C60_3 1_555 1_555
C61_3 C51_3 1_555 1_555
H41_3 C61_3 1_555 1_555
C62_3 C57_3 1_555 1_555
H42_3 C62_3 1_555 1_555
C63_3 C51_3 1_555 1_555
H43_3 C63_3 1_555 1_555
C66_3 N8_3 1_555 1_555
H48_3 C66_3 1_555 1_555
H50_3 C66_3 1_555 1_555
C169_4 H131_4 1_555 1_555
H132_4 C170_4 1_555 1_555
C171_4 H133_4 1_555 1_555
C172_4 C169_4 1_555 1_555
O41_3 C175_4 1_555 1_555
O42 C175_4 1_555 1_555
C174_4 C175_4 1_555 1_555
C176_4 H135_4 1_555 1_555
C177_4 C174_4 1_555 1_555
H136_4 C177_4 1_555 1_555
C178_4 H137_4 1_555 1_555
C179_4 C172_4 1_555 1_555
C180_4 C174_4 1_555 1_555
H138_4 C180_4 1_555 1_555
Co13_3 O14_2 1_555 1_555
Co16 O42 1_555 1_555
Co19_2 O13_2 1_555 1_555
Co22 O41_3 1_555 1_555
C54_3 C56_3 1_555 1_555
C58_3 C63_3 1_555 1_555
C59_3 C61_3 1_555 1_555
C60_3 C62_3 1_555 1_555
C169_4 C170_4 1_555 1_555
C171_4 C172_4 1_555 1_555
C176_4 C177_4 1_555 1_555
C176_4 C179_4 1_555 1_555
C178_4 C179_4 1_555 1_555
C178_4 C180_4 1_555 1_555
O23_4 C89_4 1_555 1_555
O24_4 C89_4 1_555 1_555
C87_4 C89_4 1_555 1_555
C93_4 C87_4 1_555 1_555
H69_4 C93_4 1_555 1_555
Co8_4 O30_4 1_555 1_555
O30_4 C124_4 1_555 1_555
O31_4 Co8_4 1_555 1_555
O32_4 Co8_4 1_555 1_555
N12_4 C132_4 1_555 1_555
C118_4 H96_4 1_555 1_555
C119_4 C125_4 1_555 1_555
C120_4 C118_4 1_555 1_555
H97_4 C120_4 1_555 1_555
C122_4 C120_4 1_555 1_555
C124_4 O31_4 1_555 1_555
C125_4 C118_4 1_555 1_555
C128_4 C122_4 1_555 1_555
H100_4 C128_4 1_555 1_555
C129_4 C119_4 1_555 1_555
H101_4 C129_4 1_555 1_555
C130_4 C125_4 1_555 1_555
H102_4 C130_4 1_555 1_555
C131_4 C119_4 1_555 1_555
H103_4 C131_4 1_555 1_555
C132_4 O32_4 1_555 1_555
H104_4 C132_4 1_555 1_555
C133_4 N12_4 1_555 1_555
H105_4 C133_4 1_555 1_555
H106_4 C133_4 1_555 1_555
H107_4 C133_4 1_555 1_555
C134_4 N12_4 1_555 1_555
H108_4 C134_4 1_555 1_555
H109_4 C134_4 1_555 1_555
H110_4 C134_4 1_555 1_555
Co12_2 O24_4 1_555 1_555
Co18_2 O23_4 1_555 1_555
O46_4 Co8_4 1_555 1_555
O49_4 Co8_4 1_555 1_555
N19_4 Co8_4 1_555 1_555
O31_4 Co12_2 1_555 1_555
C122_4 C124_4 1_555 1_555
C126_4 C131_4 1_555 1_555
C128_4 C130_4 1_555 1_555
Co7_4 O25_7 1_555 1_555
O25_7 C107_7 1_555 1_555
O26_4 Co7_4 1_555 1_555
O27_7 Co7_4 1_555 1_555
N11_7 C115_7 1_555 1_555
C107_7 O26_4 1_555 1_555
C111_7 C105_7 1_555 1_555
H85_7 C111_7 1_555 1_555
H87_7 C113_7 1_555 1_555
C115_7 O27_7 1_555 1_555
H89_7 C115_7 1_555 1_555
C116_7 N11_7 1_555 1_555
H90_7 C116_7 1_555 1_555
H91_7 C116_7 1_555 1_555
H92_7 C116_7 1_555 1_555
C117_7 N11_7 1_555 1_555
H93_7 C117_7 1_555 1_555
H94_7 C117_7 1_555 1_555
H95_7 C117_7 1_555 1_555
O45_4 Co7_4 1_555 1_555
O50_4 Co7_4 1_555 1_555
N20_7 Co7_4 1_555 1_555
C105_7 C107_7 1_555 1_555
C111_7 C113_7 1_555 1_555
Co1_2 O2_3 1_555 1_555
O2_3 Co2_2 1_555 1_555
O3_3 Co2_2 1_555 1_555
O5_2 C15_4 1_555 1_555
O6_4 Co1_2 1_555 1_555
N1_4 C2_4 1_555 1_555
N2_3 Co2_2 1_555 1_555
C2_4 C3_4 1_555 1_555
C3_4 C10_4 1_555 1_555
C6_4 C15_4 1_555 1_555
C12_4 C3_4 1_555 1_555
H4_4 C12_4 1_555 1_555
C15_4 O6_4 1_555 1_555
C16_4 N2_3 1_555 1_555
H6_4 C16_4 1_555 1_555
C23_4 N2_3 1_555 1_555
H13_4 C23_4 1_555 1_555
C27_4 C6_4 1_555 1_555
H16_4 C27_4 1_555 1_555
C28_3 O3_3 1_555 1_555
H17_3 C28_3 1_555 1_555
H18_3 C29_3 1_555 1_555
H20_3 C29_3 1_555 1_555
Co6_2 O5_2 1_555 1_555
O20_4 Co6_2 1_555 1_555
O21_2 Co1_2 1_555 1_555
O22_4 Co6_2 1_555 1_555
N10_4 C98_4 1_555 1_555
C84_4 H66_4 1_555 1_555
C85_4 C91_4 1_555 1_555
C86_4 C84_4 1_555 1_555
H67_4 C86_4 1_555 1_555
C88_4 C86_4 1_555 1_555
C90_4 O20_4 1_555 1_555
C91_4 C84_4 1_555 1_555
C94_4 C88_4 1_555 1_555
H70_4 C94_4 1_555 1_555
C95_4 C85_4 1_555 1_555
H71_4 C95_4 1_555 1_555
C96_4 C91_4 1_555 1_555
H72_4 C96_4 1_555 1_555
C97_4 C85_4 1_555 1_555
H73_4 C97_4 1_555 1_555
C98_4 O22_4 1_555 1_555
H74_4 C98_4 1_555 1_555
C99_4 N10_4 1_555 1_555
H75_4 C99_4 1_555 1_555
H76_4 C99_4 1_555 1_555
H77_4 C99_4 1_555 1_555
C100_4 N10_4 1_555 1_555
H78_4 C100_4 1_555 1_555
H79_4 C100_4 1_555 1_555
H80_4 C100_4 1_555 1_555
O28_4 Co6_2 1_555 1_555
O29_4 Co1_2 1_555 1_555
C104_7 C106_7 1_555 1_555
C106_7 O28_4 1_555 1_555
C109_7 C104_7 1_555 1_555
H83_7 C109_7 1_555 1_555
C110_7 C104_7 1_555 1_555
H84_7 C110_7 1_555 1_555
O33_2 Co2_2 1_555 1_555
O34_2 Co1_2 1_555 1_555
C121_4 C123_4 1_555 1_555
C123_4 O33_2 1_555 1_555
C127_4 C121_4 1_555 1_555
H99_4 C127_4 1_555 1_555
N13_4 C135_4 1_555 1_555
N14_2 Co6_2 1_555 1_555
C135_4 C136_4 1_555 1_555
C136_4 C137_4 1_555 1_555
C137_4 H111_4 1_555 1_555
C138_4 C136_4 1_555 1_555
H112_4 C138_4 1_555 1_555
C139_4 N14_2 1_555 1_555
H113_4 C139_4 1_555 1_555
C140_4 N14_2 1_555 1_555
H114_4 C140_4 1_555 1_555
N15_4 C141_4 1_555 1_555
N16_2 C145_4 1_555 1_555
C141_4 N13_4 1_555 1_555
C142_4 C141_4 1_555 1_555
C143_4 C142_4 1_555 1_555
H115_4 C143_4 1_555 1_555
C144_4 C142_4 1_555 1_555
H116_4 C144_4 1_555 1_555
C145_4 C144_4 1_555 1_555
H117_4 C145_4 1_555 1_555
C146_4 N16_2 1_555 1_555
H118_4 C146_4 1_555 1_555
N17_4 C135_4 1_555 1_555
N18_2 C151_4 1_555 1_555
C147_4 N15_4 1_555 1_555
C148_4 C147_4 1_555 1_555
C149_4 C148_4 1_555 1_555
H119_4 C149_4 1_555 1_555
C150_4 C148_4 1_555 1_555
H120_4 C150_4 1_555 1_555
C151_4 C150_4 1_555 1_555
H121_4 C151_4 1_555 1_555
C152_4 N18_2 1_555 1_555
H122_4 C152_4 1_555 1_555
O35_2 Co2_2 1_555 1_555
O36_2 Co1_2 1_555 1_555
C153_4 C154_4 1_555 1_555
C154_4 O35_2 1_555 1_555
C155_4 H123_4 1_555 1_555
C156_4 C153_4 1_555 1_555
H124_4 C156_4 1_555 1_555
C157_4 H125_4 1_555 1_555
C158_4 C155_4 1_555 1_555
C159_4 C153_4 1_555 1_555
H126_4 C159_4 1_555 1_555
O37_4 C161_4 1_555 1_555
O38_4 C161_4 1_555 1_555
C160_4 C161_4 1_555 1_555
C162_4 H127_4 1_555 1_555
C163_4 C160_4 1_555 1_555
H128_4 C163_4 1_555 1_555
C164_4 H129_4 1_555 1_555
C165_4 C158_4 1_555 1_555
C166_4 C160_4 1_555 1_555
H130_4 C166_4 1_555 1_555
Co11_3 O38_4 1_555 1_555
Co17_3 O37_4 1_555 1_555
Co24_2 N16_2 1_555 1_555
Co25 N18_2 1_555 1_555
C10_4 C23_4 1_555 1_555
C12_4 C16_4 1_555 1_555
Co6_2 O21_2 1_555 1_555
O21_2 C90_4 1_555 1_555
C88_4 C90_4 1_555 1_555
C92_4 C97_4 1_555 1_555
C94_4 C96_4 1_555 1_555
O29_4 C106_7 1_555 1_555
O34_2 C123_4 1_555 1_555
C137_4 C140_4 1_555 1_555
C138_4 C139_4 1_555 1_555
C143_4 C146_4 1_555 1_555
N17_4 C147_4 1_555 1_555
C149_4 C152_4 1_555 1_555
O36_2 C154_4 1_555 1_555
C155_4 C156_4 1_555 1_555
C157_4 C158_4 1_555 1_555
C157_4 C159_4 1_555 1_555
C162_4 C163_4 1_555 1_555
C162_4 C165_4 1_555 1_555
C164_4 C165_4 1_555 1_555
C164_4 C166_4 1_555 1_555
O1_3 C11_3 1_555 1_555
O4_2 C9_3 1_555 1_555
O7_2 C9_3 1_555 1_555
C1_3 H1_3 1_555 1_555
C4_3 C13_3 1_555 1_555
C5_3 C1_3 1_555 1_555
H2_3 C5_3 1_555 1_555
C7_3 C9_3 1_555 1_555
C8_3 C5_3 1_555 1_555
C13_3 C1_3 1_555 1_555
C14_3 C7_3 1_555 1_555
H5_3 C14_3 1_555 1_555
C17_3 C7_3 1_555 1_555
H7_3 C17_3 1_555 1_555
C18_3 C8_3 1_555 1_555
H8_3 C18_3 1_555 1_555
C19_4 H9_4 1_555 1_555
C20_3 C4_3 1_555 1_555
H10_3 C20_3 1_555 1_555
C21_3 C13_3 1_555 1_555
H11_3 C21_3 1_555 1_555
C22_3 C4_3 1_555 1_555
H12_3 C22_3 1_555 1_555
H14_4 C24_4 1_555 1_555
C25_4 H15_4 1_555 1_555
C26_4 C19_4 1_555 1_555
C30_3 N3_3 1_555 1_555
H21_3 C30_3 1_555 1_555
H22_3 C30_3 1_555 1_555
H23_3 C30_3 1_555 1_555
O8_2 C32_4 1_555 1_555
O9_2 C32_4 1_555 1_555
C31_4 C32_4 1_555 1_555
C33_4 H24_4 1_555 1_555
C34_4 C31_4 1_555 1_555
H25_4 C34_4 1_555 1_555
C35_4 H26_4 1_555 1_555
C36_4 C26_4 1_555 1_555
C37_4 C31_4 1_555 1_555
H27_4 C37_4 1_555 1_555
C101_7 H81_7 1_555 1_555
C102_7 C108_7 1_555 1_555
C103_7 C101_7 1_555 1_555
H82_7 C103_7 1_555 1_555
C108_7 C101_7 1_555 1_555
C112_7 C102_7 1_555 1_555
H86_7 C112_7 1_555 1_555
C114_7 C102_7 1_555 1_555
H88_7 C114_7 1_555 1_555
Co16 O7_2 1_555 1_555
Co14 O9_2 1_555 1_555
Co20 O8_2 1_555 1_555
Co22 O4_2 1_555 1_555
O43_4 Co16 1_555 1_555
C8_3 C11_3 1_555 1_555
C14_3 C22_3 1_555 1_555
C17_3 C20_3 1_555 1_555
C18_3 C21_3 1_555 1_555
C19_4 C24_4 1_555 1_555
C25_4 C26_4 1_555 1_555
C33_4 C34_4 1_555 1_555
C33_4 C36_4 1_555 1_555
C35_4 C36_4 1_555 1_555
C35_4 C37_4 1_555 1_555
Co22 O43_4 1_555 1_555
O37_5 C161_5 1_555 1_555
O38_5 C161_5 1_555 1_555
C160_5 C161_5 1_555 1_555
C162_5 H127_5 1_555 1_555
C163_5 C160_5 1_555 1_555
H128_5 C163_5 1_555 1_555
C166_5 C160_5 1_555 1_555
H130_5 C166_5 1_555 1_555
O39_4 C168_5 1_555 1_555
O40_5 Co10_2 1_555 1_555
C167_5 C168_5 1_555 1_555
C168_5 O40_5 1_555 1_555
C173_5 C167_5 1_555 1_555
H134_5 C173_5 1_555 1_555
Co11_4 O38_5 1_555 1_555
Co17_4 O37_5 1_555 1_555
Co24_2 O39_4 1_555 1_555
O44_4 Co10_2 1_555 1_555
O54_4 Co10_2 1_555 1_555
O57_4 Co10_2 1_555 1_555
O58_5 Co10_2 1_555 1_555
C162_5 C163_5 1_555 1_555
C162_5 C165_5 1_555 1_555
C164_5 C165_5 1_555 1_555
C164_5 C166_5 1_555 1_555
Co24_2 O44_4 1_555 1_555
C169_5 H131_5 1_555 1_555
H132_5 C170_5 1_555 1_555
C171_5 H133_5 1_555 1_555
C172_5 C169_5 1_555 1_555
O41_4 C175_5 1_555 1_555
O42_2 C175_5 1_555 1_555
C174_5 C175_5 1_555 1_555
C176_5 H135_5 1_555 1_555
C177_5 C174_5 1_555 1_555
H136_5 C177_5 1_555 1_555
C178_5 H137_5 1_555 1_555
C179_5 C172_5 1_555 1_555
C180_5 C174_5 1_555 1_555
H138_5 C180_5 1_555 1_555
Co13_3 O42_2 1_555 1_555
Co19_2 O41_4 1_555 1_555
C169_5 C170_5 1_555 1_555
C171_5 C172_5 1_555 1_555
C176_5 C177_5 1_555 1_555
C176_5 C179_5 1_555 1_555
C178_5 C179_5 1_555 1_555
C178_5 C180_5 1_555 1_555
O20_5 Co25 1_555 1_555
O22_5 Co25 1_555 1_555
N10_5 C98_5 1_555 1_555
C84_5 H66_5 1_555 1_555
C85_5 C91_5 1_555 1_555
C86_5 C84_5 1_555 1_555
H67_5 C86_5 1_555 1_555
C88_5 C86_5 1_555 1_555
C90_5 O20_5 1_555 1_555
C91_5 C84_5 1_555 1_555
C94_5 C88_5 1_555 1_555
H70_5 C94_5 1_555 1_555
C95_5 C85_5 1_555 1_555
H71_5 C95_5 1_555 1_555
C96_5 C91_5 1_555 1_555
H72_5 C96_5 1_555 1_555
C97_5 C85_5 1_555 1_555
H73_5 C97_5 1_555 1_555
C98_5 O22_5 1_555 1_555
H74_5 C98_5 1_555 1_555
C99_5 N10_5 1_555 1_555
H75_5 C99_5 1_555 1_555
H76_5 C99_5 1_555 1_555
H77_5 C99_5 1_555 1_555
C100_5 N10_5 1_555 1_555
H78_5 C100_5 1_555 1_555
H79_5 C100_5 1_555 1_555
H80_5 C100_5 1_555 1_555
O28_5 Co25 1_555 1_555
C104_8 C106_8 1_555 1_555
C106_8 O28_5 1_555 1_555
C109_8 C104_8 1_555 1_555
H83_8 C109_8 1_555 1_555
C110_8 C104_8 1_555 1_555
H84_8 C110_8 1_555 1_555
C121_5 C123_5 1_555 1_555
C123_5 O48_2 1_555 1_555
C127_5 C121_5 1_555 1_555
H99_5 C127_5 1_555 1_555
C153_5 C154_5 1_555 1_555
C154_5 O52_2 1_555 1_555
C155_5 H123_5 1_555 1_555
C156_5 C153_5 1_555 1_555
H124_5 C156_5 1_555 1_555
C158_5 C155_5 1_555 1_555
C159_5 C153_5 1_555 1_555
H126_5 C159_5 1_555 1_555
O44_3 C90_5 1_555 1_555
C88_5 C90_5 1_555 1_555
C92_5 C97_5 1_555 1_555
C94_5 C96_5 1_555 1_555
O58_4 C106_8 1_555 1_555
O57_3 C123_5 1_555 1_555
O54_3 C154_5 1_555 1_555
C155_5 C156_5 1_555 1_555
C157_5 C158_5 1_555 1_555
C157_5 C159_5 1_555 1_555
C101_8 H81_8 1_555 1_555
C102_8 C108_8 1_555 1_555
C103_8 C101_8 1_555 1_555
H82_8 C103_8 1_555 1_555
C108_8 C101_8 1_555 1_555
C112_8 C102_8 1_555 1_555
H86_8 C112_8 1_555 1_555
C114_8 C102_8 1_555 1_555
H88_8 C114_8 1_555 1_555
O43_5 Co13_3 1_555 1_555
Co19_2 O43_5 1_555 1_555
O23_5 C89_5 1_555 1_555
O24_5 C89_5 1_555 1_555
C87_5 C89_5 1_555 1_555
C93_5 C87_5 1_555 1_555
H69_5 C93_5 1_555 1_555
Co8_5 O30_5 1_555 1_555
O30_5 C124_5 1_555 1_555
O31_5 Co8_5 1_555 1_555
O32_5 Co8_5 1_555 1_555
N12_5 C132_5 1_555 1_555
C118_5 H96_5 1_555 1_555
C119_5 C125_5 1_555 1_555
C120_5 C118_5 1_555 1_555
H97_5 C120_5 1_555 1_555
C122_5 C120_5 1_555 1_555
C124_5 O31_5 1_555 1_555
C125_5 C118_5 1_555 1_555
C128_5 C122_5 1_555 1_555
H100_5 C128_5 1_555 1_555
C129_5 C119_5 1_555 1_555
H101_5 C129_5 1_555 1_555
C130_5 C125_5 1_555 1_555
H102_5 C130_5 1_555 1_555
C131_5 C119_5 1_555 1_555
H103_5 C131_5 1_555 1_555
C132_5 O32_5 1_555 1_555
H104_5 C132_5 1_555 1_555
C133_5 N12_5 1_555 1_555
H105_5 C133_5 1_555 1_555
H106_5 C133_5 1_555 1_555
H107_5 C133_5 1_555 1_555
C134_5 N12_5 1_555 1_555
H108_5 C134_5 1_555 1_555
H109_5 C134_5 1_555 1_555
H110_5 C134_5 1_555 1_555
Co11_3 O24_5 1_555 1_555
Co17_3 O23_5 1_555 1_555
O46_5 Co8_5 1_555 1_555
O49_5 Co8_5 1_555 1_555
N19_5 Co8_5 1_555 1_555
O31_5 Co11_3 1_555 1_555
C122_5 C124_5 1_555 1_555
C126_5 C131_5 1_555 1_555
C128_5 C130_5 1_555 1_555
Co7_5 O25_8 1_555 1_555
O25_8 C107_8 1_555 1_555
O26_5 Co7_5 1_555 1_555
O27_8 Co7_5 1_555 1_555
N11_8 C115_8 1_555 1_555
C107_8 O26_5 1_555 1_555
C111_8 C105_8 1_555 1_555
H85_8 C111_8 1_555 1_555
H87_8 C113_8 1_555 1_555
C115_8 O27_8 1_555 1_555
H89_8 C115_8 1_555 1_555
C116_8 N11_8 1_555 1_555
H90_8 C116_8 1_555 1_555
H91_8 C116_8 1_555 1_555
H92_8 C116_8 1_555 1_555
C117_8 N11_8 1_555 1_555
H93_8 C117_8 1_555 1_555
H94_8 C117_8 1_555 1_555
H95_8 C117_8 1_555 1_555
O45_5 Co7_5 1_555 1_555
O50_5 Co7_5 1_555 1_555
N20_8 Co7_5 1_555 1_555
C105_8 C107_8 1_555 1_555
C111_8 C113_8 1_555 1_555
O20_6 Co24_2 1_555 1_555
O22_6 Co24_2 1_555 1_555
O23_6 C89_6 1_555 1_555
O24_6 C89_6 1_555 1_555
N10_6 C98_6 1_555 1_555
C84_6 H66_6 1_555 1_555
C85_6 C91_6 1_555 1_555
C86_6 C84_6 1_555 1_555
H67_6 C86_6 1_555 1_555
C87_6 C89_6 1_555 1_555
C88_6 C86_6 1_555 1_555
C90_6 O20_6 1_555 1_555
C91_6 C84_6 1_555 1_555
C92_6 C87_6 1_555 1_555
H68_6 C92_6 1_555 1_555
C93_6 C87_6 1_555 1_555
H69_6 C93_6 1_555 1_555
C94_6 C88_6 1_555 1_555
H70_6 C94_6 1_555 1_555
C95_6 C85_6 1_555 1_555
H71_6 C95_6 1_555 1_555
C96_6 C91_6 1_555 1_555
H72_6 C96_6 1_555 1_555
C97_6 C85_6 1_555 1_555
H73_6 C97_6 1_555 1_555
C98_6 O22_6 1_555 1_555
H74_6 C98_6 1_555 1_555
C99_6 N10_6 1_555 1_555
H75_6 C99_6 1_555 1_555
H76_6 C99_6 1_555 1_555
H77_6 C99_6 1_555 1_555
C100_6 N10_6 1_555 1_555
H78_6 C100_6 1_555 1_555
H79_6 C100_6 1_555 1_555
H80_6 C100_6 1_555 1_555
O28_6 Co24_2 1_555 1_555
C104_9 C106_9 1_555 1_555
C106_9 O28_6 1_555 1_555
C109_9 C104_9 1_555 1_555
H83_9 C109_9 1_555 1_555
C110_9 C104_9 1_555 1_555
H84_9 C110_9 1_555 1_555
Co8_6 O30_6 1_555 1_555
O30_6 C124_6 1_555 1_555
O31_6 Co8_6 1_555 1_555
O32_6 Co8_6 1_555 1_555
N12_6 C132_6 1_555 1_555
C118_6 H96_6 1_555 1_555
C119_6 C125_6 1_555 1_555
C120_6 C118_6 1_555 1_555
H97_6 C120_6 1_555 1_555
C121_6 C123_6 1_555 1_555
C122_6 C120_6 1_555 1_555
C123_6 O47_2 1_555 1_555
C124_6 O31_6 1_555 1_555
C125_6 C118_6 1_555 1_555
C126_6 C121_6 1_555 1_555
H98_6 C126_6 1_555 1_555
C127_6 C121_6 1_555 1_555
H99_6 C127_6 1_555 1_555
C128_6 C122_6 1_555 1_555
H100_6 C128_6 1_555 1_555
C129_6 C119_6 1_555 1_555
H101_6 C129_6 1_555 1_555
C130_6 C125_6 1_555 1_555
H102_6 C130_6 1_555 1_555
C131_6 C119_6 1_555 1_555
H103_6 C131_6 1_555 1_555
C132_6 O32_6 1_555 1_555
H104_6 C132_6 1_555 1_555
C133_6 N12_6 1_555 1_555
H105_6 C133_6 1_555 1_555
H106_6 C133_6 1_555 1_555
H107_6 C133_6 1_555 1_555
C134_6 N12_6 1_555 1_555
H108_6 C134_6 1_555 1_555
H109_6 C134_6 1_555 1_555
H110_6 C134_6 1_555 1_555
C153_6 C154_6 1_555 1_555
C154_6 O51_2 1_555 1_555
C155_6 H123_6 1_555 1_555
C156_6 C153_6 1_555 1_555
H124_6 C156_6 1_555 1_555
C158_6 C155_6 1_555 1_555
C159_6 C153_6 1_555 1_555
H126_6 C159_6 1_555 1_555
Co11_4 O24_6 1_555 1_555
Co17_4 O23_6 1_555 1_555
O46_6 Co8_6 1_555 1_555
O49_6 Co8_6 1_555 1_555
N19_6 Co8_6 1_555 1_555
O44_4 C90_6 1_555 1_555
C88_6 C90_6 1_555 1_555
C92_6 C97_6 1_555 1_555
C93_6 C95_6 1_555 1_555
C94_6 C96_6 1_555 1_555
O58_5 C106_9 1_555 1_555
O31_6 Co11_4 1_555 1_555
O57_4 C123_6 1_555 1_555
C122_6 C124_6 1_555 1_555
C126_6 C131_6 1_555 1_555
C127_6 C129_6 1_555 1_555
C128_6 C130_6 1_555 1_555
O54_4 C154_6 1_555 1_555
C155_6 C156_6 1_555 1_555
C157_6 C158_6 1_555 1_555
C157_6 C159_6 1_555 1_555
Co7_6 O25_9 1_555 1_555
O25_9 C107_9 1_555 1_555
O26_6 Co7_6 1_555 1_555
O27_9 Co7_6 1_555 1_555
N11_9 C115_9 1_555 1_555
C101_9 H81_9 1_555 1_555
C102_9 C108_9 1_555 1_555
C103_9 C101_9 1_555 1_555
H82_9 C103_9 1_555 1_555
C105_9 C103_9 1_555 1_555
C107_9 O26_6 1_555 1_555
C108_9 C101_9 1_555 1_555
C111_9 C105_9 1_555 1_555
H85_9 C111_9 1_555 1_555
C112_9 C102_9 1_555 1_555
H86_9 C112_9 1_555 1_555
C113_9 C108_9 1_555 1_555
H87_9 C113_9 1_555 1_555
C114_9 C102_9 1_555 1_555
H88_9 C114_9 1_555 1_555
C115_9 O27_9 1_555 1_555
H89_9 C115_9 1_555 1_555
C116_9 N11_9 1_555 1_555
H90_9 C116_9 1_555 1_555
H91_9 C116_9 1_555 1_555
H92_9 C116_9 1_555 1_555
C117_9 N11_9 1_555 1_555
H93_9 C117_9 1_555 1_555
H94_9 C117_9 1_555 1_555
H95_9 C117_9 1_555 1_555
O43_6 Co14 1_555 1_555
O45_6 Co7_6 1_555 1_555
O50_6 Co7_6 1_555 1_555
O53_6 Co14 1_555 1_555
O56_6 Co14 1_555 1_555
N20_9 Co7_6 1_555 1_555
O26_6 Co14 1_555 1_555
C105_9 C107_9 1_555 1_555
C111_9 C113_9 1_555 1_555
Co20 O43_6 1_555 1_555
O37_6 C161_6 1_555 1_555
O38_6 C161_6 1_555 1_555
C160_6 C161_6 1_555 1_555
C162_6 H127_6 1_555 1_555
C163_6 C160_6 1_555 1_555
H128_6 C163_6 1_555 1_555
C166_6 C160_6 1_555 1_555
H130_6 C166_6 1_555 1_555
Co12_2 O38_6 1_555 1_555
Co18_2 O37_6 1_555 1_555
C162_6 C163_6 1_555 1_555
C162_6 C165_6 1_555 1_555
C164_6 C165_6 1_555 1_555
C164_6 C166_6 1_555 1_555
N7_4 C48_5 1_555 1_555
C44_5 N4_5 1_555 1_555
C45_5 C44_5 1_555 1_555
C46_5 C45_5 1_555 1_555
H32_5 C46_5 1_555 1_555
C47_5 C45_5 1_555 1_555
C48_5 C47_5 1_555 1_555
H34_5 C48_5 1_555 1_555
C49_5 N7_4 1_555 1_555
H35_5 C49_5 1_555 1_555
Co17_4 N7_4 1_555 1_555
O15_4 Co17_4 1_555 1_555
O16_4 Co17_4 1_555 1_555
O17_4 Co17_4 1_555 1_555
O45_6 C72_4 1_555 1_555
O56_6 C72_4 1_555 1_555
N9_4 C81_4 1_555 1_555
C67_4 H51_4 1_555 1_555
C68_4 C74_4 1_555 1_555
C69_4 C67_4 1_555 1_555
H52_4 C69_4 1_555 1_555
C70_4 C72_4 1_555 1_555
C71_4 C69_4 1_555 1_555
C73_4 O15_4 1_555 1_555
C74_4 C67_4 1_555 1_555
C75_4 C70_4 1_555 1_555
H53_4 C75_4 1_555 1_555
C76_4 C70_4 1_555 1_555
H54_4 C76_4 1_555 1_555
C77_4 C71_4 1_555 1_555
H55_4 C77_4 1_555 1_555
C78_4 C68_4 1_555 1_555
H56_4 C78_4 1_555 1_555
C79_4 C74_4 1_555 1_555
H57_4 C79_4 1_555 1_555
C80_4 C68_4 1_555 1_555
H58_4 C80_4 1_555 1_555
C81_4 O17_4 1_555 1_555
H59_4 C81_4 1_555 1_555
C82_4 N9_4 1_555 1_555
H60_4 C82_4 1_555 1_555
H61_4 C82_4 1_555 1_555
H62_4 C82_4 1_555 1_555
C83_4 N9_4 1_555 1_555
H63_4 C83_4 1_555 1_555
H65_4 C83_4 1_555 1_555
Co11_4 O16_4 1_555 1_555
C46_5 C49_5 1_555 1_555
O16_4 C73_4 1_555 1_555
C71_4 C73_4 1_555 1_555
C75_4 C80_4 1_555 1_555
C76_4 C78_4 1_555 1_555
C77_4 C79_4 1_555 1_555
Co19_2 O25_10 1_555 1_555
O25_10 C107_10 1_555 1_555
O27_10 Co19_2 1_555 1_555
N11_10 C115_10 1_555 1_555
C107_10 O43_5 1_555 1_555
C111_10 C105_10 1_555 1_555
H85_10 C111_10 1_555 1_555
H87_10 C113_10 1_555 1_555
C115_10 O27_10 1_555 1_555
H89_10 C115_10 1_555 1_555
C116_10 N11_10 1_555 1_555
H90_10 C116_10 1_555 1_555
H91_10 C116_10 1_555 1_555
H92_10 C116_10 1_555 1_555
C117_10 N11_10 1_555 1_555
H93_10 C117_10 1_555 1_555
H94_10 C117_10 1_555 1_555
H95_10 C117_10 1_555 1_555
N20_10 Co19_2 1_555 1_555
C105_10 C107_10 1_555 1_555
C111_10 C113_10 1_555 1_555
N5_4 C42_5 1_555 1_555
C39_5 C38_5 1_555 1_555
C40_5 C39_5 1_555 1_555
C41_5 C39_5 1_555 1_555
C42_5 C41_5 1_555 1_555
H30_5 C42_5 1_555 1_555
C43_5 N5_4 1_555 1_555
H31_5 C43_5 1_555 1_555
Co12_2 O11_4 1_555 1_555
Co18_2 N5_4 1_555 1_555
O10_4 Co18_2 1_555 1_555
O11_4 Co18_2 1_555 1_555
O12_4 Co18_2 1_555 1_555
O45_4 C55_4 1_555 1_555
O56_4 C55_4 1_555 1_555
N8_4 C64_4 1_555 1_555
C50_4 H36_4 1_555 1_555
C51_4 C57_4 1_555 1_555
C52_4 C50_4 1_555 1_555
H37_4 C52_4 1_555 1_555
C53_4 C55_4 1_555 1_555
C54_4 C52_4 1_555 1_555
C56_4 O10_4 1_555 1_555
C57_4 C50_4 1_555 1_555
C58_4 C53_4 1_555 1_555
H38_4 C58_4 1_555 1_555
C59_4 C53_4 1_555 1_555
H39_4 C59_4 1_555 1_555
C60_4 C54_4 1_555 1_555
H40_4 C60_4 1_555 1_555
C61_4 C51_4 1_555 1_555
H41_4 C61_4 1_555 1_555
C62_4 C57_4 1_555 1_555
H42_4 C62_4 1_555 1_555
C63_4 C51_4 1_555 1_555
H43_4 C63_4 1_555 1_555
C64_4 O12_4 1_555 1_555
H44_4 C64_4 1_555 1_555
C65_4 N8_4 1_555 1_555
H45_4 C65_4 1_555 1_555
H46_4 C65_4 1_555 1_555
H47_4 C65_4 1_555 1_555
C66_4 N8_4 1_555 1_555
H48_4 C66_4 1_555 1_555
H50_4 C66_4 1_555 1_555
O49_4 C168_6 1_555 1_555
O40_6 Co12_2 1_555 1_555
C167_6 C168_6 1_555 1_555
C168_6 O40_6 1_555 1_555
C169_6 H131_6 1_555 1_555
C170_6 C167_6 1_555 1_555
H132_6 C170_6 1_555 1_555
C171_6 H133_6 1_555 1_555
C172_6 C169_6 1_555 1_555
C173_6 C167_6 1_555 1_555
H134_6 C173_6 1_555 1_555
O50_5 C175_6 1_555 1_555
O53_5 C175_6 1_555 1_555
C174_6 C175_6 1_555 1_555
C176_6 H135_6 1_555 1_555
C177_6 C174_6 1_555 1_555
H136_6 C177_6 1_555 1_555
C178_6 H137_6 1_555 1_555
C179_6 C172_6 1_555 1_555
C180_6 C174_6 1_555 1_555
H138_6 C180_6 1_555 1_555
Co13_4 O56_4 1_555 1_555
Co16_2 O53_5 1_555 1_555
O58_6 Co12_2 1_555 1_555
C40_5 C43_5 1_555 1_555
O11_4 C56_4 1_555 1_555
C54_4 C56_4 1_555 1_555
C58_4 C63_4 1_555 1_555
C59_4 C61_4 1_555 1_555
C60_4 C62_4 1_555 1_555
C169_6 C170_6 1_555 1_555
C171_6 C172_6 1_555 1_555
C171_6 C173_6 1_555 1_555
C176_6 C177_6 1_555 1_555
C176_6 C179_6 1_555 1_555
C178_6 C179_6 1_555 1_555
C178_6 C180_6 1_555 1_555
Co11_3 O2_4 1_555 1_555
Co17_3 O1_4 1_555 1_555
O1_4 C11_4 1_555 1_555
O2_4 Co17_3 1_555 1_555
O3_4 Co17_3 1_555 1_555
O45_5 C9_4 1_555 1_555
O49_5 C15_5 1_555 1_555
O6_5 Co11_3 1_555 1_555
O56_5 C9_4 1_555 1_555
N1_5 C2_5 1_555 1_555
N2_4 Co17_3 1_555 1_555
N3_4 C28_4 1_555 1_555
C1_4 H1_4 1_555 1_555
C2_5 C3_5 1_555 1_555
C3_5 C10_5 1_555 1_555
C4_4 C13_4 1_555 1_555
C5_4 C1_4 1_555 1_555
H2_4 C5_4 1_555 1_555
C6_5 C15_5 1_555 1_555
C7_4 C9_4 1_555 1_555
C8_4 C5_4 1_555 1_555
C11_4 O2_4 1_555 1_555
C12_5 C3_5 1_555 1_555
H4_5 C12_5 1_555 1_555
C13_4 C1_4 1_555 1_555
C14_4 C7_4 1_555 1_555
H5_4 C14_4 1_555 1_555
C15_5 O6_5 1_555 1_555
C16_5 N2_4 1_555 1_555
H6_5 C16_5 1_555 1_555
C17_4 C7_4 1_555 1_555
H7_4 C17_4 1_555 1_555
C18_4 C8_4 1_555 1_555
H8_4 C18_4 1_555 1_555
C19_5 H9_5 1_555 1_555
C20_4 C4_4 1_555 1_555
H10_4 C20_4 1_555 1_555
C21_4 C13_4 1_555 1_555
H11_4 C21_4 1_555 1_555
C22_4 C4_4 1_555 1_555
H12_4 C22_4 1_555 1_555
C23_5 N2_4 1_555 1_555
H13_5 C23_5 1_555 1_555
C24_5 C6_5 1_555 1_555
H14_5 C24_5 1_555 1_555
C25_5 H15_5 1_555 1_555
C26_5 C19_5 1_555 1_555
C27_5 C6_5 1_555 1_555
H16_5 C27_5 1_555 1_555
C28_4 O3_4 1_555 1_555
H17_4 C28_4 1_555 1_555
C29_4 N3_4 1_555 1_555
H18_4 C29_4 1_555 1_555
H19_4 C29_4 1_555 1_555
H20_4 C29_4 1_555 1_555
C30_4 N3_4 1_555 1_555
H21_4 C30_4 1_555 1_555
H22_4 C30_4 1_555 1_555
H23_4 C30_4 1_555 1_555
O50_6 C32_5 1_555 1_555
O53_6 C32_5 1_555 1_555
C31_5 C32_5 1_555 1_555
C33_5 H24_5 1_555 1_555
C34_5 C31_5 1_555 1_555
H25_5 C34_5 1_555 1_555
C35_5 H26_5 1_555 1_555
C36_5 C26_5 1_555 1_555
C37_5 C31_5 1_555 1_555
H27_5 C37_5 1_555 1_555
O29_5 Co11_3 1_555 1_555
C101_10 H81_10 1_555 1_555
C102_10 C108_10 1_555 1_555
C103_10 C101_10 1_555 1_555
H82_10 C103_10 1_555 1_555
C104_10 C106_10 1_555 1_555
C106_10 O46_5 1_555 1_555
C108_10 C101_10 1_555 1_555
C109_10 C104_10 1_555 1_555
H83_10 C109_10 1_555 1_555
C110_10 C104_10 1_555 1_555
H84_10 C110_10 1_555 1_555
C112_10 C102_10 1_555 1_555
H86_10 C112_10 1_555 1_555
C114_10 C102_10 1_555 1_555
H88_10 C114_10 1_555 1_555
N13_5 C135_5 1_555 1_555
C135_5 C136_5 1_555 1_555
C136_5 C137_5 1_555 1_555
C137_5 H111_5 1_555 1_555
C138_5 C136_5 1_555 1_555
H112_5 C138_5 1_555 1_555
C139_5 N19_5 1_555 1_555
H113_5 C139_5 1_555 1_555
C140_5 N19_5 1_555 1_555
H114_5 C140_5 1_555 1_555
N15_5 C141_5 1_555 1_555
N19_6 C145_5 1_555 1_555
C141_5 N13_5 1_555 1_555
C142_5 C141_5 1_555 1_555
C143_5 C142_5 1_555 1_555
H115_5 C143_5 1_555 1_555
C144_5 C142_5 1_555 1_555
H116_5 C144_5 1_555 1_555
C145_5 C144_5 1_555 1_555
H117_5 C145_5 1_555 1_555
C146_5 N19_6 1_555 1_555
H118_5 C146_5 1_555 1_555
N17_5 C135_5 1_555 1_555
N19_4 C151_5 1_555 1_555
C147_5 N15_5 1_555 1_555
C148_5 C147_5 1_555 1_555
C149_5 C148_5 1_555 1_555
H119_5 C149_5 1_555 1_555
C150_5 C148_5 1_555 1_555
H120_5 C150_5 1_555 1_555
C151_5 C150_5 1_555 1_555
H121_5 C151_5 1_555 1_555
C152_5 N19_4 1_555 1_555
H122_5 C152_5 1_555 1_555
Co16_2 O56_5 1_555 1_555
O26_5 Co16_2 1_555 1_555
C8_4 C11_4 1_555 1_555
C10_5 C23_5 1_555 1_555
C12_5 C16_5 1_555 1_555
C14_4 C22_4 1_555 1_555
C17_4 C20_4 1_555 1_555
C18_4 C21_4 1_555 1_555
C19_5 C24_5 1_555 1_555
C25_5 C26_5 1_555 1_555
C25_5 C27_5 1_555 1_555
C33_5 C34_5 1_555 1_555
C33_5 C36_5 1_555 1_555
C35_5 C36_5 1_555 1_555
C35_5 C37_5 1_555 1_555
O29_5 C106_10 1_555 1_555
C109_10 C114_10 1_555 1_555
C110_10 C112_10 1_555 1_555
C137_5 C140_5 1_555 1_555
C138_5 C139_5 1_555 1_555
C143_5 C146_5 1_555 1_555
N17_5 C147_5 1_555 1_555
C149_5 C152_5 1_555 1_555
O49_6 C15_6 1_555 1_555
O6_6 Co11_4 1_555 1_555
C6_6 C15_6 1_555 1_555
C15_6 O6_6 1_555 1_555
C19_6 H9_6 1_555 1_555
C24_6 C6_6 1_555 1_555
H14_6 C24_6 1_555 1_555
C25_6 H15_6 1_555 1_555
C26_6 C19_6 1_555 1_555
C27_6 C6_6 1_555 1_555
H16_6 C27_6 1_555 1_555
O50_4 C32_6 1_555 1_555
O53_4 C32_6 1_555 1_555
C31_6 C32_6 1_555 1_555
C33_6 H24_6 1_555 1_555
C34_6 C31_6 1_555 1_555
H25_6 C34_6 1_555 1_555
C35_6 H26_6 1_555 1_555
C36_6 C26_6 1_555 1_555
C37_6 C31_6 1_555 1_555
H27_6 C37_6 1_555 1_555
Co20 O25_11 1_555 1_555
O25_11 C107_11 1_555 1_555
O27_11 Co20 1_555 1_555
O29_6 Co11_4 1_555 1_555
N11_11 C115_11 1_555 1_555
C101_11 H81_11 1_555 1_555
C102_11 C108_11 1_555 1_555
C103_11 C101_11 1_555 1_555
H82_11 C103_11 1_555 1_555
C104_11 C106_11 1_555 1_555
C105_11 C103_11 1_555 1_555
C106_11 O46_6 1_555 1_555
C107_11 O43_6 1_555 1_555
C108_11 C101_11 1_555 1_555
C109_11 C104_11 1_555 1_555
H83_11 C109_11 1_555 1_555
C110_11 C104_11 1_555 1_555
H84_11 C110_11 1_555 1_555
C111_11 C105_11 1_555 1_555
H85_11 C111_11 1_555 1_555
C112_11 C102_11 1_555 1_555
H86_11 C112_11 1_555 1_555
C113_11 C108_11 1_555 1_555
H87_11 C113_11 1_555 1_555
C114_11 C102_11 1_555 1_555
H88_11 C114_11 1_555 1_555
C115_11 O27_11 1_555 1_555
H89_11 C115_11 1_555 1_555
C116_11 N11_11 1_555 1_555
H90_11 C116_11 1_555 1_555
H91_11 C116_11 1_555 1_555
H92_11 C116_11 1_555 1_555
C117_11 N11_11 1_555 1_555
H93_11 C117_11 1_555 1_555
H94_11 C117_11 1_555 1_555
H95_11 C117_11 1_555 1_555
Co13_4 O53_4 1_555 1_555
N20_11 Co20 1_555 1_555
C19_6 C24_6 1_555 1_555
C25_6 C26_6 1_555 1_555
C25_6 C27_6 1_555 1_555
C33_6 C34_6 1_555 1_555
C33_6 C36_6 1_555 1_555
C35_6 C36_6 1_555 1_555
C35_6 C37_6 1_555 1_555
O29_6 C106_11 1_555 1_555
C105_11 C107_11 1_555 1_555
C109_11 C114_11 1_555 1_555
C110_11 C112_11 1_555 1_555
C111_11 C113_11 1_555 1_555
C101_12 H81_12 1_555 1_555
C102_12 C108_12 1_555 1_555
C103_12 C101_12 1_555 1_555
H82_12 C103_12 1_555 1_555
C104_12 C106_12 1_555 1_555
C106_12 O46_4 1_555 1_555
C108_12 C101_12 1_555 1_555
C109_12 C104_12 1_555 1_555
H83_12 C109_12 1_555 1_555
C110_12 C104_12 1_555 1_555
H84_12 C110_12 1_555 1_555
C112_12 C102_12 1_555 1_555
H86_12 C112_12 1_555 1_555
C114_12 C102_12 1_555 1_555
H88_12 C114_12 1_555 1_555
O26_4 Co13_4 1_555 1_555
O58_6 C106_12 1_555 1_555
C109_12 C114_12 1_555 1_555
C110_12 C112_12 1_555 1_555
Co22 O25_12 1_555 1_555
O25_12 C107_12 1_555 1_555
O27_12 Co22 1_555 1_555
N11_12 C115_12 1_555 1_555
C107_12 O43_4 1_555 1_555
C111_12 C105_12 1_555 1_555
H85_12 C111_12 1_555 1_555
H87_12 C113_12 1_555 1_555
C115_12 O27_12 1_555 1_555
H89_12 C115_12 1_555 1_555
C116_12 N11_12 1_555 1_555
H90_12 C116_12 1_555 1_555
H91_12 C116_12 1_555 1_555
H92_12 C116_12 1_555 1_555
C117_12 N11_12 1_555 1_555
H93_12 C117_12 1_555 1_555
H94_12 C117_12 1_555 1_555
H95_12 C117_12 1_555 1_555
N20_12 Co22 1_555 1_555
C105_12 C107_12 1_555 1_555
C111_12 C113_12 1_555 1_555
N1_6 C2_6 1_555 1_555
C2_6 C3_6 1_555 1_555
C3_6 C10_6 1_555 1_555
C10_6 H3_6 1_555 1_555
C12_6 C3_6 1_555 1_555
H4_6 C12_6 1_555 1_555
C16_6 N20_10 1_555 1_555
H6_6 C16_6 1_555 1_555
C23_6 N20_10 1_555 1_555
H13_6 C23_6 1_555 1_555
N4_6 C38_6 1_555 1_555
N20_11 C42_6 1_555 1_555
C38_6 N1_6 1_555 1_555
C39_6 C38_6 1_555 1_555
C40_6 C39_6 1_555 1_555
H28_6 C40_6 1_555 1_555
C41_6 C39_6 1_555 1_555
H29_6 C41_6 1_555 1_555
C42_6 C41_6 1_555 1_555
H30_6 C42_6 1_555 1_555
C43_6 N20_11 1_555 1_555
H31_6 C43_6 1_555 1_555
N6_6 C2_6 1_555 1_555
N20_12 C48_6 1_555 1_555
C44_6 N4_6 1_555 1_555
C45_6 C44_6 1_555 1_555
C46_6 C45_6 1_555 1_555
H32_6 C46_6 1_555 1_555
C47_6 C45_6 1_555 1_555
H33_6 C47_6 1_555 1_555
C48_6 C47_6 1_555 1_555
H34_6 C48_6 1_555 1_555
C49_6 N20_12 1_555 1_555
H35_6 C49_6 1_555 1_555
C10_6 C23_6 1_555 1_555
C12_6 C16_6 1_555 1_555
C40_6 C43_6 1_555 1_555
N6_6 C44_6 1_555 1_555
C46_6 C49_6 1_555 1_555
N13_6 C135_6 1_555 1_555
C135_6 C136_6 1_555 1_555
C136_6 C137_6 1_555 1_555
C137_6 H111_6 1_555 1_555
C138_6 C136_6 1_555 1_555
H112_6 C138_6 1_555 1_555
C139_6 N20_8 1_555 1_555
H113_6 C139_6 1_555 1_555
C140_6 N20_8 1_555 1_555
H114_6 C140_6 1_555 1_555
N15_6 C141_6 1_555 1_555
N20_7 C145_6 1_555 1_555
C141_6 N13_6 1_555 1_555
C142_6 C141_6 1_555 1_555
C143_6 C142_6 1_555 1_555
H115_6 C143_6 1_555 1_555
C144_6 C142_6 1_555 1_555
H116_6 C144_6 1_555 1_555
C145_6 C144_6 1_555 1_555
H117_6 C145_6 1_555 1_555
C146_6 N20_7 1_555 1_555
H118_6 C146_6 1_555 1_555
N17_6 C135_6 1_555 1_555
N20_9 C151_6 1_555 1_555
C147_6 N15_6 1_555 1_555
C148_6 C147_6 1_555 1_555
C149_6 C148_6 1_555 1_555
H119_6 C149_6 1_555 1_555
C150_6 C148_6 1_555 1_555
H120_6 C150_6 1_555 1_555
C151_6 C150_6 1_555 1_555
H121_6 C151_6 1_555 1_555
C152_6 N20_9 1_555 1_555
H122_6 C152_6 1_555 1_555
C137_6 C140_6 1_555 1_555
C138_6 C139_6 1_555 1_555
C143_6 C146_6 1_555 1_555
N17_6 C147_6 1_555 1_555
C149_6 C152_6 1_555 1_555

#END
