
###############################################################################
#
# This file contains modified crystal structure data generated from the
# MOF subset of the Cambridge Structural Database (CSD) v543 
# hosted by the Cambridge Crystallographic Data Centre (CCDC).
#
# This work is licensed under the Creative Commons
# Attribution-NonCommercial-ShareAlike 4.0 International License.
# To view a copy of this license, visit
# http://creativecommons.org/licenses/by-nc-sa/4.0/
# or send a letter to
# Creative Commons, PO Box 1866, Mountain View, CA 94042, USA.
#
# CIF created using the CSD Python API on 29 September 2022
# The structure has been converted into the P1 space group
# The structure has a 3D framework
# The original CSD entry CUHTOR is in the monoclinic crystal system
# The framework has been calculated to contain at least 10.0% void space
# The void calculation uses a probe of radius 1.32A, grid spacing 0.4
#
###############################################################################

data_CUHTOR
_chemical_formula_moiety         '(C160 H112 Cd8 N32 O31)n'
_symmetry_cell_setting           triclinic
_symmetry_space_group_name_H-M   'P 1'
_symmetry_Int_Tables_number      1
_space_group_name_Hall           'P 1'
loop_
_symmetry_equiv_pos_site_id
_symmetry_equiv_pos_as_xyz
1 x,y,z
_cell_length_a                   16.0347(10)
_cell_length_b                   17.2024(10)
_cell_length_c                   15.5656(9)
_cell_angle_alpha                90
_cell_angle_beta                 94.5350(10)
_cell_angle_gamma                90
_cell_volume                     4280.1
loop_
_atom_site_label
_atom_site_type_symbol
_atom_site_fract_x
_atom_site_fract_y
_atom_site_fract_z
O3 O 0.1858(2) 0.05058(17) 0.0437(2)
C20 C 0.1918(3) 0.2140(3) 0.0453(3)
H14 H 0.1519 0.1899 0.0763
O7 O 0.2245(2) 0.45551(18) 0.0541(2)
C25 C 0.2661(3) 0.4173(2) 0.0044(3)
C26 C 0.2577(3) 0.3305(2) 0.0022(3)
C27 C 0.1991(3) 0.2934(2) 0.0479(3)
H17 H 0.1643 0.3224 0.0806
O9 O 0.7245(2) 0.04449(18) 0.5541(2)
O10 O 0.8142(2) 0.05058(17) 0.4563(2)
N1 N 0.6072(2) 0.6285(2) 0.5473(2)
N2 N 0.31271(19) 0.82856(18) 0.7708(2)
N3 N 0.51064(19) 0.70295(18) 0.5967(2)
C2 C 0.4672(2) 0.7710(2) 0.6205(2)
C3 C 0.4102(2) 0.7657(2) 0.6823(3)
H2 H 0.3988 0.7182 0.7075
C4 C 0.3706(2) 0.8328(2) 0.7056(2)
N4 N 0.2469(2) 0.8609(2) 0.8843(2)
C5 C 0.4846(3) 0.8419(2) 0.5838(3)
H3 H 0.5242 0.8451 0.5434
C7 C 0.2186(3) 0.7897(2) 0.8547(3)
H4 H 0.1781 0.7600 0.8790
C10 C 0.2585(3) 0.7695(3) 0.7852(3)
H5 H 0.2507 0.7241 0.7531
C11 C 0.5843(2) 0.6999(3) 0.5607(3)
H6 H 0.6150 0.7434 0.5470
C12 C 0.3855(3) 0.9033(2) 0.6687(3)
H7 H 0.3572 0.9476 0.6846
C13 C 0.4434(3) 0.9076(3) 0.6074(3)
H8 H 0.4545 0.9551 0.5822
C14 C 0.3037(3) 0.8818(3) 0.8326(3)
H9 H 0.3340 0.9278 0.8381
C16 C 0.4862(3) 0.6275(3) 0.6062(3)
H11 H 0.4377 0.6105 0.6294
C19 C 0.5453(3) 0.5828(3) 0.5757(3)
H13 H 0.5445 0.5288 0.5741
Cd5 Cd 0.72519(2) 0.57367(2) 0.50496(2)
C9 C 0.7661(3) 0.0827(2) 0.5044(3)
C17 C 0.7577(3) 0.1695(2) 0.5022(3)
C18 C 0.6991(3) 0.2066(2) 0.5479(3)
H12 H 0.6643 0.1776 0.5806
C20_2 C 0.8082(3) 0.2140(3) 0.4547(3)
H14_2 H 0.8481 0.1899 0.4237
O7_2 O 0.7755(2) 0.45551(18) 0.4459(2)
O8 O 0.6858(2) 0.44942(17) 0.5437(2)
C25_2 C 0.7339(3) 0.4173(2) 0.4956(3)
C26_2 C 0.7423(3) 0.3305(2) 0.4978(3)
C27_2 C 0.8009(3) 0.2934(2) 0.4521(3)
H17_2 H 0.8357 0.3224 0.4194
C28 C 0.6918(3) 0.2860(3) 0.5453(3)
H18 H 0.6519 0.3101 0.5763
N2_2 N 0.18729(19) 0.67144(18) 0.2292(2)
C2_2 C 0.0328(2) 0.7290(2) 0.3795(2)
C3_2 C 0.0898(2) 0.7343(2) 0.3177(3)
H2_2 H 0.1012 0.7818 0.2925
C4_2 C 0.1294(2) 0.6672(2) 0.2944(2)
N4_2 N 0.2531(2) 0.6391(2) 0.1157(2)
C5_2 C 0.0154(3) 0.6581(2) 0.4162(3)
C7_2 C 0.2814(3) 0.7103(2) 0.1453(3)
H4_2 H 0.3219 0.7400 0.1210
C10_2 C 0.2415(3) 0.7305(3) 0.2148(3)
H5_2 H 0.2493 0.7759 0.2469
C12_2 C 0.1145(3) 0.5967(2) 0.3313(3)
H7_2 H 0.1428 0.5524 0.3154
C13_2 C 0.0566(3) 0.5924(3) 0.3926(3)
H8_2 H 0.0455 0.5449 0.4178
C14_2 C 0.1963(3) 0.6182(3) 0.1674(3)
H9_2 H 0.1660 0.5722 0.1619
C16_2 C 0.0138(3) 0.8725(3) 0.3938(3)
H11_2 H 0.0623 0.8895 0.3706
C15 C 0.9861(3) 0.6087(3) 0.8358(3)
H10 H 0.9764 0.6093 0.8939
C21 C 0.9195(3) 0.6079(3) 0.7747(3)
H15 H 0.8652 0.6067 0.7919
O5 O 0.79013(19) 0.58562(19) 0.6438(2)
C22 C 0.9322(3) 0.6088(2) 0.6877(3)
C23 C 0.8601(3) 0.6041(2) 0.6210(3)
O6 O 0.8711(2) 0.6168(3) 0.5455(2)
N6 N 0.81271(19) 0.67144(18) 0.2708(2)
C29 C 0.9672(2) 0.7290(2) 0.1205(2)
C30 C 0.9102(2) 0.7343(2) 0.1823(3)
H19 H 0.8988 0.7818 0.2075
C31 C 0.8706(2) 0.6672(2) 0.2056(2)
N8 N 0.7469(2) 0.6391(2) 0.3843(2)
C32 C 0.9846(3) 0.6581(2) 0.0838(3)
C33 C 0.7186(3) 0.7103(2) 0.3547(3)
H21 H 0.6781 0.7400 0.3790
C34 C 0.7585(3) 0.7305(3) 0.2852(3)
H22 H 0.7507 0.7759 0.2531
C36 C 0.8855(3) 0.5967(2) 0.1687(3)
H24 H 0.8572 0.5524 0.1846
C37 C 0.9434(3) 0.5924(3) 0.1074(3)
H25 H 0.9545 0.5449 0.0822
C38 C 0.8037(3) 0.6182(3) 0.3326(3)
H26 H 0.8340 0.5722 0.3381
C39 C 0.9862(3) 0.8725(3) 0.1062(3)
H27 H 0.9377 0.8895 0.1294
O2 O 0.2755(2) 0.04449(18) 0.9459(2)
C9_2 C 0.2339(3) 0.0827(2) 0.9956(3)
C17_2 C 0.2423(3) 0.1695(2) 0.9978(3)
C18_2 C 0.3009(3) 0.2066(2) 0.9521(3)
H12_2 H 0.3357 0.1776 0.9194
O8_2 O 0.3142(2) 0.44942(17) 0.9563(2)
C28_2 C 0.3082(3) 0.2860(3) 0.9547(3)
H18_2 H 0.3481 0.3101 0.9237
Cd4 Cd 0.27481(2) 0.57367(2) 0.99504(2)
C1 C 0.4195(3) 0.8921(3) 0.2747(3)
H1 H 0.3652 0.8933 0.2919
Cd1 Cd 0.22519(2) 0.92633(2) 0.00496(2)
O1 O 0.29013(19) 0.91438(19) 0.1438(2)
C6 C 0.4322(3) 0.8912(2) 0.1877(3)
C8 C 0.3601(3) 0.8959(2) 0.1210(3)
O4 O 0.3711(2) 0.8832(3) 0.0455(2)
C15_2 C 0.5139(3) 0.8913(3) 0.1642(3)
H10_2 H 0.5236 0.8907 0.1061
C21_2 C 0.5805(3) 0.8921(3) 0.2253(3)
H15_2 H 0.6348 0.8933 0.2081
O5_2 O 0.70987(19) 0.91438(19) 0.3562(2)
C22_2 C 0.5678(3) 0.8912(2) 0.3123(3)
C23_2 C 0.6399(3) 0.8959(2) 0.3790(3)
O6_2 O 0.6289(2) 0.8832(3) 0.4545(2)
C24 C 0.4861(3) 0.8913(3) 0.3358(3)
H16 H 0.4764 0.8907 0.3939
N5 N 0.3928(2) 0.6285(2) 0.9527(2)
Cd2 Cd 0.77481(2) 0.92633(2) 0.49504(2)
N6_2 N 0.68729(19) 0.82856(18) 0.7292(2)
N7 N 0.48936(19) 0.70295(18) 0.9033(2)
C29_2 C 0.5328(2) 0.7710(2) 0.8795(2)
C30_2 C 0.5898(2) 0.7657(2) 0.8177(3)
H19_2 H 0.6012 0.7182 0.7925
C31_2 C 0.6294(2) 0.8328(2) 0.7944(2)
N8_2 N 0.7531(2) 0.8609(2) 0.6157(2)
C32_2 C 0.5154(3) 0.8419(2) 0.9162(3)
H20 H 0.4758 0.8451 0.9566
C33_2 C 0.7814(3) 0.7897(2) 0.6453(3)
H21_2 H 0.8219 0.7600 0.6210
C34_2 C 0.7415(3) 0.7695(3) 0.7148(3)
H22_2 H 0.7493 0.7241 0.7469
C35 C 0.4157(2) 0.6999(3) 0.9393(3)
H23 H 0.3850 0.7434 0.9530
C36_2 C 0.6145(3) 0.9033(2) 0.8313(3)
H24_2 H 0.6428 0.9476 0.8154
C37_2 C 0.5566(3) 0.9076(3) 0.8926(3)
H25_2 H 0.5455 0.9551 0.9178
C38_2 C 0.6963(3) 0.8818(3) 0.6674(3)
H26_2 H 0.6660 0.9278 0.6619
C39_2 C 0.5138(3) 0.6275(3) 0.8938(3)
H27_2 H 0.5623 0.6105 0.8706
C40 C 0.4547(3) 0.5828(3) 0.9243(3)
H28 H 0.4555 0.5288 0.9259
N9 N 0.8928(2) 0.8715(2) 0.4527(2)
N10 N 0.1072(2) 0.8715(2) 0.0473(2)
C1_2 C 0.0805(3) 0.6079(3) 0.7253(3)
H1_2 H 0.1348 0.6067 0.7081
O1_2 O 0.20987(19) 0.58562(19) 0.8562(2)
C6_2 C 0.0678(3) 0.6088(2) 0.8123(3)
C8_2 C 0.1399(3) 0.6041(2) 0.8790(3)
O4_2 O 0.1289(2) 0.6168(3) 0.9545(2)
C24_2 C 0.0139(3) 0.6087(3) 0.6642(3)
H16_2 H 0.0236 0.6093 0.6061
N7_2 N 0.01064(19) 0.79705(18) 0.0967(2)
H20_2 H 0.0242 0.6549 0.0434
C35_2 C 0.0843(2) 0.8001(3) 0.0607(3)
H23_2 H 0.1150 0.7566 0.0470
C40_2 C 0.0453(3) 0.9172(3) 0.0757(3)
H28_2 H 0.0445 0.9712 0.0741
N3_2 N 0.98936(19) 0.79705(18) 0.4033(2)
H3_2 H 0.9758 0.6549 0.4566
C11_2 C 0.9157(2) 0.8001(3) 0.4393(3)
H6_2 H 0.8850 0.7566 0.4530
C19_2 C 0.9547(3) 0.9172(3) 0.4243(3)
H13_2 H 0.9555 0.9712 0.4259
C15_3 C 0.0139(3) 0.3913(3) 0.1642(3)
H10_3 H 0.0236 0.3907 0.1061
C21_3 C 0.0805(3) 0.3921(3) 0.2253(3)
H15_3 H 0.1348 0.3933 0.2081
O5_3 O 0.20987(19) 0.41438(19) 0.3562(2)
C22_3 C 0.0678(3) 0.3912(2) 0.3123(3)
C23_3 C 0.1399(3) 0.3959(2) 0.3790(3)
O6_3 O 0.1289(2) 0.3832(3) 0.4545(2)
Cd2_2 Cd 0.27481(2) 0.42633(2) 0.49504(2)
N6_3 N 0.18729(19) 0.32856(18) 0.7292(2)
C29_3 C 0.0328(2) 0.2710(2) 0.8795(2)
C30_3 C 0.0898(2) 0.2657(2) 0.8177(3)
H19_3 H 0.1012 0.2182 0.7925
C31_3 C 0.1294(2) 0.3328(2) 0.7944(2)
N8_3 N 0.2531(2) 0.3609(2) 0.6157(2)
C32_3 C 0.0154(3) 0.3419(2) 0.9162(3)
C33_3 C 0.2814(3) 0.2897(2) 0.6453(3)
H21_3 H 0.3219 0.2600 0.6210
C34_3 C 0.2415(3) 0.2695(3) 0.7148(3)
H22_3 H 0.2493 0.2241 0.7469
C36_3 C 0.1145(3) 0.4033(2) 0.8313(3)
H24_3 H 0.1428 0.4476 0.8154
C37_3 C 0.0566(3) 0.4076(3) 0.8926(3)
H25_3 H 0.0455 0.4551 0.9178
C38_3 C 0.1963(3) 0.3818(3) 0.6674(3)
H26_3 H 0.1660 0.4278 0.6619
C39_3 C 0.0138(3) 0.1275(3) 0.8938(3)
H27_3 H 0.0623 0.1105 0.8706
N9_2 N 0.3928(2) 0.3715(2) 0.4527(2)
O9_2 O 0.2245(2) 0.54449(18) 0.5541(2)
O10_2 O 0.3142(2) 0.55058(17) 0.4563(2)
N2_3 N 0.81271(19) 0.32856(18) 0.7708(2)
C2_3 C 0.9672(2) 0.2710(2) 0.6205(2)
C3_3 C 0.9102(2) 0.2657(2) 0.6823(3)
H2_3 H 0.8988 0.2182 0.7075
C4_3 C 0.8706(2) 0.3328(2) 0.7056(2)
N4_3 N 0.7469(2) 0.3609(2) 0.8843(2)
C5_3 C 0.9846(3) 0.3419(2) 0.5838(3)
O2_2 O 0.7755(2) 0.54449(18) 0.9459(2)
C7_3 C 0.7186(3) 0.2897(2) 0.8547(3)
H4_3 H 0.6781 0.2600 0.8790
C9_3 C 0.7339(3) 0.5827(2) 0.9956(3)
C10_3 C 0.7585(3) 0.2695(3) 0.7852(3)
H5_3 H 0.7507 0.2241 0.7531
C12_3 C 0.8855(3) 0.4033(2) 0.6687(3)
H7_3 H 0.8572 0.4476 0.6846
C13_3 C 0.9434(3) 0.4076(3) 0.6074(3)
H8_3 H 0.9545 0.4551 0.5822
C14_3 C 0.8037(3) 0.3818(3) 0.8326(3)
H9_3 H 0.8340 0.4278 0.8381
C16_3 C 0.9862(3) 0.1275(3) 0.6062(3)
H11_3 H 0.9377 0.1105 0.6294
C17_3 C 0.7423(3) 0.6695(2) 0.9978(3)
C18_3 C 0.8009(3) 0.7066(2) 0.9521(3)
H12_3 H 0.8357 0.6776 0.9194
O8_3 O 0.8142(2) 0.94942(17) 0.9563(2)
C28_3 C 0.8082(3) 0.7860(3) 0.9547(3)
H18_3 H 0.8481 0.8101 0.9237
C9_4 C 0.2661(3) 0.5827(2) 0.5044(3)
C17_4 C 0.2577(3) 0.6695(2) 0.5022(3)
C18_4 C 0.1991(3) 0.7066(2) 0.5479(3)
H12_4 H 0.1643 0.6776 0.5806
C20_3 C 0.3082(3) 0.7140(3) 0.4547(3)
H14_3 H 0.3481 0.6899 0.4237
O7_3 O 0.2755(2) 0.95551(18) 0.4459(2)
O8_4 O 0.1858(2) 0.94942(17) 0.5437(2)
C25_3 C 0.2339(3) 0.9173(2) 0.4956(3)
C26_3 C 0.2423(3) 0.8305(2) 0.4978(3)
C27_3 C 0.3009(3) 0.7934(2) 0.4521(3)
H17_3 H 0.3357 0.8224 0.4194
C28_4 C 0.1918(3) 0.7860(3) 0.5453(3)
H18_4 H 0.1519 0.8101 0.5763
N2_4 N 0.68729(19) 0.17144(18) 0.2292(2)
N3_3 N 0.48936(19) 0.29705(18) 0.4033(2)
C2_4 C 0.5328(2) 0.2290(2) 0.3795(2)
C3_4 C 0.5898(2) 0.2343(2) 0.3177(3)
H2_4 H 0.6012 0.2818 0.2925
C4_4 C 0.6294(2) 0.1672(2) 0.2944(2)
N4_4 N 0.7531(2) 0.1391(2) 0.1157(2)
C5_4 C 0.5154(3) 0.1581(2) 0.4162(3)
H3_3 H 0.4758 0.1549 0.4566
C7_4 C 0.7814(3) 0.2103(2) 0.1453(3)
H4_4 H 0.8219 0.2400 0.1210
C10_4 C 0.7415(3) 0.2305(3) 0.2148(3)
H5_4 H 0.7493 0.2759 0.2469
C11_3 C 0.4157(2) 0.3001(3) 0.4393(3)
H6_3 H 0.3850 0.2566 0.4530
C12_4 C 0.6145(3) 0.0967(2) 0.3313(3)
H7_4 H 0.6428 0.0524 0.3154
C13_4 C 0.5566(3) 0.0924(3) 0.3926(3)
H8_4 H 0.5455 0.0449 0.4178
C14_4 C 0.6963(3) 0.1182(3) 0.1674(3)
H9_4 H 0.6660 0.0722 0.1619
C16_4 C 0.5138(3) 0.3725(3) 0.3938(3)
H11_4 H 0.5623 0.3895 0.3706
C19_3 C 0.4547(3) 0.4172(3) 0.4243(3)
H13_3 H 0.4555 0.4712 0.4259
N1_2 N 0.1072(2) 0.1285(2) 0.5473(2)
N3_4 N 0.01064(19) 0.20295(18) 0.5967(2)
H3_4 H 0.0242 0.3451 0.5434
C11_4 C 0.0843(2) 0.1999(3) 0.5607(3)
H6_4 H 0.1150 0.2434 0.5470
C19_4 C 0.0453(3) 0.0828(3) 0.5757(3)
H13_4 H 0.0445 0.0288 0.5741
Cd5_2 Cd 0.22519(2) 0.07367(2) 0.50496(2)
Cd4_2 Cd 0.77481(2) 0.07367(2) 0.99504(2)
C1_3 C 0.9195(3) 0.3921(3) 0.2747(3)
H1_3 H 0.8652 0.3933 0.2919
Cd1_2 Cd 0.72519(2) 0.42633(2) 0.00496(2)
O1_3 O 0.79013(19) 0.41438(19) 0.1438(2)
C6_3 C 0.9322(3) 0.3912(2) 0.1877(3)
O3_2 O 0.6858(2) 0.55058(17) 0.0437(2)
C8_3 C 0.8601(3) 0.3959(2) 0.1210(3)
O4_3 O 0.8711(2) 0.3832(3) 0.0455(2)
C20_4 C 0.6918(3) 0.7140(3) 0.0453(3)
H14_4 H 0.6519 0.6899 0.0763
C24_3 C 0.9861(3) 0.3913(3) 0.3358(3)
H16_3 H 0.9764 0.3907 0.3939
O7_4 O 0.7245(2) 0.95551(18) 0.0541(2)
C25_4 C 0.7661(3) 0.9173(2) 0.0044(3)
C26_4 C 0.7577(3) 0.8305(2) 0.0022(3)
C27_4 C 0.6991(3) 0.7934(2) 0.0479(3)
H17_4 H 0.6643 0.8224 0.0806
N5_2 N 0.8928(2) 0.1285(2) 0.9527(2)
N7_3 N 0.98936(19) 0.20295(18) 0.9033(2)
H20_3 H 0.9758 0.3451 0.9566
C35_3 C 0.9157(2) 0.1999(3) 0.9393(3)
H23_3 H 0.8850 0.2434 0.9530
C40_3 C 0.9547(3) 0.0828(3) 0.9243(3)
H28_3 H 0.9555 0.0288 0.9259
N10_2 N 0.6072(2) 0.3715(2) 0.0473(2)
C1_4 C 0.5805(3) 0.1079(3) 0.7253(3)
H1_4 H 0.6348 0.1067 0.7081
O1_4 O 0.70987(19) 0.08562(19) 0.8562(2)
C6_4 C 0.5678(3) 0.1088(2) 0.8123(3)
C8_4 C 0.6399(3) 0.1041(2) 0.8790(3)
O4_4 O 0.6289(2) 0.1168(3) 0.9545(2)
C15_4 C 0.4861(3) 0.1087(3) 0.8358(3)
H10_4 H 0.4764 0.1093 0.8939
C21_4 C 0.4195(3) 0.1079(3) 0.7747(3)
H15_4 H 0.3652 0.1067 0.7919
O5_4 O 0.29013(19) 0.08562(19) 0.6438(2)
C22_4 C 0.4322(3) 0.1088(2) 0.6877(3)
C23_4 C 0.3601(3) 0.1041(2) 0.6210(3)
O6_4 O 0.3711(2) 0.1168(3) 0.5455(2)
C24_4 C 0.5139(3) 0.1087(3) 0.6642(3)
H16_4 H 0.5236 0.1093 0.6061
N6_4 N 0.31271(19) 0.17144(18) 0.2708(2)
N7_4 N 0.51064(19) 0.29705(18) 0.0967(2)
C29_4 C 0.4672(2) 0.2290(2) 0.1205(2)
C30_4 C 0.4102(2) 0.2343(2) 0.1823(3)
H19_4 H 0.3988 0.2818 0.2075
C31_4 C 0.3706(2) 0.1672(2) 0.2056(2)
N8_4 N 0.2469(2) 0.1391(2) 0.3843(2)
C32_4 C 0.4846(3) 0.1581(2) 0.0838(3)
H20_4 H 0.5242 0.1549 0.0434
C33_4 C 0.2186(3) 0.2103(2) 0.3547(3)
H21_4 H 0.1781 0.2400 0.3790
C34_4 C 0.2585(3) 0.2305(3) 0.2852(3)
H22_4 H 0.2507 0.2759 0.2531
C35_4 C 0.5843(2) 0.3001(3) 0.0607(3)
H23_4 H 0.6150 0.2566 0.0470
C36_4 C 0.3855(3) 0.0967(2) 0.1687(3)
H24_4 H 0.3572 0.0524 0.1846
C37_4 C 0.4434(3) 0.0924(3) 0.1074(3)
H25_4 H 0.4545 0.0449 0.0822
C38_4 C 0.3037(3) 0.1182(3) 0.3326(3)
H26_4 H 0.3340 0.0722 0.3381
C39_4 C 0.4862(3) 0.3725(3) 0.1062(3)
H27_4 H 0.4377 0.3895 0.1294
C40_4 C 0.5453(3) 0.4172(3) 0.0757(3)
H28_4 H 0.5445 0.4712 0.0741
loop_
_geom_bond_atom_site_label_1
_geom_bond_atom_site_label_2
_geom_bond_site_symmetry_1
_geom_bond_site_symmetry_2
H14 C20 1_555 1_555
O7 C25 1_555 1_555
C25 C26 1_555 1_555
C26 C27 1_555 1_555
C27 C20 1_555 1_555
H17 C27 1_555 1_555
N1 C11 1_555 1_555
N2 C4 1_555 1_555
N3 C2 1_555 1_555
C2 C3 1_555 1_555
C3 H2 1_555 1_555
C4 C3 1_555 1_555
C5 C2 1_555 1_555
H3 C5 1_555 1_555
C7 N4 1_555 1_555
H4 C7 1_555 1_555
C10 N2 1_555 1_555
H5 C10 1_555 1_555
C11 N3 1_555 1_555
H6 C11 1_555 1_555
C12 C4 1_555 1_555
H7 C12 1_555 1_555
C13 C5 1_555 1_555
H8 C13 1_555 1_555
C14 N2 1_555 1_555
H9 C14 1_555 1_555
C16 N3 1_555 1_555
H11 C16 1_555 1_555
C19 N1 1_555 1_555
H13 C19 1_555 1_555
Cd5 N1 1_555 1_555
N4 C14 1_555 1_555
C7 C10 1_555 1_555
C12 C13 1_555 1_555
C16 C19 1_555 1_555
C9 O9 1_555 1_555
C17 C9 1_555 1_555
C18 C17 1_555 1_555
H12 C18 1_555 1_555
C20_2 C17 1_555 1_555
H14_2 C20_2 1_555 1_555
O7_2 C25_2 1_555 1_555
O8 C25_2 1_555 1_555
C25_2 C26_2 1_555 1_555
C26_2 C27_2 1_555 1_555
C27_2 C20_2 1_555 1_555
H17_2 C27_2 1_555 1_555
C28 C18 1_555 1_555
H18 C28 1_555 1_555
Cd5 O7_2 1_555 1_555
O10 C9 1_555 1_555
O8 Cd5 1_555 1_555
C26_2 C28 1_555 1_555
N2_2 C4_2 1_555 1_555
C2_2 C3_2 1_555 1_555
C3_2 H2_2 1_555 1_555
C4_2 C3_2 1_555 1_555
C5_2 C2_2 1_555 1_555
C7_2 N4_2 1_555 1_555
H4_2 C7_2 1_555 1_555
C10_2 N2_2 1_555 1_555
H5_2 C10_2 1_555 1_555
C12_2 C4_2 1_555 1_555
H7_2 C12_2 1_555 1_555
C13_2 C5_2 1_555 1_555
H8_2 C13_2 1_555 1_555
C14_2 N2_2 1_555 1_555
H9_2 C14_2 1_555 1_555
H11_2 C16_2 1_555 1_555
N4_2 C14_2 1_555 1_555
C7_2 C10_2 1_555 1_555
C12_2 C13_2 1_555 1_555
H10 C15 1_555 1_555
C21 C15 1_555 1_555
H15 C21 1_555 1_555
O5 C23 1_555 1_555
C22 C21 1_555 1_555
C23 C22 1_555 1_555
O6 C23 1_555 1_555
Cd5 O5 1_555 1_555
N6 C31 1_555 1_555
C29 C30 1_555 1_555
C30 H19 1_555 1_555
C31 C30 1_555 1_555
N8 Cd5 1_555 1_555
C32 C29 1_555 1_555
C33 N8 1_555 1_555
H21 C33 1_555 1_555
C34 N6 1_555 1_555
H22 C34 1_555 1_555
C36 C31 1_555 1_555
H24 C36 1_555 1_555
C37 C32 1_555 1_555
H25 C37 1_555 1_555
C38 N6 1_555 1_555
H26 C38 1_555 1_555
H27 C39 1_555 1_555
O6 Cd5 1_555 1_555
N8 C38 1_555 1_555
C33 C34 1_555 1_555
C36 C37 1_555 1_555
C9_2 O2 1_555 1_555
C17_2 C9_2 1_555 1_555
C18_2 C17_2 1_555 1_555
H12_2 C18_2 1_555 1_555
C28_2 C18_2 1_555 1_555
H18_2 C28_2 1_555 1_555
O8_2 Cd4 1_555 1_555
C1 H1 1_555 1_555
Cd1 O1 1_555 1_555
O1 C8 1_555 1_555
C6 C1 1_555 1_555
C8 C6 1_555 1_555
O4 Cd1 1_555 1_555
C15_2 C6 1_555 1_555
H10_2 C15_2 1_555 1_555
C21_2 C15_2 1_555 1_555
H15_2 C21_2 1_555 1_555
O5_2 C23_2 1_555 1_555
C22_2 C21_2 1_555 1_555
C23_2 C22_2 1_555 1_555
O6_2 C23_2 1_555 1_555
C24 C1 1_555 1_555
H16 C24 1_555 1_555
N5 C35 1_555 1_555
Cd2 O5_2 1_555 1_555
N6_2 C31_2 1_555 1_555
N7 C29_2 1_555 1_555
C29_2 C30_2 1_555 1_555
C30_2 H19_2 1_555 1_555
C31_2 C30_2 1_555 1_555
N8_2 Cd2 1_555 1_555
C32_2 C29_2 1_555 1_555
H20 C32_2 1_555 1_555
C33_2 N8_2 1_555 1_555
H21_2 C33_2 1_555 1_555
C34_2 N6_2 1_555 1_555
H22_2 C34_2 1_555 1_555
C35 N7 1_555 1_555
H23 C35 1_555 1_555
C36_2 C31_2 1_555 1_555
H24_2 C36_2 1_555 1_555
C37_2 C32_2 1_555 1_555
H25_2 C37_2 1_555 1_555
C38_2 N6_2 1_555 1_555
H26_2 C38_2 1_555 1_555
C39_2 N7 1_555 1_555
H27_2 C39_2 1_555 1_555
C40 N5 1_555 1_555
H28 C40 1_555 1_555
N9 Cd2 1_555 1_555
N10 Cd1 1_555 1_555
Cd4 N5 1_555 1_555
C8 O4 1_555 1_555
C22_2 C24 1_555 1_555
O6_2 Cd2 1_555 1_555
N8_2 C38_2 1_555 1_555
C33_2 C34_2 1_555 1_555
C36_2 C37_2 1_555 1_555
C39_2 C40 1_555 1_555
C1_2 H1_2 1_555 1_555
Cd4 O1_2 1_555 1_555
O1_2 C8_2 1_555 1_555
C6_2 C1_2 1_555 1_555
C8_2 C6_2 1_555 1_555
O4_2 Cd4 1_555 1_555
C24_2 C1_2 1_555 1_555
H16_2 C24_2 1_555 1_555
N10 C35_2 1_555 1_555
C35_2 N7_2 1_555 1_555
H23_2 C35_2 1_555 1_555
C40_2 N10 1_555 1_555
H28_2 C40_2 1_555 1_555
C8_2 O4_2 1_555 1_555
N9 C11_2 1_555 1_555
C11_2 N3_2 1_555 1_555
H6_2 C11_2 1_555 1_555
C19_2 N9 1_555 1_555
H13_2 C19_2 1_555 1_555
H10_3 C15_3 1_555 1_555
C21_3 C15_3 1_555 1_555
H15_3 C21_3 1_555 1_555
O5_3 C23_3 1_555 1_555
C22_3 C21_3 1_555 1_555
C23_3 C22_3 1_555 1_555
O6_3 C23_3 1_555 1_555
Cd2_2 O5_3 1_555 1_555
N6_3 C31_3 1_555 1_555
C29_3 C30_3 1_555 1_555
C30_3 H19_3 1_555 1_555
C31_3 C30_3 1_555 1_555
N8_3 Cd2_2 1_555 1_555
C32_3 C29_3 1_555 1_555
C33_3 N8_3 1_555 1_555
H21_3 C33_3 1_555 1_555
C34_3 N6_3 1_555 1_555
H22_3 C34_3 1_555 1_555
C36_3 C31_3 1_555 1_555
H24_3 C36_3 1_555 1_555
C37_3 C32_3 1_555 1_555
H25_3 C37_3 1_555 1_555
C38_3 N6_3 1_555 1_555
H26_3 C38_3 1_555 1_555
H27_3 C39_3 1_555 1_555
N9_2 Cd2_2 1_555 1_555
O9_2 Cd2_2 1_555 1_555
O10_2 Cd2_2 1_555 1_555
O6_3 Cd2_2 1_555 1_555
N8_3 C38_3 1_555 1_555
C33_3 C34_3 1_555 1_555
C36_3 C37_3 1_555 1_555
N2_3 C4_3 1_555 1_555
C2_3 C3_3 1_555 1_555
C3_3 H2_3 1_555 1_555
C4_3 C3_3 1_555 1_555
C5_3 C2_3 1_555 1_555
C7_3 N4_3 1_555 1_555
H4_3 C7_3 1_555 1_555
C9_3 O2_2 1_555 1_555
C10_3 N2_3 1_555 1_555
H5_3 C10_3 1_555 1_555
C12_3 C4_3 1_555 1_555
H7_3 C12_3 1_555 1_555
C13_3 C5_3 1_555 1_555
H8_3 C13_3 1_555 1_555
C14_3 N2_3 1_555 1_555
H9_3 C14_3 1_555 1_555
H11_3 C16_3 1_555 1_555
C17_3 C9_3 1_555 1_555
C18_3 C17_3 1_555 1_555
H12_3 C18_3 1_555 1_555
C28_3 C18_3 1_555 1_555
H18_3 C28_3 1_555 1_555
N4_3 C14_3 1_555 1_555
C7_3 C10_3 1_555 1_555
C12_3 C13_3 1_555 1_555
C9_4 O9_2 1_555 1_555
C17_4 C9_4 1_555 1_555
C18_4 C17_4 1_555 1_555
H12_4 C18_4 1_555 1_555
C20_3 C17_4 1_555 1_555
H14_3 C20_3 1_555 1_555
O7_3 C25_3 1_555 1_555
O8_4 C25_3 1_555 1_555
C25_3 C26_3 1_555 1_555
C26_3 C27_3 1_555 1_555
C27_3 C20_3 1_555 1_555
H17_3 C27_3 1_555 1_555
C28_4 C18_4 1_555 1_555
H18_4 C28_4 1_555 1_555
O10_2 C9_4 1_555 1_555
C26_3 C28_4 1_555 1_555
N9_2 C11_3 1_555 1_555
N2_4 C4_4 1_555 1_555
N3_3 C2_4 1_555 1_555
C2_4 C3_4 1_555 1_555
C3_4 H2_4 1_555 1_555
C4_4 C3_4 1_555 1_555
C5_4 C2_4 1_555 1_555
H3_3 C5_4 1_555 1_555
C7_4 N4_4 1_555 1_555
H4_4 C7_4 1_555 1_555
C10_4 N2_4 1_555 1_555
H5_4 C10_4 1_555 1_555
C11_3 N3_3 1_555 1_555
H6_3 C11_3 1_555 1_555
C12_4 C4_4 1_555 1_555
H7_4 C12_4 1_555 1_555
C13_4 C5_4 1_555 1_555
H8_4 C13_4 1_555 1_555
C14_4 N2_4 1_555 1_555
H9_4 C14_4 1_555 1_555
C16_4 N3_3 1_555 1_555
H11_4 C16_4 1_555 1_555
C19_3 N9_2 1_555 1_555
H13_3 C19_3 1_555 1_555
N4_4 C14_4 1_555 1_555
C7_4 C10_4 1_555 1_555
C12_4 C13_4 1_555 1_555
C16_4 C19_3 1_555 1_555
N1_2 C11_4 1_555 1_555
C11_4 N3_4 1_555 1_555
H6_4 C11_4 1_555 1_555
C19_4 N1_2 1_555 1_555
H13_4 C19_4 1_555 1_555
Cd5_2 N1_2 1_555 1_555
C1_3 H1_3 1_555 1_555
Cd1_2 O1_3 1_555 1_555
O1_3 C8_3 1_555 1_555
C6_3 C1_3 1_555 1_555
O3_2 Cd1_2 1_555 1_555
C8_3 C6_3 1_555 1_555
O4_3 Cd1_2 1_555 1_555
H14_4 C20_4 1_555 1_555
C24_3 C1_3 1_555 1_555
H16_3 C24_3 1_555 1_555
O7_4 C25_4 1_555 1_555
C25_4 C26_4 1_555 1_555
C26_4 C27_4 1_555 1_555
C27_4 C20_4 1_555 1_555
H17_4 C27_4 1_555 1_555
N5_2 C35_3 1_555 1_555
C35_3 N7_3 1_555 1_555
H23_3 C35_3 1_555 1_555
C40_3 N5_2 1_555 1_555
H28_3 C40_3 1_555 1_555
N10_2 Cd1_2 1_555 1_555
Cd4_2 N5_2 1_555 1_555
C8_3 O4_3 1_555 1_555
C1_4 H1_4 1_555 1_555
Cd4_2 O1_4 1_555 1_555
O1_4 C8_4 1_555 1_555
C6_4 C1_4 1_555 1_555
C8_4 C6_4 1_555 1_555
O4_4 Cd4_2 1_555 1_555
C15_4 C6_4 1_555 1_555
H10_4 C15_4 1_555 1_555
C21_4 C15_4 1_555 1_555
H15_4 C21_4 1_555 1_555
O5_4 C23_4 1_555 1_555
C22_4 C21_4 1_555 1_555
C23_4 C22_4 1_555 1_555
O6_4 C23_4 1_555 1_555
C24_4 C1_4 1_555 1_555
H16_4 C24_4 1_555 1_555
N10_2 C35_4 1_555 1_555
Cd5_2 O5_4 1_555 1_555
N6_4 C31_4 1_555 1_555
N7_4 C29_4 1_555 1_555
C29_4 C30_4 1_555 1_555
C30_4 H19_4 1_555 1_555
C31_4 C30_4 1_555 1_555
N8_4 Cd5_2 1_555 1_555
C32_4 C29_4 1_555 1_555
H20_4 C32_4 1_555 1_555
C33_4 N8_4 1_555 1_555
H21_4 C33_4 1_555 1_555
C34_4 N6_4 1_555 1_555
H22_4 C34_4 1_555 1_555
C35_4 N7_4 1_555 1_555
H23_4 C35_4 1_555 1_555
C36_4 C31_4 1_555 1_555
H24_4 C36_4 1_555 1_555
C37_4 C32_4 1_555 1_555
H25_4 C37_4 1_555 1_555
C38_4 N6_4 1_555 1_555
H26_4 C38_4 1_555 1_555
C39_4 N7_4 1_555 1_555
H27_4 C39_4 1_555 1_555
C40_4 N10_2 1_555 1_555
H28_4 C40_4 1_555 1_555
C8_4 O4_4 1_555 1_555
C22_4 C24_4 1_555 1_555
O6_4 Cd5_2 1_555 1_555
N8_4 C38_4 1_555 1_555
C33_4 C34_4 1_555 1_555
C36_4 C37_4 1_555 1_555
C39_4 C40_4 1_555 1_555

#END
