
###############################################################################
#
# This file contains modified crystal structure data generated from the
# MOF subset of the Cambridge Structural Database (CSD) v543 
# hosted by the Cambridge Crystallographic Data Centre (CCDC).
#
# This work is licensed under the Creative Commons
# Attribution-NonCommercial-ShareAlike 4.0 International License.
# To view a copy of this license, visit
# http://creativecommons.org/licenses/by-nc-sa/4.0/
# or send a letter to
# Creative Commons, PO Box 1866, Mountain View, CA 94042, USA.
#
# CIF created using the CSD Python API on 29 September 2022
# The structure has been converted into the P1 space group
# The structure has a 3D framework
# The original CSD entry CUIMDZ03 is in the monoclinic crystal system
# The framework has been calculated to contain at least 10.0% void space
# The void calculation uses a probe of radius 1.32A, grid spacing 0.4
# H atom positions have been added when not included in the experimental data
#
###############################################################################

data_CUIMDZ03
_chemical_formula_moiety         '(C72 H72 Cu14 N46)n'
_symmetry_cell_setting           triclinic
_symmetry_space_group_name_H-M   'P 1'
_symmetry_Int_Tables_number      1
_space_group_name_Hall           'P 1'
loop_
_symmetry_equiv_pos_site_id
_symmetry_equiv_pos_as_xyz
1 x,y,z
_cell_length_a                   11.7556(8)
_cell_length_b                   23.4222(24)
_cell_length_c                   9.0727(9)
_cell_angle_alpha                90
_cell_angle_beta                 104.993(5)
_cell_angle_gamma                90
_cell_volume                     2413.05
loop_
_atom_site_label
_atom_site_type_symbol
_atom_site_fract_x
_atom_site_fract_y
_atom_site_fract_z
_atom_site_U_iso_or_equiv
_atom_site_thermal_displace_type
Cu1 Cu 0.500000 0.20360(24) 0.250000 2.9800 Uiso
Cu2 Cu 0.25290(31) 0.41923(15) 0.3575(6) 2.9800 Uiso
N1 N 0.3776(5) 0.2610(4) 0.2621(21) 4.9800 Uiso
N2 N 0.2879(6) 0.3398(4) 0.3018(22) 4.9800 Uiso
C1 C 0.3948(5) 0.3140(4) 0.3254(24) 4.9800 Uiso
C2 C 0.2611(6) 0.2555(5) 0.1913(24) 4.9800 Uiso
C3 C 0.2055(6) 0.3038(5) 0.2173(26) 4.9800 Uiso
N3 N 0.2750(11) 0.4915(4) 0.4776(11) 4.9800 Uiso
N4 N 0.3006(9) 0.5441(5) 0.6845(11) 4.9800 Uiso
C4 C 0.3424(15) 0.5372(4) 0.4623(11) 4.9800 Uiso
C5 C 0.2455(14) 0.4969(5) 0.6123(14) 4.9800 Uiso
C6 C 0.3605(14) 0.5690(6) 0.5918(14) 4.9800 Uiso
N5 N 0.4634(10) 0.1454(5) 0.3924(17) 4.9800 Uiso
N6 N 0.3812(8) 0.1057(4) 0.5593(13) 4.9800 Uiso
C7 C 0.3721(11) 0.1495(5) 0.4582(19) 4.9800 Uiso
C8 C 0.5314(8) 0.1004(4) 0.4570(15) 4.9800 Uiso
C9 C 0.4764(9) 0.0738(5) 0.5528(17) 4.9800 Uiso
N7 N 0.6224(5) 0.2610(4) 0.2379(21) 4.9800 Uiso
N8 N 0.7121(6) 0.3398(4) 0.1982(22) 4.9800 Uiso
C10 C 0.6052(5) 0.3140(4) 0.1746(24) 4.9800 Uiso
C11 C 0.7389(6) 0.2555(5) 0.3087(24) 4.9800 Uiso
C12 C 0.7945(6) 0.3038(5) 0.2827(26) 4.9800 Uiso
N9 N 0.5366(10) 0.1454(5) 0.1076(17) 4.9800 Uiso
C13 C 0.6279(11) 0.1495(5) 0.0418(19) 4.9800 Uiso
C14 C 0.4686(8) 0.1004(4) 0.0430(15) 4.9800 Uiso
Cu3 Cu 0.74710(31) 0.41923(15) 0.1425(6) 2.9800 Uiso
N12 N 0.3006(9) 0.4559(5) 0.1845(11) 4.9800 Uiso
C17 C 0.2455(14) 0.5031(5) 0.1123(14) 4.9800 Uiso
C18 C 0.3605(14) 0.4310(6) 0.0918(14) 4.9800 Uiso
N13 N 0.1188(8) 0.3943(4) 0.4407(13) 4.9800 Uiso
Cu4 Cu 0.25290(31) 0.58077(15) 0.8575(6) 2.9800 Uiso
Cu5 Cu 0.24710(31) 0.08077(15) 0.6425(6) 2.9800 Uiso
N14 N 0.7250(11) 0.4915(4) 0.0224(11) 4.9800 Uiso
N15 N 0.6994(9) 0.4559(5) 0.3155(11) 4.9800 Uiso
N16 N 0.8812(8) 0.3943(4) 0.0593(13) 4.9800 Uiso
H1 H 0.375955 0.546668 0.363793 . .
H2 H 0.187935 0.468466 0.654874 . .
H3 H 0.111433 0.312267 0.177518 . .
H4 H 0.41362 0.607609 0.616831 . .
H5 H 0.219654 0.218756 0.12527 . .
H6 H 0.303707 0.18209 0.434251 . .
H7 H 0.614982 0.0878878 0.43582 . .
H8 H 0.503822 0.0339743 0.613552 . .
H9 H 0.47926 0.332506 0.384536 . .
H10 H 0.780346 0.218756 0.37473 . .
H11 H 0.41362 0.392391 0.116831 . .
H12 H 0.52074 0.332506 0.115464 . .
H15 H 0.696293 0.18209 0.0657492 . .
H16 H 0.385018 0.0878878 0.0641804 . .
H17 H 0.187935 0.531534 0.154874 . .
H18 H 0.888567 0.312267 0.322482 . .
N10 N 0.6188(8) 0.1057(4) 0.9407(13) 4.9800 Uiso
C15 C 0.5236(9) 0.0738(5) 0.9472(17) 4.9800 Uiso
N11 N 0.2750(11) 0.5085(4) 0.9776(11) 4.9800 Uiso
C16 C 0.3424(15) 0.4628(4) 0.9623(11) 4.9800 Uiso
Cu6 Cu 0.75290(31) 0.08077(15) 0.8575(6) 2.9800 Uiso
H13 H 0.496178 0.0339743 0.886448 . .
H14 H 0.375955 0.453332 0.863793 . .
C4_2 C 0.6576(15) 0.5372(4) 0.0377(11) 4.9800 Uiso
N11_2 N 0.7250(11) 0.5085(4) 0.5224(11) 4.9800 Uiso
C16_2 C 0.6576(15) 0.4628(4) 0.5377(11) 4.9800 Uiso
C17_2 C 0.7545(14) 0.5031(5) 0.3877(14) 4.9800 Uiso
C18_2 C 0.6395(14) 0.4310(6) 0.4082(14) 4.9800 Uiso
Cu7 Cu 0.74710(31) 0.58077(15) 0.6425(6) 2.9800 Uiso
H1_2 H 0.624045 0.546668 0.136207 . .
H11_2 H 0.58638 0.392391 0.383169 . .
H14_2 H 0.624045 0.453332 0.636207 . .
H17_2 H 0.812065 0.531534 0.345126 . .
N4_2 N 0.6994(9) 0.5441(5) 0.8155(11) 4.9800 Uiso
C5_2 C 0.7545(14) 0.4969(5) 0.8877(14) 4.9800 Uiso
C6_2 C 0.6395(14) 0.5690(6) 0.9082(14) 4.9800 Uiso
H2_2 H 0.812065 0.468466 0.845126 . .
H4_2 H 0.58638 0.607609 0.883169 . .
Cu1_2 Cu 0.000000 0.70360(24) 0.250000 2.9800 Uiso
C8_2 C 0.0314(8) 0.6004(4) 0.4570(15) 4.9800 Uiso
N7_2 N 0.1224(5) 0.7610(4) 0.2379(21) 4.9800 Uiso
N8_2 N 0.2121(6) 0.8398(4) 0.1982(22) 4.9800 Uiso
C10_2 C 0.1052(5) 0.8140(4) 0.1746(24) 4.9800 Uiso
C11_2 C 0.2389(6) 0.7555(5) 0.3087(24) 4.9800 Uiso
C12_2 C 0.2945(6) 0.8038(5) 0.2827(26) 4.9800 Uiso
N9_2 N 0.0366(10) 0.6454(5) 0.1076(17) 4.9800 Uiso
C13_2 C 0.1279(11) 0.6495(5) 0.0418(19) 4.9800 Uiso
Cu3_2 Cu 0.24710(31) 0.91923(15) 0.1425(6) 2.9800 Uiso
N14_2 N 0.2250(11) 0.9915(4) 0.0224(11) 4.9800 Uiso
N15_2 N 0.1994(9) 0.9559(5) 0.3155(11) 4.9800 Uiso
N16_2 N 0.3812(8) 0.8943(4) 0.0593(13) 4.9800 Uiso
H7_2 H 0.114982 0.587888 0.43582 . .
H8_2 H 0.00382226 0.533974 0.613552 . .
H10_2 H 0.280346 0.718756 0.37473 . .
H12_2 H 0.0207403 0.832506 0.115464 . .
H15_2 H 0.196293 0.68209 0.0657492 . .
H18_2 H 0.388567 0.812267 0.322482 . .
N10_2 N 0.1188(8) 0.6057(4) 0.9407(13) 4.9800 Uiso
C15_2 C 0.0236(9) 0.5738(5) 0.9472(17) 4.9800 Uiso
N4_3 N 0.8006(9) 0.0441(5) 0.6845(11) 4.9800 Uiso
C4_3 C 0.8424(15) 0.0372(4) 0.4623(11) 4.9800 Uiso
C6_3 C 0.8605(14) 0.0690(6) 0.5918(14) 4.9800 Uiso
C17_3 C 0.7455(14) 0.0031(5) 0.1123(14) 4.9800 Uiso
H1_3 H 0.875955 0.0466676 0.363793 . .
H4_3 H 0.91362 0.107609 0.616831 . .
H17_3 H 0.687935 0.031534 0.154874 . .
N11_3 N 0.7750(11) 0.0085(4) 0.9776(11) 4.9800 Uiso
Cu1_3 Cu 1.000000 0.70360(24) 0.250000 2.9800 Uiso
Cu2_2 Cu 0.75290(31) 0.91923(15) 0.3575(6) 2.9800 Uiso
N1_2 N 0.8776(5) 0.7610(4) 0.2621(21) 4.9800 Uiso
N2_2 N 0.7879(6) 0.8398(4) 0.3018(22) 4.9800 Uiso
C1_2 C 0.8948(5) 0.8140(4) 0.3254(24) 4.9800 Uiso
C2_2 C 0.7611(6) 0.7555(5) 0.1913(24) 4.9800 Uiso
C3_2 C 0.7055(6) 0.8038(5) 0.2173(26) 4.9800 Uiso
N3_2 N 0.7750(11) 0.9915(4) 0.4776(11) 4.9800 Uiso
C5_3 C 0.7455(14) 0.9969(5) 0.6123(14) 4.9800 Uiso
N5_2 N 0.9634(10) 0.6454(5) 0.3924(17) 4.9800 Uiso
N6_2 N 0.8812(8) 0.6057(4) 0.5593(13) 4.9800 Uiso
C7_2 C 0.8721(11) 0.6495(5) 0.4582(19) 4.9800 Uiso
C9_2 C 0.9764(9) 0.5738(5) 0.5528(17) 4.9800 Uiso
C14_2 C 0.9686(8) 0.6004(4) 0.0430(15) 4.9800 Uiso
N12_2 N 0.8006(9) 0.9559(5) 0.1845(11) 4.9800 Uiso
C18_3 C 0.8605(14) 0.9310(6) 0.0918(14) 4.9800 Uiso
N13_2 N 0.6188(8) 0.8943(4) 0.4407(13) 4.9800 Uiso
H2_3 H 0.687935 0.968466 0.654874 . .
H3_2 H 0.611433 0.812267 0.177518 . .
H5_2 H 0.719654 0.718756 0.12527 . .
H6_2 H 0.803707 0.68209 0.434251 . .
H9_2 H 0.97926 0.832506 0.384536 . .
H11_3 H 0.91362 0.892391 0.116831 . .
H16_2 H 0.885018 0.587888 0.0641804 . .
C16_3 C 0.8424(15) 0.9628(4) 0.9623(11) 4.9800 Uiso
H13_2 H 0.996178 0.533974 0.886448 . .
H14_3 H 0.875955 0.953332 0.863793 . .
C4_4 C 0.1576(15) 0.0372(4) 0.0377(11) 4.9800 Uiso
N11_4 N 0.2250(11) 0.0085(4) 0.5224(11) 4.9800 Uiso
C17_4 C 0.2545(14) 0.0031(5) 0.3877(14) 4.9800 Uiso
H1_4 H 0.124045 0.0466676 0.136207 . .
H17_4 H 0.312065 0.031534 0.345126 . .
N4_4 N 0.1994(9) 0.0441(5) 0.8155(11) 4.9800 Uiso
C6_4 C 0.1395(14) 0.0690(6) 0.9082(14) 4.9800 Uiso
H4_4 H 0.0863804 0.107609 0.883169 . .
C16_4 C 0.1576(15) 0.9628(4) 0.5377(11) 4.9800 Uiso
C18_4 C 0.1395(14) 0.9310(6) 0.4082(14) 4.9800 Uiso
H11_4 H 0.0863804 0.892391 0.383169 . .
H14_4 H 0.124045 0.953332 0.636207 . .
C5_4 C 0.2545(14) 0.9969(5) 0.8877(14) 4.9800 Uiso
H2_4 H 0.312065 0.968466 0.845126 . .
C15_3 C 0.4764(9) 0.9262(5) 0.0528(17) 4.9800 Uiso
H13_3 H 0.503822 0.966026 0.113552 . .
Cu1_4 Cu 0.500000 0.79640(24) 0.750000 2.9800 Uiso
N1_3 N 0.6224(5) 0.7390(4) 0.7379(21) 4.9800 Uiso
N2_3 N 0.7121(6) 0.6602(4) 0.6982(22) 4.9800 Uiso
C1_3 C 0.6052(5) 0.6860(4) 0.6746(24) 4.9800 Uiso
C2_3 C 0.7389(6) 0.7445(5) 0.8087(24) 4.9800 Uiso
C3_3 C 0.7945(6) 0.6962(5) 0.7827(26) 4.9800 Uiso
N5_3 N 0.5366(10) 0.8546(5) 0.6076(17) 4.9800 Uiso
C7_3 C 0.6279(11) 0.8505(5) 0.5418(19) 4.9800 Uiso
C8_3 C 0.4686(8) 0.8996(4) 0.5430(15) 4.9800 Uiso
C9_3 C 0.5236(9) 0.9262(5) 0.4472(17) 4.9800 Uiso
N7_3 N 0.3776(5) 0.7390(4) 0.7621(21) 4.9800 Uiso
N8_3 N 0.2879(6) 0.6602(4) 0.8018(22) 4.9800 Uiso
C10_3 C 0.3948(5) 0.6860(4) 0.8254(24) 4.9800 Uiso
C11_3 C 0.2611(6) 0.7445(5) 0.6913(24) 4.9800 Uiso
C12_3 C 0.2055(6) 0.6962(5) 0.7173(26) 4.9800 Uiso
N9_3 N 0.4634(10) 0.8546(5) 0.8924(17) 4.9800 Uiso
C13_3 C 0.3721(11) 0.8505(5) 0.9582(19) 4.9800 Uiso
C14_3 C 0.5314(8) 0.8996(4) 0.9570(15) 4.9800 Uiso
H3_3 H 0.888567 0.687733 0.822482 . .
H5_3 H 0.780346 0.781244 0.87473 . .
H6_3 H 0.696293 0.81791 0.565749 . .
H7_3 H 0.385018 0.912112 0.56418 . .
H8_3 H 0.496178 0.966026 0.386448 . .
H9_3 H 0.52074 0.667494 0.615464 . .
H10_3 H 0.219654 0.781244 0.62527 . .
H12_3 H 0.47926 0.667494 0.884536 . .
H15_3 H 0.303707 0.81791 0.934251 . .
H16_3 H 0.614982 0.912112 0.93582 . .
H18_3 H 0.111433 0.687733 0.677518 . .
H13_4 H 0.00382226 0.466026 0.113552 . .
Cu1_5 Cu -0.000000 0.29640(24) 0.750000 2.9800 Uiso
N1_4 N 0.1224(5) 0.2390(4) 0.7379(21) 4.9800 Uiso
N2_4 N 0.2121(6) 0.1602(4) 0.6982(22) 4.9800 Uiso
C1_4 C 0.1052(5) 0.1860(4) 0.6746(24) 4.9800 Uiso
C2_4 C 0.2389(6) 0.2445(5) 0.8087(24) 4.9800 Uiso
C3_4 C 0.2945(6) 0.1962(5) 0.7827(26) 4.9800 Uiso
N5_4 N 0.0366(10) 0.3546(5) 0.6076(17) 4.9800 Uiso
C7_4 C 0.1279(11) 0.3505(5) 0.5418(19) 4.9800 Uiso
C9_4 C 0.0236(9) 0.4262(5) 0.4472(17) 4.9800 Uiso
C14_4 C 0.0314(8) 0.3996(4) 0.9570(15) 4.9800 Uiso
H3_4 H 0.388567 0.187733 0.822482 . .
H5_4 H 0.280346 0.281244 0.87473 . .
H6_4 H 0.196293 0.31791 0.565749 . .
H9_4 H 0.0207403 0.167494 0.615464 . .
H16_4 H 0.114982 0.412112 0.93582 . .
C15_4 C 0.9764(9) 0.4262(5) 0.0528(17) 4.9800 Uiso
Cu1_6 Cu 1.000000 0.29640(24) 0.750000 2.9800 Uiso
C8_4 C 0.9686(8) 0.3996(4) 0.5430(15) 4.9800 Uiso
N7_4 N 0.8776(5) 0.2390(4) 0.7621(21) 4.9800 Uiso
N8_4 N 0.7879(6) 0.1602(4) 0.8018(22) 4.9800 Uiso
C10_4 C 0.8948(5) 0.1860(4) 0.8254(24) 4.9800 Uiso
C11_4 C 0.7611(6) 0.2445(5) 0.6913(24) 4.9800 Uiso
C12_4 C 0.7055(6) 0.1962(5) 0.7173(26) 4.9800 Uiso
N9_4 N 0.9634(10) 0.3546(5) 0.8924(17) 4.9800 Uiso
C13_4 C 0.8721(11) 0.3505(5) 0.9582(19) 4.9800 Uiso
H7_4 H 0.885018 0.412112 0.56418 . .
H8_4 H 0.996178 0.466026 0.386448 . .
H10_4 H 0.719654 0.281244 0.62527 . .
H12_4 H 0.97926 0.167494 0.884536 . .
H15_4 H 0.803707 0.31791 0.934251 . .
H18_4 H 0.611433 0.187733 0.677518 . .
loop_
_geom_bond_atom_site_label_1
_geom_bond_atom_site_label_2
_geom_bond_site_symmetry_1
_geom_bond_site_symmetry_2
Cu1 N1 1_555 1_555
Cu2 N2 1_555 1_555
N1 C1 1_555 1_555
N2 C1 1_555 1_555
C2 N1 1_555 1_555
C3 N2 1_555 1_555
N3 Cu2 1_555 1_555
N4 C5 1_555 1_555
C4 N3 1_555 1_555
C5 N3 1_555 1_555
C6 N4 1_555 1_555
N5 Cu1 1_555 1_555
N6 C7 1_555 1_555
C7 N5 1_555 1_555
C8 N5 1_555 1_555
C9 N6 1_555 1_555
N7 Cu1 1_555 1_555
N8 C10 1_555 1_555
C10 N7 1_555 1_555
C11 N7 1_555 1_555
C12 N8 1_555 1_555
N9 Cu1 1_555 1_555
C13 N9 1_555 1_555
C14 N9 1_555 1_555
Cu3 N8 1_555 1_555
N12 Cu2 1_555 1_555
C18 N12 1_555 1_555
N13 Cu2 1_555 1_555
Cu4 N4 1_555 1_555
Cu5 N6 1_555 1_555
N14 Cu3 1_555 1_555
N15 Cu3 1_555 1_555
N16 Cu3 1_555 1_555
C2 C3 1_555 1_555
C4 C6 1_555 1_555
C8 C9 1_555 1_555
C11 C12 1_555 1_555
N12 C17 1_555 1_555
C4 H1 1_555 1_555
C5 H2 1_555 1_555
C3 H3 1_555 1_555
C6 H4 1_555 1_555
C2 H5 1_555 1_555
C7 H6 1_555 1_555
C8 H7 1_555 1_555
C9 H8 1_555 1_555
C1 H9 1_555 1_555
C11 H10 1_555 1_555
C18 H11 1_555 1_555
C10 H12 1_555 1_555
C13 H15 1_555 1_555
C14 H16 1_555 1_555
C17 H17 1_555 1_555
C12 H18 1_555 1_555
C15 N10 1_555 1_555
N11 C16 1_555 1_555
Cu6 N10 1_555 1_555
Cu4 N11 1_555 1_555
C15 H13 1_555 1_555
C16 H14 1_555 1_555
C4_2 N14 1_555 1_555
N11_2 C16_2 1_555 1_555
C16_2 C18_2 1_555 1_555
C17_2 N11_2 1_555 1_555
C18_2 N15 1_555 1_555
Cu7 N11_2 1_555 1_555
N15 C17_2 1_555 1_555
C4_2 H1_2 1_555 1_555
C18_2 H11_2 1_555 1_555
C16_2 H14_2 1_555 1_555
C17_2 H17_2 1_555 1_555
N4_2 C5_2 1_555 1_555
C6_2 N4_2 1_555 1_555
Cu7 N4_2 1_555 1_555
C5_2 H2_2 1_555 1_555
C6_2 H4_2 1_555 1_555
N7_2 Cu1_2 1_555 1_555
N8_2 C10_2 1_555 1_555
C10_2 N7_2 1_555 1_555
C11_2 N7_2 1_555 1_555
C12_2 N8_2 1_555 1_555
N9_2 Cu1_2 1_555 1_555
C13_2 N9_2 1_555 1_555
Cu3_2 N8_2 1_555 1_555
N14_2 Cu3_2 1_555 1_555
N15_2 Cu3_2 1_555 1_555
N16_2 Cu3_2 1_555 1_555
C11_2 C12_2 1_555 1_555
C8_2 H7_2 1_555 1_555
C11_2 H10_2 1_555 1_555
C10_2 H12_2 1_555 1_555
C13_2 H15_2 1_555 1_555
C12_2 H18_2 1_555 1_555
C15_2 N10_2 1_555 1_555
Cu4 N10_2 1_555 1_555
C6_3 N4_3 1_555 1_555
Cu6 N4_3 1_555 1_555
C4_3 C6_3 1_555 1_555
C4_3 H1_3 1_555 1_555
C6_3 H4_3 1_555 1_555
C17_3 H17_3 1_555 1_555
Cu6 N11_3 1_555 1_555
Cu1_3 N1_2 1_555 1_555
Cu2_2 N2_2 1_555 1_555
N1_2 C1_2 1_555 1_555
N2_2 C1_2 1_555 1_555
C2_2 N1_2 1_555 1_555
C3_2 N2_2 1_555 1_555
N3_2 Cu2_2 1_555 1_555
C5_3 N3_2 1_555 1_555
N5_2 Cu1_3 1_555 1_555
N6_2 C7_2 1_555 1_555
C7_2 N5_2 1_555 1_555
C9_2 N6_2 1_555 1_555
N12_2 Cu2_2 1_555 1_555
C18_3 N12_2 1_555 1_555
N13_2 Cu2_2 1_555 1_555
Cu7 N6_2 1_555 1_555
C2_2 C3_2 1_555 1_555
C5_3 H2_3 1_555 1_555
C3_2 H3_2 1_555 1_555
C2_2 H5_2 1_555 1_555
C7_2 H6_2 1_555 1_555
C1_2 H9_2 1_555 1_555
C18_3 H11_3 1_555 1_555
C14_2 H16_2 1_555 1_555
C16_3 H14_3 1_555 1_555
C17_4 N11_4 1_555 1_555
Cu5 N11_4 1_555 1_555
C4_4 H1_4 1_555 1_555
C17_4 H17_4 1_555 1_555
C6_4 N4_4 1_555 1_555
Cu5 N4_4 1_555 1_555
C6_4 H4_4 1_555 1_555
C16_4 C18_4 1_555 1_555
C18_4 N15_2 1_555 1_555
C18_4 H11_4 1_555 1_555
C16_4 H14_4 1_555 1_555
C5_4 H2_4 1_555 1_555
C15_3 N16_2 1_555 1_555
C15_3 H13_3 1_555 1_555
Cu1_4 N1_3 1_555 1_555
Cu7 N2_3 1_555 1_555
N1_3 C1_3 1_555 1_555
N2_3 C1_3 1_555 1_555
C2_3 N1_3 1_555 1_555
C3_3 N2_3 1_555 1_555
N5_3 Cu1_4 1_555 1_555
N13_2 C7_3 1_555 1_555
C7_3 N5_3 1_555 1_555
C8_3 N5_3 1_555 1_555
C9_3 N13_2 1_555 1_555
N7_3 Cu1_4 1_555 1_555
N8_3 C10_3 1_555 1_555
C10_3 N7_3 1_555 1_555
C11_3 N7_3 1_555 1_555
C12_3 N8_3 1_555 1_555
N9_3 Cu1_4 1_555 1_555
C13_3 N9_3 1_555 1_555
C14_3 N9_3 1_555 1_555
Cu4 N8_3 1_555 1_555
C2_3 C3_3 1_555 1_555
C8_3 C9_3 1_555 1_555
C11_3 C12_3 1_555 1_555
C3_3 H3_3 1_555 1_555
C2_3 H5_3 1_555 1_555
C7_3 H6_3 1_555 1_555
C8_3 H7_3 1_555 1_555
C9_3 H8_3 1_555 1_555
C1_3 H9_3 1_555 1_555
C11_3 H10_3 1_555 1_555
C10_3 H12_3 1_555 1_555
C13_3 H15_3 1_555 1_555
C14_3 H16_3 1_555 1_555
C12_3 H18_3 1_555 1_555
Cu1_5 N1_4 1_555 1_555
Cu5 N2_4 1_555 1_555
N1_4 C1_4 1_555 1_555
N2_4 C1_4 1_555 1_555
C2_4 N1_4 1_555 1_555
C3_4 N2_4 1_555 1_555
N5_4 Cu1_5 1_555 1_555
N13 C7_4 1_555 1_555
C7_4 N5_4 1_555 1_555
C9_4 N13 1_555 1_555
C2_4 C3_4 1_555 1_555
C3_4 H3_4 1_555 1_555
C2_4 H5_4 1_555 1_555
C7_4 H6_4 1_555 1_555
C1_4 H9_4 1_555 1_555
C14_4 H16_4 1_555 1_555
C15_4 N16 1_555 1_555
N7_4 Cu1_6 1_555 1_555
N8_4 C10_4 1_555 1_555
C10_4 N7_4 1_555 1_555
C11_4 N7_4 1_555 1_555
C12_4 N8_4 1_555 1_555
N9_4 Cu1_6 1_555 1_555
C13_4 N9_4 1_555 1_555
Cu6 N8_4 1_555 1_555
C11_4 C12_4 1_555 1_555
C8_4 H7_4 1_555 1_555
C11_4 H10_4 1_555 1_555
C10_4 H12_4 1_555 1_555
C13_4 H15_4 1_555 1_555
C12_4 H18_4 1_555 1_555

#END
