
###############################################################################
#
# This file contains modified crystal structure data generated from the
# MOF subset of the Cambridge Structural Database (CSD) v543 
# hosted by the Cambridge Crystallographic Data Centre (CCDC).
#
# This work is licensed under the Creative Commons
# Attribution-NonCommercial-ShareAlike 4.0 International License.
# To view a copy of this license, visit
# http://creativecommons.org/licenses/by-nc-sa/4.0/
# or send a letter to
# Creative Commons, PO Box 1866, Mountain View, CA 94042, USA.
#
# CIF created using the CSD Python API on 29 September 2022
# The structure has been converted into the P1 space group
# The structure has a 3D framework
# The original CSD entry CUKXUC is in the monoclinic crystal system
# The framework has been calculated to contain at least 10.0% void space
# The void calculation uses a probe of radius 1.32A, grid spacing 0.4
# H atom positions have been added when not included in the experimental data
# Generated hydrogen atom positions removed from atoms on special positions
#
###############################################################################

data_CUKXUC
_chemical_formula_moiety         '(C62 H112 Eu8 N28 O64)n'
_symmetry_cell_setting           triclinic
_symmetry_space_group_name_H-M   'P 1'
_symmetry_Int_Tables_number      1
_space_group_name_Hall           'P 1'
loop_
_symmetry_equiv_pos_site_id
_symmetry_equiv_pos_as_xyz
1 x,y,z
_cell_length_a                   12.762(4)
_cell_length_b                   16.866(5)
_cell_length_c                   19.373(4)
_cell_angle_alpha                90
_cell_angle_beta                 130.191(13)
_cell_angle_gamma                90
_cell_volume                     3185.39
loop_
_atom_site_label
_atom_site_type_symbol
_atom_site_fract_x
_atom_site_fract_y
_atom_site_fract_z
Eu1 Eu 0.43299(3) 0.448580(18) 0.55728(2)
O1 O 0.0920(6) 0.0771(3) 0.2199(3)
O2 O 0.0652(6) 0.1780(3) 0.1377(3)
O3 O 0.4883(5) 0.4209(3) 0.3847(3)
O4 O 0.4041(5) 0.3653(3) 0.4458(3)
O5 O 0.3645(5) 0.5336(3) 0.4210(3)
O6 O 0.2097(5) 0.5122(3) 0.4353(3)
O7 O 0.2611(6) 0.3415(3) 0.5028(4)
O8 O 0.3205(6) 0.4786(3) 0.6195(3)
N1 N 0.0000 0.2779(4) 0.2500
N2 N 0.1100(6) 0.3996(3) 0.2692(4)
N3 N 0.2115(6) 0.2798(3) 0.2897(4)
N4 N 0.0000 0.5171(4) 0.2500
C1 C 0.1038(7) 0.3209(4) 0.2691(4)
C2 C 0.0000 0.4357(6) 0.2500
C3 C 0.2170(7) 0.1953(3) 0.3009(4)
H1 H 0.1966 0.1830 0.3401
H2 H 0.3099 0.1776 0.3313
C4 C 0.1195(7) 0.1484(4) 0.2138(4)
C5 C 0.3211(7) 0.3216(4) 0.3010(4)
H3 H 0.2807 0.3550 0.2485
H4 H 0.3785 0.2829 0.3023
C6 C 0.4125(7) 0.3732(4) 0.3856(4)
C7 C 0.1288(8) 0.5570(4) 0.2903(5)
H5 H 0.1150 0.6139 0.2870
H6 H 0.1578 0.5443 0.2560
C8 C 0.2412(7) 0.5330(4) 0.3887(4)
Eu2 Eu 0.06701(3) 0.051420(18) 0.44272(2)
Eu3 Eu 0.56701(3) 0.551420(18) 0.44272(2)
O10 O 0.5920(6) 0.4229(3) 0.7199(3)
O13 O 0.5652(6) 0.3220(3) 0.6377(3)
O16 O 0.5117(5) 0.5791(3) 0.6153(3)
O20 O 0.6355(5) 0.4664(3) 0.5790(3)
N1_2 N 1.0000 0.2779(4) 0.2500
N4_2 N 1.0000 0.5171(4) 0.2500
C2_2 C 1.0000 0.4357(6) 0.2500
Eu4 Eu 0.93299(3) 0.051420(18) 0.05728(2)
Eu5 Eu 0.43299(3) 0.551420(18) 0.05728(2)
O9 O 0.9080(6) 0.0771(3) 0.2801(3)
O12 O 0.9348(6) 0.1780(3) 0.3623(3)
O15 O 0.5117(5) 0.4209(3) 0.1153(3)
O18 O 0.5959(5) 0.3653(3) 0.0542(3)
O19 O 0.6355(5) 0.5336(3) 0.0790(3)
O22 O 0.7903(5) 0.5122(3) 0.0647(3)
N5 N 0.8900(6) 0.3996(3) 0.2308(4)
N6 N 0.7885(6) 0.2798(3) 0.2103(4)
C9 C 0.8962(7) 0.3209(4) 0.2309(4)
C10 C 0.7830(7) 0.1953(3) 0.1991(4)
H7 H 0.8034 0.1830 0.1599
H8 H 0.6901 0.1776 0.1687
C11 C 0.8805(7) 0.1484(4) 0.2862(4)
C12 C 0.6789(7) 0.3216(4) 0.1990(4)
H9 H 0.7193 0.3550 0.2515
H10 H 0.6215 0.2829 0.1977
C13 C 0.5875(7) 0.3732(4) 0.1144(4)
C14 C 0.8712(8) 0.5570(4) 0.2097(5)
H11 H 0.8850 0.6139 0.2130
H12 H 0.8422 0.5443 0.2440
C15 C 0.7588(7) 0.5330(4) 0.1113(4)
H16 H 0.811293 0.345039 0.0639014
Eu6 Eu 0.56701(3) 0.448580(18) 0.94272(2)
O11 O 0.4080(6) 0.4229(3) 0.7801(3)
O14 O 0.4348(6) 0.3220(3) 0.8623(3)
O17 O 0.4883(5) 0.5791(3) 0.8847(3)
O21 O 0.3645(5) 0.4664(3) 0.9210(3)
O23 O 0.7389(6) 0.3415(3) 0.9972(4)
O24 O 0.6795(6) 0.4786(3) 0.8805(3)
O16_2 O 0.0117(5) 0.0791(3) 0.6153(3)
O10_2 O 0.0920(6) 0.9229(3) 0.7199(3)
O13_2 O 0.0652(6) 0.8220(3) 0.6377(3)
O20_2 O 0.1355(5) 0.9664(3) 0.5790(3)
O5_2 O 0.8645(5) 0.0336(3) 0.4210(3)
O6_2 O 0.7097(5) 0.0122(3) 0.4353(3)
N4_3 N 0.5000 0.0171(4) 0.2500
C7_2 C 0.6288(8) 0.0570(4) 0.2903(5)
H5_2 H 0.6150 0.1139 0.2870
H6_2 H 0.6578 0.0443 0.2560
C8_2 C 0.7412(7) 0.0330(4) 0.3887(4)
O19_2 O 0.1355(5) 0.0336(3) 0.0790(3)
O22_2 O 0.2903(5) 0.0122(3) 0.0647(3)
C14_2 C 0.3712(8) 0.0570(4) 0.2097(5)
H11_2 H 0.3850 0.1139 0.2130
H12_2 H 0.3422 0.0443 0.2440
C15_2 C 0.2588(7) 0.0330(4) 0.1113(4)
H20 H 0.874085 0.0195906 0.667313
Eu1_2 Eu 0.93299(3) 0.948580(18) 0.55728(2)
O1_2 O 0.5920(6) 0.5771(3) 0.2199(3)
O2_2 O 0.5652(6) 0.6780(3) 0.1377(3)
O3_2 O 0.9883(5) 0.9209(3) 0.3847(3)
O4_2 O 0.9041(5) 0.8653(3) 0.4458(3)
O7_2 O 0.7611(6) 0.8415(3) 0.5028(4)
O8_2 O 0.8205(6) 0.9786(3) 0.6195(3)
N1_3 N 0.5000 0.7779(4) 0.2500
N2_2 N 0.6100(6) 0.8996(3) 0.2692(4)
N3_2 N 0.7115(6) 0.7798(3) 0.2897(4)
C1_2 C 0.6038(7) 0.8209(4) 0.2691(4)
C2_3 C 0.5000 0.9357(6) 0.2500
C3_2 C 0.7170(7) 0.6953(3) 0.3009(4)
H1_2 H 0.6966 0.6830 0.3401
H2_2 H 0.8099 0.6776 0.3313
C4_2 C 0.6195(7) 0.6484(4) 0.2138(4)
C5_2 C 0.8211(7) 0.8216(4) 0.3010(4)
H3_2 H 0.7807 0.8550 0.2485
H4_2 H 0.8785 0.7829 0.3023
C6_2 C 0.9125(7) 0.8732(4) 0.3856(4)
O9_2 O 0.4080(6) 0.5771(3) 0.2801(3)
O12_2 O 0.4348(6) 0.6780(3) 0.3623(3)
O15_2 O 0.0117(5) 0.9209(3) 0.1153(3)
O18_2 O 0.0959(5) 0.8653(3) 0.0542(3)
N5_2 N 0.3900(6) 0.8996(3) 0.2308(4)
N6_2 N 0.2885(6) 0.7798(3) 0.2103(4)
C9_2 C 0.3962(7) 0.8209(4) 0.2309(4)
C10_2 C 0.2830(7) 0.6953(3) 0.1991(4)
H7_2 H 0.3034 0.6830 0.1599
H8_2 H 0.1901 0.6776 0.1687
C11_2 C 0.3805(7) 0.6484(4) 0.2862(4)
C12_2 C 0.1789(7) 0.8216(4) 0.1990(4)
H9_2 H 0.2193 0.8550 0.2515
H10_2 H 0.1215 0.7829 0.1977
C13_2 C 0.0875(7) 0.8732(4) 0.1144(4)
H16_2 H 0.311293 0.845039 0.0639014
H19 H 0.815445 0.929705 0.64579
Eu6_2 Eu 0.06701(3) 0.948580(18) 0.94272(2)
O23_2 O 0.2389(6) 0.8415(3) 0.9972(4)
O24_2 O 0.1795(6) 0.9786(3) 0.8805(3)
H14 H 0.274565 0.997162 0.929723
O17_2 O 0.9883(5) 0.0791(3) 0.8847(3)
O11_2 O 0.9080(6) 0.9229(3) 0.7801(3)
O14_2 O 0.9348(6) 0.8220(3) 0.8623(3)
O21_2 O 0.8645(5) 0.9664(3) 0.9210(3)
H13 H 0.872568 0.0207272 0.666041
H14_2 H 0.725435 0.997162 0.570277
H19_2 H 0.184555 0.929705 0.85421
O23_3 O 0.2611(6) 0.6585(3) 0.0028(4)
O24_3 O 0.3205(6) 0.5214(3) 0.1195(3)
N1_4 N -0.0000 0.7221(4) 0.7500
N4_4 N 0.0000 0.4829(4) 0.7500
C2_4 C 0.0000 0.5643(6) 0.7500
O18_3 O 0.4041(5) 0.6347(3) 0.9458(3)
O22_3 O 0.2097(5) 0.4878(3) 0.9353(3)
N5_3 N 0.1100(6) 0.6004(3) 0.7692(4)
N6_3 N 0.2115(6) 0.7202(3) 0.7897(4)
C9_3 C 0.1038(7) 0.6791(4) 0.7691(4)
C10_3 C 0.2170(7) 0.8047(3) 0.8009(4)
H7_3 H 0.1966 0.8170 0.8401
H8_3 H 0.3099 0.8224 0.8313
C11_3 C 0.1195(7) 0.8516(4) 0.7138(4)
C12_3 C 0.3211(7) 0.6784(4) 0.8010(4)
H9_3 H 0.2807 0.6450 0.7485
H10_3 H 0.3785 0.7171 0.8023
C13_3 C 0.4125(7) 0.6268(4) 0.8856(4)
C14_3 C 0.1288(8) 0.4430(4) 0.7903(5)
H11_3 H 0.1150 0.3861 0.7870
H12_3 H 0.1578 0.4557 0.7560
C15_3 C 0.2412(7) 0.4670(4) 0.8887(4)
H16_3 H 0.188707 0.654961 0.936099
O4_3 O 0.5959(5) 0.6347(3) 0.5542(3)
O6_3 O 0.7903(5) 0.4878(3) 0.5647(3)
O7_3 O 0.7389(6) 0.6585(3) 0.4972(4)
O8_3 O 0.6795(6) 0.5214(3) 0.3805(3)
N1_5 N 1.0000 0.7221(4) 0.7500
N2_3 N 0.8900(6) 0.6004(3) 0.7308(4)
N3_3 N 0.7885(6) 0.7202(3) 0.7103(4)
N4_5 N 1.0000 0.4829(4) 0.7500
C1_3 C 0.8962(7) 0.6791(4) 0.7309(4)
C2_5 C 1.0000 0.5643(6) 0.7500
C3_3 C 0.7830(7) 0.8047(3) 0.6991(4)
H1_3 H 0.8034 0.8170 0.6599
H2_3 H 0.6901 0.8224 0.6687
C4_3 C 0.8805(7) 0.8516(4) 0.7862(4)
C5_3 C 0.6789(7) 0.6784(4) 0.6990(4)
H3_3 H 0.7193 0.6450 0.7515
H4_3 H 0.6215 0.7171 0.6977
C6_3 C 0.5875(7) 0.6268(4) 0.6144(4)
C7_3 C 0.8712(8) 0.4430(4) 0.7097(5)
H5_3 H 0.8850 0.3861 0.7130
H6_3 H 0.8422 0.4557 0.7440
C8_3 C 0.7588(7) 0.4670(4) 0.6113(4)
O23_4 O 0.7611(6) 0.1585(3) 0.0028(4)
O24_4 O 0.8205(6) 0.0214(3) 0.1195(3)
H14_3 H 0.725435 0.00283755 0.070277
O4_4 O 0.0959(5) 0.1347(3) 0.5542(3)
O7_4 O 0.2389(6) 0.1585(3) 0.4972(4)
O8_4 O 0.1795(6) 0.0214(3) 0.3805(3)
N1_6 N 0.5000 0.2221(4) 0.7500
N2_4 N 0.3900(6) 0.1004(3) 0.7308(4)
N3_4 N 0.2885(6) 0.2202(3) 0.7103(4)
C1_4 C 0.3962(7) 0.1791(4) 0.7309(4)
C2_6 C 0.5000 0.0643(6) 0.7500
C3_4 C 0.2830(7) 0.3047(3) 0.6991(4)
H1_4 H 0.3034 0.3170 0.6599
H2_4 H 0.1901 0.3224 0.6687
C4_4 C 0.3805(7) 0.3516(4) 0.7862(4)
C5_4 C 0.1789(7) 0.1784(4) 0.6990(4)
H3_4 H 0.2193 0.1450 0.7515
H4_4 H 0.1215 0.2171 0.6977
C6_4 C 0.0875(7) 0.1268(4) 0.6144(4)
O18_4 O 0.9041(5) 0.1347(3) 0.9458(3)
N5_4 N 0.6100(6) 0.1004(3) 0.7692(4)
N6_4 N 0.7115(6) 0.2202(3) 0.7897(4)
C9_4 C 0.6038(7) 0.1791(4) 0.7691(4)
C10_4 C 0.7170(7) 0.3047(3) 0.8009(4)
H7_4 H 0.6966 0.3170 0.8401
H8_4 H 0.8099 0.3224 0.8313
C11_4 C 0.6195(7) 0.3516(4) 0.7138(4)
C12_4 C 0.8211(7) 0.1784(4) 0.8010(4)
H9_4 H 0.7807 0.1450 0.7485
H10_4 H 0.8785 0.2171 0.8023
C13_4 C 0.9125(7) 0.1268(4) 0.8856(4)
H16_4 H 0.688707 0.154961 0.936099
H19_3 H 0.184555 0.0702952 0.35421
O6_4 O 0.2903(5) 0.9878(3) 0.5647(3)
N4_6 N 0.5000 0.9829(4) 0.7500
C7_4 C 0.3712(8) 0.9430(4) 0.7097(5)
H5_4 H 0.3850 0.8861 0.7130
H6_4 H 0.3422 0.9557 0.7440
C8_4 C 0.2588(7) 0.9670(4) 0.6113(4)
O22_4 O 0.7097(5) 0.9878(3) 0.9353(3)
C14_4 C 0.6288(8) 0.9430(4) 0.7903(5)
H11_4 H 0.6150 0.8861 0.7870
H12_4 H 0.6578 0.9557 0.7560
C15_4 C 0.7412(7) 0.9670(4) 0.8887(4)
H20_2 H 0.125915 0.980409 0.332687
H19_4 H 0.815445 0.0702952 0.14579
H14_4 H 0.274565 0.00283755 0.429723
H13_2 H 0.127432 0.979273 0.333959
H13_3 H 0.127432 0.0207272 0.833959
H20_3 H 0.125915 0.0195906 0.832687
H13_4 H 0.872568 0.979273 0.166041
H20_4 H 0.874085 0.980409 0.167313
loop_
_geom_bond_atom_site_label_1
_geom_bond_atom_site_label_2
_geom_bond_site_symmetry_1
_geom_bond_site_symmetry_2
Eu1 O4 1_555 1_555
O1 C4 1_555 1_555
O2 C4 1_555 1_555
O3 C6 1_555 1_555
O4 C6 1_555 1_555
O5 Eu1 1_555 1_555
O6 Eu1 1_555 1_555
O7 Eu1 1_555 1_555
O8 Eu1 1_555 1_555
N1 C1 1_555 1_555
N2 C1 1_555 1_555
N3 C1 1_555 1_555
N4 C2 1_555 1_555
C2 N2 1_555 1_555
C3 N3 1_555 1_555
H1 C3 1_555 1_555
H2 C3 1_555 1_555
C4 C3 1_555 1_555
C5 N3 1_555 1_555
H3 C5 1_555 1_555
H4 C5 1_555 1_555
C6 C5 1_555 1_555
C7 N4 1_555 1_555
H5 C7 1_555 1_555
H6 C7 1_555 1_555
C8 O5 1_555 1_555
Eu3 O3 1_555 1_555
O10 Eu1 1_555 1_555
O13 Eu1 1_555 1_555
O16 Eu1 1_555 1_555
O20 Eu1 1_555 1_555
O5 Eu3 1_555 1_555
O6 C8 1_555 1_555
C7 C8 1_555 1_555
Eu3 O20 1_555 1_555
N4_2 C2_2 1_555 1_555
Eu5 O15 1_555 1_555
O9 C11 1_555 1_555
O15 C13 1_555 1_555
O19 Eu5 1_555 1_555
N5 C2_2 1_555 1_555
N6 C9 1_555 1_555
C9 N1_2 1_555 1_555
C10 N6 1_555 1_555
H7 C10 1_555 1_555
H8 C10 1_555 1_555
C11 O12 1_555 1_555
C12 N6 1_555 1_555
H9 C12 1_555 1_555
H10 C12 1_555 1_555
C13 O18 1_555 1_555
C14 N4_2 1_555 1_555
H11 C14 1_555 1_555
H12 C14 1_555 1_555
C15 O19 1_555 1_555
O22 C15 1_555 1_555
N5 C9 1_555 1_555
C10 C11 1_555 1_555
C12 C13 1_555 1_555
C14 C15 1_555 1_555
Eu6 O11 1_555 1_555
O14 Eu6 1_555 1_555
O17 Eu6 1_555 1_555
O23 Eu6 1_555 1_555
O24 Eu6 1_555 1_555
Eu6 O21 1_555 1_555
C7_2 N4_3 1_555 1_555
H5_2 C7_2 1_555 1_555
H6_2 C7_2 1_555 1_555
C8_2 O5_2 1_555 1_555
C14_2 N4_3 1_555 1_555
H11_2 C14_2 1_555 1_555
H12_2 C14_2 1_555 1_555
C15_2 O19_2 1_555 1_555
O6_2 C8_2 1_555 1_555
C7_2 C8_2 1_555 1_555
O22_2 C15_2 1_555 1_555
C14_2 C15_2 1_555 1_555
Eu1_2 O4_2 1_555 1_555
O1_2 C4_2 1_555 1_555
O2_2 C4_2 1_555 1_555
O3_2 C6_2 1_555 1_555
O4_2 C6_2 1_555 1_555
O7_2 Eu1_2 1_555 1_555
O8_2 Eu1_2 1_555 1_555
N1_3 C1_2 1_555 1_555
N2_2 C1_2 1_555 1_555
N3_2 C1_2 1_555 1_555
C2_3 N2_2 1_555 1_555
C3_2 N3_2 1_555 1_555
H1_2 C3_2 1_555 1_555
H2_2 C3_2 1_555 1_555
C4_2 C3_2 1_555 1_555
C5_2 N3_2 1_555 1_555
H3_2 C5_2 1_555 1_555
H4_2 C5_2 1_555 1_555
C6_2 C5_2 1_555 1_555
Eu3 O9_2 1_555 1_555
Eu5 O1_2 1_555 1_555
O9_2 C11_2 1_555 1_555
O12_2 Eu3 1_555 1_555
O15_2 C13_2 1_555 1_555
N5_2 C2_3 1_555 1_555
N6_2 C9_2 1_555 1_555
C9_2 N1_3 1_555 1_555
C10_2 N6_2 1_555 1_555
H7_2 C10_2 1_555 1_555
H8_2 C10_2 1_555 1_555
C11_2 O12_2 1_555 1_555
C12_2 N6_2 1_555 1_555
H9_2 C12_2 1_555 1_555
H10_2 C12_2 1_555 1_555
C13_2 O18_2 1_555 1_555
O2_2 Eu5 1_555 1_555
N5_2 C9_2 1_555 1_555
C10_2 C11_2 1_555 1_555
C12_2 C13_2 1_555 1_555
O8_2 H19 1_555 1_555
O23_2 Eu6_2 1_555 1_555
O24_2 Eu6_2 1_555 1_555
O24_2 H14 1_555 1_555
O8_2 H14_2 1_555 1_555
O24_2 H19_2 1_555 1_555
O23_3 Eu5 1_555 1_555
O24_3 Eu5 1_555 1_555
N4_4 C2_4 1_555 1_555
O10_2 C11_3 1_555 1_555
O17 C13_3 1_555 1_555
N5_3 C2_4 1_555 1_555
N6_3 C9_3 1_555 1_555
C9_3 N1_4 1_555 1_555
C10_3 N6_3 1_555 1_555
H7_3 C10_3 1_555 1_555
H8_3 C10_3 1_555 1_555
C11_3 O13_2 1_555 1_555
C12_3 N6_3 1_555 1_555
H9_3 C12_3 1_555 1_555
H10_3 C12_3 1_555 1_555
C13_3 O18_3 1_555 1_555
C14_3 N4_4 1_555 1_555
H11_3 C14_3 1_555 1_555
H12_3 C14_3 1_555 1_555
C15_3 O21 1_555 1_555
O22_3 C15_3 1_555 1_555
N5_3 C9_3 1_555 1_555
C10_3 C11_3 1_555 1_555
C12_3 C13_3 1_555 1_555
C14_3 C15_3 1_555 1_555
Eu3 O4_3 1_555 1_555
O11_2 C4_3 1_555 1_555
O14_2 C4_3 1_555 1_555
O16 C6_3 1_555 1_555
O4_3 C6_3 1_555 1_555
O6_3 Eu3 1_555 1_555
O7_3 Eu3 1_555 1_555
O8_3 Eu3 1_555 1_555
N1_5 C1_3 1_555 1_555
N2_3 C1_3 1_555 1_555
N3_3 C1_3 1_555 1_555
N4_5 C2_5 1_555 1_555
C2_5 N2_3 1_555 1_555
C3_3 N3_3 1_555 1_555
H1_3 C3_3 1_555 1_555
H2_3 C3_3 1_555 1_555
C4_3 C3_3 1_555 1_555
C5_3 N3_3 1_555 1_555
H3_3 C5_3 1_555 1_555
H4_3 C5_3 1_555 1_555
C6_3 C5_3 1_555 1_555
C7_3 N4_5 1_555 1_555
H5_3 C7_3 1_555 1_555
H6_3 C7_3 1_555 1_555
C8_3 O20 1_555 1_555
O6_3 C8_3 1_555 1_555
C7_3 C8_3 1_555 1_555
O23_4 Eu4 1_555 1_555
O24_4 Eu4 1_555 1_555
O24_4 H14_3 1_555 1_555
Eu2 O4_4 1_555 1_555
O11 C4_4 1_555 1_555
O14 C4_4 1_555 1_555
O16_2 C6_4 1_555 1_555
O4_4 C6_4 1_555 1_555
O7_4 Eu2 1_555 1_555
O8_4 Eu2 1_555 1_555
N1_6 C1_4 1_555 1_555
N2_4 C1_4 1_555 1_555
N3_4 C1_4 1_555 1_555
C2_6 N2_4 1_555 1_555
C3_4 N3_4 1_555 1_555
H1_4 C3_4 1_555 1_555
H2_4 C3_4 1_555 1_555
C4_4 C3_4 1_555 1_555
C5_4 N3_4 1_555 1_555
H3_4 C5_4 1_555 1_555
H4_4 C5_4 1_555 1_555
C6_4 C5_4 1_555 1_555
O10 C11_4 1_555 1_555
O17_2 C13_4 1_555 1_555
N5_4 C2_6 1_555 1_555
N6_4 C9_4 1_555 1_555
C9_4 N1_6 1_555 1_555
C10_4 N6_4 1_555 1_555
H7_4 C10_4 1_555 1_555
H8_4 C10_4 1_555 1_555
C11_4 O13 1_555 1_555
C12_4 N6_4 1_555 1_555
H9_4 C12_4 1_555 1_555
H10_4 C12_4 1_555 1_555
C13_4 O18_4 1_555 1_555
N5_4 C9_4 1_555 1_555
C10_4 C11_4 1_555 1_555
C12_4 C13_4 1_555 1_555
O8_4 H19_3 1_555 1_555
C7_4 N4_6 1_555 1_555
H5_4 C7_4 1_555 1_555
H6_4 C7_4 1_555 1_555
C8_4 O20_2 1_555 1_555
C14_4 N4_6 1_555 1_555
H11_4 C14_4 1_555 1_555
H12_4 C14_4 1_555 1_555
C15_4 O21_2 1_555 1_555
O6_4 C8_4 1_555 1_555
C7_4 C8_4 1_555 1_555
O22_4 C15_4 1_555 1_555
C14_4 C15_4 1_555 1_555
O24_4 H19_4 1_555 1_555
O8_4 H14_4 1_555 1_555

#END
