
###############################################################################
#
# This file contains modified crystal structure data generated from the
# MOF subset of the Cambridge Structural Database (CSD) v543 
# hosted by the Cambridge Crystallographic Data Centre (CCDC).
#
# This work is licensed under the Creative Commons
# Attribution-NonCommercial-ShareAlike 4.0 International License.
# To view a copy of this license, visit
# http://creativecommons.org/licenses/by-nc-sa/4.0/
# or send a letter to
# Creative Commons, PO Box 1866, Mountain View, CA 94042, USA.
#
# CIF created using the CSD Python API on 29 September 2022
# The structure has been converted into the P1 space group
# The structure has a 3D framework
# The original CSD entry CUKXEN is in the tetragonal crystal system
# The framework has been calculated to contain at least 10.0% void space
# The void calculation uses a probe of radius 1.32A, grid spacing 0.4
# The framework is charged, counterions have been retained in the structure
#
###############################################################################

data_CUKXEN
_chemical_formula_moiety         '(C88 H24 Cd10 O50 21-)n'
_symmetry_cell_setting           triclinic
_symmetry_space_group_name_H-M   'P 1'
_symmetry_Int_Tables_number      1
_space_group_name_Hall           'P 1'
loop_
_symmetry_equiv_pos_site_id
_symmetry_equiv_pos_as_xyz
1 x,y,z
_cell_length_a                   13.795(2)
_cell_length_b                   13.795(2)
_cell_length_c                   17.743(6)
_cell_angle_alpha                90
_cell_angle_beta                 90
_cell_angle_gamma                90
_cell_volume                     3376.53
loop_
_atom_site_label
_atom_site_type_symbol
_atom_site_fract_x
_atom_site_fract_y
_atom_site_fract_z
C1 C 0.1399(3) 0.4801(4) 0.3610(2)
C2 C 0.1999(3) 0.4849(3) 0.4317(2)
C3 C 0.2992(3) 0.5059(3) 0.4320(2)
C4 C 0.3597(4) 0.5137(5) 0.3609(3)
C5 C 0.3463(5) 0.5175(6) 0.5000
H1 H 0.4118 0.5335 0.5000
C6 C 0.1527(4) 0.4733(5) 0.5000
H2 H 0.0873 0.4573 0.5000
Cd1 Cd -0.0000 0.5000 0.2500
Cd2 Cd 0.5000 0.5000 0.2500
O1 O 0.0775(3) 0.4171(3) 0.3541(2)
O2 O 0.1503(3) 0.5460(3) 0.3125(2)
O3 O 0.3524(3) 0.4493(3) 0.3122(2)
O4 O 0.4204(3) 0.5798(3) 0.3558(2)
C7 C 0.1399(3) 0.4801(4) 0.6390(2)
C8 C 0.1999(3) 0.4849(3) 0.5683(2)
C9 C 0.2992(3) 0.5059(3) 0.5680(2)
C10 C 0.3597(4) 0.5137(5) 0.6391(3)
O5 O 0.0775(3) 0.4171(3) 0.6459(2)
O6 O 0.1503(3) 0.5460(3) 0.6875(2)
O7 O 0.3524(3) 0.4493(3) 0.6878(2)
O8 O 0.4204(3) 0.5798(3) 0.6442(2)
Cd3 Cd -0.0000 0.5000 0.7500
Cd6 Cd 0.5000 0.5000 0.7500
O18 O 0.0829(3) 0.4225(3) 0.1459(2)
O19 O 0.0460(3) 0.6503(3) 0.1875(2)
O21 O 0.6476(3) 0.5507(3) 0.3122(2)
O22 O 0.4493(3) 0.6476(3) 0.1878(2)
O23 O 0.5507(3) 0.3524(3) 0.1878(2)
O24 O 0.5796(3) 0.4202(3) 0.3558(2)
O25 O 0.5798(3) 0.5796(3) 0.1442(2)
O26 O 0.4202(3) 0.4204(3) 0.1442(2)
Cd1_2 Cd 1.0000 0.5000 0.2500
C11 C 0.8601(3) 0.5199(4) 0.3610(2)
C12 C 0.8001(3) 0.5151(3) 0.4317(2)
C13 C 0.7008(3) 0.4941(3) 0.4320(2)
C14 C 0.6403(4) 0.4863(5) 0.3609(3)
C15 C 0.6537(5) 0.4825(6) 0.5000
H3 H 0.5882 0.4665 0.5000
C16 C 0.8473(4) 0.5267(5) 0.5000
H4 H 0.9127 0.5427 0.5000
O9 O 0.9225(3) 0.5829(3) 0.3541(2)
O10 O 0.8497(3) 0.4540(3) 0.3125(2)
C17 C 0.8601(3) 0.5199(4) 0.6390(2)
C18 C 0.8001(3) 0.5151(3) 0.5683(2)
C19 C 0.7008(3) 0.4941(3) 0.5680(2)
C20 C 0.6403(4) 0.4863(5) 0.6391(3)
O13 O 0.9225(3) 0.5829(3) 0.6459(2)
O14 O 0.8497(3) 0.4540(3) 0.6875(2)
O15 O 0.6476(3) 0.5507(3) 0.6878(2)
O16 O 0.5796(3) 0.4202(3) 0.6442(2)
Cd3_2 Cd 1.0000 0.5000 0.7500
O17 O 0.9171(3) 0.5775(3) 0.1459(2)
O20 O 0.9540(3) 0.3497(3) 0.1875(2)
C5_2 C 0.4825(6) 0.3463(5) 0.0000
H1_2 H 0.4665 0.4118 0.0000
C6_2 C 0.5267(5) 0.1527(4) 0.0000
H2_2 H 0.5427 0.0873 0.0000
C7_2 C 0.5199(4) 0.1399(3) 0.1390(2)
C8_2 C 0.5151(3) 0.1999(3) 0.0683(2)
C9_2 C 0.4941(3) 0.2992(3) 0.0680(2)
C10_2 C 0.4863(5) 0.3597(4) 0.1391(3)
O5_2 O 0.5829(3) 0.0775(3) 0.1459(2)
O6_2 O 0.4540(3) 0.1503(3) 0.1875(2)
Cd3_3 Cd 0.5000 -0.0000 0.2500
C1_2 C 0.5199(4) 0.1399(3) 0.8610(2)
C2_2 C 0.5151(3) 0.1999(3) 0.9317(2)
C3_2 C 0.4941(3) 0.2992(3) 0.9320(2)
C4_2 C 0.4863(5) 0.3597(4) 0.8609(3)
C5_3 C 0.4825(6) 0.3463(5) 1.0000
H1_3 H 0.4665 0.4118 1.0000
C6_3 C 0.5267(5) 0.1527(4) 1.0000
H2_3 H 0.5427 0.0873 1.0000
Cd1_3 Cd 0.5000 -0.0000 0.7500
O1_2 O 0.5829(3) 0.0775(3) 0.8541(2)
O2_2 O 0.4540(3) 0.1503(3) 0.8125(2)
O3_2 O 0.5507(3) 0.3524(3) 0.8122(2)
O4_2 O 0.4202(3) 0.4204(3) 0.8558(2)
O18_2 O 0.5775(3) 0.0829(3) 0.6459(2)
O19_2 O 0.3497(3) 0.0460(3) 0.6875(2)
O21_2 O 0.4493(3) 0.6476(3) 0.8122(2)
O24_2 O 0.5798(3) 0.5796(3) 0.8558(2)
C15_2 C 0.5175(6) 0.6537(5) 0.0000
H3_2 H 0.5335 0.5882 0.0000
C16_2 C 0.4733(5) 0.8473(4) 0.0000
H4_2 H 0.4573 0.9127 0.0000
C17_2 C 0.4801(4) 0.8601(3) 0.1390(2)
C18_2 C 0.4849(3) 0.8001(3) 0.0683(2)
C19_2 C 0.5059(3) 0.7008(3) 0.0680(2)
C20_2 C 0.5137(5) 0.6403(4) 0.1391(3)
O13_2 O 0.4171(3) 0.9225(3) 0.1459(2)
O14_2 O 0.5460(3) 0.8497(3) 0.1875(2)
Cd3_4 Cd 0.5000 1.0000 0.2500
Cd1_4 Cd 0.5000 1.0000 0.7500
C11_2 C 0.4801(4) 0.8601(3) 0.8610(2)
C12_2 C 0.4849(3) 0.8001(3) 0.9317(2)
C13_2 C 0.5059(3) 0.7008(3) 0.9320(2)
C14_2 C 0.5137(5) 0.6403(4) 0.8609(3)
C15_3 C 0.5175(6) 0.6537(5) 1.0000
H3_3 H 0.5335 0.5882 1.0000
C16_3 C 0.4733(5) 0.8473(4) 1.0000
H4_3 H 0.4573 0.9127 1.0000
O9_2 O 0.4171(3) 0.9225(3) 0.8541(2)
O10_2 O 0.5460(3) 0.8497(3) 0.8125(2)
O17_2 O 0.4225(3) 0.9171(3) 0.6459(2)
O20_2 O 0.6503(3) 0.9540(3) 0.6875(2)
Cd4 Cd -0.0000 -0.0000 0.7500
Cd5 Cd 0.0000 -0.0000 0.2500
Cd4_2 Cd 0.0000 1.0000 0.7500
Cd5_2 Cd 0.0000 1.0000 0.2500
C3_3 C 0.2008(3) 0.0059(3) 0.5680(2)
C4_3 C 0.1403(4) 0.0137(5) 0.6391(3)
C5_4 C 0.1537(5) 0.0175(6) 0.5000
H1_4 H 0.0882 0.0335 0.5000
O4_3 O 0.0796(3) 0.0798(3) 0.6442(2)
C9_3 C 0.2008(3) 0.0059(3) 0.4320(2)
C10_3 C 0.1403(4) 0.0137(5) 0.3609(3)
O6_3 O 0.3497(3) 0.0460(3) 0.3125(2)
O8_2 O 0.0796(3) 0.0798(3) 0.3558(2)
C11_3 C 0.6399(3) 0.0199(4) 0.6390(2)
C12_3 C 0.6999(3) 0.0151(3) 0.5683(2)
C16_4 C 0.6527(4) 0.0267(5) 0.5000
H4_4 H 0.5873 0.0427 0.5000
O11 O 0.8524(3) 0.0507(3) 0.6878(2)
C17_3 C 0.6399(3) 0.0199(4) 0.3610(2)
C18_3 C 0.6999(3) 0.0151(3) 0.4317(2)
O13_3 O 0.5775(3) 0.0829(3) 0.3541(2)
O15_2 O 0.8524(3) 0.0507(3) 0.3122(2)
Cd4_3 Cd 1.0000 -0.0000 0.7500
Cd5_3 Cd 1.0000 -0.0000 0.2500
O22_2 O 0.0507(3) 0.1476(3) 0.8122(2)
C1_3 C 0.3601(3) 0.9801(4) 0.6390(2)
C2_3 C 0.3001(3) 0.9849(3) 0.5683(2)
C6_4 C 0.3473(4) 0.9733(5) 0.5000
H2_4 H 0.4127 0.9573 0.5000
O3_3 O 0.1476(3) 0.9493(3) 0.6878(2)
C7_3 C 0.3601(3) 0.9801(4) 0.3610(2)
C8_3 C 0.3001(3) 0.9849(3) 0.4317(2)
O5_3 O 0.4225(3) 0.9171(3) 0.3541(2)
O7_2 O 0.1476(3) 0.9493(3) 0.3122(2)
C13_3 C 0.7992(3) 0.9941(3) 0.5680(2)
C14_3 C 0.8597(4) 0.9863(5) 0.6391(3)
C15_4 C 0.8463(5) 0.9825(6) 0.5000
H3_4 H 0.9118 0.9665 0.5000
O12 O 0.9204(3) 0.9202(3) 0.6442(2)
C19_3 C 0.7992(3) 0.9941(3) 0.4320(2)
C20_3 C 0.8597(4) 0.9863(5) 0.3609(3)
O14_3 O 0.6503(3) 0.9540(3) 0.3125(2)
O16_2 O 0.9204(3) 0.9202(3) 0.3558(2)
Cd4_4 Cd 1.0000 1.0000 0.7500
Cd5_4 Cd 1.0000 1.0000 0.2500
O26_2 O 0.0798(3) 0.9204(3) 0.8558(2)
O25_2 O 0.9202(3) 0.0796(3) 0.8558(2)
O23_2 O 0.9493(3) 0.8524(3) 0.8122(2)
O21_3 O 0.0507(3) 0.1476(3) 0.1878(2)
C3_4 C 0.0059(3) 0.7992(3) 0.0680(2)
C4_4 C 0.0137(5) 0.8597(4) 0.1391(3)
C5_5 C 0.0175(6) 0.8463(5) 0.0000
H1_5 H 0.0335 0.9118 0.0000
O4_4 O 0.0798(3) 0.9204(3) 0.1442(2)
C11_4 C 0.0199(4) 0.3601(3) 0.1390(2)
C12_4 C 0.0151(3) 0.3001(3) 0.0683(2)
C16_5 C 0.0267(5) 0.3473(4) 0.0000
H4_5 H 0.0427 0.4127 0.0000
C5_6 C 0.0175(6) 0.8463(5) 1.0000
H1_6 H 0.0335 0.9118 1.0000
C9_4 C 0.0059(3) 0.7992(3) 0.9320(2)
C10_4 C 0.0137(5) 0.8597(4) 0.8609(3)
O6_4 O 0.0460(3) 0.6503(3) 0.8125(2)
C16_6 C 0.0267(5) 0.3473(4) 1.0000
H4_6 H 0.0427 0.4127 1.0000
C17_4 C 0.0199(4) 0.3601(3) 0.8610(2)
C18_4 C 0.0151(3) 0.3001(3) 0.9317(2)
O13_4 O 0.0829(3) 0.4225(3) 0.8541(2)
O24_3 O 0.9202(3) 0.0796(3) 0.1442(2)
C1_4 C 0.9801(4) 0.6399(3) 0.1390(2)
C2_4 C 0.9849(3) 0.6999(3) 0.0683(2)
C6_5 C 0.9733(5) 0.6527(4) 0.0000
H2_5 H 0.9573 0.5873 0.0000
O3_4 O 0.9493(3) 0.8524(3) 0.1878(2)
C13_4 C 0.9941(3) 0.2008(3) 0.0680(2)
C14_4 C 0.9863(5) 0.1403(4) 0.1391(3)
C15_5 C 0.9825(6) 0.1537(5) 0.0000
H3_5 H 0.9665 0.0882 0.0000
C6_6 C 0.9733(5) 0.6527(4) 1.0000
H2_6 H 0.9573 0.5873 1.0000
C7_4 C 0.9801(4) 0.6399(3) 0.8610(2)
C8_4 C 0.9849(3) 0.6999(3) 0.9317(2)
O5_4 O 0.9171(3) 0.5775(3) 0.8541(2)
C15_6 C 0.9825(6) 0.1537(5) 1.0000
H3_6 H 0.9665 0.0882 1.0000
C19_4 C 0.9941(3) 0.2008(3) 0.9320(2)
C20_4 C 0.9863(5) 0.1403(4) 0.8609(3)
O14_4 O 0.9540(3) 0.3497(3) 0.8125(2)
loop_
_geom_bond_atom_site_label_1
_geom_bond_atom_site_label_2
_geom_bond_site_symmetry_1
_geom_bond_site_symmetry_2
C1 C2 1_555 1_555
C2 C3 1_555 1_555
C3 C4 1_555 1_555
C4 O3 1_555 1_555
C5 C3 1_555 1_555
H1 C5 1_555 1_555
C6 C2 1_555 1_555
H2 C6 1_555 1_555
Cd1 O1 1_555 1_555
Cd2 O3 1_555 1_555
O1 C1 1_555 1_555
O2 C1 1_555 1_555
O4 C4 1_555 1_555
C7 C8 1_555 1_555
C8 C6 1_555 1_555
C9 C5 1_555 1_555
C10 C9 1_555 1_555
O5 C7 1_555 1_555
O6 C7 1_555 1_555
O7 C10 1_555 1_555
O8 C10 1_555 1_555
Cd3 O5 1_555 1_555
Cd6 O7 1_555 1_555
O18 Cd1 1_555 1_555
O19 Cd1 1_555 1_555
O21 Cd2 1_555 1_555
O22 Cd2 1_555 1_555
O23 Cd2 1_555 1_555
O24 Cd2 1_555 1_555
O25 Cd2 1_555 1_555
O26 Cd2 1_555 1_555
Cd1 O2 1_555 1_555
Cd2 O4 1_555 1_555
C8 C9 1_555 1_555
O6 Cd3 1_555 1_555
O8 Cd6 1_555 1_555
C11 C12 1_555 1_555
C12 C13 1_555 1_555
C13 C14 1_555 1_555
C14 O21 1_555 1_555
C15 C13 1_555 1_555
H3 C15 1_555 1_555
C16 C12 1_555 1_555
H4 C16 1_555 1_555
O9 Cd1_2 1_555 1_555
O10 Cd1_2 1_555 1_555
O24 C14 1_555 1_555
C17 C18 1_555 1_555
C18 C16 1_555 1_555
C19 C15 1_555 1_555
C20 C19 1_555 1_555
O13 C17 1_555 1_555
O14 C17 1_555 1_555
O15 C20 1_555 1_555
O16 C20 1_555 1_555
Cd6 O15 1_555 1_555
O17 Cd1_2 1_555 1_555
O20 Cd1_2 1_555 1_555
C11 O9 1_555 1_555
C11 O10 1_555 1_555
C18 C19 1_555 1_555
O13 Cd3_2 1_555 1_555
O14 Cd3_2 1_555 1_555
O16 Cd6 1_555 1_555
H1_2 C5_2 1_555 1_555
H2_2 C6_2 1_555 1_555
C7_2 C8_2 1_555 1_555
C8_2 C6_2 1_555 1_555
C9_2 C5_2 1_555 1_555
C10_2 C9_2 1_555 1_555
O5_2 C7_2 1_555 1_555
O6_2 C7_2 1_555 1_555
O23 C10_2 1_555 1_555
O26 C10_2 1_555 1_555
Cd3_3 O5_2 1_555 1_555
C8_2 C9_2 1_555 1_555
O6_2 Cd3_3 1_555 1_555
C1_2 C2_2 1_555 1_555
C2_2 C3_2 1_555 1_555
C3_2 C4_2 1_555 1_555
C4_2 O3_2 1_555 1_555
C5_3 C3_2 1_555 1_555
H1_3 C5_3 1_555 1_555
C6_3 C2_2 1_555 1_555
H2_3 C6_3 1_555 1_555
Cd1_3 O1_2 1_555 1_555
Cd6 O3_2 1_555 1_555
O1_2 C1_2 1_555 1_555
O2_2 C1_2 1_555 1_555
O4_2 C4_2 1_555 1_555
O18_2 Cd1_3 1_555 1_555
O19_2 Cd1_3 1_555 1_555
O21_2 Cd6 1_555 1_555
O24_2 Cd6 1_555 1_555
Cd1_3 O2_2 1_555 1_555
Cd6 O4_2 1_555 1_555
H3_2 C15_2 1_555 1_555
H4_2 C16_2 1_555 1_555
C17_2 C18_2 1_555 1_555
C18_2 C16_2 1_555 1_555
C19_2 C15_2 1_555 1_555
C20_2 C19_2 1_555 1_555
O13_2 C17_2 1_555 1_555
O14_2 C17_2 1_555 1_555
O22 C20_2 1_555 1_555
O25 C20_2 1_555 1_555
C18_2 C19_2 1_555 1_555
O13_2 Cd3_4 1_555 1_555
O14_2 Cd3_4 1_555 1_555
C11_2 C12_2 1_555 1_555
C12_2 C13_2 1_555 1_555
C13_2 C14_2 1_555 1_555
C14_2 O21_2 1_555 1_555
C15_3 C13_2 1_555 1_555
H3_3 C15_3 1_555 1_555
C16_3 C12_2 1_555 1_555
H4_3 C16_3 1_555 1_555
O9_2 Cd1_4 1_555 1_555
O10_2 Cd1_4 1_555 1_555
O24_2 C14_2 1_555 1_555
O17_2 Cd1_4 1_555 1_555
O20_2 Cd1_4 1_555 1_555
C11_2 O9_2 1_555 1_555
C11_2 O10_2 1_555 1_555
C3_3 C4_3 1_555 1_555
C5_4 C3_3 1_555 1_555
H1_4 C5_4 1_555 1_555
O4_3 C4_3 1_555 1_555
C9_3 C5_4 1_555 1_555
C10_3 C9_3 1_555 1_555
O8_2 C10_3 1_555 1_555
C11_3 C12_3 1_555 1_555
C16_4 C12_3 1_555 1_555
H4_4 C16_4 1_555 1_555
O11 Cd4_3 1_555 1_555
C17_3 C18_3 1_555 1_555
C18_3 C16_4 1_555 1_555
O13_3 C17_3 1_555 1_555
Cd5_3 O15_2 1_555 1_555
O22_2 Cd4 1_555 1_555
Cd4 O4_3 1_555 1_555
O6_3 Cd3_3 1_555 1_555
O8_2 Cd5 1_555 1_555
C11_3 O18_2 1_555 1_555
O13_3 Cd3_3 1_555 1_555
C1_3 C2_3 1_555 1_555
C6_4 C2_3 1_555 1_555
H2_4 C6_4 1_555 1_555
Cd4_2 O3_3 1_555 1_555
O17_2 C1_3 1_555 1_555
C7_3 C8_3 1_555 1_555
C8_3 C6_4 1_555 1_555
O5_3 C7_3 1_555 1_555
C13_3 C14_3 1_555 1_555
C15_4 C13_3 1_555 1_555
H3_4 C15_4 1_555 1_555
O12 C14_3 1_555 1_555
C19_3 C15_4 1_555 1_555
C20_3 C19_3 1_555 1_555
O16_2 C20_3 1_555 1_555
Cd3_4 O5_3 1_555 1_555
Cd4_4 O12 1_555 1_555
Cd5_2 O7_2 1_555 1_555
O26_2 Cd4_2 1_555 1_555
O14_3 Cd3_4 1_555 1_555
O16_2 Cd5_4 1_555 1_555
O25_2 Cd4_3 1_555 1_555
O23_2 Cd4_4 1_555 1_555
O21_3 Cd5 1_555 1_555
C3_4 C4_4 1_555 1_555
C5_5 C3_4 1_555 1_555
H1_5 C5_5 1_555 1_555
O4_4 C4_4 1_555 1_555
C11_4 C12_4 1_555 1_555
C16_5 C12_4 1_555 1_555
H4_5 C16_5 1_555 1_555
Cd5_2 O4_4 1_555 1_555
C11_4 O18 1_555 1_555
H1_6 C5_6 1_555 1_555
C9_4 C5_6 1_555 1_555
C10_4 C9_4 1_555 1_555
O26_2 C10_4 1_555 1_555
H4_6 C16_6 1_555 1_555
C17_4 C18_4 1_555 1_555
C18_4 C16_6 1_555 1_555
O13_4 C17_4 1_555 1_555
O6_4 Cd3 1_555 1_555
O13_4 Cd3 1_555 1_555
O24_3 Cd5_3 1_555 1_555
C1_4 C2_4 1_555 1_555
C6_5 C2_4 1_555 1_555
H2_5 C6_5 1_555 1_555
Cd5_4 O3_4 1_555 1_555
O17 C1_4 1_555 1_555
C13_4 C14_4 1_555 1_555
C15_5 C13_4 1_555 1_555
H3_5 C15_5 1_555 1_555
O24_3 C14_4 1_555 1_555
H2_6 C6_6 1_555 1_555
C7_4 C8_4 1_555 1_555
C8_4 C6_6 1_555 1_555
O5_4 C7_4 1_555 1_555
H3_6 C15_6 1_555 1_555
C19_4 C15_6 1_555 1_555
C20_4 C19_4 1_555 1_555
O25_2 C20_4 1_555 1_555
Cd3_2 O5_4 1_555 1_555
O14_4 Cd3_2 1_555 1_555

#END
