
###############################################################################
#
# This file contains modified crystal structure data generated from the
# MOF subset of the Cambridge Structural Database (CSD) v543 
# hosted by the Cambridge Crystallographic Data Centre (CCDC).
#
# This work is licensed under the Creative Commons
# Attribution-NonCommercial-ShareAlike 4.0 International License.
# To view a copy of this license, visit
# http://creativecommons.org/licenses/by-nc-sa/4.0/
# or send a letter to
# Creative Commons, PO Box 1866, Mountain View, CA 94042, USA.
#
# CIF created using the CSD Python API on 29 September 2022
# The structure has been converted into the P1 space group
# The structure has a 3D framework
# The original CSD entry CUKXOW is in the monoclinic crystal system
# The framework has been calculated to contain at least 10.0% void space
# The void calculation uses a probe of radius 1.32A, grid spacing 0.4
# H atom positions have been added when not included in the experimental data
#
###############################################################################

data_CUKXOW
_chemical_formula_moiety         '(C62 H80 N28 O64 Tb8)n'
_symmetry_cell_setting           triclinic
_symmetry_space_group_name_H-M   'P 1'
_symmetry_Int_Tables_number      1
_space_group_name_Hall           'P 1'
loop_
_symmetry_equiv_pos_site_id
_symmetry_equiv_pos_as_xyz
1 x,y,z
_cell_length_a                   12.750(4)
_cell_length_b                   16.808(6)
_cell_length_c                   19.318(5)
_cell_angle_alpha                90
_cell_angle_beta                 130.350(14)
_cell_angle_gamma                90
_cell_volume                     3155.02
loop_
_atom_site_label
_atom_site_type_symbol
_atom_site_fract_x
_atom_site_fract_y
_atom_site_fract_z
Tb1 Tb 0.433932(15) 0.448892(9) 0.557543(10)
O1 O 0.2119(3) 0.51122(18) 0.43596(18)
O2 O 0.3642(3) 0.53292(16) 0.42060(18)
O3 O 0.4045(3) 0.36638(16) 0.44634(17)
O4 O 0.4886(3) 0.42133(16) 0.38543(19)
O5 O 0.0926(3) 0.07631(17) 0.21984(19)
O6 O 0.0661(3) 0.17655(17) 0.13819(18)
O7 O 0.2654(3) 0.34255(18) 0.5053(2)
O8 O 0.3243(3) 0.47926(19) 0.6195(2)
N1 N 0.1096(3) 0.39958(18) 0.2690(2)
N2 N -0.0000 0.2765(3) 0.2500
N3 N -0.0000 0.5164(3) 0.2500
N4 N 0.2131(3) 0.27905(18) 0.2910(2)
C1 C -0.0000 0.4356(3) 0.2500
C2 C 0.1035(4) 0.3201(2) 0.2692(2)
C3 C 0.1274(4) 0.5577(2) 0.2896(3)
H1 H 0.1129 0.6146 0.2873
H2 H 0.1558 0.5463 0.2547
C4 C 0.2411(4) 0.5321(2) 0.3884(2)
C5 C 0.3219(4) 0.3209(2) 0.3013(2)
H3 H 0.2806 0.3537 0.2479
H4 H 0.3803 0.2821 0.3036
C6 C 0.4117(4) 0.3737(2) 0.3851(2)
C7 C 0.2177(4) 0.1936(2) 0.3016(2)
H5 H 0.1981 0.1811 0.3412
H6 H 0.3105 0.1754 0.3314
C8 C 0.1188(4) 0.1480(2) 0.2140(2)
Tb3 Tb 0.566068(15) 0.551108(9) 0.442457(10)
Tb6 Tb 0.066068(15) 0.051108(9) 0.442457(10)
O11 O 0.6358(3) 0.46708(16) 0.57940(18)
O15 O 0.5114(3) 0.57867(16) 0.61457(19)
O18 O 0.5926(3) 0.42369(17) 0.71984(19)
O21 O 0.5661(3) 0.32345(17) 0.63819(18)
H13 H 0.235082 0.45065 0.584331
H14 H 0.384774 0.462179 0.684022
H15 H 0.214504 0.331765 0.439975
H16 H 0.31391 0.293518 0.541093
N2_2 N 1.0000 0.2765(3) 0.2500
N3_2 N 1.0000 0.5164(3) 0.2500
C1_2 C 1.0000 0.4356(3) 0.2500
Tb4 Tb 0.933932(15) 0.051108(9) 0.057543(10)
Tb5 Tb 0.433932(15) 0.551108(9) 0.057543(10)
O9 O 0.7881(3) 0.51122(18) 0.06404(18)
O10 O 0.6358(3) 0.53292(16) 0.07940(18)
O13 O 0.5955(3) 0.36638(16) 0.05366(17)
O14 O 0.5114(3) 0.42133(16) 0.11457(19)
O17 O 0.9074(3) 0.07631(17) 0.28016(19)
O20 O 0.9339(3) 0.17655(17) 0.36181(18)
N5 N 0.8904(3) 0.39958(18) 0.2310(2)
N6 N 0.7869(3) 0.27905(18) 0.2090(2)
C9 C 0.8965(4) 0.3201(2) 0.2308(2)
C10 C 0.8726(4) 0.5577(2) 0.2104(3)
H7 H 0.8871 0.6146 0.2127
H8 H 0.8442 0.5463 0.2453
C11 C 0.7589(4) 0.5321(2) 0.1116(2)
C12 C 0.6781(4) 0.3209(2) 0.1987(2)
H9 H 0.7194 0.3537 0.2521
H10 H 0.6197 0.2821 0.1964
C13 C 0.5883(4) 0.3737(2) 0.1149(2)
C14 C 0.7823(4) 0.1936(2) 0.1984(2)
H11 H 0.8019 0.1811 0.1588
H12 H 0.6895 0.1754 0.1686
C15 C 0.8812(4) 0.1480(2) 0.2860(2)
H17 H 0.785496 0.331765 0.0600246
Tb2 Tb 0.566068(15) 0.448892(9) 0.942457(10)
O12 O 0.3642(3) 0.46708(16) 0.92060(18)
O16 O 0.4886(3) 0.57867(16) 0.88543(19)
O19 O 0.4074(3) 0.42369(17) 0.78016(19)
O22 O 0.4339(3) 0.32345(17) 0.86181(18)
O23 O 0.7346(3) 0.34255(18) 0.9947(2)
O24 O 0.6757(3) 0.47926(19) 0.8805(2)
H18 H 0.68609 0.293518 0.958907
H19 H 0.764918 0.45065 0.915669
H20 H 0.615226 0.462179 0.815978
O15_2 O 0.0114(3) 0.07867(16) 0.61457(19)
O11_2 O 0.1358(3) 0.96708(16) 0.57940(18)
O18_2 O 0.0926(3) 0.92369(17) 0.71984(19)
O21_2 O 0.0661(3) 0.82345(17) 0.63819(18)
O1_2 O 0.7119(3) 0.01122(18) 0.43596(18)
O2_2 O 0.8642(3) 0.03292(16) 0.42060(18)
N3_3 N 0.5000 0.0164(3) 0.2500
C3_2 C 0.6274(4) 0.0577(2) 0.2896(3)
H1_2 H 0.6129 0.1146 0.2873
H2_2 H 0.6558 0.0463 0.2547
C4_2 C 0.7411(4) 0.0321(2) 0.3884(2)
O9_2 O 0.2881(3) 0.01122(18) 0.06404(18)
O10_2 O 0.1358(3) 0.03292(16) 0.07940(18)
C10_2 C 0.3726(4) 0.0577(2) 0.2104(3)
H7_2 H 0.3871 0.1146 0.2127
H8_2 H 0.3442 0.0463 0.2453
C11_2 C 0.2589(4) 0.0321(2) 0.1116(2)
Tb1_2 Tb 0.933932(15) 0.948892(9) 0.557543(10)
O3_2 O 0.9045(3) 0.86638(16) 0.44634(17)
O4_2 O 0.9886(3) 0.92133(16) 0.38543(19)
O5_2 O 0.5926(3) 0.57631(17) 0.21984(19)
O6_2 O 0.5661(3) 0.67655(17) 0.13819(18)
O7_2 O 0.7654(3) 0.84255(18) 0.5053(2)
O8_2 O 0.8243(3) 0.97926(19) 0.6195(2)
N1_2 N 0.6096(3) 0.89958(18) 0.2690(2)
N2_3 N 0.5000 0.7765(3) 0.2500
N4_2 N 0.7131(3) 0.77905(18) 0.2910(2)
C1_3 C 0.5000 0.9356(3) 0.2500
C2_2 C 0.6035(4) 0.8201(2) 0.2692(2)
C5_2 C 0.8219(4) 0.8209(2) 0.3013(2)
H3_2 H 0.7806 0.8537 0.2479
H4_2 H 0.8803 0.7821 0.3036
C6_2 C 0.9117(4) 0.8737(2) 0.3851(2)
C7_2 C 0.7177(4) 0.6936(2) 0.3016(2)
H5_2 H 0.6981 0.6811 0.3412
H6_2 H 0.8105 0.6754 0.3314
C8_2 C 0.6188(4) 0.6480(2) 0.2140(2)
O13_2 O 0.0955(3) 0.86638(16) 0.05366(17)
O14_2 O 0.0114(3) 0.92133(16) 0.11457(19)
O17_2 O 0.4074(3) 0.57631(17) 0.28016(19)
O20_2 O 0.4339(3) 0.67655(17) 0.36181(18)
N5_2 N 0.3904(3) 0.89958(18) 0.2310(2)
N6_2 N 0.2869(3) 0.77905(18) 0.2090(2)
C9_2 C 0.3965(4) 0.8201(2) 0.2308(2)
C12_2 C 0.1781(4) 0.8209(2) 0.1987(2)
H9_2 H 0.2194 0.8537 0.2521
H10_2 H 0.1197 0.7821 0.1964
C13_2 C 0.0883(4) 0.8737(2) 0.1149(2)
C14_2 C 0.2823(4) 0.6936(2) 0.1984(2)
H11_2 H 0.3019 0.6811 0.1588
H12_2 H 0.1895 0.6754 0.1686
C15_2 C 0.3812(4) 0.6480(2) 0.2860(2)
H13_2 H 0.735082 0.95065 0.584331
H14_2 H 0.884774 0.962179 0.684022
H15_2 H 0.714504 0.831765 0.439975
H16_2 H 0.81391 0.793518 0.541093
H17_2 H 0.285496 0.831765 0.0600246
Tb2_2 Tb 0.066068(15) 0.948892(9) 0.942457(10)
O23_2 O 0.2346(3) 0.84255(18) 0.9947(2)
O24_2 O 0.1757(3) 0.97926(19) 0.8805(2)
H18_2 H 0.18609 0.793518 0.958907
H19_2 H 0.264918 0.95065 0.915669
H20_2 H 0.115226 0.962179 0.815978
O16_2 O 0.9886(3) 0.07867(16) 0.88543(19)
O12_2 O 0.8642(3) 0.96708(16) 0.92060(18)
O19_2 O 0.9074(3) 0.92369(17) 0.78016(19)
O22_2 O 0.9339(3) 0.82345(17) 0.86181(18)
O23_3 O 0.2654(3) 0.65745(18) 0.0053(2)
O24_3 O 0.3243(3) 0.52074(19) 0.1195(2)
H18_3 H 0.31391 0.706482 0.0410933
H19_3 H 0.235082 0.54935 0.0843309
H20_3 H 0.384774 0.537821 0.184022
N2_4 N -0.0000 0.7235(3) 0.7500
N3_4 N 0.0000 0.4836(3) 0.7500
C1_4 C 0.0000 0.5644(3) 0.7500
O9_3 O 0.2119(3) 0.48878(18) 0.93596(18)
O13_3 O 0.4045(3) 0.63362(16) 0.94634(17)
N5_3 N 0.1096(3) 0.60042(18) 0.7690(2)
N6_3 N 0.2131(3) 0.72095(18) 0.7910(2)
C9_3 C 0.1035(4) 0.6799(2) 0.7692(2)
C10_3 C 0.1274(4) 0.4423(2) 0.7896(3)
H7_3 H 0.1129 0.3854 0.7873
H8_3 H 0.1558 0.4537 0.7547
C11_3 C 0.2411(4) 0.4679(2) 0.8884(2)
C12_3 C 0.3219(4) 0.6791(2) 0.8013(2)
H9_3 H 0.2806 0.6463 0.7479
H10_3 H 0.3803 0.7179 0.8036
C13_3 C 0.4117(4) 0.6263(2) 0.8851(2)
C14_3 C 0.2177(4) 0.8064(2) 0.8016(2)
H11_3 H 0.1981 0.8189 0.8412
H12_3 H 0.3105 0.8246 0.8314
C15_3 C 0.1188(4) 0.8520(2) 0.7140(2)
H17_3 H 0.214504 0.668235 0.939975
O1_3 O 0.7881(3) 0.48878(18) 0.56404(18)
O3_3 O 0.5955(3) 0.63362(16) 0.55366(17)
O7_3 O 0.7346(3) 0.65745(18) 0.4947(2)
O8_3 O 0.6757(3) 0.52074(19) 0.3805(2)
N1_3 N 0.8904(3) 0.60042(18) 0.7310(2)
N2_5 N 1.0000 0.7235(3) 0.7500
N3_5 N 1.0000 0.4836(3) 0.7500
N4_3 N 0.7869(3) 0.72095(18) 0.7090(2)
C1_5 C 1.0000 0.5644(3) 0.7500
C2_3 C 0.8965(4) 0.6799(2) 0.7308(2)
C3_3 C 0.8726(4) 0.4423(2) 0.7104(3)
H1_3 H 0.8871 0.3854 0.7127
H2_3 H 0.8442 0.4537 0.7453
C4_3 C 0.7589(4) 0.4679(2) 0.6116(2)
C5_3 C 0.6781(4) 0.6791(2) 0.6987(2)
H3_3 H 0.7194 0.6463 0.7521
H4_3 H 0.6197 0.7179 0.6964
C6_3 C 0.5883(4) 0.6263(2) 0.6149(2)
C7_3 C 0.7823(4) 0.8064(2) 0.6984(2)
H5_3 H 0.8019 0.8189 0.6588
H6_3 H 0.6895 0.8246 0.6686
C8_3 C 0.8812(4) 0.8520(2) 0.7860(2)
H13_3 H 0.764918 0.54935 0.415669
H14_3 H 0.615226 0.537821 0.315978
H15_3 H 0.785496 0.668235 0.560025
H16_3 H 0.68609 0.706482 0.458907
O23_4 O 0.7654(3) 0.15745(18) 0.0053(2)
O24_4 O 0.8243(3) 0.02074(19) 0.1195(2)
H18_4 H 0.81391 0.206482 0.0410933
H19_4 H 0.735082 0.0493504 0.0843309
H20_4 H 0.884774 0.0378209 0.184022
O3_4 O 0.0955(3) 0.13362(16) 0.55366(17)
O7_4 O 0.2346(3) 0.15745(18) 0.4947(2)
O8_4 O 0.1757(3) 0.02074(19) 0.3805(2)
N1_4 N 0.3904(3) 0.10042(18) 0.7310(2)
N2_6 N 0.5000 0.2235(3) 0.7500
N4_4 N 0.2869(3) 0.22095(18) 0.7090(2)
C1_6 C 0.5000 0.0644(3) 0.7500
C2_4 C 0.3965(4) 0.1799(2) 0.7308(2)
C5_4 C 0.1781(4) 0.1791(2) 0.6987(2)
H3_4 H 0.2194 0.1463 0.7521
H4_4 H 0.1197 0.2179 0.6964
C6_4 C 0.0883(4) 0.1263(2) 0.6149(2)
C7_4 C 0.2823(4) 0.3064(2) 0.6984(2)
H5_4 H 0.3019 0.3189 0.6588
H6_4 H 0.1895 0.3246 0.6686
C8_4 C 0.3812(4) 0.3520(2) 0.7860(2)
O13_4 O 0.9045(3) 0.13362(16) 0.94634(17)
N5_4 N 0.6096(3) 0.10042(18) 0.7690(2)
N6_4 N 0.7131(3) 0.22095(18) 0.7910(2)
C9_4 C 0.6035(4) 0.1799(2) 0.7692(2)
C12_4 C 0.8219(4) 0.1791(2) 0.8013(2)
H9_4 H 0.7806 0.1463 0.7479
H10_4 H 0.8803 0.2179 0.8036
C13_4 C 0.9117(4) 0.1263(2) 0.8851(2)
C14_4 C 0.7177(4) 0.3064(2) 0.8016(2)
H11_4 H 0.6981 0.3189 0.8412
H12_4 H 0.8105 0.3246 0.8314
C15_4 C 0.6188(4) 0.3520(2) 0.7140(2)
H13_4 H 0.264918 0.0493504 0.415669
H14_4 H 0.115226 0.0378209 0.315978
H15_4 H 0.285496 0.168235 0.560025
H16_4 H 0.18609 0.206482 0.458907
H17_4 H 0.714504 0.168235 0.939975
O1_4 O 0.2881(3) 0.98878(18) 0.56404(18)
N3_6 N 0.5000 0.9836(3) 0.7500
C3_4 C 0.3726(4) 0.9423(2) 0.7104(3)
H1_4 H 0.3871 0.8854 0.7127
H2_4 H 0.3442 0.9537 0.7453
C4_4 C 0.2589(4) 0.9679(2) 0.6116(2)
O9_4 O 0.7119(3) 0.98878(18) 0.93596(18)
C10_4 C 0.6274(4) 0.9423(2) 0.7896(3)
H7_4 H 0.6129 0.8854 0.7873
H8_4 H 0.6558 0.9537 0.7547
C11_4 C 0.7411(4) 0.9679(2) 0.8884(2)
loop_
_geom_bond_atom_site_label_1
_geom_bond_atom_site_label_2
_geom_bond_site_symmetry_1
_geom_bond_site_symmetry_2
Tb1 O1 1_555 1_555
O1 C4 1_555 1_555
O2 Tb1 1_555 1_555
O3 Tb1 1_555 1_555
O4 C6 1_555 1_555
O5 C8 1_555 1_555
O6 C8 1_555 1_555
O7 Tb1 1_555 1_555
O8 Tb1 1_555 1_555
N1 C1 1_555 1_555
N2 C2 1_555 1_555
N3 C1 1_555 1_555
N4 C2 1_555 1_555
C2 N1 1_555 1_555
C3 N3 1_555 1_555
H1 C3 1_555 1_555
H2 C3 1_555 1_555
C4 O2 1_555 1_555
C5 N4 1_555 1_555
H3 C5 1_555 1_555
H4 C5 1_555 1_555
C6 O3 1_555 1_555
C7 N4 1_555 1_555
H5 C7 1_555 1_555
H6 C7 1_555 1_555
C8 C7 1_555 1_555
Tb3 O2 1_555 1_555
O11 Tb1 1_555 1_555
O15 Tb1 1_555 1_555
O18 Tb1 1_555 1_555
O21 Tb1 1_555 1_555
O4 Tb3 1_555 1_555
C3 C4 1_555 1_555
C5 C6 1_555 1_555
Tb3 O11 1_555 1_555
O8 H13 1_555 1_555
O8 H14 1_555 1_555
O7 H15 1_555 1_555
O7 H16 1_555 1_555
N3_2 C1_2 1_555 1_555
C1_2 N5 1_555 1_555
Tb5 O10 1_555 1_555
O9 C11 1_555 1_555
O14 Tb5 1_555 1_555
O17 C15 1_555 1_555
N5 C9 1_555 1_555
N6 C9 1_555 1_555
C9 N2_2 1_555 1_555
C10 N3_2 1_555 1_555
H7 C10 1_555 1_555
H8 C10 1_555 1_555
C11 O10 1_555 1_555
C12 N6 1_555 1_555
H9 C12 1_555 1_555
H10 C12 1_555 1_555
C13 O13 1_555 1_555
C14 N6 1_555 1_555
H11 C14 1_555 1_555
H12 C14 1_555 1_555
C15 O20 1_555 1_555
O14 C13 1_555 1_555
C10 C11 1_555 1_555
C12 C13 1_555 1_555
C14 C15 1_555 1_555
O12 Tb2 1_555 1_555
O16 Tb2 1_555 1_555
O19 Tb2 1_555 1_555
O22 Tb2 1_555 1_555
O23 Tb2 1_555 1_555
O24 Tb2 1_555 1_555
O23 H18 1_555 1_555
O24 H19 1_555 1_555
O24 H20 1_555 1_555
O1_2 C4_2 1_555 1_555
C3_2 N3_3 1_555 1_555
H1_2 C3_2 1_555 1_555
H2_2 C3_2 1_555 1_555
C4_2 O2_2 1_555 1_555
O9_2 C11_2 1_555 1_555
C10_2 N3_3 1_555 1_555
H7_2 C10_2 1_555 1_555
H8_2 C10_2 1_555 1_555
C11_2 O10_2 1_555 1_555
C3_2 C4_2 1_555 1_555
C10_2 C11_2 1_555 1_555
O3_2 Tb1_2 1_555 1_555
O4_2 C6_2 1_555 1_555
O5_2 C8_2 1_555 1_555
O6_2 C8_2 1_555 1_555
O7_2 Tb1_2 1_555 1_555
O8_2 Tb1_2 1_555 1_555
N1_2 C1_3 1_555 1_555
N2_3 C2_2 1_555 1_555
N4_2 C2_2 1_555 1_555
C1_3 N5_2 1_555 1_555
C2_2 N1_2 1_555 1_555
C5_2 N4_2 1_555 1_555
H3_2 C5_2 1_555 1_555
H4_2 C5_2 1_555 1_555
C6_2 O3_2 1_555 1_555
C7_2 N4_2 1_555 1_555
H5_2 C7_2 1_555 1_555
H6_2 C7_2 1_555 1_555
C8_2 C7_2 1_555 1_555
Tb5 O5_2 1_555 1_555
Tb3 O17_2 1_555 1_555
O17_2 C15_2 1_555 1_555
O20_2 Tb3 1_555 1_555
N5_2 C9_2 1_555 1_555
N6_2 C9_2 1_555 1_555
C9_2 N2_3 1_555 1_555
C12_2 N6_2 1_555 1_555
H9_2 C12_2 1_555 1_555
H10_2 C12_2 1_555 1_555
C13_2 O13_2 1_555 1_555
C14_2 N6_2 1_555 1_555
H11_2 C14_2 1_555 1_555
H12_2 C14_2 1_555 1_555
C15_2 O20_2 1_555 1_555
O6_2 Tb5 1_555 1_555
C5_2 C6_2 1_555 1_555
O14_2 C13_2 1_555 1_555
C12_2 C13_2 1_555 1_555
C14_2 C15_2 1_555 1_555
O8_2 H13_2 1_555 1_555
O8_2 H14_2 1_555 1_555
O7_2 H15_2 1_555 1_555
O7_2 H16_2 1_555 1_555
O23_2 Tb2_2 1_555 1_555
O24_2 Tb2_2 1_555 1_555
O23_2 H18_2 1_555 1_555
O24_2 H19_2 1_555 1_555
O24_2 H20_2 1_555 1_555
O23_3 Tb5 1_555 1_555
O24_3 Tb5 1_555 1_555
O23_3 H18_3 1_555 1_555
O24_3 H19_3 1_555 1_555
O24_3 H20_3 1_555 1_555
N3_4 C1_4 1_555 1_555
C1_4 N5_3 1_555 1_555
O9_3 C11_3 1_555 1_555
O18_2 C15_3 1_555 1_555
N5_3 C9_3 1_555 1_555
N6_3 C9_3 1_555 1_555
C9_3 N2_4 1_555 1_555
C10_3 N3_4 1_555 1_555
H7_3 C10_3 1_555 1_555
H8_3 C10_3 1_555 1_555
C11_3 O12 1_555 1_555
C12_3 N6_3 1_555 1_555
H9_3 C12_3 1_555 1_555
H10_3 C12_3 1_555 1_555
C13_3 O13_3 1_555 1_555
C14_3 N6_3 1_555 1_555
H11_3 C14_3 1_555 1_555
H12_3 C14_3 1_555 1_555
C15_3 O21_2 1_555 1_555
O16 C13_3 1_555 1_555
C10_3 C11_3 1_555 1_555
C12_3 C13_3 1_555 1_555
C14_3 C15_3 1_555 1_555
Tb3 O1_3 1_555 1_555
O1_3 C4_3 1_555 1_555
O3_3 Tb3 1_555 1_555
O15 C6_3 1_555 1_555
O19_2 C8_3 1_555 1_555
O22_2 C8_3 1_555 1_555
O7_3 Tb3 1_555 1_555
O8_3 Tb3 1_555 1_555
N1_3 C1_5 1_555 1_555
N2_5 C2_3 1_555 1_555
N3_5 C1_5 1_555 1_555
N4_3 C2_3 1_555 1_555
C2_3 N1_3 1_555 1_555
C3_3 N3_5 1_555 1_555
H1_3 C3_3 1_555 1_555
H2_3 C3_3 1_555 1_555
C4_3 O11 1_555 1_555
C5_3 N4_3 1_555 1_555
H3_3 C5_3 1_555 1_555
H4_3 C5_3 1_555 1_555
C6_3 O3_3 1_555 1_555
C7_3 N4_3 1_555 1_555
H5_3 C7_3 1_555 1_555
H6_3 C7_3 1_555 1_555
C8_3 C7_3 1_555 1_555
C3_3 C4_3 1_555 1_555
C5_3 C6_3 1_555 1_555
O8_3 H13_3 1_555 1_555
O8_3 H14_3 1_555 1_555
O7_3 H15_3 1_555 1_555
O7_3 H16_3 1_555 1_555
O23_4 Tb4 1_555 1_555
O24_4 Tb4 1_555 1_555
O23_4 H18_4 1_555 1_555
O24_4 H19_4 1_555 1_555
O24_4 H20_4 1_555 1_555
O3_4 Tb6 1_555 1_555
O15_2 C6_4 1_555 1_555
O19 C8_4 1_555 1_555
O22 C8_4 1_555 1_555
O7_4 Tb6 1_555 1_555
O8_4 Tb6 1_555 1_555
N1_4 C1_6 1_555 1_555
N2_6 C2_4 1_555 1_555
N4_4 C2_4 1_555 1_555
C1_6 N5_4 1_555 1_555
C2_4 N1_4 1_555 1_555
C5_4 N4_4 1_555 1_555
H3_4 C5_4 1_555 1_555
H4_4 C5_4 1_555 1_555
C6_4 O3_4 1_555 1_555
C7_4 N4_4 1_555 1_555
H5_4 C7_4 1_555 1_555
H6_4 C7_4 1_555 1_555
C8_4 C7_4 1_555 1_555
O18 C15_4 1_555 1_555
N5_4 C9_4 1_555 1_555
N6_4 C9_4 1_555 1_555
C9_4 N2_6 1_555 1_555
C12_4 N6_4 1_555 1_555
H9_4 C12_4 1_555 1_555
H10_4 C12_4 1_555 1_555
C13_4 O13_4 1_555 1_555
C14_4 N6_4 1_555 1_555
H11_4 C14_4 1_555 1_555
H12_4 C14_4 1_555 1_555
C15_4 O21 1_555 1_555
C5_4 C6_4 1_555 1_555
O16_2 C13_4 1_555 1_555
C12_4 C13_4 1_555 1_555
C14_4 C15_4 1_555 1_555
O8_4 H13_4 1_555 1_555
O8_4 H14_4 1_555 1_555
O7_4 H15_4 1_555 1_555
O7_4 H16_4 1_555 1_555
O1_4 C4_4 1_555 1_555
C3_4 N3_6 1_555 1_555
H1_4 C3_4 1_555 1_555
H2_4 C3_4 1_555 1_555
C4_4 O11_2 1_555 1_555
O9_4 C11_4 1_555 1_555
C10_4 N3_6 1_555 1_555
H7_4 C10_4 1_555 1_555
H8_4 C10_4 1_555 1_555
C11_4 O12_2 1_555 1_555
C3_4 C4_4 1_555 1_555
C10_4 C11_4 1_555 1_555

#END
