
###############################################################################
#
# This file contains modified crystal structure data generated from the
# MOF subset of the Cambridge Structural Database (CSD) v543 
# hosted by the Cambridge Crystallographic Data Centre (CCDC).
#
# This work is licensed under the Creative Commons
# Attribution-NonCommercial-ShareAlike 4.0 International License.
# To view a copy of this license, visit
# http://creativecommons.org/licenses/by-nc-sa/4.0/
# or send a letter to
# Creative Commons, PO Box 1866, Mountain View, CA 94042, USA.
#
# CIF created using the CSD Python API on 29 September 2022
# The structure has been converted into the P1 space group
# The structure has a 3D framework
# The original CSD entry CUKYAJ is in the monoclinic crystal system
# The framework has been calculated to contain at least 10.0% void space
# The void calculation uses a probe of radius 1.32A, grid spacing 0.4
# H atom positions have been added when not included in the experimental data
#
###############################################################################

data_CUKYAJ
_chemical_formula_moiety         '(C62 H80 Dy8 N28 O64)n'
_symmetry_cell_setting           triclinic
_symmetry_space_group_name_H-M   'P 1'
_symmetry_Int_Tables_number      1
_space_group_name_Hall           'P 1'
loop_
_symmetry_equiv_pos_site_id
_symmetry_equiv_pos_as_xyz
1 x,y,z
_cell_length_a                   12.748(4)
_cell_length_b                   16.844(6)
_cell_length_c                   14.802(6)
_cell_angle_alpha                90
_cell_angle_beta                 90.989(7)
_cell_angle_gamma                90
_cell_volume                     3177.92
loop_
_atom_site_label
_atom_site_type_symbol
_atom_site_fract_x
_atom_site_fract_y
_atom_site_fract_z
Dy1 Dy 0.37485(3) 0.19842(2) 0.55709(2)
O1 O 0.3078(4) 0.2831(3) 0.4199(4)
O2 O 0.4758(5) 0.2637(4) 0.4349(4)
O3 O 0.1472(5) 0.1707(3) 0.3849(4)
O4 O 0.2911(4) 0.1147(3) 0.4457(4)
O7 O 0.4933(5) 0.0911(4) 0.5030(5)
O8 O 0.5492(5) 0.2288(4) 0.6195(4)
N1 N 0.4088(5) 0.1508(4) 0.2692(5)
N2 N 0.5000 0.0275(6) 0.2500
N3 N 0.5000 0.2669(5) 0.2500
N4 N 0.3280(5) 0.0301(4) 0.2895(4)
C1 C 0.5000 0.1873(7) 0.2500
C2 C 0.4157(6) 0.0707(5) 0.2685(5)
C3 C 0.4134(6) 0.3082(4) 0.2889(5)
H1 H 0.3498 0.2968 0.2544
H2 H 0.4259 0.3649 0.2864
C4 C 0.3994(6) 0.2821(4) 0.3886(5)
C5 C 0.2295(6) 0.0723(5) 0.2994(6)
H3 H 0.1728 0.0339 0.3001
H4 H 0.2185 0.1062 0.2472
C6 C 0.2244(6) 0.1224(4) 0.3835(5)
Dy5 Dy 0.12515(3) 0.30158(2) 0.44291(2)
Dy6 Dy 0.87485(3) 0.30158(2) 0.05709(2)
O9 O 0.6922(4) 0.2831(3) 0.0801(4)
O10 O 0.1922(4) 0.2169(3) 0.5801(4)
O12 O 0.5242(5) 0.2637(4) 0.0651(4)
O13 O 0.8528(5) 0.1707(3) 0.1151(4)
O14 O 0.3528(5) 0.3293(3) 0.6151(4)
O16 O 0.7089(4) 0.1147(3) 0.0543(4)
O19 O 0.3766(5) 0.1719(4) 0.7208(4)
O22 O 0.3233(5) 0.0727(3) 0.6393(4)
N5 N 0.5912(5) 0.1508(4) 0.2308(5)
N6 N 0.6720(5) 0.0301(4) 0.2105(4)
C9 C 0.5843(6) 0.0707(5) 0.2315(5)
C10 C 0.5866(6) 0.3082(4) 0.2111(5)
H7 H 0.6502 0.2968 0.2456
H8 H 0.5741 0.3649 0.2136
C11 C 0.6006(6) 0.2821(4) 0.1114(5)
C12 C 0.7705(6) 0.0723(5) 0.2006(6)
H9 H 0.8272 0.0339 0.1999
H10 H 0.7815 0.1062 0.2528
C13 C 0.7756(6) 0.1224(4) 0.1165(5)
H13 H 0.554185 0.115165 0.472253
H14 H 0.518593 0.0590757 0.555319
H15 H 0.550887 0.284658 0.640925
H16 H 0.565106 0.192642 0.670921
H17 H 0.445815 0.115165 0.0277465
Dy2 Dy 0.62515(3) 0.19842(2) 0.94291(2)
O11 O 0.8078(4) 0.2169(3) 0.9199(4)
O15 O 0.6472(5) 0.3293(3) 0.8849(4)
O18 O 0.6234(5) 0.1719(4) 0.7792(4)
O21 O 0.6767(5) 0.0727(3) 0.8607(4)
O23 O 0.5067(5) 0.0911(4) 0.9970(5)
O24 O 0.4508(5) 0.2288(4) 0.8805(4)
H18 H 0.481407 0.0590757 0.944681
H19 H 0.449113 0.284658 0.859075
H20 H 0.434894 0.192642 0.829079
O5 O 0.3766(5) 0.8281(4) 0.2208(4)
O6 O 0.3233(5) 0.9273(3) 0.1393(4)
C7 C 0.3339(6) 0.9452(4) 0.3004(5)
H5 H 0.2708 0.9272 0.3299
H6 H 0.3930 0.9329 0.3401
C8 C 0.3456(5) 0.8997(4) 0.2140(5)
Dy3 Dy 0.62515(3) 0.80158(2) 0.44291(2)
Dy4 Dy 0.37485(3) 0.80158(2) 0.05709(2)
O17 O 0.6234(5) 0.8281(4) 0.2792(4)
O20 O 0.6767(5) 0.9273(3) 0.3607(4)
C14 C 0.6661(6) 0.9452(4) 0.1996(5)
H11 H 0.7292 0.9272 0.1701
H12 H 0.6070 0.9329 0.1599
C15 C 0.6544(5) 0.8997(4) 0.2860(5)
O8_2 O 0.0492(5) 0.7288(4) 0.6195(4)
N2_2 N 0.0000 0.5275(6) 0.2500
N3_2 N 0.0000 0.7669(5) 0.2500
C1_2 C 0.0000 0.6873(7) 0.2500
O9_2 O 0.1922(4) 0.7831(3) 0.0801(4)
O12_2 O 0.0242(5) 0.7637(4) 0.0651(4)
O13_2 O 0.3528(5) 0.6707(3) 0.1151(4)
O16_2 O 0.2089(4) 0.6147(3) 0.0543(4)
O17_2 O 0.1234(5) 0.3281(4) 0.2792(4)
O20_2 O 0.1767(5) 0.4273(3) 0.3607(4)
N5_2 N 0.0912(5) 0.6508(4) 0.2308(5)
N6_2 N 0.1720(5) 0.5301(4) 0.2105(4)
C9_2 C 0.0843(6) 0.5707(5) 0.2315(5)
C10_2 C 0.0866(6) 0.8082(4) 0.2111(5)
H7_2 H 0.1502 0.7968 0.2456
H8_2 H 0.0741 0.8649 0.2136
C11_2 C 0.1006(6) 0.7821(4) 0.1114(5)
C12_2 C 0.2705(6) 0.5723(5) 0.2006(6)
H9_2 H 0.3272 0.5339 0.1999
H10_2 H 0.2815 0.6062 0.2528
C13_2 C 0.2756(6) 0.6224(4) 0.1165(5)
C14_2 C 0.1661(6) 0.4452(4) 0.1996(5)
H11_2 H 0.2292 0.4272 0.1701
H12_2 H 0.1070 0.4329 0.1599
C15_2 C 0.1544(5) 0.3997(4) 0.2860(5)
H13_2 H 0.0541847 0.615165 0.472253
H14_2 H 0.0185929 0.559076 0.555319
H15_2 H 0.050887 0.784658 0.640925
H16_2 H 0.0651064 0.692642 0.670921
Dy2_2 Dy 0.12515(3) 0.69842(2) 0.94291(2)
O11_2 O 0.3078(4) 0.7169(3) 0.9199(4)
O15_2 O 0.1472(5) 0.8293(3) 0.8849(4)
O18_2 O 0.1234(5) 0.6719(4) 0.7792(4)
O21_2 O 0.1767(5) 0.5727(3) 0.8607(4)
O23_2 O 0.0067(5) 0.5911(4) 0.9970(5)
Dy1_2 Dy 0.87485(3) 0.69842(2) 0.55709(2)
O1_2 O 0.8078(4) 0.7831(3) 0.4199(4)
O2_2 O 0.9758(5) 0.7637(4) 0.4349(4)
O3_2 O 0.6472(5) 0.6707(3) 0.3849(4)
O4_2 O 0.7911(4) 0.6147(3) 0.4457(4)
O5_2 O 0.8766(5) 0.3281(4) 0.2208(4)
O6_2 O 0.8233(5) 0.4273(3) 0.1393(4)
O7_2 O 0.9933(5) 0.5911(4) 0.5030(5)
N1_2 N 0.9088(5) 0.6508(4) 0.2692(5)
N2_3 N 1.0000 0.5275(6) 0.2500
N3_3 N 1.0000 0.7669(5) 0.2500
N4_2 N 0.8280(5) 0.5301(4) 0.2895(4)
C1_3 C 1.0000 0.6873(7) 0.2500
C2_2 C 0.9157(6) 0.5707(5) 0.2685(5)
C3_2 C 0.9134(6) 0.8082(4) 0.2889(5)
H1_2 H 0.8498 0.7968 0.2544
H2_2 H 0.9259 0.8649 0.2864
C4_2 C 0.8994(6) 0.7821(4) 0.3886(5)
C5_2 C 0.7295(6) 0.5723(5) 0.2994(6)
H3_2 H 0.6728 0.5339 0.3001
H4_2 H 0.7185 0.6062 0.2472
C6_2 C 0.7244(6) 0.6224(4) 0.3835(5)
C7_2 C 0.8339(6) 0.4452(4) 0.3004(5)
H5_2 H 0.7708 0.4272 0.3299
H6_2 H 0.8930 0.4329 0.3401
C8_2 C 0.8456(5) 0.3997(4) 0.2140(5)
O10_2 O 0.6922(4) 0.7169(3) 0.5801(4)
O14_2 O 0.8528(5) 0.8293(3) 0.6151(4)
O19_2 O 0.8766(5) 0.6719(4) 0.7208(4)
O22_2 O 0.8233(5) 0.5727(3) 0.6393(4)
H17_2 H 0.945815 0.615165 0.0277465
C7_3 C 0.6661(6) 0.0548(4) 0.6996(5)
H5_3 H 0.7292 0.0728 0.6701
H6_3 H 0.6070 0.0671 0.6599
C8_3 C 0.6544(5) 0.1003(4) 0.7860(5)
C14_3 C 0.3339(6) 0.0548(4) 0.8004(5)
H11_3 H 0.2708 0.0728 0.8299
H12_3 H 0.3930 0.0671 0.8401
C15_3 C 0.3456(5) 0.1003(4) 0.7140(5)
O23_3 O 0.4933(5) 0.9089(4) 0.0030(5)
O24_2 O 0.5492(5) 0.7712(4) 0.1195(4)
H18_2 H 0.518593 0.940924 0.0553189
H19_2 H 0.550887 0.715342 0.140925
H20_2 H 0.565106 0.807358 0.170921
O2_3 O 0.5242(5) 0.7363(4) 0.5651(4)
O4_3 O 0.7089(4) 0.8853(3) 0.5543(4)
O7_3 O 0.5067(5) 0.9089(4) 0.4970(5)
O8_3 O 0.4508(5) 0.7712(4) 0.3805(4)
N1_3 N 0.5912(5) 0.8492(4) 0.7308(5)
N2_4 N 0.5000 0.9725(6) 0.7500
N3_4 N 0.5000 0.7331(5) 0.7500
N4_3 N 0.6720(5) 0.9699(4) 0.7105(4)
C1_4 C 0.5000 0.8127(7) 0.7500
C2_3 C 0.5843(6) 0.9293(5) 0.7315(5)
C3_3 C 0.5866(6) 0.6918(4) 0.7111(5)
H1_3 H 0.6502 0.7032 0.7456
H2_3 H 0.5741 0.6351 0.7136
C4_3 C 0.6006(6) 0.7179(4) 0.6114(5)
C5_3 C 0.7705(6) 0.9277(5) 0.7006(6)
H3_3 H 0.8272 0.9661 0.6999
H4_3 H 0.7815 0.8938 0.7528
C6_3 C 0.7756(6) 0.8776(4) 0.6165(5)
O12_3 O 0.4758(5) 0.7363(4) 0.9349(4)
O16_3 O 0.2911(4) 0.8853(3) 0.9457(4)
N5_3 N 0.4088(5) 0.8492(4) 0.7692(5)
N6_3 N 0.3280(5) 0.9699(4) 0.7895(4)
C9_3 C 0.4157(6) 0.9293(5) 0.7685(5)
C10_3 C 0.4134(6) 0.6918(4) 0.7889(5)
H7_3 H 0.3498 0.7032 0.7544
H8_3 H 0.4259 0.6351 0.7864
C11_3 C 0.3994(6) 0.7179(4) 0.8886(5)
C12_3 C 0.2295(6) 0.9277(5) 0.7994(6)
H9_3 H 0.1728 0.9661 0.8001
H10_3 H 0.2185 0.8938 0.7472
C13_3 C 0.2244(6) 0.8776(4) 0.8835(5)
H13_3 H 0.445815 0.884835 0.527747
H14_3 H 0.481407 0.940924 0.444681
H15_3 H 0.449113 0.715342 0.359075
H16_3 H 0.434894 0.807358 0.329079
H17_3 H 0.554185 0.884835 0.972253
O2_4 O 0.0242(5) 0.2363(4) 0.5651(4)
O4_4 O 0.2089(4) 0.3853(3) 0.5543(4)
O7_4 O 0.0067(5) 0.4089(4) 0.4970(5)
N1_4 N 0.0912(5) 0.3492(4) 0.7308(5)
N2_5 N 0.0000 0.4725(6) 0.7500
N3_5 N 0.0000 0.2331(5) 0.7500
N4_4 N 0.1720(5) 0.4699(4) 0.7105(4)
C1_5 C -0.0000 0.3127(7) 0.7500
C2_4 C 0.0843(6) 0.4293(5) 0.7315(5)
C3_4 C 0.0866(6) 0.1918(4) 0.7111(5)
H1_4 H 0.1502 0.2032 0.7456
H2_4 H 0.0741 0.1351 0.7136
C4_4 C 0.1006(6) 0.2179(4) 0.6114(5)
C5_4 C 0.2705(6) 0.4277(5) 0.7006(6)
H3_4 H 0.3272 0.4661 0.6999
H4_4 H 0.2815 0.3938 0.7528
C6_4 C 0.2756(6) 0.3776(4) 0.6165(5)
C7_4 C 0.1661(6) 0.5548(4) 0.6996(5)
H5_4 H 0.2292 0.5728 0.6701
H6_4 H 0.1070 0.5671 0.6599
C8_4 C 0.1544(5) 0.6003(4) 0.7860(5)
H17_4 H 0.0541847 0.384835 0.972253
O23_4 O 0.9933(5) 0.4089(4) 0.0030(5)
O8_4 O 0.9508(5) 0.2712(4) 0.3805(4)
N2_6 N 1.0000 0.4725(6) 0.7500
N3_6 N 1.0000 0.2331(5) 0.7500
C1_6 C 1.0000 0.3127(7) 0.7500
O12_4 O 0.9758(5) 0.2363(4) 0.9349(4)
O16_4 O 0.7911(4) 0.3853(3) 0.9457(4)
N5_4 N 0.9088(5) 0.3492(4) 0.7692(5)
N6_4 N 0.8280(5) 0.4699(4) 0.7895(4)
C9_4 C 0.9157(6) 0.4293(5) 0.7685(5)
C10_4 C 0.9134(6) 0.1918(4) 0.7889(5)
H7_4 H 0.8498 0.2032 0.7544
H8_4 H 0.9259 0.1351 0.7864
C11_4 C 0.8994(6) 0.2179(4) 0.8886(5)
C12_4 C 0.7295(6) 0.4277(5) 0.7994(6)
H9_4 H 0.6728 0.4661 0.8001
H10_4 H 0.7185 0.3938 0.7472
C13_4 C 0.7244(6) 0.3776(4) 0.8835(5)
C14_4 C 0.8339(6) 0.5548(4) 0.8004(5)
H11_4 H 0.7708 0.5728 0.8299
H12_4 H 0.8930 0.5671 0.8401
C15_4 C 0.8456(5) 0.6003(4) 0.7140(5)
H13_4 H 0.945815 0.384835 0.527747
H14_4 H 0.981407 0.440924 0.444681
H15_4 H 0.949113 0.215342 0.359075
H16_4 H 0.934894 0.307358 0.329079
O24_3 O 0.9508(5) 0.7288(4) 0.8805(4)
H18_3 H 0.981407 0.559076 0.944681
H19_3 H 0.949113 0.784658 0.859075
H20_3 H 0.934894 0.692642 0.829079
O24_4 O 0.0492(5) 0.2712(4) 0.1195(4)
H18_4 H 0.0185929 0.440924 0.0553189
H19_4 H 0.050887 0.215342 0.140925
H20_4 H 0.0651064 0.307358 0.170921
loop_
_geom_bond_atom_site_label_1
_geom_bond_atom_site_label_2
_geom_bond_site_symmetry_1
_geom_bond_site_symmetry_2
Dy1 O1 1_555 1_555
O1 C4 1_555 1_555
O2 Dy1 1_555 1_555
O3 C6 1_555 1_555
O4 Dy1 1_555 1_555
O7 Dy1 1_555 1_555
O8 Dy1 1_555 1_555
N1 C1 1_555 1_555
N2 C2 1_555 1_555
N3 C1 1_555 1_555
N4 C2 1_555 1_555
C1 N5 1_555 1_555
C2 N1 1_555 1_555
C3 N3 1_555 1_555
H1 C3 1_555 1_555
H2 C3 1_555 1_555
C4 O2 1_555 1_555
C5 N4 1_555 1_555
H3 C5 1_555 1_555
H4 C5 1_555 1_555
C6 O4 1_555 1_555
Dy5 O1 1_555 1_555
Dy6 O9 1_555 1_555
O9 C11 1_555 1_555
O10 Dy1 1_555 1_555
O13 Dy6 1_555 1_555
O14 Dy1 1_555 1_555
O19 Dy1 1_555 1_555
O22 Dy1 1_555 1_555
N5 C9 1_555 1_555
N6 C9 1_555 1_555
C9 N2 1_555 1_555
C10 N3 1_555 1_555
H7 C10 1_555 1_555
H8 C10 1_555 1_555
C11 O12 1_555 1_555
C12 N6 1_555 1_555
H9 C12 1_555 1_555
H10 C12 1_555 1_555
C13 O13 1_555 1_555
O3 Dy5 1_555 1_555
C3 C4 1_555 1_555
C5 C6 1_555 1_555
Dy5 O10 1_555 1_555
O16 C13 1_555 1_555
C10 C11 1_555 1_555
C12 C13 1_555 1_555
O7 H13 1_555 1_555
O7 H14 1_555 1_555
O8 H15 1_555 1_555
O8 H16 1_555 1_555
O11 Dy2 1_555 1_555
O15 Dy2 1_555 1_555
O18 Dy2 1_555 1_555
O21 Dy2 1_555 1_555
O23 Dy2 1_555 1_555
O24 Dy2 1_555 1_555
O23 H18 1_555 1_555
O24 H19 1_555 1_555
O24 H20 1_555 1_555
O5 C8 1_555 1_555
O6 C8 1_555 1_555
H5 C7 1_555 1_555
H6 C7 1_555 1_555
C8 C7 1_555 1_555
Dy3 O17 1_555 1_555
Dy4 O5 1_555 1_555
O17 C15 1_555 1_555
O20 Dy3 1_555 1_555
H11 C14 1_555 1_555
H12 C14 1_555 1_555
C15 O20 1_555 1_555
O6 Dy4 1_555 1_555
C14 C15 1_555 1_555
N3_2 C1_2 1_555 1_555
C1_2 N5_2 1_555 1_555
Dy5 O17_2 1_555 1_555
Dy4 O9_2 1_555 1_555
O9_2 C11_2 1_555 1_555
O13_2 Dy4 1_555 1_555
O17_2 C15_2 1_555 1_555
O20_2 Dy5 1_555 1_555
N5_2 C9_2 1_555 1_555
N6_2 C9_2 1_555 1_555
C9_2 N2_2 1_555 1_555
C10_2 N3_2 1_555 1_555
H7_2 C10_2 1_555 1_555
H8_2 C10_2 1_555 1_555
C11_2 O12_2 1_555 1_555
C12_2 N6_2 1_555 1_555
H9_2 C12_2 1_555 1_555
H10_2 C12_2 1_555 1_555
C13_2 O13_2 1_555 1_555
C14_2 N6_2 1_555 1_555
H11_2 C14_2 1_555 1_555
H12_2 C14_2 1_555 1_555
C15_2 O20_2 1_555 1_555
O16_2 C13_2 1_555 1_555
C10_2 C11_2 1_555 1_555
C12_2 C13_2 1_555 1_555
C14_2 C15_2 1_555 1_555
O8_2 H15_2 1_555 1_555
O8_2 H16_2 1_555 1_555
O11_2 Dy2_2 1_555 1_555
O15_2 Dy2_2 1_555 1_555
O18_2 Dy2_2 1_555 1_555
O21_2 Dy2_2 1_555 1_555
O23_2 Dy2_2 1_555 1_555
Dy1_2 O1_2 1_555 1_555
O1_2 C4_2 1_555 1_555
O2_2 Dy1_2 1_555 1_555
O3_2 C6_2 1_555 1_555
O4_2 Dy1_2 1_555 1_555
O5_2 C8_2 1_555 1_555
O6_2 C8_2 1_555 1_555
O7_2 Dy1_2 1_555 1_555
N1_2 C1_3 1_555 1_555
N2_3 C2_2 1_555 1_555
N3_3 C1_3 1_555 1_555
N4_2 C2_2 1_555 1_555
C2_2 N1_2 1_555 1_555
C3_2 N3_3 1_555 1_555
H1_2 C3_2 1_555 1_555
H2_2 C3_2 1_555 1_555
C4_2 O2_2 1_555 1_555
C5_2 N4_2 1_555 1_555
H3_2 C5_2 1_555 1_555
H4_2 C5_2 1_555 1_555
C6_2 O4_2 1_555 1_555
C7_2 N4_2 1_555 1_555
H5_2 C7_2 1_555 1_555
H6_2 C7_2 1_555 1_555
C8_2 C7_2 1_555 1_555
Dy6 O5_2 1_555 1_555
Dy3 O1_2 1_555 1_555
O10_2 Dy1_2 1_555 1_555
O14_2 Dy1_2 1_555 1_555
O19_2 Dy1_2 1_555 1_555
O22_2 Dy1_2 1_555 1_555
O3_2 Dy3 1_555 1_555
O6_2 Dy6 1_555 1_555
C3_2 C4_2 1_555 1_555
C5_2 C6_2 1_555 1_555
Dy3 O10_2 1_555 1_555
O18 C8_3 1_555 1_555
O21 C8_3 1_555 1_555
H5_3 C7_3 1_555 1_555
H6_3 C7_3 1_555 1_555
C8_3 C7_3 1_555 1_555
O19 C15_3 1_555 1_555
H11_3 C14_3 1_555 1_555
H12_3 C14_3 1_555 1_555
C15_3 O22 1_555 1_555
C14_3 C15_3 1_555 1_555
O23_3 Dy4 1_555 1_555
O24_2 Dy4 1_555 1_555
O23_3 H18_2 1_555 1_555
O24_2 H19_2 1_555 1_555
O24_2 H20_2 1_555 1_555
O10_2 C4_3 1_555 1_555
O2_3 Dy3 1_555 1_555
O14_2 C6_3 1_555 1_555
O4_3 Dy3 1_555 1_555
O7_3 Dy3 1_555 1_555
O8_3 Dy3 1_555 1_555
N1_3 C1_4 1_555 1_555
N2_4 C2_3 1_555 1_555
N3_4 C1_4 1_555 1_555
N4_3 C2_3 1_555 1_555
C1_4 N5_3 1_555 1_555
C2_3 N1_3 1_555 1_555
C3_3 N3_4 1_555 1_555
H1_3 C3_3 1_555 1_555
H2_3 C3_3 1_555 1_555
C4_3 O2_3 1_555 1_555
C5_3 N4_3 1_555 1_555
H3_3 C5_3 1_555 1_555
H4_3 C5_3 1_555 1_555
C6_3 O4_3 1_555 1_555
O11_2 C11_3 1_555 1_555
N5_3 C9_3 1_555 1_555
N6_3 C9_3 1_555 1_555
C9_3 N2_4 1_555 1_555
C10_3 N3_4 1_555 1_555
H7_3 C10_3 1_555 1_555
H8_3 C10_3 1_555 1_555
C11_3 O12_3 1_555 1_555
C12_3 N6_3 1_555 1_555
H9_3 C12_3 1_555 1_555
H10_3 C12_3 1_555 1_555
C13_3 O15_2 1_555 1_555
C3_3 C4_3 1_555 1_555
C5_3 C6_3 1_555 1_555
O16_3 C13_3 1_555 1_555
C10_3 C11_3 1_555 1_555
C12_3 C13_3 1_555 1_555
O7_3 H13_3 1_555 1_555
O7_3 H14_3 1_555 1_555
O8_3 H15_3 1_555 1_555
O8_3 H16_3 1_555 1_555
O10 C4_4 1_555 1_555
O2_4 Dy5 1_555 1_555
O14 C6_4 1_555 1_555
O4_4 Dy5 1_555 1_555
O18_2 C8_4 1_555 1_555
O21_2 C8_4 1_555 1_555
O7_4 Dy5 1_555 1_555
N1_4 C1_5 1_555 1_555
N2_5 C2_4 1_555 1_555
N3_5 C1_5 1_555 1_555
N4_4 C2_4 1_555 1_555
C2_4 N1_4 1_555 1_555
C3_4 N3_5 1_555 1_555
H1_4 C3_4 1_555 1_555
H2_4 C3_4 1_555 1_555
C4_4 O2_4 1_555 1_555
C5_4 N4_4 1_555 1_555
H3_4 C5_4 1_555 1_555
H4_4 C5_4 1_555 1_555
C6_4 O4_4 1_555 1_555
C7_4 N4_4 1_555 1_555
H5_4 C7_4 1_555 1_555
H6_4 C7_4 1_555 1_555
C8_4 C7_4 1_555 1_555
C3_4 C4_4 1_555 1_555
C5_4 C6_4 1_555 1_555
O23_4 Dy6 1_555 1_555
N3_6 C1_6 1_555 1_555
C1_6 N5_4 1_555 1_555
O11 C11_4 1_555 1_555
O19_2 C15_4 1_555 1_555
N5_4 C9_4 1_555 1_555
N6_4 C9_4 1_555 1_555
C9_4 N2_6 1_555 1_555
C10_4 N3_6 1_555 1_555
H7_4 C10_4 1_555 1_555
H8_4 C10_4 1_555 1_555
C11_4 O12_4 1_555 1_555
C12_4 N6_4 1_555 1_555
H9_4 C12_4 1_555 1_555
H10_4 C12_4 1_555 1_555
C13_4 O15 1_555 1_555
C14_4 N6_4 1_555 1_555
H11_4 C14_4 1_555 1_555
H12_4 C14_4 1_555 1_555
C15_4 O22_2 1_555 1_555
O16_4 C13_4 1_555 1_555
C10_4 C11_4 1_555 1_555
C12_4 C13_4 1_555 1_555
C14_4 C15_4 1_555 1_555
O8_4 H15_4 1_555 1_555
O8_4 H16_4 1_555 1_555
O24_3 H19_3 1_555 1_555
O24_3 H20_3 1_555 1_555
O24_4 H19_4 1_555 1_555
O24_4 H20_4 1_555 1_555

#END
