
###############################################################################
#
# This file contains modified crystal structure data generated from the
# MOF subset of the Cambridge Structural Database (CSD) v543 
# hosted by the Cambridge Crystallographic Data Centre (CCDC).
#
# This work is licensed under the Creative Commons
# Attribution-NonCommercial-ShareAlike 4.0 International License.
# To view a copy of this license, visit
# http://creativecommons.org/licenses/by-nc-sa/4.0/
# or send a letter to
# Creative Commons, PO Box 1866, Mountain View, CA 94042, USA.
#
# CIF created using the CSD Python API on 29 September 2022
# The structure has been converted into the P1 space group
# The structure has a 3D framework
# The original CSD entry CUMDIY is in the triclinic crystal system
# The framework has been calculated to contain at least 10.0% void space
# The void calculation uses a probe of radius 1.32A, grid spacing 0.4
# The framework is charged, counterions have been retained in the structure
#
###############################################################################

data_CUMDIY
_chemical_formula_moiety         '(C12 H26 La2 N4 O12 P4)n'
_symmetry_cell_setting           triclinic
_symmetry_space_group_name_H-M   'P 1'
_symmetry_Int_Tables_number      1
_space_group_name_Hall           'P 1'
loop_
_symmetry_equiv_pos_site_id
_symmetry_equiv_pos_as_xyz
1 x,y,z
_cell_length_a                   5.7630(13)
_cell_length_b                   10.213(2)
_cell_length_c                   11.649(2)
_cell_angle_alpha                84.2420(16)
_cell_angle_beta                 89.0510(17)
_cell_angle_gamma                82.8760(18)
_cell_volume                     676.9
loop_
_atom_site_label
_atom_site_type_symbol
_atom_site_fract_x
_atom_site_fract_y
_atom_site_fract_z
_atom_site_U_iso_or_equiv
_atom_site_thermal_displace_type
La9 La 0.21771(7) 0.14523(4) 0.47195(3) 0.0101 Uani
H10 H 0.1744 0.0157 0.0206 0.0180 Uiso
P4 P 0.6702(3) 0.16013(19) 0.30946(17) 0.0112 Uani
O14 O 0.8871(9) 0.2186(5) 0.3424(4) 0.0127 Uani
O16 O 0.4447(9) 0.2578(5) 0.2984(5) 0.0144 Uani
O19 O 0.6074(9) 0.0418(5) 0.3917(5) 0.0126 Uani
N6 N 0.5993(11) 0.0290(6) 0.1085(5) 0.0115 Uani
C10 C 0.7668(13) 0.0955(8) 0.1741(7) 0.0124 Uani
H21 H 0.9052 0.0323 0.1902 0.0150 Uiso
H22 H 0.8145 0.1685 0.1231 0.0150 Uiso
C12 C 0.4403(14) 0.1310(8) 0.0362(7) 0.0153 Uani
H25 H 0.3514 0.1901 0.0855 0.0180 Uiso
H1 H 0.4885 0.0172 0.8403 0.0140 Uiso
C5 C 0.2725(13) 0.0639(8) 0.9675(7) 0.0150 Uani
H11 H 0.1718 0.1311 0.9208 0.0180 Uiso
H26 H 0.5327 0.1834 0.9835 0.0180 Uiso
H13 H 0.4673 0.8166 0.0165 0.0180 Uiso
La11 La 0.78229(7) 0.85477(4) 0.52805(3) 0.0101 Uani
H14 H 0.5115 0.9828 0.1597 0.0140 Uiso
C11 C 0.7275(13) 0.9361(8) 0.0325(7) 0.0150 Uani
H24 H 0.8282 0.8689 0.0792 0.0180 Uiso
P2 P 0.3298(3) 0.83987(19) 0.69054(17) 0.0112 Uani
O4 O 0.1129(9) 0.7814(5) 0.6576(4) 0.0127 Uani
O5 O 0.5553(9) 0.7422(5) 0.7016(5) 0.0144 Uani
O6 O 0.3926(9) 0.9582(5) 0.6083(5) 0.0126 Uani
N2 N 0.4007(11) 0.9710(6) 0.8915(5) 0.0115 Uani
C4 C 0.2332(13) 0.9045(8) 0.8259(7) 0.0124 Uani
H8 H 0.0948 0.9677 0.8098 0.0150 Uiso
H9 H 0.1855 0.8315 0.8769 0.0150 Uiso
C6 C 0.5597(14) 0.8690(8) 0.9638(7) 0.0153 Uani
H12 H 0.6486 0.8099 0.9145 0.0180 Uiso
O9 O 0.1163(9) 0.9271(5) 0.4067(4) 0.0117 Uani
N4 N 0.0203(10) 0.6275(6) 0.4300(5) 0.0115 Uani
H23 H 0.8256 0.9843 0.9794 0.0180 Uiso
O10 O 0.8837(9) 0.0729(5) 0.5933(4) 0.0117 Uani
P1 P 0.2792(3) 0.82991(18) 0.33873(17) 0.0102 Uani
O1 O 0.5041(9) 0.7775(5) 0.4029(5) 0.0129 Uani
O3 O 0.3140(9) 0.8903(5) 0.2149(5) 0.0167 Uani
C1 C 0.1092(12) 0.6939(7) 0.3217(6) 0.0115 Uani
H3 H 0.2056 0.6278 0.2819 0.0140 Uiso
C2 C 0.2168(12) 0.5498(7) 0.4976(7) 0.0115 Uani
H4 H 0.3208 0.6100 0.5210 0.0140 Uiso
H5 H 0.3051 0.4897 0.4489 0.0140 Uiso
H15 H 0.0233 0.2722 0.7276 0.0140 Uiso
C9 C 0.1334(13) 0.4708(7) 0.6037(7) 0.0126 Uani
H19 H 0.0467 0.5305 0.6533 0.0150 Uiso
H20 H 0.2671 0.4244 0.6464 0.0150 Uiso
H2 H 0.9767 0.7278 0.2724 0.0140 Uiso
C3 C 0.8666(13) 0.5292(7) 0.3963(7) 0.0126 Uani
H6 H 0.9533 0.4695 0.3467 0.0150 Uiso
H7 H 0.7329 0.5756 0.3536 0.0150 Uiso
P3 P 0.7208(3) 0.17009(18) 0.66127(17) 0.0102 Uani
O7 O 0.4959(9) 0.2225(5) 0.5971(5) 0.0129 Uani
O13 O 0.6860(9) 0.1097(5) 0.7851(5) 0.0167 Uani
N3 N 0.9797(10) 0.3725(6) 0.5700(5) 0.0115 Uani
C7 C 0.8908(12) 0.3061(7) 0.6783(6) 0.0115 Uani
H16 H 0.7944 0.3722 0.7181 0.0140 Uiso
C8 C 0.7832(12) 0.4502(7) 0.5024(7) 0.0115 Uani
H17 H 0.6792 0.3900 0.4790 0.0140 Uiso
H18 H 0.6949 0.5103 0.5511 0.0140 Uiso
loop_
_atom_site_aniso_label
_atom_site_aniso_U_11
_atom_site_aniso_U_22
_atom_site_aniso_U_33
_atom_site_aniso_U_23
_atom_site_aniso_U_13
_atom_site_aniso_U_12
La9 0.0074 0.0098 0.0135 -0.00097 8e-05 -0.00257
P4 0.009 0.0118 0.0135 -0.0013 0.0002 -0.0035
O14 0.009 0.013 0.016 -0.002 0.001 -0.001
O16 0.009 0.014 0.019 0.003 0.001 0
O19 0.011 0.01 0.017 -0.001 0.002 -0.003
N6 0.009 0.015 0.011 -0.002 0.003 -0.003
C10 0.009 0.016 0.014 -0.006 0.002 -0.005
C12 0.015 0.013 0.018 -0.003 0 -0.001
C5 0.01 0.016 0.019 -0.004 -0.003 0.001
La11 0.0074 0.0098 0.0135 -0.00097 8e-05 -0.00257
C11 0.01 0.016 0.019 -0.004 -0.003 0.001
P2 0.009 0.0118 0.0135 -0.0013 0.0002 -0.0035
O4 0.009 0.013 0.016 -0.002 0.001 -0.001
O5 0.009 0.014 0.019 0.003 0.001 0
O6 0.011 0.01 0.017 -0.001 0.002 -0.003
N2 0.009 0.015 0.011 -0.002 0.003 -0.003
C4 0.009 0.016 0.014 -0.006 0.002 -0.005
C6 0.015 0.013 0.018 -0.003 0 -0.001
O9 0.008 0.014 0.014 -0.002 0.0011 -0.004
N4 0.008 0.013 0.013 0.003 -0.001 -0.003
O10 0.008 0.014 0.014 -0.002 0.0011 -0.004
P1 0.008 0.0104 0.0132 -0.0021 0.0002 -0.0039
O1 0.008 0.014 0.018 -0.006 0 -0.003
O3 0.015 0.019 0.017 -0.001 0.004 -0.007
C1 0.008 0.014 0.013 -0.003 -0.004 -0.002
C2 0.007 0.008 0.02 -0.001 -0.006 -0.002
C9 0.012 0.011 0.014 -0.003 -0.003 0.003
C3 0.012 0.011 0.014 -0.003 -0.003 0.003
P3 0.008 0.0104 0.0132 -0.0021 0.0002 -0.0039
O7 0.008 0.014 0.018 -0.006 0 -0.003
O13 0.015 0.019 0.017 -0.001 0.004 -0.007
N3 0.008 0.013 0.013 0.003 -0.001 -0.003
C7 0.008 0.014 0.013 -0.003 -0.004 -0.002
C8 0.007 0.008 0.02 -0.001 -0.006 -0.002
loop_
_geom_bond_atom_site_label_1
_geom_bond_atom_site_label_2
_geom_bond_site_symmetry_1
_geom_bond_site_symmetry_2
La9 O16 1_555 1_555
P4 O14 1_555 1_555
O16 P4 1_555 1_555
O19 La9 1_555 1_555
C10 P4 1_555 1_555
H21 C10 1_555 1_555
H22 C10 1_555 1_555
H25 C12 1_555 1_555
P4 O19 1_555 1_555
N6 C10 1_555 1_555
N6 C12 1_555 1_555
H11 C5 1_555 1_555
H24 C11 1_555 1_555
P2 O4 1_555 1_555
O5 P2 1_555 1_555
O6 P2 1_555 1_555
C4 P2 1_555 1_555
H8 C4 1_555 1_555
H9 C4 1_555 1_555
C6 N2 1_555 1_555
H12 C6 1_555 1_555
La11 O5 1_555 1_555
O6 La11 1_555 1_555
N2 C4 1_555 1_555
La11 O1 1_555 1_555
P1 O1 1_555 1_555
O9 P1 1_555 1_555
O3 P1 1_555 1_555
N4 C1 1_555 1_555
C1 P1 1_555 1_555
H3 C1 1_555 1_555
C2 N4 1_555 1_555
H4 C2 1_555 1_555
H5 C2 1_555 1_555
C9 C2 1_555 1_555
H19 C9 1_555 1_555
H20 C9 1_555 1_555
H6 C3 1_555 1_555
H7 C3 1_555 1_555
La9 O7 1_555 1_555
P3 O7 1_555 1_555
O10 P3 1_555 1_555
O13 P3 1_555 1_555
C7 P3 1_555 1_555
H16 C7 1_555 1_555
C8 C3 1_555 1_555
H17 C8 1_555 1_555
H18 C8 1_555 1_555
N3 C7 1_555 1_555
N3 C8 1_555 1_555

#END
