
###############################################################################
#
# This file contains modified crystal structure data generated from the
# MOF subset of the Cambridge Structural Database (CSD) v543 
# hosted by the Cambridge Crystallographic Data Centre (CCDC).
#
# This work is licensed under the Creative Commons
# Attribution-NonCommercial-ShareAlike 4.0 International License.
# To view a copy of this license, visit
# http://creativecommons.org/licenses/by-nc-sa/4.0/
# or send a letter to
# Creative Commons, PO Box 1866, Mountain View, CA 94042, USA.
#
# CIF created using the CSD Python API on 29 September 2022
# The structure has been converted into the P1 space group
# The structure has a 3D framework
# The original CSD entry CUMDEU is in the monoclinic crystal system
# The framework has been calculated to contain at least 10.0% void space
# The void calculation uses a probe of radius 1.32A, grid spacing 0.4
# H atom positions have been added when not included in the experimental data
#
###############################################################################

data_CUMDEU
_chemical_formula_moiety         '(C32 H88 N8 Na6 O20 P8 4+)n'
_symmetry_cell_setting           triclinic
_symmetry_space_group_name_H-M   'P 1'
_symmetry_Int_Tables_number      1
_space_group_name_Hall           'P 1'
loop_
_symmetry_equiv_pos_site_id
_symmetry_equiv_pos_as_xyz
1 x,y,z
_cell_length_a                   22.9150(5)
_cell_length_b                   14.28020(32)
_cell_length_c                   5.64514(10)
_cell_angle_alpha                90
_cell_angle_beta                 102.8006(10)
_cell_angle_gamma                90
_cell_volume                     1801.35
loop_
_atom_site_label
_atom_site_type_symbol
_atom_site_fract_x
_atom_site_fract_y
_atom_site_fract_z
_atom_site_U_iso_or_equiv
_atom_site_thermal_displace_type
Ce4 Ce 0.0 0.39695(20) 0.25 0.0254 Uiso
Ce5 Ce 0.0 0.60305(20) 0.75 0.0254 Uiso
Ce4_2 Ce 1.0 0.39695(20) 0.25 0.0254 Uiso
P1 P 0.58433(26) 0.1322(5) 0.2736(10) 0.0094 Uiso
O1 O 0.5514(5) 0.0381(10) 0.1596(23) 0.0261 Uiso
O2 O 0.5671(5) 0.1998(9) 0.0328(24) 0.0261 Uiso
O3 O 0.5613(5) 0.1619(8) 0.5027(23) 0.0261 Uiso
C1 C 0.6664(6) 0.1030(10) 0.3605(27) 0.0460 Uiso
C2 C 0.7646(6) 0.15288(35) 0.4682(23) 0.0460 Uiso
C3 C 0.7783(7) 0.0919(7) 0.703(4) 0.2240 Uiso
C4 C 0.69544(33) 0.2780(7) 0.3365(21) 0.0460 Uiso
N1 N 0.70145(33) 0.1858(6) 0.4799(27) 0.0760 Uiso
Ce3 Ce 0.5 0.10305(20) 0.75 0.0254 Uiso
Ce5_2 Ce 1.0 0.60305(20) 0.75 0.0254 Uiso
P2 P 0.91567(26) 0.3678(5) 0.7264(10) 0.0094 Uiso
O4 O 0.9486(5) 0.4619(10) 0.8404(23) 0.0261 Uiso
O8 O 0.9329(5) 0.3002(9) 0.9672(24) 0.0261 Uiso
O10 O 0.9387(5) 0.3381(8) 0.4973(23) 0.0261 Uiso
C5 C 0.8336(6) 0.3970(10) 0.6395(27) 0.0460 Uiso
C6 C 0.7354(6) 0.34712(35) 0.5318(23) 0.0460 Uiso
C7 C 0.7217(7) 0.4081(7) 0.297(4) 0.2240 Uiso
C8 C 0.80456(33) 0.2220(7) 0.6635(21) 0.0460 Uiso
N2 N 0.79855(33) 0.3142(6) 0.5201(27) 0.0760 Uiso
H1 H 0.649067 0.301213 0.286308 . .
H2 H 0.7133 0.271638 0.173797 . .
H3 H 0.745263 0.0361045 0.687103 . .
H4 H 0.822798 0.0614906 0.726551 . .
H5 H 0.776411 0.135499 0.859397 . .
H6 H 0.776843 0.132166 0.29999 . .
H7 H 0.681965 0.0841561 0.198017 . .
H8 H 0.673138 0.0441654 0.48636 . .
H9 H 0.826862 0.455835 0.51364 . .
H10 H 0.818035 0.415844 0.801983 . .
H11 H 0.673497 0.41676 0.235544 . .
H12 H 0.742664 0.476491 0.335779 . .
H13 H 0.739366 0.373655 0.155626 . .
H14 H 0.723157 0.367834 0.70001 . .
H15 H 0.850933 0.198787 0.713692 . .
H16 H 0.7867 0.228362 0.826203 . .
O6 O 0.4486(5) 0.0381(10) 0.3404(23) 0.0261 Uiso
O9 O 0.4329(5) 0.1998(9) 0.4672(24) 0.0261 Uiso
O12 O 0.4387(5) 0.1619(8) 0.9973(23) 0.0261 Uiso
Ce2 Ce 0.5 0.89695(20) 0.25 0.0254 Uiso
O5 O 0.4486(5) 0.9619(10) 0.8404(23) 0.0261 Uiso
O7 O 0.5514(5) 0.9619(10) 0.6596(23) 0.0261 Uiso
P1_2 P 0.41567(26) 0.1322(5) 0.2264(10) 0.0094 Uiso
C1_2 C 0.3336(6) 0.1030(10) 0.1395(27) 0.0460 Uiso
C2_2 C 0.2354(6) 0.15288(35) 0.0318(23) 0.0460 Uiso
C4_2 C 0.30456(33) 0.2780(7) 0.1635(21) 0.0460 Uiso
N1_2 N 0.29855(33) 0.1858(6) 0.0201(27) 0.0760 Uiso
O10_2 O 0.0613(5) 0.3381(8) 0.0027(23) 0.0261 Uiso
C7_2 C 0.2783(7) 0.4081(7) 0.203(4) 0.2240 Uiso
H1_2 H 0.350933 0.301213 0.213692 . .
H2_2 H 0.2867 0.271638 0.326203 . .
H6_2 H 0.223157 0.132166 0.20001 . .
H7_2 H 0.318035 0.0841561 0.301983 . .
H8_2 H 0.326862 0.0441654 0.0136399 . .
H11_2 H 0.326503 0.41676 0.264456 . .
H12_2 H 0.257336 0.476491 0.164221 . .
H13_2 H 0.260634 0.373655 0.344374 . .
C3_2 C 0.2217(7) 0.0919(7) 0.797(4) 0.2240 Uiso
P2_2 P 0.08433(26) 0.3678(5) 0.7736(10) 0.0094 Uiso
O4_2 O 0.0514(5) 0.4619(10) 0.6596(23) 0.0261 Uiso
O8_2 O 0.0671(5) 0.3002(9) 0.5328(24) 0.0261 Uiso
C5_2 C 0.1664(6) 0.3970(10) 0.8605(27) 0.0460 Uiso
C6_2 C 0.2646(6) 0.34712(35) 0.9682(23) 0.0460 Uiso
C8_2 C 0.19544(33) 0.2220(7) 0.8365(21) 0.0460 Uiso
N2_2 N 0.20145(33) 0.3142(6) 0.9799(27) 0.0760 Uiso
H3_2 H 0.254737 0.0361045 0.812897 . .
H4_2 H 0.177202 0.0614906 0.773449 . .
H5_2 H 0.223589 0.135499 0.640603 . .
H9_2 H 0.173138 0.455835 0.98636 . .
H10_2 H 0.181965 0.415844 0.698017 . .
H14_2 H 0.276843 0.367834 0.79999 . .
H15_2 H 0.149067 0.198787 0.786308 . .
H16_2 H 0.2133 0.228362 0.673797 . .
P1_3 P 0.08433(26) 0.6322(5) 0.2736(10) 0.0094 Uiso
O1_2 O 0.0514(5) 0.5381(10) 0.1596(23) 0.0261 Uiso
O2_2 O 0.0671(5) 0.6998(9) 0.0328(24) 0.0261 Uiso
O3_2 O 0.0613(5) 0.6619(8) 0.5027(23) 0.0261 Uiso
C1_3 C 0.1664(6) 0.6030(10) 0.3605(27) 0.0460 Uiso
C2_3 C 0.2646(6) 0.65288(35) 0.4682(23) 0.0460 Uiso
C3_3 C 0.2783(7) 0.5919(7) 0.703(4) 0.2240 Uiso
C4_3 C 0.19544(33) 0.7780(7) 0.3365(21) 0.0460 Uiso
N1_3 N 0.20145(33) 0.6858(6) 0.4799(27) 0.0760 Uiso
P2_3 P 0.41567(26) 0.8678(5) 0.7264(10) 0.0094 Uiso
O8_3 O 0.4329(5) 0.8002(9) 0.9672(24) 0.0261 Uiso
O10_3 O 0.4387(5) 0.8381(8) 0.4973(23) 0.0261 Uiso
C5_3 C 0.3336(6) 0.8970(10) 0.6395(27) 0.0460 Uiso
C6_3 C 0.2354(6) 0.84712(35) 0.5318(23) 0.0460 Uiso
C7_3 C 0.2217(7) 0.9081(7) 0.297(4) 0.2240 Uiso
C8_3 C 0.30456(33) 0.7220(7) 0.6635(21) 0.0460 Uiso
N2_3 N 0.29855(33) 0.8142(6) 0.5201(27) 0.0760 Uiso
H1_3 H 0.149067 0.801213 0.286308 . .
H2_3 H 0.2133 0.771638 0.173797 . .
H3_3 H 0.245263 0.536105 0.687103 . .
H4_3 H 0.322798 0.561491 0.726551 . .
H5_3 H 0.276411 0.635499 0.859397 . .
H6_3 H 0.276843 0.632166 0.29999 . .
H7_3 H 0.181965 0.584156 0.198017 . .
H8_3 H 0.173138 0.544165 0.48636 . .
H9_3 H 0.326862 0.955835 0.51364 . .
H10_3 H 0.318035 0.915844 0.801983 . .
H11_3 H 0.173497 0.91676 0.235544 . .
H12_3 H 0.242664 0.976491 0.335779 . .
H13_3 H 0.239366 0.873655 0.155626 . .
H14_3 H 0.223157 0.867834 0.70001 . .
H15_3 H 0.350933 0.698787 0.713692 . .
H16_3 H 0.2867 0.728362 0.826203 . .
O6_2 O 0.9486(5) 0.5381(10) 0.3404(23) 0.0261 Uiso
O9_2 O 0.9329(5) 0.6998(9) 0.4672(24) 0.0261 Uiso
O12_2 O 0.9387(5) 0.6619(8) 0.9973(23) 0.0261 Uiso
P1_4 P 0.91567(26) 0.6322(5) 0.2264(10) 0.0094 Uiso
C1_4 C 0.8336(6) 0.6030(10) 0.1395(27) 0.0460 Uiso
C2_4 C 0.7354(6) 0.65288(35) 0.0318(23) 0.0460 Uiso
C4_4 C 0.80456(33) 0.7780(7) 0.1635(21) 0.0460 Uiso
N1_4 N 0.79855(33) 0.6858(6) 0.0201(27) 0.0760 Uiso
O10_4 O 0.5613(5) 0.8381(8) 0.0027(23) 0.0261 Uiso
C7_4 C 0.7783(7) 0.9081(7) 0.203(4) 0.2240 Uiso
H1_4 H 0.850933 0.801213 0.213692 . .
H2_4 H 0.7867 0.771638 0.326203 . .
H6_4 H 0.723157 0.632166 0.20001 . .
H7_4 H 0.818035 0.584156 0.301983 . .
H8_4 H 0.826862 0.544165 0.0136399 . .
H11_4 H 0.826503 0.91676 0.264456 . .
H12_4 H 0.757336 0.976491 0.164221 . .
H13_4 H 0.760634 0.873655 0.344374 . .
C3_4 C 0.7217(7) 0.5919(7) 0.797(4) 0.2240 Uiso
P2_4 P 0.58433(26) 0.8678(5) 0.7736(10) 0.0094 Uiso
O8_4 O 0.5671(5) 0.8002(9) 0.5328(24) 0.0261 Uiso
C5_4 C 0.6664(6) 0.8970(10) 0.8605(27) 0.0460 Uiso
C6_4 C 0.7646(6) 0.84712(35) 0.9682(23) 0.0460 Uiso
C8_4 C 0.69544(33) 0.7220(7) 0.8365(21) 0.0460 Uiso
N2_4 N 0.70145(33) 0.8142(6) 0.9799(27) 0.0760 Uiso
H3_4 H 0.754737 0.536105 0.812897 . .
H4_4 H 0.677202 0.561491 0.773449 . .
H5_4 H 0.723589 0.635499 0.640603 . .
H9_4 H 0.673138 0.955835 0.98636 . .
H10_4 H 0.681965 0.915844 0.698017 . .
H14_4 H 0.776843 0.867834 0.79999 . .
H15_4 H 0.649067 0.698787 0.786308 . .
H16_4 H 0.7133 0.728362 0.673797 . .
H3_5 H 0.254737 0.963895 0.312897 . .
H4_5 H 0.177202 0.938509 0.273449 . .
H5_5 H 0.223589 0.864501 0.140603 . .
H11_5 H 0.326503 0.58324 0.764456 . .
H12_5 H 0.257336 0.523509 0.664221 . .
H13_5 H 0.260634 0.626345 0.844374 . .
H3_6 H 0.745263 0.963895 0.187103 . .
H4_6 H 0.822798 0.938509 0.226551 . .
H5_6 H 0.776411 0.864501 0.359397 . .
H11_6 H 0.673497 0.58324 0.735544 . .
H12_6 H 0.742664 0.523509 0.835779 . .
H13_6 H 0.739366 0.626345 0.655626 . .
H3_7 H 0.754737 0.463895 0.312897 . .
H4_7 H 0.677202 0.438509 0.273449 . .
H5_7 H 0.723589 0.364501 0.140603 . .
H11_7 H 0.826503 0.0832401 0.764456 . .
H12_7 H 0.757336 0.0235092 0.664221 . .
H13_7 H 0.760634 0.126345 0.844374 . .
H3_8 H 0.245263 0.463895 0.187103 . .
H4_8 H 0.322798 0.438509 0.226551 . .
H5_8 H 0.276411 0.364501 0.359397 . .
H11_8 H 0.173497 0.0832401 0.735544 . .
H12_8 H 0.242664 0.0235092 0.835779 . .
H13_8 H 0.239366 0.126345 0.655626 . .
Na1 Na 0.5 0.3304(10) 0.25 0.0530 Uiso
Na1_2 Na 0.0 0.8304(10) 0.25 0.0530 Uiso
Na1_3 Na 1.0 0.8304(10) 0.25 0.0530 Uiso
Na1_4 Na 0.5 0.6696(10) 0.75 0.0530 Uiso
Na1_5 Na 0.0 0.1696(10) 0.75 0.0530 Uiso
Na1_6 Na 1.0 0.1696(10) 0.75 0.0530 Uiso
loop_
_geom_bond_atom_site_label_1
_geom_bond_atom_site_label_2
_geom_bond_site_symmetry_1
_geom_bond_site_symmetry_2
P1 O1 1_555 1_555
O3 P1 1_555 1_555
C1 P1 1_555 1_555
C2 C3 1_555 1_555
C4 N1 1_555 1_555
N1 C1 1_555 1_555
Ce3 O3 1_555 1_555
Ce5_2 O4 1_555 1_555
Ce4_2 O10 1_555 1_555
P2 O4 1_555 1_555
O10 P2 1_555 1_555
C5 P2 1_555 1_555
C6 C4 1_555 1_555
C7 C6 1_555 1_555
C8 C2 1_555 1_555
N2 C5 1_555 1_555
P1 O2 1_555 1_555
C2 N1 1_555 1_555
P2 O8 1_555 1_555
C6 N2 1_555 1_555
C8 N2 1_555 1_555
C4 H1 1_555 1_555
C4 H2 1_555 1_555
C3 H3 1_555 1_555
C3 H4 1_555 1_555
C3 H5 1_555 1_555
C2 H6 1_555 1_555
C1 H7 1_555 1_555
C1 H8 1_555 1_555
C5 H9 1_555 1_555
C5 H10 1_555 1_555
C7 H11 1_555 1_555
C7 H12 1_555 1_555
C7 H13 1_555 1_555
C6 H14 1_555 1_555
C8 H15 1_555 1_555
C8 H16 1_555 1_555
O6 Ce3 1_555 1_555
O9 Ce3 1_555 1_555
O12 Ce3 1_555 1_555
P1_2 O6 1_555 1_555
C1_2 P1_2 1_555 1_555
C4_2 N1_2 1_555 1_555
N1_2 C1_2 1_555 1_555
Ce4 O10_2 1_555 1_555
P1_2 O9 1_555 1_555
C2_2 N1_2 1_555 1_555
C4_2 H1_2 1_555 1_555
C4_2 H2_2 1_555 1_555
C2_2 H6_2 1_555 1_555
C1_2 H7_2 1_555 1_555
C1_2 H8_2 1_555 1_555
C7_2 H11_2 1_555 1_555
C7_2 H12_2 1_555 1_555
C7_2 H13_2 1_555 1_555
Ce4 O4_2 1_555 1_555
Ce5 O4_2 1_555 1_555
P2_2 O4_2 1_555 1_555
O8_2 Ce4 1_555 1_555
C5_2 P2_2 1_555 1_555
N2_2 C5_2 1_555 1_555
P2_2 O8_2 1_555 1_555
C6_2 N2_2 1_555 1_555
C8_2 N2_2 1_555 1_555
C3_2 H3_2 1_555 1_555
C3_2 H4_2 1_555 1_555
C3_2 H5_2 1_555 1_555
C5_2 H9_2 1_555 1_555
C5_2 H10_2 1_555 1_555
C6_2 H14_2 1_555 1_555
C8_2 H15_2 1_555 1_555
C8_2 H16_2 1_555 1_555
Ce2 O7 1_555 1_555
P1_3 O1_2 1_555 1_555
O1_2 Ce4 1_555 1_555
O3_2 P1_3 1_555 1_555
C1_3 P1_3 1_555 1_555
C2_3 C3_3 1_555 1_555
C4_3 N1_3 1_555 1_555
N1_3 C1_3 1_555 1_555
Ce5 O3_2 1_555 1_555
Ce2 O10_3 1_555 1_555
P2_3 O5 1_555 1_555
O10_3 P2_3 1_555 1_555
C5_3 P2_3 1_555 1_555
C6_3 C4_3 1_555 1_555
C7_3 C6_3 1_555 1_555
C8_3 C2_3 1_555 1_555
N2_3 C5_3 1_555 1_555
P1_3 O2_2 1_555 1_555
C2_3 N1_3 1_555 1_555
P2_3 O8_3 1_555 1_555
C6_3 N2_3 1_555 1_555
C8_3 N2_3 1_555 1_555
C4_3 H1_3 1_555 1_555
C4_3 H2_3 1_555 1_555
C3_3 H3_3 1_555 1_555
C3_3 H4_3 1_555 1_555
C3_3 H5_3 1_555 1_555
C2_3 H6_3 1_555 1_555
C1_3 H7_3 1_555 1_555
C1_3 H8_3 1_555 1_555
C5_3 H9_3 1_555 1_555
C5_3 H10_3 1_555 1_555
C7_3 H11_3 1_555 1_555
C7_3 H12_3 1_555 1_555
C7_3 H13_3 1_555 1_555
C6_3 H14_3 1_555 1_555
C8_3 H15_3 1_555 1_555
C8_3 H16_3 1_555 1_555
O6_2 Ce5_2 1_555 1_555
O9_2 Ce5_2 1_555 1_555
O12_2 Ce5_2 1_555 1_555
P1_4 O6_2 1_555 1_555
O6_2 Ce4_2 1_555 1_555
C1_4 P1_4 1_555 1_555
C4_4 N1_4 1_555 1_555
N1_4 C1_4 1_555 1_555
Ce2 O10_4 1_555 1_555
P1_4 O9_2 1_555 1_555
C2_4 N1_4 1_555 1_555
C4_4 H1_4 1_555 1_555
C4_4 H2_4 1_555 1_555
C2_4 H6_4 1_555 1_555
C1_4 H7_4 1_555 1_555
C1_4 H8_4 1_555 1_555
C7_4 H11_4 1_555 1_555
C7_4 H12_4 1_555 1_555
C7_4 H13_4 1_555 1_555
P2_4 O7 1_555 1_555
O8_4 Ce2 1_555 1_555
C5_4 P2_4 1_555 1_555
N2_4 C5_4 1_555 1_555
P2_4 O8_4 1_555 1_555
C6_4 N2_4 1_555 1_555
C8_4 N2_4 1_555 1_555
C3_4 H3_4 1_555 1_555
C3_4 H4_4 1_555 1_555
C3_4 H5_4 1_555 1_555
C5_4 H9_4 1_555 1_555
C5_4 H10_4 1_555 1_555
C6_4 H14_4 1_555 1_555
C8_4 H15_4 1_555 1_555
C8_4 H16_4 1_555 1_555
C7_3 H3_5 1_555 1_555
C7_3 H4_5 1_555 1_555
C7_3 H5_5 1_555 1_555
C3_3 H11_5 1_555 1_555
C3_3 H12_5 1_555 1_555
C3_3 H13_5 1_555 1_555
C7_4 H3_6 1_555 1_555
C7_4 H4_6 1_555 1_555
C7_4 H5_6 1_555 1_555
C3_4 H11_6 1_555 1_555
C3_4 H12_6 1_555 1_555
C3_4 H13_6 1_555 1_555
C7 H3_7 1_555 1_555
C7 H4_7 1_555 1_555
C7 H5_7 1_555 1_555
C3 H11_7 1_555 1_555
C3 H12_7 1_555 1_555
C3 H13_7 1_555 1_555
C7_2 H3_8 1_555 1_555
C7_2 H4_8 1_555 1_555
C7_2 H5_8 1_555 1_555
C3_2 H11_8 1_555 1_555
C3_2 H12_8 1_555 1_555
C3_2 H13_8 1_555 1_555

#END
