
###############################################################################
#
# This file contains modified crystal structure data generated from the
# MOF subset of the Cambridge Structural Database (CSD) v543 
# hosted by the Cambridge Crystallographic Data Centre (CCDC).
#
# This work is licensed under the Creative Commons
# Attribution-NonCommercial-ShareAlike 4.0 International License.
# To view a copy of this license, visit
# http://creativecommons.org/licenses/by-nc-sa/4.0/
# or send a letter to
# Creative Commons, PO Box 1866, Mountain View, CA 94042, USA.
#
# CIF created using the CSD Python API on 29 September 2022
# The structure has been converted into the P1 space group
# The structure has a 3D framework
# The original CSD entry CUMJEB is in the rhombohedral crystal system
# The framework has been calculated to contain at least 10.0% void space
# The void calculation uses a probe of radius 1.32A, grid spacing 0.4
#
###############################################################################

data_CUMJEB
_chemical_formula_moiety         '(C72 H90 Cd18 N162)n'
_symmetry_cell_setting           triclinic
_symmetry_space_group_name_H-M   'P 1'
_symmetry_Int_Tables_number      1
_space_group_name_Hall           'P 1'
loop_
_symmetry_equiv_pos_site_id
_symmetry_equiv_pos_as_xyz
1 x,y,z
_cell_length_a                   20.8197(13)
_cell_length_b                   20.8197(13)
_cell_length_c                   11.5581(15)
_cell_angle_alpha                90
_cell_angle_beta                 90
_cell_angle_gamma                120
_cell_volume                     4338.76
loop_
_atom_site_label
_atom_site_type_symbol
_atom_site_fract_x
_atom_site_fract_y
_atom_site_fract_z
H1 H 0.2258 0.0101 0.1450
N10 N 0.56766(16) 0.05006(22) 0.1627(2)
N11 N 0.43794(23) 0.07852(17) 0.2575(3)
N13 N 0.57289(16) 0.06047(23) 0.4173(3)
N2 N 0.25481(17) 0.02608(16) 0.9242(3)
N3 N 0.25285(18) 0.00393(16) 0.8143(3)
Cd3 Cd 0.349551(13) 0.145510(18) 0.96891(2)
C1 C 0.1889(2) 0.9646(2) 0.1081(3)
H2 H 0.1415 0.9627 0.1130
C2 C 0.2537(2) 0.9168(2) 0.2279(3)
H3 H 0.2423 0.8918 0.3021
H4 H 0.2834 0.9697 0.2422
C4 C 0.29769(18) 0.89246(19) 0.1573(3)
Cd1 Cd 0.462625(12) 0.983782(13) 0.30224(2)
N1 N 0.18426(15) 0.90099(16) 0.1706(2)
H5 H 0.1484 0.8867 0.2257
N6 N 0.26981(16) 0.84697(17) 0.0670(3)
N7 N 0.32421(18) 0.83470(18) 0.0299(3)
N8 N 0.38271(18) 0.87177(19) 0.0949(3)
N9 N 0.36736(16) 0.90907(17) 0.1769(3)
Cd4 Cd 0.145510(18) 0.795958(12) 0.03109(2)
N12 N 0.40079(15) 0.94253(22) 0.4769(2)
N14 N 0.51364(17) 0.91049(23) 0.2663(3)
C3 C 0.2091(2) 0.96605(19) 0.9830(3)
N4 N 0.20840(16) 0.93254(15) 0.8102(2)
N5 N 0.17908(17) 0.90622(16) 0.9160(3)
Cd2 Cd 0.187824(18) 0.870708(12) 0.63557(2)
C1_2 C 0.0354(2) 0.2243(3) 0.1081(3)
H2_2 H 0.0373 0.1788 0.1130
C2_2 C 0.0832(2) 0.3369(3) 0.2279(3)
H3_2 H 0.1082 0.3505 0.3021
H4_2 H 0.0303 0.3137 0.2422
C4_2 C 0.10754(19) 0.40523(26) 0.1573(3)
Cd1_2 Cd 0.016218(13) 0.478843(18) 0.30224(2)
N1_2 N 0.09901(16) 0.28327(22) 0.1706(2)
H5_2 H 0.1133 0.2617 0.2257
N6_2 N 0.15303(17) 0.42284(23) 0.0670(3)
N7_2 N 0.16530(18) 0.48951(25) 0.0299(3)
N8_2 N 0.12823(19) 0.51094(26) 0.0949(3)
N9_2 N 0.09093(17) 0.45829(23) 0.1769(3)
Cd4_2 Cd 0.204042(12) 0.349551(22) 0.03109(2)
N12_2 N 0.05747(22) 0.45827(27) 0.4769(2)
N14_2 N 0.08951(23) 0.60314(29) 0.2663(3)
C3_2 C 0.03395(19) 0.24305(28) 0.9830(3)
N4_2 N 0.06746(15) 0.27586(22) 0.8102(2)
N5_2 N 0.09378(16) 0.27286(23) 0.9160(3)
Cd2_2 Cd 0.129292(12) 0.317115(22) 0.63557(2)
H1_2 H 0.9899 0.2157 0.1450
N10_2 N 0.94994(22) 0.51759(27) 0.1627(2)
N11_2 N 0.92148(17) 0.35941(29) 0.2575(3)
N13_2 N 0.93953(23) 0.51241(28) 0.4173(3)
N2_2 N 0.97392(16) 0.22873(23) 0.9242(3)
N3_2 N 0.99607(16) 0.24892(24) 0.8143(3)
Cd3_2 Cd 0.854490(18) 0.204042(22) 0.96891(2)
C1_3 C 0.7757(3) 0.8111(2) 0.1081(3)
H1_3 H 0.7843 0.7742 0.1450
H2_3 H 0.8212 0.8585 0.1130
C2_3 C 0.6631(3) 0.7463(2) 0.2279(3)
H3_3 H 0.6495 0.7577 0.3021
H4_3 H 0.6863 0.7166 0.2422
C4_3 C 0.59477(26) 0.70231(18) 0.1573(3)
Cd1_3 Cd 0.521157(18) 0.537375(12) 0.30224(2)
N1_3 N 0.71673(22) 0.81574(15) 0.1706(2)
H5_3 H 0.7383 0.8516 0.2257
N6_3 N 0.57716(23) 0.73019(16) 0.0670(3)
N7_3 N 0.51049(25) 0.67579(18) 0.0299(3)
N8_3 N 0.48906(26) 0.61729(18) 0.0949(3)
N9_3 N 0.54171(23) 0.63264(16) 0.1769(3)
Cd4_3 Cd 0.650449(22) 0.854490(18) 0.03109(2)
N10_3 N 0.48241(27) 0.43234(16) 0.1627(2)
N11_3 N 0.64059(29) 0.56206(23) 0.2575(3)
N12_3 N 0.54173(27) 0.59921(15) 0.4769(2)
N13_3 N 0.48759(28) 0.42711(16) 0.4173(3)
N14_3 N 0.39686(29) 0.48636(17) 0.2663(3)
C3_3 C 0.75695(28) 0.7909(2) 0.9830(3)
N2_3 N 0.77127(23) 0.74519(17) 0.9242(3)
N3_3 N 0.75108(24) 0.74715(18) 0.8143(3)
N4_3 N 0.72414(22) 0.79160(16) 0.8102(2)
N5_3 N 0.72714(23) 0.82092(17) 0.9160(3)
Cd2_3 Cd 0.682885(22) 0.812176(18) 0.63557(2)
Cd3_3 Cd 0.795958(22) 0.650449(13) 0.96891(2)
N8_4 N 0.04938(18) 0.20510(19) 0.4282(3)
N9_4 N 0.03403(16) 0.24240(17) 0.5102(3)
N10_4 N 0.23432(16) 0.38340(22) 0.4961(2)
N11_4 N 0.10460(23) 0.41186(17) 0.5909(3)
N13_4 N 0.23955(16) 0.39381(23) 0.7507(3)
N14_4 N 0.18030(17) 0.24383(23) 0.5997(3)
C1_4 C 0.8556(2) 0.2979(2) 0.4414(3)
H1_4 H 0.8925 0.3434 0.4783
H2_4 H 0.8082 0.2960 0.4463
C2_4 C 0.9204(2) 0.2501(2) 0.5612(3)
H3_4 H 0.9090 0.2251 0.6354
H4_4 H 0.9501 0.3030 0.5755
C3_4 C 0.8758(2) 0.29938(19) 0.3163(3)
C4_4 C 0.96436(18) 0.22579(19) 0.4906(3)
N1_4 N 0.85093(15) 0.23432(16) 0.5039(2)
H5_4 H 0.8151 0.2200 0.5590
N3_4 N 0.91952(18) 0.33726(16) 0.1476(3)
N4_4 N 0.87507(16) 0.26587(15) 0.1435(2)
N5_4 N 0.84575(17) 0.23955(16) 0.2493(3)
N6_4 N 0.93648(16) 0.18030(17) 0.4003(3)
N7_4 N 0.99088(18) 0.16803(18) 0.3632(3)
Cd4_4 Cd 0.812176(18) 0.129292(12) 0.36443(2)
C1_5 C 0.7021(2) 0.5576(3) 0.4414(3)
H1_5 H 0.6566 0.5490 0.4783
H2_5 H 0.7040 0.5121 0.4463
C2_5 C 0.7499(2) 0.6702(3) 0.5612(3)
H3_5 H 0.7749 0.6838 0.6354
H4_5 H 0.6970 0.6470 0.5755
C3_5 C 0.70062(19) 0.57638(28) 0.3163(3)
C4_5 C 0.77421(19) 0.73856(26) 0.4906(3)
N1_5 N 0.76568(16) 0.61660(22) 0.5039(2)
H5_5 H 0.7800 0.5950 0.5590
N3_5 N 0.66274(16) 0.58225(24) 0.1476(3)
N4_5 N 0.73413(15) 0.60919(22) 0.1435(2)
N5_5 N 0.76045(16) 0.60619(23) 0.2493(3)
N6_5 N 0.81970(17) 0.75617(23) 0.4003(3)
N7_5 N 0.83197(18) 0.82284(25) 0.3632(3)
N8_5 N 0.79490(19) 0.84427(26) 0.4282(3)
N9_5 N 0.75760(17) 0.79162(23) 0.5102(3)
Cd4_5 Cd 0.870708(12) 0.682885(22) 0.36443(2)
N10_5 N 0.61660(22) 0.85093(27) 0.4961(2)
N11_5 N 0.58814(17) 0.69275(29) 0.5909(3)
N13_5 N 0.60619(23) 0.84575(28) 0.7507(3)
N14_5 N 0.75617(23) 0.93648(29) 0.5997(3)
C1_6 C 0.4424(3) 0.1444(2) 0.4414(3)
H1_6 H 0.4510 0.1075 0.4783
H2_6 H 0.4879 0.1918 0.4463
C2_6 C 0.3298(3) 0.0796(2) 0.5612(3)
H3_6 H 0.3162 0.0910 0.6354
H4_6 H 0.3530 0.0499 0.5755
C3_6 C 0.42362(28) 0.1242(2) 0.3163(3)
C4_6 C 0.26144(26) 0.03564(18) 0.4906(3)
N1_6 N 0.38340(22) 0.14907(15) 0.5039(2)
H5_6 H 0.4050 0.1849 0.5590
N3_6 N 0.41775(24) 0.08048(18) 0.1476(3)
N4_6 N 0.39081(22) 0.12493(16) 0.1435(2)
N5_6 N 0.39381(23) 0.15425(17) 0.2493(3)
N6_6 N 0.24383(23) 0.06352(16) 0.4003(3)
N7_6 N 0.17716(25) 0.00912(18) 0.3632(3)
Cd4_6 Cd 0.317115(22) 0.187824(18) 0.36443(2)
N8_6 N 0.15573(26) 0.95062(18) 0.4282(3)
N9_6 N 0.20838(23) 0.96597(16) 0.5102(3)
N10_6 N 0.14907(27) 0.76568(16) 0.4961(2)
N11_6 N 0.30725(29) 0.89540(23) 0.5909(3)
N13_6 N 0.15425(28) 0.76045(16) 0.7507(3)
N14_6 N 0.06352(29) 0.81970(17) 0.5997(3)
N13_7 N 0.90622(16) 0.72714(23) 0.0840(3)
C1_7 C 0.5222(2) 0.6313(2) 0.7748(3)
H1_7 H 0.5591 0.6768 0.8117
H2_7 H 0.4748 0.6294 0.7797
C2_7 C 0.5870(2) 0.5835(2) 0.8946(3)
H3_7 H 0.5756 0.5585 0.9688
H4_7 H 0.6167 0.6364 0.9089
C3_7 C 0.5424(2) 0.63272(19) 0.6497(3)
C4_7 C 0.63102(18) 0.55913(19) 0.8240(3)
N1_7 N 0.51759(15) 0.56766(16) 0.8373(2)
H5_7 H 0.4817 0.5534 0.8924
N3_7 N 0.58618(18) 0.67060(16) 0.4810(3)
N5_7 N 0.51241(17) 0.57289(16) 0.5827(3)
N6_7 N 0.60314(16) 0.51364(17) 0.7337(3)
N7_7 N 0.65754(18) 0.50137(18) 0.6966(3)
N8_7 N 0.71604(18) 0.53844(19) 0.7616(3)
N9_7 N 0.70069(16) 0.57574(17) 0.8436(3)
Cd4_7 Cd 0.478843(18) 0.462625(12) 0.69776(2)
N10_7 N 0.90099(16) 0.71673(22) 0.8294(2)
N14_7 N 0.84697(17) 0.57716(23) 0.9330(3)
N13_8 N 0.27286(23) 0.17908(28) 0.0840(3)
C2_8 C 0.4165(2) 0.0036(3) 0.8946(3)
H3_8 H 0.4415 0.0172 0.9688
C4_8 C 0.44087(19) 0.07190(26) 0.8240(3)
N6_8 N 0.48636(17) 0.08951(23) 0.7337(3)
N7_8 N 0.49863(18) 0.15618(25) 0.6966(3)
N8_8 N 0.46156(19) 0.17761(26) 0.7616(3)
N9_8 N 0.42426(17) 0.12496(23) 0.8436(3)
Cd4_8 Cd 0.537375(12) 0.016218(22) 0.69776(2)
N10_8 N 0.28327(22) 0.18426(27) 0.8294(2)
N14_8 N 0.42284(23) 0.26981(29) 0.9330(3)
C1_8 C 0.3687(2) 0.8910(3) 0.7748(3)
H1_8 H 0.3232 0.8824 0.8117
H2_8 H 0.3706 0.8455 0.7797
H4_8 H 0.3636 0.9804 0.9089
C3_8 C 0.36728(19) 0.90972(28) 0.6497(3)
N1_8 N 0.43234(16) 0.94994(22) 0.8373(2)
H5_8 H 0.4466 0.9284 0.8924
N3_8 N 0.32940(16) 0.91559(24) 0.4810(3)
N5_8 N 0.42711(16) 0.93953(23) 0.5827(3)
C1_9 C 0.1090(3) 0.4778(2) 0.7748(3)
H1_9 H 0.1176 0.4409 0.8117
H2_9 H 0.1545 0.5252 0.7797
H4_9 H 0.0196 0.3833 0.9089
C3_9 C 0.09028(28) 0.4576(2) 0.6497(3)
N1_9 N 0.05006(22) 0.48241(15) 0.8373(2)
H5_9 H 0.0716 0.5183 0.8924
N3_9 N 0.08441(24) 0.41382(18) 0.4810(3)
N5_9 N 0.06047(23) 0.48759(17) 0.5827(3)
N13_9 N 0.82092(28) 0.09378(16) 0.0840(3)
C2_9 C 0.9964(3) 0.4130(2) 0.8946(3)
H3_9 H 0.9828 0.4244 0.9688
C4_9 C 0.92810(26) 0.36898(18) 0.8240(3)
N6_9 N 0.91049(23) 0.39686(16) 0.7337(3)
N7_9 N 0.84382(25) 0.34246(18) 0.6966(3)
N8_9 N 0.82239(26) 0.28396(18) 0.7616(3)
N9_9 N 0.87504(23) 0.29931(16) 0.8436(3)
Cd4_9 Cd 0.983782(22) 0.521157(18) 0.69776(2)
N10_9 N 0.81574(27) 0.09901(16) 0.8294(2)
N14_9 N 0.73019(29) 0.15303(17) 0.9330(3)
C3_10 C 0.7909(2) 0.03395(19) 0.0170(3)
N4_7 N 0.79160(16) 0.06746(15) 0.1898(2)
C1_10 C 0.8111(2) 0.0354(2) 0.8919(3)
H2_10 H 0.8585 0.0373 0.8870
C2_10 C 0.7463(2) 0.0832(2) 0.7721(3)
H3_10 H 0.7577 0.1082 0.6979
H4_10 H 0.7166 0.0303 0.7578
C4_10 C 0.70231(18) 0.10754(19) 0.8427(3)
H5_10 H 0.8516 0.1133 0.7743
N7_10 N 0.67579(18) 0.16530(18) 0.9701(3)
N8_10 N 0.61729(18) 0.12823(19) 0.9051(3)
N9_10 N 0.63264(16) 0.09093(17) 0.8231(3)
N12_4 N 0.59921(15) 0.05747(22) 0.5231(2)
N2_4 N 0.74519(17) 0.97392(16) 0.0758(3)
N3_10 N 0.74715(18) 0.99607(16) 0.1857(3)
H1_10 H 0.7742 0.9899 0.8550
N11_7 N 0.56206(23) 0.92148(17) 0.7425(3)
N2_5 N 0.02608(16) 0.77127(23) 0.0758(3)
N3_11 N 0.00393(16) 0.75108(24) 0.1857(3)
H1_11 H 0.0101 0.7843 0.8550
N11_8 N 0.07852(17) 0.64059(29) 0.7425(3)
C3_11 C 0.96605(19) 0.75695(28) 0.0170(3)
N4_8 N 0.93254(15) 0.72414(22) 0.1898(2)
C1_11 C 0.9646(2) 0.7757(3) 0.8919(3)
H2_11 H 0.9627 0.8212 0.8870
C2_11 C 0.9168(2) 0.6631(3) 0.7721(3)
H3_11 H 0.8918 0.6495 0.6979
H4_11 H 0.9697 0.6863 0.7578
C4_11 C 0.89246(19) 0.59477(26) 0.8427(3)
H5_11 H 0.8867 0.7383 0.7743
N7_11 N 0.83470(18) 0.51049(25) 0.9701(3)
N8_11 N 0.87177(19) 0.48906(26) 0.9051(3)
N9_11 N 0.90907(17) 0.54171(23) 0.8231(3)
N12_5 N 0.94253(22) 0.54173(27) 0.5231(2)
C3_12 C 0.24305(28) 0.2091(2) 0.0170(3)
N2_6 N 0.22873(23) 0.25481(17) 0.0758(3)
N3_12 N 0.24892(24) 0.25285(18) 0.1857(3)
N4_9 N 0.27586(22) 0.20840(16) 0.1898(2)
C1_12 C 0.2243(3) 0.1889(2) 0.8919(3)
H1_12 H 0.2157 0.2258 0.8550
H2_12 H 0.1788 0.1415 0.8870
C2_12 C 0.3369(3) 0.2537(2) 0.7721(3)
H3_12 H 0.3505 0.2423 0.6979
H4_12 H 0.3137 0.2834 0.7578
C4_12 C 0.40523(26) 0.29769(18) 0.8427(3)
H5_12 H 0.2617 0.1484 0.7743
N7_12 N 0.48951(25) 0.32421(18) 0.9701(3)
N8_12 N 0.51094(26) 0.38271(18) 0.9051(3)
N9_12 N 0.45829(23) 0.36736(16) 0.8231(3)
N11_9 N 0.35941(29) 0.43794(23) 0.7425(3)
N12_6 N 0.45827(27) 0.40079(15) 0.5231(2)
C1_13 C 0.1444(2) 0.7021(2) 0.5586(3)
H1_13 H 0.1075 0.6566 0.5217
H2_13 H 0.1918 0.7040 0.5537
C2_13 C 0.0796(2) 0.7499(2) 0.4388(3)
H3_13 H 0.0910 0.7749 0.3646
H4_13 H 0.0499 0.6970 0.4245
C3_13 C 0.1242(2) 0.70062(19) 0.6837(3)
C4_13 C 0.03564(18) 0.77421(19) 0.5094(3)
H5_13 H 0.1849 0.7800 0.4410
N3_13 N 0.08048(18) 0.66274(16) 0.8524(3)
N4_10 N 0.12493(16) 0.73413(15) 0.8565(2)
N7_13 N 0.00912(18) 0.83197(18) 0.6368(3)
N8_13 N 0.95062(18) 0.79490(19) 0.5718(3)
N9_13 N 0.96597(16) 0.75760(17) 0.4898(3)
N11_10 N 0.89540(23) 0.58814(17) 0.4091(3)
C1_14 C 0.2979(2) 0.4424(3) 0.5586(3)
H1_14 H 0.3434 0.4510 0.5217
H2_14 H 0.2960 0.4879 0.5537
C2_14 C 0.2501(2) 0.3298(3) 0.4388(3)
H3_14 H 0.2251 0.3162 0.3646
H4_14 H 0.3030 0.3530 0.4245
C3_14 C 0.29938(19) 0.42362(28) 0.6837(3)
C4_14 C 0.22579(19) 0.26144(26) 0.5094(3)
H5_14 H 0.2200 0.4050 0.4410
N3_14 N 0.33726(16) 0.41775(24) 0.8524(3)
N4_11 N 0.26587(15) 0.39081(22) 0.8565(2)
N7_14 N 0.16803(18) 0.17716(25) 0.6368(3)
N8_14 N 0.20510(19) 0.15573(26) 0.5718(3)
N9_14 N 0.24240(17) 0.20838(23) 0.4898(3)
N11_11 N 0.41186(17) 0.30725(29) 0.4091(3)
N8_15 N 0.84427(26) 0.04938(18) 0.5718(3)
N9_15 N 0.79162(23) 0.03403(16) 0.4898(3)
N11_12 N 0.69275(29) 0.10460(23) 0.4091(3)
C1_15 C 0.5576(3) 0.8556(2) 0.5586(3)
H1_15 H 0.5490 0.8925 0.5217
H2_15 H 0.5121 0.8082 0.5537
C2_15 C 0.6702(3) 0.9204(2) 0.4388(3)
H3_15 H 0.6838 0.9090 0.3646
H4_15 H 0.6470 0.9501 0.4245
C3_15 C 0.57638(28) 0.8758(2) 0.6837(3)
C4_15 C 0.73856(26) 0.96436(18) 0.5094(3)
H5_15 H 0.5950 0.8151 0.4410
N3_15 N 0.58225(24) 0.91952(18) 0.8524(3)
N4_12 N 0.60919(22) 0.87507(16) 0.8565(2)
N7_15 N 0.82284(25) 0.99088(18) 0.6368(3)
C1_16 C 0.4778(2) 0.3687(2) 0.2252(3)
H1_16 H 0.4409 0.3232 0.1883
H2_16 H 0.5252 0.3706 0.2203
C2_16 C 0.4130(2) 0.4165(2) 0.1054(3)
H3_16 H 0.4244 0.4415 0.0312
H4_16 H 0.3833 0.3636 0.0911
C3_16 C 0.4576(2) 0.36728(19) 0.3503(3)
C4_16 C 0.36898(18) 0.44087(19) 0.1760(3)
H5_16 H 0.5183 0.4466 0.1076
N3_16 N 0.41382(18) 0.32940(16) 0.5190(3)
N7_16 N 0.34246(18) 0.49863(18) 0.3034(3)
N8_16 N 0.28396(18) 0.46156(19) 0.2384(3)
N9_16 N 0.29931(16) 0.42426(17) 0.1564(3)
C1_17 C 0.6313(2) 0.1090(3) 0.2252(3)
H1_17 H 0.6768 0.1176 0.1883
H2_17 H 0.6294 0.1545 0.2203
H4_17 H 0.6364 0.0196 0.0911
C3_17 C 0.63272(19) 0.09028(28) 0.3503(3)
H5_17 H 0.5534 0.0716 0.1076
N3_17 N 0.67060(16) 0.08441(24) 0.5190(3)
C2_17 C 0.5835(2) 0.9964(3) 0.1054(3)
H3_17 H 0.5585 0.9828 0.0312
C4_17 C 0.55913(19) 0.92810(26) 0.1760(3)
N7_17 N 0.50137(18) 0.84382(25) 0.3034(3)
N8_17 N 0.53844(19) 0.82239(26) 0.2384(3)
N9_17 N 0.57574(17) 0.87504(23) 0.1564(3)
C2_18 C 0.0036(3) 0.5870(2) 0.1054(3)
H3_18 H 0.0172 0.5756 0.0312
C4_18 C 0.07190(26) 0.63102(18) 0.1760(3)
N7_18 N 0.15618(25) 0.65754(18) 0.3034(3)
N8_18 N 0.17761(26) 0.71604(18) 0.2384(3)
N9_18 N 0.12496(23) 0.70069(16) 0.1564(3)
C1_18 C 0.8910(3) 0.5222(2) 0.2252(3)
H1_18 H 0.8824 0.5591 0.1883
H2_18 H 0.8455 0.4748 0.2203
H4_18 H 0.9804 0.6167 0.0911
C3_18 C 0.90972(28) 0.5424(2) 0.3503(3)
H5_18 H 0.9284 0.4817 0.1076
N3_18 N 0.91559(24) 0.58618(18) 0.5190(3)
loop_
_geom_bond_atom_site_label_1
_geom_bond_atom_site_label_2
_geom_bond_site_symmetry_1
_geom_bond_site_symmetry_2
N3 N2 1_555 1_555
Cd3 N2 1_555 1_555
H2 C1 1_555 1_555
C2 H3 1_555 1_555
H4 C2 1_555 1_555
C4 C2 1_555 1_555
Cd1 N9 1_555 1_555
N1 C1 1_555 1_555
H5 N1 1_555 1_555
N6 C4 1_555 1_555
N7 N6 1_555 1_555
N8 N7 1_555 1_555
N9 C4 1_555 1_555
Cd4 N1 1_555 1_555
N12 Cd1 1_555 1_555
N14 Cd1 1_555 1_555
C2 N1 1_555 1_555
N6 Cd4 1_555 1_555
N8 N9 1_555 1_555
N5 C3 1_555 1_555
Cd2 N4 1_555 1_555
N4 N5 1_555 1_555
H2_2 C1_2 1_555 1_555
C2_2 H3_2 1_555 1_555
H4_2 C2_2 1_555 1_555
C4_2 C2_2 1_555 1_555
Cd1_2 N9_2 1_555 1_555
N1_2 C1_2 1_555 1_555
H5_2 N1_2 1_555 1_555
N6_2 C4_2 1_555 1_555
N7_2 N6_2 1_555 1_555
N8_2 N7_2 1_555 1_555
N9_2 C4_2 1_555 1_555
Cd4_2 N1_2 1_555 1_555
N12_2 Cd1_2 1_555 1_555
N14_2 Cd1_2 1_555 1_555
C2_2 N1_2 1_555 1_555
N6_2 Cd4_2 1_555 1_555
N8_2 N9_2 1_555 1_555
N5_2 C3_2 1_555 1_555
Cd2_2 N4_2 1_555 1_555
N4_2 N5_2 1_555 1_555
N3_2 N2_2 1_555 1_555
Cd3_2 N2_2 1_555 1_555
C1_3 H1_3 1_555 1_555
H2_3 C1_3 1_555 1_555
C2_3 H3_3 1_555 1_555
H4_3 C2_3 1_555 1_555
C4_3 C2_3 1_555 1_555
Cd1_3 N9_3 1_555 1_555
N1_3 C1_3 1_555 1_555
H5_3 N1_3 1_555 1_555
N6_3 C4_3 1_555 1_555
N7_3 N6_3 1_555 1_555
N8_3 N7_3 1_555 1_555
N9_3 C4_3 1_555 1_555
Cd4_3 N1_3 1_555 1_555
N10_3 Cd1_3 1_555 1_555
N11_3 Cd1_3 1_555 1_555
N12_3 Cd1_3 1_555 1_555
N13_3 Cd1_3 1_555 1_555
N14_3 Cd1_3 1_555 1_555
C2_3 N1_3 1_555 1_555
N6_3 Cd4_3 1_555 1_555
N8_3 N9_3 1_555 1_555
N2_3 C3_3 1_555 1_555
N3_3 N2_3 1_555 1_555
N4_3 N3_3 1_555 1_555
N5_3 C3_3 1_555 1_555
Cd2_3 N4_3 1_555 1_555
Cd3_3 N2_3 1_555 1_555
N4_3 N5_3 1_555 1_555
Cd2_2 N9_4 1_555 1_555
N10_4 Cd2_2 1_555 1_555
N11_4 Cd2_2 1_555 1_555
N13_4 Cd2_2 1_555 1_555
N14_4 Cd2_2 1_555 1_555
N8_4 N9_4 1_555 1_555
C1_4 H1_4 1_555 1_555
H2_4 C1_4 1_555 1_555
C2_4 H3_4 1_555 1_555
H4_4 C2_4 1_555 1_555
C3_4 C1_4 1_555 1_555
C4_4 C2_4 1_555 1_555
N1_4 C1_4 1_555 1_555
H5_4 N1_4 1_555 1_555
N11_2 C3_4 1_555 1_555
N3_4 N11_2 1_555 1_555
N4_4 N3_4 1_555 1_555
N5_4 C3_4 1_555 1_555
N6_4 C4_4 1_555 1_555
N7_4 N6_4 1_555 1_555
Cd4_4 N1_4 1_555 1_555
C2_4 N1_4 1_555 1_555
N4_4 N5_4 1_555 1_555
N5_4 Cd4_4 1_555 1_555
N6_4 Cd4_4 1_555 1_555
C1_5 H1_5 1_555 1_555
H2_5 C1_5 1_555 1_555
C2_5 H3_5 1_555 1_555
H4_5 C2_5 1_555 1_555
C3_5 C1_5 1_555 1_555
C4_5 C2_5 1_555 1_555
Cd2_3 N9_5 1_555 1_555
N1_5 C1_5 1_555 1_555
H5_5 N1_5 1_555 1_555
N11_3 C3_5 1_555 1_555
N3_5 N11_3 1_555 1_555
N4_5 N3_5 1_555 1_555
N5_5 C3_5 1_555 1_555
N6_5 C4_5 1_555 1_555
N7_5 N6_5 1_555 1_555
N8_5 N7_5 1_555 1_555
N9_5 C4_5 1_555 1_555
Cd4_5 N1_5 1_555 1_555
N10_5 Cd2_3 1_555 1_555
N11_5 Cd2_3 1_555 1_555
N13_5 Cd2_3 1_555 1_555
N14_5 Cd2_3 1_555 1_555
C2_5 N1_5 1_555 1_555
N4_5 N5_5 1_555 1_555
N5_5 Cd4_5 1_555 1_555
N6_5 Cd4_5 1_555 1_555
N8_5 N9_5 1_555 1_555
C1_6 H1_6 1_555 1_555
H2_6 C1_6 1_555 1_555
C2_6 H3_6 1_555 1_555
H4_6 C2_6 1_555 1_555
C3_6 C1_6 1_555 1_555
C4_6 C2_6 1_555 1_555
N1_6 C1_6 1_555 1_555
H5_6 N1_6 1_555 1_555
N11 C3_6 1_555 1_555
N3_6 N11 1_555 1_555
N4_6 N3_6 1_555 1_555
N5_6 C3_6 1_555 1_555
N6_6 C4_6 1_555 1_555
N7_6 N6_6 1_555 1_555
Cd4_6 N1_6 1_555 1_555
C2_6 N1_6 1_555 1_555
N4_6 N5_6 1_555 1_555
N5_6 Cd4_6 1_555 1_555
N6_6 Cd4_6 1_555 1_555
Cd2 N9_6 1_555 1_555
N10_6 Cd2 1_555 1_555
N11_6 Cd2 1_555 1_555
N13_6 Cd2 1_555 1_555
N14_6 Cd2 1_555 1_555
N8_6 N9_6 1_555 1_555
C1_7 H1_7 1_555 1_555
H2_7 C1_7 1_555 1_555
C2_7 H3_7 1_555 1_555
H4_7 C2_7 1_555 1_555
C3_7 C1_7 1_555 1_555
C4_7 C2_7 1_555 1_555
Cd3_3 N9_7 1_555 1_555
N1_7 C1_7 1_555 1_555
H5_7 N1_7 1_555 1_555
N11_5 C3_7 1_555 1_555
N3_7 N11_5 1_555 1_555
N12_3 N3_7 1_555 1_555
N5_7 C3_7 1_555 1_555
N6_7 C4_7 1_555 1_555
N7_7 N6_7 1_555 1_555
N8_7 N7_7 1_555 1_555
N9_7 C4_7 1_555 1_555
Cd4_7 N1_7 1_555 1_555
N10_7 Cd3_3 1_555 1_555
N14_7 Cd3_3 1_555 1_555
C2_7 N1_7 1_555 1_555
N12_3 N5_7 1_555 1_555
N5_7 Cd4_7 1_555 1_555
N6_7 Cd4_7 1_555 1_555
N8_7 N9_7 1_555 1_555
C2_8 H3_8 1_555 1_555
C4_8 C2_8 1_555 1_555
Cd3 N9_8 1_555 1_555
N6_8 C4_8 1_555 1_555
N7_8 N6_8 1_555 1_555
N8_8 N7_8 1_555 1_555
N9_8 C4_8 1_555 1_555
N10_8 Cd3 1_555 1_555
N14_8 Cd3 1_555 1_555
N6_8 Cd4_8 1_555 1_555
N8_8 N9_8 1_555 1_555
C1_8 H1_8 1_555 1_555
H2_8 C1_8 1_555 1_555
C3_8 C1_8 1_555 1_555
N1_8 C1_8 1_555 1_555
H5_8 N1_8 1_555 1_555
N11_6 C3_8 1_555 1_555
N3_8 N11_6 1_555 1_555
N12 N3_8 1_555 1_555
N5_8 C3_8 1_555 1_555
N12 N5_8 1_555 1_555
C1_9 H1_9 1_555 1_555
H2_9 C1_9 1_555 1_555
C3_9 C1_9 1_555 1_555
N1_9 C1_9 1_555 1_555
H5_9 N1_9 1_555 1_555
N11_4 C3_9 1_555 1_555
N3_9 N11_4 1_555 1_555
N12_2 N3_9 1_555 1_555
N5_9 C3_9 1_555 1_555
N12_2 N5_9 1_555 1_555
C2_9 H3_9 1_555 1_555
C4_9 C2_9 1_555 1_555
Cd3_2 N9_9 1_555 1_555
N6_9 C4_9 1_555 1_555
N7_9 N6_9 1_555 1_555
N8_9 N7_9 1_555 1_555
N9_9 C4_9 1_555 1_555
N10_9 Cd3_2 1_555 1_555
N14_9 Cd3_2 1_555 1_555
N6_9 Cd4_9 1_555 1_555
N8_9 N9_9 1_555 1_555
N13_9 C3_10 1_555 1_555
Cd4_4 N4_7 1_555 1_555
N4_7 N13_9 1_555 1_555
H2_10 C1_10 1_555 1_555
C2_10 H3_10 1_555 1_555
H4_10 C2_10 1_555 1_555
C4_10 C2_10 1_555 1_555
Cd4_8 N9_10 1_555 1_555
N10_9 C1_10 1_555 1_555
H5_10 N10_9 1_555 1_555
N14_9 C4_10 1_555 1_555
N7_10 N14_9 1_555 1_555
N8_10 N7_10 1_555 1_555
N9_10 C4_10 1_555 1_555
N12_4 Cd4_8 1_555 1_555
C2_10 N10_9 1_555 1_555
N8_10 N9_10 1_555 1_555
N3_10 N2_4 1_555 1_555
Cd4_3 N2_4 1_555 1_555
N3_11 N2_5 1_555 1_555
Cd4 N2_5 1_555 1_555
N13_7 C3_11 1_555 1_555
Cd4_5 N4_8 1_555 1_555
N4_8 N13_7 1_555 1_555
H2_11 C1_11 1_555 1_555
C2_11 H3_11 1_555 1_555
H4_11 C2_11 1_555 1_555
C4_11 C2_11 1_555 1_555
Cd4_9 N9_11 1_555 1_555
N10_7 C1_11 1_555 1_555
H5_11 N10_7 1_555 1_555
N14_7 C4_11 1_555 1_555
N7_11 N14_7 1_555 1_555
N8_11 N7_11 1_555 1_555
N9_11 C4_11 1_555 1_555
N12_5 Cd4_9 1_555 1_555
C2_11 N10_7 1_555 1_555
N8_11 N9_11 1_555 1_555
N2_6 C3_12 1_555 1_555
N3_12 N2_6 1_555 1_555
N4_9 N3_12 1_555 1_555
N13_8 C3_12 1_555 1_555
Cd4_6 N4_9 1_555 1_555
Cd4_2 N2_6 1_555 1_555
N4_9 N13_8 1_555 1_555
C1_12 H1_12 1_555 1_555
H2_12 C1_12 1_555 1_555
C2_12 H3_12 1_555 1_555
H4_12 C2_12 1_555 1_555
C4_12 C2_12 1_555 1_555
Cd4_7 N9_12 1_555 1_555
N10_8 C1_12 1_555 1_555
H5_12 N10_8 1_555 1_555
N14_8 C4_12 1_555 1_555
N7_12 N14_8 1_555 1_555
N8_12 N7_12 1_555 1_555
N9_12 C4_12 1_555 1_555
N11_9 Cd4_7 1_555 1_555
N12_6 Cd4_7 1_555 1_555
C2_12 N10_8 1_555 1_555
N8_12 N9_12 1_555 1_555
C1_13 H1_13 1_555 1_555
H2_13 C1_13 1_555 1_555
C2_13 H3_13 1_555 1_555
H4_13 C2_13 1_555 1_555
C3_13 C1_13 1_555 1_555
C4_13 C2_13 1_555 1_555
N10_6 C1_13 1_555 1_555
H5_13 N10_6 1_555 1_555
N11_8 C3_13 1_555 1_555
N3_13 N11_8 1_555 1_555
N4_10 N3_13 1_555 1_555
N13_6 C3_13 1_555 1_555
N14_6 C4_13 1_555 1_555
N7_13 N14_6 1_555 1_555
C2_13 N10_6 1_555 1_555
N4_10 N13_6 1_555 1_555
Cd4_5 N9_13 1_555 1_555
N11_10 Cd4_5 1_555 1_555
N8_13 N9_13 1_555 1_555
C1_14 H1_14 1_555 1_555
H2_14 C1_14 1_555 1_555
C2_14 H3_14 1_555 1_555
H4_14 C2_14 1_555 1_555
C3_14 C1_14 1_555 1_555
C4_14 C2_14 1_555 1_555
Cd4_6 N9_14 1_555 1_555
N10_4 C1_14 1_555 1_555
H5_14 N10_4 1_555 1_555
N11_9 C3_14 1_555 1_555
N3_14 N11_9 1_555 1_555
N4_11 N3_14 1_555 1_555
N13_4 C3_14 1_555 1_555
N14_4 C4_14 1_555 1_555
N7_14 N14_4 1_555 1_555
N8_14 N7_14 1_555 1_555
N9_14 C4_14 1_555 1_555
N11_11 Cd4_6 1_555 1_555
C2_14 N10_4 1_555 1_555
N4_11 N13_4 1_555 1_555
N8_14 N9_14 1_555 1_555
Cd4_4 N9_15 1_555 1_555
N11_12 Cd4_4 1_555 1_555
N8_15 N9_15 1_555 1_555
C1_15 H1_15 1_555 1_555
H2_15 C1_15 1_555 1_555
C2_15 H3_15 1_555 1_555
H4_15 C2_15 1_555 1_555
C3_15 C1_15 1_555 1_555
C4_15 C2_15 1_555 1_555
N10_5 C1_15 1_555 1_555
H5_15 N10_5 1_555 1_555
N11_7 C3_15 1_555 1_555
N3_15 N11_7 1_555 1_555
N4_12 N3_15 1_555 1_555
N13_5 C3_15 1_555 1_555
N14_5 C4_15 1_555 1_555
N7_15 N14_5 1_555 1_555
C2_15 N10_5 1_555 1_555
N4_12 N13_5 1_555 1_555
C1_16 H1_16 1_555 1_555
H2_16 C1_16 1_555 1_555
C2_16 H3_16 1_555 1_555
H4_16 C2_16 1_555 1_555
C3_16 C1_16 1_555 1_555
C4_16 C2_16 1_555 1_555
Cd4_2 N9_16 1_555 1_555
N10_3 C1_16 1_555 1_555
H5_16 N10_3 1_555 1_555
N11_11 C3_16 1_555 1_555
N3_16 N11_11 1_555 1_555
N12_6 N3_16 1_555 1_555
N13_3 C3_16 1_555 1_555
N14_3 C4_16 1_555 1_555
N7_16 N14_3 1_555 1_555
N8_16 N7_16 1_555 1_555
N9_16 C4_16 1_555 1_555
C2_16 N10_3 1_555 1_555
N12_6 N13_3 1_555 1_555
N8_16 N9_16 1_555 1_555
C1_17 H1_17 1_555 1_555
H2_17 C1_17 1_555 1_555
C3_17 C1_17 1_555 1_555
N10 C1_17 1_555 1_555
H5_17 N10 1_555 1_555
N11_12 C3_17 1_555 1_555
N3_17 N11_12 1_555 1_555
N12_4 N3_17 1_555 1_555
N13 C3_17 1_555 1_555
N12_4 N13 1_555 1_555
C2_17 H3_17 1_555 1_555
C4_17 C2_17 1_555 1_555
Cd4_3 N9_17 1_555 1_555
N14 C4_17 1_555 1_555
N7_17 N14 1_555 1_555
N8_17 N7_17 1_555 1_555
N9_17 C4_17 1_555 1_555
N8_17 N9_17 1_555 1_555
C2_18 H3_18 1_555 1_555
C4_18 C2_18 1_555 1_555
Cd4 N9_18 1_555 1_555
N14_2 C4_18 1_555 1_555
N7_18 N14_2 1_555 1_555
N8_18 N7_18 1_555 1_555
N9_18 C4_18 1_555 1_555
N8_18 N9_18 1_555 1_555
C1_18 H1_18 1_555 1_555
H2_18 C1_18 1_555 1_555
C3_18 C1_18 1_555 1_555
N10_2 C1_18 1_555 1_555
H5_18 N10_2 1_555 1_555
N11_10 C3_18 1_555 1_555
N3_18 N11_10 1_555 1_555
N12_5 N3_18 1_555 1_555
N13_2 C3_18 1_555 1_555
N12_5 N13_2 1_555 1_555

#END
