
###############################################################################
#
# This file contains modified crystal structure data generated from the
# MOF subset of the Cambridge Structural Database (CSD) v543 
# hosted by the Cambridge Crystallographic Data Centre (CCDC).
#
# This work is licensed under the Creative Commons
# Attribution-NonCommercial-ShareAlike 4.0 International License.
# To view a copy of this license, visit
# http://creativecommons.org/licenses/by-nc-sa/4.0/
# or send a letter to
# Creative Commons, PO Box 1866, Mountain View, CA 94042, USA.
#
# CIF created using the CSD Python API on 29 September 2022
# The structure has been converted into the P1 space group
# The structure has a 3D framework
# The original CSD entry CUMLUT is in the monoclinic crystal system
# The framework has been calculated to contain at least 10.0% void space
# The void calculation uses a probe of radius 1.32A, grid spacing 0.4
#
###############################################################################

data_CUMLUT
_chemical_formula_moiety         '(C44 H52 Cd4 N4 O28)n'
_symmetry_cell_setting           triclinic
_symmetry_space_group_name_H-M   'P 1'
_symmetry_Int_Tables_number      1
_space_group_name_Hall           'P 1'
loop_
_symmetry_equiv_pos_site_id
_symmetry_equiv_pos_as_xyz
1 x,y,z
_cell_length_a                   10.2117(10)
_cell_length_b                   13.870(3)
_cell_length_c                   12.3107(15)
_cell_angle_alpha                90
_cell_angle_beta                 90.198(12)
_cell_angle_gamma                90
_cell_volume                     1743.63
loop_
_atom_site_label
_atom_site_type_symbol
_atom_site_fract_x
_atom_site_fract_y
_atom_site_fract_z
O8 O 0.2619(7) 0.3080(6) 0.0341(7)
O9 O 0.0499(6) 0.3109(5) 0.0255(5)
O12 O 0.1178(6) 0.5229(5) 0.0789(5)
Cd1 Cd 0.14715(5) 0.43769(4) 0.92096(4)
O1 O 0.1360(6) 0.5926(5) 0.8503(6)
H4 H 0.0805 0.6058 0.7954
H5 H 0.1872 0.6394 0.8779
O10 O 0.2932(6) 0.3741(6) 0.7919(6)
O11 O 0.3859(6) 0.4702(4) 0.9080(5)
Cd3 Cd 0.85285(5) 0.56231(4) 0.07904(4)
C1 C 0.6476(8) 0.2936(6) 0.6554(6)
C2 C 0.5281(7) 0.3225(6) 0.6976(7)
H1 H 0.4513 0.3001 0.6657
C3 C 0.5202(8) 0.3848(6) 0.7875(7)
C4 C 0.6381(7) 0.4189(5) 0.8324(7)
H2 H 0.6362 0.4602 0.8919
C5 C 0.7561(7) 0.3915(6) 0.7889(7)
C6 C 0.7609(8) 0.3294(6) 0.7014(7)
H3 H 0.8416 0.3114 0.6732
C7 C 0.6546(9) 0.2213(6) 0.5651(7)
C8 C 0.3911(7) 0.4117(6) 0.8321(7)
C9 C 0.8856(8) 0.4244(6) 0.8408(7)
O2 O 0.7619(7) 0.1920(6) 0.5341(7)
O3 O 0.5499(6) 0.1891(5) 0.5255(5)
O6 O 0.8822(6) 0.4771(5) 0.9211(5)
O7 O 0.9904(5) 0.3946(5) 0.7973(5)
Cd4 Cd 0.64715(5) 0.06231(4) 0.42096(4)
H1_2 H 0.0487 0.8001 0.8343
C8_2 C 0.1089(7) 0.9117(6) 0.6679(7)
O4 O 0.2068(6) 0.8741(6) 0.7081(6)
O5 O 0.1141(6) 0.9702(4) 0.5920(5)
Cd2 Cd 0.35285(5) 0.93769(4) 0.57904(4)
O1_2 O 0.3640(6) 0.0926(5) 0.6497(6)
H4_2 H 0.4195 0.1058 0.7046
H5_2 H 0.3128 0.1394 0.6221
O12_2 O 0.3822(6) 0.0229(5) 0.4211(5)
C1_2 C 0.8524(8) 0.7936(6) 0.8446(6)
C2_2 C 0.9719(7) 0.8225(6) 0.8024(7)
C3_2 C 0.9798(8) 0.8848(6) 0.7125(7)
C4_2 C 0.8619(7) 0.9189(5) 0.6676(7)
H2_2 H 0.8638 0.9602 0.6081
C5_2 C 0.7439(7) 0.8915(6) 0.7111(7)
C6_2 C 0.7391(8) 0.8294(6) 0.7986(7)
H3_2 H 0.6584 0.8114 0.8268
C7_2 C 0.8454(9) 0.7213(6) 0.9349(7)
C9_2 C 0.6144(8) 0.9244(6) 0.6592(7)
O2_2 O 0.7381(7) 0.6920(6) 0.9659(7)
O3_2 O 0.9501(6) 0.6891(5) 0.9745(5)
O6_2 O 0.6178(6) 0.9771(5) 0.5789(5)
O7_2 O 0.5096(5) 0.8946(5) 0.7027(5)
O8_2 O 0.2381(7) 0.8080(6) 0.4659(7)
O9_2 O 0.4501(6) 0.8109(5) 0.4745(5)
C1_3 C 0.3524(8) 0.7064(6) 0.3446(6)
C2_3 C 0.4719(7) 0.6775(6) 0.3024(7)
H1_3 H 0.5487 0.6999 0.3343
C3_3 C 0.4798(8) 0.6152(6) 0.2125(7)
C4_3 C 0.3619(7) 0.5811(5) 0.1676(7)
H2_3 H 0.3638 0.5398 0.1081
C5_3 C 0.2439(7) 0.6085(6) 0.2111(7)
C6_3 C 0.2391(8) 0.6706(6) 0.2986(7)
H3_3 H 0.1584 0.6886 0.3268
C7_3 C 0.3454(9) 0.7787(6) 0.4349(7)
C8_3 C 0.6089(7) 0.5883(6) 0.1679(7)
C9_3 C 0.1144(8) 0.5756(6) 0.1592(7)
O4_2 O 0.7068(6) 0.6259(6) 0.2081(6)
O5_2 O 0.6141(6) 0.5298(4) 0.0920(5)
O7_3 O 0.0096(5) 0.6054(5) 0.2027(5)
O1_3 O 0.8640(6) 0.4074(5) 0.1497(6)
H4_3 H 0.9195 0.3942 0.2046
H5_3 H 0.8128 0.3606 0.1221
C1_4 C 0.1476(8) 0.2064(6) 0.1554(6)
C2_4 C 0.0281(7) 0.1775(6) 0.1976(7)
C3_4 C 0.0202(8) 0.1152(6) 0.2875(7)
C4_4 C 0.1381(7) 0.0811(5) 0.3324(7)
H2_4 H 0.1362 0.0398 0.3919
C5_4 C 0.2561(7) 0.1085(6) 0.2889(7)
C6_4 C 0.2609(8) 0.1706(6) 0.2014(7)
H3_4 H 0.3416 0.1886 0.1732
C7_4 C 0.1546(9) 0.2787(6) 0.0651(7)
C9_4 C 0.3856(8) 0.0756(6) 0.3408(7)
O7_4 O 0.4904(5) 0.1054(5) 0.2973(5)
O10_2 O 0.7932(6) 0.1259(6) 0.2919(6)
O11_2 O 0.8859(6) 0.0298(4) 0.4080(5)
O1_4 O 0.6360(6) 0.9074(5) 0.3503(6)
H4_4 H 0.5805 0.8942 0.2954
H5_4 H 0.6872 0.8606 0.3779
H1_4 H 0.9513 0.1999 0.1657
C8_4 C 0.8911(7) 0.0883(6) 0.3321(7)
H12 H 0.0807 0.8313 0.3870
C10 C 0.952(4) 0.8358(17) 0.2517(13)
H6 H 0.9963 0.8833 0.2085
H7 H 0.8591 0.8451 0.2458
H8 H 0.9744 0.7725 0.2262
C11 C 0.903(2) 0.7706(19) 0.418(2)
H9 H 0.9171 0.7612 0.4942
H10 H 0.9177 0.7111 0.3801
H11 H 0.8141 0.7912 0.4057
N1 N 0.9961(10) 0.8468(7) 0.3761(10)
H13 H 0.9793 0.9058 0.4031
C10_2 C 0.548(4) 0.3358(17) 0.2483(13)
H6_2 H 0.5037 0.3833 0.2915
H7_2 H 0.6409 0.3451 0.2542
H8_2 H 0.5256 0.2725 0.2738
C11_2 C 0.597(2) 0.2706(19) 0.082(2)
H9_2 H 0.5829 0.2612 0.0058
H10_2 H 0.5823 0.2111 0.1199
H11_2 H 0.6859 0.2912 0.0943
N1_2 N 0.5039(10) 0.3468(7) 0.1239(10)
H12_2 H 0.4193 0.3313 0.1130
H13_2 H 0.5207 0.4058 0.0969
C10_3 C 0.048(4) 0.1642(17) 0.7483(13)
H6_3 H 0.0037 0.1167 0.7915
H7_3 H 0.1409 0.1549 0.7542
H8_3 H 0.0256 0.2275 0.7738
C11_3 C 0.097(2) 0.2294(19) 0.582(2)
H9_3 H 0.0829 0.2388 0.5058
H10_3 H 0.0823 0.2889 0.6199
H11_3 H 0.1859 0.2088 0.5943
N1_3 N 0.0039(10) 0.1532(7) 0.6239(10)
H13_3 H 0.0207 0.0942 0.5969
H12_3 H 0.9193 0.1687 0.6130
C10_4 C 0.452(4) 0.6642(17) 0.7517(13)
H6_4 H 0.4963 0.6167 0.7085
H7_4 H 0.3591 0.6549 0.7458
H8_4 H 0.4744 0.7275 0.7262
C11_4 C 0.403(2) 0.7294(19) 0.918(2)
H9_4 H 0.4171 0.7388 0.9942
H10_4 H 0.4177 0.7889 0.8801
H11_4 H 0.3141 0.7088 0.9057
N1_4 N 0.4961(10) 0.6532(7) 0.8761(10)
H12_4 H 0.5807 0.6687 0.8870
H13_4 H 0.4793 0.5942 0.9031
loop_
_geom_bond_atom_site_label_1
_geom_bond_atom_site_label_2
_geom_bond_site_symmetry_1
_geom_bond_site_symmetry_2
Cd1 O1 1_555 1_555
O1 H4 1_555 1_555
H5 O1 1_555 1_555
O10 Cd1 1_555 1_555
O11 Cd1 1_555 1_555
C1 C2 1_555 1_555
C2 H1 1_555 1_555
C3 C2 1_555 1_555
C4 C3 1_555 1_555
H2 C4 1_555 1_555
C5 C4 1_555 1_555
C6 C1 1_555 1_555
H3 C6 1_555 1_555
C7 C1 1_555 1_555
C8 C3 1_555 1_555
C9 C5 1_555 1_555
O2 C7 1_555 1_555
O3 C7 1_555 1_555
O10 C8 1_555 1_555
O11 C8 1_555 1_555
Cd4 O2 1_555 1_555
C5 C6 1_555 1_555
C9 O6 1_555 1_555
C9 O7 1_555 1_555
O3 Cd4 1_555 1_555
O4 C8_2 1_555 1_555
O5 C8_2 1_555 1_555
Cd2 O4 1_555 1_555
O5 Cd2 1_555 1_555
O1_2 H4_2 1_555 1_555
H5_2 O1_2 1_555 1_555
Cd4 O12_2 1_555 1_555
C1_2 C2_2 1_555 1_555
C3_2 C2_2 1_555 1_555
C4_2 C3_2 1_555 1_555
H2_2 C4_2 1_555 1_555
C5_2 C4_2 1_555 1_555
C6_2 C1_2 1_555 1_555
H3_2 C6_2 1_555 1_555
C7_2 C1_2 1_555 1_555
C9_2 C5_2 1_555 1_555
O2_2 C7_2 1_555 1_555
O3_2 C7_2 1_555 1_555
O6_2 Cd2 1_555 1_555
O7_2 Cd2 1_555 1_555
O8_2 Cd2 1_555 1_555
O9_2 Cd2 1_555 1_555
C5_2 C6_2 1_555 1_555
C9_2 O6_2 1_555 1_555
C9_2 O7_2 1_555 1_555
C1_3 C2_3 1_555 1_555
C2_3 H1_3 1_555 1_555
C3_3 C2_3 1_555 1_555
C4_3 C3_3 1_555 1_555
H2_3 C4_3 1_555 1_555
C5_3 C4_3 1_555 1_555
C6_3 C1_3 1_555 1_555
H3_3 C6_3 1_555 1_555
C7_3 C1_3 1_555 1_555
C8_3 C3_3 1_555 1_555
C9_3 C5_3 1_555 1_555
O8_2 C7_3 1_555 1_555
O9_2 C7_3 1_555 1_555
O4_2 C8_3 1_555 1_555
O5_2 C8_3 1_555 1_555
Cd3 O4_2 1_555 1_555
C5_3 C6_3 1_555 1_555
C9_3 O12 1_555 1_555
C9_3 O7_3 1_555 1_555
O5_2 Cd3 1_555 1_555
Cd3 O1_3 1_555 1_555
O1_3 H4_3 1_555 1_555
H5_3 O1_3 1_555 1_555
C1_4 C2_4 1_555 1_555
C3_4 C2_4 1_555 1_555
C4_4 C3_4 1_555 1_555
H2_4 C4_4 1_555 1_555
C5_4 C4_4 1_555 1_555
C6_4 C1_4 1_555 1_555
H3_4 C6_4 1_555 1_555
C7_4 C1_4 1_555 1_555
C9_4 C5_4 1_555 1_555
O8 C7_4 1_555 1_555
O9 C7_4 1_555 1_555
O7_4 Cd4 1_555 1_555
O10_2 Cd4 1_555 1_555
O11_2 Cd4 1_555 1_555
C5_4 C6_4 1_555 1_555
C9_4 O12_2 1_555 1_555
C9_4 O7_4 1_555 1_555
O1_4 H4_4 1_555 1_555
H5_4 O1_4 1_555 1_555
O10_2 C8_4 1_555 1_555
O11_2 C8_4 1_555 1_555
C10 H6 1_555 1_555
H7 C10 1_555 1_555
H8 C10 1_555 1_555
C11 H9 1_555 1_555
H10 C11 1_555 1_555
H11 C11 1_555 1_555
N1 C10 1_555 1_555
H13 N1 1_555 1_555
C11 N1 1_555 1_555
C10_2 H6_2 1_555 1_555
H7_2 C10_2 1_555 1_555
H8_2 C10_2 1_555 1_555
C11_2 H9_2 1_555 1_555
H10_2 C11_2 1_555 1_555
H11_2 C11_2 1_555 1_555
N1_2 C10_2 1_555 1_555
H12_2 N1_2 1_555 1_555
H13_2 N1_2 1_555 1_555
C11_2 N1_2 1_555 1_555
C10_3 H6_3 1_555 1_555
H7_3 C10_3 1_555 1_555
H8_3 C10_3 1_555 1_555
C11_3 H9_3 1_555 1_555
H10_3 C11_3 1_555 1_555
H11_3 C11_3 1_555 1_555
N1_3 C10_3 1_555 1_555
H13_3 N1_3 1_555 1_555
C11_3 N1_3 1_555 1_555
C10_4 H6_4 1_555 1_555
H7_4 C10_4 1_555 1_555
H8_4 C10_4 1_555 1_555
C11_4 H9_4 1_555 1_555
H10_4 C11_4 1_555 1_555
H11_4 C11_4 1_555 1_555
N1_4 C10_4 1_555 1_555
H12_4 N1_4 1_555 1_555
H13_4 N1_4 1_555 1_555
C11_4 N1_4 1_555 1_555

#END
