
###############################################################################
#
# This file contains modified crystal structure data generated from the
# MOF subset of the Cambridge Structural Database (CSD) v543 
# hosted by the Cambridge Crystallographic Data Centre (CCDC).
#
# This work is licensed under the Creative Commons
# Attribution-NonCommercial-ShareAlike 4.0 International License.
# To view a copy of this license, visit
# http://creativecommons.org/licenses/by-nc-sa/4.0/
# or send a letter to
# Creative Commons, PO Box 1866, Mountain View, CA 94042, USA.
#
# CIF created using the CSD Python API on 29 September 2022
# The structure has been converted into the P1 space group
# The structure has a 3D framework
# The original CSD entry CUMQOQ is in the triclinic crystal system
# The framework has been calculated to contain at least 10.0% void space
# The void calculation uses a probe of radius 1.32A, grid spacing 0.4
#
###############################################################################

data_CUMQOQ
_chemical_formula_moiety         '(C40 H46 N8 O22 S4 Zn12)n'
_symmetry_cell_setting           triclinic
_symmetry_space_group_name_H-M   'P 1'
_symmetry_Int_Tables_number      1
_space_group_name_Hall           'P 1'
loop_
_symmetry_equiv_pos_site_id
_symmetry_equiv_pos_as_xyz
1 x,y,z
_cell_length_a                   11.491(2)
_cell_length_b                   12.094(2)
_cell_length_c                   12.620(3)
_cell_angle_alpha                69.61(3)
_cell_angle_beta                 64.15(3)
_cell_angle_gamma                72.46(3)
_cell_volume                     1456.04
loop_
_atom_site_label
_atom_site_type_symbol
_atom_site_fract_x
_atom_site_fract_y
_atom_site_fract_z
Zn6 Zn 0.0000 0.5000 0.0000
Zn4 Zn 0.0000 0.0000 0.0000
H2 H 0.1019 0.0172 0.1504
H6 H 0.0156 0.3429 0.1717
C14 C 0.3194(6) 0.5672(6) 0.0630(6)
H17 H 0.3218 0.6121 0.1113
C15 C 0.2009(6) 0.5676(6) 0.0575(6)
H18 H 0.1223 0.6139 0.1025
Zn4_2 Zn 0.0000 1.0000 0.0000
C26 C 0.5651(5) 0.4983(5) 0.0018(6)
C27 C 0.5760(6) 0.5589(6) 0.0721(7)
C28 C 0.6973(7) 0.5534(7) 0.0739(8)
N7 N 0.8093(5) 0.4944(5) 0.0080(5)
Zn6_2 Zn 1.0000 0.5000 0.0000
H33 H 0.7012 0.5935 0.1256
H34 H 0.4985 0.6048 0.1189
O1 O 0.0592(4) 0.9741(4) 0.1475(4)
H1 H 0.0832 0.8963 0.1869
Zn4_3 Zn 1.0000 0.0000 0.0000
Zn2 Zn -0.0000 0.5000 0.5000
H4 H 0.0012 0.6706 0.2995
O3 O 0.9506(6) 0.4108(5) 0.1882(5)
H5 H 0.8870 0.4169 0.1867
S2 S 0.84579(14) 0.75810(13) 0.10334(15)
O8 O 0.9268(4) 0.8362(4) 0.0996(4)
O9 O 0.9257(5) 0.6713(6) 0.0385(8)
O10 O 0.7983(6) 0.6807(6) 0.2353(6)
O11 O 0.7288(6) 0.8190(5) 0.0818(7)
N1 N 0.8144(5) 0.0991(4) 0.0912(4)
N2 N 0.1875(5) 0.4077(4) 0.4084(5)
C1 C 0.8020(6) 0.1711(5) 0.1585(6)
H7 H 0.8805 0.1807 0.1611
C2 C 0.6826(6) 0.2316(5) 0.2228(6)
H8 H 0.6793 0.2808 0.2699
C3 C 0.5656(6) 0.2211(5) 0.2190(5)
C4 C 0.5799(6) 0.1464(6) 0.1481(6)
H9 H 0.5038 0.1357 0.1418
C5 C 0.7027(6) 0.0895(6) 0.0882(6)
H10 H 0.7093 0.0390 0.0408
C6 C 0.4351(5) 0.2846(5) 0.2855(5)
C7 C 0.4190(6) 0.3507(6) 0.3643(6)
H11 H 0.4936 0.3553 0.3772
C8 C 0.2958(6) 0.4089(6) 0.4229(6)
Zn4_4 Zn 1.0000 1.0000 0.0000
O17 O 0.0167(5) 0.4081(4) 0.6697(4)
H21 H 0.0890 0.3838 0.6837
O18 O 0.0936(4) 0.6404(4) 0.4843(4)
S4 S 0.15395(15) 0.74121(14) 0.38782(15)
O19 O 0.2919(5) 0.7225(5) 0.3721(6)
O20 O 0.0843(5) 0.8545(4) 0.4268(5)
O21 O 0.1406(5) 0.7516(4) 0.2736(4)
C24 C 0.2016(6) 0.3443(6) 0.3328(6)
H28 H 0.1249 0.3419 0.3218
C25 C 0.3213(6) 0.2829(6) 0.2714(6)
H29 H 0.3268 0.2384 0.2189
H30 H 0.2867 0.4526 0.4774
Zn6_3 Zn -0.0000 0.5000 1.0000
Zn4_5 Zn 0.0000 0.0000 1.0000
N3 N 0.1907(5) 0.5056(5) 0.9920(5)
C11 C 0.3027(7) 0.4466(7) 0.9261(8)
H15 H 0.2988 0.4065 0.8744
C12 C 0.4240(6) 0.4411(6) 0.9279(7)
H16 H 0.5015 0.3952 0.8811
C13 C 0.4349(5) 0.5017(5) 0.9982(6)
O12 O 0.0494(6) 0.5892(5) 0.8118(5)
H19 H 0.1130 0.5831 0.8133
O13 O 0.0743(5) 0.3287(6) 0.9615(8)
S3 S 0.15421(14) 0.24190(13) 0.89666(15)
O14 O 0.0732(4) 0.1638(4) 0.9004(4)
Zn4_6 Zn 0.0000 1.0000 1.0000
O22 O 0.2017(6) 0.3193(6) 0.7647(6)
O23 O 0.2712(6) 0.1810(5) 0.9182(7)
Zn6_4 Zn 1.0000 0.5000 1.0000
C29 C 0.7991(6) 0.4324(6) 0.9425(6)
C30 C 0.6806(6) 0.4328(6) 0.9370(6)
H31 H 0.6782 0.3879 0.8887
H32 H 0.8777 0.3861 0.8975
N6 N 0.1856(5) 0.9009(4) 0.9088(4)
Zn4_7 Zn 1.0000 0.0000 1.0000
H20 H 0.9844 0.6571 0.8283
Zn4_8 Zn 1.0000 1.0000 1.0000
O15 O 0.9408(4) 0.0259(4) 0.8525(4)
H35 H 0.9168 0.1037 0.8131
H36 H 0.8981 0.9828 0.8496
Zn2_2 Zn 1.0000 0.5000 0.5000
O2 O 0.9833(5) 0.5919(4) 0.3303(4)
H3 H 0.9110 0.6162 0.3163
S1 S 0.84605(15) 0.25879(14) 0.61218(15)
O4 O 0.9064(4) 0.3596(4) 0.5157(4)
O5 O 0.7081(5) 0.2775(5) 0.6279(6)
O6 O 0.9157(5) 0.1455(4) 0.5732(5)
O7 O 0.8594(5) 0.2484(4) 0.7264(4)
H12 H 0.7133 0.5474 0.5226
C9 C 0.7984(6) 0.6557(6) 0.6672(6)
H13 H 0.8751 0.6581 0.6782
C10 C 0.6787(6) 0.7171(6) 0.7286(6)
H14 H 0.6732 0.7616 0.7811
H22 H 0.9988 0.3294 0.7005
N4 N 0.8125(5) 0.5923(4) 0.5916(5)
C16 C 0.7042(6) 0.5911(6) 0.5771(6)
C17 C 0.5810(6) 0.6493(6) 0.6357(6)
C18 C 0.5649(5) 0.7154(5) 0.7145(5)
C19 C 0.4344(6) 0.7789(5) 0.7810(5)
C20 C 0.3174(6) 0.7684(5) 0.7772(6)
C21 C 0.1980(6) 0.8289(5) 0.8415(6)
C22 C 0.2973(6) 0.9105(6) 0.9118(6)
C23 C 0.4201(6) 0.8536(6) 0.8519(6)
H23 H 0.4962 0.8643 0.8582
H24 H 0.2907 0.9610 0.9592
H25 H 0.1195 0.8193 0.8389
H26 H 0.3207 0.7192 0.7301
H27 H 0.5064 0.6447 0.6228
C31 C 0.7619(7) 0.0087(7) 0.5076(7)
H38 H 0.7990 0.0398 0.5440
C32 C 0.6291(7) 0.0352(6) 0.5341(7)
H39 H 0.5738 0.0874 0.5865
C36 C 0.4272(6) 0.0128(5) 0.5153(5)
N10 N 0.1600(5) 0.0610(5) 0.5681(5)
H42 H 0.0634 0.0839 0.5747
C39 C 0.2080(7) 0.1069(6) 0.6195(6)
C40 C 0.3421(6) 0.0835(6) 0.5950(6)
H43 H 0.3766 0.1157 0.6327
H44 H 0.1495 0.1566 0.6736
N9 N 0.8400(5) 0.9390(5) 0.4319(5)
H37 H 0.9366 0.9161 0.4253
C33 C 0.5728(6) 0.9872(5) 0.4847(5)
C34 C 0.6579(6) 0.9165(6) 0.4050(6)
H40 H 0.6234 0.8843 0.3673
C35 C 0.7920(7) 0.8931(6) 0.3805(6)
H41 H 0.8505 0.8434 0.3264
C37 C 0.3709(7) 0.9648(6) 0.4659(7)
C38 C 0.2381(7) 0.9913(7) 0.4924(7)
H45 H 0.2010 0.9602 0.4560
H46 H 0.4262 0.9126 0.4135
loop_
_geom_bond_atom_site_label_1
_geom_bond_atom_site_label_2
_geom_bond_site_symmetry_1
_geom_bond_site_symmetry_2
H17 C14 1_555 1_555
H18 C15 1_555 1_555
C27 C26 1_555 1_555
C28 C27 1_555 1_555
N7 C28 1_555 1_555
Zn6_2 N7 1_555 1_555
H33 C28 1_555 1_555
H34 C27 1_555 1_555
C14 C15 1_555 1_555
Zn4_2 O1 1_555 1_555
O1 H1 1_555 1_555
Zn6_2 O3 1_555 1_555
O3 H5 1_555 1_555
S2 O8 1_555 1_555
O8 Zn4_4 1_555 1_555
O9 Zn6_2 1_555 1_555
O10 S2 1_555 1_555
O11 S2 1_555 1_555
N1 Zn4_3 1_555 1_555
N2 Zn2 1_555 1_555
C1 N1 1_555 1_555
H7 C1 1_555 1_555
C2 C1 1_555 1_555
H8 C2 1_555 1_555
C3 C2 1_555 1_555
C4 C3 1_555 1_555
H9 C4 1_555 1_555
C5 N1 1_555 1_555
H10 C5 1_555 1_555
C6 C3 1_555 1_555
C7 C6 1_555 1_555
H11 C7 1_555 1_555
C8 N2 1_555 1_555
O17 Zn2 1_555 1_555
H21 O17 1_555 1_555
O18 Zn2 1_555 1_555
S4 O18 1_555 1_555
O19 S4 1_555 1_555
O20 S4 1_555 1_555
O21 S4 1_555 1_555
C24 N2 1_555 1_555
H28 C24 1_555 1_555
C25 C6 1_555 1_555
H29 C25 1_555 1_555
H30 C8 1_555 1_555
S2 O9 1_555 1_555
C4 C5 1_555 1_555
C7 C8 1_555 1_555
C24 C25 1_555 1_555
N3 Zn6_3 1_555 1_555
C11 N3 1_555 1_555
H15 C11 1_555 1_555
C12 C11 1_555 1_555
H16 C12 1_555 1_555
C13 C12 1_555 1_555
O12 Zn6_3 1_555 1_555
H19 O12 1_555 1_555
O13 Zn6_3 1_555 1_555
S3 O13 1_555 1_555
O14 Zn4_5 1_555 1_555
O22 S3 1_555 1_555
O23 S3 1_555 1_555
H31 C30 1_555 1_555
H32 C29 1_555 1_555
S3 O14 1_555 1_555
C29 C30 1_555 1_555
N6 Zn4_6 1_555 1_555
O15 Zn4_7 1_555 1_555
H35 O15 1_555 1_555
Zn2_2 O2 1_555 1_555
O2 H3 1_555 1_555
S1 O4 1_555 1_555
O4 Zn2_2 1_555 1_555
O5 S1 1_555 1_555
O6 S1 1_555 1_555
O7 S1 1_555 1_555
H12 C16 1_555 1_555
C9 H13 1_555 1_555
C10 C9 1_555 1_555
H14 C10 1_555 1_555
N4 Zn2_2 1_555 1_555
C16 N4 1_555 1_555
C17 C16 1_555 1_555
C18 C10 1_555 1_555
C19 C18 1_555 1_555
C20 C19 1_555 1_555
C21 C20 1_555 1_555
N6 C21 1_555 1_555
C22 N6 1_555 1_555
C23 C19 1_555 1_555
H23 C23 1_555 1_555
H24 C22 1_555 1_555
H25 C21 1_555 1_555
H26 C20 1_555 1_555
H27 C17 1_555 1_555
C9 N4 1_555 1_555
C17 C18 1_555 1_555
C22 C23 1_555 1_555
H38 C31 1_555 1_555
C32 C31 1_555 1_555
H39 C32 1_555 1_555
H42 N10 1_555 1_555
C39 N10 1_555 1_555
C40 C36 1_555 1_555
H43 C40 1_555 1_555
H44 C39 1_555 1_555
C39 C40 1_555 1_555
N9 H37 1_555 1_555
C34 C33 1_555 1_555
H40 C34 1_555 1_555
C35 N9 1_555 1_555
H41 C35 1_555 1_555
C38 C37 1_555 1_555
H45 C38 1_555 1_555
H46 C37 1_555 1_555
C34 C35 1_555 1_555

#END
