
###############################################################################
#
# This file contains modified crystal structure data generated from the
# MOF subset of the Cambridge Structural Database (CSD) v543 
# hosted by the Cambridge Crystallographic Data Centre (CCDC).
#
# This work is licensed under the Creative Commons
# Attribution-NonCommercial-ShareAlike 4.0 International License.
# To view a copy of this license, visit
# http://creativecommons.org/licenses/by-nc-sa/4.0/
# or send a letter to
# Creative Commons, PO Box 1866, Mountain View, CA 94042, USA.
#
# CIF created using the CSD Python API on 29 September 2022
# The structure has been converted into the P1 space group
# The structure has a 3D framework
# The original CSD entry CUMSAH is in the tetragonal crystal system
# The framework has been calculated to contain at least 10.0% void space
# The void calculation uses a probe of radius 1.32A, grid spacing 0.4
#
###############################################################################

data_CUMSAH
_chemical_formula_moiety         '(C672 H432 Cu56 N48 O344)n'
_symmetry_cell_setting           triclinic
_symmetry_space_group_name_H-M   'P 1'
_symmetry_Int_Tables_number      1
_space_group_name_Hall           'P 1'
loop_
_symmetry_equiv_pos_site_id
_symmetry_equiv_pos_as_xyz
1 x,y,z
_cell_length_a                   30.6360(7)
_cell_length_b                   30.6360(7)
_cell_length_c                   43.033(2)
_cell_angle_alpha                90
_cell_angle_beta                 90
_cell_angle_gamma                90
_cell_volume                     40389.2
loop_
_atom_site_label
_atom_site_type_symbol
_atom_site_fract_x
_atom_site_fract_y
_atom_site_fract_z
Cu1 Cu 0.16222(6) 0.58806(8) 0.0000
Cu2 Cu 0.24656(6) 0.56660(8) 0.0000
O19 O 0.0964(3) 0.6046(4) 0.0000
H1 H 0.0826 0.5967 0.0162
O20 O 0.3140(3) 0.5536(6) 0.0000
H36 H 0.3178 0.5380 0.0161
Cu7 Cu 0.41194(8) 0.16222(6) 0.0000
Cu9 Cu 0.43340(8) 0.24656(6) 0.0000
O43 O 0.2283(3) 0.5260(2) 0.03252(17)
O44 O 0.1563(3) 0.5450(3) 0.03198(19)
O47 O 0.1790(3) 0.6305(3) 0.03137(17)
O48 O 0.2509(3) 0.6118(3) 0.03248(17)
Cu1_2 Cu 0.16222(6) 0.58806(8) 1.0000
Cu2_2 Cu 0.24656(6) 0.56660(8) 1.0000
Cu3 Cu 0.33942(4) 0.40431(4) 0.87396(3)
Cu4 Cu 0.28963(4) 0.37475(5) 0.82794(3)
O1 O 0.2283(3) 0.5260(2) 0.96748(17)
O2 O 0.1563(3) 0.5450(3) 0.96802(19)
O3 O 0.2859(2) 0.4251(2) 0.89197(19)
O4 O 0.2433(2) 0.4039(3) 0.85085(18)
O5 O 0.0817(3) 0.4140(5) 0.8637(3)
O6 O 0.1047(4) 0.5592(4) 0.8624(3)
O7 O 0.1790(3) 0.6305(3) 0.96863(17)
O8 O 0.2509(3) 0.6118(3) 0.96752(17)
O9 O 0.3455(3) 0.6711(3) 0.89047(18)
O10 O 0.3212(2) 0.7157(3) 0.85347(19)
O11 O 0.1899(5) 0.8055(4) 0.8852(3)
O12 O 0.1223(3) 0.6764(5) 0.8726(3)
O13 O 0.0180(3) 0.7417(4) 0.7709(3)
O14 O 0.0847(5) 0.8779(5) 0.7868(3)
O17 O 0.1123(2) 0.8808(2) 0.65049(18)
O18 O 0.1549(3) 0.8531(2) 0.68838(17)
O19_2 O 0.0964(3) 0.6046(4) 1.0000
O20_2 O 0.3140(3) 0.5536(6) 1.0000
H2 H 0.3178 0.5380 0.9839
O21 O 0.3759(3) 0.4247(3) 0.9129(2)
H3 H 0.3861 0.4461 0.9027
H4 H 0.3985 0.4158 0.9034
O22 O 0.2501(3) 0.3502(3) 0.79173(19)
H5 H 0.2637 0.3268 0.7961
H6 H 0.2439 0.3603 0.7739
N1 N 0.1008(4) 0.4854(7) 0.8664(3)
C1 C 0.1826(5) 0.4985(4) 0.9285(3)
C2 C 0.2174(4) 0.4716(4) 0.9165(3)
H7 H 0.2452 0.4682 0.9267
C3 C 0.2095(5) 0.4485(4) 0.8871(3)
C4 C 0.1707(4) 0.4502(4) 0.8716(3)
H8 H 0.1658 0.4342 0.8536
C5 C 0.1398(5) 0.4762(5) 0.8838(4)
C6 C 0.1448(4) 0.4986(4) 0.9108(4)
H9 H 0.1214 0.5152 0.9178
C7 C 0.0749(7) 0.4524(7) 0.8575(4)
C8 C 0.0346(5) 0.4695(9) 0.8398(4)
H10 H 0.0341 0.4580 0.8186
C9 C 0.0421(5) 0.5199(10) 0.8394(4)
H11 H 0.0442 0.5308 0.8180
C10 C 0.0862(8) 0.5279(7) 0.8575(5)
C11 C 0.0065(5) 0.5451(5) 0.8578(3)
H12 H 0.0109 0.5767 0.8582
C12 C 0.0048(3) 0.5231(3) 0.8912(3)
H13 H 0.0097 0.5388 0.9094
C13 C 0.1879(6) 0.5262(5) 0.9579(3)
C14 C 0.2518(5) 0.4239(4) 0.8765(3)
C15 C 0.2321(8) 0.6631(5) 0.9327(4)
C16 C 0.2718(5) 0.6662(5) 0.9199(4)
H14 H 0.2944 0.6481 0.9286
C17 C 0.2750(5) 0.6921(5) 0.8950(4)
C18 C 0.2421(6) 0.7158(4) 0.8824(3)
H15 H 0.2478 0.7348 0.8652
C19 C 0.1969(6) 0.7146(5) 0.8948(3)
C20 C 0.1941(6) 0.6850(5) 0.9224(3)
H16 H 0.1665 0.6843 0.9330
N2 N 0.1611(5) 0.7367(9) 0.8833(3)
C21 C 0.1580(7) 0.7764(11) 0.8801(2)
C22 C 0.1177(7) 0.7948(6) 0.8672(4)
H17 H 0.1026 0.8148 0.8806
C23 C 0.0950(5) 0.7516(7) 0.8624(3)
H18 H 0.0681 0.7524 0.8739
C24 C 0.1215(8) 0.7154(6) 0.8750(4)
C25 C 0.1194(6) 0.8180(7) 0.8355(3)
H19 H 0.1359 0.8454 0.8355
C26 C 0.1363(5) 0.7840(6) 0.8134(3)
H20 H 0.1618 0.7921 0.8018
C27 C 0.1221(5) 0.7467(6) 0.8082(4)
H21 H 0.1340 0.7282 0.7924
C28 C 0.0806(5) 0.7429(5) 0.8296(4)
H22 H 0.0697 0.7136 0.8283
N3 N 0.0477(4) 0.8142(5) 0.7752(4)
C29 C 0.0330(3) 0.7698(7) 0.7848(4)
C30 C 0.0458(5) 0.7812(5) 0.8198(4)
H23 H 0.0222 0.7789 0.8344
C31 C 0.0666(5) 0.8230(5) 0.8231(4)
H24 H 0.0507 0.8377 0.8392
C32 C 0.0654(5) 0.8486(8) 0.7921(3)
C33 C 0.0772(5) 0.8462(3) 0.6928(3)
C34 C 0.0387(4) 0.8439(3) 0.6783(3)
H25 H 0.0336 0.8547 0.6577
C35 C 0.0019(5) 0.8289(4) 0.6945(3)
C36 C 0.0061(4) 0.8197(5) 0.7248(3)
C37 C 0.0425(6) 0.8236(5) 0.7390(3)
C38 C 0.0824(4) 0.8354(4) 0.7238(3)
H27 H 0.1099 0.8359 0.7345
C39 C 0.2179(6) 0.6344(5) 0.9574(4)
C40 C 0.3163(5) 0.6937(5) 0.8771(3)
C42 C 0.1206(5) 0.8608(3) 0.6758(3)
H35 H 0.0826 0.5967 0.9838
O29 O 0.3695(3) 0.1790(3) 0.96863(17)
O30 O 0.3882(3) 0.2509(3) 0.96752(17)
O31 O 0.3289(3) 0.3455(3) 0.89047(18)
O32 O 0.2843(3) 0.3212(2) 0.85347(19)
O33 O 0.1945(4) 0.1899(5) 0.8852(3)
O34 O 0.3236(5) 0.1223(3) 0.8726(3)
O35 O 0.2583(4) 0.0180(3) 0.7709(3)
O36 O 0.1221(5) 0.0847(5) 0.7868(3)
O39 O 0.1192(2) 0.1123(2) 0.65049(18)
O40 O 0.1469(2) 0.1549(3) 0.68838(17)
C57 C 0.3369(5) 0.2321(8) 0.9327(4)
C58 C 0.3338(5) 0.2718(5) 0.9199(4)
H37 H 0.3519 0.2944 0.9286
C59 C 0.3079(5) 0.2750(5) 0.8950(4)
C60 C 0.2842(4) 0.2421(6) 0.8824(3)
H38 H 0.2652 0.2478 0.8652
C61 C 0.2854(5) 0.1969(6) 0.8948(3)
C62 C 0.3150(5) 0.1941(6) 0.9224(3)
H39 H 0.3157 0.1665 0.9330
N5 N 0.2633(9) 0.1611(5) 0.8833(3)
C63 C 0.2236(11) 0.1580(7) 0.8801(2)
C64 C 0.2052(6) 0.1177(7) 0.8672(4)
H40 H 0.1852 0.1026 0.8806
C65 C 0.2484(7) 0.0950(5) 0.8624(3)
H41 H 0.2476 0.0681 0.8739
C66 C 0.2846(6) 0.1215(8) 0.8750(4)
C67 C 0.1820(7) 0.1194(6) 0.8355(3)
H42 H 0.1546 0.1359 0.8355
C68 C 0.2160(6) 0.1363(5) 0.8134(3)
H43 H 0.2079 0.1618 0.8018
C69 C 0.2533(6) 0.1221(5) 0.8082(4)
H44 H 0.2718 0.1340 0.7924
C70 C 0.2571(5) 0.0806(5) 0.8296(4)
H45 H 0.2864 0.0697 0.8283
N6 N 0.1858(5) 0.0477(4) 0.7752(4)
C71 C 0.2302(7) 0.0330(3) 0.7848(4)
C72 C 0.2188(5) 0.0458(5) 0.8198(4)
H46 H 0.2211 0.0222 0.8344
C73 C 0.1770(5) 0.0666(5) 0.8231(4)
H47 H 0.1623 0.0507 0.8392
C74 C 0.1514(8) 0.0654(5) 0.7921(3)
C75 C 0.1538(3) 0.0772(5) 0.6928(3)
C76 C 0.1561(3) 0.0387(4) 0.6783(3)
H48 H 0.1453 0.0336 0.6577
C77 C 0.1711(4) 0.0019(5) 0.6945(3)
C78 C 0.1803(5) 0.0061(4) 0.7248(3)
C79 C 0.1764(5) 0.0425(6) 0.7390(3)
C80 C 0.1646(4) 0.0824(4) 0.7238(3)
H50 H 0.1641 0.1099 0.7345
C81 C 0.3656(5) 0.2179(6) 0.9574(4)
C82 C 0.3063(5) 0.3163(5) 0.8771(3)
C84 C 0.1392(3) 0.1206(5) 0.6758(3)
Cu5 Cu 0.40431(4) 0.66058(4) 0.87396(3)
Cu6 Cu 0.37475(5) 0.71037(4) 0.82794(3)
O41 O 0.4247(3) 0.6241(3) 0.9129(2)
H51 H 0.4461 0.6139 0.9027
H52 H 0.4158 0.6015 0.9034
O42 O 0.3502(3) 0.7499(3) 0.79173(19)
H53 H 0.3268 0.7363 0.7961
H54 H 0.3603 0.7561 0.7739
Cu7_2 Cu 0.41194(8) 0.16222(6) 1.0000
Cu9_2 Cu 0.43340(8) 0.24656(6) 1.0000
Cu14 Cu 0.16058(4) 0.90431(4) 0.62604(3)
Cu15 Cu 0.09569(4) 0.16058(4) 0.62604(3)
Cu19 Cu 0.21037(4) 0.87475(5) 0.67206(3)
Cu20 Cu 0.12525(5) 0.21037(4) 0.67206(3)
O45 O 0.4251(2) 0.7141(2) 0.89197(19)
O46 O 0.4039(3) 0.7567(2) 0.85085(18)
O49 O 0.4290(3) 0.6982(2) 0.80852(17)
O50 O 0.3018(2) 0.4290(3) 0.80852(17)
O51 O 0.4567(2) 0.6598(2) 0.84941(19)
O52 O 0.3402(2) 0.4567(2) 0.84941(19)
O53 O 0.3808(2) 0.6123(2) 0.84951(18)
O54 O 0.3877(2) 0.3808(2) 0.84951(18)
O55 O 0.3531(2) 0.6549(3) 0.81162(17)
O56 O 0.3451(3) 0.3531(2) 0.81162(17)
O37 O 0.1982(2) 0.9290(3) 0.69148(17)
O38 O 0.1598(2) 0.9567(2) 0.65059(19)
H49 H 0.1904 0.9805 0.7355
C83 C 0.1762(4) 0.9587(5) 0.6786(3)
Cu8 Cu 0.83778(6) 0.41194(8) 0.0000
Cu10 Cu 0.75344(6) 0.43340(8) 0.0000
O15 O 0.9290(3) 0.8018(2) 0.69148(17)
O16 O 0.9567(2) 0.8402(2) 0.65059(19)
H26 H 0.9805 0.8096 0.7355
C41 C 0.9587(5) 0.8238(4) 0.6786(3)
O23 O 0.7717(3) 0.4740(2) 0.96748(17)
O24 O 0.8437(3) 0.4550(3) 0.96802(19)
O25 O 0.7141(2) 0.5749(2) 0.89197(19)
O26 O 0.7567(2) 0.5961(3) 0.85085(18)
O27 O 0.9183(3) 0.5860(5) 0.8637(3)
O28 O 0.8953(4) 0.4408(4) 0.8624(3)
N4 N 0.8992(4) 0.5146(7) 0.8664(3)
C43 C 0.8174(5) 0.5015(4) 0.9285(3)
C44 C 0.7826(4) 0.5284(4) 0.9165(3)
H28 H 0.7548 0.5318 0.9267
C45 C 0.7905(5) 0.5515(4) 0.8871(3)
C46 C 0.8293(4) 0.5498(4) 0.8716(3)
H29 H 0.8342 0.5658 0.8536
C47 C 0.8602(5) 0.5238(5) 0.8838(4)
C48 C 0.8552(4) 0.5014(4) 0.9108(4)
H30 H 0.8786 0.4848 0.9178
C49 C 0.9251(7) 0.5476(7) 0.8575(4)
C50 C 0.9654(5) 0.5305(9) 0.8398(4)
H31 H 0.9659 0.5420 0.8186
C51 C 0.9579(5) 0.4801(10) 0.8394(4)
H32 H 0.9558 0.4692 0.8180
C52 C 0.9138(8) 0.4721(7) 0.8575(5)
C53 C 0.9935(5) 0.4549(5) 0.8578(3)
H33 H 0.9891 0.4233 0.8582
C54 C 0.9952(3) 0.4769(3) 0.8912(3)
H34 H 0.9903 0.4612 0.9094
C55 C 0.8121(6) 0.4738(5) 0.9579(3)
C56 C 0.7482(5) 0.5761(4) 0.8765(3)
Cu8_2 Cu 0.83778(6) 0.41194(8) 1.0000
Cu10_2 Cu 0.75344(6) 0.43340(8) 1.0000
Cu11 Cu 0.66058(4) 0.59569(4) 0.87396(3)
Cu12 Cu 0.90431(4) 0.83942(4) 0.62604(3)
Cu16 Cu 0.71037(4) 0.62525(5) 0.82794(3)
Cu17 Cu 0.87475(5) 0.78963(4) 0.67206(3)
O37_2 O 0.0710(3) 0.1982(2) 0.69148(17)
O38_2 O 0.0433(2) 0.1598(2) 0.65059(19)
H49_2 H 0.0195 0.1904 0.7355
C83_2 C 0.0413(5) 0.1762(4) 0.6786(3)
O19_3 O 0.3954(4) 0.0964(3) 0.0000
H1_2 H 0.4033 0.0826 0.0162
O20_3 O 0.4464(6) 0.3140(3) 0.0000
H36_2 H 0.4620 0.3178 0.0161
O43_2 O 0.4740(2) 0.2283(3) 0.03252(17)
O44_2 O 0.4550(3) 0.1563(3) 0.03198(19)
O47_2 O 0.3695(3) 0.1790(3) 0.03137(17)
O48_2 O 0.3882(3) 0.2509(3) 0.03248(17)
Cu3_2 Cu 0.59569(4) 0.33942(4) 0.87396(3)
Cu4_2 Cu 0.62525(5) 0.28963(4) 0.82794(3)
O1_2 O 0.4740(2) 0.2283(3) 0.96748(17)
O2_2 O 0.4550(3) 0.1563(3) 0.96802(19)
O3_2 O 0.5749(2) 0.2859(2) 0.89197(19)
O4_2 O 0.5961(3) 0.2433(2) 0.85085(18)
O5_2 O 0.5860(5) 0.0817(3) 0.8637(3)
O6_2 O 0.4408(4) 0.1047(4) 0.8624(3)
O19_4 O 0.3954(4) 0.0964(3) 1.0000
O20_4 O 0.4464(6) 0.3140(3) 1.0000
H2_2 H 0.4620 0.3178 0.9839
O21_2 O 0.5753(3) 0.3759(3) 0.9129(2)
H3_2 H 0.5539 0.3861 0.9027
H4_2 H 0.5842 0.3985 0.9034
O22_2 O 0.6498(3) 0.2501(3) 0.79173(19)
H5_2 H 0.6732 0.2637 0.7961
H6_2 H 0.6397 0.2439 0.7739
N1_2 N 0.5146(7) 0.1008(4) 0.8664(3)
C1_2 C 0.5015(4) 0.1826(5) 0.9285(3)
C2_2 C 0.5284(4) 0.2174(4) 0.9165(3)
H7_2 H 0.5318 0.2452 0.9267
C3_2 C 0.5515(4) 0.2095(5) 0.8871(3)
C4_2 C 0.5498(4) 0.1707(4) 0.8716(3)
H8_2 H 0.5658 0.1658 0.8536
C5_2 C 0.5238(5) 0.1398(5) 0.8838(4)
C6_2 C 0.5014(4) 0.1448(4) 0.9108(4)
H9_2 H 0.4848 0.1214 0.9178
C7_2 C 0.5476(7) 0.0749(7) 0.8575(4)
C8_2 C 0.5305(9) 0.0346(5) 0.8398(4)
H10_2 H 0.5420 0.0341 0.8186
C9_2 C 0.4801(10) 0.0421(5) 0.8394(4)
H11_2 H 0.4692 0.0442 0.8180
C10_2 C 0.4721(7) 0.0862(8) 0.8575(5)
C11_2 C 0.4549(5) 0.0065(5) 0.8578(3)
H12_2 H 0.4233 0.0109 0.8582
C12_2 C 0.4769(3) 0.0048(3) 0.8912(3)
H13_2 H 0.4612 0.0097 0.9094
C13_2 C 0.4738(5) 0.1879(6) 0.9579(3)
C14_2 C 0.5761(4) 0.2518(5) 0.8765(3)
H35_2 H 0.4033 0.0826 0.9838
O29_2 O 0.8210(3) 0.3695(3) 0.96863(17)
O30_2 O 0.7491(3) 0.3882(3) 0.96752(17)
O31_2 O 0.6545(3) 0.3289(3) 0.89047(18)
O32_2 O 0.6788(2) 0.2843(3) 0.85347(19)
O33_2 O 0.8101(5) 0.1945(4) 0.8852(3)
O34_2 O 0.8777(3) 0.3236(5) 0.8726(3)
O35_2 O 0.9820(3) 0.2583(4) 0.7709(3)
O36_2 O 0.9153(5) 0.1221(5) 0.7868(3)
O39_2 O 0.8877(2) 0.1192(2) 0.65049(18)
O40_2 O 0.8451(3) 0.1469(2) 0.68838(17)
C57_2 C 0.7679(8) 0.3369(5) 0.9327(4)
C58_2 C 0.7282(5) 0.3338(5) 0.9199(4)
H37_2 H 0.7056 0.3519 0.9286
C59_2 C 0.7250(5) 0.3079(5) 0.8950(4)
C60_2 C 0.7579(6) 0.2842(4) 0.8824(3)
H38_2 H 0.7522 0.2652 0.8652
C61_2 C 0.8031(6) 0.2854(5) 0.8948(3)
C62_2 C 0.8059(6) 0.3150(5) 0.9224(3)
H39_2 H 0.8335 0.3157 0.9330
N5_2 N 0.8389(5) 0.2633(9) 0.8833(3)
C63_2 C 0.8420(7) 0.2236(11) 0.8801(2)
C64_2 C 0.8823(7) 0.2052(6) 0.8672(4)
H40_2 H 0.8974 0.1852 0.8806
C65_2 C 0.9050(5) 0.2484(7) 0.8624(3)
H41_2 H 0.9319 0.2476 0.8739
C66_2 C 0.8785(8) 0.2846(6) 0.8750(4)
C67_2 C 0.8806(6) 0.1820(7) 0.8355(3)
H42_2 H 0.8641 0.1546 0.8355
C68_2 C 0.8637(5) 0.2160(6) 0.8134(3)
H43_2 H 0.8382 0.2079 0.8018
C69_2 C 0.8779(5) 0.2533(6) 0.8082(4)
H44_2 H 0.8660 0.2718 0.7924
C70_2 C 0.9194(5) 0.2571(5) 0.8296(4)
H45_2 H 0.9303 0.2864 0.8283
N6_2 N 0.9523(4) 0.1858(5) 0.7752(4)
C71_2 C 0.9670(3) 0.2302(7) 0.7848(4)
C72_2 C 0.9542(5) 0.2188(5) 0.8198(4)
H46_2 H 0.9778 0.2211 0.8344
C73_2 C 0.9334(5) 0.1770(5) 0.8231(4)
H47_2 H 0.9493 0.1623 0.8392
C74_2 C 0.9346(5) 0.1514(8) 0.7921(3)
C75_2 C 0.9228(5) 0.1538(3) 0.6928(3)
C76_2 C 0.9613(4) 0.1561(3) 0.6783(3)
H48_2 H 0.9664 0.1453 0.6577
C77_2 C 0.9981(5) 0.1711(4) 0.6945(3)
C78_2 C 0.9939(4) 0.1803(5) 0.7248(3)
C79_2 C 0.9575(6) 0.1764(5) 0.7390(3)
C80_2 C 0.9176(4) 0.1646(4) 0.7238(3)
H50_2 H 0.8901 0.1641 0.7345
C81_2 C 0.7821(6) 0.3656(5) 0.9574(4)
C82_2 C 0.6837(5) 0.3063(5) 0.8771(3)
C84_2 C 0.8794(5) 0.1392(3) 0.6758(3)
Cu15_2 Cu 0.83942(4) 0.09569(4) 0.62604(3)
Cu20_2 Cu 0.78963(4) 0.12525(5) 0.67206(3)
O50_2 O 0.5710(3) 0.3018(2) 0.80852(17)
O52_2 O 0.5433(2) 0.3402(2) 0.84941(19)
O54_2 O 0.6192(2) 0.3877(2) 0.84951(18)
O56_2 O 0.6469(2) 0.3451(3) 0.81162(17)
Cu8_3 Cu 0.58806(8) 0.83778(6) 0.0000
Cu10_3 Cu 0.56660(8) 0.75344(6) 0.0000
O23_2 O 0.5260(2) 0.7717(3) 0.96748(17)
O24_2 O 0.5450(3) 0.8437(3) 0.96802(19)
O27_2 O 0.4140(5) 0.9183(3) 0.8637(3)
O28_2 O 0.5592(4) 0.8953(4) 0.8624(3)
N4_2 N 0.4854(7) 0.8992(4) 0.8664(3)
C43_2 C 0.4985(4) 0.8174(5) 0.9285(3)
C44_2 C 0.4716(4) 0.7826(4) 0.9165(3)
H28_2 H 0.4682 0.7548 0.9267
C45_2 C 0.4485(4) 0.7905(5) 0.8871(3)
C46_2 C 0.4502(4) 0.8293(4) 0.8716(3)
H29_2 H 0.4342 0.8342 0.8536
C47_2 C 0.4762(5) 0.8602(5) 0.8838(4)
C48_2 C 0.4986(4) 0.8552(4) 0.9108(4)
H30_2 H 0.5152 0.8786 0.9178
C49_2 C 0.4524(7) 0.9251(7) 0.8575(4)
C50_2 C 0.4695(9) 0.9654(5) 0.8398(4)
H31_2 H 0.4580 0.9659 0.8186
C51_2 C 0.5199(10) 0.9579(5) 0.8394(4)
H32_2 H 0.5308 0.9558 0.8180
C52_2 C 0.5279(7) 0.9138(8) 0.8575(5)
C53_2 C 0.5451(5) 0.9935(5) 0.8578(3)
H33_2 H 0.5767 0.9891 0.8582
C54_2 C 0.5231(3) 0.9952(3) 0.8912(3)
H34_2 H 0.5388 0.9903 0.9094
C55_2 C 0.5262(5) 0.8121(6) 0.9579(3)
C56_2 C 0.4239(4) 0.7482(5) 0.8765(3)
Cu8_4 Cu 0.58806(8) 0.83778(6) 1.0000
Cu10_4 Cu 0.56660(8) 0.75344(6) 1.0000
O37_3 O 0.8018(2) 0.0710(3) 0.69148(17)
O38_3 O 0.8402(2) 0.0433(2) 0.65059(19)
H49_3 H 0.8096 0.0195 0.7355
C83_3 C 0.8238(4) 0.0413(5) 0.6786(3)
O19_5 O 0.9036(3) 0.3954(4) 0.0000
H1_3 H 0.9174 0.4033 0.0162
O20_5 O 0.6860(3) 0.4464(6) 0.0000
H36_3 H 0.6822 0.4620 0.0161
O43_3 O 0.7717(3) 0.4740(2) 0.03252(17)
O44_3 O 0.8437(3) 0.4550(3) 0.03198(19)
O47_3 O 0.8210(3) 0.3695(3) 0.03137(17)
O48_3 O 0.7491(3) 0.3882(3) 0.03248(17)
O19_6 O 0.9036(3) 0.3954(4) 1.0000
O20_6 O 0.6860(3) 0.4464(6) 1.0000
H2_3 H 0.6822 0.4620 0.9839
O21_3 O 0.6241(3) 0.5753(3) 0.9129(2)
H3_3 H 0.6139 0.5539 0.9027
H4_3 H 0.6015 0.5842 0.9034
O22_3 O 0.7499(3) 0.6498(3) 0.79173(19)
H5_3 H 0.7363 0.6732 0.7961
H6_3 H 0.7561 0.6397 0.7739
H35_3 H 0.9174 0.4033 0.9838
O29_3 O 0.6305(3) 0.8210(3) 0.96863(17)
O30_3 O 0.6118(3) 0.7491(3) 0.96752(17)
O31_3 O 0.6711(3) 0.6545(3) 0.89047(18)
O32_3 O 0.7157(3) 0.6788(2) 0.85347(19)
O33_3 O 0.8055(4) 0.8101(5) 0.8852(3)
O34_3 O 0.6764(5) 0.8777(3) 0.8726(3)
O35_3 O 0.7417(4) 0.9820(3) 0.7709(3)
O36_3 O 0.8779(5) 0.9153(5) 0.7868(3)
O39_3 O 0.8808(2) 0.8877(2) 0.65049(18)
O40_3 O 0.8531(2) 0.8451(3) 0.68838(17)
C57_3 C 0.6631(5) 0.7679(8) 0.9327(4)
C58_3 C 0.6662(5) 0.7282(5) 0.9199(4)
H37_3 H 0.6481 0.7056 0.9286
C59_3 C 0.6921(5) 0.7250(5) 0.8950(4)
C60_3 C 0.7158(4) 0.7579(6) 0.8824(3)
H38_3 H 0.7348 0.7522 0.8652
C61_3 C 0.7146(5) 0.8031(6) 0.8948(3)
C62_3 C 0.6850(5) 0.8059(6) 0.9224(3)
H39_3 H 0.6843 0.8335 0.9330
N5_3 N 0.7367(9) 0.8389(5) 0.8833(3)
C63_3 C 0.7764(11) 0.8420(7) 0.8801(2)
C64_3 C 0.7948(6) 0.8823(7) 0.8672(4)
H40_3 H 0.8148 0.8974 0.8806
C65_3 C 0.7516(7) 0.9050(5) 0.8624(3)
H41_3 H 0.7524 0.9319 0.8739
C66_3 C 0.7154(6) 0.8785(8) 0.8750(4)
C67_3 C 0.8180(7) 0.8806(6) 0.8355(3)
H42_3 H 0.8454 0.8641 0.8355
C68_3 C 0.7840(6) 0.8637(5) 0.8134(3)
H43_3 H 0.7921 0.8382 0.8018
C69_3 C 0.7467(6) 0.8779(5) 0.8082(4)
H44_3 H 0.7282 0.8660 0.7924
C70_3 C 0.7429(5) 0.9194(5) 0.8296(4)
H45_3 H 0.7136 0.9303 0.8283
N6_3 N 0.8142(5) 0.9523(4) 0.7752(4)
C71_3 C 0.7698(7) 0.9670(3) 0.7848(4)
C72_3 C 0.7812(5) 0.9542(5) 0.8198(4)
H46_3 H 0.7789 0.9778 0.8344
C73_3 C 0.8230(5) 0.9334(5) 0.8231(4)
H47_3 H 0.8377 0.9493 0.8392
C74_3 C 0.8486(8) 0.9346(5) 0.7921(3)
C75_3 C 0.8462(3) 0.9228(5) 0.6928(3)
C76_3 C 0.8439(3) 0.9613(4) 0.6783(3)
H48_3 H 0.8547 0.9664 0.6577
C77_3 C 0.8289(4) 0.9981(5) 0.6945(3)
C78_3 C 0.8197(5) 0.9939(4) 0.7248(3)
C79_3 C 0.8236(5) 0.9575(6) 0.7390(3)
C80_3 C 0.8354(4) 0.9176(4) 0.7238(3)
H50_3 H 0.8359 0.8901 0.7345
C81_3 C 0.6344(5) 0.7821(6) 0.9574(4)
C82_3 C 0.6937(5) 0.6837(5) 0.8771(3)
C84_3 C 0.8608(3) 0.8794(5) 0.6758(3)
O50_3 O 0.6982(2) 0.5710(3) 0.80852(17)
O52_3 O 0.6598(2) 0.5433(2) 0.84941(19)
O54_3 O 0.6123(2) 0.6192(2) 0.84951(18)
O56_3 O 0.6549(3) 0.6469(2) 0.81162(17)
O19_7 O 0.6046(4) 0.9036(3) 0.0000
H1_4 H 0.5967 0.9174 0.0162
O20_7 O 0.5536(6) 0.6860(3) 0.0000
H36_4 H 0.5380 0.6822 0.0161
O43_4 O 0.5260(2) 0.7717(3) 0.03252(17)
O44_4 O 0.5450(3) 0.8437(3) 0.03198(19)
O47_4 O 0.6305(3) 0.8210(3) 0.03137(17)
O48_4 O 0.6118(3) 0.7491(3) 0.03248(17)
O19_8 O 0.6046(4) 0.9036(3) 1.0000
O20_8 O 0.5536(6) 0.6860(3) 1.0000
H2_4 H 0.5380 0.6822 0.9839
H35_4 H 0.5967 0.9174 0.9838
O3_3 O 0.7859(2) 0.0749(2) 0.60803(19)
O4_3 O 0.7433(2) 0.0961(3) 0.64915(18)
O5_3 O 0.5817(3) 0.0860(5) 0.6363(3)
O21_4 O 0.8759(3) 0.0753(3) 0.5871(2)
H3_4 H 0.8861 0.0539 0.5973
H4_4 H 0.8985 0.0842 0.5966
O22_4 O 0.7501(3) 0.1498(3) 0.70827(19)
H5_4 H 0.7637 0.1732 0.7039
H6_4 H 0.7439 0.1397 0.7261
N1_3 N 0.6008(4) 0.0146(7) 0.6336(3)
C1_3 C 0.6826(5) 0.0015(4) 0.5715(3)
C2_3 C 0.7174(4) 0.0284(4) 0.5835(3)
H7_3 H 0.7452 0.0318 0.5733
C3_3 C 0.7095(5) 0.0515(4) 0.6129(3)
C4_3 C 0.6707(4) 0.0498(4) 0.6284(3)
H8_3 H 0.6658 0.0658 0.6464
C5_3 C 0.6398(5) 0.0238(5) 0.6162(4)
C6_3 C 0.6448(4) 0.0014(4) 0.5892(4)
C7_3 C 0.5749(7) 0.0476(7) 0.6425(4)
C8_3 C 0.5346(5) 0.0305(9) 0.6602(4)
H10_3 H 0.5341 0.0420 0.6814
C14_3 C 0.7518(5) 0.0761(4) 0.6235(3)
O23_3 O 0.2717(3) 0.0260(2) 0.53252(17)
O24_3 O 0.3437(3) 0.0450(3) 0.53198(19)
O28_3 O 0.3953(4) 0.0592(4) 0.6376(3)
H30_3 H 0.3786 0.0152 0.5822
C51_3 C 0.4579(5) 0.0199(10) 0.6606(4)
H32_3 H 0.4558 0.0308 0.6820
C52_3 C 0.4138(8) 0.0279(7) 0.6425(5)
C53_3 C 0.4935(5) 0.0451(5) 0.6422(3)
H33_3 H 0.4891 0.0767 0.6418
C54_3 C 0.4952(3) 0.0231(3) 0.6088(3)
H34_3 H 0.4903 0.0388 0.5906
C55_3 C 0.3121(6) 0.0262(5) 0.5421(3)
O29_4 O 0.8695(3) 0.3210(3) 0.53137(17)
O30_4 O 0.8882(3) 0.2491(3) 0.53248(17)
O31_4 O 0.8289(3) 0.1545(3) 0.60953(18)
O32_4 O 0.7843(3) 0.1788(2) 0.64653(19)
O33_4 O 0.6945(4) 0.3101(5) 0.6148(3)
O34_4 O 0.8236(5) 0.3777(3) 0.6274(3)
O35_4 O 0.7583(4) 0.4820(3) 0.7291(3)
O36_4 O 0.6221(5) 0.4153(5) 0.7132(3)
C57_4 C 0.8369(5) 0.2679(8) 0.5673(4)
C58_4 C 0.8338(5) 0.2282(5) 0.5801(4)
H37_4 H 0.8519 0.2056 0.5714
C59_4 C 0.8079(5) 0.2250(5) 0.6050(4)
C60_4 C 0.7842(4) 0.2579(6) 0.6176(3)
H38_4 H 0.7652 0.2522 0.6348
C61_4 C 0.7854(5) 0.3031(6) 0.6052(3)
C62_4 C 0.8150(5) 0.3059(6) 0.5776(3)
H39_4 H 0.8157 0.3335 0.5670
N5_4 N 0.7633(9) 0.3389(5) 0.6167(3)
C63_4 C 0.7236(11) 0.3420(7) 0.6199(2)
C64_4 C 0.7052(6) 0.3823(7) 0.6328(4)
H40_4 H 0.6852 0.3974 0.6194
C65_4 C 0.7484(7) 0.4050(5) 0.6376(3)
H41_4 H 0.7476 0.4319 0.6261
C66_4 C 0.7846(6) 0.3785(8) 0.6250(4)
C67_4 C 0.6820(7) 0.3806(6) 0.6645(3)
H42_4 H 0.6546 0.3641 0.6645
C68_4 C 0.7160(6) 0.3637(5) 0.6866(3)
H43_4 H 0.7079 0.3382 0.6982
C69_4 C 0.7533(6) 0.3779(5) 0.6918(4)
H44_4 H 0.7718 0.3660 0.7076
C70_4 C 0.7571(5) 0.4194(5) 0.6704(4)
H45_4 H 0.7864 0.4303 0.6717
N6_4 N 0.6858(5) 0.4523(4) 0.7248(4)
C71_4 C 0.7302(7) 0.4670(3) 0.7152(4)
C72_4 C 0.7188(5) 0.4542(5) 0.6802(4)
H46_4 H 0.7211 0.4778 0.6656
C73_4 C 0.6770(5) 0.4334(5) 0.6769(4)
H47_4 H 0.6623 0.4493 0.6608
C74_4 C 0.6514(8) 0.4346(5) 0.7079(3)
C75_4 C 0.6538(3) 0.4228(5) 0.8072(3)
C76_4 C 0.6561(3) 0.4613(4) 0.8217(3)
H48_4 H 0.6453 0.4664 0.8423
C77_4 C 0.6711(4) 0.4981(5) 0.8055(3)
C78_4 C 0.6803(5) 0.4939(4) 0.7752(3)
H49_4 H 0.6904 0.5195 0.7645
C79_4 C 0.6764(5) 0.4575(6) 0.7610(3)
C80_4 C 0.6646(4) 0.4176(4) 0.7762(3)
H50_4 H 0.6641 0.3901 0.7655
C81_4 C 0.8656(5) 0.2821(6) 0.5426(4)
C82_4 C 0.8063(5) 0.1837(5) 0.6229(3)
C83_4 C 0.6762(4) 0.5413(5) 0.8214(3)
C84_4 C 0.6392(3) 0.3794(5) 0.8242(3)
Cu7_3 Cu 0.91194(8) 0.33778(6) 0.5000
Cu8_5 Cu 0.33778(6) 0.08806(8) 0.5000
Cu9_3 Cu 0.93340(8) 0.25344(6) 0.5000
Cu10_5 Cu 0.25344(6) 0.06660(8) 0.5000
Cu1_3 Cu 0.66222(6) 0.91194(8) 0.5000
Cu2_3 Cu 0.74656(6) 0.93340(8) 0.5000
O1_3 O 0.7283(3) 0.9740(2) 0.53252(17)
O2_3 O 0.6563(3) 0.9550(3) 0.53198(19)
O6_3 O 0.6047(4) 0.9408(4) 0.6376(3)
O7_2 O 0.6790(3) 0.8695(3) 0.53137(17)
O8_2 O 0.7509(3) 0.8882(3) 0.53248(17)
O9_2 O 0.8455(3) 0.8289(3) 0.60953(18)
O10_2 O 0.8212(2) 0.7843(3) 0.64653(19)
O11_2 O 0.6899(5) 0.6945(4) 0.6148(3)
O12_2 O 0.6223(3) 0.8236(5) 0.6274(3)
O13_2 O 0.5180(3) 0.7583(4) 0.7291(3)
O14_2 O 0.5847(5) 0.6221(5) 0.7132(3)
O19_9 O 0.5964(3) 0.8954(4) 0.5000
H1_5 H 0.5826 0.9033 0.4838
O20_9 O 0.8140(3) 0.9464(6) 0.5000
H2_5 H 0.8178 0.9620 0.5161
H9_3 H 0.6214 0.9848 0.5822
C9_3 C 0.5421(5) 0.9801(10) 0.6606(4)
H11_3 H 0.5442 0.9692 0.6820
C10_3 C 0.5862(8) 0.9721(7) 0.6425(5)
C11_3 C 0.5065(5) 0.9549(5) 0.6422(3)
H12_3 H 0.5109 0.9233 0.6418
C12_3 C 0.5048(3) 0.9769(3) 0.6088(3)
H13_3 H 0.5097 0.9612 0.5906
C13_3 C 0.6879(6) 0.9738(5) 0.5421(3)
C15_2 C 0.7321(8) 0.8369(5) 0.5673(4)
C16_2 C 0.7718(5) 0.8338(5) 0.5801(4)
H14_2 H 0.7944 0.8519 0.5714
C17_2 C 0.7750(5) 0.8079(5) 0.6050(4)
C18_2 C 0.7421(6) 0.7842(4) 0.6176(3)
H15_2 H 0.7478 0.7652 0.6348
C19_2 C 0.6969(6) 0.7854(5) 0.6052(3)
C20_2 C 0.6941(6) 0.8150(5) 0.5776(3)
H16_2 H 0.6665 0.8157 0.5670
N2_2 N 0.6611(5) 0.7633(9) 0.6167(3)
C21_2 C 0.6580(7) 0.7236(11) 0.6199(2)
C22_2 C 0.6177(7) 0.7052(6) 0.6328(4)
H17_2 H 0.6026 0.6852 0.6194
C23_2 C 0.5950(5) 0.7484(7) 0.6376(3)
H18_2 H 0.5681 0.7476 0.6261
C24_2 C 0.6215(8) 0.7846(6) 0.6250(4)
C25_2 C 0.6194(6) 0.6820(7) 0.6645(3)
H19_2 H 0.6359 0.6546 0.6645
C26_2 C 0.6363(5) 0.7160(6) 0.6866(3)
H20_2 H 0.6618 0.7079 0.6982
C27_2 C 0.6221(5) 0.7533(6) 0.6918(4)
H21_2 H 0.6340 0.7718 0.7076
C28_2 C 0.5806(5) 0.7571(5) 0.6704(4)
H22_2 H 0.5697 0.7864 0.6717
N3_2 N 0.5477(4) 0.6858(5) 0.7248(4)
C29_2 C 0.5330(3) 0.7302(7) 0.7152(4)
C30_2 C 0.5458(5) 0.7188(5) 0.6802(4)
H23_2 H 0.5222 0.7211 0.6656
C31_2 C 0.5666(5) 0.6770(5) 0.6769(4)
H24_2 H 0.5507 0.6623 0.6608
C32_2 C 0.5654(5) 0.6514(8) 0.7079(3)
C33_2 C 0.5772(5) 0.6538(3) 0.8072(3)
C34_2 C 0.5387(4) 0.6561(3) 0.8217(3)
H25_2 H 0.5336 0.6453 0.8423
C35_2 C 0.5019(5) 0.6711(4) 0.8055(3)
C36_2 C 0.5061(4) 0.6803(5) 0.7752(3)
H26_2 H 0.4805 0.6904 0.7645
C37_2 C 0.5425(6) 0.6764(5) 0.7610(3)
C38_2 C 0.5824(4) 0.6646(4) 0.7762(3)
H27_2 H 0.6099 0.6641 0.7655
C39_2 C 0.7179(6) 0.8656(5) 0.5426(4)
C40_2 C 0.8163(5) 0.8063(5) 0.6229(3)
C41_2 C 0.4587(5) 0.6762(4) 0.8214(3)
C42_2 C 0.6206(5) 0.6392(3) 0.8242(3)
O25_2 O 0.2141(2) 0.9251(2) 0.60803(19)
O26_2 O 0.2567(2) 0.9039(3) 0.64915(18)
O27_3 O 0.4183(3) 0.9140(5) 0.6363(3)
N4_3 N 0.3992(4) 0.9854(7) 0.6336(3)
C43_3 C 0.3174(5) 0.9985(4) 0.5715(3)
C44_3 C 0.2826(4) 0.9716(4) 0.5835(3)
H28_3 H 0.2548 0.9682 0.5733
C45_3 C 0.2905(5) 0.9485(4) 0.6129(3)
C46_3 C 0.3293(4) 0.9502(4) 0.6284(3)
H29_3 H 0.3342 0.9342 0.6464
C47_3 C 0.3602(5) 0.9762(5) 0.6162(4)
C48_3 C 0.3552(4) 0.9986(4) 0.5892(4)
C49_3 C 0.4251(7) 0.9524(7) 0.6425(4)
C50_3 C 0.4654(5) 0.9695(9) 0.6602(4)
H31_3 H 0.4659 0.9580 0.6814
C56_3 C 0.2482(5) 0.9239(4) 0.6235(3)
H35_5 H 0.5826 0.9033 0.5162
H36_5 H 0.8178 0.9620 0.4839
O41_2 O 0.9247(3) 0.8759(3) 0.5871(2)
H51_2 H 0.9461 0.8861 0.5973
H52_2 H 0.9158 0.8985 0.5966
O42_2 O 0.8502(3) 0.7501(3) 0.70827(19)
H53_2 H 0.8268 0.7637 0.7039
H54_2 H 0.8603 0.7439 0.7261
O43_5 O 0.7283(3) 0.9740(2) 0.46748(17)
O44_5 O 0.6563(3) 0.9550(3) 0.46802(19)
O45_2 O 0.9251(2) 0.7859(2) 0.60803(19)
O46_2 O 0.9039(3) 0.7433(2) 0.64915(18)
O47_5 O 0.6790(3) 0.8695(3) 0.46863(17)
O48_5 O 0.7509(3) 0.8882(3) 0.46752(17)
Cu1_4 Cu 0.08806(8) 0.66222(6) 0.5000
Cu2_4 Cu 0.06660(8) 0.74656(6) 0.5000
O1_4 O 0.0260(2) 0.7283(3) 0.53252(17)
O2_4 O 0.0450(3) 0.6563(3) 0.53198(19)
O6_4 O 0.0592(4) 0.6047(4) 0.6376(3)
O7_3 O 0.1305(3) 0.6790(3) 0.53137(17)
O8_3 O 0.1118(3) 0.7509(3) 0.53248(17)
O9_3 O 0.1711(3) 0.8455(3) 0.60953(18)
O10_3 O 0.2157(3) 0.8212(2) 0.64653(19)
O11_3 O 0.3055(4) 0.6899(5) 0.6148(3)
O12_3 O 0.1764(5) 0.6223(3) 0.6274(3)
O13_3 O 0.2417(4) 0.5180(3) 0.7291(3)
O14_3 O 0.3779(5) 0.5847(5) 0.7132(3)
O19_10 O 0.1046(4) 0.5964(3) 0.5000
H1_6 H 0.0967 0.5826 0.4838
O20_10 O 0.0536(6) 0.8140(3) 0.5000
H2_6 H 0.0380 0.8178 0.5161
H9_4 H 0.0152 0.6214 0.5822
C9_4 C 0.0199(10) 0.5421(5) 0.6606(4)
H11_4 H 0.0308 0.5442 0.6820
C10_4 C 0.0279(7) 0.5862(8) 0.6425(5)
C11_4 C 0.0451(5) 0.5065(5) 0.6422(3)
H12_4 H 0.0767 0.5109 0.6418
C12_4 C 0.0231(3) 0.5048(3) 0.6088(3)
H13_4 H 0.0388 0.5097 0.5906
C13_4 C 0.0262(5) 0.6879(6) 0.5421(3)
C15_3 C 0.1631(5) 0.7321(8) 0.5673(4)
C16_3 C 0.1662(5) 0.7718(5) 0.5801(4)
H14_3 H 0.1481 0.7944 0.5714
C17_3 C 0.1921(5) 0.7750(5) 0.6050(4)
C18_3 C 0.2158(4) 0.7421(6) 0.6176(3)
H15_3 H 0.2348 0.7478 0.6348
C19_3 C 0.2146(5) 0.6969(6) 0.6052(3)
C20_3 C 0.1850(5) 0.6941(6) 0.5776(3)
H16_3 H 0.1843 0.6665 0.5670
N2_3 N 0.2367(9) 0.6611(5) 0.6167(3)
C21_3 C 0.2764(11) 0.6580(7) 0.6199(2)
C22_3 C 0.2948(6) 0.6177(7) 0.6328(4)
H17_3 H 0.3148 0.6026 0.6194
C23_3 C 0.2516(7) 0.5950(5) 0.6376(3)
H18_3 H 0.2524 0.5681 0.6261
C24_3 C 0.2154(6) 0.6215(8) 0.6250(4)
C25_3 C 0.3180(7) 0.6194(6) 0.6645(3)
H19_3 H 0.3454 0.6359 0.6645
C26_3 C 0.2840(6) 0.6363(5) 0.6866(3)
H20_3 H 0.2921 0.6618 0.6982
C27_3 C 0.2467(6) 0.6221(5) 0.6918(4)
H21_3 H 0.2282 0.6340 0.7076
C28_3 C 0.2429(5) 0.5806(5) 0.6704(4)
H22_3 H 0.2136 0.5697 0.6717
N3_3 N 0.3142(5) 0.5477(4) 0.7248(4)
C29_3 C 0.2698(7) 0.5330(3) 0.7152(4)
C30_3 C 0.2812(5) 0.5458(5) 0.6802(4)
H23_3 H 0.2789 0.5222 0.6656
C31_3 C 0.3230(5) 0.5666(5) 0.6769(4)
H24_3 H 0.3377 0.5507 0.6608
C32_3 C 0.3486(8) 0.5654(5) 0.7079(3)
C33_3 C 0.3462(3) 0.5772(5) 0.8072(3)
C34_3 C 0.3439(3) 0.5387(4) 0.8217(3)
H25_3 H 0.3547 0.5336 0.8423
C35_3 C 0.3289(4) 0.5019(5) 0.8055(3)
C36_3 C 0.3197(5) 0.5061(4) 0.7752(3)
H26_3 H 0.3096 0.4805 0.7645
C37_3 C 0.3236(5) 0.5425(6) 0.7610(3)
C38_3 C 0.3354(4) 0.5824(4) 0.7762(3)
H27_3 H 0.3359 0.6099 0.7655
C39_3 C 0.1344(5) 0.7179(6) 0.5426(4)
C40_3 C 0.1937(5) 0.8163(5) 0.6229(3)
C41_3 C 0.3238(4) 0.4587(5) 0.8214(3)
C42_3 C 0.3608(3) 0.6206(5) 0.8242(3)
O25_3 O 0.0749(2) 0.2141(2) 0.60803(19)
O26_3 O 0.0961(3) 0.2567(2) 0.64915(18)
O27_4 O 0.0860(5) 0.4183(3) 0.6363(3)
N4_4 N 0.0146(7) 0.3992(4) 0.6336(3)
C43_4 C 0.0015(4) 0.3174(5) 0.5715(3)
C44_4 C 0.0284(4) 0.2826(4) 0.5835(3)
H28_4 H 0.0318 0.2548 0.5733
C45_4 C 0.0515(4) 0.2905(5) 0.6129(3)
C46_4 C 0.0498(4) 0.3293(4) 0.6284(3)
H29_4 H 0.0658 0.3342 0.6464
C47_4 C 0.0238(5) 0.3602(5) 0.6162(4)
C48_4 C 0.0014(4) 0.3552(4) 0.5892(4)
C49_4 C 0.0476(7) 0.4251(7) 0.6425(4)
C50_4 C 0.0305(9) 0.4654(5) 0.6602(4)
H31_4 H 0.0420 0.4659 0.6814
C56_4 C 0.0761(4) 0.2482(5) 0.6235(3)
H35_6 H 0.0967 0.5826 0.5162
H36_6 H 0.0380 0.8178 0.4839
O41_3 O 0.1241(3) 0.9247(3) 0.5871(2)
H51_3 H 0.1139 0.9461 0.5973
H52_3 H 0.1015 0.9158 0.5966
O42_3 O 0.2499(3) 0.8502(3) 0.70827(19)
H53_3 H 0.2363 0.8268 0.7039
H54_3 H 0.2561 0.8603 0.7261
O43_6 O 0.0260(2) 0.7283(3) 0.46748(17)
O44_6 O 0.0450(3) 0.6563(3) 0.46802(19)
O47_6 O 0.1305(3) 0.6790(3) 0.46863(17)
O48_6 O 0.1118(3) 0.7509(3) 0.46752(17)
O5_4 O 0.9140(5) 0.5817(3) 0.6363(3)
N1_4 N 0.9854(7) 0.6008(4) 0.6336(3)
C1_4 C 0.9985(4) 0.6826(5) 0.5715(3)
C2_4 C 0.9716(4) 0.7174(4) 0.5835(3)
H7_4 H 0.9682 0.7452 0.5733
C3_4 C 0.9485(4) 0.7095(5) 0.6129(3)
C4_4 C 0.9502(4) 0.6707(4) 0.6284(3)
H8_4 H 0.9342 0.6658 0.6464
C5_4 C 0.9762(5) 0.6398(5) 0.6162(4)
C6_4 C 0.9986(4) 0.6448(4) 0.5892(4)
C7_4 C 0.9524(7) 0.5749(7) 0.6425(4)
C8_4 C 0.9695(9) 0.5346(5) 0.6602(4)
H10_4 H 0.9580 0.5341 0.6814
C14_4 C 0.9239(4) 0.7518(5) 0.6235(3)
O23_4 O 0.9740(2) 0.2717(3) 0.53252(17)
O24_4 O 0.9550(3) 0.3437(3) 0.53198(19)
O28_4 O 0.9408(4) 0.3953(4) 0.6376(3)
H30_4 H 0.9848 0.3786 0.5822
C51_4 C 0.9801(10) 0.4579(5) 0.6606(4)
H32_4 H 0.9692 0.4558 0.6820
C52_4 C 0.9721(7) 0.4138(8) 0.6425(5)
C53_4 C 0.9549(5) 0.4935(5) 0.6422(3)
H33_4 H 0.9233 0.4891 0.6418
C54_4 C 0.9769(3) 0.4952(3) 0.6088(3)
H34_4 H 0.9612 0.4903 0.5906
C55_4 C 0.9738(5) 0.3121(6) 0.5421(3)
O7_4 O 0.3210(3) 0.1305(3) 0.53137(17)
O8_4 O 0.2491(3) 0.1118(3) 0.53248(17)
O9_4 O 0.1545(3) 0.1711(3) 0.60953(18)
O10_4 O 0.1788(2) 0.2157(3) 0.64653(19)
O11_4 O 0.3101(5) 0.3055(4) 0.6148(3)
O12_4 O 0.3777(3) 0.1764(5) 0.6274(3)
O13_4 O 0.4820(3) 0.2417(4) 0.7291(3)
O14_4 O 0.4153(5) 0.3779(5) 0.7132(3)
O19_11 O 0.4036(3) 0.1046(4) 0.5000
H1_7 H 0.4174 0.0967 0.4838
O20_11 O 0.1860(3) 0.0536(6) 0.5000
H2_7 H 0.1822 0.0380 0.5161
C15_4 C 0.2679(8) 0.1631(5) 0.5673(4)
C16_4 C 0.2282(5) 0.1662(5) 0.5801(4)
H14_4 H 0.2056 0.1481 0.5714
C17_4 C 0.2250(5) 0.1921(5) 0.6050(4)
C18_4 C 0.2579(6) 0.2158(4) 0.6176(3)
H15_4 H 0.2522 0.2348 0.6348
C19_4 C 0.3031(6) 0.2146(5) 0.6052(3)
C20_4 C 0.3059(6) 0.1850(5) 0.5776(3)
H16_4 H 0.3335 0.1843 0.5670
N2_4 N 0.3389(5) 0.2367(9) 0.6167(3)
C21_4 C 0.3420(7) 0.2764(11) 0.6199(2)
C22_4 C 0.3823(7) 0.2948(6) 0.6328(4)
H17_4 H 0.3974 0.3148 0.6194
C23_4 C 0.4050(5) 0.2516(7) 0.6376(3)
H18_4 H 0.4319 0.2524 0.6261
C24_4 C 0.3785(8) 0.2154(6) 0.6250(4)
C25_4 C 0.3806(6) 0.3180(7) 0.6645(3)
H19_4 H 0.3641 0.3454 0.6645
C26_4 C 0.3637(5) 0.2840(6) 0.6866(3)
H20_4 H 0.3382 0.2921 0.6982
C27_4 C 0.3779(5) 0.2467(6) 0.6918(4)
H21_4 H 0.3660 0.2282 0.7076
C28_4 C 0.4194(5) 0.2429(5) 0.6704(4)
H22_4 H 0.4303 0.2136 0.6717
N3_4 N 0.4523(4) 0.3142(5) 0.7248(4)
C29_4 C 0.4670(3) 0.2698(7) 0.7152(4)
C30_4 C 0.4542(5) 0.2812(5) 0.6802(4)
H23_4 H 0.4778 0.2789 0.6656
C31_4 C 0.4334(5) 0.3230(5) 0.6769(4)
H24_4 H 0.4493 0.3377 0.6608
C32_4 C 0.4346(5) 0.3486(8) 0.7079(3)
C33_4 C 0.4228(5) 0.3462(3) 0.8072(3)
C34_4 C 0.4613(4) 0.3439(3) 0.8217(3)
H25_4 H 0.4664 0.3547 0.8423
C35_4 C 0.4981(5) 0.3289(4) 0.8055(3)
C36_4 C 0.4939(4) 0.3197(5) 0.7752(3)
H26_4 H 0.5195 0.3096 0.7645
C37_4 C 0.4575(6) 0.3236(5) 0.7610(3)
C38_4 C 0.4176(4) 0.3354(4) 0.7762(3)
H27_4 H 0.3901 0.3359 0.7655
C39_4 C 0.2821(6) 0.1344(5) 0.5426(4)
C40_4 C 0.1837(5) 0.1937(5) 0.6229(3)
C41_4 C 0.5413(5) 0.3238(4) 0.8214(3)
C42_4 C 0.3794(5) 0.3608(3) 0.8242(3)
H35_7 H 0.4174 0.0967 0.5162
H36_7 H 0.1822 0.0380 0.4839
O41_4 O 0.0753(3) 0.1241(3) 0.5871(2)
H51_4 H 0.0539 0.1139 0.5973
H52_4 H 0.0842 0.1015 0.5966
O42_4 O 0.1498(3) 0.2499(3) 0.70827(19)
H53_4 H 0.1732 0.2363 0.7039
H54_4 H 0.1397 0.2561 0.7261
O43_7 O 0.2717(3) 0.0260(2) 0.46748(17)
O44_7 O 0.3437(3) 0.0450(3) 0.46802(19)
O47_7 O 0.3210(3) 0.1305(3) 0.46863(17)
O48_7 O 0.2491(3) 0.1118(3) 0.46752(17)
O19_12 O 0.8954(4) 0.4036(3) 0.5000
H1_8 H 0.9033 0.4174 0.4838
O20_12 O 0.9464(6) 0.1860(3) 0.5000
H2_8 H 0.9620 0.1822 0.5161
H35_8 H 0.9033 0.4174 0.5162
H36_8 H 0.9620 0.1822 0.4839
O43_8 O 0.9740(2) 0.2717(3) 0.46748(17)
O44_8 O 0.9550(3) 0.3437(3) 0.46802(19)
O47_8 O 0.8695(3) 0.3210(3) 0.46863(17)
O48_8 O 0.8882(3) 0.2491(3) 0.46752(17)
O15_2 O 0.0710(3) 0.1982(2) 0.30852(17)
O16_2 O 0.0433(2) 0.1598(2) 0.34941(19)
H26_5 H 0.0195 0.1904 0.2645
C41_5 C 0.0413(5) 0.1762(4) 0.3214(3)
O25_4 O 0.2859(2) 0.4251(2) 0.10803(19)
O26_4 O 0.2433(2) 0.4039(3) 0.14915(18)
O27_5 O 0.0817(3) 0.4140(5) 0.1363(3)
O28_5 O 0.1047(4) 0.5592(4) 0.1376(3)
N4_5 N 0.1008(4) 0.4854(7) 0.1336(3)
C43_5 C 0.1826(5) 0.4985(4) 0.0715(3)
C44_5 C 0.2174(4) 0.4716(4) 0.0835(3)
H28_5 H 0.2452 0.4682 0.0733
C45_5 C 0.2095(5) 0.4485(4) 0.1129(3)
C46_5 C 0.1707(4) 0.4502(4) 0.1284(3)
H29_5 H 0.1658 0.4342 0.1464
C47_5 C 0.1398(5) 0.4762(5) 0.1162(4)
C48_5 C 0.1448(4) 0.4986(4) 0.0892(4)
H30_5 H 0.1214 0.5152 0.0822
C49_5 C 0.0749(7) 0.4524(7) 0.1425(4)
C50_5 C 0.0346(5) 0.4695(9) 0.1602(4)
H31_5 H 0.0341 0.4580 0.1814
C51_5 C 0.0421(5) 0.5199(10) 0.1606(4)
H32_5 H 0.0442 0.5308 0.1820
C52_5 C 0.0862(8) 0.5279(7) 0.1425(5)
C53_5 C 0.0065(5) 0.5451(5) 0.1422(3)
H33_5 H 0.0109 0.5767 0.1418
C54_5 C 0.0048(3) 0.5231(3) 0.1088(3)
H34_5 H 0.0097 0.5388 0.0906
C55_5 C 0.1879(6) 0.5262(5) 0.0421(3)
C56_5 C 0.2518(5) 0.4239(4) 0.1235(3)
Cu11_2 Cu 0.33942(4) 0.40431(4) 0.12604(3)
Cu12_2 Cu 0.09569(4) 0.16058(4) 0.37396(3)
Cu16_2 Cu 0.28963(4) 0.37475(5) 0.17206(3)
Cu17_2 Cu 0.12525(5) 0.21037(4) 0.32794(3)
O37_4 O 0.8018(2) 0.0710(3) 0.30852(17)
O38_4 O 0.8402(2) 0.0433(2) 0.34941(19)
H49_5 H 0.8096 0.0195 0.2645
C83_5 C 0.8238(4) 0.0413(5) 0.3214(3)
Cu13 Cu 0.83942(4) 0.09569(4) 0.37396(3)
Cu18 Cu 0.78963(4) 0.12525(5) 0.32794(3)
Cu3_3 Cu 0.66058(4) 0.59569(4) 0.12604(3)
Cu4_3 Cu 0.71037(4) 0.62525(5) 0.17206(3)
O3_4 O 0.7141(2) 0.5749(2) 0.10803(19)
O4_4 O 0.7567(2) 0.5961(3) 0.14915(18)
O5_5 O 0.9183(3) 0.5860(5) 0.1363(3)
O6_5 O 0.8953(4) 0.4408(4) 0.1376(3)
O9_5 O 0.6545(3) 0.3289(3) 0.10953(18)
O10_5 O 0.6788(2) 0.2843(3) 0.14653(19)
O11_5 O 0.8101(5) 0.1945(4) 0.1148(3)
O12_5 O 0.8777(3) 0.3236(5) 0.1274(3)
O13_5 O 0.9820(3) 0.2583(4) 0.2291(3)
O14_5 O 0.9153(5) 0.1221(5) 0.2132(3)
O17_2 O 0.8877(2) 0.1192(2) 0.34951(18)
O18_2 O 0.8451(3) 0.1469(2) 0.31162(17)
O21_5 O 0.6241(3) 0.5753(3) 0.0871(2)
H3_5 H 0.6139 0.5539 0.0973
H4_5 H 0.6015 0.5842 0.0966
O22_5 O 0.7499(3) 0.6498(3) 0.20827(19)
H5_5 H 0.7363 0.6732 0.2039
H6_5 H 0.7561 0.6397 0.2261
N1_5 N 0.8992(4) 0.5146(7) 0.1336(3)
C1_5 C 0.8174(5) 0.5015(4) 0.0715(3)
C2_5 C 0.7826(4) 0.5284(4) 0.0835(3)
H7_5 H 0.7548 0.5318 0.0733
C3_5 C 0.7905(5) 0.5515(4) 0.1129(3)
C4_5 C 0.8293(4) 0.5498(4) 0.1284(3)
H8_5 H 0.8342 0.5658 0.1464
C5_5 C 0.8602(5) 0.5238(5) 0.1162(4)
C6_5 C 0.8552(4) 0.5014(4) 0.0892(4)
H9_5 H 0.8786 0.4848 0.0822
C7_5 C 0.9251(7) 0.5476(7) 0.1425(4)
C8_5 C 0.9654(5) 0.5305(9) 0.1602(4)
H10_5 H 0.9659 0.5420 0.1814
C9_5 C 0.9579(5) 0.4801(10) 0.1606(4)
H11_5 H 0.9558 0.4692 0.1820
C10_5 C 0.9138(8) 0.4721(7) 0.1425(5)
C11_5 C 0.9935(5) 0.4549(5) 0.1422(3)
H12_5 H 0.9891 0.4233 0.1418
C12_5 C 0.9952(3) 0.4769(3) 0.1088(3)
H13_5 H 0.9903 0.4612 0.0906
C13_5 C 0.8121(6) 0.4738(5) 0.0421(3)
C14_5 C 0.7482(5) 0.5761(4) 0.1235(3)
C15_5 C 0.7679(8) 0.3369(5) 0.0673(4)
C16_5 C 0.7282(5) 0.3338(5) 0.0801(4)
H14_5 H 0.7056 0.3519 0.0714
C17_5 C 0.7250(5) 0.3079(5) 0.1050(4)
C18_5 C 0.7579(6) 0.2842(4) 0.1176(3)
H15_5 H 0.7522 0.2652 0.1348
C19_5 C 0.8031(6) 0.2854(5) 0.1052(3)
C20_5 C 0.8059(6) 0.3150(5) 0.0776(3)
H16_5 H 0.8335 0.3157 0.0670
N2_5 N 0.8389(5) 0.2633(9) 0.1167(3)
C21_5 C 0.8420(7) 0.2236(11) 0.1199(2)
C22_5 C 0.8823(7) 0.2052(6) 0.1328(4)
H17_5 H 0.8974 0.1852 0.1194
C23_5 C 0.9050(5) 0.2484(7) 0.1376(3)
H18_5 H 0.9319 0.2476 0.1261
C24_5 C 0.8785(8) 0.2846(6) 0.1250(4)
C25_5 C 0.8806(6) 0.1820(7) 0.1645(3)
H19_5 H 0.8641 0.1546 0.1645
C26_5 C 0.8637(5) 0.2160(6) 0.1866(3)
H20_5 H 0.8382 0.2079 0.1982
C27_5 C 0.8779(5) 0.2533(6) 0.1918(4)
H21_5 H 0.8660 0.2718 0.2076
C28_5 C 0.9194(5) 0.2571(5) 0.1704(4)
H22_5 H 0.9303 0.2864 0.1717
N3_5 N 0.9523(4) 0.1858(5) 0.2248(4)
C29_5 C 0.9670(3) 0.2302(7) 0.2152(4)
C30_5 C 0.9542(5) 0.2188(5) 0.1802(4)
H23_5 H 0.9778 0.2211 0.1656
C31_5 C 0.9334(5) 0.1770(5) 0.1769(4)
H24_5 H 0.9493 0.1623 0.1608
C32_5 C 0.9346(5) 0.1514(8) 0.2079(3)
C33_5 C 0.9228(5) 0.1538(3) 0.3072(3)
C34_5 C 0.9613(4) 0.1561(3) 0.3217(3)
H25_5 H 0.9664 0.1453 0.3423
C35_5 C 0.9981(5) 0.1711(4) 0.3055(3)
C36_5 C 0.9939(4) 0.1803(5) 0.2752(3)
C37_5 C 0.9575(6) 0.1764(5) 0.2610(3)
C38_5 C 0.9176(4) 0.1646(4) 0.2762(3)
H27_5 H 0.8901 0.1641 0.2655
C39_5 C 0.7821(6) 0.3656(5) 0.0426(4)
C40_5 C 0.6837(5) 0.3063(5) 0.1229(3)
C42_5 C 0.8794(5) 0.1392(3) 0.3242(3)
O31_5 O 0.6711(3) 0.6545(3) 0.10953(18)
O32_5 O 0.7157(3) 0.6788(2) 0.14653(19)
O33_5 O 0.8055(4) 0.8101(5) 0.1148(3)
O34_5 O 0.6764(5) 0.8777(3) 0.1274(3)
O35_5 O 0.7417(4) 0.9820(3) 0.2291(3)
O36_5 O 0.8779(5) 0.9153(5) 0.2132(3)
O39_4 O 0.8808(2) 0.8877(2) 0.34951(18)
O40_4 O 0.8531(2) 0.8451(3) 0.31162(17)
C57_5 C 0.6631(5) 0.7679(8) 0.0673(4)
C58_5 C 0.6662(5) 0.7282(5) 0.0801(4)
H37_5 H 0.6481 0.7056 0.0714
C59_5 C 0.6921(5) 0.7250(5) 0.1050(4)
C60_5 C 0.7158(4) 0.7579(6) 0.1176(3)
H38_5 H 0.7348 0.7522 0.1348
C61_5 C 0.7146(5) 0.8031(6) 0.1052(3)
C62_5 C 0.6850(5) 0.8059(6) 0.0776(3)
H39_5 H 0.6843 0.8335 0.0670
N5_5 N 0.7367(9) 0.8389(5) 0.1167(3)
C63_5 C 0.7764(11) 0.8420(7) 0.1199(2)
C64_5 C 0.7948(6) 0.8823(7) 0.1328(4)
H40_5 H 0.8148 0.8974 0.1194
C65_5 C 0.7516(7) 0.9050(5) 0.1376(3)
H41_5 H 0.7524 0.9319 0.1261
C66_5 C 0.7154(6) 0.8785(8) 0.1250(4)
C67_5 C 0.8180(7) 0.8806(6) 0.1645(3)
H42_5 H 0.8454 0.8641 0.1645
C68_5 C 0.7840(6) 0.8637(5) 0.1866(3)
H43_5 H 0.7921 0.8382 0.1982
C69_5 C 0.7467(6) 0.8779(5) 0.1918(4)
H44_5 H 0.7282 0.8660 0.2076
C70_5 C 0.7429(5) 0.9194(5) 0.1704(4)
H45_5 H 0.7136 0.9303 0.1717
N6_5 N 0.8142(5) 0.9523(4) 0.2248(4)
C71_5 C 0.7698(7) 0.9670(3) 0.2152(4)
C72_5 C 0.7812(5) 0.9542(5) 0.1802(4)
H46_5 H 0.7789 0.9778 0.1656
C73_5 C 0.8230(5) 0.9334(5) 0.1769(4)
H47_5 H 0.8377 0.9493 0.1608
C74_5 C 0.8486(8) 0.9346(5) 0.2079(3)
C75_5 C 0.8462(3) 0.9228(5) 0.3072(3)
C76_5 C 0.8439(3) 0.9613(4) 0.3217(3)
H48_5 H 0.8547 0.9664 0.3423
C77_5 C 0.8289(4) 0.9981(5) 0.3055(3)
C78_5 C 0.8197(5) 0.9939(4) 0.2752(3)
C79_5 C 0.8236(5) 0.9575(6) 0.2610(3)
C80_5 C 0.8354(4) 0.9176(4) 0.2762(3)
H50_5 H 0.8359 0.8901 0.2655
C81_5 C 0.6344(5) 0.7821(6) 0.0426(4)
C82_5 C 0.6937(5) 0.6837(5) 0.1229(3)
C84_5 C 0.8608(3) 0.8794(5) 0.3242(3)
Cu5_2 Cu 0.59569(4) 0.33942(4) 0.12604(3)
Cu6_2 Cu 0.62525(5) 0.28963(4) 0.17206(3)
O41_5 O 0.5753(3) 0.3759(3) 0.0871(2)
H51_5 H 0.5539 0.3861 0.0973
H52_5 H 0.5842 0.3985 0.0966
O42_5 O 0.6498(3) 0.2501(3) 0.20827(19)
H53_5 H 0.6732 0.2637 0.2039
H54_5 H 0.6397 0.2439 0.2261
Cu15_3 Cu 0.90431(4) 0.83942(4) 0.37396(3)
Cu20_3 Cu 0.87475(5) 0.78963(4) 0.32794(3)
O45_3 O 0.5749(2) 0.2859(2) 0.10803(19)
O46_3 O 0.5961(3) 0.2433(2) 0.14915(18)
O49_2 O 0.5710(3) 0.3018(2) 0.19148(17)
O50_4 O 0.6982(2) 0.5710(3) 0.19148(17)
O51_2 O 0.5433(2) 0.3402(2) 0.15059(19)
O52_4 O 0.6598(2) 0.5433(2) 0.15059(19)
O53_2 O 0.6192(2) 0.3877(2) 0.15049(18)
O54_4 O 0.6123(2) 0.6192(2) 0.15049(18)
O55_2 O 0.6469(2) 0.3451(3) 0.18838(17)
O56_4 O 0.6549(3) 0.6469(2) 0.18838(17)
O27_6 O 0.5860(5) 0.0817(3) 0.1363(3)
O28_6 O 0.4408(4) 0.1047(4) 0.1376(3)
N4_6 N 0.5146(7) 0.1008(4) 0.1336(3)
C43_6 C 0.5015(4) 0.1826(5) 0.0715(3)
C44_6 C 0.5284(4) 0.2174(4) 0.0835(3)
H28_6 H 0.5318 0.2452 0.0733
C45_6 C 0.5515(4) 0.2095(5) 0.1129(3)
C46_6 C 0.5498(4) 0.1707(4) 0.1284(3)
H29_6 H 0.5658 0.1658 0.1464
C47_6 C 0.5238(5) 0.1398(5) 0.1162(4)
C48_6 C 0.5014(4) 0.1448(4) 0.0892(4)
H30_6 H 0.4848 0.1214 0.0822
C49_6 C 0.5476(7) 0.0749(7) 0.1425(4)
C50_6 C 0.5305(9) 0.0346(5) 0.1602(4)
H31_6 H 0.5420 0.0341 0.1814
C51_6 C 0.4801(10) 0.0421(5) 0.1606(4)
H32_6 H 0.4692 0.0442 0.1820
C52_6 C 0.4721(7) 0.0862(8) 0.1425(5)
C53_6 C 0.4549(5) 0.0065(5) 0.1422(3)
H33_6 H 0.4233 0.0109 0.1418
C54_6 C 0.4769(3) 0.0048(3) 0.1088(3)
H34_6 H 0.4612 0.0097 0.0906
C55_6 C 0.4738(5) 0.1879(6) 0.0421(3)
C56_6 C 0.5761(4) 0.2518(5) 0.1235(3)
Cu3_4 Cu 0.40431(4) 0.66058(4) 0.12604(3)
Cu4_4 Cu 0.37475(5) 0.71037(4) 0.17206(3)
O3_5 O 0.4251(2) 0.7141(2) 0.10803(19)
O4_5 O 0.4039(3) 0.7567(2) 0.14915(18)
O5_6 O 0.4140(5) 0.9183(3) 0.1363(3)
O6_6 O 0.5592(4) 0.8953(4) 0.1376(3)
O21_6 O 0.4247(3) 0.6241(3) 0.0871(2)
H3_6 H 0.4461 0.6139 0.0973
H4_6 H 0.4158 0.6015 0.0966
O22_6 O 0.3502(3) 0.7499(3) 0.20827(19)
H5_6 H 0.3268 0.7363 0.2039
H6_6 H 0.3603 0.7561 0.2261
N1_6 N 0.4854(7) 0.8992(4) 0.1336(3)
C1_6 C 0.4985(4) 0.8174(5) 0.0715(3)
C2_6 C 0.4716(4) 0.7826(4) 0.0835(3)
H7_6 H 0.4682 0.7548 0.0733
C3_6 C 0.4485(4) 0.7905(5) 0.1129(3)
C4_6 C 0.4502(4) 0.8293(4) 0.1284(3)
H8_6 H 0.4342 0.8342 0.1464
C5_6 C 0.4762(5) 0.8602(5) 0.1162(4)
C6_6 C 0.4986(4) 0.8552(4) 0.0892(4)
H9_6 H 0.5152 0.8786 0.0822
C7_6 C 0.4524(7) 0.9251(7) 0.1425(4)
C8_6 C 0.4695(9) 0.9654(5) 0.1602(4)
H10_6 H 0.4580 0.9659 0.1814
C9_6 C 0.5199(10) 0.9579(5) 0.1606(4)
H11_6 H 0.5308 0.9558 0.1820
C10_6 C 0.5279(7) 0.9138(8) 0.1425(5)
C11_6 C 0.5451(5) 0.9935(5) 0.1422(3)
H12_6 H 0.5767 0.9891 0.1418
C12_6 C 0.5231(3) 0.9952(3) 0.1088(3)
H13_6 H 0.5388 0.9903 0.0906
C13_6 C 0.5262(5) 0.8121(6) 0.0421(3)
C14_6 C 0.4239(4) 0.7482(5) 0.1235(3)
O31_6 O 0.3455(3) 0.6711(3) 0.10953(18)
O32_6 O 0.3212(2) 0.7157(3) 0.14653(19)
O33_6 O 0.1899(5) 0.8055(4) 0.1148(3)
O34_6 O 0.1223(3) 0.6764(5) 0.1274(3)
O35_6 O 0.0180(3) 0.7417(4) 0.2291(3)
O36_6 O 0.0847(5) 0.8779(5) 0.2132(3)
O39_5 O 0.1123(2) 0.8808(2) 0.34951(18)
O40_5 O 0.1549(3) 0.8531(2) 0.31162(17)
C57_6 C 0.2321(8) 0.6631(5) 0.0673(4)
C58_6 C 0.2718(5) 0.6662(5) 0.0801(4)
H37_6 H 0.2944 0.6481 0.0714
C59_6 C 0.2750(5) 0.6921(5) 0.1050(4)
C60_6 C 0.2421(6) 0.7158(4) 0.1176(3)
H38_6 H 0.2478 0.7348 0.1348
C61_6 C 0.1969(6) 0.7146(5) 0.1052(3)
C62_6 C 0.1941(6) 0.6850(5) 0.0776(3)
H39_6 H 0.1665 0.6843 0.0670
N5_6 N 0.1611(5) 0.7367(9) 0.1167(3)
C63_6 C 0.1580(7) 0.7764(11) 0.1199(2)
C64_6 C 0.1177(7) 0.7948(6) 0.1328(4)
H40_6 H 0.1026 0.8148 0.1194
C65_6 C 0.0950(5) 0.7516(7) 0.1376(3)
H41_6 H 0.0681 0.7524 0.1261
C66_6 C 0.1215(8) 0.7154(6) 0.1250(4)
C67_6 C 0.1194(6) 0.8180(7) 0.1645(3)
H42_6 H 0.1359 0.8454 0.1645
C68_6 C 0.1363(5) 0.7840(6) 0.1866(3)
H43_6 H 0.1618 0.7921 0.1982
C69_6 C 0.1221(5) 0.7467(6) 0.1918(4)
H44_6 H 0.1340 0.7282 0.2076
C70_6 C 0.0806(5) 0.7429(5) 0.1704(4)
H45_6 H 0.0697 0.7136 0.1717
N6_6 N 0.0477(4) 0.8142(5) 0.2248(4)
C71_6 C 0.0330(3) 0.7698(7) 0.2152(4)
C72_6 C 0.0458(5) 0.7812(5) 0.1802(4)
H46_6 H 0.0222 0.7789 0.1656
C73_6 C 0.0666(5) 0.8230(5) 0.1769(4)
H47_6 H 0.0507 0.8377 0.1608
C74_6 C 0.0654(5) 0.8486(8) 0.2079(3)
C75_6 C 0.0772(5) 0.8462(3) 0.3072(3)
C76_6 C 0.0387(4) 0.8439(3) 0.3217(3)
H48_6 H 0.0336 0.8547 0.3423
C77_6 C 0.0019(5) 0.8289(4) 0.3055(3)
C78_6 C 0.0061(4) 0.8197(5) 0.2752(3)
C79_6 C 0.0425(6) 0.8236(5) 0.2610(3)
C80_6 C 0.0824(4) 0.8354(4) 0.2762(3)
H50_6 H 0.1099 0.8359 0.2655
C81_6 C 0.2179(6) 0.6344(5) 0.0426(4)
C82_6 C 0.3163(5) 0.6937(5) 0.1229(3)
C84_6 C 0.1206(5) 0.8608(3) 0.3242(3)
Cu15_4 Cu 0.16058(4) 0.90431(4) 0.37396(3)
Cu20_4 Cu 0.21037(4) 0.87475(5) 0.32794(3)
O50_5 O 0.4290(3) 0.6982(2) 0.19148(17)
O52_5 O 0.4567(2) 0.6598(2) 0.15059(19)
O54_5 O 0.3808(2) 0.6123(2) 0.15049(18)
O56_5 O 0.3531(2) 0.6549(3) 0.18838(17)
O37_5 O 0.9290(3) 0.8018(2) 0.30852(17)
O38_5 O 0.9567(2) 0.8402(2) 0.34941(19)
H49_6 H 0.9805 0.8096 0.2645
C83_6 C 0.9587(5) 0.8238(4) 0.3214(3)
O21_7 O 0.3759(3) 0.4247(3) 0.0871(2)
H3_7 H 0.3861 0.4461 0.0973
H4_7 H 0.3985 0.4158 0.0966
O22_7 O 0.2501(3) 0.3502(3) 0.20827(19)
H5_7 H 0.2637 0.3268 0.2039
H6_7 H 0.2439 0.3603 0.2261
O31_7 O 0.3289(3) 0.3455(3) 0.10953(18)
O32_7 O 0.2843(3) 0.3212(2) 0.14653(19)
O33_7 O 0.1945(4) 0.1899(5) 0.1148(3)
O34_7 O 0.3236(5) 0.1223(3) 0.1274(3)
O35_7 O 0.2583(4) 0.0180(3) 0.2291(3)
O36_7 O 0.1221(5) 0.0847(5) 0.2132(3)
O39_6 O 0.1192(2) 0.1123(2) 0.34951(18)
O40_6 O 0.1469(2) 0.1549(3) 0.31162(17)
C57_7 C 0.3369(5) 0.2321(8) 0.0673(4)
C58_7 C 0.3338(5) 0.2718(5) 0.0801(4)
H37_7 H 0.3519 0.2944 0.0714
C59_7 C 0.3079(5) 0.2750(5) 0.1050(4)
C60_7 C 0.2842(4) 0.2421(6) 0.1176(3)
H38_7 H 0.2652 0.2478 0.1348
C61_7 C 0.2854(5) 0.1969(6) 0.1052(3)
C62_7 C 0.3150(5) 0.1941(6) 0.0776(3)
H39_7 H 0.3157 0.1665 0.0670
N5_7 N 0.2633(9) 0.1611(5) 0.1167(3)
C63_7 C 0.2236(11) 0.1580(7) 0.1199(2)
C64_7 C 0.2052(6) 0.1177(7) 0.1328(4)
H40_7 H 0.1852 0.1026 0.1194
C65_7 C 0.2484(7) 0.0950(5) 0.1376(3)
H41_7 H 0.2476 0.0681 0.1261
C66_7 C 0.2846(6) 0.1215(8) 0.1250(4)
C67_7 C 0.1820(7) 0.1194(6) 0.1645(3)
H42_7 H 0.1546 0.1359 0.1645
C68_7 C 0.2160(6) 0.1363(5) 0.1866(3)
H43_7 H 0.2079 0.1618 0.1982
C69_7 C 0.2533(6) 0.1221(5) 0.1918(4)
H44_7 H 0.2718 0.1340 0.2076
C70_7 C 0.2571(5) 0.0806(5) 0.1704(4)
H45_7 H 0.2864 0.0697 0.1717
N6_7 N 0.1858(5) 0.0477(4) 0.2248(4)
C71_7 C 0.2302(7) 0.0330(3) 0.2152(4)
C72_7 C 0.2188(5) 0.0458(5) 0.1802(4)
H46_7 H 0.2211 0.0222 0.1656
C73_7 C 0.1770(5) 0.0666(5) 0.1769(4)
H47_7 H 0.1623 0.0507 0.1608
C74_7 C 0.1514(8) 0.0654(5) 0.2079(3)
C75_7 C 0.1538(3) 0.0772(5) 0.3072(3)
C76_7 C 0.1561(3) 0.0387(4) 0.3217(3)
H48_7 H 0.1453 0.0336 0.3423
C77_7 C 0.1711(4) 0.0019(5) 0.3055(3)
C78_7 C 0.1803(5) 0.0061(4) 0.2752(3)
C79_7 C 0.1764(5) 0.0425(6) 0.2610(3)
C80_7 C 0.1646(4) 0.0824(4) 0.2762(3)
H50_7 H 0.1641 0.1099 0.2655
C81_7 C 0.3656(5) 0.2179(6) 0.0426(4)
C82_7 C 0.3063(5) 0.3163(5) 0.1229(3)
C84_7 C 0.1392(3) 0.1206(5) 0.3242(3)
O50_6 O 0.3018(2) 0.4290(3) 0.19148(17)
O52_6 O 0.3402(2) 0.4567(2) 0.15059(19)
O54_6 O 0.3877(2) 0.3808(2) 0.15049(18)
O56_6 O 0.3451(3) 0.3531(2) 0.18838(17)
O37_6 O 0.1982(2) 0.9290(3) 0.30852(17)
O38_6 O 0.1598(2) 0.9567(2) 0.34941(19)
H49_7 H 0.1904 0.9805 0.2645
C83_7 C 0.1762(4) 0.9587(5) 0.3214(3)
O6_7 O 0.3953(4) 0.0592(4) 0.3624(3)
O9_6 O 0.1545(3) 0.1711(3) 0.39047(18)
O10_6 O 0.1788(2) 0.2157(3) 0.35347(19)
O11_6 O 0.3101(5) 0.3055(4) 0.3852(3)
O12_6 O 0.3777(3) 0.1764(5) 0.3726(3)
O13_6 O 0.4820(3) 0.2417(4) 0.2709(3)
O14_6 O 0.4153(5) 0.3779(5) 0.2868(3)
H9_7 H 0.3786 0.0152 0.4178
C9_7 C 0.4579(5) 0.0199(10) 0.3394(4)
H11_7 H 0.4558 0.0308 0.3180
C10_7 C 0.4138(8) 0.0279(7) 0.3575(5)
C11_7 C 0.4935(5) 0.0451(5) 0.3578(3)
H12_7 H 0.4891 0.0767 0.3582
C12_7 C 0.4952(3) 0.0231(3) 0.3912(3)
H13_7 H 0.4903 0.0388 0.4094
C13_7 C 0.3121(6) 0.0262(5) 0.4579(3)
C15_6 C 0.2679(8) 0.1631(5) 0.4327(4)
C16_6 C 0.2282(5) 0.1662(5) 0.4199(4)
H14_6 H 0.2056 0.1481 0.4286
C17_6 C 0.2250(5) 0.1921(5) 0.3950(4)
C18_6 C 0.2579(6) 0.2158(4) 0.3824(3)
H15_6 H 0.2522 0.2348 0.3652
C19_6 C 0.3031(6) 0.2146(5) 0.3948(3)
C20_6 C 0.3059(6) 0.1850(5) 0.4224(3)
H16_6 H 0.3335 0.1843 0.4330
N2_6 N 0.3389(5) 0.2367(9) 0.3833(3)
C21_6 C 0.3420(7) 0.2764(11) 0.3801(2)
C22_6 C 0.3823(7) 0.2948(6) 0.3672(4)
H17_6 H 0.3974 0.3148 0.3806
C23_6 C 0.4050(5) 0.2516(7) 0.3624(3)
H18_6 H 0.4319 0.2524 0.3739
C24_6 C 0.3785(8) 0.2154(6) 0.3750(4)
C25_6 C 0.3806(6) 0.3180(7) 0.3355(3)
H19_6 H 0.3641 0.3454 0.3355
C26_6 C 0.3637(5) 0.2840(6) 0.3134(3)
H20_6 H 0.3382 0.2921 0.3018
C27_6 C 0.3779(5) 0.2467(6) 0.3082(4)
H21_6 H 0.3660 0.2282 0.2924
C28_6 C 0.4194(5) 0.2429(5) 0.3296(4)
H22_6 H 0.4303 0.2136 0.3283
N3_6 N 0.4523(4) 0.3142(5) 0.2752(4)
C29_6 C 0.4670(3) 0.2698(7) 0.2848(4)
C30_6 C 0.4542(5) 0.2812(5) 0.3198(4)
H23_6 H 0.4778 0.2789 0.3344
C31_6 C 0.4334(5) 0.3230(5) 0.3231(4)
H24_6 H 0.4493 0.3377 0.3392
C32_6 C 0.4346(5) 0.3486(8) 0.2921(3)
C33_6 C 0.4228(5) 0.3462(3) 0.1928(3)
C34_6 C 0.4613(4) 0.3439(3) 0.1783(3)
H25_6 H 0.4664 0.3547 0.1577
C35_6 C 0.4981(5) 0.3289(4) 0.1945(3)
C36_6 C 0.4939(4) 0.3197(5) 0.2248(3)
H26_6 H 0.5195 0.3096 0.2355
C37_6 C 0.4575(6) 0.3236(5) 0.2390(3)
C38_6 C 0.4176(4) 0.3354(4) 0.2238(3)
H27_6 H 0.3901 0.3359 0.2345
C39_6 C 0.2821(6) 0.1344(5) 0.4574(4)
C40_6 C 0.1837(5) 0.1937(5) 0.3771(3)
C41_6 C 0.5413(5) 0.3238(4) 0.1786(3)
C42_6 C 0.3794(5) 0.3608(3) 0.1758(3)
O25_5 O 0.7859(2) 0.0749(2) 0.39197(19)
O26_5 O 0.7433(2) 0.0961(3) 0.35085(18)
O27_7 O 0.5817(3) 0.0860(5) 0.3637(3)
N4_7 N 0.6008(4) 0.0146(7) 0.3664(3)
C43_7 C 0.6826(5) 0.0015(4) 0.4285(3)
C44_7 C 0.7174(4) 0.0284(4) 0.4165(3)
H28_7 H 0.7452 0.0318 0.4267
C45_7 C 0.7095(5) 0.0515(4) 0.3871(3)
C46_7 C 0.6707(4) 0.0498(4) 0.3716(3)
H29_7 H 0.6658 0.0658 0.3536
C47_7 C 0.6398(5) 0.0238(5) 0.3838(4)
C48_7 C 0.6448(4) 0.0014(4) 0.4108(4)
C49_7 C 0.5749(7) 0.0476(7) 0.3575(4)
C50_7 C 0.5346(5) 0.0305(9) 0.3398(4)
H31_7 H 0.5341 0.0420 0.3186
C56_7 C 0.7518(5) 0.0761(4) 0.3765(3)
O41_6 O 0.0753(3) 0.1241(3) 0.4129(2)
H51_6 H 0.0539 0.1139 0.4027
H52_6 H 0.0842 0.1015 0.4034
O42_6 O 0.1498(3) 0.2499(3) 0.29173(19)
H53_6 H 0.1732 0.2363 0.2961
H54_6 H 0.1397 0.2561 0.2739
O45_4 O 0.0749(2) 0.2141(2) 0.39197(19)
O46_4 O 0.0961(3) 0.2567(2) 0.35085(18)
O3_6 O 0.2141(2) 0.9251(2) 0.39197(19)
O4_6 O 0.2567(2) 0.9039(3) 0.35085(18)
O5_7 O 0.4183(3) 0.9140(5) 0.3637(3)
O21_8 O 0.1241(3) 0.9247(3) 0.4129(2)
H3_8 H 0.1139 0.9461 0.4027
H4_8 H 0.1015 0.9158 0.4034
O22_8 O 0.2499(3) 0.8502(3) 0.29173(19)
H5_8 H 0.2363 0.8268 0.2961
H6_8 H 0.2561 0.8603 0.2739
N1_7 N 0.3992(4) 0.9854(7) 0.3664(3)
C1_7 C 0.3174(5) 0.9985(4) 0.4285(3)
C2_7 C 0.2826(4) 0.9716(4) 0.4165(3)
H7_7 H 0.2548 0.9682 0.4267
C3_7 C 0.2905(5) 0.9485(4) 0.3871(3)
C4_7 C 0.3293(4) 0.9502(4) 0.3716(3)
H8_7 H 0.3342 0.9342 0.3536
C5_7 C 0.3602(5) 0.9762(5) 0.3838(4)
C6_7 C 0.3552(4) 0.9986(4) 0.4108(4)
C7_7 C 0.4251(7) 0.9524(7) 0.3575(4)
C8_7 C 0.4654(5) 0.9695(9) 0.3398(4)
H10_7 H 0.4659 0.9580 0.3186
C14_7 C 0.2482(5) 0.9239(4) 0.3765(3)
O28_7 O 0.6047(4) 0.9408(4) 0.3624(3)
H30_7 H 0.6214 0.9848 0.4178
C51_7 C 0.5421(5) 0.9801(10) 0.3394(4)
H32_7 H 0.5442 0.9692 0.3180
C52_7 C 0.5862(8) 0.9721(7) 0.3575(5)
C53_7 C 0.5065(5) 0.9549(5) 0.3578(3)
H33_7 H 0.5109 0.9233 0.3582
C54_7 C 0.5048(3) 0.9769(3) 0.3912(3)
H34_7 H 0.5097 0.9612 0.4094
C55_7 C 0.6879(6) 0.9738(5) 0.4579(3)
O31_8 O 0.1711(3) 0.8455(3) 0.39047(18)
O32_8 O 0.2157(3) 0.8212(2) 0.35347(19)
O33_8 O 0.3055(4) 0.6899(5) 0.3852(3)
O34_8 O 0.1764(5) 0.6223(3) 0.3726(3)
O35_8 O 0.2417(4) 0.5180(3) 0.2709(3)
O36_8 O 0.3779(5) 0.5847(5) 0.2868(3)
C57_8 C 0.1631(5) 0.7321(8) 0.4327(4)
C58_8 C 0.1662(5) 0.7718(5) 0.4199(4)
H37_8 H 0.1481 0.7944 0.4286
C59_8 C 0.1921(5) 0.7750(5) 0.3950(4)
C60_8 C 0.2158(4) 0.7421(6) 0.3824(3)
H38_8 H 0.2348 0.7478 0.3652
C61_8 C 0.2146(5) 0.6969(6) 0.3948(3)
C62_8 C 0.1850(5) 0.6941(6) 0.4224(3)
H39_8 H 0.1843 0.6665 0.4330
N5_8 N 0.2367(9) 0.6611(5) 0.3833(3)
C63_8 C 0.2764(11) 0.6580(7) 0.3801(2)
C64_8 C 0.2948(6) 0.6177(7) 0.3672(4)
H40_8 H 0.3148 0.6026 0.3806
C65_8 C 0.2516(7) 0.5950(5) 0.3624(3)
H41_8 H 0.2524 0.5681 0.3739
C66_8 C 0.2154(6) 0.6215(8) 0.3750(4)
C67_8 C 0.3180(7) 0.6194(6) 0.3355(3)
H42_8 H 0.3454 0.6359 0.3355
C68_8 C 0.2840(6) 0.6363(5) 0.3134(3)
H43_8 H 0.2921 0.6618 0.3018
C69_8 C 0.2467(6) 0.6221(5) 0.3082(4)
H44_8 H 0.2282 0.6340 0.2924
C70_8 C 0.2429(5) 0.5806(5) 0.3296(4)
H45_8 H 0.2136 0.5697 0.3283
N6_8 N 0.3142(5) 0.5477(4) 0.2752(4)
C71_8 C 0.2698(7) 0.5330(3) 0.2848(4)
C72_8 C 0.2812(5) 0.5458(5) 0.3198(4)
H46_8 H 0.2789 0.5222 0.3344
C73_8 C 0.3230(5) 0.5666(5) 0.3231(4)
H47_8 H 0.3377 0.5507 0.3392
C74_8 C 0.3486(8) 0.5654(5) 0.2921(3)
C75_8 C 0.3462(3) 0.5772(5) 0.1928(3)
C76_8 C 0.3439(3) 0.5387(4) 0.1783(3)
H48_8 H 0.3547 0.5336 0.1577
C77_8 C 0.3289(4) 0.5019(5) 0.1945(3)
C78_8 C 0.3197(5) 0.5061(4) 0.2248(3)
H49_8 H 0.3096 0.4805 0.2355
C79_8 C 0.3236(5) 0.5425(6) 0.2390(3)
C80_8 C 0.3354(4) 0.5824(4) 0.2238(3)
H50_8 H 0.3359 0.6099 0.2345
C81_8 C 0.1344(5) 0.7179(6) 0.4574(4)
C82_8 C 0.1937(5) 0.8163(5) 0.3771(3)
C83_8 C 0.3238(4) 0.4587(5) 0.1786(3)
C84_8 C 0.3608(3) 0.6206(5) 0.1758(3)
O5_8 O 0.0860(5) 0.4183(3) 0.3637(3)
N1_8 N 0.0146(7) 0.3992(4) 0.3664(3)
C1_8 C 0.0015(4) 0.3174(5) 0.4285(3)
C2_8 C 0.0284(4) 0.2826(4) 0.4165(3)
H7_8 H 0.0318 0.2548 0.4267
C3_8 C 0.0515(4) 0.2905(5) 0.3871(3)
C4_8 C 0.0498(4) 0.3293(4) 0.3716(3)
H8_8 H 0.0658 0.3342 0.3536
C5_8 C 0.0238(5) 0.3602(5) 0.3838(4)
C6_8 C 0.0014(4) 0.3552(4) 0.4108(4)
C7_8 C 0.0476(7) 0.4251(7) 0.3575(4)
C8_8 C 0.0305(9) 0.4654(5) 0.3398(4)
H10_8 H 0.0420 0.4659 0.3186
C14_8 C 0.0761(4) 0.2482(5) 0.3765(3)
O28_8 O 0.0592(4) 0.6047(4) 0.3624(3)
H30_8 H 0.0152 0.6214 0.4178
C51_8 C 0.0199(10) 0.5421(5) 0.3394(4)
H32_8 H 0.0308 0.5442 0.3180
C52_8 C 0.0279(7) 0.5862(8) 0.3575(5)
C53_8 C 0.0451(5) 0.5065(5) 0.3578(3)
H33_8 H 0.0767 0.5109 0.3582
C54_8 C 0.0231(3) 0.5048(3) 0.3912(3)
H34_8 H 0.0388 0.5097 0.4094
C55_8 C 0.0262(5) 0.6879(6) 0.4579(3)
O6_8 O 0.9408(4) 0.3953(4) 0.3624(3)
O9_7 O 0.8289(3) 0.1545(3) 0.39047(18)
O10_7 O 0.7843(3) 0.1788(2) 0.35347(19)
O11_7 O 0.6945(4) 0.3101(5) 0.3852(3)
O12_7 O 0.8236(5) 0.3777(3) 0.3726(3)
O13_7 O 0.7583(4) 0.4820(3) 0.2709(3)
O14_7 O 0.6221(5) 0.4153(5) 0.2868(3)
H9_8 H 0.9848 0.3786 0.4178
C9_8 C 0.9801(10) 0.4579(5) 0.3394(4)
H11_8 H 0.9692 0.4558 0.3180
C10_8 C 0.9721(7) 0.4138(8) 0.3575(5)
C11_8 C 0.9549(5) 0.4935(5) 0.3578(3)
H12_8 H 0.9233 0.4891 0.3582
C12_8 C 0.9769(3) 0.4952(3) 0.3912(3)
H13_8 H 0.9612 0.4903 0.4094
C13_8 C 0.9738(5) 0.3121(6) 0.4579(3)
C15_7 C 0.8369(5) 0.2679(8) 0.4327(4)
C16_7 C 0.8338(5) 0.2282(5) 0.4199(4)
H14_7 H 0.8519 0.2056 0.4286
C17_7 C 0.8079(5) 0.2250(5) 0.3950(4)
C18_7 C 0.7842(4) 0.2579(6) 0.3824(3)
H15_7 H 0.7652 0.2522 0.3652
C19_7 C 0.7854(5) 0.3031(6) 0.3948(3)
C20_7 C 0.8150(5) 0.3059(6) 0.4224(3)
H16_7 H 0.8157 0.3335 0.4330
N2_7 N 0.7633(9) 0.3389(5) 0.3833(3)
C21_7 C 0.7236(11) 0.3420(7) 0.3801(2)
C22_7 C 0.7052(6) 0.3823(7) 0.3672(4)
H17_7 H 0.6852 0.3974 0.3806
C23_7 C 0.7484(7) 0.4050(5) 0.3624(3)
H18_7 H 0.7476 0.4319 0.3739
C24_7 C 0.7846(6) 0.3785(8) 0.3750(4)
C25_7 C 0.6820(7) 0.3806(6) 0.3355(3)
H19_7 H 0.6546 0.3641 0.3355
C26_7 C 0.7160(6) 0.3637(5) 0.3134(3)
H20_7 H 0.7079 0.3382 0.3018
C27_7 C 0.7533(6) 0.3779(5) 0.3082(4)
H21_7 H 0.7718 0.3660 0.2924
C28_7 C 0.7571(5) 0.4194(5) 0.3296(4)
H22_7 H 0.7864 0.4303 0.3283
N3_7 N 0.6858(5) 0.4523(4) 0.2752(4)
C29_7 C 0.7302(7) 0.4670(3) 0.2848(4)
C30_7 C 0.7188(5) 0.4542(5) 0.3198(4)
H23_7 H 0.7211 0.4778 0.3344
C31_7 C 0.6770(5) 0.4334(5) 0.3231(4)
H24_7 H 0.6623 0.4493 0.3392
C32_7 C 0.6514(8) 0.4346(5) 0.2921(3)
C33_7 C 0.6538(3) 0.4228(5) 0.1928(3)
C34_7 C 0.6561(3) 0.4613(4) 0.1783(3)
H25_7 H 0.6453 0.4664 0.1577
C35_7 C 0.6711(4) 0.4981(5) 0.1945(3)
C36_7 C 0.6803(5) 0.4939(4) 0.2248(3)
H26_7 H 0.6904 0.5195 0.2355
C37_7 C 0.6764(5) 0.4575(6) 0.2390(3)
C38_7 C 0.6646(4) 0.4176(4) 0.2238(3)
H27_7 H 0.6641 0.3901 0.2345
C39_7 C 0.8656(5) 0.2821(6) 0.4574(4)
C40_7 C 0.8063(5) 0.1837(5) 0.3771(3)
C41_7 C 0.6762(4) 0.5413(5) 0.1786(3)
C42_7 C 0.6392(3) 0.3794(5) 0.1758(3)
O25_6 O 0.9251(2) 0.7859(2) 0.39197(19)
O26_6 O 0.9039(3) 0.7433(2) 0.35085(18)
O27_8 O 0.9140(5) 0.5817(3) 0.3637(3)
N4_8 N 0.9854(7) 0.6008(4) 0.3664(3)
C43_8 C 0.9985(4) 0.6826(5) 0.4285(3)
C44_8 C 0.9716(4) 0.7174(4) 0.4165(3)
H28_8 H 0.9682 0.7452 0.4267
C45_8 C 0.9485(4) 0.7095(5) 0.3871(3)
C46_8 C 0.9502(4) 0.6707(4) 0.3716(3)
H29_8 H 0.9342 0.6658 0.3536
C47_8 C 0.9762(5) 0.6398(5) 0.3838(4)
C48_8 C 0.9986(4) 0.6448(4) 0.4108(4)
C49_8 C 0.9524(7) 0.5749(7) 0.3575(4)
C50_8 C 0.9695(9) 0.5346(5) 0.3398(4)
H31_8 H 0.9580 0.5341 0.3186
C56_8 C 0.9239(4) 0.7518(5) 0.3765(3)
O41_7 O 0.8759(3) 0.0753(3) 0.4129(2)
H51_7 H 0.8861 0.0539 0.4027
H52_7 H 0.8985 0.0842 0.4034
O42_7 O 0.7501(3) 0.1498(3) 0.29173(19)
H53_7 H 0.7637 0.1732 0.2961
H54_7 H 0.7439 0.1397 0.2739
O9_8 O 0.8455(3) 0.8289(3) 0.39047(18)
O10_8 O 0.8212(2) 0.7843(3) 0.35347(19)
O11_8 O 0.6899(5) 0.6945(4) 0.3852(3)
O12_8 O 0.6223(3) 0.8236(5) 0.3726(3)
O13_8 O 0.5180(3) 0.7583(4) 0.2709(3)
O14_8 O 0.5847(5) 0.6221(5) 0.2868(3)
C15_8 C 0.7321(8) 0.8369(5) 0.4327(4)
C16_8 C 0.7718(5) 0.8338(5) 0.4199(4)
H14_8 H 0.7944 0.8519 0.4286
C17_8 C 0.7750(5) 0.8079(5) 0.3950(4)
C18_8 C 0.7421(6) 0.7842(4) 0.3824(3)
H15_8 H 0.7478 0.7652 0.3652
C19_8 C 0.6969(6) 0.7854(5) 0.3948(3)
C20_8 C 0.6941(6) 0.8150(5) 0.4224(3)
H16_8 H 0.6665 0.8157 0.4330
N2_8 N 0.6611(5) 0.7633(9) 0.3833(3)
C21_8 C 0.6580(7) 0.7236(11) 0.3801(2)
C22_8 C 0.6177(7) 0.7052(6) 0.3672(4)
H17_8 H 0.6026 0.6852 0.3806
C23_8 C 0.5950(5) 0.7484(7) 0.3624(3)
H18_8 H 0.5681 0.7476 0.3739
C24_8 C 0.6215(8) 0.7846(6) 0.3750(4)
C25_8 C 0.6194(6) 0.6820(7) 0.3355(3)
H19_8 H 0.6359 0.6546 0.3355
C26_8 C 0.6363(5) 0.7160(6) 0.3134(3)
H20_8 H 0.6618 0.7079 0.3018
C27_8 C 0.6221(5) 0.7533(6) 0.3082(4)
H21_8 H 0.6340 0.7718 0.2924
C28_8 C 0.5806(5) 0.7571(5) 0.3296(4)
H22_8 H 0.5697 0.7864 0.3283
N3_8 N 0.5477(4) 0.6858(5) 0.2752(4)
C29_8 C 0.5330(3) 0.7302(7) 0.2848(4)
C30_8 C 0.5458(5) 0.7188(5) 0.3198(4)
H23_8 H 0.5222 0.7211 0.3344
C31_8 C 0.5666(5) 0.6770(5) 0.3231(4)
H24_8 H 0.5507 0.6623 0.3392
C32_8 C 0.5654(5) 0.6514(8) 0.2921(3)
C33_8 C 0.5772(5) 0.6538(3) 0.1928(3)
C34_8 C 0.5387(4) 0.6561(3) 0.1783(3)
H25_8 H 0.5336 0.6453 0.1577
C35_8 C 0.5019(5) 0.6711(4) 0.1945(3)
C36_8 C 0.5061(4) 0.6803(5) 0.2248(3)
H26_8 H 0.4805 0.6904 0.2355
C37_8 C 0.5425(6) 0.6764(5) 0.2390(3)
C38_8 C 0.5824(4) 0.6646(4) 0.2238(3)
H27_8 H 0.6099 0.6641 0.2345
C39_8 C 0.7179(6) 0.8656(5) 0.4574(4)
C40_8 C 0.8163(5) 0.8063(5) 0.3771(3)
C41_8 C 0.4587(5) 0.6762(4) 0.1786(3)
C42_8 C 0.6206(5) 0.6392(3) 0.1758(3)
O41_8 O 0.9247(3) 0.8759(3) 0.4129(2)
H51_8 H 0.9461 0.8861 0.4027
H52_8 H 0.9158 0.8985 0.4034
O42_8 O 0.8502(3) 0.7501(3) 0.29173(19)
H53_8 H 0.8268 0.7637 0.2961
H54_8 H 0.8603 0.7439 0.2739
loop_
_geom_bond_atom_site_label_1
_geom_bond_atom_site_label_2
_geom_bond_site_symmetry_1
_geom_bond_site_symmetry_2
Cu1 Cu2 1_555 1_555
O19 Cu1 1_555 1_555
H1 O19 1_555 1_555
O20 Cu2 1_555 1_555
H36 O20 1_555 1_555
O43 Cu2 1_555 1_555
O44 Cu1 1_555 1_555
O47 Cu1 1_555 1_555
O48 Cu2 1_555 1_555
Cu7 Cu9 1_555 1_555
Cu1_2 Cu2_2 1_555 1_555
Cu2_2 O1 1_555 1_555
Cu3 Cu4 1_555 1_555
Cu4 O4 1_555 1_555
O1 C13 1_555 1_555
O2 Cu1_2 1_555 1_555
O3 Cu3 1_555 1_555
O4 C14 1_555 1_555
O5 C7 1_555 1_555
O6 C10 1_555 1_555
O7 Cu1_2 1_555 1_555
O8 Cu2_2 1_555 1_555
O9 C40 1_555 1_555
O10 C40 1_555 1_555
O11 C21 1_555 1_555
O12 C24 1_555 1_555
O13 C29 1_555 1_555
O14 C32 1_555 1_555
O17 C42 1_555 1_555
O18 C42 1_555 1_555
O19_2 Cu1_2 1_555 1_555
O20_2 Cu2_2 1_555 1_555
H2 O20_2 1_555 1_555
O21 Cu3 1_555 1_555
H3 O21 1_555 1_555
H4 O21 1_555 1_555
O22 Cu4 1_555 1_555
H5 O22 1_555 1_555
H6 O22 1_555 1_555
N1 C5 1_555 1_555
C1 C2 1_555 1_555
C2 H7 1_555 1_555
C3 C2 1_555 1_555
C4 C3 1_555 1_555
H8 C4 1_555 1_555
C5 C4 1_555 1_555
C6 C1 1_555 1_555
H9 C6 1_555 1_555
C7 N1 1_555 1_555
C8 C7 1_555 1_555
H10 C8 1_555 1_555
C9 C8 1_555 1_555
H11 C9 1_555 1_555
C10 N1 1_555 1_555
C11 C9 1_555 1_555
H12 C11 1_555 1_555
C12 C11 1_555 1_555
H13 C12 1_555 1_555
C13 O2 1_555 1_555
C14 O3 1_555 1_555
C15 C16 1_555 1_555
C16 H14 1_555 1_555
C17 C16 1_555 1_555
C18 C17 1_555 1_555
H15 C18 1_555 1_555
C19 C18 1_555 1_555
C20 C15 1_555 1_555
H16 C20 1_555 1_555
N2 C19 1_555 1_555
C21 N2 1_555 1_555
C22 C21 1_555 1_555
H17 C22 1_555 1_555
C23 C22 1_555 1_555
H18 C23 1_555 1_555
C24 N2 1_555 1_555
C25 C22 1_555 1_555
H19 C25 1_555 1_555
C26 C25 1_555 1_555
H20 C26 1_555 1_555
C27 C26 1_555 1_555
H21 C27 1_555 1_555
C28 C23 1_555 1_555
H22 C28 1_555 1_555
N3 C29 1_555 1_555
C29 C30 1_555 1_555
C30 C28 1_555 1_555
H23 C30 1_555 1_555
C31 C25 1_555 1_555
H24 C31 1_555 1_555
C32 N3 1_555 1_555
C33 C34 1_555 1_555
C34 H25 1_555 1_555
C35 C34 1_555 1_555
C36 C35 1_555 1_555
C37 N3 1_555 1_555
C38 C33 1_555 1_555
H27 C38 1_555 1_555
C39 O7 1_555 1_555
C40 C17 1_555 1_555
C42 C33 1_555 1_555
H35 O19_2 1_555 1_555
O29 C81 1_555 1_555
O30 C81 1_555 1_555
O31 Cu3 1_555 1_555
O32 Cu4 1_555 1_555
O33 C63 1_555 1_555
O34 C66 1_555 1_555
O35 C71 1_555 1_555
O36 C74 1_555 1_555
O39 C84 1_555 1_555
O40 C84 1_555 1_555
C57 C58 1_555 1_555
C58 H37 1_555 1_555
C59 C58 1_555 1_555
C60 C59 1_555 1_555
H38 C60 1_555 1_555
C61 C60 1_555 1_555
C62 C57 1_555 1_555
H39 C62 1_555 1_555
N5 C61 1_555 1_555
C63 N5 1_555 1_555
C64 C63 1_555 1_555
H40 C64 1_555 1_555
C65 C64 1_555 1_555
H41 C65 1_555 1_555
C66 N5 1_555 1_555
C67 C64 1_555 1_555
H42 C67 1_555 1_555
C68 C67 1_555 1_555
H43 C68 1_555 1_555
C69 C68 1_555 1_555
H44 C69 1_555 1_555
C70 C65 1_555 1_555
H45 C70 1_555 1_555
N6 C71 1_555 1_555
C71 C72 1_555 1_555
C72 C70 1_555 1_555
H46 C72 1_555 1_555
C73 C67 1_555 1_555
H47 C73 1_555 1_555
C74 N6 1_555 1_555
C75 C76 1_555 1_555
C76 H48 1_555 1_555
C77 C76 1_555 1_555
C78 C77 1_555 1_555
C79 N6 1_555 1_555
C80 C75 1_555 1_555
H50 C80 1_555 1_555
C81 C57 1_555 1_555
C82 O31 1_555 1_555
C84 C75 1_555 1_555
Cu5 O9 1_555 1_555
Cu6 O10 1_555 1_555
O41 Cu5 1_555 1_555
H51 O41 1_555 1_555
H52 O41 1_555 1_555
O42 Cu6 1_555 1_555
H53 O42 1_555 1_555
H54 O42 1_555 1_555
Cu7_2 O29 1_555 1_555
Cu9_2 O30 1_555 1_555
Cu14 O17 1_555 1_555
Cu15 O39 1_555 1_555
Cu19 O18 1_555 1_555
Cu20 O40 1_555 1_555
O45 Cu5 1_555 1_555
O46 Cu6 1_555 1_555
O49 Cu6 1_555 1_555
O50 Cu4 1_555 1_555
O51 Cu5 1_555 1_555
O52 Cu3 1_555 1_555
O53 Cu5 1_555 1_555
O54 Cu3 1_555 1_555
O55 Cu6 1_555 1_555
O56 Cu4 1_555 1_555
O8 C39 1_555 1_555
C1 C13 1_555 1_555
C3 C14 1_555 1_555
C5 C6 1_555 1_555
C9 C10 1_555 1_555
C15 C39 1_555 1_555
C19 C20 1_555 1_555
C23 C24 1_555 1_555
C27 C28 1_555 1_555
C30 C31 1_555 1_555
C31 C32 1_555 1_555
C36 C37 1_555 1_555
C37 C38 1_555 1_555
O32 C82 1_555 1_555
C59 C82 1_555 1_555
C61 C62 1_555 1_555
C65 C66 1_555 1_555
C69 C70 1_555 1_555
C72 C73 1_555 1_555
C73 C74 1_555 1_555
C78 C79 1_555 1_555
C79 C80 1_555 1_555
Cu5 Cu6 1_555 1_555
Cu7_2 Cu9_2 1_555 1_555
Cu14 Cu19 1_555 1_555
Cu15 Cu20 1_555 1_555
O37 C83 1_555 1_555
O38 C83 1_555 1_555
Cu14 O38 1_555 1_555
Cu19 O37 1_555 1_555
Cu8 Cu10 1_555 1_555
O15 C41 1_555 1_555
O16 C41 1_555 1_555
O23 C55 1_555 1_555
O24 C55 1_555 1_555
O25 C56 1_555 1_555
O26 C56 1_555 1_555
O27 C49 1_555 1_555
O28 C52 1_555 1_555
N4 C47 1_555 1_555
C43 C44 1_555 1_555
C44 H28 1_555 1_555
C45 C44 1_555 1_555
C46 C45 1_555 1_555
H29 C46 1_555 1_555
C47 C46 1_555 1_555
C48 C43 1_555 1_555
H30 C48 1_555 1_555
C49 N4 1_555 1_555
H31 C50 1_555 1_555
C51 C50 1_555 1_555
H32 C51 1_555 1_555
C52 N4 1_555 1_555
H33 C53 1_555 1_555
H34 C54 1_555 1_555
C55 C43 1_555 1_555
C56 C45 1_555 1_555
Cu8_2 O24 1_555 1_555
Cu10_2 O23 1_555 1_555
Cu11 O25 1_555 1_555
Cu12 O16 1_555 1_555
Cu16 O26 1_555 1_555
Cu17 O15 1_555 1_555
C47 C48 1_555 1_555
C49 C50 1_555 1_555
C51 C52 1_555 1_555
C51 C53 1_555 1_555
C53 C54 1_555 1_555
Cu8_2 Cu10_2 1_555 1_555
Cu11 Cu16 1_555 1_555
Cu12 Cu17 1_555 1_555
O37_2 C83_2 1_555 1_555
O38_2 C83_2 1_555 1_555
Cu15 O38_2 1_555 1_555
Cu20 O37_2 1_555 1_555
O19_3 Cu7 1_555 1_555
H1_2 O19_3 1_555 1_555
O20_3 Cu9 1_555 1_555
H36_2 O20_3 1_555 1_555
O43_2 Cu9 1_555 1_555
O44_2 Cu7 1_555 1_555
O47_2 Cu7 1_555 1_555
O48_2 Cu9 1_555 1_555
Cu9_2 O1_2 1_555 1_555
Cu3_2 Cu4_2 1_555 1_555
Cu4_2 O4_2 1_555 1_555
O1_2 C13_2 1_555 1_555
O2_2 Cu7_2 1_555 1_555
O3_2 Cu3_2 1_555 1_555
O4_2 C14_2 1_555 1_555
O5_2 C7_2 1_555 1_555
O6_2 C10_2 1_555 1_555
O19_4 Cu7_2 1_555 1_555
O20_4 Cu9_2 1_555 1_555
H2_2 O20_4 1_555 1_555
O21_2 Cu3_2 1_555 1_555
H3_2 O21_2 1_555 1_555
H4_2 O21_2 1_555 1_555
O22_2 Cu4_2 1_555 1_555
H5_2 O22_2 1_555 1_555
H6_2 O22_2 1_555 1_555
N1_2 C5_2 1_555 1_555
C1_2 C2_2 1_555 1_555
C2_2 H7_2 1_555 1_555
C3_2 C2_2 1_555 1_555
C4_2 C3_2 1_555 1_555
H8_2 C4_2 1_555 1_555
C5_2 C4_2 1_555 1_555
C6_2 C1_2 1_555 1_555
H9_2 C6_2 1_555 1_555
C7_2 N1_2 1_555 1_555
C8_2 C7_2 1_555 1_555
H10_2 C8_2 1_555 1_555
C9_2 C8_2 1_555 1_555
H11_2 C9_2 1_555 1_555
C10_2 N1_2 1_555 1_555
C11_2 C9_2 1_555 1_555
H12_2 C11_2 1_555 1_555
C12_2 C11_2 1_555 1_555
H13_2 C12_2 1_555 1_555
C13_2 O2_2 1_555 1_555
C14_2 O3_2 1_555 1_555
H35_2 O19_4 1_555 1_555
O29_2 C81_2 1_555 1_555
O30_2 C81_2 1_555 1_555
O31_2 Cu3_2 1_555 1_555
O32_2 Cu4_2 1_555 1_555
O33_2 C63_2 1_555 1_555
O34_2 C66_2 1_555 1_555
O35_2 C71_2 1_555 1_555
O36_2 C74_2 1_555 1_555
O39_2 C84_2 1_555 1_555
O40_2 C84_2 1_555 1_555
C57_2 C58_2 1_555 1_555
C58_2 H37_2 1_555 1_555
C59_2 C58_2 1_555 1_555
C60_2 C59_2 1_555 1_555
H38_2 C60_2 1_555 1_555
C61_2 C60_2 1_555 1_555
C62_2 C57_2 1_555 1_555
H39_2 C62_2 1_555 1_555
N5_2 C61_2 1_555 1_555
C63_2 N5_2 1_555 1_555
C64_2 C63_2 1_555 1_555
H40_2 C64_2 1_555 1_555
C65_2 C64_2 1_555 1_555
H41_2 C65_2 1_555 1_555
C66_2 N5_2 1_555 1_555
C67_2 C64_2 1_555 1_555
H42_2 C67_2 1_555 1_555
C68_2 C67_2 1_555 1_555
H43_2 C68_2 1_555 1_555
C69_2 C68_2 1_555 1_555
H44_2 C69_2 1_555 1_555
C70_2 C65_2 1_555 1_555
H45_2 C70_2 1_555 1_555
N6_2 C71_2 1_555 1_555
C71_2 C72_2 1_555 1_555
C72_2 C70_2 1_555 1_555
H46_2 C72_2 1_555 1_555
C73_2 C67_2 1_555 1_555
H47_2 C73_2 1_555 1_555
C74_2 N6_2 1_555 1_555
C75_2 C76_2 1_555 1_555
C76_2 H48_2 1_555 1_555
C77_2 C76_2 1_555 1_555
C78_2 C77_2 1_555 1_555
C79_2 N6_2 1_555 1_555
C80_2 C75_2 1_555 1_555
H50_2 C80_2 1_555 1_555
C81_2 C57_2 1_555 1_555
C82_2 O31_2 1_555 1_555
C84_2 C75_2 1_555 1_555
Cu8_2 O29_2 1_555 1_555
Cu10_2 O30_2 1_555 1_555
Cu15_2 O39_2 1_555 1_555
Cu20_2 O40_2 1_555 1_555
O50_2 Cu4_2 1_555 1_555
O52_2 Cu3_2 1_555 1_555
O54_2 Cu3_2 1_555 1_555
O56_2 Cu4_2 1_555 1_555
C1_2 C13_2 1_555 1_555
C3_2 C14_2 1_555 1_555
C5_2 C6_2 1_555 1_555
C9_2 C10_2 1_555 1_555
O32_2 C82_2 1_555 1_555
C59_2 C82_2 1_555 1_555
C61_2 C62_2 1_555 1_555
C65_2 C66_2 1_555 1_555
C69_2 C70_2 1_555 1_555
C72_2 C73_2 1_555 1_555
C73_2 C74_2 1_555 1_555
C78_2 C79_2 1_555 1_555
C79_2 C80_2 1_555 1_555
Cu15_2 Cu20_2 1_555 1_555
Cu8_3 Cu10_3 1_555 1_555
O23_2 C55_2 1_555 1_555
O24_2 C55_2 1_555 1_555
O45 C56_2 1_555 1_555
O46 C56_2 1_555 1_555
O27_2 C49_2 1_555 1_555
O28_2 C52_2 1_555 1_555
N4_2 C47_2 1_555 1_555
C43_2 C44_2 1_555 1_555
C44_2 H28_2 1_555 1_555
C45_2 C44_2 1_555 1_555
C46_2 C45_2 1_555 1_555
H29_2 C46_2 1_555 1_555
C47_2 C46_2 1_555 1_555
C48_2 C43_2 1_555 1_555
H30_2 C48_2 1_555 1_555
C49_2 N4_2 1_555 1_555
H31_2 C50_2 1_555 1_555
C51_2 C50_2 1_555 1_555
H32_2 C51_2 1_555 1_555
C52_2 N4_2 1_555 1_555
H33_2 C53_2 1_555 1_555
H34_2 C54_2 1_555 1_555
C55_2 C43_2 1_555 1_555
C56_2 C45_2 1_555 1_555
Cu8_4 O24_2 1_555 1_555
Cu10_4 O23_2 1_555 1_555
C47_2 C48_2 1_555 1_555
C49_2 C50_2 1_555 1_555
C51_2 C52_2 1_555 1_555
C51_2 C53_2 1_555 1_555
C53_2 C54_2 1_555 1_555
Cu8_4 Cu10_4 1_555 1_555
O37_3 C83_3 1_555 1_555
O38_3 C83_3 1_555 1_555
Cu15_2 O38_3 1_555 1_555
Cu20_2 O37_3 1_555 1_555
O19_5 Cu8 1_555 1_555
H1_3 O19_5 1_555 1_555
O20_5 Cu10 1_555 1_555
H36_3 O20_5 1_555 1_555
O43_3 Cu10 1_555 1_555
O44_3 Cu8 1_555 1_555
O47_3 Cu8 1_555 1_555
O48_3 Cu10 1_555 1_555
O19_6 Cu8_2 1_555 1_555
O20_6 Cu10_2 1_555 1_555
H2_3 O20_6 1_555 1_555
O21_3 Cu11 1_555 1_555
H3_3 O21_3 1_555 1_555
H4_3 O21_3 1_555 1_555
O22_3 Cu16 1_555 1_555
H5_3 O22_3 1_555 1_555
H6_3 O22_3 1_555 1_555
H35_3 O19_6 1_555 1_555
O29_3 C81_3 1_555 1_555
O30_3 C81_3 1_555 1_555
O31_3 Cu11 1_555 1_555
O32_3 Cu16 1_555 1_555
O33_3 C63_3 1_555 1_555
O34_3 C66_3 1_555 1_555
O35_3 C71_3 1_555 1_555
O36_3 C74_3 1_555 1_555
O39_3 C84_3 1_555 1_555
O40_3 C84_3 1_555 1_555
C57_3 C58_3 1_555 1_555
C58_3 H37_3 1_555 1_555
C59_3 C58_3 1_555 1_555
C60_3 C59_3 1_555 1_555
H38_3 C60_3 1_555 1_555
C61_3 C60_3 1_555 1_555
C62_3 C57_3 1_555 1_555
H39_3 C62_3 1_555 1_555
N5_3 C61_3 1_555 1_555
C63_3 N5_3 1_555 1_555
C64_3 C63_3 1_555 1_555
H40_3 C64_3 1_555 1_555
C65_3 C64_3 1_555 1_555
H41_3 C65_3 1_555 1_555
C66_3 N5_3 1_555 1_555
C67_3 C64_3 1_555 1_555
H42_3 C67_3 1_555 1_555
C68_3 C67_3 1_555 1_555
H43_3 C68_3 1_555 1_555
C69_3 C68_3 1_555 1_555
H44_3 C69_3 1_555 1_555
C70_3 C65_3 1_555 1_555
H45_3 C70_3 1_555 1_555
N6_3 C71_3 1_555 1_555
C71_3 C72_3 1_555 1_555
C72_3 C70_3 1_555 1_555
H46_3 C72_3 1_555 1_555
C73_3 C67_3 1_555 1_555
H47_3 C73_3 1_555 1_555
C74_3 N6_3 1_555 1_555
C75_3 C76_3 1_555 1_555
C76_3 H48_3 1_555 1_555
C77_3 C76_3 1_555 1_555
C78_3 C77_3 1_555 1_555
C79_3 N6_3 1_555 1_555
C80_3 C75_3 1_555 1_555
H50_3 C80_3 1_555 1_555
C81_3 C57_3 1_555 1_555
C82_3 O31_3 1_555 1_555
C84_3 C75_3 1_555 1_555
Cu8_4 O29_3 1_555 1_555
Cu10_4 O30_3 1_555 1_555
Cu12 O39_3 1_555 1_555
Cu17 O40_3 1_555 1_555
O50_3 Cu16 1_555 1_555
O52_3 Cu11 1_555 1_555
O54_3 Cu11 1_555 1_555
O56_3 Cu16 1_555 1_555
O32_3 C82_3 1_555 1_555
C59_3 C82_3 1_555 1_555
C61_3 C62_3 1_555 1_555
C65_3 C66_3 1_555 1_555
C69_3 C70_3 1_555 1_555
C72_3 C73_3 1_555 1_555
C73_3 C74_3 1_555 1_555
C78_3 C79_3 1_555 1_555
C79_3 C80_3 1_555 1_555
O19_7 Cu8_3 1_555 1_555
H1_4 O19_7 1_555 1_555
O20_7 Cu10_3 1_555 1_555
H36_4 O20_7 1_555 1_555
O43_4 Cu10_3 1_555 1_555
O44_4 Cu8_3 1_555 1_555
O47_4 Cu8_3 1_555 1_555
O48_4 Cu10_3 1_555 1_555
O19_8 Cu8_4 1_555 1_555
O20_8 Cu10_4 1_555 1_555
H2_4 O20_8 1_555 1_555
H35_4 O19_8 1_555 1_555
Cu20_2 O4_3 1_555 1_555
O3_3 Cu15_2 1_555 1_555
O4_3 C14_3 1_555 1_555
O5_3 C7_3 1_555 1_555
O21_4 Cu15_2 1_555 1_555
H3_4 O21_4 1_555 1_555
H4_4 O21_4 1_555 1_555
O22_4 Cu20_2 1_555 1_555
H5_4 O22_4 1_555 1_555
H6_4 O22_4 1_555 1_555
N1_3 C5_3 1_555 1_555
C1_3 C2_3 1_555 1_555
C2_3 H7_3 1_555 1_555
C3_3 C2_3 1_555 1_555
C4_3 C3_3 1_555 1_555
H8_3 C4_3 1_555 1_555
C5_3 C4_3 1_555 1_555
C6_3 C1_3 1_555 1_555
C7_3 N1_3 1_555 1_555
C8_3 C7_3 1_555 1_555
H10_3 C8_3 1_555 1_555
C14_3 O3_3 1_555 1_555
O23_3 C55_3 1_555 1_555
O24_3 C55_3 1_555 1_555
O28_3 C52_3 1_555 1_555
H32_3 C51_3 1_555 1_555
C53_3 C8_3 1_555 1_555
H33_3 C53_3 1_555 1_555
H34_3 C54_3 1_555 1_555
O29_4 C81_4 1_555 1_555
O30_4 C81_4 1_555 1_555
O31_4 Cu15_2 1_555 1_555
O32_4 Cu20_2 1_555 1_555
O33_4 C63_4 1_555 1_555
O34_4 C66_4 1_555 1_555
O35_4 C71_4 1_555 1_555
O36_4 C74_4 1_555 1_555
O50_3 C83_4 1_555 1_555
O52_3 C83_4 1_555 1_555
O54_2 C84_4 1_555 1_555
O56_2 C84_4 1_555 1_555
C57_4 C58_4 1_555 1_555
C58_4 H37_4 1_555 1_555
C59_4 C58_4 1_555 1_555
C60_4 C59_4 1_555 1_555
H38_4 C60_4 1_555 1_555
C61_4 C60_4 1_555 1_555
C62_4 C57_4 1_555 1_555
H39_4 C62_4 1_555 1_555
N5_4 C61_4 1_555 1_555
C63_4 N5_4 1_555 1_555
C64_4 C63_4 1_555 1_555
H40_4 C64_4 1_555 1_555
C65_4 C64_4 1_555 1_555
H41_4 C65_4 1_555 1_555
C66_4 N5_4 1_555 1_555
C67_4 C64_4 1_555 1_555
H42_4 C67_4 1_555 1_555
C68_4 C67_4 1_555 1_555
H43_4 C68_4 1_555 1_555
C69_4 C68_4 1_555 1_555
H44_4 C69_4 1_555 1_555
C70_4 C65_4 1_555 1_555
H45_4 C70_4 1_555 1_555
N6_4 C71_4 1_555 1_555
C71_4 C72_4 1_555 1_555
C72_4 C70_4 1_555 1_555
H46_4 C72_4 1_555 1_555
C73_4 C67_4 1_555 1_555
H47_4 C73_4 1_555 1_555
C74_4 N6_4 1_555 1_555
C75_4 C76_4 1_555 1_555
C76_4 H48_4 1_555 1_555
C77_4 C76_4 1_555 1_555
C78_4 C77_4 1_555 1_555
H49_4 C78_4 1_555 1_555
C79_4 N6_4 1_555 1_555
C80_4 C75_4 1_555 1_555
H50_4 C80_4 1_555 1_555
C81_4 C57_4 1_555 1_555
C82_4 O31_4 1_555 1_555
C83_4 C77_4 1_555 1_555
C84_4 C75_4 1_555 1_555
Cu7_3 O29_4 1_555 1_555
Cu8_5 O24_3 1_555 1_555
Cu9_3 O30_4 1_555 1_555
Cu10_5 O23_3 1_555 1_555
C3_3 C14_3 1_555 1_555
C5_3 C6_3 1_555 1_555
C51_3 C52_3 1_555 1_555
C51_3 C53_3 1_555 1_555
C53_3 C54_3 1_555 1_555
O32_4 C82_4 1_555 1_555
C59_4 C82_4 1_555 1_555
C61_4 C62_4 1_555 1_555
C65_4 C66_4 1_555 1_555
C69_4 C70_4 1_555 1_555
C72_4 C73_4 1_555 1_555
C73_4 C74_4 1_555 1_555
C78_4 C79_4 1_555 1_555
C79_4 C80_4 1_555 1_555
Cu7_3 Cu9_3 1_555 1_555
Cu8_5 Cu10_5 1_555 1_555
Cu1_3 Cu2_3 1_555 1_555
Cu2_3 O1_3 1_555 1_555
O1_3 C13_3 1_555 1_555
O2_3 Cu1_3 1_555 1_555
O6_3 C10_3 1_555 1_555
O7_2 Cu1_3 1_555 1_555
O8_2 Cu2_3 1_555 1_555
O9_2 C40_2 1_555 1_555
O10_2 C40_2 1_555 1_555
O11_2 C21_2 1_555 1_555
O12_2 C24_2 1_555 1_555
O13_2 C29_2 1_555 1_555
O14_2 C32_2 1_555 1_555
O49 C41_2 1_555 1_555
O51 C41_2 1_555 1_555
O54_3 C42_2 1_555 1_555
O56_3 C42_2 1_555 1_555
O19_9 Cu1_3 1_555 1_555
H1_5 O19_9 1_555 1_555
O20_9 Cu2_3 1_555 1_555
H2_5 O20_9 1_555 1_555
H11_3 C9_3 1_555 1_555
C11_3 C9_3 1_555 1_555
H12_3 C11_3 1_555 1_555
C12_3 C11_3 1_555 1_555
H13_3 C12_3 1_555 1_555
C13_3 O2_3 1_555 1_555
C15_2 C16_2 1_555 1_555
C16_2 H14_2 1_555 1_555
C17_2 C16_2 1_555 1_555
C18_2 C17_2 1_555 1_555
H15_2 C18_2 1_555 1_555
C19_2 C18_2 1_555 1_555
C20_2 C15_2 1_555 1_555
H16_2 C20_2 1_555 1_555
N2_2 C19_2 1_555 1_555
C21_2 N2_2 1_555 1_555
C22_2 C21_2 1_555 1_555
H17_2 C22_2 1_555 1_555
C23_2 C22_2 1_555 1_555
H18_2 C23_2 1_555 1_555
C24_2 N2_2 1_555 1_555
C25_2 C22_2 1_555 1_555
H19_2 C25_2 1_555 1_555
C26_2 C25_2 1_555 1_555
H20_2 C26_2 1_555 1_555
C27_2 C26_2 1_555 1_555
H21_2 C27_2 1_555 1_555
C28_2 C23_2 1_555 1_555
H22_2 C28_2 1_555 1_555
N3_2 C29_2 1_555 1_555
C29_2 C30_2 1_555 1_555
C30_2 C28_2 1_555 1_555
H23_2 C30_2 1_555 1_555
C31_2 C25_2 1_555 1_555
H24_2 C31_2 1_555 1_555
C32_2 N3_2 1_555 1_555
C33_2 C34_2 1_555 1_555
C34_2 H25_2 1_555 1_555
C35_2 C34_2 1_555 1_555
C36_2 C35_2 1_555 1_555
H26_2 C36_2 1_555 1_555
C37_2 N3_2 1_555 1_555
C38_2 C33_2 1_555 1_555
H27_2 C38_2 1_555 1_555
C39_2 O7_2 1_555 1_555
C40_2 C17_2 1_555 1_555
C41_2 C35_2 1_555 1_555
C42_2 C33_2 1_555 1_555
O25_2 C56_3 1_555 1_555
O26_2 C56_3 1_555 1_555
O27_3 C49_3 1_555 1_555
N4_3 C47_3 1_555 1_555
C43_3 C44_3 1_555 1_555
C44_3 H28_3 1_555 1_555
C45_3 C44_3 1_555 1_555
C46_3 C45_3 1_555 1_555
H29_3 C46_3 1_555 1_555
C47_3 C46_3 1_555 1_555
C48_3 C43_3 1_555 1_555
C49_3 N4_3 1_555 1_555
C50_3 C11_3 1_555 1_555
H31_3 C50_3 1_555 1_555
C56_3 C45_3 1_555 1_555
H35_5 O19_9 1_555 1_555
H36_5 O20_9 1_555 1_555
Cu12 O9_2 1_555 1_555
Cu17 O10_2 1_555 1_555
O41_2 Cu12 1_555 1_555
H51_2 O41_2 1_555 1_555
H52_2 O41_2 1_555 1_555
O42_2 Cu17 1_555 1_555
H53_2 O42_2 1_555 1_555
H54_2 O42_2 1_555 1_555
Cu14 O25_2 1_555 1_555
Cu19 O26_2 1_555 1_555
O43_5 Cu2_3 1_555 1_555
O44_5 Cu1_3 1_555 1_555
O45_2 Cu12 1_555 1_555
O46_2 Cu17 1_555 1_555
O47_5 Cu1_3 1_555 1_555
O48_5 Cu2_3 1_555 1_555
O8_2 C39_2 1_555 1_555
C9_3 C10_3 1_555 1_555
C15_2 C39_2 1_555 1_555
C19_2 C20_2 1_555 1_555
C23_2 C24_2 1_555 1_555
C27_2 C28_2 1_555 1_555
C30_2 C31_2 1_555 1_555
C31_2 C32_2 1_555 1_555
C36_2 C37_2 1_555 1_555
C37_2 C38_2 1_555 1_555
C47_3 C48_3 1_555 1_555
C49_3 C50_3 1_555 1_555
Cu1_4 Cu2_4 1_555 1_555
Cu2_4 O1_4 1_555 1_555
O1_4 C13_4 1_555 1_555
O2_4 Cu1_4 1_555 1_555
O6_4 C10_4 1_555 1_555
O7_3 Cu1_4 1_555 1_555
O8_3 Cu2_4 1_555 1_555
O9_3 C40_3 1_555 1_555
O10_3 C40_3 1_555 1_555
O11_3 C21_3 1_555 1_555
O12_3 C24_3 1_555 1_555
O13_3 C29_3 1_555 1_555
O14_3 C32_3 1_555 1_555
O50 C41_3 1_555 1_555
O52 C41_3 1_555 1_555
O53 C42_3 1_555 1_555
O55 C42_3 1_555 1_555
O19_10 Cu1_4 1_555 1_555
H1_6 O19_10 1_555 1_555
O20_10 Cu2_4 1_555 1_555
H2_6 O20_10 1_555 1_555
H11_4 C9_4 1_555 1_555
C11_4 C9_4 1_555 1_555
H12_4 C11_4 1_555 1_555
C12_4 C11_4 1_555 1_555
H13_4 C12_4 1_555 1_555
C13_4 O2_4 1_555 1_555
C15_3 C16_3 1_555 1_555
C16_3 H14_3 1_555 1_555
C17_3 C16_3 1_555 1_555
C18_3 C17_3 1_555 1_555
H15_3 C18_3 1_555 1_555
C19_3 C18_3 1_555 1_555
C20_3 C15_3 1_555 1_555
H16_3 C20_3 1_555 1_555
N2_3 C19_3 1_555 1_555
C21_3 N2_3 1_555 1_555
C22_3 C21_3 1_555 1_555
H17_3 C22_3 1_555 1_555
C23_3 C22_3 1_555 1_555
H18_3 C23_3 1_555 1_555
C24_3 N2_3 1_555 1_555
C25_3 C22_3 1_555 1_555
H19_3 C25_3 1_555 1_555
C26_3 C25_3 1_555 1_555
H20_3 C26_3 1_555 1_555
C27_3 C26_3 1_555 1_555
H21_3 C27_3 1_555 1_555
C28_3 C23_3 1_555 1_555
H22_3 C28_3 1_555 1_555
N3_3 C29_3 1_555 1_555
C29_3 C30_3 1_555 1_555
C30_3 C28_3 1_555 1_555
H23_3 C30_3 1_555 1_555
C31_3 C25_3 1_555 1_555
H24_3 C31_3 1_555 1_555
C32_3 N3_3 1_555 1_555
C33_3 C34_3 1_555 1_555
C34_3 H25_3 1_555 1_555
C35_3 C34_3 1_555 1_555
C36_3 C35_3 1_555 1_555
H26_3 C36_3 1_555 1_555
C37_3 N3_3 1_555 1_555
C38_3 C33_3 1_555 1_555
H27_3 C38_3 1_555 1_555
C39_3 O7_3 1_555 1_555
C40_3 C17_3 1_555 1_555
C41_3 C35_3 1_555 1_555
C42_3 C33_3 1_555 1_555
O25_3 C56_4 1_555 1_555
O26_3 C56_4 1_555 1_555
O27_4 C49_4 1_555 1_555
N4_4 C47_4 1_555 1_555
C43_4 C44_4 1_555 1_555
C44_4 H28_4 1_555 1_555
C45_4 C44_4 1_555 1_555
C46_4 C45_4 1_555 1_555
H29_4 C46_4 1_555 1_555
C47_4 C46_4 1_555 1_555
C48_4 C43_4 1_555 1_555
C49_4 N4_4 1_555 1_555
C50_4 C11_4 1_555 1_555
H31_4 C50_4 1_555 1_555
C56_4 C45_4 1_555 1_555
H35_6 O19_10 1_555 1_555
H36_6 O20_10 1_555 1_555
Cu14 O9_3 1_555 1_555
Cu19 O10_3 1_555 1_555
O41_3 Cu14 1_555 1_555
H51_3 O41_3 1_555 1_555
H52_3 O41_3 1_555 1_555
O42_3 Cu19 1_555 1_555
H53_3 O42_3 1_555 1_555
H54_3 O42_3 1_555 1_555
Cu15 O25_3 1_555 1_555
Cu20 O26_3 1_555 1_555
O43_6 Cu2_4 1_555 1_555
O44_6 Cu1_4 1_555 1_555
O47_6 Cu1_4 1_555 1_555
O48_6 Cu2_4 1_555 1_555
O8_3 C39_3 1_555 1_555
C9_4 C10_4 1_555 1_555
C15_3 C39_3 1_555 1_555
C19_3 C20_3 1_555 1_555
C23_3 C24_3 1_555 1_555
C27_3 C28_3 1_555 1_555
C30_3 C31_3 1_555 1_555
C31_3 C32_3 1_555 1_555
C36_3 C37_3 1_555 1_555
C37_3 C38_3 1_555 1_555
C47_4 C48_4 1_555 1_555
C49_4 C50_4 1_555 1_555
O46_2 C14_4 1_555 1_555
O5_4 C7_4 1_555 1_555
N1_4 C5_4 1_555 1_555
C1_4 C2_4 1_555 1_555
C2_4 H7_4 1_555 1_555
C3_4 C2_4 1_555 1_555
C4_4 C3_4 1_555 1_555
H8_4 C4_4 1_555 1_555
C5_4 C4_4 1_555 1_555
C6_4 C1_4 1_555 1_555
C7_4 N1_4 1_555 1_555
C8_4 C7_4 1_555 1_555
H10_4 C8_4 1_555 1_555
C14_4 O45_2 1_555 1_555
O23_4 C55_4 1_555 1_555
O24_4 C55_4 1_555 1_555
O28_4 C52_4 1_555 1_555
H32_4 C51_4 1_555 1_555
C53_4 C8_4 1_555 1_555
H33_4 C53_4 1_555 1_555
H34_4 C54_4 1_555 1_555
Cu7_3 O24_4 1_555 1_555
Cu9_3 O23_4 1_555 1_555
C3_4 C14_4 1_555 1_555
C5_4 C6_4 1_555 1_555
C51_4 C52_4 1_555 1_555
C51_4 C53_4 1_555 1_555
C53_4 C54_4 1_555 1_555
O7_4 Cu8_5 1_555 1_555
O8_4 Cu10_5 1_555 1_555
O9_4 C40_4 1_555 1_555
O10_4 C40_4 1_555 1_555
O11_4 C21_4 1_555 1_555
O12_4 C24_4 1_555 1_555
O13_4 C29_4 1_555 1_555
O14_4 C32_4 1_555 1_555
O50_2 C41_4 1_555 1_555
O52_2 C41_4 1_555 1_555
O54 C42_4 1_555 1_555
O56 C42_4 1_555 1_555
O19_11 Cu8_5 1_555 1_555
H1_7 O19_11 1_555 1_555
O20_11 Cu10_5 1_555 1_555
H2_7 O20_11 1_555 1_555
C15_4 C16_4 1_555 1_555
C16_4 H14_4 1_555 1_555
C17_4 C16_4 1_555 1_555
C18_4 C17_4 1_555 1_555
H15_4 C18_4 1_555 1_555
C19_4 C18_4 1_555 1_555
C20_4 C15_4 1_555 1_555
H16_4 C20_4 1_555 1_555
N2_4 C19_4 1_555 1_555
C21_4 N2_4 1_555 1_555
C22_4 C21_4 1_555 1_555
H17_4 C22_4 1_555 1_555
C23_4 C22_4 1_555 1_555
H18_4 C23_4 1_555 1_555
C24_4 N2_4 1_555 1_555
C25_4 C22_4 1_555 1_555
H19_4 C25_4 1_555 1_555
C26_4 C25_4 1_555 1_555
H20_4 C26_4 1_555 1_555
C27_4 C26_4 1_555 1_555
H21_4 C27_4 1_555 1_555
C28_4 C23_4 1_555 1_555
H22_4 C28_4 1_555 1_555
N3_4 C29_4 1_555 1_555
C29_4 C30_4 1_555 1_555
C30_4 C28_4 1_555 1_555
H23_4 C30_4 1_555 1_555
C31_4 C25_4 1_555 1_555
H24_4 C31_4 1_555 1_555
C32_4 N3_4 1_555 1_555
C33_4 C34_4 1_555 1_555
C34_4 H25_4 1_555 1_555
C35_4 C34_4 1_555 1_555
C36_4 C35_4 1_555 1_555
H26_4 C36_4 1_555 1_555
C37_4 N3_4 1_555 1_555
C38_4 C33_4 1_555 1_555
H27_4 C38_4 1_555 1_555
C39_4 O7_4 1_555 1_555
C40_4 C17_4 1_555 1_555
C41_4 C35_4 1_555 1_555
C42_4 C33_4 1_555 1_555
H35_7 O19_11 1_555 1_555
H36_7 O20_11 1_555 1_555
Cu15 O9_4 1_555 1_555
Cu20 O10_4 1_555 1_555
O41_4 Cu15 1_555 1_555
H51_4 O41_4 1_555 1_555
H52_4 O41_4 1_555 1_555
O42_4 Cu20 1_555 1_555
H53_4 O42_4 1_555 1_555
H54_4 O42_4 1_555 1_555
O43_7 Cu10_5 1_555 1_555
O44_7 Cu8_5 1_555 1_555
O47_7 Cu8_5 1_555 1_555
O48_7 Cu10_5 1_555 1_555
O8_4 C39_4 1_555 1_555
C15_4 C39_4 1_555 1_555
C19_4 C20_4 1_555 1_555
C23_4 C24_4 1_555 1_555
C27_4 C28_4 1_555 1_555
C30_4 C31_4 1_555 1_555
C31_4 C32_4 1_555 1_555
C36_4 C37_4 1_555 1_555
C37_4 C38_4 1_555 1_555
O19_12 Cu7_3 1_555 1_555
H1_8 O19_12 1_555 1_555
O20_12 Cu9_3 1_555 1_555
H2_8 O20_12 1_555 1_555
H35_8 O19_12 1_555 1_555
H36_8 O20_12 1_555 1_555
O43_8 Cu9_3 1_555 1_555
O44_8 Cu7_3 1_555 1_555
O47_8 Cu7_3 1_555 1_555
O48_8 Cu9_3 1_555 1_555
O15_2 C41_5 1_555 1_555
O16_2 C41_5 1_555 1_555
O43 C55_5 1_555 1_555
O44 C55_5 1_555 1_555
O25_4 C56_5 1_555 1_555
O26_4 C56_5 1_555 1_555
O27_5 C49_5 1_555 1_555
O28_5 C52_5 1_555 1_555
N4_5 C47_5 1_555 1_555
C43_5 C44_5 1_555 1_555
C44_5 H28_5 1_555 1_555
C45_5 C44_5 1_555 1_555
C46_5 C45_5 1_555 1_555
H29_5 C46_5 1_555 1_555
C47_5 C46_5 1_555 1_555
C48_5 C43_5 1_555 1_555
H30_5 C48_5 1_555 1_555
C49_5 N4_5 1_555 1_555
H31_5 C50_5 1_555 1_555
C51_5 C50_5 1_555 1_555
H32_5 C51_5 1_555 1_555
C52_5 N4_5 1_555 1_555
H33_5 C53_5 1_555 1_555
H34_5 C54_5 1_555 1_555
C55_5 C43_5 1_555 1_555
C56_5 C45_5 1_555 1_555
Cu11_2 O25_4 1_555 1_555
Cu12_2 O16_2 1_555 1_555
Cu16_2 O26_4 1_555 1_555
Cu17_2 O15_2 1_555 1_555
C47_5 C48_5 1_555 1_555
C49_5 C50_5 1_555 1_555
C51_5 C52_5 1_555 1_555
C51_5 C53_5 1_555 1_555
C53_5 C54_5 1_555 1_555
Cu11_2 Cu16_2 1_555 1_555
Cu12_2 Cu17_2 1_555 1_555
O37_4 C83_5 1_555 1_555
O38_4 C83_5 1_555 1_555
Cu13 O38_4 1_555 1_555
Cu18 O37_4 1_555 1_555
Cu13 Cu18 1_555 1_555
Cu3_3 Cu4_3 1_555 1_555
Cu4_3 O4_4 1_555 1_555
O43_3 C13_5 1_555 1_555
O3_4 Cu3_3 1_555 1_555
O4_4 C14_5 1_555 1_555
O5_5 C7_5 1_555 1_555
O6_5 C10_5 1_555 1_555
O9_5 C40_5 1_555 1_555
O10_5 C40_5 1_555 1_555
O11_5 C21_5 1_555 1_555
O12_5 C24_5 1_555 1_555
O13_5 C29_5 1_555 1_555
O14_5 C32_5 1_555 1_555
O17_2 C42_5 1_555 1_555
O18_2 C42_5 1_555 1_555
O21_5 Cu3_3 1_555 1_555
H3_5 O21_5 1_555 1_555
H4_5 O21_5 1_555 1_555
O22_5 Cu4_3 1_555 1_555
H5_5 O22_5 1_555 1_555
H6_5 O22_5 1_555 1_555
N1_5 C5_5 1_555 1_555
C1_5 C2_5 1_555 1_555
C2_5 H7_5 1_555 1_555
C3_5 C2_5 1_555 1_555
C4_5 C3_5 1_555 1_555
H8_5 C4_5 1_555 1_555
C5_5 C4_5 1_555 1_555
C6_5 C1_5 1_555 1_555
H9_5 C6_5 1_555 1_555
C7_5 N1_5 1_555 1_555
C8_5 C7_5 1_555 1_555
H10_5 C8_5 1_555 1_555
C9_5 C8_5 1_555 1_555
H11_5 C9_5 1_555 1_555
C10_5 N1_5 1_555 1_555
C11_5 C9_5 1_555 1_555
H12_5 C11_5 1_555 1_555
C12_5 C11_5 1_555 1_555
H13_5 C12_5 1_555 1_555
C13_5 O44_3 1_555 1_555
C14_5 O3_4 1_555 1_555
C15_5 C16_5 1_555 1_555
C16_5 H14_5 1_555 1_555
C17_5 C16_5 1_555 1_555
C18_5 C17_5 1_555 1_555
H15_5 C18_5 1_555 1_555
C19_5 C18_5 1_555 1_555
C20_5 C15_5 1_555 1_555
H16_5 C20_5 1_555 1_555
N2_5 C19_5 1_555 1_555
C21_5 N2_5 1_555 1_555
C22_5 C21_5 1_555 1_555
H17_5 C22_5 1_555 1_555
C23_5 C22_5 1_555 1_555
H18_5 C23_5 1_555 1_555
C24_5 N2_5 1_555 1_555
C25_5 C22_5 1_555 1_555
H19_5 C25_5 1_555 1_555
C26_5 C25_5 1_555 1_555
H20_5 C26_5 1_555 1_555
C27_5 C26_5 1_555 1_555
H21_5 C27_5 1_555 1_555
C28_5 C23_5 1_555 1_555
H22_5 C28_5 1_555 1_555
N3_5 C29_5 1_555 1_555
C29_5 C30_5 1_555 1_555
C30_5 C28_5 1_555 1_555
H23_5 C30_5 1_555 1_555
C31_5 C25_5 1_555 1_555
H24_5 C31_5 1_555 1_555
C32_5 N3_5 1_555 1_555
C33_5 C34_5 1_555 1_555
C34_5 H25_5 1_555 1_555
C35_5 C34_5 1_555 1_555
C36_5 C35_5 1_555 1_555
C37_5 N3_5 1_555 1_555
C38_5 C33_5 1_555 1_555
H27_5 C38_5 1_555 1_555
C39_5 O47_3 1_555 1_555
C40_5 C17_5 1_555 1_555
C42_5 C33_5 1_555 1_555
O47_4 C81_5 1_555 1_555
O48_4 C81_5 1_555 1_555
O31_5 Cu3_3 1_555 1_555
O32_5 Cu4_3 1_555 1_555
O33_5 C63_5 1_555 1_555
O34_5 C66_5 1_555 1_555
O35_5 C71_5 1_555 1_555
O36_5 C74_5 1_555 1_555
O39_4 C84_5 1_555 1_555
O40_4 C84_5 1_555 1_555
C57_5 C58_5 1_555 1_555
C58_5 H37_5 1_555 1_555
C59_5 C58_5 1_555 1_555
C60_5 C59_5 1_555 1_555
H38_5 C60_5 1_555 1_555
C61_5 C60_5 1_555 1_555
C62_5 C57_5 1_555 1_555
H39_5 C62_5 1_555 1_555
N5_5 C61_5 1_555 1_555
C63_5 N5_5 1_555 1_555
C64_5 C63_5 1_555 1_555
H40_5 C64_5 1_555 1_555
C65_5 C64_5 1_555 1_555
H41_5 C65_5 1_555 1_555
C66_5 N5_5 1_555 1_555
C67_5 C64_5 1_555 1_555
H42_5 C67_5 1_555 1_555
C68_5 C67_5 1_555 1_555
H43_5 C68_5 1_555 1_555
C69_5 C68_5 1_555 1_555
H44_5 C69_5 1_555 1_555
C70_5 C65_5 1_555 1_555
H45_5 C70_5 1_555 1_555
N6_5 C71_5 1_555 1_555
C71_5 C72_5 1_555 1_555
C72_5 C70_5 1_555 1_555
H46_5 C72_5 1_555 1_555
C73_5 C67_5 1_555 1_555
H47_5 C73_5 1_555 1_555
C74_5 N6_5 1_555 1_555
C75_5 C76_5 1_555 1_555
C76_5 H48_5 1_555 1_555
C77_5 C76_5 1_555 1_555
C78_5 C77_5 1_555 1_555
C79_5 N6_5 1_555 1_555
C80_5 C75_5 1_555 1_555
H50_5 C80_5 1_555 1_555
C81_5 C57_5 1_555 1_555
C82_5 O31_5 1_555 1_555
C84_5 C75_5 1_555 1_555
Cu5_2 O9_5 1_555 1_555
Cu6_2 O10_5 1_555 1_555
O41_5 Cu5_2 1_555 1_555
H51_5 O41_5 1_555 1_555
H52_5 O41_5 1_555 1_555
O42_5 Cu6_2 1_555 1_555
H53_5 O42_5 1_555 1_555
H54_5 O42_5 1_555 1_555
Cu13 O17_2 1_555 1_555
Cu15_3 O39_4 1_555 1_555
Cu18 O18_2 1_555 1_555
Cu20_3 O40_4 1_555 1_555
O45_3 Cu5_2 1_555 1_555
O46_3 Cu6_2 1_555 1_555
O49_2 Cu6_2 1_555 1_555
O50_4 Cu4_3 1_555 1_555
O51_2 Cu5_2 1_555 1_555
O52_4 Cu3_3 1_555 1_555
O53_2 Cu5_2 1_555 1_555
O54_4 Cu3_3 1_555 1_555
O55_2 Cu6_2 1_555 1_555
O56_4 Cu4_3 1_555 1_555
O48_3 C39_5 1_555 1_555
C1_5 C13_5 1_555 1_555
C3_5 C14_5 1_555 1_555
C5_5 C6_5 1_555 1_555
C9_5 C10_5 1_555 1_555
C15_5 C39_5 1_555 1_555
C19_5 C20_5 1_555 1_555
C23_5 C24_5 1_555 1_555
C27_5 C28_5 1_555 1_555
C30_5 C31_5 1_555 1_555
C31_5 C32_5 1_555 1_555
C36_5 C37_5 1_555 1_555
C37_5 C38_5 1_555 1_555
O32_5 C82_5 1_555 1_555
C59_5 C82_5 1_555 1_555
C61_5 C62_5 1_555 1_555
C65_5 C66_5 1_555 1_555
C69_5 C70_5 1_555 1_555
C72_5 C73_5 1_555 1_555
C73_5 C74_5 1_555 1_555
C78_5 C79_5 1_555 1_555
C79_5 C80_5 1_555 1_555
Cu5_2 Cu6_2 1_555 1_555
Cu15_3 Cu20_3 1_555 1_555
O43_2 C55_6 1_555 1_555
O44_2 C55_6 1_555 1_555
O45_3 C56_6 1_555 1_555
O46_3 C56_6 1_555 1_555
O27_6 C49_6 1_555 1_555
O28_6 C52_6 1_555 1_555
N4_6 C47_6 1_555 1_555
C43_6 C44_6 1_555 1_555
C44_6 H28_6 1_555 1_555
C45_6 C44_6 1_555 1_555
C46_6 C45_6 1_555 1_555
H29_6 C46_6 1_555 1_555
C47_6 C46_6 1_555 1_555
C48_6 C43_6 1_555 1_555
H30_6 C48_6 1_555 1_555
C49_6 N4_6 1_555 1_555
H31_6 C50_6 1_555 1_555
C51_6 C50_6 1_555 1_555
H32_6 C51_6 1_555 1_555
C52_6 N4_6 1_555 1_555
H33_6 C53_6 1_555 1_555
H34_6 C54_6 1_555 1_555
C55_6 C43_6 1_555 1_555
C56_6 C45_6 1_555 1_555
C47_6 C48_6 1_555 1_555
C49_6 C50_6 1_555 1_555
C51_6 C52_6 1_555 1_555
C51_6 C53_6 1_555 1_555
C53_6 C54_6 1_555 1_555
Cu3_4 Cu4_4 1_555 1_555
Cu4_4 O4_5 1_555 1_555
O43_4 C13_6 1_555 1_555
O3_5 Cu3_4 1_555 1_555
O4_5 C14_6 1_555 1_555
O5_6 C7_6 1_555 1_555
O6_6 C10_6 1_555 1_555
O21_6 Cu3_4 1_555 1_555
H3_6 O21_6 1_555 1_555
H4_6 O21_6 1_555 1_555
O22_6 Cu4_4 1_555 1_555
H5_6 O22_6 1_555 1_555
H6_6 O22_6 1_555 1_555
N1_6 C5_6 1_555 1_555
C1_6 C2_6 1_555 1_555
C2_6 H7_6 1_555 1_555
C3_6 C2_6 1_555 1_555
C4_6 C3_6 1_555 1_555
H8_6 C4_6 1_555 1_555
C5_6 C4_6 1_555 1_555
C6_6 C1_6 1_555 1_555
H9_6 C6_6 1_555 1_555
C7_6 N1_6 1_555 1_555
C8_6 C7_6 1_555 1_555
H10_6 C8_6 1_555 1_555
C9_6 C8_6 1_555 1_555
H11_6 C9_6 1_555 1_555
C10_6 N1_6 1_555 1_555
C11_6 C9_6 1_555 1_555
H12_6 C11_6 1_555 1_555
C12_6 C11_6 1_555 1_555
H13_6 C12_6 1_555 1_555
C13_6 O44_4 1_555 1_555
C14_6 O3_5 1_555 1_555
O47 C81_6 1_555 1_555
O48 C81_6 1_555 1_555
O31_6 Cu3_4 1_555 1_555
O32_6 Cu4_4 1_555 1_555
O33_6 C63_6 1_555 1_555
O34_6 C66_6 1_555 1_555
O35_6 C71_6 1_555 1_555
O36_6 C74_6 1_555 1_555
O39_5 C84_6 1_555 1_555
O40_5 C84_6 1_555 1_555
C57_6 C58_6 1_555 1_555
C58_6 H37_6 1_555 1_555
C59_6 C58_6 1_555 1_555
C60_6 C59_6 1_555 1_555
H38_6 C60_6 1_555 1_555
C61_6 C60_6 1_555 1_555
C62_6 C57_6 1_555 1_555
H39_6 C62_6 1_555 1_555
N5_6 C61_6 1_555 1_555
C63_6 N5_6 1_555 1_555
C64_6 C63_6 1_555 1_555
H40_6 C64_6 1_555 1_555
C65_6 C64_6 1_555 1_555
H41_6 C65_6 1_555 1_555
C66_6 N5_6 1_555 1_555
C67_6 C64_6 1_555 1_555
H42_6 C67_6 1_555 1_555
C68_6 C67_6 1_555 1_555
H43_6 C68_6 1_555 1_555
C69_6 C68_6 1_555 1_555
H44_6 C69_6 1_555 1_555
C70_6 C65_6 1_555 1_555
H45_6 C70_6 1_555 1_555
N6_6 C71_6 1_555 1_555
C71_6 C72_6 1_555 1_555
C72_6 C70_6 1_555 1_555
H46_6 C72_6 1_555 1_555
C73_6 C67_6 1_555 1_555
H47_6 C73_6 1_555 1_555
C74_6 N6_6 1_555 1_555
C75_6 C76_6 1_555 1_555
C76_6 H48_6 1_555 1_555
C77_6 C76_6 1_555 1_555
C78_6 C77_6 1_555 1_555
C79_6 N6_6 1_555 1_555
C80_6 C75_6 1_555 1_555
H50_6 C80_6 1_555 1_555
C81_6 C57_6 1_555 1_555
C82_6 O31_6 1_555 1_555
C84_6 C75_6 1_555 1_555
Cu15_4 O39_5 1_555 1_555
Cu20_4 O40_5 1_555 1_555
O50_5 Cu4_4 1_555 1_555
O52_5 Cu3_4 1_555 1_555
O54_5 Cu3_4 1_555 1_555
O56_5 Cu4_4 1_555 1_555
C1_6 C13_6 1_555 1_555
C3_6 C14_6 1_555 1_555
C5_6 C6_6 1_555 1_555
C9_6 C10_6 1_555 1_555
O32_6 C82_6 1_555 1_555
C59_6 C82_6 1_555 1_555
C61_6 C62_6 1_555 1_555
C65_6 C66_6 1_555 1_555
C69_6 C70_6 1_555 1_555
C72_6 C73_6 1_555 1_555
C73_6 C74_6 1_555 1_555
C78_6 C79_6 1_555 1_555
C79_6 C80_6 1_555 1_555
Cu15_4 Cu20_4 1_555 1_555
O37_5 C83_6 1_555 1_555
O38_5 C83_6 1_555 1_555
Cu15_3 O38_5 1_555 1_555
Cu20_3 O37_5 1_555 1_555
O21_7 Cu11_2 1_555 1_555
H3_7 O21_7 1_555 1_555
H4_7 O21_7 1_555 1_555
O22_7 Cu16_2 1_555 1_555
H5_7 O22_7 1_555 1_555
H6_7 O22_7 1_555 1_555
O47_2 C81_7 1_555 1_555
O48_2 C81_7 1_555 1_555
O31_7 Cu11_2 1_555 1_555
O32_7 Cu16_2 1_555 1_555
O33_7 C63_7 1_555 1_555
O34_7 C66_7 1_555 1_555
O35_7 C71_7 1_555 1_555
O36_7 C74_7 1_555 1_555
O39_6 C84_7 1_555 1_555
O40_6 C84_7 1_555 1_555
C57_7 C58_7 1_555 1_555
C58_7 H37_7 1_555 1_555
C59_7 C58_7 1_555 1_555
C60_7 C59_7 1_555 1_555
H38_7 C60_7 1_555 1_555
C61_7 C60_7 1_555 1_555
C62_7 C57_7 1_555 1_555
H39_7 C62_7 1_555 1_555
N5_7 C61_7 1_555 1_555
C63_7 N5_7 1_555 1_555
C64_7 C63_7 1_555 1_555
H40_7 C64_7 1_555 1_555
C65_7 C64_7 1_555 1_555
H41_7 C65_7 1_555 1_555
C66_7 N5_7 1_555 1_555
C67_7 C64_7 1_555 1_555
H42_7 C67_7 1_555 1_555
C68_7 C67_7 1_555 1_555
H43_7 C68_7 1_555 1_555
C69_7 C68_7 1_555 1_555
H44_7 C69_7 1_555 1_555
C70_7 C65_7 1_555 1_555
H45_7 C70_7 1_555 1_555
N6_7 C71_7 1_555 1_555
C71_7 C72_7 1_555 1_555
C72_7 C70_7 1_555 1_555
H46_7 C72_7 1_555 1_555
C73_7 C67_7 1_555 1_555
H47_7 C73_7 1_555 1_555
C74_7 N6_7 1_555 1_555
C75_7 C76_7 1_555 1_555
C76_7 H48_7 1_555 1_555
C77_7 C76_7 1_555 1_555
C78_7 C77_7 1_555 1_555
C79_7 N6_7 1_555 1_555
C80_7 C75_7 1_555 1_555
H50_7 C80_7 1_555 1_555
C81_7 C57_7 1_555 1_555
C82_7 O31_7 1_555 1_555
C84_7 C75_7 1_555 1_555
Cu12_2 O39_6 1_555 1_555
Cu17_2 O40_6 1_555 1_555
O50_6 Cu16_2 1_555 1_555
O52_6 Cu11_2 1_555 1_555
O54_6 Cu11_2 1_555 1_555
O56_6 Cu16_2 1_555 1_555
O32_7 C82_7 1_555 1_555
C59_7 C82_7 1_555 1_555
C61_7 C62_7 1_555 1_555
C65_7 C66_7 1_555 1_555
C69_7 C70_7 1_555 1_555
C72_7 C73_7 1_555 1_555
C73_7 C74_7 1_555 1_555
C78_7 C79_7 1_555 1_555
C79_7 C80_7 1_555 1_555
O37_6 C83_7 1_555 1_555
O38_6 C83_7 1_555 1_555
Cu15_4 O38_6 1_555 1_555
Cu20_4 O37_6 1_555 1_555
O43_7 C13_7 1_555 1_555
O6_7 C10_7 1_555 1_555
O9_6 C40_6 1_555 1_555
O10_6 C40_6 1_555 1_555
O11_6 C21_6 1_555 1_555
O12_6 C24_6 1_555 1_555
O13_6 C29_6 1_555 1_555
O14_6 C32_6 1_555 1_555
O49_2 C41_6 1_555 1_555
O51_2 C41_6 1_555 1_555
O54_6 C42_6 1_555 1_555
O56_6 C42_6 1_555 1_555
H11_7 C9_7 1_555 1_555
C11_7 C9_7 1_555 1_555
H12_7 C11_7 1_555 1_555
C12_7 C11_7 1_555 1_555
H13_7 C12_7 1_555 1_555
C13_7 O44_7 1_555 1_555
C15_6 C16_6 1_555 1_555
C16_6 H14_6 1_555 1_555
C17_6 C16_6 1_555 1_555
C18_6 C17_6 1_555 1_555
H15_6 C18_6 1_555 1_555
C19_6 C18_6 1_555 1_555
C20_6 C15_6 1_555 1_555
H16_6 C20_6 1_555 1_555
N2_6 C19_6 1_555 1_555
C21_6 N2_6 1_555 1_555
C22_6 C21_6 1_555 1_555
H17_6 C22_6 1_555 1_555
C23_6 C22_6 1_555 1_555
H18_6 C23_6 1_555 1_555
C24_6 N2_6 1_555 1_555
C25_6 C22_6 1_555 1_555
H19_6 C25_6 1_555 1_555
C26_6 C25_6 1_555 1_555
H20_6 C26_6 1_555 1_555
C27_6 C26_6 1_555 1_555
H21_6 C27_6 1_555 1_555
C28_6 C23_6 1_555 1_555
H22_6 C28_6 1_555 1_555
N3_6 C29_6 1_555 1_555
C29_6 C30_6 1_555 1_555
C30_6 C28_6 1_555 1_555
H23_6 C30_6 1_555 1_555
C31_6 C25_6 1_555 1_555
H24_6 C31_6 1_555 1_555
C32_6 N3_6 1_555 1_555
C33_6 C34_6 1_555 1_555
C34_6 H25_6 1_555 1_555
C35_6 C34_6 1_555 1_555
C36_6 C35_6 1_555 1_555
H26_6 C36_6 1_555 1_555
C37_6 N3_6 1_555 1_555
C38_6 C33_6 1_555 1_555
H27_6 C38_6 1_555 1_555
C39_6 O47_7 1_555 1_555
C40_6 C17_6 1_555 1_555
C41_6 C35_6 1_555 1_555
C42_6 C33_6 1_555 1_555
O25_5 C56_7 1_555 1_555
O26_5 C56_7 1_555 1_555
O27_7 C49_7 1_555 1_555
N4_7 C47_7 1_555 1_555
C43_7 C44_7 1_555 1_555
C44_7 H28_7 1_555 1_555
C45_7 C44_7 1_555 1_555
C46_7 C45_7 1_555 1_555
H29_7 C46_7 1_555 1_555
C47_7 C46_7 1_555 1_555
C48_7 C43_7 1_555 1_555
C49_7 N4_7 1_555 1_555
C50_7 C11_7 1_555 1_555
H31_7 C50_7 1_555 1_555
C56_7 C45_7 1_555 1_555
Cu12_2 O9_6 1_555 1_555
Cu17_2 O10_6 1_555 1_555
O41_6 Cu12_2 1_555 1_555
H51_6 O41_6 1_555 1_555
H52_6 O41_6 1_555 1_555
O42_6 Cu17_2 1_555 1_555
H53_6 O42_6 1_555 1_555
H54_6 O42_6 1_555 1_555
Cu13 O25_5 1_555 1_555
Cu18 O26_5 1_555 1_555
O45_4 Cu12_2 1_555 1_555
O46_4 Cu17_2 1_555 1_555
O48_7 C39_6 1_555 1_555
C9_7 C10_7 1_555 1_555
C15_6 C39_6 1_555 1_555
C19_6 C20_6 1_555 1_555
C23_6 C24_6 1_555 1_555
C27_6 C28_6 1_555 1_555
C30_6 C31_6 1_555 1_555
C31_6 C32_6 1_555 1_555
C36_6 C37_6 1_555 1_555
C37_6 C38_6 1_555 1_555
C47_7 C48_7 1_555 1_555
C49_7 C50_7 1_555 1_555
Cu20_4 O4_6 1_555 1_555
O3_6 Cu15_4 1_555 1_555
O4_6 C14_7 1_555 1_555
O5_7 C7_7 1_555 1_555
O21_8 Cu15_4 1_555 1_555
H3_8 O21_8 1_555 1_555
H4_8 O21_8 1_555 1_555
O22_8 Cu20_4 1_555 1_555
H5_8 O22_8 1_555 1_555
H6_8 O22_8 1_555 1_555
N1_7 C5_7 1_555 1_555
C1_7 C2_7 1_555 1_555
C2_7 H7_7 1_555 1_555
C3_7 C2_7 1_555 1_555
C4_7 C3_7 1_555 1_555
H8_7 C4_7 1_555 1_555
C5_7 C4_7 1_555 1_555
C6_7 C1_7 1_555 1_555
C7_7 N1_7 1_555 1_555
C8_7 C7_7 1_555 1_555
H10_7 C8_7 1_555 1_555
C14_7 O3_6 1_555 1_555
O43_5 C55_7 1_555 1_555
O44_5 C55_7 1_555 1_555
O28_7 C52_7 1_555 1_555
H32_7 C51_7 1_555 1_555
C53_7 C8_7 1_555 1_555
H33_7 C53_7 1_555 1_555
H34_7 C54_7 1_555 1_555
O47_6 C81_8 1_555 1_555
O48_6 C81_8 1_555 1_555
O31_8 Cu15_4 1_555 1_555
O32_8 Cu20_4 1_555 1_555
O33_8 C63_8 1_555 1_555
O34_8 C66_8 1_555 1_555
O35_8 C71_8 1_555 1_555
O36_8 C74_8 1_555 1_555
O50_6 C83_8 1_555 1_555
O52_6 C83_8 1_555 1_555
O54_5 C84_8 1_555 1_555
O56_5 C84_8 1_555 1_555
C57_8 C58_8 1_555 1_555
C58_8 H37_8 1_555 1_555
C59_8 C58_8 1_555 1_555
C60_8 C59_8 1_555 1_555
H38_8 C60_8 1_555 1_555
C61_8 C60_8 1_555 1_555
C62_8 C57_8 1_555 1_555
H39_8 C62_8 1_555 1_555
N5_8 C61_8 1_555 1_555
C63_8 N5_8 1_555 1_555
C64_8 C63_8 1_555 1_555
H40_8 C64_8 1_555 1_555
C65_8 C64_8 1_555 1_555
H41_8 C65_8 1_555 1_555
C66_8 N5_8 1_555 1_555
C67_8 C64_8 1_555 1_555
H42_8 C67_8 1_555 1_555
C68_8 C67_8 1_555 1_555
H43_8 C68_8 1_555 1_555
C69_8 C68_8 1_555 1_555
H44_8 C69_8 1_555 1_555
C70_8 C65_8 1_555 1_555
H45_8 C70_8 1_555 1_555
N6_8 C71_8 1_555 1_555
C71_8 C72_8 1_555 1_555
C72_8 C70_8 1_555 1_555
H46_8 C72_8 1_555 1_555
C73_8 C67_8 1_555 1_555
H47_8 C73_8 1_555 1_555
C74_8 N6_8 1_555 1_555
C75_8 C76_8 1_555 1_555
C76_8 H48_8 1_555 1_555
C77_8 C76_8 1_555 1_555
C78_8 C77_8 1_555 1_555
H49_8 C78_8 1_555 1_555
C79_8 N6_8 1_555 1_555
C80_8 C75_8 1_555 1_555
H50_8 C80_8 1_555 1_555
C81_8 C57_8 1_555 1_555
C82_8 O31_8 1_555 1_555
C83_8 C77_8 1_555 1_555
C84_8 C75_8 1_555 1_555
C3_7 C14_7 1_555 1_555
C5_7 C6_7 1_555 1_555
C51_7 C52_7 1_555 1_555
C51_7 C53_7 1_555 1_555
C53_7 C54_7 1_555 1_555
O32_8 C82_8 1_555 1_555
C59_8 C82_8 1_555 1_555
C61_8 C62_8 1_555 1_555
C65_8 C66_8 1_555 1_555
C69_8 C70_8 1_555 1_555
C72_8 C73_8 1_555 1_555
C73_8 C74_8 1_555 1_555
C78_8 C79_8 1_555 1_555
C79_8 C80_8 1_555 1_555
O46_4 C14_8 1_555 1_555
O5_8 C7_8 1_555 1_555
N1_8 C5_8 1_555 1_555
C1_8 C2_8 1_555 1_555
C2_8 H7_8 1_555 1_555
C3_8 C2_8 1_555 1_555
C4_8 C3_8 1_555 1_555
H8_8 C4_8 1_555 1_555
C5_8 C4_8 1_555 1_555
C6_8 C1_8 1_555 1_555
C7_8 N1_8 1_555 1_555
C8_8 C7_8 1_555 1_555
H10_8 C8_8 1_555 1_555
C14_8 O45_4 1_555 1_555
O43_6 C55_8 1_555 1_555
O44_6 C55_8 1_555 1_555
O28_8 C52_8 1_555 1_555
H32_8 C51_8 1_555 1_555
C53_8 C8_8 1_555 1_555
H33_8 C53_8 1_555 1_555
H34_8 C54_8 1_555 1_555
C3_8 C14_8 1_555 1_555
C5_8 C6_8 1_555 1_555
C51_8 C52_8 1_555 1_555
C51_8 C53_8 1_555 1_555
C53_8 C54_8 1_555 1_555
O43_8 C13_8 1_555 1_555
O6_8 C10_8 1_555 1_555
O9_7 C40_7 1_555 1_555
O10_7 C40_7 1_555 1_555
O11_7 C21_7 1_555 1_555
O12_7 C24_7 1_555 1_555
O13_7 C29_7 1_555 1_555
O14_7 C32_7 1_555 1_555
O50_4 C41_7 1_555 1_555
O52_4 C41_7 1_555 1_555
O53_2 C42_7 1_555 1_555
O55_2 C42_7 1_555 1_555
H11_8 C9_8 1_555 1_555
C11_8 C9_8 1_555 1_555
H12_8 C11_8 1_555 1_555
C12_8 C11_8 1_555 1_555
H13_8 C12_8 1_555 1_555
C13_8 O44_8 1_555 1_555
C15_7 C16_7 1_555 1_555
C16_7 H14_7 1_555 1_555
C17_7 C16_7 1_555 1_555
C18_7 C17_7 1_555 1_555
H15_7 C18_7 1_555 1_555
C19_7 C18_7 1_555 1_555
C20_7 C15_7 1_555 1_555
H16_7 C20_7 1_555 1_555
N2_7 C19_7 1_555 1_555
C21_7 N2_7 1_555 1_555
C22_7 C21_7 1_555 1_555
H17_7 C22_7 1_555 1_555
C23_7 C22_7 1_555 1_555
H18_7 C23_7 1_555 1_555
C24_7 N2_7 1_555 1_555
C25_7 C22_7 1_555 1_555
H19_7 C25_7 1_555 1_555
C26_7 C25_7 1_555 1_555
H20_7 C26_7 1_555 1_555
C27_7 C26_7 1_555 1_555
H21_7 C27_7 1_555 1_555
C28_7 C23_7 1_555 1_555
H22_7 C28_7 1_555 1_555
N3_7 C29_7 1_555 1_555
C29_7 C30_7 1_555 1_555
C30_7 C28_7 1_555 1_555
H23_7 C30_7 1_555 1_555
C31_7 C25_7 1_555 1_555
H24_7 C31_7 1_555 1_555
C32_7 N3_7 1_555 1_555
C33_7 C34_7 1_555 1_555
C34_7 H25_7 1_555 1_555
C35_7 C34_7 1_555 1_555
C36_7 C35_7 1_555 1_555
H26_7 C36_7 1_555 1_555
C37_7 N3_7 1_555 1_555
C38_7 C33_7 1_555 1_555
H27_7 C38_7 1_555 1_555
C39_7 O47_8 1_555 1_555
C40_7 C17_7 1_555 1_555
C41_7 C35_7 1_555 1_555
C42_7 C33_7 1_555 1_555
O25_6 C56_8 1_555 1_555
O26_6 C56_8 1_555 1_555
O27_8 C49_8 1_555 1_555
N4_8 C47_8 1_555 1_555
C43_8 C44_8 1_555 1_555
C44_8 H28_8 1_555 1_555
C45_8 C44_8 1_555 1_555
C46_8 C45_8 1_555 1_555
H29_8 C46_8 1_555 1_555
C47_8 C46_8 1_555 1_555
C48_8 C43_8 1_555 1_555
C49_8 N4_8 1_555 1_555
C50_8 C11_8 1_555 1_555
H31_8 C50_8 1_555 1_555
C56_8 C45_8 1_555 1_555
Cu13 O9_7 1_555 1_555
Cu18 O10_7 1_555 1_555
O41_7 Cu13 1_555 1_555
H51_7 O41_7 1_555 1_555
H52_7 O41_7 1_555 1_555
O42_7 Cu18 1_555 1_555
H53_7 O42_7 1_555 1_555
H54_7 O42_7 1_555 1_555
Cu15_3 O25_6 1_555 1_555
Cu20_3 O26_6 1_555 1_555
O48_8 C39_7 1_555 1_555
C9_8 C10_8 1_555 1_555
C15_7 C39_7 1_555 1_555
C19_7 C20_7 1_555 1_555
C23_7 C24_7 1_555 1_555
C27_7 C28_7 1_555 1_555
C30_7 C31_7 1_555 1_555
C31_7 C32_7 1_555 1_555
C36_7 C37_7 1_555 1_555
C37_7 C38_7 1_555 1_555
C47_8 C48_8 1_555 1_555
C49_8 C50_8 1_555 1_555
O9_8 C40_8 1_555 1_555
O10_8 C40_8 1_555 1_555
O11_8 C21_8 1_555 1_555
O12_8 C24_8 1_555 1_555
O13_8 C29_8 1_555 1_555
O14_8 C32_8 1_555 1_555
O50_5 C41_8 1_555 1_555
O52_5 C41_8 1_555 1_555
O54_4 C42_8 1_555 1_555
O56_4 C42_8 1_555 1_555
C15_8 C16_8 1_555 1_555
C16_8 H14_8 1_555 1_555
C17_8 C16_8 1_555 1_555
C18_8 C17_8 1_555 1_555
H15_8 C18_8 1_555 1_555
C19_8 C18_8 1_555 1_555
C20_8 C15_8 1_555 1_555
H16_8 C20_8 1_555 1_555
N2_8 C19_8 1_555 1_555
C21_8 N2_8 1_555 1_555
C22_8 C21_8 1_555 1_555
H17_8 C22_8 1_555 1_555
C23_8 C22_8 1_555 1_555
H18_8 C23_8 1_555 1_555
C24_8 N2_8 1_555 1_555
C25_8 C22_8 1_555 1_555
H19_8 C25_8 1_555 1_555
C26_8 C25_8 1_555 1_555
H20_8 C26_8 1_555 1_555
C27_8 C26_8 1_555 1_555
H21_8 C27_8 1_555 1_555
C28_8 C23_8 1_555 1_555
H22_8 C28_8 1_555 1_555
N3_8 C29_8 1_555 1_555
C29_8 C30_8 1_555 1_555
C30_8 C28_8 1_555 1_555
H23_8 C30_8 1_555 1_555
C31_8 C25_8 1_555 1_555
H24_8 C31_8 1_555 1_555
C32_8 N3_8 1_555 1_555
C33_8 C34_8 1_555 1_555
C34_8 H25_8 1_555 1_555
C35_8 C34_8 1_555 1_555
C36_8 C35_8 1_555 1_555
H26_8 C36_8 1_555 1_555
C37_8 N3_8 1_555 1_555
C38_8 C33_8 1_555 1_555
H27_8 C38_8 1_555 1_555
C39_8 O47_5 1_555 1_555
C40_8 C17_8 1_555 1_555
C41_8 C35_8 1_555 1_555
C42_8 C33_8 1_555 1_555
Cu15_3 O9_8 1_555 1_555
Cu20_3 O10_8 1_555 1_555
O41_8 Cu15_3 1_555 1_555
H51_8 O41_8 1_555 1_555
H52_8 O41_8 1_555 1_555
O42_8 Cu20_3 1_555 1_555
H53_8 O42_8 1_555 1_555
H54_8 O42_8 1_555 1_555
O48_5 C39_8 1_555 1_555
C15_8 C39_8 1_555 1_555
C19_8 C20_8 1_555 1_555
C23_8 C24_8 1_555 1_555
C27_8 C28_8 1_555 1_555
C30_8 C31_8 1_555 1_555
C31_8 C32_8 1_555 1_555
C36_8 C37_8 1_555 1_555
C37_8 C38_8 1_555 1_555

#END
