
###############################################################################
#
# This file contains modified crystal structure data generated from the
# MOF subset of the Cambridge Structural Database (CSD) v543 
# hosted by the Cambridge Crystallographic Data Centre (CCDC).
#
# This work is licensed under the Creative Commons
# Attribution-NonCommercial-ShareAlike 4.0 International License.
# To view a copy of this license, visit
# http://creativecommons.org/licenses/by-nc-sa/4.0/
# or send a letter to
# Creative Commons, PO Box 1866, Mountain View, CA 94042, USA.
#
# CIF created using the CSD Python API on 29 September 2022
# The structure has been converted into the P1 space group
# The structure has a 3D framework
# The original CSD entry CUMSEL is in the tetragonal crystal system
# The framework has been calculated to contain at least 10.0% void space
# The void calculation uses a probe of radius 1.32A, grid spacing 0.4
# H atom positions have been added when not included in the experimental data
# Generated hydrogen atom positions removed from atoms on special positions
#
###############################################################################

data_CUMSEL
_chemical_formula_moiety         '(C672 H456 Cu56 N48 O344)n'
_symmetry_cell_setting           triclinic
_symmetry_space_group_name_H-M   'P 1'
_symmetry_Int_Tables_number      1
_space_group_name_Hall           'P 1'
loop_
_symmetry_equiv_pos_site_id
_symmetry_equiv_pos_as_xyz
1 x,y,z
_cell_length_a                   30.7918(3)
_cell_length_b                   30.7918(3)
_cell_length_c                   43.2253(8)
_cell_angle_alpha                90
_cell_angle_beta                 90
_cell_angle_gamma                90
_cell_volume                     40983.4
loop_
_atom_site_label
_atom_site_type_symbol
_atom_site_fract_x
_atom_site_fract_y
_atom_site_fract_z
Cu1 Cu 0.06827(9) 0.25201(6) 0.0000
Cu2 Cu 0.09069(9) 0.33560(6) 0.0000
O1 O 0.0577(3) 0.1828(3) 0.0000
H1 H 0.0309 0.1894 0.0000
O2 O 0.1086(3) 0.4000(3) 0.0000
H2 H 0.1022 0.4268 0.0000
O5 O 0.0455(2) 0.3414(2) 0.03211(16)
O6 O 0.0269(2) 0.2680(2) 0.03269(16)
O9 O 0.0563(3) 0.3951(3) 0.1370(3)
C6 C 0.0006(2) 0.3546(2) 0.0888(2)
H9 H 0.0175 0.3772 0.0811
C7 C 0.0206(7) 0.4136(6) 0.1413(4)
C8 C 0.0181(5) 0.4581(4) 0.1602(3)
H10 H 0.0226 0.4567 0.1826
C13 C 0.0259(4) 0.3072(4) 0.0431(3)
O25 O 0.0943(2) 0.74142(18) 0.14948(14)
O26 O 0.07287(19) 0.78452(19) 0.10845(14)
O28 O 0.0896(4) 0.5830(4) 0.1330(4)
C43 C 0.0016(2) 0.6847(3) 0.07308(14)
C44 C 0.0269(3) 0.7183(2) 0.08467(18)
H28 H 0.0283 0.7446 0.0741
C45 C 0.0500(2) 0.7127(3) 0.11199(19)
C46 C 0.0478(2) 0.6734(3) 0.12773(14)
H29 H 0.0633 0.6696 0.1460
C47 C 0.0225(3) 0.6397(2) 0.1161(2)
N4 N 0.0186(5) 0.5999(4) 0.1317(3)
C51 C 0.0322(4) 0.5356(4) 0.1580(3)
H32 H 0.0488 0.5389 0.1772
C52 C 0.0565(6) 0.5747(6) 0.1397(4)
C53 C 0.0477(4) 0.4951(4) 0.1396(3)
H33 H 0.0784 0.4866 0.1395
C54 C 0.0236(3) 0.4967(4) 0.1059(3)
H34 H 0.0384 0.4941 0.0872
C56 C 0.0742(3) 0.7492(4) 0.1245(3)
Cu5 Cu 0.12315(5) 0.78908(5) 0.17206(3)
Cu6 Cu 0.09383(5) 0.83930(4) 0.12634(3)
O29 O 0.1471(2) 0.7501(2) 0.20978(17)
H35 H 0.1650 0.7310 0.2162
H36 H 0.1222 0.7387 0.2077
O30 O 0.0716(2) 0.8770(2) 0.0883(2)
H37 H 0.0939 0.8866 0.0791
H38 H 0.0575 0.8603 0.0763
O31 O 0.2475(2) 0.8855(3) 0.03374(15)
O32 O 0.3189(2) 0.8659(3) 0.03168(17)
O33 O 0.1752(2) 0.7825(3) 0.14732(17)
O34 O 0.1505(2) 0.8302(3) 0.10974(17)
O35 O 0.3070(3) 0.6950(3) 0.1175(2)
O36 O 0.3748(3) 0.8267(3) 0.1289(3)
O37 O 0.4774(4) 0.7565(3) 0.2278(3)
O38 O 0.4158(3) 0.6219(3) 0.2134(3)
O39 O 0.5412(2) 0.6582(2) 0.34951(15)
O40 O 0.5670(2) 0.6970(2) 0.30844(15)
O41 O 0.38689(19) 0.6180(2) 0.34983(15)
O42 O 0.3441(2) 0.6443(2) 0.31186(16)
C57 C 0.26882(19) 0.83773(18) 0.06610(11)
C58 C 0.22817(18) 0.83477(18) 0.07992(11)
H39 H 0.2050 0.8507 0.0721
C59 C 0.22214(15) 0.8079(2) 0.10542(12)
C60 C 0.25677(13) 0.78407(18) 0.11711(10)
H40 H 0.2527 0.7661 0.1342
C61 C 0.29742(14) 0.78702(14) 0.10328(8)
C62 C 0.30344(17) 0.81385(18) 0.07778(10)
H41 H 0.3306 0.8158 0.0685
N5 N 0.33994(13) 0.76630(15) 0.11331(8)
C63 C 0.34011(17) 0.72054(15) 0.11737(10)
C64 C 0.37908(17) 0.70904(17) 0.13291(9)
H42 H 0.3962 0.6917 0.1184
C65 C 0.40299(12) 0.7477(2) 0.13847(10)
H43 H 0.4295 0.7456 0.1261
C66 C 0.37880(13) 0.78309(18) 0.12635(12)
C67 C 0.3807(5) 0.6852(6) 0.1643(3)
H44 H 0.3643 0.6580 0.1636
C68 C 0.3609(5) 0.7171(5) 0.1877(3)
H45 H 0.3362 0.7082 0.1983
C69 C 0.3758(5) 0.7547(5) 0.1936(4)
H46 H 0.3631 0.7741 0.2074
C70 C 0.4185(4) 0.7641(6) 0.1746(3)
H47 H 0.4321 0.7927 0.1768
N6 N 0.45084(19) 0.6832(3) 0.22703(11)
C71 C 0.46170(17) 0.7227(3) 0.21197(13)
C72 C 0.45024(14) 0.7187(2) 0.18028(12)
H48 H 0.4766 0.7214 0.1677
C73 C 0.43229(18) 0.6767(2) 0.17575(11)
H49 H 0.4486 0.6605 0.1601
C74 C 0.4327(2) 0.6548(2) 0.20464(13)
C75 C 0.4198(2) 0.6517(2) 0.30803(17)
C76 C 0.4597(3) 0.65528(19) 0.32291(11)
H50 H 0.4621 0.6482 0.3438
C77 C 0.4960(2) 0.6695(2) 0.30664(18)
C78 C 0.4924(2) 0.6800(2) 0.27548(18)
H51 H 0.5166 0.6895 0.2646
C79 C 0.4525(3) 0.6764(2) 0.26059(11)
C80 C 0.4162(2) 0.6622(2) 0.27687(17)
H52 H 0.3896 0.6598 0.2669
C81 C 0.2797(4) 0.8647(4) 0.0422(2)
C82 C 0.1790(4) 0.8058(5) 0.1212(4)
C83 C 0.5362(4) 0.6759(3) 0.3219(3)
C84 C 0.3790(4) 0.6383(3) 0.3234(3)
Cu9 Cu 0.25201(6) 0.93173(9) 0.0000
Cu12 Cu 0.33560(6) 0.90931(9) 0.0000
Cu13 Cu 0.62315(5) 0.71092(5) 0.32794(3)
Cu16 Cu 0.28908(5) 0.62315(5) 0.32794(3)
Cu17 Cu 0.59383(5) 0.66070(4) 0.37366(3)
Cu20 Cu 0.33930(4) 0.59383(5) 0.37366(3)
O45 O 0.1145(3) 0.2475(2) 0.03374(15)
O47 O 0.1341(3) 0.3189(2) 0.03168(17)
O49 O 0.0412(2) 0.8418(2) 0.15049(15)
O51 O 0.0670(2) 0.8030(2) 0.19156(15)
O54 O 0.1180(2) 0.88689(19) 0.15017(15)
O56 O 0.1443(2) 0.8441(2) 0.18814(16)
H53 H 0.0680416 0.167317 0.0187571
Cu1_2 Cu 0.06827(9) 0.25201(6) 1.0000
Cu2_2 Cu 0.09069(9) 0.33560(6) 1.0000
O1_2 O 0.0577(3) 0.1828(3) 1.0000
H1_2 H 0.0309 0.1894 1.0000
O2_2 O 0.1086(3) 0.4000(3) 1.0000
H2_2 H 0.1022 0.4268 1.0000
Cu9_2 Cu 0.25201(6) 0.93173(9) 1.0000
Cu12_2 Cu 0.33560(6) 0.90931(9) 1.0000
O43 O 0.0455(2) 0.3414(2) 0.96789(16)
O44 O 0.0269(2) 0.2680(2) 0.96731(16)
O46 O 0.1145(3) 0.2475(2) 0.96626(15)
O48 O 0.1341(3) 0.3189(2) 0.96832(17)
H54 H 0.127216 0.399657 0.981243
Cu3 Cu 0.87685(5) 0.21092(5) 0.17206(3)
Cu4 Cu 0.90617(5) 0.16070(4) 0.12634(3)
O3 O 0.8529(2) 0.2499(2) 0.20978(17)
H3 H 0.8350 0.2690 0.2162
H4 H 0.8778 0.2613 0.2077
O4 O 0.9284(2) 0.1230(2) 0.0883(2)
H5 H 0.9061 0.1134 0.0791
H6 H 0.9425 0.1397 0.0763
O7 O 0.9057(2) 0.25858(18) 0.14948(14)
O8 O 0.92713(19) 0.21548(19) 0.10845(14)
O10 O 0.9104(4) 0.4170(4) 0.1330(4)
O11 O 0.7525(2) 0.1145(3) 0.03374(15)
O12 O 0.6811(2) 0.1341(3) 0.03168(17)
O13 O 0.8248(2) 0.2175(3) 0.14732(17)
O14 O 0.8495(2) 0.1698(3) 0.10974(17)
O15 O 0.6930(3) 0.3050(3) 0.1175(2)
O16 O 0.6252(3) 0.1733(3) 0.1289(3)
O17 O 0.5226(4) 0.2435(3) 0.2278(3)
O18 O 0.5842(3) 0.3781(3) 0.2134(3)
O19 O 0.4588(2) 0.3418(2) 0.34951(15)
O20 O 0.4330(2) 0.3030(2) 0.30844(15)
O21 O 0.61311(19) 0.3820(2) 0.34983(15)
O22 O 0.6559(2) 0.3557(2) 0.31186(16)
C1 C 0.9984(2) 0.3153(3) 0.07308(14)
C2 C 0.9731(3) 0.2817(2) 0.08467(18)
H7 H 0.9717 0.2554 0.0741
C3 C 0.9500(2) 0.2873(3) 0.11199(19)
C4 C 0.9522(2) 0.3266(3) 0.12773(14)
H8 H 0.9367 0.3304 0.1460
C5 C 0.9775(3) 0.3603(2) 0.1161(2)
N1 N 0.9814(5) 0.4001(4) 0.1317(3)
C9 C 0.9678(4) 0.4644(4) 0.1580(3)
H11 H 0.9512 0.4611 0.1772
C10 C 0.9435(6) 0.4253(6) 0.1397(4)
C11 C 0.9523(4) 0.5049(4) 0.1396(3)
H12 H 0.9216 0.5134 0.1395
C12 C 0.9764(3) 0.5033(4) 0.1059(3)
H13 H 0.9616 0.5059 0.0872
C14 C 0.9258(3) 0.2508(4) 0.1245(3)
C15 C 0.73118(19) 0.16227(18) 0.06610(11)
C16 C 0.77183(18) 0.16523(18) 0.07992(11)
H14 H 0.7950 0.1493 0.0721
C17 C 0.77786(15) 0.1921(2) 0.10542(12)
C18 C 0.74323(13) 0.21593(18) 0.11711(10)
H15 H 0.7473 0.2339 0.1342
C19 C 0.70258(14) 0.21298(14) 0.10328(8)
C20 C 0.69656(17) 0.18615(18) 0.07778(10)
H16 H 0.6694 0.1842 0.0685
N2 N 0.66006(13) 0.23370(15) 0.11331(8)
C21 C 0.65989(17) 0.27946(15) 0.11737(10)
C22 C 0.62092(17) 0.29096(17) 0.13291(9)
H17 H 0.6038 0.3083 0.1184
C23 C 0.59701(12) 0.2523(2) 0.13847(10)
H18 H 0.5705 0.2544 0.1261
C24 C 0.62120(13) 0.21691(18) 0.12635(12)
C25 C 0.6193(5) 0.3148(6) 0.1643(3)
H19 H 0.6357 0.3420 0.1636
C26 C 0.6391(5) 0.2829(5) 0.1877(3)
H20 H 0.6638 0.2918 0.1983
C27 C 0.6242(5) 0.2453(5) 0.1936(4)
H21 H 0.6369 0.2259 0.2074
C28 C 0.5815(4) 0.2359(6) 0.1746(3)
H22 H 0.5679 0.2073 0.1768
N3 N 0.54916(19) 0.3168(3) 0.22703(11)
C29 C 0.53830(17) 0.2773(3) 0.21197(13)
C30 C 0.54976(14) 0.2813(2) 0.18028(12)
H23 H 0.5234 0.2786 0.1677
C31 C 0.56771(18) 0.3233(2) 0.17575(11)
H24 H 0.5514 0.3395 0.1601
C32 C 0.5673(2) 0.3452(2) 0.20464(13)
C33 C 0.5802(2) 0.3483(2) 0.30803(17)
C34 C 0.5403(3) 0.34472(19) 0.32291(11)
H25 H 0.5379 0.3518 0.3438
C35 C 0.5040(2) 0.3305(2) 0.30664(18)
C36 C 0.5076(2) 0.3200(2) 0.27548(18)
H26 H 0.4834 0.3105 0.2646
C37 C 0.5475(3) 0.3236(2) 0.26059(11)
C38 C 0.5838(2) 0.3378(2) 0.27687(17)
H27 H 0.6104 0.3402 0.2669
C39 C 0.7203(4) 0.1353(4) 0.0422(2)
C40 C 0.8210(4) 0.1942(5) 0.1212(4)
C41 C 0.4638(4) 0.3241(3) 0.3219(3)
C42 C 0.6210(4) 0.3617(3) 0.3234(3)
O23 O 0.9545(2) 0.6586(2) 0.03211(16)
O24 O 0.9731(2) 0.7320(2) 0.03269(16)
O27 O 0.9437(3) 0.6049(3) 0.1370(3)
C48 C 0.9994(2) 0.6454(2) 0.0888(2)
H30 H 0.9825 0.6228 0.0811
C49 C 0.9794(7) 0.5864(6) 0.1413(4)
C50 C 0.9819(5) 0.5419(4) 0.1602(3)
H31 H 0.9774 0.5433 0.1826
C55 C 0.9741(4) 0.6928(4) 0.0431(3)
Cu7 Cu 0.93173(9) 0.74799(6) 0.0000
Cu8 Cu 0.74799(6) 0.06827(9) 0.0000
Cu10 Cu 0.90931(9) 0.66440(6) 0.0000
Cu11 Cu 0.66440(6) 0.09069(9) 0.0000
Cu14 Cu 0.37685(5) 0.28908(5) 0.32794(3)
Cu15 Cu 0.71092(5) 0.37685(5) 0.32794(3)
Cu18 Cu 0.40617(5) 0.33930(4) 0.37366(3)
Cu19 Cu 0.66070(4) 0.40617(5) 0.37366(3)
O50 O 0.9588(2) 0.1582(2) 0.15049(15)
O52 O 0.9330(2) 0.1970(2) 0.19156(15)
O53 O 0.8820(2) 0.11311(19) 0.15017(15)
O55 O 0.8557(2) 0.1559(2) 0.18814(16)
Cu7_2 Cu 0.93173(9) 0.74799(6) 1.0000
Cu8_2 Cu 0.74799(6) 0.06827(9) 1.0000
Cu10_2 Cu 0.90931(9) 0.66440(6) 1.0000
Cu11_2 Cu 0.66440(6) 0.09069(9) 1.0000
O1_3 O 0.9423(3) 0.8172(3) 0.0000
H1_3 H 0.9691 0.8106 0.0000
O2_3 O 0.8914(3) 0.6000(3) 0.0000
H2_3 H 0.8978 0.5732 0.0000
O45_2 O 0.8855(3) 0.7525(2) 0.03374(15)
O47_2 O 0.8659(3) 0.6811(2) 0.03168(17)
H53_2 H 0.931958 0.832683 0.0187571
O1_4 O 0.9423(3) 0.8172(3) 1.0000
H1_4 H 0.9691 0.8106 1.0000
O2_4 O 0.8914(3) 0.6000(3) 1.0000
H2_4 H 0.8978 0.5732 1.0000
O43_2 O 0.9545(2) 0.6586(2) 0.96789(16)
O44_2 O 0.9731(2) 0.7320(2) 0.96731(16)
O46_2 O 0.8855(3) 0.7525(2) 0.96626(15)
O48_2 O 0.8659(3) 0.6811(2) 0.96832(17)
H54_2 H 0.872784 0.600343 0.981243
O1_5 O 0.8172(3) 0.0577(3) 0.0000
H1_5 H 0.8106 0.0309 0.0000
O2_5 O 0.6000(3) 0.1086(3) 0.0000
H2_5 H 0.5732 0.1022 0.0000
O5_2 O 0.6586(2) 0.0455(2) 0.03211(16)
O6_2 O 0.7320(2) 0.0269(2) 0.03269(16)
O9_2 O 0.6049(3) 0.0563(3) 0.1370(3)
C6_2 C 0.6454(2) 0.0006(2) 0.0888(2)
H9_2 H 0.6228 0.0175 0.0811
C7_2 C 0.5864(6) 0.0206(7) 0.1413(4)
C8_2 C 0.5419(4) 0.0181(5) 0.1602(3)
H10_2 H 0.5433 0.0226 0.1826
C13_2 C 0.6928(4) 0.0259(4) 0.0431(3)
O25_2 O 0.25858(18) 0.0943(2) 0.14948(14)
O26_2 O 0.21548(19) 0.07287(19) 0.10845(14)
O28_2 O 0.4170(4) 0.0896(4) 0.1330(4)
C43_2 C 0.3153(3) 0.0016(2) 0.07308(14)
C44_2 C 0.2817(2) 0.0269(3) 0.08467(18)
H28_2 H 0.2554 0.0283 0.0741
C45_2 C 0.2873(3) 0.0500(2) 0.11199(19)
C46_2 C 0.3266(3) 0.0478(2) 0.12773(14)
H29_2 H 0.3304 0.0633 0.1460
C47_2 C 0.3603(2) 0.0225(3) 0.1161(2)
N4_2 N 0.4001(4) 0.0186(5) 0.1317(3)
C51_2 C 0.4644(4) 0.0322(4) 0.1580(3)
H32_2 H 0.4611 0.0488 0.1772
C52_2 C 0.4253(6) 0.0565(6) 0.1397(4)
C53_2 C 0.5049(4) 0.0477(4) 0.1396(3)
H33_2 H 0.5134 0.0784 0.1395
C54_2 C 0.5033(4) 0.0236(3) 0.1059(3)
H34_2 H 0.5059 0.0384 0.0872
C56_2 C 0.2508(4) 0.0742(3) 0.1245(3)
Cu5_2 Cu 0.21092(5) 0.12315(5) 0.17206(3)
Cu6_2 Cu 0.16070(4) 0.09383(5) 0.12634(3)
O29_2 O 0.2499(2) 0.1471(2) 0.20978(17)
H35_2 H 0.2690 0.1650 0.2162
H36_2 H 0.2613 0.1222 0.2077
O30_2 O 0.1230(2) 0.0716(2) 0.0883(2)
H37_2 H 0.1134 0.0939 0.0791
H38_2 H 0.1397 0.0575 0.0763
O33_2 O 0.2175(3) 0.1752(2) 0.14732(17)
O34_2 O 0.1698(3) 0.1505(2) 0.10974(17)
O35_2 O 0.3050(3) 0.3070(3) 0.1175(2)
O36_2 O 0.1733(3) 0.3748(3) 0.1289(3)
O37_2 O 0.2435(3) 0.4774(4) 0.2278(3)
O38_2 O 0.3781(3) 0.4158(3) 0.2134(3)
O39_2 O 0.3418(2) 0.5412(2) 0.34951(15)
O40_2 O 0.3030(2) 0.5670(2) 0.30844(15)
O41_2 O 0.3820(2) 0.38689(19) 0.34983(15)
O42_2 O 0.3557(2) 0.3441(2) 0.31186(16)
C57_2 C 0.16227(18) 0.26882(19) 0.06610(11)
C58_2 C 0.16523(18) 0.22817(18) 0.07992(11)
H39_2 H 0.1493 0.2050 0.0721
C59_2 C 0.1921(2) 0.22214(15) 0.10542(12)
C60_2 C 0.21593(18) 0.25677(13) 0.11711(10)
H40_2 H 0.2339 0.2527 0.1342
C61_2 C 0.21298(14) 0.29742(14) 0.10328(8)
C62_2 C 0.18615(18) 0.30344(17) 0.07778(10)
H41_2 H 0.1842 0.3306 0.0685
N5_2 N 0.23370(15) 0.33994(13) 0.11331(8)
C63_2 C 0.27946(15) 0.34011(17) 0.11737(10)
C64_2 C 0.29096(17) 0.37908(17) 0.13291(9)
H42_2 H 0.3083 0.3962 0.1184
C65_2 C 0.2523(2) 0.40299(12) 0.13847(10)
H43_2 H 0.2544 0.4295 0.1261
C66_2 C 0.21691(18) 0.37880(13) 0.12635(12)
C67_2 C 0.3148(6) 0.3807(5) 0.1643(3)
H44_2 H 0.3420 0.3643 0.1636
C68_2 C 0.2829(5) 0.3609(5) 0.1877(3)
H45_2 H 0.2918 0.3362 0.1983
C69_2 C 0.2453(5) 0.3758(5) 0.1936(4)
H46_2 H 0.2259 0.3631 0.2074
C70_2 C 0.2359(6) 0.4185(4) 0.1746(3)
H47_2 H 0.2073 0.4321 0.1768
N6_2 N 0.3168(3) 0.45084(19) 0.22703(11)
C71_2 C 0.2773(3) 0.46170(17) 0.21197(13)
C72_2 C 0.2813(2) 0.45024(14) 0.18028(12)
H48_2 H 0.2786 0.4766 0.1677
C73_2 C 0.3233(2) 0.43229(18) 0.17575(11)
H49_2 H 0.3395 0.4486 0.1601
C74_2 C 0.3452(2) 0.4327(2) 0.20464(13)
C75_2 C 0.3483(2) 0.4198(2) 0.30803(17)
C76_2 C 0.34472(19) 0.4597(3) 0.32291(11)
H50_2 H 0.3518 0.4621 0.3438
C77_2 C 0.3305(2) 0.4960(2) 0.30664(18)
C78_2 C 0.3200(2) 0.4924(2) 0.27548(18)
H51_2 H 0.3105 0.5166 0.2646
C79_2 C 0.3236(2) 0.4525(3) 0.26059(11)
C80_2 C 0.3378(2) 0.4162(2) 0.27687(17)
H52_2 H 0.3402 0.3896 0.2669
C81_2 C 0.1353(4) 0.2797(4) 0.0422(2)
C82_2 C 0.1942(5) 0.1790(4) 0.1212(4)
C83_2 C 0.3241(3) 0.5362(4) 0.3219(3)
C84_2 C 0.3617(3) 0.3790(4) 0.3234(3)
O49_2 O 0.1582(2) 0.0412(2) 0.15049(15)
O51_2 O 0.1970(2) 0.0670(2) 0.19156(15)
O54_2 O 0.11311(19) 0.1180(2) 0.15017(15)
O56_2 O 0.1559(2) 0.1443(2) 0.18814(16)
H53_3 H 0.832683 0.0680416 0.0187571
O1_6 O 0.8172(3) 0.0577(3) 1.0000
H1_6 H 0.8106 0.0309 1.0000
O2_6 O 0.6000(3) 0.1086(3) 1.0000
H2_6 H 0.5732 0.1022 1.0000
O43_3 O 0.6586(2) 0.0455(2) 0.96789(16)
O44_3 O 0.7320(2) 0.0269(2) 0.96731(16)
O46_3 O 0.7525(2) 0.1145(3) 0.96626(15)
O48_3 O 0.6811(2) 0.1341(3) 0.96832(17)
H54_3 H 0.600343 0.127216 0.981243
Cu3_2 Cu 0.78908(5) 0.87685(5) 0.17206(3)
Cu4_2 Cu 0.83930(4) 0.90617(5) 0.12634(3)
O3_2 O 0.7501(2) 0.8529(2) 0.20978(17)
H3_2 H 0.7310 0.8350 0.2162
H4_2 H 0.7387 0.8778 0.2077
O4_2 O 0.8770(2) 0.9284(2) 0.0883(2)
H5_2 H 0.8866 0.9061 0.0791
H6_2 H 0.8603 0.9425 0.0763
O7_2 O 0.74142(18) 0.9057(2) 0.14948(14)
O8_2 O 0.78452(19) 0.92713(19) 0.10845(14)
O10_2 O 0.5830(4) 0.9104(4) 0.1330(4)
O13_2 O 0.7825(3) 0.8248(2) 0.14732(17)
O14_2 O 0.8302(3) 0.8495(2) 0.10974(17)
O15_2 O 0.6950(3) 0.6930(3) 0.1175(2)
O16_2 O 0.8267(3) 0.6252(3) 0.1289(3)
O17_2 O 0.7565(3) 0.5226(4) 0.2278(3)
O18_2 O 0.6219(3) 0.5842(3) 0.2134(3)
O19_2 O 0.6582(2) 0.4588(2) 0.34951(15)
O20_2 O 0.6970(2) 0.4330(2) 0.30844(15)
O21_2 O 0.6180(2) 0.61311(19) 0.34983(15)
O22_2 O 0.6443(2) 0.6559(2) 0.31186(16)
C1_2 C 0.6847(3) 0.9984(2) 0.07308(14)
C2_2 C 0.7183(2) 0.9731(3) 0.08467(18)
H7_2 H 0.7446 0.9717 0.0741
C3_2 C 0.7127(3) 0.9500(2) 0.11199(19)
C4_2 C 0.6734(3) 0.9522(2) 0.12773(14)
H8_2 H 0.6696 0.9367 0.1460
C5_2 C 0.6397(2) 0.9775(3) 0.1161(2)
N1_2 N 0.5999(4) 0.9814(5) 0.1317(3)
C9_2 C 0.5356(4) 0.9678(4) 0.1580(3)
H11_2 H 0.5389 0.9512 0.1772
C10_2 C 0.5747(6) 0.9435(6) 0.1397(4)
C11_2 C 0.4951(4) 0.9523(4) 0.1396(3)
H12_2 H 0.4866 0.9216 0.1395
C12_2 C 0.4967(4) 0.9764(3) 0.1059(3)
H13_2 H 0.4941 0.9616 0.0872
C14_2 C 0.7492(4) 0.9258(3) 0.1245(3)
C15_2 C 0.83773(18) 0.73118(19) 0.06610(11)
C16_2 C 0.83477(18) 0.77183(18) 0.07992(11)
H14_2 H 0.8507 0.7950 0.0721
C17_2 C 0.8079(2) 0.77786(15) 0.10542(12)
C18_2 C 0.78407(18) 0.74323(13) 0.11711(10)
H15_2 H 0.7661 0.7473 0.1342
C19_2 C 0.78702(14) 0.70258(14) 0.10328(8)
C20_2 C 0.81385(18) 0.69656(17) 0.07778(10)
H16_2 H 0.8158 0.6694 0.0685
N2_2 N 0.76630(15) 0.66006(13) 0.11331(8)
C21_2 C 0.72054(15) 0.65989(17) 0.11737(10)
C22_2 C 0.70904(17) 0.62092(17) 0.13291(9)
H17_2 H 0.6917 0.6038 0.1184
C23_2 C 0.7477(2) 0.59701(12) 0.13847(10)
H18_2 H 0.7456 0.5705 0.1261
C24_2 C 0.78309(18) 0.62120(13) 0.12635(12)
C25_2 C 0.6852(6) 0.6193(5) 0.1643(3)
H19_2 H 0.6580 0.6357 0.1636
C26_2 C 0.7171(5) 0.6391(5) 0.1877(3)
H20_2 H 0.7082 0.6638 0.1983
C27_2 C 0.7547(5) 0.6242(5) 0.1936(4)
H21_2 H 0.7741 0.6369 0.2074
C28_2 C 0.7641(6) 0.5815(4) 0.1746(3)
H22_2 H 0.7927 0.5679 0.1768
N3_2 N 0.6832(3) 0.54916(19) 0.22703(11)
C29_2 C 0.7227(3) 0.53830(17) 0.21197(13)
C30_2 C 0.7187(2) 0.54976(14) 0.18028(12)
H23_2 H 0.7214 0.5234 0.1677
C31_2 C 0.6767(2) 0.56771(18) 0.17575(11)
H24_2 H 0.6605 0.5514 0.1601
C32_2 C 0.6548(2) 0.5673(2) 0.20464(13)
C33_2 C 0.6517(2) 0.5802(2) 0.30803(17)
C34_2 C 0.65528(19) 0.5403(3) 0.32291(11)
H25_2 H 0.6482 0.5379 0.3438
C35_2 C 0.6695(2) 0.5040(2) 0.30664(18)
C36_2 C 0.6800(2) 0.5076(2) 0.27548(18)
H26_2 H 0.6895 0.4834 0.2646
C37_2 C 0.6764(2) 0.5475(3) 0.26059(11)
C38_2 C 0.6622(2) 0.5838(2) 0.27687(17)
H27_2 H 0.6598 0.6104 0.2669
C39_2 C 0.8647(4) 0.7203(4) 0.0422(2)
C40_2 C 0.8058(5) 0.8210(4) 0.1212(4)
C41_2 C 0.6759(3) 0.4638(4) 0.3219(3)
C42_2 C 0.6383(3) 0.6210(4) 0.3234(3)
O23_2 O 0.3414(2) 0.9545(2) 0.03211(16)
O24_2 O 0.2680(2) 0.9731(2) 0.03269(16)
O27_2 O 0.3951(3) 0.9437(3) 0.1370(3)
C48_2 C 0.3546(2) 0.9994(2) 0.0888(2)
H30_2 H 0.3772 0.9825 0.0811
C49_2 C 0.4136(6) 0.9794(7) 0.1413(4)
C50_2 C 0.4581(4) 0.9819(5) 0.1602(3)
H31_2 H 0.4567 0.9774 0.1826
C55_2 C 0.3072(4) 0.9741(4) 0.0431(3)
O50_2 O 0.8418(2) 0.9588(2) 0.15049(15)
O52_2 O 0.8030(2) 0.9330(2) 0.19156(15)
O53_2 O 0.88689(19) 0.8820(2) 0.15017(15)
O55_2 O 0.8441(2) 0.8557(2) 0.18814(16)
O1_7 O 0.1828(3) 0.9423(3) 0.0000
H1_7 H 0.1894 0.9691 0.0000
O2_7 O 0.4000(3) 0.8914(3) 0.0000
H2_7 H 0.4268 0.8978 0.0000
H53_4 H 0.167317 0.931958 0.0187571
O1_8 O 0.1828(3) 0.9423(3) 1.0000
H1_8 H 0.1894 0.9691 1.0000
O2_8 O 0.4000(3) 0.8914(3) 1.0000
H2_8 H 0.4268 0.8978 1.0000
O43_4 O 0.3414(2) 0.9545(2) 0.96789(16)
O44_4 O 0.2680(2) 0.9731(2) 0.96731(16)
O46_4 O 0.2475(2) 0.8855(3) 0.96626(15)
O48_4 O 0.3189(2) 0.8659(3) 0.96832(17)
H54_4 H 0.399657 0.872784 0.981243
H26_3 H 0.0166 0.8105 0.2354
C41_3 C 0.0362(4) 0.8241(3) 0.1781(3)
C11_3 C 0.5477(4) 0.0049(4) 0.3604(3)
H12_3 H 0.5784 0.0134 0.3605
C12_3 C 0.5236(3) 0.0033(4) 0.3941(3)
H13_3 H 0.5384 0.0059 0.4128
O23_3 O 0.5455(2) 0.1586(2) 0.46789(16)
O24_3 O 0.5269(2) 0.2320(2) 0.46731(16)
O25_3 O 0.4057(2) 0.24142(18) 0.35052(14)
O26_3 O 0.42713(19) 0.28452(19) 0.39155(14)
O27_3 O 0.5563(3) 0.1049(3) 0.3630(3)
O28_3 O 0.4104(4) 0.0830(4) 0.3670(4)
C43_3 C 0.4984(2) 0.1847(3) 0.42692(14)
C44_3 C 0.4731(3) 0.2183(2) 0.41533(18)
H28_3 H 0.4717 0.2446 0.4259
C45_3 C 0.4500(2) 0.2127(3) 0.38801(19)
C46_3 C 0.4522(2) 0.1734(3) 0.37227(14)
H29_3 H 0.4367 0.1696 0.3540
C47_3 C 0.4775(3) 0.1397(2) 0.3839(2)
C48_3 C 0.5006(2) 0.1454(2) 0.4112(2)
H30_3 H 0.5175 0.1228 0.4189
N4_3 N 0.4814(5) 0.0999(4) 0.3683(3)
C49_3 C 0.5206(7) 0.0864(6) 0.3587(4)
C50_3 C 0.5181(5) 0.0419(4) 0.3398(3)
H31_3 H 0.5226 0.0433 0.3174
C51_3 C 0.4678(4) 0.0356(4) 0.3420(3)
H32_3 H 0.4512 0.0389 0.3228
C52_3 C 0.4435(6) 0.0747(6) 0.3603(4)
C55_3 C 0.5259(4) 0.1928(4) 0.4569(3)
C56_3 C 0.4258(3) 0.2492(4) 0.3755(3)
O29_3 O 0.3529(2) 0.2501(2) 0.29022(17)
H35_3 H 0.3350 0.2310 0.2838
H36_3 H 0.3778 0.2387 0.2923
O30_3 O 0.4284(2) 0.3770(2) 0.4117(2)
H37_3 H 0.4061 0.3866 0.4209
H38_3 H 0.4425 0.3603 0.4237
O31_2 O 0.2525(2) 0.3855(3) 0.46626(15)
O32_2 O 0.1811(2) 0.3659(3) 0.46832(17)
O33_3 O 0.3248(2) 0.2825(3) 0.35268(17)
O34_3 O 0.3495(2) 0.3302(3) 0.39026(17)
O35_3 O 0.1930(3) 0.1950(3) 0.3825(2)
O36_3 O 0.1252(3) 0.3267(3) 0.3711(3)
O37_3 O 0.0226(4) 0.2565(3) 0.2722(3)
O38_3 O 0.0842(3) 0.1219(3) 0.2866(3)
C57_3 C 0.23118(19) 0.33773(18) 0.43390(11)
C58_3 C 0.27183(18) 0.33477(18) 0.42008(11)
H39_3 H 0.2950 0.3507 0.4279
C59_3 C 0.27786(15) 0.3079(2) 0.39458(12)
C60_3 C 0.24323(13) 0.28407(18) 0.38289(10)
H40_3 H 0.2473 0.2661 0.3658
C61_3 C 0.20258(14) 0.28702(14) 0.39672(8)
C62_3 C 0.19656(17) 0.31385(18) 0.42222(10)
H41_3 H 0.1694 0.3158 0.4315
N5_3 N 0.16006(13) 0.26630(15) 0.38669(8)
C63_3 C 0.15989(17) 0.22054(15) 0.38263(10)
C64_3 C 0.12092(17) 0.20904(17) 0.36709(9)
H42_3 H 0.1038 0.1917 0.3816
C65_3 C 0.09701(12) 0.2477(2) 0.36153(10)
H43_3 H 0.0705 0.2456 0.3739
C66_3 C 0.12120(13) 0.28309(18) 0.37365(12)
C67_3 C 0.1193(5) 0.1852(6) 0.3357(3)
H44_3 H 0.1357 0.1580 0.3364
C68_3 C 0.1391(5) 0.2171(5) 0.3123(3)
H45_3 H 0.1638 0.2082 0.3017
C69_3 C 0.1242(5) 0.2547(5) 0.3064(4)
H46_3 H 0.1369 0.2741 0.2926
C70_3 C 0.0815(4) 0.2641(6) 0.3254(3)
H47_3 H 0.0679 0.2927 0.3232
N6_3 N 0.04916(19) 0.1832(3) 0.27297(11)
C71_3 C 0.03830(17) 0.2227(3) 0.28803(13)
C72_3 C 0.04976(14) 0.2187(2) 0.31972(12)
H48_3 H 0.0234 0.2214 0.3323
C73_3 C 0.06771(18) 0.1767(2) 0.32425(11)
H49_3 H 0.0514 0.1605 0.3399
C74_3 C 0.0673(2) 0.1548(2) 0.29536(13)
C75_3 C 0.0802(2) 0.1517(2) 0.19197(17)
C76_3 C 0.0403(3) 0.15528(19) 0.17709(11)
H50_3 H 0.0379 0.1482 0.1562
C77_3 C 0.0040(2) 0.1695(2) 0.19336(18)
C78_3 C 0.0076(2) 0.1800(2) 0.22452(18)
C79_3 C 0.0475(3) 0.1764(2) 0.23941(11)
C80_3 C 0.0838(2) 0.1622(2) 0.22313(17)
H52_3 H 0.1104 0.1598 0.2331
C81_3 C 0.2203(4) 0.3647(4) 0.4578(2)
C82_3 C 0.3210(4) 0.3058(5) 0.3788(4)
C84_3 C 0.1210(4) 0.1383(3) 0.1766(3)
Cu7_3 Cu 0.56827(9) 0.24799(6) 0.5000
Cu9_3 Cu 0.24799(6) 0.43173(9) 0.5000
Cu10_3 Cu 0.59069(9) 0.16440(6) 0.5000
Cu12_3 Cu 0.16440(6) 0.40931(9) 0.5000
Cu1_3 Cu 0.43173(9) 0.75201(6) 0.5000
Cu2_3 Cu 0.40931(9) 0.83560(6) 0.5000
O1_9 O 0.4423(3) 0.6828(3) 0.5000
O2_9 O 0.3914(3) 0.9000(3) 0.5000
O3_3 O 0.6471(2) 0.7499(2) 0.29022(17)
H3_3 H 0.6650 0.7690 0.2838
H4_3 H 0.6222 0.7613 0.2923
O4_3 O 0.5716(2) 0.6230(2) 0.4117(2)
H5_3 H 0.5939 0.6134 0.4209
H6_3 H 0.5575 0.6397 0.4237
O5_3 O 0.4545(2) 0.8414(2) 0.46789(16)
O6_3 O 0.4731(2) 0.7680(2) 0.46731(16)
O7_3 O 0.5943(2) 0.75858(18) 0.35052(14)
O8_3 O 0.57287(19) 0.71548(19) 0.39155(14)
O9_3 O 0.4437(3) 0.8951(3) 0.3630(3)
O10_3 O 0.5896(4) 0.9170(4) 0.3670(4)
O11_2 O 0.7475(2) 0.6145(3) 0.46626(15)
O12_2 O 0.8189(2) 0.6341(3) 0.46832(17)
O13_3 O 0.6752(2) 0.7175(3) 0.35268(17)
O14_3 O 0.6505(2) 0.6698(3) 0.39026(17)
O15_3 O 0.8070(3) 0.8050(3) 0.3825(2)
O16_3 O 0.8748(3) 0.6733(3) 0.3711(3)
O17_3 O 0.9774(4) 0.7435(3) 0.2722(3)
O18_3 O 0.9158(3) 0.8781(3) 0.2866(3)
C1_3 C 0.5016(2) 0.8153(3) 0.42692(14)
C2_3 C 0.5269(3) 0.7817(2) 0.41533(18)
H7_3 H 0.5283 0.7554 0.4259
C3_3 C 0.5500(2) 0.7873(3) 0.38801(19)
C4_3 C 0.5478(2) 0.8266(3) 0.37227(14)
H8_3 H 0.5633 0.8304 0.3540
C5_3 C 0.5225(3) 0.8603(2) 0.3839(2)
C6_3 C 0.4994(2) 0.8546(2) 0.4112(2)
H9_3 H 0.4825 0.8772 0.4189
N1_3 N 0.5186(5) 0.9001(4) 0.3683(3)
C7_3 C 0.4794(7) 0.9136(6) 0.3587(4)
C8_3 C 0.4819(5) 0.9581(4) 0.3398(3)
H10_3 H 0.4774 0.9567 0.3174
C9_3 C 0.5322(4) 0.9644(4) 0.3420(3)
H11_3 H 0.5488 0.9611 0.3228
C10_3 C 0.5565(6) 0.9253(6) 0.3603(4)
C13_3 C 0.4741(4) 0.8072(4) 0.4569(3)
C14_3 C 0.5742(3) 0.7508(4) 0.3755(3)
C15_3 C 0.76882(19) 0.66227(18) 0.43390(11)
C16_3 C 0.72817(18) 0.66523(18) 0.42008(11)
H14_3 H 0.7050 0.6493 0.4279
C17_3 C 0.72214(15) 0.6921(2) 0.39458(12)
C18_3 C 0.75677(13) 0.71593(18) 0.38289(10)
H15_3 H 0.7527 0.7339 0.3658
C19_3 C 0.79742(14) 0.71298(14) 0.39672(8)
C20_3 C 0.80344(17) 0.68615(18) 0.42222(10)
H16_3 H 0.8306 0.6842 0.4315
N2_3 N 0.83994(13) 0.73370(15) 0.38669(8)
C21_3 C 0.84011(17) 0.77946(15) 0.38263(10)
C22_3 C 0.87908(17) 0.79096(17) 0.36709(9)
H17_3 H 0.8962 0.8083 0.3816
C23_3 C 0.90299(12) 0.7523(2) 0.36153(10)
H18_3 H 0.9295 0.7544 0.3739
C24_3 C 0.87880(13) 0.71691(18) 0.37365(12)
C25_3 C 0.8807(5) 0.8148(6) 0.3357(3)
H19_3 H 0.8643 0.8420 0.3364
C26_3 C 0.8609(5) 0.7829(5) 0.3123(3)
H20_3 H 0.8362 0.7918 0.3017
C27_3 C 0.8758(5) 0.7453(5) 0.3064(4)
H21_3 H 0.8631 0.7259 0.2926
C28_3 C 0.9185(4) 0.7359(6) 0.3254(3)
H22_3 H 0.9321 0.7073 0.3232
N3_3 N 0.95084(19) 0.8168(3) 0.27297(11)
C29_3 C 0.96170(17) 0.7773(3) 0.28803(13)
C30_3 C 0.95024(14) 0.7813(2) 0.31972(12)
H23_3 H 0.9766 0.7786 0.3323
C31_3 C 0.93229(18) 0.8233(2) 0.32425(11)
H24_3 H 0.9486 0.8395 0.3399
C32_3 C 0.9327(2) 0.8452(2) 0.29536(13)
C33_3 C 0.9198(2) 0.8483(2) 0.19197(17)
C34_3 C 0.9597(3) 0.84472(19) 0.17709(11)
H25_3 H 0.9621 0.8518 0.1562
C35_3 C 0.9960(2) 0.8305(2) 0.19336(18)
C36_3 C 0.9924(2) 0.8200(2) 0.22452(18)
C37_3 C 0.9525(3) 0.8236(2) 0.23941(11)
C38_3 C 0.9162(2) 0.8378(2) 0.22313(17)
H27_3 H 0.8896 0.8402 0.2331
C39_3 C 0.7797(4) 0.6353(4) 0.4578(2)
C40_3 C 0.6790(4) 0.6942(5) 0.3788(4)
C42_3 C 0.8790(4) 0.8617(3) 0.1766(3)
C53_3 C 0.4523(4) 0.9951(4) 0.3604(3)
H33_3 H 0.4216 0.9866 0.3605
C54_3 C 0.4764(3) 0.9967(4) 0.3941(3)
H34_3 H 0.4616 0.9941 0.4128
Cu8_3 Cu 0.75201(6) 0.56827(9) 0.5000
Cu11_3 Cu 0.83560(6) 0.59069(9) 0.5000
O43_5 O 0.4545(2) 0.8414(2) 0.53211(16)
O44_5 O 0.4731(2) 0.7680(2) 0.53269(16)
O45_3 O 0.3855(3) 0.7475(2) 0.46626(15)
O46_5 O 0.3855(3) 0.7475(2) 0.53374(15)
O47_3 O 0.3659(3) 0.8189(2) 0.46832(17)
O48_5 O 0.3659(3) 0.8189(2) 0.53168(17)
H51_3 H 0.9834 0.1895 0.2354
C83_3 C 0.9638(4) 0.1759(3) 0.1781(3)
O1_10 O 0.5577(3) 0.3172(3) 0.5000
O2_10 O 0.6086(3) 0.1000(3) 0.5000
O43_6 O 0.5455(2) 0.1586(2) 0.53211(16)
O44_6 O 0.5269(2) 0.2320(2) 0.53269(16)
O45_4 O 0.6145(3) 0.2525(2) 0.46626(15)
O46_6 O 0.6145(3) 0.2525(2) 0.53374(15)
O47_4 O 0.6341(3) 0.1811(2) 0.46832(17)
O48_6 O 0.6341(3) 0.1811(2) 0.53168(17)
H51_4 H 0.1895 0.0166 0.2354
C83_4 C 0.1759(3) 0.0362(4) 0.1781(3)
C11_4 C 0.0049(4) 0.4523(4) 0.3604(3)
H12_4 H 0.0134 0.4216 0.3605
C12_4 C 0.0033(4) 0.4764(3) 0.3941(3)
H13_4 H 0.0059 0.4616 0.4128
O23_4 O 0.1586(2) 0.4545(2) 0.46789(16)
O24_4 O 0.2320(2) 0.4731(2) 0.46731(16)
O25_4 O 0.24142(18) 0.5943(2) 0.35052(14)
O26_4 O 0.28452(19) 0.57287(19) 0.39155(14)
O27_4 O 0.1049(3) 0.4437(3) 0.3630(3)
O28_4 O 0.0830(4) 0.5896(4) 0.3670(4)
C43_4 C 0.1847(3) 0.5016(2) 0.42692(14)
C44_4 C 0.2183(2) 0.5269(3) 0.41533(18)
H28_4 H 0.2446 0.5283 0.4259
C45_4 C 0.2127(3) 0.5500(2) 0.38801(19)
C46_4 C 0.1734(3) 0.5478(2) 0.37227(14)
H29_4 H 0.1696 0.5633 0.3540
C47_4 C 0.1397(2) 0.5225(3) 0.3839(2)
C48_4 C 0.1454(2) 0.4994(2) 0.4112(2)
H30_4 H 0.1228 0.4825 0.4189
N4_4 N 0.0999(4) 0.5186(5) 0.3683(3)
C49_4 C 0.0864(6) 0.4794(7) 0.3587(4)
C50_4 C 0.0419(4) 0.4819(5) 0.3398(3)
H31_4 H 0.0433 0.4774 0.3174
C51_4 C 0.0356(4) 0.5322(4) 0.3420(3)
H32_4 H 0.0389 0.5488 0.3228
C52_4 C 0.0747(6) 0.5565(6) 0.3603(4)
C55_4 C 0.1928(4) 0.4741(4) 0.4569(3)
C56_4 C 0.2492(4) 0.5742(3) 0.3755(3)
O29_4 O 0.2501(2) 0.6471(2) 0.29022(17)
H35_4 H 0.2310 0.6650 0.2838
H36_4 H 0.2387 0.6222 0.2923
O30_4 O 0.3770(2) 0.5716(2) 0.4117(2)
H37_4 H 0.3866 0.5939 0.4209
H38_4 H 0.3603 0.5575 0.4237
O33_4 O 0.2825(3) 0.6752(2) 0.35268(17)
O34_4 O 0.3302(3) 0.6505(2) 0.39026(17)
O35_4 O 0.1950(3) 0.8070(3) 0.3825(2)
O36_4 O 0.3267(3) 0.8748(3) 0.3711(3)
O37_4 O 0.2565(3) 0.9774(4) 0.2722(3)
O38_4 O 0.1219(3) 0.9158(3) 0.2866(3)
C57_4 C 0.33773(18) 0.76882(19) 0.43390(11)
C58_4 C 0.33477(18) 0.72817(18) 0.42008(11)
H39_4 H 0.3507 0.7050 0.4279
C59_4 C 0.3079(2) 0.72214(15) 0.39458(12)
C60_4 C 0.28407(18) 0.75677(13) 0.38289(10)
H40_4 H 0.2661 0.7527 0.3658
C61_4 C 0.28702(14) 0.79742(14) 0.39672(8)
C62_4 C 0.31385(18) 0.80344(17) 0.42222(10)
H41_4 H 0.3158 0.8306 0.4315
N5_4 N 0.26630(15) 0.83994(13) 0.38669(8)
C63_4 C 0.22054(15) 0.84011(17) 0.38263(10)
C64_4 C 0.20904(17) 0.87908(17) 0.36709(9)
H42_4 H 0.1917 0.8962 0.3816
C65_4 C 0.2477(2) 0.90299(12) 0.36153(10)
H43_4 H 0.2456 0.9295 0.3739
C66_4 C 0.28309(18) 0.87880(13) 0.37365(12)
C67_4 C 0.1852(6) 0.8807(5) 0.3357(3)
H44_4 H 0.1580 0.8643 0.3364
C68_4 C 0.2171(5) 0.8609(5) 0.3123(3)
H45_4 H 0.2082 0.8362 0.3017
C69_4 C 0.2547(5) 0.8758(5) 0.3064(4)
H46_4 H 0.2741 0.8631 0.2926
C70_4 C 0.2641(6) 0.9185(4) 0.3254(3)
H47_4 H 0.2927 0.9321 0.3232
N6_4 N 0.1832(3) 0.95084(19) 0.27297(11)
C71_4 C 0.2227(3) 0.96170(17) 0.28803(13)
C72_4 C 0.2187(2) 0.95024(14) 0.31972(12)
H48_4 H 0.2214 0.9766 0.3323
C73_4 C 0.1767(2) 0.93229(18) 0.32425(11)
H49_4 H 0.1605 0.9486 0.3399
C74_4 C 0.1548(2) 0.9327(2) 0.29536(13)
C75_4 C 0.1517(2) 0.9198(2) 0.19197(17)
C76_4 C 0.15528(19) 0.9597(3) 0.17709(11)
H50_4 H 0.1482 0.9621 0.1562
C77_4 C 0.1695(2) 0.9960(2) 0.19336(18)
C78_4 C 0.1800(2) 0.9924(2) 0.22452(18)
C79_4 C 0.1764(2) 0.9525(3) 0.23941(11)
C80_4 C 0.1622(2) 0.9162(2) 0.22313(17)
H52_4 H 0.1598 0.8896 0.2331
C81_4 C 0.3647(4) 0.7797(4) 0.4578(2)
C82_4 C 0.3058(5) 0.6790(4) 0.3788(4)
C84_4 C 0.1383(3) 0.8790(4) 0.1766(3)
O1_11 O 0.6828(3) 0.5577(3) 0.5000
O2_11 O 0.9000(3) 0.6086(3) 0.5000
O3_4 O 0.7499(2) 0.3529(2) 0.29022(17)
H3_4 H 0.7690 0.3350 0.2838
H4_4 H 0.7613 0.3778 0.2923
O4_4 O 0.6230(2) 0.4284(2) 0.4117(2)
H5_4 H 0.6134 0.4061 0.4209
H6_4 H 0.6397 0.4425 0.4237
O5_4 O 0.8414(2) 0.5455(2) 0.46789(16)
O6_4 O 0.7680(2) 0.5269(2) 0.46731(16)
O7_4 O 0.75858(18) 0.4057(2) 0.35052(14)
O8_4 O 0.71548(19) 0.42713(19) 0.39155(14)
O9_4 O 0.8951(3) 0.5563(3) 0.3630(3)
O10_4 O 0.9170(4) 0.4104(4) 0.3670(4)
O13_4 O 0.7175(3) 0.3248(2) 0.35268(17)
O14_4 O 0.6698(3) 0.3495(2) 0.39026(17)
O15_4 O 0.8050(3) 0.1930(3) 0.3825(2)
O16_4 O 0.6733(3) 0.1252(3) 0.3711(3)
O17_4 O 0.7435(3) 0.0226(4) 0.2722(3)
O18_4 O 0.8781(3) 0.0842(3) 0.2866(3)
C1_4 C 0.8153(3) 0.4984(2) 0.42692(14)
C2_4 C 0.7817(2) 0.4731(3) 0.41533(18)
H7_4 H 0.7554 0.4717 0.4259
C3_4 C 0.7873(3) 0.4500(2) 0.38801(19)
C4_4 C 0.8266(3) 0.4522(2) 0.37227(14)
H8_4 H 0.8304 0.4367 0.3540
C5_4 C 0.8603(2) 0.4775(3) 0.3839(2)
C6_4 C 0.8546(2) 0.5006(2) 0.4112(2)
H9_4 H 0.8772 0.5175 0.4189
N1_4 N 0.9001(4) 0.4814(5) 0.3683(3)
C7_4 C 0.9136(6) 0.5206(7) 0.3587(4)
C8_4 C 0.9581(4) 0.5181(5) 0.3398(3)
H10_4 H 0.9567 0.5226 0.3174
C9_4 C 0.9644(4) 0.4678(4) 0.3420(3)
H11_4 H 0.9611 0.4512 0.3228
C10_4 C 0.9253(6) 0.4435(6) 0.3603(4)
C13_4 C 0.8072(4) 0.5259(4) 0.4569(3)
C14_4 C 0.7508(4) 0.4258(3) 0.3755(3)
C15_4 C 0.66227(18) 0.23118(19) 0.43390(11)
C16_4 C 0.66523(18) 0.27183(18) 0.42008(11)
H14_4 H 0.6493 0.2950 0.4279
C17_4 C 0.6921(2) 0.27786(15) 0.39458(12)
C18_4 C 0.71593(18) 0.24323(13) 0.38289(10)
H15_4 H 0.7339 0.2473 0.3658
C19_4 C 0.71298(14) 0.20258(14) 0.39672(8)
C20_4 C 0.68615(18) 0.19656(17) 0.42222(10)
H16_4 H 0.6842 0.1694 0.4315
N2_4 N 0.73370(15) 0.16006(13) 0.38669(8)
C21_4 C 0.77946(15) 0.15989(17) 0.38263(10)
C22_4 C 0.79096(17) 0.12092(17) 0.36709(9)
H17_4 H 0.8083 0.1038 0.3816
C23_4 C 0.7523(2) 0.09701(12) 0.36153(10)
H18_4 H 0.7544 0.0705 0.3739
C24_4 C 0.71691(18) 0.12120(13) 0.37365(12)
C25_4 C 0.8148(6) 0.1193(5) 0.3357(3)
H19_4 H 0.8420 0.1357 0.3364
C26_4 C 0.7829(5) 0.1391(5) 0.3123(3)
H20_4 H 0.7918 0.1638 0.3017
C27_4 C 0.7453(5) 0.1242(5) 0.3064(4)
H21_4 H 0.7259 0.1369 0.2926
C28_4 C 0.7359(6) 0.0815(4) 0.3254(3)
H22_4 H 0.7073 0.0679 0.3232
N3_4 N 0.8168(3) 0.04916(19) 0.27297(11)
C29_4 C 0.7773(3) 0.03830(17) 0.28803(13)
C30_4 C 0.7813(2) 0.04976(14) 0.31972(12)
H23_4 H 0.7786 0.0234 0.3323
C31_4 C 0.8233(2) 0.06771(18) 0.32425(11)
H24_4 H 0.8395 0.0514 0.3399
C32_4 C 0.8452(2) 0.0673(2) 0.29536(13)
C33_4 C 0.8483(2) 0.0802(2) 0.19197(17)
C34_4 C 0.84472(19) 0.0403(3) 0.17709(11)
H25_4 H 0.8518 0.0379 0.1562
C35_4 C 0.8305(2) 0.0040(2) 0.19336(18)
C36_4 C 0.8200(2) 0.0076(2) 0.22452(18)
C37_4 C 0.8236(2) 0.0475(3) 0.23941(11)
C38_4 C 0.8378(2) 0.0838(2) 0.22313(17)
H27_4 H 0.8402 0.1104 0.2331
C39_4 C 0.6353(4) 0.2203(4) 0.4578(2)
C40_4 C 0.6942(5) 0.3210(4) 0.3788(4)
C42_4 C 0.8617(3) 0.1210(4) 0.1766(3)
C53_4 C 0.9951(4) 0.5477(4) 0.3604(3)
H33_4 H 0.9866 0.5784 0.3605
C54_4 C 0.9967(4) 0.5236(3) 0.3941(3)
H34_4 H 0.9941 0.5384 0.4128
O43_7 O 0.8414(2) 0.5455(2) 0.53211(16)
O44_7 O 0.7680(2) 0.5269(2) 0.53269(16)
O46_7 O 0.7475(2) 0.6145(3) 0.53374(15)
O48_7 O 0.8189(2) 0.6341(3) 0.53168(17)
H26_4 H 0.8105 0.9834 0.2354
C41_4 C 0.8241(3) 0.9638(4) 0.1781(3)
O1_12 O 0.3172(3) 0.4423(3) 0.5000
O2_12 O 0.1000(3) 0.3914(3) 0.5000
O43_8 O 0.1586(2) 0.4545(2) 0.53211(16)
O44_8 O 0.2320(2) 0.4731(2) 0.53269(16)
O46_8 O 0.2525(2) 0.3855(3) 0.53374(15)
O48_8 O 0.1811(2) 0.3659(3) 0.53168(17)
Cu3_3 Cu 0.12315(5) 0.78908(5) 0.82794(3)
Cu4_3 Cu 0.09383(5) 0.83930(4) 0.87366(3)
O3_5 O 0.1471(2) 0.7501(2) 0.79022(17)
H3_5 H 0.1650 0.7310 0.7838
H4_5 H 0.1222 0.7387 0.7923
O4_5 O 0.0716(2) 0.8770(2) 0.9117(2)
H5_5 H 0.0939 0.8866 0.9209
H6_5 H 0.0575 0.8603 0.9237
O7_5 O 0.0943(2) 0.74142(18) 0.85052(14)
O8_5 O 0.07287(19) 0.78452(19) 0.89155(14)
O10_5 O 0.0896(4) 0.5830(4) 0.8670(4)
O13_5 O 0.1752(2) 0.7825(3) 0.85268(17)
O14_5 O 0.1505(2) 0.8302(3) 0.89026(17)
O15_5 O 0.3070(3) 0.6950(3) 0.8825(2)
O16_5 O 0.3748(3) 0.8267(3) 0.8711(3)
O17_5 O 0.4774(4) 0.7565(3) 0.7722(3)
O18_5 O 0.4158(3) 0.6219(3) 0.7866(3)
O19_3 O 0.5412(2) 0.6582(2) 0.65049(15)
O20_3 O 0.5670(2) 0.6970(2) 0.69156(15)
O21_3 O 0.38689(19) 0.6180(2) 0.65017(15)
O22_3 O 0.3441(2) 0.6443(2) 0.68814(16)
C1_5 C 0.0016(2) 0.6847(3) 0.92692(14)
C2_5 C 0.0269(3) 0.7183(2) 0.91533(18)
H7_5 H 0.0283 0.7446 0.9259
C3_5 C 0.0500(2) 0.7127(3) 0.88801(19)
C4_5 C 0.0478(2) 0.6734(3) 0.87227(14)
H8_5 H 0.0633 0.6696 0.8540
C5_5 C 0.0225(3) 0.6397(2) 0.8839(2)
N1_5 N 0.0186(5) 0.5999(4) 0.8683(3)
C9_5 C 0.0322(4) 0.5356(4) 0.8420(3)
H11_5 H 0.0488 0.5389 0.8228
C10_5 C 0.0565(6) 0.5747(6) 0.8603(4)
C11_5 C 0.0477(4) 0.4951(4) 0.8604(3)
H12_5 H 0.0784 0.4866 0.8605
C12_5 C 0.0236(3) 0.4967(4) 0.8941(3)
H13_5 H 0.0384 0.4941 0.9128
C14_5 C 0.0742(3) 0.7492(4) 0.8755(3)
C15_5 C 0.26882(19) 0.83773(18) 0.93390(11)
C16_5 C 0.22817(18) 0.83477(18) 0.92008(11)
H14_5 H 0.2050 0.8507 0.9279
C17_5 C 0.22214(15) 0.8079(2) 0.89458(12)
C18_5 C 0.25677(13) 0.78407(18) 0.88289(10)
H15_5 H 0.2527 0.7661 0.8658
C19_5 C 0.29742(14) 0.78702(14) 0.89672(8)
C20_5 C 0.30344(17) 0.81385(18) 0.92222(10)
H16_5 H 0.3306 0.8158 0.9315
N2_5 N 0.33994(13) 0.76630(15) 0.88669(8)
C21_5 C 0.34011(17) 0.72054(15) 0.88263(10)
C22_5 C 0.37908(17) 0.70904(17) 0.86709(9)
H17_5 H 0.3962 0.6917 0.8816
C23_5 C 0.40299(12) 0.7477(2) 0.86153(10)
H18_5 H 0.4295 0.7456 0.8739
C24_5 C 0.37880(13) 0.78309(18) 0.87365(12)
C25_5 C 0.3807(5) 0.6852(6) 0.8357(3)
H19_5 H 0.3643 0.6580 0.8364
C26_5 C 0.3609(5) 0.7171(5) 0.8123(3)
H20_5 H 0.3362 0.7082 0.8017
C27_5 C 0.3758(5) 0.7547(5) 0.8064(4)
H21_5 H 0.3631 0.7741 0.7926
C28_5 C 0.4185(4) 0.7641(6) 0.8254(3)
H22_5 H 0.4321 0.7927 0.8232
N3_5 N 0.45084(19) 0.6832(3) 0.77297(11)
C29_5 C 0.46170(17) 0.7227(3) 0.78803(13)
C30_5 C 0.45024(14) 0.7187(2) 0.81972(12)
H23_5 H 0.4766 0.7214 0.8323
C31_5 C 0.43229(18) 0.6767(2) 0.82425(11)
H24_5 H 0.4486 0.6605 0.8399
C32_5 C 0.4327(2) 0.6548(2) 0.79536(13)
C33_5 C 0.4198(2) 0.6517(2) 0.69197(17)
C34_5 C 0.4597(3) 0.65528(19) 0.67709(11)
H25_5 H 0.4621 0.6482 0.6562
C35_5 C 0.4960(2) 0.6695(2) 0.69336(18)
C36_5 C 0.4924(2) 0.6800(2) 0.72452(18)
H26_5 H 0.5166 0.6895 0.7354
C37_5 C 0.4525(3) 0.6764(2) 0.73941(11)
C38_5 C 0.4162(2) 0.6622(2) 0.72313(17)
H27_5 H 0.3896 0.6598 0.7331
C39_5 C 0.2797(4) 0.8647(4) 0.9578(2)
C40_5 C 0.1790(4) 0.8058(5) 0.8788(4)
C41_5 C 0.5362(4) 0.6759(3) 0.6781(3)
C42_5 C 0.3790(4) 0.6383(3) 0.6766(3)
O27_5 O 0.0563(3) 0.3951(3) 0.8630(3)
C48_5 C 0.0006(2) 0.3546(2) 0.9112(2)
H30_5 H 0.0175 0.3772 0.9189
C49_5 C 0.0206(7) 0.4136(6) 0.8587(4)
C50_5 C 0.0181(5) 0.4581(4) 0.8398(3)
H31_5 H 0.0226 0.4567 0.8174
C55_5 C 0.0259(4) 0.3072(4) 0.9569(3)
Cu14_2 Cu 0.62315(5) 0.71092(5) 0.67206(3)
Cu15_2 Cu 0.28908(5) 0.62315(5) 0.67206(3)
Cu18_2 Cu 0.59383(5) 0.66070(4) 0.62634(3)
Cu19_2 Cu 0.33930(4) 0.59383(5) 0.62634(3)
O50_3 O 0.0412(2) 0.8418(2) 0.84951(15)
O52_3 O 0.0670(2) 0.8030(2) 0.80844(15)
O53_3 O 0.1180(2) 0.88689(19) 0.84983(15)
O55_3 O 0.1443(2) 0.8441(2) 0.81186(16)
H54_5 H 0.872784 0.600343 0.0187571
O9_5 O 0.9437(3) 0.6049(3) 0.8630(3)
C6_5 C 0.9994(2) 0.6454(2) 0.9112(2)
H9_5 H 0.9825 0.6228 0.9189
C7_5 C 0.9794(7) 0.5864(6) 0.8587(4)
C8_5 C 0.9819(5) 0.5419(4) 0.8398(3)
H10_5 H 0.9774 0.5433 0.8174
C13_5 C 0.9741(4) 0.6928(4) 0.9569(3)
O25_5 O 0.9057(2) 0.25858(18) 0.85052(14)
O26_5 O 0.92713(19) 0.21548(19) 0.89155(14)
O28_5 O 0.9104(4) 0.4170(4) 0.8670(4)
C43_5 C 0.9984(2) 0.3153(3) 0.92692(14)
C44_5 C 0.9731(3) 0.2817(2) 0.91533(18)
H28_5 H 0.9717 0.2554 0.9259
C45_5 C 0.9500(2) 0.2873(3) 0.88801(19)
C46_5 C 0.9522(2) 0.3266(3) 0.87227(14)
H29_5 H 0.9367 0.3304 0.8540
C47_5 C 0.9775(3) 0.3603(2) 0.8839(2)
N4_5 N 0.9814(5) 0.4001(4) 0.8683(3)
C51_5 C 0.9678(4) 0.4644(4) 0.8420(3)
H32_5 H 0.9512 0.4611 0.8228
C52_5 C 0.9435(6) 0.4253(6) 0.8603(4)
C53_5 C 0.9523(4) 0.5049(4) 0.8604(3)
H33_5 H 0.9216 0.5134 0.8605
C54_5 C 0.9764(3) 0.5033(4) 0.8941(3)
H34_5 H 0.9616 0.5059 0.9128
C56_5 C 0.9258(3) 0.2508(4) 0.8755(3)
Cu5_3 Cu 0.87685(5) 0.21092(5) 0.82794(3)
Cu6_3 Cu 0.90617(5) 0.16070(4) 0.87366(3)
O29_5 O 0.8529(2) 0.2499(2) 0.79022(17)
H35_5 H 0.8350 0.2690 0.7838
H36_5 H 0.8778 0.2613 0.7923
O30_5 O 0.9284(2) 0.1230(2) 0.9117(2)
H37_5 H 0.9061 0.1134 0.9209
H38_5 H 0.9425 0.1397 0.9237
O33_5 O 0.8248(2) 0.2175(3) 0.85268(17)
O34_5 O 0.8495(2) 0.1698(3) 0.89026(17)
O35_5 O 0.6930(3) 0.3050(3) 0.8825(2)
O36_5 O 0.6252(3) 0.1733(3) 0.8711(3)
O37_5 O 0.5226(4) 0.2435(3) 0.7722(3)
O38_5 O 0.5842(3) 0.3781(3) 0.7866(3)
O39_3 O 0.4588(2) 0.3418(2) 0.65049(15)
O40_3 O 0.4330(2) 0.3030(2) 0.69156(15)
O41_3 O 0.61311(19) 0.3820(2) 0.65017(15)
O42_3 O 0.6559(2) 0.3557(2) 0.68814(16)
C57_5 C 0.73118(19) 0.16227(18) 0.93390(11)
C58_5 C 0.77183(18) 0.16523(18) 0.92008(11)
H39_5 H 0.7950 0.1493 0.9279
C59_5 C 0.77786(15) 0.1921(2) 0.89458(12)
C60_5 C 0.74323(13) 0.21593(18) 0.88289(10)
H40_5 H 0.7473 0.2339 0.8658
C61_5 C 0.70258(14) 0.21298(14) 0.89672(8)
C62_5 C 0.69656(17) 0.18615(18) 0.92222(10)
H41_5 H 0.6694 0.1842 0.9315
N5_5 N 0.66006(13) 0.23370(15) 0.88669(8)
C63_5 C 0.65989(17) 0.27946(15) 0.88263(10)
C64_5 C 0.62092(17) 0.29096(17) 0.86709(9)
H42_5 H 0.6038 0.3083 0.8816
C65_5 C 0.59701(12) 0.2523(2) 0.86153(10)
H43_5 H 0.5705 0.2544 0.8739
C66_5 C 0.62120(13) 0.21691(18) 0.87365(12)
C67_5 C 0.6193(5) 0.3148(6) 0.8357(3)
H44_5 H 0.6357 0.3420 0.8364
C68_5 C 0.6391(5) 0.2829(5) 0.8123(3)
H45_5 H 0.6638 0.2918 0.8017
C69_5 C 0.6242(5) 0.2453(5) 0.8064(4)
H46_5 H 0.6369 0.2259 0.7926
C70_5 C 0.5815(4) 0.2359(6) 0.8254(3)
H47_5 H 0.5679 0.2073 0.8232
N6_5 N 0.54916(19) 0.3168(3) 0.77297(11)
C71_5 C 0.53830(17) 0.2773(3) 0.78803(13)
C72_5 C 0.54976(14) 0.2813(2) 0.81972(12)
H48_5 H 0.5234 0.2786 0.8323
C73_5 C 0.56771(18) 0.3233(2) 0.82425(11)
H49_5 H 0.5514 0.3395 0.8399
C74_5 C 0.5673(2) 0.3452(2) 0.79536(13)
C75_5 C 0.5802(2) 0.3483(2) 0.69197(17)
C76_5 C 0.5403(3) 0.34472(19) 0.67709(11)
H50_5 H 0.5379 0.3518 0.6562
C77_5 C 0.5040(2) 0.3305(2) 0.69336(18)
C78_5 C 0.5076(2) 0.3200(2) 0.72452(18)
H51_5 H 0.4834 0.3105 0.7354
C79_5 C 0.5475(3) 0.3236(2) 0.73941(11)
C80_5 C 0.5838(2) 0.3378(2) 0.72313(17)
H52_5 H 0.6104 0.3402 0.7331
C81_5 C 0.7203(4) 0.1353(4) 0.9578(2)
C82_5 C 0.8210(4) 0.1942(5) 0.8788(4)
C83_5 C 0.4638(4) 0.3241(3) 0.6781(3)
C84_5 C 0.6210(4) 0.3617(3) 0.6766(3)
Cu13_2 Cu 0.37685(5) 0.28908(5) 0.67206(3)
Cu16_2 Cu 0.71092(5) 0.37685(5) 0.67206(3)
Cu17_2 Cu 0.40617(5) 0.33930(4) 0.62634(3)
Cu20_2 Cu 0.66070(4) 0.40617(5) 0.62634(3)
O49_3 O 0.9588(2) 0.1582(2) 0.84951(15)
O51_3 O 0.9330(2) 0.1970(2) 0.80844(15)
O54_3 O 0.8820(2) 0.11311(19) 0.84983(15)
O56_3 O 0.8557(2) 0.1559(2) 0.81186(16)
H53_5 H 0.931958 0.832683 0.981243
H54_6 H 0.127216 0.399657 0.0187571
H53_6 H 0.0680416 0.167317 0.981243
Cu3_4 Cu 0.21092(5) 0.12315(5) 0.82794(3)
Cu4_4 Cu 0.16070(4) 0.09383(5) 0.87366(3)
O3_6 O 0.2499(2) 0.1471(2) 0.79022(17)
H3_6 H 0.2690 0.1650 0.7838
H4_6 H 0.2613 0.1222 0.7923
O4_6 O 0.1230(2) 0.0716(2) 0.9117(2)
H5_6 H 0.1134 0.0939 0.9209
H6_6 H 0.1397 0.0575 0.9237
O7_6 O 0.25858(18) 0.0943(2) 0.85052(14)
O8_6 O 0.21548(19) 0.07287(19) 0.89155(14)
O10_6 O 0.4170(4) 0.0896(4) 0.8670(4)
O13_6 O 0.2175(3) 0.1752(2) 0.85268(17)
O14_6 O 0.1698(3) 0.1505(2) 0.89026(17)
O15_6 O 0.3050(3) 0.3070(3) 0.8825(2)
O16_6 O 0.1733(3) 0.3748(3) 0.8711(3)
O17_6 O 0.2435(3) 0.4774(4) 0.7722(3)
O18_6 O 0.3781(3) 0.4158(3) 0.7866(3)
O19_4 O 0.3418(2) 0.5412(2) 0.65049(15)
O20_4 O 0.3030(2) 0.5670(2) 0.69156(15)
O21_4 O 0.3820(2) 0.38689(19) 0.65017(15)
O22_4 O 0.3557(2) 0.3441(2) 0.68814(16)
C1_6 C 0.3153(3) 0.0016(2) 0.92692(14)
C2_6 C 0.2817(2) 0.0269(3) 0.91533(18)
H7_6 H 0.2554 0.0283 0.9259
C3_6 C 0.2873(3) 0.0500(2) 0.88801(19)
C4_6 C 0.3266(3) 0.0478(2) 0.87227(14)
H8_6 H 0.3304 0.0633 0.8540
C5_6 C 0.3603(2) 0.0225(3) 0.8839(2)
N1_6 N 0.4001(4) 0.0186(5) 0.8683(3)
C9_6 C 0.4644(4) 0.0322(4) 0.8420(3)
H11_6 H 0.4611 0.0488 0.8228
C10_6 C 0.4253(6) 0.0565(6) 0.8603(4)
C11_6 C 0.5049(4) 0.0477(4) 0.8604(3)
H12_6 H 0.5134 0.0784 0.8605
C12_6 C 0.5033(4) 0.0236(3) 0.8941(3)
H13_6 H 0.5059 0.0384 0.9128
C14_6 C 0.2508(4) 0.0742(3) 0.8755(3)
C15_6 C 0.16227(18) 0.26882(19) 0.93390(11)
C16_6 C 0.16523(18) 0.22817(18) 0.92008(11)
H14_6 H 0.1493 0.2050 0.9279
C17_6 C 0.1921(2) 0.22214(15) 0.89458(12)
C18_6 C 0.21593(18) 0.25677(13) 0.88289(10)
H15_6 H 0.2339 0.2527 0.8658
C19_6 C 0.21298(14) 0.29742(14) 0.89672(8)
C20_6 C 0.18615(18) 0.30344(17) 0.92222(10)
H16_6 H 0.1842 0.3306 0.9315
N2_6 N 0.23370(15) 0.33994(13) 0.88669(8)
C21_6 C 0.27946(15) 0.34011(17) 0.88263(10)
C22_6 C 0.29096(17) 0.37908(17) 0.86709(9)
H17_6 H 0.3083 0.3962 0.8816
C23_6 C 0.2523(2) 0.40299(12) 0.86153(10)
H18_6 H 0.2544 0.4295 0.8739
C24_6 C 0.21691(18) 0.37880(13) 0.87365(12)
C25_6 C 0.3148(6) 0.3807(5) 0.8357(3)
H19_6 H 0.3420 0.3643 0.8364
C26_6 C 0.2829(5) 0.3609(5) 0.8123(3)
H20_6 H 0.2918 0.3362 0.8017
C27_6 C 0.2453(5) 0.3758(5) 0.8064(4)
H21_6 H 0.2259 0.3631 0.7926
C28_6 C 0.2359(6) 0.4185(4) 0.8254(3)
H22_6 H 0.2073 0.4321 0.8232
N3_6 N 0.3168(3) 0.45084(19) 0.77297(11)
C29_6 C 0.2773(3) 0.46170(17) 0.78803(13)
C30_6 C 0.2813(2) 0.45024(14) 0.81972(12)
H23_6 H 0.2786 0.4766 0.8323
C31_6 C 0.3233(2) 0.43229(18) 0.82425(11)
H24_6 H 0.3395 0.4486 0.8399
C32_6 C 0.3452(2) 0.4327(2) 0.79536(13)
C33_6 C 0.3483(2) 0.4198(2) 0.69197(17)
C34_6 C 0.34472(19) 0.4597(3) 0.67709(11)
H25_6 H 0.3518 0.4621 0.6562
C35_6 C 0.3305(2) 0.4960(2) 0.69336(18)
C36_6 C 0.3200(2) 0.4924(2) 0.72452(18)
H26_6 H 0.3105 0.5166 0.7354
C37_6 C 0.3236(2) 0.4525(3) 0.73941(11)
C38_6 C 0.3378(2) 0.4162(2) 0.72313(17)
H27_6 H 0.3402 0.3896 0.7331
C39_6 C 0.1353(4) 0.2797(4) 0.9578(2)
C40_6 C 0.1942(5) 0.1790(4) 0.8788(4)
C41_6 C 0.3241(3) 0.5362(4) 0.6781(3)
C42_6 C 0.3617(3) 0.3790(4) 0.6766(3)
O27_6 O 0.6049(3) 0.0563(3) 0.8630(3)
C48_6 C 0.6454(2) 0.0006(2) 0.9112(2)
H30_6 H 0.6228 0.0175 0.9189
C49_6 C 0.5864(6) 0.0206(7) 0.8587(4)
C50_6 C 0.5419(4) 0.0181(5) 0.8398(3)
H31_6 H 0.5433 0.0226 0.8174
C55_6 C 0.6928(4) 0.0259(4) 0.9569(3)
O50_4 O 0.1582(2) 0.0412(2) 0.84951(15)
O52_4 O 0.1970(2) 0.0670(2) 0.80844(15)
O53_4 O 0.11311(19) 0.1180(2) 0.84983(15)
O55_4 O 0.1559(2) 0.1443(2) 0.81186(16)
H54_7 H 0.399657 0.872784 0.0187571
O9_6 O 0.3951(3) 0.9437(3) 0.8630(3)
C6_6 C 0.3546(2) 0.9994(2) 0.9112(2)
H9_6 H 0.3772 0.9825 0.9189
C7_6 C 0.4136(6) 0.9794(7) 0.8587(4)
C8_6 C 0.4581(4) 0.9819(5) 0.8398(3)
H10_6 H 0.4567 0.9774 0.8174
C13_6 C 0.3072(4) 0.9741(4) 0.9569(3)
O25_6 O 0.74142(18) 0.9057(2) 0.85052(14)
O26_6 O 0.78452(19) 0.92713(19) 0.89155(14)
O28_6 O 0.5830(4) 0.9104(4) 0.8670(4)
C43_6 C 0.6847(3) 0.9984(2) 0.92692(14)
C44_6 C 0.7183(2) 0.9731(3) 0.91533(18)
H28_6 H 0.7446 0.9717 0.9259
C45_6 C 0.7127(3) 0.9500(2) 0.88801(19)
C46_6 C 0.6734(3) 0.9522(2) 0.87227(14)
H29_6 H 0.6696 0.9367 0.8540
C47_6 C 0.6397(2) 0.9775(3) 0.8839(2)
N4_6 N 0.5999(4) 0.9814(5) 0.8683(3)
C51_6 C 0.5356(4) 0.9678(4) 0.8420(3)
H32_6 H 0.5389 0.9512 0.8228
C52_6 C 0.5747(6) 0.9435(6) 0.8603(4)
C53_6 C 0.4951(4) 0.9523(4) 0.8604(3)
H33_6 H 0.4866 0.9216 0.8605
C54_6 C 0.4967(4) 0.9764(3) 0.8941(3)
H34_6 H 0.4941 0.9616 0.9128
C56_6 C 0.7492(4) 0.9258(3) 0.8755(3)
Cu5_4 Cu 0.78908(5) 0.87685(5) 0.82794(3)
Cu6_4 Cu 0.83930(4) 0.90617(5) 0.87366(3)
O29_6 O 0.7501(2) 0.8529(2) 0.79022(17)
H35_6 H 0.7310 0.8350 0.7838
H36_6 H 0.7387 0.8778 0.7923
O30_6 O 0.8770(2) 0.9284(2) 0.9117(2)
H37_6 H 0.8866 0.9061 0.9209
H38_6 H 0.8603 0.9425 0.9237
O33_6 O 0.7825(3) 0.8248(2) 0.85268(17)
O34_6 O 0.8302(3) 0.8495(2) 0.89026(17)
O35_6 O 0.6950(3) 0.6930(3) 0.8825(2)
O36_6 O 0.8267(3) 0.6252(3) 0.8711(3)
O37_6 O 0.7565(3) 0.5226(4) 0.7722(3)
O38_6 O 0.6219(3) 0.5842(3) 0.7866(3)
O39_4 O 0.6582(2) 0.4588(2) 0.65049(15)
O40_4 O 0.6970(2) 0.4330(2) 0.69156(15)
O41_4 O 0.6180(2) 0.61311(19) 0.65017(15)
O42_4 O 0.6443(2) 0.6559(2) 0.68814(16)
C57_6 C 0.83773(18) 0.73118(19) 0.93390(11)
C58_6 C 0.83477(18) 0.77183(18) 0.92008(11)
H39_6 H 0.8507 0.7950 0.9279
C59_6 C 0.8079(2) 0.77786(15) 0.89458(12)
C60_6 C 0.78407(18) 0.74323(13) 0.88289(10)
H40_6 H 0.7661 0.7473 0.8658
C61_6 C 0.78702(14) 0.70258(14) 0.89672(8)
C62_6 C 0.81385(18) 0.69656(17) 0.92222(10)
H41_6 H 0.8158 0.6694 0.9315
N5_6 N 0.76630(15) 0.66006(13) 0.88669(8)
C63_6 C 0.72054(15) 0.65989(17) 0.88263(10)
C64_6 C 0.70904(17) 0.62092(17) 0.86709(9)
H42_6 H 0.6917 0.6038 0.8816
C65_6 C 0.7477(2) 0.59701(12) 0.86153(10)
H43_6 H 0.7456 0.5705 0.8739
C66_6 C 0.78309(18) 0.62120(13) 0.87365(12)
C67_6 C 0.6852(6) 0.6193(5) 0.8357(3)
H44_6 H 0.6580 0.6357 0.8364
C68_6 C 0.7171(5) 0.6391(5) 0.8123(3)
H45_6 H 0.7082 0.6638 0.8017
C69_6 C 0.7547(5) 0.6242(5) 0.8064(4)
H46_6 H 0.7741 0.6369 0.7926
C70_6 C 0.7641(6) 0.5815(4) 0.8254(3)
H47_6 H 0.7927 0.5679 0.8232
N6_6 N 0.6832(3) 0.54916(19) 0.77297(11)
C71_6 C 0.7227(3) 0.53830(17) 0.78803(13)
C72_6 C 0.7187(2) 0.54976(14) 0.81972(12)
H48_6 H 0.7214 0.5234 0.8323
C73_6 C 0.6767(2) 0.56771(18) 0.82425(11)
H49_6 H 0.6605 0.5514 0.8399
C74_6 C 0.6548(2) 0.5673(2) 0.79536(13)
C75_6 C 0.6517(2) 0.5802(2) 0.69197(17)
C76_6 C 0.65528(19) 0.5403(3) 0.67709(11)
H50_6 H 0.6482 0.5379 0.6562
C77_6 C 0.6695(2) 0.5040(2) 0.69336(18)
C78_6 C 0.6800(2) 0.5076(2) 0.72452(18)
H51_6 H 0.6895 0.4834 0.7354
C79_6 C 0.6764(2) 0.5475(3) 0.73941(11)
C80_6 C 0.6622(2) 0.5838(2) 0.72313(17)
H52_6 H 0.6598 0.6104 0.7331
C81_6 C 0.8647(4) 0.7203(4) 0.9578(2)
C82_6 C 0.8058(5) 0.8210(4) 0.8788(4)
C83_6 C 0.6759(3) 0.4638(4) 0.6781(3)
C84_6 C 0.6383(3) 0.6210(4) 0.6766(3)
O49_4 O 0.8418(2) 0.9588(2) 0.84951(15)
O51_4 O 0.8030(2) 0.9330(2) 0.80844(15)
O54_4 O 0.88689(19) 0.8820(2) 0.84983(15)
O56_4 O 0.8441(2) 0.8557(2) 0.81186(16)
H53_7 H 0.167317 0.931958 0.981243
H54_8 H 0.600343 0.127216 0.0187571
H53_8 H 0.832683 0.0680416 0.981243
H51_7 H 0.0166 0.8105 0.7646
C83_7 C 0.0362(4) 0.8241(3) 0.8219(3)
O3_7 O 0.3529(2) 0.2501(2) 0.70978(17)
H3_7 H 0.3350 0.2310 0.7162
H4_7 H 0.3778 0.2387 0.7077
O4_7 O 0.4284(2) 0.3770(2) 0.5883(2)
H5_7 H 0.4061 0.3866 0.5791
H6_7 H 0.4425 0.3603 0.5763
O7_7 O 0.4057(2) 0.24142(18) 0.64948(14)
O8_7 O 0.42713(19) 0.28452(19) 0.60845(14)
O9_7 O 0.5563(3) 0.1049(3) 0.6370(3)
O10_7 O 0.4104(4) 0.0830(4) 0.6330(4)
O13_7 O 0.3248(2) 0.2825(3) 0.64732(17)
O14_7 O 0.3495(2) 0.3302(3) 0.60974(17)
O15_7 O 0.1930(3) 0.1950(3) 0.6175(2)
O16_7 O 0.1252(3) 0.3267(3) 0.6289(3)
O17_7 O 0.0226(4) 0.2565(3) 0.7278(3)
O18_7 O 0.0842(3) 0.1219(3) 0.7134(3)
C1_7 C 0.4984(2) 0.1847(3) 0.57308(14)
C2_7 C 0.4731(3) 0.2183(2) 0.58467(18)
H7_7 H 0.4717 0.2446 0.5741
C3_7 C 0.4500(2) 0.2127(3) 0.61199(19)
C4_7 C 0.4522(2) 0.1734(3) 0.62773(14)
H8_7 H 0.4367 0.1696 0.6460
C5_7 C 0.4775(3) 0.1397(2) 0.6161(2)
C6_7 C 0.5006(2) 0.1454(2) 0.5888(2)
H9_7 H 0.5175 0.1228 0.5811
N1_7 N 0.4814(5) 0.0999(4) 0.6317(3)
C7_7 C 0.5206(7) 0.0864(6) 0.6413(4)
C8_7 C 0.5181(5) 0.0419(4) 0.6602(3)
H10_7 H 0.5226 0.0433 0.6826
C9_7 C 0.4678(4) 0.0356(4) 0.6580(3)
H11_7 H 0.4512 0.0389 0.6772
C10_7 C 0.4435(6) 0.0747(6) 0.6397(4)
C13_7 C 0.5259(4) 0.1928(4) 0.5431(3)
C14_7 C 0.4258(3) 0.2492(4) 0.6245(3)
C15_7 C 0.23118(19) 0.33773(18) 0.56610(11)
C16_7 C 0.27183(18) 0.33477(18) 0.57992(11)
H14_7 H 0.2950 0.3507 0.5721
C17_7 C 0.27786(15) 0.3079(2) 0.60542(12)
C18_7 C 0.24323(13) 0.28407(18) 0.61711(10)
H15_7 H 0.2473 0.2661 0.6342
C19_7 C 0.20258(14) 0.28702(14) 0.60328(8)
C20_7 C 0.19656(17) 0.31385(18) 0.57778(10)
H16_7 H 0.1694 0.3158 0.5685
N2_7 N 0.16006(13) 0.26630(15) 0.61331(8)
C21_7 C 0.15989(17) 0.22054(15) 0.61737(10)
C22_7 C 0.12092(17) 0.20904(17) 0.63291(9)
H17_7 H 0.1038 0.1917 0.6184
C23_7 C 0.09701(12) 0.2477(2) 0.63847(10)
H18_7 H 0.0705 0.2456 0.6261
C24_7 C 0.12120(13) 0.28309(18) 0.62635(12)
C25_7 C 0.1193(5) 0.1852(6) 0.6643(3)
H19_7 H 0.1357 0.1580 0.6636
C26_7 C 0.1391(5) 0.2171(5) 0.6877(3)
H20_7 H 0.1638 0.2082 0.6983
C27_7 C 0.1242(5) 0.2547(5) 0.6936(4)
H21_7 H 0.1369 0.2741 0.7074
C28_7 C 0.0815(4) 0.2641(6) 0.6746(3)
H22_7 H 0.0679 0.2927 0.6768
N3_7 N 0.04916(19) 0.1832(3) 0.72703(11)
C29_7 C 0.03830(17) 0.2227(3) 0.71197(13)
C30_7 C 0.04976(14) 0.2187(2) 0.68028(12)
H23_7 H 0.0234 0.2214 0.6677
C31_7 C 0.06771(18) 0.1767(2) 0.67575(11)
H24_7 H 0.0514 0.1605 0.6601
C32_7 C 0.0673(2) 0.1548(2) 0.70464(13)
C33_7 C 0.0802(2) 0.1517(2) 0.80803(17)
C34_7 C 0.0403(3) 0.15528(19) 0.82291(11)
H25_7 H 0.0379 0.1482 0.8438
C35_7 C 0.0040(2) 0.1695(2) 0.80664(18)
C36_7 C 0.0076(2) 0.1800(2) 0.77548(18)
C37_7 C 0.0475(3) 0.1764(2) 0.76059(11)
C38_7 C 0.0838(2) 0.1622(2) 0.77687(17)
H27_7 H 0.1104 0.1598 0.7669
C39_7 C 0.2203(4) 0.3647(4) 0.5422(2)
C40_7 C 0.3210(4) 0.3058(5) 0.6212(4)
C42_7 C 0.1210(4) 0.1383(3) 0.8234(3)
C53_7 C 0.5477(4) 0.0049(4) 0.6396(3)
H33_7 H 0.5784 0.0134 0.6395
C54_7 C 0.5236(3) 0.0033(4) 0.6059(3)
H34_7 H 0.5384 0.0059 0.5872
C11_7 C 0.4523(4) 0.9951(4) 0.6396(3)
H12_7 H 0.4216 0.9866 0.6395
C12_7 C 0.4764(3) 0.9967(4) 0.6059(3)
H13_7 H 0.4616 0.9941 0.5872
O25_7 O 0.5943(2) 0.75858(18) 0.64948(14)
O26_7 O 0.57287(19) 0.71548(19) 0.60845(14)
O27_7 O 0.4437(3) 0.8951(3) 0.6370(3)
O28_7 O 0.5896(4) 0.9170(4) 0.6330(4)
C43_7 C 0.5016(2) 0.8153(3) 0.57308(14)
C44_7 C 0.5269(3) 0.7817(2) 0.58467(18)
H28_7 H 0.5283 0.7554 0.5741
C45_7 C 0.5500(2) 0.7873(3) 0.61199(19)
C46_7 C 0.5478(2) 0.8266(3) 0.62773(14)
H29_7 H 0.5633 0.8304 0.6460
C47_7 C 0.5225(3) 0.8603(2) 0.6161(2)
C48_7 C 0.4994(2) 0.8546(2) 0.5888(2)
H30_7 H 0.4825 0.8772 0.5811
N4_7 N 0.5186(5) 0.9001(4) 0.6317(3)
C49_7 C 0.4794(7) 0.9136(6) 0.6413(4)
C50_7 C 0.4819(5) 0.9581(4) 0.6602(3)
H31_7 H 0.4774 0.9567 0.6826
C51_7 C 0.5322(4) 0.9644(4) 0.6580(3)
H32_7 H 0.5488 0.9611 0.6772
C52_7 C 0.5565(6) 0.9253(6) 0.6397(4)
C55_7 C 0.4741(4) 0.8072(4) 0.5431(3)
C56_7 C 0.5742(3) 0.7508(4) 0.6245(3)
O29_7 O 0.6471(2) 0.7499(2) 0.70978(17)
H35_7 H 0.6650 0.7690 0.7162
H36_7 H 0.6222 0.7613 0.7077
O30_7 O 0.5716(2) 0.6230(2) 0.5883(2)
H37_7 H 0.5939 0.6134 0.5791
H38_7 H 0.5575 0.6397 0.5763
O33_7 O 0.6752(2) 0.7175(3) 0.64732(17)
O34_7 O 0.6505(2) 0.6698(3) 0.60974(17)
O35_7 O 0.8070(3) 0.8050(3) 0.6175(2)
O36_7 O 0.8748(3) 0.6733(3) 0.6289(3)
O37_7 O 0.9774(4) 0.7435(3) 0.7278(3)
O38_7 O 0.9158(3) 0.8781(3) 0.7134(3)
C57_7 C 0.76882(19) 0.66227(18) 0.56610(11)
C58_7 C 0.72817(18) 0.66523(18) 0.57992(11)
H39_7 H 0.7050 0.6493 0.5721
C59_7 C 0.72214(15) 0.6921(2) 0.60542(12)
C60_7 C 0.75677(13) 0.71593(18) 0.61711(10)
H40_7 H 0.7527 0.7339 0.6342
C61_7 C 0.79742(14) 0.71298(14) 0.60328(8)
C62_7 C 0.80344(17) 0.68615(18) 0.57778(10)
H41_7 H 0.8306 0.6842 0.5685
N5_7 N 0.83994(13) 0.73370(15) 0.61331(8)
C63_7 C 0.84011(17) 0.77946(15) 0.61737(10)
C64_7 C 0.87908(17) 0.79096(17) 0.63291(9)
H42_7 H 0.8962 0.8083 0.6184
C65_7 C 0.90299(12) 0.7523(2) 0.63847(10)
H43_7 H 0.9295 0.7544 0.6261
C66_7 C 0.87880(13) 0.71691(18) 0.62635(12)
C67_7 C 0.8807(5) 0.8148(6) 0.6643(3)
H44_7 H 0.8643 0.8420 0.6636
C68_7 C 0.8609(5) 0.7829(5) 0.6877(3)
H45_7 H 0.8362 0.7918 0.6983
C69_7 C 0.8758(5) 0.7453(5) 0.6936(4)
H46_7 H 0.8631 0.7259 0.7074
C70_7 C 0.9185(4) 0.7359(6) 0.6746(3)
H47_7 H 0.9321 0.7073 0.6768
N6_7 N 0.95084(19) 0.8168(3) 0.72703(11)
C71_7 C 0.96170(17) 0.7773(3) 0.71197(13)
C72_7 C 0.95024(14) 0.7813(2) 0.68028(12)
H48_7 H 0.9766 0.7786 0.6677
C73_7 C 0.93229(18) 0.8233(2) 0.67575(11)
H49_7 H 0.9486 0.8395 0.6601
C74_7 C 0.9327(2) 0.8452(2) 0.70464(13)
C75_7 C 0.9198(2) 0.8483(2) 0.80803(17)
C76_7 C 0.9597(3) 0.84472(19) 0.82291(11)
H50_7 H 0.9621 0.8518 0.8438
C77_7 C 0.9960(2) 0.8305(2) 0.80664(18)
C78_7 C 0.9924(2) 0.8200(2) 0.77548(18)
C79_7 C 0.9525(3) 0.8236(2) 0.76059(11)
C80_7 C 0.9162(2) 0.8378(2) 0.77687(17)
H52_7 H 0.8896 0.8402 0.7669
C81_7 C 0.7797(4) 0.6353(4) 0.5422(2)
C82_7 C 0.6790(4) 0.6942(5) 0.6212(4)
C84_7 C 0.8790(4) 0.8617(3) 0.8234(3)
H26_7 H 0.9834 0.1895 0.7646
C41_7 C 0.9638(4) 0.1759(3) 0.8219(3)
H26_8 H 0.1895 0.0166 0.7646
C41_8 C 0.1759(3) 0.0362(4) 0.8219(3)
O3_8 O 0.2501(2) 0.6471(2) 0.70978(17)
H3_8 H 0.2310 0.6650 0.7162
H4_8 H 0.2387 0.6222 0.7077
O4_8 O 0.3770(2) 0.5716(2) 0.5883(2)
H5_8 H 0.3866 0.5939 0.5791
H6_8 H 0.3603 0.5575 0.5763
O7_8 O 0.24142(18) 0.5943(2) 0.64948(14)
O8_8 O 0.28452(19) 0.57287(19) 0.60845(14)
O9_8 O 0.1049(3) 0.4437(3) 0.6370(3)
O10_8 O 0.0830(4) 0.5896(4) 0.6330(4)
O13_8 O 0.2825(3) 0.6752(2) 0.64732(17)
O14_8 O 0.3302(3) 0.6505(2) 0.60974(17)
O15_8 O 0.1950(3) 0.8070(3) 0.6175(2)
O16_8 O 0.3267(3) 0.8748(3) 0.6289(3)
O17_8 O 0.2565(3) 0.9774(4) 0.7278(3)
O18_8 O 0.1219(3) 0.9158(3) 0.7134(3)
C1_8 C 0.1847(3) 0.5016(2) 0.57308(14)
C2_8 C 0.2183(2) 0.5269(3) 0.58467(18)
H7_8 H 0.2446 0.5283 0.5741
C3_8 C 0.2127(3) 0.5500(2) 0.61199(19)
C4_8 C 0.1734(3) 0.5478(2) 0.62773(14)
H8_8 H 0.1696 0.5633 0.6460
C5_8 C 0.1397(2) 0.5225(3) 0.6161(2)
C6_8 C 0.1454(2) 0.4994(2) 0.5888(2)
H9_8 H 0.1228 0.4825 0.5811
N1_8 N 0.0999(4) 0.5186(5) 0.6317(3)
C7_8 C 0.0864(6) 0.4794(7) 0.6413(4)
C8_8 C 0.0419(4) 0.4819(5) 0.6602(3)
H10_8 H 0.0433 0.4774 0.6826
C9_8 C 0.0356(4) 0.5322(4) 0.6580(3)
H11_8 H 0.0389 0.5488 0.6772
C10_8 C 0.0747(6) 0.5565(6) 0.6397(4)
C13_8 C 0.1928(4) 0.4741(4) 0.5431(3)
C14_8 C 0.2492(4) 0.5742(3) 0.6245(3)
C15_8 C 0.33773(18) 0.76882(19) 0.56610(11)
C16_8 C 0.33477(18) 0.72817(18) 0.57992(11)
H14_8 H 0.3507 0.7050 0.5721
C17_8 C 0.3079(2) 0.72214(15) 0.60542(12)
C18_8 C 0.28407(18) 0.75677(13) 0.61711(10)
H15_8 H 0.2661 0.7527 0.6342
C19_8 C 0.28702(14) 0.79742(14) 0.60328(8)
C20_8 C 0.31385(18) 0.80344(17) 0.57778(10)
H16_8 H 0.3158 0.8306 0.5685
N2_8 N 0.26630(15) 0.83994(13) 0.61331(8)
C21_8 C 0.22054(15) 0.84011(17) 0.61737(10)
C22_8 C 0.20904(17) 0.87908(17) 0.63291(9)
H17_8 H 0.1917 0.8962 0.6184
C23_8 C 0.2477(2) 0.90299(12) 0.63847(10)
H18_8 H 0.2456 0.9295 0.6261
C24_8 C 0.28309(18) 0.87880(13) 0.62635(12)
C25_8 C 0.1852(6) 0.8807(5) 0.6643(3)
H19_8 H 0.1580 0.8643 0.6636
C26_8 C 0.2171(5) 0.8609(5) 0.6877(3)
H20_8 H 0.2082 0.8362 0.6983
C27_8 C 0.2547(5) 0.8758(5) 0.6936(4)
H21_8 H 0.2741 0.8631 0.7074
C28_8 C 0.2641(6) 0.9185(4) 0.6746(3)
H22_8 H 0.2927 0.9321 0.6768
N3_8 N 0.1832(3) 0.95084(19) 0.72703(11)
C29_8 C 0.2227(3) 0.96170(17) 0.71197(13)
C30_8 C 0.2187(2) 0.95024(14) 0.68028(12)
H23_8 H 0.2214 0.9766 0.6677
C31_8 C 0.1767(2) 0.93229(18) 0.67575(11)
H24_8 H 0.1605 0.9486 0.6601
C32_8 C 0.1548(2) 0.9327(2) 0.70464(13)
C33_8 C 0.1517(2) 0.9198(2) 0.80803(17)
C34_8 C 0.15528(19) 0.9597(3) 0.82291(11)
H25_8 H 0.1482 0.9621 0.8438
C35_8 C 0.1695(2) 0.9960(2) 0.80664(18)
C36_8 C 0.1800(2) 0.9924(2) 0.77548(18)
C37_8 C 0.1764(2) 0.9525(3) 0.76059(11)
C38_8 C 0.1622(2) 0.9162(2) 0.77687(17)
H27_8 H 0.1598 0.8896 0.7669
C39_8 C 0.3647(4) 0.7797(4) 0.5422(2)
C40_8 C 0.3058(5) 0.6790(4) 0.6212(4)
C42_8 C 0.1383(3) 0.8790(4) 0.8234(3)
C53_8 C 0.0049(4) 0.4523(4) 0.6396(3)
H33_8 H 0.0134 0.4216 0.6395
C54_8 C 0.0033(4) 0.4764(3) 0.6059(3)
H34_8 H 0.0059 0.4616 0.5872
C11_8 C 0.9951(4) 0.5477(4) 0.6396(3)
H12_8 H 0.9866 0.5784 0.6395
C12_8 C 0.9967(4) 0.5236(3) 0.6059(3)
H13_8 H 0.9941 0.5384 0.5872
O25_8 O 0.75858(18) 0.4057(2) 0.64948(14)
O26_8 O 0.71548(19) 0.42713(19) 0.60845(14)
O27_8 O 0.8951(3) 0.5563(3) 0.6370(3)
O28_8 O 0.9170(4) 0.4104(4) 0.6330(4)
C43_8 C 0.8153(3) 0.4984(2) 0.57308(14)
C44_8 C 0.7817(2) 0.4731(3) 0.58467(18)
H28_8 H 0.7554 0.4717 0.5741
C45_8 C 0.7873(3) 0.4500(2) 0.61199(19)
C46_8 C 0.8266(3) 0.4522(2) 0.62773(14)
H29_8 H 0.8304 0.4367 0.6460
C47_8 C 0.8603(2) 0.4775(3) 0.6161(2)
C48_8 C 0.8546(2) 0.5006(2) 0.5888(2)
H30_8 H 0.8772 0.5175 0.5811
N4_8 N 0.9001(4) 0.4814(5) 0.6317(3)
C49_8 C 0.9136(6) 0.5206(7) 0.6413(4)
C50_8 C 0.9581(4) 0.5181(5) 0.6602(3)
H31_8 H 0.9567 0.5226 0.6826
C51_8 C 0.9644(4) 0.4678(4) 0.6580(3)
H32_8 H 0.9611 0.4512 0.6772
C52_8 C 0.9253(6) 0.4435(6) 0.6397(4)
C55_8 C 0.8072(4) 0.5259(4) 0.5431(3)
C56_8 C 0.7508(4) 0.4258(3) 0.6245(3)
O29_8 O 0.7499(2) 0.3529(2) 0.70978(17)
H35_8 H 0.7690 0.3350 0.7162
H36_8 H 0.7613 0.3778 0.7077
O30_8 O 0.6230(2) 0.4284(2) 0.5883(2)
H37_8 H 0.6134 0.4061 0.5791
H38_8 H 0.6397 0.4425 0.5763
O33_8 O 0.7175(3) 0.3248(2) 0.64732(17)
O34_8 O 0.6698(3) 0.3495(2) 0.60974(17)
O35_8 O 0.8050(3) 0.1930(3) 0.6175(2)
O36_8 O 0.6733(3) 0.1252(3) 0.6289(3)
O37_8 O 0.7435(3) 0.0226(4) 0.7278(3)
O38_8 O 0.8781(3) 0.0842(3) 0.7134(3)
C57_8 C 0.66227(18) 0.23118(19) 0.56610(11)
C58_8 C 0.66523(18) 0.27183(18) 0.57992(11)
H39_8 H 0.6493 0.2950 0.5721
C59_8 C 0.6921(2) 0.27786(15) 0.60542(12)
C60_8 C 0.71593(18) 0.24323(13) 0.61711(10)
H40_8 H 0.7339 0.2473 0.6342
C61_8 C 0.71298(14) 0.20258(14) 0.60328(8)
C62_8 C 0.68615(18) 0.19656(17) 0.57778(10)
H41_8 H 0.6842 0.1694 0.5685
N5_8 N 0.73370(15) 0.16006(13) 0.61331(8)
C63_8 C 0.77946(15) 0.15989(17) 0.61737(10)
C64_8 C 0.79096(17) 0.12092(17) 0.63291(9)
H42_8 H 0.8083 0.1038 0.6184
C65_8 C 0.7523(2) 0.09701(12) 0.63847(10)
H43_8 H 0.7544 0.0705 0.6261
C66_8 C 0.71691(18) 0.12120(13) 0.62635(12)
C67_8 C 0.8148(6) 0.1193(5) 0.6643(3)
H44_8 H 0.8420 0.1357 0.6636
C68_8 C 0.7829(5) 0.1391(5) 0.6877(3)
H45_8 H 0.7918 0.1638 0.6983
C69_8 C 0.7453(5) 0.1242(5) 0.6936(4)
H46_8 H 0.7259 0.1369 0.7074
C70_8 C 0.7359(6) 0.0815(4) 0.6746(3)
H47_8 H 0.7073 0.0679 0.6768
N6_8 N 0.8168(3) 0.04916(19) 0.72703(11)
C71_8 C 0.7773(3) 0.03830(17) 0.71197(13)
C72_8 C 0.7813(2) 0.04976(14) 0.68028(12)
H48_8 H 0.7786 0.0234 0.6677
C73_8 C 0.8233(2) 0.06771(18) 0.67575(11)
H49_8 H 0.8395 0.0514 0.6601
C74_8 C 0.8452(2) 0.0673(2) 0.70464(13)
C75_8 C 0.8483(2) 0.0802(2) 0.80803(17)
C76_8 C 0.84472(19) 0.0403(3) 0.82291(11)
H50_8 H 0.8518 0.0379 0.8438
C77_8 C 0.8305(2) 0.0040(2) 0.80664(18)
C78_8 C 0.8200(2) 0.0076(2) 0.77548(18)
C79_8 C 0.8236(2) 0.0475(3) 0.76059(11)
C80_8 C 0.8378(2) 0.0838(2) 0.77687(17)
H52_8 H 0.8402 0.1104 0.7669
C81_8 C 0.6353(4) 0.2203(4) 0.5422(2)
C82_8 C 0.6942(5) 0.3210(4) 0.6212(4)
C84_8 C 0.8617(3) 0.1210(4) 0.8234(3)
H51_8 H 0.8105 0.9834 0.7646
C83_8 C 0.8241(3) 0.9638(4) 0.8219(3)
loop_
_geom_bond_atom_site_label_1
_geom_bond_atom_site_label_2
_geom_bond_site_symmetry_1
_geom_bond_site_symmetry_2
Cu1 Cu2 1_555 1_555
Cu2 O2 1_555 1_555
O1 Cu1 1_555 1_555
H1 O1 1_555 1_555
O2 H2 1_555 1_555
O5 Cu2 1_555 1_555
O6 Cu1 1_555 1_555
O9 C7 1_555 1_555
H9 C6 1_555 1_555
C8 C7 1_555 1_555
H10 C8 1_555 1_555
C13 O5 1_555 1_555
O25 C56 1_555 1_555
O26 C56 1_555 1_555
O28 C52 1_555 1_555
C43 C44 1_555 1_555
C44 H28 1_555 1_555
C45 C44 1_555 1_555
C46 C45 1_555 1_555
H29 C46 1_555 1_555
C47 C46 1_555 1_555
N4 C47 1_555 1_555
H32 C51 1_555 1_555
C52 N4 1_555 1_555
C53 C8 1_555 1_555
H33 C53 1_555 1_555
H34 C54 1_555 1_555
C56 C45 1_555 1_555
Cu5 O25 1_555 1_555
Cu6 O26 1_555 1_555
O29 Cu5 1_555 1_555
H35 O29 1_555 1_555
H36 O29 1_555 1_555
O30 Cu6 1_555 1_555
H37 O30 1_555 1_555
H38 O30 1_555 1_555
O31 C81 1_555 1_555
O32 C81 1_555 1_555
O33 Cu5 1_555 1_555
O34 Cu6 1_555 1_555
O35 C63 1_555 1_555
O36 C66 1_555 1_555
O37 C71 1_555 1_555
O38 C74 1_555 1_555
O39 C83 1_555 1_555
O40 C83 1_555 1_555
O41 C84 1_555 1_555
O42 C84 1_555 1_555
C57 C58 1_555 1_555
C58 H39 1_555 1_555
C59 C58 1_555 1_555
C60 C59 1_555 1_555
H40 C60 1_555 1_555
C61 C60 1_555 1_555
C62 C57 1_555 1_555
H41 C62 1_555 1_555
N5 C61 1_555 1_555
C63 N5 1_555 1_555
C64 C63 1_555 1_555
H42 C64 1_555 1_555
C65 C64 1_555 1_555
H43 C65 1_555 1_555
C66 N5 1_555 1_555
C67 C64 1_555 1_555
H44 C67 1_555 1_555
C68 C67 1_555 1_555
H45 C68 1_555 1_555
C69 C68 1_555 1_555
H46 C69 1_555 1_555
C70 C65 1_555 1_555
H47 C70 1_555 1_555
N6 C71 1_555 1_555
C71 C72 1_555 1_555
C72 C70 1_555 1_555
H48 C72 1_555 1_555
C73 C67 1_555 1_555
H49 C73 1_555 1_555
C74 N6 1_555 1_555
C75 C76 1_555 1_555
C76 H50 1_555 1_555
C77 C76 1_555 1_555
C78 C77 1_555 1_555
H51 C78 1_555 1_555
C79 N6 1_555 1_555
C80 C75 1_555 1_555
H52 C80 1_555 1_555
C81 C57 1_555 1_555
C82 O33 1_555 1_555
C83 C77 1_555 1_555
C84 C75 1_555 1_555
Cu9 O31 1_555 1_555
Cu12 O32 1_555 1_555
Cu13 O40 1_555 1_555
Cu16 O42 1_555 1_555
Cu17 O39 1_555 1_555
Cu20 O41 1_555 1_555
O45 Cu1 1_555 1_555
O47 Cu2 1_555 1_555
O49 Cu6 1_555 1_555
O51 Cu5 1_555 1_555
O54 Cu6 1_555 1_555
O56 Cu5 1_555 1_555
O6 C13 1_555 1_555
C51 C52 1_555 1_555
C51 C53 1_555 1_555
C53 C54 1_555 1_555
Cu5 Cu6 1_555 1_555
O34 C82 1_555 1_555
C59 C82 1_555 1_555
C61 C62 1_555 1_555
C65 C66 1_555 1_555
C69 C70 1_555 1_555
C72 C73 1_555 1_555
C73 C74 1_555 1_555
C78 C79 1_555 1_555
C79 C80 1_555 1_555
Cu9 Cu12 1_555 1_555
Cu13 Cu17 1_555 1_555
Cu16 Cu20 1_555 1_555
O1 H53 1_555 1_555
Cu1_2 Cu2_2 1_555 1_555
Cu2_2 O2_2 1_555 1_555
O1_2 Cu1_2 1_555 1_555
H1_2 O1_2 1_555 1_555
O2_2 H2_2 1_555 1_555
O43 Cu2_2 1_555 1_555
O44 Cu1_2 1_555 1_555
O46 Cu1_2 1_555 1_555
O48 Cu2_2 1_555 1_555
Cu9_2 Cu12_2 1_555 1_555
O2_2 H54 1_555 1_555
Cu3 Cu4 1_555 1_555
Cu4 O4 1_555 1_555
O3 Cu3 1_555 1_555
H3 O3 1_555 1_555
H4 O3 1_555 1_555
O4 H5 1_555 1_555
H6 O4 1_555 1_555
O7 Cu3 1_555 1_555
O8 Cu4 1_555 1_555
O10 C10 1_555 1_555
O11 C39 1_555 1_555
O12 C39 1_555 1_555
O13 Cu3 1_555 1_555
O14 Cu4 1_555 1_555
O15 C21 1_555 1_555
O16 C24 1_555 1_555
O17 C29 1_555 1_555
O18 C32 1_555 1_555
O19 C41 1_555 1_555
O20 C41 1_555 1_555
O21 C42 1_555 1_555
O22 C42 1_555 1_555
C1 C2 1_555 1_555
C2 H7 1_555 1_555
C3 C2 1_555 1_555
C4 C3 1_555 1_555
H8 C4 1_555 1_555
C5 C4 1_555 1_555
N1 C5 1_555 1_555
H11 C9 1_555 1_555
C10 N1 1_555 1_555
C11 C9 1_555 1_555
H12 C11 1_555 1_555
C12 C11 1_555 1_555
H13 C12 1_555 1_555
C14 O7 1_555 1_555
C15 C16 1_555 1_555
C16 H14 1_555 1_555
C17 C16 1_555 1_555
C18 C17 1_555 1_555
H15 C18 1_555 1_555
C19 C18 1_555 1_555
C20 C15 1_555 1_555
H16 C20 1_555 1_555
N2 C19 1_555 1_555
C21 N2 1_555 1_555
C22 C21 1_555 1_555
H17 C22 1_555 1_555
C23 C22 1_555 1_555
H18 C23 1_555 1_555
C24 N2 1_555 1_555
C25 C22 1_555 1_555
H19 C25 1_555 1_555
C26 C25 1_555 1_555
H20 C26 1_555 1_555
C27 C26 1_555 1_555
H21 C27 1_555 1_555
C28 C23 1_555 1_555
H22 C28 1_555 1_555
N3 C29 1_555 1_555
C29 C30 1_555 1_555
C30 C28 1_555 1_555
H23 C30 1_555 1_555
C31 C25 1_555 1_555
H24 C31 1_555 1_555
C32 N3 1_555 1_555
C33 C34 1_555 1_555
C34 H25 1_555 1_555
C35 C34 1_555 1_555
C36 C35 1_555 1_555
H26 C36 1_555 1_555
C37 N3 1_555 1_555
C38 C33 1_555 1_555
H27 C38 1_555 1_555
C39 C15 1_555 1_555
C40 O13 1_555 1_555
C41 C35 1_555 1_555
C42 C33 1_555 1_555
O23 C55 1_555 1_555
O24 C55 1_555 1_555
O27 C49 1_555 1_555
H30 C48 1_555 1_555
C50 C11 1_555 1_555
H31 C50 1_555 1_555
Cu7 O24 1_555 1_555
Cu8 O11 1_555 1_555
Cu10 O23 1_555 1_555
Cu11 O12 1_555 1_555
Cu14 O20 1_555 1_555
Cu15 O22 1_555 1_555
Cu18 O19 1_555 1_555
Cu19 O21 1_555 1_555
O50 Cu4 1_555 1_555
O52 Cu3 1_555 1_555
O53 Cu4 1_555 1_555
O55 Cu3 1_555 1_555
O8 C14 1_555 1_555
O14 C40 1_555 1_555
C3 C14 1_555 1_555
C9 C10 1_555 1_555
C17 C40 1_555 1_555
C19 C20 1_555 1_555
C23 C24 1_555 1_555
C27 C28 1_555 1_555
C30 C31 1_555 1_555
C31 C32 1_555 1_555
C36 C37 1_555 1_555
C37 C38 1_555 1_555
C49 C50 1_555 1_555
Cu7 Cu10 1_555 1_555
Cu8 Cu11 1_555 1_555
Cu14 Cu18 1_555 1_555
Cu15 Cu19 1_555 1_555
Cu7_2 Cu10_2 1_555 1_555
Cu8_2 Cu11_2 1_555 1_555
Cu10 O2_3 1_555 1_555
O1_3 Cu7 1_555 1_555
H1_3 O1_3 1_555 1_555
O2_3 H2_3 1_555 1_555
O45_2 Cu7 1_555 1_555
O47_2 Cu10 1_555 1_555
O1_3 H53_2 1_555 1_555
Cu10_2 O2_4 1_555 1_555
O1_4 Cu7_2 1_555 1_555
H1_4 O1_4 1_555 1_555
O2_4 H2_4 1_555 1_555
O43_2 Cu10_2 1_555 1_555
O44_2 Cu7_2 1_555 1_555
O46_2 Cu7_2 1_555 1_555
O48_2 Cu10_2 1_555 1_555
O2_4 H54_2 1_555 1_555
Cu11 O2_5 1_555 1_555
O1_5 Cu8 1_555 1_555
H1_5 O1_5 1_555 1_555
O2_5 H2_5 1_555 1_555
O5_2 Cu11 1_555 1_555
O6_2 Cu8 1_555 1_555
O9_2 C7_2 1_555 1_555
H9_2 C6_2 1_555 1_555
C8_2 C7_2 1_555 1_555
H10_2 C8_2 1_555 1_555
C13_2 O5_2 1_555 1_555
O25_2 C56_2 1_555 1_555
O26_2 C56_2 1_555 1_555
O28_2 C52_2 1_555 1_555
C43_2 C44_2 1_555 1_555
C44_2 H28_2 1_555 1_555
C45_2 C44_2 1_555 1_555
C46_2 C45_2 1_555 1_555
H29_2 C46_2 1_555 1_555
C47_2 C46_2 1_555 1_555
N4_2 C47_2 1_555 1_555
H32_2 C51_2 1_555 1_555
C52_2 N4_2 1_555 1_555
C53_2 C8_2 1_555 1_555
H33_2 C53_2 1_555 1_555
H34_2 C54_2 1_555 1_555
C56_2 C45_2 1_555 1_555
Cu5_2 O25_2 1_555 1_555
Cu6_2 O26_2 1_555 1_555
O29_2 Cu5_2 1_555 1_555
H35_2 O29_2 1_555 1_555
H36_2 O29_2 1_555 1_555
O30_2 Cu6_2 1_555 1_555
H37_2 O30_2 1_555 1_555
H38_2 O30_2 1_555 1_555
O45 C81_2 1_555 1_555
O47 C81_2 1_555 1_555
O33_2 Cu5_2 1_555 1_555
O34_2 Cu6_2 1_555 1_555
O35_2 C63_2 1_555 1_555
O36_2 C66_2 1_555 1_555
O37_2 C71_2 1_555 1_555
O38_2 C74_2 1_555 1_555
O39_2 C83_2 1_555 1_555
O40_2 C83_2 1_555 1_555
O41_2 C84_2 1_555 1_555
O42_2 C84_2 1_555 1_555
C57_2 C58_2 1_555 1_555
C58_2 H39_2 1_555 1_555
C59_2 C58_2 1_555 1_555
C60_2 C59_2 1_555 1_555
H40_2 C60_2 1_555 1_555
C61_2 C60_2 1_555 1_555
C62_2 C57_2 1_555 1_555
H41_2 C62_2 1_555 1_555
N5_2 C61_2 1_555 1_555
C63_2 N5_2 1_555 1_555
C64_2 C63_2 1_555 1_555
H42_2 C64_2 1_555 1_555
C65_2 C64_2 1_555 1_555
H43_2 C65_2 1_555 1_555
C66_2 N5_2 1_555 1_555
C67_2 C64_2 1_555 1_555
H44_2 C67_2 1_555 1_555
C68_2 C67_2 1_555 1_555
H45_2 C68_2 1_555 1_555
C69_2 C68_2 1_555 1_555
H46_2 C69_2 1_555 1_555
C70_2 C65_2 1_555 1_555
H47_2 C70_2 1_555 1_555
N6_2 C71_2 1_555 1_555
C71_2 C72_2 1_555 1_555
C72_2 C70_2 1_555 1_555
H48_2 C72_2 1_555 1_555
C73_2 C67_2 1_555 1_555
H49_2 C73_2 1_555 1_555
C74_2 N6_2 1_555 1_555
C75_2 C76_2 1_555 1_555
C76_2 H50_2 1_555 1_555
C77_2 C76_2 1_555 1_555
C78_2 C77_2 1_555 1_555
H51_2 C78_2 1_555 1_555
C79_2 N6_2 1_555 1_555
C80_2 C75_2 1_555 1_555
H52_2 C80_2 1_555 1_555
C81_2 C57_2 1_555 1_555
C82_2 O33_2 1_555 1_555
C83_2 C77_2 1_555 1_555
C84_2 C75_2 1_555 1_555
Cu16 O40_2 1_555 1_555
Cu14 O42_2 1_555 1_555
Cu20 O39_2 1_555 1_555
Cu18 O41_2 1_555 1_555
O49_2 Cu6_2 1_555 1_555
O51_2 Cu5_2 1_555 1_555
O54_2 Cu6_2 1_555 1_555
O56_2 Cu5_2 1_555 1_555
O6_2 C13_2 1_555 1_555
C51_2 C52_2 1_555 1_555
C51_2 C53_2 1_555 1_555
C53_2 C54_2 1_555 1_555
Cu5_2 Cu6_2 1_555 1_555
O34_2 C82_2 1_555 1_555
C59_2 C82_2 1_555 1_555
C61_2 C62_2 1_555 1_555
C65_2 C66_2 1_555 1_555
C69_2 C70_2 1_555 1_555
C72_2 C73_2 1_555 1_555
C73_2 C74_2 1_555 1_555
C78_2 C79_2 1_555 1_555
C79_2 C80_2 1_555 1_555
O1_5 H53_3 1_555 1_555
Cu11_2 O2_6 1_555 1_555
O1_6 Cu8_2 1_555 1_555
H1_6 O1_6 1_555 1_555
O2_6 H2_6 1_555 1_555
O43_3 Cu11_2 1_555 1_555
O44_3 Cu8_2 1_555 1_555
O46_3 Cu8_2 1_555 1_555
O48_3 Cu11_2 1_555 1_555
O2_6 H54_3 1_555 1_555
Cu3_2 Cu4_2 1_555 1_555
Cu4_2 O4_2 1_555 1_555
O3_2 Cu3_2 1_555 1_555
H3_2 O3_2 1_555 1_555
H4_2 O3_2 1_555 1_555
O4_2 H5_2 1_555 1_555
H6_2 O4_2 1_555 1_555
O7_2 Cu3_2 1_555 1_555
O8_2 Cu4_2 1_555 1_555
O10_2 C10_2 1_555 1_555
O45_2 C39_2 1_555 1_555
O47_2 C39_2 1_555 1_555
O13_2 Cu3_2 1_555 1_555
O14_2 Cu4_2 1_555 1_555
O15_2 C21_2 1_555 1_555
O16_2 C24_2 1_555 1_555
O17_2 C29_2 1_555 1_555
O18_2 C32_2 1_555 1_555
O19_2 C41_2 1_555 1_555
O20_2 C41_2 1_555 1_555
O21_2 C42_2 1_555 1_555
O22_2 C42_2 1_555 1_555
C1_2 C2_2 1_555 1_555
C2_2 H7_2 1_555 1_555
C3_2 C2_2 1_555 1_555
C4_2 C3_2 1_555 1_555
H8_2 C4_2 1_555 1_555
C5_2 C4_2 1_555 1_555
N1_2 C5_2 1_555 1_555
H11_2 C9_2 1_555 1_555
C10_2 N1_2 1_555 1_555
C11_2 C9_2 1_555 1_555
H12_2 C11_2 1_555 1_555
C12_2 C11_2 1_555 1_555
H13_2 C12_2 1_555 1_555
C14_2 O7_2 1_555 1_555
C15_2 C16_2 1_555 1_555
C16_2 H14_2 1_555 1_555
C17_2 C16_2 1_555 1_555
C18_2 C17_2 1_555 1_555
H15_2 C18_2 1_555 1_555
C19_2 C18_2 1_555 1_555
C20_2 C15_2 1_555 1_555
H16_2 C20_2 1_555 1_555
N2_2 C19_2 1_555 1_555
C21_2 N2_2 1_555 1_555
C22_2 C21_2 1_555 1_555
H17_2 C22_2 1_555 1_555
C23_2 C22_2 1_555 1_555
H18_2 C23_2 1_555 1_555
C24_2 N2_2 1_555 1_555
C25_2 C22_2 1_555 1_555
H19_2 C25_2 1_555 1_555
C26_2 C25_2 1_555 1_555
H20_2 C26_2 1_555 1_555
C27_2 C26_2 1_555 1_555
H21_2 C27_2 1_555 1_555
C28_2 C23_2 1_555 1_555
H22_2 C28_2 1_555 1_555
N3_2 C29_2 1_555 1_555
C29_2 C30_2 1_555 1_555
C30_2 C28_2 1_555 1_555
H23_2 C30_2 1_555 1_555
C31_2 C25_2 1_555 1_555
H24_2 C31_2 1_555 1_555
C32_2 N3_2 1_555 1_555
C33_2 C34_2 1_555 1_555
C34_2 H25_2 1_555 1_555
C35_2 C34_2 1_555 1_555
C36_2 C35_2 1_555 1_555
H26_2 C36_2 1_555 1_555
C37_2 N3_2 1_555 1_555
C38_2 C33_2 1_555 1_555
H27_2 C38_2 1_555 1_555
C39_2 C15_2 1_555 1_555
C40_2 O13_2 1_555 1_555
C41_2 C35_2 1_555 1_555
C42_2 C33_2 1_555 1_555
O23_2 C55_2 1_555 1_555
O24_2 C55_2 1_555 1_555
O27_2 C49_2 1_555 1_555
H30_2 C48_2 1_555 1_555
C50_2 C11_2 1_555 1_555
H31_2 C50_2 1_555 1_555
Cu9 O24_2 1_555 1_555
Cu12 O23_2 1_555 1_555
Cu15 O20_2 1_555 1_555
Cu13 O22_2 1_555 1_555
Cu19 O19_2 1_555 1_555
Cu17 O21_2 1_555 1_555
O50_2 Cu4_2 1_555 1_555
O52_2 Cu3_2 1_555 1_555
O53_2 Cu4_2 1_555 1_555
O55_2 Cu3_2 1_555 1_555
O8_2 C14_2 1_555 1_555
O14_2 C40_2 1_555 1_555
C3_2 C14_2 1_555 1_555
C9_2 C10_2 1_555 1_555
C17_2 C40_2 1_555 1_555
C19_2 C20_2 1_555 1_555
C23_2 C24_2 1_555 1_555
C27_2 C28_2 1_555 1_555
C30_2 C31_2 1_555 1_555
C31_2 C32_2 1_555 1_555
C36_2 C37_2 1_555 1_555
C37_2 C38_2 1_555 1_555
C49_2 C50_2 1_555 1_555
Cu12 O2_7 1_555 1_555
O1_7 Cu9 1_555 1_555
H1_7 O1_7 1_555 1_555
O2_7 H2_7 1_555 1_555
O1_7 H53_4 1_555 1_555
Cu12_2 O2_8 1_555 1_555
O1_8 Cu9_2 1_555 1_555
H1_8 O1_8 1_555 1_555
O2_8 H2_8 1_555 1_555
O43_4 Cu12_2 1_555 1_555
O44_4 Cu9_2 1_555 1_555
O46_4 Cu9_2 1_555 1_555
O48_4 Cu12_2 1_555 1_555
O2_8 H54_4 1_555 1_555
O49 C41_3 1_555 1_555
O51 C41_3 1_555 1_555
H12_3 C11_3 1_555 1_555
C12_3 C11_3 1_555 1_555
H13_3 C12_3 1_555 1_555
O23_3 C55_3 1_555 1_555
O24_3 C55_3 1_555 1_555
O25_3 C56_3 1_555 1_555
O26_3 C56_3 1_555 1_555
O27_3 C49_3 1_555 1_555
O28_3 C52_3 1_555 1_555
C43_3 C44_3 1_555 1_555
C44_3 H28_3 1_555 1_555
C45_3 C44_3 1_555 1_555
C46_3 C45_3 1_555 1_555
H29_3 C46_3 1_555 1_555
C47_3 C46_3 1_555 1_555
C48_3 C43_3 1_555 1_555
H30_3 C48_3 1_555 1_555
N4_3 C47_3 1_555 1_555
C49_3 N4_3 1_555 1_555
C50_3 C11_3 1_555 1_555
H31_3 C50_3 1_555 1_555
C51_3 C50_3 1_555 1_555
H32_3 C51_3 1_555 1_555
C52_3 N4_3 1_555 1_555
C55_3 C43_3 1_555 1_555
C56_3 C45_3 1_555 1_555
Cu14 O25_3 1_555 1_555
Cu18 O26_3 1_555 1_555
O29_3 Cu14 1_555 1_555
H35_3 O29_3 1_555 1_555
H36_3 O29_3 1_555 1_555
O30_3 Cu18 1_555 1_555
H37_3 O30_3 1_555 1_555
H38_3 O30_3 1_555 1_555
O31_2 C81_3 1_555 1_555
O32_2 C81_3 1_555 1_555
O33_3 Cu14 1_555 1_555
O34_3 Cu18 1_555 1_555
O35_3 C63_3 1_555 1_555
O36_3 C66_3 1_555 1_555
O37_3 C71_3 1_555 1_555
O38_3 C74_3 1_555 1_555
O54_2 C84_3 1_555 1_555
O56_2 C84_3 1_555 1_555
C57_3 C58_3 1_555 1_555
C58_3 H39_3 1_555 1_555
C59_3 C58_3 1_555 1_555
C60_3 C59_3 1_555 1_555
H40_3 C60_3 1_555 1_555
C61_3 C60_3 1_555 1_555
C62_3 C57_3 1_555 1_555
H41_3 C62_3 1_555 1_555
N5_3 C61_3 1_555 1_555
C63_3 N5_3 1_555 1_555
C64_3 C63_3 1_555 1_555
H42_3 C64_3 1_555 1_555
C65_3 C64_3 1_555 1_555
H43_3 C65_3 1_555 1_555
C66_3 N5_3 1_555 1_555
C67_3 C64_3 1_555 1_555
H44_3 C67_3 1_555 1_555
C68_3 C67_3 1_555 1_555
H45_3 C68_3 1_555 1_555
C69_3 C68_3 1_555 1_555
H46_3 C69_3 1_555 1_555
C70_3 C65_3 1_555 1_555
H47_3 C70_3 1_555 1_555
N6_3 C71_3 1_555 1_555
C71_3 C72_3 1_555 1_555
C72_3 C70_3 1_555 1_555
H48_3 C72_3 1_555 1_555
C73_3 C67_3 1_555 1_555
H49_3 C73_3 1_555 1_555
C74_3 N6_3 1_555 1_555
C75_3 C76_3 1_555 1_555
C76_3 H50_3 1_555 1_555
C77_3 C76_3 1_555 1_555
C78_3 C77_3 1_555 1_555
C79_3 N6_3 1_555 1_555
C80_3 C75_3 1_555 1_555
H52_3 C80_3 1_555 1_555
C81_3 C57_3 1_555 1_555
C82_3 O33_3 1_555 1_555
C84_3 C75_3 1_555 1_555
Cu7_3 O24_3 1_555 1_555
Cu9_3 O31_2 1_555 1_555
Cu10_3 O23_3 1_555 1_555
Cu12_3 O32_2 1_555 1_555
C47_3 C48_3 1_555 1_555
C49_3 C50_3 1_555 1_555
C51_3 C52_3 1_555 1_555
O34_3 C82_3 1_555 1_555
C59_3 C82_3 1_555 1_555
C61_3 C62_3 1_555 1_555
C65_3 C66_3 1_555 1_555
C69_3 C70_3 1_555 1_555
C72_3 C73_3 1_555 1_555
C73_3 C74_3 1_555 1_555
C78_3 C79_3 1_555 1_555
C79_3 C80_3 1_555 1_555
Cu7_3 Cu10_3 1_555 1_555
Cu9_3 Cu12_3 1_555 1_555
Cu1_3 Cu2_3 1_555 1_555
Cu2_3 O2_9 1_555 1_555
Cu17 O4_3 1_555 1_555
O1_9 Cu1_3 1_555 1_555
O3_3 Cu13 1_555 1_555
H3_3 O3_3 1_555 1_555
H4_3 O3_3 1_555 1_555
O4_3 H5_3 1_555 1_555
H6_3 O4_3 1_555 1_555
O5_3 Cu2_3 1_555 1_555
O6_3 Cu1_3 1_555 1_555
O7_3 Cu13 1_555 1_555
O8_3 Cu17 1_555 1_555
O9_3 C7_3 1_555 1_555
O10_3 C10_3 1_555 1_555
O11_2 C39_3 1_555 1_555
O12_2 C39_3 1_555 1_555
O13_3 Cu13 1_555 1_555
O14_3 Cu17 1_555 1_555
O15_3 C21_3 1_555 1_555
O16_3 C24_3 1_555 1_555
O17_3 C29_3 1_555 1_555
O18_3 C32_3 1_555 1_555
O53_2 C42_3 1_555 1_555
O55_2 C42_3 1_555 1_555
C1_3 C2_3 1_555 1_555
C2_3 H7_3 1_555 1_555
C3_3 C2_3 1_555 1_555
C4_3 C3_3 1_555 1_555
H8_3 C4_3 1_555 1_555
C5_3 C4_3 1_555 1_555
C6_3 C1_3 1_555 1_555
H9_3 C6_3 1_555 1_555
N1_3 C5_3 1_555 1_555
C7_3 N1_3 1_555 1_555
C8_3 C7_3 1_555 1_555
H10_3 C8_3 1_555 1_555
C9_3 C8_3 1_555 1_555
H11_3 C9_3 1_555 1_555
C10_3 N1_3 1_555 1_555
C13_3 O5_3 1_555 1_555
C14_3 O7_3 1_555 1_555
C15_3 C16_3 1_555 1_555
C16_3 H14_3 1_555 1_555
C17_3 C16_3 1_555 1_555
C18_3 C17_3 1_555 1_555
H15_3 C18_3 1_555 1_555
C19_3 C18_3 1_555 1_555
C20_3 C15_3 1_555 1_555
H16_3 C20_3 1_555 1_555
N2_3 C19_3 1_555 1_555
C21_3 N2_3 1_555 1_555
C22_3 C21_3 1_555 1_555
H17_3 C22_3 1_555 1_555
C23_3 C22_3 1_555 1_555
H18_3 C23_3 1_555 1_555
C24_3 N2_3 1_555 1_555
C25_3 C22_3 1_555 1_555
H19_3 C25_3 1_555 1_555
C26_3 C25_3 1_555 1_555
H20_3 C26_3 1_555 1_555
C27_3 C26_3 1_555 1_555
H21_3 C27_3 1_555 1_555
C28_3 C23_3 1_555 1_555
H22_3 C28_3 1_555 1_555
N3_3 C29_3 1_555 1_555
C29_3 C30_3 1_555 1_555
C30_3 C28_3 1_555 1_555
H23_3 C30_3 1_555 1_555
C31_3 C25_3 1_555 1_555
H24_3 C31_3 1_555 1_555
C32_3 N3_3 1_555 1_555
C33_3 C34_3 1_555 1_555
C34_3 H25_3 1_555 1_555
C35_3 C34_3 1_555 1_555
C36_3 C35_3 1_555 1_555
C37_3 N3_3 1_555 1_555
C38_3 C33_3 1_555 1_555
H27_3 C38_3 1_555 1_555
C39_3 C15_3 1_555 1_555
C40_3 O13_3 1_555 1_555
C42_3 C33_3 1_555 1_555
C53_3 C8_3 1_555 1_555
H33_3 C53_3 1_555 1_555
H34_3 C54_3 1_555 1_555
Cu8_3 O11_2 1_555 1_555
Cu11_3 O12_2 1_555 1_555
O43_5 Cu2_3 1_555 1_555
O44_5 Cu1_3 1_555 1_555
O45_3 Cu1_3 1_555 1_555
O46_5 Cu1_3 1_555 1_555
O47_3 Cu2_3 1_555 1_555
O48_5 Cu2_3 1_555 1_555
O6_3 C13_3 1_555 1_555
O8_3 C14_3 1_555 1_555
O14_3 C40_3 1_555 1_555
C1_3 C13_3 1_555 1_555
C3_3 C14_3 1_555 1_555
C5_3 C6_3 1_555 1_555
C9_3 C10_3 1_555 1_555
C17_3 C40_3 1_555 1_555
C19_3 C20_3 1_555 1_555
C23_3 C24_3 1_555 1_555
C27_3 C28_3 1_555 1_555
C30_3 C31_3 1_555 1_555
C31_3 C32_3 1_555 1_555
C36_3 C37_3 1_555 1_555
C37_3 C38_3 1_555 1_555
C53_3 C54_3 1_555 1_555
Cu8_3 Cu11_3 1_555 1_555
O50 C83_3 1_555 1_555
O52 C83_3 1_555 1_555
Cu10_3 O2_10 1_555 1_555
O1_10 Cu7_3 1_555 1_555
O43_6 Cu10_3 1_555 1_555
O44_6 Cu7_3 1_555 1_555
O45_4 Cu7_3 1_555 1_555
O46_6 Cu7_3 1_555 1_555
O47_4 Cu10_3 1_555 1_555
O48_6 Cu10_3 1_555 1_555
O49_2 C83_4 1_555 1_555
O51_2 C83_4 1_555 1_555
H12_4 C11_4 1_555 1_555
C12_4 C11_4 1_555 1_555
H13_4 C12_4 1_555 1_555
O23_4 C55_4 1_555 1_555
O24_4 C55_4 1_555 1_555
O25_4 C56_4 1_555 1_555
O26_4 C56_4 1_555 1_555
O27_4 C49_4 1_555 1_555
O28_4 C52_4 1_555 1_555
C43_4 C44_4 1_555 1_555
C44_4 H28_4 1_555 1_555
C45_4 C44_4 1_555 1_555
C46_4 C45_4 1_555 1_555
H29_4 C46_4 1_555 1_555
C47_4 C46_4 1_555 1_555
C48_4 C43_4 1_555 1_555
H30_4 C48_4 1_555 1_555
N4_4 C47_4 1_555 1_555
C49_4 N4_4 1_555 1_555
C50_4 C11_4 1_555 1_555
H31_4 C50_4 1_555 1_555
C51_4 C50_4 1_555 1_555
H32_4 C51_4 1_555 1_555
C52_4 N4_4 1_555 1_555
C55_4 C43_4 1_555 1_555
C56_4 C45_4 1_555 1_555
Cu16 O25_4 1_555 1_555
Cu20 O26_4 1_555 1_555
O29_4 Cu16 1_555 1_555
H35_4 O29_4 1_555 1_555
H36_4 O29_4 1_555 1_555
O30_4 Cu20 1_555 1_555
H37_4 O30_4 1_555 1_555
H38_4 O30_4 1_555 1_555
O45_3 C81_4 1_555 1_555
O47_3 C81_4 1_555 1_555
O33_4 Cu16 1_555 1_555
O34_4 Cu20 1_555 1_555
O35_4 C63_4 1_555 1_555
O36_4 C66_4 1_555 1_555
O37_4 C71_4 1_555 1_555
O38_4 C74_4 1_555 1_555
O54 C84_4 1_555 1_555
O56 C84_4 1_555 1_555
C57_4 C58_4 1_555 1_555
C58_4 H39_4 1_555 1_555
C59_4 C58_4 1_555 1_555
C60_4 C59_4 1_555 1_555
H40_4 C60_4 1_555 1_555
C61_4 C60_4 1_555 1_555
C62_4 C57_4 1_555 1_555
H41_4 C62_4 1_555 1_555
N5_4 C61_4 1_555 1_555
C63_4 N5_4 1_555 1_555
C64_4 C63_4 1_555 1_555
H42_4 C64_4 1_555 1_555
C65_4 C64_4 1_555 1_555
H43_4 C65_4 1_555 1_555
C66_4 N5_4 1_555 1_555
C67_4 C64_4 1_555 1_555
H44_4 C67_4 1_555 1_555
C68_4 C67_4 1_555 1_555
H45_4 C68_4 1_555 1_555
C69_4 C68_4 1_555 1_555
H46_4 C69_4 1_555 1_555
C70_4 C65_4 1_555 1_555
H47_4 C70_4 1_555 1_555
N6_4 C71_4 1_555 1_555
C71_4 C72_4 1_555 1_555
C72_4 C70_4 1_555 1_555
H48_4 C72_4 1_555 1_555
C73_4 C67_4 1_555 1_555
H49_4 C73_4 1_555 1_555
C74_4 N6_4 1_555 1_555
C75_4 C76_4 1_555 1_555
C76_4 H50_4 1_555 1_555
C77_4 C76_4 1_555 1_555
C78_4 C77_4 1_555 1_555
C79_4 N6_4 1_555 1_555
C80_4 C75_4 1_555 1_555
H52_4 C80_4 1_555 1_555
C81_4 C57_4 1_555 1_555
C82_4 O33_4 1_555 1_555
C84_4 C75_4 1_555 1_555
Cu9_3 O24_4 1_555 1_555
Cu12_3 O23_4 1_555 1_555
C47_4 C48_4 1_555 1_555
C49_4 C50_4 1_555 1_555
C51_4 C52_4 1_555 1_555
O34_4 C82_4 1_555 1_555
C59_4 C82_4 1_555 1_555
C61_4 C62_4 1_555 1_555
C65_4 C66_4 1_555 1_555
C69_4 C70_4 1_555 1_555
C72_4 C73_4 1_555 1_555
C73_4 C74_4 1_555 1_555
C78_4 C79_4 1_555 1_555
C79_4 C80_4 1_555 1_555
Cu11_3 O2_11 1_555 1_555
Cu19 O4_4 1_555 1_555
O1_11 Cu8_3 1_555 1_555
O3_4 Cu15 1_555 1_555
H3_4 O3_4 1_555 1_555
H4_4 O3_4 1_555 1_555
O4_4 H5_4 1_555 1_555
H6_4 O4_4 1_555 1_555
O5_4 Cu11_3 1_555 1_555
O6_4 Cu8_3 1_555 1_555
O7_4 Cu15 1_555 1_555
O8_4 Cu19 1_555 1_555
O9_4 C7_4 1_555 1_555
O10_4 C10_4 1_555 1_555
O45_4 C39_4 1_555 1_555
O47_4 C39_4 1_555 1_555
O13_4 Cu15 1_555 1_555
O14_4 Cu19 1_555 1_555
O15_4 C21_4 1_555 1_555
O16_4 C24_4 1_555 1_555
O17_4 C29_4 1_555 1_555
O18_4 C32_4 1_555 1_555
O53 C42_4 1_555 1_555
O55 C42_4 1_555 1_555
C1_4 C2_4 1_555 1_555
C2_4 H7_4 1_555 1_555
C3_4 C2_4 1_555 1_555
C4_4 C3_4 1_555 1_555
H8_4 C4_4 1_555 1_555
C5_4 C4_4 1_555 1_555
C6_4 C1_4 1_555 1_555
H9_4 C6_4 1_555 1_555
N1_4 C5_4 1_555 1_555
C7_4 N1_4 1_555 1_555
C8_4 C7_4 1_555 1_555
H10_4 C8_4 1_555 1_555
C9_4 C8_4 1_555 1_555
H11_4 C9_4 1_555 1_555
C10_4 N1_4 1_555 1_555
C13_4 O5_4 1_555 1_555
C14_4 O7_4 1_555 1_555
C15_4 C16_4 1_555 1_555
C16_4 H14_4 1_555 1_555
C17_4 C16_4 1_555 1_555
C18_4 C17_4 1_555 1_555
H15_4 C18_4 1_555 1_555
C19_4 C18_4 1_555 1_555
C20_4 C15_4 1_555 1_555
H16_4 C20_4 1_555 1_555
N2_4 C19_4 1_555 1_555
C21_4 N2_4 1_555 1_555
C22_4 C21_4 1_555 1_555
H17_4 C22_4 1_555 1_555
C23_4 C22_4 1_555 1_555
H18_4 C23_4 1_555 1_555
C24_4 N2_4 1_555 1_555
C25_4 C22_4 1_555 1_555
H19_4 C25_4 1_555 1_555
C26_4 C25_4 1_555 1_555
H20_4 C26_4 1_555 1_555
C27_4 C26_4 1_555 1_555
H21_4 C27_4 1_555 1_555
C28_4 C23_4 1_555 1_555
H22_4 C28_4 1_555 1_555
N3_4 C29_4 1_555 1_555
C29_4 C30_4 1_555 1_555
C30_4 C28_4 1_555 1_555
H23_4 C30_4 1_555 1_555
C31_4 C25_4 1_555 1_555
H24_4 C31_4 1_555 1_555
C32_4 N3_4 1_555 1_555
C33_4 C34_4 1_555 1_555
C34_4 H25_4 1_555 1_555
C35_4 C34_4 1_555 1_555
C36_4 C35_4 1_555 1_555
C37_4 N3_4 1_555 1_555
C38_4 C33_4 1_555 1_555
H27_4 C38_4 1_555 1_555
C39_4 C15_4 1_555 1_555
C40_4 O13_4 1_555 1_555
C42_4 C33_4 1_555 1_555
C53_4 C8_4 1_555 1_555
H33_4 C53_4 1_555 1_555
H34_4 C54_4 1_555 1_555
O43_7 Cu11_3 1_555 1_555
O44_7 Cu8_3 1_555 1_555
O46_7 Cu8_3 1_555 1_555
O48_7 Cu11_3 1_555 1_555
O6_4 C13_4 1_555 1_555
O8_4 C14_4 1_555 1_555
O14_4 C40_4 1_555 1_555
C1_4 C13_4 1_555 1_555
C3_4 C14_4 1_555 1_555
C5_4 C6_4 1_555 1_555
C9_4 C10_4 1_555 1_555
C17_4 C40_4 1_555 1_555
C19_4 C20_4 1_555 1_555
C23_4 C24_4 1_555 1_555
C27_4 C28_4 1_555 1_555
C30_4 C31_4 1_555 1_555
C31_4 C32_4 1_555 1_555
C36_4 C37_4 1_555 1_555
C37_4 C38_4 1_555 1_555
C53_4 C54_4 1_555 1_555
O50_2 C41_4 1_555 1_555
O52_2 C41_4 1_555 1_555
Cu12_3 O2_12 1_555 1_555
O1_12 Cu9_3 1_555 1_555
O43_8 Cu12_3 1_555 1_555
O44_8 Cu9_3 1_555 1_555
O46_8 Cu9_3 1_555 1_555
O48_8 Cu12_3 1_555 1_555
Cu3_3 Cu4_3 1_555 1_555
Cu4_3 O4_5 1_555 1_555
O3_5 Cu3_3 1_555 1_555
H3_5 O3_5 1_555 1_555
H4_5 O3_5 1_555 1_555
O4_5 H5_5 1_555 1_555
H6_5 O4_5 1_555 1_555
O7_5 Cu3_3 1_555 1_555
O8_5 Cu4_3 1_555 1_555
O10_5 C10_5 1_555 1_555
O46_4 C39_5 1_555 1_555
O48_4 C39_5 1_555 1_555
O13_5 Cu3_3 1_555 1_555
O14_5 Cu4_3 1_555 1_555
O15_5 C21_5 1_555 1_555
O16_5 C24_5 1_555 1_555
O17_5 C29_5 1_555 1_555
O18_5 C32_5 1_555 1_555
O19_3 C41_5 1_555 1_555
O20_3 C41_5 1_555 1_555
O21_3 C42_5 1_555 1_555
O22_3 C42_5 1_555 1_555
C1_5 C2_5 1_555 1_555
C2_5 H7_5 1_555 1_555
C3_5 C2_5 1_555 1_555
C4_5 C3_5 1_555 1_555
H8_5 C4_5 1_555 1_555
C5_5 C4_5 1_555 1_555
N1_5 C5_5 1_555 1_555
H11_5 C9_5 1_555 1_555
C10_5 N1_5 1_555 1_555
C11_5 C9_5 1_555 1_555
H12_5 C11_5 1_555 1_555
C12_5 C11_5 1_555 1_555
H13_5 C12_5 1_555 1_555
C14_5 O7_5 1_555 1_555
C15_5 C16_5 1_555 1_555
C16_5 H14_5 1_555 1_555
C17_5 C16_5 1_555 1_555
C18_5 C17_5 1_555 1_555
H15_5 C18_5 1_555 1_555
C19_5 C18_5 1_555 1_555
C20_5 C15_5 1_555 1_555
H16_5 C20_5 1_555 1_555
N2_5 C19_5 1_555 1_555
C21_5 N2_5 1_555 1_555
C22_5 C21_5 1_555 1_555
H17_5 C22_5 1_555 1_555
C23_5 C22_5 1_555 1_555
H18_5 C23_5 1_555 1_555
C24_5 N2_5 1_555 1_555
C25_5 C22_5 1_555 1_555
H19_5 C25_5 1_555 1_555
C26_5 C25_5 1_555 1_555
H20_5 C26_5 1_555 1_555
C27_5 C26_5 1_555 1_555
H21_5 C27_5 1_555 1_555
C28_5 C23_5 1_555 1_555
H22_5 C28_5 1_555 1_555
N3_5 C29_5 1_555 1_555
C29_5 C30_5 1_555 1_555
C30_5 C28_5 1_555 1_555
H23_5 C30_5 1_555 1_555
C31_5 C25_5 1_555 1_555
H24_5 C31_5 1_555 1_555
C32_5 N3_5 1_555 1_555
C33_5 C34_5 1_555 1_555
C34_5 H25_5 1_555 1_555
C35_5 C34_5 1_555 1_555
C36_5 C35_5 1_555 1_555
H26_5 C36_5 1_555 1_555
C37_5 N3_5 1_555 1_555
C38_5 C33_5 1_555 1_555
H27_5 C38_5 1_555 1_555
C39_5 C15_5 1_555 1_555
C40_5 O13_5 1_555 1_555
C41_5 C35_5 1_555 1_555
C42_5 C33_5 1_555 1_555
O43 C55_5 1_555 1_555
O44 C55_5 1_555 1_555
O27_5 C49_5 1_555 1_555
H30_5 C48_5 1_555 1_555
C50_5 C11_5 1_555 1_555
H31_5 C50_5 1_555 1_555
Cu14_2 O20_3 1_555 1_555
Cu15_2 O22_3 1_555 1_555
Cu18_2 O19_3 1_555 1_555
Cu19_2 O21_3 1_555 1_555
O50_3 Cu4_3 1_555 1_555
O52_3 Cu3_3 1_555 1_555
O53_3 Cu4_3 1_555 1_555
O55_3 Cu3_3 1_555 1_555
O8_5 C14_5 1_555 1_555
O14_5 C40_5 1_555 1_555
C3_5 C14_5 1_555 1_555
C9_5 C10_5 1_555 1_555
C17_5 C40_5 1_555 1_555
C19_5 C20_5 1_555 1_555
C23_5 C24_5 1_555 1_555
C27_5 C28_5 1_555 1_555
C30_5 C31_5 1_555 1_555
C31_5 C32_5 1_555 1_555
C36_5 C37_5 1_555 1_555
C37_5 C38_5 1_555 1_555
C49_5 C50_5 1_555 1_555
Cu14_2 Cu18_2 1_555 1_555
Cu15_2 Cu19_2 1_555 1_555
O2_3 H54_5 1_555 1_555
O9_5 C7_5 1_555 1_555
H9_5 C6_5 1_555 1_555
C8_5 C7_5 1_555 1_555
H10_5 C8_5 1_555 1_555
C13_5 O43_2 1_555 1_555
O25_5 C56_5 1_555 1_555
O26_5 C56_5 1_555 1_555
O28_5 C52_5 1_555 1_555
C43_5 C44_5 1_555 1_555
C44_5 H28_5 1_555 1_555
C45_5 C44_5 1_555 1_555
C46_5 C45_5 1_555 1_555
H29_5 C46_5 1_555 1_555
C47_5 C46_5 1_555 1_555
N4_5 C47_5 1_555 1_555
H32_5 C51_5 1_555 1_555
C52_5 N4_5 1_555 1_555
C53_5 C8_5 1_555 1_555
H33_5 C53_5 1_555 1_555
H34_5 C54_5 1_555 1_555
C56_5 C45_5 1_555 1_555
Cu5_3 O25_5 1_555 1_555
Cu6_3 O26_5 1_555 1_555
O29_5 Cu5_3 1_555 1_555
H35_5 O29_5 1_555 1_555
H36_5 O29_5 1_555 1_555
O30_5 Cu6_3 1_555 1_555
H37_5 O30_5 1_555 1_555
H38_5 O30_5 1_555 1_555
O46_3 C81_5 1_555 1_555
O48_3 C81_5 1_555 1_555
O33_5 Cu5_3 1_555 1_555
O34_5 Cu6_3 1_555 1_555
O35_5 C63_5 1_555 1_555
O36_5 C66_5 1_555 1_555
O37_5 C71_5 1_555 1_555
O38_5 C74_5 1_555 1_555
O39_3 C83_5 1_555 1_555
O40_3 C83_5 1_555 1_555
O41_3 C84_5 1_555 1_555
O42_3 C84_5 1_555 1_555
C57_5 C58_5 1_555 1_555
C58_5 H39_5 1_555 1_555
C59_5 C58_5 1_555 1_555
C60_5 C59_5 1_555 1_555
H40_5 C60_5 1_555 1_555
C61_5 C60_5 1_555 1_555
C62_5 C57_5 1_555 1_555
H41_5 C62_5 1_555 1_555
N5_5 C61_5 1_555 1_555
C63_5 N5_5 1_555 1_555
C64_5 C63_5 1_555 1_555
H42_5 C64_5 1_555 1_555
C65_5 C64_5 1_555 1_555
H43_5 C65_5 1_555 1_555
C66_5 N5_5 1_555 1_555
C67_5 C64_5 1_555 1_555
H44_5 C67_5 1_555 1_555
C68_5 C67_5 1_555 1_555
H45_5 C68_5 1_555 1_555
C69_5 C68_5 1_555 1_555
H46_5 C69_5 1_555 1_555
C70_5 C65_5 1_555 1_555
H47_5 C70_5 1_555 1_555
N6_5 C71_5 1_555 1_555
C71_5 C72_5 1_555 1_555
C72_5 C70_5 1_555 1_555
H48_5 C72_5 1_555 1_555
C73_5 C67_5 1_555 1_555
H49_5 C73_5 1_555 1_555
C74_5 N6_5 1_555 1_555
C75_5 C76_5 1_555 1_555
C76_5 H50_5 1_555 1_555
C77_5 C76_5 1_555 1_555
C78_5 C77_5 1_555 1_555
H51_5 C78_5 1_555 1_555
C79_5 N6_5 1_555 1_555
C80_5 C75_5 1_555 1_555
H52_5 C80_5 1_555 1_555
C81_5 C57_5 1_555 1_555
C82_5 O33_5 1_555 1_555
C83_5 C77_5 1_555 1_555
C84_5 C75_5 1_555 1_555
Cu13_2 O40_3 1_555 1_555
Cu16_2 O42_3 1_555 1_555
Cu17_2 O39_3 1_555 1_555
Cu20_2 O41_3 1_555 1_555
O49_3 Cu6_3 1_555 1_555
O51_3 Cu5_3 1_555 1_555
O54_3 Cu6_3 1_555 1_555
O56_3 Cu5_3 1_555 1_555
O44_2 C13_5 1_555 1_555
C51_5 C52_5 1_555 1_555
C51_5 C53_5 1_555 1_555
C53_5 C54_5 1_555 1_555
Cu5_3 Cu6_3 1_555 1_555
O34_5 C82_5 1_555 1_555
C59_5 C82_5 1_555 1_555
C61_5 C62_5 1_555 1_555
C65_5 C66_5 1_555 1_555
C69_5 C70_5 1_555 1_555
C72_5 C73_5 1_555 1_555
C73_5 C74_5 1_555 1_555
C78_5 C79_5 1_555 1_555
C79_5 C80_5 1_555 1_555
Cu13_2 Cu17_2 1_555 1_555
Cu16_2 Cu20_2 1_555 1_555
O1_4 H53_5 1_555 1_555
O2 H54_6 1_555 1_555
O1_2 H53_6 1_555 1_555
Cu3_4 Cu4_4 1_555 1_555
Cu4_4 O4_6 1_555 1_555
O3_6 Cu3_4 1_555 1_555
H3_6 O3_6 1_555 1_555
H4_6 O3_6 1_555 1_555
O4_6 H5_6 1_555 1_555
H6_6 O4_6 1_555 1_555
O7_6 Cu3_4 1_555 1_555
O8_6 Cu4_4 1_555 1_555
O10_6 C10_6 1_555 1_555
O46 C39_6 1_555 1_555
O48 C39_6 1_555 1_555
O13_6 Cu3_4 1_555 1_555
O14_6 Cu4_4 1_555 1_555
O15_6 C21_6 1_555 1_555
O16_6 C24_6 1_555 1_555
O17_6 C29_6 1_555 1_555
O18_6 C32_6 1_555 1_555
O19_4 C41_6 1_555 1_555
O20_4 C41_6 1_555 1_555
O21_4 C42_6 1_555 1_555
O22_4 C42_6 1_555 1_555
C1_6 C2_6 1_555 1_555
C2_6 H7_6 1_555 1_555
C3_6 C2_6 1_555 1_555
C4_6 C3_6 1_555 1_555
H8_6 C4_6 1_555 1_555
C5_6 C4_6 1_555 1_555
N1_6 C5_6 1_555 1_555
H11_6 C9_6 1_555 1_555
C10_6 N1_6 1_555 1_555
C11_6 C9_6 1_555 1_555
H12_6 C11_6 1_555 1_555
C12_6 C11_6 1_555 1_555
H13_6 C12_6 1_555 1_555
C14_6 O7_6 1_555 1_555
C15_6 C16_6 1_555 1_555
C16_6 H14_6 1_555 1_555
C17_6 C16_6 1_555 1_555
C18_6 C17_6 1_555 1_555
H15_6 C18_6 1_555 1_555
C19_6 C18_6 1_555 1_555
C20_6 C15_6 1_555 1_555
H16_6 C20_6 1_555 1_555
N2_6 C19_6 1_555 1_555
C21_6 N2_6 1_555 1_555
C22_6 C21_6 1_555 1_555
H17_6 C22_6 1_555 1_555
C23_6 C22_6 1_555 1_555
H18_6 C23_6 1_555 1_555
C24_6 N2_6 1_555 1_555
C25_6 C22_6 1_555 1_555
H19_6 C25_6 1_555 1_555
C26_6 C25_6 1_555 1_555
H20_6 C26_6 1_555 1_555
C27_6 C26_6 1_555 1_555
H21_6 C27_6 1_555 1_555
C28_6 C23_6 1_555 1_555
H22_6 C28_6 1_555 1_555
N3_6 C29_6 1_555 1_555
C29_6 C30_6 1_555 1_555
C30_6 C28_6 1_555 1_555
H23_6 C30_6 1_555 1_555
C31_6 C25_6 1_555 1_555
H24_6 C31_6 1_555 1_555
C32_6 N3_6 1_555 1_555
C33_6 C34_6 1_555 1_555
C34_6 H25_6 1_555 1_555
C35_6 C34_6 1_555 1_555
C36_6 C35_6 1_555 1_555
H26_6 C36_6 1_555 1_555
C37_6 N3_6 1_555 1_555
C38_6 C33_6 1_555 1_555
H27_6 C38_6 1_555 1_555
C39_6 C15_6 1_555 1_555
C40_6 O13_6 1_555 1_555
C41_6 C35_6 1_555 1_555
C42_6 C33_6 1_555 1_555
O43_3 C55_6 1_555 1_555
O44_3 C55_6 1_555 1_555
O27_6 C49_6 1_555 1_555
H30_6 C48_6 1_555 1_555
C50_6 C11_6 1_555 1_555
H31_6 C50_6 1_555 1_555
Cu15_2 O20_4 1_555 1_555
Cu13_2 O22_4 1_555 1_555
Cu19_2 O19_4 1_555 1_555
Cu17_2 O21_4 1_555 1_555
O50_4 Cu4_4 1_555 1_555
O52_4 Cu3_4 1_555 1_555
O53_4 Cu4_4 1_555 1_555
O55_4 Cu3_4 1_555 1_555
O8_6 C14_6 1_555 1_555
O14_6 C40_6 1_555 1_555
C3_6 C14_6 1_555 1_555
C9_6 C10_6 1_555 1_555
C17_6 C40_6 1_555 1_555
C19_6 C20_6 1_555 1_555
C23_6 C24_6 1_555 1_555
C27_6 C28_6 1_555 1_555
C30_6 C31_6 1_555 1_555
C31_6 C32_6 1_555 1_555
C36_6 C37_6 1_555 1_555
C37_6 C38_6 1_555 1_555
C49_6 C50_6 1_555 1_555
O2_7 H54_7 1_555 1_555
O9_6 C7_6 1_555 1_555
H9_6 C6_6 1_555 1_555
C8_6 C7_6 1_555 1_555
H10_6 C8_6 1_555 1_555
C13_6 O43_4 1_555 1_555
O25_6 C56_6 1_555 1_555
O26_6 C56_6 1_555 1_555
O28_6 C52_6 1_555 1_555
C43_6 C44_6 1_555 1_555
C44_6 H28_6 1_555 1_555
C45_6 C44_6 1_555 1_555
C46_6 C45_6 1_555 1_555
H29_6 C46_6 1_555 1_555
C47_6 C46_6 1_555 1_555
N4_6 C47_6 1_555 1_555
H32_6 C51_6 1_555 1_555
C52_6 N4_6 1_555 1_555
C53_6 C8_6 1_555 1_555
H33_6 C53_6 1_555 1_555
H34_6 C54_6 1_555 1_555
C56_6 C45_6 1_555 1_555
Cu5_4 O25_6 1_555 1_555
Cu6_4 O26_6 1_555 1_555
O29_6 Cu5_4 1_555 1_555
H35_6 O29_6 1_555 1_555
H36_6 O29_6 1_555 1_555
O30_6 Cu6_4 1_555 1_555
H37_6 O30_6 1_555 1_555
H38_6 O30_6 1_555 1_555
O46_2 C81_6 1_555 1_555
O48_2 C81_6 1_555 1_555
O33_6 Cu5_4 1_555 1_555
O34_6 Cu6_4 1_555 1_555
O35_6 C63_6 1_555 1_555
O36_6 C66_6 1_555 1_555
O37_6 C71_6 1_555 1_555
O38_6 C74_6 1_555 1_555
O39_4 C83_6 1_555 1_555
O40_4 C83_6 1_555 1_555
O41_4 C84_6 1_555 1_555
O42_4 C84_6 1_555 1_555
C57_6 C58_6 1_555 1_555
C58_6 H39_6 1_555 1_555
C59_6 C58_6 1_555 1_555
C60_6 C59_6 1_555 1_555
H40_6 C60_6 1_555 1_555
C61_6 C60_6 1_555 1_555
C62_6 C57_6 1_555 1_555
H41_6 C62_6 1_555 1_555
N5_6 C61_6 1_555 1_555
C63_6 N5_6 1_555 1_555
C64_6 C63_6 1_555 1_555
H42_6 C64_6 1_555 1_555
C65_6 C64_6 1_555 1_555
H43_6 C65_6 1_555 1_555
C66_6 N5_6 1_555 1_555
C67_6 C64_6 1_555 1_555
H44_6 C67_6 1_555 1_555
C68_6 C67_6 1_555 1_555
H45_6 C68_6 1_555 1_555
C69_6 C68_6 1_555 1_555
H46_6 C69_6 1_555 1_555
C70_6 C65_6 1_555 1_555
H47_6 C70_6 1_555 1_555
N6_6 C71_6 1_555 1_555
C71_6 C72_6 1_555 1_555
C72_6 C70_6 1_555 1_555
H48_6 C72_6 1_555 1_555
C73_6 C67_6 1_555 1_555
H49_6 C73_6 1_555 1_555
C74_6 N6_6 1_555 1_555
C75_6 C76_6 1_555 1_555
C76_6 H50_6 1_555 1_555
C77_6 C76_6 1_555 1_555
C78_6 C77_6 1_555 1_555
H51_6 C78_6 1_555 1_555
C79_6 N6_6 1_555 1_555
C80_6 C75_6 1_555 1_555
H52_6 C80_6 1_555 1_555
C81_6 C57_6 1_555 1_555
C82_6 O33_6 1_555 1_555
C83_6 C77_6 1_555 1_555
C84_6 C75_6 1_555 1_555
Cu16_2 O40_4 1_555 1_555
Cu14_2 O42_4 1_555 1_555
Cu20_2 O39_4 1_555 1_555
Cu18_2 O41_4 1_555 1_555
O49_4 Cu6_4 1_555 1_555
O51_4 Cu5_4 1_555 1_555
O54_4 Cu6_4 1_555 1_555
O56_4 Cu5_4 1_555 1_555
O44_4 C13_6 1_555 1_555
C51_6 C52_6 1_555 1_555
C51_6 C53_6 1_555 1_555
C53_6 C54_6 1_555 1_555
Cu5_4 Cu6_4 1_555 1_555
O34_6 C82_6 1_555 1_555
C59_6 C82_6 1_555 1_555
C61_6 C62_6 1_555 1_555
C65_6 C66_6 1_555 1_555
C69_6 C70_6 1_555 1_555
C72_6 C73_6 1_555 1_555
C73_6 C74_6 1_555 1_555
C78_6 C79_6 1_555 1_555
C79_6 C80_6 1_555 1_555
O1_8 H53_7 1_555 1_555
O2_5 H54_8 1_555 1_555
O1_6 H53_8 1_555 1_555
O50_3 C83_7 1_555 1_555
O52_3 C83_7 1_555 1_555
Cu17_2 O4_7 1_555 1_555
O3_7 Cu13_2 1_555 1_555
H3_7 O3_7 1_555 1_555
H4_7 O3_7 1_555 1_555
O4_7 H5_7 1_555 1_555
H6_7 O4_7 1_555 1_555
O7_7 Cu13_2 1_555 1_555
O8_7 Cu17_2 1_555 1_555
O9_7 C7_7 1_555 1_555
O10_7 C10_7 1_555 1_555
O46_8 C39_7 1_555 1_555
O48_8 C39_7 1_555 1_555
O13_7 Cu13_2 1_555 1_555
O14_7 Cu17_2 1_555 1_555
O15_7 C21_7 1_555 1_555
O16_7 C24_7 1_555 1_555
O17_7 C29_7 1_555 1_555
O18_7 C32_7 1_555 1_555
O53_4 C42_7 1_555 1_555
O55_4 C42_7 1_555 1_555
C1_7 C2_7 1_555 1_555
C2_7 H7_7 1_555 1_555
C3_7 C2_7 1_555 1_555
C4_7 C3_7 1_555 1_555
H8_7 C4_7 1_555 1_555
C5_7 C4_7 1_555 1_555
C6_7 C1_7 1_555 1_555
H9_7 C6_7 1_555 1_555
N1_7 C5_7 1_555 1_555
C7_7 N1_7 1_555 1_555
C8_7 C7_7 1_555 1_555
H10_7 C8_7 1_555 1_555
C9_7 C8_7 1_555 1_555
H11_7 C9_7 1_555 1_555
C10_7 N1_7 1_555 1_555
C13_7 O43_6 1_555 1_555
C14_7 O7_7 1_555 1_555
C15_7 C16_7 1_555 1_555
C16_7 H14_7 1_555 1_555
C17_7 C16_7 1_555 1_555
C18_7 C17_7 1_555 1_555
H15_7 C18_7 1_555 1_555
C19_7 C18_7 1_555 1_555
C20_7 C15_7 1_555 1_555
H16_7 C20_7 1_555 1_555
N2_7 C19_7 1_555 1_555
C21_7 N2_7 1_555 1_555
C22_7 C21_7 1_555 1_555
H17_7 C22_7 1_555 1_555
C23_7 C22_7 1_555 1_555
H18_7 C23_7 1_555 1_555
C24_7 N2_7 1_555 1_555
C25_7 C22_7 1_555 1_555
H19_7 C25_7 1_555 1_555
C26_7 C25_7 1_555 1_555
H20_7 C26_7 1_555 1_555
C27_7 C26_7 1_555 1_555
H21_7 C27_7 1_555 1_555
C28_7 C23_7 1_555 1_555
H22_7 C28_7 1_555 1_555
N3_7 C29_7 1_555 1_555
C29_7 C30_7 1_555 1_555
C30_7 C28_7 1_555 1_555
H23_7 C30_7 1_555 1_555
C31_7 C25_7 1_555 1_555
H24_7 C31_7 1_555 1_555
C32_7 N3_7 1_555 1_555
C33_7 C34_7 1_555 1_555
C34_7 H25_7 1_555 1_555
C35_7 C34_7 1_555 1_555
C36_7 C35_7 1_555 1_555
C37_7 N3_7 1_555 1_555
C38_7 C33_7 1_555 1_555
H27_7 C38_7 1_555 1_555
C39_7 C15_7 1_555 1_555
C40_7 O13_7 1_555 1_555
C42_7 C33_7 1_555 1_555
C53_7 C8_7 1_555 1_555
H33_7 C53_7 1_555 1_555
H34_7 C54_7 1_555 1_555
O44_6 C13_7 1_555 1_555
O8_7 C14_7 1_555 1_555
O14_7 C40_7 1_555 1_555
C1_7 C13_7 1_555 1_555
C3_7 C14_7 1_555 1_555
C5_7 C6_7 1_555 1_555
C9_7 C10_7 1_555 1_555
C17_7 C40_7 1_555 1_555
C19_7 C20_7 1_555 1_555
C23_7 C24_7 1_555 1_555
C27_7 C28_7 1_555 1_555
C30_7 C31_7 1_555 1_555
C31_7 C32_7 1_555 1_555
C36_7 C37_7 1_555 1_555
C37_7 C38_7 1_555 1_555
C53_7 C54_7 1_555 1_555
H12_7 C11_7 1_555 1_555
C12_7 C11_7 1_555 1_555
H13_7 C12_7 1_555 1_555
O43_5 C55_7 1_555 1_555
O44_5 C55_7 1_555 1_555
O25_7 C56_7 1_555 1_555
O26_7 C56_7 1_555 1_555
O27_7 C49_7 1_555 1_555
O28_7 C52_7 1_555 1_555
C43_7 C44_7 1_555 1_555
C44_7 H28_7 1_555 1_555
C45_7 C44_7 1_555 1_555
C46_7 C45_7 1_555 1_555
H29_7 C46_7 1_555 1_555
C47_7 C46_7 1_555 1_555
C48_7 C43_7 1_555 1_555
H30_7 C48_7 1_555 1_555
N4_7 C47_7 1_555 1_555
C49_7 N4_7 1_555 1_555
C50_7 C11_7 1_555 1_555
H31_7 C50_7 1_555 1_555
C51_7 C50_7 1_555 1_555
H32_7 C51_7 1_555 1_555
C52_7 N4_7 1_555 1_555
C55_7 C43_7 1_555 1_555
C56_7 C45_7 1_555 1_555
Cu14_2 O25_7 1_555 1_555
Cu18_2 O26_7 1_555 1_555
O29_7 Cu14_2 1_555 1_555
H35_7 O29_7 1_555 1_555
H36_7 O29_7 1_555 1_555
O30_7 Cu18_2 1_555 1_555
H37_7 O30_7 1_555 1_555
H38_7 O30_7 1_555 1_555
O46_7 C81_7 1_555 1_555
O48_7 C81_7 1_555 1_555
O33_7 Cu14_2 1_555 1_555
O34_7 Cu18_2 1_555 1_555
O35_7 C63_7 1_555 1_555
O36_7 C66_7 1_555 1_555
O37_7 C71_7 1_555 1_555
O38_7 C74_7 1_555 1_555
O54_4 C84_7 1_555 1_555
O56_4 C84_7 1_555 1_555
C57_7 C58_7 1_555 1_555
C58_7 H39_7 1_555 1_555
C59_7 C58_7 1_555 1_555
C60_7 C59_7 1_555 1_555
H40_7 C60_7 1_555 1_555
C61_7 C60_7 1_555 1_555
C62_7 C57_7 1_555 1_555
H41_7 C62_7 1_555 1_555
N5_7 C61_7 1_555 1_555
C63_7 N5_7 1_555 1_555
C64_7 C63_7 1_555 1_555
H42_7 C64_7 1_555 1_555
C65_7 C64_7 1_555 1_555
H43_7 C65_7 1_555 1_555
C66_7 N5_7 1_555 1_555
C67_7 C64_7 1_555 1_555
H44_7 C67_7 1_555 1_555
C68_7 C67_7 1_555 1_555
H45_7 C68_7 1_555 1_555
C69_7 C68_7 1_555 1_555
H46_7 C69_7 1_555 1_555
C70_7 C65_7 1_555 1_555
H47_7 C70_7 1_555 1_555
N6_7 C71_7 1_555 1_555
C71_7 C72_7 1_555 1_555
C72_7 C70_7 1_555 1_555
H48_7 C72_7 1_555 1_555
C73_7 C67_7 1_555 1_555
H49_7 C73_7 1_555 1_555
C74_7 N6_7 1_555 1_555
C75_7 C76_7 1_555 1_555
C76_7 H50_7 1_555 1_555
C77_7 C76_7 1_555 1_555
C78_7 C77_7 1_555 1_555
C79_7 N6_7 1_555 1_555
C80_7 C75_7 1_555 1_555
H52_7 C80_7 1_555 1_555
C81_7 C57_7 1_555 1_555
C82_7 O33_7 1_555 1_555
C84_7 C75_7 1_555 1_555
C47_7 C48_7 1_555 1_555
C49_7 C50_7 1_555 1_555
C51_7 C52_7 1_555 1_555
O34_7 C82_7 1_555 1_555
C59_7 C82_7 1_555 1_555
C61_7 C62_7 1_555 1_555
C65_7 C66_7 1_555 1_555
C69_7 C70_7 1_555 1_555
C72_7 C73_7 1_555 1_555
C73_7 C74_7 1_555 1_555
C78_7 C79_7 1_555 1_555
C79_7 C80_7 1_555 1_555
O49_3 C41_7 1_555 1_555
O51_3 C41_7 1_555 1_555
O50_4 C41_8 1_555 1_555
O52_4 C41_8 1_555 1_555
Cu19_2 O4_8 1_555 1_555
O3_8 Cu15_2 1_555 1_555
H3_8 O3_8 1_555 1_555
H4_8 O3_8 1_555 1_555
O4_8 H5_8 1_555 1_555
H6_8 O4_8 1_555 1_555
O7_8 Cu15_2 1_555 1_555
O8_8 Cu19_2 1_555 1_555
O9_8 C7_8 1_555 1_555
O10_8 C10_8 1_555 1_555
O46_5 C39_8 1_555 1_555
O48_5 C39_8 1_555 1_555
O13_8 Cu15_2 1_555 1_555
O14_8 Cu19_2 1_555 1_555
O15_8 C21_8 1_555 1_555
O16_8 C24_8 1_555 1_555
O17_8 C29_8 1_555 1_555
O18_8 C32_8 1_555 1_555
O53_3 C42_8 1_555 1_555
O55_3 C42_8 1_555 1_555
C1_8 C2_8 1_555 1_555
C2_8 H7_8 1_555 1_555
C3_8 C2_8 1_555 1_555
C4_8 C3_8 1_555 1_555
H8_8 C4_8 1_555 1_555
C5_8 C4_8 1_555 1_555
C6_8 C1_8 1_555 1_555
H9_8 C6_8 1_555 1_555
N1_8 C5_8 1_555 1_555
C7_8 N1_8 1_555 1_555
C8_8 C7_8 1_555 1_555
H10_8 C8_8 1_555 1_555
C9_8 C8_8 1_555 1_555
H11_8 C9_8 1_555 1_555
C10_8 N1_8 1_555 1_555
C13_8 O43_8 1_555 1_555
C14_8 O7_8 1_555 1_555
C15_8 C16_8 1_555 1_555
C16_8 H14_8 1_555 1_555
C17_8 C16_8 1_555 1_555
C18_8 C17_8 1_555 1_555
H15_8 C18_8 1_555 1_555
C19_8 C18_8 1_555 1_555
C20_8 C15_8 1_555 1_555
H16_8 C20_8 1_555 1_555
N2_8 C19_8 1_555 1_555
C21_8 N2_8 1_555 1_555
C22_8 C21_8 1_555 1_555
H17_8 C22_8 1_555 1_555
C23_8 C22_8 1_555 1_555
H18_8 C23_8 1_555 1_555
C24_8 N2_8 1_555 1_555
C25_8 C22_8 1_555 1_555
H19_8 C25_8 1_555 1_555
C26_8 C25_8 1_555 1_555
H20_8 C26_8 1_555 1_555
C27_8 C26_8 1_555 1_555
H21_8 C27_8 1_555 1_555
C28_8 C23_8 1_555 1_555
H22_8 C28_8 1_555 1_555
N3_8 C29_8 1_555 1_555
C29_8 C30_8 1_555 1_555
C30_8 C28_8 1_555 1_555
H23_8 C30_8 1_555 1_555
C31_8 C25_8 1_555 1_555
H24_8 C31_8 1_555 1_555
C32_8 N3_8 1_555 1_555
C33_8 C34_8 1_555 1_555
C34_8 H25_8 1_555 1_555
C35_8 C34_8 1_555 1_555
C36_8 C35_8 1_555 1_555
C37_8 N3_8 1_555 1_555
C38_8 C33_8 1_555 1_555
H27_8 C38_8 1_555 1_555
C39_8 C15_8 1_555 1_555
C40_8 O13_8 1_555 1_555
C42_8 C33_8 1_555 1_555
C53_8 C8_8 1_555 1_555
H33_8 C53_8 1_555 1_555
H34_8 C54_8 1_555 1_555
O44_8 C13_8 1_555 1_555
O8_8 C14_8 1_555 1_555
O14_8 C40_8 1_555 1_555
C1_8 C13_8 1_555 1_555
C3_8 C14_8 1_555 1_555
C5_8 C6_8 1_555 1_555
C9_8 C10_8 1_555 1_555
C17_8 C40_8 1_555 1_555
C19_8 C20_8 1_555 1_555
C23_8 C24_8 1_555 1_555
C27_8 C28_8 1_555 1_555
C30_8 C31_8 1_555 1_555
C31_8 C32_8 1_555 1_555
C36_8 C37_8 1_555 1_555
C37_8 C38_8 1_555 1_555
C53_8 C54_8 1_555 1_555
H12_8 C11_8 1_555 1_555
C12_8 C11_8 1_555 1_555
H13_8 C12_8 1_555 1_555
O43_7 C55_8 1_555 1_555
O44_7 C55_8 1_555 1_555
O25_8 C56_8 1_555 1_555
O26_8 C56_8 1_555 1_555
O27_8 C49_8 1_555 1_555
O28_8 C52_8 1_555 1_555
C43_8 C44_8 1_555 1_555
C44_8 H28_8 1_555 1_555
C45_8 C44_8 1_555 1_555
C46_8 C45_8 1_555 1_555
H29_8 C46_8 1_555 1_555
C47_8 C46_8 1_555 1_555
C48_8 C43_8 1_555 1_555
H30_8 C48_8 1_555 1_555
N4_8 C47_8 1_555 1_555
C49_8 N4_8 1_555 1_555
C50_8 C11_8 1_555 1_555
H31_8 C50_8 1_555 1_555
C51_8 C50_8 1_555 1_555
H32_8 C51_8 1_555 1_555
C52_8 N4_8 1_555 1_555
C55_8 C43_8 1_555 1_555
C56_8 C45_8 1_555 1_555
Cu16_2 O25_8 1_555 1_555
Cu20_2 O26_8 1_555 1_555
O29_8 Cu16_2 1_555 1_555
H35_8 O29_8 1_555 1_555
H36_8 O29_8 1_555 1_555
O30_8 Cu20_2 1_555 1_555
H37_8 O30_8 1_555 1_555
H38_8 O30_8 1_555 1_555
O46_6 C81_8 1_555 1_555
O48_6 C81_8 1_555 1_555
O33_8 Cu16_2 1_555 1_555
O34_8 Cu20_2 1_555 1_555
O35_8 C63_8 1_555 1_555
O36_8 C66_8 1_555 1_555
O37_8 C71_8 1_555 1_555
O38_8 C74_8 1_555 1_555
O54_3 C84_8 1_555 1_555
O56_3 C84_8 1_555 1_555
C57_8 C58_8 1_555 1_555
C58_8 H39_8 1_555 1_555
C59_8 C58_8 1_555 1_555
C60_8 C59_8 1_555 1_555
H40_8 C60_8 1_555 1_555
C61_8 C60_8 1_555 1_555
C62_8 C57_8 1_555 1_555
H41_8 C62_8 1_555 1_555
N5_8 C61_8 1_555 1_555
C63_8 N5_8 1_555 1_555
C64_8 C63_8 1_555 1_555
H42_8 C64_8 1_555 1_555
C65_8 C64_8 1_555 1_555
H43_8 C65_8 1_555 1_555
C66_8 N5_8 1_555 1_555
C67_8 C64_8 1_555 1_555
H44_8 C67_8 1_555 1_555
C68_8 C67_8 1_555 1_555
H45_8 C68_8 1_555 1_555
C69_8 C68_8 1_555 1_555
H46_8 C69_8 1_555 1_555
C70_8 C65_8 1_555 1_555
H47_8 C70_8 1_555 1_555
N6_8 C71_8 1_555 1_555
C71_8 C72_8 1_555 1_555
C72_8 C70_8 1_555 1_555
H48_8 C72_8 1_555 1_555
C73_8 C67_8 1_555 1_555
H49_8 C73_8 1_555 1_555
C74_8 N6_8 1_555 1_555
C75_8 C76_8 1_555 1_555
C76_8 H50_8 1_555 1_555
C77_8 C76_8 1_555 1_555
C78_8 C77_8 1_555 1_555
C79_8 N6_8 1_555 1_555
C80_8 C75_8 1_555 1_555
H52_8 C80_8 1_555 1_555
C81_8 C57_8 1_555 1_555
C82_8 O33_8 1_555 1_555
C84_8 C75_8 1_555 1_555
C47_8 C48_8 1_555 1_555
C49_8 C50_8 1_555 1_555
C51_8 C52_8 1_555 1_555
O34_8 C82_8 1_555 1_555
C59_8 C82_8 1_555 1_555
C61_8 C62_8 1_555 1_555
C65_8 C66_8 1_555 1_555
C69_8 C70_8 1_555 1_555
C72_8 C73_8 1_555 1_555
C73_8 C74_8 1_555 1_555
C78_8 C79_8 1_555 1_555
C79_8 C80_8 1_555 1_555
O49_4 C83_8 1_555 1_555
O51_4 C83_8 1_555 1_555

#END
