
###############################################################################
#
# This file contains modified crystal structure data generated from the
# MOF subset of the Cambridge Structural Database (CSD) v543 
# hosted by the Cambridge Crystallographic Data Centre (CCDC).
#
# This work is licensed under the Creative Commons
# Attribution-NonCommercial-ShareAlike 4.0 International License.
# To view a copy of this license, visit
# http://creativecommons.org/licenses/by-nc-sa/4.0/
# or send a letter to
# Creative Commons, PO Box 1866, Mountain View, CA 94042, USA.
#
# CIF created using the CSD Python API on 29 September 2022
# The structure has been converted into the P1 space group
# The structure has a 3D framework
# The original CSD entry CUNCOG is in the hexagonal crystal system
# The original CSD entry CUNCOG is in a Sohncke space group
# The framework has been calculated to contain at least 10.0% void space
# The void calculation uses a probe of radius 1.32A, grid spacing 0.4
#
###############################################################################

data_CUNCOG
_chemical_formula_moiety         '(C114 H108 Co18 N17 O69)n'
_symmetry_cell_setting           triclinic
_symmetry_space_group_name_H-M   'P 1'
_symmetry_Int_Tables_number      1
_space_group_name_Hall           'P 1'
loop_
_symmetry_equiv_pos_site_id
_symmetry_equiv_pos_as_xyz
1 x,y,z
_cell_length_a                   23.8554(5)
_cell_length_b                   23.8554(5)
_cell_length_c                   11.0075(2)
_cell_angle_alpha                90
_cell_angle_beta                 90
_cell_angle_gamma                120
_cell_volume                     5424.91
loop_
_atom_site_label
_atom_site_type_symbol
_atom_site_fract_x
_atom_site_fract_y
_atom_site_fract_z
Co4 Co 0.36899(4) 0.29338(4) 0.09888(7)
Co2 Co 0.22773(4) 0.20051(4) 0.18987(7)
Co3 Co 0.11443(4) 0.25166(4) 0.12399(7)
O1 O 0.3759(2) 0.2937(2) 0.2841(4)
O2 O 0.2745(2) 0.2295(2) 0.3532(4)
O3 O 0.2893(3) 0.2078(2) 0.8229(4)
O4 O 0.3625(3) 0.2998(3) 0.9188(4)
O5 O 0.30202(18) 0.19523(18) 0.1021(3)
O6 O 0.2812(2) 0.2958(2) 0.1266(4)
O7 O 0.1877(2) 0.1683(2) 0.0179(4)
O9 O 0.1490(2) 0.2077(2) 0.2509(4)
O10 O 0.0809(2) 0.1853(2) 0.4087(4)
O11 O 0.2066(3) 0.3243(3) 0.0839(5)
N1 N 0.4079(4) 0.5006(4) 0.7435(7)
H1 H 0.4042 0.5300 0.7853
H2 H 0.3772 0.4597 0.7469
C1 C 0.3552(3) 0.3044(4) 0.4885(6)
C2 C 0.3306(3) 0.2691(3) 0.5942(6)
H3 H 0.2990 0.2244 0.5916
C3 C 0.3541(3) 0.3020(3) 0.7073(6)
C4 C 0.3972(4) 0.3677(4) 0.7080(6)
H4 H 0.4102 0.3893 0.7840
C5 C 0.4225(4) 0.4037(4) 0.6027(6)
C6 C 0.4011(4) 0.3699(4) 0.4900(6)
H5 H 0.4183 0.3923 0.4158
C7 C 0.3336(3) 0.2729(3) 0.3656(6)
C8 C 0.3330(3) 0.2660(3) 0.8259(5)
C9 C 0.4697(2) 0.47499(15) 0.6009(4)
C10 C 0.5242(2) 0.49693(17) 0.5279(4)
H6 H 0.5296 0.4673 0.4786
C11 C 0.57081(18) 0.56225(19) 0.5268(4)
H7 H 0.6081 0.5772 0.4769
N2 N 0.56289(19) 0.60565(14) 0.5989(4)
C12 C 0.5084(2) 0.58371(18) 0.6720(4)
H8 H 0.5029 0.6134 0.7212
C13 C 0.46176(19) 0.5184(2) 0.6730(4)
C14 C 0.2626(4) 0.3334(4) 0.0861(7)
H9 H 0.2954 0.3733 0.0535
C16 C 0.1261(3) 0.1848(3) 0.3564(6)
H11 H 0.1465 0.1652 0.3990
C17 C 0.4350(7) 0.2166(7) 0.1032(17)
H12 H 0.3908 0.1843 0.0929
O12 O 0.4465(3) 0.2737(4) 0.0859(8)
N3 N 0.4737(7) 0.1933(7) 0.1333(19)
C18 C 0.4641(9) 0.1288(8) 0.162(2)
H13 H 0.5054 0.1298 0.1721
H14 H 0.4399 0.0998 0.0946
H15 H 0.4387 0.1131 0.2368
C19 C 0.5380(10) 0.2374(11) 0.179(3)
H16 H 0.5488 0.2212 0.2524
H17 H 0.5414 0.2792 0.1972
H18 H 0.5681 0.2427 0.1140
Co5 Co 0.63101(4) 0.70662(4) 0.59888(7)
Co6 Co 0.02722(6) 0.22773(4) 0.35654(7)
Co8 Co 0.25166(4) 0.13723(6) 0.95732(7)
O15 O 0.10679(25) 0.30202(18) 0.2688(3)
O16 O 0.0194(3) 0.1877(2) 0.1846(4)
O17 O 0.1853(2) 0.1044(3) 0.2420(4)
N4 N 0.43711(19) 0.39435(14) 0.0989(4)
O8 O 0.1069(2) 0.1881(2) 0.9883(4)
C15 C 0.1411(3) 0.1646(3) 0.9597(6)
H10 H 0.1307 0.1413 0.8854
O13 O 0.0815(4) 0.2893(3) 0.9896(4)
O3_2 O 0.7922(2) 0.0815(4) 0.1562(4)
O4_2 O 0.7002(3) 0.0627(4) 0.2521(4)
C3_2 C 0.6980(3) 0.0521(4) 0.0406(6)
C4_2 C 0.6323(4) 0.0295(6) 0.0413(6)
H4_2 H 0.6107 0.0209 0.1173
C8_2 C 0.7340(3) 0.0670(4) 0.1592(5)
Co4_2 Co 0.70662(4) 0.07561(6) 0.43221(7)
Co8_2 Co 0.86277(6) 0.11443(7) 0.29066(7)
Co2_2 Co 0.79949(4) 0.02722(6) 0.52320(7)
O1_2 O 0.7063(2) 0.0822(3) 0.6174(4)
O2_2 O 0.7705(2) 0.0450(3) 0.6865(4)
O5_2 O 0.80477(18) 0.10679(25) 0.4354(3)
O7_2 O 0.8317(2) 0.0194(3) 0.3512(4)
C1_2 C 0.6956(4) 0.0508(5) 0.8218(6)
C2_2 C 0.7309(3) 0.0615(4) 0.9275(6)
H3_2 H 0.7756 0.0746 0.9249
C5_2 C 0.5963(4) 0.0188(6) 0.9360(6)
C6_2 C 0.6301(4) 0.0312(6) 0.8233(6)
H5_2 H 0.6077 0.0260 0.7491
C7_2 C 0.7271(3) 0.0607(4) 0.6989(6)
C10_2 C 0.50307(17) 0.02727(26) 0.8612(4)
H6_2 H 0.5327 0.0623 0.8119
C11_2 C 0.43775(19) 0.00856(26) 0.8601(4)
H7_2 H 0.4228 0.0309 0.8102
C17_2 C 0.7834(7) 0.2184(10) 0.4365(17)
H12_2 H 0.8157 0.2065 0.4262
O12_2 O 0.7263(4) 0.1728(5) 0.4192(8)
N3_2 N 0.8067(7) 0.2804(10) 0.4666(19)
C18_2 C 0.8712(8) 0.3353(12) 0.495(2)
H13_2 H 0.8702 0.3756 0.5054
H14_2 H 0.9002 0.3401 0.4279
H15_2 H 0.8869 0.3256 0.5701
C19_2 C 0.7626(11) 0.3006(15) 0.512(3)
H16_2 H 0.7788 0.3276 0.5857
H17_2 H 0.7208 0.2622 0.5305
H18_2 H 0.7573 0.3254 0.4473
O17_2 O 0.8956(3) 0.0809(4) 0.5754(4)
N4_2 N 0.60565(14) 0.04276(24) 0.4322(4)
Co3_2 Co 0.74834(4) 0.86277(6) 0.45732(7)
O6_2 O 0.7042(2) 0.9854(3) 0.4599(4)
O8_2 O 0.8119(2) 0.9188(3) 0.3216(4)
O9_2 O 0.7923(2) 0.9413(3) 0.5842(4)
O10_2 O 0.8147(2) 0.8956(3) 0.7420(4)
O11_2 O 0.6757(3) 0.8823(4) 0.4172(5)
C9_2 C 0.52501(15) 0.99471(25) 0.9342(4)
N2_2 N 0.39435(14) 0.95724(24) 0.9322(4)
C14_2 C 0.6666(4) 0.9292(6) 0.4194(7)
H9_2 H 0.6267 0.9221 0.3868
C15_2 C 0.8354(3) 0.9765(4) 0.2930(6)
H10_2 H 0.8587 0.9894 0.2187
C16_2 C 0.8152(3) 0.9413(4) 0.6897(6)
H11_2 H 0.8348 0.9813 0.7323
Co5_2 Co 0.29338(4) 0.92439(6) 0.93221(7)
Co6_2 Co 0.77227(4) 0.79949(7) 0.68987(7)
O13_2 O 0.7107(3) 0.7922(5) 0.3229(4)
O15_2 O 0.69798(18) 0.80477(31) 0.6021(3)
O16_2 O 0.8123(2) 0.8317(4) 0.5179(4)
O10_3 O 0.1044(3) 0.9191(2) 0.0754(4)
N1_2 N 0.0927(6) 0.5921(4) 0.4102(7)
H1_2 H 0.1258 0.5958 0.4520
H2_2 H 0.0825 0.6228 0.4136
C9_3 C 0.00529(25) 0.5303(2) 0.2676(4)
N2_3 N 0.04276(24) 0.43711(19) 0.2656(4)
C12_2 C 0.07531(27) 0.4916(2) 0.3387(4)
H8_2 H 0.1105 0.4971 0.3879
C13_2 C 0.05664(28) 0.53824(19) 0.3397(4)
C16_3 C 0.0587(4) 0.8739(3) 0.0231(6)
H11_3 H 0.0187 0.8535 0.0657
Co5_3 Co 0.07561(6) 0.36899(4) 0.26555(7)
Co6_3 Co 0.20051(7) 0.97278(6) 0.02320(7)
Co3_3 Co 0.13723(6) 0.88557(4) 0.79066(7)
O6_3 O 0.0146(3) 0.7188(2) 0.7933(4)
O8_3 O 0.0812(3) 0.8931(2) 0.6550(4)
O9_3 O 0.0587(3) 0.8510(2) 0.9176(4)
O11_3 O 0.1177(4) 0.7934(3) 0.7506(5)
C14_3 C 0.0708(6) 0.7374(4) 0.7528(7)
H9_3 H 0.0779 0.7046 0.7202
C15_3 C 0.0235(4) 0.8589(3) 0.6264(6)
H10_3 H 0.0106 0.8693 0.5521
O13_3 O 0.2078(5) 0.9185(4) 0.6562(4)
O15_3 O 0.19523(31) 0.89321(25) 0.9354(3)
O16_3 O 0.1683(4) 0.9806(3) 0.8512(4)
O2_3 O 0.9550(3) 0.7255(2) 0.0199(4)
O3_3 O 0.9185(4) 0.7107(3) 0.4896(4)
O4_3 O 0.9373(4) 0.6375(3) 0.5855(4)
C1_3 C 0.9492(5) 0.6448(3) 0.1552(6)
C2_3 C 0.9385(4) 0.6694(3) 0.2609(6)
H3_3 H 0.9254 0.7010 0.2583
C3_3 C 0.9479(4) 0.6459(3) 0.3740(6)
C4_3 C 0.9705(6) 0.6028(4) 0.3747(6)
H4_3 H 0.9791 0.5898 0.4507
C5_3 C 0.9812(6) 0.5775(4) 0.2694(6)
C6_3 C 0.9688(6) 0.5989(4) 0.1567(6)
H5_3 H 0.9740 0.5817 0.0825
C7_3 C 0.9393(4) 0.6664(3) 0.0323(6)
C8_3 C 0.9330(4) 0.6670(3) 0.4926(5)
C10_3 C 0.97273(26) 0.4758(2) 0.1946(4)
H6_3 H 0.9377 0.4704 0.1453
C11_3 C 0.99144(26) 0.42919(18) 0.1935(4)
H7_3 H 0.9691 0.3919 0.1436
Co4_3 Co 0.92439(6) 0.63101(4) 0.76555(7)
Co8_3 Co 0.88557(7) 0.74834(4) 0.62399(7)
Co2_3 Co 0.97278(6) 0.77227(4) 0.85654(7)
O1_3 O 0.9178(3) 0.6241(2) 0.9508(4)
O5_3 O 0.89321(25) 0.69798(18) 0.7688(3)
O7_3 O 0.9806(3) 0.8123(2) 0.6846(4)
C17_3 C 0.7816(10) 0.5650(7) 0.7699(17)
H12_3 H 0.7935 0.6092 0.7596
O12_3 O 0.8272(5) 0.5535(3) 0.7526(8)
N3_3 N 0.7196(10) 0.5263(7) 0.8000(19)
C18_3 C 0.6647(12) 0.5359(9) 0.829(2)
H13_3 H 0.6244 0.4946 0.8388
H14_3 H 0.6599 0.5601 0.7613
H15_3 H 0.6744 0.5613 0.9035
C19_3 C 0.6994(15) 0.4620(10) 0.846(3)
H16_3 H 0.6724 0.4512 0.9191
H17_3 H 0.7378 0.4586 0.8639
H18_3 H 0.6746 0.4319 0.7807
O17_3 O 0.9191(4) 0.8147(2) 0.9087(4)
N4_3 N 0.95724(24) 0.56289(19) 0.7656(4)
O4_4 O 0.6375(3) 0.7002(3) 0.4188(4)
N1_3 N 0.5921(4) 0.4994(4) 0.2435(7)
H1_3 H 0.5958 0.4700 0.2853
H2_3 H 0.6228 0.5403 0.2469
C2_4 C 0.6694(3) 0.7309(3) 0.0942(6)
H3_4 H 0.7010 0.7756 0.0916
C3_4 C 0.6459(3) 0.6980(3) 0.2073(6)
C4_4 C 0.6028(4) 0.6323(4) 0.2080(6)
H4_4 H 0.5898 0.6107 0.2840
C5_4 C 0.5775(4) 0.5963(4) 0.1027(6)
C8_4 C 0.6670(3) 0.7340(3) 0.3259(5)
C9_4 C 0.5303(2) 0.52501(15) 0.1009(4)
C10_4 C 0.4758(2) 0.50307(17) 0.0279(4)
C11_4 C 0.42919(18) 0.43775(19) 0.0268(4)
C12_3 C 0.4916(2) 0.41629(18) 0.1720(4)
H8_3 H 0.4971 0.3866 0.2212
C13_3 C 0.53824(19) 0.4816(2) 0.1730(4)
O1_4 O 0.6241(2) 0.7063(2) 0.7841(4)
O2_4 O 0.7255(2) 0.7705(2) 0.8532(4)
O6_4 O 0.7188(2) 0.7042(2) 0.6266(4)
O8_4 O 0.8931(2) 0.8119(2) 0.4883(4)
O9_4 O 0.8510(2) 0.7923(2) 0.7509(4)
O11_4 O 0.7934(3) 0.6757(3) 0.5839(5)
C1_4 C 0.6448(3) 0.6956(4) 0.9885(6)
C6_4 C 0.5989(4) 0.6301(4) 0.9900(6)
H5_4 H 0.5817 0.6077 0.9158
C7_4 C 0.6664(3) 0.7271(3) 0.8656(6)
H6_4 H 0.4704 0.5327 0.9786
H7_4 H 0.3919 0.4228 0.9769
C14_4 C 0.7374(4) 0.6666(4) 0.5861(7)
H9_4 H 0.7046 0.6267 0.5535
C15_4 C 0.8589(3) 0.8354(3) 0.4597(6)
H10_4 H 0.8693 0.8587 0.3854
C16_4 C 0.8739(3) 0.8152(3) 0.8564(6)
H11_4 H 0.8535 0.8348 0.8990
C17_4 C 0.5650(7) 0.7834(7) 0.6032(17)
H12_4 H 0.6092 0.8157 0.5929
O12_4 O 0.5535(3) 0.7263(4) 0.5859(8)
N3_4 N 0.5263(7) 0.8067(7) 0.6333(19)
C18_4 C 0.5359(9) 0.8712(8) 0.662(2)
H13_4 H 0.4946 0.8702 0.6721
H14_4 H 0.5601 0.9002 0.5946
H15_4 H 0.5613 0.8869 0.7368
C19_4 C 0.4620(10) 0.7626(11) 0.679(3)
H16_4 H 0.4512 0.7788 0.7524
H17_4 H 0.4586 0.7208 0.6972
H18_4 H 0.4319 0.7573 0.6140
O9_5 O 0.2077(2) 0.0587(3) 0.0842(4)
N1_4 N 0.5006(4) 0.0927(6) 0.5768(7)
H1_4 H 0.5300 0.1258 0.6186
H2_4 H 0.4597 0.0825 0.5802
C9_5 C 0.47499(15) 0.00529(25) 0.4342(4)
C12_4 C 0.58371(18) 0.07531(27) 0.5053(4)
H8_4 H 0.6134 0.1105 0.5545
C13_4 C 0.5184(2) 0.05664(28) 0.5063(4)
C16_5 C 0.1848(3) 0.0587(4) 0.1897(6)
H11_5 H 0.1652 0.0187 0.2323
O6_5 O 0.2958(2) 0.0146(3) 0.9599(4)
O8_5 O 0.1881(2) 0.0812(3) 0.8216(4)
O11_5 O 0.3243(3) 0.1177(4) 0.9172(5)
C14_5 C 0.3334(4) 0.0708(6) 0.9194(7)
H9_5 H 0.3733 0.0779 0.8868
C15_5 C 0.1646(3) 0.0235(4) 0.7930(6)
H10_5 H 0.1413 0.0106 0.7187
O1_5 O 0.2937(2) 0.9178(3) 0.1174(4)
O2_5 O 0.2295(2) 0.9550(3) 0.1865(4)
O4_5 O 0.2998(3) 0.9373(4) 0.7521(4)
C1_5 C 0.3044(4) 0.9492(5) 0.3218(6)
C2_5 C 0.2691(3) 0.9385(4) 0.4275(6)
H3_5 H 0.2244 0.9254 0.4249
C3_5 C 0.3020(3) 0.9479(4) 0.5406(6)
C4_5 C 0.3677(4) 0.9705(6) 0.5413(6)
H4_5 H 0.3893 0.9791 0.6173
C5_5 C 0.4037(4) 0.9812(6) 0.4360(6)
C6_5 C 0.3699(4) 0.9688(6) 0.3233(6)
H5_5 H 0.3923 0.9740 0.2491
C7_5 C 0.2729(3) 0.9393(4) 0.1989(6)
C8_5 C 0.2660(3) 0.9330(4) 0.6592(5)
C10_5 C 0.49693(17) 0.97273(26) 0.3612(4)
H6_5 H 0.4673 0.9377 0.3119
C11_5 C 0.56225(19) 0.99144(26) 0.3601(4)
H7_5 H 0.5772 0.9691 0.3102
H13_5 H 0.1298 0.6244 0.0054
H15_5 H 0.1131 0.6744 0.0701
C19_5 C 0.2374(11) 0.6994(15) 0.012(3)
H16_5 H 0.2212 0.6724 0.0857
H17_5 H 0.2792 0.7378 0.0305
C17_5 C 0.2166(7) 0.7816(10) 0.9365(17)
H12_5 H 0.1843 0.7935 0.9262
O12_5 O 0.2737(4) 0.8272(5) 0.9192(8)
N3_5 N 0.1933(7) 0.7196(10) 0.9666(19)
C18_5 C 0.1288(8) 0.6647(12) 0.995(2)
H14_5 H 0.0998 0.6599 0.9279
H18_5 H 0.2427 0.6746 0.9473
O4_6 O 0.0627(4) 0.3625(3) 0.0855(4)
O1_6 O 0.0822(3) 0.3759(2) 0.4508(4)
O2_6 O 0.0450(3) 0.2745(2) 0.5199(4)
C1_6 C 0.0508(5) 0.3552(3) 0.6552(6)
C2_6 C 0.0615(4) 0.3306(3) 0.7609(6)
H3_6 H 0.0746 0.2990 0.7583
C3_6 C 0.0521(4) 0.3541(3) 0.8740(6)
C4_6 C 0.0295(6) 0.3972(4) 0.8747(6)
H4_6 H 0.0209 0.4102 0.9507
C5_6 C 0.0188(6) 0.4225(4) 0.7694(6)
C6_6 C 0.0312(6) 0.4011(4) 0.6567(6)
H5_6 H 0.0260 0.4183 0.5825
C7_6 C 0.0607(4) 0.3336(3) 0.5323(6)
C8_6 C 0.0670(4) 0.3330(3) 0.9926(5)
C10_6 C 0.02727(26) 0.5242(2) 0.6946(4)
H6_6 H 0.0623 0.5296 0.6453
C11_6 C 0.00856(26) 0.57081(18) 0.6935(4)
H7_6 H 0.0309 0.6081 0.6436
C17_6 C 0.2184(10) 0.4350(7) 0.2699(17)
H12_6 H 0.2065 0.3908 0.2596
O12_6 O 0.1728(5) 0.4465(3) 0.2526(8)
N3_6 N 0.2804(10) 0.4737(7) 0.3000(19)
C18_6 C 0.3353(12) 0.4641(9) 0.329(2)
H13_6 H 0.3756 0.5054 0.3388
H14_6 H 0.3401 0.4399 0.2613
H15_6 H 0.3256 0.4387 0.4035
C19_6 C 0.3006(15) 0.5380(10) 0.346(3)
H16_6 H 0.3276 0.5488 0.4191
H17_6 H 0.2622 0.5414 0.3639
H18_6 H 0.3254 0.5681 0.2807
O6_6 O 0.9854(3) 0.2812(2) 0.2933(4)
O8_6 O 0.9188(3) 0.1069(2) 0.1550(4)
O9_6 O 0.9413(3) 0.1490(2) 0.4176(4)
O11_6 O 0.8823(4) 0.2066(3) 0.2506(5)
N1_5 N 0.9073(6) 0.4079(4) 0.9102(7)
H1_5 H 0.8742 0.4042 0.9520
H2_5 H 0.9175 0.3772 0.9136
C9_6 C 0.99471(25) 0.4697(2) 0.7676(4)
C12_5 C 0.92469(27) 0.5084(2) 0.8387(4)
H8_5 H 0.8895 0.5029 0.8879
C13_5 C 0.94336(28) 0.46176(19) 0.8397(4)
C14_6 C 0.9292(6) 0.2626(4) 0.2528(7)
H9_6 H 0.9221 0.2954 0.2202
C15_6 C 0.9765(4) 0.1411(3) 0.1264(6)
H10_6 H 0.9894 0.1307 0.0521
C16_6 C 0.9413(4) 0.1261(3) 0.5231(6)
H11_6 H 0.9813 0.1465 0.5657
N1_6 N 0.4994(4) 0.9073(6) 0.0768(7)
H1_6 H 0.4700 0.8742 0.1186
H2_6 H 0.5403 0.9175 0.0802
C12_6 C 0.41629(18) 0.92469(27) 0.0053(4)
H8_6 H 0.3866 0.8895 0.0545
C13_6 C 0.4816(2) 0.94336(28) 0.0063(4)
loop_
_geom_bond_atom_site_label_1
_geom_bond_atom_site_label_2
_geom_bond_site_symmetry_1
_geom_bond_site_symmetry_2
Co4 O1 1_555 1_555
Co2 O2 1_555 1_555
O1 C7 1_555 1_555
O2 C7 1_555 1_555
O3 C8 1_555 1_555
O4 C8 1_555 1_555
O5 Co4 1_555 1_555
O6 Co4 1_555 1_555
O7 Co2 1_555 1_555
O9 Co2 1_555 1_555
O10 C16 1_555 1_555
O11 Co3 1_555 1_555
N1 H1 1_555 1_555
H2 N1 1_555 1_555
C1 C2 1_555 1_555
C2 H3 1_555 1_555
C3 C2 1_555 1_555
C4 C3 1_555 1_555
H4 C4 1_555 1_555
C5 C4 1_555 1_555
C6 C1 1_555 1_555
H5 C6 1_555 1_555
C7 C1 1_555 1_555
C8 C3 1_555 1_555
C9 C5 1_555 1_555
C10 C9 1_555 1_555
H6 C10 1_555 1_555
C11 C10 1_555 1_555
H7 C11 1_555 1_555
N2 C11 1_555 1_555
C12 N2 1_555 1_555
H8 C12 1_555 1_555
C13 N1 1_555 1_555
C14 O6 1_555 1_555
H9 C14 1_555 1_555
C16 O9 1_555 1_555
H11 C16 1_555 1_555
C17 H12 1_555 1_555
O12 Co4 1_555 1_555
N3 C17 1_555 1_555
C18 N3 1_555 1_555
H13 C18 1_555 1_555
H14 C18 1_555 1_555
H15 C18 1_555 1_555
C19 N3 1_555 1_555
H16 C19 1_555 1_555
H17 C19 1_555 1_555
H18 C19 1_555 1_555
Co5 N2 1_555 1_555
Co6 O10 1_555 1_555
Co8 O3 1_555 1_555
O15 Co3 1_555 1_555
O16 Co3 1_555 1_555
O17 Co2 1_555 1_555
N4 Co4 1_555 1_555
Co2 O5 1_555 1_555
Co2 O6 1_555 1_555
Co3 O9 1_555 1_555
O11 C14 1_555 1_555
C5 C6 1_555 1_555
C9 C13 1_555 1_555
C12 C13 1_555 1_555
C17 O12 1_555 1_555
Co6 O15 1_555 1_555
Co6 O16 1_555 1_555
O8 C15 1_555 1_555
H10 C15 1_555 1_555
O3_2 C8_2 1_555 1_555
O4_2 C8_2 1_555 1_555
C4_2 C3_2 1_555 1_555
H4_2 C4_2 1_555 1_555
C8_2 C3_2 1_555 1_555
Co4_2 O4_2 1_555 1_555
Co8_2 O3_2 1_555 1_555
Co4_2 O1_2 1_555 1_555
Co2_2 O2_2 1_555 1_555
O1_2 C7_2 1_555 1_555
O2_2 C7_2 1_555 1_555
O5_2 Co4_2 1_555 1_555
O7_2 Co2_2 1_555 1_555
C1_2 C2_2 1_555 1_555
C2_2 H3_2 1_555 1_555
C6_2 C1_2 1_555 1_555
H5_2 C6_2 1_555 1_555
C7_2 C1_2 1_555 1_555
H6_2 C10_2 1_555 1_555
C11_2 C10_2 1_555 1_555
H7_2 C11_2 1_555 1_555
C17_2 H12_2 1_555 1_555
O12_2 Co4_2 1_555 1_555
N3_2 C17_2 1_555 1_555
C18_2 N3_2 1_555 1_555
H13_2 C18_2 1_555 1_555
H14_2 C18_2 1_555 1_555
H15_2 C18_2 1_555 1_555
C19_2 N3_2 1_555 1_555
H16_2 C19_2 1_555 1_555
H17_2 C19_2 1_555 1_555
H18_2 C19_2 1_555 1_555
Co8_2 O5_2 1_555 1_555
O17_2 Co2_2 1_555 1_555
N4_2 Co4_2 1_555 1_555
Co2_2 O5_2 1_555 1_555
O7_2 Co8_2 1_555 1_555
C5_2 C6_2 1_555 1_555
C17_2 O12_2 1_555 1_555
Co3_2 O8_2 1_555 1_555
O8_2 C15_2 1_555 1_555
O10_2 C16_2 1_555 1_555
O11_2 Co3_2 1_555 1_555
C14_2 O6_2 1_555 1_555
H9_2 C14_2 1_555 1_555
H10_2 C15_2 1_555 1_555
C16_2 O9_2 1_555 1_555
H11_2 C16_2 1_555 1_555
Co5_2 N2_2 1_555 1_555
Co6_2 O10_2 1_555 1_555
O13_2 Co3_2 1_555 1_555
O15_2 Co3_2 1_555 1_555
O16_2 Co3_2 1_555 1_555
Co3_2 O9_2 1_555 1_555
O11_2 C14_2 1_555 1_555
Co6_2 O15_2 1_555 1_555
Co6_2 O16_2 1_555 1_555
O10_3 C16_3 1_555 1_555
N1_2 H1_2 1_555 1_555
H2_2 N1_2 1_555 1_555
C12_2 N2_3 1_555 1_555
H8_2 C12_2 1_555 1_555
C13_2 N1_2 1_555 1_555
H11_3 C16_3 1_555 1_555
Co5_3 N2_3 1_555 1_555
Co6_3 O10_3 1_555 1_555
C9_3 C13_2 1_555 1_555
C12_2 C13_2 1_555 1_555
Co3_3 O8_3 1_555 1_555
O8_3 C15_3 1_555 1_555
O11_3 Co3_3 1_555 1_555
C14_3 O6_3 1_555 1_555
H9_3 C14_3 1_555 1_555
H10_3 C15_3 1_555 1_555
O13_3 Co3_3 1_555 1_555
O15_3 Co3_3 1_555 1_555
O16_3 Co3_3 1_555 1_555
Co3_3 O9_3 1_555 1_555
O11_3 C14_3 1_555 1_555
O2_3 C7_3 1_555 1_555
O3_3 C8_3 1_555 1_555
O4_3 C8_3 1_555 1_555
C1_3 C2_3 1_555 1_555
C2_3 H3_3 1_555 1_555
C3_3 C2_3 1_555 1_555
C4_3 C3_3 1_555 1_555
H4_3 C4_3 1_555 1_555
C5_3 C4_3 1_555 1_555
C6_3 C1_3 1_555 1_555
H5_3 C6_3 1_555 1_555
C7_3 C1_3 1_555 1_555
C8_3 C3_3 1_555 1_555
H6_3 C10_3 1_555 1_555
C11_3 C10_3 1_555 1_555
H7_3 C11_3 1_555 1_555
Co4_3 O4_3 1_555 1_555
Co8_3 O3_3 1_555 1_555
C5_3 C6_3 1_555 1_555
Co4_3 O1_3 1_555 1_555
O5_3 Co4_3 1_555 1_555
O7_3 Co2_3 1_555 1_555
C17_3 H12_3 1_555 1_555
O12_3 Co4_3 1_555 1_555
N3_3 C17_3 1_555 1_555
C18_3 N3_3 1_555 1_555
H13_3 C18_3 1_555 1_555
H14_3 C18_3 1_555 1_555
H15_3 C18_3 1_555 1_555
C19_3 N3_3 1_555 1_555
H16_3 C19_3 1_555 1_555
H17_3 C19_3 1_555 1_555
H18_3 C19_3 1_555 1_555
Co8_3 O5_3 1_555 1_555
O17_3 Co2_3 1_555 1_555
N4_3 Co4_3 1_555 1_555
Co2_3 O5_3 1_555 1_555
O7_3 Co8_3 1_555 1_555
C17_3 O12_3 1_555 1_555
O13_2 C8_4 1_555 1_555
O4_4 C8_4 1_555 1_555
N1_3 H1_3 1_555 1_555
H2_3 N1_3 1_555 1_555
C2_4 H3_4 1_555 1_555
C3_4 C2_4 1_555 1_555
C4_4 C3_4 1_555 1_555
H4_4 C4_4 1_555 1_555
C5_4 C4_4 1_555 1_555
C8_4 C3_4 1_555 1_555
C9_4 C5_4 1_555 1_555
C10_4 C9_4 1_555 1_555
C11_4 C10_4 1_555 1_555
N4 C11_4 1_555 1_555
C12_3 N4 1_555 1_555
H8_3 C12_3 1_555 1_555
C13_3 N1_3 1_555 1_555
Co5 O4_4 1_555 1_555
C9_4 C13_3 1_555 1_555
C12_3 C13_3 1_555 1_555
Co5 O1_4 1_555 1_555
Co6_2 O2_4 1_555 1_555
Co8_3 O8_4 1_555 1_555
O1_4 C7_4 1_555 1_555
O2_4 C7_4 1_555 1_555
O15_2 Co5 1_555 1_555
O6_4 Co5 1_555 1_555
O8_4 C15_4 1_555 1_555
O9_4 Co6_2 1_555 1_555
O17_3 C16_4 1_555 1_555
O11_4 Co8_3 1_555 1_555
C6_4 C1_4 1_555 1_555
H5_4 C6_4 1_555 1_555
C7_4 C1_4 1_555 1_555
C14_4 O6_4 1_555 1_555
H9_4 C14_4 1_555 1_555
C15_4 O16_2 1_555 1_555
H10_4 C15_4 1_555 1_555
C16_4 O9_4 1_555 1_555
H11_4 C16_4 1_555 1_555
C17_4 H12_4 1_555 1_555
O12_4 Co5 1_555 1_555
N3_4 C17_4 1_555 1_555
C18_4 N3_4 1_555 1_555
H13_4 C18_4 1_555 1_555
H14_4 C18_4 1_555 1_555
H15_4 C18_4 1_555 1_555
C19_4 N3_4 1_555 1_555
H16_4 C19_4 1_555 1_555
H17_4 C19_4 1_555 1_555
H18_4 C19_4 1_555 1_555
Co6_2 O6_4 1_555 1_555
Co8_3 O9_4 1_555 1_555
O11_4 C14_4 1_555 1_555
C17_4 O12_4 1_555 1_555
O17 C16_5 1_555 1_555
N1_4 H1_4 1_555 1_555
H2_4 N1_4 1_555 1_555
C12_4 N4_2 1_555 1_555
H8_4 C12_4 1_555 1_555
C13_4 N1_4 1_555 1_555
C16_5 O9_5 1_555 1_555
H11_5 C16_5 1_555 1_555
C9_5 C13_4 1_555 1_555
C12_4 C13_4 1_555 1_555
Co8 O8_5 1_555 1_555
O8_5 C15_5 1_555 1_555
O11_5 Co8 1_555 1_555
C14_5 O6_5 1_555 1_555
H9_5 C14_5 1_555 1_555
H10_5 C15_5 1_555 1_555
O11_5 C14_5 1_555 1_555
Co6_3 O2_5 1_555 1_555
O1_5 C7_5 1_555 1_555
O2_5 C7_5 1_555 1_555
O13_3 C8_5 1_555 1_555
O4_5 C8_5 1_555 1_555
C1_5 C2_5 1_555 1_555
C2_5 H3_5 1_555 1_555
C3_5 C2_5 1_555 1_555
C4_5 C3_5 1_555 1_555
H4_5 C4_5 1_555 1_555
C5_5 C4_5 1_555 1_555
C6_5 C1_5 1_555 1_555
H5_5 C6_5 1_555 1_555
C7_5 C1_5 1_555 1_555
C8_5 C3_5 1_555 1_555
H6_5 C10_5 1_555 1_555
C11_5 C10_5 1_555 1_555
H7_5 C11_5 1_555 1_555
H16_5 C19_5 1_555 1_555
H17_5 C19_5 1_555 1_555
Co5_2 O4_5 1_555 1_555
C5_5 C6_5 1_555 1_555
O15_3 Co5_2 1_555 1_555
C17_5 H12_5 1_555 1_555
O12_5 Co5_2 1_555 1_555
N3_5 C17_5 1_555 1_555
C18_5 N3_5 1_555 1_555
H14_5 C18_5 1_555 1_555
C17_5 O12_5 1_555 1_555
Co5_3 O4_6 1_555 1_555
Co5_3 O1_6 1_555 1_555
Co6 O2_6 1_555 1_555
O1_6 C7_6 1_555 1_555
O2_6 C7_6 1_555 1_555
O13 C8_6 1_555 1_555
O15 Co5_3 1_555 1_555
C1_6 C2_6 1_555 1_555
C2_6 H3_6 1_555 1_555
C3_6 C2_6 1_555 1_555
C4_6 C3_6 1_555 1_555
H4_6 C4_6 1_555 1_555
C5_6 C4_6 1_555 1_555
C6_6 C1_6 1_555 1_555
H5_6 C6_6 1_555 1_555
C7_6 C1_6 1_555 1_555
C8_6 C3_6 1_555 1_555
H6_6 C10_6 1_555 1_555
C11_6 C10_6 1_555 1_555
H7_6 C11_6 1_555 1_555
C17_6 H12_6 1_555 1_555
O12_6 Co5_3 1_555 1_555
N3_6 C17_6 1_555 1_555
C18_6 N3_6 1_555 1_555
H13_6 C18_6 1_555 1_555
H14_6 C18_6 1_555 1_555
H15_6 C18_6 1_555 1_555
C19_6 N3_6 1_555 1_555
H16_6 C19_6 1_555 1_555
H17_6 C19_6 1_555 1_555
H18_6 C19_6 1_555 1_555
C5_6 C6_6 1_555 1_555
C17_6 O12_6 1_555 1_555
Co8_2 O8_6 1_555 1_555
O8_6 C15_6 1_555 1_555
O17_2 C16_6 1_555 1_555
O11_6 Co8_2 1_555 1_555
N1_5 H1_5 1_555 1_555
H2_5 N1_5 1_555 1_555
C12_5 N4_3 1_555 1_555
H8_5 C12_5 1_555 1_555
C13_5 N1_5 1_555 1_555
C14_6 O6_6 1_555 1_555
H9_6 C14_6 1_555 1_555
H10_6 C15_6 1_555 1_555
C16_6 O9_6 1_555 1_555
H11_6 C16_6 1_555 1_555
Co8_2 O9_6 1_555 1_555
O11_6 C14_6 1_555 1_555
C9_6 C13_5 1_555 1_555
C12_5 C13_5 1_555 1_555
N1_6 H1_6 1_555 1_555
H2_6 N1_6 1_555 1_555
H8_6 C12_6 1_555 1_555
C13_6 N1_6 1_555 1_555
C12_6 C13_6 1_555 1_555

#END
