
###############################################################################
#
# This file contains modified crystal structure data generated from the
# MOF subset of the Cambridge Structural Database (CSD) v543 
# hosted by the Cambridge Crystallographic Data Centre (CCDC).
#
# This work is licensed under the Creative Commons
# Attribution-NonCommercial-ShareAlike 4.0 International License.
# To view a copy of this license, visit
# http://creativecommons.org/licenses/by-nc-sa/4.0/
# or send a letter to
# Creative Commons, PO Box 1866, Mountain View, CA 94042, USA.
#
# CIF created using the CSD Python API on 29 September 2022
# The structure has been converted into the P1 space group
# The structure has a 3D framework
# The original CSD entry CUNFOH01 is in the tetragonal crystal system
# The framework has been calculated to contain at least 10.0% void space
# The void calculation uses a probe of radius 1.32A, grid spacing 0.4
#
###############################################################################

data_CUNFOH01
_chemical_formula_moiety         '(C64 H96 Cu28 I6 N48)n'
_symmetry_cell_setting           triclinic
_symmetry_space_group_name_H-M   'P 1'
_symmetry_Int_Tables_number      1
_space_group_name_Hall           'P 1'
loop_
_symmetry_equiv_pos_site_id
_symmetry_equiv_pos_as_xyz
1 x,y,z
_cell_length_a                   17.4157(3)
_cell_length_b                   17.4157(3)
_cell_length_c                   18.5575(3)
_cell_angle_alpha                90
_cell_angle_beta                 90
_cell_angle_gamma                90
_cell_volume                     5628.61
loop_
_atom_site_label
_atom_site_type_symbol
_atom_site_fract_x
_atom_site_fract_y
_atom_site_fract_z
H1 H 0.7299 0.0258 0.7417
H3 H 0.7474 0.0172 0.8260
I1 I 0.45695(3) 0.87785(3) 0.70259(2)
Cu1 Cu 0.57293(5) 0.76598(6) 0.68147(5)
Cu2 Cu 0.80403(6) 0.87247(6) 0.90155(6)
N1 N 0.6462(3) 0.8186(3) 0.7471(3)
N2 N 0.7327(4) 0.8596(4) 0.8262(3)
N3 N 0.6660(4) 0.8925(4) 0.7293(4)
C1 C 0.6875(4) 0.8007(4) 0.8055(4)
C2 C 0.7170(4) 0.9153(4) 0.7783(4)
C3 C 0.7540(6) 0.9934(5) 0.7785(7)
H2 H 0.8089 0.9882 0.7680
C4 C 0.6822(5) 0.7251(5) 0.8429(4)
H4 H 0.6313 0.7028 0.8346
H5 H 0.6901 0.7325 0.8947
H6 H 0.7217 0.6905 0.8240
I2 I 0.54305(3) 0.62215(3) 0.70259(2)
I3 I 0.62785(3) 0.79305(3) 0.54741(2)
Cu3 Cu 0.42707(5) 0.73402(6) 0.68147(5)
Cu4 Cu 0.48402(6) 0.82293(5) 0.56853(5)
Cu5 Cu 0.62247(6) 0.94597(6) 0.65155(6)
N4 N 0.8575(4) 0.9160(4) 0.9793(4)
I1_2 I 0.04305(3) 0.12215(3) 0.20259(2)
Cu3_2 Cu 0.07293(5) 0.26598(6) 0.18147(5)
Cu4_2 Cu 0.01598(6) 0.17707(5) 0.06853(5)
Cu1_2 Cu 0.92707(5) 0.23402(6) 0.18147(5)
Cu2_2 Cu 0.69597(6) 0.12753(6) 0.40155(6)
N1_2 N 0.8538(3) 0.1814(3) 0.2471(3)
N2_2 N 0.7673(4) 0.1404(4) 0.3262(3)
N3_2 N 0.8340(4) 0.1075(4) 0.2293(4)
C1_2 C 0.8125(4) 0.1993(4) 0.3055(4)
C2_2 C 0.7830(4) 0.0847(4) 0.2783(4)
C3_2 C 0.7460(6) 0.0066(5) 0.2785(7)
H2_2 H 0.6911 0.0118 0.2680
C4_2 C 0.8178(5) 0.2749(5) 0.3429(4)
H4_2 H 0.8687 0.2972 0.3346
H5_2 H 0.8099 0.2675 0.3947
H6_2 H 0.7783 0.3095 0.3240
I2_2 I 0.95695(3) 0.37785(3) 0.20259(2)
I3_2 I 0.87215(3) 0.20695(3) 0.04741(2)
Cu5_2 Cu 0.87753(6) 0.05403(6) 0.15155(6)
N4_2 N 0.6425(4) 0.0840(4) 0.4793(4)
I2_3 I 0.12785(3) 0.79305(3) 0.95259(2)
Cu3_3 Cu 0.01598(6) 0.67707(5) 0.93147(5)
C3_3 C 0.7566(5) 0.0040(6) 0.0285(7)
H2_3 H 0.7618 0.0589 0.0180
I1_3 I 0.87215(3) 0.70695(3) 0.95259(2)
Cu1_3 Cu 0.98402(6) 0.82293(5) 0.93147(5)
N1_3 N 0.9314(3) 0.8962(3) 0.9971(3)
H1_2 H 0.7242 0.9799 0.9917
I3_3 I 0.95695(3) 0.87785(3) 0.79741(2)
Cu4_3 Cu 0.92707(5) 0.73402(6) 0.81853(5)
I1_4 I 0.62785(3) 0.29305(3) 0.45259(2)
Cu1_4 Cu 0.51598(6) 0.17707(5) 0.43147(5)
N1_4 N 0.5686(3) 0.1038(3) 0.4971(3)
N2_3 N 0.6096(4) 0.0173(4) 0.5762(3)
C1_3 C 0.5507(4) 0.0625(4) 0.5555(4)
C2_3 C 0.6653(4) 0.0330(4) 0.5283(4)
H1_3 H 0.7758 0.0201 0.4917
H3_2 H 0.7672 0.0026 0.5760
C4_3 C 0.4751(5) 0.0678(5) 0.5929(4)
H4_3 H 0.4528 0.1187 0.5846
H5_3 H 0.4825 0.0599 0.6447
H6_3 H 0.4405 0.0283 0.5740
I2_4 I 0.37215(3) 0.20695(3) 0.45259(2)
I3_4 I 0.54305(3) 0.12215(3) 0.29741(2)
Cu3_4 Cu 0.48402(6) 0.32293(5) 0.43147(5)
Cu4_4 Cu 0.57293(5) 0.26598(6) 0.31853(5)
C3_4 C 0.7434(5) 0.9960(6) 0.5285(7)
H2_4 H 0.7382 0.9411 0.5180
Cu2_3 Cu 0.30403(6) 0.37247(6) 0.40155(6)
N1_5 N 0.1462(3) 0.3186(3) 0.2471(3)
N2_4 N 0.2327(4) 0.3596(4) 0.3262(3)
N3_3 N 0.1660(4) 0.3925(4) 0.2293(4)
C1_4 C 0.1875(4) 0.3007(4) 0.3055(4)
C2_4 C 0.2170(4) 0.4153(4) 0.2783(4)
C3_5 C 0.2540(6) 0.4934(5) 0.2785(7)
H1_4 H 0.2299 0.5258 0.2417
H2_5 H 0.3089 0.4882 0.2680
H3_3 H 0.2474 0.5172 0.3260
C4_4 C 0.1822(5) 0.2251(5) 0.3429(4)
H4_4 H 0.1313 0.2028 0.3346
H5_4 H 0.1901 0.2325 0.3947
H6_4 H 0.2217 0.1905 0.3240
I3_5 I 0.12785(3) 0.29305(3) 0.04741(2)
Cu5_3 Cu 0.12247(6) 0.44597(6) 0.15155(6)
N4_3 N 0.3575(4) 0.4160(4) 0.4793(4)
Cu4_5 Cu 0.98402(6) 0.32293(5) 0.06853(5)
Cu2_4 Cu 0.19597(6) 0.62753(6) 0.90155(6)
N1_6 N 0.3538(3) 0.6814(3) 0.7471(3)
N2_5 N 0.2673(4) 0.6404(4) 0.8262(3)
N3_4 N 0.3340(4) 0.6075(4) 0.7293(4)
C1_5 C 0.3125(4) 0.6993(4) 0.8055(4)
C2_5 C 0.2830(4) 0.5847(4) 0.7783(4)
C3_6 C 0.2460(6) 0.5066(5) 0.7785(7)
H1_5 H 0.2701 0.4742 0.7417
H2_6 H 0.1911 0.5118 0.7680
H3_4 H 0.2526 0.4828 0.8260
C4_5 C 0.3178(5) 0.7749(5) 0.8429(4)
H4_5 H 0.3687 0.7972 0.8346
H5_5 H 0.3099 0.7675 0.8947
H6_5 H 0.2783 0.8095 0.8240
I3_6 I 0.37215(3) 0.70695(3) 0.54741(2)
Cu4_6 Cu 0.51598(6) 0.67707(5) 0.56853(5)
Cu5_4 Cu 0.37753(6) 0.55403(6) 0.65155(6)
N4_4 N 0.1425(4) 0.5840(4) 0.9793(4)
N1_7 N 0.4314(3) 0.3962(3) 0.4971(3)
N2_6 N 0.3904(4) 0.4827(4) 0.5762(3)
C1_6 C 0.4493(4) 0.4375(4) 0.5555(4)
C2_6 C 0.3347(4) 0.4670(4) 0.5283(4)
C3_7 C 0.2566(5) 0.5040(6) 0.5285(7)
H1_6 H 0.2242 0.4799 0.4917
H2_7 H 0.2618 0.5589 0.5180
H3_5 H 0.2328 0.4974 0.5760
C4_6 C 0.5249(5) 0.4322(5) 0.5929(4)
H4_6 H 0.5472 0.3813 0.5846
H5_6 H 0.5175 0.4401 0.6447
H6_6 H 0.5595 0.4717 0.5740
I3_7 I 0.45695(3) 0.37785(3) 0.29741(2)
Cu4_7 Cu 0.42707(5) 0.23402(6) 0.31853(5)
N2_7 N 0.1096(4) 0.5173(4) 0.0762(3)
C1_7 C 0.0507(4) 0.5625(4) 0.0555(4)
C2_7 C 0.1653(4) 0.5330(4) 0.0283(4)
C3_8 C 0.2434(5) 0.4960(6) 0.0285(7)
H2_8 H 0.2382 0.4411 0.0180
H3_6 H 0.2672 0.5026 0.0760
N1_8 N 0.0686(3) 0.6038(3) 0.9971(3)
H1_7 H 0.2758 0.5201 0.9917
I3_8 I 0.04305(3) 0.62215(3) 0.79741(2)
Cu4_8 Cu 0.07293(5) 0.76598(6) 0.81853(5)
Cu2_5 Cu 0.19597(6) 0.12753(6) 0.09845(6)
N1_9 N 0.3538(3) 0.1814(3) 0.2529(3)
N2_8 N 0.2673(4) 0.1404(4) 0.1738(3)
N3_5 N 0.3340(4) 0.1075(4) 0.2707(4)
C1_8 C 0.3125(4) 0.1993(4) 0.1945(4)
C2_8 C 0.2830(4) 0.0847(4) 0.2217(4)
C3_9 C 0.2460(6) 0.0066(5) 0.2215(7)
H2_9 H 0.1911 0.0118 0.2320
C4_7 C 0.3178(5) 0.2749(5) 0.1571(4)
H4_7 H 0.3687 0.2972 0.1654
H5_7 H 0.3099 0.2675 0.1053
H6_7 H 0.2783 0.3095 0.1760
Cu5_5 Cu 0.37753(6) 0.05403(6) 0.34845(6)
N4_5 N 0.1425(4) 0.0840(4) 0.0207(4)
Cu2_6 Cu 0.30403(6) 0.87247(6) 0.59845(6)
N1_10 N 0.1462(3) 0.8186(3) 0.7529(3)
N2_9 N 0.2327(4) 0.8596(4) 0.6738(3)
N3_6 N 0.1660(4) 0.8925(4) 0.7707(4)
C1_9 C 0.1875(4) 0.8007(4) 0.6945(4)
C2_9 C 0.2170(4) 0.9153(4) 0.7217(4)
C3_10 C 0.2540(6) 0.9934(5) 0.7215(7)
H2_10 H 0.3089 0.9882 0.7320
C4_8 C 0.1822(5) 0.7251(5) 0.6571(4)
H4_8 H 0.1313 0.7028 0.6654
H5_8 H 0.1901 0.7325 0.6053
H6_8 H 0.2217 0.6905 0.6760
Cu5_6 Cu 0.12247(6) 0.94597(6) 0.84845(6)
N4_6 N 0.3575(4) 0.9160(4) 0.5207(4)
N1_11 N 0.0686(3) 0.1038(3) 0.0029(3)
H1_8 H 0.2758 0.0201 0.0083
C3_11 C 0.2434(5) 0.9960(6) 0.9715(7)
H2_11 H 0.2382 0.9411 0.9820
C3_12 C 0.2566(5) 0.0040(6) 0.4715(7)
H2_12 H 0.2618 0.0589 0.4820
N1_12 N 0.4314(3) 0.8962(3) 0.5029(3)
N2_10 N 0.3904(4) 0.9827(4) 0.4238(3)
C1_10 C 0.4493(4) 0.9375(4) 0.4445(4)
C2_10 C 0.3347(4) 0.9670(4) 0.4717(4)
H1_9 H 0.2242 0.9799 0.5083
H3_7 H 0.2328 0.9974 0.4240
C4_9 C 0.5249(5) 0.9322(5) 0.4071(4)
H4_9 H 0.5472 0.8813 0.4154
H5_9 H 0.5175 0.9401 0.3553
H6_9 H 0.5595 0.9717 0.4260
Cu2_7 Cu 0.69597(6) 0.62753(6) 0.59845(6)
N1_13 N 0.8538(3) 0.6814(3) 0.7529(3)
N2_11 N 0.7673(4) 0.6404(4) 0.6738(3)
N3_7 N 0.8340(4) 0.6075(4) 0.7707(4)
C1_11 C 0.8125(4) 0.6993(4) 0.6945(4)
C2_11 C 0.7830(4) 0.5847(4) 0.7217(4)
C3_13 C 0.7460(6) 0.5066(5) 0.7215(7)
H1_10 H 0.7701 0.4742 0.7583
H2_13 H 0.6911 0.5118 0.7320
H3_8 H 0.7526 0.4828 0.6740
C4_10 C 0.8178(5) 0.7749(5) 0.6571(4)
H4_10 H 0.8687 0.7972 0.6654
H5_10 H 0.8099 0.7675 0.6053
H6_10 H 0.7783 0.8095 0.6760
Cu5_7 Cu 0.87753(6) 0.55403(6) 0.84845(6)
N4_7 N 0.6425(4) 0.5840(4) 0.5207(4)
Cu2_8 Cu 0.80403(6) 0.37247(6) 0.09845(6)
N1_14 N 0.6462(3) 0.3186(3) 0.2529(3)
N2_12 N 0.7327(4) 0.3596(4) 0.1738(3)
N3_8 N 0.6660(4) 0.3925(4) 0.2707(4)
C1_12 C 0.6875(4) 0.3007(4) 0.1945(4)
C2_12 C 0.7170(4) 0.4153(4) 0.2217(4)
C3_14 C 0.7540(6) 0.4934(5) 0.2215(7)
H1_11 H 0.7299 0.5258 0.2583
H2_14 H 0.8089 0.4882 0.2320
H3_9 H 0.7474 0.5172 0.1740
C4_11 C 0.6822(5) 0.2251(5) 0.1571(4)
H4_11 H 0.6313 0.2028 0.1654
H5_11 H 0.6901 0.2325 0.1053
H6_11 H 0.7217 0.1905 0.1760
Cu5_8 Cu 0.62247(6) 0.44597(6) 0.34845(6)
N4_8 N 0.8575(4) 0.4160(4) 0.0207(4)
N1_15 N 0.5686(3) 0.6038(3) 0.5029(3)
N2_13 N 0.6096(4) 0.5173(4) 0.4238(3)
C1_13 C 0.5507(4) 0.5625(4) 0.4445(4)
C2_13 C 0.6653(4) 0.5330(4) 0.4717(4)
C3_15 C 0.7434(5) 0.4960(6) 0.4715(7)
H1_12 H 0.7758 0.5201 0.5083
H2_15 H 0.7382 0.4411 0.4820
H3_10 H 0.7672 0.5026 0.4240
C4_12 C 0.4751(5) 0.5678(5) 0.4071(4)
H4_12 H 0.4528 0.6187 0.4154
H5_12 H 0.4825 0.5599 0.3553
H6_12 H 0.4405 0.5283 0.4260
N1_16 N 0.9314(3) 0.3962(3) 0.0029(3)
H1_13 H 0.7242 0.4799 0.0083
N2_14 N 0.8904(4) 0.4827(4) 0.9238(3)
C1_14 C 0.9493(4) 0.4375(4) 0.9445(4)
C2_14 C 0.8347(4) 0.4670(4) 0.9717(4)
C3_16 C 0.7566(5) 0.5040(6) 0.9715(7)
H2_16 H 0.7618 0.5589 0.9820
H3_11 H 0.7328 0.4974 0.9240
H1_14 H 0.7701 0.9742 0.2417
H3_12 H 0.7526 0.9828 0.3260
C4_13 C 0.0249(5) 0.9322(5) 0.0929(4)
H4_13 H 0.0472 0.8813 0.0846
H5_13 H 0.0175 0.9401 0.1447
H6_13 H 0.0595 0.9717 0.0740
N2_15 N 0.8904(4) 0.9827(4) 0.0762(3)
C1_15 C 0.9493(4) 0.9375(4) 0.0555(4)
C2_15 C 0.8347(4) 0.9670(4) 0.0283(4)
H3_13 H 0.7328 0.9974 0.0760
C4_14 C 0.9751(5) 0.5678(5) 0.0929(4)
H4_14 H 0.9528 0.6187 0.0846
H5_14 H 0.9825 0.5599 0.1447
H6_14 H 0.9405 0.5283 0.0740
H1_15 H 0.2701 0.9742 0.2583
H3_14 H 0.2526 0.9828 0.1740
H1_16 H 0.2299 0.0258 0.7583
H3_15 H 0.2474 0.0172 0.6740
N2_16 N 0.1096(4) 0.0173(4) 0.9238(3)
C1_16 C 0.0507(4) 0.0625(4) 0.9445(4)
C2_16 C 0.1653(4) 0.0330(4) 0.9717(4)
H3_16 H 0.2672 0.0026 0.9240
C4_15 C 0.9751(5) 0.0678(5) 0.9071(4)
H4_15 H 0.9528 0.1187 0.9154
H5_15 H 0.9825 0.0599 0.8553
H6_15 H 0.9405 0.0283 0.9260
C4_16 C 0.0249(5) 0.4322(5) 0.9071(4)
H4_16 H 0.0472 0.3813 0.9154
H5_16 H 0.0175 0.4401 0.8553
H6_16 H 0.0595 0.4717 0.9260
loop_
_geom_bond_atom_site_label_1
_geom_bond_atom_site_label_2
_geom_bond_site_symmetry_1
_geom_bond_site_symmetry_2
I1 Cu1 1_555 1_555
Cu1 N1 1_555 1_555
Cu2 N2 1_555 1_555
N1 N3 1_555 1_555
N2 C1 1_555 1_555
N3 C2 1_555 1_555
C1 N1 1_555 1_555
C2 N2 1_555 1_555
C3 C2 1_555 1_555
H2 C3 1_555 1_555
C4 C1 1_555 1_555
H4 C4 1_555 1_555
H5 C4 1_555 1_555
H6 C4 1_555 1_555
I2 Cu1 1_555 1_555
I3 Cu1 1_555 1_555
Cu3 I1 1_555 1_555
Cu4 I1 1_555 1_555
Cu5 N3 1_555 1_555
N4 Cu2 1_555 1_555
I2 Cu3 1_555 1_555
I3 Cu4 1_555 1_555
Cu3_2 I1_2 1_555 1_555
Cu4_2 I1_2 1_555 1_555
Cu1_2 N1_2 1_555 1_555
Cu2_2 N2_2 1_555 1_555
N1_2 N3_2 1_555 1_555
N2_2 C1_2 1_555 1_555
N3_2 C2_2 1_555 1_555
C1_2 N1_2 1_555 1_555
C2_2 N2_2 1_555 1_555
C3_2 C2_2 1_555 1_555
H2_2 C3_2 1_555 1_555
C4_2 C1_2 1_555 1_555
H4_2 C4_2 1_555 1_555
H5_2 C4_2 1_555 1_555
H6_2 C4_2 1_555 1_555
I2_2 Cu1_2 1_555 1_555
I3_2 Cu1_2 1_555 1_555
Cu5_2 N3_2 1_555 1_555
N4_2 Cu2_2 1_555 1_555
I2_3 Cu3_3 1_555 1_555
H2_3 C3_3 1_555 1_555
I1_3 Cu1_3 1_555 1_555
Cu1_3 N1_3 1_555 1_555
N1_3 N4 1_555 1_555
I3_3 Cu1_3 1_555 1_555
Cu4_3 I1_3 1_555 1_555
I3_3 Cu4_3 1_555 1_555
I1_4 Cu1_4 1_555 1_555
Cu1_4 N1_4 1_555 1_555
N1_4 N4_2 1_555 1_555
N2_3 C1_3 1_555 1_555
N4_2 C2_3 1_555 1_555
C1_3 N1_4 1_555 1_555
C2_3 N2_3 1_555 1_555
C4_3 C1_3 1_555 1_555
H4_3 C4_3 1_555 1_555
H5_3 C4_3 1_555 1_555
H6_3 C4_3 1_555 1_555
I2_4 Cu1_4 1_555 1_555
I3_4 Cu1_4 1_555 1_555
Cu3_4 I1_4 1_555 1_555
Cu4_4 I1_4 1_555 1_555
I2_4 Cu3_4 1_555 1_555
I3_4 Cu4_4 1_555 1_555
H2_4 C3_4 1_555 1_555
Cu3_2 N1_5 1_555 1_555
Cu2_3 N2_4 1_555 1_555
N1_5 N3_3 1_555 1_555
N2_4 C1_4 1_555 1_555
N3_3 C2_4 1_555 1_555
C1_4 N1_5 1_555 1_555
C2_4 N2_4 1_555 1_555
C3_5 C2_4 1_555 1_555
H1_4 C3_5 1_555 1_555
H2_5 C3_5 1_555 1_555
H3_3 C3_5 1_555 1_555
C4_4 C1_4 1_555 1_555
H4_4 C4_4 1_555 1_555
H5_4 C4_4 1_555 1_555
H6_4 C4_4 1_555 1_555
I3_5 Cu3_2 1_555 1_555
Cu5_3 N3_3 1_555 1_555
N4_3 Cu2_3 1_555 1_555
Cu4_5 I2_2 1_555 1_555
Cu3 N1_6 1_555 1_555
Cu2_4 N2_5 1_555 1_555
N1_6 N3_4 1_555 1_555
N2_5 C1_5 1_555 1_555
N3_4 C2_5 1_555 1_555
C1_5 N1_6 1_555 1_555
C2_5 N2_5 1_555 1_555
C3_6 C2_5 1_555 1_555
H1_5 C3_6 1_555 1_555
H2_6 C3_6 1_555 1_555
H3_4 C3_6 1_555 1_555
C4_5 C1_5 1_555 1_555
H4_5 C4_5 1_555 1_555
H5_5 C4_5 1_555 1_555
H6_5 C4_5 1_555 1_555
I3_6 Cu3 1_555 1_555
Cu4_6 I2 1_555 1_555
Cu5_4 N3_4 1_555 1_555
N4_4 Cu2_4 1_555 1_555
I3_6 Cu4_6 1_555 1_555
Cu3_4 N1_7 1_555 1_555
Cu5_4 N2_6 1_555 1_555
N1_7 N4_3 1_555 1_555
N2_6 C1_6 1_555 1_555
N4_3 C2_6 1_555 1_555
C1_6 N1_7 1_555 1_555
C2_6 N2_6 1_555 1_555
C3_7 C2_6 1_555 1_555
H1_6 C3_7 1_555 1_555
H2_7 C3_7 1_555 1_555
H3_5 C3_7 1_555 1_555
C4_6 C1_6 1_555 1_555
H4_6 C4_6 1_555 1_555
H5_6 C4_6 1_555 1_555
H6_6 C4_6 1_555 1_555
I3_7 Cu3_4 1_555 1_555
Cu4_7 I2_4 1_555 1_555
I3_7 Cu4_7 1_555 1_555
Cu5_3 N2_7 1_555 1_555
N2_7 C1_7 1_555 1_555
C2_7 N2_7 1_555 1_555
C3_8 C2_7 1_555 1_555
H2_8 C3_8 1_555 1_555
H3_6 C3_8 1_555 1_555
Cu3_3 N1_8 1_555 1_555
N1_8 N4_4 1_555 1_555
I3_8 Cu3_3 1_555 1_555
Cu4_8 I2_3 1_555 1_555
I3_8 Cu4_8 1_555 1_555
I3_4 Cu4_7 1_555 1_555
Cu4_7 N1_9 1_555 1_555
Cu2_5 N2_8 1_555 1_555
N1_9 N3_5 1_555 1_555
N2_8 C1_8 1_555 1_555
N3_5 C2_8 1_555 1_555
C1_8 N1_9 1_555 1_555
C2_8 N2_8 1_555 1_555
C3_9 C2_8 1_555 1_555
H2_9 C3_9 1_555 1_555
C4_7 C1_8 1_555 1_555
H4_7 C4_7 1_555 1_555
H5_7 C4_7 1_555 1_555
H6_7 C4_7 1_555 1_555
Cu5_5 N3_5 1_555 1_555
N4_5 Cu2_5 1_555 1_555
I3_7 Cu4_4 1_555 1_555
Cu4_8 N1_10 1_555 1_555
Cu2_6 N2_9 1_555 1_555
N1_10 N3_6 1_555 1_555
N2_9 C1_9 1_555 1_555
N3_6 C2_9 1_555 1_555
C1_9 N1_10 1_555 1_555
C2_9 N2_9 1_555 1_555
C3_10 C2_9 1_555 1_555
H2_10 C3_10 1_555 1_555
C4_8 C1_9 1_555 1_555
H4_8 C4_8 1_555 1_555
H5_8 C4_8 1_555 1_555
H6_8 C4_8 1_555 1_555
Cu5_6 N3_6 1_555 1_555
N4_6 Cu2_6 1_555 1_555
I3_5 Cu4_2 1_555 1_555
Cu4_2 N1_11 1_555 1_555
N1_11 N4_5 1_555 1_555
H2_11 C3_11 1_555 1_555
I3_2 Cu4_5 1_555 1_555
H2_12 C3_12 1_555 1_555
I3_6 Cu4 1_555 1_555
Cu4 N1_12 1_555 1_555
N1_12 N4_6 1_555 1_555
N2_10 C1_10 1_555 1_555
N4_6 C2_10 1_555 1_555
C1_10 N1_12 1_555 1_555
C2_10 N2_10 1_555 1_555
C4_9 C1_10 1_555 1_555
H4_9 C4_9 1_555 1_555
H5_9 C4_9 1_555 1_555
H6_9 C4_9 1_555 1_555
I3 Cu4_6 1_555 1_555
Cu4_3 N1_13 1_555 1_555
Cu2_7 N2_11 1_555 1_555
N1_13 N3_7 1_555 1_555
N2_11 C1_11 1_555 1_555
N3_7 C2_11 1_555 1_555
C1_11 N1_13 1_555 1_555
C2_11 N2_11 1_555 1_555
C3_13 C2_11 1_555 1_555
H1_10 C3_13 1_555 1_555
H2_13 C3_13 1_555 1_555
H3_8 C3_13 1_555 1_555
C4_10 C1_11 1_555 1_555
H4_10 C4_10 1_555 1_555
H5_10 C4_10 1_555 1_555
H6_10 C4_10 1_555 1_555
Cu5_7 N3_7 1_555 1_555
N4_7 Cu2_7 1_555 1_555
Cu4_4 N1_14 1_555 1_555
Cu2_8 N2_12 1_555 1_555
N1_14 N3_8 1_555 1_555
N2_12 C1_12 1_555 1_555
N3_8 C2_12 1_555 1_555
C1_12 N1_14 1_555 1_555
C2_12 N2_12 1_555 1_555
C3_14 C2_12 1_555 1_555
H1_11 C3_14 1_555 1_555
H2_14 C3_14 1_555 1_555
H3_9 C3_14 1_555 1_555
C4_11 C1_12 1_555 1_555
H4_11 C4_11 1_555 1_555
H5_11 C4_11 1_555 1_555
H6_11 C4_11 1_555 1_555
Cu5_8 N3_8 1_555 1_555
N4_8 Cu2_8 1_555 1_555
Cu4_6 N1_15 1_555 1_555
Cu5_8 N2_13 1_555 1_555
N1_15 N4_7 1_555 1_555
N2_13 C1_13 1_555 1_555
N4_7 C2_13 1_555 1_555
C1_13 N1_15 1_555 1_555
C2_13 N2_13 1_555 1_555
C3_15 C2_13 1_555 1_555
H1_12 C3_15 1_555 1_555
H2_15 C3_15 1_555 1_555
H3_10 C3_15 1_555 1_555
C4_12 C1_13 1_555 1_555
H4_12 C4_12 1_555 1_555
H5_12 C4_12 1_555 1_555
H6_12 C4_12 1_555 1_555
Cu4_5 N1_16 1_555 1_555
N1_16 N4_8 1_555 1_555
Cu5_7 N2_14 1_555 1_555
N2_14 C1_14 1_555 1_555
C2_14 N2_14 1_555 1_555
C3_16 C2_14 1_555 1_555
H2_16 C3_16 1_555 1_555
H3_11 C3_16 1_555 1_555
H4_13 C4_13 1_555 1_555
H5_13 C4_13 1_555 1_555
H6_13 C4_13 1_555 1_555
N2_15 C1_15 1_555 1_555
C2_15 N2_15 1_555 1_555
H4_14 C4_14 1_555 1_555
H5_14 C4_14 1_555 1_555
H6_14 C4_14 1_555 1_555
N2_16 C1_16 1_555 1_555
C2_16 N2_16 1_555 1_555
H4_15 C4_15 1_555 1_555
H5_15 C4_15 1_555 1_555
H6_15 C4_15 1_555 1_555
H4_16 C4_16 1_555 1_555
H5_16 C4_16 1_555 1_555
H6_16 C4_16 1_555 1_555

#END
