
###############################################################################
#
# This file contains modified crystal structure data generated from the
# MOF subset of the Cambridge Structural Database (CSD) v543 
# hosted by the Cambridge Crystallographic Data Centre (CCDC).
#
# This work is licensed under the Creative Commons
# Attribution-NonCommercial-ShareAlike 4.0 International License.
# To view a copy of this license, visit
# http://creativecommons.org/licenses/by-nc-sa/4.0/
# or send a letter to
# Creative Commons, PO Box 1866, Mountain View, CA 94042, USA.
#
# CIF created using the CSD Python API on 29 September 2022
# The structure has been converted into the P1 space group
# The structure has a 3D framework
# The original CSD entry CUNFID is in the tetragonal crystal system
# The framework has been calculated to contain at least 10.0% void space
# The void calculation uses a probe of radius 1.32A, grid spacing 0.4
# H atom positions have been added when not included in the experimental data
# Generated hydrogen atom positions removed from atoms on special positions
#
###############################################################################

data_CUNFID
_chemical_formula_moiety         '(C116 H116 N12 Nd1 O36 S12 6+)n'
_symmetry_cell_setting           triclinic
_symmetry_space_group_name_H-M   'P 1'
_symmetry_Int_Tables_number      1
_space_group_name_Hall           'P 1'
loop_
_symmetry_equiv_pos_site_id
_symmetry_equiv_pos_as_xyz
1 x,y,z
_cell_length_a                   15.4040(5)
_cell_length_b                   15.4040(5)
_cell_length_c                   9.9909(12)
_cell_angle_alpha                90
_cell_angle_beta                 90
_cell_angle_gamma                90
_cell_volume                     2370.67
loop_
_atom_site_label
_atom_site_type_symbol
_atom_site_fract_x
_atom_site_fract_y
_atom_site_fract_z
N1 N 0.1319(4) 0.0314(4) 0.0000
C1 C 0.1639(5) 0.1135(5) 0.0000
C2 C 0.2550(6) 0.1070(6) 0.0000
H1 H 0.2942 0.1530 0.0000
C3 C 0.2753(6) 0.0200(6) 0.0000
S2 S 0.31698(11) 0.52792(12) 0.0000
O3 O 0.3681(3) 0.5323(3) 0.1210(4)
O4 O 0.2512(3) 0.5894(3) 0.0000
H6 H 0.0034 0.3310 0.0000
C13 C 0.0264(5) 0.1990(5) 0.0000
C14 C 0.1171(5) 0.1910(5) 0.0000
C15 C 0.1680(5) 0.2732(5) 0.0000
C18 C 0.2642(4) 0.4244(4) 0.0000
C32 C 0.1950(4) 0.3120(4) 0.1181(7)
H17 H 0.1821 0.2850 0.1989
C33 C 0.2397(4) 0.3878(4) 0.1203(6)
H18 H 0.2534 0.4146 0.2010
Nd4 Nd 0.5000 0.5000 0.2500
N1_2 N 0.1319(4) 0.0314(4) 1.0000
C1_2 C 0.1639(5) 0.1135(5) 1.0000
C2_2 C 0.2550(6) 0.1070(6) 1.0000
H1_2 H 0.2942 0.1530 1.0000
C3_2 C 0.2753(6) 0.0200(6) 1.0000
S2_2 S 0.31698(11) 0.52792(12) 1.0000
O4_2 O 0.2512(3) 0.5894(3) 1.0000
H6_2 H 0.0034 0.3310 1.0000
C13_2 C 0.0264(5) 0.1990(5) 1.0000
C14_2 C 0.1171(5) 0.1910(5) 1.0000
C15_2 C 0.1680(5) 0.2732(5) 1.0000
C16 C 0.1950(4) 0.3120(4) 0.8819(7)
H7 H 0.1821 0.2850 0.8011
C17 C 0.2397(4) 0.3878(4) 0.8797(6)
H8 H 0.2534 0.4146 0.7990
C18_2 C 0.2642(4) 0.4244(4) 1.0000
O9 O 0.3681(3) 0.5323(3) 0.8790(4)
Nd8 Nd 0.5000 0.5000 0.7500
S1 S 0.52792(12) 0.68302(11) 0.0000
O1 O 0.5323(3) 0.6319(3) 0.1210(4)
O2 O 0.5894(3) 0.7488(3) 0.0000
H2 H 0.3310 0.9966 0.0000
C4 C 0.1990(5) 0.9736(5) 0.0000
C5 C 0.1910(5) 0.8829(5) 0.0000
C6 C 0.2732(5) 0.8320(5) 0.0000
C9 C 0.4244(4) 0.7358(4) 0.0000
N3 N 0.0314(4) 0.8681(4) 0.0000
C19 C 0.1135(5) 0.8361(5) 0.0000
C20 C 0.1070(6) 0.7450(6) 0.0000
H9 H 0.1530 0.7058 0.0000
C21 C 0.0200(6) 0.7247(6) 0.0000
C28 C 0.3120(4) 0.8050(4) 0.1181(7)
H13 H 0.2850 0.8179 0.1989
C29 C 0.3878(4) 0.7603(4) 0.1203(6)
H14 H 0.4146 0.7466 0.2010
O13 O 0.4677(3) 0.3681(3) 0.1210(4)
O15 O 0.6319(3) 0.4677(3) 0.1210(4)
O16 O 0.4677(3) 0.6319(3) 0.3790(4)
O17 O 0.5323(3) 0.3681(3) 0.3790(4)
O18 O 0.6319(3) 0.5323(3) 0.3790(4)
O19 O 0.3681(3) 0.4677(3) 0.3790(4)
H26 H 0.0154793 0.93204 0
S1_2 S 0.52792(12) 0.68302(11) 1.0000
O2_2 O 0.5894(3) 0.7488(3) 1.0000
H2_2 H 0.3310 0.9966 1.0000
C4_2 C 0.1990(5) 0.9736(5) 1.0000
C5_2 C 0.1910(5) 0.8829(5) 1.0000
C6_2 C 0.2732(5) 0.8320(5) 1.0000
C7 C 0.3120(4) 0.8050(4) 0.8819(7)
H3 H 0.2850 0.8179 0.8011
C8 C 0.3878(4) 0.7603(4) 0.8797(6)
H4 H 0.4146 0.7466 0.7990
C9_2 C 0.4244(4) 0.7358(4) 1.0000
N3_2 N 0.0314(4) 0.8681(4) 1.0000
C19_2 C 0.1135(5) 0.8361(5) 1.0000
C20_2 C 0.1070(6) 0.7450(6) 1.0000
H9_2 H 0.1530 0.7058 1.0000
C21_2 C 0.0200(6) 0.7247(6) 1.0000
O7 O 0.5323(3) 0.6319(3) 0.8790(4)
H26_2 H 0.0154793 0.93204 1
N2 N 0.9686(4) 0.1319(4) 0.0000
C10 C 0.8865(5) 0.1639(5) 0.0000
C11 C 0.8930(6) 0.2550(6) 0.0000
H5 H 0.8470 0.2942 0.0000
C12 C 0.9800(6) 0.2753(6) 0.0000
S4 S 0.47208(12) 0.31698(11) 0.0000
O11 O 0.4106(3) 0.2512(3) 0.0000
H20 H 0.6690 0.0034 0.0000
C37 C 0.8010(5) 0.0264(5) 0.0000
C38 C 0.8090(5) 0.1171(5) 0.0000
C39 C 0.7268(5) 0.1680(5) 0.0000
C42 C 0.5756(4) 0.2642(4) 0.0000
C43 C 0.6880(4) 0.1950(4) 0.1181(7)
H23 H 0.7150 0.1821 0.1989
C44 C 0.6122(4) 0.2397(4) 0.1203(6)
H24 H 0.5854 0.2534 0.2010
H25 H 0.984521 0.0679603 0
N2_2 N 0.9686(4) 0.1319(4) 1.0000
C10_2 C 0.8865(5) 0.1639(5) 1.0000
C11_2 C 0.8930(6) 0.2550(6) 1.0000
H5_2 H 0.8470 0.2942 1.0000
C12_2 C 0.9800(6) 0.2753(6) 1.0000
S4_2 S 0.47208(12) 0.31698(11) 1.0000
O11_2 O 0.4106(3) 0.2512(3) 1.0000
H20_2 H 0.6690 0.0034 1.0000
C37_2 C 0.8010(5) 0.0264(5) 1.0000
C38_2 C 0.8090(5) 0.1171(5) 1.0000
C39_2 C 0.7268(5) 0.1680(5) 1.0000
C40 C 0.6880(4) 0.1950(4) 0.8819(7)
H21 H 0.7150 0.1821 0.8011
C41 C 0.6122(4) 0.2397(4) 0.8797(6)
H22 H 0.5854 0.2534 0.7990
C42_2 C 0.5756(4) 0.2642(4) 1.0000
O12 O 0.4677(3) 0.3681(3) 0.8790(4)
H25_2 H 0.984521 0.0679603 1
S3 S 0.68302(11) 0.47208(12) 0.0000
O6 O 0.7488(3) 0.4106(3) 0.0000
H10 H 0.9966 0.6690 0.0000
C22 C 0.9736(5) 0.8010(5) 0.0000
C23 C 0.8829(5) 0.8090(5) 0.0000
C24 C 0.8320(5) 0.7268(5) 0.0000
C27 C 0.7358(4) 0.5756(4) 0.0000
C30 C 0.8050(4) 0.6880(4) 0.1181(7)
H15 H 0.8179 0.7150 0.1989
C31 C 0.7603(4) 0.6122(4) 0.1203(6)
H16 H 0.7466 0.5854 0.2010
N4 N 0.8681(4) 0.9686(4) 0.0000
C34 C 0.8361(5) 0.8865(5) 0.0000
C35 C 0.7450(6) 0.8930(6) 0.0000
H19 H 0.7058 0.8470 0.0000
C36 C 0.7247(6) 0.9800(6) 0.0000
S3_2 S 0.68302(11) 0.47208(12) 1.0000
O6_2 O 0.7488(3) 0.4106(3) 1.0000
H10_2 H 0.9966 0.6690 1.0000
C22_2 C 0.9736(5) 0.8010(5) 1.0000
C23_2 C 0.8829(5) 0.8090(5) 1.0000
C24_2 C 0.8320(5) 0.7268(5) 1.0000
C25 C 0.8050(4) 0.6880(4) 0.8819(7)
H11 H 0.8179 0.7150 0.8011
C26 C 0.7603(4) 0.6122(4) 0.8797(6)
H12 H 0.7466 0.5854 0.7990
C27_2 C 0.7358(4) 0.5756(4) 1.0000
O8 O 0.6319(3) 0.4677(3) 0.8790(4)
N4_2 N 0.8681(4) 0.9686(4) 1.0000
C34_2 C 0.8361(5) 0.8865(5) 1.0000
C35_2 C 0.7450(6) 0.8930(6) 1.0000
H19_2 H 0.7058 0.8470 1.0000
C36_2 C 0.7247(6) 0.9800(6) 1.0000
H26_3 H 0.0679603 0.0154793 0
H26_4 H 0.0679603 0.0154793 1
H25_3 H 0.93204 0.984521 0
H25_4 H 0.93204 0.984521 1
N2_3 N 0.0314(4) 0.1319(4) 0.5000
C10_3 C 0.1135(5) 0.1639(5) 0.5000
C11_3 C 0.1070(6) 0.2550(6) 0.5000
H5_3 H 0.1530 0.2942 0.5000
C12_3 C 0.0200(6) 0.2753(6) 0.5000
S4_3 S 0.52792(12) 0.31698(11) 0.5000
O11_3 O 0.5894(3) 0.2512(3) 0.5000
H20_3 H 0.3310 0.0034 0.5000
C37_3 C 0.1990(5) 0.0264(5) 0.5000
C38_3 C 0.1910(5) 0.1171(5) 0.5000
C39_3 C 0.2732(5) 0.1680(5) 0.5000
C40_2 C 0.3120(4) 0.1950(4) 0.6181(7)
H21_2 H 0.2850 0.1821 0.6989
C41_2 C 0.3878(4) 0.2397(4) 0.6203(6)
H22_2 H 0.4146 0.2534 0.7010
C42_3 C 0.4244(4) 0.2642(4) 0.5000
O12_2 O 0.5323(3) 0.3681(3) 0.6210(4)
C43_2 C 0.3120(4) 0.1950(4) 0.3819(7)
H23_2 H 0.2850 0.1821 0.3011
C44_2 C 0.3878(4) 0.2397(4) 0.3797(6)
H24_2 H 0.4146 0.2534 0.2990
H25_5 H 0.0154793 0.0679603 0.5
S3_3 S 0.31698(11) 0.47208(12) 0.5000
O6_3 O 0.2512(3) 0.4106(3) 0.5000
H10_3 H 0.0034 0.6690 0.5000
C22_3 C 0.0264(5) 0.8010(5) 0.5000
C23_3 C 0.1171(5) 0.8090(5) 0.5000
C24_3 C 0.1680(5) 0.7268(5) 0.5000
C25_2 C 0.1950(4) 0.6880(4) 0.6181(7)
H11_2 H 0.1821 0.7150 0.6989
C26_2 C 0.2397(4) 0.6122(4) 0.6203(6)
H12_2 H 0.2534 0.5854 0.7010
C27_3 C 0.2642(4) 0.5756(4) 0.5000
O8_2 O 0.3681(3) 0.4677(3) 0.6210(4)
C30_2 C 0.1950(4) 0.6880(4) 0.3819(7)
H15_2 H 0.1821 0.7150 0.3011
C31_2 C 0.2397(4) 0.6122(4) 0.3797(6)
H16_2 H 0.2534 0.5854 0.2990
N4_3 N 0.1319(4) 0.9686(4) 0.5000
C34_3 C 0.1639(5) 0.8865(5) 0.5000
C35_3 C 0.2550(6) 0.8930(6) 0.5000
H19_3 H 0.2942 0.8470 0.5000
C36_3 C 0.2753(6) 0.9800(6) 0.5000
N1_3 N 0.8681(4) 0.0314(4) 0.5000
C1_3 C 0.8361(5) 0.1135(5) 0.5000
C2_3 C 0.7450(6) 0.1070(6) 0.5000
H1_3 H 0.7058 0.1530 0.5000
C3_3 C 0.7247(6) 0.0200(6) 0.5000
S2_3 S 0.68302(11) 0.52792(12) 0.5000
O4_3 O 0.7488(3) 0.5894(3) 0.5000
H6_3 H 0.9966 0.3310 0.5000
C13_3 C 0.9736(5) 0.1990(5) 0.5000
C14_3 C 0.8829(5) 0.1910(5) 0.5000
C15_3 C 0.8320(5) 0.2732(5) 0.5000
C16_2 C 0.8050(4) 0.3120(4) 0.6181(7)
H7_2 H 0.8179 0.2850 0.6989
C17_2 C 0.7603(4) 0.3878(4) 0.6203(6)
H8_2 H 0.7466 0.4146 0.7010
C18_3 C 0.7358(4) 0.4244(4) 0.5000
O9_2 O 0.6319(3) 0.5323(3) 0.6210(4)
C32_2 C 0.8050(4) 0.3120(4) 0.3819(7)
H17_2 H 0.8179 0.2850 0.3011
C33_2 C 0.7603(4) 0.3878(4) 0.3797(6)
H18_2 H 0.7466 0.4146 0.2990
S1_3 S 0.47208(12) 0.68302(11) 0.5000
O2_3 O 0.4106(3) 0.7488(3) 0.5000
H2_3 H 0.6690 0.9966 0.5000
C4_3 C 0.8010(5) 0.9736(5) 0.5000
C5_3 C 0.8090(5) 0.8829(5) 0.5000
C6_3 C 0.7268(5) 0.8320(5) 0.5000
C7_2 C 0.6880(4) 0.8050(4) 0.6181(7)
H3_2 H 0.7150 0.8179 0.6989
C8_2 C 0.6122(4) 0.7603(4) 0.6203(6)
H4_2 H 0.5854 0.7466 0.7010
C9_3 C 0.5756(4) 0.7358(4) 0.5000
N3_3 N 0.9686(4) 0.8681(4) 0.5000
C19_3 C 0.8865(5) 0.8361(5) 0.5000
C20_3 C 0.8930(6) 0.7450(6) 0.5000
H9_3 H 0.8470 0.7058 0.5000
C21_3 C 0.9800(6) 0.7247(6) 0.5000
O7_2 O 0.4677(3) 0.6319(3) 0.6210(4)
C28_2 C 0.6880(4) 0.8050(4) 0.3819(7)
H13_2 H 0.7150 0.8179 0.3011
C29_2 C 0.6122(4) 0.7603(4) 0.3797(6)
H14_2 H 0.5854 0.7466 0.2990
H26_5 H 0.984521 0.93204 0.5
H25_6 H 0.0679603 0.984521 0.5
H26_6 H 0.93204 0.0154793 0.5
O20 O 0.0000 0.0000 0.2500
O20_2 O 0.0000 1.0000 0.2500
O20_3 O 1.0000 0.0000 0.2500
O20_4 O 1.0000 1.0000 0.2500
O20_5 O 0.0000 0.0000 0.7500
O20_6 O 0.0000 1.0000 0.7500
O20_7 O 1.0000 0.0000 0.7500
O20_8 O 1.0000 1.0000 0.7500
loop_
_geom_bond_atom_site_label_1
_geom_bond_atom_site_label_2
_geom_bond_site_symmetry_1
_geom_bond_site_symmetry_2
N1 C1 1_555 1_555
C1 C2 1_555 1_555
C2 H1 1_555 1_555
C3 C2 1_555 1_555
S2 O3 1_555 1_555
O3 Nd4 1_555 1_555
O4 S2 1_555 1_555
C14 C1 1_555 1_555
C15 C14 1_555 1_555
C18 S2 1_555 1_555
C32 C15 1_555 1_555
H17 C32 1_555 1_555
C33 C18 1_555 1_555
H18 C33 1_555 1_555
C13 C14 1_555 1_555
C32 C33 1_555 1_555
N1_2 C1_2 1_555 1_555
C1_2 C2_2 1_555 1_555
C2_2 H1_2 1_555 1_555
C3_2 C2_2 1_555 1_555
O4_2 S2_2 1_555 1_555
C14_2 C1_2 1_555 1_555
C15_2 C14_2 1_555 1_555
C16 C15_2 1_555 1_555
H7 C16 1_555 1_555
C17 C16 1_555 1_555
H8 C17 1_555 1_555
C18_2 S2_2 1_555 1_555
O9 S2_2 1_555 1_555
Nd8 O9 1_555 1_555
C13_2 C14_2 1_555 1_555
C17 C18_2 1_555 1_555
Nd4 O1 1_555 1_555
S1 O1 1_555 1_555
O2 S1 1_555 1_555
C5 C4 1_555 1_555
C6 C5 1_555 1_555
C9 S1 1_555 1_555
N3 C19 1_555 1_555
C19 C5 1_555 1_555
C20 C19 1_555 1_555
H9 C20 1_555 1_555
C21 C20 1_555 1_555
C28 C6 1_555 1_555
H13 C28 1_555 1_555
C29 C9 1_555 1_555
H14 C29 1_555 1_555
O13 Nd4 1_555 1_555
O15 Nd4 1_555 1_555
O16 Nd4 1_555 1_555
O17 Nd4 1_555 1_555
O18 Nd4 1_555 1_555
O19 Nd4 1_555 1_555
C28 C29 1_555 1_555
N3 H26 1_555 1_555
O2_2 S1_2 1_555 1_555
C5_2 C4_2 1_555 1_555
C6_2 C5_2 1_555 1_555
C7 C6_2 1_555 1_555
H3 C7 1_555 1_555
C8 C7 1_555 1_555
H4 C8 1_555 1_555
C9_2 S1_2 1_555 1_555
N3_2 C19_2 1_555 1_555
C19_2 C5_2 1_555 1_555
C20_2 C19_2 1_555 1_555
H9_2 C20_2 1_555 1_555
C21_2 C20_2 1_555 1_555
O7 S1_2 1_555 1_555
Nd8 O7 1_555 1_555
C8 C9_2 1_555 1_555
N3_2 H26_2 1_555 1_555
N2 C10 1_555 1_555
C10 C11 1_555 1_555
C11 H5 1_555 1_555
C12 C11 1_555 1_555
S4 O13 1_555 1_555
O11 S4 1_555 1_555
C38 C10 1_555 1_555
C39 C38 1_555 1_555
C42 S4 1_555 1_555
C43 C39 1_555 1_555
H23 C43 1_555 1_555
C44 C42 1_555 1_555
H24 C44 1_555 1_555
C37 C38 1_555 1_555
C43 C44 1_555 1_555
N2 H25 1_555 1_555
N2_2 C10_2 1_555 1_555
C10_2 C11_2 1_555 1_555
C11_2 H5_2 1_555 1_555
C12_2 C11_2 1_555 1_555
O11_2 S4_2 1_555 1_555
C38_2 C10_2 1_555 1_555
C39_2 C38_2 1_555 1_555
C40 C39_2 1_555 1_555
H21 C40 1_555 1_555
C41 C40 1_555 1_555
H22 C41 1_555 1_555
C42_2 S4_2 1_555 1_555
O12 S4_2 1_555 1_555
Nd8 O12 1_555 1_555
C37_2 C38_2 1_555 1_555
C41 C42_2 1_555 1_555
N2_2 H25_2 1_555 1_555
S3 O15 1_555 1_555
O6 S3 1_555 1_555
C23 C22 1_555 1_555
C24 C23 1_555 1_555
C27 S3 1_555 1_555
C30 C24 1_555 1_555
H15 C30 1_555 1_555
C31 C27 1_555 1_555
H16 C31 1_555 1_555
N4 C34 1_555 1_555
C34 C23 1_555 1_555
C35 C34 1_555 1_555
H19 C35 1_555 1_555
C36 C35 1_555 1_555
C30 C31 1_555 1_555
O6_2 S3_2 1_555 1_555
C23_2 C22_2 1_555 1_555
C24_2 C23_2 1_555 1_555
C25 C24_2 1_555 1_555
H11 C25 1_555 1_555
C26 C25 1_555 1_555
H12 C26 1_555 1_555
C27_2 S3_2 1_555 1_555
O8 S3_2 1_555 1_555
N4_2 C34_2 1_555 1_555
C34_2 C23_2 1_555 1_555
C35_2 C34_2 1_555 1_555
H19_2 C35_2 1_555 1_555
C36_2 C35_2 1_555 1_555
Nd8 O8 1_555 1_555
C26 C27_2 1_555 1_555
N1 H26_3 1_555 1_555
N1_2 H26_4 1_555 1_555
N4 H25_3 1_555 1_555
N4_2 H25_4 1_555 1_555
N2_3 C10_3 1_555 1_555
C10_3 C11_3 1_555 1_555
C11_3 H5_3 1_555 1_555
C12_3 C11_3 1_555 1_555
S4_3 O17 1_555 1_555
O11_3 S4_3 1_555 1_555
C38_3 C10_3 1_555 1_555
C39_3 C38_3 1_555 1_555
C40_2 C39_3 1_555 1_555
H21_2 C40_2 1_555 1_555
C41_2 C40_2 1_555 1_555
H22_2 C41_2 1_555 1_555
C42_3 S4_3 1_555 1_555
O12_2 S4_3 1_555 1_555
C43_2 C39_3 1_555 1_555
H23_2 C43_2 1_555 1_555
C44_2 C42_3 1_555 1_555
H24_2 C44_2 1_555 1_555
Nd8 O12_2 1_555 1_555
C37_3 C38_3 1_555 1_555
C41_2 C42_3 1_555 1_555
C43_2 C44_2 1_555 1_555
N2_3 H25_5 1_555 1_555
S3_3 O19 1_555 1_555
O6_3 S3_3 1_555 1_555
C23_3 C22_3 1_555 1_555
C24_3 C23_3 1_555 1_555
C25_2 C24_3 1_555 1_555
H11_2 C25_2 1_555 1_555
C26_2 C25_2 1_555 1_555
H12_2 C26_2 1_555 1_555
C27_3 S3_3 1_555 1_555
O8_2 S3_3 1_555 1_555
C30_2 C24_3 1_555 1_555
H15_2 C30_2 1_555 1_555
C31_2 C27_3 1_555 1_555
H16_2 C31_2 1_555 1_555
N4_3 C34_3 1_555 1_555
C34_3 C23_3 1_555 1_555
C35_3 C34_3 1_555 1_555
H19_3 C35_3 1_555 1_555
C36_3 C35_3 1_555 1_555
Nd8 O8_2 1_555 1_555
C26_2 C27_3 1_555 1_555
C30_2 C31_2 1_555 1_555
N1_3 C1_3 1_555 1_555
C1_3 C2_3 1_555 1_555
C2_3 H1_3 1_555 1_555
C3_3 C2_3 1_555 1_555
S2_3 O18 1_555 1_555
O4_3 S2_3 1_555 1_555
C14_3 C1_3 1_555 1_555
C15_3 C14_3 1_555 1_555
C16_2 C15_3 1_555 1_555
H7_2 C16_2 1_555 1_555
C17_2 C16_2 1_555 1_555
H8_2 C17_2 1_555 1_555
C18_3 S2_3 1_555 1_555
O9_2 S2_3 1_555 1_555
C32_2 C15_3 1_555 1_555
H17_2 C32_2 1_555 1_555
C33_2 C18_3 1_555 1_555
H18_2 C33_2 1_555 1_555
Nd8 O9_2 1_555 1_555
C13_3 C14_3 1_555 1_555
C17_2 C18_3 1_555 1_555
C32_2 C33_2 1_555 1_555
S1_3 O16 1_555 1_555
O2_3 S1_3 1_555 1_555
C5_3 C4_3 1_555 1_555
C6_3 C5_3 1_555 1_555
C7_2 C6_3 1_555 1_555
H3_2 C7_2 1_555 1_555
C8_2 C7_2 1_555 1_555
H4_2 C8_2 1_555 1_555
C9_3 S1_3 1_555 1_555
N3_3 C19_3 1_555 1_555
C19_3 C5_3 1_555 1_555
C20_3 C19_3 1_555 1_555
H9_3 C20_3 1_555 1_555
C21_3 C20_3 1_555 1_555
O7_2 S1_3 1_555 1_555
C28_2 C6_3 1_555 1_555
H13_2 C28_2 1_555 1_555
C29_2 C9_3 1_555 1_555
H14_2 C29_2 1_555 1_555
Nd8 O7_2 1_555 1_555
C8_2 C9_3 1_555 1_555
C28_2 C29_2 1_555 1_555
N3_3 H26_5 1_555 1_555
N4_3 H25_6 1_555 1_555
N1_3 H26_6 1_555 1_555

#END
