
###############################################################################
#
# This file contains modified crystal structure data generated from the
# MOF subset of the Cambridge Structural Database (CSD) v543 
# hosted by the Cambridge Crystallographic Data Centre (CCDC).
#
# This work is licensed under the Creative Commons
# Attribution-NonCommercial-ShareAlike 4.0 International License.
# To view a copy of this license, visit
# http://creativecommons.org/licenses/by-nc-sa/4.0/
# or send a letter to
# Creative Commons, PO Box 1866, Mountain View, CA 94042, USA.
#
# CIF created using the CSD Python API on 29 September 2022
# The structure has been converted into the P1 space group
# The structure has a 3D framework
# The original CSD entry CUNWEO is in the monoclinic crystal system
# The framework has been calculated to contain at least 10.0% void space
# The void calculation uses a probe of radius 1.32A, grid spacing 0.4
#
###############################################################################

data_CUNWEO
_chemical_formula_moiety         '(C112 H56 Cd4 N16 O30)n'
_symmetry_cell_setting           triclinic
_symmetry_space_group_name_H-M   'P 1'
_symmetry_Int_Tables_number      1
_space_group_name_Hall           'P 1'
loop_
_symmetry_equiv_pos_site_id
_symmetry_equiv_pos_as_xyz
1 x,y,z
_cell_length_a                   8.3930(4)
_cell_length_b                   22.2351(10)
_cell_length_c                   18.7421(8)
_cell_angle_alpha                90
_cell_angle_beta                 94.031(2)
_cell_angle_gamma                90
_cell_volume                     3488.98
loop_
_atom_site_label
_atom_site_type_symbol
_atom_site_fract_x
_atom_site_fract_y
_atom_site_fract_z
H2 H 0.0008 0.6198 0.7466
Cd2 Cd 0.68424(6) 0.443042(18) 0.01288(2)
O9 O 0.2067(6) 0.5067(2) 0.0785(2)
N5 N 0.4555(7) 0.6213(2) 0.0649(3)
Cd1 Cd 0.31576(6) 0.556958(18) 0.98712(2)
O1 O 0.5706(6) 0.54015(19) 0.9438(2)
O2 O 0.7933(6) 0.4933(2) 0.9215(2)
O3 O 0.8937(7) 0.7298(3) 0.6612(4)
O4 O 0.4151(8) 0.7287(3) 0.7642(4)
N1 N 0.4555(7) 0.8787(2) 0.5649(3)
N2 N 0.6409(8) 0.7428(3) 0.7009(3)
C1 C 0.6936(9) 0.5342(3) 0.9098(3)
C2 C 0.7246(9) 0.5801(3) 0.8530(3)
C3 C 0.8671(10) 0.5776(4) 0.8202(4)
H1 H 0.9420 0.5467 0.8328
C4 C 0.9019(10) 0.6204(4) 0.7683(4)
C5 C 0.7890(10) 0.6627(3) 0.7503(4)
C6 C 0.6461(9) 0.6640(3) 0.7820(4)
C7 C 0.6104(9) 0.6238(3) 0.8347(3)
H3 H 0.5127 0.6258 0.8572
C8 C 0.5486(11) 0.7143(4) 0.7517(4)
C9 C 0.7901(10) 0.7135(4) 0.6982(4)
C10 C 0.5562(9) 0.8384(3) 0.5430(3)
H4 H 0.5847 0.8411 0.4949
C11 C 0.6236(9) 0.7924(3) 0.5847(4)
H5 H 0.6945 0.7640 0.5662
C12 C 0.5823(9) 0.7899(3) 0.6553(4)
C13 C 0.4787(10) 0.8324(3) 0.6796(4)
H6 H 0.4504 0.8322 0.7278
C14 C 0.4179(9) 0.8751(3) 0.6321(4)
H7 H 0.3445 0.9036 0.6485
O5 O 0.2719(6) 0.64078(19) 0.9084(2)
O6 O 0.0903(6) 0.6231(2) 0.9863(2)
O7 O 0.1440(7) 0.8395(3) 0.7362(3)
C15 C 0.1432(9) 0.6533(3) 0.9360(3)
C16 C 0.0462(9) 0.7066(3) 0.9086(4)
C20 C 0.0059(10) 0.7882(3) 0.8288(4)
C21 C 0.1016(10) 0.7425(3) 0.8539(4)
H10 H 0.2021 0.7351 0.8352
C23 C 0.0296(10) 0.8325(4) 0.7702(4)
Cd3 Cd 0.31576(6) 0.943042(18) 0.48712(2)
N6 N 0.2246(7) 0.4947(2) 0.8971(3)
C24 C 0.7380(8) 0.0043(3) 0.6707(3)
H11 H 0.6824 0.0401 0.6809
Cd4 Cd 0.68424(6) 0.056958(18) 0.51288(2)
O8 O 0.6573(7) 0.8760(2) 0.8254(3)
N3 N 0.8898(7) 0.8682(3) 0.7644(3)
N4 N 0.7754(7) 0.9947(2) 0.6029(3)
C17 C 0.9023(9) 0.7189(3) 0.9367(4)
H8 H 0.8680 0.6942 0.9740
C18 C 0.8048(9) 0.7669(3) 0.9115(4)
H9 H 0.7063 0.7758 0.9312
C19 C 0.8610(9) 0.8007(3) 0.8559(4)
C22 C 0.7837(10) 0.8518(3) 0.8167(4)
C25 C 0.7763(9) 0.9648(3) 0.7262(4)
H12 H 0.7479 0.9733 0.7733
C26 C 0.8575(9) 0.9121(3) 0.7111(4)
C27 C 0.9030(8) 0.9030(3) 0.6422(4)
H13 H 0.9629 0.8686 0.6303
C28 C 0.8587(5) 0.9452(2) 0.5924(2)
H14 H 0.8904 0.9386 0.5453
O8_2 O 0.3427(7) 0.3760(2) 0.6746(3)
N3_2 N 0.1102(7) 0.3682(3) 0.7356(3)
C17_2 C 0.0977(9) 0.2189(3) 0.5633(4)
H8_2 H 0.1320 0.1942 0.5260
C18_2 C 0.1952(9) 0.2669(3) 0.5885(4)
H9_2 H 0.2937 0.2758 0.5688
C19_2 C 0.1390(9) 0.3007(3) 0.6441(4)
C22_2 C 0.2163(10) 0.3518(3) 0.6833(4)
C24_2 C 0.2620(8) 0.5043(3) 0.8293(3)
H11_2 H 0.3176 0.5401 0.8191
C25_2 C 0.2237(9) 0.4648(3) 0.7738(4)
H12_2 H 0.2521 0.4733 0.7267
C26_2 C 0.1425(9) 0.4121(3) 0.7889(4)
C27_2 C 0.0970(8) 0.4030(3) 0.8578(4)
H13_2 H 0.0371 0.3686 0.8697
C28_2 C 0.1413(5) 0.4452(2) 0.9076(2)
H14_2 H 0.1096 0.4386 0.9547
H4_2 H 0.4153 0.3411 0.0051
O1_2 O 0.4294(6) 0.04015(19) 0.5562(2)
O3_2 O 0.1063(7) 0.2298(3) 0.8388(4)
O4_2 O 0.5849(8) 0.2287(3) 0.7358(4)
N1_2 N 0.5445(7) 0.3787(2) 0.9351(3)
N2_2 N 0.3591(8) 0.2428(3) 0.7991(3)
C1_2 C 0.3064(9) 0.0342(3) 0.5902(3)
C2_2 C 0.2754(9) 0.0801(3) 0.6470(3)
C3_2 C 0.1329(10) 0.0776(4) 0.6798(4)
H1_2 H 0.0580 0.0467 0.6672
C4_2 C 0.0981(10) 0.1204(4) 0.7317(4)
C5_2 C 0.2110(10) 0.1627(3) 0.7497(4)
C6_2 C 0.3539(9) 0.1640(3) 0.7180(4)
C7_2 C 0.3896(9) 0.1238(3) 0.6653(3)
H3_2 H 0.4873 0.1258 0.6428
C8_2 C 0.4514(11) 0.2143(4) 0.7483(4)
C9_2 C 0.2099(10) 0.2135(4) 0.8018(4)
C10_2 C 0.4438(9) 0.3384(3) 0.9570(3)
C11_2 C 0.3764(9) 0.2924(3) 0.9153(4)
H5_2 H 0.3055 0.2640 0.9338
C12_2 C 0.4177(9) 0.2899(3) 0.8447(4)
C13_2 C 0.5213(10) 0.3324(3) 0.8204(4)
H6_2 H 0.5496 0.3322 0.7722
C14_2 C 0.5821(9) 0.3751(3) 0.8679(4)
H7_2 H 0.6555 0.4036 0.8515
O5_2 O 0.7281(6) 0.14078(19) 0.5916(2)
O6_2 O 0.9097(6) 0.1231(2) 0.5137(2)
O7_2 O 0.8560(7) 0.3395(3) 0.7638(3)
C15_2 C 0.8568(9) 0.1533(3) 0.5640(3)
C16_2 C 0.9538(9) 0.2066(3) 0.5914(4)
C20_2 C 0.9941(10) 0.2882(3) 0.6712(4)
C21_2 C 0.8984(10) 0.2425(3) 0.6461(4)
H10_2 H 0.7979 0.2351 0.6648
C23_2 C 0.9704(10) 0.3325(4) 0.7298(4)
O9_2 O 0.7933(6) 0.0067(2) 0.4215(2)
N5_2 N 0.5445(7) 0.1213(2) 0.4351(3)
O2_2 O 0.2067(6) 0.9933(2) 0.5785(2)
O8_3 O 0.3427(7) 0.1240(2) 0.1746(3)
N3_3 N 0.1102(7) 0.1318(3) 0.2356(3)
N4_2 N 0.2246(7) 0.0053(2) 0.3971(3)
C17_3 C 0.0977(9) 0.2811(3) 0.0633(4)
H8_3 H 0.1320 0.3058 0.0260
C18_3 C 0.1952(9) 0.2331(3) 0.0885(4)
H9_3 H 0.2937 0.2242 0.0688
C19_3 C 0.1390(9) 0.1993(3) 0.1441(4)
C22_3 C 0.2163(10) 0.1482(3) 0.1833(4)
C25_3 C 0.2237(9) 0.0352(3) 0.2738(4)
H12_3 H 0.2521 0.0267 0.2267
C26_3 C 0.1425(9) 0.0879(3) 0.2889(4)
C27_3 C 0.0970(8) 0.0970(3) 0.3578(4)
H13_3 H 0.0371 0.1314 0.3697
C28_3 C 0.1413(5) 0.0548(2) 0.4076(2)
H14_3 H 0.1096 0.0614 0.4547
C24_3 C 0.2620(8) 0.9957(3) 0.3293(3)
H11_3 H 0.3176 0.9599 0.3191
O1_3 O 0.4294(6) 0.45985(19) 0.0562(2)
O3_3 O 0.1063(7) 0.2702(3) 0.3388(4)
O4_3 O 0.5849(8) 0.2713(3) 0.2358(4)
N2_3 N 0.3591(8) 0.2572(3) 0.2991(3)
C1_3 C 0.3064(9) 0.4658(3) 0.0902(3)
C2_3 C 0.2754(9) 0.4199(3) 0.1470(3)
C3_3 C 0.1329(10) 0.4224(4) 0.1798(4)
H1_3 H 0.0580 0.4533 0.1672
C4_3 C 0.0981(10) 0.3796(4) 0.2317(4)
C5_3 C 0.2110(10) 0.3373(3) 0.2497(4)
C6_3 C 0.3539(9) 0.3360(3) 0.2180(4)
C7_3 C 0.3896(9) 0.3762(3) 0.1653(3)
H3_3 H 0.4873 0.3742 0.1428
C8_3 C 0.4514(11) 0.2857(4) 0.2483(4)
C9_3 C 0.2099(10) 0.2865(4) 0.3018(4)
C10_3 C 0.4438(9) 0.1616(3) 0.4570(3)
H4_3 H 0.4153 0.1589 0.5051
C11_3 C 0.3764(9) 0.2076(3) 0.4153(4)
H5_3 H 0.3055 0.2360 0.4338
C12_3 C 0.4177(9) 0.2101(3) 0.3447(4)
C13_3 C 0.5213(10) 0.1676(3) 0.3204(4)
H6_3 H 0.5496 0.1678 0.2722
C14_3 C 0.5821(9) 0.1249(3) 0.3679(4)
H7_3 H 0.6555 0.0964 0.3515
O5_3 O 0.7281(6) 0.35922(19) 0.0916(2)
O6_3 O 0.9097(6) 0.3769(2) 0.0137(2)
O7_3 O 0.8560(7) 0.1605(3) 0.2638(3)
C15_3 C 0.8568(9) 0.3467(3) 0.0640(3)
C16_3 C 0.9538(9) 0.2934(3) 0.0914(4)
C20_3 C 0.9941(10) 0.2118(3) 0.1712(4)
C21_3 C 0.8984(10) 0.2575(3) 0.1461(4)
H10_3 H 0.7979 0.2649 0.1648
C23_3 C 0.9704(10) 0.1675(4) 0.2298(4)
N6_2 N 0.7754(7) 0.5053(2) 0.1029(3)
O1_4 O 0.5706(6) 0.95985(19) 0.4438(2)
O3_4 O 0.8937(7) 0.7702(3) 0.1612(4)
O4_4 O 0.4151(8) 0.7713(3) 0.2642(4)
N2_4 N 0.6409(8) 0.7572(3) 0.2009(3)
C1_4 C 0.6936(9) 0.9658(3) 0.4098(3)
C2_4 C 0.7246(9) 0.9199(3) 0.3530(3)
C3_4 C 0.8671(10) 0.9224(4) 0.3202(4)
H1_4 H 0.9420 0.9533 0.3328
C4_4 C 0.9019(10) 0.8796(4) 0.2683(4)
C5_4 C 0.7890(10) 0.8373(3) 0.2503(4)
C6_4 C 0.6461(9) 0.8360(3) 0.2820(4)
C7_4 C 0.6104(9) 0.8762(3) 0.3347(3)
H3_4 H 0.5127 0.8742 0.3572
C8_4 C 0.5486(11) 0.7857(4) 0.2517(4)
C9_4 C 0.7901(10) 0.7865(4) 0.1982(4)
C10_4 C 0.5562(9) 0.6616(3) 0.0430(3)
C11_4 C 0.6236(9) 0.7076(3) 0.0847(4)
H5_4 H 0.6945 0.7360 0.0662
C12_4 C 0.5823(9) 0.7101(3) 0.1553(4)
C13_4 C 0.4787(10) 0.6676(3) 0.1796(4)
H6_4 H 0.4504 0.6678 0.2278
C14_4 C 0.4179(9) 0.6249(3) 0.1321(4)
H7_4 H 0.3445 0.5964 0.1485
O5_4 O 0.2719(6) 0.85922(19) 0.4084(2)
O6_4 O 0.0903(6) 0.8769(2) 0.4863(2)
O7_4 O 0.1440(7) 0.6605(3) 0.2362(3)
C15_4 C 0.1432(9) 0.8467(3) 0.4360(3)
C16_4 C 0.0462(9) 0.7934(3) 0.4086(4)
C20_4 C 0.0059(10) 0.7118(3) 0.3288(4)
C21_4 C 0.1016(10) 0.7575(3) 0.3539(4)
H10_4 H 0.2021 0.7649 0.3352
C23_4 C 0.0296(10) 0.6675(4) 0.2702(4)
H4_4 H 0.5847 0.6589 0.9949
O8_4 O 0.6573(7) 0.6240(2) 0.3254(3)
N3_4 N 0.8898(7) 0.6318(3) 0.2644(3)
C17_4 C 0.9023(9) 0.7811(3) 0.4367(4)
H8_4 H 0.8680 0.8058 0.4740
C18_4 C 0.8048(9) 0.7331(3) 0.4115(4)
H9_4 H 0.7063 0.7242 0.4312
C19_4 C 0.8610(9) 0.6993(3) 0.3559(4)
C22_4 C 0.7837(10) 0.6482(3) 0.3167(4)
C24_4 C 0.7380(8) 0.4957(3) 0.1707(3)
H11_4 H 0.6824 0.4599 0.1809
C25_4 C 0.7763(9) 0.5352(3) 0.2262(4)
H12_4 H 0.7479 0.5267 0.2733
C26_4 C 0.8575(9) 0.5879(3) 0.2111(4)
C27_4 C 0.9030(8) 0.5970(3) 0.1422(4)
H13_4 H 0.9629 0.6314 0.1303
C28_4 C 0.8587(5) 0.5548(2) 0.0924(2)
H14_4 H 0.8904 0.5614 0.0453
H2_2 H 0.9992 0.1198 0.7534
H2_3 H 0.9992 0.3802 0.2534
H2_4 H 0.0008 0.8802 0.2466
loop_
_geom_bond_atom_site_label_1
_geom_bond_atom_site_label_2
_geom_bond_site_symmetry_1
_geom_bond_site_symmetry_2
Cd1 O1 1_555 1_555
O1 C1 1_555 1_555
O2 C1 1_555 1_555
O3 C9 1_555 1_555
O4 C8 1_555 1_555
N1 C10 1_555 1_555
N2 C8 1_555 1_555
C1 C2 1_555 1_555
C2 C3 1_555 1_555
C3 H1 1_555 1_555
C4 C3 1_555 1_555
C5 C4 1_555 1_555
C6 C5 1_555 1_555
C7 C2 1_555 1_555
H3 C7 1_555 1_555
C8 C6 1_555 1_555
C9 N2 1_555 1_555
C10 H4 1_555 1_555
C11 C10 1_555 1_555
H5 C11 1_555 1_555
C12 N2 1_555 1_555
C13 C12 1_555 1_555
H6 C13 1_555 1_555
C14 N1 1_555 1_555
H7 C14 1_555 1_555
O5 Cd1 1_555 1_555
O6 Cd1 1_555 1_555
O7 C23 1_555 1_555
C15 O5 1_555 1_555
C16 C15 1_555 1_555
C21 C16 1_555 1_555
H10 C21 1_555 1_555
Cd3 N1 1_555 1_555
N6 Cd1 1_555 1_555
C5 C9 1_555 1_555
C6 C7 1_555 1_555
C11 C12 1_555 1_555
C13 C14 1_555 1_555
O6 C15 1_555 1_555
C20 C21 1_555 1_555
C20 C23 1_555 1_555
C24 H11 1_555 1_555
O8 C22 1_555 1_555
N3 C22 1_555 1_555
H8 C17 1_555 1_555
C18 C17 1_555 1_555
H9 C18 1_555 1_555
C19 C18 1_555 1_555
C22 C19 1_555 1_555
H12 C25 1_555 1_555
C26 N3 1_555 1_555
C27 C26 1_555 1_555
H13 C27 1_555 1_555
C28 N4 1_555 1_555
H14 C28 1_555 1_555
C25 C26 1_555 1_555
C27 C28 1_555 1_555
O8_2 C22_2 1_555 1_555
N3_2 C22_2 1_555 1_555
N6 C24_2 1_555 1_555
H8_2 C17_2 1_555 1_555
C18_2 C17_2 1_555 1_555
H9_2 C18_2 1_555 1_555
C19_2 C18_2 1_555 1_555
C22_2 C19_2 1_555 1_555
C24_2 H11_2 1_555 1_555
C25_2 C24_2 1_555 1_555
H12_2 C25_2 1_555 1_555
C26_2 N3_2 1_555 1_555
C27_2 C26_2 1_555 1_555
H13_2 C27_2 1_555 1_555
C28_2 N6 1_555 1_555
H14_2 C28_2 1_555 1_555
C25_2 C26_2 1_555 1_555
C27_2 C28_2 1_555 1_555
Cd4 O1_2 1_555 1_555
O1_2 C1_2 1_555 1_555
O3_2 C9_2 1_555 1_555
O4_2 C8_2 1_555 1_555
N1_2 C10_2 1_555 1_555
N2_2 C8_2 1_555 1_555
C1_2 C2_2 1_555 1_555
C2_2 C3_2 1_555 1_555
C3_2 H1_2 1_555 1_555
C4_2 C3_2 1_555 1_555
C5_2 C4_2 1_555 1_555
C6_2 C5_2 1_555 1_555
C7_2 C2_2 1_555 1_555
H3_2 C7_2 1_555 1_555
C8_2 C6_2 1_555 1_555
C9_2 N2_2 1_555 1_555
C11_2 C10_2 1_555 1_555
H5_2 C11_2 1_555 1_555
C12_2 N2_2 1_555 1_555
C13_2 C12_2 1_555 1_555
H6_2 C13_2 1_555 1_555
C14_2 N1_2 1_555 1_555
H7_2 C14_2 1_555 1_555
O5_2 Cd4 1_555 1_555
O6_2 Cd4 1_555 1_555
O7_2 C23_2 1_555 1_555
C15_2 O5_2 1_555 1_555
C16_2 C15_2 1_555 1_555
C21_2 C16_2 1_555 1_555
H10_2 C21_2 1_555 1_555
O9_2 Cd4 1_555 1_555
N5_2 Cd4 1_555 1_555
C5_2 C9_2 1_555 1_555
C6_2 C7_2 1_555 1_555
C11_2 C12_2 1_555 1_555
C13_2 C14_2 1_555 1_555
O6_2 C15_2 1_555 1_555
C20_2 C21_2 1_555 1_555
C20_2 C23_2 1_555 1_555
Cd3 O2_2 1_555 1_555
O8_3 C22_3 1_555 1_555
N3_3 C22_3 1_555 1_555
H8_3 C17_3 1_555 1_555
C18_3 C17_3 1_555 1_555
H9_3 C18_3 1_555 1_555
C19_3 C18_3 1_555 1_555
C22_3 C19_3 1_555 1_555
H12_3 C25_3 1_555 1_555
C26_3 N3_3 1_555 1_555
C27_3 C26_3 1_555 1_555
H13_3 C27_3 1_555 1_555
C28_3 N4_2 1_555 1_555
H14_3 C28_3 1_555 1_555
C25_3 C26_3 1_555 1_555
C27_3 C28_3 1_555 1_555
C24_3 H11_3 1_555 1_555
Cd2 O1_3 1_555 1_555
O1_3 C1_3 1_555 1_555
O9 C1_3 1_555 1_555
O3_3 C9_3 1_555 1_555
O4_3 C8_3 1_555 1_555
N5_2 C10_3 1_555 1_555
N2_3 C8_3 1_555 1_555
C1_3 C2_3 1_555 1_555
C2_3 C3_3 1_555 1_555
C3_3 H1_3 1_555 1_555
C4_3 C3_3 1_555 1_555
C5_3 C4_3 1_555 1_555
C6_3 C5_3 1_555 1_555
C7_3 C2_3 1_555 1_555
H3_3 C7_3 1_555 1_555
C8_3 C6_3 1_555 1_555
C9_3 N2_3 1_555 1_555
C10_3 H4_3 1_555 1_555
C11_3 C10_3 1_555 1_555
H5_3 C11_3 1_555 1_555
C12_3 N2_3 1_555 1_555
C13_3 C12_3 1_555 1_555
H6_3 C13_3 1_555 1_555
C14_3 N5_2 1_555 1_555
H7_3 C14_3 1_555 1_555
O5_3 Cd2 1_555 1_555
O6_3 Cd2 1_555 1_555
O7_3 C23_3 1_555 1_555
C15_3 O5_3 1_555 1_555
C16_3 C15_3 1_555 1_555
C21_3 C16_3 1_555 1_555
H10_3 C21_3 1_555 1_555
N6_2 Cd2 1_555 1_555
C5_3 C9_3 1_555 1_555
C6_3 C7_3 1_555 1_555
C11_3 C12_3 1_555 1_555
C13_3 C14_3 1_555 1_555
O6_3 C15_3 1_555 1_555
C20_3 C21_3 1_555 1_555
C20_3 C23_3 1_555 1_555
Cd3 O1_4 1_555 1_555
O1_4 C1_4 1_555 1_555
O3_4 C9_4 1_555 1_555
O4_4 C8_4 1_555 1_555
N5 C10_4 1_555 1_555
N2_4 C8_4 1_555 1_555
C1_4 C2_4 1_555 1_555
C2_4 C3_4 1_555 1_555
C3_4 H1_4 1_555 1_555
C4_4 C3_4 1_555 1_555
C5_4 C4_4 1_555 1_555
C6_4 C5_4 1_555 1_555
C7_4 C2_4 1_555 1_555
H3_4 C7_4 1_555 1_555
C8_4 C6_4 1_555 1_555
C9_4 N2_4 1_555 1_555
C11_4 C10_4 1_555 1_555
H5_4 C11_4 1_555 1_555
C12_4 N2_4 1_555 1_555
C13_4 C12_4 1_555 1_555
H6_4 C13_4 1_555 1_555
C14_4 N5 1_555 1_555
H7_4 C14_4 1_555 1_555
O5_4 Cd3 1_555 1_555
O6_4 Cd3 1_555 1_555
O7_4 C23_4 1_555 1_555
C15_4 O5_4 1_555 1_555
C16_4 C15_4 1_555 1_555
C21_4 C16_4 1_555 1_555
H10_4 C21_4 1_555 1_555
C5_4 C9_4 1_555 1_555
C6_4 C7_4 1_555 1_555
C11_4 C12_4 1_555 1_555
C13_4 C14_4 1_555 1_555
O6_4 C15_4 1_555 1_555
C20_4 C21_4 1_555 1_555
C20_4 C23_4 1_555 1_555
O8_4 C22_4 1_555 1_555
N3_4 C22_4 1_555 1_555
N6_2 C24_4 1_555 1_555
H8_4 C17_4 1_555 1_555
C18_4 C17_4 1_555 1_555
H9_4 C18_4 1_555 1_555
C19_4 C18_4 1_555 1_555
C22_4 C19_4 1_555 1_555
C24_4 H11_4 1_555 1_555
C25_4 C24_4 1_555 1_555
H12_4 C25_4 1_555 1_555
C26_4 N3_4 1_555 1_555
C27_4 C26_4 1_555 1_555
H13_4 C27_4 1_555 1_555
C28_4 N6_2 1_555 1_555
H14_4 C28_4 1_555 1_555
C25_4 C26_4 1_555 1_555
C27_4 C28_4 1_555 1_555

#END
