
###############################################################################
#
# This file contains modified crystal structure data generated from the
# MOF subset of the Cambridge Structural Database (CSD) v543 
# hosted by the Cambridge Crystallographic Data Centre (CCDC).
#
# This work is licensed under the Creative Commons
# Attribution-NonCommercial-ShareAlike 4.0 International License.
# To view a copy of this license, visit
# http://creativecommons.org/licenses/by-nc-sa/4.0/
# or send a letter to
# Creative Commons, PO Box 1866, Mountain View, CA 94042, USA.
#
# CIF created using the CSD Python API on 29 September 2022
# The structure has been converted into the P1 space group
# The structure has a 3D framework
# The original CSD entry CUPLIJ is in the tetragonal crystal system
# The framework has been calculated to contain at least 10.0% void space
# The void calculation uses a probe of radius 1.32A, grid spacing 0.4
#
###############################################################################

data_CUPLIJ
_chemical_formula_moiety         '(C420 H448 Cd24 Cl32 N64)n'
_symmetry_cell_setting           triclinic
_symmetry_space_group_name_H-M   'P 1'
_symmetry_Int_Tables_number      1
_space_group_name_Hall           'P 1'
loop_
_symmetry_equiv_pos_site_id
_symmetry_equiv_pos_as_xyz
1 x,y,z
_cell_length_a                   17.536(1)
_cell_length_b                   17.536(1)
_cell_length_c                   42.966(3)
_cell_angle_alpha                90
_cell_angle_beta                 90
_cell_angle_gamma                90
_cell_volume                     13212.5
loop_
_atom_site_label
_atom_site_type_symbol
_atom_site_fract_x
_atom_site_fract_y
_atom_site_fract_z
C7 C 0.6509(13) 0.0026(13) 0.7814(5)
H7 H 0.6214 0.0385 0.794
C8 C 0.7036(16) 0.0498(13) 0.7565(6)
H9 H 0.7379 0.0843 0.7677
H10 H 0.7346 0.0142 0.7444
N2 N 0.5626(9) 0.1811(13) 0.6945(4)
C9 C 0.5640(15) 0.1052(11) 0.6925(5)
H11 H 0.5338 0.0797 0.6776
C10 C 0.6140(16) 0.0613(13) 0.7140(5)
H12 H 0.6167 0.0081 0.7118
C11 C 0.6541(15) 0.0936(13) 0.7358(5)
C12 C 0.6479(16) 0.1761(13) 0.7361(6)
H13 H 0.6730 0.204 0.7518
C13 C 0.6093(17) 0.2122(15) 0.7152(5)
H14 H 0.6146 0.2655 0.7147
Cd2 Cd 0.5000 0.2500 0.65456(5)
Cd3 Cd 0.0000 0.7500 0.15456(5)
N3 N 0.0667(9) 0.6817(10) 0.1164(4)
C14 C 0.1421(13) 0.6730(17) 0.1200(7)
H15 H 0.1653 0.6923 0.1381
C15 C 0.1871(12) 0.6366(13) 0.0980(5)
H16 H 0.2404 0.6423 0.0987
C16 C 0.1557(13) 0.5934(14) 0.0758(5)
C17 C 0.0825(12) 0.5958(13) 0.0732(5)
H17 H 0.0596 0.5684 0.0569
C18 C 0.0319(11) 0.6399(13) 0.0947(5)
C19 C 0.2042(13) 0.5501(16) 0.0521(5)
H19 H 0.2376 0.5149 0.0634
H20 H 0.1703 0.5193 0.039
C20 C 0.2526(13) 0.5991(13) 0.0314(5)
H21 H 0.2885 0.6286 0.044
H22 H 0.2200 0.64 0.02
C21 C 0.2998(13) 0.5464(16) 0.0065(6)
H23 H 0.3343 0.5121 0.0177
H27 H 0.454 0.5770 0.0018
Cd1 Cd 0.5000 0.7500 0.90456(5)
Cl1 Cl 0.6026(5) 0.6450(3) 0.90450(15)
N1 N 0.5683(10) 0.8167(9) 0.8664(4)
C1 C 0.5770(17) 0.8921(13) 0.8700(7)
H1 H 0.5577 0.9153 0.8881
C2 C 0.6134(13) 0.9371(12) 0.8480(5)
H2 H 0.6077 0.9904 0.8487
C3 C 0.6566(14) 0.9057(13) 0.8258(5)
C4 C 0.6542(13) 0.8325(12) 0.8232(5)
H3 H 0.6816 0.8096 0.8069
C5 C 0.6101(13) 0.7819(11) 0.8447(5)
H4 H 0.6119 0.7285 0.843
C6 C 0.6999(16) 0.9542(13) 0.8021(5)
H5 H 0.7351 0.9876 0.8134
H6 H 0.7307 0.9203 0.789
H8 H 0.61 0.9700 0.77
Cl2 Cl 0.3974(5) 0.8550(3) 0.90450(15)
N4 N 0.4317(10) 0.6833(9) 0.8664(4)
H24 H 0.2642 0.5154 0.9944
N5 N 0.4311(13) 0.6874(9) 0.9445(4)
N6 N 0.5689(13) 0.8126(9) 0.9445(4)
C22 C 0.3552(11) 0.6860(15) 0.9425(5)
H25 H 0.3297 0.7162 0.9276
C23 C 0.3113(13) 0.6360(16) 0.9640(5)
H26 H 0.2581 0.6333 0.9618
C24 C 0.3436(13) 0.5959(15) 0.9858(5)
C25 C 0.4261(13) 0.6021(16) 0.9861(6)
C26 C 0.4622(15) 0.6407(17) 0.9652(5)
H28 H 0.5155 0.6354 0.9647
Cd3_2 Cd 1.0000 0.7500 0.15456(5)
H18 H 0.9785 0.6381 0.093
H18_2 H 0.0215 0.8619 0.093
N3_2 N 0.9333(9) 0.8183(10) 0.1164(4)
C14_2 C 0.8579(13) 0.8270(17) 0.1200(7)
H15_2 H 0.8347 0.8077 0.1381
C15_2 C 0.8129(12) 0.8634(13) 0.0980(5)
H16_2 H 0.7596 0.8577 0.0987
C16_2 C 0.8443(13) 0.9066(14) 0.0758(5)
C17_2 C 0.9175(12) 0.9042(13) 0.0732(5)
H17_2 H 0.9404 0.9316 0.0569
C18_2 C 0.9681(11) 0.8601(13) 0.0947(5)
C19_2 C 0.7958(13) 0.9499(16) 0.0521(5)
H19_2 H 0.7624 0.9851 0.0634
H20_2 H 0.8297 0.9807 0.039
C20_2 C 0.7474(13) 0.9009(13) 0.0314(5)
H21_2 H 0.7115 0.8714 0.044
H22_2 H 0.7800 0.86 0.02
C21_2 C 0.7002(13) 0.9536(16) 0.0065(6)
H23_2 H 0.6657 0.9879 0.0177
H27_2 H 0.546 0.9230 0.0018
C1_2 C 0.4230(17) 0.6079(13) 0.8700(7)
H1_2 H 0.4423 0.5847 0.8881
C2_2 C 0.3866(13) 0.5629(12) 0.8480(5)
H2_2 H 0.3923 0.5096 0.8487
C3_2 C 0.3434(14) 0.5943(13) 0.8258(5)
C4_2 C 0.3458(13) 0.6675(12) 0.8232(5)
H3_2 H 0.3184 0.6904 0.8069
C5_2 C 0.3899(13) 0.7181(11) 0.8447(5)
H4_2 H 0.3881 0.7715 0.843
C6_2 C 0.3001(16) 0.5458(13) 0.8021(5)
H5_2 H 0.2649 0.5124 0.8134
H6_2 H 0.2693 0.5797 0.789
C7_2 C 0.3491(13) 0.4974(13) 0.7814(5)
H7_2 H 0.3786 0.4615 0.794
H8_2 H 0.39 0.5300 0.77
C8_2 C 0.2964(16) 0.4502(13) 0.7565(6)
H9_2 H 0.2621 0.4157 0.7677
H10_2 H 0.2654 0.4858 0.7444
N2_2 N 0.4374(9) 0.3189(13) 0.6945(4)
C9_2 C 0.4360(15) 0.3948(11) 0.6925(5)
H11_2 H 0.4662 0.4203 0.6776
C10_2 C 0.3860(16) 0.4387(13) 0.7140(5)
H12_2 H 0.3833 0.4919 0.7118
C11_2 C 0.3459(15) 0.4064(13) 0.7358(5)
C12_2 C 0.3521(16) 0.3239(13) 0.7361(6)
H13_2 H 0.3270 0.296 0.7518
C13_2 C 0.3907(17) 0.2878(15) 0.7152(5)
H14_2 H 0.3854 0.2345 0.7147
H24_2 H 0.7358 0.9846 0.9944
C22_2 C 0.6448(11) 0.8140(15) 0.9425(5)
H25_2 H 0.6703 0.7838 0.9276
C23_2 C 0.6887(13) 0.8640(16) 0.9640(5)
H26_2 H 0.7419 0.8667 0.9618
C24_2 C 0.6564(13) 0.9041(15) 0.9858(5)
C25_2 C 0.5739(13) 0.8979(16) 0.9861(6)
C26_2 C 0.5378(15) 0.8593(17) 0.9652(5)
H28_2 H 0.4845 0.8646 0.9647
Cl1_2 Cl 0.1050(3) 0.8526(5) 0.15450(15)
Cd3_3 Cd -0.0000 0.2500 0.40456(5)
N3_3 N 0.0683(10) 0.3167(9) 0.3664(4)
C14_3 C 0.0770(17) 0.3921(13) 0.3700(7)
H15_3 H 0.0577 0.4153 0.3881
C15_3 C 0.1134(13) 0.4371(12) 0.3480(5)
H16_3 H 0.1077 0.4904 0.3487
C16_3 C 0.1566(14) 0.4057(13) 0.3258(5)
C17_3 C 0.1542(13) 0.3325(12) 0.3232(5)
H17_3 H 0.1816 0.3096 0.3069
C18_3 C 0.1101(13) 0.2819(11) 0.3447(5)
H18_3 H 0.1119 0.2285 0.343
C19_3 C 0.1999(16) 0.4542(13) 0.3021(5)
H19_3 H 0.2351 0.4876 0.3134
H20_3 H 0.2307 0.4203 0.289
C20_3 C 0.1509(13) 0.5026(13) 0.2814(5)
H21_3 H 0.1214 0.5385 0.294
H22_3 H 0.11 0.4700 0.27
C21_3 C 0.2036(16) 0.5498(13) 0.2565(6)
H23_3 H 0.2379 0.5843 0.2677
H24_3 H 0.2346 0.5142 0.2444
N5_2 N 0.0626(9) 0.6811(13) 0.1945(4)
C22_3 C 0.0640(15) 0.6052(11) 0.1925(5)
H25_3 H 0.0338 0.5797 0.1776
C23_3 C 0.1140(16) 0.5613(13) 0.2140(5)
H26_3 H 0.1167 0.5081 0.2118
C24_3 C 0.1541(15) 0.5936(13) 0.2358(5)
C25_3 C 0.1479(16) 0.6761(13) 0.2361(6)
H27_3 H 0.1730 0.704 0.2518
C26_3 C 0.1093(17) 0.7122(15) 0.2152(5)
H28_3 H 0.1146 0.7655 0.2147
Cd3_4 Cd 1.0000 0.2500 0.40456(5)
Cl2_2 Cl 0.8950(3) 0.6474(5) 0.15450(15)
N6_2 N 0.9374(9) 0.8189(13) 0.1945(4)
N3_4 N 0.9317(10) 0.1833(9) 0.3664(4)
C14_4 C 0.9230(17) 0.1079(13) 0.3700(7)
H15_4 H 0.9423 0.0847 0.3881
C15_4 C 0.8866(13) 0.0629(12) 0.3480(5)
H16_4 H 0.8923 0.0096 0.3487
C16_4 C 0.8434(14) 0.0943(13) 0.3258(5)
C17_4 C 0.8458(13) 0.1675(12) 0.3232(5)
H17_4 H 0.8184 0.1904 0.3069
C18_4 C 0.8899(13) 0.2181(11) 0.3447(5)
H18_4 H 0.8881 0.2715 0.343
C19_4 C 0.8001(16) 0.0458(13) 0.3021(5)
H19_4 H 0.7649 0.0124 0.3134
H20_4 H 0.7693 0.0797 0.289
H22_4 H 0.89 0.0300 0.27
C20_4 C 0.8491(13) 0.9974(13) 0.2814(5)
H21_4 H 0.8786 0.9615 0.294
C21_4 C 0.7964(16) 0.9502(13) 0.2565(6)
H23_4 H 0.7621 0.9157 0.2677
H24_4 H 0.7654 0.9858 0.2444
C22_4 C 0.9360(15) 0.8948(11) 0.1925(5)
H25_4 H 0.9662 0.9203 0.1776
C23_4 C 0.8860(16) 0.9387(13) 0.2140(5)
H26_4 H 0.8833 0.9919 0.2118
C24_4 C 0.8459(15) 0.9064(13) 0.2358(5)
C25_4 C 0.8521(16) 0.8239(13) 0.2361(6)
H27_4 H 0.8270 0.796 0.2518
C26_4 C 0.8907(17) 0.7878(15) 0.2152(5)
H28_4 H 0.8854 0.7345 0.2147
Cl1_3 Cl 0.1026(5) 0.1450(3) 0.40450(15)
N6_3 N 0.0689(13) 0.3126(9) 0.4445(4)
H28_5 H 0.0155 0.1354 0.4647
Cl2_3 Cl 0.8974(5) 0.3550(3) 0.40450(15)
N3_5 N 0.5667(9) 0.1817(10) 0.6164(4)
C14_5 C 0.6421(13) 0.1730(17) 0.6200(7)
H15_5 H 0.6653 0.1923 0.6381
C15_5 C 0.6871(12) 0.1366(13) 0.5980(5)
H16_5 H 0.7404 0.1423 0.5987
C16_5 C 0.6557(13) 0.0934(14) 0.5758(5)
C17_5 C 0.5825(12) 0.0958(13) 0.5732(5)
H17_5 H 0.5596 0.0684 0.5569
C18_5 C 0.5319(11) 0.1399(13) 0.5947(5)
H18_5 H 0.4785 0.1381 0.593
C19_5 C 0.7042(13) 0.0501(16) 0.5521(5)
H19_5 H 0.7376 0.0149 0.5634
H20_5 H 0.6703 0.0193 0.539
C20_5 C 0.7526(13) 0.0991(13) 0.5314(5)
H21_5 H 0.7885 0.1286 0.544
H22_5 H 0.7200 0.14 0.52
C21_5 C 0.7998(13) 0.0464(16) 0.5065(6)
H23_5 H 0.8343 0.0121 0.5177
H24_5 H 0.7642 0.0154 0.4944
N5_3 N 0.9311(13) 0.1874(9) 0.4445(4)
C22_5 C 0.8552(11) 0.1860(15) 0.4425(5)
H25_5 H 0.8297 0.2162 0.4276
C23_5 C 0.8113(13) 0.1360(16) 0.4640(5)
H26_5 H 0.7581 0.1333 0.4618
C24_5 C 0.8436(13) 0.0959(15) 0.4858(5)
C25_5 C 0.9261(13) 0.1021(16) 0.4861(6)
H27_5 H 0.954 0.0770 0.5018
C26_5 C 0.9622(15) 0.1407(17) 0.4652(5)
N3_6 N 0.4333(9) 0.3183(10) 0.6164(4)
C14_6 C 0.3579(13) 0.3270(17) 0.6200(7)
H15_6 H 0.3347 0.3077 0.6381
C15_6 C 0.3129(12) 0.3634(13) 0.5980(5)
H16_6 H 0.2596 0.3577 0.5987
C16_6 C 0.3443(13) 0.4066(14) 0.5758(5)
C17_6 C 0.4175(12) 0.4042(13) 0.5732(5)
H17_6 H 0.4404 0.4316 0.5569
C18_6 C 0.4681(11) 0.3601(13) 0.5947(5)
H18_6 H 0.5215 0.3619 0.593
C19_6 C 0.2958(13) 0.4499(16) 0.5521(5)
H19_6 H 0.2624 0.4851 0.5634
H20_6 H 0.3297 0.4807 0.539
C20_6 C 0.2474(13) 0.4009(13) 0.5314(5)
H21_6 H 0.2115 0.3714 0.544
H22_6 H 0.2800 0.36 0.52
C21_6 C 0.2002(13) 0.4536(16) 0.5065(6)
H23_6 H 0.1657 0.4879 0.5177
H24_6 H 0.2358 0.4846 0.4944
C22_6 C 0.1448(11) 0.3140(15) 0.4425(5)
H25_6 H 0.1703 0.2838 0.4276
C23_6 C 0.1887(13) 0.3640(16) 0.4640(5)
H26_6 H 0.2419 0.3667 0.4618
C24_6 C 0.1564(13) 0.4041(15) 0.4858(5)
C25_6 C 0.0739(13) 0.3979(16) 0.4861(6)
H27_6 H 0.046 0.4230 0.5018
C26_6 C 0.0378(15) 0.3593(17) 0.4652(5)
H28_6 H 0.9845 0.3646 0.4647
Cl1_4 Cl 0.6050(3) 0.3526(5) 0.65450(15)
Cl2_4 Cl 0.3950(3) 0.1474(5) 0.65450(15)
Cd3_5 Cd 0.0000 0.2500 0.84544(5)
H18_7 H 0.0215 0.3619 0.907
Cd1_2 Cd 0.5000 0.2500 0.09544(5)
Cl1_5 Cl 0.3974(5) 0.3550(3) 0.09550(15)
N1_2 N 0.4317(10) 0.1833(9) 0.1336(4)
C1_3 C 0.4230(17) 0.1079(13) 0.1300(7)
H1_3 H 0.4423 0.0847 0.1119
C2_3 C 0.3866(13) 0.0629(12) 0.1520(5)
H2_3 H 0.3923 0.0096 0.1513
C3_3 C 0.3434(14) 0.0943(13) 0.1742(5)
C4_3 C 0.3458(13) 0.1675(12) 0.1768(5)
H3_3 H 0.3184 0.1904 0.1931
C5_3 C 0.3899(13) 0.2181(11) 0.1553(5)
H4_3 H 0.3881 0.2715 0.157
C6_3 C 0.3001(16) 0.0458(13) 0.1979(5)
H5_3 H 0.2649 0.0124 0.1866
H6_3 H 0.2693 0.0797 0.211
H8_3 H 0.39 0.0300 0.23
Cl2_5 Cl 0.6026(5) 0.1450(3) 0.09550(15)
N4_2 N 0.5683(10) 0.3167(9) 0.1336(4)
H24_7 H 0.7358 0.4846 0.0056
N5_4 N 0.5689(13) 0.3126(9) 0.0555(4)
N6_4 N 0.4311(13) 0.1874(9) 0.0555(4)
C22_7 C 0.6448(11) 0.3140(15) 0.0575(5)
H25_7 H 0.6703 0.2838 0.0724
C23_7 C 0.6887(13) 0.3640(16) 0.0360(5)
H26_7 H 0.7419 0.3667 0.0382
C24_7 C 0.6564(13) 0.4041(15) 0.0142(5)
C25_7 C 0.5739(13) 0.3979(16) 0.0139(6)
C26_7 C 0.5378(15) 0.3593(17) 0.0348(5)
H28_7 H 0.4845 0.3646 0.0353
Cd3_6 Cd 1.0000 0.2500 0.84544(5)
N3_7 N 0.9333(9) 0.3183(10) 0.8836(4)
C14_7 C 0.8579(13) 0.3270(17) 0.8800(7)
H15_7 H 0.8347 0.3077 0.8619
C15_7 C 0.8129(12) 0.3634(13) 0.9020(5)
H16_7 H 0.7596 0.3577 0.9013
C16_7 C 0.8443(13) 0.4066(14) 0.9242(5)
C17_7 C 0.9175(12) 0.4042(13) 0.9268(5)
H17_7 H 0.9404 0.4316 0.9431
C18_7 C 0.9681(11) 0.3601(13) 0.9053(5)
C19_7 C 0.7958(13) 0.4499(16) 0.9479(5)
H19_7 H 0.7624 0.4851 0.9366
H20_7 H 0.8297 0.4807 0.961
C20_7 C 0.7474(13) 0.4009(13) 0.9686(5)
H21_7 H 0.7115 0.3714 0.956
H22_7 H 0.7800 0.36 0.98
C21_7 C 0.7002(13) 0.4536(16) 0.9935(6)
H23_7 H 0.6657 0.4879 0.9823
H27_7 H 0.546 0.4230 0.9982
C7_3 C 0.3491(13) 0.9974(13) 0.2186(5)
H7_3 H 0.3786 0.9615 0.206
C8_3 C 0.2964(16) 0.9502(13) 0.2435(6)
H9_3 H 0.2621 0.9157 0.2323
H10_3 H 0.2654 0.9858 0.2556
N2_3 N 0.4374(9) 0.8189(13) 0.3055(4)
C9_3 C 0.4360(15) 0.8948(11) 0.3075(5)
H11_3 H 0.4662 0.9203 0.3224
C10_3 C 0.3860(16) 0.9387(13) 0.2860(5)
H12_3 H 0.3833 0.9919 0.2882
C11_3 C 0.3459(15) 0.9064(13) 0.2642(5)
C12_3 C 0.3521(16) 0.8239(13) 0.2639(6)
H13_3 H 0.3270 0.796 0.2482
C13_3 C 0.3907(17) 0.7878(15) 0.2848(5)
H14_3 H 0.3854 0.7345 0.2853
Cd2_2 Cd 0.5000 0.7500 0.34544(5)
C1_4 C 0.5770(17) 0.3921(13) 0.1300(7)
H1_4 H 0.5577 0.4153 0.1119
C2_4 C 0.6134(13) 0.4371(12) 0.1520(5)
H2_4 H 0.6077 0.4904 0.1513
C3_4 C 0.6566(14) 0.4057(13) 0.1742(5)
C4_4 C 0.6542(13) 0.3325(12) 0.1768(5)
H3_4 H 0.6816 0.3096 0.1931
C5_4 C 0.6101(13) 0.2819(11) 0.1553(5)
H4_4 H 0.6119 0.2285 0.157
C6_4 C 0.6999(16) 0.4542(13) 0.1979(5)
H5_4 H 0.7351 0.4876 0.1866
H6_4 H 0.7307 0.4203 0.211
C7_4 C 0.6509(13) 0.5026(13) 0.2186(5)
H7_4 H 0.6214 0.5385 0.206
H8_4 H 0.61 0.4700 0.23
C8_4 C 0.7036(16) 0.5498(13) 0.2435(6)
H9_4 H 0.7379 0.5843 0.2323
H10_4 H 0.7346 0.5142 0.2556
N2_4 N 0.5626(9) 0.6811(13) 0.3055(4)
C9_4 C 0.5640(15) 0.6052(11) 0.3075(5)
H11_4 H 0.5338 0.5797 0.3224
C10_4 C 0.6140(16) 0.5613(13) 0.2860(5)
H12_4 H 0.6167 0.5081 0.2882
C11_4 C 0.6541(15) 0.5936(13) 0.2642(5)
C12_4 C 0.6479(16) 0.6761(13) 0.2639(6)
H13_4 H 0.6730 0.704 0.2482
C13_4 C 0.6093(17) 0.7122(15) 0.2848(5)
H14_4 H 0.6146 0.7655 0.2853
H24_8 H 0.2642 0.0154 0.0056
C22_8 C 0.3552(11) 0.1860(15) 0.0575(5)
H25_8 H 0.3297 0.2162 0.0724
C23_8 C 0.3113(13) 0.1360(16) 0.0360(5)
H26_8 H 0.2581 0.1333 0.0382
C24_8 C 0.3436(13) 0.0959(15) 0.0142(5)
C25_8 C 0.4261(13) 0.1021(16) 0.0139(6)
C26_8 C 0.4622(15) 0.1407(17) 0.0348(5)
H28_8 H 0.5155 0.1354 0.0353
N3_8 N 0.0667(9) 0.1817(10) 0.8836(4)
C14_8 C 0.1421(13) 0.1730(17) 0.8800(7)
H15_8 H 0.1653 0.1923 0.8619
C15_8 C 0.1871(12) 0.1366(13) 0.9020(5)
H16_8 H 0.2404 0.1423 0.9013
C16_8 C 0.1557(13) 0.0934(14) 0.9242(5)
C17_8 C 0.0825(12) 0.0958(13) 0.9268(5)
H17_8 H 0.0596 0.0684 0.9431
C18_8 C 0.0319(11) 0.1399(13) 0.9053(5)
C19_8 C 0.2042(13) 0.0501(16) 0.9479(5)
H19_8 H 0.2376 0.0149 0.9366
H20_8 H 0.1703 0.0193 0.961
C20_8 C 0.2526(13) 0.0991(13) 0.9686(5)
H21_8 H 0.2885 0.1286 0.956
H22_8 H 0.2200 0.14 0.98
C21_8 C 0.2998(13) 0.0464(16) 0.9935(6)
H23_8 H 0.3343 0.0121 0.9823
H27_8 H 0.454 0.0770 0.9982
H18_8 H 0.9785 0.1381 0.907
Cd3_7 Cd 0.0000 0.7500 0.59544(5)
Cl2_6 Cl 0.1050(3) 0.3526(5) 0.84550(15)
N6_5 N 0.0626(9) 0.1811(13) 0.8055(4)
Cl1_6 Cl 0.8950(3) 0.1474(5) 0.84550(15)
Cd3_8 Cd 1.0000 0.7500 0.59544(5)
N3_9 N 0.9317(10) 0.6833(9) 0.6336(4)
C14_9 C 0.9230(17) 0.6079(13) 0.6300(7)
H15_9 H 0.9423 0.5847 0.6119
C15_9 C 0.8866(13) 0.5629(12) 0.6520(5)
H16_9 H 0.8923 0.5096 0.6513
C16_9 C 0.8434(14) 0.5943(13) 0.6742(5)
C17_9 C 0.8458(13) 0.6675(12) 0.6768(5)
H17_9 H 0.8184 0.6904 0.6931
C18_9 C 0.8899(13) 0.7181(11) 0.6553(5)
H18_9 H 0.8881 0.7715 0.657
C19_9 C 0.8001(16) 0.5458(13) 0.6979(5)
H19_9 H 0.7649 0.5124 0.6866
H20_9 H 0.7693 0.5797 0.711
C20_9 C 0.8491(13) 0.4974(13) 0.7186(5)
H21_9 H 0.8786 0.4615 0.706
H22_9 H 0.89 0.5300 0.73
C21_9 C 0.7964(16) 0.4502(13) 0.7435(6)
H23_9 H 0.7621 0.4157 0.7323
H24_9 H 0.7654 0.4858 0.7556
N5_5 N 0.9374(9) 0.3189(13) 0.8055(4)
C22_9 C 0.9360(15) 0.3948(11) 0.8075(5)
H25_9 H 0.9662 0.4203 0.8224
C23_9 C 0.8860(16) 0.4387(13) 0.7860(5)
H26_9 H 0.8833 0.4919 0.7882
C24_9 C 0.8459(15) 0.4064(13) 0.7642(5)
C25_9 C 0.8521(16) 0.3239(13) 0.7639(6)
H27_9 H 0.8270 0.296 0.7482
C26_9 C 0.8907(17) 0.2878(15) 0.7848(5)
H28_9 H 0.8854 0.2345 0.7853
C20_10 C 0.1509(13) 0.0026(13) 0.7186(5)
H21_10 H 0.1214 0.0385 0.706
C21_10 C 0.2036(16) 0.0498(13) 0.7435(6)
H23_10 H 0.2379 0.0843 0.7323
H24_10 H 0.2346 0.0142 0.7556
C22_10 C 0.0640(15) 0.1052(11) 0.8075(5)
H25_10 H 0.0338 0.0797 0.8224
C23_10 C 0.1140(16) 0.0613(13) 0.7860(5)
H26_10 H 0.1167 0.0081 0.7882
C24_10 C 0.1541(15) 0.0936(13) 0.7642(5)
C25_10 C 0.1479(16) 0.1761(13) 0.7639(6)
H27_10 H 0.1730 0.204 0.7482
C26_10 C 0.1093(17) 0.2122(15) 0.7848(5)
H28_10 H 0.1146 0.2655 0.7853
N3_10 N 0.0683(10) 0.8167(9) 0.6336(4)
C14_10 C 0.0770(17) 0.8921(13) 0.6300(7)
H15_10 H 0.0577 0.9153 0.6119
C15_10 C 0.1134(13) 0.9371(12) 0.6520(5)
H16_10 H 0.1077 0.9904 0.6513
C16_10 C 0.1566(14) 0.9057(13) 0.6742(5)
C17_10 C 0.1542(13) 0.8325(12) 0.6768(5)
H17_10 H 0.1816 0.8096 0.6931
C18_10 C 0.1101(13) 0.7819(11) 0.6553(5)
H18_10 H 0.1119 0.7285 0.657
C19_10 C 0.1999(16) 0.9542(13) 0.6979(5)
H19_10 H 0.2351 0.9876 0.6866
H20_10 H 0.2307 0.9203 0.711
H22_10 H 0.11 0.9700 0.73
Cl2_7 Cl 0.1026(5) 0.6450(3) 0.59550(15)
N3_11 N 0.4333(9) 0.8183(10) 0.3836(4)
C14_11 C 0.3579(13) 0.8270(17) 0.3800(7)
H15_11 H 0.3347 0.8077 0.3619
C15_11 C 0.3129(12) 0.8634(13) 0.4020(5)
H16_11 H 0.2596 0.8577 0.4013
C16_11 C 0.3443(13) 0.9066(14) 0.4242(5)
C17_11 C 0.4175(12) 0.9042(13) 0.4268(5)
H17_11 H 0.4404 0.9316 0.4431
C18_11 C 0.4681(11) 0.8601(13) 0.4053(5)
H18_11 H 0.5215 0.8619 0.407
C19_11 C 0.2958(13) 0.9499(16) 0.4479(5)
H19_11 H 0.2624 0.9851 0.4366
H20_11 H 0.3297 0.9807 0.461
C20_11 C 0.2474(13) 0.9009(13) 0.4686(5)
H21_11 H 0.2115 0.8714 0.456
H22_11 H 0.2800 0.86 0.48
C21_11 C 0.2002(13) 0.9536(16) 0.4935(6)
H23_11 H 0.1657 0.9879 0.4823
H24_11 H 0.2358 0.9846 0.5056
N5_6 N 0.0689(13) 0.8126(9) 0.5555(4)
C22_11 C 0.1448(11) 0.8140(15) 0.5575(5)
H25_11 H 0.1703 0.7838 0.5724
C23_11 C 0.1887(13) 0.8640(16) 0.5360(5)
H26_11 H 0.2419 0.8667 0.5382
C24_11 C 0.1564(13) 0.9041(15) 0.5142(5)
C25_11 C 0.0739(13) 0.8979(16) 0.5139(6)
H27_11 H 0.046 0.9230 0.4982
C26_11 C 0.0378(15) 0.8593(17) 0.5348(5)
Cl1_7 Cl 0.8974(5) 0.8550(3) 0.59550(15)
N6_6 N 0.9311(13) 0.6874(9) 0.5555(4)
H28_11 H 0.9845 0.8646 0.5353
H28_12 H 0.0155 0.6354 0.5353
N3_12 N 0.5667(9) 0.6817(10) 0.3836(4)
C14_12 C 0.6421(13) 0.6730(17) 0.3800(7)
H15_12 H 0.6653 0.6923 0.3619
C15_12 C 0.6871(12) 0.6366(13) 0.4020(5)
H16_12 H 0.7404 0.6423 0.4013
C16_12 C 0.6557(13) 0.5934(14) 0.4242(5)
C17_12 C 0.5825(12) 0.5958(13) 0.4268(5)
H17_12 H 0.5596 0.5684 0.4431
C18_12 C 0.5319(11) 0.6399(13) 0.4053(5)
H18_12 H 0.4785 0.6381 0.407
C19_12 C 0.7042(13) 0.5501(16) 0.4479(5)
H19_12 H 0.7376 0.5149 0.4366
H20_12 H 0.6703 0.5193 0.461
C20_12 C 0.7526(13) 0.5991(13) 0.4686(5)
H21_12 H 0.7885 0.6286 0.456
H22_12 H 0.7200 0.64 0.48
C21_12 C 0.7998(13) 0.5464(16) 0.4935(6)
H23_12 H 0.8343 0.5121 0.4823
H24_12 H 0.7642 0.5154 0.5056
C22_12 C 0.8552(11) 0.6860(15) 0.5575(5)
H25_12 H 0.8297 0.7162 0.5724
C23_12 C 0.8113(13) 0.6360(16) 0.5360(5)
H26_12 H 0.7581 0.6333 0.5382
C24_12 C 0.8436(13) 0.5959(15) 0.5142(5)
C25_12 C 0.9261(13) 0.6021(16) 0.5139(6)
H27_12 H 0.954 0.5770 0.4982
C26_12 C 0.9622(15) 0.6407(17) 0.5348(5)
Cl1_8 Cl 0.3950(3) 0.6474(5) 0.34550(15)
Cl2_8 Cl 0.6050(3) 0.8526(5) 0.34550(15)
Cd4 Cd 0.5000 0.2500 0.46813(3)
Cl3 Cl 0.3958(2) 0.3540(2) 0.46842(10)
N7 N 0.5680(6) 0.3210(7) 0.5058(3)
C27 C 0.5675(8) 0.3966(8) 0.5063(3)
H29 H 0.5353 0.4219 0.4922
C28 C 0.6100(8) 0.4396(9) 0.5258(3)
H30 H 0.610 0.4930 0.5237
C29 C 0.6553(9) 0.4053(9) 0.5493(4)
C30 C 0.6519(8) 0.3263(10) 0.5501(4)
H31 H 0.6781 0.2998 0.5658
C31 C 0.6111(9) 0.2863(9) 0.5284(3)
H32 H 0.6126 0.2327 0.5291
C32 C 0.7000(10) 0.4473(9) 0.5719(4)
H33 H 0.7374 0.4785 0.5607
H34 H 0.7283 0.4107 0.5847
C33 C 0.6536(8) 0.5000(9) 0.5937(3)
H35 H 0.6223 0.5343 0.5811
H36 H 0.6191 0.4686 0.6063
C34 C 0.7013(10) 0.5460(8) 0.6146(4)
H37 H 0.7336 0.5797 0.6021
H38 H 0.7349 0.5119 0.6264
N8 N 0.5694(6) 0.6803(7) 0.6797(3)
C35 C 0.5700(8) 0.6023(8) 0.6812(3)
H39 H 0.5407 0.5778 0.6966
C36 C 0.6118(8) 0.5591(8) 0.6610(4)
H40 H 0.6118 0.5056 0.6627
C37 C 0.6548(8) 0.5950(8) 0.6378(3)
C38 C 0.6524(9) 0.6732(9) 0.6371(4)
H41 H 0.6821 0.6997 0.6225
C39 C 0.6072(10) 0.7133(8) 0.6575(4)
H42 H 0.6036 0.7665 0.6554
Cd5 Cd 0.5000 0.7500 0.71813(3)
Cd6 Cd 0.0000 0.2500 0.21813(3)
Cl4 Cl 0.6042(2) 0.1460(2) 0.46842(10)
N9 N 0.0710(7) 0.1820(6) 0.2558(3)
N10 N 0.4320(6) 0.1790(7) 0.5058(3)
C40 C 0.1466(8) 0.1825(8) 0.2563(3)
H43 H 0.1719 0.2147 0.2422
C41 C 0.1896(9) 0.1400(8) 0.2758(3)
H44 H 0.2430 0.140 0.2737
C42 C 0.1553(9) 0.0947(9) 0.2993(4)
C43 C 0.0763(10) 0.0981(8) 0.3001(4)
H45 H 0.0498 0.0719 0.3158
C44 C 0.0363(9) 0.1389(9) 0.2784(3)
C45 C 0.1973(9) 0.0500(10) 0.3219(4)
H47 H 0.2285 0.0126 0.3107
H48 H 0.1607 0.0217 0.3347
C46 C 0.2500(9) 0.0964(8) 0.3437(3)
H49 H 0.2843 0.1277 0.3311
H50 H 0.2186 0.1309 0.3563
C47 C 0.2960(8) 0.0487(10) 0.3646(4)
H51 H 0.3297 0.0164 0.3521
H52 H 0.2619 0.0151 0.3764
N11 N 0.4303(7) 0.1806(6) 0.4297(3)
N12 N 0.5697(7) 0.3194(6) 0.4297(3)
C48 C 0.3523(8) 0.1800(8) 0.4312(3)
H53 H 0.3278 0.2093 0.4466
C49 C 0.3091(8) 0.1382(8) 0.4110(4)
H54 H 0.2556 0.1382 0.4127
C50 C 0.3450(8) 0.0952(8) 0.3878(3)
C51 C 0.4232(9) 0.0976(9) 0.3871(4)
H55 H 0.4497 0.0679 0.3725
C52 C 0.4633(8) 0.1428(10) 0.4075(4)
H56 H 0.5165 0.1464 0.4054
Cd6_2 Cd 1.0000 0.2500 0.21813(3)
H46 H 0.9827 0.1374 0.2791
H46_2 H 0.0173 0.3626 0.2791
C27_2 C 0.4325(8) 0.1034(8) 0.5063(3)
H29_2 H 0.4647 0.0781 0.4922
C28_2 C 0.3900(8) 0.0604(9) 0.5258(3)
H30_2 H 0.390 0.0070 0.5237
C29_2 C 0.3447(9) 0.0947(9) 0.5493(4)
C30_2 C 0.3481(8) 0.1737(10) 0.5501(4)
H31_2 H 0.3219 0.2002 0.5658
C31_2 C 0.3889(9) 0.2137(9) 0.5284(3)
H32_2 H 0.3874 0.2673 0.5291
C32_2 C 0.3000(10) 0.0527(9) 0.5719(4)
H33_2 H 0.2626 0.0215 0.5607
H34_2 H 0.2717 0.0893 0.5847
C33_2 C 0.3464(8) 0.0000(9) 0.5937(3)
H36_2 H 0.3809 0.0314 0.6063
N9_2 N 0.9290(7) 0.3180(6) 0.2558(3)
C40_2 C 0.8534(8) 0.3175(8) 0.2563(3)
H43_2 H 0.8281 0.2853 0.2422
C41_2 C 0.8104(9) 0.3600(8) 0.2758(3)
H44_2 H 0.7570 0.360 0.2737
C42_2 C 0.8447(9) 0.4053(9) 0.2993(4)
C43_2 C 0.9237(10) 0.4019(8) 0.3001(4)
H45_2 H 0.9502 0.4281 0.3158
C44_2 C 0.9637(9) 0.3611(9) 0.2784(3)
C45_2 C 0.8027(9) 0.4500(10) 0.3219(4)
H47_2 H 0.7715 0.4874 0.3107
H48_2 H 0.8393 0.4783 0.3347
C46_2 C 0.7500(9) 0.4036(8) 0.3437(3)
H49_2 H 0.7157 0.3723 0.3311
H50_2 H 0.7814 0.3691 0.3563
C47_2 C 0.7040(8) 0.4513(10) 0.3646(4)
H51_2 H 0.6703 0.4836 0.3521
H52_2 H 0.7381 0.4849 0.3764
C48_2 C 0.6477(8) 0.3200(8) 0.4312(3)
H53_2 H 0.6722 0.2907 0.4466
C49_2 C 0.6909(8) 0.3618(8) 0.4110(4)
H54_2 H 0.7444 0.3618 0.4127
C50_2 C 0.6550(8) 0.4048(8) 0.3878(3)
C51_2 C 0.5768(9) 0.4024(9) 0.3871(4)
H55_2 H 0.5503 0.4321 0.3725
C52_2 C 0.5367(8) 0.3572(10) 0.4075(4)
H56_2 H 0.4835 0.3536 0.4054
C33_3 C 0.3464(8) 1.0000(9) 0.5937(3)
H35_2 H 0.3777 0.9657 0.5811
C34_2 C 0.2987(10) 0.9540(8) 0.6146(4)
H37_2 H 0.2664 0.9203 0.6021
H38_2 H 0.2651 0.9881 0.6264
N8_2 N 0.4306(6) 0.8197(7) 0.6797(3)
C35_2 C 0.4300(8) 0.8977(8) 0.6812(3)
H39_2 H 0.4593 0.9222 0.6966
C36_2 C 0.3882(8) 0.9409(8) 0.6610(4)
H40_2 H 0.3882 0.9944 0.6627
C37_2 C 0.3452(8) 0.9050(8) 0.6378(3)
C38_2 C 0.3476(9) 0.8268(9) 0.6371(4)
H41_2 H 0.3179 0.8003 0.6225
C39_2 C 0.3928(10) 0.7867(8) 0.6575(4)
H42_2 H 0.3964 0.7335 0.6554
Cl3_2 Cl 0.3960(2) 0.6458(2) 0.71842(10)
N7_2 N 0.4290(7) 0.8180(6) 0.7558(3)
C27_3 C 0.3534(8) 0.8175(8) 0.7563(3)
H29_3 H 0.3281 0.7853 0.7422
C28_3 C 0.3104(9) 0.8600(8) 0.7758(3)
H30_3 H 0.2570 0.860 0.7737
C29_3 C 0.3447(9) 0.9053(9) 0.7993(4)
C30_3 C 0.4237(10) 0.9019(8) 0.8001(4)
H31_3 H 0.4502 0.9281 0.8158
C31_3 C 0.4637(9) 0.8611(9) 0.7784(3)
H32_3 H 0.5173 0.8626 0.7791
C32_3 C 0.3027(9) 0.9500(10) 0.8219(4)
H33_3 H 0.2715 0.9874 0.8107
H34_3 H 0.3393 0.9783 0.8347
C33_4 C 0.2500(9) 0.9036(8) 0.8437(3)
H35_3 H 0.2157 0.8723 0.8311
H36_3 H 0.2814 0.8691 0.8563
C34_3 C 0.2040(8) 0.9513(10) 0.8646(4)
H37_3 H 0.1703 0.9836 0.8521
H38_3 H 0.2381 0.9849 0.8764
N8_3 N 0.0697(7) 0.8194(6) 0.9297(3)
C35_3 C 0.1477(8) 0.8200(8) 0.9312(3)
H39_3 H 0.1722 0.7907 0.9466
C36_3 C 0.1909(8) 0.8618(8) 0.9110(4)
H40_3 H 0.2444 0.8618 0.9127
C37_3 C 0.1550(8) 0.9048(8) 0.8878(3)
C38_3 C 0.0768(9) 0.9024(9) 0.8871(4)
H41_3 H 0.0503 0.9321 0.8725
C39_3 C 0.0367(8) 0.8572(10) 0.9075(4)
Cd5_2 Cd -0.0000 0.7500 0.96813(3)
Cl4_2 Cl 0.6040(2) 0.8542(2) 0.71842(10)
N10_2 N 0.5710(7) 0.6820(6) 0.7558(3)
H42_3 H 0.9835 0.8536 0.9054
Cd5_3 Cd 1.0000 0.7500 0.96813(3)
H42_4 H 0.0165 0.6464 0.9054
C27_4 C 0.6466(8) 0.6825(8) 0.7563(3)
H29_4 H 0.6719 0.7147 0.7422
C28_4 C 0.6896(9) 0.6400(8) 0.7758(3)
H30_4 H 0.7430 0.640 0.7737
C29_4 C 0.6553(9) 0.5947(9) 0.7993(4)
C30_4 C 0.5763(10) 0.5981(8) 0.8001(4)
H31_4 H 0.5498 0.5719 0.8158
C31_4 C 0.5363(9) 0.6389(9) 0.7784(3)
H32_4 H 0.4827 0.6374 0.7791
C32_4 C 0.6973(9) 0.5500(10) 0.8219(4)
H33_4 H 0.7285 0.5126 0.8107
H34_4 H 0.6607 0.5217 0.8347
C33_5 C 0.7500(9) 0.5964(8) 0.8437(3)
H35_4 H 0.7843 0.6277 0.8311
H36_4 H 0.7186 0.6309 0.8563
C34_4 C 0.7960(8) 0.5487(10) 0.8646(4)
H37_4 H 0.8297 0.5164 0.8521
H38_4 H 0.7619 0.5151 0.8764
N8_4 N 0.9303(7) 0.6806(6) 0.9297(3)
C35_4 C 0.8523(8) 0.6800(8) 0.9312(3)
H39_4 H 0.8278 0.7093 0.9466
C36_4 C 0.8091(8) 0.6382(8) 0.9110(4)
H40_4 H 0.7556 0.6382 0.9127
C37_4 C 0.8450(8) 0.5952(8) 0.8878(3)
C38_4 C 0.9232(9) 0.5976(9) 0.8871(4)
H41_4 H 0.9497 0.5679 0.8725
C39_4 C 0.9633(8) 0.6428(10) 0.9075(4)
C33_6 C 0.1536(8) 0.0000(9) 0.0937(3)
H35_5 H 0.1223 0.0343 0.0811
C34_5 C 0.2013(10) 0.0460(8) 0.1146(4)
H37_5 H 0.2336 0.0797 0.1021
H38_5 H 0.2349 0.0119 0.1264
N8_5 N 0.0694(6) 0.1803(7) 0.1797(3)
C35_5 C 0.0700(8) 0.1023(8) 0.1812(3)
H39_5 H 0.0407 0.0778 0.1966
C36_5 C 0.1118(8) 0.0591(8) 0.1610(4)
H40_5 H 0.1118 0.0056 0.1627
C37_5 C 0.1548(8) 0.0950(8) 0.1378(3)
C38_5 C 0.1524(9) 0.1732(9) 0.1371(4)
H41_5 H 0.1821 0.1997 0.1225
C39_5 C 0.1072(10) 0.2133(8) 0.1575(4)
H42_5 H 0.1036 0.2665 0.1554
N7_3 N 0.0680(6) 0.8210(7) 0.0058(3)
C27_5 C 0.0675(8) 0.8966(8) 0.0063(3)
C28_5 C 0.1100(8) 0.9396(9) 0.0258(3)
H30_5 H 0.110 0.9930 0.0237
C29_5 C 0.1553(9) 0.9053(9) 0.0493(4)
C30_5 C 0.1519(8) 0.8263(10) 0.0501(4)
H31_5 H 0.1781 0.7998 0.0658
C31_5 C 0.1111(9) 0.7863(9) 0.0284(3)
H32_5 H 0.1126 0.7327 0.0291
C32_5 C 0.2000(10) 0.9473(9) 0.0719(4)
H33_5 H 0.2374 0.9785 0.0607
H34_5 H 0.2283 0.9107 0.0847
C33_7 C 0.1536(8) 1.0000(9) 0.0937(3)
H36_5 H 0.1191 0.9686 0.1063
H29_5 H 0.0353 0.9219 0.9922
Cl4_3 Cl 0.1042(2) 0.6460(2) 0.96842(10)
N10_3 N 0.9320(6) 0.6790(7) 0.0058(3)
Cl3_3 Cl 0.8958(2) 0.8540(2) 0.96842(10)
C27_6 C 0.9325(8) 0.6034(8) 0.0063(3)
C28_6 C 0.8900(8) 0.5604(9) 0.0258(3)
H30_6 H 0.890 0.5070 0.0237
C29_6 C 0.8447(9) 0.5947(9) 0.0493(4)
C30_6 C 0.8481(8) 0.6737(10) 0.0501(4)
H31_6 H 0.8219 0.7002 0.0658
C31_6 C 0.8889(9) 0.7137(9) 0.0284(3)
H32_6 H 0.8874 0.7673 0.0291
C32_6 C 0.8000(10) 0.5527(9) 0.0719(4)
H33_6 H 0.7626 0.5215 0.0607
H34_6 H 0.7717 0.5893 0.0847
C33_8 C 0.8464(8) 0.5000(9) 0.0937(3)
H35_6 H 0.8777 0.4657 0.0811
H36_6 H 0.8809 0.5314 0.1063
C34_6 C 0.7987(10) 0.4540(8) 0.1146(4)
H37_6 H 0.7664 0.4203 0.1021
H38_6 H 0.7651 0.4881 0.1264
N8_6 N 0.9306(6) 0.3197(7) 0.1797(3)
C35_6 C 0.9300(8) 0.3977(8) 0.1812(3)
H39_6 H 0.9593 0.4222 0.1966
C36_6 C 0.8882(8) 0.4409(8) 0.1610(4)
H40_6 H 0.8882 0.4944 0.1627
C37_6 C 0.8452(8) 0.4050(8) 0.1378(3)
C38_6 C 0.8476(9) 0.3268(9) 0.1371(4)
H41_6 H 0.8179 0.3003 0.1225
C39_6 C 0.8928(10) 0.2867(8) 0.1575(4)
H42_6 H 0.8964 0.2335 0.1554
H29_6 H 0.9647 0.5781 0.9922
Cl4_4 Cl 0.1040(2) 0.3542(2) 0.21842(10)
Cl3_4 Cl 0.8960(2) 0.1458(2) 0.21842(10)
Cd6_3 Cd 0.0000 0.7500 0.78187(3)
H46_3 H 0.0173 0.8626 0.7209
Cd4_2 Cd 0.5000 0.7500 0.53187(3)
Cl3_5 Cl 0.6042(2) 0.6460(2) 0.53158(10)
N7_4 N 0.4320(6) 0.6790(7) 0.4942(3)
C27_7 C 0.4325(8) 0.6034(8) 0.4937(3)
H29_7 H 0.4647 0.5781 0.5078
C28_7 C 0.3900(8) 0.5604(9) 0.4742(3)
H30_7 H 0.390 0.5070 0.4763
C29_7 C 0.3447(9) 0.5947(9) 0.4507(4)
C30_7 C 0.3481(8) 0.6737(10) 0.4499(4)
H31_7 H 0.3219 0.7002 0.4342
C31_7 C 0.3889(9) 0.7137(9) 0.4716(3)
H32_7 H 0.3874 0.7673 0.4709
C32_7 C 0.3000(10) 0.5527(9) 0.4281(4)
H33_7 H 0.2626 0.5215 0.4393
H34_7 H 0.2717 0.5893 0.4153
C33_9 C 0.3464(8) 0.5000(9) 0.4063(3)
H35_7 H 0.3777 0.4657 0.4189
H36_7 H 0.3809 0.5314 0.3937
C34_7 C 0.2987(10) 0.4540(8) 0.3854(4)
H37_7 H 0.2664 0.4203 0.3979
H38_7 H 0.2651 0.4881 0.3736
N8_7 N 0.4306(6) 0.3197(7) 0.3203(3)
C35_7 C 0.4300(8) 0.3977(8) 0.3188(3)
H39_7 H 0.4593 0.4222 0.3034
C36_7 C 0.3882(8) 0.4409(8) 0.3390(4)
H40_7 H 0.3882 0.4944 0.3373
C37_7 C 0.3452(8) 0.4050(8) 0.3622(3)
C38_7 C 0.3476(9) 0.3268(9) 0.3629(4)
H41_7 H 0.3179 0.3003 0.3775
C39_7 C 0.3928(10) 0.2867(8) 0.3425(4)
H42_7 H 0.3964 0.2335 0.3446
Cd5_4 Cd 0.5000 0.2500 0.28187(3)
Cd6_4 Cd 1.0000 0.7500 0.78187(3)
Cl4_5 Cl 0.3958(2) 0.8540(2) 0.53158(10)
N9_3 N 0.9290(7) 0.8180(6) 0.7442(3)
N10_4 N 0.5680(6) 0.8210(7) 0.4942(3)
C40_3 C 0.8534(8) 0.8175(8) 0.7437(3)
H43_3 H 0.8281 0.7853 0.7578
C41_3 C 0.8104(9) 0.8600(8) 0.7242(3)
H44_3 H 0.7570 0.860 0.7263
C42_3 C 0.8447(9) 0.9053(9) 0.7007(4)
C43_3 C 0.9237(10) 0.9019(8) 0.6999(4)
H45_3 H 0.9502 0.9281 0.6842
C44_3 C 0.9637(9) 0.8611(9) 0.7216(3)
C45_3 C 0.8027(9) 0.9500(10) 0.6781(4)
H47_3 H 0.7715 0.9874 0.6893
H48_3 H 0.8393 0.9783 0.6653
C46_3 C 0.7500(9) 0.9036(8) 0.6563(3)
H49_3 H 0.7157 0.8723 0.6689
H50_3 H 0.7814 0.8691 0.6437
C47_3 C 0.7040(8) 0.9513(10) 0.6354(4)
H51_3 H 0.6703 0.9836 0.6479
H52_3 H 0.7381 0.9849 0.6236
N11_2 N 0.5697(7) 0.8194(6) 0.5703(3)
N12_2 N 0.4303(7) 0.6806(6) 0.5703(3)
C48_3 C 0.6477(8) 0.8200(8) 0.5688(3)
H53_3 H 0.6722 0.7907 0.5534
C49_3 C 0.6909(8) 0.8618(8) 0.5890(4)
H54_3 H 0.7444 0.8618 0.5873
C50_3 C 0.6550(8) 0.9048(8) 0.6122(3)
C51_3 C 0.5768(9) 0.9024(9) 0.6129(4)
H55_3 H 0.5503 0.9321 0.6275
C52_3 C 0.5367(8) 0.8572(10) 0.5925(4)
H56_3 H 0.4835 0.8536 0.5946
C33_10 C 0.6536(8) -0.0000(9) 0.4063(3)
H35_8 H 0.6223 0.0343 0.4189
C34_8 C 0.7013(10) 0.0460(8) 0.3854(4)
H37_8 H 0.7336 0.0797 0.3979
H38_8 H 0.7349 0.0119 0.3736
N8_8 N 0.5694(6) 0.1803(7) 0.3203(3)
C35_8 C 0.5700(8) 0.1023(8) 0.3188(3)
H39_8 H 0.5407 0.0778 0.3034
C36_8 C 0.6118(8) 0.0591(8) 0.3390(4)
H40_8 H 0.6118 0.0056 0.3373
C37_8 C 0.6548(8) 0.0950(8) 0.3622(3)
C38_8 C 0.6524(9) 0.1732(9) 0.3629(4)
H41_8 H 0.6821 0.1997 0.3775
C39_8 C 0.6072(10) 0.2133(8) 0.3425(4)
H42_8 H 0.6036 0.2665 0.3446
C27_8 C 0.5675(8) 0.8966(8) 0.4937(3)
H29_8 H 0.5353 0.9219 0.5078
C28_8 C 0.6100(8) 0.9396(9) 0.4742(3)
H30_8 H 0.610 0.9930 0.4763
C29_8 C 0.6553(9) 0.9053(9) 0.4507(4)
C30_8 C 0.6519(8) 0.8263(10) 0.4499(4)
H31_8 H 0.6781 0.7998 0.4342
C31_8 C 0.6111(9) 0.7863(9) 0.4716(3)
H32_8 H 0.6126 0.7327 0.4709
C32_8 C 0.7000(10) 0.9473(9) 0.4281(4)
H33_8 H 0.7374 0.9785 0.4393
H34_8 H 0.7283 0.9107 0.4153
C33_11 C 0.6536(8) 1.0000(9) 0.4063(3)
H36_8 H 0.6191 0.9686 0.3937
N9_4 N 0.0710(7) 0.6820(6) 0.7442(3)
C40_4 C 0.1466(8) 0.6825(8) 0.7437(3)
H43_4 H 0.1719 0.7147 0.7578
C41_4 C 0.1896(9) 0.6400(8) 0.7242(3)
H44_4 H 0.2430 0.640 0.7263
C42_4 C 0.1553(9) 0.5947(9) 0.7007(4)
C43_4 C 0.0763(10) 0.5981(8) 0.6999(4)
H45_4 H 0.0498 0.5719 0.6842
C44_4 C 0.0363(9) 0.6389(9) 0.7216(3)
C45_4 C 0.1973(9) 0.5500(10) 0.6781(4)
H47_4 H 0.2285 0.5126 0.6893
H48_4 H 0.1607 0.5217 0.6653
C46_4 C 0.2500(9) 0.5964(8) 0.6563(3)
H49_4 H 0.2843 0.6277 0.6689
H50_4 H 0.2186 0.6309 0.6437
C47_4 C 0.2960(8) 0.5487(10) 0.6354(4)
H51_4 H 0.3297 0.5164 0.6479
H52_4 H 0.2619 0.5151 0.6236
C48_4 C 0.3523(8) 0.6800(8) 0.5688(3)
H53_4 H 0.3278 0.7093 0.5534
C49_4 C 0.3091(8) 0.6382(8) 0.5890(4)
H54_4 H 0.2556 0.6382 0.5873
C50_4 C 0.3450(8) 0.5952(8) 0.6122(3)
C51_4 C 0.4232(9) 0.5976(9) 0.6129(4)
H55_4 H 0.4497 0.5679 0.6275
C52_4 C 0.4633(8) 0.6428(10) 0.5925(4)
H56_4 H 0.5165 0.6464 0.5946
H46_4 H 0.9827 0.6374 0.7209
H42_9 H 0.0165 0.1464 0.0946
Cd5_5 Cd 0.0000 0.2500 0.03187(3)
Cl3_6 Cl 0.6040(2) 0.3542(2) 0.28158(10)
N7_5 N 0.5710(7) 0.1820(6) 0.2442(3)
C27_9 C 0.6466(8) 0.1825(8) 0.2437(3)
H29_9 H 0.6719 0.2147 0.2578
C28_9 C 0.6896(9) 0.1400(8) 0.2242(3)
H30_9 H 0.7430 0.140 0.2263
C29_9 C 0.6553(9) 0.0947(9) 0.2007(4)
C30_9 C 0.5763(10) 0.0981(8) 0.1999(4)
H31_9 H 0.5498 0.0719 0.1842
C31_9 C 0.5363(9) 0.1389(9) 0.2216(3)
H32_9 H 0.4827 0.1374 0.2209
C32_9 C 0.6973(9) 0.0500(10) 0.1781(4)
H33_9 H 0.7285 0.0126 0.1893
H34_9 H 0.6607 0.0217 0.1653
C33_12 C 0.7500(9) 0.0964(8) 0.1563(3)
H35_9 H 0.7843 0.1277 0.1689
H36_9 H 0.7186 0.1309 0.1437
C34_9 C 0.7960(8) 0.0487(10) 0.1354(4)
H37_9 H 0.8297 0.0164 0.1479
H38_9 H 0.7619 0.0151 0.1236
N8_9 N 0.9303(7) 0.1806(6) 0.0703(3)
C35_9 C 0.8523(8) 0.1800(8) 0.0688(3)
H39_9 H 0.8278 0.2093 0.0534
C36_9 C 0.8091(8) 0.1382(8) 0.0890(4)
H40_9 H 0.7556 0.1382 0.0873
C37_9 C 0.8450(8) 0.0952(8) 0.1122(3)
C38_9 C 0.9232(9) 0.0976(9) 0.1129(4)
H41_9 H 0.9497 0.0679 0.1275
C39_9 C 0.9633(8) 0.1428(10) 0.0925(4)
Cd5_6 Cd 1.0000 0.2500 0.03187(3)
Cl4_6 Cl 0.3960(2) 0.1458(2) 0.28158(10)
N10_5 N 0.4290(7) 0.3180(6) 0.2442(3)
C27_10 C 0.3534(8) 0.3175(8) 0.2437(3)
H29_10 H 0.3281 0.2853 0.2578
C28_10 C 0.3104(9) 0.3600(8) 0.2242(3)
H30_10 H 0.2570 0.360 0.2263
C29_10 C 0.3447(9) 0.4053(9) 0.2007(4)
C30_10 C 0.4237(10) 0.4019(8) 0.1999(4)
H31_10 H 0.4502 0.4281 0.1842
C31_10 C 0.4637(9) 0.3611(9) 0.2216(3)
H32_10 H 0.5173 0.3626 0.2209
C32_10 C 0.3027(9) 0.4500(10) 0.1781(4)
H33_10 H 0.2715 0.4874 0.1893
H34_10 H 0.3393 0.4783 0.1653
C33_13 C 0.2500(9) 0.4036(8) 0.1563(3)
H35_10 H 0.2157 0.3723 0.1689
H36_10 H 0.2814 0.3691 0.1437
C34_10 C 0.2040(8) 0.4513(10) 0.1354(4)
H37_10 H 0.1703 0.4836 0.1479
H38_10 H 0.2381 0.4849 0.1236
N8_10 N 0.0697(7) 0.3194(6) 0.0703(3)
C35_10 C 0.1477(8) 0.3200(8) 0.0688(3)
H39_10 H 0.1722 0.2907 0.0534
C36_10 C 0.1909(8) 0.3618(8) 0.0890(4)
H40_10 H 0.2444 0.3618 0.0873
C37_10 C 0.1550(8) 0.4048(8) 0.1122(3)
C38_10 C 0.0768(9) 0.4024(9) 0.1129(4)
H41_10 H 0.0503 0.4321 0.1275
C39_10 C 0.0367(8) 0.3572(10) 0.0925(4)
H42_10 H 0.9835 0.3536 0.0946
Cl3_7 Cl 0.1042(2) 0.1460(2) 0.03158(10)
N10_6 N 0.0680(6) 0.3210(7) 0.9942(3)
H29_11 H 0.9647 0.0781 0.0078
Cl4_7 Cl 0.8958(2) 0.3540(2) 0.03158(10)
N7_6 N 0.9320(6) 0.1790(7) 0.9942(3)
C27_11 C 0.9325(8) 0.1034(8) 0.9937(3)
C28_11 C 0.8900(8) 0.0604(9) 0.9742(3)
H30_11 H 0.890 0.0070 0.9763
C29_11 C 0.8447(9) 0.0947(9) 0.9507(4)
C30_11 C 0.8481(8) 0.1737(10) 0.9499(4)
H31_11 H 0.8219 0.2002 0.9342
C31_11 C 0.8889(9) 0.2137(9) 0.9716(3)
H32_11 H 0.8874 0.2673 0.9709
C32_11 C 0.8000(10) 0.0527(9) 0.9281(4)
H33_11 H 0.7626 0.0215 0.9393
H34_11 H 0.7717 0.0893 0.9153
C33_14 C 0.8464(8) 0.0000(9) 0.9063(3)
H36_11 H 0.8809 0.0314 0.8937
C33_15 C 0.8464(8) 1.0000(9) 0.9063(3)
H35_11 H 0.8777 0.9657 0.9189
C34_11 C 0.7987(10) 0.9540(8) 0.8854(4)
H37_11 H 0.7664 0.9203 0.8979
H38_11 H 0.7651 0.9881 0.8736
N8_11 N 0.9306(6) 0.8197(7) 0.8203(3)
C35_11 C 0.9300(8) 0.8977(8) 0.8188(3)
H39_11 H 0.9593 0.9222 0.8034
C36_11 C 0.8882(8) 0.9409(8) 0.8390(4)
H40_11 H 0.8882 0.9944 0.8373
C37_11 C 0.8452(8) 0.9050(8) 0.8622(3)
C38_11 C 0.8476(9) 0.8268(9) 0.8629(4)
H41_11 H 0.8179 0.8003 0.8775
C39_11 C 0.8928(10) 0.7867(8) 0.8425(4)
H42_11 H 0.8964 0.7335 0.8446
H29_12 H 0.0353 0.4219 0.0078
C27_12 C 0.0675(8) 0.3966(8) 0.9937(3)
C28_12 C 0.1100(8) 0.4396(9) 0.9742(3)
H30_12 H 0.110 0.4930 0.9763
C29_12 C 0.1553(9) 0.4053(9) 0.9507(4)
C30_12 C 0.1519(8) 0.3263(10) 0.9499(4)
H31_12 H 0.1781 0.2998 0.9342
C31_12 C 0.1111(9) 0.2863(9) 0.9716(3)
H32_12 H 0.1126 0.2327 0.9709
C32_12 C 0.2000(10) 0.4473(9) 0.9281(4)
H33_12 H 0.2374 0.4785 0.9393
H34_12 H 0.2283 0.4107 0.9153
C33_16 C 0.1536(8) 0.5000(9) 0.9063(3)
H35_12 H 0.1223 0.5343 0.9189
H36_12 H 0.1191 0.4686 0.8937
C34_12 C 0.2013(10) 0.5460(8) 0.8854(4)
H37_12 H 0.2336 0.5797 0.8979
H38_12 H 0.2349 0.5119 0.8736
N8_12 N 0.0694(6) 0.6803(7) 0.8203(3)
C35_12 C 0.0700(8) 0.6023(8) 0.8188(3)
H39_12 H 0.0407 0.5778 0.8034
C36_12 C 0.1118(8) 0.5591(8) 0.8390(4)
H40_12 H 0.1118 0.5056 0.8373
C37_12 C 0.1548(8) 0.5950(8) 0.8622(3)
C38_12 C 0.1524(9) 0.6732(9) 0.8629(4)
H41_12 H 0.1821 0.6997 0.8775
C39_12 C 0.1072(10) 0.7133(8) 0.8425(4)
H42_12 H 0.1036 0.7665 0.8446
Cl3_8 Cl 0.1040(2) 0.8542(2) 0.78158(10)
Cl4_8 Cl 0.8960(2) 0.6458(2) 0.78158(10)
loop_
_geom_bond_atom_site_label_1
_geom_bond_atom_site_label_2
_geom_bond_site_symmetry_1
_geom_bond_site_symmetry_2
H7 C7 1_555 1_555
C8 C7 1_555 1_555
H9 C8 1_555 1_555
H10 C8 1_555 1_555
N2 C9 1_555 1_555
C9 H11 1_555 1_555
C10 C9 1_555 1_555
H12 C10 1_555 1_555
C11 C8 1_555 1_555
C12 C11 1_555 1_555
H13 C12 1_555 1_555
C13 N2 1_555 1_555
H14 C13 1_555 1_555
Cd2 N2 1_555 1_555
C10 C11 1_555 1_555
C12 C13 1_555 1_555
Cd3 N3 1_555 1_555
N3 C14 1_555 1_555
C14 H15 1_555 1_555
C15 C14 1_555 1_555
H16 C15 1_555 1_555
C16 C15 1_555 1_555
C17 C16 1_555 1_555
H17 C17 1_555 1_555
C18 N3 1_555 1_555
C19 C16 1_555 1_555
H19 C19 1_555 1_555
H20 C19 1_555 1_555
C20 C19 1_555 1_555
H21 C20 1_555 1_555
H22 C20 1_555 1_555
C21 C20 1_555 1_555
H23 C21 1_555 1_555
C17 C18 1_555 1_555
Cd1 Cl1 1_555 1_555
N1 Cd1 1_555 1_555
C1 N1 1_555 1_555
H1 C1 1_555 1_555
C2 C1 1_555 1_555
H2 C2 1_555 1_555
C3 C2 1_555 1_555
C4 C3 1_555 1_555
H3 C4 1_555 1_555
C5 N1 1_555 1_555
H4 C5 1_555 1_555
C6 C3 1_555 1_555
H5 C6 1_555 1_555
H6 C6 1_555 1_555
Cl2 Cd1 1_555 1_555
N4 Cd1 1_555 1_555
N5 Cd1 1_555 1_555
N6 Cd1 1_555 1_555
C22 N5 1_555 1_555
H25 C22 1_555 1_555
C23 C22 1_555 1_555
H26 C23 1_555 1_555
C25 C24 1_555 1_555
C26 N5 1_555 1_555
H28 C26 1_555 1_555
C4 C5 1_555 1_555
C23 C24 1_555 1_555
C25 C26 1_555 1_555
Cd3_2 N3_2 1_555 1_555
N3_2 C14_2 1_555 1_555
C14_2 H15_2 1_555 1_555
C15_2 C14_2 1_555 1_555
H16_2 C15_2 1_555 1_555
C16_2 C15_2 1_555 1_555
C17_2 C16_2 1_555 1_555
H17_2 C17_2 1_555 1_555
C18_2 N3_2 1_555 1_555
C19_2 C16_2 1_555 1_555
H19_2 C19_2 1_555 1_555
H20_2 C19_2 1_555 1_555
C20_2 C19_2 1_555 1_555
H21_2 C20_2 1_555 1_555
H22_2 C20_2 1_555 1_555
C21_2 C20_2 1_555 1_555
H23_2 C21_2 1_555 1_555
C17_2 C18_2 1_555 1_555
C1_2 N4 1_555 1_555
H1_2 C1_2 1_555 1_555
C2_2 C1_2 1_555 1_555
H2_2 C2_2 1_555 1_555
C3_2 C2_2 1_555 1_555
C4_2 C3_2 1_555 1_555
H3_2 C4_2 1_555 1_555
C5_2 N4 1_555 1_555
H4_2 C5_2 1_555 1_555
C6_2 C3_2 1_555 1_555
H5_2 C6_2 1_555 1_555
H6_2 C6_2 1_555 1_555
C7_2 C6_2 1_555 1_555
H7_2 C7_2 1_555 1_555
H8_2 C7_2 1_555 1_555
C8_2 C7_2 1_555 1_555
H9_2 C8_2 1_555 1_555
H10_2 C8_2 1_555 1_555
N2_2 C9_2 1_555 1_555
C9_2 H11_2 1_555 1_555
C10_2 C9_2 1_555 1_555
H12_2 C10_2 1_555 1_555
C11_2 C8_2 1_555 1_555
C12_2 C11_2 1_555 1_555
H13_2 C12_2 1_555 1_555
C13_2 N2_2 1_555 1_555
H14_2 C13_2 1_555 1_555
Cd2 N2_2 1_555 1_555
C22_2 N6 1_555 1_555
H25_2 C22_2 1_555 1_555
C23_2 C22_2 1_555 1_555
H26_2 C23_2 1_555 1_555
C25_2 C24_2 1_555 1_555
C26_2 N6 1_555 1_555
H28_2 C26_2 1_555 1_555
C4_2 C5_2 1_555 1_555
C10_2 C11_2 1_555 1_555
C12_2 C13_2 1_555 1_555
C23_2 C24_2 1_555 1_555
C25_2 C26_2 1_555 1_555
Cd3 Cl1_2 1_555 1_555
Cd3_3 N3_3 1_555 1_555
N3_3 C14_3 1_555 1_555
C14_3 H15_3 1_555 1_555
C15_3 C14_3 1_555 1_555
H16_3 C15_3 1_555 1_555
C16_3 C15_3 1_555 1_555
C17_3 C16_3 1_555 1_555
H17_3 C17_3 1_555 1_555
C18_3 N3_3 1_555 1_555
H18_3 C18_3 1_555 1_555
C19_3 C16_3 1_555 1_555
H19_3 C19_3 1_555 1_555
H20_3 C19_3 1_555 1_555
C20_3 C19_3 1_555 1_555
H21_3 C20_3 1_555 1_555
H22_3 C20_3 1_555 1_555
C21_3 C20_3 1_555 1_555
H23_3 C21_3 1_555 1_555
H24_3 C21_3 1_555 1_555
N5_2 Cd3 1_555 1_555
C22_3 N5_2 1_555 1_555
H25_3 C22_3 1_555 1_555
C23_3 C22_3 1_555 1_555
H26_3 C23_3 1_555 1_555
C24_3 C21_3 1_555 1_555
C25_3 C24_3 1_555 1_555
H27_3 C25_3 1_555 1_555
C26_3 N5_2 1_555 1_555
H28_3 C26_3 1_555 1_555
C17_3 C18_3 1_555 1_555
C23_3 C24_3 1_555 1_555
C25_3 C26_3 1_555 1_555
Cl2_2 Cd3_2 1_555 1_555
N6_2 Cd3_2 1_555 1_555
Cd3_4 N3_4 1_555 1_555
N3_4 C14_4 1_555 1_555
C14_4 H15_4 1_555 1_555
C15_4 C14_4 1_555 1_555
H16_4 C15_4 1_555 1_555
C16_4 C15_4 1_555 1_555
C17_4 C16_4 1_555 1_555
H17_4 C17_4 1_555 1_555
C18_4 N3_4 1_555 1_555
H18_4 C18_4 1_555 1_555
C19_4 C16_4 1_555 1_555
H19_4 C19_4 1_555 1_555
H20_4 C19_4 1_555 1_555
C17_4 C18_4 1_555 1_555
H21_4 C20_4 1_555 1_555
C21_4 C20_4 1_555 1_555
H23_4 C21_4 1_555 1_555
H24_4 C21_4 1_555 1_555
C22_4 N6_2 1_555 1_555
H25_4 C22_4 1_555 1_555
C23_4 C22_4 1_555 1_555
H26_4 C23_4 1_555 1_555
C24_4 C21_4 1_555 1_555
C25_4 C24_4 1_555 1_555
H27_4 C25_4 1_555 1_555
C26_4 N6_2 1_555 1_555
H28_4 C26_4 1_555 1_555
C23_4 C24_4 1_555 1_555
C25_4 C26_4 1_555 1_555
Cd3_3 Cl1_3 1_555 1_555
N6_3 Cd3_3 1_555 1_555
Cd2 N3_5 1_555 1_555
Cl2_3 Cd3_4 1_555 1_555
N3_5 C14_5 1_555 1_555
C14_5 H15_5 1_555 1_555
C15_5 C14_5 1_555 1_555
H16_5 C15_5 1_555 1_555
C16_5 C15_5 1_555 1_555
C17_5 C16_5 1_555 1_555
H17_5 C17_5 1_555 1_555
C18_5 N3_5 1_555 1_555
H18_5 C18_5 1_555 1_555
C19_5 C16_5 1_555 1_555
H19_5 C19_5 1_555 1_555
H20_5 C19_5 1_555 1_555
C20_5 C19_5 1_555 1_555
H21_5 C20_5 1_555 1_555
H22_5 C20_5 1_555 1_555
C21_5 C20_5 1_555 1_555
H23_5 C21_5 1_555 1_555
H24_5 C21_5 1_555 1_555
N5_3 Cd3_4 1_555 1_555
C22_5 N5_3 1_555 1_555
H25_5 C22_5 1_555 1_555
C23_5 C22_5 1_555 1_555
H26_5 C23_5 1_555 1_555
C24_5 C21_5 1_555 1_555
C25_5 C24_5 1_555 1_555
H27_5 C25_5 1_555 1_555
C26_5 N5_3 1_555 1_555
C17_5 C18_5 1_555 1_555
C23_5 C24_5 1_555 1_555
C25_5 C26_5 1_555 1_555
Cd2 N3_6 1_555 1_555
N3_6 C14_6 1_555 1_555
C14_6 H15_6 1_555 1_555
C15_6 C14_6 1_555 1_555
H16_6 C15_6 1_555 1_555
C16_6 C15_6 1_555 1_555
C17_6 C16_6 1_555 1_555
H17_6 C17_6 1_555 1_555
C18_6 N3_6 1_555 1_555
H18_6 C18_6 1_555 1_555
C19_6 C16_6 1_555 1_555
H19_6 C19_6 1_555 1_555
H20_6 C19_6 1_555 1_555
C20_6 C19_6 1_555 1_555
H21_6 C20_6 1_555 1_555
H22_6 C20_6 1_555 1_555
C21_6 C20_6 1_555 1_555
H23_6 C21_6 1_555 1_555
H24_6 C21_6 1_555 1_555
C22_6 N6_3 1_555 1_555
H25_6 C22_6 1_555 1_555
C23_6 C22_6 1_555 1_555
H26_6 C23_6 1_555 1_555
C24_6 C21_6 1_555 1_555
C25_6 C24_6 1_555 1_555
H27_6 C25_6 1_555 1_555
C26_6 N6_3 1_555 1_555
C17_6 C18_6 1_555 1_555
C23_6 C24_6 1_555 1_555
C25_6 C26_6 1_555 1_555
Cd2 Cl1_4 1_555 1_555
Cl2_4 Cd2 1_555 1_555
Cd1_2 Cl1_5 1_555 1_555
N1_2 Cd1_2 1_555 1_555
C1_3 N1_2 1_555 1_555
H1_3 C1_3 1_555 1_555
C2_3 C1_3 1_555 1_555
H2_3 C2_3 1_555 1_555
C3_3 C2_3 1_555 1_555
C4_3 C3_3 1_555 1_555
H3_3 C4_3 1_555 1_555
C5_3 N1_2 1_555 1_555
H4_3 C5_3 1_555 1_555
C6_3 C3_3 1_555 1_555
H5_3 C6_3 1_555 1_555
H6_3 C6_3 1_555 1_555
Cl2_5 Cd1_2 1_555 1_555
N4_2 Cd1_2 1_555 1_555
N5_4 Cd1_2 1_555 1_555
N6_4 Cd1_2 1_555 1_555
C22_7 N5_4 1_555 1_555
H25_7 C22_7 1_555 1_555
C23_7 C22_7 1_555 1_555
H26_7 C23_7 1_555 1_555
C25_7 C24_7 1_555 1_555
C26_7 N5_4 1_555 1_555
H28_7 C26_7 1_555 1_555
C4_3 C5_3 1_555 1_555
C23_7 C24_7 1_555 1_555
C25_7 C26_7 1_555 1_555
Cd3_6 N3_7 1_555 1_555
N3_7 C14_7 1_555 1_555
C14_7 H15_7 1_555 1_555
C15_7 C14_7 1_555 1_555
H16_7 C15_7 1_555 1_555
C16_7 C15_7 1_555 1_555
C17_7 C16_7 1_555 1_555
H17_7 C17_7 1_555 1_555
C18_7 N3_7 1_555 1_555
C19_7 C16_7 1_555 1_555
H19_7 C19_7 1_555 1_555
H20_7 C19_7 1_555 1_555
C20_7 C19_7 1_555 1_555
H21_7 C20_7 1_555 1_555
H22_7 C20_7 1_555 1_555
C21_7 C20_7 1_555 1_555
H23_7 C21_7 1_555 1_555
C17_7 C18_7 1_555 1_555
H7_3 C7_3 1_555 1_555
C8_3 C7_3 1_555 1_555
H9_3 C8_3 1_555 1_555
H10_3 C8_3 1_555 1_555
N2_3 C9_3 1_555 1_555
C9_3 H11_3 1_555 1_555
C10_3 C9_3 1_555 1_555
H12_3 C10_3 1_555 1_555
C11_3 C8_3 1_555 1_555
C12_3 C11_3 1_555 1_555
H13_3 C12_3 1_555 1_555
C13_3 N2_3 1_555 1_555
H14_3 C13_3 1_555 1_555
Cd2_2 N2_3 1_555 1_555
C10_3 C11_3 1_555 1_555
C12_3 C13_3 1_555 1_555
C1_4 N4_2 1_555 1_555
H1_4 C1_4 1_555 1_555
C2_4 C1_4 1_555 1_555
H2_4 C2_4 1_555 1_555
C3_4 C2_4 1_555 1_555
C4_4 C3_4 1_555 1_555
H3_4 C4_4 1_555 1_555
C5_4 N4_2 1_555 1_555
H4_4 C5_4 1_555 1_555
C6_4 C3_4 1_555 1_555
H5_4 C6_4 1_555 1_555
H6_4 C6_4 1_555 1_555
C7_4 C6_4 1_555 1_555
H7_4 C7_4 1_555 1_555
H8_4 C7_4 1_555 1_555
C8_4 C7_4 1_555 1_555
H9_4 C8_4 1_555 1_555
H10_4 C8_4 1_555 1_555
N2_4 C9_4 1_555 1_555
C9_4 H11_4 1_555 1_555
C10_4 C9_4 1_555 1_555
H12_4 C10_4 1_555 1_555
C11_4 C8_4 1_555 1_555
C12_4 C11_4 1_555 1_555
H13_4 C12_4 1_555 1_555
C13_4 N2_4 1_555 1_555
H14_4 C13_4 1_555 1_555
Cd2_2 N2_4 1_555 1_555
C22_8 N6_4 1_555 1_555
H25_8 C22_8 1_555 1_555
C23_8 C22_8 1_555 1_555
H26_8 C23_8 1_555 1_555
C25_8 C24_8 1_555 1_555
C26_8 N6_4 1_555 1_555
H28_8 C26_8 1_555 1_555
C4_4 C5_4 1_555 1_555
C10_4 C11_4 1_555 1_555
C12_4 C13_4 1_555 1_555
C23_8 C24_8 1_555 1_555
C25_8 C26_8 1_555 1_555
Cd3_5 N3_8 1_555 1_555
N3_8 C14_8 1_555 1_555
C14_8 H15_8 1_555 1_555
C15_8 C14_8 1_555 1_555
H16_8 C15_8 1_555 1_555
C16_8 C15_8 1_555 1_555
C17_8 C16_8 1_555 1_555
H17_8 C17_8 1_555 1_555
C18_8 N3_8 1_555 1_555
C19_8 C16_8 1_555 1_555
H19_8 C19_8 1_555 1_555
H20_8 C19_8 1_555 1_555
C20_8 C19_8 1_555 1_555
H21_8 C20_8 1_555 1_555
H22_8 C20_8 1_555 1_555
C21_8 C20_8 1_555 1_555
H23_8 C21_8 1_555 1_555
C17_8 C18_8 1_555 1_555
Cl2_6 Cd3_5 1_555 1_555
N6_5 Cd3_5 1_555 1_555
Cd3_6 Cl1_6 1_555 1_555
Cd3_8 N3_9 1_555 1_555
N3_9 C14_9 1_555 1_555
C14_9 H15_9 1_555 1_555
C15_9 C14_9 1_555 1_555
H16_9 C15_9 1_555 1_555
C16_9 C15_9 1_555 1_555
C17_9 C16_9 1_555 1_555
H17_9 C17_9 1_555 1_555
C18_9 N3_9 1_555 1_555
H18_9 C18_9 1_555 1_555
C19_9 C16_9 1_555 1_555
H19_9 C19_9 1_555 1_555
H20_9 C19_9 1_555 1_555
C20_9 C19_9 1_555 1_555
H21_9 C20_9 1_555 1_555
H22_9 C20_9 1_555 1_555
C21_9 C20_9 1_555 1_555
H23_9 C21_9 1_555 1_555
H24_9 C21_9 1_555 1_555
N5_5 Cd3_6 1_555 1_555
C22_9 N5_5 1_555 1_555
H25_9 C22_9 1_555 1_555
C23_9 C22_9 1_555 1_555
H26_9 C23_9 1_555 1_555
C24_9 C21_9 1_555 1_555
C25_9 C24_9 1_555 1_555
H27_9 C25_9 1_555 1_555
C26_9 N5_5 1_555 1_555
H28_9 C26_9 1_555 1_555
C17_9 C18_9 1_555 1_555
C23_9 C24_9 1_555 1_555
C25_9 C26_9 1_555 1_555
H21_10 C20_10 1_555 1_555
C21_10 C20_10 1_555 1_555
H23_10 C21_10 1_555 1_555
H24_10 C21_10 1_555 1_555
C22_10 N6_5 1_555 1_555
H25_10 C22_10 1_555 1_555
C23_10 C22_10 1_555 1_555
H26_10 C23_10 1_555 1_555
C24_10 C21_10 1_555 1_555
C25_10 C24_10 1_555 1_555
H27_10 C25_10 1_555 1_555
C26_10 N6_5 1_555 1_555
H28_10 C26_10 1_555 1_555
C23_10 C24_10 1_555 1_555
C25_10 C26_10 1_555 1_555
Cd3_7 N3_10 1_555 1_555
N3_10 C14_10 1_555 1_555
C14_10 H15_10 1_555 1_555
C15_10 C14_10 1_555 1_555
H16_10 C15_10 1_555 1_555
C16_10 C15_10 1_555 1_555
C17_10 C16_10 1_555 1_555
H17_10 C17_10 1_555 1_555
C18_10 N3_10 1_555 1_555
H18_10 C18_10 1_555 1_555
C19_10 C16_10 1_555 1_555
H19_10 C19_10 1_555 1_555
H20_10 C19_10 1_555 1_555
C17_10 C18_10 1_555 1_555
Cd2_2 N3_11 1_555 1_555
Cl2_7 Cd3_7 1_555 1_555
N3_11 C14_11 1_555 1_555
C14_11 H15_11 1_555 1_555
C15_11 C14_11 1_555 1_555
H16_11 C15_11 1_555 1_555
C16_11 C15_11 1_555 1_555
C17_11 C16_11 1_555 1_555
H17_11 C17_11 1_555 1_555
C18_11 N3_11 1_555 1_555
H18_11 C18_11 1_555 1_555
C19_11 C16_11 1_555 1_555
H19_11 C19_11 1_555 1_555
H20_11 C19_11 1_555 1_555
C20_11 C19_11 1_555 1_555
H21_11 C20_11 1_555 1_555
H22_11 C20_11 1_555 1_555
C21_11 C20_11 1_555 1_555
H23_11 C21_11 1_555 1_555
H24_11 C21_11 1_555 1_555
N5_6 Cd3_7 1_555 1_555
C22_11 N5_6 1_555 1_555
H25_11 C22_11 1_555 1_555
C23_11 C22_11 1_555 1_555
H26_11 C23_11 1_555 1_555
C24_11 C21_11 1_555 1_555
C25_11 C24_11 1_555 1_555
H27_11 C25_11 1_555 1_555
C26_11 N5_6 1_555 1_555
C17_11 C18_11 1_555 1_555
C23_11 C24_11 1_555 1_555
C25_11 C26_11 1_555 1_555
Cd3_8 Cl1_7 1_555 1_555
N6_6 Cd3_8 1_555 1_555
Cd2_2 N3_12 1_555 1_555
N3_12 C14_12 1_555 1_555
C14_12 H15_12 1_555 1_555
C15_12 C14_12 1_555 1_555
H16_12 C15_12 1_555 1_555
C16_12 C15_12 1_555 1_555
C17_12 C16_12 1_555 1_555
H17_12 C17_12 1_555 1_555
C18_12 N3_12 1_555 1_555
H18_12 C18_12 1_555 1_555
C19_12 C16_12 1_555 1_555
H19_12 C19_12 1_555 1_555
H20_12 C19_12 1_555 1_555
C20_12 C19_12 1_555 1_555
H21_12 C20_12 1_555 1_555
H22_12 C20_12 1_555 1_555
C21_12 C20_12 1_555 1_555
H23_12 C21_12 1_555 1_555
H24_12 C21_12 1_555 1_555
C22_12 N6_6 1_555 1_555
H25_12 C22_12 1_555 1_555
C23_12 C22_12 1_555 1_555
H26_12 C23_12 1_555 1_555
C24_12 C21_12 1_555 1_555
C25_12 C24_12 1_555 1_555
H27_12 C25_12 1_555 1_555
C26_12 N6_6 1_555 1_555
C17_12 C18_12 1_555 1_555
C23_12 C24_12 1_555 1_555
C25_12 C26_12 1_555 1_555
Cd2_2 Cl1_8 1_555 1_555
Cl2_8 Cd2_2 1_555 1_555
Cd4 Cl3 1_555 1_555
N7 Cd4 1_555 1_555
C27 N7 1_555 1_555
H29 C27 1_555 1_555
C28 C27 1_555 1_555
H30 C28 1_555 1_555
C29 C28 1_555 1_555
C30 C29 1_555 1_555
H31 C30 1_555 1_555
C31 N7 1_555 1_555
H32 C31 1_555 1_555
C32 C29 1_555 1_555
H33 C32 1_555 1_555
H34 C32 1_555 1_555
C33 C32 1_555 1_555
H35 C33 1_555 1_555
H36 C33 1_555 1_555
C34 C33 1_555 1_555
H37 C34 1_555 1_555
H38 C34 1_555 1_555
N8 C35 1_555 1_555
C35 H39 1_555 1_555
C36 C35 1_555 1_555
H40 C36 1_555 1_555
C37 C34 1_555 1_555
C38 C37 1_555 1_555
H41 C38 1_555 1_555
C39 N8 1_555 1_555
H42 C39 1_555 1_555
Cd5 N8 1_555 1_555
Cd6 N9 1_555 1_555
Cl4 Cd4 1_555 1_555
N9 C40 1_555 1_555
N10 Cd4 1_555 1_555
C40 H43 1_555 1_555
C41 C40 1_555 1_555
H44 C41 1_555 1_555
C42 C41 1_555 1_555
C43 C42 1_555 1_555
H45 C43 1_555 1_555
C44 N9 1_555 1_555
C45 C42 1_555 1_555
H47 C45 1_555 1_555
H48 C45 1_555 1_555
C46 C45 1_555 1_555
H49 C46 1_555 1_555
H50 C46 1_555 1_555
C47 C46 1_555 1_555
H51 C47 1_555 1_555
H52 C47 1_555 1_555
N11 Cd4 1_555 1_555
N12 Cd4 1_555 1_555
C48 N11 1_555 1_555
H53 C48 1_555 1_555
C49 C48 1_555 1_555
H54 C49 1_555 1_555
C50 C47 1_555 1_555
C51 C50 1_555 1_555
H55 C51 1_555 1_555
C52 N11 1_555 1_555
H56 C52 1_555 1_555
C30 C31 1_555 1_555
C36 C37 1_555 1_555
C38 C39 1_555 1_555
C43 C44 1_555 1_555
C49 C50 1_555 1_555
C51 C52 1_555 1_555
C27_2 N10 1_555 1_555
H29_2 C27_2 1_555 1_555
C28_2 C27_2 1_555 1_555
H30_2 C28_2 1_555 1_555
C29_2 C28_2 1_555 1_555
C30_2 C29_2 1_555 1_555
H31_2 C30_2 1_555 1_555
C31_2 N10 1_555 1_555
H32_2 C31_2 1_555 1_555
C32_2 C29_2 1_555 1_555
H33_2 C32_2 1_555 1_555
H34_2 C32_2 1_555 1_555
C33_2 C32_2 1_555 1_555
H36_2 C33_2 1_555 1_555
Cd6_2 N9_2 1_555 1_555
N9_2 C40_2 1_555 1_555
C40_2 H43_2 1_555 1_555
C41_2 C40_2 1_555 1_555
H44_2 C41_2 1_555 1_555
C42_2 C41_2 1_555 1_555
C43_2 C42_2 1_555 1_555
H45_2 C43_2 1_555 1_555
C44_2 N9_2 1_555 1_555
C45_2 C42_2 1_555 1_555
H47_2 C45_2 1_555 1_555
H48_2 C45_2 1_555 1_555
C46_2 C45_2 1_555 1_555
H49_2 C46_2 1_555 1_555
H50_2 C46_2 1_555 1_555
C47_2 C46_2 1_555 1_555
H51_2 C47_2 1_555 1_555
H52_2 C47_2 1_555 1_555
C48_2 N12 1_555 1_555
H53_2 C48_2 1_555 1_555
C49_2 C48_2 1_555 1_555
H54_2 C49_2 1_555 1_555
C50_2 C47_2 1_555 1_555
C51_2 C50_2 1_555 1_555
H55_2 C51_2 1_555 1_555
C52_2 N12 1_555 1_555
H56_2 C52_2 1_555 1_555
C30_2 C31_2 1_555 1_555
C43_2 C44_2 1_555 1_555
C49_2 C50_2 1_555 1_555
C51_2 C52_2 1_555 1_555
H35_2 C33_3 1_555 1_555
C34_2 C33_3 1_555 1_555
H37_2 C34_2 1_555 1_555
H38_2 C34_2 1_555 1_555
N8_2 C35_2 1_555 1_555
C35_2 H39_2 1_555 1_555
C36_2 C35_2 1_555 1_555
H40_2 C36_2 1_555 1_555
C37_2 C34_2 1_555 1_555
C38_2 C37_2 1_555 1_555
H41_2 C38_2 1_555 1_555
C39_2 N8_2 1_555 1_555
H42_2 C39_2 1_555 1_555
Cd5 N8_2 1_555 1_555
C36_2 C37_2 1_555 1_555
C38_2 C39_2 1_555 1_555
Cd5 Cl3_2 1_555 1_555
N7_2 Cd5 1_555 1_555
C27_3 N7_2 1_555 1_555
H29_3 C27_3 1_555 1_555
C28_3 C27_3 1_555 1_555
H30_3 C28_3 1_555 1_555
C29_3 C28_3 1_555 1_555
C30_3 C29_3 1_555 1_555
H31_3 C30_3 1_555 1_555
C31_3 N7_2 1_555 1_555
H32_3 C31_3 1_555 1_555
C32_3 C29_3 1_555 1_555
H33_3 C32_3 1_555 1_555
H34_3 C32_3 1_555 1_555
C33_4 C32_3 1_555 1_555
H35_3 C33_4 1_555 1_555
H36_3 C33_4 1_555 1_555
C34_3 C33_4 1_555 1_555
H37_3 C34_3 1_555 1_555
H38_3 C34_3 1_555 1_555
N8_3 C35_3 1_555 1_555
C35_3 H39_3 1_555 1_555
C36_3 C35_3 1_555 1_555
H40_3 C36_3 1_555 1_555
C37_3 C34_3 1_555 1_555
C38_3 C37_3 1_555 1_555
H41_3 C38_3 1_555 1_555
C39_3 N8_3 1_555 1_555
Cd5_2 N8_3 1_555 1_555
Cl4_2 Cd5 1_555 1_555
N10_2 Cd5 1_555 1_555
C30_3 C31_3 1_555 1_555
C36_3 C37_3 1_555 1_555
C38_3 C39_3 1_555 1_555
C27_4 N10_2 1_555 1_555
H29_4 C27_4 1_555 1_555
C28_4 C27_4 1_555 1_555
H30_4 C28_4 1_555 1_555
C29_4 C28_4 1_555 1_555
C30_4 C29_4 1_555 1_555
H31_4 C30_4 1_555 1_555
C31_4 N10_2 1_555 1_555
H32_4 C31_4 1_555 1_555
C32_4 C29_4 1_555 1_555
H33_4 C32_4 1_555 1_555
H34_4 C32_4 1_555 1_555
C33_5 C32_4 1_555 1_555
H35_4 C33_5 1_555 1_555
H36_4 C33_5 1_555 1_555
C34_4 C33_5 1_555 1_555
H37_4 C34_4 1_555 1_555
H38_4 C34_4 1_555 1_555
N8_4 C35_4 1_555 1_555
C35_4 H39_4 1_555 1_555
C36_4 C35_4 1_555 1_555
H40_4 C36_4 1_555 1_555
C37_4 C34_4 1_555 1_555
C38_4 C37_4 1_555 1_555
H41_4 C38_4 1_555 1_555
C39_4 N8_4 1_555 1_555
Cd5_3 N8_4 1_555 1_555
C30_4 C31_4 1_555 1_555
C36_4 C37_4 1_555 1_555
C38_4 C39_4 1_555 1_555
H35_5 C33_6 1_555 1_555
C34_5 C33_6 1_555 1_555
H37_5 C34_5 1_555 1_555
H38_5 C34_5 1_555 1_555
N8_5 C35_5 1_555 1_555
C35_5 H39_5 1_555 1_555
C36_5 C35_5 1_555 1_555
H40_5 C36_5 1_555 1_555
C37_5 C34_5 1_555 1_555
C38_5 C37_5 1_555 1_555
H41_5 C38_5 1_555 1_555
C39_5 N8_5 1_555 1_555
H42_5 C39_5 1_555 1_555
Cd6 N8_5 1_555 1_555
C36_5 C37_5 1_555 1_555
C38_5 C39_5 1_555 1_555
C27_5 N7_3 1_555 1_555
C28_5 C27_5 1_555 1_555
H30_5 C28_5 1_555 1_555
C29_5 C28_5 1_555 1_555
C30_5 C29_5 1_555 1_555
H31_5 C30_5 1_555 1_555
C31_5 N7_3 1_555 1_555
H32_5 C31_5 1_555 1_555
C32_5 C29_5 1_555 1_555
H33_5 C32_5 1_555 1_555
H34_5 C32_5 1_555 1_555
C33_7 C32_5 1_555 1_555
H36_5 C33_7 1_555 1_555
C30_5 C31_5 1_555 1_555
Cl4_3 Cd5_2 1_555 1_555
Cd5_3 Cl3_3 1_555 1_555
C27_6 N10_3 1_555 1_555
C28_6 C27_6 1_555 1_555
H30_6 C28_6 1_555 1_555
C29_6 C28_6 1_555 1_555
C30_6 C29_6 1_555 1_555
H31_6 C30_6 1_555 1_555
C31_6 N10_3 1_555 1_555
H32_6 C31_6 1_555 1_555
C32_6 C29_6 1_555 1_555
H33_6 C32_6 1_555 1_555
H34_6 C32_6 1_555 1_555
C33_8 C32_6 1_555 1_555
H35_6 C33_8 1_555 1_555
H36_6 C33_8 1_555 1_555
C34_6 C33_8 1_555 1_555
H37_6 C34_6 1_555 1_555
H38_6 C34_6 1_555 1_555
N8_6 C35_6 1_555 1_555
C35_6 H39_6 1_555 1_555
C36_6 C35_6 1_555 1_555
H40_6 C36_6 1_555 1_555
C37_6 C34_6 1_555 1_555
C38_6 C37_6 1_555 1_555
H41_6 C38_6 1_555 1_555
C39_6 N8_6 1_555 1_555
H42_6 C39_6 1_555 1_555
Cd6_2 N8_6 1_555 1_555
C30_6 C31_6 1_555 1_555
C36_6 C37_6 1_555 1_555
C38_6 C39_6 1_555 1_555
Cl4_4 Cd6 1_555 1_555
Cd6_2 Cl3_4 1_555 1_555
Cd4_2 Cl3_5 1_555 1_555
N7_4 Cd4_2 1_555 1_555
C27_7 N7_4 1_555 1_555
H29_7 C27_7 1_555 1_555
C28_7 C27_7 1_555 1_555
H30_7 C28_7 1_555 1_555
C29_7 C28_7 1_555 1_555
C30_7 C29_7 1_555 1_555
H31_7 C30_7 1_555 1_555
C31_7 N7_4 1_555 1_555
H32_7 C31_7 1_555 1_555
C32_7 C29_7 1_555 1_555
H33_7 C32_7 1_555 1_555
H34_7 C32_7 1_555 1_555
C33_9 C32_7 1_555 1_555
H35_7 C33_9 1_555 1_555
H36_7 C33_9 1_555 1_555
C34_7 C33_9 1_555 1_555
H37_7 C34_7 1_555 1_555
H38_7 C34_7 1_555 1_555
N8_7 C35_7 1_555 1_555
C35_7 H39_7 1_555 1_555
C36_7 C35_7 1_555 1_555
H40_7 C36_7 1_555 1_555
C37_7 C34_7 1_555 1_555
C38_7 C37_7 1_555 1_555
H41_7 C38_7 1_555 1_555
C39_7 N8_7 1_555 1_555
H42_7 C39_7 1_555 1_555
Cd5_4 N8_7 1_555 1_555
Cd6_4 N9_3 1_555 1_555
Cl4_5 Cd4_2 1_555 1_555
N9_3 C40_3 1_555 1_555
N10_4 Cd4_2 1_555 1_555
C40_3 H43_3 1_555 1_555
C41_3 C40_3 1_555 1_555
H44_3 C41_3 1_555 1_555
C42_3 C41_3 1_555 1_555
C43_3 C42_3 1_555 1_555
H45_3 C43_3 1_555 1_555
C44_3 N9_3 1_555 1_555
C45_3 C42_3 1_555 1_555
H47_3 C45_3 1_555 1_555
H48_3 C45_3 1_555 1_555
C46_3 C45_3 1_555 1_555
H49_3 C46_3 1_555 1_555
H50_3 C46_3 1_555 1_555
C47_3 C46_3 1_555 1_555
H51_3 C47_3 1_555 1_555
H52_3 C47_3 1_555 1_555
N11_2 Cd4_2 1_555 1_555
N12_2 Cd4_2 1_555 1_555
C48_3 N11_2 1_555 1_555
H53_3 C48_3 1_555 1_555
C49_3 C48_3 1_555 1_555
H54_3 C49_3 1_555 1_555
C50_3 C47_3 1_555 1_555
C51_3 C50_3 1_555 1_555
H55_3 C51_3 1_555 1_555
C52_3 N11_2 1_555 1_555
H56_3 C52_3 1_555 1_555
C30_7 C31_7 1_555 1_555
C36_7 C37_7 1_555 1_555
C38_7 C39_7 1_555 1_555
C43_3 C44_3 1_555 1_555
C49_3 C50_3 1_555 1_555
C51_3 C52_3 1_555 1_555
H35_8 C33_10 1_555 1_555
C34_8 C33_10 1_555 1_555
H37_8 C34_8 1_555 1_555
H38_8 C34_8 1_555 1_555
N8_8 C35_8 1_555 1_555
C35_8 H39_8 1_555 1_555
C36_8 C35_8 1_555 1_555
H40_8 C36_8 1_555 1_555
C37_8 C34_8 1_555 1_555
C38_8 C37_8 1_555 1_555
H41_8 C38_8 1_555 1_555
C39_8 N8_8 1_555 1_555
H42_8 C39_8 1_555 1_555
Cd5_4 N8_8 1_555 1_555
C36_8 C37_8 1_555 1_555
C38_8 C39_8 1_555 1_555
C27_8 N10_4 1_555 1_555
H29_8 C27_8 1_555 1_555
C28_8 C27_8 1_555 1_555
H30_8 C28_8 1_555 1_555
C29_8 C28_8 1_555 1_555
C30_8 C29_8 1_555 1_555
H31_8 C30_8 1_555 1_555
C31_8 N10_4 1_555 1_555
H32_8 C31_8 1_555 1_555
C32_8 C29_8 1_555 1_555
H33_8 C32_8 1_555 1_555
H34_8 C32_8 1_555 1_555
C33_11 C32_8 1_555 1_555
H36_8 C33_11 1_555 1_555
Cd6_3 N9_4 1_555 1_555
N9_4 C40_4 1_555 1_555
C40_4 H43_4 1_555 1_555
C41_4 C40_4 1_555 1_555
H44_4 C41_4 1_555 1_555
C42_4 C41_4 1_555 1_555
C43_4 C42_4 1_555 1_555
H45_4 C43_4 1_555 1_555
C44_4 N9_4 1_555 1_555
C45_4 C42_4 1_555 1_555
H47_4 C45_4 1_555 1_555
H48_4 C45_4 1_555 1_555
C46_4 C45_4 1_555 1_555
H49_4 C46_4 1_555 1_555
H50_4 C46_4 1_555 1_555
C47_4 C46_4 1_555 1_555
H51_4 C47_4 1_555 1_555
H52_4 C47_4 1_555 1_555
C48_4 N12_2 1_555 1_555
H53_4 C48_4 1_555 1_555
C49_4 C48_4 1_555 1_555
H54_4 C49_4 1_555 1_555
C50_4 C47_4 1_555 1_555
C51_4 C50_4 1_555 1_555
H55_4 C51_4 1_555 1_555
C52_4 N12_2 1_555 1_555
H56_4 C52_4 1_555 1_555
C30_8 C31_8 1_555 1_555
C43_4 C44_4 1_555 1_555
C49_4 C50_4 1_555 1_555
C51_4 C52_4 1_555 1_555
Cd5_4 Cl3_6 1_555 1_555
N7_5 Cd5_4 1_555 1_555
C27_9 N7_5 1_555 1_555
H29_9 C27_9 1_555 1_555
C28_9 C27_9 1_555 1_555
H30_9 C28_9 1_555 1_555
C29_9 C28_9 1_555 1_555
C30_9 C29_9 1_555 1_555
H31_9 C30_9 1_555 1_555
C31_9 N7_5 1_555 1_555
H32_9 C31_9 1_555 1_555
C32_9 C29_9 1_555 1_555
H33_9 C32_9 1_555 1_555
H34_9 C32_9 1_555 1_555
C33_12 C32_9 1_555 1_555
H35_9 C33_12 1_555 1_555
H36_9 C33_12 1_555 1_555
C34_9 C33_12 1_555 1_555
H37_9 C34_9 1_555 1_555
H38_9 C34_9 1_555 1_555
N8_9 C35_9 1_555 1_555
C35_9 H39_9 1_555 1_555
C36_9 C35_9 1_555 1_555
H40_9 C36_9 1_555 1_555
C37_9 C34_9 1_555 1_555
C38_9 C37_9 1_555 1_555
H41_9 C38_9 1_555 1_555
C39_9 N8_9 1_555 1_555
Cd5_6 N8_9 1_555 1_555
Cl4_6 Cd5_4 1_555 1_555
N10_5 Cd5_4 1_555 1_555
C30_9 C31_9 1_555 1_555
C36_9 C37_9 1_555 1_555
C38_9 C39_9 1_555 1_555
C27_10 N10_5 1_555 1_555
H29_10 C27_10 1_555 1_555
C28_10 C27_10 1_555 1_555
H30_10 C28_10 1_555 1_555
C29_10 C28_10 1_555 1_555
C30_10 C29_10 1_555 1_555
H31_10 C30_10 1_555 1_555
C31_10 N10_5 1_555 1_555
H32_10 C31_10 1_555 1_555
C32_10 C29_10 1_555 1_555
H33_10 C32_10 1_555 1_555
H34_10 C32_10 1_555 1_555
C33_13 C32_10 1_555 1_555
H35_10 C33_13 1_555 1_555
H36_10 C33_13 1_555 1_555
C34_10 C33_13 1_555 1_555
H37_10 C34_10 1_555 1_555
H38_10 C34_10 1_555 1_555
N8_10 C35_10 1_555 1_555
C35_10 H39_10 1_555 1_555
C36_10 C35_10 1_555 1_555
H40_10 C36_10 1_555 1_555
C37_10 C34_10 1_555 1_555
C38_10 C37_10 1_555 1_555
H41_10 C38_10 1_555 1_555
C39_10 N8_10 1_555 1_555
Cd5_5 N8_10 1_555 1_555
C30_10 C31_10 1_555 1_555
C36_10 C37_10 1_555 1_555
C38_10 C39_10 1_555 1_555
Cd5_5 Cl3_7 1_555 1_555
Cl4_7 Cd5_6 1_555 1_555
C27_11 N7_6 1_555 1_555
C28_11 C27_11 1_555 1_555
H30_11 C28_11 1_555 1_555
C29_11 C28_11 1_555 1_555
C30_11 C29_11 1_555 1_555
H31_11 C30_11 1_555 1_555
C31_11 N7_6 1_555 1_555
H32_11 C31_11 1_555 1_555
C32_11 C29_11 1_555 1_555
H33_11 C32_11 1_555 1_555
H34_11 C32_11 1_555 1_555
C33_14 C32_11 1_555 1_555
H36_11 C33_14 1_555 1_555
C30_11 C31_11 1_555 1_555
H35_11 C33_15 1_555 1_555
C34_11 C33_15 1_555 1_555
H37_11 C34_11 1_555 1_555
H38_11 C34_11 1_555 1_555
N8_11 C35_11 1_555 1_555
C35_11 H39_11 1_555 1_555
C36_11 C35_11 1_555 1_555
H40_11 C36_11 1_555 1_555
C37_11 C34_11 1_555 1_555
C38_11 C37_11 1_555 1_555
H41_11 C38_11 1_555 1_555
C39_11 N8_11 1_555 1_555
H42_11 C39_11 1_555 1_555
Cd6_4 N8_11 1_555 1_555
C36_11 C37_11 1_555 1_555
C38_11 C39_11 1_555 1_555
C27_12 N10_6 1_555 1_555
C28_12 C27_12 1_555 1_555
H30_12 C28_12 1_555 1_555
C29_12 C28_12 1_555 1_555
C30_12 C29_12 1_555 1_555
H31_12 C30_12 1_555 1_555
C31_12 N10_6 1_555 1_555
H32_12 C31_12 1_555 1_555
C32_12 C29_12 1_555 1_555
H33_12 C32_12 1_555 1_555
H34_12 C32_12 1_555 1_555
C33_16 C32_12 1_555 1_555
H35_12 C33_16 1_555 1_555
H36_12 C33_16 1_555 1_555
C34_12 C33_16 1_555 1_555
H37_12 C34_12 1_555 1_555
H38_12 C34_12 1_555 1_555
N8_12 C35_12 1_555 1_555
C35_12 H39_12 1_555 1_555
C36_12 C35_12 1_555 1_555
H40_12 C36_12 1_555 1_555
C37_12 C34_12 1_555 1_555
C38_12 C37_12 1_555 1_555
H41_12 C38_12 1_555 1_555
C39_12 N8_12 1_555 1_555
H42_12 C39_12 1_555 1_555
Cd6_3 N8_12 1_555 1_555
C30_12 C31_12 1_555 1_555
C36_12 C37_12 1_555 1_555
C38_12 C39_12 1_555 1_555
Cd6_3 Cl3_8 1_555 1_555
Cl4_8 Cd6_4 1_555 1_555

#END
