
###############################################################################
#
# This file contains modified crystal structure data generated from the
# MOF subset of the Cambridge Structural Database (CSD) v543 
# hosted by the Cambridge Crystallographic Data Centre (CCDC).
#
# This work is licensed under the Creative Commons
# Attribution-NonCommercial-ShareAlike 4.0 International License.
# To view a copy of this license, visit
# http://creativecommons.org/licenses/by-nc-sa/4.0/
# or send a letter to
# Creative Commons, PO Box 1866, Mountain View, CA 94042, USA.
#
# CIF created using the CSD Python API on 29 September 2022
# The structure has been converted into the P1 space group
# The structure has a 3D framework
# The original CSD entry CUPLUV is in the tetragonal crystal system
# The framework has been calculated to contain at least 10.0% void space
# The void calculation uses a probe of radius 1.32A, grid spacing 0.4
#
###############################################################################

data_CUPLUV
_chemical_formula_moiety         '(C416 H448 Cl32 Fe24 N64)n'
_symmetry_cell_setting           triclinic
_symmetry_space_group_name_H-M   'P 1'
_symmetry_Int_Tables_number      1
_space_group_name_Hall           'P 1'
loop_
_symmetry_equiv_pos_site_id
_symmetry_equiv_pos_as_xyz
1 x,y,z
_cell_length_a                   17.081(2)
_cell_length_b                   17.081(2)
_cell_length_c                   42.554(5)
_cell_angle_alpha                90
_cell_angle_beta                 90
_cell_angle_gamma                90
_cell_volume                     12415.6
loop_
_atom_site_label
_atom_site_type_symbol
_atom_site_fract_x
_atom_site_fract_y
_atom_site_fract_z
H14 H 0.0230 0.650 0.2204
Fe3 Fe -0.00000 0.75000 0.28145(4)
Fe1 Fe 0.50000 0.75000 0.03145(4)
Cl1 Cl 0.39936(13) 0.64976(12) 0.03122(5)
N1 N 0.5670(4) 0.6854(4) 0.06752(16)
C1 C 0.5334(5) 0.6465(5) 0.0907(2)
H1 H 0.478 0.6486 0.0924
C2 C 0.5740(6) 0.6030(5) 0.1126(2)
H2 H 0.5464 0.5761 0.1287
C3 C 0.6535(5) 0.5985(5) 0.1112(2)
C4 C 0.6908(5) 0.6400(5) 0.0871(2)
H3 H 0.7463 0.6393 0.0852
C5 C 0.6460(5) 0.6814(5) 0.0662(2)
H4 H 0.6719 0.7091 0.0499
C6 C 0.7008(6) 0.5508(6) 0.1347(2)
H5 H 0.7355 0.5143 0.1232
H6 H 0.6646 0.519 0.1477
C7 C 0.7507(5) 0.6020(5) 0.15644(19)
H7 H 0.785 0.6362 0.1436
H8 H 0.7161 0.6359 0.1692
C8 C 0.8010(6) 0.5516(6) 0.1781(2)
H9 H 0.7664 0.5156 0.19
H10 H 0.8366 0.5192 0.1652
N2 N 0.9325(4) 0.6848(4) 0.24514(16)
C9 C 0.8545(6) 0.6801(5) 0.2462(2)
H11 H 0.8278 0.7074 0.2624
C10 C 0.8114(5) 0.6384(5) 0.2254(2)
H12 H 0.7561 0.6365 0.2274
C11 C 0.8485(5) 0.5983(6) 0.2009(2)
C12 C 0.9279(6) 0.6028(5) 0.1995(2)
H13 H 0.9560 0.576 0.1835
C13 C 0.9676(6) 0.6470(5) 0.2219(2)
Fe3_2 Fe 1.00000 0.75000 0.28145(4)
Cl2 Cl 0.60064(13) 0.85024(12) 0.03122(5)
N3 N 0.4330(4) 0.8146(4) 0.06752(16)
C14 C 0.4666(5) 0.8535(5) 0.0907(2)
H15 H 0.522 0.8514 0.0924
C15 C 0.4260(6) 0.8970(5) 0.1126(2)
H16 H 0.4536 0.9239 0.1287
C16 C 0.3465(5) 0.9015(5) 0.1112(2)
C17 C 0.3092(5) 0.8600(5) 0.0871(2)
H17 H 0.2537 0.8607 0.0852
C18 C 0.3540(5) 0.8186(5) 0.0662(2)
H18 H 0.3281 0.7909 0.0499
C19 C 0.2992(6) 0.9492(6) 0.1347(2)
H19 H 0.2645 0.9857 0.1232
H20 H 0.3354 0.981 0.1477
C20 C 0.2493(5) 0.8980(5) 0.15644(19)
H21 H 0.215 0.8638 0.1436
H22 H 0.2839 0.8641 0.1692
C21 C 0.1990(6) 0.9484(6) 0.1781(2)
H23 H 0.2336 0.9844 0.19
H24 H 0.1634 0.9808 0.1652
N4 N 0.0675(4) 0.8152(4) 0.24514(16)
C22 C 0.1455(6) 0.8199(5) 0.2462(2)
H25 H 0.1722 0.7926 0.2624
C23 C 0.1886(5) 0.8616(5) 0.2254(2)
H26 H 0.2439 0.8635 0.2274
C24 C 0.1515(5) 0.9017(6) 0.2009(2)
C25 C 0.0721(6) 0.8972(5) 0.1995(2)
H27 H 0.0440 0.924 0.1835
C26 C 0.0324(6) 0.8530(5) 0.2219(2)
N5 N 0.4348(4) 0.8175(4) 0.99514(16)
N6 N 0.5652(4) 0.6825(4) 0.99514(16)
H28 H 0.9770 0.850 0.2204
Fe1_2 Fe 0.00000 0.25000 0.53145(4)
Cl1_2 Cl 0.10064(13) 0.35024(12) 0.53122(5)
H1_2 H 0.022 0.3514 0.5924
Fe2 Fe 0.50000 0.25000 0.78145(4)
N3_2 N 0.0670(4) 0.1854(4) 0.56752(16)
C14_2 C 0.0334(5) 0.1465(5) 0.5907(2)
C15_2 C 0.0740(6) 0.1030(5) 0.6126(2)
H16_2 H 0.0464 0.0761 0.6287
C16_2 C 0.1535(5) 0.0985(5) 0.6112(2)
C17_2 C 0.1908(5) 0.1400(5) 0.5871(2)
H17_2 H 0.2463 0.1393 0.5852
C18_2 C 0.1460(5) 0.1814(5) 0.5662(2)
H18_2 H 0.1719 0.2091 0.5499
C19_2 C 0.2008(6) 0.0508(6) 0.6347(2)
H19_2 H 0.2355 0.0143 0.6232
H20_2 H 0.1646 0.019 0.6477
C20_2 C 0.2507(5) 0.1020(5) 0.65644(19)
H21_2 H 0.285 0.1362 0.6436
H22_2 H 0.2161 0.1359 0.6692
C21_2 C 0.3010(6) 0.0516(6) 0.6781(2)
H23_2 H 0.2664 0.0156 0.69
H24_2 H 0.3366 0.0192 0.6652
N4_2 N 0.4325(4) 0.1848(4) 0.74514(16)
N5_2 N 0.0652(4) 0.1825(4) 0.49514(16)
C22_2 C 0.3545(6) 0.1801(5) 0.7462(2)
H25_2 H 0.3278 0.2074 0.7624
C23_2 C 0.3114(5) 0.1384(5) 0.7254(2)
H26_2 H 0.2561 0.1365 0.7274
C24_2 C 0.3485(5) 0.0983(6) 0.7009(2)
C25_2 C 0.4279(6) 0.1028(5) 0.6995(2)
H27_2 H 0.4560 0.076 0.6835
C26_2 C 0.4676(6) 0.1470(5) 0.7219(2)
H28_2 H 0.5230 0.150 0.7204
Fe1_3 Fe 1.00000 0.25000 0.53145(4)
N1_2 N 0.9330(4) 0.3146(4) 0.56752(16)
C1_2 C 0.9666(5) 0.3535(5) 0.5907(2)
C2_2 C 0.9260(6) 0.3970(5) 0.6126(2)
H2_2 H 0.9536 0.4239 0.6287
C3_2 C 0.8465(5) 0.4015(5) 0.6112(2)
C4_2 C 0.8092(5) 0.3600(5) 0.5871(2)
H3_2 H 0.7537 0.3607 0.5852
C5_2 C 0.8540(5) 0.3186(5) 0.5662(2)
H4_2 H 0.8281 0.2909 0.5499
C6_2 C 0.7992(6) 0.4492(6) 0.6347(2)
H5_2 H 0.7645 0.4857 0.6232
H6_2 H 0.8354 0.481 0.6477
C7_2 C 0.7493(5) 0.3980(5) 0.65644(19)
H7_2 H 0.715 0.3638 0.6436
H8_2 H 0.7839 0.3641 0.6692
C8_2 C 0.6990(6) 0.4484(6) 0.6781(2)
H9_2 H 0.7336 0.4844 0.69
H10_2 H 0.6634 0.4808 0.6652
N2_2 N 0.5675(4) 0.3152(4) 0.74514(16)
C9_2 C 0.6455(6) 0.3199(5) 0.7462(2)
H11_2 H 0.6722 0.2926 0.7624
C10_2 C 0.6886(5) 0.3616(5) 0.7254(2)
H12_2 H 0.7439 0.3635 0.7274
C11_2 C 0.6515(5) 0.4017(6) 0.7009(2)
C12_2 C 0.5721(6) 0.3972(5) 0.6995(2)
H13_2 H 0.5440 0.424 0.6835
C13_2 C 0.5324(6) 0.3530(5) 0.7219(2)
H14_2 H 0.4770 0.350 0.7204
Cl2_2 Cl 0.89936(13) 0.14976(12) 0.53122(5)
H15_2 H 0.978 0.1486 0.5924
N6_2 N 0.9348(4) 0.3175(4) 0.49514(16)
C7_3 C 0.1480(5) 0.0007(5) 0.40644(19)
H7_3 H 0.1138 0.035 0.3936
C8_3 C 0.1984(6) 0.0510(6) 0.4281(2)
H9_3 H 0.2344 0.0164 0.44
H10_3 H 0.2308 0.0866 0.4152
C9_3 C 0.0699(5) 0.1045(6) 0.4962(2)
H11_3 H 0.0426 0.0778 0.5124
C10_3 C 0.1116(5) 0.0614(5) 0.4754(2)
H12_3 H 0.1135 0.0061 0.4774
C11_3 C 0.1517(6) 0.0985(5) 0.4509(2)
C12_3 C 0.1472(5) 0.1779(6) 0.4495(2)
H13_3 H 0.174 0.2060 0.4335
C13_3 C 0.1030(5) 0.2176(6) 0.4719(2)
H14_3 H 0.100 0.2730 0.4704
Cl1_3 Cl 0.10024(12) 0.64936(13) 0.28122(5)
N1_3 N 0.0646(4) 0.8170(4) 0.31752(16)
C1_3 C 0.1035(5) 0.7834(5) 0.3407(2)
H1_3 H 0.1014 0.728 0.3424
C2_3 C 0.1470(5) 0.8240(6) 0.3626(2)
H2_3 H 0.1739 0.7964 0.3787
C3_3 C 0.1515(5) 0.9035(5) 0.3612(2)
C4_3 C 0.1100(5) 0.9408(5) 0.3371(2)
H3_3 H 0.1107 0.9963 0.3352
C5_3 C 0.0686(5) 0.8960(5) 0.3162(2)
H4_3 H 0.0409 0.9219 0.2999
C6_3 C 0.1992(6) 0.9508(6) 0.3847(2)
H5_3 H 0.2357 0.9855 0.3732
H6_3 H 0.231 0.9146 0.3977
H8_3 H 0.1141 0.9661 0.4192
Cl2_3 Cl 0.89976(12) 0.85064(13) 0.28122(5)
N3_3 N 0.9354(4) 0.6830(4) 0.31752(16)
C14_3 C 0.8965(5) 0.7166(5) 0.3407(2)
H15_3 H 0.8986 0.772 0.3424
C15_3 C 0.8530(5) 0.6760(6) 0.3626(2)
H16_3 H 0.8261 0.7036 0.3787
C16_3 C 0.8485(5) 0.5965(5) 0.3612(2)
C17_3 C 0.8900(5) 0.5592(5) 0.3371(2)
H17_3 H 0.8893 0.5037 0.3352
C18_3 C 0.9314(5) 0.6040(5) 0.3162(2)
H18_3 H 0.9591 0.5781 0.2999
C19_3 C 0.8008(6) 0.5492(6) 0.3847(2)
H19_3 H 0.7643 0.5145 0.3732
H20_3 H 0.769 0.5854 0.3977
C20_3 C 0.8520(5) 0.4993(5) 0.40644(19)
H21_3 H 0.8862 0.465 0.3936
H22_3 H 0.8859 0.5339 0.4192
C21_3 C 0.8016(6) 0.4490(6) 0.4281(2)
H23_3 H 0.7656 0.4836 0.44
H24_3 H 0.7692 0.4134 0.4152
C22_3 C 0.9301(5) 0.3955(6) 0.4962(2)
H25_3 H 0.9574 0.4222 0.5124
C23_3 C 0.8884(5) 0.4386(5) 0.4754(2)
H26_3 H 0.8865 0.4939 0.4774
C24_3 C 0.8483(6) 0.4015(5) 0.4509(2)
C25_3 C 0.8528(5) 0.3221(6) 0.4495(2)
H27_3 H 0.826 0.2940 0.4335
C26_3 C 0.8970(5) 0.2824(6) 0.4719(2)
H28_3 H 0.900 0.2270 0.4704
H25_4 H 0.5426 0.5778 0.0124
Cl1_4 Cl 0.39976(12) 0.35064(13) 0.78122(5)
N1_4 N 0.4354(4) 0.1830(4) 0.81752(16)
C1_4 C 0.3965(5) 0.2166(5) 0.8407(2)
H1_4 H 0.3986 0.272 0.8424
C2_4 C 0.3530(5) 0.1760(6) 0.8626(2)
H2_4 H 0.3261 0.2036 0.8787
C3_4 C 0.3485(5) 0.0965(5) 0.8612(2)
C4_4 C 0.3900(5) 0.0592(5) 0.8371(2)
H3_4 H 0.3893 0.0037 0.8352
C5_4 C 0.4314(5) 0.1040(5) 0.8162(2)
H4_4 H 0.4591 0.0781 0.7999
C6_4 C 0.3008(6) 0.0492(6) 0.8847(2)
H5_4 H 0.2643 0.0145 0.8732
H6_4 H 0.269 0.0854 0.8977
H8_4 H 0.3859 0.0339 0.9192
Cl2_4 Cl 0.60024(12) 0.14936(13) 0.78122(5)
N3_4 N 0.5646(4) 0.3170(4) 0.81752(16)
C14_4 C 0.6035(5) 0.2834(5) 0.8407(2)
H15_4 H 0.6014 0.228 0.8424
C15_4 C 0.6470(5) 0.3240(6) 0.8626(2)
H16_4 H 0.6739 0.2964 0.8787
C16_4 C 0.6515(5) 0.4035(5) 0.8612(2)
C17_4 C 0.6100(5) 0.4408(5) 0.8371(2)
H17_4 H 0.6107 0.4963 0.8352
C18_4 C 0.5686(5) 0.3960(5) 0.8162(2)
H18_4 H 0.5409 0.4219 0.7999
C19_4 C 0.6992(6) 0.4508(6) 0.8847(2)
H19_4 H 0.7357 0.4855 0.8732
H20_4 H 0.731 0.4146 0.8977
C20_4 C 0.6480(5) 0.5007(5) 0.90644(19)
H21_4 H 0.6138 0.535 0.8936
H22_4 H 0.6141 0.4661 0.9192
C21_4 C 0.6984(6) 0.5510(6) 0.9281(2)
H23_4 H 0.7344 0.5164 0.94
H24_4 H 0.7308 0.5866 0.9152
C22_4 C 0.5699(5) 0.6045(6) 0.9962(2)
C23_4 C 0.6116(5) 0.5614(5) 0.9754(2)
H26_4 H 0.6135 0.5061 0.9774
C24_4 C 0.6517(6) 0.5985(5) 0.9509(2)
C25_4 C 0.6472(5) 0.6779(6) 0.9495(2)
H27_4 H 0.674 0.7060 0.9335
C26_4 C 0.6030(5) 0.7176(6) 0.9719(2)
H28_4 H 0.600 0.7730 0.9704
H11_4 H 0.4574 0.9222 0.0124
C7_4 C 0.3520(5) 0.9993(5) 0.90644(19)
H7_4 H 0.3862 0.965 0.8936
C8_4 C 0.3016(6) 0.9490(6) 0.9281(2)
H9_4 H 0.2656 0.9836 0.94
H10_4 H 0.2692 0.9134 0.9152
C9_4 C 0.4301(5) 0.8955(6) 0.9962(2)
C10_4 C 0.3884(5) 0.9386(5) 0.9754(2)
H12_4 H 0.3865 0.9939 0.9774
C11_4 C 0.3483(6) 0.9015(5) 0.9509(2)
C12_4 C 0.3528(5) 0.8221(6) 0.9495(2)
H13_4 H 0.326 0.7940 0.9335
C13_4 C 0.3970(5) 0.7824(6) 0.9719(2)
H14_4 H 0.400 0.7270 0.9704
Fe2_2 Fe 0.00000 0.25000 0.71855(4)
H28_5 H 0.0230 0.150 0.7796
N5_3 N 0.5652(4) 0.1825(4) 0.00486(16)
N6_3 N 0.4348(4) 0.3175(4) 0.00486(16)
Fe1_4 Fe 0.50000 0.25000 0.96855(4)
Cl1_5 Cl 0.60064(13) 0.35024(12) 0.96878(5)
N1_5 N 0.4330(4) 0.3146(4) 0.93248(16)
C1_5 C 0.4666(5) 0.3535(5) 0.9093(2)
H1_5 H 0.522 0.3514 0.9076
C2_5 C 0.4260(6) 0.3970(5) 0.8874(2)
H2_5 H 0.4536 0.4239 0.8713
C3_5 C 0.3465(5) 0.4015(5) 0.8888(2)
C4_5 C 0.3092(5) 0.3600(5) 0.9129(2)
H3_5 H 0.2537 0.3607 0.9148
C5_5 C 0.3540(5) 0.3186(5) 0.9338(2)
H4_5 H 0.3281 0.2909 0.9501
C6_5 C 0.2992(6) 0.4492(6) 0.8653(2)
H5_5 H 0.2645 0.4857 0.8768
H6_5 H 0.3354 0.481 0.8523
C7_5 C 0.2493(5) 0.3980(5) 0.84356(19)
H7_5 H 0.215 0.3638 0.8564
H8_5 H 0.2839 0.3641 0.8308
C8_5 C 0.1990(6) 0.4484(6) 0.8219(2)
H9_5 H 0.2336 0.4844 0.81
H10_5 H 0.1634 0.4808 0.8348
N2_3 N 0.0675(4) 0.3152(4) 0.75486(16)
C9_5 C 0.1455(6) 0.3199(5) 0.7538(2)
H11_5 H 0.1722 0.2926 0.7376
C10_5 C 0.1886(5) 0.3616(5) 0.7746(2)
H12_5 H 0.2439 0.3635 0.7726
C11_5 C 0.1515(5) 0.4017(6) 0.7991(2)
C12_5 C 0.0721(6) 0.3972(5) 0.8005(2)
H13_5 H 0.0440 0.424 0.8165
C13_5 C 0.0324(6) 0.3530(5) 0.7781(2)
Fe2_3 Fe 1.00000 0.25000 0.71855(4)
Cl2_5 Cl 0.39936(13) 0.14976(12) 0.96878(5)
N3_5 N 0.5670(4) 0.1854(4) 0.93248(16)
C14_5 C 0.5334(5) 0.1465(5) 0.9093(2)
H15_5 H 0.478 0.1486 0.9076
C15_5 C 0.5740(6) 0.1030(5) 0.8874(2)
H16_5 H 0.5464 0.0761 0.8713
C16_5 C 0.6535(5) 0.0985(5) 0.8888(2)
C17_5 C 0.6908(5) 0.1400(5) 0.9129(2)
H17_5 H 0.7463 0.1393 0.9148
C18_5 C 0.6460(5) 0.1814(5) 0.9338(2)
H18_5 H 0.6719 0.2091 0.9501
C19_5 C 0.7008(6) 0.0508(6) 0.8653(2)
H19_5 H 0.7355 0.0143 0.8768
H20_5 H 0.6646 0.019 0.8523
C20_5 C 0.7507(5) 0.1020(5) 0.84356(19)
H21_5 H 0.785 0.1362 0.8564
H22_5 H 0.7161 0.1359 0.8308
C21_5 C 0.8010(6) 0.0516(6) 0.8219(2)
H23_5 H 0.7664 0.0156 0.81
H24_5 H 0.8366 0.0192 0.8348
N4_3 N 0.9325(4) 0.1848(4) 0.75486(16)
C22_5 C 0.8545(6) 0.1801(5) 0.7538(2)
H25_5 H 0.8278 0.2074 0.7376
C23_5 C 0.8114(5) 0.1384(5) 0.7746(2)
H26_5 H 0.7561 0.1365 0.7726
C24_5 C 0.8485(5) 0.0983(6) 0.7991(2)
C25_5 C 0.9279(6) 0.1028(5) 0.8005(2)
H27_5 H 0.9560 0.076 0.8165
C26_5 C 0.9676(6) 0.1470(5) 0.7781(2)
H14_5 H 0.9770 0.350 0.7796
Fe1_5 Fe -0.00000 0.75000 0.46855(4)
N1_6 N 0.0670(4) 0.6854(4) 0.43248(16)
C1_6 C 0.0334(5) 0.6465(5) 0.4093(2)
C2_6 C 0.0740(6) 0.6030(5) 0.3874(2)
H2_6 H 0.0464 0.5761 0.3713
C3_6 C 0.1535(5) 0.5985(5) 0.3888(2)
C4_6 C 0.1908(5) 0.6400(5) 0.4129(2)
H3_6 H 0.2463 0.6393 0.4148
C5_6 C 0.1460(5) 0.6814(5) 0.4338(2)
H4_6 H 0.1719 0.7091 0.4501
C6_6 C 0.2008(6) 0.5508(6) 0.3653(2)
H5_6 H 0.2355 0.5143 0.3768
H6_6 H 0.1646 0.519 0.3523
C7_6 C 0.2507(5) 0.6020(5) 0.34356(19)
H7_6 H 0.285 0.6362 0.3564
H8_6 H 0.2161 0.6359 0.3308
C8_6 C 0.3010(6) 0.5516(6) 0.3219(2)
H9_6 H 0.2664 0.5156 0.31
H10_6 H 0.3366 0.5192 0.3348
N2_4 N 0.4325(4) 0.6848(4) 0.25486(16)
C9_6 C 0.3545(6) 0.6801(5) 0.2538(2)
H11_6 H 0.3278 0.7074 0.2376
C10_6 C 0.3114(5) 0.6384(5) 0.2746(2)
H12_6 H 0.2561 0.6365 0.2726
C11_6 C 0.3485(5) 0.5983(6) 0.2991(2)
C12_6 C 0.4279(6) 0.6028(5) 0.3005(2)
H13_6 H 0.4560 0.576 0.3165
C13_6 C 0.4676(6) 0.6470(5) 0.2781(2)
H14_6 H 0.5230 0.650 0.2796
Fe3_3 Fe 0.50000 0.75000 0.21855(4)
Cl2_6 Cl 0.10064(13) 0.85024(12) 0.46878(5)
H15_6 H 0.022 0.8514 0.4076
N6_4 N 0.0652(4) 0.6825(4) 0.50486(16)
Fe1_6 Fe 1.00000 0.75000 0.46855(4)
Cl1_6 Cl 0.89936(13) 0.64976(12) 0.46878(5)
H1_6 H 0.978 0.6486 0.4076
N3_6 N 0.9330(4) 0.8146(4) 0.43248(16)
C14_6 C 0.9666(5) 0.8535(5) 0.4093(2)
C15_6 C 0.9260(6) 0.8970(5) 0.3874(2)
H16_6 H 0.9536 0.9239 0.3713
C16_6 C 0.8465(5) 0.9015(5) 0.3888(2)
C17_6 C 0.8092(5) 0.8600(5) 0.4129(2)
H17_6 H 0.7537 0.8607 0.4148
C18_6 C 0.8540(5) 0.8186(5) 0.4338(2)
H18_6 H 0.8281 0.7909 0.4501
C19_6 C 0.7992(6) 0.9492(6) 0.3653(2)
H19_6 H 0.7645 0.9857 0.3768
H20_6 H 0.8354 0.981 0.3523
C20_6 C 0.7493(5) 0.8980(5) 0.34356(19)
H21_6 H 0.715 0.8638 0.3564
H22_6 H 0.7839 0.8641 0.3308
C21_6 C 0.6990(6) 0.9484(6) 0.3219(2)
H23_6 H 0.7336 0.9844 0.31
H24_6 H 0.6634 0.9808 0.3348
N4_4 N 0.5675(4) 0.8152(4) 0.25486(16)
N5_4 N 0.9348(4) 0.8175(4) 0.50486(16)
C22_6 C 0.6455(6) 0.8199(5) 0.2538(2)
H25_6 H 0.6722 0.7926 0.2376
C23_6 C 0.6886(5) 0.8616(5) 0.2746(2)
H26_6 H 0.7439 0.8635 0.2726
C24_6 C 0.6515(5) 0.9017(6) 0.2991(2)
C25_6 C 0.5721(6) 0.8972(5) 0.3005(2)
H27_6 H 0.5440 0.924 0.3165
C26_6 C 0.5324(6) 0.8530(5) 0.2781(2)
H28_6 H 0.4770 0.850 0.2796
Cl2_7 Cl 0.10024(12) 0.14936(13) 0.71878(5)
N3_7 N 0.0646(4) 0.3170(4) 0.68248(16)
C14_7 C 0.1035(5) 0.2834(5) 0.6593(2)
H15_7 H 0.1014 0.228 0.6576
C15_7 C 0.1470(5) 0.3240(6) 0.6374(2)
H16_7 H 0.1739 0.2964 0.6213
C16_7 C 0.1515(5) 0.4035(5) 0.6388(2)
C17_7 C 0.1100(5) 0.4408(5) 0.6629(2)
H17_7 H 0.1107 0.4963 0.6648
C18_7 C 0.0686(5) 0.3960(5) 0.6838(2)
H18_7 H 0.0409 0.4219 0.7001
C19_7 C 0.1992(6) 0.4508(6) 0.6153(2)
H19_7 H 0.2357 0.4855 0.6268
H20_7 H 0.231 0.4146 0.6023
C20_7 C 0.1480(5) 0.5007(5) 0.59356(19)
H21_7 H 0.1138 0.535 0.6064
H22_7 H 0.1141 0.4661 0.5808
C21_7 C 0.1984(6) 0.5510(6) 0.5719(2)
H23_7 H 0.2344 0.5164 0.56
H24_7 H 0.2308 0.5866 0.5848
C22_7 C 0.0699(5) 0.6045(6) 0.5038(2)
H25_7 H 0.0426 0.5778 0.4876
C23_7 C 0.1116(5) 0.5614(5) 0.5246(2)
H26_7 H 0.1135 0.5061 0.5226
C24_7 C 0.1517(6) 0.5985(5) 0.5491(2)
C25_7 C 0.1472(5) 0.6779(6) 0.5505(2)
H27_7 H 0.174 0.7060 0.5665
C26_7 C 0.1030(5) 0.7176(6) 0.5281(2)
H28_7 H 0.100 0.7730 0.5296
Cl1_7 Cl 0.89976(12) 0.35064(13) 0.71878(5)
N1_7 N 0.9354(4) 0.1830(4) 0.68248(16)
C1_7 C 0.8965(5) 0.2166(5) 0.6593(2)
H1_7 H 0.8986 0.272 0.6576
C2_7 C 0.8530(5) 0.1760(6) 0.6374(2)
H2_7 H 0.8261 0.2036 0.6213
C3_7 C 0.8485(5) 0.0965(5) 0.6388(2)
C4_7 C 0.8900(5) 0.0592(5) 0.6629(2)
H3_7 H 0.8893 0.0037 0.6648
C5_7 C 0.9314(5) 0.1040(5) 0.6838(2)
H4_7 H 0.9591 0.0781 0.7001
C6_7 C 0.8008(6) 0.0492(6) 0.6153(2)
H5_7 H 0.7643 0.0145 0.6268
H6_7 H 0.769 0.0854 0.6023
H8_7 H 0.8859 0.0339 0.5808
C7_7 C 0.8520(5) 0.9993(5) 0.59356(19)
H7_7 H 0.8862 0.965 0.6064
C8_7 C 0.8016(6) 0.9490(6) 0.5719(2)
H9_7 H 0.7656 0.9836 0.56
H10_7 H 0.7692 0.9134 0.5848
C9_7 C 0.9301(5) 0.8955(6) 0.5038(2)
H11_7 H 0.9574 0.9222 0.4876
C10_7 C 0.8884(5) 0.9386(5) 0.5246(2)
H12_7 H 0.8865 0.9939 0.5226
C11_7 C 0.8483(6) 0.9015(5) 0.5491(2)
C12_7 C 0.8528(5) 0.8221(6) 0.5505(2)
H13_7 H 0.826 0.7940 0.5665
C13_7 C 0.8970(5) 0.7824(6) 0.5281(2)
H14_7 H 0.900 0.7270 0.5296
C7_8 C 0.6480(5) 0.0007(5) 0.09356(19)
H7_8 H 0.6138 0.035 0.1064
C8_8 C 0.6984(6) 0.0510(6) 0.0719(2)
H9_8 H 0.7344 0.0164 0.06
H10_8 H 0.7308 0.0866 0.0848
C9_8 C 0.5699(5) 0.1045(6) 0.0038(2)
C10_8 C 0.6116(5) 0.0614(5) 0.0246(2)
H12_8 H 0.6135 0.0061 0.0226
C11_8 C 0.6517(6) 0.0985(5) 0.0491(2)
C12_8 C 0.6472(5) 0.1779(6) 0.0505(2)
H13_8 H 0.674 0.2060 0.0665
C13_8 C 0.6030(5) 0.2176(6) 0.0281(2)
H14_8 H 0.600 0.2730 0.0296
H11_8 H 0.5426 0.0778 0.9876
Cl1_8 Cl 0.60024(12) 0.64936(13) 0.21878(5)
N1_8 N 0.5646(4) 0.8170(4) 0.18248(16)
C1_8 C 0.6035(5) 0.7834(5) 0.1593(2)
H1_8 H 0.6014 0.728 0.1576
C2_8 C 0.6470(5) 0.8240(6) 0.1374(2)
H2_8 H 0.6739 0.7964 0.1213
C3_8 C 0.6515(5) 0.9035(5) 0.1388(2)
C4_8 C 0.6100(5) 0.9408(5) 0.1629(2)
H3_8 H 0.6107 0.9963 0.1648
C5_8 C 0.5686(5) 0.8960(5) 0.1838(2)
H4_8 H 0.5409 0.9219 0.2001
C6_8 C 0.6992(6) 0.9508(6) 0.1153(2)
H5_8 H 0.7357 0.9855 0.1268
H6_8 H 0.731 0.9146 0.1023
H8_8 H 0.6141 0.9661 0.0808
Cl2_8 Cl 0.39976(12) 0.85064(13) 0.21878(5)
N3_8 N 0.4354(4) 0.6830(4) 0.18248(16)
C14_8 C 0.3965(5) 0.7166(5) 0.1593(2)
H15_8 H 0.3986 0.772 0.1576
C15_8 C 0.3530(5) 0.6760(6) 0.1374(2)
H16_8 H 0.3261 0.7036 0.1213
C16_8 C 0.3485(5) 0.5965(5) 0.1388(2)
C17_8 C 0.3900(5) 0.5592(5) 0.1629(2)
H17_8 H 0.3893 0.5037 0.1648
C18_8 C 0.4314(5) 0.6040(5) 0.1838(2)
H18_8 H 0.4591 0.5781 0.2001
C19_8 C 0.3008(6) 0.5492(6) 0.1153(2)
H19_8 H 0.2643 0.5145 0.1268
H20_8 H 0.269 0.5854 0.1023
C20_8 C 0.3520(5) 0.4993(5) 0.09356(19)
H21_8 H 0.3862 0.465 0.1064
H22_8 H 0.3859 0.5339 0.0808
C21_8 C 0.3016(6) 0.4490(6) 0.0719(2)
H23_8 H 0.2656 0.4836 0.06
H24_8 H 0.2692 0.4134 0.0848
C22_8 C 0.4301(5) 0.3955(6) 0.0038(2)
C23_8 C 0.3884(5) 0.4386(5) 0.0246(2)
H26_8 H 0.3865 0.4939 0.0226
C24_8 C 0.3483(6) 0.4015(5) 0.0491(2)
C25_8 C 0.3528(5) 0.3221(6) 0.0505(2)
H27_8 H 0.326 0.2940 0.0665
C26_8 C 0.3970(5) 0.2824(6) 0.0281(2)
H28_8 H 0.400 0.2270 0.0296
H25_8 H 0.4574 0.4222 0.9876
Fe6 Fe -0.00000 0.25000 0.34425(5)
Fe4 Fe 0.00000 0.75000 0.09425(5)
N7 N 0.0650(6) 0.6823(6) 0.1304(2)
C27 C 0.1053(7) 0.7161(8) 0.1532(3)
H29 H 0.1041 0.7715 0.1549
C28 C 0.1495(7) 0.6739(8) 0.1749(3)
H30 H 0.1771 0.7011 0.1909
C29 C 0.1537(6) 0.5940(7) 0.1736(2)
C30 C 0.1119(7) 0.5586(7) 0.1497(3)
H31 H 0.1115 0.5032 0.1479
C31 C 0.0704(8) 0.6042(8) 0.1283(3)
H32 H 0.0446 0.5786 0.1114
C32 C 0.1997(8) 0.5461(8) 0.1965(3)
H33 H 0.2346 0.5104 0.1847
H34 H 0.2332 0.5816 0.2091
C33 C 0.1503(8) 0.4984(9) 0.2185(3)
H35 H 0.114 0.4652 0.2062
H36 H 0.1185 0.5338 0.2318
C34 C 0.2001(8) 0.4469(8) 0.2393(3)
H37 H 0.2394 0.4798 0.2502
H38 H 0.2287 0.4087 0.2261
N8 N 0.0641(6) 0.3160(6) 0.3076(2)
C35 C 0.0653(7) 0.3968(8) 0.3088(3)
H39 H 0.0359 0.4242 0.3243
C36 C 0.1116(7) 0.4383(8) 0.2865(3)
H40 H 0.1140 0.494 0.2879
C37 C 0.1516(7) 0.4025(8) 0.2639(3)
C38 C 0.1461(8) 0.3194(10) 0.2621(3)
H41 H 0.1714 0.2916 0.2456
C39 C 0.1036(8) 0.2796(9) 0.2846(3)
H42 H 0.1024 0.2241 0.2838
Cl4 Cl 0.09924(16) 0.85195(19) 0.09448(7)
N11 N 0.0660(6) 0.6859(6) 0.0576(2)
Fe6_2 Fe 1.00000 0.25000 0.34425(5)
C46 C 0.8497(8) 0.0016(9) 0.2185(3)
H49 H 0.886 0.0348 0.2062
C47 C 0.7999(8) 0.0531(8) 0.2393(3)
H51 H 0.7606 0.0202 0.2502
H52 H 0.7713 0.0913 0.2261
N10 N 0.9359(6) 0.1840(6) 0.3076(2)
C48 C 0.9347(7) 0.1032(8) 0.3088(3)
H53 H 0.9641 0.0758 0.3243
C49 C 0.8884(7) 0.0617(8) 0.2865(3)
H54 H 0.8860 0.006 0.2879
C50 C 0.8484(7) 0.0975(8) 0.2639(3)
C51 C 0.8539(8) 0.1806(10) 0.2621(3)
H55 H 0.8286 0.2084 0.2456
C52 C 0.8964(8) 0.2204(9) 0.2846(3)
H56 H 0.8976 0.2759 0.2838
Fe4_2 Fe 1.00000 0.75000 0.09425(5)
Cl3 Cl 0.90076(16) 0.64805(19) 0.09448(7)
N9 N 0.9350(6) 0.8177(6) 0.1304(2)
C40 C 0.8947(7) 0.7839(8) 0.1532(3)
H43 H 0.8959 0.7285 0.1549
C41 C 0.8505(7) 0.8261(8) 0.1749(3)
H44 H 0.8229 0.7989 0.1909
C42 C 0.8463(6) 0.9060(7) 0.1736(2)
C43 C 0.8881(7) 0.9414(7) 0.1497(3)
H45 H 0.8885 0.9968 0.1479
C44 C 0.9296(8) 0.8958(8) 0.1283(3)
H46 H 0.9554 0.9214 0.1114
C45 C 0.8003(8) 0.9539(8) 0.1965(3)
H47 H 0.7654 0.9896 0.1847
H48 H 0.7668 0.9184 0.2091
H50 H 0.8815 0.9662 0.2318
N12 N 0.9340(6) 0.8141(6) 0.0576(2)
Fe4_3 Fe 0.50000 0.25000 0.59425(5)
Cl3_2 Cl 0.59924(16) 0.35195(19) 0.59448(7)
N7_2 N 0.4350(6) 0.3177(6) 0.6304(2)
C27_2 C 0.3947(7) 0.2839(8) 0.6532(3)
H29_2 H 0.3959 0.2285 0.6549
C28_2 C 0.3505(7) 0.3261(8) 0.6749(3)
H30_2 H 0.3229 0.2989 0.6909
C29_2 C 0.3463(6) 0.4060(7) 0.6736(2)
C30_2 C 0.3881(7) 0.4414(7) 0.6497(3)
H31_2 H 0.3885 0.4968 0.6479
C31_2 C 0.4296(8) 0.3958(8) 0.6283(3)
H32_2 H 0.4554 0.4214 0.6114
C32_2 C 0.3003(8) 0.4539(8) 0.6965(3)
H33_2 H 0.2654 0.4896 0.6847
H34_2 H 0.2668 0.4184 0.7091
C33_2 C 0.3497(8) 0.5016(9) 0.7185(3)
H35_2 H 0.386 0.5348 0.7062
H36_2 H 0.3815 0.4662 0.7318
C34_2 C 0.2999(8) 0.5531(8) 0.7393(3)
H37_2 H 0.2606 0.5202 0.7502
H38_2 H 0.2713 0.5913 0.7261
N8_2 N 0.4359(6) 0.6840(6) 0.8076(2)
C35_2 C 0.4347(7) 0.6032(8) 0.8088(3)
H39_2 H 0.4641 0.5758 0.8243
C36_2 C 0.3884(7) 0.5617(8) 0.7865(3)
H40_2 H 0.3860 0.506 0.7879
C37_2 C 0.3484(7) 0.5975(8) 0.7639(3)
C38_2 C 0.3539(8) 0.6806(10) 0.7621(3)
H41_2 H 0.3286 0.7084 0.7456
C39_2 C 0.3964(8) 0.7204(9) 0.7846(3)
H42_2 H 0.3976 0.7759 0.7838
Fe5 Fe 0.50000 0.75000 0.84425(5)
Cl4_2 Cl 0.40076(16) 0.14805(19) 0.59448(7)
N9_2 N 0.5650(6) 0.1823(6) 0.6304(2)
C40_2 C 0.6053(7) 0.2161(8) 0.6532(3)
H43_2 H 0.6041 0.2715 0.6549
C41_2 C 0.6495(7) 0.1739(8) 0.6749(3)
H44_2 H 0.6771 0.2011 0.6909
C42_2 C 0.6537(6) 0.0940(7) 0.6736(2)
C43_2 C 0.6119(7) 0.0586(7) 0.6497(3)
H45_2 H 0.6115 0.0032 0.6479
C44_2 C 0.5704(8) 0.1042(8) 0.6283(3)
H46_2 H 0.5446 0.0786 0.6114
C45_2 C 0.6997(8) 0.0461(8) 0.6965(3)
H47_2 H 0.7346 0.0104 0.6847
H48_2 H 0.7332 0.0816 0.7091
H50_2 H 0.6185 0.0338 0.7318
N11_2 N 0.4340(6) 0.3141(6) 0.5576(2)
N12_2 N 0.5660(6) 0.1859(6) 0.5576(2)
C46_2 C 0.6503(8) 0.9984(9) 0.7185(3)
H49_2 H 0.614 0.9652 0.7062
C47_2 C 0.7001(8) 0.9469(8) 0.7393(3)
H51_2 H 0.7394 0.9798 0.7502
H52_2 H 0.7287 0.9087 0.7261
N10_2 N 0.5641(6) 0.8160(6) 0.8076(2)
C48_2 C 0.5653(7) 0.8968(8) 0.8088(3)
H53_2 H 0.5359 0.9242 0.8243
C49_2 C 0.6116(7) 0.9383(8) 0.7865(3)
H54_2 H 0.6140 0.994 0.7879
C50_2 C 0.6516(7) 0.9025(8) 0.7639(3)
C51_2 C 0.6461(8) 0.8194(10) 0.7621(3)
H55_2 H 0.6714 0.7916 0.7456
C52_2 C 0.6036(8) 0.7796(9) 0.7846(3)
H56_2 H 0.6024 0.7241 0.7838
Cl3_3 Cl 0.10195(19) 0.15076(16) 0.34448(7)
N7_3 N 0.0677(6) 0.3150(6) 0.3804(2)
C27_3 C 0.0339(8) 0.3553(7) 0.4032(3)
C28_3 C 0.0761(8) 0.3995(7) 0.4249(3)
H30_3 H 0.0489 0.4271 0.4409
C29_3 C 0.1560(7) 0.4037(6) 0.4236(2)
C30_3 C 0.1914(7) 0.3619(7) 0.3997(3)
H31_3 H 0.2468 0.3615 0.3979
C31_3 C 0.1458(8) 0.3204(8) 0.3783(3)
H32_3 H 0.1714 0.2946 0.3614
C32_3 C 0.2039(8) 0.4497(8) 0.4465(3)
H33_3 H 0.2396 0.4846 0.4347
H34_3 H 0.1684 0.4832 0.4591
C33_3 C 0.2516(9) 0.4003(8) 0.4685(3)
H35_3 H 0.2848 0.364 0.4562
H36_3 H 0.2162 0.3685 0.4818
C34_3 C 0.3031(8) 0.4501(8) 0.4893(3)
H37_3 H 0.2702 0.4894 0.5002
H38_3 H 0.3413 0.4787 0.4761
C35_3 C 0.3532(8) 0.3153(7) 0.5588(3)
H39_3 H 0.3258 0.2859 0.5743
C36_3 C 0.3117(8) 0.3616(7) 0.5365(3)
H40_3 H 0.256 0.3640 0.5379
C37_3 C 0.3475(8) 0.4016(7) 0.5139(3)
C38_3 C 0.4306(10) 0.3961(8) 0.5121(3)
H41_3 H 0.4584 0.4214 0.4956
C39_3 C 0.4704(9) 0.3536(8) 0.5346(3)
H42_3 H 0.5259 0.3524 0.5338
H43_3 H 0.0215 0.1459 0.4049
H29_3 H 0.9785 0.3541 0.4049
Cl4_3 Cl 0.89805(19) 0.34924(16) 0.34448(7)
N9_3 N 0.9323(6) 0.1850(6) 0.3804(2)
C40_3 C 0.9661(8) 0.1447(7) 0.4032(3)
C41_3 C 0.9239(8) 0.1005(7) 0.4249(3)
H44_3 H 0.9511 0.0729 0.4409
C42_3 C 0.8440(7) 0.0963(6) 0.4236(2)
C43_3 C 0.8086(7) 0.1381(7) 0.3997(3)
H45_3 H 0.7532 0.1385 0.3979
C44_3 C 0.8542(8) 0.1796(8) 0.3783(3)
H46_3 H 0.8286 0.2054 0.3614
C45_3 C 0.7961(8) 0.0503(8) 0.4465(3)
H47_3 H 0.7604 0.0154 0.4347
H48_3 H 0.8316 0.0168 0.4591
C46_3 C 0.7484(9) 0.0997(8) 0.4685(3)
H49_3 H 0.7152 0.136 0.4562
H50_3 H 0.7838 0.1315 0.4818
C47_3 C 0.6969(8) 0.0499(8) 0.4893(3)
H51_3 H 0.7298 0.0106 0.5002
H52_3 H 0.6587 0.0213 0.4761
C48_3 C 0.6468(8) 0.1847(7) 0.5588(3)
H53_3 H 0.6742 0.2141 0.5743
C49_3 C 0.6883(8) 0.1384(7) 0.5365(3)
H54_3 H 0.744 0.1360 0.5379
C50_3 C 0.6525(8) 0.0984(7) 0.5139(3)
C51_3 C 0.5694(10) 0.1039(8) 0.5121(3)
H55_3 H 0.5416 0.0786 0.4956
C52_3 C 0.5296(9) 0.1464(8) 0.5346(3)
H56_3 H 0.4741 0.1476 0.5338
H56_4 H 0.0259 0.8524 0.0338
H37_4 H 0.2298 0.5106 0.0002
C35_4 C 0.1468(8) 0.6847(7) 0.0588(3)
H39_4 H 0.1742 0.7141 0.0743
C36_4 C 0.1883(8) 0.6384(7) 0.0365(3)
H40_4 H 0.244 0.6360 0.0379
C37_4 C 0.1525(8) 0.5984(7) 0.0139(3)
C38_4 C 0.0694(10) 0.6039(8) 0.0121(3)
C39_4 C 0.0296(9) 0.6464(8) 0.0346(3)
H51_4 H 0.7702 0.9894 0.0002
C48_4 C 0.8532(8) 0.8153(7) 0.0588(3)
H53_4 H 0.8258 0.7859 0.0743
C49_4 C 0.8117(8) 0.8616(7) 0.0365(3)
H54_4 H 0.756 0.8640 0.0379
C50_4 C 0.8475(8) 0.9016(7) 0.0139(3)
C51_4 C 0.9306(10) 0.8961(8) 0.0121(3)
C52_4 C 0.9704(9) 0.8536(8) 0.0346(3)
Cl3_4 Cl 0.39805(19) 0.84924(16) 0.84448(7)
N7_4 N 0.4323(6) 0.6850(6) 0.8804(2)
C27_4 C 0.4661(8) 0.6447(7) 0.9032(3)
H29_4 H 0.5215 0.6459 0.9049
C28_4 C 0.4239(8) 0.6005(7) 0.9249(3)
H30_4 H 0.4511 0.5729 0.9409
C29_4 C 0.3440(7) 0.5963(6) 0.9236(2)
C30_4 C 0.3086(7) 0.6381(7) 0.8997(3)
H31_4 H 0.2532 0.6385 0.8979
C31_4 C 0.3542(8) 0.6796(8) 0.8783(3)
H32_4 H 0.3286 0.7054 0.8614
C32_4 C 0.2961(8) 0.5503(8) 0.9465(3)
H33_4 H 0.2604 0.5154 0.9347
H34_4 H 0.3316 0.5168 0.9591
C33_4 C 0.2484(9) 0.5997(8) 0.9685(3)
H35_4 H 0.2152 0.636 0.9562
H36_4 H 0.2838 0.6315 0.9818
C34_4 C 0.1969(8) 0.5499(8) 0.9893(3)
H38_4 H 0.1587 0.5213 0.9761
H41_4 H 0.0416 0.5786 0.9956
Cl4_4 Cl 0.60195(19) 0.65076(16) 0.84448(7)
N9_4 N 0.5677(6) 0.8150(6) 0.8804(2)
C40_4 C 0.5339(8) 0.8553(7) 0.9032(3)
H43_4 H 0.4785 0.8541 0.9049
C41_4 C 0.5761(8) 0.8995(7) 0.9249(3)
H44_4 H 0.5489 0.9271 0.9409
C42_4 C 0.6560(7) 0.9037(6) 0.9236(2)
C43_4 C 0.6914(7) 0.8619(7) 0.8997(3)
H45_4 H 0.7468 0.8615 0.8979
C44_4 C 0.6458(8) 0.8204(8) 0.8783(3)
H46_4 H 0.6714 0.7946 0.8614
C45_4 C 0.7039(8) 0.9497(8) 0.9465(3)
H47_4 H 0.7396 0.9846 0.9347
H48_4 H 0.6684 0.9832 0.9591
C46_4 C 0.7516(9) 0.9003(8) 0.9685(3)
H49_4 H 0.7848 0.864 0.9562
H50_4 H 0.7162 0.8685 0.9818
C47_4 C 0.8031(8) 0.9501(8) 0.9893(3)
H52_4 H 0.8413 0.9787 0.9761
H55_4 H 0.9584 0.9214 0.9956
H42_4 H 0.9741 0.6476 0.0338
Fe4_4 Fe 0.00000 0.25000 0.90575(5)
Cl3_5 Cl 0.09924(16) 0.35195(19) 0.90552(7)
Fe5_2 Fe 0.00000 0.75000 0.65575(5)
N9_5 N 0.0650(6) 0.1823(6) 0.8696(2)
C40_5 C 0.1053(7) 0.2161(8) 0.8468(3)
H43_5 H 0.1041 0.2715 0.8451
C41_5 C 0.1495(7) 0.1739(8) 0.8251(3)
H44_5 H 0.1771 0.2011 0.8091
C42_5 C 0.1537(6) 0.0940(7) 0.8264(2)
C43_5 C 0.1119(7) 0.0586(7) 0.8503(3)
H45_5 H 0.1115 0.0032 0.8521
C44_5 C 0.0704(8) 0.1042(8) 0.8717(3)
H46_5 H 0.0446 0.0786 0.8886
C45_5 C 0.1997(8) 0.0461(8) 0.8035(3)
H47_5 H 0.2346 0.0104 0.8153
H48_5 H 0.2332 0.0816 0.7909
H50_5 H 0.1185 0.0338 0.7682
N12_3 N 0.0660(6) 0.1859(6) 0.9424(2)
C46_5 C 0.1503(8) 0.9984(9) 0.7815(3)
H49_5 H 0.114 0.9652 0.7938
C47_5 C 0.2001(8) 0.9469(8) 0.7607(3)
H51_5 H 0.2394 0.9798 0.7498
H52_5 H 0.2287 0.9087 0.7739
N10_3 N 0.0641(6) 0.8160(6) 0.6924(2)
C48_5 C 0.0653(7) 0.8968(8) 0.6912(3)
H53_5 H 0.0359 0.9242 0.6757
C49_5 C 0.1116(7) 0.9383(8) 0.7135(3)
H54_5 H 0.1140 0.994 0.7121
C50_5 C 0.1516(7) 0.9025(8) 0.7361(3)
C51_5 C 0.1461(8) 0.8194(10) 0.7379(3)
H55_5 H 0.1714 0.7916 0.7544
C52_5 C 0.1036(8) 0.7796(9) 0.7154(3)
H56_5 H 0.1024 0.7241 0.7162
Fe4_5 Fe 1.00000 0.25000 0.90575(5)
N7_5 N 0.9350(6) 0.3177(6) 0.8696(2)
C27_5 C 0.8947(7) 0.2839(8) 0.8468(3)
H29_5 H 0.8959 0.2285 0.8451
C28_5 C 0.8505(7) 0.3261(8) 0.8251(3)
H30_5 H 0.8229 0.2989 0.8091
C29_5 C 0.8463(6) 0.4060(7) 0.8264(2)
C30_5 C 0.8881(7) 0.4414(7) 0.8503(3)
H31_5 H 0.8885 0.4968 0.8521
C31_5 C 0.9296(8) 0.3958(8) 0.8717(3)
H32_5 H 0.9554 0.4214 0.8886
C32_5 C 0.8003(8) 0.4539(8) 0.8035(3)
H33_5 H 0.7654 0.4896 0.8153
H34_5 H 0.7668 0.4184 0.7909
C33_5 C 0.8497(8) 0.5016(9) 0.7815(3)
H35_5 H 0.886 0.5348 0.7938
H36_5 H 0.8815 0.4662 0.7682
C34_5 C 0.7999(8) 0.5531(8) 0.7607(3)
H37_5 H 0.7606 0.5202 0.7498
H38_5 H 0.7713 0.5913 0.7739
N8_3 N 0.9359(6) 0.6840(6) 0.6924(2)
C35_5 C 0.9347(7) 0.6032(8) 0.6912(3)
H39_5 H 0.9641 0.5758 0.6757
C36_5 C 0.8884(7) 0.5617(8) 0.7135(3)
H40_5 H 0.8860 0.506 0.7121
C37_5 C 0.8484(7) 0.5975(8) 0.7361(3)
C38_5 C 0.8539(8) 0.6806(10) 0.7379(3)
H41_5 H 0.8286 0.7084 0.7544
C39_5 C 0.8964(8) 0.7204(9) 0.7154(3)
H42_5 H 0.8976 0.7759 0.7162
Fe5_3 Fe 1.00000 0.75000 0.65575(5)
Cl4_5 Cl 0.90076(16) 0.14805(19) 0.90552(7)
N11_3 N 0.9340(6) 0.3141(6) 0.9424(2)
Fe6_3 Fe 0.50000 0.25000 0.15575(5)
C46_6 C 0.3497(8) 0.0016(9) 0.2815(3)
H49_6 H 0.386 0.0348 0.2938
C47_6 C 0.2999(8) 0.0531(8) 0.2607(3)
H51_6 H 0.2606 0.0202 0.2498
H52_6 H 0.2713 0.0913 0.2739
N10_4 N 0.4359(6) 0.1840(6) 0.1924(2)
C48_6 C 0.4347(7) 0.1032(8) 0.1912(3)
H53_6 H 0.4641 0.0758 0.1757
C49_6 C 0.3884(7) 0.0617(8) 0.2135(3)
H54_6 H 0.3860 0.006 0.2121
C50_6 C 0.3484(7) 0.0975(8) 0.2361(3)
C51_6 C 0.3539(8) 0.1806(10) 0.2379(3)
H55_6 H 0.3286 0.2084 0.2544
C52_6 C 0.3964(8) 0.2204(9) 0.2154(3)
H56_6 H 0.3976 0.2759 0.2162
Fe4_6 Fe 0.50000 0.75000 0.40575(5)
Cl3_6 Cl 0.40076(16) 0.64805(19) 0.40552(7)
N7_6 N 0.5650(6) 0.6823(6) 0.3696(2)
C27_6 C 0.6053(7) 0.7161(8) 0.3468(3)
H29_6 H 0.6041 0.7715 0.3451
C28_6 C 0.6495(7) 0.6739(8) 0.3251(3)
H30_6 H 0.6771 0.7011 0.3091
C29_6 C 0.6537(6) 0.5940(7) 0.3264(2)
C30_6 C 0.6119(7) 0.5586(7) 0.3503(3)
H31_6 H 0.6115 0.5032 0.3521
C31_6 C 0.5704(8) 0.6042(8) 0.3717(3)
H32_6 H 0.5446 0.5786 0.3886
C32_6 C 0.6997(8) 0.5461(8) 0.3035(3)
H33_6 H 0.7346 0.5104 0.3153
H34_6 H 0.7332 0.5816 0.2909
C33_6 C 0.6503(8) 0.4984(9) 0.2815(3)
H35_6 H 0.614 0.4652 0.2938
H36_6 H 0.6185 0.5338 0.2682
C34_6 C 0.7001(8) 0.4469(8) 0.2607(3)
H37_6 H 0.7394 0.4798 0.2498
H38_6 H 0.7287 0.4087 0.2739
N8_4 N 0.5641(6) 0.3160(6) 0.1924(2)
C35_6 C 0.5653(7) 0.3968(8) 0.1912(3)
H39_6 H 0.5359 0.4242 0.1757
C36_6 C 0.6116(7) 0.4383(8) 0.2135(3)
H40_6 H 0.6140 0.494 0.2121
C37_6 C 0.6516(7) 0.4025(8) 0.2361(3)
C38_6 C 0.6461(8) 0.3194(10) 0.2379(3)
H41_6 H 0.6714 0.2916 0.2544
C39_6 C 0.6036(8) 0.2796(9) 0.2154(3)
H42_6 H 0.6024 0.2241 0.2162
Cl4_6 Cl 0.59924(16) 0.85195(19) 0.40552(7)
N9_6 N 0.4350(6) 0.8177(6) 0.3696(2)
C40_6 C 0.3947(7) 0.7839(8) 0.3468(3)
H43_6 H 0.3959 0.7285 0.3451
C41_6 C 0.3505(7) 0.8261(8) 0.3251(3)
H44_6 H 0.3229 0.7989 0.3091
C42_6 C 0.3463(6) 0.9060(7) 0.3264(2)
C43_6 C 0.3881(7) 0.9414(7) 0.3503(3)
H45_6 H 0.3885 0.9968 0.3521
C44_6 C 0.4296(8) 0.8958(8) 0.3717(3)
H46_6 H 0.4554 0.9214 0.3886
C45_6 C 0.3003(8) 0.9539(8) 0.3035(3)
H47_6 H 0.2654 0.9896 0.3153
H48_6 H 0.2668 0.9184 0.2909
H50_6 H 0.3815 0.9662 0.2682
N11_4 N 0.5660(6) 0.6859(6) 0.4424(2)
N12_4 N 0.4340(6) 0.8141(6) 0.4424(2)
H29_7 H 0.0215 0.6459 0.5951
Cl4_7 Cl 0.10195(19) 0.65076(16) 0.65552(7)
N9_7 N 0.0677(6) 0.8150(6) 0.6196(2)
C40_7 C 0.0339(8) 0.8553(7) 0.5968(3)
C41_7 C 0.0761(8) 0.8995(7) 0.5751(3)
H44_7 H 0.0489 0.9271 0.5591
C42_7 C 0.1560(7) 0.9037(6) 0.5764(2)
C43_7 C 0.1914(7) 0.8619(7) 0.6003(3)
H45_7 H 0.2468 0.8615 0.6021
C44_7 C 0.1458(8) 0.8204(8) 0.6217(3)
H46_7 H 0.1714 0.7946 0.6386
C45_7 C 0.2039(8) 0.9497(8) 0.5535(3)
H47_7 H 0.2396 0.9846 0.5653
H48_7 H 0.1684 0.9832 0.5409
C46_7 C 0.2516(9) 0.9003(8) 0.5315(3)
H49_7 H 0.2848 0.864 0.5438
H50_7 H 0.2162 0.8685 0.5182
C47_7 C 0.3031(8) 0.9501(8) 0.5107(3)
H51_7 H 0.2702 0.9894 0.4998
H52_7 H 0.3413 0.9787 0.5239
C48_7 C 0.3532(8) 0.8153(7) 0.4412(3)
H53_7 H 0.3258 0.7859 0.4257
C49_7 C 0.3117(8) 0.8616(7) 0.4635(3)
H54_7 H 0.256 0.8640 0.4621
C50_7 C 0.3475(8) 0.9016(7) 0.4861(3)
C51_7 C 0.4306(10) 0.8961(8) 0.4879(3)
H55_7 H 0.4584 0.9214 0.5044
C52_7 C 0.4704(9) 0.8536(8) 0.4654(3)
H56_7 H 0.5259 0.8524 0.4662
Cl3_7 Cl 0.89805(19) 0.84924(16) 0.65552(7)
N7_7 N 0.9323(6) 0.6850(6) 0.6196(2)
C27_7 C 0.9661(8) 0.6447(7) 0.5968(3)
C28_7 C 0.9239(8) 0.6005(7) 0.5751(3)
H30_7 H 0.9511 0.5729 0.5591
C29_7 C 0.8440(7) 0.5963(6) 0.5764(2)
C30_7 C 0.8086(7) 0.6381(7) 0.6003(3)
H31_7 H 0.7532 0.6385 0.6021
C31_7 C 0.8542(8) 0.6796(8) 0.6217(3)
H32_7 H 0.8286 0.7054 0.6386
C32_7 C 0.7961(8) 0.5503(8) 0.5535(3)
H33_7 H 0.7604 0.5154 0.5653
H34_7 H 0.8316 0.5168 0.5409
C33_7 C 0.7484(9) 0.5997(8) 0.5315(3)
H35_7 H 0.7152 0.636 0.5438
H36_7 H 0.7838 0.6315 0.5182
C34_7 C 0.6969(8) 0.5499(8) 0.5107(3)
H37_7 H 0.7298 0.5106 0.4998
H38_7 H 0.6587 0.5213 0.5239
C35_7 C 0.6468(8) 0.6847(7) 0.4412(3)
H39_7 H 0.6742 0.7141 0.4257
C36_7 C 0.6883(8) 0.6384(7) 0.4635(3)
H40_7 H 0.744 0.6360 0.4621
C37_7 C 0.6525(8) 0.5984(7) 0.4861(3)
C38_7 C 0.5694(10) 0.6039(8) 0.4879(3)
H41_7 H 0.5416 0.5786 0.5044
C39_7 C 0.5296(9) 0.6464(8) 0.4654(3)
H42_7 H 0.4741 0.6476 0.4662
H43_7 H 0.9785 0.8541 0.5951
H42_8 H 0.0259 0.3524 0.9662
Cl3_8 Cl 0.60195(19) 0.15076(16) 0.15552(7)
N7_8 N 0.5677(6) 0.3150(6) 0.1196(2)
C27_8 C 0.5339(8) 0.3553(7) 0.0968(3)
H29_8 H 0.4785 0.3541 0.0951
C28_8 C 0.5761(8) 0.3995(7) 0.0751(3)
H30_8 H 0.5489 0.4271 0.0591
C29_8 C 0.6560(7) 0.4037(6) 0.0764(2)
C30_8 C 0.6914(7) 0.3619(7) 0.1003(3)
H31_8 H 0.7468 0.3615 0.1021
C31_8 C 0.6458(8) 0.3204(8) 0.1217(3)
H32_8 H 0.6714 0.2946 0.1386
C32_8 C 0.7039(8) 0.4497(8) 0.0535(3)
H33_8 H 0.7396 0.4846 0.0653
H34_8 H 0.6684 0.4832 0.0409
C33_8 C 0.7516(9) 0.4003(8) 0.0315(3)
H35_8 H 0.7848 0.364 0.0438
H36_8 H 0.7162 0.3685 0.0182
C34_8 C 0.8031(8) 0.4501(8) 0.0107(3)
H38_8 H 0.8413 0.4787 0.0239
H41_8 H 0.9584 0.4214 0.0044
Cl4_8 Cl 0.39805(19) 0.34924(16) 0.15552(7)
N9_8 N 0.4323(6) 0.1850(6) 0.1196(2)
C40_8 C 0.4661(8) 0.1447(7) 0.0968(3)
H43_8 H 0.5215 0.1459 0.0951
C41_8 C 0.4239(8) 0.1005(7) 0.0751(3)
H44_8 H 0.4511 0.0729 0.0591
C42_8 C 0.3440(7) 0.0963(6) 0.0764(2)
C43_8 C 0.3086(7) 0.1381(7) 0.1003(3)
H45_8 H 0.2532 0.1385 0.1021
C44_8 C 0.3542(8) 0.1796(8) 0.1217(3)
H46_8 H 0.3286 0.2054 0.1386
C45_8 C 0.2961(8) 0.0503(8) 0.0535(3)
H47_8 H 0.2604 0.0154 0.0653
H48_8 H 0.3316 0.0168 0.0409
C46_8 C 0.2484(9) 0.0997(8) 0.0315(3)
H49_8 H 0.2152 0.136 0.0438
H50_8 H 0.2838 0.1315 0.0182
C47_8 C 0.1969(8) 0.0499(8) 0.0107(3)
H52_8 H 0.1587 0.0213 0.0239
H55_8 H 0.0416 0.0786 0.0044
H37_8 H 0.7702 0.4894 0.9998
C35_8 C 0.8532(8) 0.3153(7) 0.9412(3)
H39_8 H 0.8258 0.2859 0.9257
C36_8 C 0.8117(8) 0.3616(7) 0.9635(3)
H40_8 H 0.756 0.3640 0.9621
C37_8 C 0.8475(8) 0.4016(7) 0.9861(3)
C38_8 C 0.9306(10) 0.3961(8) 0.9879(3)
C39_8 C 0.9704(9) 0.3536(8) 0.9654(3)
H51_8 H 0.2298 0.0106 0.9998
C48_8 C 0.1468(8) 0.1847(7) 0.9412(3)
H53_8 H 0.1742 0.2141 0.9257
C49_8 C 0.1883(8) 0.1384(7) 0.9635(3)
H54_8 H 0.244 0.1360 0.9621
C50_8 C 0.1525(8) 0.0984(7) 0.9861(3)
C51_8 C 0.0694(10) 0.1039(8) 0.9879(3)
C52_8 C 0.0296(9) 0.1464(8) 0.9654(3)
H56_8 H 0.9741 0.1476 0.9662
loop_
_geom_bond_atom_site_label_1
_geom_bond_atom_site_label_2
_geom_bond_site_symmetry_1
_geom_bond_site_symmetry_2
Fe1 Cl1 1_555 1_555
N1 Fe1 1_555 1_555
C1 N1 1_555 1_555
H1 C1 1_555 1_555
C2 C1 1_555 1_555
H2 C2 1_555 1_555
C3 C2 1_555 1_555
C4 C3 1_555 1_555
H3 C4 1_555 1_555
C5 N1 1_555 1_555
H4 C5 1_555 1_555
C6 C3 1_555 1_555
H5 C6 1_555 1_555
H6 C6 1_555 1_555
C7 C6 1_555 1_555
H7 C7 1_555 1_555
H8 C7 1_555 1_555
C8 C7 1_555 1_555
H9 C8 1_555 1_555
H10 C8 1_555 1_555
N2 C9 1_555 1_555
C9 H11 1_555 1_555
C10 C9 1_555 1_555
H12 C10 1_555 1_555
C11 C8 1_555 1_555
C12 C11 1_555 1_555
H13 C12 1_555 1_555
C13 N2 1_555 1_555
Fe3 N4 1_555 1_555
Fe3_2 N2 1_555 1_555
Cl2 Fe1 1_555 1_555
N3 Fe1 1_555 1_555
C14 N3 1_555 1_555
H15 C14 1_555 1_555
C15 C14 1_555 1_555
H16 C15 1_555 1_555
C16 C15 1_555 1_555
C17 C16 1_555 1_555
H17 C17 1_555 1_555
C18 N3 1_555 1_555
H18 C18 1_555 1_555
C19 C16 1_555 1_555
H19 C19 1_555 1_555
H20 C19 1_555 1_555
C20 C19 1_555 1_555
H21 C20 1_555 1_555
H22 C20 1_555 1_555
C21 C20 1_555 1_555
H23 C21 1_555 1_555
H24 C21 1_555 1_555
N4 C22 1_555 1_555
C22 H25 1_555 1_555
C23 C22 1_555 1_555
H26 C23 1_555 1_555
C24 C21 1_555 1_555
C25 C24 1_555 1_555
H27 C25 1_555 1_555
C26 N4 1_555 1_555
C4 C5 1_555 1_555
C10 C11 1_555 1_555
C12 C13 1_555 1_555
C17 C18 1_555 1_555
C23 C24 1_555 1_555
C25 C26 1_555 1_555
Fe1_2 Cl1_2 1_555 1_555
Fe2 N4_2 1_555 1_555
N3_2 Fe1_2 1_555 1_555
C14_2 N3_2 1_555 1_555
C15_2 C14_2 1_555 1_555
H16_2 C15_2 1_555 1_555
C16_2 C15_2 1_555 1_555
C17_2 C16_2 1_555 1_555
H17_2 C17_2 1_555 1_555
C18_2 N3_2 1_555 1_555
H18_2 C18_2 1_555 1_555
C19_2 C16_2 1_555 1_555
H19_2 C19_2 1_555 1_555
H20_2 C19_2 1_555 1_555
C20_2 C19_2 1_555 1_555
H21_2 C20_2 1_555 1_555
H22_2 C20_2 1_555 1_555
C21_2 C20_2 1_555 1_555
H23_2 C21_2 1_555 1_555
H24_2 C21_2 1_555 1_555
N4_2 C22_2 1_555 1_555
N5_2 Fe1_2 1_555 1_555
C22_2 H25_2 1_555 1_555
C23_2 C22_2 1_555 1_555
H26_2 C23_2 1_555 1_555
C24_2 C21_2 1_555 1_555
C25_2 C24_2 1_555 1_555
H27_2 C25_2 1_555 1_555
C26_2 N4_2 1_555 1_555
H28_2 C26_2 1_555 1_555
C17_2 C18_2 1_555 1_555
C23_2 C24_2 1_555 1_555
C25_2 C26_2 1_555 1_555
N1_2 Fe1_3 1_555 1_555
C1_2 N1_2 1_555 1_555
C2_2 C1_2 1_555 1_555
H2_2 C2_2 1_555 1_555
C3_2 C2_2 1_555 1_555
C4_2 C3_2 1_555 1_555
H3_2 C4_2 1_555 1_555
C5_2 N1_2 1_555 1_555
H4_2 C5_2 1_555 1_555
C6_2 C3_2 1_555 1_555
H5_2 C6_2 1_555 1_555
H6_2 C6_2 1_555 1_555
C7_2 C6_2 1_555 1_555
H7_2 C7_2 1_555 1_555
H8_2 C7_2 1_555 1_555
C8_2 C7_2 1_555 1_555
H9_2 C8_2 1_555 1_555
H10_2 C8_2 1_555 1_555
N2_2 C9_2 1_555 1_555
C9_2 H11_2 1_555 1_555
C10_2 C9_2 1_555 1_555
H12_2 C10_2 1_555 1_555
C11_2 C8_2 1_555 1_555
C12_2 C11_2 1_555 1_555
H13_2 C12_2 1_555 1_555
C13_2 N2_2 1_555 1_555
H14_2 C13_2 1_555 1_555
Fe2 N2_2 1_555 1_555
Cl2_2 Fe1_3 1_555 1_555
N6_2 Fe1_3 1_555 1_555
C4_2 C5_2 1_555 1_555
C10_2 C11_2 1_555 1_555
C12_2 C13_2 1_555 1_555
H7_3 C7_3 1_555 1_555
C8_3 C7_3 1_555 1_555
H9_3 C8_3 1_555 1_555
H10_3 C8_3 1_555 1_555
N5_2 C9_3 1_555 1_555
C9_3 H11_3 1_555 1_555
C10_3 C9_3 1_555 1_555
H12_3 C10_3 1_555 1_555
C11_3 C8_3 1_555 1_555
C12_3 C11_3 1_555 1_555
H13_3 C12_3 1_555 1_555
C13_3 N5_2 1_555 1_555
H14_3 C13_3 1_555 1_555
C10_3 C11_3 1_555 1_555
C12_3 C13_3 1_555 1_555
Fe3 Cl1_3 1_555 1_555
N1_3 Fe3 1_555 1_555
C1_3 N1_3 1_555 1_555
H1_3 C1_3 1_555 1_555
C2_3 C1_3 1_555 1_555
H2_3 C2_3 1_555 1_555
C3_3 C2_3 1_555 1_555
C4_3 C3_3 1_555 1_555
H3_3 C4_3 1_555 1_555
C5_3 N1_3 1_555 1_555
H4_3 C5_3 1_555 1_555
C6_3 C3_3 1_555 1_555
H5_3 C6_3 1_555 1_555
H6_3 C6_3 1_555 1_555
C4_3 C5_3 1_555 1_555
Cl2_3 Fe3_2 1_555 1_555
N3_3 Fe3_2 1_555 1_555
C14_3 N3_3 1_555 1_555
H15_3 C14_3 1_555 1_555
C15_3 C14_3 1_555 1_555
H16_3 C15_3 1_555 1_555
C16_3 C15_3 1_555 1_555
C17_3 C16_3 1_555 1_555
H17_3 C17_3 1_555 1_555
C18_3 N3_3 1_555 1_555
H18_3 C18_3 1_555 1_555
C19_3 C16_3 1_555 1_555
H19_3 C19_3 1_555 1_555
H20_3 C19_3 1_555 1_555
C20_3 C19_3 1_555 1_555
H21_3 C20_3 1_555 1_555
H22_3 C20_3 1_555 1_555
C21_3 C20_3 1_555 1_555
H23_3 C21_3 1_555 1_555
H24_3 C21_3 1_555 1_555
N6_2 C22_3 1_555 1_555
C22_3 H25_3 1_555 1_555
C23_3 C22_3 1_555 1_555
H26_3 C23_3 1_555 1_555
C24_3 C21_3 1_555 1_555
C25_3 C24_3 1_555 1_555
H27_3 C25_3 1_555 1_555
C26_3 N6_2 1_555 1_555
H28_3 C26_3 1_555 1_555
C17_3 C18_3 1_555 1_555
C23_3 C24_3 1_555 1_555
C25_3 C26_3 1_555 1_555
Fe2 Cl1_4 1_555 1_555
N1_4 Fe2 1_555 1_555
C1_4 N1_4 1_555 1_555
H1_4 C1_4 1_555 1_555
C2_4 C1_4 1_555 1_555
H2_4 C2_4 1_555 1_555
C3_4 C2_4 1_555 1_555
C4_4 C3_4 1_555 1_555
H3_4 C4_4 1_555 1_555
C5_4 N1_4 1_555 1_555
H4_4 C5_4 1_555 1_555
C6_4 C3_4 1_555 1_555
H5_4 C6_4 1_555 1_555
H6_4 C6_4 1_555 1_555
Cl2_4 Fe2 1_555 1_555
N3_4 Fe2 1_555 1_555
C14_4 N3_4 1_555 1_555
H15_4 C14_4 1_555 1_555
C15_4 C14_4 1_555 1_555
H16_4 C15_4 1_555 1_555
C16_4 C15_4 1_555 1_555
C17_4 C16_4 1_555 1_555
H17_4 C17_4 1_555 1_555
C18_4 N3_4 1_555 1_555
H18_4 C18_4 1_555 1_555
C19_4 C16_4 1_555 1_555
H19_4 C19_4 1_555 1_555
H20_4 C19_4 1_555 1_555
C20_4 C19_4 1_555 1_555
H21_4 C20_4 1_555 1_555
H22_4 C20_4 1_555 1_555
C21_4 C20_4 1_555 1_555
H23_4 C21_4 1_555 1_555
H24_4 C21_4 1_555 1_555
N6 C22_4 1_555 1_555
C23_4 C22_4 1_555 1_555
H26_4 C23_4 1_555 1_555
C24_4 C21_4 1_555 1_555
C25_4 C24_4 1_555 1_555
H27_4 C25_4 1_555 1_555
C26_4 N6 1_555 1_555
H28_4 C26_4 1_555 1_555
C4_4 C5_4 1_555 1_555
C17_4 C18_4 1_555 1_555
C23_4 C24_4 1_555 1_555
C25_4 C26_4 1_555 1_555
H7_4 C7_4 1_555 1_555
C8_4 C7_4 1_555 1_555
H9_4 C8_4 1_555 1_555
H10_4 C8_4 1_555 1_555
N5 C9_4 1_555 1_555
C10_4 C9_4 1_555 1_555
H12_4 C10_4 1_555 1_555
C11_4 C8_4 1_555 1_555
C12_4 C11_4 1_555 1_555
H13_4 C12_4 1_555 1_555
C13_4 N5 1_555 1_555
H14_4 C13_4 1_555 1_555
C10_4 C11_4 1_555 1_555
C12_4 C13_4 1_555 1_555
Fe1_4 Cl1_5 1_555 1_555
N1_5 Fe1_4 1_555 1_555
C1_5 N1_5 1_555 1_555
H1_5 C1_5 1_555 1_555
C2_5 C1_5 1_555 1_555
H2_5 C2_5 1_555 1_555
C3_5 C2_5 1_555 1_555
C4_5 C3_5 1_555 1_555
H3_5 C4_5 1_555 1_555
C5_5 N1_5 1_555 1_555
H4_5 C5_5 1_555 1_555
C6_5 C3_5 1_555 1_555
H5_5 C6_5 1_555 1_555
H6_5 C6_5 1_555 1_555
C7_5 C6_5 1_555 1_555
H7_5 C7_5 1_555 1_555
H8_5 C7_5 1_555 1_555
C8_5 C7_5 1_555 1_555
H9_5 C8_5 1_555 1_555
H10_5 C8_5 1_555 1_555
N2_3 C9_5 1_555 1_555
C9_5 H11_5 1_555 1_555
C10_5 C9_5 1_555 1_555
H12_5 C10_5 1_555 1_555
C11_5 C8_5 1_555 1_555
C12_5 C11_5 1_555 1_555
H13_5 C12_5 1_555 1_555
C13_5 N2_3 1_555 1_555
Fe2_3 N4_3 1_555 1_555
Fe2_2 N2_3 1_555 1_555
Cl2_5 Fe1_4 1_555 1_555
N3_5 Fe1_4 1_555 1_555
C14_5 N3_5 1_555 1_555
H15_5 C14_5 1_555 1_555
C15_5 C14_5 1_555 1_555
H16_5 C15_5 1_555 1_555
C16_5 C15_5 1_555 1_555
C17_5 C16_5 1_555 1_555
H17_5 C17_5 1_555 1_555
C18_5 N3_5 1_555 1_555
H18_5 C18_5 1_555 1_555
C19_5 C16_5 1_555 1_555
H19_5 C19_5 1_555 1_555
H20_5 C19_5 1_555 1_555
C20_5 C19_5 1_555 1_555
H21_5 C20_5 1_555 1_555
H22_5 C20_5 1_555 1_555
C21_5 C20_5 1_555 1_555
H23_5 C21_5 1_555 1_555
H24_5 C21_5 1_555 1_555
N4_3 C22_5 1_555 1_555
C22_5 H25_5 1_555 1_555
C23_5 C22_5 1_555 1_555
H26_5 C23_5 1_555 1_555
C24_5 C21_5 1_555 1_555
C25_5 C24_5 1_555 1_555
H27_5 C25_5 1_555 1_555
C26_5 N4_3 1_555 1_555
C4_5 C5_5 1_555 1_555
C10_5 C11_5 1_555 1_555
C12_5 C13_5 1_555 1_555
C17_5 C18_5 1_555 1_555
C23_5 C24_5 1_555 1_555
C25_5 C26_5 1_555 1_555
N1_6 Fe1_5 1_555 1_555
C1_6 N1_6 1_555 1_555
C2_6 C1_6 1_555 1_555
H2_6 C2_6 1_555 1_555
C3_6 C2_6 1_555 1_555
C4_6 C3_6 1_555 1_555
H3_6 C4_6 1_555 1_555
C5_6 N1_6 1_555 1_555
H4_6 C5_6 1_555 1_555
C6_6 C3_6 1_555 1_555
H5_6 C6_6 1_555 1_555
H6_6 C6_6 1_555 1_555
C7_6 C6_6 1_555 1_555
H7_6 C7_6 1_555 1_555
H8_6 C7_6 1_555 1_555
C8_6 C7_6 1_555 1_555
H9_6 C8_6 1_555 1_555
H10_6 C8_6 1_555 1_555
N2_4 C9_6 1_555 1_555
C9_6 H11_6 1_555 1_555
C10_6 C9_6 1_555 1_555
H12_6 C10_6 1_555 1_555
C11_6 C8_6 1_555 1_555
C12_6 C11_6 1_555 1_555
H13_6 C12_6 1_555 1_555
C13_6 N2_4 1_555 1_555
H14_6 C13_6 1_555 1_555
Fe3_3 N2_4 1_555 1_555
Cl2_6 Fe1_5 1_555 1_555
N6_4 Fe1_5 1_555 1_555
C4_6 C5_6 1_555 1_555
C10_6 C11_6 1_555 1_555
C12_6 C13_6 1_555 1_555
Fe1_6 Cl1_6 1_555 1_555
Fe3_3 N4_4 1_555 1_555
N3_6 Fe1_6 1_555 1_555
C14_6 N3_6 1_555 1_555
C15_6 C14_6 1_555 1_555
H16_6 C15_6 1_555 1_555
C16_6 C15_6 1_555 1_555
C17_6 C16_6 1_555 1_555
H17_6 C17_6 1_555 1_555
C18_6 N3_6 1_555 1_555
H18_6 C18_6 1_555 1_555
C19_6 C16_6 1_555 1_555
H19_6 C19_6 1_555 1_555
H20_6 C19_6 1_555 1_555
C20_6 C19_6 1_555 1_555
H21_6 C20_6 1_555 1_555
H22_6 C20_6 1_555 1_555
C21_6 C20_6 1_555 1_555
H23_6 C21_6 1_555 1_555
H24_6 C21_6 1_555 1_555
N4_4 C22_6 1_555 1_555
N5_4 Fe1_6 1_555 1_555
C22_6 H25_6 1_555 1_555
C23_6 C22_6 1_555 1_555
H26_6 C23_6 1_555 1_555
C24_6 C21_6 1_555 1_555
C25_6 C24_6 1_555 1_555
H27_6 C25_6 1_555 1_555
C26_6 N4_4 1_555 1_555
H28_6 C26_6 1_555 1_555
C17_6 C18_6 1_555 1_555
C23_6 C24_6 1_555 1_555
C25_6 C26_6 1_555 1_555
Cl2_7 Fe2_2 1_555 1_555
N3_7 Fe2_2 1_555 1_555
C14_7 N3_7 1_555 1_555
H15_7 C14_7 1_555 1_555
C15_7 C14_7 1_555 1_555
H16_7 C15_7 1_555 1_555
C16_7 C15_7 1_555 1_555
C17_7 C16_7 1_555 1_555
H17_7 C17_7 1_555 1_555
C18_7 N3_7 1_555 1_555
H18_7 C18_7 1_555 1_555
C19_7 C16_7 1_555 1_555
H19_7 C19_7 1_555 1_555
H20_7 C19_7 1_555 1_555
C20_7 C19_7 1_555 1_555
H21_7 C20_7 1_555 1_555
H22_7 C20_7 1_555 1_555
C21_7 C20_7 1_555 1_555
H23_7 C21_7 1_555 1_555
H24_7 C21_7 1_555 1_555
N6_4 C22_7 1_555 1_555
C22_7 H25_7 1_555 1_555
C23_7 C22_7 1_555 1_555
H26_7 C23_7 1_555 1_555
C24_7 C21_7 1_555 1_555
C25_7 C24_7 1_555 1_555
H27_7 C25_7 1_555 1_555
C26_7 N6_4 1_555 1_555
H28_7 C26_7 1_555 1_555
C17_7 C18_7 1_555 1_555
C23_7 C24_7 1_555 1_555
C25_7 C26_7 1_555 1_555
Fe2_3 Cl1_7 1_555 1_555
N1_7 Fe2_3 1_555 1_555
C1_7 N1_7 1_555 1_555
H1_7 C1_7 1_555 1_555
C2_7 C1_7 1_555 1_555
H2_7 C2_7 1_555 1_555
C3_7 C2_7 1_555 1_555
C4_7 C3_7 1_555 1_555
H3_7 C4_7 1_555 1_555
C5_7 N1_7 1_555 1_555
H4_7 C5_7 1_555 1_555
C6_7 C3_7 1_555 1_555
H5_7 C6_7 1_555 1_555
H6_7 C6_7 1_555 1_555
C4_7 C5_7 1_555 1_555
H7_7 C7_7 1_555 1_555
C8_7 C7_7 1_555 1_555
H9_7 C8_7 1_555 1_555
H10_7 C8_7 1_555 1_555
N5_4 C9_7 1_555 1_555
C9_7 H11_7 1_555 1_555
C10_7 C9_7 1_555 1_555
H12_7 C10_7 1_555 1_555
C11_7 C8_7 1_555 1_555
C12_7 C11_7 1_555 1_555
H13_7 C12_7 1_555 1_555
C13_7 N5_4 1_555 1_555
H14_7 C13_7 1_555 1_555
C10_7 C11_7 1_555 1_555
C12_7 C13_7 1_555 1_555
H7_8 C7_8 1_555 1_555
C8_8 C7_8 1_555 1_555
H9_8 C8_8 1_555 1_555
H10_8 C8_8 1_555 1_555
N5_3 C9_8 1_555 1_555
C10_8 C9_8 1_555 1_555
H12_8 C10_8 1_555 1_555
C11_8 C8_8 1_555 1_555
C12_8 C11_8 1_555 1_555
H13_8 C12_8 1_555 1_555
C13_8 N5_3 1_555 1_555
H14_8 C13_8 1_555 1_555
C10_8 C11_8 1_555 1_555
C12_8 C13_8 1_555 1_555
Fe3_3 Cl1_8 1_555 1_555
N1_8 Fe3_3 1_555 1_555
C1_8 N1_8 1_555 1_555
H1_8 C1_8 1_555 1_555
C2_8 C1_8 1_555 1_555
H2_8 C2_8 1_555 1_555
C3_8 C2_8 1_555 1_555
C4_8 C3_8 1_555 1_555
H3_8 C4_8 1_555 1_555
C5_8 N1_8 1_555 1_555
H4_8 C5_8 1_555 1_555
C6_8 C3_8 1_555 1_555
H5_8 C6_8 1_555 1_555
H6_8 C6_8 1_555 1_555
Cl2_8 Fe3_3 1_555 1_555
N3_8 Fe3_3 1_555 1_555
C14_8 N3_8 1_555 1_555
H15_8 C14_8 1_555 1_555
C15_8 C14_8 1_555 1_555
H16_8 C15_8 1_555 1_555
C16_8 C15_8 1_555 1_555
C17_8 C16_8 1_555 1_555
H17_8 C17_8 1_555 1_555
C18_8 N3_8 1_555 1_555
H18_8 C18_8 1_555 1_555
C19_8 C16_8 1_555 1_555
H19_8 C19_8 1_555 1_555
H20_8 C19_8 1_555 1_555
C20_8 C19_8 1_555 1_555
H21_8 C20_8 1_555 1_555
H22_8 C20_8 1_555 1_555
C21_8 C20_8 1_555 1_555
H23_8 C21_8 1_555 1_555
H24_8 C21_8 1_555 1_555
N6_3 C22_8 1_555 1_555
C23_8 C22_8 1_555 1_555
H26_8 C23_8 1_555 1_555
C24_8 C21_8 1_555 1_555
C25_8 C24_8 1_555 1_555
H27_8 C25_8 1_555 1_555
C26_8 N6_3 1_555 1_555
H28_8 C26_8 1_555 1_555
C4_8 C5_8 1_555 1_555
C17_8 C18_8 1_555 1_555
C23_8 C24_8 1_555 1_555
C25_8 C26_8 1_555 1_555
N7 Fe4 1_555 1_555
C27 N7 1_555 1_555
H29 C27 1_555 1_555
C28 C27 1_555 1_555
H30 C28 1_555 1_555
C29 C28 1_555 1_555
C30 C29 1_555 1_555
H31 C30 1_555 1_555
C31 N7 1_555 1_555
H32 C31 1_555 1_555
C32 C29 1_555 1_555
H33 C32 1_555 1_555
H34 C32 1_555 1_555
C33 C32 1_555 1_555
H35 C33 1_555 1_555
H36 C33 1_555 1_555
C34 C33 1_555 1_555
H37 C34 1_555 1_555
H38 C34 1_555 1_555
N8 C35 1_555 1_555
C35 H39 1_555 1_555
C36 C35 1_555 1_555
H40 C36 1_555 1_555
C37 C34 1_555 1_555
C38 C37 1_555 1_555
H41 C38 1_555 1_555
C39 N8 1_555 1_555
H42 C39 1_555 1_555
Fe6 N8 1_555 1_555
Cl4 Fe4 1_555 1_555
N11 Fe4 1_555 1_555
C30 C31 1_555 1_555
C36 C37 1_555 1_555
C38 C39 1_555 1_555
Fe6_2 N10 1_555 1_555
H49 C46 1_555 1_555
C47 C46 1_555 1_555
H51 C47 1_555 1_555
H52 C47 1_555 1_555
N10 C48 1_555 1_555
C48 H53 1_555 1_555
C49 C48 1_555 1_555
H54 C49 1_555 1_555
C50 C47 1_555 1_555
C51 C50 1_555 1_555
H55 C51 1_555 1_555
C52 N10 1_555 1_555
H56 C52 1_555 1_555
C49 C50 1_555 1_555
C51 C52 1_555 1_555
Fe4_2 Cl3 1_555 1_555
N9 Fe4_2 1_555 1_555
C40 N9 1_555 1_555
H43 C40 1_555 1_555
C41 C40 1_555 1_555
H44 C41 1_555 1_555
C42 C41 1_555 1_555
C43 C42 1_555 1_555
H45 C43 1_555 1_555
C44 N9 1_555 1_555
H46 C44 1_555 1_555
C45 C42 1_555 1_555
H47 C45 1_555 1_555
H48 C45 1_555 1_555
N12 Fe4_2 1_555 1_555
C43 C44 1_555 1_555
Fe4_3 Cl3_2 1_555 1_555
N7_2 Fe4_3 1_555 1_555
C27_2 N7_2 1_555 1_555
H29_2 C27_2 1_555 1_555
C28_2 C27_2 1_555 1_555
H30_2 C28_2 1_555 1_555
C29_2 C28_2 1_555 1_555
C30_2 C29_2 1_555 1_555
H31_2 C30_2 1_555 1_555
C31_2 N7_2 1_555 1_555
H32_2 C31_2 1_555 1_555
C32_2 C29_2 1_555 1_555
H33_2 C32_2 1_555 1_555
H34_2 C32_2 1_555 1_555
C33_2 C32_2 1_555 1_555
H35_2 C33_2 1_555 1_555
H36_2 C33_2 1_555 1_555
C34_2 C33_2 1_555 1_555
H37_2 C34_2 1_555 1_555
H38_2 C34_2 1_555 1_555
N8_2 C35_2 1_555 1_555
C35_2 H39_2 1_555 1_555
C36_2 C35_2 1_555 1_555
H40_2 C36_2 1_555 1_555
C37_2 C34_2 1_555 1_555
C38_2 C37_2 1_555 1_555
H41_2 C38_2 1_555 1_555
C39_2 N8_2 1_555 1_555
H42_2 C39_2 1_555 1_555
Fe5 N8_2 1_555 1_555
Cl4_2 Fe4_3 1_555 1_555
N9_2 Fe4_3 1_555 1_555
C40_2 N9_2 1_555 1_555
H43_2 C40_2 1_555 1_555
C41_2 C40_2 1_555 1_555
H44_2 C41_2 1_555 1_555
C42_2 C41_2 1_555 1_555
C43_2 C42_2 1_555 1_555
H45_2 C43_2 1_555 1_555
C44_2 N9_2 1_555 1_555
H46_2 C44_2 1_555 1_555
C45_2 C42_2 1_555 1_555
H47_2 C45_2 1_555 1_555
H48_2 C45_2 1_555 1_555
N11_2 Fe4_3 1_555 1_555
N12_2 Fe4_3 1_555 1_555
C30_2 C31_2 1_555 1_555
C36_2 C37_2 1_555 1_555
C38_2 C39_2 1_555 1_555
C43_2 C44_2 1_555 1_555
Fe5 N10_2 1_555 1_555
H49_2 C46_2 1_555 1_555
C47_2 C46_2 1_555 1_555
H51_2 C47_2 1_555 1_555
H52_2 C47_2 1_555 1_555
N10_2 C48_2 1_555 1_555
C48_2 H53_2 1_555 1_555
C49_2 C48_2 1_555 1_555
H54_2 C49_2 1_555 1_555
C50_2 C47_2 1_555 1_555
C51_2 C50_2 1_555 1_555
H55_2 C51_2 1_555 1_555
C52_2 N10_2 1_555 1_555
H56_2 C52_2 1_555 1_555
C49_2 C50_2 1_555 1_555
C51_2 C52_2 1_555 1_555
Fe6 Cl3_3 1_555 1_555
N7_3 Fe6 1_555 1_555
C27_3 N7_3 1_555 1_555
C28_3 C27_3 1_555 1_555
H30_3 C28_3 1_555 1_555
C29_3 C28_3 1_555 1_555
C30_3 C29_3 1_555 1_555
H31_3 C30_3 1_555 1_555
C31_3 N7_3 1_555 1_555
H32_3 C31_3 1_555 1_555
C32_3 C29_3 1_555 1_555
H33_3 C32_3 1_555 1_555
H34_3 C32_3 1_555 1_555
C33_3 C32_3 1_555 1_555
H35_3 C33_3 1_555 1_555
H36_3 C33_3 1_555 1_555
C34_3 C33_3 1_555 1_555
H37_3 C34_3 1_555 1_555
H38_3 C34_3 1_555 1_555
N11_2 C35_3 1_555 1_555
C35_3 H39_3 1_555 1_555
C36_3 C35_3 1_555 1_555
H40_3 C36_3 1_555 1_555
C37_3 C34_3 1_555 1_555
C38_3 C37_3 1_555 1_555
H41_3 C38_3 1_555 1_555
C39_3 N11_2 1_555 1_555
H42_3 C39_3 1_555 1_555
C30_3 C31_3 1_555 1_555
C36_3 C37_3 1_555 1_555
C38_3 C39_3 1_555 1_555
Cl4_3 Fe6_2 1_555 1_555
N9_3 Fe6_2 1_555 1_555
C40_3 N9_3 1_555 1_555
C41_3 C40_3 1_555 1_555
H44_3 C41_3 1_555 1_555
C42_3 C41_3 1_555 1_555
C43_3 C42_3 1_555 1_555
H45_3 C43_3 1_555 1_555
C44_3 N9_3 1_555 1_555
H46_3 C44_3 1_555 1_555
C45_3 C42_3 1_555 1_555
H47_3 C45_3 1_555 1_555
H48_3 C45_3 1_555 1_555
C46_3 C45_3 1_555 1_555
H49_3 C46_3 1_555 1_555
H50_3 C46_3 1_555 1_555
C47_3 C46_3 1_555 1_555
H51_3 C47_3 1_555 1_555
H52_3 C47_3 1_555 1_555
N12_2 C48_3 1_555 1_555
C48_3 H53_3 1_555 1_555
C49_3 C48_3 1_555 1_555
H54_3 C49_3 1_555 1_555
C50_3 C47_3 1_555 1_555
C51_3 C50_3 1_555 1_555
H55_3 C51_3 1_555 1_555
C52_3 N12_2 1_555 1_555
H56_3 C52_3 1_555 1_555
C43_3 C44_3 1_555 1_555
C49_3 C50_3 1_555 1_555
C51_3 C52_3 1_555 1_555
N11 C35_4 1_555 1_555
C35_4 H39_4 1_555 1_555
C36_4 C35_4 1_555 1_555
H40_4 C36_4 1_555 1_555
C38_4 C37_4 1_555 1_555
C39_4 N11 1_555 1_555
N12 C48_4 1_555 1_555
C48_4 H53_4 1_555 1_555
C49_4 C48_4 1_555 1_555
H54_4 C49_4 1_555 1_555
C51_4 C50_4 1_555 1_555
C52_4 N12 1_555 1_555
C36_4 C37_4 1_555 1_555
C38_4 C39_4 1_555 1_555
C49_4 C50_4 1_555 1_555
C51_4 C52_4 1_555 1_555
Fe5 Cl3_4 1_555 1_555
N7_4 Fe5 1_555 1_555
C27_4 N7_4 1_555 1_555
H29_4 C27_4 1_555 1_555
C28_4 C27_4 1_555 1_555
H30_4 C28_4 1_555 1_555
C29_4 C28_4 1_555 1_555
C30_4 C29_4 1_555 1_555
H31_4 C30_4 1_555 1_555
C31_4 N7_4 1_555 1_555
H32_4 C31_4 1_555 1_555
C32_4 C29_4 1_555 1_555
H33_4 C32_4 1_555 1_555
H34_4 C32_4 1_555 1_555
C33_4 C32_4 1_555 1_555
H35_4 C33_4 1_555 1_555
H36_4 C33_4 1_555 1_555
C34_4 C33_4 1_555 1_555
H38_4 C34_4 1_555 1_555
Cl4_4 Fe5 1_555 1_555
N9_4 Fe5 1_555 1_555
C40_4 N9_4 1_555 1_555
H43_4 C40_4 1_555 1_555
C41_4 C40_4 1_555 1_555
H44_4 C41_4 1_555 1_555
C42_4 C41_4 1_555 1_555
C43_4 C42_4 1_555 1_555
H45_4 C43_4 1_555 1_555
C44_4 N9_4 1_555 1_555
H46_4 C44_4 1_555 1_555
C45_4 C42_4 1_555 1_555
H47_4 C45_4 1_555 1_555
H48_4 C45_4 1_555 1_555
C46_4 C45_4 1_555 1_555
H49_4 C46_4 1_555 1_555
H50_4 C46_4 1_555 1_555
C47_4 C46_4 1_555 1_555
H52_4 C47_4 1_555 1_555
C30_4 C31_4 1_555 1_555
C43_4 C44_4 1_555 1_555
Fe4_4 Cl3_5 1_555 1_555
N9_5 Fe4_4 1_555 1_555
C40_5 N9_5 1_555 1_555
H43_5 C40_5 1_555 1_555
C41_5 C40_5 1_555 1_555
H44_5 C41_5 1_555 1_555
C42_5 C41_5 1_555 1_555
C43_5 C42_5 1_555 1_555
H45_5 C43_5 1_555 1_555
C44_5 N9_5 1_555 1_555
H46_5 C44_5 1_555 1_555
C45_5 C42_5 1_555 1_555
H47_5 C45_5 1_555 1_555
H48_5 C45_5 1_555 1_555
N12_3 Fe4_4 1_555 1_555
C43_5 C44_5 1_555 1_555
Fe5_2 N10_3 1_555 1_555
H49_5 C46_5 1_555 1_555
C47_5 C46_5 1_555 1_555
H51_5 C47_5 1_555 1_555
H52_5 C47_5 1_555 1_555
N10_3 C48_5 1_555 1_555
C48_5 H53_5 1_555 1_555
C49_5 C48_5 1_555 1_555
H54_5 C49_5 1_555 1_555
C50_5 C47_5 1_555 1_555
C51_5 C50_5 1_555 1_555
H55_5 C51_5 1_555 1_555
C52_5 N10_3 1_555 1_555
H56_5 C52_5 1_555 1_555
C49_5 C50_5 1_555 1_555
C51_5 C52_5 1_555 1_555
N7_5 Fe4_5 1_555 1_555
C27_5 N7_5 1_555 1_555
H29_5 C27_5 1_555 1_555
C28_5 C27_5 1_555 1_555
H30_5 C28_5 1_555 1_555
C29_5 C28_5 1_555 1_555
C30_5 C29_5 1_555 1_555
H31_5 C30_5 1_555 1_555
C31_5 N7_5 1_555 1_555
H32_5 C31_5 1_555 1_555
C32_5 C29_5 1_555 1_555
H33_5 C32_5 1_555 1_555
H34_5 C32_5 1_555 1_555
C33_5 C32_5 1_555 1_555
H35_5 C33_5 1_555 1_555
H36_5 C33_5 1_555 1_555
C34_5 C33_5 1_555 1_555
H37_5 C34_5 1_555 1_555
H38_5 C34_5 1_555 1_555
N8_3 C35_5 1_555 1_555
C35_5 H39_5 1_555 1_555
C36_5 C35_5 1_555 1_555
H40_5 C36_5 1_555 1_555
C37_5 C34_5 1_555 1_555
C38_5 C37_5 1_555 1_555
H41_5 C38_5 1_555 1_555
C39_5 N8_3 1_555 1_555
H42_5 C39_5 1_555 1_555
Fe5_3 N8_3 1_555 1_555
Cl4_5 Fe4_5 1_555 1_555
N11_3 Fe4_5 1_555 1_555
C30_5 C31_5 1_555 1_555
C36_5 C37_5 1_555 1_555
C38_5 C39_5 1_555 1_555
Fe6_3 N10_4 1_555 1_555
H49_6 C46_6 1_555 1_555
C47_6 C46_6 1_555 1_555
H51_6 C47_6 1_555 1_555
H52_6 C47_6 1_555 1_555
N10_4 C48_6 1_555 1_555
C48_6 H53_6 1_555 1_555
C49_6 C48_6 1_555 1_555
H54_6 C49_6 1_555 1_555
C50_6 C47_6 1_555 1_555
C51_6 C50_6 1_555 1_555
H55_6 C51_6 1_555 1_555
C52_6 N10_4 1_555 1_555
H56_6 C52_6 1_555 1_555
C49_6 C50_6 1_555 1_555
C51_6 C52_6 1_555 1_555
Fe4_6 Cl3_6 1_555 1_555
N7_6 Fe4_6 1_555 1_555
C27_6 N7_6 1_555 1_555
H29_6 C27_6 1_555 1_555
C28_6 C27_6 1_555 1_555
H30_6 C28_6 1_555 1_555
C29_6 C28_6 1_555 1_555
C30_6 C29_6 1_555 1_555
H31_6 C30_6 1_555 1_555
C31_6 N7_6 1_555 1_555
H32_6 C31_6 1_555 1_555
C32_6 C29_6 1_555 1_555
H33_6 C32_6 1_555 1_555
H34_6 C32_6 1_555 1_555
C33_6 C32_6 1_555 1_555
H35_6 C33_6 1_555 1_555
H36_6 C33_6 1_555 1_555
C34_6 C33_6 1_555 1_555
H37_6 C34_6 1_555 1_555
H38_6 C34_6 1_555 1_555
N8_4 C35_6 1_555 1_555
C35_6 H39_6 1_555 1_555
C36_6 C35_6 1_555 1_555
H40_6 C36_6 1_555 1_555
C37_6 C34_6 1_555 1_555
C38_6 C37_6 1_555 1_555
H41_6 C38_6 1_555 1_555
C39_6 N8_4 1_555 1_555
H42_6 C39_6 1_555 1_555
Fe6_3 N8_4 1_555 1_555
Cl4_6 Fe4_6 1_555 1_555
N9_6 Fe4_6 1_555 1_555
C40_6 N9_6 1_555 1_555
H43_6 C40_6 1_555 1_555
C41_6 C40_6 1_555 1_555
H44_6 C41_6 1_555 1_555
C42_6 C41_6 1_555 1_555
C43_6 C42_6 1_555 1_555
H45_6 C43_6 1_555 1_555
C44_6 N9_6 1_555 1_555
H46_6 C44_6 1_555 1_555
C45_6 C42_6 1_555 1_555
H47_6 C45_6 1_555 1_555
H48_6 C45_6 1_555 1_555
N11_4 Fe4_6 1_555 1_555
N12_4 Fe4_6 1_555 1_555
C30_6 C31_6 1_555 1_555
C36_6 C37_6 1_555 1_555
C38_6 C39_6 1_555 1_555
C43_6 C44_6 1_555 1_555
Cl4_7 Fe5_2 1_555 1_555
N9_7 Fe5_2 1_555 1_555
C40_7 N9_7 1_555 1_555
C41_7 C40_7 1_555 1_555
H44_7 C41_7 1_555 1_555
C42_7 C41_7 1_555 1_555
C43_7 C42_7 1_555 1_555
H45_7 C43_7 1_555 1_555
C44_7 N9_7 1_555 1_555
H46_7 C44_7 1_555 1_555
C45_7 C42_7 1_555 1_555
H47_7 C45_7 1_555 1_555
H48_7 C45_7 1_555 1_555
C46_7 C45_7 1_555 1_555
H49_7 C46_7 1_555 1_555
H50_7 C46_7 1_555 1_555
C47_7 C46_7 1_555 1_555
H51_7 C47_7 1_555 1_555
H52_7 C47_7 1_555 1_555
N12_4 C48_7 1_555 1_555
C48_7 H53_7 1_555 1_555
C49_7 C48_7 1_555 1_555
H54_7 C49_7 1_555 1_555
C50_7 C47_7 1_555 1_555
C51_7 C50_7 1_555 1_555
H55_7 C51_7 1_555 1_555
C52_7 N12_4 1_555 1_555
H56_7 C52_7 1_555 1_555
C43_7 C44_7 1_555 1_555
C49_7 C50_7 1_555 1_555
C51_7 C52_7 1_555 1_555
Fe5_3 Cl3_7 1_555 1_555
N7_7 Fe5_3 1_555 1_555
C27_7 N7_7 1_555 1_555
C28_7 C27_7 1_555 1_555
H30_7 C28_7 1_555 1_555
C29_7 C28_7 1_555 1_555
C30_7 C29_7 1_555 1_555
H31_7 C30_7 1_555 1_555
C31_7 N7_7 1_555 1_555
H32_7 C31_7 1_555 1_555
C32_7 C29_7 1_555 1_555
H33_7 C32_7 1_555 1_555
H34_7 C32_7 1_555 1_555
C33_7 C32_7 1_555 1_555
H35_7 C33_7 1_555 1_555
H36_7 C33_7 1_555 1_555
C34_7 C33_7 1_555 1_555
H37_7 C34_7 1_555 1_555
H38_7 C34_7 1_555 1_555
N11_4 C35_7 1_555 1_555
C35_7 H39_7 1_555 1_555
C36_7 C35_7 1_555 1_555
H40_7 C36_7 1_555 1_555
C37_7 C34_7 1_555 1_555
C38_7 C37_7 1_555 1_555
H41_7 C38_7 1_555 1_555
C39_7 N11_4 1_555 1_555
H42_7 C39_7 1_555 1_555
C30_7 C31_7 1_555 1_555
C36_7 C37_7 1_555 1_555
C38_7 C39_7 1_555 1_555
Fe6_3 Cl3_8 1_555 1_555
N7_8 Fe6_3 1_555 1_555
C27_8 N7_8 1_555 1_555
H29_8 C27_8 1_555 1_555
C28_8 C27_8 1_555 1_555
H30_8 C28_8 1_555 1_555
C29_8 C28_8 1_555 1_555
C30_8 C29_8 1_555 1_555
H31_8 C30_8 1_555 1_555
C31_8 N7_8 1_555 1_555
H32_8 C31_8 1_555 1_555
C32_8 C29_8 1_555 1_555
H33_8 C32_8 1_555 1_555
H34_8 C32_8 1_555 1_555
C33_8 C32_8 1_555 1_555
H35_8 C33_8 1_555 1_555
H36_8 C33_8 1_555 1_555
C34_8 C33_8 1_555 1_555
H38_8 C34_8 1_555 1_555
Cl4_8 Fe6_3 1_555 1_555
N9_8 Fe6_3 1_555 1_555
C40_8 N9_8 1_555 1_555
H43_8 C40_8 1_555 1_555
C41_8 C40_8 1_555 1_555
H44_8 C41_8 1_555 1_555
C42_8 C41_8 1_555 1_555
C43_8 C42_8 1_555 1_555
H45_8 C43_8 1_555 1_555
C44_8 N9_8 1_555 1_555
H46_8 C44_8 1_555 1_555
C45_8 C42_8 1_555 1_555
H47_8 C45_8 1_555 1_555
H48_8 C45_8 1_555 1_555
C46_8 C45_8 1_555 1_555
H49_8 C46_8 1_555 1_555
H50_8 C46_8 1_555 1_555
C47_8 C46_8 1_555 1_555
H52_8 C47_8 1_555 1_555
C30_8 C31_8 1_555 1_555
C43_8 C44_8 1_555 1_555
N11_3 C35_8 1_555 1_555
C35_8 H39_8 1_555 1_555
C36_8 C35_8 1_555 1_555
H40_8 C36_8 1_555 1_555
C38_8 C37_8 1_555 1_555
C39_8 N11_3 1_555 1_555
N12_3 C48_8 1_555 1_555
C48_8 H53_8 1_555 1_555
C49_8 C48_8 1_555 1_555
H54_8 C49_8 1_555 1_555
C51_8 C50_8 1_555 1_555
C52_8 N12_3 1_555 1_555
C36_8 C37_8 1_555 1_555
C38_8 C39_8 1_555 1_555
C49_8 C50_8 1_555 1_555
C51_8 C52_8 1_555 1_555

#END
