
###############################################################################
#
# This file contains modified crystal structure data generated from the
# MOF subset of the Cambridge Structural Database (CSD) v543 
# hosted by the Cambridge Crystallographic Data Centre (CCDC).
#
# This work is licensed under the Creative Commons
# Attribution-NonCommercial-ShareAlike 4.0 International License.
# To view a copy of this license, visit
# http://creativecommons.org/licenses/by-nc-sa/4.0/
# or send a letter to
# Creative Commons, PO Box 1866, Mountain View, CA 94042, USA.
#
# CIF created using the CSD Python API on 29 September 2022
# The structure has been converted into the P1 space group
# The structure has a 3D framework
# The original CSD entry CUPLOP is in the tetragonal crystal system
# The framework has been calculated to contain at least 10.0% void space
# The void calculation uses a probe of radius 1.32A, grid spacing 0.4
#
###############################################################################

data_CUPLOP
_chemical_formula_moiety         '(C420 H448 Cl32 Co24 N64)n'
_symmetry_cell_setting           triclinic
_symmetry_space_group_name_H-M   'P 1'
_symmetry_Int_Tables_number      1
_space_group_name_Hall           'P 1'
loop_
_symmetry_equiv_pos_site_id
_symmetry_equiv_pos_as_xyz
1 x,y,z
_cell_length_a                   17.187(1)
_cell_length_b                   17.187(1)
_cell_length_c                   42.299(3)
_cell_angle_alpha                90
_cell_angle_beta                 90
_cell_angle_gamma                90
_cell_volume                     12494.8
loop_
_atom_site_label
_atom_site_type_symbol
_atom_site_fract_x
_atom_site_fract_y
_atom_site_fract_z
Co1 Co 0.0000 0.2500 0.71963(6)
Co3 Co 0.5000 0.2500 0.96963(6)
Cl2 Cl 0.1004(2) 0.1487(2) 0.71935(10)
N3 N 0.4349(7) 0.3117(7) 0.9341(3)
N4 N 0.0617(7) 0.3151(7) 0.6841(3)
C14 C 0.3544(9) 0.3167(9) 0.9344(4)
H15 H 0.3282 0.2897 0.9503
C15 C 0.3099(9) 0.3583(9) 0.9132(4)
H16 H 0.2559 0.3586 0.9149
C16 C 0.3458(11) 0.3994(9) 0.8895(4)
C17 C 0.4285(9) 0.3939(9) 0.8874(4)
H17 H 0.4552 0.4177 0.871
C18 C 0.4682(9) 0.3524(9) 0.9105(4)
H18 H 0.5222 0.3527 0.9096
N5 N 0.0671(7) 0.3140(7) 0.7554(3)
C19 C 0.0343(9) 0.3506(10) 0.7794(4)
C20 C 0.0724(9) 0.3929(10) 0.8007(4)
H20 H 0.0456 0.419 0.8165
C21 C 0.1516(10) 0.3976(9) 0.7988(4)
C22 C 0.1856(9) 0.3600(9) 0.7752(4)
H21 H 0.2395 0.3618 0.7734
C23 C 0.1442(9) 0.3192(8) 0.7539(4)
H22 H 0.1703 0.2939 0.7376
C24 C 0.2983(10) 0.4434(10) 0.8652(4)
H23 H 0.2649 0.4799 0.8762
H24 H 0.3336 0.4734 0.8521
C25 C 0.2499(8) 0.3953(8) 0.8445(3)
H25 H 0.2165 0.3625 0.8573
H26 H 0.2829 0.3619 0.8318
C26 C 0.2009(10) 0.4447(10) 0.8232(4)
H27 H 0.2346 0.4802 0.8118
H28 H 0.1661 0.4757 0.8361
Co2 Co -0.0000 0.7500 0.46963(6)
Co1_2 Co 1.0000 0.2500 0.71963(6)
Cl1 Cl 0.8996(2) 0.3513(2) 0.71935(10)
N1 N 0.9383(7) 0.1849(7) 0.6841(3)
C1 C 0.9333(9) 0.1044(9) 0.6844(4)
H1 H 0.9603 0.0782 0.7003
C2 C 0.8917(9) 0.0599(9) 0.6632(4)
H2 H 0.8914 0.0059 0.6649
C3 C 0.8506(9) 0.0958(11) 0.6395(4)
C4 C 0.8561(9) 0.1785(9) 0.6374(4)
H3 H 0.8323 0.2052 0.621
C5 C 0.8976(9) 0.2182(9) 0.6605(4)
H4 H 0.8973 0.2722 0.6596
C11 C 0.8066(10) 0.0483(10) 0.6152(4)
H9 H 0.7701 0.0149 0.6262
H10 H 0.7766 0.0836 0.6021
H12 H 0.8881 0.0329 0.5818
N6 N 0.9329(7) 0.1860(7) 0.7554(3)
H19 H 0.9806 0.3464 0.7816
N2 N 0.9360(7) 0.8171(7) 0.5054(3)
C6 C 0.8994(10) 0.7843(9) 0.5294(4)
H5 H 0.9036 0.7306 0.5316
C7 C 0.8571(10) 0.8224(9) 0.5507(4)
H6 H 0.831 0.7956 0.5665
C8 C 0.8524(9) 0.9016(10) 0.5488(4)
C9 C 0.8900(9) 0.9356(9) 0.5252(4)
H7 H 0.8882 0.9895 0.5234
C10 C 0.9308(8) 0.8942(9) 0.5039(4)
H8 H 0.9561 0.9203 0.4876
C12 C 0.8547(8) 0.9999(8) 0.5945(3)
H11 H 0.8875 0.9665 0.6073
C13 C 0.8053(10) 0.9509(10) 0.5732(4)
H13 H 0.7698 0.9846 0.5618
H14 H 0.7743 0.9161 0.5861
Co2_2 Co 1.0000 0.7500 0.46963(6)
C1_2 C 0.0667(9) 0.3956(9) 0.6844(4)
H1_2 H 0.0397 0.4218 0.7003
C2_2 C 0.1083(9) 0.4401(9) 0.6632(4)
H2_2 H 0.1086 0.4941 0.6649
C3_2 C 0.1494(9) 0.4042(11) 0.6395(4)
C4_2 C 0.1439(9) 0.3215(9) 0.6374(4)
H3_2 H 0.1677 0.2948 0.621
C5_2 C 0.1024(9) 0.2818(9) 0.6605(4)
H4_2 H 0.1027 0.2278 0.6596
N2_2 N 0.0640(7) 0.6829(7) 0.5054(3)
C6_2 C 0.1006(10) 0.7157(9) 0.5294(4)
H5_2 H 0.0964 0.7694 0.5316
C7_2 C 0.1429(10) 0.6776(9) 0.5507(4)
H6_2 H 0.169 0.7044 0.5665
C8_2 C 0.1476(9) 0.5984(10) 0.5488(4)
C9_2 C 0.1100(9) 0.5644(9) 0.5252(4)
H7_2 H 0.1118 0.5105 0.5234
C10_2 C 0.0692(8) 0.6058(9) 0.5039(4)
H8_2 H 0.0439 0.5797 0.4876
C11_2 C 0.1934(10) 0.4517(10) 0.6152(4)
H9_2 H 0.2299 0.4851 0.6262
H10_2 H 0.2234 0.4164 0.6021
C12_2 C 0.1453(8) 0.5001(8) 0.5945(3)
H11_2 H 0.1125 0.5335 0.6073
H12_2 H 0.1119 0.4671 0.5818
C13_2 C 0.1947(10) 0.5491(10) 0.5732(4)
H13_2 H 0.2302 0.5154 0.5618
H14_2 H 0.2257 0.5839 0.5861
H19_2 H 0.0194 0.1536 0.7816
N3_2 N 0.5651(7) 0.1883(7) 0.9341(3)
C14_2 C 0.6456(9) 0.1833(9) 0.9344(4)
H15_2 H 0.6718 0.2103 0.9503
C15_2 C 0.6901(9) 0.1417(9) 0.9132(4)
H16_2 H 0.7441 0.1414 0.9149
C16_2 C 0.6542(11) 0.1006(9) 0.8895(4)
C17_2 C 0.5715(9) 0.1061(9) 0.8874(4)
H17_2 H 0.5448 0.0823 0.871
C18_2 C 0.5318(9) 0.1476(9) 0.9105(4)
H18_2 H 0.4778 0.1473 0.9096
C19_2 C 0.9657(9) 0.1494(10) 0.7794(4)
C20_2 C 0.9276(9) 0.1071(10) 0.8007(4)
H20_2 H 0.9544 0.081 0.8165
C21_2 C 0.8484(10) 0.1024(9) 0.7988(4)
C22_2 C 0.8144(9) 0.1400(9) 0.7752(4)
H21_2 H 0.7605 0.1382 0.7734
C23_2 C 0.8558(9) 0.1808(8) 0.7539(4)
H22_2 H 0.8297 0.2061 0.7376
C24_2 C 0.7017(10) 0.0566(10) 0.8652(4)
H23_2 H 0.7351 0.0201 0.8762
H24_2 H 0.6664 0.0266 0.8521
C25_2 C 0.7501(8) 0.1047(8) 0.8445(3)
H25_2 H 0.7835 0.1375 0.8573
H26_2 H 0.7171 0.1381 0.8318
C26_2 C 0.7991(10) 0.0553(10) 0.8232(4)
H27_2 H 0.7654 0.0198 0.8118
H28_2 H 0.8339 0.0243 0.8361
Co3_2 Co 0.5000 0.7500 0.21963(6)
N3_3 N 0.4383(7) 0.6849(7) 0.1841(3)
C14_3 C 0.4333(9) 0.6044(9) 0.1844(4)
H15_3 H 0.4603 0.5782 0.2003
C15_3 C 0.3917(9) 0.5599(9) 0.1632(4)
H16_3 H 0.3914 0.5059 0.1649
C16_3 C 0.3506(9) 0.5958(11) 0.1395(4)
C17_3 C 0.3561(9) 0.6785(9) 0.1374(4)
H17_3 H 0.3323 0.7052 0.121
C18_3 C 0.3976(9) 0.7182(9) 0.1605(4)
H18_3 H 0.3973 0.7722 0.1596
N5_2 N 0.4360(7) 0.3171(7) 0.0054(3)
N6_2 N 0.5640(7) 0.1829(7) 0.0054(3)
C19_3 C 0.3994(10) 0.2843(9) 0.0294(4)
H19_3 H 0.4036 0.2306 0.0316
C20_3 C 0.3571(10) 0.3224(9) 0.0507(4)
H20_3 H 0.331 0.2956 0.0665
C21_3 C 0.3524(9) 0.4016(10) 0.0488(4)
C22_3 C 0.3900(9) 0.4356(9) 0.0252(4)
H21_3 H 0.3882 0.4895 0.0234
C23_3 C 0.4308(8) 0.3942(9) 0.0039(4)
C24_3 C 0.3066(10) 0.5483(10) 0.1152(4)
H23_3 H 0.2701 0.5149 0.1262
H24_3 H 0.2766 0.5836 0.1021
C25_3 C 0.3547(8) 0.4999(8) 0.0945(3)
H25_3 H 0.3875 0.4665 0.1073
H26_3 H 0.3881 0.5329 0.0818
C26_3 C 0.3053(10) 0.4509(10) 0.0732(4)
H27_3 H 0.2698 0.4846 0.0618
H28_3 H 0.2743 0.4161 0.0861
Cl1_2 Cl 0.3987(2) 0.1496(2) 0.96935(10)
Cl2_2 Cl 0.6013(2) 0.3504(2) 0.96935(10)
H22_3 H 0.4561 0.4203 0.9876
C19_4 C 0.6006(10) 0.2157(9) 0.0294(4)
H19_4 H 0.5964 0.2694 0.0316
C20_4 C 0.6429(10) 0.1776(9) 0.0507(4)
H20_4 H 0.669 0.2044 0.0665
C21_4 C 0.6476(9) 0.0984(10) 0.0488(4)
C22_4 C 0.6100(9) 0.0644(9) 0.0252(4)
H21_4 H 0.6118 0.0105 0.0234
C23_4 C 0.5692(8) 0.1058(9) 0.0039(4)
C25_4 C 0.6453(8) 0.0001(8) 0.0945(3)
H25_4 H 0.6125 0.0335 0.1073
C26_4 C 0.6947(10) 0.0491(10) 0.0732(4)
H27_4 H 0.7302 0.0154 0.0618
H28_4 H 0.7257 0.0839 0.0861
H22_4 H 0.5439 0.0797 0.9876
N3_4 N 0.5617(7) 0.8151(7) 0.1841(3)
C14_4 C 0.5667(9) 0.8956(9) 0.1844(4)
H15_4 H 0.5397 0.9218 0.2003
C15_4 C 0.6083(9) 0.9401(9) 0.1632(4)
H16_4 H 0.6086 0.9941 0.1649
C16_4 C 0.6494(9) 0.9042(11) 0.1395(4)
C17_4 C 0.6439(9) 0.8215(9) 0.1374(4)
H17_4 H 0.6677 0.7948 0.121
C18_4 C 0.6024(9) 0.7818(9) 0.1605(4)
H18_4 H 0.6027 0.7278 0.1596
C24_4 C 0.6934(10) 0.9517(10) 0.1152(4)
H23_4 H 0.7299 0.9851 0.1262
H24_4 H 0.7234 0.9164 0.1021
H26_4 H 0.6119 0.9671 0.0818
H18_5 H 0.0222 0.8527 0.4096
Cl1_3 Cl 0.3996(2) 0.8513(2) 0.21935(10)
Cl2_3 Cl 0.6004(2) 0.6487(2) 0.21935(10)
N3_5 N 0.9349(7) 0.8117(7) 0.4341(3)
C14_5 C 0.8544(9) 0.8167(9) 0.4344(4)
H15_5 H 0.8282 0.7897 0.4503
C15_5 C 0.8099(9) 0.8583(9) 0.4132(4)
H16_5 H 0.7559 0.8586 0.4149
C16_5 C 0.8458(11) 0.8994(9) 0.3895(4)
C17_5 C 0.9285(9) 0.8939(9) 0.3874(4)
H17_5 H 0.9552 0.9177 0.371
C18_5 C 0.9682(9) 0.8524(9) 0.4105(4)
N5_3 N 0.5671(7) 0.8140(7) 0.2554(3)
N6_3 N 0.4329(7) 0.6860(7) 0.2554(3)
C19_5 C 0.5343(9) 0.8506(10) 0.2794(4)
H19_5 H 0.4806 0.8464 0.2816
C20_5 C 0.5724(9) 0.8929(10) 0.3007(4)
H20_5 H 0.5456 0.919 0.3165
C21_5 C 0.6516(10) 0.8976(9) 0.2988(4)
C22_5 C 0.6856(9) 0.8600(9) 0.2752(4)
H21_5 H 0.7395 0.8618 0.2734
C23_5 C 0.6442(9) 0.8192(8) 0.2539(4)
H22_5 H 0.6703 0.7939 0.2376
C24_5 C 0.7983(10) 0.9434(10) 0.3652(4)
H23_5 H 0.7649 0.9799 0.3762
H24_5 H 0.8336 0.9734 0.3521
C25_5 C 0.7499(8) 0.8953(8) 0.3445(3)
H25_5 H 0.7165 0.8625 0.3573
H26_5 H 0.7829 0.8619 0.3318
C26_5 C 0.7009(10) 0.9447(10) 0.3232(4)
H27_5 H 0.7346 0.9802 0.3118
H28_5 H 0.6661 0.9757 0.3361
N3_6 N 0.0651(7) 0.6883(7) 0.4341(3)
C14_6 C 0.1456(9) 0.6833(9) 0.4344(4)
H15_6 H 0.1718 0.7103 0.4503
C15_6 C 0.1901(9) 0.6417(9) 0.4132(4)
H16_6 H 0.2441 0.6414 0.4149
C16_6 C 0.1542(11) 0.6006(9) 0.3895(4)
C17_6 C 0.0715(9) 0.6061(9) 0.3874(4)
H17_6 H 0.0448 0.5823 0.371
C18_6 C 0.0318(9) 0.6476(9) 0.4105(4)
C19_6 C 0.4657(9) 0.6494(10) 0.2794(4)
H19_6 H 0.5194 0.6536 0.2816
C20_6 C 0.4276(9) 0.6071(10) 0.3007(4)
H20_6 H 0.4544 0.581 0.3165
C21_6 C 0.3484(10) 0.6024(9) 0.2988(4)
C22_6 C 0.3144(9) 0.6400(9) 0.2752(4)
H21_6 H 0.2605 0.6382 0.2734
C23_6 C 0.3558(9) 0.6808(8) 0.2539(4)
H22_6 H 0.3297 0.7061 0.2376
C24_6 C 0.2017(10) 0.5566(10) 0.3652(4)
H23_6 H 0.2351 0.5201 0.3762
H24_6 H 0.1664 0.5266 0.3521
C25_6 C 0.2501(8) 0.6047(8) 0.3445(3)
H25_6 H 0.2835 0.6375 0.3573
H26_6 H 0.2171 0.6381 0.3318
C26_6 C 0.2991(10) 0.5553(10) 0.3232(4)
H27_6 H 0.2654 0.5198 0.3118
H28_6 H 0.3339 0.5243 0.3361
H18_6 H 0.9778 0.6473 0.4096
Cl2_4 Cl 0.1013(2) 0.8504(2) 0.46935(10)
Cl1_4 Cl 0.8987(2) 0.6496(2) 0.46935(10)
N2_3 N 0.0640(7) 0.1829(7) 0.4946(3)
C6_3 C 0.1006(10) 0.2157(9) 0.4706(4)
H5_3 H 0.0964 0.2694 0.4684
C7_3 C 0.1429(10) 0.1776(9) 0.4493(4)
H6_3 H 0.169 0.2044 0.4335
C8_3 C 0.1476(9) 0.0984(10) 0.4512(4)
C9_3 C 0.1100(9) 0.0644(9) 0.4748(4)
H7_3 H 0.1118 0.0105 0.4766
C10_3 C 0.0692(8) 0.1058(9) 0.4961(4)
H8_3 H 0.0439 0.0797 0.5124
C12_3 C 0.1453(8) 0.0001(8) 0.4055(3)
H11_3 H 0.1125 0.0335 0.3927
C13_3 C 0.1947(10) 0.0491(10) 0.4268(4)
H13_3 H 0.2302 0.0154 0.4382
H14_3 H 0.2257 0.0839 0.4139
Co2_3 Co 0.0000 0.2500 0.53037(6)
Co1_3 Co -0.0000 0.7500 0.28037(6)
Cl1_5 Cl 0.1004(2) 0.6487(2) 0.28065(10)
N1_2 N 0.0617(7) 0.8151(7) 0.3159(3)
C1_3 C 0.0667(9) 0.8956(9) 0.3156(4)
H1_3 H 0.0397 0.9218 0.2997
C2_3 C 0.1083(9) 0.9401(9) 0.3368(4)
H2_3 H 0.1086 0.9941 0.3351
C3_3 C 0.1494(9) 0.9042(11) 0.3605(4)
C4_3 C 0.1439(9) 0.8215(9) 0.3626(4)
H3_3 H 0.1677 0.7948 0.379
C5_3 C 0.1024(9) 0.7818(9) 0.3395(4)
H4_3 H 0.1027 0.7278 0.3404
C11_3 C 0.1934(10) 0.9517(10) 0.3848(4)
H9_3 H 0.2299 0.9851 0.3738
H10_3 H 0.2234 0.9164 0.3979
H12_3 H 0.1119 0.9671 0.4182
N6_4 N 0.0671(7) 0.8140(7) 0.2446(3)
H19_7 H 0.0194 0.6536 0.2184
Co2_4 Co 1.0000 0.2500 0.53037(6)
Co1_4 Co 1.0000 0.7500 0.28037(6)
Co3_3 Co 0.5000 0.7500 0.03037(6)
Cl2_5 Cl 0.8996(2) 0.8513(2) 0.28065(10)
N3_7 N 0.5651(7) 0.6883(7) 0.0659(3)
N4_2 N 0.9383(7) 0.6849(7) 0.3159(3)
C14_7 C 0.6456(9) 0.6833(9) 0.0656(4)
H15_7 H 0.6718 0.7103 0.0497
C15_7 C 0.6901(9) 0.6417(9) 0.0868(4)
H16_7 H 0.7441 0.6414 0.0851
C16_7 C 0.6542(11) 0.6006(9) 0.1105(4)
C17_7 C 0.5715(9) 0.6061(9) 0.1126(4)
H17_7 H 0.5448 0.5823 0.129
C18_7 C 0.5318(9) 0.6476(9) 0.0895(4)
H18_7 H 0.4778 0.6473 0.0904
N5_4 N 0.9329(7) 0.6860(7) 0.2446(3)
C19_7 C 0.9657(9) 0.6494(10) 0.2206(4)
C20_7 C 0.9276(9) 0.6071(10) 0.1993(4)
H20_7 H 0.9544 0.581 0.1835
C21_7 C 0.8484(10) 0.6024(9) 0.2012(4)
C22_7 C 0.8144(9) 0.6400(9) 0.2248(4)
H21_7 H 0.7605 0.6382 0.2266
C23_7 C 0.8558(9) 0.6808(8) 0.2461(4)
H22_7 H 0.8297 0.7061 0.2624
C24_7 C 0.7017(10) 0.5566(10) 0.1348(4)
H23_7 H 0.7351 0.5201 0.1238
H24_7 H 0.6664 0.5266 0.1479
C25_7 C 0.7501(8) 0.6047(8) 0.1555(3)
H25_7 H 0.7835 0.6375 0.1427
H26_7 H 0.7171 0.6381 0.1682
C26_7 C 0.7991(10) 0.5553(10) 0.1768(4)
H27_7 H 0.7654 0.5198 0.1882
H28_7 H 0.8339 0.5243 0.1639
N3_8 N 0.4349(7) 0.8117(7) 0.0659(3)
C14_8 C 0.3544(9) 0.8167(9) 0.0656(4)
H15_8 H 0.3282 0.7897 0.0497
C15_8 C 0.3099(9) 0.8583(9) 0.0868(4)
H16_8 H 0.2559 0.8586 0.0851
C16_8 C 0.3458(11) 0.8994(9) 0.1105(4)
C17_8 C 0.4285(9) 0.8939(9) 0.1126(4)
H17_8 H 0.4552 0.9177 0.129
C18_8 C 0.4682(9) 0.8524(9) 0.0895(4)
H18_8 H 0.5222 0.8527 0.0904
C19_8 C 0.0343(9) 0.8506(10) 0.2206(4)
C20_8 C 0.0724(9) 0.8929(10) 0.1993(4)
H20_8 H 0.0456 0.919 0.1835
C21_8 C 0.1516(10) 0.8976(9) 0.2012(4)
C22_8 C 0.1856(9) 0.8600(9) 0.2248(4)
H21_8 H 0.2395 0.8618 0.2266
C23_8 C 0.1442(9) 0.8192(8) 0.2461(4)
H22_8 H 0.1703 0.7939 0.2624
C24_8 C 0.2983(10) 0.9434(10) 0.1348(4)
H23_8 H 0.2649 0.9799 0.1238
H24_8 H 0.3336 0.9734 0.1479
C25_8 C 0.2499(8) 0.8953(8) 0.1555(3)
H25_8 H 0.2165 0.8625 0.1427
H26_8 H 0.2829 0.8619 0.1682
C26_8 C 0.2009(10) 0.9447(10) 0.1768(4)
H27_8 H 0.2346 0.9802 0.1882
H28_8 H 0.1661 0.9757 0.1639
C1_4 C 0.9333(9) 0.6044(9) 0.3156(4)
H1_4 H 0.9603 0.5782 0.2997
C2_4 C 0.8917(9) 0.5599(9) 0.3368(4)
H2_4 H 0.8914 0.5059 0.3351
C3_4 C 0.8506(9) 0.5958(11) 0.3605(4)
C4_4 C 0.8561(9) 0.6785(9) 0.3626(4)
H3_4 H 0.8323 0.7052 0.379
C5_4 C 0.8976(9) 0.7182(9) 0.3395(4)
H4_4 H 0.8973 0.7722 0.3404
N2_4 N 0.9360(7) 0.3171(7) 0.4946(3)
C6_4 C 0.8994(10) 0.2843(9) 0.4706(4)
H5_4 H 0.9036 0.2306 0.4684
C7_4 C 0.8571(10) 0.3224(9) 0.4493(4)
H6_4 H 0.831 0.2956 0.4335
C8_4 C 0.8524(9) 0.4016(10) 0.4512(4)
C9_4 C 0.8900(9) 0.4356(9) 0.4748(4)
H7_4 H 0.8882 0.4895 0.4766
C10_4 C 0.9308(8) 0.3942(9) 0.4961(4)
H8_4 H 0.9561 0.4203 0.5124
C11_4 C 0.8066(10) 0.5483(10) 0.3848(4)
H9_4 H 0.7701 0.5149 0.3738
H10_4 H 0.7766 0.5836 0.3979
C12_4 C 0.8547(8) 0.4999(8) 0.4055(3)
H11_4 H 0.8875 0.4665 0.3927
H12_4 H 0.8881 0.5329 0.4182
C13_4 C 0.8053(10) 0.4509(10) 0.4268(4)
H13_4 H 0.7698 0.4846 0.4382
H14_4 H 0.7743 0.4161 0.4139
H19_8 H 0.9806 0.8464 0.2184
Cl1_6 Cl 0.6013(2) 0.8504(2) 0.03065(10)
Cl2_6 Cl 0.3987(2) 0.6496(2) 0.03065(10)
H22_9 H 0.5439 0.5797 0.0124
Co3_4 Co 0.5000 0.2500 0.78037(6)
N3_9 N 0.5617(7) 0.3151(7) 0.8159(3)
C14_9 C 0.5667(9) 0.3956(9) 0.8156(4)
H15_9 H 0.5397 0.4218 0.7997
C15_9 C 0.6083(9) 0.4401(9) 0.8368(4)
H16_9 H 0.6086 0.4941 0.8351
C16_9 C 0.6494(9) 0.4042(11) 0.8605(4)
C17_9 C 0.6439(9) 0.3215(9) 0.8626(4)
H17_9 H 0.6677 0.2948 0.879
C18_9 C 0.6024(9) 0.2818(9) 0.8395(4)
H18_9 H 0.6027 0.2278 0.8404
N5_5 N 0.5640(7) 0.6829(7) 0.9946(3)
N6_5 N 0.4360(7) 0.8171(7) 0.9946(3)
C19_9 C 0.6006(10) 0.7157(9) 0.9706(4)
H19_9 H 0.5964 0.7694 0.9684
C20_9 C 0.6429(10) 0.6776(9) 0.9493(4)
H20_9 H 0.669 0.7044 0.9335
C21_9 C 0.6476(9) 0.5984(10) 0.9512(4)
C22_9 C 0.6100(9) 0.5644(9) 0.9748(4)
H21_9 H 0.6118 0.5105 0.9766
C23_9 C 0.5692(8) 0.6058(9) 0.9961(4)
C24_9 C 0.6934(10) 0.4517(10) 0.8848(4)
H23_9 H 0.7299 0.4851 0.8738
H24_9 H 0.7234 0.4164 0.8979
C25_9 C 0.6453(8) 0.5001(8) 0.9055(3)
H25_9 H 0.6125 0.5335 0.8927
H26_9 H 0.6119 0.4671 0.9182
C26_9 C 0.6947(10) 0.5491(10) 0.9268(4)
H27_9 H 0.7302 0.5154 0.9382
H28_9 H 0.7257 0.5839 0.9139
N3_10 N 0.4383(7) 0.1849(7) 0.8159(3)
C14_10 C 0.4333(9) 0.1044(9) 0.8156(4)
H15_10 H 0.4603 0.0782 0.7997
C15_10 C 0.3917(9) 0.0599(9) 0.8368(4)
H16_10 H 0.3914 0.0059 0.8351
C16_10 C 0.3506(9) 0.0958(11) 0.8605(4)
C17_10 C 0.3561(9) 0.1785(9) 0.8626(4)
H17_10 H 0.3323 0.2052 0.879
C18_10 C 0.3976(9) 0.2182(9) 0.8395(4)
H18_10 H 0.3973 0.2722 0.8404
C24_10 C 0.3066(10) 0.0483(10) 0.8848(4)
H23_10 H 0.2701 0.0149 0.8738
H24_10 H 0.2766 0.0836 0.8979
H26_10 H 0.3881 0.0329 0.9182
H22_10 H 0.4561 0.9203 0.0124
C19_10 C 0.3994(10) 0.7843(9) 0.9706(4)
H19_10 H 0.4036 0.7306 0.9684
C20_10 C 0.3571(10) 0.8224(9) 0.9493(4)
H20_10 H 0.331 0.7956 0.9335
C21_10 C 0.3524(9) 0.9016(10) 0.9512(4)
C22_10 C 0.3900(9) 0.9356(9) 0.9748(4)
H21_10 H 0.3882 0.9895 0.9766
C23_10 C 0.4308(8) 0.8942(9) 0.9961(4)
C25_10 C 0.3547(8) 0.9999(8) 0.9055(3)
H25_10 H 0.3875 0.9665 0.8927
C26_10 C 0.3053(10) 0.9509(10) 0.9268(4)
H27_10 H 0.2698 0.9846 0.9382
H28_10 H 0.2743 0.9161 0.9139
Cl1_7 Cl 0.6004(2) 0.1487(2) 0.78065(10)
Cl2_7 Cl 0.3996(2) 0.3513(2) 0.78065(10)
N3_11 N 0.0651(7) 0.1883(7) 0.5659(3)
C14_11 C 0.1456(9) 0.1833(9) 0.5656(4)
H15_11 H 0.1718 0.2103 0.5497
C15_11 C 0.1901(9) 0.1417(9) 0.5868(4)
H16_11 H 0.2441 0.1414 0.5851
C16_11 C 0.1542(11) 0.1006(9) 0.6105(4)
C17_11 C 0.0715(9) 0.1061(9) 0.6126(4)
H17_11 H 0.0448 0.0823 0.629
C18_11 C 0.0318(9) 0.1476(9) 0.5895(4)
N5_6 N 0.4329(7) 0.1860(7) 0.7446(3)
N6_6 N 0.5671(7) 0.3140(7) 0.7446(3)
C19_11 C 0.4657(9) 0.1494(10) 0.7206(4)
H19_11 H 0.5194 0.1536 0.7184
C20_11 C 0.4276(9) 0.1071(10) 0.6993(4)
H20_11 H 0.4544 0.081 0.6835
C21_11 C 0.3484(10) 0.1024(9) 0.7012(4)
C22_11 C 0.3144(9) 0.1400(9) 0.7248(4)
H21_11 H 0.2605 0.1382 0.7266
C23_11 C 0.3558(9) 0.1808(8) 0.7461(4)
H22_11 H 0.3297 0.2061 0.7624
C24_11 C 0.2017(10) 0.0566(10) 0.6348(4)
H23_11 H 0.2351 0.0201 0.6238
H24_11 H 0.1664 0.0266 0.6479
C25_11 C 0.2501(8) 0.1047(8) 0.6555(3)
H25_11 H 0.2835 0.1375 0.6427
H26_11 H 0.2171 0.1381 0.6682
C26_11 C 0.2991(10) 0.0553(10) 0.6768(4)
H27_11 H 0.2654 0.0198 0.6882
H28_11 H 0.3339 0.0243 0.6639
H18_11 H 0.9778 0.1473 0.5904
H18_12 H 0.0222 0.3527 0.5904
N3_12 N 0.9349(7) 0.3117(7) 0.5659(3)
C14_12 C 0.8544(9) 0.3167(9) 0.5656(4)
H15_12 H 0.8282 0.2897 0.5497
C15_12 C 0.8099(9) 0.3583(9) 0.5868(4)
H16_12 H 0.7559 0.3586 0.5851
C16_12 C 0.8458(11) 0.3994(9) 0.6105(4)
C17_12 C 0.9285(9) 0.3939(9) 0.6126(4)
H17_12 H 0.9552 0.4177 0.629
C18_12 C 0.9682(9) 0.3524(9) 0.5895(4)
C19_12 C 0.5343(9) 0.3506(10) 0.7206(4)
H19_12 H 0.4806 0.3464 0.7184
C20_12 C 0.5724(9) 0.3929(10) 0.6993(4)
H20_12 H 0.5456 0.419 0.6835
C21_12 C 0.6516(10) 0.3976(9) 0.7012(4)
C22_12 C 0.6856(9) 0.3600(9) 0.7248(4)
H21_12 H 0.7395 0.3618 0.7266
C23_12 C 0.6442(9) 0.3192(8) 0.7461(4)
H22_12 H 0.6703 0.2939 0.7624
C24_12 C 0.7983(10) 0.4434(10) 0.6348(4)
H23_12 H 0.7649 0.4799 0.6238
H24_12 H 0.8336 0.4734 0.6479
C25_12 C 0.7499(8) 0.3953(8) 0.6555(3)
H25_12 H 0.7165 0.3625 0.6427
H26_12 H 0.7829 0.3619 0.6682
C26_12 C 0.7009(10) 0.4447(10) 0.6768(4)
H27_12 H 0.7346 0.4802 0.6882
H28_12 H 0.6661 0.4757 0.6639
Cl1_8 Cl 0.1013(2) 0.3504(2) 0.53065(10)
Cl2_8 Cl 0.8987(2) 0.1496(2) 0.53065(10)
Co4 Co 0.0000 0.7500 0.65957(9)
Cl3 Cl 0.1021(4) 0.6507(3) 0.65873(14)
N7 N 0.0660(11) 0.8121(9) 0.6233(4)
C27 C 0.1440(15) 0.8185(13) 0.6247(5)
H29 H 0.1701 0.7955 0.6415
C28 C 0.1878(13) 0.8588(13) 0.6017(6)
H30 H 0.2419 0.8578 0.6026
C29 C 0.1522(14) 0.8986(11) 0.5784(5)
C30 C 0.0730(14) 0.8958(12) 0.5782(5)
H31 H 0.0461 0.9236 0.5628
C31 C 0.0323(13) 0.8544(13) 0.5995(5)
N8 N 0.4338(11) 0.8131(11) 0.4461(5)
C32 C 0.4695(14) 0.8471(16) 0.4677(5)
H33 H 0.5234 0.8447 0.4695
C33 C 0.4231(17) 0.8903(19) 0.4898(6)
H34 H 0.4494 0.9155 0.506
C34 C 0.3459(14) 0.8979(13) 0.4892(5)
C35 C 0.3124(12) 0.8636(16) 0.4647(6)
H35 H 0.2595 0.8704 0.4611
C36 C 0.3558(14) 0.8173(15) 0.4440(6)
H36 H 0.3303 0.7887 0.4285
C37 C 0.2003(14) 0.9466(13) 0.5547(6)
H37 H 0.1651 0.9771 0.5418
H38 H 0.2329 0.9825 0.5664
C38 C 0.2500(13) 0.8994(13) 0.5338(5)
H39 H 0.2173 0.8662 0.5209
H40 H 0.2829 0.8662 0.5467
C39 C 0.3005(13) 0.9483(13) 0.5126(5)
H41 H 0.3368 0.978 0.5254
H42 H 0.2682 0.9847 0.501
Co5 Co 0.5000 0.7500 0.40957(9)
Co6 Co 0.0000 0.2500 0.90957(9)
N12 N 0.0631(11) 0.8162(11) 0.6961(5)
Co4_2 Co 1.0000 0.7500 0.65957(9)
H32 H 0.9783 0.8544 0.598
Co6_2 Co 1.0000 0.2500 0.90957(9)
Cl4 Cl 0.8979(4) 0.8493(3) 0.65873(14)
N9 N 0.9379(9) 0.3160(11) 0.8733(4)
N10 N 0.9340(11) 0.6879(9) 0.6233(4)
C40 C 0.9315(13) 0.3940(15) 0.8747(5)
H43 H 0.9545 0.4201 0.8915
C41 C 0.8912(13) 0.4378(13) 0.8517(6)
H44 H 0.8922 0.4919 0.8526
C42 C 0.8514(11) 0.4022(14) 0.8284(5)
C43 C 0.8542(12) 0.3230(14) 0.8282(5)
H45 H 0.8264 0.2961 0.8128
C44 C 0.8956(13) 0.2823(13) 0.8495(5)
H46 H 0.8956 0.2283 0.848
N11 N 0.9369(11) 0.6838(11) 0.6961(5)
C45 C 0.9029(16) 0.7195(14) 0.7177(5)
H47 H 0.9053 0.7734 0.7195
C46 C 0.8597(19) 0.6731(17) 0.7398(6)
H48 H 0.8345 0.6994 0.756
C47 C 0.8521(13) 0.5959(14) 0.7392(5)
C48 C 0.8864(16) 0.5624(12) 0.7147(6)
H49 H 0.8796 0.5095 0.7111
C49 C 0.9327(15) 0.6058(14) 0.6940(6)
H50 H 0.9613 0.5803 0.6785
C50 C 0.8034(13) 0.4503(14) 0.8047(6)
H51 H 0.7729 0.4151 0.7918
H52 H 0.7675 0.4829 0.8164
C51 C 0.8506(13) 0.5000(13) 0.7838(5)
H53 H 0.8838 0.4673 0.7709
H54 H 0.8838 0.5329 0.7967
C52 C 0.8017(13) 0.5505(13) 0.7626(5)
H55 H 0.772 0.5868 0.7754
H56 H 0.7653 0.5182 0.751
N9_2 N 0.0621(9) 0.1840(11) 0.8733(4)
C40_2 C 0.0685(13) 0.1060(15) 0.8747(5)
H43_2 H 0.0455 0.0799 0.8915
C41_2 C 0.1088(13) 0.0622(13) 0.8517(6)
H44_2 H 0.1078 0.0081 0.8526
C42_2 C 0.1486(11) 0.0978(14) 0.8284(5)
C43_2 C 0.1458(12) 0.1770(14) 0.8282(5)
H45_2 H 0.1736 0.2039 0.8128
C44_2 C 0.1044(13) 0.2177(13) 0.8495(5)
H46_2 H 0.1044 0.2717 0.848
C50_2 C 0.1966(13) 0.0497(14) 0.8047(6)
H51_2 H 0.2271 0.0849 0.7918
H52_2 H 0.2325 0.0171 0.8164
C51_2 C 0.1494(13) 0.0000(13) 0.7838(5)
H53_2 H 0.1162 0.0327 0.7709
H32_2 H 0.0217 0.6456 0.598
C45_2 C 0.0971(16) 0.7805(14) 0.7177(5)
H47_2 H 0.0947 0.7266 0.7195
C46_2 C 0.1403(19) 0.8269(17) 0.7398(6)
H48_2 H 0.1655 0.8006 0.756
C47_2 C 0.1479(13) 0.9041(14) 0.7392(5)
C48_2 C 0.1136(16) 0.9376(12) 0.7147(6)
H49_2 H 0.1204 0.9905 0.7111
C49_2 C 0.0673(15) 0.8942(14) 0.6940(6)
H50_2 H 0.0387 0.9197 0.6785
C51_3 C 0.1494(13) 1.0000(13) 0.7838(5)
H54_2 H 0.1162 0.9671 0.7967
C52_2 C 0.1983(13) 0.9495(13) 0.7626(5)
H55_2 H 0.228 0.9132 0.7754
H56_2 H 0.2347 0.9818 0.751
C27_2 C 0.8560(15) 0.6815(13) 0.6247(5)
H29_2 H 0.8299 0.7045 0.6415
C28_2 C 0.8122(13) 0.6412(13) 0.6017(6)
H30_2 H 0.7581 0.6422 0.6026
C29_2 C 0.8478(14) 0.6014(11) 0.5784(5)
C30_2 C 0.9270(14) 0.6042(12) 0.5782(5)
H31_2 H 0.9539 0.5764 0.5628
C31_2 C 0.9677(13) 0.6456(13) 0.5995(5)
N8_2 N 0.5662(11) 0.6869(11) 0.4461(5)
C32_2 C 0.5305(14) 0.6529(16) 0.4677(5)
H33_2 H 0.4766 0.6553 0.4695
C33_2 C 0.5769(17) 0.6097(19) 0.4898(6)
H34_2 H 0.5506 0.5845 0.506
C34_2 C 0.6541(14) 0.6021(13) 0.4892(5)
C35_2 C 0.6876(12) 0.6364(16) 0.4647(6)
H35_2 H 0.7405 0.6296 0.4611
C36_2 C 0.6442(14) 0.6827(15) 0.4440(6)
H36_2 H 0.6697 0.7113 0.4285
C37_2 C 0.7997(14) 0.5534(13) 0.5547(6)
H37_2 H 0.8349 0.5229 0.5418
H38_2 H 0.7671 0.5175 0.5664
C38_2 C 0.7500(13) 0.6006(13) 0.5338(5)
H39_2 H 0.7827 0.6338 0.5209
H40_2 H 0.7171 0.6338 0.5467
C39_2 C 0.6995(13) 0.5517(13) 0.5126(5)
H41_2 H 0.6632 0.522 0.5254
H42_2 H 0.7318 0.5153 0.501
Co6_3 Co 0.5000 0.2500 0.15957(9)
N9_3 N 0.4340(11) 0.1879(9) 0.1233(4)
C40_3 C 0.3560(15) 0.1815(13) 0.1247(5)
H43_3 H 0.3299 0.2045 0.1415
C41_3 C 0.3122(13) 0.1412(13) 0.1017(6)
H44_3 H 0.2581 0.1422 0.1026
C42_3 C 0.3478(14) 0.1014(11) 0.0784(5)
C43_3 C 0.4270(14) 0.1042(12) 0.0782(5)
H45_3 H 0.4539 0.0764 0.0628
C44_3 C 0.4677(13) 0.1456(13) 0.0995(5)
H46_3 H 0.5217 0.1456 0.098
H48_3 H 0.0506 0.0845 0.006
C50_3 C 0.2997(14) 0.0534(13) 0.0547(6)
H51_3 H 0.3349 0.0229 0.0418
H52_3 H 0.2671 0.0175 0.0664
C51_4 C 0.2500(13) 0.1006(13) 0.0338(5)
H53_3 H 0.2827 0.1338 0.0209
H54_3 H 0.2171 0.1338 0.0467
C52_3 C 0.1995(13) 0.0517(13) 0.0126(5)
H55_3 H 0.1632 0.022 0.0254
H56_3 H 0.2318 0.0153 0.001
Cl3_2 Cl 0.0993(3) 0.3521(4) 0.90873(14)
N11_2 N 0.0662(11) 0.1869(11) 0.9461(5)
C45_3 C 0.0305(14) 0.1529(16) 0.9677(5)
C46_3 C 0.0769(17) 0.1097(19) 0.9898(6)
C47_3 C 0.1541(14) 0.1021(13) 0.9892(5)
C48_3 C 0.1876(12) 0.1364(16) 0.9647(6)
H49_3 H 0.2405 0.1296 0.9611
C49_3 C 0.1442(14) 0.1827(15) 0.9440(6)
H50_3 H 0.1697 0.2113 0.9285
Cl4_2 Cl 0.9007(3) 0.1479(4) 0.90873(14)
N12_2 N 0.9338(11) 0.3131(11) 0.9461(5)
H47_3 H 0.9766 0.1553 0.9695
H47_4 H 0.0234 0.3447 0.9695
N9_4 N 0.5660(11) 0.3121(9) 0.1233(4)
C40_4 C 0.6440(15) 0.3185(13) 0.1247(5)
H43_4 H 0.6701 0.2955 0.1415
C41_4 C 0.6878(13) 0.3588(13) 0.1017(6)
H44_4 H 0.7419 0.3578 0.1026
C42_4 C 0.6522(14) 0.3986(11) 0.0784(5)
C43_4 C 0.5730(14) 0.3958(12) 0.0782(5)
H45_4 H 0.5461 0.4236 0.0628
C44_4 C 0.5323(13) 0.3544(13) 0.0995(5)
H46_4 H 0.4783 0.3544 0.098
H48_4 H 0.9494 0.4155 0.006
C50_4 C 0.7003(14) 0.4466(13) 0.0547(6)
H51_4 H 0.6651 0.4771 0.0418
H52_4 H 0.7329 0.4825 0.0664
C51_5 C 0.7500(13) 0.3994(13) 0.0338(5)
H53_4 H 0.7173 0.3662 0.0209
H54_4 H 0.7829 0.3662 0.0467
C52_4 C 0.8005(13) 0.4483(13) 0.0126(5)
H55_4 H 0.8368 0.478 0.0254
H56_4 H 0.7682 0.4847 0.001
C45_4 C 0.9695(14) 0.3471(16) 0.9677(5)
C46_4 C 0.9231(17) 0.3903(19) 0.9898(6)
C47_4 C 0.8459(14) 0.3979(13) 0.9892(5)
C48_4 C 0.8124(12) 0.3636(16) 0.9647(6)
H49_4 H 0.7595 0.3704 0.9611
C49_4 C 0.8558(14) 0.3173(15) 0.9440(6)
H50_4 H 0.8303 0.2887 0.9285
Cl3_3 Cl 0.6021(4) 0.1507(3) 0.15873(14)
Cl4_3 Cl 0.3979(4) 0.3493(3) 0.15873(14)
N11_3 N 0.4369(11) 0.1838(11) 0.1961(5)
N12_3 N 0.5631(11) 0.3162(11) 0.1961(5)
C45_5 C 0.4029(16) 0.2195(14) 0.2177(5)
H47_5 H 0.4053 0.2734 0.2195
C46_5 C 0.3597(19) 0.1731(17) 0.2398(6)
H48_5 H 0.3345 0.1994 0.256
C47_5 C 0.3521(13) 0.0959(14) 0.2392(5)
C48_5 C 0.3864(16) 0.0624(12) 0.2147(6)
H49_5 H 0.3796 0.0095 0.2111
C49_5 C 0.4327(15) 0.1058(14) 0.1940(6)
H50_5 H 0.4613 0.0803 0.1785
C51_6 C 0.3506(13) 0.0000(13) 0.2838(5)
H54_5 H 0.3838 0.0329 0.2967
C52_5 C 0.3017(13) 0.0505(13) 0.2626(5)
H55_5 H 0.272 0.0868 0.2754
H56_5 H 0.2653 0.0182 0.251
N9_5 N 0.4379(9) 0.8160(11) 0.3733(4)
C40_5 C 0.4315(13) 0.8940(15) 0.3747(5)
H43_5 H 0.4545 0.9201 0.3915
C41_5 C 0.3912(13) 0.9378(13) 0.3517(6)
H44_5 H 0.3922 0.9919 0.3526
C42_5 C 0.3514(11) 0.9022(14) 0.3284(5)
C43_5 C 0.3542(12) 0.8230(14) 0.3282(5)
H45_5 H 0.3264 0.7961 0.3128
C44_5 C 0.3956(13) 0.7823(13) 0.3495(5)
H46_5 H 0.3956 0.7283 0.348
C50_5 C 0.3034(13) 0.9503(14) 0.3047(6)
H51_5 H 0.2729 0.9151 0.2918
H52_5 H 0.2675 0.9829 0.3164
C51_7 C 0.3506(13) 1.0000(13) 0.2838(5)
H53_5 H 0.3838 0.9673 0.2709
N9_6 N 0.5621(9) 0.6840(11) 0.3733(4)
C40_6 C 0.5685(13) 0.6060(15) 0.3747(5)
H43_6 H 0.5455 0.5799 0.3915
C41_6 C 0.6088(13) 0.5622(13) 0.3517(6)
H44_6 H 0.6078 0.5081 0.3526
C42_6 C 0.6486(11) 0.5978(14) 0.3284(5)
C43_6 C 0.6458(12) 0.6770(14) 0.3282(5)
H45_6 H 0.6736 0.7039 0.3128
C44_6 C 0.6044(13) 0.7177(13) 0.3495(5)
H46_6 H 0.6044 0.7717 0.348
C45_6 C 0.5971(16) 0.2805(14) 0.2177(5)
H47_6 H 0.5947 0.2266 0.2195
C46_6 C 0.6403(19) 0.3269(17) 0.2398(6)
H48_6 H 0.6655 0.3006 0.256
C47_6 C 0.6479(13) 0.4041(14) 0.2392(5)
C48_6 C 0.6136(16) 0.4376(12) 0.2147(6)
H49_6 H 0.6204 0.4905 0.2111
C49_6 C 0.5673(15) 0.3942(14) 0.1940(6)
H50_6 H 0.5387 0.4197 0.1785
C50_6 C 0.6966(13) 0.5497(14) 0.3047(6)
H51_6 H 0.7271 0.5849 0.2918
H52_6 H 0.7325 0.5171 0.3164
C51_8 C 0.6494(13) 0.5000(13) 0.2838(5)
H53_6 H 0.6162 0.5327 0.2709
H54_6 H 0.6162 0.4671 0.2967
C52_6 C 0.6983(13) 0.4495(13) 0.2626(5)
H55_6 H 0.728 0.4132 0.2754
H56_6 H 0.7347 0.4818 0.251
Cl3_4 Cl 0.5993(3) 0.8521(4) 0.40873(14)
Cl4_4 Cl 0.4007(3) 0.6479(4) 0.40873(14)
Co4_3 Co -0.0000 0.2500 0.34043(9)
H32_3 H 0.0217 0.1456 0.402
Co6_4 Co 0.0000 0.7500 0.09043(9)
Cl4_5 Cl 0.1021(4) 0.1507(3) 0.34127(14)
N9_7 N 0.0621(9) 0.6840(11) 0.1267(4)
N10_2 N 0.0660(11) 0.3121(9) 0.3767(4)
C40_7 C 0.0685(13) 0.6060(15) 0.1253(5)
H43_7 H 0.0455 0.5799 0.1085
C41_7 C 0.1088(13) 0.5622(13) 0.1483(6)
H44_7 H 0.1078 0.5081 0.1474
C42_7 C 0.1486(11) 0.5978(14) 0.1716(5)
C43_7 C 0.1458(12) 0.6770(14) 0.1718(5)
H45_7 H 0.1736 0.7039 0.1872
C44_7 C 0.1044(13) 0.7177(13) 0.1505(5)
H46_7 H 0.1044 0.7717 0.152
N11_4 N 0.0631(11) 0.3162(11) 0.3039(5)
C45_7 C 0.0971(16) 0.2805(14) 0.2823(5)
H47_7 H 0.0947 0.2266 0.2805
C46_7 C 0.1403(19) 0.3269(17) 0.2602(6)
H48_7 H 0.1655 0.3006 0.244
C47_7 C 0.1479(13) 0.4041(14) 0.2608(5)
C48_7 C 0.1136(16) 0.4376(12) 0.2853(6)
H49_7 H 0.1204 0.4905 0.2889
C49_7 C 0.0673(15) 0.3942(14) 0.3060(6)
H50_7 H 0.0387 0.4197 0.3215
C50_7 C 0.1966(13) 0.5497(14) 0.1953(6)
H51_7 H 0.2271 0.5849 0.2082
H52_7 H 0.2325 0.5171 0.1836
C51_9 C 0.1494(13) 0.5000(13) 0.2162(5)
H53_7 H 0.1162 0.5327 0.2291
H54_7 H 0.1162 0.4671 0.2033
C52_7 C 0.1983(13) 0.4495(13) 0.2374(5)
H55_7 H 0.228 0.4132 0.2246
H56_7 H 0.2347 0.4818 0.249
Co4_4 Co 1.0000 0.2500 0.34043(9)
Cl3_5 Cl 0.8979(4) 0.3493(3) 0.34127(14)
N7_2 N 0.9340(11) 0.1879(9) 0.3767(4)
C27_3 C 0.8560(15) 0.1815(13) 0.3753(5)
H29_3 H 0.8299 0.2045 0.3585
C28_3 C 0.8122(13) 0.1412(13) 0.3983(6)
H30_3 H 0.7581 0.1422 0.3974
C29_3 C 0.8478(14) 0.1014(11) 0.4216(5)
C30_3 C 0.9270(14) 0.1042(12) 0.4218(5)
H31_3 H 0.9539 0.0764 0.4372
C31_3 C 0.9677(13) 0.1456(13) 0.4005(5)
N8_3 N 0.5662(11) 0.1869(11) 0.5539(5)
C32_3 C 0.5305(14) 0.1529(16) 0.5323(5)
H33_3 H 0.4766 0.1553 0.5305
C33_3 C 0.5769(17) 0.1097(19) 0.5102(6)
H34_3 H 0.5506 0.0845 0.494
C34_3 C 0.6541(14) 0.1021(13) 0.5108(5)
C35_3 C 0.6876(12) 0.1364(16) 0.5353(6)
H35_3 H 0.7405 0.1296 0.5389
C36_3 C 0.6442(14) 0.1827(15) 0.5560(6)
H36_3 H 0.6697 0.2113 0.5715
C37_3 C 0.7997(14) 0.0534(13) 0.4453(6)
H37_3 H 0.8349 0.0229 0.4582
H38_3 H 0.7671 0.0175 0.4336
C38_3 C 0.7500(13) 0.1006(13) 0.4662(5)
H39_3 H 0.7827 0.1338 0.4791
H40_3 H 0.7171 0.1338 0.4533
C39_3 C 0.6995(13) 0.0517(13) 0.4874(5)
H41_3 H 0.6632 0.022 0.4746
H42_3 H 0.7318 0.0153 0.499
Co5_2 Co 0.5000 0.2500 0.59043(9)
Co6_5 Co 1.0000 0.7500 0.09043(9)
N12_4 N 0.9369(11) 0.1838(11) 0.3039(5)
C27_4 C 0.1440(15) 0.3185(13) 0.3753(5)
H29_4 H 0.1701 0.2955 0.3585
C28_4 C 0.1878(13) 0.3588(13) 0.3983(6)
H30_4 H 0.2419 0.3578 0.3974
C29_4 C 0.1522(14) 0.3986(11) 0.4216(5)
C30_4 C 0.0730(14) 0.3958(12) 0.4218(5)
H31_4 H 0.0461 0.4236 0.4372
C31_4 C 0.0323(13) 0.3544(13) 0.4005(5)
N8_4 N 0.4338(11) 0.3131(11) 0.5539(5)
C32_4 C 0.4695(14) 0.3471(16) 0.5323(5)
H33_4 H 0.5234 0.3447 0.5305
C33_4 C 0.4231(17) 0.3903(19) 0.5102(6)
H34_4 H 0.4494 0.4155 0.494
C34_4 C 0.3459(14) 0.3979(13) 0.5108(5)
C35_4 C 0.3124(12) 0.3636(16) 0.5353(6)
H35_4 H 0.2595 0.3704 0.5389
C36_4 C 0.3558(14) 0.3173(15) 0.5560(6)
H36_4 H 0.3303 0.2887 0.5715
C37_4 C 0.2003(14) 0.4466(13) 0.4453(6)
H37_4 H 0.1651 0.4771 0.4582
H38_4 H 0.2329 0.4825 0.4336
C38_4 C 0.2500(13) 0.3994(13) 0.4662(5)
H39_4 H 0.2173 0.3662 0.4791
H40_4 H 0.2829 0.3662 0.4533
C39_4 C 0.3005(13) 0.4483(13) 0.4874(5)
H41_4 H 0.3368 0.478 0.4746
H42_4 H 0.2682 0.4847 0.499
H32_4 H 0.9783 0.3544 0.402
C45_8 C 0.9029(16) 0.2195(14) 0.2823(5)
H47_8 H 0.9053 0.2734 0.2805
C46_8 C 0.8597(19) 0.1731(17) 0.2602(6)
H48_8 H 0.8345 0.1994 0.244
C47_8 C 0.8521(13) 0.0959(14) 0.2608(5)
C48_8 C 0.8864(16) 0.0624(12) 0.2853(6)
H49_8 H 0.8796 0.0095 0.2889
C49_8 C 0.9327(15) 0.1058(14) 0.3060(6)
H50_8 H 0.9613 0.0803 0.3215
C51_10 C 0.8506(13) 0.0000(13) 0.2162(5)
H54_8 H 0.8838 0.0329 0.2033
C52_8 C 0.8017(13) 0.0505(13) 0.2374(5)
H55_8 H 0.772 0.0868 0.2246
H56_8 H 0.7653 0.0182 0.249
N9_8 N 0.9379(9) 0.8160(11) 0.1267(4)
C40_8 C 0.9315(13) 0.8940(15) 0.1253(5)
H43_8 H 0.9545 0.9201 0.1085
C41_8 C 0.8912(13) 0.9378(13) 0.1483(6)
H44_8 H 0.8922 0.9919 0.1474
C42_8 C 0.8514(11) 0.9022(14) 0.1716(5)
C43_8 C 0.8542(12) 0.8230(14) 0.1718(5)
H45_8 H 0.8264 0.7961 0.1872
C44_8 C 0.8956(13) 0.7823(13) 0.1505(5)
H46_8 H 0.8956 0.7283 0.152
C50_8 C 0.8034(13) 0.9503(14) 0.1953(6)
H51_8 H 0.7729 0.9151 0.2082
H52_8 H 0.7675 0.9829 0.1836
C51_11 C 0.8506(13) 1.0000(13) 0.2162(5)
H53_8 H 0.8838 0.9673 0.2291
Cl4_6 Cl 0.0993(3) 0.8521(4) 0.09127(14)
N12_5 N 0.0662(11) 0.6869(11) 0.0539(5)
H47_9 H 0.0234 0.8447 0.0305
Cl3_6 Cl 0.9007(3) 0.6479(4) 0.09127(14)
N11_5 N 0.9338(11) 0.8131(11) 0.0539(5)
C45_9 C 0.9695(14) 0.8471(16) 0.0323(5)
C46_9 C 0.9231(17) 0.8903(19) 0.0102(6)
C47_9 C 0.8459(14) 0.8979(13) 0.0108(5)
C48_9 C 0.8124(12) 0.8636(16) 0.0353(6)
H49_9 H 0.7595 0.8704 0.0389
C49_9 C 0.8558(14) 0.8173(15) 0.0560(6)
H50_9 H 0.8303 0.7887 0.0715
Co6_6 Co 0.5000 0.7500 0.84043(9)
N9_9 N 0.5660(11) 0.8121(9) 0.8767(4)
C40_9 C 0.6440(15) 0.8185(13) 0.8753(5)
H43_9 H 0.6701 0.7955 0.8585
C41_9 C 0.6878(13) 0.8588(13) 0.8983(6)
H44_9 H 0.7419 0.8578 0.8974
C42_9 C 0.6522(14) 0.8986(11) 0.9216(5)
C43_9 C 0.5730(14) 0.8958(12) 0.9218(5)
H45_9 H 0.5461 0.9236 0.9372
C44_9 C 0.5323(13) 0.8544(13) 0.9005(5)
H46_9 H 0.4783 0.8544 0.902
H48_9 H 0.9494 0.9155 0.994
C50_9 C 0.7003(14) 0.9466(13) 0.9453(6)
H51_9 H 0.6651 0.9771 0.9582
H52_9 H 0.7329 0.9825 0.9336
C51_12 C 0.7500(13) 0.8994(13) 0.9662(5)
H53_9 H 0.7173 0.8662 0.9791
H54_9 H 0.7829 0.8662 0.9533
C52_9 C 0.8005(13) 0.9483(13) 0.9874(5)
H55_9 H 0.8368 0.978 0.9746
H56_9 H 0.7682 0.9847 0.999
C45_10 C 0.0305(14) 0.6529(16) 0.0323(5)
C46_10 C 0.0769(17) 0.6097(19) 0.0102(6)
C47_10 C 0.1541(14) 0.6021(13) 0.0108(5)
C48_10 C 0.1876(12) 0.6364(16) 0.0353(6)
H49_10 H 0.2405 0.6296 0.0389
C49_10 C 0.1442(14) 0.6827(15) 0.0560(6)
H50_10 H 0.1697 0.7113 0.0715
N9_10 N 0.4340(11) 0.6879(9) 0.8767(4)
C40_10 C 0.3560(15) 0.6815(13) 0.8753(5)
H43_10 H 0.3299 0.7045 0.8585
C41_10 C 0.3122(13) 0.6412(13) 0.8983(6)
H44_10 H 0.2581 0.6422 0.8974
C42_10 C 0.3478(14) 0.6014(11) 0.9216(5)
C43_10 C 0.4270(14) 0.6042(12) 0.9218(5)
H45_10 H 0.4539 0.5764 0.9372
C44_10 C 0.4677(13) 0.6456(13) 0.9005(5)
H46_10 H 0.5217 0.6456 0.902
H48_10 H 0.0506 0.5845 0.994
C50_10 C 0.2997(14) 0.5534(13) 0.9453(6)
H51_10 H 0.3349 0.5229 0.9582
H52_10 H 0.2671 0.5175 0.9336
C51_13 C 0.2500(13) 0.6006(13) 0.9662(5)
H53_10 H 0.2827 0.6338 0.9791
H54_10 H 0.2171 0.6338 0.9533
C52_10 C 0.1995(13) 0.5517(13) 0.9874(5)
H55_10 H 0.1632 0.522 0.9746
H56_10 H 0.2318 0.5153 0.999
H47_10 H 0.9766 0.6553 0.0305
N9_11 N 0.5621(9) 0.1840(11) 0.6267(4)
C40_11 C 0.5685(13) 0.1060(15) 0.6253(5)
H43_11 H 0.5455 0.0799 0.6085
C41_11 C 0.6088(13) 0.0622(13) 0.6483(6)
H44_11 H 0.6078 0.0081 0.6474
C42_11 C 0.6486(11) 0.0978(14) 0.6716(5)
C43_11 C 0.6458(12) 0.1770(14) 0.6718(5)
H45_11 H 0.6736 0.2039 0.6872
C44_11 C 0.6044(13) 0.2177(13) 0.6505(5)
H46_11 H 0.6044 0.2717 0.652
C50_11 C 0.6966(13) 0.0497(14) 0.6953(6)
H51_11 H 0.7271 0.0849 0.7082
H52_11 H 0.7325 0.0171 0.6836
C51_14 C 0.6494(13) 0.0000(13) 0.7162(5)
H53_11 H 0.6162 0.0327 0.7291
Cl3_7 Cl 0.3979(4) 0.8493(3) 0.84127(14)
Cl4_7 Cl 0.6021(4) 0.6507(3) 0.84127(14)
N11_6 N 0.5631(11) 0.8162(11) 0.8039(5)
N12_6 N 0.4369(11) 0.6838(11) 0.8039(5)
C45_11 C 0.5971(16) 0.7805(14) 0.7823(5)
H47_11 H 0.5947 0.7266 0.7805
C46_11 C 0.6403(19) 0.8269(17) 0.7602(6)
H48_11 H 0.6655 0.8006 0.744
C47_11 C 0.6479(13) 0.9041(14) 0.7608(5)
C48_11 C 0.6136(16) 0.9376(12) 0.7853(6)
H49_11 H 0.6204 0.9905 0.7889
C49_11 C 0.5673(15) 0.8942(14) 0.8060(6)
H50_11 H 0.5387 0.9197 0.8215
C51_15 C 0.6494(13) 1.0000(13) 0.7162(5)
H54_11 H 0.6162 0.9671 0.7033
C52_11 C 0.6983(13) 0.9495(13) 0.7374(5)
H55_11 H 0.728 0.9132 0.7246
H56_11 H 0.7347 0.9818 0.749
N9_12 N 0.4379(9) 0.3160(11) 0.6267(4)
C40_12 C 0.4315(13) 0.3940(15) 0.6253(5)
H43_12 H 0.4545 0.4201 0.6085
C41_12 C 0.3912(13) 0.4378(13) 0.6483(6)
H44_12 H 0.3922 0.4919 0.6474
C42_12 C 0.3514(11) 0.4022(14) 0.6716(5)
C43_12 C 0.3542(12) 0.3230(14) 0.6718(5)
H45_12 H 0.3264 0.2961 0.6872
C44_12 C 0.3956(13) 0.2823(13) 0.6505(5)
H46_12 H 0.3956 0.2283 0.652
C45_12 C 0.4029(16) 0.7195(14) 0.7823(5)
H47_12 H 0.4053 0.7734 0.7805
C46_12 C 0.3597(19) 0.6731(17) 0.7602(6)
H48_12 H 0.3345 0.6994 0.744
C47_12 C 0.3521(13) 0.5959(14) 0.7608(5)
C48_12 C 0.3864(16) 0.5624(12) 0.7853(6)
H49_12 H 0.3796 0.5095 0.7889
C49_12 C 0.4327(15) 0.6058(14) 0.8060(6)
H50_12 H 0.4613 0.5803 0.8215
C50_12 C 0.3034(13) 0.4503(14) 0.6953(6)
H51_12 H 0.2729 0.4151 0.7082
H52_12 H 0.2675 0.4829 0.6836
C51_16 C 0.3506(13) 0.5000(13) 0.7162(5)
H53_12 H 0.3838 0.4673 0.7291
H54_12 H 0.3838 0.5329 0.7033
C52_12 C 0.3017(13) 0.5505(13) 0.7374(5)
H55_12 H 0.272 0.5868 0.7246
H56_12 H 0.2653 0.5182 0.749
Cl3_8 Cl 0.4007(3) 0.1479(4) 0.59127(14)
Cl4_8 Cl 0.5993(3) 0.3521(4) 0.59127(14)
loop_
_geom_bond_atom_site_label_1
_geom_bond_atom_site_label_2
_geom_bond_site_symmetry_1
_geom_bond_site_symmetry_2
Co3 N3 1_555 1_555
Cl2 Co1 1_555 1_555
N3 C14 1_555 1_555
N4 Co1 1_555 1_555
C14 H15 1_555 1_555
C15 C14 1_555 1_555
H16 C15 1_555 1_555
C16 C15 1_555 1_555
C17 C16 1_555 1_555
H17 C17 1_555 1_555
C18 N3 1_555 1_555
H18 C18 1_555 1_555
N5 Co1 1_555 1_555
C19 N5 1_555 1_555
C20 C19 1_555 1_555
H20 C20 1_555 1_555
C21 C20 1_555 1_555
C22 C21 1_555 1_555
H21 C22 1_555 1_555
C23 N5 1_555 1_555
H22 C23 1_555 1_555
C24 C16 1_555 1_555
H23 C24 1_555 1_555
H24 C24 1_555 1_555
C25 C24 1_555 1_555
H25 C25 1_555 1_555
H26 C25 1_555 1_555
C26 C21 1_555 1_555
H27 C26 1_555 1_555
H28 C26 1_555 1_555
C17 C18 1_555 1_555
C22 C23 1_555 1_555
C25 C26 1_555 1_555
Co1_2 Cl1 1_555 1_555
N1 Co1_2 1_555 1_555
C1 N1 1_555 1_555
H1 C1 1_555 1_555
C2 C1 1_555 1_555
H2 C2 1_555 1_555
C3 C2 1_555 1_555
C4 C3 1_555 1_555
H3 C4 1_555 1_555
C5 N1 1_555 1_555
H4 C5 1_555 1_555
C11 C3 1_555 1_555
H9 C11 1_555 1_555
H10 C11 1_555 1_555
N6 Co1_2 1_555 1_555
C4 C5 1_555 1_555
N2 C6 1_555 1_555
C6 H5 1_555 1_555
C7 C6 1_555 1_555
H6 C7 1_555 1_555
C8 C7 1_555 1_555
C9 C8 1_555 1_555
H7 C9 1_555 1_555
C10 N2 1_555 1_555
H8 C10 1_555 1_555
H11 C12 1_555 1_555
C13 C8 1_555 1_555
H13 C13 1_555 1_555
H14 C13 1_555 1_555
Co2_2 N2 1_555 1_555
C9 C10 1_555 1_555
C12 C13 1_555 1_555
C1_2 N4 1_555 1_555
H1_2 C1_2 1_555 1_555
C2_2 C1_2 1_555 1_555
H2_2 C2_2 1_555 1_555
C3_2 C2_2 1_555 1_555
C4_2 C3_2 1_555 1_555
H3_2 C4_2 1_555 1_555
C5_2 N4 1_555 1_555
H4_2 C5_2 1_555 1_555
N2_2 C6_2 1_555 1_555
C6_2 H5_2 1_555 1_555
C7_2 C6_2 1_555 1_555
H6_2 C7_2 1_555 1_555
C8_2 C7_2 1_555 1_555
C9_2 C8_2 1_555 1_555
H7_2 C9_2 1_555 1_555
C10_2 N2_2 1_555 1_555
H8_2 C10_2 1_555 1_555
C11_2 C3_2 1_555 1_555
H9_2 C11_2 1_555 1_555
H10_2 C11_2 1_555 1_555
C12_2 C11_2 1_555 1_555
H11_2 C12_2 1_555 1_555
H12_2 C12_2 1_555 1_555
C13_2 C8_2 1_555 1_555
H13_2 C13_2 1_555 1_555
H14_2 C13_2 1_555 1_555
Co2 N2_2 1_555 1_555
C4_2 C5_2 1_555 1_555
C9_2 C10_2 1_555 1_555
C12_2 C13_2 1_555 1_555
Co3 N3_2 1_555 1_555
N3_2 C14_2 1_555 1_555
C14_2 H15_2 1_555 1_555
C15_2 C14_2 1_555 1_555
H16_2 C15_2 1_555 1_555
C16_2 C15_2 1_555 1_555
C17_2 C16_2 1_555 1_555
H17_2 C17_2 1_555 1_555
C18_2 N3_2 1_555 1_555
H18_2 C18_2 1_555 1_555
C19_2 N6 1_555 1_555
C20_2 C19_2 1_555 1_555
H20_2 C20_2 1_555 1_555
C21_2 C20_2 1_555 1_555
C22_2 C21_2 1_555 1_555
H21_2 C22_2 1_555 1_555
C23_2 N6 1_555 1_555
H22_2 C23_2 1_555 1_555
C24_2 C16_2 1_555 1_555
H23_2 C24_2 1_555 1_555
H24_2 C24_2 1_555 1_555
C25_2 C24_2 1_555 1_555
H25_2 C25_2 1_555 1_555
H26_2 C25_2 1_555 1_555
C26_2 C21_2 1_555 1_555
H27_2 C26_2 1_555 1_555
H28_2 C26_2 1_555 1_555
C17_2 C18_2 1_555 1_555
C22_2 C23_2 1_555 1_555
C25_2 C26_2 1_555 1_555
Co3_2 N3_3 1_555 1_555
N3_3 C14_3 1_555 1_555
C14_3 H15_3 1_555 1_555
C15_3 C14_3 1_555 1_555
H16_3 C15_3 1_555 1_555
C16_3 C15_3 1_555 1_555
C17_3 C16_3 1_555 1_555
H17_3 C17_3 1_555 1_555
C18_3 N3_3 1_555 1_555
H18_3 C18_3 1_555 1_555
C19_3 N5_2 1_555 1_555
H19_3 C19_3 1_555 1_555
C20_3 C19_3 1_555 1_555
H20_3 C20_3 1_555 1_555
C21_3 C20_3 1_555 1_555
C22_3 C21_3 1_555 1_555
H21_3 C22_3 1_555 1_555
C23_3 N5_2 1_555 1_555
C24_3 C16_3 1_555 1_555
H23_3 C24_3 1_555 1_555
H24_3 C24_3 1_555 1_555
C25_3 C24_3 1_555 1_555
H25_3 C25_3 1_555 1_555
H26_3 C25_3 1_555 1_555
C26_3 C21_3 1_555 1_555
H27_3 C26_3 1_555 1_555
H28_3 C26_3 1_555 1_555
C17_3 C18_3 1_555 1_555
C22_3 C23_3 1_555 1_555
C25_3 C26_3 1_555 1_555
Co3 Cl1_2 1_555 1_555
Cl2_2 Co3 1_555 1_555
C19_4 N6_2 1_555 1_555
H19_4 C19_4 1_555 1_555
C20_4 C19_4 1_555 1_555
H20_4 C20_4 1_555 1_555
C21_4 C20_4 1_555 1_555
C22_4 C21_4 1_555 1_555
H21_4 C22_4 1_555 1_555
C23_4 N6_2 1_555 1_555
H25_4 C25_4 1_555 1_555
C26_4 C21_4 1_555 1_555
H27_4 C26_4 1_555 1_555
H28_4 C26_4 1_555 1_555
C22_4 C23_4 1_555 1_555
C25_4 C26_4 1_555 1_555
Co3_2 N3_4 1_555 1_555
N3_4 C14_4 1_555 1_555
C14_4 H15_4 1_555 1_555
C15_4 C14_4 1_555 1_555
H16_4 C15_4 1_555 1_555
C16_4 C15_4 1_555 1_555
C17_4 C16_4 1_555 1_555
H17_4 C17_4 1_555 1_555
C18_4 N3_4 1_555 1_555
H18_4 C18_4 1_555 1_555
C24_4 C16_4 1_555 1_555
H23_4 C24_4 1_555 1_555
H24_4 C24_4 1_555 1_555
C17_4 C18_4 1_555 1_555
Co3_2 Cl1_3 1_555 1_555
Co2_2 N3_5 1_555 1_555
Cl2_3 Co3_2 1_555 1_555
N3_5 C14_5 1_555 1_555
C14_5 H15_5 1_555 1_555
C15_5 C14_5 1_555 1_555
H16_5 C15_5 1_555 1_555
C16_5 C15_5 1_555 1_555
C17_5 C16_5 1_555 1_555
H17_5 C17_5 1_555 1_555
C18_5 N3_5 1_555 1_555
N5_3 Co3_2 1_555 1_555
N6_3 Co3_2 1_555 1_555
C19_5 N5_3 1_555 1_555
H19_5 C19_5 1_555 1_555
C20_5 C19_5 1_555 1_555
H20_5 C20_5 1_555 1_555
C21_5 C20_5 1_555 1_555
C22_5 C21_5 1_555 1_555
H21_5 C22_5 1_555 1_555
C23_5 N5_3 1_555 1_555
H22_5 C23_5 1_555 1_555
C24_5 C16_5 1_555 1_555
H23_5 C24_5 1_555 1_555
H24_5 C24_5 1_555 1_555
C25_5 C24_5 1_555 1_555
H25_5 C25_5 1_555 1_555
H26_5 C25_5 1_555 1_555
C26_5 C21_5 1_555 1_555
H27_5 C26_5 1_555 1_555
H28_5 C26_5 1_555 1_555
C17_5 C18_5 1_555 1_555
C22_5 C23_5 1_555 1_555
C25_5 C26_5 1_555 1_555
Co2 N3_6 1_555 1_555
N3_6 C14_6 1_555 1_555
C14_6 H15_6 1_555 1_555
C15_6 C14_6 1_555 1_555
H16_6 C15_6 1_555 1_555
C16_6 C15_6 1_555 1_555
C17_6 C16_6 1_555 1_555
H17_6 C17_6 1_555 1_555
C18_6 N3_6 1_555 1_555
C19_6 N6_3 1_555 1_555
H19_6 C19_6 1_555 1_555
C20_6 C19_6 1_555 1_555
H20_6 C20_6 1_555 1_555
C21_6 C20_6 1_555 1_555
C22_6 C21_6 1_555 1_555
H21_6 C22_6 1_555 1_555
C23_6 N6_3 1_555 1_555
H22_6 C23_6 1_555 1_555
C24_6 C16_6 1_555 1_555
H23_6 C24_6 1_555 1_555
H24_6 C24_6 1_555 1_555
C25_6 C24_6 1_555 1_555
H25_6 C25_6 1_555 1_555
H26_6 C25_6 1_555 1_555
C26_6 C21_6 1_555 1_555
H27_6 C26_6 1_555 1_555
H28_6 C26_6 1_555 1_555
C17_6 C18_6 1_555 1_555
C22_6 C23_6 1_555 1_555
C25_6 C26_6 1_555 1_555
Cl2_4 Co2 1_555 1_555
Co2_2 Cl1_4 1_555 1_555
N2_3 C6_3 1_555 1_555
C6_3 H5_3 1_555 1_555
C7_3 C6_3 1_555 1_555
H6_3 C7_3 1_555 1_555
C8_3 C7_3 1_555 1_555
C9_3 C8_3 1_555 1_555
H7_3 C9_3 1_555 1_555
C10_3 N2_3 1_555 1_555
H8_3 C10_3 1_555 1_555
H11_3 C12_3 1_555 1_555
C13_3 C8_3 1_555 1_555
H13_3 C13_3 1_555 1_555
H14_3 C13_3 1_555 1_555
Co2_3 N2_3 1_555 1_555
C9_3 C10_3 1_555 1_555
C12_3 C13_3 1_555 1_555
Co1_3 Cl1_5 1_555 1_555
N1_2 Co1_3 1_555 1_555
C1_3 N1_2 1_555 1_555
H1_3 C1_3 1_555 1_555
C2_3 C1_3 1_555 1_555
H2_3 C2_3 1_555 1_555
C3_3 C2_3 1_555 1_555
C4_3 C3_3 1_555 1_555
H3_3 C4_3 1_555 1_555
C5_3 N1_2 1_555 1_555
H4_3 C5_3 1_555 1_555
C11_3 C3_3 1_555 1_555
H9_3 C11_3 1_555 1_555
H10_3 C11_3 1_555 1_555
N6_4 Co1_3 1_555 1_555
C4_3 C5_3 1_555 1_555
Co3_3 N3_7 1_555 1_555
Cl2_5 Co1_4 1_555 1_555
N3_7 C14_7 1_555 1_555
N4_2 Co1_4 1_555 1_555
C14_7 H15_7 1_555 1_555
C15_7 C14_7 1_555 1_555
H16_7 C15_7 1_555 1_555
C16_7 C15_7 1_555 1_555
C17_7 C16_7 1_555 1_555
H17_7 C17_7 1_555 1_555
C18_7 N3_7 1_555 1_555
H18_7 C18_7 1_555 1_555
N5_4 Co1_4 1_555 1_555
C19_7 N5_4 1_555 1_555
C20_7 C19_7 1_555 1_555
H20_7 C20_7 1_555 1_555
C21_7 C20_7 1_555 1_555
C22_7 C21_7 1_555 1_555
H21_7 C22_7 1_555 1_555
C23_7 N5_4 1_555 1_555
H22_7 C23_7 1_555 1_555
C24_7 C16_7 1_555 1_555
H23_7 C24_7 1_555 1_555
H24_7 C24_7 1_555 1_555
C25_7 C24_7 1_555 1_555
H25_7 C25_7 1_555 1_555
H26_7 C25_7 1_555 1_555
C26_7 C21_7 1_555 1_555
H27_7 C26_7 1_555 1_555
H28_7 C26_7 1_555 1_555
C17_7 C18_7 1_555 1_555
C22_7 C23_7 1_555 1_555
C25_7 C26_7 1_555 1_555
Co3_3 N3_8 1_555 1_555
N3_8 C14_8 1_555 1_555
C14_8 H15_8 1_555 1_555
C15_8 C14_8 1_555 1_555
H16_8 C15_8 1_555 1_555
C16_8 C15_8 1_555 1_555
C17_8 C16_8 1_555 1_555
H17_8 C17_8 1_555 1_555
C18_8 N3_8 1_555 1_555
H18_8 C18_8 1_555 1_555
C19_8 N6_4 1_555 1_555
C20_8 C19_8 1_555 1_555
H20_8 C20_8 1_555 1_555
C21_8 C20_8 1_555 1_555
C22_8 C21_8 1_555 1_555
H21_8 C22_8 1_555 1_555
C23_8 N6_4 1_555 1_555
H22_8 C23_8 1_555 1_555
C24_8 C16_8 1_555 1_555
H23_8 C24_8 1_555 1_555
H24_8 C24_8 1_555 1_555
C25_8 C24_8 1_555 1_555
H25_8 C25_8 1_555 1_555
H26_8 C25_8 1_555 1_555
C26_8 C21_8 1_555 1_555
H27_8 C26_8 1_555 1_555
H28_8 C26_8 1_555 1_555
C17_8 C18_8 1_555 1_555
C22_8 C23_8 1_555 1_555
C25_8 C26_8 1_555 1_555
C1_4 N4_2 1_555 1_555
H1_4 C1_4 1_555 1_555
C2_4 C1_4 1_555 1_555
H2_4 C2_4 1_555 1_555
C3_4 C2_4 1_555 1_555
C4_4 C3_4 1_555 1_555
H3_4 C4_4 1_555 1_555
C5_4 N4_2 1_555 1_555
H4_4 C5_4 1_555 1_555
N2_4 C6_4 1_555 1_555
C6_4 H5_4 1_555 1_555
C7_4 C6_4 1_555 1_555
H6_4 C7_4 1_555 1_555
C8_4 C7_4 1_555 1_555
C9_4 C8_4 1_555 1_555
H7_4 C9_4 1_555 1_555
C10_4 N2_4 1_555 1_555
H8_4 C10_4 1_555 1_555
C11_4 C3_4 1_555 1_555
H9_4 C11_4 1_555 1_555
H10_4 C11_4 1_555 1_555
C12_4 C11_4 1_555 1_555
H11_4 C12_4 1_555 1_555
H12_4 C12_4 1_555 1_555
C13_4 C8_4 1_555 1_555
H13_4 C13_4 1_555 1_555
H14_4 C13_4 1_555 1_555
Co2_4 N2_4 1_555 1_555
C4_4 C5_4 1_555 1_555
C9_4 C10_4 1_555 1_555
C12_4 C13_4 1_555 1_555
Co3_3 Cl1_6 1_555 1_555
Cl2_6 Co3_3 1_555 1_555
Co3_4 N3_9 1_555 1_555
N3_9 C14_9 1_555 1_555
C14_9 H15_9 1_555 1_555
C15_9 C14_9 1_555 1_555
H16_9 C15_9 1_555 1_555
C16_9 C15_9 1_555 1_555
C17_9 C16_9 1_555 1_555
H17_9 C17_9 1_555 1_555
C18_9 N3_9 1_555 1_555
H18_9 C18_9 1_555 1_555
C19_9 N5_5 1_555 1_555
H19_9 C19_9 1_555 1_555
C20_9 C19_9 1_555 1_555
H20_9 C20_9 1_555 1_555
C21_9 C20_9 1_555 1_555
C22_9 C21_9 1_555 1_555
H21_9 C22_9 1_555 1_555
C23_9 N5_5 1_555 1_555
C24_9 C16_9 1_555 1_555
H23_9 C24_9 1_555 1_555
H24_9 C24_9 1_555 1_555
C25_9 C24_9 1_555 1_555
H25_9 C25_9 1_555 1_555
H26_9 C25_9 1_555 1_555
C26_9 C21_9 1_555 1_555
H27_9 C26_9 1_555 1_555
H28_9 C26_9 1_555 1_555
C17_9 C18_9 1_555 1_555
C22_9 C23_9 1_555 1_555
C25_9 C26_9 1_555 1_555
Co3_4 N3_10 1_555 1_555
N3_10 C14_10 1_555 1_555
C14_10 H15_10 1_555 1_555
C15_10 C14_10 1_555 1_555
H16_10 C15_10 1_555 1_555
C16_10 C15_10 1_555 1_555
C17_10 C16_10 1_555 1_555
H17_10 C17_10 1_555 1_555
C18_10 N3_10 1_555 1_555
H18_10 C18_10 1_555 1_555
C24_10 C16_10 1_555 1_555
H23_10 C24_10 1_555 1_555
H24_10 C24_10 1_555 1_555
C17_10 C18_10 1_555 1_555
C19_10 N6_5 1_555 1_555
H19_10 C19_10 1_555 1_555
C20_10 C19_10 1_555 1_555
H20_10 C20_10 1_555 1_555
C21_10 C20_10 1_555 1_555
C22_10 C21_10 1_555 1_555
H21_10 C22_10 1_555 1_555
C23_10 N6_5 1_555 1_555
H25_10 C25_10 1_555 1_555
C26_10 C21_10 1_555 1_555
H27_10 C26_10 1_555 1_555
H28_10 C26_10 1_555 1_555
C22_10 C23_10 1_555 1_555
C25_10 C26_10 1_555 1_555
Co3_4 Cl1_7 1_555 1_555
Co2_3 N3_11 1_555 1_555
Cl2_7 Co3_4 1_555 1_555
N3_11 C14_11 1_555 1_555
C14_11 H15_11 1_555 1_555
C15_11 C14_11 1_555 1_555
H16_11 C15_11 1_555 1_555
C16_11 C15_11 1_555 1_555
C17_11 C16_11 1_555 1_555
H17_11 C17_11 1_555 1_555
C18_11 N3_11 1_555 1_555
N5_6 Co3_4 1_555 1_555
N6_6 Co3_4 1_555 1_555
C19_11 N5_6 1_555 1_555
H19_11 C19_11 1_555 1_555
C20_11 C19_11 1_555 1_555
H20_11 C20_11 1_555 1_555
C21_11 C20_11 1_555 1_555
C22_11 C21_11 1_555 1_555
H21_11 C22_11 1_555 1_555
C23_11 N5_6 1_555 1_555
H22_11 C23_11 1_555 1_555
C24_11 C16_11 1_555 1_555
H23_11 C24_11 1_555 1_555
H24_11 C24_11 1_555 1_555
C25_11 C24_11 1_555 1_555
H25_11 C25_11 1_555 1_555
H26_11 C25_11 1_555 1_555
C26_11 C21_11 1_555 1_555
H27_11 C26_11 1_555 1_555
H28_11 C26_11 1_555 1_555
C17_11 C18_11 1_555 1_555
C22_11 C23_11 1_555 1_555
C25_11 C26_11 1_555 1_555
Co2_4 N3_12 1_555 1_555
N3_12 C14_12 1_555 1_555
C14_12 H15_12 1_555 1_555
C15_12 C14_12 1_555 1_555
H16_12 C15_12 1_555 1_555
C16_12 C15_12 1_555 1_555
C17_12 C16_12 1_555 1_555
H17_12 C17_12 1_555 1_555
C18_12 N3_12 1_555 1_555
C19_12 N6_6 1_555 1_555
H19_12 C19_12 1_555 1_555
C20_12 C19_12 1_555 1_555
H20_12 C20_12 1_555 1_555
C21_12 C20_12 1_555 1_555
C22_12 C21_12 1_555 1_555
H21_12 C22_12 1_555 1_555
C23_12 N6_6 1_555 1_555
H22_12 C23_12 1_555 1_555
C24_12 C16_12 1_555 1_555
H23_12 C24_12 1_555 1_555
H24_12 C24_12 1_555 1_555
C25_12 C24_12 1_555 1_555
H25_12 C25_12 1_555 1_555
H26_12 C25_12 1_555 1_555
C26_12 C21_12 1_555 1_555
H27_12 C26_12 1_555 1_555
H28_12 C26_12 1_555 1_555
C17_12 C18_12 1_555 1_555
C22_12 C23_12 1_555 1_555
C25_12 C26_12 1_555 1_555
Co2_3 Cl1_8 1_555 1_555
Cl2_8 Co2_4 1_555 1_555
Co4 Cl3 1_555 1_555
N7 Co4 1_555 1_555
C27 N7 1_555 1_555
H29 C27 1_555 1_555
C28 C27 1_555 1_555
H30 C28 1_555 1_555
C29 C28 1_555 1_555
C30 C29 1_555 1_555
H31 C30 1_555 1_555
C31 N7 1_555 1_555
N8 C32 1_555 1_555
C32 H33 1_555 1_555
C33 C32 1_555 1_555
H34 C33 1_555 1_555
C34 C33 1_555 1_555
C35 C34 1_555 1_555
H35 C35 1_555 1_555
C36 N8 1_555 1_555
H36 C36 1_555 1_555
C37 C29 1_555 1_555
H37 C37 1_555 1_555
H38 C37 1_555 1_555
C38 C37 1_555 1_555
H39 C38 1_555 1_555
H40 C38 1_555 1_555
C39 C34 1_555 1_555
H41 C39 1_555 1_555
H42 C39 1_555 1_555
Co5 N8 1_555 1_555
N12 Co4 1_555 1_555
C30 C31 1_555 1_555
C35 C36 1_555 1_555
C38 C39 1_555 1_555
Co6_2 N9 1_555 1_555
Cl4 Co4_2 1_555 1_555
N9 C40 1_555 1_555
N10 Co4_2 1_555 1_555
C40 H43 1_555 1_555
C41 C40 1_555 1_555
H44 C41 1_555 1_555
C42 C41 1_555 1_555
C43 C42 1_555 1_555
H45 C43 1_555 1_555
C44 N9 1_555 1_555
H46 C44 1_555 1_555
N11 Co4_2 1_555 1_555
C45 N11 1_555 1_555
H47 C45 1_555 1_555
C46 C45 1_555 1_555
H48 C46 1_555 1_555
C47 C46 1_555 1_555
C48 C47 1_555 1_555
H49 C48 1_555 1_555
C49 N11 1_555 1_555
H50 C49 1_555 1_555
C50 C42 1_555 1_555
H51 C50 1_555 1_555
H52 C50 1_555 1_555
C51 C50 1_555 1_555
H53 C51 1_555 1_555
H54 C51 1_555 1_555
C52 C47 1_555 1_555
H55 C52 1_555 1_555
H56 C52 1_555 1_555
C43 C44 1_555 1_555
C48 C49 1_555 1_555
C51 C52 1_555 1_555
Co6 N9_2 1_555 1_555
N9_2 C40_2 1_555 1_555
C40_2 H43_2 1_555 1_555
C41_2 C40_2 1_555 1_555
H44_2 C41_2 1_555 1_555
C42_2 C41_2 1_555 1_555
C43_2 C42_2 1_555 1_555
H45_2 C43_2 1_555 1_555
C44_2 N9_2 1_555 1_555
H46_2 C44_2 1_555 1_555
C50_2 C42_2 1_555 1_555
H51_2 C50_2 1_555 1_555
H52_2 C50_2 1_555 1_555
C51_2 C50_2 1_555 1_555
H53_2 C51_2 1_555 1_555
C43_2 C44_2 1_555 1_555
C45_2 N12 1_555 1_555
H47_2 C45_2 1_555 1_555
C46_2 C45_2 1_555 1_555
H48_2 C46_2 1_555 1_555
C47_2 C46_2 1_555 1_555
C48_2 C47_2 1_555 1_555
H49_2 C48_2 1_555 1_555
C49_2 N12 1_555 1_555
H50_2 C49_2 1_555 1_555
H54_2 C51_3 1_555 1_555
C52_2 C47_2 1_555 1_555
H55_2 C52_2 1_555 1_555
H56_2 C52_2 1_555 1_555
C48_2 C49_2 1_555 1_555
C51_3 C52_2 1_555 1_555
C27_2 N10 1_555 1_555
H29_2 C27_2 1_555 1_555
C28_2 C27_2 1_555 1_555
H30_2 C28_2 1_555 1_555
C29_2 C28_2 1_555 1_555
C30_2 C29_2 1_555 1_555
H31_2 C30_2 1_555 1_555
C31_2 N10 1_555 1_555
N8_2 C32_2 1_555 1_555
C32_2 H33_2 1_555 1_555
C33_2 C32_2 1_555 1_555
H34_2 C33_2 1_555 1_555
C34_2 C33_2 1_555 1_555
C35_2 C34_2 1_555 1_555
H35_2 C35_2 1_555 1_555
C36_2 N8_2 1_555 1_555
H36_2 C36_2 1_555 1_555
C37_2 C29_2 1_555 1_555
H37_2 C37_2 1_555 1_555
H38_2 C37_2 1_555 1_555
C38_2 C37_2 1_555 1_555
H39_2 C38_2 1_555 1_555
H40_2 C38_2 1_555 1_555
C39_2 C34_2 1_555 1_555
H41_2 C39_2 1_555 1_555
H42_2 C39_2 1_555 1_555
Co5 N8_2 1_555 1_555
C30_2 C31_2 1_555 1_555
C35_2 C36_2 1_555 1_555
C38_2 C39_2 1_555 1_555
Co6_3 N9_3 1_555 1_555
N9_3 C40_3 1_555 1_555
C40_3 H43_3 1_555 1_555
C41_3 C40_3 1_555 1_555
H44_3 C41_3 1_555 1_555
C42_3 C41_3 1_555 1_555
C43_3 C42_3 1_555 1_555
H45_3 C43_3 1_555 1_555
C44_3 N9_3 1_555 1_555
H46_3 C44_3 1_555 1_555
C50_3 C42_3 1_555 1_555
H51_3 C50_3 1_555 1_555
H52_3 C50_3 1_555 1_555
C51_4 C50_3 1_555 1_555
H53_3 C51_4 1_555 1_555
H54_3 C51_4 1_555 1_555
H55_3 C52_3 1_555 1_555
H56_3 C52_3 1_555 1_555
C43_3 C44_3 1_555 1_555
C51_4 C52_3 1_555 1_555
Co6 Cl3_2 1_555 1_555
N11_2 Co6 1_555 1_555
C45_3 N11_2 1_555 1_555
C46_3 C45_3 1_555 1_555
C47_3 C46_3 1_555 1_555
C48_3 C47_3 1_555 1_555
H49_3 C48_3 1_555 1_555
C49_3 N11_2 1_555 1_555
H50_3 C49_3 1_555 1_555
C48_3 C49_3 1_555 1_555
Cl4_2 Co6_2 1_555 1_555
N12_2 Co6_2 1_555 1_555
Co6_3 N9_4 1_555 1_555
N9_4 C40_4 1_555 1_555
C40_4 H43_4 1_555 1_555
C41_4 C40_4 1_555 1_555
H44_4 C41_4 1_555 1_555
C42_4 C41_4 1_555 1_555
C43_4 C42_4 1_555 1_555
H45_4 C43_4 1_555 1_555
C44_4 N9_4 1_555 1_555
H46_4 C44_4 1_555 1_555
C50_4 C42_4 1_555 1_555
H51_4 C50_4 1_555 1_555
H52_4 C50_4 1_555 1_555
C51_5 C50_4 1_555 1_555
H53_4 C51_5 1_555 1_555
H54_4 C51_5 1_555 1_555
H55_4 C52_4 1_555 1_555
H56_4 C52_4 1_555 1_555
C43_4 C44_4 1_555 1_555
C51_5 C52_4 1_555 1_555
C45_4 N12_2 1_555 1_555
C46_4 C45_4 1_555 1_555
C47_4 C46_4 1_555 1_555
C48_4 C47_4 1_555 1_555
H49_4 C48_4 1_555 1_555
C49_4 N12_2 1_555 1_555
H50_4 C49_4 1_555 1_555
C48_4 C49_4 1_555 1_555
Co6_3 Cl3_3 1_555 1_555
Cl4_3 Co6_3 1_555 1_555
N11_3 Co6_3 1_555 1_555
N12_3 Co6_3 1_555 1_555
C45_5 N11_3 1_555 1_555
H47_5 C45_5 1_555 1_555
C46_5 C45_5 1_555 1_555
H48_5 C46_5 1_555 1_555
C47_5 C46_5 1_555 1_555
C48_5 C47_5 1_555 1_555
H49_5 C48_5 1_555 1_555
C49_5 N11_3 1_555 1_555
H50_5 C49_5 1_555 1_555
H54_5 C51_6 1_555 1_555
C52_5 C47_5 1_555 1_555
H55_5 C52_5 1_555 1_555
H56_5 C52_5 1_555 1_555
C48_5 C49_5 1_555 1_555
C51_6 C52_5 1_555 1_555
Co5 N9_5 1_555 1_555
N9_5 C40_5 1_555 1_555
C40_5 H43_5 1_555 1_555
C41_5 C40_5 1_555 1_555
H44_5 C41_5 1_555 1_555
C42_5 C41_5 1_555 1_555
C43_5 C42_5 1_555 1_555
H45_5 C43_5 1_555 1_555
C44_5 N9_5 1_555 1_555
H46_5 C44_5 1_555 1_555
C50_5 C42_5 1_555 1_555
H51_5 C50_5 1_555 1_555
H52_5 C50_5 1_555 1_555
C51_7 C50_5 1_555 1_555
H53_5 C51_7 1_555 1_555
C43_5 C44_5 1_555 1_555
Co5 N9_6 1_555 1_555
N9_6 C40_6 1_555 1_555
C40_6 H43_6 1_555 1_555
C41_6 C40_6 1_555 1_555
H44_6 C41_6 1_555 1_555
C42_6 C41_6 1_555 1_555
C43_6 C42_6 1_555 1_555
H45_6 C43_6 1_555 1_555
C44_6 N9_6 1_555 1_555
H46_6 C44_6 1_555 1_555
C45_6 N12_3 1_555 1_555
H47_6 C45_6 1_555 1_555
C46_6 C45_6 1_555 1_555
H48_6 C46_6 1_555 1_555
C47_6 C46_6 1_555 1_555
C48_6 C47_6 1_555 1_555
H49_6 C48_6 1_555 1_555
C49_6 N12_3 1_555 1_555
H50_6 C49_6 1_555 1_555
C50_6 C42_6 1_555 1_555
H51_6 C50_6 1_555 1_555
H52_6 C50_6 1_555 1_555
C51_8 C50_6 1_555 1_555
H53_6 C51_8 1_555 1_555
H54_6 C51_8 1_555 1_555
C52_6 C47_6 1_555 1_555
H55_6 C52_6 1_555 1_555
H56_6 C52_6 1_555 1_555
C43_6 C44_6 1_555 1_555
C48_6 C49_6 1_555 1_555
C51_8 C52_6 1_555 1_555
Co5 Cl3_4 1_555 1_555
Cl4_4 Co5 1_555 1_555
Co6_4 N9_7 1_555 1_555
Cl4_5 Co4_3 1_555 1_555
N9_7 C40_7 1_555 1_555
N10_2 Co4_3 1_555 1_555
C40_7 H43_7 1_555 1_555
C41_7 C40_7 1_555 1_555
H44_7 C41_7 1_555 1_555
C42_7 C41_7 1_555 1_555
C43_7 C42_7 1_555 1_555
H45_7 C43_7 1_555 1_555
C44_7 N9_7 1_555 1_555
H46_7 C44_7 1_555 1_555
N11_4 Co4_3 1_555 1_555
C45_7 N11_4 1_555 1_555
H47_7 C45_7 1_555 1_555
C46_7 C45_7 1_555 1_555
H48_7 C46_7 1_555 1_555
C47_7 C46_7 1_555 1_555
C48_7 C47_7 1_555 1_555
H49_7 C48_7 1_555 1_555
C49_7 N11_4 1_555 1_555
H50_7 C49_7 1_555 1_555
C50_7 C42_7 1_555 1_555
H51_7 C50_7 1_555 1_555
H52_7 C50_7 1_555 1_555
C51_9 C50_7 1_555 1_555
H53_7 C51_9 1_555 1_555
H54_7 C51_9 1_555 1_555
C52_7 C47_7 1_555 1_555
H55_7 C52_7 1_555 1_555
H56_7 C52_7 1_555 1_555
C43_7 C44_7 1_555 1_555
C48_7 C49_7 1_555 1_555
C51_9 C52_7 1_555 1_555
Co4_4 Cl3_5 1_555 1_555
N7_2 Co4_4 1_555 1_555
C27_3 N7_2 1_555 1_555
H29_3 C27_3 1_555 1_555
C28_3 C27_3 1_555 1_555
H30_3 C28_3 1_555 1_555
C29_3 C28_3 1_555 1_555
C30_3 C29_3 1_555 1_555
H31_3 C30_3 1_555 1_555
C31_3 N7_2 1_555 1_555
N8_3 C32_3 1_555 1_555
C32_3 H33_3 1_555 1_555
C33_3 C32_3 1_555 1_555
H34_3 C33_3 1_555 1_555
C34_3 C33_3 1_555 1_555
C35_3 C34_3 1_555 1_555
H35_3 C35_3 1_555 1_555
C36_3 N8_3 1_555 1_555
H36_3 C36_3 1_555 1_555
C37_3 C29_3 1_555 1_555
H37_3 C37_3 1_555 1_555
H38_3 C37_3 1_555 1_555
C38_3 C37_3 1_555 1_555
H39_3 C38_3 1_555 1_555
H40_3 C38_3 1_555 1_555
C39_3 C34_3 1_555 1_555
H41_3 C39_3 1_555 1_555
H42_3 C39_3 1_555 1_555
Co5_2 N8_3 1_555 1_555
N12_4 Co4_4 1_555 1_555
C30_3 C31_3 1_555 1_555
C35_3 C36_3 1_555 1_555
C38_3 C39_3 1_555 1_555
C27_4 N10_2 1_555 1_555
H29_4 C27_4 1_555 1_555
C28_4 C27_4 1_555 1_555
H30_4 C28_4 1_555 1_555
C29_4 C28_4 1_555 1_555
C30_4 C29_4 1_555 1_555
H31_4 C30_4 1_555 1_555
C31_4 N10_2 1_555 1_555
N8_4 C32_4 1_555 1_555
C32_4 H33_4 1_555 1_555
C33_4 C32_4 1_555 1_555
H34_4 C33_4 1_555 1_555
C34_4 C33_4 1_555 1_555
C35_4 C34_4 1_555 1_555
H35_4 C35_4 1_555 1_555
C36_4 N8_4 1_555 1_555
H36_4 C36_4 1_555 1_555
C37_4 C29_4 1_555 1_555
H37_4 C37_4 1_555 1_555
H38_4 C37_4 1_555 1_555
C38_4 C37_4 1_555 1_555
H39_4 C38_4 1_555 1_555
H40_4 C38_4 1_555 1_555
C39_4 C34_4 1_555 1_555
H41_4 C39_4 1_555 1_555
H42_4 C39_4 1_555 1_555
Co5_2 N8_4 1_555 1_555
C30_4 C31_4 1_555 1_555
C35_4 C36_4 1_555 1_555
C38_4 C39_4 1_555 1_555
C45_8 N12_4 1_555 1_555
H47_8 C45_8 1_555 1_555
C46_8 C45_8 1_555 1_555
H48_8 C46_8 1_555 1_555
C47_8 C46_8 1_555 1_555
C48_8 C47_8 1_555 1_555
H49_8 C48_8 1_555 1_555
C49_8 N12_4 1_555 1_555
H50_8 C49_8 1_555 1_555
H54_8 C51_10 1_555 1_555
C52_8 C47_8 1_555 1_555
H55_8 C52_8 1_555 1_555
H56_8 C52_8 1_555 1_555
C48_8 C49_8 1_555 1_555
C51_10 C52_8 1_555 1_555
Co6_5 N9_8 1_555 1_555
N9_8 C40_8 1_555 1_555
C40_8 H43_8 1_555 1_555
C41_8 C40_8 1_555 1_555
H44_8 C41_8 1_555 1_555
C42_8 C41_8 1_555 1_555
C43_8 C42_8 1_555 1_555
H45_8 C43_8 1_555 1_555
C44_8 N9_8 1_555 1_555
H46_8 C44_8 1_555 1_555
C50_8 C42_8 1_555 1_555
H51_8 C50_8 1_555 1_555
H52_8 C50_8 1_555 1_555
C51_11 C50_8 1_555 1_555
H53_8 C51_11 1_555 1_555
C43_8 C44_8 1_555 1_555
Cl4_6 Co6_4 1_555 1_555
N12_5 Co6_4 1_555 1_555
Co6_5 Cl3_6 1_555 1_555
N11_5 Co6_5 1_555 1_555
C45_9 N11_5 1_555 1_555
C46_9 C45_9 1_555 1_555
C47_9 C46_9 1_555 1_555
C48_9 C47_9 1_555 1_555
H49_9 C48_9 1_555 1_555
C49_9 N11_5 1_555 1_555
H50_9 C49_9 1_555 1_555
C48_9 C49_9 1_555 1_555
Co6_6 N9_9 1_555 1_555
N9_9 C40_9 1_555 1_555
C40_9 H43_9 1_555 1_555
C41_9 C40_9 1_555 1_555
H44_9 C41_9 1_555 1_555
C42_9 C41_9 1_555 1_555
C43_9 C42_9 1_555 1_555
H45_9 C43_9 1_555 1_555
C44_9 N9_9 1_555 1_555
H46_9 C44_9 1_555 1_555
C50_9 C42_9 1_555 1_555
H51_9 C50_9 1_555 1_555
H52_9 C50_9 1_555 1_555
C51_12 C50_9 1_555 1_555
H53_9 C51_12 1_555 1_555
H54_9 C51_12 1_555 1_555
H55_9 C52_9 1_555 1_555
H56_9 C52_9 1_555 1_555
C43_9 C44_9 1_555 1_555
C51_12 C52_9 1_555 1_555
C45_10 N12_5 1_555 1_555
C46_10 C45_10 1_555 1_555
C47_10 C46_10 1_555 1_555
C48_10 C47_10 1_555 1_555
H49_10 C48_10 1_555 1_555
C49_10 N12_5 1_555 1_555
H50_10 C49_10 1_555 1_555
C48_10 C49_10 1_555 1_555
Co6_6 N9_10 1_555 1_555
N9_10 C40_10 1_555 1_555
C40_10 H43_10 1_555 1_555
C41_10 C40_10 1_555 1_555
H44_10 C41_10 1_555 1_555
C42_10 C41_10 1_555 1_555
C43_10 C42_10 1_555 1_555
H45_10 C43_10 1_555 1_555
C44_10 N9_10 1_555 1_555
H46_10 C44_10 1_555 1_555
C50_10 C42_10 1_555 1_555
H51_10 C50_10 1_555 1_555
H52_10 C50_10 1_555 1_555
C51_13 C50_10 1_555 1_555
H53_10 C51_13 1_555 1_555
H54_10 C51_13 1_555 1_555
H55_10 C52_10 1_555 1_555
H56_10 C52_10 1_555 1_555
C43_10 C44_10 1_555 1_555
C51_13 C52_10 1_555 1_555
Co5_2 N9_11 1_555 1_555
N9_11 C40_11 1_555 1_555
C40_11 H43_11 1_555 1_555
C41_11 C40_11 1_555 1_555
H44_11 C41_11 1_555 1_555
C42_11 C41_11 1_555 1_555
C43_11 C42_11 1_555 1_555
H45_11 C43_11 1_555 1_555
C44_11 N9_11 1_555 1_555
H46_11 C44_11 1_555 1_555
C50_11 C42_11 1_555 1_555
H51_11 C50_11 1_555 1_555
H52_11 C50_11 1_555 1_555
C51_14 C50_11 1_555 1_555
H53_11 C51_14 1_555 1_555
C43_11 C44_11 1_555 1_555
Co6_6 Cl3_7 1_555 1_555
Cl4_7 Co6_6 1_555 1_555
N11_6 Co6_6 1_555 1_555
N12_6 Co6_6 1_555 1_555
C45_11 N11_6 1_555 1_555
H47_11 C45_11 1_555 1_555
C46_11 C45_11 1_555 1_555
H48_11 C46_11 1_555 1_555
C47_11 C46_11 1_555 1_555
C48_11 C47_11 1_555 1_555
H49_11 C48_11 1_555 1_555
C49_11 N11_6 1_555 1_555
H50_11 C49_11 1_555 1_555
H54_11 C51_15 1_555 1_555
C52_11 C47_11 1_555 1_555
H55_11 C52_11 1_555 1_555
H56_11 C52_11 1_555 1_555
C48_11 C49_11 1_555 1_555
C51_15 C52_11 1_555 1_555
Co5_2 N9_12 1_555 1_555
N9_12 C40_12 1_555 1_555
C40_12 H43_12 1_555 1_555
C41_12 C40_12 1_555 1_555
H44_12 C41_12 1_555 1_555
C42_12 C41_12 1_555 1_555
C43_12 C42_12 1_555 1_555
H45_12 C43_12 1_555 1_555
C44_12 N9_12 1_555 1_555
H46_12 C44_12 1_555 1_555
C45_12 N12_6 1_555 1_555
H47_12 C45_12 1_555 1_555
C46_12 C45_12 1_555 1_555
H48_12 C46_12 1_555 1_555
C47_12 C46_12 1_555 1_555
C48_12 C47_12 1_555 1_555
H49_12 C48_12 1_555 1_555
C49_12 N12_6 1_555 1_555
H50_12 C49_12 1_555 1_555
C50_12 C42_12 1_555 1_555
H51_12 C50_12 1_555 1_555
H52_12 C50_12 1_555 1_555
C51_16 C50_12 1_555 1_555
H53_12 C51_16 1_555 1_555
H54_12 C51_16 1_555 1_555
C52_12 C47_12 1_555 1_555
H55_12 C52_12 1_555 1_555
H56_12 C52_12 1_555 1_555
C43_12 C44_12 1_555 1_555
C48_12 C49_12 1_555 1_555
C51_16 C52_12 1_555 1_555
Co5_2 Cl3_8 1_555 1_555
Cl4_8 Co5_2 1_555 1_555

#END
