
###############################################################################
#
# This file contains modified crystal structure data generated from the
# MOF subset of the Cambridge Structural Database (CSD) v543 
# hosted by the Cambridge Crystallographic Data Centre (CCDC).
#
# This work is licensed under the Creative Commons
# Attribution-NonCommercial-ShareAlike 4.0 International License.
# To view a copy of this license, visit
# http://creativecommons.org/licenses/by-nc-sa/4.0/
# or send a letter to
# Creative Commons, PO Box 1866, Mountain View, CA 94042, USA.
#
# CIF created using the CSD Python API on 29 September 2022
# The structure has been converted into the P1 space group
# The structure has a 3D framework
# The original CSD entry CUPMEG is in the tetragonal crystal system
# The framework has been calculated to contain at least 10.0% void space
# The void calculation uses a probe of radius 1.32A, grid spacing 0.4
#
###############################################################################

data_CUPMEG
_chemical_formula_moiety         '(C420 H448 Cl32 N64 Ni24)n'
_symmetry_cell_setting           triclinic
_symmetry_space_group_name_H-M   'P 1'
_symmetry_Int_Tables_number      1
_space_group_name_Hall           'P 1'
loop_
_symmetry_equiv_pos_site_id
_symmetry_equiv_pos_as_xyz
1 x,y,z
_cell_length_a                   16.991(4)
_cell_length_b                   16.991(4)
_cell_length_c                   41.947(9)
_cell_angle_alpha                90
_cell_angle_beta                 90
_cell_angle_gamma                90
_cell_volume                     12109.9
loop_
_atom_site_label
_atom_site_type_symbol
_atom_site_fract_x
_atom_site_fract_y
_atom_site_fract_z
Ni3 Ni -0.00000 0.25000 0.33926(6)
Ni1 Ni 0.00000 0.75000 0.08926(6)
N1 N 0.0625(7) 0.6869(8) 0.1249(3)
C1 C 0.1017(9) 0.7199(10) 0.1487(3)
H1 H 0.1 0.7744 0.1505
C2 C 0.1430(10) 0.6810(10) 0.1701(4)
H2 H 0.1696 0.7091 0.1857
C3 C 0.1482(8) 0.5993(9) 0.1700(3)
C4 C 0.1098(10) 0.5641(9) 0.1469(4)
H3 H 0.1096 0.5094 0.1457
C5 C 0.0687(9) 0.6087(11) 0.1238(4)
H4 H 0.0448 0.5822 0.107
C6 C 0.1943(10) 0.5520(10) 0.1939(4)
H5 H 0.2234 0.5881 0.2075
H6 H 0.2323 0.52 0.1826
C7 C 0.1438(10) 0.4974(10) 0.2155(4)
H7 H 0.1079 0.5287 0.2283
H8 H 0.1129 0.462 0.2024
C8 C 0.1959(11) 0.4518(11) 0.2364(4)
H9 H 0.2308 0.4874 0.2478
H10 H 0.2281 0.4168 0.2236
N2 N 0.0597(7) 0.3134(8) 0.3040(3)
C9 C 0.0638(9) 0.3925(11) 0.3060(4)
H11 H 0.0354 0.4179 0.3219
C10 C 0.1095(11) 0.4385(12) 0.2848(4)
H12 H 0.1128 0.4928 0.2874
C11 C 0.1482(11) 0.4030(11) 0.2607(4)
C12 C 0.1377(11) 0.3230(13) 0.2582(4)
H13 H 0.1605 0.2965 0.2412
C13 C 0.0939(12) 0.2804(13) 0.2804(4)
H14 H 0.0894 0.2262 0.278
Cl2 Cl 0.0994(2) 0.8529(3) 0.08974(11)
N5 N 0.0634(8) 0.6903(7) 0.0540(3)
Ni3_2 Ni 1.00000 0.25000 0.33926(6)
C20 C 0.8562(10) 0.0026(10) 0.2155(4)
H22 H 0.8871 0.038 0.2024
C21 C 0.8041(11) 0.0482(11) 0.2364(4)
H23 H 0.7692 0.0126 0.2478
H24 H 0.7719 0.0832 0.2236
N4 N 0.9403(7) 0.1866(8) 0.3040(3)
C22 C 0.9362(9) 0.1075(11) 0.3060(4)
H25 H 0.9646 0.0821 0.3219
C23 C 0.8905(11) 0.0615(12) 0.2848(4)
H26 H 0.8872 0.0072 0.2874
C24 C 0.8518(11) 0.0970(11) 0.2607(4)
C25 C 0.8623(11) 0.1770(13) 0.2582(4)
H27 H 0.8395 0.2035 0.2412
C26 C 0.9061(12) 0.2196(13) 0.2804(4)
H28 H 0.9106 0.2738 0.278
Ni1_2 Ni 1.00000 0.75000 0.08926(6)
Cl1 Cl 0.9006(2) 0.6471(3) 0.08974(11)
N3 N 0.9375(7) 0.8131(8) 0.1249(3)
C14 C 0.8983(9) 0.7801(10) 0.1487(3)
H15 H 0.9 0.7256 0.1505
C15 C 0.8570(10) 0.8190(10) 0.1701(4)
H16 H 0.8304 0.7909 0.1857
C16 C 0.8518(8) 0.9007(9) 0.1700(3)
C17 C 0.8902(10) 0.9359(9) 0.1469(4)
H17 H 0.8904 0.9906 0.1457
C18 C 0.9313(9) 0.8913(11) 0.1238(4)
H18 H 0.9552 0.9178 0.107
C19 C 0.8057(10) 0.9480(10) 0.1939(4)
H19 H 0.7766 0.9119 0.2075
H20 H 0.7677 0.98 0.1826
H21 H 0.8921 0.9713 0.2283
N6 N 0.9366(8) 0.8097(7) 0.0540(3)
Ni1_3 Ni 0.50000 0.25000 0.58926(6)
Cl1_2 Cl 0.5994(2) 0.3529(3) 0.58974(11)
N1_2 N 0.4375(7) 0.3131(8) 0.6249(3)
C1_2 C 0.3983(9) 0.2801(10) 0.6487(3)
H1_2 H 0.4 0.2256 0.6505
C2_2 C 0.3570(10) 0.3190(10) 0.6701(4)
H2_2 H 0.3304 0.2909 0.6857
C3_2 C 0.3518(8) 0.4007(9) 0.6700(3)
C4_2 C 0.3902(10) 0.4359(9) 0.6469(4)
H3_2 H 0.3904 0.4906 0.6457
C5_2 C 0.4313(9) 0.3913(11) 0.6238(4)
H4_2 H 0.4552 0.4178 0.607
C6_2 C 0.3057(10) 0.4480(10) 0.6939(4)
H5_2 H 0.2766 0.4119 0.7075
H6_2 H 0.2677 0.48 0.6826
C7_2 C 0.3562(10) 0.5026(10) 0.7155(4)
H7_2 H 0.3921 0.4713 0.7283
H8_2 H 0.3871 0.538 0.7024
C8_2 C 0.3041(11) 0.5482(11) 0.7364(4)
H9_2 H 0.2692 0.5126 0.7478
H10_2 H 0.2719 0.5832 0.7236
N2_2 N 0.4403(7) 0.6866(8) 0.8040(3)
C9_2 C 0.4362(9) 0.6075(11) 0.8060(4)
H11_2 H 0.4646 0.5821 0.8219
C10_2 C 0.3905(11) 0.5615(12) 0.7848(4)
H12_2 H 0.3872 0.5072 0.7874
C11_2 C 0.3518(11) 0.5970(11) 0.7607(4)
C12_2 C 0.3623(11) 0.6770(13) 0.7582(4)
H13_2 H 0.3395 0.7035 0.7412
C13_2 C 0.4061(12) 0.7196(13) 0.7804(4)
H14_2 H 0.4106 0.7738 0.778
Ni2 Ni 0.50000 0.75000 0.83926(6)
Cl2_2 Cl 0.4006(2) 0.1471(3) 0.58974(11)
N3_2 N 0.5625(7) 0.1869(8) 0.6249(3)
C14_2 C 0.6017(9) 0.2199(10) 0.6487(3)
H15_2 H 0.6 0.2744 0.6505
C15_2 C 0.6430(10) 0.1810(10) 0.6701(4)
H16_2 H 0.6696 0.2091 0.6857
C16_2 C 0.6482(8) 0.0993(9) 0.6700(3)
C17_2 C 0.6098(10) 0.0641(9) 0.6469(4)
H17_2 H 0.6096 0.0094 0.6457
C18_2 C 0.5687(9) 0.1087(11) 0.6238(4)
H18_2 H 0.5448 0.0822 0.607
C19_2 C 0.6943(10) 0.0520(10) 0.6939(4)
H19_2 H 0.7234 0.0881 0.7075
H20_2 H 0.7323 0.02 0.6826
H21_2 H 0.6079 0.0287 0.7283
N5_2 N 0.4366(8) 0.3097(7) 0.5540(3)
N6_2 N 0.5634(8) 0.1903(7) 0.5540(3)
C20_2 C 0.6438(10) 0.9974(10) 0.7155(4)
H22_2 H 0.6129 0.962 0.7024
C21_2 C 0.6959(11) 0.9518(11) 0.7364(4)
H23_2 H 0.7308 0.9874 0.7478
H24_2 H 0.7281 0.9168 0.7236
N4_2 N 0.5597(7) 0.8134(8) 0.8040(3)
C22_2 C 0.5638(9) 0.8925(11) 0.8060(4)
H25_2 H 0.5354 0.9179 0.8219
C23_2 C 0.6095(11) 0.9385(12) 0.7848(4)
H26_2 H 0.6128 0.9928 0.7874
C24_2 C 0.6482(11) 0.9030(11) 0.7607(4)
C25_2 C 0.6377(11) 0.8230(13) 0.7582(4)
H27_2 H 0.6605 0.7965 0.7412
C26_2 C 0.5939(12) 0.7804(13) 0.7804(4)
H28_2 H 0.5894 0.7262 0.778
Cl1_3 Cl 0.1029(3) 0.1506(2) 0.33974(11)
N1_3 N 0.0631(8) 0.3125(7) 0.3749(3)
C1_3 C 0.0301(10) 0.3517(9) 0.3987(3)
C2_3 C 0.0690(10) 0.3930(10) 0.4201(4)
H2_3 H 0.0409 0.4196 0.4357
C3_3 C 0.1507(9) 0.3982(8) 0.4200(3)
C4_3 C 0.1859(9) 0.3598(10) 0.3969(4)
H3_3 H 0.2406 0.3596 0.3957
C5_3 C 0.1413(11) 0.3187(9) 0.3738(4)
H4_3 H 0.1678 0.2948 0.357
C6_3 C 0.1980(10) 0.4443(10) 0.4439(4)
H5_3 H 0.1619 0.4734 0.4575
H6_3 H 0.23 0.4823 0.4326
C7_3 C 0.2526(10) 0.3938(10) 0.4655(4)
H7_3 H 0.2213 0.3579 0.4783
H8_3 H 0.288 0.3629 0.4524
C8_3 C 0.2982(11) 0.4459(11) 0.4864(4)
H9_3 H 0.2626 0.4808 0.4978
H10_3 H 0.3332 0.4781 0.4736
C9_3 C 0.3575(11) 0.3138(9) 0.5560(4)
H11_3 H 0.3321 0.2854 0.5719
C10_3 C 0.3115(12) 0.3595(11) 0.5348(4)
H12_3 H 0.2572 0.3628 0.5374
C11_3 C 0.3470(11) 0.3982(11) 0.5107(4)
C12_3 C 0.4270(13) 0.3877(11) 0.5082(4)
H13_3 H 0.4535 0.4105 0.4912
C13_3 C 0.4696(13) 0.3439(12) 0.5304(4)
H14_3 H 0.5238 0.3394 0.528
H15_3 H 0.0244 0.15 0.4005
H1_3 H 0.9756 0.35 0.4005
Cl2_3 Cl 0.8971(3) 0.3494(2) 0.33974(11)
N3_3 N 0.9369(8) 0.1875(7) 0.3749(3)
C14_3 C 0.9699(10) 0.1483(9) 0.3987(3)
C15_3 C 0.9310(10) 0.1070(10) 0.4201(4)
H16_3 H 0.9591 0.0804 0.4357
C16_3 C 0.8493(9) 0.1018(8) 0.4200(3)
C17_3 C 0.8141(9) 0.1402(10) 0.3969(4)
H17_3 H 0.7594 0.1404 0.3957
C18_3 C 0.8587(11) 0.1813(9) 0.3738(4)
H18_3 H 0.8322 0.2052 0.357
C19_3 C 0.8020(10) 0.0557(10) 0.4439(4)
H19_3 H 0.8381 0.0266 0.4575
H20_3 H 0.77 0.0177 0.4326
C20_3 C 0.7474(10) 0.1062(10) 0.4655(4)
H21_3 H 0.7787 0.1421 0.4783
H22_3 H 0.712 0.1371 0.4524
C21_3 C 0.7018(11) 0.0541(11) 0.4864(4)
H23_3 H 0.7374 0.0192 0.4978
H24_3 H 0.6668 0.0219 0.4736
C22_3 C 0.6425(11) 0.1862(9) 0.5560(4)
H25_3 H 0.6679 0.2146 0.5719
C23_3 C 0.6885(12) 0.1405(11) 0.5348(4)
H26_3 H 0.7428 0.1372 0.5374
C24_3 C 0.6530(11) 0.1018(11) 0.5107(4)
C25_3 C 0.5730(13) 0.1123(11) 0.5082(4)
H27_3 H 0.5465 0.0895 0.4912
C26_3 C 0.5304(13) 0.1561(12) 0.5304(4)
H28_3 H 0.4762 0.1606 0.528
H28_4 H 0.0238 0.8394 0.028
C9_4 C 0.1425(11) 0.6862(9) 0.0560(4)
H11_4 H 0.1679 0.7146 0.0719
C10_4 C 0.1885(12) 0.6405(11) 0.0348(4)
H12_4 H 0.2428 0.6372 0.0374
C11_4 C 0.1530(11) 0.6018(11) 0.0107(4)
C12_4 C 0.0730(13) 0.6123(11) 0.0082(4)
C13_4 C 0.0304(13) 0.6561(12) 0.0304(4)
C22_4 C 0.8575(11) 0.8138(9) 0.0560(4)
H25_4 H 0.8321 0.7854 0.0719
C23_4 C 0.8115(12) 0.8595(11) 0.0348(4)
H26_4 H 0.7572 0.8628 0.0374
C24_4 C 0.8470(11) 0.8982(11) 0.0107(4)
C25_4 C 0.9270(13) 0.8877(11) 0.0082(4)
C26_4 C 0.9696(13) 0.8439(12) 0.0304(4)
Cl1_4 Cl 0.3971(3) 0.8494(2) 0.83974(11)
N1_4 N 0.4369(8) 0.6875(7) 0.8749(3)
C1_4 C 0.4699(10) 0.6483(9) 0.8987(3)
H1_4 H 0.5244 0.65 0.9005
C2_4 C 0.4310(10) 0.6070(10) 0.9201(4)
H2_4 H 0.4591 0.5804 0.9357
C3_4 C 0.3493(9) 0.6018(8) 0.9200(3)
C4_4 C 0.3141(9) 0.6402(10) 0.8969(4)
H3_4 H 0.2594 0.6404 0.8957
C5_4 C 0.3587(11) 0.6813(9) 0.8738(4)
H4_4 H 0.3322 0.7052 0.857
C6_4 C 0.3020(10) 0.5557(10) 0.9439(4)
H5_4 H 0.3381 0.5266 0.9575
H6_4 H 0.27 0.5177 0.9326
C7_4 C 0.2474(10) 0.6062(10) 0.9655(4)
H7_4 H 0.2787 0.6421 0.9783
H8_4 H 0.212 0.6371 0.9524
C8_4 C 0.2018(11) 0.5541(11) 0.9864(4)
H9_4 H 0.2374 0.5192 0.9978
H10_4 H 0.1668 0.5219 0.9736
H13_4 H 0.0465 0.5895 0.9912
Cl2_4 Cl 0.6029(3) 0.6506(2) 0.83974(11)
N3_4 N 0.5631(8) 0.8125(7) 0.8749(3)
C14_4 C 0.5301(10) 0.8517(9) 0.8987(3)
H15_4 H 0.4756 0.85 0.9005
C15_4 C 0.5690(10) 0.8930(10) 0.9201(4)
H16_4 H 0.5409 0.9196 0.9357
C16_4 C 0.6507(9) 0.8982(8) 0.9200(3)
C17_4 C 0.6859(9) 0.8598(10) 0.8969(4)
H17_4 H 0.7406 0.8596 0.8957
C18_4 C 0.6413(11) 0.8187(9) 0.8738(4)
H18_4 H 0.6678 0.7948 0.857
C19_4 C 0.6980(10) 0.9443(10) 0.9439(4)
H19_4 H 0.6619 0.9734 0.9575
H20_4 H 0.73 0.9823 0.9326
C20_4 C 0.7526(10) 0.8938(10) 0.9655(4)
H21_4 H 0.7213 0.8579 0.9783
H22_4 H 0.788 0.8629 0.9524
C21_4 C 0.7982(11) 0.9459(11) 0.9864(4)
H23_4 H 0.7626 0.9808 0.9978
H24_4 H 0.8332 0.9781 0.9736
H27_4 H 0.9535 0.9105 0.9912
H14_4 H 0.9762 0.6606 0.028
Ni1_4 Ni 0.00000 0.25000 0.91074(6)
Cl1_5 Cl 0.0994(2) 0.3529(3) 0.91026(11)
Ni2_2 Ni 0.00000 0.75000 0.66074(6)
N3_5 N 0.0625(7) 0.1869(8) 0.8751(3)
C14_5 C 0.1017(9) 0.2199(10) 0.8513(3)
H15_5 H 0.1 0.2744 0.8495
C15_5 C 0.1430(10) 0.1810(10) 0.8299(4)
H16_5 H 0.1696 0.2091 0.8143
C16_5 C 0.1482(8) 0.0993(9) 0.8300(3)
C17_5 C 0.1098(10) 0.0641(9) 0.8531(4)
H17_5 H 0.1096 0.0094 0.8543
C18_5 C 0.0687(9) 0.1087(11) 0.8762(4)
H18_5 H 0.0448 0.0822 0.893
C19_5 C 0.1943(10) 0.0520(10) 0.8061(4)
H19_5 H 0.2234 0.0881 0.7925
H20_5 H 0.2323 0.02 0.8174
H21_5 H 0.1079 0.0287 0.7717
N6_3 N 0.0634(8) 0.1903(7) 0.9460(3)
C20_5 C 0.1438(10) 0.9974(10) 0.7845(4)
H22_5 H 0.1129 0.962 0.7976
C21_5 C 0.1959(11) 0.9518(11) 0.7636(4)
H23_5 H 0.2308 0.9874 0.7522
H24_5 H 0.2281 0.9168 0.7764
N4_3 N 0.0597(7) 0.8134(8) 0.6960(3)
C22_5 C 0.0638(9) 0.8925(11) 0.6940(4)
H25_5 H 0.0354 0.9179 0.6781
C23_5 C 0.1095(11) 0.9385(12) 0.7152(4)
H26_5 H 0.1128 0.9928 0.7126
C24_5 C 0.1482(11) 0.9030(11) 0.7393(4)
C25_5 C 0.1377(11) 0.8230(13) 0.7418(4)
H27_5 H 0.1605 0.7965 0.7588
C26_5 C 0.0939(12) 0.7804(13) 0.7196(4)
H28_5 H 0.0894 0.7262 0.722
Ni1_5 Ni 1.00000 0.25000 0.91074(6)
N1_5 N 0.9375(7) 0.3131(8) 0.8751(3)
C1_5 C 0.8983(9) 0.2801(10) 0.8513(3)
H1_5 H 0.9 0.2256 0.8495
C2_5 C 0.8570(10) 0.3190(10) 0.8299(4)
H2_5 H 0.8304 0.2909 0.8143
C3_5 C 0.8518(8) 0.4007(9) 0.8300(3)
C4_5 C 0.8902(10) 0.4359(9) 0.8531(4)
H3_5 H 0.8904 0.4906 0.8543
C5_5 C 0.9313(9) 0.3913(11) 0.8762(4)
H4_5 H 0.9552 0.4178 0.893
C6_5 C 0.8057(10) 0.4480(10) 0.8061(4)
H5_5 H 0.7766 0.4119 0.7925
H6_5 H 0.7677 0.48 0.8174
C7_5 C 0.8562(10) 0.5026(10) 0.7845(4)
H7_5 H 0.8921 0.4713 0.7717
H8_5 H 0.8871 0.538 0.7976
C8_5 C 0.8041(11) 0.5482(11) 0.7636(4)
H9_5 H 0.7692 0.5126 0.7522
H10_5 H 0.7719 0.5832 0.7764
N2_3 N 0.9403(7) 0.6866(8) 0.6960(3)
C9_5 C 0.9362(9) 0.6075(11) 0.6940(4)
H11_5 H 0.9646 0.5821 0.6781
C10_5 C 0.8905(11) 0.5615(12) 0.7152(4)
H12_5 H 0.8872 0.5072 0.7126
C11_5 C 0.8518(11) 0.5970(11) 0.7393(4)
C12_5 C 0.8623(11) 0.6770(13) 0.7418(4)
H13_5 H 0.8395 0.7035 0.7588
C13_5 C 0.9061(12) 0.7196(13) 0.7196(4)
H14_5 H 0.9106 0.7738 0.722
Ni2_3 Ni 1.00000 0.75000 0.66074(6)
Cl2_5 Cl 0.9006(2) 0.1471(3) 0.91026(11)
N5_3 N 0.9366(8) 0.3097(7) 0.9460(3)
Ni3_3 Ni 0.50000 0.25000 0.16074(6)
C20_6 C 0.3562(10) 0.0026(10) 0.2845(4)
H22_6 H 0.3871 0.038 0.2976
C21_6 C 0.3041(11) 0.0482(11) 0.2636(4)
H23_6 H 0.2692 0.0126 0.2522
H24_6 H 0.2719 0.0832 0.2764
N4_4 N 0.4403(7) 0.1866(8) 0.1960(3)
C22_6 C 0.4362(9) 0.1075(11) 0.1940(4)
H25_6 H 0.4646 0.0821 0.1781
C23_6 C 0.3905(11) 0.0615(12) 0.2152(4)
H26_6 H 0.3872 0.0072 0.2126
C24_6 C 0.3518(11) 0.0970(11) 0.2393(4)
C25_6 C 0.3623(11) 0.1770(13) 0.2418(4)
H27_6 H 0.3395 0.2035 0.2588
C26_6 C 0.4061(12) 0.2196(13) 0.2196(4)
H28_6 H 0.4106 0.2738 0.222
Ni1_6 Ni 0.50000 0.75000 0.41074(6)
Cl1_6 Cl 0.4006(2) 0.6471(3) 0.41026(11)
N1_6 N 0.5625(7) 0.6869(8) 0.3751(3)
C1_6 C 0.6017(9) 0.7199(10) 0.3513(3)
H1_6 H 0.6 0.7744 0.3495
C2_6 C 0.6430(10) 0.6810(10) 0.3299(4)
H2_6 H 0.6696 0.7091 0.3143
C3_6 C 0.6482(8) 0.5993(9) 0.3300(3)
C4_6 C 0.6098(10) 0.5641(9) 0.3531(4)
H3_6 H 0.6096 0.5094 0.3543
C5_6 C 0.5687(9) 0.6087(11) 0.3762(4)
H4_6 H 0.5448 0.5822 0.393
C6_6 C 0.6943(10) 0.5520(10) 0.3061(4)
H5_6 H 0.7234 0.5881 0.2925
H6_6 H 0.7323 0.52 0.3174
C7_6 C 0.6438(10) 0.4974(10) 0.2845(4)
H7_6 H 0.6079 0.5287 0.2717
H8_6 H 0.6129 0.462 0.2976
C8_6 C 0.6959(11) 0.4518(11) 0.2636(4)
H9_6 H 0.7308 0.4874 0.2522
H10_6 H 0.7281 0.4168 0.2764
N2_4 N 0.5597(7) 0.3134(8) 0.1960(3)
C9_6 C 0.5638(9) 0.3925(11) 0.1940(4)
H11_6 H 0.5354 0.4179 0.1781
C10_6 C 0.6095(11) 0.4385(12) 0.2152(4)
H12_6 H 0.6128 0.4928 0.2126
C11_6 C 0.6482(11) 0.4030(11) 0.2393(4)
C12_6 C 0.6377(11) 0.3230(13) 0.2418(4)
H13_6 H 0.6605 0.2965 0.2588
C13_6 C 0.5939(12) 0.2804(13) 0.2196(4)
H14_6 H 0.5894 0.2262 0.222
Cl2_6 Cl 0.5994(2) 0.8529(3) 0.41026(11)
N3_6 N 0.4375(7) 0.8131(8) 0.3751(3)
C14_6 C 0.3983(9) 0.7801(10) 0.3513(3)
H15_6 H 0.4 0.7256 0.3495
C15_6 C 0.3570(10) 0.8190(10) 0.3299(4)
H16_6 H 0.3304 0.7909 0.3143
C16_6 C 0.3518(8) 0.9007(9) 0.3300(3)
C17_6 C 0.3902(10) 0.9359(9) 0.3531(4)
H17_6 H 0.3904 0.9906 0.3543
C18_6 C 0.4313(9) 0.8913(11) 0.3762(4)
H18_6 H 0.4552 0.9178 0.393
C19_6 C 0.3057(10) 0.9480(10) 0.3061(4)
H19_6 H 0.2766 0.9119 0.2925
H20_6 H 0.2677 0.98 0.3174
H21_6 H 0.3921 0.9713 0.2717
N5_4 N 0.5634(8) 0.6903(7) 0.4460(3)
N6_4 N 0.4366(8) 0.8097(7) 0.4460(3)
H1_7 H 0.0244 0.65 0.5995
Cl2_7 Cl 0.1029(3) 0.6506(2) 0.66026(11)
N3_7 N 0.0631(8) 0.8125(7) 0.6251(3)
C14_7 C 0.0301(10) 0.8517(9) 0.6013(3)
C15_7 C 0.0690(10) 0.8930(10) 0.5799(4)
H16_7 H 0.0409 0.9196 0.5643
C16_7 C 0.1507(9) 0.8982(8) 0.5800(3)
C17_7 C 0.1859(9) 0.8598(10) 0.6031(4)
H17_7 H 0.2406 0.8596 0.6043
C18_7 C 0.1413(11) 0.8187(9) 0.6262(4)
H18_7 H 0.1678 0.7948 0.643
C19_7 C 0.1980(10) 0.9443(10) 0.5561(4)
H19_7 H 0.1619 0.9734 0.5425
H20_7 H 0.23 0.9823 0.5674
C20_7 C 0.2526(10) 0.8938(10) 0.5345(4)
H21_7 H 0.2213 0.8579 0.5217
H22_7 H 0.288 0.8629 0.5476
C21_7 C 0.2982(11) 0.9459(11) 0.5136(4)
H23_7 H 0.2626 0.9808 0.5022
H24_7 H 0.3332 0.9781 0.5264
C22_7 C 0.3575(11) 0.8138(9) 0.4440(4)
H25_7 H 0.3321 0.7854 0.4281
C23_7 C 0.3115(12) 0.8595(11) 0.4652(4)
H26_7 H 0.2572 0.8628 0.4626
C24_7 C 0.3470(11) 0.8982(11) 0.4893(4)
C25_7 C 0.4270(13) 0.8877(11) 0.4918(4)
H27_7 H 0.4535 0.9105 0.5088
C26_7 C 0.4696(13) 0.8439(12) 0.4696(4)
H28_7 H 0.5238 0.8394 0.472
Cl1_7 Cl 0.8971(3) 0.8494(2) 0.66026(11)
N1_7 N 0.9369(8) 0.6875(7) 0.6251(3)
C1_7 C 0.9699(10) 0.6483(9) 0.6013(3)
C2_7 C 0.9310(10) 0.6070(10) 0.5799(4)
H2_7 H 0.9591 0.5804 0.5643
C3_7 C 0.8493(9) 0.6018(8) 0.5800(3)
C4_7 C 0.8141(9) 0.6402(10) 0.6031(4)
H3_7 H 0.7594 0.6404 0.6043
C5_7 C 0.8587(11) 0.6813(9) 0.6262(4)
H4_7 H 0.8322 0.7052 0.643
C6_7 C 0.8020(10) 0.5557(10) 0.5561(4)
H5_7 H 0.8381 0.5266 0.5425
H6_7 H 0.77 0.5177 0.5674
C7_7 C 0.7474(10) 0.6062(10) 0.5345(4)
H7_7 H 0.7787 0.6421 0.5217
H8_7 H 0.712 0.6371 0.5476
C8_7 C 0.7018(11) 0.5541(11) 0.5136(4)
H9_7 H 0.7374 0.5192 0.5022
H10_7 H 0.6668 0.5219 0.5264
C9_7 C 0.6425(11) 0.6862(9) 0.4440(4)
H11_7 H 0.6679 0.7146 0.4281
C10_7 C 0.6885(12) 0.6405(11) 0.4652(4)
H12_7 H 0.7428 0.6372 0.4626
C11_7 C 0.6530(11) 0.6018(11) 0.4893(4)
C12_7 C 0.5730(13) 0.6123(11) 0.4918(4)
H13_7 H 0.5465 0.5895 0.5088
C13_7 C 0.5304(13) 0.6561(12) 0.4696(4)
H14_7 H 0.4762 0.6606 0.472
H15_7 H 0.9756 0.85 0.5995
H14_8 H 0.0238 0.3394 0.972
Cl1_8 Cl 0.6029(3) 0.1506(2) 0.16026(11)
N1_8 N 0.5631(8) 0.3125(7) 0.1251(3)
C1_8 C 0.5301(10) 0.3517(9) 0.1013(3)
H1_8 H 0.4756 0.35 0.0995
C2_8 C 0.5690(10) 0.3930(10) 0.0799(4)
H2_8 H 0.5409 0.4196 0.0643
C3_8 C 0.6507(9) 0.3982(8) 0.0800(3)
C4_8 C 0.6859(9) 0.3598(10) 0.1031(4)
H3_8 H 0.7406 0.3596 0.1043
C5_8 C 0.6413(11) 0.3187(9) 0.1262(4)
H4_8 H 0.6678 0.2948 0.143
C6_8 C 0.6980(10) 0.4443(10) 0.0561(4)
H5_8 H 0.6619 0.4734 0.0425
H6_8 H 0.73 0.4823 0.0674
C7_8 C 0.7526(10) 0.3938(10) 0.0345(4)
H7_8 H 0.7213 0.3579 0.0217
H8_8 H 0.788 0.3629 0.0476
C8_8 C 0.7982(11) 0.4459(11) 0.0136(4)
H9_8 H 0.7626 0.4808 0.0022
H10_8 H 0.8332 0.4781 0.0264
H13_8 H 0.9535 0.4105 0.0088
Cl2_8 Cl 0.3971(3) 0.3494(2) 0.16026(11)
N3_8 N 0.4369(8) 0.1875(7) 0.1251(3)
C14_8 C 0.4699(10) 0.1483(9) 0.1013(3)
H15_8 H 0.5244 0.15 0.0995
C15_8 C 0.4310(10) 0.1070(10) 0.0799(4)
H16_8 H 0.4591 0.0804 0.0643
C16_8 C 0.3493(9) 0.1018(8) 0.0800(3)
C17_8 C 0.3141(9) 0.1402(10) 0.1031(4)
H17_8 H 0.2594 0.1404 0.1043
C18_8 C 0.3587(11) 0.1813(9) 0.1262(4)
H18_8 H 0.3322 0.2052 0.143
C19_8 C 0.3020(10) 0.0557(10) 0.0561(4)
H19_8 H 0.3381 0.0266 0.0425
H20_8 H 0.27 0.0177 0.0674
C20_8 C 0.2474(10) 0.1062(10) 0.0345(4)
H21_8 H 0.2787 0.1421 0.0217
H22_8 H 0.212 0.1371 0.0476
C21_8 C 0.2018(11) 0.0541(11) 0.0136(4)
H23_8 H 0.2374 0.0192 0.0022
H24_8 H 0.1668 0.0219 0.0264
H27_8 H 0.0465 0.0895 0.0088
C9_8 C 0.8575(11) 0.3138(9) 0.9440(4)
H11_8 H 0.8321 0.2854 0.9281
C10_8 C 0.8115(12) 0.3595(11) 0.9652(4)
H12_8 H 0.7572 0.3628 0.9626
C11_8 C 0.8470(11) 0.3982(11) 0.9893(4)
C12_8 C 0.9270(13) 0.3877(11) 0.9918(4)
C13_8 C 0.9696(13) 0.3439(12) 0.9696(4)
C22_8 C 0.1425(11) 0.1862(9) 0.9440(4)
H25_8 H 0.1679 0.2146 0.9281
C23_8 C 0.1885(12) 0.1405(11) 0.9652(4)
H26_8 H 0.2428 0.1372 0.9626
C24_8 C 0.1530(11) 0.1018(11) 0.9893(4)
C25_8 C 0.0730(13) 0.1123(11) 0.9918(4)
C26_8 C 0.0304(13) 0.1561(12) 0.9696(4)
H28_8 H 0.9762 0.1606 0.972
H42 H 0.0223 0.6553 0.2193
Ni6 Ni -0.00000 0.75000 0.28019(5)
Ni4 Ni 0.50000 0.75000 0.03019(5)
Cl3 Cl 0.39870(18) 0.64967(17) 0.03016(8)
N7 N 0.5645(6) 0.6885(5) 0.0656(2)
C27 C 0.5302(7) 0.6487(7) 0.0893(3)
H29 H 0.4756 0.6501 0.0906
C28 C 0.5693(7) 0.6067(7) 0.1116(3)
H30 H 0.5414 0.5809 0.1275
C29 C 0.6499(10) 0.6018(7) 0.1108(3)
C30 C 0.6887(7) 0.6416(7) 0.0856(3)
H31 H 0.7432 0.6396 0.0838
C31 C 0.6453(7) 0.6829(7) 0.0640(3)
H32 H 0.6713 0.7085 0.0475
C32 C 0.7002(9) 0.5560(8) 0.1346(3)
H33 H 0.6659 0.5247 0.148
H34 H 0.7339 0.52 0.1229
C33 C 0.7500(7) 0.6061(7) 0.1551(3)
H35 H 0.7169 0.6413 0.1675
H36 H 0.7846 0.6378 0.142
C34 C 0.7991(7) 0.5551(8) 0.1777(3)
H37 H 0.7642 0.5208 0.1896
H38 H 0.834 0.5220 0.1651
N8 N 0.9328(6) 0.6891(6) 0.2452(2)
C35 C 0.8575(8) 0.6833(7) 0.2463(3)
H39 H 0.8309 0.7096 0.2625
C36 C 0.8148(7) 0.6411(7) 0.2252(3)
H40 H 0.7605 0.6387 0.2277
C37 C 0.8479(7) 0.6026(7) 0.2008(3)
C38 C 0.9301(8) 0.6088(7) 0.1984(3)
H41 H 0.9575 0.5843 0.182
C39 C 0.9678(7) 0.6515(7) 0.2208(3)
Ni6_2 Ni 1.00000 0.75000 0.28019(5)
Cl4 Cl 0.60130(18) 0.85033(17) 0.03016(8)
N9 N 0.4355(6) 0.8115(5) 0.0656(2)
C40 C 0.4698(7) 0.8513(7) 0.0893(3)
H43 H 0.5244 0.8499 0.0906
C41 C 0.4307(7) 0.8933(7) 0.1116(3)
H44 H 0.4586 0.9191 0.1275
C42 C 0.3501(10) 0.8982(7) 0.1108(3)
C43 C 0.3113(7) 0.8584(7) 0.0856(3)
H45 H 0.2568 0.8604 0.0838
C44 C 0.3547(7) 0.8171(7) 0.0640(3)
H46 H 0.3287 0.7915 0.0475
C45 C 0.2998(9) 0.9440(8) 0.1346(3)
H47 H 0.3341 0.9753 0.148
H48 H 0.2661 0.98 0.1229
C46 C 0.2500(7) 0.8939(7) 0.1551(3)
H49 H 0.2831 0.8587 0.1675
H50 H 0.2154 0.8622 0.142
C47 C 0.2009(7) 0.9449(8) 0.1777(3)
H51 H 0.2358 0.9792 0.1896
H52 H 0.166 0.9780 0.1651
N10 N 0.0672(6) 0.8109(6) 0.2452(2)
C48 C 0.1425(8) 0.8167(7) 0.2463(3)
H53 H 0.1691 0.7904 0.2625
C49 C 0.1852(7) 0.8589(7) 0.2252(3)
H54 H 0.2395 0.8613 0.2277
C50 C 0.1521(7) 0.8974(7) 0.2008(3)
C51 C 0.0699(8) 0.8912(7) 0.1984(3)
H55 H 0.0425 0.9157 0.182
C52 C 0.0322(7) 0.8485(7) 0.2208(3)
N11 N 0.4391(6) 0.8172(6) 0.9952(2)
N12 N 0.5609(6) 0.6828(6) 0.9952(2)
H56 H 0.9777 0.8447 0.2193
Ni4_2 Ni 0.00000 0.25000 0.53019(5)
Cl3_2 Cl 0.10130(18) 0.35033(17) 0.53016(8)
H29_2 H 0.0244 0.3499 0.5906
Ni5 Ni 0.50000 0.25000 0.78019(5)
N9_2 N 0.0645(6) 0.1885(5) 0.5656(2)
C40_2 C 0.0302(7) 0.1487(7) 0.5893(3)
C41_2 C 0.0693(7) 0.1067(7) 0.6116(3)
H44_2 H 0.0414 0.0809 0.6275
C42_2 C 0.1499(10) 0.1018(7) 0.6108(3)
C43_2 C 0.1887(7) 0.1416(7) 0.5856(3)
H45_2 H 0.2432 0.1396 0.5838
C44_2 C 0.1453(7) 0.1829(7) 0.5640(3)
H46_2 H 0.1713 0.2085 0.5475
C45_2 C 0.2002(9) 0.0560(8) 0.6346(3)
H47_2 H 0.1659 0.0247 0.648
H48_2 H 0.2339 0.02 0.6229
C46_2 C 0.2500(7) 0.1061(7) 0.6551(3)
H49_2 H 0.2169 0.1413 0.6675
H50_2 H 0.2846 0.1378 0.642
C47_2 C 0.2991(7) 0.0551(8) 0.6777(3)
H51_2 H 0.2642 0.0208 0.6896
H52_2 H 0.334 0.0220 0.6651
N10_2 N 0.4328(6) 0.1891(6) 0.7452(2)
N11_2 N 0.0609(6) 0.1828(6) 0.4952(2)
C48_2 C 0.3575(8) 0.1833(7) 0.7463(3)
H53_2 H 0.3309 0.2096 0.7625
C49_2 C 0.3148(7) 0.1411(7) 0.7252(3)
H54_2 H 0.2605 0.1387 0.7277
C50_2 C 0.3479(7) 0.1026(7) 0.7008(3)
C51_2 C 0.4301(8) 0.1088(7) 0.6984(3)
H55_2 H 0.4575 0.0843 0.682
C52_2 C 0.4678(7) 0.1515(7) 0.7208(3)
H56_2 H 0.5223 0.1553 0.7193
Ni4_3 Ni 1.00000 0.25000 0.53019(5)
N7_2 N 0.9355(6) 0.3115(5) 0.5656(2)
C27_2 C 0.9698(7) 0.3513(7) 0.5893(3)
C28_2 C 0.9307(7) 0.3933(7) 0.6116(3)
H30_2 H 0.9586 0.4191 0.6275
C29_2 C 0.8501(10) 0.3982(7) 0.6108(3)
C30_2 C 0.8113(7) 0.3584(7) 0.5856(3)
H31_2 H 0.7568 0.3604 0.5838
C31_2 C 0.8547(7) 0.3171(7) 0.5640(3)
H32_2 H 0.8287 0.2915 0.5475
C32_2 C 0.7998(9) 0.4440(8) 0.6346(3)
H33_2 H 0.8341 0.4753 0.648
H34_2 H 0.7661 0.48 0.6229
C33_2 C 0.7500(7) 0.3939(7) 0.6551(3)
H35_2 H 0.7831 0.3587 0.6675
H36_2 H 0.7154 0.3622 0.642
C34_2 C 0.7009(7) 0.4449(8) 0.6777(3)
H37_2 H 0.7358 0.4792 0.6896
H38_2 H 0.666 0.4780 0.6651
N8_2 N 0.5672(6) 0.3109(6) 0.7452(2)
C35_2 C 0.6425(8) 0.3167(7) 0.7463(3)
H39_2 H 0.6691 0.2904 0.7625
C36_2 C 0.6852(7) 0.3589(7) 0.7252(3)
H40_2 H 0.7395 0.3613 0.7277
C37_2 C 0.6521(7) 0.3974(7) 0.7008(3)
C38_2 C 0.5699(8) 0.3912(7) 0.6984(3)
H41_2 H 0.5425 0.4157 0.682
C39_2 C 0.5322(7) 0.3485(7) 0.7208(3)
H42_2 H 0.4777 0.3447 0.7193
Cl4_2 Cl 0.89870(18) 0.14967(17) 0.53016(8)
H43_2 H 0.9756 0.1501 0.5906
N12_2 N 0.9391(6) 0.3172(6) 0.4952(2)
C33_3 C 0.1439(7) 0.0000(7) 0.4051(3)
H36_3 H 0.1122 0.0346 0.392
C34_3 C 0.1949(8) 0.0491(7) 0.4277(3)
H37_3 H 0.2292 0.0142 0.4396
H38_3 H 0.2280 0.084 0.4151
C35_3 C 0.0667(7) 0.1075(8) 0.4963(3)
H39_3 H 0.0404 0.0809 0.5125
C36_3 C 0.1089(7) 0.0648(7) 0.4752(3)
H40_3 H 0.1113 0.0105 0.4777
C37_3 C 0.1474(7) 0.0979(7) 0.4508(3)
C38_3 C 0.1412(7) 0.1801(8) 0.4484(3)
H41_3 H 0.1657 0.2075 0.432
C39_3 C 0.0985(7) 0.2178(7) 0.4708(3)
H42_3 H 0.0947 0.2723 0.4693
Cl3_3 Cl 0.10033(17) 0.64870(18) 0.28016(8)
N7_3 N 0.0615(5) 0.8145(6) 0.3156(2)
C27_3 C 0.1013(7) 0.7802(7) 0.3393(3)
H29_3 H 0.0999 0.7256 0.3406
C28_3 C 0.1433(7) 0.8193(7) 0.3616(3)
H30_3 H 0.1691 0.7914 0.3775
C29_3 C 0.1482(7) 0.8999(10) 0.3608(3)
C30_3 C 0.1084(7) 0.9387(7) 0.3356(3)
H31_3 H 0.1104 0.9932 0.3338
C31_3 C 0.0671(7) 0.8953(7) 0.3140(3)
H32_3 H 0.0415 0.9213 0.2975
C32_3 C 0.1940(8) 0.9502(9) 0.3846(3)
H33_3 H 0.2253 0.9159 0.398
H34_3 H 0.23 0.9839 0.3729
C33_4 C 0.1439(7) 1.0000(7) 0.4051(3)
H35_3 H 0.1087 0.9669 0.4175
Cl4_3 Cl 0.89967(17) 0.85130(18) 0.28016(8)
N9_3 N 0.9385(5) 0.6855(6) 0.3156(2)
C40_3 C 0.8987(7) 0.7198(7) 0.3393(3)
H43_3 H 0.9001 0.7744 0.3406
C41_3 C 0.8567(7) 0.6807(7) 0.3616(3)
H44_3 H 0.8309 0.7086 0.3775
C42_3 C 0.8518(7) 0.6001(10) 0.3608(3)
C43_3 C 0.8916(7) 0.5613(7) 0.3356(3)
H45_3 H 0.8896 0.5068 0.3338
C44_3 C 0.9329(7) 0.6047(7) 0.3140(3)
H46_3 H 0.9585 0.5787 0.2975
C45_3 C 0.8060(8) 0.5498(9) 0.3846(3)
H47_3 H 0.7747 0.5841 0.398
H48_3 H 0.77 0.5161 0.3729
C46_3 C 0.8561(7) 0.5000(7) 0.4051(3)
H49_3 H 0.8913 0.5331 0.4175
H50_3 H 0.8878 0.4654 0.392
C47_3 C 0.8051(8) 0.4509(7) 0.4277(3)
H51_3 H 0.7708 0.4858 0.4396
H52_3 H 0.7720 0.416 0.4151
C48_3 C 0.9333(7) 0.3925(8) 0.4963(3)
H53_3 H 0.9596 0.4191 0.5125
C49_3 C 0.8911(7) 0.4352(7) 0.4752(3)
H54_3 H 0.8887 0.4895 0.4777
C50_3 C 0.8526(7) 0.4021(7) 0.4508(3)
C51_3 C 0.8588(7) 0.3199(8) 0.4484(3)
H55_3 H 0.8343 0.2925 0.432
C52_3 C 0.9015(7) 0.2822(7) 0.4708(3)
H56_3 H 0.9053 0.2277 0.4693
H53_4 H 0.5404 0.5809 0.0125
Cl3_4 Cl 0.39967(17) 0.35130(18) 0.78016(8)
N7_4 N 0.4385(5) 0.1855(6) 0.8156(2)
C27_4 C 0.3987(7) 0.2198(7) 0.8393(3)
H29_4 H 0.4001 0.2744 0.8406
C28_4 C 0.3567(7) 0.1807(7) 0.8616(3)
H30_4 H 0.3309 0.2086 0.8775
C29_4 C 0.3518(7) 0.1001(10) 0.8608(3)
C30_4 C 0.3916(7) 0.0613(7) 0.8356(3)
H31_4 H 0.3896 0.0068 0.8338
C31_4 C 0.4329(7) 0.1047(7) 0.8140(3)
H32_4 H 0.4585 0.0787 0.7975
C32_4 C 0.3060(8) 0.0498(9) 0.8846(3)
H33_4 H 0.2747 0.0841 0.898
H34_4 H 0.27 0.0161 0.8729
C33_5 C 0.3561(7) 0.0000(7) 0.9051(3)
H35_4 H 0.3913 0.0331 0.9175
Cl4_4 Cl 0.60033(17) 0.14870(18) 0.78016(8)
N9_4 N 0.5615(5) 0.3145(6) 0.8156(2)
C40_4 C 0.6013(7) 0.2802(7) 0.8393(3)
H43_4 H 0.5999 0.2256 0.8406
C41_4 C 0.6433(7) 0.3193(7) 0.8616(3)
H44_4 H 0.6691 0.2914 0.8775
C42_4 C 0.6482(7) 0.3999(10) 0.8608(3)
C43_4 C 0.6084(7) 0.4387(7) 0.8356(3)
H45_4 H 0.6104 0.4932 0.8338
C44_4 C 0.5671(7) 0.3953(7) 0.8140(3)
H46_4 H 0.5415 0.4213 0.7975
C45_4 C 0.6940(8) 0.4502(9) 0.8846(3)
H47_4 H 0.7253 0.4159 0.898
H48_4 H 0.73 0.4839 0.8729
C46_4 C 0.6439(7) 0.5000(7) 0.9051(3)
H49_4 H 0.6087 0.4669 0.9175
H50_4 H 0.6122 0.5346 0.892
C47_4 C 0.6949(8) 0.5491(7) 0.9277(3)
H51_4 H 0.7292 0.5142 0.9396
H52_4 H 0.7280 0.584 0.9151
C48_4 C 0.5667(7) 0.6075(8) 0.9963(3)
C49_4 C 0.6089(7) 0.5648(7) 0.9752(3)
H54_4 H 0.6113 0.5105 0.9777
C50_4 C 0.6474(7) 0.5979(7) 0.9508(3)
C51_4 C 0.6412(7) 0.6801(8) 0.9484(3)
H55_4 H 0.6657 0.7075 0.932
C52_4 C 0.5985(7) 0.7178(7) 0.9708(3)
H56_4 H 0.5947 0.7723 0.9693
H39_4 H 0.4596 0.9191 0.0125
C33_6 C 0.3561(7) 1.0000(7) 0.9051(3)
H36_4 H 0.3878 0.9654 0.892
C34_4 C 0.3051(8) 0.9509(7) 0.9277(3)
H37_4 H 0.2708 0.9858 0.9396
H38_4 H 0.2720 0.916 0.9151
C35_4 C 0.4333(7) 0.8925(8) 0.9963(3)
C36_4 C 0.3911(7) 0.9352(7) 0.9752(3)
H40_4 H 0.3887 0.9895 0.9777
C37_4 C 0.3526(7) 0.9021(7) 0.9508(3)
C38_4 C 0.3588(7) 0.8199(8) 0.9484(3)
H41_4 H 0.3343 0.7925 0.932
C39_4 C 0.4015(7) 0.7822(7) 0.9708(3)
H42_4 H 0.4053 0.7277 0.9693
Ni5_2 Ni 0.00000 0.25000 0.71981(5)
H56_5 H 0.0223 0.1553 0.7807
N11_3 N 0.5609(6) 0.1828(6) 0.0048(2)
N12_3 N 0.4391(6) 0.3172(6) 0.0048(2)
Ni4_4 Ni 0.50000 0.25000 0.96981(5)
Cl3_5 Cl 0.60130(18) 0.35033(17) 0.96984(8)
N7_5 N 0.4355(6) 0.3115(5) 0.9344(2)
C27_5 C 0.4698(7) 0.3513(7) 0.9107(3)
H29_5 H 0.5244 0.3499 0.9094
C28_5 C 0.4307(7) 0.3933(7) 0.8884(3)
H30_5 H 0.4586 0.4191 0.8725
C29_5 C 0.3501(10) 0.3982(7) 0.8892(3)
C30_5 C 0.3113(7) 0.3584(7) 0.9144(3)
H31_5 H 0.2568 0.3604 0.9162
C31_5 C 0.3547(7) 0.3171(7) 0.9360(3)
H32_5 H 0.3287 0.2915 0.9525
C32_5 C 0.2998(9) 0.4440(8) 0.8654(3)
H33_5 H 0.3341 0.4753 0.852
H34_5 H 0.2661 0.48 0.8771
C33_7 C 0.2500(7) 0.3939(7) 0.8449(3)
H35_5 H 0.2831 0.3587 0.8325
H36_5 H 0.2154 0.3622 0.858
C34_5 C 0.2009(7) 0.4449(8) 0.8223(3)
H37_5 H 0.2358 0.4792 0.8104
H38_5 H 0.166 0.4780 0.8349
N8_3 N 0.0672(6) 0.3109(6) 0.7548(2)
C35_5 C 0.1425(8) 0.3167(7) 0.7537(3)
H39_5 H 0.1691 0.2904 0.7375
C36_5 C 0.1852(7) 0.3589(7) 0.7748(3)
H40_5 H 0.2395 0.3613 0.7723
C37_5 C 0.1521(7) 0.3974(7) 0.7992(3)
C38_5 C 0.0699(8) 0.3912(7) 0.8016(3)
H41_5 H 0.0425 0.4157 0.818
C39_5 C 0.0322(7) 0.3485(7) 0.7792(3)
Ni5_3 Ni 1.00000 0.25000 0.71981(5)
Cl4_5 Cl 0.39870(18) 0.14967(17) 0.96984(8)
N9_5 N 0.5645(6) 0.1885(5) 0.9344(2)
C40_5 C 0.5302(7) 0.1487(7) 0.9107(3)
H43_5 H 0.4756 0.1501 0.9094
C41_5 C 0.5693(7) 0.1067(7) 0.8884(3)
H44_5 H 0.5414 0.0809 0.8725
C42_5 C 0.6499(10) 0.1018(7) 0.8892(3)
C43_5 C 0.6887(7) 0.1416(7) 0.9144(3)
H45_5 H 0.7432 0.1396 0.9162
C44_5 C 0.6453(7) 0.1829(7) 0.9360(3)
H46_5 H 0.6713 0.2085 0.9525
C45_5 C 0.7002(9) 0.0560(8) 0.8654(3)
H47_5 H 0.6659 0.0247 0.852
H48_5 H 0.7339 0.02 0.8771
C46_5 C 0.7500(7) 0.1061(7) 0.8449(3)
H49_5 H 0.7169 0.1413 0.8325
H50_5 H 0.7846 0.1378 0.858
C47_5 C 0.7991(7) 0.0551(8) 0.8223(3)
H51_5 H 0.7642 0.0208 0.8104
H52_5 H 0.834 0.0220 0.8349
N10_3 N 0.9328(6) 0.1891(6) 0.7548(2)
C48_5 C 0.8575(8) 0.1833(7) 0.7537(3)
H53_5 H 0.8309 0.2096 0.7375
C49_5 C 0.8148(7) 0.1411(7) 0.7748(3)
H54_5 H 0.7605 0.1387 0.7723
C50_5 C 0.8479(7) 0.1026(7) 0.7992(3)
C51_5 C 0.9301(8) 0.1088(7) 0.8016(3)
H55_5 H 0.9575 0.0843 0.818
C52_5 C 0.9678(7) 0.1515(7) 0.7792(3)
H42_5 H 0.9777 0.3447 0.7807
Ni4_5 Ni -0.00000 0.75000 0.46981(5)
N7_6 N 0.0645(6) 0.6885(5) 0.4344(2)
C27_6 C 0.0302(7) 0.6487(7) 0.4107(3)
C28_6 C 0.0693(7) 0.6067(7) 0.3884(3)
H30_6 H 0.0414 0.5809 0.3725
C29_6 C 0.1499(10) 0.6018(7) 0.3892(3)
C30_6 C 0.1887(7) 0.6416(7) 0.4144(3)
H31_6 H 0.2432 0.6396 0.4162
C31_6 C 0.1453(7) 0.6829(7) 0.4360(3)
H32_6 H 0.1713 0.7085 0.4525
C32_6 C 0.2002(9) 0.5560(8) 0.3654(3)
H33_6 H 0.1659 0.5247 0.352
H34_6 H 0.2339 0.52 0.3771
C33_8 C 0.2500(7) 0.6061(7) 0.3449(3)
H35_6 H 0.2169 0.6413 0.3325
H36_6 H 0.2846 0.6378 0.358
C34_6 C 0.2991(7) 0.5551(8) 0.3223(3)
H37_6 H 0.2642 0.5208 0.3104
H38_6 H 0.334 0.5220 0.3349
N8_4 N 0.4328(6) 0.6891(6) 0.2548(2)
C35_6 C 0.3575(8) 0.6833(7) 0.2537(3)
H39_6 H 0.3309 0.7096 0.2375
C36_6 C 0.3148(7) 0.6411(7) 0.2748(3)
H40_6 H 0.2605 0.6387 0.2723
C37_6 C 0.3479(7) 0.6026(7) 0.2992(3)
C38_6 C 0.4301(8) 0.6088(7) 0.3016(3)
H41_6 H 0.4575 0.5843 0.318
C39_6 C 0.4678(7) 0.6515(7) 0.2792(3)
H42_6 H 0.5223 0.6553 0.2807
Ni6_3 Ni 0.50000 0.75000 0.21981(5)
Cl4_6 Cl 0.10130(18) 0.85033(17) 0.46984(8)
H43_6 H 0.0244 0.8499 0.4094
N12_4 N 0.0609(6) 0.6828(6) 0.5048(2)
Ni4_6 Ni 1.00000 0.75000 0.46981(5)
Cl3_6 Cl 0.89870(18) 0.64967(17) 0.46984(8)
H29_6 H 0.9756 0.6501 0.4094
N9_6 N 0.9355(6) 0.8115(5) 0.4344(2)
C40_6 C 0.9698(7) 0.8513(7) 0.4107(3)
C41_6 C 0.9307(7) 0.8933(7) 0.3884(3)
H44_6 H 0.9586 0.9191 0.3725
C42_6 C 0.8501(10) 0.8982(7) 0.3892(3)
C43_6 C 0.8113(7) 0.8584(7) 0.4144(3)
H45_6 H 0.7568 0.8604 0.4162
C44_6 C 0.8547(7) 0.8171(7) 0.4360(3)
H46_6 H 0.8287 0.7915 0.4525
C45_6 C 0.7998(9) 0.9440(8) 0.3654(3)
H47_6 H 0.8341 0.9753 0.352
H48_6 H 0.7661 0.98 0.3771
C46_6 C 0.7500(7) 0.8939(7) 0.3449(3)
H49_6 H 0.7831 0.8587 0.3325
H50_6 H 0.7154 0.8622 0.358
C47_6 C 0.7009(7) 0.9449(8) 0.3223(3)
H51_6 H 0.7358 0.9792 0.3104
H52_6 H 0.666 0.9780 0.3349
N10_4 N 0.5672(6) 0.8109(6) 0.2548(2)
N11_4 N 0.9391(6) 0.8172(6) 0.5048(2)
C48_6 C 0.6425(8) 0.8167(7) 0.2537(3)
H53_6 H 0.6691 0.7904 0.2375
C49_6 C 0.6852(7) 0.8589(7) 0.2748(3)
H54_6 H 0.7395 0.8613 0.2723
C50_6 C 0.6521(7) 0.8974(7) 0.2992(3)
C51_6 C 0.5699(8) 0.8912(7) 0.3016(3)
H55_6 H 0.5425 0.9157 0.318
C52_6 C 0.5322(7) 0.8485(7) 0.2792(3)
H56_6 H 0.4777 0.8447 0.2807
Cl4_7 Cl 0.10033(17) 0.14870(18) 0.71984(8)
N9_7 N 0.0615(5) 0.3145(6) 0.6844(2)
C40_7 C 0.1013(7) 0.2802(7) 0.6607(3)
H43_7 H 0.0999 0.2256 0.6594
C41_7 C 0.1433(7) 0.3193(7) 0.6384(3)
H44_7 H 0.1691 0.2914 0.6225
C42_7 C 0.1482(7) 0.3999(10) 0.6392(3)
C43_7 C 0.1084(7) 0.4387(7) 0.6644(3)
H45_7 H 0.1104 0.4932 0.6662
C44_7 C 0.0671(7) 0.3953(7) 0.6860(3)
H46_7 H 0.0415 0.4213 0.7025
C45_7 C 0.1940(8) 0.4502(9) 0.6154(3)
H47_7 H 0.2253 0.4159 0.602
H48_7 H 0.23 0.4839 0.6271
C46_7 C 0.1439(7) 0.5000(7) 0.5949(3)
H49_7 H 0.1087 0.4669 0.5825
H50_7 H 0.1122 0.5346 0.608
C47_7 C 0.1949(8) 0.5491(7) 0.5723(3)
H51_7 H 0.2292 0.5142 0.5604
H52_7 H 0.2280 0.584 0.5849
C48_7 C 0.0667(7) 0.6075(8) 0.5037(3)
H53_7 H 0.0404 0.5809 0.4875
C49_7 C 0.1089(7) 0.5648(7) 0.5248(3)
H54_7 H 0.1113 0.5105 0.5223
C50_7 C 0.1474(7) 0.5979(7) 0.5492(3)
C51_7 C 0.1412(7) 0.6801(8) 0.5516(3)
H55_7 H 0.1657 0.7075 0.568
C52_7 C 0.0985(7) 0.7178(7) 0.5292(3)
H56_7 H 0.0947 0.7723 0.5307
Cl3_7 Cl 0.89967(17) 0.35130(18) 0.71984(8)
N7_7 N 0.9385(5) 0.1855(6) 0.6844(2)
C27_7 C 0.8987(7) 0.2198(7) 0.6607(3)
H29_7 H 0.9001 0.2744 0.6594
C28_7 C 0.8567(7) 0.1807(7) 0.6384(3)
H30_7 H 0.8309 0.2086 0.6225
C29_7 C 0.8518(7) 0.1001(10) 0.6392(3)
C30_7 C 0.8916(7) 0.0613(7) 0.6644(3)
H31_7 H 0.8896 0.0068 0.6662
C31_7 C 0.9329(7) 0.1047(7) 0.6860(3)
H32_7 H 0.9585 0.0787 0.7025
C32_7 C 0.8060(8) 0.0498(9) 0.6154(3)
H33_7 H 0.7747 0.0841 0.602
H34_7 H 0.77 0.0161 0.6271
C33_9 C 0.8561(7) 0.0000(7) 0.5949(3)
H35_7 H 0.8913 0.0331 0.5825
C33_10 C 0.8561(7) 1.0000(7) 0.5949(3)
H36_7 H 0.8878 0.9654 0.608
C34_7 C 0.8051(8) 0.9509(7) 0.5723(3)
H37_7 H 0.7708 0.9858 0.5604
H38_7 H 0.7720 0.916 0.5849
C35_7 C 0.9333(7) 0.8925(8) 0.5037(3)
H39_7 H 0.9596 0.9191 0.4875
C36_7 C 0.8911(7) 0.9352(7) 0.5248(3)
H40_7 H 0.8887 0.9895 0.5223
C37_7 C 0.8526(7) 0.9021(7) 0.5492(3)
C38_7 C 0.8588(7) 0.8199(8) 0.5516(3)
H41_7 H 0.8343 0.7925 0.568
C39_7 C 0.9015(7) 0.7822(7) 0.5292(3)
H42_7 H 0.9053 0.7277 0.5307
C33_11 C 0.6439(7) 0.0000(7) 0.0949(3)
H36_8 H 0.6122 0.0346 0.108
C34_8 C 0.6949(8) 0.0491(7) 0.0723(3)
H37_8 H 0.7292 0.0142 0.0604
H38_8 H 0.7280 0.084 0.0849
C35_8 C 0.5667(7) 0.1075(8) 0.0037(3)
C36_8 C 0.6089(7) 0.0648(7) 0.0248(3)
H40_8 H 0.6113 0.0105 0.0223
C37_8 C 0.6474(7) 0.0979(7) 0.0492(3)
C38_8 C 0.6412(7) 0.1801(8) 0.0516(3)
H41_8 H 0.6657 0.2075 0.068
C39_8 C 0.5985(7) 0.2178(7) 0.0292(3)
H42_8 H 0.5947 0.2723 0.0307
H39_8 H 0.5404 0.0809 0.9875
Cl3_8 Cl 0.60033(17) 0.64870(18) 0.21984(8)
N7_8 N 0.5615(5) 0.8145(6) 0.1844(2)
C27_8 C 0.6013(7) 0.7802(7) 0.1607(3)
H29_8 H 0.5999 0.7256 0.1594
C28_8 C 0.6433(7) 0.8193(7) 0.1384(3)
H30_8 H 0.6691 0.7914 0.1225
C29_8 C 0.6482(7) 0.8999(10) 0.1392(3)
C30_8 C 0.6084(7) 0.9387(7) 0.1644(3)
H31_8 H 0.6104 0.9932 0.1662
C31_8 C 0.5671(7) 0.8953(7) 0.1860(3)
H32_8 H 0.5415 0.9213 0.2025
C32_8 C 0.6940(8) 0.9502(9) 0.1154(3)
H33_8 H 0.7253 0.9159 0.102
H34_8 H 0.73 0.9839 0.1271
C33_12 C 0.6439(7) 1.0000(7) 0.0949(3)
H35_8 H 0.6087 0.9669 0.0825
Cl4_8 Cl 0.39967(17) 0.85130(18) 0.21984(8)
N9_8 N 0.4385(5) 0.6855(6) 0.1844(2)
C40_8 C 0.3987(7) 0.7198(7) 0.1607(3)
H43_8 H 0.4001 0.7744 0.1594
C41_8 C 0.3567(7) 0.6807(7) 0.1384(3)
H44_8 H 0.3309 0.7086 0.1225
C42_8 C 0.3518(7) 0.6001(10) 0.1392(3)
C43_8 C 0.3916(7) 0.5613(7) 0.1644(3)
H45_8 H 0.3896 0.5068 0.1662
C44_8 C 0.4329(7) 0.6047(7) 0.1860(3)
H46_8 H 0.4585 0.5787 0.2025
C45_8 C 0.3060(8) 0.5498(9) 0.1154(3)
H47_8 H 0.2747 0.5841 0.102
H48_8 H 0.27 0.5161 0.1271
C46_8 C 0.3561(7) 0.5000(7) 0.0949(3)
H49_8 H 0.3913 0.5331 0.0825
H50_8 H 0.3878 0.4654 0.108
C47_8 C 0.3051(8) 0.4509(7) 0.0723(3)
H51_8 H 0.2708 0.4858 0.0604
H52_8 H 0.2720 0.416 0.0849
C48_8 C 0.4333(7) 0.3925(8) 0.0037(3)
C49_8 C 0.3911(7) 0.4352(7) 0.0248(3)
H54_8 H 0.3887 0.4895 0.0223
C50_8 C 0.3526(7) 0.4021(7) 0.0492(3)
C51_8 C 0.3588(7) 0.3199(8) 0.0516(3)
H55_8 H 0.3343 0.2925 0.068
C52_8 C 0.4015(7) 0.2822(7) 0.0292(3)
H56_8 H 0.4053 0.2277 0.0307
H53_8 H 0.4596 0.4191 0.9875
loop_
_geom_bond_atom_site_label_1
_geom_bond_atom_site_label_2
_geom_bond_site_symmetry_1
_geom_bond_site_symmetry_2
N1 Ni1 1_555 1_555
C1 N1 1_555 1_555
H1 C1 1_555 1_555
C2 C1 1_555 1_555
H2 C2 1_555 1_555
C3 C2 1_555 1_555
C4 C3 1_555 1_555
H3 C4 1_555 1_555
C5 N1 1_555 1_555
H4 C5 1_555 1_555
C6 C3 1_555 1_555
H5 C6 1_555 1_555
H6 C6 1_555 1_555
C7 C6 1_555 1_555
H7 C7 1_555 1_555
H8 C7 1_555 1_555
C8 C7 1_555 1_555
H9 C8 1_555 1_555
H10 C8 1_555 1_555
N2 C9 1_555 1_555
C9 H11 1_555 1_555
C10 C9 1_555 1_555
H12 C10 1_555 1_555
C11 C8 1_555 1_555
C12 C11 1_555 1_555
H13 C12 1_555 1_555
C13 N2 1_555 1_555
H14 C13 1_555 1_555
Ni3 N2 1_555 1_555
Cl2 Ni1 1_555 1_555
N5 Ni1 1_555 1_555
C4 C5 1_555 1_555
C10 C11 1_555 1_555
C12 C13 1_555 1_555
Ni3_2 N4 1_555 1_555
H22 C20 1_555 1_555
C21 C20 1_555 1_555
H23 C21 1_555 1_555
H24 C21 1_555 1_555
N4 C22 1_555 1_555
C22 H25 1_555 1_555
C23 C22 1_555 1_555
H26 C23 1_555 1_555
C24 C21 1_555 1_555
C25 C24 1_555 1_555
H27 C25 1_555 1_555
C26 N4 1_555 1_555
H28 C26 1_555 1_555
C23 C24 1_555 1_555
C25 C26 1_555 1_555
Ni1_2 Cl1 1_555 1_555
N3 Ni1_2 1_555 1_555
C14 N3 1_555 1_555
H15 C14 1_555 1_555
C15 C14 1_555 1_555
H16 C15 1_555 1_555
C16 C15 1_555 1_555
C17 C16 1_555 1_555
H17 C17 1_555 1_555
C18 N3 1_555 1_555
H18 C18 1_555 1_555
C19 C16 1_555 1_555
H19 C19 1_555 1_555
H20 C19 1_555 1_555
N6 Ni1_2 1_555 1_555
C17 C18 1_555 1_555
Ni1_3 Cl1_2 1_555 1_555
N1_2 Ni1_3 1_555 1_555
C1_2 N1_2 1_555 1_555
H1_2 C1_2 1_555 1_555
C2_2 C1_2 1_555 1_555
H2_2 C2_2 1_555 1_555
C3_2 C2_2 1_555 1_555
C4_2 C3_2 1_555 1_555
H3_2 C4_2 1_555 1_555
C5_2 N1_2 1_555 1_555
H4_2 C5_2 1_555 1_555
C6_2 C3_2 1_555 1_555
H5_2 C6_2 1_555 1_555
H6_2 C6_2 1_555 1_555
C7_2 C6_2 1_555 1_555
H7_2 C7_2 1_555 1_555
H8_2 C7_2 1_555 1_555
C8_2 C7_2 1_555 1_555
H9_2 C8_2 1_555 1_555
H10_2 C8_2 1_555 1_555
N2_2 C9_2 1_555 1_555
C9_2 H11_2 1_555 1_555
C10_2 C9_2 1_555 1_555
H12_2 C10_2 1_555 1_555
C11_2 C8_2 1_555 1_555
C12_2 C11_2 1_555 1_555
H13_2 C12_2 1_555 1_555
C13_2 N2_2 1_555 1_555
H14_2 C13_2 1_555 1_555
Ni2 N2_2 1_555 1_555
Cl2_2 Ni1_3 1_555 1_555
N3_2 Ni1_3 1_555 1_555
C14_2 N3_2 1_555 1_555
H15_2 C14_2 1_555 1_555
C15_2 C14_2 1_555 1_555
H16_2 C15_2 1_555 1_555
C16_2 C15_2 1_555 1_555
C17_2 C16_2 1_555 1_555
H17_2 C17_2 1_555 1_555
C18_2 N3_2 1_555 1_555
H18_2 C18_2 1_555 1_555
C19_2 C16_2 1_555 1_555
H19_2 C19_2 1_555 1_555
H20_2 C19_2 1_555 1_555
N5_2 Ni1_3 1_555 1_555
N6_2 Ni1_3 1_555 1_555
C4_2 C5_2 1_555 1_555
C10_2 C11_2 1_555 1_555
C12_2 C13_2 1_555 1_555
C17_2 C18_2 1_555 1_555
Ni2 N4_2 1_555 1_555
H22_2 C20_2 1_555 1_555
C21_2 C20_2 1_555 1_555
H23_2 C21_2 1_555 1_555
H24_2 C21_2 1_555 1_555
N4_2 C22_2 1_555 1_555
C22_2 H25_2 1_555 1_555
C23_2 C22_2 1_555 1_555
H26_2 C23_2 1_555 1_555
C24_2 C21_2 1_555 1_555
C25_2 C24_2 1_555 1_555
H27_2 C25_2 1_555 1_555
C26_2 N4_2 1_555 1_555
H28_2 C26_2 1_555 1_555
C23_2 C24_2 1_555 1_555
C25_2 C26_2 1_555 1_555
Ni3 Cl1_3 1_555 1_555
N1_3 Ni3 1_555 1_555
C1_3 N1_3 1_555 1_555
C2_3 C1_3 1_555 1_555
H2_3 C2_3 1_555 1_555
C3_3 C2_3 1_555 1_555
C4_3 C3_3 1_555 1_555
H3_3 C4_3 1_555 1_555
C5_3 N1_3 1_555 1_555
H4_3 C5_3 1_555 1_555
C6_3 C3_3 1_555 1_555
H5_3 C6_3 1_555 1_555
H6_3 C6_3 1_555 1_555
C7_3 C6_3 1_555 1_555
H7_3 C7_3 1_555 1_555
H8_3 C7_3 1_555 1_555
C8_3 C7_3 1_555 1_555
H9_3 C8_3 1_555 1_555
H10_3 C8_3 1_555 1_555
N5_2 C9_3 1_555 1_555
C9_3 H11_3 1_555 1_555
C10_3 C9_3 1_555 1_555
H12_3 C10_3 1_555 1_555
C11_3 C8_3 1_555 1_555
C12_3 C11_3 1_555 1_555
H13_3 C12_3 1_555 1_555
C13_3 N5_2 1_555 1_555
H14_3 C13_3 1_555 1_555
C4_3 C5_3 1_555 1_555
C10_3 C11_3 1_555 1_555
C12_3 C13_3 1_555 1_555
Cl2_3 Ni3_2 1_555 1_555
N3_3 Ni3_2 1_555 1_555
C14_3 N3_3 1_555 1_555
C15_3 C14_3 1_555 1_555
H16_3 C15_3 1_555 1_555
C16_3 C15_3 1_555 1_555
C17_3 C16_3 1_555 1_555
H17_3 C17_3 1_555 1_555
C18_3 N3_3 1_555 1_555
H18_3 C18_3 1_555 1_555
C19_3 C16_3 1_555 1_555
H19_3 C19_3 1_555 1_555
H20_3 C19_3 1_555 1_555
C20_3 C19_3 1_555 1_555
H21_3 C20_3 1_555 1_555
H22_3 C20_3 1_555 1_555
C21_3 C20_3 1_555 1_555
H23_3 C21_3 1_555 1_555
H24_3 C21_3 1_555 1_555
N6_2 C22_3 1_555 1_555
C22_3 H25_3 1_555 1_555
C23_3 C22_3 1_555 1_555
H26_3 C23_3 1_555 1_555
C24_3 C21_3 1_555 1_555
C25_3 C24_3 1_555 1_555
H27_3 C25_3 1_555 1_555
C26_3 N6_2 1_555 1_555
H28_3 C26_3 1_555 1_555
C17_3 C18_3 1_555 1_555
C23_3 C24_3 1_555 1_555
C25_3 C26_3 1_555 1_555
N5 C9_4 1_555 1_555
C9_4 H11_4 1_555 1_555
C10_4 C9_4 1_555 1_555
H12_4 C10_4 1_555 1_555
C12_4 C11_4 1_555 1_555
C13_4 N5 1_555 1_555
N6 C22_4 1_555 1_555
C22_4 H25_4 1_555 1_555
C23_4 C22_4 1_555 1_555
H26_4 C23_4 1_555 1_555
C25_4 C24_4 1_555 1_555
C26_4 N6 1_555 1_555
C10_4 C11_4 1_555 1_555
C12_4 C13_4 1_555 1_555
C23_4 C24_4 1_555 1_555
C25_4 C26_4 1_555 1_555
Ni2 Cl1_4 1_555 1_555
N1_4 Ni2 1_555 1_555
C1_4 N1_4 1_555 1_555
H1_4 C1_4 1_555 1_555
C2_4 C1_4 1_555 1_555
H2_4 C2_4 1_555 1_555
C3_4 C2_4 1_555 1_555
C4_4 C3_4 1_555 1_555
H3_4 C4_4 1_555 1_555
C5_4 N1_4 1_555 1_555
H4_4 C5_4 1_555 1_555
C6_4 C3_4 1_555 1_555
H5_4 C6_4 1_555 1_555
H6_4 C6_4 1_555 1_555
C7_4 C6_4 1_555 1_555
H7_4 C7_4 1_555 1_555
H8_4 C7_4 1_555 1_555
C8_4 C7_4 1_555 1_555
H9_4 C8_4 1_555 1_555
H10_4 C8_4 1_555 1_555
Cl2_4 Ni2 1_555 1_555
N3_4 Ni2 1_555 1_555
C14_4 N3_4 1_555 1_555
H15_4 C14_4 1_555 1_555
C15_4 C14_4 1_555 1_555
H16_4 C15_4 1_555 1_555
C16_4 C15_4 1_555 1_555
C17_4 C16_4 1_555 1_555
H17_4 C17_4 1_555 1_555
C18_4 N3_4 1_555 1_555
H18_4 C18_4 1_555 1_555
C19_4 C16_4 1_555 1_555
H19_4 C19_4 1_555 1_555
H20_4 C19_4 1_555 1_555
C20_4 C19_4 1_555 1_555
H21_4 C20_4 1_555 1_555
H22_4 C20_4 1_555 1_555
C21_4 C20_4 1_555 1_555
H23_4 C21_4 1_555 1_555
H24_4 C21_4 1_555 1_555
C4_4 C5_4 1_555 1_555
C17_4 C18_4 1_555 1_555
Ni1_4 Cl1_5 1_555 1_555
N3_5 Ni1_4 1_555 1_555
C14_5 N3_5 1_555 1_555
H15_5 C14_5 1_555 1_555
C15_5 C14_5 1_555 1_555
H16_5 C15_5 1_555 1_555
C16_5 C15_5 1_555 1_555
C17_5 C16_5 1_555 1_555
H17_5 C17_5 1_555 1_555
C18_5 N3_5 1_555 1_555
H18_5 C18_5 1_555 1_555
C19_5 C16_5 1_555 1_555
H19_5 C19_5 1_555 1_555
H20_5 C19_5 1_555 1_555
N6_3 Ni1_4 1_555 1_555
C17_5 C18_5 1_555 1_555
Ni2_2 N4_3 1_555 1_555
H22_5 C20_5 1_555 1_555
C21_5 C20_5 1_555 1_555
H23_5 C21_5 1_555 1_555
H24_5 C21_5 1_555 1_555
N4_3 C22_5 1_555 1_555
C22_5 H25_5 1_555 1_555
C23_5 C22_5 1_555 1_555
H26_5 C23_5 1_555 1_555
C24_5 C21_5 1_555 1_555
C25_5 C24_5 1_555 1_555
H27_5 C25_5 1_555 1_555
C26_5 N4_3 1_555 1_555
H28_5 C26_5 1_555 1_555
C23_5 C24_5 1_555 1_555
C25_5 C26_5 1_555 1_555
N1_5 Ni1_5 1_555 1_555
C1_5 N1_5 1_555 1_555
H1_5 C1_5 1_555 1_555
C2_5 C1_5 1_555 1_555
H2_5 C2_5 1_555 1_555
C3_5 C2_5 1_555 1_555
C4_5 C3_5 1_555 1_555
H3_5 C4_5 1_555 1_555
C5_5 N1_5 1_555 1_555
H4_5 C5_5 1_555 1_555
C6_5 C3_5 1_555 1_555
H5_5 C6_5 1_555 1_555
H6_5 C6_5 1_555 1_555
C7_5 C6_5 1_555 1_555
H7_5 C7_5 1_555 1_555
H8_5 C7_5 1_555 1_555
C8_5 C7_5 1_555 1_555
H9_5 C8_5 1_555 1_555
H10_5 C8_5 1_555 1_555
N2_3 C9_5 1_555 1_555
C9_5 H11_5 1_555 1_555
C10_5 C9_5 1_555 1_555
H12_5 C10_5 1_555 1_555
C11_5 C8_5 1_555 1_555
C12_5 C11_5 1_555 1_555
H13_5 C12_5 1_555 1_555
C13_5 N2_3 1_555 1_555
H14_5 C13_5 1_555 1_555
Ni2_3 N2_3 1_555 1_555
Cl2_5 Ni1_5 1_555 1_555
N5_3 Ni1_5 1_555 1_555
C4_5 C5_5 1_555 1_555
C10_5 C11_5 1_555 1_555
C12_5 C13_5 1_555 1_555
Ni3_3 N4_4 1_555 1_555
H22_6 C20_6 1_555 1_555
C21_6 C20_6 1_555 1_555
H23_6 C21_6 1_555 1_555
H24_6 C21_6 1_555 1_555
N4_4 C22_6 1_555 1_555
C22_6 H25_6 1_555 1_555
C23_6 C22_6 1_555 1_555
H26_6 C23_6 1_555 1_555
C24_6 C21_6 1_555 1_555
C25_6 C24_6 1_555 1_555
H27_6 C25_6 1_555 1_555
C26_6 N4_4 1_555 1_555
H28_6 C26_6 1_555 1_555
C23_6 C24_6 1_555 1_555
C25_6 C26_6 1_555 1_555
Ni1_6 Cl1_6 1_555 1_555
N1_6 Ni1_6 1_555 1_555
C1_6 N1_6 1_555 1_555
H1_6 C1_6 1_555 1_555
C2_6 C1_6 1_555 1_555
H2_6 C2_6 1_555 1_555
C3_6 C2_6 1_555 1_555
C4_6 C3_6 1_555 1_555
H3_6 C4_6 1_555 1_555
C5_6 N1_6 1_555 1_555
H4_6 C5_6 1_555 1_555
C6_6 C3_6 1_555 1_555
H5_6 C6_6 1_555 1_555
H6_6 C6_6 1_555 1_555
C7_6 C6_6 1_555 1_555
H7_6 C7_6 1_555 1_555
H8_6 C7_6 1_555 1_555
C8_6 C7_6 1_555 1_555
H9_6 C8_6 1_555 1_555
H10_6 C8_6 1_555 1_555
N2_4 C9_6 1_555 1_555
C9_6 H11_6 1_555 1_555
C10_6 C9_6 1_555 1_555
H12_6 C10_6 1_555 1_555
C11_6 C8_6 1_555 1_555
C12_6 C11_6 1_555 1_555
H13_6 C12_6 1_555 1_555
C13_6 N2_4 1_555 1_555
H14_6 C13_6 1_555 1_555
Ni3_3 N2_4 1_555 1_555
Cl2_6 Ni1_6 1_555 1_555
N3_6 Ni1_6 1_555 1_555
C14_6 N3_6 1_555 1_555
H15_6 C14_6 1_555 1_555
C15_6 C14_6 1_555 1_555
H16_6 C15_6 1_555 1_555
C16_6 C15_6 1_555 1_555
C17_6 C16_6 1_555 1_555
H17_6 C17_6 1_555 1_555
C18_6 N3_6 1_555 1_555
H18_6 C18_6 1_555 1_555
C19_6 C16_6 1_555 1_555
H19_6 C19_6 1_555 1_555
H20_6 C19_6 1_555 1_555
N5_4 Ni1_6 1_555 1_555
N6_4 Ni1_6 1_555 1_555
C4_6 C5_6 1_555 1_555
C10_6 C11_6 1_555 1_555
C12_6 C13_6 1_555 1_555
C17_6 C18_6 1_555 1_555
Cl2_7 Ni2_2 1_555 1_555
N3_7 Ni2_2 1_555 1_555
C14_7 N3_7 1_555 1_555
C15_7 C14_7 1_555 1_555
H16_7 C15_7 1_555 1_555
C16_7 C15_7 1_555 1_555
C17_7 C16_7 1_555 1_555
H17_7 C17_7 1_555 1_555
C18_7 N3_7 1_555 1_555
H18_7 C18_7 1_555 1_555
C19_7 C16_7 1_555 1_555
H19_7 C19_7 1_555 1_555
H20_7 C19_7 1_555 1_555
C20_7 C19_7 1_555 1_555
H21_7 C20_7 1_555 1_555
H22_7 C20_7 1_555 1_555
C21_7 C20_7 1_555 1_555
H23_7 C21_7 1_555 1_555
H24_7 C21_7 1_555 1_555
N6_4 C22_7 1_555 1_555
C22_7 H25_7 1_555 1_555
C23_7 C22_7 1_555 1_555
H26_7 C23_7 1_555 1_555
C24_7 C21_7 1_555 1_555
C25_7 C24_7 1_555 1_555
H27_7 C25_7 1_555 1_555
C26_7 N6_4 1_555 1_555
H28_7 C26_7 1_555 1_555
C17_7 C18_7 1_555 1_555
C23_7 C24_7 1_555 1_555
C25_7 C26_7 1_555 1_555
Ni2_3 Cl1_7 1_555 1_555
N1_7 Ni2_3 1_555 1_555
C1_7 N1_7 1_555 1_555
C2_7 C1_7 1_555 1_555
H2_7 C2_7 1_555 1_555
C3_7 C2_7 1_555 1_555
C4_7 C3_7 1_555 1_555
H3_7 C4_7 1_555 1_555
C5_7 N1_7 1_555 1_555
H4_7 C5_7 1_555 1_555
C6_7 C3_7 1_555 1_555
H5_7 C6_7 1_555 1_555
H6_7 C6_7 1_555 1_555
C7_7 C6_7 1_555 1_555
H7_7 C7_7 1_555 1_555
H8_7 C7_7 1_555 1_555
C8_7 C7_7 1_555 1_555
H9_7 C8_7 1_555 1_555
H10_7 C8_7 1_555 1_555
N5_4 C9_7 1_555 1_555
C9_7 H11_7 1_555 1_555
C10_7 C9_7 1_555 1_555
H12_7 C10_7 1_555 1_555
C11_7 C8_7 1_555 1_555
C12_7 C11_7 1_555 1_555
H13_7 C12_7 1_555 1_555
C13_7 N5_4 1_555 1_555
H14_7 C13_7 1_555 1_555
C4_7 C5_7 1_555 1_555
C10_7 C11_7 1_555 1_555
C12_7 C13_7 1_555 1_555
Ni3_3 Cl1_8 1_555 1_555
N1_8 Ni3_3 1_555 1_555
C1_8 N1_8 1_555 1_555
H1_8 C1_8 1_555 1_555
C2_8 C1_8 1_555 1_555
H2_8 C2_8 1_555 1_555
C3_8 C2_8 1_555 1_555
C4_8 C3_8 1_555 1_555
H3_8 C4_8 1_555 1_555
C5_8 N1_8 1_555 1_555
H4_8 C5_8 1_555 1_555
C6_8 C3_8 1_555 1_555
H5_8 C6_8 1_555 1_555
H6_8 C6_8 1_555 1_555
C7_8 C6_8 1_555 1_555
H7_8 C7_8 1_555 1_555
H8_8 C7_8 1_555 1_555
C8_8 C7_8 1_555 1_555
H9_8 C8_8 1_555 1_555
H10_8 C8_8 1_555 1_555
Cl2_8 Ni3_3 1_555 1_555
N3_8 Ni3_3 1_555 1_555
C14_8 N3_8 1_555 1_555
H15_8 C14_8 1_555 1_555
C15_8 C14_8 1_555 1_555
H16_8 C15_8 1_555 1_555
C16_8 C15_8 1_555 1_555
C17_8 C16_8 1_555 1_555
H17_8 C17_8 1_555 1_555
C18_8 N3_8 1_555 1_555
H18_8 C18_8 1_555 1_555
C19_8 C16_8 1_555 1_555
H19_8 C19_8 1_555 1_555
H20_8 C19_8 1_555 1_555
C20_8 C19_8 1_555 1_555
H21_8 C20_8 1_555 1_555
H22_8 C20_8 1_555 1_555
C21_8 C20_8 1_555 1_555
H23_8 C21_8 1_555 1_555
H24_8 C21_8 1_555 1_555
C4_8 C5_8 1_555 1_555
C17_8 C18_8 1_555 1_555
N5_3 C9_8 1_555 1_555
C9_8 H11_8 1_555 1_555
C10_8 C9_8 1_555 1_555
H12_8 C10_8 1_555 1_555
C12_8 C11_8 1_555 1_555
C13_8 N5_3 1_555 1_555
N6_3 C22_8 1_555 1_555
C22_8 H25_8 1_555 1_555
C23_8 C22_8 1_555 1_555
H26_8 C23_8 1_555 1_555
C25_8 C24_8 1_555 1_555
C26_8 N6_3 1_555 1_555
C10_8 C11_8 1_555 1_555
C12_8 C13_8 1_555 1_555
C23_8 C24_8 1_555 1_555
C25_8 C26_8 1_555 1_555
Ni4 Cl3 1_555 1_555
N7 Ni4 1_555 1_555
C27 N7 1_555 1_555
H29 C27 1_555 1_555
C28 C27 1_555 1_555
H30 C28 1_555 1_555
C29 C28 1_555 1_555
C30 C29 1_555 1_555
H31 C30 1_555 1_555
C31 N7 1_555 1_555
H32 C31 1_555 1_555
C32 C29 1_555 1_555
H33 C32 1_555 1_555
H34 C32 1_555 1_555
C33 C32 1_555 1_555
H35 C33 1_555 1_555
H36 C33 1_555 1_555
C34 C33 1_555 1_555
H37 C34 1_555 1_555
H38 C34 1_555 1_555
N8 C35 1_555 1_555
C35 H39 1_555 1_555
C36 C35 1_555 1_555
H40 C36 1_555 1_555
C37 C34 1_555 1_555
C38 C37 1_555 1_555
H41 C38 1_555 1_555
C39 N8 1_555 1_555
Ni6 N10 1_555 1_555
Ni6_2 N8 1_555 1_555
Cl4 Ni4 1_555 1_555
N9 Ni4 1_555 1_555
C40 N9 1_555 1_555
H43 C40 1_555 1_555
C41 C40 1_555 1_555
H44 C41 1_555 1_555
C42 C41 1_555 1_555
C43 C42 1_555 1_555
H45 C43 1_555 1_555
C44 N9 1_555 1_555
H46 C44 1_555 1_555
C45 C42 1_555 1_555
H47 C45 1_555 1_555
H48 C45 1_555 1_555
C46 C45 1_555 1_555
H49 C46 1_555 1_555
H50 C46 1_555 1_555
C47 C46 1_555 1_555
H51 C47 1_555 1_555
H52 C47 1_555 1_555
N10 C48 1_555 1_555
C48 H53 1_555 1_555
C49 C48 1_555 1_555
H54 C49 1_555 1_555
C50 C47 1_555 1_555
C51 C50 1_555 1_555
H55 C51 1_555 1_555
C52 N10 1_555 1_555
C30 C31 1_555 1_555
C36 C37 1_555 1_555
C38 C39 1_555 1_555
C43 C44 1_555 1_555
C49 C50 1_555 1_555
C51 C52 1_555 1_555
Ni4_2 Cl3_2 1_555 1_555
Ni5 N10_2 1_555 1_555
N9_2 Ni4_2 1_555 1_555
C40_2 N9_2 1_555 1_555
C41_2 C40_2 1_555 1_555
H44_2 C41_2 1_555 1_555
C42_2 C41_2 1_555 1_555
C43_2 C42_2 1_555 1_555
H45_2 C43_2 1_555 1_555
C44_2 N9_2 1_555 1_555
H46_2 C44_2 1_555 1_555
C45_2 C42_2 1_555 1_555
H47_2 C45_2 1_555 1_555
H48_2 C45_2 1_555 1_555
C46_2 C45_2 1_555 1_555
H49_2 C46_2 1_555 1_555
H50_2 C46_2 1_555 1_555
C47_2 C46_2 1_555 1_555
H51_2 C47_2 1_555 1_555
H52_2 C47_2 1_555 1_555
N10_2 C48_2 1_555 1_555
N11_2 Ni4_2 1_555 1_555
C48_2 H53_2 1_555 1_555
C49_2 C48_2 1_555 1_555
H54_2 C49_2 1_555 1_555
C50_2 C47_2 1_555 1_555
C51_2 C50_2 1_555 1_555
H55_2 C51_2 1_555 1_555
C52_2 N10_2 1_555 1_555
H56_2 C52_2 1_555 1_555
C43_2 C44_2 1_555 1_555
C49_2 C50_2 1_555 1_555
C51_2 C52_2 1_555 1_555
N7_2 Ni4_3 1_555 1_555
C27_2 N7_2 1_555 1_555
C28_2 C27_2 1_555 1_555
H30_2 C28_2 1_555 1_555
C29_2 C28_2 1_555 1_555
C30_2 C29_2 1_555 1_555
H31_2 C30_2 1_555 1_555
C31_2 N7_2 1_555 1_555
H32_2 C31_2 1_555 1_555
C32_2 C29_2 1_555 1_555
H33_2 C32_2 1_555 1_555
H34_2 C32_2 1_555 1_555
C33_2 C32_2 1_555 1_555
H35_2 C33_2 1_555 1_555
H36_2 C33_2 1_555 1_555
C34_2 C33_2 1_555 1_555
H37_2 C34_2 1_555 1_555
H38_2 C34_2 1_555 1_555
N8_2 C35_2 1_555 1_555
C35_2 H39_2 1_555 1_555
C36_2 C35_2 1_555 1_555
H40_2 C36_2 1_555 1_555
C37_2 C34_2 1_555 1_555
C38_2 C37_2 1_555 1_555
H41_2 C38_2 1_555 1_555
C39_2 N8_2 1_555 1_555
H42_2 C39_2 1_555 1_555
Ni5 N8_2 1_555 1_555
Cl4_2 Ni4_3 1_555 1_555
N12_2 Ni4_3 1_555 1_555
C30_2 C31_2 1_555 1_555
C36_2 C37_2 1_555 1_555
C38_2 C39_2 1_555 1_555
H36_3 C33_3 1_555 1_555
C34_3 C33_3 1_555 1_555
H37_3 C34_3 1_555 1_555
H38_3 C34_3 1_555 1_555
N11_2 C35_3 1_555 1_555
C35_3 H39_3 1_555 1_555
C36_3 C35_3 1_555 1_555
H40_3 C36_3 1_555 1_555
C37_3 C34_3 1_555 1_555
C38_3 C37_3 1_555 1_555
H41_3 C38_3 1_555 1_555
C39_3 N11_2 1_555 1_555
H42_3 C39_3 1_555 1_555
C36_3 C37_3 1_555 1_555
C38_3 C39_3 1_555 1_555
Ni6 Cl3_3 1_555 1_555
N7_3 Ni6 1_555 1_555
C27_3 N7_3 1_555 1_555
H29_3 C27_3 1_555 1_555
C28_3 C27_3 1_555 1_555
H30_3 C28_3 1_555 1_555
C29_3 C28_3 1_555 1_555
C30_3 C29_3 1_555 1_555
H31_3 C30_3 1_555 1_555
C31_3 N7_3 1_555 1_555
H32_3 C31_3 1_555 1_555
C32_3 C29_3 1_555 1_555
H33_3 C32_3 1_555 1_555
H34_3 C32_3 1_555 1_555
C33_4 C32_3 1_555 1_555
H35_3 C33_4 1_555 1_555
C30_3 C31_3 1_555 1_555
Cl4_3 Ni6_2 1_555 1_555
N9_3 Ni6_2 1_555 1_555
C40_3 N9_3 1_555 1_555
H43_3 C40_3 1_555 1_555
C41_3 C40_3 1_555 1_555
H44_3 C41_3 1_555 1_555
C42_3 C41_3 1_555 1_555
C43_3 C42_3 1_555 1_555
H45_3 C43_3 1_555 1_555
C44_3 N9_3 1_555 1_555
H46_3 C44_3 1_555 1_555
C45_3 C42_3 1_555 1_555
H47_3 C45_3 1_555 1_555
H48_3 C45_3 1_555 1_555
C46_3 C45_3 1_555 1_555
H49_3 C46_3 1_555 1_555
H50_3 C46_3 1_555 1_555
C47_3 C46_3 1_555 1_555
H51_3 C47_3 1_555 1_555
H52_3 C47_3 1_555 1_555
N12_2 C48_3 1_555 1_555
C48_3 H53_3 1_555 1_555
C49_3 C48_3 1_555 1_555
H54_3 C49_3 1_555 1_555
C50_3 C47_3 1_555 1_555
C51_3 C50_3 1_555 1_555
H55_3 C51_3 1_555 1_555
C52_3 N12_2 1_555 1_555
H56_3 C52_3 1_555 1_555
C43_3 C44_3 1_555 1_555
C49_3 C50_3 1_555 1_555
C51_3 C52_3 1_555 1_555
Ni5 Cl3_4 1_555 1_555
N7_4 Ni5 1_555 1_555
C27_4 N7_4 1_555 1_555
H29_4 C27_4 1_555 1_555
C28_4 C27_4 1_555 1_555
H30_4 C28_4 1_555 1_555
C29_4 C28_4 1_555 1_555
C30_4 C29_4 1_555 1_555
H31_4 C30_4 1_555 1_555
C31_4 N7_4 1_555 1_555
H32_4 C31_4 1_555 1_555
C32_4 C29_4 1_555 1_555
H33_4 C32_4 1_555 1_555
H34_4 C32_4 1_555 1_555
C33_5 C32_4 1_555 1_555
H35_4 C33_5 1_555 1_555
Cl4_4 Ni5 1_555 1_555
N9_4 Ni5 1_555 1_555
C40_4 N9_4 1_555 1_555
H43_4 C40_4 1_555 1_555
C41_4 C40_4 1_555 1_555
H44_4 C41_4 1_555 1_555
C42_4 C41_4 1_555 1_555
C43_4 C42_4 1_555 1_555
H45_4 C43_4 1_555 1_555
C44_4 N9_4 1_555 1_555
H46_4 C44_4 1_555 1_555
C45_4 C42_4 1_555 1_555
H47_4 C45_4 1_555 1_555
H48_4 C45_4 1_555 1_555
C46_4 C45_4 1_555 1_555
H49_4 C46_4 1_555 1_555
H50_4 C46_4 1_555 1_555
C47_4 C46_4 1_555 1_555
H51_4 C47_4 1_555 1_555
H52_4 C47_4 1_555 1_555
N12 C48_4 1_555 1_555
C49_4 C48_4 1_555 1_555
H54_4 C49_4 1_555 1_555
C50_4 C47_4 1_555 1_555
C51_4 C50_4 1_555 1_555
H55_4 C51_4 1_555 1_555
C52_4 N12 1_555 1_555
H56_4 C52_4 1_555 1_555
C30_4 C31_4 1_555 1_555
C43_4 C44_4 1_555 1_555
C49_4 C50_4 1_555 1_555
C51_4 C52_4 1_555 1_555
H36_4 C33_6 1_555 1_555
C34_4 C33_6 1_555 1_555
H37_4 C34_4 1_555 1_555
H38_4 C34_4 1_555 1_555
N11 C35_4 1_555 1_555
C36_4 C35_4 1_555 1_555
H40_4 C36_4 1_555 1_555
C37_4 C34_4 1_555 1_555
C38_4 C37_4 1_555 1_555
H41_4 C38_4 1_555 1_555
C39_4 N11 1_555 1_555
H42_4 C39_4 1_555 1_555
C36_4 C37_4 1_555 1_555
C38_4 C39_4 1_555 1_555
Ni4_4 Cl3_5 1_555 1_555
N7_5 Ni4_4 1_555 1_555
C27_5 N7_5 1_555 1_555
H29_5 C27_5 1_555 1_555
C28_5 C27_5 1_555 1_555
H30_5 C28_5 1_555 1_555
C29_5 C28_5 1_555 1_555
C30_5 C29_5 1_555 1_555
H31_5 C30_5 1_555 1_555
C31_5 N7_5 1_555 1_555
H32_5 C31_5 1_555 1_555
C32_5 C29_5 1_555 1_555
H33_5 C32_5 1_555 1_555
H34_5 C32_5 1_555 1_555
C33_7 C32_5 1_555 1_555
H35_5 C33_7 1_555 1_555
H36_5 C33_7 1_555 1_555
C34_5 C33_7 1_555 1_555
H37_5 C34_5 1_555 1_555
H38_5 C34_5 1_555 1_555
N8_3 C35_5 1_555 1_555
C35_5 H39_5 1_555 1_555
C36_5 C35_5 1_555 1_555
H40_5 C36_5 1_555 1_555
C37_5 C34_5 1_555 1_555
C38_5 C37_5 1_555 1_555
H41_5 C38_5 1_555 1_555
C39_5 N8_3 1_555 1_555
Ni5_3 N10_3 1_555 1_555
Ni5_2 N8_3 1_555 1_555
Cl4_5 Ni4_4 1_555 1_555
N9_5 Ni4_4 1_555 1_555
C40_5 N9_5 1_555 1_555
H43_5 C40_5 1_555 1_555
C41_5 C40_5 1_555 1_555
H44_5 C41_5 1_555 1_555
C42_5 C41_5 1_555 1_555
C43_5 C42_5 1_555 1_555
H45_5 C43_5 1_555 1_555
C44_5 N9_5 1_555 1_555
H46_5 C44_5 1_555 1_555
C45_5 C42_5 1_555 1_555
H47_5 C45_5 1_555 1_555
H48_5 C45_5 1_555 1_555
C46_5 C45_5 1_555 1_555
H49_5 C46_5 1_555 1_555
H50_5 C46_5 1_555 1_555
C47_5 C46_5 1_555 1_555
H51_5 C47_5 1_555 1_555
H52_5 C47_5 1_555 1_555
N10_3 C48_5 1_555 1_555
C48_5 H53_5 1_555 1_555
C49_5 C48_5 1_555 1_555
H54_5 C49_5 1_555 1_555
C50_5 C47_5 1_555 1_555
C51_5 C50_5 1_555 1_555
H55_5 C51_5 1_555 1_555
C52_5 N10_3 1_555 1_555
C30_5 C31_5 1_555 1_555
C36_5 C37_5 1_555 1_555
C38_5 C39_5 1_555 1_555
C43_5 C44_5 1_555 1_555
C49_5 C50_5 1_555 1_555
C51_5 C52_5 1_555 1_555
N7_6 Ni4_5 1_555 1_555
C27_6 N7_6 1_555 1_555
C28_6 C27_6 1_555 1_555
H30_6 C28_6 1_555 1_555
C29_6 C28_6 1_555 1_555
C30_6 C29_6 1_555 1_555
H31_6 C30_6 1_555 1_555
C31_6 N7_6 1_555 1_555
H32_6 C31_6 1_555 1_555
C32_6 C29_6 1_555 1_555
H33_6 C32_6 1_555 1_555
H34_6 C32_6 1_555 1_555
C33_8 C32_6 1_555 1_555
H35_6 C33_8 1_555 1_555
H36_6 C33_8 1_555 1_555
C34_6 C33_8 1_555 1_555
H37_6 C34_6 1_555 1_555
H38_6 C34_6 1_555 1_555
N8_4 C35_6 1_555 1_555
C35_6 H39_6 1_555 1_555
C36_6 C35_6 1_555 1_555
H40_6 C36_6 1_555 1_555
C37_6 C34_6 1_555 1_555
C38_6 C37_6 1_555 1_555
H41_6 C38_6 1_555 1_555
C39_6 N8_4 1_555 1_555
H42_6 C39_6 1_555 1_555
Ni6_3 N8_4 1_555 1_555
Cl4_6 Ni4_5 1_555 1_555
N12_4 Ni4_5 1_555 1_555
C30_6 C31_6 1_555 1_555
C36_6 C37_6 1_555 1_555
C38_6 C39_6 1_555 1_555
Ni4_6 Cl3_6 1_555 1_555
Ni6_3 N10_4 1_555 1_555
N9_6 Ni4_6 1_555 1_555
C40_6 N9_6 1_555 1_555
C41_6 C40_6 1_555 1_555
H44_6 C41_6 1_555 1_555
C42_6 C41_6 1_555 1_555
C43_6 C42_6 1_555 1_555
H45_6 C43_6 1_555 1_555
C44_6 N9_6 1_555 1_555
H46_6 C44_6 1_555 1_555
C45_6 C42_6 1_555 1_555
H47_6 C45_6 1_555 1_555
H48_6 C45_6 1_555 1_555
C46_6 C45_6 1_555 1_555
H49_6 C46_6 1_555 1_555
H50_6 C46_6 1_555 1_555
C47_6 C46_6 1_555 1_555
H51_6 C47_6 1_555 1_555
H52_6 C47_6 1_555 1_555
N10_4 C48_6 1_555 1_555
N11_4 Ni4_6 1_555 1_555
C48_6 H53_6 1_555 1_555
C49_6 C48_6 1_555 1_555
H54_6 C49_6 1_555 1_555
C50_6 C47_6 1_555 1_555
C51_6 C50_6 1_555 1_555
H55_6 C51_6 1_555 1_555
C52_6 N10_4 1_555 1_555
H56_6 C52_6 1_555 1_555
C43_6 C44_6 1_555 1_555
C49_6 C50_6 1_555 1_555
C51_6 C52_6 1_555 1_555
Cl4_7 Ni5_2 1_555 1_555
N9_7 Ni5_2 1_555 1_555
C40_7 N9_7 1_555 1_555
H43_7 C40_7 1_555 1_555
C41_7 C40_7 1_555 1_555
H44_7 C41_7 1_555 1_555
C42_7 C41_7 1_555 1_555
C43_7 C42_7 1_555 1_555
H45_7 C43_7 1_555 1_555
C44_7 N9_7 1_555 1_555
H46_7 C44_7 1_555 1_555
C45_7 C42_7 1_555 1_555
H47_7 C45_7 1_555 1_555
H48_7 C45_7 1_555 1_555
C46_7 C45_7 1_555 1_555
H49_7 C46_7 1_555 1_555
H50_7 C46_7 1_555 1_555
C47_7 C46_7 1_555 1_555
H51_7 C47_7 1_555 1_555
H52_7 C47_7 1_555 1_555
N12_4 C48_7 1_555 1_555
C48_7 H53_7 1_555 1_555
C49_7 C48_7 1_555 1_555
H54_7 C49_7 1_555 1_555
C50_7 C47_7 1_555 1_555
C51_7 C50_7 1_555 1_555
H55_7 C51_7 1_555 1_555
C52_7 N12_4 1_555 1_555
H56_7 C52_7 1_555 1_555
C43_7 C44_7 1_555 1_555
C49_7 C50_7 1_555 1_555
C51_7 C52_7 1_555 1_555
Ni5_3 Cl3_7 1_555 1_555
N7_7 Ni5_3 1_555 1_555
C27_7 N7_7 1_555 1_555
H29_7 C27_7 1_555 1_555
C28_7 C27_7 1_555 1_555
H30_7 C28_7 1_555 1_555
C29_7 C28_7 1_555 1_555
C30_7 C29_7 1_555 1_555
H31_7 C30_7 1_555 1_555
C31_7 N7_7 1_555 1_555
H32_7 C31_7 1_555 1_555
C32_7 C29_7 1_555 1_555
H33_7 C32_7 1_555 1_555
H34_7 C32_7 1_555 1_555
C33_9 C32_7 1_555 1_555
H35_7 C33_9 1_555 1_555
C30_7 C31_7 1_555 1_555
H36_7 C33_10 1_555 1_555
C34_7 C33_10 1_555 1_555
H37_7 C34_7 1_555 1_555
H38_7 C34_7 1_555 1_555
N11_4 C35_7 1_555 1_555
C35_7 H39_7 1_555 1_555
C36_7 C35_7 1_555 1_555
H40_7 C36_7 1_555 1_555
C37_7 C34_7 1_555 1_555
C38_7 C37_7 1_555 1_555
H41_7 C38_7 1_555 1_555
C39_7 N11_4 1_555 1_555
H42_7 C39_7 1_555 1_555
C36_7 C37_7 1_555 1_555
C38_7 C39_7 1_555 1_555
H36_8 C33_11 1_555 1_555
C34_8 C33_11 1_555 1_555
H37_8 C34_8 1_555 1_555
H38_8 C34_8 1_555 1_555
N11_3 C35_8 1_555 1_555
C36_8 C35_8 1_555 1_555
H40_8 C36_8 1_555 1_555
C37_8 C34_8 1_555 1_555
C38_8 C37_8 1_555 1_555
H41_8 C38_8 1_555 1_555
C39_8 N11_3 1_555 1_555
H42_8 C39_8 1_555 1_555
C36_8 C37_8 1_555 1_555
C38_8 C39_8 1_555 1_555
Ni6_3 Cl3_8 1_555 1_555
N7_8 Ni6_3 1_555 1_555
C27_8 N7_8 1_555 1_555
H29_8 C27_8 1_555 1_555
C28_8 C27_8 1_555 1_555
H30_8 C28_8 1_555 1_555
C29_8 C28_8 1_555 1_555
C30_8 C29_8 1_555 1_555
H31_8 C30_8 1_555 1_555
C31_8 N7_8 1_555 1_555
H32_8 C31_8 1_555 1_555
C32_8 C29_8 1_555 1_555
H33_8 C32_8 1_555 1_555
H34_8 C32_8 1_555 1_555
C33_12 C32_8 1_555 1_555
H35_8 C33_12 1_555 1_555
Cl4_8 Ni6_3 1_555 1_555
N9_8 Ni6_3 1_555 1_555
C40_8 N9_8 1_555 1_555
H43_8 C40_8 1_555 1_555
C41_8 C40_8 1_555 1_555
H44_8 C41_8 1_555 1_555
C42_8 C41_8 1_555 1_555
C43_8 C42_8 1_555 1_555
H45_8 C43_8 1_555 1_555
C44_8 N9_8 1_555 1_555
H46_8 C44_8 1_555 1_555
C45_8 C42_8 1_555 1_555
H47_8 C45_8 1_555 1_555
H48_8 C45_8 1_555 1_555
C46_8 C45_8 1_555 1_555
H49_8 C46_8 1_555 1_555
H50_8 C46_8 1_555 1_555
C47_8 C46_8 1_555 1_555
H51_8 C47_8 1_555 1_555
H52_8 C47_8 1_555 1_555
N12_3 C48_8 1_555 1_555
C49_8 C48_8 1_555 1_555
H54_8 C49_8 1_555 1_555
C50_8 C47_8 1_555 1_555
C51_8 C50_8 1_555 1_555
H55_8 C51_8 1_555 1_555
C52_8 N12_3 1_555 1_555
H56_8 C52_8 1_555 1_555
C30_8 C31_8 1_555 1_555
C43_8 C44_8 1_555 1_555
C49_8 C50_8 1_555 1_555
C51_8 C52_8 1_555 1_555

#END
