
###############################################################################
#
# This file contains modified crystal structure data generated from the
# MOF subset of the Cambridge Structural Database (CSD) v543 
# hosted by the Cambridge Crystallographic Data Centre (CCDC).
#
# This work is licensed under the Creative Commons
# Attribution-NonCommercial-ShareAlike 4.0 International License.
# To view a copy of this license, visit
# http://creativecommons.org/licenses/by-nc-sa/4.0/
# or send a letter to
# Creative Commons, PO Box 1866, Mountain View, CA 94042, USA.
#
# CIF created using the CSD Python API on 29 September 2022
# The structure has been converted into the P1 space group
# The structure has a 3D framework
# The original CSD entry CUPMAC is in the tetragonal crystal system
# The framework has been calculated to contain at least 10.0% void space
# The void calculation uses a probe of radius 1.32A, grid spacing 0.4
#
###############################################################################

data_CUPMAC
_chemical_formula_moiety         '(C416 H448 Cl32 Mn24 N64)n'
_symmetry_cell_setting           triclinic
_symmetry_space_group_name_H-M   'P 1'
_symmetry_Int_Tables_number      1
_space_group_name_Hall           'P 1'
loop_
_symmetry_equiv_pos_site_id
_symmetry_equiv_pos_as_xyz
1 x,y,z
_cell_length_a                   17.201(2)
_cell_length_b                   17.201(2)
_cell_length_c                   42.697(4)
_cell_angle_alpha                90
_cell_angle_beta                 90
_cell_angle_gamma                90
_cell_volume                     12632.9
loop_
_atom_site_label
_atom_site_type_symbol
_atom_site_fract_x
_atom_site_fract_y
_atom_site_fract_z
Mn1 Mn 0.00000 0.25000 0.53134(4)
N1 N 0.0688(4) 0.1842(4) 0.56867(16)
C1 C 0.1459(5) 0.1822(5) 0.56748(19)
H1 H 0.1714 0.2115 0.5516
C2 C 0.1918(5) 0.1390(5) 0.58836(19)
H2 H 0.2469 0.1397 0.5868
C3 C 0.1549(5) 0.0953(5) 0.61138(19)
C4 C 0.0758(5) 0.0973(5) 0.6128(2)
H3 H 0.0489 0.0688 0.6284
C5 C 0.0344(5) 0.1418(5) 0.5909(2)
C6 C 0.2032(5) 0.0481(5) 0.6339(2)
H5 H 0.2401 0.0157 0.6218
H6 H 0.1685 0.0127 0.6457
C7 C 0.2494(5) 0.0982(5) 0.65741(19)
H7 H 0.2815 0.1363 0.6458
H8 H 0.2127 0.1274 0.6709
C8 C 0.3009(5) 0.0484(5) 0.6775(2)
H9 H 0.2684 0.0105 0.6891
H10 H 0.3369 0.0187 0.664
N2 N 0.4319(4) 0.1829(4) 0.74418(16)
C9 C 0.4665(5) 0.1430(5) 0.7217(2)
H11 H 0.5216 0.1455 0.7203
C10 C 0.4273(6) 0.0979(5) 0.6999(2)
H12 H 0.455 0.0690 0.6848
C11 C 0.3473(5) 0.0954(5) 0.7005(2)
C12 C 0.3109(5) 0.1367(5) 0.7246(2)
H13 H 0.2560 0.135 0.7267
C13 C 0.3543(5) 0.1793(5) 0.7451(2)
H14 H 0.3280 0.208 0.7608
Mn3 Mn 0.50000 0.25000 0.78134(4)
Cl2 Cl 0.10233(12) 0.35227(11) 0.53076(5)
H18 H 0.0208 0.3582 0.592
N5 N 0.0671(4) 0.1819(4) 0.49418(16)
Mn1_2 Mn 1.00000 0.25000 0.53134(4)
Cl1 Cl 0.89767(12) 0.14773(11) 0.53076(5)
H4 H 0.9792 0.1418 0.592
N3 N 0.9312(4) 0.3158(4) 0.56867(16)
C14 C 0.8541(5) 0.3178(5) 0.56748(19)
H15 H 0.8286 0.2885 0.5516
C15 C 0.8082(5) 0.3610(5) 0.58836(19)
H16 H 0.7531 0.3603 0.5868
C16 C 0.8451(5) 0.4047(5) 0.61138(19)
C17 C 0.9242(5) 0.4027(5) 0.6128(2)
H17 H 0.9511 0.4312 0.6284
C18 C 0.9656(5) 0.3582(5) 0.5909(2)
C19 C 0.7968(5) 0.4519(5) 0.6339(2)
H19 H 0.7599 0.4843 0.6218
H20 H 0.8315 0.4873 0.6457
C20 C 0.7506(5) 0.4018(5) 0.65741(19)
H21 H 0.7185 0.3637 0.6458
H22 H 0.7873 0.3726 0.6709
C21 C 0.6991(5) 0.4516(5) 0.6775(2)
H23 H 0.7316 0.4895 0.6891
H24 H 0.6631 0.4813 0.664
N4 N 0.5681(4) 0.3171(4) 0.74418(16)
N6 N 0.9329(4) 0.3181(4) 0.49418(16)
C22 C 0.5335(5) 0.3570(5) 0.7217(2)
H25 H 0.4784 0.3545 0.7203
C23 C 0.5727(6) 0.4021(5) 0.6999(2)
H26 H 0.545 0.4310 0.6848
C24 C 0.6527(5) 0.4046(5) 0.7005(2)
C25 C 0.6891(5) 0.3633(5) 0.7246(2)
H27 H 0.7440 0.365 0.7267
C26 C 0.6457(5) 0.3207(5) 0.7451(2)
H28 H 0.6720 0.292 0.7608
H14_2 H 0.542 0.5780 0.0108
Mn3_2 Mn 0.50000 0.75000 0.03134(4)
Cl1_2 Cl 0.60227(11) 0.14767(12) 0.78076(5)
N1_2 N 0.5658(4) 0.3188(4) 0.81867(16)
C1_2 C 0.5678(5) 0.3959(5) 0.81748(19)
H1_2 H 0.5385 0.4214 0.8016
C2_2 C 0.6110(5) 0.4418(5) 0.83836(19)
H2_2 H 0.6103 0.4969 0.8368
C3_2 C 0.6547(5) 0.4049(5) 0.86138(19)
C4_2 C 0.6527(5) 0.3258(5) 0.8628(2)
H3_2 H 0.6812 0.2989 0.8784
C5_2 C 0.6082(5) 0.2844(5) 0.8409(2)
H4_2 H 0.6082 0.2292 0.842
C6_2 C 0.7019(5) 0.4532(5) 0.8839(2)
H5_2 H 0.7343 0.4901 0.8718
H6_2 H 0.7373 0.4185 0.8957
C7_2 C 0.6518(5) 0.4994(5) 0.90741(19)
H7_2 H 0.6137 0.5315 0.8958
H8_2 H 0.6226 0.4627 0.9209
C8_2 C 0.7016(5) 0.5509(5) 0.9275(2)
H9_2 H 0.7395 0.5184 0.9391
H10_2 H 0.7313 0.5869 0.914
N2_2 N 0.5671(4) 0.6819(4) 0.99418(16)
C9_2 C 0.6070(5) 0.7165(5) 0.9717(2)
H11_2 H 0.6045 0.7716 0.9703
C10_2 C 0.6521(5) 0.6773(6) 0.9499(2)
H12_2 H 0.6810 0.705 0.9348
C11_2 C 0.6546(5) 0.5973(5) 0.9505(2)
C12_2 C 0.6133(5) 0.5609(5) 0.9746(2)
H13_2 H 0.615 0.5060 0.9767
C13_2 C 0.5707(5) 0.6043(5) 0.9951(2)
Cl2_2 Cl 0.39773(11) 0.35233(12) 0.78076(5)
N3_2 N 0.4342(4) 0.1812(4) 0.81867(16)
C14_2 C 0.4322(5) 0.1041(5) 0.81748(19)
H15_2 H 0.4615 0.0786 0.8016
C15_2 C 0.3890(5) 0.0582(5) 0.83836(19)
H16_2 H 0.3897 0.0031 0.8368
C16_2 C 0.3453(5) 0.0951(5) 0.86138(19)
C17_2 C 0.3473(5) 0.1742(5) 0.8628(2)
H17_2 H 0.3188 0.2011 0.8784
C18_2 C 0.3918(5) 0.2156(5) 0.8409(2)
H18_2 H 0.3918 0.2708 0.842
C19_2 C 0.2981(5) 0.0468(5) 0.8839(2)
H19_2 H 0.2657 0.0099 0.8718
H20_2 H 0.2627 0.0815 0.8957
C20_2 C 0.3482(5) 0.0006(5) 0.90741(19)
H22_2 H 0.3774 0.0373 0.9209
H28_2 H 0.458 0.9220 0.0108
H21_2 H 0.3863 0.9685 0.8958
C21_2 C 0.2984(5) 0.9491(5) 0.9275(2)
H23_2 H 0.2605 0.9816 0.9391
H24_2 H 0.2687 0.9131 0.914
N4_2 N 0.4329(4) 0.8181(4) 0.99418(16)
C22_2 C 0.3930(5) 0.7835(5) 0.9717(2)
H25_2 H 0.3955 0.7284 0.9703
C23_2 C 0.3479(5) 0.8227(6) 0.9499(2)
H26_2 H 0.3190 0.795 0.9348
C24_2 C 0.3454(5) 0.9027(5) 0.9505(2)
C25_2 C 0.3867(5) 0.9391(5) 0.9746(2)
H27_2 H 0.385 0.9940 0.9767
C26_2 C 0.4293(5) 0.8957(5) 0.9951(2)
H11_3 H 0.0216 0.6455 0.2203
Mn3_3 Mn -0.00000 0.75000 0.28134(4)
Cl1_3 Cl 0.39767(12) 0.64773(11) 0.03076(5)
N1_3 N 0.5688(4) 0.6842(4) 0.06867(16)
C1_3 C 0.6459(5) 0.6822(5) 0.06748(19)
H1_3 H 0.6714 0.7115 0.0516
C2_3 C 0.6918(5) 0.6390(5) 0.08836(19)
H2_3 H 0.7469 0.6397 0.0868
C3_3 C 0.6549(5) 0.5953(5) 0.11138(19)
C4_3 C 0.5758(5) 0.5973(5) 0.1128(2)
H3_3 H 0.5489 0.5688 0.1284
C5_3 C 0.5344(5) 0.6418(5) 0.0909(2)
H4_3 H 0.4792 0.6418 0.092
C6_3 C 0.7032(5) 0.5481(5) 0.1339(2)
H5_3 H 0.7401 0.5157 0.1218
H6_3 H 0.6685 0.5127 0.1457
C7_3 C 0.7494(5) 0.5982(5) 0.15741(19)
H7_3 H 0.7815 0.6363 0.1458
H8_3 H 0.7127 0.6274 0.1709
C8_3 C 0.8009(5) 0.5484(5) 0.1775(2)
H9_3 H 0.7684 0.5105 0.1891
H10_3 H 0.8369 0.5187 0.164
N2_3 N 0.9319(4) 0.6829(4) 0.24418(16)
C9_3 C 0.9665(5) 0.6430(5) 0.2217(2)
C10_3 C 0.9273(6) 0.5979(5) 0.1999(2)
H12_3 H 0.955 0.5690 0.1848
C11_3 C 0.8473(5) 0.5954(5) 0.2005(2)
C12_3 C 0.8109(5) 0.6367(5) 0.2246(2)
H13_3 H 0.7560 0.635 0.2267
C13_3 C 0.8543(5) 0.6793(5) 0.2451(2)
H14_3 H 0.8280 0.708 0.2608
Mn3_4 Mn 1.00000 0.75000 0.28134(4)
Cl2_3 Cl 0.60233(12) 0.85227(11) 0.03076(5)
N3_3 N 0.4312(4) 0.8158(4) 0.06867(16)
C14_3 C 0.3541(5) 0.8178(5) 0.06748(19)
H15_3 H 0.3286 0.7885 0.0516
C15_3 C 0.3082(5) 0.8610(5) 0.08836(19)
H16_3 H 0.2531 0.8603 0.0868
C16_3 C 0.3451(5) 0.9047(5) 0.11138(19)
C17_3 C 0.4242(5) 0.9027(5) 0.1128(2)
H17_3 H 0.4511 0.9312 0.1284
C18_3 C 0.4656(5) 0.8582(5) 0.0909(2)
H18_3 H 0.5208 0.8582 0.092
C19_3 C 0.2968(5) 0.9519(5) 0.1339(2)
H19_3 H 0.2599 0.9843 0.1218
H20_3 H 0.3315 0.9873 0.1457
C20_3 C 0.2506(5) 0.9018(5) 0.15741(19)
H21_3 H 0.2185 0.8637 0.1458
H22_3 H 0.2873 0.8726 0.1709
C21_3 C 0.1991(5) 0.9516(5) 0.1775(2)
H23_3 H 0.2316 0.9895 0.1891
H24_3 H 0.1631 0.9813 0.164
N4_3 N 0.0681(4) 0.8171(4) 0.24418(16)
C22_3 C 0.0335(5) 0.8570(5) 0.2217(2)
C23_3 C 0.0727(6) 0.9021(5) 0.1999(2)
H26_3 H 0.045 0.9310 0.1848
C24_3 C 0.1527(5) 0.9046(5) 0.2005(2)
C25_3 C 0.1891(5) 0.8633(5) 0.2246(2)
H27_3 H 0.2440 0.865 0.2267
C26_3 C 0.1457(5) 0.8207(5) 0.2451(2)
H28_3 H 0.1720 0.792 0.2608
H25_3 H 0.9784 0.8545 0.2203
H7_4 H 0.1137 0.0315 0.3958
C8_4 C 0.2016(5) 0.0509(5) 0.4275(2)
H9_4 H 0.2395 0.0184 0.4391
H10_4 H 0.2313 0.0869 0.414
C9_4 C 0.1070(5) 0.2165(5) 0.4717(2)
H11_4 H 0.1045 0.2716 0.4703
C10_4 C 0.1521(5) 0.1773(6) 0.4499(2)
H12_4 H 0.1810 0.205 0.4348
C11_4 C 0.1546(5) 0.0973(5) 0.4505(2)
C12_4 C 0.1133(5) 0.0609(5) 0.4746(2)
H13_4 H 0.115 0.0060 0.4767
C13_4 C 0.0707(5) 0.1043(5) 0.4951(2)
H14_4 H 0.042 0.0780 0.5108
Cl1_4 Cl 0.10227(11) 0.64767(12) 0.28076(5)
N1_4 N 0.0658(4) 0.8188(4) 0.31867(16)
C1_4 C 0.0678(5) 0.8959(5) 0.31748(19)
H1_4 H 0.0385 0.9214 0.3016
C2_4 C 0.1110(5) 0.9418(5) 0.33836(19)
H2_4 H 0.1103 0.9969 0.3368
C3_4 C 0.1547(5) 0.9049(5) 0.36138(19)
C4_4 C 0.1527(5) 0.8258(5) 0.3628(2)
H3_4 H 0.1812 0.7989 0.3784
C5_4 C 0.1082(5) 0.7844(5) 0.3409(2)
H4_4 H 0.1082 0.7292 0.342
C6_4 C 0.2019(5) 0.9532(5) 0.3839(2)
H5_4 H 0.2343 0.9901 0.3718
H6_4 H 0.2373 0.9185 0.3957
C7_4 C 0.1518(5) 0.9994(5) 0.40741(19)
H8_4 H 0.1226 0.9627 0.4209
Cl2_4 Cl 0.89773(11) 0.85233(12) 0.28076(5)
N3_4 N 0.9342(4) 0.6812(4) 0.31867(16)
C14_4 C 0.9322(5) 0.6041(5) 0.31748(19)
H15_4 H 0.9615 0.5786 0.3016
C15_4 C 0.8890(5) 0.5582(5) 0.33836(19)
H16_4 H 0.8897 0.5031 0.3368
C16_4 C 0.8453(5) 0.5951(5) 0.36138(19)
C17_4 C 0.8473(5) 0.6742(5) 0.3628(2)
H17_4 H 0.8188 0.7011 0.3784
C18_4 C 0.8918(5) 0.7156(5) 0.3409(2)
H18_4 H 0.8918 0.7708 0.342
C19_4 C 0.7981(5) 0.5468(5) 0.3839(2)
H19_4 H 0.7657 0.5099 0.3718
H20_4 H 0.7627 0.5815 0.3957
C20_4 C 0.8482(5) 0.5006(5) 0.40741(19)
H21_4 H 0.8863 0.4685 0.3958
H22_4 H 0.8774 0.5373 0.4209
C21_4 C 0.7984(5) 0.4491(5) 0.4275(2)
H23_4 H 0.7605 0.4816 0.4391
H24_4 H 0.7687 0.4131 0.414
C22_4 C 0.8930(5) 0.2835(5) 0.4717(2)
H25_4 H 0.8955 0.2284 0.4703
C23_4 C 0.8479(5) 0.3227(6) 0.4499(2)
H26_4 H 0.8190 0.295 0.4348
C24_4 C 0.8454(5) 0.4027(5) 0.4505(2)
C25_4 C 0.8867(5) 0.4391(5) 0.4746(2)
H27_4 H 0.885 0.4940 0.4767
C26_4 C 0.9293(5) 0.3957(5) 0.4951(2)
H28_4 H 0.958 0.4220 0.5108
Mn1_3 Mn -0.00000 0.75000 0.46866(4)
Cl1_5 Cl 0.10233(12) 0.85227(11) 0.46924(5)
H4_5 H 0.0208 0.8582 0.408
Mn2 Mn 0.50000 0.75000 0.21866(4)
N3_5 N 0.0688(4) 0.6842(4) 0.43133(16)
C14_5 C 0.1459(5) 0.6822(5) 0.43252(19)
H15_5 H 0.1714 0.7115 0.4484
C15_5 C 0.1918(5) 0.6390(5) 0.41164(19)
H16_5 H 0.2469 0.6397 0.4132
C16_5 C 0.1549(5) 0.5953(5) 0.38862(19)
C17_5 C 0.0758(5) 0.5973(5) 0.3872(2)
H17_5 H 0.0489 0.5688 0.3716
C18_5 C 0.0344(5) 0.6418(5) 0.4091(2)
C19_5 C 0.2032(5) 0.5481(5) 0.3661(2)
H19_5 H 0.2401 0.5157 0.3782
H20_5 H 0.1685 0.5127 0.3543
C20_5 C 0.2494(5) 0.5982(5) 0.34259(19)
H21_5 H 0.2815 0.6363 0.3542
H22_5 H 0.2127 0.6274 0.3291
C21_5 C 0.3009(5) 0.5484(5) 0.3225(2)
H23_5 H 0.2684 0.5105 0.3109
H24_5 H 0.3369 0.5187 0.336
N4_4 N 0.4319(4) 0.6829(4) 0.25582(16)
N6_2 N 0.0671(4) 0.6819(4) 0.50582(16)
C22_5 C 0.4665(5) 0.6430(5) 0.2783(2)
H25_5 H 0.5216 0.6455 0.2797
C23_5 C 0.4273(6) 0.5979(5) 0.3001(2)
H26_5 H 0.455 0.5690 0.3152
C24_5 C 0.3473(5) 0.5954(5) 0.2995(2)
C25_5 C 0.3109(5) 0.6367(5) 0.2754(2)
H27_5 H 0.2560 0.635 0.2733
C26_5 C 0.3543(5) 0.6793(5) 0.2549(2)
H28_5 H 0.3280 0.708 0.2392
Mn1_4 Mn 1.00000 0.75000 0.46866(4)
N1_5 N 0.9312(4) 0.8158(4) 0.43133(16)
C1_5 C 0.8541(5) 0.8178(5) 0.43252(19)
H1_5 H 0.8286 0.7885 0.4484
C2_5 C 0.8082(5) 0.8610(5) 0.41164(19)
H2_5 H 0.7531 0.8603 0.4132
C3_5 C 0.8451(5) 0.9047(5) 0.38862(19)
C4_5 C 0.9242(5) 0.9027(5) 0.3872(2)
H3_5 H 0.9511 0.9312 0.3716
C5_5 C 0.9656(5) 0.8582(5) 0.4091(2)
C6_5 C 0.7968(5) 0.9519(5) 0.3661(2)
H5_5 H 0.7599 0.9843 0.3782
H6_5 H 0.8315 0.9873 0.3543
C7_5 C 0.7506(5) 0.9018(5) 0.34259(19)
H7_5 H 0.7185 0.8637 0.3542
H8_5 H 0.7873 0.8726 0.3291
C8_5 C 0.6991(5) 0.9516(5) 0.3225(2)
H9_5 H 0.7316 0.9895 0.3109
H10_5 H 0.6631 0.9813 0.336
N2_4 N 0.5681(4) 0.8171(4) 0.25582(16)
C9_5 C 0.5335(5) 0.8570(5) 0.2783(2)
H11_5 H 0.4784 0.8545 0.2797
C10_5 C 0.5727(6) 0.9021(5) 0.3001(2)
H12_5 H 0.545 0.9310 0.3152
C11_5 C 0.6527(5) 0.9046(5) 0.2995(2)
C12_5 C 0.6891(5) 0.8633(5) 0.2754(2)
H13_5 H 0.7440 0.865 0.2733
C13_5 C 0.6457(5) 0.8207(5) 0.2549(2)
H14_5 H 0.6720 0.792 0.2392
Cl2_5 Cl 0.89767(12) 0.64773(11) 0.46924(5)
H18_5 H 0.9792 0.6418 0.408
N5_2 N 0.9329(4) 0.8181(4) 0.50582(16)
H21_6 H 0.6137 0.0315 0.1042
C21_6 C 0.7016(5) 0.0509(5) 0.0725(2)
H23_6 H 0.7395 0.0184 0.0609
H24_6 H 0.7313 0.0869 0.086
N4_5 N 0.5671(4) 0.1819(4) 0.00582(16)
C22_6 C 0.6070(5) 0.2165(5) 0.0283(2)
H25_6 H 0.6045 0.2716 0.0297
C23_6 C 0.6521(5) 0.1773(6) 0.0501(2)
H26_6 H 0.6810 0.205 0.0652
C24_6 C 0.6546(5) 0.0973(5) 0.0495(2)
C25_6 C 0.6133(5) 0.0609(5) 0.0254(2)
H27_6 H 0.615 0.0060 0.0233
C26_6 C 0.5707(5) 0.1043(5) 0.0049(2)
Mn2_2 Mn 0.50000 0.25000 0.96866(4)
H28_6 H 0.542 0.0780 0.9892
Cl1_6 Cl 0.39773(11) 0.85233(12) 0.21924(5)
N1_6 N 0.4342(4) 0.6812(4) 0.18133(16)
C1_6 C 0.4322(5) 0.6041(5) 0.18252(19)
H1_6 H 0.4615 0.5786 0.1984
C2_6 C 0.3890(5) 0.5582(5) 0.16164(19)
H2_6 H 0.3897 0.5031 0.1632
C3_6 C 0.3453(5) 0.5951(5) 0.13862(19)
C4_6 C 0.3473(5) 0.6742(5) 0.1372(2)
H3_6 H 0.3188 0.7011 0.1216
C5_6 C 0.3918(5) 0.7156(5) 0.1591(2)
H4_6 H 0.3918 0.7708 0.158
C6_6 C 0.2981(5) 0.5468(5) 0.1161(2)
H5_6 H 0.2657 0.5099 0.1282
H6_6 H 0.2627 0.5815 0.1043
C7_6 C 0.3482(5) 0.5006(5) 0.09259(19)
H7_6 H 0.3863 0.4685 0.1042
H8_6 H 0.3774 0.5373 0.0791
C8_6 C 0.2984(5) 0.4491(5) 0.0725(2)
H9_6 H 0.2605 0.4816 0.0609
H10_6 H 0.2687 0.4131 0.086
N2_5 N 0.4329(4) 0.3181(4) 0.00582(16)
C9_6 C 0.3930(5) 0.2835(5) 0.0283(2)
H11_6 H 0.3955 0.2284 0.0297
C10_6 C 0.3479(5) 0.3227(6) 0.0501(2)
H12_6 H 0.3190 0.295 0.0652
C11_6 C 0.3454(5) 0.4027(5) 0.0495(2)
C12_6 C 0.3867(5) 0.4391(5) 0.0254(2)
H13_6 H 0.385 0.4940 0.0233
C13_6 C 0.4293(5) 0.3957(5) 0.0049(2)
Cl2_6 Cl 0.60227(11) 0.64767(12) 0.21924(5)
N3_6 N 0.5658(4) 0.8188(4) 0.18133(16)
C14_6 C 0.5678(5) 0.8959(5) 0.18252(19)
H15_6 H 0.5385 0.9214 0.1984
C15_6 C 0.6110(5) 0.9418(5) 0.16164(19)
H16_6 H 0.6103 0.9969 0.1632
C16_6 C 0.6547(5) 0.9049(5) 0.13862(19)
C17_6 C 0.6527(5) 0.8258(5) 0.1372(2)
H17_6 H 0.6812 0.7989 0.1216
C18_6 C 0.6082(5) 0.7844(5) 0.1591(2)
H18_6 H 0.6082 0.7292 0.158
C19_6 C 0.7019(5) 0.9532(5) 0.1161(2)
H19_6 H 0.7343 0.9901 0.1282
H20_6 H 0.7373 0.9185 0.1043
C20_6 C 0.6518(5) 0.9994(5) 0.09259(19)
H22_6 H 0.6226 0.9627 0.0791
H14_6 H 0.458 0.4220 0.9892
Mn2_3 Mn 0.00000 0.25000 0.71866(4)
H25_7 H 0.0216 0.1455 0.7797
Cl1_7 Cl 0.60233(12) 0.35227(11) 0.96924(5)
N1_7 N 0.4312(4) 0.3158(4) 0.93133(16)
C1_7 C 0.3541(5) 0.3178(5) 0.93252(19)
H1_7 H 0.3286 0.2885 0.9484
C2_7 C 0.3082(5) 0.3610(5) 0.91164(19)
H2_7 H 0.2531 0.3603 0.9132
C3_7 C 0.3451(5) 0.4047(5) 0.88862(19)
C4_7 C 0.4242(5) 0.4027(5) 0.8872(2)
H3_7 H 0.4511 0.4312 0.8716
C5_7 C 0.4656(5) 0.3582(5) 0.9091(2)
H4_7 H 0.5208 0.3582 0.908
C6_7 C 0.2968(5) 0.4519(5) 0.8661(2)
H5_7 H 0.2599 0.4843 0.8782
H6_7 H 0.3315 0.4873 0.8543
C7_7 C 0.2506(5) 0.4018(5) 0.84259(19)
H7_7 H 0.2185 0.3637 0.8542
H8_7 H 0.2873 0.3726 0.8291
C8_7 C 0.1991(5) 0.4516(5) 0.8225(2)
H9_7 H 0.2316 0.4895 0.8109
H10_7 H 0.1631 0.4813 0.836
N2_6 N 0.0681(4) 0.3171(4) 0.75582(16)
C9_7 C 0.0335(5) 0.3570(5) 0.7783(2)
C10_7 C 0.0727(6) 0.4021(5) 0.8001(2)
H12_7 H 0.045 0.4310 0.8152
C11_7 C 0.1527(5) 0.4046(5) 0.7995(2)
C12_7 C 0.1891(5) 0.3633(5) 0.7754(2)
H13_7 H 0.2440 0.365 0.7733
C13_7 C 0.1457(5) 0.3207(5) 0.7549(2)
H14_7 H 0.1720 0.292 0.7392
Mn2_4 Mn 1.00000 0.25000 0.71866(4)
Cl2_7 Cl 0.39767(12) 0.14773(11) 0.96924(5)
N3_7 N 0.5688(4) 0.1842(4) 0.93133(16)
C14_7 C 0.6459(5) 0.1822(5) 0.93252(19)
H15_7 H 0.6714 0.2115 0.9484
C15_7 C 0.6918(5) 0.1390(5) 0.91164(19)
H16_7 H 0.7469 0.1397 0.9132
C16_7 C 0.6549(5) 0.0953(5) 0.88862(19)
C17_7 C 0.5758(5) 0.0973(5) 0.8872(2)
H17_7 H 0.5489 0.0688 0.8716
C18_7 C 0.5344(5) 0.1418(5) 0.9091(2)
H18_7 H 0.4792 0.1418 0.908
C19_7 C 0.7032(5) 0.0481(5) 0.8661(2)
H19_7 H 0.7401 0.0157 0.8782
H20_7 H 0.6685 0.0127 0.8543
C20_7 C 0.7494(5) 0.0982(5) 0.84259(19)
H21_7 H 0.7815 0.1363 0.8542
H22_7 H 0.7127 0.1274 0.8291
C21_7 C 0.8009(5) 0.0484(5) 0.8225(2)
H23_7 H 0.7684 0.0105 0.8109
H24_7 H 0.8369 0.0187 0.836
N4_6 N 0.9319(4) 0.1829(4) 0.75582(16)
C22_7 C 0.9665(5) 0.1430(5) 0.7783(2)
C23_7 C 0.9273(6) 0.0979(5) 0.8001(2)
H26_7 H 0.955 0.0690 0.8152
C24_7 C 0.8473(5) 0.0954(5) 0.7995(2)
C25_7 C 0.8109(5) 0.1367(5) 0.7754(2)
H27_7 H 0.7560 0.135 0.7733
C26_7 C 0.8543(5) 0.1793(5) 0.7549(2)
H28_7 H 0.8280 0.208 0.7392
H11_7 H 0.9784 0.3545 0.7797
Cl2_8 Cl 0.10227(11) 0.14767(12) 0.71924(5)
N3_8 N 0.0658(4) 0.3188(4) 0.68133(16)
C14_8 C 0.0678(5) 0.3959(5) 0.68252(19)
H15_8 H 0.0385 0.4214 0.6984
C15_8 C 0.1110(5) 0.4418(5) 0.66164(19)
H16_8 H 0.1103 0.4969 0.6632
C16_8 C 0.1547(5) 0.4049(5) 0.63862(19)
C17_8 C 0.1527(5) 0.3258(5) 0.6372(2)
H17_8 H 0.1812 0.2989 0.6216
C18_8 C 0.1082(5) 0.2844(5) 0.6591(2)
H18_8 H 0.1082 0.2292 0.658
C19_8 C 0.2019(5) 0.4532(5) 0.6161(2)
H19_8 H 0.2343 0.4901 0.6282
H20_8 H 0.2373 0.4185 0.6043
C20_8 C 0.1518(5) 0.4994(5) 0.59259(19)
H21_8 H 0.1137 0.5315 0.6042
H22_8 H 0.1226 0.4627 0.5791
C21_8 C 0.2016(5) 0.5509(5) 0.5725(2)
H23_8 H 0.2395 0.5184 0.5609
H24_8 H 0.2313 0.5869 0.586
C22_8 C 0.1070(5) 0.7165(5) 0.5283(2)
H25_8 H 0.1045 0.7716 0.5297
C23_8 C 0.1521(5) 0.6773(6) 0.5501(2)
H26_8 H 0.1810 0.705 0.5652
C24_8 C 0.1546(5) 0.5973(5) 0.5495(2)
C25_8 C 0.1133(5) 0.5609(5) 0.5254(2)
H27_8 H 0.115 0.5060 0.5233
C26_8 C 0.0707(5) 0.6043(5) 0.5049(2)
H28_8 H 0.042 0.5780 0.4892
Cl1_8 Cl 0.89773(11) 0.35233(12) 0.71924(5)
N1_8 N 0.9342(4) 0.1812(4) 0.68133(16)
C1_8 C 0.9322(5) 0.1041(5) 0.68252(19)
H1_8 H 0.9615 0.0786 0.6984
C2_8 C 0.8890(5) 0.0582(5) 0.66164(19)
H2_8 H 0.8897 0.0031 0.6632
C3_8 C 0.8453(5) 0.0951(5) 0.63862(19)
C4_8 C 0.8473(5) 0.1742(5) 0.6372(2)
H3_8 H 0.8188 0.2011 0.6216
C5_8 C 0.8918(5) 0.2156(5) 0.6591(2)
H4_8 H 0.8918 0.2708 0.658
C6_8 C 0.7981(5) 0.0468(5) 0.6161(2)
H5_8 H 0.7657 0.0099 0.6282
H6_8 H 0.7627 0.0815 0.6043
C7_8 C 0.8482(5) 0.0006(5) 0.59259(19)
H8_8 H 0.8774 0.0373 0.5791
H7_8 H 0.8863 0.9685 0.6042
C8_8 C 0.7984(5) 0.9491(5) 0.5725(2)
H9_8 H 0.7605 0.9816 0.5609
H10_8 H 0.7687 0.9131 0.586
C9_8 C 0.8930(5) 0.7835(5) 0.5283(2)
H11_8 H 0.8955 0.7284 0.5297
C10_8 C 0.8479(5) 0.8227(6) 0.5501(2)
H12_8 H 0.8190 0.795 0.5652
C11_8 C 0.8454(5) 0.9027(5) 0.5495(2)
C12_8 C 0.8867(5) 0.9391(5) 0.5254(2)
H13_8 H 0.885 0.9940 0.5233
C13_8 C 0.9293(5) 0.8957(5) 0.5049(2)
H14_8 H 0.958 0.9220 0.4892
Mn6 Mn -0.00000 0.25000 0.34818(5)
H43 H 0.0172 0.1415 0.4092
Mn4 Mn 0.50000 0.25000 0.59818(5)
Cl3 Cl 0.60149(14) 0.35507(16) 0.59820(6)
N7 N 0.0699(5) 0.3187(5) 0.38429(19)
C27 C 0.0378(6) 0.3596(6) 0.4072(2)
C28 C 0.0798(6) 0.4034(7) 0.4282(2)
H30 H 0.0538 0.4316 0.4443
C29 C 0.1601(5) 0.4063(6) 0.4259(2)
C30 C 0.1940(6) 0.3634(6) 0.4023(2)
H31 H 0.2490 0.363 0.4001
C31 C 0.1489(6) 0.3213(6) 0.3820(3)
H32 H 0.1737 0.2929 0.3657
C32 C 0.2086(6) 0.4514(7) 0.4489(2)
H33 H 0.1739 0.4852 0.4613
H34 H 0.2445 0.4855 0.437
C33 C 0.2556(6) 0.4018(6) 0.4709(2)
H35 H 0.2905 0.3677 0.4586
H36 H 0.2201 0.3681 0.4832
C34 C 0.3035(7) 0.4504(7) 0.4931(3)
H37 H 0.3401 0.4825 0.4808
H38 H 0.2685 0.4861 0.5046
N8 N 0.4336(5) 0.3153(5) 0.5602(2)
C35 C 0.3539(6) 0.3181(7) 0.5604(2)
H39 H 0.3268 0.2893 0.576
C36 C 0.3113(6) 0.3609(6) 0.5393(2)
H40 H 0.2561 0.361 0.5405
C37 C 0.3485(6) 0.4039(6) 0.5162(2)
C38 C 0.4295(7) 0.3978(8) 0.5158(3)
H41 H 0.4581 0.4238 0.4999
C39 C 0.4688(6) 0.3547(8) 0.5379(3)
H42 H 0.524 0.3535 0.5371
Mn6_2 Mn 1.00000 0.25000 0.34818(5)
Cl4 Cl 0.39851(14) 0.14493(16) 0.59820(6)
N9 N 0.9301(5) 0.1813(5) 0.38429(19)
N10 N 0.4313(5) 0.3199(5) 0.63429(19)
N11 N 0.5687(5) 0.1801(5) 0.63429(19)
C40 C 0.9622(6) 0.1404(6) 0.4072(2)
C41 C 0.9202(6) 0.0966(7) 0.4282(2)
H44 H 0.9462 0.0684 0.4443
C42 C 0.8399(5) 0.0937(6) 0.4259(2)
C43 C 0.8060(6) 0.1366(6) 0.4023(2)
H45 H 0.7510 0.137 0.4001
C44 C 0.8511(6) 0.1787(6) 0.3820(3)
H46 H 0.8263 0.2071 0.3657
C45 C 0.7914(6) 0.0486(7) 0.4489(2)
H47 H 0.8261 0.0148 0.4613
H48 H 0.7555 0.0145 0.437
C46 C 0.7444(6) 0.0982(6) 0.4709(2)
H49 H 0.7095 0.1323 0.4586
H50 H 0.7799 0.1319 0.4832
C47 C 0.6965(7) 0.0496(7) 0.4931(3)
H51 H 0.6599 0.0175 0.4808
H52 H 0.7315 0.0139 0.5046
N12 N 0.5664(5) 0.1847(5) 0.5602(2)
C48 C 0.6461(6) 0.1819(7) 0.5604(2)
H53 H 0.6732 0.2107 0.576
C49 C 0.6887(6) 0.1391(6) 0.5393(2)
H54 H 0.7439 0.139 0.5405
C50 C 0.6515(6) 0.0961(6) 0.5162(2)
C51 C 0.5705(7) 0.1022(8) 0.5158(3)
H55 H 0.5419 0.0762 0.4999
C52 C 0.5312(6) 0.1453(8) 0.5379(3)
H56 H 0.476 0.1465 0.5371
H29 H 0.9828 0.3585 0.4092
C40_2 C 0.6096(6) 0.2122(6) 0.6572(2)
H43_2 H 0.6085 0.2672 0.6592
C41_2 C 0.6534(7) 0.1702(6) 0.6782(2)
H44_2 H 0.6816 0.1962 0.6943
C42_2 C 0.6563(6) 0.0899(5) 0.6759(2)
C43_2 C 0.6134(6) 0.0560(6) 0.6523(2)
H45_2 H 0.613 0.0010 0.6501
C44_2 C 0.5713(6) 0.1011(6) 0.6320(3)
H46_2 H 0.5429 0.0763 0.6157
C45_2 C 0.7014(7) 0.0414(6) 0.6989(2)
H47_2 H 0.7352 0.0761 0.7113
H48_2 H 0.7355 0.0055 0.687
H50_2 H 0.6181 0.0299 0.7332
Mn4_2 Mn 0.50000 0.75000 0.84818(5)
Cl3_2 Cl 0.39493(16) 0.85149(14) 0.84820(6)
C27_2 C 0.3904(6) 0.2878(6) 0.6572(2)
H29_2 H 0.3915 0.2328 0.6592
C28_2 C 0.3466(7) 0.3298(6) 0.6782(2)
H30_2 H 0.3184 0.3038 0.6943
C29_2 C 0.3437(6) 0.4101(5) 0.6759(2)
C30_2 C 0.3866(6) 0.4440(6) 0.6523(2)
H31_2 H 0.387 0.4990 0.6501
C31_2 C 0.4287(6) 0.3989(6) 0.6320(3)
H32_2 H 0.4571 0.4237 0.6157
C32_2 C 0.2986(7) 0.4586(6) 0.6989(2)
H33_2 H 0.2648 0.4239 0.7113
H34_2 H 0.2645 0.4945 0.687
C33_2 C 0.3482(6) 0.5056(6) 0.7209(2)
H35_2 H 0.3823 0.5405 0.7086
H36_2 H 0.3819 0.4701 0.7332
C34_2 C 0.2996(7) 0.5535(7) 0.7431(3)
H37_2 H 0.2675 0.5901 0.7308
H38_2 H 0.2639 0.5185 0.7546
N8_2 N 0.4347(5) 0.6836(5) 0.8102(2)
C35_2 C 0.4319(7) 0.6039(6) 0.8104(2)
H39_2 H 0.4607 0.5768 0.826
C36_2 C 0.3891(6) 0.5613(6) 0.7893(2)
H40_2 H 0.389 0.5061 0.7905
C37_2 C 0.3461(6) 0.5985(6) 0.7662(2)
C38_2 C 0.3522(8) 0.6795(7) 0.7658(3)
H41_2 H 0.3262 0.7081 0.7499
C39_2 C 0.3953(8) 0.7188(6) 0.7879(3)
H42_2 H 0.3965 0.774 0.7871
Cl4_2 Cl 0.60507(16) 0.64851(14) 0.84820(6)
N10_2 N 0.4301(5) 0.6813(5) 0.88429(19)
N11_2 N 0.5699(5) 0.8187(5) 0.88429(19)
C46_2 C 0.6518(6) 0.9944(6) 0.7209(2)
H49_2 H 0.6177 0.9595 0.7086
C47_2 C 0.7004(7) 0.9465(7) 0.7431(3)
H51_2 H 0.7325 0.9099 0.7308
H52_2 H 0.7361 0.9815 0.7546
N12_2 N 0.5653(5) 0.8164(5) 0.8102(2)
C48_2 C 0.5681(7) 0.8961(6) 0.8104(2)
H53_2 H 0.5393 0.9232 0.826
C49_2 C 0.6109(6) 0.9387(6) 0.7893(2)
H54_2 H 0.611 0.9939 0.7905
C50_2 C 0.6539(6) 0.9015(6) 0.7662(2)
C51_2 C 0.6478(8) 0.8205(7) 0.7658(3)
H55_2 H 0.6738 0.7919 0.7499
C52_2 C 0.6047(8) 0.7812(6) 0.7879(3)
H56_2 H 0.6035 0.726 0.7871
Mn4_3 Mn -0.00000 0.75000 0.09818(5)
Cl3_3 Cl 0.10149(14) 0.85507(16) 0.09820(6)
H42_3 H 0.024 0.8535 0.0371
N11_3 N 0.0687(5) 0.6801(5) 0.13429(19)
H52_3 H 0.2315 0.5139 0.0046
N12_3 N 0.0664(5) 0.6847(5) 0.0602(2)
C48_3 C 0.1461(6) 0.6819(7) 0.0604(2)
H53_3 H 0.1732 0.7107 0.076
C49_3 C 0.1887(6) 0.6391(6) 0.0393(2)
H54_3 H 0.2439 0.639 0.0405
C50_3 C 0.1515(6) 0.5961(6) 0.0162(2)
C51_3 C 0.0705(7) 0.6022(8) 0.0158(3)
C52_3 C 0.0312(6) 0.6453(8) 0.0379(3)
C40_3 C 0.4622(6) 0.6404(6) 0.9072(2)
H43_3 H 0.5172 0.6415 0.9092
C41_3 C 0.4202(6) 0.5966(7) 0.9282(2)
H44_3 H 0.4462 0.5684 0.9443
C42_3 C 0.3399(5) 0.5937(6) 0.9259(2)
C43_3 C 0.3060(6) 0.6366(6) 0.9023(2)
H45_3 H 0.2510 0.637 0.9001
C44_3 C 0.3511(6) 0.6787(6) 0.8820(3)
H46_3 H 0.3263 0.7071 0.8657
C45_3 C 0.2914(6) 0.5486(7) 0.9489(2)
H47_3 H 0.3261 0.5148 0.9613
H48_3 H 0.2555 0.5145 0.937
C46_3 C 0.2444(6) 0.5982(6) 0.9709(2)
H49_3 H 0.2095 0.6323 0.9586
H50_3 H 0.2799 0.6319 0.9832
C47_3 C 0.1965(7) 0.5496(7) 0.9931(3)
H51_3 H 0.1599 0.5175 0.9808
H55_3 H 0.0419 0.5762 0.9999
Mn4_4 Mn 1.00000 0.75000 0.09818(5)
H38_3 H 0.7685 0.9861 0.0046
N8_3 N 0.9336(5) 0.8153(5) 0.0602(2)
C35_3 C 0.8539(6) 0.8181(7) 0.0604(2)
H39_3 H 0.8268 0.7893 0.076
C36_3 C 0.8113(6) 0.8609(6) 0.0393(2)
H40_3 H 0.7561 0.861 0.0405
C37_3 C 0.8485(6) 0.9039(6) 0.0162(2)
C38_3 C 0.9295(7) 0.8978(8) 0.0158(3)
C39_3 C 0.9688(6) 0.8547(8) 0.0379(3)
Cl4_3 Cl 0.89851(14) 0.64493(16) 0.09820(6)
N10_3 N 0.9313(5) 0.8199(5) 0.13429(19)
H56_3 H 0.976 0.6465 0.0371
C27_3 C 0.5378(6) 0.8596(6) 0.9072(2)
H29_3 H 0.4828 0.8585 0.9092
C28_3 C 0.5798(6) 0.9034(7) 0.9282(2)
H30_3 H 0.5538 0.9316 0.9443
C29_3 C 0.6601(5) 0.9063(6) 0.9259(2)
C30_3 C 0.6940(6) 0.8634(6) 0.9023(2)
H31_3 H 0.7490 0.863 0.9001
C31_3 C 0.6489(6) 0.8213(6) 0.8820(3)
H32_3 H 0.6737 0.7929 0.8657
C32_3 C 0.7086(6) 0.9514(7) 0.9489(2)
H33_3 H 0.6739 0.9852 0.9613
H34_3 H 0.7445 0.9855 0.937
C33_3 C 0.7556(6) 0.9018(6) 0.9709(2)
H35_3 H 0.7905 0.8677 0.9586
H36_3 H 0.7201 0.8681 0.9832
C34_3 C 0.8035(7) 0.9504(7) 0.9931(3)
H37_3 H 0.8401 0.9825 0.9808
H41_3 H 0.9581 0.9238 0.9999
Cl4_4 Cl 0.10507(16) 0.14851(14) 0.34820(6)
C40_4 C 0.1096(6) 0.7122(6) 0.1572(2)
H43_4 H 0.1085 0.7672 0.1592
C41_4 C 0.1534(7) 0.6702(6) 0.1782(2)
H44_4 H 0.1816 0.6962 0.1943
C42_4 C 0.1563(6) 0.5899(5) 0.1759(2)
C43_4 C 0.1134(6) 0.5560(6) 0.1523(2)
H45_4 H 0.113 0.5010 0.1501
C44_4 C 0.0713(6) 0.6011(6) 0.1320(3)
H46_4 H 0.0429 0.5763 0.1157
C45_4 C 0.2014(7) 0.5414(6) 0.1989(2)
H47_4 H 0.2352 0.5761 0.2113
H48_4 H 0.2355 0.5055 0.187
C46_4 C 0.1518(6) 0.4944(6) 0.2209(2)
H49_4 H 0.1177 0.4595 0.2086
H50_4 H 0.1181 0.5299 0.2332
C47_4 C 0.2004(7) 0.4465(7) 0.2431(3)
H51_4 H 0.2325 0.4099 0.2308
H52_4 H 0.2361 0.4815 0.2546
N12_4 N 0.0653(5) 0.3164(5) 0.3102(2)
C48_4 C 0.0681(7) 0.3961(6) 0.3104(2)
H53_4 H 0.0393 0.4232 0.326
C49_4 C 0.1109(6) 0.4387(6) 0.2893(2)
H54_4 H 0.111 0.4939 0.2905
C50_4 C 0.1539(6) 0.4015(6) 0.2662(2)
C51_4 C 0.1478(8) 0.3205(7) 0.2658(3)
H55_4 H 0.1738 0.2919 0.2499
C52_4 C 0.1047(8) 0.2812(6) 0.2879(3)
H56_4 H 0.1035 0.226 0.2871
Cl3_4 Cl 0.89493(16) 0.35149(14) 0.34820(6)
C33_4 C 0.8482(6) 0.0056(6) 0.2209(2)
H35_4 H 0.8823 0.0405 0.2086
C34_4 C 0.7996(7) 0.0535(7) 0.2431(3)
H37_4 H 0.7675 0.0901 0.2308
H38_4 H 0.7639 0.0185 0.2546
N8_4 N 0.9347(5) 0.1836(5) 0.3102(2)
C35_4 C 0.9319(7) 0.1039(6) 0.3104(2)
H39_4 H 0.9607 0.0768 0.326
C36_4 C 0.8891(6) 0.0613(6) 0.2893(2)
H40_4 H 0.889 0.0061 0.2905
C37_4 C 0.8461(6) 0.0985(6) 0.2662(2)
C38_4 C 0.8522(8) 0.1795(7) 0.2658(3)
H41_4 H 0.8262 0.2081 0.2499
C39_4 C 0.8953(8) 0.2188(6) 0.2879(3)
H42_4 H 0.8965 0.274 0.2871
C27_4 C 0.8904(6) 0.7878(6) 0.1572(2)
H29_4 H 0.8915 0.7328 0.1592
C28_4 C 0.8466(7) 0.8298(6) 0.1782(2)
H30_4 H 0.8184 0.8038 0.1943
C29_4 C 0.8437(6) 0.9101(5) 0.1759(2)
C30_4 C 0.8866(6) 0.9440(6) 0.1523(2)
H31_4 H 0.887 0.9990 0.1501
C31_4 C 0.9287(6) 0.8989(6) 0.1320(3)
H32_4 H 0.9571 0.9237 0.1157
C32_4 C 0.7986(7) 0.9586(6) 0.1989(2)
H33_4 H 0.7648 0.9239 0.2113
H34_4 H 0.7645 0.9945 0.187
H36_4 H 0.8819 0.9701 0.2332
H29_5 H 0.0172 0.6415 0.5908
Mn5 Mn 0.00000 0.75000 0.65182(5)
Mn4_5 Mn 0.50000 0.75000 0.40182(5)
Cl3_5 Cl 0.39851(14) 0.64493(16) 0.40180(6)
N7_2 N 0.9301(5) 0.6813(5) 0.61571(19)
C27_5 C 0.9622(6) 0.6404(6) 0.5928(2)
C28_5 C 0.9202(6) 0.5966(7) 0.5718(2)
H30_5 H 0.9462 0.5684 0.5557
C29_5 C 0.8399(5) 0.5937(6) 0.5741(2)
C30_5 C 0.8060(6) 0.6366(6) 0.5977(2)
H31_5 H 0.7510 0.637 0.5999
C31_5 C 0.8511(6) 0.6787(6) 0.6180(3)
H32_5 H 0.8263 0.7071 0.6343
C32_5 C 0.7914(6) 0.5486(7) 0.5511(2)
H33_5 H 0.8261 0.5148 0.5387
H34_5 H 0.7555 0.5145 0.563
C33_5 C 0.7444(6) 0.5982(6) 0.5291(2)
H35_5 H 0.7095 0.6323 0.5414
H36_5 H 0.7799 0.6319 0.5168
C34_5 C 0.6965(7) 0.5496(7) 0.5069(3)
H37_5 H 0.6599 0.5175 0.5192
H38_5 H 0.7315 0.5139 0.4954
N8_5 N 0.5664(5) 0.6847(5) 0.4398(2)
C35_5 C 0.6461(6) 0.6819(7) 0.4396(2)
H39_5 H 0.6732 0.7107 0.424
C36_5 C 0.6887(6) 0.6391(6) 0.4607(2)
H40_5 H 0.7439 0.639 0.4595
C37_5 C 0.6515(6) 0.5961(6) 0.4838(2)
C38_5 C 0.5705(7) 0.6022(8) 0.4842(3)
H41_5 H 0.5419 0.5762 0.5001
C39_5 C 0.5312(6) 0.6453(8) 0.4621(3)
H42_5 H 0.476 0.6465 0.4629
Mn5_2 Mn 1.00000 0.75000 0.65182(5)
Cl4_5 Cl 0.60149(14) 0.85507(16) 0.40180(6)
N9_2 N 0.0699(5) 0.8187(5) 0.61571(19)
N10_4 N 0.5687(5) 0.6801(5) 0.36571(19)
N11_4 N 0.4313(5) 0.8199(5) 0.36571(19)
C40_5 C 0.0378(6) 0.8596(6) 0.5928(2)
C41_5 C 0.0798(6) 0.9034(7) 0.5718(2)
H44_5 H 0.0538 0.9316 0.5557
C42_5 C 0.1601(5) 0.9063(6) 0.5741(2)
C43_5 C 0.1940(6) 0.8634(6) 0.5977(2)
H45_5 H 0.2490 0.863 0.5999
C44_5 C 0.1489(6) 0.8213(6) 0.6180(3)
H46_5 H 0.1737 0.7929 0.6343
C45_5 C 0.2086(6) 0.9514(7) 0.5511(2)
H47_5 H 0.1739 0.9852 0.5387
H48_5 H 0.2445 0.9855 0.563
C46_5 C 0.2556(6) 0.9018(6) 0.5291(2)
H49_5 H 0.2905 0.8677 0.5414
H50_5 H 0.2201 0.8681 0.5168
C47_5 C 0.3035(7) 0.9504(7) 0.5069(3)
H51_5 H 0.3401 0.9825 0.5192
H52_5 H 0.2685 0.9861 0.4954
N12_5 N 0.4336(5) 0.8153(5) 0.4398(2)
C48_5 C 0.3539(6) 0.8181(7) 0.4396(2)
H53_5 H 0.3268 0.7893 0.424
C49_5 C 0.3113(6) 0.8609(6) 0.4607(2)
H54_5 H 0.2561 0.861 0.4595
C50_5 C 0.3485(6) 0.9039(6) 0.4838(2)
C51_5 C 0.4295(7) 0.8978(8) 0.4842(3)
H55_5 H 0.4581 0.9238 0.5001
C52_5 C 0.4688(6) 0.8547(8) 0.4621(3)
H56_5 H 0.524 0.8535 0.4629
H43_5 H 0.9828 0.8585 0.5908
Mn4_6 Mn 0.50000 0.25000 0.15182(5)
Cl3_6 Cl 0.60507(16) 0.14851(14) 0.15180(6)
C27_6 C 0.6096(6) 0.7122(6) 0.3428(2)
H29_6 H 0.6085 0.7672 0.3408
C28_6 C 0.6534(7) 0.6702(6) 0.3218(2)
H30_6 H 0.6816 0.6962 0.3057
C29_6 C 0.6563(6) 0.5899(5) 0.3241(2)
C30_6 C 0.6134(6) 0.5560(6) 0.3477(2)
H31_6 H 0.613 0.5010 0.3499
C31_6 C 0.5713(6) 0.6011(6) 0.3680(3)
H32_6 H 0.5429 0.5763 0.3843
C32_6 C 0.7014(7) 0.5414(6) 0.3011(2)
H33_6 H 0.7352 0.5761 0.2887
H34_6 H 0.7355 0.5055 0.313
C33_6 C 0.6518(6) 0.4944(6) 0.2791(2)
H35_6 H 0.6177 0.4595 0.2914
H36_6 H 0.6181 0.5299 0.2668
C34_6 C 0.7004(7) 0.4465(7) 0.2569(3)
H37_6 H 0.7325 0.4099 0.2692
H38_6 H 0.7361 0.4815 0.2454
N8_6 N 0.5653(5) 0.3164(5) 0.1898(2)
C35_6 C 0.5681(7) 0.3961(6) 0.1896(2)
H39_6 H 0.5393 0.4232 0.174
C36_6 C 0.6109(6) 0.4387(6) 0.2107(2)
H40_6 H 0.611 0.4939 0.2095
C37_6 C 0.6539(6) 0.4015(6) 0.2338(2)
C38_6 C 0.6478(8) 0.3205(7) 0.2342(3)
H41_6 H 0.6738 0.2919 0.2501
C39_6 C 0.6047(8) 0.2812(6) 0.2121(3)
H42_6 H 0.6035 0.226 0.2129
Cl4_6 Cl 0.39493(16) 0.35149(14) 0.15180(6)
N10_5 N 0.5699(5) 0.3187(5) 0.11571(19)
N11_5 N 0.4301(5) 0.1813(5) 0.11571(19)
C46_6 C 0.3482(6) 0.0056(6) 0.2791(2)
H49_6 H 0.3823 0.0405 0.2914
C47_6 C 0.2996(7) 0.0535(7) 0.2569(3)
H51_6 H 0.2675 0.0901 0.2692
H52_6 H 0.2639 0.0185 0.2454
N12_6 N 0.4347(5) 0.1836(5) 0.1898(2)
C48_6 C 0.4319(7) 0.1039(6) 0.1896(2)
H53_6 H 0.4607 0.0768 0.174
C49_6 C 0.3891(6) 0.0613(6) 0.2107(2)
H54_6 H 0.389 0.0061 0.2095
C50_6 C 0.3461(6) 0.0985(6) 0.2338(2)
C51_6 C 0.3522(8) 0.1795(7) 0.2342(3)
H55_6 H 0.3262 0.2081 0.2501
C52_6 C 0.3953(8) 0.2188(6) 0.2121(3)
H56_6 H 0.3965 0.274 0.2129
C40_6 C 0.3904(6) 0.7878(6) 0.3428(2)
H43_6 H 0.3915 0.7328 0.3408
C41_6 C 0.3466(7) 0.8298(6) 0.3218(2)
H44_6 H 0.3184 0.8038 0.3057
C42_6 C 0.3437(6) 0.9101(5) 0.3241(2)
C43_6 C 0.3866(6) 0.9440(6) 0.3477(2)
H45_6 H 0.387 0.9990 0.3499
C44_6 C 0.4287(6) 0.8989(6) 0.3680(3)
H46_6 H 0.4571 0.9237 0.3843
C45_6 C 0.2986(7) 0.9586(6) 0.3011(2)
H47_6 H 0.2648 0.9239 0.2887
H48_6 H 0.2645 0.9945 0.313
H50_6 H 0.3819 0.9701 0.2668
C27_7 C 0.4622(6) 0.1404(6) 0.0928(2)
H29_7 H 0.5172 0.1415 0.0908
C28_7 C 0.4202(6) 0.0966(7) 0.0718(2)
H30_7 H 0.4462 0.0684 0.0557
C29_7 C 0.3399(5) 0.0937(6) 0.0741(2)
C30_7 C 0.3060(6) 0.1366(6) 0.0977(2)
H31_7 H 0.2510 0.137 0.0999
C31_7 C 0.3511(6) 0.1787(6) 0.1180(3)
H32_7 H 0.3263 0.2071 0.1343
C32_7 C 0.2914(6) 0.0486(7) 0.0511(2)
H33_7 H 0.3261 0.0148 0.0387
H34_7 H 0.2555 0.0145 0.063
C33_7 C 0.2444(6) 0.0982(6) 0.0291(2)
H35_7 H 0.2095 0.1323 0.0414
H36_7 H 0.2799 0.1319 0.0168
C34_7 C 0.1965(7) 0.0496(7) 0.0069(3)
H37_7 H 0.1599 0.0175 0.0192
H41_7 H 0.0419 0.0762 0.0001
Mn4_7 Mn 0.00000 0.25000 0.90182(5)
H38_7 H 0.2315 0.0139 0.9954
N8_7 N 0.0664(5) 0.1847(5) 0.9398(2)
C35_7 C 0.1461(6) 0.1819(7) 0.9396(2)
H39_7 H 0.1732 0.2107 0.924
C36_7 C 0.1887(6) 0.1391(6) 0.9607(2)
H40_7 H 0.2439 0.139 0.9595
C37_7 C 0.1515(6) 0.0961(6) 0.9838(2)
C38_7 C 0.0705(7) 0.1022(8) 0.9842(3)
C39_7 C 0.0312(6) 0.1453(8) 0.9621(3)
Cl4_7 Cl 0.10149(14) 0.35507(16) 0.90180(6)
N10_6 N 0.0687(5) 0.1801(5) 0.86571(19)
H56_7 H 0.024 0.3535 0.9629
C40_7 C 0.5378(6) 0.3596(6) 0.0928(2)
H43_7 H 0.4828 0.3585 0.0908
C41_7 C 0.5798(6) 0.4034(7) 0.0718(2)
H44_7 H 0.5538 0.4316 0.0557
C42_7 C 0.6601(5) 0.4063(6) 0.0741(2)
C43_7 C 0.6940(6) 0.3634(6) 0.0977(2)
H45_7 H 0.7490 0.363 0.0999
C44_7 C 0.6489(6) 0.3213(6) 0.1180(3)
H46_7 H 0.6737 0.2929 0.1343
C45_7 C 0.7086(6) 0.4514(7) 0.0511(2)
H47_7 H 0.6739 0.4852 0.0387
H48_7 H 0.7445 0.4855 0.063
C46_7 C 0.7556(6) 0.4018(6) 0.0291(2)
H49_7 H 0.7905 0.3677 0.0414
H50_7 H 0.7201 0.3681 0.0168
C47_7 C 0.8035(7) 0.4504(7) 0.0069(3)
H51_7 H 0.8401 0.4825 0.0192
H55_7 H 0.9581 0.4238 0.0001
Mn4_8 Mn 1.00000 0.25000 0.90182(5)
Cl3_7 Cl 0.89851(14) 0.14493(16) 0.90180(6)
H42_7 H 0.976 0.1465 0.9629
N11_6 N 0.9313(5) 0.3199(5) 0.86571(19)
H52_7 H 0.7685 0.4861 0.9954
N12_7 N 0.9336(5) 0.3153(5) 0.9398(2)
C48_7 C 0.8539(6) 0.3181(7) 0.9396(2)
H53_7 H 0.8268 0.2893 0.924
C49_7 C 0.8113(6) 0.3609(6) 0.9607(2)
H54_7 H 0.7561 0.361 0.9595
C50_7 C 0.8485(6) 0.4039(6) 0.9838(2)
C51_7 C 0.9295(7) 0.3978(8) 0.9842(3)
C52_7 C 0.9688(6) 0.3547(8) 0.9621(3)
C27_8 C 0.1096(6) 0.2122(6) 0.8428(2)
H29_8 H 0.1085 0.2672 0.8408
C28_8 C 0.1534(7) 0.1702(6) 0.8218(2)
H30_8 H 0.1816 0.1962 0.8057
C29_8 C 0.1563(6) 0.0899(5) 0.8241(2)
C30_8 C 0.1134(6) 0.0560(6) 0.8477(2)
H31_8 H 0.113 0.0010 0.8499
C31_8 C 0.0713(6) 0.1011(6) 0.8680(3)
H32_8 H 0.0429 0.0763 0.8843
C32_8 C 0.2014(7) 0.0414(6) 0.8011(2)
H33_8 H 0.2352 0.0761 0.7887
H34_8 H 0.2355 0.0055 0.813
H36_8 H 0.1181 0.0299 0.7668
Cl3_8 Cl 0.10507(16) 0.64851(14) 0.65180(6)
C33_8 C 0.1518(6) 0.9944(6) 0.7791(2)
H35_8 H 0.1177 0.9595 0.7914
C34_8 C 0.2004(7) 0.9465(7) 0.7569(3)
H37_8 H 0.2325 0.9099 0.7692
H38_8 H 0.2361 0.9815 0.7454
N8_8 N 0.0653(5) 0.8164(5) 0.6898(2)
C35_8 C 0.0681(7) 0.8961(6) 0.6896(2)
H39_8 H 0.0393 0.9232 0.674
C36_8 C 0.1109(6) 0.9387(6) 0.7107(2)
H40_8 H 0.111 0.9939 0.7095
C37_8 C 0.1539(6) 0.9015(6) 0.7338(2)
C38_8 C 0.1478(8) 0.8205(7) 0.7342(3)
H41_8 H 0.1738 0.7919 0.7501
C39_8 C 0.1047(8) 0.7812(6) 0.7121(3)
H42_8 H 0.1035 0.726 0.7129
Cl4_8 Cl 0.89493(16) 0.85149(14) 0.65180(6)
C40_8 C 0.8904(6) 0.2878(6) 0.8428(2)
H43_8 H 0.8915 0.2328 0.8408
C41_8 C 0.8466(7) 0.3298(6) 0.8218(2)
H44_8 H 0.8184 0.3038 0.8057
C42_8 C 0.8437(6) 0.4101(5) 0.8241(2)
C43_8 C 0.8866(6) 0.4440(6) 0.8477(2)
H45_8 H 0.887 0.4990 0.8499
C44_8 C 0.9287(6) 0.3989(6) 0.8680(3)
H46_8 H 0.9571 0.4237 0.8843
C45_8 C 0.7986(7) 0.4586(6) 0.8011(2)
H47_8 H 0.7648 0.4239 0.7887
H48_8 H 0.7645 0.4945 0.813
C46_8 C 0.8482(6) 0.5056(6) 0.7791(2)
H49_8 H 0.8823 0.5405 0.7914
H50_8 H 0.8819 0.4701 0.7668
C47_8 C 0.7996(7) 0.5535(7) 0.7569(3)
H51_8 H 0.7675 0.5901 0.7692
H52_8 H 0.7639 0.5185 0.7454
N12_8 N 0.9347(5) 0.6836(5) 0.6898(2)
C48_8 C 0.9319(7) 0.6039(6) 0.6896(2)
H53_8 H 0.9607 0.5768 0.674
C49_8 C 0.8891(6) 0.5613(6) 0.7107(2)
H54_8 H 0.889 0.5061 0.7095
C50_8 C 0.8461(6) 0.5985(6) 0.7338(2)
C51_8 C 0.8522(8) 0.6795(7) 0.7342(3)
H55_8 H 0.8262 0.7081 0.7501
C52_8 C 0.8953(8) 0.7188(6) 0.7121(3)
H56_8 H 0.8965 0.774 0.7129
loop_
_geom_bond_atom_site_label_1
_geom_bond_atom_site_label_2
_geom_bond_site_symmetry_1
_geom_bond_site_symmetry_2
N1 Mn1 1_555 1_555
C1 N1 1_555 1_555
H1 C1 1_555 1_555
C2 C1 1_555 1_555
H2 C2 1_555 1_555
C3 C2 1_555 1_555
C4 C3 1_555 1_555
H3 C4 1_555 1_555
C5 N1 1_555 1_555
C6 C3 1_555 1_555
H5 C6 1_555 1_555
H6 C6 1_555 1_555
C7 C6 1_555 1_555
H7 C7 1_555 1_555
H8 C7 1_555 1_555
C8 C7 1_555 1_555
H9 C8 1_555 1_555
H10 C8 1_555 1_555
N2 C9 1_555 1_555
C9 H11 1_555 1_555
C10 C9 1_555 1_555
H12 C10 1_555 1_555
C11 C8 1_555 1_555
C12 C11 1_555 1_555
H13 C12 1_555 1_555
C13 N2 1_555 1_555
H14 C13 1_555 1_555
Mn3 N2 1_555 1_555
Cl2 Mn1 1_555 1_555
N5 Mn1 1_555 1_555
C4 C5 1_555 1_555
C10 C11 1_555 1_555
C12 C13 1_555 1_555
Mn1_2 Cl1 1_555 1_555
Mn3 N4 1_555 1_555
N3 Mn1_2 1_555 1_555
C14 N3 1_555 1_555
H15 C14 1_555 1_555
C15 C14 1_555 1_555
H16 C15 1_555 1_555
C16 C15 1_555 1_555
C17 C16 1_555 1_555
H17 C17 1_555 1_555
C18 N3 1_555 1_555
C19 C16 1_555 1_555
H19 C19 1_555 1_555
H20 C19 1_555 1_555
C20 C19 1_555 1_555
H21 C20 1_555 1_555
H22 C20 1_555 1_555
C21 C20 1_555 1_555
H23 C21 1_555 1_555
H24 C21 1_555 1_555
N4 C22 1_555 1_555
N6 Mn1_2 1_555 1_555
C22 H25 1_555 1_555
C23 C22 1_555 1_555
H26 C23 1_555 1_555
C24 C21 1_555 1_555
C25 C24 1_555 1_555
H27 C25 1_555 1_555
C26 N4 1_555 1_555
H28 C26 1_555 1_555
C17 C18 1_555 1_555
C23 C24 1_555 1_555
C25 C26 1_555 1_555
Mn3 Cl1_2 1_555 1_555
N1_2 Mn3 1_555 1_555
C1_2 N1_2 1_555 1_555
H1_2 C1_2 1_555 1_555
C2_2 C1_2 1_555 1_555
H2_2 C2_2 1_555 1_555
C3_2 C2_2 1_555 1_555
C4_2 C3_2 1_555 1_555
H3_2 C4_2 1_555 1_555
C5_2 N1_2 1_555 1_555
H4_2 C5_2 1_555 1_555
C6_2 C3_2 1_555 1_555
H5_2 C6_2 1_555 1_555
H6_2 C6_2 1_555 1_555
C7_2 C6_2 1_555 1_555
H7_2 C7_2 1_555 1_555
H8_2 C7_2 1_555 1_555
C8_2 C7_2 1_555 1_555
H9_2 C8_2 1_555 1_555
H10_2 C8_2 1_555 1_555
N2_2 C9_2 1_555 1_555
C9_2 H11_2 1_555 1_555
C10_2 C9_2 1_555 1_555
H12_2 C10_2 1_555 1_555
C11_2 C8_2 1_555 1_555
C12_2 C11_2 1_555 1_555
H13_2 C12_2 1_555 1_555
C13_2 N2_2 1_555 1_555
Cl2_2 Mn3 1_555 1_555
N3_2 Mn3 1_555 1_555
C14_2 N3_2 1_555 1_555
H15_2 C14_2 1_555 1_555
C15_2 C14_2 1_555 1_555
H16_2 C15_2 1_555 1_555
C16_2 C15_2 1_555 1_555
C17_2 C16_2 1_555 1_555
H17_2 C17_2 1_555 1_555
C18_2 N3_2 1_555 1_555
H18_2 C18_2 1_555 1_555
C19_2 C16_2 1_555 1_555
H19_2 C19_2 1_555 1_555
H20_2 C19_2 1_555 1_555
C20_2 C19_2 1_555 1_555
H22_2 C20_2 1_555 1_555
C4_2 C5_2 1_555 1_555
C10_2 C11_2 1_555 1_555
C12_2 C13_2 1_555 1_555
C17_2 C18_2 1_555 1_555
H23_2 C21_2 1_555 1_555
H24_2 C21_2 1_555 1_555
N4_2 C22_2 1_555 1_555
C22_2 H25_2 1_555 1_555
C23_2 C22_2 1_555 1_555
H26_2 C23_2 1_555 1_555
C24_2 C21_2 1_555 1_555
C25_2 C24_2 1_555 1_555
H27_2 C25_2 1_555 1_555
C26_2 N4_2 1_555 1_555
C23_2 C24_2 1_555 1_555
C25_2 C26_2 1_555 1_555
Mn3_2 Cl1_3 1_555 1_555
N1_3 Mn3_2 1_555 1_555
C1_3 N1_3 1_555 1_555
H1_3 C1_3 1_555 1_555
C2_3 C1_3 1_555 1_555
H2_3 C2_3 1_555 1_555
C3_3 C2_3 1_555 1_555
C4_3 C3_3 1_555 1_555
H3_3 C4_3 1_555 1_555
C5_3 N1_3 1_555 1_555
H4_3 C5_3 1_555 1_555
C6_3 C3_3 1_555 1_555
H5_3 C6_3 1_555 1_555
H6_3 C6_3 1_555 1_555
C7_3 C6_3 1_555 1_555
H7_3 C7_3 1_555 1_555
H8_3 C7_3 1_555 1_555
C8_3 C7_3 1_555 1_555
H9_3 C8_3 1_555 1_555
H10_3 C8_3 1_555 1_555
N2_3 C9_3 1_555 1_555
C10_3 C9_3 1_555 1_555
H12_3 C10_3 1_555 1_555
C11_3 C8_3 1_555 1_555
C12_3 C11_3 1_555 1_555
H13_3 C12_3 1_555 1_555
C13_3 N2_3 1_555 1_555
H14_3 C13_3 1_555 1_555
Mn3_3 N4_3 1_555 1_555
Mn3_4 N2_3 1_555 1_555
Cl2_3 Mn3_2 1_555 1_555
N3_3 Mn3_2 1_555 1_555
C14_3 N3_3 1_555 1_555
H15_3 C14_3 1_555 1_555
C15_3 C14_3 1_555 1_555
H16_3 C15_3 1_555 1_555
C16_3 C15_3 1_555 1_555
C17_3 C16_3 1_555 1_555
H17_3 C17_3 1_555 1_555
C18_3 N3_3 1_555 1_555
H18_3 C18_3 1_555 1_555
C19_3 C16_3 1_555 1_555
H19_3 C19_3 1_555 1_555
H20_3 C19_3 1_555 1_555
C20_3 C19_3 1_555 1_555
H21_3 C20_3 1_555 1_555
H22_3 C20_3 1_555 1_555
C21_3 C20_3 1_555 1_555
H23_3 C21_3 1_555 1_555
H24_3 C21_3 1_555 1_555
N4_3 C22_3 1_555 1_555
C23_3 C22_3 1_555 1_555
H26_3 C23_3 1_555 1_555
C24_3 C21_3 1_555 1_555
C25_3 C24_3 1_555 1_555
H27_3 C25_3 1_555 1_555
C26_3 N4_3 1_555 1_555
H28_3 C26_3 1_555 1_555
C4_3 C5_3 1_555 1_555
C10_3 C11_3 1_555 1_555
C12_3 C13_3 1_555 1_555
C17_3 C18_3 1_555 1_555
C23_3 C24_3 1_555 1_555
C25_3 C26_3 1_555 1_555
H9_4 C8_4 1_555 1_555
H10_4 C8_4 1_555 1_555
N5 C9_4 1_555 1_555
C9_4 H11_4 1_555 1_555
C10_4 C9_4 1_555 1_555
H12_4 C10_4 1_555 1_555
C11_4 C8_4 1_555 1_555
C12_4 C11_4 1_555 1_555
H13_4 C12_4 1_555 1_555
C13_4 N5 1_555 1_555
H14_4 C13_4 1_555 1_555
C10_4 C11_4 1_555 1_555
C12_4 C13_4 1_555 1_555
Mn3_3 Cl1_4 1_555 1_555
N1_4 Mn3_3 1_555 1_555
C1_4 N1_4 1_555 1_555
H1_4 C1_4 1_555 1_555
C2_4 C1_4 1_555 1_555
H2_4 C2_4 1_555 1_555
C3_4 C2_4 1_555 1_555
C4_4 C3_4 1_555 1_555
H3_4 C4_4 1_555 1_555
C5_4 N1_4 1_555 1_555
H4_4 C5_4 1_555 1_555
C6_4 C3_4 1_555 1_555
H5_4 C6_4 1_555 1_555
H6_4 C6_4 1_555 1_555
C7_4 C6_4 1_555 1_555
H8_4 C7_4 1_555 1_555
C4_4 C5_4 1_555 1_555
Cl2_4 Mn3_4 1_555 1_555
N3_4 Mn3_4 1_555 1_555
C14_4 N3_4 1_555 1_555
H15_4 C14_4 1_555 1_555
C15_4 C14_4 1_555 1_555
H16_4 C15_4 1_555 1_555
C16_4 C15_4 1_555 1_555
C17_4 C16_4 1_555 1_555
H17_4 C17_4 1_555 1_555
C18_4 N3_4 1_555 1_555
H18_4 C18_4 1_555 1_555
C19_4 C16_4 1_555 1_555
H19_4 C19_4 1_555 1_555
H20_4 C19_4 1_555 1_555
C20_4 C19_4 1_555 1_555
H21_4 C20_4 1_555 1_555
H22_4 C20_4 1_555 1_555
C21_4 C20_4 1_555 1_555
H23_4 C21_4 1_555 1_555
H24_4 C21_4 1_555 1_555
N6 C22_4 1_555 1_555
C22_4 H25_4 1_555 1_555
C23_4 C22_4 1_555 1_555
H26_4 C23_4 1_555 1_555
C24_4 C21_4 1_555 1_555
C25_4 C24_4 1_555 1_555
H27_4 C25_4 1_555 1_555
C26_4 N6 1_555 1_555
H28_4 C26_4 1_555 1_555
C17_4 C18_4 1_555 1_555
C23_4 C24_4 1_555 1_555
C25_4 C26_4 1_555 1_555
Mn1_3 Cl1_5 1_555 1_555
Mn2 N4_4 1_555 1_555
N3_5 Mn1_3 1_555 1_555
C14_5 N3_5 1_555 1_555
H15_5 C14_5 1_555 1_555
C15_5 C14_5 1_555 1_555
H16_5 C15_5 1_555 1_555
C16_5 C15_5 1_555 1_555
C17_5 C16_5 1_555 1_555
H17_5 C17_5 1_555 1_555
C18_5 N3_5 1_555 1_555
C19_5 C16_5 1_555 1_555
H19_5 C19_5 1_555 1_555
H20_5 C19_5 1_555 1_555
C20_5 C19_5 1_555 1_555
H21_5 C20_5 1_555 1_555
H22_5 C20_5 1_555 1_555
C21_5 C20_5 1_555 1_555
H23_5 C21_5 1_555 1_555
H24_5 C21_5 1_555 1_555
N4_4 C22_5 1_555 1_555
N6_2 Mn1_3 1_555 1_555
C22_5 H25_5 1_555 1_555
C23_5 C22_5 1_555 1_555
H26_5 C23_5 1_555 1_555
C24_5 C21_5 1_555 1_555
C25_5 C24_5 1_555 1_555
H27_5 C25_5 1_555 1_555
C26_5 N4_4 1_555 1_555
H28_5 C26_5 1_555 1_555
C17_5 C18_5 1_555 1_555
C23_5 C24_5 1_555 1_555
C25_5 C26_5 1_555 1_555
N1_5 Mn1_4 1_555 1_555
C1_5 N1_5 1_555 1_555
H1_5 C1_5 1_555 1_555
C2_5 C1_5 1_555 1_555
H2_5 C2_5 1_555 1_555
C3_5 C2_5 1_555 1_555
C4_5 C3_5 1_555 1_555
H3_5 C4_5 1_555 1_555
C5_5 N1_5 1_555 1_555
C6_5 C3_5 1_555 1_555
H5_5 C6_5 1_555 1_555
H6_5 C6_5 1_555 1_555
C7_5 C6_5 1_555 1_555
H7_5 C7_5 1_555 1_555
H8_5 C7_5 1_555 1_555
C8_5 C7_5 1_555 1_555
H9_5 C8_5 1_555 1_555
H10_5 C8_5 1_555 1_555
N2_4 C9_5 1_555 1_555
C9_5 H11_5 1_555 1_555
C10_5 C9_5 1_555 1_555
H12_5 C10_5 1_555 1_555
C11_5 C8_5 1_555 1_555
C12_5 C11_5 1_555 1_555
H13_5 C12_5 1_555 1_555
C13_5 N2_4 1_555 1_555
H14_5 C13_5 1_555 1_555
Mn2 N2_4 1_555 1_555
Cl2_5 Mn1_4 1_555 1_555
N5_2 Mn1_4 1_555 1_555
C4_5 C5_5 1_555 1_555
C10_5 C11_5 1_555 1_555
C12_5 C13_5 1_555 1_555
H23_6 C21_6 1_555 1_555
H24_6 C21_6 1_555 1_555
N4_5 C22_6 1_555 1_555
C22_6 H25_6 1_555 1_555
C23_6 C22_6 1_555 1_555
H26_6 C23_6 1_555 1_555
C24_6 C21_6 1_555 1_555
C25_6 C24_6 1_555 1_555
H27_6 C25_6 1_555 1_555
C26_6 N4_5 1_555 1_555
C23_6 C24_6 1_555 1_555
C25_6 C26_6 1_555 1_555
Mn2 Cl1_6 1_555 1_555
N1_6 Mn2 1_555 1_555
C1_6 N1_6 1_555 1_555
H1_6 C1_6 1_555 1_555
C2_6 C1_6 1_555 1_555
H2_6 C2_6 1_555 1_555
C3_6 C2_6 1_555 1_555
C4_6 C3_6 1_555 1_555
H3_6 C4_6 1_555 1_555
C5_6 N1_6 1_555 1_555
H4_6 C5_6 1_555 1_555
C6_6 C3_6 1_555 1_555
H5_6 C6_6 1_555 1_555
H6_6 C6_6 1_555 1_555
C7_6 C6_6 1_555 1_555
H7_6 C7_6 1_555 1_555
H8_6 C7_6 1_555 1_555
C8_6 C7_6 1_555 1_555
H9_6 C8_6 1_555 1_555
H10_6 C8_6 1_555 1_555
N2_5 C9_6 1_555 1_555
C9_6 H11_6 1_555 1_555
C10_6 C9_6 1_555 1_555
H12_6 C10_6 1_555 1_555
C11_6 C8_6 1_555 1_555
C12_6 C11_6 1_555 1_555
H13_6 C12_6 1_555 1_555
C13_6 N2_5 1_555 1_555
Cl2_6 Mn2 1_555 1_555
N3_6 Mn2 1_555 1_555
C14_6 N3_6 1_555 1_555
H15_6 C14_6 1_555 1_555
C15_6 C14_6 1_555 1_555
H16_6 C15_6 1_555 1_555
C16_6 C15_6 1_555 1_555
C17_6 C16_6 1_555 1_555
H17_6 C17_6 1_555 1_555
C18_6 N3_6 1_555 1_555
H18_6 C18_6 1_555 1_555
C19_6 C16_6 1_555 1_555
H19_6 C19_6 1_555 1_555
H20_6 C19_6 1_555 1_555
C20_6 C19_6 1_555 1_555
H22_6 C20_6 1_555 1_555
C4_6 C5_6 1_555 1_555
C10_6 C11_6 1_555 1_555
C12_6 C13_6 1_555 1_555
C17_6 C18_6 1_555 1_555
Mn2_2 Cl1_7 1_555 1_555
N1_7 Mn2_2 1_555 1_555
C1_7 N1_7 1_555 1_555
H1_7 C1_7 1_555 1_555
C2_7 C1_7 1_555 1_555
H2_7 C2_7 1_555 1_555
C3_7 C2_7 1_555 1_555
C4_7 C3_7 1_555 1_555
H3_7 C4_7 1_555 1_555
C5_7 N1_7 1_555 1_555
H4_7 C5_7 1_555 1_555
C6_7 C3_7 1_555 1_555
H5_7 C6_7 1_555 1_555
H6_7 C6_7 1_555 1_555
C7_7 C6_7 1_555 1_555
H7_7 C7_7 1_555 1_555
H8_7 C7_7 1_555 1_555
C8_7 C7_7 1_555 1_555
H9_7 C8_7 1_555 1_555
H10_7 C8_7 1_555 1_555
N2_6 C9_7 1_555 1_555
C10_7 C9_7 1_555 1_555
H12_7 C10_7 1_555 1_555
C11_7 C8_7 1_555 1_555
C12_7 C11_7 1_555 1_555
H13_7 C12_7 1_555 1_555
C13_7 N2_6 1_555 1_555
H14_7 C13_7 1_555 1_555
Mn2_4 N4_6 1_555 1_555
Mn2_3 N2_6 1_555 1_555
Cl2_7 Mn2_2 1_555 1_555
N3_7 Mn2_2 1_555 1_555
C14_7 N3_7 1_555 1_555
H15_7 C14_7 1_555 1_555
C15_7 C14_7 1_555 1_555
H16_7 C15_7 1_555 1_555
C16_7 C15_7 1_555 1_555
C17_7 C16_7 1_555 1_555
H17_7 C17_7 1_555 1_555
C18_7 N3_7 1_555 1_555
H18_7 C18_7 1_555 1_555
C19_7 C16_7 1_555 1_555
H19_7 C19_7 1_555 1_555
H20_7 C19_7 1_555 1_555
C20_7 C19_7 1_555 1_555
H21_7 C20_7 1_555 1_555
H22_7 C20_7 1_555 1_555
C21_7 C20_7 1_555 1_555
H23_7 C21_7 1_555 1_555
H24_7 C21_7 1_555 1_555
N4_6 C22_7 1_555 1_555
C23_7 C22_7 1_555 1_555
H26_7 C23_7 1_555 1_555
C24_7 C21_7 1_555 1_555
C25_7 C24_7 1_555 1_555
H27_7 C25_7 1_555 1_555
C26_7 N4_6 1_555 1_555
H28_7 C26_7 1_555 1_555
C4_7 C5_7 1_555 1_555
C10_7 C11_7 1_555 1_555
C12_7 C13_7 1_555 1_555
C17_7 C18_7 1_555 1_555
C23_7 C24_7 1_555 1_555
C25_7 C26_7 1_555 1_555
Cl2_8 Mn2_3 1_555 1_555
N3_8 Mn2_3 1_555 1_555
C14_8 N3_8 1_555 1_555
H15_8 C14_8 1_555 1_555
C15_8 C14_8 1_555 1_555
H16_8 C15_8 1_555 1_555
C16_8 C15_8 1_555 1_555
C17_8 C16_8 1_555 1_555
H17_8 C17_8 1_555 1_555
C18_8 N3_8 1_555 1_555
H18_8 C18_8 1_555 1_555
C19_8 C16_8 1_555 1_555
H19_8 C19_8 1_555 1_555
H20_8 C19_8 1_555 1_555
C20_8 C19_8 1_555 1_555
H21_8 C20_8 1_555 1_555
H22_8 C20_8 1_555 1_555
C21_8 C20_8 1_555 1_555
H23_8 C21_8 1_555 1_555
H24_8 C21_8 1_555 1_555
N6_2 C22_8 1_555 1_555
C22_8 H25_8 1_555 1_555
C23_8 C22_8 1_555 1_555
H26_8 C23_8 1_555 1_555
C24_8 C21_8 1_555 1_555
C25_8 C24_8 1_555 1_555
H27_8 C25_8 1_555 1_555
C26_8 N6_2 1_555 1_555
H28_8 C26_8 1_555 1_555
C17_8 C18_8 1_555 1_555
C23_8 C24_8 1_555 1_555
C25_8 C26_8 1_555 1_555
Mn2_4 Cl1_8 1_555 1_555
N1_8 Mn2_4 1_555 1_555
C1_8 N1_8 1_555 1_555
H1_8 C1_8 1_555 1_555
C2_8 C1_8 1_555 1_555
H2_8 C2_8 1_555 1_555
C3_8 C2_8 1_555 1_555
C4_8 C3_8 1_555 1_555
H3_8 C4_8 1_555 1_555
C5_8 N1_8 1_555 1_555
H4_8 C5_8 1_555 1_555
C6_8 C3_8 1_555 1_555
H5_8 C6_8 1_555 1_555
H6_8 C6_8 1_555 1_555
C7_8 C6_8 1_555 1_555
H8_8 C7_8 1_555 1_555
C4_8 C5_8 1_555 1_555
H9_8 C8_8 1_555 1_555
H10_8 C8_8 1_555 1_555
N5_2 C9_8 1_555 1_555
C9_8 H11_8 1_555 1_555
C10_8 C9_8 1_555 1_555
H12_8 C10_8 1_555 1_555
C11_8 C8_8 1_555 1_555
C12_8 C11_8 1_555 1_555
H13_8 C12_8 1_555 1_555
C13_8 N5_2 1_555 1_555
H14_8 C13_8 1_555 1_555
C10_8 C11_8 1_555 1_555
C12_8 C13_8 1_555 1_555
Mn4 Cl3 1_555 1_555
N7 C27 1_555 1_555
C28 C27 1_555 1_555
H30 C28 1_555 1_555
C29 C28 1_555 1_555
C30 C29 1_555 1_555
H31 C30 1_555 1_555
C31 N7 1_555 1_555
H32 C31 1_555 1_555
C32 C29 1_555 1_555
H33 C32 1_555 1_555
H34 C32 1_555 1_555
C33 C32 1_555 1_555
H35 C33 1_555 1_555
H36 C33 1_555 1_555
C34 C33 1_555 1_555
H37 C34 1_555 1_555
H38 C34 1_555 1_555
N8 Mn4 1_555 1_555
C35 N8 1_555 1_555
H39 C35 1_555 1_555
C36 C35 1_555 1_555
H40 C36 1_555 1_555
C37 C34 1_555 1_555
C38 C37 1_555 1_555
H41 C38 1_555 1_555
C39 N8 1_555 1_555
H42 C39 1_555 1_555
Mn6 N7 1_555 1_555
Mn6_2 N9 1_555 1_555
Cl4 Mn4 1_555 1_555
N9 C40 1_555 1_555
N10 Mn4 1_555 1_555
N11 Mn4 1_555 1_555
C41 C40 1_555 1_555
H44 C41 1_555 1_555
C42 C41 1_555 1_555
C43 C42 1_555 1_555
H45 C43 1_555 1_555
C44 N9 1_555 1_555
H46 C44 1_555 1_555
C45 C42 1_555 1_555
H47 C45 1_555 1_555
H48 C45 1_555 1_555
C46 C45 1_555 1_555
H49 C46 1_555 1_555
H50 C46 1_555 1_555
C47 C46 1_555 1_555
H51 C47 1_555 1_555
H52 C47 1_555 1_555
N12 Mn4 1_555 1_555
C48 N12 1_555 1_555
H53 C48 1_555 1_555
C49 C48 1_555 1_555
H54 C49 1_555 1_555
C50 C47 1_555 1_555
C51 C50 1_555 1_555
H55 C51 1_555 1_555
C52 N12 1_555 1_555
H56 C52 1_555 1_555
C30 C31 1_555 1_555
C36 C37 1_555 1_555
C38 C39 1_555 1_555
C43 C44 1_555 1_555
C49 C50 1_555 1_555
C51 C52 1_555 1_555
N11 C40_2 1_555 1_555
C40_2 H43_2 1_555 1_555
C41_2 C40_2 1_555 1_555
H44_2 C41_2 1_555 1_555
C42_2 C41_2 1_555 1_555
C43_2 C42_2 1_555 1_555
H45_2 C43_2 1_555 1_555
C44_2 N11 1_555 1_555
H46_2 C44_2 1_555 1_555
C45_2 C42_2 1_555 1_555
H47_2 C45_2 1_555 1_555
H48_2 C45_2 1_555 1_555
C43_2 C44_2 1_555 1_555
Mn4_2 Cl3_2 1_555 1_555
N10 C27_2 1_555 1_555
C27_2 H29_2 1_555 1_555
C28_2 C27_2 1_555 1_555
H30_2 C28_2 1_555 1_555
C29_2 C28_2 1_555 1_555
C30_2 C29_2 1_555 1_555
H31_2 C30_2 1_555 1_555
C31_2 N10 1_555 1_555
H32_2 C31_2 1_555 1_555
C32_2 C29_2 1_555 1_555
H33_2 C32_2 1_555 1_555
H34_2 C32_2 1_555 1_555
C33_2 C32_2 1_555 1_555
H35_2 C33_2 1_555 1_555
H36_2 C33_2 1_555 1_555
C34_2 C33_2 1_555 1_555
H37_2 C34_2 1_555 1_555
H38_2 C34_2 1_555 1_555
N8_2 Mn4_2 1_555 1_555
C35_2 N8_2 1_555 1_555
H39_2 C35_2 1_555 1_555
C36_2 C35_2 1_555 1_555
H40_2 C36_2 1_555 1_555
C37_2 C34_2 1_555 1_555
C38_2 C37_2 1_555 1_555
H41_2 C38_2 1_555 1_555
C39_2 N8_2 1_555 1_555
H42_2 C39_2 1_555 1_555
Cl4_2 Mn4_2 1_555 1_555
N10_2 Mn4_2 1_555 1_555
N11_2 Mn4_2 1_555 1_555
H49_2 C46_2 1_555 1_555
C47_2 C46_2 1_555 1_555
H51_2 C47_2 1_555 1_555
H52_2 C47_2 1_555 1_555
N12_2 Mn4_2 1_555 1_555
C48_2 N12_2 1_555 1_555
H53_2 C48_2 1_555 1_555
C49_2 C48_2 1_555 1_555
H54_2 C49_2 1_555 1_555
C50_2 C47_2 1_555 1_555
C51_2 C50_2 1_555 1_555
H55_2 C51_2 1_555 1_555
C52_2 N12_2 1_555 1_555
H56_2 C52_2 1_555 1_555
C30_2 C31_2 1_555 1_555
C36_2 C37_2 1_555 1_555
C38_2 C39_2 1_555 1_555
C49_2 C50_2 1_555 1_555
C51_2 C52_2 1_555 1_555
Mn4_3 Cl3_3 1_555 1_555
N11_3 Mn4_3 1_555 1_555
N12_3 Mn4_3 1_555 1_555
C48_3 N12_3 1_555 1_555
H53_3 C48_3 1_555 1_555
C49_3 C48_3 1_555 1_555
H54_3 C49_3 1_555 1_555
C51_3 C50_3 1_555 1_555
C52_3 N12_3 1_555 1_555
C49_3 C50_3 1_555 1_555
C51_3 C52_3 1_555 1_555
N10_2 C40_3 1_555 1_555
C40_3 H43_3 1_555 1_555
C41_3 C40_3 1_555 1_555
H44_3 C41_3 1_555 1_555
C42_3 C41_3 1_555 1_555
C43_3 C42_3 1_555 1_555
H45_3 C43_3 1_555 1_555
C44_3 N10_2 1_555 1_555
H46_3 C44_3 1_555 1_555
C45_3 C42_3 1_555 1_555
H47_3 C45_3 1_555 1_555
H48_3 C45_3 1_555 1_555
C46_3 C45_3 1_555 1_555
H49_3 C46_3 1_555 1_555
H50_3 C46_3 1_555 1_555
C47_3 C46_3 1_555 1_555
H51_3 C47_3 1_555 1_555
C43_3 C44_3 1_555 1_555
N8_3 Mn4_4 1_555 1_555
C35_3 N8_3 1_555 1_555
H39_3 C35_3 1_555 1_555
C36_3 C35_3 1_555 1_555
H40_3 C36_3 1_555 1_555
C38_3 C37_3 1_555 1_555
C39_3 N8_3 1_555 1_555
Cl4_3 Mn4_4 1_555 1_555
N10_3 Mn4_4 1_555 1_555
C36_3 C37_3 1_555 1_555
C38_3 C39_3 1_555 1_555
N11_2 C27_3 1_555 1_555
C27_3 H29_3 1_555 1_555
C28_3 C27_3 1_555 1_555
H30_3 C28_3 1_555 1_555
C29_3 C28_3 1_555 1_555
C30_3 C29_3 1_555 1_555
H31_3 C30_3 1_555 1_555
C31_3 N11_2 1_555 1_555
H32_3 C31_3 1_555 1_555
C32_3 C29_3 1_555 1_555
H33_3 C32_3 1_555 1_555
H34_3 C32_3 1_555 1_555
C33_3 C32_3 1_555 1_555
H35_3 C33_3 1_555 1_555
H36_3 C33_3 1_555 1_555
C34_3 C33_3 1_555 1_555
H37_3 C34_3 1_555 1_555
C30_3 C31_3 1_555 1_555
Cl4_4 Mn6 1_555 1_555
N11_3 C40_4 1_555 1_555
C40_4 H43_4 1_555 1_555
C41_4 C40_4 1_555 1_555
H44_4 C41_4 1_555 1_555
C42_4 C41_4 1_555 1_555
C43_4 C42_4 1_555 1_555
H45_4 C43_4 1_555 1_555
C44_4 N11_3 1_555 1_555
H46_4 C44_4 1_555 1_555
C45_4 C42_4 1_555 1_555
H47_4 C45_4 1_555 1_555
H48_4 C45_4 1_555 1_555
C46_4 C45_4 1_555 1_555
H49_4 C46_4 1_555 1_555
H50_4 C46_4 1_555 1_555
C47_4 C46_4 1_555 1_555
H51_4 C47_4 1_555 1_555
H52_4 C47_4 1_555 1_555
N12_4 Mn6 1_555 1_555
C48_4 N12_4 1_555 1_555
H53_4 C48_4 1_555 1_555
C49_4 C48_4 1_555 1_555
H54_4 C49_4 1_555 1_555
C50_4 C47_4 1_555 1_555
C51_4 C50_4 1_555 1_555
H55_4 C51_4 1_555 1_555
C52_4 N12_4 1_555 1_555
H56_4 C52_4 1_555 1_555
C43_4 C44_4 1_555 1_555
C49_4 C50_4 1_555 1_555
C51_4 C52_4 1_555 1_555
Mn6_2 Cl3_4 1_555 1_555
H35_4 C33_4 1_555 1_555
C34_4 C33_4 1_555 1_555
H37_4 C34_4 1_555 1_555
H38_4 C34_4 1_555 1_555
N8_4 Mn6_2 1_555 1_555
C35_4 N8_4 1_555 1_555
H39_4 C35_4 1_555 1_555
C36_4 C35_4 1_555 1_555
H40_4 C36_4 1_555 1_555
C37_4 C34_4 1_555 1_555
C38_4 C37_4 1_555 1_555
H41_4 C38_4 1_555 1_555
C39_4 N8_4 1_555 1_555
H42_4 C39_4 1_555 1_555
C36_4 C37_4 1_555 1_555
C38_4 C39_4 1_555 1_555
N10_3 C27_4 1_555 1_555
C27_4 H29_4 1_555 1_555
C28_4 C27_4 1_555 1_555
H30_4 C28_4 1_555 1_555
C29_4 C28_4 1_555 1_555
C30_4 C29_4 1_555 1_555
H31_4 C30_4 1_555 1_555
C31_4 N10_3 1_555 1_555
H32_4 C31_4 1_555 1_555
C32_4 C29_4 1_555 1_555
H33_4 C32_4 1_555 1_555
H34_4 C32_4 1_555 1_555
C30_4 C31_4 1_555 1_555
Mn4_5 Cl3_5 1_555 1_555
N7_2 C27_5 1_555 1_555
C28_5 C27_5 1_555 1_555
H30_5 C28_5 1_555 1_555
C29_5 C28_5 1_555 1_555
C30_5 C29_5 1_555 1_555
H31_5 C30_5 1_555 1_555
C31_5 N7_2 1_555 1_555
H32_5 C31_5 1_555 1_555
C32_5 C29_5 1_555 1_555
H33_5 C32_5 1_555 1_555
H34_5 C32_5 1_555 1_555
C33_5 C32_5 1_555 1_555
H35_5 C33_5 1_555 1_555
H36_5 C33_5 1_555 1_555
C34_5 C33_5 1_555 1_555
H37_5 C34_5 1_555 1_555
H38_5 C34_5 1_555 1_555
N8_5 Mn4_5 1_555 1_555
C35_5 N8_5 1_555 1_555
H39_5 C35_5 1_555 1_555
C36_5 C35_5 1_555 1_555
H40_5 C36_5 1_555 1_555
C37_5 C34_5 1_555 1_555
C38_5 C37_5 1_555 1_555
H41_5 C38_5 1_555 1_555
C39_5 N8_5 1_555 1_555
H42_5 C39_5 1_555 1_555
Mn5_2 N7_2 1_555 1_555
Mn5 N9_2 1_555 1_555
Cl4_5 Mn4_5 1_555 1_555
N9_2 C40_5 1_555 1_555
N10_4 Mn4_5 1_555 1_555
N11_4 Mn4_5 1_555 1_555
C41_5 C40_5 1_555 1_555
H44_5 C41_5 1_555 1_555
C42_5 C41_5 1_555 1_555
C43_5 C42_5 1_555 1_555
H45_5 C43_5 1_555 1_555
C44_5 N9_2 1_555 1_555
H46_5 C44_5 1_555 1_555
C45_5 C42_5 1_555 1_555
H47_5 C45_5 1_555 1_555
H48_5 C45_5 1_555 1_555
C46_5 C45_5 1_555 1_555
H49_5 C46_5 1_555 1_555
H50_5 C46_5 1_555 1_555
C47_5 C46_5 1_555 1_555
H51_5 C47_5 1_555 1_555
H52_5 C47_5 1_555 1_555
N12_5 Mn4_5 1_555 1_555
C48_5 N12_5 1_555 1_555
H53_5 C48_5 1_555 1_555
C49_5 C48_5 1_555 1_555
H54_5 C49_5 1_555 1_555
C50_5 C47_5 1_555 1_555
C51_5 C50_5 1_555 1_555
H55_5 C51_5 1_555 1_555
C52_5 N12_5 1_555 1_555
H56_5 C52_5 1_555 1_555
C30_5 C31_5 1_555 1_555
C36_5 C37_5 1_555 1_555
C38_5 C39_5 1_555 1_555
C43_5 C44_5 1_555 1_555
C49_5 C50_5 1_555 1_555
C51_5 C52_5 1_555 1_555
Mn4_6 Cl3_6 1_555 1_555
N10_4 C27_6 1_555 1_555
C27_6 H29_6 1_555 1_555
C28_6 C27_6 1_555 1_555
H30_6 C28_6 1_555 1_555
C29_6 C28_6 1_555 1_555
C30_6 C29_6 1_555 1_555
H31_6 C30_6 1_555 1_555
C31_6 N10_4 1_555 1_555
H32_6 C31_6 1_555 1_555
C32_6 C29_6 1_555 1_555
H33_6 C32_6 1_555 1_555
H34_6 C32_6 1_555 1_555
C33_6 C32_6 1_555 1_555
H35_6 C33_6 1_555 1_555
H36_6 C33_6 1_555 1_555
C34_6 C33_6 1_555 1_555
H37_6 C34_6 1_555 1_555
H38_6 C34_6 1_555 1_555
N8_6 Mn4_6 1_555 1_555
C35_6 N8_6 1_555 1_555
H39_6 C35_6 1_555 1_555
C36_6 C35_6 1_555 1_555
H40_6 C36_6 1_555 1_555
C37_6 C34_6 1_555 1_555
C38_6 C37_6 1_555 1_555
H41_6 C38_6 1_555 1_555
C39_6 N8_6 1_555 1_555
H42_6 C39_6 1_555 1_555
Cl4_6 Mn4_6 1_555 1_555
N10_5 Mn4_6 1_555 1_555
N11_5 Mn4_6 1_555 1_555
H49_6 C46_6 1_555 1_555
C47_6 C46_6 1_555 1_555
H51_6 C47_6 1_555 1_555
H52_6 C47_6 1_555 1_555
N12_6 Mn4_6 1_555 1_555
C48_6 N12_6 1_555 1_555
H53_6 C48_6 1_555 1_555
C49_6 C48_6 1_555 1_555
H54_6 C49_6 1_555 1_555
C50_6 C47_6 1_555 1_555
C51_6 C50_6 1_555 1_555
H55_6 C51_6 1_555 1_555
C52_6 N12_6 1_555 1_555
H56_6 C52_6 1_555 1_555
C30_6 C31_6 1_555 1_555
C36_6 C37_6 1_555 1_555
C38_6 C39_6 1_555 1_555
C49_6 C50_6 1_555 1_555
C51_6 C52_6 1_555 1_555
N11_4 C40_6 1_555 1_555
C40_6 H43_6 1_555 1_555
C41_6 C40_6 1_555 1_555
H44_6 C41_6 1_555 1_555
C42_6 C41_6 1_555 1_555
C43_6 C42_6 1_555 1_555
H45_6 C43_6 1_555 1_555
C44_6 N11_4 1_555 1_555
H46_6 C44_6 1_555 1_555
C45_6 C42_6 1_555 1_555
H47_6 C45_6 1_555 1_555
H48_6 C45_6 1_555 1_555
C43_6 C44_6 1_555 1_555
N11_5 C27_7 1_555 1_555
C27_7 H29_7 1_555 1_555
C28_7 C27_7 1_555 1_555
H30_7 C28_7 1_555 1_555
C29_7 C28_7 1_555 1_555
C30_7 C29_7 1_555 1_555
H31_7 C30_7 1_555 1_555
C31_7 N11_5 1_555 1_555
H32_7 C31_7 1_555 1_555
C32_7 C29_7 1_555 1_555
H33_7 C32_7 1_555 1_555
H34_7 C32_7 1_555 1_555
C33_7 C32_7 1_555 1_555
H35_7 C33_7 1_555 1_555
H36_7 C33_7 1_555 1_555
C34_7 C33_7 1_555 1_555
H37_7 C34_7 1_555 1_555
C30_7 C31_7 1_555 1_555
N8_7 Mn4_7 1_555 1_555
C35_7 N8_7 1_555 1_555
H39_7 C35_7 1_555 1_555
C36_7 C35_7 1_555 1_555
H40_7 C36_7 1_555 1_555
C38_7 C37_7 1_555 1_555
C39_7 N8_7 1_555 1_555
Cl4_7 Mn4_7 1_555 1_555
N10_6 Mn4_7 1_555 1_555
C36_7 C37_7 1_555 1_555
C38_7 C39_7 1_555 1_555
N10_5 C40_7 1_555 1_555
C40_7 H43_7 1_555 1_555
C41_7 C40_7 1_555 1_555
H44_7 C41_7 1_555 1_555
C42_7 C41_7 1_555 1_555
C43_7 C42_7 1_555 1_555
H45_7 C43_7 1_555 1_555
C44_7 N10_5 1_555 1_555
H46_7 C44_7 1_555 1_555
C45_7 C42_7 1_555 1_555
H47_7 C45_7 1_555 1_555
H48_7 C45_7 1_555 1_555
C46_7 C45_7 1_555 1_555
H49_7 C46_7 1_555 1_555
H50_7 C46_7 1_555 1_555
C47_7 C46_7 1_555 1_555
H51_7 C47_7 1_555 1_555
C43_7 C44_7 1_555 1_555
Mn4_8 Cl3_7 1_555 1_555
N11_6 Mn4_8 1_555 1_555
N12_7 Mn4_8 1_555 1_555
C48_7 N12_7 1_555 1_555
H53_7 C48_7 1_555 1_555
C49_7 C48_7 1_555 1_555
H54_7 C49_7 1_555 1_555
C51_7 C50_7 1_555 1_555
C52_7 N12_7 1_555 1_555
C49_7 C50_7 1_555 1_555
C51_7 C52_7 1_555 1_555
N10_6 C27_8 1_555 1_555
C27_8 H29_8 1_555 1_555
C28_8 C27_8 1_555 1_555
H30_8 C28_8 1_555 1_555
C29_8 C28_8 1_555 1_555
C30_8 C29_8 1_555 1_555
H31_8 C30_8 1_555 1_555
C31_8 N10_6 1_555 1_555
H32_8 C31_8 1_555 1_555
C32_8 C29_8 1_555 1_555
H33_8 C32_8 1_555 1_555
H34_8 C32_8 1_555 1_555
C30_8 C31_8 1_555 1_555
Mn5 Cl3_8 1_555 1_555
H35_8 C33_8 1_555 1_555
C34_8 C33_8 1_555 1_555
H37_8 C34_8 1_555 1_555
H38_8 C34_8 1_555 1_555
N8_8 Mn5 1_555 1_555
C35_8 N8_8 1_555 1_555
H39_8 C35_8 1_555 1_555
C36_8 C35_8 1_555 1_555
H40_8 C36_8 1_555 1_555
C37_8 C34_8 1_555 1_555
C38_8 C37_8 1_555 1_555
H41_8 C38_8 1_555 1_555
C39_8 N8_8 1_555 1_555
H42_8 C39_8 1_555 1_555
C36_8 C37_8 1_555 1_555
C38_8 C39_8 1_555 1_555
Cl4_8 Mn5_2 1_555 1_555
N11_6 C40_8 1_555 1_555
C40_8 H43_8 1_555 1_555
C41_8 C40_8 1_555 1_555
H44_8 C41_8 1_555 1_555
C42_8 C41_8 1_555 1_555
C43_8 C42_8 1_555 1_555
H45_8 C43_8 1_555 1_555
C44_8 N11_6 1_555 1_555
H46_8 C44_8 1_555 1_555
C45_8 C42_8 1_555 1_555
H47_8 C45_8 1_555 1_555
H48_8 C45_8 1_555 1_555
C46_8 C45_8 1_555 1_555
H49_8 C46_8 1_555 1_555
H50_8 C46_8 1_555 1_555
C47_8 C46_8 1_555 1_555
H51_8 C47_8 1_555 1_555
H52_8 C47_8 1_555 1_555
N12_8 Mn5_2 1_555 1_555
C48_8 N12_8 1_555 1_555
H53_8 C48_8 1_555 1_555
C49_8 C48_8 1_555 1_555
H54_8 C49_8 1_555 1_555
C50_8 C47_8 1_555 1_555
C51_8 C50_8 1_555 1_555
H55_8 C51_8 1_555 1_555
C52_8 N12_8 1_555 1_555
H56_8 C52_8 1_555 1_555
C43_8 C44_8 1_555 1_555
C49_8 C50_8 1_555 1_555
C51_8 C52_8 1_555 1_555

#END
