
###############################################################################
#
# This file contains modified crystal structure data generated from the
# MOF subset of the Cambridge Structural Database (CSD) v543 
# hosted by the Cambridge Crystallographic Data Centre (CCDC).
#
# This work is licensed under the Creative Commons
# Attribution-NonCommercial-ShareAlike 4.0 International License.
# To view a copy of this license, visit
# http://creativecommons.org/licenses/by-nc-sa/4.0/
# or send a letter to
# Creative Commons, PO Box 1866, Mountain View, CA 94042, USA.
#
# CIF created using the CSD Python API on 29 September 2022
# The structure has been converted into the P1 space group
# The structure has a 3D framework
# The original CSD entry CUQRIR is in the monoclinic crystal system
# The framework has been calculated to contain at least 10.0% void space
# The void calculation uses a probe of radius 1.32A, grid spacing 0.4
#
###############################################################################

data_CUQRIR
_chemical_formula_moiety         '(C96 H88 N20 O16 Zn8)n'
_symmetry_cell_setting           triclinic
_symmetry_space_group_name_H-M   'P 1'
_symmetry_Int_Tables_number      1
_space_group_name_Hall           'P 1'
loop_
_symmetry_equiv_pos_site_id
_symmetry_equiv_pos_as_xyz
1 x,y,z
_cell_length_a                   39.356(13)
_cell_length_b                   9.332(3)
_cell_length_c                   9.842(3)
_cell_angle_alpha                90
_cell_angle_beta                 101.864(4)
_cell_angle_gamma                90
_cell_volume                     3537.46
loop_
_atom_site_label
_atom_site_type_symbol
_atom_site_fract_x
_atom_site_fract_y
_atom_site_fract_z
Zn1 Zn 0.21419(2) 0.31089(4) 0.08561(4)
N1 N 0.24832(8) 0.1524(4) 0.1514(3)
N2 N 0.27597(8) 0.1155(3) 0.0938(3)
O1 O 0.16600(8) 0.2710(4) 0.0823(4)
C1 C 0.15240(14) 0.1707(6) 0.0102(9)
C2 C 0.11553(12) 0.1354(6) 0.0140(7)
C3 C 0.09809(17) 0.2111(11) 0.0905(9)
H1 H 0.1087 0.2885 0.1417
C6 C 0.0640(2) 0.1762(14) 0.0952(11)
H4 H 0.0531 0.2285 0.1545
C7 C 0.04629(15) 0.0738(8) 0.0211(8)
C8 C 0.00985(17) 0.0470(9) 0.0274(9)
H5 H 0.0004 0.1114 0.0814
C9 C 0.29185(10) 0.0084(4) 0.1680(4)
H8 H 0.3349 0.0048 0.0865
C11 C 0.24892(9) 0.0655(4) 0.2560(4)
C12 C 0.22331(14) 0.0723(7) 0.3477(6)
H9 H 0.2345 0.1077 0.4373
H11 H 0.2047 0.1353 0.3076
N9 N 0.22429(8) 0.4731(3) 0.2284(3)
O2 O 0.16866(16) 0.0976(11) 0.9508(14)
C4 C 0.0991(2) 0.0239(13) 0.9429(18)
Zn5 Zn 0.28581(2) 0.18911(4) 0.91439(4)
N8 N 0.22403(8) 0.3845(3) 0.9062(3)
N3 N 0.27571(8) 0.9731(3) 0.2716(3)
C10 C 0.32344(13) 0.9394(6) 0.1375(5)
H6 H 0.3170 0.8544 0.0833
H7 H 0.3389 0.9143 0.2231
H10 H 0.2143 0.9781 0.3574
Zn4 Zn 0.28581(2) 0.81089(4) 0.41439(4)
N6 N 0.72429(8) 0.0269(3) 0.7284(3)
C22 C 0.67656(13) 0.0606(6) 0.8625(5)
H17 H 0.6830 0.1456 0.9167
H18 H 0.6611 0.0857 0.7769
H21 H 0.7857 0.0219 0.6426
Zn6 Zn 0.71419(2) 0.18911(4) 0.58561(4)
O4 O 0.83134(16) 0.9024(11) 0.0492(14)
C16 C 0.9009(2) 0.9761(13) 0.0571(18)
Zn3 Zn 0.71419(2) 0.81089(4) 0.08561(4)
N7 N 0.77597(8) 0.6155(3) 0.0938(3)
O3 O 0.83400(8) 0.7290(4) 0.9177(4)
C13 C 0.84760(14) 0.8293(6) 0.9898(9)
C14 C 0.88447(12) 0.8646(6) 0.9860(7)
C15 C 0.90191(17) 0.7889(11) 0.9095(9)
H12 H 0.8913 0.7115 0.8583
C18 C 0.9360(2) 0.8238(14) 0.9048(11)
H15 H 0.9469 0.7715 0.8455
C19 C 0.95371(15) 0.9262(8) 0.9789(8)
C20 C 0.99015(17) 0.9530(9) 0.9726(9)
H16 H 0.9996 0.8886 0.9186
Zn2 Zn 0.78581(2) 0.68911(4) 0.91439(4)
N4 N 0.75168(8) 0.8476(4) 0.8486(3)
N5 N 0.72403(8) 0.8845(3) 0.9062(3)
C21 C 0.70815(10) 0.9916(4) 0.8320(4)
H19 H 0.6651 0.9952 0.9135
C23 C 0.75108(9) 0.9345(4) 0.7440(4)
C24 C 0.77669(14) 0.9277(7) 0.6523(6)
H20 H 0.7655 0.8923 0.5627
H22 H 0.7953 0.8647 0.6924
N10 N 0.77571(8) 0.5269(3) 0.7716(3)
H13 H 0.1109 0.0346 0.3915
C17 C 0.0640(2) 0.0052(11) 0.4457(15)
H14 H 0.0529 0.0813 0.3938
N6_2 N 0.27571(8) 0.0269(3) 0.7716(3)
C22_2 C 0.32344(13) 0.0606(6) 0.6375(5)
H17_2 H 0.3170 0.1456 0.5833
H18_2 H 0.3389 0.0857 0.7231
H21_2 H 0.2143 0.0219 0.8574
O3_2 O 0.16600(8) 0.7290(4) 0.5823(4)
O4_2 O 0.16866(16) 0.9024(11) 0.4508(14)
C13_2 C 0.15240(14) 0.8293(6) 0.5102(9)
C14_2 C 0.11553(12) 0.8646(6) 0.5140(7)
C15_2 C 0.09809(17) 0.7889(11) 0.5905(9)
H12_2 H 0.1087 0.7115 0.6417
C16_2 C 0.0991(2) 0.9761(13) 0.4429(18)
C18_2 C 0.0640(2) 0.8238(14) 0.5952(11)
H15_2 H 0.0531 0.7715 0.6545
C19_2 C 0.04629(15) 0.9262(8) 0.5211(8)
C20_2 C 0.00985(17) 0.9530(9) 0.5274(9)
H16_2 H 0.0004 0.8886 0.5814
Zn2_2 Zn 0.21419(2) 0.68911(4) 0.58561(4)
N4_2 N 0.24832(8) 0.8476(4) 0.6514(3)
N5_2 N 0.27597(8) 0.8845(3) 0.5938(3)
C21_2 C 0.29185(10) 0.9916(4) 0.6680(4)
H19_2 H 0.3349 0.9952 0.5865
C23_2 C 0.24892(9) 0.9345(4) 0.7560(4)
C24_2 C 0.22331(14) 0.9277(7) 0.8477(6)
H20_2 H 0.2345 0.8923 0.9373
H22_2 H 0.2047 0.8647 0.8076
N7_2 N 0.22403(8) 0.6155(3) 0.4062(3)
N10_2 N 0.22429(8) 0.5269(3) 0.7284(3)
Zn1_2 Zn 0.78581(2) 0.31089(4) 0.41439(4)
N1_2 N 0.75168(8) 0.1524(4) 0.3486(3)
N2_2 N 0.72403(8) 0.1155(3) 0.4062(3)
O1_2 O 0.83400(8) 0.2710(4) 0.4177(4)
O2_2 O 0.83134(16) 0.0976(11) 0.5492(14)
C1_2 C 0.84760(14) 0.1707(6) 0.4898(9)
C2_2 C 0.88447(12) 0.1354(6) 0.4860(7)
C3_2 C 0.90191(17) 0.2111(11) 0.4095(9)
H1_2 H 0.8913 0.2885 0.3583
C4_2 C 0.9009(2) 0.0239(13) 0.5571(18)
C6_2 C 0.9360(2) 0.1762(14) 0.4048(11)
H4_2 H 0.9469 0.2285 0.3455
C7_2 C 0.95371(15) 0.0738(8) 0.4789(8)
C8_2 C 0.99015(17) 0.0470(9) 0.4726(9)
H5_2 H 0.9996 0.1114 0.4186
C9_2 C 0.70815(10) 0.0084(4) 0.3320(4)
H8_2 H 0.6651 0.0048 0.4135
C11_2 C 0.75108(9) 0.0655(4) 0.2440(4)
C12_2 C 0.77669(14) 0.0723(7) 0.1523(6)
H9_2 H 0.7655 0.1077 0.0627
H11_2 H 0.7953 0.1353 0.1924
N8_2 N 0.77597(8) 0.3845(3) 0.5938(3)
N9_2 N 0.77571(8) 0.4731(3) 0.2716(3)
N3_2 N 0.72429(8) 0.9731(3) 0.2284(3)
H2 H 0.8891 0.9654 0.6085
C5 C 0.9360(2) 0.9948(11) 0.5543(15)
H3 H 0.9471 0.9187 0.6062
C10_2 C 0.67656(13) 0.9394(6) 0.3625(5)
H6_2 H 0.6830 0.8544 0.4167
H7_2 H 0.6611 0.9143 0.2769
H10_2 H 0.7857 0.9781 0.1426
N1_3 N 0.74832(8) 0.6524(4) 0.1514(3)
O1_3 O 0.66600(8) 0.7710(4) 0.0823(4)
C1_3 C 0.65240(14) 0.6707(6) 0.0102(9)
C2_3 C 0.61553(12) 0.6354(6) 0.0140(7)
C3_3 C 0.59809(17) 0.7111(11) 0.0905(9)
H1_3 H 0.6087 0.7885 0.1417
C6_3 C 0.5640(2) 0.6762(14) 0.0952(11)
H4_3 H 0.5531 0.7285 0.1545
C7_3 C 0.54629(15) 0.5738(8) 0.0211(8)
C8_3 C 0.50985(17) 0.5470(9) 0.0274(9)
H5_3 H 0.5004 0.6114 0.0814
C9_3 C 0.79185(10) 0.5084(4) 0.1680(4)
C10_3 C 0.82344(13) 0.4394(6) 0.1375(5)
H6_3 H 0.8170 0.3544 0.0833
H7_3 H 0.8389 0.4143 0.2231
H8_3 H 0.8349 0.5048 0.0865
C11_3 C 0.74892(9) 0.5655(4) 0.2560(4)
C12_3 C 0.72331(14) 0.5723(7) 0.3477(6)
H9_3 H 0.7345 0.6077 0.4373
H10_3 H 0.7143 0.4781 0.3574
H11_3 H 0.7047 0.6353 0.3076
O4_3 O 0.33134(16) 0.4024(11) 0.0492(14)
C16_3 C 0.4009(2) 0.4761(13) 0.0571(18)
H13_2 H 0.3891 0.5346 0.1085
C17_2 C 0.4360(2) 0.5052(11) 0.0543(15)
H14_2 H 0.4471 0.5813 0.1062
O2_3 O 0.66866(16) 0.5976(11) 0.9508(14)
C4_3 C 0.5991(2) 0.5239(13) 0.9429(18)
H2_2 H 0.6109 0.4654 0.8915
C5_2 C 0.5640(2) 0.4948(11) 0.9457(15)
H3_2 H 0.5529 0.4187 0.8938
O3_3 O 0.33400(8) 0.2290(4) 0.9177(4)
C13_3 C 0.34760(14) 0.3293(6) 0.9898(9)
C14_3 C 0.38447(12) 0.3646(6) 0.9860(7)
C15_3 C 0.40191(17) 0.2889(11) 0.9095(9)
H12_3 H 0.3913 0.2115 0.8583
C18_3 C 0.4360(2) 0.3238(14) 0.9048(11)
H15_3 H 0.4469 0.2715 0.8455
C19_3 C 0.45371(15) 0.4262(8) 0.9789(8)
C20_3 C 0.49015(17) 0.4530(9) 0.9726(9)
H16_3 H 0.4996 0.3886 0.9186
N4_3 N 0.25168(8) 0.3476(4) 0.8486(3)
C21_3 C 0.20815(10) 0.4916(4) 0.8320(4)
C22_3 C 0.17656(13) 0.5606(6) 0.8625(5)
H17_3 H 0.1830 0.6456 0.9167
H18_3 H 0.1611 0.5857 0.7769
H19_3 H 0.1651 0.4952 0.9135
C23_3 C 0.25108(9) 0.4345(4) 0.7440(4)
C24_3 C 0.27669(14) 0.4277(7) 0.6523(6)
H20_3 H 0.2655 0.3923 0.5627
H21_3 H 0.2857 0.5219 0.6426
H22_3 H 0.2953 0.3647 0.6924
N1_4 N 0.25168(8) 0.6524(4) 0.3486(3)
O1_4 O 0.33400(8) 0.7710(4) 0.4177(4)
O2_4 O 0.33134(16) 0.5976(11) 0.5492(14)
C1_4 C 0.34760(14) 0.6707(6) 0.4898(9)
C2_4 C 0.38447(12) 0.6354(6) 0.4860(7)
C3_4 C 0.40191(17) 0.7111(11) 0.4095(9)
H1_4 H 0.3913 0.7885 0.3583
C4_4 C 0.4009(2) 0.5239(13) 0.5571(18)
H2_3 H 0.3891 0.4654 0.6085
C5_3 C 0.4360(2) 0.4948(11) 0.5543(15)
H3_3 H 0.4471 0.4187 0.6062
C6_4 C 0.4360(2) 0.6762(14) 0.4048(11)
H4_4 H 0.4469 0.7285 0.3455
C7_4 C 0.45371(15) 0.5738(8) 0.4789(8)
C8_4 C 0.49015(17) 0.5470(9) 0.4726(9)
H5_4 H 0.4996 0.6114 0.4186
C9_4 C 0.20815(10) 0.5084(4) 0.3320(4)
C10_4 C 0.17656(13) 0.4394(6) 0.3625(5)
H6_4 H 0.1830 0.3544 0.4167
H7_4 H 0.1611 0.4143 0.2769
H8_4 H 0.1651 0.5048 0.4135
C11_4 C 0.25108(9) 0.5655(4) 0.2440(4)
C12_4 C 0.27669(14) 0.5723(7) 0.1523(6)
H9_4 H 0.2655 0.6077 0.0627
H10_4 H 0.2857 0.4781 0.1426
H11_4 H 0.2953 0.6353 0.1924
O3_4 O 0.66600(8) 0.2290(4) 0.5823(4)
O4_4 O 0.66866(16) 0.4024(11) 0.4508(14)
C13_4 C 0.65240(14) 0.3293(6) 0.5102(9)
C14_4 C 0.61553(12) 0.3646(6) 0.5140(7)
C15_4 C 0.59809(17) 0.2889(11) 0.5905(9)
H12_4 H 0.6087 0.2115 0.6417
C16_4 C 0.5991(2) 0.4761(13) 0.4429(18)
H13_3 H 0.6109 0.5346 0.3915
C17_3 C 0.5640(2) 0.5052(11) 0.4457(15)
H14_3 H 0.5529 0.5813 0.3938
C18_4 C 0.5640(2) 0.3238(14) 0.5952(11)
H15_4 H 0.5531 0.2715 0.6545
C19_4 C 0.54629(15) 0.4262(8) 0.5211(8)
C20_4 C 0.50985(17) 0.4530(9) 0.5274(9)
H16_4 H 0.5004 0.3886 0.5814
N4_4 N 0.74832(8) 0.3476(4) 0.6514(3)
C21_4 C 0.79185(10) 0.4916(4) 0.6680(4)
C22_4 C 0.82344(13) 0.5606(6) 0.6375(5)
H17_4 H 0.8170 0.6456 0.5833
H18_4 H 0.8389 0.5857 0.7231
H19_4 H 0.8349 0.4952 0.5865
C23_4 C 0.74892(9) 0.4345(4) 0.7560(4)
C24_4 C 0.72331(14) 0.4277(7) 0.8477(6)
H20_4 H 0.7345 0.3923 0.9373
H21_4 H 0.7143 0.5219 0.8574
H22_4 H 0.7047 0.3647 0.8076
H2_4 H 0.1109 0.9654 0.8915
C5_4 C 0.0640(2) 0.9948(11) 0.9457(15)
H3_4 H 0.0529 0.9187 0.8938
H13_4 H 0.8891 0.0346 0.1085
C17_4 C 0.9360(2) 0.0052(11) 0.0543(15)
H14_4 H 0.9471 0.0813 0.1062
loop_
_geom_bond_atom_site_label_1
_geom_bond_atom_site_label_2
_geom_bond_site_symmetry_1
_geom_bond_site_symmetry_2
Zn1 N1 1_555 1_555
N1 N2 1_555 1_555
N2 C9 1_555 1_555
O1 Zn1 1_555 1_555
C1 O1 1_555 1_555
C2 C1 1_555 1_555
C3 C2 1_555 1_555
H1 C3 1_555 1_555
C6 C3 1_555 1_555
H4 C6 1_555 1_555
C8 C7 1_555 1_555
H5 C8 1_555 1_555
C11 N1 1_555 1_555
C12 C11 1_555 1_555
H9 C12 1_555 1_555
H11 C12 1_555 1_555
N9 Zn1 1_555 1_555
C6 C7 1_555 1_555
C10 H6 1_555 1_555
H7 C10 1_555 1_555
Zn4 N3 1_555 1_555
H17 C22 1_555 1_555
H18 C22 1_555 1_555
Zn6 N6 1_555 1_555
O3 C13 1_555 1_555
C13 C14 1_555 1_555
C14 C15 1_555 1_555
C15 H12 1_555 1_555
C18 C15 1_555 1_555
H15 C18 1_555 1_555
H16 C20 1_555 1_555
Zn2 O3 1_555 1_555
N4 Zn2 1_555 1_555
N5 N4 1_555 1_555
C21 N5 1_555 1_555
C23 N4 1_555 1_555
C24 C23 1_555 1_555
H20 C24 1_555 1_555
H22 C24 1_555 1_555
N10 Zn2 1_555 1_555
C18 C19 1_555 1_555
C19 C20 1_555 1_555
H14 C17 1_555 1_555
H17_2 C22_2 1_555 1_555
H18_2 C22_2 1_555 1_555
Zn5 N6_2 1_555 1_555
O3_2 C13_2 1_555 1_555
O4_2 C13_2 1_555 1_555
C13_2 C14_2 1_555 1_555
C14_2 C15_2 1_555 1_555
C15_2 H12_2 1_555 1_555
C16_2 C14_2 1_555 1_555
C18_2 C15_2 1_555 1_555
H15_2 C18_2 1_555 1_555
H16_2 C20_2 1_555 1_555
Zn2_2 O3_2 1_555 1_555
N4_2 Zn2_2 1_555 1_555
N5_2 N4_2 1_555 1_555
C21_2 N5_2 1_555 1_555
C23_2 N4_2 1_555 1_555
C24_2 C23_2 1_555 1_555
H20_2 C24_2 1_555 1_555
H22_2 C24_2 1_555 1_555
Zn4 N5_2 1_555 1_555
N7_2 Zn2_2 1_555 1_555
N10_2 Zn2_2 1_555 1_555
C18_2 C19_2 1_555 1_555
C19_2 C20_2 1_555 1_555
Zn1_2 N1_2 1_555 1_555
N1_2 N2_2 1_555 1_555
N2_2 C9_2 1_555 1_555
O1_2 Zn1_2 1_555 1_555
O2_2 C1_2 1_555 1_555
C1_2 O1_2 1_555 1_555
C2_2 C1_2 1_555 1_555
C3_2 C2_2 1_555 1_555
H1_2 C3_2 1_555 1_555
C4_2 C2_2 1_555 1_555
C6_2 C3_2 1_555 1_555
H4_2 C6_2 1_555 1_555
C8_2 C7_2 1_555 1_555
H5_2 C8_2 1_555 1_555
C11_2 N1_2 1_555 1_555
C12_2 C11_2 1_555 1_555
H9_2 C12_2 1_555 1_555
H11_2 C12_2 1_555 1_555
Zn6 N2_2 1_555 1_555
N8_2 Zn1_2 1_555 1_555
N9_2 Zn1_2 1_555 1_555
C6_2 C7_2 1_555 1_555
H3 C5 1_555 1_555
C10_2 H6_2 1_555 1_555
H7_2 C10_2 1_555 1_555
Zn3 N3_2 1_555 1_555
Zn3 N1_3 1_555 1_555
N1_3 N7 1_555 1_555
N7 C9_3 1_555 1_555
N9_2 C9_3 1_555 1_555
O1_3 Zn3 1_555 1_555
C1_3 O1_3 1_555 1_555
C2_3 C1_3 1_555 1_555
C3_3 C2_3 1_555 1_555
H1_3 C3_3 1_555 1_555
C6_3 C3_3 1_555 1_555
H4_3 C6_3 1_555 1_555
C8_3 C7_3 1_555 1_555
H5_3 C8_3 1_555 1_555
C9_3 C10_3 1_555 1_555
C10_3 H6_3 1_555 1_555
H7_3 C10_3 1_555 1_555
H8_3 C10_3 1_555 1_555
C11_3 N1_3 1_555 1_555
C12_3 C11_3 1_555 1_555
H9_3 C12_3 1_555 1_555
H10_3 C12_3 1_555 1_555
H11_3 C12_3 1_555 1_555
H13_2 C16_3 1_555 1_555
C17_2 C16_3 1_555 1_555
H14_2 C17_2 1_555 1_555
N9_2 C11_3 1_555 1_555
C6_3 C7_3 1_555 1_555
H2_2 C4_3 1_555 1_555
C5_2 C4_3 1_555 1_555
H3_2 C5_2 1_555 1_555
O3_3 C13_3 1_555 1_555
C13_3 C14_3 1_555 1_555
C14_3 C15_3 1_555 1_555
C15_3 H12_3 1_555 1_555
C18_3 C15_3 1_555 1_555
H15_3 C18_3 1_555 1_555
H16_3 C20_3 1_555 1_555
Zn5 O3_3 1_555 1_555
N4_3 Zn5 1_555 1_555
N8 N4_3 1_555 1_555
N10_2 C21_3 1_555 1_555
C21_3 N8 1_555 1_555
C22_3 C21_3 1_555 1_555
H17_3 C22_3 1_555 1_555
H18_3 C22_3 1_555 1_555
H19_3 C22_3 1_555 1_555
C23_3 N4_3 1_555 1_555
C24_3 C23_3 1_555 1_555
H20_3 C24_3 1_555 1_555
H21_3 C24_3 1_555 1_555
H22_3 C24_3 1_555 1_555
C18_3 C19_3 1_555 1_555
C19_3 C20_3 1_555 1_555
N10_2 C23_3 1_555 1_555
Zn4 N1_4 1_555 1_555
N1_4 N7_2 1_555 1_555
N7_2 C9_4 1_555 1_555
N9 C9_4 1_555 1_555
O1_4 Zn4 1_555 1_555
O2_4 C1_4 1_555 1_555
C1_4 O1_4 1_555 1_555
C2_4 C1_4 1_555 1_555
C3_4 C2_4 1_555 1_555
H1_4 C3_4 1_555 1_555
C4_4 C2_4 1_555 1_555
H2_3 C4_4 1_555 1_555
C5_3 C4_4 1_555 1_555
H3_3 C5_3 1_555 1_555
C6_4 C3_4 1_555 1_555
H4_4 C6_4 1_555 1_555
C7_4 C5_3 1_555 1_555
C8_4 C7_4 1_555 1_555
H5_4 C8_4 1_555 1_555
C9_4 C10_4 1_555 1_555
C10_4 H6_4 1_555 1_555
H7_4 C10_4 1_555 1_555
H8_4 C10_4 1_555 1_555
C11_4 N1_4 1_555 1_555
C12_4 C11_4 1_555 1_555
H9_4 C12_4 1_555 1_555
H10_4 C12_4 1_555 1_555
H11_4 C12_4 1_555 1_555
O3_4 C13_4 1_555 1_555
O4_4 C13_4 1_555 1_555
C13_4 C14_4 1_555 1_555
C14_4 C15_4 1_555 1_555
C15_4 H12_4 1_555 1_555
C16_4 C14_4 1_555 1_555
H13_3 C16_4 1_555 1_555
C17_3 C16_4 1_555 1_555
H14_3 C17_3 1_555 1_555
C18_4 C15_4 1_555 1_555
H15_4 C18_4 1_555 1_555
C19_4 C17_3 1_555 1_555
C20_4 C8_4 1_555 1_555
H16_4 C20_4 1_555 1_555
Zn6 O3_4 1_555 1_555
N4_4 Zn6 1_555 1_555
N8_2 N4_4 1_555 1_555
N10 C21_4 1_555 1_555
C21_4 N8_2 1_555 1_555
C22_4 C21_4 1_555 1_555
H17_4 C22_4 1_555 1_555
H18_4 C22_4 1_555 1_555
H19_4 C22_4 1_555 1_555
C23_4 N4_4 1_555 1_555
C24_4 C23_4 1_555 1_555
H20_4 C24_4 1_555 1_555
H21_4 C24_4 1_555 1_555
H22_4 C24_4 1_555 1_555
N9 C11_4 1_555 1_555
C6_4 C7_4 1_555 1_555
C18_4 C19_4 1_555 1_555
C19_4 C20_4 1_555 1_555
N10 C23_4 1_555 1_555
H3_4 C5_4 1_555 1_555
H14_4 C17_4 1_555 1_555

#END
