
###############################################################################
#
# This file contains modified crystal structure data generated from the
# MOF subset of the Cambridge Structural Database (CSD) v543 
# hosted by the Cambridge Crystallographic Data Centre (CCDC).
#
# This work is licensed under the Creative Commons
# Attribution-NonCommercial-ShareAlike 4.0 International License.
# To view a copy of this license, visit
# http://creativecommons.org/licenses/by-nc-sa/4.0/
# or send a letter to
# Creative Commons, PO Box 1866, Mountain View, CA 94042, USA.
#
# CIF created using the CSD Python API on 29 September 2022
# The structure has been converted into the P1 space group
# The structure has a 3D framework
# The original CSD entry CUQROX is in the monoclinic crystal system
# The framework has been calculated to contain at least 10.0% void space
# The void calculation uses a probe of radius 1.32A, grid spacing 0.4
#
###############################################################################

data_CUQROX
_chemical_formula_moiety         '(C88 H80 N28 O16 Zn8)n'
_symmetry_cell_setting           triclinic
_symmetry_space_group_name_H-M   'P 1'
_symmetry_Int_Tables_number      1
_space_group_name_Hall           'P 1'
loop_
_symmetry_equiv_pos_site_id
_symmetry_equiv_pos_as_xyz
1 x,y,z
_cell_length_a                   38.503(5)
_cell_length_b                   9.4511(12)
_cell_length_c                   9.8023(13)
_cell_angle_alpha                90
_cell_angle_beta                 100.578(2)
_cell_angle_gamma                90
_cell_volume                     3506.4
loop_
_atom_site_label
_atom_site_type_symbol
_atom_site_fract_x
_atom_site_fract_y
_atom_site_fract_z
Zn1 Zn 0.21400(2) 0.18806(7) 0.09078(7)
N1 N 0.24843(14) 0.3454(6) 0.1536(6)
N2 N 0.27630(13) 0.3840(6) 0.0912(5)
N3 N 0.27621(14) 0.5261(6) 0.2702(6)
O1 O 0.16480(13) 0.2266(6) 0.0915(6)
C1 C 0.24891(16) 0.4310(7) 0.2583(7)
C2 C 0.29230(18) 0.4922(7) 0.1644(7)
C3 C 0.2232(2) 0.4225(10) 0.3562(10)
H1 H 0.2007 0.3903 0.3068
H2 H 0.2205 0.5144 0.3947
H3 H 0.2319 0.3574 0.4297
C4 C 0.3234(2) 0.5633(10) 0.1264(9)
H4 H 0.3341 0.5023 0.0676
H5 H 0.3402 0.5842 0.2090
H6 H 0.3161 0.6497 0.0780
C5 C 0.1510(2) 0.3251(10) 0.0166(12)
C6 C 0.1124(2) 0.3584(9) 0.0188(11)
C8 C 0.0943(2) 0.2815(13) 0.0976(11)
H8 H 0.1053 0.2068 0.1504
C9 C 0.0589(3) 0.3134(11) 0.1006(13)
H9 H 0.0466 0.2608 0.1562
C11 C 0.0429(2) 0.4201(11) 0.0230(11)
N4 N 0.0065(2) 0.4466(10) 0.0316(10)
Zn4 Zn 0.28600(2) 0.68806(7) 0.40922(7)
N11 N 0.22379(14) 0.0261(6) 0.2298(6)
O2 O 0.1670(2) 0.3940(14) 0.9492(17)
C7 C 0.0960(3) 0.4622(15) 0.9349(17)
H7 H 0.1080 0.5087 0.8737
C10 C 0.0609(3) 0.4993(15) 0.9410(17)
H10 H 0.0501 0.5758 0.8906
Zn5 Zn 0.28600(2) 0.31194(7) 0.90922(7)
N10 N 0.22370(13) 0.1160(6) 0.9088(5)
O4 O 0.8330(2) 0.6060(14) 0.0508(17)
C14 C 0.9040(3) 0.5378(15) 0.0651(17)
H11 H 0.8920 0.4913 0.1263
C17 C 0.9391(3) 0.5007(15) 0.0590(17)
H14 H 0.9499 0.4242 0.1094
Zn3 Zn 0.71400(2) 0.68806(7) 0.09078(7)
N9 N 0.77630(13) 0.8840(6) 0.0912(5)
O3 O 0.83520(13) 0.7734(6) 0.9085(6)
C12 C 0.8490(2) 0.6749(10) 0.9834(12)
C13 C 0.8876(2) 0.6416(9) 0.9812(11)
C15 C 0.9057(2) 0.7185(13) 0.9024(11)
H12 H 0.8947 0.7932 0.8496
C16 C 0.9411(3) 0.6866(11) 0.8994(13)
H13 H 0.9534 0.7392 0.8438
C18 C 0.9571(2) 0.5799(11) 0.9770(11)
N5 N 0.9935(2) 0.5534(10) 0.9684(10)
Zn2 Zn 0.78600(2) 0.81194(7) 0.90922(7)
N6 N 0.75157(14) 0.6546(6) 0.8464(6)
N7 N 0.72370(13) 0.6160(6) 0.9088(5)
N8 N 0.72379(14) 0.4739(6) 0.7298(6)
C19 C 0.75109(16) 0.5690(7) 0.7417(7)
C20 C 0.70770(18) 0.5078(7) 0.8356(7)
C21 C 0.7768(2) 0.5775(10) 0.6438(10)
H15 H 0.7993 0.6097 0.6932
H16 H 0.7795 0.4856 0.6053
H17 H 0.7681 0.6426 0.5703
C22 C 0.6766(2) 0.4367(10) 0.8736(9)
H18 H 0.6659 0.4977 0.9324
H19 H 0.6598 0.4158 0.7910
H20 H 0.6839 0.3503 0.9220
Zn6 Zn 0.71400(2) 0.31194(7) 0.59078(7)
N12 N 0.77621(14) 0.9739(6) 0.7702(6)
O3_2 O 0.16480(13) 0.7734(6) 0.5915(6)
O4_2 O 0.1670(2) 0.6060(14) 0.4492(17)
C12_2 C 0.1510(2) 0.6749(10) 0.5166(12)
C13_2 C 0.1124(2) 0.6416(9) 0.5188(11)
C14_2 C 0.0960(3) 0.5378(15) 0.4349(17)
H11_2 H 0.1080 0.4913 0.3737
C15_2 C 0.0943(2) 0.7185(13) 0.5976(11)
H12_2 H 0.1053 0.7932 0.6504
C16_2 C 0.0589(3) 0.6866(11) 0.6006(13)
H13_2 H 0.0466 0.7392 0.6562
C17_2 C 0.0609(3) 0.5007(15) 0.4410(17)
H14_2 H 0.0501 0.4242 0.3906
C18_2 C 0.0429(2) 0.5799(11) 0.5230(11)
N5_2 N 0.0065(2) 0.5534(10) 0.5316(10)
Zn2_2 Zn 0.21400(2) 0.81194(7) 0.59078(7)
N6_2 N 0.24843(14) 0.6546(6) 0.6536(6)
N7_2 N 0.27630(13) 0.6160(6) 0.5912(5)
N8_2 N 0.27621(14) 0.4739(6) 0.7702(6)
C19_2 C 0.24891(16) 0.5690(7) 0.7583(7)
C20_2 C 0.29230(18) 0.5078(7) 0.6644(7)
C21_2 C 0.2232(2) 0.5775(10) 0.8562(10)
H15_2 H 0.2007 0.6097 0.8068
H16_2 H 0.2205 0.4856 0.8947
H17_2 H 0.2319 0.6426 0.9297
C22_2 C 0.3234(2) 0.4367(10) 0.6264(9)
H18_2 H 0.3341 0.4977 0.5676
H19_2 H 0.3402 0.4158 0.7090
H20_2 H 0.3161 0.3503 0.5780
N9_2 N 0.22370(13) 0.8840(6) 0.4088(5)
N12_2 N 0.22379(14) 0.9739(6) 0.7298(6)
Zn1_2 Zn 0.78600(2) 0.18806(7) 0.40922(7)
N1_2 N 0.75157(14) 0.3454(6) 0.3464(6)
N2_2 N 0.72370(13) 0.3840(6) 0.4088(5)
N3_2 N 0.72379(14) 0.5261(6) 0.2298(6)
O1_2 O 0.83520(13) 0.2266(6) 0.4085(6)
O2_2 O 0.8330(2) 0.3940(14) 0.5508(17)
C1_2 C 0.75109(16) 0.4310(7) 0.2417(7)
C2_2 C 0.70770(18) 0.4922(7) 0.3356(7)
C3_2 C 0.7768(2) 0.4225(10) 0.1438(10)
H1_2 H 0.7993 0.3903 0.1932
H2_2 H 0.7795 0.5144 0.1053
H3_2 H 0.7681 0.3574 0.0703
C4_2 C 0.6766(2) 0.5633(10) 0.3736(9)
H4_2 H 0.6659 0.5023 0.4324
H5_2 H 0.6598 0.5842 0.2910
H6_2 H 0.6839 0.6497 0.4220
C5_2 C 0.8490(2) 0.3251(10) 0.4834(12)
C6_2 C 0.8876(2) 0.3584(9) 0.4812(11)
C7_2 C 0.9040(3) 0.4622(15) 0.5651(17)
H7_2 H 0.8920 0.5087 0.6263
C8_2 C 0.9057(2) 0.2815(13) 0.4024(11)
H8_2 H 0.8947 0.2068 0.3496
C9_2 C 0.9411(3) 0.3134(11) 0.3994(13)
H9_2 H 0.9534 0.2608 0.3438
C10_2 C 0.9391(3) 0.4993(15) 0.5590(17)
H10_2 H 0.9499 0.5758 0.6094
C11_2 C 0.9571(2) 0.4201(11) 0.4770(11)
N4_2 N 0.9935(2) 0.4466(10) 0.4684(10)
N10_2 N 0.77630(13) 0.1160(6) 0.5912(5)
N11_2 N 0.77621(14) 0.0261(6) 0.2702(6)
H2_3 H 0.7205 0.0144 0.3947
C4_3 C 0.8234(2) 0.0633(10) 0.1264(9)
H4_3 H 0.8341 0.0023 0.0676
H5_3 H 0.8402 0.0842 0.2090
H6_3 H 0.8161 0.1497 0.0780
O4_3 O 0.3330(2) 0.1060(14) 0.0508(17)
C14_3 C 0.4040(3) 0.0378(15) 0.0651(17)
C17_3 C 0.4391(3) 0.0007(15) 0.0590(17)
H7_3 H 0.6080 0.0087 0.8737
H10_3 H 0.5501 0.0758 0.8906
O3_3 O 0.33520(13) 0.2734(6) 0.9085(6)
C12_3 C 0.3490(2) 0.1749(10) 0.9834(12)
C13_3 C 0.3876(2) 0.1416(9) 0.9812(11)
C15_3 C 0.4057(2) 0.2185(13) 0.9024(11)
H12_3 H 0.3947 0.2932 0.8496
C16_3 C 0.4411(3) 0.1866(11) 0.8994(13)
H13_3 H 0.4534 0.2392 0.8438
C18_3 C 0.4571(2) 0.0799(11) 0.9770(11)
N5_3 N 0.4935(2) 0.0534(10) 0.9684(10)
N6_3 N 0.25157(14) 0.1546(6) 0.8464(6)
C19_3 C 0.25109(16) 0.0690(7) 0.7417(7)
C20_3 C 0.20770(18) 0.0078(7) 0.8356(7)
C21_3 C 0.2768(2) 0.0775(10) 0.6438(10)
H15_3 H 0.2993 0.1097 0.6932
H17_3 H 0.2681 0.1426 0.5703
N1_3 N 0.74843(14) 0.8454(6) 0.1536(6)
O1_3 O 0.66480(13) 0.7266(6) 0.0915(6)
C1_3 C 0.74891(16) 0.9310(7) 0.2583(7)
C2_3 C 0.79230(18) 0.9922(7) 0.1644(7)
C3_3 C 0.7232(2) 0.9225(10) 0.3562(10)
H1_3 H 0.7007 0.8903 0.3068
H3_3 H 0.7319 0.8574 0.4297
C5_3 C 0.6510(2) 0.8251(10) 0.0166(12)
C6_3 C 0.6124(2) 0.8584(9) 0.0188(11)
C8_3 C 0.5943(2) 0.7815(13) 0.0976(11)
H8_3 H 0.6053 0.7068 0.1504
C9_3 C 0.5589(3) 0.8134(11) 0.1006(13)
H9_3 H 0.5466 0.7608 0.1562
C11_3 C 0.5429(2) 0.9201(11) 0.0230(11)
N4_3 N 0.5065(2) 0.9466(10) 0.0316(10)
H11_3 H 0.3920 0.9913 0.1263
H14_3 H 0.4499 0.9242 0.1094
O2_3 O 0.6670(2) 0.8940(14) 0.9492(17)
C7_3 C 0.5960(3) 0.9622(15) 0.9349(17)
C10_3 C 0.5609(3) 0.9993(15) 0.9410(17)
H16_3 H 0.2795 0.9856 0.6053
C22_3 C 0.1766(2) 0.9367(10) 0.8736(9)
H18_3 H 0.1659 0.9977 0.9324
H19_3 H 0.1598 0.9158 0.7910
H20_3 H 0.1839 0.8503 0.9220
H2_4 H 0.2795 0.0144 0.1053
C4_4 C 0.1766(2) 0.0633(10) 0.3736(9)
H4_4 H 0.1659 0.0023 0.4324
H5_4 H 0.1598 0.0842 0.2910
H6_4 H 0.1839 0.1497 0.4220
H7_4 H 0.3920 0.0087 0.6263
H10_4 H 0.4499 0.0758 0.6094
O3_4 O 0.66480(13) 0.2734(6) 0.5915(6)
O4_4 O 0.6670(2) 0.1060(14) 0.4492(17)
C12_4 C 0.6510(2) 0.1749(10) 0.5166(12)
C13_4 C 0.6124(2) 0.1416(9) 0.5188(11)
C14_4 C 0.5960(3) 0.0378(15) 0.4349(17)
C15_4 C 0.5943(2) 0.2185(13) 0.5976(11)
H12_4 H 0.6053 0.2932 0.6504
C16_4 C 0.5589(3) 0.1866(11) 0.6006(13)
H13_4 H 0.5466 0.2392 0.6562
C17_4 C 0.5609(3) 0.0007(15) 0.4410(17)
C18_4 C 0.5429(2) 0.0799(11) 0.5230(11)
N5_4 N 0.5065(2) 0.0534(10) 0.5316(10)
N6_4 N 0.74843(14) 0.1546(6) 0.6536(6)
C19_4 C 0.74891(16) 0.0690(7) 0.7583(7)
C20_4 C 0.79230(18) 0.0078(7) 0.6644(7)
C21_4 C 0.7232(2) 0.0775(10) 0.8562(10)
H15_4 H 0.7007 0.1097 0.8068
H17_4 H 0.7319 0.1426 0.9297
N1_4 N 0.25157(14) 0.8454(6) 0.3464(6)
O1_4 O 0.33520(13) 0.7266(6) 0.4085(6)
O2_4 O 0.3330(2) 0.8940(14) 0.5508(17)
C1_4 C 0.25109(16) 0.9310(7) 0.2417(7)
C2_4 C 0.20770(18) 0.9922(7) 0.3356(7)
C3_4 C 0.2768(2) 0.9225(10) 0.1438(10)
H1_4 H 0.2993 0.8903 0.1932
H3_4 H 0.2681 0.8574 0.0703
C5_4 C 0.3490(2) 0.8251(10) 0.4834(12)
C6_4 C 0.3876(2) 0.8584(9) 0.4812(11)
C7_4 C 0.4040(3) 0.9622(15) 0.5651(17)
C8_4 C 0.4057(2) 0.7815(13) 0.4024(11)
H8_4 H 0.3947 0.7068 0.3496
C9_4 C 0.4411(3) 0.8134(11) 0.3994(13)
H9_4 H 0.4534 0.7608 0.3438
C10_4 C 0.4391(3) 0.9993(15) 0.5590(17)
C11_4 C 0.4571(2) 0.9201(11) 0.4770(11)
N4_4 N 0.4935(2) 0.9466(10) 0.4684(10)
H11_4 H 0.6080 0.9913 0.3737
H14_4 H 0.5501 0.9242 0.3906
H16_4 H 0.7205 0.9856 0.8947
C22_4 C 0.8234(2) 0.9367(10) 0.6264(9)
H18_4 H 0.8341 0.9977 0.5676
H19_4 H 0.8402 0.9158 0.7090
H20_4 H 0.8161 0.8503 0.5780
loop_
_geom_bond_atom_site_label_1
_geom_bond_atom_site_label_2
_geom_bond_site_symmetry_1
_geom_bond_site_symmetry_2
Zn1 N1 1_555 1_555
N1 N2 1_555 1_555
N2 C2 1_555 1_555
N3 C1 1_555 1_555
O1 Zn1 1_555 1_555
C1 N1 1_555 1_555
C2 N3 1_555 1_555
C3 C1 1_555 1_555
H1 C3 1_555 1_555
H2 C3 1_555 1_555
H3 C3 1_555 1_555
C4 C2 1_555 1_555
H4 C4 1_555 1_555
H5 C4 1_555 1_555
H6 C4 1_555 1_555
C5 O1 1_555 1_555
C6 C5 1_555 1_555
C8 C6 1_555 1_555
H8 C8 1_555 1_555
C9 C8 1_555 1_555
H9 C9 1_555 1_555
C11 C9 1_555 1_555
N4 C11 1_555 1_555
Zn4 N3 1_555 1_555
N11 Zn1 1_555 1_555
H7 C7 1_555 1_555
C10 C7 1_555 1_555
H10 C10 1_555 1_555
C14 H11 1_555 1_555
C17 C14 1_555 1_555
H14 C17 1_555 1_555
O3 C12 1_555 1_555
C12 C13 1_555 1_555
C15 C13 1_555 1_555
H12 C15 1_555 1_555
C16 C15 1_555 1_555
H13 C16 1_555 1_555
C18 C16 1_555 1_555
Zn2 O3 1_555 1_555
N6 Zn2 1_555 1_555
N7 N6 1_555 1_555
N8 C19 1_555 1_555
C19 N6 1_555 1_555
C20 N7 1_555 1_555
C21 C19 1_555 1_555
H15 C21 1_555 1_555
H16 C21 1_555 1_555
H17 C21 1_555 1_555
C22 C20 1_555 1_555
H18 C22 1_555 1_555
H19 C22 1_555 1_555
H20 C22 1_555 1_555
Zn6 N8 1_555 1_555
N12 Zn2 1_555 1_555
C18 N5 1_555 1_555
N8 C20 1_555 1_555
O3_2 C12_2 1_555 1_555
O4_2 C12_2 1_555 1_555
C12_2 C13_2 1_555 1_555
C13_2 C14_2 1_555 1_555
C14_2 H11_2 1_555 1_555
C15_2 C13_2 1_555 1_555
H12_2 C15_2 1_555 1_555
C16_2 C15_2 1_555 1_555
H13_2 C16_2 1_555 1_555
C17_2 C14_2 1_555 1_555
H14_2 C17_2 1_555 1_555
C18_2 C16_2 1_555 1_555
Zn2_2 O3_2 1_555 1_555
N6_2 Zn2_2 1_555 1_555
N7_2 N6_2 1_555 1_555
N8_2 C19_2 1_555 1_555
C19_2 N6_2 1_555 1_555
C20_2 N7_2 1_555 1_555
C21_2 C19_2 1_555 1_555
H15_2 C21_2 1_555 1_555
H16_2 C21_2 1_555 1_555
H17_2 C21_2 1_555 1_555
C22_2 C20_2 1_555 1_555
H18_2 C22_2 1_555 1_555
H19_2 C22_2 1_555 1_555
H20_2 C22_2 1_555 1_555
Zn4 N7_2 1_555 1_555
Zn5 N8_2 1_555 1_555
N9_2 Zn2_2 1_555 1_555
N12_2 Zn2_2 1_555 1_555
C17_2 C18_2 1_555 1_555
C18_2 N5_2 1_555 1_555
N8_2 C20_2 1_555 1_555
Zn1_2 N1_2 1_555 1_555
N1_2 N2_2 1_555 1_555
N2_2 C2_2 1_555 1_555
N3_2 C1_2 1_555 1_555
O1_2 Zn1_2 1_555 1_555
O2_2 C5_2 1_555 1_555
C1_2 N1_2 1_555 1_555
C2_2 N3_2 1_555 1_555
C3_2 C1_2 1_555 1_555
H1_2 C3_2 1_555 1_555
H2_2 C3_2 1_555 1_555
H3_2 C3_2 1_555 1_555
C4_2 C2_2 1_555 1_555
H4_2 C4_2 1_555 1_555
H5_2 C4_2 1_555 1_555
H6_2 C4_2 1_555 1_555
C5_2 O1_2 1_555 1_555
C6_2 C5_2 1_555 1_555
C7_2 C6_2 1_555 1_555
H7_2 C7_2 1_555 1_555
C8_2 C6_2 1_555 1_555
H8_2 C8_2 1_555 1_555
C9_2 C8_2 1_555 1_555
H9_2 C9_2 1_555 1_555
C10_2 C7_2 1_555 1_555
H10_2 C10_2 1_555 1_555
C11_2 C9_2 1_555 1_555
N4_2 C11_2 1_555 1_555
Zn3 N3_2 1_555 1_555
Zn6 N2_2 1_555 1_555
N10_2 Zn1_2 1_555 1_555
N11_2 Zn1_2 1_555 1_555
C10_2 C11_2 1_555 1_555
H4_3 C4_3 1_555 1_555
H5_3 C4_3 1_555 1_555
H6_3 C4_3 1_555 1_555
C17_3 C14_3 1_555 1_555
O3_3 C12_3 1_555 1_555
C12_3 C13_3 1_555 1_555
C15_3 C13_3 1_555 1_555
H12_3 C15_3 1_555 1_555
C16_3 C15_3 1_555 1_555
H13_3 C16_3 1_555 1_555
C18_3 C16_3 1_555 1_555
Zn5 O3_3 1_555 1_555
N6_3 Zn5 1_555 1_555
N10 N6_3 1_555 1_555
C19_3 N6_3 1_555 1_555
C20_3 N10 1_555 1_555
C21_3 C19_3 1_555 1_555
H15_3 C21_3 1_555 1_555
H17_3 C21_3 1_555 1_555
C18_3 N5_3 1_555 1_555
Zn3 N1_3 1_555 1_555
N1_3 N9 1_555 1_555
N9 C2_3 1_555 1_555
O1_3 Zn3 1_555 1_555
C1_3 N1_3 1_555 1_555
C3_3 C1_3 1_555 1_555
H1_3 C3_3 1_555 1_555
H3_3 C3_3 1_555 1_555
C5_3 O1_3 1_555 1_555
C6_3 C5_3 1_555 1_555
C8_3 C6_3 1_555 1_555
H8_3 C8_3 1_555 1_555
C9_3 C8_3 1_555 1_555
H9_3 C9_3 1_555 1_555
C11_3 C9_3 1_555 1_555
N4_3 C11_3 1_555 1_555
C10_3 C7_3 1_555 1_555
H18_3 C22_3 1_555 1_555
H19_3 C22_3 1_555 1_555
H20_3 C22_3 1_555 1_555
H4_4 C4_4 1_555 1_555
H5_4 C4_4 1_555 1_555
H6_4 C4_4 1_555 1_555
O3_4 C12_4 1_555 1_555
O4_4 C12_4 1_555 1_555
C12_4 C13_4 1_555 1_555
C13_4 C14_4 1_555 1_555
C15_4 C13_4 1_555 1_555
H12_4 C15_4 1_555 1_555
C16_4 C15_4 1_555 1_555
H13_4 C16_4 1_555 1_555
C17_4 C14_4 1_555 1_555
C18_4 C16_4 1_555 1_555
Zn6 O3_4 1_555 1_555
N6_4 Zn6 1_555 1_555
N10_2 N6_4 1_555 1_555
C19_4 N6_4 1_555 1_555
C20_4 N10_2 1_555 1_555
C21_4 C19_4 1_555 1_555
H15_4 C21_4 1_555 1_555
H17_4 C21_4 1_555 1_555
C17_4 C18_4 1_555 1_555
C18_4 N5_4 1_555 1_555
Zn4 N1_4 1_555 1_555
N1_4 N9_2 1_555 1_555
N9_2 C2_4 1_555 1_555
O1_4 Zn4 1_555 1_555
O2_4 C5_4 1_555 1_555
C1_4 N1_4 1_555 1_555
C3_4 C1_4 1_555 1_555
H1_4 C3_4 1_555 1_555
H3_4 C3_4 1_555 1_555
C5_4 O1_4 1_555 1_555
C6_4 C5_4 1_555 1_555
C7_4 C6_4 1_555 1_555
C8_4 C6_4 1_555 1_555
H8_4 C8_4 1_555 1_555
C9_4 C8_4 1_555 1_555
H9_4 C9_4 1_555 1_555
C10_4 C7_4 1_555 1_555
C11_4 C9_4 1_555 1_555
N4_4 C11_4 1_555 1_555
H18_4 C22_4 1_555 1_555
H19_4 C22_4 1_555 1_555
H20_4 C22_4 1_555 1_555
C10_4 C11_4 1_555 1_555

#END
