
###############################################################################
#
# This file contains modified crystal structure data generated from the
# MOF subset of the Cambridge Structural Database (CSD) v543 
# hosted by the Cambridge Crystallographic Data Centre (CCDC).
#
# This work is licensed under the Creative Commons
# Attribution-NonCommercial-ShareAlike 4.0 International License.
# To view a copy of this license, visit
# http://creativecommons.org/licenses/by-nc-sa/4.0/
# or send a letter to
# Creative Commons, PO Box 1866, Mountain View, CA 94042, USA.
#
# CIF created using the CSD Python API on 29 September 2022
# The structure has been converted into the P1 space group
# The structure has a 3D framework
# The original CSD entry CUQRUD is in the monoclinic crystal system
# The framework has been calculated to contain at least 10.0% void space
# The void calculation uses a probe of radius 1.32A, grid spacing 0.4
#
###############################################################################

data_CUQRUD
_chemical_formula_moiety         '(C80 H56 N24 O16 Zn8)n'
_symmetry_cell_setting           triclinic
_symmetry_space_group_name_H-M   'P 1'
_symmetry_Int_Tables_number      1
_space_group_name_Hall           'P 1'
loop_
_symmetry_equiv_pos_site_id
_symmetry_equiv_pos_as_xyz
1 x,y,z
_cell_length_a                   38.028(10)
_cell_length_b                   9.647(3)
_cell_length_c                   9.871(3)
_cell_angle_alpha                90
_cell_angle_beta                 97.490(5)
_cell_angle_gamma                90
_cell_volume                     3590.34
loop_
_atom_site_label
_atom_site_type_symbol
_atom_site_fract_x
_atom_site_fract_y
_atom_site_fract_z
Zn1 Zn 0.28442(2) 0.17537(7) 0.40152(6)
N2 N 0.24357(13) 0.1534(5) 0.6462(5)
N3 N 0.26879(14) 0.0978(5) 0.5743(5)
O1 O 0.3305(2) 0.2311(11) 0.3140(16)
O2 O 0.3393(3) 0.096(2) 0.4590(13)
C1 C 0.3509(3) 0.152(2) 0.3775(18)
C2 C 0.38760(15) 0.1514(10) 0.3485(9)
C3 C 0.4121(2) 0.0857(12) 0.4440(8)
H1 H 0.4048 0.0453 0.5212
C4 C 0.4476(2) 0.0804(13) 0.4242(9)
H2 H 0.4641 0.0364 0.4881
C5 C 0.45859(14) 0.1407(11) 0.3088(9)
C6 C 0.43404(19) 0.2064(10) 0.2133(8)
H3 H 0.4414 0.2467 0.1361
C7 C 0.39854(17) 0.2117(10) 0.2332(9)
H4 H 0.3821 0.2557 0.1693
C8 C 0.4961(2) 0.1446(14) 0.2997(13)
H5 H 0.5127 0.1471 0.3776
C9 C 0.24465(17) 0.0723(6) 0.7555(6)
H6 H 0.2304 0.0862 0.8241
O3 O 0.6695(2) 0.2311(11) 0.1860(16)
O4 O 0.6607(3) 0.096(2) 0.0410(13)
C11 C 0.6491(3) 0.152(2) 0.1225(18)
C12 C 0.61240(15) 0.1514(10) 0.1515(9)
C13 C 0.5879(2) 0.0857(12) 0.0560(8)
C14 C 0.5524(2) 0.0804(13) 0.0758(9)
H9 H 0.5359 0.0364 0.0119
C15 C 0.54141(14) 0.1407(11) 0.1912(9)
C16 C 0.56596(19) 0.2064(10) 0.2867(8)
H10 H 0.5586 0.2467 0.3639
C17 C 0.60146(17) 0.2117(10) 0.2668(9)
H11 H 0.6179 0.2557 0.3307
C18 C 0.5039(2) 0.1446(14) 0.2003(13)
H12 H 0.4873 0.1471 0.1224
Zn2 Zn 0.71558(2) 0.17537(7) 0.09848(6)
Zn5 Zn 0.21558(2) 0.32463(7) 0.59848(6)
N7 N 0.73198(14) 0.0310(5) 0.2421(5)
N8 N 0.26802(14) 0.0310(5) 0.2579(5)
N9 N 0.25643(13) 0.3466(5) 0.3538(5)
N10 N 0.74357(13) 0.3466(5) 0.1462(5)
H8 H 0.5952 0.0453 0.9788
N5 N 0.75643(13) 0.1534(5) 0.8538(5)
N6 N 0.73121(14) 0.0978(5) 0.9257(5)
C19 C 0.75535(17) 0.0723(6) 0.7445(6)
H13 H 0.7696 0.0862 0.6759
Zn6 Zn 0.78442(2) 0.32463(7) 0.90152(6)
N1 N 0.26802(14) 0.9690(5) 0.7579(5)
C10 C 0.28218(17) 0.9907(6) 0.6416(6)
H7 H 0.2997 0.9348 0.6126
Zn4 Zn 0.28442(2) 0.82463(7) 0.90152(6)
N4 N 0.73198(14) 0.9690(5) 0.7421(5)
C20 C 0.71782(17) 0.9907(6) 0.8584(6)
H14 H 0.7003 0.9348 0.8874
Zn3 Zn 0.71558(2) 0.82463(7) 0.59848(6)
H5_2 H 0.0127 0.6471 0.3776
O3_2 O 0.1695(2) 0.7311(11) 0.1860(16)
O4_2 O 0.1607(3) 0.596(2) 0.0410(13)
C11_2 C 0.1491(3) 0.652(2) 0.1225(18)
C12_2 C 0.11240(15) 0.6514(10) 0.1515(9)
C13_2 C 0.0879(2) 0.5857(12) 0.0560(8)
C14_2 C 0.0524(2) 0.5804(13) 0.0758(9)
H9_2 H 0.0359 0.5364 0.0119
C15_2 C 0.04141(14) 0.6407(11) 0.1912(9)
C16_2 C 0.06596(19) 0.7064(10) 0.2867(8)
H10_2 H 0.0586 0.7467 0.3639
C17_2 C 0.10146(17) 0.7117(10) 0.2668(9)
H11_2 H 0.1179 0.7557 0.3307
C18_2 C 0.0039(2) 0.6446(14) 0.2003(13)
Zn2_2 Zn 0.21558(2) 0.67537(7) 0.09848(6)
N7_2 N 0.23198(14) 0.5310(5) 0.2421(5)
N10_2 N 0.24357(13) 0.8466(5) 0.1462(5)
H8_2 H 0.0952 0.5453 0.9788
N4_2 N 0.23198(14) 0.4690(5) 0.7421(5)
N5_2 N 0.25643(13) 0.6534(5) 0.8538(5)
N6_2 N 0.23121(14) 0.5978(5) 0.9257(5)
C19_2 C 0.25535(17) 0.5723(6) 0.7445(6)
H13_2 H 0.2696 0.5862 0.6759
C20_2 C 0.21782(17) 0.4907(6) 0.8584(6)
H14_2 H 0.2003 0.4348 0.8874
Zn1_2 Zn 0.78442(2) 0.67537(7) 0.40152(6)
N1_2 N 0.76802(14) 0.4690(5) 0.7579(5)
N2_2 N 0.74357(13) 0.6534(5) 0.6462(5)
N3_2 N 0.76879(14) 0.5978(5) 0.5743(5)
O1_2 O 0.8305(2) 0.7311(11) 0.3140(16)
O2_2 O 0.8393(3) 0.596(2) 0.4590(13)
C1_2 C 0.8509(3) 0.652(2) 0.3775(18)
C2_2 C 0.88760(15) 0.6514(10) 0.3485(9)
C3_2 C 0.9121(2) 0.5857(12) 0.4440(8)
H1_2 H 0.9048 0.5453 0.5212
C4_2 C 0.9476(2) 0.5804(13) 0.4242(9)
H2_2 H 0.9641 0.5364 0.4881
C5_2 C 0.95859(14) 0.6407(11) 0.3088(9)
C6_2 C 0.93404(19) 0.7064(10) 0.2133(8)
H3_2 H 0.9414 0.7467 0.1361
C7_2 C 0.89854(17) 0.7117(10) 0.2332(9)
H4_2 H 0.8821 0.7557 0.1693
C8_2 C 0.9961(2) 0.6446(14) 0.2997(13)
C9_2 C 0.74465(17) 0.5723(6) 0.7555(6)
H6_2 H 0.7304 0.5862 0.8241
C10_2 C 0.78218(17) 0.4907(6) 0.6416(6)
H7_2 H 0.7997 0.4348 0.6126
H12_2 H 0.9873 0.6471 0.1224
N8_2 N 0.76802(14) 0.5310(5) 0.2579(5)
N9_2 N 0.75643(13) 0.8466(5) 0.3538(5)
C20_3 C 0.28218(17) 0.0093(6) 0.1416(6)
H14_3 H 0.2997 0.0652 0.1126
C10_3 C 0.71782(17) 0.0093(6) 0.3584(6)
H7_3 H 0.7003 0.0652 0.3874
H8_3 H 0.4048 0.9547 0.0212
N6_3 N 0.26879(14) 0.9022(5) 0.0743(5)
C19_3 C 0.24465(17) 0.9277(6) 0.2555(6)
H13_3 H 0.2304 0.9138 0.3241
N3_3 N 0.73121(14) 0.9022(5) 0.4257(5)
O1_3 O 0.6695(2) 0.7689(11) 0.6860(16)
O2_3 O 0.6607(3) 0.904(2) 0.5410(13)
C1_3 C 0.6491(3) 0.848(2) 0.6225(18)
C2_3 C 0.61240(15) 0.8486(10) 0.6515(9)
C3_3 C 0.5879(2) 0.9143(12) 0.5560(8)
H1_3 H 0.5952 0.9547 0.4788
C4_3 C 0.5524(2) 0.9196(13) 0.5758(9)
H2_3 H 0.5359 0.9636 0.5119
C5_3 C 0.54141(14) 0.8593(11) 0.6912(9)
C6_3 C 0.56596(19) 0.7936(10) 0.7867(8)
H3_3 H 0.5586 0.7533 0.8639
C7_3 C 0.60146(17) 0.7883(10) 0.7668(9)
H4_3 H 0.6179 0.7443 0.8307
C8_3 C 0.5039(2) 0.8554(14) 0.7003(13)
H5_3 H 0.4873 0.8529 0.6224
C9_3 C 0.75535(17) 0.9277(6) 0.2445(6)
H6_3 H 0.7696 0.9138 0.1759
O3_3 O 0.3305(2) 0.7689(11) 0.8140(16)
O4_3 O 0.3393(3) 0.904(2) 0.9590(13)
C11_3 C 0.3509(3) 0.848(2) 0.8775(18)
C12_3 C 0.38760(15) 0.8486(10) 0.8485(9)
C13_3 C 0.4121(2) 0.9143(12) 0.9440(8)
C14_3 C 0.4476(2) 0.9196(13) 0.9242(9)
H9_3 H 0.4641 0.9636 0.9881
C15_3 C 0.45859(14) 0.8593(11) 0.8088(9)
C16_3 C 0.43404(19) 0.7936(10) 0.7133(8)
H10_3 H 0.4414 0.7533 0.6361
C17_3 C 0.39854(17) 0.7883(10) 0.7332(9)
H11_3 H 0.3821 0.7443 0.6693
C18_3 C 0.4961(2) 0.8554(14) 0.7997(13)
H12_3 H 0.5127 0.8529 0.8776
N3_4 N 0.23121(14) 0.4022(5) 0.4257(5)
O1_4 O 0.1695(2) 0.2689(11) 0.6860(16)
O2_4 O 0.1607(3) 0.404(2) 0.5410(13)
C1_4 C 0.1491(3) 0.348(2) 0.6225(18)
C2_4 C 0.11240(15) 0.3486(10) 0.6515(9)
C3_4 C 0.0879(2) 0.4143(12) 0.5560(8)
H1_4 H 0.0952 0.4547 0.4788
C4_4 C 0.0524(2) 0.4196(13) 0.5758(9)
H2_4 H 0.0359 0.4636 0.5119
C5_4 C 0.04141(14) 0.3593(11) 0.6912(9)
C6_4 C 0.06596(19) 0.2936(10) 0.7867(8)
H3_4 H 0.0586 0.2533 0.8639
C7_4 C 0.10146(17) 0.2883(10) 0.7668(9)
H4_4 H 0.1179 0.2443 0.8307
C8_4 C 0.0039(2) 0.3554(14) 0.7003(13)
C9_4 C 0.25535(17) 0.4277(6) 0.2445(6)
H6_4 H 0.2696 0.4138 0.1759
C10_4 C 0.21782(17) 0.5093(6) 0.3584(6)
H7_4 H 0.2003 0.5652 0.3874
H12_4 H 0.0127 0.3529 0.8776
H8_4 H 0.9048 0.4547 0.0212
N6_4 N 0.76879(14) 0.4022(5) 0.0743(5)
C19_4 C 0.74465(17) 0.4277(6) 0.2555(6)
H13_4 H 0.7304 0.4138 0.3241
C20_4 C 0.78218(17) 0.5093(6) 0.1416(6)
H14_4 H 0.7997 0.5652 0.1126
H5_4 H 0.9873 0.3529 0.6224
O3_4 O 0.8305(2) 0.2689(11) 0.8140(16)
O4_4 O 0.8393(3) 0.404(2) 0.9590(13)
C11_4 C 0.8509(3) 0.348(2) 0.8775(18)
C12_4 C 0.88760(15) 0.3486(10) 0.8485(9)
C13_4 C 0.9121(2) 0.4143(12) 0.9440(8)
C14_4 C 0.9476(2) 0.4196(13) 0.9242(9)
H9_4 H 0.9641 0.4636 0.9881
C15_4 C 0.95859(14) 0.3593(11) 0.8088(9)
C16_4 C 0.93404(19) 0.2936(10) 0.7133(8)
H10_4 H 0.9414 0.2533 0.6361
C17_4 C 0.89854(17) 0.2883(10) 0.7332(9)
H11_4 H 0.8821 0.2443 0.6693
C18_4 C 0.9961(2) 0.3554(14) 0.7997(13)
loop_
_geom_bond_atom_site_label_1
_geom_bond_atom_site_label_2
_geom_bond_site_symmetry_1
_geom_bond_site_symmetry_2
Zn1 N3 1_555 1_555
N2 N3 1_555 1_555
O1 Zn1 1_555 1_555
O2 Zn1 1_555 1_555
C1 O1 1_555 1_555
C2 C1 1_555 1_555
C3 C2 1_555 1_555
H1 C3 1_555 1_555
C4 C3 1_555 1_555
H2 C4 1_555 1_555
C5 C4 1_555 1_555
C6 C5 1_555 1_555
H3 C6 1_555 1_555
C7 C2 1_555 1_555
H4 C7 1_555 1_555
C8 C5 1_555 1_555
H5 C8 1_555 1_555
C9 N2 1_555 1_555
H6 C9 1_555 1_555
O3 C11 1_555 1_555
O4 C11 1_555 1_555
C11 C12 1_555 1_555
C12 C13 1_555 1_555
C14 C13 1_555 1_555
H9 C14 1_555 1_555
C15 C14 1_555 1_555
C16 C15 1_555 1_555
H10 C16 1_555 1_555
C17 C12 1_555 1_555
H11 C17 1_555 1_555
C18 C8 1_555 1_555
H12 C18 1_555 1_555
Zn2 O3 1_555 1_555
Zn5 N2 1_555 1_555
N7 Zn2 1_555 1_555
N8 Zn1 1_555 1_555
N9 Zn1 1_555 1_555
N10 Zn2 1_555 1_555
O2 C1 1_555 1_555
C6 C7 1_555 1_555
O4 Zn2 1_555 1_555
C15 C18 1_555 1_555
C16 C17 1_555 1_555
N5 N6 1_555 1_555
C19 N5 1_555 1_555
H13 C19 1_555 1_555
Zn6 N5 1_555 1_555
C10 N1 1_555 1_555
H7 C10 1_555 1_555
Zn4 N1 1_555 1_555
C20 N4 1_555 1_555
H14 C20 1_555 1_555
Zn3 N4 1_555 1_555
O3_2 C11_2 1_555 1_555
O4_2 C11_2 1_555 1_555
C11_2 C12_2 1_555 1_555
C12_2 C13_2 1_555 1_555
C14_2 C13_2 1_555 1_555
H9_2 C14_2 1_555 1_555
C15_2 C14_2 1_555 1_555
C16_2 C15_2 1_555 1_555
H10_2 C16_2 1_555 1_555
C17_2 C12_2 1_555 1_555
H11_2 C17_2 1_555 1_555
Zn2_2 O3_2 1_555 1_555
N7_2 Zn2_2 1_555 1_555
N10_2 Zn2_2 1_555 1_555
O4_2 Zn2_2 1_555 1_555
C15_2 C18_2 1_555 1_555
C16_2 C17_2 1_555 1_555
N4_2 C19_2 1_555 1_555
N5_2 N6_2 1_555 1_555
C19_2 N5_2 1_555 1_555
H13_2 C19_2 1_555 1_555
C20_2 N4_2 1_555 1_555
H14_2 C20_2 1_555 1_555
Zn5 N4_2 1_555 1_555
Zn4 N5_2 1_555 1_555
N6_2 C20_2 1_555 1_555
Zn1_2 N3_2 1_555 1_555
N1_2 C9_2 1_555 1_555
N2_2 N3_2 1_555 1_555
N3_2 C10_2 1_555 1_555
O1_2 Zn1_2 1_555 1_555
O2_2 Zn1_2 1_555 1_555
C1_2 O1_2 1_555 1_555
C2_2 C1_2 1_555 1_555
C3_2 C2_2 1_555 1_555
H1_2 C3_2 1_555 1_555
C4_2 C3_2 1_555 1_555
H2_2 C4_2 1_555 1_555
C5_2 C4_2 1_555 1_555
C6_2 C5_2 1_555 1_555
H3_2 C6_2 1_555 1_555
C7_2 C2_2 1_555 1_555
H4_2 C7_2 1_555 1_555
C8_2 C5_2 1_555 1_555
C9_2 N2_2 1_555 1_555
H6_2 C9_2 1_555 1_555
C10_2 N1_2 1_555 1_555
H7_2 C10_2 1_555 1_555
Zn6 N1_2 1_555 1_555
Zn3 N2_2 1_555 1_555
N8_2 Zn1_2 1_555 1_555
N9_2 Zn1_2 1_555 1_555
O2_2 C1_2 1_555 1_555
C6_2 C7_2 1_555 1_555
C20_3 N8 1_555 1_555
H14_3 C20_3 1_555 1_555
C10_3 N7 1_555 1_555
H7_3 C10_3 1_555 1_555
N10_2 N6_3 1_555 1_555
C19_3 N10_2 1_555 1_555
H13_3 C19_3 1_555 1_555
Zn3 N3_3 1_555 1_555
N9_2 N3_3 1_555 1_555
O1_3 Zn3 1_555 1_555
O2_3 Zn3 1_555 1_555
C1_3 O1_3 1_555 1_555
C2_3 C1_3 1_555 1_555
C3_3 C2_3 1_555 1_555
H1_3 C3_3 1_555 1_555
C4_3 C3_3 1_555 1_555
H2_3 C4_3 1_555 1_555
C5_3 C4_3 1_555 1_555
C6_3 C5_3 1_555 1_555
H3_3 C6_3 1_555 1_555
C7_3 C2_3 1_555 1_555
H4_3 C7_3 1_555 1_555
C8_3 C5_3 1_555 1_555
H5_3 C8_3 1_555 1_555
C9_3 N9_2 1_555 1_555
H6_3 C9_3 1_555 1_555
O3_3 C11_3 1_555 1_555
O4_3 C11_3 1_555 1_555
C11_3 C12_3 1_555 1_555
C12_3 C13_3 1_555 1_555
C14_3 C13_3 1_555 1_555
H9_3 C14_3 1_555 1_555
C15_3 C14_3 1_555 1_555
C16_3 C15_3 1_555 1_555
H10_3 C16_3 1_555 1_555
C17_3 C12_3 1_555 1_555
H11_3 C17_3 1_555 1_555
C18_3 C8_3 1_555 1_555
H12_3 C18_3 1_555 1_555
Zn4 O3_3 1_555 1_555
O2_3 C1_3 1_555 1_555
C6_3 C7_3 1_555 1_555
O4_3 Zn4 1_555 1_555
C15_3 C18_3 1_555 1_555
C16_3 C17_3 1_555 1_555
Zn5 N3_4 1_555 1_555
N7_2 C9_4 1_555 1_555
N9 N3_4 1_555 1_555
N3_4 C10_4 1_555 1_555
O1_4 Zn5 1_555 1_555
O2_4 Zn5 1_555 1_555
C1_4 O1_4 1_555 1_555
C2_4 C1_4 1_555 1_555
C3_4 C2_4 1_555 1_555
H1_4 C3_4 1_555 1_555
C4_4 C3_4 1_555 1_555
H2_4 C4_4 1_555 1_555
C5_4 C4_4 1_555 1_555
C6_4 C5_4 1_555 1_555
H3_4 C6_4 1_555 1_555
C7_4 C2_4 1_555 1_555
H4_4 C7_4 1_555 1_555
C8_4 C5_4 1_555 1_555
C9_4 N9 1_555 1_555
H6_4 C9_4 1_555 1_555
C10_4 N7_2 1_555 1_555
H7_4 C10_4 1_555 1_555
O2_4 C1_4 1_555 1_555
C6_4 C7_4 1_555 1_555
N8_2 C19_4 1_555 1_555
N10 N6_4 1_555 1_555
C19_4 N10 1_555 1_555
H13_4 C19_4 1_555 1_555
C20_4 N8_2 1_555 1_555
H14_4 C20_4 1_555 1_555
N6_4 C20_4 1_555 1_555
O3_4 C11_4 1_555 1_555
O4_4 C11_4 1_555 1_555
C11_4 C12_4 1_555 1_555
C12_4 C13_4 1_555 1_555
C14_4 C13_4 1_555 1_555
H9_4 C14_4 1_555 1_555
C15_4 C14_4 1_555 1_555
C16_4 C15_4 1_555 1_555
H10_4 C16_4 1_555 1_555
C17_4 C12_4 1_555 1_555
H11_4 C17_4 1_555 1_555
Zn6 O3_4 1_555 1_555
O4_4 Zn6 1_555 1_555
C15_4 C18_4 1_555 1_555
C16_4 C17_4 1_555 1_555

#END
