
###############################################################################
#
# This file contains modified crystal structure data generated from the
# MOF subset of the Cambridge Structural Database (CSD) v543 
# hosted by the Cambridge Crystallographic Data Centre (CCDC).
#
# This work is licensed under the Creative Commons
# Attribution-NonCommercial-ShareAlike 4.0 International License.
# To view a copy of this license, visit
# http://creativecommons.org/licenses/by-nc-sa/4.0/
# or send a letter to
# Creative Commons, PO Box 1866, Mountain View, CA 94042, USA.
#
# CIF created using the CSD Python API on 29 September 2022
# The structure has been converted into the P1 space group
# The structure has a 3D framework
# The original CSD entry CUQSAK is in the rhombohedral crystal system
# The framework has been calculated to contain at least 10.0% void space
# The void calculation uses a probe of radius 1.32A, grid spacing 0.4
# The framework is charged, counterions have been retained in the structure
#
###############################################################################

data_CUQSAK
_chemical_formula_moiety         '(C792 H594 Cu41 N86 O162 12+)n'
_symmetry_cell_setting           triclinic
_symmetry_space_group_name_H-M   'P 1'
_symmetry_Int_Tables_number      1
_space_group_name_Hall           'P 1'
loop_
_symmetry_equiv_pos_site_id
_symmetry_equiv_pos_as_xyz
1 x,y,z
_cell_length_a                   29.5994(13)
_cell_length_b                   29.5994(13)
_cell_length_c                   52.255(4)
_cell_angle_alpha                90
_cell_angle_beta                 90
_cell_angle_gamma                120
_cell_volume                     39648.3
loop_
_atom_site_label
_atom_site_type_symbol
_atom_site_fract_x
_atom_site_fract_y
_atom_site_fract_z
Cu5 Cu 0.8333 0.1666 0.6667
N8 N 0.8075(2) 0.2023(4) 0.64672(17)
C75 C 0.67847(18) 0.00507(27) 0.66085(7)
C76 C 0.68018(17) 0.04338(26) 0.67684(7)
H56 H 0.6512 0.0360 0.6874
C77 C 0.72432(17) 0.09274(25) 0.67732(7)
H57 H 0.7255 0.1190 0.6882
N10 N 0.76677(16) 0.10371(24) 0.66182(8)
C78 C 0.76507(15) 0.06536(22) 0.64583(8)
H58 H 0.7941 0.0729 0.6352
C79 C 0.72092(17) 0.01603(23) 0.64535(8)
C88 C 0.8014(2) 0.2294(4) 0.63471(8)
C112 C 0.44675(20) 0.01448(13) 0.61149(10)
C113 C 0.40640(20) 0.02568(13) 0.61145(6)
C114 C 0.41736(19) 0.07688(13) 0.61427(9)
H83 H 0.3897 0.0845 0.6142
N14 N 0.46865(20) 0.11687(12) 0.61714(9)
C115 C 0.50901(23) 0.10568(14) 0.61718(8)
H84 H 0.5441 0.1330 0.6191
C116 C 0.49805(21) 0.05448(15) 0.61436(11)
H85 H 0.5256 0.0468 0.6144
Cu15 Cu 0.48534(4) 0.19663(6) 0.61792(2)
Cu16 Cu 0.80337(6) 0.28871(4) 0.61792(2)
N32 N 0.8592(2) 0.1310(4) 0.68661(17)
N38 N 0.89990(16) 0.22962(24) 0.67151(8)
Cu1 Cu 0.28871(4) 0.48534(4) 0.38208(2)
Cu2 Cu 0.3333 0.1667 0.6667
Cu3 Cu 0.3333 0.6667 0.37324(4)
O1 O 0.1068(2) 0.4965(2) 0.56068(19)
O2 O 0.06709(18) 0.45334(17) 0.60542(15)
O3 O 0.05246(16) 0.51718(18) 0.60893(13)
O4 O 0.3808(2) 0.4838(2) 0.53933(12)
O5 O 0.3289(2) 0.5185(2) 0.51169(11)
O6 O 0.2592(3) 0.4348(3) 0.51539(16)
O7 O 0.1991(2) 0.35717(17) 0.66282(11)
O8 O 0.2879(4) 0.3676(4) 0.6436(2)
O9 O 0.3426(4) 0.4031(4) 0.6751(2)
N1 N 0.2821(3) 0.4807(3) 0.42161(13)
N2 N 0.3263(2) 0.5966(4) 0.37433(13)
N3 N 0.3948(3) 0.1925(2) 0.64672(17)
C1 C 0.21580(8) 0.53223(7) 0.61949(5)
C2 C 0.16298(9) 0.50085(9) 0.62482(6)
H1 H 0.1520 0.4877 0.6416
C3 C 0.12629(8) 0.48865(10) 0.60554(7)
C4 C 0.14242(9) 0.50784(10) 0.58094(6)
C5 C 0.19524(9) 0.53921(8) 0.57561(6)
H2 H 0.2063 0.5523 0.5588
C6 C 0.23193(8) 0.55141(6) 0.59489(5)
C7 C 0.28780(9) 0.58787(6) 0.58834(5)
H3 H 0.3065 0.6063 0.6041
H4 H 0.2895 0.6144 0.5762
C8 C 0.31628(8) 0.56164(7) 0.57649(5)
C9 C 0.30965(10) 0.55309(9) 0.55002(5)
H5 H 0.2921 0.5664 0.5400
C10 C 0.33241(11) 0.52077(12) 0.53783(5)
C11 C 0.35722(10) 0.50904(11) 0.55293(6)
C12 C 0.36576(7) 0.51879(10) 0.57992(6)
H6 H 0.3865 0.5089 0.5897
C13 C 0.33946(7) 0.54562(7) 0.59118(5)
C14 C 0.34799(7) 0.55146(8) 0.61970(5)
H7 H 0.3447 0.5813 0.6258
H8 H 0.3836 0.5586 0.6238
C15 C 0.30836(9) 0.50215(9) 0.63318(4)
C16 C 0.31692(10) 0.46143(10) 0.63614(5)
H9 H 0.3494 0.4655 0.6307
C17 C 0.28189(12) 0.41627(10) 0.64630(5)
C18 C 0.23625(12) 0.40721(10) 0.65391(5)
C19 C 0.22316(11) 0.44795(9) 0.65144(4)
H10 H 0.1896 0.4424 0.6559
C20 C 0.26300(10) 0.49651(8) 0.64205(4)
C21 C 0.24588(10) 0.53573(8) 0.64023(4)
H11 H 0.2260 0.5332 0.6559
H12 H 0.2774 0.5708 0.6401
C22 C 0.12063(13) 0.51128(15) 0.53482(7)
H13 H 0.1447 0.5490 0.5339
H14 H 0.0892 0.5023 0.5249
H15 H 0.1376 0.4928 0.5278
C23 C 0.03224(9) 0.47231(15) 0.60516(10)
H16 H 0.0017 0.3730 0.6095
C29 C 0.14362(18) 0.3425(2) 0.66662(13)
H20 H 0.1418 0.3680 0.6780
H21 H 0.1245 0.3078 0.6744
H22 H 0.1279 0.3422 0.6501
C30 C 0.3113(2) 0.3714(4) 0.6569(2)
C31 C 0.3266(2) 0.32153(18) 0.66085(7)
C32 C 0.3632(2) 0.31982(17) 0.67684(7)
H23 H 0.3848 0.3488 0.6874
C33 C 0.36842(19) 0.27568(17) 0.67732(7)
H24 H 0.3935 0.2745 0.6882
N5 N 0.33694(18) 0.23323(16) 0.66182(8)
C34 C 0.30029(16) 0.23493(15) 0.64583(8)
H25 H 0.2788 0.2059 0.6352
C35 C 0.29511(16) 0.27908(17) 0.64535(8)
H26 H 0.2701 0.2802 0.6344
C36 C 0.41042(14) 0.47113(11) 0.55228(7)
H27 H 0.4378 0.5021 0.5610
H28 H 0.4264 0.4572 0.5406
H29 H 0.3893 0.4445 0.5650
C37 C 0.29170(14) 0.46555(13) 0.50495(7)
C38 C 0.29435(14) 0.47921(13) 0.47472(7)
C39 C 0.25244(14) 0.43039(14) 0.46040(8)
H30 H 0.2279 0.3986 0.4683
C40 C 0.25584(16) 0.43956(15) 0.43515(8)
H31 H 0.2343 0.4093 0.4253
C41 C 0.31653(16) 0.52882(14) 0.43168(7)
H32 H 0.3345 0.5596 0.4217
C42 C 0.32254(16) 0.52761(13) 0.45977(7)
H33 H 0.3454 0.5592 0.4684
C43 C 0.3213(2) 0.55149(19) 0.37503(8)
C44 C 0.4280(3) 0.1986(2) 0.63471(8)
Cu4 Cu 0.51466(4) 0.80337(6) 0.38208(2)
O10 O 0.5035(2) 0.6103(3) 0.56068(19)
O11 O 0.54666(17) 0.61375(25) 0.60542(15)
O12 O 0.48282(18) 0.53528(24) 0.60893(13)
O13 O 0.5162(2) 0.8970(3) 0.53933(12)
O14 O 0.4815(2) 0.8104(3) 0.51169(11)
O15 O 0.5652(3) 0.8244(4) 0.51539(16)
O16 O 0.64283(17) 0.84193(26) 0.66282(11)
O17 O 0.6324(4) 0.9203(6) 0.6436(2)
O18 O 0.5969(4) 0.9395(6) 0.6751(2)
N6 N 0.5193(3) 0.8014(4) 0.42161(13)
N7 N 0.4034(4) 0.7297(4) 0.37433(13)
C45 C 0.46777(7) 0.68357(11) 0.61949(5)
C46 C 0.49915(9) 0.66213(13) 0.62482(6)
H34 H 0.5123 0.6643 0.6416
C47 C 0.51135(10) 0.63764(13) 0.60554(7)
C48 C 0.49216(10) 0.63458(13) 0.58094(6)
C49 C 0.46079(8) 0.65603(12) 0.57561(6)
H35 H 0.4477 0.6540 0.5588
C50 C 0.44859(6) 0.68052(10) 0.59489(5)
C51 C 0.41213(6) 0.69993(11) 0.58834(5)
H36 H 0.3937 0.7002 0.6041
H37 H 0.3856 0.6751 0.5762
C52 C 0.43836(7) 0.75464(11) 0.57649(5)
C53 C 0.44691(9) 0.75656(13) 0.55002(5)
H38 H 0.4336 0.7257 0.5400
C54 C 0.47923(12) 0.81164(16) 0.53783(5)
C55 C 0.49096(11) 0.84818(15) 0.55293(6)
C56 C 0.48121(10) 0.84697(12) 0.57992(6)
H39 H 0.4911 0.8776 0.5897
C57 C 0.45438(7) 0.79384(10) 0.59118(5)
C58 C 0.44854(8) 0.79653(11) 0.61970(5)
H40 H 0.4187 0.7634 0.6258
H41 H 0.4414 0.8250 0.6238
C59 C 0.49785(9) 0.80621(13) 0.63318(4)
C60 C 0.53857(10) 0.85549(14) 0.63614(5)
H42 H 0.5345 0.8839 0.6307
C61 C 0.58373(10) 0.86562(16) 0.64630(5)
C62 C 0.59279(10) 0.82904(16) 0.65391(5)
C63 C 0.55205(9) 0.77521(14) 0.65144(4)
H43 H 0.5576 0.7472 0.6559
C64 C 0.50349(8) 0.76649(13) 0.64205(4)
C65 C 0.46427(8) 0.71015(13) 0.64023(4)
H44 H 0.4668 0.6928 0.6559
H45 H 0.4292 0.7066 0.6401
C66 C 0.48872(15) 0.60935(20) 0.53482(7)
H46 H 0.4510 0.5957 0.5339
H47 H 0.4977 0.5869 0.5249
H48 H 0.5072 0.6448 0.5278
C67 C 0.52769(15) 0.55993(17) 0.60516(10)
C68 C 0.56773(15) 0.55325(20) 0.61149(10)
C69 C 0.61928(15) 0.59360(20) 0.61145(6)
H49 H 0.6270 0.6287 0.6095
C70 C 0.65952(14) 0.58264(19) 0.61427(9)
H50 H 0.6948 0.6103 0.6142
N9 N 0.64822(16) 0.53135(20) 0.61714(9)
C71 C 0.59667(18) 0.49099(23) 0.61718(8)
H51 H 0.5889 0.4559 0.6191
C72 C 0.55643(15) 0.50195(21) 0.61436(11)
H52 H 0.5212 0.4744 0.6144
C73 C 0.6575(2) 0.80112(27) 0.66662(13)
H53 H 0.6320 0.7738 0.6780
H54 H 0.6922 0.8167 0.6744
H55 H 0.6578 0.7857 0.6501
C74 C 0.6286(4) 0.9399(4) 0.6569(2)
H59 H 0.7198 0.9899 0.6344
C80 C 0.52887(11) 0.93929(18) 0.55228(7)
H60 H 0.4979 0.9357 0.5610
H61 H 0.5428 0.9692 0.5406
H62 H 0.5555 0.9448 0.5650
C81 C 0.53445(13) 0.82615(19) 0.50495(7)
C82 C 0.52079(13) 0.81514(19) 0.47472(7)
C83 C 0.56961(14) 0.82205(20) 0.46040(8)
H63 H 0.6014 0.8293 0.4683
C84 C 0.56044(15) 0.81628(22) 0.43515(8)
H64 H 0.5907 0.8250 0.4253
C85 C 0.47118(14) 0.78771(21) 0.43168(7)
H65 H 0.4404 0.7749 0.4217
C86 C 0.47239(13) 0.79493(21) 0.45977(7)
H66 H 0.4408 0.7862 0.4684
C87 C 0.44851(19) 0.76981(28) 0.37503(8)
Cu6 Cu 0.19663(6) 0.71129(4) 0.38208(2)
O19 O 0.3897(3) 0.8932(2) 0.56068(19)
O20 O 0.38625(25) 0.93291(18) 0.60542(15)
O21 O 0.46472(24) 0.94754(16) 0.60893(13)
O22 O 0.1030(3) 0.6192(2) 0.53933(12)
O23 O 0.1896(3) 0.6711(2) 0.51169(11)
O24 O 0.1756(4) 0.7408(3) 0.51539(16)
O25 O 0.15807(26) 0.8009(2) 0.66282(11)
O26 O 0.0797(6) 0.7121(4) 0.6436(2)
O27 O 0.0605(6) 0.6574(4) 0.6751(2)
N11 N 0.1986(4) 0.7179(3) 0.42161(13)
N12 N 0.2703(4) 0.6737(2) 0.37433(13)
C89 C 0.31643(11) 0.78420(8) 0.61949(5)
C90 C 0.33787(13) 0.83702(9) 0.62482(6)
H67 H 0.3357 0.8480 0.6416
C91 C 0.36236(13) 0.87371(8) 0.60554(7)
C92 C 0.36542(13) 0.85758(9) 0.58094(6)
C93 C 0.34397(12) 0.80476(9) 0.57561(6)
H68 H 0.3460 0.7937 0.5588
C94 C 0.31948(10) 0.76807(8) 0.59489(5)
C95 C 0.30007(11) 0.71220(9) 0.58834(5)
H69 H 0.2998 0.6935 0.6041
H70 H 0.3249 0.7105 0.5762
C96 C 0.24536(11) 0.68372(8) 0.57649(5)
C97 C 0.24344(13) 0.69035(10) 0.55002(5)
H71 H 0.2743 0.7079 0.5400
C98 C 0.18836(16) 0.66759(11) 0.53783(5)
C99 C 0.15182(15) 0.64278(10) 0.55293(6)
C100 C 0.15303(12) 0.63424(7) 0.57992(6)
H72 H 0.1224 0.6135 0.5897
C101 C 0.20616(10) 0.66054(7) 0.59118(5)
C102 C 0.20347(11) 0.65201(7) 0.61970(5)
H73 H 0.2366 0.6553 0.6258
H74 H 0.1750 0.6164 0.6238
C103 C 0.19379(13) 0.69164(9) 0.63318(4)
C104 C 0.14451(14) 0.68308(10) 0.63614(5)
H75 H 0.1161 0.6506 0.6307
C105 C 0.13438(16) 0.71811(12) 0.64630(5)
C106 C 0.17096(16) 0.76375(12) 0.65391(5)
C107 C 0.22479(14) 0.77684(11) 0.65144(4)
H76 H 0.2528 0.8104 0.6559
C108 C 0.23351(13) 0.73700(10) 0.64205(4)
C109 C 0.28985(13) 0.75412(10) 0.64023(4)
H77 H 0.3072 0.7740 0.6559
H78 H 0.2934 0.7226 0.6401
C110 C 0.39065(20) 0.87937(13) 0.53482(7)
H79 H 0.4043 0.8553 0.5339
H80 H 0.4131 0.9108 0.5249
H81 H 0.3552 0.8624 0.5278
C111 C 0.44007(17) 0.96776(9) 0.60516(10)
H82 H 0.3713 0.9983 0.6095
C117 C 0.19888(27) 0.85638(18) 0.66662(13)
H86 H 0.2262 0.8582 0.6780
H87 H 0.1833 0.8755 0.6744
H88 H 0.2143 0.8721 0.6501
C118 C 0.0601(4) 0.6887(2) 0.6569(2)
H92 H 0.0101 0.7299 0.6344
C124 C 0.06071(18) 0.58958(14) 0.55228(7)
H93 H 0.0643 0.5622 0.5610
H94 H 0.0308 0.5736 0.5406
H95 H 0.0552 0.6107 0.5650
C125 C 0.17385(19) 0.70830(14) 0.50495(7)
C126 C 0.18486(19) 0.70565(14) 0.47472(7)
C127 C 0.17795(20) 0.74756(14) 0.46040(8)
H96 H 0.1707 0.7721 0.4683
C128 C 0.18372(22) 0.74416(16) 0.43515(8)
H97 H 0.1750 0.7657 0.4253
C129 C 0.21229(21) 0.68347(16) 0.43168(7)
H98 H 0.2251 0.6655 0.4217
C130 C 0.20507(21) 0.67746(16) 0.45977(7)
H99 H 0.2138 0.6546 0.4684
C131 C 0.23019(28) 0.6787(2) 0.37503(8)
C156 C 0.01448(13) 0.56773(15) 0.38851(10)
C157 C 0.02568(13) 0.61928(15) 0.38855(6)
C158 C 0.07688(13) 0.65952(14) 0.38573(9)
H116 H 0.0845 0.6948 0.3858
N18 N 0.11687(12) 0.64822(16) 0.38286(9)
C159 C 0.10568(14) 0.59667(18) 0.38282(8)
H117 H 0.1330 0.5889 0.3809
C160 C 0.05448(15) 0.55643(15) 0.38564(11)
H118 H 0.0468 0.5212 0.3856
O37 O 0.4965(2) 0.3897(3) 0.43932(19)
O38 O 0.45334(17) 0.38625(25) 0.39458(15)
O39 O 0.51718(18) 0.46472(24) 0.39107(13)
O40 O 0.4838(2) 0.1030(3) 0.46067(12)
O41 O 0.5185(2) 0.1896(3) 0.48831(11)
O42 O 0.4348(3) 0.1756(4) 0.48461(16)
O43 O 0.35717(17) 0.15807(26) 0.33718(11)
O44 O 0.3676(4) 0.0797(6) 0.3564(2)
O45 O 0.4031(4) 0.0605(6) 0.3249(2)
N20 N 0.4807(3) 0.1986(4) 0.57839(13)
N21 N 0.5966(4) 0.2703(4) 0.62567(13)
C176 C 0.53223(7) 0.31643(11) 0.38051(5)
C177 C 0.50085(9) 0.33787(13) 0.37518(6)
H133 H 0.4877 0.3357 0.3584
C178 C 0.48865(10) 0.36236(13) 0.39446(7)
C179 C 0.50784(10) 0.36542(13) 0.41906(6)
C180 C 0.53921(8) 0.34397(12) 0.42439(6)
H134 H 0.5523 0.3460 0.4412
C181 C 0.55141(6) 0.31948(10) 0.40511(5)
C182 C 0.58787(6) 0.30007(11) 0.41166(5)
H135 H 0.6063 0.2998 0.3959
H136 H 0.6144 0.3249 0.4238
C183 C 0.56164(7) 0.24536(11) 0.42351(5)
C184 C 0.55309(9) 0.24344(13) 0.44998(5)
H137 H 0.5664 0.2743 0.4600
C185 C 0.52077(12) 0.18836(16) 0.46217(5)
C186 C 0.50904(11) 0.15182(15) 0.44707(6)
C187 C 0.51879(10) 0.15303(12) 0.42008(6)
H138 H 0.5089 0.1224 0.4103
C188 C 0.54562(7) 0.20616(10) 0.40882(5)
C189 C 0.55146(8) 0.20347(11) 0.38030(5)
H139 H 0.5813 0.2366 0.3742
H140 H 0.5586 0.1750 0.3762
C190 C 0.50215(9) 0.19379(13) 0.36682(4)
C191 C 0.46143(10) 0.14451(14) 0.36386(5)
H141 H 0.4655 0.1161 0.3693
C192 C 0.41627(10) 0.13438(16) 0.35370(5)
C193 C 0.40721(10) 0.17096(16) 0.34609(5)
C194 C 0.44795(9) 0.22479(14) 0.34856(4)
H142 H 0.4424 0.2528 0.3441
C195 C 0.49651(8) 0.23351(13) 0.35795(4)
C196 C 0.53573(8) 0.28985(13) 0.35977(4)
H143 H 0.5332 0.3072 0.3441
H144 H 0.5708 0.2934 0.3599
C197 C 0.51128(15) 0.39065(20) 0.46518(7)
H145 H 0.5490 0.4043 0.4661
H146 H 0.5023 0.4131 0.4751
H147 H 0.4928 0.3552 0.4722
C198 C 0.47231(15) 0.44007(17) 0.39484(10)
C199 C 0.43227(15) 0.44675(20) 0.38851(10)
C200 C 0.38072(15) 0.40640(20) 0.38855(6)
H148 H 0.3730 0.3713 0.3905
C201 C 0.34048(14) 0.41736(19) 0.38573(9)
H149 H 0.3052 0.3897 0.3858
N22 N 0.35178(16) 0.46865(20) 0.38286(9)
C202 C 0.40333(18) 0.50901(23) 0.38282(8)
H150 H 0.4111 0.5441 0.3809
C203 C 0.44357(15) 0.49805(21) 0.38564(11)
H151 H 0.4788 0.5256 0.3856
C204 C 0.3425(2) 0.19888(27) 0.33338(13)
H152 H 0.3680 0.2262 0.3220
H153 H 0.3078 0.1833 0.3256
H154 H 0.3422 0.2143 0.3499
C205 C 0.3714(4) 0.0601(4) 0.3431(2)
H158 H 0.2802 0.0101 0.3656
C211 C 0.47113(11) 0.06071(18) 0.44772(7)
H159 H 0.5021 0.0643 0.4390
H160 H 0.4572 0.0308 0.4594
H161 H 0.4445 0.0552 0.4350
C212 C 0.46555(13) 0.17385(19) 0.49505(7)
C213 C 0.47921(13) 0.18486(19) 0.52528(7)
C214 C 0.43039(14) 0.17795(20) 0.53960(8)
H162 H 0.3986 0.1707 0.5317
C215 C 0.43956(15) 0.18372(22) 0.56485(8)
H163 H 0.4093 0.1750 0.5747
C216 C 0.52882(14) 0.21229(21) 0.56832(7)
H164 H 0.5596 0.2251 0.5783
C217 C 0.52761(13) 0.20507(21) 0.54023(7)
H165 H 0.5592 0.2138 0.5316
C218 C 0.55149(19) 0.23019(28) 0.62497(8)
N26 N 0.2023(4) 0.3948(3) 0.35328(17)
C249 C 0.00507(27) 0.3266(2) 0.33915(7)
C250 C 0.04338(26) 0.3632(2) 0.32316(7)
H188 H 0.0360 0.3848 0.3126
C251 C 0.09274(25) 0.36842(19) 0.32268(7)
H189 H 0.1190 0.3935 0.3118
N28 N 0.10371(24) 0.33694(18) 0.33818(8)
C252 C 0.06536(22) 0.30029(16) 0.35417(8)
H190 H 0.0729 0.2788 0.3648
C253 C 0.01603(23) 0.29511(16) 0.35465(8)
C262 C 0.2294(4) 0.4280(3) 0.36529(8)
N29 N 0.2719(3) 0.1408(2) 0.68661(17)
C263 C 0.2387(3) 0.1347(2) 0.69862(8)
N30 N 0.6052(3) 0.8075(2) 0.35328(17)
C264 C 0.5720(3) 0.8014(2) 0.36529(8)
Cu13 Cu 0.18133(4) 0.13670(6) 0.71541(2)
Cu14 Cu 0.71129(4) 0.51466(4) 0.61792(2)
Cu18 Cu 0.6666 0.8334 0.3334
Cu20 Cu 0.1667 0.3334 0.3334
Cu21 Cu 0.6667 0.3333 0.62676(4)
N36 N 0.53135(20) 0.88313(12) 0.38286(9)
N37 N 0.32973(18) 0.10010(16) 0.67151(8)
C266 C 0.1986(2) 0.7706(4) 0.36529(8)
C206 C 0.32153(18) 0.99493(27) 0.33915(7)
C207 C 0.31982(17) 0.95662(26) 0.32316(7)
H155 H 0.3488 0.9640 0.3126
C208 C 0.27568(17) 0.90726(25) 0.32268(7)
H156 H 0.2745 0.8810 0.3118
N23 N 0.23323(16) 0.89629(24) 0.33818(8)
C209 C 0.23493(15) 0.93464(22) 0.35417(8)
H157 H 0.2059 0.9271 0.3648
C210 C 0.27908(17) 0.98397(23) 0.35465(8)
Cu19 Cu 0.1666 0.8333 0.3334
C24 C 0.98552(13) 0.43227(15) 0.61149(10)
C25 C 0.97432(13) 0.38072(15) 0.61145(6)
C26 C 0.92312(13) 0.34048(14) 0.61427(9)
H17 H 0.9155 0.3052 0.6142
N4 N 0.88313(12) 0.35178(16) 0.61714(9)
C27 C 0.89432(14) 0.40333(18) 0.61718(8)
H18 H 0.8670 0.4111 0.6191
C28 C 0.94552(15) 0.44357(15) 0.61436(11)
H19 H 0.9532 0.4788 0.6144
Cu7 Cu 0.8334 0.6667 0.6667
N13 N 0.7977(4) 0.6052(3) 0.64672(17)
C119 C 0.99493(27) 0.6734(2) 0.66085(7)
C120 C 0.95662(26) 0.6368(2) 0.67684(7)
H89 H 0.9640 0.6152 0.6874
C121 C 0.90726(25) 0.63158(19) 0.67732(7)
H90 H 0.8810 0.6065 0.6882
N15 N 0.89629(24) 0.66306(18) 0.66182(8)
C122 C 0.93464(22) 0.69971(16) 0.64583(8)
H91 H 0.9271 0.7212 0.6352
C123 C 0.98397(23) 0.70489(16) 0.64535(8)
C132 C 0.7706(4) 0.5720(3) 0.63471(8)
O28 O 0.8932(2) 0.5035(2) 0.43932(19)
O29 O 0.93291(18) 0.54666(17) 0.39458(15)
O30 O 0.94754(16) 0.48282(18) 0.39107(13)
O31 O 0.6192(2) 0.5162(2) 0.46067(12)
O32 O 0.6711(2) 0.4815(2) 0.48831(11)
O33 O 0.7408(3) 0.5652(3) 0.48461(16)
O34 O 0.8009(2) 0.64283(17) 0.33718(11)
O35 O 0.7121(4) 0.6324(4) 0.3564(2)
O36 O 0.6574(4) 0.5969(4) 0.3249(2)
N16 N 0.7179(3) 0.5193(3) 0.57839(13)
N17 N 0.6737(2) 0.4034(4) 0.62567(13)
C133 C 0.78420(8) 0.46777(7) 0.38051(5)
C134 C 0.83702(9) 0.49915(9) 0.37518(6)
H100 H 0.8480 0.5123 0.3584
C135 C 0.87371(8) 0.51135(10) 0.39446(7)
C136 C 0.85758(9) 0.49216(10) 0.41906(6)
C137 C 0.80476(9) 0.46079(8) 0.42439(6)
H101 H 0.7937 0.4477 0.4412
C138 C 0.76807(8) 0.44859(6) 0.40511(5)
C139 C 0.71220(9) 0.41213(6) 0.41166(5)
H102 H 0.6935 0.3937 0.3959
H103 H 0.7105 0.3856 0.4238
C140 C 0.68372(8) 0.43836(7) 0.42351(5)
C141 C 0.69035(10) 0.44691(9) 0.44998(5)
H104 H 0.7079 0.4336 0.4600
C142 C 0.66759(11) 0.47923(12) 0.46217(5)
C143 C 0.64278(10) 0.49096(11) 0.44707(6)
C144 C 0.63424(7) 0.48121(10) 0.42008(6)
H105 H 0.6135 0.4911 0.4103
C145 C 0.66054(7) 0.45438(7) 0.40882(5)
C146 C 0.65201(7) 0.44854(8) 0.38030(5)
H106 H 0.6553 0.4187 0.3742
H107 H 0.6164 0.4414 0.3762
C147 C 0.69164(9) 0.49785(9) 0.36682(4)
C148 C 0.68308(10) 0.53857(10) 0.36386(5)
H108 H 0.6506 0.5345 0.3693
C149 C 0.71811(12) 0.58373(10) 0.35370(5)
C150 C 0.76375(12) 0.59279(10) 0.34609(5)
C151 C 0.77684(11) 0.55205(9) 0.34856(4)
H109 H 0.8104 0.5576 0.3441
C152 C 0.73700(10) 0.50349(8) 0.35795(4)
C153 C 0.75412(10) 0.46427(8) 0.35977(4)
H110 H 0.7740 0.4668 0.3441
H111 H 0.7226 0.4292 0.3599
C154 C 0.87937(13) 0.48872(15) 0.46518(7)
H112 H 0.8553 0.4510 0.4661
H113 H 0.9108 0.4977 0.4751
H114 H 0.8624 0.5072 0.4722
C155 C 0.96776(9) 0.52769(15) 0.39484(10)
H115 H 0.9983 0.6270 0.3905
C161 C 0.85638(18) 0.6575(2) 0.33338(13)
H119 H 0.8582 0.6320 0.3220
H120 H 0.8755 0.6922 0.3256
H121 H 0.8721 0.6578 0.3499
C162 C 0.6887(2) 0.6286(4) 0.3431(2)
C163 C 0.6734(2) 0.67847(18) 0.33915(7)
C164 C 0.6368(2) 0.68018(17) 0.32316(7)
H122 H 0.6152 0.6512 0.3126
C165 C 0.63158(19) 0.72432(17) 0.32268(7)
H123 H 0.6065 0.7255 0.3118
N19 N 0.66306(18) 0.76677(16) 0.33818(8)
C166 C 0.69971(16) 0.76507(15) 0.35417(8)
H124 H 0.7212 0.7941 0.3648
C167 C 0.70489(16) 0.72092(17) 0.35465(8)
H125 H 0.7299 0.7198 0.3656
C168 C 0.58958(14) 0.52887(11) 0.44772(7)
H126 H 0.5622 0.4979 0.4390
H127 H 0.5736 0.5428 0.4594
H128 H 0.6107 0.5555 0.4350
C169 C 0.70830(14) 0.53445(13) 0.49505(7)
C170 C 0.70565(14) 0.52079(13) 0.52528(7)
C171 C 0.74756(14) 0.56961(14) 0.53960(8)
H129 H 0.7721 0.6014 0.5317
C172 C 0.74416(16) 0.56044(15) 0.56485(8)
H130 H 0.7657 0.5907 0.5747
C173 C 0.68347(16) 0.47118(14) 0.56832(7)
H131 H 0.6655 0.4404 0.5783
C174 C 0.67746(16) 0.47239(13) 0.54023(7)
H132 H 0.6546 0.4408 0.5316
C175 C 0.6787(2) 0.44851(19) 0.62497(8)
O46 O 0.6103(3) 0.1068(2) 0.43932(19)
O47 O 0.61375(25) 0.06709(18) 0.39458(15)
O48 O 0.53528(24) 0.05246(16) 0.39107(13)
O49 O 0.8970(3) 0.3808(2) 0.46067(12)
O50 O 0.8104(3) 0.3289(2) 0.48831(11)
O51 O 0.8244(4) 0.2592(3) 0.48461(16)
O52 O 0.84193(26) 0.1991(2) 0.33718(11)
O53 O 0.9203(6) 0.2879(4) 0.3564(2)
O54 O 0.9395(6) 0.3426(4) 0.3249(2)
N24 N 0.8014(4) 0.2821(3) 0.57839(13)
N25 N 0.7297(4) 0.3263(2) 0.62567(13)
C219 C 0.68357(11) 0.21580(8) 0.38051(5)
C220 C 0.66213(13) 0.16298(9) 0.37518(6)
H166 H 0.6643 0.1520 0.3584
C221 C 0.63764(13) 0.12629(8) 0.39446(7)
C222 C 0.63458(13) 0.14242(9) 0.41906(6)
C223 C 0.65603(12) 0.19524(9) 0.42439(6)
H167 H 0.6540 0.2063 0.4412
C224 C 0.68052(10) 0.23193(8) 0.40511(5)
C225 C 0.69993(11) 0.28780(9) 0.41166(5)
H168 H 0.7002 0.3065 0.3959
H169 H 0.6751 0.2895 0.4238
C226 C 0.75464(11) 0.31628(8) 0.42351(5)
C227 C 0.75656(13) 0.30965(10) 0.44998(5)
H170 H 0.7257 0.2921 0.4600
C228 C 0.81164(16) 0.33241(11) 0.46217(5)
C229 C 0.84818(15) 0.35722(10) 0.44707(6)
C230 C 0.84697(12) 0.36576(7) 0.42008(6)
H171 H 0.8776 0.3865 0.4103
C231 C 0.79384(10) 0.33946(7) 0.40882(5)
C232 C 0.79653(11) 0.34799(7) 0.38030(5)
H172 H 0.7634 0.3447 0.3742
H173 H 0.8250 0.3836 0.3762
C233 C 0.80621(13) 0.30836(9) 0.36682(4)
C234 C 0.85549(14) 0.31692(10) 0.36386(5)
H174 H 0.8839 0.3494 0.3693
C235 C 0.86562(16) 0.28189(12) 0.35370(5)
C236 C 0.82904(16) 0.23625(12) 0.34609(5)
C237 C 0.77521(14) 0.22316(11) 0.34856(4)
H175 H 0.7472 0.1896 0.3441
C238 C 0.76649(13) 0.26300(10) 0.35795(4)
C239 C 0.71015(13) 0.24588(10) 0.35977(4)
H176 H 0.6928 0.2260 0.3441
H177 H 0.7066 0.2774 0.3599
C240 C 0.60935(20) 0.12063(13) 0.46518(7)
H178 H 0.5957 0.1447 0.4661
H179 H 0.5869 0.0892 0.4751
H180 H 0.6448 0.1376 0.4722
C241 C 0.55993(17) 0.03224(9) 0.39484(10)
H181 H 0.6287 0.0017 0.3905
C247 C 0.80112(27) 0.14362(18) 0.33338(13)
H185 H 0.7738 0.1418 0.3220
H186 H 0.8167 0.1245 0.3256
H187 H 0.7857 0.1279 0.3499
C248 C 0.9399(4) 0.3113(2) 0.3431(2)
H191 H 0.9899 0.2701 0.3656
C254 C 0.93929(18) 0.41042(14) 0.44772(7)
H192 H 0.9357 0.4378 0.4390
H193 H 0.9692 0.4264 0.4594
H194 H 0.9448 0.3893 0.4350
C255 C 0.82615(19) 0.29170(14) 0.49505(7)
C256 C 0.81514(19) 0.29435(14) 0.52528(7)
C257 C 0.82205(20) 0.25244(14) 0.53960(8)
H195 H 0.8293 0.2279 0.5317
C258 C 0.81628(22) 0.25584(16) 0.56485(8)
H196 H 0.8250 0.2343 0.5747
C259 C 0.78771(21) 0.31653(16) 0.56832(7)
H197 H 0.7749 0.3345 0.5783
C260 C 0.79493(21) 0.32254(16) 0.54023(7)
H198 H 0.7862 0.3454 0.5316
C261 C 0.76981(28) 0.3213(2) 0.62497(8)
N33 N 0.8690(4) 0.7281(3) 0.68661(17)
N39 N 0.77038(24) 0.67027(18) 0.67151(8)
C242 C 0.55325(20) 0.98552(13) 0.38851(10)
C243 C 0.59360(20) 0.97432(13) 0.38855(6)
C244 C 0.58264(19) 0.92312(13) 0.38573(9)
H182 H 0.6103 0.9155 0.3858
C245 C 0.49099(23) 0.89432(14) 0.38282(8)
H183 H 0.4559 0.8670 0.3809
C246 C 0.50195(21) 0.94552(15) 0.38564(11)
H184 H 0.4744 0.9532 0.3856
C263_2 C 0.8653(2) 0.1039(4) 0.69862(8)
Cu13_2 Cu 0.86330(6) 0.04462(7) 0.71541(2)
N30_2 N 0.1925(2) 0.7977(4) 0.35328(17)
C263_3 C 0.8961(4) 0.7613(3) 0.69862(8)
Cu13_3 Cu 0.95538(7) 0.81867(4) 0.71541(2)
Cu5_2 Cu 0.5000 0.4999 0.0000
O18_2 O 0.2636(4) 0.2728(6) 0.0084(2)
H53_2 H 0.2987 0.1071 0.0113
H54_2 H 0.3589 0.1500 0.0077
C76_2 C 0.34685(17) 0.37671(26) 0.01017(7)
H56_2 H 0.3179 0.3693 0.0207
C77_2 C 0.39099(17) 0.42607(25) 0.01065(7)
H57_2 H 0.3922 0.4523 0.0215
N32_2 N 0.5258(2) 0.4644(4) 0.01995(17)
N38_2 N 0.56656(16) 0.56296(24) 0.00485(8)
Cu3_2 Cu -0.0000 0.0000 0.70657(4)
O13_2 O 0.1829(2) 0.2303(3) 0.87266(12)
O14_2 O 0.1482(2) 0.1437(3) 0.84502(11)
O15_2 O 0.2319(3) 0.1577(4) 0.84872(16)
O16_2 O 0.30950(17) 0.17526(26) 0.99615(11)
O17_2 O 0.2991(4) 0.2536(6) 0.9769(2)
N6_2 N 0.1860(3) 0.1347(4) 0.75494(13)
N7_2 N 0.0701(4) 0.0630(4) 0.70766(13)
N8_2 N 0.4742(2) 0.5356(4) 0.98005(17)
C45_2 C 0.13444(7) 0.01690(11) 0.95282(5)
C50_2 C 0.11526(6) 0.01385(10) 0.92822(5)
C51_2 C 0.07880(6) 0.03326(11) 0.92167(5)
H36_2 H 0.0604 0.0335 0.9374
H37_2 H 0.0523 0.0084 0.9095
C52_2 C 0.10503(7) 0.08797(11) 0.90982(5)
C53_2 C 0.11358(9) 0.08989(13) 0.88335(5)
H38_2 H 0.1003 0.0590 0.8733
C54_2 C 0.14590(12) 0.14497(16) 0.87116(5)
C55_2 C 0.15763(11) 0.18151(15) 0.88626(6)
C56_2 C 0.14788(10) 0.18030(12) 0.91325(6)
H39_2 H 0.1578 0.2109 0.9230
C57_2 C 0.12105(7) 0.12717(10) 0.92451(5)
C58_2 C 0.11521(8) 0.12986(11) 0.95303(5)
H40_2 H 0.0854 0.0967 0.9591
H41_2 H 0.1081 0.1583 0.9571
C59_2 C 0.16452(9) 0.13954(13) 0.96651(4)
C60_2 C 0.20524(10) 0.18882(14) 0.96947(5)
H42_2 H 0.2012 0.2172 0.9640
C61_2 C 0.25040(10) 0.19895(16) 0.97963(5)
C62_2 C 0.25946(10) 0.16237(16) 0.98724(5)
C63_2 C 0.21872(9) 0.10854(14) 0.98477(4)
H43_2 H 0.2243 0.0805 0.9892
C64_2 C 0.17016(8) 0.09982(13) 0.97538(4)
C65_2 C 0.13094(8) 0.04348(13) 0.97356(4)
H44_2 H 0.1335 0.0261 0.9892
H45_2 H 0.0959 0.0399 0.9734
C73_2 C 0.3242(2) 0.13445(27) 0.99995(13)
H55_2 H 0.3245 0.1190 0.9834
C74_2 C 0.2953(4) 0.2732(4) 0.9902(2)
C75_2 C 0.34514(18) 0.33840(27) 0.99418(7)
N10_2 N 0.43344(16) 0.43704(24) 0.99515(8)
C78_2 C 0.43174(15) 0.39869(22) 0.97916(8)
H58_2 H 0.4608 0.4062 0.9685
C79_2 C 0.38759(17) 0.34936(23) 0.97868(8)
H59_2 H 0.3865 0.3232 0.9677
C80_2 C 0.19554(11) 0.27262(18) 0.88561(7)
H60_2 H 0.1646 0.2690 0.8943
H61_2 H 0.2095 0.3025 0.8739
H62_2 H 0.2222 0.2781 0.8983
C81_2 C 0.20112(13) 0.15948(19) 0.83828(7)
C82_2 C 0.18746(13) 0.14847(19) 0.80805(7)
C83_2 C 0.23628(14) 0.15538(20) 0.79373(8)
H63_2 H 0.2681 0.1626 0.8016
C84_2 C 0.22711(15) 0.14961(22) 0.76848(8)
H64_2 H 0.2574 0.1583 0.7586
C85_2 C 0.13785(14) 0.12104(21) 0.76501(7)
H65_2 H 0.1071 0.1082 0.7550
C86_2 C 0.13906(13) 0.12826(21) 0.79310(7)
H66_2 H 0.1075 0.1195 0.8017
C87_2 C 0.11518(19) 0.10314(28) 0.70836(8)
C88_2 C 0.4681(2) 0.5627(4) 0.96804(8)
O19_2 O 0.0564(3) 0.2265(2) 0.89401(19)
O20_2 O 0.05292(25) 0.26624(18) 0.93875(15)
O21_2 O 0.13139(24) 0.28087(16) 0.94226(13)
C90_2 C 0.00454(13) 0.17035(9) 0.95815(6)
H67_2 H 0.0024 0.1813 0.9749
C91_2 C 0.02903(13) 0.20704(8) 0.93887(7)
C92_2 C 0.03209(13) 0.19091(9) 0.91427(6)
C93_2 C 0.01064(12) 0.13809(9) 0.90894(6)
H68_2 H 0.0127 0.1270 0.8921
C110_2 C 0.05732(20) 0.21270(13) 0.86815(7)
H79_2 H 0.0710 0.1886 0.8672
H80_2 H 0.0798 0.2441 0.8582
H81_2 H 0.0219 0.1957 0.8611
C111_2 C 0.10674(17) 0.30109(9) 0.93849(10)
C112_2 C 0.11342(20) 0.34781(13) 0.94482(10)
C113_2 C 0.07307(20) 0.35901(13) 0.94478(6)
H82_2 H 0.0380 0.3316 0.9428
C114_2 C 0.08403(19) 0.41021(13) 0.94760(9)
H83_2 H 0.0564 0.4178 0.9475
N14_2 N 0.13532(20) 0.45020(12) 0.95047(9)
C115_2 C 0.17568(23) 0.43901(14) 0.95051(8)
H84_2 H 0.2108 0.4663 0.9524
C116_2 C 0.16472(21) 0.38781(15) 0.94769(11)
H85_2 H 0.1923 0.3801 0.9477
Cu15_2 Cu 0.15201(4) 0.52996(6) 0.95125(2)
Cu16_2 Cu 0.47004(6) 0.62204(4) 0.95125(2)
N36_2 N 0.19802(20) 0.21646(12) 0.71619(9)
Cu2_2 Cu -0.0000 0.5000 0.0000
O9_2 O 0.0093(4) 0.7364(4) 0.0084(2)
C32_2 C 0.0299(2) 0.65315(17) 0.01017(7)
H23_2 H 0.0515 0.6821 0.0207
C33_2 C 0.03509(19) 0.60901(17) 0.01065(7)
H24_2 H 0.0602 0.6078 0.0215
Cu3_3 Cu -0.0000 1.0000 0.70657(4)
O4_2 O 0.0475(2) 0.8171(2) 0.87266(12)
N3_2 N 0.0615(3) 0.5258(2) 0.98005(17)
C11_2 C 0.02389(10) 0.84237(11) 0.88626(6)
C12_2 C 0.03243(7) 0.85212(10) 0.91325(6)
H6_2 H 0.0532 0.8422 0.9230
C13_2 C 0.00613(7) 0.87895(7) 0.92451(5)
C14_2 C 0.01466(7) 0.88479(8) 0.95303(5)
H7_2 H 0.0114 0.9146 0.9591
H8_2 H 0.0503 0.8919 0.9571
H9_2 H 0.0161 0.7988 0.9640
N5_2 N 0.00361(18) 0.56656(16) 0.99515(8)
C36_2 C 0.07709(14) 0.80446(11) 0.88561(7)
H27_2 H 0.1045 0.8354 0.8943
H28_2 H 0.0931 0.7905 0.8739
H29_2 H 0.0560 0.7778 0.8983
H32_2 H 0.0012 0.8929 0.7550
H33_2 H 0.0121 0.8925 0.8017
C44_2 C 0.0947(3) 0.5319(2) 0.96804(8)
O10_2 O 0.1702(2) 0.9436(3) 0.89401(19)
O11_2 O 0.21333(17) 0.94708(25) 0.93875(15)
O12_2 O 0.14949(18) 0.86861(24) 0.94226(13)
C46_2 C 0.16582(9) 0.99546(13) 0.95815(6)
H34_2 H 0.1790 0.9976 0.9749
C47_2 C 0.17802(10) 0.97097(13) 0.93887(7)
C48_2 C 0.15883(10) 0.96791(13) 0.91427(6)
C49_2 C 0.12746(8) 0.98936(12) 0.90894(6)
H35_2 H 0.1144 0.9873 0.8921
C66_2 C 0.15539(15) 0.94268(20) 0.86815(7)
H46_2 H 0.1177 0.9290 0.8672
H47_2 H 0.1644 0.9202 0.8582
H48_2 H 0.1739 0.9781 0.8611
C67_2 C 0.19436(15) 0.89326(17) 0.93849(10)
C68_2 C 0.23440(15) 0.88658(20) 0.94482(10)
C69_2 C 0.28595(15) 0.92693(20) 0.94478(6)
H49_2 H 0.2937 0.9620 0.9428
C70_2 C 0.32619(14) 0.91597(19) 0.94760(9)
H50_2 H 0.3615 0.9436 0.9475
N9_2 N 0.31489(16) 0.86468(20) 0.95047(9)
C71_2 C 0.26334(18) 0.82432(23) 0.95051(8)
H51_2 H 0.2556 0.7892 0.9524
C72_2 C 0.22310(15) 0.83528(21) 0.94769(11)
H52_2 H 0.1879 0.8077 0.9477
O37_2 O 0.1632(2) 0.7230(3) 0.77265(19)
O38_2 O 0.12001(17) 0.71958(25) 0.72791(15)
O39_2 O 0.18385(18) 0.79805(24) 0.72440(13)
O40_2 O 0.1505(2) 0.4363(3) 0.79400(12)
O41_2 O 0.1852(2) 0.5229(3) 0.82164(11)
O42_2 O 0.1015(3) 0.5089(4) 0.81794(16)
O43_2 O 0.02384(17) 0.49140(26) 0.67051(11)
O44_2 O 0.0343(4) 0.4130(6) 0.6897(2)
O45_2 O 0.0698(4) 0.3938(6) 0.6582(2)
N20_2 N 0.1474(3) 0.5319(4) 0.91172(13)
N21_2 N 0.2633(4) 0.6036(4) 0.95900(13)
C176_2 C 0.19890(7) 0.64976(11) 0.71384(5)
C177_2 C 0.16752(9) 0.67120(13) 0.70851(6)
H133_2 H 0.1544 0.6690 0.6917
C178_2 C 0.15532(10) 0.69569(13) 0.72779(7)
C179_2 C 0.17451(10) 0.69875(13) 0.75239(6)
C180_2 C 0.20588(8) 0.67730(12) 0.75772(6)
H134_2 H 0.2190 0.6793 0.7745
C181_2 C 0.21808(6) 0.65281(10) 0.73844(5)
C182_2 C 0.25454(6) 0.63340(11) 0.74499(5)
H135_2 H 0.2730 0.6331 0.7292
H136_2 H 0.2811 0.6582 0.7571
C183_2 C 0.22831(7) 0.57869(11) 0.75684(5)
C184_2 C 0.21976(9) 0.57677(13) 0.78331(5)
H137_2 H 0.2331 0.6076 0.7933
C185_2 C 0.18744(12) 0.52169(16) 0.79550(5)
C186_2 C 0.17571(11) 0.48515(15) 0.78040(6)
C187_2 C 0.18546(10) 0.48636(12) 0.75341(6)
H138_2 H 0.1756 0.4557 0.7436
C188_2 C 0.21229(7) 0.53949(10) 0.74215(5)
C189_2 C 0.21813(8) 0.53680(11) 0.71363(5)
H139_2 H 0.2480 0.5699 0.7075
H140_2 H 0.2253 0.5083 0.7095
C190_2 C 0.16882(9) 0.52712(13) 0.70015(4)
C191_2 C 0.12810(10) 0.47784(14) 0.69719(5)
H141_2 H 0.1322 0.4494 0.7026
C192_2 C 0.08294(10) 0.46771(16) 0.68703(5)
C193_2 C 0.07388(10) 0.50429(16) 0.67942(5)
C194_2 C 0.11462(9) 0.55812(14) 0.68189(4)
H142_2 H 0.1091 0.5861 0.6774
C195_2 C 0.16318(8) 0.56684(13) 0.69128(4)
C196_2 C 0.20240(8) 0.62318(13) 0.69310(4)
H143_2 H 0.1999 0.6405 0.6774
H144_2 H 0.2375 0.6267 0.6932
C197_2 C 0.17795(15) 0.72398(20) 0.79851(7)
H145_2 H 0.2157 0.7376 0.7994
H146_2 H 0.1690 0.7464 0.8084
H147_2 H 0.1595 0.6885 0.8055
C198_2 C 0.13898(15) 0.77340(17) 0.72817(10)
C199_2 C 0.09894(15) 0.78008(20) 0.72184(10)
C200_2 C 0.04739(15) 0.73973(20) 0.72188(6)
H148_2 H 0.0397 0.7046 0.7238
C201_2 C 0.00715(14) 0.75069(19) 0.71906(9)
N22_2 N 0.01845(16) 0.80198(20) 0.71619(9)
C202_2 C 0.07000(18) 0.84234(23) 0.71615(8)
H150_2 H 0.0778 0.8774 0.7142
C203_2 C 0.11024(15) 0.83138(21) 0.71897(11)
H151_2 H 0.1455 0.8589 0.7189
C204_2 C 0.0092(2) 0.53221(27) 0.66671(13)
H152_2 H 0.0347 0.5595 0.6553
H154_2 H 0.0089 0.5476 0.6832
C205_2 C 0.0381(4) 0.3934(4) 0.6764(2)
H155_2 H 0.0155 0.2973 0.6459
C211_2 C 0.13780(11) 0.39404(18) 0.78105(7)
H159_2 H 0.1688 0.3976 0.7723
H160_2 H 0.1239 0.3641 0.7927
H161_2 H 0.1112 0.3885 0.7683
C212_2 C 0.13222(13) 0.50718(19) 0.82838(7)
C213_2 C 0.14588(13) 0.51819(19) 0.85861(7)
C214_2 C 0.09706(14) 0.51128(20) 0.87293(8)
H162_2 H 0.0653 0.5040 0.8650
C215_2 C 0.10623(15) 0.51705(22) 0.89818(8)
H163_2 H 0.0760 0.5083 0.9080
C216_2 C 0.19549(14) 0.54562(21) 0.90165(7)
H164_2 H 0.2263 0.5584 0.9116
C217_2 C 0.19428(13) 0.53840(21) 0.87356(7)
H165_2 H 0.2259 0.5471 0.8649
C218_2 C 0.21816(19) 0.56352(28) 0.95830(8)
Cu14_2 Cu 0.37796(4) 0.84799(4) 0.95125(2)
Cu21_2 Cu 0.3334 0.6666 0.96009(4)
Cu7_2 Cu 0.5001 0.0000 0.0000
H86_2 H 0.8929 0.1915 0.0113
H87_2 H 0.8500 0.2088 0.0077
N33_2 N 0.5356(4) 0.0615(3) 0.01995(17)
N39_2 N 0.43704(24) 0.00361(18) 0.00485(8)
Cu3_4 Cu 1.0000 0.0000 0.70657(4)
O23_2 O 0.8563(3) 0.0044(2) 0.84502(11)
O24_2 O 0.8423(4) 0.0741(3) 0.84872(16)
O25_2 O 0.82474(26) 0.1342(2) 0.99615(11)
O26_2 O 0.7464(6) 0.0454(4) 0.9769(2)
N11_2 N 0.8653(4) 0.0512(3) 0.75494(13)
N12_2 N 0.9370(4) 0.0070(2) 0.70766(13)
C89_2 C 0.98310(11) 0.11753(8) 0.95282(5)
C94_2 C 0.98615(10) 0.10140(8) 0.92822(5)
C95_2 C 0.96674(11) 0.04553(9) 0.92167(5)
H69_2 H 0.9665 0.0268 0.9374
H70_2 H 0.9916 0.0438 0.9095
C96_2 C 0.91203(11) 0.01705(8) 0.90982(5)
C97_2 C 0.91011(13) 0.02368(10) 0.88335(5)
H71_2 H 0.9410 0.0412 0.8733
C98_2 C 0.85503(16) 0.00092(11) 0.87116(5)
C103_2 C 0.86046(13) 0.02497(9) 0.96651(4)
C104_2 C 0.81118(14) 0.01641(10) 0.96947(5)
C105_2 C 0.80105(16) 0.05144(12) 0.97963(5)
C106_2 C 0.83763(16) 0.09708(12) 0.98724(5)
C107_2 C 0.89146(14) 0.11017(11) 0.98477(4)
H76_2 H 0.9195 0.1437 0.9892
C108_2 C 0.90018(13) 0.07033(10) 0.97538(4)
C109_2 C 0.95652(13) 0.08745(10) 0.97356(4)
H77_2 H 0.9739 0.1073 0.9892
H78_2 H 0.9601 0.0559 0.9734
C117_2 C 0.86555(27) 0.18971(18) 0.99995(13)
H88_2 H 0.8810 0.2054 0.9834
C118_2 C 0.7268(4) 0.0220(2) 0.9902(2)
C119_2 C 0.66160(27) 0.0067(2) 0.99418(7)
C122_2 C 0.60131(22) 0.03304(16) 0.97916(8)
H91_2 H 0.5938 0.0545 0.9685
C123_2 C 0.65064(23) 0.03822(16) 0.97868(8)
H92_2 H 0.6768 0.0632 0.9677
C125_2 C 0.84052(19) 0.04163(14) 0.83828(7)
C126_2 C 0.85153(19) 0.03898(14) 0.80805(7)
C127_2 C 0.84462(20) 0.08089(14) 0.79373(8)
H96_2 H 0.8374 0.1054 0.8016
C128_2 C 0.85039(22) 0.07749(16) 0.76848(8)
H97_2 H 0.8417 0.0990 0.7586
C129_2 C 0.87896(21) 0.01680(16) 0.76501(7)
C130_2 C 0.87174(21) 0.01079(16) 0.79310(7)
C131_2 C 0.89686(28) 0.0120(2) 0.70836(8)
H116_2 H 0.7512 0.0281 0.7191
H120_2 H 0.5422 0.0255 0.6589
C163_2 C 0.3401(2) 0.01180(18) 0.67248(7)
C164_2 C 0.3035(2) 0.01351(17) 0.65649(7)
C165_2 C 0.29825(19) 0.05765(17) 0.65601(7)
H123_2 H 0.2732 0.0588 0.6451
C166_2 C 0.36638(16) 0.09840(15) 0.68750(8)
H124_2 H 0.3879 0.1274 0.6981
C167_2 C 0.37156(16) 0.05425(17) 0.68798(8)
H125_2 H 0.3966 0.0531 0.6989
Cu2_3 Cu 1.0000 0.5000 0.0000
H20_2 H 0.8085 0.7013 0.0113
H21_2 H 0.7912 0.6411 0.0077
Cu7_3 Cu 0.5001 1.0000 0.0000
O27_2 O 0.7272(6) 0.9907(4) 0.0084(2)
C120_2 C 0.62329(26) 0.9701(2) 0.01017(7)
H89_2 H 0.6307 0.9485 0.0207
C121_2 C 0.57393(25) 0.96491(19) 0.01065(7)
H90_2 H 0.5477 0.9398 0.0215
N29_2 N 0.9385(3) 0.4742(2) 0.01995(17)
C263_4 C 0.9053(3) 0.4681(2) 0.03196(8)
Cu13_4 Cu 0.84799(4) 0.47004(6) 0.04875(2)
N37_2 N 0.99639(18) 0.43344(16) 0.00485(8)
Cu3_5 Cu 1.0000 1.0000 0.70657(4)
O1_2 O 0.7735(2) 0.8298(2) 0.89401(19)
O2_2 O 0.73376(18) 0.78667(17) 0.93875(15)
O3_2 O 0.71913(16) 0.85051(18) 0.94226(13)
O5_2 O 0.9956(2) 0.8518(2) 0.84502(11)
O6_2 O 0.9259(3) 0.7681(3) 0.84872(16)
O7_2 O 0.8658(2) 0.69050(17) 0.99615(11)
O8_2 O 0.9546(4) 0.7009(4) 0.9769(2)
N1_2 N 0.9488(3) 0.8140(3) 0.75494(13)
N2_2 N 0.9930(2) 0.9299(4) 0.70766(13)
C1_2 C 0.88247(8) 0.86556(7) 0.95282(5)
C2_2 C 0.82965(9) 0.83418(9) 0.95815(6)
H1_2 H 0.8187 0.8210 0.9749
C3_2 C 0.79296(8) 0.82198(10) 0.93887(7)
C4_2 C 0.80909(9) 0.84117(10) 0.91427(6)
C5_2 C 0.86191(9) 0.87254(8) 0.90894(6)
H2_2 H 0.8730 0.8856 0.8921
C6_2 C 0.89860(8) 0.88474(6) 0.92822(5)
C7_2 C 0.95447(9) 0.92120(6) 0.92167(5)
H3_2 H 0.9732 0.9396 0.9374
H4_2 H 0.9562 0.9477 0.9095
C8_2 C 0.98295(8) 0.89497(7) 0.90982(5)
C9_2 C 0.97632(10) 0.88642(9) 0.88335(5)
H5_2 H 0.9588 0.8997 0.8733
C10_2 C 0.99908(11) 0.85410(12) 0.87116(5)
C15_2 C 0.97503(9) 0.83548(9) 0.96651(4)
C16_2 C 0.98359(10) 0.79476(10) 0.96947(5)
C17_2 C 0.94856(12) 0.74960(10) 0.97963(5)
C18_2 C 0.90292(12) 0.74054(10) 0.98724(5)
C19_2 C 0.88983(11) 0.78128(9) 0.98477(4)
H10_2 H 0.8563 0.7757 0.9892
C20_2 C 0.92967(10) 0.82984(8) 0.97538(4)
C21_2 C 0.91255(10) 0.86906(8) 0.97356(4)
H11_2 H 0.8927 0.8665 0.9892
H12_2 H 0.9441 0.9041 0.9734
C22_2 C 0.78730(13) 0.84461(15) 0.86815(7)
H13_2 H 0.8114 0.8823 0.8672
H14_2 H 0.7559 0.8356 0.8582
H15_2 H 0.8043 0.8261 0.8611
C23_2 C 0.69891(9) 0.80564(15) 0.93849(10)
C24_2 C 0.65219(13) 0.76560(15) 0.94482(10)
C25_2 C 0.64099(13) 0.71405(15) 0.94478(6)
H16_2 H 0.6684 0.7063 0.9428
C26_2 C 0.58979(13) 0.67381(14) 0.94760(9)
H17_2 H 0.5822 0.6385 0.9475
N4_2 N 0.54980(12) 0.68511(16) 0.95047(9)
C27_2 C 0.56099(14) 0.73666(18) 0.95051(8)
H18_2 H 0.5337 0.7444 0.9524
C28_2 C 0.61219(15) 0.77690(15) 0.94769(11)
H19_2 H 0.6199 0.8121 0.9477
C29_2 C 0.81029(18) 0.6758(2) 0.99995(13)
H22_2 H 0.7946 0.6755 0.9834
C30_2 C 0.9780(2) 0.7047(4) 0.9902(2)
C31_2 C 0.9933(2) 0.65486(18) 0.99418(7)
C34_2 C 0.96696(16) 0.56826(15) 0.97916(8)
H25_2 H 0.9455 0.5392 0.9685
C35_2 C 0.96178(16) 0.61241(17) 0.97868(8)
H26_2 H 0.9368 0.6135 0.9677
C37_2 C 0.95837(14) 0.79888(13) 0.83828(7)
C38_2 C 0.96102(14) 0.81254(13) 0.80805(7)
C39_2 C 0.91911(14) 0.76372(14) 0.79373(8)
H30_2 H 0.8946 0.7319 0.8016
C40_2 C 0.92251(16) 0.77289(15) 0.76848(8)
H31_2 H 0.9010 0.7426 0.7586
C41_2 C 0.98320(16) 0.86215(14) 0.76501(7)
C42_2 C 0.98921(16) 0.86094(13) 0.79310(7)
C43_2 C 0.9880(2) 0.88482(19) 0.70836(8)
O22_2 O 0.7697(3) 0.9525(2) 0.87266(12)
N13_2 N 0.4644(4) 0.9385(3) 0.98005(17)
C99_2 C 0.81849(15) 0.97611(10) 0.88626(6)
C100_2 C 0.81970(12) 0.96757(7) 0.91325(6)
H72_2 H 0.7891 0.9468 0.9230
C101_2 C 0.87283(10) 0.99387(7) 0.92451(5)
C102_2 C 0.87014(11) 0.98534(7) 0.95303(5)
H73_2 H 0.9033 0.9886 0.9591
H74_2 H 0.8417 0.9497 0.9571
H75_2 H 0.7828 0.9839 0.9640
N15_2 N 0.56296(24) 0.99639(18) 0.99515(8)
C124_2 C 0.72738(18) 0.92291(14) 0.88561(7)
H93_2 H 0.7310 0.8955 0.8943
H94_2 H 0.6975 0.9069 0.8739
H95_2 H 0.7219 0.9440 0.8983
H98_2 H 0.8918 0.9988 0.7550
H99_2 H 0.8805 0.9879 0.8017
C132_2 C 0.4373(4) 0.9053(3) 0.96804(8)
O28_2 O 0.5599(2) 0.8368(2) 0.77265(19)
O29_2 O 0.59958(18) 0.87999(17) 0.72791(15)
O30_2 O 0.61421(16) 0.81615(18) 0.72440(13)
O31_2 O 0.2859(2) 0.8495(2) 0.79400(12)
O32_2 O 0.3378(2) 0.8148(2) 0.82164(11)
O33_2 O 0.4075(3) 0.8985(3) 0.81794(16)
O34_2 O 0.4676(2) 0.97616(17) 0.67051(11)
O35_2 O 0.3788(4) 0.9657(4) 0.6897(2)
O36_2 O 0.3241(4) 0.9302(4) 0.6582(2)
N16_2 N 0.3846(3) 0.8526(3) 0.91172(13)
N17_2 N 0.3404(2) 0.7367(4) 0.95900(13)
C133_2 C 0.45087(8) 0.80110(7) 0.71384(5)
C134_2 C 0.50369(9) 0.83248(9) 0.70851(6)
H100_2 H 0.5147 0.8456 0.6917
C135_2 C 0.54038(8) 0.84468(10) 0.72779(7)
C136_2 C 0.52425(9) 0.82549(10) 0.75239(6)
C137_2 C 0.47143(9) 0.79412(8) 0.75772(6)
H101_2 H 0.4604 0.7810 0.7745
C138_2 C 0.43474(8) 0.78192(6) 0.73844(5)
C139_2 C 0.37887(9) 0.74546(6) 0.74499(5)
H102_2 H 0.3602 0.7270 0.7292
H103_2 H 0.3772 0.7189 0.7571
C140_2 C 0.35039(8) 0.77169(7) 0.75684(5)
C141_2 C 0.35702(10) 0.78024(9) 0.78331(5)
H104_2 H 0.3746 0.7669 0.7933
C142_2 C 0.33426(11) 0.81256(12) 0.79550(5)
C143_2 C 0.30945(10) 0.82429(11) 0.78040(6)
C144_2 C 0.30091(7) 0.81454(10) 0.75341(6)
H105_2 H 0.2802 0.8244 0.7436
C145_2 C 0.32721(7) 0.78771(7) 0.74215(5)
C146_2 C 0.31868(7) 0.78187(8) 0.71363(5)
H106_2 H 0.3220 0.7520 0.7075
H107_2 H 0.2831 0.7747 0.7095
C147_2 C 0.35831(9) 0.83118(9) 0.70015(4)
C148_2 C 0.34975(10) 0.87190(10) 0.69719(5)
H108_2 H 0.3173 0.8678 0.7026
C149_2 C 0.38478(12) 0.91706(10) 0.68703(5)
C150_2 C 0.43042(12) 0.92612(10) 0.67942(5)
C151_2 C 0.44351(11) 0.88538(9) 0.68189(4)
H109_2 H 0.4771 0.8909 0.6774
C152_2 C 0.40367(10) 0.83682(8) 0.69128(4)
C153_2 C 0.42079(10) 0.79760(8) 0.69310(4)
H110_2 H 0.4407 0.8001 0.6774
H111_2 H 0.3893 0.7625 0.6932
C154_2 C 0.54604(13) 0.82205(15) 0.79851(7)
H112_2 H 0.5220 0.7843 0.7994
H113_2 H 0.5775 0.8310 0.8084
H114_2 H 0.5291 0.8405 0.8055
C155_2 C 0.63443(9) 0.86102(15) 0.72817(10)
C156_2 C 0.68115(13) 0.90106(15) 0.72184(10)
C157_2 C 0.69235(13) 0.95261(15) 0.72188(6)
H115_2 H 0.6650 0.9603 0.7238
C158_2 C 0.74355(13) 0.99285(14) 0.71906(9)
N18_2 N 0.78354(12) 0.98155(16) 0.71619(9)
C159_2 C 0.77235(14) 0.93000(18) 0.71615(8)
H117_2 H 0.7997 0.9222 0.7142
C160_2 C 0.72115(15) 0.88976(15) 0.71897(11)
H118_2 H 0.7135 0.8545 0.7189
C161_2 C 0.52305(18) 0.9908(2) 0.66671(13)
H119_2 H 0.5249 0.9653 0.6553
H121_2 H 0.5388 0.9911 0.6832
C162_2 C 0.3554(2) 0.9619(4) 0.6764(2)
H122_2 H 0.2819 0.9845 0.6459
C168_2 C 0.25625(14) 0.86220(11) 0.78105(7)
H126_2 H 0.2289 0.8312 0.7723
H127_2 H 0.2403 0.8761 0.7927
H128_2 H 0.2774 0.8888 0.7683
C169_2 C 0.37497(14) 0.86778(13) 0.82838(7)
C170_2 C 0.37232(14) 0.85412(13) 0.85861(7)
C171_2 C 0.41423(14) 0.90294(14) 0.87293(8)
H129_2 H 0.4388 0.9347 0.8650
C172_2 C 0.41083(16) 0.89377(15) 0.89818(8)
H130_2 H 0.4324 0.9240 0.9080
C173_2 C 0.35014(16) 0.80451(14) 0.90165(7)
H131_2 H 0.3322 0.7737 0.9116
C174_2 C 0.34413(16) 0.80572(13) 0.87356(7)
H132_2 H 0.3213 0.7741 0.8649
C175_2 C 0.3454(2) 0.78184(19) 0.95830(8)
H149_2 H 0.9719 0.7230 0.7191
H153_2 H 0.9745 0.5166 0.6589
C206_2 C 0.98820(18) 0.32826(27) 0.67248(7)
C207_2 C 0.98649(17) 0.28995(26) 0.65649(7)
C208_2 C 0.94235(17) 0.24059(25) 0.65601(7)
H156_2 H 0.9412 0.2143 0.6451
C209_2 C 0.90160(15) 0.26797(22) 0.68750(8)
H157_2 H 0.8726 0.2604 0.6981
C210_2 C 0.94575(17) 0.31730(23) 0.68798(8)
H158_2 H 0.9469 0.3434 0.6989
O46_2 O 0.2770(3) 0.4401(2) 0.77265(19)
O47_2 O 0.28042(25) 0.40042(18) 0.72791(15)
O48_2 O 0.20195(24) 0.38579(16) 0.72440(13)
O49_2 O 0.5637(3) 0.7141(2) 0.79400(12)
O50_2 O 0.4771(3) 0.6622(2) 0.82164(11)
O51_2 O 0.4911(4) 0.5925(3) 0.81794(16)
O52_2 O 0.50860(26) 0.5324(2) 0.67051(11)
O53_2 O 0.5870(6) 0.6212(4) 0.6897(2)
O54_2 O 0.6062(6) 0.6759(4) 0.6582(2)
N24_2 N 0.4681(4) 0.6154(3) 0.91172(13)
N25_2 N 0.3964(4) 0.6596(2) 0.95900(13)
C219_2 C 0.35024(11) 0.54913(8) 0.71384(5)
C220_2 C 0.32880(13) 0.49631(9) 0.70851(6)
H166_2 H 0.3310 0.4853 0.6917
C221_2 C 0.30431(13) 0.45962(8) 0.72779(7)
C222_2 C 0.30125(13) 0.47575(9) 0.75239(6)
C223_2 C 0.32270(12) 0.52857(9) 0.75772(6)
H167_2 H 0.3207 0.5396 0.7745
C224_2 C 0.34719(10) 0.56526(8) 0.73844(5)
C225_2 C 0.36660(11) 0.62113(9) 0.74499(5)
H168_2 H 0.3669 0.6398 0.7292
H169_2 H 0.3418 0.6228 0.7571
C226_2 C 0.42131(11) 0.64961(8) 0.75684(5)
C227_2 C 0.42323(13) 0.64298(10) 0.78331(5)
H170_2 H 0.3924 0.6254 0.7933
C228_2 C 0.47831(16) 0.66574(11) 0.79550(5)
C229_2 C 0.51485(15) 0.69055(10) 0.78040(6)
C230_2 C 0.51364(12) 0.69909(7) 0.75341(6)
H171_2 H 0.5443 0.7198 0.7436
C231_2 C 0.46051(10) 0.67279(7) 0.74215(5)
C232_2 C 0.46320(11) 0.68132(7) 0.71363(5)
H172_2 H 0.4301 0.6780 0.7075
H173_2 H 0.4917 0.7169 0.7095
C233_2 C 0.47288(13) 0.64169(9) 0.70015(4)
C234_2 C 0.52216(14) 0.65025(10) 0.69719(5)
H174_2 H 0.5506 0.6827 0.7026
C235_2 C 0.53229(16) 0.61522(12) 0.68703(5)
C236_2 C 0.49571(16) 0.56958(12) 0.67942(5)
C237_2 C 0.44188(14) 0.55649(11) 0.68189(4)
H175_2 H 0.4139 0.5229 0.6774
C238_2 C 0.43316(13) 0.59633(10) 0.69128(4)
C239_2 C 0.37682(13) 0.57921(10) 0.69310(4)
H176_2 H 0.3595 0.5593 0.6774
H177_2 H 0.3733 0.6107 0.6932
C240_2 C 0.27602(20) 0.45396(13) 0.79851(7)
H178_2 H 0.2624 0.4780 0.7994
H179_2 H 0.2536 0.4225 0.8084
H180_2 H 0.3115 0.4709 0.8055
C241_2 C 0.22660(17) 0.36557(9) 0.72817(10)
C242_2 C 0.21992(20) 0.31885(13) 0.72184(10)
C243_2 C 0.26027(20) 0.30765(13) 0.72188(6)
H181_2 H 0.2954 0.3350 0.7238
C244_2 C 0.24931(19) 0.25645(13) 0.71906(9)
H182_2 H 0.2770 0.2488 0.7191
C245_2 C 0.15766(23) 0.22765(14) 0.71615(8)
H183_2 H 0.1226 0.2003 0.7142
C246_2 C 0.16862(21) 0.27885(15) 0.71897(11)
H184_2 H 0.1411 0.2865 0.7189
C247_2 C 0.46779(27) 0.47695(18) 0.66671(13)
H185_2 H 0.4405 0.4751 0.6553
H186_2 H 0.4834 0.4578 0.6589
H187_2 H 0.4524 0.4612 0.6832
C248_2 C 0.6066(4) 0.6446(2) 0.6764(2)
C249_2 C 0.67174(27) 0.6599(2) 0.67248(7)
C250_2 C 0.71005(26) 0.6965(2) 0.65649(7)
H188_2 H 0.7027 0.7181 0.6459
C251_2 C 0.75941(25) 0.70175(19) 0.65601(7)
H189_2 H 0.7857 0.7268 0.6451
C252_2 C 0.73203(22) 0.63362(16) 0.68750(8)
H190_2 H 0.7396 0.6121 0.6981
C253_2 C 0.68270(23) 0.62844(16) 0.68798(8)
H191_2 H 0.6566 0.6034 0.6989
C254_2 C 0.60596(18) 0.74375(14) 0.78105(7)
H192_2 H 0.6024 0.7711 0.7723
H193_2 H 0.6359 0.7597 0.7927
H194_2 H 0.6115 0.7226 0.7683
C255_2 C 0.49282(19) 0.62503(14) 0.82838(7)
C256_2 C 0.48181(19) 0.62768(14) 0.85861(7)
C257_2 C 0.48872(20) 0.58577(14) 0.87293(8)
H195_2 H 0.4960 0.5612 0.8650
C258_2 C 0.48295(22) 0.58917(16) 0.89818(8)
H196_2 H 0.4917 0.5676 0.9080
C259_2 C 0.45438(21) 0.64986(16) 0.90165(7)
H197_2 H 0.4416 0.6678 0.9116
C260_2 C 0.46160(21) 0.65587(16) 0.87356(7)
H198_2 H 0.4529 0.6787 0.8649
C261_2 C 0.43648(28) 0.6546(2) 0.95830(8)
C263_5 C 0.5319(2) 0.4373(4) 0.03196(8)
Cu13_5 Cu 0.52996(6) 0.37796(7) 0.04875(2)
C263_6 C 0.5627(4) 0.0947(3) 0.03196(8)
Cu13_6 Cu 0.62204(7) 0.15201(4) 0.04875(2)
N8_3 N 0.1408(2) 0.8690(4) 0.31339(17)
H50_3 H 0.0281 0.2770 0.2809
H54_3 H 0.0255 0.4834 0.3411
C75_3 C 0.01180(18) 0.67174(27) 0.32752(7)
C76_3 C 0.01351(17) 0.71005(26) 0.34351(7)
C77_3 C 0.05765(17) 0.75941(25) 0.34399(7)
H57_3 H 0.0588 0.7857 0.3549
N10_3 N 0.10010(16) 0.77038(24) 0.32849(8)
C78_3 C 0.09840(15) 0.73203(22) 0.31250(8)
H58_3 H 0.1274 0.7396 0.3019
C79_3 C 0.05425(17) 0.68270(23) 0.31202(8)
H59_3 H 0.0531 0.6566 0.3011
C88_3 C 0.1347(2) 0.8961(4) 0.30138(8)
Cu14_3 Cu 0.04462(4) 0.18133(4) 0.28459(2)
Cu16_3 Cu 0.13670(6) 0.95538(4) 0.28459(2)
Cu21_3 Cu 0.0000 -0.0000 0.29343(4)
Cu21_4 Cu 0.0000 1.0000 0.29343(4)
Cu3_6 Cu 0.6666 0.3334 0.03991(4)
O1_3 O 0.4401(2) 0.1632(2) 0.22735(19)
O2_3 O 0.40042(18) 0.12001(17) 0.27209(15)
O3_3 O 0.38579(16) 0.18385(18) 0.27560(13)
O4_3 O 0.7141(2) 0.1505(2) 0.20600(12)
O5_3 O 0.6622(2) 0.1852(2) 0.17836(11)
O6_3 O 0.5925(3) 0.1015(3) 0.18206(16)
O7_3 O 0.5324(2) 0.02384(17) 0.32949(11)
O8_3 O 0.6212(4) 0.0343(4) 0.3103(2)
O9_3 O 0.6759(4) 0.0698(4) 0.3418(2)
N1_3 N 0.6154(3) 0.1474(3) 0.08828(13)
N2_3 N 0.6596(2) 0.2633(4) 0.04100(13)
C1_3 C 0.54913(8) 0.19890(7) 0.28616(5)
C2_3 C 0.49631(9) 0.16752(9) 0.29149(6)
H1_3 H 0.4853 0.1544 0.3083
C3_3 C 0.45962(8) 0.15532(10) 0.27221(7)
C4_3 C 0.47575(9) 0.17451(10) 0.24761(6)
C5_3 C 0.52857(9) 0.20588(8) 0.24228(6)
H2_3 H 0.5396 0.2190 0.2255
C6_3 C 0.56526(8) 0.21808(6) 0.26156(5)
C7_3 C 0.62113(9) 0.25454(6) 0.25501(5)
H3_3 H 0.6398 0.2730 0.2708
H4_3 H 0.6228 0.2811 0.2429
C8_3 C 0.64961(8) 0.22831(7) 0.24316(5)
C9_3 C 0.64298(10) 0.21976(9) 0.21669(5)
H5_3 H 0.6254 0.2331 0.2067
C10_3 C 0.66574(11) 0.18744(12) 0.20450(5)
C11_3 C 0.69055(10) 0.17571(11) 0.21960(6)
C12_3 C 0.69909(7) 0.18546(10) 0.24659(6)
H6_3 H 0.7198 0.1756 0.2564
C13_3 C 0.67279(7) 0.21229(7) 0.25785(5)
C14_3 C 0.68132(7) 0.21813(8) 0.28637(5)
H7_3 H 0.6780 0.2480 0.2925
H8_3 H 0.7169 0.2253 0.2905
C15_3 C 0.64169(9) 0.16882(9) 0.29985(4)
C16_3 C 0.65025(10) 0.12810(10) 0.30281(5)
H9_3 H 0.6827 0.1322 0.2974
C17_3 C 0.61522(12) 0.08294(10) 0.31297(5)
C18_3 C 0.56958(12) 0.07388(10) 0.32058(5)
C19_3 C 0.55649(11) 0.11462(9) 0.31811(4)
H10_3 H 0.5229 0.1091 0.3226
C20_3 C 0.59633(10) 0.16318(8) 0.30872(4)
C21_3 C 0.57921(10) 0.20240(8) 0.30690(4)
H11_3 H 0.5593 0.1999 0.3226
H12_3 H 0.6107 0.2375 0.3068
C22_3 C 0.45396(13) 0.17795(15) 0.20149(7)
H13_3 H 0.4780 0.2157 0.2006
H14_3 H 0.4225 0.1690 0.1916
H15_3 H 0.4709 0.1595 0.1945
C23_3 C 0.36557(9) 0.13898(15) 0.27183(10)
C24_3 C 0.31885(13) 0.09894(15) 0.27816(10)
C25_3 C 0.30765(13) 0.04739(15) 0.27812(6)
H16_3 H 0.3350 0.0397 0.2762
C26_3 C 0.25645(13) 0.00715(14) 0.28094(9)
N4_3 N 0.21646(12) 0.01845(16) 0.28381(9)
C27_3 C 0.22765(14) 0.07000(18) 0.28385(8)
H18_3 H 0.2003 0.0778 0.2858
C28_3 C 0.27885(15) 0.11024(15) 0.28103(11)
H19_3 H 0.2865 0.1455 0.2811
C29_3 C 0.47695(18) 0.0092(2) 0.33329(13)
H20_3 H 0.4751 0.0347 0.3447
H22_3 H 0.4612 0.0089 0.3168
C30_3 C 0.6446(2) 0.0381(4) 0.3236(2)
H23_3 H 0.7181 0.0155 0.3541
C36_3 C 0.74375(14) 0.13780(11) 0.21895(7)
H27_3 H 0.7711 0.1688 0.2277
H28_3 H 0.7597 0.1239 0.2073
H29_3 H 0.7226 0.1112 0.2317
C37_3 C 0.62503(14) 0.13222(13) 0.17162(7)
C38_3 C 0.62768(14) 0.14588(13) 0.14139(7)
C39_3 C 0.58577(14) 0.09706(14) 0.12707(8)
H30_3 H 0.5612 0.0653 0.1350
C40_3 C 0.58917(16) 0.10623(15) 0.10182(8)
H31_3 H 0.5676 0.0760 0.0920
C41_3 C 0.64986(16) 0.19549(14) 0.09835(7)
H32_3 H 0.6678 0.2263 0.0884
C42_3 C 0.65587(16) 0.19428(13) 0.12644(7)
H33_3 H 0.6787 0.2259 0.1351
C43_3 C 0.6546(2) 0.21816(19) 0.04170(8)
O10_3 O 0.8368(2) 0.2770(3) 0.22735(19)
O11_3 O 0.87999(17) 0.28042(25) 0.27209(15)
O12_3 O 0.81615(18) 0.20195(24) 0.27560(13)
O13_3 O 0.8495(2) 0.5637(3) 0.20600(12)
O14_3 O 0.8148(2) 0.4771(3) 0.17836(11)
O15_3 O 0.8985(3) 0.4911(4) 0.18206(16)
O16_3 O 0.97616(17) 0.50860(26) 0.32949(11)
O17_3 O 0.9657(4) 0.5870(6) 0.3103(2)
O18_3 O 0.9302(4) 0.6062(6) 0.3418(2)
N6_3 N 0.8526(3) 0.4681(4) 0.08828(13)
N7_3 N 0.7367(4) 0.3964(4) 0.04100(13)
C45_3 C 0.80110(7) 0.35024(11) 0.28616(5)
C46_3 C 0.83248(9) 0.32880(13) 0.29149(6)
H34_3 H 0.8456 0.3310 0.3083
C47_3 C 0.84468(10) 0.30431(13) 0.27221(7)
C48_3 C 0.82549(10) 0.30125(13) 0.24761(6)
C49_3 C 0.79412(8) 0.32270(12) 0.24228(6)
H35_3 H 0.7810 0.3207 0.2255
C50_3 C 0.78192(6) 0.34719(10) 0.26156(5)
C51_3 C 0.74546(6) 0.36660(11) 0.25501(5)
H36_3 H 0.7270 0.3669 0.2708
H37_3 H 0.7189 0.3418 0.2429
C52_3 C 0.77169(7) 0.42131(11) 0.24316(5)
C53_3 C 0.78024(9) 0.42323(13) 0.21669(5)
H38_3 H 0.7669 0.3924 0.2067
C54_3 C 0.81256(12) 0.47831(16) 0.20450(5)
C55_3 C 0.82429(11) 0.51485(15) 0.21960(6)
C56_3 C 0.81454(10) 0.51364(12) 0.24659(6)
H39_3 H 0.8244 0.5443 0.2564
C57_3 C 0.78771(7) 0.46051(10) 0.25785(5)
C58_3 C 0.78187(8) 0.46320(11) 0.28637(5)
H40_3 H 0.7520 0.4301 0.2925
H41_3 H 0.7747 0.4917 0.2905
C59_3 C 0.83118(9) 0.47288(13) 0.29985(4)
C60_3 C 0.87190(10) 0.52216(14) 0.30281(5)
H42_3 H 0.8678 0.5506 0.2974
C61_3 C 0.91706(10) 0.53229(16) 0.31297(5)
C62_3 C 0.92612(10) 0.49571(16) 0.32058(5)
C63_3 C 0.88538(9) 0.44188(14) 0.31811(4)
H43_3 H 0.8909 0.4139 0.3226
C64_3 C 0.83682(8) 0.43316(13) 0.30872(4)
C65_3 C 0.79760(8) 0.37682(13) 0.30690(4)
H44_3 H 0.8001 0.3595 0.3226
H45_3 H 0.7625 0.3733 0.3068
C66_3 C 0.82205(15) 0.27602(20) 0.20149(7)
H46_3 H 0.7843 0.2624 0.2006
H47_3 H 0.8310 0.2536 0.1916
H48_3 H 0.8405 0.3115 0.1945
C67_3 C 0.86102(15) 0.22660(17) 0.27183(10)
C68_3 C 0.90106(15) 0.21992(20) 0.27816(10)
C69_3 C 0.95261(15) 0.26027(20) 0.27812(6)
H49_3 H 0.9603 0.2954 0.2762
C70_3 C 0.99285(14) 0.24931(19) 0.28094(9)
N9_3 N 0.98155(16) 0.19802(20) 0.28381(9)
C71_3 C 0.93000(18) 0.15766(23) 0.28385(8)
H51_3 H 0.9222 0.1226 0.2858
C72_3 C 0.88976(15) 0.16862(21) 0.28103(11)
H52_3 H 0.8545 0.1411 0.2811
C73_3 C 0.9908(2) 0.46779(27) 0.33329(13)
H53_3 H 0.9653 0.4405 0.3447
H55_3 H 0.9911 0.4524 0.3168
C74_3 C 0.9619(4) 0.6066(4) 0.3236(2)
H56_3 H 0.9845 0.7027 0.3541
C80_3 C 0.86220(11) 0.60596(18) 0.21895(7)
H60_3 H 0.8312 0.6024 0.2277
H61_3 H 0.8761 0.6359 0.2073
H62_3 H 0.8888 0.6115 0.2317
C81_3 C 0.86778(13) 0.49282(19) 0.17162(7)
C82_3 C 0.85412(13) 0.48181(19) 0.14139(7)
C83_3 C 0.90294(14) 0.48872(20) 0.12707(8)
H63_3 H 0.9347 0.4960 0.1350
C84_3 C 0.89377(15) 0.48295(22) 0.10182(8)
H64_3 H 0.9240 0.4917 0.0920
C85_3 C 0.80451(14) 0.45438(21) 0.09835(7)
H65_3 H 0.7737 0.4416 0.0884
C86_3 C 0.80572(13) 0.46160(21) 0.12644(7)
H66_3 H 0.7741 0.4529 0.1351
C87_3 C 0.78184(19) 0.43648(28) 0.04170(8)
O19_3 O 0.7230(3) 0.5599(2) 0.22735(19)
O20_3 O 0.71958(25) 0.59958(18) 0.27209(15)
O21_3 O 0.79805(24) 0.61421(16) 0.27560(13)
O22_3 O 0.4363(3) 0.2859(2) 0.20600(12)
O23_3 O 0.5229(3) 0.3378(2) 0.17836(11)
O24_3 O 0.5089(4) 0.4075(3) 0.18206(16)
O25_3 O 0.49140(26) 0.4676(2) 0.32949(11)
O26_3 O 0.4130(6) 0.3788(4) 0.3103(2)
O27_3 O 0.3938(6) 0.3241(4) 0.3418(2)
N11_3 N 0.5319(4) 0.3846(3) 0.08828(13)
N12_3 N 0.6036(4) 0.3404(2) 0.04100(13)
N13_3 N 0.1310(4) 0.2719(3) 0.31339(17)
C89_3 C 0.64976(11) 0.45087(8) 0.28616(5)
C90_3 C 0.67120(13) 0.50369(9) 0.29149(6)
H67_3 H 0.6690 0.5147 0.3083
C91_3 C 0.69569(13) 0.54038(8) 0.27221(7)
C92_3 C 0.69875(13) 0.52425(9) 0.24761(6)
C93_3 C 0.67730(12) 0.47143(9) 0.24228(6)
H68_3 H 0.6793 0.4604 0.2255
C94_3 C 0.65281(10) 0.43474(8) 0.26156(5)
C95_3 C 0.63340(11) 0.37887(9) 0.25501(5)
H69_3 H 0.6331 0.3602 0.2708
H70_3 H 0.6582 0.3772 0.2429
C96_3 C 0.57869(11) 0.35039(8) 0.24316(5)
C97_3 C 0.57677(13) 0.35702(10) 0.21669(5)
H71_3 H 0.6076 0.3746 0.2067
C98_3 C 0.52169(16) 0.33426(11) 0.20450(5)
C99_3 C 0.48515(15) 0.30945(10) 0.21960(6)
C100_3 C 0.48636(12) 0.30091(7) 0.24659(6)
H72_3 H 0.4557 0.2802 0.2564
C101_3 C 0.53949(10) 0.32721(7) 0.25785(5)
C102_3 C 0.53680(11) 0.31868(7) 0.28637(5)
H73_3 H 0.5699 0.3220 0.2925
H74_3 H 0.5083 0.2831 0.2905
C103_3 C 0.52712(13) 0.35831(9) 0.29985(4)
C104_3 C 0.47784(14) 0.34975(10) 0.30281(5)
H75_3 H 0.4494 0.3173 0.2974
C105_3 C 0.46771(16) 0.38478(12) 0.31297(5)
C106_3 C 0.50429(16) 0.43042(12) 0.32058(5)
C107_3 C 0.55812(14) 0.44351(11) 0.31811(4)
H76_3 H 0.5861 0.4771 0.3226
C108_3 C 0.56684(13) 0.40367(10) 0.30872(4)
C109_3 C 0.62318(13) 0.42079(10) 0.30690(4)
H77_3 H 0.6405 0.4407 0.3226
H78_3 H 0.6267 0.3893 0.3068
C110_3 C 0.72398(20) 0.54604(13) 0.20149(7)
H79_3 H 0.7376 0.5220 0.2006
H80_3 H 0.7464 0.5775 0.1916
H81_3 H 0.6885 0.5291 0.1945
C111_3 C 0.77340(17) 0.63443(9) 0.27183(10)
C112_3 C 0.78008(20) 0.68115(13) 0.27816(10)
C113_3 C 0.73973(20) 0.69235(13) 0.27812(6)
H82_3 H 0.7046 0.6650 0.2762
C114_3 C 0.75069(19) 0.74355(13) 0.28094(9)
H83_3 H 0.7230 0.7512 0.2809
N14_3 N 0.80198(20) 0.78354(12) 0.28381(9)
C115_3 C 0.84234(23) 0.77235(14) 0.28385(8)
H84_3 H 0.8774 0.7997 0.2858
C116_3 C 0.83138(21) 0.72115(15) 0.28103(11)
H85_3 H 0.8589 0.7135 0.2811
C117_3 C 0.53221(27) 0.52305(18) 0.33329(13)
H86_3 H 0.5595 0.5249 0.3447
H87_3 H 0.5166 0.5422 0.3411
H88_3 H 0.5476 0.5388 0.3168
C118_3 C 0.3934(4) 0.3554(2) 0.3236(2)
C119_3 C 0.32826(27) 0.3401(2) 0.32752(7)
C120_3 C 0.28995(26) 0.3035(2) 0.34351(7)
H89_3 H 0.2973 0.2819 0.3541
C121_3 C 0.24059(25) 0.29825(19) 0.34399(7)
H90_3 H 0.2143 0.2732 0.3549
N15_3 N 0.22962(24) 0.32973(18) 0.32849(8)
C122_3 C 0.26797(22) 0.36638(16) 0.31250(8)
H91_3 H 0.2604 0.3879 0.3019
C123_3 C 0.31730(23) 0.37156(16) 0.31202(8)
H92_3 H 0.3434 0.3966 0.3011
C124_3 C 0.39404(18) 0.25625(14) 0.21895(7)
H93_3 H 0.3976 0.2289 0.2277
H94_3 H 0.3641 0.2403 0.2073
H95_3 H 0.3885 0.2774 0.2317
C125_3 C 0.50718(19) 0.37497(14) 0.17162(7)
C126_3 C 0.51819(19) 0.37232(14) 0.14139(7)
C127_3 C 0.51128(20) 0.41423(14) 0.12707(8)
H96_3 H 0.5040 0.4388 0.1350
C128_3 C 0.51705(22) 0.41083(16) 0.10182(8)
H97_3 H 0.5083 0.4324 0.0920
C129_3 C 0.54562(21) 0.35014(16) 0.09835(7)
H98_3 H 0.5584 0.3322 0.0884
C130_3 C 0.53840(21) 0.34413(16) 0.12644(7)
H99_3 H 0.5471 0.3213 0.1351
C131_3 C 0.56352(28) 0.3454(2) 0.04170(8)
C132_3 C 0.1039(4) 0.2387(3) 0.30138(8)
O28_3 O 0.2265(2) 0.1702(2) 0.10599(19)
O29_3 O 0.26624(18) 0.21333(17) 0.06125(15)
O30_3 O 0.28087(16) 0.14949(18) 0.05774(13)
O32_3 O 0.0044(2) 0.1482(2) 0.15498(11)
O33_3 O 0.0741(3) 0.2319(3) 0.15128(16)
O34_3 O 0.1342(2) 0.30950(17) 0.00385(11)
O35_3 O 0.0454(4) 0.2991(4) 0.0231(2)
N16_3 N 0.0512(3) 0.1860(3) 0.24506(13)
N17_3 N 0.0070(2) 0.0701(4) 0.29234(13)
C133_3 C 0.11753(8) 0.13444(7) 0.04718(5)
C134_3 C 0.17035(9) 0.16582(9) 0.04185(6)
H100_3 H 0.1813 0.1790 0.0251
C135_3 C 0.20704(8) 0.17802(10) 0.06113(7)
C136_3 C 0.19091(9) 0.15883(10) 0.08573(6)
C137_3 C 0.13809(9) 0.12746(8) 0.09106(6)
H101_3 H 0.1270 0.1144 0.1079
C138_3 C 0.10140(8) 0.11526(6) 0.07178(5)
C139_3 C 0.04553(9) 0.07880(6) 0.07833(5)
H102_3 H 0.0268 0.0604 0.0626
H103_3 H 0.0438 0.0523 0.0905
C140_3 C 0.01705(8) 0.10503(7) 0.09018(5)
C141_3 C 0.02368(10) 0.11358(9) 0.11665(5)
H104_3 H 0.0412 0.1003 0.1267
C142_3 C 0.00092(11) 0.14590(12) 0.12884(5)
C147_3 C 0.02497(9) 0.16452(9) 0.03349(4)
C148_3 C 0.01641(10) 0.20524(10) 0.03053(5)
C149_3 C 0.05144(12) 0.25040(10) 0.02037(5)
C150_3 C 0.09708(12) 0.25946(10) 0.01276(5)
C151_3 C 0.11017(11) 0.21872(9) 0.01523(4)
H109_3 H 0.1437 0.2243 0.0108
C152_3 C 0.07033(10) 0.17016(8) 0.02462(4)
C153_3 C 0.08745(10) 0.13094(8) 0.02644(4)
H110_3 H 0.1073 0.1335 0.0108
H111_3 H 0.0559 0.0959 0.0266
C154_3 C 0.21270(13) 0.15539(15) 0.13185(7)
H112_3 H 0.1886 0.1177 0.1328
H113_3 H 0.2441 0.1644 0.1418
H114_3 H 0.1957 0.1739 0.1389
C155_3 C 0.30109(9) 0.19436(15) 0.06151(10)
C156_3 C 0.34781(13) 0.23440(15) 0.05518(10)
C157_3 C 0.35901(13) 0.28595(15) 0.05522(6)
H115_3 H 0.3316 0.2937 0.0572
C158_3 C 0.41021(13) 0.32619(14) 0.05240(9)
H116_3 H 0.4178 0.3615 0.0525
N18_3 N 0.45020(12) 0.31489(16) 0.04953(9)
C159_3 C 0.43901(14) 0.26334(18) 0.04949(8)
H117_3 H 0.4663 0.2556 0.0476
C160_3 C 0.38781(15) 0.22310(15) 0.05231(11)
H118_3 H 0.3801 0.1879 0.0523
C161_3 C 0.18971(18) 0.3242(2) 0.00005(13)
H121_3 H 0.2054 0.3245 0.0166
C162_3 C 0.0220(2) 0.2953(4) 0.0098(2)
C163_3 C 0.0067(2) 0.34514(18) 0.00582(7)
C166_3 C 0.03304(16) 0.43174(15) 0.02084(8)
H124_3 H 0.0545 0.4608 0.0315
C167_3 C 0.03822(16) 0.38759(17) 0.02132(8)
H125_3 H 0.0632 0.3865 0.0323
C169_3 C 0.04163(14) 0.20112(13) 0.16172(7)
C170_3 C 0.03898(14) 0.18746(13) 0.19195(7)
C171_3 C 0.08089(14) 0.23628(14) 0.20627(8)
H129_3 H 0.1054 0.2681 0.1984
C172_3 C 0.07749(16) 0.22711(15) 0.23152(8)
H130_3 H 0.0990 0.2574 0.2414
C173_3 C 0.01680(16) 0.13785(14) 0.23499(7)
C174_3 C 0.01079(16) 0.13906(13) 0.20690(7)
C175_3 C 0.0120(2) 0.11518(19) 0.29164(8)
O37_3 O 0.8298(2) 0.0564(3) 0.10599(19)
O38_3 O 0.78667(17) 0.05292(25) 0.06125(15)
O39_3 O 0.85051(18) 0.13139(24) 0.05774(13)
C177_3 C 0.83418(9) 0.00454(13) 0.04185(6)
H133_3 H 0.8210 0.0024 0.0251
C178_3 C 0.82198(10) 0.02903(13) 0.06113(7)
C179_3 C 0.84117(10) 0.03209(13) 0.08573(6)
C180_3 C 0.87254(8) 0.01064(12) 0.09106(6)
H134_3 H 0.8856 0.0127 0.1079
C197_3 C 0.84461(15) 0.05732(20) 0.13185(7)
H145_3 H 0.8823 0.0710 0.1328
H146_3 H 0.8356 0.0798 0.1418
H147_3 H 0.8261 0.0219 0.1389
C198_3 C 0.80564(15) 0.10674(17) 0.06151(10)
C199_3 C 0.76560(15) 0.11342(20) 0.05518(10)
C200_3 C 0.71405(15) 0.07307(20) 0.05522(6)
H148_3 H 0.7063 0.0380 0.0572
C201_3 C 0.67381(14) 0.08403(19) 0.05240(9)
H149_3 H 0.6385 0.0564 0.0525
N22_3 N 0.68511(16) 0.13532(20) 0.04953(9)
C202_3 C 0.73666(18) 0.17568(23) 0.04949(8)
H150_3 H 0.7444 0.2108 0.0476
C203_3 C 0.77690(15) 0.16472(21) 0.05231(11)
H151_3 H 0.8121 0.1923 0.0523
O49_3 O 0.2303(3) 0.0475(2) 0.12734(12)
C229_3 C 0.18151(15) 0.02389(10) 0.11374(6)
C230_3 C 0.18030(12) 0.03243(7) 0.08675(6)
H171_3 H 0.2109 0.0532 0.0770
C231_3 C 0.12717(10) 0.00613(7) 0.07549(5)
C232_3 C 0.12986(11) 0.01466(7) 0.04697(5)
H172_3 H 0.0967 0.0114 0.0409
H173_3 H 0.1583 0.0503 0.0429
H174_3 H 0.2172 0.0161 0.0360
C254_3 C 0.27262(18) 0.07709(14) 0.11439(7)
H192_3 H 0.2690 0.1045 0.1057
H193_3 H 0.3025 0.0931 0.1261
H194_3 H 0.2781 0.0560 0.1017
H197_3 H 0.1082 0.0012 0.2450
H198_3 H 0.1195 0.0121 0.1983
Cu15_3 Cu 0.81867(4) 0.86330(6) 0.28459(2)
Cu21_5 Cu 1.0000 -0.0000 0.29343(4)
N36_3 N 0.86468(20) 0.54980(12) 0.04953(9)
H119_3 H 0.1915 0.2987 0.9887
H120_3 H 0.2088 0.3589 0.9923
O54_3 O 0.2728(6) 0.0093(4) 0.9916(2)
C250_3 C 0.37671(26) 0.0299(2) 0.98983(7)
H188_3 H 0.3693 0.0515 0.9793
C251_3 C 0.42607(25) 0.03509(19) 0.98935(7)
H189_3 H 0.4523 0.0602 0.9785
N3_3 N 0.7281(3) 0.8592(2) 0.31339(17)
H17_3 H 0.2488 0.9719 0.2809
H21_3 H 0.4578 0.9745 0.3411
C31_3 C 0.6599(2) 0.98820(18) 0.32752(7)
C32_3 C 0.6965(2) 0.98649(17) 0.34351(7)
C33_3 C 0.70175(19) 0.94235(17) 0.34399(7)
H24_3 H 0.7268 0.9412 0.3549
N5_3 N 0.67027(18) 0.89990(16) 0.32849(8)
C34_3 C 0.63362(16) 0.90160(15) 0.31250(8)
H25_3 H 0.6121 0.8726 0.3019
C35_3 C 0.62844(16) 0.94575(17) 0.31202(8)
H26_3 H 0.6034 0.9469 0.3011
C44_3 C 0.7613(3) 0.8653(2) 0.30138(8)
O40_3 O 0.8171(2) 0.7697(3) 0.12734(12)
O41_3 O 0.8518(2) 0.8563(3) 0.15498(11)
O42_3 O 0.7681(3) 0.8423(4) 0.15128(16)
O43_3 O 0.69050(17) 0.82474(26) 0.00385(11)
O44_3 O 0.7009(4) 0.7464(6) 0.0231(2)
N20_3 N 0.8140(3) 0.8653(4) 0.24506(13)
N21_3 N 0.9299(4) 0.9370(4) 0.29234(13)
C176_3 C 0.86556(7) 0.98310(11) 0.04718(5)
C181_3 C 0.88474(6) 0.98615(10) 0.07178(5)
C182_3 C 0.92120(6) 0.96674(11) 0.07833(5)
H135_3 H 0.9396 0.9665 0.0626
H136_3 H 0.9477 0.9916 0.0905
C183_3 C 0.89497(7) 0.91203(11) 0.09018(5)
C184_3 C 0.88642(9) 0.91011(13) 0.11665(5)
H137_3 H 0.8997 0.9410 0.1267
C185_3 C 0.85410(12) 0.85503(16) 0.12884(5)
C186_3 C 0.84237(11) 0.81849(15) 0.11374(6)
C187_3 C 0.85212(10) 0.81970(12) 0.08675(6)
H138_3 H 0.8422 0.7891 0.0770
C188_3 C 0.87895(7) 0.87283(10) 0.07549(5)
C189_3 C 0.88479(8) 0.87014(11) 0.04697(5)
H139_3 H 0.9146 0.9033 0.0409
H140_3 H 0.8919 0.8417 0.0429
C190_3 C 0.83548(9) 0.86046(13) 0.03349(4)
C191_3 C 0.79476(10) 0.81118(14) 0.03053(5)
H141_3 H 0.7988 0.7828 0.0360
C192_3 C 0.74960(10) 0.80105(16) 0.02037(5)
C193_3 C 0.74054(10) 0.83763(16) 0.01276(5)
C194_3 C 0.78128(9) 0.89146(14) 0.01523(4)
H142_3 H 0.7757 0.9195 0.0108
C195_3 C 0.82984(8) 0.90018(13) 0.02462(4)
C196_3 C 0.86906(8) 0.95652(13) 0.02644(4)
H143_3 H 0.8665 0.9739 0.0108
H144_3 H 0.9041 0.9601 0.0266
C204_3 C 0.6758(2) 0.86555(27) 0.00005(13)
H154_3 H 0.6755 0.8810 0.0166
C205_3 C 0.7047(4) 0.7268(4) 0.0098(2)
C206_3 C 0.65486(18) 0.66160(27) 0.00582(7)
C209_3 C 0.56826(15) 0.60131(22) 0.02084(8)
H157_3 H 0.5392 0.5938 0.0315
C210_3 C 0.61241(17) 0.65064(23) 0.02132(8)
H158_3 H 0.6135 0.6768 0.0323
C211_3 C 0.80446(11) 0.72738(18) 0.11439(7)
H159_3 H 0.8354 0.7310 0.1057
H160_3 H 0.7905 0.6975 0.1261
H161_3 H 0.7778 0.7219 0.1017
C212_3 C 0.79888(13) 0.84052(19) 0.16172(7)
C213_3 C 0.81254(13) 0.85153(19) 0.19195(7)
C214_3 C 0.76372(14) 0.84462(20) 0.20627(8)
H162_3 H 0.7319 0.8374 0.1984
C215_3 C 0.77289(15) 0.85039(22) 0.23152(8)
H163_3 H 0.7426 0.8417 0.2414
C216_3 C 0.86215(14) 0.87896(21) 0.23499(7)
H164_3 H 0.8929 0.8918 0.2450
C217_3 C 0.86094(13) 0.87174(21) 0.20690(7)
H165_3 H 0.8925 0.8805 0.1983
C218_3 C 0.88482(19) 0.89686(28) 0.29164(8)
O50_3 O 0.1437(3) 0.9956(2) 0.15498(11)
O51_3 O 0.1577(4) 0.9259(3) 0.15128(16)
O52_3 O 0.17526(26) 0.8658(2) 0.00385(11)
O53_3 O 0.2536(6) 0.9546(4) 0.0231(2)
N24_3 N 0.1347(4) 0.9488(3) 0.24506(13)
N25_3 N 0.0630(4) 0.9930(2) 0.29234(13)
C219_3 C 0.01690(11) 0.88247(8) 0.04718(5)
C224_3 C 0.01385(10) 0.89860(8) 0.07178(5)
C225_3 C 0.03326(11) 0.95447(9) 0.07833(5)
H168_3 H 0.0335 0.9732 0.0626
H169_3 H 0.0084 0.9562 0.0905
C226_3 C 0.08797(11) 0.98295(8) 0.09018(5)
C227_3 C 0.08989(13) 0.97632(10) 0.11665(5)
H170_3 H 0.0590 0.9588 0.1267
C228_3 C 0.14497(16) 0.99908(11) 0.12884(5)
C233_3 C 0.13954(13) 0.97503(9) 0.03349(4)
C234_3 C 0.18882(14) 0.98359(10) 0.03053(5)
C235_3 C 0.19895(16) 0.94856(12) 0.02037(5)
C236_3 C 0.16237(16) 0.90292(12) 0.01276(5)
C237_3 C 0.10854(14) 0.88983(11) 0.01523(4)
H175_3 H 0.0805 0.8563 0.0108
C238_3 C 0.09982(13) 0.92967(10) 0.02462(4)
C239_3 C 0.04348(13) 0.91255(10) 0.02644(4)
H176_3 H 0.0261 0.8927 0.0108
H177_3 H 0.0399 0.9441 0.0266
C247_3 C 0.13445(27) 0.81029(18) 0.00005(13)
H187_3 H 0.1190 0.7946 0.0166
C248_3 C 0.2732(4) 0.9780(2) 0.0098(2)
C249_3 C 0.33840(27) 0.9933(2) 0.00582(7)
C252_3 C 0.39869(22) 0.96696(16) 0.02084(8)
H190_3 H 0.4062 0.9455 0.0315
C253_3 C 0.34936(23) 0.96178(16) 0.02132(8)
H191_3 H 0.3232 0.9368 0.0323
C255_3 C 0.15948(19) 0.95837(14) 0.16172(7)
C256_3 C 0.14847(19) 0.96102(14) 0.19195(7)
C257_3 C 0.15538(20) 0.91911(14) 0.20627(8)
H195_3 H 0.1626 0.8946 0.1984
C258_3 C 0.14961(22) 0.92251(16) 0.23152(8)
H196_3 H 0.1583 0.9010 0.2414
C259_3 C 0.12104(21) 0.98320(16) 0.23499(7)
C260_3 C 0.12826(21) 0.98921(16) 0.20690(7)
C261_3 C 0.10314(28) 0.9880(2) 0.29164(8)
Cu21_6 Cu 1.0000 1.0000 0.29343(4)
O45_3 O 0.7364(4) 0.7272(6) 0.9916(2)
H152_3 H 0.7013 0.8929 0.9887
H153_3 H 0.6411 0.8500 0.9923
C207_3 C 0.65315(17) 0.62329(26) 0.98983(7)
H155_3 H 0.6821 0.6307 0.9793
C208_3 C 0.60901(17) 0.57393(25) 0.98935(7)
H156_3 H 0.6078 0.5477 0.9785
H185_3 H 0.1071 0.8085 0.9887
H186_3 H 0.1500 0.7912 0.9923
O31_3 O 0.9525(2) 0.1829(2) 0.12734(12)
C143_3 C 0.97611(10) 0.15763(11) 0.11374(6)
C144_3 C 0.96757(7) 0.14788(10) 0.08675(6)
H105_3 H 0.9468 0.1578 0.0770
C145_3 C 0.99387(7) 0.12105(7) 0.07549(5)
C146_3 C 0.98534(7) 0.11521(8) 0.04697(5)
H106_3 H 0.9886 0.0854 0.0409
H107_3 H 0.9497 0.1081 0.0429
H108_3 H 0.9839 0.2012 0.0360
C168_3 C 0.92291(14) 0.19554(11) 0.11439(7)
H126_3 H 0.8955 0.1646 0.1057
H127_3 H 0.9069 0.2095 0.1261
H128_3 H 0.9440 0.2222 0.1017
H131_3 H 0.9988 0.1071 0.2450
H132_3 H 0.9879 0.1075 0.1983
O36_3 O 0.9907(4) 0.2636(4) 0.9916(2)
C164_3 C 0.9701(2) 0.34685(17) 0.98983(7)
H122_3 H 0.9485 0.3179 0.9793
C165_3 C 0.96491(19) 0.39099(17) 0.98935(7)
H123_3 H 0.9398 0.3922 0.9785
O46_3 O 0.9436(3) 0.7735(2) 0.10599(19)
O47_3 O 0.94708(25) 0.73376(18) 0.06125(15)
O48_3 O 0.86861(24) 0.71913(16) 0.05774(13)
C220_3 C 0.99546(13) 0.82965(9) 0.04185(6)
H166_3 H 0.9976 0.8187 0.0251
C221_3 C 0.97097(13) 0.79296(8) 0.06113(7)
C222_3 C 0.96791(13) 0.80909(9) 0.08573(6)
C223_3 C 0.98936(12) 0.86191(9) 0.09106(6)
H167_3 H 0.9873 0.8730 0.1079
C240_3 C 0.94268(20) 0.78730(13) 0.13185(7)
H178_3 H 0.9290 0.8114 0.1328
H179_3 H 0.9202 0.7559 0.1418
H180_3 H 0.9781 0.8043 0.1389
C241_3 C 0.89326(17) 0.69891(9) 0.06151(10)
C242_3 C 0.88658(20) 0.65219(13) 0.05518(10)
C243_3 C 0.92693(20) 0.64099(13) 0.05522(6)
H181_3 H 0.9620 0.6684 0.0572
C244_3 C 0.91597(19) 0.58979(13) 0.05240(9)
H182_3 H 0.9436 0.5822 0.0525
C245_3 C 0.82432(23) 0.56099(14) 0.04949(8)
H183_3 H 0.7892 0.5337 0.0476
C246_3 C 0.83528(21) 0.61219(15) 0.05231(11)
H184_3 H 0.8077 0.6199 0.0523
Cu2_4 Cu 0.0000 0.5000 1.0000
Cu7_4 Cu 0.4999 -0.0000 1.0000
Cu7_5 Cu 0.4999 1.0000 1.0000
Cu2_5 Cu 1.0000 0.5000 1.0000
Cu5_3 Cu 0.5000 0.5001 1.0000
loop_
_geom_bond_atom_site_label_1
_geom_bond_atom_site_label_2
_geom_bond_site_symmetry_1
_geom_bond_site_symmetry_2
Cu5 N8 1_555 1_555
N8 C88 1_555 1_555
C76 C75 1_555 1_555
H56 C76 1_555 1_555
C77 C76 1_555 1_555
H57 C77 1_555 1_555
N10 Cu5 1_555 1_555
C78 N10 1_555 1_555
H58 C78 1_555 1_555
C79 C75 1_555 1_555
C88 Cu16 1_555 1_555
C113 C112 1_555 1_555
C114 C113 1_555 1_555
H83 C114 1_555 1_555
N14 C114 1_555 1_555
C115 N14 1_555 1_555
H84 C115 1_555 1_555
C116 C112 1_555 1_555
H85 C116 1_555 1_555
Cu15 N14 1_555 1_555
N32 Cu5 1_555 1_555
N38 Cu5 1_555 1_555
C77 N10 1_555 1_555
C78 C79 1_555 1_555
C115 C116 1_555 1_555
Cu1 N1 1_555 1_555
Cu2 N3 1_555 1_555
Cu3 N2 1_555 1_555
O1 C4 1_555 1_555
O2 C3 1_555 1_555
O3 C23 1_555 1_555
O4 C11 1_555 1_555
O5 C10 1_555 1_555
O6 C37 1_555 1_555
O7 C18 1_555 1_555
O8 C17 1_555 1_555
O9 C30 1_555 1_555
N1 C40 1_555 1_555
N2 C43 1_555 1_555
N3 C44 1_555 1_555
C1 C2 1_555 1_555
C2 H1 1_555 1_555
C3 C2 1_555 1_555
C4 C3 1_555 1_555
C5 C4 1_555 1_555
H2 C5 1_555 1_555
C6 C1 1_555 1_555
C7 C6 1_555 1_555
H3 C7 1_555 1_555
H4 C7 1_555 1_555
C8 C7 1_555 1_555
C9 C8 1_555 1_555
H5 C9 1_555 1_555
C10 C9 1_555 1_555
C11 C10 1_555 1_555
C12 C11 1_555 1_555
H6 C12 1_555 1_555
C13 C8 1_555 1_555
C14 C13 1_555 1_555
H7 C14 1_555 1_555
H8 C14 1_555 1_555
C15 C14 1_555 1_555
C16 C15 1_555 1_555
H9 C16 1_555 1_555
C17 C16 1_555 1_555
C18 C17 1_555 1_555
C19 C18 1_555 1_555
H10 C19 1_555 1_555
C20 C15 1_555 1_555
C21 C1 1_555 1_555
H11 C21 1_555 1_555
H12 C21 1_555 1_555
C22 O1 1_555 1_555
H13 C22 1_555 1_555
H14 C22 1_555 1_555
H15 C22 1_555 1_555
C23 O2 1_555 1_555
C29 O7 1_555 1_555
H20 C29 1_555 1_555
H21 C29 1_555 1_555
H22 C29 1_555 1_555
C30 O8 1_555 1_555
C31 C30 1_555 1_555
C32 C31 1_555 1_555
H23 C32 1_555 1_555
C33 C32 1_555 1_555
H24 C33 1_555 1_555
N5 Cu2 1_555 1_555
C34 N5 1_555 1_555
H25 C34 1_555 1_555
C35 C31 1_555 1_555
H26 C35 1_555 1_555
C36 O4 1_555 1_555
H27 C36 1_555 1_555
H28 C36 1_555 1_555
H29 C36 1_555 1_555
C37 O5 1_555 1_555
C38 C37 1_555 1_555
C39 C38 1_555 1_555
H30 C39 1_555 1_555
C40 C39 1_555 1_555
H31 C40 1_555 1_555
C41 N1 1_555 1_555
H32 C41 1_555 1_555
C42 C38 1_555 1_555
H33 C42 1_555 1_555
C43 Cu1 1_555 1_555
C44 Cu15 1_555 1_555
Cu4 N6 1_555 1_555
O10 C48 1_555 1_555
O11 C47 1_555 1_555
O12 C67 1_555 1_555
O13 C55 1_555 1_555
O14 C54 1_555 1_555
O15 C81 1_555 1_555
O16 C62 1_555 1_555
O17 C61 1_555 1_555
O18 C74 1_555 1_555
N6 C84 1_555 1_555
N7 Cu3 1_555 1_555
C45 C46 1_555 1_555
C46 H34 1_555 1_555
C47 C46 1_555 1_555
C48 C47 1_555 1_555
C49 C48 1_555 1_555
H35 C49 1_555 1_555
C50 C45 1_555 1_555
C51 C50 1_555 1_555
H36 C51 1_555 1_555
H37 C51 1_555 1_555
C52 C51 1_555 1_555
C53 C52 1_555 1_555
H38 C53 1_555 1_555
C54 C53 1_555 1_555
C55 C54 1_555 1_555
C56 C55 1_555 1_555
H39 C56 1_555 1_555
C57 C52 1_555 1_555
C58 C57 1_555 1_555
H40 C58 1_555 1_555
H41 C58 1_555 1_555
C59 C58 1_555 1_555
C60 C59 1_555 1_555
H42 C60 1_555 1_555
C61 C60 1_555 1_555
C62 C61 1_555 1_555
C63 C62 1_555 1_555
H43 C63 1_555 1_555
C64 C59 1_555 1_555
C65 C45 1_555 1_555
H44 C65 1_555 1_555
H45 C65 1_555 1_555
C66 O10 1_555 1_555
H46 C66 1_555 1_555
H47 C66 1_555 1_555
H48 C66 1_555 1_555
C67 O11 1_555 1_555
C68 C67 1_555 1_555
C69 C68 1_555 1_555
H49 C69 1_555 1_555
C70 C69 1_555 1_555
H50 C70 1_555 1_555
N9 C70 1_555 1_555
C71 N9 1_555 1_555
H51 C71 1_555 1_555
C72 C68 1_555 1_555
H52 C72 1_555 1_555
C73 O16 1_555 1_555
H53 C73 1_555 1_555
H54 C73 1_555 1_555
H55 C73 1_555 1_555
C74 O17 1_555 1_555
C80 O13 1_555 1_555
H60 C80 1_555 1_555
H61 C80 1_555 1_555
H62 C80 1_555 1_555
C81 O14 1_555 1_555
C82 C81 1_555 1_555
C83 C82 1_555 1_555
H63 C83 1_555 1_555
C84 C83 1_555 1_555
H64 C84 1_555 1_555
C85 N6 1_555 1_555
H65 C85 1_555 1_555
C86 C82 1_555 1_555
H66 C86 1_555 1_555
C87 Cu4 1_555 1_555
Cu6 N11 1_555 1_555
O19 C92 1_555 1_555
O20 C91 1_555 1_555
O21 C111 1_555 1_555
O22 C99 1_555 1_555
O23 C98 1_555 1_555
O24 C125 1_555 1_555
O25 C106 1_555 1_555
O26 C105 1_555 1_555
O27 C118 1_555 1_555
N11 C128 1_555 1_555
N12 Cu3 1_555 1_555
C89 C90 1_555 1_555
C90 H67 1_555 1_555
C91 C90 1_555 1_555
C92 C91 1_555 1_555
C93 C92 1_555 1_555
H68 C93 1_555 1_555
C94 C89 1_555 1_555
C95 C94 1_555 1_555
H69 C95 1_555 1_555
H70 C95 1_555 1_555
C96 C95 1_555 1_555
C97 C96 1_555 1_555
H71 C97 1_555 1_555
C98 C97 1_555 1_555
C99 C98 1_555 1_555
C100 C99 1_555 1_555
H72 C100 1_555 1_555
C101 C96 1_555 1_555
C102 C101 1_555 1_555
H73 C102 1_555 1_555
H74 C102 1_555 1_555
C103 C102 1_555 1_555
C104 C103 1_555 1_555
H75 C104 1_555 1_555
C105 C104 1_555 1_555
C106 C105 1_555 1_555
C107 C106 1_555 1_555
H76 C107 1_555 1_555
C108 C103 1_555 1_555
C109 C89 1_555 1_555
H77 C109 1_555 1_555
H78 C109 1_555 1_555
C110 O19 1_555 1_555
H79 C110 1_555 1_555
H80 C110 1_555 1_555
H81 C110 1_555 1_555
C111 O20 1_555 1_555
C117 O25 1_555 1_555
H86 C117 1_555 1_555
H87 C117 1_555 1_555
H88 C117 1_555 1_555
C118 O26 1_555 1_555
C124 O22 1_555 1_555
H93 C124 1_555 1_555
H94 C124 1_555 1_555
H95 C124 1_555 1_555
C125 O23 1_555 1_555
C126 C125 1_555 1_555
C127 C126 1_555 1_555
H96 C127 1_555 1_555
C128 C127 1_555 1_555
H97 C128 1_555 1_555
C129 N11 1_555 1_555
H98 C129 1_555 1_555
C130 C126 1_555 1_555
H99 C130 1_555 1_555
C131 Cu6 1_555 1_555
C157 C156 1_555 1_555
C158 C157 1_555 1_555
H116 C158 1_555 1_555
N18 Cu6 1_555 1_555
C159 N18 1_555 1_555
H117 C159 1_555 1_555
C160 C156 1_555 1_555
H118 C160 1_555 1_555
Cu15 N20 1_555 1_555
O37 C179 1_555 1_555
O38 C178 1_555 1_555
O39 C198 1_555 1_555
O40 C186 1_555 1_555
O41 C185 1_555 1_555
O42 C212 1_555 1_555
O43 C193 1_555 1_555
O44 C192 1_555 1_555
O45 C205 1_555 1_555
N20 C215 1_555 1_555
N21 C218 1_555 1_555
C176 C177 1_555 1_555
C177 H133 1_555 1_555
C178 C177 1_555 1_555
C179 C178 1_555 1_555
C180 C179 1_555 1_555
H134 C180 1_555 1_555
C181 C176 1_555 1_555
C182 C181 1_555 1_555
H135 C182 1_555 1_555
H136 C182 1_555 1_555
C183 C182 1_555 1_555
C184 C183 1_555 1_555
H137 C184 1_555 1_555
C185 C184 1_555 1_555
C186 C185 1_555 1_555
C187 C186 1_555 1_555
H138 C187 1_555 1_555
C188 C183 1_555 1_555
C189 C188 1_555 1_555
H139 C189 1_555 1_555
H140 C189 1_555 1_555
C190 C189 1_555 1_555
C191 C190 1_555 1_555
H141 C191 1_555 1_555
C192 C191 1_555 1_555
C193 C192 1_555 1_555
C194 C193 1_555 1_555
H142 C194 1_555 1_555
C195 C190 1_555 1_555
C196 C176 1_555 1_555
H143 C196 1_555 1_555
H144 C196 1_555 1_555
C197 O37 1_555 1_555
H145 C197 1_555 1_555
H146 C197 1_555 1_555
H147 C197 1_555 1_555
C198 O38 1_555 1_555
C199 C198 1_555 1_555
C200 C199 1_555 1_555
H148 C200 1_555 1_555
C201 C200 1_555 1_555
H149 C201 1_555 1_555
N22 Cu1 1_555 1_555
C202 N22 1_555 1_555
H150 C202 1_555 1_555
C203 C199 1_555 1_555
H151 C203 1_555 1_555
C204 O43 1_555 1_555
H152 C204 1_555 1_555
H153 C204 1_555 1_555
H154 C204 1_555 1_555
C205 O44 1_555 1_555
C211 O40 1_555 1_555
H159 C211 1_555 1_555
H160 C211 1_555 1_555
H161 C211 1_555 1_555
C212 O41 1_555 1_555
C213 C212 1_555 1_555
C214 C213 1_555 1_555
H162 C214 1_555 1_555
C215 C214 1_555 1_555
H163 C215 1_555 1_555
C216 N20 1_555 1_555
H164 C216 1_555 1_555
C217 C213 1_555 1_555
H165 C217 1_555 1_555
C218 Cu15 1_555 1_555
N26 C262 1_555 1_555
C250 C249 1_555 1_555
H188 C250 1_555 1_555
C251 C250 1_555 1_555
H189 C251 1_555 1_555
N28 C251 1_555 1_555
C252 N28 1_555 1_555
H190 C252 1_555 1_555
C253 C249 1_555 1_555
C262 Cu1 1_555 1_555
N29 Cu2 1_555 1_555
C263 N29 1_555 1_555
N30 C264 1_555 1_555
C264 Cu4 1_555 1_555
Cu13 C263 1_555 1_555
Cu14 N9 1_555 1_555
Cu18 N30 1_555 1_555
Cu20 N26 1_555 1_555
Cu21 N21 1_555 1_555
N36 Cu4 1_555 1_555
N37 Cu2 1_555 1_555
C266 Cu6 1_555 1_555
C5 C6 1_555 1_555
C12 C13 1_555 1_555
C19 C20 1_555 1_555
C20 C21 1_555 1_555
C33 N5 1_555 1_555
C34 C35 1_555 1_555
C41 C42 1_555 1_555
N7 C87 1_555 1_555
C49 C50 1_555 1_555
C56 C57 1_555 1_555
C63 C64 1_555 1_555
C64 C65 1_555 1_555
C71 C72 1_555 1_555
C85 C86 1_555 1_555
N12 C131 1_555 1_555
C93 C94 1_555 1_555
C100 C101 1_555 1_555
C107 C108 1_555 1_555
C108 C109 1_555 1_555
C129 C130 1_555 1_555
C158 N18 1_555 1_555
C159 C160 1_555 1_555
C180 C181 1_555 1_555
C187 C188 1_555 1_555
C194 C195 1_555 1_555
C195 C196 1_555 1_555
C201 N22 1_555 1_555
C202 C203 1_555 1_555
C216 C217 1_555 1_555
N28 Cu20 1_555 1_555
C252 C253 1_555 1_555
C207 C206 1_555 1_555
H155 C207 1_555 1_555
C208 C207 1_555 1_555
H156 C208 1_555 1_555
N23 C208 1_555 1_555
C209 N23 1_555 1_555
H157 C209 1_555 1_555
C210 C206 1_555 1_555
Cu19 N23 1_555 1_555
C209 C210 1_555 1_555
C25 C24 1_555 1_555
C26 C25 1_555 1_555
H17 C26 1_555 1_555
N4 C26 1_555 1_555
C27 N4 1_555 1_555
H18 C27 1_555 1_555
C28 C24 1_555 1_555
H19 C28 1_555 1_555
Cu7 N13 1_555 1_555
N13 C132 1_555 1_555
C120 C119 1_555 1_555
H89 C120 1_555 1_555
C121 C120 1_555 1_555
H90 C121 1_555 1_555
N15 Cu7 1_555 1_555
C122 N15 1_555 1_555
H91 C122 1_555 1_555
C123 C119 1_555 1_555
C132 Cu14 1_555 1_555
Cu14 N16 1_555 1_555
Cu21 N17 1_555 1_555
O28 C136 1_555 1_555
O29 C135 1_555 1_555
O30 C155 1_555 1_555
O31 C143 1_555 1_555
O32 C142 1_555 1_555
O33 C169 1_555 1_555
O34 C150 1_555 1_555
O35 C149 1_555 1_555
O36 C162 1_555 1_555
N16 C172 1_555 1_555
N17 C175 1_555 1_555
C133 C134 1_555 1_555
C134 H100 1_555 1_555
C135 C134 1_555 1_555
C136 C135 1_555 1_555
C137 C136 1_555 1_555
H101 C137 1_555 1_555
C138 C133 1_555 1_555
C139 C138 1_555 1_555
H102 C139 1_555 1_555
H103 C139 1_555 1_555
C140 C139 1_555 1_555
C141 C140 1_555 1_555
H104 C141 1_555 1_555
C142 C141 1_555 1_555
C143 C142 1_555 1_555
C144 C143 1_555 1_555
H105 C144 1_555 1_555
C145 C140 1_555 1_555
C146 C145 1_555 1_555
H106 C146 1_555 1_555
H107 C146 1_555 1_555
C147 C146 1_555 1_555
C148 C147 1_555 1_555
H108 C148 1_555 1_555
C149 C148 1_555 1_555
C150 C149 1_555 1_555
C151 C150 1_555 1_555
H109 C151 1_555 1_555
C152 C147 1_555 1_555
C153 C133 1_555 1_555
H110 C153 1_555 1_555
H111 C153 1_555 1_555
C154 O28 1_555 1_555
H112 C154 1_555 1_555
H113 C154 1_555 1_555
H114 C154 1_555 1_555
C155 O29 1_555 1_555
C161 O34 1_555 1_555
H119 C161 1_555 1_555
H120 C161 1_555 1_555
H121 C161 1_555 1_555
C162 O35 1_555 1_555
C163 C162 1_555 1_555
C164 C163 1_555 1_555
H122 C164 1_555 1_555
C165 C164 1_555 1_555
H123 C165 1_555 1_555
N19 C165 1_555 1_555
C166 N19 1_555 1_555
H124 C166 1_555 1_555
C167 C163 1_555 1_555
H125 C167 1_555 1_555
C168 O31 1_555 1_555
H126 C168 1_555 1_555
H127 C168 1_555 1_555
H128 C168 1_555 1_555
C169 O32 1_555 1_555
C170 C169 1_555 1_555
C171 C170 1_555 1_555
H129 C171 1_555 1_555
C172 C171 1_555 1_555
H130 C172 1_555 1_555
C173 N16 1_555 1_555
H131 C173 1_555 1_555
C174 C170 1_555 1_555
H132 C174 1_555 1_555
C175 Cu14 1_555 1_555
Cu16 N4 1_555 1_555
O46 C222 1_555 1_555
O47 C221 1_555 1_555
O48 C241 1_555 1_555
O49 C229 1_555 1_555
O50 C228 1_555 1_555
O51 C255 1_555 1_555
O52 C236 1_555 1_555
O53 C235 1_555 1_555
O54 C248 1_555 1_555
N24 Cu16 1_555 1_555
N25 Cu21 1_555 1_555
C219 C220 1_555 1_555
C220 H166 1_555 1_555
C221 C220 1_555 1_555
C222 C221 1_555 1_555
C223 C222 1_555 1_555
H167 C223 1_555 1_555
C224 C219 1_555 1_555
C225 C224 1_555 1_555
H168 C225 1_555 1_555
H169 C225 1_555 1_555
C226 C225 1_555 1_555
C227 C226 1_555 1_555
H170 C227 1_555 1_555
C228 C227 1_555 1_555
C229 C228 1_555 1_555
C230 C229 1_555 1_555
H171 C230 1_555 1_555
C231 C226 1_555 1_555
C232 C231 1_555 1_555
H172 C232 1_555 1_555
H173 C232 1_555 1_555
C233 C232 1_555 1_555
C234 C233 1_555 1_555
H174 C234 1_555 1_555
C235 C234 1_555 1_555
C236 C235 1_555 1_555
C237 C236 1_555 1_555
H175 C237 1_555 1_555
C238 C233 1_555 1_555
C239 C219 1_555 1_555
H176 C239 1_555 1_555
H177 C239 1_555 1_555
C240 O46 1_555 1_555
H178 C240 1_555 1_555
H179 C240 1_555 1_555
H180 C240 1_555 1_555
C241 O47 1_555 1_555
C247 O52 1_555 1_555
H185 C247 1_555 1_555
H186 C247 1_555 1_555
H187 C247 1_555 1_555
C248 O53 1_555 1_555
C254 O49 1_555 1_555
H192 C254 1_555 1_555
H193 C254 1_555 1_555
H194 C254 1_555 1_555
C255 O50 1_555 1_555
C256 C255 1_555 1_555
C257 C256 1_555 1_555
H195 C257 1_555 1_555
C258 N24 1_555 1_555
H196 C258 1_555 1_555
C259 N24 1_555 1_555
H197 C259 1_555 1_555
C260 C256 1_555 1_555
H198 C260 1_555 1_555
C261 Cu16 1_555 1_555
Cu18 N19 1_555 1_555
N33 Cu7 1_555 1_555
N39 Cu7 1_555 1_555
C27 C28 1_555 1_555
C121 N15 1_555 1_555
C122 C123 1_555 1_555
C137 C138 1_555 1_555
C144 C145 1_555 1_555
C151 C152 1_555 1_555
C152 C153 1_555 1_555
C166 C167 1_555 1_555
C173 C174 1_555 1_555
N25 C261 1_555 1_555
C223 C224 1_555 1_555
C230 C231 1_555 1_555
C237 C238 1_555 1_555
C238 C239 1_555 1_555
C257 C258 1_555 1_555
C259 C260 1_555 1_555
C243 C242 1_555 1_555
C244 C243 1_555 1_555
H182 C244 1_555 1_555
N36 C244 1_555 1_555
C245 N36 1_555 1_555
H183 C245 1_555 1_555
C246 C242 1_555 1_555
H184 C246 1_555 1_555
C245 C246 1_555 1_555
C263_2 N32 1_555 1_555
Cu13_2 C263_2 1_555 1_555
N30_2 C266 1_555 1_555
Cu19 N30_2 1_555 1_555
C263_3 N33 1_555 1_555
Cu13_3 C263_3 1_555 1_555
H56_2 C76_2 1_555 1_555
C77_2 C76_2 1_555 1_555
H57_2 C77_2 1_555 1_555
N32_2 Cu5_2 1_555 1_555
N38_2 Cu5_2 1_555 1_555
Cu13 N6_2 1_555 1_555
O13_2 C55_2 1_555 1_555
O14_2 C54_2 1_555 1_555
O15_2 C81_2 1_555 1_555
O16_2 C62_2 1_555 1_555
O17_2 C61_2 1_555 1_555
N6_2 C84_2 1_555 1_555
N7_2 Cu3_2 1_555 1_555
N8_2 C88_2 1_555 1_555
C50_2 C45_2 1_555 1_555
C51_2 C50_2 1_555 1_555
H36_2 C51_2 1_555 1_555
H37_2 C51_2 1_555 1_555
C52_2 C51_2 1_555 1_555
C53_2 C52_2 1_555 1_555
H38_2 C53_2 1_555 1_555
C54_2 C53_2 1_555 1_555
C55_2 C54_2 1_555 1_555
C56_2 C55_2 1_555 1_555
H39_2 C56_2 1_555 1_555
C57_2 C52_2 1_555 1_555
C58_2 C57_2 1_555 1_555
H40_2 C58_2 1_555 1_555
H41_2 C58_2 1_555 1_555
C59_2 C58_2 1_555 1_555
C60_2 C59_2 1_555 1_555
H42_2 C60_2 1_555 1_555
C61_2 C60_2 1_555 1_555
C62_2 C61_2 1_555 1_555
C63_2 C62_2 1_555 1_555
H43_2 C63_2 1_555 1_555
C64_2 C59_2 1_555 1_555
C65_2 C45_2 1_555 1_555
H44_2 C65_2 1_555 1_555
H45_2 C65_2 1_555 1_555
C73_2 O16_2 1_555 1_555
H55_2 C73_2 1_555 1_555
C74_2 O17_2 1_555 1_555
C75_2 C74_2 1_555 1_555
C78_2 N10_2 1_555 1_555
H58_2 C78_2 1_555 1_555
C79_2 C75_2 1_555 1_555
H59_2 C79_2 1_555 1_555
C80_2 O13_2 1_555 1_555
H60_2 C80_2 1_555 1_555
H61_2 C80_2 1_555 1_555
H62_2 C80_2 1_555 1_555
C81_2 O14_2 1_555 1_555
C82_2 C81_2 1_555 1_555
C83_2 C82_2 1_555 1_555
H63_2 C83_2 1_555 1_555
C84_2 C83_2 1_555 1_555
H64_2 C84_2 1_555 1_555
C85_2 N6_2 1_555 1_555
H65_2 C85_2 1_555 1_555
C86_2 C82_2 1_555 1_555
H66_2 C86_2 1_555 1_555
C87_2 Cu13 1_555 1_555
C88_2 Cu16_2 1_555 1_555
O19_2 C92_2 1_555 1_555
O20_2 C91_2 1_555 1_555
O21_2 C111_2 1_555 1_555
C90_2 H67_2 1_555 1_555
C91_2 C90_2 1_555 1_555
C92_2 C91_2 1_555 1_555
C93_2 C92_2 1_555 1_555
H68_2 C93_2 1_555 1_555
C110_2 O19_2 1_555 1_555
H79_2 C110_2 1_555 1_555
H80_2 C110_2 1_555 1_555
H81_2 C110_2 1_555 1_555
C111_2 O20_2 1_555 1_555
C112_2 C111_2 1_555 1_555
C113_2 C112_2 1_555 1_555
H82_2 C113_2 1_555 1_555
C114_2 C113_2 1_555 1_555
H83_2 C114_2 1_555 1_555
N14_2 C114_2 1_555 1_555
C115_2 N14_2 1_555 1_555
H84_2 C115_2 1_555 1_555
C116_2 C112_2 1_555 1_555
H85_2 C116_2 1_555 1_555
Cu15_2 N14_2 1_555 1_555
N36_2 Cu13 1_555 1_555
N7_2 C87_2 1_555 1_555
C56_2 C57_2 1_555 1_555
C63_2 C64_2 1_555 1_555
C64_2 C65_2 1_555 1_555
C78_2 C79_2 1_555 1_555
C85_2 C86_2 1_555 1_555
C115_2 C116_2 1_555 1_555
H23_2 C32_2 1_555 1_555
C33_2 C32_2 1_555 1_555
H24_2 C33_2 1_555 1_555
O4_2 C11_2 1_555 1_555
N3_2 C44_2 1_555 1_555
C12_2 C11_2 1_555 1_555
H6_2 C12_2 1_555 1_555
C14_2 C13_2 1_555 1_555
H7_2 C14_2 1_555 1_555
H8_2 C14_2 1_555 1_555
C36_2 O4_2 1_555 1_555
H27_2 C36_2 1_555 1_555
H28_2 C36_2 1_555 1_555
H29_2 C36_2 1_555 1_555
C44_2 Cu15_2 1_555 1_555
O10_2 C48_2 1_555 1_555
O11_2 C47_2 1_555 1_555
O12_2 C67_2 1_555 1_555
C46_2 H34_2 1_555 1_555
C47_2 C46_2 1_555 1_555
C48_2 C47_2 1_555 1_555
C49_2 C48_2 1_555 1_555
H35_2 C49_2 1_555 1_555
C66_2 O10_2 1_555 1_555
H46_2 C66_2 1_555 1_555
H47_2 C66_2 1_555 1_555
H48_2 C66_2 1_555 1_555
C67_2 O11_2 1_555 1_555
C68_2 C67_2 1_555 1_555
C69_2 C68_2 1_555 1_555
H49_2 C69_2 1_555 1_555
C70_2 C69_2 1_555 1_555
H50_2 C70_2 1_555 1_555
N9_2 C70_2 1_555 1_555
C71_2 N9_2 1_555 1_555
H51_2 C71_2 1_555 1_555
C72_2 C68_2 1_555 1_555
H52_2 C72_2 1_555 1_555
Cu15_2 N20_2 1_555 1_555
O37_2 C179_2 1_555 1_555
O38_2 C178_2 1_555 1_555
O39_2 C198_2 1_555 1_555
O40_2 C186_2 1_555 1_555
O41_2 C185_2 1_555 1_555
O42_2 C212_2 1_555 1_555
O43_2 C193_2 1_555 1_555
O44_2 C192_2 1_555 1_555
O45_2 C205_2 1_555 1_555
N20_2 C215_2 1_555 1_555
N21_2 C218_2 1_555 1_555
C176_2 C177_2 1_555 1_555
C177_2 H133_2 1_555 1_555
C178_2 C177_2 1_555 1_555
C179_2 C178_2 1_555 1_555
C180_2 C179_2 1_555 1_555
H134_2 C180_2 1_555 1_555
C181_2 C176_2 1_555 1_555
C182_2 C181_2 1_555 1_555
H135_2 C182_2 1_555 1_555
H136_2 C182_2 1_555 1_555
C183_2 C182_2 1_555 1_555
C184_2 C183_2 1_555 1_555
H137_2 C184_2 1_555 1_555
C185_2 C184_2 1_555 1_555
C186_2 C185_2 1_555 1_555
C187_2 C186_2 1_555 1_555
H138_2 C187_2 1_555 1_555
C188_2 C183_2 1_555 1_555
C189_2 C188_2 1_555 1_555
H139_2 C189_2 1_555 1_555
H140_2 C189_2 1_555 1_555
C190_2 C189_2 1_555 1_555
C191_2 C190_2 1_555 1_555
H141_2 C191_2 1_555 1_555
C192_2 C191_2 1_555 1_555
C193_2 C192_2 1_555 1_555
C194_2 C193_2 1_555 1_555
H142_2 C194_2 1_555 1_555
C195_2 C190_2 1_555 1_555
C196_2 C176_2 1_555 1_555
H143_2 C196_2 1_555 1_555
H144_2 C196_2 1_555 1_555
C197_2 O37_2 1_555 1_555
H145_2 C197_2 1_555 1_555
H146_2 C197_2 1_555 1_555
H147_2 C197_2 1_555 1_555
C198_2 O38_2 1_555 1_555
C199_2 C198_2 1_555 1_555
C200_2 C199_2 1_555 1_555
H148_2 C200_2 1_555 1_555
C201_2 C200_2 1_555 1_555
C202_2 N22_2 1_555 1_555
H150_2 C202_2 1_555 1_555
C203_2 C199_2 1_555 1_555
H151_2 C203_2 1_555 1_555
C204_2 O43_2 1_555 1_555
H152_2 C204_2 1_555 1_555
H154_2 C204_2 1_555 1_555
C205_2 O44_2 1_555 1_555
C211_2 O40_2 1_555 1_555
H159_2 C211_2 1_555 1_555
H160_2 C211_2 1_555 1_555
H161_2 C211_2 1_555 1_555
C212_2 O41_2 1_555 1_555
C213_2 C212_2 1_555 1_555
C214_2 C213_2 1_555 1_555
H162_2 C214_2 1_555 1_555
C215_2 C214_2 1_555 1_555
H163_2 C215_2 1_555 1_555
C216_2 N20_2 1_555 1_555
H164_2 C216_2 1_555 1_555
C217_2 C213_2 1_555 1_555
H165_2 C217_2 1_555 1_555
C218_2 Cu15_2 1_555 1_555
Cu14_2 N9_2 1_555 1_555
Cu21_2 N21_2 1_555 1_555
C12_2 C13_2 1_555 1_555
C71_2 C72_2 1_555 1_555
C180_2 C181_2 1_555 1_555
C187_2 C188_2 1_555 1_555
C194_2 C195_2 1_555 1_555
C195_2 C196_2 1_555 1_555
C201_2 N22_2 1_555 1_555
C202_2 C203_2 1_555 1_555
C216_2 C217_2 1_555 1_555
N33_2 Cu7_2 1_555 1_555
N39_2 Cu7_2 1_555 1_555
Cu13_2 N11_2 1_555 1_555
O23_2 C98_2 1_555 1_555
O24_2 C125_2 1_555 1_555
O25_2 C106_2 1_555 1_555
O26_2 C105_2 1_555 1_555
N11_2 C128_2 1_555 1_555
N12_2 Cu3_4 1_555 1_555
C94_2 C89_2 1_555 1_555
C95_2 C94_2 1_555 1_555
H69_2 C95_2 1_555 1_555
H70_2 C95_2 1_555 1_555
C96_2 C95_2 1_555 1_555
C97_2 C96_2 1_555 1_555
H71_2 C97_2 1_555 1_555
C98_2 C97_2 1_555 1_555
C104_2 C103_2 1_555 1_555
C105_2 C104_2 1_555 1_555
C106_2 C105_2 1_555 1_555
C107_2 C106_2 1_555 1_555
H76_2 C107_2 1_555 1_555
C108_2 C103_2 1_555 1_555
C109_2 C89_2 1_555 1_555
H77_2 C109_2 1_555 1_555
H78_2 C109_2 1_555 1_555
C117_2 O25_2 1_555 1_555
H88_2 C117_2 1_555 1_555
C118_2 O26_2 1_555 1_555
C119_2 C118_2 1_555 1_555
H91_2 C122_2 1_555 1_555
C123_2 C119_2 1_555 1_555
H92_2 C123_2 1_555 1_555
C125_2 O23_2 1_555 1_555
C126_2 C125_2 1_555 1_555
C127_2 C126_2 1_555 1_555
H96_2 C127_2 1_555 1_555
C128_2 C127_2 1_555 1_555
H97_2 C128_2 1_555 1_555
C129_2 N11_2 1_555 1_555
C130_2 C126_2 1_555 1_555
C131_2 Cu13_2 1_555 1_555
C164_2 C163_2 1_555 1_555
C165_2 C164_2 1_555 1_555
H123_2 C165_2 1_555 1_555
N37 C165_2 1_555 1_555
C166_2 N37 1_555 1_555
H124_2 C166_2 1_555 1_555
C167_2 C163_2 1_555 1_555
H125_2 C167_2 1_555 1_555
N12_2 C131_2 1_555 1_555
C107_2 C108_2 1_555 1_555
C108_2 C109_2 1_555 1_555
C122_2 C123_2 1_555 1_555
C129_2 C130_2 1_555 1_555
C166_2 C167_2 1_555 1_555
H89_2 C120_2 1_555 1_555
C121_2 C120_2 1_555 1_555
H90_2 C121_2 1_555 1_555
N29_2 Cu2_3 1_555 1_555
C263_4 N29_2 1_555 1_555
Cu13_4 C263_4 1_555 1_555
N37_2 Cu2_3 1_555 1_555
Cu13_3 N1_2 1_555 1_555
Cu3_5 N2_2 1_555 1_555
O1_2 C4_2 1_555 1_555
O2_2 C3_2 1_555 1_555
O3_2 C23_2 1_555 1_555
O5_2 C10_2 1_555 1_555
O6_2 C37_2 1_555 1_555
O7_2 C18_2 1_555 1_555
O8_2 C17_2 1_555 1_555
N1_2 C40_2 1_555 1_555
N2_2 C43_2 1_555 1_555
C1_2 C2_2 1_555 1_555
C2_2 H1_2 1_555 1_555
C3_2 C2_2 1_555 1_555
C4_2 C3_2 1_555 1_555
C5_2 C4_2 1_555 1_555
H2_2 C5_2 1_555 1_555
C6_2 C1_2 1_555 1_555
C7_2 C6_2 1_555 1_555
H3_2 C7_2 1_555 1_555
H4_2 C7_2 1_555 1_555
C8_2 C7_2 1_555 1_555
C9_2 C8_2 1_555 1_555
H5_2 C9_2 1_555 1_555
C10_2 C9_2 1_555 1_555
C16_2 C15_2 1_555 1_555
C17_2 C16_2 1_555 1_555
C18_2 C17_2 1_555 1_555
C19_2 C18_2 1_555 1_555
H10_2 C19_2 1_555 1_555
C20_2 C15_2 1_555 1_555
C21_2 C1_2 1_555 1_555
H11_2 C21_2 1_555 1_555
H12_2 C21_2 1_555 1_555
C22_2 O1_2 1_555 1_555
H13_2 C22_2 1_555 1_555
H14_2 C22_2 1_555 1_555
H15_2 C22_2 1_555 1_555
C23_2 O2_2 1_555 1_555
C24_2 C23_2 1_555 1_555
C25_2 C24_2 1_555 1_555
H16_2 C25_2 1_555 1_555
C26_2 C25_2 1_555 1_555
H17_2 C26_2 1_555 1_555
N4_2 C26_2 1_555 1_555
C27_2 N4_2 1_555 1_555
H18_2 C27_2 1_555 1_555
C28_2 C24_2 1_555 1_555
H19_2 C28_2 1_555 1_555
C29_2 O7_2 1_555 1_555
H22_2 C29_2 1_555 1_555
C30_2 O8_2 1_555 1_555
C31_2 C30_2 1_555 1_555
H25_2 C34_2 1_555 1_555
C35_2 C31_2 1_555 1_555
H26_2 C35_2 1_555 1_555
C37_2 O5_2 1_555 1_555
C38_2 C37_2 1_555 1_555
C39_2 C38_2 1_555 1_555
H30_2 C39_2 1_555 1_555
C40_2 C39_2 1_555 1_555
H31_2 C40_2 1_555 1_555
C41_2 N1_2 1_555 1_555
C42_2 C38_2 1_555 1_555
C43_2 Cu13_3 1_555 1_555
O22_2 C99_2 1_555 1_555
N13_2 C132_2 1_555 1_555
C100_2 C99_2 1_555 1_555
H72_2 C100_2 1_555 1_555
C102_2 C101_2 1_555 1_555
H73_2 C102_2 1_555 1_555
H74_2 C102_2 1_555 1_555
C124_2 O22_2 1_555 1_555
H93_2 C124_2 1_555 1_555
H94_2 C124_2 1_555 1_555
H95_2 C124_2 1_555 1_555
C132_2 Cu14_2 1_555 1_555
Cu14_2 N16_2 1_555 1_555
Cu21_2 N17_2 1_555 1_555
O28_2 C136_2 1_555 1_555
O29_2 C135_2 1_555 1_555
O30_2 C155_2 1_555 1_555
O31_2 C143_2 1_555 1_555
O32_2 C142_2 1_555 1_555
O33_2 C169_2 1_555 1_555
O34_2 C150_2 1_555 1_555
O35_2 C149_2 1_555 1_555
O36_2 C162_2 1_555 1_555
N16_2 C172_2 1_555 1_555
N17_2 C175_2 1_555 1_555
C133_2 C134_2 1_555 1_555
C134_2 H100_2 1_555 1_555
C135_2 C134_2 1_555 1_555
C136_2 C135_2 1_555 1_555
C137_2 C136_2 1_555 1_555
H101_2 C137_2 1_555 1_555
C138_2 C133_2 1_555 1_555
C139_2 C138_2 1_555 1_555
H102_2 C139_2 1_555 1_555
H103_2 C139_2 1_555 1_555
C140_2 C139_2 1_555 1_555
C141_2 C140_2 1_555 1_555
H104_2 C141_2 1_555 1_555
C142_2 C141_2 1_555 1_555
C143_2 C142_2 1_555 1_555
C144_2 C143_2 1_555 1_555
H105_2 C144_2 1_555 1_555
C145_2 C140_2 1_555 1_555
C146_2 C145_2 1_555 1_555
H106_2 C146_2 1_555 1_555
H107_2 C146_2 1_555 1_555
C147_2 C146_2 1_555 1_555
C148_2 C147_2 1_555 1_555
H108_2 C148_2 1_555 1_555
C149_2 C148_2 1_555 1_555
C150_2 C149_2 1_555 1_555
C151_2 C150_2 1_555 1_555
H109_2 C151_2 1_555 1_555
C152_2 C147_2 1_555 1_555
C153_2 C133_2 1_555 1_555
H110_2 C153_2 1_555 1_555
H111_2 C153_2 1_555 1_555
C154_2 O28_2 1_555 1_555
H112_2 C154_2 1_555 1_555
H113_2 C154_2 1_555 1_555
H114_2 C154_2 1_555 1_555
C155_2 O29_2 1_555 1_555
C156_2 C155_2 1_555 1_555
C157_2 C156_2 1_555 1_555
H115_2 C157_2 1_555 1_555
C158_2 C157_2 1_555 1_555
C159_2 N18_2 1_555 1_555
H117_2 C159_2 1_555 1_555
C160_2 C156_2 1_555 1_555
H118_2 C160_2 1_555 1_555
C161_2 O34_2 1_555 1_555
H119_2 C161_2 1_555 1_555
H121_2 C161_2 1_555 1_555
C162_2 O35_2 1_555 1_555
C168_2 O31_2 1_555 1_555
H126_2 C168_2 1_555 1_555
H127_2 C168_2 1_555 1_555
H128_2 C168_2 1_555 1_555
C169_2 O32_2 1_555 1_555
C170_2 C169_2 1_555 1_555
C171_2 C170_2 1_555 1_555
H129_2 C171_2 1_555 1_555
C172_2 C171_2 1_555 1_555
H130_2 C172_2 1_555 1_555
C173_2 N16_2 1_555 1_555
H131_2 C173_2 1_555 1_555
C174_2 C170_2 1_555 1_555
H132_2 C174_2 1_555 1_555
C175_2 Cu14_2 1_555 1_555
C207_2 C206_2 1_555 1_555
C208_2 C207_2 1_555 1_555
H156_2 C208_2 1_555 1_555
N38 C208_2 1_555 1_555
C209_2 N38 1_555 1_555
H157_2 C209_2 1_555 1_555
C210_2 C206_2 1_555 1_555
H158_2 C210_2 1_555 1_555
Cu16_2 N4_2 1_555 1_555
O46_2 C222_2 1_555 1_555
O47_2 C221_2 1_555 1_555
O48_2 C241_2 1_555 1_555
O49_2 C229_2 1_555 1_555
O50_2 C228_2 1_555 1_555
O51_2 C255_2 1_555 1_555
O52_2 C236_2 1_555 1_555
O53_2 C235_2 1_555 1_555
O54_2 C248_2 1_555 1_555
N24_2 Cu16_2 1_555 1_555
N25_2 Cu21_2 1_555 1_555
C219_2 C220_2 1_555 1_555
C220_2 H166_2 1_555 1_555
C221_2 C220_2 1_555 1_555
C222_2 C221_2 1_555 1_555
C223_2 C222_2 1_555 1_555
H167_2 C223_2 1_555 1_555
C224_2 C219_2 1_555 1_555
C225_2 C224_2 1_555 1_555
H168_2 C225_2 1_555 1_555
H169_2 C225_2 1_555 1_555
C226_2 C225_2 1_555 1_555
C227_2 C226_2 1_555 1_555
H170_2 C227_2 1_555 1_555
C228_2 C227_2 1_555 1_555
C229_2 C228_2 1_555 1_555
C230_2 C229_2 1_555 1_555
H171_2 C230_2 1_555 1_555
C231_2 C226_2 1_555 1_555
C232_2 C231_2 1_555 1_555
H172_2 C232_2 1_555 1_555
H173_2 C232_2 1_555 1_555
C233_2 C232_2 1_555 1_555
C234_2 C233_2 1_555 1_555
H174_2 C234_2 1_555 1_555
C235_2 C234_2 1_555 1_555
C236_2 C235_2 1_555 1_555
C237_2 C236_2 1_555 1_555
H175_2 C237_2 1_555 1_555
C238_2 C233_2 1_555 1_555
C239_2 C219_2 1_555 1_555
H176_2 C239_2 1_555 1_555
H177_2 C239_2 1_555 1_555
C240_2 O46_2 1_555 1_555
H178_2 C240_2 1_555 1_555
H179_2 C240_2 1_555 1_555
H180_2 C240_2 1_555 1_555
C241_2 O47_2 1_555 1_555
C242_2 C241_2 1_555 1_555
C243_2 C242_2 1_555 1_555
H181_2 C243_2 1_555 1_555
C244_2 C243_2 1_555 1_555
H182_2 C244_2 1_555 1_555
N36_2 C244_2 1_555 1_555
C245_2 N36_2 1_555 1_555
H183_2 C245_2 1_555 1_555
C246_2 C242_2 1_555 1_555
H184_2 C246_2 1_555 1_555
C247_2 O52_2 1_555 1_555
H185_2 C247_2 1_555 1_555
H186_2 C247_2 1_555 1_555
H187_2 C247_2 1_555 1_555
C248_2 O53_2 1_555 1_555
C249_2 C248_2 1_555 1_555
C250_2 C249_2 1_555 1_555
H188_2 C250_2 1_555 1_555
C251_2 C250_2 1_555 1_555
H189_2 C251_2 1_555 1_555
N39 C251_2 1_555 1_555
C252_2 N39 1_555 1_555
H190_2 C252_2 1_555 1_555
C253_2 C249_2 1_555 1_555
H191_2 C253_2 1_555 1_555
C254_2 O49_2 1_555 1_555
H192_2 C254_2 1_555 1_555
H193_2 C254_2 1_555 1_555
H194_2 C254_2 1_555 1_555
C255_2 O50_2 1_555 1_555
C256_2 C255_2 1_555 1_555
C257_2 C256_2 1_555 1_555
H195_2 C257_2 1_555 1_555
C258_2 N24_2 1_555 1_555
H196_2 C258_2 1_555 1_555
C259_2 N24_2 1_555 1_555
H197_2 C259_2 1_555 1_555
C260_2 C256_2 1_555 1_555
H198_2 C260_2 1_555 1_555
C261_2 Cu16_2 1_555 1_555
C5_2 C6_2 1_555 1_555
C19_2 C20_2 1_555 1_555
C20_2 C21_2 1_555 1_555
C27_2 C28_2 1_555 1_555
C34_2 C35_2 1_555 1_555
C41_2 C42_2 1_555 1_555
C100_2 C101_2 1_555 1_555
C137_2 C138_2 1_555 1_555
C144_2 C145_2 1_555 1_555
C151_2 C152_2 1_555 1_555
C152_2 C153_2 1_555 1_555
C158_2 N18_2 1_555 1_555
C159_2 C160_2 1_555 1_555
C173_2 C174_2 1_555 1_555
C209_2 C210_2 1_555 1_555
N25_2 C261_2 1_555 1_555
C223_2 C224_2 1_555 1_555
C230_2 C231_2 1_555 1_555
C237_2 C238_2 1_555 1_555
C238_2 C239_2 1_555 1_555
C245_2 C246_2 1_555 1_555
C252_2 C253_2 1_555 1_555
C257_2 C258_2 1_555 1_555
C259_2 C260_2 1_555 1_555
C263_5 N32_2 1_555 1_555
Cu13_5 C263_5 1_555 1_555
C263_6 N33_2 1_555 1_555
Cu13_6 C263_6 1_555 1_555
Cu19 N8_3 1_555 1_555
N8_3 C88_3 1_555 1_555
C76_3 C75_3 1_555 1_555
C77_3 C76_3 1_555 1_555
H57_3 C77_3 1_555 1_555
N10_3 Cu19 1_555 1_555
C78_3 N10_3 1_555 1_555
H58_3 C78_3 1_555 1_555
C79_3 C75_3 1_555 1_555
H59_3 C79_3 1_555 1_555
C88_3 Cu16_3 1_555 1_555
C77_3 N10_3 1_555 1_555
C78_3 C79_3 1_555 1_555
Cu13_6 N1_3 1_555 1_555
Cu3_6 N2_3 1_555 1_555
O1_3 C4_3 1_555 1_555
O2_3 C3_3 1_555 1_555
O3_3 C23_3 1_555 1_555
O4_3 C11_3 1_555 1_555
O5_3 C10_3 1_555 1_555
O6_3 C37_3 1_555 1_555
O7_3 C18_3 1_555 1_555
O8_3 C17_3 1_555 1_555
O9_3 C30_3 1_555 1_555
N1_3 C40_3 1_555 1_555
N2_3 C43_3 1_555 1_555
C1_3 C2_3 1_555 1_555
C2_3 H1_3 1_555 1_555
C3_3 C2_3 1_555 1_555
C4_3 C3_3 1_555 1_555
C5_3 C4_3 1_555 1_555
H2_3 C5_3 1_555 1_555
C6_3 C1_3 1_555 1_555
C7_3 C6_3 1_555 1_555
H3_3 C7_3 1_555 1_555
H4_3 C7_3 1_555 1_555
C8_3 C7_3 1_555 1_555
C9_3 C8_3 1_555 1_555
H5_3 C9_3 1_555 1_555
C10_3 C9_3 1_555 1_555
C11_3 C10_3 1_555 1_555
C12_3 C11_3 1_555 1_555
H6_3 C12_3 1_555 1_555
C13_3 C8_3 1_555 1_555
C14_3 C13_3 1_555 1_555
H7_3 C14_3 1_555 1_555
H8_3 C14_3 1_555 1_555
C15_3 C14_3 1_555 1_555
C16_3 C15_3 1_555 1_555
H9_3 C16_3 1_555 1_555
C17_3 C16_3 1_555 1_555
C18_3 C17_3 1_555 1_555
C19_3 C18_3 1_555 1_555
H10_3 C19_3 1_555 1_555
C20_3 C15_3 1_555 1_555
C21_3 C1_3 1_555 1_555
H11_3 C21_3 1_555 1_555
H12_3 C21_3 1_555 1_555
C22_3 O1_3 1_555 1_555
H13_3 C22_3 1_555 1_555
H14_3 C22_3 1_555 1_555
H15_3 C22_3 1_555 1_555
C23_3 O2_3 1_555 1_555
C24_3 C23_3 1_555 1_555
C25_3 C24_3 1_555 1_555
H16_3 C25_3 1_555 1_555
C26_3 C25_3 1_555 1_555
N4_3 C26_3 1_555 1_555
C27_3 N4_3 1_555 1_555
H18_3 C27_3 1_555 1_555
C28_3 C24_3 1_555 1_555
H19_3 C28_3 1_555 1_555
C29_3 O7_3 1_555 1_555
H20_3 C29_3 1_555 1_555
H22_3 C29_3 1_555 1_555
C30_3 O8_3 1_555 1_555
C36_3 O4_3 1_555 1_555
H27_3 C36_3 1_555 1_555
H28_3 C36_3 1_555 1_555
H29_3 C36_3 1_555 1_555
C37_3 O5_3 1_555 1_555
C38_3 C37_3 1_555 1_555
C39_3 C38_3 1_555 1_555
H30_3 C39_3 1_555 1_555
C40_3 C39_3 1_555 1_555
H31_3 C40_3 1_555 1_555
C41_3 N1_3 1_555 1_555
H32_3 C41_3 1_555 1_555
C42_3 C38_3 1_555 1_555
H33_3 C42_3 1_555 1_555
C43_3 Cu13_6 1_555 1_555
Cu13_4 N6_3 1_555 1_555
O10_3 C48_3 1_555 1_555
O11_3 C47_3 1_555 1_555
O12_3 C67_3 1_555 1_555
O13_3 C55_3 1_555 1_555
O14_3 C54_3 1_555 1_555
O15_3 C81_3 1_555 1_555
O16_3 C62_3 1_555 1_555
O17_3 C61_3 1_555 1_555
O18_3 C74_3 1_555 1_555
N6_3 C84_3 1_555 1_555
N7_3 Cu3_6 1_555 1_555
C45_3 C46_3 1_555 1_555
C46_3 H34_3 1_555 1_555
C47_3 C46_3 1_555 1_555
C48_3 C47_3 1_555 1_555
C49_3 C48_3 1_555 1_555
H35_3 C49_3 1_555 1_555
C50_3 C45_3 1_555 1_555
C51_3 C50_3 1_555 1_555
H36_3 C51_3 1_555 1_555
H37_3 C51_3 1_555 1_555
C52_3 C51_3 1_555 1_555
C53_3 C52_3 1_555 1_555
H38_3 C53_3 1_555 1_555
C54_3 C53_3 1_555 1_555
C55_3 C54_3 1_555 1_555
C56_3 C55_3 1_555 1_555
H39_3 C56_3 1_555 1_555
C57_3 C52_3 1_555 1_555
C58_3 C57_3 1_555 1_555
H40_3 C58_3 1_555 1_555
H41_3 C58_3 1_555 1_555
C59_3 C58_3 1_555 1_555
C60_3 C59_3 1_555 1_555
H42_3 C60_3 1_555 1_555
C61_3 C60_3 1_555 1_555
C62_3 C61_3 1_555 1_555
C63_3 C62_3 1_555 1_555
H43_3 C63_3 1_555 1_555
C64_3 C59_3 1_555 1_555
C65_3 C45_3 1_555 1_555
H44_3 C65_3 1_555 1_555
H45_3 C65_3 1_555 1_555
C66_3 O10_3 1_555 1_555
H46_3 C66_3 1_555 1_555
H47_3 C66_3 1_555 1_555
H48_3 C66_3 1_555 1_555
C67_3 O11_3 1_555 1_555
C68_3 C67_3 1_555 1_555
C69_3 C68_3 1_555 1_555
H49_3 C69_3 1_555 1_555
C70_3 C69_3 1_555 1_555
N9_3 C70_3 1_555 1_555
C71_3 N9_3 1_555 1_555
H51_3 C71_3 1_555 1_555
C72_3 C68_3 1_555 1_555
H52_3 C72_3 1_555 1_555
C73_3 O16_3 1_555 1_555
H53_3 C73_3 1_555 1_555
H55_3 C73_3 1_555 1_555
C74_3 O17_3 1_555 1_555
C80_3 O13_3 1_555 1_555
H60_3 C80_3 1_555 1_555
H61_3 C80_3 1_555 1_555
H62_3 C80_3 1_555 1_555
C81_3 O14_3 1_555 1_555
C82_3 C81_3 1_555 1_555
C83_3 C82_3 1_555 1_555
H63_3 C83_3 1_555 1_555
C84_3 C83_3 1_555 1_555
H64_3 C84_3 1_555 1_555
C85_3 N6_3 1_555 1_555
H65_3 C85_3 1_555 1_555
C86_3 C82_3 1_555 1_555
H66_3 C86_3 1_555 1_555
C87_3 Cu13_4 1_555 1_555
Cu13_5 N11_3 1_555 1_555
Cu20 N13_3 1_555 1_555
O19_3 C92_3 1_555 1_555
O20_3 C91_3 1_555 1_555
O21_3 C111_3 1_555 1_555
O22_3 C99_3 1_555 1_555
O23_3 C98_3 1_555 1_555
O24_3 C125_3 1_555 1_555
O25_3 C106_3 1_555 1_555
O26_3 C105_3 1_555 1_555
O27_3 C118_3 1_555 1_555
N11_3 C128_3 1_555 1_555
N12_3 Cu3_6 1_555 1_555
N13_3 C132_3 1_555 1_555
C89_3 C90_3 1_555 1_555
C90_3 H67_3 1_555 1_555
C91_3 C90_3 1_555 1_555
C92_3 C91_3 1_555 1_555
C93_3 C92_3 1_555 1_555
H68_3 C93_3 1_555 1_555
C94_3 C89_3 1_555 1_555
C95_3 C94_3 1_555 1_555
H69_3 C95_3 1_555 1_555
H70_3 C95_3 1_555 1_555
C96_3 C95_3 1_555 1_555
C97_3 C96_3 1_555 1_555
H71_3 C97_3 1_555 1_555
C98_3 C97_3 1_555 1_555
C99_3 C98_3 1_555 1_555
C100_3 C99_3 1_555 1_555
H72_3 C100_3 1_555 1_555
C101_3 C96_3 1_555 1_555
C102_3 C101_3 1_555 1_555
H73_3 C102_3 1_555 1_555
H74_3 C102_3 1_555 1_555
C103_3 C102_3 1_555 1_555
C104_3 C103_3 1_555 1_555
H75_3 C104_3 1_555 1_555
C105_3 C104_3 1_555 1_555
C106_3 C105_3 1_555 1_555
C107_3 C106_3 1_555 1_555
H76_3 C107_3 1_555 1_555
C108_3 C103_3 1_555 1_555
C109_3 C89_3 1_555 1_555
H77_3 C109_3 1_555 1_555
H78_3 C109_3 1_555 1_555
C110_3 O19_3 1_555 1_555
H79_3 C110_3 1_555 1_555
H80_3 C110_3 1_555 1_555
H81_3 C110_3 1_555 1_555
C111_3 O20_3 1_555 1_555
C112_3 C111_3 1_555 1_555
C113_3 C112_3 1_555 1_555
H82_3 C113_3 1_555 1_555
C114_3 C113_3 1_555 1_555
H83_3 C114_3 1_555 1_555
N14_3 C114_3 1_555 1_555
C115_3 N14_3 1_555 1_555
H84_3 C115_3 1_555 1_555
C116_3 C112_3 1_555 1_555
H85_3 C116_3 1_555 1_555
C117_3 O25_3 1_555 1_555
H86_3 C117_3 1_555 1_555
H87_3 C117_3 1_555 1_555
H88_3 C117_3 1_555 1_555
C118_3 O26_3 1_555 1_555
C119_3 C118_3 1_555 1_555
C120_3 C119_3 1_555 1_555
H89_3 C120_3 1_555 1_555
C121_3 C120_3 1_555 1_555
H90_3 C121_3 1_555 1_555
N15_3 Cu20 1_555 1_555
C122_3 N15_3 1_555 1_555
H91_3 C122_3 1_555 1_555
C123_3 C119_3 1_555 1_555
H92_3 C123_3 1_555 1_555
C124_3 O22_3 1_555 1_555
H93_3 C124_3 1_555 1_555
H94_3 C124_3 1_555 1_555
H95_3 C124_3 1_555 1_555
C125_3 O23_3 1_555 1_555
C126_3 C125_3 1_555 1_555
C127_3 C126_3 1_555 1_555
H96_3 C127_3 1_555 1_555
C128_3 C127_3 1_555 1_555
H97_3 C128_3 1_555 1_555
C129_3 N11_3 1_555 1_555
H98_3 C129_3 1_555 1_555
C130_3 C126_3 1_555 1_555
H99_3 C130_3 1_555 1_555
C131_3 Cu13_5 1_555 1_555
C132_3 Cu14_3 1_555 1_555
Cu14_3 N16_3 1_555 1_555
Cu21_3 N17_3 1_555 1_555
O28_3 C136_3 1_555 1_555
O29_3 C135_3 1_555 1_555
O30_3 C155_3 1_555 1_555
O32_3 C142_3 1_555 1_555
O33_3 C169_3 1_555 1_555
O34_3 C150_3 1_555 1_555
O35_3 C149_3 1_555 1_555
N16_3 C172_3 1_555 1_555
N17_3 C175_3 1_555 1_555
C133_3 C134_3 1_555 1_555
C134_3 H100_3 1_555 1_555
C135_3 C134_3 1_555 1_555
C136_3 C135_3 1_555 1_555
C137_3 C136_3 1_555 1_555
H101_3 C137_3 1_555 1_555
C138_3 C133_3 1_555 1_555
C139_3 C138_3 1_555 1_555
H102_3 C139_3 1_555 1_555
H103_3 C139_3 1_555 1_555
C140_3 C139_3 1_555 1_555
C141_3 C140_3 1_555 1_555
H104_3 C141_3 1_555 1_555
C142_3 C141_3 1_555 1_555
C148_3 C147_3 1_555 1_555
C149_3 C148_3 1_555 1_555
C150_3 C149_3 1_555 1_555
C151_3 C150_3 1_555 1_555
H109_3 C151_3 1_555 1_555
C152_3 C147_3 1_555 1_555
C153_3 C133_3 1_555 1_555
H110_3 C153_3 1_555 1_555
H111_3 C153_3 1_555 1_555
C154_3 O28_3 1_555 1_555
H112_3 C154_3 1_555 1_555
H113_3 C154_3 1_555 1_555
H114_3 C154_3 1_555 1_555
C155_3 O29_3 1_555 1_555
C156_3 C155_3 1_555 1_555
C157_3 C156_3 1_555 1_555
H115_3 C157_3 1_555 1_555
C158_3 C157_3 1_555 1_555
H116_3 C158_3 1_555 1_555
N18_3 Cu13_5 1_555 1_555
C159_3 N18_3 1_555 1_555
H117_3 C159_3 1_555 1_555
C160_3 C156_3 1_555 1_555
H118_3 C160_3 1_555 1_555
C161_3 O34_3 1_555 1_555
H121_3 C161_3 1_555 1_555
C162_3 O35_3 1_555 1_555
C163_3 C162_3 1_555 1_555
H124_3 C166_3 1_555 1_555
C167_3 C163_3 1_555 1_555
H125_3 C167_3 1_555 1_555
C169_3 O32_3 1_555 1_555
C170_3 C169_3 1_555 1_555
C171_3 C170_3 1_555 1_555
H129_3 C171_3 1_555 1_555
C172_3 C171_3 1_555 1_555
H130_3 C172_3 1_555 1_555
C173_3 N16_3 1_555 1_555
C174_3 C170_3 1_555 1_555
C175_3 Cu14_3 1_555 1_555
O37_3 C179_3 1_555 1_555
O38_3 C178_3 1_555 1_555
O39_3 C198_3 1_555 1_555
C177_3 H133_3 1_555 1_555
C178_3 C177_3 1_555 1_555
C179_3 C178_3 1_555 1_555
C180_3 C179_3 1_555 1_555
H134_3 C180_3 1_555 1_555
C197_3 O37_3 1_555 1_555
H145_3 C197_3 1_555 1_555
H146_3 C197_3 1_555 1_555
H147_3 C197_3 1_555 1_555
C198_3 O38_3 1_555 1_555
C199_3 C198_3 1_555 1_555
C200_3 C199_3 1_555 1_555
H148_3 C200_3 1_555 1_555
C201_3 C200_3 1_555 1_555
H149_3 C201_3 1_555 1_555
N22_3 Cu13_6 1_555 1_555
C202_3 N22_3 1_555 1_555
H150_3 C202_3 1_555 1_555
C203_3 C199_3 1_555 1_555
H151_3 C203_3 1_555 1_555
O49_3 C229_3 1_555 1_555
C230_3 C229_3 1_555 1_555
H171_3 C230_3 1_555 1_555
C232_3 C231_3 1_555 1_555
H172_3 C232_3 1_555 1_555
H173_3 C232_3 1_555 1_555
C254_3 O49_3 1_555 1_555
H192_3 C254_3 1_555 1_555
H193_3 C254_3 1_555 1_555
H194_3 C254_3 1_555 1_555
Cu15_3 N14_3 1_555 1_555
N36_3 Cu13_4 1_555 1_555
C5_3 C6_3 1_555 1_555
C12_3 C13_3 1_555 1_555
C19_3 C20_3 1_555 1_555
C20_3 C21_3 1_555 1_555
C27_3 C28_3 1_555 1_555
C41_3 C42_3 1_555 1_555
N7_3 C87_3 1_555 1_555
C49_3 C50_3 1_555 1_555
C56_3 C57_3 1_555 1_555
C63_3 C64_3 1_555 1_555
C64_3 C65_3 1_555 1_555
C71_3 C72_3 1_555 1_555
C85_3 C86_3 1_555 1_555
N12_3 C131_3 1_555 1_555
C93_3 C94_3 1_555 1_555
C100_3 C101_3 1_555 1_555
C107_3 C108_3 1_555 1_555
C108_3 C109_3 1_555 1_555
C115_3 C116_3 1_555 1_555
C121_3 N15_3 1_555 1_555
C122_3 C123_3 1_555 1_555
C129_3 C130_3 1_555 1_555
C137_3 C138_3 1_555 1_555
C151_3 C152_3 1_555 1_555
C152_3 C153_3 1_555 1_555
C158_3 N18_3 1_555 1_555
C159_3 C160_3 1_555 1_555
C166_3 C167_3 1_555 1_555
C173_3 C174_3 1_555 1_555
C201_3 N22_3 1_555 1_555
C202_3 C203_3 1_555 1_555
C230_3 C231_3 1_555 1_555
H188_3 C250_3 1_555 1_555
C251_3 C250_3 1_555 1_555
H189_3 C251_3 1_555 1_555
Cu18 N3_3 1_555 1_555
N3_3 C44_3 1_555 1_555
C32_3 C31_3 1_555 1_555
C33_3 C32_3 1_555 1_555
H24_3 C33_3 1_555 1_555
N5_3 Cu18 1_555 1_555
C34_3 N5_3 1_555 1_555
H25_3 C34_3 1_555 1_555
C35_3 C31_3 1_555 1_555
H26_3 C35_3 1_555 1_555
C44_3 Cu15_3 1_555 1_555
Cu15_3 N20_3 1_555 1_555
O40_3 C186_3 1_555 1_555
O41_3 C185_3 1_555 1_555
O42_3 C212_3 1_555 1_555
O43_3 C193_3 1_555 1_555
O44_3 C192_3 1_555 1_555
N20_3 C215_3 1_555 1_555
N21_3 C218_3 1_555 1_555
C181_3 C176_3 1_555 1_555
C182_3 C181_3 1_555 1_555
H135_3 C182_3 1_555 1_555
H136_3 C182_3 1_555 1_555
C183_3 C182_3 1_555 1_555
C184_3 C183_3 1_555 1_555
H137_3 C184_3 1_555 1_555
C185_3 C184_3 1_555 1_555
C186_3 C185_3 1_555 1_555
C187_3 C186_3 1_555 1_555
H138_3 C187_3 1_555 1_555
C188_3 C183_3 1_555 1_555
C189_3 C188_3 1_555 1_555
H139_3 C189_3 1_555 1_555
H140_3 C189_3 1_555 1_555
C190_3 C189_3 1_555 1_555
C191_3 C190_3 1_555 1_555
H141_3 C191_3 1_555 1_555
C192_3 C191_3 1_555 1_555
C193_3 C192_3 1_555 1_555
C194_3 C193_3 1_555 1_555
H142_3 C194_3 1_555 1_555
C195_3 C190_3 1_555 1_555
C196_3 C176_3 1_555 1_555
H143_3 C196_3 1_555 1_555
H144_3 C196_3 1_555 1_555
C204_3 O43_3 1_555 1_555
H154_3 C204_3 1_555 1_555
C205_3 O44_3 1_555 1_555
C206_3 C205_3 1_555 1_555
C209_3 N38_2 1_555 1_555
H157_3 C209_3 1_555 1_555
C210_3 C206_3 1_555 1_555
H158_3 C210_3 1_555 1_555
C211_3 O40_3 1_555 1_555
H159_3 C211_3 1_555 1_555
H160_3 C211_3 1_555 1_555
H161_3 C211_3 1_555 1_555
C212_3 O41_3 1_555 1_555
C213_3 C212_3 1_555 1_555
C214_3 C213_3 1_555 1_555
H162_3 C214_3 1_555 1_555
C215_3 C214_3 1_555 1_555
H163_3 C215_3 1_555 1_555
C216_3 N20_3 1_555 1_555
H164_3 C216_3 1_555 1_555
C217_3 C213_3 1_555 1_555
H165_3 C217_3 1_555 1_555
C218_3 Cu15_3 1_555 1_555
O50_3 C228_3 1_555 1_555
O51_3 C255_3 1_555 1_555
O52_3 C236_3 1_555 1_555
O53_3 C235_3 1_555 1_555
N24_3 Cu16_3 1_555 1_555
N25_3 Cu21_4 1_555 1_555
C224_3 C219_3 1_555 1_555
C225_3 C224_3 1_555 1_555
H168_3 C225_3 1_555 1_555
H169_3 C225_3 1_555 1_555
C226_3 C225_3 1_555 1_555
C227_3 C226_3 1_555 1_555
H170_3 C227_3 1_555 1_555
C228_3 C227_3 1_555 1_555
C234_3 C233_3 1_555 1_555
C235_3 C234_3 1_555 1_555
C236_3 C235_3 1_555 1_555
C237_3 C236_3 1_555 1_555
H175_3 C237_3 1_555 1_555
C238_3 C233_3 1_555 1_555
C239_3 C219_3 1_555 1_555
H176_3 C239_3 1_555 1_555
H177_3 C239_3 1_555 1_555
C247_3 O52_3 1_555 1_555
H187_3 C247_3 1_555 1_555
C248_3 O53_3 1_555 1_555
C249_3 C248_3 1_555 1_555
H190_3 C252_3 1_555 1_555
C253_3 C249_3 1_555 1_555
H191_3 C253_3 1_555 1_555
C255_3 O50_3 1_555 1_555
C256_3 C255_3 1_555 1_555
C257_3 C256_3 1_555 1_555
H195_3 C257_3 1_555 1_555
C258_3 N24_3 1_555 1_555
H196_3 C258_3 1_555 1_555
C259_3 N24_3 1_555 1_555
C260_3 C256_3 1_555 1_555
C261_3 Cu16_3 1_555 1_555
Cu21_6 N21_3 1_555 1_555
C33_3 N5_3 1_555 1_555
C34_3 C35_3 1_555 1_555
C187_3 C188_3 1_555 1_555
C194_3 C195_3 1_555 1_555
C195_3 C196_3 1_555 1_555
C209_3 C210_3 1_555 1_555
C216_3 C217_3 1_555 1_555
N25_3 C261_3 1_555 1_555
C237_3 C238_3 1_555 1_555
C238_3 C239_3 1_555 1_555
C252_3 C253_3 1_555 1_555
C257_3 C258_3 1_555 1_555
C259_3 C260_3 1_555 1_555
H155_3 C207_3 1_555 1_555
C208_3 C207_3 1_555 1_555
H156_3 C208_3 1_555 1_555
O31_3 C143_3 1_555 1_555
C144_3 C143_3 1_555 1_555
H105_3 C144_3 1_555 1_555
C146_3 C145_3 1_555 1_555
H106_3 C146_3 1_555 1_555
H107_3 C146_3 1_555 1_555
C168_3 O31_3 1_555 1_555
H126_3 C168_3 1_555 1_555
H127_3 C168_3 1_555 1_555
H128_3 C168_3 1_555 1_555
C144_3 C145_3 1_555 1_555
H122_3 C164_3 1_555 1_555
C165_3 C164_3 1_555 1_555
H123_3 C165_3 1_555 1_555
O46_3 C222_3 1_555 1_555
O47_3 C221_3 1_555 1_555
O48_3 C241_3 1_555 1_555
C220_3 H166_3 1_555 1_555
C221_3 C220_3 1_555 1_555
C222_3 C221_3 1_555 1_555
C223_3 C222_3 1_555 1_555
H167_3 C223_3 1_555 1_555
C240_3 O46_3 1_555 1_555
H178_3 C240_3 1_555 1_555
H179_3 C240_3 1_555 1_555
H180_3 C240_3 1_555 1_555
C241_3 O47_3 1_555 1_555
C242_3 C241_3 1_555 1_555
C243_3 C242_3 1_555 1_555
H181_3 C243_3 1_555 1_555
C244_3 C243_3 1_555 1_555
H182_3 C244_3 1_555 1_555
N36_3 C244_3 1_555 1_555
C245_3 N36_3 1_555 1_555
H183_3 C245_3 1_555 1_555
C246_3 C242_3 1_555 1_555
H184_3 C246_3 1_555 1_555
C245_3 C246_3 1_555 1_555
N3_2 Cu2_4 1_555 1_555
N5_2 Cu2_4 1_555 1_555
N13_2 Cu7_5 1_555 1_555
N15_2 Cu7_5 1_555 1_555
N8_2 Cu5_3 1_555 1_555
N10_2 Cu5_3 1_555 1_555

#END
