
###############################################################################
#
# This file contains modified crystal structure data generated from the
# MOF subset of the Cambridge Structural Database (CSD) v543 
# hosted by the Cambridge Crystallographic Data Centre (CCDC).
#
# This work is licensed under the Creative Commons
# Attribution-NonCommercial-ShareAlike 4.0 International License.
# To view a copy of this license, visit
# http://creativecommons.org/licenses/by-nc-sa/4.0/
# or send a letter to
# Creative Commons, PO Box 1866, Mountain View, CA 94042, USA.
#
# CIF created using the CSD Python API on 29 September 2022
# The structure has been converted into the P1 space group
# The structure has a 3D framework
# The original CSD entry CURBOH is in the monoclinic crystal system
# The framework has been calculated to contain at least 10.0% void space
# The void calculation uses a probe of radius 1.32A, grid spacing 0.4
#
###############################################################################

data_CURBOH
_chemical_formula_moiety         '(C288 H192 I48 N96 Zn24)n'
_symmetry_cell_setting           triclinic
_symmetry_space_group_name_H-M   'P 1'
_symmetry_Int_Tables_number      1
_space_group_name_Hall           'P 1'
loop_
_symmetry_equiv_pos_site_id
_symmetry_equiv_pos_as_xyz
1 x,y,z
_cell_length_a                   34.468(7)
_cell_length_b                   14.830(3)
_cell_length_c                   33.920(7)
_cell_angle_alpha                90
_cell_angle_beta                 106.45(3)
_cell_angle_gamma                90
_cell_volume                     16628.8
loop_
_atom_site_label
_atom_site_type_symbol
_atom_site_fract_x
_atom_site_fract_y
_atom_site_fract_z
I3 I 0.73434(5) 0.73725(9) 0.29000(5)
I4 I 0.62119(6) 0.67053(10) 0.19739(5)
Zn2 Zn 0.67099(7) 0.64267(14) 0.26738(8)
C1 C 0.8318(6) 0.0639(11) 0.3932(6)
H1 H 0.8494 0.0990 0.4143
C2 C 0.8002(6) 0.1070(12) 0.3653(6)
H2 H 0.7963 0.1698 0.3681
C3 C 0.7743(5) 0.0601(10) 0.3337(5)
C6 C 0.7433(5) 0.1014(12) 0.3026(6)
C7 C 0.6610(7) 0.4525(14) 0.2426(7)
H5 H 0.6407 0.4778 0.2203
C8 C 0.6673(7) 0.3603(12) 0.2445(7)
H6 H 0.6515 0.3235 0.2230
C9 C 0.6956(5) 0.3205(10) 0.2764(5)
C10 C 0.7153(7) 0.3752(12) 0.3081(6)
H7 H 0.7340 0.3509 0.3319
C11 C 0.7071(7) 0.4700(13) 0.3049(7)
H8 H 0.7197 0.5081 0.3274
C12 C 0.7044(7) 0.2221(11) 0.2763(6)
C15 C 0.6732(6) 0.0387(11) 0.2064(5)
C16 C 0.6460(7) 0.0798(12) 0.1737(6)
H11 H 0.6376 0.1400 0.1761
C17 C 0.6312(8) 0.0332(14) 0.1379(7)
H12 H 0.6122 0.0630 0.1159
C18 C 0.6932(5) 0.0924(10) 0.2427(5)
C19 C 0.6351(10) 0.0380(15) 0.0219(7)
H13 H 0.6622 0.0170 0.0300
C22 C 0.5568(7) 0.1027(13) 0.0003(6)
C23 C 0.5727(13) 0.0260(18) 0.0286(8)
N2 N 0.6829(5) 0.5057(10) 0.2717(5)
N4 N 0.7345(4) 0.1928(9) 0.3076(4)
N5 N 0.6816(4) 0.1749(9) 0.2445(4)
N6 N 0.7224(5) 0.0521(9) 0.2706(4)
N14 N 0.6438(5) 0.6542(11) 0.3144(5)
C20 C 0.6260(7) 0.1081(14) 0.9958(6)
H14 H 0.6459 0.1336 0.9846
C21 C 0.5859(8) 0.1430(12) 0.9854(6)
H15 H 0.5294 0.1219 0.9931
C24 C 0.5746(6) 0.2215(11) 0.9578(6)
C25 C 0.4507(8) 0.5097(17) 0.9079(8)
H17 H 0.4406 0.5549 0.8878
C26 C 0.4823(7) 0.4561(15) 0.9037(7)
H18 H 0.4919 0.4601 0.8801
C27 C 0.4992(5) 0.3963(11) 0.9354(5)
C28 C 0.4843(6) 0.3931(14) 0.9683(6)
H19 H 0.4964 0.3555 0.9911
C29 C 0.4514(7) 0.4452(14) 0.9679(6)
H20 H 0.4405 0.4403 0.9905
C30 C 0.5335(5) 0.3389(11) 0.9341(5)
C31 C 0.6625(7) 0.3071(19) 0.8518(9)
H21 H 0.6894 0.2861 0.8561
C32 C 0.6460(6) 0.2970(15) 0.8820(7)
H22 H 0.6609 0.2739 0.9080
C33 C 0.6040(6) 0.3228(14) 0.8736(8)
C34 C 0.5863(7) 0.3612(18) 0.8389(8)
H23 H 0.5602 0.3869 0.8345
C35 C 0.6042(8) 0.365(3) 0.8101(9)
H24 H 0.5881 0.3820 0.7835
C36 C 0.5830(5) 0.3017(12) 0.9049(5)
N8 N 0.4339(4) 0.5020(10) 0.9379(4)
N9 N 0.6438(5) 0.3458(11) 0.8144(5)
N10 N 0.5436(4) 0.2722(9) 0.9610(5)
N11 N 0.5509(4) 0.3576(10) 0.9041(4)
N12 N 0.5953(4) 0.2351(10) 0.9311(5)
Zn4 Zn 0.38448(6) 0.58194(13) 0.93631(6)
Zn5 Zn 0.67099(7) 0.35733(14) 0.76738(8)
I3_2 I 0.23434(5) 0.23725(9) 0.29000(5)
I4_2 I 0.12119(6) 0.17053(10) 0.19739(5)
Zn2_2 Zn 0.17099(7) 0.14267(14) 0.26738(8)
H8_2 H 0.2197 0.0081 0.3274
N2_2 N 0.1829(5) 0.0057(10) 0.2717(5)
N14_2 N 0.1438(5) 0.1542(11) 0.3144(5)
I1 I 0.36548(4) 0.43743(9) 0.50279(4)
I2 I 0.39874(4) 0.26844(8) 0.40714(5)
I5 I 0.18600(10) 0.30913(14) 0.06188(7)
I6 I 0.06217(11) 0.3025(2) 0.07559(10)
Zn1 Zn 0.38448(6) 0.41806(13) 0.43631(6)
Zn3 Zn 0.12336(12) 0.38498(17) 0.07502(8)
C1_2 C 0.3318(6) 0.5639(11) 0.3932(6)
H1_2 H 0.3494 0.5990 0.4143
C2_2 C 0.3002(6) 0.6070(12) 0.3653(6)
H2_2 H 0.2963 0.6698 0.3681
C3_2 C 0.2743(5) 0.5601(10) 0.3337(5)
C4 C 0.2820(6) 0.4710(12) 0.3326(5)
H3 H 0.2651 0.4347 0.3115
C5 C 0.3137(6) 0.4319(12) 0.3613(6)
H4 H 0.3183 0.3691 0.3593
C6_2 C 0.2433(5) 0.6014(12) 0.3026(6)
C7_2 C 0.1610(7) 0.9525(14) 0.2426(7)
H5_2 H 0.1407 0.9778 0.2203
C8_2 C 0.1673(7) 0.8603(12) 0.2445(7)
H6_2 H 0.1515 0.8235 0.2230
C9_2 C 0.1956(5) 0.8205(10) 0.2764(5)
C10_2 C 0.2153(7) 0.8752(12) 0.3081(6)
H7_2 H 0.2340 0.8509 0.3319
C11_2 C 0.2071(7) 0.9700(13) 0.3049(7)
C12_2 C 0.2044(7) 0.7221(11) 0.2763(6)
C13 C 0.1653(7) 0.4059(12) 0.1633(5)
H9 H 0.1700 0.3432 0.1613
C14 C 0.1843(6) 0.4517(13) 0.2010(6)
H10 H 0.2045 0.4221 0.2221
C15_2 C 0.1732(6) 0.5387(11) 0.2064(5)
C16_2 C 0.1460(7) 0.5798(12) 0.1737(6)
H11_2 H 0.1376 0.6400 0.1761
C17_2 C 0.1312(8) 0.5332(14) 0.1379(7)
H12_2 H 0.1122 0.5630 0.1159
C18_2 C 0.1932(5) 0.5924(10) 0.2427(5)
C19_2 C 0.1351(10) 0.5380(15) 0.0219(7)
H13_2 H 0.1622 0.5170 0.0300
C22_2 C 0.0568(7) 0.6027(13) 0.0003(6)
C23_2 C 0.0727(13) 0.5260(18) 0.0286(8)
H16 H 0.0549 0.4967 0.0414
N1 N 0.3387(4) 0.4786(9) 0.3923(4)
N3 N 0.1417(5) 0.4480(9) 0.1315(5)
N4_2 N 0.2345(4) 0.6928(9) 0.3076(4)
N5_2 N 0.1816(4) 0.6749(9) 0.2445(4)
N6_2 N 0.2224(5) 0.5521(9) 0.2706(4)
N7 N 0.1091(8) 0.4978(12) 0.0366(6)
N13 N 0.4339(4) 0.4980(10) 0.4379(4)
I3_3 I 0.73434(5) 0.26275(9) 0.79000(5)
I4_3 I 0.62119(6) 0.32947(10) 0.69739(5)
C1_3 C 0.8318(6) 0.9361(11) 0.8932(6)
H1_3 H 0.8494 0.9010 0.9143
C2_3 C 0.8002(6) 0.8930(12) 0.8653(6)
H2_3 H 0.7963 0.8302 0.8681
C3_3 C 0.7743(5) 0.9399(10) 0.8337(5)
C6_3 C 0.7433(5) 0.8986(12) 0.8026(6)
C7_3 C 0.6610(7) 0.5475(14) 0.7426(7)
H5_3 H 0.6407 0.5222 0.7203
C8_3 C 0.6673(7) 0.6397(12) 0.7445(7)
H6_3 H 0.6515 0.6765 0.7230
C9_3 C 0.6956(5) 0.6795(10) 0.7764(5)
C10_3 C 0.7153(7) 0.6248(12) 0.8081(6)
H7_3 H 0.7340 0.6491 0.8319
C11_3 C 0.7071(7) 0.5300(13) 0.8049(7)
H8_3 H 0.7197 0.4919 0.8274
C12_3 C 0.7044(7) 0.7779(11) 0.7763(6)
C15_3 C 0.6732(6) 0.9613(11) 0.7064(5)
C16_3 C 0.6460(7) 0.9202(12) 0.6737(6)
H11_3 H 0.6376 0.8600 0.6761
C17_3 C 0.6312(8) 0.9668(14) 0.6379(7)
H12_3 H 0.6122 0.9370 0.6159
C18_3 C 0.6932(5) 0.9076(10) 0.7427(5)
C19_3 C 0.6351(10) 0.9620(15) 0.5219(7)
H13_3 H 0.6622 0.9830 0.5300
C20_2 C 0.6260(7) 0.8919(14) 0.4958(6)
H14_2 H 0.6459 0.8664 0.4846
C21_2 C 0.5859(8) 0.8570(12) 0.4854(6)
C22_3 C 0.5568(7) 0.8973(13) 0.5003(6)
H15_2 H 0.5294 0.8781 0.4931
C23_3 C 0.5727(13) 0.9740(18) 0.5286(8)
C24_2 C 0.5746(6) 0.7785(11) 0.4578(6)
C25_2 C 0.4507(8) 0.4903(17) 0.4079(8)
H17_2 H 0.4406 0.4451 0.3878
C26_2 C 0.4823(7) 0.5439(15) 0.4037(7)
H18_2 H 0.4919 0.5399 0.3801
C27_2 C 0.4992(5) 0.6037(11) 0.4354(5)
C28_2 C 0.4843(6) 0.6069(14) 0.4683(6)
H19_2 H 0.4964 0.6445 0.4911
C29_2 C 0.4514(7) 0.5548(14) 0.4679(6)
H20_2 H 0.4405 0.5597 0.4905
C30_2 C 0.5335(5) 0.6611(11) 0.4341(5)
C31_2 C 0.6625(7) 0.6929(19) 0.3518(9)
H21_2 H 0.6894 0.7139 0.3561
C32_2 C 0.6460(6) 0.7030(15) 0.3820(7)
H22_2 H 0.6609 0.7261 0.4080
C33_2 C 0.6040(6) 0.6772(14) 0.3736(8)
C34_2 C 0.5863(7) 0.6388(18) 0.3389(8)
H23_2 H 0.5602 0.6131 0.3345
C35_2 C 0.6042(8) 0.635(3) 0.3101(9)
H24_2 H 0.5881 0.6180 0.2835
C36_2 C 0.5830(5) 0.6983(12) 0.4049(5)
N2_3 N 0.6829(5) 0.4943(10) 0.7717(5)
N4_3 N 0.7345(4) 0.8072(9) 0.8076(4)
N5_3 N 0.6816(4) 0.8251(9) 0.7445(4)
N6_3 N 0.7224(5) 0.9479(9) 0.7706(4)
N10_2 N 0.5436(4) 0.7278(9) 0.4610(5)
N11_2 N 0.5509(4) 0.6424(10) 0.4041(4)
N12_2 N 0.5953(4) 0.7649(10) 0.4311(5)
I2_2 I 0.39874(4) 0.73156(8) 0.90714(5)
I5_2 I 0.18600(10) 0.69087(14) 0.56188(7)
I6_2 I 0.06217(11) 0.6975(2) 0.57559(10)
Zn3_2 Zn 0.12336(12) 0.61502(17) 0.57502(8)
C1_4 C 0.3318(6) 0.4361(11) 0.8932(6)
H1_4 H 0.3494 0.4010 0.9143
C2_4 C 0.3002(6) 0.3930(12) 0.8653(6)
H2_4 H 0.2963 0.3302 0.8681
C3_4 C 0.2743(5) 0.4399(10) 0.8337(5)
C4_2 C 0.2820(6) 0.5290(12) 0.8326(5)
H3_2 H 0.2651 0.5653 0.8115
C5_2 C 0.3137(6) 0.5681(12) 0.8613(6)
H4_2 H 0.3183 0.6309 0.8593
C6_4 C 0.2433(5) 0.3986(12) 0.8026(6)
C7_4 C 0.1610(7) 0.0475(14) 0.7426(7)
H5_4 H 0.1407 0.0222 0.7203
C8_4 C 0.1673(7) 0.1397(12) 0.7445(7)
H6_4 H 0.1515 0.1765 0.7230
C9_4 C 0.1956(5) 0.1795(10) 0.7764(5)
C10_4 C 0.2153(7) 0.1248(12) 0.8081(6)
H7_4 H 0.2340 0.1491 0.8319
C11_4 C 0.2071(7) 0.0300(13) 0.8049(7)
C12_4 C 0.2044(7) 0.2779(11) 0.7763(6)
C13_2 C 0.1653(7) 0.5941(12) 0.6633(5)
H9_2 H 0.1700 0.6568 0.6613
C14_2 C 0.1843(6) 0.5483(13) 0.7010(6)
H10_2 H 0.2045 0.5779 0.7221
C15_4 C 0.1732(6) 0.4613(11) 0.7064(5)
C16_4 C 0.1460(7) 0.4202(12) 0.6737(6)
H11_4 H 0.1376 0.3600 0.6761
C17_4 C 0.1312(8) 0.4668(14) 0.6379(7)
H12_4 H 0.1122 0.4370 0.6159
C18_4 C 0.1932(5) 0.4076(10) 0.7427(5)
C19_4 C 0.1351(10) 0.4620(15) 0.5219(7)
H13_4 H 0.1622 0.4830 0.5300
C20_3 C 0.1260(7) 0.3919(14) 0.4958(6)
H14_3 H 0.1459 0.3664 0.4846
C21_3 C 0.0859(8) 0.3570(12) 0.4854(6)
C22_4 C 0.0568(7) 0.3973(13) 0.5003(6)
H15_3 H 0.0294 0.3781 0.4931
C23_4 C 0.0727(13) 0.4740(18) 0.5286(8)
H16_2 H 0.0549 0.5033 0.5414
C24_3 C 0.0746(6) 0.2785(11) 0.4578(6)
C30_3 C 0.0335(5) 0.1611(11) 0.4341(5)
C31_3 C 0.1625(7) 0.1929(19) 0.3518(9)
H21_3 H 0.1894 0.2139 0.3561
C32_3 C 0.1460(6) 0.2030(15) 0.3820(7)
H22_3 H 0.1609 0.2261 0.4080
C33_3 C 0.1040(6) 0.1772(14) 0.3736(8)
C34_3 C 0.0863(7) 0.1388(18) 0.3389(8)
H23_3 H 0.0602 0.1131 0.3345
C35_3 C 0.1042(8) 0.135(3) 0.3101(9)
H24_3 H 0.0881 0.1180 0.2835
C36_3 C 0.0830(5) 0.1983(12) 0.4049(5)
N1_2 N 0.3387(4) 0.5214(9) 0.8923(4)
N3_2 N 0.1417(5) 0.5520(9) 0.6315(5)
N4_4 N 0.2345(4) 0.3072(9) 0.8076(4)
N5_4 N 0.1816(4) 0.3251(9) 0.7445(4)
N6_4 N 0.2224(5) 0.4479(9) 0.7706(4)
N7_2 N 0.1091(8) 0.5022(12) 0.5366(6)
N10_3 N 0.0436(4) 0.2278(9) 0.4610(5)
N11_3 N 0.0509(4) 0.1424(10) 0.4041(4)
N12_3 N 0.0953(4) 0.2649(10) 0.4311(5)
I1_2 I 0.86548(4) 0.93743(9) 0.50279(4)
I2_3 I 0.89874(4) 0.76844(8) 0.40714(5)
I5_3 I 0.68600(10) 0.80913(14) 0.06188(7)
I6_3 I 0.56217(11) 0.8025(2) 0.07559(10)
Zn1_2 Zn 0.88448(6) 0.91806(13) 0.43631(6)
Zn3_3 Zn 0.62336(12) 0.88498(17) 0.07502(8)
C4_3 C 0.7820(6) 0.9710(12) 0.3326(5)
H3_3 H 0.7651 0.9347 0.3115
C5_3 C 0.8137(6) 0.9319(12) 0.3613(6)
H4_3 H 0.8183 0.8691 0.3593
C13_3 C 0.6653(7) 0.9059(12) 0.1633(5)
H9_3 H 0.6700 0.8432 0.1613
C14_3 C 0.6843(6) 0.9517(13) 0.2010(6)
H10_3 H 0.7045 0.9221 0.2221
H16_3 H 0.5549 0.9967 0.0414
N1_3 N 0.8387(4) 0.9786(9) 0.3923(4)
N3_3 N 0.6417(5) 0.9480(9) 0.1315(5)
N7_3 N 0.6091(8) 0.9978(12) 0.0366(6)
N13_2 N 0.9339(4) 0.9980(10) 0.4379(4)
C25_3 C 0.9507(8) 0.9903(17) 0.4079(8)
H17_3 H 0.9406 0.9451 0.3878
I3_4 I 0.26566(5) 0.73725(9) 0.21000(5)
I4_4 I 0.37881(6) 0.67053(10) 0.30261(5)
Zn2_3 Zn 0.32901(7) 0.64267(14) 0.23262(8)
C1_5 C 0.1682(6) 0.0639(11) 0.1068(6)
H1_5 H 0.1506 0.0990 0.0857
C2_5 C 0.1998(6) 0.1070(12) 0.1347(6)
H2_5 H 0.2037 0.1698 0.1319
C3_5 C 0.2257(5) 0.0601(10) 0.1663(5)
C6_5 C 0.2567(5) 0.1014(12) 0.1974(6)
C7_5 C 0.3390(7) 0.4525(14) 0.2574(7)
H5_5 H 0.3593 0.4778 0.2797
C8_5 C 0.3327(7) 0.3603(12) 0.2555(7)
H6_5 H 0.3485 0.3235 0.2770
C9_5 C 0.3044(5) 0.3205(10) 0.2236(5)
C10_5 C 0.2847(7) 0.3752(12) 0.1919(6)
H7_5 H 0.2660 0.3509 0.1681
C11_5 C 0.2929(7) 0.4700(13) 0.1951(7)
H8_4 H 0.2803 0.5081 0.1726
C12_5 C 0.2956(7) 0.2221(11) 0.2237(6)
C15_5 C 0.3268(6) 0.0387(11) 0.2936(5)
C16_5 C 0.3540(7) 0.0798(12) 0.3263(6)
H11_5 H 0.3624 0.1400 0.3239
C17_5 C 0.3688(8) 0.0332(14) 0.3621(7)
H12_5 H 0.3878 0.0630 0.3841
C18_5 C 0.3068(5) 0.0924(10) 0.2573(5)
C19_5 C 0.3649(10) 0.0380(15) 0.4781(7)
H13_5 H 0.3378 0.0170 0.4700
C20_4 C 0.3740(7) 0.1081(14) 0.5042(6)
H14_4 H 0.3541 0.1336 0.5154
C21_4 C 0.4141(8) 0.1430(12) 0.5146(6)
C22_5 C 0.4432(7) 0.1027(13) 0.4997(6)
H15_4 H 0.4706 0.1219 0.5069
C23_5 C 0.4273(13) 0.0260(18) 0.4714(8)
C24_4 C 0.4254(6) 0.2215(11) 0.5422(6)
C25_4 C 0.5493(8) 0.5097(17) 0.5921(8)
H17_4 H 0.5594 0.5549 0.6122
C26_3 C 0.5177(7) 0.4561(15) 0.5963(7)
H18_3 H 0.5081 0.4601 0.6199
C27_3 C 0.5008(5) 0.3963(11) 0.5646(5)
C28_3 C 0.5157(6) 0.3931(14) 0.5317(6)
H19_3 H 0.5036 0.3555 0.5089
C29_3 C 0.5486(7) 0.4452(14) 0.5321(6)
H20_3 H 0.5595 0.4403 0.5095
C30_4 C 0.4665(5) 0.3389(11) 0.5659(5)
C31_4 C 0.3375(7) 0.3071(19) 0.6482(9)
H21_4 H 0.3106 0.2861 0.6439
C32_4 C 0.3540(6) 0.2970(15) 0.6180(7)
H22_4 H 0.3391 0.2739 0.5920
C33_4 C 0.3960(6) 0.3228(14) 0.6264(8)
C34_4 C 0.4137(7) 0.3612(18) 0.6611(8)
H23_4 H 0.4398 0.3869 0.6655
C35_4 C 0.3958(8) 0.365(3) 0.6899(9)
H24_4 H 0.4119 0.3820 0.7165
C36_4 C 0.4170(5) 0.3017(12) 0.5951(5)
N2_4 N 0.3171(5) 0.5057(10) 0.2283(5)
N4_5 N 0.2655(4) 0.1928(9) 0.1924(4)
N5_5 N 0.3184(4) 0.1749(9) 0.2555(4)
N6_5 N 0.2776(5) 0.0521(9) 0.2294(4)
N8_2 N 0.5661(4) 0.5020(10) 0.5621(4)
N9_2 N 0.3562(5) 0.3458(11) 0.6856(5)
N10_4 N 0.4564(4) 0.2722(9) 0.5390(5)
N11_4 N 0.4491(4) 0.3576(10) 0.5959(4)
N12_4 N 0.4047(4) 0.2351(10) 0.5689(5)
Zn4_2 Zn 0.61552(6) 0.58194(13) 0.56369(6)
Zn5_2 Zn 0.32901(7) 0.35733(14) 0.73262(8)
N14_3 N 0.3562(5) 0.6542(11) 0.1856(5)
I2_4 I 0.60126(4) 0.26844(8) 0.09286(5)
I5_4 I 0.81400(10) 0.30913(14) 0.43812(7)
I6_4 I 0.93783(11) 0.3025(2) 0.42441(10)
Zn1_3 Zn 0.61552(6) 0.41806(13) 0.06369(6)
Zn3_4 Zn 0.87664(12) 0.38498(17) 0.42498(8)
C1_6 C 0.6682(6) 0.5639(11) 0.1068(6)
H1_6 H 0.6506 0.5990 0.0857
C2_6 C 0.6998(6) 0.6070(12) 0.1347(6)
H2_6 H 0.7037 0.6698 0.1319
C3_6 C 0.7257(5) 0.5601(10) 0.1663(5)
C4_4 C 0.7180(6) 0.4710(12) 0.1674(5)
H3_4 H 0.7349 0.4347 0.1885
C5_4 C 0.6863(6) 0.4319(12) 0.1387(6)
H4_4 H 0.6817 0.3691 0.1407
C6_6 C 0.7567(5) 0.6014(12) 0.1974(6)
C7_6 C 0.8390(7) 0.9525(14) 0.2574(7)
H5_6 H 0.8593 0.9778 0.2797
C8_6 C 0.8327(7) 0.8603(12) 0.2555(7)
H6_6 H 0.8485 0.8235 0.2770
C9_6 C 0.8044(5) 0.8205(10) 0.2236(5)
C10_6 C 0.7847(7) 0.8752(12) 0.1919(6)
H7_6 H 0.7660 0.8509 0.1681
C11_6 C 0.7929(7) 0.9700(13) 0.1951(7)
C12_6 C 0.7956(7) 0.7221(11) 0.2237(6)
C13_4 C 0.8347(7) 0.4059(12) 0.3367(5)
H9_4 H 0.8300 0.3432 0.3387
C14_4 C 0.8157(6) 0.4517(13) 0.2990(6)
H10_4 H 0.7955 0.4221 0.2779
C15_6 C 0.8268(6) 0.5387(11) 0.2936(5)
C16_6 C 0.8540(7) 0.5798(12) 0.3263(6)
H11_6 H 0.8624 0.6400 0.3239
C17_6 C 0.8688(8) 0.5332(14) 0.3621(7)
H12_6 H 0.8878 0.5630 0.3841
C18_6 C 0.8068(5) 0.5924(10) 0.2573(5)
C19_6 C 0.8649(10) 0.5380(15) 0.4781(7)
H13_6 H 0.8378 0.5170 0.4700
C20_5 C 0.8740(7) 0.6081(14) 0.5042(6)
H14_5 H 0.8541 0.6336 0.5154
C21_5 C 0.9141(8) 0.6430(12) 0.5146(6)
C22_6 C 0.9432(7) 0.6027(13) 0.4997(6)
H15_5 H 0.9706 0.6219 0.5069
C23_6 C 0.9273(13) 0.5260(18) 0.4714(8)
H16_4 H 0.9451 0.4967 0.4586
C24_5 C 0.9254(6) 0.7215(11) 0.5422(6)
C30_5 C 0.9665(5) 0.8389(11) 0.5659(5)
C31_5 C 0.8375(7) 0.8071(19) 0.6482(9)
H21_5 H 0.8106 0.7861 0.6439
C32_5 C 0.8540(6) 0.7970(15) 0.6180(7)
H22_5 H 0.8391 0.7739 0.5920
C33_5 C 0.8960(6) 0.8228(14) 0.6264(8)
C34_5 C 0.9137(7) 0.8612(18) 0.6611(8)
H23_5 H 0.9398 0.8869 0.6655
C35_5 C 0.8958(8) 0.865(3) 0.6899(9)
H24_5 H 0.9119 0.8820 0.7165
C36_5 C 0.9170(5) 0.8017(12) 0.5951(5)
N1_4 N 0.6613(4) 0.4786(9) 0.1077(4)
N3_4 N 0.8583(5) 0.4480(9) 0.3685(5)
N4_6 N 0.7655(4) 0.6928(9) 0.1924(4)
N5_6 N 0.8184(4) 0.6749(9) 0.2555(4)
N6_6 N 0.7776(5) 0.5521(9) 0.2294(4)
N7_4 N 0.8909(8) 0.4978(12) 0.4634(6)
N9_3 N 0.8562(5) 0.8458(11) 0.6856(5)
N10_5 N 0.9564(4) 0.7722(9) 0.5390(5)
N11_5 N 0.9491(4) 0.8576(10) 0.5959(4)
N12_5 N 0.9047(4) 0.7351(10) 0.5689(5)
Zn5_3 Zn 0.82901(7) 0.85733(14) 0.73262(8)
N13_3 N 0.5661(4) 0.4980(10) 0.0621(4)
C20_6 C 0.3740(7) 0.8919(14) 0.0042(6)
H14_6 H 0.3541 0.8664 0.0154
C21_6 C 0.4141(8) 0.8570(12) 0.0146(6)
H15_6 H 0.4706 0.8781 0.0069
C24_6 C 0.4254(6) 0.7785(11) 0.0422(6)
C25_5 C 0.5493(8) 0.4903(17) 0.0921(8)
H17_5 H 0.5594 0.4451 0.1122
C26_4 C 0.5177(7) 0.5439(15) 0.0963(7)
H18_4 H 0.5081 0.5399 0.1199
C27_4 C 0.5008(5) 0.6037(11) 0.0646(5)
C28_4 C 0.5157(6) 0.6069(14) 0.0317(6)
H19_4 H 0.5036 0.6445 0.0089
C29_4 C 0.5486(7) 0.5548(14) 0.0321(6)
H20_4 H 0.5595 0.5597 0.0095
C30_6 C 0.4665(5) 0.6611(11) 0.0659(5)
C31_6 C 0.3375(7) 0.6929(19) 0.1482(9)
H21_6 H 0.3106 0.7139 0.1439
C32_6 C 0.3540(6) 0.7030(15) 0.1180(7)
H22_6 H 0.3391 0.7261 0.0920
C33_6 C 0.3960(6) 0.6772(14) 0.1264(8)
C34_6 C 0.4137(7) 0.6388(18) 0.1611(8)
H23_6 H 0.4398 0.6131 0.1655
C35_6 C 0.3958(8) 0.635(3) 0.1899(9)
H24_6 H 0.4119 0.6180 0.2165
C36_6 C 0.4170(5) 0.6983(12) 0.0951(5)
N10_6 N 0.4564(4) 0.7278(9) 0.0390(5)
N11_6 N 0.4491(4) 0.6424(10) 0.0959(4)
N12_6 N 0.4047(4) 0.7649(10) 0.0689(5)
I3_5 I 0.26566(5) 0.26275(9) 0.71000(5)
I4_5 I 0.37881(6) 0.32947(10) 0.80261(5)
C1_7 C 0.1682(6) 0.9361(11) 0.6068(6)
H1_7 H 0.1506 0.9010 0.5857
C2_7 C 0.1998(6) 0.8930(12) 0.6347(6)
H2_7 H 0.2037 0.8302 0.6319
C3_7 C 0.2257(5) 0.9399(10) 0.6663(5)
C6_7 C 0.2567(5) 0.8986(12) 0.6974(6)
C7_7 C 0.3390(7) 0.5475(14) 0.7574(7)
H5_7 H 0.3593 0.5222 0.7797
C8_7 C 0.3327(7) 0.6397(12) 0.7555(7)
H6_7 H 0.3485 0.6765 0.7770
C9_7 C 0.3044(5) 0.6795(10) 0.7236(5)
C10_7 C 0.2847(7) 0.6248(12) 0.6919(6)
H7_7 H 0.2660 0.6491 0.6681
C11_7 C 0.2929(7) 0.5300(13) 0.6951(7)
H8_5 H 0.2803 0.4919 0.6726
C12_7 C 0.2956(7) 0.7779(11) 0.7237(6)
C15_7 C 0.3268(6) 0.9613(11) 0.7936(5)
C16_7 C 0.3540(7) 0.9202(12) 0.8263(6)
H11_7 H 0.3624 0.8600 0.8239
C17_7 C 0.3688(8) 0.9668(14) 0.8621(7)
H12_7 H 0.3878 0.9370 0.8841
C18_7 C 0.3068(5) 0.9076(10) 0.7573(5)
C19_7 C 0.3649(10) 0.9620(15) 0.9781(7)
H13_7 H 0.3378 0.9830 0.9700
C22_7 C 0.4432(7) 0.8973(13) 0.9997(6)
C23_7 C 0.4273(13) 0.9740(18) 0.9714(8)
N2_5 N 0.3171(5) 0.4943(10) 0.7283(5)
N4_7 N 0.2655(4) 0.8072(9) 0.6924(4)
N5_7 N 0.3184(4) 0.8251(9) 0.7555(4)
N6_7 N 0.2776(5) 0.9479(9) 0.7294(4)
I1_3 I 0.63452(4) 0.56257(9) 0.49721(4)
I2_5 I 0.60126(4) 0.73156(8) 0.59286(5)
I5_5 I 0.81400(10) 0.69087(14) 0.93812(7)
I6_5 I 0.93783(11) 0.6975(2) 0.92441(10)
Zn3_5 Zn 0.87664(12) 0.61502(17) 0.92498(8)
C1_8 C 0.6682(6) 0.4361(11) 0.6068(6)
H1_8 H 0.6506 0.4010 0.5857
C2_8 C 0.6998(6) 0.3930(12) 0.6347(6)
H2_8 H 0.7037 0.3302 0.6319
C3_8 C 0.7257(5) 0.4399(10) 0.6663(5)
C4_5 C 0.7180(6) 0.5290(12) 0.6674(5)
H3_5 H 0.7349 0.5653 0.6885
C5_5 C 0.6863(6) 0.5681(12) 0.6387(6)
H4_5 H 0.6817 0.6309 0.6407
C6_8 C 0.7567(5) 0.3986(12) 0.6974(6)
C7_8 C 0.8390(7) 0.0475(14) 0.7574(7)
H5_8 H 0.8593 0.0222 0.7797
C8_8 C 0.8327(7) 0.1397(12) 0.7555(7)
H6_8 H 0.8485 0.1765 0.7770
C9_8 C 0.8044(5) 0.1795(10) 0.7236(5)
C10_8 C 0.7847(7) 0.1248(12) 0.6919(6)
H7_8 H 0.7660 0.1491 0.6681
C11_8 C 0.7929(7) 0.0300(13) 0.6951(7)
C12_8 C 0.7956(7) 0.2779(11) 0.7237(6)
C13_5 C 0.8347(7) 0.5941(12) 0.8367(5)
H9_5 H 0.8300 0.6568 0.8387
C14_5 C 0.8157(6) 0.5483(13) 0.7990(6)
H10_5 H 0.7955 0.5779 0.7779
C15_8 C 0.8268(6) 0.4613(11) 0.7936(5)
C16_8 C 0.8540(7) 0.4202(12) 0.8263(6)
H11_8 H 0.8624 0.3600 0.8239
C17_8 C 0.8688(8) 0.4668(14) 0.8621(7)
H12_8 H 0.8878 0.4370 0.8841
C18_8 C 0.8068(5) 0.4076(10) 0.7573(5)
C19_8 C 0.8649(10) 0.4620(15) 0.9781(7)
H13_8 H 0.8378 0.4830 0.9700
C22_8 C 0.9432(7) 0.3973(13) 0.9997(6)
C23_8 C 0.9273(13) 0.4740(18) 0.9714(8)
H16_5 H 0.9451 0.5033 0.9586
N1_5 N 0.6613(4) 0.5214(9) 0.6077(4)
N3_5 N 0.8583(5) 0.5520(9) 0.8685(5)
N4_8 N 0.7655(4) 0.3072(9) 0.6924(4)
N5_8 N 0.8184(4) 0.3251(9) 0.7555(4)
N6_8 N 0.7776(5) 0.4479(9) 0.7294(4)
N7_5 N 0.8909(8) 0.5022(12) 0.9634(6)
I3_6 I 0.76566(5) 0.76275(9) 0.71000(5)
I4_6 I 0.87881(6) 0.82947(10) 0.80261(5)
H8_6 H 0.7803 0.9919 0.6726
N2_6 N 0.8171(5) 0.9943(10) 0.7283(5)
I2_6 I 0.10126(4) 0.76844(8) 0.09286(5)
I5_6 I 0.31400(10) 0.80913(14) 0.43812(7)
I6_6 I 0.43783(11) 0.8025(2) 0.42441(10)
Zn1_4 Zn 0.11552(6) 0.91806(13) 0.06369(6)
Zn3_6 Zn 0.37664(12) 0.88498(17) 0.42498(8)
C4_6 C 0.2180(6) 0.9710(12) 0.1674(5)
H3_6 H 0.2349 0.9347 0.1885
C5_6 C 0.1863(6) 0.9319(12) 0.1387(6)
H4_6 H 0.1817 0.8691 0.1407
C13_6 C 0.3347(7) 0.9059(12) 0.3367(5)
H9_6 H 0.3300 0.8432 0.3387
C14_6 C 0.3157(6) 0.9517(13) 0.2990(6)
H10_6 H 0.2955 0.9221 0.2779
H16_6 H 0.4451 0.9967 0.4586
N1_6 N 0.1613(4) 0.9786(9) 0.1077(4)
N3_6 N 0.3583(5) 0.9480(9) 0.3685(5)
N7_6 N 0.3909(8) 0.9978(12) 0.4634(6)
N13_4 N 0.0661(4) 0.9980(10) 0.0621(4)
C25_6 C 0.0493(8) 0.9903(17) 0.0921(8)
H17_6 H 0.0594 0.9451 0.1122
I1_4 I 0.13452(4) 0.93743(9) 0.99721(4)
C20_7 C 0.1260(7) 0.6081(14) 0.9958(6)
H14_7 H 0.1459 0.6336 0.9846
C21_7 C 0.0859(8) 0.6430(12) 0.9854(6)
H15_7 H 0.0294 0.6219 0.9931
C24_7 C 0.0746(6) 0.7215(11) 0.9578(6)
C30_7 C 0.0335(5) 0.8389(11) 0.9341(5)
C31_7 C 0.1625(7) 0.8071(19) 0.8518(9)
H21_7 H 0.1894 0.7861 0.8561
C32_7 C 0.1460(6) 0.7970(15) 0.8820(7)
H22_7 H 0.1609 0.7739 0.9080
C33_7 C 0.1040(6) 0.8228(14) 0.8736(8)
C34_7 C 0.0863(7) 0.8612(18) 0.8389(8)
H23_7 H 0.0602 0.8869 0.8345
C35_7 C 0.1042(8) 0.865(3) 0.8101(9)
H24_7 H 0.0881 0.8820 0.7835
C36_7 C 0.0830(5) 0.8017(12) 0.9049(5)
N9_4 N 0.1438(5) 0.8458(11) 0.8144(5)
N10_7 N 0.0436(4) 0.7722(9) 0.9610(5)
N11_7 N 0.0509(4) 0.8576(10) 0.9041(4)
N12_7 N 0.0953(4) 0.7351(10) 0.9311(5)
Zn5_4 Zn 0.17099(7) 0.85733(14) 0.76738(8)
I3_7 I 0.23434(5) 0.76275(9) 0.79000(5)
I4_7 I 0.12119(6) 0.82947(10) 0.69739(5)
H8_7 H 0.2197 0.9919 0.8274
N2_7 N 0.1829(5) 0.9943(10) 0.7717(5)
C25_7 C 0.9507(8) 0.0097(17) 0.9079(8)
H17_7 H 0.9406 0.0549 0.8878
N8_3 N 0.9339(4) 0.0020(10) 0.9379(4)
Zn4_3 Zn 0.88448(6) 0.08194(13) 0.93631(6)
I2_7 I 0.89874(4) 0.23156(8) 0.90714(5)
I5_7 I 0.68600(10) 0.19087(14) 0.56188(7)
I6_7 I 0.56217(11) 0.1975(2) 0.57559(10)
Zn3_7 Zn 0.62336(12) 0.11502(17) 0.57502(8)
C4_7 C 0.7820(6) 0.0290(12) 0.8326(5)
H3_7 H 0.7651 0.0653 0.8115
C5_7 C 0.8137(6) 0.0681(12) 0.8613(6)
H4_7 H 0.8183 0.1309 0.8593
C13_7 C 0.6653(7) 0.0941(12) 0.6633(5)
H9_7 H 0.6700 0.1568 0.6613
C14_7 C 0.6843(6) 0.0483(13) 0.7010(6)
H10_7 H 0.7045 0.0779 0.7221
H16_7 H 0.5549 0.0033 0.5414
N1_7 N 0.8387(4) 0.0214(9) 0.8923(4)
N3_7 N 0.6417(5) 0.0520(9) 0.6315(5)
N7_7 N 0.6091(8) 0.0022(12) 0.5366(6)
C26_5 C 0.9823(7) 0.9561(15) 0.9037(7)
H18_5 H 0.9919 0.9601 0.8801
C27_5 C 0.9992(5) 0.8963(11) 0.9354(5)
C28_5 C 0.9843(6) 0.8931(14) 0.9683(6)
H19_5 H 0.9964 0.8555 0.9911
C29_5 C 0.9514(7) 0.9452(14) 0.9679(6)
H20_5 H 0.9405 0.9403 0.9905
C25_8 C 0.0493(8) 0.0097(17) 0.5921(8)
H17_8 H 0.0594 0.0549 0.6122
N8_4 N 0.0661(4) 0.0020(10) 0.5621(4)
Zn4_4 Zn 0.11552(6) 0.08194(13) 0.56369(6)
I1_5 I 0.13452(4) 0.06257(9) 0.49721(4)
I2_8 I 0.10126(4) 0.23156(8) 0.59286(5)
I5_8 I 0.31400(10) 0.19087(14) 0.93812(7)
I6_8 I 0.43783(11) 0.1975(2) 0.92441(10)
Zn3_8 Zn 0.37664(12) 0.11502(17) 0.92498(8)
C4_8 C 0.2180(6) 0.0290(12) 0.6674(5)
H3_8 H 0.2349 0.0653 0.6885
C5_8 C 0.1863(6) 0.0681(12) 0.6387(6)
H4_8 H 0.1817 0.1309 0.6407
C13_8 C 0.3347(7) 0.0941(12) 0.8367(5)
H9_8 H 0.3300 0.1568 0.8387
C14_8 C 0.3157(6) 0.0483(13) 0.7990(6)
H10_8 H 0.2955 0.0779 0.7779
H16_8 H 0.4451 0.0033 0.9586
N1_8 N 0.1613(4) 0.0214(9) 0.6077(4)
N3_8 N 0.3583(5) 0.0520(9) 0.8685(5)
N7_8 N 0.3909(8) 0.0022(12) 0.9634(6)
C26_6 C 0.0177(7) 0.9561(15) 0.5963(7)
H18_6 H 0.0081 0.9601 0.6199
C27_6 C 0.0008(5) 0.8963(11) 0.5646(5)
C28_6 C 0.0157(6) 0.8931(14) 0.5317(6)
H19_6 H 0.0036 0.8555 0.5089
C29_6 C 0.0486(7) 0.9452(14) 0.5321(6)
H20_6 H 0.0595 0.9403 0.5095
I3_8 I 0.76566(5) 0.23725(9) 0.21000(5)
I4_8 I 0.87881(6) 0.17053(10) 0.30261(5)
Zn2_4 Zn 0.82901(7) 0.14267(14) 0.23262(8)
H8_8 H 0.7803 0.0081 0.1726
N2_8 N 0.8171(5) 0.0057(10) 0.2283(5)
N14_4 N 0.8562(5) 0.1542(11) 0.1856(5)
C20_8 C 0.8740(7) 0.3919(14) 0.0042(6)
H14_8 H 0.8541 0.3664 0.0154
C21_8 C 0.9141(8) 0.3570(12) 0.0146(6)
H15_8 H 0.9706 0.3781 0.0069
C24_8 C 0.9254(6) 0.2785(11) 0.0422(6)
C30_8 C 0.9665(5) 0.1611(11) 0.0659(5)
C31_8 C 0.8375(7) 0.1929(19) 0.1482(9)
H21_8 H 0.8106 0.2139 0.1439
C32_8 C 0.8540(6) 0.2030(15) 0.1180(7)
H22_8 H 0.8391 0.2261 0.0920
C33_8 C 0.8960(6) 0.1772(14) 0.1264(8)
C34_8 C 0.9137(7) 0.1388(18) 0.1611(8)
H23_8 H 0.9398 0.1131 0.1655
C35_8 C 0.8958(8) 0.135(3) 0.1899(9)
H24_8 H 0.9119 0.1180 0.2165
C36_8 C 0.9170(5) 0.1983(12) 0.0951(5)
N10_8 N 0.9564(4) 0.2278(9) 0.0390(5)
N11_8 N 0.9491(4) 0.1424(10) 0.0959(4)
N12_8 N 0.9047(4) 0.2649(10) 0.0689(5)
I1_6 I 0.63452(4) 0.43743(9) 0.99721(4)
I1_7 I 0.86548(4) 0.06257(9) 0.00279(4)
C26_7 C 0.0177(7) 0.0439(15) 0.0963(7)
H18_7 H 0.0081 0.0399 0.1199
C27_7 C 0.0008(5) 0.1037(11) 0.0646(5)
C28_7 C 0.0157(6) 0.1069(14) 0.0317(6)
H19_7 H 0.0036 0.1445 0.0089
C29_7 C 0.0486(7) 0.0548(14) 0.0321(6)
H20_7 H 0.0595 0.0597 0.0095
I1_8 I 0.36548(4) 0.56257(9) 0.00279(4)
C26_8 C 0.9823(7) 0.0439(15) 0.4037(7)
H18_8 H 0.9919 0.0399 0.3801
C27_8 C 0.9992(5) 0.1037(11) 0.4354(5)
C28_8 C 0.9843(6) 0.1069(14) 0.4683(6)
H19_8 H 0.9964 0.1445 0.4911
C29_8 C 0.9514(7) 0.0548(14) 0.4679(6)
H20_8 H 0.9405 0.0597 0.4905
loop_
_geom_bond_atom_site_label_1
_geom_bond_atom_site_label_2
_geom_bond_site_symmetry_1
_geom_bond_site_symmetry_2
I3 Zn2 1_555 1_555
I4 Zn2 1_555 1_555
Zn2 N2 1_555 1_555
C1 H1 1_555 1_555
C2 C1 1_555 1_555
H2 C2 1_555 1_555
C3 C2 1_555 1_555
C6 C3 1_555 1_555
C7 H5 1_555 1_555
C8 C7 1_555 1_555
H6 C8 1_555 1_555
C9 C8 1_555 1_555
C10 C9 1_555 1_555
H7 C10 1_555 1_555
C11 C10 1_555 1_555
H8 C11 1_555 1_555
C12 C9 1_555 1_555
C16 C15 1_555 1_555
H11 C16 1_555 1_555
C17 C16 1_555 1_555
H12 C17 1_555 1_555
C18 C15 1_555 1_555
C19 H13 1_555 1_555
C23 C22 1_555 1_555
N2 C7 1_555 1_555
N4 C6 1_555 1_555
N5 C12 1_555 1_555
N6 C6 1_555 1_555
N14 Zn2 1_555 1_555
C11 N2 1_555 1_555
C12 N4 1_555 1_555
C18 N5 1_555 1_555
C18 N6 1_555 1_555
H14 C20 1_555 1_555
C21 C20 1_555 1_555
C24 C21 1_555 1_555
C25 H17 1_555 1_555
C26 C25 1_555 1_555
H18 C26 1_555 1_555
C27 C26 1_555 1_555
C28 C27 1_555 1_555
H19 C28 1_555 1_555
C29 C28 1_555 1_555
H20 C29 1_555 1_555
C30 C27 1_555 1_555
C31 H21 1_555 1_555
C32 C31 1_555 1_555
H22 C32 1_555 1_555
C33 C32 1_555 1_555
C34 C33 1_555 1_555
H23 C34 1_555 1_555
C35 C34 1_555 1_555
H24 C35 1_555 1_555
C36 C33 1_555 1_555
N8 C25 1_555 1_555
N9 C31 1_555 1_555
N10 C24 1_555 1_555
N11 C30 1_555 1_555
N12 C24 1_555 1_555
Zn4 N8 1_555 1_555
Zn5 N9 1_555 1_555
C29 N8 1_555 1_555
C30 N10 1_555 1_555
C35 N9 1_555 1_555
C36 N11 1_555 1_555
C36 N12 1_555 1_555
I3_2 Zn2_2 1_555 1_555
I4_2 Zn2_2 1_555 1_555
Zn2_2 N2_2 1_555 1_555
N14_2 Zn2_2 1_555 1_555
I1 Zn1 1_555 1_555
I2 Zn1 1_555 1_555
I5 Zn3 1_555 1_555
I6 Zn3 1_555 1_555
Zn1 N1 1_555 1_555
Zn3 N3 1_555 1_555
C1_2 H1_2 1_555 1_555
C2_2 C1_2 1_555 1_555
H2_2 C2_2 1_555 1_555
C3_2 C2_2 1_555 1_555
C4 C3_2 1_555 1_555
H3 C4 1_555 1_555
C5 C4 1_555 1_555
H4 C5 1_555 1_555
C6_2 C3_2 1_555 1_555
C7_2 H5_2 1_555 1_555
C8_2 C7_2 1_555 1_555
H6_2 C8_2 1_555 1_555
C9_2 C8_2 1_555 1_555
C10_2 C9_2 1_555 1_555
H7_2 C10_2 1_555 1_555
C11_2 C10_2 1_555 1_555
C12_2 C9_2 1_555 1_555
C13 H9 1_555 1_555
C14 C13 1_555 1_555
H10 C14 1_555 1_555
C15_2 C14 1_555 1_555
C16_2 C15_2 1_555 1_555
H11_2 C16_2 1_555 1_555
C17_2 C16_2 1_555 1_555
H12_2 C17_2 1_555 1_555
C18_2 C15_2 1_555 1_555
C19_2 H13_2 1_555 1_555
C23_2 C22_2 1_555 1_555
H16 C23_2 1_555 1_555
N1 C1_2 1_555 1_555
N3 C13 1_555 1_555
N4_2 C6_2 1_555 1_555
N5_2 C12_2 1_555 1_555
N6_2 C6_2 1_555 1_555
N7 Zn3 1_555 1_555
N13 Zn1 1_555 1_555
C5 N1 1_555 1_555
C12_2 N4_2 1_555 1_555
C17_2 N3 1_555 1_555
C18_2 N5_2 1_555 1_555
C18_2 N6_2 1_555 1_555
C19_2 N7 1_555 1_555
C23_2 N7 1_555 1_555
I3_3 Zn5 1_555 1_555
I4_3 Zn5 1_555 1_555
Zn5 N2_3 1_555 1_555
C1_3 H1_3 1_555 1_555
C2_3 C1_3 1_555 1_555
H2_3 C2_3 1_555 1_555
C3_3 C2_3 1_555 1_555
C6_3 C3_3 1_555 1_555
C7_3 H5_3 1_555 1_555
C8_3 C7_3 1_555 1_555
H6_3 C8_3 1_555 1_555
C9_3 C8_3 1_555 1_555
C10_3 C9_3 1_555 1_555
H7_3 C10_3 1_555 1_555
C11_3 C10_3 1_555 1_555
H8_3 C11_3 1_555 1_555
C12_3 C9_3 1_555 1_555
C16_3 C15_3 1_555 1_555
H11_3 C16_3 1_555 1_555
C17_3 C16_3 1_555 1_555
H12_3 C17_3 1_555 1_555
C18_3 C15_3 1_555 1_555
C19_3 H13_3 1_555 1_555
C20_2 C19_3 1_555 1_555
H14_2 C20_2 1_555 1_555
C21_2 C20_2 1_555 1_555
C22_3 C21_2 1_555 1_555
H15_2 C22_3 1_555 1_555
C23_3 C22_3 1_555 1_555
C24_2 C21_2 1_555 1_555
C25_2 H17_2 1_555 1_555
C26_2 C25_2 1_555 1_555
H18_2 C26_2 1_555 1_555
C27_2 C26_2 1_555 1_555
C28_2 C27_2 1_555 1_555
H19_2 C28_2 1_555 1_555
C29_2 C28_2 1_555 1_555
H20_2 C29_2 1_555 1_555
C30_2 C27_2 1_555 1_555
C31_2 H21_2 1_555 1_555
C32_2 C31_2 1_555 1_555
H22_2 C32_2 1_555 1_555
C33_2 C32_2 1_555 1_555
C34_2 C33_2 1_555 1_555
H23_2 C34_2 1_555 1_555
C35_2 C34_2 1_555 1_555
H24_2 C35_2 1_555 1_555
C36_2 C33_2 1_555 1_555
N2_3 C7_3 1_555 1_555
N4_3 C6_3 1_555 1_555
N5_3 C12_3 1_555 1_555
N6_3 C6_3 1_555 1_555
N13 C25_2 1_555 1_555
N14 C31_2 1_555 1_555
N10_2 C24_2 1_555 1_555
N11_2 C30_2 1_555 1_555
N12_2 C24_2 1_555 1_555
C11_3 N2_3 1_555 1_555
C12_3 N4_3 1_555 1_555
C18_3 N5_3 1_555 1_555
C18_3 N6_3 1_555 1_555
C29_2 N13 1_555 1_555
C30_2 N10_2 1_555 1_555
C35_2 N14 1_555 1_555
C36_2 N11_2 1_555 1_555
C36_2 N12_2 1_555 1_555
I2_2 Zn4 1_555 1_555
I5_2 Zn3_2 1_555 1_555
I6_2 Zn3_2 1_555 1_555
Zn4 N1_2 1_555 1_555
Zn3_2 N3_2 1_555 1_555
C1_4 H1_4 1_555 1_555
C2_4 C1_4 1_555 1_555
H2_4 C2_4 1_555 1_555
C3_4 C2_4 1_555 1_555
C4_2 C3_4 1_555 1_555
H3_2 C4_2 1_555 1_555
C5_2 C4_2 1_555 1_555
H4_2 C5_2 1_555 1_555
C6_4 C3_4 1_555 1_555
C7_4 H5_4 1_555 1_555
C8_4 C7_4 1_555 1_555
H6_4 C8_4 1_555 1_555
C9_4 C8_4 1_555 1_555
C10_4 C9_4 1_555 1_555
H7_4 C10_4 1_555 1_555
C11_4 C10_4 1_555 1_555
C12_4 C9_4 1_555 1_555
C13_2 H9_2 1_555 1_555
C14_2 C13_2 1_555 1_555
H10_2 C14_2 1_555 1_555
C15_4 C14_2 1_555 1_555
C16_4 C15_4 1_555 1_555
H11_4 C16_4 1_555 1_555
C17_4 C16_4 1_555 1_555
H12_4 C17_4 1_555 1_555
C18_4 C15_4 1_555 1_555
C19_4 H13_4 1_555 1_555
C20_3 C19_4 1_555 1_555
H14_3 C20_3 1_555 1_555
C21_3 C20_3 1_555 1_555
C22_4 C21_3 1_555 1_555
H15_3 C22_4 1_555 1_555
C23_4 C22_4 1_555 1_555
H16_2 C23_4 1_555 1_555
C24_3 C21_3 1_555 1_555
C31_3 H21_3 1_555 1_555
C32_3 C31_3 1_555 1_555
H22_3 C32_3 1_555 1_555
C33_3 C32_3 1_555 1_555
C34_3 C33_3 1_555 1_555
H23_3 C34_3 1_555 1_555
C35_3 C34_3 1_555 1_555
H24_3 C35_3 1_555 1_555
C36_3 C33_3 1_555 1_555
N1_2 C1_4 1_555 1_555
N3_2 C13_2 1_555 1_555
N4_4 C6_4 1_555 1_555
N5_4 C12_4 1_555 1_555
N6_4 C6_4 1_555 1_555
N7_2 Zn3_2 1_555 1_555
N14_2 C31_3 1_555 1_555
N10_3 C24_3 1_555 1_555
N11_3 C30_3 1_555 1_555
N12_3 C24_3 1_555 1_555
C5_2 N1_2 1_555 1_555
C12_4 N4_4 1_555 1_555
C17_4 N3_2 1_555 1_555
C18_4 N5_4 1_555 1_555
C18_4 N6_4 1_555 1_555
C19_4 N7_2 1_555 1_555
C23_4 N7_2 1_555 1_555
C30_3 N10_3 1_555 1_555
C35_3 N14_2 1_555 1_555
C36_3 N11_3 1_555 1_555
C36_3 N12_3 1_555 1_555
I1_2 Zn1_2 1_555 1_555
I2_3 Zn1_2 1_555 1_555
I5_3 Zn3_3 1_555 1_555
I6_3 Zn3_3 1_555 1_555
Zn1_2 N1_3 1_555 1_555
Zn3_3 N3_3 1_555 1_555
H3_3 C4_3 1_555 1_555
C5_3 C4_3 1_555 1_555
H4_3 C5_3 1_555 1_555
C13_3 H9_3 1_555 1_555
C14_3 C13_3 1_555 1_555
H10_3 C14_3 1_555 1_555
N3_3 C13_3 1_555 1_555
N7_3 Zn3_3 1_555 1_555
N13_2 Zn1_2 1_555 1_555
C5_3 N1_3 1_555 1_555
C25_3 H17_3 1_555 1_555
N13_2 C25_3 1_555 1_555
I3_4 Zn2_3 1_555 1_555
I4_4 Zn2_3 1_555 1_555
Zn2_3 N2_4 1_555 1_555
C1_5 H1_5 1_555 1_555
C2_5 C1_5 1_555 1_555
H2_5 C2_5 1_555 1_555
C3_5 C2_5 1_555 1_555
C6_5 C3_5 1_555 1_555
C7_5 H5_5 1_555 1_555
C8_5 C7_5 1_555 1_555
H6_5 C8_5 1_555 1_555
C9_5 C8_5 1_555 1_555
C10_5 C9_5 1_555 1_555
H7_5 C10_5 1_555 1_555
C11_5 C10_5 1_555 1_555
H8_4 C11_5 1_555 1_555
C12_5 C9_5 1_555 1_555
C16_5 C15_5 1_555 1_555
H11_5 C16_5 1_555 1_555
C17_5 C16_5 1_555 1_555
H12_5 C17_5 1_555 1_555
C18_5 C15_5 1_555 1_555
C19_5 H13_5 1_555 1_555
C20_4 C19_5 1_555 1_555
H14_4 C20_4 1_555 1_555
C21_4 C20_4 1_555 1_555
C22_5 C21_4 1_555 1_555
H15_4 C22_5 1_555 1_555
C23_5 C22_5 1_555 1_555
C24_4 C21_4 1_555 1_555
C25_4 H17_4 1_555 1_555
C26_3 C25_4 1_555 1_555
H18_3 C26_3 1_555 1_555
C27_3 C26_3 1_555 1_555
C28_3 C27_3 1_555 1_555
H19_3 C28_3 1_555 1_555
C29_3 C28_3 1_555 1_555
H20_3 C29_3 1_555 1_555
C30_4 C27_3 1_555 1_555
C31_4 H21_4 1_555 1_555
C32_4 C31_4 1_555 1_555
H22_4 C32_4 1_555 1_555
C33_4 C32_4 1_555 1_555
C34_4 C33_4 1_555 1_555
H23_4 C34_4 1_555 1_555
C35_4 C34_4 1_555 1_555
H24_4 C35_4 1_555 1_555
C36_4 C33_4 1_555 1_555
N2_4 C7_5 1_555 1_555
N4_5 C6_5 1_555 1_555
N5_5 C12_5 1_555 1_555
N6_5 C6_5 1_555 1_555
N8_2 C25_4 1_555 1_555
N9_2 C31_4 1_555 1_555
N10_4 C24_4 1_555 1_555
N11_4 C30_4 1_555 1_555
N12_4 C24_4 1_555 1_555
Zn4_2 N8_2 1_555 1_555
Zn5_2 N9_2 1_555 1_555
N14_3 Zn2_3 1_555 1_555
C11_5 N2_4 1_555 1_555
C12_5 N4_5 1_555 1_555
C18_5 N5_5 1_555 1_555
C18_5 N6_5 1_555 1_555
C29_3 N8_2 1_555 1_555
C30_4 N10_4 1_555 1_555
C35_4 N9_2 1_555 1_555
C36_4 N11_4 1_555 1_555
C36_4 N12_4 1_555 1_555
I2_4 Zn1_3 1_555 1_555
I5_4 Zn3_4 1_555 1_555
I6_4 Zn3_4 1_555 1_555
Zn1_3 N1_4 1_555 1_555
Zn3_4 N3_4 1_555 1_555
C1_6 H1_6 1_555 1_555
C2_6 C1_6 1_555 1_555
H2_6 C2_6 1_555 1_555
C3_6 C2_6 1_555 1_555
C4_4 C3_6 1_555 1_555
H3_4 C4_4 1_555 1_555
C5_4 C4_4 1_555 1_555
H4_4 C5_4 1_555 1_555
C6_6 C3_6 1_555 1_555
C7_6 H5_6 1_555 1_555
C8_6 C7_6 1_555 1_555
H6_6 C8_6 1_555 1_555
C9_6 C8_6 1_555 1_555
C10_6 C9_6 1_555 1_555
H7_6 C10_6 1_555 1_555
C11_6 C10_6 1_555 1_555
C12_6 C9_6 1_555 1_555
C13_4 H9_4 1_555 1_555
C14_4 C13_4 1_555 1_555
H10_4 C14_4 1_555 1_555
C15_6 C14_4 1_555 1_555
C16_6 C15_6 1_555 1_555
H11_6 C16_6 1_555 1_555
C17_6 C16_6 1_555 1_555
H12_6 C17_6 1_555 1_555
C18_6 C15_6 1_555 1_555
C19_6 H13_6 1_555 1_555
C20_5 C19_6 1_555 1_555
H14_5 C20_5 1_555 1_555
C21_5 C20_5 1_555 1_555
C22_6 C21_5 1_555 1_555
H15_5 C22_6 1_555 1_555
C23_6 C22_6 1_555 1_555
H16_4 C23_6 1_555 1_555
C24_5 C21_5 1_555 1_555
C31_5 H21_5 1_555 1_555
C32_5 C31_5 1_555 1_555
H22_5 C32_5 1_555 1_555
C33_5 C32_5 1_555 1_555
C34_5 C33_5 1_555 1_555
H23_5 C34_5 1_555 1_555
C35_5 C34_5 1_555 1_555
H24_5 C35_5 1_555 1_555
C36_5 C33_5 1_555 1_555
N1_4 C1_6 1_555 1_555
N3_4 C13_4 1_555 1_555
N4_6 C6_6 1_555 1_555
N5_6 C12_6 1_555 1_555
N6_6 C6_6 1_555 1_555
N7_4 Zn3_4 1_555 1_555
N9_3 C31_5 1_555 1_555
N10_5 C24_5 1_555 1_555
N11_5 C30_5 1_555 1_555
N12_5 C24_5 1_555 1_555
Zn5_3 N9_3 1_555 1_555
N13_3 Zn1_3 1_555 1_555
C5_4 N1_4 1_555 1_555
C12_6 N4_6 1_555 1_555
C17_6 N3_4 1_555 1_555
C18_6 N5_6 1_555 1_555
C18_6 N6_6 1_555 1_555
C19_6 N7_4 1_555 1_555
C23_6 N7_4 1_555 1_555
C30_5 N10_5 1_555 1_555
C35_5 N9_3 1_555 1_555
C36_5 N11_5 1_555 1_555
C36_5 N12_5 1_555 1_555
H14_6 C20_6 1_555 1_555
C21_6 C20_6 1_555 1_555
C24_6 C21_6 1_555 1_555
C25_5 H17_5 1_555 1_555
C26_4 C25_5 1_555 1_555
H18_4 C26_4 1_555 1_555
C27_4 C26_4 1_555 1_555
C28_4 C27_4 1_555 1_555
H19_4 C28_4 1_555 1_555
C29_4 C28_4 1_555 1_555
H20_4 C29_4 1_555 1_555
C30_6 C27_4 1_555 1_555
C31_6 H21_6 1_555 1_555
C32_6 C31_6 1_555 1_555
H22_6 C32_6 1_555 1_555
C33_6 C32_6 1_555 1_555
C34_6 C33_6 1_555 1_555
H23_6 C34_6 1_555 1_555
C35_6 C34_6 1_555 1_555
H24_6 C35_6 1_555 1_555
C36_6 C33_6 1_555 1_555
N13_3 C25_5 1_555 1_555
N14_3 C31_6 1_555 1_555
N10_6 C24_6 1_555 1_555
N11_6 C30_6 1_555 1_555
N12_6 C24_6 1_555 1_555
C29_4 N13_3 1_555 1_555
C30_6 N10_6 1_555 1_555
C35_6 N14_3 1_555 1_555
C36_6 N11_6 1_555 1_555
C36_6 N12_6 1_555 1_555
I3_5 Zn5_2 1_555 1_555
I4_5 Zn5_2 1_555 1_555
Zn5_2 N2_5 1_555 1_555
C1_7 H1_7 1_555 1_555
C2_7 C1_7 1_555 1_555
H2_7 C2_7 1_555 1_555
C3_7 C2_7 1_555 1_555
C6_7 C3_7 1_555 1_555
C7_7 H5_7 1_555 1_555
C8_7 C7_7 1_555 1_555
H6_7 C8_7 1_555 1_555
C9_7 C8_7 1_555 1_555
C10_7 C9_7 1_555 1_555
H7_7 C10_7 1_555 1_555
C11_7 C10_7 1_555 1_555
H8_5 C11_7 1_555 1_555
C12_7 C9_7 1_555 1_555
C16_7 C15_7 1_555 1_555
H11_7 C16_7 1_555 1_555
C17_7 C16_7 1_555 1_555
H12_7 C17_7 1_555 1_555
C18_7 C15_7 1_555 1_555
C19_7 H13_7 1_555 1_555
C23_7 C22_7 1_555 1_555
N2_5 C7_7 1_555 1_555
N4_7 C6_7 1_555 1_555
N5_7 C12_7 1_555 1_555
N6_7 C6_7 1_555 1_555
C11_7 N2_5 1_555 1_555
C12_7 N4_7 1_555 1_555
C18_7 N5_7 1_555 1_555
C18_7 N6_7 1_555 1_555
I1_3 Zn4_2 1_555 1_555
I2_5 Zn4_2 1_555 1_555
I5_5 Zn3_5 1_555 1_555
I6_5 Zn3_5 1_555 1_555
Zn4_2 N1_5 1_555 1_555
Zn3_5 N3_5 1_555 1_555
C1_8 H1_8 1_555 1_555
C2_8 C1_8 1_555 1_555
H2_8 C2_8 1_555 1_555
C3_8 C2_8 1_555 1_555
C4_5 C3_8 1_555 1_555
H3_5 C4_5 1_555 1_555
C5_5 C4_5 1_555 1_555
H4_5 C5_5 1_555 1_555
C6_8 C3_8 1_555 1_555
C7_8 H5_8 1_555 1_555
C8_8 C7_8 1_555 1_555
H6_8 C8_8 1_555 1_555
C9_8 C8_8 1_555 1_555
C10_8 C9_8 1_555 1_555
H7_8 C10_8 1_555 1_555
C11_8 C10_8 1_555 1_555
C12_8 C9_8 1_555 1_555
C13_5 H9_5 1_555 1_555
C14_5 C13_5 1_555 1_555
H10_5 C14_5 1_555 1_555
C15_8 C14_5 1_555 1_555
C16_8 C15_8 1_555 1_555
H11_8 C16_8 1_555 1_555
C17_8 C16_8 1_555 1_555
H12_8 C17_8 1_555 1_555
C18_8 C15_8 1_555 1_555
C19_8 H13_8 1_555 1_555
C23_8 C22_8 1_555 1_555
H16_5 C23_8 1_555 1_555
N1_5 C1_8 1_555 1_555
N3_5 C13_5 1_555 1_555
N4_8 C6_8 1_555 1_555
N5_8 C12_8 1_555 1_555
N6_8 C6_8 1_555 1_555
N7_5 Zn3_5 1_555 1_555
C5_5 N1_5 1_555 1_555
C12_8 N4_8 1_555 1_555
C17_8 N3_5 1_555 1_555
C18_8 N5_8 1_555 1_555
C18_8 N6_8 1_555 1_555
C19_8 N7_5 1_555 1_555
C23_8 N7_5 1_555 1_555
I3_6 Zn5_3 1_555 1_555
I4_6 Zn5_3 1_555 1_555
Zn5_3 N2_6 1_555 1_555
I2_6 Zn1_4 1_555 1_555
I5_6 Zn3_6 1_555 1_555
I6_6 Zn3_6 1_555 1_555
Zn1_4 N1_6 1_555 1_555
Zn3_6 N3_6 1_555 1_555
H3_6 C4_6 1_555 1_555
C5_6 C4_6 1_555 1_555
H4_6 C5_6 1_555 1_555
C13_6 H9_6 1_555 1_555
C14_6 C13_6 1_555 1_555
H10_6 C14_6 1_555 1_555
N3_6 C13_6 1_555 1_555
N7_6 Zn3_6 1_555 1_555
N13_4 Zn1_4 1_555 1_555
C5_6 N1_6 1_555 1_555
C25_6 H17_6 1_555 1_555
N13_4 C25_6 1_555 1_555
H14_7 C20_7 1_555 1_555
C21_7 C20_7 1_555 1_555
C24_7 C21_7 1_555 1_555
C31_7 H21_7 1_555 1_555
C32_7 C31_7 1_555 1_555
H22_7 C32_7 1_555 1_555
C33_7 C32_7 1_555 1_555
C34_7 C33_7 1_555 1_555
H23_7 C34_7 1_555 1_555
C35_7 C34_7 1_555 1_555
H24_7 C35_7 1_555 1_555
C36_7 C33_7 1_555 1_555
N9_4 C31_7 1_555 1_555
N10_7 C24_7 1_555 1_555
N11_7 C30_7 1_555 1_555
N12_7 C24_7 1_555 1_555
Zn5_4 N9_4 1_555 1_555
C30_7 N10_7 1_555 1_555
C35_7 N9_4 1_555 1_555
C36_7 N11_7 1_555 1_555
C36_7 N12_7 1_555 1_555
I3_7 Zn5_4 1_555 1_555
I4_7 Zn5_4 1_555 1_555
Zn5_4 N2_7 1_555 1_555
C25_7 H17_7 1_555 1_555
N8_3 C25_7 1_555 1_555
Zn4_3 N8_3 1_555 1_555
I2_7 Zn4_3 1_555 1_555
I5_7 Zn3_7 1_555 1_555
I6_7 Zn3_7 1_555 1_555
Zn4_3 N1_7 1_555 1_555
Zn3_7 N3_7 1_555 1_555
H3_7 C4_7 1_555 1_555
C5_7 C4_7 1_555 1_555
H4_7 C5_7 1_555 1_555
C13_7 H9_7 1_555 1_555
C14_7 C13_7 1_555 1_555
H10_7 C14_7 1_555 1_555
N3_7 C13_7 1_555 1_555
N7_7 Zn3_7 1_555 1_555
C5_7 N1_7 1_555 1_555
H18_5 C26_5 1_555 1_555
C27_5 C26_5 1_555 1_555
C28_5 C27_5 1_555 1_555
H19_5 C28_5 1_555 1_555
C29_5 C28_5 1_555 1_555
H20_5 C29_5 1_555 1_555
C25_8 H17_8 1_555 1_555
N8_4 C25_8 1_555 1_555
Zn4_4 N8_4 1_555 1_555
I1_5 Zn4_4 1_555 1_555
I2_8 Zn4_4 1_555 1_555
I5_8 Zn3_8 1_555 1_555
I6_8 Zn3_8 1_555 1_555
Zn4_4 N1_8 1_555 1_555
Zn3_8 N3_8 1_555 1_555
H3_8 C4_8 1_555 1_555
C5_8 C4_8 1_555 1_555
H4_8 C5_8 1_555 1_555
C13_8 H9_8 1_555 1_555
C14_8 C13_8 1_555 1_555
H10_8 C14_8 1_555 1_555
N3_8 C13_8 1_555 1_555
N7_8 Zn3_8 1_555 1_555
C5_8 N1_8 1_555 1_555
H18_6 C26_6 1_555 1_555
C27_6 C26_6 1_555 1_555
C28_6 C27_6 1_555 1_555
H19_6 C28_6 1_555 1_555
C29_6 C28_6 1_555 1_555
H20_6 C29_6 1_555 1_555
I3_8 Zn2_4 1_555 1_555
I4_8 Zn2_4 1_555 1_555
Zn2_4 N2_8 1_555 1_555
N14_4 Zn2_4 1_555 1_555
H14_8 C20_8 1_555 1_555
C21_8 C20_8 1_555 1_555
C24_8 C21_8 1_555 1_555
C31_8 H21_8 1_555 1_555
C32_8 C31_8 1_555 1_555
H22_8 C32_8 1_555 1_555
C33_8 C32_8 1_555 1_555
C34_8 C33_8 1_555 1_555
H23_8 C34_8 1_555 1_555
C35_8 C34_8 1_555 1_555
H24_8 C35_8 1_555 1_555
C36_8 C33_8 1_555 1_555
N14_4 C31_8 1_555 1_555
N10_8 C24_8 1_555 1_555
N11_8 C30_8 1_555 1_555
N12_8 C24_8 1_555 1_555
C30_8 N10_8 1_555 1_555
C35_8 N14_4 1_555 1_555
C36_8 N11_8 1_555 1_555
C36_8 N12_8 1_555 1_555
H18_7 C26_7 1_555 1_555
C27_7 C26_7 1_555 1_555
C28_7 C27_7 1_555 1_555
H19_7 C28_7 1_555 1_555
C29_7 C28_7 1_555 1_555
H20_7 C29_7 1_555 1_555
H18_8 C26_8 1_555 1_555
C27_8 C26_8 1_555 1_555
C28_8 C27_8 1_555 1_555
H19_8 C28_8 1_555 1_555
C29_8 C28_8 1_555 1_555
H20_8 C29_8 1_555 1_555

#END
