
###############################################################################
#
# This file contains modified crystal structure data generated from the
# MOF subset of the Cambridge Structural Database (CSD) v543 
# hosted by the Cambridge Crystallographic Data Centre (CCDC).
#
# This work is licensed under the Creative Commons
# Attribution-NonCommercial-ShareAlike 4.0 International License.
# To view a copy of this license, visit
# http://creativecommons.org/licenses/by-nc-sa/4.0/
# or send a letter to
# Creative Commons, PO Box 1866, Mountain View, CA 94042, USA.
#
# CIF created using the CSD Python API on 29 September 2022
# The structure has been converted into the P1 space group
# The structure has a 3D framework
# The original CSD entry CURYOE01 is in the rhombohedral crystal system
# The framework has been calculated to contain at least 10.0% void space
# The void calculation uses a probe of radius 1.32A, grid spacing 0.4
#
###############################################################################

data_CURYOE01
_chemical_formula_moiety         '(C234 H162 Cd14 Cl18 N36)n'
_symmetry_cell_setting           triclinic
_symmetry_space_group_name_H-M   'P 1'
_symmetry_Int_Tables_number      1
_space_group_name_Hall           'P 1'
loop_
_symmetry_equiv_pos_site_id
_symmetry_equiv_pos_as_xyz
1 x,y,z
_cell_length_a                   26.9517(14)
_cell_length_b                   26.9517(14)
_cell_length_c                   13.2369(14)
_cell_angle_alpha                90
_cell_angle_beta                 90
_cell_angle_gamma                120
_cell_volume                     8327.01
loop_
_atom_site_label
_atom_site_type_symbol
_atom_site_fract_x
_atom_site_fract_y
_atom_site_fract_z
Cd1 Cd 0.5000 0.5000 0.0000
Cl1 Cl 0.47175(7) 0.52826(3) 0.16589(10)
N1 N 0.45892(16) 0.40290(16) 0.0619(3)
C2 C 0.4168(2) 0.30373(28) 0.0189(3)
C3 C 0.39216(18) 0.28694(26) 0.1136(3)
C4 C 0.4027(2) 0.3299(3) 0.1821(4)
H3 H 0.3870 0.3205 0.2483
C5 C 0.4361(2) 0.3868(3) 0.1536(4)
H4 H 0.4431 0.4157 0.2019
C6 C 0.35907(17) 0.22484(25) 0.1405(3)
C7 C 0.38402(13) 0.19201(18) 0.1152(4)
H5 H 0.4194 0.2097 0.0795
Cd2 Cd 0.5000 -0.0000 0.0000
Cd4 Cd 0.1667 0.3333 0.3333
N2 N 0.45892(16) 0.05602(23) 0.0619(3)
N4 N 0.20775(16) 0.27731(23) 0.2714(3)
N7 N 0.59710(16) 0.54108(16) 0.0619(3)
C10 C 0.2176(2) 0.24566(34) 0.3371(3)
H8 H 0.2014 0.2401 0.4029
C11 C 0.4168(2) 0.11307(34) 0.0189(3)
C12 C 0.2499(2) 0.02960(28) 0.3144(3)
C13 C 0.2499(2) 0.22026(34) 0.3144(3)
H10 H 0.2552 0.0575 0.3634
H11 H 0.2552 0.1976 0.3634
C14 C 0.39216(18) 0.10522(32) 0.1136(3)
C15 C 0.27451(18) 0.04639(26) 0.2197(3)
C16 C 0.27451(18) 0.22811(32) 0.2197(3)
C17 C 0.4027(2) 0.0728(4) 0.1821(4)
C18 C 0.2640(2) 0.0034(3) 0.1512(4)
C19 C 0.2640(2) 0.2605(4) 0.1512(4)
H12 H 0.3870 0.0665 0.2483
H13 H 0.2797 0.0128 0.0850
H14 H 0.2797 0.2668 0.0850
C20 C 0.4361(2) 0.0493(4) 0.1536(4)
C22 C 0.2306(2) 0.2840(4) 0.1797(4)
H15 H 0.4431 0.0274 0.2019
H17 H 0.2236 0.3059 0.1314
C23 C 0.35907(17) 0.13423(30) 0.1405(3)
C24 C 0.30760(17) 0.10849(25) 0.1928(3)
C25 C 0.30760(17) 0.19910(30) 0.1928(3)
C26 C 0.28265(13) 0.14132(22) 0.2181(4)
H18 H 0.2473 0.1236 0.2538
Cd1_2 Cd 0.5000 0.5000 1.0000
C1 C 0.4491(2) 0.36143(27) 0.9962(3)
H1 H 0.4653 0.3721 0.9304
H2 H 0.4115 0.2758 0.9699
Cd2_2 Cd 0.5000 -0.0000 1.0000
Cl2 Cl 0.52826(3) 0.47175(7) 0.83411(10)
N5 N 0.40290(16) 0.45892(16) 0.9381(3)
N6 N 0.54108(16) 0.59710(16) 0.9381(3)
C8 C 0.4491(2) 0.08767(34) 0.9962(3)
H6 H 0.4653 0.0932 0.9304
H9 H 0.4115 0.1357 0.9699
Cd2_3 Cd 0.5000 1.0000 0.0000
Cd3 Cd 0.1667 0.8333 0.3333
N3 N 0.20775(16) 0.93043(16) 0.2714(3)
C9 C 0.2176(2) 0.97190(27) 0.3371(3)
H7 H 0.2014 0.9612 0.4029
C21 C 0.2306(2) 0.9465(3) 0.1797(4)
H16 H 0.2236 0.9176 0.1314
Cd2_4 Cd 0.5000 1.0000 1.0000
Cd2_5 Cd 0.0000 0.5000 0.0000
N3_2 N 0.06957(16) 0.27731(23) 0.2714(3)
C9_2 C 0.02810(27) 0.24566(34) 0.3371(3)
H7_2 H 0.0388 0.2401 0.4029
C21_2 C 0.0535(3) 0.2840(4) 0.1797(4)
H16_2 H 0.0824 0.3059 0.1314
Cd2_6 Cd 0.0000 0.5000 1.0000
N1_2 N 0.59710(16) 0.05602(23) 0.0619(3)
C2_2 C 0.69627(28) 0.11307(34) 0.0189(3)
C3_2 C 0.71306(26) 0.10522(32) 0.1136(3)
C4_2 C 0.6701(3) 0.0728(4) 0.1821(4)
H3_2 H 0.6795 0.0665 0.2483
C5_2 C 0.6132(3) 0.0493(4) 0.1536(4)
H4_2 H 0.5843 0.0274 0.2019
C6_2 C 0.77516(25) 0.13423(30) 0.1405(3)
C7_2 C 0.80799(18) 0.19201(22) 0.1152(4)
H5_2 H 0.7903 0.2097 0.0795
Cd2_7 Cd 1.0000 0.5000 0.0000
N2_2 N 0.94398(23) 0.40290(28) 0.0619(3)
C11_2 C 0.88693(34) 0.30373(39) 0.0189(3)
C12_2 C 0.97040(28) 0.22026(34) 0.3144(3)
C13_2 C 0.77974(34) 0.02960(39) 0.3144(3)
H10_2 H 0.9425 0.1976 0.3634
H11_2 H 0.8024 0.0575 0.3634
C14_2 C 0.89478(32) 0.28694(37) 0.1136(3)
C15_2 C 0.95361(26) 0.22811(32) 0.2197(3)
C16_2 C 0.77189(32) 0.04639(37) 0.2197(3)
C17_2 C 0.9272(4) 0.3299(4) 0.1821(4)
C18_2 C 0.9966(3) 0.2605(4) 0.1512(4)
C19_2 C 0.7395(4) 0.0034(4) 0.1512(4)
H12_2 H 0.9335 0.3205 0.2483
H13_2 H 0.9872 0.2668 0.0850
H14_2 H 0.7332 0.0128 0.0850
C20_2 C 0.9507(4) 0.3868(4) 0.1536(4)
H15_2 H 0.9726 0.4157 0.2019
C23_2 C 0.86577(30) 0.22484(34) 0.1405(3)
C24_2 C 0.89151(25) 0.19910(30) 0.1928(3)
C25_2 C 0.80090(30) 0.10849(34) 0.1928(3)
C26_2 C 0.85868(22) 0.14132(26) 0.2181(4)
H18_2 H 0.8764 0.1236 0.2538
C1_2 C 0.63857(27) 0.08767(34) 0.9962(3)
H1_2 H 0.6279 0.0932 0.9304
H2_2 H 0.7242 0.1357 0.9699
Cd2_8 Cd 1.0000 0.5000 1.0000
Cl2_2 Cl 0.52825(7) 0.05651(8) 0.83411(10)
C8_2 C 0.91233(34) 0.36143(39) 0.9962(3)
H6_2 H 0.9068 0.3721 0.9304
H9_2 H 0.8643 0.2758 0.9699
Cl1_2 Cl 0.47174(3) 0.94349(8) 0.16589(10)
Cd4_2 Cd 0.6667 0.8333 0.3333
N4_2 N 0.72269(23) 0.93043(28) 0.2714(3)
C10_2 C 0.75434(34) 0.97190(39) 0.3371(3)
H8_2 H 0.7599 0.9612 0.4029
C22_2 C 0.7160(4) 0.9465(4) 0.1797(4)
H17_2 H 0.6941 0.9176 0.1314
N5_2 N 0.54108(16) 0.94398(23) 0.9381(3)
N6_2 N 0.40290(16) 0.94398(23) 0.9381(3)
Cl1_3 Cl 0.05651(8) 0.52825(7) 0.16589(10)
N4_3 N 0.06957(28) 0.79225(16) 0.2714(3)
C10_3 C 0.02810(39) 0.7824(2) 0.3371(3)
H8_3 H 0.0388 0.7986 0.4029
C22_3 C 0.0535(4) 0.7694(2) 0.1797(4)
H17_3 H 0.0824 0.7764 0.1314
N5_3 N 0.05602(23) 0.59710(16) 0.9381(3)
N6_3 N 0.05602(23) 0.45892(16) 0.9381(3)
N1_3 N 0.94398(23) 0.54108(16) 0.0619(3)
C2_3 C 0.88693(34) 0.5832(2) 0.0189(3)
C3_3 C 0.89478(32) 0.60784(18) 0.1136(3)
C4_3 C 0.9272(4) 0.5973(2) 0.1821(4)
H3_3 H 0.9335 0.6130 0.2483
C5_3 C 0.9507(4) 0.5639(2) 0.1536(4)
H4_3 H 0.9726 0.5569 0.2019
C6_3 C 0.86577(30) 0.64093(17) 0.1405(3)
C7_3 C 0.80799(22) 0.61598(13) 0.1152(4)
H5_3 H 0.7903 0.5806 0.0795
N3_3 N 0.72269(23) 0.79225(16) 0.2714(3)
C9_3 C 0.75434(34) 0.7824(2) 0.3371(3)
H7_3 H 0.7599 0.7986 0.4029
C11_3 C 0.69627(39) 0.5832(2) 0.0189(3)
C12_3 C 0.77974(34) 0.7501(2) 0.3144(3)
C13_3 C 0.97040(39) 0.7501(2) 0.3144(3)
H10_3 H 0.8024 0.7448 0.3634
H11_3 H 0.9425 0.7448 0.3634
C14_3 C 0.71306(37) 0.60784(18) 0.1136(3)
C15_3 C 0.77189(32) 0.72549(18) 0.2197(3)
C16_3 C 0.95361(37) 0.72549(18) 0.2197(3)
C17_3 C 0.6701(4) 0.5973(2) 0.1821(4)
C18_3 C 0.7395(4) 0.7360(2) 0.1512(4)
C19_3 C 0.9966(4) 0.7360(2) 0.1512(4)
H12_3 H 0.6795 0.6130 0.2483
H13_3 H 0.7332 0.7203 0.0850
H14_3 H 0.9872 0.7203 0.0850
C20_3 C 0.6132(4) 0.5639(2) 0.1536(4)
C21_3 C 0.7160(4) 0.7694(2) 0.1797(4)
H15_3 H 0.5843 0.5569 0.2019
H16_3 H 0.6941 0.7764 0.1314
C23_3 C 0.77516(34) 0.64093(17) 0.1405(3)
C24_3 C 0.80090(30) 0.69240(17) 0.1928(3)
C25_3 C 0.89151(34) 0.69240(17) 0.1928(3)
C26_3 C 0.85868(26) 0.71735(13) 0.2181(4)
H18_3 H 0.8764 0.7527 0.2538
C1_3 C 0.91233(34) 0.5509(2) 0.9962(3)
H1_3 H 0.9068 0.5347 0.9304
H2_3 H 0.8643 0.5885 0.9699
Cl2_3 Cl 0.94349(8) 0.47174(3) 0.83411(10)
C8_3 C 0.63857(39) 0.5509(2) 0.9962(3)
H6_3 H 0.6279 0.5347 0.9304
H9_3 H 0.7242 0.5885 0.9699
C1_4 C 0.36143(27) 0.4491(2) 0.0038(3)
H1_4 H 0.3721 0.4653 0.0696
H2_4 H 0.2758 0.4115 0.0301
C8_4 C 0.08767(34) 0.4491(2) 0.0038(3)
H6_4 H 0.0932 0.4653 0.0696
H9_4 H 0.1357 0.4115 0.0301
C2_4 C 0.30373(28) 0.4168(2) 0.9811(3)
C3_4 C 0.28694(26) 0.39216(18) 0.8864(3)
C4_4 C 0.3299(3) 0.4027(2) 0.8179(4)
H3_4 H 0.3205 0.3870 0.7517
C5_4 C 0.3868(3) 0.4361(2) 0.8464(4)
H4_4 H 0.4157 0.4431 0.7981
C6_4 C 0.22484(25) 0.35907(17) 0.8595(3)
C7_4 C 0.19201(18) 0.38402(13) 0.8848(4)
H5_4 H 0.2097 0.4194 0.9205
Cd4_3 Cd 0.3333 0.1667 0.6667
N4_4 N 0.27731(23) 0.20775(16) 0.7286(3)
C10_4 C 0.24566(34) 0.2176(2) 0.6629(3)
H8_4 H 0.2401 0.2014 0.5971
C11_4 C 0.11307(34) 0.4168(2) 0.9811(3)
C12_4 C 0.02960(28) 0.2499(2) 0.6856(3)
C13_4 C 0.22026(34) 0.2499(2) 0.6856(3)
H10_4 H 0.0575 0.2552 0.6366
H11_4 H 0.1976 0.2552 0.6366
C14_4 C 0.10522(32) 0.39216(18) 0.8864(3)
C15_4 C 0.04639(26) 0.27451(18) 0.7803(3)
C16_4 C 0.22811(32) 0.27451(18) 0.7803(3)
C17_4 C 0.0728(4) 0.4027(2) 0.8179(4)
C18_4 C 0.0034(3) 0.2640(2) 0.8488(4)
C19_4 C 0.2605(4) 0.2640(2) 0.8488(4)
H12_4 H 0.0665 0.3870 0.7517
H13_4 H 0.0128 0.2797 0.9150
H14_4 H 0.2668 0.2797 0.9150
C20_4 C 0.0493(4) 0.4361(2) 0.8464(4)
C22_4 C 0.2840(4) 0.2306(2) 0.8203(4)
H15_4 H 0.0274 0.4431 0.7981
H17_4 H 0.3059 0.2236 0.8686
C23_4 C 0.13423(30) 0.35907(17) 0.8595(3)
C24_4 C 0.10849(25) 0.30760(17) 0.8072(3)
C25_4 C 0.19910(30) 0.30760(17) 0.8072(3)
C26_4 C 0.14132(22) 0.28265(13) 0.7819(4)
H18_4 H 0.1236 0.2473 0.7462
Cd3_2 Cd 0.8333 0.1667 0.6667
N3_4 N 0.93043(16) 0.20775(16) 0.7286(3)
C9_4 C 0.97190(27) 0.2176(2) 0.6629(3)
H7_4 H 0.9612 0.2014 0.5971
C21_4 C 0.9465(3) 0.2306(2) 0.8203(4)
H16_4 H 0.9176 0.2236 0.8686
N3_5 N 0.27731(23) 0.06957(16) 0.7286(3)
C9_5 C 0.24566(34) 0.02810(27) 0.6629(3)
H7_5 H 0.2401 0.0388 0.5971
C21_5 C 0.2840(4) 0.0535(3) 0.8203(4)
H16_5 H 0.3059 0.0824 0.8686
C1_5 C 0.08767(34) 0.63857(27) 0.0038(3)
H1_5 H 0.0932 0.6279 0.0696
H2_5 H 0.1357 0.7242 0.0301
C8_5 C 0.36143(39) 0.91233(34) 0.0038(3)
H6_5 H 0.3721 0.9068 0.0696
H9_5 H 0.2758 0.8643 0.0301
C2_5 C 0.11307(34) 0.69627(28) 0.9811(3)
C3_5 C 0.10522(32) 0.71306(26) 0.8864(3)
C4_5 C 0.0728(4) 0.6701(3) 0.8179(4)
H3_5 H 0.0665 0.6795 0.7517
C5_5 C 0.0493(4) 0.6132(3) 0.8464(4)
H4_5 H 0.0274 0.5843 0.7981
C6_5 C 0.13423(30) 0.77516(25) 0.8595(3)
C7_5 C 0.19201(22) 0.80799(18) 0.8848(4)
H5_5 H 0.2097 0.7903 0.9205
C11_5 C 0.30373(39) 0.88693(34) 0.9811(3)
C12_5 C 0.22026(34) 0.97040(28) 0.6856(3)
C13_5 C 0.02960(39) 0.77974(34) 0.6856(3)
H10_5 H 0.1976 0.9425 0.6366
H11_5 H 0.0575 0.8024 0.6366
C14_5 C 0.28694(37) 0.89478(32) 0.8864(3)
C15_5 C 0.22811(32) 0.95361(26) 0.7803(3)
C16_5 C 0.04639(37) 0.77189(32) 0.7803(3)
C17_5 C 0.3299(4) 0.9272(4) 0.8179(4)
C18_5 C 0.2605(4) 0.9966(3) 0.8488(4)
C19_5 C 0.0034(4) 0.7395(4) 0.8488(4)
H12_5 H 0.3205 0.9335 0.7517
H13_5 H 0.2668 0.9872 0.9150
H14_5 H 0.0128 0.7332 0.9150
C20_5 C 0.3868(4) 0.9507(4) 0.8464(4)
H15_5 H 0.4157 0.9726 0.7981
C23_5 C 0.22484(34) 0.86577(30) 0.8595(3)
C24_5 C 0.19910(30) 0.89151(25) 0.8072(3)
C25_5 C 0.10849(34) 0.80090(30) 0.8072(3)
C26_5 C 0.14132(26) 0.85868(22) 0.7819(4)
H18_5 H 0.1236 0.8764 0.7462
Cd4_4 Cd 0.8333 0.6667 0.6667
N4_5 N 0.93043(28) 0.72269(23) 0.7286(3)
C10_5 C 0.97190(39) 0.75434(34) 0.6629(3)
H8_5 H 0.9612 0.7599 0.5971
C22_5 C 0.9465(4) 0.7160(4) 0.8203(4)
H17_5 H 0.9176 0.6941 0.8686
N4_6 N 0.79225(16) 0.06957(28) 0.7286(3)
C10_6 C 0.7824(2) 0.02810(39) 0.6629(3)
H8_6 H 0.7986 0.0388 0.5971
C22_6 C 0.7694(2) 0.0535(4) 0.8203(4)
H17_6 H 0.7764 0.0824 0.8686
C1_6 C 0.5509(2) 0.91233(34) 0.0038(3)
H1_6 H 0.5347 0.9068 0.0696
H2_6 H 0.5885 0.8643 0.0301
C8_6 C 0.5509(2) 0.63857(39) 0.0038(3)
H6_6 H 0.5347 0.6279 0.0696
H9_6 H 0.5885 0.7242 0.0301
C2_6 C 0.5832(2) 0.88693(34) 0.9811(3)
C3_6 C 0.60784(18) 0.89478(32) 0.8864(3)
C4_6 C 0.5973(2) 0.9272(4) 0.8179(4)
H3_6 H 0.6130 0.9335 0.7517
C5_6 C 0.5639(2) 0.9507(4) 0.8464(4)
H4_6 H 0.5569 0.9726 0.7981
C6_6 C 0.64093(17) 0.86577(30) 0.8595(3)
C7_6 C 0.61598(13) 0.80799(22) 0.8848(4)
H5_6 H 0.5806 0.7903 0.9205
N3_6 N 0.79225(16) 0.72269(23) 0.7286(3)
C9_6 C 0.7824(2) 0.75434(34) 0.6629(3)
H7_6 H 0.7986 0.7599 0.5971
C11_6 C 0.5832(2) 0.69627(39) 0.9811(3)
C12_6 C 0.7501(2) 0.77974(34) 0.6856(3)
C13_6 C 0.7501(2) 0.97040(39) 0.6856(3)
H10_6 H 0.7448 0.8024 0.6366
H11_6 H 0.7448 0.9425 0.6366
C14_6 C 0.60784(18) 0.71306(37) 0.8864(3)
C15_6 C 0.72549(18) 0.77189(32) 0.7803(3)
C16_6 C 0.72549(18) 0.95361(37) 0.7803(3)
C17_6 C 0.5973(2) 0.6701(4) 0.8179(4)
C18_6 C 0.7360(2) 0.7395(4) 0.8488(4)
C19_6 C 0.7360(2) 0.9966(4) 0.8488(4)
H12_6 H 0.6130 0.6795 0.7517
H13_6 H 0.7203 0.7332 0.9150
H14_6 H 0.7203 0.9872 0.9150
C20_6 C 0.5639(2) 0.6132(4) 0.8464(4)
C21_6 C 0.7694(2) 0.7160(4) 0.8203(4)
H15_6 H 0.5569 0.5843 0.7981
H16_6 H 0.7764 0.6941 0.8686
C23_6 C 0.64093(17) 0.77516(34) 0.8595(3)
C24_6 C 0.69240(17) 0.80090(30) 0.8072(3)
C25_6 C 0.69240(17) 0.89151(34) 0.8072(3)
C26_6 C 0.71735(13) 0.85868(26) 0.7819(4)
H18_6 H 0.7527 0.8764 0.7462
Cl1_4 Cl 0.13842(7) 0.86159(3) 0.49922(10)
N1_4 N 0.12559(16) 0.73623(16) 0.3952(3)
C1_7 C 0.1158(2) 0.69476(27) 0.3295(3)
H1_7 H 0.1320 0.7054 0.2637
C2_7 C 0.0835(2) 0.63706(28) 0.3522(3)
H2_7 H 0.0782 0.6091 0.3032
C3_7 C 0.05883(18) 0.62027(26) 0.4469(3)
C4_7 C 0.0694(2) 0.6632(3) 0.5154(4)
H3_7 H 0.0537 0.6538 0.5816
C5_7 C 0.1028(2) 0.7201(3) 0.4869(4)
H4_7 H 0.1098 0.7490 0.5352
C6_7 C 0.02574(17) 0.55817(25) 0.4738(3)
C7_7 C 0.05069(13) 0.52534(18) 0.4485(4)
H5_7 H 0.0861 0.5430 0.4128
Cl2_4 Cl 0.19493(3) 0.80508(7) 0.16744(10)
N2_3 N 0.12559(16) 0.38935(23) 0.3952(3)
N7_2 N 0.26377(16) 0.87441(16) 0.3952(3)
C8_7 C 0.1158(2) 0.42100(34) 0.3295(3)
H6_7 H 0.1320 0.4265 0.2637
C11_7 C 0.0835(2) 0.44640(34) 0.3522(3)
H9_7 H 0.0782 0.4690 0.3032
C14_7 C 0.05883(18) 0.43855(32) 0.4469(3)
C17_7 C 0.0694(2) 0.4061(4) 0.5154(4)
H12_7 H 0.0537 0.3998 0.5816
C20_7 C 0.1028(2) 0.3826(4) 0.4869(4)
H15_7 H 0.1098 0.3607 0.5352
C23_7 C 0.02574(17) 0.46756(30) 0.4738(3)
N3_7 N 0.87441(16) 0.26377(16) 0.6048(3)
N4_7 N 0.87441(16) 0.61065(23) 0.6048(3)
C9_7 C 0.8842(2) 0.30524(27) 0.6705(3)
C10_7 C 0.8842(2) 0.57900(34) 0.6705(3)
H7_7 H 0.8680 0.2946 0.7363
H8_7 H 0.8680 0.5735 0.7363
C12_7 C 0.9165(2) 0.36294(28) 0.6478(3)
C13_7 C 0.9165(2) 0.55360(34) 0.6478(3)
H10_7 H 0.9218 0.3909 0.6968
H11_7 H 0.9218 0.5310 0.6968
C15_7 C 0.94117(18) 0.37973(26) 0.5531(3)
C16_7 C 0.94117(18) 0.56145(32) 0.5531(3)
C18_7 C 0.9306(2) 0.3368(3) 0.4846(4)
C19_7 C 0.9306(2) 0.5939(4) 0.4846(4)
H13_7 H 0.9463 0.3462 0.4184
H14_7 H 0.9463 0.6002 0.4184
C21_7 C 0.8972(2) 0.2799(3) 0.5131(4)
C22_7 C 0.8972(2) 0.6174(4) 0.5131(4)
H16_7 H 0.8902 0.2510 0.4648
H17_7 H 0.8902 0.6393 0.4648
C24_7 C 0.97426(17) 0.44183(25) 0.5262(3)
C25_7 C 0.97426(17) 0.53244(30) 0.5262(3)
C26_7 C 0.94931(13) 0.47466(22) 0.5515(4)
H18_7 H 0.9139 0.4570 0.5872
Cl1_5 Cl 0.13841(3) 0.27682(8) 0.49922(10)
N1_5 N 0.26377(16) 0.38935(23) 0.3952(3)
C1_8 C 0.30524(27) 0.42100(34) 0.3295(3)
H1_8 H 0.2946 0.4265 0.2637
C2_8 C 0.36294(28) 0.44640(34) 0.3522(3)
H2_8 H 0.3909 0.4690 0.3032
C3_8 C 0.37973(26) 0.43855(32) 0.4469(3)
C4_8 C 0.3368(3) 0.4061(4) 0.5154(4)
H3_8 H 0.3462 0.3998 0.5816
C5_8 C 0.2799(3) 0.3826(4) 0.4869(4)
H4_8 H 0.2510 0.3607 0.5352
C6_8 C 0.44183(25) 0.46756(30) 0.4738(3)
C7_8 C 0.47466(18) 0.52534(22) 0.4485(4)
H5_8 H 0.4570 0.5430 0.4128
Cl2_5 Cl 0.19492(7) 0.38984(8) 0.16744(10)
N2_4 N 0.61065(23) 0.73623(28) 0.3952(3)
N3_8 N 0.73623(16) 0.61065(23) 0.6048(3)
N4_8 N 0.38935(23) 0.26377(28) 0.6048(3)
C8_8 C 0.57900(34) 0.69476(39) 0.3295(3)
C9_8 C 0.69476(27) 0.57900(34) 0.6705(3)
C10_8 C 0.42100(34) 0.30524(39) 0.6705(3)
H6_8 H 0.5735 0.7054 0.2637
H7_8 H 0.7054 0.5735 0.7363
H8_8 H 0.4265 0.2946 0.7363
C11_8 C 0.55360(34) 0.63706(39) 0.3522(3)
C12_8 C 0.63706(28) 0.55360(34) 0.6478(3)
C13_8 C 0.44640(34) 0.36294(39) 0.6478(3)
H9_8 H 0.5310 0.6091 0.3032
H10_8 H 0.6091 0.5310 0.6968
H11_8 H 0.4690 0.3909 0.6968
C14_8 C 0.56145(32) 0.62027(37) 0.4469(3)
C15_8 C 0.62027(26) 0.56145(32) 0.5531(3)
C16_8 C 0.43855(32) 0.37973(37) 0.5531(3)
C17_8 C 0.5939(4) 0.6632(4) 0.5154(4)
C18_8 C 0.6632(3) 0.5939(4) 0.4846(4)
C19_8 C 0.4061(4) 0.3368(4) 0.4846(4)
H12_8 H 0.6002 0.6538 0.5816
H13_8 H 0.6538 0.6002 0.4184
H14_8 H 0.3998 0.3462 0.4184
C20_8 C 0.6174(4) 0.7201(4) 0.4869(4)
C21_8 C 0.7201(3) 0.6174(4) 0.5131(4)
C22_8 C 0.3826(4) 0.2799(4) 0.5131(4)
H15_8 H 0.6393 0.7490 0.5352
H16_8 H 0.7490 0.6393 0.4648
H17_8 H 0.3607 0.2510 0.4648
C23_8 C 0.53244(30) 0.55817(34) 0.4738(3)
C24_8 C 0.55817(25) 0.53244(30) 0.5262(3)
C25_8 C 0.46756(30) 0.44183(34) 0.5262(3)
C26_8 C 0.52534(22) 0.47466(26) 0.5515(4)
H18_8 H 0.5430 0.4570 0.5872
N3_9 N 0.38935(23) 0.12559(16) 0.6048(3)
N4_9 N 0.73623(28) 0.12559(16) 0.6048(3)
C9_9 C 0.42100(34) 0.1158(2) 0.6705(3)
C10_9 C 0.69476(39) 0.1158(2) 0.6705(3)
H7_9 H 0.4265 0.1320 0.7363
H8_9 H 0.7054 0.1320 0.7363
C12_9 C 0.44640(34) 0.0835(2) 0.6478(3)
C13_9 C 0.63706(39) 0.0835(2) 0.6478(3)
H10_9 H 0.4690 0.0782 0.6968
H11_9 H 0.6091 0.0782 0.6968
C15_9 C 0.43855(32) 0.05883(18) 0.5531(3)
C16_9 C 0.62027(37) 0.05883(18) 0.5531(3)
C18_9 C 0.4061(4) 0.0694(2) 0.4846(4)
C19_9 C 0.6632(4) 0.0694(2) 0.4846(4)
H13_9 H 0.3998 0.0537 0.4184
H14_9 H 0.6538 0.0537 0.4184
C21_9 C 0.3826(4) 0.1028(2) 0.5131(4)
C22_9 C 0.7201(4) 0.1028(2) 0.5131(4)
H16_9 H 0.3607 0.1098 0.4648
H17_9 H 0.7490 0.1098 0.4648
C24_9 C 0.46756(30) 0.02574(17) 0.5262(3)
C25_9 C 0.55817(34) 0.02574(17) 0.5262(3)
C26_9 C 0.52534(26) 0.05069(13) 0.5515(4)
H18_9 H 0.5430 0.0861 0.5872
Cl1_6 Cl 0.72318(8) 0.86158(7) 0.49922(10)
N1_6 N 0.61065(23) 0.87441(16) 0.3952(3)
C1_9 C 0.57900(34) 0.8842(2) 0.3295(3)
H1_9 H 0.5735 0.8680 0.2637
C2_9 C 0.55360(34) 0.9165(2) 0.3522(3)
H2_9 H 0.5310 0.9218 0.3032
C3_9 C 0.56145(32) 0.94117(18) 0.4469(3)
C4_9 C 0.5939(4) 0.9306(2) 0.5154(4)
H3_9 H 0.6002 0.9463 0.5816
C5_9 C 0.6174(4) 0.8972(2) 0.4869(4)
H4_9 H 0.6393 0.8902 0.5352
C6_9 C 0.53244(30) 0.97426(17) 0.4738(3)
C7_9 C 0.47466(22) 0.94931(13) 0.4485(4)
H5_9 H 0.4570 0.9139 0.4128
Cl2_6 Cl 0.61016(8) 0.80507(3) 0.16744(10)
C8_9 C 0.30524(39) 0.8842(2) 0.3295(3)
H6_9 H 0.2946 0.8680 0.2637
C11_9 C 0.36294(39) 0.9165(2) 0.3522(3)
H9_9 H 0.3909 0.9218 0.3032
C14_9 C 0.37973(37) 0.94117(18) 0.4469(3)
C17_9 C 0.3368(4) 0.9306(2) 0.5154(4)
H12_9 H 0.3462 0.9463 0.5816
C20_9 C 0.2799(4) 0.8972(2) 0.4869(4)
H15_9 H 0.2510 0.8902 0.5352
C23_9 C 0.44183(34) 0.97426(17) 0.4738(3)
Cl1_7 Cl 0.80508(7) 0.19493(3) 0.83256(10)
Cl2_7 Cl 0.86159(3) 0.13842(7) 0.50078(10)
Cl1_8 Cl 0.80507(3) 0.61016(8) 0.83256(10)
Cl2_8 Cl 0.86158(7) 0.72318(8) 0.50078(10)
Cl1_9 Cl 0.38984(8) 0.19492(7) 0.83256(10)
Cl2_9 Cl 0.27682(8) 0.13841(3) 0.50078(10)
loop_
_geom_bond_atom_site_label_1
_geom_bond_atom_site_label_2
_geom_bond_site_symmetry_1
_geom_bond_site_symmetry_2
Cd1 Cl1 1_555 1_555
N1 Cd1 1_555 1_555
C3 C2 1_555 1_555
C4 C3 1_555 1_555
H3 C4 1_555 1_555
C5 N1 1_555 1_555
H4 C5 1_555 1_555
C6 C3 1_555 1_555
C7 C6 1_555 1_555
H5 C7 1_555 1_555
Cd2 N2 1_555 1_555
Cd4 N4 1_555 1_555
N4 C10 1_555 1_555
N7 Cd1 1_555 1_555
C10 H8 1_555 1_555
C13 C10 1_555 1_555
H10 C12 1_555 1_555
H11 C13 1_555 1_555
C14 C11 1_555 1_555
C15 C12 1_555 1_555
C16 C13 1_555 1_555
C17 C14 1_555 1_555
C18 C15 1_555 1_555
C19 C16 1_555 1_555
H12 C17 1_555 1_555
H13 C18 1_555 1_555
H14 C19 1_555 1_555
C20 N2 1_555 1_555
C22 N4 1_555 1_555
H15 C20 1_555 1_555
H17 C22 1_555 1_555
C23 C7 1_555 1_555
C24 C15 1_555 1_555
C25 C6 1_555 1_555
C26 C24 1_555 1_555
H18 C26 1_555 1_555
C4 C5 1_555 1_555
C14 C23 1_555 1_555
C16 C25 1_555 1_555
C17 C20 1_555 1_555
C19 C22 1_555 1_555
C23 C24 1_555 1_555
C25 C26 1_555 1_555
H1 C1 1_555 1_555
Cl2 Cd1_2 1_555 1_555
N5 Cd1_2 1_555 1_555
N6 Cd1_2 1_555 1_555
C8 H6 1_555 1_555
Cd3 N3 1_555 1_555
N3 C9 1_555 1_555
C9 H7 1_555 1_555
C21 N3 1_555 1_555
H16 C21 1_555 1_555
Cd4 N3_2 1_555 1_555
N3_2 C9_2 1_555 1_555
C9_2 H7_2 1_555 1_555
C21_2 N3_2 1_555 1_555
H16_2 C21_2 1_555 1_555
N1_2 Cd2 1_555 1_555
C3_2 C2_2 1_555 1_555
C4_2 C3_2 1_555 1_555
H3_2 C4_2 1_555 1_555
C5_2 N1_2 1_555 1_555
H4_2 C5_2 1_555 1_555
C6_2 C3_2 1_555 1_555
C7_2 C6_2 1_555 1_555
H5_2 C7_2 1_555 1_555
Cd2_7 N2_2 1_555 1_555
H10_2 C12_2 1_555 1_555
H11_2 C13_2 1_555 1_555
C14_2 C11_2 1_555 1_555
C15_2 C12_2 1_555 1_555
C16_2 C13_2 1_555 1_555
C17_2 C14_2 1_555 1_555
C18_2 C15_2 1_555 1_555
C19_2 C16_2 1_555 1_555
H12_2 C17_2 1_555 1_555
H13_2 C18_2 1_555 1_555
H14_2 C19_2 1_555 1_555
C20_2 N2_2 1_555 1_555
H15_2 C20_2 1_555 1_555
C23_2 C7_2 1_555 1_555
C24_2 C15_2 1_555 1_555
C25_2 C6_2 1_555 1_555
C26_2 C24_2 1_555 1_555
H18_2 C26_2 1_555 1_555
C4_2 C5_2 1_555 1_555
C14_2 C23_2 1_555 1_555
C16_2 C25_2 1_555 1_555
C17_2 C20_2 1_555 1_555
C23_2 C24_2 1_555 1_555
C25_2 C26_2 1_555 1_555
H1_2 C1_2 1_555 1_555
Cl2_2 Cd2_2 1_555 1_555
C8_2 H6_2 1_555 1_555
Cd2_3 Cl1_2 1_555 1_555
Cd4_2 N4_2 1_555 1_555
N4_2 C10_2 1_555 1_555
C10_2 H8_2 1_555 1_555
C22_2 N4_2 1_555 1_555
H17_2 C22_2 1_555 1_555
N5_2 Cd2_4 1_555 1_555
N6_2 Cd2_4 1_555 1_555
Cd2_5 Cl1_3 1_555 1_555
Cd3 N4_3 1_555 1_555
N4_3 C10_3 1_555 1_555
C10_3 H8_3 1_555 1_555
C22_3 N4_3 1_555 1_555
H17_3 C22_3 1_555 1_555
N5_3 Cd2_6 1_555 1_555
N6_3 Cd2_6 1_555 1_555
N1_3 Cd2_7 1_555 1_555
C3_3 C2_3 1_555 1_555
C4_3 C3_3 1_555 1_555
H3_3 C4_3 1_555 1_555
C5_3 N1_3 1_555 1_555
H4_3 C5_3 1_555 1_555
C6_3 C3_3 1_555 1_555
C7_3 C6_3 1_555 1_555
H5_3 C7_3 1_555 1_555
Cd4_2 N3_3 1_555 1_555
N3_3 C9_3 1_555 1_555
C9_3 H7_3 1_555 1_555
C12_3 C9_3 1_555 1_555
H10_3 C12_3 1_555 1_555
H11_3 C13_3 1_555 1_555
C14_3 C11_3 1_555 1_555
C15_3 C12_3 1_555 1_555
C16_3 C13_3 1_555 1_555
C17_3 C14_3 1_555 1_555
C18_3 C15_3 1_555 1_555
C19_3 C16_3 1_555 1_555
H12_3 C17_3 1_555 1_555
H13_3 C18_3 1_555 1_555
H14_3 C19_3 1_555 1_555
C20_3 N7 1_555 1_555
C21_3 N3_3 1_555 1_555
H15_3 C20_3 1_555 1_555
H16_3 C21_3 1_555 1_555
C23_3 C7_3 1_555 1_555
C24_3 C15_3 1_555 1_555
C25_3 C6_3 1_555 1_555
C26_3 C24_3 1_555 1_555
H18_3 C26_3 1_555 1_555
C4_3 C5_3 1_555 1_555
C14_3 C23_3 1_555 1_555
C16_3 C25_3 1_555 1_555
C17_3 C20_3 1_555 1_555
C18_3 C21_3 1_555 1_555
C23_3 C24_3 1_555 1_555
C25_3 C26_3 1_555 1_555
H1_3 C1_3 1_555 1_555
Cl2_3 Cd2_8 1_555 1_555
C8_3 H6_3 1_555 1_555
H1_4 C1_4 1_555 1_555
C8_4 H6_4 1_555 1_555
C3_4 C2_4 1_555 1_555
C4_4 C3_4 1_555 1_555
H3_4 C4_4 1_555 1_555
C5_4 N5 1_555 1_555
H4_4 C5_4 1_555 1_555
C6_4 C3_4 1_555 1_555
C7_4 C6_4 1_555 1_555
H5_4 C7_4 1_555 1_555
Cd4_3 N4_4 1_555 1_555
N4_4 C10_4 1_555 1_555
C10_4 H8_4 1_555 1_555
C13_4 C10_4 1_555 1_555
H10_4 C12_4 1_555 1_555
H11_4 C13_4 1_555 1_555
C14_4 C11_4 1_555 1_555
C15_4 C12_4 1_555 1_555
C16_4 C13_4 1_555 1_555
C17_4 C14_4 1_555 1_555
C18_4 C15_4 1_555 1_555
C19_4 C16_4 1_555 1_555
H12_4 C17_4 1_555 1_555
H13_4 C18_4 1_555 1_555
H14_4 C19_4 1_555 1_555
C20_4 N6_3 1_555 1_555
C22_4 N4_4 1_555 1_555
H15_4 C20_4 1_555 1_555
H17_4 C22_4 1_555 1_555
C23_4 C7_4 1_555 1_555
C24_4 C15_4 1_555 1_555
C25_4 C6_4 1_555 1_555
C26_4 C24_4 1_555 1_555
H18_4 C26_4 1_555 1_555
C4_4 C5_4 1_555 1_555
C14_4 C23_4 1_555 1_555
C16_4 C25_4 1_555 1_555
C17_4 C20_4 1_555 1_555
C19_4 C22_4 1_555 1_555
C23_4 C24_4 1_555 1_555
C25_4 C26_4 1_555 1_555
Cd3_2 N3_4 1_555 1_555
N3_4 C9_4 1_555 1_555
C9_4 H7_4 1_555 1_555
C21_4 N3_4 1_555 1_555
H16_4 C21_4 1_555 1_555
Cd4_3 N3_5 1_555 1_555
N3_5 C9_5 1_555 1_555
C9_5 H7_5 1_555 1_555
C21_5 N3_5 1_555 1_555
H16_5 C21_5 1_555 1_555
H1_5 C1_5 1_555 1_555
C8_5 H6_5 1_555 1_555
C3_5 C2_5 1_555 1_555
C4_5 C3_5 1_555 1_555
H3_5 C4_5 1_555 1_555
C5_5 N5_3 1_555 1_555
H4_5 C5_5 1_555 1_555
C6_5 C3_5 1_555 1_555
C7_5 C6_5 1_555 1_555
H5_5 C7_5 1_555 1_555
H10_5 C12_5 1_555 1_555
H11_5 C13_5 1_555 1_555
C14_5 C11_5 1_555 1_555
C15_5 C12_5 1_555 1_555
C16_5 C13_5 1_555 1_555
C17_5 C14_5 1_555 1_555
C18_5 C15_5 1_555 1_555
C19_5 C16_5 1_555 1_555
H12_5 C17_5 1_555 1_555
H13_5 C18_5 1_555 1_555
H14_5 C19_5 1_555 1_555
C20_5 N6_2 1_555 1_555
H15_5 C20_5 1_555 1_555
C23_5 C7_5 1_555 1_555
C24_5 C15_5 1_555 1_555
C25_5 C6_5 1_555 1_555
C26_5 C24_5 1_555 1_555
H18_5 C26_5 1_555 1_555
C4_5 C5_5 1_555 1_555
C14_5 C23_5 1_555 1_555
C16_5 C25_5 1_555 1_555
C17_5 C20_5 1_555 1_555
C23_5 C24_5 1_555 1_555
C25_5 C26_5 1_555 1_555
Cd4_4 N4_5 1_555 1_555
N4_5 C10_5 1_555 1_555
C10_5 H8_5 1_555 1_555
C22_5 N4_5 1_555 1_555
H17_5 C22_5 1_555 1_555
Cd3_2 N4_6 1_555 1_555
N4_6 C10_6 1_555 1_555
C10_6 H8_6 1_555 1_555
C22_6 N4_6 1_555 1_555
H17_6 C22_6 1_555 1_555
H1_6 C1_6 1_555 1_555
C8_6 H6_6 1_555 1_555
C3_6 C2_6 1_555 1_555
C4_6 C3_6 1_555 1_555
H3_6 C4_6 1_555 1_555
C5_6 N5_2 1_555 1_555
H4_6 C5_6 1_555 1_555
C6_6 C3_6 1_555 1_555
C7_6 C6_6 1_555 1_555
H5_6 C7_6 1_555 1_555
Cd4_4 N3_6 1_555 1_555
N3_6 C9_6 1_555 1_555
C9_6 H7_6 1_555 1_555
C12_6 C9_6 1_555 1_555
H10_6 C12_6 1_555 1_555
H11_6 C13_6 1_555 1_555
C14_6 C11_6 1_555 1_555
C15_6 C12_6 1_555 1_555
C16_6 C13_6 1_555 1_555
C17_6 C14_6 1_555 1_555
C18_6 C15_6 1_555 1_555
C19_6 C16_6 1_555 1_555
H12_6 C17_6 1_555 1_555
H13_6 C18_6 1_555 1_555
H14_6 C19_6 1_555 1_555
C20_6 N6 1_555 1_555
C21_6 N3_6 1_555 1_555
H15_6 C20_6 1_555 1_555
H16_6 C21_6 1_555 1_555
C23_6 C7_6 1_555 1_555
C24_6 C15_6 1_555 1_555
C25_6 C6_6 1_555 1_555
C26_6 C24_6 1_555 1_555
H18_6 C26_6 1_555 1_555
C4_6 C5_6 1_555 1_555
C14_6 C23_6 1_555 1_555
C16_6 C25_6 1_555 1_555
C17_6 C20_6 1_555 1_555
C18_6 C21_6 1_555 1_555
C23_6 C24_6 1_555 1_555
C25_6 C26_6 1_555 1_555
Cd3 Cl1_4 1_555 1_555
N1_4 Cd3 1_555 1_555
C1_7 N1_4 1_555 1_555
H1_7 C1_7 1_555 1_555
C2_7 C1_7 1_555 1_555
H2_7 C2_7 1_555 1_555
C3_7 C2_7 1_555 1_555
C4_7 C3_7 1_555 1_555
H3_7 C4_7 1_555 1_555
C5_7 N1_4 1_555 1_555
H4_7 C5_7 1_555 1_555
C6_7 C3_7 1_555 1_555
C7_7 C6_7 1_555 1_555
H5_7 C7_7 1_555 1_555
Cd4 N2_3 1_555 1_555
Cl2_4 Cd3 1_555 1_555
N2_3 C8_7 1_555 1_555
N7_2 Cd3 1_555 1_555
C8_7 H6_7 1_555 1_555
C11_7 C8_7 1_555 1_555
H9_7 C11_7 1_555 1_555
C14_7 C11_7 1_555 1_555
C17_7 C14_7 1_555 1_555
H12_7 C17_7 1_555 1_555
C20_7 N2_3 1_555 1_555
H15_7 C20_7 1_555 1_555
C23_7 C7_7 1_555 1_555
C4_7 C5_7 1_555 1_555
C14_7 C23_7 1_555 1_555
C17_7 C20_7 1_555 1_555
Cd3_2 N3_7 1_555 1_555
Cd4_4 N4_7 1_555 1_555
N3_7 C9_7 1_555 1_555
N4_7 C10_7 1_555 1_555
C9_7 H7_7 1_555 1_555
C10_7 H8_7 1_555 1_555
C12_7 C9_7 1_555 1_555
C13_7 C10_7 1_555 1_555
H10_7 C12_7 1_555 1_555
H11_7 C13_7 1_555 1_555
C15_7 C12_7 1_555 1_555
C16_7 C13_7 1_555 1_555
C18_7 C15_7 1_555 1_555
C19_7 C16_7 1_555 1_555
H13_7 C18_7 1_555 1_555
H14_7 C19_7 1_555 1_555
C21_7 N3_7 1_555 1_555
C22_7 N4_7 1_555 1_555
H16_7 C21_7 1_555 1_555
H17_7 C22_7 1_555 1_555
C24_7 C15_7 1_555 1_555
C26_7 C24_7 1_555 1_555
H18_7 C26_7 1_555 1_555
C16_7 C25_7 1_555 1_555
C18_7 C21_7 1_555 1_555
C19_7 C22_7 1_555 1_555
C25_7 C26_7 1_555 1_555
Cd4 Cl1_5 1_555 1_555
N1_5 Cd4 1_555 1_555
C1_8 N1_5 1_555 1_555
H1_8 C1_8 1_555 1_555
C2_8 C1_8 1_555 1_555
H2_8 C2_8 1_555 1_555
C3_8 C2_8 1_555 1_555
C4_8 C3_8 1_555 1_555
H3_8 C4_8 1_555 1_555
C5_8 N1_5 1_555 1_555
H4_8 C5_8 1_555 1_555
C6_8 C3_8 1_555 1_555
C7_8 C6_8 1_555 1_555
H5_8 C7_8 1_555 1_555
Cd4_2 N2_4 1_555 1_555
Cd4_4 N3_8 1_555 1_555
Cd4_3 N4_8 1_555 1_555
Cl2_5 Cd4 1_555 1_555
N2_4 C8_8 1_555 1_555
N3_8 C9_8 1_555 1_555
N4_8 C10_8 1_555 1_555
C8_8 H6_8 1_555 1_555
C9_8 H7_8 1_555 1_555
C10_8 H8_8 1_555 1_555
C11_8 C8_8 1_555 1_555
C12_8 C9_8 1_555 1_555
C13_8 C10_8 1_555 1_555
H9_8 C11_8 1_555 1_555
H10_8 C12_8 1_555 1_555
H11_8 C13_8 1_555 1_555
C14_8 C11_8 1_555 1_555
C15_8 C12_8 1_555 1_555
C16_8 C13_8 1_555 1_555
C17_8 C14_8 1_555 1_555
C18_8 C15_8 1_555 1_555
C19_8 C16_8 1_555 1_555
H12_8 C17_8 1_555 1_555
H13_8 C18_8 1_555 1_555
H14_8 C19_8 1_555 1_555
C20_8 N2_4 1_555 1_555
C21_8 N3_8 1_555 1_555
C22_8 N4_8 1_555 1_555
H15_8 C20_8 1_555 1_555
H16_8 C21_8 1_555 1_555
H17_8 C22_8 1_555 1_555
C23_8 C7_8 1_555 1_555
C24_8 C15_8 1_555 1_555
C25_8 C6_8 1_555 1_555
C26_8 C24_8 1_555 1_555
H18_8 C26_8 1_555 1_555
C4_8 C5_8 1_555 1_555
C14_8 C23_8 1_555 1_555
C16_8 C25_8 1_555 1_555
C17_8 C20_8 1_555 1_555
C18_8 C21_8 1_555 1_555
C19_8 C22_8 1_555 1_555
C23_8 C24_8 1_555 1_555
C25_8 C26_8 1_555 1_555
Cd4_3 N3_9 1_555 1_555
Cd3_2 N4_9 1_555 1_555
N3_9 C9_9 1_555 1_555
N4_9 C10_9 1_555 1_555
C9_9 H7_9 1_555 1_555
C10_9 H8_9 1_555 1_555
C12_9 C9_9 1_555 1_555
C13_9 C10_9 1_555 1_555
H10_9 C12_9 1_555 1_555
H11_9 C13_9 1_555 1_555
C15_9 C12_9 1_555 1_555
C16_9 C13_9 1_555 1_555
C18_9 C15_9 1_555 1_555
C19_9 C16_9 1_555 1_555
H13_9 C18_9 1_555 1_555
H14_9 C19_9 1_555 1_555
C21_9 N3_9 1_555 1_555
C22_9 N4_9 1_555 1_555
H16_9 C21_9 1_555 1_555
H17_9 C22_9 1_555 1_555
C24_9 C15_9 1_555 1_555
C26_9 C24_9 1_555 1_555
H18_9 C26_9 1_555 1_555
C16_9 C25_9 1_555 1_555
C18_9 C21_9 1_555 1_555
C19_9 C22_9 1_555 1_555
C25_9 C26_9 1_555 1_555
Cd4_2 Cl1_6 1_555 1_555
N1_6 Cd4_2 1_555 1_555
C1_9 N1_6 1_555 1_555
H1_9 C1_9 1_555 1_555
C2_9 C1_9 1_555 1_555
H2_9 C2_9 1_555 1_555
C3_9 C2_9 1_555 1_555
C4_9 C3_9 1_555 1_555
H3_9 C4_9 1_555 1_555
C5_9 N1_6 1_555 1_555
H4_9 C5_9 1_555 1_555
C6_9 C3_9 1_555 1_555
C7_9 C6_9 1_555 1_555
H5_9 C7_9 1_555 1_555
Cl2_6 Cd4_2 1_555 1_555
N7_2 C8_9 1_555 1_555
C8_9 H6_9 1_555 1_555
C11_9 C8_9 1_555 1_555
H9_9 C11_9 1_555 1_555
C14_9 C11_9 1_555 1_555
C17_9 C14_9 1_555 1_555
H12_9 C17_9 1_555 1_555
C20_9 N7_2 1_555 1_555
H15_9 C20_9 1_555 1_555
C23_9 C7_9 1_555 1_555
C4_9 C5_9 1_555 1_555
C14_9 C23_9 1_555 1_555
C17_9 C20_9 1_555 1_555
Cd3_2 Cl1_7 1_555 1_555
Cl2_7 Cd3_2 1_555 1_555
Cd4_4 Cl1_8 1_555 1_555
Cl2_8 Cd4_4 1_555 1_555
Cd4_3 Cl1_9 1_555 1_555
Cl2_9 Cd4_3 1_555 1_555

#END
