
###############################################################################
#
# This file contains modified crystal structure data generated from the
# MOF subset of the Cambridge Structural Database (CSD) v543 
# hosted by the Cambridge Crystallographic Data Centre (CCDC).
#
# This work is licensed under the Creative Commons
# Attribution-NonCommercial-ShareAlike 4.0 International License.
# To view a copy of this license, visit
# http://creativecommons.org/licenses/by-nc-sa/4.0/
# or send a letter to
# Creative Commons, PO Box 1866, Mountain View, CA 94042, USA.
#
# CIF created using the CSD Python API on 29 September 2022
# The structure has been converted into the P1 space group
# The structure has a 3D framework
# The original CSD entry CUSDIE is in the cubic crystal system
# The framework has been calculated to contain at least 10.0% void space
# The void calculation uses a probe of radius 1.32A, grid spacing 0.4
# The framework is charged, counterions have been retained in the structure
# H atom positions have been added when not included in the experimental data
# Generated hydrogen atom positions removed from atoms on special positions
#
###############################################################################

data_CUSDIE
_chemical_formula_moiety         '(C96 H168 B24 Cu24 F48 N72 O80 8-)n'
_symmetry_cell_setting           triclinic
_symmetry_space_group_name_H-M   'P 1'
_symmetry_Int_Tables_number      1
_space_group_name_Hall           'P 1'
loop_
_symmetry_equiv_pos_site_id
_symmetry_equiv_pos_as_xyz
1 x,y,z
_cell_length_a                   21.037(6)
_cell_length_b                   21.037(6)
_cell_length_c                   21.037(6)
_cell_angle_alpha                90
_cell_angle_beta                 90
_cell_angle_gamma                90
_cell_volume                     9310.04
loop_
_atom_site_label
_atom_site_type_symbol
_atom_site_fract_x
_atom_site_fract_y
_atom_site_fract_z
Cu1 Cu 0.70123(6) 0.81447(6) 0.18553(6)
O1 O 0.7791(9) 0.7791(9) 0.2209(9)
N1 N 0.3778(3) 0.7997(3) 0.2463(3)
C1 C 0.4237(4) 0.8386(4) 0.2314(5)
H1 H 0.4349 0.8752 0.2554
N2 N 0.4521(4) 0.8209(3) 0.1791(3)
C2 C 0.5099(5) 0.8498(4) 0.1502(4)
H2 H 0.5093 0.8963 0.1575
C3 C 0.5704(5) 0.8224(4) 0.1776(4)
O2 O 0.5699(5) 0.7825(4) 0.2175(4)
O3 O 0.6211(4) 0.8470(3) 0.1530(3)
O4 O 0.7639(6) 0.8793(6) 0.1207(6)
Cu2 Cu 0.81447(6) 0.81447(6) 0.29877(6)
Cu3 Cu 0.81447(6) 0.70123(6) 0.18553(6)
Cu4 Cu 0.31447(6) 0.79877(6) 0.31447(6)
Cu5 Cu 0.31447(6) 0.68553(6) 0.20123(6)
Cu6 Cu 0.68553(6) 0.79877(6) 0.68553(6)
Cu7 Cu 0.79877(6) 0.68553(6) 0.68553(6)
Cu8 Cu 0.68553(6) 0.31447(6) 0.20123(6)
Cu9 Cu 0.79877(6) 0.31447(6) 0.31447(6)
N3 N 0.7463(3) 0.8778(3) 0.2997(3)
N4 N 0.7003(3) 0.7463(3) 0.1222(3)
N5 N 0.7463(3) 0.7003(3) 0.1222(3)
N6 N 0.7003(3) 0.8778(3) 0.2537(3)
N7 N 0.3778(3) 0.7537(3) 0.2003(3)
N8 N 0.8778(3) 0.7463(3) 0.2997(3)
N9 N 0.8778(3) 0.7003(3) 0.2537(3)
N10 N 0.7537(3) 0.7997(3) 0.6222(3)
N11 N 0.7997(3) 0.7537(3) 0.6222(3)
N12 N 0.7537(3) 0.3778(3) 0.2003(3)
N13 N 0.7997(3) 0.3778(3) 0.2463(3)
C4 C 0.4237(4) 0.7686(5) 0.1614(4)
C5 C 0.7686(5) 0.8386(4) 0.5763(4)
C6 C 0.8386(4) 0.7686(5) 0.5763(4)
C7 C 0.7686(5) 0.4237(4) 0.1614(4)
C8 C 0.8386(4) 0.4237(4) 0.2314(5)
H3 H 0.4349 0.7446 0.1248
H4 H 0.7446 0.8752 0.5651
H5 H 0.8752 0.7446 0.5651
H6 H 0.7446 0.4349 0.1248
H7 H 0.8752 0.4349 0.2554
N14 N 0.8209(3) 0.8209(3) 0.5479(4)
N15 N 0.8209(3) 0.4521(4) 0.1791(3)
C9 C 0.8498(4) 0.8498(4) 0.4901(5)
C10 C 0.8498(4) 0.5099(5) 0.1502(4)
H8 H 0.5093 0.8425 0.1037
H9 H 0.8425 0.8963 0.4907
H10 H 0.8963 0.8425 0.4907
H11 H 0.8425 0.5093 0.1037
H12 H 0.8963 0.5093 0.1575
C11 C 0.8224(4) 0.8224(4) 0.4296(5)
C12 C 0.8224(4) 0.5704(5) 0.1776(4)
O5 O 0.7825(4) 0.7825(4) 0.4301(5)
O6 O 0.7825(4) 0.5699(5) 0.2175(4)
O7 O 0.8470(3) 0.8470(3) 0.3789(4)
O8 O 0.8470(3) 0.6211(4) 0.1530(3)
O9 O 0.8793(6) 0.8793(6) 0.2361(6)
O10 O 0.8793(6) 0.7639(6) 0.1207(6)
Cu1_2 Cu 0.81447(6) 0.29877(6) 0.81447(6)
O1_2 O 0.7791(9) 0.2209(9) 0.7791(9)
N1_2 N 0.7997(3) 0.6222(3) 0.7537(3)
C1_2 C 0.8386(4) 0.5763(4) 0.7686(5)
H1_2 H 0.8752 0.5651 0.7446
N2_2 N 0.8209(3) 0.5479(4) 0.8209(3)
C2_2 C 0.8498(4) 0.4901(5) 0.8498(4)
H2_2 H 0.8963 0.4907 0.8425
C3_2 C 0.8224(4) 0.4296(5) 0.8224(4)
O2_2 O 0.7825(4) 0.4301(5) 0.7825(4)
O3_2 O 0.8470(3) 0.3789(4) 0.8470(3)
O4_2 O 0.8793(6) 0.2361(6) 0.8793(6)
Cu2_2 Cu 0.81447(6) 0.18553(6) 0.70123(6)
Cu3_2 Cu 0.70123(6) 0.18553(6) 0.81447(6)
Cu5_2 Cu 0.68553(6) 0.68553(6) 0.79877(6)
Cu7_2 Cu 0.68553(6) 0.20123(6) 0.31447(6)
Cu8_2 Cu 0.31447(6) 0.31447(6) 0.79877(6)
Cu9_2 Cu 0.31447(6) 0.20123(6) 0.68553(6)
N3_2 N 0.8778(3) 0.2537(3) 0.7003(3)
N4_2 N 0.7463(3) 0.2997(3) 0.8778(3)
N5_2 N 0.7003(3) 0.2537(3) 0.8778(3)
N6_2 N 0.8778(3) 0.2997(3) 0.7463(3)
N7_2 N 0.7537(3) 0.6222(3) 0.7997(3)
N8_2 N 0.7463(3) 0.1222(3) 0.7003(3)
N9_2 N 0.7003(3) 0.1222(3) 0.7463(3)
N10_2 N 0.7997(3) 0.2463(3) 0.3778(3)
N11_2 N 0.7537(3) 0.2003(3) 0.3778(3)
N12_2 N 0.3778(3) 0.2463(3) 0.7997(3)
N13_2 N 0.3778(3) 0.2003(3) 0.7537(3)
C4_2 C 0.7686(5) 0.5763(4) 0.8386(4)
C5_2 C 0.8386(4) 0.2314(5) 0.4237(4)
C6_2 C 0.7686(5) 0.1614(4) 0.4237(4)
C7_2 C 0.4237(4) 0.2314(5) 0.8386(4)
C8_2 C 0.4237(4) 0.1614(4) 0.7686(5)
H3_2 H 0.7446 0.5651 0.8752
H4_2 H 0.8752 0.2554 0.4349
H5_2 H 0.7446 0.1248 0.4349
H6_2 H 0.4349 0.2554 0.8752
H7_2 H 0.4349 0.1248 0.7446
N14_2 N 0.8209(3) 0.1791(3) 0.4521(4)
N15_2 N 0.4521(4) 0.1791(3) 0.8209(3)
C9_2 C 0.8498(4) 0.1502(4) 0.5099(5)
C10_2 C 0.5099(5) 0.1502(4) 0.8498(4)
H8_2 H 0.8425 0.4907 0.8963
H9_2 H 0.8963 0.1575 0.5093
H10_2 H 0.8425 0.1037 0.5093
H11_2 H 0.5093 0.1575 0.8963
H12_2 H 0.5093 0.1037 0.8425
C11_2 C 0.8224(4) 0.1776(4) 0.5704(5)
C12_2 C 0.5704(5) 0.1776(4) 0.8224(4)
O5_2 O 0.7825(4) 0.2175(4) 0.5699(5)
O6_2 O 0.5699(5) 0.2175(4) 0.7825(4)
O7_2 O 0.8470(3) 0.1530(3) 0.6211(4)
O8_2 O 0.6211(4) 0.1530(3) 0.8470(3)
O9_2 O 0.8793(6) 0.1207(6) 0.7639(6)
O10_2 O 0.7639(6) 0.1207(6) 0.8793(6)
Cu1_3 Cu 0.29877(6) 0.18553(6) 0.18553(6)
O1_3 O 0.2209(9) 0.2209(9) 0.2209(9)
N1_3 N 0.6222(3) 0.2003(3) 0.2463(3)
C1_3 C 0.5763(4) 0.1614(4) 0.2314(5)
H1_3 H 0.5651 0.1248 0.2554
N2_3 N 0.5479(4) 0.1791(3) 0.1791(3)
C2_3 C 0.4901(5) 0.1502(4) 0.1502(4)
H2_3 H 0.4907 0.1037 0.1575
C3_3 C 0.4296(5) 0.1776(4) 0.1776(4)
O2_3 O 0.4301(5) 0.2175(4) 0.2175(4)
O3_3 O 0.3789(4) 0.1530(3) 0.1530(3)
O4_3 O 0.2361(6) 0.1207(6) 0.1207(6)
Cu2_3 Cu 0.18553(6) 0.18553(6) 0.29877(6)
Cu3_3 Cu 0.18553(6) 0.29877(6) 0.18553(6)
Cu7_3 Cu 0.20123(6) 0.31447(6) 0.68553(6)
Cu9_3 Cu 0.20123(6) 0.68553(6) 0.31447(6)
N3_3 N 0.2537(3) 0.1222(3) 0.2997(3)
N4_3 N 0.2997(3) 0.2537(3) 0.1222(3)
N5_3 N 0.2537(3) 0.2997(3) 0.1222(3)
N6_3 N 0.2997(3) 0.1222(3) 0.2537(3)
N7_3 N 0.6222(3) 0.2463(3) 0.2003(3)
N8_3 N 0.1222(3) 0.2537(3) 0.2997(3)
N9_3 N 0.1222(3) 0.2997(3) 0.2537(3)
N10_3 N 0.2463(3) 0.2003(3) 0.6222(3)
N11_3 N 0.2003(3) 0.2463(3) 0.6222(3)
N12_3 N 0.2463(3) 0.6222(3) 0.2003(3)
N13_3 N 0.2003(3) 0.6222(3) 0.2463(3)
C4_3 C 0.5763(4) 0.2314(5) 0.1614(4)
C5_3 C 0.2314(5) 0.1614(4) 0.5763(4)
C6_3 C 0.1614(4) 0.2314(5) 0.5763(4)
C7_3 C 0.2314(5) 0.5763(4) 0.1614(4)
C8_3 C 0.1614(4) 0.5763(4) 0.2314(5)
H3_3 H 0.5651 0.2554 0.1248
H4_3 H 0.2554 0.1248 0.5651
H5_3 H 0.1248 0.2554 0.5651
H6_3 H 0.2554 0.5651 0.1248
H7_3 H 0.1248 0.5651 0.2554
N14_3 N 0.1791(3) 0.1791(3) 0.5479(4)
N15_3 N 0.1791(3) 0.5479(4) 0.1791(3)
C9_3 C 0.1502(4) 0.1502(4) 0.4901(5)
C10_3 C 0.1502(4) 0.4901(5) 0.1502(4)
H8_3 H 0.4907 0.1575 0.1037
H9_3 H 0.1575 0.1037 0.4907
H10_3 H 0.1037 0.1575 0.4907
H11_3 H 0.1575 0.4907 0.1037
H12_3 H 0.1037 0.4907 0.1575
C11_3 C 0.1776(4) 0.1776(4) 0.4296(5)
C12_3 C 0.1776(4) 0.4296(5) 0.1776(4)
O5_3 O 0.2175(4) 0.2175(4) 0.4301(5)
O6_3 O 0.2175(4) 0.4301(5) 0.2175(4)
O7_3 O 0.1530(3) 0.1530(3) 0.3789(4)
O8_3 O 0.1530(3) 0.3789(4) 0.1530(3)
O9_3 O 0.1207(6) 0.1207(6) 0.2361(6)
O10_3 O 0.1207(6) 0.2361(6) 0.1207(6)
Cu1_4 Cu 0.18553(6) 0.70123(6) 0.81447(6)
O1_4 O 0.2209(9) 0.7791(9) 0.7791(9)
N1_4 N 0.2003(3) 0.3778(3) 0.7537(3)
C1_4 C 0.1614(4) 0.4237(4) 0.7686(5)
H1_4 H 0.1248 0.4349 0.7446
N2_4 N 0.1791(3) 0.4521(4) 0.8209(3)
C2_4 C 0.1502(4) 0.5099(5) 0.8498(4)
H2_4 H 0.1037 0.5093 0.8425
C3_4 C 0.1776(4) 0.5704(5) 0.8224(4)
O2_4 O 0.2175(4) 0.5699(5) 0.7825(4)
O3_4 O 0.1530(3) 0.6211(4) 0.8470(3)
O4_4 O 0.1207(6) 0.7639(6) 0.8793(6)
Cu2_4 Cu 0.18553(6) 0.81447(6) 0.70123(6)
Cu3_4 Cu 0.29877(6) 0.81447(6) 0.81447(6)
N3_4 N 0.1222(3) 0.7463(3) 0.7003(3)
N4_4 N 0.2537(3) 0.7003(3) 0.8778(3)
N5_4 N 0.2997(3) 0.7463(3) 0.8778(3)
N6_4 N 0.1222(3) 0.7003(3) 0.7463(3)
N7_4 N 0.2463(3) 0.3778(3) 0.7997(3)
N8_4 N 0.2537(3) 0.8778(3) 0.7003(3)
N9_4 N 0.2997(3) 0.8778(3) 0.7463(3)
N10_4 N 0.2003(3) 0.7537(3) 0.3778(3)
N11_4 N 0.2463(3) 0.7997(3) 0.3778(3)
N12_4 N 0.6222(3) 0.7537(3) 0.7997(3)
N13_4 N 0.6222(3) 0.7997(3) 0.7537(3)
C4_4 C 0.2314(5) 0.4237(4) 0.8386(4)
C5_4 C 0.1614(4) 0.7686(5) 0.4237(4)
C6_4 C 0.2314(5) 0.8386(4) 0.4237(4)
C7_4 C 0.5763(4) 0.7686(5) 0.8386(4)
C8_4 C 0.5763(4) 0.8386(4) 0.7686(5)
H3_4 H 0.2554 0.4349 0.8752
H4_4 H 0.1248 0.7446 0.4349
H5_4 H 0.2554 0.8752 0.4349
H6_4 H 0.5651 0.7446 0.8752
H7_4 H 0.5651 0.8752 0.7446
N14_4 N 0.1791(3) 0.8209(3) 0.4521(4)
N15_4 N 0.5479(4) 0.8209(3) 0.8209(3)
C9_4 C 0.1502(4) 0.8498(4) 0.5099(5)
C10_4 C 0.4901(5) 0.8498(4) 0.8498(4)
H8_4 H 0.1575 0.5093 0.8963
H9_4 H 0.1037 0.8425 0.5093
H10_4 H 0.1575 0.8963 0.5093
H11_4 H 0.4907 0.8425 0.8963
H12_4 H 0.4907 0.8963 0.8425
C11_4 C 0.1776(4) 0.8224(4) 0.5704(5)
C12_4 C 0.4296(5) 0.8224(4) 0.8224(4)
O5_4 O 0.2175(4) 0.7825(4) 0.5699(5)
O6_4 O 0.4301(5) 0.7825(4) 0.7825(4)
O7_4 O 0.1530(3) 0.8470(3) 0.6211(4)
O8_4 O 0.3789(4) 0.8470(3) 0.8470(3)
O9_4 O 0.1207(6) 0.8793(6) 0.7639(6)
O10_4 O 0.2361(6) 0.8793(6) 0.8793(6)
C5_5 C 0.2686(5) 0.3386(4) 0.0763(4)
C6_5 C 0.3386(4) 0.2686(5) 0.0763(4)
H4_5 H 0.2446 0.3752 0.0651
H5_5 H 0.3752 0.2446 0.0651
N14_5 N 0.3209(3) 0.3209(3) 0.0479(4)
O1_5 O 0.2791(9) 0.2791(9) 0.7209(9)
C2_5 C 0.0099(5) 0.3498(4) 0.6502(4)
H2_5 H 0.0093 0.3963 0.6575
C3_5 C 0.0704(5) 0.3224(4) 0.6776(4)
O2_5 O 0.0699(5) 0.2825(4) 0.7175(4)
O3_5 O 0.1211(4) 0.3470(3) 0.6530(3)
O4_5 O 0.2639(6) 0.3793(6) 0.6207(6)
C9_5 C 0.3498(4) 0.3498(4) 0.9901(5)
C10_5 C 0.3498(4) 0.0099(5) 0.6502(4)
H8_5 H 0.0093 0.3425 0.6037
H9_5 H 0.3425 0.3963 0.9907
H10_5 H 0.3963 0.3425 0.9907
H11_5 H 0.3425 0.0093 0.6037
H12_5 H 0.3963 0.0093 0.6575
C11_5 C 0.3224(4) 0.3224(4) 0.9296(5)
C12_5 C 0.3224(4) 0.0704(5) 0.6776(4)
O5_5 O 0.2825(4) 0.2825(4) 0.9301(5)
O6_5 O 0.2825(4) 0.0699(5) 0.7175(4)
O7_5 O 0.3470(3) 0.3470(3) 0.8789(4)
O8_5 O 0.3470(3) 0.1211(4) 0.6530(3)
O9_5 O 0.3793(6) 0.3793(6) 0.7361(6)
O10_5 O 0.3793(6) 0.2639(6) 0.6207(6)
C7_5 C 0.2686(5) 0.9237(4) 0.6614(4)
C8_5 C 0.3386(4) 0.9237(4) 0.7314(5)
H6_5 H 0.2446 0.9349 0.6248
H7_5 H 0.3752 0.9349 0.7554
N15_5 N 0.3209(3) 0.9521(4) 0.6791(3)
C1_5 C 0.9237(4) 0.3386(4) 0.7314(5)
H1_5 H 0.9349 0.3752 0.7554
N2_5 N 0.9521(4) 0.3209(3) 0.6791(3)
C4_5 C 0.9237(4) 0.2686(5) 0.6614(4)
H3_5 H 0.9349 0.2446 0.6248
C1_6 C 0.3386(4) 0.0763(4) 0.2686(5)
H1_6 H 0.3752 0.0651 0.2446
N2_6 N 0.3209(3) 0.0479(4) 0.3209(3)
C4_6 C 0.2686(5) 0.0763(4) 0.3386(4)
H3_6 H 0.2446 0.0651 0.3752
O1_6 O 0.2791(9) 0.7209(9) 0.2791(9)
C2_6 C 0.3498(4) 0.9901(5) 0.3498(4)
H2_6 H 0.3963 0.9907 0.3425
C3_6 C 0.3224(4) 0.9296(5) 0.3224(4)
O2_6 O 0.2825(4) 0.9301(5) 0.2825(4)
O3_6 O 0.3470(3) 0.8789(4) 0.3470(3)
O4_6 O 0.3793(6) 0.7361(6) 0.3793(6)
C9_6 C 0.3498(4) 0.6502(4) 0.0099(5)
C10_6 C 0.0099(5) 0.6502(4) 0.3498(4)
H8_6 H 0.3425 0.9907 0.3963
H9_6 H 0.3963 0.6575 0.0093
H10_6 H 0.3425 0.6037 0.0093
H11_6 H 0.0093 0.6575 0.3963
H12_6 H 0.0093 0.6037 0.3425
C11_6 C 0.3224(4) 0.6776(4) 0.0704(5)
C12_6 C 0.0704(5) 0.6776(4) 0.3224(4)
O5_6 O 0.2825(4) 0.7175(4) 0.0699(5)
O6_6 O 0.0699(5) 0.7175(4) 0.2825(4)
O7_6 O 0.3470(3) 0.6530(3) 0.1211(4)
O8_6 O 0.1211(4) 0.6530(3) 0.3470(3)
O9_6 O 0.3793(6) 0.6207(6) 0.2639(6)
O10_6 O 0.2639(6) 0.6207(6) 0.3793(6)
C5_6 C 0.3386(4) 0.7314(5) 0.9237(4)
C6_6 C 0.2686(5) 0.6614(4) 0.9237(4)
H4_6 H 0.3752 0.7554 0.9349
H5_6 H 0.2446 0.6248 0.9349
N14_6 N 0.3209(3) 0.6791(3) 0.9521(4)
C7_6 C 0.9237(4) 0.7314(5) 0.3386(4)
C8_6 C 0.9237(4) 0.6614(4) 0.2686(5)
H6_6 H 0.9349 0.7554 0.3752
H7_6 H 0.9349 0.6248 0.2446
N15_6 N 0.9521(4) 0.6791(3) 0.3209(3)
C1_7 C 0.0763(4) 0.6614(4) 0.7314(5)
H1_7 H 0.0651 0.6248 0.7554
N2_7 N 0.0479(4) 0.6791(3) 0.6791(3)
C4_7 C 0.0763(4) 0.7314(5) 0.6614(4)
H3_7 H 0.0651 0.7554 0.6248
C7_7 C 0.7314(5) 0.0763(4) 0.6614(4)
C8_7 C 0.6614(4) 0.0763(4) 0.7314(5)
H6_7 H 0.7554 0.0651 0.6248
H7_7 H 0.6248 0.0651 0.7554
N15_7 N 0.6791(3) 0.0479(4) 0.6791(3)
C5_7 C 0.7314(5) 0.6614(4) 0.0763(4)
C6_7 C 0.6614(4) 0.7314(5) 0.0763(4)
H4_7 H 0.7554 0.6248 0.0651
H5_7 H 0.6248 0.7554 0.0651
N14_7 N 0.6791(3) 0.6791(3) 0.0479(4)
O1_7 O 0.7209(9) 0.7209(9) 0.7209(9)
C2_7 C 0.9901(5) 0.6502(4) 0.6502(4)
H2_7 H 0.9907 0.6037 0.6575
C3_7 C 0.9296(5) 0.6776(4) 0.6776(4)
O2_7 O 0.9301(5) 0.7175(4) 0.7175(4)
O3_7 O 0.8789(4) 0.6530(3) 0.6530(3)
O4_7 O 0.7361(6) 0.6207(6) 0.6207(6)
C9_7 C 0.6502(4) 0.6502(4) 0.9901(5)
C10_7 C 0.6502(4) 0.9901(5) 0.6502(4)
H8_7 H 0.9907 0.6575 0.6037
H9_7 H 0.6575 0.6037 0.9907
H10_7 H 0.6037 0.6575 0.9907
H11_7 H 0.6575 0.9907 0.6037
H12_7 H 0.6037 0.9907 0.6575
C11_7 C 0.6776(4) 0.6776(4) 0.9296(5)
C12_7 C 0.6776(4) 0.9296(5) 0.6776(4)
O5_7 O 0.7175(4) 0.7175(4) 0.9301(5)
O6_7 O 0.7175(4) 0.9301(5) 0.7175(4)
O7_7 O 0.6530(3) 0.6530(3) 0.8789(4)
O8_7 O 0.6530(3) 0.8789(4) 0.6530(3)
O9_7 O 0.6207(6) 0.6207(6) 0.7361(6)
O10_7 O 0.6207(6) 0.7361(6) 0.6207(6)
C7_8 C 0.0763(4) 0.2686(5) 0.3386(4)
C8_8 C 0.0763(4) 0.3386(4) 0.2686(5)
H6_8 H 0.0651 0.2446 0.3752
H7_8 H 0.0651 0.3752 0.2446
N15_8 N 0.0479(4) 0.3209(3) 0.3209(3)
O1_8 O 0.7209(9) 0.2791(9) 0.2791(9)
C2_8 C 0.6502(4) 0.0099(5) 0.3498(4)
H2_8 H 0.6037 0.0093 0.3425
C3_8 C 0.6776(4) 0.0704(5) 0.3224(4)
O2_8 O 0.7175(4) 0.0699(5) 0.2825(4)
O3_8 O 0.6530(3) 0.1211(4) 0.3470(3)
O4_8 O 0.6207(6) 0.2639(6) 0.3793(6)
C9_8 C 0.6502(4) 0.3498(4) 0.0099(5)
C10_8 C 0.9901(5) 0.3498(4) 0.3498(4)
H8_8 H 0.6575 0.0093 0.3963
H9_8 H 0.6037 0.3425 0.0093
H10_8 H 0.6575 0.3963 0.0093
H11_8 H 0.9907 0.3425 0.3963
H12_8 H 0.9907 0.3963 0.3425
C11_8 C 0.6776(4) 0.3224(4) 0.0704(5)
C12_8 C 0.9296(5) 0.3224(4) 0.3224(4)
O5_8 O 0.7175(4) 0.2825(4) 0.0699(5)
O6_8 O 0.9301(5) 0.2825(4) 0.2825(4)
O7_8 O 0.6530(3) 0.3470(3) 0.1211(4)
O8_8 O 0.8789(4) 0.3470(3) 0.3470(3)
O9_8 O 0.6207(6) 0.3793(6) 0.2639(6)
O10_8 O 0.7361(6) 0.3793(6) 0.3793(6)
C5_8 C 0.6614(4) 0.2686(5) 0.9237(4)
C6_8 C 0.7314(5) 0.3386(4) 0.9237(4)
H4_8 H 0.6248 0.2446 0.9349
H5_8 H 0.7554 0.3752 0.9349
N14_8 N 0.6791(3) 0.3209(3) 0.9521(4)
C1_8 C 0.6614(4) 0.9237(4) 0.2686(5)
H1_8 H 0.6248 0.9349 0.2446
N2_8 N 0.6791(3) 0.9521(4) 0.3209(3)
C4_8 C 0.7314(5) 0.9237(4) 0.3386(4)
H3_8 H 0.7554 0.9349 0.3752
B1 B 0.5000 0.0000 0.2500
F2 F 0.4897(3) 0.0498(4) 0.2855(4)
F4 F 0.5498(4) 0.0103(3) 0.2145(4)
B1_2 B 0.5000 1.0000 0.2500
F1 F 0.5103(3) 0.9502(4) 0.2855(4)
F3 F 0.4502(4) 0.9897(3) 0.2145(4)
B1_3 B 0.0000 0.5000 0.7500
F2_2 F 0.0498(4) 0.5103(3) 0.7145(4)
F4_2 F 0.0103(3) 0.4502(4) 0.7855(4)
B1_4 B 1.0000 0.5000 0.7500
F1_2 F 0.9502(4) 0.4897(3) 0.7145(4)
F3_2 F 0.9897(3) 0.5498(4) 0.7855(4)
B1_5 B 0.5000 0.0000 0.7500
F1_3 F 0.5103(3) 0.0498(4) 0.7145(4)
F3_3 F 0.4502(4) 0.0103(3) 0.7855(4)
B1_6 B 0.5000 1.0000 0.7500
F2_3 F 0.4897(3) 0.9502(4) 0.7145(4)
F4_3 F 0.5498(4) 0.9897(3) 0.7855(4)
B1_7 B 0.0000 0.5000 0.2500
F1_4 F 0.0498(4) 0.4897(3) 0.2855(4)
F3_4 F 0.0103(3) 0.5498(4) 0.2145(4)
B1_8 B 1.0000 0.5000 0.2500
F2_4 F 0.9502(4) 0.5103(3) 0.2855(4)
F4_4 F 0.9897(3) 0.4502(4) 0.2145(4)
B1_9 B 0.2500 0.5000 0.0000
F2_5 F 0.2855(4) 0.4897(3) 0.0498(4)
F4_5 F 0.2145(4) 0.5498(4) 0.0103(3)
B1_10 B 0.2500 0.5000 1.0000
F1_5 F 0.2855(4) 0.5103(3) 0.9502(4)
F3_5 F 0.2145(4) 0.4502(4) 0.9897(3)
B1_11 B 0.5000 0.7500 0.0000
F1_6 F 0.5103(3) 0.7145(4) 0.0498(4)
F3_6 F 0.4502(4) 0.7855(4) 0.0103(3)
B1_12 B 0.5000 0.7500 1.0000
F2_6 F 0.4897(3) 0.7145(4) 0.9502(4)
F4_6 F 0.5498(4) 0.7855(4) 0.9897(3)
B1_13 B 0.7500 0.5000 0.0000
F2_7 F 0.7145(4) 0.5103(3) 0.0498(4)
F4_7 F 0.7855(4) 0.4502(4) 0.0103(3)
B1_14 B 0.7500 0.5000 1.0000
F1_7 F 0.7145(4) 0.4897(3) 0.9502(4)
F3_7 F 0.7855(4) 0.5498(4) 0.9897(3)
B1_15 B 0.5000 0.2500 0.0000
F1_8 F 0.4897(3) 0.2855(4) 0.0498(4)
F3_8 F 0.5498(4) 0.2145(4) 0.0103(3)
B1_16 B 0.5000 0.2500 1.0000
F2_8 F 0.5103(3) 0.2855(4) 0.9502(4)
F4_8 F 0.4502(4) 0.2145(4) 0.9897(3)
B1_17 B 0.0000 0.2500 0.5000
F2_9 F 0.0498(4) 0.2855(4) 0.4897(3)
F4_9 F 0.0103(3) 0.2145(4) 0.5498(4)
B1_18 B 1.0000 0.2500 0.5000
F1_9 F 0.9502(4) 0.2855(4) 0.5103(3)
F3_9 F 0.9897(3) 0.2145(4) 0.4502(4)
B1_19 B 0.2500 0.0000 0.5000
F2_10 F 0.2855(4) 0.0498(4) 0.4897(3)
F4_10 F 0.2145(4) 0.0103(3) 0.5498(4)
B1_20 B 0.2500 1.0000 0.5000
F1_10 F 0.2855(4) 0.9502(4) 0.5103(3)
F3_10 F 0.2145(4) 0.9897(3) 0.4502(4)
B1_21 B 0.7500 0.0000 0.5000
F1_11 F 0.7145(4) 0.0498(4) 0.5103(3)
F3_11 F 0.7855(4) 0.0103(3) 0.4502(4)
B1_22 B 0.7500 1.0000 0.5000
F2_11 F 0.7145(4) 0.9502(4) 0.4897(3)
F4_11 F 0.7855(4) 0.9897(3) 0.5498(4)
B1_23 B 0.0000 0.7500 0.5000
F2_12 F 0.0498(4) 0.7145(4) 0.5103(3)
F4_12 F 0.0103(3) 0.7855(4) 0.4502(4)
B1_24 B 1.0000 0.7500 0.5000
F1_12 F 0.9502(4) 0.7145(4) 0.4897(3)
F3_12 F 0.9897(3) 0.7855(4) 0.5498(4)
loop_
_geom_bond_atom_site_label_1
_geom_bond_atom_site_label_2
_geom_bond_site_symmetry_1
_geom_bond_site_symmetry_2
Cu1 O1 1_555 1_555
O1 Cu2 1_555 1_555
N1 C1 1_555 1_555
C1 H1 1_555 1_555
N2 C1 1_555 1_555
C2 N2 1_555 1_555
H2 C2 1_555 1_555
C3 C2 1_555 1_555
O2 C3 1_555 1_555
O3 Cu1 1_555 1_555
O4 Cu1 1_555 1_555
Cu2 N3 1_555 1_555
Cu3 O1 1_555 1_555
Cu4 N1 1_555 1_555
Cu5 N7 1_555 1_555
Cu6 N10 1_555 1_555
Cu7 N11 1_555 1_555
Cu8 N12 1_555 1_555
Cu9 N13 1_555 1_555
N3 N6 1_555 1_555
N4 Cu1 1_555 1_555
N5 Cu3 1_555 1_555
N6 Cu1 1_555 1_555
N7 N1 1_555 1_555
N8 Cu2 1_555 1_555
N9 Cu3 1_555 1_555
N10 N11 1_555 1_555
N11 C6 1_555 1_555
N12 N13 1_555 1_555
N13 C8 1_555 1_555
C4 N2 1_555 1_555
C5 N10 1_555 1_555
C6 H5 1_555 1_555
C7 N12 1_555 1_555
C8 H7 1_555 1_555
H3 C4 1_555 1_555
H4 C5 1_555 1_555
H6 C7 1_555 1_555
N14 C5 1_555 1_555
N15 C7 1_555 1_555
C9 N14 1_555 1_555
C10 N15 1_555 1_555
H8 C2 1_555 1_555
H9 C9 1_555 1_555
H10 C9 1_555 1_555
H11 C10 1_555 1_555
H12 C10 1_555 1_555
C11 C9 1_555 1_555
C12 C10 1_555 1_555
O5 C11 1_555 1_555
O6 C12 1_555 1_555
O7 Cu2 1_555 1_555
O8 Cu3 1_555 1_555
O9 Cu2 1_555 1_555
O10 Cu3 1_555 1_555
C3 O3 1_555 1_555
N4 N5 1_555 1_555
N7 C4 1_555 1_555
N8 N9 1_555 1_555
C6 N14 1_555 1_555
C8 N15 1_555 1_555
C11 O7 1_555 1_555
C12 O8 1_555 1_555
Cu1_2 O1_2 1_555 1_555
O1_2 Cu2_2 1_555 1_555
N1_2 C1_2 1_555 1_555
C1_2 H1_2 1_555 1_555
N2_2 C1_2 1_555 1_555
C2_2 N2_2 1_555 1_555
H2_2 C2_2 1_555 1_555
C3_2 C2_2 1_555 1_555
O2_2 C3_2 1_555 1_555
O3_2 Cu1_2 1_555 1_555
O4_2 Cu1_2 1_555 1_555
Cu2_2 N3_2 1_555 1_555
Cu3_2 O1_2 1_555 1_555
Cu7 N1_2 1_555 1_555
Cu5_2 N7_2 1_555 1_555
Cu9 N10_2 1_555 1_555
Cu7_2 N11_2 1_555 1_555
Cu8_2 N12_2 1_555 1_555
Cu9_2 N13_2 1_555 1_555
N3_2 N6_2 1_555 1_555
N4_2 Cu1_2 1_555 1_555
N5_2 Cu3_2 1_555 1_555
N6_2 Cu1_2 1_555 1_555
N7_2 N1_2 1_555 1_555
N8_2 Cu2_2 1_555 1_555
N9_2 Cu3_2 1_555 1_555
N10_2 N11_2 1_555 1_555
N11_2 C6_2 1_555 1_555
N12_2 N13_2 1_555 1_555
N13_2 C8_2 1_555 1_555
C4_2 N2_2 1_555 1_555
C5_2 N10_2 1_555 1_555
C6_2 H5_2 1_555 1_555
C7_2 N12_2 1_555 1_555
C8_2 H7_2 1_555 1_555
H3_2 C4_2 1_555 1_555
H4_2 C5_2 1_555 1_555
H6_2 C7_2 1_555 1_555
N14_2 C5_2 1_555 1_555
N15_2 C7_2 1_555 1_555
C9_2 N14_2 1_555 1_555
C10_2 N15_2 1_555 1_555
H8_2 C2_2 1_555 1_555
H9_2 C9_2 1_555 1_555
H10_2 C9_2 1_555 1_555
H11_2 C10_2 1_555 1_555
H12_2 C10_2 1_555 1_555
C11_2 C9_2 1_555 1_555
C12_2 C10_2 1_555 1_555
O5_2 C11_2 1_555 1_555
O6_2 C12_2 1_555 1_555
O7_2 Cu2_2 1_555 1_555
O8_2 Cu3_2 1_555 1_555
O9_2 Cu2_2 1_555 1_555
O10_2 Cu3_2 1_555 1_555
C3_2 O3_2 1_555 1_555
N4_2 N5_2 1_555 1_555
N7_2 C4_2 1_555 1_555
N8_2 N9_2 1_555 1_555
C6_2 N14_2 1_555 1_555
C8_2 N15_2 1_555 1_555
C11_2 O7_2 1_555 1_555
C12_2 O8_2 1_555 1_555
Cu1_3 O1_3 1_555 1_555
O1_3 Cu2_3 1_555 1_555
N1_3 C1_3 1_555 1_555
C1_3 H1_3 1_555 1_555
N2_3 C1_3 1_555 1_555
C2_3 N2_3 1_555 1_555
H2_3 C2_3 1_555 1_555
C3_3 C2_3 1_555 1_555
O2_3 C3_3 1_555 1_555
O3_3 Cu1_3 1_555 1_555
O4_3 Cu1_3 1_555 1_555
Cu2_3 N3_3 1_555 1_555
Cu3_3 O1_3 1_555 1_555
Cu7_2 N1_3 1_555 1_555
Cu8 N7_3 1_555 1_555
Cu9_2 N10_3 1_555 1_555
Cu7_3 N11_3 1_555 1_555
Cu5 N12_3 1_555 1_555
Cu9_3 N13_3 1_555 1_555
N3_3 N6_3 1_555 1_555
N4_3 Cu1_3 1_555 1_555
N5_3 Cu3_3 1_555 1_555
N6_3 Cu1_3 1_555 1_555
N7_3 N1_3 1_555 1_555
N8_3 Cu2_3 1_555 1_555
N9_3 Cu3_3 1_555 1_555
N10_3 N11_3 1_555 1_555
N11_3 C6_3 1_555 1_555
N12_3 N13_3 1_555 1_555
N13_3 C8_3 1_555 1_555
C4_3 N2_3 1_555 1_555
C5_3 N10_3 1_555 1_555
C6_3 H5_3 1_555 1_555
C7_3 N12_3 1_555 1_555
C8_3 H7_3 1_555 1_555
H3_3 C4_3 1_555 1_555
H4_3 C5_3 1_555 1_555
H6_3 C7_3 1_555 1_555
N14_3 C5_3 1_555 1_555
N15_3 C7_3 1_555 1_555
C9_3 N14_3 1_555 1_555
C10_3 N15_3 1_555 1_555
H8_3 C2_3 1_555 1_555
H9_3 C9_3 1_555 1_555
H10_3 C9_3 1_555 1_555
H11_3 C10_3 1_555 1_555
H12_3 C10_3 1_555 1_555
C11_3 C9_3 1_555 1_555
C12_3 C10_3 1_555 1_555
O5_3 C11_3 1_555 1_555
O6_3 C12_3 1_555 1_555
O7_3 Cu2_3 1_555 1_555
O8_3 Cu3_3 1_555 1_555
O9_3 Cu2_3 1_555 1_555
O10_3 Cu3_3 1_555 1_555
C3_3 O3_3 1_555 1_555
N4_3 N5_3 1_555 1_555
N7_3 C4_3 1_555 1_555
N8_3 N9_3 1_555 1_555
C6_3 N14_3 1_555 1_555
C8_3 N15_3 1_555 1_555
C11_3 O7_3 1_555 1_555
C12_3 O8_3 1_555 1_555
Cu1_4 O1_4 1_555 1_555
O1_4 Cu2_4 1_555 1_555
N1_4 C1_4 1_555 1_555
C1_4 H1_4 1_555 1_555
N2_4 C1_4 1_555 1_555
C2_4 N2_4 1_555 1_555
H2_4 C2_4 1_555 1_555
C3_4 C2_4 1_555 1_555
O2_4 C3_4 1_555 1_555
O3_4 Cu1_4 1_555 1_555
O4_4 Cu1_4 1_555 1_555
Cu2_4 N3_4 1_555 1_555
Cu3_4 O1_4 1_555 1_555
Cu7_3 N1_4 1_555 1_555
Cu8_2 N7_4 1_555 1_555
Cu9_3 N10_4 1_555 1_555
Cu4 N11_4 1_555 1_555
Cu5_2 N12_4 1_555 1_555
Cu6 N13_4 1_555 1_555
N3_4 N6_4 1_555 1_555
N4_4 Cu1_4 1_555 1_555
N5_4 Cu3_4 1_555 1_555
N6_4 Cu1_4 1_555 1_555
N7_4 N1_4 1_555 1_555
N8_4 Cu2_4 1_555 1_555
N9_4 Cu3_4 1_555 1_555
N10_4 N11_4 1_555 1_555
N11_4 C6_4 1_555 1_555
N12_4 N13_4 1_555 1_555
N13_4 C8_4 1_555 1_555
C4_4 N2_4 1_555 1_555
C5_4 N10_4 1_555 1_555
C6_4 H5_4 1_555 1_555
C7_4 N12_4 1_555 1_555
C8_4 H7_4 1_555 1_555
H3_4 C4_4 1_555 1_555
H4_4 C5_4 1_555 1_555
H6_4 C7_4 1_555 1_555
N14_4 C5_4 1_555 1_555
N15_4 C7_4 1_555 1_555
C9_4 N14_4 1_555 1_555
C10_4 N15_4 1_555 1_555
H8_4 C2_4 1_555 1_555
H9_4 C9_4 1_555 1_555
H10_4 C9_4 1_555 1_555
H11_4 C10_4 1_555 1_555
H12_4 C10_4 1_555 1_555
C11_4 C9_4 1_555 1_555
C12_4 C10_4 1_555 1_555
O5_4 C11_4 1_555 1_555
O6_4 C12_4 1_555 1_555
O7_4 Cu2_4 1_555 1_555
O8_4 Cu3_4 1_555 1_555
O9_4 Cu2_4 1_555 1_555
O10_4 Cu3_4 1_555 1_555
C3_4 O3_4 1_555 1_555
N4_4 N5_4 1_555 1_555
N7_4 C4_4 1_555 1_555
N8_4 N9_4 1_555 1_555
C6_4 N14_4 1_555 1_555
C8_4 N15_4 1_555 1_555
C11_4 O7_4 1_555 1_555
C12_4 O8_4 1_555 1_555
N4_3 C6_5 1_555 1_555
C5_5 N5_3 1_555 1_555
C6_5 H5_5 1_555 1_555
H4_5 C5_5 1_555 1_555
N14_5 C5_5 1_555 1_555
C6_5 N14_5 1_555 1_555
Cu7_3 O1_5 1_555 1_555
O1_5 Cu8_2 1_555 1_555
H2_5 C2_5 1_555 1_555
C3_5 C2_5 1_555 1_555
O2_5 C3_5 1_555 1_555
O3_5 Cu7_3 1_555 1_555
O4_5 Cu7_3 1_555 1_555
Cu9_2 O1_5 1_555 1_555
H8_5 C2_5 1_555 1_555
H9_5 C9_5 1_555 1_555
H10_5 C9_5 1_555 1_555
H11_5 C10_5 1_555 1_555
H12_5 C10_5 1_555 1_555
C11_5 C9_5 1_555 1_555
C12_5 C10_5 1_555 1_555
O5_5 C11_5 1_555 1_555
O6_5 C12_5 1_555 1_555
O7_5 Cu8_2 1_555 1_555
O8_5 Cu9_2 1_555 1_555
O9_5 Cu8_2 1_555 1_555
O10_5 Cu9_2 1_555 1_555
C3_5 O3_5 1_555 1_555
C11_5 O7_5 1_555 1_555
C12_5 O8_5 1_555 1_555
N9_4 C8_5 1_555 1_555
C7_5 N8_4 1_555 1_555
C8_5 H7_5 1_555 1_555
H6_5 C7_5 1_555 1_555
N15_5 C7_5 1_555 1_555
C8_5 N15_5 1_555 1_555
N6_2 C1_5 1_555 1_555
C1_5 H1_5 1_555 1_555
N2_5 C1_5 1_555 1_555
C4_5 N2_5 1_555 1_555
H3_5 C4_5 1_555 1_555
N3_2 C4_5 1_555 1_555
N6_3 C1_6 1_555 1_555
C1_6 H1_6 1_555 1_555
N2_6 C1_6 1_555 1_555
C4_6 N2_6 1_555 1_555
H3_6 C4_6 1_555 1_555
N3_3 C4_6 1_555 1_555
Cu4 O1_6 1_555 1_555
O1_6 Cu5 1_555 1_555
H2_6 C2_6 1_555 1_555
C3_6 C2_6 1_555 1_555
O2_6 C3_6 1_555 1_555
O3_6 Cu4 1_555 1_555
O4_6 Cu4 1_555 1_555
Cu9_3 O1_6 1_555 1_555
H8_6 C2_6 1_555 1_555
H9_6 C9_6 1_555 1_555
H10_6 C9_6 1_555 1_555
H11_6 C10_6 1_555 1_555
H12_6 C10_6 1_555 1_555
C11_6 C9_6 1_555 1_555
C12_6 C10_6 1_555 1_555
O5_6 C11_6 1_555 1_555
O6_6 C12_6 1_555 1_555
O7_6 Cu5 1_555 1_555
O8_6 Cu9_3 1_555 1_555
O9_6 Cu5 1_555 1_555
O10_6 Cu9_3 1_555 1_555
C3_6 O3_6 1_555 1_555
C11_6 O7_6 1_555 1_555
C12_6 O8_6 1_555 1_555
N4_4 C6_6 1_555 1_555
C5_6 N5_4 1_555 1_555
C6_6 H5_6 1_555 1_555
H4_6 C5_6 1_555 1_555
N14_6 C5_6 1_555 1_555
C6_6 N14_6 1_555 1_555
N9 C8_6 1_555 1_555
C7_6 N8 1_555 1_555
C8_6 H7_6 1_555 1_555
H6_6 C7_6 1_555 1_555
N15_6 C7_6 1_555 1_555
C8_6 N15_6 1_555 1_555
N6_4 C1_7 1_555 1_555
C1_7 H1_7 1_555 1_555
N2_7 C1_7 1_555 1_555
C4_7 N2_7 1_555 1_555
H3_7 C4_7 1_555 1_555
N3_4 C4_7 1_555 1_555
N9_2 C8_7 1_555 1_555
C7_7 N8_2 1_555 1_555
C8_7 H7_7 1_555 1_555
H6_7 C7_7 1_555 1_555
N15_7 C7_7 1_555 1_555
C8_7 N15_7 1_555 1_555
N4 C6_7 1_555 1_555
C5_7 N5 1_555 1_555
C6_7 H5_7 1_555 1_555
H4_7 C5_7 1_555 1_555
N14_7 C5_7 1_555 1_555
C6_7 N14_7 1_555 1_555
Cu7 O1_7 1_555 1_555
O1_7 Cu5_2 1_555 1_555
H2_7 C2_7 1_555 1_555
C3_7 C2_7 1_555 1_555
O2_7 C3_7 1_555 1_555
O3_7 Cu7 1_555 1_555
O4_7 Cu7 1_555 1_555
Cu6 O1_7 1_555 1_555
H8_7 C2_7 1_555 1_555
H9_7 C9_7 1_555 1_555
H10_7 C9_7 1_555 1_555
H11_7 C10_7 1_555 1_555
H12_7 C10_7 1_555 1_555
C11_7 C9_7 1_555 1_555
C12_7 C10_7 1_555 1_555
O5_7 C11_7 1_555 1_555
O6_7 C12_7 1_555 1_555
O7_7 Cu5_2 1_555 1_555
O8_7 Cu6 1_555 1_555
O9_7 Cu5_2 1_555 1_555
O10_7 Cu6 1_555 1_555
C3_7 O3_7 1_555 1_555
C11_7 O7_7 1_555 1_555
C12_7 O8_7 1_555 1_555
N9_3 C8_8 1_555 1_555
C7_8 N8_3 1_555 1_555
C8_8 H7_8 1_555 1_555
H6_8 C7_8 1_555 1_555
N15_8 C7_8 1_555 1_555
C8_8 N15_8 1_555 1_555
Cu7_2 O1_8 1_555 1_555
O1_8 Cu8 1_555 1_555
H2_8 C2_8 1_555 1_555
C3_8 C2_8 1_555 1_555
O2_8 C3_8 1_555 1_555
O3_8 Cu7_2 1_555 1_555
O4_8 Cu7_2 1_555 1_555
Cu9 O1_8 1_555 1_555
H8_8 C2_8 1_555 1_555
H9_8 C9_8 1_555 1_555
H10_8 C9_8 1_555 1_555
H11_8 C10_8 1_555 1_555
H12_8 C10_8 1_555 1_555
C11_8 C9_8 1_555 1_555
C12_8 C10_8 1_555 1_555
O5_8 C11_8 1_555 1_555
O6_8 C12_8 1_555 1_555
O7_8 Cu8 1_555 1_555
O8_8 Cu9 1_555 1_555
O9_8 Cu8 1_555 1_555
O10_8 Cu9 1_555 1_555
C3_8 O3_8 1_555 1_555
C11_8 O7_8 1_555 1_555
C12_8 O8_8 1_555 1_555
N4_2 C6_8 1_555 1_555
C5_8 N5_2 1_555 1_555
C6_8 H5_8 1_555 1_555
H4_8 C5_8 1_555 1_555
N14_8 C5_8 1_555 1_555
C6_8 N14_8 1_555 1_555
N6 C1_8 1_555 1_555
C1_8 H1_8 1_555 1_555
N2_8 C1_8 1_555 1_555
C4_8 N2_8 1_555 1_555
H3_8 C4_8 1_555 1_555
N3 C4_8 1_555 1_555
F2 B1 1_555 1_555
F4 B1 1_555 1_555
B1_2 F1 1_555 1_555
F3 B1_2 1_555 1_555
F2_2 B1_3 1_555 1_555
F4_2 B1_3 1_555 1_555
B1_4 F1_2 1_555 1_555
F3_2 B1_4 1_555 1_555
B1_5 F1_3 1_555 1_555
F3_3 B1_5 1_555 1_555
F2_3 B1_6 1_555 1_555
F4_3 B1_6 1_555 1_555
B1_7 F1_4 1_555 1_555
F3_4 B1_7 1_555 1_555
F2_4 B1_8 1_555 1_555
F4_4 B1_8 1_555 1_555
F2_5 B1_9 1_555 1_555
F4_5 B1_9 1_555 1_555
B1_10 F1_5 1_555 1_555
F3_5 B1_10 1_555 1_555
B1_11 F1_6 1_555 1_555
F3_6 B1_11 1_555 1_555
F2_6 B1_12 1_555 1_555
F4_6 B1_12 1_555 1_555
F2_7 B1_13 1_555 1_555
F4_7 B1_13 1_555 1_555
B1_14 F1_7 1_555 1_555
F3_7 B1_14 1_555 1_555
B1_15 F1_8 1_555 1_555
F3_8 B1_15 1_555 1_555
F2_8 B1_16 1_555 1_555
F4_8 B1_16 1_555 1_555
F2_9 B1_17 1_555 1_555
F4_9 B1_17 1_555 1_555
B1_18 F1_9 1_555 1_555
F3_9 B1_18 1_555 1_555
F2_10 B1_19 1_555 1_555
F4_10 B1_19 1_555 1_555
B1_20 F1_10 1_555 1_555
F3_10 B1_20 1_555 1_555
B1_21 F1_11 1_555 1_555
F3_11 B1_21 1_555 1_555
F2_11 B1_22 1_555 1_555
F4_11 B1_22 1_555 1_555
F2_12 B1_23 1_555 1_555
F4_12 B1_23 1_555 1_555
B1_24 F1_12 1_555 1_555
F3_12 B1_24 1_555 1_555

#END
