
###############################################################################
#
# This file contains modified crystal structure data generated from the
# MOF subset of the Cambridge Structural Database (CSD) v543 
# hosted by the Cambridge Crystallographic Data Centre (CCDC).
#
# This work is licensed under the Creative Commons
# Attribution-NonCommercial-ShareAlike 4.0 International License.
# To view a copy of this license, visit
# http://creativecommons.org/licenses/by-nc-sa/4.0/
# or send a letter to
# Creative Commons, PO Box 1866, Mountain View, CA 94042, USA.
#
# CIF created using the CSD Python API on 29 September 2022
# The structure has been converted into the P1 space group
# The structure has a 3D framework
# The original CSD entry CUSHUW is in the tetragonal crystal system
# The framework has been calculated to contain at least 10.0% void space
# The void calculation uses a probe of radius 1.32A, grid spacing 0.4
# The framework is charged, counterions have been retained in the structure
#
###############################################################################

data_CUSHUW
_chemical_formula_moiety         '(C472 H328 Co34 N28 O140 8-)n'
_symmetry_cell_setting           triclinic
_symmetry_space_group_name_H-M   'P 1'
_symmetry_Int_Tables_number      1
_space_group_name_Hall           'P 1'
loop_
_symmetry_equiv_pos_site_id
_symmetry_equiv_pos_as_xyz
1 x,y,z
_cell_length_a                   21.8598(3)
_cell_length_b                   21.8598(3)
_cell_length_c                   39.3559(11)
_cell_angle_alpha                90
_cell_angle_beta                 90
_cell_angle_gamma                90
_cell_volume                     18806.3
loop_
_atom_site_label
_atom_site_type_symbol
_atom_site_fract_x
_atom_site_fract_y
_atom_site_fract_z
C12 C 0.0128(9) 0.4417(7) 0.0394(5)
H3 H 0.0230 0.4050 0.0498
C27 C 0.0152(5) 0.1934(11) 0.1555(3)
H7 H 0.0011 0.2113 0.1057
H16 H 0.0576 0.1957 0.1548
C40 C 0.0148(5) 0.1577(7) 0.2197(3)
C41 C 0.0749(6) 0.1370(7) 0.2206(3)
H31 H 0.0931 0.1215 0.2011
C43 C 0.1078(4) 0.1394(8) 0.2508(4)
C44 C 0.0205(6) 0.1833(8) 0.2791(3)
C45 C 0.0806(6) 0.1625(9) 0.2800(3)
C46 C 0.1727(8) 0.1059(11) 0.2426(6)
H33 H 0.1026 0.1642 0.3003
C48 C 0.1949(10) 0.0662(14) 0.2670(6)
C49 C 0.2046(9) 0.1256(11) 0.2146(6)
C51 C 0.0128(6) 0.2039(11) 0.3382(5)
C52 C 0.2601(10) 0.0557(13) 0.2607(5)
H34 H 0.1721 0.0489 0.2845
C53 C 0.2634(9) 0.1030(11) 0.2141(5)
H35 H 0.1884 0.1512 0.1980
H37 H 0.0553 0.2061 0.3377
H38 H 0.2812 0.0382 0.2788
C56 C 0.2924(8) 0.0666(10) 0.2347(5)
H39 H 0.2866 0.1163 0.1957
H41 H 0.0026 0.2330 0.3866
C58 C 0.3525(7) 0.0329(9) 0.2248(4)
C60 C 0.0622(9) 0.4812(6) 0.0285(6)
C62 C 0.0418(7) 0.5464(6) 0.0357(5)
H42 H 0.0992 0.4690 0.0189
C63 C 0.0932(7) 0.5942(6) 0.0363(4)
O19 O 0.0761(5) 0.6503(4) 0.0341(4)
O20 O 0.1461(6) 0.5775(5) 0.0355(4)
Co11 Co 0.11606(10) 0.73170(10) 0.02469(7)
Co12 Co 0.23178(11) 0.61639(10) 0.02483(7)
Co17 Co 0.45759(19) 0.04539(16) 0.17614(9)
O43 O 0.3767(4) 0.0098(5) 0.2495(3)
O44 O 0.3675(6) 0.0361(8) 0.1951(4)
O16 O 0.0000 0.5000 0.7830(2)
Co7 Co 0.04539(16) 0.54241(19) 0.82386(9)
O21 O 0.0479(8) 0.4503(10) 0.8379(4)
Co13 Co 0.05318(7) 0.44682(7) 0.7500
O31 O 0.0000 0.5000 0.7170(2)
O32 O 0.1233(4) 0.5098(5) 0.7495(3)
O33 O 0.0929(5) 0.3978(6) 0.7906(3)
O34 O 0.1022(6) 0.4071(5) 0.7094(3)
Co20 Co 0.44682(7) 0.94682(7) 0.2500
Co1 Co 0.88394(10) 0.26830(10) 0.02469(7)
O1 O 0.8004(3) 0.3005(3) 0.03928(19)
O2 O 0.9239(5) 0.3497(4) 0.0341(4)
O3 O 0.8467(5) 0.1857(5) 0.0149(3)
O4 O 0.9064(6) 0.2376(7) 0.0703(4)
N1 N 0.9707(5) 0.2357(6) 0.0101(3)
Co2 Co 0.76822(11) 0.38361(10) 0.02483(7)
Co3 Co 0.75128(11) 0.25200(10) 0.07402(5)
C1 C 0.9068(7) 0.4058(6) 0.0363(4)
C2 C 0.7984(7) 0.1523(6) 0.0235(4)
C3 C 0.8818(6) 0.2238(8) 0.0983(4)
O6 O 0.6797(5) 0.3470(5) 0.0100(3)
O7 O 0.8539(6) 0.4225(5) 0.0355(4)
N2 N 0.7380(6) 0.4752(5) 0.0089(4)
O9 O 0.7413(6) 0.4129(6) 0.0737(3)
O10 O 0.7730(6) 0.1703(5) 0.0510(4)
O11 O 0.6761(6) 0.2637(7) 0.0436(3)
O12 O 0.8276(7) 0.2279(12) 0.1018(4)
N3 N 0.6995(5) 0.1949(5) 0.1080(2)
O13 O 0.7348(9) 0.3244(6) 0.1040(4)
C5 C 0.9582(7) 0.4536(6) 0.0357(5)
C6 C 0.7846(9) 0.0843(6) 0.0131(5)
C7 C 0.9178(5) 0.1994(10) 0.1270(3)
C9 C 0.6564(7) 0.3064(8) 0.0237(5)
C10 C 0.7148(6) 0.1342(5) 0.1139(3)
C11 C 0.6513(6) 0.2216(5) 0.1257(3)
C13 C 0.9378(9) 0.5188(6) 0.0285(6)
C15 C 0.8121(8) 0.0439(8) 0.0322(5)
C16 C 0.8882(5) 0.1866(11) 0.1575(3)
C17 C 0.9813(5) 0.2028(10) 0.1260(3)
C20 C 0.5915(6) 0.2894(6) 0.0117(4)
C21 C 0.6820(8) 0.1001(4) 0.1375(4)
H1 H 0.7470 0.1163 0.1021
H2 H 0.6410 0.2623 0.1217
C22 C 0.6185(6) 0.1876(6) 0.1493(4)
H4 H 0.9008 0.5310 0.0189
C25 C 0.8477(13) 0.0499(11) 0.0698(5)
H6 H 0.8458 0.1843 0.1582
C26 C 0.9221(7) 0.1772(10) 0.1869(3)
C31 C 0.5649(7) 0.2335(7) 0.0209(5)
C33 C 0.6338(7) 0.1268(6) 0.1552(3)
C34 C 0.7106(12) 0.0632(12) 0.1566(7)
H9 H 0.5863 0.2054 0.1611
H12 H 0.8910 0.0461 0.0666
H13 H 0.8337 0.0179 0.0847
H14 H 0.8386 0.0889 0.0798
H15 H 0.9023 0.1687 0.2073
C35 C 0.9856(7) 0.1806(10) 0.1859(3)
H22 H 0.5863 0.2044 0.0334
C36 C 0.5062(7) 0.2240(8) 0.0105(5)
C39 C 0.6047(13) 0.0793(10) 0.1779(5)
H23 H 0.7308 0.0855 0.1743
H24 H 0.7404 0.0413 0.1434
H25 H 0.6822 0.0347 0.1664
H26 H 0.4869 0.1883 0.0175
O14 O 0.6022(6) 0.0929(5) 0.2094(3)
O15 O 0.5497(10) 0.0479(8) 0.1621(4)
C42 C 0.9876(4) 0.1808(7) 0.2489(4)
Co5 Co 0.55318(7) 0.05318(7) 0.2500
H32 H 0.9474 0.1947 0.2482
C47 C 0.9809(8) 0.1846(11) 0.3096(4)
C50 C 0.9174(8) 0.1814(12) 0.3103(4)
H36 H 0.8960 0.1685 0.2911
C54 C 0.8858(6) 0.1976(12) 0.3396(5)
C55 C 0.9813(8) 0.2201(10) 0.3675(4)
H40 H 0.8434 0.1954 0.3401
C57 C 0.9178(8) 0.2169(10) 0.3682(4)
C59 C 0.876(3) 0.2323(13) 0.3976(9)
C61 C 0.9872(9) 0.5583(7) 0.0394(5)
H43 H 0.9770 0.5950 0.0498
O25 O 0.3707(6) 0.2001(6) 0.0248(3)
O28 O 0.5000 0.0000 0.2170(2)
N7 N 0.4190(6) 0.0746(8) 0.1303(3)
C65 C 0.3456(10) 0.1485(9) 0.0363(5)
C66 C 0.3568(5) 0.0827(8) 0.1246(3)
C67 C 0.4610(4) 0.0918(8) 0.1055(4)
O37 O 0.2975(8) 0.1283(8) 0.0262(4)
C69 C 0.3785(6) 0.1252(9) 0.0695(3)
C70 C 0.3365(4) 0.1080(9) 0.0942(4)
H44 H 0.3287 0.0712 0.1412
H45 H 0.5026 0.0864 0.1093
C71 C 0.4407(5) 0.1171(8) 0.0751(3)
C77 C 0.3292(7) 0.4431(7) 0.0067(5)
H46 H 0.2949 0.1134 0.0905
C78 C 0.5003(8) 0.1250(13) 0.0587(6)
C84 C 0.3148(7) 0.5025(6) 0.0176(5)
C85 C 0.3915(9) 0.4166(11) 0.0192(8)
H50 H 0.5232 0.1738 0.0557
H51 H 0.5474 0.1024 0.0648
H52 H 0.5063 0.1155 0.0297
C86 C 0.0845(7) 0.2514(9) 0.0159(5)
N10 N 0.2620(6) 0.5248(5) 0.0089(4)
H55 H 0.3421 0.5251 0.0306
H56 H 0.4139 0.4009 0.0001
H57 H 0.4148 0.4485 0.0299
H58 H 0.3842 0.3843 0.0352
O45 O 0.9129(6) 0.2413(6) 0.4263(3)
O46 O 0.8244(6) 0.2348(9) 0.3960(4)
C92 C 0.0233(8) 0.2577(9) 0.0244(5)
H59 H 0.1182 0.2677 0.0271
Co19 Co 0.75200(10) 0.25128(11) 0.42598(5)
Co21 Co 0.88361(10) 0.26822(11) 0.47517(7)
H65 H 0.0167 0.2817 0.0436
O5 O 0.8717(8) 0.2975(8) 0.9738(4)
C4 C 0.8515(9) 0.3456(10) 0.9637(5)
O8 O 0.7999(6) 0.3707(6) 0.9752(3)
C8 C 0.8748(9) 0.3785(6) 0.9305(3)
C14 C 0.7486(9) 0.0845(7) 0.9841(5)
C18 C 0.8920(9) 0.3365(4) 0.9058(4)
C19 C 0.8829(8) 0.4407(5) 0.9249(3)
C23 C 0.7423(9) 0.0233(8) 0.9756(5)
H5 H 0.7323 0.1182 0.9729
H8 H 0.8866 0.2949 0.9095
C28 C 0.9173(8) 0.3568(5) 0.8754(3)
C29 C 0.9082(8) 0.4610(4) 0.8945(4)
C30 C 0.8750(13) 0.5003(8) 0.9413(6)
C32 C 0.5569(7) 0.3292(7) 0.9933(5)
H10 H 0.7183 0.0167 0.9564
H17 H 0.9288 0.3287 0.8588
N4 N 0.9254(8) 0.4190(6) 0.8697(3)
H18 H 0.9136 0.5026 0.8907
H19 H 0.8262 0.5232 0.9443
H20 H 0.8976 0.5474 0.9352
H21 H 0.8845 0.5063 0.9703
C37 C 0.4975(6) 0.3148(7) 0.9824(5)
C38 C 0.5834(11) 0.3915(9) 0.9808(8)
Co4 Co 0.95461(16) 0.45759(19) 0.82386(9)
H27 H 0.4749 0.3421 0.9694
H28 H 0.5991 0.4139 0.9999
H29 H 0.5515 0.4148 0.9701
H30 H 0.6157 0.3842 0.9648
O16_2 O 1.0000 0.5000 0.7830(2)
O17 O 0.9639(8) 0.3675(6) 0.8049(4)
O18 O 0.9902(5) 0.3767(4) 0.7505(3)
N6 N 0.4752(5) 0.2620(6) 0.9911(4)
O22 O 0.9521(8) 0.5497(10) 0.8379(4)
Co8 Co 0.38361(10) 0.23178(11) 0.97517(7)
Co14 Co 0.94682(7) 0.55318(7) 0.7500
O23 O 0.3005(3) 0.1996(3) 0.96072(19)
O24 O 0.3470(5) 0.3203(5) 0.9900(3)
O26 O 0.4129(6) 0.2587(6) 0.9263(3)
O27 O 0.4225(5) 0.1461(6) 0.9645(4)
O31_2 O 1.0000 0.5000 0.7170(2)
Co15 Co 0.26830(10) 0.11606(10) 0.97531(7)
Co16 Co 0.25200(10) 0.24872(11) 0.92598(5)
C64 C 0.3064(8) 0.3436(7) 0.9763(5)
O35 O 0.1857(5) 0.1533(5) 0.9851(3)
O36 O 0.2376(7) 0.0936(6) 0.9297(4)
O38 O 0.3497(4) 0.0761(5) 0.9659(4)
N8 N 0.2357(6) 0.0293(5) 0.9899(3)
O39 O 0.1703(5) 0.2270(6) 0.9490(4)
O40 O 0.2637(7) 0.3239(6) 0.9564(3)
O41 O 0.2279(12) 0.1724(7) 0.8982(4)
N9 N 0.1949(5) 0.3005(5) 0.8920(2)
O42 O 0.3244(6) 0.2652(9) 0.8960(4)
C68 C 0.2894(6) 0.4085(6) 0.9883(4)
C72 C 0.1523(6) 0.2016(7) 0.9765(4)
C73 C 0.2238(8) 0.1182(6) 0.9017(4)
C74 C 0.1342(5) 0.2852(6) 0.8861(3)
C75 C 0.2216(5) 0.3487(6) 0.8743(3)
C76 C 0.2335(7) 0.4351(7) 0.9791(5)
C79 C 0.0843(6) 0.2154(9) 0.9869(5)
C80 C 0.1994(10) 0.0822(5) 0.8730(3)
C81 C 0.1001(4) 0.3180(8) 0.8625(4)
H47 H 0.1163 0.2530 0.8979
H48 H 0.2623 0.3590 0.8783
C82 C 0.1876(6) 0.3815(6) 0.8507(4)
H49 H 0.2044 0.4137 0.9666
C83 C 0.2240(8) 0.4938(7) 0.9895(5)
C87 C 0.0439(8) 0.1879(8) 0.9678(5)
C88 C 0.1866(11) 0.1118(5) 0.8425(3)
C89 C 0.2028(10) 0.0187(5) 0.8740(3)
C90 C 0.1268(6) 0.3662(7) 0.8448(3)
C91 C 0.0632(12) 0.2894(12) 0.8434(7)
H53 H 0.2054 0.4137 0.8389
H54 H 0.1883 0.5131 0.9825
C94 C 0.0499(11) 0.1523(13) 0.9302(5)
H60 H 0.1843 0.1542 0.8418
C95 C 0.1772(10) 0.0779(7) 0.8131(3)
C97 C 0.0793(10) 0.3953(13) 0.8221(5)
H62 H 0.0855 0.2692 0.8257
H63 H 0.0413 0.2596 0.8566
H64 H 0.0347 0.3178 0.8336
H67 H 0.0461 0.1090 0.9334
H68 H 0.0179 0.1663 0.9153
H69 H 0.0889 0.1614 0.9202
H70 H 0.1687 0.0977 0.7927
C98 C 0.1806(10) 0.0144(7) 0.8141(3)
C101 C 0.1808(7) 0.0124(4) 0.7511(4)
H73 H 0.1947 0.0526 0.7518
C106 C 0.1846(11) 0.0191(8) 0.6904(4)
C109 C 0.1814(12) 0.0826(8) 0.6897(4)
H77 H 0.1685 0.1040 0.7089
C113 C 0.1976(12) 0.1142(6) 0.6604(5)
C114 C 0.2201(10) 0.0187(8) 0.6325(4)
H81 H 0.1954 0.1566 0.6599
C116 C 0.2169(10) 0.0822(8) 0.6318(4)
C118 C 0.2323(13) 0.124(3) 0.6024(9)
Co27 Co 0.25128(11) 0.24800(10) 0.57402(5)
O51 O 0.2413(6) 0.0871(6) 0.5737(3)
O52 O 0.2348(9) 0.1756(6) 0.6040(4)
Co29 Co 0.26822(11) 0.11639(10) 0.52483(7)
C24 C 0.8005(11) 0.9917(8) 0.0172(5)
H11 H 0.8220 0.9598 0.0272
Co10 Co 0.54241(19) 0.95461(16) 0.17614(9)
O28_2 O 0.5000 1.0000 0.2170(2)
O29 O 0.4503(10) 0.9521(8) 0.1621(4)
N5 N 0.7643(6) 0.9707(5) 0.9899(3)
Co6 Co 0.73170(10) 0.88394(10) 0.97531(7)
C96 C 0.1934(11) 0.9848(5) 0.8445(3)
H61 H 0.2113 0.9989 0.8943
H71 H 0.1957 0.9424 0.8452
C99 C 0.1577(7) 0.9852(5) 0.7803(3)
C100 C 0.1370(7) 0.9251(6) 0.7794(3)
H72 H 0.1215 0.9069 0.7989
C102 C 0.1394(8) 0.8922(4) 0.7492(4)
C103 C 0.1833(8) 0.9795(6) 0.7209(3)
C104 C 0.1625(9) 0.9194(6) 0.7200(3)
C105 C 0.1059(11) 0.8273(8) 0.7574(6)
H74 H 0.1642 0.8974 0.6997
C107 C 0.0662(14) 0.8051(10) 0.7330(6)
C108 C 0.1256(11) 0.7954(9) 0.7854(6)
C110 C 0.2039(11) 0.9872(6) 0.6618(5)
C111 C 0.0557(13) 0.7399(10) 0.7393(5)
H75 H 0.0489 0.8279 0.7155
C112 C 0.1030(11) 0.7366(9) 0.7859(5)
H76 H 0.1512 0.8116 0.8020
H78 H 0.2061 0.9447 0.6623
H79 H 0.0382 0.7188 0.7212
C115 C 0.0666(10) 0.7076(8) 0.7653(5)
H80 H 0.1163 0.7134 0.8043
H82 H 0.2330 0.9974 0.6134
O49 O 0.0361(8) 0.6325(6) 0.8049(4)
C117 C 0.0329(9) 0.6475(7) 0.7752(4)
O50 O 0.0098(5) 0.6233(4) 0.7505(3)
C93 C 0.9917(8) 0.1995(11) 0.9828(5)
H66 H 0.9598 0.1780 0.9728
C93_2 C 0.1995(11) 0.0083(8) 0.0172(5)
H66_2 H 0.1780 0.0402 0.0272
O23_2 O 0.1996(3) 0.6995(3) 0.03928(19)
O24_2 O 0.3203(5) 0.6530(5) 0.0100(3)
O26_2 O 0.2587(6) 0.5871(6) 0.0737(3)
O31_3 O 0.5000 0.0000 0.2830(2)
Co16_2 Co 0.24872(11) 0.74800(10) 0.07402(5)
C64_2 C 0.3436(7) 0.6936(8) 0.0237(5)
O35_2 O 0.1533(5) 0.8143(5) 0.0149(3)
O36_2 O 0.0936(6) 0.7624(7) 0.0703(4)
N8_2 N 0.0293(5) 0.7643(6) 0.0101(3)
O39_2 O 0.2270(6) 0.8297(5) 0.0510(4)
O40_2 O 0.3239(6) 0.7363(7) 0.0436(3)
O41_2 O 0.1724(7) 0.7721(12) 0.1018(4)
N9_2 N 0.3005(5) 0.8051(5) 0.1080(2)
O42_2 O 0.2652(9) 0.6756(6) 0.1040(4)
C68_2 C 0.4085(6) 0.7106(6) 0.0117(4)
C72_2 C 0.2016(7) 0.8477(6) 0.0235(4)
C73_2 C 0.1182(6) 0.7762(8) 0.0983(4)
C74_2 C 0.2852(6) 0.8658(5) 0.1139(3)
C75_2 C 0.3487(6) 0.7784(5) 0.1257(3)
C76_2 C 0.4351(7) 0.7665(7) 0.0209(5)
C79_2 C 0.2154(9) 0.9157(6) 0.0131(5)
C80_2 C 0.0822(5) 0.8006(10) 0.1270(3)
C81_2 C 0.3180(8) 0.8999(4) 0.1375(4)
H47_2 H 0.2530 0.8837 0.1021
H48_2 H 0.3590 0.7377 0.1217
C82_2 C 0.3815(6) 0.8124(6) 0.1493(4)
H49_2 H 0.4137 0.7956 0.0334
C83_2 C 0.4938(7) 0.7760(8) 0.0105(5)
C87_2 C 0.1879(8) 0.9561(8) 0.0322(5)
C88_2 C 0.1118(5) 0.8134(11) 0.1575(3)
C89_2 C 0.0187(5) 0.7972(10) 0.1260(3)
C90_2 C 0.3662(7) 0.8732(6) 0.1552(3)
C91_2 C 0.2894(12) 0.9368(12) 0.1566(7)
H53_2 H 0.4137 0.7946 0.1611
H54_2 H 0.5131 0.8117 0.0175
C94_2 C 0.1523(13) 0.9501(11) 0.0698(5)
H60_2 H 0.1542 0.8157 0.1582
C95_2 C 0.0779(7) 0.8228(10) 0.1869(3)
C97_2 C 0.3953(13) 0.9207(10) 0.1779(5)
H62_2 H 0.2692 0.9145 0.1743
H63_2 H 0.2596 0.9587 0.1434
H64_2 H 0.3178 0.9653 0.1664
H67_2 H 0.1090 0.9539 0.0666
H68_2 H 0.1663 0.9821 0.0847
H69_2 H 0.1614 0.9111 0.0798
H70_2 H 0.0977 0.8313 0.2073
C98_2 C 0.0144(7) 0.8194(10) 0.1859(3)
O47 O 0.3978(6) 0.9071(5) 0.2094(3)
C101_2 C 0.0124(4) 0.8192(7) 0.2489(4)
H73_2 H 0.0526 0.8053 0.2482
C106_2 C 0.0191(8) 0.8154(11) 0.3096(4)
C109_2 C 0.0826(8) 0.8186(12) 0.3103(4)
H77_2 H 0.1040 0.8315 0.2911
C113_2 C 0.1142(6) 0.8024(12) 0.3396(5)
C114_2 C 0.0187(8) 0.7799(10) 0.3675(4)
H81_2 H 0.1566 0.8046 0.3401
C116_2 C 0.0822(8) 0.7831(10) 0.3682(4)
C118_2 C 0.124(3) 0.7677(13) 0.3976(9)
Co27_2 Co 0.24800(10) 0.74872(11) 0.42598(5)
O51_2 O 0.0871(6) 0.7587(6) 0.4263(3)
O52_2 O 0.1756(6) 0.7652(9) 0.3960(4)
Co29_2 Co 0.11639(10) 0.73178(11) 0.47517(7)
C1_2 C 0.4058(6) 0.0932(7) 0.9637(4)
C5_2 C 0.4536(6) 0.0418(7) 0.9643(5)
C13_2 C 0.5188(6) 0.0622(9) 0.9715(6)
H4_2 H 0.5310 0.0992 0.9811
C61_2 C 0.5583(7) 0.0128(9) 0.9606(5)
H43_2 H 0.5950 0.0230 0.9502
O25_2 O 0.2001(6) 0.6293(6) 0.9752(3)
N7_2 N 0.0746(8) 0.5810(6) 0.8697(3)
C65_2 C 0.1485(9) 0.6544(10) 0.9637(5)
C66_2 C 0.0827(8) 0.6432(5) 0.8754(3)
C67_2 C 0.0918(8) 0.5390(4) 0.8945(4)
O37_2 O 0.1283(8) 0.7025(8) 0.9738(4)
C69_2 C 0.1252(9) 0.6215(6) 0.9305(3)
C70_2 C 0.1080(9) 0.6635(4) 0.9058(4)
H44_2 H 0.0712 0.6713 0.8588
H45_2 H 0.0864 0.4974 0.8907
C71_2 C 0.1171(8) 0.5593(5) 0.9249(3)
C77_2 C 0.4431(7) 0.6708(7) 0.9933(5)
H46_2 H 0.1134 0.7051 0.9095
C78_2 C 0.1250(13) 0.4997(8) 0.9413(6)
C84_2 C 0.5025(6) 0.6852(7) 0.9824(5)
C85_2 C 0.4166(11) 0.6085(9) 0.9808(8)
H50_2 H 0.1738 0.4768 0.9443
H51_2 H 0.1024 0.4526 0.9352
H52_2 H 0.1155 0.4937 0.9703
C86_2 C 0.2514(9) 0.9155(7) 0.9841(5)
N10_2 N 0.5248(5) 0.7380(6) 0.9911(4)
H55_2 H 0.5251 0.6579 0.9694
H56_2 H 0.4009 0.5861 0.9999
H57_2 H 0.4485 0.5852 0.9701
H58_2 H 0.3843 0.6158 0.9648
C92_2 C 0.2577(9) 0.9767(8) 0.9756(5)
H59_2 H 0.2677 0.8818 0.9729
Co18 Co 0.61639(10) 0.76822(11) 0.97517(7)
H65_2 H 0.2817 0.9833 0.9564
O31_4 O 0.5000 1.0000 0.2830(2)
O32_2 O 0.5098(5) 0.8767(4) 0.2505(3)
O34_2 O 0.4071(5) 0.8978(6) 0.2906(3)
C12_2 C 0.4417(7) 0.9872(9) 0.9606(5)
H3_2 H 0.4050 0.9770 0.9502
C60_2 C 0.4812(6) 0.9378(9) 0.9715(6)
C62_2 C 0.5464(6) 0.9582(7) 0.9643(5)
H42_2 H 0.4690 0.9008 0.9811
C63_2 C 0.5942(6) 0.9068(7) 0.9637(4)
O19_2 O 0.6503(4) 0.9239(5) 0.9659(4)
O20_2 O 0.5775(5) 0.8539(6) 0.9645(4)
C96_2 C 0.9848(5) 0.8066(11) 0.1555(3)
H61_2 H 0.9989 0.7887 0.1057
H71_2 H 0.9424 0.8043 0.1548
C99_2 C 0.9852(5) 0.8423(7) 0.2197(3)
C100_2 C 0.9251(6) 0.8630(7) 0.2206(3)
H72_2 H 0.9069 0.8785 0.2011
C102_2 C 0.8922(4) 0.8606(8) 0.2508(4)
C103_2 C 0.9795(6) 0.8167(8) 0.2791(3)
C104_2 C 0.9194(6) 0.8375(9) 0.2800(3)
C105_2 C 0.8273(8) 0.8941(11) 0.2426(6)
H74_2 H 0.8974 0.8358 0.3003
C107_2 C 0.8051(10) 0.9338(14) 0.2670(6)
C108_2 C 0.7954(9) 0.8744(11) 0.2146(6)
C110_2 C 0.9872(6) 0.7961(11) 0.3382(5)
C111_2 C 0.7399(10) 0.9443(13) 0.2607(5)
H75_2 H 0.8279 0.9511 0.2845
C112_2 C 0.7366(9) 0.8970(11) 0.2141(5)
H76_2 H 0.8116 0.8488 0.1980
H78_2 H 0.9447 0.7939 0.3377
H79_2 H 0.7188 0.9618 0.2788
C115_2 C 0.7076(8) 0.9334(10) 0.2347(5)
H80_2 H 0.7134 0.8837 0.1957
H82_2 H 0.9974 0.7670 0.3866
O49_2 O 0.6325(6) 0.9639(8) 0.1951(4)
C117_2 C 0.6475(7) 0.9671(9) 0.2248(4)
O50_2 O 0.6233(4) 0.9902(5) 0.2495(3)
C93_3 C 0.0083(8) 0.8005(11) 0.9828(5)
H66_3 H 0.0402 0.8220 0.9728
C96_3 C 0.8066(11) 0.0152(5) 0.8445(3)
H61_3 H 0.7887 0.0011 0.8943
H71_3 H 0.8043 0.0576 0.8452
C99_3 C 0.8423(7) 0.0148(5) 0.7803(3)
C100_3 C 0.8630(7) 0.0749(6) 0.7794(3)
H72_3 H 0.8785 0.0931 0.7989
C102_3 C 0.8606(8) 0.1078(4) 0.7492(4)
C103_3 C 0.8167(8) 0.0205(6) 0.7209(3)
C104_3 C 0.8375(9) 0.0806(6) 0.7200(3)
C105_3 C 0.8941(11) 0.1727(8) 0.7574(6)
H74_3 H 0.8358 0.1026 0.6997
C107_3 C 0.9338(14) 0.1949(10) 0.7330(6)
C108_3 C 0.8744(11) 0.2046(9) 0.7854(6)
C110_3 C 0.7961(11) 0.0128(6) 0.6618(5)
C111_3 C 0.9443(13) 0.2601(10) 0.7393(5)
H75_3 H 0.9511 0.1721 0.7155
C112_3 C 0.8970(11) 0.2634(9) 0.7859(5)
H76_3 H 0.8488 0.1884 0.8020
H78_3 H 0.7939 0.0553 0.6623
H79_3 H 0.9618 0.2812 0.7212
C115_3 C 0.9334(10) 0.2924(8) 0.7653(5)
H80_3 H 0.8837 0.2866 0.8043
H82_3 H 0.7670 0.0026 0.6134
C117_3 C 0.9671(9) 0.3525(7) 0.7752(4)
O25_3 O 0.6293(6) 0.7999(6) 0.0248(3)
N7_3 N 0.5810(6) 0.9254(8) 0.1303(3)
C65_3 C 0.6544(10) 0.8515(9) 0.0363(5)
C66_3 C 0.6432(5) 0.9173(8) 0.1246(3)
C67_3 C 0.5390(4) 0.9082(8) 0.1055(4)
O37_3 O 0.7025(8) 0.8717(8) 0.0262(4)
C69_3 C 0.6215(6) 0.8748(9) 0.0695(3)
C70_3 C 0.6635(4) 0.8920(9) 0.0942(4)
H44_3 H 0.6713 0.9288 0.1412
H45_3 H 0.4974 0.9136 0.1093
C71_3 C 0.5593(5) 0.8829(8) 0.0751(3)
C77_3 C 0.6708(7) 0.5569(7) 0.0067(5)
H46_3 H 0.7051 0.8866 0.0905
C78_3 C 0.4997(8) 0.8750(13) 0.0587(6)
C84_3 C 0.6852(7) 0.4975(6) 0.0176(5)
C85_3 C 0.6085(9) 0.5834(11) 0.0192(8)
H50_3 H 0.4768 0.8262 0.0557
H51_3 H 0.4526 0.8976 0.0648
H52_3 H 0.4937 0.8845 0.0297
C86_3 C 0.9155(7) 0.7486(9) 0.0159(5)
H55_3 H 0.6579 0.4749 0.0306
H56_3 H 0.5861 0.5991 0.0001
H57_3 H 0.5852 0.5515 0.0299
H58_3 H 0.6158 0.6157 0.0352
C92_3 C 0.9767(8) 0.7423(9) 0.0244(5)
H59_3 H 0.8818 0.7323 0.0271
H65_3 H 0.9833 0.7183 0.0436
O23_3 O 0.6995(3) 0.8004(3) 0.96072(19)
O24_3 O 0.6530(5) 0.6797(5) 0.9900(3)
O26_3 O 0.5871(6) 0.7413(6) 0.9263(3)
Co16_3 Co 0.74800(10) 0.75128(11) 0.92598(5)
C64_3 C 0.6936(8) 0.6564(7) 0.9763(5)
O35_3 O 0.8143(5) 0.8467(5) 0.9851(3)
O36_3 O 0.7624(7) 0.9064(6) 0.9297(4)
O39_3 O 0.8297(5) 0.7730(6) 0.9490(4)
O40_3 O 0.7363(7) 0.6761(6) 0.9564(3)
O41_3 O 0.7721(12) 0.8276(7) 0.8982(4)
N9_3 N 0.8051(5) 0.6995(5) 0.8920(2)
O42_3 O 0.6756(6) 0.7348(9) 0.8960(4)
C68_3 C 0.7106(6) 0.5915(6) 0.9883(4)
C72_3 C 0.8477(6) 0.7984(7) 0.9765(4)
C73_3 C 0.7762(8) 0.8818(6) 0.9017(4)
C74_3 C 0.8658(5) 0.7148(6) 0.8861(3)
C75_3 C 0.7784(5) 0.6513(6) 0.8743(3)
C76_3 C 0.7665(7) 0.5649(7) 0.9791(5)
C79_3 C 0.9157(6) 0.7846(9) 0.9869(5)
C80_3 C 0.8006(10) 0.9178(5) 0.8730(3)
C81_3 C 0.8999(4) 0.6820(8) 0.8625(4)
H47_3 H 0.8837 0.7470 0.8979
H48_3 H 0.7377 0.6410 0.8783
C82_3 C 0.8124(6) 0.6185(6) 0.8507(4)
H49_3 H 0.7956 0.5863 0.9666
C83_3 C 0.7760(8) 0.5062(7) 0.9895(5)
C87_3 C 0.9561(8) 0.8121(8) 0.9678(5)
C88_3 C 0.8134(11) 0.8882(5) 0.8425(3)
C89_3 C 0.7972(10) 0.9813(5) 0.8740(3)
C90_3 C 0.8732(6) 0.6338(7) 0.8448(3)
C91_3 C 0.9368(12) 0.7106(12) 0.8434(7)
H53_3 H 0.7946 0.5863 0.8389
H54_3 H 0.8117 0.4869 0.9825
C94_3 C 0.9501(11) 0.8477(13) 0.9302(5)
H60_3 H 0.8157 0.8458 0.8418
C95_3 C 0.8228(10) 0.9221(7) 0.8131(3)
C97_3 C 0.9207(10) 0.6047(13) 0.8221(5)
H62_3 H 0.9145 0.7308 0.8257
H63_3 H 0.9587 0.7404 0.8566
H64_3 H 0.9653 0.6822 0.8336
H67_3 H 0.9539 0.8910 0.9334
H68_3 H 0.9821 0.8337 0.9153
H69_3 H 0.9111 0.8386 0.9202
H70_3 H 0.8313 0.9023 0.7927
C98_3 C 0.8194(10) 0.9856(7) 0.8141(3)
O47_2 O 0.9071(5) 0.6022(6) 0.7906(3)
C101_3 C 0.8192(7) 0.9876(4) 0.7511(4)
H73_3 H 0.8053 0.9474 0.7518
C106_3 C 0.8154(11) 0.9809(8) 0.6904(4)
C109_3 C 0.8186(12) 0.9174(8) 0.6897(4)
H77_3 H 0.8315 0.8960 0.7089
C113_3 C 0.8024(12) 0.8858(6) 0.6604(5)
C114_3 C 0.7799(10) 0.9813(8) 0.6325(4)
H81_3 H 0.8046 0.8434 0.6599
C116_3 C 0.7831(10) 0.9178(8) 0.6318(4)
C118_3 C 0.7677(13) 0.876(3) 0.6024(9)
Co27_3 Co 0.74872(11) 0.75200(10) 0.57402(5)
O51_3 O 0.7587(6) 0.9129(6) 0.5737(3)
O52_3 O 0.7652(9) 0.8244(6) 0.6040(4)
Co29_3 Co 0.73178(11) 0.88361(10) 0.52483(7)
O32_3 O 0.8767(4) 0.4902(5) 0.7495(3)
O34_3 O 0.8978(6) 0.5929(5) 0.7094(3)
O32_4 O 0.4902(5) 0.1233(4) 0.2505(3)
O34_4 O 0.5929(5) 0.1022(6) 0.2906(3)
C13_3 C 0.0188(6) 0.4378(9) 0.4715(6)
H4_3 H 0.0310 0.4008 0.4811
C30_2 C 0.0003(8) 0.3750(13) 0.5587(6)
H18_2 H 0.0026 0.4136 0.6093
H19_2 H 0.0232 0.3262 0.5557
H20_2 H 0.0474 0.3976 0.5648
H21_2 H 0.0063 0.3845 0.5297
C61_3 C 0.0583(7) 0.4872(9) 0.4606(5)
C62_3 C 0.0464(6) 0.5418(7) 0.4643(5)
H43_3 H 0.0950 0.4770 0.4502
C63_3 C 0.0942(6) 0.5932(7) 0.4637(4)
O19_3 O 0.1503(4) 0.5761(5) 0.4659(4)
O20_3 O 0.0775(5) 0.6461(6) 0.4645(4)
Co7_2 Co 0.04241(19) 0.54539(16) 0.67614(9)
O22_2 O 0.0497(10) 0.4521(8) 0.6621(4)
Co11_2 Co 0.23170(10) 0.61606(10) 0.47531(7)
C84_4 C 0.0025(6) 0.8148(7) 0.4824(5)
N10_3 N 0.0248(5) 0.7620(6) 0.4911(4)
H54_4 H 0.0131 0.6883 0.5175
H55_4 H 0.0251 0.8421 0.4694
Co1_2 Co 0.76830(10) 0.38394(10) 0.47531(7)
O1_2 O 0.8005(3) 0.3004(3) 0.46072(19)
O2_2 O 0.8497(4) 0.4239(5) 0.4659(4)
O3_2 O 0.6857(5) 0.3467(5) 0.4851(3)
O4_2 O 0.7376(7) 0.4064(6) 0.4297(4)
O5_2 O 0.7975(8) 0.3717(8) 0.5262(4)
N1_2 N 0.7357(6) 0.4707(5) 0.4899(3)
C1_3 C 0.9058(6) 0.4068(7) 0.4637(4)
C2_2 C 0.6523(6) 0.2984(7) 0.4765(4)
C3_2 C 0.7238(8) 0.3818(6) 0.4017(4)
C4_2 C 0.8456(10) 0.3515(9) 0.5363(5)
O6_2 O 0.8470(5) 0.1797(5) 0.4900(3)
O7_2 O 0.9225(5) 0.3539(6) 0.4645(4)
O8_2 O 0.8707(6) 0.2999(6) 0.5248(3)
N2_2 N 0.9752(5) 0.2380(6) 0.4911(4)
O10_2 O 0.6703(5) 0.2730(6) 0.4490(4)
O11_2 O 0.7637(7) 0.1761(6) 0.4564(3)
O12_2 O 0.7279(12) 0.3276(7) 0.3982(4)
N3_2 N 0.6949(5) 0.1995(5) 0.3920(2)
C5_3 C 0.9536(6) 0.4582(7) 0.4643(5)
C6_2 C 0.5843(6) 0.2846(9) 0.4869(5)
C7_2 C 0.6994(10) 0.4178(5) 0.3730(3)
C8_2 C 0.8785(6) 0.3748(9) 0.5695(3)
C9_2 C 0.8064(8) 0.1564(7) 0.4763(5)
C10_2 C 0.6342(5) 0.2148(6) 0.3861(3)
C11_2 C 0.7216(5) 0.1513(6) 0.3743(3)
C12_3 C 0.9417(7) 0.5128(9) 0.4606(5)
C14_2 C 0.5845(7) 0.2486(9) 0.5159(5)
C15_2 C 0.5439(8) 0.3121(8) 0.4678(5)
C16_2 C 0.6866(11) 0.3882(5) 0.3425(3)
C17_2 C 0.7028(10) 0.4813(5) 0.3740(3)
C18_2 C 0.8365(4) 0.3920(9) 0.5942(4)
C19_2 C 0.9407(5) 0.3829(8) 0.5751(3)
C20_2 C 0.7894(6) 0.0915(6) 0.4883(4)
C21_2 C 0.6001(4) 0.1820(8) 0.3625(4)
H1_2 H 0.6163 0.2470 0.3979
H2_2 H 0.7623 0.1410 0.3783
C22_2 C 0.6876(6) 0.1185(6) 0.3507(4)
H3_3 H 0.9050 0.5230 0.4502
C23_2 C 0.5233(8) 0.2423(9) 0.5244(5)
H5_2 H 0.6182 0.2323 0.5271
C24_2 C 0.4917(8) 0.3005(11) 0.4828(5)
C25_2 C 0.5499(11) 0.3477(13) 0.4302(5)
H6_2 H 0.6843 0.3458 0.3418
C26_2 C 0.6772(10) 0.4221(7) 0.3131(3)
C27_2 C 0.6934(11) 0.5152(5) 0.3445(3)
H7_2 H 0.7113 0.5011 0.3943
H8_2 H 0.7949 0.3866 0.5905
C28_2 C 0.8568(5) 0.4173(8) 0.6246(3)
C29_2 C 0.9610(4) 0.4082(8) 0.6055(4)
C31_2 C 0.7335(7) 0.0649(7) 0.4791(5)
C32_2 C 0.8292(7) 0.0569(7) 0.5067(5)
C33_2 C 0.6268(6) 0.1338(7) 0.3448(3)
C34_2 C 0.5632(12) 0.2106(12) 0.3434(7)
H9_2 H 0.7054 0.0863 0.3389
H10_2 H 0.5167 0.2183 0.5436
H11_2 H 0.4598 0.3220 0.4728
H12_2 H 0.5461 0.3910 0.4334
H13_2 H 0.5179 0.3337 0.4153
H14_2 H 0.5889 0.3386 0.4202
H15_2 H 0.6687 0.4023 0.2927
C35_2 C 0.6806(10) 0.4856(7) 0.3141(3)
H16_2 H 0.6957 0.5576 0.3452
H17_2 H 0.8287 0.4288 0.6412
N4_2 N 0.9190(6) 0.4254(8) 0.6303(3)
H22_2 H 0.7044 0.0863 0.4666
C36_2 C 0.7240(8) 0.0062(7) 0.4895(5)
C38_2 C 0.8915(9) 0.0834(11) 0.5192(8)
C39_2 C 0.5793(10) 0.1047(13) 0.3221(5)
H23_2 H 0.5855 0.2308 0.3257
H24_2 H 0.5413 0.2404 0.3566
H25_2 H 0.5347 0.1822 0.3336
C40_2 C 0.6577(7) 0.5148(5) 0.2803(3)
Co4_2 Co 0.95759(19) 0.45461(16) 0.67614(9)
H28_2 H 0.9139 0.0991 0.5001
H29_2 H 0.9148 0.0515 0.5299
H30_2 H 0.8842 0.1157 0.5352
O15_2 O 0.5479(8) 0.0497(10) 0.3379(4)
C41_2 C 0.6370(7) 0.5749(6) 0.2794(3)
C42_2 C 0.6808(7) 0.4876(4) 0.2511(4)
O17_2 O 0.8675(6) 0.4639(8) 0.6951(4)
H31_2 H 0.6215 0.5931 0.2989
C43_2 C 0.6394(8) 0.6078(4) 0.2492(4)
H32_2 H 0.6947 0.4474 0.2518
C44_2 C 0.6833(8) 0.5205(6) 0.2209(3)
C45_2 C 0.6625(9) 0.5806(6) 0.2200(3)
C46_2 C 0.6059(11) 0.6727(8) 0.2574(6)
C47_2 C 0.6846(11) 0.4809(8) 0.1904(4)
H33_2 H 0.6642 0.6026 0.1997
C48_2 C 0.5662(14) 0.6949(10) 0.2330(6)
C49_2 C 0.6256(11) 0.7046(9) 0.2854(6)
C50_2 C 0.6814(12) 0.4174(8) 0.1897(4)
C51_2 C 0.7039(11) 0.5128(6) 0.1618(5)
C52_2 C 0.5557(13) 0.7601(10) 0.2393(5)
H34_2 H 0.5489 0.6721 0.2155
C53_2 C 0.6030(11) 0.7634(9) 0.2859(5)
H35_2 H 0.6512 0.6884 0.3020
H36_2 H 0.6685 0.3960 0.2089
C54_2 C 0.6976(12) 0.3858(6) 0.1604(5)
C55_2 C 0.7201(10) 0.4813(8) 0.1325(4)
H37_2 H 0.7061 0.5553 0.1623
H38_2 H 0.5382 0.7812 0.2212
C56_2 C 0.5666(10) 0.7924(8) 0.2653(5)
H39_2 H 0.6163 0.7866 0.3043
H40_2 H 0.6954 0.3434 0.1599
C57_2 C 0.7169(10) 0.4178(8) 0.1318(4)
H41_2 H 0.7330 0.5026 0.1134
C58_2 C 0.5329(9) 0.8525(7) 0.2752(4)
C59_2 C 0.7323(13) 0.376(3) 0.1024(9)
C60_3 C 0.9812(6) 0.5622(9) 0.4715(6)
H42_3 H 0.9690 0.5992 0.4811
N5_2 N 0.4707(5) 0.2643(6) 0.5101(3)
Co6_2 Co 0.38394(10) 0.23170(10) 0.52469(7)
O21_2 O 0.9503(10) 0.5479(8) 0.6621(4)
Co10_2 Co 0.45461(16) 0.04241(19) 0.32386(9)
H45_4 H 0.5864 0.0026 0.3907
C78_4 C 0.6250(13) 0.0003(8) 0.4413(6)
H50_4 H 0.6738 0.0232 0.4443
H51_4 H 0.6024 0.0474 0.4352
H52_4 H 0.6155 0.0063 0.4703
Co17_2 Co 0.54539(16) 0.95759(19) 0.32386(9)
O44_2 O 0.5361(8) 0.8675(6) 0.3049(4)
C37_2 C 0.8148(7) 0.9975(6) 0.5176(5)
H26_2 H 0.6883 0.9869 0.4825
H27_2 H 0.8421 0.9749 0.5306
N6_2 N 0.7620(6) 0.9752(5) 0.5089(4)
O23_4 O 0.6996(3) 0.8005(3) 0.53928(19)
O24_4 O 0.8203(5) 0.8470(5) 0.5100(3)
O25_4 O 0.7001(6) 0.8707(6) 0.4752(3)
O27_2 O 0.6461(6) 0.9225(5) 0.5355(4)
N7_4 N 0.5746(8) 0.9190(6) 0.3697(3)
O29_2 O 0.4521(8) 0.9503(10) 0.3379(4)
Co15_2 Co 0.61606(10) 0.76830(10) 0.52469(7)
C64_4 C 0.8436(7) 0.8064(8) 0.5237(5)
C65_4 C 0.6485(9) 0.8456(10) 0.4637(5)
C66_4 C 0.5827(8) 0.8568(5) 0.3754(3)
C67_4 C 0.5918(8) 0.9610(4) 0.3945(4)
O35_4 O 0.6533(5) 0.6857(5) 0.5149(3)
O36_4 O 0.5936(6) 0.7376(7) 0.5703(4)
O37_4 O 0.6283(8) 0.7975(8) 0.4738(4)
O38_2 O 0.5761(5) 0.8497(4) 0.5341(4)
N8_3 N 0.5293(5) 0.7357(6) 0.5101(3)
O39_4 O 0.7270(6) 0.6703(5) 0.5510(4)
O40_4 O 0.8239(6) 0.7637(7) 0.5436(3)
O41_4 O 0.6724(7) 0.7279(12) 0.6018(4)
N9_4 N 0.8005(5) 0.6949(5) 0.6080(2)
C68_4 C 0.9085(6) 0.7894(6) 0.5117(4)
C69_4 C 0.6252(9) 0.8785(6) 0.4305(3)
C70_4 C 0.6080(9) 0.8365(4) 0.4058(4)
H44_4 H 0.5712 0.8287 0.3588
C71_4 C 0.6171(8) 0.9407(5) 0.4249(3)
C72_4 C 0.7016(7) 0.6523(6) 0.5235(4)
C73_4 C 0.6182(6) 0.7238(8) 0.5983(4)
C74_4 C 0.7852(6) 0.6342(5) 0.6139(3)
C75_4 C 0.8487(6) 0.7216(5) 0.6257(3)
C76_4 C 0.9351(7) 0.7335(7) 0.5209(5)
C77_4 C 0.9431(7) 0.8292(7) 0.4933(5)
H46_4 H 0.6134 0.7949 0.4095
C79_4 C 0.7154(9) 0.5843(6) 0.5131(5)
C80_4 C 0.5822(5) 0.6994(10) 0.6270(3)
C81_4 C 0.8180(8) 0.6001(4) 0.6375(4)
H47_4 H 0.7530 0.6163 0.6021
H48_4 H 0.8590 0.7623 0.6217
C82_4 C 0.8815(6) 0.6876(6) 0.6493(4)
H49_4 H 0.9137 0.7044 0.5334
C83_4 C 0.9938(7) 0.7240(8) 0.5105(5)
C85_4 C 0.9166(11) 0.8915(9) 0.4808(8)
C86_4 C 0.7514(9) 0.5845(7) 0.4841(5)
C87_4 C 0.6879(8) 0.5439(8) 0.5322(5)
C88_4 C 0.6118(5) 0.6866(11) 0.6575(3)
C89_4 C 0.5187(5) 0.7028(10) 0.6260(3)
C90_4 C 0.8662(7) 0.6268(6) 0.6552(3)
C91_4 C 0.7894(12) 0.5632(12) 0.6566(7)
H53_4 H 0.9137 0.7054 0.6611
H56_4 H 0.9009 0.9139 0.4999
H57_4 H 0.9485 0.9148 0.4701
H58_4 H 0.8843 0.8842 0.4648
C92_4 C 0.7577(9) 0.5233(8) 0.4756(5)
H59_4 H 0.7677 0.6182 0.4729
C93_4 C 0.6995(11) 0.4917(8) 0.5172(5)
C94_4 C 0.6523(13) 0.5499(11) 0.5698(5)
H60_4 H 0.6542 0.6843 0.6582
C95_4 C 0.5779(7) 0.6772(10) 0.6869(3)
C96_4 C 0.4848(5) 0.6934(11) 0.6555(3)
H61_4 H 0.4989 0.7113 0.6057
C97_4 C 0.8953(13) 0.5793(10) 0.6779(5)
H62_4 H 0.7692 0.5855 0.6743
H63_4 H 0.7596 0.5413 0.6434
H64_4 H 0.8178 0.5347 0.6664
H65_4 H 0.7817 0.5167 0.4564
H66_4 H 0.6780 0.4598 0.5272
H67_4 H 0.6090 0.5461 0.5666
H68_4 H 0.6663 0.5179 0.5847
H69_4 H 0.6614 0.5889 0.5798
H70_4 H 0.5977 0.6687 0.7073
C98_4 C 0.5144(7) 0.6806(10) 0.6859(3)
H71_4 H 0.4424 0.6957 0.6548
C99_4 C 0.4852(5) 0.6577(7) 0.7197(3)
C100_4 C 0.4251(6) 0.6370(7) 0.7206(3)
C101_4 C 0.5124(4) 0.6808(7) 0.7489(4)
H72_4 H 0.4069 0.6215 0.7011
C102_4 C 0.3922(4) 0.6394(8) 0.7508(4)
H73_4 H 0.5526 0.6947 0.7482
C103_4 C 0.4795(6) 0.6833(8) 0.7791(3)
C104_4 C 0.4194(6) 0.6625(9) 0.7800(3)
C105_4 C 0.3273(8) 0.6059(11) 0.7426(6)
C106_4 C 0.5191(8) 0.6846(11) 0.8096(4)
H74_4 H 0.3974 0.6642 0.8003
C107_4 C 0.3051(10) 0.5662(14) 0.7670(6)
C108_4 C 0.2954(9) 0.6256(11) 0.7146(6)
C109_4 C 0.5826(8) 0.6814(12) 0.8103(4)
C110_4 C 0.4872(6) 0.7039(11) 0.8382(5)
C111_4 C 0.2399(10) 0.5557(13) 0.7607(5)
H75_4 H 0.3279 0.5489 0.7845
C112_4 C 0.2366(9) 0.6030(11) 0.7141(5)
H76_4 H 0.3116 0.6512 0.6980
H77_4 H 0.6040 0.6685 0.7911
C113_4 C 0.6142(6) 0.6976(12) 0.8396(5)
C114_4 C 0.5187(8) 0.7201(10) 0.8675(4)
H78_4 H 0.4447 0.7061 0.8377
H79_4 H 0.2188 0.5382 0.7788
C115_4 C 0.2076(8) 0.5666(10) 0.7347(5)
H80_4 H 0.2134 0.6163 0.6957
H81_4 H 0.6566 0.6954 0.8401
C116_4 C 0.5822(8) 0.7169(10) 0.8682(4)
H82_4 H 0.4974 0.7330 0.8866
O49_3 O 0.1325(6) 0.5361(8) 0.6951(4)
C117_4 C 0.1475(7) 0.5329(9) 0.7248(4)
C118_4 C 0.624(3) 0.7323(13) 0.8976(9)
C37_3 C 0.1852(7) 0.0025(6) 0.5176(5)
H26_3 H 0.3117 0.0131 0.4825
H27_3 H 0.1579 0.0251 0.5306
N6_3 N 0.2380(6) 0.0248(5) 0.5089(4)
O23_5 O 0.3004(3) 0.1995(3) 0.53928(19)
O24_5 O 0.1797(5) 0.1530(5) 0.5100(3)
O25_5 O 0.2999(6) 0.1293(6) 0.4752(3)
O27_3 O 0.3539(6) 0.0775(5) 0.5355(4)
N7_5 N 0.4254(8) 0.0810(6) 0.3697(3)
O30 O 0.4639(8) 0.1325(6) 0.3049(4)
C64_5 C 0.1564(7) 0.1936(8) 0.5237(5)
C65_5 C 0.3515(9) 0.1544(10) 0.4637(5)
C66_5 C 0.4173(8) 0.1432(5) 0.3754(3)
C67_5 C 0.4082(8) 0.0390(4) 0.3945(4)
O35_5 O 0.3467(5) 0.3143(5) 0.5149(3)
O36_5 O 0.4064(6) 0.2624(7) 0.5703(4)
O37_5 O 0.3717(8) 0.2025(8) 0.4738(4)
O38_3 O 0.4239(5) 0.1503(4) 0.5341(4)
O39_5 O 0.2730(6) 0.3297(5) 0.5510(4)
O40_5 O 0.1761(6) 0.2363(7) 0.5436(3)
O41_5 O 0.3276(7) 0.2721(12) 0.6018(4)
N9_5 N 0.1995(5) 0.3051(5) 0.6080(2)
C68_5 C 0.0915(6) 0.2106(6) 0.5117(4)
C69_5 C 0.3748(9) 0.1215(6) 0.4305(3)
C70_5 C 0.3920(9) 0.1635(4) 0.4058(4)
H44_5 H 0.4288 0.1713 0.3588
C71_5 C 0.3829(8) 0.0593(5) 0.4249(3)
C72_5 C 0.2984(7) 0.3477(6) 0.5235(4)
C73_5 C 0.3818(6) 0.2762(8) 0.5983(4)
C74_5 C 0.2148(6) 0.3658(5) 0.6139(3)
C75_5 C 0.1513(6) 0.2784(5) 0.6257(3)
C76_5 C 0.0649(7) 0.2665(7) 0.5209(5)
C77_5 C 0.0569(7) 0.1708(7) 0.4933(5)
H46_5 H 0.3866 0.2051 0.4095
C79_5 C 0.2846(9) 0.4157(6) 0.5131(5)
C80_5 C 0.4178(5) 0.3006(10) 0.6270(3)
C81_5 C 0.1820(8) 0.3999(4) 0.6375(4)
H47_5 H 0.2470 0.3837 0.6021
H48_5 H 0.1410 0.2377 0.6217
C82_5 C 0.1185(6) 0.3124(6) 0.6493(4)
H49_5 H 0.0863 0.2956 0.5334
C83_5 C 0.0062(7) 0.2760(8) 0.5105(5)
C85_5 C 0.0834(11) 0.1085(9) 0.4808(8)
C86_5 C 0.2486(9) 0.4155(7) 0.4841(5)
C87_5 C 0.3121(8) 0.4561(8) 0.5322(5)
C88_5 C 0.3882(5) 0.3134(11) 0.6575(3)
C89_5 C 0.4813(5) 0.2972(10) 0.6260(3)
C90_5 C 0.1338(7) 0.3732(6) 0.6552(3)
C91_5 C 0.2106(12) 0.4368(12) 0.6566(7)
H53_5 H 0.0863 0.2946 0.6611
H56_5 H 0.0991 0.0861 0.4999
H57_5 H 0.0515 0.0852 0.4701
H58_5 H 0.1157 0.1158 0.4648
C92_5 C 0.2423(9) 0.4767(8) 0.4756(5)
H59_5 H 0.2323 0.3818 0.4729
C93_5 C 0.3005(11) 0.5083(8) 0.5172(5)
C94_5 C 0.3477(13) 0.4501(11) 0.5698(5)
H60_5 H 0.3458 0.3157 0.6582
C95_5 C 0.4221(7) 0.3228(10) 0.6869(3)
C96_5 C 0.5152(5) 0.3066(11) 0.6555(3)
H61_5 H 0.5011 0.2887 0.6057
C97_5 C 0.1047(13) 0.4207(10) 0.6779(5)
H62_5 H 0.2308 0.4145 0.6743
H63_5 H 0.2404 0.4587 0.6434
H64_5 H 0.1822 0.4653 0.6664
N11 N 0.2643(6) 0.5293(5) 0.4899(3)
H65_5 H 0.2183 0.4833 0.4564
H66_5 H 0.3220 0.5402 0.5272
H67_5 H 0.3910 0.4539 0.5666
H68_5 H 0.3337 0.4821 0.5847
H69_5 H 0.3386 0.4111 0.5798
H70_5 H 0.4023 0.3313 0.7073
C98_5 C 0.4856(7) 0.3194(10) 0.6859(3)
H71_5 H 0.5576 0.3043 0.6548
C99_5 C 0.5148(5) 0.3423(7) 0.7197(3)
C100_5 C 0.5749(6) 0.3630(7) 0.7206(3)
C101_5 C 0.4876(4) 0.3192(7) 0.7489(4)
H72_5 H 0.5931 0.3785 0.7011
C102_5 C 0.6078(4) 0.3606(8) 0.7508(4)
H73_5 H 0.4474 0.3053 0.7482
C103_5 C 0.5205(6) 0.3167(8) 0.7791(3)
C104_5 C 0.5806(6) 0.3375(9) 0.7800(3)
C105_5 C 0.6727(8) 0.3941(11) 0.7426(6)
C106_5 C 0.4809(8) 0.3154(11) 0.8096(4)
H74_5 H 0.6026 0.3358 0.8003
C107_5 C 0.6949(10) 0.4338(14) 0.7670(6)
C108_5 C 0.7046(9) 0.3744(11) 0.7146(6)
C109_5 C 0.4174(8) 0.3186(12) 0.8103(4)
C110_5 C 0.5128(6) 0.2961(11) 0.8382(5)
C111_5 C 0.7601(10) 0.4443(13) 0.7607(5)
H75_5 H 0.6721 0.4511 0.7845
C112_5 C 0.7634(9) 0.3970(11) 0.7141(5)
H76_5 H 0.6884 0.3488 0.6980
H77_5 H 0.3960 0.3315 0.7911
C113_5 C 0.3858(6) 0.3024(12) 0.8396(5)
C114_5 C 0.4813(8) 0.2799(10) 0.8675(4)
H78_5 H 0.5553 0.2939 0.8377
H79_5 H 0.7812 0.4618 0.7788
C115_5 C 0.7924(8) 0.4334(10) 0.7347(5)
H80_5 H 0.7866 0.3837 0.6957
H81_5 H 0.3434 0.3046 0.8401
C116_5 C 0.4178(8) 0.2831(10) 0.8682(4)
H82_5 H 0.5026 0.2670 0.8866
C117_5 C 0.8525(7) 0.4671(9) 0.7248(4)
C118_5 C 0.376(3) 0.2677(13) 0.8976(9)
O1_3 O 0.1995(3) 0.6996(3) 0.46072(19)
O3_3 O 0.3143(5) 0.6533(5) 0.4851(3)
O4_3 O 0.2624(7) 0.5936(6) 0.4297(4)
O5_3 O 0.2025(8) 0.6283(8) 0.5262(4)
C2_3 C 0.3477(6) 0.7016(7) 0.4765(4)
C3_3 C 0.2762(8) 0.6182(6) 0.4017(4)
C4_3 C 0.1544(10) 0.6485(9) 0.5363(5)
O6_3 O 0.1530(5) 0.8203(5) 0.4900(3)
O8_3 O 0.1293(6) 0.7001(6) 0.5248(3)
O10_3 O 0.3297(5) 0.7270(6) 0.4490(4)
O11_3 O 0.2363(7) 0.8239(6) 0.4564(3)
O12_3 O 0.2721(12) 0.6724(7) 0.3982(4)
N3_3 N 0.3051(5) 0.8005(5) 0.3920(2)
C6_3 C 0.4157(6) 0.7154(9) 0.4869(5)
C7_3 C 0.3006(10) 0.5822(5) 0.3730(3)
C8_3 C 0.1215(6) 0.6252(9) 0.5695(3)
C9_3 C 0.1936(8) 0.8436(7) 0.4763(5)
C10_3 C 0.3658(5) 0.7852(6) 0.3861(3)
C11_3 C 0.2784(5) 0.8487(6) 0.3743(3)
C14_3 C 0.4155(7) 0.7514(9) 0.5159(5)
C15_3 C 0.4561(8) 0.6879(8) 0.4678(5)
C16_3 C 0.3134(11) 0.6118(5) 0.3425(3)
C17_3 C 0.2972(10) 0.5187(5) 0.3740(3)
C18_3 C 0.1635(4) 0.6080(9) 0.5942(4)
C19_3 C 0.0593(5) 0.6171(8) 0.5751(3)
C20_3 C 0.2106(6) 0.9085(6) 0.4883(4)
C21_3 C 0.3999(4) 0.8180(8) 0.3625(4)
H1_3 H 0.3837 0.7530 0.3979
H2_3 H 0.2377 0.8590 0.3783
C22_3 C 0.3124(6) 0.8815(6) 0.3507(4)
C23_3 C 0.4767(8) 0.7577(9) 0.5244(5)
H5_3 H 0.3818 0.7677 0.5271
C24_3 C 0.5083(8) 0.6995(11) 0.4828(5)
C25_3 C 0.4501(11) 0.6523(13) 0.4302(5)
H6_3 H 0.3157 0.6542 0.3418
C26_3 C 0.3228(10) 0.5779(7) 0.3131(3)
C27_3 C 0.3066(11) 0.4848(5) 0.3445(3)
H7_3 H 0.2887 0.4989 0.3943
H8_3 H 0.2051 0.6134 0.5905
C28_3 C 0.1432(5) 0.5827(8) 0.6246(3)
C29_3 C 0.0390(4) 0.5918(8) 0.6055(4)
C31_3 C 0.2665(7) 0.9351(7) 0.4791(5)
C32_3 C 0.1708(7) 0.9431(7) 0.5067(5)
C33_3 C 0.3732(6) 0.8662(7) 0.3448(3)
C34_3 C 0.4368(12) 0.7894(12) 0.3434(7)
H9_3 H 0.2946 0.9137 0.3389
H10_3 H 0.4833 0.7817 0.5436
H11_3 H 0.5402 0.6780 0.4728
H12_3 H 0.4539 0.6090 0.4334
H13_3 H 0.4821 0.6663 0.4153
H14_3 H 0.4111 0.6614 0.4202
H15_3 H 0.3313 0.5977 0.2927
C35_3 C 0.3194(10) 0.5144(7) 0.3141(3)
H16_3 H 0.3043 0.4424 0.3452
H17_3 H 0.1713 0.5712 0.6412
N4_3 N 0.0810(6) 0.5746(8) 0.6303(3)
H22_3 H 0.2956 0.9137 0.4666
C36_3 C 0.2760(8) 0.9938(7) 0.4895(5)
C38_3 C 0.1085(9) 0.9166(11) 0.5192(8)
C39_3 C 0.4207(10) 0.8953(13) 0.3221(5)
H23_3 H 0.4145 0.7692 0.3257
H24_3 H 0.4587 0.7596 0.3566
H25_3 H 0.4653 0.8178 0.3336
C40_3 C 0.3423(7) 0.4852(5) 0.2803(3)
H28_3 H 0.0861 0.9009 0.5001
H29_3 H 0.0852 0.9485 0.5299
H30_3 H 0.1158 0.8843 0.5352
C41_3 C 0.3630(7) 0.4251(6) 0.2794(3)
C42_3 C 0.3192(7) 0.5124(4) 0.2511(4)
H31_3 H 0.3785 0.4069 0.2989
C43_3 C 0.3606(8) 0.3922(4) 0.2492(4)
H32_3 H 0.3053 0.5526 0.2518
C44_3 C 0.3167(8) 0.4795(6) 0.2209(3)
C45_3 C 0.3375(9) 0.4194(6) 0.2200(3)
C46_3 C 0.3941(11) 0.3273(8) 0.2574(6)
C47_3 C 0.3154(11) 0.5191(8) 0.1904(4)
H33_3 H 0.3358 0.3974 0.1997
C48_3 C 0.4338(14) 0.3051(10) 0.2330(6)
C49_3 C 0.3744(11) 0.2954(9) 0.2854(6)
C50_3 C 0.3186(12) 0.5826(8) 0.1897(4)
C51_3 C 0.2961(11) 0.4872(6) 0.1618(5)
C52_3 C 0.4443(13) 0.2399(10) 0.2393(5)
H34_3 H 0.4511 0.3279 0.2155
C53_3 C 0.3970(11) 0.2366(9) 0.2859(5)
H35_3 H 0.3488 0.3116 0.3020
H36_3 H 0.3315 0.6040 0.2089
C54_3 C 0.3024(12) 0.6142(6) 0.1604(5)
C55_3 C 0.2799(10) 0.5187(8) 0.1325(4)
H37_3 H 0.2939 0.4447 0.1623
H38_3 H 0.4618 0.2188 0.2212
C56_3 C 0.4334(10) 0.2076(8) 0.2653(5)
H39_3 H 0.3837 0.2134 0.3043
H40_3 H 0.3046 0.6566 0.1599
C57_3 C 0.2831(10) 0.5822(8) 0.1318(4)
H41_3 H 0.2670 0.4974 0.1134
C58_3 C 0.4671(9) 0.1475(7) 0.2752(4)
C59_3 C 0.2677(13) 0.624(3) 0.1024(9)
H45_5 H 0.4136 0.9974 0.3907
C78_5 C 0.3750(13) 0.9997(8) 0.4413(6)
H50_5 H 0.3262 0.9768 0.4443
H51_5 H 0.3976 0.9526 0.4352
H52_5 H 0.3845 0.9937 0.4703
C84_5 C 0.9975(6) 0.1852(7) 0.4824(5)
H54_5 H 0.9869 0.3117 0.5175
H55_5 H 0.9749 0.1579 0.4694
C30_3 C 0.9997(8) 0.6250(13) 0.5587(6)
H18_3 H 0.9974 0.5864 0.6093
H19_3 H 0.9768 0.6738 0.5557
H20_3 H 0.9526 0.6024 0.5648
H21_3 H 0.9937 0.6155 0.5297
C13_4 C 0.5622(9) 0.0188(6) 0.5285(6)
H4_4 H 0.5992 0.0310 0.5189
C61_4 C 0.5128(9) 0.0583(7) 0.5394(5)
C62_4 C 0.4582(7) 0.0464(6) 0.5357(5)
H43_4 H 0.5230 0.0950 0.5498
C63_4 C 0.4068(7) 0.0942(6) 0.5363(4)
C1_4 C 0.5932(7) 0.9058(6) 0.5363(4)
C5_4 C 0.5418(7) 0.9536(6) 0.5357(5)
C12_4 C 0.4872(9) 0.9417(7) 0.5394(5)
H3_4 H 0.4770 0.9050 0.5498
C60_4 C 0.4378(9) 0.9812(6) 0.5285(6)
H42_4 H 0.4008 0.9690 0.5189
loop_
_geom_bond_atom_site_label_1
_geom_bond_atom_site_label_2
_geom_bond_site_symmetry_1
_geom_bond_site_symmetry_2
H3 C12 1_555 1_555
H16 C27 1_555 1_555
C41 C40 1_555 1_555
H31 C41 1_555 1_555
C43 C41 1_555 1_555
C45 C43 1_555 1_555
C46 C43 1_555 1_555
H33 C45 1_555 1_555
C48 C46 1_555 1_555
C49 C46 1_555 1_555
C52 C48 1_555 1_555
H34 C48 1_555 1_555
C53 C49 1_555 1_555
H35 C49 1_555 1_555
H37 C51 1_555 1_555
H38 C52 1_555 1_555
C56 C52 1_555 1_555
H39 C53 1_555 1_555
C58 C56 1_555 1_555
C60 C12 1_555 1_555
C62 C60 1_555 1_555
H42 C60 1_555 1_555
C63 C62 1_555 1_555
O19 C63 1_555 1_555
O20 C63 1_555 1_555
Co11 O19 1_555 1_555
Co12 O20 1_555 1_555
Co17 O44 1_555 1_555
O43 C58 1_555 1_555
O44 C58 1_555 1_555
C44 C45 1_555 1_555
C53 C56 1_555 1_555
Co13 O16 1_555 1_555
O31 Co13 1_555 1_555
O32 Co13 1_555 1_555
O33 Co13 1_555 1_555
O34 Co13 1_555 1_555
O16 Co7 1_555 1_555
Co7 O21 1_555 1_555
Co1 O1 1_555 1_555
O1 Co2 1_555 1_555
O2 Co1 1_555 1_555
O3 Co1 1_555 1_555
O4 Co1 1_555 1_555
N1 Co1 1_555 1_555
Co2 O6 1_555 1_555
Co3 O1 1_555 1_555
C1 O2 1_555 1_555
C2 O3 1_555 1_555
C3 O4 1_555 1_555
O6 C9 1_555 1_555
O7 Co2 1_555 1_555
N2 Co2 1_555 1_555
O9 Co2 1_555 1_555
O10 Co3 1_555 1_555
O11 Co3 1_555 1_555
O12 Co3 1_555 1_555
N3 Co3 1_555 1_555
O13 Co3 1_555 1_555
C5 C1 1_555 1_555
C6 C2 1_555 1_555
C7 C3 1_555 1_555
C9 O11 1_555 1_555
C10 N3 1_555 1_555
C11 N3 1_555 1_555
C13 C5 1_555 1_555
C15 C6 1_555 1_555
C16 C7 1_555 1_555
C17 C7 1_555 1_555
C20 C9 1_555 1_555
C21 C10 1_555 1_555
H1 C10 1_555 1_555
H2 C11 1_555 1_555
C22 C11 1_555 1_555
H4 C13 1_555 1_555
C25 C15 1_555 1_555
H6 C16 1_555 1_555
C26 C16 1_555 1_555
C31 C20 1_555 1_555
C33 C21 1_555 1_555
C34 C21 1_555 1_555
H9 C22 1_555 1_555
H12 C25 1_555 1_555
H13 C25 1_555 1_555
H14 C25 1_555 1_555
H15 C26 1_555 1_555
C35 C26 1_555 1_555
H22 C31 1_555 1_555
C36 C31 1_555 1_555
C39 C33 1_555 1_555
H23 C34 1_555 1_555
H24 C34 1_555 1_555
H25 C34 1_555 1_555
H26 C36 1_555 1_555
O14 C39 1_555 1_555
O15 C39 1_555 1_555
Co5 O14 1_555 1_555
H32 C42 1_555 1_555
C50 C47 1_555 1_555
H36 C50 1_555 1_555
C54 C50 1_555 1_555
H40 C54 1_555 1_555
C57 C54 1_555 1_555
C59 C57 1_555 1_555
C61 C13 1_555 1_555
H43 C61 1_555 1_555
Co17 O15 1_555 1_555
O28 Co5 1_555 1_555
N7 Co17 1_555 1_555
C65 O25 1_555 1_555
C66 N7 1_555 1_555
C67 N7 1_555 1_555
C69 C65 1_555 1_555
C70 C66 1_555 1_555
H44 C66 1_555 1_555
H45 C67 1_555 1_555
C71 C67 1_555 1_555
H46 C70 1_555 1_555
C78 C71 1_555 1_555
C84 C77 1_555 1_555
C85 C77 1_555 1_555
H50 C78 1_555 1_555
H51 C78 1_555 1_555
H52 C78 1_555 1_555
H55 C84 1_555 1_555
H56 C85 1_555 1_555
H57 C85 1_555 1_555
H58 C85 1_555 1_555
O45 C59 1_555 1_555
O46 C59 1_555 1_555
C92 C86 1_555 1_555
H59 C86 1_555 1_555
Co12 N10 1_555 1_555
Co19 O46 1_555 1_555
Co21 O45 1_555 1_555
H65 C92 1_555 1_555
C1 O7 1_555 1_555
C2 O10 1_555 1_555
C3 O12 1_555 1_555
C22 C33 1_555 1_555
C55 C57 1_555 1_555
Co17 O28 1_555 1_555
C65 O37 1_555 1_555
C69 C70 1_555 1_555
C69 C71 1_555 1_555
C84 N10 1_555 1_555
C4 O5 1_555 1_555
C8 C4 1_555 1_555
C18 C8 1_555 1_555
C19 C8 1_555 1_555
C23 C14 1_555 1_555
H5 C14 1_555 1_555
H8 C18 1_555 1_555
C28 C18 1_555 1_555
C29 C19 1_555 1_555
C30 C19 1_555 1_555
H10 C23 1_555 1_555
H17 C28 1_555 1_555
N4 C28 1_555 1_555
H18 C29 1_555 1_555
H19 C30 1_555 1_555
H20 C30 1_555 1_555
H21 C30 1_555 1_555
C37 C32 1_555 1_555
C38 C32 1_555 1_555
Co4 N4 1_555 1_555
H27 C37 1_555 1_555
H28 C38 1_555 1_555
H29 C38 1_555 1_555
H30 C38 1_555 1_555
O16_2 Co4 1_555 1_555
O17 Co4 1_555 1_555
O22 Co4 1_555 1_555
Co8 N6 1_555 1_555
Co14 O16_2 1_555 1_555
O23 Co8 1_555 1_555
O24 Co8 1_555 1_555
O26 Co8 1_555 1_555
O27 Co8 1_555 1_555
Co15 O23 1_555 1_555
Co16 O23 1_555 1_555
C64 O24 1_555 1_555
O35 Co15 1_555 1_555
O36 Co15 1_555 1_555
O38 Co15 1_555 1_555
N8 Co15 1_555 1_555
O39 Co16 1_555 1_555
O40 Co16 1_555 1_555
O41 Co16 1_555 1_555
N9 Co16 1_555 1_555
O42 Co16 1_555 1_555
C68 C64 1_555 1_555
C72 O35 1_555 1_555
C73 O36 1_555 1_555
C74 N9 1_555 1_555
C75 N9 1_555 1_555
C76 C68 1_555 1_555
C79 C72 1_555 1_555
C80 C73 1_555 1_555
C81 C74 1_555 1_555
H47 C74 1_555 1_555
H48 C75 1_555 1_555
C82 C75 1_555 1_555
H49 C76 1_555 1_555
C83 C76 1_555 1_555
C87 C79 1_555 1_555
C88 C80 1_555 1_555
C89 C80 1_555 1_555
C90 C81 1_555 1_555
C91 C81 1_555 1_555
H53 C82 1_555 1_555
H54 C83 1_555 1_555
C94 C87 1_555 1_555
H60 C88 1_555 1_555
C95 C88 1_555 1_555
C97 C90 1_555 1_555
H62 C91 1_555 1_555
H63 C91 1_555 1_555
H64 C91 1_555 1_555
H67 C94 1_555 1_555
H68 C94 1_555 1_555
H69 C94 1_555 1_555
H70 C95 1_555 1_555
C98 C95 1_555 1_555
O33 C97 1_555 1_555
O21 C97 1_555 1_555
H73 C101 1_555 1_555
C109 C106 1_555 1_555
H77 C109 1_555 1_555
C113 C109 1_555 1_555
H81 C113 1_555 1_555
C116 C113 1_555 1_555
C118 C116 1_555 1_555
Co27 O52 1_555 1_555
O51 C118 1_555 1_555
O52 C118 1_555 1_555
Co29 O51 1_555 1_555
C4 O8 1_555 1_555
C29 N4 1_555 1_555
C37 N6 1_555 1_555
Co14 O31_2 1_555 1_555
C64 O40 1_555 1_555
O39 C72 1_555 1_555
O41 C73 1_555 1_555
C82 C90 1_555 1_555
C114 C116 1_555 1_555
H11 C24 1_555 1_555
Co10 O28_2 1_555 1_555
Co10 O29 1_555 1_555
Co6 N5 1_555 1_555
H71 C96 1_555 1_555
C100 C99 1_555 1_555
H72 C100 1_555 1_555
C102 C100 1_555 1_555
C104 C102 1_555 1_555
C105 C102 1_555 1_555
H74 C104 1_555 1_555
C107 C105 1_555 1_555
C108 C105 1_555 1_555
C111 C107 1_555 1_555
H75 C107 1_555 1_555
C112 C108 1_555 1_555
H76 C108 1_555 1_555
H78 C110 1_555 1_555
Co7 O49 1_555 1_555
H79 C111 1_555 1_555
C115 C111 1_555 1_555
H80 C112 1_555 1_555
O49 C117 1_555 1_555
C117 C115 1_555 1_555
O50 C117 1_555 1_555
C103 C104 1_555 1_555
C112 C115 1_555 1_555
H66 C93 1_555 1_555
H66_2 C93_2 1_555 1_555
O23_2 Co12 1_555 1_555
O24_2 Co12 1_555 1_555
O26_2 Co12 1_555 1_555
Co11 O23_2 1_555 1_555
Co16_2 O23_2 1_555 1_555
C64_2 O24_2 1_555 1_555
O35_2 Co11 1_555 1_555
O36_2 Co11 1_555 1_555
N8_2 Co11 1_555 1_555
O39_2 Co16_2 1_555 1_555
O40_2 Co16_2 1_555 1_555
O41_2 Co16_2 1_555 1_555
N9_2 Co16_2 1_555 1_555
O42_2 Co16_2 1_555 1_555
C68_2 C64_2 1_555 1_555
C72_2 O35_2 1_555 1_555
C73_2 O36_2 1_555 1_555
C74_2 N9_2 1_555 1_555
C75_2 N9_2 1_555 1_555
C76_2 C68_2 1_555 1_555
C79_2 C72_2 1_555 1_555
C80_2 C73_2 1_555 1_555
C81_2 C74_2 1_555 1_555
H47_2 C74_2 1_555 1_555
H48_2 C75_2 1_555 1_555
C82_2 C75_2 1_555 1_555
H49_2 C76_2 1_555 1_555
C83_2 C76_2 1_555 1_555
C87_2 C79_2 1_555 1_555
C88_2 C80_2 1_555 1_555
C89_2 C80_2 1_555 1_555
C90_2 C81_2 1_555 1_555
C91_2 C81_2 1_555 1_555
H53_2 C82_2 1_555 1_555
H54_2 C83_2 1_555 1_555
C94_2 C87_2 1_555 1_555
H60_2 C88_2 1_555 1_555
C95_2 C88_2 1_555 1_555
C97_2 C90_2 1_555 1_555
H62_2 C91_2 1_555 1_555
H63_2 C91_2 1_555 1_555
H64_2 C91_2 1_555 1_555
H67_2 C94_2 1_555 1_555
H68_2 C94_2 1_555 1_555
H69_2 C94_2 1_555 1_555
H70_2 C95_2 1_555 1_555
C98_2 C95_2 1_555 1_555
O47 C97_2 1_555 1_555
O29 C97_2 1_555 1_555
Co20 O47 1_555 1_555
H73_2 C101_2 1_555 1_555
C109_2 C106_2 1_555 1_555
H77_2 C109_2 1_555 1_555
C113_2 C109_2 1_555 1_555
H81_2 C113_2 1_555 1_555
C116_2 C113_2 1_555 1_555
C118_2 C116_2 1_555 1_555
Co27_2 O52_2 1_555 1_555
O51_2 C118_2 1_555 1_555
O52_2 C118_2 1_555 1_555
Co29_2 O51_2 1_555 1_555
Co5 O31_3 1_555 1_555
C64_2 O40_2 1_555 1_555
O39_2 C72_2 1_555 1_555
O41_2 C73_2 1_555 1_555
C82_2 C90_2 1_555 1_555
C114_2 C116_2 1_555 1_555
C1_2 O38 1_555 1_555
C5_2 C1_2 1_555 1_555
C13_2 C5_2 1_555 1_555
H4_2 C13_2 1_555 1_555
C61_2 C13_2 1_555 1_555
H43_2 C61_2 1_555 1_555
N7_2 Co7 1_555 1_555
C65_2 O25_2 1_555 1_555
C66_2 N7_2 1_555 1_555
C67_2 N7_2 1_555 1_555
C69_2 C65_2 1_555 1_555
C70_2 C66_2 1_555 1_555
H44_2 C66_2 1_555 1_555
H45_2 C67_2 1_555 1_555
C71_2 C67_2 1_555 1_555
H46_2 C70_2 1_555 1_555
C78_2 C71_2 1_555 1_555
C84_2 C77_2 1_555 1_555
C85_2 C77_2 1_555 1_555
H50_2 C78_2 1_555 1_555
H51_2 C78_2 1_555 1_555
H52_2 C78_2 1_555 1_555
H55_2 C84_2 1_555 1_555
H56_2 C85_2 1_555 1_555
H57_2 C85_2 1_555 1_555
H58_2 C85_2 1_555 1_555
C92_2 C86_2 1_555 1_555
H59_2 C86_2 1_555 1_555
Co18 N10_2 1_555 1_555
H65_2 C92_2 1_555 1_555
C1_2 O27 1_555 1_555
C65_2 O37_2 1_555 1_555
C69_2 C70_2 1_555 1_555
C69_2 C71_2 1_555 1_555
C84_2 N10_2 1_555 1_555
Co20 O28_2 1_555 1_555
O31_4 Co20 1_555 1_555
O32_2 Co20 1_555 1_555
O34_2 Co20 1_555 1_555
H3_2 C12_2 1_555 1_555
C60_2 C12_2 1_555 1_555
C62_2 C60_2 1_555 1_555
H42_2 C60_2 1_555 1_555
C63_2 C62_2 1_555 1_555
O19_2 C63_2 1_555 1_555
O20_2 C63_2 1_555 1_555
Co6 O19_2 1_555 1_555
Co18 O20_2 1_555 1_555
H71_2 C96_2 1_555 1_555
C100_2 C99_2 1_555 1_555
H72_2 C100_2 1_555 1_555
C102_2 C100_2 1_555 1_555
C104_2 C102_2 1_555 1_555
C105_2 C102_2 1_555 1_555
H74_2 C104_2 1_555 1_555
C107_2 C105_2 1_555 1_555
C108_2 C105_2 1_555 1_555
C111_2 C107_2 1_555 1_555
H75_2 C107_2 1_555 1_555
C112_2 C108_2 1_555 1_555
H76_2 C108_2 1_555 1_555
H78_2 C110_2 1_555 1_555
Co10 O49_2 1_555 1_555
H79_2 C111_2 1_555 1_555
C115_2 C111_2 1_555 1_555
H80_2 C112_2 1_555 1_555
O49_2 C117_2 1_555 1_555
C117_2 C115_2 1_555 1_555
O50_2 C117_2 1_555 1_555
C103_2 C104_2 1_555 1_555
C112_2 C115_2 1_555 1_555
H66_3 C93_3 1_555 1_555
H71_3 C96_3 1_555 1_555
C100_3 C99_3 1_555 1_555
H72_3 C100_3 1_555 1_555
C102_3 C100_3 1_555 1_555
C104_3 C102_3 1_555 1_555
C105_3 C102_3 1_555 1_555
H74_3 C104_3 1_555 1_555
C107_3 C105_3 1_555 1_555
C108_3 C105_3 1_555 1_555
C111_3 C107_3 1_555 1_555
H75_3 C107_3 1_555 1_555
C112_3 C108_3 1_555 1_555
H76_3 C108_3 1_555 1_555
H78_3 C110_3 1_555 1_555
H79_3 C111_3 1_555 1_555
C115_3 C111_3 1_555 1_555
H80_3 C112_3 1_555 1_555
O17 C117_3 1_555 1_555
C117_3 C115_3 1_555 1_555
O18 C117_3 1_555 1_555
C103_3 C104_3 1_555 1_555
C112_3 C115_3 1_555 1_555
N7_3 Co10 1_555 1_555
C65_3 O25_3 1_555 1_555
C66_3 N7_3 1_555 1_555
C67_3 N7_3 1_555 1_555
C69_3 C65_3 1_555 1_555
C70_3 C66_3 1_555 1_555
H44_3 C66_3 1_555 1_555
H45_3 C67_3 1_555 1_555
C71_3 C67_3 1_555 1_555
H46_3 C70_3 1_555 1_555
C78_3 C71_3 1_555 1_555
C84_3 C77_3 1_555 1_555
C85_3 C77_3 1_555 1_555
H50_3 C78_3 1_555 1_555
H51_3 C78_3 1_555 1_555
H52_3 C78_3 1_555 1_555
H55_3 C84_3 1_555 1_555
H56_3 C85_3 1_555 1_555
H57_3 C85_3 1_555 1_555
H58_3 C85_3 1_555 1_555
C92_3 C86_3 1_555 1_555
H59_3 C86_3 1_555 1_555
H65_3 C92_3 1_555 1_555
C65_3 O37_3 1_555 1_555
C69_3 C70_3 1_555 1_555
C69_3 C71_3 1_555 1_555
C84_3 N2 1_555 1_555
O23_3 Co18 1_555 1_555
O24_3 Co18 1_555 1_555
O26_3 Co18 1_555 1_555
Co6 O23_3 1_555 1_555
Co16_3 O23_3 1_555 1_555
C64_3 O24_3 1_555 1_555
O35_3 Co6 1_555 1_555
O36_3 Co6 1_555 1_555
O39_3 Co16_3 1_555 1_555
O40_3 Co16_3 1_555 1_555
O41_3 Co16_3 1_555 1_555
N9_3 Co16_3 1_555 1_555
O42_3 Co16_3 1_555 1_555
C68_3 C64_3 1_555 1_555
C72_3 O35_3 1_555 1_555
C73_3 O36_3 1_555 1_555
C74_3 N9_3 1_555 1_555
C75_3 N9_3 1_555 1_555
C76_3 C68_3 1_555 1_555
C79_3 C72_3 1_555 1_555
C80_3 C73_3 1_555 1_555
C81_3 C74_3 1_555 1_555
H47_3 C74_3 1_555 1_555
H48_3 C75_3 1_555 1_555
C82_3 C75_3 1_555 1_555
H49_3 C76_3 1_555 1_555
C83_3 C76_3 1_555 1_555
C87_3 C79_3 1_555 1_555
C88_3 C80_3 1_555 1_555
C89_3 C80_3 1_555 1_555
C90_3 C81_3 1_555 1_555
C91_3 C81_3 1_555 1_555
H53_3 C82_3 1_555 1_555
H54_3 C83_3 1_555 1_555
C94_3 C87_3 1_555 1_555
H60_3 C88_3 1_555 1_555
C95_3 C88_3 1_555 1_555
C97_3 C90_3 1_555 1_555
H62_3 C91_3 1_555 1_555
H63_3 C91_3 1_555 1_555
H64_3 C91_3 1_555 1_555
H67_3 C94_3 1_555 1_555
H68_3 C94_3 1_555 1_555
H69_3 C94_3 1_555 1_555
H70_3 C95_3 1_555 1_555
C98_3 C95_3 1_555 1_555
O47_2 C97_3 1_555 1_555
O22 C97_3 1_555 1_555
Co14 O47_2 1_555 1_555
H73_3 C101_3 1_555 1_555
C109_3 C106_3 1_555 1_555
H77_3 C109_3 1_555 1_555
C113_3 C109_3 1_555 1_555
H81_3 C113_3 1_555 1_555
C116_3 C113_3 1_555 1_555
C118_3 C116_3 1_555 1_555
Co27_3 O52_3 1_555 1_555
O51_3 C118_3 1_555 1_555
O52_3 C118_3 1_555 1_555
Co29_3 O51_3 1_555 1_555
C64_3 O40_3 1_555 1_555
O39_3 C72_3 1_555 1_555
O41_3 C73_3 1_555 1_555
C82_3 C90_3 1_555 1_555
C114_3 C116_3 1_555 1_555
O32_3 Co14 1_555 1_555
O34_3 Co14 1_555 1_555
O32_4 Co5 1_555 1_555
O34_4 Co5 1_555 1_555
H4_3 C13_3 1_555 1_555
H19_2 C30_2 1_555 1_555
H20_2 C30_2 1_555 1_555
H21_2 C30_2 1_555 1_555
C61_3 C13_3 1_555 1_555
H43_3 C61_3 1_555 1_555
C63_3 C62_3 1_555 1_555
O19_3 C63_3 1_555 1_555
O20_3 C63_3 1_555 1_555
Co11_2 O19_3 1_555 1_555
Co29_2 O20_3 1_555 1_555
O31 Co7_2 1_555 1_555
C61_3 C62_3 1_555 1_555
Co7_2 O22_2 1_555 1_555
H55_4 C84_4 1_555 1_555
Co29_2 N10_3 1_555 1_555
C84_4 N10_3 1_555 1_555
Co1_2 O1_2 1_555 1_555
O1_2 Co21 1_555 1_555
O2_2 Co1_2 1_555 1_555
O3_2 Co1_2 1_555 1_555
O4_2 Co1_2 1_555 1_555
O5_2 Co1_2 1_555 1_555
N1_2 Co1_2 1_555 1_555
Co21 O6_2 1_555 1_555
Co19 O1_2 1_555 1_555
C1_3 O2_2 1_555 1_555
C2_2 O3_2 1_555 1_555
C3_2 O4_2 1_555 1_555
C4_2 O5_2 1_555 1_555
O6_2 C9_2 1_555 1_555
O7_2 Co21 1_555 1_555
O8_2 Co21 1_555 1_555
N2_2 Co21 1_555 1_555
O10_2 Co19 1_555 1_555
O11_2 Co19 1_555 1_555
O12_2 Co19 1_555 1_555
N3_2 Co19 1_555 1_555
C5_3 C1_3 1_555 1_555
C6_2 C2_2 1_555 1_555
C7_2 C3_2 1_555 1_555
C8_2 C4_2 1_555 1_555
C9_2 O11_2 1_555 1_555
C10_2 N3_2 1_555 1_555
C11_2 N3_2 1_555 1_555
C12_3 C5_3 1_555 1_555
C14_2 C6_2 1_555 1_555
C15_2 C6_2 1_555 1_555
C16_2 C7_2 1_555 1_555
C17_2 C7_2 1_555 1_555
C18_2 C8_2 1_555 1_555
C19_2 C8_2 1_555 1_555
C20_2 C9_2 1_555 1_555
C21_2 C10_2 1_555 1_555
H1_2 C10_2 1_555 1_555
H2_2 C11_2 1_555 1_555
C22_2 C11_2 1_555 1_555
H3_3 C12_3 1_555 1_555
C23_2 C14_2 1_555 1_555
H5_2 C14_2 1_555 1_555
C24_2 C15_2 1_555 1_555
C25_2 C15_2 1_555 1_555
H6_2 C16_2 1_555 1_555
C26_2 C16_2 1_555 1_555
C27_2 C17_2 1_555 1_555
H7_2 C17_2 1_555 1_555
H8_2 C18_2 1_555 1_555
C28_2 C18_2 1_555 1_555
C29_2 C19_2 1_555 1_555
C31_2 C20_2 1_555 1_555
C32_2 C20_2 1_555 1_555
C33_2 C21_2 1_555 1_555
C34_2 C21_2 1_555 1_555
H9_2 C22_2 1_555 1_555
H10_2 C23_2 1_555 1_555
H11_2 C24_2 1_555 1_555
H12_2 C25_2 1_555 1_555
H13_2 C25_2 1_555 1_555
H14_2 C25_2 1_555 1_555
H15_2 C26_2 1_555 1_555
C35_2 C26_2 1_555 1_555
H16_2 C27_2 1_555 1_555
H17_2 C28_2 1_555 1_555
N4_2 C28_2 1_555 1_555
H22_2 C31_2 1_555 1_555
C36_2 C31_2 1_555 1_555
C38_2 C32_2 1_555 1_555
C39_2 C33_2 1_555 1_555
H23_2 C34_2 1_555 1_555
H24_2 C34_2 1_555 1_555
H25_2 C34_2 1_555 1_555
C40_2 C35_2 1_555 1_555
Co4_2 N4_2 1_555 1_555
H28_2 C38_2 1_555 1_555
H29_2 C38_2 1_555 1_555
H30_2 C38_2 1_555 1_555
O34_4 C39_2 1_555 1_555
O15_2 C39_2 1_555 1_555
C41_2 C40_2 1_555 1_555
C42_2 C40_2 1_555 1_555
O31_2 Co4_2 1_555 1_555
O17_2 Co4_2 1_555 1_555
H31_2 C41_2 1_555 1_555
C43_2 C41_2 1_555 1_555
H32_2 C42_2 1_555 1_555
C44_2 C42_2 1_555 1_555
C45_2 C43_2 1_555 1_555
C46_2 C43_2 1_555 1_555
C47_2 C44_2 1_555 1_555
H33_2 C45_2 1_555 1_555
C48_2 C46_2 1_555 1_555
C49_2 C46_2 1_555 1_555
C50_2 C47_2 1_555 1_555
C51_2 C47_2 1_555 1_555
C52_2 C48_2 1_555 1_555
H34_2 C48_2 1_555 1_555
C53_2 C49_2 1_555 1_555
H35_2 C49_2 1_555 1_555
H36_2 C50_2 1_555 1_555
C54_2 C50_2 1_555 1_555
C55_2 C51_2 1_555 1_555
H37_2 C51_2 1_555 1_555
H38_2 C52_2 1_555 1_555
C56_2 C52_2 1_555 1_555
H39_2 C53_2 1_555 1_555
H40_2 C54_2 1_555 1_555
C57_2 C54_2 1_555 1_555
H41_2 C55_2 1_555 1_555
C58_2 C56_2 1_555 1_555
C59_2 C57_2 1_555 1_555
C60_3 C12_3 1_555 1_555
H42_3 C60_3 1_555 1_555
N5_2 C23_2 1_555 1_555
Co6_2 N5_2 1_555 1_555
O21_2 Co4_2 1_555 1_555
Co10_2 O15_2 1_555 1_555
H50_4 C78_4 1_555 1_555
H51_4 C78_4 1_555 1_555
H52_4 C78_4 1_555 1_555
Co17_2 O44_2 1_555 1_555
O32_2 C58_2 1_555 1_555
O44_2 C58_2 1_555 1_555
O9 C59_2 1_555 1_555
O13 C59_2 1_555 1_555
C1_3 O7_2 1_555 1_555
C2_2 O10_2 1_555 1_555
C3_2 O12_2 1_555 1_555
C4_2 O8_2 1_555 1_555
C22_2 C33_2 1_555 1_555
C24_2 N5_2 1_555 1_555
C27_2 C35_2 1_555 1_555
C29_2 N4_2 1_555 1_555
C44_2 C45_2 1_555 1_555
C53_2 C56_2 1_555 1_555
C55_2 C57_2 1_555 1_555
Co10_2 O31_3 1_555 1_555
H27_2 C37_2 1_555 1_555
Co29_3 N6_2 1_555 1_555
O23_4 Co29_3 1_555 1_555
O24_4 Co29_3 1_555 1_555
O25_4 Co29_3 1_555 1_555
O27_2 Co29_3 1_555 1_555
N7_4 Co17_2 1_555 1_555
O29_2 Co17_2 1_555 1_555
Co15_2 O23_4 1_555 1_555
Co27_3 O23_4 1_555 1_555
C64_4 O24_4 1_555 1_555
C65_4 O25_4 1_555 1_555
C66_4 N7_4 1_555 1_555
C67_4 N7_4 1_555 1_555
O35_4 Co15_2 1_555 1_555
O36_4 Co15_2 1_555 1_555
O37_4 Co15_2 1_555 1_555
O38_2 Co15_2 1_555 1_555
N8_3 Co15_2 1_555 1_555
O39_4 Co27_3 1_555 1_555
O40_4 Co27_3 1_555 1_555
O41_4 Co27_3 1_555 1_555
N9_4 Co27_3 1_555 1_555
C68_4 C64_4 1_555 1_555
C69_4 C65_4 1_555 1_555
C70_4 C66_4 1_555 1_555
H44_4 C66_4 1_555 1_555
C71_4 C67_4 1_555 1_555
C72_4 O35_4 1_555 1_555
C73_4 O36_4 1_555 1_555
C74_4 N9_4 1_555 1_555
C75_4 N9_4 1_555 1_555
C76_4 C68_4 1_555 1_555
C77_4 C68_4 1_555 1_555
H46_4 C70_4 1_555 1_555
C79_4 C72_4 1_555 1_555
C80_4 C73_4 1_555 1_555
C81_4 C74_4 1_555 1_555
H47_4 C74_4 1_555 1_555
H48_4 C75_4 1_555 1_555
C82_4 C75_4 1_555 1_555
H49_4 C76_4 1_555 1_555
C83_4 C76_4 1_555 1_555
C85_4 C77_4 1_555 1_555
C86_4 C79_4 1_555 1_555
C87_4 C79_4 1_555 1_555
C88_4 C80_4 1_555 1_555
C89_4 C80_4 1_555 1_555
C90_4 C81_4 1_555 1_555
C91_4 C81_4 1_555 1_555
H53_4 C82_4 1_555 1_555
H56_4 C85_4 1_555 1_555
H57_4 C85_4 1_555 1_555
H58_4 C85_4 1_555 1_555
C92_4 C86_4 1_555 1_555
H59_4 C86_4 1_555 1_555
C93_4 C87_4 1_555 1_555
C94_4 C87_4 1_555 1_555
H60_4 C88_4 1_555 1_555
C95_4 C88_4 1_555 1_555
C96_4 C89_4 1_555 1_555
H61_4 C89_4 1_555 1_555
C97_4 C90_4 1_555 1_555
H62_4 C91_4 1_555 1_555
H63_4 C91_4 1_555 1_555
H64_4 C91_4 1_555 1_555
N1_2 C92_4 1_555 1_555
H65_4 C92_4 1_555 1_555
H66_4 C93_4 1_555 1_555
H67_4 C94_4 1_555 1_555
H68_4 C94_4 1_555 1_555
H69_4 C94_4 1_555 1_555
H70_4 C95_4 1_555 1_555
C98_4 C95_4 1_555 1_555
H71_4 C96_4 1_555 1_555
O34_3 C97_4 1_555 1_555
O21_2 C97_4 1_555 1_555
C99_4 C98_4 1_555 1_555
C100_4 C99_4 1_555 1_555
C101_4 C99_4 1_555 1_555
H72_4 C100_4 1_555 1_555
C102_4 C100_4 1_555 1_555
H73_4 C101_4 1_555 1_555
C103_4 C101_4 1_555 1_555
C104_4 C102_4 1_555 1_555
C105_4 C102_4 1_555 1_555
C106_4 C103_4 1_555 1_555
H74_4 C104_4 1_555 1_555
C107_4 C105_4 1_555 1_555
C108_4 C105_4 1_555 1_555
C109_4 C106_4 1_555 1_555
C110_4 C106_4 1_555 1_555
C111_4 C107_4 1_555 1_555
H75_4 C107_4 1_555 1_555
C112_4 C108_4 1_555 1_555
H76_4 C108_4 1_555 1_555
H77_4 C109_4 1_555 1_555
C113_4 C109_4 1_555 1_555
C114_4 C110_4 1_555 1_555
H78_4 C110_4 1_555 1_555
Co7_2 O49_3 1_555 1_555
H79_4 C111_4 1_555 1_555
C115_4 C111_4 1_555 1_555
H80_4 C112_4 1_555 1_555
H81_4 C113_4 1_555 1_555
C116_4 C113_4 1_555 1_555
H82_4 C114_4 1_555 1_555
O49_3 C117_4 1_555 1_555
C117_4 C115_4 1_555 1_555
C118_4 C116_4 1_555 1_555
O32 C117_4 1_555 1_555
O26_3 C118_4 1_555 1_555
O42_3 C118_4 1_555 1_555
C37_2 N6_2 1_555 1_555
Co17_2 O31_4 1_555 1_555
C64_4 O40_4 1_555 1_555
C65_4 O37_4 1_555 1_555
O39_4 C72_4 1_555 1_555
O41_4 C73_4 1_555 1_555
C69_4 C70_4 1_555 1_555
C69_4 C71_4 1_555 1_555
C82_4 C90_4 1_555 1_555
C93_4 N1_2 1_555 1_555
C96_4 C98_4 1_555 1_555
C103_4 C104_4 1_555 1_555
C112_4 C115_4 1_555 1_555
C114_4 C116_4 1_555 1_555
H27_3 C37_3 1_555 1_555
Co29 N6_3 1_555 1_555
O23_5 Co29 1_555 1_555
O24_5 Co29 1_555 1_555
O25_5 Co29 1_555 1_555
O27_3 Co29 1_555 1_555
N7_5 Co10_2 1_555 1_555
O30 Co10_2 1_555 1_555
Co6_2 O23_5 1_555 1_555
Co27 O23_5 1_555 1_555
C64_5 O24_5 1_555 1_555
C65_5 O25_5 1_555 1_555
C66_5 N7_5 1_555 1_555
C67_5 N7_5 1_555 1_555
O35_5 Co6_2 1_555 1_555
O36_5 Co6_2 1_555 1_555
O37_5 Co6_2 1_555 1_555
O38_3 Co6_2 1_555 1_555
O39_5 Co27 1_555 1_555
O40_5 Co27 1_555 1_555
O41_5 Co27 1_555 1_555
N9_5 Co27 1_555 1_555
C68_5 C64_5 1_555 1_555
C69_5 C65_5 1_555 1_555
C70_5 C66_5 1_555 1_555
H44_5 C66_5 1_555 1_555
C71_5 C67_5 1_555 1_555
C72_5 O35_5 1_555 1_555
C73_5 O36_5 1_555 1_555
C74_5 N9_5 1_555 1_555
C75_5 N9_5 1_555 1_555
C76_5 C68_5 1_555 1_555
C77_5 C68_5 1_555 1_555
H46_5 C70_5 1_555 1_555
C79_5 C72_5 1_555 1_555
C80_5 C73_5 1_555 1_555
C81_5 C74_5 1_555 1_555
H47_5 C74_5 1_555 1_555
H48_5 C75_5 1_555 1_555
C82_5 C75_5 1_555 1_555
H49_5 C76_5 1_555 1_555
C83_5 C76_5 1_555 1_555
C85_5 C77_5 1_555 1_555
C86_5 C79_5 1_555 1_555
C87_5 C79_5 1_555 1_555
C88_5 C80_5 1_555 1_555
C89_5 C80_5 1_555 1_555
C90_5 C81_5 1_555 1_555
C91_5 C81_5 1_555 1_555
H53_5 C82_5 1_555 1_555
H56_5 C85_5 1_555 1_555
H57_5 C85_5 1_555 1_555
H58_5 C85_5 1_555 1_555
C92_5 C86_5 1_555 1_555
H59_5 C86_5 1_555 1_555
C93_5 C87_5 1_555 1_555
C94_5 C87_5 1_555 1_555
H60_5 C88_5 1_555 1_555
C95_5 C88_5 1_555 1_555
C96_5 C89_5 1_555 1_555
H61_5 C89_5 1_555 1_555
C97_5 C90_5 1_555 1_555
H62_5 C91_5 1_555 1_555
H63_5 C91_5 1_555 1_555
H64_5 C91_5 1_555 1_555
N11 C92_5 1_555 1_555
H65_5 C92_5 1_555 1_555
H66_5 C93_5 1_555 1_555
H67_5 C94_5 1_555 1_555
H68_5 C94_5 1_555 1_555
H69_5 C94_5 1_555 1_555
H70_5 C95_5 1_555 1_555
C98_5 C95_5 1_555 1_555
H71_5 C96_5 1_555 1_555
O34 C97_5 1_555 1_555
O22_2 C97_5 1_555 1_555
Co11_2 N11 1_555 1_555
C99_5 C98_5 1_555 1_555
C100_5 C99_5 1_555 1_555
C101_5 C99_5 1_555 1_555
H72_5 C100_5 1_555 1_555
C102_5 C100_5 1_555 1_555
H73_5 C101_5 1_555 1_555
C103_5 C101_5 1_555 1_555
C104_5 C102_5 1_555 1_555
C105_5 C102_5 1_555 1_555
C106_5 C103_5 1_555 1_555
H74_5 C104_5 1_555 1_555
C107_5 C105_5 1_555 1_555
C108_5 C105_5 1_555 1_555
C109_5 C106_5 1_555 1_555
C110_5 C106_5 1_555 1_555
C111_5 C107_5 1_555 1_555
H75_5 C107_5 1_555 1_555
C112_5 C108_5 1_555 1_555
H76_5 C108_5 1_555 1_555
H77_5 C109_5 1_555 1_555
C113_5 C109_5 1_555 1_555
C114_5 C110_5 1_555 1_555
H78_5 C110_5 1_555 1_555
H79_5 C111_5 1_555 1_555
C115_5 C111_5 1_555 1_555
H80_5 C112_5 1_555 1_555
H81_5 C113_5 1_555 1_555
C116_5 C113_5 1_555 1_555
H82_5 C114_5 1_555 1_555
O17_2 C117_5 1_555 1_555
C117_5 C115_5 1_555 1_555
C118_5 C116_5 1_555 1_555
O32_3 C117_5 1_555 1_555
O26 C118_5 1_555 1_555
O42 C118_5 1_555 1_555
C37_3 N6_3 1_555 1_555
C64_5 O40_5 1_555 1_555
C65_5 O37_5 1_555 1_555
O39_5 C72_5 1_555 1_555
O41_5 C73_5 1_555 1_555
C69_5 C70_5 1_555 1_555
C69_5 C71_5 1_555 1_555
C82_5 C90_5 1_555 1_555
C93_5 N11 1_555 1_555
C96_5 C98_5 1_555 1_555
C103_5 C104_5 1_555 1_555
C112_5 C115_5 1_555 1_555
C114_5 C116_5 1_555 1_555
Co11_2 O1_3 1_555 1_555
O1_3 Co29_2 1_555 1_555
O3_3 Co11_2 1_555 1_555
O4_3 Co11_2 1_555 1_555
O5_3 Co11_2 1_555 1_555
Co29_2 O6_3 1_555 1_555
Co27_2 O1_3 1_555 1_555
C2_3 O3_3 1_555 1_555
C3_3 O4_3 1_555 1_555
C4_3 O5_3 1_555 1_555
O6_3 C9_3 1_555 1_555
O8_3 Co29_2 1_555 1_555
O10_3 Co27_2 1_555 1_555
O11_3 Co27_2 1_555 1_555
O12_3 Co27_2 1_555 1_555
N3_3 Co27_2 1_555 1_555
C6_3 C2_3 1_555 1_555
C7_3 C3_3 1_555 1_555
C8_3 C4_3 1_555 1_555
C9_3 O11_3 1_555 1_555
C10_3 N3_3 1_555 1_555
C11_3 N3_3 1_555 1_555
C14_3 C6_3 1_555 1_555
C15_3 C6_3 1_555 1_555
C16_3 C7_3 1_555 1_555
C17_3 C7_3 1_555 1_555
C18_3 C8_3 1_555 1_555
C19_3 C8_3 1_555 1_555
C20_3 C9_3 1_555 1_555
C21_3 C10_3 1_555 1_555
H1_3 C10_3 1_555 1_555
H2_3 C11_3 1_555 1_555
C22_3 C11_3 1_555 1_555
C23_3 C14_3 1_555 1_555
H5_3 C14_3 1_555 1_555
C24_3 C15_3 1_555 1_555
C25_3 C15_3 1_555 1_555
H6_3 C16_3 1_555 1_555
C26_3 C16_3 1_555 1_555
C27_3 C17_3 1_555 1_555
H7_3 C17_3 1_555 1_555
H8_3 C18_3 1_555 1_555
C28_3 C18_3 1_555 1_555
C29_3 C19_3 1_555 1_555
C31_3 C20_3 1_555 1_555
C32_3 C20_3 1_555 1_555
C33_3 C21_3 1_555 1_555
C34_3 C21_3 1_555 1_555
H9_3 C22_3 1_555 1_555
H10_3 C23_3 1_555 1_555
H11_3 C24_3 1_555 1_555
H12_3 C25_3 1_555 1_555
H13_3 C25_3 1_555 1_555
H14_3 C25_3 1_555 1_555
H15_3 C26_3 1_555 1_555
C35_3 C26_3 1_555 1_555
H16_3 C27_3 1_555 1_555
H17_3 C28_3 1_555 1_555
N4_3 C28_3 1_555 1_555
H22_3 C31_3 1_555 1_555
C36_3 C31_3 1_555 1_555
C38_3 C32_3 1_555 1_555
C39_3 C33_3 1_555 1_555
H23_3 C34_3 1_555 1_555
H24_3 C34_3 1_555 1_555
H25_3 C34_3 1_555 1_555
C40_3 C35_3 1_555 1_555
Co7_2 N4_3 1_555 1_555
H28_3 C38_3 1_555 1_555
H29_3 C38_3 1_555 1_555
H30_3 C38_3 1_555 1_555
O34_2 C39_3 1_555 1_555
O29_2 C39_3 1_555 1_555
C41_3 C40_3 1_555 1_555
C42_3 C40_3 1_555 1_555
H31_3 C41_3 1_555 1_555
C43_3 C41_3 1_555 1_555
H32_3 C42_3 1_555 1_555
C44_3 C42_3 1_555 1_555
C45_3 C43_3 1_555 1_555
C46_3 C43_3 1_555 1_555
C47_3 C44_3 1_555 1_555
H33_3 C45_3 1_555 1_555
C48_3 C46_3 1_555 1_555
C49_3 C46_3 1_555 1_555
C50_3 C47_3 1_555 1_555
C51_3 C47_3 1_555 1_555
C52_3 C48_3 1_555 1_555
H34_3 C48_3 1_555 1_555
C53_3 C49_3 1_555 1_555
H35_3 C49_3 1_555 1_555
H36_3 C50_3 1_555 1_555
C54_3 C50_3 1_555 1_555
C55_3 C51_3 1_555 1_555
H37_3 C51_3 1_555 1_555
H38_3 C52_3 1_555 1_555
C56_3 C52_3 1_555 1_555
H39_3 C53_3 1_555 1_555
H40_3 C54_3 1_555 1_555
C57_3 C54_3 1_555 1_555
H41_3 C55_3 1_555 1_555
C58_3 C56_3 1_555 1_555
C59_3 C57_3 1_555 1_555
N8_3 C23_3 1_555 1_555
H50_5 C78_5 1_555 1_555
H51_5 C78_5 1_555 1_555
H52_5 C78_5 1_555 1_555
O32_4 C58_3 1_555 1_555
O30 C58_3 1_555 1_555
O26_2 C59_3 1_555 1_555
O42_2 C59_3 1_555 1_555
C2_3 O10_3 1_555 1_555
C3_3 O12_3 1_555 1_555
C4_3 O8_3 1_555 1_555
C22_3 C33_3 1_555 1_555
C24_3 N8_3 1_555 1_555
C27_3 C35_3 1_555 1_555
C29_3 N4_3 1_555 1_555
C44_3 C45_3 1_555 1_555
C53_3 C56_3 1_555 1_555
C55_3 C57_3 1_555 1_555
H55_5 C84_5 1_555 1_555
C84_5 N2_2 1_555 1_555
H19_3 C30_3 1_555 1_555
H20_3 C30_3 1_555 1_555
H21_3 C30_3 1_555 1_555
H4_4 C13_4 1_555 1_555
C61_4 C13_4 1_555 1_555
H43_4 C61_4 1_555 1_555
C63_4 C62_4 1_555 1_555
O38_3 C63_4 1_555 1_555
O27_3 C63_4 1_555 1_555
C61_4 C62_4 1_555 1_555
C1_4 O38_2 1_555 1_555
C5_4 C1_4 1_555 1_555
C12_4 C5_4 1_555 1_555
H3_4 C12_4 1_555 1_555
C60_4 C12_4 1_555 1_555
H42_4 C60_4 1_555 1_555
C1_4 O27_2 1_555 1_555

#END
