
###############################################################################
#
# This file contains modified crystal structure data generated from the
# MOF subset of the Cambridge Structural Database (CSD) v543 
# hosted by the Cambridge Crystallographic Data Centre (CCDC).
#
# This work is licensed under the Creative Commons
# Attribution-NonCommercial-ShareAlike 4.0 International License.
# To view a copy of this license, visit
# http://creativecommons.org/licenses/by-nc-sa/4.0/
# or send a letter to
# Creative Commons, PO Box 1866, Mountain View, CA 94042, USA.
#
# CIF created using the CSD Python API on 29 September 2022
# The structure has been converted into the P1 space group
# The structure has a 3D framework
# The original CSD entry CUSHEG is in the tetragonal crystal system
# The framework has been calculated to contain at least 10.0% void space
# The void calculation uses a probe of radius 1.32A, grid spacing 0.4
# The framework is charged, counterions have been retained in the structure
#
###############################################################################

data_CUSHEG
_chemical_formula_moiety         '(C440 H264 Co30 N32 O138 4-)n'
_symmetry_cell_setting           triclinic
_symmetry_space_group_name_H-M   'P 1'
_symmetry_Int_Tables_number      1
_space_group_name_Hall           'P 1'
loop_
_symmetry_equiv_pos_site_id
_symmetry_equiv_pos_as_xyz
1 x,y,z
_cell_length_a                   21.8423(5)
_cell_length_b                   21.8423(5)
_cell_length_c                   39.3731(18)
_cell_angle_alpha                90
_cell_angle_beta                 90
_cell_angle_gamma                90
_cell_volume                     18784.4
loop_
_atom_site_label
_atom_site_type_symbol
_atom_site_fract_x
_atom_site_fract_y
_atom_site_fract_z
O1 O 0.0000 0.5000 0.2828(3)
Co16 Co 0.05304(7) 0.55304(7) 0.2500
Co29 Co 0.04546(19) 0.45726(17) 0.17775(11)
Co31 Co 0.04274(17) 0.45454(19) 0.32225(11)
O36 O 0.0000 0.5000 0.2172(3)
O47 O 0.0447(5) 0.5583(5) 0.1591(3)
O51 O 0.0105(5) 0.3777(5) 0.2507(5)
Co1 Co 0.61661(11) 0.23289(11) 0.02376(8)
Co2 Co 0.94696(7) 0.44696(7) 0.2500
Co3 Co 0.73244(10) 0.11787(10) 0.02395(8)
Co4 Co 0.74717(12) 0.24840(11) 0.07368(6)
Co5 Co 0.95454(19) 0.54274(17) 0.17775(11)
O1_2 O 1.0000 0.5000 0.2828(3)
O2 O 0.6986(4) 0.2010(4) 0.03902(19)
O3 O 0.7600(6) 0.0926(6) 0.0716(4)
O5 O 0.5802(4) 0.1454(5) 0.0290(3)
O7 O 0.9051(5) 0.4014(6) 0.2087(3)
N1 N 0.8006(7) 0.3017(7) 0.1090(3)
O11 O 0.6509(5) 0.0741(5) 0.0359(4)
C4 C 0.4475(6) 0.3316(6) 0.0008(4)
H1 H 0.4321 0.3711 0.0027
C5 C 0.5436(7) 0.0477(7) 0.0335(4)
C7 C 0.5956(7) 0.0906(7) 0.0331(4)
C11 C 0.8680(7) 0.3755(7) 0.1524(4)
C12 C 0.4876(7) 0.0599(8) 0.0364(5)
H5 H 0.4775 0.1006 0.0406
C13 C 0.8429(8) 0.3408(8) 0.0970(4)
H6 H 0.8499 0.3423 0.0738
C14 C 0.8763(8) 0.3792(8) 0.1181(4)
H7 H 0.9040 0.4070 0.1090
C18 C 0.8000(6) 0.0800(5) 0.1250(3)
C19 C 0.8177(6) 0.1118(4) 0.1540(3)
H9 H 0.8197 0.1544 0.1536
C20 C 0.8325(6) 0.0801(5) 0.1835(3)
H10 H 0.8443 0.1015 0.2028
C21 C 0.8296(6) 0.0166(5) 0.1840(3)
C23 C 0.7971(6) 0.0164(5) 0.1256(3)
C24 C 0.8213(6) 0.0082(7) 0.2503(5)
H13 H 0.8065 0.0481 0.2507
C25 C 0.7742(10) 0.1166(9) 0.0993(5)
C26 C 0.8007(7) 0.2926(7) 0.1420(4)
H14 H 0.7743 0.2634 0.1510
C27 C 0.8383(6) 0.3246(6) 0.1639(4)
H15 H 0.8433 0.3116 0.1862
O13 O 0.7761(6) 0.1713(6) 0.1020(4)
N2 N 0.7641(6) 0.0287(7) 0.0031(4)
C30 C 0.5046(6) 0.3189(6) 0.0151(4)
H17 H 0.5257 0.3482 0.0276
N3 N 0.5287(6) 0.2606(5) 0.0100(4)
O14 O 0.9553(5) 0.4417(5) 0.1591(3)
C32 C 0.9062(7) 0.4188(7) 0.1756(5)
C33 C 0.8090(8) 0.0032(8) 0.0129(5)
H19 H 0.8351 0.0276 0.0257
O15 O 0.7603(6) 0.0902(6) 0.4288(4)
C43 C 0.7786(6) 0.0809(5) 0.3694(3)
C44 C 0.7771(5) 0.0173(5) 0.3711(3)
C46 C 0.8048(6) 0.0115(5) 0.3120(3)
C47 C 0.8063(5) 0.0750(5) 0.3103(3)
H28 H 0.8160 0.0943 0.2899
C48 C 0.7931(5) 0.1097(4) 0.3390(3)
H29 H 0.7941 0.1522 0.3378
O18 O 0.7543(6) 0.1757(6) 0.3950(3)
C50 C 0.7701(9) 0.1166(9) 0.4019(5)
C57 C 0.4413(7) 0.0206(7) 0.0341(5)
H34 H 0.4010 0.0342 0.0330
O24 O 0.1385(6) 0.2937(6) 0.0264(4)
O26 O 0.2041(6) 0.3713(6) 0.0273(4)
O27 O 0.3505(5) 0.6805(5) 0.0144(3)
O28 O 0.2546(4) 0.6781(4) 0.0419(3)
C61 C 0.3057(6) 0.6505(6) 0.0245(5)
C66 C 0.2880(5) 0.5876(6) 0.0164(4)
C71 C 0.2281(6) 0.5647(6) 0.0176(4)
H41 H 0.1934 0.5890 0.0197
C72 C 0.1641(9) 0.3389(10) 0.0419(4)
C86 C 0.2272(6) 0.5001(6) 0.0154(4)
H51 H 0.2045 0.4771 0.0307
C106 C 0.1660(4) 0.4091(6) 0.0945(3)
H63 H 0.2050 0.4215 0.0881
C107 C 0.1327(6) 0.3699(6) 0.0737(2)
C108 C 0.0743(6) 0.3514(5) 0.0833(3)
H64 H 0.0520 0.3252 0.0694
C109 C 0.0492(4) 0.3720(6) 0.1137(3)
H65 H 0.0102 0.3596 0.1201
N8 N 0.0825(5) 0.4112(5) 0.1345(2)
C110 C 0.1409(5) 0.4298(5) 0.1249(3)
H66 H 0.1632 0.4560 0.1388
Co11 Co 0.38339(11) 0.76711(11) 0.02376(8)
Co12 Co 0.73289(11) 0.11661(11) 0.47624(8)
Co22 Co 0.25283(12) 0.75160(11) 0.07368(6)
Co24 Co 0.74840(11) 0.24717(12) 0.42632(6)
Co32 Co 0.95726(17) 0.54546(19) 0.32225(11)
O36_2 O 1.0000 0.5000 0.2172(3)
O38 O 0.8231(5) 0.1553(5) 0.0146(3)
O41 O 0.9014(6) 0.4051(5) 0.2913(3)
O42 O 0.6495(5) 0.3195(5) 0.0144(3)
O43 O 0.7454(4) 0.3219(4) 0.0419(3)
O45 O 0.8293(5) 0.2244(5) 0.0510(3)
O49 O 0.5902(6) 0.2603(6) 0.0712(4)
O52 O 0.8777(5) 0.5105(5) 0.2493(5)
O53 O 0.9583(6) 0.6322(6) 0.1992(4)
O55 O 0.6757(6) 0.2543(6) 0.1050(3)
N9 N 0.9175(5) 0.5888(5) 0.1345(2)
O6 O 0.7063(6) 0.1385(6) 0.9736(4)
O8 O 0.6287(6) 0.2041(6) 0.9727(4)
O9 O 0.3195(5) 0.3505(5) 0.9856(3)
O10 O 0.3219(4) 0.2546(4) 0.9581(3)
C2 C 0.3495(6) 0.3057(6) 0.9755(5)
C10 C 0.4124(6) 0.2880(5) 0.9836(4)
C16 C 0.4353(6) 0.2281(6) 0.9824(4)
H8 H 0.4110 0.1934 0.9803
C17 C 0.6611(10) 0.1641(9) 0.9581(4)
C31 C 0.4999(6) 0.2272(6) 0.9846(4)
H18 H 0.5229 0.2045 0.9693
C51 C 0.5909(6) 0.1660(4) 0.9055(3)
H30 H 0.5785 0.2050 0.9119
C52 C 0.6301(6) 0.1327(6) 0.9263(2)
C53 C 0.6486(5) 0.0743(6) 0.9167(3)
H31 H 0.6748 0.0520 0.9306
C54 C 0.6280(6) 0.0492(4) 0.8863(3)
H32 H 0.6404 0.0102 0.8799
N4 N 0.5888(5) 0.0825(5) 0.8655(2)
C55 C 0.5702(5) 0.1409(5) 0.8751(3)
H33 H 0.5440 0.1632 0.8612
Co6 Co 0.23289(11) 0.38339(11) 0.97624(8)
Co7 Co 0.11787(10) 0.26756(10) 0.97605(8)
Co8 Co 0.24840(11) 0.25283(12) 0.92632(6)
Co9 Co 0.54274(17) 0.04546(19) 0.82225(11)
O21 O 0.2010(4) 0.3014(4) 0.96098(19)
O22 O 0.0926(6) 0.2400(6) 0.9284(4)
O25 O 0.4014(6) 0.0949(5) 0.7913(3)
N5 N 0.3017(7) 0.1994(7) 0.8910(3)
C63 C 0.3316(6) 0.5525(6) 0.9992(4)
H36 H 0.3711 0.5679 0.9973
C67 C 0.3755(7) 0.1320(7) 0.8476(4)
C68 C 0.3408(8) 0.1571(8) 0.9030(4)
H39 H 0.3423 0.1501 0.9262
C69 C 0.3792(8) 0.1237(8) 0.8819(4)
H40 H 0.4070 0.0960 0.8910
C73 C 0.0800(5) 0.2000(6) 0.8750(3)
C74 C 0.1118(4) 0.1823(6) 0.8460(3)
H42 H 0.1544 0.1803 0.8464
C75 C 0.0801(5) 0.1675(6) 0.8165(3)
H43 H 0.1015 0.1557 0.7972
C76 C 0.0166(5) 0.1704(6) 0.8160(3)
C78 C 0.0164(5) 0.2029(6) 0.8744(3)
C79 C 0.0082(7) 0.1787(6) 0.7497(5)
H46 H 0.0481 0.1935 0.7493
C80 C 0.1166(9) 0.2258(10) 0.9007(5)
C81 C 0.2926(7) 0.1993(7) 0.8580(4)
H47 H 0.2634 0.2257 0.8490
C82 C 0.3246(6) 0.1617(6) 0.8361(4)
H48 H 0.3116 0.1567 0.8138
O30 O 0.1713(6) 0.2239(6) 0.8980(4)
N6 N 0.0287(7) 0.2359(6) 0.9969(4)
C85 C 0.3189(6) 0.4954(6) 0.9849(4)
H50 H 0.3482 0.4743 0.9724
N7 N 0.2606(5) 0.4713(6) 0.9900(4)
O31 O 0.4417(5) 0.0447(5) 0.8409(3)
C87 C 0.4188(7) 0.0938(7) 0.8244(5)
C88 C 0.0032(8) 0.1910(8) 0.9871(5)
H52 H 0.0276 0.1649 0.9743
O32 O 0.0902(6) 0.2397(6) 0.5712(4)
C98 C 0.0809(5) 0.2214(6) 0.6306(3)
C99 C 0.0173(5) 0.2229(5) 0.6289(3)
C101 C 0.0115(5) 0.1952(6) 0.6880(3)
C102 C 0.0750(5) 0.1937(5) 0.6897(3)
H61 H 0.0943 0.1840 0.7101
C103 C 0.1097(4) 0.2069(5) 0.6610(3)
H62 H 0.1522 0.2059 0.6622
O35 O 0.1757(6) 0.2457(6) 0.6050(3)
C105 C 0.1166(9) 0.2299(9) 0.5981(5)
Co13 Co 0.11661(11) 0.26711(11) 0.52376(8)
Co14 Co 0.44696(7) 0.05304(7) 0.7500
Co25 Co 0.24717(12) 0.25160(11) 0.57368(6)
O37 O 0.5000 0.0000 0.7828(3)
O39 O 0.1553(5) 0.1769(5) 0.9854(3)
O40 O 0.1454(5) 0.4198(4) 0.9710(3)
O44 O 0.0741(5) 0.3491(5) 0.9641(4)
O46 O 0.2244(5) 0.1707(5) 0.9490(3)
O50 O 0.2603(6) 0.4098(6) 0.9288(4)
O54 O 0.6322(6) 0.0417(6) 0.8008(4)
O56 O 0.2543(6) 0.3243(6) 0.8950(3)
C6 C 0.5587(7) 0.9794(7) 0.0341(5)
H2 H 0.5990 0.9658 0.0330
C8 C 0.8293(8) 0.9436(8) 0.0085(5)
H3 H 0.8657 0.9302 0.0182
C15 C 0.8209(8) 0.9766(7) 0.2819(4)
C22 C 0.8119(6) 0.9847(4) 0.1551(3)
H11 H 0.8099 0.9422 0.1554
H12 H 0.7853 0.9951 0.1062
C28 C 0.8667(8) 0.9284(7) 0.2227(5)
H16 H 0.8872 0.9118 0.2042
C29 C 0.8417(8) 0.9861(7) 0.2180(5)
C35 C 0.8369(8) 0.9140(7) 0.2817(5)
H21 H 0.8293 0.8888 0.3003
C36 C 0.8648(7) 0.8917(6) 0.2522(5)
C37 C 0.9244(5) 0.8011(5) 0.2691(3)
H22 H 0.9337 0.8239 0.2884
C38 C 0.9494(5) 0.7431(5) 0.2648(3)
H23 H 0.9755 0.7271 0.2812
C39 C 0.9355(6) 0.7091(4) 0.2360(3)
C40 C 0.8965(6) 0.7331(5) 0.2115(3)
H24 H 0.8872 0.7103 0.1922
C41 C 0.8715(5) 0.7911(5) 0.2157(3)
H25 H 0.8454 0.8071 0.1993
C42 C 0.8854(5) 0.8251(4) 0.2445(3)
H26 H 0.7674 0.9980 0.3914
C45 C 0.7903(6) 0.9826(4) 0.3424(3)
H27 H 0.7893 0.9401 0.3436
O16 O 0.9895(5) 0.6223(5) 0.2507(5)
C49 C 0.9616(9) 0.6552(8) 0.2287(5)
O19 O 0.4198(4) 0.8546(5) 0.0290(3)
O20 O 0.3491(5) 0.9259(5) 0.0359(4)
C56 C 0.4564(7) 0.9523(7) 0.0335(4)
C58 C 0.4044(7) 0.9094(7) 0.0331(4)
C59 C 0.5124(7) 0.9401(8) 0.0364(5)
H35 H 0.5225 0.8994 0.0406
Co19 Co 0.26756(10) 0.88213(10) 0.02395(8)
O4 O 0.8447(5) 0.8231(5) 0.9854(3)
C1 C 0.7941(8) 0.8431(8) 0.9707(5)
C3 C 0.7919(8) 0.9032(8) 0.9885(5)
O12 O 0.7756(5) 0.8293(5) 0.9490(3)
C9 C 0.7427(7) 0.9394(7) 0.9726(5)
H4 H 0.7262 0.9301 0.9514
C34 C 0.7225(8) 0.9906(8) 0.9927(5)
H20 H 0.6814 0.9961 0.9980
Co20 Co 0.88213(10) 0.73244(10) 0.97605(8)
Co23 Co 0.75160(11) 0.74717(12) 0.92632(6)
Co30 Co 0.45726(17) 0.95454(19) 0.82225(11)
O37_2 O 0.5000 1.0000 0.7828(3)
O48 O 0.5583(5) 0.9553(5) 0.8409(3)
C60 C 0.8431(8) 0.2059(8) 0.0293(5)
C62 C 0.9032(8) 0.2081(8) 0.0115(5)
C65 C 0.9394(7) 0.2573(7) 0.0274(5)
H38 H 0.9301 0.2738 0.0486
C89 C 0.9906(8) 0.2775(8) 0.0073(5)
H53 H 0.9961 0.3186 0.0020
C64 C 0.9436(8) 0.1707(8) 0.9915(5)
H37 H 0.9302 0.1343 0.9818
C70 C 0.9766(7) 0.1791(8) 0.7181(4)
C77 C 0.9847(4) 0.1881(6) 0.8449(3)
H44 H 0.9422 0.1901 0.8446
H45 H 0.9951 0.2147 0.8938
C83 C 0.9284(7) 0.1333(8) 0.7773(5)
H49 H 0.9118 0.1128 0.7958
C84 C 0.9861(7) 0.1583(8) 0.7820(5)
C90 C 0.9140(7) 0.1631(8) 0.7183(5)
H54 H 0.8888 0.1707 0.6997
C91 C 0.8917(6) 0.1352(7) 0.7478(5)
C92 C 0.8011(5) 0.0756(5) 0.7309(3)
H55 H 0.8239 0.0663 0.7116
C93 C 0.7431(5) 0.0506(5) 0.7352(3)
H56 H 0.7271 0.0245 0.7188
C94 C 0.7091(4) 0.0645(6) 0.7640(3)
C95 C 0.7331(5) 0.1035(6) 0.7885(3)
H57 H 0.7103 0.1128 0.8078
C96 C 0.7911(5) 0.1285(5) 0.7843(3)
H58 H 0.8071 0.1546 0.8007
C97 C 0.8251(4) 0.1146(5) 0.7555(3)
H59 H 0.9980 0.2326 0.6086
C100 C 0.9826(4) 0.2097(6) 0.6576(3)
H60 H 0.9401 0.2107 0.6564
O33 O 0.6223(5) 0.0105(5) 0.7493(5)
C104 C 0.6552(8) 0.0384(9) 0.7713(5)
Co17 Co 0.55304(7) 0.94696(7) 0.7500
C64_2 C 0.1707(8) 0.0564(8) 0.0085(5)
H37_2 H 0.1343 0.0698 0.0182
C70_2 C 0.1791(8) 0.0234(7) 0.2819(4)
C77_2 C 0.1881(6) 0.0153(4) 0.1551(3)
H44_2 H 0.1901 0.0578 0.1554
H45_2 H 0.2147 0.0049 0.1062
C83_2 C 0.1333(8) 0.0716(7) 0.2227(5)
H49_2 H 0.1128 0.0882 0.2042
C84_2 C 0.1583(8) 0.0139(7) 0.2180(5)
C90_2 C 0.1631(8) 0.0860(7) 0.2817(5)
H54_2 H 0.1707 0.1112 0.3003
C91_2 C 0.1352(7) 0.1083(6) 0.2522(5)
C92_2 C 0.0756(5) 0.1989(5) 0.2691(3)
H55_2 H 0.0663 0.1761 0.2884
C93_2 C 0.0506(5) 0.2569(5) 0.2648(3)
H56_2 H 0.0245 0.2729 0.2812
C94_2 C 0.0645(6) 0.2909(4) 0.2360(3)
C95_2 C 0.1035(6) 0.2669(5) 0.2115(3)
H57_2 H 0.1128 0.2897 0.1922
C96_2 C 0.1285(5) 0.2089(5) 0.2157(3)
H58_2 H 0.1546 0.1929 0.1993
C97_2 C 0.1146(5) 0.1749(4) 0.2445(3)
H59_2 H 0.2326 0.0020 0.3914
C100_2 C 0.2097(6) 0.0174(4) 0.3424(3)
H60_2 H 0.2107 0.0599 0.3436
O34 O 0.0417(6) 0.3678(6) 0.1992(4)
C104_2 C 0.0384(9) 0.3448(8) 0.2287(5)
C60_2 C 0.2059(8) 0.1569(8) 0.9707(5)
C62_2 C 0.2081(8) 0.0968(8) 0.9885(5)
C65_2 C 0.2573(7) 0.0606(7) 0.9726(5)
H38_2 H 0.2738 0.0699 0.9514
C89_2 C 0.2775(8) 0.0094(8) 0.9927(5)
H53_2 H 0.3186 0.0039 0.9980
O21_2 O 0.3014(4) 0.7990(4) 0.03902(19)
O22_2 O 0.2400(6) 0.9074(6) 0.0716(4)
O25_2 O 0.0949(5) 0.5986(6) 0.2087(3)
N5_2 N 0.1994(7) 0.6983(7) 0.1090(3)
C63_2 C 0.5525(6) 0.6684(6) 0.0008(4)
H36_2 H 0.5679 0.6289 0.0027
C67_2 C 0.1320(7) 0.6245(7) 0.1524(4)
C68_2 C 0.1571(8) 0.6592(8) 0.0970(4)
H39_2 H 0.1501 0.6577 0.0738
C69_2 C 0.1237(8) 0.6208(8) 0.1181(4)
H40_2 H 0.0960 0.5930 0.1090
C73_2 C 0.2000(6) 0.9200(5) 0.1250(3)
C74_2 C 0.1823(6) 0.8882(4) 0.1540(3)
H42_2 H 0.1803 0.8456 0.1536
C75_2 C 0.1675(6) 0.9199(5) 0.1835(3)
H43_2 H 0.1557 0.8985 0.2028
C76_2 C 0.1704(6) 0.9834(5) 0.1840(3)
C78_2 C 0.2029(6) 0.9836(5) 0.1256(3)
C79_2 C 0.1787(6) 0.9918(7) 0.2503(5)
H46_2 H 0.1935 0.9519 0.2507
C80_2 C 0.2258(10) 0.8834(9) 0.0993(5)
C81_2 C 0.1993(7) 0.7074(7) 0.1420(4)
H47_2 H 0.2257 0.7366 0.1510
C82_2 C 0.1617(6) 0.6754(6) 0.1639(4)
H48_2 H 0.1567 0.6884 0.1862
O30_2 O 0.2239(6) 0.8287(6) 0.1020(4)
N6_2 N 0.2359(6) 0.9713(7) 0.0031(4)
C85_2 C 0.4954(6) 0.6811(6) 0.0151(4)
H50_2 H 0.4743 0.6518 0.0276
N7_2 N 0.4713(6) 0.7394(5) 0.0100(4)
C87_2 C 0.0938(7) 0.5812(7) 0.1756(5)
C88_2 C 0.1910(8) 0.9968(8) 0.0129(5)
H52_2 H 0.1649 0.9724 0.0257
O32_2 O 0.2397(6) 0.9098(6) 0.4288(4)
C98_2 C 0.2214(6) 0.9191(5) 0.3694(3)
C99_2 C 0.2229(5) 0.9827(5) 0.3711(3)
C101_2 C 0.1952(6) 0.9885(5) 0.3120(3)
C102_2 C 0.1937(5) 0.9250(5) 0.3103(3)
H61_2 H 0.1840 0.9057 0.2899
C103_2 C 0.2069(5) 0.8903(4) 0.3390(3)
H62_2 H 0.2059 0.8478 0.3378
O35_2 O 0.2457(6) 0.8243(6) 0.3950(3)
C105_2 C 0.2299(9) 0.8834(9) 0.4019(5)
Co13_2 Co 0.26711(11) 0.88339(11) 0.47624(8)
Co25_2 Co 0.25160(11) 0.75283(12) 0.42632(6)
O39_2 O 0.1769(5) 0.8447(5) 0.0146(3)
O46_2 O 0.1707(5) 0.7756(5) 0.0510(3)
O50_2 O 0.4098(6) 0.7397(6) 0.0712(4)
O56_2 O 0.3243(6) 0.7457(6) 0.1050(3)
O1_3 O 0.5000 0.0000 0.7172(3)
C5_2 C 0.0477(7) 0.4564(7) 0.9665(4)
C7_2 C 0.0906(7) 0.4044(7) 0.9669(4)
C12_2 C 0.0599(8) 0.5124(7) 0.9636(5)
H5_2 H 0.1006 0.5225 0.9594
C57_2 C 0.0206(7) 0.5587(7) 0.9659(5)
H34_2 H 0.0342 0.5990 0.9670
O24_2 O 0.2937(6) 0.8615(6) 0.9736(4)
O26_2 O 0.3713(6) 0.7959(6) 0.9727(4)
O27_2 O 0.6805(5) 0.6495(5) 0.9856(3)
O28_2 O 0.6781(4) 0.7454(4) 0.9581(3)
C61_2 C 0.6505(6) 0.6943(6) 0.9755(5)
C66_2 C 0.5876(6) 0.7120(5) 0.9836(4)
C71_2 C 0.5647(6) 0.7719(6) 0.9824(4)
H41_2 H 0.5890 0.8066 0.9803
C72_2 C 0.3389(10) 0.8359(9) 0.9581(4)
C86_2 C 0.5001(6) 0.7728(6) 0.9846(4)
H51_2 H 0.4771 0.7955 0.9693
C106_2 C 0.4091(6) 0.8340(4) 0.9055(3)
H63_2 H 0.4215 0.7950 0.9119
C107_2 C 0.3699(6) 0.8673(6) 0.9263(2)
C108_2 C 0.3514(5) 0.9257(6) 0.9167(3)
H64_2 H 0.3252 0.9480 0.9306
C109_2 C 0.3720(6) 0.9508(4) 0.8863(3)
H65_2 H 0.3596 0.9898 0.8799
N8_2 N 0.4112(5) 0.9175(5) 0.8655(2)
C110_2 C 0.4298(5) 0.8591(5) 0.8751(3)
H66_2 H 0.4560 0.8368 0.8612
Co11_2 Co 0.76711(11) 0.61661(11) 0.97624(8)
Co32_2 Co 0.54546(19) 0.04274(17) 0.67775(11)
O41_2 O 0.4051(5) 0.0986(6) 0.7087(3)
O52_2 O 0.5105(5) 0.1223(5) 0.7507(5)
O1_4 O 0.5000 1.0000 0.7172(3)
Co31_2 Co 0.45454(19) 0.95726(17) 0.67775(11)
O51_2 O 0.3777(5) 0.9895(5) 0.7493(5)
C6_2 C 0.9794(7) 0.4413(7) 0.9659(5)
H2_2 H 0.9658 0.4010 0.9670
O19_2 O 0.8546(5) 0.5802(4) 0.9710(3)
O20_2 O 0.9259(5) 0.6509(5) 0.9641(4)
C56_2 C 0.9523(7) 0.5436(7) 0.9665(4)
C58_2 C 0.9094(7) 0.5956(7) 0.9669(4)
C59_2 C 0.9401(8) 0.4876(7) 0.9636(5)
H35_2 H 0.8994 0.4775 0.9594
C60_3 C 0.1569(8) 0.7941(8) 0.0293(5)
C62_3 C 0.0968(8) 0.7919(8) 0.0115(5)
C65_3 C 0.0606(7) 0.7427(7) 0.0274(5)
H38_3 H 0.0699 0.7262 0.0486
C89_3 C 0.0094(8) 0.7225(8) 0.0073(5)
H53_3 H 0.0039 0.6814 0.0020
C64_3 C 0.0564(8) 0.8293(8) 0.9915(5)
H37_3 H 0.0698 0.8657 0.9818
C70_3 C 0.0234(7) 0.8209(8) 0.7181(4)
C77_3 C 0.0153(4) 0.8119(6) 0.8449(3)
H44_3 H 0.0578 0.8099 0.8446
H45_3 H 0.0049 0.7853 0.8938
C83_3 C 0.0716(7) 0.8667(8) 0.7773(5)
H49_3 H 0.0882 0.8872 0.7958
C84_3 C 0.0139(7) 0.8417(8) 0.7820(5)
C90_3 C 0.0860(7) 0.8369(8) 0.7183(5)
H54_3 H 0.1112 0.8293 0.6997
C91_3 C 0.1083(6) 0.8648(7) 0.7478(5)
C92_3 C 0.1989(5) 0.9244(5) 0.7309(3)
H55_3 H 0.1761 0.9337 0.7116
C93_3 C 0.2569(5) 0.9494(5) 0.7352(3)
H56_3 H 0.2729 0.9755 0.7188
C94_3 C 0.2909(4) 0.9355(6) 0.7640(3)
C95_3 C 0.2669(5) 0.8965(6) 0.7885(3)
H57_3 H 0.2897 0.8872 0.8078
C96_3 C 0.2089(5) 0.8715(5) 0.7843(3)
H58_3 H 0.1929 0.8454 0.8007
C97_3 C 0.1749(4) 0.8854(5) 0.7555(3)
H59_3 H 0.0020 0.7674 0.6086
C100_3 C 0.0174(4) 0.7903(6) 0.6576(3)
H60_3 H 0.0599 0.7893 0.6564
O34_2 O 0.3678(6) 0.9583(6) 0.8008(4)
C104_3 C 0.3448(8) 0.9616(9) 0.7713(5)
O24_3 O 0.8615(6) 0.7063(6) 0.0264(4)
O26_3 O 0.7959(6) 0.6287(6) 0.0273(4)
C61_3 C 0.6943(6) 0.3495(6) 0.0245(5)
C66_3 C 0.7120(5) 0.4124(6) 0.0164(4)
C71_3 C 0.7719(6) 0.4353(6) 0.0176(4)
H41_3 H 0.8066 0.4110 0.0197
C72_3 C 0.8359(9) 0.6611(10) 0.0419(4)
C86_3 C 0.7728(6) 0.4999(6) 0.0154(4)
H51_3 H 0.7955 0.5229 0.0307
C106_3 C 0.8340(4) 0.5909(6) 0.0945(3)
H63_3 H 0.7950 0.5785 0.0881
C107_3 C 0.8673(6) 0.6301(6) 0.0737(2)
C108_3 C 0.9257(6) 0.6486(5) 0.0833(3)
H64_3 H 0.9480 0.6748 0.0694
C109_3 C 0.9508(4) 0.6280(6) 0.1137(3)
H65_3 H 0.9898 0.6404 0.1201
C110_3 C 0.8591(5) 0.5702(5) 0.1249(3)
H66_3 H 0.8368 0.5440 0.1388
O41_3 O 0.0986(6) 0.5949(5) 0.2913(3)
O52_3 O 0.1223(5) 0.4895(5) 0.2493(5)
O21_3 O 0.7990(4) 0.6986(4) 0.96098(19)
O22_3 O 0.9074(6) 0.7600(6) 0.9284(4)
O25_3 O 0.5986(6) 0.9051(5) 0.7913(3)
N5_3 N 0.6983(7) 0.8006(7) 0.8910(3)
C63_3 C 0.6684(6) 0.4475(6) 0.9992(4)
H36_3 H 0.6289 0.4321 0.9973
C67_3 C 0.6245(7) 0.8680(7) 0.8476(4)
C68_3 C 0.6592(8) 0.8429(8) 0.9030(4)
H39_3 H 0.6577 0.8499 0.9262
C69_3 C 0.6208(8) 0.8763(8) 0.8819(4)
H40_3 H 0.5930 0.9040 0.8910
C73_3 C 0.9200(5) 0.8000(6) 0.8750(3)
C74_3 C 0.8882(4) 0.8177(6) 0.8460(3)
H42_3 H 0.8456 0.8197 0.8464
C75_3 C 0.9199(5) 0.8325(6) 0.8165(3)
H43_3 H 0.8985 0.8443 0.7972
C76_3 C 0.9834(5) 0.8296(6) 0.8160(3)
C78_3 C 0.9836(5) 0.7971(6) 0.8744(3)
C79_3 C 0.9918(7) 0.8213(6) 0.7497(5)
H46_3 H 0.9519 0.8065 0.7493
C80_3 C 0.8834(9) 0.7742(10) 0.9007(5)
C81_3 C 0.7074(7) 0.8007(7) 0.8580(4)
H47_3 H 0.7366 0.7743 0.8490
C82_3 C 0.6754(6) 0.8383(6) 0.8361(4)
H48_3 H 0.6884 0.8433 0.8138
O30_3 O 0.8287(6) 0.7761(6) 0.8980(4)
N6_3 N 0.9713(7) 0.7641(6) 0.9969(4)
C85_3 C 0.6811(6) 0.5046(6) 0.9849(4)
H50_3 H 0.6518 0.5257 0.9724
N7_3 N 0.7394(5) 0.5287(6) 0.9900(4)
C87_3 C 0.5812(7) 0.9062(7) 0.8244(5)
C88_3 C 0.9968(8) 0.8090(8) 0.9871(5)
H52_3 H 0.9724 0.8351 0.9743
O32_3 O 0.9098(6) 0.7603(6) 0.5712(4)
C98_3 C 0.9191(5) 0.7786(6) 0.6306(3)
C99_3 C 0.9827(5) 0.7771(5) 0.6289(3)
C101_3 C 0.9885(5) 0.8048(6) 0.6880(3)
C102_3 C 0.9250(5) 0.8063(5) 0.6897(3)
H61_3 H 0.9057 0.8160 0.7101
C103_3 C 0.8903(4) 0.7931(5) 0.6610(3)
H62_3 H 0.8478 0.7941 0.6622
O35_3 O 0.8243(6) 0.7543(6) 0.6050(3)
C105_3 C 0.8834(9) 0.7701(9) 0.5981(5)
Co13_3 Co 0.88339(11) 0.73289(11) 0.52376(8)
Co25_3 Co 0.75283(12) 0.74840(11) 0.57368(6)
O50_3 O 0.7397(6) 0.5902(6) 0.9288(4)
O56_3 O 0.7457(6) 0.6757(6) 0.8950(3)
O41_4 O 0.5949(5) 0.9014(6) 0.7087(3)
O52_4 O 0.4895(5) 0.8777(5) 0.7507(5)
O47_2 O 0.0583(5) 0.5447(5) 0.3409(3)
O53_2 O 0.1322(6) 0.4583(6) 0.3008(4)
N9_2 N 0.0888(5) 0.4175(5) 0.3655(2)
O27_3 O 0.1805(5) 0.8505(5) 0.4856(3)
O28_3 O 0.1781(4) 0.7546(4) 0.4581(3)
C61_4 C 0.1505(6) 0.8057(6) 0.4755(5)
C63_4 C 0.0525(6) 0.8316(6) 0.5008(4)
H36_4 H 0.0679 0.8711 0.5027
C66_4 C 0.0876(6) 0.7880(5) 0.4836(4)
C71_4 C 0.0647(6) 0.7281(6) 0.4824(4)
H41_4 H 0.0890 0.6934 0.4803
C86_4 C 0.0001(6) 0.7272(6) 0.4846(4)
Co3_2 Co 0.61787(10) 0.23244(10) 0.47605(8)
O2_2 O 0.7010(4) 0.1986(4) 0.46098(19)
O3_2 O 0.5926(6) 0.2600(6) 0.4284(4)
O4_2 O 0.3231(5) 0.3447(5) 0.5146(3)
O5_2 O 0.6454(5) 0.0802(4) 0.4710(3)
O6_2 O 0.6385(6) 0.2063(6) 0.5264(4)
N1_2 N 0.8017(7) 0.3006(7) 0.3910(3)
O8_2 O 0.7041(6) 0.1287(6) 0.5273(4)
O11_2 O 0.5741(5) 0.1509(5) 0.4641(4)
C1_2 C 0.3431(8) 0.2941(8) 0.5293(5)
C3_2 C 0.4032(8) 0.2919(8) 0.5115(5)
O12_2 O 0.3293(5) 0.2756(5) 0.5510(3)
C5_3 C 0.5477(7) 0.0436(7) 0.4665(4)
C6_3 C 0.4794(7) 0.0587(7) 0.4659(5)
H2_3 H 0.4658 0.0990 0.4670
C7_3 C 0.5906(7) 0.0956(7) 0.4669(4)
C8_2 C 0.4436(8) 0.3293(8) 0.4915(5)
H3_2 H 0.4302 0.3657 0.4818
C9_2 C 0.4394(7) 0.2427(7) 0.5274(5)
H4_2 H 0.4301 0.2262 0.5486
C11_2 C 0.8755(7) 0.3680(7) 0.3476(4)
C13_2 C 0.8408(8) 0.3429(8) 0.4030(4)
H6_2 H 0.8423 0.3499 0.4262
C14_2 C 0.8792(8) 0.3763(8) 0.3819(4)
H7_2 H 0.9070 0.4040 0.3910
C15_2 C 0.4766(7) 0.3209(8) 0.2181(4)
C17_2 C 0.6641(9) 0.1611(10) 0.5419(4)
C18_2 C 0.5800(5) 0.3000(6) 0.3750(3)
C19_2 C 0.6118(4) 0.3177(6) 0.3460(3)
H9_2 H 0.6544 0.3197 0.3464
C20_2 C 0.5801(5) 0.3325(6) 0.3165(3)
H10_2 H 0.6015 0.3443 0.2972
C21_2 C 0.5166(5) 0.3296(6) 0.3160(3)
C22_2 C 0.4847(4) 0.3119(6) 0.3449(3)
H11_2 H 0.4422 0.3099 0.3446
C23_2 C 0.5164(5) 0.2971(6) 0.3744(3)
H12_2 H 0.4951 0.2853 0.3938
C24_2 C 0.5082(7) 0.3213(6) 0.2497(5)
H13_2 H 0.5481 0.3065 0.2493
C25_2 C 0.6166(9) 0.2742(10) 0.4007(5)
C26_2 C 0.7926(7) 0.3007(7) 0.3580(4)
H14_2 H 0.7634 0.2743 0.3490
C27_2 C 0.8246(6) 0.3383(6) 0.3361(4)
H15_2 H 0.8116 0.3433 0.3138
C28_2 C 0.4284(7) 0.3667(8) 0.2773(5)
H16_2 H 0.4118 0.3872 0.2958
C29_2 C 0.4861(7) 0.3417(8) 0.2820(5)
O13_2 O 0.6713(6) 0.2761(6) 0.3980(4)
N2_2 N 0.5287(7) 0.2641(6) 0.4969(4)
C30_2 C 0.8189(6) 0.0046(6) 0.4849(4)
H17_2 H 0.8482 0.0257 0.4724
H18_2 H 0.7045 0.0229 0.5307
N3_2 N 0.7606(5) 0.0287(6) 0.4900(4)
O14_2 O 0.9417(5) 0.4553(5) 0.3409(3)
C32_2 C 0.9188(7) 0.4062(7) 0.3244(5)
C33_2 C 0.5032(8) 0.3090(8) 0.4871(5)
H19_2 H 0.5276 0.3351 0.4743
C34_2 C 0.4906(8) 0.2225(8) 0.5073(5)
H20_2 H 0.4961 0.1814 0.5020
C35_2 C 0.4140(7) 0.3369(8) 0.2183(5)
H21_2 H 0.3888 0.3293 0.1997
C36_2 C 0.3917(6) 0.3648(7) 0.2478(5)
C37_2 C 0.3011(5) 0.4244(5) 0.2309(3)
H22_2 H 0.3239 0.4337 0.2116
C38_2 C 0.2431(5) 0.4494(5) 0.2352(3)
H23_2 H 0.2271 0.4755 0.2188
C39_2 C 0.2091(4) 0.4355(6) 0.2640(3)
C40_2 C 0.2331(5) 0.3965(6) 0.2885(3)
H24_2 H 0.2103 0.3872 0.3078
C41_2 C 0.2911(5) 0.3715(5) 0.2843(3)
H25_2 H 0.3071 0.3454 0.3007
C42_2 C 0.3251(4) 0.3854(5) 0.2555(3)
C43_2 C 0.5809(5) 0.2786(6) 0.1306(3)
C44_2 C 0.5173(5) 0.2771(5) 0.1289(3)
H26_2 H 0.4980 0.2674 0.1086
C45_2 C 0.4826(4) 0.2903(6) 0.1576(3)
H27_2 H 0.4401 0.2893 0.1564
C46_2 C 0.5115(5) 0.3048(6) 0.1880(3)
C47_2 C 0.5750(5) 0.3063(5) 0.1897(3)
H28_2 H 0.5943 0.3160 0.2101
C48_2 C 0.6097(4) 0.2931(5) 0.1610(3)
H29_2 H 0.6522 0.2941 0.1622
C49_2 C 0.1552(8) 0.4616(9) 0.2713(5)
C50_2 C 0.6166(9) 0.2701(9) 0.0981(5)
C51_2 C 0.6660(4) 0.0909(6) 0.5945(3)
H30_2 H 0.7050 0.0785 0.5881
C52_2 C 0.6327(6) 0.1301(6) 0.5737(2)
C53_2 C 0.5743(6) 0.1486(5) 0.5833(3)
H31_2 H 0.5520 0.1748 0.5694
C54_2 C 0.5492(4) 0.1280(6) 0.6137(3)
H32_2 H 0.5102 0.1404 0.6201
N4_2 N 0.5825(5) 0.0888(5) 0.6345(2)
C55_2 C 0.6409(5) 0.0702(5) 0.6249(3)
H33_2 H 0.6632 0.0440 0.6388
C59_3 C 0.4401(8) 0.0124(7) 0.4636(5)
H35_3 H 0.3994 0.0225 0.4594
Co20_2 Co 0.23244(10) 0.38213(10) 0.52395(8)
O38_2 O 0.6553(5) 0.3231(5) 0.4854(3)
O42_2 O 0.8195(5) 0.1495(5) 0.4856(3)
O43_2 O 0.8219(4) 0.2454(4) 0.4581(3)
O45_2 O 0.7244(5) 0.3293(5) 0.4490(3)
O48_2 O 0.4553(5) 0.0583(5) 0.6591(3)
O54_2 O 0.5417(6) 0.1322(6) 0.6992(4)
O9_2 O 0.8505(5) 0.8195(5) 0.5144(3)
O10_2 O 0.7546(4) 0.8219(4) 0.5419(3)
C2_2 C 0.8057(6) 0.8495(6) 0.5245(5)
C4_2 C 0.8316(6) 0.9475(6) 0.4992(4)
H1_2 H 0.8711 0.9321 0.4973
C10_2 C 0.7880(5) 0.9124(6) 0.5164(4)
C12_3 C 0.5599(8) 0.9876(7) 0.4636(5)
H5_3 H 0.6006 0.9775 0.4594
C16_2 C 0.7281(6) 0.9353(6) 0.5176(4)
H8_2 H 0.6934 0.9110 0.5197
C31_2 C 0.7272(6) 0.9999(6) 0.5154(4)
O19_3 O 0.3546(5) 0.9198(4) 0.4710(3)
O20_3 O 0.4259(5) 0.8491(5) 0.4641(4)
C56_3 C 0.4523(7) 0.9564(7) 0.4665(4)
C57_3 C 0.5206(7) 0.9413(7) 0.4659(5)
H34_3 H 0.5342 0.9010 0.4670
C58_3 C 0.4094(7) 0.9044(7) 0.4669(4)
Co7_2 Co 0.76756(10) 0.61787(10) 0.52395(8)
O21_4 O 0.8014(4) 0.7010(4) 0.53902(19)
O22_4 O 0.7400(6) 0.5926(6) 0.5716(4)
O24_4 O 0.7937(6) 0.6385(6) 0.4736(4)
N5_4 N 0.6994(7) 0.8017(7) 0.6090(3)
O26_4 O 0.8713(6) 0.7041(6) 0.4727(4)
C60_4 C 0.7059(8) 0.3431(8) 0.4707(5)
C62_4 C 0.7081(8) 0.4032(8) 0.4885(5)
C64_4 C 0.6707(8) 0.4436(8) 0.5085(5)
H37_4 H 0.6343 0.4302 0.5182
C65_4 C 0.7573(7) 0.4394(7) 0.4726(5)
H38_4 H 0.7738 0.4301 0.4514
C67_4 C 0.6320(7) 0.8755(7) 0.6524(4)
C68_4 C 0.6571(8) 0.8408(8) 0.5970(4)
H39_4 H 0.6501 0.8423 0.5738
C69_4 C 0.6237(8) 0.8792(8) 0.6181(4)
H40_4 H 0.5960 0.9070 0.6090
C70_4 C 0.6791(8) 0.4766(7) 0.7819(4)
C72_4 C 0.8389(10) 0.6641(9) 0.4581(4)
C73_4 C 0.7000(6) 0.5800(5) 0.6250(3)
C74_4 C 0.6823(6) 0.6118(4) 0.6540(3)
H42_4 H 0.6803 0.6544 0.6536
C75_4 C 0.6675(6) 0.5801(5) 0.6835(3)
H43_4 H 0.6557 0.6015 0.7028
C76_4 C 0.6704(6) 0.5166(5) 0.6840(3)
C77_4 C 0.6881(6) 0.4847(4) 0.6551(3)
H44_4 H 0.6901 0.4422 0.6554
C78_4 C 0.7029(6) 0.5164(5) 0.6256(3)
H45_4 H 0.7147 0.4951 0.6062
C79_4 C 0.6787(6) 0.5082(7) 0.7503(5)
H46_4 H 0.6935 0.5481 0.7507
C80_4 C 0.7258(10) 0.6166(9) 0.5993(5)
C81_4 C 0.6993(7) 0.7926(7) 0.6420(4)
H47_4 H 0.7257 0.7634 0.6510
C82_4 C 0.6617(6) 0.8246(6) 0.6639(4)
H48_4 H 0.6567 0.8116 0.6862
C83_4 C 0.6333(8) 0.4284(7) 0.7227(5)
H49_4 H 0.6128 0.4118 0.7042
C84_4 C 0.6583(8) 0.4861(7) 0.7180(5)
O30_4 O 0.7239(6) 0.6713(6) 0.6020(4)
N6_4 N 0.7359(6) 0.5287(7) 0.5031(4)
C85_4 C 0.9954(6) 0.8189(6) 0.5151(4)
H50_4 H 0.9743 0.8482 0.5276
H51_4 H 0.9771 0.7045 0.4693
N7_4 N 0.9713(6) 0.7606(5) 0.5100(4)
O31_2 O 0.5447(5) 0.9417(5) 0.6591(3)
C87_4 C 0.5938(7) 0.9188(7) 0.6756(5)
C88_4 C 0.6910(8) 0.5032(8) 0.5129(5)
H52_4 H 0.6649 0.5276 0.5257
C89_4 C 0.7775(8) 0.4906(8) 0.4927(5)
H53_4 H 0.8186 0.4961 0.4980
C90_4 C 0.6631(8) 0.4140(7) 0.7817(5)
H54_4 H 0.6707 0.3888 0.8003
C91_4 C 0.6352(7) 0.3917(6) 0.7522(5)
C92_4 C 0.5756(5) 0.3011(5) 0.7691(3)
H55_4 H 0.5663 0.3239 0.7884
C93_4 C 0.5506(5) 0.2431(5) 0.7648(3)
H56_4 H 0.5245 0.2271 0.7812
C94_4 C 0.5645(6) 0.2091(4) 0.7360(3)
C95_4 C 0.6035(6) 0.2331(5) 0.7115(3)
H57_4 H 0.6128 0.2103 0.6922
C96_4 C 0.6285(5) 0.2911(5) 0.7157(3)
H58_4 H 0.6546 0.3071 0.6993
C97_4 C 0.6146(5) 0.3251(4) 0.7445(3)
C98_4 C 0.7214(6) 0.5809(5) 0.8694(3)
C99_4 C 0.7229(5) 0.5173(5) 0.8711(3)
H59_4 H 0.7326 0.4980 0.8914
C100_4 C 0.7097(6) 0.4826(4) 0.8424(3)
H60_4 H 0.7107 0.4401 0.8436
C101_4 C 0.6952(6) 0.5115(5) 0.8120(3)
C102_4 C 0.6937(5) 0.5750(5) 0.8103(3)
H61_4 H 0.6840 0.5943 0.7899
C103_4 C 0.7069(5) 0.6097(4) 0.8390(3)
H62_4 H 0.7059 0.6522 0.8378
C104_4 C 0.5384(9) 0.1552(8) 0.7287(5)
C105_4 C 0.7299(9) 0.6166(9) 0.9019(5)
C106_4 C 0.9091(6) 0.6660(4) 0.4055(3)
H63_4 H 0.9215 0.7050 0.4119
C107_4 C 0.8699(6) 0.6327(6) 0.4263(2)
C108_4 C 0.8514(5) 0.5743(6) 0.4167(3)
H64_4 H 0.8252 0.5520 0.4306
C109_4 C 0.8720(6) 0.5492(4) 0.3863(3)
H65_4 H 0.8596 0.5102 0.3799
N8_3 N 0.9112(5) 0.5825(5) 0.3655(2)
C110_4 C 0.9298(5) 0.6409(5) 0.3751(3)
H66_4 H 0.9560 0.6632 0.3612
Co19_2 Co 0.38213(10) 0.76756(10) 0.47605(8)
O39_3 O 0.6769(5) 0.6553(5) 0.5146(3)
O40_2 O 0.9198(4) 0.6454(5) 0.5290(3)
O44_2 O 0.8491(5) 0.5741(5) 0.5359(4)
O46_3 O 0.6707(5) 0.7244(5) 0.5510(3)
O9_3 O 0.1495(5) 0.1805(5) 0.5144(3)
O10_3 O 0.2454(4) 0.1781(4) 0.5419(3)
C2_3 C 0.1943(6) 0.1505(6) 0.5245(5)
C4_3 C 0.1684(6) 0.0525(6) 0.4992(4)
H1_3 H 0.1289 0.0679 0.4973
C10_3 C 0.2120(5) 0.0876(6) 0.5164(4)
C16_3 C 0.2719(6) 0.0647(6) 0.5176(4)
H8_3 H 0.3066 0.0890 0.5197
C31_3 C 0.2728(6) 0.0001(6) 0.5154(4)
O21_5 O 0.1986(4) 0.2990(4) 0.53902(19)
O22_5 O 0.2600(6) 0.4074(6) 0.5716(4)
O23 O 0.3447(5) 0.6769(5) 0.4854(3)
O24_5 O 0.2063(6) 0.3615(6) 0.4736(4)
N5_5 N 0.3006(7) 0.1983(7) 0.6090(3)
O26_5 O 0.1287(6) 0.2959(6) 0.4727(4)
C60_5 C 0.2941(8) 0.6569(8) 0.4707(5)
C62_5 C 0.2919(8) 0.5968(8) 0.4885(5)
O29 O 0.2756(5) 0.6707(5) 0.4490(3)
C64_5 C 0.3293(8) 0.5564(8) 0.5085(5)
H37_5 H 0.3657 0.5698 0.5182
C65_5 C 0.2427(7) 0.5606(7) 0.4726(5)
H38_5 H 0.2262 0.5699 0.4514
C67_5 C 0.3680(7) 0.1245(7) 0.6524(4)
C68_5 C 0.3429(8) 0.1592(8) 0.5970(4)
H39_5 H 0.3499 0.1577 0.5738
C69_5 C 0.3763(8) 0.1208(8) 0.6181(4)
H40_5 H 0.4040 0.0930 0.6090
C70_5 C 0.3209(8) 0.5234(7) 0.7819(4)
C72_5 C 0.1611(10) 0.3359(9) 0.4581(4)
C73_5 C 0.3000(6) 0.4200(5) 0.6250(3)
C74_5 C 0.3177(6) 0.3882(4) 0.6540(3)
H42_5 H 0.3197 0.3456 0.6536
C75_5 C 0.3325(6) 0.4199(5) 0.6835(3)
H43_5 H 0.3443 0.3985 0.7028
C76_5 C 0.3296(6) 0.4834(5) 0.6840(3)
C77_5 C 0.3119(6) 0.5153(4) 0.6551(3)
H44_5 H 0.3099 0.5578 0.6554
C78_5 C 0.2971(6) 0.4836(5) 0.6256(3)
H45_5 H 0.2853 0.5049 0.6062
C79_5 C 0.3213(6) 0.4918(7) 0.7503(5)
H46_5 H 0.3065 0.4519 0.7507
C80_5 C 0.2742(10) 0.3834(9) 0.5993(5)
C81_5 C 0.3007(7) 0.2074(7) 0.6420(4)
H47_5 H 0.2743 0.2366 0.6510
C82_5 C 0.3383(6) 0.1754(6) 0.6639(4)
H48_5 H 0.3433 0.1884 0.6862
C83_5 C 0.3667(8) 0.5716(7) 0.7227(5)
H49_5 H 0.3872 0.5882 0.7042
C84_5 C 0.3417(8) 0.5139(7) 0.7180(5)
O30_5 O 0.2761(6) 0.3287(6) 0.6020(4)
N6_5 N 0.2641(6) 0.4713(7) 0.5031(4)
C85_5 C 0.0046(6) 0.1811(6) 0.5151(4)
H50_5 H 0.0257 0.1518 0.5276
H51_5 H 0.0229 0.2955 0.4693
N7_5 N 0.0287(6) 0.2394(5) 0.5100(4)
C87_5 C 0.4062(7) 0.0812(7) 0.6756(5)
C88_5 C 0.3090(8) 0.4968(8) 0.5129(5)
H52_5 H 0.3351 0.4724 0.5257
C89_5 C 0.2225(8) 0.5094(8) 0.4927(5)
H53_5 H 0.1814 0.5039 0.4980
C90_5 C 0.3369(8) 0.5860(7) 0.7817(5)
H54_5 H 0.3293 0.6112 0.8003
C91_5 C 0.3648(7) 0.6083(6) 0.7522(5)
C92_5 C 0.4244(5) 0.6989(5) 0.7691(3)
H55_5 H 0.4337 0.6761 0.7884
C93_5 C 0.4494(5) 0.7569(5) 0.7648(3)
H56_5 H 0.4755 0.7729 0.7812
C94_5 C 0.4355(6) 0.7909(4) 0.7360(3)
C95_5 C 0.3965(6) 0.7669(5) 0.7115(3)
H57_5 H 0.3872 0.7897 0.6922
C96_5 C 0.3715(5) 0.7089(5) 0.7157(3)
H58_5 H 0.3454 0.6929 0.6993
C97_5 C 0.3854(5) 0.6749(4) 0.7445(3)
C98_5 C 0.2786(6) 0.4191(5) 0.8694(3)
C99_5 C 0.2771(5) 0.4827(5) 0.8711(3)
H59_5 H 0.2674 0.5020 0.8914
C100_5 C 0.2903(6) 0.5174(4) 0.8424(3)
H60_5 H 0.2893 0.5599 0.8436
C101_5 C 0.3048(6) 0.4885(5) 0.8120(3)
C102_5 C 0.3063(5) 0.4250(5) 0.8103(3)
H61_5 H 0.3160 0.4057 0.7899
C103_5 C 0.2931(5) 0.3903(4) 0.8390(3)
H62_5 H 0.2941 0.3478 0.8378
O34_3 O 0.4583(6) 0.8678(6) 0.6992(4)
C104_5 C 0.4616(9) 0.8448(8) 0.7287(5)
C105_5 C 0.2701(9) 0.3834(9) 0.9019(5)
C106_5 C 0.0909(6) 0.3340(4) 0.4055(3)
H63_5 H 0.0785 0.2950 0.4119
C107_5 C 0.1301(6) 0.3673(6) 0.4263(2)
C108_5 C 0.1486(5) 0.4257(6) 0.4167(3)
H64_5 H 0.1748 0.4480 0.4306
C109_5 C 0.1280(6) 0.4508(4) 0.3863(3)
H65_5 H 0.1404 0.4898 0.3799
C110_5 C 0.0702(5) 0.3591(5) 0.3751(3)
H66_5 H 0.0440 0.3368 0.3612
O40_3 O 0.0802(4) 0.3546(5) 0.5290(3)
O44_3 O 0.1509(5) 0.4259(5) 0.5359(4)
O2_3 O 0.2990(4) 0.8014(4) 0.46098(19)
O3_3 O 0.4074(6) 0.7400(6) 0.4284(4)
O6_3 O 0.3615(6) 0.7937(6) 0.5264(4)
N1_3 N 0.1983(7) 0.6994(7) 0.3910(3)
O8_3 O 0.2959(6) 0.8713(6) 0.5273(4)
C1_3 C 0.6569(8) 0.7059(8) 0.5293(5)
C3_3 C 0.5968(8) 0.7081(8) 0.5115(5)
C8_3 C 0.5564(8) 0.6707(8) 0.4915(5)
H3_3 H 0.5698 0.6343 0.4818
C9_3 C 0.5606(7) 0.7573(7) 0.5274(5)
H4_3 H 0.5699 0.7738 0.5486
C11_3 C 0.1245(7) 0.6320(7) 0.3476(4)
C13_3 C 0.1592(8) 0.6571(8) 0.4030(4)
H6_3 H 0.1577 0.6501 0.4262
C14_3 C 0.1208(8) 0.6237(8) 0.3819(4)
H7_3 H 0.0930 0.5960 0.3910
C15_3 C 0.5234(7) 0.6791(8) 0.2181(4)
C17_3 C 0.3359(9) 0.8389(10) 0.5419(4)
C18_3 C 0.4200(5) 0.7000(6) 0.3750(3)
C19_3 C 0.3882(4) 0.6823(6) 0.3460(3)
H9_3 H 0.3456 0.6803 0.3464
C20_3 C 0.4199(5) 0.6675(6) 0.3165(3)
H10_3 H 0.3985 0.6557 0.2972
C21_3 C 0.4834(5) 0.6704(6) 0.3160(3)
C22_3 C 0.5153(4) 0.6881(6) 0.3449(3)
H11_3 H 0.5578 0.6901 0.3446
C23_3 C 0.4836(5) 0.7029(6) 0.3744(3)
H12_3 H 0.5049 0.7147 0.3938
C24_3 C 0.4918(7) 0.6787(6) 0.2497(5)
H13_3 H 0.4519 0.6935 0.2493
C25_3 C 0.3834(9) 0.7258(10) 0.4007(5)
C26_3 C 0.2074(7) 0.6993(7) 0.3580(4)
H14_3 H 0.2366 0.7257 0.3490
C27_3 C 0.1754(6) 0.6617(6) 0.3361(4)
H15_3 H 0.1884 0.6567 0.3138
C28_3 C 0.5716(7) 0.6333(8) 0.2773(5)
H16_3 H 0.5882 0.6128 0.2958
C29_3 C 0.5139(7) 0.6583(8) 0.2820(5)
O13_3 O 0.3287(6) 0.7239(6) 0.3980(4)
N2_3 N 0.4713(7) 0.7359(6) 0.4969(4)
C30_3 C 0.1811(6) 0.9954(6) 0.4849(4)
H17_3 H 0.1518 0.9743 0.4724
H18_3 H 0.2955 0.9771 0.5307
N3_3 N 0.2394(5) 0.9713(6) 0.4900(4)
C32_3 C 0.0812(7) 0.5938(7) 0.3244(5)
C33_3 C 0.4968(8) 0.6910(8) 0.4871(5)
H19_3 H 0.4724 0.6649 0.4743
C34_3 C 0.5094(8) 0.7775(8) 0.5073(5)
H20_3 H 0.5039 0.8186 0.5020
C35_3 C 0.5860(7) 0.6631(8) 0.2183(5)
H21_3 H 0.6112 0.6707 0.1997
C36_3 C 0.6083(6) 0.6352(7) 0.2478(5)
C37_3 C 0.6989(5) 0.5756(5) 0.2309(3)
H22_3 H 0.6761 0.5663 0.2116
C38_3 C 0.7569(5) 0.5506(5) 0.2352(3)
H23_3 H 0.7729 0.5245 0.2188
C39_3 C 0.7909(4) 0.5645(6) 0.2640(3)
C40_3 C 0.7669(5) 0.6035(6) 0.2885(3)
H24_3 H 0.7897 0.6128 0.3078
C41_3 C 0.7089(5) 0.6285(5) 0.2843(3)
H25_3 H 0.6929 0.6546 0.3007
C42_3 C 0.6749(4) 0.6146(5) 0.2555(3)
C43_3 C 0.4191(5) 0.7214(6) 0.1306(3)
C44_3 C 0.4827(5) 0.7229(5) 0.1289(3)
H26_3 H 0.5020 0.7326 0.1086
C45_3 C 0.5174(4) 0.7097(6) 0.1576(3)
H27_3 H 0.5599 0.7107 0.1564
C46_3 C 0.4885(5) 0.6952(6) 0.1880(3)
C47_3 C 0.4250(5) 0.6937(5) 0.1897(3)
H28_3 H 0.4057 0.6840 0.2101
C48_3 C 0.3903(4) 0.7069(5) 0.1610(3)
H29_3 H 0.3478 0.7059 0.1622
O17 O 0.8678(6) 0.5417(6) 0.3008(4)
C49_3 C 0.8448(8) 0.5384(9) 0.2713(5)
C50_3 C 0.3834(9) 0.7299(9) 0.0981(5)
C51_3 C 0.3340(4) 0.9091(6) 0.5945(3)
H30_3 H 0.2950 0.9215 0.5881
C52_3 C 0.3673(6) 0.8699(6) 0.5737(2)
C53_3 C 0.4257(6) 0.8514(5) 0.5833(3)
H31_3 H 0.4480 0.8252 0.5694
C54_3 C 0.4508(4) 0.8720(6) 0.6137(3)
H32_3 H 0.4898 0.8596 0.6201
N4_3 N 0.4175(5) 0.9112(5) 0.6345(2)
C55_3 C 0.3591(5) 0.9298(5) 0.6249(3)
H33_3 H 0.3368 0.9560 0.6388
C61_5 C 0.8495(6) 0.1943(6) 0.4755(5)
C63_5 C 0.9475(6) 0.1684(6) 0.5008(4)
H36_5 H 0.9321 0.1289 0.5027
C66_5 C 0.9124(6) 0.2120(5) 0.4836(4)
C71_5 C 0.9353(6) 0.2719(6) 0.4824(4)
H41_5 H 0.9110 0.3066 0.4803
C86_5 C 0.9999(6) 0.2728(6) 0.4846(4)
C12_4 C 0.0124(7) 0.5599(8) 0.5364(5)
H5_4 H 0.0225 0.6006 0.5406
C56_4 C 0.0436(7) 0.4523(7) 0.5335(4)
C57_4 C 0.0587(7) 0.5206(7) 0.5341(5)
H34_4 H 0.0990 0.5342 0.5330
C58_4 C 0.0956(7) 0.4094(7) 0.5331(4)
C5_4 C 0.9564(7) 0.5477(7) 0.5335(4)
C6_4 C 0.9413(7) 0.4794(7) 0.5341(5)
H2_4 H 0.9010 0.4658 0.5330
C7_4 C 0.9044(7) 0.5906(7) 0.5331(4)
C59_4 C 0.9876(7) 0.4401(8) 0.5364(5)
H35_4 H 0.9775 0.3994 0.5406
loop_
_geom_bond_atom_site_label_1
_geom_bond_atom_site_label_2
_geom_bond_site_symmetry_1
_geom_bond_site_symmetry_2
O1 Co16 1_555 1_555
Co16 O36 1_555 1_555
Co31 O1 1_555 1_555
Co29 O36 1_555 1_555
Co29 O47 1_555 1_555
Co1 O2 1_555 1_555
Co2 O1_2 1_555 1_555
Co3 O2 1_555 1_555
Co4 O2 1_555 1_555
Co5 O14 1_555 1_555
O3 Co3 1_555 1_555
O5 Co1 1_555 1_555
O7 Co2 1_555 1_555
N1 Co4 1_555 1_555
O11 Co3 1_555 1_555
C4 H1 1_555 1_555
C7 O5 1_555 1_555
C11 C14 1_555 1_555
C12 C5 1_555 1_555
H5 C12 1_555 1_555
C13 N1 1_555 1_555
H6 C13 1_555 1_555
C14 C13 1_555 1_555
H7 C14 1_555 1_555
C18 C19 1_555 1_555
C19 H9 1_555 1_555
C20 C19 1_555 1_555
H10 C20 1_555 1_555
C21 C20 1_555 1_555
C23 C18 1_555 1_555
C24 H13 1_555 1_555
C25 O3 1_555 1_555
C26 N1 1_555 1_555
H14 C26 1_555 1_555
C27 C11 1_555 1_555
H15 C27 1_555 1_555
O13 Co4 1_555 1_555
N2 Co3 1_555 1_555
C30 C4 1_555 1_555
H17 C30 1_555 1_555
N3 Co1 1_555 1_555
O14 C32 1_555 1_555
C32 O7 1_555 1_555
H19 C33 1_555 1_555
O15 C50 1_555 1_555
C43 C44 1_555 1_555
C47 C46 1_555 1_555
H28 C47 1_555 1_555
C48 C43 1_555 1_555
H29 C48 1_555 1_555
O18 C50 1_555 1_555
C50 C43 1_555 1_555
C57 C12 1_555 1_555
H34 C57 1_555 1_555
O27 C61 1_555 1_555
O28 C61 1_555 1_555
C61 C66 1_555 1_555
C71 C66 1_555 1_555
H41 C71 1_555 1_555
C72 O24 1_555 1_555
C86 C71 1_555 1_555
H51 C86 1_555 1_555
C106 H63 1_555 1_555
C107 C72 1_555 1_555
C108 C107 1_555 1_555
H64 C108 1_555 1_555
C109 C108 1_555 1_555
H65 C109 1_555 1_555
N8 C109 1_555 1_555
C110 C106 1_555 1_555
H66 C110 1_555 1_555
Co11 O27 1_555 1_555
Co12 O15 1_555 1_555
Co22 O28 1_555 1_555
Co24 O18 1_555 1_555
Co29 N8 1_555 1_555
Co32 O1_2 1_555 1_555
O36_2 Co2 1_555 1_555
O38 Co3 1_555 1_555
O41 Co2 1_555 1_555
O42 Co1 1_555 1_555
O43 Co4 1_555 1_555
O45 Co4 1_555 1_555
O49 Co1 1_555 1_555
O52 Co2 1_555 1_555
O53 Co5 1_555 1_555
O55 Co4 1_555 1_555
N9 Co5 1_555 1_555
Co5 O36_2 1_555 1_555
O11 C7 1_555 1_555
C5 C7 1_555 1_555
C11 C32 1_555 1_555
C18 C25 1_555 1_555
C25 O13 1_555 1_555
C26 C27 1_555 1_555
N2 C33 1_555 1_555
C30 N3 1_555 1_555
C47 C48 1_555 1_555
O26 C72 1_555 1_555
C106 C107 1_555 1_555
N8 C110 1_555 1_555
O9 C2 1_555 1_555
O10 C2 1_555 1_555
C2 C10 1_555 1_555
C16 C10 1_555 1_555
H8 C16 1_555 1_555
C17 O6 1_555 1_555
C31 C16 1_555 1_555
H18 C31 1_555 1_555
C51 H30 1_555 1_555
C52 C17 1_555 1_555
C53 C52 1_555 1_555
H31 C53 1_555 1_555
C54 C53 1_555 1_555
H32 C54 1_555 1_555
N4 C54 1_555 1_555
C55 C51 1_555 1_555
H33 C55 1_555 1_555
Co6 O9 1_555 1_555
Co7 O21 1_555 1_555
Co8 O10 1_555 1_555
Co9 N4 1_555 1_555
O21 Co6 1_555 1_555
O22 Co7 1_555 1_555
O25 C87 1_555 1_555
N5 Co8 1_555 1_555
C63 H36 1_555 1_555
C67 C69 1_555 1_555
C68 N5 1_555 1_555
H39 C68 1_555 1_555
C69 C68 1_555 1_555
H40 C69 1_555 1_555
C73 C74 1_555 1_555
C74 H42 1_555 1_555
C75 C74 1_555 1_555
H43 C75 1_555 1_555
C76 C75 1_555 1_555
C78 C73 1_555 1_555
C79 H46 1_555 1_555
C80 O22 1_555 1_555
C81 N5 1_555 1_555
H47 C81 1_555 1_555
C82 C67 1_555 1_555
H48 C82 1_555 1_555
O30 Co8 1_555 1_555
N6 Co7 1_555 1_555
C85 C63 1_555 1_555
H50 C85 1_555 1_555
N7 Co6 1_555 1_555
O31 Co9 1_555 1_555
C87 C67 1_555 1_555
H52 C88 1_555 1_555
O32 C105 1_555 1_555
C98 C99 1_555 1_555
C102 C101 1_555 1_555
H61 C102 1_555 1_555
C103 C98 1_555 1_555
H62 C103 1_555 1_555
O35 C105 1_555 1_555
C105 C98 1_555 1_555
Co13 O32 1_555 1_555
Co14 O25 1_555 1_555
Co25 O35 1_555 1_555
O37 Co9 1_555 1_555
O39 Co7 1_555 1_555
O40 Co6 1_555 1_555
O44 Co7 1_555 1_555
O46 Co8 1_555 1_555
O50 Co6 1_555 1_555
O54 Co9 1_555 1_555
O56 Co8 1_555 1_555
O8 C17 1_555 1_555
C51 C52 1_555 1_555
N4 C55 1_555 1_555
Co8 O21 1_555 1_555
C73 C80 1_555 1_555
C80 O30 1_555 1_555
C81 C82 1_555 1_555
N6 C88 1_555 1_555
C85 N7 1_555 1_555
O31 C87 1_555 1_555
C102 C103 1_555 1_555
Co14 O37 1_555 1_555
C6 H2 1_555 1_555
C8 H3 1_555 1_555
H11 C22 1_555 1_555
C28 H16 1_555 1_555
C35 C15 1_555 1_555
H21 C35 1_555 1_555
C36 C28 1_555 1_555
C37 H22 1_555 1_555
C38 C37 1_555 1_555
H23 C38 1_555 1_555
C39 C38 1_555 1_555
C40 C39 1_555 1_555
H24 C40 1_555 1_555
C41 C40 1_555 1_555
H25 C41 1_555 1_555
C42 C36 1_555 1_555
H27 C45 1_555 1_555
O16 C49 1_555 1_555
O53 C49 1_555 1_555
C49 C39 1_555 1_555
O19 C58 1_555 1_555
O20 C58 1_555 1_555
C58 C56 1_555 1_555
C59 C6 1_555 1_555
H35 C59 1_555 1_555
Co11 O19 1_555 1_555
Co19 O20 1_555 1_555
C28 C29 1_555 1_555
C35 C36 1_555 1_555
C37 C42 1_555 1_555
C41 C42 1_555 1_555
C56 C59 1_555 1_555
O4 C1 1_555 1_555
C1 C3 1_555 1_555
O12 C1 1_555 1_555
C9 C3 1_555 1_555
H4 C9 1_555 1_555
C34 C9 1_555 1_555
H20 C34 1_555 1_555
Co20 O4 1_555 1_555
Co23 O12 1_555 1_555
Co30 O37_2 1_555 1_555
Co30 O48 1_555 1_555
O38 C60 1_555 1_555
C60 C62 1_555 1_555
O45 C60 1_555 1_555
C65 C62 1_555 1_555
H38 C65 1_555 1_555
C89 C65 1_555 1_555
H53 C89 1_555 1_555
C64 H37 1_555 1_555
H44 C77 1_555 1_555
C83 H49 1_555 1_555
C90 C70 1_555 1_555
H54 C90 1_555 1_555
C91 C83 1_555 1_555
C92 H55 1_555 1_555
C93 C92 1_555 1_555
H56 C93 1_555 1_555
C94 C93 1_555 1_555
C95 C94 1_555 1_555
H57 C95 1_555 1_555
C96 C95 1_555 1_555
H58 C96 1_555 1_555
C97 C91 1_555 1_555
H60 C100 1_555 1_555
O33 C104 1_555 1_555
O54 C104 1_555 1_555
C104 C94 1_555 1_555
C83 C84 1_555 1_555
C90 C91 1_555 1_555
C92 C97 1_555 1_555
C96 C97 1_555 1_555
C64_2 H37_2 1_555 1_555
H44_2 C77_2 1_555 1_555
C83_2 H49_2 1_555 1_555
C90_2 C70_2 1_555 1_555
H54_2 C90_2 1_555 1_555
C91_2 C83_2 1_555 1_555
C92_2 H55_2 1_555 1_555
C93_2 C92_2 1_555 1_555
H56_2 C93_2 1_555 1_555
C94_2 C93_2 1_555 1_555
C95_2 C94_2 1_555 1_555
H57_2 C95_2 1_555 1_555
C96_2 C95_2 1_555 1_555
H58_2 C96_2 1_555 1_555
C97_2 C91_2 1_555 1_555
H60_2 C100_2 1_555 1_555
O51 C104_2 1_555 1_555
O34 C104_2 1_555 1_555
C104_2 C94_2 1_555 1_555
Co29 O34 1_555 1_555
C83_2 C84_2 1_555 1_555
C90_2 C91_2 1_555 1_555
C92_2 C97_2 1_555 1_555
C96_2 C97_2 1_555 1_555
O39 C60_2 1_555 1_555
C60_2 C62_2 1_555 1_555
O46 C60_2 1_555 1_555
C65_2 C62_2 1_555 1_555
H38_2 C65_2 1_555 1_555
C89_2 C65_2 1_555 1_555
H53_2 C89_2 1_555 1_555
Co19 O21_2 1_555 1_555
O21_2 Co11 1_555 1_555
O22_2 Co19 1_555 1_555
O25_2 C87_2 1_555 1_555
N5_2 Co22 1_555 1_555
C63_2 H36_2 1_555 1_555
C67_2 C69_2 1_555 1_555
C68_2 N5_2 1_555 1_555
H39_2 C68_2 1_555 1_555
C69_2 C68_2 1_555 1_555
H40_2 C69_2 1_555 1_555
C73_2 C74_2 1_555 1_555
C74_2 H42_2 1_555 1_555
C75_2 C74_2 1_555 1_555
H43_2 C75_2 1_555 1_555
C76_2 C75_2 1_555 1_555
C78_2 C73_2 1_555 1_555
C79_2 H46_2 1_555 1_555
C80_2 O22_2 1_555 1_555
C81_2 N5_2 1_555 1_555
H47_2 C81_2 1_555 1_555
C82_2 C67_2 1_555 1_555
H48_2 C82_2 1_555 1_555
O30_2 Co22 1_555 1_555
N6_2 Co19 1_555 1_555
C85_2 C63_2 1_555 1_555
H50_2 C85_2 1_555 1_555
N7_2 Co11 1_555 1_555
C87_2 C67_2 1_555 1_555
H52_2 C88_2 1_555 1_555
O32_2 C105_2 1_555 1_555
C98_2 C99_2 1_555 1_555
C102_2 C101_2 1_555 1_555
H61_2 C102_2 1_555 1_555
C103_2 C98_2 1_555 1_555
H62_2 C103_2 1_555 1_555
O35_2 C105_2 1_555 1_555
C105_2 C98_2 1_555 1_555
Co13_2 O32_2 1_555 1_555
Co16 O25_2 1_555 1_555
Co25_2 O35_2 1_555 1_555
O39_2 Co19 1_555 1_555
O46_2 Co22 1_555 1_555
O50_2 Co11 1_555 1_555
O56_2 Co22 1_555 1_555
Co22 O21_2 1_555 1_555
C73_2 C80_2 1_555 1_555
C80_2 O30_2 1_555 1_555
C81_2 C82_2 1_555 1_555
N6_2 C88_2 1_555 1_555
C85_2 N7_2 1_555 1_555
O47 C87_2 1_555 1_555
C102_2 C103_2 1_555 1_555
Co14 O1_3 1_555 1_555
C7_2 O40 1_555 1_555
C12_2 C5_2 1_555 1_555
H5_2 C12_2 1_555 1_555
C57_2 C12_2 1_555 1_555
H34_2 C57_2 1_555 1_555
O27_2 C61_2 1_555 1_555
O28_2 C61_2 1_555 1_555
C61_2 C66_2 1_555 1_555
C71_2 C66_2 1_555 1_555
H41_2 C71_2 1_555 1_555
C72_2 O24_2 1_555 1_555
C86_2 C71_2 1_555 1_555
H51_2 C86_2 1_555 1_555
C106_2 H63_2 1_555 1_555
C107_2 C72_2 1_555 1_555
C108_2 C107_2 1_555 1_555
H64_2 C108_2 1_555 1_555
C109_2 C108_2 1_555 1_555
H65_2 C109_2 1_555 1_555
N8_2 C109_2 1_555 1_555
C110_2 C106_2 1_555 1_555
H66_2 C110_2 1_555 1_555
Co11_2 O27_2 1_555 1_555
Co23 O28_2 1_555 1_555
Co30 N8_2 1_555 1_555
Co32_2 O1_3 1_555 1_555
O41_2 Co14 1_555 1_555
O52_2 Co14 1_555 1_555
O44 C7_2 1_555 1_555
C5_2 C7_2 1_555 1_555
O26_2 C72_2 1_555 1_555
C106_2 C107_2 1_555 1_555
N8_2 C110_2 1_555 1_555
O1_4 Co17 1_555 1_555
Co17 O37_2 1_555 1_555
Co31_2 O1_4 1_555 1_555
C6_2 H2_2 1_555 1_555
O19_2 C58_2 1_555 1_555
O20_2 C58_2 1_555 1_555
C58_2 C56_2 1_555 1_555
C59_2 C6_2 1_555 1_555
H35_2 C59_2 1_555 1_555
Co11_2 O19_2 1_555 1_555
Co20 O20_2 1_555 1_555
C56_2 C59_2 1_555 1_555
O39_2 C60_3 1_555 1_555
C60_3 C62_3 1_555 1_555
O46_2 C60_3 1_555 1_555
C65_3 C62_3 1_555 1_555
H38_3 C65_3 1_555 1_555
C89_3 C65_3 1_555 1_555
H53_3 C89_3 1_555 1_555
C64_3 H37_3 1_555 1_555
H44_3 C77_3 1_555 1_555
C83_3 H49_3 1_555 1_555
C90_3 C70_3 1_555 1_555
H54_3 C90_3 1_555 1_555
C91_3 C83_3 1_555 1_555
C92_3 H55_3 1_555 1_555
C93_3 C92_3 1_555 1_555
H56_3 C93_3 1_555 1_555
C94_3 C93_3 1_555 1_555
C95_3 C94_3 1_555 1_555
H57_3 C95_3 1_555 1_555
C96_3 C95_3 1_555 1_555
H58_3 C96_3 1_555 1_555
C97_3 C91_3 1_555 1_555
H60_3 C100_3 1_555 1_555
O51_2 C104_3 1_555 1_555
O34_2 C104_3 1_555 1_555
C104_3 C94_3 1_555 1_555
Co30 O34_2 1_555 1_555
C83_3 C84_3 1_555 1_555
C90_3 C91_3 1_555 1_555
C92_3 C97_3 1_555 1_555
C96_3 C97_3 1_555 1_555
O42 C61_3 1_555 1_555
O43 C61_3 1_555 1_555
C61_3 C66_3 1_555 1_555
C71_3 C66_3 1_555 1_555
H41_3 C71_3 1_555 1_555
C72_3 O24_3 1_555 1_555
C86_3 C71_3 1_555 1_555
H51_3 C86_3 1_555 1_555
C106_3 H63_3 1_555 1_555
C107_3 C72_3 1_555 1_555
C108_3 C107_3 1_555 1_555
H64_3 C108_3 1_555 1_555
C109_3 C108_3 1_555 1_555
H65_3 C109_3 1_555 1_555
N9 C109_3 1_555 1_555
C110_3 C106_3 1_555 1_555
H66_3 C110_3 1_555 1_555
O41_3 Co16 1_555 1_555
O52_3 Co16 1_555 1_555
O26_3 C72_3 1_555 1_555
C106_3 C107_3 1_555 1_555
N9 C110_3 1_555 1_555
Co20 O21_3 1_555 1_555
O21_3 Co11_2 1_555 1_555
O22_3 Co20 1_555 1_555
O25_3 C87_3 1_555 1_555
N5_3 Co23 1_555 1_555
C63_3 H36_3 1_555 1_555
C67_3 C69_3 1_555 1_555
C68_3 N5_3 1_555 1_555
H39_3 C68_3 1_555 1_555
C69_3 C68_3 1_555 1_555
H40_3 C69_3 1_555 1_555
C73_3 C74_3 1_555 1_555
C74_3 H42_3 1_555 1_555
C75_3 C74_3 1_555 1_555
H43_3 C75_3 1_555 1_555
C76_3 C75_3 1_555 1_555
C78_3 C73_3 1_555 1_555
C79_3 H46_3 1_555 1_555
C80_3 O22_3 1_555 1_555
C81_3 N5_3 1_555 1_555
H47_3 C81_3 1_555 1_555
C82_3 C67_3 1_555 1_555
H48_3 C82_3 1_555 1_555
O30_3 Co23 1_555 1_555
N6_3 Co20 1_555 1_555
C85_3 C63_3 1_555 1_555
H50_3 C85_3 1_555 1_555
N7_3 Co11_2 1_555 1_555
C87_3 C67_3 1_555 1_555
H52_3 C88_3 1_555 1_555
O32_3 C105_3 1_555 1_555
C98_3 C99_3 1_555 1_555
C102_3 C101_3 1_555 1_555
H61_3 C102_3 1_555 1_555
C103_3 C98_3 1_555 1_555
H62_3 C103_3 1_555 1_555
O35_3 C105_3 1_555 1_555
C105_3 C98_3 1_555 1_555
Co13_3 O32_3 1_555 1_555
Co17 O25_3 1_555 1_555
Co25_3 O35_3 1_555 1_555
O50_3 Co11_2 1_555 1_555
O56_3 Co23 1_555 1_555
Co23 O21_3 1_555 1_555
C73_3 C80_3 1_555 1_555
C80_3 O30_3 1_555 1_555
C81_3 C82_3 1_555 1_555
N6_3 C88_3 1_555 1_555
C85_3 N7_3 1_555 1_555
O48 C87_3 1_555 1_555
C102_3 C103_3 1_555 1_555
O41_4 Co17 1_555 1_555
O52_4 Co17 1_555 1_555
O47_2 Co31 1_555 1_555
O53_2 Co31 1_555 1_555
N9_2 Co31 1_555 1_555
O27_3 C61_4 1_555 1_555
O28_3 C61_4 1_555 1_555
C61_4 C66_4 1_555 1_555
C63_4 H36_4 1_555 1_555
C66_4 C63_4 1_555 1_555
C71_4 C66_4 1_555 1_555
H41_4 C71_4 1_555 1_555
C86_4 C71_4 1_555 1_555
Co13_2 O27_3 1_555 1_555
Co25_2 O28_3 1_555 1_555
Co12 O2_2 1_555 1_555
Co3_2 O2_2 1_555 1_555
Co24 O2_2 1_555 1_555
O3_2 Co3_2 1_555 1_555
O4_2 C1_2 1_555 1_555
O5_2 Co12 1_555 1_555
O6_2 Co3_2 1_555 1_555
N1_2 Co24 1_555 1_555
O8_2 Co12 1_555 1_555
O11_2 Co3_2 1_555 1_555
C1_2 C3_2 1_555 1_555
C3_2 C8_2 1_555 1_555
O12_2 C1_2 1_555 1_555
C5_3 C6_3 1_555 1_555
C6_3 H2_3 1_555 1_555
C7_3 O5_2 1_555 1_555
C8_2 H3_2 1_555 1_555
C9_2 C3_2 1_555 1_555
H4_2 C9_2 1_555 1_555
C11_2 C14_2 1_555 1_555
C13_2 N1_2 1_555 1_555
H6_2 C13_2 1_555 1_555
C14_2 C13_2 1_555 1_555
H7_2 C14_2 1_555 1_555
C15_2 C24_2 1_555 1_555
C17_2 O6_2 1_555 1_555
C18_2 C19_2 1_555 1_555
C19_2 H9_2 1_555 1_555
C20_2 C19_2 1_555 1_555
H10_2 C20_2 1_555 1_555
C21_2 C20_2 1_555 1_555
C22_2 C21_2 1_555 1_555
H11_2 C22_2 1_555 1_555
C23_2 C18_2 1_555 1_555
H12_2 C23_2 1_555 1_555
C24_2 H13_2 1_555 1_555
C25_2 O3_2 1_555 1_555
C26_2 N1_2 1_555 1_555
H14_2 C26_2 1_555 1_555
C27_2 C11_2 1_555 1_555
H15_2 C27_2 1_555 1_555
C28_2 H16_2 1_555 1_555
C29_2 C21_2 1_555 1_555
O13_2 Co24 1_555 1_555
N2_2 Co3_2 1_555 1_555
H17_2 C30_2 1_555 1_555
N3_2 Co12 1_555 1_555
O14_2 C32_2 1_555 1_555
C32_2 O41 1_555 1_555
C33_2 C8_2 1_555 1_555
H19_2 C33_2 1_555 1_555
C34_2 C9_2 1_555 1_555
H20_2 C34_2 1_555 1_555
O49 C50_2 1_555 1_555
C35_2 C15_2 1_555 1_555
H21_2 C35_2 1_555 1_555
C36_2 C28_2 1_555 1_555
C37_2 H22_2 1_555 1_555
C38_2 C37_2 1_555 1_555
H23_2 C38_2 1_555 1_555
C39_2 C38_2 1_555 1_555
C40_2 C39_2 1_555 1_555
H24_2 C40_2 1_555 1_555
C41_2 C40_2 1_555 1_555
H25_2 C41_2 1_555 1_555
C42_2 C36_2 1_555 1_555
C43_2 C44_2 1_555 1_555
C44_2 H26_2 1_555 1_555
C45_2 C44_2 1_555 1_555
H27_2 C45_2 1_555 1_555
C46_2 C15_2 1_555 1_555
C47_2 C46_2 1_555 1_555
H28_2 C47_2 1_555 1_555
C48_2 C43_2 1_555 1_555
H29_2 C48_2 1_555 1_555
O52_3 C49_2 1_555 1_555
O53_2 C49_2 1_555 1_555
C49_2 C39_2 1_555 1_555
O55 C50_2 1_555 1_555
C50_2 C43_2 1_555 1_555
C51_2 H30_2 1_555 1_555
C52_2 C17_2 1_555 1_555
C53_2 C52_2 1_555 1_555
H31_2 C53_2 1_555 1_555
C54_2 C53_2 1_555 1_555
H32_2 C54_2 1_555 1_555
N4_2 C54_2 1_555 1_555
C55_2 C51_2 1_555 1_555
H33_2 C55_2 1_555 1_555
C59_3 C6_3 1_555 1_555
H35_3 C59_3 1_555 1_555
Co32_2 N4_2 1_555 1_555
Co20_2 O4_2 1_555 1_555
Co25 O12_2 1_555 1_555
Co32 O14_2 1_555 1_555
O38_2 Co3_2 1_555 1_555
O42_2 Co12 1_555 1_555
O43_2 Co24 1_555 1_555
O45_2 Co24 1_555 1_555
O48_2 Co32_2 1_555 1_555
O54_2 Co32_2 1_555 1_555
O8_2 C17_2 1_555 1_555
O11_2 C7_3 1_555 1_555
C5_3 C7_3 1_555 1_555
C11_2 C32_2 1_555 1_555
C18_2 C25_2 1_555 1_555
C22_2 C23_2 1_555 1_555
C24_2 C29_2 1_555 1_555
C25_2 O13_2 1_555 1_555
C26_2 C27_2 1_555 1_555
C28_2 C29_2 1_555 1_555
N2_2 C33_2 1_555 1_555
N2_2 C34_2 1_555 1_555
C30_2 N3_2 1_555 1_555
C35_2 C36_2 1_555 1_555
C37_2 C42_2 1_555 1_555
C41_2 C42_2 1_555 1_555
C45_2 C46_2 1_555 1_555
C47_2 C48_2 1_555 1_555
C51_2 C52_2 1_555 1_555
N4_2 C55_2 1_555 1_555
O9_2 C2_2 1_555 1_555
O10_2 C2_2 1_555 1_555
C2_2 C10_2 1_555 1_555
C4_2 H1_2 1_555 1_555
C10_2 C4_2 1_555 1_555
H5_3 C12_3 1_555 1_555
C16_2 C10_2 1_555 1_555
H8_2 C16_2 1_555 1_555
C31_2 C16_2 1_555 1_555
O19_3 C58_3 1_555 1_555
O20_3 C58_3 1_555 1_555
C56_3 C57_3 1_555 1_555
C57_3 C12_3 1_555 1_555
H34_3 C57_3 1_555 1_555
C58_3 C56_3 1_555 1_555
Co13_3 O9_2 1_555 1_555
Co7_2 O21_4 1_555 1_555
Co25_3 O10_2 1_555 1_555
O21_4 Co13_3 1_555 1_555
O22_4 Co7_2 1_555 1_555
O38_2 C60_4 1_555 1_555
O24_4 Co7_2 1_555 1_555
O41_4 C87_4 1_555 1_555
N5_4 Co25_3 1_555 1_555
O26_4 Co13_3 1_555 1_555
C60_4 C62_4 1_555 1_555
C62_4 C64_4 1_555 1_555
O45_2 C60_4 1_555 1_555
C64_4 H37_4 1_555 1_555
C65_4 C62_4 1_555 1_555
H38_4 C65_4 1_555 1_555
C67_4 C69_4 1_555 1_555
C68_4 N5_4 1_555 1_555
H39_4 C68_4 1_555 1_555
C69_4 C68_4 1_555 1_555
H40_4 C69_4 1_555 1_555
C70_4 C79_4 1_555 1_555
C72_4 O24_4 1_555 1_555
C73_4 C74_4 1_555 1_555
C74_4 H42_4 1_555 1_555
C75_4 C74_4 1_555 1_555
H43_4 C75_4 1_555 1_555
C76_4 C75_4 1_555 1_555
C77_4 C76_4 1_555 1_555
H44_4 C77_4 1_555 1_555
C78_4 C73_4 1_555 1_555
H45_4 C78_4 1_555 1_555
C79_4 H46_4 1_555 1_555
C80_4 O22_4 1_555 1_555
C81_4 N5_4 1_555 1_555
H47_4 C81_4 1_555 1_555
C82_4 C67_4 1_555 1_555
H48_4 C82_4 1_555 1_555
C83_4 H49_4 1_555 1_555
C84_4 C76_4 1_555 1_555
O30_4 Co25_3 1_555 1_555
N6_4 Co7_2 1_555 1_555
H50_4 C85_4 1_555 1_555
N7_4 Co13_3 1_555 1_555
C87_4 C67_4 1_555 1_555
C88_4 C64_4 1_555 1_555
H52_4 C88_4 1_555 1_555
C89_4 C65_4 1_555 1_555
H53_4 C89_4 1_555 1_555
O50_3 C105_4 1_555 1_555
C90_4 C70_4 1_555 1_555
H54_4 C90_4 1_555 1_555
C91_4 C83_4 1_555 1_555
C92_4 H55_4 1_555 1_555
C93_4 C92_4 1_555 1_555
H56_4 C93_4 1_555 1_555
C94_4 C93_4 1_555 1_555
C95_4 C94_4 1_555 1_555
H57_4 C95_4 1_555 1_555
C96_4 C95_4 1_555 1_555
H58_4 C96_4 1_555 1_555
C97_4 C91_4 1_555 1_555
C98_4 C99_4 1_555 1_555
C99_4 H59_4 1_555 1_555
C100_4 C99_4 1_555 1_555
H60_4 C100_4 1_555 1_555
C101_4 C70_4 1_555 1_555
C102_4 C101_4 1_555 1_555
H61_4 C102_4 1_555 1_555
C103_4 C98_4 1_555 1_555
H62_4 C103_4 1_555 1_555
O52_2 C104_4 1_555 1_555
O54_2 C104_4 1_555 1_555
C104_4 C94_4 1_555 1_555
O56_3 C105_4 1_555 1_555
C105_4 C98_4 1_555 1_555
C106_4 H63_4 1_555 1_555
C107_4 C72_4 1_555 1_555
C108_4 C107_4 1_555 1_555
H64_4 C108_4 1_555 1_555
C109_4 C108_4 1_555 1_555
H65_4 C109_4 1_555 1_555
N8_3 C109_4 1_555 1_555
C110_4 C106_4 1_555 1_555
H66_4 C110_4 1_555 1_555
Co13_2 O19_3 1_555 1_555
Co19_2 O20_3 1_555 1_555
Co32 N8_3 1_555 1_555
Co31_2 O31_2 1_555 1_555
O39_3 Co7_2 1_555 1_555
O40_2 Co13_3 1_555 1_555
O44_2 Co7_2 1_555 1_555
O46_3 Co25_3 1_555 1_555
Co25_3 O21_4 1_555 1_555
O26_4 C72_4 1_555 1_555
C73_4 C80_4 1_555 1_555
C77_4 C78_4 1_555 1_555
C79_4 C84_4 1_555 1_555
C80_4 O30_4 1_555 1_555
C81_4 C82_4 1_555 1_555
C83_4 C84_4 1_555 1_555
N6_4 C88_4 1_555 1_555
N6_4 C89_4 1_555 1_555
C85_4 N7_4 1_555 1_555
O31_2 C87_4 1_555 1_555
C90_4 C91_4 1_555 1_555
C92_4 C97_4 1_555 1_555
C96_4 C97_4 1_555 1_555
C100_4 C101_4 1_555 1_555
C102_4 C103_4 1_555 1_555
C106_4 C107_4 1_555 1_555
N8_3 C110_4 1_555 1_555
O9_3 C2_3 1_555 1_555
O10_3 C2_3 1_555 1_555
C2_3 C10_3 1_555 1_555
C4_3 H1_3 1_555 1_555
C10_3 C4_3 1_555 1_555
C16_3 C10_3 1_555 1_555
H8_3 C16_3 1_555 1_555
C31_3 C16_3 1_555 1_555
Co13 O9_3 1_555 1_555
Co20_2 O21_5 1_555 1_555
Co25 O10_3 1_555 1_555
O21_5 Co13 1_555 1_555
O22_5 Co20_2 1_555 1_555
O23 C60_5 1_555 1_555
O24_5 Co20_2 1_555 1_555
O41_2 C87_5 1_555 1_555
N5_5 Co25 1_555 1_555
O26_5 Co13 1_555 1_555
C60_5 C62_5 1_555 1_555
C62_5 C64_5 1_555 1_555
O29 C60_5 1_555 1_555
C64_5 H37_5 1_555 1_555
C65_5 C62_5 1_555 1_555
H38_5 C65_5 1_555 1_555
C67_5 C69_5 1_555 1_555
C68_5 N5_5 1_555 1_555
H39_5 C68_5 1_555 1_555
C69_5 C68_5 1_555 1_555
H40_5 C69_5 1_555 1_555
C70_5 C79_5 1_555 1_555
C72_5 O24_5 1_555 1_555
C73_5 C74_5 1_555 1_555
C74_5 H42_5 1_555 1_555
C75_5 C74_5 1_555 1_555
H43_5 C75_5 1_555 1_555
C76_5 C75_5 1_555 1_555
C77_5 C76_5 1_555 1_555
H44_5 C77_5 1_555 1_555
C78_5 C73_5 1_555 1_555
H45_5 C78_5 1_555 1_555
C79_5 H46_5 1_555 1_555
C80_5 O22_5 1_555 1_555
C81_5 N5_5 1_555 1_555
H47_5 C81_5 1_555 1_555
C82_5 C67_5 1_555 1_555
H48_5 C82_5 1_555 1_555
C83_5 H49_5 1_555 1_555
C84_5 C76_5 1_555 1_555
O30_5 Co25 1_555 1_555
N6_5 Co20_2 1_555 1_555
H50_5 C85_5 1_555 1_555
N7_5 Co13 1_555 1_555
C87_5 C67_5 1_555 1_555
C88_5 C64_5 1_555 1_555
H52_5 C88_5 1_555 1_555
C89_5 C65_5 1_555 1_555
H53_5 C89_5 1_555 1_555
O50 C105_5 1_555 1_555
C90_5 C70_5 1_555 1_555
H54_5 C90_5 1_555 1_555
C91_5 C83_5 1_555 1_555
C92_5 H55_5 1_555 1_555
C93_5 C92_5 1_555 1_555
H56_5 C93_5 1_555 1_555
C94_5 C93_5 1_555 1_555
C95_5 C94_5 1_555 1_555
H57_5 C95_5 1_555 1_555
C96_5 C95_5 1_555 1_555
H58_5 C96_5 1_555 1_555
C97_5 C91_5 1_555 1_555
C98_5 C99_5 1_555 1_555
C99_5 H59_5 1_555 1_555
C100_5 C99_5 1_555 1_555
H60_5 C100_5 1_555 1_555
C101_5 C70_5 1_555 1_555
C102_5 C101_5 1_555 1_555
H61_5 C102_5 1_555 1_555
C103_5 C98_5 1_555 1_555
H62_5 C103_5 1_555 1_555
O52_4 C104_5 1_555 1_555
O34_3 C104_5 1_555 1_555
C104_5 C94_5 1_555 1_555
O56 C105_5 1_555 1_555
C105_5 C98_5 1_555 1_555
C106_5 H63_5 1_555 1_555
C107_5 C72_5 1_555 1_555
C108_5 C107_5 1_555 1_555
H64_5 C108_5 1_555 1_555
C109_5 C108_5 1_555 1_555
H65_5 C109_5 1_555 1_555
N9_2 C109_5 1_555 1_555
C110_5 C106_5 1_555 1_555
H66_5 C110_5 1_555 1_555
Co19_2 O23 1_555 1_555
Co25_2 O29 1_555 1_555
Co31_2 O34_3 1_555 1_555
O40_3 Co13 1_555 1_555
O44_3 Co20_2 1_555 1_555
Co25 O21_5 1_555 1_555
O26_5 C72_5 1_555 1_555
C73_5 C80_5 1_555 1_555
C77_5 C78_5 1_555 1_555
C79_5 C84_5 1_555 1_555
C80_5 O30_5 1_555 1_555
C81_5 C82_5 1_555 1_555
C83_5 C84_5 1_555 1_555
N6_5 C88_5 1_555 1_555
N6_5 C89_5 1_555 1_555
C85_5 N7_5 1_555 1_555
O48_2 C87_5 1_555 1_555
C90_5 C91_5 1_555 1_555
C92_5 C97_5 1_555 1_555
C96_5 C97_5 1_555 1_555
C100_5 C101_5 1_555 1_555
C102_5 C103_5 1_555 1_555
C106_5 C107_5 1_555 1_555
N9_2 C110_5 1_555 1_555
Co13_2 O2_3 1_555 1_555
Co19_2 O2_3 1_555 1_555
Co25_2 O2_3 1_555 1_555
O3_3 Co19_2 1_555 1_555
O39_3 C1_3 1_555 1_555
O6_3 Co19_2 1_555 1_555
N1_3 Co25_2 1_555 1_555
O8_3 Co13_2 1_555 1_555
C1_3 C3_3 1_555 1_555
C3_3 C8_3 1_555 1_555
O46_3 C1_3 1_555 1_555
C8_3 H3_3 1_555 1_555
C9_3 C3_3 1_555 1_555
H4_3 C9_3 1_555 1_555
C11_3 C14_3 1_555 1_555
C13_3 N1_3 1_555 1_555
H6_3 C13_3 1_555 1_555
C14_3 C13_3 1_555 1_555
H7_3 C14_3 1_555 1_555
C15_3 C24_3 1_555 1_555
C17_3 O6_3 1_555 1_555
C18_3 C19_3 1_555 1_555
C19_3 H9_3 1_555 1_555
C20_3 C19_3 1_555 1_555
H10_3 C20_3 1_555 1_555
C21_3 C20_3 1_555 1_555
C22_3 C21_3 1_555 1_555
H11_3 C22_3 1_555 1_555
C23_3 C18_3 1_555 1_555
H12_3 C23_3 1_555 1_555
C24_3 H13_3 1_555 1_555
C25_3 O3_3 1_555 1_555
C26_3 N1_3 1_555 1_555
H14_3 C26_3 1_555 1_555
C27_3 C11_3 1_555 1_555
H15_3 C27_3 1_555 1_555
C28_3 H16_3 1_555 1_555
C29_3 C21_3 1_555 1_555
O13_3 Co25_2 1_555 1_555
N2_3 Co19_2 1_555 1_555
H17_3 C30_3 1_555 1_555
N3_3 Co13_2 1_555 1_555
O47_2 C32_3 1_555 1_555
C32_3 O41_3 1_555 1_555
C33_3 C8_3 1_555 1_555
H19_3 C33_3 1_555 1_555
C34_3 C9_3 1_555 1_555
H20_3 C34_3 1_555 1_555
O50_2 C50_3 1_555 1_555
C35_3 C15_3 1_555 1_555
H21_3 C35_3 1_555 1_555
C36_3 C28_3 1_555 1_555
C37_3 H22_3 1_555 1_555
C38_3 C37_3 1_555 1_555
H23_3 C38_3 1_555 1_555
C39_3 C38_3 1_555 1_555
C40_3 C39_3 1_555 1_555
H24_3 C40_3 1_555 1_555
C41_3 C40_3 1_555 1_555
H25_3 C41_3 1_555 1_555
C42_3 C36_3 1_555 1_555
C43_3 C44_3 1_555 1_555
C44_3 H26_3 1_555 1_555
C45_3 C44_3 1_555 1_555
H27_3 C45_3 1_555 1_555
C46_3 C15_3 1_555 1_555
C47_3 C46_3 1_555 1_555
H28_3 C47_3 1_555 1_555
C48_3 C43_3 1_555 1_555
H29_3 C48_3 1_555 1_555
O52 C49_3 1_555 1_555
O17 C49_3 1_555 1_555
C49_3 C39_3 1_555 1_555
O56_2 C50_3 1_555 1_555
C50_3 C43_3 1_555 1_555
C51_3 H30_3 1_555 1_555
C52_3 C17_3 1_555 1_555
C53_3 C52_3 1_555 1_555
H31_3 C53_3 1_555 1_555
C54_3 C53_3 1_555 1_555
H32_3 C54_3 1_555 1_555
N4_3 C54_3 1_555 1_555
C55_3 C51_3 1_555 1_555
H33_3 C55_3 1_555 1_555
Co31_2 N4_3 1_555 1_555
Co32 O17 1_555 1_555
O8_3 C17_3 1_555 1_555
C11_3 C32_3 1_555 1_555
C18_3 C25_3 1_555 1_555
C22_3 C23_3 1_555 1_555
C24_3 C29_3 1_555 1_555
C25_3 O13_3 1_555 1_555
C26_3 C27_3 1_555 1_555
C28_3 C29_3 1_555 1_555
N2_3 C33_3 1_555 1_555
N2_3 C34_3 1_555 1_555
C30_3 N3_3 1_555 1_555
C35_3 C36_3 1_555 1_555
C37_3 C42_3 1_555 1_555
C41_3 C42_3 1_555 1_555
C45_3 C46_3 1_555 1_555
C47_3 C48_3 1_555 1_555
C51_3 C52_3 1_555 1_555
N4_3 C55_3 1_555 1_555
O42_2 C61_5 1_555 1_555
O43_2 C61_5 1_555 1_555
C61_5 C66_5 1_555 1_555
C63_5 H36_5 1_555 1_555
C66_5 C63_5 1_555 1_555
C71_5 C66_5 1_555 1_555
H41_5 C71_5 1_555 1_555
C86_5 C71_5 1_555 1_555
H5_4 C12_4 1_555 1_555
O40_3 C58_4 1_555 1_555
O44_3 C58_4 1_555 1_555
C56_4 C57_4 1_555 1_555
C57_4 C12_4 1_555 1_555
H34_4 C57_4 1_555 1_555
C58_4 C56_4 1_555 1_555
C5_4 C6_4 1_555 1_555
C6_4 H2_4 1_555 1_555
C7_4 O40_2 1_555 1_555
C59_4 C6_4 1_555 1_555
H35_4 C59_4 1_555 1_555
O44_2 C7_4 1_555 1_555
C5_4 C7_4 1_555 1_555

#END
