
###############################################################################
#
# This file contains modified crystal structure data generated from the
# MOF subset of the Cambridge Structural Database (CSD) v543 
# hosted by the Cambridge Crystallographic Data Centre (CCDC).
#
# This work is licensed under the Creative Commons
# Attribution-NonCommercial-ShareAlike 4.0 International License.
# To view a copy of this license, visit
# http://creativecommons.org/licenses/by-nc-sa/4.0/
# or send a letter to
# Creative Commons, PO Box 1866, Mountain View, CA 94042, USA.
#
# CIF created using the CSD Python API on 29 September 2022
# The structure has been converted into the P1 space group
# The structure has a 3D framework
# The original CSD entry CUSHIK is in the tetragonal crystal system
# The framework has been calculated to contain at least 10.0% void space
# The void calculation uses a probe of radius 1.32A, grid spacing 0.4
# The framework is charged, counterions have been retained in the structure
#
###############################################################################

data_CUSHIK
_chemical_formula_moiety         '(C432 H256 Co28 N40 O138 8-)n'
_symmetry_cell_setting           triclinic
_symmetry_space_group_name_H-M   'P 1'
_symmetry_Int_Tables_number      1
_space_group_name_Hall           'P 1'
loop_
_symmetry_equiv_pos_site_id
_symmetry_equiv_pos_as_xyz
1 x,y,z
_cell_length_a                   21.81320(10)
_cell_length_b                   21.81320(10)
_cell_length_c                   39.0403(9)
_cell_angle_alpha                90
_cell_angle_beta                 90
_cell_angle_gamma                90
_cell_volume                     18576
loop_
_atom_site_label
_atom_site_type_symbol
_atom_site_fract_x
_atom_site_fract_y
_atom_site_fract_z
Co5 Co 0.04361(8) 0.45589(8) 0.17645(3)
O15 O 0.0000 0.5000 0.28334(9)
Co14 Co 0.05301(3) 0.55301(3) 0.2500
Co31 Co 0.04411(8) 0.45639(8) 0.32355(3)
N11 N 0.0821(3) 0.4226(3) 0.13055(11)
O48 O 0.0474(3) 0.5517(5) 0.16080(15)
O50 O 0.0000 0.5000 0.21666(9)
O54 O 0.0114(2) 0.37783(18) 0.24952(17)
O55 O 0.0381(3) 0.3667(3) 0.19652(15)
Co1 Co 0.61678(5) 0.23270(5) 0.02429(3)
Co2 Co 0.94699(3) 0.44699(3) 0.2500
Co3 Co 0.73268(6) 0.11670(5) 0.02434(3)
Co4 Co 0.74740(5) 0.24740(5) 0.07434(2)
O1 O 0.6988(2) 0.1990(2) 0.03920(7)
N1 N 0.7607(4) 0.0285(4) 0.0074(2)
O3 O 0.5908(4) 0.2619(4) 0.42855(16)
N2 N 0.8013(4) 0.3010(4) 0.10953(11)
O5 O 0.6730(4) 0.2667(5) 0.10518(17)
O7 O 0.5757(3) 0.1483(3) 0.03874(15)
O9 O 0.5900(3) 0.2630(4) 0.07299(18)
N3 N 0.5274(4) 0.2621(4) 0.0077(2)
C4 C 0.4448(5) 0.3306(5) 0.0028(2)
H1 H 0.4304 0.3702 0.0062
O12 O 0.6744(4) 0.2646(6) 0.3960(2)
C6 C 0.8159(5) 0.0035(5) 0.0151(3)
H2 H 0.8446 0.0274 0.0265
C7 C 0.5043(5) 0.3144(5) 0.0141(2)
H3 H 0.5271 0.3427 0.0266
O13 O 0.6479(3) 0.0778(3) 0.02984(15)
C8 C 0.6182(5) 0.2713(6) 0.0998(2)
C9 C 0.5813(5) 0.2878(7) 0.1294(3)
C11 C 0.5938(5) 0.0947(5) 0.03371(15)
C13 C 0.8447(6) 0.3410(6) 0.0978(2)
H5 H 0.8528 0.3418 0.0744
C14 C 0.8737(5) 0.3701(7) 0.15401(19)
C15 C 0.4879(5) 0.3156(8) 0.3431(3)
H6 H 0.4465 0.3254 0.3449
C17 C 0.5792(6) 0.2894(7) 0.3697(3)
N4 N 0.5076(4) 0.3180(6) 0.2497(3)
C18 C 0.4170(7) 0.3488(10) 0.2192(3)
H8 H 0.3966 0.3547 0.1985
C19 C 0.8771(6) 0.3802(6) 0.1186(2)
H9 H 0.9004 0.4121 0.1096
C20 C 0.8255(7) 0.3364(7) 0.1646(3)
H10 H 0.8124 0.3395 0.1872
C21 C 0.5188(6) 0.3027(8) 0.3721(3)
H11 H 0.4991 0.3029 0.3932
C22 C 0.4806(7) 0.3362(9) 0.2796(3)
C23 C 0.6067(6) 0.2921(9) 0.3353(3)
H12 H 0.6489 0.2886 0.3327
C24 C 0.4215(6) 0.3564(8) 0.2809(2)
H13 H 0.4031 0.3648 0.3019
C25 C 0.6184(5) 0.2718(6) 0.4014(3)
C31 C 0.4774(7) 0.3238(9) 0.2207(3)
C32 C 0.5137(7) 0.3152(10) 0.3111(3)
C33 C 0.7960(6) 0.2981(8) 0.1428(2)
H18 H 0.7706 0.2682 0.1520
C34 C 0.5118(7) 0.3167(9) 0.1882(3)
C38 C 0.4836(9) 0.3060(8) 0.1564(4)
H22 H 0.4412 0.3081 0.1542
C39 C 0.5730(6) 0.2992(9) 0.3093(3)
H23 H 0.5901 0.2931 0.2878
C40 C 0.3896(4) 0.3641(7) 0.2513(4)
C41 C 0.5196(7) 0.2923(10) 0.1291(3)
H24 H 0.4999 0.2855 0.1083
O14 O 0.9526(3) 0.4483(5) 0.16080(15)
C42 C 0.5762(10) 0.3130(9) 0.1896(5)
H25 H 0.5967 0.3225 0.2098
C43 C 0.6102(7) 0.2945(11) 0.1598(3)
H26 H 0.6521 0.2873 0.1614
O15_2 O 1.0000 0.5000 0.28334(9)
O16 O 0.9037(3) 0.4041(4) 0.20900(10)
C44 C 0.9086(6) 0.4155(6) 0.1764(2)
C46 C 0.4848(5) 0.0605(6) 0.0369(2)
H28 H 0.4741 0.1006 0.0423
C47 C 0.5469(5) 0.0432(5) 0.03384(19)
C48 C 0.2954(4) 0.3758(5) 0.2857(2)
H29 H 0.3139 0.3518 0.3025
C49 C 0.2374(4) 0.4003(5) 0.29135(18)
H30 H 0.2172 0.3928 0.3119
C50 C 0.2097(3) 0.4360(4) 0.2663(2)
C51 C 0.2400(4) 0.4473(4) 0.23557(17)
H31 H 0.2214 0.4712 0.2188
C52 C 0.2979(4) 0.4227(5) 0.22995(17)
H32 H 0.3181 0.4303 0.2094
C53 C 0.3256(3) 0.3870(5) 0.2550(2)
O17 O 0.12217(18) 0.4886(2) 0.25048(17)
C54 C 0.1506(4) 0.4649(4) 0.27365(19)
O18 O 0.1333(3) 0.4619(3) 0.30348(15)
C56 C 0.4409(7) 0.0170(6) 0.0318(3)
H33 H 0.4011 0.0294 0.0266
O24 O 0.2036(4) 0.3682(4) 0.02646(16)
O26 O 0.2589(3) 0.6770(3) 0.04331(13)
C60 C 0.3049(5) 0.6550(5) 0.0244(2)
O27 O 0.3485(3) 0.6804(3) 0.01318(15)
C61 C 0.2889(5) 0.5906(5) 0.0127(2)
O30 O 0.1306(4) 0.2967(4) 0.02603(19)
C68 C 0.1581(5) 0.3447(6) 0.03826(17)
C83 C 0.1543(4) 0.4261(4) 0.0840(2)
H48 H 0.1863 0.4456 0.0726
C84 C 0.1299(5) 0.4518(3) 0.1135(2)
H49 H 0.1456 0.4884 0.1220
C85 C 0.0587(3) 0.3678(4) 0.11796(16)
H50 H 0.0267 0.3483 0.1293
C86 C 0.0831(4) 0.3421(3) 0.08836(17)
H51 H 0.0674 0.3055 0.0799
C87 C 0.1309(3) 0.3713(4) 0.07136(11)
C92 C 0.2195(5) 0.5082(5) 0.0066(2)
H53 H 0.1802 0.4924 0.0097
C93 C 0.2310(4) 0.5665(4) 0.0169(2)
H54 H 0.2000 0.5900 0.0266
H55 H 0.0158 0.3119 0.0196
Co11 Co 0.38322(5) 0.76730(5) 0.02429(3)
Co19 Co 0.61670(5) 0.23268(6) 0.47566(3)
Co22 Co 0.25260(5) 0.75260(5) 0.07434(2)
Co24 Co 0.74740(5) 0.24740(5) 0.42566(2)
Co27 Co 0.95639(8) 0.54411(8) 0.17645(3)
Co29 Co 0.95589(8) 0.54361(8) 0.32355(3)
O36 O 0.8201(3) 0.1499(3) 0.01392(17)
O38 O 0.7619(4) 0.0908(4) 0.07145(16)
O40 O 0.7411(3) 0.3230(3) 0.04331(13)
O42 O 0.6515(3) 0.3196(3) 0.01318(15)
O43 O 0.8292(3) 0.2239(3) 0.05064(14)
O45 O 0.7646(6) 0.1744(4) 0.1040(2)
O50_2 O 1.0000 0.5000 0.21666(9)
O52 O 0.9041(4) 0.4037(3) 0.29100(10)
O53 O 0.87783(18) 0.5114(2) 0.25048(17)
O4 O 0.6318(4) 0.2036(4) 0.97354(16)
O6 O 0.3230(3) 0.2589(3) 0.95669(13)
C2 C 0.3450(5) 0.3049(5) 0.9756(2)
O8 O 0.3196(3) 0.3485(3) 0.98682(15)
C3 C 0.4094(5) 0.2889(5) 0.9873(2)
O11 O 0.7033(4) 0.1306(4) 0.97397(19)
C10 C 0.6553(6) 0.1581(5) 0.96174(17)
C26 C 0.5739(4) 0.1543(4) 0.9160(2)
H14 H 0.5544 0.1863 0.9274
C27 C 0.5482(3) 0.1299(5) 0.8865(2)
H15 H 0.5116 0.1456 0.8780
N5 N 0.5774(3) 0.0821(3) 0.86945(11)
C28 C 0.6322(4) 0.0587(3) 0.88204(16)
H16 H 0.6517 0.0267 0.8707
C29 C 0.6579(3) 0.0831(4) 0.91164(17)
H17 H 0.6945 0.0674 0.9201
C30 C 0.6287(4) 0.1309(3) 0.92864(11)
C35 C 0.4918(5) 0.2195(5) 0.9934(2)
H19 H 0.5076 0.1802 0.9903
C36 C 0.4335(4) 0.2310(4) 0.9831(2)
H20 H 0.4100 0.2000 0.9734
H21 H 0.6881 0.0158 0.9804
Co6 Co 0.23270(5) 0.38322(5) 0.97571(3)
Co7 Co 0.11670(5) 0.26732(6) 0.97566(3)
Co8 Co 0.24740(5) 0.25260(5) 0.92566(2)
O21 O 0.1990(2) 0.3012(2) 0.96080(7)
N6 N 0.0285(4) 0.2393(4) 0.9926(2)
O23 O 0.2619(4) 0.4092(4) 0.57145(16)
N7 N 0.3010(4) 0.1987(4) 0.89047(11)
O25 O 0.2667(5) 0.3270(4) 0.89482(17)
O28 O 0.2630(4) 0.4100(3) 0.92701(18)
N8 N 0.2621(4) 0.4726(4) 0.9923(2)
C62 C 0.3306(5) 0.5552(5) 0.9972(2)
H35 H 0.3702 0.5696 0.9938
O31 O 0.2646(6) 0.3256(4) 0.6040(2)
C64 C 0.0035(5) 0.1841(5) 0.9849(3)
H36 H 0.0274 0.1554 0.9735
C65 C 0.3144(5) 0.4957(5) 0.9859(2)
H37 H 0.3427 0.4729 0.9734
C66 C 0.2713(6) 0.3818(5) 0.9002(2)
C67 C 0.2878(7) 0.4187(5) 0.8706(3)
C70 C 0.3410(6) 0.1553(6) 0.9022(2)
H39 H 0.3418 0.1472 0.9256
C71 C 0.3701(7) 0.1263(5) 0.84599(19)
C72 C 0.3156(8) 0.5121(5) 0.6569(3)
H40 H 0.3254 0.5535 0.6551
C74 C 0.2894(7) 0.4208(6) 0.6303(3)
N9 N 0.3180(6) 0.4924(4) 0.7503(3)
C75 C 0.3488(10) 0.5830(7) 0.7808(3)
H42 H 0.3547 0.6034 0.8015
C76 C 0.3802(6) 0.1229(6) 0.8814(2)
H43 H 0.4121 0.0996 0.8904
C77 C 0.3364(7) 0.1745(7) 0.8354(3)
H44 H 0.3395 0.1876 0.8128
C78 C 0.3027(8) 0.4812(6) 0.6279(3)
H45 H 0.3029 0.5009 0.6068
C79 C 0.3362(9) 0.5194(7) 0.7204(3)
C80 C 0.2921(9) 0.3933(6) 0.6647(3)
H46 H 0.2886 0.3511 0.6673
C81 C 0.3564(8) 0.5785(6) 0.7191(2)
H47 H 0.3648 0.5969 0.6981
C82 C 0.2718(6) 0.3816(5) 0.5986(3)
C88 C 0.3238(9) 0.5226(7) 0.7793(3)
C89 C 0.3152(10) 0.4863(7) 0.6889(3)
C90 C 0.2981(8) 0.2040(6) 0.8572(2)
H52 H 0.2682 0.2294 0.8480
C91 C 0.3167(9) 0.4882(7) 0.8118(3)
C95 C 0.3060(8) 0.5164(9) 0.8436(4)
H56 H 0.3081 0.5588 0.8458
C96 C 0.2992(9) 0.4270(6) 0.6907(3)
H57 H 0.2931 0.4099 0.7122
C97 C 0.3641(7) 0.6104(4) 0.7487(4)
C98 C 0.2923(10) 0.4804(7) 0.8709(3)
H58 H 0.2855 0.5001 0.8917
O32 O 0.4483(5) 0.0474(3) 0.83920(15)
C99 C 0.3130(9) 0.4238(10) 0.8104(5)
H59 H 0.3225 0.4033 0.7902
C100 C 0.2945(11) 0.3898(7) 0.8402(3)
H60 H 0.2873 0.3479 0.8386
O33 O 0.4041(4) 0.0963(3) 0.79100(10)
C101 C 0.4155(6) 0.0914(6) 0.8236(2)
C102 C 0.3758(5) 0.7046(4) 0.7143(2)
H61 H 0.3518 0.6861 0.6975
C103 C 0.4003(5) 0.7626(4) 0.70865(18)
H62 H 0.3928 0.7828 0.6881
C104 C 0.4360(4) 0.7903(3) 0.7337(2)
C105 C 0.4473(4) 0.7600(4) 0.76443(17)
H63 H 0.4712 0.7786 0.7812
C106 C 0.4227(5) 0.7021(4) 0.77005(17)
H64 H 0.4303 0.6819 0.7906
C107 C 0.3870(5) 0.6744(3) 0.7450(2)
O34 O 0.4886(2) 0.87783(18) 0.74952(17)
C108 C 0.4649(4) 0.8494(4) 0.72635(19)
O35 O 0.4619(3) 0.8667(3) 0.69652(15)
Co12 Co 0.44699(3) 0.05301(3) 0.7500
Co15 Co 0.55301(3) 0.94699(3) 0.7500
Co20 Co 0.23268(6) 0.38330(5) 0.52434(3)
Co25 Co 0.24740(5) 0.25260(5) 0.57434(2)
Co28 Co 0.54411(8) 0.04361(8) 0.82355(3)
Co32 Co 0.45639(8) 0.95589(8) 0.67645(3)
O37 O 0.1499(3) 0.1799(3) 0.98608(17)
O39 O 0.0908(4) 0.2381(4) 0.92855(16)
O41 O 0.1483(3) 0.4243(3) 0.96126(15)
O44 O 0.2239(3) 0.1708(3) 0.94936(14)
O46 O 0.1744(4) 0.2354(6) 0.8960(2)
O47 O 0.0778(3) 0.3521(3) 0.97016(15)
O51 O 0.5000 0.0000 0.78334(9)
C12 C 0.8313(4) 0.9436(4) 0.0067(2)
H4 H 0.8670 0.9259 0.0151
C45 C 0.5591(7) 0.9830(6) 0.0318(3)
H27 H 0.5989 0.9706 0.0266
O19 O 0.4243(3) 0.8517(3) 0.03874(15)
O20 O 0.3521(3) 0.9222(3) 0.02984(15)
C55 C 0.4062(5) 0.9053(5) 0.03371(15)
C57 C 0.5152(5) 0.9395(6) 0.0369(2)
H34 H 0.5259 0.8994 0.0423
C58 C 0.4531(5) 0.9568(5) 0.03384(19)
Co17 Co 0.26732(6) 0.88330(5) 0.02434(3)
O2 O 0.8501(3) 0.8201(3) 0.98608(17)
C1 C 0.8031(4) 0.8458(4) 0.9734(2)
O10 O 0.7761(3) 0.8292(3) 0.94936(14)
C5 C 0.7922(5) 0.9108(5) 0.9853(2)
C16 C 0.7386(5) 0.9379(5) 0.9746(3)
H7 H 0.7122 0.9177 0.9597
C37 C 0.7248(5) 0.9977(5) 0.9871(2)
Co9 Co 0.45589(8) 0.95639(8) 0.82355(3)
Co18 Co 0.88330(5) 0.73268(6) 0.97566(3)
Co23 Co 0.75260(5) 0.74740(5) 0.92566(2)
N12 N 0.4226(3) 0.9179(3) 0.86945(11)
O49 O 0.5517(5) 0.9526(3) 0.83920(15)
O51_2 O 0.5000 1.0000 0.78334(9)
O56 O 0.3667(3) 0.9619(3) 0.80348(15)
C59 C 0.8458(4) 0.1969(4) 0.0266(2)
C63 C 0.9108(5) 0.2078(5) 0.0147(2)
C73 C 0.9379(5) 0.2614(5) 0.0254(3)
H41 H 0.9177 0.2878 0.0403
C94 C 0.9977(5) 0.2752(5) 0.0129(2)
C69 C 0.9436(4) 0.1687(4) 0.9933(2)
H38 H 0.9259 0.1330 0.9849
C69_2 C 0.1687(4) 0.0564(4) 0.0067(2)
H38_2 H 0.1330 0.0741 0.0151
C59_2 C 0.1969(4) 0.1542(4) 0.9734(2)
C63_2 C 0.2078(5) 0.0892(5) 0.9853(2)
C73_2 C 0.2614(5) 0.0621(5) 0.9746(3)
H41_2 H 0.2878 0.0823 0.9597
C94_2 C 0.2752(5) 0.0023(5) 0.9871(2)
O21_2 O 0.3012(2) 0.8010(2) 0.03920(7)
N6_2 N 0.2393(4) 0.9715(4) 0.0074(2)
O23_2 O 0.4092(4) 0.7381(4) 0.42855(16)
N7_2 N 0.1987(4) 0.6990(4) 0.10953(11)
O25_2 O 0.3270(4) 0.7333(5) 0.10518(17)
O28_2 O 0.4100(3) 0.7370(4) 0.07299(18)
N8_2 N 0.4726(4) 0.7379(4) 0.0077(2)
C62_2 C 0.5552(5) 0.6694(5) 0.0028(2)
H35_2 H 0.5696 0.6298 0.0062
O31_2 O 0.3256(4) 0.7354(6) 0.3960(2)
C64_2 C 0.1841(5) 0.9965(5) 0.0151(3)
H36_2 H 0.1554 0.9726 0.0265
C65_2 C 0.4957(5) 0.6856(5) 0.0141(2)
H37_2 H 0.4729 0.6573 0.0266
C66_2 C 0.3818(5) 0.7287(6) 0.0998(2)
C67_2 C 0.4187(5) 0.7122(7) 0.1294(3)
C70_2 C 0.1553(6) 0.6590(6) 0.0978(2)
H39_2 H 0.1472 0.6582 0.0744
C71_2 C 0.1263(5) 0.6299(7) 0.15401(19)
C72_2 C 0.5121(5) 0.6844(8) 0.3431(3)
H40_2 H 0.5535 0.6746 0.3449
C74_2 C 0.4208(6) 0.7106(7) 0.3697(3)
N9_2 N 0.4924(4) 0.6820(6) 0.2497(3)
C75_2 C 0.5830(7) 0.6512(10) 0.2192(3)
H42_2 H 0.6034 0.6453 0.1985
C76_2 C 0.1229(6) 0.6198(6) 0.1186(2)
H43_2 H 0.0996 0.5879 0.1096
C77_2 C 0.1745(7) 0.6636(7) 0.1646(3)
H44_2 H 0.1876 0.6605 0.1872
C78_2 C 0.4812(6) 0.6973(8) 0.3721(3)
H45_2 H 0.5009 0.6971 0.3932
C79_2 C 0.5194(7) 0.6638(9) 0.2796(3)
C80_2 C 0.3933(6) 0.7079(9) 0.3353(3)
H46_2 H 0.3511 0.7114 0.3327
C81_2 C 0.5785(6) 0.6436(8) 0.2809(2)
H47_2 H 0.5969 0.6352 0.3019
C82_2 C 0.3816(5) 0.7282(6) 0.4014(3)
C88_2 C 0.5226(7) 0.6762(9) 0.2207(3)
C89_2 C 0.4863(7) 0.6848(10) 0.3111(3)
C90_2 C 0.2040(6) 0.7019(8) 0.1428(2)
H52_2 H 0.2294 0.7318 0.1520
C91_2 C 0.4882(7) 0.6833(9) 0.1882(3)
C95_2 C 0.5164(9) 0.6940(8) 0.1564(4)
H56_2 H 0.5588 0.6919 0.1542
C96_2 C 0.4270(6) 0.7008(9) 0.3093(3)
H57_2 H 0.4099 0.7069 0.2878
C97_2 C 0.6104(4) 0.6359(7) 0.2513(4)
C98_2 C 0.4804(7) 0.7077(10) 0.1291(3)
H58_2 H 0.5001 0.7145 0.1083
C99_2 C 0.4238(10) 0.6870(9) 0.1896(5)
H59_2 H 0.4033 0.6775 0.2098
C100_2 C 0.3898(7) 0.7055(11) 0.1598(3)
H60_2 H 0.3479 0.7127 0.1614
O33_2 O 0.0963(3) 0.5959(4) 0.20900(10)
C101_2 C 0.0914(6) 0.5845(6) 0.1764(2)
C102_2 C 0.7046(4) 0.6242(5) 0.2857(2)
H61_2 H 0.6861 0.6482 0.3025
C103_2 C 0.7626(4) 0.5997(5) 0.29135(18)
H62_2 H 0.7828 0.6072 0.3119
C104_2 C 0.7903(3) 0.5640(4) 0.2663(2)
C105_2 C 0.7600(4) 0.5527(4) 0.23557(17)
H63_2 H 0.7786 0.5288 0.2188
C106_2 C 0.7021(4) 0.5773(5) 0.22995(17)
H64_2 H 0.6819 0.5697 0.2094
C107_2 C 0.6744(3) 0.6130(5) 0.2550(2)
C108_2 C 0.8494(4) 0.5351(4) 0.27365(19)
O35_2 O 0.8667(3) 0.5381(3) 0.30348(15)
Co20_2 Co 0.38330(5) 0.76732(6) 0.47566(3)
Co25_2 Co 0.25260(5) 0.75260(5) 0.42566(2)
O37_2 O 0.1799(3) 0.8501(3) 0.01392(17)
O39_2 O 0.2381(4) 0.9092(4) 0.07145(16)
O44_2 O 0.1708(3) 0.7761(3) 0.05064(14)
O46_2 O 0.2354(6) 0.8256(4) 0.1040(2)
C11_2 C 0.0947(5) 0.4062(5) 0.96629(15)
O15_3 O 0.5000 0.0000 0.71666(9)
C46_2 C 0.0605(6) 0.5152(5) 0.9631(2)
H28_2 H 0.1006 0.5259 0.9577
C47_2 C 0.0432(5) 0.4531(5) 0.96616(19)
C56_2 C 0.0170(6) 0.5591(7) 0.9682(3)
H33_2 H 0.0294 0.5989 0.9734
O24_2 O 0.3682(4) 0.7964(4) 0.97354(16)
O26_2 O 0.6770(3) 0.7411(3) 0.95669(13)
C60_2 C 0.6550(5) 0.6951(5) 0.9756(2)
O27_2 O 0.6804(3) 0.6515(3) 0.98682(15)
C61_2 C 0.5906(5) 0.7111(5) 0.9873(2)
O30_2 O 0.2967(4) 0.8694(4) 0.97397(19)
C68_2 C 0.3447(6) 0.8419(5) 0.96174(17)
C83_2 C 0.4261(4) 0.8457(4) 0.9160(2)
H48_2 H 0.4456 0.8137 0.9274
C84_2 C 0.4518(3) 0.8701(5) 0.8865(2)
H49_2 H 0.4884 0.8544 0.8780
C85_2 C 0.3678(4) 0.9413(3) 0.88204(16)
H50_2 H 0.3483 0.9733 0.8707
C86_2 C 0.3421(3) 0.9169(4) 0.91164(17)
H51_2 H 0.3055 0.9326 0.9201
C87_2 C 0.3713(4) 0.8691(3) 0.92864(11)
C92_2 C 0.5082(5) 0.7805(5) 0.9934(2)
H53_2 H 0.4924 0.8198 0.9903
C93_2 C 0.5665(4) 0.7690(4) 0.9831(2)
H54_2 H 0.5900 0.8000 0.9734
H55_2 H 0.3119 0.9842 0.9804
Co11_2 Co 0.76730(5) 0.61678(5) 0.97571(3)
Co29_2 Co 0.54361(8) 0.04411(8) 0.67645(3)
O52_2 O 0.4037(3) 0.0959(4) 0.70900(10)
O53_2 O 0.5114(2) 0.12217(18) 0.74952(17)
O15_4 O 0.5000 1.0000 0.71666(9)
O54_2 O 0.37783(18) 0.9886(2) 0.75048(17)
N12_2 N 0.9179(3) 0.5774(3) 0.13055(11)
O56_2 O 0.9619(3) 0.6333(3) 0.19652(15)
C45_2 C 0.9830(6) 0.4409(7) 0.9682(3)
H27_2 H 0.9706 0.4011 0.9734
O19_2 O 0.8517(3) 0.5757(3) 0.96126(15)
O20_2 O 0.9222(3) 0.6479(3) 0.97016(15)
C55_2 C 0.9053(5) 0.5938(5) 0.96629(15)
C57_2 C 0.9395(6) 0.4848(5) 0.9631(2)
H34_2 H 0.8994 0.4741 0.9577
C58_2 C 0.9568(5) 0.5469(5) 0.96616(19)
C59_3 C 0.1542(4) 0.8031(4) 0.0266(2)
C63_3 C 0.0892(5) 0.7922(5) 0.0147(2)
C73_3 C 0.0621(5) 0.7386(5) 0.0254(3)
H41_3 H 0.0823 0.7122 0.0403
C94_3 C 0.0023(5) 0.7248(5) 0.0129(2)
C69_3 C 0.0564(4) 0.8313(4) 0.9933(2)
H38_3 H 0.0741 0.8670 0.9849
O56_3 O 0.6333(3) 0.0381(3) 0.80348(15)
O24_3 O 0.7964(4) 0.6318(4) 0.02646(16)
C60_3 C 0.6951(5) 0.3450(5) 0.0244(2)
C61_3 C 0.7111(5) 0.4094(5) 0.0127(2)
O30_3 O 0.8694(4) 0.7033(4) 0.02603(19)
C68_3 C 0.8419(5) 0.6553(6) 0.03826(17)
C83_3 C 0.8457(4) 0.5739(4) 0.0840(2)
H48_3 H 0.8137 0.5544 0.0726
C84_3 C 0.8701(5) 0.5482(3) 0.1135(2)
H49_3 H 0.8544 0.5116 0.1220
C85_3 C 0.9413(3) 0.6322(4) 0.11796(16)
H50_3 H 0.9733 0.6517 0.1293
C86_3 C 0.9169(4) 0.6579(3) 0.08836(17)
H51_3 H 0.9326 0.6945 0.0799
C87_3 C 0.8691(3) 0.6287(4) 0.07136(11)
C92_3 C 0.7805(5) 0.4918(5) 0.0066(2)
H53_3 H 0.8198 0.5076 0.0097
C93_3 C 0.7690(4) 0.4335(4) 0.0169(2)
H54_3 H 0.8000 0.4100 0.0266
H55_3 H 0.9842 0.6881 0.0196
O52_3 O 0.0959(4) 0.5963(3) 0.29100(10)
O21_3 O 0.8010(2) 0.6988(2) 0.96080(7)
N6_3 N 0.9715(4) 0.7607(4) 0.9926(2)
O23_3 O 0.7381(4) 0.5908(4) 0.57145(16)
N7_3 N 0.6990(4) 0.8013(4) 0.89047(11)
O25_3 O 0.7333(5) 0.6730(4) 0.89482(17)
O28_3 O 0.7370(4) 0.5900(3) 0.92701(18)
N8_3 N 0.7379(4) 0.5274(4) 0.9923(2)
C62_3 C 0.6694(5) 0.4448(5) 0.9972(2)
H35_3 H 0.6298 0.4304 0.9938
O31_3 O 0.7354(6) 0.6744(4) 0.6040(2)
C64_3 C 0.9965(5) 0.8159(5) 0.9849(3)
H36_3 H 0.9726 0.8446 0.9735
C65_3 C 0.6856(5) 0.5043(5) 0.9859(2)
H37_3 H 0.6573 0.5271 0.9734
C66_3 C 0.7287(6) 0.6182(5) 0.9002(2)
C67_3 C 0.7122(7) 0.5813(5) 0.8706(3)
C70_3 C 0.6590(6) 0.8447(6) 0.9022(2)
H39_3 H 0.6582 0.8528 0.9256
C71_3 C 0.6299(7) 0.8737(5) 0.84599(19)
C72_3 C 0.6844(8) 0.4879(5) 0.6569(3)
H40_3 H 0.6746 0.4465 0.6551
C74_3 C 0.7106(7) 0.5792(6) 0.6303(3)
N9_3 N 0.6820(6) 0.5076(4) 0.7503(3)
C75_3 C 0.6512(10) 0.4170(7) 0.7808(3)
H42_3 H 0.6453 0.3966 0.8015
C76_3 C 0.6198(6) 0.8771(6) 0.8814(2)
H43_3 H 0.5879 0.9004 0.8904
C77_3 C 0.6636(7) 0.8255(7) 0.8354(3)
H44_3 H 0.6605 0.8124 0.8128
C78_3 C 0.6973(8) 0.5188(6) 0.6279(3)
H45_3 H 0.6971 0.4991 0.6068
C79_3 C 0.6638(9) 0.4806(7) 0.7204(3)
C80_3 C 0.7079(9) 0.6067(6) 0.6647(3)
H46_3 H 0.7114 0.6489 0.6673
C81_3 C 0.6436(8) 0.4215(6) 0.7191(2)
H47_3 H 0.6352 0.4031 0.6981
C82_3 C 0.7282(6) 0.6184(5) 0.5986(3)
C88_3 C 0.6762(9) 0.4774(7) 0.7793(3)
C89_3 C 0.6848(10) 0.5137(7) 0.6889(3)
C90_3 C 0.7019(8) 0.7960(6) 0.8572(2)
H52_3 H 0.7318 0.7706 0.8480
C91_3 C 0.6833(9) 0.5118(7) 0.8118(3)
C95_3 C 0.6940(8) 0.4836(9) 0.8436(4)
H56_3 H 0.6919 0.4412 0.8458
C96_3 C 0.7008(9) 0.5730(6) 0.6907(3)
H57_3 H 0.7069 0.5901 0.7122
C97_3 C 0.6359(7) 0.3896(4) 0.7487(4)
C98_3 C 0.7077(10) 0.5196(7) 0.8709(3)
H58_3 H 0.7145 0.4999 0.8917
C99_3 C 0.6870(9) 0.5762(10) 0.8104(5)
H59_3 H 0.6775 0.5967 0.7902
C100_3 C 0.7055(11) 0.6102(7) 0.8402(3)
H60_3 H 0.7127 0.6521 0.8386
O33_3 O 0.5959(4) 0.9037(3) 0.79100(10)
C101_3 C 0.5845(6) 0.9086(6) 0.8236(2)
C102_3 C 0.6242(5) 0.2954(4) 0.7143(2)
H61_3 H 0.6482 0.3139 0.6975
C103_3 C 0.5997(5) 0.2374(4) 0.70865(18)
H62_3 H 0.6072 0.2172 0.6881
C104_3 C 0.5640(4) 0.2097(3) 0.7337(2)
C105_3 C 0.5527(4) 0.2400(4) 0.76443(17)
H63_3 H 0.5288 0.2214 0.7812
C106_3 C 0.5773(5) 0.2979(4) 0.77005(17)
H64_3 H 0.5697 0.3181 0.7906
C107_3 C 0.6130(5) 0.3256(3) 0.7450(2)
C108_3 C 0.5351(4) 0.1506(4) 0.72635(19)
O35_3 O 0.5381(3) 0.1333(3) 0.69652(15)
Co20_3 Co 0.76732(6) 0.61670(5) 0.52434(3)
Co25_3 Co 0.75260(5) 0.74740(5) 0.57434(2)
O39_3 O 0.9092(4) 0.7619(4) 0.92855(16)
O46_3 O 0.8256(4) 0.7646(6) 0.8960(2)
O54_3 O 0.9886(2) 0.62217(18) 0.24952(17)
O54_4 O 0.62217(18) 0.0114(2) 0.75048(17)
O52_4 O 0.5963(3) 0.9041(4) 0.70900(10)
O48_2 O 0.0517(5) 0.5474(3) 0.33920(15)
O26_3 O 0.1770(3) 0.7589(3) 0.45669(13)
C60_4 C 0.1550(5) 0.8049(5) 0.4756(2)
O27_3 O 0.1804(3) 0.8485(3) 0.48682(15)
C61_4 C 0.0906(5) 0.7889(5) 0.4873(2)
C62_4 C 0.0552(5) 0.8306(5) 0.5028(2)
H35_4 H 0.0696 0.8702 0.5062
C72_4 C 0.0121(5) 0.8156(8) 0.8431(3)
H40_4 H 0.0535 0.8254 0.8449
C75_4 C 0.0830(7) 0.8488(10) 0.7192(3)
H42_4 H 0.1034 0.8547 0.6985
H45_4 H 0.0009 0.8029 0.8932
C79_4 C 0.0194(7) 0.8362(9) 0.7796(3)
C81_4 C 0.0785(6) 0.8564(8) 0.7809(2)
H47_4 H 0.0969 0.8648 0.8019
C88_4 C 0.0226(7) 0.8238(9) 0.7207(3)
C92_4 C 0.0082(5) 0.7195(5) 0.4934(2)
C93_4 C 0.0665(4) 0.7310(4) 0.4831(2)
H54_4 H 0.0900 0.7000 0.4734
C95_4 C 0.0164(9) 0.8060(8) 0.6564(4)
H56_4 H 0.0588 0.8081 0.6542
C97_4 C 0.1104(4) 0.8641(7) 0.7513(4)
H58_4 H 0.0001 0.7855 0.6083
C102_4 C 0.2046(4) 0.8758(5) 0.7857(2)
H61_4 H 0.1861 0.8518 0.8025
C103_4 C 0.2626(4) 0.9003(5) 0.79135(18)
H62_4 H 0.2828 0.8928 0.8119
C104_4 C 0.2903(3) 0.9360(4) 0.7663(2)
C105_4 C 0.2600(4) 0.9473(4) 0.73557(17)
H63_4 H 0.2786 0.9712 0.7188
C106_4 C 0.2021(4) 0.9227(5) 0.72995(17)
H64_4 H 0.1819 0.9303 0.7094
C107_4 C 0.1744(3) 0.8870(5) 0.7550(2)
C108_4 C 0.3494(4) 0.9649(4) 0.77365(19)
Co11_3 Co 0.26730(5) 0.88322(5) 0.47571(3)
Co1_2 Co 0.73270(5) 0.11678(5) 0.47571(3)
O1_2 O 0.6990(2) 0.1988(2) 0.46080(7)
O2_2 O 0.3201(3) 0.3501(3) 0.51392(17)
N1_2 N 0.5285(4) 0.2607(4) 0.4926(2)
N2_2 N 0.8010(4) 0.3013(4) 0.39047(11)
C1_2 C 0.3458(4) 0.3031(4) 0.5266(2)
O4_2 O 0.7036(4) 0.1318(4) 0.52646(16)
O5_2 O 0.7667(5) 0.1730(4) 0.39482(17)
O7_2 O 0.6483(3) 0.0757(3) 0.46126(15)
O9_2 O 0.7630(4) 0.0900(3) 0.42701(18)
N3_2 N 0.7621(4) 0.0274(4) 0.4923(2)
O10_2 O 0.3292(3) 0.2761(3) 0.55064(14)
C5_2 C 0.4108(5) 0.2922(5) 0.5147(2)
O11_2 O 0.6306(4) 0.2033(4) 0.52603(19)
C6_2 C 0.5035(5) 0.3159(5) 0.4849(3)
H2_2 H 0.5274 0.3446 0.4735
C7_2 C 0.8144(5) 0.0043(5) 0.4859(2)
H3_2 H 0.8427 0.0271 0.4734
O13_2 O 0.5778(3) 0.1479(3) 0.47016(15)
C8_2 C 0.7713(6) 0.1182(5) 0.4002(2)
C9_2 C 0.7878(7) 0.0813(5) 0.3706(3)
C10_2 C 0.6581(5) 0.1553(6) 0.53826(17)
C11_3 C 0.5947(5) 0.0938(5) 0.46629(15)
C12_2 C 0.4436(4) 0.3313(4) 0.4933(2)
H4_2 H 0.4259 0.3670 0.4849
C13_2 C 0.8410(6) 0.3447(6) 0.4022(2)
H5_2 H 0.8418 0.3528 0.4256
C14_2 C 0.8701(7) 0.3737(5) 0.34599(19)
C16_2 C 0.4379(5) 0.2386(5) 0.5254(3)
H7_2 H 0.4177 0.2122 0.5403
C17_2 C 0.7894(7) 0.0792(6) 0.1303(3)
N4_2 N 0.8180(6) 0.0076(4) 0.2503(3)
C19_2 C 0.8802(6) 0.3771(6) 0.3814(2)
H9_2 H 0.9121 0.4004 0.3904
C20_2 C 0.8364(7) 0.3255(7) 0.3354(3)
H10_2 H 0.8395 0.3124 0.3128
C21_2 C 0.8027(8) 0.0188(6) 0.1279(3)
C23_2 C 0.7921(9) 0.1067(6) 0.1647(3)
H12_2 H 0.7886 0.1489 0.1673
C25_2 C 0.7718(6) 0.1184(5) 0.0986(3)
C26_2 C 0.6543(4) 0.0739(4) 0.5840(2)
H14_2 H 0.6863 0.0544 0.5726
C27_2 C 0.6299(5) 0.0482(3) 0.6135(2)
H15_2 H 0.6456 0.0116 0.6220
N5_2 N 0.5821(3) 0.0774(3) 0.63055(11)
C28_2 C 0.5587(3) 0.1322(4) 0.61796(16)
H16_2 H 0.5267 0.1517 0.6293
C29_2 C 0.5831(4) 0.1579(3) 0.58836(17)
H17_2 H 0.5674 0.1945 0.5799
C30_2 C 0.6309(3) 0.1287(4) 0.57136(11)
C32_2 C 0.8152(10) 0.0137(7) 0.1889(3)
C33_2 C 0.7981(8) 0.2960(6) 0.3572(2)
H18_2 H 0.7682 0.2706 0.3480
C34_2 C 0.8167(9) 0.0118(7) 0.3118(3)
H19_2 H 0.6802 0.0076 0.5097
C37_2 C 0.4977(5) 0.2248(5) 0.5129(2)
H21_2 H 0.5158 0.1881 0.5196
C39_2 C 0.7992(9) 0.0730(6) 0.1907(3)
H23_2 H 0.7931 0.0901 0.2122
C41_2 C 0.7923(10) 0.0196(7) 0.3709(3)
O14_2 O 0.9483(5) 0.4526(3) 0.33920(15)
C42_2 C 0.8130(9) 0.0762(10) 0.3104(5)
H25_2 H 0.8225 0.0967 0.2902
C43_2 C 0.7945(11) 0.1102(7) 0.3402(3)
H26_2 H 0.7873 0.1521 0.3386
C44_2 C 0.9155(6) 0.4086(6) 0.3236(2)
C45_3 C 0.4830(6) 0.0591(7) 0.4682(3)
H27_3 H 0.4706 0.0989 0.4734
C47_3 C 0.5432(5) 0.0469(5) 0.46616(19)
C57_3 C 0.4395(6) 0.0152(5) 0.4631(2)
H34_3 H 0.3994 0.0259 0.4577
O36_2 O 0.6499(3) 0.3201(3) 0.48608(17)
O40_2 O 0.8230(3) 0.2411(3) 0.45669(13)
O42_2 O 0.8196(3) 0.1515(3) 0.48682(15)
O43_2 O 0.7239(3) 0.3292(3) 0.44936(14)
N11_2 N 0.9226(3) 0.5821(3) 0.36945(11)
O49_2 O 0.4526(3) 0.0517(5) 0.66080(15)
O6_2 O 0.7589(3) 0.8230(3) 0.54331(13)
C2_2 C 0.8049(5) 0.8450(5) 0.5244(2)
O8_2 O 0.8485(3) 0.8196(3) 0.51318(15)
C3_2 C 0.7889(5) 0.9094(5) 0.5127(2)
C4_2 C 0.8306(5) 0.9448(5) 0.4972(2)
H1_2 H 0.8702 0.9304 0.4938
C15_2 C 0.8156(8) 0.9879(5) 0.1569(3)
H6_2 H 0.8254 0.9465 0.1551
C18_2 C 0.8488(10) 0.9170(7) 0.2808(3)
H8_2 H 0.8547 0.8966 0.3015
H11_2 H 0.8029 0.9991 0.1068
C22_2 C 0.8362(9) 0.9806(7) 0.2204(3)
C24_2 C 0.8564(8) 0.9215(6) 0.2191(2)
H13_2 H 0.8648 0.9031 0.1981
C31_2 C 0.8238(9) 0.9774(7) 0.2793(3)
C35_2 C 0.7195(5) 0.9918(5) 0.5066(2)
C36_2 C 0.7310(4) 0.9335(4) 0.5169(2)
H20_2 H 0.7000 0.9100 0.5266
C38_2 C 0.8060(8) 0.9836(9) 0.3436(4)
H22_2 H 0.8081 0.9412 0.3458
C40_2 C 0.8641(7) 0.8896(4) 0.2487(4)
H24_2 H 0.7855 0.9999 0.3917
C46_3 C 0.5605(6) 0.9848(5) 0.4631(2)
H28_3 H 0.6006 0.9741 0.4577
C48_2 C 0.8758(5) 0.7954(4) 0.2143(2)
H29_2 H 0.8518 0.8139 0.1975
C49_2 C 0.9003(5) 0.7374(4) 0.20865(18)
H30_2 H 0.8928 0.7172 0.1881
C50_2 C 0.9360(4) 0.7097(3) 0.2337(2)
C51_2 C 0.9473(4) 0.7400(4) 0.26443(17)
H31_2 H 0.9712 0.7214 0.2812
C52_2 C 0.9227(5) 0.7979(4) 0.27005(17)
H32_2 H 0.9303 0.8181 0.2906
C53_2 C 0.8870(5) 0.8256(3) 0.2450(2)
C54_2 C 0.9649(4) 0.6506(4) 0.22635(19)
O19_3 O 0.3517(3) 0.9243(3) 0.46126(15)
O20_3 O 0.4222(3) 0.8521(3) 0.47016(15)
C55_3 C 0.4053(5) 0.9062(5) 0.46629(15)
C56_3 C 0.5170(6) 0.9409(7) 0.4682(3)
H33_3 H 0.5294 0.9011 0.4734
C58_3 C 0.4568(5) 0.9531(5) 0.46616(19)
Co6_2 Co 0.88322(5) 0.73270(5) 0.52429(3)
O21_4 O 0.8012(2) 0.6990(2) 0.53920(7)
N6_4 N 0.7393(4) 0.5285(4) 0.5074(2)
N7_4 N 0.6987(4) 0.8010(4) 0.60953(11)
C59_4 C 0.6969(4) 0.3458(4) 0.4734(2)
O24_4 O 0.8682(4) 0.7036(4) 0.47354(16)
O25_4 O 0.8270(4) 0.7667(5) 0.60518(17)
O28_4 O 0.9100(3) 0.7630(4) 0.57299(18)
N8_4 N 0.9726(4) 0.7621(4) 0.5077(2)
C63_4 C 0.7078(5) 0.4108(5) 0.4853(2)
O30_4 O 0.7967(4) 0.6306(4) 0.47397(19)
C64_4 C 0.6841(5) 0.5035(5) 0.5151(3)
H36_4 H 0.6554 0.5274 0.5265
C65_4 C 0.9957(5) 0.8144(5) 0.5141(2)
H37_4 H 0.9729 0.8427 0.5266
C66_4 C 0.8818(5) 0.7713(6) 0.5998(2)
C67_4 C 0.9187(5) 0.7878(7) 0.6294(3)
C68_4 C 0.8447(6) 0.6581(5) 0.46174(17)
C69_4 C 0.6687(4) 0.4436(4) 0.5067(2)
H38_4 H 0.6330 0.4259 0.5151
C70_4 C 0.6553(6) 0.8410(6) 0.5978(2)
H39_4 H 0.6472 0.8418 0.5744
C71_4 C 0.6263(5) 0.8701(7) 0.65401(19)
C73_4 C 0.7614(5) 0.4379(5) 0.4746(3)
H41_4 H 0.7878 0.4177 0.4597
C74_4 C 0.9208(6) 0.7894(7) 0.8697(3)
N9_4 N 0.9924(4) 0.8180(6) 0.7497(3)
C76_4 C 0.6229(6) 0.8802(6) 0.6186(2)
H43_4 H 0.5996 0.9121 0.6096
C77_4 C 0.6745(7) 0.8364(7) 0.6646(3)
H44_4 H 0.6876 0.8395 0.6872
C78_4 C 0.9812(6) 0.8027(8) 0.8721(3)
C80_4 C 0.8933(6) 0.7921(9) 0.8353(3)
H46_4 H 0.8511 0.7886 0.8327
C82_4 C 0.8816(5) 0.7718(6) 0.9014(3)
C83_4 C 0.9261(4) 0.6543(4) 0.4160(2)
H48_4 H 0.9456 0.6863 0.4274
C84_4 C 0.9518(3) 0.6299(5) 0.3865(2)
H49_4 H 0.9884 0.6456 0.3780
C85_4 C 0.8678(4) 0.5587(3) 0.38204(16)
H50_4 H 0.8483 0.5267 0.3707
C86_4 C 0.8421(3) 0.5831(4) 0.41164(17)
H51_4 H 0.8055 0.5674 0.4201
C87_4 C 0.8713(4) 0.6309(3) 0.42864(11)
C89_4 C 0.9863(7) 0.8152(10) 0.8111(3)
C90_4 C 0.7040(6) 0.7981(8) 0.6428(2)
H52_4 H 0.7294 0.7682 0.6520
C91_4 C 0.9882(7) 0.8167(9) 0.6882(3)
H53_4 H 0.9924 0.6802 0.4903
C94_4 C 0.7752(5) 0.4977(5) 0.4871(2)
H55_4 H 0.8119 0.5158 0.4804
C96_4 C 0.9270(6) 0.7992(9) 0.8093(3)
H57_4 H 0.9099 0.7931 0.7878
C98_4 C 0.9804(7) 0.7923(10) 0.6291(3)
O32_2 O 0.5474(3) 0.9483(5) 0.66080(15)
C99_4 C 0.9238(10) 0.8130(9) 0.6896(5)
H59_4 H 0.9033 0.8225 0.7098
C100_4 C 0.8898(7) 0.7945(11) 0.6598(3)
H60_4 H 0.8479 0.7873 0.6614
C101_4 C 0.5914(6) 0.9155(6) 0.6764(2)
O37_3 O 0.6799(3) 0.6499(3) 0.51392(17)
O41_2 O 0.9243(3) 0.6483(3) 0.53874(15)
O44_3 O 0.6708(3) 0.7239(3) 0.55064(14)
O47_2 O 0.8521(3) 0.5778(3) 0.52984(15)
N12_3 N 0.4179(3) 0.9226(3) 0.63055(11)
O6_3 O 0.2411(3) 0.1770(3) 0.54331(13)
C2_3 C 0.1951(5) 0.1550(5) 0.5244(2)
O8_3 O 0.1515(3) 0.1804(3) 0.51318(15)
C3_3 C 0.2111(5) 0.0906(5) 0.5127(2)
C4_3 C 0.1694(5) 0.0552(5) 0.4972(2)
H1_3 H 0.1298 0.0696 0.4938
C15_3 C 0.1844(8) 0.0121(5) 0.1569(3)
H6_3 H 0.1746 0.0535 0.1551
C18_3 C 0.1512(10) 0.0830(7) 0.2808(3)
H8_3 H 0.1453 0.1034 0.3015
H11_3 H 0.1971 0.0009 0.1068
C22_3 C 0.1638(9) 0.0194(7) 0.2204(3)
C24_3 C 0.1436(8) 0.0785(6) 0.2191(2)
H13_3 H 0.1352 0.0969 0.1981
C31_3 C 0.1762(9) 0.0226(7) 0.2793(3)
C35_3 C 0.2805(5) 0.0082(5) 0.5066(2)
C36_3 C 0.2690(4) 0.0665(4) 0.5169(2)
H20_3 H 0.3000 0.0900 0.5266
C38_3 C 0.1940(8) 0.0164(9) 0.3436(4)
H22_3 H 0.1919 0.0588 0.3458
C40_3 C 0.1359(7) 0.1104(4) 0.2487(4)
H24_3 H 0.2145 0.0001 0.3917
C48_3 C 0.1242(5) 0.2046(4) 0.2143(2)
H29_3 H 0.1482 0.1861 0.1975
C49_3 C 0.0997(5) 0.2626(4) 0.20865(18)
H30_3 H 0.1072 0.2828 0.1881
C50_3 C 0.0640(4) 0.2903(3) 0.2337(2)
C51_3 C 0.0527(4) 0.2600(4) 0.26443(17)
H31_3 H 0.0288 0.2786 0.2812
C52_3 C 0.0773(5) 0.2021(4) 0.27005(17)
H32_3 H 0.0697 0.1819 0.2906
C53_3 C 0.1130(5) 0.1744(3) 0.2450(2)
C54_3 C 0.0351(4) 0.3494(4) 0.22635(19)
Co6_3 Co 0.11678(5) 0.26730(5) 0.52429(3)
O21_5 O 0.1988(2) 0.3010(2) 0.53920(7)
O22 O 0.3501(3) 0.6799(3) 0.48608(17)
N6_5 N 0.2607(4) 0.4715(4) 0.5074(2)
N7_5 N 0.3013(4) 0.1990(4) 0.60953(11)
C59_5 C 0.3031(4) 0.6542(4) 0.4734(2)
O24_5 O 0.1318(4) 0.2964(4) 0.47354(16)
O25_5 O 0.1730(4) 0.2333(5) 0.60518(17)
O28_5 O 0.0900(3) 0.2370(4) 0.57299(18)
N8_5 N 0.0274(4) 0.2379(4) 0.5077(2)
O29 O 0.2761(3) 0.6708(3) 0.44936(14)
C63_5 C 0.2922(5) 0.5892(5) 0.4853(2)
O30_5 O 0.2033(4) 0.3694(4) 0.47397(19)
C64_5 C 0.3159(5) 0.4965(5) 0.5151(3)
H36_5 H 0.3446 0.4726 0.5265
C65_5 C 0.0043(5) 0.1856(5) 0.5141(2)
H37_5 H 0.0271 0.1573 0.5266
C66_5 C 0.1182(5) 0.2287(6) 0.5998(2)
C67_5 C 0.0813(5) 0.2122(7) 0.6294(3)
C68_5 C 0.1553(6) 0.3419(5) 0.46174(17)
C69_5 C 0.3313(4) 0.5564(4) 0.5067(2)
H38_5 H 0.3670 0.5741 0.5151
C70_5 C 0.3447(6) 0.1590(6) 0.5978(2)
H39_5 H 0.3528 0.1582 0.5744
C71_5 C 0.3737(5) 0.1299(7) 0.65401(19)
C73_5 C 0.2386(5) 0.5621(5) 0.4746(3)
H41_5 H 0.2122 0.5823 0.4597
C74_5 C 0.0792(6) 0.2106(7) 0.8697(3)
N9_5 N 0.0076(4) 0.1820(6) 0.7497(3)
C76_5 C 0.3771(6) 0.1198(6) 0.6186(2)
H43_5 H 0.4004 0.0879 0.6096
C77_5 C 0.3255(7) 0.1636(7) 0.6646(3)
H44_5 H 0.3124 0.1605 0.6872
C78_5 C 0.0188(6) 0.1973(8) 0.8721(3)
C80_5 C 0.1067(6) 0.2079(9) 0.8353(3)
H46_5 H 0.1489 0.2114 0.8327
C82_5 C 0.1184(5) 0.2282(6) 0.9014(3)
C83_5 C 0.0739(4) 0.3457(4) 0.4160(2)
H48_5 H 0.0544 0.3137 0.4274
C84_5 C 0.0482(3) 0.3701(5) 0.3865(2)
H49_5 H 0.0116 0.3544 0.3780
N10 N 0.0774(3) 0.4179(3) 0.36945(11)
C85_5 C 0.1322(4) 0.4413(3) 0.38204(16)
H50_5 H 0.1517 0.4733 0.3707
C86_5 C 0.1579(3) 0.4169(4) 0.41164(17)
H51_5 H 0.1945 0.4326 0.4201
C87_5 C 0.1287(4) 0.3691(3) 0.42864(11)
C89_5 C 0.0137(7) 0.1848(10) 0.8111(3)
C90_5 C 0.2960(6) 0.2019(8) 0.6428(2)
H52_5 H 0.2706 0.2318 0.6520
C91_5 C 0.0118(7) 0.1833(9) 0.6882(3)
H53_5 H 0.0076 0.3198 0.4903
C94_5 C 0.2248(5) 0.5023(5) 0.4871(2)
H55_5 H 0.1881 0.4842 0.4804
C96_5 C 0.0730(6) 0.2008(9) 0.8093(3)
H57_5 H 0.0901 0.2069 0.7878
C98_5 C 0.0196(7) 0.2077(10) 0.6291(3)
C99_5 C 0.0762(10) 0.1870(9) 0.6896(5)
H59_5 H 0.0967 0.1775 0.7098
C100_5 C 0.1102(7) 0.2055(11) 0.6598(3)
H60_5 H 0.1521 0.2127 0.6614
C101_5 C 0.4086(6) 0.0845(6) 0.6764(2)
O41_3 O 0.0757(3) 0.3517(3) 0.53874(15)
O47_3 O 0.1479(3) 0.4222(3) 0.52984(15)
O1_3 O 0.3010(2) 0.8012(2) 0.46080(7)
N1_3 N 0.4715(4) 0.7393(4) 0.4926(2)
N2_3 N 0.1990(4) 0.6987(4) 0.39047(11)
C1_3 C 0.6542(4) 0.6969(4) 0.5266(2)
O4_3 O 0.2964(4) 0.8682(4) 0.52646(16)
O5_3 O 0.2333(5) 0.8270(4) 0.39482(17)
O9_3 O 0.2370(4) 0.9100(3) 0.42701(18)
N3_3 N 0.2379(4) 0.9726(4) 0.4923(2)
C5_3 C 0.5892(5) 0.7078(5) 0.5147(2)
O11_3 O 0.3694(4) 0.7967(4) 0.52603(19)
C6_3 C 0.4965(5) 0.6841(5) 0.4849(3)
H2_3 H 0.4726 0.6554 0.4735
C7_3 C 0.1856(5) 0.9957(5) 0.4859(2)
H3_3 H 0.1573 0.9729 0.4734
C8_3 C 0.2287(6) 0.8818(5) 0.4002(2)
C9_3 C 0.2122(7) 0.9187(5) 0.3706(3)
C10_3 C 0.3419(5) 0.8447(6) 0.53826(17)
C12_3 C 0.5564(4) 0.6687(4) 0.4933(2)
H4_3 H 0.5741 0.6330 0.4849
C13_3 C 0.1590(6) 0.6553(6) 0.4022(2)
H5_3 H 0.1582 0.6472 0.4256
C14_3 C 0.1299(7) 0.6263(5) 0.34599(19)
C16_3 C 0.5621(5) 0.7614(5) 0.5254(3)
H7_3 H 0.5823 0.7878 0.5403
C17_3 C 0.2106(7) 0.9208(6) 0.1303(3)
N4_3 N 0.1820(6) 0.9924(4) 0.2503(3)
C19_3 C 0.1198(6) 0.6229(6) 0.3814(2)
H9_3 H 0.0879 0.5996 0.3904
C20_3 C 0.1636(7) 0.6745(7) 0.3354(3)
H10_3 H 0.1605 0.6876 0.3128
C21_3 C 0.1973(8) 0.9812(6) 0.1279(3)
C23_3 C 0.2079(9) 0.8933(6) 0.1647(3)
H12_3 H 0.2114 0.8511 0.1673
C25_3 C 0.2282(6) 0.8816(5) 0.0986(3)
C26_3 C 0.3457(4) 0.9261(4) 0.5840(2)
H14_3 H 0.3137 0.9456 0.5726
C27_3 C 0.3701(5) 0.9518(3) 0.6135(2)
H15_3 H 0.3544 0.9884 0.6220
C28_3 C 0.4413(3) 0.8678(4) 0.61796(16)
H16_3 H 0.4733 0.8483 0.6293
C29_3 C 0.4169(4) 0.8421(3) 0.58836(17)
H17_3 H 0.4326 0.8055 0.5799
C30_3 C 0.3691(3) 0.8713(4) 0.57136(11)
C32_3 C 0.1848(10) 0.9863(7) 0.1889(3)
C33_3 C 0.2019(8) 0.7040(6) 0.3572(2)
H18_3 H 0.2318 0.7294 0.3480
C34_3 C 0.1833(9) 0.9882(7) 0.3118(3)
H19_3 H 0.3198 0.9924 0.5097
C37_3 C 0.5023(5) 0.7752(5) 0.5129(2)
H21_3 H 0.4842 0.8119 0.5196
C39_3 C 0.2008(9) 0.9270(6) 0.1907(3)
H23_3 H 0.2069 0.9099 0.2122
C41_3 C 0.2077(10) 0.9804(7) 0.3709(3)
C42_3 C 0.1870(9) 0.9238(10) 0.3104(5)
H25_3 H 0.1775 0.9033 0.2902
C43_3 C 0.2055(11) 0.8898(7) 0.3402(3)
H26_3 H 0.2127 0.8479 0.3386
C44_3 C 0.0845(6) 0.5914(6) 0.3236(2)
C60_5 C 0.8450(5) 0.1951(5) 0.4756(2)
C61_5 C 0.9094(5) 0.2111(5) 0.4873(2)
C62_5 C 0.9448(5) 0.1694(5) 0.5028(2)
H35_5 H 0.9304 0.1298 0.5062
C72_5 C 0.9879(5) 0.1844(8) 0.8431(3)
H40_5 H 0.9465 0.1746 0.8449
C75_5 C 0.9170(7) 0.1512(10) 0.7192(3)
H42_5 H 0.8966 0.1453 0.6985
H45_5 H 0.9991 0.1971 0.8932
C79_5 C 0.9806(7) 0.1638(9) 0.7796(3)
C81_5 C 0.9215(6) 0.1436(8) 0.7809(2)
H47_5 H 0.9031 0.1352 0.8019
C88_5 C 0.9774(7) 0.1762(9) 0.7207(3)
C92_5 C 0.9918(5) 0.2805(5) 0.4934(2)
C93_5 C 0.9335(4) 0.2690(4) 0.4831(2)
H54_5 H 0.9100 0.3000 0.4734
C95_5 C 0.9836(9) 0.1940(8) 0.6564(4)
H56_5 H 0.9412 0.1919 0.6542
C97_5 C 0.8896(4) 0.1359(7) 0.7513(4)
H58_5 H 0.9999 0.2145 0.6083
C102_5 C 0.7954(4) 0.1242(5) 0.7857(2)
H61_5 H 0.8139 0.1482 0.8025
C103_5 C 0.7374(4) 0.0997(5) 0.79135(18)
H62_5 H 0.7172 0.1072 0.8119
C104_5 C 0.7097(3) 0.0640(4) 0.7663(2)
C105_5 C 0.7400(4) 0.0527(4) 0.73557(17)
H63_5 H 0.7214 0.0288 0.7188
C106_5 C 0.7979(4) 0.0773(5) 0.72995(17)
H64_5 H 0.8181 0.0697 0.7094
C107_5 C 0.8256(3) 0.1130(5) 0.7550(2)
C108_5 C 0.6506(4) 0.0351(4) 0.77365(19)
C46_4 C 0.0152(5) 0.5605(6) 0.5369(2)
H28_4 H 0.0259 0.6006 0.5423
C55_4 C 0.0938(5) 0.4053(5) 0.53371(15)
C56_4 C 0.0591(7) 0.5170(6) 0.5318(3)
H33_4 H 0.0989 0.5294 0.5266
C58_4 C 0.0469(5) 0.4568(5) 0.53384(19)
C11_4 C 0.9062(5) 0.5947(5) 0.53371(15)
C45_4 C 0.9409(7) 0.4830(6) 0.5318(3)
H27_4 H 0.9011 0.4706 0.5266
C47_4 C 0.9531(5) 0.5432(5) 0.53384(19)
C57_4 C 0.9848(5) 0.4395(6) 0.5369(2)
H34_4 H 0.9741 0.3994 0.5423
loop_
_geom_bond_atom_site_label_1
_geom_bond_atom_site_label_2
_geom_bond_site_symmetry_1
_geom_bond_site_symmetry_2
O15 Co14 1_555 1_555
Co14 O50 1_555 1_555
Co31 O15 1_555 1_555
N11 Co5 1_555 1_555
O48 Co5 1_555 1_555
O55 Co5 1_555 1_555
Co5 O50 1_555 1_555
Co1 O1 1_555 1_555
Co2 O15_2 1_555 1_555
Co3 O1 1_555 1_555
Co4 O1 1_555 1_555
N1 Co3 1_555 1_555
O3 C25 1_555 1_555
N2 Co4 1_555 1_555
O5 Co4 1_555 1_555
O7 Co1 1_555 1_555
O9 Co1 1_555 1_555
N3 Co1 1_555 1_555
H1 C4 1_555 1_555
O12 C25 1_555 1_555
C6 N1 1_555 1_555
H2 C6 1_555 1_555
C7 N3 1_555 1_555
H3 C7 1_555 1_555
O13 Co3 1_555 1_555
C8 O5 1_555 1_555
C9 C8 1_555 1_555
C11 O7 1_555 1_555
C13 N2 1_555 1_555
H5 C13 1_555 1_555
C14 C19 1_555 1_555
C15 H6 1_555 1_555
C17 C21 1_555 1_555
N4 C22 1_555 1_555
C18 H8 1_555 1_555
C19 C13 1_555 1_555
H9 C19 1_555 1_555
C20 C14 1_555 1_555
H10 C20 1_555 1_555
C21 C15 1_555 1_555
H11 C21 1_555 1_555
C22 C24 1_555 1_555
C23 C17 1_555 1_555
H12 C23 1_555 1_555
C24 H13 1_555 1_555
C25 C17 1_555 1_555
C31 N4 1_555 1_555
C32 C15 1_555 1_555
C33 N2 1_555 1_555
H18 C33 1_555 1_555
C34 C31 1_555 1_555
C38 C34 1_555 1_555
H22 C38 1_555 1_555
C39 C23 1_555 1_555
H23 C39 1_555 1_555
C40 C18 1_555 1_555
C41 C9 1_555 1_555
H24 C41 1_555 1_555
O14 C44 1_555 1_555
C42 C34 1_555 1_555
H25 C42 1_555 1_555
C43 C9 1_555 1_555
H26 C43 1_555 1_555
O16 Co2 1_555 1_555
C44 C14 1_555 1_555
C46 H28 1_555 1_555
C47 C11 1_555 1_555
C48 H29 1_555 1_555
C49 C48 1_555 1_555
H30 C49 1_555 1_555
C50 C49 1_555 1_555
C51 C50 1_555 1_555
H31 C51 1_555 1_555
C52 C51 1_555 1_555
H32 C52 1_555 1_555
C53 C40 1_555 1_555
O17 C54 1_555 1_555
C54 C50 1_555 1_555
O18 C54 1_555 1_555
C56 C46 1_555 1_555
H33 C56 1_555 1_555
O26 C60 1_555 1_555
C60 O27 1_555 1_555
O27 Co11 1_555 1_555
C61 C60 1_555 1_555
C68 O24 1_555 1_555
C83 H48 1_555 1_555
C84 C83 1_555 1_555
H49 C84 1_555 1_555
N11 C84 1_555 1_555
C85 N11 1_555 1_555
H50 C85 1_555 1_555
C86 C85 1_555 1_555
H51 C86 1_555 1_555
C87 C68 1_555 1_555
H53 C92 1_555 1_555
C93 C61 1_555 1_555
H54 C93 1_555 1_555
Co14 O17 1_555 1_555
Co19 O3 1_555 1_555
Co22 O26 1_555 1_555
Co24 O12 1_555 1_555
Co27 O14 1_555 1_555
Co29 O15_2 1_555 1_555
Co31 O18 1_555 1_555
O36 Co3 1_555 1_555
O38 Co3 1_555 1_555
O40 Co4 1_555 1_555
O42 Co1 1_555 1_555
O43 Co4 1_555 1_555
O45 Co4 1_555 1_555
O50_2 Co2 1_555 1_555
O52 Co2 1_555 1_555
O53 Co2 1_555 1_555
O9 C8 1_555 1_555
C4 C7 1_555 1_555
O13 C11 1_555 1_555
C18 C31 1_555 1_555
C20 C33 1_555 1_555
C22 C32 1_555 1_555
C24 C40 1_555 1_555
C32 C39 1_555 1_555
C38 C41 1_555 1_555
C42 C43 1_555 1_555
O16 C44 1_555 1_555
C46 C47 1_555 1_555
C48 C53 1_555 1_555
C52 C53 1_555 1_555
O30 C68 1_555 1_555
C83 C87 1_555 1_555
C86 C87 1_555 1_555
C92 C93 1_555 1_555
Co27 O50_2 1_555 1_555
O6 C2 1_555 1_555
C2 O8 1_555 1_555
O8 Co6 1_555 1_555
C3 C2 1_555 1_555
C10 O4 1_555 1_555
C26 H14 1_555 1_555
C27 C26 1_555 1_555
H15 C27 1_555 1_555
N5 C27 1_555 1_555
C28 N5 1_555 1_555
H16 C28 1_555 1_555
C29 C28 1_555 1_555
H17 C29 1_555 1_555
C30 C10 1_555 1_555
H19 C35 1_555 1_555
C36 C3 1_555 1_555
H20 C36 1_555 1_555
Co6 O21 1_555 1_555
Co7 O21 1_555 1_555
Co8 O6 1_555 1_555
O21 Co8 1_555 1_555
N6 Co7 1_555 1_555
O23 C82 1_555 1_555
N7 Co8 1_555 1_555
O25 Co8 1_555 1_555
O28 Co6 1_555 1_555
N8 Co6 1_555 1_555
H35 C62 1_555 1_555
O31 C82 1_555 1_555
C64 N6 1_555 1_555
H36 C64 1_555 1_555
C65 N8 1_555 1_555
H37 C65 1_555 1_555
C66 O25 1_555 1_555
C67 C66 1_555 1_555
C70 N7 1_555 1_555
H39 C70 1_555 1_555
C71 C76 1_555 1_555
C72 H40 1_555 1_555
C74 C78 1_555 1_555
N9 C79 1_555 1_555
C75 H42 1_555 1_555
C76 C70 1_555 1_555
H43 C76 1_555 1_555
C77 C71 1_555 1_555
H44 C77 1_555 1_555
C78 C72 1_555 1_555
H45 C78 1_555 1_555
C79 C81 1_555 1_555
C80 C74 1_555 1_555
H46 C80 1_555 1_555
C81 H47 1_555 1_555
C82 C74 1_555 1_555
C88 N9 1_555 1_555
C89 C72 1_555 1_555
C90 N7 1_555 1_555
H52 C90 1_555 1_555
C91 C88 1_555 1_555
C95 C91 1_555 1_555
H56 C95 1_555 1_555
C96 C80 1_555 1_555
H57 C96 1_555 1_555
C97 C75 1_555 1_555
C98 C67 1_555 1_555
H58 C98 1_555 1_555
O32 C101 1_555 1_555
C99 C91 1_555 1_555
H59 C99 1_555 1_555
C100 C67 1_555 1_555
H60 C100 1_555 1_555
O33 C101 1_555 1_555
C101 C71 1_555 1_555
C102 H61 1_555 1_555
C103 C102 1_555 1_555
H62 C103 1_555 1_555
C104 C103 1_555 1_555
C105 C104 1_555 1_555
H63 C105 1_555 1_555
C106 C105 1_555 1_555
H64 C106 1_555 1_555
C107 C97 1_555 1_555
O34 C108 1_555 1_555
C108 C104 1_555 1_555
O35 C108 1_555 1_555
Co12 O33 1_555 1_555
Co15 O34 1_555 1_555
Co20 O23 1_555 1_555
Co25 O31 1_555 1_555
Co28 N5 1_555 1_555
Co32 O35 1_555 1_555
O37 Co7 1_555 1_555
O39 Co7 1_555 1_555
O41 Co6 1_555 1_555
O44 Co8 1_555 1_555
O46 Co8 1_555 1_555
O47 Co7 1_555 1_555
O11 C10 1_555 1_555
C26 C30 1_555 1_555
C29 C30 1_555 1_555
C35 C36 1_555 1_555
O28 C66 1_555 1_555
C62 C65 1_555 1_555
C75 C88 1_555 1_555
C77 C90 1_555 1_555
C79 C89 1_555 1_555
C81 C97 1_555 1_555
C89 C96 1_555 1_555
C95 C98 1_555 1_555
O32 Co28 1_555 1_555
C99 C100 1_555 1_555
C102 C107 1_555 1_555
C106 C107 1_555 1_555
Co12 O51 1_555 1_555
Co28 O51 1_555 1_555
H4 C12 1_555 1_555
C45 H27 1_555 1_555
O19 C55 1_555 1_555
O20 C55 1_555 1_555
C55 C58 1_555 1_555
C57 C45 1_555 1_555
H34 C57 1_555 1_555
Co11 O19 1_555 1_555
Co17 O20 1_555 1_555
C57 C58 1_555 1_555
O2 C1 1_555 1_555
C1 O10 1_555 1_555
O10 Co23 1_555 1_555
C5 C1 1_555 1_555
C16 C5 1_555 1_555
H7 C16 1_555 1_555
Co18 O2 1_555 1_555
N12 Co9 1_555 1_555
O49 Co9 1_555 1_555
O51_2 Co9 1_555 1_555
O56 Co9 1_555 1_555
C16 C37 1_555 1_555
O36 C59 1_555 1_555
C59 O43 1_555 1_555
C63 C59 1_555 1_555
C73 C63 1_555 1_555
H41 C73 1_555 1_555
C73 C94 1_555 1_555
H38 C69 1_555 1_555
H38_2 C69_2 1_555 1_555
O37 C59_2 1_555 1_555
C59_2 O44 1_555 1_555
C63_2 C59_2 1_555 1_555
C73_2 C63_2 1_555 1_555
H41_2 C73_2 1_555 1_555
C73_2 C94_2 1_555 1_555
Co11 O21_2 1_555 1_555
Co17 O21_2 1_555 1_555
O21_2 Co22 1_555 1_555
N6_2 Co17 1_555 1_555
O23_2 C82_2 1_555 1_555
N7_2 Co22 1_555 1_555
O25_2 Co22 1_555 1_555
O28_2 Co11 1_555 1_555
N8_2 Co11 1_555 1_555
H35_2 C62_2 1_555 1_555
O31_2 C82_2 1_555 1_555
C64_2 N6_2 1_555 1_555
H36_2 C64_2 1_555 1_555
C65_2 N8_2 1_555 1_555
H37_2 C65_2 1_555 1_555
C66_2 O25_2 1_555 1_555
C67_2 C66_2 1_555 1_555
C70_2 N7_2 1_555 1_555
H39_2 C70_2 1_555 1_555
C71_2 C76_2 1_555 1_555
C72_2 H40_2 1_555 1_555
C74_2 C78_2 1_555 1_555
N9_2 C79_2 1_555 1_555
C75_2 H42_2 1_555 1_555
C76_2 C70_2 1_555 1_555
H43_2 C76_2 1_555 1_555
C77_2 C71_2 1_555 1_555
H44_2 C77_2 1_555 1_555
C78_2 C72_2 1_555 1_555
H45_2 C78_2 1_555 1_555
C79_2 C81_2 1_555 1_555
C80_2 C74_2 1_555 1_555
H46_2 C80_2 1_555 1_555
C81_2 H47_2 1_555 1_555
C82_2 C74_2 1_555 1_555
C88_2 N9_2 1_555 1_555
C89_2 C72_2 1_555 1_555
C90_2 N7_2 1_555 1_555
H52_2 C90_2 1_555 1_555
C91_2 C88_2 1_555 1_555
C95_2 C91_2 1_555 1_555
H56_2 C95_2 1_555 1_555
C96_2 C80_2 1_555 1_555
H57_2 C96_2 1_555 1_555
C97_2 C75_2 1_555 1_555
C98_2 C67_2 1_555 1_555
H58_2 C98_2 1_555 1_555
O48 C101_2 1_555 1_555
C99_2 C91_2 1_555 1_555
H59_2 C99_2 1_555 1_555
C100_2 C67_2 1_555 1_555
H60_2 C100_2 1_555 1_555
O33_2 C101_2 1_555 1_555
C101_2 C71_2 1_555 1_555
C102_2 H61_2 1_555 1_555
C103_2 C102_2 1_555 1_555
H62_2 C103_2 1_555 1_555
C104_2 C103_2 1_555 1_555
C105_2 C104_2 1_555 1_555
H63_2 C105_2 1_555 1_555
C106_2 C105_2 1_555 1_555
H64_2 C106_2 1_555 1_555
C107_2 C97_2 1_555 1_555
O53 C108_2 1_555 1_555
C108_2 C104_2 1_555 1_555
O35_2 C108_2 1_555 1_555
Co14 O33_2 1_555 1_555
Co20_2 O23_2 1_555 1_555
Co25_2 O31_2 1_555 1_555
Co29 O35_2 1_555 1_555
O37_2 Co17 1_555 1_555
O39_2 Co17 1_555 1_555
O44_2 Co22 1_555 1_555
O46_2 Co22 1_555 1_555
O28_2 C66_2 1_555 1_555
C62_2 C65_2 1_555 1_555
C75_2 C88_2 1_555 1_555
C77_2 C90_2 1_555 1_555
C79_2 C89_2 1_555 1_555
C81_2 C97_2 1_555 1_555
C89_2 C96_2 1_555 1_555
C95_2 C98_2 1_555 1_555
C99_2 C100_2 1_555 1_555
C102_2 C107_2 1_555 1_555
C106_2 C107_2 1_555 1_555
Co12 O15_3 1_555 1_555
C11_2 O41 1_555 1_555
C46_2 H28_2 1_555 1_555
C47_2 C11_2 1_555 1_555
C56_2 C46_2 1_555 1_555
H33_2 C56_2 1_555 1_555
O26_2 C60_2 1_555 1_555
C60_2 O27_2 1_555 1_555
O27_2 Co11_2 1_555 1_555
C61_2 C60_2 1_555 1_555
C68_2 O24_2 1_555 1_555
C83_2 H48_2 1_555 1_555
C84_2 C83_2 1_555 1_555
H49_2 C84_2 1_555 1_555
N12 C84_2 1_555 1_555
C85_2 N12 1_555 1_555
H50_2 C85_2 1_555 1_555
C86_2 C85_2 1_555 1_555
H51_2 C86_2 1_555 1_555
C87_2 C68_2 1_555 1_555
H53_2 C92_2 1_555 1_555
C93_2 C61_2 1_555 1_555
H54_2 C93_2 1_555 1_555
Co23 O26_2 1_555 1_555
Co29_2 O15_3 1_555 1_555
O52_2 Co12 1_555 1_555
O53_2 Co12 1_555 1_555
O47 C11_2 1_555 1_555
C46_2 C47_2 1_555 1_555
O30_2 C68_2 1_555 1_555
C83_2 C87_2 1_555 1_555
C86_2 C87_2 1_555 1_555
C92_2 C93_2 1_555 1_555
O15_4 Co15 1_555 1_555
Co15 O51_2 1_555 1_555
Co32 O15_4 1_555 1_555
N12_2 Co27 1_555 1_555
O56_2 Co27 1_555 1_555
C45_2 H27_2 1_555 1_555
O19_2 C55_2 1_555 1_555
O20_2 C55_2 1_555 1_555
C55_2 C58_2 1_555 1_555
C57_2 C45_2 1_555 1_555
H34_2 C57_2 1_555 1_555
Co11_2 O19_2 1_555 1_555
Co18 O20_2 1_555 1_555
C57_2 C58_2 1_555 1_555
O37_2 C59_3 1_555 1_555
C59_3 O44_2 1_555 1_555
C63_3 C59_3 1_555 1_555
C73_3 C63_3 1_555 1_555
H41_3 C73_3 1_555 1_555
C73_3 C94_3 1_555 1_555
H38_3 C69_3 1_555 1_555
O56_3 Co28 1_555 1_555
O40 C60_3 1_555 1_555
C60_3 O42 1_555 1_555
C61_3 C60_3 1_555 1_555
C68_3 O24_3 1_555 1_555
C83_3 H48_3 1_555 1_555
C84_3 C83_3 1_555 1_555
H49_3 C84_3 1_555 1_555
N12_2 C84_3 1_555 1_555
C85_3 N12_2 1_555 1_555
H50_3 C85_3 1_555 1_555
C86_3 C85_3 1_555 1_555
H51_3 C86_3 1_555 1_555
C87_3 C68_3 1_555 1_555
H53_3 C92_3 1_555 1_555
C93_3 C61_3 1_555 1_555
H54_3 C93_3 1_555 1_555
O52_3 Co14 1_555 1_555
O30_3 C68_3 1_555 1_555
C83_3 C87_3 1_555 1_555
C86_3 C87_3 1_555 1_555
C92_3 C93_3 1_555 1_555
Co11_2 O21_3 1_555 1_555
Co18 O21_3 1_555 1_555
O21_3 Co23 1_555 1_555
N6_3 Co18 1_555 1_555
O23_3 C82_3 1_555 1_555
N7_3 Co23 1_555 1_555
O25_3 Co23 1_555 1_555
O28_3 Co11_2 1_555 1_555
N8_3 Co11_2 1_555 1_555
H35_3 C62_3 1_555 1_555
O31_3 C82_3 1_555 1_555
C64_3 N6_3 1_555 1_555
H36_3 C64_3 1_555 1_555
C65_3 N8_3 1_555 1_555
H37_3 C65_3 1_555 1_555
C66_3 O25_3 1_555 1_555
C67_3 C66_3 1_555 1_555
C70_3 N7_3 1_555 1_555
H39_3 C70_3 1_555 1_555
C71_3 C76_3 1_555 1_555
C72_3 H40_3 1_555 1_555
C74_3 C78_3 1_555 1_555
N9_3 C79_3 1_555 1_555
C75_3 H42_3 1_555 1_555
C76_3 C70_3 1_555 1_555
H43_3 C76_3 1_555 1_555
C77_3 C71_3 1_555 1_555
H44_3 C77_3 1_555 1_555
C78_3 C72_3 1_555 1_555
H45_3 C78_3 1_555 1_555
C79_3 C81_3 1_555 1_555
C80_3 C74_3 1_555 1_555
H46_3 C80_3 1_555 1_555
C81_3 H47_3 1_555 1_555
C82_3 C74_3 1_555 1_555
C88_3 N9_3 1_555 1_555
C89_3 C72_3 1_555 1_555
C90_3 N7_3 1_555 1_555
H52_3 C90_3 1_555 1_555
C91_3 C88_3 1_555 1_555
C95_3 C91_3 1_555 1_555
H56_3 C95_3 1_555 1_555
C96_3 C80_3 1_555 1_555
H57_3 C96_3 1_555 1_555
C97_3 C75_3 1_555 1_555
C98_3 C67_3 1_555 1_555
H58_3 C98_3 1_555 1_555
O49 C101_3 1_555 1_555
C99_3 C91_3 1_555 1_555
H59_3 C99_3 1_555 1_555
C100_3 C67_3 1_555 1_555
H60_3 C100_3 1_555 1_555
O33_3 C101_3 1_555 1_555
C101_3 C71_3 1_555 1_555
C102_3 H61_3 1_555 1_555
C103_3 C102_3 1_555 1_555
H62_3 C103_3 1_555 1_555
C104_3 C103_3 1_555 1_555
C105_3 C104_3 1_555 1_555
H63_3 C105_3 1_555 1_555
C106_3 C105_3 1_555 1_555
H64_3 C106_3 1_555 1_555
C107_3 C97_3 1_555 1_555
O53_2 C108_3 1_555 1_555
C108_3 C104_3 1_555 1_555
O35_3 C108_3 1_555 1_555
Co15 O33_3 1_555 1_555
Co20_3 O23_3 1_555 1_555
Co25_3 O31_3 1_555 1_555
Co29_2 O35_3 1_555 1_555
O39_3 Co18 1_555 1_555
O46_3 Co23 1_555 1_555
O28_3 C66_3 1_555 1_555
C62_3 C65_3 1_555 1_555
C75_3 C88_3 1_555 1_555
C77_3 C90_3 1_555 1_555
C79_3 C89_3 1_555 1_555
C81_3 C97_3 1_555 1_555
C89_3 C96_3 1_555 1_555
C95_3 C98_3 1_555 1_555
C99_3 C100_3 1_555 1_555
C102_3 C107_3 1_555 1_555
C106_3 C107_3 1_555 1_555
O52_4 Co15 1_555 1_555
Co31 O48_2 1_555 1_555
O26_3 C60_4 1_555 1_555
C60_4 O27_3 1_555 1_555
O27_3 Co11_3 1_555 1_555
C61_4 C60_4 1_555 1_555
C62_4 C61_4 1_555 1_555
H35_4 C62_4 1_555 1_555
C72_4 H40_4 1_555 1_555
C75_4 H42_4 1_555 1_555
C79_4 C81_4 1_555 1_555
C81_4 H47_4 1_555 1_555
C93_4 C61_4 1_555 1_555
H54_4 C93_4 1_555 1_555
H56_4 C95_4 1_555 1_555
C97_4 C75_4 1_555 1_555
C102_4 H61_4 1_555 1_555
C103_4 C102_4 1_555 1_555
H62_4 C103_4 1_555 1_555
C104_4 C103_4 1_555 1_555
C105_4 C104_4 1_555 1_555
H63_4 C105_4 1_555 1_555
C106_4 C105_4 1_555 1_555
H64_4 C106_4 1_555 1_555
C107_4 C97_4 1_555 1_555
O54_2 C108_4 1_555 1_555
C108_4 C104_4 1_555 1_555
O56 C108_4 1_555 1_555
Co25_2 O26_3 1_555 1_555
C75_4 C88_4 1_555 1_555
C81_4 C97_4 1_555 1_555
C92_4 C93_4 1_555 1_555
C102_4 C107_4 1_555 1_555
C106_4 C107_4 1_555 1_555
Co1_2 O1_2 1_555 1_555
Co19 O1_2 1_555 1_555
Co24 O1_2 1_555 1_555
Co29 O14_2 1_555 1_555
O2_2 C1_2 1_555 1_555
N1_2 Co19 1_555 1_555
O38 C25_2 1_555 1_555
N2_2 Co24 1_555 1_555
C1_2 O10_2 1_555 1_555
O4_2 Co1_2 1_555 1_555
O5_2 Co24 1_555 1_555
O7_2 Co1_2 1_555 1_555
O9_2 Co1_2 1_555 1_555
N3_2 Co1_2 1_555 1_555
O10_2 Co25 1_555 1_555
C5_2 C1_2 1_555 1_555
O11_2 Co19 1_555 1_555
O45 C25_2 1_555 1_555
C6_2 N1_2 1_555 1_555
H2_2 C6_2 1_555 1_555
C7_2 N3_2 1_555 1_555
H3_2 C7_2 1_555 1_555
O13_2 Co19 1_555 1_555
C8_2 O5_2 1_555 1_555
C9_2 C8_2 1_555 1_555
C10_2 O4_2 1_555 1_555
C11_3 O7_2 1_555 1_555
C12_2 C5_2 1_555 1_555
H4_2 C12_2 1_555 1_555
C13_2 N2_2 1_555 1_555
H5_2 C13_2 1_555 1_555
C14_2 C19_2 1_555 1_555
C16_2 C5_2 1_555 1_555
H7_2 C16_2 1_555 1_555
C17_2 C21_2 1_555 1_555
C19_2 C13_2 1_555 1_555
H9_2 C19_2 1_555 1_555
C20_2 C14_2 1_555 1_555
H10_2 C20_2 1_555 1_555
C23_2 C17_2 1_555 1_555
H12_2 C23_2 1_555 1_555
C25_2 C17_2 1_555 1_555
C26_2 H14_2 1_555 1_555
C27_2 C26_2 1_555 1_555
H15_2 C27_2 1_555 1_555
N5_2 C27_2 1_555 1_555
C28_2 N5_2 1_555 1_555
H16_2 C28_2 1_555 1_555
C29_2 C28_2 1_555 1_555
H17_2 C29_2 1_555 1_555
C30_2 C10_2 1_555 1_555
C33_2 N2_2 1_555 1_555
H18_2 C33_2 1_555 1_555
C37_2 N1_2 1_555 1_555
H21_2 C37_2 1_555 1_555
C39_2 C23_2 1_555 1_555
H23_2 C39_2 1_555 1_555
C41_2 C9_2 1_555 1_555
O14_2 C44_2 1_555 1_555
C42_2 C34_2 1_555 1_555
H25_2 C42_2 1_555 1_555
C43_2 C9_2 1_555 1_555
H26_2 C43_2 1_555 1_555
C44_2 C14_2 1_555 1_555
C45_3 H27_3 1_555 1_555
C47_3 C11_3 1_555 1_555
C57_3 C45_3 1_555 1_555
H34_3 C57_3 1_555 1_555
Co20 O2_2 1_555 1_555
Co29_2 N5_2 1_555 1_555
O36_2 Co19 1_555 1_555
O40_2 Co24 1_555 1_555
O42_2 Co1_2 1_555 1_555
O43_2 Co24 1_555 1_555
N11_2 Co29 1_555 1_555
O9_2 C8_2 1_555 1_555
O11_2 C10_2 1_555 1_555
C6_2 C12_2 1_555 1_555
O13_2 C11_3 1_555 1_555
C16_2 C37_2 1_555 1_555
C20_2 C33_2 1_555 1_555
C26_2 C30_2 1_555 1_555
C29_2 C30_2 1_555 1_555
C32_2 C39_2 1_555 1_555
C42_2 C43_2 1_555 1_555
O52 C44_2 1_555 1_555
C45_3 C47_3 1_555 1_555
Co29_2 O49_2 1_555 1_555
O6_2 C2_2 1_555 1_555
C2_2 O8_2 1_555 1_555
O8_2 Co6_2 1_555 1_555
C3_2 C2_2 1_555 1_555
C4_2 C3_2 1_555 1_555
H1_2 C4_2 1_555 1_555
C15_2 H6_2 1_555 1_555
C18_2 H8_2 1_555 1_555
C22_2 C24_2 1_555 1_555
C24_2 H13_2 1_555 1_555
C36_2 C3_2 1_555 1_555
H20_2 C36_2 1_555 1_555
H22_2 C38_2 1_555 1_555
C40_2 C18_2 1_555 1_555
C46_3 H28_3 1_555 1_555
C48_2 H29_2 1_555 1_555
C49_2 C48_2 1_555 1_555
H30_2 C49_2 1_555 1_555
C50_2 C49_2 1_555 1_555
C51_2 C50_2 1_555 1_555
H31_2 C51_2 1_555 1_555
C52_2 C51_2 1_555 1_555
H32_2 C52_2 1_555 1_555
C53_2 C40_2 1_555 1_555
O54_3 C54_2 1_555 1_555
C54_2 C50_2 1_555 1_555
O56_2 C54_2 1_555 1_555
O19_3 C55_3 1_555 1_555
O20_3 C55_3 1_555 1_555
C55_3 C58_3 1_555 1_555
C56_3 C46_3 1_555 1_555
H33_3 C56_3 1_555 1_555
C58_3 C56_3 1_555 1_555
Co6_2 O21_4 1_555 1_555
Co20_3 O21_4 1_555 1_555
Co25_3 O6_2 1_555 1_555
Co32 O32_2 1_555 1_555
O21_4 Co25_3 1_555 1_555
O36_2 C59_4 1_555 1_555
N6_4 Co20_3 1_555 1_555
O39_3 C82_4 1_555 1_555
N7_4 Co25_3 1_555 1_555
C59_4 O43_2 1_555 1_555
O24_4 Co6_2 1_555 1_555
O25_4 Co25_3 1_555 1_555
O28_4 Co6_2 1_555 1_555
N8_4 Co6_2 1_555 1_555
C63_4 C59_4 1_555 1_555
O30_4 Co20_3 1_555 1_555
O46_3 C82_4 1_555 1_555
C64_4 N6_4 1_555 1_555
H36_4 C64_4 1_555 1_555
C65_4 N8_4 1_555 1_555
H37_4 C65_4 1_555 1_555
C66_4 O25_4 1_555 1_555
C67_4 C66_4 1_555 1_555
C68_4 O24_4 1_555 1_555
C69_4 C63_4 1_555 1_555
H38_4 C69_4 1_555 1_555
C70_4 N7_4 1_555 1_555
H39_4 C70_4 1_555 1_555
C71_4 C76_4 1_555 1_555
C73_4 C63_4 1_555 1_555
H41_4 C73_4 1_555 1_555
C74_4 C78_4 1_555 1_555
C76_4 C70_4 1_555 1_555
H43_4 C76_4 1_555 1_555
C77_4 C71_4 1_555 1_555
H44_4 C77_4 1_555 1_555
C80_4 C74_4 1_555 1_555
H46_4 C80_4 1_555 1_555
C82_4 C74_4 1_555 1_555
C83_4 H48_4 1_555 1_555
C84_4 C83_4 1_555 1_555
H49_4 C84_4 1_555 1_555
N11_2 C84_4 1_555 1_555
C85_4 N11_2 1_555 1_555
H50_4 C85_4 1_555 1_555
C86_4 C85_4 1_555 1_555
H51_4 C86_4 1_555 1_555
C87_4 C68_4 1_555 1_555
C90_4 N7_4 1_555 1_555
H52_4 C90_4 1_555 1_555
C94_4 N6_4 1_555 1_555
H55_4 C94_4 1_555 1_555
C96_4 C80_4 1_555 1_555
H57_4 C96_4 1_555 1_555
C98_4 C67_4 1_555 1_555
O32_2 C101_4 1_555 1_555
C99_4 C91_4 1_555 1_555
H59_4 C99_4 1_555 1_555
C100_4 C67_4 1_555 1_555
H60_4 C100_4 1_555 1_555
O52_4 C101_4 1_555 1_555
C101_4 C71_4 1_555 1_555
Co11_3 O19_3 1_555 1_555
Co20_2 O20_3 1_555 1_555
O37_3 Co20_3 1_555 1_555
O41_2 Co6_2 1_555 1_555
O44_3 Co25_3 1_555 1_555
O47_2 Co20_3 1_555 1_555
N12_3 Co32 1_555 1_555
C18_2 C31_2 1_555 1_555
C24_2 C40_2 1_555 1_555
C35_2 C36_2 1_555 1_555
C48_2 C53_2 1_555 1_555
C52_2 C53_2 1_555 1_555
O28_4 C66_4 1_555 1_555
O30_4 C68_4 1_555 1_555
C64_4 C69_4 1_555 1_555
C73_4 C94_4 1_555 1_555
C77_4 C90_4 1_555 1_555
C83_4 C87_4 1_555 1_555
C86_4 C87_4 1_555 1_555
C89_4 C96_4 1_555 1_555
C99_4 C100_4 1_555 1_555
O6_3 C2_3 1_555 1_555
C2_3 O8_3 1_555 1_555
O8_3 Co6_3 1_555 1_555
C3_3 C2_3 1_555 1_555
C4_3 C3_3 1_555 1_555
H1_3 C4_3 1_555 1_555
C15_3 H6_3 1_555 1_555
C18_3 H8_3 1_555 1_555
C22_3 C24_3 1_555 1_555
C24_3 H13_3 1_555 1_555
C36_3 C3_3 1_555 1_555
H20_3 C36_3 1_555 1_555
H22_3 C38_3 1_555 1_555
C40_3 C18_3 1_555 1_555
C48_3 H29_3 1_555 1_555
C49_3 C48_3 1_555 1_555
H30_3 C49_3 1_555 1_555
C50_3 C49_3 1_555 1_555
C51_3 C50_3 1_555 1_555
H31_3 C51_3 1_555 1_555
C52_3 C51_3 1_555 1_555
H32_3 C52_3 1_555 1_555
C53_3 C40_3 1_555 1_555
O54 C54_3 1_555 1_555
C54_3 C50_3 1_555 1_555
O55 C54_3 1_555 1_555
Co6_3 O21_5 1_555 1_555
Co20 O21_5 1_555 1_555
Co25 O6_3 1_555 1_555
O21_5 Co25 1_555 1_555
O22 C59_5 1_555 1_555
N6_5 Co20 1_555 1_555
O39 C82_5 1_555 1_555
N7_5 Co25 1_555 1_555
C59_5 O29 1_555 1_555
O24_5 Co6_3 1_555 1_555
O25_5 Co25 1_555 1_555
O28_5 Co6_3 1_555 1_555
N8_5 Co6_3 1_555 1_555
O29 Co25_2 1_555 1_555
C63_5 C59_5 1_555 1_555
O30_5 Co20 1_555 1_555
O46 C82_5 1_555 1_555
C64_5 N6_5 1_555 1_555
H36_5 C64_5 1_555 1_555
C65_5 N8_5 1_555 1_555
H37_5 C65_5 1_555 1_555
C66_5 O25_5 1_555 1_555
C67_5 C66_5 1_555 1_555
C68_5 O24_5 1_555 1_555
C69_5 C63_5 1_555 1_555
H38_5 C69_5 1_555 1_555
C70_5 N7_5 1_555 1_555
H39_5 C70_5 1_555 1_555
C71_5 C76_5 1_555 1_555
C73_5 C63_5 1_555 1_555
H41_5 C73_5 1_555 1_555
C74_5 C78_5 1_555 1_555
C76_5 C70_5 1_555 1_555
H43_5 C76_5 1_555 1_555
C77_5 C71_5 1_555 1_555
H44_5 C77_5 1_555 1_555
C80_5 C74_5 1_555 1_555
H46_5 C80_5 1_555 1_555
C82_5 C74_5 1_555 1_555
C83_5 H48_5 1_555 1_555
C84_5 C83_5 1_555 1_555
H49_5 C84_5 1_555 1_555
N10 C84_5 1_555 1_555
C85_5 N10 1_555 1_555
H50_5 C85_5 1_555 1_555
C86_5 C85_5 1_555 1_555
H51_5 C86_5 1_555 1_555
C87_5 C68_5 1_555 1_555
C90_5 N7_5 1_555 1_555
H52_5 C90_5 1_555 1_555
C94_5 N6_5 1_555 1_555
H55_5 C94_5 1_555 1_555
C96_5 C80_5 1_555 1_555
H57_5 C96_5 1_555 1_555
C98_5 C67_5 1_555 1_555
O49_2 C101_5 1_555 1_555
C99_5 C91_5 1_555 1_555
H59_5 C99_5 1_555 1_555
C100_5 C67_5 1_555 1_555
H60_5 C100_5 1_555 1_555
O52_2 C101_5 1_555 1_555
C101_5 C71_5 1_555 1_555
Co20_2 O22 1_555 1_555
Co31 N10 1_555 1_555
O41_3 Co6_3 1_555 1_555
O47_3 Co20 1_555 1_555
C18_3 C31_3 1_555 1_555
C24_3 C40_3 1_555 1_555
C35_3 C36_3 1_555 1_555
C48_3 C53_3 1_555 1_555
C52_3 C53_3 1_555 1_555
O28_5 C66_5 1_555 1_555
O30_5 C68_5 1_555 1_555
C64_5 C69_5 1_555 1_555
C73_5 C94_5 1_555 1_555
C77_5 C90_5 1_555 1_555
C83_5 C87_5 1_555 1_555
C86_5 C87_5 1_555 1_555
C89_5 C96_5 1_555 1_555
C99_5 C100_5 1_555 1_555
Co11_3 O1_3 1_555 1_555
Co20_2 O1_3 1_555 1_555
Co25_2 O1_3 1_555 1_555
O37_3 C1_3 1_555 1_555
N1_3 Co20_2 1_555 1_555
O39_2 C25_3 1_555 1_555
N2_3 Co25_2 1_555 1_555
C1_3 O44_3 1_555 1_555
O4_3 Co11_3 1_555 1_555
O5_3 Co25_2 1_555 1_555
O9_3 Co11_3 1_555 1_555
N3_3 Co11_3 1_555 1_555
C5_3 C1_3 1_555 1_555
O11_3 Co20_2 1_555 1_555
O46_2 C25_3 1_555 1_555
C6_3 N1_3 1_555 1_555
H2_3 C6_3 1_555 1_555
C7_3 N3_3 1_555 1_555
H3_3 C7_3 1_555 1_555
C8_3 O5_3 1_555 1_555
C9_3 C8_3 1_555 1_555
C10_3 O4_3 1_555 1_555
C12_3 C5_3 1_555 1_555
H4_3 C12_3 1_555 1_555
C13_3 N2_3 1_555 1_555
H5_3 C13_3 1_555 1_555
C14_3 C19_3 1_555 1_555
C16_3 C5_3 1_555 1_555
H7_3 C16_3 1_555 1_555
C17_3 C21_3 1_555 1_555
C19_3 C13_3 1_555 1_555
H9_3 C19_3 1_555 1_555
C20_3 C14_3 1_555 1_555
H10_3 C20_3 1_555 1_555
C23_3 C17_3 1_555 1_555
H12_3 C23_3 1_555 1_555
C25_3 C17_3 1_555 1_555
C26_3 H14_3 1_555 1_555
C27_3 C26_3 1_555 1_555
H15_3 C27_3 1_555 1_555
N12_3 C27_3 1_555 1_555
C28_3 N12_3 1_555 1_555
H16_3 C28_3 1_555 1_555
C29_3 C28_3 1_555 1_555
H17_3 C29_3 1_555 1_555
C30_3 C10_3 1_555 1_555
C33_3 N2_3 1_555 1_555
H18_3 C33_3 1_555 1_555
C37_3 N1_3 1_555 1_555
H21_3 C37_3 1_555 1_555
C39_3 C23_3 1_555 1_555
H23_3 C39_3 1_555 1_555
C41_3 C9_3 1_555 1_555
O48_2 C44_3 1_555 1_555
C42_3 C34_3 1_555 1_555
H25_3 C42_3 1_555 1_555
C43_3 C9_3 1_555 1_555
H26_3 C43_3 1_555 1_555
C44_3 C14_3 1_555 1_555
O9_3 C8_3 1_555 1_555
O11_3 C10_3 1_555 1_555
C6_3 C12_3 1_555 1_555
C16_3 C37_3 1_555 1_555
C20_3 C33_3 1_555 1_555
C26_3 C30_3 1_555 1_555
C29_3 C30_3 1_555 1_555
C32_3 C39_3 1_555 1_555
C42_3 C43_3 1_555 1_555
O52_3 C44_3 1_555 1_555
O40_2 C60_5 1_555 1_555
C60_5 O42_2 1_555 1_555
C61_5 C60_5 1_555 1_555
C62_5 C61_5 1_555 1_555
H35_5 C62_5 1_555 1_555
C72_5 H40_5 1_555 1_555
C75_5 H42_5 1_555 1_555
C79_5 C81_5 1_555 1_555
C81_5 H47_5 1_555 1_555
C93_5 C61_5 1_555 1_555
H54_5 C93_5 1_555 1_555
H56_5 C95_5 1_555 1_555
C97_5 C75_5 1_555 1_555
C102_5 H61_5 1_555 1_555
C103_5 C102_5 1_555 1_555
H62_5 C103_5 1_555 1_555
C104_5 C103_5 1_555 1_555
C105_5 C104_5 1_555 1_555
H63_5 C105_5 1_555 1_555
C106_5 C105_5 1_555 1_555
H64_5 C106_5 1_555 1_555
C107_5 C97_5 1_555 1_555
O54_4 C108_5 1_555 1_555
C108_5 C104_5 1_555 1_555
O56_3 C108_5 1_555 1_555
C75_5 C88_5 1_555 1_555
C81_5 C97_5 1_555 1_555
C92_5 C93_5 1_555 1_555
C102_5 C107_5 1_555 1_555
C106_5 C107_5 1_555 1_555
C46_4 H28_4 1_555 1_555
O41_3 C55_4 1_555 1_555
O47_3 C55_4 1_555 1_555
C55_4 C58_4 1_555 1_555
C56_4 C46_4 1_555 1_555
H33_4 C56_4 1_555 1_555
C58_4 C56_4 1_555 1_555
C11_4 O41_2 1_555 1_555
C45_4 H27_4 1_555 1_555
C47_4 C11_4 1_555 1_555
C57_4 C45_4 1_555 1_555
H34_4 C57_4 1_555 1_555
O47_2 C11_4 1_555 1_555
C45_4 C47_4 1_555 1_555

#END
