
###############################################################################
#
# This file contains modified crystal structure data generated from the
# MOF subset of the Cambridge Structural Database (CSD) v543 
# hosted by the Cambridge Crystallographic Data Centre (CCDC).
#
# This work is licensed under the Creative Commons
# Attribution-NonCommercial-ShareAlike 4.0 International License.
# To view a copy of this license, visit
# http://creativecommons.org/licenses/by-nc-sa/4.0/
# or send a letter to
# Creative Commons, PO Box 1866, Mountain View, CA 94042, USA.
#
# CIF created using the CSD Python API on 29 September 2022
# The structure has been converted into the P1 space group
# The structure has a 3D framework
# The original CSD entry CUSJAE is in the tetragonal crystal system
# The framework has been calculated to contain at least 10.0% void space
# The void calculation uses a probe of radius 1.32A, grid spacing 0.4
# The framework is charged, counterions have been retained in the structure
#
###############################################################################

data_CUSJAE
_chemical_formula_moiety         '(C416 H240 Co35 N54 O138 8-)n'
_symmetry_cell_setting           triclinic
_symmetry_space_group_name_H-M   'P 1'
_symmetry_Int_Tables_number      1
_space_group_name_Hall           'P 1'
loop_
_symmetry_equiv_pos_site_id
_symmetry_equiv_pos_as_xyz
1 x,y,z
_cell_length_a                   21.7735(5)
_cell_length_b                   21.7735(5)
_cell_length_c                   39.2031(16)
_cell_angle_alpha                90
_cell_angle_beta                 90
_cell_angle_gamma                90
_cell_volume                     18585.6
loop_
_atom_site_label
_atom_site_type_symbol
_atom_site_fract_x
_atom_site_fract_y
_atom_site_fract_z
N3 N 0.0262(7) 0.2371(6) 0.0076(4)
C49 C 0.0046(9) 0.1863(9) 0.0143(4)
H29 H 0.0297 0.1579 0.0253
Co14 Co 0.11578(11) 0.26678(11) 0.02514(6)
H28 H 0.0149 0.3153 0.9826
Co22 Co 0.04557(13) 0.45532(16) 0.82286(5)
Co1 Co 0.44654(5) 0.05346(5) 0.2500
Co5 Co 0.54468(16) 0.04557(13) 0.17714(5)
O1 O 0.5000 0.0000 0.21667(15)
O11 O 0.7056(6) 0.1316(7) 0.0264(3)
O13 O 0.6310(7) 0.2051(8) 0.0256(4)
N2 N 0.5781(8) 0.0823(9) 0.1324(3)
C5 C 0.9447(10) 0.1690(9) 0.0064(5)
H1 H 0.9297 0.1314 0.0140
C8 C 0.6866(9) 0.4990(8) 0.0175(6)
H3 H 0.6618 0.5167 0.0340
C25 C 0.6694(9) 0.4416(8) 0.0028(5)
H12 H 0.6309 0.4246 0.0067
C27 C 0.6308(11) 0.1325(7) 0.0708(3)
C33 C 0.5509(12) 0.1235(12) 0.1124(6)
H16 H 0.5086 0.1290 0.1137
C34 C 0.6569(11) 0.1600(10) 0.0383(3)
C35 C 0.5865(13) 0.1598(12) 0.0885(6)
H17 H 0.5785 0.2014 0.0856
C40 C 0.6374(10) 0.0614(10) 0.1197(5)
H22 H 0.6632 0.0381 0.1335
N7 N 0.7395(7) 0.5284(7) 0.0074(4)
C52 C 0.6548(13) 0.0765(10) 0.0868(6)
H30 H 0.6816 0.0512 0.0748
Co7 Co 0.24592(11) 0.25371(11) 0.07584(3)
Co8 Co 0.23254(11) 0.38403(11) 0.02518(6)
O21 O 0.2000(4) 0.3034(4) 0.04018(12)
O22 O 0.3195(5) 0.3501(6) 0.0123(3)
O23 O 0.2353(8) 0.1727(6) 0.0479(4)
N8 N 0.2981(6) 0.1981(8) 0.1112(2)
O24 O 0.2632(7) 0.4105(7) 0.0720(3)
O25 O 0.2617(8) 0.3313(7) 0.1055(4)
O26 O 0.1518(7) 0.1808(6) 0.0175(4)
C57 C 0.3460(8) 0.3044(10) 0.0266(5)
O27 O 0.3242(6) 0.2699(7) 0.0496(4)
C58 C 0.1972(8) 0.1550(9) 0.0279(5)
O28 O 0.2613(7) 0.4146(6) 0.4266(3)
C59 C 0.4129(8) 0.2890(9) 0.0170(5)
O30 O 0.2640(9) 0.3286(7) 0.3952(3)
C61 C 0.2082(9) 0.0937(8) 0.0129(4)
C63 C 0.4341(9) 0.2357(9) 0.0222(6)
H35 H 0.4109 0.2052 0.0327
C64 C 0.2872(8) 0.4246(6) 0.3687(3)
C65 C 0.3065(9) 0.4854(6) 0.3708(3)
H36 H 0.3063 0.5055 0.3917
C66 C 0.3259(8) 0.5160(5) 0.3416(3)
H37 H 0.3388 0.5566 0.3430
C67 C 0.3261(7) 0.4859(6) 0.3104(3)
C68 C 0.3068(8) 0.4251(6) 0.3083(3)
H38 H 0.3069 0.4050 0.2874
C69 C 0.2873(9) 0.3945(5) 0.3375(3)
H39 H 0.2744 0.3539 0.3361
C70 C 0.3702(12) 0.1286(12) 0.1549(3)
C71 C 0.3112(8) 0.4910(8) 0.1880(4)
C72 C 0.2647(9) 0.0595(9) 0.0238(5)
H40 H 0.2915 0.0779 0.0392
C73 C 0.3337(7) 0.5208(5) 0.2201(3)
N11 N 0.3202(5) 0.4903(3) 0.2503(4)
C74 C 0.3307(8) 0.5190(6) 0.2815(3)
N12 N 0.3547(9) 0.5782(6) 0.2823(3)
C75 C 0.3681(5) 0.6086(3) 0.2521(4)
N13 N 0.3576(7) 0.5799(5) 0.2210(3)
C76 C 0.3170(11) 0.5118(8) 0.1570(5)
H41 H 0.3294 0.5525 0.1547
C78 C 0.3781(11) 0.1232(11) 0.1202(3)
H43 H 0.4059 0.0953 0.1110
C80 C 0.3426(9) 0.1612(11) 0.0993(3)
H44 H 0.3502 0.1609 0.0760
C81 C 0.2740(10) 0.3862(10) 0.3997(5)
C82 C 0.3071(11) 0.4812(8) 0.1288(4)
H45 H 0.3114 0.5002 0.1076
C83 C 0.2903(9) 0.4211(7) 0.1308(4)
C84 C 0.2673(9) 0.3850(10) 0.1004(5)
C88 C 0.3259(9) 0.1640(11) 0.1658(3)
H48 H 0.3170 0.1649 0.1890
C89 C 0.2924(10) 0.1994(11) 0.1442(3)
H49 H 0.2637 0.2262 0.1536
C90 C 0.2943(12) 0.4302(9) 0.1897(5)
H50 H 0.2883 0.4125 0.2110
C91 C 0.2867(12) 0.3972(9) 0.1635(5)
H51 H 0.2784 0.3556 0.1663
C93 C 0.3874(7) 0.6692(4) 0.2440(3)
C94 C 0.4140(7) 0.6997(5) 0.2714(2)
H53 H 0.4142 0.6816 0.2929
C95 C 0.4402(6) 0.7573(5) 0.2667(3)
H54 H 0.4580 0.7777 0.2851
C96 C 0.4399(6) 0.7844(4) 0.2346(3)
C97 C 0.4133(7) 0.7539(5) 0.2072(3)
H55 H 0.4130 0.7721 0.1857
C98 C 0.3871(7) 0.6963(5) 0.2119(3)
H56 H 0.3693 0.6759 0.1935
C99 C 0.4937(10) 0.2256(11) 0.0115(7)
H57 H 0.5114 0.1890 0.0187
C100 C 0.2779(9) 0.0035(10) 0.0120(5)
O32 O 0.4886(3) 0.8755(3) 0.2507(4)
O33 O 0.4543(7) 0.0553(8) 0.1629(2)
O34 O 0.4028(5) 0.0952(5) 0.20924(16)
C102 C 0.4663(6) 0.8481(6) 0.2282(3)
O35 O 0.4617(5) 0.8670(4) 0.1979(2)
C103 C 0.4173(8) 0.0959(8) 0.1782(3)
Co12 Co 0.55346(5) 0.94654(5) 0.2500
Co17 Co 0.23322(11) 0.38422(11) 0.47486(6)
Co19 Co 0.24629(11) 0.25408(11) 0.42416(3)
Co21 Co 0.76746(11) 0.61597(11) 0.02518(6)
Co24 Co 0.45532(16) 0.95443(13) 0.17714(5)
O37 O 0.5000 0.0000 0.28333(15)
O38 O 0.0749(6) 0.3524(7) 0.0337(5)
O40 O 0.0854(6) 0.2387(7) 0.0734(3)
O42 O 0.1714(7) 0.2360(9) 0.1048(3)
O43 O 0.1481(7) 0.4214(6) 0.0322(4)
N17 N 0.2605(7) 0.4716(7) 0.0074(4)
O44 O 0.5114(3) 0.1245(3) 0.2507(4)
O49 O 0.4048(5) 0.0972(5) 0.29076(16)
O50 O 0.5383(5) 0.1330(4) 0.1979(2)
Co2 Co 0.73322(11) 0.11578(11) 0.97486(6)
Co3 Co 0.74629(11) 0.24592(11) 0.92416(3)
Co4 Co 0.61597(11) 0.23254(11) 0.97482(6)
O2 O 0.6966(4) 0.2000(4) 0.95982(12)
O3 O 0.6499(6) 0.3195(5) 0.9877(3)
O4 O 0.8273(6) 0.2353(8) 0.9521(4)
N1 N 0.8019(8) 0.2981(6) 0.8888(2)
O5 O 0.5895(7) 0.2632(7) 0.9280(3)
O6 O 0.6687(7) 0.2617(8) 0.8945(4)
O7 O 0.8192(6) 0.1518(7) 0.9825(4)
C1 C 0.6956(10) 0.3460(8) 0.9734(5)
O8 O 0.7301(7) 0.3242(6) 0.9504(4)
O9 O 0.6476(7) 0.0749(6) 0.9663(5)
C2 C 0.8450(9) 0.1972(8) 0.9721(5)
O10 O 0.5854(6) 0.2613(7) 0.5734(3)
C3 C 0.7110(9) 0.4129(8) 0.9830(5)
O12 O 0.6714(7) 0.2640(9) 0.6048(3)
C4 C 0.5944(10) 0.0942(10) 0.9673(2)
C6 C 0.9063(8) 0.2082(9) 0.9871(4)
C7 C 0.4847(7) 0.0607(7) 0.9624(4)
H2 H 0.4738 0.0978 0.9523
O14 O 0.5786(6) 0.1481(7) 0.9678(4)
C9 C 0.7643(9) 0.4341(9) 0.9778(6)
H4 H 0.7948 0.4109 0.9673
C10 C 0.5754(6) 0.2872(8) 0.6313(3)
C11 C 0.5146(6) 0.3065(9) 0.6292(3)
H5 H 0.4945 0.3063 0.6083
C12 C 0.4840(5) 0.3259(8) 0.6584(3)
H6 H 0.4434 0.3388 0.6570
C13 C 0.5141(6) 0.3261(7) 0.6896(3)
C14 C 0.5749(6) 0.3068(8) 0.6917(3)
H7 H 0.5950 0.3069 0.7126
C15 C 0.6055(5) 0.2873(9) 0.6625(3)
H8 H 0.6461 0.2744 0.6639
C16 C 0.5451(9) 0.0456(9) 0.9672(3)
C17 C 0.8714(12) 0.3702(12) 0.8451(3)
C18 C 0.5090(8) 0.3112(8) 0.8120(4)
C19 C 0.9405(9) 0.2647(9) 0.9762(5)
H9 H 0.9221 0.2915 0.9608
C21 C 0.4792(5) 0.3337(7) 0.7799(3)
N4 N 0.5097(3) 0.3202(5) 0.7497(4)
C22 C 0.4810(6) 0.3307(8) 0.7185(3)
N5 N 0.4218(6) 0.3547(9) 0.7177(3)
C23 C 0.3914(3) 0.3681(5) 0.7479(4)
N6 N 0.4201(5) 0.3576(7) 0.7790(3)
C24 C 0.4882(8) 0.3170(11) 0.8430(5)
H11 H 0.4475 0.3294 0.8453
C26 C 0.8768(11) 0.3781(11) 0.8798(3)
H13 H 0.9047 0.4059 0.8890
C28 C 0.8388(11) 0.3426(9) 0.9007(3)
H14 H 0.8391 0.3502 0.9240
C29 C 0.6138(10) 0.2740(10) 0.6003(5)
C30 C 0.5188(8) 0.3071(11) 0.8712(4)
H15 H 0.4998 0.3114 0.8924
C31 C 0.5789(7) 0.2903(9) 0.8692(4)
C32 C 0.6150(10) 0.2673(9) 0.8996(5)
C36 C 0.8360(11) 0.3259(9) 0.8342(3)
H18 H 0.8351 0.3170 0.8110
C37 C 0.8006(11) 0.2924(10) 0.8558(3)
H19 H 0.7738 0.2637 0.8464
C38 C 0.5698(9) 0.2943(12) 0.8103(5)
H20 H 0.5875 0.2883 0.7890
C39 C 0.6028(9) 0.2867(12) 0.8365(5)
H21 H 0.6444 0.2784 0.8337
C41 C 0.3308(4) 0.3874(7) 0.7560(3)
C42 C 0.3003(5) 0.4140(7) 0.7286(2)
H23 H 0.3184 0.4142 0.7071
C43 C 0.2427(5) 0.4402(6) 0.7333(3)
H24 H 0.2223 0.4580 0.7149
C44 C 0.2156(4) 0.4399(6) 0.7654(3)
C45 C 0.2461(5) 0.4133(7) 0.7928(3)
H25 H 0.2279 0.4130 0.8143
C46 C 0.3037(5) 0.3871(7) 0.7881(3)
H26 H 0.3241 0.3693 0.8065
C47 C 0.7744(11) 0.4937(10) 0.9885(7)
H27 H 0.8110 0.5114 0.9813
C48 C 0.9965(10) 0.2779(9) 0.9880(5)
O15 O 0.1245(3) 0.4886(3) 0.7493(4)
O16 O 0.9447(8) 0.4543(7) 0.8371(2)
O17 O 0.9048(5) 0.4028(5) 0.79076(16)
C50 C 0.1519(6) 0.4663(6) 0.7718(3)
O18 O 0.1330(4) 0.4617(5) 0.8021(2)
C51 C 0.9041(8) 0.4173(8) 0.8218(3)
C56 C 0.4379(8) 0.0174(7) 0.9734(4)
H32 H 0.4010 0.0291 0.9834
O29 O 0.1316(7) 0.2944(6) 0.9736(3)
O31 O 0.2051(8) 0.3690(7) 0.9744(4)
N9 N 0.0823(9) 0.4219(8) 0.8676(3)
C60 C 0.1690(9) 0.0553(10) 0.9936(5)
H33 H 0.1314 0.0703 0.9860
C62 C 0.4990(8) 0.3134(9) 0.9825(6)
H34 H 0.5167 0.3382 0.9660
C77 C 0.4416(8) 0.3306(9) 0.9972(5)
H42 H 0.4246 0.3691 0.9933
C79 C 0.1325(7) 0.3692(11) 0.9292(3)
C85 C 0.1235(12) 0.4491(12) 0.8876(6)
H46 H 0.1290 0.4914 0.8863
C86 C 0.1600(10) 0.3431(11) 0.9617(3)
C87 C 0.1598(12) 0.4135(13) 0.9115(6)
H47 H 0.2014 0.4215 0.9144
C92 C 0.0614(10) 0.3626(10) 0.8803(5)
H52 H 0.0381 0.3368 0.8665
N14 N 0.5284(7) 0.2605(7) 0.9926(4)
C104 C 0.0765(10) 0.3452(13) 0.9132(6)
H60 H 0.0512 0.3184 0.9252
Co10 Co 0.05346(5) 0.55346(5) 0.7500
Co13 Co 0.94654(5) 0.44654(5) 0.7500
Co16 Co 0.61578(11) 0.23322(11) 0.52514(6)
Co18 Co 0.74592(11) 0.24629(11) 0.57584(3)
Co25 Co 0.95443(13) 0.54468(16) 0.82286(5)
O36 O -0.0000 0.5000 0.78333(15)
O39 O 0.7613(7) 0.0854(6) 0.9266(3)
O41 O 0.7640(9) 0.1714(7) 0.8952(3)
N16 N 0.7629(6) 0.0262(7) 0.9924(4)
O47 O 0.0553(8) 0.5457(7) 0.8371(2)
O1_2 O 0.5000 1.0000 0.21667(15)
H58 H 0.3153 0.9851 0.0174
O37_2 O 0.5000 1.0000 0.28333(15)
O45 O 0.3755(3) 0.9886(3) 0.2493(4)
O48 O 0.5457(7) 0.9447(8) 0.1629(2)
C20 C 0.5621(8) 0.9826(7) 0.9734(4)
H10 H 0.5990 0.9709 0.9834
O19 O 0.3524(7) 0.9251(6) 0.9663(5)
C53 C 0.4056(10) 0.9058(10) 0.9673(2)
C54 C 0.5153(7) 0.9393(7) 0.9624(4)
H31 H 0.5262 0.9022 0.9523
O20 O 0.4214(6) 0.8519(7) 0.9678(4)
C55 C 0.4549(9) 0.9544(9) 0.9672(3)
N10 N 0.2371(6) 0.9738(7) 0.9924(4)
C101 C 0.1863(9) 0.9954(9) 0.9857(4)
H59 H 0.1579 0.9703 0.9747
Co15 Co 0.26678(11) 0.88422(11) 0.97486(6)
Co20 Co 0.38403(11) 0.76746(11) 0.97482(6)
O36_2 O 1.0000 0.5000 0.78333(15)
C4_2 C 0.0942(10) 0.4056(10) 0.0327(2)
C7_2 C 0.0607(7) 0.5153(7) 0.0376(4)
H2_2 H 0.0978 0.5262 0.0477
C16_2 C 0.0456(9) 0.4549(9) 0.0328(3)
C56_2 C 0.0174(7) 0.5621(8) 0.0266(4)
H32_2 H 0.0291 0.5990 0.0166
O29_2 O 0.2944(6) 0.8684(7) 0.0264(3)
O31_2 O 0.3690(7) 0.7949(8) 0.0256(4)
N9_2 N 0.4219(8) 0.9177(9) 0.1324(3)
C60_2 C 0.0553(10) 0.8310(9) 0.0064(5)
H33_2 H 0.0703 0.8686 0.0140
C62_2 C 0.3134(9) 0.5010(8) 0.0175(6)
H34_2 H 0.3382 0.4833 0.0340
C77_2 C 0.3306(9) 0.5584(8) 0.0028(5)
H42_2 H 0.3691 0.5754 0.0067
C79_2 C 0.3692(11) 0.8675(7) 0.0708(3)
C85_2 C 0.4491(12) 0.8765(12) 0.1124(6)
H46_2 H 0.4914 0.8710 0.1137
C86_2 C 0.3431(11) 0.8400(10) 0.0383(3)
C87_2 C 0.4135(13) 0.8402(12) 0.0885(6)
H47_2 H 0.4215 0.7986 0.0856
C92_2 C 0.3626(10) 0.9386(10) 0.1197(5)
H52_2 H 0.3368 0.9619 0.1335
C104_2 C 0.3452(13) 0.9235(10) 0.0868(6)
H60_2 H 0.3184 0.9488 0.0748
Co7_2 Co 0.25371(11) 0.75408(11) 0.92416(3)
O21_2 O 0.3034(4) 0.8000(4) 0.95982(12)
O22_2 O 0.3501(6) 0.6805(5) 0.9877(3)
O23_2 O 0.1727(6) 0.7647(8) 0.9521(4)
N8_2 N 0.1981(8) 0.7019(6) 0.8888(2)
O24_2 O 0.4105(7) 0.7368(7) 0.9280(3)
O25_2 O 0.3313(7) 0.7383(8) 0.8945(4)
O26_2 O 0.1808(6) 0.8482(7) 0.9825(4)
C57_2 C 0.3044(10) 0.6540(8) 0.9734(5)
O27_2 O 0.2699(7) 0.6758(6) 0.9504(4)
C58_2 C 0.1550(9) 0.8028(8) 0.9721(5)
O28_2 O 0.4146(6) 0.7387(7) 0.5734(3)
C59_2 C 0.2890(9) 0.5871(8) 0.9830(5)
O30_2 O 0.3286(7) 0.7360(9) 0.6048(3)
C61_2 C 0.0937(8) 0.7918(9) 0.9871(4)
C63_2 C 0.2357(9) 0.5659(9) 0.9778(6)
H35_2 H 0.2052 0.5891 0.9673
C64_2 C 0.4246(6) 0.7128(8) 0.6313(3)
C65_2 C 0.4854(6) 0.6935(9) 0.6292(3)
H36_2 H 0.5055 0.6937 0.6083
C66_2 C 0.5160(5) 0.6741(8) 0.6584(3)
H37_2 H 0.5566 0.6612 0.6570
C67_2 C 0.4859(6) 0.6739(7) 0.6896(3)
C68_2 C 0.4251(6) 0.6932(8) 0.6917(3)
H38_2 H 0.4050 0.6931 0.7126
C69_2 C 0.3945(5) 0.7127(9) 0.6625(3)
H39_2 H 0.3539 0.7256 0.6639
C70_2 C 0.1286(12) 0.6298(12) 0.8451(3)
C71_2 C 0.4910(8) 0.6888(8) 0.8120(4)
C72_2 C 0.0595(9) 0.7353(9) 0.9762(5)
H40_2 H 0.0779 0.7085 0.9608
C73_2 C 0.5208(5) 0.6663(7) 0.7799(3)
N11_2 N 0.4903(3) 0.6798(5) 0.7497(4)
C74_2 C 0.5190(6) 0.6693(8) 0.7185(3)
N12_2 N 0.5782(6) 0.6453(9) 0.7177(3)
C75_2 C 0.6086(3) 0.6319(5) 0.7479(4)
N13_2 N 0.5799(5) 0.6424(7) 0.7790(3)
C76_2 C 0.5118(8) 0.6830(11) 0.8430(5)
H41_2 H 0.5525 0.6706 0.8453
C78_2 C 0.1232(11) 0.6219(11) 0.8798(3)
H43_2 H 0.0953 0.5941 0.8890
C80_2 C 0.1612(11) 0.6574(9) 0.9007(3)
H44_2 H 0.1609 0.6498 0.9240
C81_2 C 0.3862(10) 0.7260(10) 0.6003(5)
C82_2 C 0.4812(8) 0.6929(11) 0.8712(4)
H45_2 H 0.5002 0.6886 0.8924
C83_2 C 0.4211(7) 0.7097(9) 0.8692(4)
C84_2 C 0.3850(10) 0.7327(9) 0.8996(5)
C88_2 C 0.1640(11) 0.6741(9) 0.8342(3)
H48_2 H 0.1649 0.6830 0.8110
C89_2 C 0.1994(11) 0.7076(10) 0.8558(3)
H49_2 H 0.2262 0.7363 0.8464
C90_2 C 0.4302(9) 0.7057(12) 0.8103(5)
H50_2 H 0.4125 0.7117 0.7890
C91_2 C 0.3972(9) 0.7133(12) 0.8365(5)
H51_2 H 0.3556 0.7216 0.8337
C93_2 C 0.6692(4) 0.6126(7) 0.7560(3)
C94_2 C 0.6997(5) 0.5860(7) 0.7286(2)
H53_2 H 0.6816 0.5858 0.7071
C95_2 C 0.7573(5) 0.5598(6) 0.7333(3)
H54_2 H 0.7777 0.5420 0.7149
C96_2 C 0.7844(4) 0.5601(6) 0.7654(3)
C97_2 C 0.7539(5) 0.5867(7) 0.7928(3)
H55_2 H 0.7721 0.5870 0.8143
C98_2 C 0.6963(5) 0.6129(7) 0.7881(3)
H56_2 H 0.6759 0.6307 0.8065
C99_2 C 0.2256(11) 0.5063(10) 0.9885(7)
H57_2 H 0.1890 0.4886 0.9813
C100_2 C 0.0035(10) 0.7221(9) 0.9880(5)
O32_2 O 0.8755(3) 0.5114(3) 0.7493(4)
O34_2 O 0.0952(5) 0.5972(5) 0.79076(16)
C102_2 C 0.8481(6) 0.5337(6) 0.7718(3)
O35_2 O 0.8670(4) 0.5383(5) 0.8021(2)
C103_2 C 0.0959(8) 0.5827(8) 0.8218(3)
Co17_2 Co 0.38422(11) 0.76678(11) 0.52514(6)
Co19_2 Co 0.25408(11) 0.75371(11) 0.57584(3)
O37_3 O 0.0000 0.5000 0.71667(15)
O40_2 O 0.2387(7) 0.9146(6) 0.9266(3)
O42_2 O 0.2360(9) 0.8286(7) 0.8952(3)
N17_2 N 0.4716(7) 0.7395(7) 0.9926(4)
O49_2 O 0.0972(5) 0.5952(5) 0.70924(16)
C20_2 C 0.9826(7) 0.4379(8) 0.0266(4)
H10_2 H 0.9709 0.4010 0.0166
O19_2 O 0.9251(6) 0.6476(7) 0.0337(5)
C53_2 C 0.9058(10) 0.5944(10) 0.0327(2)
C54_2 C 0.9393(7) 0.4847(7) 0.0376(4)
H31_2 H 0.9022 0.4738 0.0477
O20_2 O 0.8519(7) 0.5786(6) 0.0322(4)
C55_2 C 0.9544(9) 0.5451(9) 0.0328(3)
N10_2 N 0.9738(7) 0.7629(6) 0.0076(4)
C101_2 C 0.9954(9) 0.8137(9) 0.0143(4)
H59_2 H 0.9703 0.8421 0.0253
Co15_2 Co 0.88422(11) 0.73322(11) 0.02514(6)
H58_2 H 0.9851 0.6847 0.9826
O37_4 O 1.0000 0.5000 0.71667(15)
O45_2 O 0.9886(3) 0.6245(3) 0.7507(4)
H58_3 H 0.6847 0.0149 0.0174
O45_3 O 0.6245(3) 0.0114(3) 0.2493(4)
C101_3 C 0.8137(9) 0.0046(9) 0.9857(4)
H59_3 H 0.8421 0.0297 0.9747
Co7_3 Co 0.75408(11) 0.74629(11) 0.07584(3)
O21_3 O 0.8000(4) 0.6966(4) 0.04018(12)
O22_3 O 0.6805(5) 0.6499(6) 0.0123(3)
O23_3 O 0.7647(8) 0.8273(6) 0.0479(4)
N8_3 N 0.7019(6) 0.8019(8) 0.1112(2)
O24_3 O 0.7368(7) 0.5895(7) 0.0720(3)
O25_3 O 0.7383(8) 0.6687(7) 0.1055(4)
O26_3 O 0.8482(7) 0.8192(6) 0.0175(4)
C57_3 C 0.6540(8) 0.6956(10) 0.0266(5)
O27_3 O 0.6758(6) 0.7301(7) 0.0496(4)
C58_3 C 0.8028(8) 0.8450(9) 0.0279(5)
O28_3 O 0.7387(7) 0.5854(6) 0.4266(3)
C59_3 C 0.5871(8) 0.7110(9) 0.0170(5)
O30_3 O 0.7360(9) 0.6714(7) 0.3952(3)
C61_3 C 0.7918(9) 0.9063(8) 0.0129(4)
C63_3 C 0.5659(9) 0.7643(9) 0.0222(6)
H35_3 H 0.5891 0.7948 0.0327
C64_3 C 0.7128(8) 0.5754(6) 0.3687(3)
C65_3 C 0.6935(9) 0.5146(6) 0.3708(3)
H36_3 H 0.6937 0.4945 0.3917
C66_3 C 0.6741(8) 0.4840(5) 0.3416(3)
H37_3 H 0.6612 0.4434 0.3430
C67_3 C 0.6739(7) 0.5141(6) 0.3104(3)
C68_3 C 0.6932(8) 0.5749(6) 0.3083(3)
H38_3 H 0.6931 0.5950 0.2874
C69_3 C 0.7127(9) 0.6055(5) 0.3375(3)
H39_3 H 0.7256 0.6461 0.3361
C70_3 C 0.6298(12) 0.8714(12) 0.1549(3)
C71_3 C 0.6888(8) 0.5090(8) 0.1880(4)
C72_3 C 0.7353(9) 0.9405(9) 0.0238(5)
H40_3 H 0.7085 0.9221 0.0392
C73_3 C 0.6663(7) 0.4792(5) 0.2201(3)
N11_3 N 0.6798(5) 0.5097(3) 0.2503(4)
C74_3 C 0.6693(8) 0.4810(6) 0.2815(3)
N12_3 N 0.6453(9) 0.4218(6) 0.2823(3)
C75_3 C 0.6319(5) 0.3914(3) 0.2521(4)
N13_3 N 0.6424(7) 0.4201(5) 0.2210(3)
C76_3 C 0.6830(11) 0.4882(8) 0.1570(5)
H41_3 H 0.6706 0.4475 0.1547
C78_3 C 0.6219(11) 0.8768(11) 0.1202(3)
H43_3 H 0.5941 0.9047 0.1110
C80_3 C 0.6574(9) 0.8388(11) 0.0993(3)
H44_3 H 0.6498 0.8391 0.0760
C81_3 C 0.7260(10) 0.6138(10) 0.3997(5)
C82_3 C 0.6929(11) 0.5188(8) 0.1288(4)
H45_3 H 0.6886 0.4998 0.1076
C83_3 C 0.7097(9) 0.5789(7) 0.1308(4)
C84_3 C 0.7327(9) 0.6150(10) 0.1004(5)
C88_3 C 0.6741(9) 0.8360(11) 0.1658(3)
H48_3 H 0.6830 0.8351 0.1890
C89_3 C 0.7076(10) 0.8006(11) 0.1442(3)
H49_3 H 0.7363 0.7738 0.1536
C90_3 C 0.7057(12) 0.5698(9) 0.1897(5)
H50_3 H 0.7117 0.5875 0.2110
C91_3 C 0.7133(12) 0.6028(9) 0.1635(5)
H51_3 H 0.7216 0.6444 0.1663
C93_3 C 0.6126(7) 0.3308(4) 0.2440(3)
C94_3 C 0.5860(7) 0.3003(5) 0.2714(2)
H53_3 H 0.5858 0.3184 0.2929
C95_3 C 0.5598(6) 0.2427(5) 0.2667(3)
H54_3 H 0.5420 0.2223 0.2851
C96_3 C 0.5601(6) 0.2156(4) 0.2346(3)
C97_3 C 0.5867(7) 0.2461(5) 0.2072(3)
H55_3 H 0.5870 0.2279 0.1857
C98_3 C 0.6129(7) 0.3037(5) 0.2119(3)
H56_3 H 0.6307 0.3241 0.1935
C99_3 C 0.5063(10) 0.7744(11) 0.0115(7)
H57_3 H 0.4886 0.8110 0.0187
C100_3 C 0.7221(9) 0.9965(10) 0.0120(5)
O34_3 O 0.5972(5) 0.9048(5) 0.20924(16)
C102_3 C 0.5337(6) 0.1519(6) 0.2282(3)
C103_3 C 0.5827(8) 0.9041(8) 0.1782(3)
Co17_3 Co 0.76678(11) 0.61578(11) 0.47486(6)
Co19_3 Co 0.75371(11) 0.74592(11) 0.42416(3)
O40_3 O 0.9146(6) 0.7613(7) 0.0734(3)
O42_3 O 0.8286(7) 0.7640(9) 0.1048(3)
O49_3 O 0.5952(5) 0.9028(5) 0.29076(16)
O29_3 O 0.8684(7) 0.7056(6) 0.9736(3)
O31_3 O 0.7949(8) 0.6310(7) 0.9744(4)
N9_3 N 0.9177(9) 0.5781(8) 0.8676(3)
C60_3 C 0.8310(9) 0.9447(10) 0.9936(5)
H33_3 H 0.8686 0.9297 0.9860
C62_3 C 0.5010(8) 0.6866(9) 0.9825(6)
H34_3 H 0.4833 0.6618 0.9660
C77_3 C 0.5584(8) 0.6694(9) 0.9972(5)
H42_3 H 0.5754 0.6309 0.9933
C79_3 C 0.8675(7) 0.6308(11) 0.9292(3)
C85_3 C 0.8765(12) 0.5509(12) 0.8876(6)
H46_3 H 0.8710 0.5086 0.8863
C86_3 C 0.8400(10) 0.6569(11) 0.9617(3)
C87_3 C 0.8402(12) 0.5865(13) 0.9115(6)
H47_3 H 0.7986 0.5785 0.9144
C92_3 C 0.9386(10) 0.6374(10) 0.8803(5)
H52_3 H 0.9619 0.6632 0.8665
C104_3 C 0.9235(10) 0.6548(13) 0.9132(6)
H60_3 H 0.9488 0.6816 0.9252
O45_4 O 0.0114(3) 0.3755(3) 0.7507(4)
O49_4 O 0.9028(5) 0.4048(5) 0.70924(16)
H3_2 H 0.0167 0.1618 0.4660
H27_2 H 0.0114 0.3110 0.5187
N7_2 N 0.0284(7) 0.2395(7) 0.4926(4)
Co21_2 Co 0.11597(11) 0.26746(11) 0.47482(6)
Co25_2 Co 0.04468(16) 0.45443(13) 0.67714(5)
H36_4 H 0.0055 0.8063 0.1083
C66_4 C 0.0160(5) 0.8259(8) 0.1584(3)
H37_4 H 0.0566 0.8388 0.1570
C73_4 C 0.0208(5) 0.8337(7) 0.2799(3)
C74_4 C 0.0190(6) 0.8307(8) 0.2185(3)
N12_4 N 0.0782(6) 0.8547(9) 0.2177(3)
C75_4 C 0.1086(3) 0.8681(5) 0.2479(4)
N13_4 N 0.0799(5) 0.8576(7) 0.2790(3)
C76_4 C 0.0118(8) 0.8170(11) 0.3430(5)
H41_4 H 0.0525 0.8294 0.3453
H45_4 H 0.0002 0.8114 0.3924
C93_4 C 0.1692(4) 0.8874(7) 0.2560(3)
C94_4 C 0.1997(5) 0.9140(7) 0.2286(2)
H53_4 H 0.1816 0.9142 0.2071
C95_4 C 0.2573(5) 0.9402(6) 0.2333(3)
H54_4 H 0.2777 0.9580 0.2149
C96_4 C 0.2844(4) 0.9399(6) 0.2654(3)
C97_4 C 0.2539(5) 0.9133(7) 0.2928(3)
H55_4 H 0.2721 0.9130 0.3143
C98_4 C 0.1963(5) 0.8871(7) 0.2881(3)
H56_4 H 0.1759 0.8693 0.3065
C102_4 C 0.3481(6) 0.9663(6) 0.2718(3)
O35_3 O 0.3670(4) 0.9617(5) 0.3021(2)
Co24_2 Co 0.45443(13) 0.95532(16) 0.32286(5)
O47_2 O 0.0457(7) 0.5553(8) 0.6629(2)
Co4_2 Co 0.73254(11) 0.11597(11) 0.52518(6)
Co5_2 Co 0.54557(13) 0.04468(16) 0.32286(5)
O2_2 O 0.7000(4) 0.1966(4) 0.54018(12)
O3_2 O 0.8195(5) 0.1499(6) 0.5123(3)
O4_2 O 0.7353(8) 0.3273(6) 0.5479(4)
N1_2 N 0.7981(6) 0.3019(8) 0.6112(2)
O5_2 O 0.7632(7) 0.0895(7) 0.5720(3)
O6_2 O 0.7617(8) 0.1687(7) 0.6055(4)
O7_2 O 0.6518(7) 0.3192(6) 0.5175(4)
C1_2 C 0.8460(8) 0.1956(10) 0.5266(5)
O8_2 O 0.8242(6) 0.2301(7) 0.5496(4)
O9_2 O 0.5749(6) 0.1476(7) 0.5337(5)
C2_2 C 0.6972(8) 0.3450(9) 0.5279(5)
O11_2 O 0.6316(7) 0.2056(6) 0.4736(3)
C3_2 C 0.9129(8) 0.2110(9) 0.5170(5)
O13_2 O 0.7051(8) 0.1310(7) 0.4744(4)
N2_2 N 0.5823(9) 0.0781(8) 0.3676(3)
C4_3 C 0.5942(10) 0.0944(10) 0.5327(2)
C5_2 C 0.6690(9) 0.4447(10) 0.4936(5)
H1_2 H 0.6314 0.4297 0.4860
C6_2 C 0.7082(9) 0.4063(8) 0.5129(4)
N3_2 N 0.7371(6) 0.5262(7) 0.4924(4)
O14_2 O 0.6481(7) 0.0786(6) 0.5322(4)
C8_2 C 0.9990(8) 0.1866(9) 0.4825(6)
C9_2 C 0.9341(9) 0.2643(9) 0.5222(6)
H4_2 H 0.9109 0.2948 0.5327
C10_2 C 0.7872(8) 0.0754(6) 0.8687(3)
C11_2 C 0.8065(9) 0.0146(6) 0.8708(3)
C13_2 C 0.8261(7) 0.0141(6) 0.8104(3)
C14_2 C 0.8068(8) 0.0749(6) 0.8083(3)
H7_2 H 0.8069 0.0950 0.7874
C15_2 C 0.7873(9) 0.1055(5) 0.8375(3)
H8_2 H 0.7744 0.1461 0.8361
C16_3 C 0.5456(9) 0.0451(9) 0.5328(3)
C17_2 C 0.8702(12) 0.3714(12) 0.6549(3)
C18_2 C 0.8112(8) 0.0090(8) 0.6880(4)
C19_2 C 0.7647(9) 0.4405(9) 0.5238(5)
H9_2 H 0.7915 0.4221 0.5392
C20_3 C 0.4826(7) 0.0621(8) 0.5266(4)
H10_3 H 0.4709 0.0990 0.5166
N4_2 N 0.8202(5) 0.0097(3) 0.7503(4)
C25_2 C 0.9416(8) 0.1694(9) 0.4972(5)
H12_2 H 0.9246 0.1309 0.4933
C26_2 C 0.8781(11) 0.3768(11) 0.6202(3)
H13_2 H 0.9059 0.4047 0.6110
C27_2 C 0.6325(7) 0.1308(11) 0.4292(3)
C28_2 C 0.8426(9) 0.3388(11) 0.5993(3)
H14_2 H 0.8502 0.3391 0.5760
C29_2 C 0.7740(10) 0.1138(10) 0.8997(5)
C30_2 C 0.8071(11) 0.0188(8) 0.6288(4)
C31_2 C 0.7903(9) 0.0789(7) 0.6308(4)
C32_2 C 0.7673(9) 0.1150(10) 0.6004(5)
C33_2 C 0.6235(12) 0.0509(12) 0.3876(6)
H16_2 H 0.6290 0.0086 0.3863
C34_2 C 0.6600(10) 0.1569(11) 0.4617(3)
C35_2 C 0.6598(12) 0.0865(13) 0.4115(6)
H17_2 H 0.7014 0.0785 0.4144
C36_2 C 0.8259(9) 0.3360(11) 0.6658(3)
H18_2 H 0.8170 0.3351 0.6890
C37_2 C 0.7924(10) 0.3006(11) 0.6442(3)
H19_2 H 0.7637 0.2738 0.6536
C38_2 C 0.7943(12) 0.0698(9) 0.6897(5)
H20_2 H 0.7883 0.0875 0.7110
C39_2 C 0.7867(12) 0.1028(9) 0.6635(5)
H21_2 H 0.7784 0.1444 0.6663
C40_2 C 0.5614(10) 0.1374(10) 0.3803(5)
H22_2 H 0.5381 0.1632 0.3665
C47_2 C 0.9937(10) 0.2744(11) 0.5115(7)
C48_2 C 0.7779(9) 0.4965(10) 0.5120(5)
H28_2 H 0.8153 0.5149 0.5174
C49_2 C 0.6863(9) 0.5046(9) 0.4857(4)
H29_2 H 0.6579 0.5297 0.4747
O16_2 O 0.9543(7) 0.4447(8) 0.6629(2)
C51_2 C 0.9173(8) 0.4041(8) 0.6782(3)
C52_2 C 0.5765(10) 0.1548(13) 0.4132(6)
H30_2 H 0.5512 0.1816 0.4252
C54_3 C 0.4393(7) 0.0153(7) 0.5376(4)
H31_3 H 0.4022 0.0262 0.5477
H34_4 H 0.8382 0.0167 0.5340
H57_4 H 0.6890 0.0114 0.4813
N14_2 N 0.7605(7) 0.0284(7) 0.5074(4)
Co22_2 Co 0.95532(16) 0.54557(13) 0.67714(5)
N16_2 N 0.5262(7) 0.2629(6) 0.5076(4)
O48_2 O 0.4447(8) 0.0457(7) 0.3371(2)
O50_2 O 0.6330(4) 0.0383(5) 0.3021(2)
C7_3 C 0.5607(7) 0.9847(7) 0.5376(4)
H2_3 H 0.5978 0.9738 0.5477
H5_2 H 0.8063 0.9945 0.8917
C12_2 C 0.8259(8) 0.9840(5) 0.8416(3)
H6_2 H 0.8388 0.9434 0.8430
C21_2 C 0.8337(7) 0.9792(5) 0.7201(3)
C22_2 C 0.8307(8) 0.9810(6) 0.7815(3)
N5_2 N 0.8547(9) 0.9218(6) 0.7823(3)
C23_2 C 0.8681(5) 0.8914(3) 0.7521(4)
N6_2 N 0.8576(7) 0.9201(5) 0.7210(3)
C24_2 C 0.8170(11) 0.9882(8) 0.6570(5)
H11_2 H 0.8294 0.9475 0.6547
H15_2 H 0.8114 0.9998 0.6076
C41_2 C 0.8874(7) 0.8308(4) 0.7440(3)
C42_2 C 0.9140(7) 0.8003(5) 0.7714(2)
H23_2 H 0.9142 0.8184 0.7929
C43_2 C 0.9402(6) 0.7427(5) 0.7667(3)
H24_2 H 0.9580 0.7223 0.7851
C44_2 C 0.9399(6) 0.7156(4) 0.7346(3)
C45_2 C 0.9133(7) 0.7461(5) 0.7072(3)
H25_2 H 0.9130 0.7279 0.6857
C46_2 C 0.8871(7) 0.8037(5) 0.7119(3)
H26_2 H 0.8693 0.8241 0.6935
C50_2 C 0.9663(6) 0.6519(6) 0.7282(3)
O18_2 O 0.9617(5) 0.6330(4) 0.6979(2)
O19_3 O 0.4251(6) 0.8524(7) 0.5337(5)
C53_3 C 0.4058(10) 0.9056(10) 0.5327(2)
O20_3 O 0.3519(7) 0.9214(6) 0.5322(4)
C55_3 C 0.4544(9) 0.9549(9) 0.5328(3)
C56_3 C 0.5174(7) 0.9379(8) 0.5266(4)
H32_3 H 0.5291 0.9010 0.5166
Co8_2 Co 0.88403(11) 0.73254(11) 0.47482(6)
O21_4 O 0.8034(4) 0.7000(4) 0.45982(12)
O22_4 O 0.8501(6) 0.8195(5) 0.4877(3)
O23_4 O 0.6727(6) 0.7353(8) 0.4521(4)
N8_4 N 0.6981(8) 0.7981(6) 0.3888(2)
O24_4 O 0.9105(7) 0.7632(7) 0.4280(3)
O25_4 O 0.8313(7) 0.7617(8) 0.3945(4)
O26_4 O 0.6808(6) 0.6518(7) 0.4825(4)
C57_4 C 0.8044(10) 0.8460(8) 0.4734(5)
O27_4 O 0.7699(7) 0.8242(6) 0.4504(4)
C58_4 C 0.6550(9) 0.6972(8) 0.4721(5)
O29_4 O 0.7944(6) 0.6316(7) 0.5264(3)
C59_4 C 0.7890(9) 0.9129(8) 0.4830(5)
O31_4 O 0.8690(7) 0.7051(8) 0.5256(4)
N9_4 N 0.9219(8) 0.5823(9) 0.6324(3)
C60_4 C 0.5553(10) 0.6690(9) 0.5064(5)
H33_4 H 0.5703 0.6314 0.5140
C61_4 C 0.5937(8) 0.7082(9) 0.4871(4)
N10_3 N 0.4738(7) 0.7371(6) 0.5076(4)
C62_4 C 0.8134(9) 0.9990(8) 0.5175(6)
C63_4 C 0.7357(9) 0.9341(9) 0.4778(6)
H35_4 H 0.7052 0.9109 0.4673
C64_4 C 0.9246(6) 0.7872(8) 0.1313(3)
C65_4 C 0.9854(6) 0.8065(9) 0.1292(3)
C67_4 C 0.9859(6) 0.8261(7) 0.1896(3)
C68_4 C 0.9251(6) 0.8068(8) 0.1917(3)
H38_4 H 0.9050 0.8069 0.2126
C69_4 C 0.8945(5) 0.7873(9) 0.1625(3)
H39_4 H 0.8539 0.7744 0.1639
C70_4 C 0.6286(12) 0.8702(12) 0.3451(3)
C71_4 C 0.9910(8) 0.8112(8) 0.3120(4)
C72_4 C 0.5595(9) 0.7647(9) 0.4762(5)
H40_4 H 0.5779 0.7915 0.4608
N11_4 N 0.9903(3) 0.8202(5) 0.2497(4)
C77_4 C 0.8306(9) 0.9416(8) 0.5028(5)
H42_4 H 0.8691 0.9246 0.5067
C78_4 C 0.6232(11) 0.8781(11) 0.3798(3)
H43_4 H 0.5953 0.9059 0.3890
C79_4 C 0.8692(11) 0.6325(7) 0.5708(3)
C80_4 C 0.6612(11) 0.8426(9) 0.4007(3)
H44_4 H 0.6609 0.8502 0.4240
C81_4 C 0.8862(10) 0.7740(10) 0.1003(5)
C82_4 C 0.9812(8) 0.8071(11) 0.3712(4)
C83_4 C 0.9211(7) 0.7903(9) 0.3692(4)
C84_4 C 0.8850(10) 0.7673(9) 0.3996(5)
C85_4 C 0.9491(12) 0.6235(12) 0.6124(6)
H46_4 H 0.9914 0.6290 0.6137
C86_4 C 0.8431(11) 0.6600(10) 0.5383(3)
C87_4 C 0.9135(13) 0.6598(12) 0.5885(6)
H47_4 H 0.9215 0.7014 0.5856
C88_4 C 0.6640(11) 0.8259(9) 0.3342(3)
H48_4 H 0.6649 0.8170 0.3110
C89_4 C 0.6994(11) 0.7924(10) 0.3558(3)
H49_4 H 0.7262 0.7637 0.3464
C90_4 C 0.9302(9) 0.7943(12) 0.3103(5)
H50_4 H 0.9125 0.7883 0.2890
C91_4 C 0.8972(9) 0.7867(12) 0.3365(5)
H51_4 H 0.8556 0.7784 0.3337
C92_4 C 0.8626(10) 0.5614(10) 0.6197(5)
H52_4 H 0.8368 0.5381 0.6335
C99_4 C 0.7256(11) 0.9937(10) 0.4885(7)
C100_4 C 0.5035(10) 0.7779(9) 0.4880(5)
H58_4 H 0.4851 0.8153 0.4826
C101_4 C 0.4954(9) 0.6863(9) 0.5143(4)
H59_4 H 0.4703 0.6579 0.5253
O33_2 O 0.5553(8) 0.9543(7) 0.3371(2)
C103_4 C 0.5959(8) 0.9173(8) 0.3218(3)
C104_4 C 0.8452(13) 0.5765(10) 0.5868(6)
H60_4 H 0.8184 0.5512 0.5748
Co20_2 Co 0.26746(11) 0.88403(11) 0.52518(6)
O38_2 O 0.8524(7) 0.5749(6) 0.4663(5)
O43_2 O 0.9214(6) 0.6481(7) 0.4678(4)
N17_3 N 0.9716(7) 0.7605(7) 0.4926(4)
H5_3 H 0.1937 0.0055 0.8917
C12_3 C 0.1741(8) 0.0160(5) 0.8416(3)
H6_3 H 0.1612 0.0566 0.8430
C21_3 C 0.1663(7) 0.0208(5) 0.7201(3)
C22_3 C 0.1693(8) 0.0190(6) 0.7815(3)
N5_3 N 0.1453(9) 0.0782(6) 0.7823(3)
C23_3 C 0.1319(5) 0.1086(3) 0.7521(4)
N6_3 N 0.1424(7) 0.0799(5) 0.7210(3)
C24_3 C 0.1830(11) 0.0118(8) 0.6570(5)
H11_3 H 0.1706 0.0525 0.6547
H15_3 H 0.1886 0.0002 0.6076
C41_3 C 0.1126(7) 0.1692(4) 0.7440(3)
C42_3 C 0.0860(7) 0.1997(5) 0.7714(2)
H23_3 H 0.0858 0.1816 0.7929
C43_3 C 0.0598(6) 0.2573(5) 0.7667(3)
H24_3 H 0.0420 0.2777 0.7851
C44_3 C 0.0601(6) 0.2844(4) 0.7346(3)
C45_3 C 0.0867(7) 0.2539(5) 0.7072(3)
H25_3 H 0.0870 0.2721 0.6857
C46_3 C 0.1129(7) 0.1963(5) 0.7119(3)
H26_3 H 0.1307 0.1759 0.6935
C50_3 C 0.0337(6) 0.3481(6) 0.7282(3)
O18_3 O 0.0383(5) 0.3670(4) 0.6979(2)
O21_5 O 0.1966(4) 0.3000(4) 0.45982(12)
O22_5 O 0.1499(6) 0.1805(5) 0.4877(3)
O23_5 O 0.3273(6) 0.2647(8) 0.4521(4)
N8_5 N 0.3019(8) 0.2019(6) 0.3888(2)
O24_5 O 0.0895(7) 0.2368(7) 0.4280(3)
O25_5 O 0.1687(7) 0.2383(8) 0.3945(4)
O26_5 O 0.3192(6) 0.3482(7) 0.4825(4)
C57_5 C 0.1956(10) 0.1540(8) 0.4734(5)
O27_5 O 0.2301(7) 0.1758(6) 0.4504(4)
C58_5 C 0.3450(9) 0.3028(8) 0.4721(5)
O29_5 O 0.2056(6) 0.3684(7) 0.5264(3)
C59_5 C 0.2110(9) 0.0871(8) 0.4830(5)
O31_5 O 0.1310(7) 0.2949(8) 0.5256(4)
N9_5 N 0.0781(8) 0.4177(9) 0.6324(3)
C60_5 C 0.4447(10) 0.3310(9) 0.5064(5)
H33_5 H 0.4297 0.3686 0.5140
C61_5 C 0.4063(8) 0.2918(9) 0.4871(4)
C62_5 C 0.1866(9) 0.0010(8) 0.5175(6)
C63_5 C 0.2643(9) 0.0659(9) 0.4778(6)
H35_5 H 0.2948 0.0891 0.4673
C64_5 C 0.0754(6) 0.2128(8) 0.1313(3)
C65_5 C 0.0146(6) 0.1935(9) 0.1292(3)
C67_5 C 0.0141(6) 0.1739(7) 0.1896(3)
C68_5 C 0.0749(6) 0.1932(8) 0.1917(3)
H38_5 H 0.0950 0.1931 0.2126
C69_5 C 0.1055(5) 0.2127(9) 0.1625(3)
H39_5 H 0.1461 0.2256 0.1639
C70_5 C 0.3714(12) 0.1298(12) 0.3451(3)
C71_5 C 0.0090(8) 0.1888(8) 0.3120(4)
C72_5 C 0.4405(9) 0.2353(9) 0.4762(5)
H40_5 H 0.4221 0.2085 0.4608
N11_5 N 0.0097(3) 0.1798(5) 0.2497(4)
C77_5 C 0.1694(9) 0.0584(8) 0.5028(5)
H42_5 H 0.1309 0.0754 0.5067
C78_5 C 0.3768(11) 0.1219(11) 0.3798(3)
H43_5 H 0.4047 0.0941 0.3890
C79_5 C 0.1308(11) 0.3675(7) 0.5708(3)
C80_5 C 0.3388(11) 0.1574(9) 0.4007(3)
H44_5 H 0.3391 0.1498 0.4240
C81_5 C 0.1138(10) 0.2260(10) 0.1003(5)
C82_5 C 0.0188(8) 0.1929(11) 0.3712(4)
C83_5 C 0.0789(7) 0.2097(9) 0.3692(4)
C84_5 C 0.1150(10) 0.2327(9) 0.3996(5)
C85_5 C 0.0509(12) 0.3765(12) 0.6124(6)
H46_5 H 0.0086 0.3710 0.6137
C86_5 C 0.1569(11) 0.3400(10) 0.5383(3)
C87_5 C 0.0865(13) 0.3402(12) 0.5885(6)
H47_5 H 0.0785 0.2986 0.5856
C88_5 C 0.3360(11) 0.1741(9) 0.3342(3)
H48_5 H 0.3351 0.1830 0.3110
C89_5 C 0.3006(11) 0.2076(10) 0.3558(3)
H49_5 H 0.2738 0.2363 0.3464
C90_5 C 0.0698(9) 0.2057(12) 0.3103(5)
H50_5 H 0.0875 0.2117 0.2890
C91_5 C 0.1028(9) 0.2133(12) 0.3365(5)
H51_5 H 0.1444 0.2216 0.3337
C92_5 C 0.1374(10) 0.4386(10) 0.6197(5)
H52_5 H 0.1632 0.4619 0.6335
C99_5 C 0.2744(11) 0.0063(10) 0.4885(7)
C100_5 C 0.4965(10) 0.2221(9) 0.4880(5)
H58_5 H 0.5149 0.1847 0.4826
C101_5 C 0.5046(9) 0.3137(9) 0.5143(4)
H59_5 H 0.5297 0.3421 0.5253
C103_5 C 0.4041(8) 0.0827(8) 0.3218(3)
C104_5 C 0.1548(13) 0.4235(10) 0.5868(6)
H60_5 H 0.1816 0.4488 0.5748
O38_3 O 0.1476(7) 0.4251(6) 0.4663(5)
N15 N 0.2629(6) 0.4738(7) 0.4924(4)
O43_3 O 0.0786(6) 0.3519(7) 0.4678(4)
O2_3 O 0.3000(4) 0.8034(4) 0.54018(12)
O3_3 O 0.1805(5) 0.8501(6) 0.5123(3)
O4_3 O 0.2647(8) 0.6727(6) 0.5479(4)
N1_3 N 0.2019(6) 0.6981(8) 0.6112(2)
O5_3 O 0.2368(7) 0.9105(7) 0.5720(3)
O6_3 O 0.2383(8) 0.8313(7) 0.6055(4)
O7_3 O 0.3482(7) 0.6808(6) 0.5175(4)
C1_3 C 0.1540(8) 0.8044(10) 0.5266(5)
O8_3 O 0.1758(6) 0.7699(7) 0.5496(4)
C2_3 C 0.3028(8) 0.6550(9) 0.5279(5)
O11_3 O 0.3684(7) 0.7944(6) 0.4736(3)
C3_3 C 0.0871(8) 0.7890(9) 0.5170(5)
O13_3 O 0.2949(8) 0.8690(7) 0.4744(4)
N2_3 N 0.4177(9) 0.9219(8) 0.3676(3)
C5_3 C 0.3310(9) 0.5553(10) 0.4936(5)
H1_3 H 0.3686 0.5703 0.4860
C6_3 C 0.2918(9) 0.5937(8) 0.5129(4)
C8_3 C 0.0010(8) 0.8134(9) 0.4825(6)
C9_3 C 0.0659(9) 0.7357(9) 0.5222(6)
H4_3 H 0.0891 0.7052 0.5327
C10_3 C 0.2128(8) 0.9246(6) 0.8687(3)
C11_3 C 0.1935(9) 0.9854(6) 0.8708(3)
C13_3 C 0.1739(7) 0.9859(6) 0.8104(3)
C14_3 C 0.1932(8) 0.9251(6) 0.8083(3)
H7_3 H 0.1931 0.9050 0.7874
C15_3 C 0.2127(9) 0.8945(5) 0.8375(3)
H8_3 H 0.2256 0.8539 0.8361
C17_3 C 0.1298(12) 0.6286(12) 0.6549(3)
C18_3 C 0.1888(8) 0.9910(8) 0.6880(4)
C19_3 C 0.2353(9) 0.5595(9) 0.5238(5)
H9_3 H 0.2085 0.5779 0.5392
N4_3 N 0.1798(5) 0.9903(3) 0.7503(4)
C25_3 C 0.0584(8) 0.8306(9) 0.4972(5)
H12_3 H 0.0754 0.8691 0.4933
C26_3 C 0.1219(11) 0.6232(11) 0.6202(3)
H13_3 H 0.0941 0.5953 0.6110
C27_3 C 0.3675(7) 0.8692(11) 0.4292(3)
C28_3 C 0.1574(9) 0.6612(11) 0.5993(3)
H14_3 H 0.1498 0.6609 0.5760
C29_3 C 0.2260(10) 0.8862(10) 0.8997(5)
C30_3 C 0.1929(11) 0.9812(8) 0.6288(4)
C31_3 C 0.2097(9) 0.9211(7) 0.6308(4)
C32_3 C 0.2327(9) 0.8850(10) 0.6004(5)
C33_3 C 0.3765(12) 0.9491(12) 0.3876(6)
H16_3 H 0.3710 0.9914 0.3863
C34_3 C 0.3400(10) 0.8431(11) 0.4617(3)
C35_3 C 0.3402(12) 0.9135(13) 0.4115(6)
H17_3 H 0.2986 0.9215 0.4144
C36_3 C 0.1741(9) 0.6640(11) 0.6658(3)
H18_3 H 0.1830 0.6649 0.6890
C37_3 C 0.2076(10) 0.6994(11) 0.6442(3)
H19_3 H 0.2363 0.7262 0.6536
C38_3 C 0.2057(12) 0.9302(9) 0.6897(5)
H20_3 H 0.2117 0.9125 0.7110
C39_3 C 0.2133(12) 0.8972(9) 0.6635(5)
H21_3 H 0.2216 0.8556 0.6663
C40_3 C 0.4386(10) 0.8626(10) 0.3803(5)
H22_3 H 0.4619 0.8368 0.3665
C47_3 C 0.0063(10) 0.7256(11) 0.5115(7)
C48_3 C 0.2221(9) 0.5035(10) 0.5120(5)
H28_3 H 0.1847 0.4851 0.5174
C49_3 C 0.3137(9) 0.4954(9) 0.4857(4)
H29_3 H 0.3421 0.4703 0.4747
C51_3 C 0.0827(8) 0.5959(8) 0.6782(3)
C52_3 C 0.4235(10) 0.8452(13) 0.4132(6)
H30_3 H 0.4488 0.8184 0.4252
H34_5 H 0.1618 0.9833 0.5340
H57_5 H 0.3110 0.9886 0.4813
N14_3 N 0.2395(7) 0.9716(7) 0.5074(4)
H36_5 H 0.9945 0.1937 0.1083
C66_5 C 0.9840(5) 0.1741(8) 0.1584(3)
H37_5 H 0.9434 0.1612 0.1570
C73_5 C 0.9792(5) 0.1663(7) 0.2799(3)
C74_5 C 0.9810(6) 0.1693(8) 0.2185(3)
N12_5 N 0.9218(6) 0.1453(9) 0.2177(3)
C75_5 C 0.8914(3) 0.1319(5) 0.2479(4)
N13_5 N 0.9201(5) 0.1424(7) 0.2790(3)
C76_5 C 0.9882(8) 0.1830(11) 0.3430(5)
H41_5 H 0.9475 0.1706 0.3453
H45_5 H 0.9998 0.1886 0.3924
C93_5 C 0.8308(4) 0.1126(7) 0.2560(3)
C94_5 C 0.8003(5) 0.0860(7) 0.2286(2)
H53_5 H 0.8184 0.0858 0.2071
C95_5 C 0.7427(5) 0.0598(6) 0.2333(3)
H54_5 H 0.7223 0.0420 0.2149
C96_5 C 0.7156(4) 0.0601(6) 0.2654(3)
C97_5 C 0.7461(5) 0.0867(7) 0.2928(3)
H55_5 H 0.7279 0.0870 0.3143
C98_5 C 0.8037(5) 0.1129(7) 0.2881(3)
H56_5 H 0.8241 0.1307 0.3065
C102_5 C 0.6519(6) 0.0337(6) 0.2718(3)
H3_3 H 0.9833 0.8382 0.4660
H27_3 H 0.9886 0.6890 0.5187
C7_4 C 0.0153(7) 0.5607(7) 0.4624(4)
H2_4 H 0.0262 0.5978 0.4523
C53_4 C 0.0944(10) 0.4058(10) 0.4673(2)
C55_4 C 0.0451(9) 0.4544(9) 0.4672(3)
C56_4 C 0.0621(8) 0.5174(7) 0.4734(4)
H32_4 H 0.0990 0.5291 0.4834
C4_4 C 0.9056(10) 0.5942(10) 0.4673(2)
C16_4 C 0.9549(9) 0.5456(9) 0.4672(3)
C20_4 C 0.9379(8) 0.4826(7) 0.4734(4)
H10_4 H 0.9010 0.4709 0.4834
C54_4 C 0.9847(7) 0.4393(7) 0.4624(4)
H31_4 H 0.9738 0.4022 0.4523
loop_
_geom_bond_atom_site_label_1
_geom_bond_atom_site_label_2
_geom_bond_site_symmetry_1
_geom_bond_site_symmetry_2
H29 C49 1_555 1_555
Co14 N3 1_555 1_555
N3 C49 1_555 1_555
Co1 O1 1_555 1_555
Co5 O1 1_555 1_555
N2 Co5 1_555 1_555
C5 H1 1_555 1_555
C8 H3 1_555 1_555
H12 C25 1_555 1_555
C27 C34 1_555 1_555
C33 N2 1_555 1_555
H16 C33 1_555 1_555
C34 O11 1_555 1_555
C35 C27 1_555 1_555
H17 C35 1_555 1_555
C40 N2 1_555 1_555
H22 C40 1_555 1_555
N7 C8 1_555 1_555
C52 C27 1_555 1_555
H30 C52 1_555 1_555
Co14 O21 1_555 1_555
Co7 O21 1_555 1_555
Co8 O21 1_555 1_555
O22 Co8 1_555 1_555
O23 Co7 1_555 1_555
N8 Co7 1_555 1_555
O24 Co8 1_555 1_555
O25 Co7 1_555 1_555
O26 Co14 1_555 1_555
C57 O22 1_555 1_555
O27 Co7 1_555 1_555
C58 O23 1_555 1_555
O28 C81 1_555 1_555
C59 C57 1_555 1_555
O30 C81 1_555 1_555
C61 C58 1_555 1_555
C63 C59 1_555 1_555
H35 C63 1_555 1_555
C64 C65 1_555 1_555
C65 H36 1_555 1_555
C66 C65 1_555 1_555
H37 C66 1_555 1_555
C67 C66 1_555 1_555
C68 C67 1_555 1_555
H38 C68 1_555 1_555
C69 C64 1_555 1_555
H39 C69 1_555 1_555
C70 C78 1_555 1_555
C71 C73 1_555 1_555
C72 C61 1_555 1_555
H40 C72 1_555 1_555
C73 N11 1_555 1_555
N11 C74 1_555 1_555
C74 C67 1_555 1_555
N12 C74 1_555 1_555
C75 N12 1_555 1_555
N13 C73 1_555 1_555
C76 C71 1_555 1_555
H41 C76 1_555 1_555
C78 H43 1_555 1_555
C80 N8 1_555 1_555
H44 C80 1_555 1_555
C81 C64 1_555 1_555
C82 C76 1_555 1_555
H45 C82 1_555 1_555
C83 C82 1_555 1_555
C84 O24 1_555 1_555
C88 C70 1_555 1_555
H48 C88 1_555 1_555
C89 N8 1_555 1_555
H49 C89 1_555 1_555
C90 C71 1_555 1_555
H50 C90 1_555 1_555
C91 C83 1_555 1_555
H51 C91 1_555 1_555
C93 C75 1_555 1_555
C94 C93 1_555 1_555
H53 C94 1_555 1_555
C95 C94 1_555 1_555
H54 C95 1_555 1_555
C96 C95 1_555 1_555
C97 C96 1_555 1_555
H55 C97 1_555 1_555
C98 C93 1_555 1_555
H56 C98 1_555 1_555
C99 C63 1_555 1_555
H57 C99 1_555 1_555
C100 C72 1_555 1_555
O32 C102 1_555 1_555
O33 Co5 1_555 1_555
O34 Co1 1_555 1_555
C102 C96 1_555 1_555
O35 C102 1_555 1_555
C103 C70 1_555 1_555
Co12 O32 1_555 1_555
Co17 O28 1_555 1_555
Co19 O30 1_555 1_555
Co21 N7 1_555 1_555
Co24 O35 1_555 1_555
O37 Co1 1_555 1_555
O38 Co14 1_555 1_555
O40 Co14 1_555 1_555
O42 Co7 1_555 1_555
O43 Co8 1_555 1_555
N17 Co8 1_555 1_555
O44 Co1 1_555 1_555
O49 Co1 1_555 1_555
O50 Co5 1_555 1_555
O13 C34 1_555 1_555
C8 C25 1_555 1_555
C33 C35 1_555 1_555
C40 C52 1_555 1_555
O25 C84 1_555 1_555
O26 C58 1_555 1_555
C57 O27 1_555 1_555
C68 C69 1_555 1_555
C75 N13 1_555 1_555
C78 C80 1_555 1_555
C83 C84 1_555 1_555
C88 C89 1_555 1_555
C90 C91 1_555 1_555
C97 C98 1_555 1_555
O33 C103 1_555 1_555
O34 C103 1_555 1_555
Co2 O2 1_555 1_555
Co3 O2 1_555 1_555
Co4 O2 1_555 1_555
O3 Co4 1_555 1_555
O4 Co3 1_555 1_555
N1 Co3 1_555 1_555
O5 Co4 1_555 1_555
O6 Co3 1_555 1_555
O7 Co2 1_555 1_555
C1 O3 1_555 1_555
O8 Co3 1_555 1_555
O9 Co2 1_555 1_555
C2 O4 1_555 1_555
O10 C29 1_555 1_555
C3 C1 1_555 1_555
O12 C29 1_555 1_555
C4 O9 1_555 1_555
C6 C2 1_555 1_555
C7 H2 1_555 1_555
O14 Co4 1_555 1_555
C9 C3 1_555 1_555
H4 C9 1_555 1_555
C10 C11 1_555 1_555
C11 H5 1_555 1_555
C12 C11 1_555 1_555
H6 C12 1_555 1_555
C13 C12 1_555 1_555
C14 C13 1_555 1_555
H7 C14 1_555 1_555
C15 C10 1_555 1_555
H8 C15 1_555 1_555
C16 C4 1_555 1_555
C17 C26 1_555 1_555
C18 C21 1_555 1_555
C19 C6 1_555 1_555
H9 C19 1_555 1_555
C21 N4 1_555 1_555
N4 C22 1_555 1_555
C22 C13 1_555 1_555
N5 C22 1_555 1_555
C23 N5 1_555 1_555
N6 C21 1_555 1_555
C24 C18 1_555 1_555
H11 C24 1_555 1_555
C26 H13 1_555 1_555
C28 N1 1_555 1_555
H14 C28 1_555 1_555
C29 C10 1_555 1_555
C30 C24 1_555 1_555
H15 C30 1_555 1_555
C31 C30 1_555 1_555
C32 O5 1_555 1_555
C36 C17 1_555 1_555
H18 C36 1_555 1_555
C37 N1 1_555 1_555
H19 C37 1_555 1_555
C38 C18 1_555 1_555
H20 C38 1_555 1_555
C39 C31 1_555 1_555
H21 C39 1_555 1_555
C41 C23 1_555 1_555
C42 C41 1_555 1_555
H23 C42 1_555 1_555
C43 C42 1_555 1_555
H24 C43 1_555 1_555
C44 C43 1_555 1_555
C45 C44 1_555 1_555
H25 C45 1_555 1_555
C46 C41 1_555 1_555
H26 C46 1_555 1_555
C47 C9 1_555 1_555
H27 C47 1_555 1_555
C48 C19 1_555 1_555
O15 C50 1_555 1_555
O16 C51 1_555 1_555
O17 C51 1_555 1_555
C50 C44 1_555 1_555
O18 C50 1_555 1_555
C51 C17 1_555 1_555
C56 C7 1_555 1_555
H32 C56 1_555 1_555
Co22 O18 1_555 1_555
N9 Co22 1_555 1_555
C60 H33 1_555 1_555
C62 H34 1_555 1_555
H42 C77 1_555 1_555
C79 C86 1_555 1_555
C85 N9 1_555 1_555
H46 C85 1_555 1_555
C86 O29 1_555 1_555
C87 C79 1_555 1_555
H47 C87 1_555 1_555
C92 N9 1_555 1_555
H52 C92 1_555 1_555
N14 Co4 1_555 1_555
C104 C79 1_555 1_555
H60 C104 1_555 1_555
Co10 O15 1_555 1_555
Co13 O17 1_555 1_555
Co16 O10 1_555 1_555
Co18 O12 1_555 1_555
Co25 O16 1_555 1_555
O36 Co22 1_555 1_555
O39 Co2 1_555 1_555
O41 Co3 1_555 1_555
N16 Co2 1_555 1_555
O47 Co22 1_555 1_555
O6 C32 1_555 1_555
O7 C2 1_555 1_555
C1 O8 1_555 1_555
C4 O14 1_555 1_555
C7 C16 1_555 1_555
C14 C15 1_555 1_555
C23 N6 1_555 1_555
C26 C28 1_555 1_555
C31 C32 1_555 1_555
C36 C37 1_555 1_555
C38 C39 1_555 1_555
C45 C46 1_555 1_555
O31 C86 1_555 1_555
C62 C77 1_555 1_555
C62 N14 1_555 1_555
C85 C87 1_555 1_555
C92 C104 1_555 1_555
Co10 O36 1_555 1_555
O1_2 Co12 1_555 1_555
Co12 O37_2 1_555 1_555
Co24 O1_2 1_555 1_555
Co24 O48 1_555 1_555
H10 C20 1_555 1_555
O19 C53 1_555 1_555
C53 O20 1_555 1_555
C54 C20 1_555 1_555
H31 C54 1_555 1_555
O20 Co20 1_555 1_555
C55 C53 1_555 1_555
H59 C101 1_555 1_555
Co15 O19 1_555 1_555
C54 C55 1_555 1_555
N10 C101 1_555 1_555
N10 Co15 1_555 1_555
C4_2 O38 1_555 1_555
C7_2 H2_2 1_555 1_555
C16_2 C4_2 1_555 1_555
C56_2 C7_2 1_555 1_555
H32_2 C56_2 1_555 1_555
N9_2 Co24 1_555 1_555
C60_2 H33_2 1_555 1_555
C62_2 H34_2 1_555 1_555
H42_2 C77_2 1_555 1_555
C79_2 C86_2 1_555 1_555
C85_2 N9_2 1_555 1_555
H46_2 C85_2 1_555 1_555
C86_2 O29_2 1_555 1_555
C87_2 C79_2 1_555 1_555
H47_2 C87_2 1_555 1_555
C92_2 N9_2 1_555 1_555
H52_2 C92_2 1_555 1_555
C104_2 C79_2 1_555 1_555
H60_2 C104_2 1_555 1_555
C4_2 O43 1_555 1_555
C7_2 C16_2 1_555 1_555
O31_2 C86_2 1_555 1_555
C62_2 C77_2 1_555 1_555
C62_2 N17 1_555 1_555
C85_2 C87_2 1_555 1_555
C92_2 C104_2 1_555 1_555
Co15 O21_2 1_555 1_555
Co7_2 O21_2 1_555 1_555
Co20 O21_2 1_555 1_555
O22_2 Co20 1_555 1_555
O23_2 Co7_2 1_555 1_555
N8_2 Co7_2 1_555 1_555
O24_2 Co20 1_555 1_555
O25_2 Co7_2 1_555 1_555
O26_2 Co15 1_555 1_555
C57_2 O22_2 1_555 1_555
O27_2 Co7_2 1_555 1_555
C58_2 O23_2 1_555 1_555
O28_2 C81_2 1_555 1_555
C59_2 C57_2 1_555 1_555
O30_2 C81_2 1_555 1_555
C61_2 C58_2 1_555 1_555
C63_2 C59_2 1_555 1_555
H35_2 C63_2 1_555 1_555
C64_2 C65_2 1_555 1_555
C65_2 H36_2 1_555 1_555
C66_2 C65_2 1_555 1_555
H37_2 C66_2 1_555 1_555
C67_2 C66_2 1_555 1_555
C68_2 C67_2 1_555 1_555
H38_2 C68_2 1_555 1_555
C69_2 C64_2 1_555 1_555
H39_2 C69_2 1_555 1_555
C70_2 C78_2 1_555 1_555
C71_2 C73_2 1_555 1_555
C72_2 C61_2 1_555 1_555
H40_2 C72_2 1_555 1_555
C73_2 N11_2 1_555 1_555
N11_2 C74_2 1_555 1_555
C74_2 C67_2 1_555 1_555
N12_2 C74_2 1_555 1_555
C75_2 N12_2 1_555 1_555
N13_2 C73_2 1_555 1_555
C76_2 C71_2 1_555 1_555
H41_2 C76_2 1_555 1_555
C78_2 H43_2 1_555 1_555
C80_2 N8_2 1_555 1_555
H44_2 C80_2 1_555 1_555
C81_2 C64_2 1_555 1_555
C82_2 C76_2 1_555 1_555
H45_2 C82_2 1_555 1_555
C83_2 C82_2 1_555 1_555
C84_2 O24_2 1_555 1_555
C88_2 C70_2 1_555 1_555
H48_2 C88_2 1_555 1_555
C89_2 N8_2 1_555 1_555
H49_2 C89_2 1_555 1_555
C90_2 C71_2 1_555 1_555
H50_2 C90_2 1_555 1_555
C91_2 C83_2 1_555 1_555
H51_2 C91_2 1_555 1_555
C93_2 C75_2 1_555 1_555
C94_2 C93_2 1_555 1_555
H53_2 C94_2 1_555 1_555
C95_2 C94_2 1_555 1_555
H54_2 C95_2 1_555 1_555
C96_2 C95_2 1_555 1_555
C97_2 C96_2 1_555 1_555
H55_2 C97_2 1_555 1_555
C98_2 C93_2 1_555 1_555
H56_2 C98_2 1_555 1_555
C99_2 C63_2 1_555 1_555
H57_2 C99_2 1_555 1_555
C100_2 C72_2 1_555 1_555
O32_2 C102_2 1_555 1_555
O34_2 Co10 1_555 1_555
C102_2 C96_2 1_555 1_555
O35_2 C102_2 1_555 1_555
C103_2 C70_2 1_555 1_555
Co13 O32_2 1_555 1_555
Co17_2 O28_2 1_555 1_555
Co19_2 O30_2 1_555 1_555
Co25 O35_2 1_555 1_555
O37_3 Co10 1_555 1_555
O40_2 Co15 1_555 1_555
O42_2 Co7_2 1_555 1_555
N17_2 Co20 1_555 1_555
O49_2 Co10 1_555 1_555
O25_2 C84_2 1_555 1_555
O26_2 C58_2 1_555 1_555
C57_2 O27_2 1_555 1_555
C68_2 C69_2 1_555 1_555
C75_2 N13_2 1_555 1_555
C78_2 C80_2 1_555 1_555
C83_2 C84_2 1_555 1_555
C88_2 C89_2 1_555 1_555
C90_2 C91_2 1_555 1_555
C97_2 C98_2 1_555 1_555
O47 C103_2 1_555 1_555
O34_2 C103_2 1_555 1_555
H10_2 C20_2 1_555 1_555
O19_2 C53_2 1_555 1_555
C53_2 O20_2 1_555 1_555
C54_2 C20_2 1_555 1_555
H31_2 C54_2 1_555 1_555
O20_2 Co21 1_555 1_555
C55_2 C53_2 1_555 1_555
H59_2 C101_2 1_555 1_555
Co15_2 O19_2 1_555 1_555
C54_2 C55_2 1_555 1_555
N10_2 C101_2 1_555 1_555
N10_2 Co15_2 1_555 1_555
O36_2 Co13 1_555 1_555
Co13 O37_4 1_555 1_555
Co25 O36_2 1_555 1_555
H59_3 C101_3 1_555 1_555
N16 C101_3 1_555 1_555
Co15_2 O21_3 1_555 1_555
Co7_3 O21_3 1_555 1_555
Co21 O21_3 1_555 1_555
O22_3 Co21 1_555 1_555
O23_3 Co7_3 1_555 1_555
N8_3 Co7_3 1_555 1_555
O24_3 Co21 1_555 1_555
O25_3 Co7_3 1_555 1_555
O26_3 Co15_2 1_555 1_555
C57_3 O22_3 1_555 1_555
O27_3 Co7_3 1_555 1_555
C58_3 O23_3 1_555 1_555
O28_3 C81_3 1_555 1_555
C59_3 C57_3 1_555 1_555
O30_3 C81_3 1_555 1_555
C61_3 C58_3 1_555 1_555
C63_3 C59_3 1_555 1_555
H35_3 C63_3 1_555 1_555
C64_3 C65_3 1_555 1_555
C65_3 H36_3 1_555 1_555
C66_3 C65_3 1_555 1_555
H37_3 C66_3 1_555 1_555
C67_3 C66_3 1_555 1_555
C68_3 C67_3 1_555 1_555
H38_3 C68_3 1_555 1_555
C69_3 C64_3 1_555 1_555
H39_3 C69_3 1_555 1_555
C70_3 C78_3 1_555 1_555
C71_3 C73_3 1_555 1_555
C72_3 C61_3 1_555 1_555
H40_3 C72_3 1_555 1_555
C73_3 N11_3 1_555 1_555
N11_3 C74_3 1_555 1_555
C74_3 C67_3 1_555 1_555
N12_3 C74_3 1_555 1_555
C75_3 N12_3 1_555 1_555
N13_3 C73_3 1_555 1_555
C76_3 C71_3 1_555 1_555
H41_3 C76_3 1_555 1_555
C78_3 H43_3 1_555 1_555
C80_3 N8_3 1_555 1_555
H44_3 C80_3 1_555 1_555
C81_3 C64_3 1_555 1_555
C82_3 C76_3 1_555 1_555
H45_3 C82_3 1_555 1_555
C83_3 C82_3 1_555 1_555
C84_3 O24_3 1_555 1_555
C88_3 C70_3 1_555 1_555
H48_3 C88_3 1_555 1_555
C89_3 N8_3 1_555 1_555
H49_3 C89_3 1_555 1_555
C90_3 C71_3 1_555 1_555
H50_3 C90_3 1_555 1_555
C91_3 C83_3 1_555 1_555
H51_3 C91_3 1_555 1_555
C93_3 C75_3 1_555 1_555
C94_3 C93_3 1_555 1_555
H53_3 C94_3 1_555 1_555
C95_3 C94_3 1_555 1_555
H54_3 C95_3 1_555 1_555
C96_3 C95_3 1_555 1_555
C97_3 C96_3 1_555 1_555
H55_3 C97_3 1_555 1_555
C98_3 C93_3 1_555 1_555
H56_3 C98_3 1_555 1_555
C99_3 C63_3 1_555 1_555
H57_3 C99_3 1_555 1_555
C100_3 C72_3 1_555 1_555
O44 C102_3 1_555 1_555
O34_3 Co12 1_555 1_555
C102_3 C96_3 1_555 1_555
O50 C102_3 1_555 1_555
C103_3 C70_3 1_555 1_555
Co17_3 O28_3 1_555 1_555
Co19_3 O30_3 1_555 1_555
O40_3 Co15_2 1_555 1_555
O42_3 Co7_3 1_555 1_555
O49_3 Co12 1_555 1_555
O25_3 C84_3 1_555 1_555
O26_3 C58_3 1_555 1_555
C57_3 O27_3 1_555 1_555
C68_3 C69_3 1_555 1_555
C75_3 N13_3 1_555 1_555
C78_3 C80_3 1_555 1_555
C83_3 C84_3 1_555 1_555
C88_3 C89_3 1_555 1_555
C90_3 C91_3 1_555 1_555
C97_3 C98_3 1_555 1_555
O48 C103_3 1_555 1_555
O34_3 C103_3 1_555 1_555
N9_3 Co25 1_555 1_555
C60_3 H33_3 1_555 1_555
C62_3 H34_3 1_555 1_555
H42_3 C77_3 1_555 1_555
C79_3 C86_3 1_555 1_555
C85_3 N9_3 1_555 1_555
H46_3 C85_3 1_555 1_555
C86_3 O29_3 1_555 1_555
C87_3 C79_3 1_555 1_555
H47_3 C87_3 1_555 1_555
C92_3 N9_3 1_555 1_555
H52_3 C92_3 1_555 1_555
C104_3 C79_3 1_555 1_555
H60_3 C104_3 1_555 1_555
O31_3 C86_3 1_555 1_555
C62_3 C77_3 1_555 1_555
C62_3 N17_2 1_555 1_555
C85_3 C87_3 1_555 1_555
C92_3 C104_3 1_555 1_555
O49_4 Co13 1_555 1_555
Co21_2 N7_2 1_555 1_555
H37_4 C66_4 1_555 1_555
N12_4 C74_4 1_555 1_555
C75_4 N12_4 1_555 1_555
N13_4 C73_4 1_555 1_555
H41_4 C76_4 1_555 1_555
C93_4 C75_4 1_555 1_555
C94_4 C93_4 1_555 1_555
H53_4 C94_4 1_555 1_555
C95_4 C94_4 1_555 1_555
H54_4 C95_4 1_555 1_555
C96_4 C95_4 1_555 1_555
C97_4 C96_4 1_555 1_555
H55_4 C97_4 1_555 1_555
C98_4 C93_4 1_555 1_555
H56_4 C98_4 1_555 1_555
O45 C102_4 1_555 1_555
C102_4 C96_4 1_555 1_555
O35_3 C102_4 1_555 1_555
Co24_2 O35_3 1_555 1_555
C75_4 N13_4 1_555 1_555
C97_4 C98_4 1_555 1_555
Co16 O2_2 1_555 1_555
Co18 O2_2 1_555 1_555
Co4_2 O2_2 1_555 1_555
Co5_2 O37 1_555 1_555
O3_2 Co4_2 1_555 1_555
O4_2 Co18 1_555 1_555
N1_2 Co18 1_555 1_555
O5_2 Co4_2 1_555 1_555
O6_2 Co18 1_555 1_555
O7_2 Co16 1_555 1_555
C1_2 O3_2 1_555 1_555
O8_2 Co18 1_555 1_555
O9_2 Co16 1_555 1_555
C2_2 O4_2 1_555 1_555
O39 C29_2 1_555 1_555
O11_2 Co16 1_555 1_555
C3_2 C1_2 1_555 1_555
O41 C29_2 1_555 1_555
O13_2 Co4_2 1_555 1_555
N2_2 Co5_2 1_555 1_555
C4_3 O9_2 1_555 1_555
C5_2 H1_2 1_555 1_555
C6_2 C2_2 1_555 1_555
N3_2 C48_2 1_555 1_555
O14_2 Co4_2 1_555 1_555
C9_2 C3_2 1_555 1_555
H4_2 C9_2 1_555 1_555
C10_2 C11_2 1_555 1_555
C14_2 C13_2 1_555 1_555
H7_2 C14_2 1_555 1_555
C15_2 C10_2 1_555 1_555
H8_2 C15_2 1_555 1_555
C16_3 C4_3 1_555 1_555
C17_2 C26_2 1_555 1_555
C19_2 C6_2 1_555 1_555
H9_2 C19_2 1_555 1_555
C20_3 C16_3 1_555 1_555
H10_3 C20_3 1_555 1_555
C25_2 C3_2 1_555 1_555
H12_2 C25_2 1_555 1_555
C26_2 H13_2 1_555 1_555
C27_2 C34_2 1_555 1_555
C28_2 N1_2 1_555 1_555
H14_2 C28_2 1_555 1_555
C29_2 C10_2 1_555 1_555
C31_2 C30_2 1_555 1_555
C32_2 O5_2 1_555 1_555
C33_2 N2_2 1_555 1_555
H16_2 C33_2 1_555 1_555
C34_2 O11_2 1_555 1_555
C35_2 C27_2 1_555 1_555
H17_2 C35_2 1_555 1_555
C36_2 C17_2 1_555 1_555
H18_2 C36_2 1_555 1_555
C37_2 N1_2 1_555 1_555
H19_2 C37_2 1_555 1_555
C38_2 C18_2 1_555 1_555
H20_2 C38_2 1_555 1_555
C39_2 C31_2 1_555 1_555
H21_2 C39_2 1_555 1_555
C40_2 N2_2 1_555 1_555
H22_2 C40_2 1_555 1_555
C47_2 C9_2 1_555 1_555
C48_2 C19_2 1_555 1_555
H28_2 C48_2 1_555 1_555
C49_2 C5_2 1_555 1_555
H29_2 C49_2 1_555 1_555
O16_2 C51_2 1_555 1_555
O49_4 C51_2 1_555 1_555
C51_2 C17_2 1_555 1_555
C52_2 C27_2 1_555 1_555
H30_2 C52_2 1_555 1_555
C54_3 C20_3 1_555 1_555
H31_3 C54_3 1_555 1_555
N14_2 Co4_2 1_555 1_555
Co17_3 N3_2 1_555 1_555
Co22_2 O16_2 1_555 1_555
N16_2 Co16 1_555 1_555
O48_2 Co5_2 1_555 1_555
O50_2 Co5_2 1_555 1_555
O6_2 C32_2 1_555 1_555
O7_2 C2_2 1_555 1_555
C1_2 O8_2 1_555 1_555
O13_2 C34_2 1_555 1_555
C4_3 O14_2 1_555 1_555
C5_2 C6_2 1_555 1_555
N3_2 C49_2 1_555 1_555
C8_2 C25_2 1_555 1_555
C14_2 C15_2 1_555 1_555
C26_2 C28_2 1_555 1_555
C31_2 C32_2 1_555 1_555
C33_2 C35_2 1_555 1_555
C36_2 C37_2 1_555 1_555
C38_2 C39_2 1_555 1_555
C40_2 C52_2 1_555 1_555
C7_3 H2_3 1_555 1_555
H6_2 C12_2 1_555 1_555
N5_2 C22_2 1_555 1_555
C23_2 N5_2 1_555 1_555
N6_2 C21_2 1_555 1_555
H11_2 C24_2 1_555 1_555
C41_2 C23_2 1_555 1_555
C42_2 C41_2 1_555 1_555
H23_2 C42_2 1_555 1_555
C43_2 C42_2 1_555 1_555
H24_2 C43_2 1_555 1_555
C44_2 C43_2 1_555 1_555
C45_2 C44_2 1_555 1_555
H25_2 C45_2 1_555 1_555
C46_2 C41_2 1_555 1_555
H26_2 C46_2 1_555 1_555
O45_2 C50_2 1_555 1_555
C50_2 C44_2 1_555 1_555
O18_2 C50_2 1_555 1_555
O19_3 C53_3 1_555 1_555
C53_3 O20_3 1_555 1_555
O20_3 Co20_2 1_555 1_555
C55_3 C53_3 1_555 1_555
C56_3 C7_3 1_555 1_555
H32_3 C56_3 1_555 1_555
Co17_3 O21_4 1_555 1_555
Co19_3 O21_4 1_555 1_555
Co8_2 O21_4 1_555 1_555
Co22_2 O18_2 1_555 1_555
O22_4 Co8_2 1_555 1_555
O23_4 Co19_3 1_555 1_555
N8_4 Co19_3 1_555 1_555
O24_4 Co8_2 1_555 1_555
O25_4 Co19_3 1_555 1_555
O26_4 Co17_3 1_555 1_555
C57_4 O22_4 1_555 1_555
O27_4 Co19_3 1_555 1_555
C58_4 O23_4 1_555 1_555
O40_3 C81_4 1_555 1_555
O29_4 Co17_3 1_555 1_555
C59_4 C57_4 1_555 1_555
O42_3 C81_4 1_555 1_555
O31_4 Co8_2 1_555 1_555
N9_4 Co22_2 1_555 1_555
C60_4 H33_4 1_555 1_555
C61_4 C58_4 1_555 1_555
N10_3 C100_4 1_555 1_555
C63_4 C59_4 1_555 1_555
H35_4 C63_4 1_555 1_555
C64_4 C65_4 1_555 1_555
C68_4 C67_4 1_555 1_555
H38_4 C68_4 1_555 1_555
C69_4 C64_4 1_555 1_555
H39_4 C69_4 1_555 1_555
C70_4 C78_4 1_555 1_555
C72_4 C61_4 1_555 1_555
H40_4 C72_4 1_555 1_555
C77_4 C59_4 1_555 1_555
H42_4 C77_4 1_555 1_555
C78_4 H43_4 1_555 1_555
C79_4 C86_4 1_555 1_555
C80_4 N8_4 1_555 1_555
H44_4 C80_4 1_555 1_555
C81_4 C64_4 1_555 1_555
C83_4 C82_4 1_555 1_555
C84_4 O24_4 1_555 1_555
C85_4 N9_4 1_555 1_555
H46_4 C85_4 1_555 1_555
C86_4 O29_4 1_555 1_555
C87_4 C79_4 1_555 1_555
H47_4 C87_4 1_555 1_555
C88_4 C70_4 1_555 1_555
H48_4 C88_4 1_555 1_555
C89_4 N8_4 1_555 1_555
H49_4 C89_4 1_555 1_555
C90_4 C71_4 1_555 1_555
H50_4 C90_4 1_555 1_555
C91_4 C83_4 1_555 1_555
H51_4 C91_4 1_555 1_555
C92_4 N9_4 1_555 1_555
H52_4 C92_4 1_555 1_555
C99_4 C63_4 1_555 1_555
C100_4 C72_4 1_555 1_555
H58_4 C100_4 1_555 1_555
C101_4 C60_4 1_555 1_555
H59_4 C101_4 1_555 1_555
C103_4 C70_4 1_555 1_555
C104_4 C79_4 1_555 1_555
H60_4 C104_4 1_555 1_555
Co17_2 O19_3 1_555 1_555
Co24_2 O37_2 1_555 1_555
O37_4 Co22_2 1_555 1_555
O38_2 Co17_3 1_555 1_555
O43_2 Co8_2 1_555 1_555
N17_3 Co8_2 1_555 1_555
C23_2 N6_2 1_555 1_555
C45_2 C46_2 1_555 1_555
C55_3 C56_3 1_555 1_555
O25_4 C84_4 1_555 1_555
O26_4 C58_4 1_555 1_555
C57_4 O27_4 1_555 1_555
O31_4 C86_4 1_555 1_555
C60_4 C61_4 1_555 1_555
N10_3 C101_4 1_555 1_555
N10_3 Co17_2 1_555 1_555
C62_4 C77_4 1_555 1_555
C68_4 C69_4 1_555 1_555
C78_4 C80_4 1_555 1_555
C83_4 C84_4 1_555 1_555
C85_4 C87_4 1_555 1_555
C88_4 C89_4 1_555 1_555
C90_4 C91_4 1_555 1_555
C92_4 C104_4 1_555 1_555
O33_2 C103_4 1_555 1_555
O33_2 Co24_2 1_555 1_555
O49_3 C103_4 1_555 1_555
H6_3 C12_3 1_555 1_555
N5_3 C22_3 1_555 1_555
C23_3 N5_3 1_555 1_555
N6_3 C21_3 1_555 1_555
H11_3 C24_3 1_555 1_555
C41_3 C23_3 1_555 1_555
C42_3 C41_3 1_555 1_555
H23_3 C42_3 1_555 1_555
C43_3 C42_3 1_555 1_555
H24_3 C43_3 1_555 1_555
C44_3 C43_3 1_555 1_555
C45_3 C44_3 1_555 1_555
H25_3 C45_3 1_555 1_555
C46_3 C41_3 1_555 1_555
H26_3 C46_3 1_555 1_555
O45_4 C50_3 1_555 1_555
C50_3 C44_3 1_555 1_555
O18_3 C50_3 1_555 1_555
Co17 O21_5 1_555 1_555
Co19 O21_5 1_555 1_555
Co21_2 O21_5 1_555 1_555
Co25_2 O18_3 1_555 1_555
O22_5 Co21_2 1_555 1_555
O23_5 Co19 1_555 1_555
N8_5 Co19 1_555 1_555
O24_5 Co21_2 1_555 1_555
O25_5 Co19 1_555 1_555
O26_5 Co17 1_555 1_555
C57_5 O22_5 1_555 1_555
O27_5 Co19 1_555 1_555
C58_5 O23_5 1_555 1_555
O40 C81_5 1_555 1_555
O29_5 Co17 1_555 1_555
C59_5 C57_5 1_555 1_555
O42 C81_5 1_555 1_555
O31_5 Co21_2 1_555 1_555
N9_5 Co25_2 1_555 1_555
C60_5 H33_5 1_555 1_555
C61_5 C58_5 1_555 1_555
N16_2 C100_5 1_555 1_555
C63_5 C59_5 1_555 1_555
H35_5 C63_5 1_555 1_555
C64_5 C65_5 1_555 1_555
C68_5 C67_5 1_555 1_555
H38_5 C68_5 1_555 1_555
C69_5 C64_5 1_555 1_555
H39_5 C69_5 1_555 1_555
C70_5 C78_5 1_555 1_555
C72_5 C61_5 1_555 1_555
H40_5 C72_5 1_555 1_555
C77_5 C59_5 1_555 1_555
H42_5 C77_5 1_555 1_555
C78_5 H43_5 1_555 1_555
C79_5 C86_5 1_555 1_555
C80_5 N8_5 1_555 1_555
H44_5 C80_5 1_555 1_555
C81_5 C64_5 1_555 1_555
C83_5 C82_5 1_555 1_555
C84_5 O24_5 1_555 1_555
C85_5 N9_5 1_555 1_555
H46_5 C85_5 1_555 1_555
C86_5 O29_5 1_555 1_555
C87_5 C79_5 1_555 1_555
H47_5 C87_5 1_555 1_555
C88_5 C70_5 1_555 1_555
H48_5 C88_5 1_555 1_555
C89_5 N8_5 1_555 1_555
H49_5 C89_5 1_555 1_555
C90_5 C71_5 1_555 1_555
H50_5 C90_5 1_555 1_555
C91_5 C83_5 1_555 1_555
H51_5 C91_5 1_555 1_555
C92_5 N9_5 1_555 1_555
H52_5 C92_5 1_555 1_555
C99_5 C63_5 1_555 1_555
C100_5 C72_5 1_555 1_555
H58_5 C100_5 1_555 1_555
C101_5 C60_5 1_555 1_555
H59_5 C101_5 1_555 1_555
C103_5 C70_5 1_555 1_555
C104_5 C79_5 1_555 1_555
H60_5 C104_5 1_555 1_555
O37_3 Co25_2 1_555 1_555
O38_3 Co17 1_555 1_555
N15 Co17 1_555 1_555
O43_3 Co21_2 1_555 1_555
O47_2 Co25_2 1_555 1_555
C23_3 N6_3 1_555 1_555
C45_3 C46_3 1_555 1_555
O25_5 C84_5 1_555 1_555
O26_5 C58_5 1_555 1_555
C57_5 O27_5 1_555 1_555
O31_5 C86_5 1_555 1_555
C60_5 C61_5 1_555 1_555
N16_2 C101_5 1_555 1_555
C62_5 C77_5 1_555 1_555
C68_5 C69_5 1_555 1_555
C78_5 C80_5 1_555 1_555
C83_5 C84_5 1_555 1_555
C85_5 C87_5 1_555 1_555
C88_5 C89_5 1_555 1_555
C90_5 C91_5 1_555 1_555
C92_5 C104_5 1_555 1_555
O48_2 C103_5 1_555 1_555
O49 C103_5 1_555 1_555
Co17_2 O2_3 1_555 1_555
Co19_2 O2_3 1_555 1_555
Co20_2 O2_3 1_555 1_555
O3_3 Co20_2 1_555 1_555
O4_3 Co19_2 1_555 1_555
N1_3 Co19_2 1_555 1_555
O5_3 Co20_2 1_555 1_555
O6_3 Co19_2 1_555 1_555
O7_3 Co17_2 1_555 1_555
C1_3 O3_3 1_555 1_555
O8_3 Co19_2 1_555 1_555
C2_3 O4_3 1_555 1_555
O40_2 C29_3 1_555 1_555
O11_3 Co17_2 1_555 1_555
C3_3 C1_3 1_555 1_555
O42_2 C29_3 1_555 1_555
O13_3 Co20_2 1_555 1_555
N2_3 Co24_2 1_555 1_555
C5_3 H1_3 1_555 1_555
C6_3 C2_3 1_555 1_555
N15 C48_3 1_555 1_555
C9_3 C3_3 1_555 1_555
H4_3 C9_3 1_555 1_555
C10_3 C11_3 1_555 1_555
C14_3 C13_3 1_555 1_555
H7_3 C14_3 1_555 1_555
C15_3 C10_3 1_555 1_555
H8_3 C15_3 1_555 1_555
C17_3 C26_3 1_555 1_555
C19_3 C6_3 1_555 1_555
H9_3 C19_3 1_555 1_555
C25_3 C3_3 1_555 1_555
H12_3 C25_3 1_555 1_555
C26_3 H13_3 1_555 1_555
C27_3 C34_3 1_555 1_555
C28_3 N1_3 1_555 1_555
H14_3 C28_3 1_555 1_555
C29_3 C10_3 1_555 1_555
C31_3 C30_3 1_555 1_555
C32_3 O5_3 1_555 1_555
C33_3 N2_3 1_555 1_555
H16_3 C33_3 1_555 1_555
C34_3 O11_3 1_555 1_555
C35_3 C27_3 1_555 1_555
H17_3 C35_3 1_555 1_555
C36_3 C17_3 1_555 1_555
H18_3 C36_3 1_555 1_555
C37_3 N1_3 1_555 1_555
H19_3 C37_3 1_555 1_555
C38_3 C18_3 1_555 1_555
H20_3 C38_3 1_555 1_555
C39_3 C31_3 1_555 1_555
H21_3 C39_3 1_555 1_555
C40_3 N2_3 1_555 1_555
H22_3 C40_3 1_555 1_555
C47_3 C9_3 1_555 1_555
C48_3 C19_3 1_555 1_555
H28_3 C48_3 1_555 1_555
C49_3 C5_3 1_555 1_555
H29_3 C49_3 1_555 1_555
O47_2 C51_3 1_555 1_555
O49_2 C51_3 1_555 1_555
C51_3 C17_3 1_555 1_555
C52_3 C27_3 1_555 1_555
H30_3 C52_3 1_555 1_555
N14_3 Co20_2 1_555 1_555
O6_3 C32_3 1_555 1_555
O7_3 C2_3 1_555 1_555
C1_3 O8_3 1_555 1_555
O13_3 C34_3 1_555 1_555
C5_3 C6_3 1_555 1_555
N15 C49_3 1_555 1_555
C8_3 C25_3 1_555 1_555
C14_3 C15_3 1_555 1_555
C26_3 C28_3 1_555 1_555
C31_3 C32_3 1_555 1_555
C33_3 C35_3 1_555 1_555
C36_3 C37_3 1_555 1_555
C38_3 C39_3 1_555 1_555
C40_3 C52_3 1_555 1_555
H37_5 C66_5 1_555 1_555
N12_5 C74_5 1_555 1_555
C75_5 N12_5 1_555 1_555
N13_5 C73_5 1_555 1_555
H41_5 C76_5 1_555 1_555
C93_5 C75_5 1_555 1_555
C94_5 C93_5 1_555 1_555
H53_5 C94_5 1_555 1_555
C95_5 C94_5 1_555 1_555
H54_5 C95_5 1_555 1_555
C96_5 C95_5 1_555 1_555
C97_5 C96_5 1_555 1_555
H55_5 C97_5 1_555 1_555
C98_5 C93_5 1_555 1_555
H56_5 C98_5 1_555 1_555
O45_3 C102_5 1_555 1_555
C102_5 C96_5 1_555 1_555
O50_2 C102_5 1_555 1_555
C75_5 N13_5 1_555 1_555
C97_5 C98_5 1_555 1_555
C7_4 H2_4 1_555 1_555
O38_3 C53_4 1_555 1_555
C53_4 O43_3 1_555 1_555
C55_4 C53_4 1_555 1_555
C56_4 C7_4 1_555 1_555
H32_4 C56_4 1_555 1_555
C55_4 C56_4 1_555 1_555
C4_4 O38_2 1_555 1_555
C16_4 C4_4 1_555 1_555
C20_4 C16_4 1_555 1_555
H10_4 C20_4 1_555 1_555
C54_4 C20_4 1_555 1_555
H31_4 C54_4 1_555 1_555
C4_4 O43_2 1_555 1_555

#END
