
###############################################################################
#
# This file contains modified crystal structure data generated from the
# MOF subset of the Cambridge Structural Database (CSD) v543 
# hosted by the Cambridge Crystallographic Data Centre (CCDC).
#
# This work is licensed under the Creative Commons
# Attribution-NonCommercial-ShareAlike 4.0 International License.
# To view a copy of this license, visit
# http://creativecommons.org/licenses/by-nc-sa/4.0/
# or send a letter to
# Creative Commons, PO Box 1866, Mountain View, CA 94042, USA.
#
# CIF created using the CSD Python API on 29 September 2022
# The structure has been converted into the P1 space group
# The structure has a 3D framework
# The original CSD entry CUSJOS is in the tetragonal crystal system
# The framework has been calculated to contain at least 10.0% void space
# The void calculation uses a probe of radius 1.32A, grid spacing 0.4
# The framework is charged, counterions have been retained in the structure
#
###############################################################################

data_CUSJOS
_chemical_formula_moiety         '(C440 H264 N32 Ni34 O139 8-)n'
_symmetry_cell_setting           triclinic
_symmetry_space_group_name_H-M   'P 1'
_symmetry_Int_Tables_number      1
_space_group_name_Hall           'P 1'
loop_
_symmetry_equiv_pos_site_id
_symmetry_equiv_pos_as_xyz
1 x,y,z
_cell_length_a                   21.6973(5)
_cell_length_b                   21.6973(5)
_cell_length_c                   39.0746(19)
_cell_angle_alpha                90
_cell_angle_beta                 90
_cell_angle_gamma                90
_cell_volume                     18395.3
loop_
_atom_site_label
_atom_site_type_symbol
_atom_site_fract_x
_atom_site_fract_y
_atom_site_fract_z
Ni1 Ni 0.11786(12) 0.26702(12) 0.02265(8)
Ni2 Ni 0.23252(11) 0.38257(11) 0.02352(7)
Ni4 Ni 0.24711(13) 0.25250(12) 0.07333(5)
O1 O 0.2007(4) 0.2997(4) 0.03813(18)
O3 O 0.4895(4) 0.8771(4) 0.2542(3)
O4 O 0.3161(4) 0.3426(5) 0.0113(3)
O5 O 0.3996(6) 0.0934(5) 0.2094(2)
O6 O 0.1476(5) 0.1770(5) 0.0170(4)
O7 O 0.0803(5) 0.3501(5) 0.0239(3)
O8 O 0.2562(6) 0.4092(5) 0.0722(3)
N2 N 0.3027(7) 0.2033(6) 0.1092(2)
C1 C 0.4114(8) 0.2928(7) 0.0137(5)
C2 C 0.2135(7) 0.0888(7) 0.0150(4)
C3 C 0.1933(7) 0.1504(7) 0.0238(4)
C4 C 0.0895(7) 0.3997(7) 0.0306(3)
O11 O 0.2445(5) 0.1791(5) 0.0425(3)
O12 O 0.2627(7) 0.4162(7) 0.4342(3)
O13 O 0.3287(4) 0.2783(4) 0.0530(2)
C5 C 0.0504(7) 0.4588(7) 0.0294(3)
O14 O 0.1502(4) 0.4232(4) 0.0361(3)
C6 C 0.3423(7) 0.2909(9) 0.0274(5)
O15 O 0.2705(9) 0.3258(7) 0.1018(5)
C10 C 0.0669(9) 0.5074(8) 0.0277(5)
H4 H 0.1076 0.5162 0.0220
O16 O 0.2646(8) 0.3268(6) 0.3985(3)
C11 C 0.2935(7) 0.4244(6) 0.1251(3)
C12 C 0.2792(8) 0.4868(6) 0.1257(3)
H5 H 0.2635 0.5058 0.1063
C13 C 0.2883(9) 0.5209(5) 0.1554(4)
H6 H 0.2787 0.5627 0.1558
C14 C 0.3117(8) 0.4925(7) 0.1846(3)
C15 C 0.3260(8) 0.4301(8) 0.1840(3)
H7 H 0.3417 0.4111 0.2034
C16 C 0.3169(7) 0.3960(5) 0.1543(4)
H8 H 0.3265 0.3542 0.1539
C18 C 0.3761(9) 0.1368(9) 0.1545(3)
C19 C 0.2680(8) 0.3871(8) 0.4059(4)
C20 C 0.2687(8) 0.3835(9) 0.0992(5)
C21 C 0.4346(8) 0.2306(8) 0.0179(4)
H10 H 0.4128 0.1942 0.0210
C23 C 0.3478(7) 0.1646(6) 0.0972(4)
H11 H 0.3544 0.1617 0.0738
C24 C 0.4980(11) 0.2396(10) 0.0160(6)
H12 H 0.5192 0.2220 0.0342
C25 C 0.3839(7) 0.1296(7) 0.1192(3)
H13 H 0.4127 0.1020 0.1106
C27 C 0.3192(7) 0.5185(7) 0.2200(3)
C28 C 0.3375(7) 0.5799(7) 0.2184(3)
H15 H 0.3384 0.6003 0.1975
C29 C 0.3543(6) 0.6107(4) 0.2481(4)
C30 C 0.3530(7) 0.5803(6) 0.2794(3)
H16 H 0.3643 0.6009 0.2993
C31 C 0.3348(7) 0.5189(6) 0.2810(3)
C32 C 0.3179(6) 0.4880(4) 0.2513(4)
H17 H 0.3057 0.4470 0.2523
C33 C 0.2582(8) 0.0583(8) 0.0297(4)
H18 H 0.2747 0.0694 0.0508
C34 C 0.2984(11) 0.2101(9) 0.1407(4)
H19 H 0.2710 0.2393 0.1492
C40 C 0.3345(12) 0.1742(11) 0.1643(4)
H24 H 0.3271 0.1784 0.1876
C41 C 0.4052(10) 0.0890(11) 0.1777(6)
C42 C 0.2944(13) 0.4779(9) 0.3746(5)
H25 H 0.2974 0.4972 0.3958
C43 C 0.2777(13) 0.4202(9) 0.3725(5)
C44 C 0.2788(10) 0.3893(8) 0.3397(5)
H26 H 0.2681 0.3479 0.3382
C45 C 0.3119(12) 0.4831(9) 0.3131(5)
C46 C 0.3079(13) 0.5111(9) 0.3436(5)
H27 H 0.3141 0.5534 0.3448
C47 C 0.2956(10) 0.4211(8) 0.3113(5)
H28 H 0.2963 0.4012 0.2902
C48 C 0.2802(6) 0.0042(6) 0.0099(4)
O17 O 0.4358(8) 0.0380(7) 0.1614(3)
O18 O 0.4600(7) 0.8703(6) 0.1954(4)
C49 C 0.4586(11) 0.8557(14) 0.2276(4)
C50 C 0.3789(10) 0.6799(8) 0.2469(6)
C51 C 0.4177(12) 0.7127(10) 0.2700(6)
H30 H 0.4224 0.6963 0.2918
C52 C 0.4320(13) 0.7933(11) 0.2346(7)
C53 C 0.4493(12) 0.7668(11) 0.2629(6)
H31 H 0.4798 0.7827 0.2771
C54 C 0.3886(11) 0.7725(11) 0.2111(6)
H32 H 0.3768 0.7955 0.1920
C55 C 0.3641(10) 0.7150(11) 0.2181(6)
H33 H 0.3359 0.6986 0.2027
C59 C 0.0196(8) 0.5604(9) 0.0350(5)
H35 H 0.0314 0.5996 0.0421
Ni12 Ni 0.23298(12) 0.38214(12) 0.47735(8)
Ni18 Ni 0.55169(8) 0.94831(8) 0.2500
Ni21 Ni 0.44831(8) 0.05169(8) 0.2500
Ni22 Ni 0.24750(12) 0.25289(13) 0.42667(5)
Ni25 Ni 0.4552(2) 0.95787(18) 0.17636(8)
Ni29 Ni 0.5448(2) 0.04213(18) 0.17636(8)
O36 O 0.5000 0.0000 0.2158(2)
N9 N 0.2642(5) 0.4697(5) 0.0033(3)
N11 N 0.0349(6) 0.2412(6) 0.0109(4)
O43 O 0.0838(7) 0.2373(7) 0.0658(3)
O46 O 0.1732(6) 0.2354(8) 0.1015(3)
Ni3 Ni 0.05169(8) 0.55169(8) 0.7500
Ni5 Ni 0.04213(18) 0.4552(2) 0.82364(8)
O2 O 0.0000 0.5000 0.7842(2)
N1 N 0.5303(5) 0.2642(5) 0.9967(3)
O9 O 0.2045(6) 0.3629(6) 0.9715(3)
O10 O 0.1306(7) 0.2903(7) 0.9734(4)
C7 C 0.1685(5) 0.0523(5) 0.9929(3)
H1 H 0.1298 0.0668 0.9865
C9 C 0.4376(15) 0.3160(14) 0.9927(8)
H3 H 0.4136 0.3372 0.9768
C17 C 0.5033(7) 0.3180(7) 0.9866(5)
H9 H 0.5243 0.3513 0.9771
C22 C 0.1625(11) 0.3342(12) 0.9564(4)
C35 C 0.1306(8) 0.3695(7) 0.9275(3)
C36 C 0.1566(8) 0.4202(8) 0.9113(4)
H20 H 0.1914 0.4389 0.9206
C37 C 0.1307(8) 0.4430(7) 0.8814(4)
H21 H 0.1481 0.4770 0.8706
N4 N 0.0787(7) 0.4150(7) 0.8676(3)
C38 C 0.0526(7) 0.3642(9) 0.8838(5)
H22 H 0.0178 0.3455 0.8745
C39 C 0.0786(9) 0.3415(8) 0.9137(5)
H23 H 0.0611 0.3075 0.9245
Ni16 Ni 0.61743(11) 0.23252(11) 0.97648(7)
O37 O 0.0000 0.5000 0.7158(2)
O38 O 0.1229(4) 0.4895(4) 0.7458(3)
O40 O 0.0934(5) 0.6004(6) 0.7906(2)
O41 O 0.1004(6) 0.5934(5) 0.7094(2)
O48 O 0.0380(7) 0.5642(8) 0.8386(3)
O52 O 0.1297(6) 0.4600(7) 0.8046(4)
H29 H 0.3220 0.9947 0.0110
O27 O 0.3629(6) 0.7955(6) 0.0285(3)
O28 O 0.2903(7) 0.8694(7) 0.0266(4)
C64 C 0.0523(5) 0.8315(5) 0.0071(3)
H36 H 0.0668 0.8702 0.0135
C66 C 0.3160(14) 0.5624(15) 0.0073(8)
H38 H 0.3372 0.5864 0.0232
C73 C 0.3180(7) 0.4967(7) 0.0134(5)
H43 H 0.3513 0.4757 0.0229
C78 C 0.3342(12) 0.8375(11) 0.0436(4)
C90 C 0.3695(7) 0.8694(8) 0.0725(3)
C91 C 0.4202(8) 0.8434(8) 0.0887(4)
H53 H 0.4389 0.8086 0.0794
C92 C 0.4430(7) 0.8693(8) 0.1186(4)
H54 H 0.4770 0.8519 0.1294
N8 N 0.4150(7) 0.9213(7) 0.1324(3)
C93 C 0.3642(9) 0.9474(7) 0.1162(5)
H55 H 0.3455 0.9822 0.1255
C94 C 0.3415(8) 0.9214(9) 0.0863(5)
H56 H 0.3075 0.9389 0.0755
O36_2 O 0.5000 1.0000 0.2158(2)
O49 O 0.5642(8) 0.9620(7) 0.1614(3)
N3 N 0.2412(6) 0.9651(6) 0.9891(4)
C8 C 0.1922(7) 0.9931(7) 0.9830(4)
H2 H 0.1654 0.9710 0.9690
Ni6 Ni 0.26702(12) 0.88214(12) 0.97735(8)
Ni7 Ni 0.38257(11) 0.76748(11) 0.97648(7)
Ni8 Ni 0.25250(12) 0.75289(13) 0.92667(5)
O21 O 0.2997(4) 0.7993(4) 0.96187(18)
O22 O 0.8771(4) 0.5105(4) 0.7458(3)
O23 O 0.3426(5) 0.6839(4) 0.9887(3)
O25 O 0.1770(5) 0.8524(5) 0.9830(4)
O26 O 0.4092(5) 0.7438(6) 0.9278(3)
N6 N 0.2033(6) 0.6973(7) 0.8908(2)
C60 C 0.2928(7) 0.5886(8) 0.9863(5)
C61 C 0.0888(7) 0.7865(7) 0.9850(4)
C62 C 0.1504(7) 0.8067(7) 0.9762(4)
O29 O 0.1791(5) 0.7555(5) 0.9575(3)
O30 O 0.4162(7) 0.7373(7) 0.5658(3)
O31 O 0.2783(4) 0.6713(4) 0.9470(2)
C63 C 0.2909(9) 0.6577(7) 0.9726(5)
O32 O 0.3258(7) 0.7295(9) 0.8982(5)
O33 O 0.3268(6) 0.7354(8) 0.6015(3)
C67 C 0.4244(6) 0.7065(7) 0.8749(3)
C68 C 0.4868(6) 0.7208(8) 0.8743(3)
H39 H 0.5058 0.7365 0.8937
C69 C 0.5209(5) 0.7117(9) 0.8446(4)
H40 H 0.5627 0.7213 0.8442
C70 C 0.4925(7) 0.6883(8) 0.8154(3)
C71 C 0.4301(8) 0.6740(8) 0.8160(3)
H41 H 0.4111 0.6583 0.7966
C72 C 0.3960(5) 0.6831(7) 0.8457(4)
H42 H 0.3542 0.6735 0.8461
C74 C 0.1368(9) 0.6239(9) 0.8455(3)
C75 C 0.3871(8) 0.7320(8) 0.5941(4)
C76 C 0.3835(9) 0.7313(8) 0.9008(5)
C77 C 0.2306(8) 0.5654(8) 0.9821(4)
H44 H 0.1942 0.5872 0.9790
C79 C 0.1646(6) 0.6522(7) 0.9028(4)
H45 H 0.1617 0.6456 0.9262
C80 C 0.2396(10) 0.5020(11) 0.9840(6)
H46 H 0.2220 0.4808 0.9658
C81 C 0.1296(7) 0.6161(7) 0.8808(3)
H47 H 0.1020 0.5873 0.8894
C82 C 0.5185(7) 0.6808(7) 0.7800(3)
C83 C 0.5799(7) 0.6625(7) 0.7816(3)
H48 H 0.6003 0.6616 0.8025
C84 C 0.6107(4) 0.6457(6) 0.7519(4)
C85 C 0.5803(6) 0.6470(7) 0.7206(3)
H49 H 0.6009 0.6357 0.7007
C86 C 0.5189(6) 0.6652(7) 0.7190(3)
C87 C 0.4880(4) 0.6821(6) 0.7487(4)
H50 H 0.4470 0.6943 0.7477
C88 C 0.0583(8) 0.7418(8) 0.9703(4)
H51 H 0.0694 0.7253 0.9492
C89 C 0.2101(9) 0.7016(11) 0.8593(4)
H52 H 0.2393 0.7290 0.8508
C95 C 0.1742(11) 0.6655(12) 0.8357(4)
H57 H 0.1784 0.6729 0.8124
C96 C 0.0890(11) 0.5948(10) 0.8223(6)
C97 C 0.4779(9) 0.7056(13) 0.6254(5)
H58 H 0.4972 0.7026 0.6042
C98 C 0.4202(9) 0.7223(13) 0.6275(5)
C99 C 0.3893(8) 0.7212(10) 0.6603(5)
H59 H 0.3479 0.7319 0.6618
C100 C 0.4831(9) 0.6881(12) 0.6869(5)
C101 C 0.5111(9) 0.6921(13) 0.6564(5)
H60 H 0.5534 0.6859 0.6552
C102 C 0.4211(8) 0.7044(10) 0.6887(5)
H61 H 0.4012 0.7037 0.7098
C103 C 0.0042(6) 0.7198(6) 0.9901(4)
O35 O 0.8703(6) 0.5400(7) 0.8046(4)
C104 C 0.8557(14) 0.5414(11) 0.7724(4)
C105 C 0.6799(8) 0.6211(10) 0.7531(6)
C106 C 0.7127(10) 0.5823(12) 0.7300(6)
H63 H 0.6963 0.5776 0.7082
C107 C 0.7933(11) 0.5680(13) 0.7654(7)
C108 C 0.7668(11) 0.5507(12) 0.7371(6)
H64 H 0.7827 0.5202 0.7229
C109 C 0.7725(11) 0.6114(11) 0.7889(6)
H65 H 0.7955 0.6232 0.8080
C110 C 0.7150(11) 0.6359(10) 0.7819(6)
H66 H 0.6986 0.6641 0.7973
Ni13 Ni 0.38214(12) 0.76702(12) 0.52265(8)
Ni20 Ni 0.94831(8) 0.44831(8) 0.7500
Ni23 Ni 0.25289(13) 0.75250(12) 0.57333(5)
Ni28 Ni 0.95787(18) 0.5448(2) 0.82364(8)
N10 N 0.4697(5) 0.7358(5) 0.9967(3)
O42 O 0.3501(5) 0.9197(5) 0.9761(3)
O44 O 0.2373(7) 0.9162(7) 0.9342(3)
O45 O 0.4232(4) 0.8498(4) 0.9639(3)
O47 O 0.2354(8) 0.8268(6) 0.8985(3)
C26 C 0.9804(8) 0.4396(9) 0.0350(5)
H14 H 0.9686 0.4004 0.0421
O19 O 0.9197(5) 0.6499(5) 0.0239(3)
C56 C 0.9105(7) 0.6003(7) 0.0306(3)
C57 C 0.9496(7) 0.5412(7) 0.0294(3)
O20 O 0.8498(4) 0.5768(4) 0.0361(3)
C58 C 0.9331(9) 0.4926(8) 0.0277(5)
H34 H 0.8924 0.4838 0.0220
Ni11 Ni 0.88214(12) 0.73298(12) 0.02265(8)
Ni15 Ni 0.76748(11) 0.61743(11) 0.02352(7)
O2_2 O 1.0000 0.5000 0.7842(2)
O37_2 O 1.0000 0.5000 0.7158(2)
O39 O 0.9895(4) 0.6229(4) 0.7542(3)
O50 O 0.9620(7) 0.4358(8) 0.8386(3)
N7 N 0.9651(6) 0.7588(6) 0.0109(4)
C65 C 0.9931(7) 0.8078(7) 0.0170(4)
H37 H 0.9710 0.8346 0.0310
H62 H 0.9947 0.6780 0.9890
O37_3 O 0.5000 0.0000 0.2842(2)
O39_2 O 0.6229(4) 0.0105(4) 0.2458(3)
C26_2 C 0.4396(9) 0.0196(8) 0.9650(5)
H14_2 H 0.4004 0.0314 0.9579
O19_2 O 0.6499(5) 0.0803(5) 0.9761(3)
C56_2 C 0.6003(7) 0.0895(7) 0.9694(3)
C57_2 C 0.5412(7) 0.0504(7) 0.9706(3)
O20_2 O 0.5768(4) 0.1502(4) 0.9639(3)
C58_2 C 0.4926(8) 0.0669(9) 0.9723(5)
H34_2 H 0.4838 0.1076 0.9780
Ni11_2 Ni 0.73298(12) 0.11786(12) 0.97735(8)
O37_4 O 0.5000 1.0000 0.2842(2)
O40_2 O 0.6004(6) 0.9066(5) 0.2094(2)
O41_2 O 0.5934(5) 0.8996(6) 0.2906(2)
C4_2 C 0.3997(7) 0.9105(7) 0.9694(3)
C5_2 C 0.4588(7) 0.9496(7) 0.9706(3)
C10_2 C 0.5074(8) 0.9331(9) 0.9723(5)
H4_2 H 0.5162 0.8924 0.9780
C59_2 C 0.5604(9) 0.9804(8) 0.9650(5)
H35_2 H 0.5996 0.9686 0.9579
H62_2 H 0.6780 0.0053 0.0110
N7_2 N 0.7588(6) 0.0349(6) 0.9891(4)
C65_2 C 0.8078(7) 0.0069(7) 0.9830(4)
H37_2 H 0.8346 0.0290 0.9690
Ni8_2 Ni 0.75289(13) 0.74750(12) 0.07333(5)
O21_2 O 0.7993(4) 0.7003(4) 0.03813(18)
O22_2 O 0.5105(4) 0.1229(4) 0.2542(3)
O23_2 O 0.6839(4) 0.6574(5) 0.0113(3)
O25_2 O 0.8524(5) 0.8230(5) 0.0170(4)
O26_2 O 0.7438(6) 0.5908(5) 0.0722(3)
N6_2 N 0.6973(7) 0.7967(6) 0.1092(2)
C60_2 C 0.5886(8) 0.7072(7) 0.0137(5)
C61_2 C 0.7865(7) 0.9112(7) 0.0150(4)
C62_2 C 0.8067(7) 0.8496(7) 0.0238(4)
O29_2 O 0.7555(5) 0.8209(5) 0.0425(3)
O30_2 O 0.7373(7) 0.5838(7) 0.4342(3)
O31_2 O 0.6713(4) 0.7217(4) 0.0530(2)
C63_2 C 0.6577(7) 0.7091(9) 0.0274(5)
O32_2 O 0.7295(9) 0.6742(7) 0.1018(5)
O33_2 O 0.7354(8) 0.6732(6) 0.3985(3)
C67_2 C 0.7065(7) 0.5756(6) 0.1251(3)
C68_2 C 0.7208(8) 0.5132(6) 0.1257(3)
H39_2 H 0.7365 0.4942 0.1063
C69_2 C 0.7117(9) 0.4791(5) 0.1554(4)
H40_2 H 0.7213 0.4373 0.1558
C70_2 C 0.6883(8) 0.5075(7) 0.1846(3)
C71_2 C 0.6740(8) 0.5699(8) 0.1840(3)
H41_2 H 0.6583 0.5889 0.2034
C72_2 C 0.6831(7) 0.6040(5) 0.1543(4)
H42_2 H 0.6735 0.6458 0.1539
C74_2 C 0.6239(9) 0.8632(9) 0.1545(3)
C75_2 C 0.7320(8) 0.6129(8) 0.4059(4)
C76_2 C 0.7313(8) 0.6165(9) 0.0992(5)
C77_2 C 0.5654(8) 0.7694(8) 0.0179(4)
H44_2 H 0.5872 0.8058 0.0210
C79_2 C 0.6522(7) 0.8354(6) 0.0972(4)
H45_2 H 0.6456 0.8383 0.0738
C80_2 C 0.5020(11) 0.7604(10) 0.0160(6)
H46_2 H 0.4808 0.7780 0.0342
C81_2 C 0.6161(7) 0.8704(7) 0.1192(3)
H47_2 H 0.5873 0.8980 0.1106
C82_2 C 0.6808(7) 0.4815(7) 0.2200(3)
C83_2 C 0.6625(7) 0.4201(7) 0.2184(3)
H48_2 H 0.6616 0.3997 0.1975
C84_2 C 0.6457(6) 0.3893(4) 0.2481(4)
C85_2 C 0.6470(7) 0.4197(6) 0.2794(3)
H49_2 H 0.6357 0.3991 0.2993
C86_2 C 0.6652(7) 0.4811(6) 0.2810(3)
C87_2 C 0.6821(6) 0.5120(4) 0.2513(4)
H50_2 H 0.6943 0.5530 0.2523
C88_2 C 0.7418(8) 0.9417(8) 0.0297(4)
H51_2 H 0.7253 0.9306 0.0508
C89_2 C 0.7016(11) 0.7899(9) 0.1407(4)
H52_2 H 0.7290 0.7607 0.1492
C95_2 C 0.6655(12) 0.8258(11) 0.1643(4)
H57_2 H 0.6729 0.8216 0.1876
C96_2 C 0.5948(10) 0.9110(11) 0.1777(6)
C97_2 C 0.7056(13) 0.5221(9) 0.3746(5)
H58_2 H 0.7026 0.5028 0.3958
C98_2 C 0.7223(13) 0.5798(9) 0.3725(5)
C99_2 C 0.7212(10) 0.6107(8) 0.3397(5)
H59_2 H 0.7319 0.6521 0.3382
C100_2 C 0.6881(12) 0.5169(9) 0.3131(5)
C101_2 C 0.6921(13) 0.4889(9) 0.3436(5)
H60_2 H 0.6859 0.4466 0.3448
C102_2 C 0.7044(10) 0.5789(8) 0.3113(5)
H61_2 H 0.7037 0.5988 0.2902
C103_2 C 0.7198(6) 0.9958(6) 0.0099(4)
O35_2 O 0.5400(7) 0.1297(6) 0.1954(4)
C104_2 C 0.5414(11) 0.1443(14) 0.2276(4)
C105_2 C 0.6211(10) 0.3201(8) 0.2469(6)
C106_2 C 0.5823(12) 0.2873(10) 0.2700(6)
H63_2 H 0.5776 0.3037 0.2918
C107_2 C 0.5680(13) 0.2067(11) 0.2346(7)
C108_2 C 0.5507(12) 0.2332(11) 0.2629(6)
H64_2 H 0.5202 0.2173 0.2771
C109_2 C 0.6114(11) 0.2275(11) 0.2111(6)
H65_2 H 0.6232 0.2045 0.1920
C110_2 C 0.6359(10) 0.2850(11) 0.2181(6)
H66_2 H 0.6641 0.3014 0.2027
Ni13_2 Ni 0.76702(12) 0.61786(12) 0.47735(8)
Ni23_2 Ni 0.75250(12) 0.74711(13) 0.42667(5)
N10_2 N 0.7358(5) 0.5303(5) 0.0033(3)
O44_2 O 0.9162(7) 0.7627(7) 0.0658(3)
O47_2 O 0.8268(6) 0.7646(8) 0.1015(3)
O27_2 O 0.7955(6) 0.6371(6) 0.9715(3)
O28_2 O 0.8694(7) 0.7097(7) 0.9734(4)
C64_2 C 0.8315(5) 0.9477(5) 0.9929(3)
H36_2 H 0.8702 0.9332 0.9865
C66_2 C 0.5624(15) 0.6840(14) 0.9927(8)
H38_2 H 0.5864 0.6628 0.9768
C73_2 C 0.4967(7) 0.6820(7) 0.9866(5)
H43_2 H 0.4757 0.6487 0.9771
C78_2 C 0.8375(11) 0.6658(12) 0.9564(4)
C90_2 C 0.8694(8) 0.6305(7) 0.9275(3)
C91_2 C 0.8434(8) 0.5798(8) 0.9113(4)
H53_2 H 0.8086 0.5611 0.9206
C92_2 C 0.8693(8) 0.5570(7) 0.8814(4)
H54_2 H 0.8519 0.5230 0.8706
N8_2 N 0.9213(7) 0.5850(7) 0.8676(3)
C93_2 C 0.9474(7) 0.6358(9) 0.8838(5)
H55_2 H 0.9822 0.6545 0.8745
C94_2 C 0.9214(9) 0.6585(8) 0.9137(5)
H56_2 H 0.9389 0.6925 0.9245
C65_3 C 0.0069(7) 0.1922(7) 0.0170(4)
H37_3 H 0.0290 0.1654 0.0310
H62_3 H 0.0053 0.3220 0.9890
O39_3 O 0.0105(4) 0.3771(4) 0.7542(3)
O27_3 O 0.6371(6) 0.2045(6) 0.0285(3)
O28_3 O 0.7097(7) 0.1306(7) 0.0266(4)
C64_3 C 0.9477(5) 0.1685(5) 0.0071(3)
H36_3 H 0.9332 0.1298 0.0135
C66_3 C 0.6840(14) 0.4376(15) 0.0073(8)
H38_3 H 0.6628 0.4136 0.0232
C73_3 C 0.6820(7) 0.5033(7) 0.0134(5)
H43_3 H 0.6487 0.5243 0.0229
C78_3 C 0.6658(12) 0.1625(11) 0.0436(4)
C90_3 C 0.6305(7) 0.1306(8) 0.0725(3)
C91_3 C 0.5798(8) 0.1566(8) 0.0887(4)
H53_3 H 0.5611 0.1914 0.0794
C92_3 C 0.5570(7) 0.1307(8) 0.1186(4)
H54_3 H 0.5230 0.1481 0.1294
N8_3 N 0.5850(7) 0.0787(7) 0.1324(3)
C93_3 C 0.6358(9) 0.0526(7) 0.1162(5)
H55_3 H 0.6545 0.0178 0.1255
C94_3 C 0.6585(8) 0.0786(9) 0.0863(5)
H56_3 H 0.6925 0.0611 0.0755
Ni8_3 Ni 0.74750(12) 0.24711(13) 0.92667(5)
O21_3 O 0.7003(4) 0.2007(4) 0.96187(18)
O23_3 O 0.6574(5) 0.3161(4) 0.9887(3)
O24 O 0.9066(5) 0.3996(6) 0.7906(2)
O25_3 O 0.8230(5) 0.1476(5) 0.9830(4)
O26_3 O 0.5908(5) 0.2562(6) 0.9278(3)
N6_3 N 0.7967(6) 0.3027(7) 0.8908(2)
C60_3 C 0.7072(7) 0.4114(8) 0.9863(5)
C61_3 C 0.9112(7) 0.2135(7) 0.9850(4)
C62_3 C 0.8496(7) 0.1933(7) 0.9762(4)
O29_3 O 0.8209(5) 0.2445(5) 0.9575(3)
O30_3 O 0.5838(7) 0.2627(7) 0.5658(3)
O31_3 O 0.7217(4) 0.3287(4) 0.9470(2)
C63_3 C 0.7091(9) 0.3423(7) 0.9726(5)
O32_3 O 0.6742(7) 0.2705(9) 0.8982(5)
O33_3 O 0.6732(6) 0.2646(8) 0.6015(3)
C67_3 C 0.5756(6) 0.2935(7) 0.8749(3)
C68_3 C 0.5132(6) 0.2792(8) 0.8743(3)
H39_3 H 0.4942 0.2635 0.8937
C69_3 C 0.4791(5) 0.2883(9) 0.8446(4)
H40_3 H 0.4373 0.2787 0.8442
C70_3 C 0.5075(7) 0.3117(8) 0.8154(3)
C71_3 C 0.5699(8) 0.3260(8) 0.8160(3)
H41_3 H 0.5889 0.3417 0.7966
C72_3 C 0.6040(5) 0.3169(7) 0.8457(4)
H42_3 H 0.6458 0.3265 0.8461
C74_3 C 0.8632(9) 0.3761(9) 0.8455(3)
C75_3 C 0.6129(8) 0.2680(8) 0.5941(4)
C76_3 C 0.6165(9) 0.2687(8) 0.9008(5)
C77_3 C 0.7694(8) 0.4346(8) 0.9821(4)
H44_3 H 0.8058 0.4128 0.9790
C79_3 C 0.8354(6) 0.3478(7) 0.9028(4)
H45_3 H 0.8383 0.3544 0.9262
C80_3 C 0.7604(10) 0.4980(11) 0.9840(6)
H46_3 H 0.7780 0.5192 0.9658
C81_3 C 0.8704(7) 0.3839(7) 0.8808(3)
H47_3 H 0.8980 0.4127 0.8894
C82_3 C 0.4815(7) 0.3192(7) 0.7800(3)
C83_3 C 0.4201(7) 0.3375(7) 0.7816(3)
H48_3 H 0.3997 0.3384 0.8025
C84_3 C 0.3893(4) 0.3543(6) 0.7519(4)
C85_3 C 0.4197(6) 0.3530(7) 0.7206(3)
H49_3 H 0.3991 0.3643 0.7007
C86_3 C 0.4811(6) 0.3348(7) 0.7190(3)
C87_3 C 0.5120(4) 0.3179(6) 0.7487(4)
H50_3 H 0.5530 0.3057 0.7477
C88_3 C 0.9417(8) 0.2582(8) 0.9703(4)
H51_3 H 0.9306 0.2747 0.9492
C89_3 C 0.7899(9) 0.2984(11) 0.8593(4)
H52_3 H 0.7607 0.2710 0.8508
C95_3 C 0.8258(11) 0.3345(12) 0.8357(4)
H57_3 H 0.8216 0.3271 0.8124
C96_3 C 0.9110(11) 0.4052(10) 0.8223(6)
C97_3 C 0.5221(9) 0.2944(13) 0.6254(5)
H58_3 H 0.5028 0.2974 0.6042
C98_3 C 0.5798(9) 0.2777(13) 0.6275(5)
C99_3 C 0.6107(8) 0.2788(10) 0.6603(5)
H59_3 H 0.6521 0.2681 0.6618
C100_3 C 0.5169(9) 0.3119(12) 0.6869(5)
C101_3 C 0.4889(9) 0.3079(13) 0.6564(5)
H60_3 H 0.4466 0.3141 0.6552
C102_3 C 0.5789(8) 0.2956(10) 0.6887(5)
H61_3 H 0.5988 0.2963 0.7098
C103_3 C 0.9958(6) 0.2802(6) 0.9901(4)
C104_3 C 0.1443(14) 0.4586(11) 0.7724(4)
C105_3 C 0.3201(8) 0.3789(10) 0.7531(6)
C106_3 C 0.2873(10) 0.4177(12) 0.7300(6)
H63_3 H 0.3037 0.4224 0.7082
C107_3 C 0.2067(11) 0.4320(13) 0.7654(7)
C108_3 C 0.2332(11) 0.4493(12) 0.7371(6)
H64_3 H 0.2173 0.4798 0.7229
C109_3 C 0.2275(11) 0.3886(11) 0.7889(6)
H65_3 H 0.2045 0.3768 0.8080
C110_3 C 0.2850(11) 0.3641(10) 0.7819(6)
H66_3 H 0.3014 0.3359 0.7973
Ni13_3 Ni 0.61786(12) 0.23298(12) 0.52265(8)
Ni23_3 Ni 0.74711(13) 0.24750(12) 0.57333(5)
O44_3 O 0.7627(7) 0.0838(7) 0.9342(3)
O47_3 O 0.7646(8) 0.1732(6) 0.8985(3)
O41_3 O 0.8996(6) 0.4066(5) 0.7094(2)
O41_4 O 0.4066(5) 0.1004(6) 0.2906(2)
O39_4 O 0.3771(4) 0.9895(4) 0.2458(3)
C10_3 C 0.0074(8) 0.5669(9) 0.4723(5)
H4_3 H 0.0162 0.6076 0.4780
H5_2 H 0.0058 0.7635 0.3937
C13_2 C 0.0209(5) 0.7883(9) 0.3446(4)
H6_2 H 0.0627 0.7787 0.3442
C27_2 C 0.0185(7) 0.8192(7) 0.2800(3)
C28_2 C 0.0799(7) 0.8375(7) 0.2816(3)
H15_2 H 0.1003 0.8384 0.3025
C29_2 C 0.1107(4) 0.8543(6) 0.2519(4)
C30_2 C 0.0803(6) 0.8530(7) 0.2206(3)
H16_2 H 0.1009 0.8643 0.2007
C31_2 C 0.0189(6) 0.8348(7) 0.2190(3)
C46_2 C 0.0111(9) 0.8079(13) 0.1564(5)
H27_2 H 0.0534 0.8141 0.1552
O18_2 O 0.3703(6) 0.9600(7) 0.3046(4)
C49_2 C 0.3557(14) 0.9586(11) 0.2724(4)
C50_2 C 0.1799(8) 0.8789(10) 0.2531(6)
C51_2 C 0.2127(10) 0.9177(12) 0.2300(6)
H30_2 H 0.1963 0.9224 0.2082
C52_2 C 0.2933(11) 0.9320(13) 0.2654(7)
C53_2 C 0.2668(11) 0.9493(12) 0.2371(6)
H31_2 H 0.2827 0.9798 0.2229
C54_2 C 0.2725(11) 0.8886(11) 0.2889(6)
H32_2 H 0.2955 0.8768 0.3080
C55_2 C 0.2150(11) 0.8641(10) 0.2819(6)
H33_2 H 0.1986 0.8359 0.2973
O19_3 O 0.1499(5) 0.4197(5) 0.4761(3)
C56_3 C 0.1003(7) 0.4105(7) 0.4694(3)
C57_3 C 0.0412(7) 0.4496(7) 0.4706(3)
O20_3 O 0.0768(4) 0.3498(4) 0.4639(3)
C59_3 C 0.0604(9) 0.5196(8) 0.4650(5)
H35_3 H 0.0996 0.5314 0.4579
Ni15_2 Ni 0.11743(11) 0.26748(11) 0.47648(7)
Ni25_2 Ni 0.45787(18) 0.9552(2) 0.32364(8)
Ni27 Ni 0.0448(2) 0.45787(18) 0.67636(8)
O48_2 O 0.0642(8) 0.5380(7) 0.6614(3)
N1_2 N 0.7642(5) 0.0303(5) 0.5033(3)
C17_2 C 0.8180(7) 0.0033(7) 0.5134(5)
H9_2 H 0.8513 0.0243 0.5229
H12_2 H 0.7220 0.0192 0.4658
H39_4 H 0.2365 0.0058 0.6063
C69_4 C 0.2117(9) 0.0209(5) 0.6554(4)
H40_4 H 0.2213 0.0627 0.6558
C82_4 C 0.1808(7) 0.0185(7) 0.7200(3)
C83_4 C 0.1625(7) 0.0799(7) 0.7184(3)
H48_4 H 0.1616 0.1003 0.6975
C84_4 C 0.1457(6) 0.1107(4) 0.7481(4)
C85_4 C 0.1470(7) 0.0803(6) 0.7794(3)
H49_4 H 0.1357 0.1009 0.7993
C86_4 C 0.1652(7) 0.0189(6) 0.7810(3)
C101_4 C 0.1921(13) 0.0111(9) 0.8436(5)
H60_4 H 0.1859 0.0534 0.8448
O35_3 O 0.0400(7) 0.3703(6) 0.6954(4)
C104_4 C 0.0414(11) 0.3557(14) 0.7276(4)
C105_4 C 0.1211(10) 0.1799(8) 0.7469(6)
C106_4 C 0.0823(12) 0.2127(10) 0.7700(6)
H63_4 H 0.0776 0.1963 0.7918
C107_4 C 0.0680(13) 0.2933(11) 0.7346(7)
C108_4 C 0.0507(12) 0.2668(11) 0.7629(6)
H64_4 H 0.0202 0.2827 0.7771
C109_4 C 0.1114(11) 0.2725(11) 0.7111(6)
H65_4 H 0.1232 0.2955 0.6920
C110_4 C 0.1359(10) 0.2150(11) 0.7181(6)
H66_4 H 0.1641 0.1986 0.7027
Ni16_2 Ni 0.73252(11) 0.11743(11) 0.52352(7)
Ni29_2 Ni 0.54213(18) 0.0448(2) 0.32364(8)
O49_2 O 0.4620(7) 0.0642(8) 0.3386(3)
Ni2_2 Ni 0.88257(11) 0.73252(11) 0.47648(7)
Ni5_2 Ni 0.9552(2) 0.54213(18) 0.67636(8)
O1_2 O 0.7997(4) 0.7007(4) 0.46187(18)
O4_2 O 0.8426(5) 0.8161(4) 0.4887(3)
O6_2 O 0.6770(5) 0.6476(5) 0.4830(4)
O7_2 O 0.8501(5) 0.5803(5) 0.4761(3)
O8_2 O 0.9092(5) 0.7562(6) 0.4278(3)
N2_2 N 0.7033(6) 0.8027(7) 0.3908(2)
O9_2 O 0.8629(6) 0.7045(6) 0.5285(3)
O10_2 O 0.7903(7) 0.6306(7) 0.5266(4)
N3_2 N 0.4651(6) 0.7412(6) 0.5109(4)
C1_2 C 0.7928(7) 0.9114(8) 0.4863(5)
C2_2 C 0.5888(7) 0.7135(7) 0.4850(4)
C3_2 C 0.6504(7) 0.6933(7) 0.4762(4)
C4_3 C 0.8997(7) 0.5895(7) 0.4694(3)
O11_2 O 0.6791(5) 0.7445(5) 0.4575(3)
O13_2 O 0.7783(4) 0.8287(4) 0.4470(2)
C5_3 C 0.9588(7) 0.5504(7) 0.4706(3)
O14_2 O 0.9232(4) 0.6502(4) 0.4639(3)
C6_2 C 0.7909(9) 0.8423(7) 0.4726(5)
C7_2 C 0.5523(5) 0.6685(5) 0.5071(3)
H1_2 H 0.5668 0.6298 0.5135
O15_2 O 0.8258(7) 0.7705(9) 0.3982(5)
C8_2 C 0.4931(7) 0.6922(7) 0.5170(4)
H2_2 H 0.4710 0.6654 0.5310
C9_2 C 0.8160(14) 0.9376(15) 0.5073(8)
H3_2 H 0.8372 0.9136 0.5232
C11_2 C 0.9244(6) 0.7935(7) 0.3749(3)
C12_2 C 0.9868(6) 0.7792(8) 0.3743(3)
C14_2 C 0.9925(7) 0.8117(8) 0.3154(3)
C15_2 C 0.9301(8) 0.8260(8) 0.3160(3)
H7_2 H 0.9111 0.8417 0.2966
C16_2 C 0.8960(5) 0.8169(7) 0.3457(4)
H8_2 H 0.8542 0.8265 0.3461
C18_2 C 0.6368(9) 0.8761(9) 0.3455(3)
C19_2 C 0.8871(8) 0.7680(8) 0.0941(4)
C20_2 C 0.8835(9) 0.7687(8) 0.4008(5)
C21_2 C 0.7306(8) 0.9346(8) 0.4821(4)
H10_2 H 0.6942 0.9128 0.4790
C22_2 C 0.8342(12) 0.6625(11) 0.5436(4)
C23_2 C 0.6646(6) 0.8478(7) 0.4028(4)
H11_2 H 0.6617 0.8544 0.4262
C24_2 C 0.7396(10) 0.9980(11) 0.4840(6)
C25_2 C 0.6296(7) 0.8839(7) 0.3808(3)
H13_2 H 0.6020 0.9127 0.3894
C26_3 C 0.9396(9) 0.4804(8) 0.4650(5)
H14_3 H 0.9004 0.4686 0.4579
C32_2 C 0.9880(4) 0.8179(6) 0.2487(4)
H17_2 H 0.9470 0.8057 0.2477
C33_2 C 0.5583(8) 0.7582(8) 0.4703(4)
H18_2 H 0.5694 0.7747 0.4492
C34_2 C 0.7101(9) 0.7984(11) 0.3593(4)
H19_2 H 0.7393 0.7710 0.3508
C35_2 C 0.8695(7) 0.6306(8) 0.5725(3)
C36_2 C 0.9202(8) 0.6566(8) 0.5887(4)
H20_2 H 0.9389 0.6914 0.5794
C37_2 C 0.9430(7) 0.6307(8) 0.6186(4)
H21_2 H 0.9770 0.6481 0.6294
N4_2 N 0.9150(7) 0.5787(7) 0.6324(3)
C38_2 C 0.8642(9) 0.5526(7) 0.6162(5)
H22_2 H 0.8455 0.5178 0.6255
C39_2 C 0.8415(8) 0.5786(9) 0.5863(5)
H23_2 H 0.8075 0.5611 0.5755
C40_2 C 0.6742(11) 0.8345(12) 0.3357(4)
H24_2 H 0.6784 0.8271 0.3124
C41_2 C 0.5890(11) 0.9052(10) 0.3223(6)
C42_2 C 0.9779(9) 0.7944(13) 0.1254(5)
H25_2 H 0.9972 0.7974 0.1042
C43_2 C 0.9202(9) 0.7777(13) 0.1275(5)
C44_2 C 0.8893(8) 0.7788(10) 0.1603(5)
H26_2 H 0.8479 0.7681 0.1618
C45_2 C 0.9831(9) 0.8119(12) 0.1869(5)
C47_2 C 0.9211(8) 0.7956(10) 0.1887(5)
H28_2 H 0.9012 0.7963 0.2098
C48_2 C 0.5042(6) 0.7802(6) 0.4901(4)
H29_2 H 0.4947 0.8220 0.4890
O17_2 O 0.5380(7) 0.9358(8) 0.3386(3)
C58_3 C 0.9926(8) 0.4331(9) 0.4723(5)
H34_3 H 0.9838 0.3924 0.4780
Ni7_2 Ni 0.26748(11) 0.88257(11) 0.52352(7)
O21_4 O 0.2993(4) 0.7997(4) 0.53813(18)
O23_4 O 0.1839(4) 0.8426(5) 0.5113(3)
O25_4 O 0.3524(5) 0.6770(5) 0.5170(4)
O26_4 O 0.2438(6) 0.9092(5) 0.5722(3)
N6_4 N 0.1973(7) 0.7033(6) 0.6092(2)
O27_4 O 0.2955(6) 0.8629(6) 0.4715(3)
O28_4 O 0.3694(7) 0.7903(7) 0.4734(4)
N7_3 N 0.2588(6) 0.4651(6) 0.4891(4)
C60_4 C 0.0886(8) 0.7928(7) 0.5137(5)
C61_4 C 0.2865(7) 0.5888(7) 0.5150(4)
C62_4 C 0.3067(7) 0.6504(7) 0.5238(4)
O29_4 O 0.2555(5) 0.6791(5) 0.5425(3)
O31_4 O 0.1713(4) 0.7783(4) 0.5530(2)
C63_4 C 0.1577(7) 0.7909(9) 0.5274(5)
C64_4 C 0.3315(5) 0.5523(5) 0.4929(3)
H36_4 H 0.3702 0.5668 0.4865
O32_4 O 0.2295(9) 0.8258(7) 0.6018(5)
C65_4 C 0.3078(7) 0.4931(7) 0.4830(4)
H37_4 H 0.3346 0.4710 0.4690
C66_4 C 0.0624(15) 0.8160(14) 0.4927(8)
H38_4 H 0.0864 0.8372 0.4768
C67_4 C 0.2065(7) 0.9244(6) 0.6251(3)
C68_4 C 0.2208(8) 0.9868(6) 0.6257(3)
C70_4 C 0.1883(8) 0.9925(7) 0.6846(3)
C71_4 C 0.1740(8) 0.9301(8) 0.6840(3)
H41_4 H 0.1583 0.9111 0.7034
C72_4 C 0.1831(7) 0.8960(5) 0.6543(4)
H42_4 H 0.1735 0.8542 0.6539
C74_4 C 0.1239(9) 0.6368(9) 0.6545(3)
C75_4 C 0.2320(8) 0.8871(8) 0.9059(4)
C76_4 C 0.2313(8) 0.8835(9) 0.5992(5)
C77_4 C 0.0654(8) 0.7306(8) 0.5179(4)
H44_4 H 0.0872 0.6942 0.5210
C78_4 C 0.3375(11) 0.8342(12) 0.4564(4)
C79_4 C 0.1522(7) 0.6646(6) 0.5972(4)
H45_4 H 0.1456 0.6617 0.5738
C80_4 C 0.0020(11) 0.7396(10) 0.5160(6)
C81_4 C 0.1161(7) 0.6296(7) 0.6192(3)
H47_4 H 0.0873 0.6020 0.6106
C87_4 C 0.1821(6) 0.9880(4) 0.7513(4)
H50_4 H 0.1943 0.9470 0.7523
C88_4 C 0.2418(8) 0.5583(8) 0.5297(4)
H51_4 H 0.2253 0.5694 0.5508
C89_4 C 0.2016(11) 0.7101(9) 0.6407(4)
H52_4 H 0.2290 0.7393 0.6492
C90_4 C 0.3694(8) 0.8695(7) 0.4275(3)
C91_4 C 0.3434(8) 0.9202(8) 0.4113(4)
H53_4 H 0.3086 0.9389 0.4206
C92_4 C 0.3693(8) 0.9430(7) 0.3814(4)
H54_4 H 0.3519 0.9770 0.3706
N8_4 N 0.4213(7) 0.9150(7) 0.3676(3)
C93_4 C 0.4474(7) 0.8642(9) 0.3838(5)
H55_4 H 0.4822 0.8455 0.3745
C94_4 C 0.4214(9) 0.8415(8) 0.4137(5)
H56_4 H 0.4389 0.8075 0.4245
C95_4 C 0.1655(12) 0.6742(11) 0.6643(4)
H57_4 H 0.1729 0.6784 0.6876
C96_4 C 0.0948(10) 0.5890(11) 0.6777(6)
C97_4 C 0.2056(13) 0.9779(9) 0.8746(5)
H58_4 H 0.2026 0.9972 0.8958
C98_4 C 0.2223(13) 0.9202(9) 0.8725(5)
C99_4 C 0.2212(10) 0.8893(8) 0.8397(5)
H59_4 H 0.2319 0.8479 0.8382
C100_4 C 0.1881(12) 0.9831(9) 0.8131(5)
C102_4 C 0.2044(10) 0.9211(8) 0.8113(5)
H61_4 H 0.2037 0.9012 0.7902
C103_4 C 0.2198(6) 0.5042(6) 0.5099(4)
H62_4 H 0.1780 0.4947 0.5110
N9_2 N 0.9697(5) 0.7642(5) 0.4967(3)
N10_3 N 0.2358(5) 0.9697(5) 0.5033(3)
O42_2 O 0.4197(5) 0.8501(5) 0.5239(3)
N11_2 N 0.7412(6) 0.5349(6) 0.4891(4)
O45_2 O 0.3498(4) 0.9232(4) 0.5361(3)
O50_2 O 0.9358(8) 0.4620(7) 0.6614(3)
O52_2 O 0.9600(7) 0.6297(6) 0.6954(4)
C73_4 C 0.9967(7) 0.8180(7) 0.4866(5)
H43_4 H 0.9757 0.8513 0.4771
H46_4 H 0.9808 0.7220 0.5342
N5 N 0.0303(5) 0.2358(5) 0.4967(3)
C73_5 C 0.0033(7) 0.1820(7) 0.4866(5)
H43_5 H 0.0243 0.1487 0.4771
H46_5 H 0.0192 0.2780 0.5342
O1_3 O 0.2003(4) 0.2993(4) 0.46187(18)
O4_3 O 0.1574(5) 0.1839(4) 0.4887(3)
O6_3 O 0.3230(5) 0.3524(5) 0.4830(4)
O8_3 O 0.0908(5) 0.2438(6) 0.4278(3)
N2_3 N 0.2967(6) 0.1973(7) 0.3908(2)
O9_3 O 0.1371(6) 0.2955(6) 0.5285(3)
O10_3 O 0.2097(7) 0.3694(7) 0.5266(4)
N3_3 N 0.5349(6) 0.2588(6) 0.5109(4)
C1_3 C 0.2072(7) 0.0886(8) 0.4863(5)
C2_3 C 0.4112(7) 0.2865(7) 0.4850(4)
C3_3 C 0.3496(7) 0.3067(7) 0.4762(4)
O11_3 O 0.3209(5) 0.2555(5) 0.4575(3)
O13_3 O 0.2217(4) 0.1713(4) 0.4470(2)
C6_3 C 0.2091(9) 0.1577(7) 0.4726(5)
C7_3 C 0.4477(5) 0.3315(5) 0.5071(3)
H1_3 H 0.4332 0.3702 0.5135
O15_3 O 0.1742(7) 0.2295(9) 0.3982(5)
C8_3 C 0.5069(7) 0.3078(7) 0.5170(4)
H2_3 H 0.5290 0.3346 0.5310
C9_3 C 0.1840(14) 0.0624(15) 0.5073(8)
H3_3 H 0.1628 0.0864 0.5232
C11_3 C 0.0756(6) 0.2065(7) 0.3749(3)
C12_3 C 0.0132(6) 0.2208(8) 0.3743(3)
C14_3 C 0.0075(7) 0.1883(8) 0.3154(3)
C15_3 C 0.0699(8) 0.1740(8) 0.3160(3)
H7_3 H 0.0889 0.1583 0.2966
C16_3 C 0.1040(5) 0.1831(7) 0.3457(4)
H8_3 H 0.1458 0.1735 0.3461
C18_3 C 0.3632(9) 0.1239(9) 0.3455(3)
C19_3 C 0.1129(8) 0.2320(8) 0.0941(4)
C20_3 C 0.1165(9) 0.2313(8) 0.4008(5)
C21_3 C 0.2694(8) 0.0654(8) 0.4821(4)
H10_3 H 0.3058 0.0872 0.4790
C22_3 C 0.1658(12) 0.3375(11) 0.5436(4)
C23_3 C 0.3354(6) 0.1522(7) 0.4028(4)
H11_3 H 0.3383 0.1456 0.4262
C24_3 C 0.2604(10) 0.0020(11) 0.4840(6)
C25_3 C 0.3704(7) 0.1161(7) 0.3808(3)
H13_3 H 0.3980 0.0873 0.3894
C32_3 C 0.0120(4) 0.1821(6) 0.2487(4)
H17_3 H 0.0530 0.1943 0.2477
C33_3 C 0.4417(8) 0.2418(8) 0.4703(4)
H18_3 H 0.4306 0.2253 0.4492
C34_3 C 0.2899(9) 0.2016(11) 0.3593(4)
H19_3 H 0.2607 0.2290 0.3508
C35_3 C 0.1305(7) 0.3694(8) 0.5725(3)
C36_3 C 0.0798(8) 0.3434(8) 0.5887(4)
H20_3 H 0.0611 0.3086 0.5794
C37_3 C 0.0570(7) 0.3693(8) 0.6186(4)
H21_3 H 0.0230 0.3519 0.6294
N4_3 N 0.0850(7) 0.4213(7) 0.6324(3)
C38_3 C 0.1358(9) 0.4474(7) 0.6162(5)
H22_3 H 0.1545 0.4822 0.6255
C39_3 C 0.1585(8) 0.4214(9) 0.5863(5)
H23_3 H 0.1925 0.4389 0.5755
C40_3 C 0.3258(11) 0.1655(12) 0.3357(4)
H24_3 H 0.3216 0.1729 0.3124
C41_3 C 0.4110(11) 0.0948(10) 0.3223(6)
C42_3 C 0.0221(9) 0.2056(13) 0.1254(5)
H25_3 H 0.0028 0.2026 0.1042
C43_3 C 0.0798(9) 0.2223(13) 0.1275(5)
C44_3 C 0.1107(8) 0.2212(10) 0.1603(5)
H26_3 H 0.1521 0.2319 0.1618
C45_3 C 0.0169(9) 0.1881(12) 0.1869(5)
C47_3 C 0.0789(8) 0.2044(10) 0.1887(5)
H28_3 H 0.0988 0.2037 0.2098
C48_3 C 0.4958(6) 0.2198(6) 0.4901(4)
H29_3 H 0.5053 0.1780 0.4890
O21_5 O 0.7007(4) 0.2003(4) 0.53813(18)
O23_5 O 0.8161(4) 0.1574(5) 0.5113(3)
O25_5 O 0.6476(5) 0.3230(5) 0.5170(4)
O26_5 O 0.7562(6) 0.0908(5) 0.5722(3)
N6_5 N 0.8027(7) 0.2967(6) 0.6092(2)
O27_5 O 0.7045(6) 0.1371(6) 0.4715(3)
O28_5 O 0.6306(7) 0.2097(7) 0.4734(4)
C60_5 C 0.9114(8) 0.2072(7) 0.5137(5)
C61_5 C 0.7135(7) 0.4112(7) 0.5150(4)
C62_5 C 0.6933(7) 0.3496(7) 0.5238(4)
O29_5 O 0.7445(5) 0.3209(5) 0.5425(3)
O31_5 O 0.8287(4) 0.2217(4) 0.5530(2)
C63_5 C 0.8423(7) 0.2091(9) 0.5274(5)
C64_5 C 0.6685(5) 0.4477(5) 0.4929(3)
H36_5 H 0.6298 0.4332 0.4865
O32_5 O 0.7705(9) 0.1742(7) 0.6018(5)
C65_5 C 0.6922(7) 0.5069(7) 0.4830(4)
H37_5 H 0.6654 0.5290 0.4690
C66_5 C 0.9376(15) 0.1840(14) 0.4927(8)
H38_5 H 0.9136 0.1628 0.4768
C67_5 C 0.7935(7) 0.0756(6) 0.6251(3)
C68_5 C 0.7792(8) 0.0132(6) 0.6257(3)
C70_5 C 0.8117(8) 0.0075(7) 0.6846(3)
C71_5 C 0.8260(8) 0.0699(8) 0.6840(3)
H41_5 H 0.8417 0.0889 0.7034
C72_5 C 0.8169(7) 0.1040(5) 0.6543(4)
H42_5 H 0.8265 0.1458 0.6539
C74_5 C 0.8761(9) 0.3632(9) 0.6545(3)
C75_5 C 0.7680(8) 0.1129(8) 0.9059(4)
C76_5 C 0.7687(8) 0.1165(9) 0.5992(5)
C77_5 C 0.9346(8) 0.2694(8) 0.5179(4)
H44_5 H 0.9128 0.3058 0.5210
C78_5 C 0.6625(11) 0.1658(12) 0.4564(4)
C79_5 C 0.8478(7) 0.3354(6) 0.5972(4)
H45_5 H 0.8544 0.3383 0.5738
C80_5 C 0.9980(11) 0.2604(10) 0.5160(6)
C81_5 C 0.8839(7) 0.3704(7) 0.6192(3)
H47_5 H 0.9127 0.3980 0.6106
C87_5 C 0.8179(6) 0.0120(4) 0.7513(4)
H50_5 H 0.8057 0.0530 0.7523
C88_5 C 0.7582(8) 0.4417(8) 0.5297(4)
H51_5 H 0.7747 0.4306 0.5508
C89_5 C 0.7984(11) 0.2899(9) 0.6407(4)
H52_5 H 0.7710 0.2607 0.6492
C90_5 C 0.6306(8) 0.1305(7) 0.4275(3)
C91_5 C 0.6566(8) 0.0798(8) 0.4113(4)
H53_5 H 0.6914 0.0611 0.4206
C92_5 C 0.6307(8) 0.0570(7) 0.3814(4)
H54_5 H 0.6481 0.0230 0.3706
N8_5 N 0.5787(7) 0.0850(7) 0.3676(3)
C93_5 C 0.5526(7) 0.1358(9) 0.3838(5)
H55_5 H 0.5178 0.1545 0.3745
C94_5 C 0.5786(9) 0.1585(8) 0.4137(5)
H56_5 H 0.5611 0.1925 0.4245
C95_5 C 0.8345(12) 0.3258(11) 0.6643(4)
H57_5 H 0.8271 0.3216 0.6876
C96_5 C 0.9052(10) 0.4110(11) 0.6777(6)
C97_5 C 0.7944(13) 0.0221(9) 0.8746(5)
H58_5 H 0.7974 0.0028 0.8958
C98_5 C 0.7777(13) 0.0798(9) 0.8725(5)
C99_5 C 0.7788(10) 0.1107(8) 0.8397(5)
H59_5 H 0.7681 0.1521 0.8382
C100_5 C 0.8119(12) 0.0169(9) 0.8131(5)
C102_5 C 0.7956(10) 0.0789(8) 0.8113(5)
H61_5 H 0.7963 0.0988 0.7902
C103_5 C 0.7802(6) 0.4958(6) 0.5099(4)
H62_5 H 0.8220 0.5053 0.5110
O42_3 O 0.5803(5) 0.1499(5) 0.5239(3)
O45_3 O 0.6502(4) 0.0768(4) 0.5361(3)
O51 O 0.6297(6) 0.0400(7) 0.3046(4)
C17_3 C 0.1820(7) 0.9967(7) 0.5134(5)
H9_3 H 0.1487 0.9757 0.5229
H12_3 H 0.2780 0.9808 0.4658
H39_5 H 0.7635 0.9942 0.6063
C69_5 C 0.7883(9) 0.9791(5) 0.6554(4)
H40_5 H 0.7787 0.9373 0.6558
C82_5 C 0.8192(7) 0.9815(7) 0.7200(3)
C83_5 C 0.8375(7) 0.9201(7) 0.7184(3)
H48_5 H 0.8384 0.8997 0.6975
C84_5 C 0.8543(6) 0.8893(4) 0.7481(4)
C85_5 C 0.8530(7) 0.9197(6) 0.7794(3)
H49_5 H 0.8643 0.8991 0.7993
C86_5 C 0.8348(7) 0.9811(6) 0.7810(3)
C101_5 C 0.8079(13) 0.9889(9) 0.8436(5)
H60_5 H 0.8141 0.9466 0.8448
C104_5 C 0.9586(11) 0.6443(14) 0.7276(4)
C105_5 C 0.8789(10) 0.8201(8) 0.7469(6)
C106_5 C 0.9177(12) 0.7873(10) 0.7700(6)
H63_5 H 0.9224 0.8037 0.7918
C107_5 C 0.9320(13) 0.7067(11) 0.7346(7)
C108_5 C 0.9493(12) 0.7332(11) 0.7629(6)
H64_5 H 0.9798 0.7173 0.7771
C109_5 C 0.8886(11) 0.7275(11) 0.7111(6)
H65_5 H 0.8768 0.7045 0.6920
C110_5 C 0.8641(10) 0.7850(11) 0.7181(6)
H66_5 H 0.8359 0.8014 0.7027
H5_3 H 0.9942 0.2365 0.3937
C13_3 C 0.9791(5) 0.2117(9) 0.3446(4)
H6_3 H 0.9373 0.2213 0.3442
C27_3 C 0.9815(7) 0.1808(7) 0.2800(3)
C28_3 C 0.9201(7) 0.1625(7) 0.2816(3)
H15_3 H 0.8997 0.1616 0.3025
C29_3 C 0.8893(4) 0.1457(6) 0.2519(4)
C30_3 C 0.9197(6) 0.1470(7) 0.2206(3)
H16_3 H 0.8991 0.1357 0.2007
C31_3 C 0.9811(6) 0.1652(7) 0.2190(3)
C46_3 C 0.9889(9) 0.1921(13) 0.1564(5)
H27_3 H 0.9466 0.1859 0.1552
C49_3 C 0.6443(14) 0.0414(11) 0.2724(4)
C50_3 C 0.8201(8) 0.1211(10) 0.2531(6)
C51_3 C 0.7873(10) 0.0823(12) 0.2300(6)
H30_3 H 0.8037 0.0776 0.2082
C52_3 C 0.7067(11) 0.0680(13) 0.2654(7)
C53_3 C 0.7332(11) 0.0507(12) 0.2371(6)
H31_3 H 0.7173 0.0202 0.2229
C54_3 C 0.7275(11) 0.1114(11) 0.2889(6)
H32_3 H 0.7045 0.1232 0.3080
C55_3 C 0.7850(11) 0.1359(10) 0.2819(6)
H33_3 H 0.8014 0.1641 0.2973
C10_4 C 0.4331(9) 0.0074(8) 0.5277(5)
H4_4 H 0.3924 0.0162 0.5220
C56_4 C 0.5895(7) 0.1003(7) 0.5306(3)
C57_4 C 0.5504(7) 0.0412(7) 0.5294(3)
C59_4 C 0.4804(8) 0.0604(9) 0.5350(5)
H35_4 H 0.4686 0.0996 0.5421
C4_4 C 0.4105(7) 0.8997(7) 0.5306(3)
C5_4 C 0.4496(7) 0.9588(7) 0.5294(3)
C26_4 C 0.5196(8) 0.9396(9) 0.5350(5)
H14_4 H 0.5314 0.9004 0.5421
C58_4 C 0.5669(9) 0.9926(8) 0.5277(5)
H34_4 H 0.6076 0.9838 0.5220
loop_
_geom_bond_atom_site_label_1
_geom_bond_atom_site_label_2
_geom_bond_site_symmetry_1
_geom_bond_site_symmetry_2
Ni1 O1 1_555 1_555
Ni2 O1 1_555 1_555
Ni4 O1 1_555 1_555
O3 C49 1_555 1_555
O4 Ni2 1_555 1_555
O5 C41 1_555 1_555
O6 Ni1 1_555 1_555
O7 Ni1 1_555 1_555
O8 Ni2 1_555 1_555
N2 Ni4 1_555 1_555
C1 C6 1_555 1_555
C2 C3 1_555 1_555
C3 O6 1_555 1_555
C4 O7 1_555 1_555
O11 Ni4 1_555 1_555
O12 C19 1_555 1_555
O13 Ni4 1_555 1_555
C5 C4 1_555 1_555
O14 Ni2 1_555 1_555
C6 O4 1_555 1_555
O15 Ni4 1_555 1_555
C10 C5 1_555 1_555
H4 C10 1_555 1_555
O16 C19 1_555 1_555
C11 C12 1_555 1_555
C12 H5 1_555 1_555
C13 C12 1_555 1_555
H6 C13 1_555 1_555
C14 C13 1_555 1_555
C15 C14 1_555 1_555
H7 C15 1_555 1_555
C16 C11 1_555 1_555
H8 C16 1_555 1_555
C18 C25 1_555 1_555
C19 C43 1_555 1_555
C20 O8 1_555 1_555
C21 C1 1_555 1_555
H10 C21 1_555 1_555
C23 N2 1_555 1_555
H11 C23 1_555 1_555
H12 C24 1_555 1_555
C25 C23 1_555 1_555
H13 C25 1_555 1_555
C27 C14 1_555 1_555
C28 C27 1_555 1_555
H15 C28 1_555 1_555
C29 C28 1_555 1_555
C30 C29 1_555 1_555
H16 C30 1_555 1_555
C31 C30 1_555 1_555
C32 C27 1_555 1_555
H17 C32 1_555 1_555
C33 C2 1_555 1_555
H18 C33 1_555 1_555
C34 N2 1_555 1_555
H19 C34 1_555 1_555
C40 C18 1_555 1_555
H24 C40 1_555 1_555
C41 C18 1_555 1_555
C42 H25 1_555 1_555
C43 C42 1_555 1_555
C44 C43 1_555 1_555
H26 C44 1_555 1_555
C45 C31 1_555 1_555
C46 C42 1_555 1_555
H27 C46 1_555 1_555
C47 C44 1_555 1_555
H28 C47 1_555 1_555
O17 C41 1_555 1_555
O18 C49 1_555 1_555
C49 C52 1_555 1_555
C50 C29 1_555 1_555
C51 C50 1_555 1_555
H30 C51 1_555 1_555
C52 C53 1_555 1_555
C53 C51 1_555 1_555
H31 C53 1_555 1_555
C54 C52 1_555 1_555
H32 C54 1_555 1_555
C55 C50 1_555 1_555
H33 C55 1_555 1_555
C59 C10 1_555 1_555
H35 C59 1_555 1_555
Ni12 O12 1_555 1_555
Ni18 O3 1_555 1_555
Ni21 O5 1_555 1_555
Ni22 O16 1_555 1_555
Ni25 O18 1_555 1_555
Ni29 O17 1_555 1_555
N9 Ni2 1_555 1_555
N11 Ni1 1_555 1_555
O43 Ni1 1_555 1_555
O46 Ni4 1_555 1_555
C3 O11 1_555 1_555
C4 O14 1_555 1_555
O13 C6 1_555 1_555
O15 C20 1_555 1_555
C11 C20 1_555 1_555
C15 C16 1_555 1_555
C21 C24 1_555 1_555
C31 C32 1_555 1_555
C33 C48 1_555 1_555
C34 C40 1_555 1_555
C45 C46 1_555 1_555
C45 C47 1_555 1_555
C54 C55 1_555 1_555
Ni21 O36 1_555 1_555
Ni29 O36 1_555 1_555
Ni3 O2 1_555 1_555
Ni5 O2 1_555 1_555
N1 C17 1_555 1_555
H1 C7 1_555 1_555
H3 C9 1_555 1_555
C17 C9 1_555 1_555
H9 C17 1_555 1_555
C22 O9 1_555 1_555
C35 C22 1_555 1_555
C36 C35 1_555 1_555
H20 C36 1_555 1_555
C37 C36 1_555 1_555
H21 C37 1_555 1_555
N4 Ni5 1_555 1_555
C38 N4 1_555 1_555
H22 C38 1_555 1_555
C39 C35 1_555 1_555
H23 C39 1_555 1_555
Ni16 N1 1_555 1_555
O37 Ni3 1_555 1_555
O38 Ni3 1_555 1_555
O40 Ni3 1_555 1_555
O41 Ni3 1_555 1_555
O48 Ni5 1_555 1_555
O52 Ni5 1_555 1_555
O10 C22 1_555 1_555
C37 N4 1_555 1_555
C38 C39 1_555 1_555
N9 C73 1_555 1_555
H36 C64 1_555 1_555
H38 C66 1_555 1_555
C73 C66 1_555 1_555
H43 C73 1_555 1_555
C78 O27 1_555 1_555
C90 C78 1_555 1_555
C91 C90 1_555 1_555
H53 C91 1_555 1_555
C92 C91 1_555 1_555
H54 C92 1_555 1_555
N8 Ni25 1_555 1_555
C93 N8 1_555 1_555
H55 C93 1_555 1_555
C94 C90 1_555 1_555
H56 C94 1_555 1_555
O36_2 Ni25 1_555 1_555
O49 Ni25 1_555 1_555
O28 C78 1_555 1_555
C92 N8 1_555 1_555
C93 C94 1_555 1_555
N3 C8 1_555 1_555
H2 C8 1_555 1_555
Ni6 N3 1_555 1_555
Ni7 O21 1_555 1_555
Ni8 O21 1_555 1_555
O21 Ni6 1_555 1_555
O22 C104 1_555 1_555
O23 Ni7 1_555 1_555
O40 C96 1_555 1_555
O25 Ni6 1_555 1_555
O26 Ni7 1_555 1_555
N6 Ni8 1_555 1_555
C60 C63 1_555 1_555
C61 C62 1_555 1_555
C62 O25 1_555 1_555
O29 Ni8 1_555 1_555
O30 C75 1_555 1_555
O31 Ni8 1_555 1_555
C63 O23 1_555 1_555
O32 Ni8 1_555 1_555
O33 C75 1_555 1_555
C67 C68 1_555 1_555
C68 H39 1_555 1_555
C69 C68 1_555 1_555
H40 C69 1_555 1_555
C70 C69 1_555 1_555
C71 C70 1_555 1_555
H41 C71 1_555 1_555
C72 C67 1_555 1_555
H42 C72 1_555 1_555
C74 C81 1_555 1_555
C75 C98 1_555 1_555
C76 O26 1_555 1_555
C77 C60 1_555 1_555
H44 C77 1_555 1_555
C79 N6 1_555 1_555
H45 C79 1_555 1_555
H46 C80 1_555 1_555
C81 C79 1_555 1_555
H47 C81 1_555 1_555
C82 C70 1_555 1_555
C83 C82 1_555 1_555
H48 C83 1_555 1_555
C84 C83 1_555 1_555
C85 C84 1_555 1_555
H49 C85 1_555 1_555
C86 C85 1_555 1_555
C87 C82 1_555 1_555
H50 C87 1_555 1_555
C88 C61 1_555 1_555
H51 C88 1_555 1_555
C89 N6 1_555 1_555
H52 C89 1_555 1_555
C95 C74 1_555 1_555
H57 C95 1_555 1_555
C96 C74 1_555 1_555
C97 H58 1_555 1_555
C98 C97 1_555 1_555
C99 C98 1_555 1_555
H59 C99 1_555 1_555
C100 C86 1_555 1_555
C101 C97 1_555 1_555
H60 C101 1_555 1_555
C102 C99 1_555 1_555
H61 C102 1_555 1_555
O48 C96 1_555 1_555
O35 C104 1_555 1_555
C104 C107 1_555 1_555
C105 C84 1_555 1_555
C106 C105 1_555 1_555
H63 C106 1_555 1_555
C107 C108 1_555 1_555
C108 C106 1_555 1_555
H64 C108 1_555 1_555
C109 C107 1_555 1_555
H65 C109 1_555 1_555
C110 C105 1_555 1_555
H66 C110 1_555 1_555
Ni13 O30 1_555 1_555
Ni20 O22 1_555 1_555
Ni23 O33 1_555 1_555
Ni28 O35 1_555 1_555
N10 Ni7 1_555 1_555
O42 Ni6 1_555 1_555
O44 Ni6 1_555 1_555
O45 Ni7 1_555 1_555
O47 Ni8 1_555 1_555
C62 O29 1_555 1_555
O31 C63 1_555 1_555
O32 C76 1_555 1_555
C67 C76 1_555 1_555
C71 C72 1_555 1_555
C77 C80 1_555 1_555
C86 C87 1_555 1_555
C88 C103 1_555 1_555
C89 C95 1_555 1_555
C100 C101 1_555 1_555
C100 C102 1_555 1_555
C109 C110 1_555 1_555
H14 C26 1_555 1_555
O19 C56 1_555 1_555
C56 C57 1_555 1_555
C57 C58 1_555 1_555
O20 C56 1_555 1_555
C58 C26 1_555 1_555
H34 C58 1_555 1_555
Ni11 O19 1_555 1_555
Ni15 O20 1_555 1_555
O2_2 Ni20 1_555 1_555
Ni20 O37_2 1_555 1_555
Ni28 O2_2 1_555 1_555
Ni28 O50 1_555 1_555
N7 C65 1_555 1_555
H37 C65 1_555 1_555
Ni11 N7 1_555 1_555
Ni21 O37_3 1_555 1_555
H14_2 C26_2 1_555 1_555
O19_2 C56_2 1_555 1_555
C56_2 C57_2 1_555 1_555
C57_2 C58_2 1_555 1_555
O20_2 C56_2 1_555 1_555
C58_2 C26_2 1_555 1_555
H34_2 C58_2 1_555 1_555
Ni11_2 O19_2 1_555 1_555
Ni16 O20_2 1_555 1_555
Ni18 O36_2 1_555 1_555
O37_4 Ni18 1_555 1_555
O40_2 Ni18 1_555 1_555
O41_2 Ni18 1_555 1_555
C4_2 O42 1_555 1_555
C5_2 C4_2 1_555 1_555
C10_2 C5_2 1_555 1_555
H4_2 C10_2 1_555 1_555
C59_2 C10_2 1_555 1_555
H35_2 C59_2 1_555 1_555
C4_2 O45 1_555 1_555
N7_2 C65_2 1_555 1_555
H37_2 C65_2 1_555 1_555
Ni11_2 N7_2 1_555 1_555
Ni15 O21_2 1_555 1_555
Ni8_2 O21_2 1_555 1_555
O21_2 Ni11 1_555 1_555
O22_2 C104_2 1_555 1_555
O23_2 Ni15 1_555 1_555
O40_2 C96_2 1_555 1_555
O25_2 Ni11 1_555 1_555
O26_2 Ni15 1_555 1_555
N6_2 Ni8_2 1_555 1_555
C60_2 C63_2 1_555 1_555
C61_2 C62_2 1_555 1_555
C62_2 O25_2 1_555 1_555
O29_2 Ni8_2 1_555 1_555
O30_2 C75_2 1_555 1_555
O31_2 Ni8_2 1_555 1_555
C63_2 O23_2 1_555 1_555
O32_2 Ni8_2 1_555 1_555
O33_2 C75_2 1_555 1_555
C67_2 C68_2 1_555 1_555
C68_2 H39_2 1_555 1_555
C69_2 C68_2 1_555 1_555
H40_2 C69_2 1_555 1_555
C70_2 C69_2 1_555 1_555
C71_2 C70_2 1_555 1_555
H41_2 C71_2 1_555 1_555
C72_2 C67_2 1_555 1_555
H42_2 C72_2 1_555 1_555
C74_2 C81_2 1_555 1_555
C75_2 C98_2 1_555 1_555
C76_2 O26_2 1_555 1_555
C77_2 C60_2 1_555 1_555
H44_2 C77_2 1_555 1_555
C79_2 N6_2 1_555 1_555
H45_2 C79_2 1_555 1_555
H46_2 C80_2 1_555 1_555
C81_2 C79_2 1_555 1_555
H47_2 C81_2 1_555 1_555
C82_2 C70_2 1_555 1_555
C83_2 C82_2 1_555 1_555
H48_2 C83_2 1_555 1_555
C84_2 C83_2 1_555 1_555
C85_2 C84_2 1_555 1_555
H49_2 C85_2 1_555 1_555
C86_2 C85_2 1_555 1_555
C87_2 C82_2 1_555 1_555
H50_2 C87_2 1_555 1_555
C88_2 C61_2 1_555 1_555
H51_2 C88_2 1_555 1_555
C89_2 N6_2 1_555 1_555
H52_2 C89_2 1_555 1_555
C95_2 C74_2 1_555 1_555
H57_2 C95_2 1_555 1_555
C96_2 C74_2 1_555 1_555
C97_2 H58_2 1_555 1_555
C98_2 C97_2 1_555 1_555
C99_2 C98_2 1_555 1_555
H59_2 C99_2 1_555 1_555
C100_2 C86_2 1_555 1_555
C101_2 C97_2 1_555 1_555
H60_2 C101_2 1_555 1_555
C102_2 C99_2 1_555 1_555
H61_2 C102_2 1_555 1_555
O49 C96_2 1_555 1_555
O35_2 C104_2 1_555 1_555
C104_2 C107_2 1_555 1_555
C105_2 C84_2 1_555 1_555
C106_2 C105_2 1_555 1_555
H63_2 C106_2 1_555 1_555
C107_2 C108_2 1_555 1_555
C108_2 C106_2 1_555 1_555
H64_2 C108_2 1_555 1_555
C109_2 C107_2 1_555 1_555
H65_2 C109_2 1_555 1_555
C110_2 C105_2 1_555 1_555
H66_2 C110_2 1_555 1_555
Ni13_2 O30_2 1_555 1_555
Ni21 O22_2 1_555 1_555
Ni23_2 O33_2 1_555 1_555
Ni29 O35_2 1_555 1_555
N10_2 Ni15 1_555 1_555
O44_2 Ni11 1_555 1_555
O47_2 Ni8_2 1_555 1_555
C62_2 O29_2 1_555 1_555
O31_2 C63_2 1_555 1_555
O32_2 C76_2 1_555 1_555
C67_2 C76_2 1_555 1_555
C71_2 C72_2 1_555 1_555
C77_2 C80_2 1_555 1_555
C86_2 C87_2 1_555 1_555
C88_2 C103_2 1_555 1_555
C89_2 C95_2 1_555 1_555
C100_2 C101_2 1_555 1_555
C100_2 C102_2 1_555 1_555
C109_2 C110_2 1_555 1_555
N10 C73_2 1_555 1_555
H36_2 C64_2 1_555 1_555
H38_2 C66_2 1_555 1_555
C73_2 C66_2 1_555 1_555
H43_2 C73_2 1_555 1_555
C78_2 O27_2 1_555 1_555
C90_2 C78_2 1_555 1_555
C91_2 C90_2 1_555 1_555
H53_2 C91_2 1_555 1_555
C92_2 C91_2 1_555 1_555
H54_2 C92_2 1_555 1_555
N8_2 Ni28 1_555 1_555
C93_2 N8_2 1_555 1_555
H55_2 C93_2 1_555 1_555
C94_2 C90_2 1_555 1_555
H56_2 C94_2 1_555 1_555
O28_2 C78_2 1_555 1_555
C92_2 N8_2 1_555 1_555
C93_2 C94_2 1_555 1_555
N11 C65_3 1_555 1_555
H37_3 C65_3 1_555 1_555
N10_2 C73_3 1_555 1_555
H36_3 C64_3 1_555 1_555
H38_3 C66_3 1_555 1_555
C73_3 C66_3 1_555 1_555
H43_3 C73_3 1_555 1_555
C78_3 O27_3 1_555 1_555
C90_3 C78_3 1_555 1_555
C91_3 C90_3 1_555 1_555
H53_3 C91_3 1_555 1_555
C92_3 C91_3 1_555 1_555
H54_3 C92_3 1_555 1_555
N8_3 Ni29 1_555 1_555
C93_3 N8_3 1_555 1_555
H55_3 C93_3 1_555 1_555
C94_3 C90_3 1_555 1_555
H56_3 C94_3 1_555 1_555
O28_3 C78_3 1_555 1_555
C92_3 N8_3 1_555 1_555
C93_3 C94_3 1_555 1_555
Ni16 O21_3 1_555 1_555
Ni8_3 O21_3 1_555 1_555
O21_3 Ni11_2 1_555 1_555
O38 C104_3 1_555 1_555
O23_3 Ni16 1_555 1_555
O24 C96_3 1_555 1_555
O25_3 Ni11_2 1_555 1_555
O26_3 Ni16 1_555 1_555
N6_3 Ni8_3 1_555 1_555
C60_3 C63_3 1_555 1_555
C61_3 C62_3 1_555 1_555
C62_3 O25_3 1_555 1_555
O29_3 Ni8_3 1_555 1_555
O30_3 C75_3 1_555 1_555
O31_3 Ni8_3 1_555 1_555
C63_3 O23_3 1_555 1_555
O32_3 Ni8_3 1_555 1_555
O33_3 C75_3 1_555 1_555
C67_3 C68_3 1_555 1_555
C68_3 H39_3 1_555 1_555
C69_3 C68_3 1_555 1_555
H40_3 C69_3 1_555 1_555
C70_3 C69_3 1_555 1_555
C71_3 C70_3 1_555 1_555
H41_3 C71_3 1_555 1_555
C72_3 C67_3 1_555 1_555
H42_3 C72_3 1_555 1_555
C74_3 C81_3 1_555 1_555
C75_3 C98_3 1_555 1_555
C76_3 O26_3 1_555 1_555
C77_3 C60_3 1_555 1_555
H44_3 C77_3 1_555 1_555
C79_3 N6_3 1_555 1_555
H45_3 C79_3 1_555 1_555
H46_3 C80_3 1_555 1_555
C81_3 C79_3 1_555 1_555
H47_3 C81_3 1_555 1_555
C82_3 C70_3 1_555 1_555
C83_3 C82_3 1_555 1_555
H48_3 C83_3 1_555 1_555
C84_3 C83_3 1_555 1_555
C85_3 C84_3 1_555 1_555
H49_3 C85_3 1_555 1_555
C86_3 C85_3 1_555 1_555
C87_3 C82_3 1_555 1_555
H50_3 C87_3 1_555 1_555
C88_3 C61_3 1_555 1_555
H51_3 C88_3 1_555 1_555
C89_3 N6_3 1_555 1_555
H52_3 C89_3 1_555 1_555
C95_3 C74_3 1_555 1_555
H57_3 C95_3 1_555 1_555
C96_3 C74_3 1_555 1_555
C97_3 H58_3 1_555 1_555
C98_3 C97_3 1_555 1_555
C99_3 C98_3 1_555 1_555
H59_3 C99_3 1_555 1_555
C100_3 C86_3 1_555 1_555
C101_3 C97_3 1_555 1_555
H60_3 C101_3 1_555 1_555
C102_3 C99_3 1_555 1_555
H61_3 C102_3 1_555 1_555
O50 C96_3 1_555 1_555
O52 C104_3 1_555 1_555
C104_3 C107_3 1_555 1_555
C105_3 C84_3 1_555 1_555
C106_3 C105_3 1_555 1_555
H63_3 C106_3 1_555 1_555
C107_3 C108_3 1_555 1_555
C108_3 C106_3 1_555 1_555
H64_3 C108_3 1_555 1_555
C109_3 C107_3 1_555 1_555
H65_3 C109_3 1_555 1_555
C110_3 C105_3 1_555 1_555
H66_3 C110_3 1_555 1_555
Ni13_3 O30_3 1_555 1_555
Ni20 O24 1_555 1_555
Ni23_3 O33_3 1_555 1_555
O44_3 Ni11_2 1_555 1_555
O47_3 Ni8_3 1_555 1_555
C62_3 O29_3 1_555 1_555
O31_3 C63_3 1_555 1_555
O32_3 C76_3 1_555 1_555
C67_3 C76_3 1_555 1_555
C71_3 C72_3 1_555 1_555
C77_3 C80_3 1_555 1_555
C86_3 C87_3 1_555 1_555
C88_3 C103_3 1_555 1_555
C89_3 C95_3 1_555 1_555
C100_3 C101_3 1_555 1_555
C100_3 C102_3 1_555 1_555
C109_3 C110_3 1_555 1_555
O41_3 Ni20 1_555 1_555
O41_4 Ni21 1_555 1_555
O39_4 C49_2 1_555 1_555
H4_3 C10_3 1_555 1_555
H6_2 C13_2 1_555 1_555
C28_2 C27_2 1_555 1_555
H15_2 C28_2 1_555 1_555
C29_2 C28_2 1_555 1_555
C30_2 C29_2 1_555 1_555
H16_2 C30_2 1_555 1_555
C31_2 C30_2 1_555 1_555
H27_2 C46_2 1_555 1_555
O18_2 C49_2 1_555 1_555
C49_2 C52_2 1_555 1_555
C50_2 C29_2 1_555 1_555
C51_2 C50_2 1_555 1_555
H30_2 C51_2 1_555 1_555
C52_2 C53_2 1_555 1_555
C53_2 C51_2 1_555 1_555
H31_2 C53_2 1_555 1_555
C54_2 C52_2 1_555 1_555
H32_2 C54_2 1_555 1_555
C55_2 C50_2 1_555 1_555
H33_2 C55_2 1_555 1_555
O19_3 C56_3 1_555 1_555
C56_3 C57_3 1_555 1_555
O20_3 C56_3 1_555 1_555
C59_3 C10_3 1_555 1_555
H35_3 C59_3 1_555 1_555
Ni12 O19_3 1_555 1_555
Ni15_2 O20_3 1_555 1_555
Ni25_2 O18_2 1_555 1_555
Ni27 O37 1_555 1_555
C54_2 C55_2 1_555 1_555
C57_3 C59_3 1_555 1_555
Ni27 O48_2 1_555 1_555
N1_2 C17_2 1_555 1_555
H9_2 C17_2 1_555 1_555
O39_3 C104_4 1_555 1_555
H40_4 C69_4 1_555 1_555
C83_4 C82_4 1_555 1_555
H48_4 C83_4 1_555 1_555
C84_4 C83_4 1_555 1_555
C85_4 C84_4 1_555 1_555
H49_4 C85_4 1_555 1_555
C86_4 C85_4 1_555 1_555
H60_4 C101_4 1_555 1_555
O35_3 C104_4 1_555 1_555
C104_4 C107_4 1_555 1_555
C105_4 C84_4 1_555 1_555
C106_4 C105_4 1_555 1_555
H63_4 C106_4 1_555 1_555
C107_4 C108_4 1_555 1_555
C108_4 C106_4 1_555 1_555
H64_4 C108_4 1_555 1_555
C109_4 C107_4 1_555 1_555
H65_4 C109_4 1_555 1_555
C110_4 C105_4 1_555 1_555
H66_4 C110_4 1_555 1_555
Ni16_2 N1_2 1_555 1_555
Ni27 O35_3 1_555 1_555
C109_4 C110_4 1_555 1_555
Ni29_2 O37_3 1_555 1_555
Ni29_2 O49_2 1_555 1_555
Ni13_2 O1_2 1_555 1_555
Ni2_2 O1_2 1_555 1_555
Ni23_2 O1_2 1_555 1_555
Ni5_2 O37_2 1_555 1_555
O4_2 Ni2_2 1_555 1_555
O41_2 C41_2 1_555 1_555
O6_2 Ni13_2 1_555 1_555
O7_2 Ni13_2 1_555 1_555
O8_2 Ni2_2 1_555 1_555
N2_2 Ni23_2 1_555 1_555
O9_2 Ni2_2 1_555 1_555
O10_2 Ni13_2 1_555 1_555
N3_2 C8_2 1_555 1_555
C1_2 C6_2 1_555 1_555
C2_2 C3_2 1_555 1_555
C3_2 O6_2 1_555 1_555
C4_3 O7_2 1_555 1_555
O11_2 Ni23_2 1_555 1_555
O44_2 C19_2 1_555 1_555
O13_2 Ni23_2 1_555 1_555
C5_3 C4_3 1_555 1_555
O14_2 Ni2_2 1_555 1_555
C6_2 O4_2 1_555 1_555
C7_2 C2_2 1_555 1_555
H1_2 C7_2 1_555 1_555
O15_2 Ni23_2 1_555 1_555
C8_2 C7_2 1_555 1_555
H2_2 C8_2 1_555 1_555
C9_2 C1_2 1_555 1_555
H3_2 C9_2 1_555 1_555
O47_2 C19_2 1_555 1_555
C11_2 C12_2 1_555 1_555
C15_2 C14_2 1_555 1_555
H7_2 C15_2 1_555 1_555
C16_2 C11_2 1_555 1_555
H8_2 C16_2 1_555 1_555
C18_2 C25_2 1_555 1_555
C19_2 C43_2 1_555 1_555
C20_2 O8_2 1_555 1_555
C21_2 C1_2 1_555 1_555
H10_2 C21_2 1_555 1_555
C22_2 O9_2 1_555 1_555
C23_2 N2_2 1_555 1_555
H11_2 C23_2 1_555 1_555
C25_2 C23_2 1_555 1_555
H13_2 C25_2 1_555 1_555
C26_3 C5_3 1_555 1_555
H14_3 C26_3 1_555 1_555
H17_2 C32_2 1_555 1_555
C33_2 C2_2 1_555 1_555
H18_2 C33_2 1_555 1_555
C34_2 N2_2 1_555 1_555
H19_2 C34_2 1_555 1_555
C35_2 C22_2 1_555 1_555
C36_2 C35_2 1_555 1_555
H20_2 C36_2 1_555 1_555
C37_2 C36_2 1_555 1_555
H21_2 C37_2 1_555 1_555
N4_2 Ni5_2 1_555 1_555
C38_2 N4_2 1_555 1_555
H22_2 C38_2 1_555 1_555
C39_2 C35_2 1_555 1_555
H23_2 C39_2 1_555 1_555
C40_2 C18_2 1_555 1_555
H24_2 C40_2 1_555 1_555
C41_2 C18_2 1_555 1_555
C42_2 H25_2 1_555 1_555
C43_2 C42_2 1_555 1_555
C44_2 C43_2 1_555 1_555
H26_2 C44_2 1_555 1_555
C47_2 C44_2 1_555 1_555
H28_2 C47_2 1_555 1_555
C48_2 N3_2 1_555 1_555
H29_2 C48_2 1_555 1_555
O17_2 C41_2 1_555 1_555
C58_3 C26_3 1_555 1_555
H34_3 C58_3 1_555 1_555
Ni13 N3_2 1_555 1_555
Ni7_2 O21_4 1_555 1_555
Ni23 O21_4 1_555 1_555
Ni25_2 O17_2 1_555 1_555
O21_4 Ni13 1_555 1_555
O23_4 Ni7_2 1_555 1_555
O41 C96_4 1_555 1_555
O25_4 Ni13 1_555 1_555
O26_4 Ni7_2 1_555 1_555
N6_4 Ni23 1_555 1_555
O27_4 Ni7_2 1_555 1_555
O28_4 Ni13 1_555 1_555
N7_3 C65_4 1_555 1_555
C60_4 C63_4 1_555 1_555
C61_4 C62_4 1_555 1_555
C62_4 O25_4 1_555 1_555
O29_4 Ni23 1_555 1_555
O44 C75_4 1_555 1_555
O31_4 Ni23 1_555 1_555
C63_4 O23_4 1_555 1_555
C64_4 C61_4 1_555 1_555
H36_4 C64_4 1_555 1_555
O32_4 Ni23 1_555 1_555
C65_4 C64_4 1_555 1_555
H37_4 C65_4 1_555 1_555
C66_4 C60_4 1_555 1_555
H38_4 C66_4 1_555 1_555
O47 C75_4 1_555 1_555
C67_4 C68_4 1_555 1_555
C71_4 C70_4 1_555 1_555
H41_4 C71_4 1_555 1_555
C72_4 C67_4 1_555 1_555
H42_4 C72_4 1_555 1_555
C74_4 C81_4 1_555 1_555
C75_4 C98_4 1_555 1_555
C76_4 O26_4 1_555 1_555
C77_4 C60_4 1_555 1_555
H44_4 C77_4 1_555 1_555
C78_4 O27_4 1_555 1_555
C79_4 N6_4 1_555 1_555
H45_4 C79_4 1_555 1_555
C81_4 C79_4 1_555 1_555
H47_4 C81_4 1_555 1_555
H50_4 C87_4 1_555 1_555
C88_4 C61_4 1_555 1_555
H51_4 C88_4 1_555 1_555
C89_4 N6_4 1_555 1_555
H52_4 C89_4 1_555 1_555
C90_4 C78_4 1_555 1_555
C91_4 C90_4 1_555 1_555
H53_4 C91_4 1_555 1_555
C92_4 C91_4 1_555 1_555
H54_4 C92_4 1_555 1_555
N8_4 Ni25_2 1_555 1_555
C93_4 N8_4 1_555 1_555
H55_4 C93_4 1_555 1_555
C94_4 C90_4 1_555 1_555
H56_4 C94_4 1_555 1_555
C95_4 C74_4 1_555 1_555
H57_4 C95_4 1_555 1_555
C96_4 C74_4 1_555 1_555
C97_4 H58_4 1_555 1_555
C98_4 C97_4 1_555 1_555
C99_4 C98_4 1_555 1_555
H59_4 C99_4 1_555 1_555
C102_4 C99_4 1_555 1_555
H61_4 C102_4 1_555 1_555
C103_4 N7_3 1_555 1_555
H62_4 C103_4 1_555 1_555
O48_2 C96_4 1_555 1_555
Ni12 N7_3 1_555 1_555
O37_4 Ni25_2 1_555 1_555
N9_2 Ni2_2 1_555 1_555
N10_3 Ni7_2 1_555 1_555
O42_2 Ni13 1_555 1_555
N11_2 Ni13_2 1_555 1_555
O45_2 Ni7_2 1_555 1_555
O50_2 Ni5_2 1_555 1_555
O52_2 Ni5_2 1_555 1_555
O10_2 C22_2 1_555 1_555
C3_2 O11_2 1_555 1_555
C4_3 O14_2 1_555 1_555
O13_2 C6_2 1_555 1_555
O15_2 C20_2 1_555 1_555
C11_2 C20_2 1_555 1_555
C15_2 C16_2 1_555 1_555
C21_2 C24_2 1_555 1_555
C33_2 C48_2 1_555 1_555
C34_2 C40_2 1_555 1_555
C37_2 N4_2 1_555 1_555
C38_2 C39_2 1_555 1_555
C45_2 C47_2 1_555 1_555
O28_4 C78_4 1_555 1_555
C62_4 O29_4 1_555 1_555
O31_4 C63_4 1_555 1_555
O32_4 C76_4 1_555 1_555
C67_4 C76_4 1_555 1_555
C71_4 C72_4 1_555 1_555
C77_4 C80_4 1_555 1_555
C88_4 C103_4 1_555 1_555
C89_4 C95_4 1_555 1_555
C92_4 N8_4 1_555 1_555
C93_4 C94_4 1_555 1_555
C100_4 C102_4 1_555 1_555
N9_2 C73_4 1_555 1_555
H43_4 C73_4 1_555 1_555
N5 C73_5 1_555 1_555
H43_5 C73_5 1_555 1_555
Ni15_2 N5 1_555 1_555
Ni12 O1_3 1_555 1_555
Ni15_2 O1_3 1_555 1_555
Ni22 O1_3 1_555 1_555
O4_3 Ni15_2 1_555 1_555
O41_4 C41_3 1_555 1_555
O6_3 Ni12 1_555 1_555
O8_3 Ni15_2 1_555 1_555
N2_3 Ni22 1_555 1_555
O9_3 Ni15_2 1_555 1_555
O10_3 Ni12 1_555 1_555
N3_3 C8_3 1_555 1_555
C1_3 C6_3 1_555 1_555
C2_3 C3_3 1_555 1_555
C3_3 O6_3 1_555 1_555
O11_3 Ni22 1_555 1_555
O43 C19_3 1_555 1_555
O13_3 Ni22 1_555 1_555
C6_3 O4_3 1_555 1_555
C7_3 C2_3 1_555 1_555
H1_3 C7_3 1_555 1_555
O15_3 Ni22 1_555 1_555
C8_3 C7_3 1_555 1_555
H2_3 C8_3 1_555 1_555
C9_3 C1_3 1_555 1_555
H3_3 C9_3 1_555 1_555
O46 C19_3 1_555 1_555
C11_3 C12_3 1_555 1_555
C15_3 C14_3 1_555 1_555
H7_3 C15_3 1_555 1_555
C16_3 C11_3 1_555 1_555
H8_3 C16_3 1_555 1_555
C18_3 C25_3 1_555 1_555
C19_3 C43_3 1_555 1_555
C20_3 O8_3 1_555 1_555
C21_3 C1_3 1_555 1_555
H10_3 C21_3 1_555 1_555
C22_3 O9_3 1_555 1_555
C23_3 N2_3 1_555 1_555
H11_3 C23_3 1_555 1_555
C25_3 C23_3 1_555 1_555
H13_3 C25_3 1_555 1_555
H17_3 C32_3 1_555 1_555
C33_3 C2_3 1_555 1_555
H18_3 C33_3 1_555 1_555
C34_3 N2_3 1_555 1_555
H19_3 C34_3 1_555 1_555
C35_3 C22_3 1_555 1_555
C36_3 C35_3 1_555 1_555
H20_3 C36_3 1_555 1_555
C37_3 C36_3 1_555 1_555
H21_3 C37_3 1_555 1_555
N4_3 Ni27 1_555 1_555
C38_3 N4_3 1_555 1_555
H22_3 C38_3 1_555 1_555
C39_3 C35_3 1_555 1_555
H23_3 C39_3 1_555 1_555
C40_3 C18_3 1_555 1_555
H24_3 C40_3 1_555 1_555
C41_3 C18_3 1_555 1_555
C42_3 H25_3 1_555 1_555
C43_3 C42_3 1_555 1_555
C44_3 C43_3 1_555 1_555
H26_3 C44_3 1_555 1_555
C47_3 C44_3 1_555 1_555
H28_3 C47_3 1_555 1_555
C48_3 N3_3 1_555 1_555
H29_3 C48_3 1_555 1_555
O49_2 C41_3 1_555 1_555
Ni13_3 N3_3 1_555 1_555
Ni16_2 O21_5 1_555 1_555
Ni23_3 O21_5 1_555 1_555
O21_5 Ni13_3 1_555 1_555
O23_5 Ni16_2 1_555 1_555
O41_3 C96_5 1_555 1_555
O25_5 Ni13_3 1_555 1_555
O26_5 Ni16_2 1_555 1_555
N6_5 Ni23_3 1_555 1_555
O27_5 Ni16_2 1_555 1_555
O28_5 Ni13_3 1_555 1_555
N11_2 C65_5 1_555 1_555
C60_5 C63_5 1_555 1_555
C61_5 C62_5 1_555 1_555
C62_5 O25_5 1_555 1_555
O29_5 Ni23_3 1_555 1_555
O44_3 C75_5 1_555 1_555
O31_5 Ni23_3 1_555 1_555
C63_5 O23_5 1_555 1_555
C64_5 C61_5 1_555 1_555
H36_5 C64_5 1_555 1_555
O32_5 Ni23_3 1_555 1_555
C65_5 C64_5 1_555 1_555
H37_5 C65_5 1_555 1_555
C66_5 C60_5 1_555 1_555
H38_5 C66_5 1_555 1_555
O47_3 C75_5 1_555 1_555
C67_5 C68_5 1_555 1_555
C71_5 C70_5 1_555 1_555
H41_5 C71_5 1_555 1_555
C72_5 C67_5 1_555 1_555
H42_5 C72_5 1_555 1_555
C74_5 C81_5 1_555 1_555
C75_5 C98_5 1_555 1_555
C76_5 O26_5 1_555 1_555
C77_5 C60_5 1_555 1_555
H44_5 C77_5 1_555 1_555
C78_5 O27_5 1_555 1_555
C79_5 N6_5 1_555 1_555
H45_5 C79_5 1_555 1_555
C81_5 C79_5 1_555 1_555
H47_5 C81_5 1_555 1_555
H50_5 C87_5 1_555 1_555
C88_5 C61_5 1_555 1_555
H51_5 C88_5 1_555 1_555
C89_5 N6_5 1_555 1_555
H52_5 C89_5 1_555 1_555
C90_5 C78_5 1_555 1_555
C91_5 C90_5 1_555 1_555
H53_5 C91_5 1_555 1_555
C92_5 C91_5 1_555 1_555
H54_5 C92_5 1_555 1_555
N8_5 Ni29_2 1_555 1_555
C93_5 N8_5 1_555 1_555
H55_5 C93_5 1_555 1_555
C94_5 C90_5 1_555 1_555
H56_5 C94_5 1_555 1_555
C95_5 C74_5 1_555 1_555
H57_5 C95_5 1_555 1_555
C96_5 C74_5 1_555 1_555
C97_5 H58_5 1_555 1_555
C98_5 C97_5 1_555 1_555
C99_5 C98_5 1_555 1_555
H59_5 C99_5 1_555 1_555
C102_5 C99_5 1_555 1_555
H61_5 C102_5 1_555 1_555
C103_5 N11_2 1_555 1_555
H62_5 C103_5 1_555 1_555
O50_2 C96_5 1_555 1_555
O42_3 Ni13_3 1_555 1_555
O45_3 Ni16_2 1_555 1_555
O51 Ni29_2 1_555 1_555
O10_3 C22_3 1_555 1_555
C3_3 O11_3 1_555 1_555
O13_3 C6_3 1_555 1_555
O15_3 C20_3 1_555 1_555
C11_3 C20_3 1_555 1_555
C15_3 C16_3 1_555 1_555
C21_3 C24_3 1_555 1_555
C33_3 C48_3 1_555 1_555
C34_3 C40_3 1_555 1_555
C37_3 N4_3 1_555 1_555
C38_3 C39_3 1_555 1_555
C45_3 C47_3 1_555 1_555
O28_5 C78_5 1_555 1_555
C62_5 O29_5 1_555 1_555
O31_5 C63_5 1_555 1_555
O32_5 C76_5 1_555 1_555
C67_5 C76_5 1_555 1_555
C71_5 C72_5 1_555 1_555
C77_5 C80_5 1_555 1_555
C88_5 C103_5 1_555 1_555
C89_5 C95_5 1_555 1_555
C92_5 N8_5 1_555 1_555
C93_5 C94_5 1_555 1_555
C100_5 C102_5 1_555 1_555
N10_3 C17_3 1_555 1_555
H9_3 C17_3 1_555 1_555
O39 C104_5 1_555 1_555
H40_5 C69_5 1_555 1_555
C83_5 C82_5 1_555 1_555
H48_5 C83_5 1_555 1_555
C84_5 C83_5 1_555 1_555
C85_5 C84_5 1_555 1_555
H49_5 C85_5 1_555 1_555
C86_5 C85_5 1_555 1_555
H60_5 C101_5 1_555 1_555
O52_2 C104_5 1_555 1_555
C104_5 C107_5 1_555 1_555
C105_5 C84_5 1_555 1_555
C106_5 C105_5 1_555 1_555
H63_5 C106_5 1_555 1_555
C107_5 C108_5 1_555 1_555
C108_5 C106_5 1_555 1_555
H64_5 C108_5 1_555 1_555
C109_5 C107_5 1_555 1_555
H65_5 C109_5 1_555 1_555
C110_5 C105_5 1_555 1_555
H66_5 C110_5 1_555 1_555
C109_5 C110_5 1_555 1_555
O39_2 C49_3 1_555 1_555
H6_3 C13_3 1_555 1_555
C28_3 C27_3 1_555 1_555
H15_3 C28_3 1_555 1_555
C29_3 C28_3 1_555 1_555
C30_3 C29_3 1_555 1_555
H16_3 C30_3 1_555 1_555
C31_3 C30_3 1_555 1_555
H27_3 C46_3 1_555 1_555
O51 C49_3 1_555 1_555
C49_3 C52_3 1_555 1_555
C50_3 C29_3 1_555 1_555
C51_3 C50_3 1_555 1_555
H30_3 C51_3 1_555 1_555
C52_3 C53_3 1_555 1_555
C53_3 C51_3 1_555 1_555
H31_3 C53_3 1_555 1_555
C54_3 C52_3 1_555 1_555
H32_3 C54_3 1_555 1_555
C55_3 C50_3 1_555 1_555
H33_3 C55_3 1_555 1_555
C54_3 C55_3 1_555 1_555
H4_4 C10_4 1_555 1_555
O42_3 C56_4 1_555 1_555
C56_4 C57_4 1_555 1_555
O45_3 C56_4 1_555 1_555
C59_4 C10_4 1_555 1_555
H35_4 C59_4 1_555 1_555
C57_4 C59_4 1_555 1_555
C4_4 O42_2 1_555 1_555
C5_4 C4_4 1_555 1_555
C26_4 C5_4 1_555 1_555
H14_4 C26_4 1_555 1_555
C58_4 C26_4 1_555 1_555
H34_4 C58_4 1_555 1_555
C4_4 O45_2 1_555 1_555

#END
