
###############################################################################
#
# This file contains modified crystal structure data generated from the
# MOF subset of the Cambridge Structural Database (CSD) v543 
# hosted by the Cambridge Crystallographic Data Centre (CCDC).
#
# This work is licensed under the Creative Commons
# Attribution-NonCommercial-ShareAlike 4.0 International License.
# To view a copy of this license, visit
# http://creativecommons.org/licenses/by-nc-sa/4.0/
# or send a letter to
# Creative Commons, PO Box 1866, Mountain View, CA 94042, USA.
#
# CIF created using the CSD Python API on 29 September 2022
# The structure has been converted into the P1 space group
# The structure has a 3D framework
# The original CSD entry CUSLAG is in the monoclinic crystal system
# The framework has been calculated to contain at least 10.0% void space
# The void calculation uses a probe of radius 1.32A, grid spacing 0.4
# The framework is charged, counterions have been retained in the structure
# H atom positions have been added when not included in the experimental data
# Generated hydrogen atom positions removed from atoms on special positions
#
###############################################################################

data_CUSLAG
_chemical_formula_moiety         '(C170 H124 O64 Tb12 3-)n'
_symmetry_cell_setting           triclinic
_symmetry_space_group_name_H-M   'P 1'
_symmetry_Int_Tables_number      1
_space_group_name_Hall           'P 1'
loop_
_symmetry_equiv_pos_site_id
_symmetry_equiv_pos_as_xyz
1 x,y,z
_cell_length_a                   17.290(5)
_cell_length_b                   17.430(5)
_cell_length_c                   24.110(5)
_cell_angle_alpha                90
_cell_angle_beta                 91.22(5)
_cell_angle_gamma                90
_cell_volume                     7264.26
loop_
_atom_site_label
_atom_site_type_symbol
_atom_site_fract_x
_atom_site_fract_y
_atom_site_fract_z
O17 O 0.0170(2) 0.9501(2) 0.22166(15)
Tb18 Tb 0.02215(2) 0.98189(2) 0.11620(2)
H13 H 0.378664 0.051796 0.469802
O21 O 0.4896(2) 0.25697(18) 0.52186(16)
O22 O 0.6144(2) 0.28397(19) 0.50803(19)
C50 C 0.5593(4) 0.2398(3) 0.5154(3)
C51 C 0.5360(4) 0.0266(3) 0.5152(7)
C52 C 0.6107(4) 0.0016(2) 0.5275(7)
C53 C 0.6699(4) 0.0546(3) 0.5357(6)
H30 H 0.720998 0.037435 0.544075
C54 C 0.6544(3) 0.1326(3) 0.5317(4)
H31 H 0.694823 0.168860 0.537344
C55 C 0.5796(3) 0.1577(2) 0.5195(4)
C56 C 0.5204(3) 0.1047(3) 0.5112(5)
H32 H 0.469322 0.121826 0.502859
Tb9 Tb 0.42037(2) 0.37085(2) 0.51687(2)
Tb13 Tb 0.63862(2) 0.41489(2) 0.49488(2)
Tb14 Tb 0.86138(2) 0.91489(2) 0.00512(2)
Tb1 Tb 0.57963(2) 0.62915(2) 0.48313(2)
Tb2 Tb 0.36138(2) 0.58511(2) 0.50512(2)
Tb3 Tb 0.52215(2) 0.51811(2) 0.61620(2)
O1 O 0.61103(14) 0.52930(13) 0.54261(11)
O2 O 0.58973(14) 0.51260(13) 0.43603(11)
O3 O 0.48320(15) 0.60790(14) 0.54727(11)
O4 O 0.46300(15) 0.59079(14) 0.44094(11)
O5 O 0.7918(2) 0.8948(2) 0.91929(15)
O6 O 0.9287(2) 0.9066(2) 0.16357(14)
O7 O 0.5431(2) 0.5803(2) 0.33519(15)
O8 O 0.25887(19) 0.5025(2) 0.52061(17)
O9 O 0.5104(2) 0.74303(18) 0.47814(16)
O10 O 0.7318(2) 0.8412(2) 0.98895(16)
O11 O 0.6272(2) 0.6977(2) 0.56022(15)
O12 O 0.5971(2) 0.6676(2) 0.39231(15)
O13 O 0.3856(2) 0.71603(19) 0.49197(19)
O14 O 0.3207(2) 0.6336(2) 0.59232(16)
O15 O 0.28549(19) 0.3774(2) 0.52561(16)
O16 O 0.5946(2) 0.6284(2) 0.63394(16)
C1 C 0.9572(3) 0.9129(3) 0.2121(2)
C2 C 0.7383(3) 0.8527(3) 0.9379(2)
C3 C 0.5917(4) 0.6311(3) 0.3469(2)
C4 C 0.6208(3) 0.6875(3) 0.6107(2)
C5 C 0.9158(3) 0.8752(3) 0.2593(2)
C6 C 0.4407(4) 0.7602(3) 0.4846(3)
C7 C 0.2400(3) 0.4336(3) 0.5221(2)
C8 C 0.7056(4) 0.7060(4) 0.3149(3)
H1 H 0.706263 0.732089 0.349488
C9 C 0.8590(4) 0.8207(4) 0.2467(2)
H2 H 0.844164 0.810984 0.209147
C10 C 0.9352(4) 0.8925(5) 0.3131(3)
H3 H 0.974057 0.929565 0.321334
C11 C 0.8238(4) 0.7802(5) 0.2898(3)
C12 C 0.7622(6) 0.7222(5) 0.2763(3)
C13 C 0.6477(5) 0.6516(5) 0.3033(3)
C14 C 0.8975(6) 0.8553(7) 0.3552(3)
H4 H 0.908777 0.868742 0.392677
C15 C 0.8437(6) 0.7988(6) 0.3435(3)
H5 H 0.820087 0.772295 0.373180
C16 C 0.6439(5) 0.7524(4) 0.6492(3)
C17 C 0.6327(5) 0.7442(5) 0.7060(3)
H6 H 0.612406 0.697725 0.720158
C18 C 0.6745(9) 0.8188(5) 0.6277(4)
H7 H 0.682764 0.823214 0.588980
C19 C 0.7580(9) 0.6836(8) 0.2248(5)
H8 H 0.796385 0.692702 0.198010
C20 C 0.6515(6) 0.8045(6) 0.7422(4)
C21 C 0.6437(5) 0.7895(5) 0.80427(16)
C22 C 0.5910(6) 0.7358(6) 0.8234(2)
H9 H 0.558914 0.708520 0.797732
C23 C 0.5854(6) 0.7222(7) 0.8799(3)
H10 H 0.549395 0.685562 0.892968
C24 C 0.6324(5) 0.7622(6) 0.91742(18)
H11 H 0.628544 0.752861 0.956082
C25 C 0.6851(4) 0.8158(4) 0.89834(18)
C26 C 0.6907(3) 0.8294(3) 0.84177(19)
H12 H 0.726733 0.866077 0.828724
C27 C 0.4640(4) 0.9734(3) 0.4848(7)
C28 C 0.3893(4) 0.9984(2) 0.4725(7)
C29 C 0.3301(4) 0.9454(3) 0.4643(6)
H14 H 0.279002 0.962565 0.455925
C30 C 0.3456(3) 0.8674(3) 0.4683(4)
H15 H 0.305177 0.831140 0.462656
C31 C 0.4204(3) 0.8423(2) 0.4805(4)
C32 C 0.4796(3) 0.8953(3) 0.4888(5)
H16 H 0.530678 0.878174 0.497141
C33 C 0.6445(8) 0.6153(7) 0.2516(4)
H17 H 0.605049 0.578770 0.243443
C34 C 0.6983(10) 0.6327(9) 0.2131(5)
H18 H 0.694891 0.609385 0.177473
C35 C 0.6837(10) 0.8700(6) 0.7210(4)
H19 H 0.700029 0.909626 0.745572
C36 C 0.6931(12) 0.8795(7) 0.6635(5)
H20 H 0.711827 0.926581 0.649159
C37 C -0.0000(3) 0.3891(3) 0.5004(8)
C38 C 0.0510(3) 0.3286(2) 0.5096(7)
H22 H 0.032430 0.277289 0.509145
C39 C 0.1291(3) 0.3431(2) 0.5193(6)
H23 H 0.164004 0.301714 0.525603
C40 C 0.1563(2) 0.4182(3) 0.5199(4)
C41 C 0.1053(2) 0.4787(2) 0.5107(5)
H24 H 0.123872 0.530011 0.511158
C42 C 0.0272(2) 0.4642(3) 0.5010(7)
O18 O 0.6307(2) 0.4595(2) 0.66057(15)
C44 C -0.0000(3) 0.6109(3) 0.4996(8)
H25 H 0.053425 0.620775 0.506306
H29 H 0.621336 0.948204 0.530198
Tb17 Tb 0.47785(2) 0.48189(2) 0.38380(2)
O38 O 0.38897(14) 0.47070(13) 0.45739(11)
O40 O 0.41027(14) 0.48740(13) 0.56397(11)
O42 O 0.53700(15) 0.40921(14) 0.55906(11)
O44 O 0.2918(2) 0.6052(2) 0.41929(15)
O46 O 0.4287(2) 0.5934(2) 0.66357(14)
O48 O 0.4569(2) 0.4197(2) 0.66481(15)
O51 O 0.2318(2) 0.6588(2) 0.48895(16)
O54 O 0.71451(19) 0.6226(2) 0.47439(16)
O56 O 0.5170(2) 0.5499(2) 0.72166(15)
C37_2 C 1.0000(3) 0.3891(3) 0.5004(8)
H21 H 0.946575 0.379225 0.493694
O19 O 0.74113(19) 0.4975(2) 0.47939(17)
C43 C 0.7600(3) 0.5664(3) 0.4779(2)
C44_2 C 1.0000(3) 0.6109(3) 0.4996(8)
C45 C 0.9490(3) 0.6714(2) 0.4904(7)
H26 H 0.967570 0.722711 0.490855
C46 C 0.8709(3) 0.6569(2) 0.4807(6)
H27 H 0.835996 0.698286 0.474397
C47 C 0.8437(2) 0.5818(3) 0.4801(4)
C48 C 0.8947(2) 0.5213(2) 0.4893(5)
H28 H 0.876128 0.469989 0.488842
C49 C 0.9728(2) 0.5358(3) 0.4990(7)
O25 O 0.51680(15) 0.39210(14) 0.45273(11)
O27 O 0.2082(2) 0.1052(2) 0.08071(15)
O28 O 0.0713(2) 0.0934(2) 0.83643(14)
O30 O 0.2682(2) 0.1588(2) 0.01105(16)
O31 O 0.3728(2) 0.3023(2) 0.43978(15)
O32 O 0.4029(2) 0.3324(2) 0.60769(15)
O33 O 0.6793(2) 0.3664(2) 0.40768(16)
O34 O 0.4054(2) 0.3716(2) 0.36606(16)
C57 C 0.0428(3) 0.0871(3) 0.7879(2)
C58 C 0.2617(3) 0.1473(3) 0.0621(2)
C59 C 0.4083(4) 0.3689(3) 0.6531(2)
C60 C 0.3792(3) 0.3125(3) 0.3893(2)
C61 C 0.0842(3) 0.1248(3) 0.7407(2)
C62 C 0.2944(4) 0.2940(4) 0.6851(3)
H33 H 0.293737 0.267911 0.650512
C63 C 0.1410(4) 0.1793(4) 0.7533(2)
H34 H 0.155836 0.189016 0.790853
C64 C 0.0648(4) 0.1075(5) 0.6869(3)
H35 H 0.025943 0.070435 0.678666
C65 C 0.1762(4) 0.2198(5) 0.7102(3)
C66 C 0.2378(6) 0.2778(5) 0.7237(3)
C67 C 0.3523(5) 0.3484(5) 0.6967(3)
C68 C 0.1025(6) 0.1447(7) 0.6448(3)
H36 H 0.091223 0.131258 0.607323
C69 C 0.1563(6) 0.2012(6) 0.6565(3)
H37 H 0.179913 0.227705 0.626820
C70 C 0.3561(5) 0.2476(4) 0.3508(3)
C71 C 0.3673(5) 0.2558(5) 0.2940(3)
H38 H 0.387594 0.302275 0.279842
C72 C 0.3255(9) 0.1812(5) 0.3723(4)
H39 H 0.317236 0.176786 0.411020
C73 C 0.2420(9) 0.3164(8) 0.7752(5)
H40 H 0.203615 0.307298 0.801990
C74 C 0.3485(6) 0.1955(6) 0.2578(4)
C75 C 0.3563(5) 0.2105(5) 0.19573(16)
C76 C 0.4090(6) 0.2642(6) 0.1766(2)
H41 H 0.441086 0.291480 0.202268
C77 C 0.4146(6) 0.2778(7) 0.1201(3)
H42 H 0.450605 0.314438 0.107032
C78 C 0.3676(5) 0.2378(6) 0.08258(18)
H43 H 0.371456 0.247139 0.043918
C79 C 0.3149(4) 0.1842(4) 0.10166(18)
C80 C 0.3093(3) 0.1706(3) 0.15823(19)
H44 H 0.273267 0.133923 0.171276
C81 C 0.3555(8) 0.3847(7) 0.7484(4)
H45 H 0.394951 0.421230 0.756557
C82 C 0.3017(10) 0.3673(9) 0.7869(5)
H46 H 0.305109 0.390615 0.822527
C83 C 0.3163(10) 0.1300(6) 0.2790(4)
H47 H 0.299971 0.090374 0.254428
C84 C 0.3069(12) 0.1205(7) 0.3365(5)
H48 H 0.288173 0.073419 0.350841
O36 O 0.3693(2) 0.5405(2) 0.33943(15)
O43 O 0.7082(2) 0.3948(2) 0.58071(15)
O45 O 0.5713(2) 0.4066(2) 0.33643(14)
O50 O 0.7682(2) 0.3412(2) 0.51105(16)
O55 O 0.4830(2) 0.4501(2) 0.27834(15)
Tb11 Tb 0.13862(2) 0.08511(2) 0.99488(2)
O35 O 0.9830(2) 0.0499(2) 0.77834(15)
Tb16 Tb 0.97785(2) 0.01811(2) 0.88380(2)
O36_2 O 0.1307(2) 0.0405(2) 0.16057(15)
O41 O 0.03700(15) 0.09079(14) 0.05906(11)
O23 O 0.11103(14) 0.97070(13) 0.04261(11)
O31_2 O 0.1272(2) 0.8023(2) 0.06022(15)
O34_2 O 0.0946(2) 0.8716(2) 0.13394(16)
C58_2 C 0.2383(3) 0.6473(3) 0.4379(2)
C60_2 C 0.1208(3) 0.8125(3) 0.1107(2)
C70_2 C 0.1439(5) 0.7476(4) 0.1492(3)
C71_2 C 0.1327(5) 0.7558(5) 0.2060(3)
H38_2 H 0.112406 0.802275 0.220158
C72_2 C 0.1745(9) 0.6812(5) 0.1277(4)
H39_2 H 0.182764 0.676786 0.088980
C74_2 C 0.1515(6) 0.6955(6) 0.2422(4)
C75_2 C 0.1437(5) 0.7105(5) 0.30427(16)
C76_2 C 0.0910(6) 0.7642(6) 0.3234(2)
H41_2 H 0.058914 0.791480 0.297732
C77_2 C 0.0854(6) 0.7778(7) 0.3799(3)
H42_2 H 0.049395 0.814438 0.392968
C78_2 C 0.1324(5) 0.7378(6) 0.41742(18)
H43_2 H 0.128544 0.747139 0.456082
C79_2 C 0.1851(4) 0.6842(4) 0.39834(18)
C80_2 C 0.1907(3) 0.6706(3) 0.34177(19)
H44_2 H 0.226733 0.633923 0.328724
C83_2 C 0.1837(10) 0.6300(6) 0.2210(4)
H47_2 H 0.200029 0.590374 0.245572
C84_2 C 0.1931(12) 0.6205(7) 0.1635(5)
H48_2 H 0.211827 0.573419 0.149159
Tb4 Tb 0.07963(2) 0.87085(2) 0.98313(2)
O24 O 0.08973(14) 0.98740(13) 0.93603(11)
O29 O 0.0431(2) 0.9197(2) 0.83519(15)
O32_2 O 0.0971(2) 0.8324(2) 0.89231(15)
C57_2 C 0.4572(3) 0.5871(3) 0.7121(2)
C59_2 C 0.0917(4) 0.8689(3) 0.8469(2)
C61_2 C 0.4158(3) 0.6248(3) 0.7593(2)
C62_2 C 0.2056(4) 0.7940(4) 0.8149(3)
H33_2 H 0.206263 0.767911 0.849488
C63_2 C 0.3590(4) 0.6793(4) 0.7467(2)
H34_2 H 0.344164 0.689016 0.709147
C64_2 C 0.4352(4) 0.6075(5) 0.8131(3)
H35_2 H 0.474057 0.570435 0.821334
C65_2 C 0.3238(4) 0.7198(5) 0.7898(3)
C66_2 C 0.2622(6) 0.7778(5) 0.7763(3)
C67_2 C 0.1477(5) 0.8484(5) 0.8033(3)
C68_2 C 0.3975(6) 0.6447(7) 0.8552(3)
H36_2 H 0.408777 0.631258 0.892677
C69_2 C 0.3437(6) 0.7012(6) 0.8435(3)
H37_2 H 0.320087 0.727705 0.873180
C73_2 C 0.2580(9) 0.8164(8) 0.7248(5)
H40_2 H 0.296385 0.807298 0.698010
C81_2 C 0.1445(8) 0.8847(7) 0.7516(4)
H45_2 H 0.105049 0.921230 0.743443
C82_2 C 0.1983(10) 0.8673(9) 0.7131(5)
H46_2 H 0.194891 0.890615 0.677473
O49 O 0.0104(2) 0.75697(18) 0.97814(16)
O53 O 0.21451(19) 0.8774(2) 0.97439(16)
O13_2 O 0.1144(2) 0.21603(19) 0.00803(19)
C6_2 C 0.0593(4) 0.2602(3) 0.0154(3)
C27_2 C 0.0360(4) 0.4734(3) 0.0152(7)
C28_2 C 0.1107(4) 0.4984(2) 0.0275(7)
H13_2 H 0.121336 0.551796 0.030198
C29_2 C 0.1699(4) 0.4454(3) 0.0357(6)
H14_2 H 0.220998 0.462565 0.044075
C30_2 C 0.1544(3) 0.3674(3) 0.0317(4)
H15_2 H 0.194823 0.331140 0.037344
C31_2 C 0.0796(3) 0.3423(2) 0.0195(4)
C32_2 C 0.0204(3) 0.3953(3) 0.0112(5)
O20 O 0.78549(19) 0.1226(2) 0.02561(16)
C43_2 C 0.7400(3) 0.0664(3) 0.0221(2)
C44_3 C 0.5000(3) 0.1109(3) 0.0004(8)
C45_2 C 0.5510(3) 0.1714(2) 0.0096(7)
H26_2 H 0.532430 0.222711 0.009145
C46_2 C 0.6291(3) 0.1569(2) 0.0193(6)
H27_2 H 0.664004 0.198286 0.025603
C47_2 C 0.6563(2) 0.0818(3) 0.0199(4)
C48_2 C 0.6053(2) 0.0213(2) 0.0107(5)
C49_2 C 0.5272(2) 0.0358(3) 0.0010(7)
Tb7 Tb 0.92037(2) 0.12915(2) 0.01687(2)
O39 O 0.91027(14) 0.01260(13) 0.06397(11)
O47 O 0.9569(2) 0.0803(2) 0.16481(15)
O3_2 O 0.01680(15) 0.10790(14) 0.95273(11)
O8_2 O 0.24113(19) 0.0025(2) 0.97939(17)
O14_2 O 0.1793(2) 0.1336(2) 0.90768(16)
H24_2 H 0.376128 0.030011 0.988842
H25_2 H 0.446575 0.120775 0.993694
H32_2 H 0.030678 0.621826 0.997141
O37 O 0.88897(14) 0.02930(13) 0.95739(11)
H21_2 H 0.553425 0.879225 0.006306
O19_2 O 0.75887(19) 0.9975(2) 0.02061(17)
H28_2 H 0.623872 0.969989 0.011158
O25_2 O 0.98320(15) 0.89210(14) 0.04727(11)
O33_2 O 0.8207(2) 0.8664(2) 0.09232(16)
C7_2 C 0.2600(3) 0.9336(3) 0.9779(2)
C37_3 C 0.5000(3) 0.8891(3) 0.9996(8)
C38_2 C 0.4490(3) 0.8286(2) 0.9904(7)
H22_2 H 0.467570 0.777289 0.990855
C39_2 C 0.3709(3) 0.8431(2) 0.9807(6)
H23_2 H 0.335996 0.801714 0.974397
C40_2 C 0.3437(2) 0.9182(3) 0.9801(4)
C41_2 C 0.3947(2) 0.9787(2) 0.9893(5)
C42_2 C 0.4728(2) 0.9642(3) 0.9990(7)
O26 O 0.96300(15) 0.90921(14) 0.94094(11)
O52 O 0.8856(2) 0.78397(19) 0.99197(19)
O9_2 O 0.9896(2) 0.24303(18) 0.02186(16)
O12_2 O 0.9029(2) 0.1676(2) 0.10769(15)
C1_2 C 0.5428(3) 0.4129(3) 0.2879(2)
C3_2 C 0.9083(4) 0.1311(3) 0.1531(2)
C5_2 C 0.5842(3) 0.3752(3) 0.2407(2)
C8_2 C 0.7944(4) 0.2060(4) 0.1851(3)
H1_2 H 0.793737 0.232089 0.150512
C9_2 C 0.6410(4) 0.3207(4) 0.2533(2)
H2_2 H 0.655836 0.310984 0.290853
C10_2 C 0.5648(4) 0.3925(5) 0.1869(3)
H3_2 H 0.525943 0.429565 0.178666
C11_2 C 0.6762(4) 0.2802(5) 0.2102(3)
C12_2 C 0.7378(6) 0.2222(5) 0.2237(3)
C13_2 C 0.8523(5) 0.1516(5) 0.1967(3)
C14_2 C 0.6025(6) 0.3553(7) 0.1448(3)
H4_2 H 0.591223 0.368742 0.107323
C15_2 C 0.6563(6) 0.2988(6) 0.1565(3)
H5_2 H 0.679913 0.272295 0.126820
C19_2 C 0.7420(9) 0.1836(8) 0.2752(5)
H8_2 H 0.703615 0.192702 0.301990
H16_2 H 0.969322 0.378174 0.002859
C33_2 C 0.8555(8) 0.1153(7) 0.2484(4)
H17_2 H 0.894951 0.078770 0.256557
C34_2 C 0.8017(10) 0.1327(9) 0.2869(5)
H18_2 H 0.805109 0.109385 0.322527
O11_2 O 0.8728(2) 0.1977(2) 0.93978(15)
O16_2 O 0.9054(2) 0.1284(2) 0.86606(16)
C2_2 C 0.7617(3) 0.3527(3) 0.5621(2)
C4_2 C 0.8792(3) 0.1875(3) 0.8893(2)
C16_2 C 0.8561(5) 0.2524(4) 0.8508(3)
C17_2 C 0.8673(5) 0.2442(5) 0.7940(3)
H6_2 H 0.887594 0.197725 0.779842
C18_2 C 0.8255(9) 0.3188(5) 0.8723(4)
H7_2 H 0.817236 0.323214 0.911020
C20_2 C 0.8485(6) 0.3045(6) 0.7578(4)
C21_2 C 0.8563(5) 0.2895(5) 0.69573(16)
C22_2 C 0.9090(6) 0.2358(6) 0.6766(2)
H9_2 H 0.941086 0.208520 0.702268
C23_2 C 0.9146(6) 0.2222(7) 0.6201(3)
H10_2 H 0.950605 0.185562 0.607032
C24_2 C 0.8676(5) 0.2622(6) 0.58258(18)
H11_2 H 0.871456 0.252861 0.543918
C25_2 C 0.8149(4) 0.3158(4) 0.60166(18)
C26_2 C 0.8093(3) 0.3294(3) 0.65823(19)
H12_2 H 0.773267 0.366077 0.671276
C35_2 C 0.8163(10) 0.3700(6) 0.7790(4)
H19_2 H 0.799971 0.409626 0.754428
C36_2 C 0.8069(12) 0.3795(7) 0.8365(5)
H20_2 H 0.788173 0.426581 0.850841
C50_2 C 0.9407(4) 0.7398(3) 0.9846(3)
C51_2 C 0.9640(4) 0.5266(3) 0.9848(7)
C52_2 C 0.8893(4) 0.5016(2) 0.9725(7)
H29_2 H 0.878664 0.448204 0.969802
C53_2 C 0.8301(4) 0.5546(3) 0.9643(6)
H30_2 H 0.779002 0.537435 0.955925
C54_2 C 0.8456(3) 0.6326(3) 0.9683(4)
H31_2 H 0.805177 0.668860 0.962656
C55_2 C 0.9204(3) 0.6577(2) 0.9805(4)
C56_2 C 0.9796(3) 0.6047(3) 0.9888(5)
O18_2 O 0.8693(2) 0.9595(2) 0.83943(15)
loop_
_geom_bond_atom_site_label_1
_geom_bond_atom_site_label_2
_geom_bond_site_symmetry_1
_geom_bond_site_symmetry_2
O17 Tb18 1_555 1_555
O21 C50 1_555 1_555
O22 C50 1_555 1_555
C50 C55 1_555 1_555
C52 C51 1_555 1_555
C53 C52 1_555 1_555
H30 C53 1_555 1_555
C54 C53 1_555 1_555
H31 C54 1_555 1_555
C55 C54 1_555 1_555
C56 C51 1_555 1_555
H32 C56 1_555 1_555
Tb9 O21 1_555 1_555
Tb13 O22 1_555 1_555
C55 C56 1_555 1_555
Tb1 O1 1_555 1_555
Tb2 O3 1_555 1_555
Tb3 O1 1_555 1_555
O1 Tb13 1_555 1_555
O2 Tb1 1_555 1_555
O3 Tb1 1_555 1_555
O4 Tb1 1_555 1_555
O5 C2 1_555 1_555
O6 C1 1_555 1_555
O7 C3 1_555 1_555
O8 Tb2 1_555 1_555
O9 Tb1 1_555 1_555
O10 C2 1_555 1_555
O11 Tb1 1_555 1_555
O12 Tb1 1_555 1_555
O13 Tb2 1_555 1_555
O14 Tb2 1_555 1_555
O15 C7 1_555 1_555
O16 Tb3 1_555 1_555
C1 C5 1_555 1_555
C2 C25 1_555 1_555
C3 O12 1_555 1_555
C4 O11 1_555 1_555
C5 C9 1_555 1_555
C6 O9 1_555 1_555
C7 O8 1_555 1_555
C8 H1 1_555 1_555
C9 H2 1_555 1_555
C10 C5 1_555 1_555
H3 C10 1_555 1_555
C11 C9 1_555 1_555
C12 C8 1_555 1_555
C13 C3 1_555 1_555
C14 C10 1_555 1_555
H4 C14 1_555 1_555
C15 C11 1_555 1_555
H5 C15 1_555 1_555
C16 C4 1_555 1_555
C17 C16 1_555 1_555
H6 C17 1_555 1_555
C18 C16 1_555 1_555
H7 C18 1_555 1_555
C19 C12 1_555 1_555
H8 C19 1_555 1_555
C20 C17 1_555 1_555
C21 C20 1_555 1_555
C22 C21 1_555 1_555
H9 C22 1_555 1_555
C23 C22 1_555 1_555
H10 C23 1_555 1_555
C24 C23 1_555 1_555
H11 C24 1_555 1_555
C25 C24 1_555 1_555
C26 C21 1_555 1_555
H12 C26 1_555 1_555
C27 C28 1_555 1_555
C29 C28 1_555 1_555
H14 C29 1_555 1_555
C30 C29 1_555 1_555
H15 C30 1_555 1_555
C31 C6 1_555 1_555
C32 C27 1_555 1_555
H16 C32 1_555 1_555
C33 C13 1_555 1_555
H17 C33 1_555 1_555
C34 C19 1_555 1_555
H18 C34 1_555 1_555
C35 C20 1_555 1_555
H19 C35 1_555 1_555
C36 C18 1_555 1_555
H20 C36 1_555 1_555
C38 C37 1_555 1_555
H22 C38 1_555 1_555
C39 C38 1_555 1_555
H23 C39 1_555 1_555
C40 C7 1_555 1_555
C41 C40 1_555 1_555
H24 C41 1_555 1_555
C42 C37 1_555 1_555
O18 Tb3 1_555 1_555
C44 H25 1_555 1_555
Tb9 O15 1_555 1_555
Tb13 O2 1_555 1_555
Tb17 O2 1_555 1_555
O38 Tb2 1_555 1_555
O40 Tb2 1_555 1_555
O42 Tb3 1_555 1_555
O44 Tb2 1_555 1_555
O46 Tb3 1_555 1_555
O48 Tb3 1_555 1_555
O51 Tb2 1_555 1_555
O54 Tb1 1_555 1_555
O56 Tb3 1_555 1_555
Tb2 O4 1_555 1_555
Tb3 O3 1_555 1_555
Tb3 O40 1_555 1_555
O4 Tb17 1_555 1_555
O7 Tb17 1_555 1_555
O13 C6 1_555 1_555
O16 C4 1_555 1_555
C8 C13 1_555 1_555
C11 C12 1_555 1_555
C14 C15 1_555 1_555
C25 C26 1_555 1_555
C30 C31 1_555 1_555
C31 C32 1_555 1_555
C33 C34 1_555 1_555
C35 C36 1_555 1_555
C39 C40 1_555 1_555
C41 C42 1_555 1_555
Tb9 O38 1_555 1_555
Tb9 O40 1_555 1_555
Tb9 O42 1_555 1_555
Tb13 O42 1_555 1_555
Tb17 O38 1_555 1_555
C37_2 H21 1_555 1_555
O19 C43 1_555 1_555
O54 C43 1_555 1_555
C43 C47 1_555 1_555
C45 C44_2 1_555 1_555
H26 C45 1_555 1_555
C46 C45 1_555 1_555
H27 C46 1_555 1_555
C47 C46 1_555 1_555
C48 C47 1_555 1_555
H28 C48 1_555 1_555
Tb13 O19 1_555 1_555
O25 Tb9 1_555 1_555
O27 C58 1_555 1_555
O28 C57 1_555 1_555
O48 C59 1_555 1_555
O30 C58 1_555 1_555
O31 Tb9 1_555 1_555
O32 Tb9 1_555 1_555
O33 Tb13 1_555 1_555
O34 Tb17 1_555 1_555
C57 C61 1_555 1_555
C58 C79 1_555 1_555
C59 O32 1_555 1_555
C60 O31 1_555 1_555
C61 C63 1_555 1_555
C62 H33 1_555 1_555
C63 H34 1_555 1_555
C64 C61 1_555 1_555
H35 C64 1_555 1_555
C65 C63 1_555 1_555
C66 C62 1_555 1_555
C67 C59 1_555 1_555
C68 C64 1_555 1_555
H36 C68 1_555 1_555
C69 C65 1_555 1_555
H37 C69 1_555 1_555
C70 C60 1_555 1_555
C71 C70 1_555 1_555
H38 C71 1_555 1_555
C72 C70 1_555 1_555
H39 C72 1_555 1_555
C73 C66 1_555 1_555
H40 C73 1_555 1_555
C74 C71 1_555 1_555
C75 C74 1_555 1_555
C76 C75 1_555 1_555
H41 C76 1_555 1_555
C77 C76 1_555 1_555
H42 C77 1_555 1_555
C78 C77 1_555 1_555
H43 C78 1_555 1_555
C79 C78 1_555 1_555
C80 C75 1_555 1_555
H44 C80 1_555 1_555
C81 C67 1_555 1_555
H45 C81 1_555 1_555
C82 C73 1_555 1_555
H46 C82 1_555 1_555
C83 C74 1_555 1_555
H47 C83 1_555 1_555
C84 C72 1_555 1_555
H48 C84 1_555 1_555
O36 Tb17 1_555 1_555
O43 Tb13 1_555 1_555
O45 Tb17 1_555 1_555
O50 Tb13 1_555 1_555
O55 Tb17 1_555 1_555
C44_2 C49 1_555 1_555
C48 C49 1_555 1_555
Tb13 O25 1_555 1_555
Tb17 O25 1_555 1_555
O34 C60 1_555 1_555
C62 C67 1_555 1_555
C65 C66 1_555 1_555
C68 C69 1_555 1_555
C79 C80 1_555 1_555
C81 C82 1_555 1_555
C83 C84 1_555 1_555
O35 Tb16 1_555 1_555
Tb18 O23 1_555 1_555
O44 C58_2 1_555 1_555
O51 C58_2 1_555 1_555
O34_2 Tb18 1_555 1_555
C58_2 C79_2 1_555 1_555
C60_2 O31_2 1_555 1_555
C70_2 C60_2 1_555 1_555
C71_2 C70_2 1_555 1_555
H38_2 C71_2 1_555 1_555
C72_2 C70_2 1_555 1_555
H39_2 C72_2 1_555 1_555
C74_2 C71_2 1_555 1_555
C75_2 C74_2 1_555 1_555
C76_2 C75_2 1_555 1_555
H41_2 C76_2 1_555 1_555
C77_2 C76_2 1_555 1_555
H42_2 C77_2 1_555 1_555
C78_2 C77_2 1_555 1_555
H43_2 C78_2 1_555 1_555
C79_2 C78_2 1_555 1_555
C80_2 C75_2 1_555 1_555
H44_2 C80_2 1_555 1_555
C83_2 C74_2 1_555 1_555
H47_2 C83_2 1_555 1_555
C84_2 C72_2 1_555 1_555
H48_2 C84_2 1_555 1_555
O34_2 C60_2 1_555 1_555
C79_2 C80_2 1_555 1_555
C83_2 C84_2 1_555 1_555
O24 Tb4 1_555 1_555
O46 C57_2 1_555 1_555
O29 C59_2 1_555 1_555
O32_2 Tb4 1_555 1_555
O56 C57_2 1_555 1_555
C57_2 C61_2 1_555 1_555
C59_2 O32_2 1_555 1_555
C61_2 C63_2 1_555 1_555
C62_2 H33_2 1_555 1_555
C63_2 H34_2 1_555 1_555
C64_2 C61_2 1_555 1_555
H35_2 C64_2 1_555 1_555
C65_2 C63_2 1_555 1_555
C66_2 C62_2 1_555 1_555
C67_2 C59_2 1_555 1_555
C68_2 C64_2 1_555 1_555
H36_2 C68_2 1_555 1_555
C69_2 C65_2 1_555 1_555
H37_2 C69_2 1_555 1_555
C73_2 C66_2 1_555 1_555
H40_2 C73_2 1_555 1_555
C81_2 C67_2 1_555 1_555
H45_2 C81_2 1_555 1_555
C82_2 C73_2 1_555 1_555
H46_2 C82_2 1_555 1_555
O49 Tb4 1_555 1_555
O53 Tb4 1_555 1_555
C62_2 C67_2 1_555 1_555
C65_2 C66_2 1_555 1_555
C68_2 C69_2 1_555 1_555
C81_2 C82_2 1_555 1_555
C27_2 C28_2 1_555 1_555
C28_2 H13_2 1_555 1_555
C29_2 C28_2 1_555 1_555
H14_2 C29_2 1_555 1_555
C30_2 C29_2 1_555 1_555
H15_2 C30_2 1_555 1_555
C31_2 C6_2 1_555 1_555
C32_2 C27_2 1_555 1_555
O20 C43_2 1_555 1_555
C43_2 C47_2 1_555 1_555
C45_2 C44_3 1_555 1_555
H26_2 C45_2 1_555 1_555
C46_2 C45_2 1_555 1_555
H27_2 C46_2 1_555 1_555
C47_2 C46_2 1_555 1_555
C48_2 C47_2 1_555 1_555
Tb7 O20 1_555 1_555
O13_2 C6_2 1_555 1_555
C30_2 C31_2 1_555 1_555
C31_2 C32_2 1_555 1_555
C44_3 C49_2 1_555 1_555
C48_2 C49_2 1_555 1_555
Tb7 O39 1_555 1_555
Tb11 O3_2 1_555 1_555
O8_2 Tb11 1_555 1_555
O14_2 Tb11 1_555 1_555
Tb16 O37 1_555 1_555
Tb14 O19_2 1_555 1_555
O33_2 Tb14 1_555 1_555
Tb14 O25_2 1_555 1_555
O53 C7_2 1_555 1_555
C38_2 C37_3 1_555 1_555
H22_2 C38_2 1_555 1_555
C39_2 C38_2 1_555 1_555
H23_2 C39_2 1_555 1_555
C40_2 C7_2 1_555 1_555
C41_2 C40_2 1_555 1_555
C42_2 C37_3 1_555 1_555
C39_2 C40_2 1_555 1_555
C41_2 C42_2 1_555 1_555
O45 C1_2 1_555 1_555
O47 C3_2 1_555 1_555
O9_2 Tb7 1_555 1_555
O12_2 Tb7 1_555 1_555
O55 C1_2 1_555 1_555
C1_2 C5_2 1_555 1_555
C3_2 O12_2 1_555 1_555
C5_2 C9_2 1_555 1_555
C8_2 H1_2 1_555 1_555
C9_2 H2_2 1_555 1_555
C10_2 C5_2 1_555 1_555
H3_2 C10_2 1_555 1_555
C11_2 C9_2 1_555 1_555
C12_2 C8_2 1_555 1_555
C13_2 C3_2 1_555 1_555
C14_2 C10_2 1_555 1_555
H4_2 C14_2 1_555 1_555
C15_2 C11_2 1_555 1_555
H5_2 C15_2 1_555 1_555
C19_2 C12_2 1_555 1_555
H8_2 C19_2 1_555 1_555
C33_2 C13_2 1_555 1_555
H17_2 C33_2 1_555 1_555
C34_2 C19_2 1_555 1_555
H18_2 C34_2 1_555 1_555
C8_2 C13_2 1_555 1_555
C11_2 C12_2 1_555 1_555
C14_2 C15_2 1_555 1_555
C33_2 C34_2 1_555 1_555
O43 C2_2 1_555 1_555
O50 C2_2 1_555 1_555
O16_2 Tb16 1_555 1_555
C2_2 C25_2 1_555 1_555
C4_2 O11_2 1_555 1_555
C16_2 C4_2 1_555 1_555
C17_2 C16_2 1_555 1_555
H6_2 C17_2 1_555 1_555
C18_2 C16_2 1_555 1_555
H7_2 C18_2 1_555 1_555
C20_2 C17_2 1_555 1_555
C21_2 C20_2 1_555 1_555
C22_2 C21_2 1_555 1_555
H9_2 C22_2 1_555 1_555
C23_2 C22_2 1_555 1_555
H10_2 C23_2 1_555 1_555
C24_2 C23_2 1_555 1_555
H11_2 C24_2 1_555 1_555
C25_2 C24_2 1_555 1_555
C26_2 C21_2 1_555 1_555
H12_2 C26_2 1_555 1_555
C35_2 C20_2 1_555 1_555
H19_2 C35_2 1_555 1_555
C36_2 C18_2 1_555 1_555
H20_2 C36_2 1_555 1_555
O52 C50_2 1_555 1_555
C50_2 C55_2 1_555 1_555
C52_2 C51_2 1_555 1_555
H29_2 C52_2 1_555 1_555
C53_2 C52_2 1_555 1_555
H30_2 C53_2 1_555 1_555
C54_2 C53_2 1_555 1_555
H31_2 C54_2 1_555 1_555
C55_2 C54_2 1_555 1_555
C56_2 C51_2 1_555 1_555
O16_2 C4_2 1_555 1_555
C25_2 C26_2 1_555 1_555
C35_2 C36_2 1_555 1_555
C55_2 C56_2 1_555 1_555

#END
