
###############################################################################
#
# This file contains modified crystal structure data generated from the
# MOF subset of the Cambridge Structural Database (CSD) v543 
# hosted by the Cambridge Crystallographic Data Centre (CCDC).
#
# This work is licensed under the Creative Commons
# Attribution-NonCommercial-ShareAlike 4.0 International License.
# To view a copy of this license, visit
# http://creativecommons.org/licenses/by-nc-sa/4.0/
# or send a letter to
# Creative Commons, PO Box 1866, Mountain View, CA 94042, USA.
#
# CIF created using the CSD Python API on 29 September 2022
# The structure has been converted into the P1 space group
# The structure has a 3D framework
# The original CSD entry CUSQOX is in the monoclinic crystal system
# The framework has been calculated to contain at least 10.0% void space
# The void calculation uses a probe of radius 1.32A, grid spacing 0.4
#
###############################################################################

data_CUSQOX
_chemical_formula_moiety         '(C104 H80 Cd11 Cl8 N24)n'
_symmetry_cell_setting           triclinic
_symmetry_space_group_name_H-M   'P 1'
_symmetry_Int_Tables_number      1
_space_group_name_Hall           'P 1'
loop_
_symmetry_equiv_pos_site_id
_symmetry_equiv_pos_as_xyz
1 x,y,z
_cell_length_a                   21.0433(10)
_cell_length_b                   9.0757(4)
_cell_length_c                   17.1751(8)
_cell_angle_alpha                90
_cell_angle_beta                 116.0370(10)
_cell_angle_gamma                90
_cell_volume                     2947.25
loop_
_atom_site_label
_atom_site_type_symbol
_atom_site_fract_x
_atom_site_fract_y
_atom_site_fract_z
Cd1 Cd 0.0000 0.0000 0.0000
N8 N 0.08132(17) 0.0503(4) 0.1503(2)
Cd1_2 Cd -0.0000 0.0000 1.0000
Cl2 Cl 0.06629(5) 0.18824(10) 0.95402(6)
Cd1_3 Cd 0.0000 1.0000 0.0000
C1 C 0.19484(19) 0.6010(4) 0.0675(2)
C2 C 0.25014(18) 0.3717(4) 0.0497(2)
N1 N 0.08524(17) 0.8074(3) 0.0090(3)
N2 N 0.2516(2) 0.4981(3) 0.1002(3)
C4 C 0.2993(2) 0.5988(5) 0.2469(3)
H2 H 0.2560 0.6419 0.2355
C5 C 0.3754(2) 0.4658(5) 0.2028(3)
H3 H 0.3852 0.4189 0.1611
C6 C 0.3081(2) 0.5207(4) 0.1817(3)
C7 C 0.20831(19) 0.7504(4) 0.0693(3)
H4 H 0.2546 0.7846 0.0909
C8 C 0.1527(2) 0.8482(4) 0.0391(3)
H5 H 0.1628 0.9480 0.0396
C9 C 0.27400(18) 0.2362(4) 0.0886(2)
H6 H 0.2900 0.2261 0.1481
C10 C 0.1250(2) 0.5561(4) 0.0326(3)
H7 H 0.1132 0.4566 0.0272
C11 C 0.0729(2) 0.6640(5) 0.0058(4)
N3 N 0.41868(17) 0.5503(4) 0.3497(2)
C12 C 0.4275(2) 0.4820(4) 0.2864(3)
H9 H 0.4718 0.4425 0.2996
C13 C 0.3553(2) 0.6109(5) 0.3278(3)
H10 H 0.3486 0.6646 0.3698
Cd2 Cd 0.5000 0.5000 0.5000
C16 C 0.27424(18) 0.1151(4) 0.0392(2)
H11 H 0.2909 0.0248 0.0659
Cd1_4 Cd 0.0000 1.0000 1.0000
C3 C 0.22576(18) 0.3849(4) 0.9608(2)
H1 H 0.2091 0.4752 0.9341
H8 H 0.0261 0.6334 0.9842
Cd4 Cd 0.0000 0.0000 0.5000
C15 C 0.24986(18) 0.1283(4) 0.9503(2)
N6 N 0.2484(2) 0.0019(3) 0.8998(3)
C18 C 0.1246(2) 0.0342(5) 0.7972(3)
H13 H 0.1148 0.0811 0.8389
C22 C 0.22600(18) 0.2638(4) 0.9114(2)
H16 H 0.2100 0.2739 0.8519
H17 H 0.3868 0.0434 0.9728
C25 C 0.0725(2) 0.0180(4) 0.7136(3)
H19 H 0.0282 0.0575 0.7004
Cd3 Cd 0.5000 0.5000 0.0000
H18 H 0.4739 0.8666 0.0158
Cd3_2 Cd 0.5000 0.5000 1.0000
Cd4_2 Cd 0.0000 1.0000 0.5000
C14 C 0.30516(19) 0.8990(4) 0.9325(2)
N4 N 0.41476(17) 0.6926(3) 0.9910(3)
C17 C 0.2007(2) 0.9012(5) 0.7531(3)
H12 H 0.2440 0.8581 0.7645
C19 C 0.1919(2) 0.9793(4) 0.8183(3)
C20 C 0.29169(19) 0.7496(4) 0.9307(3)
H14 H 0.2454 0.7154 0.9091
C21 C 0.3473(2) 0.6518(4) 0.9609(3)
H15 H 0.3372 0.5520 0.9604
C23 C 0.3750(2) 0.9439(4) 0.9674(3)
C24 C 0.4271(2) 0.8360(5) 0.9942(4)
N7 N 0.08132(17) 0.9497(4) 0.6503(2)
C26 C 0.1447(2) 0.8891(5) 0.6722(3)
H20 H 0.1514 0.8354 0.6302
Cd1_5 Cd 1.0000 0.0000 0.0000
Cd1_6 Cd 1.0000 0.0000 1.0000
N5 N 0.91476(17) 0.1926(3) 0.9910(3)
Cd1_7 Cd 1.0000 1.0000 0.0000
Cl1 Cl 0.93371(5) 0.81176(10) 0.04598(6)
Cd1_8 Cd 1.0000 1.0000 1.0000
Cd4_3 Cd 1.0000 0.0000 0.5000
N9 N 0.91868(17) 0.9497(4) 0.8497(2)
Cd4_4 Cd 1.0000 1.0000 0.5000
N5_2 N 0.08524(17) 0.1926(3) 0.5090(3)
Cl1_2 Cl 0.06629(5) 0.81176(10) 0.45402(6)
Cl2_2 Cl 0.93371(5) 0.18824(10) 0.54598(6)
N8_2 N 0.91868(17) 0.0503(4) 0.3497(2)
C1_2 C 0.80516(19) 0.6010(4) 0.4325(2)
C2_2 C 0.74986(18) 0.3717(4) 0.4503(2)
N1_2 N 0.91476(17) 0.8074(3) 0.4910(3)
C3_2 C 0.77424(18) 0.3849(4) 0.5392(2)
H1_2 H 0.7909 0.4752 0.5659
N2_2 N 0.7484(2) 0.4981(3) 0.3998(3)
C4_2 C 0.7007(2) 0.5988(5) 0.2531(3)
H2_2 H 0.7440 0.6419 0.2645
C5_2 C 0.6246(2) 0.4658(5) 0.2972(3)
H3_2 H 0.6148 0.4189 0.3389
C6_2 C 0.6919(2) 0.5207(4) 0.3183(3)
C7_2 C 0.79169(19) 0.7504(4) 0.4307(3)
H4_2 H 0.7454 0.7846 0.4091
C8_2 C 0.8473(2) 0.8482(4) 0.4609(3)
H5_2 H 0.8372 0.9480 0.4604
C9_2 C 0.72600(18) 0.2362(4) 0.4114(2)
H6_2 H 0.7100 0.2261 0.3519
C10_2 C 0.8750(2) 0.5561(4) 0.4674(3)
H7_2 H 0.8868 0.4566 0.4728
C11_2 C 0.9271(2) 0.6640(5) 0.4942(4)
H8_2 H 0.9739 0.6334 0.5158
N3_2 N 0.58132(17) 0.5503(4) 0.1503(2)
C12_2 C 0.5725(2) 0.4820(4) 0.2136(3)
H9_2 H 0.5282 0.4425 0.2004
C13_2 C 0.6447(2) 0.6109(5) 0.1722(3)
H10_2 H 0.6514 0.6646 0.1302
C15_2 C 0.75014(18) 0.1283(4) 0.5497(2)
C16_2 C 0.72576(18) 0.1151(4) 0.4608(2)
H11_2 H 0.7091 0.0248 0.4341
N6_2 N 0.7516(2) 0.0019(3) 0.6002(3)
C18_2 C 0.8754(2) 0.0342(5) 0.7028(3)
H13_2 H 0.8852 0.0811 0.6611
C22_2 C 0.77400(18) 0.2638(4) 0.5886(2)
H16_2 H 0.7900 0.2739 0.6481
H17_2 H 0.6132 0.0434 0.5272
C25_2 C 0.9275(2) 0.0180(4) 0.7864(3)
H19_2 H 0.9718 0.0575 0.7996
C14_2 C 0.69484(19) 0.8990(4) 0.5675(2)
N4_2 N 0.58524(17) 0.6926(3) 0.5090(3)
C17_2 C 0.7993(2) 0.9012(5) 0.7469(3)
H12_2 H 0.7560 0.8581 0.7355
C19_2 C 0.8081(2) 0.9793(4) 0.6817(3)
C20_2 C 0.70831(19) 0.7496(4) 0.5693(3)
H14_2 H 0.7546 0.7154 0.5909
C21_2 C 0.6527(2) 0.6518(4) 0.5391(3)
H15_2 H 0.6628 0.5520 0.5396
C23_2 C 0.6250(2) 0.9439(4) 0.5326(3)
C24_2 C 0.5729(2) 0.8360(5) 0.5058(4)
H18_2 H 0.5261 0.8666 0.4842
C26_2 C 0.8553(2) 0.8891(5) 0.8278(3)
H20_2 H 0.8486 0.8354 0.8698
Cl1_3 Cl 0.43371(5) 0.31176(10) 0.04598(6)
C1_3 C 0.69484(19) 0.1010(4) 0.0675(2)
N1_3 N 0.58524(17) 0.3074(3) 0.0090(3)
C4_3 C 0.7993(2) 0.0988(5) 0.2469(3)
H2_3 H 0.7560 0.1419 0.2355
C6_3 C 0.8081(2) 0.0207(4) 0.1817(3)
C7_3 C 0.70831(19) 0.2504(4) 0.0693(3)
H4_3 H 0.7546 0.2846 0.0909
C8_3 C 0.6527(2) 0.3482(4) 0.0391(3)
H5_3 H 0.6628 0.4480 0.0396
C10_3 C 0.6250(2) 0.0561(4) 0.0326(3)
C11_3 C 0.5729(2) 0.1640(5) 0.0058(4)
C13_3 C 0.8553(2) 0.1109(5) 0.3278(3)
H10_3 H 0.8486 0.1646 0.3698
H8_3 H 0.5261 0.1334 0.9842
Cl2_3 Cl 0.56629(5) 0.68824(10) 0.95402(6)
N9_2 N 0.41868(17) 0.4497(4) 0.8497(2)
C2_3 C 0.75014(18) 0.8717(4) 0.0497(2)
N2_3 N 0.7516(2) 0.9981(3) 0.1002(3)
C5_3 C 0.8754(2) 0.9658(5) 0.2028(3)
H3_3 H 0.8852 0.9189 0.1611
C9_3 C 0.77400(18) 0.7362(4) 0.0886(2)
H6_3 H 0.7900 0.7261 0.1481
H7_3 H 0.6132 0.9566 0.0272
C12_3 C 0.9275(2) 0.9820(4) 0.2864(3)
H9_3 H 0.9718 0.9425 0.2996
C16_3 C 0.77424(18) 0.6151(4) 0.0392(2)
H11_3 H 0.7909 0.5248 0.0659
H18_3 H 0.9739 0.3666 0.0158
C3_3 C 0.72576(18) 0.8849(4) 0.9608(2)
H1_3 H 0.7091 0.9752 0.9341
C14_3 C 0.80516(19) 0.3990(4) 0.9325(2)
C15_3 C 0.74986(18) 0.6283(4) 0.9503(2)
N6_3 N 0.7484(2) 0.5019(3) 0.8998(3)
C17_3 C 0.7007(2) 0.4012(5) 0.7531(3)
H12_3 H 0.7440 0.3581 0.7645
C18_3 C 0.6246(2) 0.5342(5) 0.7972(3)
H13_3 H 0.6148 0.5811 0.8389
C19_3 C 0.6919(2) 0.4793(4) 0.8183(3)
C20_3 C 0.79169(19) 0.2496(4) 0.9307(3)
H14_3 H 0.7454 0.2154 0.9091
C21_3 C 0.8473(2) 0.1518(4) 0.9609(3)
H15_3 H 0.8372 0.0520 0.9604
C22_3 C 0.72600(18) 0.7638(4) 0.9114(2)
H16_3 H 0.7100 0.7739 0.8519
C23_3 C 0.8750(2) 0.4439(4) 0.9674(3)
H17_3 H 0.8868 0.5434 0.9728
C24_3 C 0.9271(2) 0.3360(5) 0.9942(4)
N7_2 N 0.58132(17) 0.4497(4) 0.6503(2)
C25_3 C 0.5725(2) 0.5180(4) 0.7136(3)
H19_3 H 0.5282 0.5575 0.7004
C26_3 C 0.6447(2) 0.3891(5) 0.6722(3)
H20_3 H 0.6514 0.3354 0.6302
Cl1_4 Cl 0.56629(5) 0.31176(10) 0.45402(6)
C1_4 C 0.30516(19) 0.1010(4) 0.4325(2)
N1_4 N 0.41476(17) 0.3074(3) 0.4910(3)
C4_4 C 0.2007(2) 0.0988(5) 0.2531(3)
H2_4 H 0.2440 0.1419 0.2645
C6_4 C 0.1919(2) 0.0207(4) 0.3183(3)
C7_4 C 0.29169(19) 0.2504(4) 0.4307(3)
H4_4 H 0.2454 0.2846 0.4091
C8_4 C 0.3473(2) 0.3482(4) 0.4609(3)
H5_4 H 0.3372 0.4480 0.4604
C10_4 C 0.3750(2) 0.0561(4) 0.4674(3)
C11_4 C 0.4271(2) 0.1640(5) 0.4942(4)
H8_4 H 0.4739 0.1334 0.5158
C13_4 C 0.1447(2) 0.1109(5) 0.1722(3)
H10_4 H 0.1514 0.1646 0.1302
Cl2_4 Cl 0.43371(5) 0.68824(10) 0.54598(6)
C2_4 C 0.24986(18) 0.8717(4) 0.4503(2)
C3_4 C 0.27424(18) 0.8849(4) 0.5392(2)
H1_4 H 0.2909 0.9752 0.5659
N2_4 N 0.2484(2) 0.9981(3) 0.3998(3)
C5_4 C 0.1246(2) 0.9658(5) 0.2972(3)
H3_4 H 0.1148 0.9189 0.3389
C9_4 C 0.22600(18) 0.7362(4) 0.4114(2)
H6_4 H 0.2100 0.7261 0.3519
H7_4 H 0.3868 0.9566 0.4728
C12_4 C 0.0725(2) 0.9820(4) 0.2136(3)
H9_4 H 0.0282 0.9425 0.2004
C14_4 C 0.19484(19) 0.3990(4) 0.5675(2)
C15_4 C 0.25014(18) 0.6283(4) 0.5497(2)
C16_4 C 0.22576(18) 0.6151(4) 0.4608(2)
H11_4 H 0.2091 0.5248 0.4341
N6_4 N 0.2516(2) 0.5019(3) 0.6002(3)
C17_4 C 0.2993(2) 0.4012(5) 0.7469(3)
H12_4 H 0.2560 0.3581 0.7355
C18_4 C 0.3754(2) 0.5342(5) 0.7028(3)
H13_4 H 0.3852 0.5811 0.6611
C19_4 C 0.3081(2) 0.4793(4) 0.6817(3)
C20_4 C 0.20831(19) 0.2496(4) 0.5693(3)
H14_4 H 0.2546 0.2154 0.5909
C21_4 C 0.1527(2) 0.1518(4) 0.5391(3)
H15_4 H 0.1628 0.0520 0.5396
C22_4 C 0.27400(18) 0.7638(4) 0.5886(2)
H16_4 H 0.2900 0.7739 0.6481
C23_4 C 0.1250(2) 0.4439(4) 0.5326(3)
H17_4 H 0.1132 0.5434 0.5272
C24_4 C 0.0729(2) 0.3360(5) 0.5058(4)
H18_4 H 0.0261 0.3666 0.4842
C25_4 C 0.4275(2) 0.5180(4) 0.7864(3)
H19_4 H 0.4718 0.5575 0.7996
C26_4 C 0.3553(2) 0.3891(5) 0.8278(3)
H20_4 H 0.3486 0.3354 0.8698
loop_
_geom_bond_atom_site_label_1
_geom_bond_atom_site_label_2
_geom_bond_site_symmetry_1
_geom_bond_site_symmetry_2
N8 Cd1 1_555 1_555
Cl2 Cd1_2 1_555 1_555
C1 N2 1_555 1_555
N1 Cd1_3 1_555 1_555
N2 C2 1_555 1_555
C4 H2 1_555 1_555
C5 H3 1_555 1_555
C6 N2 1_555 1_555
C7 C1 1_555 1_555
H4 C7 1_555 1_555
C8 N1 1_555 1_555
H5 C8 1_555 1_555
C9 C2 1_555 1_555
H6 C9 1_555 1_555
C10 C1 1_555 1_555
H7 C10 1_555 1_555
C11 N1 1_555 1_555
N3 C12 1_555 1_555
C12 C5 1_555 1_555
H9 C12 1_555 1_555
C13 C4 1_555 1_555
H10 C13 1_555 1_555
Cd2 N3 1_555 1_555
C16 C9 1_555 1_555
H11 C16 1_555 1_555
C4 C6 1_555 1_555
C5 C6 1_555 1_555
C7 C8 1_555 1_555
C10 C11 1_555 1_555
N3 C13 1_555 1_555
C3 H1 1_555 1_555
N6 C15 1_555 1_555
C18 H13 1_555 1_555
C22 C3 1_555 1_555
H16 C22 1_555 1_555
C25 C18 1_555 1_555
H19 C25 1_555 1_555
C15 C22 1_555 1_555
Cd3_2 N4 1_555 1_555
Cd4_2 N7 1_555 1_555
N4 C21 1_555 1_555
C17 H12 1_555 1_555
C20 C14 1_555 1_555
H14 C20 1_555 1_555
C21 C20 1_555 1_555
H15 C21 1_555 1_555
C23 C14 1_555 1_555
C24 N4 1_555 1_555
C26 C17 1_555 1_555
H20 C26 1_555 1_555
C17 C19 1_555 1_555
C23 C24 1_555 1_555
N7 C26 1_555 1_555
N5 Cd1_6 1_555 1_555
Cd1_7 Cl1 1_555 1_555
N9 Cd1_8 1_555 1_555
N5_2 Cd4 1_555 1_555
Cd4_2 Cl1_2 1_555 1_555
Cl2_2 Cd4_3 1_555 1_555
N8_2 Cd4_3 1_555 1_555
C1_2 N2_2 1_555 1_555
C2_2 C3_2 1_555 1_555
N1_2 Cd4_4 1_555 1_555
C3_2 H1_2 1_555 1_555
N2_2 C2_2 1_555 1_555
C4_2 H2_2 1_555 1_555
C5_2 H3_2 1_555 1_555
C6_2 N2_2 1_555 1_555
C7_2 C1_2 1_555 1_555
H4_2 C7_2 1_555 1_555
C8_2 N1_2 1_555 1_555
H5_2 C8_2 1_555 1_555
C9_2 C2_2 1_555 1_555
H6_2 C9_2 1_555 1_555
C10_2 C1_2 1_555 1_555
H7_2 C10_2 1_555 1_555
C11_2 N1_2 1_555 1_555
H8_2 C11_2 1_555 1_555
N3_2 C12_2 1_555 1_555
C12_2 C5_2 1_555 1_555
H9_2 C12_2 1_555 1_555
C13_2 C4_2 1_555 1_555
H10_2 C13_2 1_555 1_555
Cd3 N3_2 1_555 1_555
C15_2 C16_2 1_555 1_555
C16_2 C9_2 1_555 1_555
H11_2 C16_2 1_555 1_555
N6_2 C15_2 1_555 1_555
C18_2 H13_2 1_555 1_555
C22_2 C3_2 1_555 1_555
H16_2 C22_2 1_555 1_555
C25_2 C18_2 1_555 1_555
H19_2 C25_2 1_555 1_555
C4_2 C6_2 1_555 1_555
C5_2 C6_2 1_555 1_555
C7_2 C8_2 1_555 1_555
C10_2 C11_2 1_555 1_555
N3_2 C13_2 1_555 1_555
C15_2 C22_2 1_555 1_555
Cd2 N4_2 1_555 1_555
N4_2 C21_2 1_555 1_555
C17_2 H12_2 1_555 1_555
C20_2 C14_2 1_555 1_555
H14_2 C20_2 1_555 1_555
C21_2 C20_2 1_555 1_555
H15_2 C21_2 1_555 1_555
C23_2 C14_2 1_555 1_555
C24_2 N4_2 1_555 1_555
H18_2 C24_2 1_555 1_555
C26_2 C17_2 1_555 1_555
H20_2 C26_2 1_555 1_555
C17_2 C19_2 1_555 1_555
C23_2 C24_2 1_555 1_555
N9 C26_2 1_555 1_555
Cd3 Cl1_3 1_555 1_555
N1_3 Cd3 1_555 1_555
C4_3 H2_3 1_555 1_555
C7_3 C1_3 1_555 1_555
H4_3 C7_3 1_555 1_555
C8_3 N1_3 1_555 1_555
H5_3 C8_3 1_555 1_555
C10_3 C1_3 1_555 1_555
C11_3 N1_3 1_555 1_555
C13_3 C4_3 1_555 1_555
H10_3 C13_3 1_555 1_555
C4_3 C6_3 1_555 1_555
C7_3 C8_3 1_555 1_555
C10_3 C11_3 1_555 1_555
N8_2 C13_3 1_555 1_555
Cl2_3 Cd3_2 1_555 1_555
N9_2 Cd3_2 1_555 1_555
N2_3 C2_3 1_555 1_555
C5_3 H3_3 1_555 1_555
C9_3 C2_3 1_555 1_555
H6_3 C9_3 1_555 1_555
C12_3 C5_3 1_555 1_555
H9_3 C12_3 1_555 1_555
C16_3 C9_3 1_555 1_555
H11_3 C16_3 1_555 1_555
C3_3 H1_3 1_555 1_555
Cd2 N7_2 1_555 1_555
C14_3 N6_3 1_555 1_555
N5 C21_3 1_555 1_555
N6_3 C15_3 1_555 1_555
C17_3 H12_3 1_555 1_555
C18_3 H13_3 1_555 1_555
C19_3 N6_3 1_555 1_555
C20_3 C14_3 1_555 1_555
H14_3 C20_3 1_555 1_555
C21_3 C20_3 1_555 1_555
H15_3 C21_3 1_555 1_555
C22_3 C3_3 1_555 1_555
H16_3 C22_3 1_555 1_555
C23_3 C14_3 1_555 1_555
H17_3 C23_3 1_555 1_555
C24_3 N5 1_555 1_555
N7_2 C25_3 1_555 1_555
C25_3 C18_3 1_555 1_555
H19_3 C25_3 1_555 1_555
C26_3 C17_3 1_555 1_555
H20_3 C26_3 1_555 1_555
C15_3 C22_3 1_555 1_555
C17_3 C19_3 1_555 1_555
C18_3 C19_3 1_555 1_555
C23_3 C24_3 1_555 1_555
N7_2 C26_3 1_555 1_555
Cd2 Cl1_4 1_555 1_555
N1_4 Cd2 1_555 1_555
C4_4 H2_4 1_555 1_555
C7_4 C1_4 1_555 1_555
H4_4 C7_4 1_555 1_555
C8_4 N1_4 1_555 1_555
H5_4 C8_4 1_555 1_555
C10_4 C1_4 1_555 1_555
C11_4 N1_4 1_555 1_555
H8_4 C11_4 1_555 1_555
C13_4 C4_4 1_555 1_555
H10_4 C13_4 1_555 1_555
Cl2_4 Cd2 1_555 1_555
C4_4 C6_4 1_555 1_555
C7_4 C8_4 1_555 1_555
C10_4 C11_4 1_555 1_555
N8 C13_4 1_555 1_555
C2_4 C3_4 1_555 1_555
C3_4 H1_4 1_555 1_555
N2_4 C2_4 1_555 1_555
C5_4 H3_4 1_555 1_555
C9_4 C2_4 1_555 1_555
H6_4 C9_4 1_555 1_555
C12_4 C5_4 1_555 1_555
H9_4 C12_4 1_555 1_555
C14_4 N6_4 1_555 1_555
C15_4 C16_4 1_555 1_555
N5_2 C21_4 1_555 1_555
C16_4 C9_4 1_555 1_555
H11_4 C16_4 1_555 1_555
N6_4 C15_4 1_555 1_555
C17_4 H12_4 1_555 1_555
C18_4 H13_4 1_555 1_555
C19_4 N6_4 1_555 1_555
C20_4 C14_4 1_555 1_555
H14_4 C20_4 1_555 1_555
C21_4 C20_4 1_555 1_555
H15_4 C21_4 1_555 1_555
C22_4 C3_4 1_555 1_555
H16_4 C22_4 1_555 1_555
C23_4 C14_4 1_555 1_555
H17_4 C23_4 1_555 1_555
C24_4 N5_2 1_555 1_555
H18_4 C24_4 1_555 1_555
N9_2 C25_4 1_555 1_555
C25_4 C18_4 1_555 1_555
H19_4 C25_4 1_555 1_555
C26_4 C17_4 1_555 1_555
H20_4 C26_4 1_555 1_555
C15_4 C22_4 1_555 1_555
C17_4 C19_4 1_555 1_555
C18_4 C19_4 1_555 1_555
C23_4 C24_4 1_555 1_555
N9_2 C26_4 1_555 1_555

#END
