
###############################################################################
#
# This file contains modified crystal structure data generated from the
# MOF subset of the Cambridge Structural Database (CSD) v543 
# hosted by the Cambridge Crystallographic Data Centre (CCDC).
#
# This work is licensed under the Creative Commons
# Attribution-NonCommercial-ShareAlike 4.0 International License.
# To view a copy of this license, visit
# http://creativecommons.org/licenses/by-nc-sa/4.0/
# or send a letter to
# Creative Commons, PO Box 1866, Mountain View, CA 94042, USA.
#
# CIF created using the CSD Python API on 29 September 2022
# The structure has been converted into the P1 space group
# The structure has a 3D framework
# The original CSD entry CUSZEX is in the monoclinic crystal system
# The framework has been calculated to contain at least 10.0% void space
# The void calculation uses a probe of radius 1.32A, grid spacing 0.4
#
###############################################################################

data_CUSZEX
_chemical_formula_moiety         '(C88 H56 Cu4 N20)n'
_symmetry_cell_setting           triclinic
_symmetry_space_group_name_H-M   'P 1'
_symmetry_Int_Tables_number      1
_space_group_name_Hall           'P 1'
loop_
_symmetry_equiv_pos_site_id
_symmetry_equiv_pos_as_xyz
1 x,y,z
_cell_length_a                   12.5255(3)
_cell_length_b                   8.1701(3)
_cell_length_c                   20.9474(6)
_cell_angle_alpha                90
_cell_angle_beta                 96.835(3)
_cell_angle_gamma                90
_cell_volume                     2128.41
loop_
_atom_site_label
_atom_site_type_symbol
_atom_site_fract_x
_atom_site_fract_y
_atom_site_fract_z
H4 H 0.0108 0.5136 0.0906
H7 H 0.0510 0.6428 0.1848
H8 H 0.0022 0.5627 0.2448
C1 C 0.6441(6) 0.3366(8) 0.1538(3)
H1 H 0.6226 0.3733 0.1934
C2 C 0.7087(6) 0.2283(9) 0.0370(3)
C3 C 0.8150(5) 0.4811(8) 0.1758(3)
H3 H 0.7940 0.5174 0.2155
N1 N 0.9105(5) 0.5249(6) 0.1601(2)
C4 C 0.9431(6) 0.4785(8) 0.1019(3)
C5 C 0.8784(5) 0.3828(8) 0.0610(3)
H5 H 0.9015 0.3507 0.0213
C6 C 0.7450(5) 0.3839(8) 0.1358(3)
C7 C 0.7768(5) 0.3299(8) 0.0765(3)
C8 C 0.5782(6) 0.2387(9) 0.1144(3)
H6 H 0.5102 0.2078 0.1263
C9 C 0.9849(6) 0.6225(8) 0.2043(3)
H9 H 0.9510 0.7272 0.2129
C10 C 0.6105(6) 0.1817(9) 0.0553(3)
H10 H 0.5645 0.1116 0.0283
H2 H 0.7297 0.1908 0.9974
H3_2 H 0.7060 0.0174 0.2845
N1_2 N 0.5895(5) 0.0249(6) 0.3399(2)
H4_2 H 0.4892 0.0136 0.4094
C9_2 C 0.5151(6) 0.1225(8) 0.2957(3)
H7_2 H 0.4490 0.1428 0.3152
H8_2 H 0.4978 0.0627 0.2552
H9_2 H 0.5490 0.2272 0.2871
C1_2 C 0.8559(6) 0.8366(8) 0.3462(3)
H1_2 H 0.8774 0.8733 0.3066
C2_2 C 0.7913(6) 0.7283(9) 0.4630(3)
H2_2 H 0.7703 0.6908 0.5026
C3_2 C 0.6850(5) 0.9811(8) 0.3242(3)
C4_2 C 0.5569(6) 0.9785(8) 0.3981(3)
C5_2 C 0.6216(5) 0.8828(8) 0.4390(3)
H5_2 H 0.5985 0.8507 0.4787
C6_2 C 0.7550(5) 0.8839(8) 0.3642(3)
C7_2 C 0.7232(5) 0.8299(8) 0.4235(3)
C8_2 C 0.9218(6) 0.7387(9) 0.3856(3)
H6_2 H 0.9898 0.7078 0.3737
C10_2 C 0.8895(6) 0.6817(9) 0.4447(3)
H10_2 H 0.9355 0.6116 0.4717
H2_3 H 0.2703 0.8092 0.0026
C1_3 C 0.3559(6) 0.6634(8) 0.8462(3)
H1_3 H 0.3774 0.6267 0.8066
C2_3 C 0.2913(6) 0.7717(9) 0.9630(3)
C3_3 C 0.1850(5) 0.5189(8) 0.8242(3)
H3_3 H 0.2060 0.4826 0.7845
N1_3 N 0.0895(5) 0.4751(6) 0.8399(2)
C4_3 C 0.0569(6) 0.5215(8) 0.8981(3)
C5_3 C 0.1216(5) 0.6172(8) 0.9390(3)
H5_3 H 0.0985 0.6493 0.9787
C6_3 C 0.2550(5) 0.6161(8) 0.8642(3)
C7_3 C 0.2232(5) 0.6701(8) 0.9235(3)
C8_3 C 0.4218(6) 0.7613(9) 0.8856(3)
H6_3 H 0.4898 0.7922 0.8737
C9_3 C 0.0151(6) 0.3775(8) 0.7957(3)
H9_3 H 0.0490 0.2728 0.7871
C10_3 C 0.3895(6) 0.8183(9) 0.9447(3)
H10_3 H 0.4355 0.8884 0.9717
H4_3 H 0.9892 0.4864 0.9094
H7_3 H 0.9490 0.3572 0.8152
H8_3 H 0.9978 0.4373 0.7552
C1_4 C 0.1441(6) 0.1634(8) 0.6538(3)
H1_4 H 0.1226 0.1267 0.6934
C2_4 C 0.2087(6) 0.2717(9) 0.5370(3)
H2_4 H 0.2297 0.3092 0.4974
C3_4 C 0.3150(5) 0.0189(8) 0.6758(3)
C4_4 C 0.4431(6) 0.0215(8) 0.6019(3)
C5_4 C 0.3784(5) 0.1172(8) 0.5610(3)
H5_4 H 0.4015 0.1493 0.5213
C6_4 C 0.2450(5) 0.1161(8) 0.6358(3)
C7_4 C 0.2768(5) 0.1701(8) 0.5765(3)
C8_4 C 0.0782(6) 0.2613(9) 0.6144(3)
H6_4 H 0.0102 0.2922 0.6263
C10_4 C 0.1105(6) 0.3183(9) 0.5553(3)
H10_4 H 0.0645 0.3884 0.5283
H3_4 H 0.2940 0.9826 0.7155
N1_4 N 0.4105(5) 0.9751(6) 0.6601(2)
H4_4 H 0.5108 0.9864 0.5906
C9_4 C 0.4849(6) 0.8775(8) 0.7043(3)
H7_4 H 0.5510 0.8572 0.6848
H8_4 H 0.5022 0.9373 0.7448
H9_4 H 0.4510 0.7728 0.7129
N6 N 0.0969(3) 0.2507(6) 0.1928(2)
N7 N 0.0946(4) 0.9931(7) 0.3027(2)
Cu3 Cu 0.00115(5) 0.85853(10) 0.75487(3)
Cu1 Cu 0.99885(5) 0.14147(10) 0.24513(3)
N4 N 0.8807(3) 0.0291(6) 0.1924(2)
N8 N 0.9269(4) 0.2850(6) 0.3054(2)
C13 C 0.7387(4) 0.7955(6) 0.0667(2)
C14 C 0.8121(4) 0.9496(6) 0.1654(2)
C16 C 0.7324(4) 0.8491(7) 0.1330(2)
N5 N 0.5731(4) 0.7850(6) 0.1946(2)
C18 C 0.8256(4) 0.8379(7) 0.0340(2)
H13 H 0.8830 0.9002 0.0556
C19 C 0.6456(4) 0.8152(7) 0.1661(2)
C20 C 0.6578(4) 0.6973(6) 0.0341(2)
H14 H 0.5991 0.6634 0.0557
Cu2 Cu 0.50115(5) 0.64147(10) 0.25487(3)
C11 C 0.6653(4) 0.5714(7) 0.8332(2)
N2 N 0.9031(3) 0.7493(6) 0.8072(2)
N3 N 0.5946(4) 0.5069(7) 0.8027(2)
C12 C 0.7502(4) 0.6541(6) 0.8692(2)
C15 C 0.8302(4) 0.7910(7) 0.9706(2)
H11 H 0.8894 0.8241 0.9493
C17 C 0.6619(4) 0.6489(7) 0.9709(2)
H12 H 0.6055 0.5837 0.9499
C21 C 0.7479(4) 0.6948(6) 0.9375(2)
C22 C 0.8326(4) 0.7053(6) 0.8352(2)
Cu4 Cu 0.49885(5) 0.35853(10) 0.74513(3)
C11_2 C 0.8347(4) 0.0714(7) 0.6668(2)
N2_2 N 0.5969(3) 0.2493(6) 0.6928(2)
N3_2 N 0.9054(4) 0.0069(7) 0.6973(2)
C12_2 C 0.7498(4) 0.1541(6) 0.6308(2)
C13_2 C 0.7613(4) 0.2955(6) 0.4333(2)
C14_2 C 0.6879(4) 0.4496(6) 0.3346(2)
C15_2 C 0.6698(4) 0.2910(7) 0.5294(2)
H11_2 H 0.6106 0.3241 0.5507
C16_2 C 0.7676(4) 0.3491(7) 0.3670(2)
C17_2 C 0.8381(4) 0.1489(7) 0.5291(2)
H12_2 H 0.8945 0.0837 0.5501
N4_2 N 0.6193(3) 0.5291(6) 0.3076(2)
C18_2 C 0.6744(4) 0.3379(7) 0.4660(2)
H13_2 H 0.6170 0.4002 0.4444
C19_2 C 0.8544(4) 0.3152(7) 0.3339(2)
C20_2 C 0.8422(4) 0.1973(6) 0.4659(2)
H14_2 H 0.9009 0.1634 0.4443
C21_2 C 0.7521(4) 0.1948(6) 0.5625(2)
C22_2 C 0.6674(4) 0.2053(6) 0.6648(2)
N6_2 N 0.4031(3) 0.7507(6) 0.3072(2)
N7_2 N 0.4054(4) 0.4931(7) 0.1973(2)
C11_3 C 0.3347(4) 0.4286(7) 0.1668(2)
C12_3 C 0.2498(4) 0.3459(6) 0.1308(2)
C15_3 C 0.1698(4) 0.2090(7) 0.0294(2)
H11_3 H 0.1106 0.1759 0.0507
C17_3 C 0.3381(4) 0.3511(7) 0.0291(2)
H12_3 H 0.3945 0.4163 0.0501
C21_3 C 0.2521(4) 0.3052(6) 0.0625(2)
C22_3 C 0.1674(4) 0.2947(6) 0.1648(2)
C13_3 C 0.2613(4) 0.2045(6) 0.9333(2)
C14_3 C 0.1879(4) 0.0504(6) 0.8346(2)
C16_3 C 0.2676(4) 0.1509(7) 0.8670(2)
N5_2 N 0.4269(4) 0.2150(6) 0.8054(2)
C18_3 C 0.1744(4) 0.1621(7) 0.9660(2)
H13_3 H 0.1170 0.0998 0.9444
C19_3 C 0.3544(4) 0.1848(7) 0.8339(2)
C20_3 C 0.3422(4) 0.3027(6) 0.9659(2)
H14_3 H 0.4009 0.3366 0.9443
N4_3 N 0.1193(3) 0.9709(6) 0.8076(2)
N8_2 N 0.0731(4) 0.7150(6) 0.6946(2)
C11_4 C 0.1653(4) 0.9286(7) 0.3332(2)
C12_4 C 0.2502(4) 0.8459(6) 0.3692(2)
C13_4 C 0.2387(4) 0.7045(6) 0.5667(2)
C14_4 C 0.3121(4) 0.5504(6) 0.6654(2)
C15_4 C 0.3302(4) 0.7090(7) 0.4706(2)
H11_4 H 0.3894 0.6759 0.4493
C16_4 C 0.2324(4) 0.6509(7) 0.6330(2)
C17_4 C 0.1619(4) 0.8511(7) 0.4709(2)
H12_4 H 0.1055 0.9163 0.4499
N4_4 N 0.3807(3) 0.4709(6) 0.6924(2)
C18_4 C 0.3256(4) 0.6621(7) 0.5340(2)
H13_4 H 0.3830 0.5998 0.5556
C19_4 C 0.1456(4) 0.6848(7) 0.6661(2)
C20_4 C 0.1578(4) 0.8027(6) 0.5341(2)
H14_4 H 0.0991 0.8366 0.5557
C21_4 C 0.2479(4) 0.8052(6) 0.4375(2)
C22_4 C 0.3326(4) 0.7947(6) 0.3352(2)
loop_
_geom_bond_atom_site_label_1
_geom_bond_atom_site_label_2
_geom_bond_site_symmetry_1
_geom_bond_site_symmetry_2
C1 H1 1_555 1_555
C3 H3 1_555 1_555
N1 C3 1_555 1_555
C4 N1 1_555 1_555
C5 C4 1_555 1_555
H5 C5 1_555 1_555
C6 C1 1_555 1_555
C7 C2 1_555 1_555
C8 C1 1_555 1_555
H6 C8 1_555 1_555
C9 N1 1_555 1_555
H9 C9 1_555 1_555
C10 C2 1_555 1_555
H10 C10 1_555 1_555
C3 C6 1_555 1_555
C5 C7 1_555 1_555
C6 C7 1_555 1_555
C8 C10 1_555 1_555
C9_2 N1_2 1_555 1_555
H7_2 C9_2 1_555 1_555
H8_2 C9_2 1_555 1_555
H9_2 C9_2 1_555 1_555
C1_2 H1_2 1_555 1_555
C2_2 H2_2 1_555 1_555
C5_2 C4_2 1_555 1_555
H5_2 C5_2 1_555 1_555
C6_2 C1_2 1_555 1_555
C7_2 C2_2 1_555 1_555
C8_2 C1_2 1_555 1_555
H6_2 C8_2 1_555 1_555
C10_2 C2_2 1_555 1_555
H10_2 C10_2 1_555 1_555
C3_2 C6_2 1_555 1_555
C5_2 C7_2 1_555 1_555
C6_2 C7_2 1_555 1_555
C8_2 C10_2 1_555 1_555
C1_3 H1_3 1_555 1_555
C3_3 H3_3 1_555 1_555
N1_3 C3_3 1_555 1_555
C4_3 N1_3 1_555 1_555
C5_3 C4_3 1_555 1_555
H5_3 C5_3 1_555 1_555
C6_3 C1_3 1_555 1_555
C7_3 C2_3 1_555 1_555
C8_3 C1_3 1_555 1_555
H6_3 C8_3 1_555 1_555
C9_3 N1_3 1_555 1_555
H9_3 C9_3 1_555 1_555
C10_3 C2_3 1_555 1_555
H10_3 C10_3 1_555 1_555
C3_3 C6_3 1_555 1_555
C5_3 C7_3 1_555 1_555
C6_3 C7_3 1_555 1_555
C8_3 C10_3 1_555 1_555
C1_4 H1_4 1_555 1_555
C2_4 H2_4 1_555 1_555
C5_4 C4_4 1_555 1_555
H5_4 C5_4 1_555 1_555
C6_4 C1_4 1_555 1_555
C7_4 C2_4 1_555 1_555
C8_4 C1_4 1_555 1_555
H6_4 C8_4 1_555 1_555
C10_4 C2_4 1_555 1_555
H10_4 C10_4 1_555 1_555
C3_4 C6_4 1_555 1_555
C5_4 C7_4 1_555 1_555
C6_4 C7_4 1_555 1_555
C8_4 C10_4 1_555 1_555
C9_4 N1_4 1_555 1_555
H7_4 C9_4 1_555 1_555
H8_4 C9_4 1_555 1_555
H9_4 C9_4 1_555 1_555
Cu1 N4 1_555 1_555
N8 Cu1 1_555 1_555
C13 C16 1_555 1_555
C14 C16 1_555 1_555
C16 C19 1_555 1_555
N5 C19 1_555 1_555
C18 C13 1_555 1_555
H13 C18 1_555 1_555
C20 C13 1_555 1_555
H14 C20 1_555 1_555
Cu2 N5 1_555 1_555
C11 N3 1_555 1_555
N2 C22 1_555 1_555
N3 Cu4 1_555 1_555
C12 C11 1_555 1_555
C15 H11 1_555 1_555
C17 H12 1_555 1_555
C21 C12 1_555 1_555
C22 C12 1_555 1_555
C15 C21 1_555 1_555
C17 C21 1_555 1_555
C11_2 N3_2 1_555 1_555
Cu2 N4_2 1_555 1_555
N2_2 C22_2 1_555 1_555
C12_2 C11_2 1_555 1_555
C13_2 C16_2 1_555 1_555
C14_2 C16_2 1_555 1_555
C15_2 H11_2 1_555 1_555
C16_2 C19_2 1_555 1_555
C17_2 H12_2 1_555 1_555
N4_2 C14_2 1_555 1_555
N8 C19_2 1_555 1_555
C18_2 C13_2 1_555 1_555
H13_2 C18_2 1_555 1_555
C20_2 C13_2 1_555 1_555
H14_2 C20_2 1_555 1_555
C21_2 C12_2 1_555 1_555
C22_2 C12_2 1_555 1_555
Cu4 N2_2 1_555 1_555
N6_2 Cu2 1_555 1_555
N7_2 Cu2 1_555 1_555
C15_2 C18_2 1_555 1_555
C15_2 C21_2 1_555 1_555
C17_2 C20_2 1_555 1_555
C17_2 C21_2 1_555 1_555
C11_3 N7_2 1_555 1_555
N6 C22_3 1_555 1_555
C12_3 C11_3 1_555 1_555
C15_3 H11_3 1_555 1_555
C17_3 H12_3 1_555 1_555
C21_3 C12_3 1_555 1_555
C22_3 C12_3 1_555 1_555
C15_3 C21_3 1_555 1_555
C17_3 C21_3 1_555 1_555
C13_3 C16_3 1_555 1_555
C14_3 C16_3 1_555 1_555
C16_3 C19_3 1_555 1_555
N5_2 C19_3 1_555 1_555
C18_3 C13_3 1_555 1_555
H13_3 C18_3 1_555 1_555
C20_3 C13_3 1_555 1_555
H14_3 C20_3 1_555 1_555
Cu4 N5_2 1_555 1_555
Cu3 N4_3 1_555 1_555
N8_2 Cu3 1_555 1_555
C11_4 N7 1_555 1_555
Cu4 N4_4 1_555 1_555
N6_2 C22_4 1_555 1_555
C12_4 C11_4 1_555 1_555
C13_4 C16_4 1_555 1_555
C14_4 C16_4 1_555 1_555
C15_4 H11_4 1_555 1_555
C16_4 C19_4 1_555 1_555
C17_4 H12_4 1_555 1_555
N4_4 C14_4 1_555 1_555
N8_2 C19_4 1_555 1_555
C18_4 C13_4 1_555 1_555
H13_4 C18_4 1_555 1_555
C20_4 C13_4 1_555 1_555
H14_4 C20_4 1_555 1_555
C21_4 C12_4 1_555 1_555
C22_4 C12_4 1_555 1_555
C15_4 C18_4 1_555 1_555
C15_4 C21_4 1_555 1_555
C17_4 C20_4 1_555 1_555
C17_4 C21_4 1_555 1_555

#END
