
###############################################################################
#
# This file contains modified crystal structure data generated from the
# MOF subset of the Cambridge Structural Database (CSD) v543 
# hosted by the Cambridge Crystallographic Data Centre (CCDC).
#
# This work is licensed under the Creative Commons
# Attribution-NonCommercial-ShareAlike 4.0 International License.
# To view a copy of this license, visit
# http://creativecommons.org/licenses/by-nc-sa/4.0/
# or send a letter to
# Creative Commons, PO Box 1866, Mountain View, CA 94042, USA.
#
# CIF created using the CSD Python API on 29 September 2022
# The structure has been converted into the P1 space group
# The structure has a 3D framework
# The original CSD entry CUTBEA is in the monoclinic crystal system
# The framework has been calculated to contain at least 10.0% void space
# The void calculation uses a probe of radius 1.32A, grid spacing 0.4
# H atom positions have been added when not included in the experimental data
#
###############################################################################

data_CUTBEA
_chemical_formula_moiety         '(C184 H176 Eu8 N40 O60)n'
_symmetry_cell_setting           triclinic
_symmetry_space_group_name_H-M   'P 1'
_symmetry_Int_Tables_number      1
_space_group_name_Hall           'P 1'
loop_
_symmetry_equiv_pos_site_id
_symmetry_equiv_pos_as_xyz
1 x,y,z
_cell_length_a                   31.810(6)
_cell_length_b                   14.993(3)
_cell_length_c                   13.220(3)
_cell_angle_alpha                90
_cell_angle_beta                 96.01(3)
_cell_angle_gamma                90
_cell_volume                     6270.32
loop_
_atom_site_label
_atom_site_type_symbol
_atom_site_fract_x
_atom_site_fract_y
_atom_site_fract_z
Eu3 Eu 0.310644(5) 0.706741(11) 0.029547(13)
C1 C 0.21056(3) 0.39914(7) 0.74211(8)
C2 C 0.23587(3) 0.46434(8) 0.79230(9)
C3 C 0.21820(3) 0.52663(8) 0.85325(11)
C4 C 0.17523(3) 0.52372(8) 0.86401(10)
C5 C 0.14991(3) 0.45853(7) 0.81382(8)
C6 C 0.16758(3) 0.39624(7) 0.75288(8)
C8 C 0.00263(3) 0.38405(11) 0.87957(11)
C13 C 0.04073(3) 0.42260(10) 0.85542(10)
C14 C 0.08123(3) 0.38602(9) 0.84502(9)
N1 N 0.10834(3) 0.45683(8) 0.82223(9)
N2 N 0.08460(3) 0.53719(8) 0.81854(12)
N3 N 0.04282(3) 0.51603(9) 0.83905(12)
C15 C 0.22905(11) 0.3350(2) 0.6698(3)
C16 C 0.24623(11) 0.5963(2) 0.9102(3)
Eu1 Eu 0.189356(5) 0.206741(11) 0.470453(13)
O1 O 0.22986(8) 0.66350(16) 0.9441(2)
O2 O 0.28539(8) 0.58232(17) 0.9211(2)
O5 O 0.20530(8) 0.27185(17) 0.6364(2)
O6 O 0.26569(8) 0.34992(19) 0.6493(2)
O7 O 0.15341(12) 0.0778(2) 0.3924(3)
O8 O 0.15902(15) 0.2517(4) 0.3019(3)
N4 N 0.1311(2) 0.3252(7) 0.1501(6)
C18 C 0.1669(2) 0.3710(7) 0.1198(7)
C19 C 0.1324(3) 0.2747(5) 0.2466(5)
C20 C 0.0892(2) 0.3321(12) 0.0919(9)
C21 C 0.1629(3) 0.0022(4) 0.3650(7)
Eu4 Eu 0.189356(5) 0.793259(11) 0.970453(13)
Eu5 Eu 0.310644(5) 0.293259(11) 0.529547(13)
O9 O 0.27014(8) 0.16350(16) 0.5559(2)
O10 O 0.22986(8) 0.33650(16) 0.4441(2)
O11 O 0.21461(8) 0.08232(17) 0.5789(2)
O12 O 0.12069(9) 0.1886(2) 0.5466(3)
O13 O 0.13643(9) 0.3211(2) 0.4931(3)
O14 O 0.23431(8) 0.15008(19) 0.3507(2)
H1 H 0.12291 0.010571 0.165047
H3 H 0.0837896 0.0231376 0.250733
H7 H 0.089963 0.315954 0.853105
H8 H 0.0909795 0.307993 0.0147595
H9 H 0.066592 0.291934 0.128439
H10 H 0.0790133 0.401481 0.0894209
H14 H 0.192417 0.323632 0.113143
H15 H 0.158454 0.40313 0.0466134
H16 H 0.17723 0.421293 0.176452
H18 H 0.101323 0.256521 0.267582
H19 H 0.147749 0.345159 0.713568
H20 H 0.0226888 0.246988 0.858378
H21 H 0.269543 0.46662 0.78387
H22 H 0.161391 0.572518 0.911769
O4 O 0.86357(9) 0.3211(2) 0.0069(3)
Eu2 Eu 0.810644(5) 0.206741(11) 0.029547(13)
C7 C 0.99753(3) 0.29039(11) 0.87921(13)
C9 C 0.96995(3) 0.43856(12) 0.90570(13)
C10 C 0.93275(3) 0.39970(14) 0.93229(14)
C11 C 0.92810(4) 0.30860(14) 0.93240(15)
C12 C 0.95994(4) 0.25451(13) 0.90583(16)
C17 C 0.88841(12) 0.2696(3) 0.9666(3)
O3 O 0.87931(9) 0.1886(2) 0.9534(3)
H11 H 0.907193 0.441999 0.953129
H12 H 0.973397 0.510821 0.905382
H13 H 0.955702 0.182432 0.905592
C7_2 C 0.00247(3) 0.29039(11) 0.62079(13)
C9_2 C 0.03005(3) 0.43856(12) 0.59430(13)
C10_2 C 0.06725(3) 0.39970(14) 0.56771(14)
C11_2 C 0.07190(4) 0.30860(14) 0.56760(15)
C12_2 C 0.04006(4) 0.25451(13) 0.59417(16)
C17_2 C 0.11159(12) 0.2696(3) 0.5334(3)
H11_2 H 0.0928072 0.441999 0.546871
H12_2 H 0.026603 0.510821 0.594618
H13_2 H 0.0442979 0.182432 0.594408
O7_2 O 0.84659(12) 0.0778(2) 0.1076(3)
O8_2 O 0.84098(15) 0.2517(4) 0.1981(3)
N4_2 N 0.8689(2) 0.3252(7) 0.3499(6)
C18_2 C 0.8331(2) 0.3710(7) 0.3802(7)
C19_2 C 0.8676(3) 0.2747(5) 0.2534(5)
C20_2 C 0.9108(2) 0.3321(12) 0.4081(9)
C21_2 C 0.8371(3) 0.0022(4) 0.1350(7)
O10_2 O 0.77014(8) 0.33650(16) 0.0559(2)
O14_2 O 0.76569(8) 0.15008(19) 0.1493(2)
H1_2 H 0.87709 0.010571 0.334953
H3_2 H 0.91621 0.0231376 0.249267
H8_2 H 0.90902 0.307993 0.485241
H9_2 H 0.933408 0.291934 0.371561
H10_2 H 0.920987 0.401481 0.410579
H14_2 H 0.807583 0.323632 0.386857
H15_2 H 0.841546 0.40313 0.453387
H16_2 H 0.82277 0.421293 0.323548
H18_2 H 0.898677 0.256521 0.232418
C1_2 C 0.78944(3) 0.39914(7) 0.75789(8)
C2_2 C 0.76413(3) 0.46434(8) 0.70770(9)
C3_2 C 0.78180(3) 0.52663(8) 0.64675(11)
C4_2 C 0.82477(3) 0.52372(8) 0.63599(10)
C5_2 C 0.85009(3) 0.45853(7) 0.68618(8)
C6_2 C 0.83242(3) 0.39624(7) 0.74712(8)
C8_2 C 0.99737(3) 0.38405(11) 0.62043(11)
C13_2 C 0.95927(3) 0.42260(10) 0.64458(10)
C14_2 C 0.91877(3) 0.38602(9) 0.65498(9)
N1_2 N 0.89166(3) 0.45683(8) 0.67777(9)
N2_2 N 0.91540(3) 0.53719(8) 0.68146(12)
N3_2 N 0.95718(3) 0.51603(9) 0.66095(12)
C15_2 C 0.77095(11) 0.3350(2) 0.8302(3)
C16_2 C 0.75377(11) 0.5963(2) 0.5898(3)
O1_2 O 0.77014(8) 0.66350(16) 0.5559(2)
O2_2 O 0.71461(8) 0.58232(17) 0.5789(2)
O5_2 O 0.79470(8) 0.27185(17) 0.8636(2)
O6_2 O 0.73431(8) 0.34992(19) 0.8507(2)
Eu3_2 Eu 0.689356(5) 0.706741(11) 0.470453(13)
Eu4_2 Eu 0.810644(5) 0.793259(11) 0.529547(13)
Eu5_2 Eu 0.689356(5) 0.293259(11) 0.970453(13)
O9_2 O 0.72986(8) 0.16350(16) 0.9441(2)
O11_2 O 0.78539(8) 0.08232(17) 0.9211(2)
H7_2 H 0.910037 0.315954 0.646895
H19_2 H 0.852251 0.345159 0.786432
H20_2 H 0.977311 0.246988 0.641622
H21_2 H 0.730457 0.46662 0.71613
H22_2 H 0.838609 0.572518 0.588231
C3_3 C 0.71820(3) 0.02663(8) 0.85325(11)
C4_3 C 0.67523(3) 0.02372(8) 0.86401(10)
N2_3 N 0.58460(3) 0.03719(8) 0.81854(12)
N3_3 N 0.54282(3) 0.01603(9) 0.83905(12)
C16_3 C 0.74623(11) 0.0963(2) 0.9102(3)
H12_3 H 0.473397 0.0108213 0.905382
H22_3 H 0.661391 0.0725179 0.911769
O4_2 O 0.36357(9) 0.8211(2) 0.0069(3)
C1_3 C 0.71056(3) 0.89914(7) 0.74211(8)
C2_3 C 0.73587(3) 0.96434(8) 0.79230(9)
C5_3 C 0.64991(3) 0.95853(7) 0.81382(8)
C6_3 C 0.66758(3) 0.89624(7) 0.75288(8)
C7_3 C 0.49753(3) 0.79039(11) 0.87921(13)
C8_3 C 0.50263(3) 0.88405(11) 0.87957(11)
C9_3 C 0.46995(3) 0.93856(12) 0.90570(13)
C10_3 C 0.43275(3) 0.89970(14) 0.93229(14)
C11_3 C 0.42810(4) 0.80860(14) 0.93240(15)
C12_3 C 0.45994(4) 0.75451(13) 0.90583(16)
C13_3 C 0.54073(3) 0.92260(10) 0.85542(10)
C14_3 C 0.58123(3) 0.88602(9) 0.84502(9)
N1_3 N 0.60834(3) 0.95683(8) 0.82223(9)
C15_3 C 0.72905(11) 0.8350(2) 0.6698(3)
C17_3 C 0.38841(12) 0.7696(3) 0.9666(3)
O3_2 O 0.37931(9) 0.6886(2) 0.9534(3)
O5_3 O 0.70530(8) 0.77185(17) 0.6364(2)
O6_3 O 0.76569(8) 0.84992(19) 0.6493(2)
O7_3 O 0.65341(12) 0.5778(2) 0.3924(3)
O8_3 O 0.65902(15) 0.7517(4) 0.3019(3)
N4_3 N 0.6311(2) 0.8252(7) 0.1501(6)
C18_3 C 0.6669(2) 0.8710(7) 0.1198(7)
C19_3 C 0.6324(3) 0.7747(5) 0.2466(5)
C20_3 C 0.5892(2) 0.8321(12) 0.0919(9)
N5 N 0.6348(4) 0.4427(5) 0.3021(9)
C21_3 C 0.6629(3) 0.5022(4) 0.3650(7)
C22 C 0.6055(4) 0.4765(7) 0.2203(7)
C23 C 0.6372(7) 0.3454(5) 0.3258(15)
O10_3 O 0.72986(8) 0.83650(16) 0.4441(2)
O12_2 O 0.62069(9) 0.6886(2) 0.5466(3)
O13_2 O 0.63643(9) 0.8211(2) 0.4931(3)
O14_3 O 0.73431(8) 0.65008(19) 0.3507(2)
H1_3 H 0.62291 0.510571 0.165047
H2 H 0.587697 0.42129 0.183411
H3_3 H 0.58379 0.523138 0.250733
H4 H 0.629729 0.334474 0.403369
H5 H 0.614622 0.309483 0.273131
H6 H 0.669001 0.321242 0.318195
H7_3 H 0.589963 0.815954 0.853105
H8_3 H 0.59098 0.807993 0.0147595
H9_3 H 0.566592 0.791934 0.128439
H10_3 H 0.579013 0.901481 0.0894209
H11_3 H 0.407193 0.941999 0.953129
H13_3 H 0.455702 0.682432 0.905592
H14_3 H 0.692417 0.823632 0.113143
H15_3 H 0.658454 0.90313 0.0466134
H16_3 H 0.67723 0.921293 0.176452
H17 H 0.694634 0.478206 0.389682
H18_3 H 0.601323 0.756521 0.267582
H19_3 H 0.647749 0.845159 0.713568
H20_3 H 0.522689 0.746988 0.858378
H21_3 H 0.769543 0.96662 0.78387
C3_4 C 0.28180(3) 0.02663(8) 0.64675(11)
C4_4 C 0.32477(3) 0.02372(8) 0.63599(10)
N2_4 N 0.41540(3) 0.03719(8) 0.68146(12)
N3_4 N 0.45718(3) 0.01603(9) 0.66095(12)
C16_4 C 0.25377(11) 0.0963(2) 0.5898(3)
H12_4 H 0.526603 0.0108213 0.594618
H22_4 H 0.338609 0.0725179 0.588231
O7_4 O 0.34659(12) 0.5778(2) 0.1076(3)
O8_4 O 0.34098(15) 0.7517(4) 0.1981(3)
N4_4 N 0.3689(2) 0.8252(7) 0.3499(6)
C18_4 C 0.3331(2) 0.8710(7) 0.3802(7)
C19_4 C 0.3676(3) 0.7747(5) 0.2534(5)
C20_4 C 0.4108(2) 0.8321(12) 0.4081(9)
N5_2 N 0.3652(4) 0.4427(5) 0.1979(9)
C21_4 C 0.3371(3) 0.5022(4) 0.1350(7)
C22_2 C 0.3945(4) 0.4765(7) 0.2797(7)
C23_2 C 0.3628(7) 0.3454(5) 0.1742(15)
O10_4 O 0.27014(8) 0.83650(16) 0.0559(2)
O14_4 O 0.26569(8) 0.65008(19) 0.1493(2)
H1_4 H 0.37709 0.510571 0.334953
H2_2 H 0.412303 0.42129 0.316589
H3_4 H 0.41621 0.523138 0.249267
H4_2 H 0.370271 0.334474 0.0966313
H5_2 H 0.385378 0.309483 0.226869
H6_2 H 0.330999 0.321242 0.181805
H8_4 H 0.40902 0.807993 0.485241
H9_4 H 0.433408 0.791934 0.371561
H10_4 H 0.420987 0.901481 0.410579
H14_4 H 0.307583 0.823632 0.386857
H15_4 H 0.341546 0.90313 0.453387
H16_4 H 0.32277 0.921293 0.323548
H17_2 H 0.305366 0.478206 0.110318
H18_4 H 0.398677 0.756521 0.232418
C1_4 C 0.28944(3) 0.89914(7) 0.75789(8)
C2_4 C 0.26413(3) 0.96434(8) 0.70770(9)
C5_4 C 0.35009(3) 0.95853(7) 0.68618(8)
C6_4 C 0.33242(3) 0.89624(7) 0.74712(8)
C7_4 C 0.50247(3) 0.79039(11) 0.62079(13)
C8_4 C 0.49737(3) 0.88405(11) 0.62043(11)
C9_4 C 0.53005(3) 0.93856(12) 0.59430(13)
C10_4 C 0.56725(3) 0.89970(14) 0.56771(14)
C11_4 C 0.57190(4) 0.80860(14) 0.56760(15)
C12_4 C 0.54006(4) 0.75451(13) 0.59417(16)
C13_4 C 0.45927(3) 0.92260(10) 0.64458(10)
C14_4 C 0.41877(3) 0.88602(9) 0.65498(9)
N1_4 N 0.39166(3) 0.95683(8) 0.67777(9)
C15_4 C 0.27095(11) 0.8350(2) 0.8302(3)
C17_4 C 0.61159(12) 0.7696(3) 0.5334(3)
O5_4 O 0.29470(8) 0.77185(17) 0.8636(2)
O6_4 O 0.23431(8) 0.84992(19) 0.8507(2)
H7_4 H 0.410037 0.815954 0.646895
H11_4 H 0.592807 0.941999 0.546871
H13_4 H 0.544298 0.682432 0.594408
H19_4 H 0.352251 0.845159 0.786432
H20_4 H 0.477311 0.746988 0.641622
H21_4 H 0.230457 0.96662 0.71613
C7_5 C 0.00247(3) 0.70961(11) 0.12079(13)
C9_5 C 0.03005(3) 0.56144(12) 0.09430(13)
C10_5 C 0.06725(3) 0.60030(14) 0.06771(14)
C11_5 C 0.07190(4) 0.69140(14) 0.06760(15)
C12_5 C 0.04006(4) 0.74549(13) 0.09417(16)
C17_5 C 0.11159(12) 0.7304(3) 0.0334(3)
O3_3 O 0.12069(9) 0.8114(2) 0.0466(3)
H11_5 H 0.0928072 0.558001 0.046871
H12_5 H 0.026603 0.489179 0.0946178
H13_5 H 0.0442979 0.817568 0.0944077
O4_3 O 0.13643(9) 0.6789(2) 0.9931(3)
C1_5 C 0.78944(3) 0.60086(7) 0.25789(8)
C2_5 C 0.76413(3) 0.53566(8) 0.20770(9)
C3_5 C 0.78180(3) 0.47337(8) 0.14675(11)
C4_5 C 0.82477(3) 0.47628(8) 0.13599(10)
C5_5 C 0.85009(3) 0.54147(7) 0.18618(8)
C6_5 C 0.83242(3) 0.60376(7) 0.24712(8)
C8_5 C 0.99737(3) 0.61595(11) 0.12043(11)
C13_5 C 0.95927(3) 0.57740(10) 0.14458(10)
C14_5 C 0.91877(3) 0.61398(9) 0.15498(9)
N1_5 N 0.89166(3) 0.54317(8) 0.17777(9)
N2_5 N 0.91540(3) 0.46281(8) 0.18146(12)
N3_5 N 0.95718(3) 0.48397(9) 0.16095(12)
C15_5 C 0.77095(11) 0.6650(2) 0.3302(3)
C16_5 C 0.75377(11) 0.4037(2) 0.0898(3)
O2_3 O 0.71461(8) 0.41768(17) 0.0789(2)
O5_5 O 0.79470(8) 0.72815(17) 0.3636(2)
O7_5 O 0.84659(12) 0.9222(2) 0.6076(3)
O8_5 O 0.84098(15) 0.7483(4) 0.6981(3)
N4_5 N 0.8689(2) 0.6748(7) 0.8499(6)
C18_5 C 0.8331(2) 0.6290(7) 0.8802(7)
C19_5 C 0.8676(3) 0.7253(5) 0.7534(5)
C20_5 C 0.9108(2) 0.6679(12) 0.9081(9)
C21_5 C 0.8371(3) 0.9978(4) 0.6350(7)
O11_3 O 0.78539(8) 0.91768(17) 0.4211(2)
O12_3 O 0.87931(9) 0.8114(2) 0.4534(3)
O13_3 O 0.86357(9) 0.6789(2) 0.5069(3)
H1_5 H 0.87709 0.989429 0.834953
H3_5 H 0.91621 0.976862 0.749267
H7_5 H 0.910037 0.684046 0.146895
H8_5 H 0.90902 0.692007 0.985241
H9_5 H 0.933408 0.708066 0.871561
H10_5 H 0.920987 0.598519 0.910579
H14_5 H 0.807583 0.676368 0.886857
H15_5 H 0.841546 0.59687 0.953387
H16_5 H 0.82277 0.578707 0.823548
H18_5 H 0.898677 0.743479 0.732418
H19_5 H 0.852251 0.654841 0.286432
H20_5 H 0.977311 0.753012 0.141622
H21_5 H 0.730457 0.53338 0.21613
H22_5 H 0.838609 0.427482 0.088231
C1_6 C 0.21056(3) 0.60086(7) 0.24211(8)
C2_6 C 0.23587(3) 0.53566(8) 0.29230(9)
C3_6 C 0.21820(3) 0.47337(8) 0.35325(11)
C4_6 C 0.17523(3) 0.47628(8) 0.36401(10)
C5_6 C 0.14991(3) 0.54147(7) 0.31382(8)
C6_6 C 0.16758(3) 0.60376(7) 0.25288(8)
C8_6 C 0.00263(3) 0.61595(11) 0.37957(11)
C13_6 C 0.04073(3) 0.57740(10) 0.35542(10)
C14_6 C 0.08123(3) 0.61398(9) 0.34502(9)
N1_6 N 0.10834(3) 0.54317(8) 0.32223(9)
N2_6 N 0.08460(3) 0.46281(8) 0.31854(12)
N3_6 N 0.04282(3) 0.48397(9) 0.33905(12)
C15_6 C 0.22905(11) 0.6650(2) 0.1698(3)
C16_6 C 0.24623(11) 0.4037(2) 0.4102(3)
O2_4 O 0.28539(8) 0.41768(17) 0.4211(2)
O5_6 O 0.20530(8) 0.72815(17) 0.1364(2)
O11_4 O 0.21461(8) 0.91768(17) 0.0789(2)
H7_6 H 0.089963 0.684046 0.353105
H19_6 H 0.147749 0.654841 0.213568
H20_6 H 0.0226888 0.753012 0.358378
H21_6 H 0.269543 0.53338 0.28387
H22_6 H 0.161391 0.427482 0.411769
O7_6 O 0.15341(12) 0.9222(2) 0.8924(3)
O8_6 O 0.15902(15) 0.7483(4) 0.8019(3)
N4_6 N 0.1311(2) 0.6748(7) 0.6501(6)
C18_6 C 0.1669(2) 0.6290(7) 0.6198(7)
C19_6 C 0.1324(3) 0.7253(5) 0.7466(5)
C20_6 C 0.0892(2) 0.6679(12) 0.5919(9)
C21_6 C 0.1629(3) 0.9978(4) 0.8650(7)
H1_6 H 0.12291 0.989429 0.665047
H3_6 H 0.0837896 0.976862 0.750733
H8_6 H 0.0909795 0.692007 0.514759
H9_6 H 0.066592 0.708066 0.628439
H10_6 H 0.0790133 0.598519 0.589421
H14_6 H 0.192417 0.676368 0.613143
H15_6 H 0.158454 0.59687 0.546613
H16_6 H 0.17723 0.578707 0.676452
H18_6 H 0.101323 0.743479 0.767582
C7_6 C 0.99753(3) 0.70961(11) 0.37921(13)
C9_6 C 0.96995(3) 0.56144(12) 0.40570(13)
C10_6 C 0.93275(3) 0.60030(14) 0.43229(14)
C11_6 C 0.92810(4) 0.69140(14) 0.43240(15)
C12_6 C 0.95994(4) 0.74549(13) 0.40583(16)
C17_6 C 0.88841(12) 0.7304(3) 0.4666(3)
H11_6 H 0.907193 0.558001 0.453129
H12_6 H 0.973397 0.489179 0.405382
H13_6 H 0.955702 0.817568 0.405592
C1_7 C 0.28944(3) 0.10086(7) 0.25789(8)
C2_7 C 0.26413(3) 0.03566(8) 0.20770(9)
C5_7 C 0.35009(3) 0.04147(7) 0.18618(8)
C6_7 C 0.33242(3) 0.10376(7) 0.24712(8)
C7_7 C 0.50247(3) 0.20961(11) 0.12079(13)
C8_7 C 0.49737(3) 0.11595(11) 0.12043(11)
C9_7 C 0.53005(3) 0.06144(12) 0.09430(13)
C10_7 C 0.56725(3) 0.10030(14) 0.06771(14)
C11_7 C 0.57190(4) 0.19140(14) 0.06760(15)
C12_7 C 0.54006(4) 0.24549(13) 0.09417(16)
C13_7 C 0.45927(3) 0.07740(10) 0.14458(10)
C14_7 C 0.41877(3) 0.11398(9) 0.15498(9)
N1_7 N 0.39166(3) 0.04317(8) 0.17777(9)
C15_7 C 0.27095(11) 0.1650(2) 0.3302(3)
C17_7 C 0.61159(12) 0.2304(3) 0.0334(3)
O3_4 O 0.62069(9) 0.3114(2) 0.0466(3)
O5_7 O 0.29470(8) 0.22815(17) 0.3636(2)
O7_7 O 0.34659(12) 0.4222(2) 0.6076(3)
O8_7 O 0.34098(15) 0.2483(4) 0.6981(3)
N4_7 N 0.3689(2) 0.1748(7) 0.8499(6)
C18_7 C 0.3331(2) 0.1290(7) 0.8802(7)
C19_7 C 0.3676(3) 0.2253(5) 0.7534(5)
C20_7 C 0.4108(2) 0.1679(12) 0.9081(9)
N5_3 N 0.3652(4) 0.5573(5) 0.6979(9)
C21_7 C 0.3371(3) 0.4978(4) 0.6350(7)
C22_3 C 0.3945(4) 0.5235(7) 0.7797(7)
C23_3 C 0.3628(7) 0.6546(5) 0.6742(15)
O12_4 O 0.37931(9) 0.3114(2) 0.4534(3)
O13_4 O 0.36357(9) 0.1789(2) 0.5069(3)
H1_7 H 0.37709 0.489429 0.834953
H2_3 H 0.412303 0.57871 0.816589
H3_7 H 0.41621 0.476862 0.749267
H4_3 H 0.370271 0.665526 0.596631
H5_3 H 0.385378 0.690517 0.726869
H6_3 H 0.330999 0.678758 0.681805
H7_7 H 0.410037 0.184046 0.146895
H8_7 H 0.40902 0.192007 0.985241
H9_7 H 0.433408 0.208066 0.871561
H10_7 H 0.420987 0.0985192 0.910579
H11_7 H 0.592807 0.058001 0.046871
H13_7 H 0.544298 0.317568 0.0944077
H14_7 H 0.307583 0.176368 0.886857
H15_7 H 0.341546 0.0968699 0.953387
H16_7 H 0.32277 0.0787074 0.823548
H17_3 H 0.305366 0.521794 0.610318
H18_7 H 0.398677 0.243479 0.732418
H19_7 H 0.352251 0.154841 0.286432
H20_7 H 0.477311 0.253012 0.141622
H21_7 H 0.230457 0.0333796 0.21613
O4_4 O 0.63643(9) 0.1789(2) 0.9931(3)
C3_7 C 0.28180(3) 0.97337(8) 0.14675(11)
C4_7 C 0.32477(3) 0.97628(8) 0.13599(10)
N2_7 N 0.41540(3) 0.96281(8) 0.18146(12)
N3_7 N 0.45718(3) 0.98397(9) 0.16095(12)
C16_7 C 0.25377(11) 0.9037(2) 0.0898(3)
H12_7 H 0.526603 0.989179 0.0946178
H22_7 H 0.338609 0.927482 0.088231
C1_8 C 0.71056(3) 0.10086(7) 0.24211(8)
C2_8 C 0.73587(3) 0.03566(8) 0.29230(9)
C5_8 C 0.64991(3) 0.04147(7) 0.31382(8)
C6_8 C 0.66758(3) 0.10376(7) 0.25288(8)
C7_8 C 0.49753(3) 0.20961(11) 0.37921(13)
C8_8 C 0.50263(3) 0.11595(11) 0.37957(11)
C9_8 C 0.46995(3) 0.06144(12) 0.40570(13)
C10_8 C 0.43275(3) 0.10030(14) 0.43229(14)
C11_8 C 0.42810(4) 0.19140(14) 0.43240(15)
C12_8 C 0.45994(4) 0.24549(13) 0.40583(16)
C13_8 C 0.54073(3) 0.07740(10) 0.35542(10)
C14_8 C 0.58123(3) 0.11398(9) 0.34502(9)
N1_8 N 0.60834(3) 0.04317(8) 0.32223(9)
C15_8 C 0.72905(11) 0.1650(2) 0.1698(3)
C17_8 C 0.38841(12) 0.2304(3) 0.4666(3)
O5_8 O 0.70530(8) 0.22815(17) 0.1364(2)
H7_8 H 0.589963 0.184046 0.353105
H11_8 H 0.407193 0.058001 0.453129
H13_8 H 0.455702 0.317568 0.405592
H19_8 H 0.647749 0.154841 0.213568
H20_8 H 0.522689 0.253012 0.358378
H21_8 H 0.769543 0.0333796 0.28387
O7_8 O 0.65341(12) 0.4222(2) 0.8924(3)
O8_8 O 0.65902(15) 0.2483(4) 0.8019(3)
N4_8 N 0.6311(2) 0.1748(7) 0.6501(6)
C18_8 C 0.6669(2) 0.1290(7) 0.6198(7)
C19_8 C 0.6324(3) 0.2253(5) 0.7466(5)
C20_8 C 0.5892(2) 0.1679(12) 0.5919(9)
N5_4 N 0.6348(4) 0.5573(5) 0.8021(9)
C21_8 C 0.6629(3) 0.4978(4) 0.8650(7)
C22_4 C 0.6055(4) 0.5235(7) 0.7203(7)
C23_4 C 0.6372(7) 0.6546(5) 0.8258(15)
H1_8 H 0.62291 0.489429 0.665047
H2_4 H 0.587697 0.57871 0.683411
H3_8 H 0.58379 0.476862 0.750733
H4_4 H 0.629729 0.665526 0.903369
H5_4 H 0.614622 0.690517 0.773131
H6_4 H 0.669001 0.678758 0.818195
H8_8 H 0.59098 0.192007 0.514759
H9_8 H 0.566592 0.208066 0.628439
H10_8 H 0.579013 0.0985192 0.589421
H14_8 H 0.692417 0.176368 0.613143
H15_8 H 0.658454 0.0968699 0.546613
H16_8 H 0.67723 0.0787074 0.676452
H17_4 H 0.694634 0.521794 0.889682
H18_8 H 0.601323 0.243479 0.767582
C3_8 C 0.71820(3) 0.97337(8) 0.35325(11)
C4_8 C 0.67523(3) 0.97628(8) 0.36401(10)
N2_8 N 0.58460(3) 0.96281(8) 0.31854(12)
N3_8 N 0.54282(3) 0.98397(9) 0.33905(12)
C16_8 C 0.74623(11) 0.9037(2) 0.4102(3)
H12_8 H 0.473397 0.989179 0.405382
H22_8 H 0.661391 0.927482 0.411769
N5_5 N 0.1348(4) 0.9427(5) 0.3021(9)
C22_5 C 0.1055(4) 0.9765(7) 0.2203(7)
C23_5 C 0.1372(7) 0.8454(5) 0.3258(15)
H2_5 H 0.0876965 0.92129 0.183411
H4_5 H 0.129729 0.834474 0.403369
H5_5 H 0.114622 0.809483 0.273131
H6_5 H 0.169001 0.821242 0.318195
H17_5 H 0.194634 0.978206 0.389682
N5_6 N 0.8652(4) 0.9427(5) 0.1979(9)
C22_6 C 0.8945(4) 0.9765(7) 0.2797(7)
C23_6 C 0.8628(7) 0.8454(5) 0.1742(15)
H2_6 H 0.912303 0.92129 0.316589
H4_6 H 0.870271 0.834474 0.0966313
H5_6 H 0.885378 0.809483 0.226869
H6_6 H 0.830999 0.821242 0.181805
H17_6 H 0.805366 0.978206 0.110318
N5_7 N 0.8652(4) 0.0573(5) 0.6979(9)
C22_7 C 0.8945(4) 0.0235(7) 0.7797(7)
C23_7 C 0.8628(7) 0.1546(5) 0.6742(15)
H2_7 H 0.912303 0.0787103 0.816589
H4_7 H 0.870271 0.165526 0.596631
H5_7 H 0.885378 0.190517 0.726869
H6_7 H 0.830999 0.178758 0.681805
H17_7 H 0.805366 0.0217936 0.610318
N5_8 N 0.1348(4) 0.0573(5) 0.8021(9)
C22_8 C 0.1055(4) 0.0235(7) 0.7203(7)
C23_8 C 0.1372(7) 0.1546(5) 0.8258(15)
H2_8 H 0.0876965 0.0787103 0.683411
H4_8 H 0.129729 0.165526 0.903369
H5_8 H 0.114622 0.190517 0.773131
H6_8 H 0.169001 0.178758 0.818195
H17_8 H 0.194634 0.0217936 0.889682
loop_
_geom_bond_atom_site_label_1
_geom_bond_atom_site_label_2
_geom_bond_site_symmetry_1
_geom_bond_site_symmetry_2
C1 C2 1_555 1_555
C2 C3 1_555 1_555
C3 C4 1_555 1_555
C4 C5 1_555 1_555
C5 C6 1_555 1_555
C6 C1 1_555 1_555
C13 C8 1_555 1_555
C14 C13 1_555 1_555
N1 C5 1_555 1_555
N2 N1 1_555 1_555
N3 C13 1_555 1_555
C15 C1 1_555 1_555
C16 C3 1_555 1_555
Eu1 O5 1_555 1_555
O1 C16 1_555 1_555
O2 C16 1_555 1_555
O5 C15 1_555 1_555
O6 C15 1_555 1_555
O7 Eu1 1_555 1_555
O8 Eu1 1_555 1_555
N4 C18 1_555 1_555
C19 O8 1_555 1_555
C20 N4 1_555 1_555
C21 O7 1_555 1_555
Eu4 O1 1_555 1_555
Eu5 O6 1_555 1_555
O9 Eu1 1_555 1_555
O10 Eu1 1_555 1_555
O11 Eu1 1_555 1_555
O12 Eu1 1_555 1_555
O13 Eu1 1_555 1_555
O14 Eu1 1_555 1_555
C14 N1 1_555 1_555
N2 N3 1_555 1_555
N4 C19 1_555 1_555
Eu5 O9 1_555 1_555
Eu5 O10 1_555 1_555
C14 H7 1_555 1_555
C20 H8 1_555 1_555
C20 H9 1_555 1_555
C20 H10 1_555 1_555
C18 H14 1_555 1_555
C18 H15 1_555 1_555
C18 H16 1_555 1_555
C19 H18 1_555 1_555
C6 H19 1_555 1_555
C2 H21 1_555 1_555
C4 H22 1_555 1_555
O4 Eu2 1_555 1_555
C9 C10 1_555 1_555
C10 C11 1_555 1_555
C11 C12 1_555 1_555
C12 C7 1_555 1_555
C17 C11 1_555 1_555
O3 C17 1_555 1_555
C10 H11 1_555 1_555
C9 H12 1_555 1_555
C12 H13 1_555 1_555
C9_2 C10_2 1_555 1_555
C10_2 C11_2 1_555 1_555
C11_2 C12_2 1_555 1_555
C12_2 C7_2 1_555 1_555
C17_2 C11_2 1_555 1_555
O12 C17_2 1_555 1_555
O13 C17_2 1_555 1_555
C10_2 H11_2 1_555 1_555
C9_2 H12_2 1_555 1_555
C12_2 H13_2 1_555 1_555
O7_2 Eu2 1_555 1_555
O8_2 Eu2 1_555 1_555
N4_2 C18_2 1_555 1_555
C19_2 O8_2 1_555 1_555
C20_2 N4_2 1_555 1_555
C21_2 O7_2 1_555 1_555
O10_2 Eu2 1_555 1_555
O14_2 Eu2 1_555 1_555
N4_2 C19_2 1_555 1_555
C20_2 H8_2 1_555 1_555
C20_2 H9_2 1_555 1_555
C20_2 H10_2 1_555 1_555
C18_2 H14_2 1_555 1_555
C18_2 H15_2 1_555 1_555
C18_2 H16_2 1_555 1_555
C19_2 H18_2 1_555 1_555
C1_2 C2_2 1_555 1_555
C2_2 C3_2 1_555 1_555
C3_2 C4_2 1_555 1_555
C4_2 C5_2 1_555 1_555
C5_2 C6_2 1_555 1_555
C6_2 C1_2 1_555 1_555
C13_2 C8_2 1_555 1_555
C14_2 C13_2 1_555 1_555
N1_2 C5_2 1_555 1_555
N2_2 N1_2 1_555 1_555
N3_2 C13_2 1_555 1_555
C15_2 C1_2 1_555 1_555
C16_2 C3_2 1_555 1_555
O1_2 C16_2 1_555 1_555
O2_2 C16_2 1_555 1_555
O5_2 C15_2 1_555 1_555
O6_2 C15_2 1_555 1_555
Eu3_2 O1_2 1_555 1_555
Eu4_2 O1_2 1_555 1_555
Eu5_2 O6_2 1_555 1_555
C14_2 N1_2 1_555 1_555
N2_2 N3_2 1_555 1_555
O2_2 Eu3_2 1_555 1_555
Eu5_2 O9_2 1_555 1_555
C14_2 H7_2 1_555 1_555
C6_2 H19_2 1_555 1_555
C2_2 H21_2 1_555 1_555
C4_2 H22_2 1_555 1_555
C3_3 C4_3 1_555 1_555
C16_3 C3_3 1_555 1_555
O9_2 C16_3 1_555 1_555
O11_2 C16_3 1_555 1_555
N2_3 N3_3 1_555 1_555
C4_3 H22_3 1_555 1_555
O4_2 Eu3 1_555 1_555
C1_3 C2_3 1_555 1_555
C5_3 C6_3 1_555 1_555
C6_3 C1_3 1_555 1_555
C7_3 C8_3 1_555 1_555
C8_3 C9_3 1_555 1_555
C9_3 C10_3 1_555 1_555
C10_3 C11_3 1_555 1_555
C11_3 C12_3 1_555 1_555
C12_3 C7_3 1_555 1_555
C13_3 C8_3 1_555 1_555
C14_3 C13_3 1_555 1_555
N1_3 C5_3 1_555 1_555
C15_3 C1_3 1_555 1_555
C17_3 C11_3 1_555 1_555
Eu3_2 O5_3 1_555 1_555
O3_2 C17_3 1_555 1_555
O5_3 C15_3 1_555 1_555
O6_3 C15_3 1_555 1_555
O7_3 Eu3_2 1_555 1_555
O8_3 Eu3_2 1_555 1_555
N4_3 C18_3 1_555 1_555
C19_3 O8_3 1_555 1_555
C20_3 N4_3 1_555 1_555
N5 C21_3 1_555 1_555
C21_3 O7_3 1_555 1_555
C22 N5 1_555 1_555
C23 N5 1_555 1_555
Eu4_2 O6_3 1_555 1_555
O10_3 Eu3_2 1_555 1_555
O12_2 Eu3_2 1_555 1_555
O13_2 Eu3_2 1_555 1_555
O14_3 Eu3_2 1_555 1_555
C14_3 N1_3 1_555 1_555
N4_3 C19_3 1_555 1_555
Eu4_2 O10_3 1_555 1_555
C22 H1_3 1_555 1_555
C22 H2 1_555 1_555
C22 H3_3 1_555 1_555
C23 H4 1_555 1_555
C23 H5 1_555 1_555
C23 H6 1_555 1_555
C14_3 H7_3 1_555 1_555
C20_3 H8_3 1_555 1_555
C20_3 H9_3 1_555 1_555
C20_3 H10_3 1_555 1_555
C10_3 H11_3 1_555 1_555
C12_3 H13_3 1_555 1_555
C18_3 H14_3 1_555 1_555
C18_3 H15_3 1_555 1_555
C18_3 H16_3 1_555 1_555
C21_3 H17 1_555 1_555
C19_3 H18_3 1_555 1_555
C6_3 H19_3 1_555 1_555
C7_3 H20_3 1_555 1_555
C2_3 H21_3 1_555 1_555
C3_4 C4_4 1_555 1_555
C16_4 C3_4 1_555 1_555
O9 C16_4 1_555 1_555
O11 C16_4 1_555 1_555
N2_4 N3_4 1_555 1_555
C4_4 H22_4 1_555 1_555
O7_4 Eu3 1_555 1_555
O8_4 Eu3 1_555 1_555
N4_4 C18_4 1_555 1_555
C19_4 O8_4 1_555 1_555
C20_4 N4_4 1_555 1_555
N5_2 C21_4 1_555 1_555
C21_4 O7_4 1_555 1_555
C22_2 N5_2 1_555 1_555
C23_2 N5_2 1_555 1_555
O10_4 Eu3 1_555 1_555
O14_4 Eu3 1_555 1_555
N4_4 C19_4 1_555 1_555
C22_2 H1_4 1_555 1_555
C22_2 H2_2 1_555 1_555
C22_2 H3_4 1_555 1_555
C23_2 H4_2 1_555 1_555
C23_2 H5_2 1_555 1_555
C23_2 H6_2 1_555 1_555
C20_4 H8_4 1_555 1_555
C20_4 H9_4 1_555 1_555
C20_4 H10_4 1_555 1_555
C18_4 H14_4 1_555 1_555
C18_4 H15_4 1_555 1_555
C18_4 H16_4 1_555 1_555
C21_4 H17_2 1_555 1_555
C19_4 H18_4 1_555 1_555
C1_4 C2_4 1_555 1_555
C5_4 C6_4 1_555 1_555
C6_4 C1_4 1_555 1_555
C7_4 C8_4 1_555 1_555
C8_4 C9_4 1_555 1_555
C9_4 C10_4 1_555 1_555
C10_4 C11_4 1_555 1_555
C11_4 C12_4 1_555 1_555
C12_4 C7_4 1_555 1_555
C13_4 C8_4 1_555 1_555
C14_4 C13_4 1_555 1_555
N1_4 C5_4 1_555 1_555
C15_4 C1_4 1_555 1_555
C17_4 C11_4 1_555 1_555
O12_2 C17_4 1_555 1_555
O13_2 C17_4 1_555 1_555
O5_4 C15_4 1_555 1_555
O6_4 C15_4 1_555 1_555
Eu4 O6_4 1_555 1_555
C14_4 N1_4 1_555 1_555
C14_4 H7_4 1_555 1_555
C10_4 H11_4 1_555 1_555
C12_4 H13_4 1_555 1_555
C6_4 H19_4 1_555 1_555
C7_4 H20_4 1_555 1_555
C2_4 H21_4 1_555 1_555
C9_5 C10_5 1_555 1_555
C10_5 C11_5 1_555 1_555
C11_5 C12_5 1_555 1_555
C12_5 C7_5 1_555 1_555
C17_5 C11_5 1_555 1_555
O3_3 C17_5 1_555 1_555
C10_5 H11_5 1_555 1_555
C9_5 H12_5 1_555 1_555
C12_5 H13_5 1_555 1_555
O4_3 Eu4 1_555 1_555
C1_5 C2_5 1_555 1_555
C2_5 C3_5 1_555 1_555
C3_5 C4_5 1_555 1_555
C4_5 C5_5 1_555 1_555
C5_5 C6_5 1_555 1_555
C6_5 C1_5 1_555 1_555
C13_5 C8_5 1_555 1_555
C14_5 C13_5 1_555 1_555
N1_5 C5_5 1_555 1_555
N2_5 N1_5 1_555 1_555
N3_5 C13_5 1_555 1_555
C15_5 C1_5 1_555 1_555
C16_5 C3_5 1_555 1_555
Eu4_2 O5_5 1_555 1_555
O10_2 C16_5 1_555 1_555
O2_3 C16_5 1_555 1_555
O5_5 C15_5 1_555 1_555
O14_3 C15_5 1_555 1_555
O7_5 Eu4_2 1_555 1_555
O8_5 Eu4_2 1_555 1_555
N4_5 C18_5 1_555 1_555
C19_5 O8_5 1_555 1_555
C20_5 N4_5 1_555 1_555
C21_5 O7_5 1_555 1_555
O11_3 Eu4_2 1_555 1_555
O12_3 Eu4_2 1_555 1_555
O13_3 Eu4_2 1_555 1_555
C14_5 N1_5 1_555 1_555
N2_5 N3_5 1_555 1_555
N4_5 C19_5 1_555 1_555
C14_5 H7_5 1_555 1_555
C20_5 H8_5 1_555 1_555
C20_5 H9_5 1_555 1_555
C20_5 H10_5 1_555 1_555
C18_5 H14_5 1_555 1_555
C18_5 H15_5 1_555 1_555
C18_5 H16_5 1_555 1_555
C19_5 H18_5 1_555 1_555
C6_5 H19_5 1_555 1_555
C2_5 H21_5 1_555 1_555
C4_5 H22_5 1_555 1_555
C1_6 C2_6 1_555 1_555
C2_6 C3_6 1_555 1_555
C3_6 C4_6 1_555 1_555
C4_6 C5_6 1_555 1_555
C5_6 C6_6 1_555 1_555
C6_6 C1_6 1_555 1_555
C13_6 C8_6 1_555 1_555
C14_6 C13_6 1_555 1_555
N1_6 C5_6 1_555 1_555
N2_6 N1_6 1_555 1_555
N3_6 C13_6 1_555 1_555
C15_6 C1_6 1_555 1_555
C16_6 C3_6 1_555 1_555
O10 C16_6 1_555 1_555
O2_4 C16_6 1_555 1_555
O5_6 C15_6 1_555 1_555
O14_4 C15_6 1_555 1_555
C14_6 N1_6 1_555 1_555
N2_6 N3_6 1_555 1_555
O2_4 Eu5 1_555 1_555
C14_6 H7_6 1_555 1_555
C6_6 H19_6 1_555 1_555
C2_6 H21_6 1_555 1_555
C4_6 H22_6 1_555 1_555
O7_6 Eu4 1_555 1_555
O8_6 Eu4 1_555 1_555
N4_6 C18_6 1_555 1_555
C19_6 O8_6 1_555 1_555
C20_6 N4_6 1_555 1_555
C21_6 O7_6 1_555 1_555
N4_6 C19_6 1_555 1_555
C20_6 H8_6 1_555 1_555
C20_6 H9_6 1_555 1_555
C20_6 H10_6 1_555 1_555
C18_6 H14_6 1_555 1_555
C18_6 H15_6 1_555 1_555
C18_6 H16_6 1_555 1_555
C19_6 H18_6 1_555 1_555
C9_6 C10_6 1_555 1_555
C10_6 C11_6 1_555 1_555
C11_6 C12_6 1_555 1_555
C12_6 C7_6 1_555 1_555
C17_6 C11_6 1_555 1_555
O12_3 C17_6 1_555 1_555
O13_3 C17_6 1_555 1_555
C10_6 H11_6 1_555 1_555
C9_6 H12_6 1_555 1_555
C12_6 H13_6 1_555 1_555
C1_7 C2_7 1_555 1_555
C5_7 C6_7 1_555 1_555
C6_7 C1_7 1_555 1_555
C7_7 C8_7 1_555 1_555
C8_7 C9_7 1_555 1_555
C9_7 C10_7 1_555 1_555
C10_7 C11_7 1_555 1_555
C11_7 C12_7 1_555 1_555
C12_7 C7_7 1_555 1_555
C13_7 C8_7 1_555 1_555
C14_7 C13_7 1_555 1_555
N1_7 C5_7 1_555 1_555
C15_7 C1_7 1_555 1_555
C17_7 C11_7 1_555 1_555
Eu5 O5_7 1_555 1_555
O3_4 C17_7 1_555 1_555
O5_7 C15_7 1_555 1_555
O14 C15_7 1_555 1_555
O7_7 Eu5 1_555 1_555
O8_7 Eu5 1_555 1_555
N4_7 C18_7 1_555 1_555
C19_7 O8_7 1_555 1_555
C20_7 N4_7 1_555 1_555
N5_3 C21_7 1_555 1_555
C21_7 O7_7 1_555 1_555
C22_3 N5_3 1_555 1_555
C23_3 N5_3 1_555 1_555
O12_4 Eu5 1_555 1_555
O13_4 Eu5 1_555 1_555
C14_7 N1_7 1_555 1_555
N4_7 C19_7 1_555 1_555
C22_3 H1_7 1_555 1_555
C22_3 H2_3 1_555 1_555
C22_3 H3_7 1_555 1_555
C23_3 H4_3 1_555 1_555
C23_3 H5_3 1_555 1_555
C23_3 H6_3 1_555 1_555
C14_7 H7_7 1_555 1_555
C20_7 H8_7 1_555 1_555
C20_7 H9_7 1_555 1_555
C20_7 H10_7 1_555 1_555
C10_7 H11_7 1_555 1_555
C12_7 H13_7 1_555 1_555
C18_7 H14_7 1_555 1_555
C18_7 H15_7 1_555 1_555
C18_7 H16_7 1_555 1_555
C21_7 H17_3 1_555 1_555
C19_7 H18_7 1_555 1_555
C6_7 H19_7 1_555 1_555
C7_7 H20_7 1_555 1_555
C2_7 H21_7 1_555 1_555
O4_4 Eu5_2 1_555 1_555
C3_7 C4_7 1_555 1_555
C16_7 C3_7 1_555 1_555
O10_4 C16_7 1_555 1_555
O11_4 C16_7 1_555 1_555
N2_7 N3_7 1_555 1_555
C4_7 H22_7 1_555 1_555
C1_8 C2_8 1_555 1_555
C5_8 C6_8 1_555 1_555
C6_8 C1_8 1_555 1_555
C7_8 C8_8 1_555 1_555
C8_8 C9_8 1_555 1_555
C9_8 C10_8 1_555 1_555
C10_8 C11_8 1_555 1_555
C11_8 C12_8 1_555 1_555
C12_8 C7_8 1_555 1_555
C13_8 C8_8 1_555 1_555
C14_8 C13_8 1_555 1_555
N1_8 C5_8 1_555 1_555
C15_8 C1_8 1_555 1_555
C17_8 C11_8 1_555 1_555
O12_4 C17_8 1_555 1_555
O13_4 C17_8 1_555 1_555
O5_8 C15_8 1_555 1_555
O14_2 C15_8 1_555 1_555
C14_8 N1_8 1_555 1_555
C14_8 H7_8 1_555 1_555
C10_8 H11_8 1_555 1_555
C12_8 H13_8 1_555 1_555
C6_8 H19_8 1_555 1_555
C7_8 H20_8 1_555 1_555
C2_8 H21_8 1_555 1_555
O7_8 Eu5_2 1_555 1_555
O8_8 Eu5_2 1_555 1_555
N4_8 C18_8 1_555 1_555
C19_8 O8_8 1_555 1_555
C20_8 N4_8 1_555 1_555
N5_4 C21_8 1_555 1_555
C21_8 O7_8 1_555 1_555
C22_4 N5_4 1_555 1_555
C23_4 N5_4 1_555 1_555
N4_8 C19_8 1_555 1_555
C22_4 H1_8 1_555 1_555
C22_4 H2_4 1_555 1_555
C22_4 H3_8 1_555 1_555
C23_4 H4_4 1_555 1_555
C23_4 H5_4 1_555 1_555
C23_4 H6_4 1_555 1_555
C20_8 H8_8 1_555 1_555
C20_8 H9_8 1_555 1_555
C20_8 H10_8 1_555 1_555
C18_8 H14_8 1_555 1_555
C18_8 H15_8 1_555 1_555
C18_8 H16_8 1_555 1_555
C21_8 H17_4 1_555 1_555
C19_8 H18_8 1_555 1_555
C3_8 C4_8 1_555 1_555
C16_8 C3_8 1_555 1_555
O10_3 C16_8 1_555 1_555
O11_3 C16_8 1_555 1_555
N2_8 N3_8 1_555 1_555
C4_8 H22_8 1_555 1_555
C22_5 N5_5 1_555 1_555
C23_5 N5_5 1_555 1_555
C22_5 H2_5 1_555 1_555
C23_5 H4_5 1_555 1_555
C23_5 H5_5 1_555 1_555
C23_5 H6_5 1_555 1_555
C22_6 N5_6 1_555 1_555
C23_6 N5_6 1_555 1_555
C22_6 H2_6 1_555 1_555
C23_6 H4_6 1_555 1_555
C23_6 H5_6 1_555 1_555
C23_6 H6_6 1_555 1_555
C22_7 N5_7 1_555 1_555
C23_7 N5_7 1_555 1_555
C22_7 H2_7 1_555 1_555
C23_7 H4_7 1_555 1_555
C23_7 H5_7 1_555 1_555
C23_7 H6_7 1_555 1_555
C22_8 N5_8 1_555 1_555
C23_8 N5_8 1_555 1_555
C22_8 H2_8 1_555 1_555
C23_8 H4_8 1_555 1_555
C23_8 H5_8 1_555 1_555
C23_8 H6_8 1_555 1_555

#END
