
###############################################################################
#
# This file contains modified crystal structure data generated from the
# MOF subset of the Cambridge Structural Database (CSD) v543 
# hosted by the Cambridge Crystallographic Data Centre (CCDC).
#
# This work is licensed under the Creative Commons
# Attribution-NonCommercial-ShareAlike 4.0 International License.
# To view a copy of this license, visit
# http://creativecommons.org/licenses/by-nc-sa/4.0/
# or send a letter to
# Creative Commons, PO Box 1866, Mountain View, CA 94042, USA.
#
# CIF created using the CSD Python API on 29 September 2022
# The structure has been converted into the P1 space group
# The structure has a 3D framework
# The original CSD entry CUTBOK is in the monoclinic crystal system
# The framework has been calculated to contain at least 10.0% void space
# The void calculation uses a probe of radius 1.32A, grid spacing 0.4
# H atom positions have been added when not included in the experimental data
#
###############################################################################

data_CUTBOK
_chemical_formula_moiety         '(C184 H176 N40 O64 Tb8)n'
_symmetry_cell_setting           triclinic
_symmetry_space_group_name_H-M   'P 1'
_symmetry_Int_Tables_number      1
_space_group_name_Hall           'P 1'
loop_
_symmetry_equiv_pos_site_id
_symmetry_equiv_pos_as_xyz
1 x,y,z
_cell_length_a                   31.6491(17)
_cell_length_b                   14.9143(9)
_cell_length_c                   13.2656(7)
_cell_angle_alpha                90
_cell_angle_beta                 96.4660(10)
_cell_angle_gamma                90
_cell_volume                     6221.85
loop_
_atom_site_label
_atom_site_type_symbol
_atom_site_fract_x
_atom_site_fract_y
_atom_site_fract_z
Tb1 Tb 0.189481(6) 0.205447(15) 0.469361(17)
O1 O 0.12167(14) 0.1883(3) 0.5448(4)
O2 O 0.13583(14) 0.3171(3) 0.4858(4)
O4 O 0.1539(3) 0.0731(5) 0.3986(7)
O5 O 0.1578(4) 0.2449(8) 0.3041(6)
C8 C 0.00246(4) 0.28895(12) 0.62054(15)
C9 C 0.03979(5) 0.25103(14) 0.59405(17)
C10 C 0.07204(4) 0.30570(15) 0.56584(17)
C11 C 0.06695(4) 0.39828(15) 0.56413(16)
C12 C 0.02964(4) 0.43619(13) 0.59061(14)
C17 C 0.11212(5) 0.26660(17) 0.5309(2)
N5 N 0.13633(8) 0.3366(3) 0.1346(2)
C21 C 0.14504(7) 0.2780(3) 0.2183(2)
C22 C 0.17065(8) 0.3735(3) 0.1025(2)
C23 C 0.09380(8) 0.3392(3) 0.10573(19)
O9 O 0.20445(11) 0.2761(2) 0.6288(3)
O10 O 0.23482(11) 0.1451(3) 0.3569(3)
O11 O 0.27052(11) 0.1672(2) 0.5602(3)
O12 O 0.22948(11) 0.3328(2) 0.4398(3)
O13 O 0.21508(11) 0.0854(3) 0.5830(3)
H4 H 0.0256638 0.508724 0.589263
H6 H 0.179449 0.278 0.2183
H8 H 0.191386 0.320968 0.0791849
H9 H 0.161074 0.417326 0.0383164
H10 H 0.187596 0.412425 0.16371
H11 H 0.0775029 0.363153 0.168592
H12 H 0.0872724 0.384353 0.041346
H13 H 0.0825167 0.272179 0.084099
H14 H 0.140808 0.0164043 0.173922
H16 H 0.0965911 0.00772385 0.245035
H18 H 0.0437695 0.178497 0.595397
H19 H 0.0922096 0.441113 0.542031
Tb2 Tb 0.810519(6) 0.205447(15) 0.030639(17)
O3 O 0.79555(11) 0.2761(2) 0.8712(3)
O6 O 0.73482(11) 0.3549(3) 0.8569(3)
O7 O 0.77052(11) 0.6672(2) 0.5602(3)
O8 O 0.71508(11) 0.5854(3) 0.5830(3)
C1 C 0.85011(4) 0.45872(9) 0.68881(9)
C2 C 0.82475(4) 0.52474(9) 0.63894(11)
C3 C 0.78176(4) 0.52940(10) 0.65123(12)
C4 C 0.76414(4) 0.46803(11) 0.71339(12)
C5 C 0.78951(4) 0.40201(11) 0.76326(11)
C6 C 0.83249(4) 0.39735(10) 0.75097(10)
C7 C 0.99739(4) 0.38153(12) 0.61882(13)
N1 N 0.89466(4) 0.45642(9) 0.67705(9)
N2 N 0.91741(4) 0.53331(9) 0.68134(11)
N3 N 0.95549(4) 0.51186(10) 0.66253(12)
C13 C 0.95794(4) 0.42264(10) 0.64489(11)
C14 C 0.91844(4) 0.38390(9) 0.65767(10)
C15 C 0.75439(4) 0.60020(12) 0.59490(14)
C16 C 0.77199(4) 0.33958(13) 0.83716(14)
Tb3 Tb 0.689481(6) 0.705447(15) 0.469361(17)
Tb4 Tb 0.810519(6) 0.794553(15) 0.530639(17)
Tb5 Tb 0.689481(6) 0.294553(15) 0.969361(17)
H1 H 0.730463 0.471673 0.723017
H2 H 0.852362 0.345621 0.790037
H3 H 0.838556 0.572815 0.590241
H5 H 0.977196 0.246128 0.642634
H17 H 0.909213 0.313545 0.65318
Tb3_2 Tb 0.310519(6) 0.705447(15) 0.030639(17)
O6_2 O 0.26518(11) 0.3549(3) 0.6431(3)
O7_2 O 0.22948(11) 0.6672(2) 0.9398(3)
O8_2 O 0.28492(11) 0.5854(3) 0.9170(3)
C1_2 C 0.14989(4) 0.45872(9) 0.81119(9)
C2_2 C 0.17525(4) 0.52474(9) 0.86106(11)
C3_2 C 0.21824(4) 0.52940(10) 0.84877(12)
C4_2 C 0.23586(4) 0.46803(11) 0.78661(12)
C5_2 C 0.21049(4) 0.40201(11) 0.73674(11)
C6_2 C 0.16751(4) 0.39735(10) 0.74903(10)
C7_2 C 0.00261(4) 0.38153(12) 0.88118(13)
N1_2 N 0.10534(4) 0.45642(9) 0.82295(9)
N2_2 N 0.08259(4) 0.53331(9) 0.81866(11)
N3_2 N 0.04451(4) 0.51186(10) 0.83747(12)
C13_2 C 0.04206(4) 0.42264(10) 0.85511(11)
C14_2 C 0.08156(4) 0.38390(9) 0.84233(10)
C15_2 C 0.24561(4) 0.60020(12) 0.90510(14)
C16_2 C 0.22801(4) 0.33958(13) 0.66284(14)
Tb4_2 Tb 0.189481(6) 0.794553(15) 0.969361(17)
Tb5_2 Tb 0.310519(6) 0.294553(15) 0.530639(17)
H1_2 H 0.269537 0.471673 0.776983
H2_2 H 0.147638 0.345621 0.709963
H3_2 H 0.161444 0.572815 0.909759
H5_2 H 0.0228044 0.246128 0.857366
H17_2 H 0.0907871 0.313545 0.84682
O2_2 O 0.86417(14) 0.3171(3) 0.0142(4)
O4_2 O 0.8461(3) 0.0731(5) 0.1014(7)
O5_2 O 0.8422(4) 0.2449(8) 0.1959(6)
N5_2 N 0.86367(8) 0.3366(3) 0.3654(2)
C21_2 C 0.85496(7) 0.2780(3) 0.2817(2)
C22_2 C 0.82935(8) 0.3735(3) 0.3975(2)
C23_2 C 0.90620(8) 0.3392(3) 0.39427(19)
O10_2 O 0.76518(11) 0.1451(3) 0.1431(3)
O12_2 O 0.77052(11) 0.3328(2) 0.0602(3)
H6_2 H 0.820551 0.278 0.2817
H8_2 H 0.808614 0.320968 0.420815
H9_2 H 0.838926 0.417326 0.461684
H10_2 H 0.812404 0.412425 0.33629
H11_2 H 0.922497 0.363153 0.331408
H12_2 H 0.912728 0.384353 0.458654
H13_2 H 0.917483 0.272179 0.415901
H14_2 H 0.859192 0.0164043 0.326078
H16_2 H 0.903409 0.00772385 0.254965
O1_2 O 0.87833(14) 0.1883(3) 0.9552(4)
C8_2 C 0.99754(4) 0.28895(12) 0.87946(15)
C9_2 C 0.96021(5) 0.25103(14) 0.90595(17)
C10_2 C 0.92796(4) 0.30570(15) 0.93416(17)
C11_2 C 0.93305(4) 0.39828(15) 0.93587(16)
C12_2 C 0.97036(4) 0.43619(13) 0.90939(14)
C17_2 C 0.88788(5) 0.26660(17) 0.9691(2)
O11_2 O 0.72948(11) 0.1672(2) 0.9398(3)
O13_2 O 0.78492(11) 0.0854(3) 0.9170(3)
H4_2 H 0.974336 0.508724 0.910737
H18_2 H 0.95623 0.178497 0.904603
H19_2 H 0.90779 0.441113 0.957969
C2_3 C 0.32475(4) 0.02474(9) 0.63894(11)
C3_3 C 0.28176(4) 0.02940(10) 0.65123(12)
N2_3 N 0.41741(4) 0.03331(9) 0.68134(11)
N3_3 N 0.45549(4) 0.01186(10) 0.66253(12)
C15_3 C 0.25439(4) 0.10020(12) 0.59490(14)
H3_3 H 0.338556 0.0728148 0.590241
H4_3 H 0.525664 0.00872381 0.589263
O1_3 O 0.62167(14) 0.6883(3) 0.5448(4)
O2_3 O 0.63583(14) 0.8171(3) 0.4858(4)
O3_2 O 0.29555(11) 0.7761(2) 0.8712(3)
O4_3 O 0.6539(3) 0.5731(5) 0.3986(7)
O5_3 O 0.6578(4) 0.7449(8) 0.3041(6)
O6_3 O 0.23482(11) 0.8549(3) 0.8569(3)
C1_3 C 0.35011(4) 0.95872(9) 0.68881(9)
C4_3 C 0.26414(4) 0.96803(11) 0.71339(12)
C5_3 C 0.28951(4) 0.90201(11) 0.76326(11)
C6_3 C 0.33249(4) 0.89735(10) 0.75097(10)
C7_3 C 0.49739(4) 0.88153(12) 0.61882(13)
C8_3 C 0.50246(4) 0.78895(12) 0.62054(15)
C9_3 C 0.53979(5) 0.75103(14) 0.59405(17)
C10_3 C 0.57204(4) 0.80570(15) 0.56584(17)
C11_3 C 0.56695(4) 0.89828(15) 0.56413(16)
C12_3 C 0.52964(4) 0.93619(13) 0.59061(14)
N1_3 N 0.39466(4) 0.95642(9) 0.67705(9)
C13_3 C 0.45794(4) 0.92264(10) 0.64489(11)
C14_3 C 0.41844(4) 0.88390(9) 0.65767(10)
C16_3 C 0.27199(4) 0.83958(13) 0.83716(14)
C17_3 C 0.61212(5) 0.76660(17) 0.5309(2)
N4 N 0.65329(9) 0.4399(2) 0.3128(3)
C18 C 0.67127(8) 0.4984(2) 0.3792(3)
C19 C 0.66569(10) 0.3397(2) 0.3373(4)
C20 C 0.62346(9) 0.4719(3) 0.2197(3)
N5_3 N 0.63633(8) 0.8366(3) 0.1346(2)
C21_3 C 0.64504(7) 0.7780(3) 0.2183(2)
C22_3 C 0.67065(8) 0.8735(3) 0.1025(2)
C23_3 C 0.59380(8) 0.8392(3) 0.10573(19)
O9_2 O 0.70445(11) 0.7761(2) 0.6288(3)
O10_3 O 0.73482(11) 0.6451(3) 0.3569(3)
O12_3 O 0.72948(11) 0.8328(2) 0.4398(3)
H1_3 H 0.230463 0.971673 0.723017
H2_3 H 0.352362 0.845621 0.790037
H5_3 H 0.477196 0.746128 0.642634
H6_3 H 0.679449 0.778 0.2183
H7 H 0.702286 0.482345 0.419266
H8_3 H 0.691386 0.820968 0.0791849
H9_3 H 0.661074 0.917326 0.0383164
H10_3 H 0.687596 0.912425 0.16371
H11_3 H 0.577503 0.863153 0.168592
H12_3 H 0.587272 0.884353 0.041346
H13_3 H 0.582517 0.772179 0.084099
H14_3 H 0.640808 0.516404 0.173922
H15 H 0.611931 0.414152 0.174449
H16_3 H 0.596591 0.507724 0.245035
H17_3 H 0.409213 0.813545 0.65318
H18_3 H 0.54377 0.678497 0.595397
H19_3 H 0.59221 0.941113 0.542031
H20 H 0.656142 0.321624 0.410982
H21 H 0.649576 0.296273 0.279155
H22 H 0.699954 0.331691 0.338759
C2_4 C 0.67525(4) 0.02474(9) 0.86106(11)
C3_4 C 0.71824(4) 0.02940(10) 0.84877(12)
N2_4 N 0.58259(4) 0.03331(9) 0.81866(11)
N3_4 N 0.54451(4) 0.01186(10) 0.83747(12)
C15_4 C 0.74561(4) 0.10020(12) 0.90510(14)
H3_4 H 0.661444 0.0728148 0.909759
H4_4 H 0.474336 0.00872381 0.910737
O2_4 O 0.36417(14) 0.8171(3) 0.0142(4)
O4_4 O 0.3461(3) 0.5731(5) 0.1014(7)
O5_4 O 0.3422(4) 0.7449(8) 0.1959(6)
N4_2 N 0.34671(9) 0.4399(2) 0.1872(3)
C18_2 C 0.32873(8) 0.4984(2) 0.1208(3)
C19_2 C 0.33431(10) 0.3397(2) 0.1627(4)
C20_2 C 0.37654(9) 0.4719(3) 0.2803(3)
N5_4 N 0.36367(8) 0.8366(3) 0.3654(2)
C21_4 C 0.35496(7) 0.7780(3) 0.2817(2)
C22_4 C 0.32935(8) 0.8735(3) 0.3975(2)
C23_4 C 0.40620(8) 0.8392(3) 0.39427(19)
O10_4 O 0.26518(11) 0.6451(3) 0.1431(3)
O12_4 O 0.27052(11) 0.8328(2) 0.0602(3)
H6_4 H 0.320551 0.778 0.2817
H7_2 H 0.297714 0.482345 0.0807342
H8_4 H 0.308614 0.820968 0.420815
H9_4 H 0.338926 0.917326 0.461684
H10_4 H 0.312404 0.912425 0.33629
H11_4 H 0.422497 0.863153 0.331408
H12_4 H 0.412728 0.884353 0.458654
H13_4 H 0.417483 0.772179 0.415901
H14_4 H 0.359192 0.516404 0.326078
H15_2 H 0.388069 0.414152 0.325551
H16_4 H 0.403409 0.507724 0.254965
H20_2 H 0.343858 0.321624 0.0890176
H21_2 H 0.350424 0.296273 0.220845
H22_2 H 0.300046 0.331691 0.161241
O1_4 O 0.37833(14) 0.6883(3) 0.9552(4)
O6_4 O 0.76518(11) 0.8549(3) 0.6431(3)
C1_4 C 0.64989(4) 0.95872(9) 0.81119(9)
C4_4 C 0.73586(4) 0.96803(11) 0.78661(12)
C5_4 C 0.71049(4) 0.90201(11) 0.73674(11)
C6_4 C 0.66751(4) 0.89735(10) 0.74903(10)
C7_4 C 0.50261(4) 0.88153(12) 0.88118(13)
C8_4 C 0.49754(4) 0.78895(12) 0.87946(15)
C9_4 C 0.46021(5) 0.75103(14) 0.90595(17)
C10_4 C 0.42796(4) 0.80570(15) 0.93416(17)
C11_4 C 0.43305(4) 0.89828(15) 0.93587(16)
C12_4 C 0.47036(4) 0.93619(13) 0.90939(14)
N1_4 N 0.60534(4) 0.95642(9) 0.82295(9)
C13_4 C 0.54206(4) 0.92264(10) 0.85511(11)
C14_4 C 0.58156(4) 0.88390(9) 0.84233(10)
C16_4 C 0.72801(4) 0.83958(13) 0.66284(14)
C17_4 C 0.38788(5) 0.76660(17) 0.9691(2)
H1_4 H 0.769537 0.971673 0.776983
H2_4 H 0.647638 0.845621 0.709963
H5_4 H 0.522804 0.746128 0.857366
H17_4 H 0.590787 0.813545 0.84682
H18_4 H 0.45623 0.678497 0.904603
H19_4 H 0.40779 0.941113 0.957969
O3_3 O 0.20445(11) 0.7239(2) 0.1288(3)
O8_3 O 0.28492(11) 0.4146(3) 0.4170(3)
C1_5 C 0.14989(4) 0.54128(9) 0.31119(9)
C2_5 C 0.17525(4) 0.47526(9) 0.36106(11)
C3_5 C 0.21824(4) 0.47060(10) 0.34877(12)
C4_5 C 0.23586(4) 0.53197(11) 0.28661(12)
C5_5 C 0.21049(4) 0.59799(11) 0.23674(11)
C6_5 C 0.16751(4) 0.60265(10) 0.24903(10)
C7_5 C 0.00261(4) 0.61847(12) 0.38118(13)
N1_5 N 0.10534(4) 0.54358(9) 0.32295(9)
N2_5 N 0.08259(4) 0.46669(9) 0.31866(11)
N3_5 N 0.04451(4) 0.48814(10) 0.33747(12)
C13_5 C 0.04206(4) 0.57736(10) 0.35511(11)
C14_5 C 0.08156(4) 0.61610(9) 0.34233(10)
C15_5 C 0.24561(4) 0.39980(12) 0.40510(14)
C16_5 C 0.22801(4) 0.66042(13) 0.16284(14)
H1_5 H 0.269537 0.528327 0.276983
H2_5 H 0.147638 0.654379 0.209963
H3_5 H 0.161444 0.427185 0.409759
H5_5 H 0.0228044 0.753872 0.357366
H17_5 H 0.0907871 0.686455 0.34682
O1_5 O 0.87833(14) 0.8117(3) 0.4552(4)
O2_5 O 0.86417(14) 0.6829(3) 0.5142(4)
O4_5 O 0.8461(3) 0.9269(5) 0.6014(7)
O5_5 O 0.8422(4) 0.7551(8) 0.6959(6)
C8_5 C 0.99754(4) 0.71105(12) 0.37946(15)
C9_5 C 0.96021(5) 0.74897(14) 0.40595(17)
C10_5 C 0.92796(4) 0.69430(15) 0.43416(17)
C11_5 C 0.93305(4) 0.60172(15) 0.43587(16)
C12_5 C 0.97036(4) 0.56381(13) 0.40939(14)
C17_5 C 0.88788(5) 0.73340(17) 0.4691(2)
N5_5 N 0.86367(8) 0.6634(3) 0.8654(2)
C21_5 C 0.85496(7) 0.7220(3) 0.7817(2)
C22_5 C 0.82935(8) 0.6265(3) 0.8975(2)
C23_5 C 0.90620(8) 0.6608(3) 0.89427(19)
O9_3 O 0.79555(11) 0.7239(2) 0.3712(3)
O13_3 O 0.78492(11) 0.9146(3) 0.4170(3)
H4_5 H 0.974336 0.491276 0.410737
H6_5 H 0.820551 0.722 0.7817
H8_5 H 0.808614 0.679032 0.920815
H9_5 H 0.838926 0.582674 0.961684
H10_5 H 0.812404 0.587575 0.83629
H11_5 H 0.922497 0.636847 0.831408
H12_5 H 0.912728 0.615647 0.958654
H13_5 H 0.917483 0.727821 0.915901
H14_5 H 0.859192 0.983596 0.826078
H16_5 H 0.903409 0.992276 0.754965
H18_5 H 0.95623 0.821503 0.404603
H19_5 H 0.90779 0.558887 0.457969
O1_6 O 0.12167(14) 0.8117(3) 0.0448(4)
C8_6 C 0.00246(4) 0.71105(12) 0.12054(15)
C9_6 C 0.03979(5) 0.74897(14) 0.09405(17)
C10_6 C 0.07204(4) 0.69430(15) 0.06584(17)
C11_6 C 0.06695(4) 0.60172(15) 0.06413(16)
C12_6 C 0.02964(4) 0.56381(13) 0.09061(14)
C17_6 C 0.11212(5) 0.73340(17) 0.0309(2)
O13_4 O 0.21508(11) 0.9146(3) 0.0830(3)
H4_6 H 0.0256638 0.491276 0.0892632
H18_6 H 0.0437695 0.821503 0.0953974
H19_6 H 0.0922096 0.558887 0.0420315
O2_6 O 0.13583(14) 0.6829(3) 0.9858(4)
O4_6 O 0.1539(3) 0.9269(5) 0.8986(7)
O5_6 O 0.1578(4) 0.7551(8) 0.8041(6)
N5_6 N 0.13633(8) 0.6634(3) 0.6346(2)
C21_6 C 0.14504(7) 0.7220(3) 0.7183(2)
C22_6 C 0.17065(8) 0.6265(3) 0.6025(2)
C23_6 C 0.09380(8) 0.6608(3) 0.60573(19)
H6_6 H 0.179449 0.722 0.7183
H8_6 H 0.191386 0.679032 0.579185
H9_6 H 0.161074 0.582674 0.538316
H10_6 H 0.187596 0.587575 0.66371
H11_6 H 0.0775029 0.636847 0.668592
H12_6 H 0.0872724 0.615647 0.541346
H13_6 H 0.0825167 0.727821 0.584099
H14_6 H 0.140808 0.983596 0.673922
H16_6 H 0.0965911 0.992276 0.745035
O8_4 O 0.71508(11) 0.4146(3) 0.0830(3)
C1_6 C 0.85011(4) 0.54128(9) 0.18881(9)
C2_6 C 0.82475(4) 0.47526(9) 0.13894(11)
C3_6 C 0.78176(4) 0.47060(10) 0.15123(12)
C4_6 C 0.76414(4) 0.53197(11) 0.21339(12)
C5_6 C 0.78951(4) 0.59799(11) 0.26326(11)
C6_6 C 0.83249(4) 0.60265(10) 0.25097(10)
C7_6 C 0.99739(4) 0.61847(12) 0.11882(13)
N1_6 N 0.89466(4) 0.54358(9) 0.17705(9)
N2_6 N 0.91741(4) 0.46669(9) 0.18134(11)
N3_6 N 0.95549(4) 0.48814(10) 0.16253(12)
C13_6 C 0.95794(4) 0.57736(10) 0.14489(11)
C14_6 C 0.91844(4) 0.61610(9) 0.15767(10)
C15_6 C 0.75439(4) 0.39980(12) 0.09490(14)
C16_6 C 0.77199(4) 0.66042(13) 0.33716(14)
H1_6 H 0.730463 0.528327 0.223017
H2_6 H 0.852362 0.654379 0.290037
H3_6 H 0.838556 0.427185 0.0902412
H5_6 H 0.977196 0.753872 0.142634
H17_6 H 0.909213 0.686455 0.15318
O1_7 O 0.37833(14) 0.3117(3) 0.4552(4)
O2_7 O 0.36417(14) 0.1829(3) 0.5142(4)
O3_4 O 0.70445(11) 0.2239(2) 0.1288(3)
O4_7 O 0.3461(3) 0.4269(5) 0.6014(7)
O5_7 O 0.3422(4) 0.2551(8) 0.6959(6)
C1_7 C 0.64989(4) 0.04128(9) 0.31119(9)
C4_7 C 0.73586(4) 0.03197(11) 0.28661(12)
C5_7 C 0.71049(4) 0.09799(11) 0.23674(11)
C6_7 C 0.66751(4) 0.10265(10) 0.24903(10)
C7_7 C 0.50261(4) 0.11847(12) 0.38118(13)
C8_7 C 0.49754(4) 0.21105(12) 0.37946(15)
C9_7 C 0.46021(5) 0.24897(14) 0.40595(17)
C10_7 C 0.42796(4) 0.19430(15) 0.43416(17)
C11_7 C 0.43305(4) 0.10172(15) 0.43587(16)
C12_7 C 0.47036(4) 0.06381(13) 0.40939(14)
N1_7 N 0.60534(4) 0.04358(9) 0.32295(9)
C13_7 C 0.54206(4) 0.07736(10) 0.35511(11)
C14_7 C 0.58156(4) 0.11610(9) 0.34233(10)
C16_7 C 0.72801(4) 0.16042(13) 0.16284(14)
C17_7 C 0.38788(5) 0.23340(17) 0.4691(2)
N4_3 N 0.34671(9) 0.5601(2) 0.6872(3)
C18_3 C 0.32873(8) 0.5016(2) 0.6208(3)
C19_3 C 0.33431(10) 0.6603(2) 0.6627(4)
C20_3 C 0.37654(9) 0.5281(3) 0.7803(3)
N5_7 N 0.36367(8) 0.1634(3) 0.8654(2)
C21_7 C 0.35496(7) 0.2220(3) 0.7817(2)
C22_7 C 0.32935(8) 0.1265(3) 0.8975(2)
C23_7 C 0.40620(8) 0.1608(3) 0.89427(19)
O9_4 O 0.29555(11) 0.2239(2) 0.3712(3)
H1_7 H 0.769537 0.0283273 0.276983
H2_7 H 0.647638 0.154379 0.209963
H5_7 H 0.522804 0.253872 0.357366
H6_7 H 0.320551 0.222 0.7817
H7_3 H 0.297714 0.517655 0.580734
H8_7 H 0.308614 0.179032 0.920815
H9_7 H 0.338926 0.0826736 0.961684
H10_7 H 0.312404 0.0875752 0.83629
H11_7 H 0.422497 0.136847 0.831408
H12_7 H 0.412728 0.115647 0.958654
H13_7 H 0.417483 0.227821 0.915901
H14_7 H 0.359192 0.483596 0.826078
H15_3 H 0.388069 0.585848 0.825551
H16_7 H 0.403409 0.492276 0.754965
H17_7 H 0.590787 0.186455 0.34682
H18_7 H 0.45623 0.321503 0.404603
H19_7 H 0.40779 0.0588872 0.457969
H20_3 H 0.343858 0.678376 0.589018
H21_3 H 0.350424 0.703727 0.720845
H22_3 H 0.300046 0.668309 0.661241
C2_7 C 0.67525(4) 0.97526(9) 0.36106(11)
C3_7 C 0.71824(4) 0.97060(10) 0.34877(12)
N2_7 N 0.58259(4) 0.96669(9) 0.31866(11)
N3_7 N 0.54451(4) 0.98814(10) 0.33747(12)
C15_7 C 0.74561(4) 0.89980(12) 0.40510(14)
H3_7 H 0.661444 0.927185 0.409759
H4_7 H 0.474336 0.991276 0.410737
O1_8 O 0.62167(14) 0.3117(3) 0.0448(4)
C1_8 C 0.35011(4) 0.04128(9) 0.18881(9)
C4_8 C 0.26414(4) 0.03197(11) 0.21339(12)
C5_8 C 0.28951(4) 0.09799(11) 0.26326(11)
C6_8 C 0.33249(4) 0.10265(10) 0.25097(10)
C7_8 C 0.49739(4) 0.11847(12) 0.11882(13)
C8_8 C 0.50246(4) 0.21105(12) 0.12054(15)
C9_8 C 0.53979(5) 0.24897(14) 0.09405(17)
C10_8 C 0.57204(4) 0.19430(15) 0.06584(17)
C11_8 C 0.56695(4) 0.10172(15) 0.06413(16)
C12_8 C 0.52964(4) 0.06381(13) 0.09061(14)
N1_8 N 0.39466(4) 0.04358(9) 0.17705(9)
C13_8 C 0.45794(4) 0.07736(10) 0.14489(11)
C14_8 C 0.41844(4) 0.11610(9) 0.15767(10)
C16_8 C 0.27199(4) 0.16042(13) 0.33716(14)
C17_8 C 0.61212(5) 0.23340(17) 0.0309(2)
H1_8 H 0.230463 0.0283273 0.223017
H2_8 H 0.352362 0.154379 0.290037
H5_8 H 0.477196 0.253872 0.142634
H17_8 H 0.409213 0.186455 0.15318
H18_8 H 0.54377 0.321503 0.0953974
H19_8 H 0.59221 0.0588872 0.0420315
O2_8 O 0.63583(14) 0.1829(3) 0.9858(4)
O4_8 O 0.6539(3) 0.4269(5) 0.8986(7)
O5_8 O 0.6578(4) 0.2551(8) 0.8041(6)
N4_4 N 0.65329(9) 0.5601(2) 0.8128(3)
C18_4 C 0.67127(8) 0.5016(2) 0.8792(3)
C19_4 C 0.66569(10) 0.6603(2) 0.8373(4)
C20_4 C 0.62346(9) 0.5281(3) 0.7197(3)
N5_8 N 0.63633(8) 0.1634(3) 0.6346(2)
C21_8 C 0.64504(7) 0.2220(3) 0.7183(2)
C22_8 C 0.67065(8) 0.1265(3) 0.6025(2)
C23_8 C 0.59380(8) 0.1608(3) 0.60573(19)
H6_8 H 0.679449 0.222 0.7183
H7_4 H 0.702286 0.517655 0.919266
H8_8 H 0.691386 0.179032 0.579185
H9_8 H 0.661074 0.0826736 0.538316
H10_8 H 0.687596 0.0875752 0.66371
H11_8 H 0.577503 0.136847 0.668592
H12_8 H 0.587272 0.115647 0.541346
H13_8 H 0.582517 0.227821 0.584099
H14_8 H 0.640808 0.483596 0.673922
H15_4 H 0.611931 0.585848 0.674449
H16_8 H 0.596591 0.492276 0.745035
H20_4 H 0.656142 0.678376 0.910982
H21_4 H 0.649576 0.703727 0.779155
H22_4 H 0.699954 0.668309 0.838759
C2_8 C 0.32475(4) 0.97526(9) 0.13894(11)
C3_8 C 0.28176(4) 0.97060(10) 0.15123(12)
N2_8 N 0.41741(4) 0.96669(9) 0.18134(11)
N3_8 N 0.45549(4) 0.98814(10) 0.16253(12)
C15_8 C 0.25439(4) 0.89980(12) 0.09490(14)
H3_8 H 0.338556 0.927185 0.0902412
H4_8 H 0.525664 0.991276 0.0892632
N4_5 N 0.15329(9) 0.9399(2) 0.3128(3)
C18_5 C 0.17127(8) 0.9984(2) 0.3792(3)
C19_5 C 0.16569(10) 0.8397(2) 0.3373(4)
C20_5 C 0.12346(9) 0.9719(3) 0.2197(3)
H7_5 H 0.202286 0.982345 0.419266
H15_5 H 0.111931 0.914152 0.174449
H20_5 H 0.156142 0.821624 0.410982
H21_5 H 0.149576 0.796273 0.279155
H22_5 H 0.199954 0.831691 0.338759
N4_6 N 0.84671(9) 0.9399(2) 0.1872(3)
C18_6 C 0.82873(8) 0.9984(2) 0.1208(3)
C19_6 C 0.83431(10) 0.8397(2) 0.1627(4)
C20_6 C 0.87654(9) 0.9719(3) 0.2803(3)
H7_6 H 0.797714 0.982345 0.0807342
H15_6 H 0.888069 0.914152 0.325551
H20_6 H 0.843858 0.821624 0.0890176
H21_6 H 0.850424 0.796273 0.220845
H22_6 H 0.800046 0.831691 0.161241
N4_7 N 0.84671(9) 0.0601(2) 0.6872(3)
C18_7 C 0.82873(8) 0.0016(2) 0.6208(3)
C19_7 C 0.83431(10) 0.1603(2) 0.6627(4)
C20_7 C 0.87654(9) 0.0281(3) 0.7803(3)
H7_7 H 0.797714 0.0176548 0.580734
H15_7 H 0.888069 0.085848 0.825551
H20_7 H 0.843858 0.178376 0.589018
H21_7 H 0.850424 0.203727 0.720845
H22_7 H 0.800046 0.168309 0.661241
N4_8 N 0.15329(9) 0.0601(2) 0.8128(3)
C18_8 C 0.17127(8) 0.0016(2) 0.8792(3)
C19_8 C 0.16569(10) 0.1603(2) 0.8373(4)
C20_8 C 0.12346(9) 0.0281(3) 0.7197(3)
H7_8 H 0.202286 0.0176548 0.919266
H15_8 H 0.111931 0.085848 0.674449
H20_8 H 0.156142 0.178376 0.910982
H21_8 H 0.149576 0.203727 0.779155
H22_8 H 0.199954 0.168309 0.838759
loop_
_geom_bond_atom_site_label_1
_geom_bond_atom_site_label_2
_geom_bond_site_symmetry_1
_geom_bond_site_symmetry_2
Tb1 O1 1_555 1_555
O1 C17 1_555 1_555
O2 Tb1 1_555 1_555
O4 Tb1 1_555 1_555
O5 Tb1 1_555 1_555
C8 C9 1_555 1_555
C9 C10 1_555 1_555
C10 C11 1_555 1_555
C11 C12 1_555 1_555
C17 O2 1_555 1_555
N5 C21 1_555 1_555
C21 O5 1_555 1_555
C22 N5 1_555 1_555
C23 N5 1_555 1_555
O9 Tb1 1_555 1_555
O10 Tb1 1_555 1_555
O11 Tb1 1_555 1_555
O12 Tb1 1_555 1_555
O13 Tb1 1_555 1_555
C10 C17 1_555 1_555
C12 H4 1_555 1_555
C21 H6 1_555 1_555
C22 H8 1_555 1_555
C22 H9 1_555 1_555
C22 H10 1_555 1_555
C23 H11 1_555 1_555
C23 H12 1_555 1_555
C23 H13 1_555 1_555
C9 H18 1_555 1_555
C11 H19 1_555 1_555
O3 C16 1_555 1_555
O6 C16 1_555 1_555
O7 C15 1_555 1_555
O8 C15 1_555 1_555
C1 C2 1_555 1_555
C2 C3 1_555 1_555
C3 C4 1_555 1_555
C4 C5 1_555 1_555
C5 C6 1_555 1_555
C6 C1 1_555 1_555
N1 C1 1_555 1_555
N2 N1 1_555 1_555
N3 N2 1_555 1_555
C13 C7 1_555 1_555
C14 N1 1_555 1_555
C15 C3 1_555 1_555
C16 C5 1_555 1_555
Tb3 O7 1_555 1_555
Tb4 O7 1_555 1_555
Tb5 O6 1_555 1_555
O8 Tb3 1_555 1_555
N3 C13 1_555 1_555
C13 C14 1_555 1_555
C4 H1 1_555 1_555
C6 H2 1_555 1_555
C2 H3 1_555 1_555
C14 H17 1_555 1_555
O9 C16_2 1_555 1_555
O6_2 C16_2 1_555 1_555
O7_2 C15_2 1_555 1_555
O8_2 C15_2 1_555 1_555
C1_2 C2_2 1_555 1_555
C2_2 C3_2 1_555 1_555
C3_2 C4_2 1_555 1_555
C4_2 C5_2 1_555 1_555
C5_2 C6_2 1_555 1_555
C6_2 C1_2 1_555 1_555
N1_2 C1_2 1_555 1_555
N2_2 N1_2 1_555 1_555
N3_2 N2_2 1_555 1_555
C13_2 C7_2 1_555 1_555
C14_2 N1_2 1_555 1_555
C15_2 C3_2 1_555 1_555
C16_2 C5_2 1_555 1_555
Tb4_2 O7_2 1_555 1_555
Tb5_2 O6_2 1_555 1_555
N3_2 C13_2 1_555 1_555
C13_2 C14_2 1_555 1_555
C4_2 H1_2 1_555 1_555
C6_2 H2_2 1_555 1_555
C2_2 H3_2 1_555 1_555
C14_2 H17_2 1_555 1_555
O2_2 Tb2 1_555 1_555
O4_2 Tb2 1_555 1_555
O5_2 Tb2 1_555 1_555
N5_2 C21_2 1_555 1_555
C21_2 O5_2 1_555 1_555
C22_2 N5_2 1_555 1_555
C23_2 N5_2 1_555 1_555
O10_2 Tb2 1_555 1_555
O12_2 Tb2 1_555 1_555
C21_2 H6_2 1_555 1_555
C22_2 H8_2 1_555 1_555
C22_2 H9_2 1_555 1_555
C22_2 H10_2 1_555 1_555
C23_2 H11_2 1_555 1_555
C23_2 H12_2 1_555 1_555
C23_2 H13_2 1_555 1_555
O1_2 C17_2 1_555 1_555
C8_2 C9_2 1_555 1_555
C9_2 C10_2 1_555 1_555
C10_2 C11_2 1_555 1_555
C11_2 C12_2 1_555 1_555
C10_2 C17_2 1_555 1_555
C12_2 H4_2 1_555 1_555
C9_2 H18_2 1_555 1_555
C11_2 H19_2 1_555 1_555
O11 C15_3 1_555 1_555
O13 C15_3 1_555 1_555
C2_3 C3_3 1_555 1_555
N3_3 N2_3 1_555 1_555
C15_3 C3_3 1_555 1_555
Tb5_2 O11 1_555 1_555
C2_3 H3_3 1_555 1_555
Tb3 O1_3 1_555 1_555
O1_3 C17_3 1_555 1_555
O2_3 Tb3 1_555 1_555
O3_2 C16_3 1_555 1_555
O4_3 Tb3 1_555 1_555
O5_3 Tb3 1_555 1_555
O6_3 C16_3 1_555 1_555
C4_3 C5_3 1_555 1_555
C5_3 C6_3 1_555 1_555
C6_3 C1_3 1_555 1_555
C7_3 C8_3 1_555 1_555
C8_3 C9_3 1_555 1_555
C9_3 C10_3 1_555 1_555
C10_3 C11_3 1_555 1_555
C11_3 C12_3 1_555 1_555
C12_3 C7_3 1_555 1_555
N1_3 C1_3 1_555 1_555
C13_3 C7_3 1_555 1_555
C14_3 N1_3 1_555 1_555
C16_3 C5_3 1_555 1_555
C17_3 O2_3 1_555 1_555
N4 C18 1_555 1_555
C18 O4_3 1_555 1_555
C19 N4 1_555 1_555
C20 N4 1_555 1_555
N5_3 C21_3 1_555 1_555
C21_3 O5_3 1_555 1_555
C22_3 N5_3 1_555 1_555
C23_3 N5_3 1_555 1_555
Tb4_2 O6_3 1_555 1_555
O9_2 Tb3 1_555 1_555
O10_3 Tb3 1_555 1_555
O12_3 Tb3 1_555 1_555
C10_3 C17_3 1_555 1_555
C13_3 C14_3 1_555 1_555
C4_3 H1_3 1_555 1_555
C6_3 H2_3 1_555 1_555
C8_3 H5_3 1_555 1_555
C21_3 H6_3 1_555 1_555
C18 H7 1_555 1_555
C22_3 H8_3 1_555 1_555
C22_3 H9_3 1_555 1_555
C22_3 H10_3 1_555 1_555
C23_3 H11_3 1_555 1_555
C23_3 H12_3 1_555 1_555
C23_3 H13_3 1_555 1_555
C20 H14_3 1_555 1_555
C20 H15 1_555 1_555
C20 H16_3 1_555 1_555
C14_3 H17_3 1_555 1_555
C9_3 H18_3 1_555 1_555
C11_3 H19_3 1_555 1_555
C19 H20 1_555 1_555
C19 H21 1_555 1_555
C19 H22 1_555 1_555
O11_2 C15_4 1_555 1_555
O13_2 C15_4 1_555 1_555
C2_4 C3_4 1_555 1_555
N3_4 N2_4 1_555 1_555
C15_4 C3_4 1_555 1_555
Tb5 O11_2 1_555 1_555
C2_4 H3_4 1_555 1_555
O2_4 Tb3_2 1_555 1_555
O4_4 Tb3_2 1_555 1_555
O5_4 Tb3_2 1_555 1_555
N4_2 C18_2 1_555 1_555
C18_2 O4_4 1_555 1_555
C19_2 N4_2 1_555 1_555
C20_2 N4_2 1_555 1_555
N5_4 C21_4 1_555 1_555
C21_4 O5_4 1_555 1_555
C22_4 N5_4 1_555 1_555
C23_4 N5_4 1_555 1_555
O10_4 Tb3_2 1_555 1_555
O12_4 Tb3_2 1_555 1_555
C21_4 H6_4 1_555 1_555
C18_2 H7_2 1_555 1_555
C22_4 H8_4 1_555 1_555
C22_4 H9_4 1_555 1_555
C22_4 H10_4 1_555 1_555
C23_4 H11_4 1_555 1_555
C23_4 H12_4 1_555 1_555
C23_4 H13_4 1_555 1_555
C20_2 H14_4 1_555 1_555
C20_2 H15_2 1_555 1_555
C20_2 H16_4 1_555 1_555
C19_2 H20_2 1_555 1_555
C19_2 H21_2 1_555 1_555
C19_2 H22_2 1_555 1_555
O1_4 C17_4 1_555 1_555
O9_2 C16_4 1_555 1_555
O6_4 C16_4 1_555 1_555
C4_4 C5_4 1_555 1_555
C5_4 C6_4 1_555 1_555
C6_4 C1_4 1_555 1_555
C7_4 C8_4 1_555 1_555
C8_4 C9_4 1_555 1_555
C9_4 C10_4 1_555 1_555
C10_4 C11_4 1_555 1_555
C11_4 C12_4 1_555 1_555
C12_4 C7_4 1_555 1_555
N1_4 C1_4 1_555 1_555
C13_4 C7_4 1_555 1_555
C14_4 N1_4 1_555 1_555
C16_4 C5_4 1_555 1_555
Tb4 O6_4 1_555 1_555
C10_4 C17_4 1_555 1_555
C13_4 C14_4 1_555 1_555
C4_4 H1_4 1_555 1_555
C6_4 H2_4 1_555 1_555
C8_4 H5_4 1_555 1_555
C14_4 H17_4 1_555 1_555
C9_4 H18_4 1_555 1_555
C11_4 H19_4 1_555 1_555
O3_3 C16_5 1_555 1_555
O10_4 C16_5 1_555 1_555
O12 C15_5 1_555 1_555
O8_3 C15_5 1_555 1_555
C1_5 C2_5 1_555 1_555
C2_5 C3_5 1_555 1_555
C3_5 C4_5 1_555 1_555
C4_5 C5_5 1_555 1_555
C5_5 C6_5 1_555 1_555
C6_5 C1_5 1_555 1_555
N1_5 C1_5 1_555 1_555
N2_5 N1_5 1_555 1_555
N3_5 N2_5 1_555 1_555
C13_5 C7_5 1_555 1_555
C14_5 N1_5 1_555 1_555
C15_5 C3_5 1_555 1_555
C16_5 C5_5 1_555 1_555
Tb5_2 O12 1_555 1_555
O8_3 Tb5_2 1_555 1_555
N3_5 C13_5 1_555 1_555
C13_5 C14_5 1_555 1_555
C4_5 H1_5 1_555 1_555
C6_5 H2_5 1_555 1_555
C2_5 H3_5 1_555 1_555
C14_5 H17_5 1_555 1_555
Tb4 O1_5 1_555 1_555
O1_5 C17_5 1_555 1_555
O2_5 Tb4 1_555 1_555
O4_5 Tb4 1_555 1_555
O5_5 Tb4 1_555 1_555
C8_5 C9_5 1_555 1_555
C9_5 C10_5 1_555 1_555
C10_5 C11_5 1_555 1_555
C11_5 C12_5 1_555 1_555
C17_5 O2_5 1_555 1_555
N5_5 C21_5 1_555 1_555
C21_5 O5_5 1_555 1_555
C22_5 N5_5 1_555 1_555
C23_5 N5_5 1_555 1_555
O9_3 Tb4 1_555 1_555
O12_3 Tb4 1_555 1_555
O13_3 Tb4 1_555 1_555
C10_5 C17_5 1_555 1_555
C12_5 H4_5 1_555 1_555
C21_5 H6_5 1_555 1_555
C22_5 H8_5 1_555 1_555
C22_5 H9_5 1_555 1_555
C22_5 H10_5 1_555 1_555
C23_5 H11_5 1_555 1_555
C23_5 H12_5 1_555 1_555
C23_5 H13_5 1_555 1_555
C9_5 H18_5 1_555 1_555
C11_5 H19_5 1_555 1_555
O1_6 C17_6 1_555 1_555
C8_6 C9_6 1_555 1_555
C9_6 C10_6 1_555 1_555
C10_6 C11_6 1_555 1_555
C11_6 C12_6 1_555 1_555
C10_6 C17_6 1_555 1_555
C12_6 H4_6 1_555 1_555
C9_6 H18_6 1_555 1_555
C11_6 H19_6 1_555 1_555
O2_6 Tb4_2 1_555 1_555
O4_6 Tb4_2 1_555 1_555
O5_6 Tb4_2 1_555 1_555
N5_6 C21_6 1_555 1_555
C21_6 O5_6 1_555 1_555
C22_6 N5_6 1_555 1_555
C23_6 N5_6 1_555 1_555
C21_6 H6_6 1_555 1_555
C22_6 H8_6 1_555 1_555
C22_6 H9_6 1_555 1_555
C22_6 H10_6 1_555 1_555
C23_6 H11_6 1_555 1_555
C23_6 H12_6 1_555 1_555
C23_6 H13_6 1_555 1_555
O9_3 C16_6 1_555 1_555
O10_3 C16_6 1_555 1_555
O12_2 C15_6 1_555 1_555
O8_4 C15_6 1_555 1_555
C1_6 C2_6 1_555 1_555
C2_6 C3_6 1_555 1_555
C3_6 C4_6 1_555 1_555
C4_6 C5_6 1_555 1_555
C5_6 C6_6 1_555 1_555
C6_6 C1_6 1_555 1_555
N1_6 C1_6 1_555 1_555
N2_6 N1_6 1_555 1_555
N3_6 N2_6 1_555 1_555
C13_6 C7_6 1_555 1_555
C14_6 N1_6 1_555 1_555
C15_6 C3_6 1_555 1_555
C16_6 C5_6 1_555 1_555
N3_6 C13_6 1_555 1_555
C13_6 C14_6 1_555 1_555
C4_6 H1_6 1_555 1_555
C6_6 H2_6 1_555 1_555
C2_6 H3_6 1_555 1_555
C14_6 H17_6 1_555 1_555
Tb5_2 O1_7 1_555 1_555
O1_7 C17_7 1_555 1_555
O2_7 Tb5_2 1_555 1_555
O3_4 C16_7 1_555 1_555
O4_7 Tb5_2 1_555 1_555
O5_7 Tb5_2 1_555 1_555
O10_2 C16_7 1_555 1_555
C4_7 C5_7 1_555 1_555
C5_7 C6_7 1_555 1_555
C6_7 C1_7 1_555 1_555
C7_7 C8_7 1_555 1_555
C8_7 C9_7 1_555 1_555
C9_7 C10_7 1_555 1_555
C10_7 C11_7 1_555 1_555
C11_7 C12_7 1_555 1_555
C12_7 C7_7 1_555 1_555
N1_7 C1_7 1_555 1_555
C13_7 C7_7 1_555 1_555
C14_7 N1_7 1_555 1_555
C16_7 C5_7 1_555 1_555
C17_7 O2_7 1_555 1_555
N4_3 C18_3 1_555 1_555
C18_3 O4_7 1_555 1_555
C19_3 N4_3 1_555 1_555
C20_3 N4_3 1_555 1_555
N5_7 C21_7 1_555 1_555
C21_7 O5_7 1_555 1_555
C22_7 N5_7 1_555 1_555
C23_7 N5_7 1_555 1_555
O9_4 Tb5_2 1_555 1_555
C10_7 C17_7 1_555 1_555
C13_7 C14_7 1_555 1_555
C4_7 H1_7 1_555 1_555
C6_7 H2_7 1_555 1_555
C8_7 H5_7 1_555 1_555
C21_7 H6_7 1_555 1_555
C18_3 H7_3 1_555 1_555
C22_7 H8_7 1_555 1_555
C22_7 H9_7 1_555 1_555
C22_7 H10_7 1_555 1_555
C23_7 H11_7 1_555 1_555
C23_7 H12_7 1_555 1_555
C23_7 H13_7 1_555 1_555
C20_3 H14_7 1_555 1_555
C20_3 H15_3 1_555 1_555
C20_3 H16_7 1_555 1_555
C14_7 H17_7 1_555 1_555
C9_7 H18_7 1_555 1_555
C11_7 H19_7 1_555 1_555
C19_3 H20_3 1_555 1_555
C19_3 H21_3 1_555 1_555
C19_3 H22_3 1_555 1_555
O12_3 C15_7 1_555 1_555
O13_3 C15_7 1_555 1_555
C2_7 C3_7 1_555 1_555
N3_7 N2_7 1_555 1_555
C15_7 C3_7 1_555 1_555
C2_7 H3_7 1_555 1_555
O1_8 C17_8 1_555 1_555
O9_4 C16_8 1_555 1_555
O10 C16_8 1_555 1_555
C4_8 C5_8 1_555 1_555
C5_8 C6_8 1_555 1_555
C6_8 C1_8 1_555 1_555
C7_8 C8_8 1_555 1_555
C8_8 C9_8 1_555 1_555
C9_8 C10_8 1_555 1_555
C10_8 C11_8 1_555 1_555
C11_8 C12_8 1_555 1_555
C12_8 C7_8 1_555 1_555
N1_8 C1_8 1_555 1_555
C13_8 C7_8 1_555 1_555
C14_8 N1_8 1_555 1_555
C16_8 C5_8 1_555 1_555
C10_8 C17_8 1_555 1_555
C13_8 C14_8 1_555 1_555
C4_8 H1_8 1_555 1_555
C6_8 H2_8 1_555 1_555
C8_8 H5_8 1_555 1_555
C14_8 H17_8 1_555 1_555
C9_8 H18_8 1_555 1_555
C11_8 H19_8 1_555 1_555
O2_8 Tb5 1_555 1_555
O4_8 Tb5 1_555 1_555
O5_8 Tb5 1_555 1_555
N4_4 C18_4 1_555 1_555
C18_4 O4_8 1_555 1_555
C19_4 N4_4 1_555 1_555
C20_4 N4_4 1_555 1_555
N5_8 C21_8 1_555 1_555
C21_8 O5_8 1_555 1_555
C22_8 N5_8 1_555 1_555
C23_8 N5_8 1_555 1_555
C21_8 H6_8 1_555 1_555
C18_4 H7_4 1_555 1_555
C22_8 H8_8 1_555 1_555
C22_8 H9_8 1_555 1_555
C22_8 H10_8 1_555 1_555
C23_8 H11_8 1_555 1_555
C23_8 H12_8 1_555 1_555
C23_8 H13_8 1_555 1_555
C20_4 H14_8 1_555 1_555
C20_4 H15_4 1_555 1_555
C20_4 H16_8 1_555 1_555
C19_4 H20_4 1_555 1_555
C19_4 H21_4 1_555 1_555
C19_4 H22_4 1_555 1_555
O12_4 C15_8 1_555 1_555
O13_4 C15_8 1_555 1_555
C2_8 C3_8 1_555 1_555
N3_8 N2_8 1_555 1_555
C15_8 C3_8 1_555 1_555
C2_8 H3_8 1_555 1_555
N4_5 C18_5 1_555 1_555
C19_5 N4_5 1_555 1_555
C20_5 N4_5 1_555 1_555
C18_5 H7_5 1_555 1_555
C20_5 H15_5 1_555 1_555
C19_5 H20_5 1_555 1_555
C19_5 H21_5 1_555 1_555
C19_5 H22_5 1_555 1_555
N4_6 C18_6 1_555 1_555
C19_6 N4_6 1_555 1_555
C20_6 N4_6 1_555 1_555
C18_6 H7_6 1_555 1_555
C20_6 H15_6 1_555 1_555
C19_6 H20_6 1_555 1_555
C19_6 H21_6 1_555 1_555
C19_6 H22_6 1_555 1_555
N4_7 C18_7 1_555 1_555
C19_7 N4_7 1_555 1_555
C20_7 N4_7 1_555 1_555
C18_7 H7_7 1_555 1_555
C20_7 H15_7 1_555 1_555
C19_7 H20_7 1_555 1_555
C19_7 H21_7 1_555 1_555
C19_7 H22_7 1_555 1_555
N4_8 C18_8 1_555 1_555
C19_8 N4_8 1_555 1_555
C20_8 N4_8 1_555 1_555
C18_8 H7_8 1_555 1_555
C20_8 H15_8 1_555 1_555
C19_8 H20_8 1_555 1_555
C19_8 H21_8 1_555 1_555
C19_8 H22_8 1_555 1_555

#END
