
###############################################################################
#
# This file contains modified crystal structure data generated from the
# MOF subset of the Cambridge Structural Database (CSD) v543 
# hosted by the Cambridge Crystallographic Data Centre (CCDC).
#
# This work is licensed under the Creative Commons
# Attribution-NonCommercial-ShareAlike 4.0 International License.
# To view a copy of this license, visit
# http://creativecommons.org/licenses/by-nc-sa/4.0/
# or send a letter to
# Creative Commons, PO Box 1866, Mountain View, CA 94042, USA.
#
# CIF created using the CSD Python API on 29 September 2022
# The structure has been converted into the P1 space group
# The structure has a 3D framework
# The original CSD entry CUTFON is in the tetragonal crystal system
# The original CSD entry CUTFON is in a Sohncke space group
# The framework has been calculated to contain at least 10.0% void space
# The void calculation uses a probe of radius 1.32A, grid spacing 0.4
# The framework is charged, counterions have been retained in the structure
#
###############################################################################

data_CUTFON
_chemical_formula_moiety         '(C360 H384 Ag8 B8 N35 O37 2-)n'
_symmetry_cell_setting           triclinic
_symmetry_space_group_name_H-M   'P 1'
_symmetry_Int_Tables_number      1
_space_group_name_Hall           'P 1'
loop_
_symmetry_equiv_pos_site_id
_symmetry_equiv_pos_as_xyz
1 x,y,z
_cell_length_a                   22.3511(4)
_cell_length_b                   22.3511(4)
_cell_length_c                   25.3776(5)
_cell_angle_alpha                90
_cell_angle_beta                 90
_cell_angle_gamma                90
_cell_volume                     12677.9
loop_
_atom_site_label
_atom_site_type_symbol
_atom_site_fract_x
_atom_site_fract_y
_atom_site_fract_z
C16 C 0.0463(2) 0.1781(3) 0.4935(2)
H17 H 0.0820 0.1742 0.4750
N2 N 0.04738(18) 0.2041(2) 0.54133(18)
Ag3 Ag 0.133402(16) 0.241981(14) 0.581593(16)
Ag2 Ag 0.241981(14) 0.133402(16) 0.418407(16)
N5 N 0.17246(16) 0.16200(17) 0.35828(16)
C46 C 0.13769(18) 0.2093(2) 0.36583(18)
H49 H 0.1399 0.2290 0.3981
C47 C 0.09859(18) 0.2309(2) 0.32859(18)
H50 H 0.0752 0.2643 0.3357
C48 C 0.09446(19) 0.20215(19) 0.27995(17)
C49 C 0.1312(3) 0.1541(3) 0.2725(3)
H51 H 0.1307 0.1341 0.2404
C50 C 0.1684(3) 0.1352(3) 0.3112(3)
H52 H 0.1924 0.1020 0.3048
C51 C 0.05233(18) 0.22365(18) 0.23832(17)
C52 C 0.07206(18) 0.26557(19) 0.20078(17)
C53 C 0.03309(18) 0.28307(17) 0.15995(16)
H55 H 0.0020 0.1220 0.2791
C59 C 0.0557(2) 0.3287(2) 0.1204(2)
H59 H 0.0950 0.3417 0.1303
H60 H 0.0291 0.3625 0.1197
H61 H 0.0572 0.3108 0.0860
C60 C 0.1343(2) 0.2904(3) 0.2045(2)
H62 H 0.1541 0.2737 0.2346
H63 H 0.1324 0.3331 0.2080
H64 H 0.1561 0.2803 0.1731
N8 N 0.2041(2) 0.04738(18) 0.45867(18)
H69 H 0.0091 0.0915 0.0097
C73 C 0.0147(2) 0.1894(3) 0.0531(3)
H72 H 0.0356 0.1559 0.0381
H73 H 0.0271 0.1949 0.0890
H74 H 0.0236 0.2248 0.0332
N10 N 0.34272(15) 0.12739(19) 0.41030(16)
O4 O 0.2684(2) 0.2414(2) 0.46150(19)
O5 O 0.1970(2) 0.1970(2) 0.5000
B1 B 0.72578(18) 0.0678(2) 0.39245(18)
C9 C 0.74317(16) 0.02379(17) 0.34481(15)
C10 C 0.78563(17) 0.04252(17) 0.30733(17)
C11 C 0.80075(19) 0.00516(18) 0.26507(18)
C12 C 0.8441(3) 0.0244(2) 0.2214(2)
H5 H 0.8575 0.0646 0.2279
H6 H 0.8241 0.0228 0.1879
C13 C 0.8140(2) 0.1041(2) 0.3095(2)
H8 H 0.8415 0.1085 0.2807
H9 H 0.8350 0.1088 0.3422
H10 H 0.7834 0.1341 0.3068
C17 C 0.9941(2) 0.1570(3) 0.4707(2)
H18 H 0.9948 0.1413 0.4368
C18 C 0.94152(19) 0.1593(2) 0.49829(19)
C19 C 0.9424(2) 0.1864(3) 0.5470(3)
H19 H 0.9071 0.1903 0.5662
C20 C 0.9962(3) 0.2081(4) 0.5676(3)
H20 H 0.9961 0.2258 0.6007
C21 C 0.88369(18) 0.1360(2) 0.47548(18)
C22 C 0.84103(19) 0.17582(19) 0.45777(19)
C23 C 0.78722(17) 0.15456(18) 0.43587(16)
C24 C 0.77844(15) 0.09246(16) 0.42832(15)
C25 C 0.82233(17) 0.05217(18) 0.44853(19)
C26 C 0.87449(19) 0.0740(2) 0.4724(2)
C27 C 0.9212(3) 0.0315(3) 0.4956(3)
H22 H 0.9254 0.0391 0.5326
H23 H 0.9589 0.0378 0.4784
C29 C 0.74173(19) 0.19891(19) 0.4172(2)
H27 H 0.7550 0.2387 0.4256
H28 H 0.7042 0.1913 0.4343
H29 H 0.7369 0.1952 0.3797
C30 C 0.8512(3) 0.2431(2) 0.4610(3)
H30 H 0.8896 0.2508 0.4765
H31 H 0.8205 0.2609 0.4822
H32 H 0.8500 0.2599 0.4262
C31 C 0.37989(17) 0.1719(2) 0.4217(2)
H33 H 0.3634 0.2089 0.4301
C32 C 0.44050(17) 0.16684(19) 0.42176(19)
H34 H 0.4640 0.1996 0.4308
C33 C 0.46748(17) 0.1130(2) 0.40841(18)
C34 C 0.4288(2) 0.0664(3) 0.3965(4)
H35 H 0.4440 0.0292 0.3872
C35 C 0.3685(2) 0.0752(3) 0.3982(4)
H36 H 0.3438 0.0429 0.3906
C36 C 0.53355(17) 0.1052(2) 0.40600(17)
C37 C 0.56345(17) 0.1194(2) 0.35956(16)
C38 C 0.62572(18) 0.10959(19) 0.35629(16)
C39 C 0.65719(16) 0.08518(18) 0.39916(15)
C40 C 0.62654(18) 0.07333(18) 0.44628(16)
C41 C 0.56433(18) 0.0833(2) 0.45032(17)
C42 C 0.5313(2) 0.0704(3) 0.5013(2)
H37 H 0.4896 0.0797 0.4970
H38 H 0.5477 0.0944 0.5291
H39 H 0.5356 0.0288 0.5100
C43 C 0.6582(2) 0.0469(3) 0.49295(18)
H40 H 0.6999 0.0424 0.4850
H41 H 0.6413 0.0084 0.5009
H42 H 0.6535 0.0728 0.5228
C44 C 0.6578(2) 0.1275(2) 0.30670(18)
H43 H 0.6996 0.1185 0.3101
H44 H 0.6528 0.1697 0.3010
H45 H 0.6415 0.1059 0.2774
C45 C 0.5297(2) 0.1450(3) 0.3125(2)
H46 H 0.4880 0.1487 0.3211
H47 H 0.5342 0.1188 0.2828
H48 H 0.5456 0.1837 0.3039
C61 C 0.1781(3) 0.0463(2) 0.5065(2)
H65 H 0.1742 0.0820 0.5250
N1 N 0.16200(17) 0.17246(16) 0.64172(16)
C1 C 0.2093(2) 0.13769(18) 0.63417(18)
H1 H 0.2290 0.1399 0.6019
C2 C 0.2309(2) 0.09859(18) 0.67141(18)
H2 H 0.2643 0.0752 0.6643
C3 C 0.20215(19) 0.09446(19) 0.72005(17)
C4 C 0.1541(3) 0.1312(3) 0.7275(3)
H3 H 0.1341 0.1307 0.7596
C5 C 0.1352(3) 0.1684(3) 0.6888(3)
H4 H 0.1020 0.1924 0.6952
C6 C 0.22365(18) 0.05233(18) 0.76168(17)
C7 C 0.26557(19) 0.07206(18) 0.79922(17)
C8 C 0.28307(17) 0.03309(18) 0.84005(16)
H7 H 0.1220 0.0020 0.7209
C14 C 0.3287(2) 0.0557(2) 0.8796(2)
H11 H 0.3417 0.0950 0.8697
H12 H 0.3625 0.0291 0.8803
H13 H 0.3108 0.0572 0.9140
C15 C 0.2904(3) 0.1343(2) 0.7955(2)
H14 H 0.2737 0.1541 0.7654
H15 H 0.3331 0.1324 0.7920
H16 H 0.2803 0.1561 0.8269
H21 H 0.0915 0.0091 0.9903
C28 C 0.1894(3) 0.0147(2) 0.9469(3)
H24 H 0.1559 0.0356 0.9619
H25 H 0.1949 0.0271 0.9110
H26 H 0.2248 0.0236 0.9668
N4 N 0.23634(16) 0.23634(16) 0.5000
O1 O 0.2414(2) 0.2684(2) 0.53850(19)
B2 B 0.0678(2) 0.72578(18) 0.60755(18)
C54 C 0.02379(17) 0.74317(16) 0.65519(15)
C55 C 0.04252(17) 0.78563(17) 0.69267(17)
C56 C 0.00516(18) 0.80075(19) 0.73493(18)
C57 C 0.0244(2) 0.8441(3) 0.7786(2)
H53 H 0.0646 0.8575 0.7721
H54 H 0.0228 0.8241 0.8121
C58 C 0.1041(2) 0.8140(2) 0.6905(2)
H56 H 0.1085 0.8415 0.7193
H57 H 0.1088 0.8350 0.6578
H58 H 0.1341 0.7834 0.6932
C62 C 0.1570(3) 0.9941(2) 0.5293(2)
H66 H 0.1413 0.9948 0.5632
C63 C 0.1593(2) 0.94152(19) 0.50171(19)
C64 C 0.1864(3) 0.9424(2) 0.4530(3)
H67 H 0.1903 0.9071 0.4338
C65 C 0.2081(4) 0.9962(3) 0.4324(3)
H68 H 0.2258 0.9961 0.3993
C66 C 0.1360(2) 0.88369(18) 0.52452(18)
C67 C 0.17582(19) 0.84103(19) 0.54223(19)
C68 C 0.15456(18) 0.78722(17) 0.56413(16)
C69 C 0.09246(16) 0.77844(15) 0.57168(15)
C70 C 0.05217(18) 0.82233(17) 0.55147(19)
C71 C 0.0740(2) 0.87449(19) 0.5276(2)
C72 C 0.0315(3) 0.9212(3) 0.5044(3)
H70 H 0.0391 0.9254 0.4674
H71 H 0.0378 0.9589 0.5216
C74 C 0.19891(19) 0.74173(19) 0.5828(2)
H75 H 0.2387 0.7550 0.5744
H76 H 0.1913 0.7042 0.5657
H77 H 0.1952 0.7369 0.6203
C75 C 0.2431(2) 0.8512(3) 0.5390(3)
H78 H 0.2508 0.8896 0.5235
H79 H 0.2609 0.8205 0.5178
H80 H 0.2599 0.8500 0.5738
C76 C 0.1719(2) 0.37989(17) 0.5783(2)
H81 H 0.2089 0.3634 0.5699
C77 C 0.16684(19) 0.44050(17) 0.57824(19)
H82 H 0.1996 0.4640 0.5692
C78 C 0.1130(2) 0.46748(17) 0.59159(18)
C79 C 0.0664(3) 0.4288(2) 0.6035(4)
H83 H 0.0292 0.4440 0.6128
C80 C 0.0752(3) 0.3685(2) 0.6018(4)
H84 H 0.0429 0.3438 0.6094
N9 N 0.12739(19) 0.34272(15) 0.58970(16)
C81 C 0.1052(2) 0.53355(17) 0.59400(17)
C82 C 0.1194(2) 0.56345(17) 0.64044(16)
C83 C 0.10959(19) 0.62572(18) 0.64371(16)
C84 C 0.08518(18) 0.65719(16) 0.60084(15)
C85 C 0.07333(18) 0.62654(18) 0.55372(16)
C86 C 0.0833(2) 0.56433(18) 0.54968(17)
C87 C 0.0704(3) 0.5313(2) 0.4987(2)
H85 H 0.0797 0.4896 0.5030
H86 H 0.0944 0.5477 0.4709
H87 H 0.0288 0.5356 0.4900
C88 C 0.0469(3) 0.6582(2) 0.50705(18)
H88 H 0.0424 0.6999 0.5150
H89 H 0.0084 0.6413 0.4991
H90 H 0.0728 0.6535 0.4772
C89 C 0.1275(2) 0.6578(2) 0.69330(18)
H91 H 0.1185 0.6996 0.6899
H92 H 0.1697 0.6528 0.6990
H93 H 0.1059 0.6415 0.7226
C90 C 0.1450(3) 0.5297(2) 0.6875(2)
H94 H 0.1487 0.4880 0.6789
H95 H 0.1188 0.5342 0.7172
H96 H 0.1837 0.5456 0.6961
Ag1 Ag 0.866598(16) 0.758019(14) 0.081593(16)
N1_2 N 0.83800(17) 0.82754(16) 0.14172(16)
C1_2 C 0.7907(2) 0.86231(18) 0.13417(18)
H1_2 H 0.7710 0.8601 0.1019
C2_2 C 0.7691(2) 0.90141(18) 0.17141(18)
H2_2 H 0.7357 0.9248 0.1643
C3_2 C 0.79785(19) 0.90554(19) 0.22005(17)
C4_2 C 0.8459(3) 0.8688(3) 0.2275(3)
H3_2 H 0.8659 0.8693 0.2596
C5_2 C 0.8648(3) 0.8316(3) 0.1888(3)
H4_2 H 0.8980 0.8076 0.1952
C6_2 C 0.77635(18) 0.94767(18) 0.26168(17)
C7_2 C 0.73443(19) 0.92794(18) 0.29922(17)
C8_2 C 0.71693(17) 0.96691(18) 0.34005(16)
H7_2 H 0.8780 0.9980 0.2209
C14_2 C 0.6713(2) 0.9443(2) 0.3796(2)
H11_2 H 0.6583 0.9050 0.3697
H12_2 H 0.6375 0.9709 0.3803
H13_2 H 0.6892 0.9428 0.4140
C15_2 C 0.7096(3) 0.8657(2) 0.2955(2)
H14_2 H 0.7263 0.8459 0.2654
H15_2 H 0.6669 0.8676 0.2920
H16_2 H 0.7197 0.8439 0.3269
H21_2 H 0.9085 0.9909 0.4903
C28_2 C 0.8106(3) 0.9853(2) 0.4469(3)
H24_2 H 0.8441 0.9644 0.4619
H25_2 H 0.8051 0.9729 0.4110
H26_2 H 0.7752 0.9764 0.4668
N4_2 N 0.76366(16) 0.76366(16) 0.0000
O1_2 O 0.7586(2) 0.7316(2) 0.03850(19)
O2 O 0.8030(2) 0.8030(2) 0.0000
B2_2 B 0.9322(2) 0.27422(18) 0.10755(18)
C54_2 C 0.97621(17) 0.25683(16) 0.15519(15)
C55_2 C 0.95748(17) 0.21437(17) 0.19267(17)
C56_2 C 0.99484(18) 0.19925(19) 0.23493(18)
C57_2 C 0.9756(2) 0.1559(3) 0.2786(2)
H53_2 H 0.9354 0.1425 0.2721
H54_2 H 0.9772 0.1759 0.3121
C58_2 C 0.8959(2) 0.1860(2) 0.1905(2)
H56_2 H 0.8915 0.1585 0.2193
H57_2 H 0.8912 0.1650 0.1578
H58_2 H 0.8659 0.2166 0.1932
C62_2 C 0.8430(3) 0.0059(2) 0.0293(2)
H66_2 H 0.8587 0.0052 0.0632
C63_2 C 0.8407(2) 0.05848(19) 0.00171(19)
N7 N 0.95262(18) 0.7959(2) 0.04133(18)
C66_2 C 0.8640(2) 0.11631(18) 0.02452(18)
C67_2 C 0.82418(19) 0.15897(19) 0.04223(19)
C68_2 C 0.84544(18) 0.21278(17) 0.06413(16)
C69_2 C 0.90754(16) 0.22156(15) 0.07168(15)
C70_2 C 0.94783(18) 0.17767(17) 0.05147(19)
C71_2 C 0.9260(2) 0.12551(19) 0.0276(2)
C72_2 C 0.9685(3) 0.0788(3) 0.0044(3)
H71_2 H 0.9622 0.0411 0.0216
C74_2 C 0.80109(19) 0.25827(19) 0.0828(2)
H75_2 H 0.7613 0.2450 0.0744
H76_2 H 0.8087 0.2958 0.0657
H77_2 H 0.8048 0.2631 0.1203
C75_2 C 0.7569(2) 0.1488(3) 0.0390(3)
H78_2 H 0.7492 0.1104 0.0235
H79_2 H 0.7391 0.1795 0.0178
H80_2 H 0.7401 0.1500 0.0738
C76_2 C 0.8281(2) 0.62011(17) 0.0783(2)
H81_2 H 0.7911 0.6366 0.0699
C77_2 C 0.83316(19) 0.55950(17) 0.07824(19)
H82_2 H 0.8004 0.5360 0.0692
C78_2 C 0.8870(2) 0.53252(17) 0.09159(18)
C79_2 C 0.9336(3) 0.5712(2) 0.1035(4)
H83_2 H 0.9708 0.5560 0.1128
C80_2 C 0.9248(3) 0.6315(2) 0.1018(4)
H84_2 H 0.9571 0.6562 0.1094
N9_2 N 0.87261(19) 0.65728(15) 0.08970(16)
C81_2 C 0.8948(2) 0.46645(17) 0.09400(17)
C82_2 C 0.8806(2) 0.43655(17) 0.14044(16)
C83_2 C 0.89041(19) 0.37428(18) 0.14371(16)
C84_2 C 0.91482(18) 0.34281(16) 0.10084(15)
C85_2 C 0.92667(18) 0.37346(18) 0.05372(16)
C86_2 C 0.9167(2) 0.43567(18) 0.04968(17)
H85_2 H 0.9203 0.5104 0.0030
C88_2 C 0.9531(3) 0.3418(2) 0.00705(18)
H88_2 H 0.9576 0.3001 0.0150
C89_2 C 0.8725(2) 0.3422(2) 0.19330(18)
H91_2 H 0.8815 0.3004 0.1899
H92_2 H 0.8303 0.3472 0.1990
H93_2 H 0.8941 0.3585 0.2226
C90_2 C 0.8550(3) 0.4703(2) 0.1875(2)
H94_2 H 0.8513 0.5120 0.1789
H95_2 H 0.8812 0.4658 0.2172
H96_2 H 0.8163 0.4544 0.1961
C19_2 C 0.0576(2) 0.8136(3) 0.0470(3)
H19_2 H 0.0929 0.8097 0.0662
C20_2 C 0.0038(3) 0.7919(4) 0.0676(3)
H20_2 H 0.0039 0.7742 0.1007
H22_2 H 0.0746 0.9609 0.0326
C42_2 C 0.4687(2) 0.9296(3) 0.0013(2)
H38_2 H 0.4523 0.9056 0.0291
H39_2 H 0.4644 0.9712 0.0100
H41_2 H 0.3587 0.9916 0.0009
H42_2 H 0.3465 0.9272 0.0228
N4_3 N 0.76366(16) 0.76366(16) 1.0000
O2_2 O 0.8030(2) 0.8030(2) 1.0000
Ag5 Ag 0.758019(14) 0.866598(16) 0.918407(16)
C64_2 C 0.8136(3) 0.0576(2) 0.9530(3)
H67_2 H 0.8097 0.0929 0.9338
C65_2 C 0.7919(4) 0.0038(3) 0.9324(3)
H68_2 H 0.7742 0.0039 0.8993
H70_2 H 0.9609 0.0746 0.9674
C87_2 C 0.9296(3) 0.4687(2) 0.9987(2)
H86_2 H 0.9056 0.4523 0.9709
H87_2 H 0.9712 0.4644 0.9900
H89_2 H 0.9916 0.3587 0.9991
H90_2 H 0.9272 0.3465 0.9772
O3 O 0.7316(2) 0.7586(2) 0.96150(19)
N6 N 0.7959(2) 0.95262(18) 0.95867(18)
B1_2 B 0.27422(18) 0.9322(2) 0.89245(18)
C9_2 C 0.25683(16) 0.97621(17) 0.84481(15)
C10_2 C 0.21437(17) 0.95748(17) 0.80733(17)
C11_2 C 0.19925(19) 0.99484(18) 0.76507(18)
C12_2 C 0.1559(3) 0.9756(2) 0.7214(2)
H5_2 H 0.1425 0.9354 0.7279
H6_2 H 0.1759 0.9772 0.6879
C13_2 C 0.1860(2) 0.8959(2) 0.8095(2)
H8_2 H 0.1585 0.8915 0.7807
H9_2 H 0.1650 0.8912 0.8422
H10_2 H 0.2166 0.8659 0.8068
C17_2 C 0.0059(2) 0.8430(3) 0.9707(2)
H18_2 H 0.0052 0.8587 0.9368
C18_2 C 0.05848(19) 0.8407(2) 0.99829(19)
C21_2 C 0.11631(18) 0.8640(2) 0.97548(18)
C22_2 C 0.15897(19) 0.82418(19) 0.95777(19)
C23_2 C 0.21278(17) 0.84544(18) 0.93587(16)
C24_2 C 0.22156(15) 0.90754(16) 0.92832(15)
C25_2 C 0.17767(17) 0.94783(18) 0.94853(19)
C26_2 C 0.12551(19) 0.9260(2) 0.9724(2)
C27_2 C 0.0788(3) 0.9685(3) 0.9956(3)
H23_2 H 0.0411 0.9622 0.9784
C29_2 C 0.25827(19) 0.80109(19) 0.9172(2)
H27_2 H 0.2450 0.7613 0.9256
H28_2 H 0.2958 0.8087 0.9343
H29_2 H 0.2631 0.8048 0.8797
C30_2 C 0.1488(3) 0.7569(2) 0.9610(3)
H30_2 H 0.1104 0.7492 0.9765
H31_2 H 0.1795 0.7391 0.9822
H32_2 H 0.1500 0.7401 0.9262
C31_2 C 0.62011(17) 0.8281(2) 0.9217(2)
H33_2 H 0.6366 0.7911 0.9301
C32_2 C 0.55950(17) 0.83316(19) 0.92176(19)
H34_2 H 0.5360 0.8004 0.9308
C33_2 C 0.53252(17) 0.8870(2) 0.90841(18)
C34_2 C 0.5712(2) 0.9336(3) 0.8965(4)
H35_2 H 0.5560 0.9708 0.8872
C35_2 C 0.6315(2) 0.9248(3) 0.8982(4)
H36_2 H 0.6562 0.9571 0.8906
N3 N 0.65728(15) 0.87261(19) 0.91030(16)
C36_2 C 0.46645(17) 0.8948(2) 0.90600(17)
C37_2 C 0.43655(17) 0.8806(2) 0.85956(16)
C38_2 C 0.37428(18) 0.89041(19) 0.85629(16)
C39_2 C 0.34281(16) 0.91482(18) 0.89916(15)
C40_2 C 0.37346(18) 0.92667(18) 0.94628(16)
C41_2 C 0.43567(18) 0.9167(2) 0.95032(17)
H37_2 H 0.5104 0.9203 0.9970
C43_2 C 0.3418(2) 0.9531(3) 0.99295(18)
H40_2 H 0.3001 0.9576 0.9850
C44_2 C 0.3422(2) 0.8725(2) 0.80670(18)
H43_2 H 0.3004 0.8815 0.8101
H44_2 H 0.3472 0.8303 0.8010
H45_2 H 0.3585 0.8941 0.7774
C45_2 C 0.4703(2) 0.8550(3) 0.8125(2)
H46_2 H 0.5120 0.8513 0.8211
H47_2 H 0.4658 0.8812 0.7828
H48_2 H 0.4544 0.8163 0.8039
N5_2 N 0.82754(16) 0.83800(17) 0.85828(16)
C46_2 C 0.86231(18) 0.7907(2) 0.86583(18)
H49_2 H 0.8601 0.7710 0.8981
C47_2 C 0.90141(18) 0.7691(2) 0.82859(18)
H50_2 H 0.9248 0.7357 0.8357
C48_2 C 0.90554(19) 0.79785(19) 0.77995(17)
C49_2 C 0.8688(3) 0.8459(3) 0.7725(3)
H51_2 H 0.8693 0.8659 0.7404
C50_2 C 0.8316(3) 0.8648(3) 0.8112(3)
H52_2 H 0.8076 0.8980 0.8048
C51_2 C 0.94767(18) 0.77635(18) 0.73832(17)
C52_2 C 0.92794(18) 0.73443(19) 0.70078(17)
C53_2 C 0.96691(18) 0.71693(17) 0.65995(16)
H55_2 H 0.9980 0.8780 0.7791
C59_2 C 0.9443(2) 0.6713(2) 0.6204(2)
H59_2 H 0.9050 0.6583 0.6303
H60_2 H 0.9709 0.6375 0.6197
H61_2 H 0.9428 0.6892 0.5860
C60_2 C 0.8657(2) 0.7096(3) 0.7045(2)
H62_2 H 0.8459 0.7263 0.7346
H63_2 H 0.8676 0.6669 0.7080
H64_2 H 0.8439 0.7197 0.6731
H69_2 H 0.9909 0.9085 0.5097
C73_2 C 0.9853(2) 0.8106(3) 0.5531(3)
H72_2 H 0.9644 0.8441 0.5381
H73_2 H 0.9729 0.8051 0.5890
H74_2 H 0.9764 0.7752 0.5332
C61_2 C 0.8219(3) 0.9537(2) 0.0065(2)
H65_2 H 0.8258 0.9180 0.0250
C16_2 C 0.9537(2) 0.8219(3) 0.9935(2)
H17_2 H 0.9180 0.8258 0.9750
Ag2_2 Ag 0.366598(16) 0.741981(14) 0.668407(16)
Ag6 Ag 0.633402(16) 0.258019(14) 0.168407(16)
B2_3 B 0.22578(18) 0.4322(2) 0.35755(18)
N5_3 N 0.33800(17) 0.67246(16) 0.60828(16)
C46_3 C 0.2907(2) 0.63769(18) 0.61583(18)
H49_3 H 0.2710 0.6399 0.6481
C47_3 C 0.2691(2) 0.59859(18) 0.57859(18)
H50_3 H 0.2357 0.5752 0.5857
C48_3 C 0.29785(19) 0.59446(19) 0.52995(17)
C49_3 C 0.3459(3) 0.6312(3) 0.5225(3)
H51_3 H 0.3659 0.6307 0.4904
C50_3 C 0.3648(3) 0.6684(3) 0.5612(3)
H52_3 H 0.3980 0.6924 0.5548
C51_3 C 0.27635(18) 0.55233(18) 0.48832(17)
C52_3 C 0.23443(19) 0.57206(18) 0.45078(17)
C53_3 C 0.21693(17) 0.53309(18) 0.40995(16)
C54_3 C 0.24317(16) 0.47621(17) 0.40519(15)
C55_3 C 0.28563(17) 0.45748(17) 0.44267(17)
C56_3 C 0.30075(19) 0.49484(18) 0.48493(18)
C57_3 C 0.3441(3) 0.4756(2) 0.5286(2)
H53_3 H 0.3575 0.4354 0.5221
H54_3 H 0.3241 0.4772 0.5621
H55_3 H 0.3780 0.5020 0.5291
C58_3 C 0.3140(2) 0.3959(2) 0.4405(2)
H56_3 H 0.3415 0.3915 0.4693
H57_3 H 0.3350 0.3912 0.4078
H58_3 H 0.2834 0.3659 0.4432
C59_3 C 0.1713(2) 0.5557(2) 0.3704(2)
H59_3 H 0.1583 0.5950 0.3803
H60_3 H 0.1375 0.5291 0.3697
H61_3 H 0.1892 0.5572 0.3360
C60_3 C 0.2096(3) 0.6343(2) 0.4545(2)
H62_3 H 0.2263 0.6541 0.4846
H63_3 H 0.1669 0.6324 0.4580
H64_3 H 0.2197 0.6561 0.4231
C61_3 C 0.5463(2) 0.3219(3) 0.2565(2)
H65_3 H 0.5820 0.3258 0.2750
C62_3 C 0.4941(2) 0.3430(3) 0.2793(2)
H66_3 H 0.4948 0.3587 0.3132
C63_3 C 0.44152(19) 0.3407(2) 0.25171(19)
C64_3 C 0.4424(2) 0.3136(3) 0.2030(3)
H67_3 H 0.4071 0.3097 0.1838
C65_3 C 0.4962(3) 0.2919(4) 0.1824(3)
H68_3 H 0.4961 0.2742 0.1493
N6_2 N 0.54738(18) 0.2959(2) 0.20867(18)
N8_2 N 0.45262(18) 0.7041(2) 0.70867(18)
C66_3 C 0.38369(18) 0.3640(2) 0.27452(18)
C67_3 C 0.34103(19) 0.32418(19) 0.29223(19)
C68_3 C 0.28722(17) 0.34544(18) 0.31413(16)
C69_3 C 0.27844(15) 0.40754(16) 0.32168(15)
C70_3 C 0.32233(17) 0.44783(18) 0.30147(19)
C71_3 C 0.37449(19) 0.4260(2) 0.2776(2)
C72_3 C 0.4212(3) 0.4685(3) 0.2544(3)
H69_3 H 0.4085 0.5091 0.2597
H70_3 H 0.4254 0.4609 0.2174
H71_3 H 0.4589 0.4622 0.2716
C73_3 C 0.3106(3) 0.5147(2) 0.3031(3)
H72_3 H 0.3441 0.5356 0.2881
H73_3 H 0.3051 0.5271 0.3390
H74_3 H 0.2752 0.5236 0.2832
C74_3 C 0.24173(19) 0.30109(19) 0.3328(2)
H75_3 H 0.2550 0.2613 0.3244
H76_3 H 0.2042 0.3087 0.3157
H77_3 H 0.2369 0.3048 0.3703
C75_3 C 0.3512(3) 0.2569(2) 0.2890(3)
H78_3 H 0.3896 0.2492 0.2735
H79_3 H 0.3205 0.2391 0.2678
H80_3 H 0.3500 0.2401 0.3238
N10_2 N 0.37261(19) 0.84272(15) 0.66030(16)
C81_3 C 0.03355(17) 0.3948(2) 0.34400(17)
C82_3 C 0.06345(17) 0.3806(2) 0.39044(16)
C83_3 C 0.12572(18) 0.39041(19) 0.39371(16)
C84_3 C 0.15719(16) 0.41482(18) 0.35084(15)
C85_3 C 0.12654(18) 0.42667(18) 0.30372(16)
C86_3 C 0.06433(18) 0.4167(2) 0.29968(17)
C87_3 C 0.0313(2) 0.4296(3) 0.2487(2)
H86_3 H 0.0477 0.4056 0.2209
H87_3 H 0.0356 0.4712 0.2400
C88_3 C 0.1582(2) 0.4531(3) 0.25705(18)
H88_3 H 0.1999 0.4576 0.2650
H89_3 H 0.1413 0.4916 0.2491
H90_3 H 0.1535 0.4272 0.2272
C89_3 C 0.1578(2) 0.3725(2) 0.44330(18)
H91_3 H 0.1996 0.3815 0.4399
H92_3 H 0.1528 0.3303 0.4490
H93_3 H 0.1415 0.3941 0.4726
C90_3 C 0.0297(2) 0.3550(3) 0.4375(2)
H95_3 H 0.0342 0.3812 0.4672
H96_3 H 0.0456 0.3163 0.4461
O4_2 O 0.2586(2) 0.7684(2) 0.71150(19)
O5_2 O 0.3030(2) 0.6970(2) 0.7500
Ag1_2 Ag 0.741981(14) 0.366598(16) 0.331593(16)
B1_3 B 0.4322(2) 0.22578(18) 0.64245(18)
N1_3 N 0.67246(16) 0.33800(17) 0.39172(16)
C1_3 C 0.63769(18) 0.2907(2) 0.38417(18)
H1_3 H 0.6399 0.2710 0.3519
C2_3 C 0.59859(18) 0.2691(2) 0.42141(18)
H2_3 H 0.5752 0.2357 0.4143
C3_3 C 0.59446(19) 0.29785(19) 0.47005(17)
C4_3 C 0.6312(3) 0.3459(3) 0.4775(3)
H3_3 H 0.6307 0.3659 0.5096
C5_3 C 0.6684(3) 0.3648(3) 0.4388(3)
H4_3 H 0.6924 0.3980 0.4452
C6_3 C 0.55233(18) 0.27635(18) 0.51168(17)
C7_3 C 0.57206(18) 0.23443(19) 0.54922(17)
C8_3 C 0.53309(18) 0.21693(17) 0.59005(16)
C9_3 C 0.47621(17) 0.24317(16) 0.59481(15)
C10_3 C 0.45748(17) 0.28563(17) 0.55733(17)
C11_3 C 0.49484(18) 0.30075(19) 0.51507(18)
C12_3 C 0.4756(2) 0.3441(3) 0.4714(2)
H5_3 H 0.4354 0.3575 0.4779
H6_3 H 0.4772 0.3241 0.4379
H7_3 H 0.5020 0.3780 0.4709
C13_3 C 0.3959(2) 0.3140(2) 0.5595(2)
H8_3 H 0.3915 0.3415 0.5307
H9_3 H 0.3912 0.3350 0.5922
H10_3 H 0.3659 0.2834 0.5568
C14_3 C 0.5557(2) 0.1713(2) 0.6296(2)
H11_3 H 0.5950 0.1583 0.6197
H12_3 H 0.5291 0.1375 0.6303
H13_3 H 0.5572 0.1892 0.6640
C15_3 C 0.6343(2) 0.2096(3) 0.5455(2)
H14_3 H 0.6541 0.2263 0.5154
H15_3 H 0.6324 0.1669 0.5420
H16_3 H 0.6561 0.2197 0.5769
C16_3 C 0.3219(3) 0.5463(2) 0.7435(2)
H17_3 H 0.3258 0.5820 0.7250
C17_3 C 0.3430(3) 0.4941(2) 0.7207(2)
H18_3 H 0.3587 0.4948 0.6868
C18_3 C 0.3407(2) 0.44152(19) 0.74829(19)
C19_3 C 0.3136(3) 0.4424(2) 0.7970(3)
H19_3 H 0.3097 0.4071 0.8162
C20_3 C 0.2919(4) 0.4962(3) 0.8176(3)
H20_3 H 0.2742 0.4961 0.8507
N2_2 N 0.2959(2) 0.54738(18) 0.79133(18)
C21_3 C 0.3640(2) 0.38369(18) 0.72548(18)
C22_3 C 0.32418(19) 0.34103(19) 0.70777(19)
C23_3 C 0.34544(18) 0.28722(17) 0.68587(16)
C24_3 C 0.40754(16) 0.27844(15) 0.67832(15)
C25_3 C 0.44783(18) 0.32233(17) 0.69853(19)
C26_3 C 0.4260(2) 0.37449(19) 0.7224(2)
C27_3 C 0.4685(3) 0.4212(3) 0.7456(3)
H21_3 H 0.5091 0.4085 0.7403
H22_3 H 0.4609 0.4254 0.7826
H23_3 H 0.4622 0.4589 0.7284
C28_3 C 0.5147(2) 0.3106(3) 0.6969(3)
H24_3 H 0.5356 0.3441 0.7119
H25_3 H 0.5271 0.3051 0.6610
H26_3 H 0.5236 0.2752 0.7168
C29_3 C 0.30109(19) 0.24173(19) 0.6672(2)
H27_3 H 0.2613 0.2550 0.6756
H28_3 H 0.3087 0.2042 0.6843
H29_3 H 0.3048 0.2369 0.6297
C30_3 C 0.2569(2) 0.3512(3) 0.7110(3)
H30_3 H 0.2492 0.3896 0.7265
H31_3 H 0.2391 0.3205 0.7322
H32_3 H 0.2401 0.3500 0.6762
C36_3 C 0.3948(2) 0.03355(17) 0.65600(17)
C37_3 C 0.3806(2) 0.06345(17) 0.60956(16)
C38_3 C 0.39041(19) 0.12572(18) 0.60629(16)
C39_3 C 0.41482(18) 0.15719(16) 0.64916(15)
C40_3 C 0.42667(18) 0.12654(18) 0.69628(16)
C41_3 C 0.4167(2) 0.06433(18) 0.70032(17)
C42_3 C 0.4296(3) 0.0313(2) 0.7513(2)
H38_3 H 0.4056 0.0477 0.7791
H39_3 H 0.4712 0.0356 0.7600
C43_3 C 0.4531(3) 0.1582(2) 0.74295(18)
H40_3 H 0.4576 0.1999 0.7350
H41_3 H 0.4916 0.1413 0.7509
H42_3 H 0.4272 0.1535 0.7728
C44_3 C 0.3725(2) 0.1578(2) 0.55670(18)
H43_3 H 0.3815 0.1996 0.5601
H44_3 H 0.3303 0.1528 0.5510
H45_3 H 0.3941 0.1415 0.5274
C45_3 C 0.3550(3) 0.0297(2) 0.5625(2)
H47_3 H 0.3812 0.0342 0.5328
H48_3 H 0.3163 0.0456 0.5539
N4_4 N 0.73634(16) 0.26366(16) 0.2500
O1_3 O 0.7684(2) 0.2586(2) 0.28850(19)
O2_3 O 0.6970(2) 0.3030(2) 0.2500
Ag3_2 Ag 0.258019(14) 0.633402(16) 0.831593(16)
N7_2 N 0.7041(2) 0.45262(18) 0.29133(18)
C76_3 C 0.87989(17) 0.3281(2) 0.3283(2)
H81_3 H 0.8634 0.2911 0.3199
C77_3 C 0.94050(17) 0.33316(19) 0.32824(19)
H82_3 H 0.9640 0.3004 0.3192
C78_3 C 0.96748(17) 0.3870(2) 0.34159(18)
C79_3 C 0.9288(2) 0.4336(3) 0.3535(4)
H83_3 H 0.9440 0.4708 0.3628
C80_3 C 0.8685(2) 0.4248(3) 0.3518(4)
H84_3 H 0.8438 0.4571 0.3594
N9_3 N 0.84272(15) 0.37261(19) 0.33970(16)
H85_3 H 0.9896 0.4203 0.2530
H94_3 H 0.9880 0.3513 0.4289
O3_2 O 0.7414(2) 0.2316(2) 0.21150(19)
C31_3 C 0.3281(2) 0.87989(17) 0.6717(2)
H33_3 H 0.2911 0.8634 0.6801
C32_3 C 0.33316(19) 0.94050(17) 0.67176(19)
H34_3 H 0.3004 0.9640 0.6808
C33_3 C 0.3870(2) 0.96748(17) 0.65841(18)
C34_3 C 0.4336(3) 0.9288(2) 0.6465(4)
H35_3 H 0.4708 0.9440 0.6372
C35_3 C 0.4248(3) 0.8685(2) 0.6482(4)
H36_3 H 0.4571 0.8438 0.6406
H37_3 H 0.4203 0.9896 0.7470
H46_3 H 0.3513 0.9880 0.5711
C31_4 C 0.6719(2) 0.12011(17) 0.1717(2)
H33_4 H 0.7089 0.1366 0.1801
C32_4 C 0.66684(19) 0.05950(17) 0.17176(19)
H34_4 H 0.6996 0.0360 0.1808
C33_4 C 0.6130(2) 0.03252(17) 0.15841(18)
C34_4 C 0.5664(3) 0.0712(2) 0.1465(4)
H35_4 H 0.5292 0.0560 0.1372
C35_4 C 0.5752(3) 0.1315(2) 0.1482(4)
H36_4 H 0.5429 0.1562 0.1406
N3_2 N 0.62739(19) 0.15728(15) 0.16030(16)
H37_4 H 0.5797 0.0104 0.2470
H46_4 H 0.6487 0.0120 0.0711
B1_4 B 0.5678(2) 0.77422(18) 0.14245(18)
H3_4 H 0.3693 0.6341 0.0096
C6_4 C 0.44767(18) 0.72365(18) 0.01168(17)
C7_4 C 0.42794(18) 0.76557(19) 0.04922(17)
C8_4 C 0.46691(18) 0.78307(17) 0.09005(16)
C9_4 C 0.52379(17) 0.75683(16) 0.09481(15)
C10_4 C 0.54252(17) 0.71437(17) 0.05733(17)
C11_4 C 0.50516(18) 0.69925(19) 0.01507(18)
C13_4 C 0.6041(2) 0.6860(2) 0.0595(2)
H8_4 H 0.6085 0.6585 0.0307
H9_4 H 0.6088 0.6650 0.0922
H10_4 H 0.6341 0.7166 0.0568
C14_4 C 0.4443(2) 0.8287(2) 0.1296(2)
H11_4 H 0.4050 0.8417 0.1197
H12_4 H 0.4709 0.8625 0.1303
H13_4 H 0.4428 0.8108 0.1640
C15_4 C 0.3657(2) 0.7904(3) 0.0455(2)
H14_4 H 0.3459 0.7737 0.0154
H15_4 H 0.3676 0.8331 0.0420
H16_4 H 0.3439 0.7803 0.0769
C16_4 C 0.6781(3) 0.4537(2) 0.2435(2)
H17_4 H 0.6742 0.4180 0.2250
C17_4 C 0.6570(3) 0.5059(2) 0.2207(2)
H18_4 H 0.6413 0.5052 0.1868
C18_4 C 0.6593(2) 0.55848(19) 0.24829(19)
C19_4 C 0.6864(3) 0.5576(2) 0.2970(3)
H19_4 H 0.6903 0.5929 0.3162
C20_4 C 0.7081(4) 0.5038(3) 0.3176(3)
H20_4 H 0.7258 0.5039 0.3507
C21_4 C 0.6360(2) 0.61631(18) 0.22548(18)
C22_4 C 0.67582(19) 0.65897(19) 0.20777(19)
C23_4 C 0.65456(18) 0.71278(17) 0.18587(16)
C24_4 C 0.59246(16) 0.72156(15) 0.17832(15)
C25_4 C 0.55217(18) 0.67767(17) 0.19853(19)
C26_4 C 0.5740(2) 0.62551(19) 0.2224(2)
C27_4 C 0.5315(3) 0.5788(3) 0.2456(3)
H21_4 H 0.4909 0.5915 0.2403
H22_4 H 0.5391 0.5746 0.2826
H23_4 H 0.5378 0.5411 0.2284
C28_4 C 0.4853(2) 0.6894(3) 0.1969(3)
H24_4 H 0.4644 0.6559 0.2119
H25_4 H 0.4729 0.6949 0.1610
H26_4 H 0.4764 0.7248 0.2168
C29_4 C 0.69891(19) 0.75827(19) 0.1672(2)
H27_4 H 0.7387 0.7450 0.1756
H28_4 H 0.6913 0.7958 0.1843
H29_4 H 0.6952 0.7631 0.1297
C30_4 C 0.7431(2) 0.6488(3) 0.2110(3)
H30_4 H 0.7508 0.6104 0.2265
H31_4 H 0.7609 0.6795 0.2322
H32_4 H 0.7599 0.6500 0.1762
C36_4 C 0.6052(2) 0.96645(17) 0.15600(17)
C37_4 C 0.6194(2) 0.93655(17) 0.10956(16)
C38_4 C 0.60959(19) 0.87428(18) 0.10629(16)
C39_4 C 0.58518(18) 0.84281(16) 0.14916(15)
C40_4 C 0.57333(18) 0.87346(18) 0.19628(16)
C41_4 C 0.5833(2) 0.93567(18) 0.20032(17)
C42_4 C 0.5704(3) 0.9687(2) 0.2513(2)
H38_4 H 0.5944 0.9523 0.2791
H39_4 H 0.5288 0.9644 0.2600
C43_4 C 0.5469(3) 0.8418(2) 0.24295(18)
H40_4 H 0.5424 0.8001 0.2350
H41_4 H 0.5084 0.8587 0.2509
H42_4 H 0.5728 0.8465 0.2728
C44_4 C 0.6275(2) 0.8422(2) 0.05670(18)
H43_4 H 0.6185 0.8004 0.0601
H44_4 H 0.6697 0.8472 0.0510
H45_4 H 0.6059 0.8585 0.0274
C45_4 C 0.6450(3) 0.9703(2) 0.0625(2)
H47_4 H 0.6188 0.9658 0.0328
H48_4 H 0.6837 0.9544 0.0539
N1_4 N 0.32754(16) 0.66200(17) 0.89172(16)
C1_4 C 0.36231(18) 0.7093(2) 0.88417(18)
H1_4 H 0.3601 0.7290 0.8519
C2_4 C 0.40141(18) 0.7309(2) 0.92141(18)
H2_4 H 0.4248 0.7643 0.9143
C3_4 C 0.40554(19) 0.70215(19) 0.97005(17)
C4_4 C 0.3688(3) 0.6541(3) 0.9775(3)
C5_4 C 0.3316(3) 0.6352(3) 0.9388(3)
H4_4 H 0.3076 0.6020 0.9452
C12_4 C 0.5244(2) 0.6559(3) 0.9714(2)
H5_4 H 0.5646 0.6425 0.9779
H6_4 H 0.5228 0.6759 0.9379
H7_4 H 0.4980 0.6220 0.9709
N4_5 N 0.26366(16) 0.73634(16) 0.7500
O1_4 O 0.2316(2) 0.7414(2) 0.78850(19)
C76_4 C 0.12011(17) 0.6719(2) 0.8283(2)
H81_4 H 0.1366 0.7089 0.8199
C77_4 C 0.05950(17) 0.66684(19) 0.82824(19)
H82_4 H 0.0360 0.6996 0.8192
C78_4 C 0.03252(17) 0.6130(2) 0.84159(18)
C79_4 C 0.0712(2) 0.5664(3) 0.8535(4)
H83_4 H 0.0560 0.5292 0.8628
C80_4 C 0.1315(2) 0.5752(3) 0.8518(4)
H84_4 H 0.1562 0.5429 0.8594
N9_4 N 0.15728(15) 0.62739(19) 0.83970(16)
H85_4 H 0.0104 0.5797 0.7530
H94_4 H 0.0120 0.6487 0.9289
N5_4 N 0.66200(17) 0.32754(16) 0.10828(16)
C46_4 C 0.7093(2) 0.36231(18) 0.11583(18)
H49_4 H 0.7290 0.3601 0.1481
C47_4 C 0.7309(2) 0.40141(18) 0.07859(18)
H50_4 H 0.7643 0.4248 0.0857
C48_4 C 0.70215(19) 0.40554(19) 0.02995(17)
C49_4 C 0.6541(3) 0.3688(3) 0.0225(3)
C50_4 C 0.6352(3) 0.3316(3) 0.0612(3)
H52_4 H 0.6020 0.3076 0.0548
C57_4 C 0.6559(3) 0.5244(2) 0.0286(2)
H53_4 H 0.6425 0.5646 0.0221
H54_4 H 0.6759 0.5228 0.0621
H55_4 H 0.6220 0.4980 0.0291
B2_4 B 0.77422(18) 0.5678(2) 0.85755(18)
H51_4 H 0.6341 0.3693 0.9904
C51_4 C 0.72365(18) 0.44767(18) 0.98832(17)
C52_4 C 0.76557(19) 0.42794(18) 0.95078(17)
C53_4 C 0.78307(17) 0.46691(18) 0.90995(16)
C54_4 C 0.75683(16) 0.52379(17) 0.90519(15)
C55_4 C 0.71437(17) 0.54252(17) 0.94267(17)
C56_4 C 0.69925(19) 0.50516(18) 0.98493(18)
C58_4 C 0.6860(2) 0.6041(2) 0.9405(2)
H56_4 H 0.6585 0.6085 0.9693
H57_4 H 0.6650 0.6088 0.9078
H58_4 H 0.7166 0.6341 0.9432
C59_4 C 0.8287(2) 0.4443(2) 0.8704(2)
H59_4 H 0.8417 0.4050 0.8803
H60_4 H 0.8625 0.4709 0.8697
H61_4 H 0.8108 0.4428 0.8360
C60_4 C 0.7904(3) 0.3657(2) 0.9545(2)
H62_4 H 0.7737 0.3459 0.9846
H63_4 H 0.8331 0.3676 0.9580
H64_4 H 0.7803 0.3439 0.9231
C61_4 C 0.4537(2) 0.6781(3) 0.7565(2)
H65_4 H 0.4180 0.6742 0.7750
C62_4 C 0.5059(2) 0.6570(3) 0.7793(2)
H66_4 H 0.5052 0.6413 0.8132
C63_4 C 0.55848(19) 0.6593(2) 0.75171(19)
C64_4 C 0.5576(2) 0.6864(3) 0.7030(3)
H67_4 H 0.5929 0.6903 0.6838
C65_4 C 0.5038(3) 0.7081(4) 0.6824(3)
H68_4 H 0.5039 0.7258 0.6493
C66_4 C 0.61631(18) 0.6360(2) 0.77452(18)
C67_4 C 0.65897(19) 0.67582(19) 0.79223(19)
C68_4 C 0.71278(17) 0.65456(18) 0.81413(16)
C69_4 C 0.72156(15) 0.59246(16) 0.82168(15)
C70_4 C 0.67767(17) 0.55217(18) 0.80147(19)
C71_4 C 0.62551(19) 0.5740(2) 0.7776(2)
C72_4 C 0.5788(3) 0.5315(3) 0.7544(3)
H69_4 H 0.5915 0.4909 0.7597
H70_4 H 0.5746 0.5391 0.7174
H71_4 H 0.5411 0.5378 0.7716
C73_4 C 0.6894(3) 0.4853(2) 0.8031(3)
H72_4 H 0.6559 0.4644 0.7881
H73_4 H 0.6949 0.4729 0.8390
H74_4 H 0.7248 0.4764 0.7832
C74_4 C 0.75827(19) 0.69891(19) 0.8328(2)
H75_4 H 0.7450 0.7387 0.8244
H76_4 H 0.7958 0.6913 0.8157
H77_4 H 0.7631 0.6952 0.8703
C75_4 C 0.6488(3) 0.7431(2) 0.7890(3)
H78_4 H 0.6104 0.7508 0.7735
H79_4 H 0.6795 0.7609 0.7678
H80_4 H 0.6500 0.7599 0.8238
C81_4 C 0.96645(17) 0.6052(2) 0.84400(17)
C82_4 C 0.93655(17) 0.6194(2) 0.89044(16)
C83_4 C 0.87428(18) 0.60959(19) 0.89371(16)
C84_4 C 0.84281(16) 0.58518(18) 0.85084(15)
C85_4 C 0.87346(18) 0.57333(18) 0.80372(16)
C86_4 C 0.93567(18) 0.5833(2) 0.79968(17)
C87_4 C 0.9687(2) 0.5704(3) 0.7487(2)
H86_4 H 0.9523 0.5944 0.7209
H87_4 H 0.9644 0.5288 0.7400
C88_4 C 0.8418(2) 0.5469(3) 0.75705(18)
H88_4 H 0.8001 0.5424 0.7650
H89_4 H 0.8587 0.5084 0.7491
H90_4 H 0.8465 0.5728 0.7272
C89_4 C 0.8422(2) 0.6275(2) 0.94330(18)
H91_4 H 0.8004 0.6185 0.9399
H92_4 H 0.8472 0.6697 0.9490
H93_4 H 0.8585 0.6059 0.9726
C90_4 C 0.9703(2) 0.6450(3) 0.9375(2)
H95_4 H 0.9658 0.6188 0.9672
H96_4 H 0.9544 0.6837 0.9461
O7 O 0.0025(15) 0.0169(15) 0.1773(13)
N11 N 0.0138(15) 0.9736(13) 0.1488(12)
O8 O 0.0651(14) 0.9560(17) 0.1428(15)
O6 O 0.9729(16) 0.9499(14) 0.1246(14)
O6_2 O 0.0271(16) 0.0501(14) 0.6246(14)
N11_2 N 0.9862(15) 0.0264(13) 0.6488(12)
O8_2 O 0.9349(14) 0.0440(17) 0.6428(15)
O7_2 O 0.9975(15) 0.9831(15) 0.6773(13)
N11_3 N 0.5264(13) 0.5138(15) 0.3988(12)
O6_3 O 0.5501(14) 0.4729(16) 0.3746(14)
O7_3 O 0.4831(15) 0.5025(15) 0.4273(13)
O8_3 O 0.5440(17) 0.5651(14) 0.3928(15)
N11_4 N 0.4736(13) 0.4862(15) 0.8988(12)
O6_4 O 0.4499(14) 0.5271(16) 0.8746(14)
O7_4 O 0.5169(15) 0.4975(15) 0.9273(13)
O8_4 O 0.4560(17) 0.4349(14) 0.8928(15)
N11_5 N 0.4862(15) 0.4736(13) 0.1012(12)
O6_5 O 0.5271(16) 0.4499(14) 0.1254(14)
O7_5 O 0.4975(15) 0.5169(15) 0.0727(13)
O8_5 O 0.4349(14) 0.4560(17) 0.1072(15)
N11_6 N 0.5138(15) 0.5264(13) 0.6012(12)
O6_6 O 0.4729(16) 0.5501(14) 0.6254(14)
O7_6 O 0.5025(15) 0.4831(15) 0.5727(13)
O8_6 O 0.5651(14) 0.5440(17) 0.6072(15)
O7_7 O 0.0169(15) 0.0025(15) 0.8227(13)
N11_7 N 0.9736(13) 0.0138(15) 0.8512(12)
O8_7 O 0.9560(17) 0.0651(14) 0.8572(15)
O6_7 O 0.9499(14) 0.9729(16) 0.8754(14)
O6_8 O 0.0501(14) 0.0271(16) 0.3754(14)
N11_8 N 0.0264(13) 0.9862(15) 0.3512(12)
O8_8 O 0.0440(17) 0.9349(14) 0.3572(15)
O7_8 O 0.9831(15) 0.9975(15) 0.3227(13)
loop_
_geom_bond_atom_site_label_1
_geom_bond_atom_site_label_2
_geom_bond_site_symmetry_1
_geom_bond_site_symmetry_2
C16 H17 1_555 1_555
N2 C16 1_555 1_555
Ag3 N2 1_555 1_555
Ag2 N5 1_555 1_555
N5 C46 1_555 1_555
C46 H49 1_555 1_555
C47 C46 1_555 1_555
H50 C47 1_555 1_555
C48 C47 1_555 1_555
C49 C48 1_555 1_555
H51 C49 1_555 1_555
C50 N5 1_555 1_555
H52 C50 1_555 1_555
C51 C48 1_555 1_555
C52 C51 1_555 1_555
C53 C52 1_555 1_555
C59 C53 1_555 1_555
H59 C59 1_555 1_555
H60 C59 1_555 1_555
H61 C59 1_555 1_555
C60 C52 1_555 1_555
H62 C60 1_555 1_555
H63 C60 1_555 1_555
H64 C60 1_555 1_555
N8 Ag2 1_555 1_555
H72 C73 1_555 1_555
H73 C73 1_555 1_555
H74 C73 1_555 1_555
N10 Ag2 1_555 1_555
O4 Ag2 1_555 1_555
O5 Ag2 1_555 1_555
C49 C50 1_555 1_555
B1 C9 1_555 1_555
C10 C9 1_555 1_555
C12 C11 1_555 1_555
H5 C12 1_555 1_555
H6 C12 1_555 1_555
C13 C10 1_555 1_555
H8 C13 1_555 1_555
H9 C13 1_555 1_555
H10 C13 1_555 1_555
H18 C17 1_555 1_555
C18 C17 1_555 1_555
C19 C18 1_555 1_555
H19 C19 1_555 1_555
C20 C19 1_555 1_555
H20 C20 1_555 1_555
C21 C18 1_555 1_555
C22 C21 1_555 1_555
C23 C22 1_555 1_555
C24 B1 1_555 1_555
C25 C24 1_555 1_555
C26 C21 1_555 1_555
C27 C26 1_555 1_555
H22 C27 1_555 1_555
H23 C27 1_555 1_555
C29 C23 1_555 1_555
H27 C29 1_555 1_555
H28 C29 1_555 1_555
H29 C29 1_555 1_555
C30 C22 1_555 1_555
H30 C30 1_555 1_555
H31 C30 1_555 1_555
H32 C30 1_555 1_555
C31 H33 1_555 1_555
C32 C31 1_555 1_555
H34 C32 1_555 1_555
C33 C32 1_555 1_555
C34 C33 1_555 1_555
H35 C34 1_555 1_555
C35 C34 1_555 1_555
H36 C35 1_555 1_555
N10 C31 1_555 1_555
C36 C33 1_555 1_555
C37 C36 1_555 1_555
C38 C37 1_555 1_555
C39 B1 1_555 1_555
C40 C39 1_555 1_555
C41 C36 1_555 1_555
C42 C41 1_555 1_555
H37 C42 1_555 1_555
H38 C42 1_555 1_555
H39 C42 1_555 1_555
C43 C40 1_555 1_555
H40 C43 1_555 1_555
H41 C43 1_555 1_555
H42 C43 1_555 1_555
C44 C38 1_555 1_555
H43 C44 1_555 1_555
H44 C44 1_555 1_555
H45 C44 1_555 1_555
C45 C37 1_555 1_555
H46 C45 1_555 1_555
H47 C45 1_555 1_555
H48 C45 1_555 1_555
C10 C11 1_555 1_555
C23 C24 1_555 1_555
C25 C26 1_555 1_555
C35 N10 1_555 1_555
C38 C39 1_555 1_555
C40 C41 1_555 1_555
C61 H65 1_555 1_555
N8 C61 1_555 1_555
Ag3 N1 1_555 1_555
N1 C1 1_555 1_555
C1 H1 1_555 1_555
C2 C1 1_555 1_555
H2 C2 1_555 1_555
C3 C2 1_555 1_555
C4 C3 1_555 1_555
H3 C4 1_555 1_555
C5 N1 1_555 1_555
H4 C5 1_555 1_555
C6 C3 1_555 1_555
C7 C6 1_555 1_555
C8 C7 1_555 1_555
C14 C8 1_555 1_555
H11 C14 1_555 1_555
H12 C14 1_555 1_555
H13 C14 1_555 1_555
C15 C7 1_555 1_555
H14 C15 1_555 1_555
H15 C15 1_555 1_555
H16 C15 1_555 1_555
H24 C28 1_555 1_555
H25 C28 1_555 1_555
H26 C28 1_555 1_555
N4 O1 1_555 1_555
O1 Ag3 1_555 1_555
O5 Ag3 1_555 1_555
B2 C54 1_555 1_555
C55 C54 1_555 1_555
C57 C56 1_555 1_555
H53 C57 1_555 1_555
H54 C57 1_555 1_555
C58 C55 1_555 1_555
H56 C58 1_555 1_555
H57 C58 1_555 1_555
H58 C58 1_555 1_555
H66 C62 1_555 1_555
C63 C62 1_555 1_555
C64 C63 1_555 1_555
H67 C64 1_555 1_555
C65 C64 1_555 1_555
H68 C65 1_555 1_555
C66 C63 1_555 1_555
C67 C66 1_555 1_555
C68 C67 1_555 1_555
C69 B2 1_555 1_555
C70 C69 1_555 1_555
C71 C66 1_555 1_555
C72 C71 1_555 1_555
H70 C72 1_555 1_555
H71 C72 1_555 1_555
C74 C68 1_555 1_555
H75 C74 1_555 1_555
H76 C74 1_555 1_555
H77 C74 1_555 1_555
C75 C67 1_555 1_555
H78 C75 1_555 1_555
H79 C75 1_555 1_555
H80 C75 1_555 1_555
C76 H81 1_555 1_555
C77 C76 1_555 1_555
H82 C77 1_555 1_555
C78 C77 1_555 1_555
C79 C78 1_555 1_555
H83 C79 1_555 1_555
C80 C79 1_555 1_555
H84 C80 1_555 1_555
N9 Ag3 1_555 1_555
C81 C78 1_555 1_555
C82 C81 1_555 1_555
C83 C82 1_555 1_555
C84 B2 1_555 1_555
C85 C84 1_555 1_555
C86 C81 1_555 1_555
C87 C86 1_555 1_555
H85 C87 1_555 1_555
H86 C87 1_555 1_555
H87 C87 1_555 1_555
C88 C85 1_555 1_555
H88 C88 1_555 1_555
H89 C88 1_555 1_555
H90 C88 1_555 1_555
C89 C83 1_555 1_555
H91 C89 1_555 1_555
H92 C89 1_555 1_555
H93 C89 1_555 1_555
C90 C82 1_555 1_555
H94 C90 1_555 1_555
H95 C90 1_555 1_555
H96 C90 1_555 1_555
O4 N4 1_555 1_555
C4 C5 1_555 1_555
N4 O5 1_555 1_555
C55 C56 1_555 1_555
C68 C69 1_555 1_555
C70 C71 1_555 1_555
C76 N9 1_555 1_555
C80 N9 1_555 1_555
C83 C84 1_555 1_555
C85 C86 1_555 1_555
Ag1 N1_2 1_555 1_555
N1_2 C1_2 1_555 1_555
C1_2 H1_2 1_555 1_555
C2_2 C1_2 1_555 1_555
H2_2 C2_2 1_555 1_555
C3_2 C2_2 1_555 1_555
C4_2 C3_2 1_555 1_555
H3_2 C4_2 1_555 1_555
C5_2 N1_2 1_555 1_555
H4_2 C5_2 1_555 1_555
C6_2 C3_2 1_555 1_555
C7_2 C6_2 1_555 1_555
C8_2 C7_2 1_555 1_555
C14_2 C8_2 1_555 1_555
H11_2 C14_2 1_555 1_555
H12_2 C14_2 1_555 1_555
H13_2 C14_2 1_555 1_555
C15_2 C7_2 1_555 1_555
H14_2 C15_2 1_555 1_555
H15_2 C15_2 1_555 1_555
H16_2 C15_2 1_555 1_555
H24_2 C28_2 1_555 1_555
H25_2 C28_2 1_555 1_555
H26_2 C28_2 1_555 1_555
N4_2 O1_2 1_555 1_555
O1_2 Ag1 1_555 1_555
O2 Ag1 1_555 1_555
B2_2 C54_2 1_555 1_555
C55_2 C54_2 1_555 1_555
C57_2 C56_2 1_555 1_555
H53_2 C57_2 1_555 1_555
H54_2 C57_2 1_555 1_555
C58_2 C55_2 1_555 1_555
H56_2 C58_2 1_555 1_555
H57_2 C58_2 1_555 1_555
H58_2 C58_2 1_555 1_555
H66_2 C62_2 1_555 1_555
C63_2 C62_2 1_555 1_555
N7 Ag1 1_555 1_555
C66_2 C63_2 1_555 1_555
C67_2 C66_2 1_555 1_555
C68_2 C67_2 1_555 1_555
C69_2 B2_2 1_555 1_555
C70_2 C69_2 1_555 1_555
C71_2 C66_2 1_555 1_555
C72_2 C71_2 1_555 1_555
H71_2 C72_2 1_555 1_555
C74_2 C68_2 1_555 1_555
H75_2 C74_2 1_555 1_555
H76_2 C74_2 1_555 1_555
H77_2 C74_2 1_555 1_555
C75_2 C67_2 1_555 1_555
H78_2 C75_2 1_555 1_555
H79_2 C75_2 1_555 1_555
H80_2 C75_2 1_555 1_555
C76_2 H81_2 1_555 1_555
C77_2 C76_2 1_555 1_555
H82_2 C77_2 1_555 1_555
C78_2 C77_2 1_555 1_555
C79_2 C78_2 1_555 1_555
H83_2 C79_2 1_555 1_555
C80_2 C79_2 1_555 1_555
H84_2 C80_2 1_555 1_555
N9_2 Ag1 1_555 1_555
C81_2 C78_2 1_555 1_555
C82_2 C81_2 1_555 1_555
C83_2 C82_2 1_555 1_555
C84_2 B2_2 1_555 1_555
C85_2 C84_2 1_555 1_555
C86_2 C81_2 1_555 1_555
C88_2 C85_2 1_555 1_555
H88_2 C88_2 1_555 1_555
C89_2 C83_2 1_555 1_555
H91_2 C89_2 1_555 1_555
H92_2 C89_2 1_555 1_555
H93_2 C89_2 1_555 1_555
C90_2 C82_2 1_555 1_555
H94_2 C90_2 1_555 1_555
H95_2 C90_2 1_555 1_555
H96_2 C90_2 1_555 1_555
C4_2 C5_2 1_555 1_555
N4_2 O2 1_555 1_555
C55_2 C56_2 1_555 1_555
C68_2 C69_2 1_555 1_555
C70_2 C71_2 1_555 1_555
C76_2 N9_2 1_555 1_555
C80_2 N9_2 1_555 1_555
C83_2 C84_2 1_555 1_555
C85_2 C86_2 1_555 1_555
H19_2 C19_2 1_555 1_555
C20_2 C19_2 1_555 1_555
H20_2 C20_2 1_555 1_555
H38_2 C42_2 1_555 1_555
H39_2 C42_2 1_555 1_555
Ag5 O2_2 1_555 1_555
H67_2 C64_2 1_555 1_555
C65_2 C64_2 1_555 1_555
H68_2 C65_2 1_555 1_555
H86_2 C87_2 1_555 1_555
H87_2 C87_2 1_555 1_555
O3 N4_3 1_555 1_555
N4_3 O2_2 1_555 1_555
Ag5 O3 1_555 1_555
Ag5 N6 1_555 1_555
B1_2 C9_2 1_555 1_555
C10_2 C9_2 1_555 1_555
C12_2 C11_2 1_555 1_555
H5_2 C12_2 1_555 1_555
H6_2 C12_2 1_555 1_555
C13_2 C10_2 1_555 1_555
H8_2 C13_2 1_555 1_555
H9_2 C13_2 1_555 1_555
H10_2 C13_2 1_555 1_555
H18_2 C17_2 1_555 1_555
C18_2 C17_2 1_555 1_555
C21_2 C18_2 1_555 1_555
C22_2 C21_2 1_555 1_555
C23_2 C22_2 1_555 1_555
C24_2 B1_2 1_555 1_555
C25_2 C24_2 1_555 1_555
C26_2 C21_2 1_555 1_555
C27_2 C26_2 1_555 1_555
H23_2 C27_2 1_555 1_555
C29_2 C23_2 1_555 1_555
H27_2 C29_2 1_555 1_555
H28_2 C29_2 1_555 1_555
H29_2 C29_2 1_555 1_555
C30_2 C22_2 1_555 1_555
H30_2 C30_2 1_555 1_555
H31_2 C30_2 1_555 1_555
H32_2 C30_2 1_555 1_555
C31_2 H33_2 1_555 1_555
C32_2 C31_2 1_555 1_555
H34_2 C32_2 1_555 1_555
C33_2 C32_2 1_555 1_555
C34_2 C33_2 1_555 1_555
H35_2 C34_2 1_555 1_555
C35_2 C34_2 1_555 1_555
H36_2 C35_2 1_555 1_555
N3 C31_2 1_555 1_555
C36_2 C33_2 1_555 1_555
C37_2 C36_2 1_555 1_555
C38_2 C37_2 1_555 1_555
C39_2 B1_2 1_555 1_555
C40_2 C39_2 1_555 1_555
C41_2 C36_2 1_555 1_555
C43_2 C40_2 1_555 1_555
H40_2 C43_2 1_555 1_555
C44_2 C38_2 1_555 1_555
H43_2 C44_2 1_555 1_555
H44_2 C44_2 1_555 1_555
H45_2 C44_2 1_555 1_555
C45_2 C37_2 1_555 1_555
H46_2 C45_2 1_555 1_555
H47_2 C45_2 1_555 1_555
H48_2 C45_2 1_555 1_555
Ag5 N3 1_555 1_555
C10_2 C11_2 1_555 1_555
C23_2 C24_2 1_555 1_555
C25_2 C26_2 1_555 1_555
C35_2 N3 1_555 1_555
C38_2 C39_2 1_555 1_555
C40_2 C41_2 1_555 1_555
Ag5 N5_2 1_555 1_555
N5_2 C46_2 1_555 1_555
C46_2 H49_2 1_555 1_555
C47_2 C46_2 1_555 1_555
H50_2 C47_2 1_555 1_555
C48_2 C47_2 1_555 1_555
C49_2 C48_2 1_555 1_555
H51_2 C49_2 1_555 1_555
C50_2 N5_2 1_555 1_555
H52_2 C50_2 1_555 1_555
C51_2 C48_2 1_555 1_555
C52_2 C51_2 1_555 1_555
C53_2 C52_2 1_555 1_555
C59_2 C53_2 1_555 1_555
H59_2 C59_2 1_555 1_555
H60_2 C59_2 1_555 1_555
H61_2 C59_2 1_555 1_555
C60_2 C52_2 1_555 1_555
H62_2 C60_2 1_555 1_555
H63_2 C60_2 1_555 1_555
H64_2 C60_2 1_555 1_555
H72_2 C73_2 1_555 1_555
H73_2 C73_2 1_555 1_555
H74_2 C73_2 1_555 1_555
C49_2 C50_2 1_555 1_555
C61_2 H65_2 1_555 1_555
C16_2 H17_2 1_555 1_555
Ag2_2 N5_3 1_555 1_555
Ag6 N6_2 1_555 1_555
B2_3 C54_3 1_555 1_555
N5_3 C46_3 1_555 1_555
C46_3 H49_3 1_555 1_555
C47_3 C46_3 1_555 1_555
H50_3 C47_3 1_555 1_555
C48_3 C47_3 1_555 1_555
C49_3 C48_3 1_555 1_555
H51_3 C49_3 1_555 1_555
C50_3 N5_3 1_555 1_555
H52_3 C50_3 1_555 1_555
C51_3 C48_3 1_555 1_555
C52_3 C51_3 1_555 1_555
C53_3 C52_3 1_555 1_555
C54_3 C53_3 1_555 1_555
C55_3 C54_3 1_555 1_555
C56_3 C51_3 1_555 1_555
C57_3 C56_3 1_555 1_555
H53_3 C57_3 1_555 1_555
H54_3 C57_3 1_555 1_555
H55_3 C57_3 1_555 1_555
C58_3 C55_3 1_555 1_555
H56_3 C58_3 1_555 1_555
H57_3 C58_3 1_555 1_555
H58_3 C58_3 1_555 1_555
C59_3 C53_3 1_555 1_555
H59_3 C59_3 1_555 1_555
H60_3 C59_3 1_555 1_555
H61_3 C59_3 1_555 1_555
C60_3 C52_3 1_555 1_555
H62_3 C60_3 1_555 1_555
H63_3 C60_3 1_555 1_555
H64_3 C60_3 1_555 1_555
C61_3 H65_3 1_555 1_555
C62_3 C61_3 1_555 1_555
H66_3 C62_3 1_555 1_555
C63_3 C62_3 1_555 1_555
C64_3 C63_3 1_555 1_555
H67_3 C64_3 1_555 1_555
C65_3 C64_3 1_555 1_555
H68_3 C65_3 1_555 1_555
N6_2 C61_3 1_555 1_555
N8_2 Ag2_2 1_555 1_555
C66_3 C63_3 1_555 1_555
C67_3 C66_3 1_555 1_555
C68_3 C67_3 1_555 1_555
C69_3 B2_3 1_555 1_555
C70_3 C69_3 1_555 1_555
C71_3 C66_3 1_555 1_555
C72_3 C71_3 1_555 1_555
H69_3 C72_3 1_555 1_555
H70_3 C72_3 1_555 1_555
H71_3 C72_3 1_555 1_555
C73_3 C70_3 1_555 1_555
H72_3 C73_3 1_555 1_555
H73_3 C73_3 1_555 1_555
H74_3 C73_3 1_555 1_555
C74_3 C68_3 1_555 1_555
H75_3 C74_3 1_555 1_555
H76_3 C74_3 1_555 1_555
H77_3 C74_3 1_555 1_555
C75_3 C67_3 1_555 1_555
H78_3 C75_3 1_555 1_555
H79_3 C75_3 1_555 1_555
H80_3 C75_3 1_555 1_555
N10_2 Ag2_2 1_555 1_555
C82_3 C81_3 1_555 1_555
C83_3 C82_3 1_555 1_555
C84_3 B2_3 1_555 1_555
C85_3 C84_3 1_555 1_555
C86_3 C81_3 1_555 1_555
C87_3 C86_3 1_555 1_555
H86_3 C87_3 1_555 1_555
H87_3 C87_3 1_555 1_555
C88_3 C85_3 1_555 1_555
H88_3 C88_3 1_555 1_555
H89_3 C88_3 1_555 1_555
H90_3 C88_3 1_555 1_555
C89_3 C83_3 1_555 1_555
H91_3 C89_3 1_555 1_555
H92_3 C89_3 1_555 1_555
H93_3 C89_3 1_555 1_555
C90_3 C82_3 1_555 1_555
H95_3 C90_3 1_555 1_555
H96_3 C90_3 1_555 1_555
O4_2 Ag2_2 1_555 1_555
O5_2 Ag2_2 1_555 1_555
C49_3 C50_3 1_555 1_555
C55_3 C56_3 1_555 1_555
C65_3 N6_2 1_555 1_555
C68_3 C69_3 1_555 1_555
C70_3 C71_3 1_555 1_555
C83_3 C84_3 1_555 1_555
C85_3 C86_3 1_555 1_555
Ag1_2 N1_3 1_555 1_555
B1_3 C9_3 1_555 1_555
N1_3 C1_3 1_555 1_555
C1_3 H1_3 1_555 1_555
C2_3 C1_3 1_555 1_555
H2_3 C2_3 1_555 1_555
C3_3 C2_3 1_555 1_555
C4_3 C3_3 1_555 1_555
H3_3 C4_3 1_555 1_555
C5_3 N1_3 1_555 1_555
H4_3 C5_3 1_555 1_555
C6_3 C3_3 1_555 1_555
C7_3 C6_3 1_555 1_555
C8_3 C7_3 1_555 1_555
C9_3 C8_3 1_555 1_555
C10_3 C9_3 1_555 1_555
C11_3 C6_3 1_555 1_555
C12_3 C11_3 1_555 1_555
H5_3 C12_3 1_555 1_555
H6_3 C12_3 1_555 1_555
H7_3 C12_3 1_555 1_555
C13_3 C10_3 1_555 1_555
H8_3 C13_3 1_555 1_555
H9_3 C13_3 1_555 1_555
H10_3 C13_3 1_555 1_555
C14_3 C8_3 1_555 1_555
H11_3 C14_3 1_555 1_555
H12_3 C14_3 1_555 1_555
H13_3 C14_3 1_555 1_555
C15_3 C7_3 1_555 1_555
H14_3 C15_3 1_555 1_555
H15_3 C15_3 1_555 1_555
H16_3 C15_3 1_555 1_555
C16_3 H17_3 1_555 1_555
C17_3 C16_3 1_555 1_555
H18_3 C17_3 1_555 1_555
C18_3 C17_3 1_555 1_555
C19_3 C18_3 1_555 1_555
H19_3 C19_3 1_555 1_555
C20_3 C19_3 1_555 1_555
H20_3 C20_3 1_555 1_555
N2_2 C16_3 1_555 1_555
C21_3 C18_3 1_555 1_555
C22_3 C21_3 1_555 1_555
C23_3 C22_3 1_555 1_555
C24_3 B1_3 1_555 1_555
C25_3 C24_3 1_555 1_555
C26_3 C21_3 1_555 1_555
C27_3 C26_3 1_555 1_555
H21_3 C27_3 1_555 1_555
H22_3 C27_3 1_555 1_555
H23_3 C27_3 1_555 1_555
C28_3 C25_3 1_555 1_555
H24_3 C28_3 1_555 1_555
H25_3 C28_3 1_555 1_555
H26_3 C28_3 1_555 1_555
C29_3 C23_3 1_555 1_555
H27_3 C29_3 1_555 1_555
H28_3 C29_3 1_555 1_555
H29_3 C29_3 1_555 1_555
C30_3 C22_3 1_555 1_555
H30_3 C30_3 1_555 1_555
H31_3 C30_3 1_555 1_555
H32_3 C30_3 1_555 1_555
C37_3 C36_3 1_555 1_555
C38_3 C37_3 1_555 1_555
C39_3 B1_3 1_555 1_555
C40_3 C39_3 1_555 1_555
C41_3 C36_3 1_555 1_555
C42_3 C41_3 1_555 1_555
H38_3 C42_3 1_555 1_555
H39_3 C42_3 1_555 1_555
C43_3 C40_3 1_555 1_555
H40_3 C43_3 1_555 1_555
H41_3 C43_3 1_555 1_555
H42_3 C43_3 1_555 1_555
C44_3 C38_3 1_555 1_555
H43_3 C44_3 1_555 1_555
H44_3 C44_3 1_555 1_555
H45_3 C44_3 1_555 1_555
C45_3 C37_3 1_555 1_555
H47_3 C45_3 1_555 1_555
H48_3 C45_3 1_555 1_555
N4_4 O1_3 1_555 1_555
O1_3 Ag1_2 1_555 1_555
O2_3 Ag1_2 1_555 1_555
Ag3_2 N2_2 1_555 1_555
Ag6 O2_3 1_555 1_555
N7_2 Ag1_2 1_555 1_555
C76_3 H81_3 1_555 1_555
C77_3 C76_3 1_555 1_555
H82_3 C77_3 1_555 1_555
C78_3 C77_3 1_555 1_555
C79_3 C78_3 1_555 1_555
H83_3 C79_3 1_555 1_555
C80_3 C79_3 1_555 1_555
H84_3 C80_3 1_555 1_555
N9_3 Ag1_2 1_555 1_555
O3_2 N4_4 1_555 1_555
C4_3 C5_3 1_555 1_555
C10_3 C11_3 1_555 1_555
C20_3 N2_2 1_555 1_555
C23_3 C24_3 1_555 1_555
C25_3 C26_3 1_555 1_555
C38_3 C39_3 1_555 1_555
C40_3 C41_3 1_555 1_555
N4_4 O2_3 1_555 1_555
Ag6 O3_2 1_555 1_555
C76_3 N9_3 1_555 1_555
C80_3 N9_3 1_555 1_555
C31_3 H33_3 1_555 1_555
C32_3 C31_3 1_555 1_555
H34_3 C32_3 1_555 1_555
C33_3 C32_3 1_555 1_555
C34_3 C33_3 1_555 1_555
H35_3 C34_3 1_555 1_555
C35_3 C34_3 1_555 1_555
H36_3 C35_3 1_555 1_555
N10_2 C31_3 1_555 1_555
C35_3 N10_2 1_555 1_555
C31_4 H33_4 1_555 1_555
C32_4 C31_4 1_555 1_555
H34_4 C32_4 1_555 1_555
C33_4 C32_4 1_555 1_555
C34_4 C33_4 1_555 1_555
H35_4 C34_4 1_555 1_555
C35_4 C34_4 1_555 1_555
H36_4 C35_4 1_555 1_555
N3_2 C31_4 1_555 1_555
Ag6 N3_2 1_555 1_555
C35_4 N3_2 1_555 1_555
B1_4 C9_4 1_555 1_555
C7_4 C6_4 1_555 1_555
C8_4 C7_4 1_555 1_555
C9_4 C8_4 1_555 1_555
C10_4 C9_4 1_555 1_555
C11_4 C6_4 1_555 1_555
C13_4 C10_4 1_555 1_555
H8_4 C13_4 1_555 1_555
H9_4 C13_4 1_555 1_555
H10_4 C13_4 1_555 1_555
C14_4 C8_4 1_555 1_555
H11_4 C14_4 1_555 1_555
H12_4 C14_4 1_555 1_555
H13_4 C14_4 1_555 1_555
C15_4 C7_4 1_555 1_555
H14_4 C15_4 1_555 1_555
H15_4 C15_4 1_555 1_555
H16_4 C15_4 1_555 1_555
C16_4 H17_4 1_555 1_555
C17_4 C16_4 1_555 1_555
H18_4 C17_4 1_555 1_555
C18_4 C17_4 1_555 1_555
C19_4 C18_4 1_555 1_555
H19_4 C19_4 1_555 1_555
C20_4 C19_4 1_555 1_555
H20_4 C20_4 1_555 1_555
N7_2 C16_4 1_555 1_555
C21_4 C18_4 1_555 1_555
C22_4 C21_4 1_555 1_555
C23_4 C22_4 1_555 1_555
C24_4 B1_4 1_555 1_555
C25_4 C24_4 1_555 1_555
C26_4 C21_4 1_555 1_555
C27_4 C26_4 1_555 1_555
H21_4 C27_4 1_555 1_555
H22_4 C27_4 1_555 1_555
H23_4 C27_4 1_555 1_555
C28_4 C25_4 1_555 1_555
H24_4 C28_4 1_555 1_555
H25_4 C28_4 1_555 1_555
H26_4 C28_4 1_555 1_555
C29_4 C23_4 1_555 1_555
H27_4 C29_4 1_555 1_555
H28_4 C29_4 1_555 1_555
H29_4 C29_4 1_555 1_555
C30_4 C22_4 1_555 1_555
H30_4 C30_4 1_555 1_555
H31_4 C30_4 1_555 1_555
H32_4 C30_4 1_555 1_555
C37_4 C36_4 1_555 1_555
C38_4 C37_4 1_555 1_555
C39_4 B1_4 1_555 1_555
C40_4 C39_4 1_555 1_555
C41_4 C36_4 1_555 1_555
C42_4 C41_4 1_555 1_555
H38_4 C42_4 1_555 1_555
H39_4 C42_4 1_555 1_555
C43_4 C40_4 1_555 1_555
H40_4 C43_4 1_555 1_555
H41_4 C43_4 1_555 1_555
H42_4 C43_4 1_555 1_555
C44_4 C38_4 1_555 1_555
H43_4 C44_4 1_555 1_555
H44_4 C44_4 1_555 1_555
H45_4 C44_4 1_555 1_555
C45_4 C37_4 1_555 1_555
H47_4 C45_4 1_555 1_555
H48_4 C45_4 1_555 1_555
C10_4 C11_4 1_555 1_555
C20_4 N7_2 1_555 1_555
C23_4 C24_4 1_555 1_555
C25_4 C26_4 1_555 1_555
C38_4 C39_4 1_555 1_555
C40_4 C41_4 1_555 1_555
Ag3_2 N1_4 1_555 1_555
N1_4 C1_4 1_555 1_555
C1_4 H1_4 1_555 1_555
C2_4 C1_4 1_555 1_555
H2_4 C2_4 1_555 1_555
C3_4 C2_4 1_555 1_555
C4_4 C3_4 1_555 1_555
C5_4 N1_4 1_555 1_555
H4_4 C5_4 1_555 1_555
H5_4 C12_4 1_555 1_555
H6_4 C12_4 1_555 1_555
H7_4 C12_4 1_555 1_555
N4_5 O1_4 1_555 1_555
O1_4 Ag3_2 1_555 1_555
O5_2 Ag3_2 1_555 1_555
C76_4 H81_4 1_555 1_555
C77_4 C76_4 1_555 1_555
H82_4 C77_4 1_555 1_555
C78_4 C77_4 1_555 1_555
C79_4 C78_4 1_555 1_555
H83_4 C79_4 1_555 1_555
C80_4 C79_4 1_555 1_555
H84_4 C80_4 1_555 1_555
N9_4 Ag3_2 1_555 1_555
O4_2 N4_5 1_555 1_555
C4_4 C5_4 1_555 1_555
N4_5 O5_2 1_555 1_555
C76_4 N9_4 1_555 1_555
C80_4 N9_4 1_555 1_555
Ag6 N5_4 1_555 1_555
N5_4 C46_4 1_555 1_555
C46_4 H49_4 1_555 1_555
C47_4 C46_4 1_555 1_555
H50_4 C47_4 1_555 1_555
C48_4 C47_4 1_555 1_555
C49_4 C48_4 1_555 1_555
C50_4 N5_4 1_555 1_555
H52_4 C50_4 1_555 1_555
H53_4 C57_4 1_555 1_555
H54_4 C57_4 1_555 1_555
H55_4 C57_4 1_555 1_555
C49_4 C50_4 1_555 1_555
B2_4 C54_4 1_555 1_555
C52_4 C51_4 1_555 1_555
C53_4 C52_4 1_555 1_555
C54_4 C53_4 1_555 1_555
C55_4 C54_4 1_555 1_555
C56_4 C51_4 1_555 1_555
C58_4 C55_4 1_555 1_555
H56_4 C58_4 1_555 1_555
H57_4 C58_4 1_555 1_555
H58_4 C58_4 1_555 1_555
C59_4 C53_4 1_555 1_555
H59_4 C59_4 1_555 1_555
H60_4 C59_4 1_555 1_555
H61_4 C59_4 1_555 1_555
C60_4 C52_4 1_555 1_555
H62_4 C60_4 1_555 1_555
H63_4 C60_4 1_555 1_555
H64_4 C60_4 1_555 1_555
C61_4 H65_4 1_555 1_555
C62_4 C61_4 1_555 1_555
H66_4 C62_4 1_555 1_555
C63_4 C62_4 1_555 1_555
C64_4 C63_4 1_555 1_555
H67_4 C64_4 1_555 1_555
C65_4 C64_4 1_555 1_555
H68_4 C65_4 1_555 1_555
N8_2 C61_4 1_555 1_555
C66_4 C63_4 1_555 1_555
C67_4 C66_4 1_555 1_555
C68_4 C67_4 1_555 1_555
C69_4 B2_4 1_555 1_555
C70_4 C69_4 1_555 1_555
C71_4 C66_4 1_555 1_555
C72_4 C71_4 1_555 1_555
H69_4 C72_4 1_555 1_555
H70_4 C72_4 1_555 1_555
H71_4 C72_4 1_555 1_555
C73_4 C70_4 1_555 1_555
H72_4 C73_4 1_555 1_555
H73_4 C73_4 1_555 1_555
H74_4 C73_4 1_555 1_555
C74_4 C68_4 1_555 1_555
H75_4 C74_4 1_555 1_555
H76_4 C74_4 1_555 1_555
H77_4 C74_4 1_555 1_555
C75_4 C67_4 1_555 1_555
H78_4 C75_4 1_555 1_555
H79_4 C75_4 1_555 1_555
H80_4 C75_4 1_555 1_555
C82_4 C81_4 1_555 1_555
C83_4 C82_4 1_555 1_555
C84_4 B2_4 1_555 1_555
C85_4 C84_4 1_555 1_555
C86_4 C81_4 1_555 1_555
C87_4 C86_4 1_555 1_555
H86_4 C87_4 1_555 1_555
H87_4 C87_4 1_555 1_555
C88_4 C85_4 1_555 1_555
H88_4 C88_4 1_555 1_555
H89_4 C88_4 1_555 1_555
H90_4 C88_4 1_555 1_555
C89_4 C83_4 1_555 1_555
H91_4 C89_4 1_555 1_555
H92_4 C89_4 1_555 1_555
H93_4 C89_4 1_555 1_555
C90_4 C82_4 1_555 1_555
H95_4 C90_4 1_555 1_555
H96_4 C90_4 1_555 1_555
C55_4 C56_4 1_555 1_555
C65_4 N8_2 1_555 1_555
C68_4 C69_4 1_555 1_555
C70_4 C71_4 1_555 1_555
C83_4 C84_4 1_555 1_555
C85_4 C86_4 1_555 1_555
O8 N11 1_555 1_555
O8_2 N11_2 1_555 1_555
N11_3 O6_3 1_555 1_555
O7_3 N11_3 1_555 1_555
O8_3 N11_3 1_555 1_555
N11_4 O6_4 1_555 1_555
O7_4 N11_4 1_555 1_555
O8_4 N11_4 1_555 1_555
N11_5 O6_5 1_555 1_555
O7_5 N11_5 1_555 1_555
O8_5 N11_5 1_555 1_555
N11_6 O6_6 1_555 1_555
O7_6 N11_6 1_555 1_555
O8_6 N11_6 1_555 1_555
O8_7 N11_7 1_555 1_555
O8_8 N11_8 1_555 1_555

#END
