
###############################################################################
#
# This file contains modified crystal structure data generated from the
# MOF subset of the Cambridge Structural Database (CSD) v543 
# hosted by the Cambridge Crystallographic Data Centre (CCDC).
#
# This work is licensed under the Creative Commons
# Attribution-NonCommercial-ShareAlike 4.0 International License.
# To view a copy of this license, visit
# http://creativecommons.org/licenses/by-nc-sa/4.0/
# or send a letter to
# Creative Commons, PO Box 1866, Mountain View, CA 94042, USA.
#
# CIF created using the CSD Python API on 29 September 2022
# The structure has been converted into the P1 space group
# The structure has a 3D framework
# The original CSD entry CUTFUT is in the orthorhombic crystal system
# The original CSD entry CUTFUT is in a Sohncke space group
# The framework has been calculated to contain at least 10.0% void space
# The void calculation uses a probe of radius 1.32A, grid spacing 0.4
# The framework is charged, counterions have been retained in the structure
#
###############################################################################

data_CUTFUT
_chemical_formula_moiety         '(C552 H576 Ag12 B12 F36 N36 O36 S12)n'
_symmetry_cell_setting           triclinic
_symmetry_space_group_name_H-M   'P 1'
_symmetry_Int_Tables_number      1
_space_group_name_Hall           'P 1'
loop_
_symmetry_equiv_pos_site_id
_symmetry_equiv_pos_as_xyz
1 x,y,z
_cell_length_a                   13.6581(2)
_cell_length_b                   32.4156(5)
_cell_length_c                   40.5791(6)
_cell_angle_alpha                90
_cell_angle_beta                 90
_cell_angle_gamma                90
_cell_volume                     17965.8
loop_
_atom_site_label
_atom_site_type_symbol
_atom_site_fract_x
_atom_site_fract_y
_atom_site_fract_z
S1 S 0.0714(4) 0.23331(17) 0.06626(12)
O1 O 0.1406(10) 0.2581(4) 0.0853(3)
O2 O 0.1106(10) 0.1919(3) 0.0560(4)
C136 C 0.065(2) 0.2593(7) 0.0280(4)
F1 F 0.0366(11) 0.2988(4) 0.0334(4)
F2 F 0.1569(13) 0.2606(4) 0.0144(3)
F3 F 0.0079(15) 0.2426(5) 0.0069(3)
N12 N 0.0299(6) 0.3470(2) 0.1326(2)
C110 C 0.0076(6) 0.8726(3) 0.3430(2)
H116 H 0.0619 0.8643 0.3309
Ag6 Ag 0.05127(8) 0.78693(4) 0.37639(3)
H68 H 0.9737 0.6950 0.0039
Ag5 Ag 0.76426(12) 0.74452(4) 0.00066(4)
B1 B 0.6866(12) 0.9195(5) 0.4978(4)
H3 H 0.9939 0.8796 0.6010
C6 C 0.9348(13) 0.8544(5) 0.5422(4)
C7 C 0.9540(11) 0.8816(5) 0.5161(4)
C8 C 0.8754(11) 0.9015(4) 0.5012(3)
C9 C 0.7755(10) 0.8924(4) 0.5118(3)
C10 C 0.7604(10) 0.8640(4) 0.5361(3)
C11 C 0.8379(11) 0.8446(5) 0.5514(4)
C12 C 0.8241(11) 0.8097(6) 0.5778(5)
H5 H 0.7555 0.8057 0.5819
H6 H 0.8560 0.8177 0.5979
H7 H 0.8523 0.7846 0.5698
C13 C 0.6553(10) 0.8552(5) 0.5481(4)
H8 H 0.6569 0.8350 0.5653
H9 H 0.6169 0.8449 0.5300
H10 H 0.6266 0.8802 0.5562
C14 C 0.8930(9) 0.9319(5) 0.4719(3)
H11 H 0.9620 0.9341 0.4677
H12 H 0.8672 0.9586 0.4774
H13 H 0.8607 0.9217 0.4526
N2 N 0.1811(8) 0.8087(4) 0.4082(3)
C16 C 0.2440(10) 0.8362(4) 0.3926(2)
H17 H 0.2327 0.8439 0.3709
C17 C 0.3239(9) 0.8522(4) 0.4096(3)
H18 H 0.3661 0.8706 0.3992
C18 C 0.3409(9) 0.8407(4) 0.4421(3)
C19 C 0.2779(10) 0.8132(5) 0.4576(2)
H19 H 0.2892 0.8055 0.4794
C20 C 0.1980(9) 0.7972(4) 0.4407(3)
H20 H 0.1559 0.7788 0.4511
C21 C 0.4289(11) 0.8590(5) 0.4580(4)
C22 C 0.5183(11) 0.8450(4) 0.4496(3)
C23 C 0.6030(10) 0.8640(4) 0.4609(3)
C24 C 0.5972(11) 0.8963(4) 0.4845(3)
C25 C 0.5033(9) 0.9088(4) 0.4953(3)
C26 C 0.4173(11) 0.8898(6) 0.4812(4)
C27 C 0.3112(12) 0.9022(6) 0.4907(5)
H21 H 0.3130 0.9233 0.5073
H22 H 0.2771 0.8785 0.4991
H23 H 0.2778 0.9125 0.4716
C28 C 0.4945(11) 0.9406(5) 0.5213(4)
H24 H 0.4265 0.9459 0.5256
H25 H 0.5255 0.9656 0.5140
H26 H 0.5257 0.9310 0.5410
C29 C 0.7064(10) 0.8498(5) 0.4504(4)
H27 H 0.7010 0.8281 0.4344
H28 H 0.7411 0.8397 0.4694
H29 H 0.7414 0.8726 0.4411
C30 C 0.5215(12) 0.8066(5) 0.4252(4)
H30 H 0.5884 0.7992 0.4209
H31 H 0.4900 0.8138 0.4048
H32 H 0.4881 0.7837 0.4350
C38 C 0.6683(9) 0.9909(5) 0.4688(3)
C39 C 0.6985(9) 0.9678(4) 0.4957(3)
C40 C 0.7311(9) 0.9903(4) 0.5246(3)
C43 C 0.7587(11) 0.9684(5) 0.5565(3)
H40 H 0.7785 0.9884 0.5726
H41 H 0.8118 0.9497 0.5524
H42 H 0.7033 0.9533 0.5647
C44 C 0.6357(11) 0.9661(4) 0.4371(3)
H43 H 0.6179 0.9851 0.4200
H44 H 0.5804 0.9490 0.4423
H45 H 0.6889 0.9491 0.4297
N5 N 0.8664(9) 0.7043(3) 0.9704(3)
C61 C 0.8402(7) 0.6974(3) 0.9377(3)
H65 H 0.7802 0.7068 0.9299
C62 C 0.9038(8) 0.6767(3) 0.9168(2)
H66 H 0.8863 0.6721 0.8949
C63 C 0.9936(7) 0.6627(3) 0.9284(2)
C65 C 0.9562(11) 0.6904(4) 0.9821(2)
C75 C 0.9712(11) 0.5784(5) 0.9073(4)
H78 H 0.9721 0.5510 0.8982
H79 H 0.9113 0.5919 0.9013
H80 H 0.9758 0.5768 0.9309
O3 O 0.0269(9) 0.7316(5) 0.4220(3)
N13 N 0.0983(7) 0.7417(3) 0.3376(2)
B3 B 0.2801(11) 0.5861(5) 0.1751(3)
C34 C 0.8459(7) 0.8774(3) 0.0182(2)
H35 H 0.8872 0.8915 0.0325
C35 C 0.8403(7) 0.8346(3) 0.0196(2)
H36 H 0.8779 0.8201 0.0348
C41 C 0.7608(9) 0.9674(5) 0.0237(3)
C42 C 0.7077(13) 0.9440(5) 0.0516(3)
H37 H 0.7072 0.9150 0.0467
H38 H 0.6417 0.9538 0.0534
H39 H 0.7414 0.9485 0.0721
N7 N 0.6671(8) 0.7082(3) 0.0360(3)
C91 C 0.7042(6) 0.6975(3) 0.0667(3)
H97 H 0.7693 0.7029 0.0718
C92 C 0.6438(8) 0.6788(3) 0.0899(2)
H98 H 0.6686 0.6716 0.1104
C93 C 0.5464(7) 0.6707(3) 0.0823(2)
C94 C 0.5094(6) 0.6814(3) 0.0515(3)
H99 H 0.4442 0.6760 0.0465
C95 C 0.5698(9) 0.7001(3) 0.0284(2)
H100 H 0.5450 0.7073 0.0078
C96 C 0.4826(10) 0.6493(4) 0.1055(3)
C97 C 0.4004(13) 0.6692(4) 0.1183(4)
C98 C 0.3348(10) 0.6490(5) 0.1396(4)
C99 C 0.3564(11) 0.6092(4) 0.1507(3)
C100 C 0.4458(10) 0.5900(4) 0.1393(3)
C101 C 0.5080(9) 0.6095(4) 0.1174(3)
C102 C 0.5951(11) 0.5881(5) 0.1039(4)
H101 H 0.6018 0.5617 0.1143
H102 H 0.6525 0.6044 0.1081
H103 H 0.5874 0.5845 0.0806
C103 C 0.4679(10) 0.5483(5) 0.1508(3)
H104 H 0.4173 0.5393 0.1656
H105 H 0.5296 0.5484 0.1622
H106 H 0.4715 0.5299 0.1323
C104 C 0.2387(11) 0.6698(4) 0.1509(4)
H107 H 0.2357 0.6973 0.1423
H108 H 0.2369 0.6708 0.1745
H109 H 0.1839 0.6542 0.1429
C105 C 0.3824(12) 0.7141(4) 0.1061(4)
H110 H 0.3246 0.7249 0.1164
H111 H 0.3740 0.7141 0.0826
H112 H 0.4377 0.7310 0.1118
C106 C 0.1110(6) 0.3593(3) 0.1144(2)
H113 H 0.1361 0.3422 0.0980
C107 C 0.1547(6) 0.3972(3) 0.1206(2)
H114 H 0.2090 0.4055 0.1085
C108 C 0.1173(7) 0.4228(2) 0.1451(2)
C109 C 0.0361(8) 0.4105(3) 0.1632(2)
H115 H 0.0110 0.4276 0.1796
C111 C 0.1653(14) 0.4643(6) 0.1533(4)
C112 C 0.1468(10) 0.4971(5) 0.1306(3)
C113 C 0.1883(10) 0.5363(4) 0.1375(3)
C114 C 0.2425(11) 0.5417(5) 0.1658(3)
C115 C 0.2596(12) 0.5076(5) 0.1866(3)
C116 C 0.2229(11) 0.4700(5) 0.1802(3)
C117 C 0.3244(12) 0.5152(4) 0.2173(3)
H117 H 0.3330 0.4898 0.2291
H118 H 0.2932 0.5351 0.2314
H119 H 0.3871 0.5255 0.2105
C118 C 0.2472(14) 0.4325(4) 0.2024(4)
H120 H 0.2882 0.4412 0.2203
H121 H 0.2808 0.4120 0.1896
H122 H 0.1876 0.4210 0.2110
C119 C 0.0795(11) 0.4890(4) 0.1007(3)
H123 H 0.0736 0.5137 0.0879
H124 H 0.0160 0.4806 0.1083
H125 H 0.1073 0.4675 0.0873
C120 C 0.1663(12) 0.5740(4) 0.1156(4)
H126 H 0.1290 0.5655 0.0967
H127 H 0.2267 0.5862 0.1084
H128 H 0.1294 0.5939 0.1280
C121 C 0.1171(10) 0.7551(3) 0.3056(3)
H129 H 0.1091 0.7827 0.3002
C122 C 0.1479(10) 0.7271(4) 0.28184(19)
H130 H 0.1605 0.7360 0.2605
C123 C 0.1598(9) 0.6857(3) 0.2900(2)
C124 C 0.1410(10) 0.6723(2) 0.3219(3)
H131 H 0.1490 0.6447 0.3273
C125 C 0.1102(9) 0.7003(3) 0.3457(2)
H132 H 0.0977 0.6914 0.3671
C126 C 0.1893(11) 0.6571(4) 0.2628(3)
C127 C 0.2908(11) 0.6517(5) 0.2558(4)
C128 C 0.3195(12) 0.6277(5) 0.2289(3)
C129 C 0.2473(12) 0.6077(4) 0.2086(3)
C130 C 0.1529(10) 0.6121(5) 0.2167(3)
C131 C 0.1209(9) 0.6355(5) 0.2435(4)
C132 C 0.0132(9) 0.6407(5) 0.2543(3)
H135 H 0.0055 0.6306 0.2764
C133 C 0.0738(9) 0.5897(5) 0.1955(4)
H136 H 0.0099 0.5961 0.2040
H137 H 0.0843 0.5605 0.1965
H138 H 0.0786 0.5988 0.1731
C134 C 0.4317(12) 0.6234(7) 0.2219(5)
H139 H 0.4416 0.6046 0.2038
H140 H 0.4639 0.6129 0.2412
H141 H 0.4584 0.6499 0.2163
C135 C 0.3675(13) 0.6722(7) 0.2764(5)
H142 H 0.4312 0.6657 0.2679
H143 H 0.3626 0.6626 0.2987
H144 H 0.3580 0.7016 0.2759
N3 N 0.7785(8) 0.8135(2) 0.9982(3)
C31 C 0.7223(7) 0.8351(3) 0.9755(2)
H33 H 0.6810 0.8210 0.9612
C32 C 0.7279(7) 0.8779(3) 0.9741(2)
H34 H 0.6902 0.8924 0.9589
C33 C 0.7896(8) 0.8990(2) 0.9955(3)
C36 C 0.7961(9) 0.9453(4) 0.9958(3)
C37 C 0.8316(9) 0.9669(5) 0.9686(3)
C45 C 0.8804(12) 0.9405(4) 0.9407(3)
H46 H 0.9040 0.9585 0.9236
H47 H 0.8330 0.9218 0.9316
H48 H 0.9341 0.9251 0.9497
Ag3 Ag 0.94873(8) 0.28693(4) 0.12361(3)
B1_2 B 0.3134(12) 0.4195(5) 0.0022(4)
C14_2 C 0.1070(9) 0.4319(5) 0.0281(3)
H11_2 H 0.0380 0.4341 0.0323
H12_2 H 0.1328 0.4586 0.0226
H13_2 H 0.1393 0.4217 0.0474
N2_2 N 0.8189(8) 0.3087(4) 0.0918(3)
C16_2 C 0.7560(10) 0.3362(4) 0.1074(2)
H17_2 H 0.7673 0.3439 0.1291
C17_2 C 0.6761(9) 0.3522(4) 0.0904(3)
H18_2 H 0.6339 0.3706 0.1008
C18_2 C 0.6591(9) 0.3407(4) 0.0579(3)
C19_2 C 0.7221(10) 0.3132(5) 0.0424(2)
H19_2 H 0.7108 0.3055 0.0206
C20_2 C 0.8020(9) 0.2972(4) 0.0593(3)
H20_2 H 0.8441 0.2788 0.0489
C21_2 C 0.5711(11) 0.3590(5) 0.0420(4)
C22_2 C 0.4817(11) 0.3450(4) 0.0504(3)
C23_2 C 0.3970(10) 0.3640(4) 0.0391(3)
C24_2 C 0.4028(11) 0.3963(4) 0.0155(3)
C25_2 C 0.4967(9) 0.4088(4) 0.0047(3)
C26_2 C 0.5827(11) 0.3898(6) 0.0188(4)
C27_2 C 0.6888(12) 0.4022(6) 0.0093(5)
H22_2 H 0.7229 0.3785 0.0009
H23_2 H 0.7222 0.4125 0.0284
C29_2 C 0.2936(10) 0.3498(5) 0.0496(4)
H27_2 H 0.2990 0.3281 0.0656
H28_2 H 0.2589 0.3397 0.0306
H29_2 H 0.2586 0.3726 0.0589
C30_2 C 0.4785(12) 0.3066(5) 0.0748(4)
H30_2 H 0.4116 0.2992 0.0791
H31_2 H 0.5100 0.3138 0.0952
H32_2 H 0.5119 0.2837 0.0650
N3_2 N 0.2785(8) 0.6865(2) 0.0018(3)
C31_2 C 0.2223(7) 0.6649(3) 0.0245(2)
H33_2 H 0.1810 0.6790 0.0388
C32_2 C 0.2279(7) 0.6221(3) 0.0259(2)
H34_2 H 0.1902 0.6076 0.0411
C33_2 C 0.2896(8) 0.6010(2) 0.0045(3)
C36_2 C 0.2961(9) 0.5547(4) 0.0042(3)
C37_2 C 0.3316(9) 0.5331(5) 0.0314(3)
C38_2 C 0.3317(9) 0.4909(5) 0.0312(3)
C39_2 C 0.3015(9) 0.4678(4) 0.0043(3)
C44_2 C 0.3643(11) 0.4661(4) 0.0629(3)
H43_2 H 0.3821 0.4851 0.0800
H44_2 H 0.4196 0.4490 0.0577
H45_2 H 0.3111 0.4491 0.0703
C45_2 C 0.3804(12) 0.5595(4) 0.0593(3)
H46_2 H 0.4040 0.5415 0.0764
H47_2 H 0.3330 0.5782 0.0684
H48_2 H 0.4341 0.5749 0.0503
O3_2 O 0.9731(9) 0.2316(5) 0.0780(3)
N10 N 0.3664(9) 0.7957(3) 0.0296(3)
N13_2 N 0.9017(7) 0.2417(3) 0.1624(2)
Ag2 Ag 0.26426(12) 0.75548(4) 0.99934(4)
H3_2 H 0.0061 0.3796 0.8990
C6_2 C 0.0652(13) 0.3544(5) 0.9578(4)
C7_2 C 0.0460(11) 0.3816(5) 0.9839(4)
C8_2 C 0.1246(11) 0.4015(4) 0.9988(3)
C9_2 C 0.2245(10) 0.3924(4) 0.9882(3)
C10_2 C 0.2396(10) 0.3640(4) 0.9639(3)
C11_2 C 0.1621(11) 0.3446(5) 0.9486(4)
C12_2 C 0.1759(11) 0.3097(6) 0.9222(5)
H5_2 H 0.2445 0.3057 0.9181
H6_2 H 0.1440 0.3177 0.9021
H7_2 H 0.1477 0.2846 0.9302
C13_2 C 0.3447(10) 0.3552(5) 0.9519(4)
H8_2 H 0.3431 0.3350 0.9347
H9_2 H 0.3831 0.3449 0.9700
H10_2 H 0.3734 0.3802 0.9438
H21_2 H 0.6870 0.4233 0.9927
C28_2 C 0.5055(11) 0.4406(5) 0.9787(4)
H24_2 H 0.5735 0.4459 0.9744
H25_2 H 0.4745 0.4656 0.9860
H26_2 H 0.4743 0.4310 0.9590
C34_2 C 0.3459(7) 0.6226(3) 0.9818(2)
H35_2 H 0.3872 0.6085 0.9675
C35_2 C 0.3403(7) 0.6654(3) 0.9804(2)
H36_2 H 0.3779 0.6799 0.9652
C40_2 C 0.2689(9) 0.4903(4) 0.9754(3)
C41_2 C 0.2608(9) 0.5326(5) 0.9763(3)
C42_2 C 0.2077(13) 0.5560(5) 0.9484(3)
H37_2 H 0.2072 0.5850 0.9533
H38_2 H 0.1417 0.5462 0.9466
H39_2 H 0.2414 0.5515 0.9279
C43_2 C 0.2413(11) 0.4684(5) 0.9435(3)
H40_2 H 0.2215 0.4884 0.9274
H41_2 H 0.1882 0.4497 0.9476
H42_2 H 0.2967 0.4533 0.9353
N5_2 N 0.1336(9) 0.2043(3) 0.5296(3)
C61_2 C 0.1598(7) 0.1974(3) 0.5623(3)
H65_2 H 0.2198 0.2068 0.5701
C62_2 C 0.0962(8) 0.1767(3) 0.5832(2)
H66_2 H 0.1137 0.1721 0.6051
C63_2 C 0.0064(7) 0.1627(3) 0.5716(2)
C65_2 C 0.0438(11) 0.1904(4) 0.5179(2)
H68_2 H 0.0263 0.1950 0.4961
C75_2 C 0.0288(11) 0.0784(5) 0.5927(4)
H78_2 H 0.0279 0.0510 0.6018
H79_2 H 0.0887 0.0919 0.5987
H80_2 H 0.0242 0.0768 0.5691
N7_2 N 0.1671(8) 0.7918(3) 0.9640(3)
C91_2 C 0.2042(6) 0.8025(3) 0.9333(3)
H97_2 H 0.2693 0.7971 0.9282
C92_2 C 0.1438(8) 0.8212(3) 0.9101(2)
H98_2 H 0.1686 0.8284 0.8896
C93_2 C 0.0464(7) 0.8293(3) 0.9177(2)
C94_2 C 0.0094(6) 0.8186(3) 0.9485(3)
C95_2 C 0.0698(9) 0.7999(3) 0.9716(2)
H100_2 H 0.0450 0.7927 0.9922
C101_2 C 0.0080(9) 0.8905(4) 0.8826(3)
C102_2 C 0.0951(11) 0.9119(5) 0.8961(4)
H101_2 H 0.1018 0.9383 0.8857
H102_2 H 0.1525 0.8956 0.8919
H103_2 H 0.0874 0.9155 0.9194
H105_2 H 0.0296 0.9516 0.8378
Ag5_2 Ag 0.23574(12) 0.24452(4) 0.49934(4)
Ag1 Ag 0.81588(8) 0.69569(4) 0.36983(3)
B1_3 B 0.1866(12) 0.5805(5) 0.5022(4)
B2 B 0.7823(14) 0.9086(5) 0.1627(4)
B3_2 B 0.7199(11) 0.0861(5) 0.3249(3)
N1 N 0.6738(8) 0.6858(4) 0.3979(3)
C1 C 0.6562(8) 0.7046(4) 0.4281(3)
H1 H 0.6969 0.7257 0.4354
C2 C 0.5778(9) 0.6919(4) 0.4474(3)
H2 H 0.5660 0.7044 0.4676
C3 C 0.5170(7) 0.6603(4) 0.4365(3)
C4 C 0.5346(10) 0.6415(4) 0.4063(3)
H3_3 H 0.4939 0.6204 0.3990
C5 C 0.6130(11) 0.6543(5) 0.3870(3)
H4 H 0.6248 0.6417 0.3668
C6_3 C 0.4348(13) 0.6456(5) 0.4578(4)
C7_3 C 0.4540(11) 0.6184(5) 0.4839(4)
C8_3 C 0.3754(11) 0.5985(4) 0.4988(3)
C9_3 C 0.2755(10) 0.6076(4) 0.4882(3)
C10_3 C 0.2604(10) 0.6360(4) 0.4639(3)
C11_3 C 0.3379(11) 0.6554(5) 0.4486(4)
C12_3 C 0.3241(11) 0.6903(6) 0.4222(5)
H5_3 H 0.2555 0.6943 0.4181
H6_3 H 0.3560 0.6823 0.4021
H7_3 H 0.3523 0.7154 0.4302
C13_3 C 0.1553(10) 0.6448(5) 0.4519(4)
H8_3 H 0.1569 0.6650 0.4347
H9_3 H 0.1169 0.6551 0.4700
H10_3 H 0.1266 0.6198 0.4438
C14_3 C 0.3930(9) 0.5681(5) 0.5281(3)
H11_3 H 0.4620 0.5659 0.5323
H12_3 H 0.3672 0.5414 0.5226
H13_3 H 0.3607 0.5783 0.5474
C15 C 0.5598(9) 0.6088(5) 0.4943(4)
H14 H 0.5593 0.5899 0.5125
H15 H 0.5918 0.6339 0.5008
H16 H 0.5944 0.5968 0.4761
C22_3 C 0.0183(11) 0.6550(4) 0.5504(3)
C23_3 C 0.1030(10) 0.6360(4) 0.5391(3)
C24_3 C 0.0972(11) 0.6037(4) 0.5155(3)
C25_3 C 0.0033(9) 0.5912(4) 0.5047(3)
H25_3 H 0.0255 0.5344 0.4860
H26_3 H 0.0257 0.5690 0.4590
C29_3 C 0.2064(10) 0.6502(5) 0.5496(4)
H27_3 H 0.2010 0.6719 0.5656
H28_3 H 0.2411 0.6603 0.5306
H29_3 H 0.2414 0.6274 0.5589
C30_3 C 0.0215(12) 0.6934(5) 0.5748(4)
H30_3 H 0.0884 0.7008 0.5791
N3_3 N 0.2215(8) 0.3135(2) 0.5018(3)
C31_3 C 0.2777(7) 0.3351(3) 0.5245(2)
H33_3 H 0.3190 0.3210 0.5388
C32_3 C 0.2721(7) 0.3779(3) 0.5259(2)
H34_3 H 0.3098 0.3924 0.5411
C33_3 C 0.2104(8) 0.3990(2) 0.5045(3)
C34_3 C 0.1541(7) 0.3774(3) 0.4818(2)
H35_3 H 0.1128 0.3915 0.4675
C35_3 C 0.1597(7) 0.3346(3) 0.4804(2)
H36_3 H 0.1221 0.3201 0.4652
C36_3 C 0.2039(9) 0.4453(4) 0.5042(3)
C37_3 C 0.1684(9) 0.4669(5) 0.5314(3)
C38_3 C 0.1683(9) 0.5091(5) 0.5312(3)
C39_3 C 0.1985(9) 0.5322(4) 0.5043(3)
C40_3 C 0.2311(9) 0.5097(4) 0.4754(3)
C41_3 C 0.2392(9) 0.4674(5) 0.4763(3)
C42_3 C 0.2923(13) 0.4440(5) 0.4484(3)
H37_3 H 0.2928 0.4150 0.4533
H38_3 H 0.3583 0.4538 0.4466
H39_3 H 0.2586 0.4485 0.4279
C43_3 C 0.2587(11) 0.5316(5) 0.4435(3)
H40_3 H 0.2785 0.5116 0.4274
H41_3 H 0.3118 0.5503 0.4476
H42_3 H 0.2033 0.5467 0.4353
C44_3 C 0.1357(11) 0.5339(4) 0.5629(3)
H43_3 H 0.1179 0.5149 0.5800
H44_3 H 0.0804 0.5510 0.5577
H45_3 H 0.1889 0.5509 0.5703
C45_3 C 0.1196(12) 0.4405(4) 0.5593(3)
H46_3 H 0.0960 0.4585 0.5764
H47_3 H 0.1670 0.4218 0.5684
H48_3 H 0.0659 0.4251 0.5503
N4 N 0.8298(6) 0.7409(3) 0.3297(2)
C46 C 0.8525(9) 0.7290(3) 0.2977(2)
H49 H 0.8708 0.7019 0.2933
C47 C 0.8479(10) 0.7576(4) 0.27215(17)
H50 H 0.8631 0.7496 0.2507
C48 C 0.8206(8) 0.7981(3) 0.2786(2)
C49 C 0.7979(8) 0.8100(2) 0.3106(2)
H51 H 0.7796 0.8371 0.3150
C50 C 0.8025(7) 0.7814(3) 0.33615(17)
H52 H 0.7873 0.7894 0.3576
C51 C 0.8125(12) 0.8297(5) 0.2500(4)
C52 C 0.8945(14) 0.8431(6) 0.2356(4)
C53 C 0.8873(11) 0.8699(5) 0.2073(4)
C54 C 0.7933(12) 0.8833(5) 0.1970(3)
C55 C 0.7108(13) 0.8700(5) 0.2135(3)
C56 C 0.7147(10) 0.8430(4) 0.2410(3)
C57 C 0.6287(11) 0.8274(5) 0.2587(3)
H53 H 0.6495 0.8094 0.2761
H54 H 0.5873 0.8126 0.2437
H55 H 0.5930 0.8502 0.2679
C58 C 0.6065(12) 0.8872(5) 0.2071(4)
H56 H 0.6081 0.9055 0.1884
H57 H 0.5846 0.9021 0.2262
H58 H 0.5625 0.8648 0.2027
C59 C 0.9819(11) 0.8823(6) 0.1905(5)
H59 H 0.9675 0.8999 0.1721
C60 C 0.9940(12) 0.8321(7) 0.2478(6)
H62 H 0.9883 0.8145 0.2667
C61_3 C 0.3402(7) 0.8026(3) 0.0623(3)
H65_3 H 0.2802 0.7932 0.0701
C62_3 C 0.4038(8) 0.8233(3) 0.0832(2)
H66_3 H 0.3863 0.8279 0.1051
C63_3 C 0.4936(7) 0.8373(3) 0.0716(2)
C64 C 0.5198(8) 0.8304(4) 0.0389(3)
H67 H 0.5799 0.8397 0.0311
C65_3 C 0.4562(11) 0.8096(4) 0.0179(2)
C66 C 0.5669(11) 0.8567(6) 0.0943(4)
C67 C 0.5572(14) 0.8974(5) 0.1060(4)
C68 C 0.6275(11) 0.9144(4) 0.1257(3)
C69 C 0.7069(11) 0.8901(5) 0.1372(3)
C70 C 0.7164(9) 0.8498(4) 0.1262(4)
C71 C 0.6477(14) 0.8328(5) 0.1051(4)
C72 C 0.6622(12) 0.7878(5) 0.0942(5)
H69 H 0.7213 0.7772 0.1038
H70 H 0.6667 0.7866 0.0707
H71 H 0.6075 0.7716 0.1015
C73 C 0.8071(13) 0.8232(5) 0.1349(5)
H72 H 0.8482 0.8380 0.1500
H73 H 0.8432 0.8173 0.1151
H74 H 0.7861 0.7978 0.1448
C74 C 0.6127(12) 0.9581(5) 0.1366(3)
H75 H 0.6665 0.9664 0.1503
H76 H 0.5528 0.9601 0.1488
H77 H 0.6094 0.9757 0.1176
C75_3 C 0.4712(11) 0.9216(5) 0.0927(4)
H78_3 H 0.4721 0.9490 0.1018
H79_3 H 0.4113 0.9081 0.0987
H80_3 H 0.4758 0.9232 0.0691
C83 C 0.8374(11) 0.9817(5) 0.1783(3)
C84 C 0.8453(11) 0.9483(5) 0.1569(3)
C85 C 0.9072(11) 0.9532(4) 0.1281(3)
C86 C 0.9612(11) 0.9882(5) 0.1233(3)
H87 H 0.9955 0.9985 0.0746
C88 C 0.9210(14) 0.9150(4) 0.1051(3)
H88 H 0.9624 0.9224 0.0869
H89 H 0.8584 0.9063 0.0969
H90 H 0.9507 0.8930 0.1173
C89 C 0.7685(12) 0.9789(5) 0.2088(3)
H92 H 0.7892 0.9566 0.2227
H93 H 0.7026 0.9741 0.2015
N7_3 N 0.3329(8) 0.2082(3) 0.4640(3)
C91_3 C 0.2958(6) 0.1975(3) 0.4333(3)
H97_3 H 0.2307 0.2029 0.4282
C92_3 C 0.3562(8) 0.1788(3) 0.4101(2)
H98_3 H 0.3314 0.1716 0.3896
C93_3 C 0.4536(7) 0.1707(3) 0.4177(2)
C94_3 C 0.4906(6) 0.1814(3) 0.4485(3)
H99_2 H 0.5558 0.1760 0.4535
C95_3 C 0.4302(9) 0.2001(3) 0.4716(2)
H100_3 H 0.4550 0.2073 0.4922
C96_2 C 0.5174(10) 0.1493(4) 0.3945(3)
C97_2 C 0.5996(13) 0.1692(4) 0.3817(4)
C98_2 C 0.6652(10) 0.1490(5) 0.3604(4)
C99_2 C 0.6436(11) 0.1092(4) 0.3493(3)
C100_2 C 0.5542(10) 0.0900(4) 0.3607(3)
C101_3 C 0.4920(9) 0.1095(4) 0.3826(3)
C102_3 C 0.4049(11) 0.0881(5) 0.3961(4)
H101_3 H 0.3982 0.0617 0.3857
H102_3 H 0.3475 0.1044 0.3919
H103_3 H 0.4126 0.0845 0.4194
C103_2 C 0.5321(10) 0.0483(5) 0.3492(3)
H104_2 H 0.5827 0.0393 0.3344
H105_3 H 0.4704 0.0484 0.3378
H106_2 H 0.5285 0.0299 0.3677
C104_2 C 0.7613(11) 0.1698(4) 0.3491(4)
H107_2 H 0.7643 0.1973 0.3577
H108_2 H 0.7631 0.1708 0.3255
H109_2 H 0.8161 0.1542 0.3571
C105_2 C 0.6176(12) 0.2141(4) 0.3939(4)
H110_2 H 0.6754 0.2249 0.3836
H111_2 H 0.6260 0.2141 0.4174
H112_2 H 0.5623 0.2310 0.3882
C113_2 C 0.8117(10) 0.0363(4) 0.3625(3)
C114_2 C 0.7575(11) 0.0417(5) 0.3342(3)
C115_2 C 0.7404(12) 0.0076(5) 0.3134(3)
C117_2 C 0.6756(12) 0.0152(4) 0.2827(3)
H118_2 H 0.7068 0.0351 0.2686
H119_2 H 0.6129 0.0255 0.2895
H123_2 H 0.9264 0.0137 0.4121
C120_2 C 0.8337(12) 0.0740(4) 0.3844(4)
H126_2 H 0.8710 0.0655 0.4033
H127_2 H 0.7733 0.0862 0.3916
H128_2 H 0.8706 0.0939 0.3720
C121_2 C 0.8829(10) 0.2551(3) 0.1944(3)
H129_2 H 0.8909 0.2827 0.1998
C122_2 C 0.8521(10) 0.2271(4) 0.21816(19)
H130_2 H 0.8395 0.2360 0.2395
C123_2 C 0.8402(9) 0.1857(3) 0.2100(2)
C124_2 C 0.8590(10) 0.1723(2) 0.1781(3)
H131_2 H 0.8510 0.1447 0.1727
C125_2 C 0.8898(9) 0.2003(3) 0.1543(2)
H132_2 H 0.9023 0.1914 0.1329
C126_2 C 0.8107(11) 0.1571(4) 0.2372(3)
C127_2 C 0.7092(11) 0.1517(5) 0.2442(4)
C128_2 C 0.6805(12) 0.1277(5) 0.2711(3)
C129_2 C 0.7527(12) 0.1077(4) 0.2914(3)
C130_2 C 0.8471(10) 0.1121(5) 0.2833(3)
C131_2 C 0.8791(9) 0.1355(5) 0.2565(4)
C132_2 C 0.9868(9) 0.1407(5) 0.2457(3)
H135_2 H 0.9945 0.1306 0.2236
C133_2 C 0.9262(9) 0.0897(5) 0.3045(4)
H136_2 H 0.9901 0.0961 0.2960
H137_2 H 0.9157 0.0605 0.3035
H138_2 H 0.9214 0.0988 0.3269
C134_2 C 0.5683(12) 0.1234(7) 0.2781(5)
H139_2 H 0.5584 0.1046 0.2962
H140_2 H 0.5361 0.1129 0.2588
H141_2 H 0.5416 0.1499 0.2837
C135_2 C 0.6325(13) 0.1722(7) 0.2236(5)
H142_2 H 0.5688 0.1657 0.2321
H143_2 H 0.6374 0.1626 0.2013
H144_2 H 0.6420 0.2016 0.2241
N11 N 0.8916(7) 0.6341(2) 0.3676(2)
H68_3 H 0.4737 0.8050 0.9961
H60 H 0.9846 0.3581 0.3171
H61 H 0.9772 0.3968 0.2942
H63 H 0.9714 0.3568 0.2463
H64 H 0.9707 0.3178 0.2693
C76 C 0.8643(6) 0.6066(3) 0.3430(2)
H81 H 0.8126 0.6131 0.3290
C77 C 0.9143(8) 0.5696(3) 0.3393(2)
H82 H 0.8960 0.5512 0.3228
C78 C 0.9916(7) 0.5600(3) 0.3602(3)
C80 C 0.9689(7) 0.6245(3) 0.3885(2)
H84 H 0.9872 0.6429 0.4050
C87 C 0.9684(14) 0.4916(5) 0.4058(4)
H85 H 0.9357 0.4657 0.4090
H86 H 0.9209 0.5127 0.4014
C110_2 C 0.9924(6) 0.3726(3) 0.1570(2)
H116_2 H 0.9381 0.3643 0.1691
H133 H 0.9716 0.6253 0.2398
H134 H 0.9957 0.6693 0.2535
N8 N 0.5299(6) 0.1530(2) 0.8674(2)
C106_2 C 0.6110(6) 0.1407(3) 0.8856(2)
H113_2 H 0.6361 0.1578 0.9020
C107_2 C 0.6547(6) 0.1028(3) 0.8794(2)
H114_2 H 0.7090 0.0945 0.8915
C108_2 C 0.6173(7) 0.0772(2) 0.8549(2)
C109_2 C 0.5361(8) 0.0895(3) 0.8368(2)
H115_2 H 0.5110 0.0724 0.8204
C110_3 C 0.4924(6) 0.1274(3) 0.8430(2)
H116_3 H 0.4381 0.1357 0.8309
C111_2 C 0.6653(14) 0.0357(6) 0.8467(4)
C112_2 C 0.6468(10) 0.0029(5) 0.8694(3)
C116_2 C 0.7229(11) 0.0300(5) 0.8198(3)
H117_2 H 0.8330 0.0102 0.7709
C118_2 C 0.7472(14) 0.0675(4) 0.7976(4)
H120_2 H 0.7882 0.0588 0.7797
H121_2 H 0.7808 0.0880 0.8104
H122_2 H 0.6876 0.0790 0.7890
C119_2 C 0.5795(11) 0.0110(4) 0.8993(3)
H124_2 H 0.5160 0.0194 0.8917
H125_2 H 0.6073 0.0325 0.9127
Ag6_2 Ag 0.44873(8) 0.21307(4) 0.87639(3)
Ag1_2 Ag 0.68412(8) 0.30431(4) 0.86983(3)
B2_2 B 0.7177(14) 0.0914(5) 0.6627(4)
B3_3 B 0.7801(11) 0.9139(5) 0.8249(3)
N1_2 N 0.8262(8) 0.3142(4) 0.8979(3)
C1_2 C 0.8438(8) 0.2954(4) 0.9281(3)
H1_2 H 0.8031 0.2743 0.9354
C2_2 C 0.9222(9) 0.3081(4) 0.9474(3)
H2_2 H 0.9340 0.2956 0.9676
C3_2 C 0.9830(7) 0.3397(4) 0.9365(3)
C4_2 C 0.9654(10) 0.3585(4) 0.9063(3)
C5_2 C 0.8870(11) 0.3457(5) 0.8870(3)
H4_2 H 0.8752 0.3583 0.8668
C15_2 C 0.9402(9) 0.3912(5) 0.9943(4)
H16_2 H 0.9056 0.4032 0.9761
N4_2 N 0.6702(6) 0.2591(3) 0.8297(2)
C46_2 C 0.6475(9) 0.2710(3) 0.7977(2)
H49_2 H 0.6292 0.2981 0.7933
C47_2 C 0.6521(10) 0.2424(4) 0.77215(17)
H50_2 H 0.6369 0.2504 0.7507
C48_2 C 0.6794(8) 0.2019(3) 0.7786(2)
C49_2 C 0.7021(8) 0.1900(2) 0.8106(2)
H51_2 H 0.7204 0.1629 0.8150
C50_2 C 0.6975(7) 0.2186(3) 0.83615(17)
H52_2 H 0.7127 0.2106 0.8576
C51_2 C 0.6875(12) 0.1703(5) 0.7500(4)
C52_2 C 0.6055(14) 0.1569(6) 0.7356(4)
C53_2 C 0.6127(11) 0.1301(5) 0.7073(4)
C54_2 C 0.7067(12) 0.1167(5) 0.6970(3)
C55_2 C 0.7892(13) 0.1300(5) 0.7135(3)
C56_2 C 0.7853(10) 0.1570(4) 0.7410(3)
C57_2 C 0.8713(11) 0.1726(5) 0.7587(3)
H53_2 H 0.8505 0.1906 0.7761
H54_2 H 0.9127 0.1874 0.7437
H55_2 H 0.9070 0.1498 0.7679
C58_2 C 0.8935(12) 0.1128(5) 0.7071(4)
H56_2 H 0.8919 0.0945 0.6884
H57_2 H 0.9154 0.0979 0.7262
H58_2 H 0.9375 0.1352 0.7027
C59_2 C 0.5181(11) 0.1177(6) 0.6905(5)
H59_2 H 0.5325 0.1001 0.6721
H60_2 H 0.4846 0.1419 0.6829
H61_2 H 0.4772 0.1032 0.7058
C60_2 C 0.5060(12) 0.1679(7) 0.7478(6)
H62_2 H 0.5117 0.1855 0.7667
H63_2 H 0.4714 0.1432 0.7537
H64_2 H 0.4707 0.1822 0.7307
C64_2 C 0.9802(8) 0.1696(4) 0.5389(3)
H67_2 H 0.9201 0.1603 0.5311
C66_2 C 0.9331(11) 0.1433(6) 0.5943(4)
C67_2 C 0.9428(14) 0.1026(5) 0.6060(4)
C68_2 C 0.8725(11) 0.0856(4) 0.6257(3)
C69_2 C 0.7931(11) 0.1099(5) 0.6372(3)
C70_2 C 0.7836(9) 0.1502(4) 0.6262(4)
C71_2 C 0.8523(14) 0.1672(5) 0.6051(4)
C72_2 C 0.8378(12) 0.2122(5) 0.5942(5)
H69_2 H 0.7787 0.2228 0.6038
H70_2 H 0.8333 0.2134 0.5707
H71_2 H 0.8925 0.2284 0.6015
C73_2 C 0.6929(13) 0.1768(5) 0.6349(5)
H72_2 H 0.6518 0.1620 0.6500
H73_2 H 0.6568 0.1827 0.6151
H74_2 H 0.7139 0.2022 0.6448
C74_2 C 0.8873(12) 0.0419(5) 0.6366(3)
H75_2 H 0.8335 0.0336 0.6503
H76_2 H 0.9472 0.0399 0.6488
H77_2 H 0.8906 0.0243 0.6176
C83_2 C 0.6626(11) 0.0183(5) 0.6783(3)
C84_2 C 0.6547(11) 0.0517(5) 0.6569(3)
C85_2 C 0.5928(11) 0.0468(4) 0.6281(3)
C86_2 C 0.5388(11) 0.0118(5) 0.6233(3)
C87_2 C 0.4684(14) 0.0084(5) 0.5942(4)
H85_2 H 0.4357 0.0343 0.5910
H87_2 H 0.5045 0.0015 0.5746
C88_2 C 0.5790(14) 0.0850(4) 0.6051(3)
H88_2 H 0.5376 0.0776 0.5869
H89_2 H 0.6416 0.0937 0.5969
H90_2 H 0.5493 0.1070 0.6173
C89_2 C 0.7315(12) 0.0211(5) 0.7088(3)
H92_2 H 0.7108 0.0434 0.7227
H93_2 H 0.7974 0.0259 0.7015
H99_3 H 0.9442 0.8240 0.9535
C96_3 C 0.9826(10) 0.8507(4) 0.8945(3)
C97_3 C 0.9004(13) 0.8308(4) 0.8817(4)
C98_3 C 0.8348(10) 0.8510(5) 0.8604(4)
C99_3 C 0.8564(11) 0.8908(4) 0.8493(3)
C100_3 C 0.9458(10) 0.9100(4) 0.8607(3)
C103_3 C 0.9679(10) 0.9517(5) 0.8492(3)
H104_3 H 0.9173 0.9607 0.8344
H106_3 H 0.9715 0.9701 0.8677
C104_3 C 0.7387(11) 0.8302(4) 0.8491(4)
H107_3 H 0.7357 0.8027 0.8577
H108_3 H 0.7369 0.8292 0.8255
H109_3 H 0.6839 0.8458 0.8571
C105_3 C 0.8824(12) 0.7859(4) 0.8939(4)
H110_3 H 0.8246 0.7751 0.8836
H111_3 H 0.8740 0.7859 0.9174
H112_3 H 0.9377 0.7690 0.8882
C113_3 C 0.6883(10) 0.9637(4) 0.8625(3)
C114_3 C 0.7425(11) 0.9583(5) 0.8342(3)
C115_3 C 0.7596(12) 0.9924(5) 0.8134(3)
C117_3 C 0.8244(12) 0.9848(4) 0.7827(3)
H118_3 H 0.7932 0.9649 0.7686
H119_3 H 0.8871 0.9745 0.7895
H123_3 H 0.5736 0.9863 0.9121
C120_3 C 0.6663(12) 0.9260(4) 0.8844(4)
H126_3 H 0.6290 0.9345 0.9033
H127_3 H 0.7267 0.9138 0.8916
H128_3 H 0.6294 0.9061 0.8720
N9 N 0.5983(7) 0.7583(3) 0.6624(2)
C121_3 C 0.6171(10) 0.7449(3) 0.6944(3)
H129_3 H 0.6091 0.7173 0.6998
C122_3 C 0.6479(10) 0.7729(4) 0.71816(19)
H130_3 H 0.6605 0.7640 0.7395
C123_3 C 0.6598(9) 0.8143(3) 0.7100(2)
C124_3 C 0.6410(10) 0.8277(2) 0.6781(3)
H131_3 H 0.6490 0.8553 0.6727
C125_3 C 0.6102(9) 0.7997(3) 0.6543(2)
H132_3 H 0.5977 0.8086 0.6329
C126_3 C 0.6893(11) 0.8429(4) 0.7372(3)
C127_3 C 0.7908(11) 0.8483(5) 0.7442(4)
C128_3 C 0.8195(12) 0.8723(5) 0.7711(3)
C129_3 C 0.7473(12) 0.8923(4) 0.7914(3)
C130_3 C 0.6529(10) 0.8879(5) 0.7833(3)
C131_3 C 0.6209(9) 0.8645(5) 0.7565(4)
C132_3 C 0.5132(9) 0.8593(5) 0.7457(3)
H133_2 H 0.4716 0.8747 0.7602
H134_2 H 0.4957 0.8307 0.7465
H135_3 H 0.5055 0.8694 0.7236
C133_3 C 0.5738(9) 0.9103(5) 0.8045(4)
H136_3 H 0.5099 0.9039 0.7960
H137_3 H 0.5843 0.9395 0.8035
H138_3 H 0.5786 0.9012 0.8269
C134_3 C 0.9317(12) 0.8766(7) 0.7781(5)
H139_3 H 0.9416 0.8954 0.7962
H140_3 H 0.9639 0.8871 0.7588
H141_3 H 0.9584 0.8501 0.7837
C135_3 C 0.8675(13) 0.8278(7) 0.7236(5)
H142_3 H 0.9312 0.8343 0.7321
H143_3 H 0.8626 0.8374 0.7013
H144_3 H 0.8580 0.7984 0.7241
Ag7 Ag 0.55127(8) 0.71307(4) 0.62361(3)
N11_2 N 0.6084(7) 0.3659(2) 0.8676(2)
N6 N 0.3916(7) 0.8659(2) 0.6324(2)
C76_2 C 0.3643(6) 0.8934(3) 0.6570(2)
H81_2 H 0.3126 0.8869 0.6710
C77_2 C 0.4143(8) 0.9304(3) 0.6607(2)
H82_2 H 0.3960 0.9488 0.6772
C78_2 C 0.4916(7) 0.9400(3) 0.6398(3)
C79 C 0.5189(7) 0.9125(3) 0.6152(2)
H83 H 0.5706 0.9190 0.6012
C80_2 C 0.4689(7) 0.8755(3) 0.6115(2)
H84_2 H 0.4872 0.8571 0.5950
C81 C 0.5465(10) 0.9798(4) 0.6444(3)
C82 C 0.6125(13) 0.9828(5) 0.6731(3)
H86_2 H 0.4209 0.9873 0.5986
H91 H 0.7287 0.9957 0.7209
C90 C 0.6204(16) 0.9447(4) 0.6960(4)
H94 H 0.6644 0.9507 0.7138
H95 H 0.6448 0.9216 0.6837
H96 H 0.5569 0.9381 0.7047
Ag4 Ag 0.31588(8) 0.80431(4) 0.63017(3)
N2_3 N 0.6811(8) 0.6913(4) 0.5918(3)
C16_3 C 0.7440(10) 0.6638(4) 0.6074(2)
H17_3 H 0.7327 0.6561 0.6291
C17_3 C 0.8239(9) 0.6478(4) 0.5904(3)
H18_3 H 0.8661 0.6294 0.6008
C18_3 C 0.8409(9) 0.6593(4) 0.5579(3)
C19_3 C 0.7779(10) 0.6868(5) 0.5424(2)
H19_3 H 0.7892 0.6945 0.5206
C20_3 C 0.6980(9) 0.7028(4) 0.5593(3)
H20_3 H 0.6559 0.7212 0.5489
C21_3 C 0.9289(11) 0.6410(5) 0.5420(4)
C26_3 C 0.9173(11) 0.6102(6) 0.5188(4)
C27_3 C 0.8112(12) 0.5978(6) 0.5093(5)
H21_3 H 0.8130 0.5767 0.4927
H22_3 H 0.7771 0.6215 0.5009
H23_3 H 0.7778 0.5875 0.5284
C28_3 C 0.9945(11) 0.5594(5) 0.4787(4)
H24_3 H 0.9265 0.5541 0.4744
H31_3 H 0.9900 0.6862 0.5952
H32_3 H 0.9881 0.7163 0.5650
S1_2 S 0.4286(4) 0.76669(17) 0.56626(12)
O1_2 O 0.3594(10) 0.7419(4) 0.5853(3)
O2_2 O 0.3894(10) 0.8081(3) 0.5560(4)
O3_3 O 0.5269(9) 0.7684(5) 0.5780(3)
C136_2 C 0.435(2) 0.7407(7) 0.5280(4)
F1_2 F 0.4634(11) 0.7012(4) 0.5334(4)
F2_2 F 0.3431(13) 0.7394(4) 0.5144(3)
F3_2 F 0.4921(15) 0.7574(5) 0.5069(3)
N12_2 N 0.4701(6) 0.6530(2) 0.6326(2)
B3_4 B 0.2199(11) 0.4139(5) 0.6751(3)
H99_4 H 0.0558 0.3240 0.5465
C96_4 C 0.0174(10) 0.3507(4) 0.6055(3)
C97_4 C 0.0996(13) 0.3308(4) 0.6183(4)
C98_4 C 0.1652(10) 0.3510(5) 0.6396(4)
C99_4 C 0.1436(11) 0.3908(4) 0.6507(3)
C100_4 C 0.0542(10) 0.4100(4) 0.6393(3)
C103_4 C 0.0321(10) 0.4517(5) 0.6508(3)
H104_4 H 0.0827 0.4607 0.6656
H106_4 H 0.0285 0.4701 0.6323
C104_4 C 0.2613(11) 0.3302(4) 0.6509(4)
H107_4 H 0.2643 0.3027 0.6423
H108_4 H 0.2631 0.3292 0.6745
H109_4 H 0.3161 0.3458 0.6429
C105_4 C 0.1176(12) 0.2859(4) 0.6061(4)
H110_4 H 0.1754 0.2751 0.6164
H111_4 H 0.1260 0.2859 0.5826
H112_4 H 0.0623 0.2690 0.6118
C106_3 C 0.3890(6) 0.6407(3) 0.6144(2)
H113_3 H 0.3639 0.6578 0.5980
C107_3 C 0.3453(6) 0.6028(3) 0.6206(2)
H114_3 H 0.2910 0.5945 0.6085
C108_3 C 0.3827(7) 0.5772(2) 0.6451(2)
C109_3 C 0.4639(8) 0.5895(3) 0.6632(2)
H115_3 H 0.4890 0.5724 0.6796
C110_4 C 0.5076(6) 0.6274(3) 0.6570(2)
H116_4 H 0.5619 0.6357 0.6691
C111_3 C 0.3347(14) 0.5357(6) 0.6533(4)
C112_3 C 0.3532(10) 0.5029(5) 0.6306(3)
C113_4 C 0.3117(10) 0.4637(4) 0.6375(3)
C114_4 C 0.2575(11) 0.4583(5) 0.6658(3)
C115_4 C 0.2404(12) 0.4924(5) 0.6866(3)
C116_3 C 0.2771(11) 0.5300(5) 0.6802(3)
C117_4 C 0.1756(12) 0.4848(4) 0.7173(3)
H117_3 H 0.1670 0.5102 0.7291
H118_4 H 0.2068 0.4649 0.7314
H119_4 H 0.1129 0.4745 0.7105
C118_3 C 0.2528(14) 0.5675(4) 0.7024(4)
H120_3 H 0.2118 0.5588 0.7203
H121_3 H 0.2192 0.5880 0.6896
H122_3 H 0.3124 0.5790 0.7110
C119_3 C 0.4205(11) 0.5110(4) 0.6007(3)
H123_4 H 0.4264 0.4863 0.5879
H124_3 H 0.4840 0.5194 0.6083
H125_3 H 0.3927 0.5325 0.5873
C120_4 C 0.3337(12) 0.4260(4) 0.6156(4)
H126_4 H 0.3710 0.4345 0.5967
H127_4 H 0.2733 0.4138 0.6084
H128_4 H 0.3706 0.4061 0.6280
N9_2 N 0.4017(7) 0.2583(3) 0.8376(2)
C121_4 C 0.3829(10) 0.2449(3) 0.8056(3)
H129_4 H 0.3909 0.2173 0.8002
C122_4 C 0.3521(10) 0.2729(4) 0.78184(19)
H130_4 H 0.3395 0.2640 0.7605
C123_4 C 0.3402(9) 0.3143(3) 0.7900(2)
C124_4 C 0.3590(10) 0.3277(2) 0.8219(3)
H131_4 H 0.3510 0.3553 0.8273
C125_4 C 0.3898(9) 0.2997(3) 0.8457(2)
H132_4 H 0.4023 0.3086 0.8671
C126_4 C 0.3107(11) 0.3429(4) 0.7628(3)
C127_4 C 0.2092(11) 0.3483(5) 0.7558(4)
C128_4 C 0.1805(12) 0.3723(5) 0.7289(3)
C129_4 C 0.2527(12) 0.3923(4) 0.7086(3)
C130_4 C 0.3471(10) 0.3879(5) 0.7167(3)
C131_4 C 0.3791(9) 0.3645(5) 0.7435(4)
C132_4 C 0.4868(9) 0.3593(5) 0.7543(3)
H133_3 H 0.5284 0.3747 0.7398
H134_3 H 0.5043 0.3307 0.7535
H135_4 H 0.4945 0.3694 0.7764
C133_4 C 0.4262(9) 0.4103(5) 0.6955(4)
H136_4 H 0.4901 0.4039 0.7040
H137_4 H 0.4157 0.4395 0.6965
H138_4 H 0.4214 0.4012 0.6731
C134_4 C 0.0683(12) 0.3766(7) 0.7219(5)
H139_4 H 0.0584 0.3954 0.7038
H140_4 H 0.0361 0.3871 0.7412
H141_4 H 0.0416 0.3501 0.7163
C135_4 C 0.1325(13) 0.3278(7) 0.7764(5)
H142_4 H 0.0688 0.3343 0.7679
H143_4 H 0.1374 0.3374 0.7987
H144_4 H 0.1420 0.2984 0.7759
B2_3 B 0.2823(14) 0.5914(5) 0.8373(4)
N1_3 N 0.1738(8) 0.8142(4) 0.6021(3)
C1_3 C 0.1562(8) 0.7954(4) 0.5719(3)
H1_3 H 0.1969 0.7743 0.5646
C2_3 C 0.0778(9) 0.8081(4) 0.5526(3)
H2_3 H 0.0660 0.7956 0.5324
C3_3 C 0.0170(7) 0.8397(4) 0.5635(3)
C4_3 C 0.0346(10) 0.8585(4) 0.5937(3)
C5_3 C 0.1130(11) 0.8457(5) 0.6130(3)
H4_3 H 0.1248 0.8583 0.6332
C15_3 C 0.0598(9) 0.8912(5) 0.5057(4)
H14_2 H 0.0593 0.9101 0.4875
H15_2 H 0.0918 0.8661 0.4992
H16_3 H 0.0944 0.9032 0.5239
N4_3 N 0.3298(6) 0.7591(3) 0.6703(2)
C46_3 C 0.3525(9) 0.7710(3) 0.7023(2)
H49_3 H 0.3708 0.7981 0.7067
C47_3 C 0.3479(10) 0.7424(4) 0.72785(17)
H50_3 H 0.3631 0.7504 0.7493
C48_3 C 0.3206(8) 0.7019(3) 0.7214(2)
C49_3 C 0.2979(8) 0.6900(2) 0.6894(2)
H51_3 H 0.2796 0.6629 0.6850
C50_3 C 0.3025(7) 0.7186(3) 0.66385(17)
H52_3 H 0.2873 0.7106 0.6424
C51_3 C 0.3125(12) 0.6703(5) 0.7500(4)
C52_3 C 0.3945(14) 0.6569(6) 0.7644(4)
C53_3 C 0.3873(11) 0.6301(5) 0.7927(4)
C54_3 C 0.2933(12) 0.6167(5) 0.8030(3)
C55_3 C 0.2108(13) 0.6300(5) 0.7865(3)
C56_3 C 0.2147(10) 0.6570(4) 0.7590(3)
C57_3 C 0.1287(11) 0.6726(5) 0.7413(3)
H53_3 H 0.1495 0.6906 0.7239
H54_3 H 0.0873 0.6874 0.7563
H55_3 H 0.0930 0.6498 0.7321
C58_3 C 0.1065(12) 0.6128(5) 0.7929(4)
H56_3 H 0.1081 0.5945 0.8116
H57_3 H 0.0846 0.5979 0.7738
H58_3 H 0.0625 0.6352 0.7973
C59_3 C 0.4819(11) 0.6177(6) 0.8095(5)
H59_3 H 0.4675 0.6001 0.8279
H60_3 H 0.5154 0.6419 0.8171
H61_3 H 0.5228 0.6032 0.7942
C60_3 C 0.4940(12) 0.6679(7) 0.7522(6)
H62_3 H 0.4883 0.6855 0.7333
H63_3 H 0.5286 0.6432 0.7463
H64_3 H 0.5293 0.6822 0.7693
C64_3 C 0.0198(8) 0.6696(4) 0.9611(3)
H67_3 H 0.0799 0.6603 0.9689
C66_3 C 0.0669(11) 0.6433(6) 0.9057(4)
C67_3 C 0.0572(14) 0.6026(5) 0.8940(4)
C68_3 C 0.1275(11) 0.5856(4) 0.8743(3)
C69_3 C 0.2069(11) 0.6099(5) 0.8628(3)
C70_3 C 0.2164(9) 0.6502(4) 0.8738(4)
C71_3 C 0.1477(14) 0.6672(5) 0.8949(4)
C72_3 C 0.1622(12) 0.7122(5) 0.9058(5)
H69_3 H 0.2213 0.7228 0.8962
H70_3 H 0.1667 0.7134 0.9293
H71_3 H 0.1075 0.7284 0.8985
C73_3 C 0.3071(13) 0.6768(5) 0.8651(5)
H72_3 H 0.3482 0.6620 0.8500
H73_3 H 0.3432 0.6827 0.8849
H74_3 H 0.2861 0.7022 0.8552
C74_3 C 0.1127(12) 0.5419(5) 0.8634(3)
H75_3 H 0.1665 0.5336 0.8497
H76_3 H 0.0528 0.5399 0.8512
H77_3 H 0.1094 0.5243 0.8824
C76_3 C 0.6357(6) 0.3934(3) 0.8430(2)
H81_3 H 0.6874 0.3869 0.8290
C77_3 C 0.5857(8) 0.4304(3) 0.8393(2)
H82_3 H 0.6040 0.4488 0.8228
C78_3 C 0.5084(7) 0.4400(3) 0.8602(3)
C79_2 C 0.4811(7) 0.4125(3) 0.8848(2)
H83_2 H 0.4294 0.4190 0.8988
C80_3 C 0.5311(7) 0.3755(3) 0.8885(2)
H84_3 H 0.5128 0.3571 0.9050
C81_2 C 0.4535(10) 0.4798(4) 0.8556(3)
C82_2 C 0.3875(13) 0.4828(5) 0.8269(3)
C83_3 C 0.3374(11) 0.5183(5) 0.8217(3)
C84_3 C 0.3453(11) 0.5517(5) 0.8431(3)
C85_3 C 0.4072(11) 0.5468(4) 0.8719(3)
C86_3 C 0.4612(11) 0.5118(5) 0.8767(3)
C87_3 C 0.5316(14) 0.5084(5) 0.9058(4)
H85_3 H 0.5643 0.5343 0.9090
H86_3 H 0.5791 0.4873 0.9014
H87_3 H 0.4955 0.5015 0.9254
C88_3 C 0.4210(14) 0.5850(4) 0.8949(3)
H88_3 H 0.4624 0.5776 0.9131
H89_3 H 0.3584 0.5937 0.9031
H90_3 H 0.4507 0.6070 0.8827
C89_3 C 0.2685(12) 0.5211(5) 0.7912(3)
H91_2 H 0.2713 0.4957 0.7791
H92_3 H 0.2892 0.5434 0.7773
H93_3 H 0.2026 0.5259 0.7985
C90_2 C 0.3796(16) 0.4447(4) 0.8040(4)
H94_2 H 0.3356 0.4507 0.7862
H95_2 H 0.3552 0.4216 0.8163
H96_2 H 0.4431 0.4381 0.7953
N2_4 N 0.3189(8) 0.1913(4) 0.9082(3)
C16_4 C 0.2560(10) 0.1638(4) 0.8926(2)
H17_4 H 0.2673 0.1561 0.8709
C17_4 C 0.1761(9) 0.1478(4) 0.9096(3)
H18_4 H 0.1339 0.1294 0.8992
C18_4 C 0.1591(9) 0.1593(4) 0.9421(3)
C19_4 C 0.2221(10) 0.1868(5) 0.9576(2)
H19_4 H 0.2108 0.1945 0.9794
C20_4 C 0.3020(9) 0.2028(4) 0.9407(3)
H20_4 H 0.3441 0.2212 0.9511
C21_4 C 0.0711(11) 0.1410(5) 0.9580(4)
C26_4 C 0.0827(11) 0.1102(6) 0.9812(4)
C27_4 C 0.1888(12) 0.0978(6) 0.9907(5)
H22_4 H 0.2229 0.1215 0.9991
H23_4 H 0.2222 0.0875 0.9716
H31_4 H 0.0100 0.1862 0.9048
H32_4 H 0.0119 0.2163 0.9350
S1_3 S 0.5714(4) 0.26669(17) 0.93374(12)
O1_3 O 0.6406(10) 0.2419(4) 0.9147(3)
O2_3 O 0.6106(10) 0.3081(3) 0.9440(4)
O3_4 O 0.4731(9) 0.2684(5) 0.9220(3)
C136_3 C 0.565(2) 0.2407(7) 0.9720(4)
F1_3 F 0.5366(11) 0.2012(4) 0.9666(4)
F2_3 F 0.6569(13) 0.2394(4) 0.9856(3)
F3_3 F 0.5079(15) 0.2574(5) 0.9931(3)
H14_3 H 0.9407 0.4101 0.0125
H15_3 H 0.9082 0.3661 0.0008
N6_2 N 0.1084(7) 0.1341(2) 0.1324(2)
C76_4 C 0.1357(6) 0.1066(3) 0.1570(2)
H81_4 H 0.1874 0.1131 0.1710
C77_4 C 0.0857(8) 0.0696(3) 0.1607(2)
H82_4 H 0.1040 0.0512 0.1772
C78_4 C 0.0084(7) 0.0600(3) 0.1398(3)
C80_4 C 0.0311(7) 0.1245(3) 0.1115(2)
H84_4 H 0.0128 0.1429 0.0950
H86_4 H 0.0791 0.0127 0.0986
Ag4_2 Ag 0.18412(8) 0.19569(4) 0.13017(3)
Ag2_2 Ag 0.73574(12) 0.25548(4) 0.50066(4)
N3_4 N 0.7215(8) 0.1865(2) 0.4982(3)
C31_4 C 0.7777(7) 0.1649(3) 0.4755(2)
H33_4 H 0.8190 0.1790 0.4612
C32_4 C 0.7721(7) 0.1221(3) 0.4741(2)
H34_4 H 0.8098 0.1076 0.4589
C33_4 C 0.7104(8) 0.1010(2) 0.4955(3)
C34_4 C 0.6541(7) 0.1226(3) 0.5182(2)
H35_4 H 0.6128 0.1085 0.5325
C35_4 C 0.6597(7) 0.1654(3) 0.5196(2)
H36_4 H 0.6221 0.1799 0.5348
C36_4 C 0.7039(9) 0.0547(4) 0.4958(3)
C37_4 C 0.6684(9) 0.0331(5) 0.4686(3)
C41_4 C 0.7392(9) 0.0326(5) 0.5237(3)
C42_4 C 0.7923(13) 0.0560(5) 0.5516(3)
H37_4 H 0.7928 0.0850 0.5467
H38_4 H 0.8583 0.0462 0.5534
H39_4 H 0.7586 0.0515 0.5721
C45_4 C 0.6196(12) 0.0595(4) 0.4407(3)
H46_4 H 0.5960 0.0415 0.4236
H47_4 H 0.6670 0.0782 0.4316
H48_4 H 0.5659 0.0749 0.4497
N7_4 N 0.8329(8) 0.2918(3) 0.5360(3)
C91_4 C 0.7958(6) 0.3025(3) 0.5667(3)
H97_4 H 0.7307 0.2971 0.5718
C92_4 C 0.8562(8) 0.3212(3) 0.5899(2)
H98_4 H 0.8314 0.3284 0.6104
C93_4 C 0.9536(7) 0.3293(3) 0.5823(2)
C94_4 C 0.9906(6) 0.3186(3) 0.5515(3)
C95_4 C 0.9302(9) 0.2999(3) 0.5284(2)
H100_4 H 0.9550 0.2927 0.5078
C101_4 C 0.9920(9) 0.3905(4) 0.6174(3)
C102_4 C 0.9049(11) 0.4119(5) 0.6039(4)
H101_4 H 0.8982 0.4383 0.6143
H102_4 H 0.8475 0.3956 0.6081
H103_4 H 0.9126 0.4155 0.5806
H105_4 H 0.9704 0.4516 0.6622
N10_2 N 0.6336(9) 0.2957(3) 0.4704(3)
B2_4 B 0.2177(14) 0.4086(5) 0.3373(4)
N1_4 N 0.3262(8) 0.1858(4) 0.1021(3)
C1_4 C 0.3438(8) 0.2046(4) 0.0719(3)
H1_4 H 0.3031 0.2257 0.0646
C2_4 C 0.4222(9) 0.1919(4) 0.0526(3)
H2_4 H 0.4340 0.2044 0.0324
C3_4 C 0.4830(7) 0.1603(4) 0.0635(3)
C4_4 C 0.4654(10) 0.1415(4) 0.0937(3)
H3_4 H 0.5061 0.1204 0.1010
C5_4 C 0.3870(11) 0.1543(5) 0.1130(3)
H4_4 H 0.3752 0.1417 0.1332
C6_4 C 0.5652(13) 0.1456(5) 0.0422(4)
C7_4 C 0.5460(11) 0.1184(5) 0.0161(4)
C8_4 C 0.6246(11) 0.0985(4) 0.0012(3)
C9_4 C 0.7245(10) 0.1076(4) 0.0118(3)
C10_4 C 0.7396(10) 0.1360(4) 0.0361(3)
C11_4 C 0.6621(11) 0.1554(5) 0.0514(4)
C12_4 C 0.6759(11) 0.1903(6) 0.0778(5)
H5_4 H 0.7445 0.1943 0.0819
H6_4 H 0.6440 0.1823 0.0979
H7_4 H 0.6477 0.2154 0.0698
C13_4 C 0.8447(10) 0.1448(5) 0.0481(4)
H8_4 H 0.8431 0.1650 0.0653
H9_4 H 0.8831 0.1551 0.0300
H10_4 H 0.8734 0.1198 0.0562
C15_4 C 0.4402(9) 0.1088(5) 0.0057(4)
H16_4 H 0.4056 0.0968 0.0239
H25_4 H 0.9745 0.0344 0.0140
H26_4 H 0.9743 0.0690 0.0410
C40_4 C 0.7689(9) 0.0097(4) 0.0246(3)
C43_4 C 0.7413(11) 0.0316(5) 0.0565(3)
H40_4 H 0.7215 0.0116 0.0726
H41_4 H 0.6882 0.0503 0.0524
H42_4 H 0.7967 0.0467 0.0647
N4_4 N 0.1702(6) 0.2409(3) 0.1703(2)
C46_4 C 0.1475(9) 0.2290(3) 0.2023(2)
H49_4 H 0.1292 0.2019 0.2067
C47_4 C 0.1521(10) 0.2576(4) 0.22785(17)
H50_4 H 0.1369 0.2496 0.2493
C48_4 C 0.1794(8) 0.2981(3) 0.2214(2)
C49_4 C 0.2021(8) 0.3100(2) 0.1894(2)
H51_4 H 0.2204 0.3371 0.1850
C50_4 C 0.1975(7) 0.2814(3) 0.16385(17)
H52_4 H 0.2127 0.2894 0.1424
C51_4 C 0.1875(12) 0.3297(5) 0.2500(4)
C52_4 C 0.1055(14) 0.3431(6) 0.2644(4)
C53_4 C 0.1127(11) 0.3699(5) 0.2927(4)
C54_4 C 0.2067(12) 0.3833(5) 0.3030(3)
C55_4 C 0.2892(13) 0.3700(5) 0.2865(3)
C56_4 C 0.2853(10) 0.3430(4) 0.2590(3)
C57_4 C 0.3713(11) 0.3274(5) 0.2413(3)
H53_4 H 0.3505 0.3094 0.2239
H54_4 H 0.4127 0.3126 0.2563
H55_4 H 0.4070 0.3502 0.2321
C58_4 C 0.3935(12) 0.3872(5) 0.2929(4)
H56_4 H 0.3919 0.4055 0.3116
H57_4 H 0.4154 0.4021 0.2738
H58_4 H 0.4375 0.3648 0.2973
C59_4 C 0.0181(11) 0.3823(6) 0.3095(5)
H59_4 H 0.0325 0.3999 0.3279
C60_4 C 0.0060(12) 0.3321(7) 0.2522(6)
H62_4 H 0.0117 0.3145 0.2333
C61_4 C 0.6598(7) 0.3026(3) 0.4377(3)
H65_4 H 0.7198 0.2932 0.4299
C62_4 C 0.5962(8) 0.3233(3) 0.4168(2)
H66_4 H 0.6137 0.3279 0.3949
C63_4 C 0.5064(7) 0.3373(3) 0.4284(2)
C64_4 C 0.4802(8) 0.3304(4) 0.4611(3)
H67_4 H 0.4201 0.3397 0.4689
C65_4 C 0.5438(11) 0.3096(4) 0.4821(2)
H68_4 H 0.5263 0.3050 0.5039
C66_4 C 0.4331(11) 0.3567(6) 0.4057(4)
C67_4 C 0.4428(14) 0.3974(5) 0.3940(4)
C68_4 C 0.3725(11) 0.4144(4) 0.3743(3)
C69_4 C 0.2931(11) 0.3901(5) 0.3628(3)
C70_4 C 0.2836(9) 0.3498(4) 0.3738(4)
C71_4 C 0.3523(14) 0.3328(5) 0.3949(4)
C72_4 C 0.3378(12) 0.2878(5) 0.4058(5)
H69_4 H 0.2787 0.2772 0.3962
H70_4 H 0.3333 0.2866 0.4293
H71_4 H 0.3925 0.2716 0.3985
C73_4 C 0.1929(13) 0.3232(5) 0.3651(5)
H72_4 H 0.1518 0.3380 0.3500
H73_4 H 0.1568 0.3173 0.3849
H74_4 H 0.2139 0.2978 0.3552
C74_4 C 0.3873(12) 0.4581(5) 0.3634(3)
H75_4 H 0.3335 0.4664 0.3497
H76_4 H 0.4472 0.4601 0.3512
H77_4 H 0.3906 0.4757 0.3824
C75_4 C 0.5288(11) 0.4216(5) 0.4073(4)
H78_4 H 0.5279 0.4490 0.3982
H79_4 H 0.5887 0.4081 0.4013
H80_4 H 0.5242 0.4232 0.4309
C79_3 C 0.0189(7) 0.5875(3) 0.3848(2)
H83_3 H 0.0706 0.5810 0.3988
C81_3 C 0.0465(10) 0.5202(4) 0.3556(3)
C82_3 C 0.1125(13) 0.5172(5) 0.3269(3)
C83_4 C 0.1626(11) 0.4817(5) 0.3217(3)
C84_4 C 0.1547(11) 0.4483(5) 0.3431(3)
C85_4 C 0.0928(11) 0.4532(4) 0.3719(3)
C86_4 C 0.0388(11) 0.4882(5) 0.3767(3)
H87_4 H 0.0045 0.4985 0.4254
C88_4 C 0.0790(14) 0.4150(4) 0.3949(3)
H88_4 H 0.0376 0.4224 0.4131
H89_4 H 0.1416 0.4063 0.4031
H90_4 H 0.0493 0.3930 0.3827
C89_4 C 0.2315(12) 0.4789(5) 0.2912(3)
H91_3 H 0.2287 0.5043 0.2791
H92_4 H 0.2108 0.4566 0.2773
H93_4 H 0.2974 0.4741 0.2985
C90_3 C 0.1204(16) 0.5553(4) 0.3040(4)
H94_3 H 0.1644 0.5493 0.2862
H95_3 H 0.1448 0.5784 0.3163
H96_3 H 0.0569 0.5619 0.2953
H60_4 H 0.0154 0.8581 0.1829
H61_4 H 0.0228 0.8968 0.2058
H63_4 H 0.0286 0.8568 0.2537
H64_4 H 0.0293 0.8178 0.2307
C87_4 C 0.0316(14) 0.9916(5) 0.0942(4)
H85_4 H 0.0643 0.9657 0.0910
H133_4 H 0.0284 0.1253 0.2602
H134_4 H 0.0043 0.1693 0.2465
C79_4 C 0.9811(7) 0.0875(3) 0.1152(2)
H83_4 H 0.9294 0.0810 0.1012
C81_4 C 0.9535(10) 0.0202(4) 0.1444(3)
C82_4 C 0.8875(13) 0.0172(5) 0.1731(3)
H91_4 H 0.7713 0.0043 0.2209
C90_4 C 0.8796(16) 0.0553(4) 0.1960(4)
H94_4 H 0.8356 0.0493 0.2138
H95_4 H 0.8552 0.0784 0.1837
H96_4 H 0.9431 0.0619 0.2047
N8_2 N 0.9701(6) 0.8470(2) 0.3674(2)
C106_4 C 0.8890(6) 0.8593(3) 0.3856(2)
H113_4 H 0.8639 0.8422 0.4020
C107_4 C 0.8453(6) 0.8972(3) 0.3794(2)
H114_4 H 0.7910 0.9055 0.3915
C108_4 C 0.8827(7) 0.9228(2) 0.3549(2)
C109_4 C 0.9639(8) 0.9105(3) 0.3368(2)
H115_4 H 0.9890 0.9276 0.3204
C111_4 C 0.8347(14) 0.9643(6) 0.3467(4)
C112_4 C 0.8532(10) 0.9971(5) 0.3694(3)
C116_4 C 0.7771(11) 0.9700(5) 0.3198(3)
H117_4 H 0.6670 0.9898 0.2709
C118_4 C 0.7528(14) 0.9325(4) 0.2976(4)
H120_4 H 0.7118 0.9412 0.2797
H121_4 H 0.7192 0.9120 0.3104
H122_4 H 0.8124 0.9210 0.2890
C119_4 C 0.9205(11) 0.9890(4) 0.3993(3)
H124_4 H 0.9840 0.9806 0.3917
H125_4 H 0.8927 0.9675 0.4127
S1_4 S 0.9286(4) 0.73331(17) 0.43374(12)
O1_4 O 0.8594(10) 0.7581(4) 0.4147(3)
O2_4 O 0.8894(10) 0.6919(3) 0.4440(4)
C136_4 C 0.935(2) 0.7593(7) 0.4720(4)
F1_4 F 0.9634(11) 0.7988(4) 0.4666(4)
F2_4 F 0.8431(13) 0.7606(4) 0.4856(3)
F3_4 F 0.9921(15) 0.7426(5) 0.4931(3)
H21_4 H 0.1870 0.0767 0.0073
C28_4 C 0.0055(11) 0.0594(5) 0.0213(4)
H24_4 H 0.0735 0.0541 0.0256
B1_4 B 0.8134(12) 0.0805(5) 0.9978(4)
C14_4 C 0.6070(9) 0.0681(5) 0.9719(3)
H11_4 H 0.5380 0.0659 0.9677
H12_4 H 0.6328 0.0414 0.9774
H13_4 H 0.6393 0.0783 0.9526
H14_4 H 0.4407 0.0899 0.9875
H15_4 H 0.4082 0.1339 0.9992
C22_4 C 0.9817(11) 0.1550(4) 0.9496(3)
C23_4 C 0.8970(10) 0.1360(4) 0.9609(3)
C24_4 C 0.9028(11) 0.1037(4) 0.9845(3)
C25_4 C 0.9967(9) 0.0912(4) 0.9953(3)
C29_4 C 0.7936(10) 0.1502(5) 0.9504(4)
H27_4 H 0.7990 0.1719 0.9344
H28_4 H 0.7589 0.1603 0.9694
H29_4 H 0.7586 0.1274 0.9411
C30_4 C 0.9785(12) 0.1934(5) 0.9252(4)
H30_4 H 0.9116 0.2008 0.9209
C38_4 C 0.8317(9) 0.0091(5) 0.9688(3)
C39_4 C 0.8015(9) 0.0322(4) 0.9957(3)
C44_4 C 0.8643(11) 0.0339(4) 0.9371(3)
H43_4 H 0.8821 0.0149 0.9200
H44_4 H 0.9196 0.0510 0.9423
H45_4 H 0.8111 0.0509 0.9297
S2 S 0.0364(4) 0.74800(17) 0.06714(11)
O4 O 0.0640(19) 0.7073(6) 0.0809(6)
O5 O 0.1120(11) 0.7570(5) 0.0442(4)
C137 C 0.0557(19) 0.7789(8) 0.1008(5)
F4 F 0.0053(17) 0.7700(7) 0.1291(6)
F5 F 0.0294(19) 0.8179(7) 0.0912(6)
F6 F 0.1536(17) 0.7820(7) 0.1105(5)
O6 O 0.9361(10) 0.7516(5) 0.0563(4)
S2_2 S 0.4636(4) 0.25200(17) 0.56714(11)
O4_2 O 0.4360(19) 0.2927(6) 0.5809(6)
O5_2 O 0.3880(11) 0.2430(5) 0.5442(4)
O6_2 O 0.5639(10) 0.2484(5) 0.5563(4)
C137_2 C 0.4443(19) 0.2211(8) 0.6008(5)
F4_2 F 0.4947(17) 0.2300(7) 0.6291(6)
F5_2 F 0.4706(19) 0.1821(7) 0.5912(6)
F6_2 F 0.3464(17) 0.2180(7) 0.6105(5)
O6_3 O 0.0639(10) 0.2516(5) 0.4437(4)
S2_3 S 0.9636(4) 0.24800(17) 0.43286(11)
O4_3 O 0.9360(19) 0.2073(6) 0.4191(6)
O5_3 O 0.8880(11) 0.2570(5) 0.4558(4)
C137_3 C 0.9443(19) 0.2789(8) 0.3992(5)
F4_3 F 0.9947(17) 0.2700(7) 0.3709(6)
F5_3 F 0.9706(19) 0.3179(7) 0.4088(6)
F6_3 F 0.8464(17) 0.2820(7) 0.3895(5)
S2_4 S 0.5364(4) 0.75200(17) 0.93286(11)
O4_4 O 0.5640(19) 0.7927(6) 0.9191(6)
O5_4 O 0.6120(11) 0.7430(5) 0.9558(4)
O6_4 O 0.4361(10) 0.7484(5) 0.9437(4)
C137_4 C 0.5557(19) 0.7211(8) 0.8992(5)
F4_4 F 0.5053(17) 0.7300(7) 0.8709(6)
F5_4 F 0.5294(19) 0.6821(7) 0.9088(6)
F6_4 F 0.6536(17) 0.7180(7) 0.8895(5)
S3 S 0.7577(8) 0.3887(3) 0.2146(2)
O7 O 0.773(2) 0.3952(8) 0.2515(4)
O8 O 0.8150(19) 0.4225(8) 0.1971(7)
O9 O 0.7970(18) 0.3480(6) 0.2039(6)
C138 C 0.6317(12) 0.3926(8) 0.2060(6)
F7 F 0.5712(16) 0.3696(8) 0.2246(7)
F8 F 0.5863(19) 0.4287(8) 0.2092(7)
F9 F 0.5944(18) 0.3817(9) 0.1763(6)
S3_2 S 0.7423(8) 0.6113(3) 0.7146(2)
O7_2 O 0.727(2) 0.6048(8) 0.7515(4)
O8_2 O 0.6850(19) 0.5775(8) 0.6971(7)
O9_2 O 0.7030(18) 0.6520(6) 0.7039(6)
C138_2 C 0.8683(12) 0.6074(8) 0.7060(6)
F7_2 F 0.9288(16) 0.6304(8) 0.7246(7)
F8_2 F 0.9137(19) 0.5713(8) 0.7092(7)
F9_2 F 0.9056(18) 0.6183(9) 0.6763(6)
S3_3 S 0.2423(8) 0.8887(3) 0.2854(2)
O7_3 O 0.227(2) 0.8952(8) 0.2485(4)
O8_3 O 0.1850(19) 0.9225(8) 0.3029(7)
O9_3 O 0.2030(18) 0.8480(6) 0.2961(6)
C138_3 C 0.3683(12) 0.8926(8) 0.2940(6)
F7_3 F 0.4288(16) 0.8696(8) 0.2754(7)
F8_3 F 0.4137(19) 0.9287(8) 0.2908(7)
F9_3 F 0.4056(18) 0.8817(9) 0.3237(6)
S3_4 S 0.2577(8) 0.1113(3) 0.7854(2)
O7_4 O 0.273(2) 0.1048(8) 0.7485(4)
O8_4 O 0.3150(19) 0.0775(8) 0.8029(7)
O9_4 O 0.2970(18) 0.1520(6) 0.7961(6)
C138_4 C 0.1317(12) 0.1074(8) 0.7940(6)
F7_4 F 0.0712(16) 0.1304(8) 0.7754(7)
F8_4 F 0.0863(19) 0.0713(8) 0.7908(7)
F9_4 F 0.0944(18) 0.1183(9) 0.8237(6)
loop_
_geom_bond_atom_site_label_1
_geom_bond_atom_site_label_2
_geom_bond_site_symmetry_1
_geom_bond_site_symmetry_2
S1 O1 1_555 1_555
O2 S1 1_555 1_555
C136 S1 1_555 1_555
F1 C136 1_555 1_555
F2 C136 1_555 1_555
F3 C136 1_555 1_555
H116 C110 1_555 1_555
Ag6 N2 1_555 1_555
B1 C9 1_555 1_555
C7 C6 1_555 1_555
C8 C7 1_555 1_555
C9 C8 1_555 1_555
C10 C9 1_555 1_555
C11 C6 1_555 1_555
C12 C11 1_555 1_555
H5 C12 1_555 1_555
H6 C12 1_555 1_555
H7 C12 1_555 1_555
C13 C10 1_555 1_555
H8 C13 1_555 1_555
H9 C13 1_555 1_555
H10 C13 1_555 1_555
C14 C8 1_555 1_555
H11 C14 1_555 1_555
H12 C14 1_555 1_555
H13 C14 1_555 1_555
N2 C16 1_555 1_555
C16 H17 1_555 1_555
C17 C16 1_555 1_555
H18 C17 1_555 1_555
C18 C17 1_555 1_555
C19 C18 1_555 1_555
H19 C19 1_555 1_555
C20 N2 1_555 1_555
H20 C20 1_555 1_555
C21 C18 1_555 1_555
C22 C21 1_555 1_555
C23 C22 1_555 1_555
C24 B1 1_555 1_555
C25 C24 1_555 1_555
C26 C21 1_555 1_555
C27 C26 1_555 1_555
H21 C27 1_555 1_555
H22 C27 1_555 1_555
H23 C27 1_555 1_555
C28 C25 1_555 1_555
H24 C28 1_555 1_555
H25 C28 1_555 1_555
H26 C28 1_555 1_555
C29 C23 1_555 1_555
H27 C29 1_555 1_555
H28 C29 1_555 1_555
H29 C29 1_555 1_555
C30 C22 1_555 1_555
H30 C30 1_555 1_555
H31 C30 1_555 1_555
H32 C30 1_555 1_555
C39 B1 1_555 1_555
C40 C39 1_555 1_555
C43 C40 1_555 1_555
H40 C43 1_555 1_555
H41 C43 1_555 1_555
H42 C43 1_555 1_555
C44 C38 1_555 1_555
H43 C44 1_555 1_555
H44 C44 1_555 1_555
H45 C44 1_555 1_555
N5 C61 1_555 1_555
C61 H65 1_555 1_555
C62 C61 1_555 1_555
H66 C62 1_555 1_555
C63 C62 1_555 1_555
C65 N5 1_555 1_555
H78 C75 1_555 1_555
H79 C75 1_555 1_555
H80 C75 1_555 1_555
O3 Ag6 1_555 1_555
N13 Ag6 1_555 1_555
C10 C11 1_555 1_555
C19 C20 1_555 1_555
C23 C24 1_555 1_555
C25 C26 1_555 1_555
C38 C39 1_555 1_555
B3 C99 1_555 1_555
H35 C34 1_555 1_555
H36 C35 1_555 1_555
C42 C41 1_555 1_555
H37 C42 1_555 1_555
H38 C42 1_555 1_555
H39 C42 1_555 1_555
N7 Ag5 1_555 1_555
C91 N7 1_555 1_555
H97 C91 1_555 1_555
C92 C91 1_555 1_555
H98 C92 1_555 1_555
C93 C92 1_555 1_555
C94 C93 1_555 1_555
H99 C94 1_555 1_555
C95 N7 1_555 1_555
H100 C95 1_555 1_555
C96 C93 1_555 1_555
C97 C96 1_555 1_555
C98 C97 1_555 1_555
C99 C98 1_555 1_555
C100 C99 1_555 1_555
C101 C96 1_555 1_555
C102 C101 1_555 1_555
H101 C102 1_555 1_555
H102 C102 1_555 1_555
H103 C102 1_555 1_555
C103 C100 1_555 1_555
H104 C103 1_555 1_555
H105 C103 1_555 1_555
H106 C103 1_555 1_555
C104 C98 1_555 1_555
H107 C104 1_555 1_555
H108 C104 1_555 1_555
H109 C104 1_555 1_555
C105 C97 1_555 1_555
H110 C105 1_555 1_555
H111 C105 1_555 1_555
H112 C105 1_555 1_555
N12 C106 1_555 1_555
C106 H113 1_555 1_555
C107 C106 1_555 1_555
H114 C107 1_555 1_555
C108 C107 1_555 1_555
C109 C108 1_555 1_555
H115 C109 1_555 1_555
C111 C108 1_555 1_555
C112 C111 1_555 1_555
C113 C112 1_555 1_555
C114 B3 1_555 1_555
C115 C114 1_555 1_555
C116 C111 1_555 1_555
C117 C115 1_555 1_555
H117 C117 1_555 1_555
H118 C117 1_555 1_555
H119 C117 1_555 1_555
C118 C116 1_555 1_555
H120 C118 1_555 1_555
H121 C118 1_555 1_555
H122 C118 1_555 1_555
C119 C112 1_555 1_555
H123 C119 1_555 1_555
H124 C119 1_555 1_555
H125 C119 1_555 1_555
C120 C113 1_555 1_555
H126 C120 1_555 1_555
H127 C120 1_555 1_555
H128 C120 1_555 1_555
N13 C121 1_555 1_555
C121 H129 1_555 1_555
C122 C121 1_555 1_555
H130 C122 1_555 1_555
C123 C122 1_555 1_555
C124 C123 1_555 1_555
H131 C124 1_555 1_555
C125 N13 1_555 1_555
H132 C125 1_555 1_555
C126 C123 1_555 1_555
C127 C126 1_555 1_555
C128 C127 1_555 1_555
C129 B3 1_555 1_555
C130 C129 1_555 1_555
C131 C126 1_555 1_555
C132 C131 1_555 1_555
H135 C132 1_555 1_555
C133 C130 1_555 1_555
H136 C133 1_555 1_555
H137 C133 1_555 1_555
H138 C133 1_555 1_555
C134 C128 1_555 1_555
H139 C134 1_555 1_555
H140 C134 1_555 1_555
H141 C134 1_555 1_555
C135 C127 1_555 1_555
H142 C135 1_555 1_555
H143 C135 1_555 1_555
H144 C135 1_555 1_555
C34 C35 1_555 1_555
C94 C95 1_555 1_555
C100 C101 1_555 1_555
C113 C114 1_555 1_555
C115 C116 1_555 1_555
C124 C125 1_555 1_555
C128 C129 1_555 1_555
C130 C131 1_555 1_555
N3 C31 1_555 1_555
C31 H33 1_555 1_555
C32 C31 1_555 1_555
H34 C32 1_555 1_555
C33 C32 1_555 1_555
C36 C33 1_555 1_555
C37 C36 1_555 1_555
C45 C37 1_555 1_555
H46 C45 1_555 1_555
H47 C45 1_555 1_555
H48 C45 1_555 1_555
Ag3 N2_2 1_555 1_555
H11_2 C14_2 1_555 1_555
H12_2 C14_2 1_555 1_555
H13_2 C14_2 1_555 1_555
N2_2 C16_2 1_555 1_555
C16_2 H17_2 1_555 1_555
C17_2 C16_2 1_555 1_555
H18_2 C17_2 1_555 1_555
C18_2 C17_2 1_555 1_555
C19_2 C18_2 1_555 1_555
H19_2 C19_2 1_555 1_555
C20_2 N2_2 1_555 1_555
H20_2 C20_2 1_555 1_555
C21_2 C18_2 1_555 1_555
C22_2 C21_2 1_555 1_555
C23_2 C22_2 1_555 1_555
C24_2 B1_2 1_555 1_555
C25_2 C24_2 1_555 1_555
C26_2 C21_2 1_555 1_555
C27_2 C26_2 1_555 1_555
H22_2 C27_2 1_555 1_555
H23_2 C27_2 1_555 1_555
C29_2 C23_2 1_555 1_555
H27_2 C29_2 1_555 1_555
H28_2 C29_2 1_555 1_555
H29_2 C29_2 1_555 1_555
C30_2 C22_2 1_555 1_555
H30_2 C30_2 1_555 1_555
H31_2 C30_2 1_555 1_555
H32_2 C30_2 1_555 1_555
N3_2 C31_2 1_555 1_555
C31_2 H33_2 1_555 1_555
C32_2 C31_2 1_555 1_555
H34_2 C32_2 1_555 1_555
C33_2 C32_2 1_555 1_555
C36_2 C33_2 1_555 1_555
C37_2 C36_2 1_555 1_555
C38_2 C37_2 1_555 1_555
C39_2 B1_2 1_555 1_555
C44_2 C38_2 1_555 1_555
H43_2 C44_2 1_555 1_555
H44_2 C44_2 1_555 1_555
H45_2 C44_2 1_555 1_555
C45_2 C37_2 1_555 1_555
H46_2 C45_2 1_555 1_555
H47_2 C45_2 1_555 1_555
H48_2 C45_2 1_555 1_555
O3_2 Ag3 1_555 1_555
N13_2 Ag3 1_555 1_555
C19_2 C20_2 1_555 1_555
C23_2 C24_2 1_555 1_555
C25_2 C26_2 1_555 1_555
C38_2 C39_2 1_555 1_555
C7_2 C6_2 1_555 1_555
C8_2 C7_2 1_555 1_555
C9_2 C8_2 1_555 1_555
C10_2 C9_2 1_555 1_555
C11_2 C6_2 1_555 1_555
C12_2 C11_2 1_555 1_555
H5_2 C12_2 1_555 1_555
H6_2 C12_2 1_555 1_555
H7_2 C12_2 1_555 1_555
C13_2 C10_2 1_555 1_555
H8_2 C13_2 1_555 1_555
H9_2 C13_2 1_555 1_555
H10_2 C13_2 1_555 1_555
H24_2 C28_2 1_555 1_555
H25_2 C28_2 1_555 1_555
H26_2 C28_2 1_555 1_555
H35_2 C34_2 1_555 1_555
H36_2 C35_2 1_555 1_555
C42_2 C41_2 1_555 1_555
H37_2 C42_2 1_555 1_555
H38_2 C42_2 1_555 1_555
H39_2 C42_2 1_555 1_555
C43_2 C40_2 1_555 1_555
H40_2 C43_2 1_555 1_555
H41_2 C43_2 1_555 1_555
H42_2 C43_2 1_555 1_555
N5_2 C61_2 1_555 1_555
C61_2 H65_2 1_555 1_555
C62_2 C61_2 1_555 1_555
H66_2 C62_2 1_555 1_555
C63_2 C62_2 1_555 1_555
C65_2 N5_2 1_555 1_555
H68_2 C65_2 1_555 1_555
H78_2 C75_2 1_555 1_555
H79_2 C75_2 1_555 1_555
H80_2 C75_2 1_555 1_555
N7_2 Ag2 1_555 1_555
C91_2 N7_2 1_555 1_555
H97_2 C91_2 1_555 1_555
C92_2 C91_2 1_555 1_555
H98_2 C92_2 1_555 1_555
C93_2 C92_2 1_555 1_555
C94_2 C93_2 1_555 1_555
C95_2 N7_2 1_555 1_555
H100_2 C95_2 1_555 1_555
C102_2 C101_2 1_555 1_555
H101_2 C102_2 1_555 1_555
H102_2 C102_2 1_555 1_555
H103_2 C102_2 1_555 1_555
Ag5_2 N5_2 1_555 1_555
C10_2 C11_2 1_555 1_555
C34_2 C35_2 1_555 1_555
C40_2 C41_2 1_555 1_555
C94_2 C95_2 1_555 1_555
Ag1 N1 1_555 1_555
Ag5_2 N3_3 1_555 1_555
B1_3 C9_3 1_555 1_555
B2 C54 1_555 1_555
B3_2 C99_2 1_555 1_555
N1 C1 1_555 1_555
C1 H1 1_555 1_555
C2 C1 1_555 1_555
H2 C2 1_555 1_555
C3 C2 1_555 1_555
C4 C3 1_555 1_555
H3_3 C4 1_555 1_555
C5 N1 1_555 1_555
H4 C5 1_555 1_555
C6_3 C3 1_555 1_555
C7_3 C6_3 1_555 1_555
C8_3 C7_3 1_555 1_555
C9_3 C8_3 1_555 1_555
C10_3 C9_3 1_555 1_555
C11_3 C6_3 1_555 1_555
C12_3 C11_3 1_555 1_555
H5_3 C12_3 1_555 1_555
H6_3 C12_3 1_555 1_555
H7_3 C12_3 1_555 1_555
C13_3 C10_3 1_555 1_555
H8_3 C13_3 1_555 1_555
H9_3 C13_3 1_555 1_555
H10_3 C13_3 1_555 1_555
C14_3 C8_3 1_555 1_555
H11_3 C14_3 1_555 1_555
H12_3 C14_3 1_555 1_555
H13_3 C14_3 1_555 1_555
C15 C7_3 1_555 1_555
H14 C15 1_555 1_555
H15 C15 1_555 1_555
H16 C15 1_555 1_555
C23_3 C22_3 1_555 1_555
C24_3 B1_3 1_555 1_555
C25_3 C24_3 1_555 1_555
C29_3 C23_3 1_555 1_555
H27_3 C29_3 1_555 1_555
H28_3 C29_3 1_555 1_555
H29_3 C29_3 1_555 1_555
C30_3 C22_3 1_555 1_555
H30_3 C30_3 1_555 1_555
N3_3 C31_3 1_555 1_555
C31_3 H33_3 1_555 1_555
C32_3 C31_3 1_555 1_555
H34_3 C32_3 1_555 1_555
C33_3 C32_3 1_555 1_555
C34_3 C33_3 1_555 1_555
H35_3 C34_3 1_555 1_555
C35_3 N3_3 1_555 1_555
H36_3 C35_3 1_555 1_555
C36_3 C33_3 1_555 1_555
C37_3 C36_3 1_555 1_555
C38_3 C37_3 1_555 1_555
C39_3 B1_3 1_555 1_555
C40_3 C39_3 1_555 1_555
C41_3 C36_3 1_555 1_555
C42_3 C41_3 1_555 1_555
H37_3 C42_3 1_555 1_555
H38_3 C42_3 1_555 1_555
H39_3 C42_3 1_555 1_555
C43_3 C40_3 1_555 1_555
H40_3 C43_3 1_555 1_555
H41_3 C43_3 1_555 1_555
H42_3 C43_3 1_555 1_555
C44_3 C38_3 1_555 1_555
H43_3 C44_3 1_555 1_555
H44_3 C44_3 1_555 1_555
H45_3 C44_3 1_555 1_555
C45_3 C37_3 1_555 1_555
H46_3 C45_3 1_555 1_555
H47_3 C45_3 1_555 1_555
H48_3 C45_3 1_555 1_555
N4 Ag1 1_555 1_555
C46 N4 1_555 1_555
H49 C46 1_555 1_555
C47 C46 1_555 1_555
H50 C47 1_555 1_555
C48 C47 1_555 1_555
C49 C48 1_555 1_555
H51 C49 1_555 1_555
C50 N4 1_555 1_555
H52 C50 1_555 1_555
C51 C48 1_555 1_555
C52 C51 1_555 1_555
C53 C52 1_555 1_555
C54 C53 1_555 1_555
C55 C54 1_555 1_555
C56 C51 1_555 1_555
C57 C56 1_555 1_555
H53 C57 1_555 1_555
H54 C57 1_555 1_555
H55 C57 1_555 1_555
C58 C55 1_555 1_555
H56 C58 1_555 1_555
H57 C58 1_555 1_555
H58 C58 1_555 1_555
C59 C53 1_555 1_555
H59 C59 1_555 1_555
C60 C52 1_555 1_555
H62 C60 1_555 1_555
N10 C61_3 1_555 1_555
C61_3 H65_3 1_555 1_555
C62_3 C61_3 1_555 1_555
H66_3 C62_3 1_555 1_555
C63_3 C62_3 1_555 1_555
C64 C63_3 1_555 1_555
H67 C64 1_555 1_555
C65_3 N10 1_555 1_555
C66 C63_3 1_555 1_555
C67 C66 1_555 1_555
C68 C67 1_555 1_555
C69 B2 1_555 1_555
C70 C69 1_555 1_555
C71 C66 1_555 1_555
C72 C71 1_555 1_555
H69 C72 1_555 1_555
H70 C72 1_555 1_555
H71 C72 1_555 1_555
C73 C70 1_555 1_555
H72 C73 1_555 1_555
H73 C73 1_555 1_555
H74 C73 1_555 1_555
C74 C68 1_555 1_555
H75 C74 1_555 1_555
H76 C74 1_555 1_555
H77 C74 1_555 1_555
C75_3 C67 1_555 1_555
H78_3 C75_3 1_555 1_555
H79_3 C75_3 1_555 1_555
H80_3 C75_3 1_555 1_555
C84 B2 1_555 1_555
C85 C84 1_555 1_555
C88 C85 1_555 1_555
H88 C88 1_555 1_555
H89 C88 1_555 1_555
H90 C88 1_555 1_555
C89 C83 1_555 1_555
H92 C89 1_555 1_555
H93 C89 1_555 1_555
N7_3 Ag5_2 1_555 1_555
C91_3 N7_3 1_555 1_555
H97_3 C91_3 1_555 1_555
C92_3 C91_3 1_555 1_555
H98_3 C92_3 1_555 1_555
C93_3 C92_3 1_555 1_555
C94_3 C93_3 1_555 1_555
H99_2 C94_3 1_555 1_555
C95_3 N7_3 1_555 1_555
H100_3 C95_3 1_555 1_555
C96_2 C93_3 1_555 1_555
C97_2 C96_2 1_555 1_555
C98_2 C97_2 1_555 1_555
C99_2 C98_2 1_555 1_555
C100_2 C99_2 1_555 1_555
C101_3 C96_2 1_555 1_555
C102_3 C101_3 1_555 1_555
H101_3 C102_3 1_555 1_555
H102_3 C102_3 1_555 1_555
H103_3 C102_3 1_555 1_555
C103_2 C100_2 1_555 1_555
H104_2 C103_2 1_555 1_555
H105_3 C103_2 1_555 1_555
H106_2 C103_2 1_555 1_555
C104_2 C98_2 1_555 1_555
H107_2 C104_2 1_555 1_555
H108_2 C104_2 1_555 1_555
H109_2 C104_2 1_555 1_555
C105_2 C97_2 1_555 1_555
H110_2 C105_2 1_555 1_555
H111_2 C105_2 1_555 1_555
H112_2 C105_2 1_555 1_555
C114_2 B3_2 1_555 1_555
C115_2 C114_2 1_555 1_555
C117_2 C115_2 1_555 1_555
H118_2 C117_2 1_555 1_555
H119_2 C117_2 1_555 1_555
C120_2 C113_2 1_555 1_555
H126_2 C120_2 1_555 1_555
H127_2 C120_2 1_555 1_555
H128_2 C120_2 1_555 1_555
N13_2 C121_2 1_555 1_555
C121_2 H129_2 1_555 1_555
C122_2 C121_2 1_555 1_555
H130_2 C122_2 1_555 1_555
C123_2 C122_2 1_555 1_555
C124_2 C123_2 1_555 1_555
H131_2 C124_2 1_555 1_555
C125_2 N13_2 1_555 1_555
H132_2 C125_2 1_555 1_555
C126_2 C123_2 1_555 1_555
C127_2 C126_2 1_555 1_555
C128_2 C127_2 1_555 1_555
C129_2 B3_2 1_555 1_555
C130_2 C129_2 1_555 1_555
C131_2 C126_2 1_555 1_555
C132_2 C131_2 1_555 1_555
H135_2 C132_2 1_555 1_555
C133_2 C130_2 1_555 1_555
H136_2 C133_2 1_555 1_555
H137_2 C133_2 1_555 1_555
H138_2 C133_2 1_555 1_555
C134_2 C128_2 1_555 1_555
H139_2 C134_2 1_555 1_555
H140_2 C134_2 1_555 1_555
H141_2 C134_2 1_555 1_555
C135_2 C127_2 1_555 1_555
H142_2 C135_2 1_555 1_555
H143_2 C135_2 1_555 1_555
H144_2 C135_2 1_555 1_555
N11 Ag1 1_555 1_555
C4 C5 1_555 1_555
C10_3 C11_3 1_555 1_555
C23_3 C24_3 1_555 1_555
C34_3 C35_3 1_555 1_555
C38_3 C39_3 1_555 1_555
C40_3 C41_3 1_555 1_555
C49 C50 1_555 1_555
C55 C56 1_555 1_555
C64 C65_3 1_555 1_555
C68 C69 1_555 1_555
C70 C71 1_555 1_555
C83 C84 1_555 1_555
C85 C86 1_555 1_555
C94_3 C95_3 1_555 1_555
C100_2 C101_3 1_555 1_555
C113_2 C114_2 1_555 1_555
C124_2 C125_2 1_555 1_555
C128_2 C129_2 1_555 1_555
C130_2 C131_2 1_555 1_555
N11 C76 1_555 1_555
C76 H81 1_555 1_555
C77 C76 1_555 1_555
H82 C77 1_555 1_555
C78 C77 1_555 1_555
C80 N11 1_555 1_555
H84 C80 1_555 1_555
H85 C87 1_555 1_555
H86 C87 1_555 1_555
H116_2 C110_2 1_555 1_555
N8 C106_2 1_555 1_555
C106_2 H113_2 1_555 1_555
C107_2 C106_2 1_555 1_555
H114_2 C107_2 1_555 1_555
C108_2 C107_2 1_555 1_555
C109_2 C108_2 1_555 1_555
H115_2 C109_2 1_555 1_555
C110_3 N8 1_555 1_555
H116_3 C110_3 1_555 1_555
C111_2 C108_2 1_555 1_555
C112_2 C111_2 1_555 1_555
C116_2 C111_2 1_555 1_555
C118_2 C116_2 1_555 1_555
H120_2 C118_2 1_555 1_555
H121_2 C118_2 1_555 1_555
H122_2 C118_2 1_555 1_555
C119_2 C112_2 1_555 1_555
H124_2 C119_2 1_555 1_555
H125_2 C119_2 1_555 1_555
Ag6_2 N8 1_555 1_555
C109_2 C110_3 1_555 1_555
Ag1_2 N1_2 1_555 1_555
B2_2 C54_2 1_555 1_555
B3_3 C99_3 1_555 1_555
N1_2 C1_2 1_555 1_555
C1_2 H1_2 1_555 1_555
C2_2 C1_2 1_555 1_555
H2_2 C2_2 1_555 1_555
C3_2 C2_2 1_555 1_555
C4_2 C3_2 1_555 1_555
C5_2 N1_2 1_555 1_555
H4_2 C5_2 1_555 1_555
H16_2 C15_2 1_555 1_555
N4_2 Ag1_2 1_555 1_555
C46_2 N4_2 1_555 1_555
H49_2 C46_2 1_555 1_555
C47_2 C46_2 1_555 1_555
H50_2 C47_2 1_555 1_555
C48_2 C47_2 1_555 1_555
C49_2 C48_2 1_555 1_555
H51_2 C49_2 1_555 1_555
C50_2 N4_2 1_555 1_555
H52_2 C50_2 1_555 1_555
C51_2 C48_2 1_555 1_555
C52_2 C51_2 1_555 1_555
C53_2 C52_2 1_555 1_555
C54_2 C53_2 1_555 1_555
C55_2 C54_2 1_555 1_555
C56_2 C51_2 1_555 1_555
C57_2 C56_2 1_555 1_555
H53_2 C57_2 1_555 1_555
H54_2 C57_2 1_555 1_555
H55_2 C57_2 1_555 1_555
C58_2 C55_2 1_555 1_555
H56_2 C58_2 1_555 1_555
H57_2 C58_2 1_555 1_555
H58_2 C58_2 1_555 1_555
C59_2 C53_2 1_555 1_555
H59_2 C59_2 1_555 1_555
H60_2 C59_2 1_555 1_555
H61_2 C59_2 1_555 1_555
C60_2 C52_2 1_555 1_555
H62_2 C60_2 1_555 1_555
H63_2 C60_2 1_555 1_555
H64_2 C60_2 1_555 1_555
H67_2 C64_2 1_555 1_555
C67_2 C66_2 1_555 1_555
C68_2 C67_2 1_555 1_555
C69_2 B2_2 1_555 1_555
C70_2 C69_2 1_555 1_555
C71_2 C66_2 1_555 1_555
C72_2 C71_2 1_555 1_555
H69_2 C72_2 1_555 1_555
H70_2 C72_2 1_555 1_555
H71_2 C72_2 1_555 1_555
C73_2 C70_2 1_555 1_555
H72_2 C73_2 1_555 1_555
H73_2 C73_2 1_555 1_555
H74_2 C73_2 1_555 1_555
C74_2 C68_2 1_555 1_555
H75_2 C74_2 1_555 1_555
H76_2 C74_2 1_555 1_555
H77_2 C74_2 1_555 1_555
C84_2 B2_2 1_555 1_555
C85_2 C84_2 1_555 1_555
C87_2 C86_2 1_555 1_555
H85_2 C87_2 1_555 1_555
H87_2 C87_2 1_555 1_555
C88_2 C85_2 1_555 1_555
H88_2 C88_2 1_555 1_555
H89_2 C88_2 1_555 1_555
H90_2 C88_2 1_555 1_555
C89_2 C83_2 1_555 1_555
H92_2 C89_2 1_555 1_555
H93_2 C89_2 1_555 1_555
C97_3 C96_3 1_555 1_555
C98_3 C97_3 1_555 1_555
C99_3 C98_3 1_555 1_555
C100_3 C99_3 1_555 1_555
C103_3 C100_3 1_555 1_555
H104_3 C103_3 1_555 1_555
H106_3 C103_3 1_555 1_555
C104_3 C98_3 1_555 1_555
H107_3 C104_3 1_555 1_555
H108_3 C104_3 1_555 1_555
H109_3 C104_3 1_555 1_555
C105_3 C97_3 1_555 1_555
H110_3 C105_3 1_555 1_555
H111_3 C105_3 1_555 1_555
H112_3 C105_3 1_555 1_555
C114_3 B3_3 1_555 1_555
C115_3 C114_3 1_555 1_555
C117_3 C115_3 1_555 1_555
H118_3 C117_3 1_555 1_555
H119_3 C117_3 1_555 1_555
C120_3 C113_3 1_555 1_555
H126_3 C120_3 1_555 1_555
H127_3 C120_3 1_555 1_555
H128_3 C120_3 1_555 1_555
N9 C121_3 1_555 1_555
C121_3 H129_3 1_555 1_555
C122_3 C121_3 1_555 1_555
H130_3 C122_3 1_555 1_555
C123_3 C122_3 1_555 1_555
C124_3 C123_3 1_555 1_555
H131_3 C124_3 1_555 1_555
C125_3 N9 1_555 1_555
H132_3 C125_3 1_555 1_555
C126_3 C123_3 1_555 1_555
C127_3 C126_3 1_555 1_555
C128_3 C127_3 1_555 1_555
C129_3 B3_3 1_555 1_555
C130_3 C129_3 1_555 1_555
C131_3 C126_3 1_555 1_555
C132_3 C131_3 1_555 1_555
H133_2 C132_3 1_555 1_555
H134_2 C132_3 1_555 1_555
H135_3 C132_3 1_555 1_555
C133_3 C130_3 1_555 1_555
H136_3 C133_3 1_555 1_555
H137_3 C133_3 1_555 1_555
H138_3 C133_3 1_555 1_555
C134_3 C128_3 1_555 1_555
H139_3 C134_3 1_555 1_555
H140_3 C134_3 1_555 1_555
H141_3 C134_3 1_555 1_555
C135_3 C127_3 1_555 1_555
H142_3 C135_3 1_555 1_555
H143_3 C135_3 1_555 1_555
H144_3 C135_3 1_555 1_555
Ag7 N9 1_555 1_555
N11_2 Ag1_2 1_555 1_555
C4_2 C5_2 1_555 1_555
C49_2 C50_2 1_555 1_555
C55_2 C56_2 1_555 1_555
C68_2 C69_2 1_555 1_555
C70_2 C71_2 1_555 1_555
C83_2 C84_2 1_555 1_555
C85_2 C86_2 1_555 1_555
C113_3 C114_3 1_555 1_555
C124_3 C125_3 1_555 1_555
C128_3 C129_3 1_555 1_555
C130_3 C131_3 1_555 1_555
N6 C76_2 1_555 1_555
C76_2 H81_2 1_555 1_555
C77_2 C76_2 1_555 1_555
H82_2 C77_2 1_555 1_555
C78_2 C77_2 1_555 1_555
C79 C78_2 1_555 1_555
H83 C79 1_555 1_555
C80_2 N6 1_555 1_555
H84_2 C80_2 1_555 1_555
C81 C78_2 1_555 1_555
C82 C81 1_555 1_555
C90 C82 1_555 1_555
H94 C90 1_555 1_555
H95 C90 1_555 1_555
H96 C90 1_555 1_555
Ag4 N6 1_555 1_555
C79 C80_2 1_555 1_555
Ag7 N2_3 1_555 1_555
N2_3 C16_3 1_555 1_555
C16_3 H17_3 1_555 1_555
C17_3 C16_3 1_555 1_555
H18_3 C17_3 1_555 1_555
C18_3 C17_3 1_555 1_555
C19_3 C18_3 1_555 1_555
H19_3 C19_3 1_555 1_555
C20_3 N2_3 1_555 1_555
H20_3 C20_3 1_555 1_555
C21_3 C18_3 1_555 1_555
C26_3 C21_3 1_555 1_555
C27_3 C26_3 1_555 1_555
H21_3 C27_3 1_555 1_555
H22_3 C27_3 1_555 1_555
H23_3 C27_3 1_555 1_555
H24_3 C28_3 1_555 1_555
S1_2 O1_2 1_555 1_555
O2_2 S1_2 1_555 1_555
O3_3 Ag7 1_555 1_555
C136_2 S1_2 1_555 1_555
F1_2 C136_2 1_555 1_555
F2_2 C136_2 1_555 1_555
F3_2 C136_2 1_555 1_555
N12_2 Ag7 1_555 1_555
C19_3 C20_3 1_555 1_555
S1_2 O3_3 1_555 1_555
B3_4 C99_4 1_555 1_555
C97_4 C96_4 1_555 1_555
C98_4 C97_4 1_555 1_555
C99_4 C98_4 1_555 1_555
C100_4 C99_4 1_555 1_555
C103_4 C100_4 1_555 1_555
H104_4 C103_4 1_555 1_555
H106_4 C103_4 1_555 1_555
C104_4 C98_4 1_555 1_555
H107_4 C104_4 1_555 1_555
H108_4 C104_4 1_555 1_555
H109_4 C104_4 1_555 1_555
C105_4 C97_4 1_555 1_555
H110_4 C105_4 1_555 1_555
H111_4 C105_4 1_555 1_555
H112_4 C105_4 1_555 1_555
N12_2 C106_3 1_555 1_555
C106_3 H113_3 1_555 1_555
C107_3 C106_3 1_555 1_555
H114_3 C107_3 1_555 1_555
C108_3 C107_3 1_555 1_555
C109_3 C108_3 1_555 1_555
H115_3 C109_3 1_555 1_555
C110_4 N12_2 1_555 1_555
H116_4 C110_4 1_555 1_555
C111_3 C108_3 1_555 1_555
C112_3 C111_3 1_555 1_555
C113_4 C112_3 1_555 1_555
C114_4 B3_4 1_555 1_555
C115_4 C114_4 1_555 1_555
C116_3 C111_3 1_555 1_555
C117_4 C115_4 1_555 1_555
H117_3 C117_4 1_555 1_555
H118_4 C117_4 1_555 1_555
H119_4 C117_4 1_555 1_555
C118_3 C116_3 1_555 1_555
H120_3 C118_3 1_555 1_555
H121_3 C118_3 1_555 1_555
H122_3 C118_3 1_555 1_555
C119_3 C112_3 1_555 1_555
H123_4 C119_3 1_555 1_555
H124_3 C119_3 1_555 1_555
H125_3 C119_3 1_555 1_555
C120_4 C113_4 1_555 1_555
H126_4 C120_4 1_555 1_555
H127_4 C120_4 1_555 1_555
H128_4 C120_4 1_555 1_555
N9_2 C121_4 1_555 1_555
C121_4 H129_4 1_555 1_555
C122_4 C121_4 1_555 1_555
H130_4 C122_4 1_555 1_555
C123_4 C122_4 1_555 1_555
C124_4 C123_4 1_555 1_555
H131_4 C124_4 1_555 1_555
C125_4 N9_2 1_555 1_555
H132_4 C125_4 1_555 1_555
C126_4 C123_4 1_555 1_555
C127_4 C126_4 1_555 1_555
C128_4 C127_4 1_555 1_555
C129_4 B3_4 1_555 1_555
C130_4 C129_4 1_555 1_555
C131_4 C126_4 1_555 1_555
C132_4 C131_4 1_555 1_555
H133_3 C132_4 1_555 1_555
H134_3 C132_4 1_555 1_555
H135_4 C132_4 1_555 1_555
C133_4 C130_4 1_555 1_555
H136_4 C133_4 1_555 1_555
H137_4 C133_4 1_555 1_555
H138_4 C133_4 1_555 1_555
C134_4 C128_4 1_555 1_555
H139_4 C134_4 1_555 1_555
H140_4 C134_4 1_555 1_555
H141_4 C134_4 1_555 1_555
C135_4 C127_4 1_555 1_555
H142_4 C135_4 1_555 1_555
H143_4 C135_4 1_555 1_555
H144_4 C135_4 1_555 1_555
Ag6_2 N9_2 1_555 1_555
C109_3 C110_4 1_555 1_555
C113_4 C114_4 1_555 1_555
C115_4 C116_3 1_555 1_555
C124_4 C125_4 1_555 1_555
C128_4 C129_4 1_555 1_555
C130_4 C131_4 1_555 1_555
Ag4 N1_3 1_555 1_555
B2_3 C54_3 1_555 1_555
N1_3 C1_3 1_555 1_555
C1_3 H1_3 1_555 1_555
C2_3 C1_3 1_555 1_555
H2_3 C2_3 1_555 1_555
C3_3 C2_3 1_555 1_555
C4_3 C3_3 1_555 1_555
C5_3 N1_3 1_555 1_555
H4_3 C5_3 1_555 1_555
H14_2 C15_3 1_555 1_555
H15_2 C15_3 1_555 1_555
H16_3 C15_3 1_555 1_555
N4_3 Ag4 1_555 1_555
C46_3 N4_3 1_555 1_555
H49_3 C46_3 1_555 1_555
C47_3 C46_3 1_555 1_555
H50_3 C47_3 1_555 1_555
C48_3 C47_3 1_555 1_555
C49_3 C48_3 1_555 1_555
H51_3 C49_3 1_555 1_555
C50_3 N4_3 1_555 1_555
H52_3 C50_3 1_555 1_555
C51_3 C48_3 1_555 1_555
C52_3 C51_3 1_555 1_555
C53_3 C52_3 1_555 1_555
C54_3 C53_3 1_555 1_555
C55_3 C54_3 1_555 1_555
C56_3 C51_3 1_555 1_555
C57_3 C56_3 1_555 1_555
H53_3 C57_3 1_555 1_555
H54_3 C57_3 1_555 1_555
H55_3 C57_3 1_555 1_555
C58_3 C55_3 1_555 1_555
H56_3 C58_3 1_555 1_555
H57_3 C58_3 1_555 1_555
H58_3 C58_3 1_555 1_555
C59_3 C53_3 1_555 1_555
H59_3 C59_3 1_555 1_555
H60_3 C59_3 1_555 1_555
H61_3 C59_3 1_555 1_555
C60_3 C52_3 1_555 1_555
H62_3 C60_3 1_555 1_555
H63_3 C60_3 1_555 1_555
H64_3 C60_3 1_555 1_555
H67_3 C64_3 1_555 1_555
C67_3 C66_3 1_555 1_555
C68_3 C67_3 1_555 1_555
C69_3 B2_3 1_555 1_555
C70_3 C69_3 1_555 1_555
C71_3 C66_3 1_555 1_555
C72_3 C71_3 1_555 1_555
H69_3 C72_3 1_555 1_555
H70_3 C72_3 1_555 1_555
H71_3 C72_3 1_555 1_555
C73_3 C70_3 1_555 1_555
H72_3 C73_3 1_555 1_555
H73_3 C73_3 1_555 1_555
H74_3 C73_3 1_555 1_555
C74_3 C68_3 1_555 1_555
H75_3 C74_3 1_555 1_555
H76_3 C74_3 1_555 1_555
H77_3 C74_3 1_555 1_555
N11_2 C76_3 1_555 1_555
C76_3 H81_3 1_555 1_555
C77_3 C76_3 1_555 1_555
H82_3 C77_3 1_555 1_555
C78_3 C77_3 1_555 1_555
C79_2 C78_3 1_555 1_555
H83_2 C79_2 1_555 1_555
C80_3 N11_2 1_555 1_555
H84_3 C80_3 1_555 1_555
C81_2 C78_3 1_555 1_555
C82_2 C81_2 1_555 1_555
C83_3 C82_2 1_555 1_555
C84_3 B2_3 1_555 1_555
C85_3 C84_3 1_555 1_555
C86_3 C81_2 1_555 1_555
C87_3 C86_3 1_555 1_555
H85_3 C87_3 1_555 1_555
H86_3 C87_3 1_555 1_555
H87_3 C87_3 1_555 1_555
C88_3 C85_3 1_555 1_555
H88_3 C88_3 1_555 1_555
H89_3 C88_3 1_555 1_555
H90_3 C88_3 1_555 1_555
C89_3 C83_3 1_555 1_555
H91_2 C89_3 1_555 1_555
H92_3 C89_3 1_555 1_555
H93_3 C89_3 1_555 1_555
C90_2 C82_2 1_555 1_555
H94_2 C90_2 1_555 1_555
H95_2 C90_2 1_555 1_555
H96_2 C90_2 1_555 1_555
C4_3 C5_3 1_555 1_555
C49_3 C50_3 1_555 1_555
C55_3 C56_3 1_555 1_555
C68_3 C69_3 1_555 1_555
C70_3 C71_3 1_555 1_555
C79_2 C80_3 1_555 1_555
C83_3 C84_3 1_555 1_555
C85_3 C86_3 1_555 1_555
Ag6_2 N2_4 1_555 1_555
N2_4 C16_4 1_555 1_555
C16_4 H17_4 1_555 1_555
C17_4 C16_4 1_555 1_555
H18_4 C17_4 1_555 1_555
C18_4 C17_4 1_555 1_555
C19_4 C18_4 1_555 1_555
H19_4 C19_4 1_555 1_555
C20_4 N2_4 1_555 1_555
H20_4 C20_4 1_555 1_555
C21_4 C18_4 1_555 1_555
C26_4 C21_4 1_555 1_555
C27_4 C26_4 1_555 1_555
H22_4 C27_4 1_555 1_555
H23_4 C27_4 1_555 1_555
S1_3 O1_3 1_555 1_555
O2_3 S1_3 1_555 1_555
O3_4 Ag6_2 1_555 1_555
C136_3 S1_3 1_555 1_555
F1_3 C136_3 1_555 1_555
F2_3 C136_3 1_555 1_555
F3_3 C136_3 1_555 1_555
C19_4 C20_4 1_555 1_555
S1_3 O3_4 1_555 1_555
N6_2 C76_4 1_555 1_555
C76_4 H81_4 1_555 1_555
C77_4 C76_4 1_555 1_555
H82_4 C77_4 1_555 1_555
C78_4 C77_4 1_555 1_555
C80_4 N6_2 1_555 1_555
H84_4 C80_4 1_555 1_555
Ag4_2 N6_2 1_555 1_555
Ag2_2 N3_4 1_555 1_555
N3_4 C31_4 1_555 1_555
C31_4 H33_4 1_555 1_555
C32_4 C31_4 1_555 1_555
H34_4 C32_4 1_555 1_555
C33_4 C32_4 1_555 1_555
C34_4 C33_4 1_555 1_555
H35_4 C34_4 1_555 1_555
C35_4 N3_4 1_555 1_555
H36_4 C35_4 1_555 1_555
C36_4 C33_4 1_555 1_555
C37_4 C36_4 1_555 1_555
C41_4 C36_4 1_555 1_555
C42_4 C41_4 1_555 1_555
H37_4 C42_4 1_555 1_555
H38_4 C42_4 1_555 1_555
H39_4 C42_4 1_555 1_555
C45_4 C37_4 1_555 1_555
H46_4 C45_4 1_555 1_555
H47_4 C45_4 1_555 1_555
H48_4 C45_4 1_555 1_555
N7_4 Ag2_2 1_555 1_555
C91_4 N7_4 1_555 1_555
H97_4 C91_4 1_555 1_555
C92_4 C91_4 1_555 1_555
H98_4 C92_4 1_555 1_555
C93_4 C92_4 1_555 1_555
C94_4 C93_4 1_555 1_555
C95_4 N7_4 1_555 1_555
H100_4 C95_4 1_555 1_555
C102_4 C101_4 1_555 1_555
H101_4 C102_4 1_555 1_555
H102_4 C102_4 1_555 1_555
H103_4 C102_4 1_555 1_555
N10_2 Ag2_2 1_555 1_555
C34_4 C35_4 1_555 1_555
C94_4 C95_4 1_555 1_555
Ag4_2 N1_4 1_555 1_555
B2_4 C54_4 1_555 1_555
N1_4 C1_4 1_555 1_555
C1_4 H1_4 1_555 1_555
C2_4 C1_4 1_555 1_555
H2_4 C2_4 1_555 1_555
C3_4 C2_4 1_555 1_555
C4_4 C3_4 1_555 1_555
H3_4 C4_4 1_555 1_555
C5_4 N1_4 1_555 1_555
H4_4 C5_4 1_555 1_555
C6_4 C3_4 1_555 1_555
C7_4 C6_4 1_555 1_555
C8_4 C7_4 1_555 1_555
C9_4 C8_4 1_555 1_555
C10_4 C9_4 1_555 1_555
C11_4 C6_4 1_555 1_555
C12_4 C11_4 1_555 1_555
H5_4 C12_4 1_555 1_555
H6_4 C12_4 1_555 1_555
H7_4 C12_4 1_555 1_555
C13_4 C10_4 1_555 1_555
H8_4 C13_4 1_555 1_555
H9_4 C13_4 1_555 1_555
H10_4 C13_4 1_555 1_555
C15_4 C7_4 1_555 1_555
H16_4 C15_4 1_555 1_555
C43_4 C40_4 1_555 1_555
H40_4 C43_4 1_555 1_555
H41_4 C43_4 1_555 1_555
H42_4 C43_4 1_555 1_555
N4_4 Ag4_2 1_555 1_555
C46_4 N4_4 1_555 1_555
H49_4 C46_4 1_555 1_555
C47_4 C46_4 1_555 1_555
H50_4 C47_4 1_555 1_555
C48_4 C47_4 1_555 1_555
C49_4 C48_4 1_555 1_555
H51_4 C49_4 1_555 1_555
C50_4 N4_4 1_555 1_555
H52_4 C50_4 1_555 1_555
C51_4 C48_4 1_555 1_555
C52_4 C51_4 1_555 1_555
C53_4 C52_4 1_555 1_555
C54_4 C53_4 1_555 1_555
C55_4 C54_4 1_555 1_555
C56_4 C51_4 1_555 1_555
C57_4 C56_4 1_555 1_555
H53_4 C57_4 1_555 1_555
H54_4 C57_4 1_555 1_555
H55_4 C57_4 1_555 1_555
C58_4 C55_4 1_555 1_555
H56_4 C58_4 1_555 1_555
H57_4 C58_4 1_555 1_555
H58_4 C58_4 1_555 1_555
C59_4 C53_4 1_555 1_555
H59_4 C59_4 1_555 1_555
C60_4 C52_4 1_555 1_555
H62_4 C60_4 1_555 1_555
N10_2 C61_4 1_555 1_555
C61_4 H65_4 1_555 1_555
C62_4 C61_4 1_555 1_555
H66_4 C62_4 1_555 1_555
C63_4 C62_4 1_555 1_555
C64_4 C63_4 1_555 1_555
H67_4 C64_4 1_555 1_555
C65_4 N10_2 1_555 1_555
H68_4 C65_4 1_555 1_555
C66_4 C63_4 1_555 1_555
C67_4 C66_4 1_555 1_555
C68_4 C67_4 1_555 1_555
C69_4 B2_4 1_555 1_555
C70_4 C69_4 1_555 1_555
C71_4 C66_4 1_555 1_555
C72_4 C71_4 1_555 1_555
H69_4 C72_4 1_555 1_555
H70_4 C72_4 1_555 1_555
H71_4 C72_4 1_555 1_555
C73_4 C70_4 1_555 1_555
H72_4 C73_4 1_555 1_555
H73_4 C73_4 1_555 1_555
H74_4 C73_4 1_555 1_555
C74_4 C68_4 1_555 1_555
H75_4 C74_4 1_555 1_555
H76_4 C74_4 1_555 1_555
H77_4 C74_4 1_555 1_555
C75_4 C67_4 1_555 1_555
H78_4 C75_4 1_555 1_555
H79_4 C75_4 1_555 1_555
H80_4 C75_4 1_555 1_555
H83_3 C79_3 1_555 1_555
C82_3 C81_3 1_555 1_555
C83_4 C82_3 1_555 1_555
C84_4 B2_4 1_555 1_555
C85_4 C84_4 1_555 1_555
C86_4 C81_3 1_555 1_555
C88_4 C85_4 1_555 1_555
H88_4 C88_4 1_555 1_555
H89_4 C88_4 1_555 1_555
H90_4 C88_4 1_555 1_555
C89_4 C83_4 1_555 1_555
H91_3 C89_4 1_555 1_555
H92_4 C89_4 1_555 1_555
H93_4 C89_4 1_555 1_555
C90_3 C82_3 1_555 1_555
H94_3 C90_3 1_555 1_555
H95_3 C90_3 1_555 1_555
H96_3 C90_3 1_555 1_555
C4_4 C5_4 1_555 1_555
C10_4 C11_4 1_555 1_555
C49_4 C50_4 1_555 1_555
C55_4 C56_4 1_555 1_555
C64_4 C65_4 1_555 1_555
C68_4 C69_4 1_555 1_555
C70_4 C71_4 1_555 1_555
C83_4 C84_4 1_555 1_555
C85_4 C86_4 1_555 1_555
H85_4 C87_4 1_555 1_555
H83_4 C79_4 1_555 1_555
C82_4 C81_4 1_555 1_555
C90_4 C82_4 1_555 1_555
H94_4 C90_4 1_555 1_555
H95_4 C90_4 1_555 1_555
H96_4 C90_4 1_555 1_555
N8_2 C106_4 1_555 1_555
C106_4 H113_4 1_555 1_555
C107_4 C106_4 1_555 1_555
H114_4 C107_4 1_555 1_555
C108_4 C107_4 1_555 1_555
C109_4 C108_4 1_555 1_555
H115_4 C109_4 1_555 1_555
C111_4 C108_4 1_555 1_555
C112_4 C111_4 1_555 1_555
C116_4 C111_4 1_555 1_555
C118_4 C116_4 1_555 1_555
H120_4 C118_4 1_555 1_555
H121_4 C118_4 1_555 1_555
H122_4 C118_4 1_555 1_555
C119_4 C112_4 1_555 1_555
H124_4 C119_4 1_555 1_555
H125_4 C119_4 1_555 1_555
S1_4 O1_4 1_555 1_555
O2_4 S1_4 1_555 1_555
C136_4 S1_4 1_555 1_555
F1_4 C136_4 1_555 1_555
F2_4 C136_4 1_555 1_555
F3_4 C136_4 1_555 1_555
H24_4 C28_4 1_555 1_555
H11_4 C14_4 1_555 1_555
H12_4 C14_4 1_555 1_555
H13_4 C14_4 1_555 1_555
C23_4 C22_4 1_555 1_555
C24_4 B1_4 1_555 1_555
C25_4 C24_4 1_555 1_555
C29_4 C23_4 1_555 1_555
H27_4 C29_4 1_555 1_555
H28_4 C29_4 1_555 1_555
H29_4 C29_4 1_555 1_555
C30_4 C22_4 1_555 1_555
H30_4 C30_4 1_555 1_555
C39_4 B1_4 1_555 1_555
C44_4 C38_4 1_555 1_555
H43_4 C44_4 1_555 1_555
H44_4 C44_4 1_555 1_555
H45_4 C44_4 1_555 1_555
C23_4 C24_4 1_555 1_555
C38_4 C39_4 1_555 1_555
S2 O4 1_555 1_555
O5 S2 1_555 1_555
C137 S2 1_555 1_555
F4 C137 1_555 1_555
F5 C137 1_555 1_555
F6 C137 1_555 1_555
S2_2 O4_2 1_555 1_555
O5_2 S2_2 1_555 1_555
O6_2 S2_2 1_555 1_555
C137_2 S2_2 1_555 1_555
F4_2 C137_2 1_555 1_555
F5_2 C137_2 1_555 1_555
F6_2 C137_2 1_555 1_555
S2_3 O4_3 1_555 1_555
O5_3 S2_3 1_555 1_555
C137_3 S2_3 1_555 1_555
F4_3 C137_3 1_555 1_555
F5_3 C137_3 1_555 1_555
F6_3 C137_3 1_555 1_555
S2_4 O4_4 1_555 1_555
O5_4 S2_4 1_555 1_555
O6_4 S2_4 1_555 1_555
C137_4 S2_4 1_555 1_555
F4_4 C137_4 1_555 1_555
F5_4 C137_4 1_555 1_555
F6_4 C137_4 1_555 1_555
S3 O7 1_555 1_555
O8 S3 1_555 1_555
O9 S3 1_555 1_555
C138 S3 1_555 1_555
F7 C138 1_555 1_555
F8 C138 1_555 1_555
F9 C138 1_555 1_555
S3_2 O7_2 1_555 1_555
O8_2 S3_2 1_555 1_555
O9_2 S3_2 1_555 1_555
C138_2 S3_2 1_555 1_555
F7_2 C138_2 1_555 1_555
F8_2 C138_2 1_555 1_555
F9_2 C138_2 1_555 1_555
S3_3 O7_3 1_555 1_555
O8_3 S3_3 1_555 1_555
O9_3 S3_3 1_555 1_555
C138_3 S3_3 1_555 1_555
F7_3 C138_3 1_555 1_555
F8_3 C138_3 1_555 1_555
F9_3 C138_3 1_555 1_555
S3_4 O7_4 1_555 1_555
O8_4 S3_4 1_555 1_555
O9_4 S3_4 1_555 1_555
C138_4 S3_4 1_555 1_555
F7_4 C138_4 1_555 1_555
F8_4 C138_4 1_555 1_555
F9_4 C138_4 1_555 1_555

#END
