
###############################################################################
#
# This file contains modified crystal structure data generated from the
# MOF subset of the Cambridge Structural Database (CSD) v543 
# hosted by the Cambridge Crystallographic Data Centre (CCDC).
#
# This work is licensed under the Creative Commons
# Attribution-NonCommercial-ShareAlike 4.0 International License.
# To view a copy of this license, visit
# http://creativecommons.org/licenses/by-nc-sa/4.0/
# or send a letter to
# Creative Commons, PO Box 1866, Mountain View, CA 94042, USA.
#
# CIF created using the CSD Python API on 29 September 2022
# The structure has been converted into the P1 space group
# The structure has a 3D framework
# The original CSD entry CUTGAA is in the rhombohedral crystal system
# The original CSD entry CUTGAA is in a Sohncke space group
# The framework has been calculated to contain at least 10.0% void space
# The void calculation uses a probe of radius 1.32A, grid spacing 0.4
# The framework is charged, counterions have been retained in the structure
#
###############################################################################

data_CUTGAA
_chemical_formula_moiety         '(C567 H576 Ag14 B22 Cl24 N45 O60 4-)n'
_symmetry_cell_setting           triclinic
_symmetry_space_group_name_H-M   'P 1'
_symmetry_Int_Tables_number      1
_space_group_name_Hall           'P 1'
loop_
_symmetry_equiv_pos_site_id
_symmetry_equiv_pos_as_xyz
1 x,y,z
_cell_length_a                   18.2533(14)
_cell_length_b                   18.2533(14)
_cell_length_c                   47.517(7)
_cell_angle_alpha                90
_cell_angle_beta                 90
_cell_angle_gamma                120
_cell_volume                     13710.8
loop_
_atom_site_label
_atom_site_type_symbol
_atom_site_fract_x
_atom_site_fract_y
_atom_site_fract_z
Ag8 Ag 0.26759(4) 0.33334(6) 0.8334
C146 C 0.0701(4) 0.2613(6) 0.83899(18)
C147 C 0.1421(4) 0.4054(6) 0.82768(18)
H154 H 0.0709 0.2115 0.8424
H155 H 0.1927 0.4552 0.8243
C152 C 0.0675(4) 0.4069(6) 0.82686(17)
H159 H 0.0678 0.4565 0.8221
H180 H 0.0009 0.4067 0.8759
N14 N 0.1442(4) 0.3334(6) 0.8334
Ag2 Ag 1.0000 0.0000 1.0000
B3 B 0.3993(5) 0.0000(7) 1.0000
N5 N 0.2863(2) 0.25354(28) 0.86610(7)
C35 C 0.3546(2) 0.2402(3) 0.86351(7)
H34 H 0.3887 0.2591 0.8476
C40 C 0.3721(2) 0.19887(26) 0.88474(8)
H39 H 0.4178 0.1900 0.8830
C45 C 0.3212(2) 0.1707(3) 0.90858(7)
C50 C 0.2528(2) 0.1839(3) 0.91117(7)
H44 H 0.2188 0.1651 0.9271
C55 C 0.2354(2) 0.22538(28) 0.88993(9)
H49 H 0.1897 0.2343 0.8917
H64 H 0.1739 0.0138 0.9187
C65 C 0.3436(2) 0.1270(3) 0.93189(7)
C70 C 0.4163(2) 0.1720(3) 0.94800(8)
C75 C 0.43419(18) 0.13169(27) 0.96951(7)
C80 C 0.3794(2) 0.0464(3) 0.97492(7)
C85 C 0.3067(2) 0.0014(3) 0.95881(8)
C90 C 0.28878(19) 0.04168(28) 0.93729(7)
C100 C 0.5151(4) 0.1849(6) 0.98601(15)
H89 H 0.5130 0.2312 0.9948
H94 H 0.5627 0.2065 0.9735
C105 C 0.4720(4) 0.2688(6) 0.94345(14)
H99 H 0.4506 0.2856 0.9278
H104 H 0.5292 0.2827 0.9397
H109 H 0.4706 0.2979 0.9601
C110 C 0.8707(4) 0.0644(6) 0.98898(17)
H114 H 0.9181 0.1092 0.9807
C115 C 0.7971(4) 0.0669(6) 0.98939(16)
H119 H 0.7968 0.1144 0.9824
C119 C 0.7230(4) 0.0000(6) 1.0000
C121 C 0.6419(4) 0.0000(6) 1.0000
C133 C 0.4882(4) 0.0000(6) 1.0000
N12 N 0.8784(4) 0.0000(6) 1.0000
N9 N 0.36609(19) 0.41313(28) 0.80057(7)
Ag5 Ag 0.60093(4) 1.00000(6) 0.5000
N10 N 0.6196(2) 0.92021(28) 0.53277(7)
N16 N 0.4776(4) 1.0000(6) 0.5000
B2 B -0.0000 1.0000 0.5000
C149 C 0.4034(4) 0.9280(6) 0.50566(18)
H157 H 0.4042 0.8782 0.5091
C154 C 0.3273(4) 0.9265(6) 0.50648(17)
H161 H 0.2780 0.8769 0.5113
C156 C 0.3244(4) 1.0000(6) 0.5000
C158 C 0.2421(4) 0.9999(6) 0.5000
C162 C 0.1845(3) 0.9594(4) 0.47843(10)
C167 C 0.1065(3) 0.9578(4) 0.47846(10)
C170 C 0.0883(3) 1.0000(4) 0.5000
C175 C 0.0476(4) 0.9149(6) 0.45439(12)
H167 H 0.0711 0.8899 0.4422
H172 H 0.0400 0.9558 0.4440
H173 H 0.0060 0.8779 0.5386
C180 C 0.2061(4) 0.9203(6) 0.45437(15)
H182 H 0.2609 0.9266 0.4574
H187 H 0.2065 0.9480 0.4371
H192 H 0.1646 0.8613 0.4531
B3_2 B 0.7326(5) 0.6667(7) 0.6667
C35_2 C 0.6879(2) 0.9069(3) 0.53018(7)
C36 C 0.4477(2) 0.4265(3) 0.80316(7)
H34_2 H 0.7220 0.9258 0.5143
H35 H 0.4629 0.4076 0.8191
C40_2 C 0.7054(2) 0.86554(26) 0.55141(8)
C41 C 0.50656(16) 0.46780(26) 0.78193(8)
H39_2 H 0.7511 0.8567 0.5497
H40 H 0.5611 0.4767 0.7837
C45_2 C 0.6545(2) 0.8374(3) 0.57525(7)
C46 C 0.4838(2) 0.4960(3) 0.75809(7)
C50_2 C 0.5861(2) 0.8506(3) 0.57784(7)
C51 C 0.4022(2) 0.4828(3) 0.75550(7)
H44_2 H 0.5521 0.8318 0.5938
H45 H 0.3870 0.5016 0.7396
C55_2 C 0.5687(2) 0.89205(28) 0.55660(9)
C56 C 0.34335(19) 0.44129(28) 0.77674(9)
H49_2 H 0.5230 0.9010 0.5584
H50 H 0.2887 0.4324 0.7750
C60 C 0.5431(5) 0.6560(7) 0.58476(17)
C61 C 0.5538(5) 0.6774(7) 0.74858(17)
H54 H 0.5123 0.5987 0.5914
H55 H 0.5803 0.7347 0.7420
H59 H 0.5613 0.6568 0.5658
H60 H 0.5712 0.6766 0.7676
H64_2 H 0.5072 0.6805 0.5854
H65 H 0.4934 0.6529 0.7480
C65_2 C 0.6769(2) 0.7937(3) 0.59856(7)
C66 C 0.5499(2) 0.5397(3) 0.73478(7)
C70_2 C 0.7496(2) 0.8387(3) 0.61467(8)
C71 C 0.5776(2) 0.4947(3) 0.71867(8)
C75_2 C 0.76752(18) 0.79836(27) 0.63618(7)
C76 C 0.6358(2) 0.53498(27) 0.69716(7)
C80_2 C 0.7127(2) 0.7131(3) 0.64159(7)
C81 C 0.6663(2) 0.6203(3) 0.69175(7)
C85_2 C 0.6400(2) 0.6681(3) 0.62548(8)
C86 C 0.6386(2) 0.6653(3) 0.70786(8)
C90_2 C 0.62211(19) 0.70835(28) 0.60396(7)
C91 C 0.5804(2) 0.62499(28) 0.72938(7)
C95 C 0.5812(4) 0.5773(6) 0.62958(17)
C96 C 0.6706(5) 0.7561(6) 0.70376(17)
H69 H 0.6002 0.5570 0.6450
H70 H 0.7099 0.7764 0.6884
H74 H 0.5790 0.5471 0.6128
H75 H 0.6986 0.7863 0.7206
H79 H 0.5257 0.5682 0.6337
H80 H 0.6242 0.7652 0.6997
C100_2 C 0.8484(4) 0.8516(6) 0.65268(15)
C101 C 0.6635(5) 0.4818(6) 0.68066(15)
H84 H 0.8540 0.8173 0.6669
H85 H 0.7034 0.5161 0.6665
H89_2 H 0.8463 0.8979 0.6615
H90 H 0.6151 0.4355 0.6719
H94_2 H 0.8960 0.8732 0.6402
H95 H 0.6895 0.4602 0.6932
C105_2 C 0.8053(4) 0.9355(6) 0.61012(14)
C106 C 0.5365(5) 0.3979(6) 0.72322(14)
H99_2 H 0.7839 0.9523 0.5945
H100 H 0.4983 0.3811 0.7389
H104_2 H 0.8625 0.9494 0.6064
H105 H 0.5798 0.3840 0.7270
H109_2 H 0.8039 0.9646 0.6268
H110 H 0.5060 0.3688 0.7066
C121_2 C 0.9752(4) 0.6667(6) 0.6667
C124 C 0.9216(4) 0.6364(6) 0.64319(12)
C125 C 0.9519(4) 0.6970(6) 0.69015(12)
C129 C 0.8460(4) 0.6376(6) 0.64261(11)
C130 C 0.8751(4) 0.6958(6) 0.69073(11)
C133_2 C 0.8215(4) 0.6667(6) 0.6667
C136 C 0.7907(5) 0.6077(7) 0.61699(14)
C137 C 0.8497(5) 0.7257(7) 0.71635(14)
H124 H 0.8172 0.5916 0.6028
H125 H 0.8923 0.7418 0.7306
H129 H 0.7827 0.6526 0.6100
H130 H 0.7968 0.6808 0.7234
H134 H 0.7369 0.5600 0.6219
H135 H 0.8436 0.7734 0.7115
C141 C 0.9490(5) 0.6027(7) 0.61824(15)
H139 H 0.9071 0.5845 0.6037
H140 H 0.9893 0.7489 0.7297
H144 H 0.9551 0.5558 0.6243
B2_2 B 0.6667 0.3333 0.8333
C26 C 0.2658(4) 0.0060(4) 0.83981(17)
H26 H 0.2655 0.0553 0.8446
C27 C 0.3423(4) 0.0090(4) 0.8333
C28 C 0.4246(4) 0.0912(4) 0.8333
C29 C 0.4822(3) 0.1083(3) 0.85490(10)
C30 C 0.5602(3) 0.1847(3) 0.85487(10)
C31 C 0.5784(3) 0.2451(3) 0.8333
C32 C 0.6191(4) 0.2007(4) 0.87894(12)
H27 H 0.5956 0.1522 0.8911
H28 H 0.6267 0.2492 0.8893
H29 H 0.6727 0.2112 0.8719
C33 C 0.4606(4) 0.0476(4) 0.87896(15)
H31 H 0.4602 0.0749 0.8962
H32 H 0.5021 0.0301 0.8802
Ag9 Ag 0.66666(6) 0.93426(4) 0.8334
C148 C 0.7387(6) 0.8088(4) 0.83899(18)
C149_2 C 0.5946(6) 0.7368(4) 0.82768(18)
H156 H 0.7885 0.8594 0.8424
H157_2 H 0.5448 0.7376 0.8243
C151 C 0.9940(4) 0.2598(6) 0.83981(17)
C153 C 0.7402(6) 0.7342(4) 0.83981(17)
C154_2 C 0.5931(6) 0.6607(4) 0.82686(17)
H160 H 0.9447 0.2102 0.8446
H161_2 H 0.5435 0.6114 0.8221
H162 H 0.7898 0.7345 0.8446
C155 C 0.9910(4) 0.3333(6) 0.8333
C156_2 C 0.6667(6) 0.6577(4) 0.8333
C157 C 0.9088(4) 0.3334(6) 0.8333
C158_2 C 0.6666(6) 0.5754(4) 0.8333
C159 C 0.4416(3) 0.1489(3) 0.81177(10)
C160 C 0.8917(3) 0.3739(4) 0.85490(10)
C161 C 0.8511(3) 0.2928(4) 0.81177(10)
C162_2 C 0.6261(4) 0.5178(3) 0.85490(10)
C163 C 0.7072(4) 0.5584(3) 0.81177(10)
C164 C 0.5180(3) 0.2269(3) 0.81180(10)
C165 C 0.8153(3) 0.3755(4) 0.85487(10)
C166 C 0.7731(3) 0.2912(4) 0.81180(10)
C167_2 C 0.6245(4) 0.4398(3) 0.85487(10)
C168 C 0.7088(4) 0.4820(3) 0.81180(10)
C169 C 0.7549(3) 0.3333(4) 0.8333
C170_2 C 0.6667(4) 0.4216(3) 0.8333
C171 C 0.5340(4) 0.2858(4) 0.78773(12)
C172 C 0.7142(4) 0.2483(6) 0.78773(12)
C173 C 0.7993(4) 0.4184(6) 0.87894(12)
C174 C 0.7517(6) 0.4660(4) 0.78773(12)
C175_2 C 0.5816(6) 0.3809(4) 0.87894(12)
H163 H 0.4855 0.2623 0.7756
H164 H 0.7377 0.2233 0.7756
H165 H 0.8478 0.4434 0.8911
H166 H 0.7767 0.5145 0.7756
H167_2 H 0.5566 0.4044 0.8911
H168 H 0.5825 0.2934 0.7774
H169 H 0.7066 0.2892 0.7774
H170 H 0.7508 0.3775 0.8893
H171 H 0.7108 0.4175 0.7774
H172_2 H 0.6225 0.3733 0.8893
H173_2 H 0.5445 0.3394 0.7948
H174 H 0.6606 0.2052 0.7948
H175 H 0.7888 0.4615 0.8719
H176 H 0.7948 0.4555 0.7948
H177 H 0.5385 0.3273 0.8719
C176 C 0.3809(4) 0.1273(4) 0.78771(15)
C177 C 0.8727(4) 0.2537(6) 0.78771(15)
C178 C 0.9524(4) 0.4130(6) 0.87896(15)
C179 C 0.7463(6) 0.6191(4) 0.78771(15)
C180_2 C 0.5870(6) 0.5394(4) 0.87896(15)
H178 H 0.3324 0.0725 0.7908
H179 H 0.9275 0.2600 0.7908
H181 H 0.7400 0.6676 0.7908
H182_2 H 0.5933 0.5942 0.8759
H183 H 0.4082 0.1269 0.7705
H184 H 0.8731 0.2814 0.7705
H185 H 0.9251 0.3853 0.8962
H186 H 0.7186 0.5918 0.7705
H187_2 H 0.6147 0.5398 0.8962
H188 H 0.3634 0.1688 0.7865
H189 H 0.8312 0.1947 0.7865
H190 H 0.9699 0.4720 0.8802
H191 H 0.8053 0.6366 0.7865
H192_2 H 0.5280 0.4979 0.8802
N15 N 0.6666(6) 0.8109(4) 0.8334
H51 H 0.7657 0.9554 0.8917
Ag5_2 Ag 0.93426(4) 0.66667(6) 0.1667
N10_2 N 0.9530(2) 0.58687(28) 0.19943(7)
H50_2 H 0.9554 0.7657 0.1083
N16_2 N 0.8109(4) 0.6667(6) 0.1667
N9_2 N 0.58687(28) 0.9530(2) 0.80057(7)
B2_3 B 0.3333 0.6667 0.1667
C26_2 C 0.0060(4) 0.2658(4) 0.16019(17)
H26_2 H 0.0553 0.2655 0.1554
C27_2 C 0.0090(4) 0.3423(4) 0.1667
C28_2 C 0.0912(4) 0.4246(4) 0.1667
C29_2 C 0.1083(3) 0.4822(3) 0.14510(10)
C30_2 C 0.1847(3) 0.5602(3) 0.14513(10)
C31_2 C 0.2451(3) 0.5784(3) 0.1667
C32_2 C 0.2007(4) 0.6191(4) 0.12106(12)
H27_2 H 0.1522 0.5956 0.1089
H28_2 H 0.2492 0.6267 0.1107
H29_2 H 0.2112 0.6727 0.1281
C33_2 C 0.0476(4) 0.4606(4) 0.12104(15)
H31_2 H 0.0749 0.4602 0.1038
H32_2 H 0.0301 0.5021 0.1198
C148_2 C 0.8088(4) 0.7387(6) 0.16101(18)
C149_3 C 0.7368(4) 0.5946(6) 0.17232(18)
H156_2 H 0.8594 0.7885 0.1576
H157_3 H 0.7376 0.5448 0.1757
C151_2 C 0.2598(6) 0.9940(4) 0.16019(17)
C153_2 C 0.7342(4) 0.7402(6) 0.16019(17)
C154_3 C 0.6607(4) 0.5931(6) 0.17314(17)
H160_2 H 0.2102 0.9447 0.1554
H161_3 H 0.6114 0.5435 0.1779
H162_2 H 0.7345 0.7898 0.1554
C155_2 C 0.3333(6) 0.9910(4) 0.1667
C156_3 C 0.6577(4) 0.6667(6) 0.1667
C157_2 C 0.3334(6) 0.9088(4) 0.1667
C158_3 C 0.5754(4) 0.6666(6) 0.1667
C159_2 C 0.1489(3) 0.4416(3) 0.18823(10)
C160_2 C 0.3739(4) 0.8917(3) 0.14510(10)
C161_2 C 0.2928(4) 0.8511(3) 0.18823(10)
C162_3 C 0.5178(3) 0.6261(4) 0.14510(10)
C163_2 C 0.5584(3) 0.7072(4) 0.18823(10)
C164_2 C 0.2269(3) 0.5180(3) 0.18820(10)
C165_2 C 0.3755(4) 0.8153(3) 0.14513(10)
C166_2 C 0.2912(4) 0.7731(3) 0.18820(10)
C167_3 C 0.4398(3) 0.6245(4) 0.14513(10)
C168_2 C 0.4820(3) 0.7088(4) 0.18820(10)
C169_2 C 0.3333(4) 0.7549(3) 0.1667
C170_3 C 0.4216(3) 0.6667(4) 0.1667
C171_2 C 0.2858(4) 0.5340(4) 0.21227(12)
C172_2 C 0.2483(6) 0.7142(4) 0.21227(12)
C173_2 C 0.4184(6) 0.7993(4) 0.12106(12)
C174_2 C 0.4660(4) 0.7517(6) 0.21227(12)
C175_3 C 0.3809(4) 0.5816(6) 0.12106(12)
H163_2 H 0.2623 0.4855 0.2244
H164_2 H 0.2233 0.7377 0.2244
H165_2 H 0.4434 0.8478 0.1089
H166_2 H 0.5145 0.7767 0.2244
H167_3 H 0.4044 0.5566 0.1089
H168_2 H 0.2934 0.5825 0.2226
H169_2 H 0.2892 0.7066 0.2226
H170_2 H 0.3775 0.7508 0.1107
H171_2 H 0.4175 0.7108 0.2226
H172_3 H 0.3733 0.6225 0.1107
H173_3 H 0.3394 0.5445 0.2052
H174_2 H 0.2052 0.6606 0.2052
H175_2 H 0.4615 0.7888 0.1281
H176_2 H 0.4555 0.7948 0.2052
H177_2 H 0.3273 0.5385 0.1281
C176_2 C 0.1273(4) 0.3809(4) 0.21229(15)
C177_2 C 0.2537(6) 0.8727(4) 0.21229(15)
C178_2 C 0.4130(6) 0.9524(4) 0.12104(15)
C179_2 C 0.6191(4) 0.7463(6) 0.21229(15)
C180_3 C 0.5394(4) 0.5870(6) 0.12104(15)
H178_2 H 0.0725 0.3324 0.2092
H179_2 H 0.2600 0.9275 0.2092
H181_2 H 0.6676 0.7400 0.2092
H182_3 H 0.5942 0.5933 0.1241
H183_2 H 0.1269 0.4082 0.2295
H184_2 H 0.2814 0.8731 0.2295
H185_2 H 0.3853 0.9251 0.1038
H186_2 H 0.5918 0.7186 0.2295
H187_3 H 0.5398 0.6147 0.1038
H188_2 H 0.1688 0.3634 0.2135
H189_2 H 0.1947 0.8312 0.2135
H190_2 H 0.4720 0.9699 0.1198
H191_2 H 0.6366 0.8053 0.2135
H192_3 H 0.4979 0.5280 0.1198
Ag7 Ag -0.00000(6) 0.60092(4) 0.5000
N11 N 0.07979(28) 0.69943(19) 0.53277(7)
N17 N -0.0000(6) 0.4775(4) 0.5000
Ag5_3 Ag 0.60093(4) 0.00000(6) 0.5000
N6 N 0.69943(19) 0.07979(28) 0.46723(7)
C36_2 C 0.7811(2) 0.0931(3) 0.46982(7)
H35_2 H 0.7963 0.0742 0.4857
C41_2 C 0.83990(16) 0.13446(26) 0.44859(8)
H40_2 H 0.8945 0.1433 0.4503
C45_3 C 0.9879(2) 0.5040(3) 0.24191(7)
C46_2 C 0.8172(2) 0.1626(3) 0.42475(7)
C50_3 C 0.9195(2) 0.5172(3) 0.24450(7)
C51_2 C 0.7356(2) 0.1494(3) 0.42216(7)
H44_3 H 0.8855 0.4984 0.2604
H45_2 H 0.7204 0.1682 0.4062
C55_3 C 0.9021(2) 0.55871(28) 0.22326(9)
C56_2 C 0.67669(19) 0.10795(28) 0.44340(9)
H49_3 H 0.8564 0.5676 0.2250
H50_3 H 0.6221 0.0990 0.4416
C60_2 C 0.8765(5) 0.3226(7) 0.25142(17)
C61_2 C 0.8872(5) 0.3440(7) 0.41524(17)
H54_2 H 0.8457 0.2653 0.2580
H55_2 H 0.9137 0.4013 0.4086
H59_2 H 0.8947 0.3234 0.2324
H60_2 H 0.9046 0.3432 0.4342
H64_3 H 0.8406 0.3471 0.2520
H65_2 H 0.8268 0.3195 0.4146
C66_2 C 0.8833(2) 0.2063(3) 0.40144(7)
C71_2 C 0.9110(2) 0.1613(3) 0.38533(8)
C76_2 C 0.9692(2) 0.20164(27) 0.36382(7)
C81_2 C 0.9997(2) 0.2869(3) 0.35841(7)
C85_3 C 0.9734(2) 0.3347(3) 0.29214(8)
C86_2 C 0.9720(2) 0.3319(3) 0.37452(8)
C90_3 C 0.95545(19) 0.37501(28) 0.27062(7)
C91_2 C 0.9138(2) 0.29165(28) 0.39604(7)
C95_2 C 0.9146(4) 0.2439(6) 0.29624(17)
H69_2 H 0.9336 0.2236 0.3116
H74_2 H 0.9124 0.2137 0.2794
H79_2 H 0.8591 0.2348 0.3003
H80_2 H 0.9576 0.4318 0.3663
C101_2 C 0.9969(5) 0.1484(6) 0.34732(15)
H90_2 H 0.9485 0.1021 0.3385
C106_2 C 0.8699(5) 0.0645(6) 0.38988(14)
H100_2 H 0.8317 0.0477 0.4055
H105_2 H 0.9132 0.0506 0.3936
H110_2 H 0.8394 0.0354 0.3732
N16_3 N 0.4776(4) 0.0000(6) 0.5000
B2_4 B -0.0000 0.0000 0.5000
C147_2 C 0.0720(6) 0.4755(4) 0.50566(18)
C148_3 C 0.4755(4) 0.0720(6) 0.49434(18)
H155_2 H 0.1218 0.5261 0.5091
H156_3 H 0.5261 0.1218 0.4909
C152_2 C 0.0735(6) 0.4009(4) 0.50648(17)
C153_3 C 0.4009(4) 0.0735(6) 0.49352(17)
H159_2 H 0.1231 0.4012 0.5113
H162_3 H 0.4012 0.1231 0.4887
C155_3 C -0.0000(6) 0.3243(4) 0.5000
C156_4 C 0.3244(4) 0.0000(6) 0.5000
C157_3 C 0.0001(6) 0.2421(4) 0.5000
C160_3 C 0.0406(4) 0.2250(3) 0.47843(10)
C163_3 C 0.2250(3) 0.0406(4) 0.52157(10)
C165_3 C 0.0422(4) 0.1486(3) 0.47846(10)
C168_3 C 0.1486(3) 0.0422(4) 0.52154(10)
C169_3 C -0.0000(4) 0.0882(3) 0.5000
C170_4 C 0.0883(3) 0.0000(4) 0.5000
C173_3 C 0.0851(6) 0.1326(4) 0.45439(12)
C174_3 C 0.1326(4) 0.0851(6) 0.54561(12)
H165_3 H 0.1101 0.1811 0.4422
H166_3 H 0.1811 0.1101 0.5578
H170_3 H 0.0442 0.0841 0.4440
H171_3 H 0.0841 0.0442 0.5560
H175_3 H 0.1282 0.1221 0.4614
H176_3 H 0.1221 0.1282 0.5386
C178_3 C 0.0797(6) 0.2857(4) 0.45437(15)
C179_3 C 0.2857(4) 0.0797(6) 0.54563(15)
H180_2 H 0.0734 0.3342 0.4574
H181_3 H 0.3342 0.0734 0.5426
H185_3 H 0.0520 0.2584 0.4371
H186_3 H 0.2584 0.0520 0.5629
H190_3 H 0.1387 0.3032 0.4531
H191_3 H 0.3032 0.1387 0.5469
C157_4 C 0.2421(4) 0.0001(6) 0.5000
C37 C 0.0931(3) 0.7811(2) 0.53018(7)
H36 H 0.0742 0.7963 0.5143
C42 C 0.13446(26) 0.83990(16) 0.55141(8)
H41 H 0.1433 0.8945 0.5497
C47 C 0.1626(3) 0.8172(2) 0.57525(7)
C48 C 0.5040(3) 0.9879(2) 0.75809(7)
C52 C 0.1494(3) 0.7356(2) 0.57784(7)
C53 C 0.5172(3) 0.9195(2) 0.75550(7)
H46 H 0.1682 0.7204 0.5938
H47 H 0.4984 0.8855 0.7396
C57 C 0.10795(28) 0.67669(19) 0.55660(9)
C58 C 0.55871(28) 0.9021(2) 0.77674(9)
H51_2 H 0.0990 0.6221 0.5584
H52 H 0.5676 0.8564 0.7750
C62 C 0.3440(7) 0.8872(5) 0.58476(17)
C63 C 0.3226(7) 0.8765(5) 0.74858(17)
H56 H 0.4013 0.9137 0.5914
H57 H 0.2653 0.8457 0.7420
H61 H 0.3432 0.9046 0.5658
H62 H 0.3234 0.8947 0.7676
H66 H 0.3195 0.8268 0.5854
H67 H 0.3471 0.8406 0.7480
C67 C 0.2063(3) 0.8833(2) 0.59856(7)
C72 C 0.1613(3) 0.9110(2) 0.61467(8)
C77 C 0.20164(27) 0.9692(2) 0.63618(7)
C82 C 0.2869(3) 0.9997(2) 0.64159(7)
C87 C 0.3319(3) 0.9720(2) 0.62548(8)
C88 C 0.3347(3) 0.9734(2) 0.70786(8)
C92 C 0.29165(28) 0.9138(2) 0.60396(7)
C93 C 0.37501(28) 0.95545(19) 0.72938(7)
C98 C 0.2439(6) 0.9146(4) 0.70376(17)
H72 H 0.2236 0.9336 0.6884
H77 H 0.2137 0.9124 0.7206
H81 H 0.4318 0.9576 0.6337
H82 H 0.2348 0.8591 0.6997
C102 C 0.1484(6) 0.9969(5) 0.65268(15)
H91 H 0.1021 0.9485 0.6615
C107 C 0.0645(6) 0.8699(5) 0.61012(14)
H101 H 0.0477 0.8317 0.5945
H106 H 0.0506 0.9132 0.6064
H111 H 0.0354 0.8394 0.6268
Ag1 Ag 0.06574(4) 0.73241(4) 0.8333
H4 H 0.0446 0.8103 0.8917
C25 C 0.1912(4) 0.9299(4) 0.83899(18)
H25 H 0.1406 0.9291 0.8424
H30 H 0.4058 0.9991 0.8759
N3 N 0.1891(4) 0.8558(4) 0.8333
N9_3 N 0.0470(2) 0.63391(19) 0.80057(7)
C145 C 0.2632(4) 0.8579(4) 0.82768(18)
H153 H 0.2624 0.8073 0.8243
C150 C 0.3393(4) 0.9325(4) 0.82686(17)
H158 H 0.3886 0.9322 0.8221
Ag3 Ag 0.73241(4) 0.06574(4) 0.1667
H48 H 0.8103 0.0446 0.1083
N11_2 N 0.63391(19) 0.04703(34) 0.19943(7)
N17_2 N 0.8558(4) 0.1891(7) 0.1667
C25_2 C 0.9299(4) 0.1912(4) 0.16101(18)
H25_2 H 0.9291 0.1406 0.1576
H30_2 H 0.9991 0.4058 0.1241
C145_2 C 0.8579(4) 0.2632(4) 0.17232(18)
H153_2 H 0.8073 0.2624 0.1757
C150_2 C 0.9325(4) 0.3393(4) 0.17314(17)
H158_2 H 0.9322 0.3886 0.1779
C3 C 0.5162(2) 0.0121(2) 0.24191(7)
C4 C 0.5978(2) 0.0805(2) 0.24450(7)
H3 H 0.6130 0.1145 0.2604
C5 C 0.65665(19) 0.0979(2) 0.22326(9)
H4_2 H 0.7113 0.1436 0.2250
C6 C 0.4462(5) 0.1235(5) 0.25142(17)
H5 H 0.4197 0.1543 0.2580
H6 H 0.4288 0.1053 0.2324
H7 H 0.5066 0.1594 0.2520
C11 C 0.3614(2) 0.0266(2) 0.29214(8)
C12 C 0.4196(2) 0.04455(19) 0.27062(7)
C13 C 0.3294(5) 0.0854(4) 0.29624(17)
H8 H 0.2901 0.0664 0.3116
H9 H 0.3014 0.0876 0.2794
H10 H 0.3758 0.1409 0.3003
Ag3_2 Ag 0.39908(4) 0.39907(4) 0.5000
N4 N 0.3804(2) 0.30057(19) 0.46723(7)
C34 C 0.3121(2) 0.2189(2) 0.46982(7)
H33 H 0.2780 0.2037 0.4857
C39 C 0.2946(2) 0.16010(16) 0.44859(8)
H38 H 0.2489 0.1055 0.4503
C44 C 0.3455(2) 0.1828(2) 0.42475(7)
C49 C 0.4139(2) 0.2644(2) 0.42216(7)
H43 H 0.4479 0.2796 0.4062
C54 C 0.4313(2) 0.32331(19) 0.44340(9)
H48_2 H 0.4770 0.3779 0.4416
C59 C 0.4569(5) 0.1128(5) 0.41524(17)
H53 H 0.4877 0.0863 0.4086
H58 H 0.4387 0.0954 0.4342
H63 H 0.4928 0.1732 0.4146
C64 C 0.3231(2) 0.1167(2) 0.40144(7)
C69 C 0.2504(2) 0.0890(2) 0.38533(8)
C74 C 0.23248(18) 0.0308(2) 0.36382(7)
C79 C 0.2873(2) 0.0003(2) 0.35841(7)
C84 C 0.3600(2) 0.0280(2) 0.37452(8)
C89 C 0.37789(19) 0.0862(2) 0.39604(7)
H78 H 0.4743 0.0424 0.3663
C99 C 0.1516(4) 0.0031(5) 0.34732(15)
H88 H 0.1537 0.0515 0.3385
C104 C 0.1947(4) 0.1301(5) 0.38988(14)
H98 H 0.2161 0.1683 0.4055
H103 H 0.1375 0.0868 0.3936
H108 H 0.1961 0.1606 0.3732
N11_3 N 0.30057(19) 0.38037(34) 0.53277(7)
N17_3 N 0.5225(4) 0.5224(7) 0.5000
B2_5 B 1.0000 1.0000 0.5000
C25_3 C 0.5966(4) 0.5245(4) 0.49434(18)
H25_3 H 0.5958 0.4739 0.4909
C26_3 C 0.6727(4) 0.5991(4) 0.49352(17)
H26_3 H 0.7220 0.5988 0.4887
C27_3 C 0.6757(4) 0.6756(4) 0.5000
C28_3 C 0.7579(4) 0.7579(4) 0.5000
C29_3 C 0.7750(3) 0.8155(3) 0.47843(10)
C30_3 C 0.8514(3) 0.8935(3) 0.47846(10)
C31_3 C 0.9118(3) 0.9117(3) 0.5000
C32_3 C 0.8674(4) 0.9524(4) 0.45439(12)
H27_3 H 0.8189 0.9289 0.4422
H28_3 H 0.9159 0.9600 0.4440
C33_3 C 0.7143(4) 0.7939(4) 0.45437(15)
H30_3 H 0.6658 0.7391 0.4574
H31_3 H 0.7416 0.7935 0.4371
H32_3 H 0.6968 0.8354 0.4531
C145_3 C 0.5245(4) 0.5966(4) 0.50566(18)
H153_3 H 0.4739 0.5958 0.5091
C150_3 C 0.5991(4) 0.6727(4) 0.50648(17)
H158_3 H 0.5988 0.7220 0.5113
C159_3 C 0.8155(3) 0.7750(3) 0.52157(10)
C164_3 C 0.8935(3) 0.8514(3) 0.52154(10)
C171_3 C 0.9524(4) 0.8674(4) 0.54561(12)
H163_3 H 0.9289 0.8189 0.5578
H168_3 H 0.9600 0.9159 0.5560
H174_3 H 0.8718 0.9940 0.5386
H177_3 H 0.9940 0.8718 0.4614
C176_3 C 0.7939(4) 0.7143(4) 0.54563(15)
H178_3 H 0.7391 0.6658 0.5426
H183_3 H 0.7935 0.7416 0.5629
H188_3 H 0.8354 0.6968 0.5469
C1 C 0.2189(2) 0.3121(2) 0.53018(7)
H1 H 0.2037 0.2780 0.5143
C2 C 0.16010(16) 0.2946(2) 0.55141(8)
H2 H 0.1055 0.2489 0.5497
C3_2 C 0.1828(2) 0.3455(2) 0.57525(7)
C4_2 C 0.2644(2) 0.4139(2) 0.57784(7)
H3_2 H 0.2796 0.4479 0.5938
C5_2 C 0.32331(19) 0.4313(2) 0.55660(9)
H4_3 H 0.3779 0.4770 0.5584
C6_2 C 0.1128(5) 0.4569(5) 0.58476(17)
H5_2 H 0.0863 0.4877 0.5914
H6_2 H 0.0954 0.4387 0.5658
H7_2 H 0.1732 0.4928 0.5854
C7 C 0.1167(2) 0.3231(2) 0.59856(7)
C8 C 0.0890(2) 0.2504(2) 0.61467(8)
C9 C 0.0308(2) 0.23248(18) 0.63618(7)
C10 C 0.0003(2) 0.2873(2) 0.64159(7)
C11_2 C 0.0280(2) 0.3600(2) 0.62548(8)
C12_2 C 0.0862(2) 0.37789(19) 0.60396(7)
H10_2 H 0.0424 0.4743 0.6337
C14 C 0.0031(5) 0.1516(4) 0.65268(15)
H12 H 0.0515 0.1537 0.6615
C15 C 0.1301(5) 0.1947(4) 0.61012(14)
H14 H 0.1683 0.2161 0.5945
H15 H 0.0868 0.1375 0.6064
H16 H 0.1606 0.1961 0.6268
C44_2 C 0.0121(2) 0.5162(2) 0.75809(7)
C49_2 C 0.0805(2) 0.5978(2) 0.75550(7)
H43_2 H 0.1145 0.6130 0.7396
C54_2 C 0.0979(2) 0.65665(19) 0.77674(9)
H48_3 H 0.1436 0.7113 0.7750
C59_2 C 0.1235(5) 0.4462(5) 0.74858(17)
H53_2 H 0.1543 0.4197 0.7420
H58_2 H 0.1053 0.4288 0.7676
H63_2 H 0.1594 0.5066 0.7480
C84_2 C 0.0266(2) 0.3614(2) 0.70786(8)
C89_2 C 0.04455(19) 0.4196(2) 0.72938(7)
C94 C 0.0854(4) 0.3294(5) 0.70376(17)
H68 H 0.0664 0.2901 0.6884
H73 H 0.0876 0.3014 0.7206
H78_2 H 0.1409 0.3758 0.6997
Ag2_2 Ag 0.0000 0.0000 0.0000
B1 B 0.6007(5) 0.6007(5) 0.0000
H11 H 0.6299 0.4793 0.0002
C18 C 0.2770(4) 0.2770(4) 0.0000
C19 C 0.3581(4) 0.3581(4) 0.0000
C22 C 0.5118(4) 0.5118(4) 0.0000
N2 N 0.1216(4) 0.1216(4) 0.0000
N4_2 N 0.7137(2) 0.96724(19) 0.13390(7)
C34_2 C 0.6454(2) 0.8856(2) 0.13649(7)
H33_2 H 0.6113 0.8704 0.1524
C39_2 C 0.6279(2) 0.82677(16) 0.11526(8)
H38_2 H 0.5822 0.7722 0.1170
C44_3 C 0.6788(2) 0.8495(2) 0.09142(7)
C49_3 C 0.7472(2) 0.9311(2) 0.08883(7)
H43_3 H 0.7812 0.9463 0.0729
C54_3 C 0.7646(2) 0.98998(19) 0.11007(9)
C59_3 C 0.7902(5) 0.7795(5) 0.08191(17)
H53_3 H 0.8210 0.7530 0.0753
H58_3 H 0.7720 0.7621 0.1009
H63_3 H 0.8261 0.8399 0.0813
C64_2 C 0.6564(2) 0.7834(2) 0.06811(7)
C69_2 C 0.5837(2) 0.7557(2) 0.05200(8)
C74_2 C 0.56581(18) 0.6975(2) 0.03049(7)
C79_2 C 0.6206(2) 0.6670(2) 0.02508(7)
C84_3 C 0.6933(2) 0.6947(2) 0.04119(8)
C89_3 C 0.71122(19) 0.7529(2) 0.06271(7)
C94_2 C 0.7521(4) 0.6627(5) 0.03709(17)
H68_2 H 0.7331 0.6234 0.0217
H73_2 H 0.7543 0.6347 0.0539
H78_3 H 0.8076 0.7091 0.0330
C99_2 C 0.4849(4) 0.6698(5) 0.01399(15)
H88_2 H 0.4870 0.7182 0.0052
H93 H 0.4373 0.6438 0.0265
C104_2 C 0.5280(4) 0.7968(5) 0.05655(14)
H98_2 H 0.5494 0.8350 0.0722
H103_2 H 0.4708 0.7535 0.0603
H108_2 H 0.5294 0.8273 0.0399
C109 C 0.1293(4) 0.1937(4) 0.01102(17)
H113 H 0.0819 0.1911 0.0193
C114 C 0.2029(4) 0.2698(4) 0.01061(16)
H118 H 0.2032 0.3176 0.0176
C123 C 0.4117(4) 0.3814(4) 0.02348(12)
C128 C 0.4873(4) 0.4582(4) 0.02406(11)
C135 C 0.5426(5) 0.4836(5) 0.04968(14)
H123 H 0.5161 0.4410 0.0639
H128 H 0.5506 0.5365 0.0567
H133 H 0.5964 0.4897 0.0448
C140 C 0.3843(5) 0.3203(5) 0.04843(15)
H138 H 0.4262 0.3440 0.0630
H143 H 0.3782 0.2673 0.0424
H148 H 0.3311 0.3112 0.0555
B1_2 B 0.2674(5) 0.9340(5) 0.3333
C1_2 C 0.5523(2) 0.9787(2) 0.19684(7)
H1_2 H 0.5371 0.9446 0.1809
C2_2 C 0.49344(16) 0.9612(2) 0.21807(8)
H2_2 H 0.4389 0.9155 0.2163
C7_2 C 0.4501(2) 0.9897(2) 0.26522(7)
C8_2 C 0.4224(2) 0.9170(2) 0.28133(8)
C9_2 C 0.3642(2) 0.89914(18) 0.30284(7)
C10_2 C 0.3337(2) 0.9539(2) 0.30825(7)
C14_2 C 0.3365(5) 0.8182(4) 0.31934(15)
H11_2 H 0.2966 0.8126 0.3335
H12_2 H 0.3849 0.8203 0.3281
H13 H 0.3105 0.7706 0.3068
C15_2 C 0.4635(5) 0.8613(4) 0.27678(14)
H14_2 H 0.5017 0.8827 0.2611
H15_2 H 0.4202 0.8041 0.2730
H16_2 H 0.4940 0.8627 0.2934
C19_2 C 0.0248(4) 0.6914(4) 0.3333
C20 C 0.0481(4) 0.7450(4) 0.30985(12)
C21 C 0.1249(4) 0.8206(4) 0.30927(11)
C22_2 C 0.1785(4) 0.8451(4) 0.3333
C23 C 0.1503(5) 0.8759(5) 0.28365(14)
H19 H 0.1077 0.8494 0.2694
H20 H 0.2032 0.8839 0.2766
H21 H 0.1564 0.9297 0.2885
H22 H 0.0107 0.7595 0.2703
C94_3 C 0.4188(4) 0.9960(5) 0.37042(17)
H68_3 H 0.3998 0.9567 0.3550
H73_3 H 0.4210 0.9680 0.3872
H83 H 0.1460 0.9632 0.3331
H93_2 H 0.1040 0.9771 0.3598
C123_2 C 0.0784(4) 0.7147(4) 0.35681(12)
C128_2 C 0.1540(4) 0.7915(4) 0.35739(11)
C135_2 C 0.2093(5) 0.8169(5) 0.38301(14)
H123_2 H 0.1828 0.7743 0.3972
H128_2 H 0.2173 0.8698 0.3900
H133_2 H 0.2631 0.8230 0.3781
C140_2 C 0.0510(5) 0.6536(5) 0.38176(15)
H138_2 H 0.0929 0.6773 0.3963
H143_2 H 0.0449 0.6006 0.3757
Ag2_3 Ag 0.0000 0.0000 1.0000
B1_3 B 0.6007(5) 0.6007(5) 1.0000
N1 N 0.96724(19) 0.7137(2) 0.86610(7)
C1_3 C 0.8856(2) 0.6454(2) 0.86351(7)
H1_3 H 0.8704 0.6113 0.8476
C2_3 C 0.82677(16) 0.6279(2) 0.88474(8)
H2_3 H 0.7722 0.5822 0.8830
C3_3 C 0.8495(2) 0.6788(2) 0.90858(7)
C4_3 C 0.9311(2) 0.7472(2) 0.91117(7)
H3_3 H 0.9463 0.7812 0.9271
C5_3 C 0.98998(19) 0.7646(2) 0.88993(9)
C6_3 C 0.7795(5) 0.7902(5) 0.91809(17)
H5_3 H 0.7530 0.8210 0.9247
H6_3 H 0.7621 0.7720 0.8991
H7_3 H 0.8399 0.8261 0.9187
C7_3 C 0.7834(2) 0.6564(2) 0.93189(7)
C8_3 C 0.7557(2) 0.5837(2) 0.94800(8)
C9_3 C 0.6975(2) 0.56581(18) 0.96951(7)
C10_3 C 0.6670(2) 0.6206(2) 0.97492(7)
C11_3 C 0.6947(2) 0.6933(2) 0.95881(8)
C12_3 C 0.7529(2) 0.71122(19) 0.93729(7)
C13_2 C 0.6627(5) 0.7521(4) 0.96291(17)
H8_2 H 0.6234 0.7331 0.9783
H9_2 H 0.6347 0.7543 0.9461
H10_3 H 0.7091 0.8076 0.9670
C14_3 C 0.6698(5) 0.4849(4) 0.98601(15)
H12_3 H 0.7182 0.4870 0.9948
H13_2 H 0.6438 0.4373 0.9735
C15_3 C 0.7968(5) 0.5280(4) 0.94345(14)
H14_3 H 0.8350 0.5494 0.9278
H15_3 H 0.7535 0.4708 0.9397
H16_3 H 0.8273 0.5294 0.9601
C16 C 0.1937(4) 0.1293(4) 0.98898(17)
H17 H 0.1911 0.0819 0.9807
C17 C 0.2698(4) 0.2029(4) 0.98939(16)
H18 H 0.3176 0.2032 0.9824
C18_2 C 0.2770(4) 0.2770(4) 1.0000
C19_3 C 0.3581(4) 0.3581(4) 1.0000
C20_2 C 0.3814(4) 0.4117(4) 0.97652(12)
C21_2 C 0.4582(4) 0.4873(4) 0.97594(11)
C22_3 C 0.5118(4) 0.5118(4) 1.0000
C23_2 C 0.4836(5) 0.5426(5) 0.95032(14)
H19_2 H 0.4410 0.5161 0.9361
H20_2 H 0.5365 0.5506 0.9433
H21_2 H 0.4897 0.5964 0.9552
C24 C 0.3203(5) 0.3843(5) 0.95157(15)
H22_2 H 0.3440 0.4262 0.9370
H23 H 0.2673 0.3782 0.9576
H24 H 0.3112 0.3311 0.9445
N2_2 N 0.1216(4) 0.1216(4) 1.0000
H83_2 H 0.4793 0.6299 0.9998
B1_4 B 0.9340(5) 0.2674(5) 0.6667
C13_3 C 0.9960(5) 0.4188(4) 0.62958(17)
H8_3 H 0.9567 0.3998 0.6450
H9_3 H 0.9680 0.4210 0.6128
H11_3 H 0.9632 0.1460 0.6669
H13_3 H 0.9771 0.1040 0.6402
C19_4 C 0.6914(4) 0.0248(4) 0.6667
C20_3 C 0.7147(4) 0.0784(4) 0.64319(12)
C21_3 C 0.7915(4) 0.1540(4) 0.64261(11)
C22_4 C 0.8451(4) 0.1785(4) 0.6667
C23_3 C 0.8169(5) 0.2093(5) 0.61699(14)
H19_3 H 0.7743 0.1828 0.6028
H20_3 H 0.8698 0.2173 0.6100
H21_3 H 0.8230 0.2631 0.6219
C24_2 C 0.6536(5) 0.0510(5) 0.61824(15)
H22_3 H 0.6773 0.0929 0.6037
H23_2 H 0.6006 0.0449 0.6243
C34_3 C 0.9787(2) 0.5523(2) 0.80316(7)
H33_3 H 0.9446 0.5371 0.8191
C39_3 C 0.9612(2) 0.49344(16) 0.78193(8)
H38_3 H 0.9155 0.4389 0.7837
C64_3 C 0.9897(2) 0.4501(2) 0.73478(7)
C69_3 C 0.9170(2) 0.4224(2) 0.71867(8)
C74_3 C 0.89914(18) 0.3642(2) 0.69716(7)
C79_3 C 0.9539(2) 0.3337(2) 0.69175(7)
C99_3 C 0.8182(4) 0.3365(5) 0.68066(15)
H83_3 H 0.8126 0.2966 0.6665
H88_3 H 0.8203 0.3849 0.6719
H93_3 H 0.7706 0.3105 0.6932
C104_3 C 0.8613(4) 0.4635(5) 0.72322(14)
H98_3 H 0.8827 0.5017 0.7389
H103_3 H 0.8041 0.4202 0.7270
H108_3 H 0.8627 0.4940 0.7066
C123_3 C 0.7450(4) 0.0481(4) 0.69015(12)
C128_3 C 0.8206(4) 0.1249(4) 0.69073(11)
C135_3 C 0.8759(5) 0.1503(5) 0.71635(14)
H123_3 H 0.8494 0.1077 0.7306
H128_3 H 0.8839 0.2032 0.7234
H133_3 H 0.9297 0.1564 0.7115
H138_3 H 0.7595 0.0107 0.7297
Ag2_4 Ag 0.0000 1.0000 0.0000
Ag7_2 Ag 0.33333(6) 0.26759(4) 0.1667
B4 B 0.0000(7) 0.3993(5) 0.0000
N8 N 0.25354(28) 0.2863(2) 0.13390(7)
N11_4 N 0.41313(28) 0.36609(19) 0.19943(7)
C38 C 0.2402(3) 0.3546(2) 0.13649(7)
H37 H 0.2591 0.3887 0.1524
C43 C 0.19887(26) 0.3721(2) 0.11526(8)
H42 H 0.1900 0.4178 0.1170
C48_2 C 0.1707(3) 0.3212(2) 0.09142(7)
C53_2 C 0.1839(3) 0.2528(2) 0.08883(7)
H47_2 H 0.1651 0.2188 0.0729
C58_2 C 0.22538(28) 0.2354(2) 0.11007(9)
H52_2 H 0.2343 0.1897 0.1083
H67_2 H 0.0138 0.1739 0.0813
C68 C 0.1270(3) 0.3436(2) 0.06811(7)
C73 C 0.1720(3) 0.4163(2) 0.05200(8)
C78 C 0.13169(27) 0.43419(18) 0.03049(7)
C83 C 0.0464(3) 0.3794(2) 0.02508(7)
C88_2 C 0.0014(3) 0.3067(2) 0.04119(8)
C93_2 C 0.04168(28) 0.28878(19) 0.06271(7)
C103 C 0.1849(6) 0.5151(4) 0.01399(15)
H92 H 0.2312 0.5130 0.0052
H97 H 0.2065 0.5627 0.0265
C108 C 0.2688(6) 0.4720(4) 0.05655(14)
H102 H 0.2856 0.4506 0.0722
H107 H 0.2827 0.5292 0.0603
H112 H 0.2979 0.4706 0.0399
C113 C 0.0644(6) 0.8707(4) 0.01102(17)
H117 H 0.1092 0.9181 0.0193
C118 C 0.0669(6) 0.7971(4) 0.01061(16)
H122 H 0.1144 0.7968 0.0176
C120 C 0.0000(6) 0.7230(4) 0.0000
C122 C -0.0000(6) 0.6419(4) 0.0000
C134 C 0.0000(6) 0.4882(4) 0.0000
N13 N -0.0000(6) 0.8784(4) 0.0000
N17_4 N 0.3333(6) 0.1442(4) 0.1667
C146_2 C 0.2613(6) 0.0701(4) 0.16101(18)
C147_3 C 0.4054(6) 0.1421(4) 0.17232(18)
H154_2 H 0.2115 0.0709 0.1576
H155_3 H 0.4552 0.1927 0.1757
C152_3 C 0.4069(6) 0.0675(4) 0.17314(17)
H159_3 H 0.4565 0.0678 0.1779
H180_3 H 0.4067 0.0009 0.1241
Ag7_3 Ag 1.00000(6) 0.60092(4) 0.5000
B4_2 B 0.6667(7) 0.7326(5) 0.3333
N8_2 N 0.92021(28) 0.6196(2) 0.46723(7)
C37_2 C 0.4265(3) 0.4477(2) 0.19684(7)
C38_2 C 0.9069(3) 0.6879(2) 0.46982(7)
H36_2 H 0.4076 0.4629 0.1809
H37_2 H 0.9258 0.7220 0.4857
C42_2 C 0.46780(26) 0.50656(16) 0.21807(8)
C43_2 C 0.86554(26) 0.7054(2) 0.44859(8)
H41_2 H 0.4767 0.5611 0.2163
H42_2 H 0.8567 0.7511 0.4503
C47_2 C 0.4960(3) 0.4838(2) 0.24191(7)
C48_3 C 0.8374(3) 0.6545(2) 0.42475(7)
C52_2 C 0.4828(3) 0.4022(2) 0.24450(7)
C53_3 C 0.8506(3) 0.5861(2) 0.42216(7)
H46_2 H 0.5016 0.3870 0.2604
H47_3 H 0.8318 0.5521 0.4062
C57_2 C 0.44129(28) 0.34335(19) 0.22326(9)
C58_3 C 0.89205(28) 0.5687(2) 0.44340(9)
H51_3 H 0.4324 0.2887 0.2250
H52_3 H 0.9010 0.5230 0.4416
C62_2 C 0.6774(7) 0.5538(5) 0.25142(17)
C63_2 C 0.6560(7) 0.5431(5) 0.41524(17)
H56_2 H 0.7347 0.5803 0.2580
H57_2 H 0.5987 0.5123 0.4086
H61_2 H 0.6766 0.5712 0.2324
H62_2 H 0.6568 0.5613 0.4342
H66_2 H 0.6529 0.4934 0.2520
H67_3 H 0.6805 0.5072 0.4146
C67_2 C 0.5397(3) 0.5499(2) 0.26522(7)
C68_2 C 0.7937(3) 0.6769(2) 0.40144(7)
C72_2 C 0.4947(3) 0.5776(2) 0.28133(8)
C73_2 C 0.8387(3) 0.7496(2) 0.38533(8)
C77_2 C 0.53498(27) 0.6358(2) 0.30284(7)
C78_2 C 0.79836(27) 0.76752(18) 0.36382(7)
C82_2 C 0.6203(3) 0.6663(2) 0.30825(7)
C83_2 C 0.7131(3) 0.7127(2) 0.35841(7)
C87_2 C 0.6653(3) 0.6386(2) 0.29214(8)
C88_3 C 0.6681(3) 0.6400(2) 0.37452(8)
C92_2 C 0.62499(28) 0.5804(2) 0.27062(7)
C93_3 C 0.70835(28) 0.62211(19) 0.39604(7)
C97 C 0.7561(6) 0.6706(5) 0.29624(17)
C98_2 C 0.5773(6) 0.5812(4) 0.37042(17)
H71 H 0.7764 0.7099 0.3116
H72_2 H 0.5570 0.6002 0.3550
H76 H 0.7863 0.6986 0.2794
H77_2 H 0.5471 0.5790 0.3872
H81_2 H 0.7652 0.6242 0.3003
H82_2 H 0.5682 0.5257 0.3663
C102_2 C 0.4818(6) 0.6635(5) 0.31934(15)
C103_2 C 0.8516(6) 0.8484(4) 0.34732(15)
H86 H 0.5161 0.7034 0.3335
H87 H 0.8173 0.8540 0.3331
H91_2 H 0.4355 0.6151 0.3281
H92_2 H 0.8979 0.8463 0.3385
H96 H 0.4602 0.6895 0.3068
H97_2 H 0.8732 0.8960 0.3598
C107_2 C 0.3979(6) 0.5365(5) 0.27678(14)
C108_2 C 0.9355(6) 0.8053(4) 0.38988(14)
H101_2 H 0.3811 0.4983 0.2611
H102_2 H 0.9523 0.7839 0.4055
H106_2 H 0.3840 0.5798 0.2730
H107_2 H 0.9494 0.8625 0.3936
H111_2 H 0.3688 0.5060 0.2934
H112_2 H 0.9646 0.8039 0.3732
C122_2 C 0.6667(6) 0.9752(4) 0.3333
C126 C 0.6970(6) 0.9519(4) 0.30985(12)
C127 C 0.6364(6) 0.9216(4) 0.35681(12)
C131 C 0.6958(6) 0.8751(4) 0.30927(11)
C132 C 0.6376(6) 0.8460(4) 0.35739(11)
C134_2 C 0.6667(6) 0.8215(4) 0.3333
C138 C 0.7257(7) 0.8497(5) 0.28365(14)
C139 C 0.6077(7) 0.7907(5) 0.38301(14)
H126 H 0.7418 0.8923 0.2694
H127 H 0.5916 0.8172 0.3972
H131 H 0.6808 0.7968 0.2766
H132 H 0.6526 0.7827 0.3900
H136 H 0.7734 0.8436 0.2885
H137 H 0.5600 0.7369 0.3781
C144 C 0.6027(7) 0.9490(5) 0.38176(15)
H141 H 0.7489 0.9893 0.2703
H142 H 0.5845 0.9071 0.3963
H147 H 0.5558 0.9551 0.3757
N17_5 N 1.0000(6) 0.4775(4) 0.5000
B2_6 B 1.0000 0.0000 0.5000
H29_3 H 0.8779 0.0060 0.4614
C146_3 C 0.9280(6) 0.4034(4) 0.49434(18)
H154_3 H 0.8782 0.4042 0.4909
C151_3 C 0.9265(6) 0.3273(4) 0.49352(17)
H160_3 H 0.8769 0.2780 0.4887
C155_4 C 1.0000(6) 0.3243(4) 0.5000
C161_3 C 0.9594(4) 0.1845(3) 0.52157(10)
C166_3 C 0.9578(4) 0.1065(3) 0.52154(10)
C169_4 C 1.0000(4) 0.0882(3) 0.5000
C172_3 C 0.9149(6) 0.0476(4) 0.54561(12)
H164_3 H 0.8899 0.0711 0.5578
H169_3 H 0.9558 0.0400 0.5560
C177_3 C 0.9203(6) 0.2061(4) 0.54563(15)
H179_3 H 0.9266 0.2609 0.5426
H184_3 H 0.9480 0.2065 0.5629
H189_3 H 0.8613 0.1646 0.5469
C158_4 C 0.9999(6) 0.2421(4) 0.5000
Ag2_5 Ag 0.0000 1.0000 1.0000
B4_3 B 0.0000(7) 0.3993(5) 1.0000
C62_3 C 0.0107(7) 0.2205(5) 0.91809(17)
H56_3 H 0.0680 0.2470 0.9247
H61_3 H 0.0099 0.2379 0.8991
C97_2 C 0.0894(6) 0.3373(5) 0.96291(17)
H71_2 H 0.1097 0.3766 0.9783
H76_2 H 0.1196 0.3653 0.9461
H81_3 H 0.0985 0.2909 0.9670
H87_2 H 0.1506 0.5207 0.9998
C120_2 C 0.0000(6) 0.7230(4) 1.0000
C122_3 C -0.0000(6) 0.6419(4) 1.0000
C126_2 C 0.0303(6) 0.6186(4) 0.97652(12)
C131_2 C 0.0291(6) 0.5418(4) 0.97594(11)
C134_3 C 0.0000(6) 0.4882(4) 1.0000
C138_2 C 0.0590(7) 0.5164(5) 0.95032(14)
H126_2 H 0.0751 0.5590 0.9361
H131_2 H 0.0141 0.4635 0.9433
H136_2 H 0.1067 0.5103 0.9552
C143 C 0.0640(7) 0.6797(5) 0.95157(15)
H141_2 H 0.0822 0.6560 0.9370
H146 H 0.1109 0.7327 0.9576
H151 H 0.0199 0.6888 0.9445
N13_2 N -0.0000(6) 0.8784(4) 1.0000
Ag2_6 Ag 1.0000 0.0000 0.0000
B3_3 B 0.3993(5) 0.0000(7) 0.0000
C61_3 C 0.2205(5) 0.0107(7) 0.08191(17)
H55_3 H 0.2470 0.0680 0.0753
H60_3 H 0.2379 0.0099 0.1009
C96_2 C 0.3373(5) 0.0894(6) 0.03709(17)
H70_2 H 0.3766 0.1097 0.0217
H75_2 H 0.3653 0.1196 0.0539
H80_3 H 0.2909 0.0985 0.0330
H84_2 H 0.5207 0.1506 0.0002
C119_2 C 0.7230(4) 0.0000(6) 0.0000
C121_3 C 0.6419(4) 0.0000(6) 0.0000
C125_2 C 0.6186(4) 0.0303(6) 0.02348(12)
C130_2 C 0.5418(4) 0.0291(6) 0.02406(11)
C133_3 C 0.4882(4) 0.0000(6) 0.0000
C137_2 C 0.5164(5) 0.0590(7) 0.04968(14)
H125_2 H 0.5590 0.0751 0.0639
H130_2 H 0.4635 0.0141 0.0567
H135_2 H 0.5103 0.1067 0.0448
C142 C 0.6797(5) 0.0640(7) 0.04843(15)
H140_2 H 0.6560 0.0822 0.0630
H145 H 0.7327 0.1109 0.0424
H150 H 0.6888 0.0199 0.0555
N12_2 N 0.8784(4) 0.0000(6) 0.0000
Ag2_7 Ag 1.0000 1.0000 0.0000
B3_4 B 0.3993(5) 1.0000(7) 0.0000
B4_4 B 1.0000(7) 0.3993(5) 0.0000
N6_2 N 0.03276(19) 0.74646(28) 0.13390(7)
C36_3 C 0.1144(2) 0.7598(3) 0.13649(7)
H35_3 H 0.1296 0.7409 0.1524
C41_3 C 0.17323(16) 0.80113(26) 0.11526(8)
H40_3 H 0.2278 0.8100 0.1170
C46_3 C 0.1505(2) 0.8293(3) 0.09142(7)
C51_3 C 0.0689(2) 0.8161(3) 0.08883(7)
H45_3 H 0.0537 0.8349 0.0729
C56_3 C 0.01002(19) 0.77462(28) 0.11007(9)
C63_3 C 0.9893(7) 0.2098(5) 0.08191(17)
H57_3 H 0.9320 0.1790 0.0753
H62_3 H 0.9901 0.2280 0.1009
H65_3 H 0.1601 0.9862 0.0813
C66_3 C 0.2166(2) 0.8730(3) 0.06811(7)
C71_3 C 0.2443(2) 0.8280(3) 0.05200(8)
C76_3 C 0.3025(2) 0.86831(27) 0.03049(7)
C81_3 C 0.3330(2) 0.9536(3) 0.02508(7)
C86_3 C 0.3053(2) 0.9986(3) 0.04119(8)
C91_3 C 0.2471(2) 0.95832(28) 0.06271(7)
C98_3 C 0.9106(6) 0.2479(4) 0.03709(17)
H72_3 H 0.8903 0.2669 0.0217
H77_3 H 0.8804 0.2457 0.0539
H82_3 H 0.9015 0.1924 0.0330
C101_3 C 0.3302(5) 0.8151(6) 0.01399(15)
H86_2 H 0.8494 0.3701 0.0002
H90_3 H 0.2818 0.7688 0.0052
H95_2 H 0.3562 0.7935 0.0265
C106_3 C 0.2032(5) 0.7312(6) 0.05655(14)
H100_3 H 0.1650 0.7144 0.0722
H105_3 H 0.2465 0.7173 0.0603
H110_3 H 0.1727 0.7021 0.0399
C111 C 0.8063(4) 0.9356(6) 0.01102(17)
H115 H 0.8089 0.8908 0.0193
C116 C 0.7302(4) 0.9331(6) 0.01061(16)
H120 H 0.6824 0.8856 0.0176
C119_3 C 0.7230(4) 1.0000(6) 0.0000
C120_3 C 1.0000(6) 0.7230(4) 0.0000
C121_4 C 0.6419(4) 1.0000(6) 0.0000
C122_4 C 1.0000(6) 0.6419(4) 0.0000
C127_2 C 0.9697(6) 0.5883(4) 0.02348(12)
C132_2 C 0.9709(6) 0.5127(4) 0.02406(11)
C133_4 C 0.4882(4) 1.0000(6) 0.0000
C134_4 C 1.0000(6) 0.4882(4) 0.0000
C139_2 C 0.9410(7) 0.4574(5) 0.04968(14)
H127_2 H 0.9249 0.4839 0.0639
H132_2 H 0.9859 0.4494 0.0567
H137_2 H 0.8933 0.4036 0.0448
C144_2 C 0.9360(7) 0.6157(5) 0.04843(15)
H142_2 H 0.9178 0.5738 0.0630
H147_2 H 0.8891 0.6218 0.0424
H152 H 0.9801 0.6689 0.0555
N12_3 N 0.8784(4) 1.0000(6) 0.0000
N13_3 N 1.0000(6) 0.8784(4) 0.0000
Ag2_8 Ag 0.6667 0.3333 0.3333
C16_2 C 0.8604(4) 0.4626(4) 0.32231(17)
H17_2 H 0.8578 0.4152 0.3140
C17_2 C 0.9365(4) 0.5362(4) 0.32272(16)
H18_2 H 0.9843 0.5365 0.3157
C18_3 C 0.9437(4) 0.6103(4) 0.3333
C24_3 C 0.9870(5) 0.7176(5) 0.28490(15)
H23_3 H 0.9340 0.7115 0.2909
H24_2 H 0.9779 0.6644 0.2778
N2_3 N 0.7883(4) 0.4549(4) 0.3333
B3_5 B 0.0660(5) 0.3333(7) 0.3333
C35_3 C 0.0213(2) 0.5735(3) 0.19684(7)
H34_3 H 0.0554 0.5924 0.1809
C40_3 C 0.0388(2) 0.53220(26) 0.21807(8)
H39_3 H 0.0845 0.5233 0.2163
C65_3 C 0.0103(2) 0.4603(3) 0.26522(7)
C70_3 C 0.0830(2) 0.5053(3) 0.28133(8)
C75_3 C 0.10086(18) 0.46502(27) 0.30284(7)
C80_3 C 0.0461(2) 0.3797(3) 0.30825(7)
C96_3 C 0.0040(5) 0.4227(6) 0.37042(17)
H70_3 H 0.0433 0.4430 0.3550
H75_3 H 0.0320 0.4529 0.3872
C100_3 C 0.1818(4) 0.5182(6) 0.31934(15)
H84_3 H 0.1874 0.4839 0.3335
H85_2 H 0.0368 0.1827 0.3331
H89_3 H 0.1797 0.5645 0.3281
H94_3 H 0.2294 0.5398 0.3068
H95_3 H 0.0229 0.1268 0.3598
C105_3 C 0.1387(4) 0.6021(6) 0.27678(14)
H99_3 H 0.1173 0.6189 0.2611
H104_3 H 0.1959 0.6160 0.2730
H109_3 H 0.1373 0.6312 0.2934
C109_2 C 0.7960(4) 0.5270(4) 0.34435(17)
C110_2 C 0.5374(4) 0.3977(6) 0.32231(17)
C111_2 C 0.4730(4) 0.2689(6) 0.34435(17)
C112 C 0.6023(6) 0.1396(4) 0.32231(17)
C113_2 C 0.7311(6) 0.2040(4) 0.34435(17)
H113_2 H 0.7486 0.5244 0.3526
H114_2 H 0.5848 0.4425 0.3140
H115_2 H 0.4756 0.2241 0.3526
H116 H 0.5575 0.1422 0.3140
H117_2 H 0.7759 0.2514 0.3526
C114_2 C 0.8696(4) 0.6031(4) 0.34394(16)
C115_2 C 0.4638(4) 0.4002(6) 0.32272(16)
C116_2 C 0.3969(4) 0.2664(6) 0.34394(16)
C117 C 0.5998(6) 0.0635(4) 0.32272(16)
C118_2 C 0.7336(6) 0.1304(4) 0.34394(16)
H118_2 H 0.8699 0.6509 0.3509
H119_2 H 0.4635 0.4477 0.3157
H120_2 H 0.3491 0.2189 0.3509
H121 H 0.5523 0.0157 0.3157
H122_2 H 0.7811 0.1301 0.3509
C119_4 C 0.3897(4) 0.3333(6) 0.3333
C120_4 C 0.6667(6) 0.0563(4) 0.3333
C121_5 C 0.3086(4) 0.3333(6) 0.3333
C124_2 C 0.2550(4) 0.3030(6) 0.30985(12)
C125_3 C 0.2853(4) 0.3636(6) 0.35681(12)
C129_2 C 0.1794(4) 0.3042(6) 0.30927(11)
C130_3 C 0.2085(4) 0.3624(6) 0.35739(11)
C133_5 C 0.1549(4) 0.3333(6) 0.3333
C136_2 C 0.1241(5) 0.2743(7) 0.28365(14)
C137_3 C 0.1831(5) 0.3923(7) 0.38301(14)
H124_2 H 0.1506 0.2582 0.2694
H125_3 H 0.2257 0.4084 0.3972
H129_2 H 0.1161 0.3192 0.2766
H130_3 H 0.1302 0.3474 0.3900
H134_2 H 0.0703 0.2266 0.2885
H135_3 H 0.1770 0.4400 0.3781
C141_2 C 0.2824(5) 0.2693(7) 0.28490(15)
C142_2 C 0.3464(5) 0.3973(7) 0.38176(15)
C143_2 C 0.7307(7) 0.0130(5) 0.28490(15)
H139_2 H 0.2405 0.2511 0.2703
H140_3 H 0.3227 0.4155 0.3963
H144_2 H 0.2885 0.2224 0.2909
H145_2 H 0.3994 0.4442 0.3757
H146_2 H 0.7776 0.0660 0.2909
H148_2 H 0.9978 0.6445 0.3888
H149 H 0.3356 0.3134 0.2778
H150_2 H 0.3555 0.3532 0.3888
H151_2 H 0.6866 0.0221 0.2778
H152_2 H 0.6468 0.0022 0.3888
N12_4 N 0.5451(4) 0.3333(6) 0.3333
N13_4 N 0.6667(6) 0.2117(4) 0.3333
Ag2_9 Ag 1.0000 1.0000 1.0000
B3_6 B 0.3993(5) 1.0000(7) 1.0000
B4_5 B 1.0000(7) 0.3993(5) 1.0000
N7 N 0.74646(28) 0.03276(19) 0.86610(7)
C37_3 C 0.7598(3) 0.1144(2) 0.86351(7)
H36_3 H 0.7409 0.1296 0.8476
C42_3 C 0.80113(26) 0.17323(16) 0.88474(8)
H41_3 H 0.8100 0.2278 0.8830
C47_3 C 0.8293(3) 0.1505(2) 0.90858(7)
C52_3 C 0.8161(3) 0.0689(2) 0.91117(7)
H46_3 H 0.8349 0.0537 0.9271
C57_3 C 0.77462(28) 0.01002(19) 0.88993(9)
C60_3 C 0.2098(5) 0.9893(7) 0.91809(17)
H54_3 H 0.1790 0.9320 0.9247
H59_3 H 0.2280 0.9901 0.8991
H66_3 H 0.9862 0.1601 0.9187
C67_3 C 0.8730(3) 0.2166(2) 0.93189(7)
C72_3 C 0.8280(3) 0.2443(2) 0.94800(8)
C77_3 C 0.86831(27) 0.3025(2) 0.96951(7)
C82_3 C 0.9536(3) 0.3330(2) 0.97492(7)
C87_3 C 0.9986(3) 0.3053(2) 0.95881(8)
C92_3 C 0.95832(28) 0.2471(2) 0.93729(7)
C95_3 C 0.2479(4) 0.9106(6) 0.96291(17)
H69_3 H 0.2669 0.8903 0.9783
H74_3 H 0.2457 0.8804 0.9461
H79_3 H 0.1924 0.9015 0.9670
C102_3 C 0.8151(6) 0.3302(5) 0.98601(15)
H85_3 H 0.3701 0.8494 0.9998
H91_3 H 0.7688 0.2818 0.9948
H96_2 H 0.7935 0.3562 0.9735
C107_3 C 0.7312(6) 0.2032(5) 0.94345(14)
H101_3 H 0.7144 0.1650 0.9278
H106_3 H 0.7173 0.2465 0.9397
H111_3 H 0.7021 0.1727 0.9601
C112_2 C 0.9356(6) 0.8063(4) 0.98898(17)
H116_2 H 0.8908 0.8089 0.9807
C117_2 C 0.9331(6) 0.7302(4) 0.98939(16)
H121_2 H 0.8856 0.6824 0.9824
C119_5 C 0.7230(4) 1.0000(6) 1.0000
C120_5 C 1.0000(6) 0.7230(4) 1.0000
C121_6 C 0.6419(4) 1.0000(6) 1.0000
C122_5 C 1.0000(6) 0.6419(4) 1.0000
C124_3 C 0.5883(4) 0.9697(6) 0.97652(12)
C129_3 C 0.5127(4) 0.9709(6) 0.97594(11)
C133_6 C 0.4882(4) 1.0000(6) 1.0000
C134_5 C 1.0000(6) 0.4882(4) 1.0000
C136_3 C 0.4574(5) 0.9410(7) 0.95032(14)
H124_3 H 0.4839 0.9249 0.9361
H129_3 H 0.4494 0.9859 0.9433
H134_3 H 0.4036 0.8933 0.9552
C141_3 C 0.6157(5) 0.9360(7) 0.95157(15)
H139_3 H 0.5738 0.9178 0.9370
H144_3 H 0.6218 0.8891 0.9576
H149_2 H 0.6689 0.9801 0.9445
N12_5 N 0.8784(4) 1.0000(6) 1.0000
N13_5 N 1.0000(6) 0.8784(4) 1.0000
Ag2_10 Ag 0.3333 0.6667 0.6667
C16_3 C 0.5270(4) 0.7960(4) 0.65565(17)
H17_3 H 0.5244 0.7486 0.6474
C17_3 C 0.6031(4) 0.8696(4) 0.65606(16)
H18_3 H 0.6509 0.8699 0.6491
C18_4 C 0.6103(4) 0.9437(4) 0.6667
H24_3 H 0.6445 0.9978 0.6112
N2_4 N 0.4549(4) 0.7883(4) 0.6667
B4_6 B 0.3333(7) 0.0660(5) 0.6667
C38_3 C 0.5735(3) 0.0213(2) 0.80316(7)
H37_3 H 0.5924 0.0554 0.8191
C43_3 C 0.53220(26) 0.0388(2) 0.78193(8)
H42_3 H 0.5233 0.0845 0.7837
C68_3 C 0.4603(3) 0.0103(2) 0.73478(7)
C73_3 C 0.5053(3) 0.0830(2) 0.71867(8)
C78_3 C 0.46502(27) 0.10086(18) 0.69716(7)
C83_3 C 0.3797(3) 0.0461(2) 0.69175(7)
C97_3 C 0.4227(6) 0.0040(5) 0.62958(17)
H71_3 H 0.4430 0.0433 0.6450
H76_3 H 0.4529 0.0320 0.6128
C103_3 C 0.5182(6) 0.1818(4) 0.68066(15)
H86_3 H 0.1827 0.0368 0.6669
H87_3 H 0.4839 0.1874 0.6665
H92_3 H 0.5645 0.1797 0.6719
H96_3 H 0.1268 0.0229 0.6402
H97_3 H 0.5398 0.2294 0.6932
C108_3 C 0.6021(6) 0.1387(4) 0.72322(14)
H102_3 H 0.6189 0.1173 0.7389
H107_3 H 0.6160 0.1959 0.7270
H112_3 H 0.6312 0.1373 0.7066
C109_3 C 0.4626(4) 0.8604(4) 0.67769(17)
C110_3 C 0.2040(4) 0.7311(6) 0.65565(17)
C111_3 C 0.1396(4) 0.6023(6) 0.67769(17)
C112_3 C 0.2689(6) 0.4730(4) 0.65565(17)
C113_3 C 0.3977(6) 0.5374(4) 0.67769(17)
H113_3 H 0.4152 0.8578 0.6860
H114_3 H 0.2514 0.7759 0.6474
H115_3 H 0.1422 0.5575 0.6860
H116_3 H 0.2241 0.4756 0.6474
H117_3 H 0.4425 0.5848 0.6860
C114_3 C 0.5362(4) 0.9365(4) 0.67728(16)
C115_3 C 0.1304(4) 0.7336(6) 0.65606(16)
C116_3 C 0.0635(4) 0.5998(6) 0.67728(16)
C117_3 C 0.2664(6) 0.3969(4) 0.65606(16)
C118_3 C 0.4002(6) 0.4638(4) 0.67728(16)
H118_3 H 0.5365 0.9843 0.6843
H119_3 H 0.1301 0.7811 0.6491
H120_3 H 0.0157 0.5523 0.6843
H121_3 H 0.2189 0.3491 0.6491
H122_3 H 0.4477 0.4635 0.6843
C119_6 C 0.0563(4) 0.6667(6) 0.6667
C120_6 C 0.3333(6) 0.3897(4) 0.6667
C122_6 C 0.3333(6) 0.3086(4) 0.6667
C126_3 C 0.3636(6) 0.2853(4) 0.64319(12)
C127_3 C 0.3030(6) 0.2550(4) 0.69015(12)
C131_3 C 0.3624(6) 0.2085(4) 0.64261(11)
C132_3 C 0.3042(6) 0.1794(4) 0.69073(11)
C134_6 C 0.3333(6) 0.1549(4) 0.6667
C138_3 C 0.3923(7) 0.1831(5) 0.61699(14)
C139_3 C 0.2743(7) 0.1241(5) 0.71635(14)
H126_3 H 0.4084 0.2257 0.6028
H127_3 H 0.2582 0.1506 0.7306
H131_3 H 0.3474 0.1302 0.6100
H132_3 H 0.3192 0.1161 0.7234
H136_3 H 0.4400 0.1770 0.6219
H137_3 H 0.2266 0.0703 0.7115
C140_3 C 0.7176(5) 0.9870(5) 0.71510(15)
C142_3 C 0.0130(5) 0.7307(7) 0.71510(15)
C143_3 C 0.3973(7) 0.3464(5) 0.61824(15)
C144_3 C 0.2693(7) 0.2824(5) 0.71510(15)
H141_3 H 0.4155 0.3227 0.6037
H142_3 H 0.2511 0.2405 0.7297
H143_3 H 0.7115 0.9340 0.7091
H145_3 H 0.0660 0.7776 0.7091
H146_3 H 0.4442 0.3994 0.6243
H147_3 H 0.2224 0.2885 0.7091
H148_3 H 0.6644 0.9779 0.7222
H149_3 H 0.0022 0.6468 0.6112
H150_3 H 0.0221 0.6866 0.7222
H151_3 H 0.3532 0.3555 0.6112
H152_3 H 0.3134 0.3356 0.7222
N12_6 N 0.2117(4) 0.6667(6) 0.6667
N13_6 N 0.3333(6) 0.5451(4) 0.6667
Cl1 Cl 0.0000 0.0000 0.92359(18)
O1 O 0.0000 0.0000 0.8932(3)
O3 O 0.054(4) 0.084(6) 0.9380(10)
Cl1_2 Cl 0.0000 1.0000 0.92359(18)
O1_2 O -0.0000 1.0000 0.8932(3)
O2 O 0.030(4) 0.946(4) 0.9380(10)
Cl1_3 Cl 1.0000 0.0000 0.92359(18)
O1_3 O 1.0000 0.0000 0.8932(3)
Cl1_4 Cl 1.0000 1.0000 0.92359(18)
O1_4 O 1.0000 1.0000 0.8932(3)
O4 O 0.916(6) 0.970(4) 0.9380(10)
Cl1_5 Cl 0.0000 -0.0000 0.07641(18)
O1_5 O 0.0000 0.0000 0.1068(3)
O3_2 O 0.084(6) 0.054(4) 0.0620(10)
Cl1_6 Cl 0.0000 1.0000 0.07641(18)
O1_6 O 0.0000 1.0000 0.1068(3)
Cl1_7 Cl 1.0000 -0.0000 0.07641(18)
O1_7 O 1.0000 0.0000 0.1068(3)
O2_2 O 0.946(4) 0.030(4) 0.0620(10)
Cl1_8 Cl 1.0000 1.0000 0.07641(18)
O1_8 O 1.0000 1.0000 0.1068(3)
O4_2 O 0.970(4) 0.916(6) 0.0620(10)
Cl1_9 Cl 0.6667 0.3333 0.25692(18)
O1_9 O 0.6667 0.3333 0.2265(3)
O2_3 O 0.697(4) 0.279(4) 0.2713(10)
O3_3 O 0.721(4) 0.417(6) 0.2713(10)
O4_3 O 0.583(6) 0.303(4) 0.2713(10)
Cl1_10 Cl 0.6667 0.3333 0.40974(18)
O1_10 O 0.6667 0.3333 0.4401(3)
O2_4 O 0.613(4) 0.363(4) 0.3953(10)
O3_4 O 0.751(6) 0.387(4) 0.3953(10)
O4_4 O 0.637(4) 0.249(6) 0.3953(10)
Cl1_11 Cl 0.3333 0.6667 0.59026(18)
O1_11 O 0.3333 0.6667 0.5599(3)
O2_5 O 0.363(4) 0.613(4) 0.6047(10)
O3_5 O 0.387(4) 0.751(6) 0.6047(10)
O4_5 O 0.249(6) 0.637(4) 0.6047(10)
Cl1_12 Cl 0.3333 0.6667 0.74308(18)
O1_12 O 0.3333 0.6667 0.7735(3)
O2_6 O 0.279(4) 0.697(4) 0.7287(10)
O3_6 O 0.417(6) 0.721(4) 0.7287(10)
O4_6 O 0.303(4) 0.583(6) 0.7287(10)
Cl2 Cl 0.6667 0.3333 0.0449(3)
O5 O 0.706(2) 0.4136(15) 0.0599(4)
O6 O 0.6667 0.3333 0.0145(4)
O7 O 0.5864(15) 0.2924(25) 0.0599(4)
O8 O 0.7076(25) 0.294(2) 0.0599(4)
Cl2_2 Cl 0.3333 0.6667 0.9551(3)
O5_2 O 0.4136(15) 0.706(2) 0.9401(4)
O6_2 O 0.3333 0.6667 0.9855(4)
O7_2 O 0.2924(25) 0.5864(15) 0.9401(4)
O8_2 O 0.294(2) 0.7076(25) 0.9401(4)
Cl2_3 Cl 0.3334 0.6666 0.3782(3)
O5_3 O 0.373(2) 0.7469(15) 0.3932(4)
O6_3 O 0.3334 0.6666 0.3478(4)
O7_3 O 0.2531(15) 0.6257(25) 0.3932(4)
O8_3 O 0.3743(25) 0.627(2) 0.3932(4)
Cl2_4 Cl -0.0000 0.0000 0.2884(3)
O5_4 O 0.0803(15) 0.039(2) 0.2734(4)
O6_4 O -0.0000 0.0000 0.3188(4)
Cl2_5 Cl -0.0000 1.0000 0.2884(3)
O6_5 O -0.0000 1.0000 0.3188(4)
Cl2_6 Cl 1.0000 0.0000 0.2884(3)
O6_6 O 1.0000 0.0000 0.3188(4)
O8_4 O 0.961(2) 0.0409(25) 0.2734(4)
Cl2_7 Cl 1.0000 1.0000 0.2884(3)
O6_7 O 1.0000 1.0000 0.3188(4)
O7_4 O 0.9591(25) 0.9197(15) 0.2734(4)
Cl2_8 Cl 0.0000 -0.0000 0.7116(3)
O5_5 O 0.039(2) 0.0803(15) 0.7266(4)
O6_8 O 0.0000 -0.0000 0.6812(4)
Cl2_9 Cl 0.0000 1.0000 0.7116(3)
O6_9 O 0.0000 1.0000 0.6812(4)
O8_5 O 0.0409(25) 0.961(2) 0.7266(4)
Cl2_10 Cl 1.0000 -0.0000 0.7116(3)
O6_10 O 1.0000 -0.0000 0.6812(4)
Cl2_11 Cl 1.0000 1.0000 0.7116(3)
O6_11 O 1.0000 1.0000 0.6812(4)
O7_5 O 0.9197(15) 0.9591(25) 0.7266(4)
Cl2_12 Cl 0.6666 0.3334 0.6218(3)
O5_6 O 0.7469(15) 0.373(2) 0.6068(4)
O6_12 O 0.6666 0.3334 0.6522(4)
O7_6 O 0.6257(25) 0.2531(15) 0.6068(4)
O8_6 O 0.627(2) 0.3743(25) 0.6068(4)
loop_
_geom_bond_atom_site_label_1
_geom_bond_atom_site_label_2
_geom_bond_site_symmetry_1
_geom_bond_site_symmetry_2
Ag8 N14 1_555 1_555
C146 H154 1_555 1_555
C147 H155 1_555 1_555
C152 C147 1_555 1_555
H159 C152 1_555 1_555
N14 C146 1_555 1_555
C147 N14 1_555 1_555
Ag8 N5 1_555 1_555
B3 C80 1_555 1_555
N5 C35 1_555 1_555
C35 H34 1_555 1_555
C40 C35 1_555 1_555
H39 C40 1_555 1_555
C45 C40 1_555 1_555
C50 C45 1_555 1_555
H44 C50 1_555 1_555
C55 N5 1_555 1_555
H49 C55 1_555 1_555
C65 C45 1_555 1_555
C70 C65 1_555 1_555
C75 C70 1_555 1_555
C80 C75 1_555 1_555
C85 C80 1_555 1_555
C100 C75 1_555 1_555
H89 C100 1_555 1_555
H94 C100 1_555 1_555
C105 C70 1_555 1_555
H99 C105 1_555 1_555
H104 C105 1_555 1_555
H109 C105 1_555 1_555
C110 H114 1_555 1_555
C115 C110 1_555 1_555
H119 C115 1_555 1_555
C119 C115 1_555 1_555
C121 C119 1_555 1_555
C133 B3 1_555 1_555
N12 Ag2 1_555 1_555
C50 C55 1_555 1_555
C65 C90 1_555 1_555
C85 C90 1_555 1_555
C110 N12 1_555 1_555
N9 Ag8 1_555 1_555
N10 Ag5 1_555 1_555
N16 Ag5 1_555 1_555
C149 H157 1_555 1_555
C154 C149 1_555 1_555
H161 C154 1_555 1_555
C158 C156 1_555 1_555
C162 C158 1_555 1_555
C167 C162 1_555 1_555
C170 B2 1_555 1_555
C175 C167 1_555 1_555
H167 C175 1_555 1_555
H172 C175 1_555 1_555
C180 C162 1_555 1_555
H182 C180 1_555 1_555
H187 C180 1_555 1_555
H192 C180 1_555 1_555
C149 N16 1_555 1_555
C154 C156 1_555 1_555
C167 C170 1_555 1_555
B3_2 C80_2 1_555 1_555
N10 C35_2 1_555 1_555
N9 C36 1_555 1_555
C35_2 H34_2 1_555 1_555
C36 H35 1_555 1_555
C40_2 C35_2 1_555 1_555
C41 C36 1_555 1_555
H39_2 C40_2 1_555 1_555
H40 C41 1_555 1_555
C45_2 C40_2 1_555 1_555
C46 C41 1_555 1_555
C50_2 C45_2 1_555 1_555
C51 C46 1_555 1_555
H44_2 C50_2 1_555 1_555
H45 C51 1_555 1_555
C55_2 N10 1_555 1_555
C56 N9 1_555 1_555
H49_2 C55_2 1_555 1_555
H50 C56 1_555 1_555
C60 H54 1_555 1_555
C61 H55 1_555 1_555
H59 C60 1_555 1_555
H60 C61 1_555 1_555
H64_2 C60 1_555 1_555
H65 C61 1_555 1_555
C65_2 C45_2 1_555 1_555
C66 C46 1_555 1_555
C70_2 C65_2 1_555 1_555
C71 C66 1_555 1_555
C75_2 C70_2 1_555 1_555
C76 C71 1_555 1_555
C80_2 C75_2 1_555 1_555
C81 B3_2 1_555 1_555
C85_2 C80_2 1_555 1_555
C86 C81 1_555 1_555
C90_2 C60 1_555 1_555
C91 C61 1_555 1_555
C95 C85_2 1_555 1_555
C96 C86 1_555 1_555
H69 C95 1_555 1_555
H70 C96 1_555 1_555
H74 C95 1_555 1_555
H75 C96 1_555 1_555
H79 C95 1_555 1_555
H80 C96 1_555 1_555
C100_2 C75_2 1_555 1_555
C101 C76 1_555 1_555
H84 C100_2 1_555 1_555
H85 C101 1_555 1_555
H89_2 C100_2 1_555 1_555
H90 C101 1_555 1_555
H94_2 C100_2 1_555 1_555
H95 C101 1_555 1_555
C105_2 C70_2 1_555 1_555
C106 C71 1_555 1_555
H99_2 C105_2 1_555 1_555
H100 C106 1_555 1_555
H104_2 C105_2 1_555 1_555
H105 C106 1_555 1_555
H109_2 C105_2 1_555 1_555
H110 C106 1_555 1_555
C124 C121_2 1_555 1_555
C125 C121_2 1_555 1_555
C129 C124 1_555 1_555
C130 C125 1_555 1_555
C133_2 B3_2 1_555 1_555
C136 C129 1_555 1_555
C137 C130 1_555 1_555
H124 C136 1_555 1_555
H125 C137 1_555 1_555
H129 C136 1_555 1_555
H130 C137 1_555 1_555
H134 C136 1_555 1_555
H135 C137 1_555 1_555
C141 C124 1_555 1_555
H139 C141 1_555 1_555
H144 C141 1_555 1_555
C50_2 C55_2 1_555 1_555
C51 C56 1_555 1_555
C65_2 C90_2 1_555 1_555
C66 C91 1_555 1_555
C76 C81 1_555 1_555
C85_2 C90_2 1_555 1_555
C86 C91 1_555 1_555
C129 C133_2 1_555 1_555
C130 C133_2 1_555 1_555
B2_2 C31 1_555 1_555
H26 C26 1_555 1_555
C27 C26 1_555 1_555
C28 C27 1_555 1_555
C29 C28 1_555 1_555
C30 C29 1_555 1_555
C31 C30 1_555 1_555
C32 C30 1_555 1_555
H27 C32 1_555 1_555
H28 C32 1_555 1_555
H29 C32 1_555 1_555
C33 C29 1_555 1_555
H31 C33 1_555 1_555
H32 C33 1_555 1_555
Ag9 N15 1_555 1_555
C148 H156 1_555 1_555
C149_2 H157_2 1_555 1_555
C153 C148 1_555 1_555
C154_2 C149_2 1_555 1_555
H160 C151 1_555 1_555
H161_2 C154_2 1_555 1_555
H162 C153 1_555 1_555
C155 C151 1_555 1_555
C156_2 C153 1_555 1_555
C157 C155 1_555 1_555
C158_2 C156_2 1_555 1_555
C159 C28 1_555 1_555
C160 C157 1_555 1_555
C161 C157 1_555 1_555
C162_2 C158_2 1_555 1_555
C163 C158_2 1_555 1_555
C164 C31 1_555 1_555
C165 C160 1_555 1_555
C166 C161 1_555 1_555
C167_2 C162_2 1_555 1_555
C168 C163 1_555 1_555
C169 B2_2 1_555 1_555
C170_2 B2_2 1_555 1_555
C171 C164 1_555 1_555
C172 C166 1_555 1_555
C173 C165 1_555 1_555
C174 C168 1_555 1_555
C175_2 C167_2 1_555 1_555
H163 C171 1_555 1_555
H164 C172 1_555 1_555
H165 C173 1_555 1_555
H166 C174 1_555 1_555
H167_2 C175_2 1_555 1_555
H168 C171 1_555 1_555
H169 C172 1_555 1_555
H170 C173 1_555 1_555
H171 C174 1_555 1_555
H172_2 C175_2 1_555 1_555
H173_2 C171 1_555 1_555
H174 C172 1_555 1_555
H175 C173 1_555 1_555
H176 C174 1_555 1_555
H177 C175_2 1_555 1_555
C176 C159 1_555 1_555
C177 C161 1_555 1_555
C178 C160 1_555 1_555
C179 C163 1_555 1_555
C180_2 C162_2 1_555 1_555
H178 C176 1_555 1_555
H179 C177 1_555 1_555
H181 C179 1_555 1_555
H182_2 C180_2 1_555 1_555
H183 C176 1_555 1_555
H184 C177 1_555 1_555
H185 C178 1_555 1_555
H186 C179 1_555 1_555
H187_2 C180_2 1_555 1_555
H188 C176 1_555 1_555
H189 C177 1_555 1_555
H190 C178 1_555 1_555
H191 C179 1_555 1_555
H192_2 C180_2 1_555 1_555
N15 C148 1_555 1_555
C149_2 N15 1_555 1_555
C154_2 C156_2 1_555 1_555
C159 C164 1_555 1_555
C165 C169 1_555 1_555
C166 C169 1_555 1_555
C167_2 C170_2 1_555 1_555
C168 C170_2 1_555 1_555
N10_2 Ag5_2 1_555 1_555
N16_2 Ag5_2 1_555 1_555
N9_2 Ag9 1_555 1_555
B2_3 C31_2 1_555 1_555
H26_2 C26_2 1_555 1_555
C27_2 C26_2 1_555 1_555
C28_2 C27_2 1_555 1_555
C29_2 C28_2 1_555 1_555
C30_2 C29_2 1_555 1_555
C31_2 C30_2 1_555 1_555
C32_2 C30_2 1_555 1_555
H27_2 C32_2 1_555 1_555
H28_2 C32_2 1_555 1_555
H29_2 C32_2 1_555 1_555
C33_2 C29_2 1_555 1_555
H31_2 C33_2 1_555 1_555
H32_2 C33_2 1_555 1_555
C148_2 H156_2 1_555 1_555
C149_3 H157_3 1_555 1_555
C153_2 C148_2 1_555 1_555
C154_3 C149_3 1_555 1_555
H160_2 C151_2 1_555 1_555
H161_3 C154_3 1_555 1_555
H162_2 C153_2 1_555 1_555
C155_2 C151_2 1_555 1_555
C156_3 C153_2 1_555 1_555
C157_2 C155_2 1_555 1_555
C158_3 C156_3 1_555 1_555
C159_2 C28_2 1_555 1_555
C160_2 C157_2 1_555 1_555
C161_2 C157_2 1_555 1_555
C162_3 C158_3 1_555 1_555
C163_2 C158_3 1_555 1_555
C164_2 C31_2 1_555 1_555
C165_2 C160_2 1_555 1_555
C166_2 C161_2 1_555 1_555
C167_3 C162_3 1_555 1_555
C168_2 C163_2 1_555 1_555
C169_2 B2_3 1_555 1_555
C170_3 B2_3 1_555 1_555
C171_2 C164_2 1_555 1_555
C172_2 C166_2 1_555 1_555
C173_2 C165_2 1_555 1_555
C174_2 C168_2 1_555 1_555
C175_3 C167_3 1_555 1_555
H163_2 C171_2 1_555 1_555
H164_2 C172_2 1_555 1_555
H165_2 C173_2 1_555 1_555
H166_2 C174_2 1_555 1_555
H167_3 C175_3 1_555 1_555
H168_2 C171_2 1_555 1_555
H169_2 C172_2 1_555 1_555
H170_2 C173_2 1_555 1_555
H171_2 C174_2 1_555 1_555
H172_3 C175_3 1_555 1_555
H173_3 C171_2 1_555 1_555
H174_2 C172_2 1_555 1_555
H175_2 C173_2 1_555 1_555
H176_2 C174_2 1_555 1_555
H177_2 C175_3 1_555 1_555
C176_2 C159_2 1_555 1_555
C177_2 C161_2 1_555 1_555
C178_2 C160_2 1_555 1_555
C179_2 C163_2 1_555 1_555
C180_3 C162_3 1_555 1_555
H178_2 C176_2 1_555 1_555
H179_2 C177_2 1_555 1_555
H181_2 C179_2 1_555 1_555
H182_3 C180_3 1_555 1_555
H183_2 C176_2 1_555 1_555
H184_2 C177_2 1_555 1_555
H185_2 C178_2 1_555 1_555
H186_2 C179_2 1_555 1_555
H187_3 C180_3 1_555 1_555
H188_2 C176_2 1_555 1_555
H189_2 C177_2 1_555 1_555
H190_2 C178_2 1_555 1_555
H191_2 C179_2 1_555 1_555
H192_3 C180_3 1_555 1_555
N16_2 C148_2 1_555 1_555
C149_3 N16_2 1_555 1_555
C154_3 C156_3 1_555 1_555
C159_2 C164_2 1_555 1_555
C165_2 C169_2 1_555 1_555
C166_2 C169_2 1_555 1_555
C167_3 C170_3 1_555 1_555
C168_2 C170_3 1_555 1_555
N11 Ag7 1_555 1_555
N17 Ag7 1_555 1_555
Ag5_3 N6 1_555 1_555
N6 C36_2 1_555 1_555
C36_2 H35_2 1_555 1_555
C41_2 C36_2 1_555 1_555
H40_2 C41_2 1_555 1_555
C46_2 C41_2 1_555 1_555
C50_3 C45_3 1_555 1_555
C51_2 C46_2 1_555 1_555
H44_3 C50_3 1_555 1_555
H45_2 C51_2 1_555 1_555
C55_3 N10_2 1_555 1_555
C56_2 N6 1_555 1_555
H49_3 C55_3 1_555 1_555
H50_3 C56_2 1_555 1_555
C60_2 H54_2 1_555 1_555
C61_2 H55_2 1_555 1_555
H59_2 C60_2 1_555 1_555
H60_2 C61_2 1_555 1_555
H64_3 C60_2 1_555 1_555
H65_2 C61_2 1_555 1_555
C66_2 C46_2 1_555 1_555
C71_2 C66_2 1_555 1_555
C76_2 C71_2 1_555 1_555
C86_2 C81_2 1_555 1_555
C90_3 C60_2 1_555 1_555
C91_2 C61_2 1_555 1_555
C95_2 C85_3 1_555 1_555
H69_2 C95_2 1_555 1_555
H74_2 C95_2 1_555 1_555
H79_2 C95_2 1_555 1_555
C101_2 C76_2 1_555 1_555
H90_2 C101_2 1_555 1_555
C106_2 C71_2 1_555 1_555
H100_2 C106_2 1_555 1_555
H105_2 C106_2 1_555 1_555
H110_2 C106_2 1_555 1_555
N16_3 Ag5_3 1_555 1_555
C50_3 C55_3 1_555 1_555
C51_2 C56_2 1_555 1_555
C66_2 C91_2 1_555 1_555
C76_2 C81_2 1_555 1_555
C85_3 C90_3 1_555 1_555
C86_2 C91_2 1_555 1_555
C147_2 H155_2 1_555 1_555
C148_3 H156_3 1_555 1_555
C152_2 C147_2 1_555 1_555
C153_3 C148_3 1_555 1_555
H159_2 C152_2 1_555 1_555
H162_3 C153_3 1_555 1_555
C156_4 C153_3 1_555 1_555
C157_3 C155_3 1_555 1_555
C160_3 C157_3 1_555 1_555
C165_3 C160_3 1_555 1_555
C168_3 C163_3 1_555 1_555
C169_3 B2_4 1_555 1_555
C170_4 B2_4 1_555 1_555
C173_3 C165_3 1_555 1_555
C174_3 C168_3 1_555 1_555
H165_3 C173_3 1_555 1_555
H166_3 C174_3 1_555 1_555
H170_3 C173_3 1_555 1_555
H171_3 C174_3 1_555 1_555
H175_3 C173_3 1_555 1_555
H176_3 C174_3 1_555 1_555
C178_3 C160_3 1_555 1_555
C179_3 C163_3 1_555 1_555
H180_2 C178_3 1_555 1_555
H181_3 C179_3 1_555 1_555
H185_3 C178_3 1_555 1_555
H186_3 C179_3 1_555 1_555
H190_3 C178_3 1_555 1_555
H191_3 C179_3 1_555 1_555
N16_3 C148_3 1_555 1_555
C147_2 N17 1_555 1_555
C152_2 C155_3 1_555 1_555
C165_3 C169_3 1_555 1_555
C168_3 C170_4 1_555 1_555
C157_4 C156_4 1_555 1_555
C163_3 C157_4 1_555 1_555
N11 C37 1_555 1_555
C37 H36 1_555 1_555
C42 C37 1_555 1_555
H41 C42 1_555 1_555
C47 C42 1_555 1_555
C52 C47 1_555 1_555
C53 C48 1_555 1_555
H46 C52 1_555 1_555
H47 C53 1_555 1_555
C57 N11 1_555 1_555
C58 N9_2 1_555 1_555
H51_2 C57 1_555 1_555
H52 C58 1_555 1_555
C62 H56 1_555 1_555
C63 H57 1_555 1_555
H61 C62 1_555 1_555
H62 C63 1_555 1_555
H66 C62 1_555 1_555
H67 C63 1_555 1_555
C67 C47 1_555 1_555
C72 C67 1_555 1_555
C77 C72 1_555 1_555
C82 C77 1_555 1_555
C87 C82 1_555 1_555
C92 C62 1_555 1_555
C93 C63 1_555 1_555
C98 C88 1_555 1_555
H72 C98 1_555 1_555
H77 C98 1_555 1_555
H82 C98 1_555 1_555
C102 C77 1_555 1_555
H91 C102 1_555 1_555
C107 C72 1_555 1_555
H101 C107 1_555 1_555
H106 C107 1_555 1_555
H111 C107 1_555 1_555
C52 C57 1_555 1_555
C53 C58 1_555 1_555
C67 C92 1_555 1_555
C87 C92 1_555 1_555
C88 C93 1_555 1_555
C25 H25 1_555 1_555
N3 Ag1 1_555 1_555
N9_3 Ag1 1_555 1_555
C145 N3 1_555 1_555
H153 C145 1_555 1_555
H158 C150 1_555 1_555
C25 N3 1_555 1_555
C145 C150 1_555 1_555
N11_2 Ag3 1_555 1_555
N17_2 Ag3 1_555 1_555
C25_2 H25_2 1_555 1_555
C145_2 N17_2 1_555 1_555
H153_2 C145_2 1_555 1_555
H158_2 C150_2 1_555 1_555
C25_2 N17_2 1_555 1_555
C145_2 C150_2 1_555 1_555
C4 C3 1_555 1_555
H3 C4 1_555 1_555
C5 N11_2 1_555 1_555
H4_2 C5 1_555 1_555
C6 H5 1_555 1_555
H6 C6 1_555 1_555
H7 C6 1_555 1_555
C12 C6 1_555 1_555
C13 C11 1_555 1_555
H8 C13 1_555 1_555
H9 C13 1_555 1_555
H10 C13 1_555 1_555
Ag3_2 N4 1_555 1_555
N4 C34 1_555 1_555
C34 H33 1_555 1_555
C39 C34 1_555 1_555
H38 C39 1_555 1_555
C44 C39 1_555 1_555
C49 C44 1_555 1_555
H43 C49 1_555 1_555
C54 N4 1_555 1_555
H48_2 C54 1_555 1_555
C59 H53 1_555 1_555
H58 C59 1_555 1_555
H63 C59 1_555 1_555
C64 C44 1_555 1_555
C69 C64 1_555 1_555
C74 C69 1_555 1_555
C84 C79 1_555 1_555
C89 C59 1_555 1_555
C99 C74 1_555 1_555
H88 C99 1_555 1_555
C104 C69 1_555 1_555
H98 C104 1_555 1_555
H103 C104 1_555 1_555
H108 C104 1_555 1_555
C4 C5 1_555 1_555
C11 C12 1_555 1_555
C49 C54 1_555 1_555
C64 C89 1_555 1_555
C74 C79 1_555 1_555
C84 C89 1_555 1_555
N11_3 Ag3_2 1_555 1_555
N17_3 Ag3_2 1_555 1_555
B2_5 C31_3 1_555 1_555
C25_3 H25_3 1_555 1_555
C26_3 C25_3 1_555 1_555
H26_3 C26_3 1_555 1_555
C27_3 C26_3 1_555 1_555
C28_3 C27_3 1_555 1_555
C29_3 C28_3 1_555 1_555
C30_3 C29_3 1_555 1_555
C31_3 C30_3 1_555 1_555
C32_3 C30_3 1_555 1_555
H27_3 C32_3 1_555 1_555
H28_3 C32_3 1_555 1_555
C33_3 C29_3 1_555 1_555
H30_3 C33_3 1_555 1_555
H31_3 C33_3 1_555 1_555
H32_3 C33_3 1_555 1_555
C145_3 N17_3 1_555 1_555
H153_3 C145_3 1_555 1_555
C150_3 C27_3 1_555 1_555
H158_3 C150_3 1_555 1_555
C159_3 C28_3 1_555 1_555
C164_3 C31_3 1_555 1_555
C171_3 C164_3 1_555 1_555
H163_3 C171_3 1_555 1_555
H168_3 C171_3 1_555 1_555
C176_3 C159_3 1_555 1_555
H178_3 C176_3 1_555 1_555
H183_3 C176_3 1_555 1_555
H188_3 C176_3 1_555 1_555
C25_3 N17_3 1_555 1_555
C145_3 C150_3 1_555 1_555
C159_3 C164_3 1_555 1_555
N11_3 C1 1_555 1_555
C1 H1 1_555 1_555
C2 C1 1_555 1_555
H2 C2 1_555 1_555
C3_2 C2 1_555 1_555
C4_2 C3_2 1_555 1_555
H3_2 C4_2 1_555 1_555
C5_2 N11_3 1_555 1_555
H4_3 C5_2 1_555 1_555
C6_2 H5_2 1_555 1_555
H6_2 C6_2 1_555 1_555
H7_2 C6_2 1_555 1_555
C7 C3_2 1_555 1_555
C8 C7 1_555 1_555
C9 C8 1_555 1_555
C10 C9 1_555 1_555
C11_2 C10 1_555 1_555
C12_2 C6_2 1_555 1_555
C14 C9 1_555 1_555
H12 C14 1_555 1_555
C15 C8 1_555 1_555
H14 C15 1_555 1_555
H15 C15 1_555 1_555
H16 C15 1_555 1_555
C49_2 C44_2 1_555 1_555
H43_2 C49_2 1_555 1_555
C54_2 N9_3 1_555 1_555
H48_3 C54_2 1_555 1_555
C59_2 H53_2 1_555 1_555
H58_2 C59_2 1_555 1_555
H63_2 C59_2 1_555 1_555
C89_2 C59_2 1_555 1_555
C94 C84_2 1_555 1_555
H68 C94 1_555 1_555
H73 C94 1_555 1_555
H78_2 C94 1_555 1_555
C4_2 C5_2 1_555 1_555
C7 C12_2 1_555 1_555
C11_2 C12_2 1_555 1_555
C49_2 C54_2 1_555 1_555
C84_2 C89_2 1_555 1_555
Ag2_2 N2 1_555 1_555
C19 C18 1_555 1_555
C22 B1 1_555 1_555
N4_2 C34_2 1_555 1_555
C34_2 H33_2 1_555 1_555
C39_2 C34_2 1_555 1_555
H38_2 C39_2 1_555 1_555
C44_3 C39_2 1_555 1_555
C49_3 C44_3 1_555 1_555
H43_3 C49_3 1_555 1_555
C54_3 N4_2 1_555 1_555
C59_3 H53_3 1_555 1_555
H58_3 C59_3 1_555 1_555
H63_3 C59_3 1_555 1_555
C64_2 C44_3 1_555 1_555
C69_2 C64_2 1_555 1_555
C74_2 C69_2 1_555 1_555
C79_2 B1 1_555 1_555
C84_3 C79_2 1_555 1_555
C89_3 C59_3 1_555 1_555
C94_2 C84_3 1_555 1_555
H68_2 C94_2 1_555 1_555
H73_2 C94_2 1_555 1_555
H78_3 C94_2 1_555 1_555
C99_2 C74_2 1_555 1_555
H88_2 C99_2 1_555 1_555
H93 C99_2 1_555 1_555
C104_2 C69_2 1_555 1_555
H98_2 C104_2 1_555 1_555
H103_2 C104_2 1_555 1_555
H108_2 C104_2 1_555 1_555
C109 N2 1_555 1_555
H113 C109 1_555 1_555
C114 C18 1_555 1_555
H118 C114 1_555 1_555
C123 C19 1_555 1_555
C128 C22 1_555 1_555
C135 C128 1_555 1_555
H123 C135 1_555 1_555
H128 C135 1_555 1_555
H133 C135 1_555 1_555
C140 C123 1_555 1_555
H138 C140 1_555 1_555
H143 C140 1_555 1_555
H148 C140 1_555 1_555
C49_3 C54_3 1_555 1_555
C64_2 C89_3 1_555 1_555
C74_2 C79_2 1_555 1_555
C84_3 C89_3 1_555 1_555
C109 C114 1_555 1_555
C123 C128 1_555 1_555
B1_2 C10_2 1_555 1_555
C1_2 H1_2 1_555 1_555
C2_2 C1_2 1_555 1_555
H2_2 C2_2 1_555 1_555
C8_2 C7_2 1_555 1_555
C9_2 C8_2 1_555 1_555
C10_2 C9_2 1_555 1_555
C14_2 C9_2 1_555 1_555
H11_2 C14_2 1_555 1_555
H12_2 C14_2 1_555 1_555
H13 C14_2 1_555 1_555
C15_2 C8_2 1_555 1_555
H14_2 C15_2 1_555 1_555
H15_2 C15_2 1_555 1_555
H16_2 C15_2 1_555 1_555
C20 C19_2 1_555 1_555
C21 C20 1_555 1_555
C22_2 B1_2 1_555 1_555
C23 C21 1_555 1_555
H19 C23 1_555 1_555
H20 C23 1_555 1_555
H21 C23 1_555 1_555
H68_3 C94_3 1_555 1_555
H73_3 C94_3 1_555 1_555
C123_2 C19_2 1_555 1_555
C128_2 C22_2 1_555 1_555
C135_2 C128_2 1_555 1_555
H123_2 C135_2 1_555 1_555
H128_2 C135_2 1_555 1_555
H133_2 C135_2 1_555 1_555
C140_2 C123_2 1_555 1_555
H138_2 C140_2 1_555 1_555
H143_2 C140_2 1_555 1_555
C21 C22_2 1_555 1_555
C123_2 C128_2 1_555 1_555
Ag2_3 N2_2 1_555 1_555
B1_3 C10_3 1_555 1_555
N1 C1_3 1_555 1_555
C1_3 H1_3 1_555 1_555
C2_3 C1_3 1_555 1_555
H2_3 C2_3 1_555 1_555
C3_3 C2_3 1_555 1_555
C4_3 C3_3 1_555 1_555
H3_3 C4_3 1_555 1_555
C5_3 N1 1_555 1_555
C6_3 H5_3 1_555 1_555
H6_3 C6_3 1_555 1_555
H7_3 C6_3 1_555 1_555
C7_3 C3_3 1_555 1_555
C8_3 C7_3 1_555 1_555
C9_3 C8_3 1_555 1_555
C10_3 C9_3 1_555 1_555
C11_3 C10_3 1_555 1_555
C12_3 C6_3 1_555 1_555
C13_2 C11_3 1_555 1_555
H8_2 C13_2 1_555 1_555
H9_2 C13_2 1_555 1_555
H10_3 C13_2 1_555 1_555
C14_3 C9_3 1_555 1_555
H12_3 C14_3 1_555 1_555
H13_2 C14_3 1_555 1_555
C15_3 C8_3 1_555 1_555
H14_3 C15_3 1_555 1_555
H15_3 C15_3 1_555 1_555
H16_3 C15_3 1_555 1_555
C16 H17 1_555 1_555
C17 C16 1_555 1_555
H18 C17 1_555 1_555
C18_2 C17 1_555 1_555
C19_3 C18_2 1_555 1_555
C20_2 C19_3 1_555 1_555
C21_2 C20_2 1_555 1_555
C22_3 B1_3 1_555 1_555
C23_2 C21_2 1_555 1_555
H19_2 C23_2 1_555 1_555
H20_2 C23_2 1_555 1_555
H21_2 C23_2 1_555 1_555
C24 C20_2 1_555 1_555
H22_2 C24 1_555 1_555
H23 C24 1_555 1_555
H24 C24 1_555 1_555
N2_2 C16 1_555 1_555
C4_3 C5_3 1_555 1_555
C7_3 C12_3 1_555 1_555
C11_3 C12_3 1_555 1_555
C21_2 C22_3 1_555 1_555
H8_3 C13_3 1_555 1_555
H9_3 C13_3 1_555 1_555
C20_3 C19_4 1_555 1_555
C21_3 C20_3 1_555 1_555
C22_4 B1_4 1_555 1_555
C23_3 C21_3 1_555 1_555
H19_3 C23_3 1_555 1_555
H20_3 C23_3 1_555 1_555
H21_3 C23_3 1_555 1_555
C24_2 C20_3 1_555 1_555
H22_3 C24_2 1_555 1_555
H23_2 C24_2 1_555 1_555
C34_3 H33_3 1_555 1_555
C39_3 C34_3 1_555 1_555
H38_3 C39_3 1_555 1_555
C69_3 C64_3 1_555 1_555
C74_3 C69_3 1_555 1_555
C79_3 B1_4 1_555 1_555
C99_3 C74_3 1_555 1_555
H83_3 C99_3 1_555 1_555
H88_3 C99_3 1_555 1_555
H93_3 C99_3 1_555 1_555
C104_3 C69_3 1_555 1_555
H98_3 C104_3 1_555 1_555
H103_3 C104_3 1_555 1_555
H108_3 C104_3 1_555 1_555
C123_3 C19_4 1_555 1_555
C128_3 C22_4 1_555 1_555
C135_3 C128_3 1_555 1_555
H123_3 C135_3 1_555 1_555
H128_3 C135_3 1_555 1_555
H133_3 C135_3 1_555 1_555
C21_3 C22_4 1_555 1_555
C74_3 C79_3 1_555 1_555
C123_3 C128_3 1_555 1_555
Ag7_2 N8 1_555 1_555
N8 C38 1_555 1_555
N11_4 Ag7_2 1_555 1_555
C38 H37 1_555 1_555
C43 C38 1_555 1_555
H42 C43 1_555 1_555
C48_2 C43 1_555 1_555
C53_2 C48_2 1_555 1_555
H47_2 C53_2 1_555 1_555
C58_2 N8 1_555 1_555
H52_2 C58_2 1_555 1_555
C68 C48_2 1_555 1_555
C73 C68 1_555 1_555
C78 C73 1_555 1_555
C83 B4 1_555 1_555
C88_2 C83 1_555 1_555
C103 C78 1_555 1_555
H92 C103 1_555 1_555
H97 C103 1_555 1_555
C108 C73 1_555 1_555
H102 C108 1_555 1_555
H107 C108 1_555 1_555
H112 C108 1_555 1_555
C113 H117 1_555 1_555
C118 C113 1_555 1_555
H122 C118 1_555 1_555
C122 C120 1_555 1_555
C134 B4 1_555 1_555
N13 Ag2_4 1_555 1_555
N17_4 Ag7_2 1_555 1_555
C53_2 C58_2 1_555 1_555
C68 C93_2 1_555 1_555
C78 C83 1_555 1_555
C88_2 C93_2 1_555 1_555
C113 N13 1_555 1_555
C118 C120 1_555 1_555
C146_2 H154_2 1_555 1_555
C147_3 H155_3 1_555 1_555
C152_3 C147_3 1_555 1_555
H159_3 C152_3 1_555 1_555
N17_4 C146_2 1_555 1_555
C147_3 N17_4 1_555 1_555
Ag7_3 N8_2 1_555 1_555
B4_2 C82_2 1_555 1_555
N11_4 C37_2 1_555 1_555
N8_2 C38_2 1_555 1_555
C37_2 H36_2 1_555 1_555
C38_2 H37_2 1_555 1_555
C42_2 C37_2 1_555 1_555
C43_2 C38_2 1_555 1_555
H41_2 C42_2 1_555 1_555
H42_2 C43_2 1_555 1_555
C47_2 C42_2 1_555 1_555
C48_3 C43_2 1_555 1_555
C52_2 C47_2 1_555 1_555
C53_3 C48_3 1_555 1_555
H46_2 C52_2 1_555 1_555
H47_3 C53_3 1_555 1_555
C57_2 N11_4 1_555 1_555
C58_3 N8_2 1_555 1_555
H51_3 C57_2 1_555 1_555
H52_3 C58_3 1_555 1_555
C62_2 H56_2 1_555 1_555
C63_2 H57_2 1_555 1_555
H61_2 C62_2 1_555 1_555
H62_2 C63_2 1_555 1_555
H66_2 C62_2 1_555 1_555
H67_3 C63_2 1_555 1_555
C67_2 C47_2 1_555 1_555
C68_2 C48_3 1_555 1_555
C72_2 C67_2 1_555 1_555
C73_2 C68_2 1_555 1_555
C77_2 C72_2 1_555 1_555
C78_2 C73_2 1_555 1_555
C82_2 C77_2 1_555 1_555
C83_2 B4_2 1_555 1_555
C87_2 C82_2 1_555 1_555
C88_3 C83_2 1_555 1_555
C92_2 C62_2 1_555 1_555
C93_3 C63_2 1_555 1_555
C97 C87_2 1_555 1_555
C98_2 C88_3 1_555 1_555
H71 C97 1_555 1_555
H72_2 C98_2 1_555 1_555
H76 C97 1_555 1_555
H77_2 C98_2 1_555 1_555
H81_2 C97 1_555 1_555
H82_2 C98_2 1_555 1_555
C102_2 C77_2 1_555 1_555
C103_2 C78_2 1_555 1_555
H86 C102_2 1_555 1_555
H87 C103_2 1_555 1_555
H91_2 C102_2 1_555 1_555
H92_2 C103_2 1_555 1_555
H96 C102_2 1_555 1_555
H97_2 C103_2 1_555 1_555
C107_2 C72_2 1_555 1_555
C108_2 C73_2 1_555 1_555
H101_2 C107_2 1_555 1_555
H102_2 C108_2 1_555 1_555
H106_2 C107_2 1_555 1_555
H107_2 C108_2 1_555 1_555
H111_2 C107_2 1_555 1_555
H112_2 C108_2 1_555 1_555
C126 C122_2 1_555 1_555
C127 C122_2 1_555 1_555
C131 C126 1_555 1_555
C132 C127 1_555 1_555
C134_2 B4_2 1_555 1_555
C138 C131 1_555 1_555
C139 C132 1_555 1_555
H126 C138 1_555 1_555
H127 C139 1_555 1_555
H131 C138 1_555 1_555
H132 C139 1_555 1_555
H136 C138 1_555 1_555
H137 C139 1_555 1_555
C144 C127 1_555 1_555
H142 C144 1_555 1_555
H147 C144 1_555 1_555
N17_5 Ag7_3 1_555 1_555
C52_2 C57_2 1_555 1_555
C53_3 C58_3 1_555 1_555
C67_2 C92_2 1_555 1_555
C68_2 C93_3 1_555 1_555
C78_2 C83_2 1_555 1_555
C87_2 C92_2 1_555 1_555
C88_3 C93_3 1_555 1_555
C131 C134_2 1_555 1_555
C132 C134_2 1_555 1_555
C146_3 H154_3 1_555 1_555
C151_3 C146_3 1_555 1_555
H160_3 C151_3 1_555 1_555
C155_4 C151_3 1_555 1_555
C166_3 C161_3 1_555 1_555
C169_4 B2_6 1_555 1_555
C172_3 C166_3 1_555 1_555
H164_3 C172_3 1_555 1_555
H169_3 C172_3 1_555 1_555
C177_3 C161_3 1_555 1_555
H179_3 C177_3 1_555 1_555
H184_3 C177_3 1_555 1_555
H189_3 C177_3 1_555 1_555
N17_5 C146_3 1_555 1_555
C166_3 C169_4 1_555 1_555
C158_4 C155_4 1_555 1_555
C161_3 C158_4 1_555 1_555
C62_3 H56_3 1_555 1_555
H61_3 C62_3 1_555 1_555
H71_2 C97_2 1_555 1_555
H76_2 C97_2 1_555 1_555
H81_3 C97_2 1_555 1_555
C122_3 C120_2 1_555 1_555
C126_2 C122_3 1_555 1_555
C131_2 C126_2 1_555 1_555
C134_3 B4_3 1_555 1_555
C138_2 C131_2 1_555 1_555
H126_2 C138_2 1_555 1_555
H131_2 C138_2 1_555 1_555
H136_2 C138_2 1_555 1_555
C143 C126_2 1_555 1_555
H141_2 C143 1_555 1_555
H146 C143 1_555 1_555
H151 C143 1_555 1_555
N13_2 Ag2_5 1_555 1_555
C131_2 C134_3 1_555 1_555
C61_3 H55_3 1_555 1_555
H60_3 C61_3 1_555 1_555
H70_2 C96_2 1_555 1_555
H75_2 C96_2 1_555 1_555
H80_3 C96_2 1_555 1_555
C121_3 C119_2 1_555 1_555
C125_2 C121_3 1_555 1_555
C130_2 C125_2 1_555 1_555
C133_3 B3_3 1_555 1_555
C137_2 C130_2 1_555 1_555
H125_2 C137_2 1_555 1_555
H130_2 C137_2 1_555 1_555
H135_2 C137_2 1_555 1_555
C142 C125_2 1_555 1_555
H140_2 C142 1_555 1_555
H145 C142 1_555 1_555
H150 C142 1_555 1_555
N12_2 Ag2_6 1_555 1_555
C130_2 C133_3 1_555 1_555
N6_2 C36_3 1_555 1_555
C36_3 H35_3 1_555 1_555
C41_3 C36_3 1_555 1_555
H40_3 C41_3 1_555 1_555
C46_3 C41_3 1_555 1_555
C51_3 C46_3 1_555 1_555
H45_3 C51_3 1_555 1_555
C56_3 N6_2 1_555 1_555
C63_3 H57_3 1_555 1_555
H62_3 C63_3 1_555 1_555
C66_3 C46_3 1_555 1_555
C71_3 C66_3 1_555 1_555
C76_3 C71_3 1_555 1_555
C81_3 B3_4 1_555 1_555
C86_3 C81_3 1_555 1_555
H72_3 C98_3 1_555 1_555
H77_3 C98_3 1_555 1_555
H82_3 C98_3 1_555 1_555
C101_3 C76_3 1_555 1_555
H90_3 C101_3 1_555 1_555
H95_2 C101_3 1_555 1_555
C106_3 C71_3 1_555 1_555
H100_3 C106_3 1_555 1_555
H105_3 C106_3 1_555 1_555
H110_3 C106_3 1_555 1_555
C111 H115 1_555 1_555
C116 C111 1_555 1_555
H120 C116 1_555 1_555
C121_4 C119_3 1_555 1_555
C122_4 C120_3 1_555 1_555
C127_2 C122_4 1_555 1_555
C132_2 C127_2 1_555 1_555
C133_4 B3_4 1_555 1_555
C134_4 B4_4 1_555 1_555
C139_2 C132_2 1_555 1_555
H127_2 C139_2 1_555 1_555
H132_2 C139_2 1_555 1_555
H137_2 C139_2 1_555 1_555
C144_2 C127_2 1_555 1_555
H142_2 C144_2 1_555 1_555
H147_2 C144_2 1_555 1_555
H152 C144_2 1_555 1_555
N12_3 Ag2_7 1_555 1_555
N13_3 Ag2_7 1_555 1_555
C51_3 C56_3 1_555 1_555
C66_3 C91_3 1_555 1_555
C76_3 C81_3 1_555 1_555
C86_3 C91_3 1_555 1_555
C111 N12_3 1_555 1_555
C116 C119_3 1_555 1_555
C132_2 C134_4 1_555 1_555
Ag2_8 N2_3 1_555 1_555
C16_2 H17_2 1_555 1_555
C17_2 C16_2 1_555 1_555
H18_2 C17_2 1_555 1_555
C18_3 C17_2 1_555 1_555
H23_3 C24_3 1_555 1_555
H24_2 C24_3 1_555 1_555
N2_3 C16_2 1_555 1_555
B3_5 C80_3 1_555 1_555
C35_3 H34_3 1_555 1_555
C40_3 C35_3 1_555 1_555
H39_3 C40_3 1_555 1_555
C70_3 C65_3 1_555 1_555
C75_3 C70_3 1_555 1_555
C80_3 C75_3 1_555 1_555
H70_3 C96_3 1_555 1_555
H75_3 C96_3 1_555 1_555
C100_3 C75_3 1_555 1_555
H84_3 C100_3 1_555 1_555
H89_3 C100_3 1_555 1_555
H94_3 C100_3 1_555 1_555
C105_3 C70_3 1_555 1_555
H99_3 C105_3 1_555 1_555
H104_3 C105_3 1_555 1_555
H109_3 C105_3 1_555 1_555
C109_2 N2_3 1_555 1_555
C110_2 H114_2 1_555 1_555
C111_2 H115_2 1_555 1_555
C112 H116 1_555 1_555
C113_2 H117_2 1_555 1_555
H113_2 C109_2 1_555 1_555
C114_2 C18_3 1_555 1_555
C115_2 C110_2 1_555 1_555
C116_2 C111_2 1_555 1_555
C117 C112 1_555 1_555
C118_2 C113_2 1_555 1_555
H118_2 C114_2 1_555 1_555
H119_2 C115_2 1_555 1_555
H120_2 C116_2 1_555 1_555
H121 C117 1_555 1_555
H122_2 C118_2 1_555 1_555
C119_4 C115_2 1_555 1_555
C120_4 C117 1_555 1_555
C121_5 C119_4 1_555 1_555
C124_2 C121_5 1_555 1_555
C125_3 C121_5 1_555 1_555
C129_2 C124_2 1_555 1_555
C130_3 C125_3 1_555 1_555
C133_5 B3_5 1_555 1_555
C136_2 C129_2 1_555 1_555
C137_3 C130_3 1_555 1_555
H124_2 C136_2 1_555 1_555
H125_3 C137_3 1_555 1_555
H129_2 C136_2 1_555 1_555
H130_3 C137_3 1_555 1_555
H134_2 C136_2 1_555 1_555
H135_3 C137_3 1_555 1_555
C141_2 C124_2 1_555 1_555
C142_2 C125_3 1_555 1_555
H139_2 C141_2 1_555 1_555
H140_3 C142_2 1_555 1_555
H144_2 C141_2 1_555 1_555
H145_2 C142_2 1_555 1_555
H146_2 C143_2 1_555 1_555
H149 C141_2 1_555 1_555
H150_2 C142_2 1_555 1_555
H151_2 C143_2 1_555 1_555
N12_4 Ag2_8 1_555 1_555
N13_4 Ag2_8 1_555 1_555
C109_2 C114_2 1_555 1_555
C110_2 N12_4 1_555 1_555
C111_2 N12_4 1_555 1_555
C112 N13_4 1_555 1_555
C113_2 N13_4 1_555 1_555
C116_2 C119_4 1_555 1_555
C118_2 C120_4 1_555 1_555
C129_2 C133_5 1_555 1_555
C130_3 C133_5 1_555 1_555
B4_5 C82_3 1_555 1_555
N7 C37_3 1_555 1_555
C37_3 H36_3 1_555 1_555
C42_3 C37_3 1_555 1_555
H41_3 C42_3 1_555 1_555
C47_3 C42_3 1_555 1_555
C52_3 C47_3 1_555 1_555
H46_3 C52_3 1_555 1_555
C57_3 N7 1_555 1_555
C60_3 H54_3 1_555 1_555
H59_3 C60_3 1_555 1_555
C67_3 C47_3 1_555 1_555
C72_3 C67_3 1_555 1_555
C77_3 C72_3 1_555 1_555
C82_3 C77_3 1_555 1_555
C87_3 C82_3 1_555 1_555
H69_3 C95_3 1_555 1_555
H74_3 C95_3 1_555 1_555
H79_3 C95_3 1_555 1_555
C102_3 C77_3 1_555 1_555
H91_3 C102_3 1_555 1_555
H96_2 C102_3 1_555 1_555
C107_3 C72_3 1_555 1_555
H101_3 C107_3 1_555 1_555
H106_3 C107_3 1_555 1_555
H111_3 C107_3 1_555 1_555
C112_2 H116_2 1_555 1_555
C117_2 C112_2 1_555 1_555
H121_2 C117_2 1_555 1_555
C120_5 C117_2 1_555 1_555
C121_6 C119_5 1_555 1_555
C122_5 C120_5 1_555 1_555
C124_3 C121_6 1_555 1_555
C129_3 C124_3 1_555 1_555
C133_6 B3_6 1_555 1_555
C134_5 B4_5 1_555 1_555
C136_3 C129_3 1_555 1_555
H124_3 C136_3 1_555 1_555
H129_3 C136_3 1_555 1_555
H134_3 C136_3 1_555 1_555
C141_3 C124_3 1_555 1_555
H139_3 C141_3 1_555 1_555
H144_3 C141_3 1_555 1_555
H149_2 C141_3 1_555 1_555
N12_5 Ag2_9 1_555 1_555
N13_5 Ag2_9 1_555 1_555
C52_3 C57_3 1_555 1_555
C67_3 C92_3 1_555 1_555
C87_3 C92_3 1_555 1_555
C112_2 N13_5 1_555 1_555
C129_3 C133_6 1_555 1_555
Ag2_10 N2_4 1_555 1_555
C16_3 H17_3 1_555 1_555
C17_3 C16_3 1_555 1_555
H18_3 C17_3 1_555 1_555
C18_4 C17_3 1_555 1_555
N2_4 C16_3 1_555 1_555
C38_3 H37_3 1_555 1_555
C43_3 C38_3 1_555 1_555
H42_3 C43_3 1_555 1_555
C73_3 C68_3 1_555 1_555
C78_3 C73_3 1_555 1_555
C83_3 B4_6 1_555 1_555
H71_3 C97_3 1_555 1_555
H76_3 C97_3 1_555 1_555
C103_3 C78_3 1_555 1_555
H87_3 C103_3 1_555 1_555
H92_3 C103_3 1_555 1_555
H97_3 C103_3 1_555 1_555
C108_3 C73_3 1_555 1_555
H102_3 C108_3 1_555 1_555
H107_3 C108_3 1_555 1_555
H112_3 C108_3 1_555 1_555
C109_3 N2_4 1_555 1_555
C110_3 H114_3 1_555 1_555
C111_3 H115_3 1_555 1_555
C112_3 H116_3 1_555 1_555
C113_3 H117_3 1_555 1_555
H113_3 C109_3 1_555 1_555
C114_3 C18_4 1_555 1_555
C115_3 C110_3 1_555 1_555
C116_3 C111_3 1_555 1_555
C117_3 C112_3 1_555 1_555
C118_3 C113_3 1_555 1_555
H118_3 C114_3 1_555 1_555
H119_3 C115_3 1_555 1_555
H120_3 C116_3 1_555 1_555
H121_3 C117_3 1_555 1_555
H122_3 C118_3 1_555 1_555
C119_6 C115_3 1_555 1_555
C120_6 C117_3 1_555 1_555
C122_6 C120_6 1_555 1_555
C126_3 C122_6 1_555 1_555
C127_3 C122_6 1_555 1_555
C131_3 C126_3 1_555 1_555
C132_3 C127_3 1_555 1_555
C134_6 B4_6 1_555 1_555
C138_3 C131_3 1_555 1_555
C139_3 C132_3 1_555 1_555
H126_3 C138_3 1_555 1_555
H127_3 C139_3 1_555 1_555
H131_3 C138_3 1_555 1_555
H132_3 C139_3 1_555 1_555
H136_3 C138_3 1_555 1_555
H137_3 C139_3 1_555 1_555
C143_3 C126_3 1_555 1_555
C144_3 C127_3 1_555 1_555
H141_3 C143_3 1_555 1_555
H142_3 C144_3 1_555 1_555
H143_3 C140_3 1_555 1_555
H145_3 C142_3 1_555 1_555
H146_3 C143_3 1_555 1_555
H147_3 C144_3 1_555 1_555
H148_3 C140_3 1_555 1_555
H150_3 C142_3 1_555 1_555
H151_3 C143_3 1_555 1_555
H152_3 C144_3 1_555 1_555
N12_6 Ag2_10 1_555 1_555
N13_6 Ag2_10 1_555 1_555
C78_3 C83_3 1_555 1_555
C109_3 C114_3 1_555 1_555
C110_3 N12_6 1_555 1_555
C111_3 N12_6 1_555 1_555
C112_3 N13_6 1_555 1_555
C113_3 N13_6 1_555 1_555
C116_3 C119_6 1_555 1_555
C118_3 C120_6 1_555 1_555
C131_3 C134_6 1_555 1_555
C132_3 C134_6 1_555 1_555
Cl1 O1 1_555 1_555
O3 Cl1 1_555 1_555
Cl1_2 O1_2 1_555 1_555
O2 Cl1_2 1_555 1_555
Cl1_3 O1_3 1_555 1_555
Cl1_4 O1_4 1_555 1_555
O4 Cl1_4 1_555 1_555
Cl1_5 O1_5 1_555 1_555
O3_2 Cl1_5 1_555 1_555
Cl1_6 O1_6 1_555 1_555
Cl1_7 O1_7 1_555 1_555
O2_2 Cl1_7 1_555 1_555
Cl1_8 O1_8 1_555 1_555
O4_2 Cl1_8 1_555 1_555
Cl1_9 O1_9 1_555 1_555
O2_3 Cl1_9 1_555 1_555
O3_3 Cl1_9 1_555 1_555
O4_3 Cl1_9 1_555 1_555
Cl1_10 O1_10 1_555 1_555
O2_4 Cl1_10 1_555 1_555
O3_4 Cl1_10 1_555 1_555
O4_4 Cl1_10 1_555 1_555
Cl1_11 O1_11 1_555 1_555
O2_5 Cl1_11 1_555 1_555
O3_5 Cl1_11 1_555 1_555
O4_5 Cl1_11 1_555 1_555
Cl1_12 O1_12 1_555 1_555
O2_6 Cl1_12 1_555 1_555
O3_6 Cl1_12 1_555 1_555
O4_6 Cl1_12 1_555 1_555
Cl2 O5 1_555 1_555
O6 Cl2 1_555 1_555
O7 Cl2 1_555 1_555
O8 Cl2 1_555 1_555
Cl2_2 O5_2 1_555 1_555
O6_2 Cl2_2 1_555 1_555
O7_2 Cl2_2 1_555 1_555
O8_2 Cl2_2 1_555 1_555
Cl2_3 O5_3 1_555 1_555
O6_3 Cl2_3 1_555 1_555
O7_3 Cl2_3 1_555 1_555
O8_3 Cl2_3 1_555 1_555
Cl2_4 O5_4 1_555 1_555
O6_4 Cl2_4 1_555 1_555
O6_5 Cl2_5 1_555 1_555
O6_6 Cl2_6 1_555 1_555
O8_4 Cl2_6 1_555 1_555
O6_7 Cl2_7 1_555 1_555
O7_4 Cl2_7 1_555 1_555
Cl2_8 O5_5 1_555 1_555
O6_8 Cl2_8 1_555 1_555
O6_9 Cl2_9 1_555 1_555
O8_5 Cl2_9 1_555 1_555
O6_10 Cl2_10 1_555 1_555
O6_11 Cl2_11 1_555 1_555
O7_5 Cl2_11 1_555 1_555
Cl2_12 O5_6 1_555 1_555
O6_12 Cl2_12 1_555 1_555
O7_6 Cl2_12 1_555 1_555
O8_6 Cl2_12 1_555 1_555

#END
