
###############################################################################
#
# This file contains modified crystal structure data generated from the
# MOF subset of the Cambridge Structural Database (CSD) v543 
# hosted by the Cambridge Crystallographic Data Centre (CCDC).
#
# This work is licensed under the Creative Commons
# Attribution-NonCommercial-ShareAlike 4.0 International License.
# To view a copy of this license, visit
# http://creativecommons.org/licenses/by-nc-sa/4.0/
# or send a letter to
# Creative Commons, PO Box 1866, Mountain View, CA 94042, USA.
#
# CIF created using the CSD Python API on 29 September 2022
# The structure has been converted into the P1 space group
# The structure has a 3D framework
# The original CSD entry CUTKOS is in the monoclinic crystal system
# The framework has been calculated to contain at least 10.0% void space
# The void calculation uses a probe of radius 1.32A, grid spacing 0.4
#
###############################################################################

data_CUTKOS
_chemical_formula_moiety         '(C120 H80 N8 O24 Zn7)n'
_symmetry_cell_setting           triclinic
_symmetry_space_group_name_H-M   'P 1'
_symmetry_Int_Tables_number      1
_space_group_name_Hall           'P 1'
loop_
_symmetry_equiv_pos_site_id
_symmetry_equiv_pos_as_xyz
1 x,y,z
_cell_length_a                   12.321(3)
_cell_length_b                   10.609(3)
_cell_length_c                   25.816(7)
_cell_angle_alpha                90
_cell_angle_beta                 91.739(4)
_cell_angle_gamma                90
_cell_volume                     3372.95
loop_
_atom_site_label
_atom_site_type_symbol
_atom_site_fract_x
_atom_site_fract_y
_atom_site_fract_z
H35 H 0.0388 0.7631 0.6299
H39 H 0.0111 0.9952 0.6514
Zn5 Zn -0.0000 0.5000 0.0000
Zn9 Zn 0.08035(5) 0.23504(6) 0.05826(2)
O13 O 0.0371(3) 0.5207(4) 0.08022(15)
O16 O 0.0360(4) 0.3343(4) 0.12055(15)
C31 C 0.0238(5) 0.4530(7) 0.1186(2)
C47 C 0.0857(5) 0.0734(6) 0.5174(3)
H31 H 0.1434 0.1238 0.5288
C55 C 0.7655(7) 0.0811(7) 0.6184(3)
C56 C 0.6939(7) 0.1824(7) 0.6153(3)
H36 H 0.7158 0.2611 0.6275
C57 C 0.5917(7) 0.1669(7) 0.5945(3)
H37 H 0.5446 0.2352 0.5916
C58 C 0.5584(6) 0.0476(6) 0.5776(2)
H38 H 0.4883 0.0382 0.5638
C60 C 0.8736(8) 0.0855(10) 0.6383(4)
H40 H 0.8998 0.1615 0.6516
N1 N 0.2526(4) 0.2538(6) 0.0820(2)
N2 N 0.1223(4) 0.0530(5) 0.08057(17)
C19 C 0.3169(7) 0.3554(8) 0.0804(3)
H13 H 0.2892 0.4301 0.0665
C20 C 0.4244(7) 0.3522(10) 0.0991(4)
H14 H 0.4671 0.4244 0.0985
C21 C 0.4666(7) 0.2406(12) 0.1183(4)
H15 H 0.5388 0.2369 0.1299
C22 C 0.4020(7) 0.1343(9) 0.1205(3)
C23 C 0.2943(5) 0.1463(7) 0.1008(3)
C24 C 0.2244(6) 0.0363(6) 0.1004(2)
C29 C 0.4399(8) 0.0136(11) 0.1390(4)
H19 H 0.5111 0.0048 0.1514
C17 C 0.5857(5) 0.9266(6) 0.0174(3)
H11 H 0.6434 0.8762 0.0288
H18 H 0.9883 0.9618 0.0638
C48 C 0.4843(5) 0.8741(6) 0.0095(3)
H32 H 0.4741 0.7890 0.0164
Zn5_2 Zn -0.0000 0.5000 1.0000
Zn4 Zn 0.5000 0.5000 0.5000
Zn6 Zn 0.58035(5) 0.76496(6) 0.55826(2)
N3 N 0.7526(4) 0.7462(6) 0.5820(2)
N4 N 0.6223(4) 0.9470(5) 0.58057(17)
O7 O 0.3738(3) 0.6186(4) 0.51510(15)
O9 O 0.4273(3) 0.8129(4) 0.53747(15)
O11 O 0.6086(3) 0.6492(3) 0.49847(14)
O18 O 0.5360(4) 0.6657(4) 0.62055(15)
C43 C 0.3562(5) 0.7327(6) 0.5235(2)
C44 C 0.2431(5) 0.7758(6) 0.5155(2)
H29 H 0.1901 0.7154 0.5082
C45 C 0.2121(5) 0.8962(6) 0.5181(2)
H30 H 0.2657 0.9545 0.5272
C46 C 0.1026(5) 0.9462(6) 0.5083(2)
C48_2 C 0.0157(5) 0.8741(6) 0.4905(3)
H32_2 H 0.0259 0.7890 0.4836
C49 C 0.8169(7) 0.6446(8) 0.5804(3)
H33 H 0.7892 0.5699 0.5665
C50 C 0.9244(7) 0.6478(10) 0.5991(4)
H34 H 0.9671 0.5756 0.5985
C51 C 0.9666(7) 0.7594(12) 0.6183(4)
C52 C 0.9020(7) 0.8657(9) 0.6205(3)
C53 C 0.7943(5) 0.8537(7) 0.6008(3)
C54 C 0.7244(6) 0.9637(6) 0.6004(2)
C59 C 0.9399(8) 0.9864(11) 0.6390(4)
Zn2 Zn 0.41965(5) 0.23504(6) 0.44174(2)
N1_2 N 0.2474(4) 0.2538(6) 0.4180(2)
N2_2 N 0.3777(4) 0.0530(5) 0.41943(17)
O1 O 0.6262(3) 0.3814(4) 0.48490(15)
O2 O 0.5727(3) 0.1871(4) 0.46253(15)
O3 O 0.3914(3) 0.3508(3) 0.50153(14)
O4 O 0.3341(3) 0.1731(4) 0.53622(16)
C2 C 0.0109(5) 0.4823(7) 0.8331(2)
H1 H 0.0098 0.3947 0.8329
C3 C 0.0424(5) 0.5386(7) 0.7914(2)
H2 H 0.0372 0.6260 0.7912
C4 C 0.0850(6) 0.4811(7) 0.7447(2)
C5 C 0.1323(6) 0.5551(7) 0.7076(2)
H3 H 0.1322 0.6422 0.7115
C6 C 0.1794(5) 0.5031(7) 0.6652(2)
H4 H 0.2119 0.5551 0.6411
C7 C 0.1790(6) 0.3738(7) 0.6578(2)
C8 C 0.1287(7) 0.2988(8) 0.6940(3)
H5 H 0.1256 0.2119 0.6893
C9 C 0.0829(7) 0.3528(8) 0.7371(3)
H6 H 0.0502 0.3014 0.7613
C10 C 0.3434(5) 0.2880(6) 0.5371(2)
C11 C 0.2908(5) 0.3641(6) 0.5780(2)
H7 H 0.2987 0.4512 0.5775
C12 C 0.2332(5) 0.3119(7) 0.6148(2)
H8 H 0.2263 0.2247 0.6132
C13 C 0.6438(5) 0.2673(6) 0.4765(2)
C14 C 0.7569(5) 0.2242(6) 0.4845(2)
H9 H 0.8099 0.2846 0.4918
C15 C 0.7879(5) 0.1038(6) 0.4819(2)
H10 H 0.7343 0.0455 0.4728
C16 C 0.8974(5) 0.0538(6) 0.4917(2)
C18 C 0.9843(5) 0.1259(6) 0.5095(3)
H12 H 0.9741 0.2110 0.5164
C19_2 C 0.1831(7) 0.3554(8) 0.4196(3)
H13_2 H 0.2108 0.4301 0.4335
C20_2 C 0.0756(7) 0.3522(10) 0.4009(4)
H14_2 H 0.0329 0.4244 0.4015
C21_2 C 0.0334(7) 0.2406(12) 0.3817(4)
C22_2 C 0.0980(7) 0.1343(9) 0.3795(3)
C23_2 C 0.2057(5) 0.1463(7) 0.3992(3)
C24_2 C 0.2756(6) 0.0363(6) 0.3996(2)
C29_2 C 0.0601(8) 0.0136(11) 0.3610(4)
Zn5_3 Zn 1.0000 0.5000 0.0000
O12 O 0.6659(3) 0.8269(4) 0.46378(16)
O14 O 0.5371(3) 0.4793(4) 0.58022(15)
O15 O 0.4629(3) 0.5207(4) 0.41978(15)
O17 O 0.4640(4) 0.3343(4) 0.37945(15)
C32 C 0.9891(5) 0.5177(7) 0.1669(2)
H21 H 0.9902 0.6053 0.1671
C33 C 0.9576(5) 0.4614(7) 0.2086(2)
H22 H 0.9628 0.3740 0.2088
C34 C 0.9150(6) 0.5189(7) 0.2553(2)
C35 C 0.8677(6) 0.4449(7) 0.2924(2)
H23 H 0.8678 0.3578 0.2885
C36 C 0.8206(5) 0.4969(7) 0.3348(2)
H24 H 0.7881 0.4449 0.3589
C37 C 0.8210(6) 0.6262(7) 0.3422(2)
C38 C 0.8713(7) 0.7012(8) 0.3060(3)
H25 H 0.8744 0.7881 0.3107
C39 C 0.9171(7) 0.6472(8) 0.2629(3)
H26 H 0.9498 0.6986 0.2387
C40 C 0.6566(5) 0.7120(6) 0.4629(2)
C41 C 0.7092(5) 0.6359(6) 0.4220(2)
H27 H 0.7013 0.5488 0.4225
C42 C 0.7668(5) 0.6881(7) 0.3852(2)
H28 H 0.7737 0.7753 0.3868
O3_2 O 0.1086(3) 0.3508(3) 0.99847(14)
O4_2 O 0.1659(3) 0.1731(4) 0.96378(16)
C1 C 0.5238(5) 0.5470(7) 0.6186(2)
C2_2 C 0.4891(5) 0.4823(7) 0.6669(2)
H1_2 H 0.4902 0.3947 0.6671
C3_2 C 0.4576(5) 0.5386(7) 0.7086(2)
H2_2 H 0.4628 0.6260 0.7088
C4_2 C 0.4150(6) 0.4811(7) 0.7553(2)
C5_2 C 0.3677(6) 0.5551(7) 0.7924(2)
H3_2 H 0.3678 0.6422 0.7885
C6_2 C 0.3206(5) 0.5031(7) 0.8348(2)
H4_2 H 0.2881 0.5551 0.8589
C7_2 C 0.3210(6) 0.3738(7) 0.8422(2)
C8_2 C 0.3713(7) 0.2988(8) 0.8060(3)
H5_2 H 0.3744 0.2119 0.8107
C9_2 C 0.4171(7) 0.3528(8) 0.7629(3)
H6_2 H 0.4498 0.3014 0.7387
C10_2 C 0.1566(5) 0.2880(6) 0.9629(2)
C11_2 C 0.2092(5) 0.3641(6) 0.9220(2)
H7_2 H 0.2013 0.4512 0.9225
C12_2 C 0.2668(5) 0.3119(7) 0.8852(2)
H8_2 H 0.2737 0.2247 0.8868
O8 O 0.1262(3) 0.6186(4) 0.98490(15)
O1_2 O 0.8738(3) 0.3814(4) 0.01510(15)
O2_2 O 0.9273(3) 0.1871(4) 0.03747(15)
C13_2 C 0.8562(5) 0.2673(6) 0.0235(2)
C14_2 C 0.7431(5) 0.2242(6) 0.0155(2)
H9_2 H 0.6901 0.2846 0.0082
C15_2 C 0.7121(5) 0.1038(6) 0.0181(2)
H10_2 H 0.7657 0.0455 0.0272
C16_2 C 0.6026(5) 0.0538(6) 0.0083(2)
O10 O 0.8914(3) 0.6492(3) 0.00153(14)
O12_2 O 0.8341(3) 0.8269(4) 0.03622(16)
C31_2 C 0.4762(5) 0.4530(7) 0.3814(2)
C32_2 C 0.5109(5) 0.5177(7) 0.3331(2)
H21_2 H 0.5098 0.6053 0.3329
C33_2 C 0.5424(5) 0.4614(7) 0.2914(2)
H22_2 H 0.5372 0.3740 0.2912
C34_2 C 0.5850(6) 0.5189(7) 0.2447(2)
C35_2 C 0.6323(6) 0.4449(7) 0.2076(2)
H23_2 H 0.6322 0.3578 0.2115
C36_2 C 0.6794(5) 0.4969(7) 0.1652(2)
H24_2 H 0.7119 0.4449 0.1411
C37_2 C 0.6790(6) 0.6262(7) 0.1578(2)
C38_2 C 0.6287(7) 0.7012(8) 0.1940(3)
H25_2 H 0.6256 0.7881 0.1893
C39_2 C 0.5829(7) 0.6472(8) 0.2371(3)
H26_2 H 0.5502 0.6986 0.2613
C40_2 C 0.8434(5) 0.7120(6) 0.0371(2)
C41_2 C 0.7908(5) 0.6359(6) 0.0780(2)
H27_2 H 0.7987 0.5488 0.0775
C42_2 C 0.7332(5) 0.6881(7) 0.1148(2)
H28_2 H 0.7263 0.7753 0.1132
O9_2 O 0.0727(3) 0.8129(4) 0.96253(15)
C43_2 C 0.1438(5) 0.7327(6) 0.9765(2)
C44_2 C 0.2569(5) 0.7758(6) 0.9845(2)
H29_2 H 0.3099 0.7154 0.9918
C45_2 C 0.2879(5) 0.8962(6) 0.9819(2)
H30_2 H 0.2343 0.9545 0.9728
C46_2 C 0.3974(5) 0.9462(6) 0.9917(2)
Zn5_4 Zn 1.0000 0.5000 1.0000
C17_2 C 0.9143(5) 0.9266(6) 0.4826(3)
H11_2 H 0.8566 0.8762 0.4712
C25 C 0.2345(7) 0.9189(7) 0.3816(3)
C26 C 0.3061(7) 0.8176(7) 0.3847(3)
H16 H 0.2842 0.7389 0.3725
C27 C 0.4083(7) 0.8331(7) 0.4055(3)
H17 H 0.4554 0.7648 0.4084
C28 C 0.4416(6) 0.9524(6) 0.4224(2)
H18_2 H 0.5117 0.9618 0.4362
C30 C 0.1264(8) 0.9145(10) 0.3617(4)
H20 H 0.1002 0.8385 0.3484
O5 O 0.9629(3) 0.4793(4) 0.91978(15)
O6 O 0.9640(4) 0.6657(4) 0.87945(15)
C1_2 C 0.9762(5) 0.5470(7) 0.8814(2)
H15_2 H 0.9612 0.2369 0.3701
H19_2 H 0.9889 0.0048 0.3486
Zn7 Zn 0.91965(5) 0.76496(6) 0.94174(2)
C18_2 C 0.5157(5) 0.1259(6) 0.9905(3)
H12_2 H 0.5259 0.2110 0.9836
C47_2 C 0.4143(5) 0.0734(6) 0.9826(3)
H31_2 H 0.3566 0.1238 0.9712
H38_2 H 0.0117 0.0382 0.9362
N3_2 N 0.7474(4) 0.7462(6) 0.9180(2)
N4_2 N 0.8777(4) 0.9470(5) 0.91943(17)
C49_2 C 0.6831(7) 0.6446(8) 0.9196(3)
H33_2 H 0.7108 0.5699 0.9335
C50_2 C 0.5756(7) 0.6478(10) 0.9009(4)
H34_2 H 0.5329 0.5756 0.9015
C51_2 C 0.5334(7) 0.7594(12) 0.8817(4)
H35_2 H 0.4612 0.7631 0.8701
C52_2 C 0.5980(7) 0.8657(9) 0.8795(3)
C53_2 C 0.7057(5) 0.8537(7) 0.8992(3)
C54_2 C 0.7756(6) 0.9637(6) 0.8996(2)
C59_2 C 0.5601(8) 0.9864(11) 0.8610(4)
H39_2 H 0.4889 0.9952 0.8486
C25_2 C 0.2655(7) 0.9189(7) 0.1184(3)
C26_2 C 0.1939(7) 0.8176(7) 0.1153(3)
H16_2 H 0.2158 0.7389 0.1275
C27_2 C 0.0917(7) 0.8331(7) 0.0945(3)
H17_2 H 0.0446 0.7648 0.0916
C28_2 C 0.0584(6) 0.9524(6) 0.0776(2)
C30_2 C 0.3736(8) 0.9145(10) 0.1383(4)
H20_2 H 0.3998 0.8385 0.1516
C55_2 C 0.7345(7) 0.0811(7) 0.8816(3)
C56_2 C 0.8061(7) 0.1824(7) 0.8847(3)
H36_2 H 0.7842 0.2611 0.8725
C57_2 C 0.9083(7) 0.1669(7) 0.9055(3)
H37_2 H 0.9554 0.2352 0.9084
C58_2 C 0.9416(6) 0.0476(6) 0.9224(2)
C60_2 C 0.6264(8) 0.0855(10) 0.8617(4)
H40_2 H 0.6002 0.1615 0.8484
loop_
_geom_bond_atom_site_label_1
_geom_bond_atom_site_label_2
_geom_bond_site_symmetry_1
_geom_bond_site_symmetry_2
Zn5 O13 1_555 1_555
Zn9 O16 1_555 1_555
O13 C31 1_555 1_555
O16 C31 1_555 1_555
H31 C47 1_555 1_555
C56 C55 1_555 1_555
H36 C56 1_555 1_555
C57 C56 1_555 1_555
H37 C57 1_555 1_555
H38 C58 1_555 1_555
C60 C55 1_555 1_555
H40 C60 1_555 1_555
C57 C58 1_555 1_555
Zn9 N1 1_555 1_555
N1 C19 1_555 1_555
N2 Zn9 1_555 1_555
C19 H13 1_555 1_555
C20 C19 1_555 1_555
H14 C20 1_555 1_555
C21 C20 1_555 1_555
H15 C21 1_555 1_555
C22 C21 1_555 1_555
C23 N1 1_555 1_555
C24 N2 1_555 1_555
C29 C22 1_555 1_555
H19 C29 1_555 1_555
C22 C23 1_555 1_555
C23 C24 1_555 1_555
H11 C17 1_555 1_555
C48 C17 1_555 1_555
H32 C48 1_555 1_555
Zn4 O7 1_555 1_555
Zn6 N3 1_555 1_555
N3 C49 1_555 1_555
N4 Zn6 1_555 1_555
O7 C43 1_555 1_555
O9 Zn6 1_555 1_555
O11 Zn4 1_555 1_555
O18 Zn6 1_555 1_555
C43 O9 1_555 1_555
C44 C43 1_555 1_555
H29 C44 1_555 1_555
C45 C44 1_555 1_555
H30 C45 1_555 1_555
C46 C45 1_555 1_555
H32_2 C48_2 1_555 1_555
C49 H33 1_555 1_555
C50 C49 1_555 1_555
H34 C50 1_555 1_555
C51 C50 1_555 1_555
C52 C51 1_555 1_555
C53 N3 1_555 1_555
C54 N4 1_555 1_555
C59 C52 1_555 1_555
Zn6 O11 1_555 1_555
C46 C48_2 1_555 1_555
C52 C53 1_555 1_555
C53 C54 1_555 1_555
Zn4 O1 1_555 1_555
Zn2 N1_2 1_555 1_555
N1_2 C19_2 1_555 1_555
N2_2 Zn2 1_555 1_555
O1 C13 1_555 1_555
O2 Zn2 1_555 1_555
O3 Zn4 1_555 1_555
O4 C10 1_555 1_555
C2 H1 1_555 1_555
C3 C2 1_555 1_555
H2 C3 1_555 1_555
C4 C3 1_555 1_555
C5 C4 1_555 1_555
H3 C5 1_555 1_555
C6 C5 1_555 1_555
H4 C6 1_555 1_555
C7 C6 1_555 1_555
C8 C7 1_555 1_555
H5 C8 1_555 1_555
C9 C4 1_555 1_555
H6 C9 1_555 1_555
C10 O3 1_555 1_555
C11 C10 1_555 1_555
H7 C11 1_555 1_555
C12 C7 1_555 1_555
H8 C12 1_555 1_555
C13 O2 1_555 1_555
C14 C13 1_555 1_555
H9 C14 1_555 1_555
C15 C14 1_555 1_555
H10 C15 1_555 1_555
C16 C15 1_555 1_555
C18 C16 1_555 1_555
H12 C18 1_555 1_555
C19_2 H13_2 1_555 1_555
C20_2 C19_2 1_555 1_555
H14_2 C20_2 1_555 1_555
C21_2 C20_2 1_555 1_555
C22_2 C21_2 1_555 1_555
C23_2 N1_2 1_555 1_555
C24_2 N2_2 1_555 1_555
C29_2 C22_2 1_555 1_555
O12 C40 1_555 1_555
O14 Zn4 1_555 1_555
O15 Zn4 1_555 1_555
O17 Zn2 1_555 1_555
C32 H21 1_555 1_555
C33 C32 1_555 1_555
H22 C33 1_555 1_555
C34 C33 1_555 1_555
C35 C34 1_555 1_555
H23 C35 1_555 1_555
C36 C35 1_555 1_555
H24 C36 1_555 1_555
C37 C36 1_555 1_555
C38 C37 1_555 1_555
H25 C38 1_555 1_555
C39 C34 1_555 1_555
H26 C39 1_555 1_555
C40 O11 1_555 1_555
C41 C40 1_555 1_555
H27 C41 1_555 1_555
C42 C37 1_555 1_555
H28 C42 1_555 1_555
Zn2 O3 1_555 1_555
C8 C9 1_555 1_555
C11 C12 1_555 1_555
C22_2 C23_2 1_555 1_555
C23_2 C24_2 1_555 1_555
C38 C39 1_555 1_555
C41 C42 1_555 1_555
O3_2 Zn5_2 1_555 1_555
O4_2 C10_2 1_555 1_555
O14 C1 1_555 1_555
O18 C1 1_555 1_555
C1 C2_2 1_555 1_555
C2_2 H1_2 1_555 1_555
C3_2 C2_2 1_555 1_555
H2_2 C3_2 1_555 1_555
C4_2 C3_2 1_555 1_555
C5_2 C4_2 1_555 1_555
H3_2 C5_2 1_555 1_555
C6_2 C5_2 1_555 1_555
H4_2 C6_2 1_555 1_555
C7_2 C6_2 1_555 1_555
C8_2 C7_2 1_555 1_555
H5_2 C8_2 1_555 1_555
C9_2 C4_2 1_555 1_555
H6_2 C9_2 1_555 1_555
C10_2 O3_2 1_555 1_555
C11_2 C10_2 1_555 1_555
H7_2 C11_2 1_555 1_555
C12_2 C7_2 1_555 1_555
H8_2 C12_2 1_555 1_555
O8 Zn5_2 1_555 1_555
C8_2 C9_2 1_555 1_555
C11_2 C12_2 1_555 1_555
Zn5_3 O1_2 1_555 1_555
O1_2 C13_2 1_555 1_555
C13_2 O2_2 1_555 1_555
C14_2 C13_2 1_555 1_555
H9_2 C14_2 1_555 1_555
C15_2 C14_2 1_555 1_555
H10_2 C15_2 1_555 1_555
C16_2 C15_2 1_555 1_555
O10 Zn5_3 1_555 1_555
O12_2 C40_2 1_555 1_555
O15 C31_2 1_555 1_555
O17 C31_2 1_555 1_555
C31_2 C32_2 1_555 1_555
C32_2 H21_2 1_555 1_555
C33_2 C32_2 1_555 1_555
H22_2 C33_2 1_555 1_555
C34_2 C33_2 1_555 1_555
C35_2 C34_2 1_555 1_555
H23_2 C35_2 1_555 1_555
C36_2 C35_2 1_555 1_555
H24_2 C36_2 1_555 1_555
C37_2 C36_2 1_555 1_555
C38_2 C37_2 1_555 1_555
H25_2 C38_2 1_555 1_555
C39_2 C34_2 1_555 1_555
H26_2 C39_2 1_555 1_555
C40_2 O10 1_555 1_555
C41_2 C40_2 1_555 1_555
H27_2 C41_2 1_555 1_555
C42_2 C37_2 1_555 1_555
H28_2 C42_2 1_555 1_555
C38_2 C39_2 1_555 1_555
C41_2 C42_2 1_555 1_555
O8 C43_2 1_555 1_555
C43_2 O9_2 1_555 1_555
C44_2 C43_2 1_555 1_555
H29_2 C44_2 1_555 1_555
C45_2 C44_2 1_555 1_555
H30_2 C45_2 1_555 1_555
C46_2 C45_2 1_555 1_555
H11_2 C17_2 1_555 1_555
C26 C25 1_555 1_555
H16 C26 1_555 1_555
C27 C26 1_555 1_555
H17 C27 1_555 1_555
H18_2 C28 1_555 1_555
C30 C25 1_555 1_555
H20 C30 1_555 1_555
C27 C28 1_555 1_555
O5 C1_2 1_555 1_555
O6 C1_2 1_555 1_555
Zn5_4 O5 1_555 1_555
Zn7 O6 1_555 1_555
H12_2 C18_2 1_555 1_555
C47_2 C18_2 1_555 1_555
H31_2 C47_2 1_555 1_555
Zn7 N3_2 1_555 1_555
N3_2 C49_2 1_555 1_555
N4_2 Zn7 1_555 1_555
C49_2 H33_2 1_555 1_555
C50_2 C49_2 1_555 1_555
H34_2 C50_2 1_555 1_555
C51_2 C50_2 1_555 1_555
H35_2 C51_2 1_555 1_555
C52_2 C51_2 1_555 1_555
C53_2 N3_2 1_555 1_555
C54_2 N4_2 1_555 1_555
C59_2 C52_2 1_555 1_555
H39_2 C59_2 1_555 1_555
C52_2 C53_2 1_555 1_555
C53_2 C54_2 1_555 1_555
C26_2 C25_2 1_555 1_555
H16_2 C26_2 1_555 1_555
C27_2 C26_2 1_555 1_555
H17_2 C27_2 1_555 1_555
C30_2 C25_2 1_555 1_555
H20_2 C30_2 1_555 1_555
C27_2 C28_2 1_555 1_555
C56_2 C55_2 1_555 1_555
H36_2 C56_2 1_555 1_555
C57_2 C56_2 1_555 1_555
H37_2 C57_2 1_555 1_555
C60_2 C55_2 1_555 1_555
H40_2 C60_2 1_555 1_555
C57_2 C58_2 1_555 1_555

#END
