
###############################################################################
#
# This file contains modified crystal structure data generated from the
# MOF subset of the Cambridge Structural Database (CSD) v543 
# hosted by the Cambridge Crystallographic Data Centre (CCDC).
#
# This work is licensed under the Creative Commons
# Attribution-NonCommercial-ShareAlike 4.0 International License.
# To view a copy of this license, visit
# http://creativecommons.org/licenses/by-nc-sa/4.0/
# or send a letter to
# Creative Commons, PO Box 1866, Mountain View, CA 94042, USA.
#
# CIF created using the CSD Python API on 29 September 2022
# The structure has been converted into the P1 space group
# The structure has a 3D framework
# The original CSD entry CUTKEI is in the orthorhombic crystal system
# The framework has been calculated to contain at least 10.0% void space
# The void calculation uses a probe of radius 1.32A, grid spacing 0.4
# H atom positions have been added when not included in the experimental data
#
###############################################################################

data_CUTKEI
_chemical_formula_moiety         '(C528 H416 O200 Zn32)n'
_symmetry_cell_setting           triclinic
_symmetry_space_group_name_H-M   'P 1'
_symmetry_Int_Tables_number      1
_space_group_name_Hall           'P 1'
loop_
_symmetry_equiv_pos_site_id
_symmetry_equiv_pos_as_xyz
1 x,y,z
_cell_length_a                   19.891(3)
_cell_length_b                   24.552(5)
_cell_length_c                   29.286(6)
_cell_angle_alpha                90
_cell_angle_beta                 90
_cell_angle_gamma                90
_cell_volume                     14302.2
loop_
_atom_site_label
_atom_site_type_symbol
_atom_site_fract_x
_atom_site_fract_y
_atom_site_fract_z
O5 O 0.0899(4) 0.2651(6) 0.0391(3)
H11 H 0.0342 0.3177 0.1078
C12 C 0.0310(5) 0.2614(5) 0.0274(3)
O6 O 0.0135(4) 0.2398(4) 0.9913(3)
Zn6 Zn 0.06063(6) 0.18529(5) 0.95658(4)
Zn1 Zn 0.55886(5) 0.07967(5) 0.39311(5)
Zn2 Zn 0.56063(6) 0.18529(5) 0.45658(4)
O1 O 0.8232(3) 0.3421(3) 0.1390(2)
O2 O 0.6926(4) 0.3030(2) 0.2077(3)
O3 O 0.5956(3) 0.3976(3) 0.1641(3)
O4 O 0.7469(3) 0.4367(3) 0.0978(2)
O7 O 0.5943(3) 0.2134(2) 0.3997(2)
O8 O 0.5926(3) 0.1394(3) 0.3555(2)
O9 O 0.2812(3) 0.3984(3) 0.1893(3)
O10 O 0.2891(3) 0.3324(3) 0.1379(3)
C1 C 0.7108(3) 0.3728(3) 0.1541(3)
C2 C 0.7532(4) 0.3340(3) 0.1264(3)
H1 H 0.7396 0.2960 0.1327
H2 H 0.7469 0.3412 0.0934
C3 C 0.7130(4) 0.3587(3) 0.2052(3)
H3 H 0.7590 0.3634 0.2176
H4 H 0.6818 0.3822 0.2227
C4 C 0.6387(4) 0.3640(4) 0.1365(3)
H5 H 0.6353 0.3746 0.1040
H6 H 0.6258 0.3252 0.1395
C5 C 0.7332(4) 0.4313(3) 0.1462(3)
H7 H 0.6974 0.4570 0.1556
H8 H 0.7742 0.4393 0.1642
C6 C 0.8697(4) 0.3203(4) 0.1121(3)
C7 C 0.8587(4) 0.2900(4) 0.0738(3)
H9 H 0.8139 0.2801 0.0662
C8 C 0.9111(5) 0.2732(4) 0.0453(4)
H10 H 0.9012 0.2557 0.0172
C9 C 0.9765(4) 0.2816(4) 0.0576(3)
C10 C 0.9891(4) 0.3112(4) 0.0984(3)
C11 C 0.9362(5) 0.3308(5) 0.1248(4)
H12 H 0.9453 0.3513 0.1515
C13 C 0.6722(5) 0.2805(3) 0.2478(3)
C14 C 0.6490(5) 0.2269(4) 0.2430(4)
H13 H 0.6487 0.2106 0.2136
C15 C 0.6270(5) 0.1981(3) 0.2792(3)
H14 H 0.6102 0.1622 0.2751
C16 C 0.6290(4) 0.2213(3) 0.3228(3)
C17 C 0.6519(5) 0.2740(4) 0.3280(3)
H15 H 0.6519 0.2904 0.3574
C18 C 0.6754(4) 0.3034(3) 0.2900(3)
H16 H 0.6933 0.3390 0.2937
C19 C 0.6044(4) 0.1887(3) 0.3629(3)
C20 C 0.5287(4) 0.3876(4) 0.1632(4)
C21 C 0.4962(5) 0.3504(4) 0.1338(4)
H17 H 0.5222 0.3291 0.1132
C22 C 0.4288(4) 0.3447(4) 0.1346(4)
H18 H 0.4077 0.3198 0.1142
C23 C 0.3907(4) 0.3741(4) 0.1642(4)
C24 C 0.4208(5) 0.4118(5) 0.1922(5)
H19 H 0.3937 0.4331 0.2121
C25 C 0.4885(5) 0.4194(5) 0.1922(4)
H20 H 0.5084 0.4459 0.2116
C26 C 0.3145(4) 0.3685(4) 0.1635(4)
C27 C 0.7184(4) 0.4760(3) 0.0715(3)
C28 C 0.7219(7) 0.4670(6) 0.0259(4)
H21 H 0.7417 0.4344 0.0147
C30 C 0.6664(6) 0.5522(5) 0.0120(4)
C31 C 0.6662(5) 0.5603(4) 0.0569(4)
H23 H 0.6461 0.5929 0.0678
C32 C 0.6929(4) 0.5251(3) 0.0888(3)
H24 H 0.6940 0.5336 0.1204
O13 O 0.5761(6) 0.0172(3) 0.3524(5)
Zn4 Zn 0.19114(5) 0.32967(5) 0.14311(5)
Zn7 Zn 0.18937(6) 0.43529(5) 0.20658(4)
O14 O 0.5135(4) 0.2398(4) 0.4913(3)
O15 O 0.4688(3) 0.1484(3) 0.4393(3)
O16 O 0.4609(3) 0.0824(3) 0.3879(3)
O17 O 0.6293(6) 0.0773(5) 0.4383(3)
O18 O 0.6032(5) 0.1293(4) 0.4945(3)
H25 H 0.62498 0.0148348 0.345799
Zn4_2 Zn 0.05886(5) 0.57967(5) 0.39311(5)
Zn7_2 Zn 0.06063(6) 0.68529(5) 0.45658(4)
Zn1_2 Zn 0.69114(5) 0.32967(5) 0.64311(5)
Zn2_2 Zn 0.68937(6) 0.43529(5) 0.70658(4)
O1_2 O 0.4268(3) 0.5921(3) 0.3890(2)
O2_2 O 0.5574(4) 0.5530(2) 0.4577(3)
O3_2 O 0.6544(3) 0.6476(3) 0.4141(3)
O4_2 O 0.5031(3) 0.6867(3) 0.3478(2)
O5_2 O 0.1601(4) 0.5151(6) 0.2891(3)
O6_2 O 0.2365(4) 0.4898(4) 0.2413(3)
O7_2 O 0.6557(3) 0.4634(2) 0.6497(2)
O8_2 O 0.6574(3) 0.3894(3) 0.6055(2)
O9_2 O 0.9688(3) 0.6484(3) 0.4393(3)
O10_2 O 0.9609(3) 0.5824(3) 0.3879(3)
O11 O 0.6207(6) 0.8273(5) 0.1883(3)
O12 O 0.6468(5) 0.8793(4) 0.2445(3)
C1_2 C 0.5392(3) 0.6228(3) 0.4041(3)
C2_2 C 0.4968(4) 0.5840(3) 0.3764(3)
H1_2 H 0.5104 0.5460 0.3827
H2_2 H 0.5031 0.5912 0.3434
C3_2 C 0.5370(4) 0.6087(3) 0.4552(3)
H3_2 H 0.4910 0.6134 0.4676
H4_2 H 0.5682 0.6322 0.4727
C4_2 C 0.6113(4) 0.6140(4) 0.3865(3)
H5_2 H 0.6147 0.6246 0.3540
H6_2 H 0.6242 0.5752 0.3895
C5_2 C 0.5168(4) 0.6813(3) 0.3962(3)
H7_2 H 0.5526 0.7070 0.4056
H8_2 H 0.4758 0.6893 0.4142
C6_2 C 0.3803(4) 0.5703(4) 0.3621(3)
C7_2 C 0.3913(4) 0.5400(4) 0.3238(3)
H9_2 H 0.4361 0.5301 0.3162
C8_2 C 0.3389(5) 0.5232(4) 0.2953(4)
H10_2 H 0.3488 0.5057 0.2672
C9_2 C 0.2735(4) 0.5316(4) 0.3076(3)
C10_2 C 0.2609(4) 0.5612(4) 0.3484(3)
H11_2 H 0.2158 0.5677 0.3578
C11_2 C 0.3138(5) 0.5808(5) 0.3748(4)
H12_2 H 0.3047 0.6013 0.4015
C12_2 C 0.2190(5) 0.5114(5) 0.2774(3)
C13_2 C 0.5778(5) 0.5305(3) 0.4978(3)
C14_2 C 0.6010(5) 0.4769(4) 0.4930(4)
H13_2 H 0.6013 0.4606 0.4636
C15_2 C 0.6230(5) 0.4481(3) 0.5292(3)
H14_2 H 0.6398 0.4122 0.5251
C16_2 C 0.6210(4) 0.4713(3) 0.5728(3)
C17_2 C 0.5981(5) 0.5240(4) 0.5780(3)
H15_2 H 0.5981 0.5404 0.6074
C18_2 C 0.5746(4) 0.5534(3) 0.5400(3)
H16_2 H 0.5567 0.5890 0.5437
C19_2 C 0.6456(4) 0.4387(3) 0.6129(3)
C20_2 C 0.7213(4) 0.6376(4) 0.4132(4)
C21_2 C 0.7538(5) 0.6004(4) 0.3838(4)
H17_2 H 0.7278 0.5791 0.3632
C22_2 C 0.8212(4) 0.5947(4) 0.3846(4)
H18_2 H 0.8423 0.5698 0.3642
C23_2 C 0.8593(4) 0.6241(4) 0.4142(4)
C24_2 C 0.8292(5) 0.6618(5) 0.4422(5)
H19_2 H 0.8563 0.6831 0.4621
C25_2 C 0.7615(5) 0.6694(5) 0.4422(4)
H20_2 H 0.7416 0.6959 0.4616
C26_2 C 0.9355(4) 0.6185(4) 0.4135(4)
C27_2 C 0.5316(4) 0.7260(3) 0.3215(3)
C28_2 C 0.5281(7) 0.7170(6) 0.2759(4)
H21_2 H 0.5083 0.6844 0.2647
C29 C 0.5535(7) 0.7554(7) 0.2454(4)
H22 H 0.5502 0.7495 0.2134
C30_2 C 0.5836(6) 0.8022(5) 0.2620(4)
C31_2 C 0.5838(5) 0.8103(4) 0.3069(4)
H23_2 H 0.6039 0.8429 0.3178
C32_2 C 0.5571(4) 0.7751(3) 0.3388(3)
H24_2 H 0.5560 0.7836 0.3704
C33 C 0.6200(8) 0.8392(7) 0.2290(5)
O13_2 O 0.6739(6) 0.2672(3) 0.6024(5)
Zn3 Zn 0.69114(5) 0.82967(5) 0.14311(5)
Zn5 Zn 0.68937(6) 0.93529(5) 0.20658(4)
O14_2 O 0.7365(4) 0.4898(4) 0.7413(3)
O15_2 O 0.7812(3) 0.3984(3) 0.6893(3)
O16_2 O 0.7891(3) 0.3324(3) 0.6379(3)
O17_2 O 0.6207(6) 0.3273(5) 0.6883(3)
O18_2 O 0.6468(5) 0.3793(4) 0.7445(3)
H25_2 H 0.62502 0.264835 0.595799
H26 H 0.688985 0.233118 0.61751
O5_3 O 0.0899(4) 0.7651(6) 0.5391(3)
O6_3 O 0.0135(4) 0.7398(4) 0.4913(3)
H11_3 H 0.0342 0.8177 0.6078
C12_3 C 0.0310(5) 0.7614(5) 0.5274(3)
C29_2 C 0.6965(7) 0.0054(7) 0.4954(4)
C30_3 C 0.6664(6) 0.0522(5) 0.5120(4)
C31_3 C 0.6662(5) 0.0603(4) 0.5569(4)
H23_3 H 0.6461 0.0929 0.5678
C32_3 C 0.6929(4) 0.0251(3) 0.5888(3)
H24_3 H 0.6940 0.0336 0.6204
C33_2 C 0.6300(8) 0.0892(7) 0.4790(5)
Zn4_3 Zn 0.05886(5) 0.07967(5) 0.89311(5)
O1_3 O 0.4268(3) 0.0921(3) 0.8890(2)
O2_3 O 0.5574(4) 0.0530(2) 0.9577(3)
O3_3 O 0.6544(3) 0.1476(3) 0.9141(3)
O4_3 O 0.5031(3) 0.1867(3) 0.8478(2)
O5_4 O 0.1601(4) 0.0151(6) 0.7891(3)
O9_3 O 0.9688(3) 0.1484(3) 0.9393(3)
O10_3 O 0.9609(3) 0.0824(3) 0.8879(3)
C1_3 C 0.5392(3) 0.1228(3) 0.9041(3)
C2_3 C 0.4968(4) 0.0840(3) 0.8764(3)
H1_3 H 0.5104 0.0460 0.8827
H2_3 H 0.5031 0.0912 0.8434
C3_3 C 0.5370(4) 0.1087(3) 0.9552(3)
H3_3 H 0.4910 0.1134 0.9676
H4_3 H 0.5682 0.1322 0.9727
C4_3 C 0.6113(4) 0.1140(4) 0.8865(3)
H5_3 H 0.6147 0.1246 0.8540
H6_3 H 0.6242 0.0752 0.8895
C5_3 C 0.5168(4) 0.1813(3) 0.8962(3)
H7_3 H 0.5526 0.2070 0.9056
H8_3 H 0.4758 0.1893 0.9142
C6_3 C 0.3803(4) 0.0703(4) 0.8621(3)
C7_3 C 0.3913(4) 0.0400(4) 0.8238(3)
H9_3 H 0.4361 0.0301 0.8162
C8_3 C 0.3389(5) 0.0232(4) 0.7953(4)
H10_3 H 0.3488 0.0057 0.7672
C9_3 C 0.2735(4) 0.0316(4) 0.8076(3)
C10_3 C 0.2609(4) 0.0612(4) 0.8484(3)
H11_4 H 0.2158 0.0677 0.8578
C11_3 C 0.3138(5) 0.0808(5) 0.8748(4)
H12_3 H 0.3047 0.1013 0.9015
C12_4 C 0.2190(5) 0.0114(5) 0.7774(3)
C13_3 C 0.5778(5) 0.0305(3) 0.9978(3)
C20_3 C 0.7213(4) 0.1376(4) 0.9132(4)
C21_3 C 0.7538(5) 0.1004(4) 0.8838(4)
H17_3 H 0.7278 0.0791 0.8632
C22_3 C 0.8212(4) 0.0947(4) 0.8846(4)
H18_3 H 0.8423 0.0698 0.8642
C23_3 C 0.8593(4) 0.1241(4) 0.9142(4)
C24_3 C 0.8292(5) 0.1618(5) 0.9422(5)
H19_3 H 0.8563 0.1831 0.9621
C25_3 C 0.7615(5) 0.1694(5) 0.9422(4)
H20_3 H 0.7416 0.1959 0.9616
C26_3 C 0.9355(4) 0.1185(4) 0.9135(4)
C27_3 C 0.5316(4) 0.2260(3) 0.8215(3)
C28_3 C 0.5281(7) 0.2170(6) 0.7759(4)
H21_3 H 0.5083 0.1844 0.7647
C29_3 C 0.5535(7) 0.2554(7) 0.7454(4)
H22_2 H 0.5502 0.2495 0.7134
C30_4 C 0.5836(6) 0.3022(5) 0.7620(4)
C31_4 C 0.5838(5) 0.3103(4) 0.8069(4)
H23_4 H 0.6039 0.3429 0.8178
C32_4 C 0.5571(4) 0.2751(3) 0.8388(3)
H24_4 H 0.5560 0.2836 0.8704
C33_3 C 0.6200(8) 0.3392(7) 0.7290(5)
O7_3 O 0.6557(3) 0.9634(2) 0.1497(2)
O8_3 O 0.6574(3) 0.8894(3) 0.1055(2)
C15_3 C 0.6230(5) 0.9481(3) 0.0292(3)
H14_3 H 0.6398 0.9122 0.0251
C16_3 C 0.6210(4) 0.9713(3) 0.0728(3)
C19_3 C 0.6456(4) 0.9387(3) 0.1129(3)
O13_3 O 0.6739(6) 0.7672(3) 0.1024(5)
O14_3 O 0.7365(4) 0.9898(4) 0.2413(3)
O15_3 O 0.7812(3) 0.8984(3) 0.1893(3)
O16_3 O 0.7891(3) 0.8324(3) 0.1379(3)
H25_3 H 0.62502 0.764835 0.095799
H26_2 H 0.688985 0.733118 0.11751
O1_4 O 0.3232(3) 0.3421(3) 0.6390(2)
O2_4 O 0.1926(4) 0.3030(2) 0.7077(3)
O3_4 O 0.0956(3) 0.3976(3) 0.6641(3)
O4_4 O 0.2469(3) 0.4367(3) 0.5978(2)
O5_5 O 0.5899(4) 0.2651(6) 0.5391(3)
O7_4 O 0.0943(3) 0.2134(2) 0.8997(2)
O8_4 O 0.0926(3) 0.1394(3) 0.8555(2)
O11_2 O 0.1293(6) 0.5773(5) 0.4383(3)
O12_2 O 0.1032(5) 0.6293(4) 0.4945(3)
C1_4 C 0.2108(3) 0.3728(3) 0.6541(3)
C2_4 C 0.2532(4) 0.3340(3) 0.6264(3)
H1_4 H 0.2396 0.2960 0.6327
H2_4 H 0.2469 0.3412 0.5934
C3_4 C 0.2130(4) 0.3587(3) 0.7052(3)
H3_4 H 0.2590 0.3634 0.7176
H4_4 H 0.1818 0.3822 0.7227
C4_4 C 0.1387(4) 0.3640(4) 0.6365(3)
H5_4 H 0.1353 0.3746 0.6040
H6_4 H 0.1258 0.3252 0.6395
C5_4 C 0.2332(4) 0.4313(3) 0.6462(3)
H7_4 H 0.1974 0.4570 0.6556
H8_4 H 0.2742 0.4393 0.6642
C6_4 C 0.3697(4) 0.3203(4) 0.6121(3)
C7_4 C 0.3587(4) 0.2900(4) 0.5738(3)
H9_4 H 0.3139 0.2801 0.5662
C8_4 C 0.4111(5) 0.2732(4) 0.5453(4)
H10_4 H 0.4012 0.2557 0.5172
C9_4 C 0.4765(4) 0.2816(4) 0.5576(3)
C10_4 C 0.4891(4) 0.3112(4) 0.5984(3)
H11_5 H 0.5342 0.3177 0.6078
C11_4 C 0.4362(5) 0.3308(5) 0.6248(4)
H12_4 H 0.4453 0.3513 0.6515
C12_5 C 0.5310(5) 0.2614(5) 0.5274(3)
C13_4 C 0.1722(5) 0.2805(3) 0.7478(3)
C14_3 C 0.1490(5) 0.2269(4) 0.7430(4)
H13_3 H 0.1487 0.2106 0.7136
C15_4 C 0.1270(5) 0.1981(3) 0.7792(3)
H14_4 H 0.1102 0.1622 0.7751
C16_4 C 0.1290(4) 0.2213(3) 0.8228(3)
C17_3 C 0.1519(5) 0.2740(4) 0.8280(3)
H15_3 H 0.1519 0.2904 0.8574
C18_3 C 0.1754(4) 0.3034(3) 0.7900(3)
H16_3 H 0.1933 0.3390 0.7937
C19_4 C 0.1044(4) 0.1887(3) 0.8629(3)
C20_4 C 0.0287(4) 0.3876(4) 0.6632(4)
H17_4 H 0.0222 0.3291 0.6132
H20_4 H 0.0084 0.4459 0.7116
C27_4 C 0.2184(4) 0.4760(3) 0.5715(3)
C28_4 C 0.2219(7) 0.4670(6) 0.5259(4)
H21_4 H 0.2417 0.4344 0.5147
C29_4 C 0.1965(7) 0.5054(7) 0.4954(4)
H22_3 H 0.1998 0.4995 0.4634
C30_5 C 0.1664(6) 0.5522(5) 0.5120(4)
C31_5 C 0.1662(5) 0.5603(4) 0.5569(4)
H23_5 H 0.1461 0.5929 0.5678
C32_5 C 0.1929(4) 0.5251(3) 0.5888(3)
H24_5 H 0.1940 0.5336 0.6204
C33_4 C 0.1300(8) 0.5892(7) 0.4790(5)
O13_4 O 0.0761(6) 0.0172(3) 0.8524(5)
O17_3 O 0.1293(6) 0.0773(5) 0.9383(3)
O18_3 O 0.1032(5) 0.1293(4) 0.9945(3)
H25_4 H 0.12498 0.0148348 0.845799
C21_4 C 0.9962(5) 0.3504(4) 0.6338(4)
C22_4 C 0.9288(4) 0.3447(4) 0.6346(4)
H18_4 H 0.9077 0.3198 0.6142
C23_4 C 0.8907(4) 0.3741(4) 0.6642(4)
C24_4 C 0.9208(5) 0.4118(5) 0.6922(5)
H19_4 H 0.8937 0.4331 0.7121
C25_4 C 0.9885(5) 0.4194(5) 0.6922(4)
C26_4 C 0.8145(4) 0.3685(4) 0.6635(4)
O7_5 O 0.1557(3) 0.4634(2) 0.1497(2)
O8_5 O 0.1574(3) 0.3894(3) 0.1055(2)
C15_5 C 0.1230(5) 0.4481(3) 0.0292(3)
H14_5 H 0.1398 0.4122 0.0251
C16_5 C 0.1210(4) 0.4713(3) 0.0728(3)
C17_4 C 0.0981(5) 0.5240(4) 0.0780(3)
H15_4 H 0.0981 0.5404 0.1074
C18_4 C 0.0746(4) 0.5534(3) 0.0400(3)
H16_4 H 0.0567 0.5890 0.0437
C19_5 C 0.1456(4) 0.4387(3) 0.1129(3)
O13_5 O 0.1739(6) 0.2672(3) 0.1024(5)
O17_4 O 0.1207(6) 0.3273(5) 0.1883(3)
O18_4 O 0.1468(5) 0.3793(4) 0.2445(3)
H25_5 H 0.12502 0.264835 0.095799
H26_3 H 0.188985 0.233118 0.11751
O1_5 O 0.9268(3) 0.5921(3) 0.8890(2)
O5_6 O 0.6601(4) 0.5151(6) 0.7891(3)
C2_5 C 0.9968(4) 0.5840(3) 0.8764(3)
H3_5 H 0.9910 0.6134 0.9676
H8_5 H 0.9758 0.6893 0.9142
C6_5 C 0.8803(4) 0.5703(4) 0.8621(3)
C7_5 C 0.8913(4) 0.5400(4) 0.8238(3)
H9_5 H 0.9361 0.5301 0.8162
C8_5 C 0.8389(5) 0.5232(4) 0.7953(4)
H10_5 H 0.8488 0.5057 0.7672
C9_5 C 0.7735(4) 0.5316(4) 0.8076(3)
C10_5 C 0.7609(4) 0.5612(4) 0.8484(3)
H11_6 H 0.7158 0.5677 0.8578
C11_5 C 0.8138(5) 0.5808(5) 0.8748(4)
H12_5 H 0.8047 0.6013 0.9015
C12_6 C 0.7190(5) 0.5114(5) 0.7774(3)
C29_5 C 0.1965(7) 0.0054(7) 0.9954(4)
C33_5 C 0.1300(8) 0.0892(7) 0.9790(5)
O1_6 O 0.3232(3) 0.8421(3) 0.1390(2)
O2_5 O 0.1926(4) 0.8030(2) 0.2077(3)
O3_5 O 0.0956(3) 0.8976(3) 0.1641(3)
O4_5 O 0.2469(3) 0.9367(3) 0.0978(2)
O5_7 O 0.5899(4) 0.7651(6) 0.0391(3)
O7_6 O 0.0943(3) 0.7134(2) 0.3997(2)
O8_6 O 0.0926(3) 0.6394(3) 0.3555(2)
C1_5 C 0.2108(3) 0.8728(3) 0.1541(3)
C2_6 C 0.2532(4) 0.8340(3) 0.1264(3)
H1_5 H 0.2396 0.7960 0.1327
H2_5 H 0.2469 0.8412 0.0934
C3_5 C 0.2130(4) 0.8587(3) 0.2052(3)
H3_6 H 0.2590 0.8634 0.2176
H4_5 H 0.1818 0.8822 0.2227
C4_5 C 0.1387(4) 0.8640(4) 0.1365(3)
H5_5 H 0.1353 0.8746 0.1040
H6_5 H 0.1258 0.8252 0.1395
C5_5 C 0.2332(4) 0.9313(3) 0.1462(3)
H7_5 H 0.1974 0.9570 0.1556
H8_6 H 0.2742 0.9393 0.1642
C6_6 C 0.3697(4) 0.8203(4) 0.1121(3)
C7_6 C 0.3587(4) 0.7900(4) 0.0738(3)
H9_6 H 0.3139 0.7801 0.0662
C8_6 C 0.4111(5) 0.7732(4) 0.0453(4)
H10_6 H 0.4012 0.7557 0.0172
C9_6 C 0.4765(4) 0.7816(4) 0.0576(3)
C10_6 C 0.4891(4) 0.8112(4) 0.0984(3)
H11_7 H 0.5342 0.8177 0.1078
C11_6 C 0.4362(5) 0.8308(5) 0.1248(4)
H12_6 H 0.4453 0.8513 0.1515
C12_7 C 0.5310(5) 0.7614(5) 0.0274(3)
C13_5 C 0.1722(5) 0.7805(3) 0.2478(3)
C14_4 C 0.1490(5) 0.7269(4) 0.2430(4)
H13_4 H 0.1487 0.7106 0.2136
C15_6 C 0.1270(5) 0.6981(3) 0.2792(3)
H14_6 H 0.1102 0.6622 0.2751
C16_6 C 0.1290(4) 0.7213(3) 0.3228(3)
C17_5 C 0.1519(5) 0.7740(4) 0.3280(3)
H15_5 H 0.1519 0.7904 0.3574
C18_5 C 0.1754(4) 0.8034(3) 0.2900(3)
H16_5 H 0.1933 0.8390 0.2937
C19_6 C 0.1044(4) 0.6887(3) 0.3629(3)
C20_5 C 0.0287(4) 0.8876(4) 0.1632(4)
H17_5 H 0.0222 0.8291 0.1132
H20_5 H 0.0084 0.9459 0.2116
C27_5 C 0.2184(4) 0.9760(3) 0.0715(3)
C28_5 C 0.2219(7) 0.9670(6) 0.0259(4)
H21_5 H 0.2417 0.9344 0.0147
O13_6 O 0.0761(6) 0.5172(3) 0.3524(5)
H25_6 H 0.12498 0.514835 0.345799
H26_4 H 0.0610152 0.483118 0.36751
C21_5 C 0.9962(5) 0.8504(4) 0.1338(4)
C22_5 C 0.9288(4) 0.8447(4) 0.1346(4)
H18_5 H 0.9077 0.8198 0.1142
C23_5 C 0.8907(4) 0.8741(4) 0.1642(4)
C24_5 C 0.9208(5) 0.9118(5) 0.1922(5)
H19_5 H 0.8937 0.9331 0.2121
C25_5 C 0.9885(5) 0.9194(5) 0.1922(4)
C26_5 C 0.8145(4) 0.8685(4) 0.1635(4)
O2_6 O 0.0574(4) 0.0530(2) 0.4577(3)
O3_6 O 0.1544(3) 0.1476(3) 0.4141(3)
O4_6 O 0.0031(3) 0.1867(3) 0.3478(2)
C1_6 C 0.0392(3) 0.1228(3) 0.4041(3)
H1_6 H 0.0104 0.0460 0.3827
H2_6 H 0.0031 0.0912 0.3434
C3_6 C 0.0370(4) 0.1087(3) 0.4552(3)
H4_6 H 0.0682 0.1322 0.4727
C4_6 C 0.1113(4) 0.1140(4) 0.3865(3)
H5_6 H 0.1147 0.1246 0.3540
H6_6 H 0.1242 0.0752 0.3895
C5_6 C 0.0168(4) 0.1813(3) 0.3962(3)
H7_6 H 0.0526 0.2070 0.4056
C13_6 C 0.0778(5) 0.0305(3) 0.4978(3)
C17_6 C 0.0981(5) 0.0240(4) 0.5780(3)
H15_6 H 0.0981 0.0404 0.6074
C18_6 C 0.0746(4) 0.0534(3) 0.5400(3)
H16_6 H 0.0567 0.0890 0.5437
C20_6 C 0.2213(4) 0.1376(4) 0.4132(4)
C21_6 C 0.2538(5) 0.1004(4) 0.3838(4)
H17_6 H 0.2278 0.0791 0.3632
C22_6 C 0.3212(4) 0.0947(4) 0.3846(4)
H18_6 H 0.3423 0.0698 0.3642
C23_6 C 0.3593(4) 0.1241(4) 0.4142(4)
C24_6 C 0.3292(5) 0.1618(5) 0.4422(5)
H19_6 H 0.3563 0.1831 0.4621
C25_6 C 0.2615(5) 0.1694(5) 0.4422(4)
H20_6 H 0.2416 0.1959 0.4616
C26_6 C 0.4355(4) 0.1185(4) 0.4135(4)
C27_6 C 0.0316(4) 0.2260(3) 0.3215(3)
C28_6 C 0.0281(7) 0.2170(6) 0.2759(4)
H21_6 H 0.0083 0.1844 0.2647
C29_6 C 0.0535(7) 0.2554(7) 0.2454(4)
H22_4 H 0.0502 0.2495 0.2134
C30_6 C 0.0836(6) 0.3022(5) 0.2620(4)
C31_6 C 0.0838(5) 0.3103(4) 0.3069(4)
H23_6 H 0.1039 0.3429 0.3178
C32_6 C 0.0571(4) 0.2751(3) 0.3388(3)
H24_6 H 0.0560 0.2836 0.3704
C33_6 C 0.1200(8) 0.3392(7) 0.2290(5)
O11_3 O 0.6293(6) 0.5773(5) 0.9383(3)
O12_3 O 0.6032(5) 0.6293(4) 0.9945(3)
C29_7 C 0.6965(7) 0.5054(7) 0.9954(4)
H22_5 H 0.6998 0.4995 0.9634
C33_7 C 0.6300(8) 0.5892(7) 0.9790(5)
Zn3_2 Zn 0.55886(5) 0.57967(5) 0.89311(5)
Zn5_2 Zn 0.56063(6) 0.68529(5) 0.95658(4)
O1_7 O 0.8232(3) 0.8421(3) 0.6390(2)
O2_7 O 0.6926(4) 0.8030(2) 0.7077(3)
O3_7 O 0.5956(3) 0.8976(3) 0.6641(3)
O4_7 O 0.7469(3) 0.9367(3) 0.5978(2)
O7_7 O 0.5943(3) 0.7134(2) 0.8997(2)
O8_7 O 0.5926(3) 0.6394(3) 0.8555(2)
O9_4 O 0.2812(3) 0.8984(3) 0.6893(3)
O10_4 O 0.2891(3) 0.8324(3) 0.6379(3)
C1_7 C 0.7108(3) 0.8728(3) 0.6541(3)
C2_7 C 0.7532(4) 0.8340(3) 0.6264(3)
H1_7 H 0.7396 0.7960 0.6327
H2_7 H 0.7469 0.8412 0.5934
C3_7 C 0.7130(4) 0.8587(3) 0.7052(3)
H3_7 H 0.7590 0.8634 0.7176
H4_7 H 0.6818 0.8822 0.7227
C4_7 C 0.6387(4) 0.8640(4) 0.6365(3)
H5_7 H 0.6353 0.8746 0.6040
H6_7 H 0.6258 0.8252 0.6395
C5_7 C 0.7332(4) 0.9313(3) 0.6462(3)
H7_7 H 0.6974 0.9570 0.6556
H8_7 H 0.7742 0.9393 0.6642
C6_7 C 0.8697(4) 0.8203(4) 0.6121(3)
C7_7 C 0.8587(4) 0.7900(4) 0.5738(3)
H9_7 H 0.8139 0.7801 0.5662
C8_7 C 0.9111(5) 0.7732(4) 0.5453(4)
H10_7 H 0.9012 0.7557 0.5172
C9_7 C 0.9765(4) 0.7816(4) 0.5576(3)
C10_7 C 0.9891(4) 0.8112(4) 0.5984(3)
C11_7 C 0.9362(5) 0.8308(5) 0.6248(4)
H12_7 H 0.9453 0.8513 0.6515
C13_7 C 0.6722(5) 0.7805(3) 0.7478(3)
C14_5 C 0.6490(5) 0.7269(4) 0.7430(4)
H13_5 H 0.6487 0.7106 0.7136
C15_7 C 0.6270(5) 0.6981(3) 0.7792(3)
H14_7 H 0.6102 0.6622 0.7751
C16_7 C 0.6290(4) 0.7213(3) 0.8228(3)
C17_7 C 0.6519(5) 0.7740(4) 0.8280(3)
H15_7 H 0.6519 0.7904 0.8574
C18_7 C 0.6754(4) 0.8034(3) 0.7900(3)
H16_7 H 0.6933 0.8390 0.7937
C19_7 C 0.6044(4) 0.6887(3) 0.8629(3)
C20_7 C 0.5287(4) 0.8876(4) 0.6632(4)
C21_7 C 0.4962(5) 0.8504(4) 0.6338(4)
H17_7 H 0.5222 0.8291 0.6132
C22_7 C 0.4288(4) 0.8447(4) 0.6346(4)
H18_7 H 0.4077 0.8198 0.6142
C23_7 C 0.3907(4) 0.8741(4) 0.6642(4)
C24_7 C 0.4208(5) 0.9118(5) 0.6922(5)
H19_7 H 0.3937 0.9331 0.7121
C25_7 C 0.4885(5) 0.9194(5) 0.6922(4)
H20_7 H 0.5084 0.9459 0.7116
C26_7 C 0.3145(4) 0.8685(4) 0.6635(4)
C27_7 C 0.7184(4) 0.9760(3) 0.5715(3)
C28_7 C 0.7219(7) 0.9670(6) 0.5259(4)
H21_7 H 0.7417 0.9344 0.5147
H22_6 H 0.6998 0.9995 0.4634
O13_7 O 0.5761(6) 0.5172(3) 0.8524(5)
Zn4_4 Zn 0.19114(5) 0.82967(5) 0.64311(5)
Zn7_3 Zn 0.18937(6) 0.93529(5) 0.70658(4)
O14_4 O 0.5135(4) 0.7398(4) 0.9913(3)
O15_4 O 0.4688(3) 0.6484(3) 0.9393(3)
O16_4 O 0.4609(3) 0.5824(3) 0.8879(3)
H25_7 H 0.62498 0.514835 0.845799
H26_5 H 0.561015 0.483118 0.86751
O6_4 O 0.2365(4) 0.9898(4) 0.7413(3)
C14_6 C 0.6010(5) 0.9769(4) 0.9930(4)
H13_6 H 0.6013 0.9606 0.9636
O2_8 O 0.0574(4) 0.5530(2) 0.9577(3)
O3_8 O 0.1544(3) 0.6476(3) 0.9141(3)
O4_8 O 0.0031(3) 0.6867(3) 0.8478(2)
O11_4 O 0.1207(6) 0.8273(5) 0.6883(3)
O12_4 O 0.1468(5) 0.8793(4) 0.7445(3)
C1_8 C 0.0392(3) 0.6228(3) 0.9041(3)
H1_8 H 0.0104 0.5460 0.8827
H2_8 H 0.0031 0.5912 0.8434
C3_8 C 0.0370(4) 0.6087(3) 0.9552(3)
H4_8 H 0.0682 0.6322 0.9727
C4_8 C 0.1113(4) 0.6140(4) 0.8865(3)
H5_8 H 0.1147 0.6246 0.8540
H6_8 H 0.1242 0.5752 0.8895
C5_8 C 0.0168(4) 0.6813(3) 0.8962(3)
H7_8 H 0.0526 0.7070 0.9056
C13_8 C 0.0778(5) 0.5305(3) 0.9978(3)
C14_7 C 0.1010(5) 0.4769(4) 0.9930(4)
H13_7 H 0.1013 0.4606 0.9636
C20_8 C 0.2213(4) 0.6376(4) 0.9132(4)
C21_8 C 0.2538(5) 0.6004(4) 0.8838(4)
H17_8 H 0.2278 0.5791 0.8632
C22_8 C 0.3212(4) 0.5947(4) 0.8846(4)
H18_8 H 0.3423 0.5698 0.8642
C23_8 C 0.3593(4) 0.6241(4) 0.9142(4)
C24_8 C 0.3292(5) 0.6618(5) 0.9422(5)
H19_8 H 0.3563 0.6831 0.9621
C25_8 C 0.2615(5) 0.6694(5) 0.9422(4)
H20_8 H 0.2416 0.6959 0.9616
C26_8 C 0.4355(4) 0.6185(4) 0.9135(4)
C27_8 C 0.0316(4) 0.7260(3) 0.8215(3)
C28_8 C 0.0281(7) 0.7170(6) 0.7759(4)
H21_8 H 0.0083 0.6844 0.7647
C29_8 C 0.0535(7) 0.7554(7) 0.7454(4)
H22_7 H 0.0502 0.7495 0.7134
C30_7 C 0.0836(6) 0.8022(5) 0.7620(4)
C31_7 C 0.0838(5) 0.8103(4) 0.8069(4)
H23_7 H 0.1039 0.8429 0.8178
C32_7 C 0.0571(4) 0.7751(3) 0.8388(3)
H24_7 H 0.0560 0.7836 0.8704
C33_8 C 0.1200(8) 0.8392(7) 0.7290(5)
H22_8 H 0.1998 0.9995 0.9634
O7_8 O 0.1557(3) 0.9634(2) 0.6497(2)
O8_8 O 0.1574(3) 0.8894(3) 0.6055(2)
C14_8 C 0.1010(5) 0.9769(4) 0.4930(4)
H13_8 H 0.1013 0.9606 0.4636
C15_8 C 0.1230(5) 0.9481(3) 0.5292(3)
H14_8 H 0.1398 0.9122 0.5251
C16_8 C 0.1210(4) 0.9713(3) 0.5728(3)
C19_8 C 0.1456(4) 0.9387(3) 0.6129(3)
O13_8 O 0.1739(6) 0.7672(3) 0.6024(5)
H25_8 H 0.12502 0.764835 0.595799
H26_6 H 0.188985 0.733118 0.61751
H26_7 H 0.561015 0.983118 0.36751
H26_8 H 0.438985 0.016882 0.36751
Zn1_3 Zn 0.44114(5) 0.92033(5) 0.39311(5)
Zn2_3 Zn 0.43937(6) 0.81471(5) 0.45658(4)
O1_8 O 0.1768(3) 0.6579(3) 0.1390(2)
O2_9 O 0.3074(4) 0.6970(2) 0.2077(3)
O3_9 O 0.4044(3) 0.6024(3) 0.1641(3)
O4_9 O 0.2531(3) 0.5633(3) 0.0978(2)
O7_9 O 0.4057(3) 0.7866(2) 0.3997(2)
O8_9 O 0.4074(3) 0.8606(3) 0.3555(2)
O9_5 O 0.7188(3) 0.6016(3) 0.1893(3)
O10_5 O 0.7109(3) 0.6676(3) 0.1379(3)
C1_9 C 0.2892(3) 0.6272(3) 0.1541(3)
C2_8 C 0.2468(4) 0.6660(3) 0.1264(3)
H1_9 H 0.2604 0.7040 0.1327
H2_9 H 0.2531 0.6588 0.0934
C3_9 C 0.2870(4) 0.6413(3) 0.2052(3)
H3_8 H 0.2410 0.6366 0.2176
H4_9 H 0.3182 0.6178 0.2227
C4_9 C 0.3613(4) 0.6360(4) 0.1365(3)
H5_9 H 0.3647 0.6254 0.1040
H6_9 H 0.3742 0.6748 0.1395
C5_9 C 0.2668(4) 0.5687(3) 0.1462(3)
H7_9 H 0.3026 0.5430 0.1556
H8_8 H 0.2258 0.5607 0.1642
C6_8 C 0.1303(4) 0.6797(4) 0.1121(3)
C7_8 C 0.1413(4) 0.7100(4) 0.0738(3)
H9_8 H 0.1861 0.7199 0.0662
C8_8 C 0.0889(5) 0.7268(4) 0.0453(4)
H10_8 H 0.0988 0.7443 0.0172
C9_8 C 0.0235(4) 0.7184(4) 0.0576(3)
C10_8 C 0.0109(4) 0.6888(4) 0.0984(3)
C11_8 C 0.0638(5) 0.6692(5) 0.1248(4)
H12_8 H 0.0547 0.6487 0.1515
C13_9 C 0.3278(5) 0.7195(3) 0.2478(3)
C14_9 C 0.3510(5) 0.7731(4) 0.2430(4)
H13_9 H 0.3513 0.7894 0.2136
C15_9 C 0.3730(5) 0.8019(3) 0.2792(3)
H14_9 H 0.3898 0.8378 0.2751
C16_9 C 0.3710(4) 0.7787(3) 0.3228(3)
C17_8 C 0.3481(5) 0.7260(4) 0.3280(3)
H15_8 H 0.3481 0.7096 0.3574
C18_8 C 0.3246(4) 0.6966(3) 0.2900(3)
H16_8 H 0.3067 0.6610 0.2937
C19_9 C 0.3956(4) 0.8113(3) 0.3629(3)
C20_9 C 0.4713(4) 0.6124(4) 0.1632(4)
C21_9 C 0.5038(5) 0.6496(4) 0.1338(4)
H17_9 H 0.4778 0.6709 0.1132
C22_9 C 0.5712(4) 0.6553(4) 0.1346(4)
H18_9 H 0.5923 0.6802 0.1142
C23_9 C 0.6093(4) 0.6259(4) 0.1642(4)
C24_9 C 0.5792(5) 0.5882(5) 0.1922(5)
H19_9 H 0.6063 0.5669 0.2121
C25_9 C 0.5115(5) 0.5806(5) 0.1922(4)
H20_9 H 0.4916 0.5541 0.2116
C26_9 C 0.6855(4) 0.6315(4) 0.1635(4)
C27_9 C 0.2816(4) 0.5240(3) 0.0715(3)
C28_9 C 0.2781(7) 0.5330(6) 0.0259(4)
H21_9 H 0.2583 0.5656 0.0147
C30_8 C 0.3336(6) 0.4478(5) 0.0120(4)
C31_8 C 0.3338(5) 0.4397(4) 0.0569(4)
H23_8 H 0.3539 0.4071 0.0678
C32_8 C 0.3071(4) 0.4749(3) 0.0888(3)
H24_8 H 0.3060 0.4664 0.1204
O13_9 O 0.4239(6) 0.9828(3) 0.3524(5)
Zn4_5 Zn 0.80886(5) 0.67033(5) 0.14311(5)
Zn7_4 Zn 0.81063(6) 0.56471(5) 0.20658(4)
O14_5 O 0.4865(4) 0.7602(4) 0.4913(3)
O15_5 O 0.5312(3) 0.8516(3) 0.4393(3)
O16_5 O 0.5391(3) 0.9176(3) 0.3879(3)
O17_5 O 0.3707(6) 0.9227(5) 0.4383(3)
O18_5 O 0.3968(5) 0.8707(4) 0.4945(3)
H25_9 H 0.37502 0.985165 0.345799
O6_5 O 0.9865(4) 0.7602(4) 0.9913(3)
Zn6_2 Zn 0.93937(6) 0.81471(5) 0.95658(4)
O6_6 O 0.2635(4) 0.0102(4) 0.2413(3)
Zn6_3 Zn 0.31063(6) 0.06471(5) 0.20658(4)
O2_10 O 0.9426(4) 0.9470(2) 0.4577(3)
O3_10 O 0.8456(3) 0.8524(3) 0.4141(3)
O4_10 O 0.9969(3) 0.8133(3) 0.3478(2)
O11_5 O 0.8793(6) 0.6727(5) 0.1883(3)
O12_5 O 0.8532(5) 0.6207(4) 0.2445(3)
C1_10 C 0.9608(3) 0.8772(3) 0.4041(3)
H1_10 H 0.9896 0.9540 0.3827
H2_10 H 0.9969 0.9088 0.3434
C3_10 C 0.9630(4) 0.8913(3) 0.4552(3)
H4_10 H 0.9318 0.8678 0.4727
C4_10 C 0.8887(4) 0.8860(4) 0.3865(3)
H5_10 H 0.8853 0.8754 0.3540
H6_10 H 0.8758 0.9248 0.3895
C5_10 C 0.9832(4) 0.8187(3) 0.3962(3)
H7_10 H 0.9474 0.7930 0.4056
C13_10 C 0.9222(5) 0.9695(3) 0.4978(3)
C17_9 C 0.9019(5) 0.9760(4) 0.5780(3)
H15_9 H 0.9019 0.9596 0.6074
C18_9 C 0.9254(4) 0.9466(3) 0.5400(3)
H16_9 H 0.9433 0.9110 0.5437
C20_10 C 0.7787(4) 0.8624(4) 0.4132(4)
C21_10 C 0.7462(5) 0.8996(4) 0.3838(4)
H17_10 H 0.7722 0.9209 0.3632
C22_10 C 0.6788(4) 0.9053(4) 0.3846(4)
H18_10 H 0.6577 0.9302 0.3642
C23_10 C 0.6407(4) 0.8759(4) 0.4142(4)
C24_10 C 0.6708(5) 0.8382(5) 0.4422(5)
H19_10 H 0.6437 0.8169 0.4621
C25_10 C 0.7385(5) 0.8306(5) 0.4422(4)
H20_10 H 0.7584 0.8041 0.4616
C26_10 C 0.5645(4) 0.8815(4) 0.4135(4)
C27_10 C 0.9684(4) 0.7740(3) 0.3215(3)
C28_10 C 0.9719(7) 0.7830(6) 0.2759(4)
H21_10 H 0.9917 0.8156 0.2647
C29_9 C 0.9465(7) 0.7446(7) 0.2454(4)
H22_9 H 0.9498 0.7505 0.2134
C30_9 C 0.9164(6) 0.6978(5) 0.2620(4)
C31_9 C 0.9162(5) 0.6897(4) 0.3069(4)
H23_9 H 0.8961 0.6571 0.3178
C32_9 C 0.9429(4) 0.7249(3) 0.3388(3)
H24_9 H 0.9440 0.7164 0.3704
C33_9 C 0.8800(8) 0.6608(7) 0.2290(5)
C29_10 C 0.3035(7) 0.9946(7) 0.4954(4)
C30_10 C 0.3336(6) 0.9478(5) 0.5120(4)
C31_10 C 0.3338(5) 0.9397(4) 0.5569(4)
H23_10 H 0.3539 0.9071 0.5678
C32_10 C 0.3071(4) 0.9749(3) 0.5888(3)
H24_10 H 0.3060 0.9664 0.6204
C33_10 C 0.3700(8) 0.9108(7) 0.4790(5)
O5_8 O 0.9101(4) 0.2349(6) 0.5391(3)
O6_7 O 0.9865(4) 0.2602(4) 0.4913(3)
H11_8 H 0.9658 0.1823 0.6078
C12_8 C 0.9690(5) 0.2386(5) 0.5274(3)
Zn6_4 Zn 0.93937(6) 0.31471(5) 0.45658(4)
O1_9 O 0.0732(3) 0.4079(3) 0.8890(2)
O5_9 O 0.3399(4) 0.4849(6) 0.7891(3)
O6_8 O 0.2635(4) 0.5102(4) 0.7413(3)
C2_9 C 0.0032(4) 0.4160(3) 0.8764(3)
H3_9 H 0.0090 0.3866 0.9676
H8_9 H 0.0242 0.3107 0.9142
C6_9 C 0.1197(4) 0.4297(4) 0.8621(3)
C7_9 C 0.1087(4) 0.4600(4) 0.8238(3)
H9_9 H 0.0639 0.4699 0.8162
C8_9 C 0.1611(5) 0.4768(4) 0.7953(4)
H10_9 H 0.1512 0.4943 0.7672
C9_9 C 0.2265(4) 0.4684(4) 0.8076(3)
C10_9 C 0.2391(4) 0.4388(4) 0.8484(3)
H11_9 H 0.2842 0.4323 0.8578
C11_9 C 0.1862(5) 0.4192(5) 0.8748(4)
H12_9 H 0.1953 0.3987 0.9015
C12_9 C 0.2810(5) 0.4886(5) 0.7774(3)
Zn6_5 Zn 0.31063(6) 0.56471(5) 0.70658(4)
O7_10 O 0.8443(3) 0.5366(2) 0.1497(2)
O8_10 O 0.8426(3) 0.6106(3) 0.1055(2)
C15_10 C 0.8770(5) 0.5519(3) 0.0292(3)
H14_10 H 0.8602 0.5878 0.0251
C16_10 C 0.8790(4) 0.5287(3) 0.0728(3)
C17_10 C 0.9019(5) 0.4760(4) 0.0780(3)
H15_10 H 0.9019 0.4596 0.1074
C18_10 C 0.9254(4) 0.4466(3) 0.0400(3)
H16_10 H 0.9433 0.4110 0.0437
C19_10 C 0.8544(4) 0.5613(3) 0.1129(3)
O13_10 O 0.8261(6) 0.7328(3) 0.1024(5)
O14_6 O 0.7635(4) 0.5102(4) 0.2413(3)
H25_10 H 0.87498 0.735165 0.095799
H26_9 H 0.811015 0.766882 0.11751
O9_6 O 0.2188(3) 0.6016(3) 0.6893(3)
O10_6 O 0.2109(3) 0.6676(3) 0.6379(3)
C21_11 C 0.0038(5) 0.6496(4) 0.6338(4)
C22_11 C 0.0712(4) 0.6553(4) 0.6346(4)
H18_11 H 0.0923 0.6802 0.6142
C23_11 C 0.1093(4) 0.6259(4) 0.6642(4)
C24_11 C 0.0792(5) 0.5882(5) 0.6922(5)
H19_11 H 0.1063 0.5669 0.7121
C25_11 C 0.0115(5) 0.5806(5) 0.6922(4)
C26_11 C 0.1855(4) 0.6315(4) 0.6635(4)
Zn4_6 Zn 0.30886(5) 0.67033(5) 0.64311(5)
O15_6 O 0.0312(3) 0.8516(3) 0.9393(3)
O16_6 O 0.0391(3) 0.9176(3) 0.8879(3)
Zn1_4 Zn 0.94114(5) 0.92033(5) 0.89311(5)
O1_10 O 0.6768(3) 0.6579(3) 0.6390(2)
O2_11 O 0.8074(4) 0.6970(2) 0.7077(3)
O3_11 O 0.9044(3) 0.6024(3) 0.6641(3)
O4_11 O 0.7531(3) 0.5633(3) 0.5978(2)
O5_10 O 0.4101(4) 0.7349(6) 0.5391(3)
O7_11 O 0.9057(3) 0.7866(2) 0.8997(2)
O8_11 O 0.9074(3) 0.8606(3) 0.8555(2)
O11_6 O 0.8707(6) 0.4227(5) 0.4383(3)
O12_6 O 0.8968(5) 0.3707(4) 0.4945(3)
C1_11 C 0.7892(3) 0.6272(3) 0.6541(3)
C2_10 C 0.7468(4) 0.6660(3) 0.6264(3)
H1_11 H 0.7604 0.7040 0.6327
H2_11 H 0.7531 0.6588 0.5934
C3_11 C 0.7870(4) 0.6413(3) 0.7052(3)
H3_10 H 0.7410 0.6366 0.7176
H4_11 H 0.8182 0.6178 0.7227
C4_11 C 0.8613(4) 0.6360(4) 0.6365(3)
H5_11 H 0.8647 0.6254 0.6040
H6_11 H 0.8742 0.6748 0.6395
C5_11 C 0.7668(4) 0.5687(3) 0.6462(3)
H7_11 H 0.8026 0.5430 0.6556
H8_10 H 0.7258 0.5607 0.6642
C6_10 C 0.6303(4) 0.6797(4) 0.6121(3)
C7_10 C 0.6413(4) 0.7100(4) 0.5738(3)
H9_10 H 0.6861 0.7199 0.5662
C8_10 C 0.5889(5) 0.7268(4) 0.5453(4)
H10_10 H 0.5988 0.7443 0.5172
C9_10 C 0.5235(4) 0.7184(4) 0.5576(3)
C10_10 C 0.5109(4) 0.6888(4) 0.5984(3)
H11_10 H 0.4658 0.6823 0.6078
C11_10 C 0.5638(5) 0.6692(5) 0.6248(4)
H12_10 H 0.5547 0.6487 0.6515
C12_10 C 0.4690(5) 0.7386(5) 0.5274(3)
C13_11 C 0.8278(5) 0.7195(3) 0.7478(3)
C14_10 C 0.8510(5) 0.7731(4) 0.7430(4)
H13_10 H 0.8513 0.7894 0.7136
C15_11 C 0.8730(5) 0.8019(3) 0.7792(3)
H14_11 H 0.8898 0.8378 0.7751
C16_11 C 0.8710(4) 0.7787(3) 0.8228(3)
C17_11 C 0.8481(5) 0.7260(4) 0.8280(3)
H15_11 H 0.8481 0.7096 0.8574
C18_11 C 0.8246(4) 0.6966(3) 0.7900(3)
H16_11 H 0.8067 0.6610 0.7937
C19_11 C 0.8956(4) 0.8113(3) 0.8629(3)
C20_11 C 0.9713(4) 0.6124(4) 0.6632(4)
H17_11 H 0.9778 0.6709 0.6132
H20_11 H 0.9916 0.5541 0.7116
C27_11 C 0.7816(4) 0.5240(3) 0.5715(3)
C28_11 C 0.7781(7) 0.5330(6) 0.5259(4)
H21_11 H 0.7583 0.5656 0.5147
C29_11 C 0.8035(7) 0.4946(7) 0.4954(4)
H22_10 H 0.8002 0.5005 0.4634
C30_11 C 0.8336(6) 0.4478(5) 0.5120(4)
C31_11 C 0.8338(5) 0.4397(4) 0.5569(4)
H23_11 H 0.8539 0.4071 0.5678
C32_11 C 0.8071(4) 0.4749(3) 0.5888(3)
H24_11 H 0.8060 0.4664 0.6204
C33_11 C 0.8700(8) 0.4108(7) 0.4790(5)
O13_11 O 0.9239(6) 0.9828(3) 0.8524(5)
Zn3_3 Zn 0.94114(5) 0.42033(5) 0.39311(5)
O17_6 O 0.8707(6) 0.9227(5) 0.9383(3)
O18_6 O 0.8968(5) 0.8707(4) 0.9945(3)
H25_11 H 0.87502 0.985165 0.845799
Zn1_5 Zn 0.30886(5) 0.17033(5) 0.14311(5)
O7_12 O 0.3443(3) 0.0366(2) 0.1497(2)
O8_12 O 0.3426(3) 0.1106(3) 0.1055(2)
C15_12 C 0.3770(5) 0.0519(3) 0.0292(3)
H14_12 H 0.3602 0.0878 0.0251
C16_12 C 0.3790(4) 0.0287(3) 0.0728(3)
C19_12 C 0.3544(4) 0.0613(3) 0.1129(3)
O13_12 O 0.3261(6) 0.2328(3) 0.1024(5)
O15_7 O 0.2188(3) 0.1016(3) 0.1893(3)
O16_7 O 0.2109(3) 0.1676(3) 0.1379(3)
O17_7 O 0.3793(6) 0.1727(5) 0.1883(3)
O18_7 O 0.3532(5) 0.1207(4) 0.2445(3)
H25_12 H 0.37498 0.235165 0.095799
H26_10 H 0.311015 0.266882 0.11751
O1_11 O 0.5732(3) 0.9079(3) 0.8890(2)
O2_12 O 0.4426(4) 0.9470(2) 0.9577(3)
O3_12 O 0.3456(3) 0.8524(3) 0.9141(3)
O4_12 O 0.4969(3) 0.8133(3) 0.8478(2)
O5_11 O 0.8399(4) 0.9849(6) 0.7891(3)
O11_7 O 0.3793(6) 0.6727(5) 0.6883(3)
O12_7 O 0.3532(5) 0.6207(4) 0.7445(3)
C1_12 C 0.4608(3) 0.8772(3) 0.9041(3)
C2_11 C 0.5032(4) 0.9160(3) 0.8764(3)
H1_12 H 0.4896 0.9540 0.8827
H2_12 H 0.4969 0.9088 0.8434
C3_12 C 0.4630(4) 0.8913(3) 0.9552(3)
H3_11 H 0.5090 0.8866 0.9676
H4_12 H 0.4318 0.8678 0.9727
C4_12 C 0.3887(4) 0.8860(4) 0.8865(3)
H5_12 H 0.3853 0.8754 0.8540
H6_12 H 0.3758 0.9248 0.8895
C5_12 C 0.4832(4) 0.8187(3) 0.8962(3)
H7_12 H 0.4474 0.7930 0.9056
H8_11 H 0.5242 0.8107 0.9142
C6_11 C 0.6197(4) 0.9297(4) 0.8621(3)
C7_11 C 0.6087(4) 0.9600(4) 0.8238(3)
H9_11 H 0.5639 0.9699 0.8162
C8_11 C 0.6611(5) 0.9768(4) 0.7953(4)
H10_11 H 0.6512 0.9943 0.7672
C9_11 C 0.7265(4) 0.9684(4) 0.8076(3)
C10_11 C 0.7391(4) 0.9388(4) 0.8484(3)
H11_11 H 0.7842 0.9323 0.8578
C11_11 C 0.6862(5) 0.9192(5) 0.8748(4)
H12_11 H 0.6953 0.8987 0.9015
C12_11 C 0.7810(5) 0.9886(5) 0.7774(3)
C13_12 C 0.4222(5) 0.9695(3) 0.9978(3)
C20_12 C 0.2787(4) 0.8624(4) 0.9132(4)
C21_12 C 0.2462(5) 0.8996(4) 0.8838(4)
H17_12 H 0.2722 0.9209 0.8632
C22_12 C 0.1788(4) 0.9053(4) 0.8846(4)
H18_12 H 0.1577 0.9302 0.8642
C23_12 C 0.1407(4) 0.8759(4) 0.9142(4)
C24_12 C 0.1708(5) 0.8382(5) 0.9422(5)
H19_12 H 0.1437 0.8169 0.9621
C25_12 C 0.2385(5) 0.8306(5) 0.9422(4)
H20_12 H 0.2584 0.8041 0.9616
C26_12 C 0.0645(4) 0.8815(4) 0.9135(4)
C27_12 C 0.4684(4) 0.7740(3) 0.8215(3)
C28_12 C 0.4719(7) 0.7830(6) 0.7759(4)
H21_12 H 0.4917 0.8156 0.7647
C29_12 C 0.4465(7) 0.7446(7) 0.7454(4)
H22_11 H 0.4498 0.7505 0.7134
C30_12 C 0.4164(6) 0.6978(5) 0.7620(4)
C31_12 C 0.4162(5) 0.6897(4) 0.8069(4)
H23_12 H 0.3961 0.6571 0.8178
C32_12 C 0.4429(4) 0.7249(3) 0.8388(3)
H24_12 H 0.4440 0.7164 0.8704
C33_12 C 0.3800(8) 0.6608(7) 0.7290(5)
C21_13 C 0.0038(5) 0.1496(4) 0.1338(4)
C22_13 C 0.0712(4) 0.1553(4) 0.1346(4)
H18_13 H 0.0923 0.1802 0.1142
C23_13 C 0.1093(4) 0.1259(4) 0.1642(4)
C24_13 C 0.0792(5) 0.0882(5) 0.1922(5)
H19_13 H 0.1063 0.0669 0.2121
C25_13 C 0.0115(5) 0.0806(5) 0.1922(4)
C26_13 C 0.1855(4) 0.1315(4) 0.1635(4)
O15_8 O 0.0312(3) 0.3516(3) 0.4393(3)
O16_8 O 0.0391(3) 0.4176(3) 0.3879(3)
O1_12 O 0.6768(3) 0.1579(3) 0.1390(2)
O2_13 O 0.8074(4) 0.1970(2) 0.2077(3)
O3_13 O 0.9044(3) 0.1024(3) 0.1641(3)
O4_13 O 0.7531(3) 0.0633(3) 0.0978(2)
O5_12 O 0.4101(4) 0.2349(6) 0.0391(3)
O7_13 O 0.9057(3) 0.2866(2) 0.3997(2)
O8_13 O 0.9074(3) 0.3606(3) 0.3555(2)
C1_13 C 0.7892(3) 0.1272(3) 0.1541(3)
C2_12 C 0.7468(4) 0.1660(3) 0.1264(3)
H1_13 H 0.7604 0.2040 0.1327
H2_13 H 0.7531 0.1588 0.0934
C3_13 C 0.7870(4) 0.1413(3) 0.2052(3)
H3_12 H 0.7410 0.1366 0.2176
H4_13 H 0.8182 0.1178 0.2227
C4_13 C 0.8613(4) 0.1360(4) 0.1365(3)
H5_13 H 0.8647 0.1254 0.1040
H6_13 H 0.8742 0.1748 0.1395
C5_13 C 0.7668(4) 0.0687(3) 0.1462(3)
H7_13 H 0.8026 0.0430 0.1556
H8_12 H 0.7258 0.0607 0.1642
C6_12 C 0.6303(4) 0.1797(4) 0.1121(3)
C7_12 C 0.6413(4) 0.2100(4) 0.0738(3)
H9_12 H 0.6861 0.2199 0.0662
C8_12 C 0.5889(5) 0.2268(4) 0.0453(4)
H10_12 H 0.5988 0.2443 0.0172
C9_12 C 0.5235(4) 0.2184(4) 0.0576(3)
C10_12 C 0.5109(4) 0.1888(4) 0.0984(3)
H11_12 H 0.4658 0.1823 0.1078
C11_12 C 0.5638(5) 0.1692(5) 0.1248(4)
H12_12 H 0.5547 0.1487 0.1515
C12_12 C 0.4690(5) 0.2386(5) 0.0274(3)
C13_13 C 0.8278(5) 0.2195(3) 0.2478(3)
C14_11 C 0.8510(5) 0.2731(4) 0.2430(4)
H13_11 H 0.8513 0.2894 0.2136
C15_13 C 0.8730(5) 0.3019(3) 0.2792(3)
H14_13 H 0.8898 0.3378 0.2751
C16_13 C 0.8710(4) 0.2787(3) 0.3228(3)
C17_12 C 0.8481(5) 0.2260(4) 0.3280(3)
H15_12 H 0.8481 0.2096 0.3574
C18_12 C 0.8246(4) 0.1966(3) 0.2900(3)
H16_12 H 0.8067 0.1610 0.2937
C19_13 C 0.8956(4) 0.3113(3) 0.3629(3)
C20_13 C 0.9713(4) 0.1124(4) 0.1632(4)
H17_13 H 0.9778 0.1709 0.1132
H20_13 H 0.9916 0.0541 0.2116
C27_13 C 0.7816(4) 0.0240(3) 0.0715(3)
C28_13 C 0.7781(7) 0.0330(6) 0.0259(4)
H21_13 H 0.7583 0.0656 0.0147
O13_13 O 0.9239(6) 0.4828(3) 0.3524(5)
H25_13 H 0.87502 0.485165 0.345799
H26_11 H 0.938985 0.516882 0.36751
C29_13 C 0.8035(7) 0.9946(7) 0.9954(4)
C33_13 C 0.8700(8) 0.9108(7) 0.9790(5)
O1_13 O 0.5732(3) 0.4079(3) 0.3890(2)
O2_14 O 0.4426(4) 0.4470(2) 0.4577(3)
O3_14 O 0.3456(3) 0.3524(3) 0.4141(3)
O4_14 O 0.4969(3) 0.3133(3) 0.3478(2)
O5_13 O 0.8399(4) 0.4849(6) 0.2891(3)
O7_14 O 0.3443(3) 0.5366(2) 0.6497(2)
O8_14 O 0.3426(3) 0.6106(3) 0.6055(2)
C1_14 C 0.4608(3) 0.3772(3) 0.4041(3)
C2_13 C 0.5032(4) 0.4160(3) 0.3764(3)
H1_14 H 0.4896 0.4540 0.3827
H2_14 H 0.4969 0.4088 0.3434
C3_14 C 0.4630(4) 0.3913(3) 0.4552(3)
H3_13 H 0.5090 0.3866 0.4676
H4_14 H 0.4318 0.3678 0.4727
C4_14 C 0.3887(4) 0.3860(4) 0.3865(3)
H5_14 H 0.3853 0.3754 0.3540
H6_14 H 0.3758 0.4248 0.3895
C5_14 C 0.4832(4) 0.3187(3) 0.3962(3)
H7_14 H 0.4474 0.2930 0.4056
H8_13 H 0.5242 0.3107 0.4142
C6_13 C 0.6197(4) 0.4297(4) 0.3621(3)
C7_13 C 0.6087(4) 0.4600(4) 0.3238(3)
H9_13 H 0.5639 0.4699 0.3162
C8_13 C 0.6611(5) 0.4768(4) 0.2953(4)
H10_13 H 0.6512 0.4943 0.2672
C9_13 C 0.7265(4) 0.4684(4) 0.3076(3)
C10_13 C 0.7391(4) 0.4388(4) 0.3484(3)
H11_13 H 0.7842 0.4323 0.3578
C11_13 C 0.6862(5) 0.4192(5) 0.3748(4)
H12_13 H 0.6953 0.3987 0.4015
C12_13 C 0.7810(5) 0.4886(5) 0.2774(3)
C13_14 C 0.4222(5) 0.4695(3) 0.4978(3)
C14_12 C 0.3990(5) 0.5231(4) 0.4930(4)
H13_12 H 0.3987 0.5394 0.4636
C15_14 C 0.3770(5) 0.5519(3) 0.5292(3)
H14_14 H 0.3602 0.5878 0.5251
C16_14 C 0.3790(4) 0.5287(3) 0.5728(3)
C17_13 C 0.4019(5) 0.4760(4) 0.5780(3)
H15_13 H 0.4019 0.4596 0.6074
C18_13 C 0.4254(4) 0.4466(3) 0.5400(3)
H16_13 H 0.4433 0.4110 0.5437
C19_14 C 0.3544(4) 0.5613(3) 0.6129(3)
C20_14 C 0.2787(4) 0.3624(4) 0.4132(4)
C21_14 C 0.2462(5) 0.3996(4) 0.3838(4)
H17_14 H 0.2722 0.4209 0.3632
C22_14 C 0.1788(4) 0.4053(4) 0.3846(4)
H18_14 H 0.1577 0.4302 0.3642
C23_14 C 0.1407(4) 0.3759(4) 0.4142(4)
C24_14 C 0.1708(5) 0.3382(5) 0.4422(5)
H19_14 H 0.1437 0.3169 0.4621
C25_14 C 0.2385(5) 0.3306(5) 0.4422(4)
H20_14 H 0.2584 0.3041 0.4616
C26_14 C 0.0645(4) 0.3815(4) 0.4135(4)
C27_14 C 0.4684(4) 0.2740(3) 0.3215(3)
C28_14 C 0.4719(7) 0.2830(6) 0.2759(4)
H21_14 H 0.4917 0.3156 0.2647
C29_14 C 0.4465(7) 0.2446(7) 0.2454(4)
H22_12 H 0.4498 0.2505 0.2134
C30_13 C 0.4164(6) 0.1978(5) 0.2620(4)
C31_13 C 0.4162(5) 0.1897(4) 0.3069(4)
H23_13 H 0.3961 0.1571 0.3178
C32_13 C 0.4429(4) 0.2249(3) 0.3388(3)
H24_13 H 0.4440 0.2164 0.3704
C33_14 C 0.3800(8) 0.1608(7) 0.2290(5)
O13_14 O 0.3261(6) 0.7328(3) 0.6024(5)
H25_14 H 0.37498 0.735165 0.595799
H26_12 H 0.311015 0.766882 0.61751
O11_8 O 0.3707(6) 0.4227(5) 0.9383(3)
O12_8 O 0.3968(5) 0.3707(4) 0.9945(3)
C29_15 C 0.3035(7) 0.4946(7) 0.9954(4)
H22_13 H 0.3002 0.5005 0.9634
C33_15 C 0.3700(8) 0.4108(7) 0.9790(5)
Zn3_4 Zn 0.44114(5) 0.42033(5) 0.89311(5)
Zn5_3 Zn 0.43937(6) 0.31471(5) 0.95658(4)
Zn1_6 Zn 0.80886(5) 0.17033(5) 0.64311(5)
Zn2_4 Zn 0.81063(6) 0.06471(5) 0.70658(4)
O7_15 O 0.8443(3) 0.0366(2) 0.6497(2)
O8_15 O 0.8426(3) 0.1106(3) 0.6055(2)
C14_13 C 0.8990(5) 0.0231(4) 0.4930(4)
H13_13 H 0.8987 0.0394 0.4636
C15_15 C 0.8770(5) 0.0519(3) 0.5292(3)
H14_15 H 0.8602 0.0878 0.5251
C16_15 C 0.8790(4) 0.0287(3) 0.5728(3)
C19_15 C 0.8544(4) 0.0613(3) 0.6129(3)
O13_15 O 0.8261(6) 0.2328(3) 0.6024(5)
O14_7 O 0.7635(4) 0.0102(4) 0.7413(3)
O15_9 O 0.7188(3) 0.1016(3) 0.6893(3)
O16_9 O 0.7109(3) 0.1676(3) 0.6379(3)
O17_8 O 0.8793(6) 0.1727(5) 0.6883(3)
O18_8 O 0.8532(5) 0.1207(4) 0.7445(3)
H25_15 H 0.87498 0.235165 0.595799
H26_13 H 0.811015 0.266882 0.61751
O1_14 O 0.1768(3) 0.1579(3) 0.6390(2)
O2_15 O 0.3074(4) 0.1970(2) 0.7077(3)
O3_15 O 0.4044(3) 0.1024(3) 0.6641(3)
O4_15 O 0.2531(3) 0.0633(3) 0.5978(2)
O7_16 O 0.4057(3) 0.2866(2) 0.8997(2)
O8_16 O 0.4074(3) 0.3606(3) 0.8555(2)
C1_15 C 0.2892(3) 0.1272(3) 0.6541(3)
C2_14 C 0.2468(4) 0.1660(3) 0.6264(3)
H1_15 H 0.2604 0.2040 0.6327
H2_15 H 0.2531 0.1588 0.5934
C3_15 C 0.2870(4) 0.1413(3) 0.7052(3)
H3_14 H 0.2410 0.1366 0.7176
H4_15 H 0.3182 0.1178 0.7227
C4_15 C 0.3613(4) 0.1360(4) 0.6365(3)
H5_15 H 0.3647 0.1254 0.6040
H6_15 H 0.3742 0.1748 0.6395
C5_15 C 0.2668(4) 0.0687(3) 0.6462(3)
H7_15 H 0.3026 0.0430 0.6556
H8_14 H 0.2258 0.0607 0.6642
C6_14 C 0.1303(4) 0.1797(4) 0.6121(3)
C7_14 C 0.1413(4) 0.2100(4) 0.5738(3)
H9_14 H 0.1861 0.2199 0.5662
C8_14 C 0.0889(5) 0.2268(4) 0.5453(4)
H10_14 H 0.0988 0.2443 0.5172
C9_14 C 0.0235(4) 0.2184(4) 0.5576(3)
C10_14 C 0.0109(4) 0.1888(4) 0.5984(3)
C11_14 C 0.0638(5) 0.1692(5) 0.6248(4)
H12_14 H 0.0547 0.1487 0.6515
C13_15 C 0.3278(5) 0.2195(3) 0.7478(3)
C14_14 C 0.3510(5) 0.2731(4) 0.7430(4)
H13_14 H 0.3513 0.2894 0.7136
C15_16 C 0.3730(5) 0.3019(3) 0.7792(3)
H14_16 H 0.3898 0.3378 0.7751
C16_16 C 0.3710(4) 0.2787(3) 0.8228(3)
C17_14 C 0.3481(5) 0.2260(4) 0.8280(3)
H15_14 H 0.3481 0.2096 0.8574
C18_14 C 0.3246(4) 0.1966(3) 0.7900(3)
H16_14 H 0.3067 0.1610 0.7937
C19_16 C 0.3956(4) 0.3113(3) 0.8629(3)
C20_15 C 0.4713(4) 0.1124(4) 0.6632(4)
C21_15 C 0.5038(5) 0.1496(4) 0.6338(4)
H17_15 H 0.4778 0.1709 0.6132
C22_15 C 0.5712(4) 0.1553(4) 0.6346(4)
H18_15 H 0.5923 0.1802 0.6142
C23_15 C 0.6093(4) 0.1259(4) 0.6642(4)
C24_15 C 0.5792(5) 0.0882(5) 0.6922(5)
H19_15 H 0.6063 0.0669 0.7121
C25_15 C 0.5115(5) 0.0806(5) 0.6922(4)
H20_15 H 0.4916 0.0541 0.7116
C26_15 C 0.6855(4) 0.1315(4) 0.6635(4)
C27_15 C 0.2816(4) 0.0240(3) 0.5715(3)
C28_15 C 0.2781(7) 0.0330(6) 0.5259(4)
H21_15 H 0.2583 0.0656 0.5147
H22_14 H 0.3002 0.0005 0.4634
O13_16 O 0.4239(6) 0.4828(3) 0.8524(5)
O14_8 O 0.4865(4) 0.2602(4) 0.9913(3)
O15_10 O 0.5312(3) 0.3516(3) 0.9393(3)
O16_10 O 0.5391(3) 0.4176(3) 0.8879(3)
H25_16 H 0.37502 0.485165 0.845799
H26_14 H 0.438985 0.516882 0.86751
O2_16 O 0.9426(4) 0.4470(2) 0.9577(3)
O3_16 O 0.8456(3) 0.3524(3) 0.9141(3)
O4_16 O 0.9969(3) 0.3133(3) 0.8478(2)
C1_16 C 0.9608(3) 0.3772(3) 0.9041(3)
H1_16 H 0.9896 0.4540 0.8827
H2_16 H 0.9969 0.4088 0.8434
C3_16 C 0.9630(4) 0.3913(3) 0.9552(3)
H4_16 H 0.9318 0.3678 0.9727
C4_16 C 0.8887(4) 0.3860(4) 0.8865(3)
H5_16 H 0.8853 0.3754 0.8540
H6_16 H 0.8758 0.4248 0.8895
C5_16 C 0.9832(4) 0.3187(3) 0.8962(3)
H7_16 H 0.9474 0.2930 0.9056
C13_16 C 0.9222(5) 0.4695(3) 0.9978(3)
C14_15 C 0.8990(5) 0.5231(4) 0.9930(4)
H13_15 H 0.8987 0.5394 0.9636
C20_16 C 0.7787(4) 0.3624(4) 0.9132(4)
C21_16 C 0.7462(5) 0.3996(4) 0.8838(4)
H17_16 H 0.7722 0.4209 0.8632
C22_16 C 0.6788(4) 0.4053(4) 0.8846(4)
H18_16 H 0.6577 0.4302 0.8642
C23_16 C 0.6407(4) 0.3759(4) 0.9142(4)
C24_16 C 0.6708(5) 0.3382(5) 0.9422(5)
H19_16 H 0.6437 0.3169 0.9621
C25_16 C 0.7385(5) 0.3306(5) 0.9422(4)
H20_16 H 0.7584 0.3041 0.9616
C26_16 C 0.5645(4) 0.3815(4) 0.9135(4)
C27_16 C 0.9684(4) 0.2740(3) 0.8215(3)
C28_16 C 0.9719(7) 0.2830(6) 0.7759(4)
H21_16 H 0.9917 0.3156 0.7647
C29_16 C 0.9465(7) 0.2446(7) 0.7454(4)
H22_15 H 0.9498 0.2505 0.7134
C30_14 C 0.9164(6) 0.1978(5) 0.7620(4)
C31_14 C 0.9162(5) 0.1897(4) 0.8069(4)
H23_14 H 0.8961 0.1571 0.8178
C32_14 C 0.9429(4) 0.2249(3) 0.8388(3)
H24_14 H 0.9440 0.2164 0.8704
C33_16 C 0.8800(8) 0.1608(7) 0.7290(5)
C14_16 C 0.3990(5) 0.0231(4) 0.9930(4)
H13_16 H 0.3987 0.0394 0.9636
H22_16 H 0.8002 0.0005 0.9634
O5_14 O 0.9101(4) 0.7349(6) 0.0391(3)
H11_14 H 0.9658 0.6823 0.1078
C12_14 C 0.9690(5) 0.7386(5) 0.0274(3)
O1_15 O 0.0732(3) 0.9079(3) 0.3890(2)
O5_15 O 0.3399(4) 0.9849(6) 0.2891(3)
C2_15 C 0.0032(4) 0.9160(3) 0.3764(3)
H3_15 H 0.0090 0.8866 0.4676
H8_15 H 0.0242 0.8107 0.4142
C6_15 C 0.1197(4) 0.9297(4) 0.3621(3)
C7_15 C 0.1087(4) 0.9600(4) 0.3238(3)
H9_15 H 0.0639 0.9699 0.3162
C8_15 C 0.1611(5) 0.9768(4) 0.2953(4)
H10_15 H 0.1512 0.9943 0.2672
C9_15 C 0.2265(4) 0.9684(4) 0.3076(3)
C10_15 C 0.2391(4) 0.9388(4) 0.3484(3)
H11_15 H 0.2842 0.9323 0.3578
C11_15 C 0.1862(5) 0.9192(5) 0.3748(4)
H12_15 H 0.1953 0.8987 0.4015
C12_15 C 0.2810(5) 0.9886(5) 0.2774(3)
C17_15 C 0.5981(5) 0.0240(4) 0.0780(3)
H15_15 H 0.5981 0.0404 0.1074
C18_15 C 0.5746(4) 0.0534(3) 0.0400(3)
H16_15 H 0.5567 0.0890 0.0437
H26_15 H 0.0610152 0.983118 0.86751
H26_16 H 0.938985 0.016882 0.86751
C17_16 C 0.4019(5) 0.9760(4) 0.0780(3)
H15_16 H 0.4019 0.9596 0.1074
C18_16 C 0.4254(4) 0.9466(3) 0.0400(3)
H16_16 H 0.4433 0.9110 0.0437
C30_15 C 0.1664(6) 0.0522(5) 0.0120(4)
C31_15 C 0.1662(5) 0.0603(4) 0.0569(4)
H23_15 H 0.1461 0.0929 0.0678
C32_15 C 0.1929(4) 0.0251(3) 0.0888(3)
H24_15 H 0.1940 0.0336 0.1204
C30_16 C 0.8336(6) 0.9478(5) 0.0120(4)
C31_16 C 0.8338(5) 0.9397(4) 0.0569(4)
H23_16 H 0.8539 0.9071 0.0678
C32_16 C 0.8071(4) 0.9749(3) 0.0888(3)
H24_16 H 0.8060 0.9664 0.1204
O1_16 O 0.9268(3) 0.0921(3) 0.3890(2)
O5_16 O 0.6601(4) 0.0151(6) 0.2891(3)
C2_16 C 0.9968(4) 0.0840(3) 0.3764(3)
H3_16 H 0.9910 0.1134 0.4676
H8_16 H 0.9758 0.1893 0.4142
C6_16 C 0.8803(4) 0.0703(4) 0.3621(3)
C7_16 C 0.8913(4) 0.0400(4) 0.3238(3)
H9_16 H 0.9361 0.0301 0.3162
C8_16 C 0.8389(5) 0.0232(4) 0.2953(4)
H10_16 H 0.8488 0.0057 0.2672
C9_16 C 0.7735(4) 0.0316(4) 0.3076(3)
C10_16 C 0.7609(4) 0.0612(4) 0.3484(3)
H11_16 H 0.7158 0.0677 0.3578
C11_16 C 0.8138(5) 0.0808(5) 0.3748(4)
H12_16 H 0.8047 0.1013 0.4015
C12_16 C 0.7190(5) 0.0114(5) 0.2774(3)
loop_
_geom_bond_atom_site_label_1
_geom_bond_atom_site_label_2
_geom_bond_site_symmetry_1
_geom_bond_site_symmetry_2
O5 C12 1_555 1_555
Zn6 O6 1_555 1_555
Zn1 O8 1_555 1_555
Zn2 O7 1_555 1_555
O1 C2 1_555 1_555
O2 C3 1_555 1_555
O3 C4 1_555 1_555
O4 C5 1_555 1_555
O7 C19 1_555 1_555
O8 C19 1_555 1_555
O9 C26 1_555 1_555
O10 C26 1_555 1_555
C1 C2 1_555 1_555
C2 H1 1_555 1_555
H2 C2 1_555 1_555
C3 C1 1_555 1_555
H3 C3 1_555 1_555
H4 C3 1_555 1_555
C4 C1 1_555 1_555
H5 C4 1_555 1_555
H6 C4 1_555 1_555
C5 C1 1_555 1_555
H7 C5 1_555 1_555
H8 C5 1_555 1_555
C6 O1 1_555 1_555
C7 C6 1_555 1_555
H9 C7 1_555 1_555
C8 C7 1_555 1_555
H10 C8 1_555 1_555
C9 C8 1_555 1_555
C10 C9 1_555 1_555
C11 C6 1_555 1_555
H12 C11 1_555 1_555
C13 O2 1_555 1_555
C14 C13 1_555 1_555
H13 C14 1_555 1_555
C15 C14 1_555 1_555
H14 C15 1_555 1_555
C16 C15 1_555 1_555
C17 C16 1_555 1_555
H15 C17 1_555 1_555
C18 C13 1_555 1_555
H16 C18 1_555 1_555
C19 C16 1_555 1_555
C20 O3 1_555 1_555
C21 C20 1_555 1_555
H17 C21 1_555 1_555
C22 C21 1_555 1_555
H18 C22 1_555 1_555
C23 C22 1_555 1_555
C24 C23 1_555 1_555
H19 C24 1_555 1_555
C25 C20 1_555 1_555
H20 C25 1_555 1_555
C26 C23 1_555 1_555
C27 O4 1_555 1_555
C28 C27 1_555 1_555
H21 C28 1_555 1_555
C31 C30 1_555 1_555
H23 C31 1_555 1_555
C32 C27 1_555 1_555
H24 C32 1_555 1_555
O13 Zn1 1_555 1_555
Zn4 O10 1_555 1_555
Zn7 O9 1_555 1_555
O14 Zn2 1_555 1_555
O15 Zn2 1_555 1_555
O16 Zn1 1_555 1_555
O17 Zn1 1_555 1_555
O18 Zn2 1_555 1_555
C10 C11 1_555 1_555
C17 C18 1_555 1_555
C24 C25 1_555 1_555
C31 C32 1_555 1_555
O13 H25 1_555 1_555
Zn1_2 O8_2 1_555 1_555
Zn2_2 O7_2 1_555 1_555
O1_2 C2_2 1_555 1_555
O2_2 C3_2 1_555 1_555
O3_2 C4_2 1_555 1_555
O4_2 C5_2 1_555 1_555
O5_2 C12_2 1_555 1_555
O6_2 C12_2 1_555 1_555
O7_2 C19_2 1_555 1_555
O8_2 C19_2 1_555 1_555
O9_2 C26_2 1_555 1_555
O10_2 C26_2 1_555 1_555
O11 C33 1_555 1_555
O12 C33 1_555 1_555
C1_2 C2_2 1_555 1_555
C2_2 H1_2 1_555 1_555
H2_2 C2_2 1_555 1_555
C3_2 C1_2 1_555 1_555
H3_2 C3_2 1_555 1_555
H4_2 C3_2 1_555 1_555
C4_2 C1_2 1_555 1_555
H5_2 C4_2 1_555 1_555
H6_2 C4_2 1_555 1_555
C5_2 C1_2 1_555 1_555
H7_2 C5_2 1_555 1_555
H8_2 C5_2 1_555 1_555
C6_2 O1_2 1_555 1_555
C7_2 C6_2 1_555 1_555
H9_2 C7_2 1_555 1_555
C8_2 C7_2 1_555 1_555
H10_2 C8_2 1_555 1_555
C9_2 C8_2 1_555 1_555
C10_2 C9_2 1_555 1_555
H11_2 C10_2 1_555 1_555
C11_2 C6_2 1_555 1_555
H12_2 C11_2 1_555 1_555
C12_2 C9_2 1_555 1_555
C13_2 O2_2 1_555 1_555
C14_2 C13_2 1_555 1_555
H13_2 C14_2 1_555 1_555
C15_2 C14_2 1_555 1_555
H14_2 C15_2 1_555 1_555
C16_2 C15_2 1_555 1_555
C17_2 C16_2 1_555 1_555
H15_2 C17_2 1_555 1_555
C18_2 C13_2 1_555 1_555
H16_2 C18_2 1_555 1_555
C19_2 C16_2 1_555 1_555
C20_2 O3_2 1_555 1_555
C21_2 C20_2 1_555 1_555
H17_2 C21_2 1_555 1_555
C22_2 C21_2 1_555 1_555
H18_2 C22_2 1_555 1_555
C23_2 C22_2 1_555 1_555
C24_2 C23_2 1_555 1_555
H19_2 C24_2 1_555 1_555
C25_2 C20_2 1_555 1_555
H20_2 C25_2 1_555 1_555
C26_2 C23_2 1_555 1_555
C27_2 O4_2 1_555 1_555
C28_2 C27_2 1_555 1_555
H21_2 C28_2 1_555 1_555
C29 C28_2 1_555 1_555
H22 C29 1_555 1_555
C30_2 C29 1_555 1_555
C31_2 C30_2 1_555 1_555
H23_2 C31_2 1_555 1_555
C32_2 C27_2 1_555 1_555
H24_2 C32_2 1_555 1_555
C33 C30_2 1_555 1_555
O13_2 Zn1_2 1_555 1_555
Zn3 O11 1_555 1_555
Zn5 O12 1_555 1_555
Zn7 O6_2 1_555 1_555
O14_2 Zn2_2 1_555 1_555
O15_2 Zn2_2 1_555 1_555
O16_2 Zn1_2 1_555 1_555
O17_2 Zn1_2 1_555 1_555
O18_2 Zn2_2 1_555 1_555
C10_2 C11_2 1_555 1_555
C17_2 C18_2 1_555 1_555
C24_2 C25_2 1_555 1_555
C31_2 C32_2 1_555 1_555
O13_2 H25_2 1_555 1_555
O13_2 H26 1_555 1_555
O5_3 C12_3 1_555 1_555
O6_3 C12_3 1_555 1_555
Zn7_2 O6_3 1_555 1_555
O17 C33_2 1_555 1_555
O18 C33_2 1_555 1_555
C30_3 C29_2 1_555 1_555
C31_3 C30_3 1_555 1_555
H23_3 C31_3 1_555 1_555
H24_3 C32_3 1_555 1_555
C33_2 C30_3 1_555 1_555
C31_3 C32_3 1_555 1_555
O1_3 C2_3 1_555 1_555
O2_3 C3_3 1_555 1_555
O3_3 C4_3 1_555 1_555
O4_3 C5_3 1_555 1_555
O5_4 C12_4 1_555 1_555
O9_3 C26_3 1_555 1_555
O10_3 C26_3 1_555 1_555
O17_2 C33_3 1_555 1_555
O18_2 C33_3 1_555 1_555
C1_3 C2_3 1_555 1_555
C2_3 H1_3 1_555 1_555
H2_3 C2_3 1_555 1_555
C3_3 C1_3 1_555 1_555
H3_3 C3_3 1_555 1_555
H4_3 C3_3 1_555 1_555
C4_3 C1_3 1_555 1_555
H5_3 C4_3 1_555 1_555
H6_3 C4_3 1_555 1_555
C5_3 C1_3 1_555 1_555
H7_3 C5_3 1_555 1_555
H8_3 C5_3 1_555 1_555
C6_3 O1_3 1_555 1_555
C7_3 C6_3 1_555 1_555
H9_3 C7_3 1_555 1_555
C8_3 C7_3 1_555 1_555
H10_3 C8_3 1_555 1_555
C9_3 C8_3 1_555 1_555
C10_3 C9_3 1_555 1_555
H11_4 C10_3 1_555 1_555
C11_3 C6_3 1_555 1_555
H12_3 C11_3 1_555 1_555
C12_4 C9_3 1_555 1_555
C13_3 O2_3 1_555 1_555
C20_3 O3_3 1_555 1_555
C21_3 C20_3 1_555 1_555
H17_3 C21_3 1_555 1_555
C22_3 C21_3 1_555 1_555
H18_3 C22_3 1_555 1_555
C23_3 C22_3 1_555 1_555
C24_3 C23_3 1_555 1_555
H19_3 C24_3 1_555 1_555
C25_3 C20_3 1_555 1_555
H20_3 C25_3 1_555 1_555
C26_3 C23_3 1_555 1_555
C27_3 O4_3 1_555 1_555
C28_3 C27_3 1_555 1_555
H21_3 C28_3 1_555 1_555
C29_3 C28_3 1_555 1_555
H22_2 C29_3 1_555 1_555
C30_4 C29_3 1_555 1_555
C31_4 C30_4 1_555 1_555
H23_4 C31_4 1_555 1_555
C32_4 C27_3 1_555 1_555
H24_4 C32_4 1_555 1_555
C33_3 C30_4 1_555 1_555
C10_3 C11_3 1_555 1_555
C24_3 C25_3 1_555 1_555
C31_4 C32_4 1_555 1_555
Zn3 O8_3 1_555 1_555
Zn5 O7_3 1_555 1_555
O7_3 C19_3 1_555 1_555
O8_3 C19_3 1_555 1_555
H14_3 C15_3 1_555 1_555
C16_3 C15_3 1_555 1_555
C19_3 C16_3 1_555 1_555
O13_3 Zn3 1_555 1_555
O14_3 Zn5 1_555 1_555
O15_3 Zn5 1_555 1_555
O16_3 Zn3 1_555 1_555
O13_3 H25_3 1_555 1_555
O13_3 H26_2 1_555 1_555
Zn4_3 O8_4 1_555 1_555
Zn6 O7_4 1_555 1_555
O1_4 C2_4 1_555 1_555
O2_4 C3_4 1_555 1_555
O3_4 C4_4 1_555 1_555
O4_4 C5_4 1_555 1_555
O5_5 C12_5 1_555 1_555
O14 C12_5 1_555 1_555
O7_4 C19_4 1_555 1_555
O8_4 C19_4 1_555 1_555
O11_2 C33_4 1_555 1_555
O12_2 C33_4 1_555 1_555
C1_4 C2_4 1_555 1_555
C2_4 H1_4 1_555 1_555
H2_4 C2_4 1_555 1_555
C3_4 C1_4 1_555 1_555
H3_4 C3_4 1_555 1_555
H4_4 C3_4 1_555 1_555
C4_4 C1_4 1_555 1_555
H5_4 C4_4 1_555 1_555
H6_4 C4_4 1_555 1_555
C5_4 C1_4 1_555 1_555
H7_4 C5_4 1_555 1_555
H8_4 C5_4 1_555 1_555
C6_4 O1_4 1_555 1_555
C7_4 C6_4 1_555 1_555
H9_4 C7_4 1_555 1_555
C8_4 C7_4 1_555 1_555
H10_4 C8_4 1_555 1_555
C9_4 C8_4 1_555 1_555
C10_4 C9_4 1_555 1_555
H11_5 C10_4 1_555 1_555
C11_4 C6_4 1_555 1_555
H12_4 C11_4 1_555 1_555
C12_5 C9_4 1_555 1_555
C13_4 O2_4 1_555 1_555
C14_3 C13_4 1_555 1_555
H13_3 C14_3 1_555 1_555
C15_4 C14_3 1_555 1_555
H14_4 C15_4 1_555 1_555
C16_4 C15_4 1_555 1_555
C17_3 C16_4 1_555 1_555
H15_3 C17_3 1_555 1_555
C18_3 C13_4 1_555 1_555
H16_3 C18_3 1_555 1_555
C19_4 C16_4 1_555 1_555
C20_4 O3_4 1_555 1_555
C27_4 O4_4 1_555 1_555
C28_4 C27_4 1_555 1_555
H21_4 C28_4 1_555 1_555
C29_4 C28_4 1_555 1_555
H22_3 C29_4 1_555 1_555
C30_5 C29_4 1_555 1_555
C31_5 C30_5 1_555 1_555
H23_5 C31_5 1_555 1_555
C32_5 C27_4 1_555 1_555
H24_5 C32_5 1_555 1_555
C33_4 C30_5 1_555 1_555
O13_4 Zn4_3 1_555 1_555
Zn4_2 O11_2 1_555 1_555
Zn7_2 O12_2 1_555 1_555
O17_3 Zn4_3 1_555 1_555
O18_3 Zn6 1_555 1_555
C10_4 C11_4 1_555 1_555
C17_3 C18_3 1_555 1_555
C31_5 C32_5 1_555 1_555
O13_4 H25_4 1_555 1_555
O15_2 C26_4 1_555 1_555
O16_2 C26_4 1_555 1_555
C22_4 C21_4 1_555 1_555
H18_4 C22_4 1_555 1_555
C23_4 C22_4 1_555 1_555
C24_4 C23_4 1_555 1_555
H19_4 C24_4 1_555 1_555
C26_4 C23_4 1_555 1_555
C24_4 C25_4 1_555 1_555
Zn4 O8_5 1_555 1_555
Zn7 O7_5 1_555 1_555
O7_5 C19_5 1_555 1_555
O8_5 C19_5 1_555 1_555
H14_5 C15_5 1_555 1_555
C16_5 C15_5 1_555 1_555
C17_4 C16_5 1_555 1_555
H15_4 C17_4 1_555 1_555
H16_4 C18_4 1_555 1_555
C19_5 C16_5 1_555 1_555
O13_5 Zn4 1_555 1_555
O17_4 Zn4 1_555 1_555
O18_4 Zn7 1_555 1_555
C17_4 C18_4 1_555 1_555
O13_5 H25_5 1_555 1_555
O13_5 H26_3 1_555 1_555
O1_5 C2_5 1_555 1_555
O5_6 C12_6 1_555 1_555
O14_2 C12_6 1_555 1_555
C6_5 O1_5 1_555 1_555
C7_5 C6_5 1_555 1_555
H9_5 C7_5 1_555 1_555
C8_5 C7_5 1_555 1_555
H10_5 C8_5 1_555 1_555
C9_5 C8_5 1_555 1_555
C10_5 C9_5 1_555 1_555
H11_6 C10_5 1_555 1_555
C11_5 C6_5 1_555 1_555
H12_5 C11_5 1_555 1_555
C12_6 C9_5 1_555 1_555
C10_5 C11_5 1_555 1_555
O17_3 C33_5 1_555 1_555
O18_3 C33_5 1_555 1_555
Zn4_2 O8_6 1_555 1_555
Zn7_2 O7_6 1_555 1_555
O1_6 C2_6 1_555 1_555
O2_5 C3_5 1_555 1_555
O3_5 C4_5 1_555 1_555
O4_5 C5_5 1_555 1_555
O5_7 C12_7 1_555 1_555
O7_6 C19_6 1_555 1_555
O8_6 C19_6 1_555 1_555
C1_5 C2_6 1_555 1_555
C2_6 H1_5 1_555 1_555
H2_5 C2_6 1_555 1_555
C3_5 C1_5 1_555 1_555
H3_6 C3_5 1_555 1_555
H4_5 C3_5 1_555 1_555
C4_5 C1_5 1_555 1_555
H5_5 C4_5 1_555 1_555
H6_5 C4_5 1_555 1_555
C5_5 C1_5 1_555 1_555
H7_5 C5_5 1_555 1_555
H8_6 C5_5 1_555 1_555
C6_6 O1_6 1_555 1_555
C7_6 C6_6 1_555 1_555
H9_6 C7_6 1_555 1_555
C8_6 C7_6 1_555 1_555
H10_6 C8_6 1_555 1_555
C9_6 C8_6 1_555 1_555
C10_6 C9_6 1_555 1_555
H11_7 C10_6 1_555 1_555
C11_6 C6_6 1_555 1_555
H12_6 C11_6 1_555 1_555
C12_7 C9_6 1_555 1_555
C13_5 O2_5 1_555 1_555
C14_4 C13_5 1_555 1_555
H13_4 C14_4 1_555 1_555
C15_6 C14_4 1_555 1_555
H14_6 C15_6 1_555 1_555
C16_6 C15_6 1_555 1_555
C17_5 C16_6 1_555 1_555
H15_5 C17_5 1_555 1_555
C18_5 C13_5 1_555 1_555
H16_5 C18_5 1_555 1_555
C19_6 C16_6 1_555 1_555
C20_5 O3_5 1_555 1_555
C27_5 O4_5 1_555 1_555
C28_5 C27_5 1_555 1_555
H21_5 C28_5 1_555 1_555
O13_6 Zn4_2 1_555 1_555
C10_6 C11_6 1_555 1_555
C17_5 C18_5 1_555 1_555
O13_6 H25_6 1_555 1_555
O13_6 H26_4 1_555 1_555
O15_3 C26_5 1_555 1_555
O16_3 C26_5 1_555 1_555
C22_5 C21_5 1_555 1_555
H18_5 C22_5 1_555 1_555
C23_5 C22_5 1_555 1_555
C24_5 C23_5 1_555 1_555
H19_5 C24_5 1_555 1_555
C26_5 C23_5 1_555 1_555
C24_5 C25_5 1_555 1_555
O2_6 C3_6 1_555 1_555
O3_6 C4_6 1_555 1_555
O4_6 C5_6 1_555 1_555
O15 C26_6 1_555 1_555
O16 C26_6 1_555 1_555
O17_4 C33_6 1_555 1_555
O18_4 C33_6 1_555 1_555
C3_6 C1_6 1_555 1_555
H4_6 C3_6 1_555 1_555
C4_6 C1_6 1_555 1_555
H5_6 C4_6 1_555 1_555
H6_6 C4_6 1_555 1_555
C5_6 C1_6 1_555 1_555
H7_6 C5_6 1_555 1_555
C13_6 O2_6 1_555 1_555
H15_6 C17_6 1_555 1_555
C18_6 C13_6 1_555 1_555
H16_6 C18_6 1_555 1_555
C20_6 O3_6 1_555 1_555
C21_6 C20_6 1_555 1_555
H17_6 C21_6 1_555 1_555
C22_6 C21_6 1_555 1_555
H18_6 C22_6 1_555 1_555
C23_6 C22_6 1_555 1_555
C24_6 C23_6 1_555 1_555
H19_6 C24_6 1_555 1_555
C25_6 C20_6 1_555 1_555
H20_6 C25_6 1_555 1_555
C26_6 C23_6 1_555 1_555
C27_6 O4_6 1_555 1_555
C28_6 C27_6 1_555 1_555
H21_6 C28_6 1_555 1_555
C29_6 C28_6 1_555 1_555
H22_4 C29_6 1_555 1_555
C30_6 C29_6 1_555 1_555
C31_6 C30_6 1_555 1_555
H23_6 C31_6 1_555 1_555
C32_6 C27_6 1_555 1_555
H24_6 C32_6 1_555 1_555
C33_6 C30_6 1_555 1_555
C17_6 C18_6 1_555 1_555
C24_6 C25_6 1_555 1_555
C31_6 C32_6 1_555 1_555
O11_3 C33_7 1_555 1_555
O12_3 C33_7 1_555 1_555
H22_5 C29_7 1_555 1_555
Zn3_2 O11_3 1_555 1_555
Zn5_2 O12_3 1_555 1_555
Zn3_2 O8_7 1_555 1_555
Zn5_2 O7_7 1_555 1_555
O1_7 C2_7 1_555 1_555
O2_7 C3_7 1_555 1_555
O3_7 C4_7 1_555 1_555
O4_7 C5_7 1_555 1_555
O7_7 C19_7 1_555 1_555
O8_7 C19_7 1_555 1_555
O9_4 C26_7 1_555 1_555
O10_4 C26_7 1_555 1_555
C1_7 C2_7 1_555 1_555
C2_7 H1_7 1_555 1_555
H2_7 C2_7 1_555 1_555
C3_7 C1_7 1_555 1_555
H3_7 C3_7 1_555 1_555
H4_7 C3_7 1_555 1_555
C4_7 C1_7 1_555 1_555
H5_7 C4_7 1_555 1_555
H6_7 C4_7 1_555 1_555
C5_7 C1_7 1_555 1_555
H7_7 C5_7 1_555 1_555
H8_7 C5_7 1_555 1_555
C6_7 O1_7 1_555 1_555
C7_7 C6_7 1_555 1_555
H9_7 C7_7 1_555 1_555
C8_7 C7_7 1_555 1_555
H10_7 C8_7 1_555 1_555
C9_7 C8_7 1_555 1_555
C10_7 C9_7 1_555 1_555
C11_7 C6_7 1_555 1_555
H12_7 C11_7 1_555 1_555
C13_7 O2_7 1_555 1_555
C14_5 C13_7 1_555 1_555
H13_5 C14_5 1_555 1_555
C15_7 C14_5 1_555 1_555
H14_7 C15_7 1_555 1_555
C16_7 C15_7 1_555 1_555
C17_7 C16_7 1_555 1_555
H15_7 C17_7 1_555 1_555
C18_7 C13_7 1_555 1_555
H16_7 C18_7 1_555 1_555
C19_7 C16_7 1_555 1_555
C20_7 O3_7 1_555 1_555
C21_7 C20_7 1_555 1_555
H17_7 C21_7 1_555 1_555
C22_7 C21_7 1_555 1_555
H18_7 C22_7 1_555 1_555
C23_7 C22_7 1_555 1_555
C24_7 C23_7 1_555 1_555
H19_7 C24_7 1_555 1_555
C25_7 C20_7 1_555 1_555
H20_7 C25_7 1_555 1_555
C26_7 C23_7 1_555 1_555
C27_7 O4_7 1_555 1_555
C28_7 C27_7 1_555 1_555
H21_7 C28_7 1_555 1_555
O13_7 Zn3_2 1_555 1_555
Zn4_4 O10_4 1_555 1_555
Zn7_3 O9_4 1_555 1_555
O14_4 Zn5_2 1_555 1_555
O15_4 Zn5_2 1_555 1_555
O16_4 Zn3_2 1_555 1_555
C10_7 C11_7 1_555 1_555
C17_7 C18_7 1_555 1_555
C24_7 C25_7 1_555 1_555
O13_7 H25_7 1_555 1_555
O13_7 H26_5 1_555 1_555
H13_6 C14_6 1_555 1_555
Zn7_3 O6_4 1_555 1_555
O2_8 C3_8 1_555 1_555
O3_8 C4_8 1_555 1_555
O4_8 C5_8 1_555 1_555
O15_4 C26_8 1_555 1_555
O16_4 C26_8 1_555 1_555
O11_4 C33_8 1_555 1_555
O12_4 C33_8 1_555 1_555
C3_8 C1_8 1_555 1_555
H4_8 C3_8 1_555 1_555
C4_8 C1_8 1_555 1_555
H5_8 C4_8 1_555 1_555
H6_8 C4_8 1_555 1_555
C5_8 C1_8 1_555 1_555
H7_8 C5_8 1_555 1_555
C13_8 O2_8 1_555 1_555
C14_7 C13_8 1_555 1_555
H13_7 C14_7 1_555 1_555
C20_8 O3_8 1_555 1_555
C21_8 C20_8 1_555 1_555
H17_8 C21_8 1_555 1_555
C22_8 C21_8 1_555 1_555
H18_8 C22_8 1_555 1_555
C23_8 C22_8 1_555 1_555
C24_8 C23_8 1_555 1_555
H19_8 C24_8 1_555 1_555
C25_8 C20_8 1_555 1_555
H20_8 C25_8 1_555 1_555
C26_8 C23_8 1_555 1_555
C27_8 O4_8 1_555 1_555
C28_8 C27_8 1_555 1_555
H21_8 C28_8 1_555 1_555
C29_8 C28_8 1_555 1_555
H22_7 C29_8 1_555 1_555
C30_7 C29_8 1_555 1_555
C31_7 C30_7 1_555 1_555
H23_7 C31_7 1_555 1_555
C32_7 C27_8 1_555 1_555
H24_7 C32_7 1_555 1_555
C33_8 C30_7 1_555 1_555
Zn4_4 O11_4 1_555 1_555
Zn7_3 O12_4 1_555 1_555
C24_8 C25_8 1_555 1_555
C31_7 C32_7 1_555 1_555
Zn4_4 O8_8 1_555 1_555
Zn7_3 O7_8 1_555 1_555
O7_8 C19_8 1_555 1_555
O8_8 C19_8 1_555 1_555
H13_8 C14_8 1_555 1_555
C15_8 C14_8 1_555 1_555
H14_8 C15_8 1_555 1_555
C16_8 C15_8 1_555 1_555
C19_8 C16_8 1_555 1_555
O13_8 Zn4_4 1_555 1_555
O13_8 H25_8 1_555 1_555
O13_8 H26_6 1_555 1_555
Zn1_3 O8_9 1_555 1_555
Zn2_3 O7_9 1_555 1_555
O1_8 C2_8 1_555 1_555
O2_9 C3_9 1_555 1_555
O3_9 C4_9 1_555 1_555
O4_9 C5_9 1_555 1_555
O7_9 C19_9 1_555 1_555
O8_9 C19_9 1_555 1_555
O9_5 C26_9 1_555 1_555
O10_5 C26_9 1_555 1_555
C1_9 C2_8 1_555 1_555
C2_8 H1_9 1_555 1_555
H2_9 C2_8 1_555 1_555
C3_9 C1_9 1_555 1_555
H3_8 C3_9 1_555 1_555
H4_9 C3_9 1_555 1_555
C4_9 C1_9 1_555 1_555
H5_9 C4_9 1_555 1_555
H6_9 C4_9 1_555 1_555
C5_9 C1_9 1_555 1_555
H7_9 C5_9 1_555 1_555
H8_8 C5_9 1_555 1_555
C6_8 O1_8 1_555 1_555
C7_8 C6_8 1_555 1_555
H9_8 C7_8 1_555 1_555
C8_8 C7_8 1_555 1_555
H10_8 C8_8 1_555 1_555
C9_8 C8_8 1_555 1_555
C10_8 C9_8 1_555 1_555
C11_8 C6_8 1_555 1_555
H12_8 C11_8 1_555 1_555
C13_9 O2_9 1_555 1_555
C14_9 C13_9 1_555 1_555
H13_9 C14_9 1_555 1_555
C15_9 C14_9 1_555 1_555
H14_9 C15_9 1_555 1_555
C16_9 C15_9 1_555 1_555
C17_8 C16_9 1_555 1_555
H15_8 C17_8 1_555 1_555
C18_8 C13_9 1_555 1_555
H16_8 C18_8 1_555 1_555
C19_9 C16_9 1_555 1_555
C20_9 O3_9 1_555 1_555
C21_9 C20_9 1_555 1_555
H17_9 C21_9 1_555 1_555
C22_9 C21_9 1_555 1_555
H18_9 C22_9 1_555 1_555
C23_9 C22_9 1_555 1_555
C24_9 C23_9 1_555 1_555
H19_9 C24_9 1_555 1_555
C25_9 C20_9 1_555 1_555
H20_9 C25_9 1_555 1_555
C26_9 C23_9 1_555 1_555
C27_9 O4_9 1_555 1_555
C28_9 C27_9 1_555 1_555
H21_9 C28_9 1_555 1_555
C31_8 C30_8 1_555 1_555
H23_8 C31_8 1_555 1_555
C32_8 C27_9 1_555 1_555
H24_8 C32_8 1_555 1_555
O13_9 Zn1_3 1_555 1_555
Zn4_5 O10_5 1_555 1_555
Zn7_4 O9_5 1_555 1_555
O14_5 Zn2_3 1_555 1_555
O15_5 Zn2_3 1_555 1_555
O16_5 Zn1_3 1_555 1_555
O17_5 Zn1_3 1_555 1_555
O18_5 Zn2_3 1_555 1_555
C10_8 C11_8 1_555 1_555
C17_8 C18_8 1_555 1_555
C24_9 C25_9 1_555 1_555
C31_8 C32_8 1_555 1_555
O13_9 H25_9 1_555 1_555
Zn6_2 O6_5 1_555 1_555
Zn6_3 O6_6 1_555 1_555
O2_10 C3_10 1_555 1_555
O3_10 C4_10 1_555 1_555
O4_10 C5_10 1_555 1_555
O15_5 C26_10 1_555 1_555
O16_5 C26_10 1_555 1_555
O11_5 C33_9 1_555 1_555
O12_5 C33_9 1_555 1_555
C3_10 C1_10 1_555 1_555
H4_10 C3_10 1_555 1_555
C4_10 C1_10 1_555 1_555
H5_10 C4_10 1_555 1_555
H6_10 C4_10 1_555 1_555
C5_10 C1_10 1_555 1_555
H7_10 C5_10 1_555 1_555
C13_10 O2_10 1_555 1_555
H15_9 C17_9 1_555 1_555
C18_9 C13_10 1_555 1_555
H16_9 C18_9 1_555 1_555
C20_10 O3_10 1_555 1_555
C21_10 C20_10 1_555 1_555
H17_10 C21_10 1_555 1_555
C22_10 C21_10 1_555 1_555
H18_10 C22_10 1_555 1_555
C23_10 C22_10 1_555 1_555
C24_10 C23_10 1_555 1_555
H19_10 C24_10 1_555 1_555
C25_10 C20_10 1_555 1_555
H20_10 C25_10 1_555 1_555
C26_10 C23_10 1_555 1_555
C27_10 O4_10 1_555 1_555
C28_10 C27_10 1_555 1_555
H21_10 C28_10 1_555 1_555
C29_9 C28_10 1_555 1_555
H22_9 C29_9 1_555 1_555
C30_9 C29_9 1_555 1_555
C31_9 C30_9 1_555 1_555
H23_9 C31_9 1_555 1_555
C32_9 C27_10 1_555 1_555
H24_9 C32_9 1_555 1_555
C33_9 C30_9 1_555 1_555
Zn4_5 O11_5 1_555 1_555
Zn7_4 O12_5 1_555 1_555
C17_9 C18_9 1_555 1_555
C24_10 C25_10 1_555 1_555
C31_9 C32_9 1_555 1_555
O17_5 C33_10 1_555 1_555
O18_5 C33_10 1_555 1_555
C30_10 C29_10 1_555 1_555
C31_10 C30_10 1_555 1_555
H23_10 C31_10 1_555 1_555
H24_10 C32_10 1_555 1_555
C33_10 C30_10 1_555 1_555
C31_10 C32_10 1_555 1_555
O5_8 C12_8 1_555 1_555
O6_7 C12_8 1_555 1_555
Zn6_4 O6_7 1_555 1_555
O1_9 C2_9 1_555 1_555
O5_9 C12_9 1_555 1_555
O6_8 C12_9 1_555 1_555
C6_9 O1_9 1_555 1_555
C7_9 C6_9 1_555 1_555
H9_9 C7_9 1_555 1_555
C8_9 C7_9 1_555 1_555
H10_9 C8_9 1_555 1_555
C9_9 C8_9 1_555 1_555
C10_9 C9_9 1_555 1_555
H11_9 C10_9 1_555 1_555
C11_9 C6_9 1_555 1_555
H12_9 C11_9 1_555 1_555
C12_9 C9_9 1_555 1_555
Zn6_5 O6_8 1_555 1_555
C10_9 C11_9 1_555 1_555
Zn4_5 O8_10 1_555 1_555
Zn7_4 O7_10 1_555 1_555
O7_10 C19_10 1_555 1_555
O8_10 C19_10 1_555 1_555
H14_10 C15_10 1_555 1_555
C16_10 C15_10 1_555 1_555
C17_10 C16_10 1_555 1_555
H15_10 C17_10 1_555 1_555
H16_10 C18_10 1_555 1_555
C19_10 C16_10 1_555 1_555
O13_10 Zn4_5 1_555 1_555
O14_6 Zn7_4 1_555 1_555
C17_10 C18_10 1_555 1_555
O13_10 H25_10 1_555 1_555
O13_10 H26_9 1_555 1_555
O9_6 C26_11 1_555 1_555
O10_6 C26_11 1_555 1_555
C22_11 C21_11 1_555 1_555
H18_11 C22_11 1_555 1_555
C23_11 C22_11 1_555 1_555
C24_11 C23_11 1_555 1_555
H19_11 C24_11 1_555 1_555
C26_11 C23_11 1_555 1_555
Zn4_6 O10_6 1_555 1_555
Zn6_5 O9_6 1_555 1_555
C24_11 C25_11 1_555 1_555
Zn1_4 O8_11 1_555 1_555
Zn6_2 O7_11 1_555 1_555
O1_10 C2_10 1_555 1_555
O2_11 C3_11 1_555 1_555
O3_11 C4_11 1_555 1_555
O4_11 C5_11 1_555 1_555
O5_10 C12_10 1_555 1_555
O14_5 C12_10 1_555 1_555
O7_11 C19_11 1_555 1_555
O8_11 C19_11 1_555 1_555
O11_6 C33_11 1_555 1_555
O12_6 C33_11 1_555 1_555
C1_11 C2_10 1_555 1_555
C2_10 H1_11 1_555 1_555
H2_11 C2_10 1_555 1_555
C3_11 C1_11 1_555 1_555
H3_10 C3_11 1_555 1_555
H4_11 C3_11 1_555 1_555
C4_11 C1_11 1_555 1_555
H5_11 C4_11 1_555 1_555
H6_11 C4_11 1_555 1_555
C5_11 C1_11 1_555 1_555
H7_11 C5_11 1_555 1_555
H8_10 C5_11 1_555 1_555
C6_10 O1_10 1_555 1_555
C7_10 C6_10 1_555 1_555
H9_10 C7_10 1_555 1_555
C8_10 C7_10 1_555 1_555
H10_10 C8_10 1_555 1_555
C9_10 C8_10 1_555 1_555
C10_10 C9_10 1_555 1_555
H11_10 C10_10 1_555 1_555
C11_10 C6_10 1_555 1_555
H12_10 C11_10 1_555 1_555
C12_10 C9_10 1_555 1_555
C13_11 O2_11 1_555 1_555
C14_10 C13_11 1_555 1_555
H13_10 C14_10 1_555 1_555
C15_11 C14_10 1_555 1_555
H14_11 C15_11 1_555 1_555
C16_11 C15_11 1_555 1_555
C17_11 C16_11 1_555 1_555
H15_11 C17_11 1_555 1_555
C18_11 C13_11 1_555 1_555
H16_11 C18_11 1_555 1_555
C19_11 C16_11 1_555 1_555
C20_11 O3_11 1_555 1_555
C27_11 O4_11 1_555 1_555
C28_11 C27_11 1_555 1_555
H21_11 C28_11 1_555 1_555
C29_11 C28_11 1_555 1_555
H22_10 C29_11 1_555 1_555
C30_11 C29_11 1_555 1_555
C31_11 C30_11 1_555 1_555
H23_11 C31_11 1_555 1_555
C32_11 C27_11 1_555 1_555
H24_11 C32_11 1_555 1_555
C33_11 C30_11 1_555 1_555
O13_11 Zn1_4 1_555 1_555
Zn3_3 O11_6 1_555 1_555
Zn6_4 O12_6 1_555 1_555
O17_6 Zn1_4 1_555 1_555
O18_6 Zn6_2 1_555 1_555
C10_10 C11_10 1_555 1_555
C17_11 C18_11 1_555 1_555
C31_11 C32_11 1_555 1_555
O13_11 H25_11 1_555 1_555
Zn1_5 O8_12 1_555 1_555
Zn6_3 O7_12 1_555 1_555
O7_12 C19_12 1_555 1_555
O8_12 C19_12 1_555 1_555
H14_12 C15_12 1_555 1_555
C16_12 C15_12 1_555 1_555
C19_12 C16_12 1_555 1_555
O13_12 Zn1_5 1_555 1_555
O15_7 Zn6_3 1_555 1_555
O16_7 Zn1_5 1_555 1_555
O17_7 Zn1_5 1_555 1_555
O18_7 Zn6_3 1_555 1_555
O13_12 H25_12 1_555 1_555
O13_12 H26_10 1_555 1_555
O1_11 C2_11 1_555 1_555
O2_12 C3_12 1_555 1_555
O3_12 C4_12 1_555 1_555
O4_12 C5_12 1_555 1_555
O5_11 C12_11 1_555 1_555
O15_6 C26_12 1_555 1_555
O16_6 C26_12 1_555 1_555
O11_7 C33_12 1_555 1_555
O12_7 C33_12 1_555 1_555
C1_12 C2_11 1_555 1_555
C2_11 H1_12 1_555 1_555
H2_12 C2_11 1_555 1_555
C3_12 C1_12 1_555 1_555
H3_11 C3_12 1_555 1_555
H4_12 C3_12 1_555 1_555
C4_12 C1_12 1_555 1_555
H5_12 C4_12 1_555 1_555
H6_12 C4_12 1_555 1_555
C5_12 C1_12 1_555 1_555
H7_12 C5_12 1_555 1_555
H8_11 C5_12 1_555 1_555
C6_11 O1_11 1_555 1_555
C7_11 C6_11 1_555 1_555
H9_11 C7_11 1_555 1_555
C8_11 C7_11 1_555 1_555
H10_11 C8_11 1_555 1_555
C9_11 C8_11 1_555 1_555
C10_11 C9_11 1_555 1_555
H11_11 C10_11 1_555 1_555
C11_11 C6_11 1_555 1_555
H12_11 C11_11 1_555 1_555
C12_11 C9_11 1_555 1_555
C13_12 O2_12 1_555 1_555
C20_12 O3_12 1_555 1_555
C21_12 C20_12 1_555 1_555
H17_12 C21_12 1_555 1_555
C22_12 C21_12 1_555 1_555
H18_12 C22_12 1_555 1_555
C23_12 C22_12 1_555 1_555
C24_12 C23_12 1_555 1_555
H19_12 C24_12 1_555 1_555
C25_12 C20_12 1_555 1_555
H20_12 C25_12 1_555 1_555
C26_12 C23_12 1_555 1_555
C27_12 O4_12 1_555 1_555
C28_12 C27_12 1_555 1_555
H21_12 C28_12 1_555 1_555
C29_12 C28_12 1_555 1_555
H22_11 C29_12 1_555 1_555
C30_12 C29_12 1_555 1_555
C31_12 C30_12 1_555 1_555
H23_12 C31_12 1_555 1_555
C32_12 C27_12 1_555 1_555
H24_12 C32_12 1_555 1_555
C33_12 C30_12 1_555 1_555
Zn4_6 O11_7 1_555 1_555
Zn6_5 O12_7 1_555 1_555
C10_11 C11_11 1_555 1_555
C24_12 C25_12 1_555 1_555
C31_12 C32_12 1_555 1_555
O15_7 C26_13 1_555 1_555
O16_7 C26_13 1_555 1_555
C22_13 C21_13 1_555 1_555
H18_13 C22_13 1_555 1_555
C23_13 C22_13 1_555 1_555
C24_13 C23_13 1_555 1_555
H19_13 C24_13 1_555 1_555
C26_13 C23_13 1_555 1_555
C24_13 C25_13 1_555 1_555
Zn3_3 O8_13 1_555 1_555
Zn6_4 O7_13 1_555 1_555
O1_12 C2_12 1_555 1_555
O2_13 C3_13 1_555 1_555
O3_13 C4_13 1_555 1_555
O4_13 C5_13 1_555 1_555
O5_12 C12_12 1_555 1_555
O7_13 C19_13 1_555 1_555
O8_13 C19_13 1_555 1_555
C1_13 C2_12 1_555 1_555
C2_12 H1_13 1_555 1_555
H2_13 C2_12 1_555 1_555
C3_13 C1_13 1_555 1_555
H3_12 C3_13 1_555 1_555
H4_13 C3_13 1_555 1_555
C4_13 C1_13 1_555 1_555
H5_13 C4_13 1_555 1_555
H6_13 C4_13 1_555 1_555
C5_13 C1_13 1_555 1_555
H7_13 C5_13 1_555 1_555
H8_12 C5_13 1_555 1_555
C6_12 O1_12 1_555 1_555
C7_12 C6_12 1_555 1_555
H9_12 C7_12 1_555 1_555
C8_12 C7_12 1_555 1_555
H10_12 C8_12 1_555 1_555
C9_12 C8_12 1_555 1_555
C10_12 C9_12 1_555 1_555
H11_12 C10_12 1_555 1_555
C11_12 C6_12 1_555 1_555
H12_12 C11_12 1_555 1_555
C12_12 C9_12 1_555 1_555
C13_13 O2_13 1_555 1_555
C14_11 C13_13 1_555 1_555
H13_11 C14_11 1_555 1_555
C15_13 C14_11 1_555 1_555
H14_13 C15_13 1_555 1_555
C16_13 C15_13 1_555 1_555
C17_12 C16_13 1_555 1_555
H15_12 C17_12 1_555 1_555
C18_12 C13_13 1_555 1_555
H16_12 C18_12 1_555 1_555
C19_13 C16_13 1_555 1_555
C20_13 O3_13 1_555 1_555
C27_13 O4_13 1_555 1_555
C28_13 C27_13 1_555 1_555
H21_13 C28_13 1_555 1_555
O13_13 Zn3_3 1_555 1_555
C10_12 C11_12 1_555 1_555
C17_12 C18_12 1_555 1_555
O13_13 H25_13 1_555 1_555
O13_13 H26_11 1_555 1_555
O17_6 C33_13 1_555 1_555
O18_6 C33_13 1_555 1_555
Zn4_6 O8_14 1_555 1_555
Zn6_5 O7_14 1_555 1_555
O1_13 C2_13 1_555 1_555
O2_14 C3_14 1_555 1_555
O3_14 C4_14 1_555 1_555
O4_14 C5_14 1_555 1_555
O5_13 C12_13 1_555 1_555
O14_6 C12_13 1_555 1_555
O7_14 C19_14 1_555 1_555
O8_14 C19_14 1_555 1_555
O15_8 C26_14 1_555 1_555
O16_8 C26_14 1_555 1_555
O17_7 C33_14 1_555 1_555
O18_7 C33_14 1_555 1_555
C1_14 C2_13 1_555 1_555
C2_13 H1_14 1_555 1_555
H2_14 C2_13 1_555 1_555
C3_14 C1_14 1_555 1_555
H3_13 C3_14 1_555 1_555
H4_14 C3_14 1_555 1_555
C4_14 C1_14 1_555 1_555
H5_14 C4_14 1_555 1_555
H6_14 C4_14 1_555 1_555
C5_14 C1_14 1_555 1_555
H7_14 C5_14 1_555 1_555
H8_13 C5_14 1_555 1_555
C6_13 O1_13 1_555 1_555
C7_13 C6_13 1_555 1_555
H9_13 C7_13 1_555 1_555
C8_13 C7_13 1_555 1_555
H10_13 C8_13 1_555 1_555
C9_13 C8_13 1_555 1_555
C10_13 C9_13 1_555 1_555
H11_13 C10_13 1_555 1_555
C11_13 C6_13 1_555 1_555
H12_13 C11_13 1_555 1_555
C12_13 C9_13 1_555 1_555
C13_14 O2_14 1_555 1_555
C14_12 C13_14 1_555 1_555
H13_12 C14_12 1_555 1_555
C15_14 C14_12 1_555 1_555
H14_14 C15_14 1_555 1_555
C16_14 C15_14 1_555 1_555
C17_13 C16_14 1_555 1_555
H15_13 C17_13 1_555 1_555
C18_13 C13_14 1_555 1_555
H16_13 C18_13 1_555 1_555
C19_14 C16_14 1_555 1_555
C20_14 O3_14 1_555 1_555
C21_14 C20_14 1_555 1_555
H17_14 C21_14 1_555 1_555
C22_14 C21_14 1_555 1_555
H18_14 C22_14 1_555 1_555
C23_14 C22_14 1_555 1_555
C24_14 C23_14 1_555 1_555
H19_14 C24_14 1_555 1_555
C25_14 C20_14 1_555 1_555
H20_14 C25_14 1_555 1_555
C26_14 C23_14 1_555 1_555
C27_14 O4_14 1_555 1_555
C28_14 C27_14 1_555 1_555
H21_14 C28_14 1_555 1_555
C29_14 C28_14 1_555 1_555
H22_12 C29_14 1_555 1_555
C30_13 C29_14 1_555 1_555
C31_13 C30_13 1_555 1_555
H23_13 C31_13 1_555 1_555
C32_13 C27_14 1_555 1_555
H24_13 C32_13 1_555 1_555
C33_14 C30_13 1_555 1_555
O13_14 Zn4_6 1_555 1_555
C10_13 C11_13 1_555 1_555
C17_13 C18_13 1_555 1_555
C24_14 C25_14 1_555 1_555
C31_13 C32_13 1_555 1_555
O13_14 H25_14 1_555 1_555
O13_14 H26_12 1_555 1_555
O11_8 C33_15 1_555 1_555
O12_8 C33_15 1_555 1_555
H22_13 C29_15 1_555 1_555
Zn3_4 O11_8 1_555 1_555
Zn5_3 O12_8 1_555 1_555
Zn1_6 O8_15 1_555 1_555
Zn2_4 O7_15 1_555 1_555
O7_15 C19_15 1_555 1_555
O8_15 C19_15 1_555 1_555
H13_13 C14_13 1_555 1_555
C15_15 C14_13 1_555 1_555
H14_15 C15_15 1_555 1_555
C16_15 C15_15 1_555 1_555
C19_15 C16_15 1_555 1_555
O13_15 Zn1_6 1_555 1_555
O14_7 Zn2_4 1_555 1_555
O15_9 Zn2_4 1_555 1_555
O16_9 Zn1_6 1_555 1_555
O17_8 Zn1_6 1_555 1_555
O18_8 Zn2_4 1_555 1_555
O13_15 H25_15 1_555 1_555
O13_15 H26_13 1_555 1_555
Zn3_4 O8_16 1_555 1_555
Zn5_3 O7_16 1_555 1_555
O1_14 C2_14 1_555 1_555
O2_15 C3_15 1_555 1_555
O3_15 C4_15 1_555 1_555
O4_15 C5_15 1_555 1_555
O7_16 C19_16 1_555 1_555
O8_16 C19_16 1_555 1_555
O15_9 C26_15 1_555 1_555
O16_9 C26_15 1_555 1_555
C1_15 C2_14 1_555 1_555
C2_14 H1_15 1_555 1_555
H2_15 C2_14 1_555 1_555
C3_15 C1_15 1_555 1_555
H3_14 C3_15 1_555 1_555
H4_15 C3_15 1_555 1_555
C4_15 C1_15 1_555 1_555
H5_15 C4_15 1_555 1_555
H6_15 C4_15 1_555 1_555
C5_15 C1_15 1_555 1_555
H7_15 C5_15 1_555 1_555
H8_14 C5_15 1_555 1_555
C6_14 O1_14 1_555 1_555
C7_14 C6_14 1_555 1_555
H9_14 C7_14 1_555 1_555
C8_14 C7_14 1_555 1_555
H10_14 C8_14 1_555 1_555
C9_14 C8_14 1_555 1_555
C10_14 C9_14 1_555 1_555
C11_14 C6_14 1_555 1_555
H12_14 C11_14 1_555 1_555
C13_15 O2_15 1_555 1_555
C14_14 C13_15 1_555 1_555
H13_14 C14_14 1_555 1_555
C15_16 C14_14 1_555 1_555
H14_16 C15_16 1_555 1_555
C16_16 C15_16 1_555 1_555
C17_14 C16_16 1_555 1_555
H15_14 C17_14 1_555 1_555
C18_14 C13_15 1_555 1_555
H16_14 C18_14 1_555 1_555
C19_16 C16_16 1_555 1_555
C20_15 O3_15 1_555 1_555
C21_15 C20_15 1_555 1_555
H17_15 C21_15 1_555 1_555
C22_15 C21_15 1_555 1_555
H18_15 C22_15 1_555 1_555
C23_15 C22_15 1_555 1_555
C24_15 C23_15 1_555 1_555
H19_15 C24_15 1_555 1_555
C25_15 C20_15 1_555 1_555
H20_15 C25_15 1_555 1_555
C26_15 C23_15 1_555 1_555
C27_15 O4_15 1_555 1_555
C28_15 C27_15 1_555 1_555
H21_15 C28_15 1_555 1_555
O13_16 Zn3_4 1_555 1_555
O14_8 Zn5_3 1_555 1_555
O15_10 Zn5_3 1_555 1_555
O16_10 Zn3_4 1_555 1_555
C10_14 C11_14 1_555 1_555
C17_14 C18_14 1_555 1_555
C24_15 C25_15 1_555 1_555
O13_16 H25_16 1_555 1_555
O13_16 H26_14 1_555 1_555
O2_16 C3_16 1_555 1_555
O3_16 C4_16 1_555 1_555
O4_16 C5_16 1_555 1_555
O15_10 C26_16 1_555 1_555
O16_10 C26_16 1_555 1_555
O17_8 C33_16 1_555 1_555
O18_8 C33_16 1_555 1_555
C3_16 C1_16 1_555 1_555
H4_16 C3_16 1_555 1_555
C4_16 C1_16 1_555 1_555
H5_16 C4_16 1_555 1_555
H6_16 C4_16 1_555 1_555
C5_16 C1_16 1_555 1_555
H7_16 C5_16 1_555 1_555
C13_16 O2_16 1_555 1_555
C14_15 C13_16 1_555 1_555
H13_15 C14_15 1_555 1_555
C20_16 O3_16 1_555 1_555
C21_16 C20_16 1_555 1_555
H17_16 C21_16 1_555 1_555
C22_16 C21_16 1_555 1_555
H18_16 C22_16 1_555 1_555
C23_16 C22_16 1_555 1_555
C24_16 C23_16 1_555 1_555
H19_16 C24_16 1_555 1_555
C25_16 C20_16 1_555 1_555
H20_16 C25_16 1_555 1_555
C26_16 C23_16 1_555 1_555
C27_16 O4_16 1_555 1_555
C28_16 C27_16 1_555 1_555
H21_16 C28_16 1_555 1_555
C29_16 C28_16 1_555 1_555
H22_15 C29_16 1_555 1_555
C30_14 C29_16 1_555 1_555
C31_14 C30_14 1_555 1_555
H23_14 C31_14 1_555 1_555
C32_14 C27_16 1_555 1_555
H24_14 C32_14 1_555 1_555
C33_16 C30_14 1_555 1_555
C24_16 C25_16 1_555 1_555
C31_14 C32_14 1_555 1_555
H13_16 C14_16 1_555 1_555
O5_14 C12_14 1_555 1_555
O1_15 C2_15 1_555 1_555
O5_15 C12_15 1_555 1_555
C6_15 O1_15 1_555 1_555
C7_15 C6_15 1_555 1_555
H9_15 C7_15 1_555 1_555
C8_15 C7_15 1_555 1_555
H10_15 C8_15 1_555 1_555
C9_15 C8_15 1_555 1_555
C10_15 C9_15 1_555 1_555
H11_15 C10_15 1_555 1_555
C11_15 C6_15 1_555 1_555
H12_15 C11_15 1_555 1_555
C12_15 C9_15 1_555 1_555
C10_15 C11_15 1_555 1_555
H15_15 C17_15 1_555 1_555
H16_15 C18_15 1_555 1_555
C17_15 C18_15 1_555 1_555
H15_16 C17_16 1_555 1_555
H16_16 C18_16 1_555 1_555
C17_16 C18_16 1_555 1_555
C31_15 C30_15 1_555 1_555
H23_15 C31_15 1_555 1_555
H24_15 C32_15 1_555 1_555
C31_15 C32_15 1_555 1_555
C31_16 C30_16 1_555 1_555
H23_16 C31_16 1_555 1_555
H24_16 C32_16 1_555 1_555
C31_16 C32_16 1_555 1_555
O1_16 C2_16 1_555 1_555
O5_16 C12_16 1_555 1_555
C6_16 O1_16 1_555 1_555
C7_16 C6_16 1_555 1_555
H9_16 C7_16 1_555 1_555
C8_16 C7_16 1_555 1_555
H10_16 C8_16 1_555 1_555
C9_16 C8_16 1_555 1_555
C10_16 C9_16 1_555 1_555
H11_16 C10_16 1_555 1_555
C11_16 C6_16 1_555 1_555
H12_16 C11_16 1_555 1_555
C12_16 C9_16 1_555 1_555
C10_16 C11_16 1_555 1_555

#END
