
###############################################################################
#
# This file contains modified crystal structure data generated from the
# MOF subset of the Cambridge Structural Database (CSD) v543 
# hosted by the Cambridge Crystallographic Data Centre (CCDC).
#
# This work is licensed under the Creative Commons
# Attribution-NonCommercial-ShareAlike 4.0 International License.
# To view a copy of this license, visit
# http://creativecommons.org/licenses/by-nc-sa/4.0/
# or send a letter to
# Creative Commons, PO Box 1866, Mountain View, CA 94042, USA.
#
# CIF created using the CSD Python API on 29 September 2022
# The structure has been converted into the P1 space group
# The structure has a 3D framework
# The original CSD entry CUVGOQ is in the triclinic crystal system
# The framework has been calculated to contain at least 10.0% void space
# The void calculation uses a probe of radius 1.32A, grid spacing 0.4
#
###############################################################################

data_CUVGOQ
_chemical_formula_moiety         '(C20 H14 Mn4 N6)n'
_symmetry_cell_setting           triclinic
_symmetry_space_group_name_H-M   'P 1'
_symmetry_Int_Tables_number      1
_space_group_name_Hall           'P 1'
loop_
_symmetry_equiv_pos_site_id
_symmetry_equiv_pos_as_xyz
1 x,y,z
_cell_length_a                   5.6153(3)
_cell_length_b                   9.3336(5)
_cell_length_c                   13.3398(7)
_cell_angle_alpha                106.030(4)
_cell_angle_beta                 93.611(4)
_cell_angle_gamma                102.050(4)
_cell_volume                     651.726
loop_
_atom_site_label
_atom_site_type_symbol
_atom_site_fract_x
_atom_site_fract_y
_atom_site_fract_z
Mn3 Mn 0.0000 0.0000 0.0000
Mn3_2 Mn 0.0000 0.0000 1.0000
Mn3_3 Mn 0.0000 1.0000 0.0000
H13 H 0.0020 0.5624 0.6609
H14 H 0.1408 0.7446 0.8187
Mn3_4 Mn 0.0000 1.0000 1.0000
Mn3_5 Mn 1.0000 0.0000 0.0000
Mn3_6 Mn 1.0000 0.0000 1.0000
Mn3_7 Mn 1.0000 1.0000 0.0000
H1 H 0.301(11) 0.568(7) 0.486(5)
C5 C 0.3376(7) 0.1542(5) 0.2284(3)
H4 H 0.4244 0.0811 0.2001
C6 C 0.4308(7) 0.2584(5) 0.3255(3)
H5 H 0.5741 0.2531 0.3617
C7 C 0.3084(7) 0.3717(4) 0.3688(3)
C8 C 0.3985(8) 0.4927(5) 0.4689(3)
C9 C 0.0896(7) 0.3667(5) 0.3124(3)
C10 C 0.0078(7) 0.2568(5) 0.2170(3)
N3 N 0.1297(5) 0.1520(3) 0.1725(2)
H8 H 0.699(11) 0.432(7) 0.514(5)
C15 C 0.6624(7) 0.8458(5) 0.7716(3)
H11 H 0.5756 0.9189 0.7999
C16 C 0.5692(7) 0.7416(5) 0.6745(3)
H12 H 0.4259 0.7469 0.6383
C17 C 0.6916(7) 0.6283(4) 0.6312(3)
C18 C 0.6015(8) 0.5073(5) 0.5311(3)
C19 C 0.9104(7) 0.6333(5) 0.6876(3)
C20 C 0.9922(7) 0.7432(5) 0.7830(3)
N9 N 0.8703(5) 0.8480(3) 0.8275(2)
Mn3_8 Mn 1.0000 1.0000 1.0000
N5 N 0.3449(5) 0.0963(3) 0.9490(2)
N7 N 0.2011(5) 0.8149(3) 0.0238(2)
H6 H 0.9980 0.4376 0.3391
H7 H 0.8592 0.2554 0.1813
N8 N 0.7989(5) 0.1851(3) 0.9762(2)
C1 C 0.4394(6) 0.8577(4) 0.0377(3)
C2 C 0.1029(6) 0.6567(4) 0.0124(3)
C3 C 0.2424(6) 0.5640(4) 0.0419(3)
H2 H 0.4060 0.6063 0.0704
N1 N 0.6551(5) 0.9037(3) 0.0510(2)
C14 C 0.1424(6) 0.4102(4) 0.0296(3)
H10 H 0.2397 0.3509 0.0497
C4 C 0.8576(6) 0.5898(4) 0.9704(3)
H3 H 0.7603 0.6491 0.9503
C11 C 0.5606(6) 0.1423(4) 0.9623(3)
C12 C 0.8971(6) 0.3433(4) 0.9876(3)
C13 C 0.7576(6) 0.4360(4) 0.9581(3)
H9 H 0.5940 0.3937 0.9296
loop_
_geom_bond_atom_site_label_1
_geom_bond_atom_site_label_2
_geom_bond_site_symmetry_1
_geom_bond_site_symmetry_2
H1 C8 1_555 1_555
C5 H4 1_555 1_555
C6 C5 1_555 1_555
H5 C6 1_555 1_555
C7 C6 1_555 1_555
C8 C7 1_555 1_555
C9 C7 1_555 1_555
C10 C9 1_555 1_555
N3 C5 1_555 1_555
Mn3 N3 1_555 1_555
H8 C18 1_555 1_555
C15 H11 1_555 1_555
C16 C15 1_555 1_555
H12 C16 1_555 1_555
C17 C16 1_555 1_555
C18 C8 1_555 1_555
C19 C17 1_555 1_555
C20 C19 1_555 1_555
N9 C15 1_555 1_555
Mn3_8 N9 1_555 1_555
C10 N3 1_555 1_555
C17 C18 1_555 1_555
C20 N9 1_555 1_555
N5 Mn3_2 1_555 1_555
N7 Mn3_3 1_555 1_555
N8 Mn3_6 1_555 1_555
C1 N1 1_555 1_555
C2 C3 1_555 1_555
C3 H2 1_555 1_555
N1 Mn3_7 1_555 1_555
N7 C1 1_555 1_555
C14 C3 1_555 1_555
H10 C14 1_555 1_555
C2 N7 1_555 1_555
H3 C4 1_555 1_555
C11 N5 1_555 1_555
C12 C13 1_555 1_555
C13 C4 1_555 1_555
H9 C13 1_555 1_555
N8 C11 1_555 1_555
C12 N8 1_555 1_555

#END
