
###############################################################################
#
# This file contains modified crystal structure data generated from the
# MOF subset of the Cambridge Structural Database (CSD) v543 
# hosted by the Cambridge Crystallographic Data Centre (CCDC).
#
# This work is licensed under the Creative Commons
# Attribution-NonCommercial-ShareAlike 4.0 International License.
# To view a copy of this license, visit
# http://creativecommons.org/licenses/by-nc-sa/4.0/
# or send a letter to
# Creative Commons, PO Box 1866, Mountain View, CA 94042, USA.
#
# CIF created using the CSD Python API on 29 September 2022
# The structure has been converted into the P1 space group
# The structure has a 3D framework
# The original CSD entry CUVHIL02 is in the rhombohedral crystal system
# The framework has been calculated to contain at least 10.0% void space
# The void calculation uses a probe of radius 1.32A, grid spacing 0.4
# H atom positions have been added when not included in the experimental data
#
###############################################################################

data_CUVHIL02
_chemical_formula_moiety         '(C270 H306 I54 N54 Nd16 O142)n'
_symmetry_cell_setting           triclinic
_symmetry_space_group_name_H-M   'P 1'
_symmetry_Int_Tables_number      1
_space_group_name_Hall           'P 1'
loop_
_symmetry_equiv_pos_site_id
_symmetry_equiv_pos_as_xyz
1 x,y,z
_cell_length_a                   36.4310(12)
_cell_length_b                   36.4310(12)
_cell_length_c                   11.6867(8)
_cell_angle_alpha                90
_cell_angle_beta                 90
_cell_angle_gamma                120
_cell_volume                     13432.7
loop_
_atom_site_label
_atom_site_type_symbol
_atom_site_fract_x
_atom_site_fract_y
_atom_site_fract_z
O3 O 0.45052(15) 0.02597(16) 0.0291(4)
O4 O 0.51905(15) 0.07753(16) 0.0394(4)
O5 O 0.5587(2) 0.0352(2) 0.2105(5)
C4 C 0.4641(2) 0.0940(2) 0.0690(6)
C5 C 0.4799(2) 0.0631(2) 0.0431(6)
C6 C 0.4580(2) 0.1033(2) 0.1801(5)
C7 C 0.4374(2) 0.1270(3) 0.2052(6)
C8 C 0.4238(2) 0.1404(2) 0.1113(6)
C9 C 0.5214(3) 0.0054(3) 0.2108(6)
N1 N 0.4307(3) 0.1343(3) 0.3172(6)
I2 I 0.48161(2) 0.08296(3) 0.31446(5)
I3 I 0.39052(2) 0.17284(2) 0.14161(5)
H14 H 0.416046 0.151162 0.334292
H15 H 0.440431 0.122801 0.382397
O7 O 0.6293(2) 0.04857(19) 0.0580(5)
O8 O 0.61066(19) 0.1178(2) 0.0696(6)
C10 C 0.6360(3) 0.0201(3) 0.0846(8)
C12 C 0.7094(4) 0.0636(4) 0.1026(12)
H5 H 0.7015 0.0847 0.0886
H6 H 0.7237 0.0691 0.1748
H7 H 0.7278 0.0645 0.0427
C13 C 0.6763(6) 0.1949(9) 0.120(3)
H8 H 0.6752 0.1770 0.0574
H9 H 0.6850 0.2227 0.0904
H10 H 0.6963 0.1966 0.1754
C14 C 0.6269(8) 0.2046(7) 0.2916(19)
H11 H 0.5984 0.1903 0.3207
H12 H 0.6461 0.2068 0.3510
H13 H 0.6341 0.2324 0.2659
C15 C 0.6034(6) 0.1374(6) 0.1435(16)
N2 N 0.6734(3) 0.0240(2) 0.1052(7)
N3 N 0.6306(5) 0.1756(7) 0.1764(18)
H16 H 0.572273 0.121765 0.18377
O1 O 0.37673(18) 0.11490(18) 0.8594(5)
O2 O 0.4315(2) 0.17908(19) 0.8501(5)
C1 C 0.4104(2) 0.1427(2) 0.8970(6)
C2 C 0.4303(2) 0.1327(2) 0.9977(6)
C3 C 0.4503(2) 0.1095(2) 0.9780(6)
H1 H 0.3875 0.0070 0.9090
C11 C 0.3221(4) 0.0128(4) 0.8725(15)
H2 H 0.3496 0.0378 0.8717
H3 H 0.3051 0.0153 0.9314
H4 H 0.3086 0.0096 0.7997
I1 I 0.46511(3) 0.10003(3) 0.81067(5)
Nd2 Nd 0.379763(11) 0.149887(16) 0.67447(3)
Nd3 Nd 0.563210(11) 0.046430(11) 0.99220(3)
O13 O 0.49938(15) 0.00746(16) 0.8770(4)
Nd1 Nd 0.436790(11) 0.953570(11) 0.00780(3)
O6 O 0.50062(15) 0.99254(16) 0.1230(4)
O9 O 0.40484(25) 0.95660(18) 0.1927(5)
O10 O 0.41425(28) 0.9018(2) 0.1834(5)
H17 H 0.506875 0.990356 0.291776
Nd1_2 Nd 0.046430(11) 0.483220(16) 0.00780(3)
O6_2 O 0.00746(16) 0.50808(22) 0.1230(4)
O9_2 O 0.04340(18) 0.44823(31) 0.1927(5)
O10_2 O 0.0982(2) 0.51241(34) 0.1834(5)
H17_2 H 0.00964357 0.516519 0.291776
O1_2 O 0.88510(18) 0.26183(25) 0.8594(5)
O2_2 O 0.82092(19) 0.25242(28) 0.8501(5)
C1_2 C 0.8573(2) 0.2677(3) 0.8970(6)
C2_2 C 0.8673(2) 0.2976(3) 0.9977(6)
C3_2 C 0.8905(2) 0.3408(3) 0.9780(6)
H1_2 H 0.9930 0.3805 0.9090
C11_2 C 0.9872(4) 0.3093(6) 0.8725(15)
H2_2 H 0.9622 0.3118 0.8717
H3_2 H 0.9847 0.2898 0.9314
H4_2 H 0.9904 0.2990 0.7997
I1_2 I 0.89997(3) 0.36508(4) 0.81067(5)
Nd2_2 Nd 0.850113(16) 0.229877(19) 0.67447(3)
Nd3_2 Nd 0.953570(11) 0.516780(16) 0.99220(3)
O13_2 O 0.99254(16) 0.49192(22) 0.8770(4)
Nd1_3 Nd 0.516780(16) 0.563210(11) 0.00780(3)
O3_2 O 0.57545(22) 0.54948(15) 0.0291(4)
O4_2 O 0.55848(22) 0.48095(15) 0.0394(4)
O5_2 O 0.4765(3) 0.4413(2) 0.2105(5)
O6_3 O 0.49192(22) 0.49938(15) 0.1230(4)
C4_2 C 0.6299(3) 0.5359(2) 0.0690(6)
C5_2 C 0.5832(3) 0.5201(2) 0.0431(6)
C6_2 C 0.6453(3) 0.5420(2) 0.1801(5)
C7_2 C 0.6896(4) 0.5626(2) 0.2052(6)
C8_2 C 0.7166(3) 0.5762(2) 0.1113(6)
C9_2 C 0.4840(4) 0.4786(3) 0.2108(6)
N1_2 N 0.7036(4) 0.5693(3) 0.3172(6)
I2_2 I 0.60135(4) 0.51839(2) 0.31446(5)
I3_2 I 0.78232(3) 0.60948(2) 0.14161(5)
O9_3 O 0.55177(31) 0.59516(25) 0.1927(5)
O10_3 O 0.48759(34) 0.58575(28) 0.1834(5)
H14_2 H 0.735116 0.583954 0.334292
H15_2 H 0.68237 0.559569 0.382397
H17_3 H 0.483481 0.493125 0.291776
O1_3 O 0.73817(25) 0.62327(18) 0.8594(5)
O2_3 O 0.74758(28) 0.5685(2) 0.8501(5)
O7_2 O 0.58073(28) 0.6293(2) 0.9420(5)
O8_2 O 0.49286(28) 0.61066(19) 0.9304(6)
C1_3 C 0.7323(3) 0.5896(2) 0.8970(6)
C2_3 C 0.7024(3) 0.5697(2) 0.9977(6)
C3_3 C 0.6592(3) 0.5497(2) 0.9780(6)
C10_2 C 0.6159(4) 0.6360(3) 0.9154(8)
H1_3 H 0.6195 0.6125 0.9090
C11_3 C 0.6907(6) 0.6779(4) 0.8725(15)
H2_3 H 0.6882 0.6504 0.8717
H3_3 H 0.7102 0.6949 0.9314
H4_3 H 0.7010 0.6914 0.7997
C12_2 C 0.6458(6) 0.7094(4) 0.8974(12)
H5_2 H 0.6168 0.7015 0.9114
H6_2 H 0.6546 0.7237 0.8252
H7_2 H 0.6633 0.7278 0.9573
C13_2 C 0.4814(11) 0.6763(6) 0.880(3)
H8_2 H 0.4982 0.6752 0.9426
H9_2 H 0.4623 0.6850 0.9096
H10_2 H 0.4997 0.6963 0.8246
C14_2 C 0.4223(11) 0.6269(8) 0.7084(19)
H11_2 H 0.4081 0.5984 0.6793
H12_2 H 0.4393 0.6461 0.6490
H13_2 H 0.4017 0.6341 0.7341
C15_2 C 0.4660(8) 0.6034(6) 0.8565(16)
N2_2 N 0.6494(4) 0.6734(3) 0.8948(7)
N3_2 N 0.4550(9) 0.6306(5) 0.8236(18)
I1_3 I 0.63492(4) 0.53489(3) 0.81067(5)
Nd2_3 Nd 0.770123(19) 0.620237(11) 0.67447(3)
Nd3_3 Nd 0.483220(16) 0.436790(11) 0.99220(3)
O11 O 0.44152(22) 0.51905(15) 0.9606(4)
O12 O 0.5235(3) 0.5587(2) 0.7895(5)
O13_3 O 0.50808(22) 0.50062(15) 0.8770(4)
H16_2 H 0.450508 0.572273 0.81623
Nd1_4 Nd 0.103457(11) 0.286903(11) 0.34113(3)
O3_3 O 0.11719(15) 0.35930(16) 0.3624(4)
O4_3 O 0.18572(15) 0.41086(16) 0.3727(4)
O5_3 O 0.2254(2) 0.3685(2) 0.5438(5)
O6_4 O 0.16729(15) 0.32587(16) 0.4563(4)
O7_3 O 0.0374(2) 0.28476(19) 0.2753(5)
O8_3 O 0.05601(19) 0.2155(2) 0.2637(6)
C1_4 C 0.0771(2) 0.4760(2) 0.2303(6)
C2_4 C 0.0970(2) 0.4660(2) 0.3310(6)
C3_4 C 0.1170(2) 0.4428(2) 0.3113(6)
C4_3 C 0.1308(2) 0.4273(2) 0.4023(6)
C5_3 C 0.1466(2) 0.3964(2) 0.3764(6)
C6_3 C 0.1247(2) 0.4366(2) 0.5134(5)
C7_3 C 0.1041(2) 0.4603(3) 0.5385(6)
C8_3 C 0.0905(2) 0.4737(2) 0.4446(6)
C9_3 C 0.1881(3) 0.3387(3) 0.5441(6)
C10_3 C 0.0307(3) 0.3132(3) 0.2487(8)
H1_4 H 0.0542 0.3403 0.2423
H2_4 H 0.0163 0.3711 0.2050
C14_3 C 0.0398(8) 0.1287(7) 0.0417(19)
H11_3 H 0.0683 0.1430 0.0126
H13_3 H 0.0326 0.1009 0.0674
C15_3 C 0.0633(6) 0.1959(6) 0.1898(16)
N1_3 N 0.0974(3) 0.4676(3) 0.6505(6)
N3_3 N 0.0361(5) 0.1577(7) 0.1569(18)
I1_4 I 0.13178(3) 0.43336(3) 0.14400(5)
I2_3 I 0.14828(2) 0.41629(3) 0.64779(5)
I3_3 I 0.05719(2) 0.50617(2) 0.47494(5)
Nd3_4 Nd 0.229877(11) 0.379763(11) 0.32553(3)
O9_4 O 0.07150(25) 0.28994(18) 0.5261(5)
O10_4 O 0.08091(28) 0.2352(2) 0.5168(5)
O11_2 O 0.14762(15) 0.25580(16) 0.2939(4)
O12_2 O 0.1080(2) 0.2981(2) 0.1228(5)
O13_4 O 0.16605(15) 0.34079(16) 0.2103(4)
H14_3 H 0.0827127 0.484495 0.667626
H15_3 H 0.107098 0.456135 0.71573
H16_3 H 0.0943934 0.211568 0.149563
H17_4 H 0.173542 0.32369 0.625109
Nd1_5 Nd 0.713097(11) 0.816553(16) 0.34113(3)
O3_4 O 0.64070(16) 0.75788(22) 0.3624(4)
O4_4 O 0.58914(16) 0.77485(22) 0.3727(4)
O5_4 O 0.6315(2) 0.8568(3) 0.5438(5)
O6_5 O 0.67413(16) 0.84141(22) 0.4563(4)
O7_4 O 0.71524(19) 0.75260(28) 0.2753(5)
O8_4 O 0.7845(2) 0.84047(28) 0.2637(6)
C1_5 C 0.5240(2) 0.6010(3) 0.2303(6)
C2_5 C 0.5340(2) 0.6309(3) 0.3310(6)
C3_5 C 0.5572(2) 0.6741(3) 0.3113(6)
C4_4 C 0.5727(2) 0.7034(3) 0.4023(6)
C5_4 C 0.6036(2) 0.7501(3) 0.3764(6)
C6_4 C 0.5634(2) 0.6880(3) 0.5134(5)
C7_4 C 0.5397(3) 0.6437(4) 0.5385(6)
C8_4 C 0.5263(2) 0.6167(3) 0.4446(6)
C9_4 C 0.6613(3) 0.8493(4) 0.5441(6)
C10_4 C 0.6868(3) 0.7174(4) 0.2487(8)
H1_5 H 0.6597 0.7138 0.2423
C11_4 C 0.6539(4) 0.6426(6) 0.2058(15)
H2_5 H 0.6289 0.6451 0.2050
H3_4 H 0.6514 0.6231 0.2647
H4_4 H 0.6571 0.6323 0.1330
C12_3 C 0.7303(4) 0.6875(6) 0.2307(12)
H5_3 H 0.7514 0.7165 0.2447
H6_3 H 0.7358 0.6787 0.1585
H7_3 H 0.7312 0.6700 0.2906
C13_3 C 0.8616(9) 0.8519(11) 0.213(3)
H8_3 H 0.8437 0.8351 0.2759
H9_3 H 0.8894 0.8710 0.2429
H10_3 H 0.8633 0.8336 0.1579
C14_4 C 0.8713(7) 0.9110(11) 0.0417(19)
H11_4 H 0.8570 0.9252 0.0126
H13_4 H 0.8991 0.9316 0.0674
C15_4 C 0.8041(6) 0.8673(8) 0.1898(16)
N1_4 N 0.5324(3) 0.6297(4) 0.6505(6)
N2_3 N 0.6907(2) 0.6839(4) 0.2281(7)
N3_4 N 0.8423(7) 0.8783(9) 0.1569(18)
I1_5 I 0.56664(3) 0.69841(4) 0.14400(5)
I2_4 I 0.58371(3) 0.73198(4) 0.64779(5)
I3_4 I 0.49383(2) 0.55101(3) 0.47494(5)
Nd3_5 Nd 0.620237(11) 0.850113(16) 0.32553(3)
O9_5 O 0.71006(18) 0.78157(31) 0.5261(5)
O10_5 O 0.7648(2) 0.84575(34) 0.5168(5)
O11_3 O 0.74420(16) 0.89181(22) 0.2939(4)
O12_3 O 0.7019(2) 0.8098(3) 0.1228(5)
O13_5 O 0.65921(16) 0.82525(22) 0.2103(4)
H14_4 H 0.515505 0.598217 0.667626
H15_4 H 0.543865 0.650963 0.71573
H16_4 H 0.788432 0.882825 0.149563
H17_5 H 0.67631 0.849852 0.625109
Nd1_6 Nd 0.183447(16) 0.896543(11) 0.34113(3)
O3_5 O 0.24212(22) 0.88281(15) 0.3624(4)
O4_5 O 0.22515(22) 0.81428(15) 0.3727(4)
O5_5 O 0.1432(3) 0.7746(2) 0.5438(5)
O6_6 O 0.15859(22) 0.83271(15) 0.4563(4)
O7_5 O 0.24740(28) 0.9626(2) 0.2753(5)
O8_5 O 0.15953(28) 0.94399(19) 0.2637(6)
C1_6 C 0.3990(3) 0.9229(2) 0.2303(6)
C2_6 C 0.3691(3) 0.9030(2) 0.3310(6)
C3_6 C 0.3259(3) 0.8830(2) 0.3113(6)
C4_5 C 0.2966(3) 0.8692(2) 0.4023(6)
C5_5 C 0.2499(3) 0.8534(2) 0.3764(6)
C6_5 C 0.3120(3) 0.8753(2) 0.5134(5)
C7_5 C 0.3563(4) 0.8959(2) 0.5385(6)
C8_5 C 0.3833(3) 0.9095(2) 0.4446(6)
C9_5 C 0.1507(4) 0.8119(3) 0.5441(6)
C10_5 C 0.2826(4) 0.9693(3) 0.2487(8)
H1_6 H 0.2862 0.9458 0.2423
H2_6 H 0.3549 0.9837 0.2050
C14_5 C 0.0890(11) 0.9602(8) 0.0417(19)
H11_5 H 0.0748 0.9317 0.0126
H13_5 H 0.0684 0.9674 0.0674
C15_5 C 0.1327(8) 0.9367(6) 0.1898(16)
N1_5 N 0.3703(4) 0.9026(3) 0.6505(6)
N3_5 N 0.1217(9) 0.9639(5) 0.1569(18)
I1_6 I 0.30159(4) 0.86822(3) 0.14400(5)
I2_5 I 0.26802(4) 0.85172(2) 0.64779(5)
I3_5 I 0.44899(3) 0.94281(2) 0.47494(5)
Nd3_6 Nd 0.149887(16) 0.770123(11) 0.32553(3)
O9_6 O 0.21843(31) 0.92850(25) 0.5261(5)
O10_6 O 0.15425(34) 0.91909(28) 0.5168(5)
O11_4 O 0.10819(22) 0.85238(15) 0.2939(4)
O12_4 O 0.1902(3) 0.8920(2) 0.1228(5)
O13_6 O 0.17475(22) 0.83395(15) 0.2103(4)
H14_5 H 0.401783 0.917287 0.667626
H15_5 H 0.349037 0.892902 0.71573
H16_5 H 0.117175 0.905607 0.149563
H17_6 H 0.150148 0.826458 0.625109
O3_6 O 0.78385(15) 0.69264(16) 0.6958(4)
O4_6 O 0.85238(15) 0.74420(16) 0.7061(4)
O5_6 O 0.8920(2) 0.7019(2) 0.8772(5)
O6_7 O 0.83395(15) 0.65921(16) 0.7897(4)
O7_6 O 0.7040(2) 0.61810(19) 0.6087(5)
O8_6 O 0.72267(19) 0.5489(2) 0.5971(6)
C1_7 C 0.7437(2) 0.8094(2) 0.5637(6)
C2_7 C 0.7636(2) 0.7994(2) 0.6644(6)
C3_7 C 0.7836(2) 0.7762(2) 0.6447(6)
C4_6 C 0.7974(2) 0.7607(2) 0.7357(6)
C5_6 C 0.8132(2) 0.7298(2) 0.7098(6)
C6_6 C 0.7913(2) 0.7700(2) 0.8468(5)
C7_6 C 0.7707(2) 0.7937(3) 0.8719(6)
C8_6 C 0.7571(2) 0.8071(2) 0.7780(6)
C9_6 C 0.8547(3) 0.6721(3) 0.8775(6)
C10_6 C 0.6973(3) 0.6466(3) 0.5821(8)
H1_7 H 0.7208 0.6737 0.5757
C11_5 C 0.6554(4) 0.6795(4) 0.5392(15)
H2_7 H 0.6829 0.7045 0.5384
H3_5 H 0.6384 0.6820 0.5981
H4_5 H 0.6419 0.6763 0.4664
C12_4 C 0.6239(4) 0.6031(4) 0.5641(12)
H5_4 H 0.6318 0.5820 0.5781
H6_4 H 0.6096 0.5976 0.4919
H7_4 H 0.6055 0.6022 0.6240
C13_4 C 0.6570(6) 0.4718(9) 0.547(3)
H8_4 H 0.6581 0.4897 0.6093
H9_4 H 0.6483 0.4440 0.5763
H10_4 H 0.6370 0.4701 0.4913
C14_6 C 0.7064(8) 0.4621(7) 0.3751(19)
H11_6 H 0.7349 0.4764 0.3460
H12_3 H 0.6872 0.4599 0.3157
H13_6 H 0.6992 0.4343 0.4008
C15_6 C 0.7299(6) 0.5293(6) 0.5232(16)
N1_6 N 0.7640(3) 0.8010(3) 0.9839(6)
N2_4 N 0.6599(3) 0.6427(2) 0.5615(7)
N3_6 N 0.7027(5) 0.4911(7) 0.4903(18)
I1_7 I 0.79844(3) 0.76670(3) 0.47734(5)
I2_6 I 0.81494(2) 0.74963(3) 0.98113(5)
I3_6 I 0.72385(2) 0.83951(2) 0.80828(5)
Nd3_7 Nd 0.896543(11) 0.713097(11) 0.65887(3)
O11_5 O 0.81428(15) 0.58914(16) 0.6273(4)
O12_5 O 0.7746(2) 0.6315(2) 0.4562(5)
O13_7 O 0.83271(15) 0.67413(16) 0.5437(4)
H16_6 H 0.76106 0.544901 0.482897
H17_7 H 0.840209 0.657023 0.958443
O3_7 O 0.30736(16) 0.09122(22) 0.6958(4)
O4_7 O 0.25580(16) 0.10819(22) 0.7061(4)
O5_7 O 0.2981(2) 0.1902(3) 0.8772(5)
O6_8 O 0.34079(16) 0.17475(22) 0.7897(4)
O7_7 O 0.38190(19) 0.08594(28) 0.6087(5)
O8_7 O 0.4511(2) 0.17381(28) 0.5971(6)
C3_8 C 0.2238(2) 0.0075(3) 0.6447(6)
C4_7 C 0.2393(2) 0.0368(3) 0.7357(6)
C5_7 C 0.2702(2) 0.0835(3) 0.7098(6)
C6_7 C 0.2300(2) 0.0214(3) 0.8468(5)
C9_7 C 0.3279(3) 0.1827(4) 0.8775(6)
C10_7 C 0.3534(3) 0.0508(4) 0.5821(8)
H1_8 H 0.3263 0.0472 0.5757
C12_5 C 0.3969(4) 0.0209(6) 0.5641(12)
H5_5 H 0.4180 0.0499 0.5781
H6_5 H 0.4024 0.0121 0.4919
H7_5 H 0.3978 0.0034 0.6240
C13_5 C 0.5282(9) 0.1853(11) 0.547(3)
H8_5 H 0.5103 0.1685 0.6093
H9_5 H 0.5560 0.2044 0.5763
H10_5 H 0.5299 0.1670 0.4913
C14_7 C 0.5379(7) 0.2444(11) 0.3751(19)
H11_7 H 0.5236 0.2586 0.3460
H12_4 H 0.5401 0.2274 0.3157
H13_7 H 0.5657 0.2650 0.4008
C15_7 C 0.4707(6) 0.2007(8) 0.5232(16)
N2_5 N 0.3573(2) 0.0173(4) 0.5615(7)
N3_7 N 0.5089(7) 0.2117(9) 0.4903(18)
I1_8 I 0.23330(3) 0.03175(4) 0.47734(5)
I2_7 I 0.25037(3) 0.06532(4) 0.98113(5)
Nd3_8 Nd 0.286903(11) 0.183447(16) 0.65887(3)
O11_6 O 0.41086(16) 0.22515(22) 0.6273(4)
O12_6 O 0.3685(2) 0.1432(3) 0.4562(5)
O13_8 O 0.32587(16) 0.15859(22) 0.5437(4)
H16_7 H 0.455099 0.216159 0.482897
H17_8 H 0.342977 0.183186 0.958443
C1_8 C 0.1906(2) 0.9344(3) 0.5637(6)
C2_8 C 0.2006(2) 0.9643(3) 0.6644(6)
C7_7 C 0.2063(3) 0.9771(4) 0.8719(6)
C8_7 C 0.1929(2) 0.9501(3) 0.7780(6)
C11_6 C 0.3205(4) 0.9760(6) 0.5392(15)
H2_8 H 0.2955 0.9785 0.5384
H3_6 H 0.3180 0.9565 0.5981
H4_6 H 0.3237 0.9657 0.4664
N1_7 N 0.1990(3) 0.9631(4) 0.9839(6)
I3_7 I 0.16049(2) 0.88435(3) 0.80828(5)
C1_9 C 0.0656(3) 0.2563(2) 0.5637(6)
C2_9 C 0.0357(3) 0.2364(2) 0.6644(6)
C7_8 C 0.0229(4) 0.2293(2) 0.8719(6)
C8_8 C 0.0499(3) 0.2429(2) 0.7780(6)
C11_7 C 0.0240(6) 0.3446(4) 0.5392(15)
H2_9 H 0.0215 0.3171 0.5384
H3_7 H 0.0435 0.3616 0.5981
H4_7 H 0.0343 0.3581 0.4664
N1_8 N 0.0369(4) 0.2360(3) 0.9839(6)
I3_8 I 0.11565(3) 0.27615(2) 0.80828(5)
O3_8 O 0.90878(22) 0.21615(15) 0.6958(4)
O4_8 O 0.89181(22) 0.14762(15) 0.7061(4)
O5_8 O 0.8098(3) 0.1080(2) 0.8772(5)
O6_9 O 0.82525(22) 0.16605(15) 0.7897(4)
O7_8 O 0.91406(28) 0.2960(2) 0.6087(5)
O8_8 O 0.82619(28) 0.27733(19) 0.5971(6)
C3_9 C 0.9925(3) 0.2164(2) 0.6447(6)
C4_8 C 0.9632(3) 0.2026(2) 0.7357(6)
C5_8 C 0.9165(3) 0.1868(2) 0.7098(6)
C6_8 C 0.9786(3) 0.2087(2) 0.8468(5)
C9_8 C 0.8173(4) 0.1453(3) 0.8775(6)
C10_8 C 0.9492(4) 0.3027(3) 0.5821(8)
H1_9 H 0.9528 0.2792 0.5757
C12_6 C 0.9791(6) 0.3761(4) 0.5641(12)
H5_6 H 0.9501 0.3682 0.5781
H6_6 H 0.9879 0.3904 0.4919
H7_6 H 0.9966 0.3945 0.6240
C13_6 C 0.8147(11) 0.3430(6) 0.547(3)
H8_6 H 0.8315 0.3419 0.6093
H9_6 H 0.7956 0.3517 0.5763
H10_6 H 0.8330 0.3630 0.4913
C14_8 C 0.7556(11) 0.2936(8) 0.3751(19)
H11_8 H 0.7414 0.2651 0.3460
H12_5 H 0.7726 0.3128 0.3157
H13_8 H 0.7350 0.3008 0.4008
C15_8 C 0.7993(8) 0.2701(6) 0.5232(16)
N2_6 N 0.9827(4) 0.3401(3) 0.5615(7)
N3_8 N 0.7883(9) 0.2973(5) 0.4903(18)
I1_9 I 0.96825(4) 0.20156(3) 0.47734(5)
I2_8 I 0.93468(4) 0.18506(2) 0.98113(5)
Nd3_9 Nd 0.816553(16) 0.103457(11) 0.65887(3)
O11_7 O 0.77485(22) 0.18572(15) 0.6273(4)
O12_7 O 0.8568(3) 0.2254(2) 0.4562(5)
O13_9 O 0.84141(22) 0.16729(15) 0.5437(4)
H16_8 H 0.783841 0.23894 0.482897
H17_9 H 0.816814 0.159791 0.958443
O9_7 O 0.59516(25) 0.04340(18) 0.8073(5)
O10_7 O 0.58575(28) 0.0982(2) 0.8166(5)
H17_10 H 0.493125 0.00964357 0.708224
O1_4 O 0.62327(18) 0.88510(18) 0.1406(5)
O2_4 O 0.5685(2) 0.82092(19) 0.1499(5)
C1_10 C 0.5896(2) 0.8573(2) 0.1030(6)
C2_10 C 0.5697(2) 0.8673(2) 0.0023(6)
C3_10 C 0.5497(2) 0.8905(2) 0.0220(6)
H1_10 H 0.6125 0.9930 0.0910
C11_8 C 0.6779(4) 0.9872(4) 0.1275(15)
H2_10 H 0.6504 0.9622 0.1283
H3_8 H 0.6949 0.9847 0.0686
H4_8 H 0.6914 0.9904 0.2003
I1_10 I 0.53489(3) 0.89997(3) 0.18933(5)
O1_5 O 0.11490(18) 0.73817(25) 0.1406(5)
O2_5 O 0.17908(19) 0.74758(28) 0.1499(5)
C1_11 C 0.1427(2) 0.7323(3) 0.1030(6)
C2_11 C 0.1327(2) 0.7024(3) 0.0023(6)
C3_11 C 0.1095(2) 0.6592(3) 0.0220(6)
H1_11 H 0.0070 0.6195 0.0910
C11_9 C 0.0128(4) 0.6907(6) 0.1275(15)
H2_11 H 0.0378 0.6882 0.1283
H3_9 H 0.0153 0.7102 0.0686
H4_9 H 0.0096 0.7010 0.2003
I1_11 I 0.10003(3) 0.63492(4) 0.18933(5)
O9_8 O 0.95660(18) 0.55177(31) 0.8073(5)
O10_8 O 0.9018(2) 0.48759(34) 0.8166(5)
H17_11 H 0.990356 0.483481 0.708224
O1_6 O 0.26183(25) 0.37673(18) 0.1406(5)
O2_6 O 0.25242(28) 0.4315(2) 0.1499(5)
O7_9 O 0.41927(28) 0.3707(2) 0.0580(5)
O8_9 O 0.50714(28) 0.38934(19) 0.0696(6)
C1_12 C 0.2677(3) 0.4104(2) 0.1030(6)
C2_12 C 0.2976(3) 0.4303(2) 0.0023(6)
C3_12 C 0.3408(3) 0.4503(2) 0.0220(6)
C10_9 C 0.3841(4) 0.3640(3) 0.0846(8)
H1_12 H 0.3805 0.3875 0.0910
C11_10 C 0.3093(6) 0.3221(4) 0.1275(15)
H2_12 H 0.3118 0.3496 0.1283
H3_10 H 0.2898 0.3051 0.0686
H4_10 H 0.2990 0.3086 0.2003
C12_7 C 0.3542(6) 0.2906(4) 0.1026(12)
H5_7 H 0.3832 0.2985 0.0886
H6_7 H 0.3454 0.2763 0.1748
H7_7 H 0.3367 0.2722 0.0427
C13_7 C 0.5186(11) 0.3237(6) 0.120(3)
H8_7 H 0.5018 0.3248 0.0574
H9_7 H 0.5377 0.3150 0.0904
H10_7 H 0.5003 0.3037 0.1754
C14_9 C 0.5777(11) 0.3731(8) 0.2916(19)
H11_9 H 0.5919 0.4016 0.3207
H12_6 H 0.5607 0.3539 0.3510
H13_9 H 0.5983 0.3659 0.2659
C15_9 C 0.5340(8) 0.3966(6) 0.1435(16)
N2_7 N 0.3506(4) 0.3266(3) 0.1052(7)
N3_9 N 0.5450(9) 0.3694(5) 0.1764(18)
I1_12 I 0.36508(4) 0.46511(3) 0.18933(5)
H16_9 H 0.549492 0.427727 0.18377
O3_9 O 0.42455(22) 0.45052(15) 0.9709(4)
C4_9 C 0.3701(3) 0.4641(2) 0.9310(6)
C5_9 C 0.4168(3) 0.4799(2) 0.9569(6)
C6_9 C 0.3547(3) 0.4580(2) 0.8199(5)
C7_9 C 0.3104(4) 0.4374(2) 0.7948(6)
C8_9 C 0.2834(3) 0.4238(2) 0.8887(6)
C9_9 C 0.5160(4) 0.5214(3) 0.7892(6)
N1_9 N 0.2964(4) 0.4307(3) 0.6828(6)
I2_9 I 0.39865(4) 0.48161(2) 0.68554(5)
I3_9 I 0.21768(3) 0.39052(2) 0.85839(5)
O9_9 O 0.44823(31) 0.40484(25) 0.8073(5)
O10_9 O 0.51241(34) 0.41425(28) 0.8166(5)
H14_6 H 0.264884 0.416046 0.665708
H15_6 H 0.31763 0.440431 0.617603
H17_12 H 0.516519 0.506875 0.708224
O3_10 O 0.88281(15) 0.64070(16) 0.6376(4)
O7_10 O 0.9626(2) 0.71524(19) 0.7247(5)
O8_10 O 0.94399(19) 0.7845(2) 0.7363(6)
C1_13 C 0.9229(2) 0.5240(2) 0.7697(6)
C2_13 C 0.9030(2) 0.5340(2) 0.6690(6)
C3_13 C 0.8830(2) 0.5572(2) 0.6887(6)
C4_10 C 0.8692(2) 0.5727(2) 0.5977(6)
C5_10 C 0.8534(2) 0.6036(2) 0.6236(6)
C6_10 C 0.8753(2) 0.5634(2) 0.4866(5)
C7_10 C 0.8959(2) 0.5397(3) 0.4615(6)
C8_10 C 0.9095(2) 0.5263(2) 0.5554(6)
C9_10 C 0.8119(3) 0.6613(3) 0.4559(6)
C10_10 C 0.9693(3) 0.6868(3) 0.7513(8)
H1_13 H 0.9458 0.6597 0.7577
H2_13 H 0.9837 0.6289 0.7950
C14_10 C 0.9602(8) 0.8713(7) 0.9583(19)
H11_10 H 0.9317 0.8570 0.9874
H13_10 H 0.9674 0.8991 0.9326
C15_10 C 0.9367(6) 0.8041(6) 0.8102(16)
N1_10 N 0.9026(3) 0.5324(3) 0.3495(6)
N3_10 N 0.9639(5) 0.8423(7) 0.8431(18)
I1_13 I 0.86822(3) 0.56664(3) 0.85600(5)
I2_10 I 0.85172(2) 0.58371(3) 0.35221(5)
I3_10 I 0.94281(2) 0.49383(2) 0.52506(5)
O9_10 O 0.92850(25) 0.71006(18) 0.4739(5)
O10_10 O 0.91909(28) 0.7648(2) 0.4832(5)
H14_7 H 0.917287 0.515505 0.332374
H15_7 H 0.892902 0.543865 0.28427
H16_10 H 0.905607 0.788432 0.850437
H17_13 H 0.826458 0.67631 0.374891
O3_11 O 0.35930(16) 0.24212(22) 0.6376(4)
O7_11 O 0.28476(19) 0.24740(28) 0.7247(5)
O8_11 O 0.2155(2) 0.15953(28) 0.7363(6)
C1_14 C 0.4760(2) 0.3990(3) 0.7697(6)
C2_14 C 0.4660(2) 0.3691(3) 0.6690(6)
C3_14 C 0.4428(2) 0.3259(3) 0.6887(6)
C4_11 C 0.4273(2) 0.2966(3) 0.5977(6)
C5_11 C 0.3964(2) 0.2499(3) 0.6236(6)
C6_11 C 0.4366(2) 0.3120(3) 0.4866(5)
C7_11 C 0.4603(3) 0.3563(4) 0.4615(6)
C8_11 C 0.4737(2) 0.3833(3) 0.5554(6)
C9_11 C 0.3387(3) 0.1507(4) 0.4559(6)
C10_11 C 0.3132(3) 0.2826(4) 0.7513(8)
H1_14 H 0.3403 0.2862 0.7577
C11_11 C 0.3461(4) 0.3574(6) 0.7942(15)
H2_14 H 0.3711 0.3549 0.7950
H3_11 H 0.3486 0.3769 0.7353
H4_11 H 0.3429 0.3677 0.8670
C12_8 C 0.2697(4) 0.3125(6) 0.7693(12)
H5_8 H 0.2486 0.2835 0.7553
H6_8 H 0.2642 0.3213 0.8415
H7_8 H 0.2688 0.3300 0.7094
C13_8 C 0.1384(9) 0.1481(11) 0.787(3)
H8_8 H 0.1563 0.1649 0.7241
H9_8 H 0.1106 0.1290 0.7571
H10_8 H 0.1367 0.1664 0.8421
C14_11 C 0.1287(7) 0.0890(11) 0.9583(19)
H11_11 H 0.1430 0.0748 0.9874
H13_11 H 0.1009 0.0684 0.9326
C15_11 C 0.1959(6) 0.1327(8) 0.8102(16)
N1_11 N 0.4676(3) 0.3703(4) 0.3495(6)
N2_8 N 0.3093(2) 0.3161(4) 0.7719(7)
N3_11 N 0.1577(7) 0.1217(9) 0.8431(18)
I1_14 I 0.43336(3) 0.30159(4) 0.85600(5)
I2_11 I 0.41629(3) 0.26802(4) 0.35221(5)
I3_11 I 0.50617(2) 0.44899(3) 0.52506(5)
O9_11 O 0.28994(18) 0.21843(31) 0.4739(5)
O10_11 O 0.2352(2) 0.15425(34) 0.4832(5)
H14_8 H 0.484495 0.401783 0.332374
H15_8 H 0.456135 0.349037 0.28427
H16_11 H 0.211568 0.117175 0.850437
H17_14 H 0.32369 0.150148 0.374891
O3_12 O 0.75788(22) 0.11719(15) 0.6376(4)
O7_12 O 0.75260(28) 0.0374(2) 0.7247(5)
O8_12 O 0.84047(28) 0.05601(19) 0.7363(6)
C1_15 C 0.6010(3) 0.0771(2) 0.7697(6)
C2_15 C 0.6309(3) 0.0970(2) 0.6690(6)
C3_15 C 0.6741(3) 0.1170(2) 0.6887(6)
C4_12 C 0.7034(3) 0.1308(2) 0.5977(6)
C5_12 C 0.7501(3) 0.1466(2) 0.6236(6)
C6_12 C 0.6880(3) 0.1247(2) 0.4866(5)
C7_12 C 0.6437(4) 0.1041(2) 0.4615(6)
C8_12 C 0.6167(3) 0.0905(2) 0.5554(6)
C9_12 C 0.8493(4) 0.1881(3) 0.4559(6)
C10_12 C 0.7174(4) 0.0307(3) 0.7513(8)
H1_15 H 0.7138 0.0542 0.7577
H2_15 H 0.6451 0.0163 0.7950
C14_12 C 0.9110(11) 0.0398(8) 0.9583(19)
H11_12 H 0.9252 0.0683 0.9874
H13_12 H 0.9316 0.0326 0.9326
C15_12 C 0.8673(8) 0.0633(6) 0.8102(16)
N1_12 N 0.6297(4) 0.0974(3) 0.3495(6)
N3_12 N 0.8783(9) 0.0361(5) 0.8431(18)
I1_15 I 0.69841(4) 0.13178(3) 0.85600(5)
I2_12 I 0.73198(4) 0.14828(2) 0.35221(5)
I3_12 I 0.55101(3) 0.05719(2) 0.52506(5)
O9_12 O 0.78157(31) 0.07150(25) 0.4739(5)
O10_12 O 0.84575(34) 0.08091(28) 0.4832(5)
H14_9 H 0.598217 0.0827127 0.332374
H15_9 H 0.650963 0.107098 0.28427
H16_12 H 0.882825 0.0943934 0.850437
H17_15 H 0.849852 0.173542 0.374891
O3_13 O 0.21615(15) 0.30736(16) 0.3042(4)
O7_13 O 0.2960(2) 0.38190(19) 0.3913(5)
O8_13 O 0.27733(19) 0.4511(2) 0.4029(6)
C1_16 C 0.2563(2) 0.1906(2) 0.4363(6)
C2_16 C 0.2364(2) 0.2006(2) 0.3356(6)
C3_16 C 0.2164(2) 0.2238(2) 0.3553(6)
C4_13 C 0.2026(2) 0.2393(2) 0.2643(6)
C5_13 C 0.1868(2) 0.2702(2) 0.2902(6)
C6_13 C 0.2087(2) 0.2300(2) 0.1532(5)
C7_13 C 0.2293(2) 0.2063(3) 0.1281(6)
C8_13 C 0.2429(2) 0.1929(2) 0.2220(6)
C9_13 C 0.1453(3) 0.3279(3) 0.1225(6)
C10_13 C 0.3027(3) 0.3534(3) 0.4179(8)
H1_16 H 0.2792 0.3263 0.4243
C11_12 C 0.3446(4) 0.3205(4) 0.4608(15)
H2_16 H 0.3171 0.2955 0.4616
H3_12 H 0.3616 0.3180 0.4019
H4_12 H 0.3581 0.3237 0.5336
C12_9 C 0.3761(4) 0.3969(4) 0.4359(12)
H5_9 H 0.3682 0.4180 0.4219
H6_9 H 0.3904 0.4024 0.5081
H7_9 H 0.3945 0.3978 0.3760
C13_9 C 0.3430(6) 0.5282(9) 0.453(3)
H8_9 H 0.3419 0.5103 0.3907
H9_9 H 0.3517 0.5560 0.4237
H10_9 H 0.3630 0.5299 0.5087
C14_13 C 0.2936(8) 0.5379(7) 0.6249(19)
H11_13 H 0.2651 0.5236 0.6540
H12_7 H 0.3128 0.5401 0.6843
H13_13 H 0.3008 0.5657 0.5992
C15_13 C 0.2701(6) 0.4707(6) 0.4768(16)
N1_13 N 0.2360(3) 0.1990(3) 0.0161(6)
N2_9 N 0.3401(3) 0.3573(2) 0.4385(7)
N3_13 N 0.2973(5) 0.5089(7) 0.5097(18)
I1_16 I 0.20156(3) 0.23330(3) 0.52266(5)
I2_13 I 0.18506(2) 0.25037(3) 0.01887(5)
I3_13 I 0.27615(2) 0.16049(2) 0.19172(5)
H16_13 H 0.23894 0.455099 0.517103
H17_16 H 0.159791 0.342977 0.0415574
C1_17 C 0.8094(2) 0.0656(3) 0.4363(6)
C2_17 C 0.7994(2) 0.0357(3) 0.3356(6)
C7_14 C 0.7937(3) 0.0229(4) 0.1281(6)
C8_14 C 0.8071(2) 0.0499(3) 0.2220(6)
C11_13 C 0.6795(4) 0.0240(6) 0.4608(15)
H2_17 H 0.7045 0.0215 0.4616
H3_13 H 0.6820 0.0435 0.4019
H4_13 H 0.6763 0.0343 0.5336
N1_14 N 0.8010(3) 0.0369(4) 0.0161(6)
I3_14 I 0.83951(2) 0.11565(3) 0.19172(5)
O3_14 O 0.69264(16) 0.90878(22) 0.3042(4)
O7_14 O 0.61810(19) 0.91406(28) 0.3913(5)
O8_14 O 0.5489(2) 0.82619(28) 0.4029(6)
C3_17 C 0.7762(2) 0.9925(3) 0.3553(6)
C4_14 C 0.7607(2) 0.9632(3) 0.2643(6)
C5_14 C 0.7298(2) 0.9165(3) 0.2902(6)
C6_14 C 0.7700(2) 0.9786(3) 0.1532(5)
C9_14 C 0.6721(3) 0.8173(4) 0.1225(6)
C10_14 C 0.6466(3) 0.9492(4) 0.4179(8)
H1_17 H 0.6737 0.9528 0.4243
C12_10 C 0.6031(4) 0.9791(6) 0.4359(12)
H5_10 H 0.5820 0.9501 0.4219
H6_10 H 0.5976 0.9879 0.5081
H7_10 H 0.6022 0.9966 0.3760
C13_10 C 0.4718(9) 0.8147(11) 0.453(3)
H8_10 H 0.4897 0.8315 0.3907
H9_10 H 0.4440 0.7956 0.4237
H10_10 H 0.4701 0.8330 0.5087
C14_14 C 0.4621(7) 0.7556(11) 0.6249(19)
H11_14 H 0.4764 0.7414 0.6540
H12_8 H 0.4599 0.7726 0.6843
H13_14 H 0.4343 0.7350 0.5992
C15_14 C 0.5293(6) 0.7993(8) 0.4768(16)
N2_10 N 0.6427(2) 0.9827(4) 0.4385(7)
N3_14 N 0.4911(7) 0.7883(9) 0.5097(18)
I1_17 I 0.76670(3) 0.96825(4) 0.52266(5)
I2_14 I 0.74963(3) 0.93468(4) 0.01887(5)
H16_14 H 0.544901 0.783841 0.517103
H17_17 H 0.657023 0.816814 0.0415574
O3_15 O 0.09122(22) 0.78385(15) 0.3042(4)
O7_15 O 0.08594(28) 0.7040(2) 0.3913(5)
O8_15 O 0.17381(28) 0.72267(19) 0.4029(6)
C3_18 C 0.0075(3) 0.7836(2) 0.3553(6)
C4_15 C 0.0368(3) 0.7974(2) 0.2643(6)
C5_15 C 0.0835(3) 0.8132(2) 0.2902(6)
C6_15 C 0.0214(3) 0.7913(2) 0.1532(5)
C9_15 C 0.1827(4) 0.8547(3) 0.1225(6)
C10_15 C 0.0508(4) 0.6973(3) 0.4179(8)
H1_18 H 0.0472 0.7208 0.4243
C12_11 C 0.0209(6) 0.6239(4) 0.4359(12)
H5_11 H 0.0499 0.6318 0.4219
H6_11 H 0.0121 0.6096 0.5081
H7_11 H 0.0034 0.6055 0.3760
C13_11 C 0.1853(11) 0.6570(6) 0.453(3)
H8_11 H 0.1685 0.6581 0.3907
H9_11 H 0.2044 0.6483 0.4237
H10_11 H 0.1670 0.6370 0.5087
C14_15 C 0.2444(11) 0.7064(8) 0.6249(19)
H11_15 H 0.2586 0.7349 0.6540
H12_9 H 0.2274 0.6872 0.6843
H13_15 H 0.2650 0.6992 0.5992
C15_15 C 0.2007(8) 0.7299(6) 0.4768(16)
N2_11 N 0.0173(4) 0.6599(3) 0.4385(7)
N3_15 N 0.2117(9) 0.7027(5) 0.5097(18)
I1_18 I 0.03175(4) 0.79844(3) 0.52266(5)
I2_15 I 0.06532(4) 0.81494(2) 0.01887(5)
H16_15 H 0.216159 0.76106 0.517103
H17_18 H 0.183186 0.840209 0.0415574
C1_18 C 0.9344(3) 0.7437(2) 0.4363(6)
C2_18 C 0.9643(3) 0.7636(2) 0.3356(6)
C7_15 C 0.9771(4) 0.7707(2) 0.1281(6)
C8_15 C 0.9501(3) 0.7571(2) 0.2220(6)
C11_14 C 0.9760(6) 0.6554(4) 0.4608(15)
H2_18 H 0.9785 0.6829 0.4616
H3_14 H 0.9565 0.6384 0.4019
H4_14 H 0.9657 0.6419 0.5336
N1_15 N 0.9631(4) 0.7640(3) 0.0161(6)
I3_15 I 0.88435(3) 0.72385(2) 0.19172(5)
O7_16 O 0.3707(2) 0.95143(19) 0.9420(5)
O8_16 O 0.38934(19) 0.8822(2) 0.9304(6)
C10_16 C 0.3640(3) 0.9799(3) 0.9154(8)
C12_12 C 0.2906(4) 0.9364(4) 0.8974(12)
H5_12 H 0.2985 0.9153 0.9114
H6_12 H 0.2763 0.9309 0.8252
H7_12 H 0.2722 0.9355 0.9573
C13_12 C 0.3237(6) 0.8051(9) 0.880(3)
H8_12 H 0.3248 0.8230 0.9426
H9_12 H 0.3150 0.7773 0.9096
H10_12 H 0.3037 0.8034 0.8246
C14_16 C 0.3731(8) 0.7954(7) 0.7084(19)
H11_16 H 0.4016 0.8097 0.6793
H12_10 H 0.3539 0.7932 0.6490
H13_16 H 0.3659 0.7676 0.7341
C15_16 C 0.3966(6) 0.8626(6) 0.8565(16)
N2_12 N 0.3266(3) 0.9760(2) 0.8948(7)
N3_16 N 0.3694(5) 0.8244(7) 0.8236(18)
O11_8 O 0.48095(15) 0.92247(16) 0.9606(4)
O12_8 O 0.4413(2) 0.9648(2) 0.7895(5)
H16_16 H 0.427727 0.878235 0.81623
O3_16 O 0.54948(15) 0.97403(16) 0.9709(4)
C4_16 C 0.5359(2) 0.9060(2) 0.9310(6)
C5_16 C 0.5201(2) 0.9369(2) 0.9569(6)
C6_16 C 0.5420(2) 0.8967(2) 0.8199(5)
C7_16 C 0.5626(2) 0.8730(3) 0.7948(6)
C8_16 C 0.5762(2) 0.8596(2) 0.8887(6)
C9_16 C 0.4786(3) 0.9946(3) 0.7892(6)
N1_16 N 0.5693(3) 0.8657(3) 0.6828(6)
I2_16 I 0.51839(2) 0.91704(3) 0.68554(5)
I3_16 I 0.60948(2) 0.82716(2) 0.85839(5)
H14_10 H 0.583954 0.848838 0.665708
H15_10 H 0.559569 0.877199 0.617603
O7_17 O 0.04857(19) 0.41927(28) 0.9420(5)
O8_17 O 0.1178(2) 0.50714(28) 0.9304(6)
C10_17 C 0.0201(3) 0.3841(4) 0.9154(8)
C12_13 C 0.0636(4) 0.3542(6) 0.8974(12)
H5_13 H 0.0847 0.3832 0.9114
H6_13 H 0.0691 0.3454 0.8252
H7_13 H 0.0645 0.3367 0.9573
C13_13 C 0.1949(9) 0.5186(11) 0.880(3)
H8_13 H 0.1770 0.5018 0.9426
H9_13 H 0.2227 0.5377 0.9096
H10_13 H 0.1966 0.5003 0.8246
C14_17 C 0.2046(7) 0.5777(11) 0.7084(19)
H11_17 H 0.1903 0.5919 0.6793
H12_11 H 0.2068 0.5607 0.6490
H13_17 H 0.2324 0.5983 0.7341
C15_17 C 0.1374(6) 0.5340(8) 0.8565(16)
N2_13 N 0.0240(2) 0.3506(4) 0.8948(7)
N3_17 N 0.1756(7) 0.5450(9) 0.8236(18)
O11_9 O 0.07753(16) 0.55848(22) 0.9606(4)
O12_9 O 0.0352(2) 0.4765(3) 0.7895(5)
H16_17 H 0.121765 0.549492 0.81623
O3_17 O 0.02597(16) 0.57545(22) 0.9709(4)
C4_17 C 0.0940(2) 0.6299(3) 0.9310(6)
C5_17 C 0.0631(2) 0.5832(3) 0.9569(6)
C6_17 C 0.1033(2) 0.6453(3) 0.8199(5)
C7_17 C 0.1270(3) 0.6896(4) 0.7948(6)
C8_17 C 0.1404(2) 0.7166(3) 0.8887(6)
C9_17 C 0.0054(3) 0.4840(4) 0.7892(6)
N1_17 N 0.1343(3) 0.7036(4) 0.6828(6)
I2_17 I 0.08296(3) 0.60135(4) 0.68554(5)
I3_17 I 0.17284(2) 0.78232(3) 0.85839(5)
H14_11 H 0.151162 0.735116 0.665708
H15_11 H 0.122801 0.68237 0.617603
O3_18 O 0.97403(16) 0.42455(22) 0.0291(4)
O4_9 O 0.92247(16) 0.44152(22) 0.0394(4)
O5_9 O 0.9648(2) 0.5235(3) 0.2105(5)
C4_18 C 0.9060(2) 0.3701(3) 0.0690(6)
C5_18 C 0.9369(2) 0.4168(3) 0.0431(6)
C6_18 C 0.8967(2) 0.3547(3) 0.1801(5)
C7_18 C 0.8730(3) 0.3104(4) 0.2052(6)
C8_18 C 0.8596(2) 0.2834(3) 0.1113(6)
C9_18 C 0.9946(3) 0.5160(4) 0.2108(6)
N1_18 N 0.8657(3) 0.2964(4) 0.3172(6)
I2_18 I 0.91704(3) 0.39865(4) 0.31446(5)
I3_18 I 0.82716(2) 0.21768(3) 0.14161(5)
H14_12 H 0.848838 0.264884 0.334292
H15_12 H 0.877199 0.31763 0.382397
O7_18 O 0.95143(19) 0.58073(28) 0.0580(5)
O8_18 O 0.8822(2) 0.49286(28) 0.0696(6)
C10_18 C 0.9799(3) 0.6159(4) 0.0846(8)
C12_14 C 0.9364(4) 0.6458(6) 0.1026(12)
H5_14 H 0.9153 0.6168 0.0886
H6_14 H 0.9309 0.6546 0.1748
H7_14 H 0.9355 0.6633 0.0427
C13_14 C 0.8051(9) 0.4814(11) 0.120(3)
H8_14 H 0.8230 0.4982 0.0574
H9_14 H 0.7773 0.4623 0.0904
H10_14 H 0.8034 0.4997 0.1754
C14_18 C 0.7954(7) 0.4223(11) 0.2916(19)
H11_18 H 0.8097 0.4081 0.3207
H12_12 H 0.7932 0.4393 0.3510
H13_18 H 0.7676 0.4017 0.2659
C15_18 C 0.8626(6) 0.4660(8) 0.1435(16)
N2_14 N 0.9760(2) 0.6494(4) 0.1052(7)
N3_18 N 0.8244(7) 0.4550(9) 0.1764(18)
H16_18 H 0.878235 0.450508 0.18377
H12_13 H 0.0206 0.1265 0.9823
C11_15 C 0.9888(4) 0.3461(4) 0.2058(15)
H3_15 H 0.9718 0.3486 0.2647
H4_15 H 0.9753 0.3429 0.1330
C12_15 C 0.9573(4) 0.2697(4) 0.2307(12)
H5_15 H 0.9652 0.2486 0.2447
H6_15 H 0.9430 0.2642 0.1585
H7_15 H 0.9389 0.2688 0.2906
C13_15 C 0.9904(6) 0.1384(9) 0.213(3)
H8_15 H 0.9915 0.1563 0.2759
H9_15 H 0.9817 0.1106 0.2429
H10_15 H 0.9704 0.1367 0.1579
N2_15 N 0.9933(3) 0.3093(2) 0.2281(7)
H12_14 H 0.8735 0.8940 0.9823
C11_16 C 0.3574(6) 0.0112(4) 0.2058(15)
H3_16 H 0.3769 0.0282 0.2647
H4_16 H 0.3677 0.0247 0.1330
C12_16 C 0.3125(6) 0.0427(4) 0.2307(12)
H5_16 H 0.2835 0.0348 0.2447
H6_16 H 0.3213 0.0570 0.1585
H7_16 H 0.3300 0.0611 0.2906
C13_16 C 0.1481(11) 0.0096(6) 0.213(3)
H8_16 H 0.1649 0.0085 0.2759
H9_16 H 0.1290 0.0183 0.2429
H10_16 H 0.1664 0.0296 0.1579
N2_16 N 0.3161(4) 0.0067(3) 0.2281(7)
H12_15 H 0.1060 0.9794 0.9823
H14_13 H 0.749379 0.817829 0.000958864
H15_13 H 0.773765 0.789468 0.0490635
H14_14 H 0.182171 0.931551 0.000958864
H15_14 H 0.210532 0.984297 0.0490635
H14_15 H 0.0684494 0.250621 0.000958864
H15_15 H 0.0157034 0.226235 0.0490635
C11_17 C 0.0112(4) 0.6539(4) 0.7942(15)
H3_17 H 0.0282 0.6514 0.7353
H4_17 H 0.0247 0.6571 0.8670
C12_17 C 0.0427(4) 0.7303(4) 0.7693(12)
H5_17 H 0.0348 0.7514 0.7553
H6_17 H 0.0570 0.7358 0.8415
H7_17 H 0.0611 0.7312 0.7094
C13_17 C 0.0096(6) 0.8616(9) 0.787(3)
H8_17 H 0.0085 0.8437 0.7241
H9_17 H 0.0183 0.8894 0.7571
H10_17 H 0.0296 0.8633 0.8421
N2_17 N 0.0067(3) 0.6907(2) 0.7719(7)
H12_16 H 0.9794 0.8735 0.0177
H12_17 H 0.1265 0.1060 0.0177
H12_18 H 0.8940 0.0206 0.0177
C11_18 C 0.6426(6) 0.9888(4) 0.7942(15)
H3_18 H 0.6231 0.9718 0.7353
H4_18 H 0.6323 0.9753 0.8670
C12_18 C 0.6875(6) 0.9573(4) 0.7693(12)
H5_18 H 0.7165 0.9652 0.7553
H6_18 H 0.6787 0.9430 0.8415
H7_18 H 0.6700 0.9389 0.7094
C13_18 C 0.8519(11) 0.9904(6) 0.787(3)
H8_18 H 0.8351 0.9915 0.7241
H9_18 H 0.8710 0.9817 0.7571
H10_18 H 0.8336 0.9704 0.8421
N2_18 N 0.6839(4) 0.9933(3) 0.7719(7)
H14_16 H 0.250621 0.182171 0.999041
H15_16 H 0.226235 0.210532 0.950937
H14_17 H 0.817829 0.0684494 0.999041
H15_17 H 0.789468 0.0157034 0.950937
H14_18 H 0.931551 0.749379 0.999041
H15_18 H 0.984297 0.773765 0.950937
loop_
_geom_bond_atom_site_label_1
_geom_bond_atom_site_label_2
_geom_bond_site_symmetry_1
_geom_bond_site_symmetry_2
O3 C5 1_555 1_555
O4 C5 1_555 1_555
O5 C9 1_555 1_555
C4 C5 1_555 1_555
C6 C4 1_555 1_555
C7 C6 1_555 1_555
N1 C7 1_555 1_555
I2 C6 1_555 1_555
I3 C8 1_555 1_555
C7 C8 1_555 1_555
N1 H14 1_555 1_555
N1 H15 1_555 1_555
C10 O7 1_555 1_555
C12 H5 1_555 1_555
H6 C12 1_555 1_555
H7 C12 1_555 1_555
C13 H8 1_555 1_555
H9 C13 1_555 1_555
H10 C13 1_555 1_555
C14 H11 1_555 1_555
H12 C14 1_555 1_555
H13 C14 1_555 1_555
C15 O8 1_555 1_555
N2 C10 1_555 1_555
N3 C13 1_555 1_555
C12 N2 1_555 1_555
C14 N3 1_555 1_555
C15 N3 1_555 1_555
C15 H16 1_555 1_555
O1 C1 1_555 1_555
O2 C1 1_555 1_555
C1 C2 1_555 1_555
C2 C3 1_555 1_555
C11 H2 1_555 1_555
H3 C11 1_555 1_555
H4 C11 1_555 1_555
I1 C3 1_555 1_555
Nd2 O1 1_555 1_555
O2 Nd2 1_555 1_555
Nd3 O13 1_555 1_555
O6 Nd1 1_555 1_555
O9 Nd1 1_555 1_555
O10 Nd1 1_555 1_555
O6_2 Nd1_2 1_555 1_555
O9_2 Nd1_2 1_555 1_555
O10_2 Nd1_2 1_555 1_555
O1_2 C1_2 1_555 1_555
O2_2 C1_2 1_555 1_555
C1_2 C2_2 1_555 1_555
C2_2 C3_2 1_555 1_555
C11_2 H2_2 1_555 1_555
H3_2 C11_2 1_555 1_555
H4_2 C11_2 1_555 1_555
I1_2 C3_2 1_555 1_555
Nd2_2 O1_2 1_555 1_555
O2_2 Nd2_2 1_555 1_555
Nd3_2 O13_2 1_555 1_555
Nd1_3 O3_2 1_555 1_555
O3_2 C5_2 1_555 1_555
O4_2 C5_2 1_555 1_555
O5_2 C9_2 1_555 1_555
O6_3 Nd1_3 1_555 1_555
C4_2 C5_2 1_555 1_555
C6_2 C4_2 1_555 1_555
C7_2 C6_2 1_555 1_555
C9_2 O6_3 1_555 1_555
N1_2 C7_2 1_555 1_555
I2_2 C6_2 1_555 1_555
I3_2 C8_2 1_555 1_555
O9_3 Nd1_3 1_555 1_555
O10_3 Nd1_3 1_555 1_555
C7_2 C8_2 1_555 1_555
N1_2 H14_2 1_555 1_555
N1_2 H15_2 1_555 1_555
C9_2 H17_3 1_555 1_555
O1_3 C1_3 1_555 1_555
O2_3 C1_3 1_555 1_555
C1_3 C2_3 1_555 1_555
C2_3 C3_3 1_555 1_555
C10_2 O7_2 1_555 1_555
H1_3 C10_2 1_555 1_555
C11_3 H2_3 1_555 1_555
H3_3 C11_3 1_555 1_555
H4_3 C11_3 1_555 1_555
C12_2 H5_2 1_555 1_555
H6_2 C12_2 1_555 1_555
H7_2 C12_2 1_555 1_555
C13_2 H8_2 1_555 1_555
H9_2 C13_2 1_555 1_555
H10_2 C13_2 1_555 1_555
C14_2 H11_2 1_555 1_555
H12_2 C14_2 1_555 1_555
H13_2 C14_2 1_555 1_555
C15_2 O8_2 1_555 1_555
N2_2 C10_2 1_555 1_555
N3_2 C13_2 1_555 1_555
I1_3 C3_3 1_555 1_555
Nd2_3 O1_3 1_555 1_555
O2_3 Nd2_3 1_555 1_555
C11_3 N2_2 1_555 1_555
C12_2 N2_2 1_555 1_555
C14_2 N3_2 1_555 1_555
C15_2 N3_2 1_555 1_555
Nd3_3 O13_3 1_555 1_555
C15_2 H16_2 1_555 1_555
Nd1_4 O3_3 1_555 1_555
O9_2 C1_4 1_555 1_555
O10_2 C1_4 1_555 1_555
O3_3 C5_3 1_555 1_555
O4_3 C5_3 1_555 1_555
O5_3 C9_3 1_555 1_555
O6_4 Nd1_4 1_555 1_555
O7_3 Nd1_4 1_555 1_555
O8_3 Nd1_4 1_555 1_555
C1_4 C2_4 1_555 1_555
C2_4 C3_4 1_555 1_555
C3_4 C4_3 1_555 1_555
C4_3 C5_3 1_555 1_555
C6_3 C4_3 1_555 1_555
C7_3 C6_3 1_555 1_555
C8_3 C2_4 1_555 1_555
C9_3 O6_4 1_555 1_555
C10_3 O7_3 1_555 1_555
H1_4 C10_3 1_555 1_555
C14_3 H11_3 1_555 1_555
H13_3 C14_3 1_555 1_555
C15_3 O8_3 1_555 1_555
N1_3 C7_3 1_555 1_555
I1_4 C3_4 1_555 1_555
I2_3 C6_3 1_555 1_555
I3_3 C8_3 1_555 1_555
Nd3_4 O4_3 1_555 1_555
O9_4 Nd1_4 1_555 1_555
O10_4 Nd1_4 1_555 1_555
O11_2 Nd1_4 1_555 1_555
O12_2 Nd1_4 1_555 1_555
O13_4 Nd1_4 1_555 1_555
O5_3 Nd3_4 1_555 1_555
O6_4 Nd3_4 1_555 1_555
C7_3 C8_3 1_555 1_555
C14_3 N3_3 1_555 1_555
C15_3 N3_3 1_555 1_555
Nd3_4 O13_4 1_555 1_555
N1_3 H14_3 1_555 1_555
N1_3 H15_3 1_555 1_555
C15_3 H16_3 1_555 1_555
C9_3 H17_4 1_555 1_555
Nd1_5 O3_4 1_555 1_555
O9_3 C1_5 1_555 1_555
O10_3 C1_5 1_555 1_555
O3_4 C5_4 1_555 1_555
O4_4 C5_4 1_555 1_555
O5_4 C9_4 1_555 1_555
O6_5 Nd1_5 1_555 1_555
O7_4 Nd1_5 1_555 1_555
O8_4 Nd1_5 1_555 1_555
C1_5 C2_5 1_555 1_555
C2_5 C3_5 1_555 1_555
C3_5 C4_4 1_555 1_555
C4_4 C5_4 1_555 1_555
C6_4 C4_4 1_555 1_555
C7_4 C6_4 1_555 1_555
C8_4 C2_5 1_555 1_555
C9_4 O6_5 1_555 1_555
C10_4 O7_4 1_555 1_555
H1_5 C10_4 1_555 1_555
C11_4 H2_5 1_555 1_555
H3_4 C11_4 1_555 1_555
H4_4 C11_4 1_555 1_555
C12_3 H5_3 1_555 1_555
H6_3 C12_3 1_555 1_555
H7_3 C12_3 1_555 1_555
C13_3 H8_3 1_555 1_555
H9_3 C13_3 1_555 1_555
H10_3 C13_3 1_555 1_555
C14_4 H11_4 1_555 1_555
H13_4 C14_4 1_555 1_555
C15_4 O8_4 1_555 1_555
N1_4 C7_4 1_555 1_555
N2_3 C10_4 1_555 1_555
N3_4 C13_3 1_555 1_555
I1_5 C3_5 1_555 1_555
I2_4 C6_4 1_555 1_555
I3_4 C8_4 1_555 1_555
Nd3_5 O4_4 1_555 1_555
O9_5 Nd1_5 1_555 1_555
O10_5 Nd1_5 1_555 1_555
O11_3 Nd1_5 1_555 1_555
O12_3 Nd1_5 1_555 1_555
O13_5 Nd1_5 1_555 1_555
O5_4 Nd3_5 1_555 1_555
O6_5 Nd3_5 1_555 1_555
C7_4 C8_4 1_555 1_555
C11_4 N2_3 1_555 1_555
C12_3 N2_3 1_555 1_555
C14_4 N3_4 1_555 1_555
C15_4 N3_4 1_555 1_555
Nd3_5 O13_5 1_555 1_555
N1_4 H14_4 1_555 1_555
N1_4 H15_4 1_555 1_555
C15_4 H16_4 1_555 1_555
C9_4 H17_5 1_555 1_555
Nd1_6 O3_5 1_555 1_555
O9 C1_6 1_555 1_555
O10 C1_6 1_555 1_555
O3_5 C5_5 1_555 1_555
O4_5 C5_5 1_555 1_555
O5_5 C9_5 1_555 1_555
O6_6 Nd1_6 1_555 1_555
O7_5 Nd1_6 1_555 1_555
O8_5 Nd1_6 1_555 1_555
C1_6 C2_6 1_555 1_555
C2_6 C3_6 1_555 1_555
C3_6 C4_5 1_555 1_555
C4_5 C5_5 1_555 1_555
C6_5 C4_5 1_555 1_555
C7_5 C6_5 1_555 1_555
C8_5 C2_6 1_555 1_555
C9_5 O6_6 1_555 1_555
C10_5 O7_5 1_555 1_555
H1_6 C10_5 1_555 1_555
C14_5 H11_5 1_555 1_555
H13_5 C14_5 1_555 1_555
C15_5 O8_5 1_555 1_555
N1_5 C7_5 1_555 1_555
I1_6 C3_6 1_555 1_555
I2_5 C6_5 1_555 1_555
I3_5 C8_5 1_555 1_555
Nd3_6 O4_5 1_555 1_555
O9_6 Nd1_6 1_555 1_555
O10_6 Nd1_6 1_555 1_555
O11_4 Nd1_6 1_555 1_555
O12_4 Nd1_6 1_555 1_555
O13_6 Nd1_6 1_555 1_555
O5_5 Nd3_6 1_555 1_555
O6_6 Nd3_6 1_555 1_555
C7_5 C8_5 1_555 1_555
C14_5 N3_5 1_555 1_555
C15_5 N3_5 1_555 1_555
Nd3_6 O13_6 1_555 1_555
N1_5 H14_5 1_555 1_555
N1_5 H15_5 1_555 1_555
C15_5 H16_5 1_555 1_555
C9_5 H17_6 1_555 1_555
Nd2_3 O3_6 1_555 1_555
O9_5 C1_7 1_555 1_555
O10_5 C1_7 1_555 1_555
O3_6 C5_6 1_555 1_555
O4_6 C5_6 1_555 1_555
O5_6 C9_6 1_555 1_555
O6_7 Nd2_3 1_555 1_555
O7_6 Nd2_3 1_555 1_555
O8_6 Nd2_3 1_555 1_555
C1_7 C2_7 1_555 1_555
C2_7 C3_7 1_555 1_555
C3_7 C4_6 1_555 1_555
C4_6 C5_6 1_555 1_555
C6_6 C4_6 1_555 1_555
C7_6 C6_6 1_555 1_555
C8_6 C2_7 1_555 1_555
C9_6 O6_7 1_555 1_555
C10_6 O7_6 1_555 1_555
H1_7 C10_6 1_555 1_555
C11_5 H2_7 1_555 1_555
H3_5 C11_5 1_555 1_555
H4_5 C11_5 1_555 1_555
C12_4 H5_4 1_555 1_555
H6_4 C12_4 1_555 1_555
H7_4 C12_4 1_555 1_555
C13_4 H8_4 1_555 1_555
H9_4 C13_4 1_555 1_555
H10_4 C13_4 1_555 1_555
C14_6 H11_6 1_555 1_555
H12_3 C14_6 1_555 1_555
H13_6 C14_6 1_555 1_555
C15_6 O8_6 1_555 1_555
N1_6 C7_6 1_555 1_555
N2_4 C10_6 1_555 1_555
N3_6 C13_4 1_555 1_555
I1_7 C3_7 1_555 1_555
I2_6 C6_6 1_555 1_555
I3_6 C8_6 1_555 1_555
Nd3_7 O4_6 1_555 1_555
O11_5 Nd2_3 1_555 1_555
O12_5 Nd2_3 1_555 1_555
O13_7 Nd2_3 1_555 1_555
O5_6 Nd3_7 1_555 1_555
O6_7 Nd3_7 1_555 1_555
C7_6 C8_6 1_555 1_555
C11_5 N2_4 1_555 1_555
C12_4 N2_4 1_555 1_555
C14_6 N3_6 1_555 1_555
C15_6 N3_6 1_555 1_555
Nd3_7 O13_7 1_555 1_555
C15_6 H16_6 1_555 1_555
C9_6 H17_7 1_555 1_555
Nd2 O3_7 1_555 1_555
O3_7 C5_7 1_555 1_555
O4_7 C5_7 1_555 1_555
O5_7 C9_7 1_555 1_555
O6_8 Nd2 1_555 1_555
O7_7 Nd2 1_555 1_555
O8_7 Nd2 1_555 1_555
C3_8 C4_7 1_555 1_555
C4_7 C5_7 1_555 1_555
C6_7 C4_7 1_555 1_555
C9_7 O6_8 1_555 1_555
C10_7 O7_7 1_555 1_555
H1_8 C10_7 1_555 1_555
C12_5 H5_5 1_555 1_555
H6_5 C12_5 1_555 1_555
H7_5 C12_5 1_555 1_555
C13_5 H8_5 1_555 1_555
H9_5 C13_5 1_555 1_555
H10_5 C13_5 1_555 1_555
C14_7 H11_7 1_555 1_555
H12_4 C14_7 1_555 1_555
H13_7 C14_7 1_555 1_555
C15_7 O8_7 1_555 1_555
N2_5 C10_7 1_555 1_555
N3_7 C13_5 1_555 1_555
I1_8 C3_8 1_555 1_555
I2_7 C6_7 1_555 1_555
Nd3_8 O4_7 1_555 1_555
O11_6 Nd2 1_555 1_555
O12_6 Nd2 1_555 1_555
O13_8 Nd2 1_555 1_555
O5_7 Nd3_8 1_555 1_555
O6_8 Nd3_8 1_555 1_555
C12_5 N2_5 1_555 1_555
C14_7 N3_7 1_555 1_555
C15_7 N3_7 1_555 1_555
Nd3_8 O13_8 1_555 1_555
C15_7 H16_7 1_555 1_555
C9_7 H17_8 1_555 1_555
O9_6 C1_8 1_555 1_555
O10_6 C1_8 1_555 1_555
C1_8 C2_8 1_555 1_555
C8_7 C2_8 1_555 1_555
C11_6 H2_8 1_555 1_555
H3_6 C11_6 1_555 1_555
H4_6 C11_6 1_555 1_555
N1_7 C7_7 1_555 1_555
I3_7 C8_7 1_555 1_555
C7_7 C8_7 1_555 1_555
O9_4 C1_9 1_555 1_555
O10_4 C1_9 1_555 1_555
C1_9 C2_9 1_555 1_555
C8_8 C2_9 1_555 1_555
C11_7 H2_9 1_555 1_555
H3_7 C11_7 1_555 1_555
H4_7 C11_7 1_555 1_555
N1_8 C7_8 1_555 1_555
I3_8 C8_8 1_555 1_555
C7_8 C8_8 1_555 1_555
Nd2_2 O3_8 1_555 1_555
O3_8 C5_8 1_555 1_555
O4_8 C5_8 1_555 1_555
O5_8 C9_8 1_555 1_555
O6_9 Nd2_2 1_555 1_555
O7_8 Nd2_2 1_555 1_555
O8_8 Nd2_2 1_555 1_555
C3_9 C4_8 1_555 1_555
C4_8 C5_8 1_555 1_555
C6_8 C4_8 1_555 1_555
C9_8 O6_9 1_555 1_555
C10_8 O7_8 1_555 1_555
H1_9 C10_8 1_555 1_555
C12_6 H5_6 1_555 1_555
H6_6 C12_6 1_555 1_555
H7_6 C12_6 1_555 1_555
C13_6 H8_6 1_555 1_555
H9_6 C13_6 1_555 1_555
H10_6 C13_6 1_555 1_555
C14_8 H11_8 1_555 1_555
H12_5 C14_8 1_555 1_555
H13_8 C14_8 1_555 1_555
C15_8 O8_8 1_555 1_555
N2_6 C10_8 1_555 1_555
N3_8 C13_6 1_555 1_555
I1_9 C3_9 1_555 1_555
I2_8 C6_8 1_555 1_555
Nd3_9 O4_8 1_555 1_555
O11_7 Nd2_2 1_555 1_555
O12_7 Nd2_2 1_555 1_555
O13_9 Nd2_2 1_555 1_555
O5_8 Nd3_9 1_555 1_555
O6_9 Nd3_9 1_555 1_555
C12_6 N2_6 1_555 1_555
C14_8 N3_8 1_555 1_555
C15_8 N3_8 1_555 1_555
Nd3_9 O13_9 1_555 1_555
C15_8 H16_8 1_555 1_555
C9_8 H17_9 1_555 1_555
O9_7 Nd3 1_555 1_555
O10_7 Nd3 1_555 1_555
O1_4 C1_10 1_555 1_555
O2_4 C1_10 1_555 1_555
C1_10 C2_10 1_555 1_555
C2_10 C3_10 1_555 1_555
C11_8 H2_10 1_555 1_555
H3_8 C11_8 1_555 1_555
H4_8 C11_8 1_555 1_555
I1_10 C3_10 1_555 1_555
Nd3_5 O1_4 1_555 1_555
O2_4 Nd3_5 1_555 1_555
O1_5 C1_11 1_555 1_555
O2_5 C1_11 1_555 1_555
C1_11 C2_11 1_555 1_555
C2_11 C3_11 1_555 1_555
C11_9 H2_11 1_555 1_555
H3_9 C11_9 1_555 1_555
H4_9 C11_9 1_555 1_555
I1_11 C3_11 1_555 1_555
Nd3_6 O1_5 1_555 1_555
O2_5 Nd3_6 1_555 1_555
O9_8 Nd3_2 1_555 1_555
O10_8 Nd3_2 1_555 1_555
O1_6 C1_12 1_555 1_555
O2_6 C1_12 1_555 1_555
C1_12 C2_12 1_555 1_555
C2_12 C3_12 1_555 1_555
C10_9 O7_9 1_555 1_555
H1_12 C10_9 1_555 1_555
C11_10 H2_12 1_555 1_555
H3_10 C11_10 1_555 1_555
H4_10 C11_10 1_555 1_555
C12_7 H5_7 1_555 1_555
H6_7 C12_7 1_555 1_555
H7_7 C12_7 1_555 1_555
C13_7 H8_7 1_555 1_555
H9_7 C13_7 1_555 1_555
H10_7 C13_7 1_555 1_555
C14_9 H11_9 1_555 1_555
H12_6 C14_9 1_555 1_555
H13_9 C14_9 1_555 1_555
C15_9 O8_9 1_555 1_555
N2_7 C10_9 1_555 1_555
N3_9 C13_7 1_555 1_555
I1_12 C3_12 1_555 1_555
Nd3_4 O1_6 1_555 1_555
O2_6 Nd3_4 1_555 1_555
C11_10 N2_7 1_555 1_555
C12_7 N2_7 1_555 1_555
C14_9 N3_9 1_555 1_555
C15_9 N3_9 1_555 1_555
C15_9 H16_9 1_555 1_555
Nd3_3 O3_9 1_555 1_555
O3_9 C5_9 1_555 1_555
O11 C5_9 1_555 1_555
O12 C9_9 1_555 1_555
C4_9 C5_9 1_555 1_555
C6_9 C4_9 1_555 1_555
C7_9 C6_9 1_555 1_555
C9_9 O13_3 1_555 1_555
N1_9 C7_9 1_555 1_555
I2_9 C6_9 1_555 1_555
I3_9 C8_9 1_555 1_555
O9_9 Nd3_3 1_555 1_555
O10_9 Nd3_3 1_555 1_555
C7_9 C8_9 1_555 1_555
N1_9 H14_6 1_555 1_555
N1_9 H15_6 1_555 1_555
C9_9 H17_12 1_555 1_555
Nd3_7 O3_10 1_555 1_555
O9_8 C1_13 1_555 1_555
O10_8 C1_13 1_555 1_555
O3_10 C5_10 1_555 1_555
O11_5 C5_10 1_555 1_555
O12_5 C9_10 1_555 1_555
O7_10 Nd3_7 1_555 1_555
O8_10 Nd3_7 1_555 1_555
C1_13 C2_13 1_555 1_555
C2_13 C3_13 1_555 1_555
C3_13 C4_10 1_555 1_555
C4_10 C5_10 1_555 1_555
C6_10 C4_10 1_555 1_555
C7_10 C6_10 1_555 1_555
C8_10 C2_13 1_555 1_555
C9_10 O13_7 1_555 1_555
C10_10 O7_10 1_555 1_555
H1_13 C10_10 1_555 1_555
C14_10 H11_10 1_555 1_555
H13_10 C14_10 1_555 1_555
C15_10 O8_10 1_555 1_555
N1_10 C7_10 1_555 1_555
I1_13 C3_13 1_555 1_555
I2_10 C6_10 1_555 1_555
I3_10 C8_10 1_555 1_555
O9_10 Nd3_7 1_555 1_555
O10_10 Nd3_7 1_555 1_555
C7_10 C8_10 1_555 1_555
C14_10 N3_10 1_555 1_555
C15_10 N3_10 1_555 1_555
N1_10 H14_7 1_555 1_555
N1_10 H15_7 1_555 1_555
C15_10 H16_10 1_555 1_555
C9_10 H17_13 1_555 1_555
Nd3_8 O3_11 1_555 1_555
O9_9 C1_14 1_555 1_555
O10_9 C1_14 1_555 1_555
O3_11 C5_11 1_555 1_555
O11_6 C5_11 1_555 1_555
O12_6 C9_11 1_555 1_555
O7_11 Nd3_8 1_555 1_555
O8_11 Nd3_8 1_555 1_555
C1_14 C2_14 1_555 1_555
C2_14 C3_14 1_555 1_555
C3_14 C4_11 1_555 1_555
C4_11 C5_11 1_555 1_555
C6_11 C4_11 1_555 1_555
C7_11 C6_11 1_555 1_555
C8_11 C2_14 1_555 1_555
C9_11 O13_8 1_555 1_555
C10_11 O7_11 1_555 1_555
H1_14 C10_11 1_555 1_555
C11_11 H2_14 1_555 1_555
H3_11 C11_11 1_555 1_555
H4_11 C11_11 1_555 1_555
C12_8 H5_8 1_555 1_555
H6_8 C12_8 1_555 1_555
H7_8 C12_8 1_555 1_555
C13_8 H8_8 1_555 1_555
H9_8 C13_8 1_555 1_555
H10_8 C13_8 1_555 1_555
C14_11 H11_11 1_555 1_555
H13_11 C14_11 1_555 1_555
C15_11 O8_11 1_555 1_555
N1_11 C7_11 1_555 1_555
N2_8 C10_11 1_555 1_555
N3_11 C13_8 1_555 1_555
I1_14 C3_14 1_555 1_555
I2_11 C6_11 1_555 1_555
I3_11 C8_11 1_555 1_555
O9_11 Nd3_8 1_555 1_555
O10_11 Nd3_8 1_555 1_555
C7_11 C8_11 1_555 1_555
C11_11 N2_8 1_555 1_555
C12_8 N2_8 1_555 1_555
C14_11 N3_11 1_555 1_555
C15_11 N3_11 1_555 1_555
N1_11 H14_8 1_555 1_555
N1_11 H15_8 1_555 1_555
C15_11 H16_11 1_555 1_555
C9_11 H17_14 1_555 1_555
Nd3_9 O3_12 1_555 1_555
O9_7 C1_15 1_555 1_555
O10_7 C1_15 1_555 1_555
O3_12 C5_12 1_555 1_555
O11_7 C5_12 1_555 1_555
O12_7 C9_12 1_555 1_555
O7_12 Nd3_9 1_555 1_555
O8_12 Nd3_9 1_555 1_555
C1_15 C2_15 1_555 1_555
C2_15 C3_15 1_555 1_555
C3_15 C4_12 1_555 1_555
C4_12 C5_12 1_555 1_555
C6_12 C4_12 1_555 1_555
C7_12 C6_12 1_555 1_555
C8_12 C2_15 1_555 1_555
C9_12 O13_9 1_555 1_555
C10_12 O7_12 1_555 1_555
H1_15 C10_12 1_555 1_555
C14_12 H11_12 1_555 1_555
H13_12 C14_12 1_555 1_555
C15_12 O8_12 1_555 1_555
N1_12 C7_12 1_555 1_555
I1_15 C3_15 1_555 1_555
I2_12 C6_12 1_555 1_555
I3_12 C8_12 1_555 1_555
O9_12 Nd3_9 1_555 1_555
O10_12 Nd3_9 1_555 1_555
C7_12 C8_12 1_555 1_555
C14_12 N3_12 1_555 1_555
C15_12 N3_12 1_555 1_555
N1_12 H14_9 1_555 1_555
N1_12 H15_9 1_555 1_555
C15_12 H16_12 1_555 1_555
C9_12 H17_15 1_555 1_555
Nd3_4 O3_13 1_555 1_555
O9_11 C1_16 1_555 1_555
O10_11 C1_16 1_555 1_555
O3_13 C5_13 1_555 1_555
O11_2 C5_13 1_555 1_555
O12_2 C9_13 1_555 1_555
O7_13 Nd3_4 1_555 1_555
O8_13 Nd3_4 1_555 1_555
C1_16 C2_16 1_555 1_555
C2_16 C3_16 1_555 1_555
C3_16 C4_13 1_555 1_555
C4_13 C5_13 1_555 1_555
C6_13 C4_13 1_555 1_555
C7_13 C6_13 1_555 1_555
C8_13 C2_16 1_555 1_555
C9_13 O13_4 1_555 1_555
C10_13 O7_13 1_555 1_555
H1_16 C10_13 1_555 1_555
C11_12 H2_16 1_555 1_555
H3_12 C11_12 1_555 1_555
H4_12 C11_12 1_555 1_555
C12_9 H5_9 1_555 1_555
H6_9 C12_9 1_555 1_555
H7_9 C12_9 1_555 1_555
C13_9 H8_9 1_555 1_555
H9_9 C13_9 1_555 1_555
H10_9 C13_9 1_555 1_555
C14_13 H11_13 1_555 1_555
H12_7 C14_13 1_555 1_555
H13_13 C14_13 1_555 1_555
C15_13 O8_13 1_555 1_555
N1_13 C7_13 1_555 1_555
N2_9 C10_13 1_555 1_555
N3_13 C13_9 1_555 1_555
I1_16 C3_16 1_555 1_555
I2_13 C6_13 1_555 1_555
I3_13 C8_13 1_555 1_555
C7_13 C8_13 1_555 1_555
C11_12 N2_9 1_555 1_555
C12_9 N2_9 1_555 1_555
C14_13 N3_13 1_555 1_555
C15_13 N3_13 1_555 1_555
C15_13 H16_13 1_555 1_555
C9_13 H17_16 1_555 1_555
O9_12 C1_17 1_555 1_555
O10_12 C1_17 1_555 1_555
C1_17 C2_17 1_555 1_555
C8_14 C2_17 1_555 1_555
C11_13 H2_17 1_555 1_555
H3_13 C11_13 1_555 1_555
H4_13 C11_13 1_555 1_555
N1_14 C7_14 1_555 1_555
I3_14 C8_14 1_555 1_555
C7_14 C8_14 1_555 1_555
Nd3_5 O3_14 1_555 1_555
O3_14 C5_14 1_555 1_555
O11_3 C5_14 1_555 1_555
O12_3 C9_14 1_555 1_555
O7_14 Nd3_5 1_555 1_555
O8_14 Nd3_5 1_555 1_555
C3_17 C4_14 1_555 1_555
C4_14 C5_14 1_555 1_555
C6_14 C4_14 1_555 1_555
C9_14 O13_5 1_555 1_555
C10_14 O7_14 1_555 1_555
H1_17 C10_14 1_555 1_555
C12_10 H5_10 1_555 1_555
H6_10 C12_10 1_555 1_555
H7_10 C12_10 1_555 1_555
C13_10 H8_10 1_555 1_555
H9_10 C13_10 1_555 1_555
H10_10 C13_10 1_555 1_555
C14_14 H11_14 1_555 1_555
H12_8 C14_14 1_555 1_555
H13_14 C14_14 1_555 1_555
C15_14 O8_14 1_555 1_555
N2_10 C10_14 1_555 1_555
N3_14 C13_10 1_555 1_555
I1_17 C3_17 1_555 1_555
I2_14 C6_14 1_555 1_555
C12_10 N2_10 1_555 1_555
C14_14 N3_14 1_555 1_555
C15_14 N3_14 1_555 1_555
C15_14 H16_14 1_555 1_555
C9_14 H17_17 1_555 1_555
Nd3_6 O3_15 1_555 1_555
O3_15 C5_15 1_555 1_555
O11_4 C5_15 1_555 1_555
O12_4 C9_15 1_555 1_555
O7_15 Nd3_6 1_555 1_555
O8_15 Nd3_6 1_555 1_555
C3_18 C4_15 1_555 1_555
C4_15 C5_15 1_555 1_555
C6_15 C4_15 1_555 1_555
C9_15 O13_6 1_555 1_555
C10_15 O7_15 1_555 1_555
H1_18 C10_15 1_555 1_555
C12_11 H5_11 1_555 1_555
H6_11 C12_11 1_555 1_555
H7_11 C12_11 1_555 1_555
C13_11 H8_11 1_555 1_555
H9_11 C13_11 1_555 1_555
H10_11 C13_11 1_555 1_555
C14_15 H11_15 1_555 1_555
H12_9 C14_15 1_555 1_555
H13_15 C14_15 1_555 1_555
C15_15 O8_15 1_555 1_555
N2_11 C10_15 1_555 1_555
N3_15 C13_11 1_555 1_555
I1_18 C3_18 1_555 1_555
I2_15 C6_15 1_555 1_555
C12_11 N2_11 1_555 1_555
C14_15 N3_15 1_555 1_555
C15_15 N3_15 1_555 1_555
C15_15 H16_15 1_555 1_555
C9_15 H17_18 1_555 1_555
O9_10 C1_18 1_555 1_555
O10_10 C1_18 1_555 1_555
C1_18 C2_18 1_555 1_555
C8_15 C2_18 1_555 1_555
C11_14 H2_18 1_555 1_555
H3_14 C11_14 1_555 1_555
H4_14 C11_14 1_555 1_555
N1_15 C7_15 1_555 1_555
I3_15 C8_15 1_555 1_555
C7_15 C8_15 1_555 1_555
C10_16 O7_16 1_555 1_555
C12_12 H5_12 1_555 1_555
H6_12 C12_12 1_555 1_555
H7_12 C12_12 1_555 1_555
C13_12 H8_12 1_555 1_555
H9_12 C13_12 1_555 1_555
H10_12 C13_12 1_555 1_555
C14_16 H11_16 1_555 1_555
H12_10 C14_16 1_555 1_555
H13_16 C14_16 1_555 1_555
C15_16 O8_16 1_555 1_555
N2_12 C10_16 1_555 1_555
N3_16 C13_12 1_555 1_555
C12_12 N2_12 1_555 1_555
C14_16 N3_16 1_555 1_555
C15_16 N3_16 1_555 1_555
C15_16 H16_16 1_555 1_555
O3_16 C5_16 1_555 1_555
O11_8 C5_16 1_555 1_555
O12_8 C9_16 1_555 1_555
C4_16 C5_16 1_555 1_555
C6_16 C4_16 1_555 1_555
C7_16 C6_16 1_555 1_555
N1_16 C7_16 1_555 1_555
I2_16 C6_16 1_555 1_555
I3_16 C8_16 1_555 1_555
C7_16 C8_16 1_555 1_555
N1_16 H14_10 1_555 1_555
N1_16 H15_10 1_555 1_555
C10_17 O7_17 1_555 1_555
C12_13 H5_13 1_555 1_555
H6_13 C12_13 1_555 1_555
H7_13 C12_13 1_555 1_555
C13_13 H8_13 1_555 1_555
H9_13 C13_13 1_555 1_555
H10_13 C13_13 1_555 1_555
C14_17 H11_17 1_555 1_555
H12_11 C14_17 1_555 1_555
H13_17 C14_17 1_555 1_555
C15_17 O8_17 1_555 1_555
N2_13 C10_17 1_555 1_555
N3_17 C13_13 1_555 1_555
C12_13 N2_13 1_555 1_555
C14_17 N3_17 1_555 1_555
C15_17 N3_17 1_555 1_555
C15_17 H16_17 1_555 1_555
O3_17 C5_17 1_555 1_555
O11_9 C5_17 1_555 1_555
O12_9 C9_17 1_555 1_555
C4_17 C5_17 1_555 1_555
C6_17 C4_17 1_555 1_555
C7_17 C6_17 1_555 1_555
N1_17 C7_17 1_555 1_555
I2_17 C6_17 1_555 1_555
I3_17 C8_17 1_555 1_555
C7_17 C8_17 1_555 1_555
N1_17 H14_11 1_555 1_555
N1_17 H15_11 1_555 1_555
O3_18 C5_18 1_555 1_555
O4_9 C5_18 1_555 1_555
O5_9 C9_18 1_555 1_555
C4_18 C5_18 1_555 1_555
C6_18 C4_18 1_555 1_555
C7_18 C6_18 1_555 1_555
N1_18 C7_18 1_555 1_555
I2_18 C6_18 1_555 1_555
I3_18 C8_18 1_555 1_555
C7_18 C8_18 1_555 1_555
N1_18 H14_12 1_555 1_555
N1_18 H15_12 1_555 1_555
C10_18 O7_18 1_555 1_555
C12_14 H5_14 1_555 1_555
H6_14 C12_14 1_555 1_555
H7_14 C12_14 1_555 1_555
C13_14 H8_14 1_555 1_555
H9_14 C13_14 1_555 1_555
H10_14 C13_14 1_555 1_555
C14_18 H11_18 1_555 1_555
H12_12 C14_18 1_555 1_555
H13_18 C14_18 1_555 1_555
C15_18 O8_18 1_555 1_555
N2_14 C10_18 1_555 1_555
N3_18 C13_14 1_555 1_555
C12_14 N2_14 1_555 1_555
C14_18 N3_18 1_555 1_555
C15_18 N3_18 1_555 1_555
C15_18 H16_18 1_555 1_555
H3_15 C11_15 1_555 1_555
H4_15 C11_15 1_555 1_555
C12_15 H5_15 1_555 1_555
H6_15 C12_15 1_555 1_555
H7_15 C12_15 1_555 1_555
C13_15 H8_15 1_555 1_555
H9_15 C13_15 1_555 1_555
H10_15 C13_15 1_555 1_555
C11_15 N2_15 1_555 1_555
C12_15 N2_15 1_555 1_555
H3_16 C11_16 1_555 1_555
H4_16 C11_16 1_555 1_555
C12_16 H5_16 1_555 1_555
H6_16 C12_16 1_555 1_555
H7_16 C12_16 1_555 1_555
C13_16 H8_16 1_555 1_555
H9_16 C13_16 1_555 1_555
H10_16 C13_16 1_555 1_555
C11_16 N2_16 1_555 1_555
C12_16 N2_16 1_555 1_555
H3_17 C11_17 1_555 1_555
H4_17 C11_17 1_555 1_555
C12_17 H5_17 1_555 1_555
H6_17 C12_17 1_555 1_555
H7_17 C12_17 1_555 1_555
C13_17 H8_17 1_555 1_555
H9_17 C13_17 1_555 1_555
H10_17 C13_17 1_555 1_555
C11_17 N2_17 1_555 1_555
C12_17 N2_17 1_555 1_555
H3_18 C11_18 1_555 1_555
H4_18 C11_18 1_555 1_555
C12_18 H5_18 1_555 1_555
H6_18 C12_18 1_555 1_555
H7_18 C12_18 1_555 1_555
C13_18 H8_18 1_555 1_555
H9_18 C13_18 1_555 1_555
H10_18 C13_18 1_555 1_555
C11_18 N2_18 1_555 1_555
C12_18 N2_18 1_555 1_555

#END
