
###############################################################################
#
# This file contains modified crystal structure data generated from the
# MOF subset of the Cambridge Structural Database (CSD) v543 
# hosted by the Cambridge Crystallographic Data Centre (CCDC).
#
# This work is licensed under the Creative Commons
# Attribution-NonCommercial-ShareAlike 4.0 International License.
# To view a copy of this license, visit
# http://creativecommons.org/licenses/by-nc-sa/4.0/
# or send a letter to
# Creative Commons, PO Box 1866, Mountain View, CA 94042, USA.
#
# CIF created using the CSD Python API on 29 September 2022
# The structure has been converted into the P1 space group
# The structure has a 3D framework
# The original CSD entry CUVHIL01 is in the rhombohedral crystal system
# The framework has been calculated to contain at least 10.0% void space
# The void calculation uses a probe of radius 1.32A, grid spacing 0.4
# H atom positions have been added when not included in the experimental data
#
###############################################################################

data_CUVHIL01
_chemical_formula_moiety         '(C276 H306 I54 N54 Nd15 O142)n'
_symmetry_cell_setting           triclinic
_symmetry_space_group_name_H-M   'P 1'
_symmetry_Int_Tables_number      1
_space_group_name_Hall           'P 1'
loop_
_symmetry_equiv_pos_site_id
_symmetry_equiv_pos_as_xyz
1 x,y,z
_cell_length_a                   36.415(2)
_cell_length_b                   36.415(2)
_cell_length_c                   11.6634(13)
_cell_angle_alpha                90
_cell_angle_beta                 90
_cell_angle_gamma                120
_cell_volume                     13394.2
loop_
_atom_site_label
_atom_site_type_symbol
_atom_site_fract_x
_atom_site_fract_y
_atom_site_fract_z
Nd1 Nd 0.150037(13) 0.379752(14) 0.32555(4)
O1 O 0.22554(17) 0.41083(18) 0.3725(5)
O2 O 0.24219(17) 0.35876(19) 0.3616(6)
O3 O 0.4142(2) 0.5119(2) 0.1858(6)
O4 O 0.4049(2) 0.4483(2) 0.1921(5)
O5 O 0.17428(17) 0.34118(18) 0.2101(5)
O6 O 0.1901(3) 0.2982(2) 0.1224(6)
O7 O 0.1738(3) 0.4504(2) 0.4000(8)
O8 O 0.0861(2) 0.3817(2) 0.3930(6)
C1 C 0.2501(3) 0.3960(3) 0.3775(8)
C2 C 0.2969(2) 0.4266(3) 0.4026(7)
C3 C 0.3255(3) 0.4419(3) 0.3116(7)
C4 C 0.3689(3) 0.4647(3) 0.3334(8)
C5 C 0.3987(3) 0.4761(3) 0.2283(8)
C6 C 0.3831(2) 0.4725(3) 0.4437(8)
C7 C 0.3553(3) 0.4589(3) 0.5398(7)
C8 C 0.3122(2) 0.4360(3) 0.5123(7)
C9 C 0.1833(4) 0.3287(4) 0.1221(9)
C10 C 0.1976(10) 0.4688(8) 0.469(2)
C11 C 0.2456(6) 0.5381(7) 0.6263(17)
H1 H 0.2473 0.5652 0.6311
H2 H 0.2734 0.5421 0.6126
H3 H 0.2347 0.5230 0.6970
C12 C 0.1863(12) 0.5295(9) 0.456(3)
H4 H 0.1962 0.5572 0.4879
H5 H 0.1565 0.5120 0.4713
H6 H 0.1909 0.5318 0.3746
C13 C 0.0514(3) 0.3527(4) 0.4201(9)
C14 C 0.0204(4) 0.3974(4) 0.4307(13)
H8 H 0.0292 0.4085 0.3547
H9 H 0.0408 0.4165 0.4852
I1 I 0.30168(2) 0.43346(3) 0.14374(6)
I2 I 0.448635(19) 0.50550(3) 0.47491(6)
I3 I 0.26789(2) 0.41500(3) 0.64720(6)
N1 N 0.2116(9) 0.5087(7) 0.513(2)
N2 N 0.3700(2) 0.4671(3) 0.6490(7)
N3 N 0.0175(2) 0.3568(3) 0.4391(7)
H13 H 0.174(2) 0.336(2) 0.048(6)
Nd2 Nd 0.183296(13) 0.286915(14) 0.34112(4)
Nd3 Nd 0.436952(19) 0.483370(13) 0.00778(4)
O9 O 0.09114(17) 0.30791(19) 0.3051(6)
O10 O 0.1786(2) 0.4310(3) 0.1475(6)
O11 O 0.1150(2) 0.3767(3) 0.1412(5)
O12 O 0.15905(17) 0.32549(18) 0.4566(5)
O13 O 0.1432(3) 0.3685(2) 0.5443(6)
H14 H 0.0477416 0.321286 0.429493
H15 H 0.349312 0.456949 0.715663
H16 H 0.401693 0.48339 0.664092
H17 H 0.212165 0.452006 0.507935
Nd1_2 Nd 0.620248(14) 0.770285(19) 0.32555(4)
O1_2 O 0.58917(18) 0.81471(25) 0.3725(5)
O2_2 O 0.64124(19) 0.88343(25) 0.3616(6)
O3_2 O 0.4881(2) 0.9023(3) 0.1858(6)
O4_2 O 0.5517(2) 0.9566(3) 0.1921(5)
O5_2 O 0.65882(18) 0.83310(25) 0.2101(5)
O6_2 O 0.7018(2) 0.8919(4) 0.1224(6)
O7_2 O 0.5496(2) 0.7234(4) 0.4000(8)
O8_2 O 0.6183(2) 0.7044(3) 0.3930(6)
C1_2 C 0.6040(3) 0.8541(4) 0.3775(8)
C2_2 C 0.5734(3) 0.8703(4) 0.4026(7)
C3_2 C 0.5581(3) 0.8836(4) 0.3116(7)
C4_2 C 0.5353(3) 0.9042(4) 0.3334(8)
C5_2 C 0.5239(3) 0.9226(4) 0.2283(8)
C6_2 C 0.5275(3) 0.9106(4) 0.4437(8)
C7_2 C 0.5411(3) 0.8964(4) 0.5398(7)
C8_2 C 0.5640(3) 0.8762(4) 0.5123(7)
C9_2 C 0.6713(4) 0.8546(6) 0.1221(9)
C10_2 C 0.5312(8) 0.7288(13) 0.469(2)
C11_2 C 0.4619(7) 0.7075(9) 0.6263(17)
H1_2 H 0.4348 0.6821 0.6311
H2_2 H 0.4579 0.7313 0.6126
H3_2 H 0.4770 0.7117 0.6970
C12_2 C 0.4705(9) 0.6568(15) 0.456(3)
H4_2 H 0.4428 0.6390 0.4879
H5_2 H 0.4880 0.6445 0.4713
H6_2 H 0.4682 0.6591 0.3746
C13_2 C 0.6473(4) 0.6987(5) 0.4201(9)
C14_2 C 0.6026(4) 0.6230(6) 0.4307(13)
H7 H 0.6055 0.5987 0.4467
H8_2 H 0.5915 0.6207 0.3547
H9_2 H 0.5835 0.6243 0.4852
C15 C 0.6792(4) 0.6560(6) 0.4622(14)
H10 H 0.6700 0.6265 0.4734
H11 H 0.6932 0.6715 0.5302
H12 H 0.6984 0.6666 0.3986
I1_2 I 0.56654(3) 0.86822(4) 0.14374(6)
I2_2 I 0.49450(3) 0.943135(36) 0.47491(6)
I3_2 I 0.58500(3) 0.85289(4) 0.64720(6)
N1_2 N 0.4913(7) 0.7029(11) 0.513(2)
N2_2 N 0.5329(3) 0.9029(4) 0.6490(7)
N3_2 N 0.6432(3) 0.6607(4) 0.4391(7)
H13_2 H 0.664(2) 0.838(3) 0.048(6)
Nd2_2 Nd 0.713085(14) 0.896382(19) 0.34112(4)
Nd3_2 Nd 0.516630(13) 0.953581(23) 0.00778(4)
O9_2 O 0.69209(19) 0.78324(25) 0.3051(6)
O10_2 O 0.5690(3) 0.7475(4) 0.1475(6)
O11_2 O 0.6233(3) 0.7382(4) 0.1412(5)
O12_2 O 0.67451(18) 0.83357(25) 0.4566(5)
O13_2 O 0.6315(2) 0.7748(4) 0.5443(6)
H14_2 H 0.678714 0.726455 0.429493
H15_2 H 0.543051 0.892363 0.715663
H16_2 H 0.51661 0.918303 0.664092
H17_2 H 0.547994 0.76016 0.507935
Nd1_3 Nd 0.229715(19) 0.849963(13) 0.32555(4)
O1_3 O 0.18529(25) 0.77446(17) 0.3725(5)
O2_3 O 0.11657(25) 0.75781(17) 0.3616(6)
O3_3 O 0.0977(3) 0.5858(2) 0.1858(6)
O4_3 O 0.0434(3) 0.5951(2) 0.1921(5)
O5_3 O 0.16690(25) 0.82572(17) 0.2101(5)
O6_3 O 0.1081(4) 0.8099(3) 0.1224(6)
O7_3 O 0.2766(4) 0.8262(3) 0.4000(8)
O8_3 O 0.2956(3) 0.9139(2) 0.3930(6)
C1_3 C 0.1459(4) 0.7499(3) 0.3775(8)
C2_3 C 0.1297(4) 0.7031(2) 0.4026(7)
C3_3 C 0.1164(4) 0.6745(3) 0.3116(7)
C4_3 C 0.0958(4) 0.6311(3) 0.3334(8)
C5_3 C 0.0774(4) 0.6013(3) 0.2283(8)
C6_3 C 0.0894(4) 0.6169(2) 0.4437(8)
C7_3 C 0.1036(4) 0.6447(3) 0.5398(7)
C8_3 C 0.1238(4) 0.6878(2) 0.5123(7)
C9_3 C 0.1454(6) 0.8167(4) 0.1221(9)
C10_3 C 0.2712(13) 0.8024(10) 0.469(2)
C11_3 C 0.2925(9) 0.7544(6) 0.6263(17)
H1_3 H 0.3179 0.7527 0.6311
H2_3 H 0.2687 0.7266 0.6126
H3_3 H 0.2883 0.7653 0.6970
C12_3 C 0.3432(15) 0.8137(12) 0.456(3)
H4_3 H 0.3610 0.8038 0.4879
H5_3 H 0.3555 0.8435 0.4713
H6_3 H 0.3409 0.8091 0.3746
C13_3 C 0.3013(5) 0.9486(3) 0.4201(9)
C14_3 C 0.3770(6) 0.9796(4) 0.4307(13)
H8_3 H 0.3793 0.9708 0.3547
H9_3 H 0.3757 0.9592 0.4852
I1_3 I 0.13178(4) 0.69832(2) 0.14374(6)
I2_3 I 0.056865(36) 0.551365(19) 0.47491(6)
I3_3 I 0.14711(4) 0.73211(2) 0.64720(6)
N1_3 N 0.2971(11) 0.7884(9) 0.513(2)
N2_3 N 0.0971(4) 0.6300(2) 0.6490(7)
N3_3 N 0.3393(4) 0.9825(2) 0.4391(7)
H13_3 H 0.162(3) 0.826(2) 0.048(6)
Nd2_3 Nd 0.103618(19) 0.816704(13) 0.34112(4)
Nd3_3 Nd 0.046419(23) 0.563048(19) 0.00778(4)
O9_3 O 0.21676(25) 0.90886(17) 0.3051(6)
O10_3 O 0.2525(4) 0.8214(2) 0.1475(6)
O11_3 O 0.2618(4) 0.8850(2) 0.1412(5)
O12_3 O 0.16643(25) 0.84095(17) 0.4566(5)
O13_3 O 0.2252(4) 0.8568(3) 0.5443(6)
H14_3 H 0.273545 0.952258 0.429493
H15_3 H 0.107637 0.650688 0.715663
H16_3 H 0.0816971 0.598307 0.664092
H17_3 H 0.23984 0.787835 0.507935
O3_4 O 0.0809(2) 0.8452(2) 0.5191(6)
O4_4 O 0.0716(2) 0.7816(2) 0.5254(5)
C4_4 C 0.0356(3) 0.7980(3) 0.6667(8)
C5_4 C 0.0654(3) 0.8094(3) 0.5616(8)
C6_4 C 0.0498(2) 0.8058(3) 0.7770(8)
C7_4 C 0.0220(3) 0.7922(3) 0.8731(7)
I2_4 I 0.115302(19) 0.83883(3) 0.80824(6)
N2_4 N 0.0367(2) 0.8004(3) 0.9823(7)
H16_4 H 0.06836 0.816724 0.997425
Nd1_4 Nd 0.816704(13) 0.713085(14) 0.65888(4)
O1_4 O 0.89221(17) 0.74416(18) 0.7058(5)
O2_4 O 0.90886(17) 0.69209(19) 0.6949(6)
O5_4 O 0.84095(17) 0.67451(18) 0.5434(5)
O6_4 O 0.8568(3) 0.6315(2) 0.4557(6)
O7_4 O 0.8405(3) 0.7837(2) 0.7333(8)
O8_4 O 0.7528(2) 0.7150(2) 0.7263(6)
C1_4 C 0.9168(3) 0.7293(3) 0.7108(8)
C2_4 C 0.9636(2) 0.7599(3) 0.7359(7)
C3_4 C 0.9922(3) 0.7752(3) 0.6449(7)
C8_4 C 0.9789(2) 0.7693(3) 0.8456(7)
C9_4 C 0.8500(4) 0.6620(4) 0.4554(9)
C10_4 C 0.8643(10) 0.8021(8) 0.802(2)
C11_4 C 0.9123(6) 0.8714(7) 0.9596(17)
H1_4 H 0.9140 0.8985 0.9644
H2_4 H 0.9401 0.8754 0.9459
C12_4 C 0.8530(12) 0.8628(9) 0.789(3)
H4_4 H 0.8629 0.8905 0.8212
H5_4 H 0.8232 0.8453 0.8046
H6_4 H 0.8576 0.8651 0.7079
C13_4 C 0.7181(3) 0.6860(4) 0.7534(9)
C14_4 C 0.6871(4) 0.7307(4) 0.7640(13)
H7_2 H 0.6599 0.7278 0.7800
H8_4 H 0.6959 0.7418 0.6880
H9_4 H 0.7075 0.7498 0.8185
C15_2 C 0.6435(4) 0.6541(4) 0.7955(14)
H10_2 H 0.6232 0.6633 0.8067
H11_2 H 0.6450 0.6401 0.8635
H12_2 H 0.6349 0.6349 0.7319
I1_4 I 0.96835(2) 0.76679(3) 0.47707(6)
I3_4 I 0.93456(2) 0.74833(3) 0.98053(6)
N1_4 N 0.8783(9) 0.8420(7) 0.846(2)
N3_4 N 0.6842(2) 0.6901(3) 0.7724(7)
H13_4 H 0.841(2) 0.669(2) 0.381(6)
Nd2_4 Nd 0.849963(13) 0.620248(14) 0.67445(4)
O9_4 O 0.75781(17) 0.64124(19) 0.6384(6)
O10_4 O 0.8452(2) 0.7644(3) 0.4809(6)
O11_4 O 0.7816(2) 0.7101(3) 0.4746(5)
O12_4 O 0.82572(17) 0.65882(18) 0.7899(5)
O13_4 O 0.8099(3) 0.7018(2) 0.8776(6)
H14_4 H 0.714408 0.65462 0.762826
H17_4 H 0.878832 0.785339 0.841269
Nd1_5 Nd 0.286915(14) 0.103618(19) 0.65888(4)
O1_5 O 0.25584(18) 0.14804(25) 0.7058(5)
O2_5 O 0.30791(19) 0.21676(25) 0.6949(6)
O3_5 O 0.1548(2) 0.2356(3) 0.5191(6)
O4_5 O 0.2184(2) 0.2899(3) 0.5254(5)
O5_5 O 0.32549(18) 0.16643(25) 0.5434(5)
O6_5 O 0.3685(2) 0.2252(4) 0.4557(6)
O7_5 O 0.2163(2) 0.0567(4) 0.7333(8)
O8_5 O 0.2850(2) 0.0377(3) 0.7263(6)
C1_5 C 0.2707(3) 0.1874(4) 0.7108(8)
C2_5 C 0.2401(3) 0.2036(4) 0.7359(7)
C3_5 C 0.2248(3) 0.2169(4) 0.6449(7)
C4_5 C 0.2020(3) 0.2375(4) 0.6667(8)
C5_5 C 0.1906(3) 0.2559(4) 0.5616(8)
C6_5 C 0.1942(3) 0.2439(4) 0.7770(8)
C7_5 C 0.2078(3) 0.2297(4) 0.8731(7)
C8_5 C 0.2307(3) 0.2095(4) 0.8456(7)
C9_5 C 0.3380(4) 0.1879(6) 0.4554(9)
C10_5 C 0.1979(8) 0.0621(13) 0.802(2)
C11_5 C 0.1286(7) 0.0408(9) 0.9596(17)
H1_5 H 0.1015 0.0154 0.9644
H2_5 H 0.1246 0.0646 0.9459
C13_5 C 0.3140(4) 0.0320(5) 0.7534(9)
H11_3 H 0.3599 0.0048 0.8635
I1_5 I 0.23321(3) 0.20155(4) 0.47707(6)
I2_5 I 0.16117(3) 0.276468(36) 0.80824(6)
I3_5 I 0.25167(3) 0.18622(4) 0.98053(6)
N1_5 N 0.1580(7) 0.0362(11) 0.846(2)
N2_5 N 0.1996(3) 0.2362(4) 0.9823(7)
H13_5 H 0.331(2) 0.171(3) 0.381(6)
Nd2_5 Nd 0.379752(14) 0.229715(19) 0.67445(4)
O9_5 O 0.35876(19) 0.11657(25) 0.6384(6)
O10_5 O 0.2356(3) 0.0809(4) 0.4809(6)
O11_5 O 0.2899(3) 0.0716(4) 0.4746(5)
O12_5 O 0.34118(18) 0.16690(25) 0.7899(5)
O13_5 O 0.2982(2) 0.1081(4) 0.8776(6)
H14_5 H 0.34538 0.0597885 0.762826
H16_5 H 0.183276 0.251636 0.997425
H17_5 H 0.214661 0.0934929 0.841269
Nd1_6 Nd 0.896382(19) 0.183296(13) 0.65888(4)
O1_6 O 0.85196(25) 0.10779(17) 0.7058(5)
O2_6 O 0.78324(25) 0.09114(17) 0.6949(6)
O5_6 O 0.83357(25) 0.15905(17) 0.5434(5)
O6_6 O 0.7748(4) 0.1432(3) 0.4557(6)
O7_6 O 0.9433(4) 0.1595(3) 0.7333(8)
O8_6 O 0.9623(3) 0.2472(2) 0.7263(6)
C1_6 C 0.8126(4) 0.0832(3) 0.7108(8)
C2_6 C 0.7964(4) 0.0364(2) 0.7359(7)
C3_6 C 0.7831(4) 0.0078(3) 0.6449(7)
C8_6 C 0.7905(4) 0.0211(2) 0.8456(7)
C9_6 C 0.8121(6) 0.1500(4) 0.4554(9)
C10_6 C 0.9379(13) 0.1357(10) 0.802(2)
C11_6 C 0.9592(9) 0.0877(6) 0.9596(17)
H1_6 H 0.9846 0.0860 0.9644
H2_6 H 0.9354 0.0599 0.9459
C13_6 C 0.9680(5) 0.2819(3) 0.7534(9)
H11_4 H 0.9952 0.3550 0.8635
I1_6 I 0.79845(4) 0.03165(2) 0.47707(6)
I3_6 I 0.81378(4) 0.06544(2) 0.98053(6)
N1_6 N 0.9638(11) 0.1217(9) 0.846(2)
H13_6 H 0.829(3) 0.159(2) 0.381(6)
Nd2_6 Nd 0.770285(19) 0.150037(13) 0.67445(4)
O9_6 O 0.88343(25) 0.24219(17) 0.6384(6)
O10_6 O 0.9191(4) 0.1548(2) 0.4809(6)
O11_6 O 0.9284(4) 0.2184(2) 0.4746(5)
O12_6 O 0.83310(25) 0.17428(17) 0.7899(5)
O13_6 O 0.8919(4) 0.1901(3) 0.8776(6)
H14_6 H 0.940211 0.285592 0.762826
H17_6 H 0.906507 0.121168 0.841269
O3_6 O 0.7644(3) 0.9191(2) 0.5191(6)
O4_6 O 0.7101(3) 0.9284(2) 0.5254(5)
C4_6 C 0.7625(4) 0.9644(3) 0.6667(8)
C5_6 C 0.7441(4) 0.9346(3) 0.5616(8)
C6_6 C 0.7561(4) 0.9502(2) 0.7770(8)
C7_6 C 0.7703(4) 0.9780(3) 0.8731(7)
I2_6 I 0.723532(36) 0.884698(19) 0.80824(6)
N2_6 N 0.7638(4) 0.9633(2) 0.9823(7)
H16_6 H 0.748364 0.93164 0.997425
Nd1_7 Nd 0.483370(13) 0.046419(14) 0.99222(4)
O3_7 O 0.7475(2) 0.1786(2) 0.8525(6)
O4_7 O 0.7382(2) 0.1150(2) 0.8588(5)
O5_7 O 0.50761(17) 0.00785(18) 0.8768(5)
C3_7 C 0.6588(3) 0.1086(3) 0.9783(7)
C4_7 C 0.7022(3) 0.1314(3) 1.0001(8)
C5_7 C 0.7320(3) 0.1428(3) 0.8950(8)
I1_7 I 0.63501(2) 0.10013(3) 0.81041(6)
H13_7 H 0.507(2) 0.003(2) 0.715(6)
O10_7 O 0.5119(2) 0.0977(3) 0.8142(6)
O11_7 O 0.4483(2) 0.0434(3) 0.8079(5)
C15_3 C 0.3101(4) 0.9875(4) 0.1289(14)
H10_3 H 0.2898 0.9967 0.1401
H11_5 H 0.3116 0.9735 0.1969
H12_3 H 0.3015 0.9683 0.0653
O12_7 O 0.49239(17) 0.99215(18) 0.1232(5)
H14_7 H 0.381075 0.987953 0.0961597
C15_4 C 0.0125(4) 0.3227(6) 0.1289(14)
H10_4 H 0.0033 0.2932 0.1401
H11_6 H 0.0265 0.3382 0.1969
H12_4 H 0.0317 0.3333 0.0653
O12_8 O 0.00785(18) 0.50023(25) 0.1232(5)
H14_8 H 0.0120469 0.393122 0.0961597
Nd1_8 Nd 0.953581(14) 0.436952(19) 0.99222(4)
O3_8 O 0.8214(2) 0.5690(3) 0.8525(6)
O4_8 O 0.8850(2) 0.6233(3) 0.8588(5)
O5_8 O 0.99215(18) 0.49977(25) 0.8768(5)
C3_8 C 0.8914(3) 0.5503(4) 0.9783(7)
C4_8 C 0.8686(3) 0.5709(4) 1.0001(8)
C5_8 C 0.8572(3) 0.5893(4) 0.8950(8)
I1_8 I 0.89987(3) 0.53489(4) 0.81041(6)
H13_8 H 0.997(2) 0.505(3) 0.715(6)
O10_8 O 0.9023(3) 0.4142(4) 0.8142(6)
O11_8 O 0.9566(3) 0.4049(4) 0.8079(5)
O1_7 O 0.51862(25) 0.44113(17) 0.0392(5)
O2_7 O 0.44990(25) 0.42448(17) 0.0283(6)
O7_7 O 0.6099(4) 0.4929(3) 0.0667(8)
O8_7 O 0.6289(3) 0.5806(2) 0.0597(6)
C1_7 C 0.4792(4) 0.4166(3) 0.0442(8)
C2_7 C 0.4630(4) 0.3698(2) 0.0693(7)
C4_9 C 0.4291(4) 0.2978(3) 0.0001(8)
C6_7 C 0.4227(4) 0.2836(2) 0.1104(8)
C7_7 C 0.4369(4) 0.3114(3) 0.2065(7)
C8_7 C 0.4571(4) 0.3545(2) 0.1790(7)
C10_7 C 0.6045(13) 0.4691(10) 0.136(2)
C11_7 C 0.6258(9) 0.4211(6) 0.2930(17)
H1_7 H 0.6512 0.4194 0.2978
H2_7 H 0.6020 0.3933 0.2793
H3_4 H 0.6216 0.4320 0.3637
C12_5 C 0.6765(15) 0.4804(12) 0.123(3)
H4_5 H 0.6943 0.4705 0.1546
H5_5 H 0.6888 0.5102 0.1380
H6_5 H 0.6742 0.4758 0.0413
C13_7 C 0.6346(5) 0.6153(3) 0.0868(9)
C14_5 C 0.7103(6) 0.6463(4) 0.0974(13)
H7_3 H 0.7346 0.6735 0.1134
H8_5 H 0.7126 0.6375 0.0214
H9_5 H 0.7090 0.6259 0.1519
C15_5 C 0.6773(6) 0.6899(4) 0.1289(14)
H10_5 H 0.7068 0.7102 0.1401
H11_7 H 0.6618 0.6884 0.1969
H12_5 H 0.6667 0.6985 0.0653
I2_7 I 0.390198(36) 0.218032(19) 0.14158(6)
I3_7 I 0.48044(4) 0.39878(2) 0.31387(6)
N1_7 N 0.6304(11) 0.4551(9) 0.180(2)
N2_7 N 0.4304(4) 0.2967(2) 0.3157(7)
N3_5 N 0.6726(4) 0.6492(2) 0.1058(7)
O12_9 O 0.49977(25) 0.50761(17) 0.1232(5)
O13_7 O 0.5586(4) 0.5234(3) 0.2109(6)
H14_9 H 0.606878 0.618925 0.0961597
H15_4 H 0.44097 0.317355 0.382329
H16_7 H 0.41503 0.264973 0.330759
H17_7 H 0.573174 0.454501 0.174602
Nd1_9 Nd 0.563048(19) 0.516630(13) 0.99222(4)
O3_9 O 0.4310(3) 0.2525(2) 0.8525(6)
O4_9 O 0.3767(3) 0.2618(2) 0.8588(5)
O5_9 O 0.50023(25) 0.49239(17) 0.8768(5)
O6_7 O 0.4414(4) 0.4766(3) 0.7891(6)
C3_9 C 0.4497(4) 0.3412(3) 0.9783(7)
C4_10 C 0.4291(4) 0.2978(3) 1.0001(8)
C5_9 C 0.4107(4) 0.2680(3) 0.8950(8)
C9_7 C 0.4787(6) 0.4834(4) 0.7888(9)
I1_9 I 0.46511(4) 0.36499(2) 0.81041(6)
H13_9 H 0.495(3) 0.493(2) 0.715(6)
O9_7 O 0.55010(25) 0.57552(17) 0.9717(6)
O10_9 O 0.5858(4) 0.4881(2) 0.8142(6)
O11_9 O 0.5951(4) 0.5517(2) 0.8079(5)
O1_8 O 0.77446(17) 0.58917(18) 0.6275(5)
O7_8 O 0.8262(3) 0.5496(2) 0.6000(8)
O8_8 O 0.9139(2) 0.6183(2) 0.6070(6)
C1_8 C 0.7499(3) 0.6040(3) 0.6225(8)
C2_8 C 0.7031(2) 0.5734(3) 0.5974(7)
C3_10 C 0.6745(3) 0.5581(3) 0.6884(7)
C4_11 C 0.6311(3) 0.5353(3) 0.6666(8)
C5_10 C 0.6013(3) 0.5239(3) 0.7717(8)
C6_8 C 0.6169(2) 0.5275(3) 0.5563(8)
C7_8 C 0.6447(3) 0.5411(3) 0.4602(7)
C8_8 C 0.6878(2) 0.5640(3) 0.4877(7)
C9_8 C 0.8167(4) 0.6713(4) 0.8779(9)
C10_8 C 0.8024(10) 0.5312(8) 0.531(2)
C11_8 C 0.7544(6) 0.4619(7) 0.3737(17)
H1_8 H 0.7527 0.4348 0.3689
H2_8 H 0.7266 0.4579 0.3874
H3_5 H 0.7653 0.4770 0.3030
C12_6 C 0.8137(12) 0.4705(9) 0.544(3)
H4_6 H 0.8038 0.4428 0.5121
H5_6 H 0.8435 0.4880 0.5287
H6_6 H 0.8091 0.4682 0.6254
C13_8 C 0.9486(3) 0.6473(4) 0.5799(9)
C14_6 C 0.9796(4) 0.6026(4) 0.5693(13)
H8_6 H 0.9708 0.5915 0.6453
H9_6 H 0.9592 0.5835 0.5148
I1_10 I 0.69832(2) 0.56654(3) 0.85626(6)
I2_8 I 0.551365(19) 0.49450(3) 0.52509(6)
I3_8 I 0.73211(2) 0.58500(3) 0.35280(6)
N1_8 N 0.7884(9) 0.4913(7) 0.487(2)
N2_8 N 0.6300(2) 0.5329(3) 0.3510(7)
N3_6 N 0.9825(2) 0.6432(3) 0.5609(7)
H13_10 H 0.826(2) 0.664(2) 0.952(6)
H14_10 H 0.952258 0.678714 0.570507
H15_5 H 0.650688 0.543051 0.284337
H16_8 H 0.598307 0.51661 0.335908
H17_8 H 0.787835 0.547994 0.492065
O1_9 O 0.41083(18) 0.18529(25) 0.6275(5)
O7_9 O 0.4504(2) 0.2766(4) 0.6000(8)
O8_9 O 0.3817(2) 0.2956(3) 0.6070(6)
C1_9 C 0.3960(3) 0.1459(4) 0.6225(8)
C2_9 C 0.4266(3) 0.1297(4) 0.5974(7)
C3_11 C 0.4419(3) 0.1164(4) 0.6884(7)
C4_12 C 0.4647(3) 0.0958(4) 0.6666(8)
C5_11 C 0.4761(3) 0.0774(4) 0.7717(8)
C6_9 C 0.4725(3) 0.0894(4) 0.5563(8)
C7_9 C 0.4589(3) 0.1036(4) 0.4602(7)
C8_9 C 0.4360(3) 0.1238(4) 0.4877(7)
C9_9 C 0.3287(4) 0.1454(6) 0.8779(9)
C10_9 C 0.4688(8) 0.2712(13) 0.531(2)
C11_9 C 0.5381(7) 0.2925(9) 0.3737(17)
H1_9 H 0.5652 0.3179 0.3689
H2_9 H 0.5421 0.2687 0.3874
H3_6 H 0.5230 0.2883 0.3030
C12_7 C 0.5295(9) 0.3432(15) 0.544(3)
H4_7 H 0.5572 0.3610 0.5121
H5_7 H 0.5120 0.3555 0.5287
H6_7 H 0.5318 0.3409 0.6254
C13_9 C 0.3527(4) 0.3013(5) 0.5799(9)
C14_7 C 0.3974(4) 0.3770(6) 0.5693(13)
H7_4 H 0.3945 0.4013 0.5533
H8_7 H 0.4085 0.3793 0.6453
H9_7 H 0.4165 0.3757 0.5148
C15_6 C 0.3208(4) 0.3440(6) 0.5378(14)
H10_6 H 0.3300 0.3735 0.5266
H11_8 H 0.3068 0.3285 0.4698
H12_6 H 0.3016 0.3334 0.6014
I1_11 I 0.43346(3) 0.13178(4) 0.85626(6)
I2_9 I 0.50550(3) 0.056865(36) 0.52509(6)
I3_9 I 0.41500(3) 0.14711(4) 0.35280(6)
N1_9 N 0.5087(7) 0.2971(11) 0.487(2)
N2_9 N 0.4671(3) 0.0971(4) 0.3510(7)
N3_7 N 0.3568(3) 0.3393(4) 0.5609(7)
H13_11 H 0.336(2) 0.162(3) 0.952(6)
H14_11 H 0.321286 0.273545 0.570507
H15_6 H 0.456949 0.107637 0.284337
H16_9 H 0.48339 0.0816971 0.335908
H17_9 H 0.452006 0.23984 0.492065
O1_10 O 0.81471(25) 0.22554(17) 0.6275(5)
O7_10 O 0.7234(4) 0.1738(3) 0.6000(8)
O8_10 O 0.7044(3) 0.0861(2) 0.6070(6)
C1_10 C 0.8541(4) 0.2501(3) 0.6225(8)
C2_10 C 0.8703(4) 0.2969(2) 0.5974(7)
C3_12 C 0.8836(4) 0.3255(3) 0.6884(7)
C4_13 C 0.9042(4) 0.3689(3) 0.6666(8)
C5_12 C 0.9226(4) 0.3987(3) 0.7717(8)
C6_10 C 0.9106(4) 0.3831(2) 0.5563(8)
C7_10 C 0.8964(4) 0.3553(3) 0.4602(7)
C8_10 C 0.8762(4) 0.3122(2) 0.4877(7)
C9_10 C 0.8546(6) 0.1833(4) 0.8779(9)
C10_10 C 0.7288(13) 0.1976(10) 0.531(2)
C11_10 C 0.7075(9) 0.2456(6) 0.3737(17)
H1_10 H 0.6821 0.2473 0.3689
H2_10 H 0.7313 0.2734 0.3874
H3_7 H 0.7117 0.2347 0.3030
C12_8 C 0.6568(15) 0.1863(12) 0.544(3)
H4_8 H 0.6390 0.1962 0.5121
H5_8 H 0.6445 0.1565 0.5287
H6_8 H 0.6591 0.1909 0.6254
C13_10 C 0.6987(5) 0.0514(3) 0.5799(9)
C14_8 C 0.6230(6) 0.0204(4) 0.5693(13)
H8_8 H 0.6207 0.0292 0.6453
H9_8 H 0.6243 0.0408 0.5148
I1_12 I 0.86822(4) 0.30168(2) 0.85626(6)
I2_10 I 0.943135(36) 0.448635(19) 0.52509(6)
I3_10 I 0.85289(4) 0.26789(2) 0.35280(6)
N1_10 N 0.7029(11) 0.2116(9) 0.487(2)
N2_10 N 0.9029(4) 0.3700(2) 0.3510(7)
N3_8 N 0.6607(4) 0.0175(2) 0.5609(7)
H13_12 H 0.838(3) 0.174(2) 0.952(6)
H14_12 H 0.726455 0.0477416 0.570507
H15_7 H 0.892363 0.349312 0.284337
H16_10 H 0.918303 0.401693 0.335908
H17_10 H 0.76016 0.212165 0.492065
O1_11 O 0.10779(17) 0.25584(18) 0.2942(5)
O7_11 O 0.1595(3) 0.2163(2) 0.2667(8)
O8_11 O 0.2472(2) 0.2850(2) 0.2737(6)
C1_11 C 0.0832(3) 0.2707(3) 0.2892(8)
C2_11 C 0.0364(2) 0.2401(3) 0.2641(7)
C3_13 C 0.0078(3) 0.2248(3) 0.3551(7)
C8_11 C 0.0211(2) 0.2307(3) 0.1544(7)
C9_11 C 0.1500(4) 0.3380(4) 0.5446(9)
C10_11 C 0.1357(10) 0.1979(8) 0.198(2)
C11_11 C 0.0877(6) 0.1286(7) 0.0404(17)
H1_11 H 0.0860 0.1015 0.0356
H2_11 H 0.0599 0.1246 0.0541
C12_9 C 0.1470(12) 0.1372(9) 0.211(3)
H4_9 H 0.1371 0.1095 0.1788
H5_9 H 0.1768 0.1547 0.1954
H6_9 H 0.1424 0.1349 0.2921
C13_11 C 0.2819(3) 0.3140(4) 0.2466(9)
C14_9 C 0.3129(4) 0.2693(4) 0.2360(13)
H7_5 H 0.3401 0.2722 0.2200
H8_9 H 0.3041 0.2582 0.3120
H9_9 H 0.2925 0.2502 0.1815
C15_7 C 0.3565(4) 0.3459(4) 0.2045(14)
H10_7 H 0.3768 0.3367 0.1933
H11_9 H 0.3550 0.3599 0.1365
H12_7 H 0.3651 0.3651 0.2681
I1_13 I 0.03165(2) 0.23321(3) 0.52293(6)
I3_11 I 0.06544(2) 0.25167(3) 0.01947(6)
N1_11 N 0.1217(9) 0.1580(7) 0.154(2)
N3_9 N 0.3158(2) 0.3099(3) 0.2276(7)
H13_13 H 0.159(2) 0.331(2) 0.619(6)
H14_13 H 0.285592 0.34538 0.237174
H17_11 H 0.121168 0.214661 0.158731
C4_14 C 0.9644(3) 0.2020(3) 0.3333(8)
C5_13 C 0.9346(3) 0.1906(3) 0.4384(8)
C6_11 C 0.9502(2) 0.1942(3) 0.2230(8)
C7_11 C 0.9780(3) 0.2078(3) 0.1269(7)
I2_11 I 0.884698(19) 0.16117(3) 0.19176(6)
N2_11 N 0.9633(2) 0.1996(3) 0.0177(7)
H16_11 H 0.93164 0.183276 0.00257469
O1_12 O 0.74416(18) 0.85196(25) 0.2942(5)
O7_12 O 0.7837(2) 0.9433(4) 0.2667(8)
O8_12 O 0.7150(2) 0.9623(3) 0.2737(6)
C1_12 C 0.7293(3) 0.8126(4) 0.2892(8)
C2_12 C 0.7599(3) 0.7964(4) 0.2641(7)
C3_14 C 0.7752(3) 0.7831(4) 0.3551(7)
C4_15 C 0.7980(3) 0.7625(4) 0.3333(8)
C5_14 C 0.8094(3) 0.7441(4) 0.4384(8)
C6_12 C 0.8058(3) 0.7561(4) 0.2230(8)
C7_12 C 0.7922(3) 0.7703(4) 0.1269(7)
C8_12 C 0.7693(3) 0.7905(4) 0.1544(7)
C9_12 C 0.6620(4) 0.8121(6) 0.5446(9)
C10_12 C 0.8021(8) 0.9379(13) 0.198(2)
C11_12 C 0.8714(7) 0.9592(9) 0.0404(17)
H1_12 H 0.8985 0.9846 0.0356
H2_12 H 0.8754 0.9354 0.0541
C13_12 C 0.6860(4) 0.9680(5) 0.2466(9)
H11_10 H 0.6401 0.9952 0.1365
I1_14 I 0.76679(3) 0.79845(4) 0.52293(6)
I2_12 I 0.83883(3) 0.723532(36) 0.19176(6)
I3_12 I 0.74833(3) 0.81378(4) 0.01947(6)
N1_12 N 0.8420(7) 0.9638(11) 0.154(2)
N2_12 N 0.8004(3) 0.7638(4) 0.0177(7)
H13_14 H 0.669(2) 0.829(3) 0.619(6)
H14_14 H 0.65462 0.940211 0.237174
H16_12 H 0.816724 0.748364 0.00257469
H17_12 H 0.785339 0.906507 0.158731
C4_16 C 0.2375(4) 0.0356(3) 0.3333(8)
C5_15 C 0.2559(4) 0.0654(3) 0.4384(8)
C6_13 C 0.2439(4) 0.0498(2) 0.2230(8)
C7_13 C 0.2297(4) 0.0220(3) 0.1269(7)
I2_13 I 0.276468(36) 0.115302(19) 0.19176(6)
N2_13 N 0.2362(4) 0.0367(2) 0.0177(7)
H16_13 H 0.251636 0.06836 0.00257469
O1_13 O 0.14804(25) 0.89221(17) 0.2942(5)
O7_13 O 0.0567(4) 0.8405(3) 0.2667(8)
O8_13 O 0.0377(3) 0.7528(2) 0.2737(6)
C1_13 C 0.1874(4) 0.9168(3) 0.2892(8)
C2_13 C 0.2036(4) 0.9636(2) 0.2641(7)
C3_15 C 0.2169(4) 0.9922(3) 0.3551(7)
C8_13 C 0.2095(4) 0.9789(2) 0.1544(7)
C9_13 C 0.1879(6) 0.8500(4) 0.5446(9)
C10_13 C 0.0621(13) 0.8643(10) 0.198(2)
C11_13 C 0.0408(9) 0.9123(6) 0.0404(17)
H1_13 H 0.0154 0.9140 0.0356
H2_13 H 0.0646 0.9401 0.0541
C13_13 C 0.0320(5) 0.7181(3) 0.2466(9)
H11_11 H 0.0048 0.6450 0.1365
I1_15 I 0.20155(4) 0.96835(2) 0.52293(6)
I3_13 I 0.18622(4) 0.93456(2) 0.01947(6)
N1_13 N 0.0362(11) 0.8783(9) 0.154(2)
H13_15 H 0.171(3) 0.841(2) 0.619(6)
H14_15 H 0.0597885 0.714408 0.237174
H17_13 H 0.0934929 0.878832 0.158731
C15_8 C 0.6899(4) 0.0125(4) 0.8711(14)
H10_8 H 0.7102 0.0033 0.8599
H11_12 H 0.6884 0.0265 0.8031
H12_8 H 0.6985 0.0317 0.9347
H14_16 H 0.618925 0.0120469 0.90384
C3_16 C 0.3412(3) 0.8914(3) 0.0217(7)
C4_17 C 0.2978(3) 0.8686(3) -0.0001(8)
C5_16 C 0.2680(3) 0.8572(3) 0.1050(8)
I1_16 I 0.36499(2) 0.89987(3) 0.18959(6)
H13_16 H 0.493(2) 0.997(2) 0.285(6)
C3_17 C 0.1086(3) 0.4497(4) 0.0217(7)
C4_18 C 0.1314(3) 0.4291(4) -0.0001(8)
C5_17 C 0.1428(3) 0.4107(4) 0.1050(8)
I1_17 I 0.10013(3) 0.46511(4) 0.18959(6)
H13_17 H 0.003(2) 0.495(3) 0.285(6)
C15_9 C 0.9875(4) 0.6773(6) 0.8711(14)
H10_9 H 0.9967 0.7068 0.8599
H11_13 H 0.9735 0.6618 0.8031
H12_9 H 0.9683 0.6667 0.9347
H14_17 H 0.987953 0.606878 0.90384
C3_18 C 0.5503(4) 0.6588(3) 0.0217(7)
C4_19 C 0.5709(4) 0.7022(3) -0.0001(8)
C5_18 C 0.5893(4) 0.7320(3) 0.1050(8)
C9_14 C 0.5213(6) 0.5166(4) 0.2112(9)
I1_18 I 0.53489(4) 0.63501(2) 0.18959(6)
H13_18 H 0.505(3) 0.507(2) 0.285(6)
O1_14 O 0.48138(25) 0.55887(17) 0.9608(5)
O7_14 O 0.3901(4) 0.5071(3) 0.9333(8)
O8_14 O 0.3711(3) 0.4194(2) 0.9403(6)
C1_14 C 0.5208(4) 0.5834(3) 0.9558(8)
C2_14 C 0.5370(4) 0.6302(2) 0.9307(7)
C4_20 C 0.5709(4) 0.7022(3) 0.9999(8)
C6_14 C 0.5773(4) 0.7164(2) 0.8896(8)
C7_14 C 0.5631(4) 0.6886(3) 0.7935(7)
C8_14 C 0.5429(4) 0.6455(2) 0.8210(7)
C10_14 C 0.3955(13) 0.5309(10) 0.864(2)
C11_14 C 0.3742(9) 0.5789(6) 0.7070(17)
H1_14 H 0.3488 0.5806 0.7022
H2_14 H 0.3980 0.6067 0.7207
H3_8 H 0.3784 0.5680 0.6363
C12_10 C 0.3235(15) 0.5196(12) 0.877(3)
H4_10 H 0.3057 0.5295 0.8454
H5_10 H 0.3112 0.4898 0.8620
H6_10 H 0.3258 0.5242 0.9587
C13_14 C 0.3654(5) 0.3847(3) 0.9132(9)
C14_10 C 0.2897(6) 0.3537(4) 0.9026(13)
H7_6 H 0.2654 0.3265 0.8866
H8_10 H 0.2874 0.3625 0.9786
H9_10 H 0.2910 0.3741 0.8481
C15_10 C 0.3227(6) 0.3101(4) 0.8711(14)
H10_10 H 0.2932 0.2898 0.8599
H11_14 H 0.3382 0.3116 0.8031
H12_10 H 0.3333 0.3015 0.9347
I2_14 I 0.609802(36) 0.781968(19) 0.85842(6)
I3_14 I 0.51956(4) 0.60122(2) 0.68613(6)
N1_14 N 0.3696(11) 0.5449(9) 0.820(2)
N2_14 N 0.5696(4) 0.7033(2) 0.6843(7)
N3_10 N 0.3274(4) 0.3508(2) 0.8942(7)
H14_18 H 0.393122 0.381075 0.90384
H15_8 H 0.55903 0.682645 0.617671
H16_14 H 0.58497 0.735027 0.669241
H17_14 H 0.426826 0.545499 0.825398
H7_7 H 0.9932 0.3945 0.4467
C15_11 C 0.9768(4) 0.3208(4) 0.4622(14)
H10_11 H 0.9565 0.3300 0.4734
H11_15 H 0.9783 0.3068 0.5302
H12_11 H 0.9682 0.3016 0.3986
H7_8 H 0.4013 0.0068 0.4467
C15_12 C 0.3440(6) 0.0232(4) 0.4622(14)
H10_12 H 0.3735 0.0435 0.4734
H11_16 H 0.3285 0.0217 0.5302
H12_12 H 0.3334 0.0318 0.3986
H15_9 H 0.0159788 0.790282 0.0489959
H3_9 H 0.9014 0.8563 0.0303
H3_10 H 0.1437 0.0450 0.0303
H15_10 H 0.209718 0.225697 0.0489959
C12_11 C 0.1372(9) 0.9901(15) 0.789(3)
H4_11 H 0.1095 0.9723 0.8212
H5_11 H 0.1547 0.9778 0.8046
H6_11 H 0.1349 0.9924 0.7079
C14_11 C 0.2693(4) 0.9563(6) 0.7640(13)
H7_9 H 0.2722 0.9320 0.7800
H8_11 H 0.2582 0.9540 0.6880
H9_11 H 0.2502 0.9576 0.8185
C15_13 C 0.3459(4) 0.9893(6) 0.7955(14)
H10_13 H 0.3367 0.9598 0.8067
H12_13 H 0.3651 0.9999 0.7319
N3_11 N 0.3099(3) 0.9940(4) 0.7724(7)
C12_12 C 0.0099(15) 0.1470(12) 0.789(3)
H4_12 H 0.0277 0.1371 0.8212
H5_12 H 0.0222 0.1768 0.8046
H6_12 H 0.0076 0.1424 0.7079
C14_12 C 0.0437(6) 0.3129(4) 0.7640(13)
H7_10 H 0.0680 0.3401 0.7800
H8_12 H 0.0460 0.3041 0.6880
H9_12 H 0.0424 0.2925 0.8185
C15_14 C 0.0107(6) 0.3565(4) 0.7955(14)
H10_14 H 0.0402 0.3768 0.8067
H12_14 H 0.0001 0.3651 0.7319
N3_12 N 0.0060(4) 0.3158(2) 0.7724(7)
H3_11 H 0.9550 0.0986 0.0303
H15_11 H 0.774303 0.984021 0.0489959
O1_15 O 0.55887(17) 0.07750(18) 0.0392(5)
O2_8 O 0.57552(17) 0.02543(19) 0.0283(6)
O7_15 O 0.5071(3) 0.1171(2) 0.0667(8)
O8_15 O 0.4194(2) 0.0484(2) 0.0597(6)
C1_15 C 0.5834(3) 0.0627(3) 0.0442(8)
C2_15 C 0.6302(2) 0.0933(3) 0.0693(7)
C4_21 C 0.7022(3) 0.1314(3) 0.0001(8)
C6_15 C 0.7164(2) 0.1392(3) 0.1104(8)
C7_15 C 0.6886(3) 0.1256(3) 0.2065(7)
C8_15 C 0.6455(2) 0.1027(3) 0.1790(7)
C10_15 C 0.5309(10) 0.1355(8) 0.136(2)
C11_15 C 0.5789(6) 0.2048(7) 0.2930(17)
H1_15 H 0.5806 0.2319 0.2978
H2_15 H 0.6067 0.2088 0.2793
H3_12 H 0.5680 0.1897 0.3637
C12_13 C 0.5196(12) 0.1962(9) 0.123(3)
H4_13 H 0.5295 0.2239 0.1546
H5_13 H 0.4898 0.1787 0.1380
H6_13 H 0.5242 0.1985 0.0413
C13_15 C 0.3847(3) 0.0194(4) 0.0868(9)
C14_13 C 0.3537(4) 0.0641(4) 0.0974(13)
H7_11 H 0.3265 0.0612 0.1134
H8_13 H 0.3625 0.0752 0.0214
H9_13 H 0.3741 0.0832 0.1519
I2_15 I 0.781968(19) 0.17217(3) 0.14158(6)
I3_15 I 0.60122(2) 0.08167(3) 0.31387(6)
N1_15 N 0.5449(9) 0.1754(7) 0.180(2)
N2_15 N 0.7033(2) 0.1338(3) 0.3157(7)
N3_13 N 0.3508(2) 0.0235(3) 0.1058(7)
O13_8 O 0.4766(3) 0.0351(2) 0.2109(6)
H15_12 H 0.682645 0.123615 0.382329
H16_15 H 0.735027 0.150057 0.330759
H17_15 H 0.545499 0.118672 0.174602
C9_15 C 0.4834(4) 0.0046(4) 0.2112(9)
O6_8 O 0.5234(3) 0.9649(2) 0.7891(6)
C9_16 C 0.5166(4) 0.9954(4) 0.7888(9)
O9_8 O 0.42448(17) 0.97457(19) 0.9717(6)
O1_16 O 0.44113(17) 0.92250(18) 0.9608(5)
O7_16 O 0.4929(3) 0.8829(2) 0.9333(8)
O8_16 O 0.5806(2) 0.9516(2) 0.9403(6)
C1_16 C 0.4166(3) 0.9373(3) 0.9558(8)
C2_16 C 0.3698(2) 0.9067(3) 0.9307(7)
C4_22 C 0.2978(3) 0.8686(3) 0.9999(8)
C6_16 C 0.2836(2) 0.8608(3) 0.8896(8)
C7_16 C 0.3114(3) 0.8744(3) 0.7935(7)
C8_16 C 0.3545(2) 0.8973(3) 0.8210(7)
C10_16 C 0.4691(10) 0.8645(8) 0.864(2)
C11_16 C 0.4211(6) 0.7952(7) 0.7070(17)
H1_16 H 0.4194 0.7681 0.7022
H2_16 H 0.3933 0.7912 0.7207
H3_13 H 0.4320 0.8103 0.6363
C12_14 C 0.4804(12) 0.8038(9) 0.877(3)
H4_14 H 0.4705 0.7761 0.8454
H5_14 H 0.5102 0.8213 0.8620
H6_14 H 0.4758 0.8015 0.9587
C13_16 C 0.6153(3) 0.9806(4) 0.9132(9)
C14_14 C 0.6463(4) 0.9359(4) 0.9026(13)
H7_12 H 0.6735 0.9388 0.8866
H8_14 H 0.6375 0.9248 0.9786
H9_14 H 0.6259 0.9168 0.8481
I2_16 I 0.218032(19) 0.82783(3) 0.85842(6)
I3_16 I 0.39878(2) 0.91833(3) 0.68613(6)
N1_16 N 0.4551(9) 0.8246(7) 0.820(2)
N2_16 N 0.2967(2) 0.8662(3) 0.6843(7)
N3_14 N 0.6492(2) 0.9765(3) 0.8942(7)
H15_13 H 0.317355 0.876385 0.617671
H16_16 H 0.264973 0.849943 0.669241
H17_16 H 0.454501 0.881328 0.825398
O6_9 O 0.0351(2) 0.5586(4) 0.7891(6)
C9_17 C 0.0046(4) 0.5213(6) 0.7888(9)
O9_9 O 0.02543(19) 0.44990(25) 0.9717(6)
O1_17 O 0.07750(18) 0.51862(25) 0.9608(5)
O7_17 O 0.1171(2) 0.6099(4) 0.9333(8)
O8_17 O 0.0484(2) 0.6289(3) 0.9403(6)
C1_17 C 0.0627(3) 0.4792(4) 0.9558(8)
C2_17 C 0.0933(3) 0.4630(4) 0.9307(7)
C4_23 C 0.1314(3) 0.4291(4) 0.9999(8)
C6_17 C 0.1392(3) 0.4227(4) 0.8896(8)
C7_17 C 0.1256(3) 0.4369(4) 0.7935(7)
C8_17 C 0.1027(3) 0.4571(4) 0.8210(7)
C10_17 C 0.1355(8) 0.6045(13) 0.864(2)
C11_17 C 0.2048(7) 0.6258(9) 0.7070(17)
H1_17 H 0.2319 0.6512 0.7022
H2_17 H 0.2088 0.6020 0.7207
H3_14 H 0.1897 0.6216 0.6363
C12_15 C 0.1962(9) 0.6765(15) 0.877(3)
H4_15 H 0.2239 0.6943 0.8454
H5_15 H 0.1787 0.6888 0.8620
H6_15 H 0.1985 0.6742 0.9587
C13_17 C 0.0194(4) 0.6346(5) 0.9132(9)
C14_15 C 0.0641(4) 0.7103(6) 0.9026(13)
H7_13 H 0.0612 0.7346 0.8866
H8_15 H 0.0752 0.7126 0.9786
H9_15 H 0.0832 0.7090 0.8481
I2_17 I 0.17217(3) 0.390198(36) 0.85842(6)
I3_17 I 0.08167(3) 0.48044(4) 0.68613(6)
N1_17 N 0.1754(7) 0.6304(11) 0.820(2)
N2_17 N 0.1338(3) 0.4304(4) 0.6843(7)
N3_15 N 0.0235(3) 0.6726(4) 0.8942(7)
H15_14 H 0.123615 0.44097 0.617671
H16_17 H 0.150057 0.41503 0.669241
H17_17 H 0.118672 0.573174 0.825398
O1_18 O 0.92250(18) 0.48138(25) 0.0392(5)
O2_9 O 0.97457(19) 0.55010(25) 0.0283(6)
O7_18 O 0.8829(2) 0.3901(4) 0.0667(8)
O8_18 O 0.9516(2) 0.3711(3) 0.0597(6)
C1_18 C 0.9373(3) 0.5208(4) 0.0442(8)
C2_18 C 0.9067(3) 0.5370(4) 0.0693(7)
C4_24 C 0.8686(3) 0.5709(4) 0.0001(8)
C6_18 C 0.8608(3) 0.5773(4) 0.1104(8)
C7_18 C 0.8744(3) 0.5631(4) 0.2065(7)
C8_18 C 0.8973(3) 0.5429(4) 0.1790(7)
C10_18 C 0.8645(8) 0.3955(13) 0.136(2)
C11_18 C 0.7952(7) 0.3742(9) 0.2930(17)
H1_18 H 0.7681 0.3488 0.2978
H2_18 H 0.7912 0.3980 0.2793
H3_15 H 0.8103 0.3784 0.3637
C12_16 C 0.8038(9) 0.3235(15) 0.123(3)
H4_16 H 0.7761 0.3057 0.1546
H5_16 H 0.8213 0.3112 0.1380
H6_16 H 0.8015 0.3258 0.0413
C13_18 C 0.9806(4) 0.3654(5) 0.0868(9)
C14_16 C 0.9359(4) 0.2897(6) 0.0974(13)
H7_14 H 0.9388 0.2654 0.1134
H8_16 H 0.9248 0.2874 0.0214
H9_16 H 0.9168 0.2910 0.1519
I2_18 I 0.82783(3) 0.609802(36) 0.14158(6)
I3_18 I 0.91833(3) 0.51956(4) 0.31387(6)
N1_18 N 0.8246(7) 0.3696(11) 0.180(2)
N2_18 N 0.8662(3) 0.5696(4) 0.3157(7)
N3_16 N 0.9765(3) 0.3274(4) 0.1058(7)
O13_9 O 0.9649(2) 0.4414(4) 0.2109(6)
H15_15 H 0.876385 0.55903 0.382329
H16_18 H 0.849943 0.58497 0.330759
H17_18 H 0.881328 0.426826 0.174602
C9_18 C 0.9954(4) 0.4787(6) 0.2112(9)
H7_15 H 0.0068 0.6055 0.5533
C15_15 C 0.0232(4) 0.6792(4) 0.5378(14)
H10_15 H 0.0435 0.6700 0.5266
H11_17 H 0.0217 0.6932 0.4698
H12_15 H 0.0318 0.6984 0.6014
H7_16 H 0.5987 0.9932 0.5533
C15_16 C 0.6560(6) 0.9768(4) 0.5378(14)
H10_16 H 0.6265 0.9565 0.5266
H11_18 H 0.6715 0.9783 0.4698
H12_16 H 0.6666 0.9682 0.6014
H3_16 H 0.0986 0.1437 0.9697
H15_16 H 0.984021 0.209718 0.951004
C12_17 C 0.8628(9) 0.0099(15) 0.211(3)
H4_17 H 0.8905 0.0277 0.1788
H5_17 H 0.8453 0.0222 0.1954
H6_17 H 0.8651 0.0076 0.2921
C14_17 C 0.7307(4) 0.0437(6) 0.2360(13)
H7_17 H 0.7278 0.0680 0.2200
H8_17 H 0.7418 0.0460 0.3120
H9_17 H 0.7498 0.0424 0.1815
C15_17 C 0.6541(4) 0.0107(6) 0.2045(14)
H10_17 H 0.6633 0.0402 0.1933
H12_17 H 0.6349 0.0001 0.2681
N3_17 N 0.6901(3) 0.0060(4) 0.2276(7)
H3_17 H 0.8563 0.9550 0.9697
H15_17 H 0.790282 0.774303 0.951004
H15_18 H 0.225697 0.0159788 0.951004
H3_18 H 0.0450 0.9014 0.9697
C12_18 C 0.9901(15) 0.8530(12) 0.211(3)
H4_18 H 0.9723 0.8629 0.1788
H5_18 H 0.9778 0.8232 0.1954
H6_18 H 0.9924 0.8576 0.2921
C14_18 C 0.9563(6) 0.6871(4) 0.2360(13)
H7_18 H 0.9320 0.6599 0.2200
H8_18 H 0.9540 0.6959 0.3120
H9_18 H 0.9576 0.7075 0.1815
C15_18 C 0.9893(6) 0.6435(4) 0.2045(14)
H10_18 H 0.9598 0.6232 0.1933
H12_18 H 0.9999 0.6349 0.2681
N3_18 N 0.9940(4) 0.6842(2) 0.2276(7)
loop_
_geom_bond_atom_site_label_1
_geom_bond_atom_site_label_2
_geom_bond_site_symmetry_1
_geom_bond_site_symmetry_2
Nd1 O1 1_555 1_555
O1 C1 1_555 1_555
O2 C1 1_555 1_555
O3 C5 1_555 1_555
O4 C5 1_555 1_555
O5 Nd1 1_555 1_555
O6 C9 1_555 1_555
O7 Nd1 1_555 1_555
O8 Nd1 1_555 1_555
C1 C2 1_555 1_555
C2 C3 1_555 1_555
C3 C4 1_555 1_555
C4 C5 1_555 1_555
C6 C4 1_555 1_555
C7 C6 1_555 1_555
C8 C2 1_555 1_555
C9 O5 1_555 1_555
C10 O7 1_555 1_555
C11 H1 1_555 1_555
H2 C11 1_555 1_555
H3 C11 1_555 1_555
C12 H4 1_555 1_555
H5 C12 1_555 1_555
H6 C12 1_555 1_555
C13 O8 1_555 1_555
H8 C14 1_555 1_555
H9 C14 1_555 1_555
I1 C3 1_555 1_555
I2 C6 1_555 1_555
I3 C8 1_555 1_555
N1 C10 1_555 1_555
N2 C7 1_555 1_555
N3 C13 1_555 1_555
H13 C9 1_555 1_555
Nd2 O2 1_555 1_555
Nd3 O3 1_555 1_555
O9 Nd1 1_555 1_555
O10 Nd1 1_555 1_555
O11 Nd1 1_555 1_555
O12 Nd1 1_555 1_555
O13 Nd1 1_555 1_555
O4 Nd3 1_555 1_555
O5 Nd2 1_555 1_555
O6 Nd2 1_555 1_555
C7 C8 1_555 1_555
C11 N1 1_555 1_555
C12 N1 1_555 1_555
C14 N3 1_555 1_555
Nd2 O12 1_555 1_555
C13 H14 1_555 1_555
N2 H15 1_555 1_555
N2 H16 1_555 1_555
C10 H17 1_555 1_555
Nd1_2 O1_2 1_555 1_555
O1_2 C1_2 1_555 1_555
O2_2 C1_2 1_555 1_555
O3_2 C5_2 1_555 1_555
O4_2 C5_2 1_555 1_555
O5_2 Nd1_2 1_555 1_555
O6_2 C9_2 1_555 1_555
O7_2 Nd1_2 1_555 1_555
O8_2 Nd1_2 1_555 1_555
C1_2 C2_2 1_555 1_555
C2_2 C3_2 1_555 1_555
C3_2 C4_2 1_555 1_555
C4_2 C5_2 1_555 1_555
C6_2 C4_2 1_555 1_555
C7_2 C6_2 1_555 1_555
C8_2 C2_2 1_555 1_555
C9_2 O5_2 1_555 1_555
C10_2 O7_2 1_555 1_555
C11_2 H1_2 1_555 1_555
H2_2 C11_2 1_555 1_555
H3_2 C11_2 1_555 1_555
C12_2 H4_2 1_555 1_555
H5_2 C12_2 1_555 1_555
H6_2 C12_2 1_555 1_555
C13_2 O8_2 1_555 1_555
C14_2 H7 1_555 1_555
H8_2 C14_2 1_555 1_555
H9_2 C14_2 1_555 1_555
C15 H10 1_555 1_555
H11 C15 1_555 1_555
H12 C15 1_555 1_555
I1_2 C3_2 1_555 1_555
I2_2 C6_2 1_555 1_555
I3_2 C8_2 1_555 1_555
N1_2 C10_2 1_555 1_555
N2_2 C7_2 1_555 1_555
N3_2 C13_2 1_555 1_555
H13_2 C9_2 1_555 1_555
Nd2_2 O2_2 1_555 1_555
Nd3_2 O3_2 1_555 1_555
O9_2 Nd1_2 1_555 1_555
O10_2 Nd1_2 1_555 1_555
O11_2 Nd1_2 1_555 1_555
O12_2 Nd1_2 1_555 1_555
O13_2 Nd1_2 1_555 1_555
O4_2 Nd3_2 1_555 1_555
O5_2 Nd2_2 1_555 1_555
O6_2 Nd2_2 1_555 1_555
C7_2 C8_2 1_555 1_555
C11_2 N1_2 1_555 1_555
C12_2 N1_2 1_555 1_555
C14_2 N3_2 1_555 1_555
C15 N3_2 1_555 1_555
Nd2_2 O12_2 1_555 1_555
C13_2 H14_2 1_555 1_555
N2_2 H15_2 1_555 1_555
N2_2 H16_2 1_555 1_555
C10_2 H17_2 1_555 1_555
Nd1_3 O1_3 1_555 1_555
O1_3 C1_3 1_555 1_555
O2_3 C1_3 1_555 1_555
O3_3 C5_3 1_555 1_555
O4_3 C5_3 1_555 1_555
O5_3 Nd1_3 1_555 1_555
O6_3 C9_3 1_555 1_555
O7_3 Nd1_3 1_555 1_555
O8_3 Nd1_3 1_555 1_555
C1_3 C2_3 1_555 1_555
C2_3 C3_3 1_555 1_555
C3_3 C4_3 1_555 1_555
C4_3 C5_3 1_555 1_555
C6_3 C4_3 1_555 1_555
C7_3 C6_3 1_555 1_555
C8_3 C2_3 1_555 1_555
C9_3 O5_3 1_555 1_555
C10_3 O7_3 1_555 1_555
C11_3 H1_3 1_555 1_555
H2_3 C11_3 1_555 1_555
H3_3 C11_3 1_555 1_555
C12_3 H4_3 1_555 1_555
H5_3 C12_3 1_555 1_555
H6_3 C12_3 1_555 1_555
C13_3 O8_3 1_555 1_555
H8_3 C14_3 1_555 1_555
H9_3 C14_3 1_555 1_555
I1_3 C3_3 1_555 1_555
I2_3 C6_3 1_555 1_555
I3_3 C8_3 1_555 1_555
N1_3 C10_3 1_555 1_555
N2_3 C7_3 1_555 1_555
N3_3 C13_3 1_555 1_555
H13_3 C9_3 1_555 1_555
Nd2_3 O2_3 1_555 1_555
Nd3_3 O3_3 1_555 1_555
O9_3 Nd1_3 1_555 1_555
O10_3 Nd1_3 1_555 1_555
O11_3 Nd1_3 1_555 1_555
O12_3 Nd1_3 1_555 1_555
O13_3 Nd1_3 1_555 1_555
O4_3 Nd3_3 1_555 1_555
O5_3 Nd2_3 1_555 1_555
O6_3 Nd2_3 1_555 1_555
C7_3 C8_3 1_555 1_555
C11_3 N1_3 1_555 1_555
C12_3 N1_3 1_555 1_555
C14_3 N3_3 1_555 1_555
Nd2_3 O12_3 1_555 1_555
C13_3 H14_3 1_555 1_555
N2_3 H15_3 1_555 1_555
N2_3 H16_3 1_555 1_555
C10_3 H17_3 1_555 1_555
O3_4 C5_4 1_555 1_555
O4_4 C5_4 1_555 1_555
C4_4 C5_4 1_555 1_555
C6_4 C4_4 1_555 1_555
C7_4 C6_4 1_555 1_555
I2_4 C6_4 1_555 1_555
N2_4 C7_4 1_555 1_555
Nd2_3 O3_4 1_555 1_555
O4_4 Nd2_3 1_555 1_555
N2_4 H16_4 1_555 1_555
Nd1_4 O1_4 1_555 1_555
O1_4 C1_4 1_555 1_555
O2_4 C1_4 1_555 1_555
O5_4 Nd1_4 1_555 1_555
O6_4 C9_4 1_555 1_555
O7_4 Nd1_4 1_555 1_555
O8_4 Nd1_4 1_555 1_555
C1_4 C2_4 1_555 1_555
C2_4 C3_4 1_555 1_555
C8_4 C2_4 1_555 1_555
C9_4 O5_4 1_555 1_555
C10_4 O7_4 1_555 1_555
C11_4 H1_4 1_555 1_555
H2_4 C11_4 1_555 1_555
C12_4 H4_4 1_555 1_555
H5_4 C12_4 1_555 1_555
H6_4 C12_4 1_555 1_555
C13_4 O8_4 1_555 1_555
C14_4 H7_2 1_555 1_555
H8_4 C14_4 1_555 1_555
H9_4 C14_4 1_555 1_555
C15_2 H10_2 1_555 1_555
H11_2 C15_2 1_555 1_555
H12_2 C15_2 1_555 1_555
I1_4 C3_4 1_555 1_555
I3_4 C8_4 1_555 1_555
N1_4 C10_4 1_555 1_555
N3_4 C13_4 1_555 1_555
H13_4 C9_4 1_555 1_555
Nd2_4 O2_4 1_555 1_555
O9_4 Nd1_4 1_555 1_555
O10_4 Nd1_4 1_555 1_555
O11_4 Nd1_4 1_555 1_555
O12_4 Nd1_4 1_555 1_555
O13_4 Nd1_4 1_555 1_555
O5_4 Nd2_4 1_555 1_555
O6_4 Nd2_4 1_555 1_555
C11_4 N1_4 1_555 1_555
C12_4 N1_4 1_555 1_555
C14_4 N3_4 1_555 1_555
C15_2 N3_4 1_555 1_555
Nd2_4 O12_4 1_555 1_555
C13_4 H14_4 1_555 1_555
C10_4 H17_4 1_555 1_555
Nd1_5 O1_5 1_555 1_555
O1_5 C1_5 1_555 1_555
O2_5 C1_5 1_555 1_555
O3_5 C5_5 1_555 1_555
O4_5 C5_5 1_555 1_555
O5_5 Nd1_5 1_555 1_555
O6_5 C9_5 1_555 1_555
O7_5 Nd1_5 1_555 1_555
O8_5 Nd1_5 1_555 1_555
C1_5 C2_5 1_555 1_555
C2_5 C3_5 1_555 1_555
C3_5 C4_5 1_555 1_555
C4_5 C5_5 1_555 1_555
C6_5 C4_5 1_555 1_555
C7_5 C6_5 1_555 1_555
C8_5 C2_5 1_555 1_555
C9_5 O5_5 1_555 1_555
C10_5 O7_5 1_555 1_555
C11_5 H1_5 1_555 1_555
H2_5 C11_5 1_555 1_555
C13_5 O8_5 1_555 1_555
I1_5 C3_5 1_555 1_555
I2_5 C6_5 1_555 1_555
I3_5 C8_5 1_555 1_555
N1_5 C10_5 1_555 1_555
N2_5 C7_5 1_555 1_555
H13_5 C9_5 1_555 1_555
Nd2_5 O2_5 1_555 1_555
Nd2 O3_5 1_555 1_555
O9_5 Nd1_5 1_555 1_555
O10_5 Nd1_5 1_555 1_555
O11_5 Nd1_5 1_555 1_555
O12_5 Nd1_5 1_555 1_555
O13_5 Nd1_5 1_555 1_555
O4_5 Nd2 1_555 1_555
O5_5 Nd2_5 1_555 1_555
O6_5 Nd2_5 1_555 1_555
C7_5 C8_5 1_555 1_555
C11_5 N1_5 1_555 1_555
Nd2_5 O12_5 1_555 1_555
C13_5 H14_5 1_555 1_555
N2_5 H16_5 1_555 1_555
C10_5 H17_5 1_555 1_555
Nd1_6 O1_6 1_555 1_555
O1_6 C1_6 1_555 1_555
O2_6 C1_6 1_555 1_555
O5_6 Nd1_6 1_555 1_555
O6_6 C9_6 1_555 1_555
O7_6 Nd1_6 1_555 1_555
O8_6 Nd1_6 1_555 1_555
C1_6 C2_6 1_555 1_555
C2_6 C3_6 1_555 1_555
C8_6 C2_6 1_555 1_555
C9_6 O5_6 1_555 1_555
C10_6 O7_6 1_555 1_555
C11_6 H1_6 1_555 1_555
H2_6 C11_6 1_555 1_555
C13_6 O8_6 1_555 1_555
I1_6 C3_6 1_555 1_555
I3_6 C8_6 1_555 1_555
N1_6 C10_6 1_555 1_555
H13_6 C9_6 1_555 1_555
Nd2_6 O2_6 1_555 1_555
O9_6 Nd1_6 1_555 1_555
O10_6 Nd1_6 1_555 1_555
O11_6 Nd1_6 1_555 1_555
O12_6 Nd1_6 1_555 1_555
O13_6 Nd1_6 1_555 1_555
O5_6 Nd2_6 1_555 1_555
O6_6 Nd2_6 1_555 1_555
C11_6 N1_6 1_555 1_555
Nd2_6 O12_6 1_555 1_555
C13_6 H14_6 1_555 1_555
C10_6 H17_6 1_555 1_555
O3_6 C5_6 1_555 1_555
O4_6 C5_6 1_555 1_555
C4_6 C5_6 1_555 1_555
C6_6 C4_6 1_555 1_555
C7_6 C6_6 1_555 1_555
I2_6 C6_6 1_555 1_555
N2_6 C7_6 1_555 1_555
Nd2_2 O3_6 1_555 1_555
O4_6 Nd2_2 1_555 1_555
N2_6 H16_6 1_555 1_555
O3_7 C5_7 1_555 1_555
O4_7 C5_7 1_555 1_555
O5_7 Nd1_7 1_555 1_555
C3_7 C4_7 1_555 1_555
C4_7 C5_7 1_555 1_555
I1_7 C3_7 1_555 1_555
Nd2_6 O3_7 1_555 1_555
O10_7 Nd1_7 1_555 1_555
O11_7 Nd1_7 1_555 1_555
O4_7 Nd2_6 1_555 1_555
C15_3 H10_3 1_555 1_555
H11_5 C15_3 1_555 1_555
H12_3 C15_3 1_555 1_555
Nd3_2 O12_7 1_555 1_555
C15_4 H10_4 1_555 1_555
H11_6 C15_4 1_555 1_555
H12_4 C15_4 1_555 1_555
Nd3_3 O12_8 1_555 1_555
O3_8 C5_8 1_555 1_555
O4_8 C5_8 1_555 1_555
O5_8 Nd1_8 1_555 1_555
C3_8 C4_8 1_555 1_555
C4_8 C5_8 1_555 1_555
I1_8 C3_8 1_555 1_555
Nd2_4 O3_8 1_555 1_555
O10_8 Nd1_8 1_555 1_555
O11_8 Nd1_8 1_555 1_555
O4_8 Nd2_4 1_555 1_555
O1_7 C1_7 1_555 1_555
O2_7 C1_7 1_555 1_555
C1_7 C2_7 1_555 1_555
C6_7 C4_9 1_555 1_555
C7_7 C6_7 1_555 1_555
C8_7 C2_7 1_555 1_555
C10_7 O7_7 1_555 1_555
C11_7 H1_7 1_555 1_555
H2_7 C11_7 1_555 1_555
H3_4 C11_7 1_555 1_555
C12_5 H4_5 1_555 1_555
H5_5 C12_5 1_555 1_555
H6_5 C12_5 1_555 1_555
C13_7 O8_7 1_555 1_555
C14_5 H7_3 1_555 1_555
H8_5 C14_5 1_555 1_555
H9_5 C14_5 1_555 1_555
C15_5 H10_5 1_555 1_555
H11_7 C15_5 1_555 1_555
H12_5 C15_5 1_555 1_555
I2_7 C6_7 1_555 1_555
I3_7 C8_7 1_555 1_555
N1_7 C10_7 1_555 1_555
N2_7 C7_7 1_555 1_555
N3_5 C13_7 1_555 1_555
Nd3 O2_7 1_555 1_555
C7_7 C8_7 1_555 1_555
C11_7 N1_7 1_555 1_555
C12_5 N1_7 1_555 1_555
C14_5 N3_5 1_555 1_555
C15_5 N3_5 1_555 1_555
Nd3 O12_9 1_555 1_555
C13_7 H14_9 1_555 1_555
N2_7 H15_4 1_555 1_555
N2_7 H16_7 1_555 1_555
C10_7 H17_7 1_555 1_555
O3_9 C5_9 1_555 1_555
O4_9 C5_9 1_555 1_555
O5_9 Nd1_9 1_555 1_555
O6_7 C9_7 1_555 1_555
C3_9 C4_10 1_555 1_555
C4_10 C5_9 1_555 1_555
C9_7 O5_9 1_555 1_555
I1_9 C3_9 1_555 1_555
H13_9 C9_7 1_555 1_555
Nd2_5 O3_9 1_555 1_555
O9_7 Nd1_9 1_555 1_555
O10_9 Nd1_9 1_555 1_555
O11_9 Nd1_9 1_555 1_555
O4_9 Nd2_5 1_555 1_555
Nd2_4 O1_8 1_555 1_555
O1_8 C1_8 1_555 1_555
O9_4 C1_8 1_555 1_555
O10_9 C5_10 1_555 1_555
O11_9 C5_10 1_555 1_555
O13_4 C9_8 1_555 1_555
O7_8 Nd2_4 1_555 1_555
O8_8 Nd2_4 1_555 1_555
C1_8 C2_8 1_555 1_555
C2_8 C3_10 1_555 1_555
C3_10 C4_11 1_555 1_555
C4_11 C5_10 1_555 1_555
C6_8 C4_11 1_555 1_555
C7_8 C6_8 1_555 1_555
C8_8 C2_8 1_555 1_555
C9_8 O12_4 1_555 1_555
C10_8 O7_8 1_555 1_555
C11_8 H1_8 1_555 1_555
H2_8 C11_8 1_555 1_555
H3_5 C11_8 1_555 1_555
C12_6 H4_6 1_555 1_555
H5_6 C12_6 1_555 1_555
H6_6 C12_6 1_555 1_555
C13_8 O8_8 1_555 1_555
H8_6 C14_6 1_555 1_555
H9_6 C14_6 1_555 1_555
I1_10 C3_10 1_555 1_555
I2_8 C6_8 1_555 1_555
I3_8 C8_8 1_555 1_555
N1_8 C10_8 1_555 1_555
N2_8 C7_8 1_555 1_555
N3_6 C13_8 1_555 1_555
H13_10 C9_8 1_555 1_555
C7_8 C8_8 1_555 1_555
C11_8 N1_8 1_555 1_555
C12_6 N1_8 1_555 1_555
C14_6 N3_6 1_555 1_555
C13_8 H14_10 1_555 1_555
N2_8 H15_5 1_555 1_555
N2_8 H16_8 1_555 1_555
C10_8 H17_8 1_555 1_555
Nd2_5 O1_9 1_555 1_555
O1_9 C1_9 1_555 1_555
O9_5 C1_9 1_555 1_555
O10_7 C5_11 1_555 1_555
O11_7 C5_11 1_555 1_555
O13_5 C9_9 1_555 1_555
O7_9 Nd2_5 1_555 1_555
O8_9 Nd2_5 1_555 1_555
C1_9 C2_9 1_555 1_555
C2_9 C3_11 1_555 1_555
C3_11 C4_12 1_555 1_555
C4_12 C5_11 1_555 1_555
C6_9 C4_12 1_555 1_555
C7_9 C6_9 1_555 1_555
C8_9 C2_9 1_555 1_555
C9_9 O12_5 1_555 1_555
C10_9 O7_9 1_555 1_555
C11_9 H1_9 1_555 1_555
H2_9 C11_9 1_555 1_555
H3_6 C11_9 1_555 1_555
C12_7 H4_7 1_555 1_555
H5_7 C12_7 1_555 1_555
H6_7 C12_7 1_555 1_555
C13_9 O8_9 1_555 1_555
C14_7 H7_4 1_555 1_555
H8_7 C14_7 1_555 1_555
H9_7 C14_7 1_555 1_555
C15_6 H10_6 1_555 1_555
H11_8 C15_6 1_555 1_555
H12_6 C15_6 1_555 1_555
I1_11 C3_11 1_555 1_555
I2_9 C6_9 1_555 1_555
I3_9 C8_9 1_555 1_555
N1_9 C10_9 1_555 1_555
N2_9 C7_9 1_555 1_555
N3_7 C13_9 1_555 1_555
H13_11 C9_9 1_555 1_555
C7_9 C8_9 1_555 1_555
C11_9 N1_9 1_555 1_555
C12_7 N1_9 1_555 1_555
C14_7 N3_7 1_555 1_555
C15_6 N3_7 1_555 1_555
C13_9 H14_11 1_555 1_555
N2_9 H15_6 1_555 1_555
N2_9 H16_9 1_555 1_555
C10_9 H17_9 1_555 1_555
Nd2_6 O1_10 1_555 1_555
O1_10 C1_10 1_555 1_555
O9_6 C1_10 1_555 1_555
O10_8 C5_12 1_555 1_555
O11_8 C5_12 1_555 1_555
O13_6 C9_10 1_555 1_555
O7_10 Nd2_6 1_555 1_555
O8_10 Nd2_6 1_555 1_555
C1_10 C2_10 1_555 1_555
C2_10 C3_12 1_555 1_555
C3_12 C4_13 1_555 1_555
C4_13 C5_12 1_555 1_555
C6_10 C4_13 1_555 1_555
C7_10 C6_10 1_555 1_555
C8_10 C2_10 1_555 1_555
C9_10 O12_6 1_555 1_555
C10_10 O7_10 1_555 1_555
C11_10 H1_10 1_555 1_555
H2_10 C11_10 1_555 1_555
H3_7 C11_10 1_555 1_555
C12_8 H4_8 1_555 1_555
H5_8 C12_8 1_555 1_555
H6_8 C12_8 1_555 1_555
C13_10 O8_10 1_555 1_555
H8_8 C14_8 1_555 1_555
H9_8 C14_8 1_555 1_555
I1_12 C3_12 1_555 1_555
I2_10 C6_10 1_555 1_555
I3_10 C8_10 1_555 1_555
N1_10 C10_10 1_555 1_555
N2_10 C7_10 1_555 1_555
N3_8 C13_10 1_555 1_555
H13_12 C9_10 1_555 1_555
C7_10 C8_10 1_555 1_555
C11_10 N1_10 1_555 1_555
C12_8 N1_10 1_555 1_555
C14_8 N3_8 1_555 1_555
C13_10 H14_12 1_555 1_555
N2_10 H15_7 1_555 1_555
N2_10 H16_10 1_555 1_555
C10_10 H17_10 1_555 1_555
Nd2 O1_11 1_555 1_555
O1_11 C1_11 1_555 1_555
O9 C1_11 1_555 1_555
O13 C9_11 1_555 1_555
O7_11 Nd2 1_555 1_555
O8_11 Nd2 1_555 1_555
C1_11 C2_11 1_555 1_555
C2_11 C3_13 1_555 1_555
C8_11 C2_11 1_555 1_555
C9_11 O12 1_555 1_555
C10_11 O7_11 1_555 1_555
C11_11 H1_11 1_555 1_555
H2_11 C11_11 1_555 1_555
C12_9 H4_9 1_555 1_555
H5_9 C12_9 1_555 1_555
H6_9 C12_9 1_555 1_555
C13_11 O8_11 1_555 1_555
C14_9 H7_5 1_555 1_555
H8_9 C14_9 1_555 1_555
H9_9 C14_9 1_555 1_555
C15_7 H10_7 1_555 1_555
H11_9 C15_7 1_555 1_555
H12_7 C15_7 1_555 1_555
I1_13 C3_13 1_555 1_555
I3_11 C8_11 1_555 1_555
N1_11 C10_11 1_555 1_555
N3_9 C13_11 1_555 1_555
H13_13 C9_11 1_555 1_555
C11_11 N1_11 1_555 1_555
C12_9 N1_11 1_555 1_555
C14_9 N3_9 1_555 1_555
C15_7 N3_9 1_555 1_555
C13_11 H14_13 1_555 1_555
C10_11 H17_11 1_555 1_555
O10_6 C5_13 1_555 1_555
O11_6 C5_13 1_555 1_555
C4_14 C5_13 1_555 1_555
C6_11 C4_14 1_555 1_555
C7_11 C6_11 1_555 1_555
I2_11 C6_11 1_555 1_555
N2_11 C7_11 1_555 1_555
N2_11 H16_11 1_555 1_555
Nd2_2 O1_12 1_555 1_555
O1_12 C1_12 1_555 1_555
O9_2 C1_12 1_555 1_555
O10_4 C5_14 1_555 1_555
O11_4 C5_14 1_555 1_555
O13_2 C9_12 1_555 1_555
O7_12 Nd2_2 1_555 1_555
O8_12 Nd2_2 1_555 1_555
C1_12 C2_12 1_555 1_555
C2_12 C3_14 1_555 1_555
C3_14 C4_15 1_555 1_555
C4_15 C5_14 1_555 1_555
C6_12 C4_15 1_555 1_555
C7_12 C6_12 1_555 1_555
C8_12 C2_12 1_555 1_555
C9_12 O12_2 1_555 1_555
C10_12 O7_12 1_555 1_555
C11_12 H1_12 1_555 1_555
H2_12 C11_12 1_555 1_555
C13_12 O8_12 1_555 1_555
I1_14 C3_14 1_555 1_555
I2_12 C6_12 1_555 1_555
I3_12 C8_12 1_555 1_555
N1_12 C10_12 1_555 1_555
N2_12 C7_12 1_555 1_555
H13_14 C9_12 1_555 1_555
C7_12 C8_12 1_555 1_555
C11_12 N1_12 1_555 1_555
C13_12 H14_14 1_555 1_555
N2_12 H16_12 1_555 1_555
C10_12 H17_12 1_555 1_555
O10_5 C5_15 1_555 1_555
O11_5 C5_15 1_555 1_555
C4_16 C5_15 1_555 1_555
C6_13 C4_16 1_555 1_555
C7_13 C6_13 1_555 1_555
I2_13 C6_13 1_555 1_555
N2_13 C7_13 1_555 1_555
N2_13 H16_13 1_555 1_555
Nd2_3 O1_13 1_555 1_555
O1_13 C1_13 1_555 1_555
O9_3 C1_13 1_555 1_555
O13_3 C9_13 1_555 1_555
O7_13 Nd2_3 1_555 1_555
O8_13 Nd2_3 1_555 1_555
C1_13 C2_13 1_555 1_555
C2_13 C3_15 1_555 1_555
C8_13 C2_13 1_555 1_555
C9_13 O12_3 1_555 1_555
C10_13 O7_13 1_555 1_555
C11_13 H1_13 1_555 1_555
H2_13 C11_13 1_555 1_555
C13_13 O8_13 1_555 1_555
I1_15 C3_15 1_555 1_555
I3_13 C8_13 1_555 1_555
N1_13 C10_13 1_555 1_555
H13_15 C9_13 1_555 1_555
C11_13 N1_13 1_555 1_555
C13_13 H14_15 1_555 1_555
C10_13 H17_13 1_555 1_555
C15_8 H10_8 1_555 1_555
H11_12 C15_8 1_555 1_555
H12_8 C15_8 1_555 1_555
O10_3 C5_16 1_555 1_555
O11_3 C5_16 1_555 1_555
C3_16 C4_17 1_555 1_555
C4_17 C5_16 1_555 1_555
I1_16 C3_16 1_555 1_555
O10 C5_17 1_555 1_555
O11 C5_17 1_555 1_555
C3_17 C4_18 1_555 1_555
C4_18 C5_17 1_555 1_555
I1_17 C3_17 1_555 1_555
C15_9 H10_9 1_555 1_555
H11_13 C15_9 1_555 1_555
H12_9 C15_9 1_555 1_555
O10_2 C5_18 1_555 1_555
O11_2 C5_18 1_555 1_555
O13_7 C9_14 1_555 1_555
C3_18 C4_19 1_555 1_555
C4_19 C5_18 1_555 1_555
C9_14 O12_9 1_555 1_555
I1_18 C3_18 1_555 1_555
H13_18 C9_14 1_555 1_555
O1_14 C1_14 1_555 1_555
O9_7 C1_14 1_555 1_555
C1_14 C2_14 1_555 1_555
C6_14 C4_20 1_555 1_555
C7_14 C6_14 1_555 1_555
C8_14 C2_14 1_555 1_555
C10_14 O7_14 1_555 1_555
C11_14 H1_14 1_555 1_555
H2_14 C11_14 1_555 1_555
H3_8 C11_14 1_555 1_555
C12_10 H4_10 1_555 1_555
H5_10 C12_10 1_555 1_555
H6_10 C12_10 1_555 1_555
C13_14 O8_14 1_555 1_555
C14_10 H7_6 1_555 1_555
H8_10 C14_10 1_555 1_555
H9_10 C14_10 1_555 1_555
C15_10 H10_10 1_555 1_555
H11_14 C15_10 1_555 1_555
H12_10 C15_10 1_555 1_555
I2_14 C6_14 1_555 1_555
I3_14 C8_14 1_555 1_555
N1_14 C10_14 1_555 1_555
N2_14 C7_14 1_555 1_555
N3_10 C13_14 1_555 1_555
C7_14 C8_14 1_555 1_555
C11_14 N1_14 1_555 1_555
C12_10 N1_14 1_555 1_555
C14_10 N3_10 1_555 1_555
C15_10 N3_10 1_555 1_555
C13_14 H14_18 1_555 1_555
N2_14 H15_8 1_555 1_555
N2_14 H16_14 1_555 1_555
C10_14 H17_14 1_555 1_555
C15_11 H10_11 1_555 1_555
H11_15 C15_11 1_555 1_555
H12_11 C15_11 1_555 1_555
C15_12 H10_12 1_555 1_555
H11_16 C15_12 1_555 1_555
H12_12 C15_12 1_555 1_555
C12_11 H4_11 1_555 1_555
H5_11 C12_11 1_555 1_555
H6_11 C12_11 1_555 1_555
C14_11 H7_9 1_555 1_555
H8_11 C14_11 1_555 1_555
H9_11 C14_11 1_555 1_555
C15_13 H10_13 1_555 1_555
H12_13 C15_13 1_555 1_555
C14_11 N3_11 1_555 1_555
C15_13 N3_11 1_555 1_555
C12_12 H4_12 1_555 1_555
H5_12 C12_12 1_555 1_555
H6_12 C12_12 1_555 1_555
C14_12 H7_10 1_555 1_555
H8_12 C14_12 1_555 1_555
H9_12 C14_12 1_555 1_555
C15_14 H10_14 1_555 1_555
H12_14 C15_14 1_555 1_555
C14_12 N3_12 1_555 1_555
C15_14 N3_12 1_555 1_555
O1_15 C1_15 1_555 1_555
O2_8 C1_15 1_555 1_555
C1_15 C2_15 1_555 1_555
C6_15 C4_21 1_555 1_555
C7_15 C6_15 1_555 1_555
C8_15 C2_15 1_555 1_555
C10_15 O7_15 1_555 1_555
C11_15 H1_15 1_555 1_555
H2_15 C11_15 1_555 1_555
H3_12 C11_15 1_555 1_555
C12_13 H4_13 1_555 1_555
H5_13 C12_13 1_555 1_555
H6_13 C12_13 1_555 1_555
C13_15 O8_15 1_555 1_555
C14_13 H7_11 1_555 1_555
H8_13 C14_13 1_555 1_555
H9_13 C14_13 1_555 1_555
I2_15 C6_15 1_555 1_555
I3_15 C8_15 1_555 1_555
N1_15 C10_15 1_555 1_555
N2_15 C7_15 1_555 1_555
N3_13 C13_15 1_555 1_555
C7_15 C8_15 1_555 1_555
C11_15 N1_15 1_555 1_555
C12_13 N1_15 1_555 1_555
C14_13 N3_13 1_555 1_555
N2_15 H15_12 1_555 1_555
N2_15 H16_15 1_555 1_555
C10_15 H17_15 1_555 1_555
O13_8 C9_15 1_555 1_555
O6_8 C9_16 1_555 1_555
O1_16 C1_16 1_555 1_555
O9_8 C1_16 1_555 1_555
C1_16 C2_16 1_555 1_555
C6_16 C4_22 1_555 1_555
C7_16 C6_16 1_555 1_555
C8_16 C2_16 1_555 1_555
C10_16 O7_16 1_555 1_555
C11_16 H1_16 1_555 1_555
H2_16 C11_16 1_555 1_555
H3_13 C11_16 1_555 1_555
C12_14 H4_14 1_555 1_555
H5_14 C12_14 1_555 1_555
H6_14 C12_14 1_555 1_555
C13_16 O8_16 1_555 1_555
C14_14 H7_12 1_555 1_555
H8_14 C14_14 1_555 1_555
H9_14 C14_14 1_555 1_555
I2_16 C6_16 1_555 1_555
I3_16 C8_16 1_555 1_555
N1_16 C10_16 1_555 1_555
N2_16 C7_16 1_555 1_555
N3_14 C13_16 1_555 1_555
C7_16 C8_16 1_555 1_555
C11_16 N1_16 1_555 1_555
C12_14 N1_16 1_555 1_555
C14_14 N3_14 1_555 1_555
N2_16 H15_13 1_555 1_555
N2_16 H16_16 1_555 1_555
C10_16 H17_16 1_555 1_555
O6_9 C9_17 1_555 1_555
O1_17 C1_17 1_555 1_555
O9_9 C1_17 1_555 1_555
C1_17 C2_17 1_555 1_555
C6_17 C4_23 1_555 1_555
C7_17 C6_17 1_555 1_555
C8_17 C2_17 1_555 1_555
C10_17 O7_17 1_555 1_555
C11_17 H1_17 1_555 1_555
H2_17 C11_17 1_555 1_555
H3_14 C11_17 1_555 1_555
C12_15 H4_15 1_555 1_555
H5_15 C12_15 1_555 1_555
H6_15 C12_15 1_555 1_555
C13_17 O8_17 1_555 1_555
C14_15 H7_13 1_555 1_555
H8_15 C14_15 1_555 1_555
H9_15 C14_15 1_555 1_555
I2_17 C6_17 1_555 1_555
I3_17 C8_17 1_555 1_555
N1_17 C10_17 1_555 1_555
N2_17 C7_17 1_555 1_555
N3_15 C13_17 1_555 1_555
C7_17 C8_17 1_555 1_555
C11_17 N1_17 1_555 1_555
C12_15 N1_17 1_555 1_555
C14_15 N3_15 1_555 1_555
N2_17 H15_14 1_555 1_555
N2_17 H16_17 1_555 1_555
C10_17 H17_17 1_555 1_555
O1_18 C1_18 1_555 1_555
O2_9 C1_18 1_555 1_555
C1_18 C2_18 1_555 1_555
C6_18 C4_24 1_555 1_555
C7_18 C6_18 1_555 1_555
C8_18 C2_18 1_555 1_555
C10_18 O7_18 1_555 1_555
C11_18 H1_18 1_555 1_555
H2_18 C11_18 1_555 1_555
H3_15 C11_18 1_555 1_555
C12_16 H4_16 1_555 1_555
H5_16 C12_16 1_555 1_555
H6_16 C12_16 1_555 1_555
C13_18 O8_18 1_555 1_555
C14_16 H7_14 1_555 1_555
H8_16 C14_16 1_555 1_555
H9_16 C14_16 1_555 1_555
I2_18 C6_18 1_555 1_555
I3_18 C8_18 1_555 1_555
N1_18 C10_18 1_555 1_555
N2_18 C7_18 1_555 1_555
N3_16 C13_18 1_555 1_555
C7_18 C8_18 1_555 1_555
C11_18 N1_18 1_555 1_555
C12_16 N1_18 1_555 1_555
C14_16 N3_16 1_555 1_555
N2_18 H15_15 1_555 1_555
N2_18 H16_18 1_555 1_555
C10_18 H17_18 1_555 1_555
O13_9 C9_18 1_555 1_555
C15_15 H10_15 1_555 1_555
H11_17 C15_15 1_555 1_555
H12_15 C15_15 1_555 1_555
C15_16 H10_16 1_555 1_555
H11_18 C15_16 1_555 1_555
H12_16 C15_16 1_555 1_555
C12_17 H4_17 1_555 1_555
H5_17 C12_17 1_555 1_555
H6_17 C12_17 1_555 1_555
C14_17 H7_17 1_555 1_555
H8_17 C14_17 1_555 1_555
H9_17 C14_17 1_555 1_555
C15_17 H10_17 1_555 1_555
H12_17 C15_17 1_555 1_555
C14_17 N3_17 1_555 1_555
C15_17 N3_17 1_555 1_555
C12_18 H4_18 1_555 1_555
H5_18 C12_18 1_555 1_555
H6_18 C12_18 1_555 1_555
C14_18 H7_18 1_555 1_555
H8_18 C14_18 1_555 1_555
H9_18 C14_18 1_555 1_555
C15_18 H10_18 1_555 1_555
H12_18 C15_18 1_555 1_555
C14_18 N3_18 1_555 1_555
C15_18 N3_18 1_555 1_555

#END
