
###############################################################################
#
# This file contains modified crystal structure data generated from the
# MOF subset of the Cambridge Structural Database (CSD) v543 
# hosted by the Cambridge Crystallographic Data Centre (CCDC).
#
# This work is licensed under the Creative Commons
# Attribution-NonCommercial-ShareAlike 4.0 International License.
# To view a copy of this license, visit
# http://creativecommons.org/licenses/by-nc-sa/4.0/
# or send a letter to
# Creative Commons, PO Box 1866, Mountain View, CA 94042, USA.
#
# CIF created using the CSD Python API on 29 September 2022
# The structure has been converted into the P1 space group
# The structure has a 3D framework
# The original CSD entry CUVHEH is in the rhombohedral crystal system
# The framework has been calculated to contain at least 10.0% void space
# The void calculation uses a probe of radius 1.32A, grid spacing 0.4
# H atom positions have been added when not included in the experimental data
#
###############################################################################

data_CUVHEH
_chemical_formula_moiety         '(C270 H306 I54 N54 Nd15 O142)n'
_symmetry_cell_setting           triclinic
_symmetry_space_group_name_H-M   'P 1'
_symmetry_Int_Tables_number      1
_space_group_name_Hall           'P 1'
loop_
_symmetry_equiv_pos_site_id
_symmetry_equiv_pos_as_xyz
1 x,y,z
_cell_length_a                   36.405(3)
_cell_length_b                   36.405(3)
_cell_length_c                   11.6941(17)
_cell_angle_alpha                90
_cell_angle_beta                 90
_cell_angle_gamma                120
_cell_volume                     13422.1
loop_
_atom_site_label
_atom_site_type_symbol
_atom_site_fract_x
_atom_site_fract_y
_atom_site_fract_z
Nd1 Nd 0.379739(9) 0.149835(8) 0.67494(2)
O1 O 0.41056(13) 0.22510(12) 0.6278(4)
O2 O 0.35941(13) 0.24258(12) 0.6379(4)
O3 O 0.44794(16) 0.40512(16) 0.8066(4)
O4 O 0.51227(16) 0.41441(17) 0.8166(4)
O5 O 0.34083(13) 0.17450(13) 0.7885(3)
O6 O 0.2983(2) 0.1905(2) 0.8777(4)
O7 O 0.45105(16) 0.17374(17) 0.5969(5)
O8 O 0.38179(17) 0.08582(15) 0.6092(5)
C1 C 0.39655(18) 0.25026(16) 0.6235(5)
C2 C 0.42751(18) 0.29674(16) 0.5983(5)
C3 C 0.44286(19) 0.32557(17) 0.6885(5)
C4 C 0.46549(18) 0.36912(17) 0.6688(5)
C5 C 0.4767(2) 0.39922(18) 0.7701(5)
C6 C 0.47359(19) 0.38358(17) 0.5562(5)
C7 C 0.4604(2) 0.35590(18) 0.4615(5)
C8 C 0.43724(19) 0.31199(17) 0.4871(4)
C9 C 0.3276(3) 0.1824(3) 0.8768(5)
C10 C 0.4715(5) 0.2009(5) 0.5285(14)
H1 H 0.4588 0.2148 0.4943
C11 C 0.5263(13) 0.2418(12) 0.400(3)
H2 H 0.5095 0.2552 0.3914
H3 H 0.5243 0.2263 0.3315
H4 H 0.5554 0.2630 0.4127
C12 C 0.5299(7) 0.1833(10) 0.546(3)
H5 H 0.5145 0.1683 0.6131
H6 H 0.5593 0.2012 0.5649
H7 H 0.5271 0.1634 0.4882
C13 C 0.3532(3) 0.0506(2) 0.5826(7)
H8 H 0.3261 0.0470 0.5766
C14 C 0.3974(3) 0.0195(3) 0.5693(11)
H9 H 0.4190 0.0483 0.5838
H10 H 0.4034 0.0100 0.4988
H11 H 0.3969 0.0017 0.6308
N1 N 0.4685(2) 0.37037(18) 0.3512(5)
N2 N 0.5106(4) 0.2124(6) 0.4982(17)
N3 N 0.3572(2) 0.0171(2) 0.5615(6)
I1 I 0.43329(2) 0.301897(17) 0.85625(4)
I2 I 0.506275(19) 0.449228(13) 0.52525(4)
I3 I 0.41719(2) 0.268103(15) 0.35274(4)
Nd2 Nd 0.286928(9) 0.183498(8) 0.65839(2)
Nd3 Nd 0.483168(8) 0.436763(12) 0.99173(2)
O9 O 0.30726(13) 0.09075(12) 0.6954(4)
O10 O 0.37615(23) 0.11461(16) 0.8601(4)
O11 O 0.43119(23) 0.17894(16) 0.8501(4)
O12 O 0.32584(13) 0.15883(13) 0.5448(3)
O13 O 0.3684(2) 0.1428(2) 0.4556(4)
H15 H 0.34231 0.182263 0.957766
H16 H 0.458489 0.34945 0.285241
H17 H 0.484519 0.402022 0.335352
Nd1_2 Nd 0.850165(8) 0.229904(12) 0.67494(2)
O1_2 O 0.77490(12) 0.18546(18) 0.6278(4)
O2_2 O 0.75742(12) 0.11683(18) 0.6379(4)
O3_2 O 0.59488(16) 0.04282(23) 0.8066(4)
O4_2 O 0.58559(17) 0.09786(23) 0.8166(4)
O5_2 O 0.82550(13) 0.16633(18) 0.7885(3)
O6_2 O 0.8095(2) 0.1078(3) 0.8777(4)
O7_2 O 0.82626(17) 0.27731(23) 0.5969(5)
O8_2 O 0.91418(15) 0.29597(23) 0.6092(5)
C1_2 C 0.74974(16) 0.14629(24) 0.6235(5)
C2_2 C 0.70326(16) 0.13077(24) 0.5983(5)
C3_2 C 0.67443(17) 0.11729(25) 0.6885(5)
C4_2 C 0.63088(17) 0.09637(25) 0.6688(5)
C5_2 C 0.60078(18) 0.07748(27) 0.7701(5)
C6_2 C 0.61642(17) 0.09001(25) 0.5562(5)
C7_2 C 0.64410(18) 0.10450(27) 0.4615(5)
C8_2 C 0.68801(17) 0.12525(25) 0.4871(4)
C9_2 C 0.8176(3) 0.1452(4) 0.8768(5)
C10_2 C 0.7991(5) 0.2706(7) 0.5285(14)
H1_2 H 0.7852 0.2440 0.4943
C11_2 C 0.7582(12) 0.2845(18) 0.400(3)
H2_2 H 0.7448 0.2543 0.3914
H3_2 H 0.7737 0.2980 0.3315
H4_2 H 0.7370 0.2924 0.4127
C12_2 C 0.8167(10) 0.3466(12) 0.546(3)
H5_2 H 0.8317 0.3462 0.6131
H6_2 H 0.7988 0.3581 0.5649
H7_2 H 0.8366 0.3637 0.4882
C13_2 C 0.9494(2) 0.3026(4) 0.5826(7)
H8_2 H 0.9530 0.2791 0.5766
C14_2 C 0.9805(3) 0.3779(4) 0.5693(11)
H9_2 H 0.9517 0.3707 0.5838
H10_2 H 0.9900 0.3934 0.4988
H11_2 H 0.9983 0.3952 0.6308
N1_2 N 0.62963(18) 0.09813(27) 0.3512(5)
N2_2 N 0.7876(6) 0.2982(7) 0.4982(17)
N3_2 N 0.9829(2) 0.3401(3) 0.5615(6)
I1_2 I 0.698103(17) 0.131393(26) 0.85625(4)
I2_2 I 0.550772(13) 0.057047(23) 0.52525(4)
I3_2 I 0.731897(15) 0.149087(25) 0.35274(4)
Nd2_2 Nd 0.816502(8) 0.103429(12) 0.65839(2)
Nd3_2 Nd 0.563237(12) 0.046406(14) 0.99173(2)
O9_2 O 0.90925(12) 0.21650(18) 0.6954(4)
O10_2 O 0.88539(16) 0.26155(28) 0.8601(4)
O11_2 O 0.82106(16) 0.25226(28) 0.8501(4)
O12_2 O 0.84117(13) 0.16700(18) 0.5448(3)
O13_2 O 0.8572(2) 0.2255(3) 0.4556(4)
H15_2 H 0.817737 0.160046 0.957766
H16_2 H 0.65055 0.109039 0.285241
H17_2 H 0.597978 0.0824966 0.335352
Nd1_3 Nd 0.770096(12) 0.620261(9) 0.67494(2)
O1_3 O 0.81454(18) 0.58944(13) 0.6278(4)
O2_3 O 0.88317(18) 0.64059(13) 0.6379(4)
O3_3 O 0.95718(23) 0.55206(16) 0.8066(4)
O4_3 O 0.90214(23) 0.48773(16) 0.8166(4)
O5_3 O 0.83367(18) 0.65917(13) 0.7885(3)
O6_3 O 0.8922(3) 0.7017(2) 0.8777(4)
O7_3 O 0.72269(23) 0.54895(16) 0.5969(5)
O8_3 O 0.70403(23) 0.61821(17) 0.6092(5)
C1_3 C 0.85371(24) 0.60345(18) 0.6235(5)
C2_3 C 0.86923(24) 0.57249(18) 0.5983(5)
C3_3 C 0.88271(25) 0.55714(19) 0.6885(5)
C4_3 C 0.90363(25) 0.53451(18) 0.6688(5)
C5_3 C 0.92252(27) 0.5233(2) 0.7701(5)
C6_3 C 0.90999(25) 0.52641(19) 0.5562(5)
C7_3 C 0.89550(27) 0.5396(2) 0.4615(5)
C8_3 C 0.87475(25) 0.56276(19) 0.4871(4)
C9_3 C 0.8548(4) 0.6724(3) 0.8768(5)
C10_3 C 0.7294(7) 0.5285(5) 0.5285(14)
H1_3 H 0.7560 0.5412 0.4943
C11_3 C 0.7155(18) 0.4737(13) 0.400(3)
H2_3 H 0.7457 0.4905 0.3914
H3_3 H 0.7020 0.4757 0.3315
H4_3 H 0.7076 0.4446 0.4127
C12_3 C 0.6534(12) 0.4701(7) 0.546(3)
H5_3 H 0.6538 0.4855 0.6131
H6_3 H 0.6419 0.4407 0.5649
H7_3 H 0.6363 0.4729 0.4882
C13_3 C 0.6974(4) 0.6468(3) 0.5826(7)
H8_3 H 0.7209 0.6739 0.5766
C14_3 C 0.6221(4) 0.6026(3) 0.5693(11)
H9_3 H 0.6293 0.5810 0.5838
H10_3 H 0.6066 0.5966 0.4988
H11_3 H 0.6048 0.6031 0.6308
C15 C 0.6548(5) 0.6791(4) 0.5408(14)
H12 H 0.6822 0.7043 0.5371
H13 H 0.6387 0.6818 0.6020
H14 H 0.6401 0.6754 0.4698
N1_3 N 0.90187(27) 0.5315(2) 0.3512(5)
N2_3 N 0.7018(7) 0.4894(4) 0.4982(17)
N3_3 N 0.6599(3) 0.6428(2) 0.5615(6)
I1_3 I 0.868607(26) 0.56671(2) 0.85625(4)
I2_3 I 0.942953(23) 0.493725(19) 0.52525(4)
I3_3 I 0.850913(25) 0.58281(2) 0.35274(4)
Nd2_3 Nd 0.896571(12) 0.713072(9) 0.65839(2)
Nd3_3 Nd 0.953594(14) 0.516832(8) 0.99173(2)
O9_3 O 0.78350(18) 0.69274(13) 0.6954(4)
O10_3 O 0.73845(28) 0.62385(23) 0.8601(4)
O11_3 O 0.74774(28) 0.56881(23) 0.8501(4)
O12_3 O 0.83300(18) 0.67416(13) 0.5448(3)
O13_3 O 0.7745(3) 0.6316(2) 0.4556(4)
H15_3 H 0.839954 0.65769 0.957766
H16_3 H 0.890961 0.541511 0.285241
H17_3 H 0.917503 0.515481 0.335352
Nd1_4 Nd 0.046406(9) 0.483168(8) 0.00827(2)
O3_4 O 0.11461(16) 0.73845(16) 0.1399(4)
O4_4 O 0.17894(16) 0.74774(17) 0.1499(4)
O5_4 O 0.00750(13) 0.50783(13) 0.1218(3)
C3_4 C 0.10953(19) 0.65890(17) 0.0218(5)
C4_4 C 0.13216(18) 0.70245(17) 0.0021(5)
C5_4 C 0.1434(2) 0.73255(18) 0.1034(5)
I1_4 I 0.09996(2) 0.635230(17) 0.18958(4)
Nd3_4 Nd 0.149835(8) 0.770096(12) 0.32506(2)
O10_4 O 0.04282(23) 0.44794(16) 0.1934(4)
O11_4 O 0.09786(23) 0.51227(16) 0.1834(4)
H15_4 H 0.00897631 0.515597 0.291099
H8_4 H 0.9928 0.3803 0.9099
C15_2 C 0.9876(4) 0.3090(3) 0.8741(14)
H12_2 H 0.9624 0.3112 0.8704
H13_2 H 0.9849 0.2902 0.9353
H14_2 H 0.9913 0.2980 0.8031
O12_4 O 0.99250(13) 0.49217(13) 0.8782(3)
Nd1_5 Nd 0.516832(8) 0.563237(12) 0.00827(2)
O3_5 O 0.26155(16) 0.37615(23) 0.1399(4)
O4_5 O 0.25226(17) 0.43119(23) 0.1499(4)
O5_5 O 0.49217(13) 0.49966(18) 0.1218(3)
O6_4 O 0.4762(2) 0.4411(3) 0.2110(4)
C3_5 C 0.34110(17) 0.45062(25) 0.0218(5)
C4_5 C 0.29755(17) 0.42970(25) 0.0021(5)
C5_5 C 0.26745(18) 0.41081(27) 0.1034(5)
C9_4 C 0.4843(3) 0.4785(4) 0.2101(5)
I1_5 I 0.364770(17) 0.464726(26) 0.18958(4)
Nd3_5 Nd 0.229904(12) 0.379739(14) 0.32506(2)
O9_4 O 0.57591(12) 0.54984(18) 0.0288(4)
O10_5 O 0.55206(16) 0.59488(28) 0.1934(4)
O11_5 O 0.48773(16) 0.58559(28) 0.1834(4)
H15_5 H 0.484403 0.493379 0.291099
O1_4 O 0.44157(12) 0.51879(18) 0.9611(4)
O2_4 O 0.42409(12) 0.45016(18) 0.9712(4)
O7_4 O 0.49293(17) 0.61064(23) 0.9302(5)
O8_4 O 0.58085(15) 0.62930(23) 0.9425(5)
C1_4 C 0.41641(16) 0.47962(24) 0.9568(5)
C2_4 C 0.36993(16) 0.46410(24) 0.9316(5)
C6_4 C 0.28309(17) 0.42334(25) 0.8895(5)
C7_4 C 0.31077(18) 0.43783(27) 0.7948(5)
C8_4 C 0.35468(17) 0.45858(25) 0.8204(4)
C10_4 C 0.4658(5) 0.6039(7) 0.8618(14)
H1_4 H 0.4519 0.5773 0.8276
C11_4 C 0.4249(12) 0.6178(18) 0.733(3)
H2_4 H 0.4115 0.5876 0.7247
H3_4 H 0.4404 0.6313 0.6648
H4_4 H 0.4037 0.6257 0.7460
C12_4 C 0.4834(10) 0.6799(12) 0.879(3)
H5_4 H 0.4984 0.6795 0.9464
H6_4 H 0.4655 0.6914 0.8982
H7_4 H 0.5033 0.6970 0.8215
C13_4 C 0.6161(2) 0.6359(4) 0.9159(7)
H8_5 H 0.6197 0.6124 0.9099
C14_4 C 0.6472(3) 0.7112(4) 0.9026(11)
H9_4 H 0.6184 0.7040 0.9171
H10_4 H 0.6567 0.7267 0.8321
H11_4 H 0.6650 0.7285 0.9641
C15_3 C 0.6910(3) 0.6785(5) 0.8741(14)
H12_3 H 0.6888 0.6511 0.8704
H13_3 H 0.7098 0.6946 0.9353
H14_3 H 0.7020 0.6932 0.8031
N1_4 N 0.29630(18) 0.43146(27) 0.6845(5)
N2_4 N 0.4543(6) 0.6315(7) 0.8315(17)
N3_4 N 0.6496(2) 0.6734(3) 0.8948(6)
I2_4 I 0.217439(13) 0.390380(23) 0.85858(4)
I3_4 I 0.398564(15) 0.482420(25) 0.68607(4)
O12_5 O 0.50783(13) 0.50034(18) 0.8782(3)
O13_4 O 0.5238(2) 0.5589(3) 0.7890(4)
H16_4 H 0.317217 0.442372 0.618575
H17_4 H 0.264645 0.41583 0.668685
H8_6 H 0.3876 0.0072 0.9099
C15_4 C 0.3215(5) 0.0124(4) 0.8741(14)
H12_4 H 0.3489 0.0376 0.8704
H13_4 H 0.3054 0.0151 0.9353
H14_4 H 0.3068 0.0087 0.8031
O12_6 O 0.49966(18) 0.00750(13) 0.8782(3)
Nd1_6 Nd 0.436763(12) 0.953594(9) 0.00827(2)
O3_6 O 0.62385(23) 0.88539(16) 0.1399(4)
O4_6 O 0.56881(23) 0.82106(16) 0.1499(4)
O5_6 O 0.50034(18) 0.99250(13) 0.1218(3)
C3_6 C 0.54938(25) 0.89047(19) 0.0218(5)
C4_6 C 0.57030(25) 0.86784(18) 0.0021(5)
C5_6 C 0.58919(27) 0.8566(2) 0.1034(5)
I1_6 I 0.535274(26) 0.90004(2) 0.18958(4)
Nd3_6 Nd 0.620261(14) 0.850165(8) 0.32506(2)
O10_6 O 0.40512(28) 0.95718(23) 0.1934(4)
O11_6 O 0.41441(28) 0.90214(23) 0.1834(4)
H15_6 H 0.506621 0.991024 0.291099
O3_7 O 0.78127(16) 0.07179(16) 0.4733(4)
O4_7 O 0.84560(16) 0.08108(17) 0.4833(4)
C4_7 C 0.79882(18) 0.03579(17) 0.3355(5)
C5_7 C 0.8100(2) 0.06589(18) 0.4368(5)
C6_5 C 0.80692(19) 0.05025(17) 0.2229(5)
C7_5 C 0.7937(2) 0.02257(18) 0.1282(5)
N1_5 N 0.8018(2) 0.03704(18) 0.0179(5)
I2_5 I 0.839608(19) 0.115895(13) 0.19192(4)
H17_5 H 0.817852 0.0686886 0.00201839
Nd1_7 Nd 0.713072(9) 0.816502(8) 0.34161(2)
O1_5 O 0.74389(13) 0.89177(12) 0.2945(4)
O2_5 O 0.69274(13) 0.90925(12) 0.3046(4)
O5_7 O 0.67416(13) 0.84117(13) 0.4552(3)
O6_5 O 0.6316(2) 0.8572(2) 0.5444(4)
O7_5 O 0.78438(16) 0.84041(17) 0.2636(5)
O8_5 O 0.71512(17) 0.75249(15) 0.2759(5)
C1_5 C 0.72988(18) 0.91693(16) 0.2902(5)
C2_5 C 0.76084(18) 0.96341(16) 0.2650(5)
C3_7 C 0.77619(19) 0.99224(17) 0.3552(5)
C8_5 C 0.77057(19) 0.97866(17) 0.1538(4)
C9_5 C 0.6609(3) 0.8491(3) 0.5435(5)
C10_5 C 0.8048(5) 0.8676(5) 0.1952(14)
H1_5 H 0.7921 0.8815 0.1610
C11_5 C 0.8596(13) 0.9085(12) 0.067(3)
H2_5 H 0.8428 0.9219 0.0581
H4_5 H 0.8887 0.9297 0.0794
C12_5 C 0.8632(7) 0.8500(10) 0.213(3)
H5_5 H 0.8478 0.8350 0.2798
H6_5 H 0.8926 0.8679 0.2316
H7_5 H 0.8604 0.8301 0.1549
C13_5 C 0.6865(3) 0.7173(2) 0.2493(7)
H8_7 H 0.6594 0.7137 0.2433
C14_5 C 0.7307(3) 0.6862(3) 0.2360(11)
H9_5 H 0.7523 0.7150 0.2505
H10_5 H 0.7367 0.6767 0.1655
H11_5 H 0.7302 0.6684 0.2975
C15_5 C 0.6542(4) 0.6424(3) 0.2075(14)
H12_5 H 0.6290 0.6446 0.2038
H13_5 H 0.6515 0.6236 0.2687
H14_5 H 0.6579 0.6314 0.1365
N2_5 N 0.8439(4) 0.8791(6) 0.1649(17)
N3_5 N 0.6905(2) 0.6838(2) 0.2282(6)
I1_7 I 0.76662(2) 0.968564(17) 0.52292(4)
I3_5 I 0.75052(2) 0.934770(15) 0.01941(4)
O9_5 O 0.64059(13) 0.75742(12) 0.3621(4)
O10_7 O 0.70949(23) 0.78127(16) 0.5267(4)
O11_7 O 0.76453(23) 0.84560(16) 0.5167(4)
O12_7 O 0.65917(13) 0.82550(13) 0.2115(3)
O13_5 O 0.7017(2) 0.8095(2) 0.1223(4)
H15_7 H 0.675643 0.84893 0.624432
Nd1_8 Nd 0.183498(8) 0.896571(12) 0.34161(2)
O1_6 O 0.10823(12) 0.85213(18) 0.2945(4)
O2_6 O 0.09075(12) 0.78350(18) 0.3046(4)
O5_8 O 0.15883(13) 0.83300(18) 0.4552(3)
O6_6 O 0.1428(2) 0.7745(3) 0.5444(4)
O7_6 O 0.15959(17) 0.94398(23) 0.2636(5)
O8_6 O 0.24751(15) 0.96264(23) 0.2759(5)
C1_6 C 0.08307(16) 0.81296(24) 0.2902(5)
C2_6 C 0.03659(16) 0.79744(24) 0.2650(5)
C3_8 C 0.00776(17) 0.78396(25) 0.3552(5)
C8_6 C 0.02134(17) 0.79192(25) 0.1538(4)
C9_6 C 0.1509(3) 0.8119(4) 0.5435(5)
C10_6 C 0.1324(5) 0.9373(7) 0.1952(14)
H1_6 H 0.1185 0.9107 0.1610
C11_6 C 0.0915(12) 0.9512(18) 0.067(3)
H2_6 H 0.0781 0.9210 0.0581
H4_6 H 0.0703 0.9591 0.0794
C13_6 C 0.2827(2) 0.9693(4) 0.2493(7)
H8_8 H 0.2863 0.9458 0.2433
H12_6 H 0.3554 0.9845 0.2038
N2_6 N 0.1209(6) 0.9649(7) 0.1649(17)
I1_8 I 0.031436(17) 0.798060(26) 0.52292(4)
I3_6 I 0.065230(15) 0.815754(25) 0.01941(4)
O9_6 O 0.24258(12) 0.88317(18) 0.3621(4)
O10_8 O 0.21873(16) 0.92821(28) 0.5267(4)
O11_8 O 0.15440(16) 0.91892(28) 0.5167(4)
O12_8 O 0.17450(13) 0.83367(18) 0.2115(3)
O13_6 O 0.1905(2) 0.8922(3) 0.1223(4)
H15_8 H 0.15107 0.826713 0.624432
O3_8 O 0.92821(16) 0.70949(23) 0.4733(4)
O4_8 O 0.91892(17) 0.76453(23) 0.4833(4)
C4_8 C 0.96421(17) 0.76304(25) 0.3355(5)
C5_8 C 0.93411(18) 0.74415(27) 0.4368(5)
C6_6 C 0.94975(17) 0.75668(25) 0.2229(5)
C7_6 C 0.97743(18) 0.77117(27) 0.1282(5)
N1_6 N 0.96296(18) 0.76480(27) 0.0179(5)
I2_6 I 0.884105(13) 0.723714(23) 0.19192(4)
H17_6 H 0.931311 0.749163 0.00201839
Nd1_9 Nd 0.103429(12) 0.286928(9) 0.34161(2)
O1_7 O 0.14787(18) 0.25611(13) 0.2945(4)
O2_7 O 0.21650(18) 0.30726(13) 0.3046(4)
O3_9 O 0.29051(23) 0.21873(16) 0.4733(4)
O4_9 O 0.23547(23) 0.15440(16) 0.4833(4)
O5_9 O 0.16700(18) 0.32584(13) 0.4552(3)
O6_7 O 0.2255(3) 0.3684(2) 0.5444(4)
O7_7 O 0.05602(23) 0.21562(16) 0.2636(5)
O8_7 O 0.03736(23) 0.28488(17) 0.2759(5)
C1_7 C 0.18704(24) 0.27012(18) 0.2902(5)
C2_7 C 0.20256(24) 0.23916(18) 0.2650(5)
C3_9 C 0.21604(25) 0.22381(19) 0.3552(5)
C4_9 C 0.23696(25) 0.20118(18) 0.3355(5)
C5_9 C 0.25585(27) 0.1900(2) 0.4368(5)
C6_7 C 0.24332(25) 0.19308(19) 0.2229(5)
C7_7 C 0.22883(27) 0.2063(2) 0.1282(5)
C8_7 C 0.20808(25) 0.22943(19) 0.1538(4)
C9_7 C 0.1881(4) 0.3391(3) 0.5435(5)
C10_7 C 0.0627(7) 0.1952(5) 0.1952(14)
H1_7 H 0.0893 0.2079 0.1610
C11_7 C 0.0488(18) 0.1404(13) 0.067(3)
H2_7 H 0.0790 0.1572 0.0581
H4_7 H 0.0409 0.1113 0.0794
C13_7 C 0.0307(4) 0.3135(3) 0.2493(7)
H8_9 H 0.0542 0.3406 0.2433
H12_7 H 0.0155 0.3710 0.2038
N1_7 N 0.23520(27) 0.1982(2) 0.0179(5)
N2_7 N 0.0351(7) 0.1561(4) 0.1649(17)
I1_9 I 0.201940(26) 0.23338(2) 0.52292(4)
I2_7 I 0.276286(23) 0.160392(19) 0.19192(4)
I3_7 I 0.184246(25) 0.24948(2) 0.01941(4)
O9_7 O 0.11683(18) 0.35941(13) 0.3621(4)
O10_9 O 0.07179(28) 0.29051(23) 0.5267(4)
O11_9 O 0.08108(28) 0.23547(23) 0.5167(4)
O12_9 O 0.16633(18) 0.34083(13) 0.2115(3)
O13_7 O 0.1078(3) 0.2983(2) 0.1223(4)
H15_9 H 0.173287 0.324357 0.624432
H17_7 H 0.250837 0.182148 0.00201839
O1_8 O 0.58944(13) 0.77490(12) 0.3722(4)
O7_8 O 0.54895(16) 0.82626(17) 0.4031(5)
O8_8 O 0.61821(17) 0.91418(15) 0.3908(5)
C1_8 C 0.60345(18) 0.74974(16) 0.3765(5)
C2_8 C 0.57249(18) 0.70326(16) 0.4017(5)
C3_10 C 0.55714(19) 0.67443(17) 0.3115(5)
C4_10 C 0.53451(18) 0.63088(17) 0.3312(5)
C5_10 C 0.5233(2) 0.60078(18) 0.2299(5)
C6_8 C 0.52641(19) 0.61642(17) 0.4438(5)
C7_8 C 0.5396(2) 0.64410(18) 0.5385(5)
C8_8 C 0.56276(19) 0.68801(17) 0.5129(4)
C9_8 C 0.6724(3) 0.8176(3) 0.1232(5)
C10_8 C 0.5285(5) 0.7991(5) 0.4715(14)
H1_8 H 0.5412 0.7852 0.5057
C11_8 C 0.4737(13) 0.7582(12) 0.600(3)
H2_8 H 0.4905 0.7448 0.6086
H3_5 H 0.4757 0.7737 0.6685
H4_8 H 0.4446 0.7370 0.5873
C12_6 C 0.4701(7) 0.8167(10) 0.454(3)
H5_6 H 0.4855 0.8317 0.3869
H6_6 H 0.4407 0.7988 0.4351
H7_6 H 0.4729 0.8366 0.5118
C13_8 C 0.6468(3) 0.9494(2) 0.4174(7)
H8_10 H 0.6739 0.9530 0.4234
C14_6 C 0.6026(3) 0.9805(3) 0.4307(11)
H9_6 H 0.5810 0.9517 0.4162
H10_6 H 0.5966 0.9900 0.5012
H11_6 H 0.6031 0.9983 0.3692
N1_8 N 0.5315(2) 0.62963(18) 0.6488(5)
N2_8 N 0.4894(4) 0.7876(6) 0.5018(17)
N3_6 N 0.6428(2) 0.9829(2) 0.4385(6)
I1_10 I 0.56671(2) 0.698103(17) 0.14375(4)
I2_8 I 0.493725(19) 0.550772(13) 0.47475(4)
I3_8 I 0.58281(2) 0.731897(15) 0.64726(4)
H15_10 H 0.65769 0.817737 0.0422343
H16_5 H 0.541511 0.65055 0.714759
H17_8 H 0.515481 0.597978 0.664648
O1_9 O 0.22510(12) 0.81454(18) 0.3722(4)
O7_9 O 0.17374(17) 0.72269(23) 0.4031(5)
O8_9 O 0.08582(15) 0.70403(23) 0.3908(5)
C1_9 C 0.25026(16) 0.85371(24) 0.3765(5)
C2_9 C 0.29674(16) 0.86923(24) 0.4017(5)
C3_11 C 0.32557(17) 0.88271(25) 0.3115(5)
C4_11 C 0.36912(17) 0.90363(25) 0.3312(5)
C5_11 C 0.39922(18) 0.92252(27) 0.2299(5)
C6_9 C 0.38358(17) 0.90999(25) 0.4438(5)
C7_9 C 0.35590(18) 0.89550(27) 0.5385(5)
C8_9 C 0.31199(17) 0.87475(25) 0.5129(4)
C9_9 C 0.1824(3) 0.8548(4) 0.1232(5)
C10_9 C 0.2009(5) 0.7294(7) 0.4715(14)
H1_9 H 0.2148 0.7560 0.5057
C11_9 C 0.2418(12) 0.7155(18) 0.600(3)
H2_9 H 0.2552 0.7457 0.6086
H3_6 H 0.2263 0.7020 0.6685
H4_9 H 0.2630 0.7076 0.5873
C12_7 C 0.1833(10) 0.6534(12) 0.454(3)
H5_7 H 0.1683 0.6538 0.3869
H6_7 H 0.2012 0.6419 0.4351
H7_7 H 0.1634 0.6363 0.5118
C13_9 C 0.0506(2) 0.6974(4) 0.4174(7)
H8_11 H 0.0470 0.7209 0.4234
C14_7 C 0.0195(3) 0.6221(4) 0.4307(11)
H9_7 H 0.0483 0.6293 0.4162
H10_7 H 0.0100 0.6066 0.5012
H11_7 H 0.0017 0.6048 0.3692
N1_9 N 0.37037(18) 0.90187(27) 0.6488(5)
N2_9 N 0.2124(6) 0.7018(7) 0.5018(17)
N3_7 N 0.0171(2) 0.6599(3) 0.4385(6)
I1_11 I 0.301897(17) 0.868607(26) 0.14375(4)
I2_9 I 0.449228(13) 0.942953(23) 0.47475(4)
I3_9 I 0.268103(15) 0.850913(25) 0.64726(4)
H15_11 H 0.182263 0.839954 0.0422343
H16_6 H 0.34945 0.890961 0.714759
H17_9 H 0.402022 0.917503 0.664648
O1_10 O 0.18546(18) 0.41056(13) 0.3722(4)
O7_10 O 0.27731(23) 0.45105(16) 0.4031(5)
O8_10 O 0.29597(23) 0.38179(17) 0.3908(5)
C1_10 C 0.14629(24) 0.39655(18) 0.3765(5)
C2_10 C 0.13077(24) 0.42751(18) 0.4017(5)
C3_12 C 0.11729(25) 0.44286(19) 0.3115(5)
C4_12 C 0.09637(25) 0.46549(18) 0.3312(5)
C5_12 C 0.07748(27) 0.4767(2) 0.2299(5)
C6_10 C 0.09001(25) 0.47359(19) 0.4438(5)
C7_10 C 0.10450(27) 0.4604(2) 0.5385(5)
C8_10 C 0.12525(25) 0.43724(19) 0.5129(4)
C9_10 C 0.1452(4) 0.3276(3) 0.1232(5)
C10_10 C 0.2706(7) 0.4715(5) 0.4715(14)
H1_10 H 0.2440 0.4588 0.5057
C11_10 C 0.2845(18) 0.5263(13) 0.600(3)
H2_10 H 0.2543 0.5095 0.6086
H3_7 H 0.2980 0.5243 0.6685
H4_10 H 0.2924 0.5554 0.5873
C12_8 C 0.3466(12) 0.5299(7) 0.454(3)
H5_8 H 0.3462 0.5145 0.3869
H6_8 H 0.3581 0.5593 0.4351
H7_8 H 0.3637 0.5271 0.5118
C13_10 C 0.3026(4) 0.3532(3) 0.4174(7)
H8_12 H 0.2791 0.3261 0.4234
C14_8 C 0.3779(4) 0.3974(3) 0.4307(11)
H9_8 H 0.3707 0.4190 0.4162
H10_8 H 0.3934 0.4034 0.5012
H11_8 H 0.3952 0.3969 0.3692
C15_6 C 0.3452(5) 0.3209(4) 0.4592(14)
H12_8 H 0.3178 0.2957 0.4629
H13_6 H 0.3613 0.3182 0.3980
H14_6 H 0.3599 0.3246 0.5302
N1_10 N 0.09813(27) 0.4685(2) 0.6488(5)
N2_10 N 0.2982(7) 0.5106(4) 0.5018(17)
N3_8 N 0.3401(3) 0.3572(2) 0.4385(6)
I1_12 I 0.131393(26) 0.43329(2) 0.14375(4)
I2_10 I 0.057047(23) 0.506275(19) 0.47475(4)
I3_10 I 0.149087(25) 0.41719(2) 0.64726(4)
H15_12 H 0.160046 0.34231 0.0422343
H16_7 H 0.109039 0.458489 0.714759
H17_10 H 0.0824966 0.484519 0.664648
H8_13 H 0.0072 0.6197 0.0901
C15_7 C 0.0124(4) 0.6910(3) 0.1259(14)
H12_9 H 0.0376 0.6888 0.1296
H13_7 H 0.0151 0.7098 0.0647
H14_7 H 0.0087 0.7020 0.1969
C3_13 C 0.89047(19) 0.34110(17) 0.9782(5)
C4_13 C 0.86784(18) 0.29755(17) 0.9979(5)
C5_13 C 0.8566(2) 0.26745(18) 0.8966(5)
I1_13 I 0.90004(2) 0.364770(17) 0.81042(4)
H15_13 H 0.991024 0.484403 0.708901
O1_11 O 0.55843(12) 0.48121(18) 0.0389(4)
O7_11 O 0.50707(17) 0.38936(23) 0.0698(5)
O8_11 O 0.41915(15) 0.37070(23) 0.0575(5)
C1_11 C 0.58359(16) 0.52038(24) 0.0432(5)
C2_11 C 0.63007(16) 0.53590(24) 0.0684(5)
C6_11 C 0.71691(17) 0.57666(25) 0.1105(5)
C7_11 C 0.68923(18) 0.56217(27) 0.2052(5)
C8_11 C 0.64532(17) 0.54142(25) 0.1796(4)
C10_11 C 0.5342(5) 0.3961(7) 0.1382(14)
H1_11 H 0.5481 0.4227 0.1724
C11_11 C 0.5751(12) 0.3822(18) 0.267(3)
H2_11 H 0.5885 0.4124 0.2753
H3_8 H 0.5596 0.3687 0.3352
H4_11 H 0.5963 0.3743 0.2540
C12_9 C 0.5166(10) 0.3201(12) 0.121(3)
H5_9 H 0.5016 0.3205 0.0536
H6_9 H 0.5345 0.3086 0.1018
H7_9 H 0.4967 0.3030 0.1785
C13_11 C 0.3839(2) 0.3641(4) 0.0841(7)
H8_14 H 0.3803 0.3876 0.0901
C14_9 C 0.3528(3) 0.2888(4) 0.0974(11)
H9_9 H 0.3816 0.2960 0.0829
H10_9 H 0.3433 0.2733 0.1679
H11_9 H 0.3350 0.2715 0.0359
C15_8 C 0.3090(3) 0.3215(5) 0.1259(14)
H12_10 H 0.3112 0.3489 0.1296
H13_8 H 0.2902 0.3054 0.0647
H14_8 H 0.2980 0.3068 0.1969
N1_11 N 0.70370(18) 0.56854(27) 0.3155(5)
N2_11 N 0.5457(6) 0.3685(7) 0.1685(17)
N3_9 N 0.3504(2) 0.3266(3) 0.1052(6)
I2_11 I 0.782561(13) 0.609620(23) 0.14142(4)
I3_11 I 0.601436(15) 0.517580(25) 0.31393(4)
H16_8 H 0.682783 0.557628 0.381425
H17_11 H 0.735355 0.58417 0.331315
C3_14 C 0.65890(17) 0.54938(25) 0.9782(5)
C4_14 C 0.70245(17) 0.57030(25) 0.9979(5)
C5_14 C 0.73255(18) 0.58919(27) 0.8966(5)
C9_11 C 0.5157(3) 0.5215(4) 0.7899(5)
I1_14 I 0.635230(17) 0.535274(26) 0.81042(4)
H15_14 H 0.515597 0.506621 0.708901
C3_15 C 0.45062(25) 0.10953(19) 0.9782(5)
C4_15 C 0.42970(25) 0.13216(18) 0.9979(5)
C5_15 C 0.41081(27) 0.1434(2) 0.8966(5)
I1_15 I 0.464726(26) 0.09996(2) 0.81042(4)
H15_15 H 0.493379 0.00897631 0.708901
H8_15 H 0.6124 0.9928 0.0901
C15_9 C 0.6785(5) 0.9876(4) 0.1259(14)
H12_11 H 0.6511 0.9624 0.1296
H13_9 H 0.6946 0.9849 0.0647
H14_9 H 0.6932 0.9913 0.1969
O1_12 O 0.25611(13) 0.10823(12) 0.7055(4)
O7_12 O 0.21562(16) 0.15959(17) 0.7364(5)
O8_12 O 0.28488(17) 0.24751(15) 0.7241(5)
C1_12 C 0.27012(18) 0.08307(16) 0.7098(5)
C2_12 C 0.23916(18) 0.03659(16) 0.7350(5)
C3_16 C 0.22381(19) 0.00776(17) 0.6448(5)
C8_12 C 0.22943(19) 0.02134(17) 0.8462(4)
C9_12 C 0.3391(3) 0.1509(3) 0.4565(5)
C10_12 C 0.1952(5) 0.1324(5) 0.8048(14)
H1_12 H 0.2079 0.1185 0.8390
C11_12 C 0.1404(13) 0.0915(12) 0.933(3)
H2_12 H 0.1572 0.0781 0.9419
H4_12 H 0.1113 0.0703 0.9206
C12_10 C 0.1368(7) 0.1500(10) 0.787(3)
H5_10 H 0.1522 0.1650 0.7202
H6_10 H 0.1074 0.1321 0.7684
H7_10 H 0.1396 0.1699 0.8451
C13_12 C 0.3135(3) 0.2827(2) 0.7507(7)
H8_16 H 0.3406 0.2863 0.7567
C14_10 C 0.2693(3) 0.3138(3) 0.7640(11)
H9_10 H 0.2477 0.2850 0.7495
H10_10 H 0.2633 0.3233 0.8345
H11_10 H 0.2698 0.3316 0.7025
C15_10 C 0.3458(4) 0.3576(3) 0.7925(14)
H12_12 H 0.3710 0.3554 0.7962
H13_10 H 0.3485 0.3764 0.7313
H14_10 H 0.3421 0.3686 0.8635
N2_12 N 0.1561(4) 0.1209(6) 0.8351(17)
N3_10 N 0.3095(2) 0.3162(2) 0.7718(6)
I1_16 I 0.23338(2) 0.031436(17) 0.47708(4)
I3_12 I 0.24948(2) 0.065230(15) 0.98059(4)
H15_16 H 0.324357 0.15107 0.375568
C4_16 C 0.20118(18) 0.96421(17) 0.6645(5)
C5_16 C 0.1900(2) 0.93411(18) 0.5632(5)
C6_12 C 0.19308(19) 0.94975(17) 0.7771(5)
C7_12 C 0.2063(2) 0.97743(18) 0.8718(5)
N1_12 N 0.1982(2) 0.96296(18) 0.9821(5)
I2_12 I 0.160392(19) 0.884105(13) 0.80808(4)
H17_12 H 0.182148 0.931311 0.997982
C4_17 C 0.03579(17) 0.23696(25) 0.6645(5)
C5_17 C 0.06589(18) 0.25585(27) 0.5632(5)
C6_13 C 0.05025(17) 0.24332(25) 0.7771(5)
C7_13 C 0.02257(18) 0.22883(27) 0.8718(5)
N1_13 N 0.03704(18) 0.23520(27) 0.9821(5)
I2_13 I 0.115895(13) 0.276286(23) 0.80808(4)
H17_13 H 0.0686886 0.250837 0.997982
O1_13 O 0.89177(12) 0.14787(18) 0.7055(4)
O7_13 O 0.84041(17) 0.05602(23) 0.7364(5)
O8_13 O 0.75249(15) 0.03736(23) 0.7241(5)
C1_13 C 0.91693(16) 0.18704(24) 0.7098(5)
C2_13 C 0.96341(16) 0.20256(24) 0.7350(5)
C3_17 C 0.99224(17) 0.21604(25) 0.6448(5)
C8_13 C 0.97866(17) 0.20808(25) 0.8462(4)
C9_13 C 0.8491(3) 0.1881(4) 0.4565(5)
C10_13 C 0.8676(5) 0.0627(7) 0.8048(14)
H1_13 H 0.8815 0.0893 0.8390
C11_13 C 0.9085(12) 0.0488(18) 0.933(3)
H2_13 H 0.9219 0.0790 0.9419
H4_13 H 0.9297 0.0409 0.9206
C13_13 C 0.7173(2) 0.0307(4) 0.7507(7)
H8_17 H 0.7137 0.0542 0.7567
H12_13 H 0.6446 0.0155 0.7962
N2_13 N 0.8791(6) 0.0351(7) 0.8351(17)
I1_17 I 0.968564(17) 0.201940(26) 0.47708(4)
I3_13 I 0.934770(15) 0.184246(25) 0.98059(4)
H15_17 H 0.84893 0.173287 0.375568
O1_14 O 0.85213(18) 0.74389(13) 0.7055(4)
O7_14 O 0.94398(23) 0.78438(16) 0.7364(5)
O8_14 O 0.96264(23) 0.71512(17) 0.7241(5)
C1_14 C 0.81296(24) 0.72988(18) 0.7098(5)
C2_14 C 0.79744(24) 0.76084(18) 0.7350(5)
C3_18 C 0.78396(25) 0.77619(19) 0.6448(5)
C4_18 C 0.76304(25) 0.79882(18) 0.6645(5)
C5_18 C 0.74415(27) 0.8100(2) 0.5632(5)
C6_14 C 0.75668(25) 0.80692(19) 0.7771(5)
C7_14 C 0.77117(27) 0.7937(2) 0.8718(5)
C8_14 C 0.79192(25) 0.77057(19) 0.8462(4)
C9_14 C 0.8119(4) 0.6609(3) 0.4565(5)
C10_14 C 0.9373(7) 0.8048(5) 0.8048(14)
H1_14 H 0.9107 0.7921 0.8390
C11_14 C 0.9512(18) 0.8596(13) 0.933(3)
H2_14 H 0.9210 0.8428 0.9419
H4_14 H 0.9591 0.8887 0.9206
C13_14 C 0.9693(4) 0.6865(3) 0.7507(7)
H8_18 H 0.9458 0.6594 0.7567
H12_14 H 0.9845 0.6290 0.7962
N1_14 N 0.76480(27) 0.8018(2) 0.9821(5)
N2_14 N 0.9649(7) 0.8439(4) 0.8351(17)
I1_18 I 0.798060(26) 0.76662(2) 0.47708(4)
I2_14 I 0.723714(23) 0.839608(19) 0.80808(4)
I3_14 I 0.815754(25) 0.75052(2) 0.98059(4)
H15_18 H 0.826713 0.675643 0.375568
H17_14 H 0.749163 0.817852 0.997982
C15_11 C 0.3209(4) 0.9757(3) 0.5408(14)
H12_15 H 0.2957 0.9779 0.5371
H13_11 H 0.3182 0.9569 0.6020
H14_11 H 0.3246 0.9647 0.4698
C15_12 C 0.0243(3) 0.3452(5) 0.5408(14)
H12_16 H 0.0221 0.3178 0.5371
H13_12 H 0.0431 0.3613 0.6020
H14_12 H 0.0353 0.3599 0.4698
O1_15 O 0.07723(13) 0.55843(12) 0.9611(4)
O2_8 O 0.02608(13) 0.57591(12) 0.9712(4)
O7_15 O 0.11772(16) 0.50707(17) 0.9302(5)
O8_15 O 0.04846(17) 0.41915(15) 0.9425(5)
C1_15 C 0.06322(18) 0.58359(16) 0.9568(5)
C2_15 C 0.09418(18) 0.63007(16) 0.9316(5)
C6_15 C 0.14026(19) 0.71691(17) 0.8895(5)
C7_15 C 0.1271(2) 0.68923(18) 0.7948(5)
C8_15 C 0.10391(19) 0.64532(17) 0.8204(4)
C10_15 C 0.1382(5) 0.5342(5) 0.8618(14)
H1_15 H 0.1255 0.5481 0.8276
C11_15 C 0.1930(13) 0.5751(12) 0.733(3)
H2_15 H 0.1762 0.5885 0.7247
H3_9 H 0.1910 0.5596 0.6648
H4_15 H 0.2221 0.5963 0.7460
C12_11 C 0.1966(7) 0.5166(10) 0.879(3)
H5_11 H 0.1812 0.5016 0.9464
H6_11 H 0.2260 0.5345 0.8982
H7_11 H 0.1938 0.4967 0.8215
C13_15 C 0.0199(3) 0.3839(2) 0.9159(7)
C14_11 C 0.0641(3) 0.3528(3) 0.9026(11)
H9_11 H 0.0857 0.3816 0.9171
H10_11 H 0.0701 0.3433 0.8321
H11_11 H 0.0636 0.3350 0.9641
N1_15 N 0.1352(2) 0.70370(18) 0.6845(5)
N2_15 N 0.1773(4) 0.5457(6) 0.8315(17)
N3_11 N 0.0239(2) 0.3504(2) 0.8948(6)
I2_15 I 0.172942(19) 0.782561(13) 0.85858(4)
I3_15 I 0.08386(2) 0.601436(15) 0.68607(4)
O13_8 O 0.0350(2) 0.4762(2) 0.7890(4)
H16_9 H 0.125156 0.682783 0.618575
H17_15 H 0.151185 0.735355 0.668685
C9_15 C 0.0057(3) 0.4843(3) 0.7899(5)
O6_8 O 0.9650(2) 0.5238(2) 0.2110(4)
C9_16 C 0.9943(3) 0.5157(3) 0.2101(5)
O9_8 O 0.97392(13) 0.42409(12) 0.0288(4)
O1_16 O 0.92277(13) 0.44157(12) 0.0389(4)
O7_16 O 0.88228(16) 0.49293(17) 0.0698(5)
O8_16 O 0.95154(17) 0.58085(15) 0.0575(5)
C1_16 C 0.93678(18) 0.41641(16) 0.0432(5)
C2_16 C 0.90582(18) 0.36993(16) 0.0684(5)
C6_16 C 0.85974(19) 0.28309(17) 0.1105(5)
C7_16 C 0.8729(2) 0.31077(18) 0.2052(5)
C8_16 C 0.89609(19) 0.35468(17) 0.1796(4)
C10_16 C 0.8618(5) 0.4658(5) 0.1382(14)
H1_16 H 0.8745 0.4519 0.1724
C11_16 C 0.8070(13) 0.4249(12) 0.267(3)
H2_16 H 0.8238 0.4115 0.2753
H3_10 H 0.8090 0.4404 0.3352
H4_16 H 0.7779 0.4037 0.2540
C12_12 C 0.8034(7) 0.4834(10) 0.121(3)
H5_12 H 0.8188 0.4984 0.0536
H6_12 H 0.7740 0.4655 0.1018
H7_12 H 0.8062 0.5033 0.1785
C13_16 C 0.9801(3) 0.6161(2) 0.0841(7)
C14_12 C 0.9359(3) 0.6472(3) 0.0974(11)
H9_12 H 0.9143 0.6184 0.0829
H10_12 H 0.9299 0.6567 0.1679
H11_12 H 0.9364 0.6650 0.0359
N1_16 N 0.8648(2) 0.29630(18) 0.3155(5)
N2_16 N 0.8227(4) 0.4543(6) 0.1685(17)
N3_12 N 0.9761(2) 0.6496(2) 0.1052(6)
I2_16 I 0.827058(19) 0.217439(13) 0.14142(4)
I3_16 I 0.91614(2) 0.398564(15) 0.31393(4)
H16_10 H 0.874844 0.317217 0.381425
H17_16 H 0.848815 0.264645 0.331315
O6_9 O 0.5589(3) 0.0350(2) 0.2110(4)
C9_17 C 0.5215(4) 0.0057(3) 0.2101(5)
O9_9 O 0.45016(18) 0.02608(13) 0.0288(4)
O1_17 O 0.51879(18) 0.07723(13) 0.0389(4)
O7_17 O 0.61064(23) 0.11772(16) 0.0698(5)
O8_17 O 0.62930(23) 0.04846(17) 0.0575(5)
C1_17 C 0.47962(24) 0.06322(18) 0.0432(5)
C2_17 C 0.46410(24) 0.09418(18) 0.0684(5)
C6_17 C 0.42334(25) 0.14026(19) 0.1105(5)
C7_17 C 0.43783(27) 0.1271(2) 0.2052(5)
C8_17 C 0.45858(25) 0.10391(19) 0.1796(4)
C10_17 C 0.6039(7) 0.1382(5) 0.1382(14)
H1_17 H 0.5773 0.1255 0.1724
C11_17 C 0.6178(18) 0.1930(13) 0.267(3)
H2_17 H 0.5876 0.1762 0.2753
H3_11 H 0.6313 0.1910 0.3352
H4_17 H 0.6257 0.2221 0.2540
C12_13 C 0.6799(12) 0.1966(7) 0.121(3)
H5_13 H 0.6795 0.1812 0.0536
H6_13 H 0.6914 0.2260 0.1018
H7_13 H 0.6970 0.1938 0.1785
C13_17 C 0.6359(4) 0.0199(3) 0.0841(7)
C14_13 C 0.7112(4) 0.0641(3) 0.0974(11)
H9_13 H 0.7040 0.0857 0.0829
H10_13 H 0.7267 0.0701 0.1679
H11_13 H 0.7285 0.0636 0.0359
N1_17 N 0.43146(27) 0.1352(2) 0.3155(5)
N2_17 N 0.6315(7) 0.1773(4) 0.1685(17)
N3_13 N 0.6734(3) 0.0239(2) 0.1052(6)
I2_17 I 0.390380(23) 0.172942(19) 0.14142(4)
I3_17 I 0.482420(25) 0.08386(2) 0.31393(4)
H16_11 H 0.442372 0.125156 0.381425
H17_17 H 0.41583 0.151185 0.331315
O1_18 O 0.48121(18) 0.92277(13) 0.9611(4)
O2_9 O 0.54984(18) 0.97392(13) 0.9712(4)
O7_18 O 0.38936(23) 0.88228(16) 0.9302(5)
O8_18 O 0.37070(23) 0.95154(17) 0.9425(5)
C1_18 C 0.52038(24) 0.93678(18) 0.9568(5)
C2_18 C 0.53590(24) 0.90582(18) 0.9316(5)
C6_18 C 0.57666(25) 0.85974(19) 0.8895(5)
C7_18 C 0.56217(27) 0.8729(2) 0.7948(5)
C8_18 C 0.54142(25) 0.89609(19) 0.8204(4)
C10_18 C 0.3961(7) 0.8618(5) 0.8618(14)
H1_18 H 0.4227 0.8745 0.8276
C11_18 C 0.3822(18) 0.8070(13) 0.733(3)
H2_18 H 0.4124 0.8238 0.7247
H3_12 H 0.3687 0.8090 0.6648
H4_18 H 0.3743 0.7779 0.7460
C12_14 C 0.3201(12) 0.8034(7) 0.879(3)
H5_14 H 0.3205 0.8188 0.9464
H6_14 H 0.3086 0.7740 0.8982
H7_14 H 0.3030 0.8062 0.8215
C13_18 C 0.3641(4) 0.9801(3) 0.9159(7)
C14_14 C 0.2888(4) 0.9359(3) 0.9026(11)
H9_14 H 0.2960 0.9143 0.9171
H10_14 H 0.2733 0.9299 0.8321
H11_14 H 0.2715 0.9364 0.9641
N1_18 N 0.56854(27) 0.8648(2) 0.6845(5)
N2_18 N 0.3685(7) 0.8227(4) 0.8315(17)
N3_14 N 0.3266(3) 0.9761(2) 0.8948(6)
I2_18 I 0.609620(23) 0.827058(19) 0.85858(4)
I3_18 I 0.517580(25) 0.91614(2) 0.68607(4)
O13_9 O 0.4411(3) 0.9650(2) 0.7890(4)
H16_12 H 0.557628 0.874844 0.618575
H17_18 H 0.58417 0.848815 0.668685
C9_18 C 0.4785(4) 0.9943(3) 0.7899(5)
H16_13 H 0.791822 0.0161168 0.951908
H3_13 H 0.8576 0.8930 0.9982
C12_15 C 0.1500(10) 0.0133(12) 0.213(3)
H5_15 H 0.1650 0.0129 0.2798
H6_15 H 0.1321 0.0248 0.2316
H7_15 H 0.1699 0.0304 0.1549
C14_15 C 0.3138(3) 0.0446(4) 0.2360(11)
H9_15 H 0.2850 0.0374 0.2505
H10_15 H 0.3233 0.0601 0.1655
H11_15 H 0.3316 0.0619 0.2975
C15_13 C 0.3576(3) 0.0119(5) 0.2075(14)
H13_13 H 0.3764 0.0280 0.2687
H14_13 H 0.3686 0.0266 0.1365
N3_15 N 0.3162(2) 0.0068(3) 0.2282(6)
H3_14 H 0.1070 0.9647 0.9982
H16_14 H 0.983883 0.775706 0.951908
H3_15 H 0.0353 0.1424 0.9982
H16_15 H 0.224294 0.208178 0.951908
C12_16 C 0.9867(12) 0.1368(7) 0.213(3)
H5_16 H 0.9871 0.1522 0.2798
H6_16 H 0.9752 0.1074 0.2316
H7_16 H 0.9696 0.1396 0.1549
C14_16 C 0.9554(4) 0.2693(3) 0.2360(11)
H9_16 H 0.9626 0.2477 0.2505
H10_16 H 0.9399 0.2633 0.1655
H11_16 H 0.9381 0.2698 0.2975
C15_14 C 0.9881(5) 0.3458(4) 0.2075(14)
H13_14 H 0.9720 0.3485 0.2687
H14_14 H 0.9734 0.3421 0.1365
N3_16 N 0.9932(3) 0.3095(2) 0.2282(6)
C15_15 C 0.6791(4) 0.0243(3) 0.4592(14)
H12_17 H 0.7043 0.0221 0.4629
H13_15 H 0.6818 0.0431 0.3980
H14_15 H 0.6754 0.0353 0.5302
C15_16 C 0.9757(3) 0.6548(5) 0.4592(14)
H12_18 H 0.9779 0.6822 0.4629
H13_16 H 0.9569 0.6387 0.3980
H14_16 H 0.9647 0.6401 0.5302
H3_16 H 0.1424 0.1070 0.0018
H16_16 H 0.208178 0.983883 0.0480919
H16_17 H 0.0161168 0.224294 0.0480919
H3_17 H 0.8930 0.0353 0.0018
C12_17 C 0.8500(10) 0.9867(12) 0.787(3)
H5_17 H 0.8350 0.9871 0.7202
H6_17 H 0.8679 0.9752 0.7684
H7_17 H 0.8301 0.9696 0.8451
C14_17 C 0.6862(3) 0.9554(4) 0.7640(11)
H9_17 H 0.7150 0.9626 0.7495
H10_17 H 0.6767 0.9399 0.8345
H11_17 H 0.6684 0.9381 0.7025
C15_17 C 0.6424(3) 0.9881(5) 0.7925(14)
H13_17 H 0.6236 0.9720 0.7313
H14_17 H 0.6314 0.9734 0.8635
N3_17 N 0.6838(2) 0.9932(3) 0.7718(6)
C12_18 C 0.0133(12) 0.8632(7) 0.787(3)
H5_18 H 0.0129 0.8478 0.7202
H6_18 H 0.0248 0.8926 0.7684
H7_18 H 0.0304 0.8604 0.8451
C14_18 C 0.0446(4) 0.7307(3) 0.7640(11)
H9_18 H 0.0374 0.7523 0.7495
H10_18 H 0.0601 0.7367 0.8345
H11_18 H 0.0619 0.7302 0.7025
C15_18 C 0.0119(5) 0.6542(4) 0.7925(14)
H13_18 H 0.0280 0.6515 0.7313
H14_18 H 0.0266 0.6579 0.8635
N3_18 N 0.0068(3) 0.6905(2) 0.7718(6)
H3_18 H 0.9647 0.8576 0.0018
H16_18 H 0.775706 0.791822 0.0480919
loop_
_geom_bond_atom_site_label_1
_geom_bond_atom_site_label_2
_geom_bond_site_symmetry_1
_geom_bond_site_symmetry_2
Nd1 O1 1_555 1_555
O1 C1 1_555 1_555
O2 C1 1_555 1_555
O3 C5 1_555 1_555
O4 C5 1_555 1_555
O5 Nd1 1_555 1_555
O6 C9 1_555 1_555
O7 Nd1 1_555 1_555
O8 Nd1 1_555 1_555
C1 C2 1_555 1_555
C2 C3 1_555 1_555
C3 C4 1_555 1_555
C4 C5 1_555 1_555
C6 C4 1_555 1_555
C7 C6 1_555 1_555
C8 C2 1_555 1_555
C9 O5 1_555 1_555
C10 O7 1_555 1_555
H1 C10 1_555 1_555
C11 H2 1_555 1_555
H3 C11 1_555 1_555
H4 C11 1_555 1_555
C12 H5 1_555 1_555
H6 C12 1_555 1_555
H7 C12 1_555 1_555
C13 O8 1_555 1_555
H8 C13 1_555 1_555
C14 H9 1_555 1_555
H10 C14 1_555 1_555
H11 C14 1_555 1_555
N1 C7 1_555 1_555
N2 C10 1_555 1_555
N3 C13 1_555 1_555
I1 C3 1_555 1_555
I2 C6 1_555 1_555
I3 C8 1_555 1_555
Nd2 O2 1_555 1_555
Nd3 O3 1_555 1_555
O9 Nd1 1_555 1_555
O10 Nd1 1_555 1_555
O11 Nd1 1_555 1_555
O12 Nd1 1_555 1_555
O13 Nd1 1_555 1_555
O4 Nd3 1_555 1_555
O5 Nd2 1_555 1_555
O6 Nd2 1_555 1_555
C7 C8 1_555 1_555
C11 N2 1_555 1_555
C12 N2 1_555 1_555
C14 N3 1_555 1_555
Nd2 O12 1_555 1_555
C9 H15 1_555 1_555
N1 H16 1_555 1_555
N1 H17 1_555 1_555
Nd1_2 O1_2 1_555 1_555
O1_2 C1_2 1_555 1_555
O2_2 C1_2 1_555 1_555
O3_2 C5_2 1_555 1_555
O4_2 C5_2 1_555 1_555
O5_2 Nd1_2 1_555 1_555
O6_2 C9_2 1_555 1_555
O7_2 Nd1_2 1_555 1_555
O8_2 Nd1_2 1_555 1_555
C1_2 C2_2 1_555 1_555
C2_2 C3_2 1_555 1_555
C3_2 C4_2 1_555 1_555
C4_2 C5_2 1_555 1_555
C6_2 C4_2 1_555 1_555
C7_2 C6_2 1_555 1_555
C8_2 C2_2 1_555 1_555
C9_2 O5_2 1_555 1_555
C10_2 O7_2 1_555 1_555
H1_2 C10_2 1_555 1_555
C11_2 H2_2 1_555 1_555
H3_2 C11_2 1_555 1_555
H4_2 C11_2 1_555 1_555
C12_2 H5_2 1_555 1_555
H6_2 C12_2 1_555 1_555
H7_2 C12_2 1_555 1_555
C13_2 O8_2 1_555 1_555
H8_2 C13_2 1_555 1_555
C14_2 H9_2 1_555 1_555
H10_2 C14_2 1_555 1_555
H11_2 C14_2 1_555 1_555
N1_2 C7_2 1_555 1_555
N2_2 C10_2 1_555 1_555
N3_2 C13_2 1_555 1_555
I1_2 C3_2 1_555 1_555
I2_2 C6_2 1_555 1_555
I3_2 C8_2 1_555 1_555
Nd2_2 O2_2 1_555 1_555
Nd3_2 O3_2 1_555 1_555
O9_2 Nd1_2 1_555 1_555
O10_2 Nd1_2 1_555 1_555
O11_2 Nd1_2 1_555 1_555
O12_2 Nd1_2 1_555 1_555
O13_2 Nd1_2 1_555 1_555
O4_2 Nd3_2 1_555 1_555
O5_2 Nd2_2 1_555 1_555
O6_2 Nd2_2 1_555 1_555
C7_2 C8_2 1_555 1_555
C11_2 N2_2 1_555 1_555
C12_2 N2_2 1_555 1_555
C14_2 N3_2 1_555 1_555
Nd2_2 O12_2 1_555 1_555
C9_2 H15_2 1_555 1_555
N1_2 H16_2 1_555 1_555
N1_2 H17_2 1_555 1_555
Nd1_3 O1_3 1_555 1_555
O1_3 C1_3 1_555 1_555
O2_3 C1_3 1_555 1_555
O3_3 C5_3 1_555 1_555
O4_3 C5_3 1_555 1_555
O5_3 Nd1_3 1_555 1_555
O6_3 C9_3 1_555 1_555
O7_3 Nd1_3 1_555 1_555
O8_3 Nd1_3 1_555 1_555
C1_3 C2_3 1_555 1_555
C2_3 C3_3 1_555 1_555
C3_3 C4_3 1_555 1_555
C4_3 C5_3 1_555 1_555
C6_3 C4_3 1_555 1_555
C7_3 C6_3 1_555 1_555
C8_3 C2_3 1_555 1_555
C9_3 O5_3 1_555 1_555
C10_3 O7_3 1_555 1_555
H1_3 C10_3 1_555 1_555
C11_3 H2_3 1_555 1_555
H3_3 C11_3 1_555 1_555
H4_3 C11_3 1_555 1_555
C12_3 H5_3 1_555 1_555
H6_3 C12_3 1_555 1_555
H7_3 C12_3 1_555 1_555
C13_3 O8_3 1_555 1_555
H8_3 C13_3 1_555 1_555
C14_3 H9_3 1_555 1_555
H10_3 C14_3 1_555 1_555
H11_3 C14_3 1_555 1_555
C15 H12 1_555 1_555
H13 C15 1_555 1_555
H14 C15 1_555 1_555
N1_3 C7_3 1_555 1_555
N2_3 C10_3 1_555 1_555
N3_3 C13_3 1_555 1_555
I1_3 C3_3 1_555 1_555
I2_3 C6_3 1_555 1_555
I3_3 C8_3 1_555 1_555
Nd2_3 O2_3 1_555 1_555
Nd3_3 O3_3 1_555 1_555
O9_3 Nd1_3 1_555 1_555
O10_3 Nd1_3 1_555 1_555
O11_3 Nd1_3 1_555 1_555
O12_3 Nd1_3 1_555 1_555
O13_3 Nd1_3 1_555 1_555
O4_3 Nd3_3 1_555 1_555
O5_3 Nd2_3 1_555 1_555
O6_3 Nd2_3 1_555 1_555
C7_3 C8_3 1_555 1_555
C11_3 N2_3 1_555 1_555
C12_3 N2_3 1_555 1_555
C14_3 N3_3 1_555 1_555
C15 N3_3 1_555 1_555
Nd2_3 O12_3 1_555 1_555
C9_3 H15_3 1_555 1_555
N1_3 H16_3 1_555 1_555
N1_3 H17_3 1_555 1_555
O3_4 C5_4 1_555 1_555
O4_4 C5_4 1_555 1_555
O5_4 Nd1_4 1_555 1_555
C3_4 C4_4 1_555 1_555
C4_4 C5_4 1_555 1_555
I1_4 C3_4 1_555 1_555
Nd3_4 O3_4 1_555 1_555
O10_4 Nd1_4 1_555 1_555
O11_4 Nd1_4 1_555 1_555
O4_4 Nd3_4 1_555 1_555
C15_2 H12_2 1_555 1_555
H13_2 C15_2 1_555 1_555
H14_2 C15_2 1_555 1_555
Nd3_3 O12_4 1_555 1_555
O3_5 C5_5 1_555 1_555
O4_5 C5_5 1_555 1_555
O5_5 Nd1_5 1_555 1_555
O6_4 C9_4 1_555 1_555
C3_5 C4_5 1_555 1_555
C4_5 C5_5 1_555 1_555
C9_4 O5_5 1_555 1_555
I1_5 C3_5 1_555 1_555
Nd3_5 O3_5 1_555 1_555
O9_4 Nd1_5 1_555 1_555
O10_5 Nd1_5 1_555 1_555
O11_5 Nd1_5 1_555 1_555
O4_5 Nd3_5 1_555 1_555
C9_4 H15_5 1_555 1_555
O1_4 C1_4 1_555 1_555
O2_4 C1_4 1_555 1_555
C1_4 C2_4 1_555 1_555
C7_4 C6_4 1_555 1_555
C8_4 C2_4 1_555 1_555
C10_4 O7_4 1_555 1_555
H1_4 C10_4 1_555 1_555
C11_4 H2_4 1_555 1_555
H3_4 C11_4 1_555 1_555
H4_4 C11_4 1_555 1_555
C12_4 H5_4 1_555 1_555
H6_4 C12_4 1_555 1_555
H7_4 C12_4 1_555 1_555
C13_4 O8_4 1_555 1_555
H8_5 C13_4 1_555 1_555
C14_4 H9_4 1_555 1_555
H10_4 C14_4 1_555 1_555
H11_4 C14_4 1_555 1_555
C15_3 H12_3 1_555 1_555
H13_3 C15_3 1_555 1_555
H14_3 C15_3 1_555 1_555
N1_4 C7_4 1_555 1_555
N2_4 C10_4 1_555 1_555
N3_4 C13_4 1_555 1_555
I2_4 C6_4 1_555 1_555
I3_4 C8_4 1_555 1_555
Nd3 O2_4 1_555 1_555
C7_4 C8_4 1_555 1_555
C11_4 N2_4 1_555 1_555
C12_4 N2_4 1_555 1_555
C14_4 N3_4 1_555 1_555
C15_3 N3_4 1_555 1_555
Nd3 O12_5 1_555 1_555
N1_4 H16_4 1_555 1_555
N1_4 H17_4 1_555 1_555
C15_4 H12_4 1_555 1_555
H13_4 C15_4 1_555 1_555
H14_4 C15_4 1_555 1_555
Nd3_2 O12_6 1_555 1_555
O3_6 C5_6 1_555 1_555
O4_6 C5_6 1_555 1_555
O5_6 Nd1_6 1_555 1_555
C3_6 C4_6 1_555 1_555
C4_6 C5_6 1_555 1_555
I1_6 C3_6 1_555 1_555
Nd3_6 O3_6 1_555 1_555
O10_6 Nd1_6 1_555 1_555
O11_6 Nd1_6 1_555 1_555
O4_6 Nd3_6 1_555 1_555
O3_7 C5_7 1_555 1_555
O4_7 C5_7 1_555 1_555
C4_7 C5_7 1_555 1_555
C6_5 C4_7 1_555 1_555
C7_5 C6_5 1_555 1_555
N1_5 C7_5 1_555 1_555
I2_5 C6_5 1_555 1_555
Nd2_2 O3_7 1_555 1_555
O4_7 Nd2_2 1_555 1_555
N1_5 H17_5 1_555 1_555
Nd1_7 O1_5 1_555 1_555
O1_5 C1_5 1_555 1_555
O2_5 C1_5 1_555 1_555
O5_7 Nd1_7 1_555 1_555
O6_5 C9_5 1_555 1_555
O7_5 Nd1_7 1_555 1_555
O8_5 Nd1_7 1_555 1_555
C1_5 C2_5 1_555 1_555
C2_5 C3_7 1_555 1_555
C8_5 C2_5 1_555 1_555
C9_5 O5_7 1_555 1_555
C10_5 O7_5 1_555 1_555
H1_5 C10_5 1_555 1_555
C11_5 H2_5 1_555 1_555
H4_5 C11_5 1_555 1_555
C12_5 H5_5 1_555 1_555
H6_5 C12_5 1_555 1_555
H7_5 C12_5 1_555 1_555
C13_5 O8_5 1_555 1_555
H8_7 C13_5 1_555 1_555
C14_5 H9_5 1_555 1_555
H10_5 C14_5 1_555 1_555
H11_5 C14_5 1_555 1_555
C15_5 H12_5 1_555 1_555
H13_5 C15_5 1_555 1_555
H14_5 C15_5 1_555 1_555
N2_5 C10_5 1_555 1_555
N3_5 C13_5 1_555 1_555
I1_7 C3_7 1_555 1_555
I3_5 C8_5 1_555 1_555
Nd3_6 O2_5 1_555 1_555
O9_5 Nd1_7 1_555 1_555
O10_7 Nd1_7 1_555 1_555
O11_7 Nd1_7 1_555 1_555
O12_7 Nd1_7 1_555 1_555
O13_5 Nd1_7 1_555 1_555
O5_7 Nd3_6 1_555 1_555
O6_5 Nd3_6 1_555 1_555
C11_5 N2_5 1_555 1_555
C12_5 N2_5 1_555 1_555
C14_5 N3_5 1_555 1_555
C15_5 N3_5 1_555 1_555
Nd3_6 O12_7 1_555 1_555
C9_5 H15_7 1_555 1_555
Nd1_8 O1_6 1_555 1_555
O1_6 C1_6 1_555 1_555
O2_6 C1_6 1_555 1_555
O5_8 Nd1_8 1_555 1_555
O6_6 C9_6 1_555 1_555
O7_6 Nd1_8 1_555 1_555
O8_6 Nd1_8 1_555 1_555
C1_6 C2_6 1_555 1_555
C2_6 C3_8 1_555 1_555
C8_6 C2_6 1_555 1_555
C9_6 O5_8 1_555 1_555
C10_6 O7_6 1_555 1_555
H1_6 C10_6 1_555 1_555
C11_6 H2_6 1_555 1_555
H4_6 C11_6 1_555 1_555
C13_6 O8_6 1_555 1_555
H8_8 C13_6 1_555 1_555
N2_6 C10_6 1_555 1_555
I1_8 C3_8 1_555 1_555
I3_6 C8_6 1_555 1_555
Nd3_4 O2_6 1_555 1_555
O9_6 Nd1_8 1_555 1_555
O10_8 Nd1_8 1_555 1_555
O11_8 Nd1_8 1_555 1_555
O12_8 Nd1_8 1_555 1_555
O13_6 Nd1_8 1_555 1_555
O5_8 Nd3_4 1_555 1_555
O6_6 Nd3_4 1_555 1_555
C11_6 N2_6 1_555 1_555
Nd3_4 O12_8 1_555 1_555
C9_6 H15_8 1_555 1_555
O3_8 C5_8 1_555 1_555
O4_8 C5_8 1_555 1_555
C4_8 C5_8 1_555 1_555
C6_6 C4_8 1_555 1_555
C7_6 C6_6 1_555 1_555
N1_6 C7_6 1_555 1_555
I2_6 C6_6 1_555 1_555
Nd2_3 O3_8 1_555 1_555
O4_8 Nd2_3 1_555 1_555
N1_6 H17_6 1_555 1_555
Nd1_9 O1_7 1_555 1_555
O1_7 C1_7 1_555 1_555
O2_7 C1_7 1_555 1_555
O3_9 C5_9 1_555 1_555
O4_9 C5_9 1_555 1_555
O5_9 Nd1_9 1_555 1_555
O6_7 C9_7 1_555 1_555
O7_7 Nd1_9 1_555 1_555
O8_7 Nd1_9 1_555 1_555
C1_7 C2_7 1_555 1_555
C2_7 C3_9 1_555 1_555
C3_9 C4_9 1_555 1_555
C4_9 C5_9 1_555 1_555
C6_7 C4_9 1_555 1_555
C7_7 C6_7 1_555 1_555
C8_7 C2_7 1_555 1_555
C9_7 O5_9 1_555 1_555
C10_7 O7_7 1_555 1_555
H1_7 C10_7 1_555 1_555
C11_7 H2_7 1_555 1_555
H4_7 C11_7 1_555 1_555
C13_7 O8_7 1_555 1_555
H8_9 C13_7 1_555 1_555
N1_7 C7_7 1_555 1_555
N2_7 C10_7 1_555 1_555
I1_9 C3_9 1_555 1_555
I2_7 C6_7 1_555 1_555
I3_7 C8_7 1_555 1_555
Nd3_5 O2_7 1_555 1_555
Nd2 O3_9 1_555 1_555
O9_7 Nd1_9 1_555 1_555
O10_9 Nd1_9 1_555 1_555
O11_9 Nd1_9 1_555 1_555
O12_9 Nd1_9 1_555 1_555
O13_7 Nd1_9 1_555 1_555
O4_9 Nd2 1_555 1_555
O5_9 Nd3_5 1_555 1_555
O6_7 Nd3_5 1_555 1_555
C7_7 C8_7 1_555 1_555
C11_7 N2_7 1_555 1_555
Nd3_5 O12_9 1_555 1_555
C9_7 H15_9 1_555 1_555
N1_7 H17_7 1_555 1_555
Nd3_6 O1_8 1_555 1_555
O1_8 C1_8 1_555 1_555
O9_5 C1_8 1_555 1_555
O10_5 C5_10 1_555 1_555
O11_5 C5_10 1_555 1_555
O13_5 C9_8 1_555 1_555
O7_8 Nd3_6 1_555 1_555
O8_8 Nd3_6 1_555 1_555
C1_8 C2_8 1_555 1_555
C2_8 C3_10 1_555 1_555
C3_10 C4_10 1_555 1_555
C4_10 C5_10 1_555 1_555
C6_8 C4_10 1_555 1_555
C7_8 C6_8 1_555 1_555
C8_8 C2_8 1_555 1_555
C9_8 O12_7 1_555 1_555
C10_8 O7_8 1_555 1_555
H1_8 C10_8 1_555 1_555
C11_8 H2_8 1_555 1_555
H3_5 C11_8 1_555 1_555
H4_8 C11_8 1_555 1_555
C12_6 H5_6 1_555 1_555
H6_6 C12_6 1_555 1_555
H7_6 C12_6 1_555 1_555
C13_8 O8_8 1_555 1_555
H8_10 C13_8 1_555 1_555
C14_6 H9_6 1_555 1_555
H10_6 C14_6 1_555 1_555
H11_6 C14_6 1_555 1_555
N1_8 C7_8 1_555 1_555
N2_8 C10_8 1_555 1_555
N3_6 C13_8 1_555 1_555
I1_10 C3_10 1_555 1_555
I2_8 C6_8 1_555 1_555
I3_8 C8_8 1_555 1_555
C7_8 C8_8 1_555 1_555
C11_8 N2_8 1_555 1_555
C12_6 N2_8 1_555 1_555
C14_6 N3_6 1_555 1_555
C9_8 H15_10 1_555 1_555
N1_8 H16_5 1_555 1_555
N1_8 H17_8 1_555 1_555
Nd3_4 O1_9 1_555 1_555
O1_9 C1_9 1_555 1_555
O9_6 C1_9 1_555 1_555
O10_6 C5_11 1_555 1_555
O11_6 C5_11 1_555 1_555
O13_6 C9_9 1_555 1_555
O7_9 Nd3_4 1_555 1_555
O8_9 Nd3_4 1_555 1_555
C1_9 C2_9 1_555 1_555
C2_9 C3_11 1_555 1_555
C3_11 C4_11 1_555 1_555
C4_11 C5_11 1_555 1_555
C6_9 C4_11 1_555 1_555
C7_9 C6_9 1_555 1_555
C8_9 C2_9 1_555 1_555
C9_9 O12_8 1_555 1_555
C10_9 O7_9 1_555 1_555
H1_9 C10_9 1_555 1_555
C11_9 H2_9 1_555 1_555
H3_6 C11_9 1_555 1_555
H4_9 C11_9 1_555 1_555
C12_7 H5_7 1_555 1_555
H6_7 C12_7 1_555 1_555
H7_7 C12_7 1_555 1_555
C13_9 O8_9 1_555 1_555
H8_11 C13_9 1_555 1_555
C14_7 H9_7 1_555 1_555
H10_7 C14_7 1_555 1_555
H11_7 C14_7 1_555 1_555
N1_9 C7_9 1_555 1_555
N2_9 C10_9 1_555 1_555
N3_7 C13_9 1_555 1_555
I1_11 C3_11 1_555 1_555
I2_9 C6_9 1_555 1_555
I3_9 C8_9 1_555 1_555
C7_9 C8_9 1_555 1_555
C11_9 N2_9 1_555 1_555
C12_7 N2_9 1_555 1_555
C14_7 N3_7 1_555 1_555
C9_9 H15_11 1_555 1_555
N1_9 H16_6 1_555 1_555
N1_9 H17_9 1_555 1_555
Nd3_5 O1_10 1_555 1_555
O1_10 C1_10 1_555 1_555
O9_7 C1_10 1_555 1_555
O10_4 C5_12 1_555 1_555
O11_4 C5_12 1_555 1_555
O13_7 C9_10 1_555 1_555
O7_10 Nd3_5 1_555 1_555
O8_10 Nd3_5 1_555 1_555
C1_10 C2_10 1_555 1_555
C2_10 C3_12 1_555 1_555
C3_12 C4_12 1_555 1_555
C4_12 C5_12 1_555 1_555
C6_10 C4_12 1_555 1_555
C7_10 C6_10 1_555 1_555
C8_10 C2_10 1_555 1_555
C9_10 O12_9 1_555 1_555
C10_10 O7_10 1_555 1_555
H1_10 C10_10 1_555 1_555
C11_10 H2_10 1_555 1_555
H3_7 C11_10 1_555 1_555
H4_10 C11_10 1_555 1_555
C12_8 H5_8 1_555 1_555
H6_8 C12_8 1_555 1_555
H7_8 C12_8 1_555 1_555
C13_10 O8_10 1_555 1_555
H8_12 C13_10 1_555 1_555
C14_8 H9_8 1_555 1_555
H10_8 C14_8 1_555 1_555
H11_8 C14_8 1_555 1_555
C15_6 H12_8 1_555 1_555
H13_6 C15_6 1_555 1_555
H14_6 C15_6 1_555 1_555
N1_10 C7_10 1_555 1_555
N2_10 C10_10 1_555 1_555
N3_8 C13_10 1_555 1_555
I1_12 C3_12 1_555 1_555
I2_10 C6_10 1_555 1_555
I3_10 C8_10 1_555 1_555
C7_10 C8_10 1_555 1_555
C11_10 N2_10 1_555 1_555
C12_8 N2_10 1_555 1_555
C14_8 N3_8 1_555 1_555
C15_6 N3_8 1_555 1_555
C9_10 H15_12 1_555 1_555
N1_10 H16_7 1_555 1_555
N1_10 H17_10 1_555 1_555
C15_7 H12_9 1_555 1_555
H13_7 C15_7 1_555 1_555
H14_7 C15_7 1_555 1_555
O10_2 C5_13 1_555 1_555
O11_2 C5_13 1_555 1_555
C3_13 C4_13 1_555 1_555
C4_13 C5_13 1_555 1_555
I1_13 C3_13 1_555 1_555
O1_11 C1_11 1_555 1_555
O9_4 C1_11 1_555 1_555
C1_11 C2_11 1_555 1_555
C7_11 C6_11 1_555 1_555
C8_11 C2_11 1_555 1_555
C10_11 O7_11 1_555 1_555
H1_11 C10_11 1_555 1_555
C11_11 H2_11 1_555 1_555
H3_8 C11_11 1_555 1_555
H4_11 C11_11 1_555 1_555
C12_9 H5_9 1_555 1_555
H6_9 C12_9 1_555 1_555
H7_9 C12_9 1_555 1_555
C13_11 O8_11 1_555 1_555
H8_14 C13_11 1_555 1_555
C14_9 H9_9 1_555 1_555
H10_9 C14_9 1_555 1_555
H11_9 C14_9 1_555 1_555
C15_8 H12_10 1_555 1_555
H13_8 C15_8 1_555 1_555
H14_8 C15_8 1_555 1_555
N1_11 C7_11 1_555 1_555
N2_11 C10_11 1_555 1_555
N3_9 C13_11 1_555 1_555
I2_11 C6_11 1_555 1_555
I3_11 C8_11 1_555 1_555
C7_11 C8_11 1_555 1_555
C11_11 N2_11 1_555 1_555
C12_9 N2_11 1_555 1_555
C14_9 N3_9 1_555 1_555
C15_8 N3_9 1_555 1_555
N1_11 H16_8 1_555 1_555
N1_11 H17_11 1_555 1_555
O10_3 C5_14 1_555 1_555
O11_3 C5_14 1_555 1_555
O13_4 C9_11 1_555 1_555
C3_14 C4_14 1_555 1_555
C4_14 C5_14 1_555 1_555
C9_11 O12_5 1_555 1_555
I1_14 C3_14 1_555 1_555
C9_11 H15_14 1_555 1_555
O10 C5_15 1_555 1_555
O11 C5_15 1_555 1_555
C3_15 C4_15 1_555 1_555
C4_15 C5_15 1_555 1_555
I1_15 C3_15 1_555 1_555
C15_9 H12_11 1_555 1_555
H13_9 C15_9 1_555 1_555
H14_9 C15_9 1_555 1_555
Nd2 O1_12 1_555 1_555
O1_12 C1_12 1_555 1_555
O9 C1_12 1_555 1_555
O13 C9_12 1_555 1_555
O7_12 Nd2 1_555 1_555
O8_12 Nd2 1_555 1_555
C1_12 C2_12 1_555 1_555
C2_12 C3_16 1_555 1_555
C8_12 C2_12 1_555 1_555
C9_12 O12 1_555 1_555
C10_12 O7_12 1_555 1_555
H1_12 C10_12 1_555 1_555
C11_12 H2_12 1_555 1_555
H4_12 C11_12 1_555 1_555
C12_10 H5_10 1_555 1_555
H6_10 C12_10 1_555 1_555
H7_10 C12_10 1_555 1_555
C13_12 O8_12 1_555 1_555
H8_16 C13_12 1_555 1_555
C14_10 H9_10 1_555 1_555
H10_10 C14_10 1_555 1_555
H11_10 C14_10 1_555 1_555
C15_10 H12_12 1_555 1_555
H13_10 C15_10 1_555 1_555
H14_10 C15_10 1_555 1_555
N2_12 C10_12 1_555 1_555
N3_10 C13_12 1_555 1_555
I1_16 C3_16 1_555 1_555
I3_12 C8_12 1_555 1_555
C11_12 N2_12 1_555 1_555
C12_10 N2_12 1_555 1_555
C14_10 N3_10 1_555 1_555
C15_10 N3_10 1_555 1_555
C9_12 H15_16 1_555 1_555
O10_8 C5_16 1_555 1_555
O11_8 C5_16 1_555 1_555
C4_16 C5_16 1_555 1_555
C6_12 C4_16 1_555 1_555
C7_12 C6_12 1_555 1_555
N1_12 C7_12 1_555 1_555
I2_12 C6_12 1_555 1_555
N1_12 H17_12 1_555 1_555
O10_9 C5_17 1_555 1_555
O11_9 C5_17 1_555 1_555
C4_17 C5_17 1_555 1_555
C6_13 C4_17 1_555 1_555
C7_13 C6_13 1_555 1_555
N1_13 C7_13 1_555 1_555
I2_13 C6_13 1_555 1_555
N1_13 H17_13 1_555 1_555
Nd2_2 O1_13 1_555 1_555
O1_13 C1_13 1_555 1_555
O9_2 C1_13 1_555 1_555
O13_2 C9_13 1_555 1_555
O7_13 Nd2_2 1_555 1_555
O8_13 Nd2_2 1_555 1_555
C1_13 C2_13 1_555 1_555
C2_13 C3_17 1_555 1_555
C8_13 C2_13 1_555 1_555
C9_13 O12_2 1_555 1_555
C10_13 O7_13 1_555 1_555
H1_13 C10_13 1_555 1_555
C11_13 H2_13 1_555 1_555
H4_13 C11_13 1_555 1_555
C13_13 O8_13 1_555 1_555
H8_17 C13_13 1_555 1_555
N2_13 C10_13 1_555 1_555
I1_17 C3_17 1_555 1_555
I3_13 C8_13 1_555 1_555
C11_13 N2_13 1_555 1_555
C9_13 H15_17 1_555 1_555
Nd2_3 O1_14 1_555 1_555
O1_14 C1_14 1_555 1_555
O9_3 C1_14 1_555 1_555
O10_7 C5_18 1_555 1_555
O11_7 C5_18 1_555 1_555
O13_3 C9_14 1_555 1_555
O7_14 Nd2_3 1_555 1_555
O8_14 Nd2_3 1_555 1_555
C1_14 C2_14 1_555 1_555
C2_14 C3_18 1_555 1_555
C3_18 C4_18 1_555 1_555
C4_18 C5_18 1_555 1_555
C6_14 C4_18 1_555 1_555
C7_14 C6_14 1_555 1_555
C8_14 C2_14 1_555 1_555
C9_14 O12_3 1_555 1_555
C10_14 O7_14 1_555 1_555
H1_14 C10_14 1_555 1_555
C11_14 H2_14 1_555 1_555
H4_14 C11_14 1_555 1_555
C13_14 O8_14 1_555 1_555
H8_18 C13_14 1_555 1_555
N1_14 C7_14 1_555 1_555
N2_14 C10_14 1_555 1_555
I1_18 C3_18 1_555 1_555
I2_14 C6_14 1_555 1_555
I3_14 C8_14 1_555 1_555
C7_14 C8_14 1_555 1_555
C11_14 N2_14 1_555 1_555
C9_14 H15_18 1_555 1_555
N1_14 H17_14 1_555 1_555
C15_11 H12_15 1_555 1_555
H13_11 C15_11 1_555 1_555
H14_11 C15_11 1_555 1_555
C15_12 H12_16 1_555 1_555
H13_12 C15_12 1_555 1_555
H14_12 C15_12 1_555 1_555
O1_15 C1_15 1_555 1_555
O2_8 C1_15 1_555 1_555
C1_15 C2_15 1_555 1_555
C7_15 C6_15 1_555 1_555
C8_15 C2_15 1_555 1_555
C10_15 O7_15 1_555 1_555
H1_15 C10_15 1_555 1_555
C11_15 H2_15 1_555 1_555
H3_9 C11_15 1_555 1_555
H4_15 C11_15 1_555 1_555
C12_11 H5_11 1_555 1_555
H6_11 C12_11 1_555 1_555
H7_11 C12_11 1_555 1_555
C13_15 O8_15 1_555 1_555
C14_11 H9_11 1_555 1_555
H10_11 C14_11 1_555 1_555
H11_11 C14_11 1_555 1_555
N1_15 C7_15 1_555 1_555
N2_15 C10_15 1_555 1_555
N3_11 C13_15 1_555 1_555
I2_15 C6_15 1_555 1_555
I3_15 C8_15 1_555 1_555
C7_15 C8_15 1_555 1_555
C11_15 N2_15 1_555 1_555
C12_11 N2_15 1_555 1_555
C14_11 N3_11 1_555 1_555
N1_15 H16_9 1_555 1_555
N1_15 H17_15 1_555 1_555
O13_8 C9_15 1_555 1_555
O6_8 C9_16 1_555 1_555
O1_16 C1_16 1_555 1_555
O9_8 C1_16 1_555 1_555
C1_16 C2_16 1_555 1_555
C7_16 C6_16 1_555 1_555
C8_16 C2_16 1_555 1_555
C10_16 O7_16 1_555 1_555
H1_16 C10_16 1_555 1_555
C11_16 H2_16 1_555 1_555
H3_10 C11_16 1_555 1_555
H4_16 C11_16 1_555 1_555
C12_12 H5_12 1_555 1_555
H6_12 C12_12 1_555 1_555
H7_12 C12_12 1_555 1_555
C13_16 O8_16 1_555 1_555
C14_12 H9_12 1_555 1_555
H10_12 C14_12 1_555 1_555
H11_12 C14_12 1_555 1_555
N1_16 C7_16 1_555 1_555
N2_16 C10_16 1_555 1_555
N3_12 C13_16 1_555 1_555
I2_16 C6_16 1_555 1_555
I3_16 C8_16 1_555 1_555
C7_16 C8_16 1_555 1_555
C11_16 N2_16 1_555 1_555
C12_12 N2_16 1_555 1_555
C14_12 N3_12 1_555 1_555
N1_16 H16_10 1_555 1_555
N1_16 H17_16 1_555 1_555
O6_9 C9_17 1_555 1_555
O1_17 C1_17 1_555 1_555
O9_9 C1_17 1_555 1_555
C1_17 C2_17 1_555 1_555
C7_17 C6_17 1_555 1_555
C8_17 C2_17 1_555 1_555
C10_17 O7_17 1_555 1_555
H1_17 C10_17 1_555 1_555
C11_17 H2_17 1_555 1_555
H3_11 C11_17 1_555 1_555
H4_17 C11_17 1_555 1_555
C12_13 H5_13 1_555 1_555
H6_13 C12_13 1_555 1_555
H7_13 C12_13 1_555 1_555
C13_17 O8_17 1_555 1_555
C14_13 H9_13 1_555 1_555
H10_13 C14_13 1_555 1_555
H11_13 C14_13 1_555 1_555
N1_17 C7_17 1_555 1_555
N2_17 C10_17 1_555 1_555
N3_13 C13_17 1_555 1_555
I2_17 C6_17 1_555 1_555
I3_17 C8_17 1_555 1_555
C7_17 C8_17 1_555 1_555
C11_17 N2_17 1_555 1_555
C12_13 N2_17 1_555 1_555
C14_13 N3_13 1_555 1_555
N1_17 H16_11 1_555 1_555
N1_17 H17_17 1_555 1_555
O1_18 C1_18 1_555 1_555
O2_9 C1_18 1_555 1_555
C1_18 C2_18 1_555 1_555
C7_18 C6_18 1_555 1_555
C8_18 C2_18 1_555 1_555
C10_18 O7_18 1_555 1_555
H1_18 C10_18 1_555 1_555
C11_18 H2_18 1_555 1_555
H3_12 C11_18 1_555 1_555
H4_18 C11_18 1_555 1_555
C12_14 H5_14 1_555 1_555
H6_14 C12_14 1_555 1_555
H7_14 C12_14 1_555 1_555
C13_18 O8_18 1_555 1_555
C14_14 H9_14 1_555 1_555
H10_14 C14_14 1_555 1_555
H11_14 C14_14 1_555 1_555
N1_18 C7_18 1_555 1_555
N2_18 C10_18 1_555 1_555
N3_14 C13_18 1_555 1_555
I2_18 C6_18 1_555 1_555
I3_18 C8_18 1_555 1_555
C7_18 C8_18 1_555 1_555
C11_18 N2_18 1_555 1_555
C12_14 N2_18 1_555 1_555
C14_14 N3_14 1_555 1_555
N1_18 H16_12 1_555 1_555
N1_18 H17_18 1_555 1_555
O13_9 C9_18 1_555 1_555
C12_15 H5_15 1_555 1_555
H6_15 C12_15 1_555 1_555
H7_15 C12_15 1_555 1_555
C14_15 H9_15 1_555 1_555
H10_15 C14_15 1_555 1_555
H11_15 C14_15 1_555 1_555
H13_13 C15_13 1_555 1_555
H14_13 C15_13 1_555 1_555
C14_15 N3_15 1_555 1_555
C15_13 N3_15 1_555 1_555
C12_16 H5_16 1_555 1_555
H6_16 C12_16 1_555 1_555
H7_16 C12_16 1_555 1_555
C14_16 H9_16 1_555 1_555
H10_16 C14_16 1_555 1_555
H11_16 C14_16 1_555 1_555
H13_14 C15_14 1_555 1_555
H14_14 C15_14 1_555 1_555
C14_16 N3_16 1_555 1_555
C15_14 N3_16 1_555 1_555
C15_15 H12_17 1_555 1_555
H13_15 C15_15 1_555 1_555
H14_15 C15_15 1_555 1_555
C15_16 H12_18 1_555 1_555
H13_16 C15_16 1_555 1_555
H14_16 C15_16 1_555 1_555
C12_17 H5_17 1_555 1_555
H6_17 C12_17 1_555 1_555
H7_17 C12_17 1_555 1_555
C14_17 H9_17 1_555 1_555
H10_17 C14_17 1_555 1_555
H11_17 C14_17 1_555 1_555
H13_17 C15_17 1_555 1_555
H14_17 C15_17 1_555 1_555
C14_17 N3_17 1_555 1_555
C15_17 N3_17 1_555 1_555
C12_18 H5_18 1_555 1_555
H6_18 C12_18 1_555 1_555
H7_18 C12_18 1_555 1_555
C14_18 H9_18 1_555 1_555
H10_18 C14_18 1_555 1_555
H11_18 C14_18 1_555 1_555
H13_18 C15_18 1_555 1_555
H14_18 C15_18 1_555 1_555
C14_18 N3_18 1_555 1_555
C15_18 N3_18 1_555 1_555

#END
