
###############################################################################
#
# This file contains modified crystal structure data generated from the
# MOF subset of the Cambridge Structural Database (CSD) v543 
# hosted by the Cambridge Crystallographic Data Centre (CCDC).
#
# This work is licensed under the Creative Commons
# Attribution-NonCommercial-ShareAlike 4.0 International License.
# To view a copy of this license, visit
# http://creativecommons.org/licenses/by-nc-sa/4.0/
# or send a letter to
# Creative Commons, PO Box 1866, Mountain View, CA 94042, USA.
#
# CIF created using the CSD Python API on 29 September 2022
# The structure has been converted into the P1 space group
# The structure has a 3D framework
# The original CSD entry CUVHIL is in the rhombohedral crystal system
# The framework has been calculated to contain at least 10.0% void space
# The void calculation uses a probe of radius 1.32A, grid spacing 0.4
# H atom positions have been added when not included in the experimental data
#
###############################################################################

data_CUVHIL
_chemical_formula_moiety         '(C270 H306 I54 N54 Nd15 O142)n'
_symmetry_cell_setting           triclinic
_symmetry_space_group_name_H-M   'P 1'
_symmetry_Int_Tables_number      1
_space_group_name_Hall           'P 1'
loop_
_symmetry_equiv_pos_site_id
_symmetry_equiv_pos_as_xyz
1 x,y,z
_cell_length_a                   36.405(3)
_cell_length_b                   36.405(3)
_cell_length_c                   11.6941(17)
_cell_angle_alpha                90
_cell_angle_beta                 90
_cell_angle_gamma                120
_cell_volume                     13422.1
loop_
_atom_site_label
_atom_site_type_symbol
_atom_site_fract_x
_atom_site_fract_y
_atom_site_fract_z
Nd1 Nd 0.379749(10) 0.150128(9) 0.67452(3)
O1 O 0.41035(14) 0.22531(13) 0.6281(4)
O2 O 0.35891(14) 0.24214(13) 0.6404(4)
O3 O 0.44765(17) 0.40479(18) 0.8082(4)
O4 O 0.51153(17) 0.41403(18) 0.8153(5)
O5 O 0.34087(14) 0.17405(14) 0.7890(4)
O6 O 0.2985(2) 0.1904(2) 0.8774(4)
O7 O 0.45040(18) 0.17403(19) 0.5969(6)
O8 O 0.38210(19) 0.08633(16) 0.6075(5)
C1 C 0.3960(2) 0.24983(18) 0.6250(5)
C2 C 0.42651(19) 0.29673(17) 0.5988(5)
C3 C 0.4420(2) 0.32539(19) 0.6890(5)
C4 C 0.4643(2) 0.3686(2) 0.6688(5)
C5 C 0.4758(2) 0.3987(2) 0.7704(5)
C6 C 0.4719(2) 0.38279(17) 0.5557(5)
C7 C 0.4582(2) 0.35535(19) 0.4606(5)
C8 C 0.4357(2) 0.31185(18) 0.4869(5)
C9 C 0.3275(3) 0.1823(3) 0.8769(6)
C10 C 0.4696(5) 0.1996(6) 0.5213(15)
H1 H 0.4553 0.2116 0.4856
C11 C 0.5283(7) 0.1844(12) 0.537(3)
H2 H 0.5128 0.1694 0.6037
H3 H 0.5574 0.2032 0.5567
H4 H 0.5266 0.1645 0.4803
C12 C 0.3530(3) 0.0512(2) 0.5800(8)
H5 H 0.3261 0.0479 0.5724
C13 C 0.3970(3) 0.0198(3) 0.5686(11)
H6 H 0.4187 0.0486 0.5831
H7 H 0.4029 0.0103 0.4982
H8 H 0.3963 0.0020 0.6302
N1 N 0.4658(2) 0.36964(19) 0.3514(5)
N2 N 0.5077(5) 0.2120(9) 0.4850(19)
N3 N 0.3569(2) 0.0178(2) 0.5604(6)
I1 I 0.43314(2) 0.301774(19) 0.85706(5)
I2 I 0.50462(2) 0.448183(14) 0.52474(4)
I3 I 0.41440(2) 0.267754(16) 0.35297(4)
C15 C 0.5365(6) 0.2435(6) 0.3678(16)
H12 H 0.5244 0.2604 0.3436
H13 H 0.5353 0.2256 0.3060
H14 H 0.5655 0.2618 0.3898
Nd2 Nd 0.286918(10) 0.183205(9) 0.65881(3)
Nd3 Nd 0.483461(9) 0.437046(13) 0.99215(3)
O9 O 0.30776(14) 0.09119(13) 0.6929(4)
O10 O 0.37619(25) 0.11432(17) 0.8585(4)
O11 O 0.43083(25) 0.17820(17) 0.8514(5)
O12 O 0.32580(14) 0.15928(14) 0.5443(4)
O13 O 0.3682(2) 0.1429(2) 0.4559(4)
H15 H 0.342178 0.182397 0.958128
H16 H 0.455328 0.348704 0.285463
H17 H 0.481968 0.401286 0.335492
Nd1_2 Nd 0.849872(9) 0.229621(13) 0.67452(3)
O1_2 O 0.77469(13) 0.18504(19) 0.6281(4)
O2_2 O 0.75786(13) 0.11677(19) 0.6404(4)
O3_2 O 0.59521(18) 0.04286(25) 0.8082(4)
O4_2 O 0.58597(18) 0.09750(25) 0.8153(5)
O5_2 O 0.82595(14) 0.16682(20) 0.7890(4)
O6_2 O 0.8096(2) 0.1081(3) 0.8774(4)
O7_2 O 0.82597(19) 0.27637(26) 0.5969(6)
O8_2 O 0.91367(16) 0.29577(25) 0.6075(5)
C1_2 C 0.75017(18) 0.14617(27) 0.6250(5)
C2_2 C 0.70327(17) 0.12978(25) 0.5988(5)
C3_2 C 0.67461(19) 0.11661(28) 0.6890(5)
C4_2 C 0.6314(2) 0.0957(3) 0.6688(5)
C5_2 C 0.6013(2) 0.0771(3) 0.7704(5)
C6_2 C 0.61721(17) 0.08911(26) 0.5557(5)
C7_2 C 0.64465(19) 0.10285(28) 0.4606(5)
C8_2 C 0.68815(18) 0.12385(27) 0.4869(5)
C9_2 C 0.8177(3) 0.1452(4) 0.8769(6)
C10_2 C 0.8004(6) 0.2700(8) 0.5213(15)
H1_2 H 0.7884 0.2437 0.4856
C11_2 C 0.8156(12) 0.3439(14) 0.537(3)
H2_2 H 0.8306 0.3434 0.6037
H3_2 H 0.7968 0.3542 0.5567
H4_2 H 0.8355 0.3621 0.4803
C12_2 C 0.9488(2) 0.3018(4) 0.5800(8)
H5_2 H 0.9521 0.2782 0.5724
C13_2 C 0.9802(3) 0.3772(4) 0.5686(11)
H6_2 H 0.9514 0.3701 0.5831
H7_2 H 0.9897 0.3926 0.4982
H8_2 H 0.9980 0.3943 0.6302
N1_2 N 0.63036(19) 0.09616(28) 0.3514(5)
N2_2 N 0.7880(9) 0.2957(10) 0.4850(19)
N3_2 N 0.9822(2) 0.3391(3) 0.5604(6)
I1_2 I 0.698226(19) 0.131366(28) 0.85706(5)
I2_2 I 0.551817(14) 0.056437(24) 0.52474(4)
I3_2 I 0.732246(16) 0.146646(26) 0.35297(4)
C15_2 C 0.7565(6) 0.2930(8) 0.3678(16)
H12_2 H 0.7396 0.2640 0.3436
H13_2 H 0.7744 0.3097 0.3060
H14_2 H 0.7382 0.3037 0.3898
Nd2_2 Nd 0.816795(9) 0.103712(13) 0.65881(3)
Nd3_2 Nd 0.562954(13) 0.046416(16) 0.99215(3)
O9_2 O 0.90881(13) 0.21656(19) 0.6929(4)
O10_2 O 0.88568(17) 0.26188(30) 0.8585(4)
O11_2 O 0.82180(17) 0.25264(30) 0.8514(5)
O12_2 O 0.84072(14) 0.16651(20) 0.5443(4)
O13_2 O 0.8571(2) 0.2252(3) 0.4559(4)
H15_2 H 0.817603 0.15978 0.958128
H16_2 H 0.651296 0.106624 0.285463
H17_2 H 0.598714 0.0806821 0.335492
Nd1_3 Nd 0.770379(13) 0.620251(10) 0.67452(3)
O1_3 O 0.81496(19) 0.58965(14) 0.6281(4)
O2_3 O 0.88323(19) 0.64109(14) 0.6404(4)
O3_3 O 0.95714(25) 0.55235(17) 0.8082(4)
O4_3 O 0.90250(25) 0.48847(17) 0.8153(5)
O5_3 O 0.83318(20) 0.65913(14) 0.7890(4)
O6_3 O 0.8919(3) 0.7015(2) 0.8774(4)
O7_3 O 0.72363(26) 0.54960(18) 0.5969(6)
O8_3 O 0.70423(25) 0.61790(19) 0.6075(5)
C1_3 C 0.85383(27) 0.6040(2) 0.6250(5)
C2_3 C 0.87022(25) 0.57349(19) 0.5988(5)
C3_3 C 0.88339(28) 0.5580(2) 0.6890(5)
C4_3 C 0.9043(3) 0.5357(2) 0.6688(5)
C5_3 C 0.9229(3) 0.5242(2) 0.7704(5)
C6_3 C 0.91089(26) 0.5281(2) 0.5557(5)
C7_3 C 0.89715(28) 0.5418(2) 0.4606(5)
C8_3 C 0.87615(27) 0.5643(2) 0.4869(5)
C9_3 C 0.8548(4) 0.6725(3) 0.8769(6)
C10_3 C 0.7300(8) 0.5304(5) 0.5213(15)
H1_3 H 0.7563 0.5447 0.4856
C11_3 C 0.6561(14) 0.4717(7) 0.537(3)
H2_3 H 0.6566 0.4872 0.6037
H3_3 H 0.6458 0.4426 0.5567
H4_3 H 0.6379 0.4734 0.4803
C12_3 C 0.6982(4) 0.6470(3) 0.5800(8)
H5_3 H 0.7218 0.6739 0.5724
C13_3 C 0.6228(4) 0.6030(3) 0.5686(11)
H6_3 H 0.6299 0.5813 0.5831
H7_3 H 0.6074 0.5971 0.4982
H8_3 H 0.6057 0.6037 0.6302
C14 C 0.6566(5) 0.6795(4) 0.5390(14)
H9 H 0.6841 0.7043 0.5354
H10 H 0.6404 0.6825 0.5995
H11 H 0.6421 0.6759 0.4676
N1_3 N 0.90384(28) 0.5342(2) 0.3514(5)
N2_3 N 0.7043(10) 0.4923(5) 0.4850(19)
N3_3 N 0.6609(3) 0.6431(2) 0.5604(6)
I1_3 I 0.868634(28) 0.56686(2) 0.85706(5)
I2_3 I 0.943563(24) 0.49538(2) 0.52474(4)
I3_3 I 0.853354(26) 0.58560(2) 0.35297(4)
C15_3 C 0.7070(8) 0.4635(6) 0.3678(16)
H12_3 H 0.7360 0.4756 0.3436
H13_3 H 0.6903 0.4647 0.3060
H14_3 H 0.6963 0.4345 0.3898
Nd2_3 Nd 0.896288(13) 0.713082(10) 0.65881(3)
Nd3_3 Nd 0.953584(16) 0.516539(9) 0.99215(3)
O9_3 O 0.78344(19) 0.69224(14) 0.6929(4)
O10_3 O 0.73812(30) 0.62381(25) 0.8585(4)
O11_3 O 0.74736(30) 0.56917(25) 0.8514(5)
O12_3 O 0.83349(20) 0.67420(14) 0.5443(4)
O13_3 O 0.7748(3) 0.6318(2) 0.4559(4)
H15_3 H 0.84022 0.657822 0.958128
H16_3 H 0.893376 0.544672 0.285463
H17_3 H 0.919318 0.518032 0.335492
Nd1_4 Nd 0.046416(10) 0.483461(9) 0.00785(3)
O3_4 O 0.11432(17) 0.73812(18) 0.1415(4)
O4_4 O 0.17820(17) 0.74736(18) 0.1486(5)
O5_4 O 0.00754(14) 0.50738(14) 0.1223(4)
C3_4 C 0.1087(2) 0.65872(19) 0.0223(5)
C4_4 C 0.1310(2) 0.7019(2) 0.0021(5)
C5_4 C 0.1425(2) 0.7320(2) 0.1037(5)
I1_4 I 0.09981(2) 0.635107(19) 0.19039(5)
Nd3_4 Nd 0.150128(9) 0.770379(13) 0.32548(3)
O10_4 O 0.04286(25) 0.44765(17) 0.1918(4)
O11_4 O 0.09750(25) 0.51153(17) 0.1847(5)
H15_4 H 0.00884432 0.515731 0.291461
H5_4 H 0.9928 0.3812 0.9057
C14_2 C 0.9872(4) 0.3104(3) 0.8723(14)
H9_2 H 0.9624 0.3131 0.8687
H10_2 H 0.9842 0.2912 0.9328
H11_2 H 0.9908 0.2995 0.8009
O12_4 O 0.99246(14) 0.49262(14) 0.8777(4)
Nd1_5 Nd 0.516539(9) 0.562954(13) 0.00785(3)
O3_5 O 0.26188(18) 0.37619(25) 0.1415(4)
O4_5 O 0.25264(18) 0.43083(25) 0.1486(5)
O5_5 O 0.49262(14) 0.50015(20) 0.1223(4)
O6_4 O 0.4763(2) 0.4414(3) 0.2107(4)
C3_5 C 0.34128(19) 0.44994(28) 0.0223(5)
C4_5 C 0.2981(2) 0.4290(3) 0.0021(5)
C5_5 C 0.2680(2) 0.4104(3) 0.1037(5)
C9_4 C 0.4844(3) 0.4785(4) 0.2102(6)
I1_5 I 0.364893(19) 0.464699(28) 0.19039(5)
Nd3_5 Nd 0.229621(13) 0.379749(16) 0.32548(3)
O9_4 O 0.57547(13) 0.54990(19) 0.0263(4)
O10_5 O 0.55235(17) 0.59521(30) 0.1918(4)
O11_5 O 0.48847(17) 0.58597(30) 0.1847(5)
H15_5 H 0.484269 0.493114 0.291461
O1_4 O 0.44136(13) 0.51837(19) 0.9614(4)
O2_4 O 0.42453(13) 0.45010(19) 0.9737(4)
O7_4 O 0.49264(19) 0.60970(26) 0.9302(6)
O8_4 O 0.58034(16) 0.62910(25) 0.9408(5)
C1_4 C 0.41684(18) 0.47950(27) 0.9583(5)
C2_4 C 0.36994(17) 0.46311(25) 0.9321(5)
C6_4 C 0.28388(17) 0.42244(26) 0.8890(5)
C7_4 C 0.31132(19) 0.43618(28) 0.7939(5)
C8_4 C 0.35482(18) 0.45718(27) 0.8202(5)
C10_4 C 0.4671(6) 0.6033(8) 0.8546(15)
H1_4 H 0.4551 0.5770 0.8189
C11_4 C 0.4823(12) 0.6772(14) 0.870(3)
H2_4 H 0.4973 0.6767 0.9370
H3_4 H 0.4635 0.6875 0.8900
H4_4 H 0.5022 0.6954 0.8136
C12_4 C 0.6155(2) 0.6351(4) 0.9133(8)
H5_5 H 0.6188 0.6115 0.9057
C13_4 C 0.6469(3) 0.7105(4) 0.9019(11)
H6_4 H 0.6181 0.7034 0.9164
H7_4 H 0.6564 0.7259 0.8315
H8_4 H 0.6647 0.7276 0.9635
C14_3 C 0.6896(3) 0.6767(5) 0.8723(14)
H9_3 H 0.6869 0.6492 0.8687
H10_3 H 0.7088 0.6929 0.9328
H11_3 H 0.7005 0.6912 0.8009
N1_4 N 0.29703(19) 0.42949(28) 0.6847(5)
N2_4 N 0.4547(9) 0.6290(10) 0.8183(19)
N3_4 N 0.6489(2) 0.6724(3) 0.8937(6)
I2_4 I 0.218484(14) 0.389770(24) 0.85807(4)
I3_4 I 0.398913(16) 0.479979(26) 0.68630(4)
C15_4 C 0.4232(6) 0.6263(8) 0.7011(16)
H12_4 H 0.4063 0.5973 0.6769
H13_4 H 0.4411 0.6430 0.6393
H14_4 H 0.4049 0.6370 0.7231
O12_5 O 0.50738(14) 0.49985(20) 0.8777(4)
O13_4 O 0.5237(2) 0.5586(3) 0.7893(4)
H16_4 H 0.317962 0.439957 0.618797
H17_4 H 0.265381 0.414015 0.668825
H5_6 H 0.3885 0.0072 0.9057
C14_4 C 0.3233(5) 0.0128(4) 0.8723(14)
H9_4 H 0.3508 0.0376 0.8687
H10_4 H 0.3071 0.0158 0.9328
H11_4 H 0.3088 0.0092 0.8009
O12_6 O 0.50015(20) 0.00754(14) 0.8777(4)
Nd1_6 Nd 0.437046(13) 0.953584(10) 0.00785(3)
O3_6 O 0.62381(25) 0.88568(17) 0.1415(4)
O4_6 O 0.56917(25) 0.82180(17) 0.1486(5)
O5_6 O 0.49985(20) 0.99246(14) 0.1223(4)
C3_6 C 0.55006(28) 0.8913(2) 0.0223(5)
C4_6 C 0.5710(3) 0.8690(2) 0.0021(5)
C5_6 C 0.5896(3) 0.8575(2) 0.1037(5)
I1_6 I 0.535301(28) 0.90019(2) 0.19039(5)
Nd3_6 Nd 0.620251(16) 0.849872(9) 0.32548(3)
O10_6 O 0.40479(30) 0.95714(25) 0.1918(4)
O11_6 O 0.41403(30) 0.90250(25) 0.1847(5)
H15_6 H 0.506886 0.991156 0.291461
O3_7 O 0.78098(17) 0.07146(18) 0.4749(4)
O4_7 O 0.84486(17) 0.08070(18) 0.4820(5)
C4_7 C 0.7976(2) 0.0353(2) 0.3355(5)
C5_7 C 0.8091(2) 0.0654(2) 0.4371(5)
C6_5 C 0.8052(2) 0.04946(17) 0.2224(5)
C7_5 C 0.7915(2) 0.02202(19) 0.1273(5)
N1_5 N 0.7991(2) 0.03631(19) 0.0181(5)
I2_5 I 0.83795(2) 0.114850(14) 0.19141(4)
H17_5 H 0.815302 0.0679528 0.00215839
Nd1_7 Nd 0.713082(10) 0.816795(9) 0.34119(3)
O1_5 O 0.74368(14) 0.89198(13) 0.2948(4)
O2_5 O 0.69224(14) 0.90881(13) 0.3071(4)
O5_7 O 0.67420(14) 0.84072(14) 0.4557(4)
O6_5 O 0.6318(2) 0.8571(2) 0.5441(4)
O7_5 O 0.78373(18) 0.84070(19) 0.2636(6)
O8_5 O 0.71543(19) 0.75300(16) 0.2742(5)
C1_5 C 0.7293(2) 0.91650(18) 0.2917(5)
C2_5 C 0.75984(19) 0.96340(17) 0.2655(5)
C3_7 C 0.7753(2) 0.99206(19) 0.3557(5)
C8_5 C 0.7690(2) 0.97852(18) 0.1536(5)
C9_5 C 0.6608(3) 0.8490(3) 0.5436(6)
C10_5 C 0.8029(5) 0.8663(6) 0.1880(15)
H1_5 H 0.7886 0.8783 0.1523
C11_5 C 0.8616(7) 0.8511(12) 0.204(3)
H2_5 H 0.8461 0.8361 0.2704
H3_5 H 0.8907 0.8699 0.2234
H4_5 H 0.8599 0.8312 0.1470
C12_5 C 0.6863(3) 0.7179(2) 0.2467(8)
H5_7 H 0.6594 0.7146 0.2391
C13_5 C 0.7303(3) 0.6865(3) 0.2353(11)
H6_5 H 0.7520 0.7153 0.2498
H7_5 H 0.7362 0.6770 0.1649
H8_5 H 0.7296 0.6687 0.2969
C14_5 C 0.6538(4) 0.6438(3) 0.2057(14)
H9_5 H 0.6290 0.6465 0.2021
H10_5 H 0.6508 0.6246 0.2662
H11_5 H 0.6574 0.6329 0.1343
N2_5 N 0.8410(5) 0.8787(9) 0.1517(19)
N3_5 N 0.6902(2) 0.6845(2) 0.2271(6)
I1_7 I 0.76647(2) 0.968441(19) 0.52373(5)
I3_5 I 0.74773(2) 0.934421(16) 0.01964(4)
C15_5 C 0.8698(6) 0.9102(6) 0.0345(16)
H12_5 H 0.8577 0.9271 0.0103
H14_5 H 0.8988 0.9285 0.0565
O9_5 O 0.64109(14) 0.75786(13) 0.3596(4)
O10_7 O 0.70953(25) 0.78098(17) 0.5251(4)
O11_7 O 0.76417(25) 0.84486(17) 0.5180(5)
O12_7 O 0.65913(14) 0.82595(14) 0.2110(4)
O13_5 O 0.7015(2) 0.8096(2) 0.1226(4)
H15_7 H 0.675511 0.849064 0.624794
Nd1_8 Nd 0.183205(9) 0.896288(13) 0.34119(3)
O1_6 O 0.10802(13) 0.85171(19) 0.2948(4)
O2_6 O 0.09119(13) 0.78344(19) 0.3071(4)
O5_8 O 0.15928(14) 0.83349(20) 0.4557(4)
O6_6 O 0.1429(2) 0.7748(3) 0.5441(4)
O7_6 O 0.15930(19) 0.94304(26) 0.2636(6)
O8_6 O 0.24700(16) 0.96244(25) 0.2742(5)
C1_6 C 0.08350(18) 0.81284(27) 0.2917(5)
C2_6 C 0.03660(17) 0.79645(25) 0.2655(5)
C3_8 C 0.00794(19) 0.78328(28) 0.3557(5)
C8_6 C 0.02148(18) 0.79052(27) 0.1536(5)
C9_6 C 0.1510(3) 0.8119(4) 0.5436(6)
C10_6 C 0.1337(6) 0.9367(8) 0.1880(15)
H1_6 H 0.1217 0.9104 0.1523
C12_6 C 0.2821(2) 0.9685(4) 0.2467(8)
H5_8 H 0.2854 0.9449 0.2391
H9_6 H 0.3535 0.9826 0.2021
N2_6 N 0.1213(9) 0.9624(10) 0.1517(19)
I1_8 I 0.031559(19) 0.798033(28) 0.52373(5)
I3_6 I 0.065579(16) 0.813313(26) 0.01964(4)
C15_6 C 0.0898(6) 0.9597(8) 0.0345(16)
H12_6 H 0.0729 0.9307 0.0103
H14_6 H 0.0715 0.9704 0.0565
O9_6 O 0.24214(13) 0.88323(19) 0.3596(4)
O10_8 O 0.21902(17) 0.92854(30) 0.5251(4)
O11_8 O 0.15514(17) 0.91930(30) 0.5180(5)
O12_8 O 0.17405(14) 0.83318(20) 0.2110(4)
O13_6 O 0.1904(2) 0.8919(3) 0.1226(4)
H15_8 H 0.150936 0.826447 0.624794
O3_8 O 0.92854(18) 0.70953(25) 0.4749(4)
O4_8 O 0.91930(18) 0.76417(25) 0.4820(5)
C4_8 C 0.9647(2) 0.7624(3) 0.3355(5)
C5_8 C 0.9346(2) 0.7438(3) 0.4371(5)
C6_6 C 0.95054(17) 0.75578(26) 0.2224(5)
C7_6 C 0.97798(19) 0.76952(28) 0.1273(5)
N1_6 N 0.96369(19) 0.76283(28) 0.0181(5)
I2_6 I 0.885150(14) 0.723104(24) 0.19141(4)
H17_6 H 0.932047 0.747349 0.00215839
Nd1_9 Nd 0.103712(13) 0.286918(10) 0.34119(3)
O1_7 O 0.14829(19) 0.25632(14) 0.2948(4)
O2_7 O 0.21656(19) 0.30776(14) 0.3071(4)
O3_9 O 0.29047(25) 0.21902(17) 0.4749(4)
O4_9 O 0.23583(25) 0.15514(17) 0.4820(5)
O5_9 O 0.16651(20) 0.32580(14) 0.4557(4)
O6_7 O 0.2252(3) 0.3682(2) 0.5441(4)
O7_7 O 0.05696(26) 0.21627(18) 0.2636(6)
O8_7 O 0.03756(25) 0.28457(19) 0.2742(5)
C1_7 C 0.18716(27) 0.2707(2) 0.2917(5)
C2_7 C 0.20355(25) 0.24016(19) 0.2655(5)
C3_9 C 0.21672(28) 0.2247(2) 0.3557(5)
C4_9 C 0.2376(3) 0.2024(2) 0.3355(5)
C5_9 C 0.2562(3) 0.1909(2) 0.4371(5)
C6_7 C 0.24422(26) 0.1948(2) 0.2224(5)
C7_7 C 0.23048(28) 0.2085(2) 0.1273(5)
C8_7 C 0.20948(27) 0.2310(2) 0.1536(5)
C9_7 C 0.1881(4) 0.3392(3) 0.5436(6)
C10_7 C 0.0633(8) 0.1971(5) 0.1880(15)
H1_7 H 0.0896 0.2114 0.1523
C12_7 C 0.0315(4) 0.3137(3) 0.2467(8)
H5_9 H 0.0551 0.3406 0.2391
H9_7 H 0.0174 0.3710 0.2021
N1_7 N 0.23717(28) 0.2009(2) 0.0181(5)
N2_7 N 0.0376(10) 0.1590(5) 0.1517(19)
I1_9 I 0.201967(28) 0.23353(2) 0.52373(5)
I2_7 I 0.276896(24) 0.16205(2) 0.19141(4)
I3_7 I 0.186687(26) 0.25227(2) 0.01964(4)
C15_7 C 0.0403(8) 0.1302(6) 0.0345(16)
H12_7 H 0.0693 0.1423 0.0103
H14_7 H 0.0296 0.1012 0.0565
O9_7 O 0.11677(19) 0.35891(14) 0.3596(4)
O10_9 O 0.07146(30) 0.29047(25) 0.5251(4)
O11_9 O 0.08070(30) 0.23583(25) 0.5180(5)
O12_9 O 0.16682(20) 0.34087(14) 0.2110(4)
O13_7 O 0.1081(3) 0.2985(2) 0.1226(4)
H15_9 H 0.173553 0.324489 0.624794
H17_7 H 0.252651 0.184698 0.00215839
O1_8 O 0.58965(14) 0.77469(13) 0.3719(4)
O7_8 O 0.54960(18) 0.82597(19) 0.4031(6)
O8_8 O 0.61790(19) 0.91367(16) 0.3925(5)
C1_8 C 0.6040(2) 0.75017(18) 0.3750(5)
C2_8 C 0.57349(19) 0.70327(17) 0.4012(5)
C3_10 C 0.5580(2) 0.67461(19) 0.3110(5)
C4_10 C 0.5357(2) 0.6314(2) 0.3312(5)
C5_10 C 0.5242(2) 0.6013(2) 0.2296(5)
C6_8 C 0.5281(2) 0.61721(17) 0.4443(5)
C7_8 C 0.5418(2) 0.64465(19) 0.5394(5)
C8_8 C 0.5643(2) 0.68815(18) 0.5131(5)
C9_8 C 0.6725(3) 0.8177(3) 0.1231(6)
C10_8 C 0.5304(5) 0.8004(6) 0.4787(15)
H1_8 H 0.5447 0.7884 0.5144
C11_6 C 0.4717(7) 0.8156(12) 0.463(3)
H2_6 H 0.4872 0.8306 0.3963
H3_6 H 0.4426 0.7968 0.4433
H4_6 H 0.4734 0.8355 0.5197
C12_8 C 0.6470(3) 0.9488(2) 0.4200(8)
H5_10 H 0.6739 0.9521 0.4276
C13_6 C 0.6030(3) 0.9802(3) 0.4314(11)
H6_6 H 0.5813 0.9514 0.4169
H7_6 H 0.5971 0.9897 0.5018
H8_6 H 0.6037 0.9980 0.3698
N1_8 N 0.5342(2) 0.63036(19) 0.6486(5)
N2_8 N 0.4923(5) 0.7880(9) 0.5150(19)
N3_6 N 0.6431(2) 0.9822(2) 0.4396(6)
I1_10 I 0.56686(2) 0.698226(19) 0.14294(5)
I2_8 I 0.49538(2) 0.551817(14) 0.47526(4)
I3_8 I 0.58560(2) 0.732246(16) 0.64703(4)
C15_8 C 0.4635(6) 0.7565(6) 0.6322(16)
H12_8 H 0.4756 0.7396 0.6564
H13_5 H 0.4647 0.7744 0.6940
H14_8 H 0.4345 0.7382 0.6102
H15_10 H 0.657822 0.817603 0.0418723
H16_5 H 0.544672 0.651296 0.714537
H17_8 H 0.518032 0.598714 0.664508
O1_9 O 0.22531(13) 0.81496(19) 0.3719(4)
O7_9 O 0.17403(19) 0.72363(26) 0.4031(6)
O8_9 O 0.08633(16) 0.70423(25) 0.3925(5)
C1_9 C 0.24983(18) 0.85383(27) 0.3750(5)
C2_9 C 0.29673(17) 0.87022(25) 0.4012(5)
C3_11 C 0.32539(19) 0.88339(28) 0.3110(5)
C4_11 C 0.3686(2) 0.9043(3) 0.3312(5)
C5_11 C 0.3987(2) 0.9229(3) 0.2296(5)
C6_9 C 0.38279(17) 0.91089(26) 0.4443(5)
C7_9 C 0.35535(19) 0.89715(28) 0.5394(5)
C8_9 C 0.31185(18) 0.87615(27) 0.5131(5)
C9_9 C 0.1823(3) 0.8548(4) 0.1231(6)
C10_9 C 0.1996(6) 0.7300(8) 0.4787(15)
H1_9 H 0.2116 0.7563 0.5144
C11_7 C 0.1844(12) 0.6561(14) 0.463(3)
H2_7 H 0.1694 0.6566 0.3963
H3_7 H 0.2032 0.6458 0.4433
H4_7 H 0.1645 0.6379 0.5197
C12_9 C 0.0512(2) 0.6982(4) 0.4200(8)
H5_11 H 0.0479 0.7218 0.4276
C13_7 C 0.0198(3) 0.6228(4) 0.4314(11)
H6_7 H 0.0486 0.6299 0.4169
H7_7 H 0.0103 0.6074 0.5018
H8_7 H 0.0020 0.6057 0.3698
N1_9 N 0.36964(19) 0.90384(28) 0.6486(5)
N2_9 N 0.2120(9) 0.7043(10) 0.5150(19)
N3_7 N 0.0178(2) 0.6609(3) 0.4396(6)
I1_11 I 0.301774(19) 0.868634(28) 0.14294(5)
I2_9 I 0.448183(14) 0.943563(24) 0.47526(4)
I3_9 I 0.267754(16) 0.853354(26) 0.64703(4)
C15_9 C 0.2435(6) 0.7070(8) 0.6322(16)
H12_9 H 0.2604 0.7360 0.6564
H13_6 H 0.2256 0.6903 0.6940
H14_9 H 0.2618 0.6963 0.6102
H15_11 H 0.182397 0.84022 0.0418723
H16_6 H 0.348704 0.893376 0.714537
H17_9 H 0.401286 0.919318 0.664508
O1_10 O 0.18504(19) 0.41035(14) 0.3719(4)
O7_10 O 0.27637(26) 0.45040(18) 0.4031(6)
O8_10 O 0.29577(25) 0.38210(19) 0.3925(5)
C1_10 C 0.14617(27) 0.3960(2) 0.3750(5)
C2_10 C 0.12978(25) 0.42651(19) 0.4012(5)
C3_12 C 0.11661(28) 0.4420(2) 0.3110(5)
C4_12 C 0.0957(3) 0.4643(2) 0.3312(5)
C5_12 C 0.0771(3) 0.4758(2) 0.2296(5)
C6_10 C 0.08911(26) 0.4719(2) 0.4443(5)
C7_10 C 0.10285(28) 0.4582(2) 0.5394(5)
C8_10 C 0.12385(27) 0.4357(2) 0.5131(5)
C9_10 C 0.1452(4) 0.3275(3) 0.1231(6)
C10_10 C 0.2700(8) 0.4696(5) 0.4787(15)
H1_10 H 0.2437 0.4553 0.5144
C11_8 C 0.3439(14) 0.5283(7) 0.463(3)
H2_8 H 0.3434 0.5128 0.3963
H3_8 H 0.3542 0.5574 0.4433
H4_8 H 0.3621 0.5266 0.5197
C12_10 C 0.3018(4) 0.3530(3) 0.4200(8)
H5_12 H 0.2782 0.3261 0.4276
C13_8 C 0.3772(4) 0.3970(3) 0.4314(11)
H6_8 H 0.3701 0.4187 0.4169
H7_8 H 0.3926 0.4029 0.5018
H8_8 H 0.3943 0.3963 0.3698
C14_6 C 0.3434(5) 0.3205(4) 0.4610(14)
H9_8 H 0.3159 0.2957 0.4646
H10_6 H 0.3596 0.3175 0.4005
H11_6 H 0.3579 0.3241 0.5324
N1_10 N 0.09616(28) 0.4658(2) 0.6486(5)
N2_10 N 0.2957(10) 0.5077(5) 0.5150(19)
N3_8 N 0.3391(3) 0.3569(2) 0.4396(6)
I1_12 I 0.131366(28) 0.43314(2) 0.14294(5)
I2_10 I 0.056437(24) 0.50462(2) 0.47526(4)
I3_10 I 0.146646(26) 0.41440(2) 0.64703(4)
C15_10 C 0.2930(8) 0.5365(6) 0.6322(16)
H12_10 H 0.2640 0.5244 0.6564
H13_7 H 0.3097 0.5353 0.6940
H14_10 H 0.3037 0.5655 0.6102
H15_12 H 0.15978 0.342178 0.0418723
H16_7 H 0.106624 0.455328 0.714537
H17_10 H 0.0806821 0.481968 0.664508
H5_13 H 0.0072 0.6188 0.0943
C14_7 C 0.0128(4) 0.6896(3) 0.1277(14)
H9_9 H 0.0376 0.6869 0.1313
H10_7 H 0.0158 0.7088 0.0672
H11_7 H 0.0092 0.7005 0.1991
C3_13 C 0.8913(2) 0.34128(19) 0.9777(5)
C4_13 C 0.8690(2) 0.2981(2) 0.9979(5)
C5_13 C 0.8575(2) 0.2680(2) 0.8963(5)
I1_13 I 0.90019(2) 0.364893(19) 0.80961(5)
H15_13 H 0.991156 0.484269 0.708539
O1_11 O 0.55864(13) 0.48163(19) 0.0386(4)
O7_11 O 0.50736(19) 0.39030(26) 0.0698(6)
O8_11 O 0.41966(16) 0.37090(25) 0.0592(5)
C1_11 C 0.58316(18) 0.52050(27) 0.0417(5)
C2_11 C 0.63006(17) 0.53689(25) 0.0679(5)
C6_11 C 0.71612(17) 0.57756(26) 0.1110(5)
C7_11 C 0.68868(19) 0.56382(28) 0.2061(5)
C8_11 C 0.64518(18) 0.54282(27) 0.1798(5)
C10_11 C 0.5329(6) 0.3967(8) 0.1454(15)
H1_11 H 0.5449 0.4230 0.1811
C11_9 C 0.5177(12) 0.3228(14) 0.130(3)
H2_9 H 0.5027 0.3233 0.0630
H3_9 H 0.5365 0.3125 0.1100
H4_9 H 0.4978 0.3046 0.1864
C12_11 C 0.3845(2) 0.3649(4) 0.0867(8)
H5_14 H 0.3812 0.3885 0.0943
C13_9 C 0.3531(3) 0.2895(4) 0.0981(11)
H6_9 H 0.3819 0.2966 0.0836
H7_9 H 0.3436 0.2741 0.1685
H8_9 H 0.3353 0.2724 0.0365
C14_8 C 0.3104(3) 0.3233(5) 0.1277(14)
H9_10 H 0.3131 0.3508 0.1313
H10_8 H 0.2912 0.3071 0.0672
H11_8 H 0.2995 0.3088 0.1991
N1_11 N 0.70297(19) 0.57051(28) 0.3153(5)
N2_11 N 0.5453(9) 0.3710(10) 0.1817(19)
N3_9 N 0.3511(2) 0.3276(3) 0.1063(6)
I2_11 I 0.781516(14) 0.610230(24) 0.14193(4)
I3_11 I 0.601087(16) 0.520021(26) 0.31370(4)
C15_11 C 0.5768(6) 0.3737(8) 0.2989(16)
H12_11 H 0.5937 0.4027 0.3231
H13_8 H 0.5589 0.3570 0.3607
H14_11 H 0.5951 0.3630 0.2769
H16_8 H 0.682038 0.560043 0.381203
H17_11 H 0.734619 0.585985 0.331175
C3_14 C 0.65872(19) 0.55006(28) 0.9777(5)
C4_14 C 0.7019(2) 0.5710(3) 0.9979(5)
C5_14 C 0.7320(2) 0.5896(3) 0.8963(5)
C9_11 C 0.5156(3) 0.5215(4) 0.7898(6)
I1_14 I 0.635107(19) 0.535301(28) 0.80961(5)
H15_14 H 0.515731 0.506886 0.708539
C3_15 C 0.44994(28) 0.1087(2) 0.9777(5)
C4_15 C 0.4290(3) 0.1310(2) 0.9979(5)
C5_15 C 0.4104(3) 0.1425(2) 0.8963(5)
I1_15 I 0.464699(28) 0.09981(2) 0.80961(5)
H15_15 H 0.493114 0.00884432 0.708539
H5_15 H 0.6115 0.9928 0.0943
C14_9 C 0.6767(5) 0.9872(4) 0.1277(14)
H9_11 H 0.6492 0.9624 0.1313
H10_9 H 0.6929 0.9842 0.0672
H11_9 H 0.6912 0.9908 0.1991
O1_12 O 0.25632(14) 0.10802(13) 0.7052(4)
O7_12 O 0.21627(18) 0.15930(19) 0.7364(6)
O8_12 O 0.28457(19) 0.24700(16) 0.7258(5)
C1_12 C 0.2707(2) 0.08350(18) 0.7083(5)
C2_12 C 0.24016(19) 0.03660(17) 0.7345(5)
C3_16 C 0.2247(2) 0.00794(19) 0.6443(5)
C8_12 C 0.2310(2) 0.02148(18) 0.8464(5)
C9_12 C 0.3392(3) 0.1510(3) 0.4564(6)
C10_12 C 0.1971(5) 0.1337(6) 0.8120(15)
H1_12 H 0.2114 0.1217 0.8477
C11_10 C 0.1384(7) 0.1489(12) 0.796(3)
H2_10 H 0.1539 0.1639 0.7296
H3_10 H 0.1093 0.1301 0.7766
H4_10 H 0.1401 0.1688 0.8530
C12_12 C 0.3137(3) 0.2821(2) 0.7533(8)
H5_16 H 0.3406 0.2854 0.7609
C13_10 C 0.2697(3) 0.3135(3) 0.7647(11)
H6_10 H 0.2480 0.2847 0.7502
H7_10 H 0.2638 0.3230 0.8351
H8_10 H 0.2704 0.3313 0.7031
C14_10 C 0.3462(4) 0.3562(3) 0.7943(14)
H9_12 H 0.3710 0.3535 0.7979
H10_10 H 0.3492 0.3754 0.7338
H11_10 H 0.3426 0.3671 0.8657
N2_12 N 0.1590(5) 0.1213(9) 0.8483(19)
N3_10 N 0.3098(2) 0.3155(2) 0.7729(6)
I1_16 I 0.23353(2) 0.031559(19) 0.47627(5)
I3_12 I 0.25227(2) 0.065579(16) 0.98036(4)
C15_12 C 0.1302(6) 0.0898(6) 0.9655(16)
H12_12 H 0.1423 0.0729 0.9897
H14_12 H 0.1012 0.0715 0.9435
H15_16 H 0.324489 0.150936 0.375206
C4_16 C 0.2024(2) 0.9647(2) 0.6645(5)
C5_16 C 0.1909(2) 0.9346(2) 0.5629(5)
C6_12 C 0.1948(2) 0.95054(17) 0.7776(5)
C7_12 C 0.2085(2) 0.97798(19) 0.8727(5)
N1_12 N 0.2009(2) 0.96369(19) 0.9819(5)
I2_12 I 0.16205(2) 0.885150(14) 0.80859(4)
H17_12 H 0.184698 0.932047 0.997842
C4_17 C 0.0353(2) 0.2376(3) 0.6645(5)
C5_17 C 0.0654(2) 0.2562(3) 0.5629(5)
C6_13 C 0.04946(17) 0.24422(26) 0.7776(5)
C7_13 C 0.02202(19) 0.23048(28) 0.8727(5)
N1_13 N 0.03631(19) 0.23717(28) 0.9819(5)
I2_13 I 0.114850(14) 0.276896(24) 0.80859(4)
H17_13 H 0.0679528 0.252651 0.997842
O1_13 O 0.89198(13) 0.14829(19) 0.7052(4)
O7_13 O 0.84070(19) 0.05696(26) 0.7364(6)
O8_13 O 0.75300(16) 0.03756(25) 0.7258(5)
C1_13 C 0.91650(18) 0.18716(27) 0.7083(5)
C2_13 C 0.96340(17) 0.20355(25) 0.7345(5)
C3_17 C 0.99206(19) 0.21672(28) 0.6443(5)
C8_13 C 0.97852(18) 0.20948(27) 0.8464(5)
C9_13 C 0.8490(3) 0.1881(4) 0.4564(6)
C10_13 C 0.8663(6) 0.0633(8) 0.8120(15)
H1_13 H 0.8783 0.0896 0.8477
C12_13 C 0.7179(2) 0.0315(4) 0.7533(8)
H5_17 H 0.7146 0.0551 0.7609
H9_13 H 0.6465 0.0174 0.7979
N2_13 N 0.8787(9) 0.0376(10) 0.8483(19)
I1_17 I 0.968441(19) 0.201967(28) 0.47627(5)
I3_13 I 0.934421(16) 0.186687(26) 0.98036(4)
C15_13 C 0.9102(6) 0.0403(8) 0.9655(16)
H12_13 H 0.9271 0.0693 0.9897
H14_13 H 0.9285 0.0296 0.9435
H15_17 H 0.849064 0.173553 0.375206
O1_14 O 0.85171(19) 0.74368(14) 0.7052(4)
O7_14 O 0.94304(26) 0.78373(18) 0.7364(6)
O8_14 O 0.96244(25) 0.71543(19) 0.7258(5)
C1_14 C 0.81284(27) 0.7293(2) 0.7083(5)
C2_14 C 0.79645(25) 0.75984(19) 0.7345(5)
C3_18 C 0.78328(28) 0.7753(2) 0.6443(5)
C4_18 C 0.7624(3) 0.7976(2) 0.6645(5)
C5_18 C 0.7438(3) 0.8091(2) 0.5629(5)
C6_14 C 0.75578(26) 0.8052(2) 0.7776(5)
C7_14 C 0.76952(28) 0.7915(2) 0.8727(5)
C8_14 C 0.79052(27) 0.7690(2) 0.8464(5)
C9_14 C 0.8119(4) 0.6608(3) 0.4564(6)
C10_14 C 0.9367(8) 0.8029(5) 0.8120(15)
H1_14 H 0.9104 0.7886 0.8477
C12_14 C 0.9685(4) 0.6863(3) 0.7533(8)
H5_18 H 0.9449 0.6594 0.7609
H9_14 H 0.9826 0.6290 0.7979
N1_14 N 0.76283(28) 0.7991(2) 0.9819(5)
N2_14 N 0.9624(10) 0.8410(5) 0.8483(19)
I1_18 I 0.798033(28) 0.76647(2) 0.47627(5)
I2_14 I 0.723104(24) 0.83795(2) 0.80859(4)
I3_14 I 0.813313(26) 0.74773(2) 0.98036(4)
C15_14 C 0.9597(8) 0.8698(6) 0.9655(16)
H12_14 H 0.9307 0.8577 0.9897
H14_14 H 0.9704 0.8988 0.9435
H15_18 H 0.826447 0.675511 0.375206
H17_14 H 0.747349 0.815302 0.997842
C14_11 C 0.3205(4) 0.9771(3) 0.5390(14)
H9_15 H 0.2957 0.9798 0.5354
H10_11 H 0.3175 0.9579 0.5995
H11_11 H 0.3241 0.9662 0.4676
C14_12 C 0.0229(3) 0.3434(5) 0.5390(14)
H9_16 H 0.0202 0.3159 0.5354
H10_12 H 0.0421 0.3596 0.5995
H11_12 H 0.0338 0.3579 0.4676
O1_15 O 0.07702(14) 0.55864(13) 0.9614(4)
O2_8 O 0.02558(14) 0.57547(13) 0.9737(4)
O7_15 O 0.11707(18) 0.50736(19) 0.9302(6)
O8_15 O 0.04877(19) 0.41966(16) 0.9408(5)
C1_15 C 0.0627(2) 0.58316(18) 0.9583(5)
C2_15 C 0.09318(19) 0.63006(17) 0.9321(5)
C6_15 C 0.1386(2) 0.71612(17) 0.8890(5)
C7_15 C 0.1249(2) 0.68868(19) 0.7939(5)
C8_15 C 0.1024(2) 0.64518(18) 0.8202(5)
C10_15 C 0.1363(5) 0.5329(6) 0.8546(15)
H1_15 H 0.1220 0.5449 0.8189
C11_11 C 0.1950(7) 0.5177(12) 0.870(3)
H2_11 H 0.1795 0.5027 0.9370
H3_11 H 0.2241 0.5365 0.8900
H4_11 H 0.1933 0.4978 0.8136
C12_15 C 0.0197(3) 0.3845(2) 0.9133(8)
C13_11 C 0.0637(3) 0.3531(3) 0.9019(11)
H6_11 H 0.0854 0.3819 0.9164
H7_11 H 0.0696 0.3436 0.8315
H8_11 H 0.0630 0.3353 0.9635
N1_15 N 0.1325(2) 0.70297(19) 0.6847(5)
N2_15 N 0.1744(5) 0.5453(9) 0.8183(19)
N3_11 N 0.0236(2) 0.3511(2) 0.8937(6)
I2_15 I 0.17129(2) 0.781516(14) 0.85807(4)
I3_15 I 0.08107(2) 0.601087(16) 0.68630(4)
C15_15 C 0.2032(6) 0.5768(6) 0.7011(16)
H12_15 H 0.1911 0.5937 0.6769
H13_9 H 0.2020 0.5589 0.6393
H14_15 H 0.2322 0.5951 0.7231
O13_8 O 0.0348(2) 0.4763(2) 0.7893(4)
H16_9 H 0.121995 0.682038 0.618797
H17_15 H 0.148635 0.734619 0.668825
C9_15 C 0.0058(3) 0.4844(3) 0.7898(6)
O6_8 O 0.9652(2) 0.5237(2) 0.2107(4)
C9_16 C 0.9942(3) 0.5156(3) 0.2102(6)
O9_8 O 0.97442(14) 0.42453(13) 0.0263(4)
O1_16 O 0.92298(14) 0.44136(13) 0.0386(4)
O7_16 O 0.88293(18) 0.49264(19) 0.0698(6)
O8_16 O 0.95123(19) 0.58034(16) 0.0592(5)
C1_16 C 0.9373(2) 0.41684(18) 0.0417(5)
C2_16 C 0.90682(19) 0.36994(17) 0.0679(5)
C6_16 C 0.8614(2) 0.28388(17) 0.1110(5)
C7_16 C 0.8751(2) 0.31132(19) 0.2061(5)
C8_16 C 0.8976(2) 0.35482(18) 0.1798(5)
C10_16 C 0.8637(5) 0.4671(6) 0.1454(15)
H1_16 H 0.8780 0.4551 0.1811
C11_12 C 0.8050(7) 0.4823(12) 0.130(3)
H2_12 H 0.8205 0.4973 0.0630
H3_12 H 0.7759 0.4635 0.1100
H4_12 H 0.8067 0.5022 0.1864
C12_16 C 0.9803(3) 0.6155(2) 0.0867(8)
C13_12 C 0.9363(3) 0.6469(3) 0.0981(11)
H6_12 H 0.9146 0.6181 0.0836
H7_12 H 0.9304 0.6564 0.1685
H8_12 H 0.9370 0.6647 0.0365
N1_16 N 0.8675(2) 0.29703(19) 0.3153(5)
N2_16 N 0.8256(5) 0.4547(9) 0.1817(19)
N3_12 N 0.9764(2) 0.6489(2) 0.1063(6)
I2_16 I 0.82871(2) 0.218484(14) 0.14193(4)
I3_16 I 0.91893(2) 0.398913(16) 0.31370(4)
C15_16 C 0.7968(6) 0.4232(6) 0.2989(16)
H12_16 H 0.8089 0.4063 0.3231
H13_10 H 0.7980 0.4411 0.3607
H14_16 H 0.7678 0.4049 0.2769
H16_10 H 0.878005 0.317962 0.381203
H17_16 H 0.851365 0.265381 0.331175
O6_9 O 0.5586(3) 0.0348(2) 0.2107(4)
C9_17 C 0.5215(4) 0.0058(3) 0.2102(6)
O9_9 O 0.45010(19) 0.02558(14) 0.0263(4)
O1_17 O 0.51837(19) 0.07702(14) 0.0386(4)
O7_17 O 0.60970(26) 0.11707(18) 0.0698(6)
O8_17 O 0.62910(25) 0.04877(19) 0.0592(5)
C1_17 C 0.47950(27) 0.0627(2) 0.0417(5)
C2_17 C 0.46311(25) 0.09318(19) 0.0679(5)
C6_17 C 0.42244(26) 0.1386(2) 0.1110(5)
C7_17 C 0.43618(28) 0.1249(2) 0.2061(5)
C8_17 C 0.45718(27) 0.1024(2) 0.1798(5)
C10_17 C 0.6033(8) 0.1363(5) 0.1454(15)
H1_17 H 0.5770 0.1220 0.1811
C11_13 C 0.6772(14) 0.1950(7) 0.130(3)
H2_13 H 0.6767 0.1795 0.0630
H3_13 H 0.6875 0.2241 0.1100
H4_13 H 0.6954 0.1933 0.1864
C12_17 C 0.6351(4) 0.0197(3) 0.0867(8)
C13_13 C 0.7105(4) 0.0637(3) 0.0981(11)
H6_13 H 0.7034 0.0854 0.0836
H7_13 H 0.7259 0.0696 0.1685
H8_13 H 0.7276 0.0630 0.0365
N1_17 N 0.42949(28) 0.1325(2) 0.3153(5)
N2_17 N 0.6290(10) 0.1744(5) 0.1817(19)
N3_13 N 0.6724(3) 0.0236(2) 0.1063(6)
I2_17 I 0.389770(24) 0.17129(2) 0.14193(4)
I3_17 I 0.479979(26) 0.08107(2) 0.31370(4)
C15_17 C 0.6263(8) 0.2032(6) 0.2989(16)
H12_17 H 0.5973 0.1911 0.3231
H13_11 H 0.6430 0.2020 0.3607
H14_17 H 0.6370 0.2322 0.2769
H16_11 H 0.439957 0.121995 0.381203
H17_17 H 0.414015 0.148635 0.331175
O1_18 O 0.48163(19) 0.92298(14) 0.9614(4)
O2_9 O 0.54990(19) 0.97442(14) 0.9737(4)
O7_18 O 0.39030(26) 0.88293(18) 0.9302(6)
O8_18 O 0.37090(25) 0.95123(19) 0.9408(5)
C1_18 C 0.52050(27) 0.9373(2) 0.9583(5)
C2_18 C 0.53689(25) 0.90682(19) 0.9321(5)
C6_18 C 0.57756(26) 0.8614(2) 0.8890(5)
C7_18 C 0.56382(28) 0.8751(2) 0.7939(5)
C8_18 C 0.54282(27) 0.8976(2) 0.8202(5)
C10_18 C 0.3967(8) 0.8637(5) 0.8546(15)
H1_18 H 0.4230 0.8780 0.8189
C11_14 C 0.3228(14) 0.8050(7) 0.870(3)
H2_14 H 0.3233 0.8205 0.9370
H3_14 H 0.3125 0.7759 0.8900
H4_14 H 0.3046 0.8067 0.8136
C12_18 C 0.3649(4) 0.9803(3) 0.9133(8)
C13_14 C 0.2895(4) 0.9363(3) 0.9019(11)
H6_14 H 0.2966 0.9146 0.9164
H7_14 H 0.2741 0.9304 0.8315
H8_14 H 0.2724 0.9370 0.9635
N1_18 N 0.57051(28) 0.8675(2) 0.6847(5)
N2_18 N 0.3710(10) 0.8256(5) 0.8183(19)
N3_14 N 0.3276(3) 0.9764(2) 0.8937(6)
I2_18 I 0.610230(24) 0.82871(2) 0.85807(4)
I3_18 I 0.520021(26) 0.91893(2) 0.68630(4)
C15_18 C 0.3737(8) 0.7968(6) 0.7011(16)
H12_18 H 0.4027 0.8089 0.6769
H13_12 H 0.3570 0.7980 0.6393
H14_18 H 0.3630 0.7678 0.7231
O13_9 O 0.4414(3) 0.9652(2) 0.7893(4)
H16_12 H 0.560043 0.878005 0.618797
H17_18 H 0.585985 0.851365 0.668825
C9_18 C 0.4785(4) 0.9942(3) 0.7898(6)
H16_13 H 0.788661 0.0153709 0.95213
H13_13 H 0.8686 0.8923 0.9727
C11_15 C 0.1489(12) 0.0106(14) 0.204(3)
H2_15 H 0.1639 0.0101 0.2704
H3_15 H 0.1301 0.0209 0.2234
H4_15 H 0.1688 0.0288 0.1470
C13_15 C 0.3135(3) 0.0439(4) 0.2353(11)
H6_15 H 0.2847 0.0368 0.2498
H7_15 H 0.3230 0.0593 0.1649
H8_15 H 0.3313 0.0610 0.2969
C14_13 C 0.3562(3) 0.0101(5) 0.2057(14)
H10_13 H 0.3754 0.0263 0.2662
H11_13 H 0.3671 0.0246 0.1343
N3_15 N 0.3155(2) 0.0058(3) 0.2271(6)
H13_14 H 0.1077 0.9764 0.9727
H16_14 H 0.984629 0.77329 0.95213
H13_15 H 0.0236 0.1314 0.9727
H16_15 H 0.22671 0.211339 0.95213
C11_16 C 0.9894(14) 0.1384(7) 0.204(3)
H2_16 H 0.9899 0.1539 0.2704
H3_16 H 0.9791 0.1093 0.2234
H4_16 H 0.9712 0.1401 0.1470
C13_16 C 0.9561(4) 0.2697(3) 0.2353(11)
H6_16 H 0.9632 0.2480 0.2498
H7_16 H 0.9407 0.2638 0.1649
H8_16 H 0.9390 0.2704 0.2969
C14_14 C 0.9899(5) 0.3462(4) 0.2057(14)
H10_14 H 0.9737 0.3492 0.2662
H11_14 H 0.9754 0.3426 0.1343
N3_16 N 0.9942(3) 0.3098(2) 0.2271(6)
C14_15 C 0.6795(4) 0.0229(3) 0.4610(14)
H9_17 H 0.7043 0.0202 0.4646
H10_15 H 0.6825 0.0421 0.4005
H11_15 H 0.6759 0.0338 0.5324
C14_16 C 0.9771(3) 0.6566(5) 0.4610(14)
H9_18 H 0.9798 0.6841 0.4646
H10_16 H 0.9579 0.6404 0.4005
H11_16 H 0.9662 0.6421 0.5324
H13_16 H 0.1314 0.1077 0.0273
H16_16 H 0.211339 0.984629 0.0478701
H16_17 H 0.0153709 0.22671 0.0478701
H13_17 H 0.8923 0.0236 0.0273
C11_17 C 0.8511(12) 0.9894(14) 0.796(3)
H2_17 H 0.8361 0.9899 0.7296
H3_17 H 0.8699 0.9791 0.7766
H4_17 H 0.8312 0.9712 0.8530
C13_17 C 0.6865(3) 0.9561(4) 0.7647(11)
H6_17 H 0.7153 0.9632 0.7502
H7_17 H 0.6770 0.9407 0.8351
H8_17 H 0.6687 0.9390 0.7031
C14_17 C 0.6438(3) 0.9899(5) 0.7943(14)
H10_17 H 0.6246 0.9737 0.7338
H11_17 H 0.6329 0.9754 0.8657
N3_17 N 0.6845(2) 0.9942(3) 0.7729(6)
C11_18 C 0.0106(14) 0.8616(7) 0.796(3)
H2_18 H 0.0101 0.8461 0.7296
H3_18 H 0.0209 0.8907 0.7766
H4_18 H 0.0288 0.8599 0.8530
C13_18 C 0.0439(4) 0.7303(3) 0.7647(11)
H6_18 H 0.0368 0.7520 0.7502
H7_18 H 0.0593 0.7362 0.8351
H8_18 H 0.0610 0.7296 0.7031
C14_18 C 0.0101(5) 0.6538(4) 0.7943(14)
H10_18 H 0.0263 0.6508 0.7338
H11_18 H 0.0246 0.6574 0.8657
N3_18 N 0.0058(3) 0.6902(2) 0.7729(6)
H13_18 H 0.9764 0.8686 0.0273
H16_18 H 0.77329 0.788661 0.0478701
loop_
_geom_bond_atom_site_label_1
_geom_bond_atom_site_label_2
_geom_bond_site_symmetry_1
_geom_bond_site_symmetry_2
Nd1 O1 1_555 1_555
O1 C1 1_555 1_555
O2 C1 1_555 1_555
O3 C5 1_555 1_555
O4 C5 1_555 1_555
O5 Nd1 1_555 1_555
O6 C9 1_555 1_555
O7 Nd1 1_555 1_555
O8 Nd1 1_555 1_555
C1 C2 1_555 1_555
C2 C3 1_555 1_555
C3 C4 1_555 1_555
C4 C5 1_555 1_555
C6 C4 1_555 1_555
C7 C6 1_555 1_555
C8 C2 1_555 1_555
C9 O5 1_555 1_555
C10 O7 1_555 1_555
H1 C10 1_555 1_555
C11 H2 1_555 1_555
H3 C11 1_555 1_555
H4 C11 1_555 1_555
C12 O8 1_555 1_555
H5 C12 1_555 1_555
C13 H6 1_555 1_555
H7 C13 1_555 1_555
H8 C13 1_555 1_555
N1 C7 1_555 1_555
N2 C10 1_555 1_555
N3 C12 1_555 1_555
I1 C3 1_555 1_555
I2 C6 1_555 1_555
I3 C8 1_555 1_555
C15 N2 1_555 1_555
H12 C15 1_555 1_555
H13 C15 1_555 1_555
H14 C15 1_555 1_555
Nd2 O2 1_555 1_555
Nd3 O3 1_555 1_555
O9 Nd1 1_555 1_555
O10 Nd1 1_555 1_555
O11 Nd1 1_555 1_555
O12 Nd1 1_555 1_555
O13 Nd1 1_555 1_555
O4 Nd3 1_555 1_555
O5 Nd2 1_555 1_555
O6 Nd2 1_555 1_555
C7 C8 1_555 1_555
C11 N2 1_555 1_555
C13 N3 1_555 1_555
Nd2 O12 1_555 1_555
C9 H15 1_555 1_555
N1 H16 1_555 1_555
N1 H17 1_555 1_555
Nd1_2 O1_2 1_555 1_555
O1_2 C1_2 1_555 1_555
O2_2 C1_2 1_555 1_555
O3_2 C5_2 1_555 1_555
O4_2 C5_2 1_555 1_555
O5_2 Nd1_2 1_555 1_555
O6_2 C9_2 1_555 1_555
O7_2 Nd1_2 1_555 1_555
O8_2 Nd1_2 1_555 1_555
C1_2 C2_2 1_555 1_555
C2_2 C3_2 1_555 1_555
C3_2 C4_2 1_555 1_555
C4_2 C5_2 1_555 1_555
C6_2 C4_2 1_555 1_555
C7_2 C6_2 1_555 1_555
C8_2 C2_2 1_555 1_555
C9_2 O5_2 1_555 1_555
C10_2 O7_2 1_555 1_555
H1_2 C10_2 1_555 1_555
C11_2 H2_2 1_555 1_555
H3_2 C11_2 1_555 1_555
H4_2 C11_2 1_555 1_555
C12_2 O8_2 1_555 1_555
H5_2 C12_2 1_555 1_555
C13_2 H6_2 1_555 1_555
H7_2 C13_2 1_555 1_555
H8_2 C13_2 1_555 1_555
N1_2 C7_2 1_555 1_555
N2_2 C10_2 1_555 1_555
N3_2 C12_2 1_555 1_555
I1_2 C3_2 1_555 1_555
I2_2 C6_2 1_555 1_555
I3_2 C8_2 1_555 1_555
C15_2 N2_2 1_555 1_555
H12_2 C15_2 1_555 1_555
H13_2 C15_2 1_555 1_555
H14_2 C15_2 1_555 1_555
Nd2_2 O2_2 1_555 1_555
Nd3_2 O3_2 1_555 1_555
O9_2 Nd1_2 1_555 1_555
O10_2 Nd1_2 1_555 1_555
O11_2 Nd1_2 1_555 1_555
O12_2 Nd1_2 1_555 1_555
O13_2 Nd1_2 1_555 1_555
O4_2 Nd3_2 1_555 1_555
O5_2 Nd2_2 1_555 1_555
O6_2 Nd2_2 1_555 1_555
C7_2 C8_2 1_555 1_555
C11_2 N2_2 1_555 1_555
C13_2 N3_2 1_555 1_555
Nd2_2 O12_2 1_555 1_555
C9_2 H15_2 1_555 1_555
N1_2 H16_2 1_555 1_555
N1_2 H17_2 1_555 1_555
Nd1_3 O1_3 1_555 1_555
O1_3 C1_3 1_555 1_555
O2_3 C1_3 1_555 1_555
O3_3 C5_3 1_555 1_555
O4_3 C5_3 1_555 1_555
O5_3 Nd1_3 1_555 1_555
O6_3 C9_3 1_555 1_555
O7_3 Nd1_3 1_555 1_555
O8_3 Nd1_3 1_555 1_555
C1_3 C2_3 1_555 1_555
C2_3 C3_3 1_555 1_555
C3_3 C4_3 1_555 1_555
C4_3 C5_3 1_555 1_555
C6_3 C4_3 1_555 1_555
C7_3 C6_3 1_555 1_555
C8_3 C2_3 1_555 1_555
C9_3 O5_3 1_555 1_555
C10_3 O7_3 1_555 1_555
H1_3 C10_3 1_555 1_555
C11_3 H2_3 1_555 1_555
H3_3 C11_3 1_555 1_555
H4_3 C11_3 1_555 1_555
C12_3 O8_3 1_555 1_555
H5_3 C12_3 1_555 1_555
C13_3 H6_3 1_555 1_555
H7_3 C13_3 1_555 1_555
H8_3 C13_3 1_555 1_555
C14 H9 1_555 1_555
H10 C14 1_555 1_555
H11 C14 1_555 1_555
N1_3 C7_3 1_555 1_555
N2_3 C10_3 1_555 1_555
N3_3 C12_3 1_555 1_555
I1_3 C3_3 1_555 1_555
I2_3 C6_3 1_555 1_555
I3_3 C8_3 1_555 1_555
C15_3 N2_3 1_555 1_555
H12_3 C15_3 1_555 1_555
H13_3 C15_3 1_555 1_555
H14_3 C15_3 1_555 1_555
Nd2_3 O2_3 1_555 1_555
Nd3_3 O3_3 1_555 1_555
O9_3 Nd1_3 1_555 1_555
O10_3 Nd1_3 1_555 1_555
O11_3 Nd1_3 1_555 1_555
O12_3 Nd1_3 1_555 1_555
O13_3 Nd1_3 1_555 1_555
O4_3 Nd3_3 1_555 1_555
O5_3 Nd2_3 1_555 1_555
O6_3 Nd2_3 1_555 1_555
C7_3 C8_3 1_555 1_555
C11_3 N2_3 1_555 1_555
C13_3 N3_3 1_555 1_555
C14 N3_3 1_555 1_555
Nd2_3 O12_3 1_555 1_555
C9_3 H15_3 1_555 1_555
N1_3 H16_3 1_555 1_555
N1_3 H17_3 1_555 1_555
O3_4 C5_4 1_555 1_555
O4_4 C5_4 1_555 1_555
O5_4 Nd1_4 1_555 1_555
C3_4 C4_4 1_555 1_555
C4_4 C5_4 1_555 1_555
I1_4 C3_4 1_555 1_555
Nd3_4 O3_4 1_555 1_555
O10_4 Nd1_4 1_555 1_555
O11_4 Nd1_4 1_555 1_555
O4_4 Nd3_4 1_555 1_555
C14_2 H9_2 1_555 1_555
H10_2 C14_2 1_555 1_555
H11_2 C14_2 1_555 1_555
Nd3_3 O12_4 1_555 1_555
O3_5 C5_5 1_555 1_555
O4_5 C5_5 1_555 1_555
O5_5 Nd1_5 1_555 1_555
O6_4 C9_4 1_555 1_555
C3_5 C4_5 1_555 1_555
C4_5 C5_5 1_555 1_555
C9_4 O5_5 1_555 1_555
I1_5 C3_5 1_555 1_555
Nd3_5 O3_5 1_555 1_555
O9_4 Nd1_5 1_555 1_555
O10_5 Nd1_5 1_555 1_555
O11_5 Nd1_5 1_555 1_555
O4_5 Nd3_5 1_555 1_555
C9_4 H15_5 1_555 1_555
O1_4 C1_4 1_555 1_555
O2_4 C1_4 1_555 1_555
C1_4 C2_4 1_555 1_555
C7_4 C6_4 1_555 1_555
C8_4 C2_4 1_555 1_555
C10_4 O7_4 1_555 1_555
H1_4 C10_4 1_555 1_555
C11_4 H2_4 1_555 1_555
H3_4 C11_4 1_555 1_555
H4_4 C11_4 1_555 1_555
C12_4 O8_4 1_555 1_555
H5_5 C12_4 1_555 1_555
C13_4 H6_4 1_555 1_555
H7_4 C13_4 1_555 1_555
H8_4 C13_4 1_555 1_555
C14_3 H9_3 1_555 1_555
H10_3 C14_3 1_555 1_555
H11_3 C14_3 1_555 1_555
N1_4 C7_4 1_555 1_555
N2_4 C10_4 1_555 1_555
N3_4 C12_4 1_555 1_555
I2_4 C6_4 1_555 1_555
I3_4 C8_4 1_555 1_555
C15_4 N2_4 1_555 1_555
H12_4 C15_4 1_555 1_555
H13_4 C15_4 1_555 1_555
H14_4 C15_4 1_555 1_555
Nd3 O2_4 1_555 1_555
C7_4 C8_4 1_555 1_555
C11_4 N2_4 1_555 1_555
C13_4 N3_4 1_555 1_555
C14_3 N3_4 1_555 1_555
Nd3 O12_5 1_555 1_555
N1_4 H16_4 1_555 1_555
N1_4 H17_4 1_555 1_555
C14_4 H9_4 1_555 1_555
H10_4 C14_4 1_555 1_555
H11_4 C14_4 1_555 1_555
Nd3_2 O12_6 1_555 1_555
O3_6 C5_6 1_555 1_555
O4_6 C5_6 1_555 1_555
O5_6 Nd1_6 1_555 1_555
C3_6 C4_6 1_555 1_555
C4_6 C5_6 1_555 1_555
I1_6 C3_6 1_555 1_555
Nd3_6 O3_6 1_555 1_555
O10_6 Nd1_6 1_555 1_555
O11_6 Nd1_6 1_555 1_555
O4_6 Nd3_6 1_555 1_555
O3_7 C5_7 1_555 1_555
O4_7 C5_7 1_555 1_555
C4_7 C5_7 1_555 1_555
C6_5 C4_7 1_555 1_555
C7_5 C6_5 1_555 1_555
N1_5 C7_5 1_555 1_555
I2_5 C6_5 1_555 1_555
Nd2_2 O3_7 1_555 1_555
O4_7 Nd2_2 1_555 1_555
N1_5 H17_5 1_555 1_555
Nd1_7 O1_5 1_555 1_555
O1_5 C1_5 1_555 1_555
O2_5 C1_5 1_555 1_555
O5_7 Nd1_7 1_555 1_555
O6_5 C9_5 1_555 1_555
O7_5 Nd1_7 1_555 1_555
O8_5 Nd1_7 1_555 1_555
C1_5 C2_5 1_555 1_555
C2_5 C3_7 1_555 1_555
C8_5 C2_5 1_555 1_555
C9_5 O5_7 1_555 1_555
C10_5 O7_5 1_555 1_555
H1_5 C10_5 1_555 1_555
C11_5 H2_5 1_555 1_555
H3_5 C11_5 1_555 1_555
H4_5 C11_5 1_555 1_555
C12_5 O8_5 1_555 1_555
H5_7 C12_5 1_555 1_555
C13_5 H6_5 1_555 1_555
H7_5 C13_5 1_555 1_555
H8_5 C13_5 1_555 1_555
C14_5 H9_5 1_555 1_555
H10_5 C14_5 1_555 1_555
H11_5 C14_5 1_555 1_555
N2_5 C10_5 1_555 1_555
N3_5 C12_5 1_555 1_555
I1_7 C3_7 1_555 1_555
I3_5 C8_5 1_555 1_555
C15_5 N2_5 1_555 1_555
H12_5 C15_5 1_555 1_555
H14_5 C15_5 1_555 1_555
Nd3_6 O2_5 1_555 1_555
O9_5 Nd1_7 1_555 1_555
O10_7 Nd1_7 1_555 1_555
O11_7 Nd1_7 1_555 1_555
O12_7 Nd1_7 1_555 1_555
O13_5 Nd1_7 1_555 1_555
O5_7 Nd3_6 1_555 1_555
O6_5 Nd3_6 1_555 1_555
C11_5 N2_5 1_555 1_555
C13_5 N3_5 1_555 1_555
C14_5 N3_5 1_555 1_555
Nd3_6 O12_7 1_555 1_555
C9_5 H15_7 1_555 1_555
Nd1_8 O1_6 1_555 1_555
O1_6 C1_6 1_555 1_555
O2_6 C1_6 1_555 1_555
O5_8 Nd1_8 1_555 1_555
O6_6 C9_6 1_555 1_555
O7_6 Nd1_8 1_555 1_555
O8_6 Nd1_8 1_555 1_555
C1_6 C2_6 1_555 1_555
C2_6 C3_8 1_555 1_555
C8_6 C2_6 1_555 1_555
C9_6 O5_8 1_555 1_555
C10_6 O7_6 1_555 1_555
H1_6 C10_6 1_555 1_555
C12_6 O8_6 1_555 1_555
H5_8 C12_6 1_555 1_555
N2_6 C10_6 1_555 1_555
I1_8 C3_8 1_555 1_555
I3_6 C8_6 1_555 1_555
C15_6 N2_6 1_555 1_555
H12_6 C15_6 1_555 1_555
H14_6 C15_6 1_555 1_555
Nd3_4 O2_6 1_555 1_555
O9_6 Nd1_8 1_555 1_555
O10_8 Nd1_8 1_555 1_555
O11_8 Nd1_8 1_555 1_555
O12_8 Nd1_8 1_555 1_555
O13_6 Nd1_8 1_555 1_555
O5_8 Nd3_4 1_555 1_555
O6_6 Nd3_4 1_555 1_555
Nd3_4 O12_8 1_555 1_555
C9_6 H15_8 1_555 1_555
O3_8 C5_8 1_555 1_555
O4_8 C5_8 1_555 1_555
C4_8 C5_8 1_555 1_555
C6_6 C4_8 1_555 1_555
C7_6 C6_6 1_555 1_555
N1_6 C7_6 1_555 1_555
I2_6 C6_6 1_555 1_555
Nd2_3 O3_8 1_555 1_555
O4_8 Nd2_3 1_555 1_555
N1_6 H17_6 1_555 1_555
Nd1_9 O1_7 1_555 1_555
O1_7 C1_7 1_555 1_555
O2_7 C1_7 1_555 1_555
O3_9 C5_9 1_555 1_555
O4_9 C5_9 1_555 1_555
O5_9 Nd1_9 1_555 1_555
O6_7 C9_7 1_555 1_555
O7_7 Nd1_9 1_555 1_555
O8_7 Nd1_9 1_555 1_555
C1_7 C2_7 1_555 1_555
C2_7 C3_9 1_555 1_555
C3_9 C4_9 1_555 1_555
C4_9 C5_9 1_555 1_555
C6_7 C4_9 1_555 1_555
C7_7 C6_7 1_555 1_555
C8_7 C2_7 1_555 1_555
C9_7 O5_9 1_555 1_555
C10_7 O7_7 1_555 1_555
H1_7 C10_7 1_555 1_555
C12_7 O8_7 1_555 1_555
H5_9 C12_7 1_555 1_555
N1_7 C7_7 1_555 1_555
N2_7 C10_7 1_555 1_555
I1_9 C3_9 1_555 1_555
I2_7 C6_7 1_555 1_555
I3_7 C8_7 1_555 1_555
C15_7 N2_7 1_555 1_555
H12_7 C15_7 1_555 1_555
H14_7 C15_7 1_555 1_555
Nd3_5 O2_7 1_555 1_555
Nd2 O3_9 1_555 1_555
O9_7 Nd1_9 1_555 1_555
O10_9 Nd1_9 1_555 1_555
O11_9 Nd1_9 1_555 1_555
O12_9 Nd1_9 1_555 1_555
O13_7 Nd1_9 1_555 1_555
O4_9 Nd2 1_555 1_555
O5_9 Nd3_5 1_555 1_555
O6_7 Nd3_5 1_555 1_555
C7_7 C8_7 1_555 1_555
Nd3_5 O12_9 1_555 1_555
C9_7 H15_9 1_555 1_555
N1_7 H17_7 1_555 1_555
Nd3_6 O1_8 1_555 1_555
O1_8 C1_8 1_555 1_555
O9_5 C1_8 1_555 1_555
O10_5 C5_10 1_555 1_555
O11_5 C5_10 1_555 1_555
O13_5 C9_8 1_555 1_555
O7_8 Nd3_6 1_555 1_555
O8_8 Nd3_6 1_555 1_555
C1_8 C2_8 1_555 1_555
C2_8 C3_10 1_555 1_555
C3_10 C4_10 1_555 1_555
C4_10 C5_10 1_555 1_555
C6_8 C4_10 1_555 1_555
C7_8 C6_8 1_555 1_555
C8_8 C2_8 1_555 1_555
C9_8 O12_7 1_555 1_555
C10_8 O7_8 1_555 1_555
H1_8 C10_8 1_555 1_555
C11_6 H2_6 1_555 1_555
H3_6 C11_6 1_555 1_555
H4_6 C11_6 1_555 1_555
C12_8 O8_8 1_555 1_555
H5_10 C12_8 1_555 1_555
C13_6 H6_6 1_555 1_555
H7_6 C13_6 1_555 1_555
H8_6 C13_6 1_555 1_555
N1_8 C7_8 1_555 1_555
N2_8 C10_8 1_555 1_555
N3_6 C12_8 1_555 1_555
I1_10 C3_10 1_555 1_555
I2_8 C6_8 1_555 1_555
I3_8 C8_8 1_555 1_555
C15_8 N2_8 1_555 1_555
H12_8 C15_8 1_555 1_555
H13_5 C15_8 1_555 1_555
H14_8 C15_8 1_555 1_555
C7_8 C8_8 1_555 1_555
C11_6 N2_8 1_555 1_555
C13_6 N3_6 1_555 1_555
C9_8 H15_10 1_555 1_555
N1_8 H16_5 1_555 1_555
N1_8 H17_8 1_555 1_555
Nd3_4 O1_9 1_555 1_555
O1_9 C1_9 1_555 1_555
O9_6 C1_9 1_555 1_555
O10_6 C5_11 1_555 1_555
O11_6 C5_11 1_555 1_555
O13_6 C9_9 1_555 1_555
O7_9 Nd3_4 1_555 1_555
O8_9 Nd3_4 1_555 1_555
C1_9 C2_9 1_555 1_555
C2_9 C3_11 1_555 1_555
C3_11 C4_11 1_555 1_555
C4_11 C5_11 1_555 1_555
C6_9 C4_11 1_555 1_555
C7_9 C6_9 1_555 1_555
C8_9 C2_9 1_555 1_555
C9_9 O12_8 1_555 1_555
C10_9 O7_9 1_555 1_555
H1_9 C10_9 1_555 1_555
C11_7 H2_7 1_555 1_555
H3_7 C11_7 1_555 1_555
H4_7 C11_7 1_555 1_555
C12_9 O8_9 1_555 1_555
H5_11 C12_9 1_555 1_555
C13_7 H6_7 1_555 1_555
H7_7 C13_7 1_555 1_555
H8_7 C13_7 1_555 1_555
N1_9 C7_9 1_555 1_555
N2_9 C10_9 1_555 1_555
N3_7 C12_9 1_555 1_555
I1_11 C3_11 1_555 1_555
I2_9 C6_9 1_555 1_555
I3_9 C8_9 1_555 1_555
C15_9 N2_9 1_555 1_555
H12_9 C15_9 1_555 1_555
H13_6 C15_9 1_555 1_555
H14_9 C15_9 1_555 1_555
C7_9 C8_9 1_555 1_555
C11_7 N2_9 1_555 1_555
C13_7 N3_7 1_555 1_555
C9_9 H15_11 1_555 1_555
N1_9 H16_6 1_555 1_555
N1_9 H17_9 1_555 1_555
Nd3_5 O1_10 1_555 1_555
O1_10 C1_10 1_555 1_555
O9_7 C1_10 1_555 1_555
O10_4 C5_12 1_555 1_555
O11_4 C5_12 1_555 1_555
O13_7 C9_10 1_555 1_555
O7_10 Nd3_5 1_555 1_555
O8_10 Nd3_5 1_555 1_555
C1_10 C2_10 1_555 1_555
C2_10 C3_12 1_555 1_555
C3_12 C4_12 1_555 1_555
C4_12 C5_12 1_555 1_555
C6_10 C4_12 1_555 1_555
C7_10 C6_10 1_555 1_555
C8_10 C2_10 1_555 1_555
C9_10 O12_9 1_555 1_555
C10_10 O7_10 1_555 1_555
H1_10 C10_10 1_555 1_555
C11_8 H2_8 1_555 1_555
H3_8 C11_8 1_555 1_555
H4_8 C11_8 1_555 1_555
C12_10 O8_10 1_555 1_555
H5_12 C12_10 1_555 1_555
C13_8 H6_8 1_555 1_555
H7_8 C13_8 1_555 1_555
H8_8 C13_8 1_555 1_555
C14_6 H9_8 1_555 1_555
H10_6 C14_6 1_555 1_555
H11_6 C14_6 1_555 1_555
N1_10 C7_10 1_555 1_555
N2_10 C10_10 1_555 1_555
N3_8 C12_10 1_555 1_555
I1_12 C3_12 1_555 1_555
I2_10 C6_10 1_555 1_555
I3_10 C8_10 1_555 1_555
C15_10 N2_10 1_555 1_555
H12_10 C15_10 1_555 1_555
H13_7 C15_10 1_555 1_555
H14_10 C15_10 1_555 1_555
C7_10 C8_10 1_555 1_555
C11_8 N2_10 1_555 1_555
C13_8 N3_8 1_555 1_555
C14_6 N3_8 1_555 1_555
C9_10 H15_12 1_555 1_555
N1_10 H16_7 1_555 1_555
N1_10 H17_10 1_555 1_555
C14_7 H9_9 1_555 1_555
H10_7 C14_7 1_555 1_555
H11_7 C14_7 1_555 1_555
O10_2 C5_13 1_555 1_555
O11_2 C5_13 1_555 1_555
C3_13 C4_13 1_555 1_555
C4_13 C5_13 1_555 1_555
I1_13 C3_13 1_555 1_555
O1_11 C1_11 1_555 1_555
O9_4 C1_11 1_555 1_555
C1_11 C2_11 1_555 1_555
C7_11 C6_11 1_555 1_555
C8_11 C2_11 1_555 1_555
C10_11 O7_11 1_555 1_555
H1_11 C10_11 1_555 1_555
C11_9 H2_9 1_555 1_555
H3_9 C11_9 1_555 1_555
H4_9 C11_9 1_555 1_555
C12_11 O8_11 1_555 1_555
H5_14 C12_11 1_555 1_555
C13_9 H6_9 1_555 1_555
H7_9 C13_9 1_555 1_555
H8_9 C13_9 1_555 1_555
C14_8 H9_10 1_555 1_555
H10_8 C14_8 1_555 1_555
H11_8 C14_8 1_555 1_555
N1_11 C7_11 1_555 1_555
N2_11 C10_11 1_555 1_555
N3_9 C12_11 1_555 1_555
I2_11 C6_11 1_555 1_555
I3_11 C8_11 1_555 1_555
C15_11 N2_11 1_555 1_555
H12_11 C15_11 1_555 1_555
H13_8 C15_11 1_555 1_555
H14_11 C15_11 1_555 1_555
C7_11 C8_11 1_555 1_555
C11_9 N2_11 1_555 1_555
C13_9 N3_9 1_555 1_555
C14_8 N3_9 1_555 1_555
N1_11 H16_8 1_555 1_555
N1_11 H17_11 1_555 1_555
O10_3 C5_14 1_555 1_555
O11_3 C5_14 1_555 1_555
O13_4 C9_11 1_555 1_555
C3_14 C4_14 1_555 1_555
C4_14 C5_14 1_555 1_555
C9_11 O12_5 1_555 1_555
I1_14 C3_14 1_555 1_555
C9_11 H15_14 1_555 1_555
O10 C5_15 1_555 1_555
O11 C5_15 1_555 1_555
C3_15 C4_15 1_555 1_555
C4_15 C5_15 1_555 1_555
I1_15 C3_15 1_555 1_555
C14_9 H9_11 1_555 1_555
H10_9 C14_9 1_555 1_555
H11_9 C14_9 1_555 1_555
Nd2 O1_12 1_555 1_555
O1_12 C1_12 1_555 1_555
O9 C1_12 1_555 1_555
O13 C9_12 1_555 1_555
O7_12 Nd2 1_555 1_555
O8_12 Nd2 1_555 1_555
C1_12 C2_12 1_555 1_555
C2_12 C3_16 1_555 1_555
C8_12 C2_12 1_555 1_555
C9_12 O12 1_555 1_555
C10_12 O7_12 1_555 1_555
H1_12 C10_12 1_555 1_555
C11_10 H2_10 1_555 1_555
H3_10 C11_10 1_555 1_555
H4_10 C11_10 1_555 1_555
C12_12 O8_12 1_555 1_555
H5_16 C12_12 1_555 1_555
C13_10 H6_10 1_555 1_555
H7_10 C13_10 1_555 1_555
H8_10 C13_10 1_555 1_555
C14_10 H9_12 1_555 1_555
H10_10 C14_10 1_555 1_555
H11_10 C14_10 1_555 1_555
N2_12 C10_12 1_555 1_555
N3_10 C12_12 1_555 1_555
I1_16 C3_16 1_555 1_555
I3_12 C8_12 1_555 1_555
C15_12 N2_12 1_555 1_555
H12_12 C15_12 1_555 1_555
H14_12 C15_12 1_555 1_555
C11_10 N2_12 1_555 1_555
C13_10 N3_10 1_555 1_555
C14_10 N3_10 1_555 1_555
C9_12 H15_16 1_555 1_555
O10_8 C5_16 1_555 1_555
O11_8 C5_16 1_555 1_555
C4_16 C5_16 1_555 1_555
C6_12 C4_16 1_555 1_555
C7_12 C6_12 1_555 1_555
N1_12 C7_12 1_555 1_555
I2_12 C6_12 1_555 1_555
N1_12 H17_12 1_555 1_555
O10_9 C5_17 1_555 1_555
O11_9 C5_17 1_555 1_555
C4_17 C5_17 1_555 1_555
C6_13 C4_17 1_555 1_555
C7_13 C6_13 1_555 1_555
N1_13 C7_13 1_555 1_555
I2_13 C6_13 1_555 1_555
N1_13 H17_13 1_555 1_555
Nd2_2 O1_13 1_555 1_555
O1_13 C1_13 1_555 1_555
O9_2 C1_13 1_555 1_555
O13_2 C9_13 1_555 1_555
O7_13 Nd2_2 1_555 1_555
O8_13 Nd2_2 1_555 1_555
C1_13 C2_13 1_555 1_555
C2_13 C3_17 1_555 1_555
C8_13 C2_13 1_555 1_555
C9_13 O12_2 1_555 1_555
C10_13 O7_13 1_555 1_555
H1_13 C10_13 1_555 1_555
C12_13 O8_13 1_555 1_555
H5_17 C12_13 1_555 1_555
N2_13 C10_13 1_555 1_555
I1_17 C3_17 1_555 1_555
I3_13 C8_13 1_555 1_555
C15_13 N2_13 1_555 1_555
H12_13 C15_13 1_555 1_555
H14_13 C15_13 1_555 1_555
C9_13 H15_17 1_555 1_555
Nd2_3 O1_14 1_555 1_555
O1_14 C1_14 1_555 1_555
O9_3 C1_14 1_555 1_555
O10_7 C5_18 1_555 1_555
O11_7 C5_18 1_555 1_555
O13_3 C9_14 1_555 1_555
O7_14 Nd2_3 1_555 1_555
O8_14 Nd2_3 1_555 1_555
C1_14 C2_14 1_555 1_555
C2_14 C3_18 1_555 1_555
C3_18 C4_18 1_555 1_555
C4_18 C5_18 1_555 1_555
C6_14 C4_18 1_555 1_555
C7_14 C6_14 1_555 1_555
C8_14 C2_14 1_555 1_555
C9_14 O12_3 1_555 1_555
C10_14 O7_14 1_555 1_555
H1_14 C10_14 1_555 1_555
C12_14 O8_14 1_555 1_555
H5_18 C12_14 1_555 1_555
N1_14 C7_14 1_555 1_555
N2_14 C10_14 1_555 1_555
I1_18 C3_18 1_555 1_555
I2_14 C6_14 1_555 1_555
I3_14 C8_14 1_555 1_555
C15_14 N2_14 1_555 1_555
H12_14 C15_14 1_555 1_555
H14_14 C15_14 1_555 1_555
C7_14 C8_14 1_555 1_555
C9_14 H15_18 1_555 1_555
N1_14 H17_14 1_555 1_555
C14_11 H9_15 1_555 1_555
H10_11 C14_11 1_555 1_555
H11_11 C14_11 1_555 1_555
C14_12 H9_16 1_555 1_555
H10_12 C14_12 1_555 1_555
H11_12 C14_12 1_555 1_555
O1_15 C1_15 1_555 1_555
O2_8 C1_15 1_555 1_555
C1_15 C2_15 1_555 1_555
C7_15 C6_15 1_555 1_555
C8_15 C2_15 1_555 1_555
C10_15 O7_15 1_555 1_555
H1_15 C10_15 1_555 1_555
C11_11 H2_11 1_555 1_555
H3_11 C11_11 1_555 1_555
H4_11 C11_11 1_555 1_555
C12_15 O8_15 1_555 1_555
C13_11 H6_11 1_555 1_555
H7_11 C13_11 1_555 1_555
H8_11 C13_11 1_555 1_555
N1_15 C7_15 1_555 1_555
N2_15 C10_15 1_555 1_555
N3_11 C12_15 1_555 1_555
I2_15 C6_15 1_555 1_555
I3_15 C8_15 1_555 1_555
C15_15 N2_15 1_555 1_555
H12_15 C15_15 1_555 1_555
H13_9 C15_15 1_555 1_555
H14_15 C15_15 1_555 1_555
C7_15 C8_15 1_555 1_555
C11_11 N2_15 1_555 1_555
C13_11 N3_11 1_555 1_555
N1_15 H16_9 1_555 1_555
N1_15 H17_15 1_555 1_555
O13_8 C9_15 1_555 1_555
O6_8 C9_16 1_555 1_555
O1_16 C1_16 1_555 1_555
O9_8 C1_16 1_555 1_555
C1_16 C2_16 1_555 1_555
C7_16 C6_16 1_555 1_555
C8_16 C2_16 1_555 1_555
C10_16 O7_16 1_555 1_555
H1_16 C10_16 1_555 1_555
C11_12 H2_12 1_555 1_555
H3_12 C11_12 1_555 1_555
H4_12 C11_12 1_555 1_555
C12_16 O8_16 1_555 1_555
C13_12 H6_12 1_555 1_555
H7_12 C13_12 1_555 1_555
H8_12 C13_12 1_555 1_555
N1_16 C7_16 1_555 1_555
N2_16 C10_16 1_555 1_555
N3_12 C12_16 1_555 1_555
I2_16 C6_16 1_555 1_555
I3_16 C8_16 1_555 1_555
C15_16 N2_16 1_555 1_555
H12_16 C15_16 1_555 1_555
H13_10 C15_16 1_555 1_555
H14_16 C15_16 1_555 1_555
C7_16 C8_16 1_555 1_555
C11_12 N2_16 1_555 1_555
C13_12 N3_12 1_555 1_555
N1_16 H16_10 1_555 1_555
N1_16 H17_16 1_555 1_555
O6_9 C9_17 1_555 1_555
O1_17 C1_17 1_555 1_555
O9_9 C1_17 1_555 1_555
C1_17 C2_17 1_555 1_555
C7_17 C6_17 1_555 1_555
C8_17 C2_17 1_555 1_555
C10_17 O7_17 1_555 1_555
H1_17 C10_17 1_555 1_555
C11_13 H2_13 1_555 1_555
H3_13 C11_13 1_555 1_555
H4_13 C11_13 1_555 1_555
C12_17 O8_17 1_555 1_555
C13_13 H6_13 1_555 1_555
H7_13 C13_13 1_555 1_555
H8_13 C13_13 1_555 1_555
N1_17 C7_17 1_555 1_555
N2_17 C10_17 1_555 1_555
N3_13 C12_17 1_555 1_555
I2_17 C6_17 1_555 1_555
I3_17 C8_17 1_555 1_555
C15_17 N2_17 1_555 1_555
H12_17 C15_17 1_555 1_555
H13_11 C15_17 1_555 1_555
H14_17 C15_17 1_555 1_555
C7_17 C8_17 1_555 1_555
C11_13 N2_17 1_555 1_555
C13_13 N3_13 1_555 1_555
N1_17 H16_11 1_555 1_555
N1_17 H17_17 1_555 1_555
O1_18 C1_18 1_555 1_555
O2_9 C1_18 1_555 1_555
C1_18 C2_18 1_555 1_555
C7_18 C6_18 1_555 1_555
C8_18 C2_18 1_555 1_555
C10_18 O7_18 1_555 1_555
H1_18 C10_18 1_555 1_555
C11_14 H2_14 1_555 1_555
H3_14 C11_14 1_555 1_555
H4_14 C11_14 1_555 1_555
C12_18 O8_18 1_555 1_555
C13_14 H6_14 1_555 1_555
H7_14 C13_14 1_555 1_555
H8_14 C13_14 1_555 1_555
N1_18 C7_18 1_555 1_555
N2_18 C10_18 1_555 1_555
N3_14 C12_18 1_555 1_555
I2_18 C6_18 1_555 1_555
I3_18 C8_18 1_555 1_555
C15_18 N2_18 1_555 1_555
H12_18 C15_18 1_555 1_555
H13_12 C15_18 1_555 1_555
H14_18 C15_18 1_555 1_555
C7_18 C8_18 1_555 1_555
C11_14 N2_18 1_555 1_555
C13_14 N3_14 1_555 1_555
N1_18 H16_12 1_555 1_555
N1_18 H17_18 1_555 1_555
O13_9 C9_18 1_555 1_555
C11_15 H2_15 1_555 1_555
H3_15 C11_15 1_555 1_555
H4_15 C11_15 1_555 1_555
C13_15 H6_15 1_555 1_555
H7_15 C13_15 1_555 1_555
H8_15 C13_15 1_555 1_555
H10_13 C14_13 1_555 1_555
H11_13 C14_13 1_555 1_555
C13_15 N3_15 1_555 1_555
C14_13 N3_15 1_555 1_555
C11_16 H2_16 1_555 1_555
H3_16 C11_16 1_555 1_555
H4_16 C11_16 1_555 1_555
C13_16 H6_16 1_555 1_555
H7_16 C13_16 1_555 1_555
H8_16 C13_16 1_555 1_555
H10_14 C14_14 1_555 1_555
H11_14 C14_14 1_555 1_555
C13_16 N3_16 1_555 1_555
C14_14 N3_16 1_555 1_555
C14_15 H9_17 1_555 1_555
H10_15 C14_15 1_555 1_555
H11_15 C14_15 1_555 1_555
C14_16 H9_18 1_555 1_555
H10_16 C14_16 1_555 1_555
H11_16 C14_16 1_555 1_555
C11_17 H2_17 1_555 1_555
H3_17 C11_17 1_555 1_555
H4_17 C11_17 1_555 1_555
C13_17 H6_17 1_555 1_555
H7_17 C13_17 1_555 1_555
H8_17 C13_17 1_555 1_555
H10_17 C14_17 1_555 1_555
H11_17 C14_17 1_555 1_555
C13_17 N3_17 1_555 1_555
C14_17 N3_17 1_555 1_555
C11_18 H2_18 1_555 1_555
H3_18 C11_18 1_555 1_555
H4_18 C11_18 1_555 1_555
C13_18 H6_18 1_555 1_555
H7_18 C13_18 1_555 1_555
H8_18 C13_18 1_555 1_555
H10_18 C14_18 1_555 1_555
H11_18 C14_18 1_555 1_555
C13_18 N3_18 1_555 1_555
C14_18 N3_18 1_555 1_555

#END
