
###############################################################################
#
# This file contains modified crystal structure data generated from the
# MOF subset of the Cambridge Structural Database (CSD) v543 
# hosted by the Cambridge Crystallographic Data Centre (CCDC).
#
# This work is licensed under the Creative Commons
# Attribution-NonCommercial-ShareAlike 4.0 International License.
# To view a copy of this license, visit
# http://creativecommons.org/licenses/by-nc-sa/4.0/
# or send a letter to
# Creative Commons, PO Box 1866, Mountain View, CA 94042, USA.
#
# CIF created using the CSD Python API on 29 September 2022
# The structure has been converted into the P1 space group
# The structure has a 3D framework
# The original CSD entry CUVTUJ is in the rhombohedral crystal system
# The framework has been calculated to contain at least 10.0% void space
# The void calculation uses a probe of radius 1.32A, grid spacing 0.4
#
###############################################################################

data_CUVTUJ
_chemical_formula_moiety         '(C72 H18 Co5 O54)n'
_symmetry_cell_setting           triclinic
_symmetry_space_group_name_H-M   'P 1'
_symmetry_Int_Tables_number      1
_space_group_name_Hall           'P 1'
loop_
_symmetry_equiv_pos_site_id
_symmetry_equiv_pos_as_xyz
1 x,y,z
_cell_length_a                   25.9112(6)
_cell_length_b                   25.9112(6)
_cell_length_c                   6.82025(23)
_cell_angle_alpha                90
_cell_angle_beta                 90
_cell_angle_gamma                120
_cell_volume                     3965.57
loop_
_atom_site_label
_atom_site_type_symbol
_atom_site_fract_x
_atom_site_fract_y
_atom_site_fract_z
Co1 Co 0.36273 0.04845 0.5122
O8 O 0.36677 0.10604 0.73258
O11 O 0.31016 0.0588 0.33062
O12 O 0.41534 0.02318 0.66396
O4 O 0.03754 0.70080 0.02983
O7 O 0.10604 0.73928 0.26742
C5 C 0.08789 0.73812 0.09332
O13 O 0.02318 0.6078 0.33604
C8 C 0.17967 0.83063 0.02751
H2 H 0.19067 0.8298 0.18658
Co5 Co 0.28488 0.98095 0.1789
Co7 Co 0.04845 0.68572 0.4878
O1 O 0.29579 0.96587 0.63684
O2 O 0.22729 0.92739 0.39925
C1 C 0.24544 0.92855 0.57335
C2 C 0.20752 0.88066 0.71185
O3 O 0.2745 0.91799 0.99729
C3 C 0.22317 0.8791 0.91242
C4 C 0.15366 0.83604 0.63916
H1 H 0.14266 0.8369 0.48009
O5 O 0.36746 0.99659 0.30351
C6 C 0.12581 0.78601 0.95482
O10 O 0.0588 0.74868 0.66938
C7 C 0.11016 0.7876 0.75425
Co3 Co 0.35239 0.97060 0.8455
O6 O 0.96587 0.67008 0.36316
O14 O 0.91799 0.64349 0.00271
Co2 Co 0.97060 0.61822 0.1545
O9 O 0.96657 0.56062 0.93408
Co6 Co 0.98095 0.69606 0.8211
O4_2 O 0.29920 0.33675 0.02983
O6_2 O 0.32992 0.29579 0.36316
O7_2 O 0.26072 0.36677 0.26742
C5_2 C 0.26188 0.34978 0.09332
O13_2 O 0.3922 0.41534 0.33604
O14_2 O 0.35651 0.27450 0.00271
C8_2 C 0.16937 0.34905 0.02751
H2_2 H 0.1702 0.36091 0.18658
Co2_2 Co 0.38178 0.35239 0.1545
Co5_2 Co 0.01905 0.30394 0.1789
Co7_2 Co 0.31428 0.36273 0.4878
O1_2 O 0.03413 0.32992 0.63684
O2_2 O 0.07261 0.29990 0.39925
C1_2 C 0.07145 0.31689 0.57335
C2_2 C 0.11934 0.32686 0.71185
O3_2 O 0.08201 0.35651 0.99729
C3_2 C 0.1209 0.34407 0.91242
C4_2 C 0.16396 0.31762 0.63916
H1_2 H 0.1631 0.30576 0.48009
O5_2 O 0.00341 0.37088 0.30351
O9_2 O 0.43938 0.40594 0.93408
C6_2 C 0.21399 0.33981 0.95482
O10_2 O 0.25132 0.31016 0.66938
C7_2 C 0.2124 0.32260 0.75425
Co3_2 Co 0.02940 0.38178 0.8455
Co6_2 Co 0.30394 0.28488 0.8211
Co1_2 Co 0.95155 0.31428 0.5122
O8_2 O 0.89396 0.26072 0.73258
O11_2 O 0.9412 0.25132 0.33062
O12_2 O 0.97682 0.39217 0.66396
O6_3 O 0.70421 0.03413 0.36316
O14_3 O 0.72550 0.08201 0.00271
Co2_3 Co 0.64761 0.02940 0.1545
O9_3 O 0.59406 0.03343 0.93408
Co6_3 Co 0.71512 0.01905 0.8211
O4_3 O 0.66325 0.96246 0.02983
O7_3 O 0.63323 0.89396 0.26742
C5_3 C 0.65022 0.91211 0.09332
O13_3 O 0.58466 0.97682 0.33604
C8_3 C 0.65095 0.82033 0.02751
H2_3 H 0.63909 0.80933 0.18658
Co5_3 Co 0.69606 0.71512 0.1789
Co7_3 Co 0.63727 0.95155 0.4878
O1_3 O 0.67008 0.70421 0.63684
O2_3 O 0.70010 0.77271 0.39925
C1_3 C 0.68311 0.75456 0.57335
C2_3 C 0.67314 0.79248 0.71185
O3_3 O 0.64349 0.7255 0.99729
C3_3 C 0.65593 0.77683 0.91242
C4_3 C 0.68238 0.84634 0.63916
H1_3 H 0.69424 0.85734 0.48009
Co1_3 Co 0.68572 0.63727 0.5122
O5_3 O 0.62912 0.63254 0.30351
O8_3 O 0.73928 0.63323 0.73258
C6_3 C 0.66019 0.87419 0.95482
O10_3 O 0.68984 0.9412 0.66938
O11_3 O 0.74868 0.68984 0.33062
O12_3 O 0.60783 0.58466 0.66396
C7_3 C 0.67740 0.88984 0.75425
Co3_3 Co 0.61822 0.64761 0.8455
O2_4 O 0.56062 0.59406 0.06592
C1_4 C 0.57877 0.59522 0.24002
C2_4 C 0.54085 0.54733 0.37852
C3_4 C 0.55650 0.5458 0.57909
C4_4 C 0.48699 0.50271 0.30583
H1_4 H 0.47599 0.5036 0.14676
O4_4 O 0.37088 0.36746 0.69649
O9_4 O 0.29990 0.22729 0.60075
C5_4 C 0.42123 0.40478 0.75998
C6_4 C 0.45915 0.45267 0.62148
C7_4 C 0.44350 0.4542 0.42091
C8_4 C 0.51301 0.49729 0.69417
H2_4 H 0.52401 0.4964 0.85324
O5_4 O 0.70080 0.66325 0.97017
C3_5 C 0.4542 0.01074 0.57909
O4_5 O 0.63254 0.00341 0.69649
O9_5 O 0.77271 0.07261 0.60075
C5_5 C 0.59522 0.01644 0.75998
C6_5 C 0.54733 0.00647 0.62148
C8_5 C 0.50271 0.01571 0.69417
H2_5 H 0.5036 0.02757 0.85324
O5_5 O 0.33675 0.03754 0.97017
O2_5 O 0.40594 0.96657 0.06592
C1_5 C 0.40478 0.98356 0.24002
C2_5 C 0.45267 0.99353 0.37852
C4_5 C 0.49729 0.98429 0.30583
H1_5 H 0.4964 0.97243 0.14676
C7_5 C 0.5458 0.98926 0.42091
O2_6 O 0.03343 0.43938 0.06592
C1_6 C 0.01644 0.42123 0.24002
C2_6 C 0.00647 0.45915 0.37852
C4_6 C 0.01571 0.51301 0.30583
H1_6 H 0.02757 0.52401 0.14676
C7_6 C 0.01074 0.55650 0.42091
C3_6 C 0.98926 0.44350 0.57909
O4_6 O 0.99659 0.62912 0.69649
O9_6 O 0.92739 0.70010 0.60075
C5_6 C 0.98356 0.57877 0.75998
C6_6 C 0.99353 0.54085 0.62148
C8_6 C 0.98429 0.48699 0.69417
H2_6 H 0.97243 0.47599 0.85324
O5_6 O 0.96246 0.29920 0.97017
C2_7 C 0.87419 0.21399 0.04518
C3_7 C 0.88984 0.2124 0.24575
C5_7 C 0.75456 0.07145 0.42665
C6_7 C 0.79248 0.11934 0.28815
C7_7 C 0.77683 0.1209 0.08758
C8_7 C 0.84634 0.16396 0.36084
H2_7 H 0.85734 0.1631 0.51991
C1_7 C 0.91211 0.26188 0.90668
C4_7 C 0.82033 0.16937 0.97249
H1_7 H 0.80933 0.1702 0.81342
C2_8 C 0.78601 0.66019 0.04518
C3_8 C 0.7876 0.67740 0.24575
C5_8 C 0.92855 0.68311 0.42665
C6_8 C 0.88066 0.67314 0.28815
C7_8 C 0.8791 0.65593 0.08758
C8_8 C 0.83604 0.68238 0.36084
H2_8 H 0.8369 0.69424 0.51991
C1_8 C 0.73812 0.65022 0.90668
C4_8 C 0.83063 0.65095 0.97249
H1_8 H 0.8298 0.63909 0.81342
C2_9 C 0.33981 0.12581 0.04518
C3_9 C 0.32260 0.11016 0.24575
C5_9 C 0.31689 0.24544 0.42665
C6_9 C 0.32686 0.20752 0.28815
C7_9 C 0.34407 0.22317 0.08758
C8_9 C 0.31762 0.15366 0.36084
H2_9 H 0.30576 0.14266 0.51991
C1_9 C 0.34978 0.08789 0.90668
C4_9 C 0.34905 0.17967 0.97249
H1_9 H 0.36091 0.19067 0.81342
loop_
_geom_bond_atom_site_label_1
_geom_bond_atom_site_label_2
_geom_bond_site_symmetry_1
_geom_bond_site_symmetry_2
O8 Co1 1_555 1_555
O11 Co1 1_555 1_555
O12 Co1 1_555 1_555
O4 C5 1_555 1_555
O7 C5 1_555 1_555
H2 C8 1_555 1_555
O7 Co7 1_555 1_555
O13 Co7 1_555 1_555
O1 C1 1_555 1_555
O2 C1 1_555 1_555
C1 C2 1_555 1_555
C2 C3 1_555 1_555
O3 C3 1_555 1_555
C4 C2 1_555 1_555
H1 C4 1_555 1_555
C6 C7 1_555 1_555
O10 C7 1_555 1_555
C7 C4 1_555 1_555
Co3 O1 1_555 1_555
Co5 O2 1_555 1_555
Co7 O10 1_555 1_555
O3 Co3 1_555 1_555
O5 Co5 1_555 1_555
O6 Co2 1_555 1_555
O14 Co2 1_555 1_555
O4_2 C5_2 1_555 1_555
O6_2 Co2_2 1_555 1_555
O7_2 C5_2 1_555 1_555
O13_2 Co2_2 1_555 1_555
O14_2 Co2_2 1_555 1_555
H2_2 C8_2 1_555 1_555
Co2_2 O4_2 1_555 1_555
Co7_2 O6_2 1_555 1_555
O7_2 Co7_2 1_555 1_555
O13_2 Co7_2 1_555 1_555
O1_2 C1_2 1_555 1_555
O2_2 C1_2 1_555 1_555
C1_2 C2_2 1_555 1_555
C2_2 C3_2 1_555 1_555
O3_2 C3_2 1_555 1_555
C4_2 C2_2 1_555 1_555
H1_2 C4_2 1_555 1_555
C6_2 C7_2 1_555 1_555
O10_2 C7_2 1_555 1_555
C7_2 C4_2 1_555 1_555
Co3_2 O1_2 1_555 1_555
Co5_2 O2_2 1_555 1_555
Co7_2 O10_2 1_555 1_555
O3_2 Co3_2 1_555 1_555
O5_2 Co5_2 1_555 1_555
O10_2 Co6_2 1_555 1_555
O8_2 Co1_2 1_555 1_555
O11_2 Co1_2 1_555 1_555
O12_2 Co1_2 1_555 1_555
O6_3 Co2_3 1_555 1_555
O14_3 Co2_3 1_555 1_555
O4_3 C5_3 1_555 1_555
O7_3 C5_3 1_555 1_555
H2_3 C8_3 1_555 1_555
O7_3 Co7_3 1_555 1_555
O13_3 Co7_3 1_555 1_555
O1_3 C1_3 1_555 1_555
O2_3 C1_3 1_555 1_555
C1_3 C2_3 1_555 1_555
C2_3 C3_3 1_555 1_555
O3_3 C3_3 1_555 1_555
C4_3 C2_3 1_555 1_555
H1_3 C4_3 1_555 1_555
Co1_3 O1_3 1_555 1_555
O5_3 Co1_3 1_555 1_555
O8_3 Co1_3 1_555 1_555
C6_3 C7_3 1_555 1_555
O10_3 C7_3 1_555 1_555
O11_3 Co1_3 1_555 1_555
O12_3 Co1_3 1_555 1_555
C7_3 C4_3 1_555 1_555
Co3_3 O1_3 1_555 1_555
Co5_3 O2_3 1_555 1_555
Co7_3 O10_3 1_555 1_555
O3_3 Co3_3 1_555 1_555
O5_3 Co5_3 1_555 1_555
O11_3 Co5_3 1_555 1_555
O12_3 Co3_3 1_555 1_555
O5_3 C1_4 1_555 1_555
O2_4 C1_4 1_555 1_555
C1_4 C2_4 1_555 1_555
C2_4 C3_4 1_555 1_555
O12_3 C3_4 1_555 1_555
C3_4 C8_4 1_555 1_555
C4_4 C2_4 1_555 1_555
H1_4 C4_4 1_555 1_555
O4_4 C5_4 1_555 1_555
O9_2 C5_4 1_555 1_555
O9_4 Co6_2 1_555 1_555
C5_4 C6_4 1_555 1_555
C6_4 C7_4 1_555 1_555
O13_2 C7_4 1_555 1_555
C7_4 C4_4 1_555 1_555
C8_4 C6_4 1_555 1_555
H2_4 C8_4 1_555 1_555
Co6_2 O4_4 1_555 1_555
Co7_2 O4_4 1_555 1_555
O5_4 Co3_3 1_555 1_555
O12 C3_5 1_555 1_555
C3_5 C8_5 1_555 1_555
O4_5 C5_5 1_555 1_555
O9_3 C5_5 1_555 1_555
O9_5 Co6_3 1_555 1_555
C5_5 C6_5 1_555 1_555
C8_5 C6_5 1_555 1_555
H2_5 C8_5 1_555 1_555
Co6_3 O4_5 1_555 1_555
O5 C1_5 1_555 1_555
O2_5 C1_5 1_555 1_555
C1_5 C2_5 1_555 1_555
C4_5 C2_5 1_555 1_555
H1_5 C4_5 1_555 1_555
O13_3 C7_5 1_555 1_555
C7_5 C4_5 1_555 1_555
O5_2 C1_6 1_555 1_555
O2_6 C1_6 1_555 1_555
C1_6 C2_6 1_555 1_555
C4_6 C2_6 1_555 1_555
H1_6 C4_6 1_555 1_555
O13 C7_6 1_555 1_555
C7_6 C4_6 1_555 1_555
O12_2 C3_6 1_555 1_555
C3_6 C8_6 1_555 1_555
O4_6 C5_6 1_555 1_555
O9 C5_6 1_555 1_555
O9_6 Co6 1_555 1_555
C5_6 C6_6 1_555 1_555
C8_6 C6_6 1_555 1_555
H2_6 C8_6 1_555 1_555
Co6 O4_6 1_555 1_555
C2_7 C3_7 1_555 1_555
O11_2 C3_7 1_555 1_555
C3_7 C8_7 1_555 1_555
O6_3 C5_7 1_555 1_555
O9_5 C5_7 1_555 1_555
C5_7 C6_7 1_555 1_555
C6_7 C7_7 1_555 1_555
O14_3 C7_7 1_555 1_555
C8_7 C6_7 1_555 1_555
H2_7 C8_7 1_555 1_555
O5_6 C1_7 1_555 1_555
O8_2 C1_7 1_555 1_555
H1_7 C4_7 1_555 1_555
C2_8 C3_8 1_555 1_555
O11_3 C3_8 1_555 1_555
C3_8 C8_8 1_555 1_555
O6 C5_8 1_555 1_555
O9_6 C5_8 1_555 1_555
C5_8 C6_8 1_555 1_555
C6_8 C7_8 1_555 1_555
O14 C7_8 1_555 1_555
C8_8 C6_8 1_555 1_555
H2_8 C8_8 1_555 1_555
O5_4 C1_8 1_555 1_555
O8_3 C1_8 1_555 1_555
H1_8 C4_8 1_555 1_555
C2_9 C3_9 1_555 1_555
O11 C3_9 1_555 1_555
C3_9 C8_9 1_555 1_555
O6_2 C5_9 1_555 1_555
O9_4 C5_9 1_555 1_555
C5_9 C6_9 1_555 1_555
C6_9 C7_9 1_555 1_555
O14_2 C7_9 1_555 1_555
C8_9 C6_9 1_555 1_555
H2_9 C8_9 1_555 1_555
O5_5 C1_9 1_555 1_555
O8 C1_9 1_555 1_555
H1_9 C4_9 1_555 1_555

#END
