
###############################################################################
#
# This file contains modified crystal structure data generated from the
# MOF subset of the Cambridge Structural Database (CSD) v543 
# hosted by the Cambridge Crystallographic Data Centre (CCDC).
#
# This work is licensed under the Creative Commons
# Attribution-NonCommercial-ShareAlike 4.0 International License.
# To view a copy of this license, visit
# http://creativecommons.org/licenses/by-nc-sa/4.0/
# or send a letter to
# Creative Commons, PO Box 1866, Mountain View, CA 94042, USA.
#
# CIF created using the CSD Python API on 29 September 2022
# The structure has been converted into the P1 space group
# The structure has a 3D framework
# The original CSD entry CUWNOZ is in the monoclinic crystal system
# The framework has been calculated to contain at least 10.0% void space
# The void calculation uses a probe of radius 1.32A, grid spacing 0.4
# The framework is charged, counterions have been retained in the structure
#
###############################################################################

data_CUWNOZ
_chemical_formula_moiety         '(C184 H140 Co12 N8 O64)n'
_symmetry_cell_setting           triclinic
_symmetry_space_group_name_H-M   'P 1'
_symmetry_Int_Tables_number      1
_space_group_name_Hall           'P 1'
loop_
_symmetry_equiv_pos_site_id
_symmetry_equiv_pos_as_xyz
1 x,y,z
_cell_length_a                   15.8983(14)
_cell_length_b                   26.422(3)
_cell_length_c                   16.3418(15)
_cell_angle_alpha                90
_cell_angle_beta                 116.881(2)
_cell_angle_gamma                90
_cell_volume                     6122.88
loop_
_atom_site_label
_atom_site_type_symbol
_atom_site_fract_x
_atom_site_fract_y
_atom_site_fract_z
Co9 Co 0.23019(5) 0.99653(3) 0.02220(5)
Co16 Co 0.60895(5) 0.02369(3) 0.05918(5)
Co1 Co 0.23019(5) 0.50347(3) 0.52220(5)
Co2 Co 0.44686(5) 0.50841(3) 0.67991(5)
Co3 Co 0.39105(5) 0.52369(3) 0.44082(5)
N1 N 0.0877(3) 0.50248(16) 0.5015(3)
O1 O 0.3915(3) 0.44325(14) 0.7112(3)
O2 O 0.2426(3) 0.43873(14) 0.6015(3)
O3 O 0.2351(4) 0.25734(16) 0.8487(4)
O4 O 0.4861(2) 0.07336(13) 0.8400(2)
O5 O 0.4682(2) 0.05013(12) 0.9627(2)
O6 O 0.2588(3) 0.54857(15) 0.6394(3)
O7 O 0.4039(3) 0.55482(14) 0.7529(3)
O8 O 0.1716(3) 0.68748(14) 0.9068(3)
O9 O 0.2024(3) 0.92681(13) 0.9556(3)
O10 O 0.3352(2) 0.90765(12) 0.9464(2)
O11 O 0.4207(2) 0.54616(13) 0.3350(2)
O12 O 0.4264(2) 0.51052(14) 0.2156(2)
O13 O 0.0373(2) 0.62516(14) 0.0039(2)
O16 O 0.3697(2) 0.49622(15) 0.5462(2)
C1 C 0.3092(4) 0.42578(19) 0.6762(4)
C2 C 0.2892(4) 0.3837(2) 0.7262(4)
C3 C 0.1989(5) 0.3631(2) 0.6938(5)
H1 H 0.1483 0.3781 0.6421
C4 C 0.1811(5) 0.3220(2) 0.7346(5)
H2 H 0.1192 0.3084 0.7108
C5 C 0.2536(5) 0.3004(2) 0.8102(5)
C6 C 0.3424(5) 0.3198(2) 0.8467(4)
H3 H 0.3912 0.3050 0.9001
C7 C 0.3620(5) 0.3626(2) 0.8040(4)
H4 H 0.4238 0.3764 0.8285
C8 C 0.2900(5) 0.2147(2) 0.8582(5)
C9 C 0.3390(5) 0.2065(2) 0.8098(5)
H5 H 0.3376 0.2310 0.7666
C10 C 0.3906(4) 0.1633(2) 0.8228(4)
H6 H 0.4229 0.1581 0.7868
C11 C 0.3977(4) 0.1267(2) 0.8857(4)
C12 C 0.3434(5) 0.1348(2) 0.9317(5)
H7 H 0.3431 0.1099 0.9735
C13 C 0.2900(5) 0.1780(2) 0.9182(5)
H8 H 0.2532 0.1825 0.9501
C14 C 0.4557(4) 0.0802(2) 0.8964(4)
C15 C 0.3158(4) 0.56395(19) 0.7165(4)
C16 C 0.2809(4) 0.59591(19) 0.7696(4)
C17 C 0.1929(4) 0.6202(2) 0.7229(4)
H9 H 0.1568 0.6155 0.6586
C18 C 0.1589(4) 0.6505(2) 0.7693(5)
H10 H 0.1005 0.6676 0.7367
C19 C 0.2085(4) 0.6562(2) 0.8619(5)
C20 C 0.2945(4) 0.6321(2) 0.9107(4)
H11 H 0.3290 0.6362 0.9753
C21 C 0.3289(4) 0.6021(2) 0.8634(4)
H12 H 0.3874 0.5852 0.8965
C22 C 0.1903(5) 0.7387(2) 0.9098(4)
C23 C 0.1341(5) 0.7707(2) 0.9298(5)
H13 H 0.0817 0.7578 0.9364
C24 C 0.1546(4) 0.8223(2) 0.9403(4)
H14 H 0.1162 0.8445 0.9546
C25 C 0.2297(4) 0.8416(2) 0.9302(4)
C26 C 0.2845(5) 0.8087(2) 0.9095(5)
H15 H 0.3373 0.8215 0.9037
C27 C 0.2646(5) 0.7576(2) 0.8970(5)
H16 H 0.3014 0.7358 0.8797
C28 C 0.2580(4) 0.8973(2) 0.9454(3)
C29 C 0.3856(3) 0.53817(19) 0.2493(4)
C30 C 0.2935(3) 0.56237(19) 0.1836(3)
C31 C 0.2446(4) 0.59239(19) 0.2145(4)
H17 H 0.2698 0.5995 0.2782
C32 C 0.1581(4) 0.6129(2) 0.1537(4)
H18 H 0.1235 0.6336 0.1754
C33 C 0.1231(3) 0.60247(19) 0.0603(4)
C34 C 0.1717(4) 0.5722(2) 0.0288(4)
C35 C 0.2584(4) 0.5526(2) 0.0908(4)
H20 H 0.2938 0.5324 0.0693
C43 C 0.0407(4) 0.4591(2) 0.4872(4)
H25 H 0.056(4) 0.433(2) 0.475(4)
C44 C 0.0451(4) 0.5438(2) 0.5134(4)
H26 H 0.079(3) 0.5741(19) 0.521(3)
H27 H 0.387(5) 0.469(3) 0.551(5)
O30 O 0.1838(2) 0.46019(13) 0.4034(2)
O31 O 0.2711(2) 0.49002(13) 0.3384(2)
C82 C 0.0186(3) 0.3983(2) 0.0817(4)
C83 C 0.0596(4) 0.4445(2) 0.0813(4)
H50 H 0.0469 0.4611 0.0253
C84 C 0.1202(4) 0.4657(2) 0.1657(4)
H51 H 0.1514 0.4967 0.1673
C85 C 0.1356(3) 0.4426(2) 0.2466(4)
C86 C 0.0902(4) 0.3973(2) 0.2439(4)
H52 H 0.0988 0.3816 0.2994
C87 C 0.0330(4) 0.3750(2) 0.1610(4)
H53 H 0.0036 0.3434 0.1593
C88 C 0.2016(4) 0.46630(19) 0.3374(4)
Co11 Co 0.55314(5) 0.00841(3) 0.82009(5)
Co12 Co 0.55314(5) 0.49159(3) 0.32009(5)
Co19 Co 0.39105(5) 0.97631(3) 0.94082(5)
O33 O 0.5139(2) 0.57336(13) 0.6600(2)
O36 O 0.5318(2) 0.55013(12) 0.5373(2)
O38 O 0.4682(2) 0.44987(12) 0.4627(2)
O40 O 0.2024(3) 0.57319(13) 0.4556(3)
O42 O 0.3352(2) 0.59235(12) 0.4464(2)
O44 O 0.5736(2) 0.48948(14) 0.7844(2)
H19 H 0.1467 0.5647 0.9652
N2 N 0.9123(3) 0.49752(16) 0.4985(3)
C45 C 0.9593(4) 0.5409(2) 0.5128(4)
H28 H 0.944(4) 0.567(2) 0.525(4)
C46 C 0.9549(4) 0.4562(2) 0.4866(4)
H29 H 0.921(3) 0.4259(19) 0.479(3)
H48 H 0.8533 0.4353 0.0348
Co8 Co 0.76981(5) 0.49653(3) 0.47780(5)
O14 O 0.8162(2) 0.53981(13) 0.5966(2)
O15 O 0.7289(2) 0.50998(13) 0.6616(2)
C36 C 0.9814(3) 0.6017(2) 0.9183(4)
C37 C 0.9404(4) 0.5555(2) 0.9187(4)
H21 H 0.9531 0.5389 0.9747
C38 C 0.8798(4) 0.5343(2) 0.8343(4)
H22 H 0.8486 0.5033 0.8327
C39 C 0.8644(3) 0.5574(2) 0.7534(4)
C40 C 0.9098(4) 0.6027(2) 0.7561(4)
H23 H 0.9012 0.6184 0.7006
C41 C 0.9670(4) 0.6250(2) 0.8390(4)
H24 H 0.9964 0.6566 0.8407
C42 C 0.7984(4) 0.53370(19) 0.6626(4)
Co6 Co 0.60895(5) 0.47631(3) 0.55918(5)
O17 O 0.6085(3) 0.55675(14) 0.2888(3)
O18 O 0.7574(3) 0.56127(14) 0.3985(3)
O19 O 0.7649(4) 0.74266(16) 0.1513(4)
O20 O 0.5139(2) 0.92664(13) 0.1600(2)
O21 O 0.5318(2) 0.94987(12) 0.0373(2)
O22 O 0.7412(3) 0.45143(15) 0.3606(3)
O23 O 0.5961(3) 0.44518(14) 0.2471(3)
O24 O 0.8284(3) 0.31252(14) 0.0932(3)
O25 O 0.7976(3) 0.07319(13) 0.0444(3)
O26 O 0.6648(2) 0.09235(12) 0.0536(2)
O27 O 0.5793(2) 0.45384(13) 0.6650(2)
O29 O 0.9627(2) 0.37484(14) 0.9961(2)
O32 O 0.6303(2) 0.50378(15) 0.4538(2)
C47 C 0.6908(4) 0.57422(19) 0.3238(4)
C48 C 0.7108(4) 0.6163(2) 0.2738(4)
C49 C 0.8011(5) 0.6369(2) 0.3062(5)
H30 H 0.8517 0.6219 0.3579
C50 C 0.8189(5) 0.6780(2) 0.2654(5)
H31 H 0.8808 0.6916 0.2892
C51 C 0.7464(5) 0.6996(2) 0.1898(5)
C52 C 0.6576(5) 0.6802(2) 0.1533(4)
H32 H 0.6088 0.6950 0.0999
C53 C 0.6380(5) 0.6374(2) 0.1960(4)
H33 H 0.5762 0.6236 0.1715
C54 C 0.7100(5) 0.7853(2) 0.1418(5)
C55 C 0.6610(5) 0.7935(2) 0.1902(5)
H34 H 0.6624 0.7690 0.2334
C56 C 0.6094(4) 0.8367(2) 0.1772(4)
H35 H 0.5771 0.8419 0.2132
C57 C 0.6023(4) 0.8733(2) 0.1143(4)
C58 C 0.6566(5) 0.8652(2) 0.0683(5)
H36 H 0.6569 0.8901 0.0265
C59 C 0.7100(5) 0.8220(2) 0.0818(5)
H37 H 0.7468 0.8175 0.0499
C60 C 0.5443(4) 0.9198(2) 0.1036(4)
C61 C 0.6842(4) 0.43605(19) 0.2835(4)
C62 C 0.7191(4) 0.40409(19) 0.2304(4)
C63 C 0.8071(4) 0.3798(2) 0.2771(4)
H38 H 0.8432 0.3845 0.3414
C64 C 0.8411(4) 0.3495(2) 0.2307(5)
H39 H 0.8995 0.3324 0.2633
C65 C 0.7915(4) 0.3438(2) 0.1381(5)
C66 C 0.7055(4) 0.3679(2) 0.0893(4)
H40 H 0.6710 0.3638 0.0247
C67 C 0.6711(4) 0.3979(2) 0.1366(4)
H41 H 0.6126 0.4148 0.1035
C68 C 0.8097(5) 0.2613(2) 0.0902(4)
C69 C 0.8659(5) 0.2293(2) 0.0702(5)
H42 H 0.9183 0.2422 0.0636
C70 C 0.8454(4) 0.1777(2) 0.0597(4)
H43 H 0.8838 0.1555 0.0454
C71 C 0.7703(4) 0.1584(2) 0.0698(4)
C72 C 0.7155(5) 0.1913(2) 0.0905(5)
H44 H 0.6627 0.1785 0.0963
C73 C 0.7354(5) 0.2424(2) 0.1030(5)
H45 H 0.6986 0.2642 0.1203
C74 C 0.7420(4) 0.1027(2) 0.0546(3)
C75 C 0.6144(3) 0.46183(19) 0.7507(4)
C76 C 0.7065(3) 0.43763(19) 0.8164(3)
C77 C 0.7554(4) 0.40761(19) 0.7855(4)
H46 H 0.7302 0.4005 0.7218
C78 C 0.8419(4) 0.3871(2) 0.8463(4)
H47 H 0.8765 0.3664 0.8246
C79 C 0.8769(3) 0.39753(19) 0.9397(4)
C80 C 0.8283(4) 0.4278(2) 0.9712(4)
C81 C 0.7416(4) 0.4474(2) 0.9092(4)
H49 H 0.7062 0.4676 0.9307
H54 H 0.613(5) 0.531(3) 0.449(5)
Co13 Co 0.44686(5) 0.99159(3) 0.17991(5)
O34 O 0.4861(2) 0.42664(13) 0.3400(2)
O39 O 0.7976(3) 0.42681(13) 0.5444(3)
O41 O 0.6648(2) 0.40765(12) 0.5536(2)
Co7 Co 0.76981(5) 0.00347(3) 0.97780(5)
O17_2 O 0.3915(3) 0.05675(14) 0.2112(3)
O18_2 O 0.2426(3) 0.06127(14) 0.1015(3)
O19_2 O 0.2351(4) 0.24266(16) 0.3487(4)
O32_2 O 0.3697(2) 0.00378(15) 0.0462(2)
C47_2 C 0.3092(4) 0.07422(19) 0.1762(4)
C48_2 C 0.2892(4) 0.1163(2) 0.2262(4)
C49_2 C 0.1989(5) 0.1369(2) 0.1938(5)
H30_2 H 0.1483 0.1219 0.1421
C50_2 C 0.1811(5) 0.1780(2) 0.2346(5)
H31_2 H 0.1192 0.1916 0.2108
C51_2 C 0.2536(5) 0.1996(2) 0.3102(5)
C52_2 C 0.3424(5) 0.1802(2) 0.3467(4)
H32_2 H 0.3912 0.1950 0.4001
C53_2 C 0.3620(5) 0.1374(2) 0.3040(4)
H33_2 H 0.4238 0.1236 0.3285
C54_2 C 0.2900(5) 0.2853(2) 0.3582(5)
C55_2 C 0.3390(5) 0.2935(2) 0.3098(5)
H34_2 H 0.3376 0.2690 0.2666
C56_2 C 0.3906(4) 0.3367(2) 0.3228(4)
H35_2 H 0.4229 0.3419 0.2868
C57_2 C 0.3977(4) 0.3733(2) 0.3857(4)
C58_2 C 0.3434(5) 0.3652(2) 0.4317(5)
H36_2 H 0.3431 0.3901 0.4735
C59_2 C 0.2900(5) 0.3220(2) 0.4182(5)
H37_2 H 0.2532 0.3175 0.4501
C60_2 C 0.4557(4) 0.4198(2) 0.3964(4)
H54_2 H 0.387(5) 0.031(3) 0.051(5)
O43 O 0.5736(2) 0.01052(14) 0.2844(2)
O14_2 O 0.1838(2) 0.03981(13) 0.9034(2)
O15_2 O 0.2711(2) 0.00998(13) 0.8384(2)
C36_2 C 0.0186(3) 0.1017(2) 0.5817(4)
C37_2 C 0.0596(4) 0.0555(2) 0.5813(4)
H21_2 H 0.0469 0.0389 0.5253
C38_2 C 0.1202(4) 0.0343(2) 0.6657(4)
H22_2 H 0.1514 0.0033 0.6673
C39_2 C 0.1356(3) 0.0574(2) 0.7466(4)
C40_2 C 0.0902(4) 0.1027(2) 0.7439(4)
H23_2 H 0.0988 0.1184 0.7994
C41_2 C 0.0330(4) 0.1250(2) 0.6610(4)
H24_2 H 0.0036 0.1566 0.6593
C42_2 C 0.2016(4) 0.03370(19) 0.8374(4)
C45_2 C 0.0407(4) 0.0409(2) 0.9872(4)
H28_2 H 0.056(4) 0.067(2) 0.975(4)
O22_2 O 0.2588(3) 0.95143(15) 0.1394(3)
O23_2 O 0.4039(3) 0.94518(14) 0.2529(3)
O24_2 O 0.1716(3) 0.81252(14) 0.4068(3)
C61_2 C 0.3158(4) 0.93605(19) 0.2165(4)
C62_2 C 0.2809(4) 0.90409(19) 0.2696(4)
C63_2 C 0.1929(4) 0.8798(2) 0.2229(4)
H38_2 H 0.1568 0.8845 0.1586
C64_2 C 0.1589(4) 0.8495(2) 0.2693(5)
H39_2 H 0.1005 0.8324 0.2367
C65_2 C 0.2085(4) 0.8438(2) 0.3619(5)
C66_2 C 0.2945(4) 0.8679(2) 0.4107(4)
H40_2 H 0.3290 0.8638 0.4753
C67_2 C 0.3289(4) 0.8979(2) 0.3634(4)
H41_2 H 0.3874 0.9148 0.3965
C68_2 C 0.1903(5) 0.7613(2) 0.4098(4)
C69_2 C 0.1341(5) 0.7293(2) 0.4298(5)
H42_2 H 0.0817 0.7422 0.4364
C70_2 C 0.1546(4) 0.6777(2) 0.4403(4)
H43_2 H 0.1162 0.6555 0.4546
C71_2 C 0.2297(4) 0.6584(2) 0.4302(4)
C72_2 C 0.2845(5) 0.6913(2) 0.4095(5)
H44_2 H 0.3373 0.6785 0.4037
C73_2 C 0.2646(5) 0.7424(2) 0.3970(5)
H45_2 H 0.3014 0.7642 0.3797
C74_2 C 0.2580(4) 0.6027(2) 0.4454(3)
N3 N 0.0877(3) 0.99752(16) 0.0015(3)
C46_2 C 0.0451(4) 0.9562(2) 0.0134(4)
H29_2 H 0.079(3) 0.9259(19) 0.021(3)
O27_2 O 0.4207(2) 0.95384(13) 0.8350(2)
O28 O 0.4264(2) 0.98948(14) 0.7156(2)
O29_2 O 0.0373(2) 0.87484(14) 0.5039(2)
C75_2 C 0.3856(3) 0.96183(19) 0.7493(4)
C76_2 C 0.2935(3) 0.93763(19) 0.6836(3)
C77_2 C 0.2446(4) 0.90761(19) 0.7145(4)
H46_2 H 0.2698 0.9005 0.7782
C78_2 C 0.1581(4) 0.8871(2) 0.6537(4)
H47_2 H 0.1235 0.8664 0.6754
C79_2 C 0.1231(3) 0.89753(19) 0.5603(4)
C80_2 C 0.1717(4) 0.9278(2) 0.5288(4)
H48_2 H 0.1467 0.9353 0.4652
C81_2 C 0.2584(4) 0.9474(2) 0.5908(4)
H49_2 H 0.2938 0.9676 0.5693
O11_2 O 0.5793(2) 0.04616(13) 0.1650(2)
O13_2 O 0.9627(2) 0.12516(14) 0.4961(2)
C29_2 C 0.6144(3) 0.03817(19) 0.2507(4)
C30_2 C 0.7065(3) 0.06237(19) 0.3164(3)
C31_2 C 0.7554(4) 0.09239(19) 0.2855(4)
H17_2 H 0.7302 0.0995 0.2218
C32_2 C 0.8419(4) 0.1129(2) 0.3463(4)
H18_2 H 0.8765 0.1336 0.3246
C33_2 C 0.8769(3) 0.10247(19) 0.4397(4)
C34_2 C 0.8283(4) 0.0722(2) 0.4712(4)
H19_2 H 0.8533 0.0647 0.5348
C35_2 C 0.7416(4) 0.0526(2) 0.4092(4)
H20_2 H 0.7062 0.0324 0.4307
N1_2 N 0.9123(3) 0.00248(16) 0.9985(3)
O6_2 O 0.7412(3) 0.04857(15) 0.8606(3)
O7_2 O 0.5961(3) 0.05482(14) 0.7471(3)
O8_2 O 0.8284(3) 0.18748(14) 0.5932(3)
C15_2 C 0.6842(4) 0.06395(19) 0.7835(4)
C16_2 C 0.7191(4) 0.09591(19) 0.7304(4)
C17_2 C 0.8071(4) 0.1202(2) 0.7771(4)
H9_2 H 0.8432 0.1155 0.8414
C18_2 C 0.8411(4) 0.1505(2) 0.7307(5)
H10_2 H 0.8995 0.1676 0.7633
C19_2 C 0.7915(4) 0.1562(2) 0.6381(5)
C20_2 C 0.7055(4) 0.1321(2) 0.5893(4)
H11_2 H 0.6710 0.1362 0.5247
C21_2 C 0.6711(4) 0.1021(2) 0.6366(4)
H12_2 H 0.6126 0.0852 0.6035
C22_2 C 0.8097(5) 0.2387(2) 0.5902(4)
C23_2 C 0.8659(5) 0.2707(2) 0.5702(5)
H13_2 H 0.9183 0.2578 0.5636
C24_2 C 0.8454(4) 0.3223(2) 0.5597(4)
H14_2 H 0.8838 0.3445 0.5454
C25_2 C 0.7703(4) 0.3416(2) 0.5698(4)
C26_2 C 0.7155(5) 0.3087(2) 0.5905(5)
H15_2 H 0.6627 0.3215 0.5963
C27_2 C 0.7354(5) 0.2576(2) 0.6030(5)
H16_2 H 0.6986 0.2358 0.6203
C28_2 C 0.7420(4) 0.3973(2) 0.5546(3)
C44_2 C 0.9549(4) 0.0438(2) 0.9866(4)
H26_2 H 0.921(3) 0.0741(19) 0.979(3)
C43_2 C 0.9593(4) 0.9591(2) 0.0128(4)
H25_2 H 0.944(4) 0.933(2) 0.025(4)
O30_2 O 0.8162(2) 0.96019(13) 0.0966(2)
O31_2 O 0.7289(2) 0.99002(13) 0.1616(2)
C82_2 C 0.9814(3) 0.8983(2) 0.4183(4)
C83_2 C 0.9404(4) 0.9445(2) 0.4187(4)
H50_2 H 0.9531 0.9611 0.4747
C84_2 C 0.8798(4) 0.9657(2) 0.3343(4)
H51_2 H 0.8486 0.9967 0.3327
C85_2 C 0.8644(3) 0.9426(2) 0.2534(4)
C86_2 C 0.9098(4) 0.8973(2) 0.2561(4)
H52_2 H 0.9012 0.8816 0.2006
C87_2 C 0.9670(4) 0.8750(2) 0.3390(4)
H53_2 H 0.9964 0.8434 0.3407
C88_2 C 0.7984(4) 0.96630(19) 0.1626(4)
O1_2 O 0.6085(3) 0.94325(14) 0.7888(3)
O2_2 O 0.7574(3) 0.93873(14) 0.8985(3)
O3_2 O 0.7649(4) 0.75734(16) 0.6513(4)
O16_2 O 0.6303(2) 0.99622(15) 0.9538(2)
C1_2 C 0.6908(4) 0.92578(19) 0.8238(4)
C2_2 C 0.7108(4) 0.8837(2) 0.7738(4)
C3_2 C 0.8011(5) 0.8631(2) 0.8062(5)
H1_2 H 0.8517 0.8781 0.8579
C4_2 C 0.8189(5) 0.8220(2) 0.7654(5)
H2_2 H 0.8808 0.8084 0.7892
C5_2 C 0.7464(5) 0.8004(2) 0.6898(5)
C6_2 C 0.6576(5) 0.8198(2) 0.6533(4)
H3_2 H 0.6088 0.8050 0.5999
C7_2 C 0.6380(5) 0.8626(2) 0.6960(4)
H4_2 H 0.5762 0.8764 0.6715
C8_2 C 0.7100(5) 0.7147(2) 0.6418(5)
C9_2 C 0.6610(5) 0.7065(2) 0.6902(5)
H5_2 H 0.6624 0.7310 0.7334
C10_2 C 0.6094(4) 0.6633(2) 0.6772(4)
H6_2 H 0.5771 0.6581 0.7132
C11_2 C 0.6023(4) 0.6267(2) 0.6143(4)
C12_2 C 0.6566(5) 0.6348(2) 0.5683(5)
H7_2 H 0.6569 0.6099 0.5265
C13_2 C 0.7100(5) 0.6780(2) 0.5818(5)
H8_2 H 0.7468 0.6825 0.5499
C14_2 C 0.5443(4) 0.5802(2) 0.6036(4)
H27_2 H 0.613(5) 0.969(3) 0.949(5)
N4 N 0.6139(4) 0.58737(18) 0.8599(3)
H55 H 0.5701 0.5877 0.7991
H56 H 0.6053 0.5580 0.8854
C89 C 0.5963(5) 0.6301(2) 0.9056(5)
H57 H 0.5319 0.6280 0.8989
H58 H 0.6036 0.6616 0.8779
H59 H 0.6413 0.6296 0.9709
C90 C 0.7085(4) 0.5866(3) 0.8651(5)
H60 H 0.7147 0.5569 0.8322
H61 H 0.7559 0.5849 0.9295
H62 H 0.7182 0.6174 0.8371
N4_2 N 0.3861(4) 0.08737(18) 0.6401(3)
H55_2 H 0.4299 0.0877 0.7009
H56_2 H 0.3947 0.0580 0.6146
C89_2 C 0.4037(5) 0.1301(2) 0.5944(5)
H57_2 H 0.4681 0.1280 0.6011
H58_2 H 0.3964 0.1616 0.6221
H59_2 H 0.3587 0.1296 0.5291
C90_2 C 0.2915(4) 0.0866(3) 0.6349(5)
H60_2 H 0.2853 0.0569 0.6678
H61_2 H 0.2441 0.0849 0.5705
H62_2 H 0.2818 0.1174 0.6629
N4_3 N 0.3861(4) 0.41263(18) 0.1401(3)
H55_3 H 0.4299 0.4123 0.2009
H56_3 H 0.3947 0.4420 0.1146
C89_3 C 0.4037(5) 0.3699(2) 0.0944(5)
H57_3 H 0.4681 0.3720 0.1011
H58_3 H 0.3964 0.3384 0.1221
H59_3 H 0.3587 0.3704 0.0291
C90_3 C 0.2915(4) 0.4134(3) 0.1349(5)
H60_3 H 0.2853 0.4431 0.1678
H61_3 H 0.2441 0.4151 0.0705
H62_3 H 0.2818 0.3826 0.1629
N4_4 N 0.6139(4) 0.91263(18) 0.3599(3)
H55_4 H 0.5701 0.9123 0.2991
H56_4 H 0.6053 0.9420 0.3854
C89_4 C 0.5963(5) 0.8699(2) 0.4056(5)
H57_4 H 0.5319 0.8720 0.3989
H58_4 H 0.6036 0.8384 0.3779
H59_4 H 0.6413 0.8704 0.4709
C90_4 C 0.7085(4) 0.9134(3) 0.3651(5)
H60_4 H 0.7147 0.9431 0.3322
H61_4 H 0.7559 0.9151 0.4295
H62_4 H 0.7182 0.8826 0.3371
loop_
_geom_bond_atom_site_label_1
_geom_bond_atom_site_label_2
_geom_bond_site_symmetry_1
_geom_bond_site_symmetry_2
Co1 N1 1_555 1_555
Co2 O1 1_555 1_555
Co3 O11 1_555 1_555
N1 C43 1_555 1_555
O1 C1 1_555 1_555
O2 Co1 1_555 1_555
O3 C5 1_555 1_555
O4 C14 1_555 1_555
O5 C14 1_555 1_555
O6 Co1 1_555 1_555
O7 Co2 1_555 1_555
O8 C19 1_555 1_555
O9 C28 1_555 1_555
O10 C28 1_555 1_555
O11 C29 1_555 1_555
O12 C29 1_555 1_555
O13 C33 1_555 1_555
O16 Co1 1_555 1_555
C1 O2 1_555 1_555
C2 C1 1_555 1_555
C3 C2 1_555 1_555
H1 C3 1_555 1_555
C4 C3 1_555 1_555
H2 C4 1_555 1_555
C5 C4 1_555 1_555
C6 C5 1_555 1_555
H3 C6 1_555 1_555
C7 C2 1_555 1_555
H4 C7 1_555 1_555
C8 O3 1_555 1_555
C9 C8 1_555 1_555
H5 C9 1_555 1_555
C10 C9 1_555 1_555
H6 C10 1_555 1_555
C11 C10 1_555 1_555
C12 C11 1_555 1_555
H7 C12 1_555 1_555
C13 C8 1_555 1_555
H8 C13 1_555 1_555
C14 C11 1_555 1_555
C15 O6 1_555 1_555
C16 C15 1_555 1_555
C17 C16 1_555 1_555
H9 C17 1_555 1_555
C18 C17 1_555 1_555
H10 C18 1_555 1_555
C19 C18 1_555 1_555
C20 C19 1_555 1_555
H11 C20 1_555 1_555
C21 C16 1_555 1_555
H12 C21 1_555 1_555
C22 O8 1_555 1_555
C23 C22 1_555 1_555
H13 C23 1_555 1_555
C24 C23 1_555 1_555
H14 C24 1_555 1_555
C25 C24 1_555 1_555
C26 C25 1_555 1_555
H15 C26 1_555 1_555
C27 C22 1_555 1_555
H16 C27 1_555 1_555
C28 C25 1_555 1_555
C29 C30 1_555 1_555
C30 C31 1_555 1_555
C31 H17 1_555 1_555
C32 C31 1_555 1_555
H18 C32 1_555 1_555
C33 C32 1_555 1_555
C34 C33 1_555 1_555
C35 C30 1_555 1_555
H20 C35 1_555 1_555
C43 H25 1_555 1_555
C44 N1 1_555 1_555
H26 C44 1_555 1_555
H27 O16 1_555 1_555
O30 Co1 1_555 1_555
O31 Co3 1_555 1_555
C83 C82 1_555 1_555
H50 C83 1_555 1_555
C84 C83 1_555 1_555
H51 C84 1_555 1_555
C85 C84 1_555 1_555
C86 C85 1_555 1_555
H52 C86 1_555 1_555
C87 C82 1_555 1_555
H53 C87 1_555 1_555
C88 O30 1_555 1_555
Co11 O4 1_555 1_555
Co12 O12 1_555 1_555
Co19 O10 1_555 1_555
O33 Co2 1_555 1_555
O36 Co3 1_555 1_555
O38 Co3 1_555 1_555
O40 Co1 1_555 1_555
O42 Co3 1_555 1_555
O44 Co2 1_555 1_555
Co2 O16 1_555 1_555
Co3 O16 1_555 1_555
O7 C15 1_555 1_555
C6 C7 1_555 1_555
C12 C13 1_555 1_555
C20 C21 1_555 1_555
C26 C27 1_555 1_555
C34 C35 1_555 1_555
O31 C88 1_555 1_555
C85 C88 1_555 1_555
C86 C87 1_555 1_555
N2 C45 1_555 1_555
H28 C45 1_555 1_555
H29 C46 1_555 1_555
Co8 N2 1_555 1_555
N2 C46 1_555 1_555
O14 C42 1_555 1_555
O15 C42 1_555 1_555
C37 C36 1_555 1_555
H21 C37 1_555 1_555
C38 C37 1_555 1_555
H22 C38 1_555 1_555
C39 C38 1_555 1_555
C40 C39 1_555 1_555
H23 C40 1_555 1_555
C41 C36 1_555 1_555
H24 C41 1_555 1_555
C42 C39 1_555 1_555
Co8 O14 1_555 1_555
Co12 O17 1_555 1_555
Co6 O15 1_555 1_555
O17 C47 1_555 1_555
O18 Co8 1_555 1_555
O19 C51 1_555 1_555
O20 C60 1_555 1_555
O21 C60 1_555 1_555
O22 Co8 1_555 1_555
O23 Co12 1_555 1_555
O24 C65 1_555 1_555
O25 C74 1_555 1_555
O26 C74 1_555 1_555
O27 Co6 1_555 1_555
O44 C75 1_555 1_555
O29 C79 1_555 1_555
O32 Co8 1_555 1_555
C47 O18 1_555 1_555
C48 C47 1_555 1_555
C49 C48 1_555 1_555
H30 C49 1_555 1_555
C50 C49 1_555 1_555
H31 C50 1_555 1_555
C51 C50 1_555 1_555
C52 C51 1_555 1_555
H32 C52 1_555 1_555
C53 C48 1_555 1_555
H33 C53 1_555 1_555
C54 O19 1_555 1_555
C55 C54 1_555 1_555
H34 C55 1_555 1_555
C56 C55 1_555 1_555
H35 C56 1_555 1_555
C57 C56 1_555 1_555
C58 C57 1_555 1_555
H36 C58 1_555 1_555
C59 C54 1_555 1_555
H37 C59 1_555 1_555
C60 C57 1_555 1_555
C61 O22 1_555 1_555
C62 C61 1_555 1_555
C63 C62 1_555 1_555
H38 C63 1_555 1_555
C64 C63 1_555 1_555
H39 C64 1_555 1_555
C65 C64 1_555 1_555
C66 C65 1_555 1_555
H40 C66 1_555 1_555
C67 C62 1_555 1_555
H41 C67 1_555 1_555
C68 O24 1_555 1_555
C69 C68 1_555 1_555
H42 C69 1_555 1_555
C70 C69 1_555 1_555
H43 C70 1_555 1_555
C71 C70 1_555 1_555
C72 C71 1_555 1_555
H44 C72 1_555 1_555
C73 C68 1_555 1_555
H45 C73 1_555 1_555
C74 C71 1_555 1_555
C75 O27 1_555 1_555
C76 C75 1_555 1_555
C77 C76 1_555 1_555
H46 C77 1_555 1_555
C78 C77 1_555 1_555
H47 C78 1_555 1_555
C79 C78 1_555 1_555
C80 C79 1_555 1_555
C81 C76 1_555 1_555
H49 C81 1_555 1_555
H54 O32 1_555 1_555
Co13 O20 1_555 1_555
Co16 O26 1_555 1_555
O34 Co12 1_555 1_555
O36 Co6 1_555 1_555
O38 Co6 1_555 1_555
O39 Co8 1_555 1_555
O41 Co6 1_555 1_555
C40 C41 1_555 1_555
Co12 O32 1_555 1_555
Co6 O32 1_555 1_555
O23 C61 1_555 1_555
C52 C53 1_555 1_555
C58 C59 1_555 1_555
C66 C67 1_555 1_555
C72 C73 1_555 1_555
C80 C81 1_555 1_555
O17_2 C47_2 1_555 1_555
O19_2 C51_2 1_555 1_555
O34 C60_2 1_555 1_555
O38 C60_2 1_555 1_555
C47_2 O18_2 1_555 1_555
C48_2 C47_2 1_555 1_555
C49_2 C48_2 1_555 1_555
H30_2 C49_2 1_555 1_555
C50_2 C49_2 1_555 1_555
H31_2 C50_2 1_555 1_555
C51_2 C50_2 1_555 1_555
C52_2 C51_2 1_555 1_555
H32_2 C52_2 1_555 1_555
C53_2 C48_2 1_555 1_555
H33_2 C53_2 1_555 1_555
C54_2 O19_2 1_555 1_555
C55_2 C54_2 1_555 1_555
H34_2 C55_2 1_555 1_555
C56_2 C55_2 1_555 1_555
H35_2 C56_2 1_555 1_555
C57_2 C56_2 1_555 1_555
C58_2 C57_2 1_555 1_555
H36_2 C58_2 1_555 1_555
C59_2 C54_2 1_555 1_555
H37_2 C59_2 1_555 1_555
C60_2 C57_2 1_555 1_555
H54_2 O32_2 1_555 1_555
C52_2 C53_2 1_555 1_555
C58_2 C59_2 1_555 1_555
O14_2 C42_2 1_555 1_555
O15_2 C42_2 1_555 1_555
C37_2 C36_2 1_555 1_555
H21_2 C37_2 1_555 1_555
C38_2 C37_2 1_555 1_555
H22_2 C38_2 1_555 1_555
C39_2 C38_2 1_555 1_555
C40_2 C39_2 1_555 1_555
H23_2 C40_2 1_555 1_555
C41_2 C36_2 1_555 1_555
H24_2 C41_2 1_555 1_555
C42_2 C39_2 1_555 1_555
C40_2 C41_2 1_555 1_555
H28_2 C45_2 1_555 1_555
O22_2 Co9 1_555 1_555
O23_2 Co13 1_555 1_555
O24_2 C65_2 1_555 1_555
O40 C74_2 1_555 1_555
O42 C74_2 1_555 1_555
C61_2 O22_2 1_555 1_555
C62_2 C61_2 1_555 1_555
C63_2 C62_2 1_555 1_555
H38_2 C63_2 1_555 1_555
C64_2 C63_2 1_555 1_555
H39_2 C64_2 1_555 1_555
C65_2 C64_2 1_555 1_555
C66_2 C65_2 1_555 1_555
H40_2 C66_2 1_555 1_555
C67_2 C62_2 1_555 1_555
H41_2 C67_2 1_555 1_555
C68_2 O24_2 1_555 1_555
C69_2 C68_2 1_555 1_555
H42_2 C69_2 1_555 1_555
C70_2 C69_2 1_555 1_555
H43_2 C70_2 1_555 1_555
C71_2 C70_2 1_555 1_555
C72_2 C71_2 1_555 1_555
H44_2 C72_2 1_555 1_555
C73_2 C68_2 1_555 1_555
H45_2 C73_2 1_555 1_555
C74_2 C71_2 1_555 1_555
N3 Co9 1_555 1_555
O23_2 C61_2 1_555 1_555
C66_2 C67_2 1_555 1_555
C72_2 C73_2 1_555 1_555
H29_2 C46_2 1_555 1_555
O27_2 Co19 1_555 1_555
O28 C75_2 1_555 1_555
O29_2 C79_2 1_555 1_555
C75_2 O27_2 1_555 1_555
C76_2 C75_2 1_555 1_555
C77_2 C76_2 1_555 1_555
H46_2 C77_2 1_555 1_555
C78_2 C77_2 1_555 1_555
H47_2 C78_2 1_555 1_555
C79_2 C78_2 1_555 1_555
C80_2 C79_2 1_555 1_555
H48_2 C80_2 1_555 1_555
C81_2 C76_2 1_555 1_555
H49_2 C81_2 1_555 1_555
N3 C46_2 1_555 1_555
C80_2 C81_2 1_555 1_555
Co16 O11_2 1_555 1_555
O11_2 C29_2 1_555 1_555
O43 C29_2 1_555 1_555
O13_2 C33_2 1_555 1_555
C29_2 C30_2 1_555 1_555
C30_2 C31_2 1_555 1_555
C31_2 H17_2 1_555 1_555
C32_2 C31_2 1_555 1_555
H18_2 C32_2 1_555 1_555
C33_2 C32_2 1_555 1_555
C34_2 C33_2 1_555 1_555
H19_2 C34_2 1_555 1_555
C35_2 C30_2 1_555 1_555
H20_2 C35_2 1_555 1_555
C34_2 C35_2 1_555 1_555
Co7 N1_2 1_555 1_555
O6_2 Co7 1_555 1_555
O7_2 Co11 1_555 1_555
O8_2 C19_2 1_555 1_555
O39 C28_2 1_555 1_555
O41 C28_2 1_555 1_555
C15_2 O6_2 1_555 1_555
C16_2 C15_2 1_555 1_555
C17_2 C16_2 1_555 1_555
H9_2 C17_2 1_555 1_555
C18_2 C17_2 1_555 1_555
H10_2 C18_2 1_555 1_555
C19_2 C18_2 1_555 1_555
C20_2 C19_2 1_555 1_555
H11_2 C20_2 1_555 1_555
C21_2 C16_2 1_555 1_555
H12_2 C21_2 1_555 1_555
C22_2 O8_2 1_555 1_555
C23_2 C22_2 1_555 1_555
H13_2 C23_2 1_555 1_555
C24_2 C23_2 1_555 1_555
H14_2 C24_2 1_555 1_555
C25_2 C24_2 1_555 1_555
C26_2 C25_2 1_555 1_555
H15_2 C26_2 1_555 1_555
C27_2 C22_2 1_555 1_555
H16_2 C27_2 1_555 1_555
C28_2 C25_2 1_555 1_555
C44_2 N1_2 1_555 1_555
H26_2 C44_2 1_555 1_555
O7_2 C15_2 1_555 1_555
C20_2 C21_2 1_555 1_555
C26_2 C27_2 1_555 1_555
C43_2 H25_2 1_555 1_555
C83_2 C82_2 1_555 1_555
H50_2 C83_2 1_555 1_555
C84_2 C83_2 1_555 1_555
H51_2 C84_2 1_555 1_555
C85_2 C84_2 1_555 1_555
C86_2 C85_2 1_555 1_555
H52_2 C86_2 1_555 1_555
C87_2 C82_2 1_555 1_555
H53_2 C87_2 1_555 1_555
C88_2 O30_2 1_555 1_555
O31_2 C88_2 1_555 1_555
C85_2 C88_2 1_555 1_555
C86_2 C87_2 1_555 1_555
O1_2 C1_2 1_555 1_555
O3_2 C5_2 1_555 1_555
O33 C14_2 1_555 1_555
O36 C14_2 1_555 1_555
C1_2 O2_2 1_555 1_555
C2_2 C1_2 1_555 1_555
C3_2 C2_2 1_555 1_555
H1_2 C3_2 1_555 1_555
C4_2 C3_2 1_555 1_555
H2_2 C4_2 1_555 1_555
C5_2 C4_2 1_555 1_555
C6_2 C5_2 1_555 1_555
H3_2 C6_2 1_555 1_555
C7_2 C2_2 1_555 1_555
H4_2 C7_2 1_555 1_555
C8_2 O3_2 1_555 1_555
C9_2 C8_2 1_555 1_555
H5_2 C9_2 1_555 1_555
C10_2 C9_2 1_555 1_555
H6_2 C10_2 1_555 1_555
C11_2 C10_2 1_555 1_555
C12_2 C11_2 1_555 1_555
H7_2 C12_2 1_555 1_555
C13_2 C8_2 1_555 1_555
H8_2 C13_2 1_555 1_555
C14_2 C11_2 1_555 1_555
H27_2 O16_2 1_555 1_555
C6_2 C7_2 1_555 1_555
C12_2 C13_2 1_555 1_555
N4 H55 1_555 1_555
H56 N4 1_555 1_555
C89 N4 1_555 1_555
H57 C89 1_555 1_555
H58 C89 1_555 1_555
H59 C89 1_555 1_555
C90 N4 1_555 1_555
H60 C90 1_555 1_555
H61 C90 1_555 1_555
H62 C90 1_555 1_555
N4_2 H55_2 1_555 1_555
H56_2 N4_2 1_555 1_555
C89_2 N4_2 1_555 1_555
H57_2 C89_2 1_555 1_555
H58_2 C89_2 1_555 1_555
H59_2 C89_2 1_555 1_555
C90_2 N4_2 1_555 1_555
H60_2 C90_2 1_555 1_555
H61_2 C90_2 1_555 1_555
H62_2 C90_2 1_555 1_555
N4_3 H55_3 1_555 1_555
H56_3 N4_3 1_555 1_555
C89_3 N4_3 1_555 1_555
H57_3 C89_3 1_555 1_555
H58_3 C89_3 1_555 1_555
H59_3 C89_3 1_555 1_555
C90_3 N4_3 1_555 1_555
H60_3 C90_3 1_555 1_555
H61_3 C90_3 1_555 1_555
H62_3 C90_3 1_555 1_555
N4_4 H55_4 1_555 1_555
H56_4 N4_4 1_555 1_555
C89_4 N4_4 1_555 1_555
H57_4 C89_4 1_555 1_555
H58_4 C89_4 1_555 1_555
H59_4 C89_4 1_555 1_555
C90_4 N4_4 1_555 1_555
H60_4 C90_4 1_555 1_555
H61_4 C90_4 1_555 1_555
H62_4 C90_4 1_555 1_555

#END
