
###############################################################################
#
# This file contains modified crystal structure data generated from the
# MOF subset of the Cambridge Structural Database (CSD) v543 
# hosted by the Cambridge Crystallographic Data Centre (CCDC).
#
# This work is licensed under the Creative Commons
# Attribution-NonCommercial-ShareAlike 4.0 International License.
# To view a copy of this license, visit
# http://creativecommons.org/licenses/by-nc-sa/4.0/
# or send a letter to
# Creative Commons, PO Box 1866, Mountain View, CA 94042, USA.
#
# CIF created using the CSD Python API on 29 September 2022
# The structure has been converted into the P1 space group
# The structure has a 3D framework
# The original CSD entry CUWNIT is in the monoclinic crystal system
# The framework has been calculated to contain at least 10.0% void space
# The void calculation uses a probe of radius 1.32A, grid spacing 0.4
#
###############################################################################

data_CUWNIT
_chemical_formula_moiety         '(C328 H296 Co24 N16 O134)n'
_symmetry_cell_setting           triclinic
_symmetry_space_group_name_H-M   'P 1'
_symmetry_Int_Tables_number      1
_space_group_name_Hall           'P 1'
loop_
_symmetry_equiv_pos_site_id
_symmetry_equiv_pos_as_xyz
1 x,y,z
_cell_length_a                   28.834(3)
_cell_length_b                   16.381(2)
_cell_length_c                   23.199(2)
_cell_angle_alpha                90
_cell_angle_beta                 92.893(2)
_cell_angle_gamma                90
_cell_volume                     10943.6
loop_
_atom_site_label
_atom_site_type_symbol
_atom_site_fract_x
_atom_site_fract_y
_atom_site_fract_z
O27 O 0.18945(13) 0.1834(2) 0.52635(14)
O28 O 0.27292(11) 0.2221(2) 0.78620(13)
O29 O 0.22774(13) 0.3321(2) 0.77355(13)
C65 C 0.25087(16) 0.0347(3) 0.44003(19)
H53 H 0.2736 0.0336 0.4118
C66 C 0.23722(18) 0.1088(3) 0.4627(2)
H54 H 0.2506 0.1585 0.4505
C67 C 0.20358(16) 0.1088(3) 0.50341(19)
C68 C 0.18242(16) 0.0380(3) 0.5202(2)
H55 H 0.1584 0.0398 0.5467
C70 C 0.24569(15) 0.2678(3) 0.75641(18)
C71 C 0.23242(15) 0.2436(3) 0.69516(18)
C72 C 0.25389(15) 0.1796(3) 0.66801(18)
H57 H 0.2784 0.1510 0.6880
C73 C 0.24019(15) 0.1564(3) 0.61209(19)
H58 H 0.2549 0.1119 0.5941
C74 C 0.20483(16) 0.1992(3) 0.58310(18)
C75 C 0.18268(17) 0.2637(3) 0.6093(2)
H59 H 0.1582 0.2922 0.5891
C76 C 0.19665(16) 0.2859(3) 0.66518(19)
H60 H 0.1818 0.3302 0.6832
Co11 Co 0.204893(18) 0.39365(3) 0.84334(2)
Co15 Co 0.29116(2) 0.24453(4) 0.87019(3)
O4 O 0.16622(10) 0.23888(17) 0.03774(12)
O5 O 0.14036(12) 0.2859(2) 0.11915(14)
O8 O -0.0000 0.9433(3) 0.2500
C8 C 0.13306(16) 0.2662(3) 0.06666(19)
C9 C 0.08542(15) 0.2740(3) 0.0406(2)
C10 C 0.05030(16) 0.3115(3) 0.0710(2)
H8 H 0.0569 0.3298 0.1094
C11 C 0.00608(16) 0.3220(3) 0.0456(2)
O18 O 0.16222(9) 0.78428(17) 0.40684(12)
O19 O 0.14770(11) 0.68366(19) 0.34313(14)
C42 C 0.14179(14) 0.7537(3) 0.36302(18)
C43 C 0.10533(14) 0.8059(3) 0.33200(18)
C44 C 0.08957(15) 0.8777(3) 0.35621(19)
H38 H 0.1030 0.8955 0.3923
C45 C 0.05487(15) 0.9235(3) 0.3289(2)
H39 H 0.0441 0.9720 0.3462
C46 C 0.03594(15) 0.8976(3) 0.2759(2)
C47 C 0.05249(16) 0.8286(3) 0.2496(2)
H40 H 0.0402 0.8126 0.2125
C48 C 0.08731(14) 0.7825(3) 0.2779(2)
H41 H 0.0988 0.7349 0.2601
Co4 Co 0.201940(17) 0.71863(3) 0.46484(2)
Co5 Co 0.204893(18) 0.60635(3) 0.34334(2)
Co6 Co 0.29116(2) 0.75547(4) 0.37019(3)
O20 O 0.16446(9) 0.61350(17) 0.47450(12)
O21 O 0.18518(10) 0.52597(17) 0.40538(12)
O22 O 0.04661(11) 0.3023(2) 0.53859(16)
O25 O 0.24405(9) 0.82299(17) 0.47603(11)
O26 O 0.26792(10) 0.87213(19) 0.39302(12)
O30 O 0.24473(9) 0.67601(17) 0.40116(11)
H42 H 0.2627 0.6421 0.4187
O31 O 0.32925(14) 0.6375(2) 0.35217(17)
H43 H 0.3490 0.6385 0.3262
H44 H 0.3041 0.6140 0.3411
C49 C 0.16402(13) 0.5446(2) 0.44991(17)
C50 C 0.13474(14) 0.4792(3) 0.47526(18)
C51 C 0.13979(14) 0.3983(3) 0.46026(18)
H45 H 0.1633 0.3831 0.4351
C52 C 0.11075(14) 0.3387(3) 0.4815(2)
H46 H 0.1145 0.2830 0.4714
C53 C 0.07649(15) 0.3617(3) 0.5174(2)
C54 C 0.07122(19) 0.4418(3) 0.5341(3)
H47 H 0.0478 0.4567 0.5595
C55 C 0.10088(18) 0.5006(3) 0.5130(3)
H48 H 0.0979 0.5559 0.5245
H50 H 0.0174 0.3481 0.4338
C60 C 0.00365(15) 0.2943(3) 0.5100(2)
C63 C 0.24903(14) 0.8810(3) 0.44037(17)
C64 C 0.23145(14) 0.9622(3) 0.45850(16)
C69 C 0.19647(14) 0.9639(3) 0.49814(18)
H56 H 0.1824 0.9145 0.5099
O32 O 0.16517(11) 0.53830(19) 0.28088(13)
N3 N 0.13065(15) 0.4273(3) 0.24149(18)
C77 C 0.14581(16) 0.4728(3) 0.2862(2)
H61 H 0.1413 0.4532 0.3241
C78 C 0.1384(2) 0.4548(3) 0.1827(2)
H62 H 0.1388 0.5146 0.1816
H63 H 0.1134 0.4344 0.1563
H64 H 0.1683 0.4338 0.1707
C79 C 0.1128(2) 0.3444(4) 0.2505(3)
H65 H 0.1122 0.3335 0.2920
H66 H 0.1330 0.3046 0.2327
H67 H 0.0813 0.3400 0.2329
O33 O 0.26198(11) 0.5248(2) 0.32891(12)
N4 N 0.30395(14) 0.4638(3) 0.26045(17)
C80 C 0.26727(16) 0.5030(3) 0.27812(19)
H68 H 0.2431 0.5156 0.2501
C81 C 0.34232(17) 0.4405(3) 0.2997(2)
H69 H 0.3369 0.4610 0.3384
H70 H 0.3712 0.4637 0.2863
H71 H 0.3448 0.3808 0.3007
C82 C 0.3065(2) 0.4405(4) 0.2000(2)
H72 H 0.2794 0.4621 0.1778
H73 H 0.3069 0.3808 0.1969
H74 H 0.3349 0.4628 0.1847
Co10 Co 0.298060(17) 0.78137(3) 0.53516(2)
Co13 Co 0.20884(2) 0.25547(4) 0.12981(3)
O35 O 0.33378(10) 0.73888(17) 0.46226(12)
O37 O 0.16622(10) 0.76112(17) 0.53774(12)
O39 O 0.35964(12) 0.7859(2) 0.38085(14)
O41 O 0.25595(9) 0.67701(17) 0.52397(11)
O42 O 0.27292(11) 0.7779(2) 0.28620(13)
O44 O 0.22774(13) 0.6679(2) 0.27355(13)
C13 C 0.03052(15) 0.2548(3) 0.9599(2)
H10 H 0.0235 0.2341 0.9222
C14 C 0.07467(15) 0.2457(3) 0.9851(2)
H11 H 0.0980 0.2198 0.9642
Co7 Co 0.201940(17) 0.28137(3) 0.96484(2)
O11 O 0.81055(13) 0.1834(2) 0.97365(14)
O12 O 0.72708(11) 0.2221(2) 0.71380(13)
O13 O 0.77226(13) 0.3321(2) 0.72645(13)
C26 C 0.79642(16) 0.1088(3) 0.99659(19)
C27 C 0.81758(16) 0.0380(3) 0.9798(2)
H18 H 0.8416 0.0398 0.9533
C29 C 0.75431(15) 0.2678(3) 0.74359(18)
C30 C 0.76758(15) 0.2436(3) 0.80484(18)
C31 C 0.74611(15) 0.1796(3) 0.83199(18)
H20 H 0.7216 0.1510 0.8120
C32 C 0.75981(15) 0.1564(3) 0.88791(19)
H21 H 0.7451 0.1119 0.9059
C33 C 0.79517(16) 0.1992(3) 0.91690(18)
C34 C 0.81732(17) 0.2637(3) 0.8907(2)
H22 H 0.8418 0.2922 0.9109
C35 C 0.80335(16) 0.2859(3) 0.83482(19)
H23 H 0.8182 0.3302 0.8168
Co12 Co 0.795107(18) 0.39365(3) 0.65666(2)
Co16 Co 0.70884(2) 0.24453(4) 0.62981(3)
Co1 Co 0.798060(17) 0.71863(3) 0.03516(2)
Co2 Co 0.795107(18) 0.60635(3) 0.15666(2)
Co3 Co 0.70884(2) 0.75547(4) 0.12981(3)
O1 O 0.83554(9) 0.61350(17) 0.02550(12)
O2 O 0.81482(10) 0.52597(17) 0.09462(12)
O6 O 0.83778(9) 0.78428(17) 0.09316(12)
O7 O 0.85230(11) 0.68366(19) 0.15687(14)
O8_2 O 1.0000 0.9433(3) 0.2500
O9 O 0.75595(9) 0.82299(17) 0.02397(11)
O10 O 0.73208(10) 0.87213(19) 0.10698(12)
O14 O 0.75527(9) 0.67601(17) 0.09884(11)
H1 H 0.7373 0.6421 0.0813
O15 O 0.67075(14) 0.6375(2) 0.14783(17)
H2 H 0.6510 0.6385 0.1738
H3 H 0.6959 0.6140 0.1589
C1 C 0.83598(13) 0.5446(2) 0.05009(17)
C2 C 0.86526(14) 0.4792(3) 0.02474(18)
C3 C 0.86021(14) 0.3983(3) 0.03974(18)
H4 H 0.8367 0.3831 0.0649
C4 C 0.88925(14) 0.3387(3) 0.0185(2)
H5 H 0.8855 0.2830 0.0286
H9 H 0.9826 0.3481 0.0662
C15 C 0.85821(14) 0.7537(3) 0.13698(18)
C16 C 0.89467(14) 0.8059(3) 0.16800(18)
C17 C 0.91043(15) 0.8777(3) 0.14379(19)
H12 H 0.8970 0.8955 0.1077
C18 C 0.94513(15) 0.9235(3) 0.1711(2)
H13 H 0.9559 0.9720 0.1538
C19 C 0.96406(15) 0.8976(3) 0.2241(2)
C20 C 0.94751(16) 0.8286(3) 0.2504(2)
H14 H 0.9598 0.8126 0.2875
C21 C 0.91269(14) 0.7825(3) 0.2221(2)
H15 H 0.9012 0.7349 0.2399
C22 C 0.75097(14) 0.8810(3) 0.05963(17)
C23 C 0.76855(14) 0.9622(3) 0.04150(16)
C28 C 0.80353(14) 0.9639(3) 0.00186(18)
O16 O 0.83483(11) 0.53830(19) 0.21912(13)
N1 N 0.86935(15) 0.4273(3) 0.25851(18)
C36 C 0.85419(16) 0.4728(3) 0.2138(2)
H24 H 0.8587 0.4532 0.1759
C37 C 0.8616(2) 0.4548(3) 0.3173(2)
H25 H 0.8612 0.5146 0.3184
H26 H 0.8866 0.4344 0.3437
H27 H 0.8317 0.4338 0.3293
C38 C 0.8872(2) 0.3444(4) 0.2495(3)
H28 H 0.8878 0.3335 0.2080
H29 H 0.8670 0.3046 0.2673
H30 H 0.9187 0.3400 0.2671
O17 O 0.73802(11) 0.5248(2) 0.17109(12)
N2 N 0.69605(14) 0.4638(3) 0.23955(17)
C39 C 0.73273(16) 0.5030(3) 0.22188(19)
H31 H 0.7569 0.5156 0.2499
C40 C 0.65768(17) 0.4405(3) 0.2003(2)
H32 H 0.6631 0.4610 0.1616
H33 H 0.6288 0.4637 0.2137
H34 H 0.6552 0.3808 0.1993
C41 C 0.6935(2) 0.4405(4) 0.3000(2)
H35 H 0.7206 0.4621 0.3222
H36 H 0.6931 0.3808 0.3031
H37 H 0.6651 0.4628 0.3153
O23 O 0.83378(10) 0.23888(17) 0.46226(12)
O24 O 0.85964(12) 0.2859(2) 0.38085(14)
C56 C 0.86694(16) 0.2662(3) 0.43334(19)
C57 C 0.91458(15) 0.2740(3) 0.4594(2)
C58 C 0.94970(16) 0.3115(3) 0.4290(2)
H49 H 0.9431 0.3298 0.3906
C59 C 0.99392(16) 0.3220(3) 0.4544(2)
C61 C 0.96948(15) 0.2548(3) 0.5401(2)
H51 H 0.9765 0.2341 0.5778
C62 C 0.92533(15) 0.2457(3) 0.5149(2)
H52 H 0.9020 0.2198 0.5358
Co8 Co 0.798060(17) 0.28137(3) 0.53516(2)
Co14 Co 0.79116(2) 0.25547(4) 0.37019(3)
O34 O 0.66622(10) 0.73888(17) 0.03774(12)
O38 O 0.64036(12) 0.7859(2) 0.11915(14)
O43 O 0.72708(11) 0.7779(2) 0.21380(13)
O45 O 0.77226(13) 0.6679(2) 0.22645(13)
O3 O 0.95339(11) 0.3023(2) 0.96141(16)
C5 C 0.92351(15) 0.3617(3) 0.9826(2)
C6 C 0.92878(19) 0.4418(3) 0.9659(3)
H6 H 0.9522 0.4567 0.9405
C7 C 0.89912(18) 0.5006(3) 0.9870(3)
H7 H 0.9021 0.5559 0.9755
C12 C 0.99635(15) 0.2943(3) 0.9900(2)
H19 H 0.8176 0.9145 0.9901
Co9 Co 0.701940(17) 0.78137(3) 0.96484(2)
O36 O 0.83378(10) 0.76112(17) 0.96226(12)
O40 O 0.74405(9) 0.67701(17) 0.97603(11)
Co1_2 Co 0.298060(17) 0.21863(3) 0.03516(2)
Co2_2 Co 0.295107(18) 0.10635(3) 0.15666(2)
O1_2 O 0.33554(9) 0.11350(17) 0.02550(12)
O2_2 O 0.31482(10) 0.02597(17) 0.09462(12)
O6_2 O 0.33778(9) 0.28428(17) 0.09316(12)
O7_2 O 0.35230(11) 0.18366(19) 0.15687(14)
O8_3 O 0.5000 0.4433(3) 0.2500
O9_2 O 0.25595(9) 0.32299(17) 0.02397(11)
O10_2 O 0.23208(10) 0.37213(19) 0.10698(12)
O14_2 O 0.25527(9) 0.17601(17) 0.09884(11)
H1_2 H 0.2373 0.1421 0.0813
O15_2 O 0.17075(14) 0.1375(2) 0.14783(17)
H2_2 H 0.1510 0.1385 0.1738
H3_2 H 0.1959 0.1140 0.1589
C1_2 C 0.33598(13) 0.0446(2) 0.05009(17)
C15_2 C 0.35821(14) 0.2537(3) 0.13698(18)
C16_2 C 0.39467(14) 0.3059(3) 0.16800(18)
C17_2 C 0.41043(15) 0.3777(3) 0.14379(19)
H12_2 H 0.3970 0.3955 0.1077
C18_2 C 0.44513(15) 0.4235(3) 0.1711(2)
H13_2 H 0.4559 0.4720 0.1538
C19_2 C 0.46406(15) 0.3976(3) 0.2241(2)
C20_2 C 0.44751(16) 0.3286(3) 0.2504(2)
H14_2 H 0.4598 0.3126 0.2875
C21_2 C 0.41269(14) 0.2825(3) 0.2221(2)
H15_2 H 0.4012 0.2349 0.2399
C22_2 C 0.25097(14) 0.3810(3) 0.05963(17)
C23_2 C 0.26855(14) 0.4622(3) 0.04150(16)
C24 C 0.24913(16) 0.5347(3) 0.05997(19)
H16 H 0.2264 0.5336 0.0882
C25 C 0.26278(18) 0.6088(3) 0.0373(2)
H17 H 0.2494 0.6585 0.0495
C28_2 C 0.30353(14) 0.4639(3) 0.00186(18)
O16_2 O 0.33483(11) 0.03830(19) 0.21912(13)
H25_2 H 0.3612 0.0146 0.3184
O17_2 O 0.23802(11) 0.0248(2) 0.17109(12)
C39_2 C 0.23273(16) 0.0030(3) 0.22188(19)
H31_2 H 0.2569 0.0156 0.2499
O18_2 O 0.66222(9) 0.28428(17) 0.40684(12)
O19_2 O 0.64770(11) 0.18366(19) 0.34313(14)
C42_2 C 0.64179(14) 0.2537(3) 0.36302(18)
C43_2 C 0.60533(14) 0.3059(3) 0.33200(18)
C44_2 C 0.58957(15) 0.3777(3) 0.35621(19)
H38_2 H 0.6030 0.3955 0.3923
C45_2 C 0.55487(15) 0.4235(3) 0.3289(2)
H39_2 H 0.5441 0.4720 0.3462
C46_2 C 0.53594(15) 0.3976(3) 0.2759(2)
C47_2 C 0.55249(16) 0.3286(3) 0.2496(2)
H40_2 H 0.5402 0.3126 0.2125
C48_2 C 0.58731(14) 0.2825(3) 0.2779(2)
H41_2 H 0.5988 0.2349 0.2601
Co4_2 Co 0.701940(17) 0.21863(3) 0.46484(2)
Co5_2 Co 0.704893(18) 0.10635(3) 0.34334(2)
O20_2 O 0.66446(9) 0.11350(17) 0.47450(12)
O21_2 O 0.68518(10) 0.02597(17) 0.40538(12)
O25_2 O 0.74405(9) 0.32299(17) 0.47603(11)
O26_2 O 0.76792(10) 0.37213(19) 0.39302(12)
O27_2 O 0.68945(13) 0.6834(2) 0.52635(14)
O28_2 O 0.77292(11) 0.7221(2) 0.78620(13)
O29_2 O 0.72774(13) 0.8321(2) 0.77355(13)
O30_2 O 0.74473(9) 0.17601(17) 0.40116(11)
H42_2 H 0.7627 0.1421 0.4187
O31_2 O 0.82925(14) 0.1375(2) 0.35217(17)
H43_2 H 0.8490 0.1385 0.3262
H44_2 H 0.8041 0.1140 0.3411
C49_2 C 0.66402(13) 0.0446(2) 0.44991(17)
C55_2 C 0.60088(18) 0.0006(3) 0.5130(3)
H48_2 H 0.5979 0.0559 0.5245
C63_2 C 0.74903(14) 0.3810(3) 0.44037(17)
C64_2 C 0.73145(14) 0.4622(3) 0.45850(16)
C65_2 C 0.75087(16) 0.5347(3) 0.44003(19)
H53_2 H 0.7736 0.5336 0.4118
C66_2 C 0.73722(18) 0.6088(3) 0.4627(2)
H54_2 H 0.7506 0.6585 0.4505
C67_2 C 0.70358(16) 0.6088(3) 0.50341(19)
C68_2 C 0.68242(16) 0.5380(3) 0.5202(2)
H55_2 H 0.6584 0.5398 0.5467
C69_2 C 0.69647(14) 0.4639(3) 0.49814(18)
H56_2 H 0.6824 0.4145 0.5099
C70_2 C 0.74569(15) 0.7678(3) 0.75641(18)
C71_2 C 0.73242(15) 0.7436(3) 0.69516(18)
C72_2 C 0.75389(15) 0.6796(3) 0.66801(18)
H57_2 H 0.7784 0.6510 0.6880
C73_2 C 0.74019(15) 0.6564(3) 0.61209(19)
H58_2 H 0.7549 0.6119 0.5941
C74_2 C 0.70483(16) 0.6992(3) 0.58310(18)
C75_2 C 0.68268(17) 0.7637(3) 0.6093(2)
H59_2 H 0.6582 0.7922 0.5891
C76_2 C 0.69665(16) 0.7859(3) 0.66518(19)
H60_2 H 0.6818 0.8302 0.6832
O32_2 O 0.66517(11) 0.03830(19) 0.28088(13)
H62_2 H 0.6388 0.0146 0.1816
O33_2 O 0.76198(11) 0.0248(2) 0.32891(12)
C80_2 C 0.76727(16) 0.0030(3) 0.27812(19)
H68_2 H 0.7431 0.0156 0.2501
Co11_2 Co 0.704893(18) 0.89365(3) 0.84334(2)
Co15_2 Co 0.79116(2) 0.74453(4) 0.87019(3)
O37_2 O 0.66622(10) 0.26112(17) 0.53774(12)
O41_2 O 0.75595(9) 0.17701(17) 0.52397(11)
O42_2 O 0.77292(11) 0.2779(2) 0.28620(13)
O43_2 O 0.22708(11) 0.2779(2) 0.21380(13)
O44_2 O 0.72774(13) 0.1679(2) 0.27355(13)
O45_2 O 0.27226(13) 0.1679(2) 0.22645(13)
O11_2 O 0.31055(13) 0.6834(2) 0.97365(14)
O12_2 O 0.22708(11) 0.7221(2) 0.71380(13)
O13_2 O 0.27226(13) 0.8321(2) 0.72645(13)
C7_2 C 0.39912(18) 0.0006(3) 0.9870(3)
H7_2 H 0.4021 0.0559 0.9755
C26_2 C 0.29642(16) 0.6088(3) 0.99659(19)
C27_2 C 0.31758(16) 0.5380(3) 0.9798(2)
H18_2 H 0.3416 0.5398 0.9533
H19_2 H 0.3176 0.4145 0.9901
C29_2 C 0.25431(15) 0.7678(3) 0.74359(18)
C30_2 C 0.26758(15) 0.7436(3) 0.80484(18)
C31_2 C 0.24611(15) 0.6796(3) 0.83199(18)
H20_2 H 0.2216 0.6510 0.8120
C32_2 C 0.25981(15) 0.6564(3) 0.88791(19)
H21_2 H 0.2451 0.6119 0.9059
C33_2 C 0.29517(16) 0.6992(3) 0.91690(18)
C34_2 C 0.31732(17) 0.7637(3) 0.8907(2)
H22_2 H 0.3418 0.7922 0.9109
C35_2 C 0.30335(16) 0.7859(3) 0.83482(19)
H23_2 H 0.3182 0.8302 0.8168
Co12_2 Co 0.295107(18) 0.89365(3) 0.65666(2)
Co16_2 Co 0.20884(2) 0.74453(4) 0.62981(3)
O36_2 O 0.33378(10) 0.26112(17) 0.96226(12)
O40_2 O 0.24405(9) 0.17701(17) 0.97603(11)
C2_2 C 0.36526(14) 0.9792(3) 0.02474(18)
C3_2 C 0.36021(14) 0.8983(3) 0.03974(18)
H4_2 H 0.3367 0.8831 0.0649
C4_2 C 0.38925(14) 0.8387(3) 0.0185(2)
H5_2 H 0.3855 0.7830 0.0286
C8_2 C 0.63306(16) 0.7662(3) 0.06666(19)
C9_2 C 0.58542(15) 0.7740(3) 0.0406(2)
C10_2 C 0.55030(16) 0.8115(3) 0.0710(2)
H8_2 H 0.5569 0.8298 0.1094
C11_2 C 0.50608(16) 0.8220(3) 0.0456(2)
H9_2 H 0.4826 0.8481 0.0662
N1_2 N 0.36935(15) 0.9273(3) 0.25851(18)
C36_2 C 0.35419(16) 0.9728(3) 0.2138(2)
H24_2 H 0.3587 0.9532 0.1759
C37_2 C 0.3616(2) 0.9548(3) 0.3173(2)
H26_2 H 0.3866 0.9344 0.3437
H27_2 H 0.3317 0.9338 0.3293
C38_2 C 0.3872(2) 0.8444(4) 0.2495(3)
H28_2 H 0.3878 0.8335 0.2080
H29_2 H 0.3670 0.8046 0.2673
H30_2 H 0.4187 0.8400 0.2671
N2_2 N 0.19605(14) 0.9638(3) 0.23955(17)
C40_2 C 0.15768(17) 0.9405(3) 0.2003(2)
H32_2 H 0.1631 0.9610 0.1616
H33_2 H 0.1288 0.9637 0.2137
H34_2 H 0.1552 0.8808 0.1993
C41_2 C 0.1935(2) 0.9405(4) 0.3000(2)
H35_2 H 0.2206 0.9621 0.3222
H36_2 H 0.1931 0.8808 0.3031
H37_2 H 0.1651 0.9628 0.3153
O22_2 O 0.54661(11) 0.8023(2) 0.53859(16)
C50_2 C 0.63474(14) 0.9792(3) 0.47526(18)
C51_2 C 0.63979(14) 0.8983(3) 0.46026(18)
H45_2 H 0.6633 0.8831 0.4351
C52_2 C 0.61075(14) 0.8387(3) 0.4815(2)
H46_2 H 0.6145 0.7830 0.4714
C53_2 C 0.57649(15) 0.8617(3) 0.5174(2)
C54_2 C 0.57122(19) 0.9418(3) 0.5341(3)
H47_2 H 0.5478 0.9567 0.5595
C56_2 C 0.36694(16) 0.7662(3) 0.43334(19)
C57_2 C 0.41458(15) 0.7740(3) 0.4594(2)
C58_2 C 0.44970(16) 0.8115(3) 0.4290(2)
H49_2 H 0.4431 0.8298 0.3906
C59_2 C 0.49392(16) 0.8220(3) 0.4544(2)
H50_2 H 0.5174 0.8481 0.4338
C60_2 C 0.50365(15) 0.7943(3) 0.5100(2)
C61_2 C 0.46948(15) 0.7548(3) 0.5401(2)
H51_2 H 0.4765 0.7341 0.5778
C62_2 C 0.42533(15) 0.7457(3) 0.5149(2)
H52_2 H 0.4020 0.7198 0.5358
N3_2 N 0.63065(15) 0.9273(3) 0.24149(18)
C77_2 C 0.64581(16) 0.9728(3) 0.2862(2)
H61_2 H 0.6413 0.9532 0.3241
C78_2 C 0.6384(2) 0.9548(3) 0.1827(2)
H63_2 H 0.6134 0.9344 0.1563
H64_2 H 0.6683 0.9338 0.1707
C79_2 C 0.6128(2) 0.8444(4) 0.2505(3)
H65_2 H 0.6122 0.8335 0.2920
H66_2 H 0.6330 0.8046 0.2327
H67_2 H 0.5813 0.8400 0.2329
N4_2 N 0.80395(14) 0.9638(3) 0.26045(17)
C81_2 C 0.84232(17) 0.9405(3) 0.2997(2)
H69_2 H 0.8369 0.9610 0.3384
H70_2 H 0.8712 0.9637 0.2863
H71_2 H 0.8448 0.8808 0.3007
C82_2 C 0.8065(2) 0.9405(4) 0.2000(2)
H72_2 H 0.7794 0.9621 0.1778
H73_2 H 0.8069 0.8808 0.1969
H74_2 H 0.8349 0.9628 0.1847
O3_2 O 0.45339(11) 0.8023(2) 0.96141(16)
C5_2 C 0.42351(15) 0.8617(3) 0.9826(2)
C6_2 C 0.42878(19) 0.9418(3) 0.9659(3)
H6_2 H 0.4522 0.9567 0.9405
C12_2 C 0.49635(15) 0.7943(3) 0.9900(2)
C13_2 C 0.53052(15) 0.7548(3) 0.9599(2)
H10_2 H 0.5235 0.7341 0.9222
C14_2 C 0.57467(15) 0.7457(3) 0.9851(2)
H11_2 H 0.5980 0.7198 0.9642
O3_3 O 0.04661(11) 0.6977(2) 0.03859(16)
C5_3 C 0.07649(15) 0.6383(3) 0.0174(2)
C6_3 C 0.07122(19) 0.5582(3) 0.0341(3)
H6_3 H 0.0478 0.5433 0.0595
C7_3 C 0.10088(18) 0.4994(3) 0.0130(3)
H7_3 H 0.0979 0.4441 0.0245
C12_3 C 0.00365(15) 0.7057(3) 0.0100(2)
H19_3 H 0.1824 0.0855 0.0099
O1_3 O 0.16446(9) 0.38650(17) 0.97450(12)
O2_3 O 0.18518(10) 0.47403(17) 0.90538(12)
O6_3 O 0.16222(9) 0.21572(17) 0.90684(12)
O7_3 O 0.14770(11) 0.31634(19) 0.84313(14)
O8_4 O -0.0000 0.0567(3) 0.7500
O10_3 O 0.26792(10) 0.12787(19) 0.89302(12)
O14_3 O 0.24473(9) 0.32399(17) 0.90116(11)
H1_3 H 0.2627 0.3579 0.9187
O15_3 O 0.32925(14) 0.3625(2) 0.85217(17)
H2_3 H 0.3490 0.3615 0.8262
H3_3 H 0.3041 0.3860 0.8411
C1_3 C 0.16402(13) 0.4554(2) 0.94991(17)
C2_3 C 0.13474(14) 0.5208(3) 0.97526(18)
C3_3 C 0.13979(14) 0.6017(3) 0.96026(18)
H4_3 H 0.1633 0.6169 0.9351
C4_3 C 0.11075(14) 0.6613(3) 0.9815(2)
H5_3 H 0.1145 0.7170 0.9714
H9_3 H 0.0174 0.6519 0.9338
C15_3 C 0.14179(14) 0.2463(3) 0.86302(18)
C16_3 C 0.10533(14) 0.1941(3) 0.83200(18)
C17_3 C 0.08957(15) 0.1223(3) 0.85621(19)
H12_3 H 0.1030 0.1045 0.8923
C18_3 C 0.05487(15) 0.0765(3) 0.8289(2)
H13_3 H 0.0441 0.0280 0.8462
C19_3 C 0.03594(15) 0.1024(3) 0.7759(2)
C20_3 C 0.05249(16) 0.1714(3) 0.7496(2)
H14_3 H 0.0402 0.1874 0.7125
C21_3 C 0.08731(14) 0.2175(3) 0.7779(2)
H15_3 H 0.0988 0.2651 0.7601
C22_3 C 0.24903(14) 0.1190(3) 0.94037(17)
C23_3 C 0.23145(14) 0.0378(3) 0.95850(16)
C28_3 C 0.19647(14) 0.0361(3) 0.99814(18)
O16_3 O 0.16517(11) 0.46170(19) 0.78088(13)
N1_3 N 0.13065(15) 0.5727(3) 0.74149(18)
C36_3 C 0.14581(16) 0.5272(3) 0.7862(2)
H24_3 H 0.1413 0.5468 0.8241
C37_3 C 0.1384(2) 0.5452(3) 0.6827(2)
H25_3 H 0.1388 0.4854 0.6816
H26_3 H 0.1134 0.5656 0.6563
H27_3 H 0.1683 0.5662 0.6707
C38_3 C 0.1128(2) 0.6556(4) 0.7505(3)
H28_3 H 0.1122 0.6665 0.7920
H29_3 H 0.1330 0.6954 0.7327
H30_3 H 0.0813 0.6600 0.7329
O17_3 O 0.26198(11) 0.4752(2) 0.82891(12)
N2_3 N 0.30395(14) 0.5362(3) 0.76045(17)
C39_3 C 0.26727(16) 0.4970(3) 0.77812(19)
H31_3 H 0.2431 0.4844 0.7501
C40_3 C 0.34232(17) 0.5595(3) 0.7997(2)
H32_3 H 0.3369 0.5390 0.8384
H33_3 H 0.3712 0.5363 0.7863
H34_3 H 0.3448 0.6192 0.8007
C41_3 C 0.3065(2) 0.5595(4) 0.7000(2)
H35_3 H 0.2794 0.5379 0.6778
H36_3 H 0.3069 0.6192 0.6969
H37_3 H 0.3349 0.5372 0.6847
O24_2 O 0.14036(12) 0.7141(2) 0.61915(14)
C56_3 C 0.13306(16) 0.7338(3) 0.56666(19)
C57_3 C 0.08542(15) 0.7260(3) 0.5406(2)
C58_3 C 0.05030(16) 0.6885(3) 0.5710(2)
H49_3 H 0.0569 0.6702 0.6094
C59_3 C 0.00608(16) 0.6780(3) 0.5456(2)
C61_3 C 0.03052(15) 0.7452(3) 0.4599(2)
H51_3 H 0.0235 0.7659 0.4222
C62_3 C 0.07467(15) 0.7543(3) 0.4851(2)
H52_3 H 0.0980 0.7802 0.4642
O38_2 O 0.35964(12) 0.2141(2) 0.88085(14)
O11_3 O 0.18945(13) 0.8166(2) 0.02635(14)
C26_3 C 0.20358(16) 0.8912(3) 0.00341(19)
C27_3 C 0.18242(16) 0.9620(3) 0.0202(2)
H18_3 H 0.1584 0.9602 0.0467
C29_3 C 0.24569(15) 0.7322(3) 0.25641(18)
C30_3 C 0.23242(15) 0.7564(3) 0.19516(18)
C31_3 C 0.25389(15) 0.8204(3) 0.16801(18)
H20_3 H 0.2784 0.8490 0.1880
C32_3 C 0.24019(15) 0.8436(3) 0.11209(19)
H21_3 H 0.2549 0.8881 0.0941
C33_3 C 0.20483(16) 0.8008(3) 0.08310(18)
C34_3 C 0.18268(17) 0.7363(3) 0.1093(2)
H22_3 H 0.1582 0.7078 0.0891
C35_3 C 0.19665(16) 0.7141(3) 0.16518(19)
H23_3 H 0.1818 0.6698 0.1832
C13_3 C 0.96948(15) 0.7452(3) 0.0401(2)
H10_3 H 0.9765 0.7659 0.0778
C14_3 C 0.92533(15) 0.7543(3) 0.0149(2)
H11_3 H 0.9020 0.7802 0.0358
O5_2 O 0.85964(12) 0.7141(2) 0.88085(14)
O8_5 O 1.0000 0.0567(3) 0.7500
C8_3 C 0.86694(16) 0.7338(3) 0.93334(19)
C9_3 C 0.91458(15) 0.7260(3) 0.9594(2)
C10_3 C 0.94970(16) 0.6885(3) 0.9290(2)
H8_3 H 0.9431 0.6702 0.8906
C11_3 C 0.99392(16) 0.6780(3) 0.9544(2)
O18_3 O 0.83778(9) 0.21572(17) 0.59316(12)
O19_3 O 0.85230(11) 0.31634(19) 0.65687(14)
C42_3 C 0.85821(14) 0.2463(3) 0.63698(18)
C43_3 C 0.89467(14) 0.1941(3) 0.66800(18)
C44_3 C 0.91043(15) 0.1223(3) 0.64379(19)
H38_3 H 0.8970 0.1045 0.6077
C45_3 C 0.94513(15) 0.0765(3) 0.6711(2)
H39_3 H 0.9559 0.0280 0.6538
C46_3 C 0.96406(15) 0.1024(3) 0.7241(2)
C47_3 C 0.94751(16) 0.1714(3) 0.7504(2)
H40_3 H 0.9598 0.1874 0.7875
C48_3 C 0.91269(14) 0.2175(3) 0.7221(2)
H41_3 H 0.9012 0.2651 0.7399
O20_3 O 0.83554(9) 0.38650(17) 0.52550(12)
O21_3 O 0.81482(10) 0.47403(17) 0.59462(12)
O22_3 O 0.95339(11) 0.6977(2) 0.46141(16)
O26_3 O 0.73208(10) 0.12787(19) 0.60698(12)
O30_3 O 0.75527(9) 0.32399(17) 0.59884(11)
H42_3 H 0.7373 0.3579 0.5813
O31_3 O 0.67075(14) 0.3625(2) 0.64783(17)
H43_3 H 0.6510 0.3615 0.6738
H44_3 H 0.6959 0.3860 0.6589
C49_3 C 0.83598(13) 0.4554(2) 0.55009(17)
C50_3 C 0.86526(14) 0.5208(3) 0.52474(18)
C51_3 C 0.86021(14) 0.6017(3) 0.53974(18)
H45_3 H 0.8367 0.6169 0.5649
C52_3 C 0.88925(14) 0.6613(3) 0.5185(2)
H46_3 H 0.8855 0.7170 0.5286
C53_3 C 0.92351(15) 0.6383(3) 0.4826(2)
C54_3 C 0.92878(19) 0.5582(3) 0.4659(3)
H47_3 H 0.9522 0.5433 0.4405
C55_3 C 0.89912(18) 0.4994(3) 0.4870(3)
H48_3 H 0.9021 0.4441 0.4755
H50_3 H 0.9826 0.6519 0.5662
C60_3 C 0.99635(15) 0.7057(3) 0.4900(2)
C63_3 C 0.75097(14) 0.1190(3) 0.55963(17)
C64_3 C 0.76855(14) 0.0378(3) 0.54150(16)
C69_3 C 0.80353(14) 0.0361(3) 0.50186(18)
H56_3 H 0.8176 0.0855 0.4901
O32_3 O 0.83483(11) 0.46170(19) 0.71912(13)
N3_3 N 0.86935(15) 0.5727(3) 0.75851(18)
C77_3 C 0.85419(16) 0.5272(3) 0.7138(2)
H61_3 H 0.8587 0.5468 0.6759
C78_3 C 0.8616(2) 0.5452(3) 0.8173(2)
H62_3 H 0.8612 0.4854 0.8184
H63_3 H 0.8866 0.5656 0.8437
H64_3 H 0.8317 0.5662 0.8293
C79_3 C 0.8872(2) 0.6556(4) 0.7495(3)
H65_3 H 0.8878 0.6665 0.7080
H66_3 H 0.8670 0.6954 0.7673
H67_3 H 0.9187 0.6600 0.7671
O33_3 O 0.73802(11) 0.4752(2) 0.67109(12)
N4_3 N 0.69605(14) 0.5362(3) 0.73955(17)
C80_3 C 0.73273(16) 0.4970(3) 0.72188(19)
H68_3 H 0.7569 0.4844 0.7499
C81_3 C 0.65768(17) 0.5595(3) 0.7003(2)
H69_3 H 0.6631 0.5390 0.6616
H70_3 H 0.6288 0.5363 0.7137
H71_3 H 0.6552 0.6192 0.6993
C82_3 C 0.6935(2) 0.5595(4) 0.8000(2)
H72_3 H 0.7206 0.5379 0.8222
H73_3 H 0.6931 0.6192 0.8031
H74_3 H 0.6651 0.5372 0.8153
O39_2 O 0.64036(12) 0.2141(2) 0.61915(14)
O27_3 O 0.81055(13) 0.8166(2) 0.47365(14)
C65_3 C 0.74913(16) 0.9653(3) 0.55997(19)
H53_3 H 0.7264 0.9664 0.5882
C66_3 C 0.76278(18) 0.8912(3) 0.5373(2)
H54_3 H 0.7494 0.8415 0.5495
C67_3 C 0.79642(16) 0.8912(3) 0.49659(19)
C68_3 C 0.81758(16) 0.9620(3) 0.4798(2)
H55_3 H 0.8416 0.9602 0.4533
C70_3 C 0.75431(15) 0.7322(3) 0.24359(18)
C71_3 C 0.76758(15) 0.7564(3) 0.30484(18)
C72_3 C 0.74611(15) 0.8204(3) 0.33199(18)
H57_3 H 0.7216 0.8490 0.3120
C73_3 C 0.75981(15) 0.8436(3) 0.38791(19)
H58_3 H 0.7451 0.8881 0.4059
C74_3 C 0.79517(16) 0.8008(3) 0.41690(18)
C75_3 C 0.81732(17) 0.7363(3) 0.3907(2)
H59_3 H 0.8418 0.7078 0.4109
C76_3 C 0.80335(16) 0.7141(3) 0.33482(19)
H60_3 H 0.8182 0.6698 0.3168
O3_4 O 0.54661(11) 0.1977(2) 0.03859(16)
C5_4 C 0.57649(15) 0.1383(3) 0.0174(2)
C6_4 C 0.57122(19) 0.0582(3) 0.0341(3)
H6_4 H 0.5478 0.0433 0.0595
C12_4 C 0.50365(15) 0.2057(3) 0.0100(2)
C13_4 C 0.46948(15) 0.2452(3) 0.0401(2)
H10_4 H 0.4765 0.2659 0.0778
C14_4 C 0.42533(15) 0.2543(3) 0.0149(2)
H11_4 H 0.4020 0.2802 0.0358
C2_4 C 0.63474(14) 0.0208(3) 0.97526(18)
C3_4 C 0.63979(14) 0.1017(3) 0.96026(18)
H4_4 H 0.6633 0.1169 0.9351
C4_4 C 0.61075(14) 0.1613(3) 0.9815(2)
H5_4 H 0.6145 0.2170 0.9714
C8_4 C 0.36694(16) 0.2338(3) 0.93334(19)
C9_4 C 0.41458(15) 0.2260(3) 0.9594(2)
C10_4 C 0.44970(16) 0.1885(3) 0.9290(2)
H8_4 H 0.4431 0.1702 0.8906
C11_4 C 0.49392(16) 0.1780(3) 0.9544(2)
H9_4 H 0.5174 0.1519 0.9338
N1_4 N 0.63065(15) 0.0727(3) 0.74149(18)
C36_4 C 0.64581(16) 0.0272(3) 0.7862(2)
H24_4 H 0.6413 0.0468 0.8241
C37_4 C 0.6384(2) 0.0452(3) 0.6827(2)
H26_4 H 0.6134 0.0656 0.6563
H27_4 H 0.6683 0.0662 0.6707
C38_4 C 0.6128(2) 0.1556(4) 0.7505(3)
H28_4 H 0.6122 0.1665 0.7920
H29_4 H 0.6330 0.1954 0.7327
H30_4 H 0.5813 0.1600 0.7329
N2_4 N 0.80395(14) 0.0362(3) 0.76045(17)
C40_4 C 0.84232(17) 0.0595(3) 0.7997(2)
H32_4 H 0.8369 0.0390 0.8384
H33_4 H 0.8712 0.0363 0.7863
H34_4 H 0.8448 0.1192 0.8007
C41_4 C 0.8065(2) 0.0595(4) 0.7000(2)
H35_4 H 0.7794 0.0379 0.6778
H36_4 H 0.8069 0.1192 0.6969
H37_4 H 0.8349 0.0372 0.6847
O22_4 O 0.45339(11) 0.1977(2) 0.46141(16)
C50_4 C 0.36526(14) 0.0208(3) 0.52474(18)
C51_4 C 0.36021(14) 0.1017(3) 0.53974(18)
H45_4 H 0.3367 0.1169 0.5649
C52_4 C 0.38925(14) 0.1613(3) 0.5185(2)
H46_4 H 0.3855 0.2170 0.5286
C53_4 C 0.42351(15) 0.1383(3) 0.4826(2)
C54_4 C 0.42878(19) 0.0582(3) 0.4659(3)
H47_4 H 0.4522 0.0433 0.4405
C56_4 C 0.63306(16) 0.2338(3) 0.56666(19)
C57_4 C 0.58542(15) 0.2260(3) 0.5406(2)
C58_4 C 0.55030(16) 0.1885(3) 0.5710(2)
H49_4 H 0.5569 0.1702 0.6094
C59_4 C 0.50608(16) 0.1780(3) 0.5456(2)
H50_4 H 0.4826 0.1519 0.5662
C60_4 C 0.49635(15) 0.2057(3) 0.4900(2)
C61_4 C 0.53052(15) 0.2452(3) 0.4599(2)
H51_4 H 0.5235 0.2659 0.4222
C62_4 C 0.57467(15) 0.2543(3) 0.4851(2)
H52_4 H 0.5980 0.2802 0.4642
N3_4 N 0.36935(15) 0.0727(3) 0.75851(18)
C77_4 C 0.35419(16) 0.0272(3) 0.7138(2)
H61_4 H 0.3587 0.0468 0.6759
C78_4 C 0.3616(2) 0.0452(3) 0.8173(2)
H63_4 H 0.3866 0.0656 0.8437
H64_4 H 0.3317 0.0662 0.8293
C79_4 C 0.3872(2) 0.1556(4) 0.7495(3)
H65_4 H 0.3878 0.1665 0.7080
H66_4 H 0.3670 0.1954 0.7673
H67_4 H 0.4187 0.1600 0.7671
N4_4 N 0.19605(14) 0.0362(3) 0.73955(17)
C81_4 C 0.15768(17) 0.0595(3) 0.7003(2)
H69_4 H 0.1631 0.0390 0.6616
H70_4 H 0.1288 0.0363 0.7137
H71_4 H 0.1552 0.1192 0.6993
C82_4 C 0.1935(2) 0.0595(4) 0.8000(2)
H72_4 H 0.2206 0.0379 0.8222
H73_4 H 0.1931 0.1192 0.8031
H74_4 H 0.1651 0.0372 0.8153
O11_4 O 0.68945(13) 0.3166(2) 0.02635(14)
C7_4 C 0.60088(18) 0.9994(3) 0.0130(3)
H7_4 H 0.5979 0.9441 0.0245
C26_4 C 0.70358(16) 0.3912(3) 0.00341(19)
C27_4 C 0.68242(16) 0.4620(3) 0.0202(2)
H18_4 H 0.6584 0.4602 0.0467
H19_4 H 0.6824 0.5855 0.0099
C29_4 C 0.74569(15) 0.2322(3) 0.25641(18)
C30_4 C 0.73242(15) 0.2564(3) 0.19516(18)
C31_4 C 0.75389(15) 0.3204(3) 0.16801(18)
H20_4 H 0.7784 0.3490 0.1880
C32_4 C 0.74019(15) 0.3436(3) 0.11209(19)
H21_4 H 0.7549 0.3881 0.0941
C33_4 C 0.70483(16) 0.3008(3) 0.08310(18)
C34_4 C 0.68268(17) 0.2363(3) 0.1093(2)
H22_4 H 0.6582 0.2078 0.0891
C35_4 C 0.69665(16) 0.2141(3) 0.16518(19)
H23_4 H 0.6818 0.1698 0.1832
O1_4 O 0.66446(9) 0.88650(17) 0.97450(12)
O2_4 O 0.68518(10) 0.97403(17) 0.90538(12)
O6_4 O 0.66222(9) 0.71572(17) 0.90684(12)
O7_4 O 0.64770(11) 0.81634(19) 0.84313(14)
O8_6 O 0.5000 0.5567(3) 0.7500
O10_4 O 0.76792(10) 0.62787(19) 0.89302(12)
O14_4 O 0.74473(9) 0.82399(17) 0.90116(11)
H1_4 H 0.7627 0.8579 0.9187
O15_4 O 0.82925(14) 0.8625(2) 0.85217(17)
H2_4 H 0.8490 0.8615 0.8262
H3_4 H 0.8041 0.8860 0.8411
C1_4 C 0.66402(13) 0.9554(2) 0.94991(17)
C15_4 C 0.64179(14) 0.7463(3) 0.86302(18)
C16_4 C 0.60533(14) 0.6941(3) 0.83200(18)
C17_4 C 0.58957(15) 0.6223(3) 0.85621(19)
H12_4 H 0.6030 0.6045 0.8923
C18_4 C 0.55487(15) 0.5765(3) 0.8289(2)
H13_4 H 0.5441 0.5280 0.8462
C19_4 C 0.53594(15) 0.6024(3) 0.7759(2)
C20_4 C 0.55249(16) 0.6714(3) 0.7496(2)
H14_4 H 0.5402 0.6874 0.7125
C21_4 C 0.58731(14) 0.7175(3) 0.7779(2)
H15_4 H 0.5988 0.7651 0.7601
C22_4 C 0.74903(14) 0.6190(3) 0.94037(17)
C23_4 C 0.73145(14) 0.5378(3) 0.95850(16)
C24_2 C 0.75087(16) 0.4653(3) 0.94003(19)
H16_2 H 0.7736 0.4664 0.9118
C25_2 C 0.73722(18) 0.3912(3) 0.9627(2)
H17_2 H 0.7506 0.3415 0.9505
C28_4 C 0.69647(14) 0.5361(3) 0.99814(18)
O16_4 O 0.66517(11) 0.96170(19) 0.78088(13)
H25_4 H 0.6388 0.9854 0.6816
O17_4 O 0.76198(11) 0.9752(2) 0.82891(12)
C39_4 C 0.76727(16) 0.9970(3) 0.77812(19)
H31_4 H 0.7431 0.9844 0.7501
O18_4 O 0.33778(9) 0.71572(17) 0.59316(12)
O19_4 O 0.35230(11) 0.81634(19) 0.65687(14)
C42_4 C 0.35821(14) 0.7463(3) 0.63698(18)
C43_4 C 0.39467(14) 0.6941(3) 0.66800(18)
C44_4 C 0.41043(15) 0.6223(3) 0.64379(19)
H38_4 H 0.3970 0.6045 0.6077
C45_4 C 0.44513(15) 0.5765(3) 0.6711(2)
H39_4 H 0.4559 0.5280 0.6538
C46_4 C 0.46406(15) 0.6024(3) 0.7241(2)
C47_4 C 0.44751(16) 0.6714(3) 0.7504(2)
H40_4 H 0.4598 0.6874 0.7875
C48_4 C 0.41269(14) 0.7175(3) 0.7221(2)
H41_4 H 0.4012 0.7651 0.7399
O20_4 O 0.33554(9) 0.88650(17) 0.52550(12)
O21_4 O 0.31482(10) 0.97403(17) 0.59462(12)
O26_4 O 0.23208(10) 0.62787(19) 0.60698(12)
O27_4 O 0.31055(13) 0.3166(2) 0.47365(14)
O30_4 O 0.25527(9) 0.82399(17) 0.59884(11)
H42_4 H 0.2373 0.8579 0.5813
O31_4 O 0.17075(14) 0.8625(2) 0.64783(17)
H43_4 H 0.1510 0.8615 0.6738
H44_4 H 0.1959 0.8860 0.6589
C49_4 C 0.33598(13) 0.9554(2) 0.55009(17)
C55_4 C 0.39912(18) 0.9994(3) 0.4870(3)
H48_4 H 0.4021 0.9441 0.4755
C63_4 C 0.25097(14) 0.6190(3) 0.55963(17)
C64_4 C 0.26855(14) 0.5378(3) 0.54150(16)
C65_4 C 0.24913(16) 0.4653(3) 0.55997(19)
H53_4 H 0.2264 0.4664 0.5882
C66_4 C 0.26278(18) 0.3912(3) 0.5373(2)
H54_4 H 0.2494 0.3415 0.5495
C67_4 C 0.29642(16) 0.3912(3) 0.49659(19)
C68_4 C 0.31758(16) 0.4620(3) 0.4798(2)
H55_4 H 0.3416 0.4602 0.4533
C69_4 C 0.30353(14) 0.5361(3) 0.50186(18)
H56_4 H 0.3176 0.5855 0.4901
C70_4 C 0.25431(15) 0.2322(3) 0.24359(18)
C71_4 C 0.26758(15) 0.2564(3) 0.30484(18)
C72_4 C 0.24611(15) 0.3204(3) 0.33199(18)
H57_4 H 0.2216 0.3490 0.3120
C73_4 C 0.25981(15) 0.3436(3) 0.38791(19)
H58_4 H 0.2451 0.3881 0.4059
C74_4 C 0.29517(16) 0.3008(3) 0.41690(18)
C75_4 C 0.31732(17) 0.2363(3) 0.3907(2)
H59_4 H 0.3418 0.2078 0.4109
C76_4 C 0.30335(16) 0.2141(3) 0.33482(19)
H60_4 H 0.3182 0.1698 0.3168
O32_4 O 0.33483(11) 0.96170(19) 0.71912(13)
H62_4 H 0.3612 0.9854 0.8184
O33_4 O 0.23802(11) 0.9752(2) 0.67109(12)
C80_4 C 0.23273(16) 0.9970(3) 0.72188(19)
H68_4 H 0.2569 0.9844 0.7499
C24_3 C 0.74913(16) 0.0347(3) 0.05997(19)
H16_3 H 0.7264 0.0336 0.0882
C25_3 C 0.76278(18) 0.1088(3) 0.0373(2)
H17_3 H 0.7494 0.1585 0.0495
C24_4 C 0.25087(16) 0.9653(3) 0.94003(19)
H16_4 H 0.2736 0.9664 0.9118
C25_4 C 0.23722(18) 0.8912(3) 0.9627(2)
H17_4 H 0.2506 0.8415 0.9505
loop_
_geom_bond_atom_site_label_1
_geom_bond_atom_site_label_2
_geom_bond_site_symmetry_1
_geom_bond_site_symmetry_2
O27 C67 1_555 1_555
O28 C70 1_555 1_555
O29 C70 1_555 1_555
H53 C65 1_555 1_555
C66 C65 1_555 1_555
H54 C66 1_555 1_555
C67 C66 1_555 1_555
C68 C67 1_555 1_555
H55 C68 1_555 1_555
C70 C71 1_555 1_555
C71 C72 1_555 1_555
C72 H57 1_555 1_555
C73 C72 1_555 1_555
H58 C73 1_555 1_555
C74 O27 1_555 1_555
C75 C74 1_555 1_555
H59 C75 1_555 1_555
C76 C71 1_555 1_555
H60 C76 1_555 1_555
Co11 O29 1_555 1_555
Co15 O28 1_555 1_555
C73 C74 1_555 1_555
C75 C76 1_555 1_555
O4 C8 1_555 1_555
O5 C8 1_555 1_555
C8 C9 1_555 1_555
C9 C10 1_555 1_555
C10 H8 1_555 1_555
C11 C10 1_555 1_555
O18 C42 1_555 1_555
O19 C42 1_555 1_555
C42 C43 1_555 1_555
C43 C44 1_555 1_555
C44 H38 1_555 1_555
C45 C44 1_555 1_555
H39 C45 1_555 1_555
C46 O8 1_555 1_555
C47 C46 1_555 1_555
H40 C47 1_555 1_555
C48 C43 1_555 1_555
H41 C48 1_555 1_555
Co4 O18 1_555 1_555
Co5 O19 1_555 1_555
Co6 O26 1_555 1_555
O20 Co4 1_555 1_555
O21 Co5 1_555 1_555
O22 C53 1_555 1_555
O25 Co4 1_555 1_555
O26 C63 1_555 1_555
O30 Co4 1_555 1_555
H42 O30 1_555 1_555
O31 Co6 1_555 1_555
H43 O31 1_555 1_555
H44 O31 1_555 1_555
C49 O20 1_555 1_555
C50 C49 1_555 1_555
C51 C50 1_555 1_555
H45 C51 1_555 1_555
C52 C51 1_555 1_555
H46 C52 1_555 1_555
C53 C52 1_555 1_555
C54 C53 1_555 1_555
H47 C54 1_555 1_555
C55 C50 1_555 1_555
H48 C55 1_555 1_555
C60 O22 1_555 1_555
C63 O25 1_555 1_555
C64 C63 1_555 1_555
C69 C64 1_555 1_555
H56 C69 1_555 1_555
O32 Co5 1_555 1_555
N3 C77 1_555 1_555
C77 O32 1_555 1_555
H61 C77 1_555 1_555
C78 N3 1_555 1_555
H62 C78 1_555 1_555
H63 C78 1_555 1_555
H64 C78 1_555 1_555
C79 N3 1_555 1_555
H65 C79 1_555 1_555
H66 C79 1_555 1_555
H67 C79 1_555 1_555
O33 Co5 1_555 1_555
N4 C80 1_555 1_555
C80 O33 1_555 1_555
H68 C80 1_555 1_555
C81 N4 1_555 1_555
H69 C81 1_555 1_555
H70 C81 1_555 1_555
H71 C81 1_555 1_555
C82 N4 1_555 1_555
H72 C82 1_555 1_555
H73 C82 1_555 1_555
H74 C82 1_555 1_555
Co10 O25 1_555 1_555
Co13 O4 1_555 1_555
O35 Co6 1_555 1_555
O37 Co4 1_555 1_555
O39 Co6 1_555 1_555
O41 Co4 1_555 1_555
O42 Co6 1_555 1_555
O44 Co5 1_555 1_555
O5 Co13 1_555 1_555
C45 C46 1_555 1_555
C47 C48 1_555 1_555
Co5 O30 1_555 1_555
Co6 O30 1_555 1_555
O21 C49 1_555 1_555
C54 C55 1_555 1_555
Co10 O35 1_555 1_555
Co10 O41 1_555 1_555
H10 C13 1_555 1_555
H11 C14 1_555 1_555
C13 C14 1_555 1_555
O11 C26 1_555 1_555
O12 C29 1_555 1_555
O13 C29 1_555 1_555
C27 C26 1_555 1_555
H18 C27 1_555 1_555
C29 C30 1_555 1_555
C30 C31 1_555 1_555
C31 H20 1_555 1_555
C32 C31 1_555 1_555
H21 C32 1_555 1_555
C33 O11 1_555 1_555
C34 C33 1_555 1_555
H22 C34 1_555 1_555
C35 C30 1_555 1_555
H23 C35 1_555 1_555
Co12 O13 1_555 1_555
Co16 O12 1_555 1_555
C32 C33 1_555 1_555
C34 C35 1_555 1_555
Co1 O1 1_555 1_555
Co2 O2 1_555 1_555
Co3 O10 1_555 1_555
O1 C1 1_555 1_555
O2 C1 1_555 1_555
O6 Co1 1_555 1_555
O7 Co2 1_555 1_555
O8_2 C19 1_555 1_555
O9 Co1 1_555 1_555
O10 C22 1_555 1_555
O14 Co1 1_555 1_555
H1 O14 1_555 1_555
O15 Co3 1_555 1_555
H2 O15 1_555 1_555
H3 O15 1_555 1_555
C1 C2 1_555 1_555
C2 C3 1_555 1_555
C3 H4 1_555 1_555
C4 C3 1_555 1_555
H5 C4 1_555 1_555
C15 O6 1_555 1_555
C16 C15 1_555 1_555
C17 C16 1_555 1_555
H12 C17 1_555 1_555
C18 C17 1_555 1_555
H13 C18 1_555 1_555
C19 C18 1_555 1_555
C20 C19 1_555 1_555
H14 C20 1_555 1_555
C21 C16 1_555 1_555
H15 C21 1_555 1_555
C22 O9 1_555 1_555
C23 C22 1_555 1_555
C28 C23 1_555 1_555
O16 Co2 1_555 1_555
N1 C36 1_555 1_555
C36 O16 1_555 1_555
H24 C36 1_555 1_555
C37 N1 1_555 1_555
H25 C37 1_555 1_555
H26 C37 1_555 1_555
H27 C37 1_555 1_555
C38 N1 1_555 1_555
H28 C38 1_555 1_555
H29 C38 1_555 1_555
H30 C38 1_555 1_555
O17 Co2 1_555 1_555
N2 C39 1_555 1_555
C39 O17 1_555 1_555
H31 C39 1_555 1_555
C40 N2 1_555 1_555
H32 C40 1_555 1_555
H33 C40 1_555 1_555
H34 C40 1_555 1_555
C41 N2 1_555 1_555
H35 C41 1_555 1_555
H36 C41 1_555 1_555
H37 C41 1_555 1_555
O23 C56 1_555 1_555
O24 C56 1_555 1_555
C56 C57 1_555 1_555
C57 C58 1_555 1_555
C58 H49 1_555 1_555
C59 C58 1_555 1_555
H51 C61 1_555 1_555
C62 C57 1_555 1_555
H52 C62 1_555 1_555
Co8 O23 1_555 1_555
Co14 O23 1_555 1_555
O34 Co3 1_555 1_555
O38 Co3 1_555 1_555
O43 Co3 1_555 1_555
O45 Co2 1_555 1_555
Co2 O14 1_555 1_555
Co3 O14 1_555 1_555
O7 C15 1_555 1_555
C20 C21 1_555 1_555
O24 Co14 1_555 1_555
C61 C62 1_555 1_555
O3 C5 1_555 1_555
C6 C5 1_555 1_555
H6 C6 1_555 1_555
H7 C7 1_555 1_555
C12 O3 1_555 1_555
C6 C7 1_555 1_555
Co9 O40 1_555 1_555
Co1_2 O1_2 1_555 1_555
Co2_2 O2_2 1_555 1_555
Co13 O10_2 1_555 1_555
O1_2 C1_2 1_555 1_555
O2_2 C1_2 1_555 1_555
O6_2 Co1_2 1_555 1_555
O7_2 Co2_2 1_555 1_555
O8_3 C19_2 1_555 1_555
O9_2 Co1_2 1_555 1_555
O10_2 C22_2 1_555 1_555
O14_2 Co1_2 1_555 1_555
H1_2 O14_2 1_555 1_555
O15_2 Co13 1_555 1_555
H2_2 O15_2 1_555 1_555
H3_2 O15_2 1_555 1_555
C15_2 O6_2 1_555 1_555
C16_2 C15_2 1_555 1_555
C17_2 C16_2 1_555 1_555
H12_2 C17_2 1_555 1_555
C18_2 C17_2 1_555 1_555
H13_2 C18_2 1_555 1_555
C19_2 C18_2 1_555 1_555
C20_2 C19_2 1_555 1_555
H14_2 C20_2 1_555 1_555
C21_2 C16_2 1_555 1_555
H15_2 C21_2 1_555 1_555
C22_2 O9_2 1_555 1_555
C23_2 C22_2 1_555 1_555
C24 C23_2 1_555 1_555
H16 C24 1_555 1_555
C25 C24 1_555 1_555
H17 C25 1_555 1_555
C28_2 C23_2 1_555 1_555
O16_2 Co2_2 1_555 1_555
O17_2 Co2_2 1_555 1_555
C39_2 O17_2 1_555 1_555
H31_2 C39_2 1_555 1_555
O18_2 C42_2 1_555 1_555
O19_2 C42_2 1_555 1_555
C42_2 C43_2 1_555 1_555
C43_2 C44_2 1_555 1_555
C44_2 H38_2 1_555 1_555
C45_2 C44_2 1_555 1_555
H39_2 C45_2 1_555 1_555
C46_2 O8_3 1_555 1_555
C47_2 C46_2 1_555 1_555
H40_2 C47_2 1_555 1_555
C48_2 C43_2 1_555 1_555
H41_2 C48_2 1_555 1_555
Co4_2 O18_2 1_555 1_555
Co5_2 O19_2 1_555 1_555
Co14 O26_2 1_555 1_555
O20_2 Co4_2 1_555 1_555
O21_2 Co5_2 1_555 1_555
O25_2 Co4_2 1_555 1_555
O26_2 C63_2 1_555 1_555
O27_2 C67_2 1_555 1_555
O28_2 C70_2 1_555 1_555
O29_2 C70_2 1_555 1_555
O30_2 Co4_2 1_555 1_555
H42_2 O30_2 1_555 1_555
O31_2 Co14 1_555 1_555
H43_2 O31_2 1_555 1_555
H44_2 O31_2 1_555 1_555
C49_2 O20_2 1_555 1_555
H48_2 C55_2 1_555 1_555
C63_2 O25_2 1_555 1_555
C64_2 C63_2 1_555 1_555
C65_2 C64_2 1_555 1_555
H53_2 C65_2 1_555 1_555
C66_2 C65_2 1_555 1_555
H54_2 C66_2 1_555 1_555
C67_2 C66_2 1_555 1_555
C68_2 C67_2 1_555 1_555
H55_2 C68_2 1_555 1_555
C69_2 C64_2 1_555 1_555
H56_2 C69_2 1_555 1_555
C70_2 C71_2 1_555 1_555
C71_2 C72_2 1_555 1_555
C72_2 H57_2 1_555 1_555
C73_2 C72_2 1_555 1_555
H58_2 C73_2 1_555 1_555
C74_2 O27_2 1_555 1_555
C75_2 C74_2 1_555 1_555
H59_2 C75_2 1_555 1_555
C76_2 C71_2 1_555 1_555
H60_2 C76_2 1_555 1_555
O32_2 Co5_2 1_555 1_555
O33_2 Co5_2 1_555 1_555
C80_2 O33_2 1_555 1_555
H68_2 C80_2 1_555 1_555
Co8 O25_2 1_555 1_555
Co11_2 O29_2 1_555 1_555
Co15_2 O28_2 1_555 1_555
O37_2 Co4_2 1_555 1_555
O41_2 Co4_2 1_555 1_555
O42_2 Co14 1_555 1_555
O43_2 Co13 1_555 1_555
O44_2 Co5_2 1_555 1_555
O45_2 Co2_2 1_555 1_555
Co2_2 O14_2 1_555 1_555
Co13 O14_2 1_555 1_555
O7_2 C15_2 1_555 1_555
C20_2 C21_2 1_555 1_555
C45_2 C46_2 1_555 1_555
C47_2 C48_2 1_555 1_555
Co5_2 O30_2 1_555 1_555
Co14 O30_2 1_555 1_555
O21_2 C49_2 1_555 1_555
C68_2 C69_2 1_555 1_555
C73_2 C74_2 1_555 1_555
C75_2 C76_2 1_555 1_555
Co8 O41_2 1_555 1_555
O11_2 C26_2 1_555 1_555
O12_2 C29_2 1_555 1_555
O13_2 C29_2 1_555 1_555
H7_2 C7_2 1_555 1_555
C27_2 C26_2 1_555 1_555
H18_2 C27_2 1_555 1_555
C29_2 C30_2 1_555 1_555
C30_2 C31_2 1_555 1_555
C31_2 H20_2 1_555 1_555
C32_2 C31_2 1_555 1_555
H21_2 C32_2 1_555 1_555
C33_2 O11_2 1_555 1_555
C34_2 C33_2 1_555 1_555
H22_2 C34_2 1_555 1_555
C35_2 C30_2 1_555 1_555
H23_2 C35_2 1_555 1_555
Co12_2 O13_2 1_555 1_555
Co16_2 O12_2 1_555 1_555
C32_2 C33_2 1_555 1_555
C34_2 C35_2 1_555 1_555
Co7 O40_2 1_555 1_555
O34 C8_2 1_555 1_555
O38 C8_2 1_555 1_555
C2_2 C3_2 1_555 1_555
C3_2 H4_2 1_555 1_555
C4_2 C3_2 1_555 1_555
H5_2 C4_2 1_555 1_555
C8_2 C9_2 1_555 1_555
C9_2 C10_2 1_555 1_555
C10_2 H8_2 1_555 1_555
C11_2 C10_2 1_555 1_555
H9_2 C11_2 1_555 1_555
N1_2 C36_2 1_555 1_555
H24_2 C36_2 1_555 1_555
C37_2 N1_2 1_555 1_555
H26_2 C37_2 1_555 1_555
H27_2 C37_2 1_555 1_555
C38_2 N1_2 1_555 1_555
H28_2 C38_2 1_555 1_555
H29_2 C38_2 1_555 1_555
H30_2 C38_2 1_555 1_555
C40_2 N2_2 1_555 1_555
H32_2 C40_2 1_555 1_555
H33_2 C40_2 1_555 1_555
H34_2 C40_2 1_555 1_555
C41_2 N2_2 1_555 1_555
H35_2 C41_2 1_555 1_555
H36_2 C41_2 1_555 1_555
H37_2 C41_2 1_555 1_555
O22_2 C53_2 1_555 1_555
O35 C56_2 1_555 1_555
O39 C56_2 1_555 1_555
C51_2 C50_2 1_555 1_555
H45_2 C51_2 1_555 1_555
C52_2 C51_2 1_555 1_555
H46_2 C52_2 1_555 1_555
C53_2 C52_2 1_555 1_555
C54_2 C53_2 1_555 1_555
H47_2 C54_2 1_555 1_555
C56_2 C57_2 1_555 1_555
C57_2 C58_2 1_555 1_555
C58_2 H49_2 1_555 1_555
C59_2 C58_2 1_555 1_555
H50_2 C59_2 1_555 1_555
C60_2 O22_2 1_555 1_555
C61_2 C60_2 1_555 1_555
H51_2 C61_2 1_555 1_555
C62_2 C57_2 1_555 1_555
H52_2 C62_2 1_555 1_555
N3_2 C77_2 1_555 1_555
H61_2 C77_2 1_555 1_555
C78_2 N3_2 1_555 1_555
H63_2 C78_2 1_555 1_555
H64_2 C78_2 1_555 1_555
C79_2 N3_2 1_555 1_555
H65_2 C79_2 1_555 1_555
H66_2 C79_2 1_555 1_555
H67_2 C79_2 1_555 1_555
C81_2 N4_2 1_555 1_555
H69_2 C81_2 1_555 1_555
H70_2 C81_2 1_555 1_555
H71_2 C81_2 1_555 1_555
C82_2 N4_2 1_555 1_555
H72_2 C82_2 1_555 1_555
H73_2 C82_2 1_555 1_555
H74_2 C82_2 1_555 1_555
C59_2 C60_2 1_555 1_555
C61_2 C62_2 1_555 1_555
O3_2 C5_2 1_555 1_555
C6_2 C5_2 1_555 1_555
H6_2 C6_2 1_555 1_555
C12_2 O3_2 1_555 1_555
C13_2 C12_2 1_555 1_555
H10_2 C13_2 1_555 1_555
H11_2 C14_2 1_555 1_555
C13_2 C14_2 1_555 1_555
O3_3 C5_3 1_555 1_555
C6_3 C5_3 1_555 1_555
H6_3 C6_3 1_555 1_555
H7_3 C7_3 1_555 1_555
C12_3 O3_3 1_555 1_555
C6_3 C7_3 1_555 1_555
Co7 O1_3 1_555 1_555
Co11 O2_3 1_555 1_555
Co15 O10_3 1_555 1_555
O1_3 C1_3 1_555 1_555
O2_3 C1_3 1_555 1_555
O6_3 Co7 1_555 1_555
O7_3 Co11 1_555 1_555
O8_4 C19_3 1_555 1_555
O10_3 C22_3 1_555 1_555
O14_3 Co7 1_555 1_555
H1_3 O14_3 1_555 1_555
O15_3 Co15 1_555 1_555
H2_3 O15_3 1_555 1_555
H3_3 O15_3 1_555 1_555
C1_3 C2_3 1_555 1_555
C2_3 C3_3 1_555 1_555
C3_3 H4_3 1_555 1_555
C4_3 C3_3 1_555 1_555
H5_3 C4_3 1_555 1_555
C15_3 O6_3 1_555 1_555
C16_3 C15_3 1_555 1_555
C17_3 C16_3 1_555 1_555
H12_3 C17_3 1_555 1_555
C18_3 C17_3 1_555 1_555
H13_3 C18_3 1_555 1_555
C19_3 C18_3 1_555 1_555
C20_3 C19_3 1_555 1_555
H14_3 C20_3 1_555 1_555
C21_3 C16_3 1_555 1_555
H15_3 C21_3 1_555 1_555
C22_3 O40_2 1_555 1_555
C23_3 C22_3 1_555 1_555
C28_3 C23_3 1_555 1_555
O16_3 Co11 1_555 1_555
N1_3 C36_3 1_555 1_555
C36_3 O16_3 1_555 1_555
H24_3 C36_3 1_555 1_555
C37_3 N1_3 1_555 1_555
H25_3 C37_3 1_555 1_555
H26_3 C37_3 1_555 1_555
H27_3 C37_3 1_555 1_555
C38_3 N1_3 1_555 1_555
H28_3 C38_3 1_555 1_555
H29_3 C38_3 1_555 1_555
H30_3 C38_3 1_555 1_555
O17_3 Co11 1_555 1_555
N2_3 C39_3 1_555 1_555
C39_3 O17_3 1_555 1_555
H31_3 C39_3 1_555 1_555
C40_3 N2_3 1_555 1_555
H32_3 C40_3 1_555 1_555
H33_3 C40_3 1_555 1_555
H34_3 C40_3 1_555 1_555
C41_3 N2_3 1_555 1_555
H35_3 C41_3 1_555 1_555
H36_3 C41_3 1_555 1_555
H37_3 C41_3 1_555 1_555
O37 C56_3 1_555 1_555
O24_2 C56_3 1_555 1_555
C56_3 C57_3 1_555 1_555
C57_3 C58_3 1_555 1_555
C58_3 H49_3 1_555 1_555
C59_3 C58_3 1_555 1_555
H51_3 C61_3 1_555 1_555
C62_3 C57_3 1_555 1_555
H52_3 C62_3 1_555 1_555
Co16_2 O37 1_555 1_555
O36_2 Co15 1_555 1_555
O38_2 Co15 1_555 1_555
Co11 O14_3 1_555 1_555
Co15 O14_3 1_555 1_555
O7_3 C15_3 1_555 1_555
C20_3 C21_3 1_555 1_555
O24_2 Co16_2 1_555 1_555
C61_3 C62_3 1_555 1_555
O11_3 C26_3 1_555 1_555
O42 C29_3 1_555 1_555
O44 C29_3 1_555 1_555
C27_3 C26_3 1_555 1_555
H18_3 C27_3 1_555 1_555
C29_3 C30_3 1_555 1_555
C30_3 C31_3 1_555 1_555
C31_3 H20_3 1_555 1_555
C32_3 C31_3 1_555 1_555
H21_3 C32_3 1_555 1_555
C33_3 O11_3 1_555 1_555
C34_3 C33_3 1_555 1_555
H22_3 C34_3 1_555 1_555
C35_3 C30_3 1_555 1_555
H23_3 C35_3 1_555 1_555
C32_3 C33_3 1_555 1_555
C34_3 C35_3 1_555 1_555
H10_3 C13_3 1_555 1_555
H11_3 C14_3 1_555 1_555
C13_3 C14_3 1_555 1_555
O36 C8_3 1_555 1_555
O5_2 C8_3 1_555 1_555
C8_3 C9_3 1_555 1_555
C9_3 C10_3 1_555 1_555
C10_3 H8_3 1_555 1_555
C11_3 C10_3 1_555 1_555
O18_3 C42_3 1_555 1_555
O19_3 C42_3 1_555 1_555
C42_3 C43_3 1_555 1_555
C43_3 C44_3 1_555 1_555
C44_3 H38_3 1_555 1_555
C45_3 C44_3 1_555 1_555
H39_3 C45_3 1_555 1_555
C46_3 O8_5 1_555 1_555
C47_3 C46_3 1_555 1_555
H40_3 C47_3 1_555 1_555
C48_3 C43_3 1_555 1_555
H41_3 C48_3 1_555 1_555
Co8 O18_3 1_555 1_555
Co12 O19_3 1_555 1_555
Co16 O26_3 1_555 1_555
O20_3 Co8 1_555 1_555
O21_3 Co12 1_555 1_555
O22_3 C53_3 1_555 1_555
O26_3 C63_3 1_555 1_555
O30_3 Co8 1_555 1_555
H42_3 O30_3 1_555 1_555
O31_3 Co16 1_555 1_555
H43_3 O31_3 1_555 1_555
H44_3 O31_3 1_555 1_555
C49_3 O20_3 1_555 1_555
C50_3 C49_3 1_555 1_555
C51_3 C50_3 1_555 1_555
H45_3 C51_3 1_555 1_555
C52_3 C51_3 1_555 1_555
H46_3 C52_3 1_555 1_555
C53_3 C52_3 1_555 1_555
C54_3 C53_3 1_555 1_555
H47_3 C54_3 1_555 1_555
C55_3 C50_3 1_555 1_555
H48_3 C55_3 1_555 1_555
C60_3 O22_3 1_555 1_555
C63_3 O41_2 1_555 1_555
C64_3 C63_3 1_555 1_555
C69_3 C64_3 1_555 1_555
H56_3 C69_3 1_555 1_555
O32_3 Co12 1_555 1_555
N3_3 C77_3 1_555 1_555
C77_3 O32_3 1_555 1_555
H61_3 C77_3 1_555 1_555
C78_3 N3_3 1_555 1_555
H62_3 C78_3 1_555 1_555
H63_3 C78_3 1_555 1_555
H64_3 C78_3 1_555 1_555
C79_3 N3_3 1_555 1_555
H65_3 C79_3 1_555 1_555
H66_3 C79_3 1_555 1_555
H67_3 C79_3 1_555 1_555
O33_3 Co12 1_555 1_555
N4_3 C80_3 1_555 1_555
C80_3 O33_3 1_555 1_555
H68_3 C80_3 1_555 1_555
C81_3 N4_3 1_555 1_555
H69_3 C81_3 1_555 1_555
H70_3 C81_3 1_555 1_555
H71_3 C81_3 1_555 1_555
C82_3 N4_3 1_555 1_555
H72_3 C82_3 1_555 1_555
H73_3 C82_3 1_555 1_555
H74_3 C82_3 1_555 1_555
Co15_2 O36 1_555 1_555
O37_2 Co16 1_555 1_555
O39_2 Co16 1_555 1_555
O5_2 Co15_2 1_555 1_555
C45_3 C46_3 1_555 1_555
C47_3 C48_3 1_555 1_555
Co12 O30_3 1_555 1_555
Co16 O30_3 1_555 1_555
O21_3 C49_3 1_555 1_555
C54_3 C55_3 1_555 1_555
O27_3 C67_3 1_555 1_555
O43 C70_3 1_555 1_555
O45 C70_3 1_555 1_555
H53_3 C65_3 1_555 1_555
C66_3 C65_3 1_555 1_555
H54_3 C66_3 1_555 1_555
C67_3 C66_3 1_555 1_555
C68_3 C67_3 1_555 1_555
H55_3 C68_3 1_555 1_555
C70_3 C71_3 1_555 1_555
C71_3 C72_3 1_555 1_555
C72_3 H57_3 1_555 1_555
C73_3 C72_3 1_555 1_555
H58_3 C73_3 1_555 1_555
C74_3 O27_3 1_555 1_555
C75_3 C74_3 1_555 1_555
H59_3 C75_3 1_555 1_555
C76_3 C71_3 1_555 1_555
H60_3 C76_3 1_555 1_555
C73_3 C74_3 1_555 1_555
C75_3 C76_3 1_555 1_555
O3_4 C5_4 1_555 1_555
C6_4 C5_4 1_555 1_555
H6_4 C6_4 1_555 1_555
C12_4 O3_4 1_555 1_555
C13_4 C12_4 1_555 1_555
H10_4 C13_4 1_555 1_555
H11_4 C14_4 1_555 1_555
C13_4 C14_4 1_555 1_555
O36_2 C8_4 1_555 1_555
O38_2 C8_4 1_555 1_555
C2_4 C3_4 1_555 1_555
C3_4 H4_4 1_555 1_555
C4_4 C3_4 1_555 1_555
H5_4 C4_4 1_555 1_555
C8_4 C9_4 1_555 1_555
C9_4 C10_4 1_555 1_555
C10_4 H8_4 1_555 1_555
C11_4 C10_4 1_555 1_555
H9_4 C11_4 1_555 1_555
N1_4 C36_4 1_555 1_555
H24_4 C36_4 1_555 1_555
C37_4 N1_4 1_555 1_555
H26_4 C37_4 1_555 1_555
H27_4 C37_4 1_555 1_555
C38_4 N1_4 1_555 1_555
H28_4 C38_4 1_555 1_555
H29_4 C38_4 1_555 1_555
H30_4 C38_4 1_555 1_555
C40_4 N2_4 1_555 1_555
H32_4 C40_4 1_555 1_555
H33_4 C40_4 1_555 1_555
H34_4 C40_4 1_555 1_555
C41_4 N2_4 1_555 1_555
H35_4 C41_4 1_555 1_555
H36_4 C41_4 1_555 1_555
H37_4 C41_4 1_555 1_555
O22_4 C53_4 1_555 1_555
O37_2 C56_4 1_555 1_555
O39_2 C56_4 1_555 1_555
C51_4 C50_4 1_555 1_555
H45_4 C51_4 1_555 1_555
C52_4 C51_4 1_555 1_555
H46_4 C52_4 1_555 1_555
C53_4 C52_4 1_555 1_555
C54_4 C53_4 1_555 1_555
H47_4 C54_4 1_555 1_555
C56_4 C57_4 1_555 1_555
C57_4 C58_4 1_555 1_555
C58_4 H49_4 1_555 1_555
C59_4 C58_4 1_555 1_555
H50_4 C59_4 1_555 1_555
C60_4 O22_4 1_555 1_555
C61_4 C60_4 1_555 1_555
H51_4 C61_4 1_555 1_555
C62_4 C57_4 1_555 1_555
H52_4 C62_4 1_555 1_555
N3_4 C77_4 1_555 1_555
H61_4 C77_4 1_555 1_555
C78_4 N3_4 1_555 1_555
H63_4 C78_4 1_555 1_555
H64_4 C78_4 1_555 1_555
C79_4 N3_4 1_555 1_555
H65_4 C79_4 1_555 1_555
H66_4 C79_4 1_555 1_555
H67_4 C79_4 1_555 1_555
C81_4 N4_4 1_555 1_555
H69_4 C81_4 1_555 1_555
H70_4 C81_4 1_555 1_555
H71_4 C81_4 1_555 1_555
C82_4 N4_4 1_555 1_555
H72_4 C82_4 1_555 1_555
H73_4 C82_4 1_555 1_555
H74_4 C82_4 1_555 1_555
C59_4 C60_4 1_555 1_555
C61_4 C62_4 1_555 1_555
O11_4 C26_4 1_555 1_555
O42_2 C29_4 1_555 1_555
O44_2 C29_4 1_555 1_555
H7_4 C7_4 1_555 1_555
C27_4 C26_4 1_555 1_555
H18_4 C27_4 1_555 1_555
C29_4 C30_4 1_555 1_555
C30_4 C31_4 1_555 1_555
C31_4 H20_4 1_555 1_555
C32_4 C31_4 1_555 1_555
H21_4 C32_4 1_555 1_555
C33_4 O11_4 1_555 1_555
C34_4 C33_4 1_555 1_555
H22_4 C34_4 1_555 1_555
C35_4 C30_4 1_555 1_555
H23_4 C35_4 1_555 1_555
C32_4 C33_4 1_555 1_555
C34_4 C35_4 1_555 1_555
Co9 O1_4 1_555 1_555
Co11_2 O2_4 1_555 1_555
Co15_2 O10_4 1_555 1_555
O1_4 C1_4 1_555 1_555
O2_4 C1_4 1_555 1_555
O6_4 Co9 1_555 1_555
O7_4 Co11_2 1_555 1_555
O8_6 C19_4 1_555 1_555
O10_4 C22_4 1_555 1_555
O14_4 Co9 1_555 1_555
H1_4 O14_4 1_555 1_555
O15_4 Co15_2 1_555 1_555
H2_4 O15_4 1_555 1_555
H3_4 O15_4 1_555 1_555
C15_4 O6_4 1_555 1_555
C16_4 C15_4 1_555 1_555
C17_4 C16_4 1_555 1_555
H12_4 C17_4 1_555 1_555
C18_4 C17_4 1_555 1_555
H13_4 C18_4 1_555 1_555
C19_4 C18_4 1_555 1_555
C20_4 C19_4 1_555 1_555
H14_4 C20_4 1_555 1_555
C21_4 C16_4 1_555 1_555
H15_4 C21_4 1_555 1_555
C22_4 O40 1_555 1_555
C23_4 C22_4 1_555 1_555
C24_2 C23_4 1_555 1_555
H16_2 C24_2 1_555 1_555
C25_2 C24_2 1_555 1_555
H17_2 C25_2 1_555 1_555
C28_4 C23_4 1_555 1_555
O16_4 Co11_2 1_555 1_555
O17_4 Co11_2 1_555 1_555
C39_4 O17_4 1_555 1_555
H31_4 C39_4 1_555 1_555
O18_4 C42_4 1_555 1_555
O19_4 C42_4 1_555 1_555
C42_4 C43_4 1_555 1_555
C43_4 C44_4 1_555 1_555
C44_4 H38_4 1_555 1_555
C45_4 C44_4 1_555 1_555
H39_4 C45_4 1_555 1_555
C46_4 O8_6 1_555 1_555
C47_4 C46_4 1_555 1_555
H40_4 C47_4 1_555 1_555
C48_4 C43_4 1_555 1_555
H41_4 C48_4 1_555 1_555
Co10 O18_4 1_555 1_555
Co12_2 O19_4 1_555 1_555
Co16_2 O26_4 1_555 1_555
O20_4 Co10 1_555 1_555
O21_4 Co12_2 1_555 1_555
O26_4 C63_4 1_555 1_555
O27_4 C67_4 1_555 1_555
O43_2 C70_4 1_555 1_555
O45_2 C70_4 1_555 1_555
O30_4 Co10 1_555 1_555
H42_4 O30_4 1_555 1_555
O31_4 Co16_2 1_555 1_555
H43_4 O31_4 1_555 1_555
H44_4 O31_4 1_555 1_555
C49_4 O20_4 1_555 1_555
H48_4 C55_4 1_555 1_555
C63_4 O41 1_555 1_555
C64_4 C63_4 1_555 1_555
C65_4 C64_4 1_555 1_555
H53_4 C65_4 1_555 1_555
C66_4 C65_4 1_555 1_555
H54_4 C66_4 1_555 1_555
C67_4 C66_4 1_555 1_555
C68_4 C67_4 1_555 1_555
H55_4 C68_4 1_555 1_555
C69_4 C64_4 1_555 1_555
H56_4 C69_4 1_555 1_555
C70_4 C71_4 1_555 1_555
C71_4 C72_4 1_555 1_555
C72_4 H57_4 1_555 1_555
C73_4 C72_4 1_555 1_555
H58_4 C73_4 1_555 1_555
C74_4 O27_4 1_555 1_555
C75_4 C74_4 1_555 1_555
H59_4 C75_4 1_555 1_555
C76_4 C71_4 1_555 1_555
H60_4 C76_4 1_555 1_555
O32_4 Co12_2 1_555 1_555
O33_4 Co12_2 1_555 1_555
C80_4 O33_4 1_555 1_555
H68_4 C80_4 1_555 1_555
Co11_2 O14_4 1_555 1_555
Co15_2 O14_4 1_555 1_555
O7_4 C15_4 1_555 1_555
C20_4 C21_4 1_555 1_555
C45_4 C46_4 1_555 1_555
C47_4 C48_4 1_555 1_555
Co12_2 O30_4 1_555 1_555
Co16_2 O30_4 1_555 1_555
O21_4 C49_4 1_555 1_555
C68_4 C69_4 1_555 1_555
C73_4 C74_4 1_555 1_555
C75_4 C76_4 1_555 1_555
H16_3 C24_3 1_555 1_555
C25_3 C24_3 1_555 1_555
H17_3 C25_3 1_555 1_555
H16_4 C24_4 1_555 1_555
C25_4 C24_4 1_555 1_555
H17_4 C25_4 1_555 1_555

#END
