
###############################################################################
#
# This file contains modified crystal structure data generated from the
# MOF subset of the Cambridge Structural Database (CSD) v543 
# hosted by the Cambridge Crystallographic Data Centre (CCDC).
#
# This work is licensed under the Creative Commons
# Attribution-NonCommercial-ShareAlike 4.0 International License.
# To view a copy of this license, visit
# http://creativecommons.org/licenses/by-nc-sa/4.0/
# or send a letter to
# Creative Commons, PO Box 1866, Mountain View, CA 94042, USA.
#
# CIF created using the CSD Python API on 29 September 2022
# The structure has been converted into the P1 space group
# The structure has a 3D framework
# The original CSD entry CUWWUO is in the monoclinic crystal system
# The framework has been calculated to contain at least 10.0% void space
# The void calculation uses a probe of radius 1.32A, grid spacing 0.4
#
###############################################################################

data_CUWWUO
_chemical_formula_moiety         '(C176 H112 Eu8 N16 O52)n'
_symmetry_cell_setting           triclinic
_symmetry_space_group_name_H-M   'P 1'
_symmetry_Int_Tables_number      1
_space_group_name_Hall           'P 1'
loop_
_symmetry_equiv_pos_site_id
_symmetry_equiv_pos_as_xyz
1 x,y,z
_cell_length_a                   29.103(3)
_cell_length_b                   13.950(2)
_cell_length_c                   14.2309(17)
_cell_angle_alpha                90
_cell_angle_beta                 94.204(11)
_cell_angle_gamma                90
_cell_volume                     5762.01
loop_
_atom_site_label
_atom_site_type_symbol
_atom_site_fract_x
_atom_site_fract_y
_atom_site_fract_z
C17 C 0.3402(4) 0.5412(9) 0.0792(12)
H8 H 0.3311 0.5496 0.0157
C18 C 0.3462(5) 0.6221(13) 0.1359(11)
H9 H 0.3415 0.6829 0.1101
C19 C 0.3593(4) 0.6118(11) 0.2310(11)
H10 H 0.3631 0.6652 0.2700
C20 C 0.3667(4) 0.5203(9) 0.2668(10)
H11 H 0.3758 0.5101 0.3300
C21 C 0.3598(3) 0.4445(9) 0.2041(7)
C22 C 0.3609(7) 0.3461(8) 0.2457(9)
H12 H 0.3886 0.3385 0.2873
H13 H 0.3345 0.3375 0.2828
N2 N 0.3469(3) 0.4510(8) 0.1117(7)
O7 O 0.3600(4) 0.2745(7) 0.1723(6)
Eu1 Eu 0.313795(15) 0.30007(4) 0.02528(3)
O8 O 0.3760(3) 0.1797(6) 0.0075(6)
O12 O 0.2702(2) 0.1603(5) 0.0511(5)
O13 O 0.2651(3) 0.3511(6) 0.1431(6)
C1 C 0.6002(4) 0.2417(9) 0.5332(8)
C2 C 0.5559(4) 0.2112(10) 0.5722(9)
C3 C 0.5425(4) 0.1146(11) 0.5696(10)
H1 H 0.5620 0.0676 0.5487
C4 C 0.4994(4) 0.0903(11) 0.5989(11)
H2 H 0.4904 0.0264 0.5965
C5 C 0.4700(4) 0.1570(10) 0.6311(9)
C6 C 0.4848(4) 0.2508(11) 0.6375(11)
H3 H 0.4658 0.2967 0.6619
C7 C 0.5284(4) 0.2792(10) 0.6080(11)
H4 H 0.5380 0.3427 0.6130
C8 C 0.4240(4) 0.1394(11) 0.6596(10)
C11 C 0.2660(4) 0.0389(8) 0.7120(9)
H5 H 0.2347 0.0363 0.7214
C12 C 0.2938(4) 0.1024(9) 0.7639(8)
C13 C 0.3421(3) 0.1066(9) 0.7501(8)
H6 H 0.3614 0.1470 0.7868
C14 C 0.3593(4) 0.0497(9) 0.6815(10)
C16 C 0.2763(4) 0.1657(9) 0.8393(9)
N1 N 0.4063(3) 0.0547(9) 0.6584(8)
O1 O 0.6240(3) 0.1797(6) 0.4925(6)
O2 O 0.6130(2) 0.3281(6) 0.5434(5)
O5 O 0.3023(2) 0.2271(6) 0.8754(5)
O6 O 0.2349(3) 0.1489(6) 0.8569(6)
H14 H 0.402(4) 0.191(7) 0.671(11)
O9 O 0.3870(2) 0.3281(6) 0.9566(5)
O10 O 0.2882(2) 0.4299(5) 0.9234(6)
O11 O 0.2298(2) 0.3397(5) 0.9489(5)
Eu2 Eu 0.686205(15) 0.30007(4) 0.47472(3)
Eu5 Eu 0.186205(15) 0.19993(4) 0.97472(3)
C9 C 0.2541(3) 0.9109(8) 0.5885(8)
C10 C 0.2840(4) 0.9776(9) 0.6449(8)
C15 C 0.3311(4) 0.9823(9) 0.6315(8)
H7 H 0.3438 0.9407 0.5894
O3 O 0.2118(2) 0.9299(5) 0.5766(6)
O4 O 0.2702(2) 0.8397(5) 0.5511(5)
Eu3 Eu 0.186205(15) 0.80007(4) 0.47472(3)
Eu4 Eu 0.313795(15) 0.69993(4) 0.52528(3)
C1_2 C 0.3998(4) 0.2417(9) 0.9668(8)
C2_2 C 0.4441(4) 0.2112(10) 0.9278(9)
C3_2 C 0.4575(4) 0.1146(11) 0.9304(10)
H1_2 H 0.4380 0.0676 0.9513
C4_2 C 0.5006(4) 0.0903(11) 0.9011(11)
H2_2 H 0.5096 0.0264 0.9035
C5_2 C 0.5300(4) 0.1570(10) 0.8689(9)
C6_2 C 0.5152(4) 0.2508(11) 0.8625(11)
H3_2 H 0.5342 0.2967 0.8381
C7_2 C 0.4716(4) 0.2792(10) 0.8920(11)
H4_2 H 0.4620 0.3427 0.8870
C8_2 C 0.5760(4) 0.1394(11) 0.8404(10)
C11_2 C 0.7340(4) 0.0389(8) 0.7880(9)
H5_2 H 0.7653 0.0363 0.7786
C12_2 C 0.7062(4) 0.1024(9) 0.7361(8)
C13_2 C 0.6579(3) 0.1066(9) 0.7499(8)
H6_2 H 0.6386 0.1470 0.7132
C14_2 C 0.6407(4) 0.0497(9) 0.8185(10)
C16_2 C 0.7237(4) 0.1657(9) 0.6607(9)
C17_2 C 0.6598(4) 0.5412(9) 0.4208(12)
H8_2 H 0.6689 0.5496 0.4843
C18_2 C 0.6538(5) 0.6221(13) 0.3641(11)
H9_2 H 0.6585 0.6829 0.3899
C19_2 C 0.6407(4) 0.6118(11) 0.2690(11)
H10_2 H 0.6369 0.6652 0.2300
C20_2 C 0.6333(4) 0.5203(9) 0.2332(10)
H11_2 H 0.6242 0.5101 0.1700
C21_2 C 0.6402(3) 0.4445(9) 0.2959(7)
C22_2 C 0.6391(7) 0.3461(8) 0.2543(9)
H12_2 H 0.6114 0.3385 0.2127
H13_2 H 0.6655 0.3375 0.2172
N1_2 N 0.5937(3) 0.0547(9) 0.8416(8)
N2_2 N 0.6531(3) 0.4510(8) 0.3883(7)
O5_2 O 0.6977(2) 0.2271(6) 0.6246(5)
O6_2 O 0.7651(3) 0.1489(6) 0.6431(6)
O7_2 O 0.6400(4) 0.2745(7) 0.3277(6)
H14_2 H 0.598(4) 0.191(7) 0.829(11)
O10_2 O 0.7118(2) 0.4299(5) 0.5766(6)
O11_2 O 0.7702(2) 0.3397(5) 0.5511(5)
O12_2 O 0.7298(2) 0.1603(5) 0.4489(5)
O13_2 O 0.7349(3) 0.3511(6) 0.3569(6)
Eu5_2 Eu 0.813795(15) 0.19993(4) 0.52528(3)
Eu3_2 Eu 0.813795(15) 0.80007(4) 0.02528(3)
C9_2 C 0.7459(3) 0.9109(8) 0.9115(8)
C10_2 C 0.7160(4) 0.9776(9) 0.8551(8)
C15_2 C 0.6689(4) 0.9823(9) 0.8685(8)
H7_2 H 0.6562 0.9407 0.9106
O3_2 O 0.7882(2) 0.9299(5) 0.9234(6)
O4_2 O 0.7298(2) 0.8397(5) 0.9489(5)
Eu4_2 Eu 0.686205(15) 0.69993(4) 0.97472(3)
C1_3 C 0.1002(4) 0.7417(9) 0.5332(8)
C2_3 C 0.0559(4) 0.7112(10) 0.5722(9)
C3_3 C 0.0425(4) 0.6146(11) 0.5696(10)
H1_3 H 0.0620 0.5676 0.5487
C7_3 C 0.0284(4) 0.7792(10) 0.6080(11)
H4_3 H 0.0380 0.8427 0.6130
O1_2 O 0.1240(3) 0.6797(6) 0.4925(6)
O2_2 O 0.1130(2) 0.8281(6) 0.5434(5)
C21_3 C 0.8598(3) 0.9445(9) 0.2041(7)
C22_3 C 0.8609(7) 0.8461(8) 0.2457(9)
H12_3 H 0.8886 0.8385 0.2873
H13_3 H 0.8345 0.8375 0.2828
N2_3 N 0.8469(3) 0.9510(8) 0.1117(7)
O7_3 O 0.8600(4) 0.7745(7) 0.1723(6)
O8_2 O 0.8760(3) 0.6797(6) 0.0075(6)
O12_3 O 0.7702(2) 0.6603(5) 0.0511(5)
O13_3 O 0.7651(3) 0.8511(6) 0.1431(6)
C4_3 C 0.9994(4) 0.5903(11) 0.5989(11)
H2_3 H 0.9904 0.5264 0.5965
C5_3 C 0.9700(4) 0.6570(10) 0.6311(9)
C6_3 C 0.9848(4) 0.7508(11) 0.6375(11)
H3_3 H 0.9658 0.7967 0.6619
C8_3 C 0.9240(4) 0.6394(11) 0.6596(10)
C9_3 C 0.7541(3) 0.4109(8) 0.5885(8)
C10_3 C 0.7840(4) 0.4776(9) 0.6449(8)
C11_3 C 0.7660(4) 0.5389(8) 0.7120(9)
H5_3 H 0.7347 0.5363 0.7214
C12_3 C 0.7938(4) 0.6024(9) 0.7639(8)
C13_3 C 0.8421(3) 0.6066(9) 0.7501(8)
H6_3 H 0.8614 0.6470 0.7868
C14_3 C 0.8593(4) 0.5497(9) 0.6815(10)
C15_3 C 0.8311(4) 0.4823(9) 0.6315(8)
H7_3 H 0.8438 0.4407 0.5894
C16_3 C 0.7763(4) 0.6657(9) 0.8393(9)
N1_3 N 0.9063(3) 0.5547(9) 0.6584(8)
O5_3 O 0.8023(2) 0.7271(6) 0.8754(5)
O6_3 O 0.7349(3) 0.6489(6) 0.8569(6)
H14_3 H 0.902(4) 0.691(7) 0.671(11)
O9_2 O 0.8870(2) 0.8281(6) 0.9566(5)
C4_4 C 0.0006(4) 0.5903(11) 0.9011(11)
H2_4 H 0.0096 0.5264 0.9035
C5_4 C 0.0300(4) 0.6570(10) 0.8689(9)
C6_4 C 0.0152(4) 0.7508(11) 0.8625(11)
H3_4 H 0.0342 0.7967 0.8381
C8_4 C 0.0760(4) 0.6394(11) 0.8404(10)
C9_4 C 0.2459(3) 0.4109(8) 0.9115(8)
C10_4 C 0.2160(4) 0.4776(9) 0.8551(8)
C11_4 C 0.2340(4) 0.5389(8) 0.7880(9)
H5_4 H 0.2653 0.5363 0.7786
C12_4 C 0.2062(4) 0.6024(9) 0.7361(8)
C13_4 C 0.1579(3) 0.6066(9) 0.7499(8)
H6_4 H 0.1386 0.6470 0.7132
C14_4 C 0.1407(4) 0.5497(9) 0.8185(10)
C15_4 C 0.1689(4) 0.4823(9) 0.8685(8)
H7_4 H 0.1562 0.4407 0.9106
C16_4 C 0.2237(4) 0.6657(9) 0.6607(9)
C21_4 C 0.1402(3) 0.9445(9) 0.2959(7)
C22_4 C 0.1391(7) 0.8461(8) 0.2543(9)
H12_4 H 0.1114 0.8385 0.2127
H13_4 H 0.1655 0.8375 0.2172
N1_4 N 0.0937(3) 0.5547(9) 0.8416(8)
N2_4 N 0.1531(3) 0.9510(8) 0.3883(7)
O5_4 O 0.1977(2) 0.7271(6) 0.6246(5)
O6_4 O 0.2651(3) 0.6489(6) 0.6431(6)
O7_4 O 0.1400(4) 0.7745(7) 0.3277(6)
H14_4 H 0.098(4) 0.691(7) 0.829(11)
O12_4 O 0.2298(2) 0.6603(5) 0.4489(5)
O13_4 O 0.2349(3) 0.8511(6) 0.3569(6)
C1_4 C 0.8998(4) 0.7417(9) 0.9668(8)
C2_4 C 0.9441(4) 0.7112(10) 0.9278(9)
C3_4 C 0.9575(4) 0.6146(11) 0.9304(10)
H1_4 H 0.9380 0.5676 0.9513
C7_4 C 0.9716(4) 0.7792(10) 0.8920(11)
H4_4 H 0.9620 0.8427 0.8870
C9_5 C 0.7459(3) 0.0891(8) 0.4115(8)
C10_5 C 0.7160(4) 0.0224(9) 0.3551(8)
C15_5 C 0.6689(4) 0.0177(9) 0.3685(8)
H7_5 H 0.6562 0.0593 0.4106
O3_3 O 0.7882(2) 0.0701(5) 0.4234(6)
C1_5 C 0.3998(4) 0.7583(9) 0.4668(8)
C2_5 C 0.4441(4) 0.7888(10) 0.4278(9)
C3_5 C 0.4575(4) 0.8854(11) 0.4304(10)
H1_5 H 0.4380 0.9324 0.4513
C4_5 C 0.5006(4) 0.9097(11) 0.4011(11)
H2_5 H 0.5096 0.9736 0.4035
C5_5 C 0.5300(4) 0.8430(10) 0.3689(9)
C6_5 C 0.5152(4) 0.7492(11) 0.3625(11)
H3_5 H 0.5342 0.7033 0.3381
C7_5 C 0.4716(4) 0.7208(10) 0.3920(11)
H4_5 H 0.4620 0.6573 0.3870
C8_5 C 0.5760(4) 0.8606(11) 0.3404(10)
C11_5 C 0.7340(4) 0.9611(8) 0.2880(9)
H5_5 H 0.7653 0.9637 0.2786
C12_5 C 0.7062(4) 0.8976(9) 0.2361(8)
C13_5 C 0.6579(3) 0.8934(9) 0.2499(8)
H6_5 H 0.6386 0.8530 0.2132
C14_5 C 0.6407(4) 0.9503(9) 0.3185(10)
C16_5 C 0.7237(4) 0.8343(9) 0.1607(9)
N1_5 N 0.5937(3) 0.9453(9) 0.3416(8)
O1_3 O 0.3760(3) 0.8203(6) 0.5075(6)
O2_3 O 0.3870(2) 0.6719(6) 0.4566(5)
O5_5 O 0.6977(2) 0.7729(6) 0.1246(5)
H14_5 H 0.598(4) 0.809(7) 0.329(11)
O9_3 O 0.6130(2) 0.6719(6) 0.0434(5)
O10_3 O 0.7118(2) 0.5701(5) 0.0766(6)
C17_3 C 0.6598(4) 0.4588(9) 0.9208(12)
H8_3 H 0.6689 0.4504 0.9843
C18_3 C 0.6538(5) 0.3779(13) 0.8641(11)
H9_3 H 0.6585 0.3171 0.8899
C19_3 C 0.6407(4) 0.3882(11) 0.7690(11)
H10_3 H 0.6369 0.3348 0.7300
C20_3 C 0.6333(4) 0.4797(9) 0.7332(10)
H11_3 H 0.6242 0.4899 0.6700
C21_5 C 0.6402(3) 0.5555(9) 0.7959(7)
C22_5 C 0.6391(7) 0.6539(8) 0.7543(9)
H12_5 H 0.6114 0.6615 0.7127
H13_5 H 0.6655 0.6625 0.7172
N2_5 N 0.6531(3) 0.5490(8) 0.8883(7)
O7_5 O 0.6400(4) 0.7255(7) 0.8277(6)
O8_3 O 0.6240(3) 0.8203(6) 0.9925(6)
C9_6 C 0.2541(3) 0.0891(8) 0.0885(8)
C10_6 C 0.2840(4) 0.0224(9) 0.1449(8)
C15_6 C 0.3311(4) 0.0177(9) 0.1315(8)
H7_6 H 0.3438 0.0593 0.0894
O3_4 O 0.2118(2) 0.0701(5) 0.0766(6)
C1_6 C 0.6002(4) 0.7583(9) 0.0332(8)
C2_6 C 0.5559(4) 0.7888(10) 0.0722(9)
C3_6 C 0.5425(4) 0.8854(11) 0.0696(10)
H1_6 H 0.5620 0.9324 0.0487
C4_6 C 0.4994(4) 0.9097(11) 0.0989(11)
H2_6 H 0.4904 0.9736 0.0965
C5_6 C 0.4700(4) 0.8430(10) 0.1311(9)
C6_6 C 0.4848(4) 0.7492(11) 0.1375(11)
H3_6 H 0.4658 0.7033 0.1619
C7_6 C 0.5284(4) 0.7208(10) 0.1080(11)
H4_6 H 0.5380 0.6573 0.1130
C8_6 C 0.4240(4) 0.8606(11) 0.1596(10)
C11_6 C 0.2660(4) 0.9611(8) 0.2120(9)
H5_6 H 0.2347 0.9637 0.2214
C12_6 C 0.2938(4) 0.8976(9) 0.2639(8)
C13_6 C 0.3421(3) 0.8934(9) 0.2501(8)
H6_6 H 0.3614 0.8530 0.2868
C14_6 C 0.3593(4) 0.9503(9) 0.1815(10)
C16_6 C 0.2763(4) 0.8343(9) 0.3393(9)
C17_4 C 0.3402(4) 0.4588(9) 0.5792(12)
H8_4 H 0.3311 0.4504 0.5157
C18_4 C 0.3462(5) 0.3779(13) 0.6359(11)
H9_4 H 0.3415 0.3171 0.6101
C19_4 C 0.3593(4) 0.3882(11) 0.7310(11)
H10_4 H 0.3631 0.3348 0.7700
C20_4 C 0.3667(4) 0.4797(9) 0.7668(10)
H11_4 H 0.3758 0.4899 0.8300
C21_6 C 0.3598(3) 0.5555(9) 0.7041(7)
C22_6 C 0.3609(7) 0.6539(8) 0.7457(9)
H12_6 H 0.3886 0.6615 0.7873
H13_6 H 0.3345 0.6625 0.7828
N1_6 N 0.4063(3) 0.9453(9) 0.1584(8)
N2_6 N 0.3469(3) 0.5490(8) 0.6117(7)
O5_6 O 0.3023(2) 0.7729(6) 0.3754(5)
O7_6 O 0.3600(4) 0.7255(7) 0.6723(6)
H14_6 H 0.402(4) 0.809(7) 0.171(11)
O10_4 O 0.2882(2) 0.5701(5) 0.4234(6)
C4_7 C 0.0006(4) 0.4097(11) 0.4011(11)
H2_7 H 0.0096 0.4736 0.4035
C5_7 C 0.0300(4) 0.3430(10) 0.3689(9)
C6_7 C 0.0152(4) 0.2492(11) 0.3625(11)
H3_7 H 0.0342 0.2033 0.3381
C8_7 C 0.0760(4) 0.3606(11) 0.3404(10)
C9_7 C 0.2459(3) 0.5891(8) 0.4115(8)
C10_7 C 0.2160(4) 0.5224(9) 0.3551(8)
C11_7 C 0.2340(4) 0.4611(8) 0.2880(9)
H5_7 H 0.2653 0.4637 0.2786
C12_7 C 0.2062(4) 0.3976(9) 0.2361(8)
C13_7 C 0.1579(3) 0.3934(9) 0.2499(8)
H6_7 H 0.1386 0.3530 0.2132
C14_7 C 0.1407(4) 0.4503(9) 0.3185(10)
C15_7 C 0.1689(4) 0.5177(9) 0.3685(8)
H7_7 H 0.1562 0.5593 0.4106
C16_7 C 0.2237(4) 0.3343(9) 0.1607(9)
N1_7 N 0.0937(3) 0.4453(9) 0.3416(8)
O5_7 O 0.1977(2) 0.2729(6) 0.1246(5)
H14_7 H 0.098(4) 0.309(7) 0.329(11)
O9_4 O 0.1130(2) 0.1719(6) 0.0434(5)
C21_7 C 0.1402(3) 0.0555(9) 0.7959(7)
C22_7 C 0.1391(7) 0.1539(8) 0.7543(9)
H12_7 H 0.1114 0.1615 0.7127
H13_7 H 0.1655 0.1625 0.7172
N2_7 N 0.1531(3) 0.0490(8) 0.8883(7)
O7_7 O 0.1400(4) 0.2255(7) 0.8277(6)
O8_4 O 0.1240(3) 0.3203(6) 0.9925(6)
C1_7 C 0.8998(4) 0.2583(9) 0.4668(8)
C2_7 C 0.9441(4) 0.2888(10) 0.4278(9)
C3_7 C 0.9575(4) 0.3854(11) 0.4304(10)
H1_7 H 0.9380 0.4324 0.4513
C7_7 C 0.9716(4) 0.2208(10) 0.3920(11)
H4_7 H 0.9620 0.1573 0.3870
O1_4 O 0.8760(3) 0.3203(6) 0.5075(6)
O2_4 O 0.8870(2) 0.1719(6) 0.4566(5)
C1_8 C 0.1002(4) 0.2583(9) 0.0332(8)
C2_8 C 0.0559(4) 0.2888(10) 0.0722(9)
C3_8 C 0.0425(4) 0.3854(11) 0.0696(10)
H1_8 H 0.0620 0.4324 0.0487
C7_8 C 0.0284(4) 0.2208(10) 0.1080(11)
H4_8 H 0.0380 0.1573 0.1130
C4_8 C 0.9994(4) 0.4097(11) 0.0989(11)
H2_8 H 0.9904 0.4736 0.0965
C5_8 C 0.9700(4) 0.3430(10) 0.1311(9)
C6_8 C 0.9848(4) 0.2492(11) 0.1375(11)
H3_8 H 0.9658 0.2033 0.1619
C8_8 C 0.9240(4) 0.3606(11) 0.1596(10)
C9_8 C 0.7541(3) 0.5891(8) 0.0885(8)
C10_8 C 0.7840(4) 0.5224(9) 0.1449(8)
C11_8 C 0.7660(4) 0.4611(8) 0.2120(9)
H5_8 H 0.7347 0.4637 0.2214
C12_8 C 0.7938(4) 0.3976(9) 0.2639(8)
C13_8 C 0.8421(3) 0.3934(9) 0.2501(8)
H6_8 H 0.8614 0.3530 0.2868
C14_8 C 0.8593(4) 0.4503(9) 0.1815(10)
C15_8 C 0.8311(4) 0.5177(9) 0.1315(8)
H7_8 H 0.8438 0.5593 0.0894
C16_8 C 0.7763(4) 0.3343(9) 0.3393(9)
C21_8 C 0.8598(3) 0.0555(9) 0.7041(7)
C22_8 C 0.8609(7) 0.1539(8) 0.7457(9)
H12_8 H 0.8886 0.1615 0.7873
H13_8 H 0.8345 0.1625 0.7828
N1_8 N 0.9063(3) 0.4453(9) 0.1584(8)
N2_8 N 0.8469(3) 0.0490(8) 0.6117(7)
O5_8 O 0.8023(2) 0.2729(6) 0.3754(5)
O7_8 O 0.8600(4) 0.2255(7) 0.6723(6)
H14_8 H 0.902(4) 0.309(7) 0.171(11)
C17_5 C 0.8402(4) 0.0412(9) 0.0792(12)
H8_5 H 0.8311 0.0496 0.0157
C18_5 C 0.8462(5) 0.1221(13) 0.1359(11)
H9_5 H 0.8415 0.1829 0.1101
C19_5 C 0.8593(4) 0.1118(11) 0.2310(11)
H10_5 H 0.8631 0.1652 0.2700
C20_5 C 0.8667(4) 0.0203(9) 0.2668(10)
H11_5 H 0.8758 0.0101 0.3300
C17_6 C 0.1598(4) 0.0412(9) 0.4208(12)
H8_6 H 0.1689 0.0496 0.4843
C18_6 C 0.1538(5) 0.1221(13) 0.3641(11)
H9_6 H 0.1585 0.1829 0.3899
C19_6 C 0.1407(4) 0.1118(11) 0.2690(11)
H10_6 H 0.1369 0.1652 0.2300
C20_6 C 0.1333(4) 0.0203(9) 0.2332(10)
H11_6 H 0.1242 0.0101 0.1700
C17_7 C 0.1598(4) 0.9588(9) 0.9208(12)
H8_7 H 0.1689 0.9504 0.9843
C18_7 C 0.1538(5) 0.8779(13) 0.8641(11)
H9_7 H 0.1585 0.8171 0.8899
C19_7 C 0.1407(4) 0.8882(11) 0.7690(11)
H10_7 H 0.1369 0.8348 0.7300
C20_7 C 0.1333(4) 0.9797(9) 0.7332(10)
H11_7 H 0.1242 0.9899 0.6700
C17_8 C 0.8402(4) 0.9588(9) 0.5792(12)
H8_8 H 0.8311 0.9504 0.5157
C18_8 C 0.8462(5) 0.8779(13) 0.6359(11)
H9_8 H 0.8415 0.8171 0.6101
C19_8 C 0.8593(4) 0.8882(11) 0.7310(11)
H10_8 H 0.8631 0.8348 0.7700
C20_8 C 0.8667(4) 0.9797(9) 0.7668(10)
H11_8 H 0.8758 0.9899 0.8300
loop_
_geom_bond_atom_site_label_1
_geom_bond_atom_site_label_2
_geom_bond_site_symmetry_1
_geom_bond_site_symmetry_2
C17 H8 1_555 1_555
C18 C17 1_555 1_555
H9 C18 1_555 1_555
C19 C18 1_555 1_555
H10 C19 1_555 1_555
C20 C19 1_555 1_555
H11 C20 1_555 1_555
C21 C20 1_555 1_555
C22 C21 1_555 1_555
H12 C22 1_555 1_555
H13 C22 1_555 1_555
N2 C17 1_555 1_555
O7 C22 1_555 1_555
Eu1 N2 1_555 1_555
O8 Eu1 1_555 1_555
O12 Eu1 1_555 1_555
O13 Eu1 1_555 1_555
C21 N2 1_555 1_555
O7 Eu1 1_555 1_555
C1 C2 1_555 1_555
C2 C3 1_555 1_555
C3 H1 1_555 1_555
C4 C3 1_555 1_555
H2 C4 1_555 1_555
C5 C4 1_555 1_555
C6 C5 1_555 1_555
H3 C6 1_555 1_555
C7 C2 1_555 1_555
H4 C7 1_555 1_555
C8 C5 1_555 1_555
C11 H5 1_555 1_555
C12 C11 1_555 1_555
C13 C12 1_555 1_555
H6 C13 1_555 1_555
C14 C13 1_555 1_555
C16 C12 1_555 1_555
N1 C8 1_555 1_555
O1 C1 1_555 1_555
O2 C1 1_555 1_555
O5 C16 1_555 1_555
O6 C16 1_555 1_555
H14 C8 1_555 1_555
Eu2 O1 1_555 1_555
Eu5 O6 1_555 1_555
C6 C7 1_555 1_555
C14 N1 1_555 1_555
O2 Eu2 1_555 1_555
O11 Eu5 1_555 1_555
C9 C10 1_555 1_555
C15 C10 1_555 1_555
H7 C15 1_555 1_555
O3 C9 1_555 1_555
O4 C9 1_555 1_555
Eu3 O3 1_555 1_555
Eu4 O4 1_555 1_555
O4 Eu3 1_555 1_555
C1_2 C2_2 1_555 1_555
C2_2 C3_2 1_555 1_555
C3_2 H1_2 1_555 1_555
C4_2 C3_2 1_555 1_555
H2_2 C4_2 1_555 1_555
C5_2 C4_2 1_555 1_555
C6_2 C5_2 1_555 1_555
H3_2 C6_2 1_555 1_555
C7_2 C2_2 1_555 1_555
H4_2 C7_2 1_555 1_555
C8_2 C5_2 1_555 1_555
C11_2 H5_2 1_555 1_555
C12_2 C11_2 1_555 1_555
C13_2 C12_2 1_555 1_555
H6_2 C13_2 1_555 1_555
C14_2 C13_2 1_555 1_555
C16_2 C12_2 1_555 1_555
C17_2 H8_2 1_555 1_555
C18_2 C17_2 1_555 1_555
H9_2 C18_2 1_555 1_555
C19_2 C18_2 1_555 1_555
H10_2 C19_2 1_555 1_555
C20_2 C19_2 1_555 1_555
H11_2 C20_2 1_555 1_555
C21_2 C20_2 1_555 1_555
C22_2 C21_2 1_555 1_555
H12_2 C22_2 1_555 1_555
H13_2 C22_2 1_555 1_555
N1_2 C8_2 1_555 1_555
N2_2 C17_2 1_555 1_555
O9 C1_2 1_555 1_555
O5_2 C16_2 1_555 1_555
O6_2 C16_2 1_555 1_555
O7_2 C22_2 1_555 1_555
H14_2 C8_2 1_555 1_555
Eu2 N2_2 1_555 1_555
O10_2 Eu2 1_555 1_555
O11_2 Eu2 1_555 1_555
O12_2 Eu2 1_555 1_555
O13_2 Eu2 1_555 1_555
Eu5_2 O6_2 1_555 1_555
C6_2 C7_2 1_555 1_555
C14_2 N1_2 1_555 1_555
C21_2 N2_2 1_555 1_555
O5_2 Eu2 1_555 1_555
O7_2 Eu2 1_555 1_555
O11_2 Eu5_2 1_555 1_555
O12_2 Eu5_2 1_555 1_555
C9_2 C10_2 1_555 1_555
C15_2 C10_2 1_555 1_555
H7_2 C15_2 1_555 1_555
O3_2 C9_2 1_555 1_555
O4_2 C9_2 1_555 1_555
Eu4_2 O4_2 1_555 1_555
C1_3 C2_3 1_555 1_555
C2_3 C3_3 1_555 1_555
C3_3 H1_3 1_555 1_555
C7_3 C2_3 1_555 1_555
H4_3 C7_3 1_555 1_555
O1_2 C1_3 1_555 1_555
O2_2 C1_3 1_555 1_555
Eu3 O1_2 1_555 1_555
O2_2 Eu3 1_555 1_555
C22_3 C21_3 1_555 1_555
H12_3 C22_3 1_555 1_555
H13_3 C22_3 1_555 1_555
O7_3 C22_3 1_555 1_555
Eu3_2 N2_3 1_555 1_555
O8_2 Eu3_2 1_555 1_555
O12_3 Eu3_2 1_555 1_555
O13_3 Eu3_2 1_555 1_555
C21_3 N2_3 1_555 1_555
O7_3 Eu3_2 1_555 1_555
H2_3 C4_3 1_555 1_555
C5_3 C4_3 1_555 1_555
C6_3 C5_3 1_555 1_555
H3_3 C6_3 1_555 1_555
C8_3 C5_3 1_555 1_555
C9_3 C10_3 1_555 1_555
C10_3 C11_3 1_555 1_555
C11_3 H5_3 1_555 1_555
C12_3 C11_3 1_555 1_555
C13_3 C12_3 1_555 1_555
H6_3 C13_3 1_555 1_555
C14_3 C13_3 1_555 1_555
C15_3 C10_3 1_555 1_555
H7_3 C15_3 1_555 1_555
C16_3 C12_3 1_555 1_555
N1_3 C8_3 1_555 1_555
O10_2 C9_3 1_555 1_555
O11_2 C9_3 1_555 1_555
O5_3 C16_3 1_555 1_555
O6_3 C16_3 1_555 1_555
H14_3 C8_3 1_555 1_555
Eu4_2 O6_3 1_555 1_555
C14_3 C15_3 1_555 1_555
C14_3 N1_3 1_555 1_555
H2_4 C4_4 1_555 1_555
C5_4 C4_4 1_555 1_555
C6_4 C5_4 1_555 1_555
H3_4 C6_4 1_555 1_555
C8_4 C5_4 1_555 1_555
C9_4 C10_4 1_555 1_555
C10_4 C11_4 1_555 1_555
C11_4 H5_4 1_555 1_555
C12_4 C11_4 1_555 1_555
C13_4 C12_4 1_555 1_555
H6_4 C13_4 1_555 1_555
C14_4 C13_4 1_555 1_555
C15_4 C10_4 1_555 1_555
H7_4 C15_4 1_555 1_555
C16_4 C12_4 1_555 1_555
C22_4 C21_4 1_555 1_555
H12_4 C22_4 1_555 1_555
H13_4 C22_4 1_555 1_555
N1_4 C8_4 1_555 1_555
O10 C9_4 1_555 1_555
O11 C9_4 1_555 1_555
O5_4 C16_4 1_555 1_555
O6_4 C16_4 1_555 1_555
O7_4 C22_4 1_555 1_555
H14_4 C8_4 1_555 1_555
Eu3 N2_4 1_555 1_555
O12_4 Eu3 1_555 1_555
O13_4 Eu3 1_555 1_555
Eu4 O6_4 1_555 1_555
C14_4 C15_4 1_555 1_555
C14_4 N1_4 1_555 1_555
C21_4 N2_4 1_555 1_555
O5_4 Eu3 1_555 1_555
O7_4 Eu3 1_555 1_555
O12_4 Eu4 1_555 1_555
C1_4 C2_4 1_555 1_555
C2_4 C3_4 1_555 1_555
C3_4 H1_4 1_555 1_555
C7_4 C2_4 1_555 1_555
H4_4 C7_4 1_555 1_555
O9_2 C1_4 1_555 1_555
C9_5 C10_5 1_555 1_555
C15_5 C10_5 1_555 1_555
H7_5 C15_5 1_555 1_555
O3_3 C9_5 1_555 1_555
O12_2 C9_5 1_555 1_555
Eu5_2 O3_3 1_555 1_555
C1_5 C2_5 1_555 1_555
C2_5 C3_5 1_555 1_555
C3_5 H1_5 1_555 1_555
C4_5 C3_5 1_555 1_555
H2_5 C4_5 1_555 1_555
C5_5 C4_5 1_555 1_555
C6_5 C5_5 1_555 1_555
H3_5 C6_5 1_555 1_555
C7_5 C2_5 1_555 1_555
H4_5 C7_5 1_555 1_555
C8_5 C5_5 1_555 1_555
C11_5 H5_5 1_555 1_555
C12_5 C11_5 1_555 1_555
C13_5 C12_5 1_555 1_555
H6_5 C13_5 1_555 1_555
C14_5 C13_5 1_555 1_555
C16_5 C12_5 1_555 1_555
N1_5 C8_5 1_555 1_555
O1_3 C1_5 1_555 1_555
O2_3 C1_5 1_555 1_555
O5_5 C16_5 1_555 1_555
O13_3 C16_5 1_555 1_555
H14_5 C8_5 1_555 1_555
Eu4 O1_3 1_555 1_555
C6_5 C7_5 1_555 1_555
C14_5 N1_5 1_555 1_555
O2_3 Eu4 1_555 1_555
C17_3 H8_3 1_555 1_555
C18_3 C17_3 1_555 1_555
H9_3 C18_3 1_555 1_555
C19_3 C18_3 1_555 1_555
H10_3 C19_3 1_555 1_555
C20_3 C19_3 1_555 1_555
H11_3 C20_3 1_555 1_555
C21_5 C20_3 1_555 1_555
C22_5 C21_5 1_555 1_555
H12_5 C22_5 1_555 1_555
H13_5 C22_5 1_555 1_555
N2_5 C17_3 1_555 1_555
O7_5 C22_5 1_555 1_555
Eu4_2 N2_5 1_555 1_555
O8_3 Eu4_2 1_555 1_555
C21_5 N2_5 1_555 1_555
O7_5 Eu4_2 1_555 1_555
C9_6 C10_6 1_555 1_555
C15_6 C10_6 1_555 1_555
H7_6 C15_6 1_555 1_555
O3_4 C9_6 1_555 1_555
O12 C9_6 1_555 1_555
C1_6 C2_6 1_555 1_555
C2_6 C3_6 1_555 1_555
C3_6 H1_6 1_555 1_555
C4_6 C3_6 1_555 1_555
H2_6 C4_6 1_555 1_555
C5_6 C4_6 1_555 1_555
C6_6 C5_6 1_555 1_555
H3_6 C6_6 1_555 1_555
C7_6 C2_6 1_555 1_555
H4_6 C7_6 1_555 1_555
C8_6 C5_6 1_555 1_555
C11_6 H5_6 1_555 1_555
C12_6 C11_6 1_555 1_555
C13_6 C12_6 1_555 1_555
H6_6 C13_6 1_555 1_555
C14_6 C13_6 1_555 1_555
C16_6 C12_6 1_555 1_555
C17_4 H8_4 1_555 1_555
C18_4 C17_4 1_555 1_555
H9_4 C18_4 1_555 1_555
C19_4 C18_4 1_555 1_555
H10_4 C19_4 1_555 1_555
C20_4 C19_4 1_555 1_555
H11_4 C20_4 1_555 1_555
C21_6 C20_4 1_555 1_555
C22_6 C21_6 1_555 1_555
H12_6 C22_6 1_555 1_555
H13_6 C22_6 1_555 1_555
N1_6 C8_6 1_555 1_555
N2_6 C17_4 1_555 1_555
O9_3 C1_6 1_555 1_555
O5_6 C16_6 1_555 1_555
O13_4 C16_6 1_555 1_555
O7_6 C22_6 1_555 1_555
H14_6 C8_6 1_555 1_555
Eu4 N2_6 1_555 1_555
O10_4 Eu4 1_555 1_555
C6_6 C7_6 1_555 1_555
C14_6 N1_6 1_555 1_555
C21_6 N2_6 1_555 1_555
O5_6 Eu4 1_555 1_555
O7_6 Eu4 1_555 1_555
H2_7 C4_7 1_555 1_555
C5_7 C4_7 1_555 1_555
C6_7 C5_7 1_555 1_555
H3_7 C6_7 1_555 1_555
C8_7 C5_7 1_555 1_555
C9_7 C10_7 1_555 1_555
C10_7 C11_7 1_555 1_555
C11_7 H5_7 1_555 1_555
C12_7 C11_7 1_555 1_555
C13_7 C12_7 1_555 1_555
H6_7 C13_7 1_555 1_555
C14_7 C13_7 1_555 1_555
C15_7 C10_7 1_555 1_555
H7_7 C15_7 1_555 1_555
C16_7 C12_7 1_555 1_555
N1_7 C8_7 1_555 1_555
O10_4 C9_7 1_555 1_555
O12_4 C9_7 1_555 1_555
O5_7 C16_7 1_555 1_555
O13 C16_7 1_555 1_555
H14_7 C8_7 1_555 1_555
C14_7 C15_7 1_555 1_555
C14_7 N1_7 1_555 1_555
C22_7 C21_7 1_555 1_555
H12_7 C22_7 1_555 1_555
H13_7 C22_7 1_555 1_555
O7_7 C22_7 1_555 1_555
Eu5 N2_7 1_555 1_555
O8_4 Eu5 1_555 1_555
C21_7 N2_7 1_555 1_555
O7_7 Eu5 1_555 1_555
C1_7 C2_7 1_555 1_555
C2_7 C3_7 1_555 1_555
C3_7 H1_7 1_555 1_555
C7_7 C2_7 1_555 1_555
H4_7 C7_7 1_555 1_555
O1_4 C1_7 1_555 1_555
O2_4 C1_7 1_555 1_555
Eu5_2 O1_4 1_555 1_555
O2_4 Eu5_2 1_555 1_555
C1_8 C2_8 1_555 1_555
C2_8 C3_8 1_555 1_555
C3_8 H1_8 1_555 1_555
C7_8 C2_8 1_555 1_555
H4_8 C7_8 1_555 1_555
O9_4 C1_8 1_555 1_555
H2_8 C4_8 1_555 1_555
C5_8 C4_8 1_555 1_555
C6_8 C5_8 1_555 1_555
H3_8 C6_8 1_555 1_555
C8_8 C5_8 1_555 1_555
C9_8 C10_8 1_555 1_555
C10_8 C11_8 1_555 1_555
C11_8 H5_8 1_555 1_555
C12_8 C11_8 1_555 1_555
C13_8 C12_8 1_555 1_555
H6_8 C13_8 1_555 1_555
C14_8 C13_8 1_555 1_555
C15_8 C10_8 1_555 1_555
H7_8 C15_8 1_555 1_555
C16_8 C12_8 1_555 1_555
C22_8 C21_8 1_555 1_555
H12_8 C22_8 1_555 1_555
H13_8 C22_8 1_555 1_555
N1_8 C8_8 1_555 1_555
O10_3 C9_8 1_555 1_555
O12_3 C9_8 1_555 1_555
O5_8 C16_8 1_555 1_555
O13_2 C16_8 1_555 1_555
O7_8 C22_8 1_555 1_555
H14_8 C8_8 1_555 1_555
Eu5_2 N2_8 1_555 1_555
C14_8 C15_8 1_555 1_555
C14_8 N1_8 1_555 1_555
C21_8 N2_8 1_555 1_555
O5_8 Eu5_2 1_555 1_555
O7_8 Eu5_2 1_555 1_555
C17_5 H8_5 1_555 1_555
C18_5 C17_5 1_555 1_555
H9_5 C18_5 1_555 1_555
C19_5 C18_5 1_555 1_555
H10_5 C19_5 1_555 1_555
C20_5 C19_5 1_555 1_555
H11_5 C20_5 1_555 1_555
C17_6 H8_6 1_555 1_555
C18_6 C17_6 1_555 1_555
H9_6 C18_6 1_555 1_555
C19_6 C18_6 1_555 1_555
H10_6 C19_6 1_555 1_555
C20_6 C19_6 1_555 1_555
H11_6 C20_6 1_555 1_555
C17_7 H8_7 1_555 1_555
C18_7 C17_7 1_555 1_555
H9_7 C18_7 1_555 1_555
C19_7 C18_7 1_555 1_555
H10_7 C19_7 1_555 1_555
C20_7 C19_7 1_555 1_555
H11_7 C20_7 1_555 1_555
C17_8 H8_8 1_555 1_555
C18_8 C17_8 1_555 1_555
H9_8 C18_8 1_555 1_555
C19_8 C18_8 1_555 1_555
H10_8 C19_8 1_555 1_555
C20_8 C19_8 1_555 1_555
H11_8 C20_8 1_555 1_555

#END
