
###############################################################################
#
# This file contains modified crystal structure data generated from the
# MOF subset of the Cambridge Structural Database (CSD) v543 
# hosted by the Cambridge Crystallographic Data Centre (CCDC).
#
# This work is licensed under the Creative Commons
# Attribution-NonCommercial-ShareAlike 4.0 International License.
# To view a copy of this license, visit
# http://creativecommons.org/licenses/by-nc-sa/4.0/
# or send a letter to
# Creative Commons, PO Box 1866, Mountain View, CA 94042, USA.
#
# CIF created using the CSD Python API on 29 September 2022
# The structure has been converted into the P1 space group
# The structure has a 3D framework
# The original CSD entry CUWXID is in the monoclinic crystal system
# The framework has been calculated to contain at least 10.0% void space
# The void calculation uses a probe of radius 1.32A, grid spacing 0.4
# H atom positions have been added when not included in the experimental data
#
###############################################################################

data_CUWXID
_chemical_formula_moiety         '(C152 H136 Eu8 N16 O64)n'
_symmetry_cell_setting           triclinic
_symmetry_space_group_name_H-M   'P 1'
_symmetry_Int_Tables_number      1
_space_group_name_Hall           'P 1'
loop_
_symmetry_equiv_pos_site_id
_symmetry_equiv_pos_as_xyz
1 x,y,z
_cell_length_a                   28.735(2)
_cell_length_b                   14.2112(9)
_cell_length_c                   14.3322(8)
_cell_angle_alpha                90
_cell_angle_beta                 95.126(5)
_cell_angle_gamma                90
_cell_volume                     5829.27
loop_
_atom_site_label
_atom_site_type_symbol
_atom_site_fract_x
_atom_site_fract_y
_atom_site_fract_z
Eu1 Eu 0.314776(14) 0.19578(3) 0.52389(3)
C1 C 0.4024(3) 0.2535(7) 0.4698(8)
C2 C 0.4461(4) 0.2866(8) 0.4314(8)
C3 C 0.4734(5) 0.2235(10) 0.3903(13)
H1 H 0.4634 0.1617 0.3808
C4 C 0.5164(5) 0.2520(11) 0.3625(13)
H2 H 0.5363 0.2073 0.3405
C5 C 0.5297(4) 0.3427(8) 0.3668(9)
C6 C 0.5023(4) 0.4064(8) 0.4024(8)
H3 H 0.5113 0.4692 0.4046
C7 C 0.4595(4) 0.3800(8) 0.4371(8)
H4 H 0.4408 0.4246 0.4631
C8 C 0.5765(4) 0.3709(9) 0.3340(9)
H5 H 0.594(4) 0.316(6) 0.354(10)
C9 C 0.7439(3) 0.6029(6) 0.3922(6)
C10 C 0.7124(3) 0.5388(6) 0.3338(6)
C11 C 0.6655(3) 0.5303(7) 0.3495(7)
H6 H 0.6527 0.5715 0.3907
C12 C 0.6377(3) 0.4624(6) 0.3055(7)
C13 C 0.6558(3) 0.4080(7) 0.2360(7)
H7 H 0.6368 0.3646 0.2024
C14 C 0.7023(3) 0.4183(6) 0.2166(6)
C15 C 0.7305(3) 0.4829(6) 0.2667(6)
H8 H 0.7617 0.4888 0.2553
C16 C 0.7219(3) 0.3550(7) 0.1454(7)
C17 C 0.3442(12) 0.007(2) 0.6491(17)
N1 N 0.5918(3) 0.4498(6) 0.3331(6)
O1 O 0.3815(2) 0.3080(5) 0.5219(5)
O2 O 0.3876(2) 0.1737(5) 0.4508(6)
O3 O 0.7871(2) 0.5851(4) 0.4029(5)
O4 O 0.7270(2) 0.6721(4) 0.4340(4)
O5 O 0.7623(2) 0.3731(5) 0.1238(5)
O6 O 0.6958(2) 0.2899(4) 0.1121(5)
O7 O 0.3463(4) 0.0392(8) 0.5686(11)
O8 O 0.3530(4) 0.2119(8) 0.6803(7)
Eu3 Eu 0.814776(14) 0.69578(3) 0.52389(3)
Eu4 Eu 0.685224(14) 0.80422(3) 0.47611(3)
Eu5 Eu 0.814776(14) 0.30422(3) 0.02389(3)
O9 O 0.2871(2) 0.0851(4) 0.4029(5)
O10 O 0.2270(2) 0.1721(4) 0.4340(4)
O11 O 0.2730(2) 0.3279(4) 0.5660(4)
O12 O 0.2623(2) 0.1269(5) 0.6238(5)
O13 O 0.3042(2) 0.2899(4) 0.3879(5)
H15 H 0.336333 0.0476877 0.710132
H16 H 0.351613 0.278622 0.700441
H17 H 0.336941 0.171646 0.724101
Eu2 Eu 0.685224(14) 0.19578(3) 0.97611(3)
C1_2 C 0.5976(3) 0.2535(7) 0.0302(8)
C2_2 C 0.5539(4) 0.2866(8) 0.0686(8)
C3_2 C 0.5266(5) 0.2235(10) 0.1097(13)
H1_2 H 0.5366 0.1617 0.1192
C4_2 C 0.4836(5) 0.2520(11) 0.1375(13)
H2_2 H 0.4637 0.2073 0.1595
C5_2 C 0.4703(4) 0.3427(8) 0.1332(9)
C6_2 C 0.4977(4) 0.4064(8) 0.0976(8)
H3_2 H 0.4887 0.4692 0.0954
C7_2 C 0.5405(4) 0.3800(8) 0.0629(8)
H4_2 H 0.5592 0.4246 0.0369
C8_2 C 0.4235(4) 0.3709(9) 0.1660(9)
H5_2 H 0.406(4) 0.316(6) 0.146(10)
C9_2 C 0.2561(3) 0.6029(6) 0.1078(6)
C10_2 C 0.2876(3) 0.5388(6) 0.1662(6)
C11_2 C 0.3345(3) 0.5303(7) 0.1505(7)
H6_2 H 0.3473 0.5715 0.1093
C12_2 C 0.3623(3) 0.4624(6) 0.1945(7)
C13_2 C 0.3442(3) 0.4080(7) 0.2640(7)
H7_2 H 0.3632 0.3646 0.2976
C14_2 C 0.2977(3) 0.4183(6) 0.2834(6)
C15_2 C 0.2695(3) 0.4829(6) 0.2333(6)
H8_2 H 0.2383 0.4888 0.2447
C16_2 C 0.2781(3) 0.3550(7) 0.3546(7)
N1_2 N 0.4082(3) 0.4498(6) 0.1669(6)
O2_2 O 0.6124(2) 0.1737(5) 0.0492(6)
O3_2 O 0.2129(2) 0.5851(4) 0.0971(5)
O4_2 O 0.2730(2) 0.6721(4) 0.0660(4)
O5_2 O 0.2377(2) 0.3731(5) 0.3762(5)
Eu4_2 Eu 0.314776(14) 0.80422(3) 0.02389(3)
Eu5_2 Eu 0.185224(14) 0.30422(3) 0.47611(3)
O9_2 O 0.7129(2) 0.0851(4) 0.0971(5)
O10_2 O 0.7730(2) 0.1721(4) 0.0660(4)
C17_2 C 0.6558(12) 0.007(2) 0.8509(17)
O1_2 O 0.6185(2) 0.3080(5) 0.9781(5)
O7_2 O 0.6537(4) 0.0392(8) 0.9314(11)
O8_2 O 0.6470(4) 0.2119(8) 0.8197(7)
Eu3_2 Eu 0.185224(14) 0.69578(3) 0.97611(3)
O11_2 O 0.7270(2) 0.3279(4) 0.9340(4)
O12_2 O 0.7377(2) 0.1269(5) 0.8762(5)
H15_2 H 0.663667 0.0476877 0.789868
H16_2 H 0.648387 0.278622 0.799559
H17_2 H 0.663059 0.171646 0.775899
C9_3 C 0.2439(3) 0.1029(6) 0.3922(6)
C10_3 C 0.2124(3) 0.0388(6) 0.3338(6)
C11_3 C 0.1655(3) 0.0303(7) 0.3495(7)
H6_3 H 0.1527 0.0715 0.3907
C4_3 C 0.0164(5) 0.7520(11) 0.3625(13)
H2_3 H 0.0363 0.7073 0.3405
C5_3 C 0.0297(4) 0.8427(8) 0.3668(9)
C6_3 C 0.0023(4) 0.9064(8) 0.4024(8)
H3_3 H 0.0113 0.9692 0.4046
C8_3 C 0.0765(4) 0.8709(9) 0.3340(9)
H5_3 H 0.094(4) 0.816(6) 0.354(10)
C12_3 C 0.1377(3) 0.9624(6) 0.3055(7)
C13_3 C 0.1558(3) 0.9080(7) 0.2360(7)
H7_3 H 0.1368 0.8646 0.2024
C14_3 C 0.2023(3) 0.9183(6) 0.2166(6)
C15_3 C 0.2305(3) 0.9829(6) 0.2667(6)
H8_3 H 0.2617 0.9888 0.2553
C16_3 C 0.2219(3) 0.8550(7) 0.1454(7)
N1_3 N 0.0918(3) 0.9498(6) 0.3331(6)
O5_3 O 0.2623(2) 0.8731(5) 0.1238(5)
O6_2 O 0.1958(2) 0.7899(4) 0.1121(5)
C1_3 C 0.9024(3) 0.7535(7) 0.4698(8)
C2_3 C 0.9461(4) 0.7866(8) 0.4314(8)
C3_3 C 0.9734(5) 0.7235(10) 0.3903(13)
H1_3 H 0.9634 0.6617 0.3808
C7_3 C 0.9595(4) 0.8800(8) 0.4371(8)
H4_3 H 0.9408 0.9246 0.4631
C17_3 C 0.8442(12) 0.507(2) 0.6491(17)
C18 C 0.8660(13) 0.344(2) 0.572(2)
H9 H 0.8565 0.3721 0.5128
H10 H 0.8501 0.2845 0.5770
H11 H 0.8991 0.3330 0.5773
C19 C 0.8626(12) 0.376(2) 0.746(2)
H12 H 0.8690 0.3099 0.7475
H13 H 0.8356 0.3890 0.7785
H14 H 0.8890 0.4096 0.7751
N2 N 0.8539(10) 0.4067(19) 0.6486(19)
O1_3 O 0.8815(2) 0.8080(5) 0.5219(5)
O2_3 O 0.8876(2) 0.6737(5) 0.4508(6)
O7_3 O 0.8463(4) 0.5392(8) 0.5686(11)
O8_3 O 0.8530(4) 0.7119(8) 0.6803(7)
O11_3 O 0.7730(2) 0.8279(4) 0.5660(4)
O12_3 O 0.7623(2) 0.6269(5) 0.6238(5)
O13_2 O 0.8042(2) 0.7899(4) 0.3879(5)
H15_3 H 0.836333 0.547688 0.710132
H16_3 H 0.851613 0.778622 0.700441
H17_3 H 0.836941 0.671646 0.724101
C1_4 C 0.0976(3) 0.7535(7) 0.0302(8)
C2_4 C 0.0539(4) 0.7866(8) 0.0686(8)
C3_4 C 0.0266(5) 0.7235(10) 0.1097(13)
H1_4 H 0.0366 0.6617 0.1192
C7_4 C 0.0405(4) 0.8800(8) 0.0629(8)
H4_4 H 0.0592 0.9246 0.0369
O2_4 O 0.1124(2) 0.6737(5) 0.0492(6)
C17_4 C 0.1558(12) 0.507(2) 0.8509(17)
C18_2 C 0.1340(13) 0.344(2) 0.928(2)
H9_2 H 0.1435 0.3721 0.9872
H10_2 H 0.1499 0.2845 0.9230
H11_2 H 0.1009 0.3330 0.9227
C19_2 C 0.1374(12) 0.376(2) 0.754(2)
H12_2 H 0.1310 0.3099 0.7525
H13_2 H 0.1644 0.3890 0.7215
H14_2 H 0.1110 0.4096 0.7249
N2_2 N 0.1461(10) 0.4067(19) 0.8514(19)
O1_4 O 0.1185(2) 0.8080(5) 0.9781(5)
O7_4 O 0.1537(4) 0.5392(8) 0.9314(11)
O8_4 O 0.1470(4) 0.7119(8) 0.8197(7)
O11_4 O 0.2270(2) 0.8279(4) 0.9340(4)
O12_4 O 0.2377(2) 0.6269(5) 0.8762(5)
H15_4 H 0.163667 0.547688 0.789868
H16_4 H 0.148387 0.778622 0.799559
H17_4 H 0.163059 0.671646 0.775899
C9_4 C 0.7561(3) 0.1029(6) 0.1078(6)
C10_4 C 0.7876(3) 0.0388(6) 0.1662(6)
C11_4 C 0.8345(3) 0.0303(7) 0.1505(7)
H6_4 H 0.8473 0.0715 0.1093
C4_4 C 0.9836(5) 0.7520(11) 0.1375(13)
H2_4 H 0.9637 0.7073 0.1595
C5_4 C 0.9703(4) 0.8427(8) 0.1332(9)
C6_4 C 0.9977(4) 0.9064(8) 0.0976(8)
H3_4 H 0.9887 0.9692 0.0954
C8_4 C 0.9235(4) 0.8709(9) 0.1660(9)
H5_4 H 0.906(4) 0.816(6) 0.146(10)
C12_4 C 0.8623(3) 0.9624(6) 0.1945(7)
C13_4 C 0.8442(3) 0.9080(7) 0.2640(7)
H7_4 H 0.8632 0.8646 0.2976
C14_4 C 0.7977(3) 0.9183(6) 0.2834(6)
C15_4 C 0.7695(3) 0.9829(6) 0.2333(6)
H8_4 H 0.7383 0.9888 0.2447
C16_4 C 0.7781(3) 0.8550(7) 0.3546(7)
N1_4 N 0.9082(3) 0.9498(6) 0.1669(6)
O5_4 O 0.7377(2) 0.8731(5) 0.3762(5)
C1_5 C 0.5976(3) 0.7465(7) 0.5302(8)
C2_5 C 0.5539(4) 0.7134(8) 0.5686(8)
C3_5 C 0.5266(5) 0.7765(10) 0.6097(13)
H1_5 H 0.5366 0.8383 0.6192
C4_5 C 0.4836(5) 0.7480(11) 0.6375(13)
H2_5 H 0.4637 0.7927 0.6595
C5_5 C 0.4703(4) 0.6573(8) 0.6332(9)
C6_5 C 0.4977(4) 0.5936(8) 0.5976(8)
H3_5 H 0.4887 0.5308 0.5954
C7_5 C 0.5405(4) 0.6200(8) 0.5629(8)
H4_5 H 0.5592 0.5754 0.5369
C8_5 C 0.4235(4) 0.6291(9) 0.6660(9)
H5_5 H 0.406(4) 0.684(6) 0.646(10)
C9_5 C 0.2561(3) 0.3971(6) 0.6078(6)
C10_5 C 0.2876(3) 0.4612(6) 0.6662(6)
C11_5 C 0.3345(3) 0.4697(7) 0.6505(7)
H6_5 H 0.3473 0.4285 0.6093
C12_5 C 0.3623(3) 0.5376(6) 0.6945(7)
C13_5 C 0.3442(3) 0.5920(7) 0.7640(7)
H7_5 H 0.3632 0.6354 0.7976
C14_5 C 0.2977(3) 0.5817(6) 0.7834(6)
C15_5 C 0.2695(3) 0.5171(6) 0.7333(6)
H8_5 H 0.2383 0.5112 0.7447
C16_5 C 0.2781(3) 0.6450(7) 0.8546(7)
C17_5 C 0.6558(12) 0.993(2) 0.3509(17)
N1_5 N 0.4082(3) 0.5502(6) 0.6669(6)
O1_5 O 0.6185(2) 0.6920(5) 0.4781(5)
O2_5 O 0.6124(2) 0.8263(5) 0.5492(6)
O3_3 O 0.2129(2) 0.4149(4) 0.5971(5)
O6_3 O 0.3042(2) 0.7101(4) 0.8879(5)
O7_5 O 0.6537(4) 0.9608(8) 0.4314(11)
O8_5 O 0.6470(4) 0.7881(8) 0.3197(7)
O9_3 O 0.7129(2) 0.9149(4) 0.5971(5)
O13_3 O 0.6958(2) 0.7101(4) 0.6121(5)
H15_5 H 0.663667 0.952312 0.289868
H16_5 H 0.648387 0.721378 0.299559
H17_5 H 0.663059 0.828354 0.275899
C17_6 C 0.3442(12) 0.993(2) 0.1491(17)
O1_6 O 0.3815(2) 0.6920(5) 0.0219(5)
O7_6 O 0.3463(4) 0.9608(8) 0.0686(11)
O8_6 O 0.3530(4) 0.7881(8) 0.1803(7)
H15_6 H 0.336333 0.952312 0.210132
H16_6 H 0.351613 0.721378 0.200441
H17_6 H 0.336941 0.828354 0.224101
C1_6 C 0.4024(3) 0.7465(7) 0.9698(8)
C2_6 C 0.4461(4) 0.7134(8) 0.9314(8)
C3_6 C 0.4734(5) 0.7765(10) 0.8903(13)
H1_6 H 0.4634 0.8383 0.8808
C4_6 C 0.5164(5) 0.7480(11) 0.8625(13)
H2_6 H 0.5363 0.7927 0.8405
C5_6 C 0.5297(4) 0.6573(8) 0.8668(9)
C6_6 C 0.5023(4) 0.5936(8) 0.9024(8)
H3_6 H 0.5113 0.5308 0.9046
C7_6 C 0.4595(4) 0.6200(8) 0.9371(8)
H4_6 H 0.4408 0.5754 0.9631
C8_6 C 0.5765(4) 0.6291(9) 0.8340(9)
H5_6 H 0.594(4) 0.684(6) 0.854(10)
C9_6 C 0.7439(3) 0.3971(6) 0.8922(6)
C10_6 C 0.7124(3) 0.4612(6) 0.8338(6)
C11_6 C 0.6655(3) 0.4697(7) 0.8495(7)
H6_6 H 0.6527 0.4285 0.8907
C12_6 C 0.6377(3) 0.5376(6) 0.8055(7)
C13_6 C 0.6558(3) 0.5920(7) 0.7360(7)
H7_6 H 0.6368 0.6354 0.7024
C14_6 C 0.7023(3) 0.5817(6) 0.7166(6)
C15_6 C 0.7305(3) 0.5171(6) 0.7667(6)
H8_6 H 0.7617 0.5112 0.7553
C16_6 C 0.7219(3) 0.6450(7) 0.6454(7)
N1_6 N 0.5918(3) 0.5502(6) 0.8331(6)
O2_6 O 0.3876(2) 0.8263(5) 0.9508(6)
O3_4 O 0.7871(2) 0.4149(4) 0.9029(5)
O9_4 O 0.2871(2) 0.9149(4) 0.9029(5)
C1_7 C 0.0976(3) 0.2465(7) 0.5302(8)
C2_7 C 0.0539(4) 0.2134(8) 0.5686(8)
C3_7 C 0.0266(5) 0.2765(10) 0.6097(13)
H1_7 H 0.0366 0.3383 0.6192
C7_7 C 0.0405(4) 0.1200(8) 0.5629(8)
H4_7 H 0.0592 0.0754 0.5369
C17_7 C 0.1558(12) 0.493(2) 0.3509(17)
C18_3 C 0.1340(13) 0.656(2) 0.428(2)
H9_3 H 0.1435 0.6279 0.4872
H10_3 H 0.1499 0.7155 0.4230
H11_3 H 0.1009 0.6670 0.4227
C19_3 C 0.1374(12) 0.624(2) 0.254(2)
H12_3 H 0.1310 0.6901 0.2525
H13_3 H 0.1644 0.6110 0.2215
H14_3 H 0.1110 0.5904 0.2249
N2_3 N 0.1461(10) 0.5933(19) 0.3514(19)
O1_7 O 0.1185(2) 0.1920(5) 0.4781(5)
O2_7 O 0.1124(2) 0.3263(5) 0.5492(6)
O7_7 O 0.1537(4) 0.4608(8) 0.4314(11)
O8_7 O 0.1470(4) 0.2881(8) 0.3197(7)
O13_4 O 0.1958(2) 0.2101(4) 0.6121(5)
H15_7 H 0.163667 0.452312 0.289868
H16_7 H 0.148387 0.221378 0.299559
H17_7 H 0.163059 0.328354 0.275899
C4_7 C 0.9836(5) 0.2480(11) 0.6375(13)
H2_7 H 0.9637 0.2927 0.6595
C5_7 C 0.9703(4) 0.1573(8) 0.6332(9)
C6_7 C 0.9977(4) 0.0936(8) 0.5976(8)
H3_7 H 0.9887 0.0308 0.5954
C8_7 C 0.9235(4) 0.1291(9) 0.6660(9)
H5_7 H 0.906(4) 0.184(6) 0.646(10)
C12_7 C 0.8623(3) 0.0376(6) 0.6945(7)
C13_7 C 0.8442(3) 0.0920(7) 0.7640(7)
H7_7 H 0.8632 0.1354 0.7976
C14_7 C 0.7977(3) 0.0817(6) 0.7834(6)
C15_7 C 0.7695(3) 0.0171(6) 0.7333(6)
H8_7 H 0.7383 0.0112 0.7447
C16_7 C 0.7781(3) 0.1450(7) 0.8546(7)
N1_7 N 0.9082(3) 0.0502(6) 0.6669(6)
O6_4 O 0.8042(2) 0.2101(4) 0.8879(5)
C9_7 C 0.7561(3) 0.8971(6) 0.6078(6)
C10_7 C 0.7876(3) 0.9612(6) 0.6662(6)
C11_7 C 0.8345(3) 0.9697(7) 0.6505(7)
H6_7 H 0.8473 0.9285 0.6093
C4_8 C 0.0164(5) 0.2480(11) 0.8625(13)
H2_8 H 0.0363 0.2927 0.8405
C5_8 C 0.0297(4) 0.1573(8) 0.8668(9)
C6_8 C 0.0023(4) 0.0936(8) 0.9024(8)
H3_8 H 0.0113 0.0308 0.9046
C8_8 C 0.0765(4) 0.1291(9) 0.8340(9)
H5_8 H 0.094(4) 0.184(6) 0.854(10)
C12_8 C 0.1377(3) 0.0376(6) 0.8055(7)
C13_8 C 0.1558(3) 0.0920(7) 0.7360(7)
H7_8 H 0.1368 0.1354 0.7024
C14_8 C 0.2023(3) 0.0817(6) 0.7166(6)
C15_8 C 0.2305(3) 0.0171(6) 0.7667(6)
H8_8 H 0.2617 0.0112 0.7553
C16_8 C 0.2219(3) 0.1450(7) 0.6454(7)
N1_8 N 0.0918(3) 0.0502(6) 0.8331(6)
C9_8 C 0.2439(3) 0.8971(6) 0.8922(6)
C10_8 C 0.2124(3) 0.9612(6) 0.8338(6)
C11_8 C 0.1655(3) 0.9697(7) 0.8495(7)
H6_8 H 0.1527 0.9285 0.8907
C17_8 C 0.8442(12) 0.493(2) 0.1491(17)
C18_4 C 0.8660(13) 0.656(2) 0.072(2)
H9_4 H 0.8565 0.6279 0.0128
H10_4 H 0.8501 0.7155 0.0770
H11_4 H 0.8991 0.6670 0.0773
C19_4 C 0.8626(12) 0.624(2) 0.246(2)
H12_4 H 0.8690 0.6901 0.2475
H13_4 H 0.8356 0.6110 0.2785
H14_4 H 0.8890 0.5904 0.2751
N2_4 N 0.8539(10) 0.5933(19) 0.1486(19)
O1_8 O 0.8815(2) 0.1920(5) 0.0219(5)
O7_8 O 0.8463(4) 0.4608(8) 0.0686(11)
O8_8 O 0.8530(4) 0.2881(8) 0.1803(7)
H15_8 H 0.836333 0.452312 0.210132
H16_8 H 0.851613 0.221378 0.200441
H17_8 H 0.836941 0.328354 0.224101
C1_8 C 0.9024(3) 0.2465(7) 0.9698(8)
C2_8 C 0.9461(4) 0.2134(8) 0.9314(8)
C3_8 C 0.9734(5) 0.2765(10) 0.8903(13)
H1_8 H 0.9634 0.3383 0.8808
C7_8 C 0.9595(4) 0.1200(8) 0.9371(8)
H4_8 H 0.9408 0.0754 0.9631
O2_8 O 0.8876(2) 0.3263(5) 0.9508(6)
C18_5 C 0.3660(13) 0.844(2) 0.572(2)
H9_5 H 0.3565 0.8721 0.5128
H10_5 H 0.3501 0.7845 0.5770
H11_5 H 0.3991 0.8330 0.5773
C19_5 C 0.3626(12) 0.876(2) 0.746(2)
H12_5 H 0.3690 0.8099 0.7475
H13_5 H 0.3356 0.8890 0.7785
H14_5 H 0.3890 0.9096 0.7751
N2_5 N 0.3539(10) 0.9067(19) 0.6486(19)
C18_6 C 0.6340(13) 0.844(2) 0.928(2)
H9_6 H 0.6435 0.8721 0.9872
H10_6 H 0.6499 0.7845 0.9230
H11_6 H 0.6009 0.8330 0.9227
C19_6 C 0.6374(12) 0.876(2) 0.754(2)
H12_6 H 0.6310 0.8099 0.7525
H13_6 H 0.6644 0.8890 0.7215
H14_6 H 0.6110 0.9096 0.7249
N2_6 N 0.6461(10) 0.9067(19) 0.8514(19)
C18_7 C 0.6340(13) 0.156(2) 0.428(2)
H9_7 H 0.6435 0.1279 0.4872
H10_7 H 0.6499 0.2155 0.4230
H11_7 H 0.6009 0.1670 0.4227
C19_7 C 0.6374(12) 0.124(2) 0.254(2)
H12_7 H 0.6310 0.1901 0.2525
H13_7 H 0.6644 0.1110 0.2215
H14_7 H 0.6110 0.0904 0.2249
N2_7 N 0.6461(10) 0.0933(19) 0.3514(19)
C18_8 C 0.3660(13) 0.156(2) 0.072(2)
H9_8 H 0.3565 0.1279 0.0128
H10_8 H 0.3501 0.2155 0.0770
H11_8 H 0.3991 0.1670 0.0773
C19_8 C 0.3626(12) 0.124(2) 0.246(2)
H12_8 H 0.3690 0.1901 0.2475
H13_8 H 0.3356 0.1110 0.2785
H14_8 H 0.3890 0.0904 0.2751
N2_8 N 0.3539(10) 0.0933(19) 0.1486(19)
loop_
_geom_bond_atom_site_label_1
_geom_bond_atom_site_label_2
_geom_bond_site_symmetry_1
_geom_bond_site_symmetry_2
Eu1 O1 1_555 1_555
C1 C2 1_555 1_555
C2 C3 1_555 1_555
C3 H1 1_555 1_555
C4 C3 1_555 1_555
H2 C4 1_555 1_555
C5 C4 1_555 1_555
C6 C5 1_555 1_555
H3 C6 1_555 1_555
C7 C2 1_555 1_555
H4 C7 1_555 1_555
C8 C5 1_555 1_555
H5 C8 1_555 1_555
C9 C10 1_555 1_555
C10 C11 1_555 1_555
C11 H6 1_555 1_555
C12 C11 1_555 1_555
C13 C12 1_555 1_555
H7 C13 1_555 1_555
C14 C13 1_555 1_555
C15 C10 1_555 1_555
H8 C15 1_555 1_555
C16 C14 1_555 1_555
N1 C8 1_555 1_555
O1 C1 1_555 1_555
O2 Eu1 1_555 1_555
O3 C9 1_555 1_555
O4 C9 1_555 1_555
O5 C16 1_555 1_555
O6 C16 1_555 1_555
O7 Eu1 1_555 1_555
O8 Eu1 1_555 1_555
Eu3 O3 1_555 1_555
Eu4 O4 1_555 1_555
Eu5 O5 1_555 1_555
O9 Eu1 1_555 1_555
O10 Eu1 1_555 1_555
O11 Eu1 1_555 1_555
O12 Eu1 1_555 1_555
O13 Eu1 1_555 1_555
C1 O2 1_555 1_555
C6 C7 1_555 1_555
C12 N1 1_555 1_555
C14 C15 1_555 1_555
C17 O7 1_555 1_555
O4 Eu3 1_555 1_555
C17 H15 1_555 1_555
O8 H16 1_555 1_555
O8 H17 1_555 1_555
C1_2 C2_2 1_555 1_555
C2_2 C3_2 1_555 1_555
C3_2 H1_2 1_555 1_555
C4_2 C3_2 1_555 1_555
H2_2 C4_2 1_555 1_555
C5_2 C4_2 1_555 1_555
C6_2 C5_2 1_555 1_555
H3_2 C6_2 1_555 1_555
C7_2 C2_2 1_555 1_555
H4_2 C7_2 1_555 1_555
C8_2 C5_2 1_555 1_555
H5_2 C8_2 1_555 1_555
C9_2 C10_2 1_555 1_555
C10_2 C11_2 1_555 1_555
C11_2 H6_2 1_555 1_555
C12_2 C11_2 1_555 1_555
C13_2 C12_2 1_555 1_555
H7_2 C13_2 1_555 1_555
C14_2 C13_2 1_555 1_555
C15_2 C10_2 1_555 1_555
H8_2 C15_2 1_555 1_555
C16_2 C14_2 1_555 1_555
N1_2 C8_2 1_555 1_555
O3_2 C9_2 1_555 1_555
O4_2 C9_2 1_555 1_555
O5_2 C16_2 1_555 1_555
O13 C16_2 1_555 1_555
Eu4_2 O4_2 1_555 1_555
Eu5_2 O5_2 1_555 1_555
C1_2 O2_2 1_555 1_555
C6_2 C7_2 1_555 1_555
C12_2 N1_2 1_555 1_555
C14_2 C15_2 1_555 1_555
Eu2 O1_2 1_555 1_555
O7_2 Eu2 1_555 1_555
O8_2 Eu2 1_555 1_555
O11_2 Eu2 1_555 1_555
O12_2 Eu2 1_555 1_555
C17_2 O7_2 1_555 1_555
C17_2 H15_2 1_555 1_555
O8_2 H16_2 1_555 1_555
O8_2 H17_2 1_555 1_555
C9_3 C10_3 1_555 1_555
C10_3 C11_3 1_555 1_555
C11_3 H6_3 1_555 1_555
O9 C9_3 1_555 1_555
O10 C9_3 1_555 1_555
Eu5_2 O10 1_555 1_555
H2_3 C4_3 1_555 1_555
C5_3 C4_3 1_555 1_555
C6_3 C5_3 1_555 1_555
H3_3 C6_3 1_555 1_555
C8_3 C5_3 1_555 1_555
H5_3 C8_3 1_555 1_555
C13_3 C12_3 1_555 1_555
H7_3 C13_3 1_555 1_555
C14_3 C13_3 1_555 1_555
H8_3 C15_3 1_555 1_555
C16_3 C14_3 1_555 1_555
N1_3 C8_3 1_555 1_555
O5_3 C16_3 1_555 1_555
O6_2 C16_3 1_555 1_555
Eu4_2 O5_3 1_555 1_555
C12_3 N1_3 1_555 1_555
C14_3 C15_3 1_555 1_555
Eu3 O1_3 1_555 1_555
C1_3 C2_3 1_555 1_555
C2_3 C3_3 1_555 1_555
C3_3 H1_3 1_555 1_555
C7_3 C2_3 1_555 1_555
H4_3 C7_3 1_555 1_555
C17_3 N2 1_555 1_555
C18 H9 1_555 1_555
H10 C18 1_555 1_555
H11 C18 1_555 1_555
C19 H12 1_555 1_555
H13 C19 1_555 1_555
H14 C19 1_555 1_555
N2 C18 1_555 1_555
O1_3 C1_3 1_555 1_555
O2_3 Eu3 1_555 1_555
O7_3 Eu3 1_555 1_555
O8_3 Eu3 1_555 1_555
O11_3 Eu3 1_555 1_555
O12_3 Eu3 1_555 1_555
O13_2 Eu3 1_555 1_555
C1_3 O2_3 1_555 1_555
C17_3 O7_3 1_555 1_555
C19 N2 1_555 1_555
C17_3 H15_3 1_555 1_555
O8_3 H16_3 1_555 1_555
O8_3 H17_3 1_555 1_555
C1_4 C2_4 1_555 1_555
C2_4 C3_4 1_555 1_555
C3_4 H1_4 1_555 1_555
C7_4 C2_4 1_555 1_555
H4_4 C7_4 1_555 1_555
C1_4 O2_4 1_555 1_555
Eu3_2 O1_4 1_555 1_555
C17_4 N2_2 1_555 1_555
C18_2 H9_2 1_555 1_555
H10_2 C18_2 1_555 1_555
H11_2 C18_2 1_555 1_555
C19_2 H12_2 1_555 1_555
H13_2 C19_2 1_555 1_555
H14_2 C19_2 1_555 1_555
N2_2 C18_2 1_555 1_555
O7_4 Eu3_2 1_555 1_555
O8_4 Eu3_2 1_555 1_555
O11_4 Eu3_2 1_555 1_555
O12_4 Eu3_2 1_555 1_555
C17_4 O7_4 1_555 1_555
C19_2 N2_2 1_555 1_555
C17_4 H15_4 1_555 1_555
O8_4 H16_4 1_555 1_555
O8_4 H17_4 1_555 1_555
C9_4 C10_4 1_555 1_555
C10_4 C11_4 1_555 1_555
C11_4 H6_4 1_555 1_555
O9_2 C9_4 1_555 1_555
O10_2 C9_4 1_555 1_555
Eu5 O10_2 1_555 1_555
H2_4 C4_4 1_555 1_555
C5_4 C4_4 1_555 1_555
C6_4 C5_4 1_555 1_555
H3_4 C6_4 1_555 1_555
C8_4 C5_4 1_555 1_555
H5_4 C8_4 1_555 1_555
C13_4 C12_4 1_555 1_555
H7_4 C13_4 1_555 1_555
C14_4 C13_4 1_555 1_555
H8_4 C15_4 1_555 1_555
C16_4 C14_4 1_555 1_555
N1_4 C8_4 1_555 1_555
O5_4 C16_4 1_555 1_555
O13_2 C16_4 1_555 1_555
Eu4 O5_4 1_555 1_555
C12_4 N1_4 1_555 1_555
C14_4 C15_4 1_555 1_555
Eu4 O1_5 1_555 1_555
C1_5 C2_5 1_555 1_555
C2_5 C3_5 1_555 1_555
C3_5 H1_5 1_555 1_555
C4_5 C3_5 1_555 1_555
H2_5 C4_5 1_555 1_555
C5_5 C4_5 1_555 1_555
C6_5 C5_5 1_555 1_555
H3_5 C6_5 1_555 1_555
C7_5 C2_5 1_555 1_555
H4_5 C7_5 1_555 1_555
C8_5 C5_5 1_555 1_555
H5_5 C8_5 1_555 1_555
C9_5 C10_5 1_555 1_555
C10_5 C11_5 1_555 1_555
C11_5 H6_5 1_555 1_555
C12_5 C11_5 1_555 1_555
C13_5 C12_5 1_555 1_555
H7_5 C13_5 1_555 1_555
C14_5 C13_5 1_555 1_555
C15_5 C10_5 1_555 1_555
H8_5 C15_5 1_555 1_555
C16_5 C14_5 1_555 1_555
N1_5 C8_5 1_555 1_555
O1_5 C1_5 1_555 1_555
O2_5 Eu4 1_555 1_555
O3_3 C9_5 1_555 1_555
O11 C9_5 1_555 1_555
O12_4 C16_5 1_555 1_555
O6_3 C16_5 1_555 1_555
O7_5 Eu4 1_555 1_555
O8_5 Eu4 1_555 1_555
Eu5_2 O3_3 1_555 1_555
O9_3 Eu4 1_555 1_555
O11_3 Eu4 1_555 1_555
O13_3 Eu4 1_555 1_555
C1_5 O2_5 1_555 1_555
C6_5 C7_5 1_555 1_555
C12_5 N1_5 1_555 1_555
C14_5 C15_5 1_555 1_555
C17_5 O7_5 1_555 1_555
O11 Eu5_2 1_555 1_555
C17_5 H15_5 1_555 1_555
O8_5 H16_5 1_555 1_555
O8_5 H17_5 1_555 1_555
Eu4_2 O1_6 1_555 1_555
O7_6 Eu4_2 1_555 1_555
O8_6 Eu4_2 1_555 1_555
C17_6 O7_6 1_555 1_555
C17_6 H15_6 1_555 1_555
O8_6 H16_6 1_555 1_555
O8_6 H17_6 1_555 1_555
C1_6 C2_6 1_555 1_555
C2_6 C3_6 1_555 1_555
C3_6 H1_6 1_555 1_555
C4_6 C3_6 1_555 1_555
H2_6 C4_6 1_555 1_555
C5_6 C4_6 1_555 1_555
C6_6 C5_6 1_555 1_555
H3_6 C6_6 1_555 1_555
C7_6 C2_6 1_555 1_555
H4_6 C7_6 1_555 1_555
C8_6 C5_6 1_555 1_555
H5_6 C8_6 1_555 1_555
C9_6 C10_6 1_555 1_555
C10_6 C11_6 1_555 1_555
C11_6 H6_6 1_555 1_555
C12_6 C11_6 1_555 1_555
C13_6 C12_6 1_555 1_555
H7_6 C13_6 1_555 1_555
C14_6 C13_6 1_555 1_555
C15_6 C10_6 1_555 1_555
H8_6 C15_6 1_555 1_555
C16_6 C14_6 1_555 1_555
N1_6 C8_6 1_555 1_555
O3_4 C9_6 1_555 1_555
O11_2 C9_6 1_555 1_555
O12_3 C16_6 1_555 1_555
O13_3 C16_6 1_555 1_555
C1_6 O2_6 1_555 1_555
C6_6 C7_6 1_555 1_555
C12_6 N1_6 1_555 1_555
C14_6 C15_6 1_555 1_555
Eu5_2 O1_7 1_555 1_555
C1_7 C2_7 1_555 1_555
C2_7 C3_7 1_555 1_555
C3_7 H1_7 1_555 1_555
C7_7 C2_7 1_555 1_555
H4_7 C7_7 1_555 1_555
C17_7 N2_3 1_555 1_555
C18_3 H9_3 1_555 1_555
H10_3 C18_3 1_555 1_555
H11_3 C18_3 1_555 1_555
C19_3 H12_3 1_555 1_555
H13_3 C19_3 1_555 1_555
H14_3 C19_3 1_555 1_555
N2_3 C18_3 1_555 1_555
O1_7 C1_7 1_555 1_555
O2_7 Eu5_2 1_555 1_555
O7_7 Eu5_2 1_555 1_555
O8_7 Eu5_2 1_555 1_555
O13_4 Eu5_2 1_555 1_555
C1_7 O2_7 1_555 1_555
C17_7 O7_7 1_555 1_555
C19_3 N2_3 1_555 1_555
C17_7 H15_7 1_555 1_555
O8_7 H16_7 1_555 1_555
O8_7 H17_7 1_555 1_555
H2_7 C4_7 1_555 1_555
C5_7 C4_7 1_555 1_555
C6_7 C5_7 1_555 1_555
H3_7 C6_7 1_555 1_555
C8_7 C5_7 1_555 1_555
H5_7 C8_7 1_555 1_555
C13_7 C12_7 1_555 1_555
H7_7 C13_7 1_555 1_555
C14_7 C13_7 1_555 1_555
H8_7 C15_7 1_555 1_555
C16_7 C14_7 1_555 1_555
N1_7 C8_7 1_555 1_555
O12_2 C16_7 1_555 1_555
O6_4 C16_7 1_555 1_555
C12_7 N1_7 1_555 1_555
C14_7 C15_7 1_555 1_555
C9_7 C10_7 1_555 1_555
C10_7 C11_7 1_555 1_555
C11_7 H6_7 1_555 1_555
O9_3 C9_7 1_555 1_555
O11_3 C9_7 1_555 1_555
H2_8 C4_8 1_555 1_555
C5_8 C4_8 1_555 1_555
C6_8 C5_8 1_555 1_555
H3_8 C6_8 1_555 1_555
C8_8 C5_8 1_555 1_555
H5_8 C8_8 1_555 1_555
C13_8 C12_8 1_555 1_555
H7_8 C13_8 1_555 1_555
C14_8 C13_8 1_555 1_555
H8_8 C15_8 1_555 1_555
C16_8 C14_8 1_555 1_555
N1_8 C8_8 1_555 1_555
O12 C16_8 1_555 1_555
O13_4 C16_8 1_555 1_555
C12_8 N1_8 1_555 1_555
C14_8 C15_8 1_555 1_555
C9_8 C10_8 1_555 1_555
C10_8 C11_8 1_555 1_555
C11_8 H6_8 1_555 1_555
O9_4 C9_8 1_555 1_555
O11_4 C9_8 1_555 1_555
Eu5 O1_8 1_555 1_555
C17_8 N2_4 1_555 1_555
C18_4 H9_4 1_555 1_555
H10_4 C18_4 1_555 1_555
H11_4 C18_4 1_555 1_555
C19_4 H12_4 1_555 1_555
H13_4 C19_4 1_555 1_555
H14_4 C19_4 1_555 1_555
N2_4 C18_4 1_555 1_555
O7_8 Eu5 1_555 1_555
O8_8 Eu5 1_555 1_555
C17_8 O7_8 1_555 1_555
C19_4 N2_4 1_555 1_555
C17_8 H15_8 1_555 1_555
O8_8 H16_8 1_555 1_555
O8_8 H17_8 1_555 1_555
C1_8 C2_8 1_555 1_555
C2_8 C3_8 1_555 1_555
C3_8 H1_8 1_555 1_555
C7_8 C2_8 1_555 1_555
H4_8 C7_8 1_555 1_555
C1_8 O2_8 1_555 1_555
C18_5 H9_5 1_555 1_555
H10_5 C18_5 1_555 1_555
H11_5 C18_5 1_555 1_555
C19_5 H12_5 1_555 1_555
H13_5 C19_5 1_555 1_555
H14_5 C19_5 1_555 1_555
N2_5 C18_5 1_555 1_555
C19_5 N2_5 1_555 1_555
C18_6 H9_6 1_555 1_555
H10_6 C18_6 1_555 1_555
H11_6 C18_6 1_555 1_555
C19_6 H12_6 1_555 1_555
H13_6 C19_6 1_555 1_555
H14_6 C19_6 1_555 1_555
N2_6 C18_6 1_555 1_555
C19_6 N2_6 1_555 1_555
C18_7 H9_7 1_555 1_555
H10_7 C18_7 1_555 1_555
H11_7 C18_7 1_555 1_555
C19_7 H12_7 1_555 1_555
H13_7 C19_7 1_555 1_555
H14_7 C19_7 1_555 1_555
N2_7 C18_7 1_555 1_555
C19_7 N2_7 1_555 1_555
C18_8 H9_8 1_555 1_555
H10_8 C18_8 1_555 1_555
H11_8 C18_8 1_555 1_555
C19_8 H12_8 1_555 1_555
H13_8 C19_8 1_555 1_555
H14_8 C19_8 1_555 1_555
N2_8 C18_8 1_555 1_555
C19_8 N2_8 1_555 1_555

#END
