
###############################################################################
#
# This file contains modified crystal structure data generated from the
# MOF subset of the Cambridge Structural Database (CSD) v543 
# hosted by the Cambridge Crystallographic Data Centre (CCDC).
#
# This work is licensed under the Creative Commons
# Attribution-NonCommercial-ShareAlike 4.0 International License.
# To view a copy of this license, visit
# http://creativecommons.org/licenses/by-nc-sa/4.0/
# or send a letter to
# Creative Commons, PO Box 1866, Mountain View, CA 94042, USA.
#
# CIF created using the CSD Python API on 29 September 2022
# The structure has been converted into the P1 space group
# The structure has a 3D framework
# The original CSD entry CUWXEZ is in the monoclinic crystal system
# The framework has been calculated to contain at least 10.0% void space
# The void calculation uses a probe of radius 1.32A, grid spacing 0.4
# H atom positions have been added when not included in the experimental data
#
###############################################################################

data_CUWXEZ
_chemical_formula_moiety         '(C184 H168 Eu8 N32 O56)n'
_symmetry_cell_setting           triclinic
_symmetry_space_group_name_H-M   'P 1'
_symmetry_Int_Tables_number      1
_space_group_name_Hall           'P 1'
loop_
_symmetry_equiv_pos_site_id
_symmetry_equiv_pos_as_xyz
1 x,y,z
_cell_length_a                   29.974(3)
_cell_length_b                   12.4213(10)
_cell_length_c                   14.3039(9)
_cell_angle_alpha                90
_cell_angle_beta                 93.371(7)
_cell_angle_gamma                90
_cell_volume                     5316.36
loop_
_atom_site_label
_atom_site_type_symbol
_atom_site_fract_x
_atom_site_fract_y
_atom_site_fract_z
Eu1 Eu 0.311470(10) 0.31118(3) 0.53558(2)
C1 C 0.3968(2) 0.2686(7) 0.4714(5)
C2 C 0.4417(2) 0.2455(7) 0.4358(5)
C3 C 0.4567(3) 0.1395(8) 0.4285(5)
H1 H 0.4381 0.0829 0.4434
C4 C 0.4991(3) 0.1181(8) 0.3994(6)
H2 H 0.5086 0.0473 0.3932
C5 C 0.5273(3) 0.2016(7) 0.3795(5)
C6 C 0.5124(3) 0.3082(7) 0.3854(6)
H3 H 0.5310 0.3646 0.3697
C7 C 0.4698(3) 0.3301(7) 0.4148(5)
H4 H 0.4602 0.4009 0.4204
C8 C 0.5739(3) 0.1851(7) 0.3570(6)
C10 C 0.7111(2) 0.0139(6) 0.3808(4)
C11 C 0.6653(2) 0.0168(6) 0.3928(4)
C12 C 0.6382(2) 0.0861(6) 0.3396(5)
C13 C 0.6557(2) 0.1426(6) 0.2672(5)
H6 H 0.6370 0.1845 0.2278
C14 C 0.7007(2) 0.1374(6) 0.2526(4)
C15 C 0.7288(2) 0.0753(5) 0.3114(4)
H7 H 0.7594 0.0750 0.3041
C16 C 0.7208(2) 0.1932(6) 0.1726(4)
C17 C 0.3383(4) 0.2843(11) 0.7647(9)
C18 C 0.3453(4) 0.2901(10) 0.9371(8)
H8 H 0.3530 0.2446 0.9898
H9 H 0.3152 0.3153 0.9407
H10 H 0.3653 0.3505 0.9376
C19 C 0.3613(4) 0.1119(11) 0.8527(9)
H11 H 0.3666 0.0895 0.9166
H12 H 0.3879 0.1011 0.8196
H13 H 0.3373 0.0703 0.8236
C20 C 0.3175(2) 0.5493(6) 0.6761(4)
C21 C 0.3849(3) 0.5382(7) 0.7491(5)
H14 H 0.4094 0.5493 0.7909
C22 C 0.3828(3) 0.4713(7) 0.6733(5)
H15 H 0.4062 0.4289 0.6543
C23 C 0.2726(3) 0.5896(7) 0.6531(5)
H16 H 0.2648 0.6409 0.6996
H17 H 0.2518 0.5308 0.6517
H18 H 0.2717 0.6238 0.5928
N1 N 0.5924(2) 0.0905(6) 0.3602(4)
N2 N 0.3490(3) 0.2285(9) 0.8499(7)
N3 N 0.34055(19) 0.4764(5) 0.6288(4)
N4 N 0.3435(2) 0.5861(5) 0.7516(4)
O1 O 0.37425(17) 0.1931(4) 0.5020(4)
O2 O 0.38209(15) 0.3637(4) 0.4684(3)
O5 O 0.69647(15) 0.2626(4) 0.1286(3)
O6 O 0.75952(16) 0.1693(4) 0.1550(3)
O7 O 0.34381(19) 0.2377(5) 0.6826(4)
H19 H 0.588(3) 0.258(4) 0.347(6)
Eu5 Eu 0.811470(10) 0.18882(3) 0.03558(2)
O8 O 0.22768(15) 0.3552(4) 0.4698(3)
O9 O 0.27232(15) 0.1448(4) 0.5302(3)
O10 O 0.28225(15) 0.4686(4) 0.4501(3)
O11 O 0.30353(15) 0.2626(4) 0.3714(3)
O12 O 0.25952(16) 0.3307(4) 0.6550(3)
H20 H 0.333947 0.639144 0.800564
H21 H 0.325437 0.366204 0.766796
Eu2 Eu 0.688530(10) 0.31118(3) 0.96442(2)
C9 C 0.7428(2) 0.9433(6) 0.4377(4)
H5 H 0.6530 0.9720 0.4366
O3 O 0.72768(15) 0.8552(4) 0.4698(3)
O4 O 0.78225(15) 0.9686(4) 0.4501(3)
Eu3 Eu 0.811470(10) 0.81118(3) 0.53558(2)
Eu4 Eu 0.688530(10) 0.68882(3) 0.46442(2)
C1_2 C 0.6032(2) 0.2686(7) 0.0286(5)
C2_2 C 0.5583(2) 0.2455(7) 0.0642(5)
C3_2 C 0.5433(3) 0.1395(8) 0.0715(5)
H1_2 H 0.5619 0.0829 0.0566
C4_2 C 0.5009(3) 0.1181(8) 0.1006(6)
H2_2 H 0.4914 0.0473 0.1068
C5_2 C 0.4727(3) 0.2016(7) 0.1205(5)
C6_2 C 0.4876(3) 0.3082(7) 0.1146(6)
H3_2 H 0.4690 0.3646 0.1303
C7_2 C 0.5302(3) 0.3301(7) 0.0852(5)
H4_2 H 0.5398 0.4009 0.0796
C8_2 C 0.4261(3) 0.1851(7) 0.1430(6)
C10_2 C 0.2889(2) 0.0139(6) 0.1192(4)
C11_2 C 0.3347(2) 0.0168(6) 0.1072(4)
C12_2 C 0.3618(2) 0.0861(6) 0.1604(5)
C13_2 C 0.3443(2) 0.1426(6) 0.2328(5)
H6_2 H 0.3630 0.1845 0.2722
C14_2 C 0.2993(2) 0.1374(6) 0.2474(4)
C15_2 C 0.2712(2) 0.0753(5) 0.1886(4)
H7_2 H 0.2406 0.0750 0.1959
C16_2 C 0.2792(2) 0.1932(6) 0.3274(4)
N1_2 N 0.4076(2) 0.0905(6) 0.1398(4)
O2_2 O 0.61791(15) 0.3637(4) 0.0316(3)
O6_2 O 0.24048(16) 0.1693(4) 0.3450(3)
H19_2 H 0.412(3) 0.258(4) 0.153(6)
Eu5_2 Eu 0.188530(10) 0.18882(3) 0.46442(2)
O8_2 O 0.77232(15) 0.3552(4) 0.0302(3)
O10_2 O 0.71775(15) 0.4686(4) 0.0499(3)
C17_2 C 0.6617(4) 0.2843(11) 0.7353(9)
C18_2 C 0.6547(4) 0.2901(10) 0.5629(8)
H8_2 H 0.6470 0.2446 0.5102
H9_2 H 0.6848 0.3153 0.5593
H10_2 H 0.6347 0.3505 0.5624
C19_2 C 0.6387(4) 0.1119(11) 0.6473(9)
H11_2 H 0.6334 0.0895 0.5834
H12_2 H 0.6121 0.1011 0.6804
H13_2 H 0.6627 0.0703 0.6764
C20_2 C 0.6825(2) 0.5493(6) 0.8239(4)
C21_2 C 0.6151(3) 0.5382(7) 0.7509(5)
H14_2 H 0.5906 0.5493 0.7091
C22_2 C 0.6172(3) 0.4713(7) 0.8267(5)
H15_2 H 0.5938 0.4289 0.8457
C23_2 C 0.7274(3) 0.5896(7) 0.8469(5)
H16_2 H 0.7352 0.6409 0.8004
H17_2 H 0.7482 0.5308 0.8483
H18_2 H 0.7283 0.6238 0.9072
N2_2 N 0.6510(3) 0.2285(9) 0.6501(7)
N3_2 N 0.65945(19) 0.4764(5) 0.8712(4)
N4_2 N 0.6565(2) 0.5861(5) 0.7484(4)
O1_2 O 0.62575(17) 0.1931(4) 0.9980(4)
O7_2 O 0.65619(19) 0.2377(5) 0.8174(4)
O9_2 O 0.72768(15) 0.1448(4) 0.9698(3)
O12_2 O 0.74048(16) 0.3307(4) 0.8450(3)
H20_2 H 0.666053 0.639144 0.699436
H21_2 H 0.674563 0.366204 0.733204
C9_2 C 0.2572(2) 0.9433(6) 0.0623(4)
H5_2 H 0.3470 0.9720 0.0634
O3_2 O 0.27232(15) 0.8552(4) 0.0302(3)
O4_2 O 0.21775(15) 0.9686(4) 0.0499(3)
Eu4_2 Eu 0.311470(10) 0.68882(3) 0.03558(2)
Eu3_2 Eu 0.188530(10) 0.81118(3) 0.96442(2)
H2_3 H 0.0086 0.5473 0.3932
C5_3 C 0.0273(3) 0.7016(7) 0.3795(5)
C6_3 C 0.0124(3) 0.8082(7) 0.3854(6)
H3_3 H 0.0310 0.8646 0.3697
C8_3 C 0.0739(3) 0.6851(7) 0.3570(6)
C9_3 C 0.2428(2) 0.4433(6) 0.4377(4)
C10_3 C 0.2111(2) 0.5139(6) 0.3808(4)
C11_3 C 0.1653(2) 0.5168(6) 0.3928(4)
H5_3 H 0.1530 0.4720 0.4366
C12_3 C 0.1382(2) 0.5861(6) 0.3396(5)
C13_3 C 0.1557(2) 0.6426(6) 0.2672(5)
H6_3 H 0.1370 0.6845 0.2278
C14_3 C 0.2007(2) 0.6374(6) 0.2526(4)
C15_3 C 0.2288(2) 0.5753(5) 0.3114(4)
H7_3 H 0.2594 0.5750 0.3041
C16_3 C 0.2208(2) 0.6932(6) 0.1726(4)
N1_3 N 0.0924(2) 0.5905(6) 0.3602(4)
O5_2 O 0.19647(15) 0.7626(4) 0.1286(3)
O6_3 O 0.25952(16) 0.6693(4) 0.1550(3)
H19_3 H 0.088(3) 0.758(4) 0.347(6)
C1_3 C 0.8968(2) 0.7686(7) 0.4714(5)
C2_3 C 0.9417(2) 0.7455(7) 0.4358(5)
C3_3 C 0.9567(3) 0.6395(8) 0.4285(5)
H1_3 H 0.9381 0.5829 0.4434
C4_3 C 0.9991(3) 0.6181(8) 0.3994(6)
C7_3 C 0.9698(3) 0.8301(7) 0.4148(5)
H4_3 H 0.9602 0.9009 0.4204
C17_3 C 0.8383(4) 0.7843(11) 0.7647(9)
C18_3 C 0.8453(4) 0.7901(10) 0.9371(8)
H8_3 H 0.8530 0.7446 0.9898
H9_3 H 0.8152 0.8153 0.9407
H10_3 H 0.8653 0.8505 0.9376
C19_3 C 0.8613(4) 0.6119(11) 0.8527(9)
H11_3 H 0.8666 0.5895 0.9166
H12_3 H 0.8879 0.6011 0.8196
H13_3 H 0.8373 0.5703 0.8236
C22_3 C 0.8828(3) 0.9713(7) 0.6733(5)
H15_3 H 0.9062 0.9289 0.6543
N2_3 N 0.8490(3) 0.7285(9) 0.8499(7)
N3_3 N 0.84055(19) 0.9764(5) 0.6288(4)
O1_3 O 0.87425(17) 0.6931(4) 0.5020(4)
O2_3 O 0.88209(15) 0.8637(4) 0.4684(3)
O7_3 O 0.84381(19) 0.7377(5) 0.6826(4)
O9_3 O 0.77232(15) 0.6448(4) 0.5302(3)
O11_2 O 0.80353(15) 0.7626(4) 0.3714(3)
O12_3 O 0.75952(16) 0.8307(4) 0.6550(3)
H21_3 H 0.825437 0.866204 0.766796
C1_4 C 0.1032(2) 0.7686(7) 0.0286(5)
C2_4 C 0.0583(2) 0.7455(7) 0.0642(5)
C3_4 C 0.0433(3) 0.6395(8) 0.0715(5)
H1_4 H 0.0619 0.5829 0.0566
C4_4 C 0.0009(3) 0.6181(8) 0.1006(6)
C7_4 C 0.0302(3) 0.8301(7) 0.0852(5)
H4_4 H 0.0398 0.9009 0.0796
O2_4 O 0.11791(15) 0.8637(4) 0.0316(3)
C17_4 C 0.1617(4) 0.7843(11) 0.7353(9)
C18_4 C 0.1547(4) 0.7901(10) 0.5629(8)
H8_4 H 0.1470 0.7446 0.5102
H9_4 H 0.1848 0.8153 0.5593
H10_4 H 0.1347 0.8505 0.5624
C19_4 C 0.1387(4) 0.6119(11) 0.6473(9)
H11_4 H 0.1334 0.5895 0.5834
H12_4 H 0.1121 0.6011 0.6804
H13_4 H 0.1627 0.5703 0.6764
C22_4 C 0.1172(3) 0.9713(7) 0.8267(5)
H15_4 H 0.0938 0.9289 0.8457
N2_4 N 0.1510(3) 0.7285(9) 0.6501(7)
N3_4 N 0.15945(19) 0.9764(5) 0.8712(4)
O1_4 O 0.12575(17) 0.6931(4) 0.9980(4)
O7_4 O 0.15619(19) 0.7377(5) 0.8174(4)
O9_4 O 0.22768(15) 0.6448(4) 0.9698(3)
O12_4 O 0.24048(16) 0.8307(4) 0.8450(3)
H21_4 H 0.174563 0.866204 0.733204
H2_4 H 0.9914 0.5473 0.1068
C5_4 C 0.9727(3) 0.7016(7) 0.1205(5)
C6_4 C 0.9876(3) 0.8082(7) 0.1146(6)
H3_4 H 0.9690 0.8646 0.1303
C8_4 C 0.9261(3) 0.6851(7) 0.1430(6)
C9_4 C 0.7572(2) 0.4433(6) 0.0623(4)
C10_4 C 0.7889(2) 0.5139(6) 0.1192(4)
C11_4 C 0.8347(2) 0.5168(6) 0.1072(4)
H5_4 H 0.8470 0.4720 0.0634
C12_4 C 0.8618(2) 0.5861(6) 0.1604(5)
C13_4 C 0.8443(2) 0.6426(6) 0.2328(5)
H6_4 H 0.8630 0.6845 0.2722
C14_4 C 0.7993(2) 0.6374(6) 0.2474(4)
C15_4 C 0.7712(2) 0.5753(5) 0.1886(4)
H7_4 H 0.7406 0.5750 0.1959
C16_4 C 0.7792(2) 0.6932(6) 0.3274(4)
N1_4 N 0.9076(2) 0.5905(6) 0.1398(4)
O6_4 O 0.74048(16) 0.6693(4) 0.3450(3)
H19_4 H 0.912(3) 0.758(4) 0.153(6)
C9_5 C 0.2572(2) 0.0567(6) 0.5623(4)
H5_5 H 0.3470 0.0280 0.5634
O4_3 O 0.21775(15) 0.0314(4) 0.5499(3)
C1_5 C 0.6032(2) 0.7314(7) 0.5286(5)
C2_5 C 0.5583(2) 0.7545(7) 0.5642(5)
C3_5 C 0.5433(3) 0.8605(8) 0.5715(5)
H1_5 H 0.5619 0.9171 0.5566
C4_5 C 0.5009(3) 0.8819(8) 0.6006(6)
H2_5 H 0.4914 0.9527 0.6068
C5_5 C 0.4727(3) 0.7984(7) 0.6205(5)
C6_5 C 0.4876(3) 0.6918(7) 0.6146(6)
H3_5 H 0.4690 0.6354 0.6303
C7_5 C 0.5302(3) 0.6699(7) 0.5852(5)
H4_5 H 0.5398 0.5991 0.5796
C8_5 C 0.4261(3) 0.8149(7) 0.6430(6)
C10_5 C 0.2889(2) 0.9861(6) 0.6192(4)
C11_5 C 0.3347(2) 0.9832(6) 0.6072(4)
C12_5 C 0.3618(2) 0.9139(6) 0.6604(5)
C13_5 C 0.3443(2) 0.8574(6) 0.7328(5)
H6_5 H 0.3630 0.8155 0.7722
C14_5 C 0.2993(2) 0.8626(6) 0.7474(4)
C15_5 C 0.2712(2) 0.9247(5) 0.6886(4)
H7_5 H 0.2406 0.9250 0.6959
C16_5 C 0.2792(2) 0.8068(6) 0.8274(4)
C17_5 C 0.6617(4) 0.7157(11) 0.2353(9)
C18_5 C 0.6547(4) 0.7099(10) 0.0629(8)
H8_5 H 0.6470 0.7554 0.0102
H9_5 H 0.6848 0.6847 0.0593
H10_5 H 0.6347 0.6495 0.0624
C19_5 C 0.6387(4) 0.8881(11) 0.1473(9)
H11_5 H 0.6334 0.9105 0.0834
H12_5 H 0.6121 0.8989 0.1804
H13_5 H 0.6627 0.9297 0.1764
C20_3 C 0.6825(2) 0.4507(6) 0.3239(4)
C21_3 C 0.6151(3) 0.4618(7) 0.2509(5)
H14_3 H 0.5906 0.4507 0.2091
C22_5 C 0.6172(3) 0.5287(7) 0.3267(5)
H15_5 H 0.5938 0.5711 0.3457
C23_3 C 0.7274(3) 0.4104(7) 0.3469(5)
H16_3 H 0.7352 0.3591 0.3004
H17_3 H 0.7482 0.4692 0.3483
H18_3 H 0.7283 0.3762 0.4072
N1_5 N 0.4076(2) 0.9095(6) 0.6398(4)
N2_5 N 0.6510(3) 0.7715(9) 0.1501(7)
N3_5 N 0.65945(19) 0.5236(5) 0.3712(4)
N4_3 N 0.6565(2) 0.4139(5) 0.2484(4)
O1_5 O 0.62575(17) 0.8069(4) 0.4980(4)
O2_5 O 0.61791(15) 0.6363(4) 0.5316(3)
O5_3 O 0.30353(15) 0.7374(4) 0.8714(3)
O7_5 O 0.65619(19) 0.7623(5) 0.3174(4)
H19_5 H 0.412(3) 0.742(4) 0.653(6)
O10_3 O 0.71775(15) 0.5314(4) 0.5499(3)
O11_3 O 0.69647(15) 0.7374(4) 0.6286(3)
H20_3 H 0.666053 0.360856 0.199436
H21_5 H 0.674563 0.633796 0.233204
C9_6 C 0.7428(2) 0.0567(6) 0.9377(4)
H5_6 H 0.6530 0.0280 0.9366
O4_4 O 0.78225(15) 0.0314(4) 0.9501(3)
C17_6 C 0.3383(4) 0.7157(11) 0.2647(9)
C18_6 C 0.3453(4) 0.7099(10) 0.4371(8)
H8_6 H 0.3530 0.7554 0.4898
H9_6 H 0.3152 0.6847 0.4407
H10_6 H 0.3653 0.6495 0.4376
C19_6 C 0.3613(4) 0.8881(11) 0.3527(9)
H11_6 H 0.3666 0.9105 0.4166
H12_6 H 0.3879 0.8989 0.3196
H13_6 H 0.3373 0.9297 0.3236
C20_4 C 0.3175(2) 0.4507(6) 0.1761(4)
C21_4 C 0.3849(3) 0.4618(7) 0.2491(5)
H14_4 H 0.4094 0.4507 0.2909
C22_6 C 0.3828(3) 0.5287(7) 0.1733(5)
H15_6 H 0.4062 0.5711 0.1543
C23_4 C 0.2726(3) 0.4104(7) 0.1531(5)
H16_4 H 0.2648 0.3591 0.1996
H17_4 H 0.2518 0.4692 0.1517
H18_4 H 0.2717 0.3762 0.0928
N2_6 N 0.3490(3) 0.7715(9) 0.3499(7)
N3_6 N 0.34055(19) 0.5236(5) 0.1288(4)
N4_4 N 0.3435(2) 0.4139(5) 0.2516(4)
O1_6 O 0.37425(17) 0.8069(4) 0.0020(4)
O7_6 O 0.34381(19) 0.7623(5) 0.1826(4)
H20_4 H 0.333947 0.360856 0.300564
H21_6 H 0.325437 0.633796 0.266796
C1_6 C 0.3968(2) 0.7314(7) 0.9714(5)
C2_6 C 0.4417(2) 0.7545(7) 0.9358(5)
C3_6 C 0.4567(3) 0.8605(8) 0.9285(5)
H1_6 H 0.4381 0.9171 0.9434
C4_6 C 0.4991(3) 0.8819(8) 0.8994(6)
H2_6 H 0.5086 0.9527 0.8932
C5_6 C 0.5273(3) 0.7984(7) 0.8795(5)
C6_6 C 0.5124(3) 0.6918(7) 0.8854(6)
H3_6 H 0.5310 0.6354 0.8697
C7_6 C 0.4698(3) 0.6699(7) 0.9148(5)
H4_6 H 0.4602 0.5991 0.9204
C8_6 C 0.5739(3) 0.8149(7) 0.8570(6)
C10_6 C 0.7111(2) 0.9861(6) 0.8808(4)
C11_6 C 0.6653(2) 0.9832(6) 0.8928(4)
C12_6 C 0.6382(2) 0.9139(6) 0.8396(5)
C13_6 C 0.6557(2) 0.8574(6) 0.7672(5)
H6_6 H 0.6370 0.8155 0.7278
C14_6 C 0.7007(2) 0.8626(6) 0.7526(4)
C15_6 C 0.7288(2) 0.9247(5) 0.8114(4)
H7_6 H 0.7594 0.9250 0.8041
C16_6 C 0.7208(2) 0.8068(6) 0.6726(4)
N1_6 N 0.5924(2) 0.9095(6) 0.8602(4)
O2_6 O 0.38209(15) 0.6363(4) 0.9684(3)
H19_6 H 0.588(3) 0.742(4) 0.847(6)
O10_4 O 0.28225(15) 0.5314(4) 0.9501(3)
C1_7 C 0.1032(2) 0.2314(7) 0.5286(5)
C2_7 C 0.0583(2) 0.2545(7) 0.5642(5)
C3_7 C 0.0433(3) 0.3605(8) 0.5715(5)
H1_7 H 0.0619 0.4171 0.5566
C4_7 C 0.0009(3) 0.3819(8) 0.6006(6)
C7_7 C 0.0302(3) 0.1699(7) 0.5852(5)
H4_7 H 0.0398 0.0991 0.5796
C17_7 C 0.1617(4) 0.2157(11) 0.2353(9)
C18_7 C 0.1547(4) 0.2099(10) 0.0629(8)
H8_7 H 0.1470 0.2554 0.0102
H9_7 H 0.1848 0.1847 0.0593
H10_7 H 0.1347 0.1495 0.0624
C19_7 C 0.1387(4) 0.3881(11) 0.1473(9)
H11_7 H 0.1334 0.4105 0.0834
H12_7 H 0.1121 0.3989 0.1804
H13_7 H 0.1627 0.4297 0.1764
C22_7 C 0.1172(3) 0.0287(7) 0.3267(5)
H15_7 H 0.0938 0.0711 0.3457
N2_7 N 0.1510(3) 0.2715(9) 0.1501(7)
N3_7 N 0.15945(19) 0.0236(5) 0.3712(4)
O1_7 O 0.12575(17) 0.3069(4) 0.4980(4)
O2_7 O 0.11791(15) 0.1363(4) 0.5316(3)
O7_7 O 0.15619(19) 0.2623(5) 0.3174(4)
O11_4 O 0.19647(15) 0.2374(4) 0.6286(3)
H21_7 H 0.174563 0.133796 0.233204
H2_7 H 0.9914 0.4527 0.6068
C5_7 C 0.9727(3) 0.2984(7) 0.6205(5)
C6_7 C 0.9876(3) 0.1918(7) 0.6146(6)
H3_7 H 0.9690 0.1354 0.6303
C8_7 C 0.9261(3) 0.3149(7) 0.6430(6)
C9_7 C 0.7572(2) 0.5567(6) 0.5623(4)
C10_7 C 0.7889(2) 0.4861(6) 0.6192(4)
C11_7 C 0.8347(2) 0.4832(6) 0.6072(4)
H5_7 H 0.8470 0.5280 0.5634
C12_7 C 0.8618(2) 0.4139(6) 0.6604(5)
C13_7 C 0.8443(2) 0.3574(6) 0.7328(5)
H6_7 H 0.8630 0.3155 0.7722
C14_7 C 0.7993(2) 0.3626(6) 0.7474(4)
C15_7 C 0.7712(2) 0.4247(5) 0.6886(4)
H7_7 H 0.7406 0.4250 0.6959
C16_7 C 0.7792(2) 0.3068(6) 0.8274(4)
N1_7 N 0.9076(2) 0.4095(6) 0.6398(4)
O5_4 O 0.80353(15) 0.2374(4) 0.8714(3)
H19_7 H 0.912(3) 0.242(4) 0.653(6)
H2_8 H 0.0086 0.4527 0.8932
C5_8 C 0.0273(3) 0.2984(7) 0.8795(5)
C6_8 C 0.0124(3) 0.1918(7) 0.8854(6)
H3_8 H 0.0310 0.1354 0.8697
C8_8 C 0.0739(3) 0.3149(7) 0.8570(6)
C9_8 C 0.2428(2) 0.5567(6) 0.9377(4)
C10_8 C 0.2111(2) 0.4861(6) 0.8808(4)
C11_8 C 0.1653(2) 0.4832(6) 0.8928(4)
H5_8 H 0.1530 0.5280 0.9366
C12_8 C 0.1382(2) 0.4139(6) 0.8396(5)
C13_8 C 0.1557(2) 0.3574(6) 0.7672(5)
H6_8 H 0.1370 0.3155 0.7278
C14_8 C 0.2007(2) 0.3626(6) 0.7526(4)
C15_8 C 0.2288(2) 0.4247(5) 0.8114(4)
H7_8 H 0.2594 0.4250 0.8041
C16_8 C 0.2208(2) 0.3068(6) 0.6726(4)
N1_8 N 0.0924(2) 0.4095(6) 0.8602(4)
H19_8 H 0.088(3) 0.242(4) 0.847(6)
C17_8 C 0.8383(4) 0.2157(11) 0.2647(9)
C18_8 C 0.8453(4) 0.2099(10) 0.4371(8)
H8_8 H 0.8530 0.2554 0.4898
H9_8 H 0.8152 0.1847 0.4407
H10_8 H 0.8653 0.1495 0.4376
C19_8 C 0.8613(4) 0.3881(11) 0.3527(9)
H11_8 H 0.8666 0.4105 0.4166
H12_8 H 0.8879 0.3989 0.3196
H13_8 H 0.8373 0.4297 0.3236
C22_8 C 0.8828(3) 0.0287(7) 0.1733(5)
H15_8 H 0.9062 0.0711 0.1543
N2_8 N 0.8490(3) 0.2715(9) 0.3499(7)
N3_8 N 0.84055(19) 0.0236(5) 0.1288(4)
O1_8 O 0.87425(17) 0.3069(4) 0.0020(4)
O7_8 O 0.84381(19) 0.2623(5) 0.1826(4)
H21_8 H 0.825437 0.133796 0.266796
C1_8 C 0.8968(2) 0.2314(7) 0.9714(5)
C2_8 C 0.9417(2) 0.2545(7) 0.9358(5)
C3_8 C 0.9567(3) 0.3605(8) 0.9285(5)
H1_8 H 0.9381 0.4171 0.9434
C4_8 C 0.9991(3) 0.3819(8) 0.8994(6)
C7_8 C 0.9698(3) 0.1699(7) 0.9148(5)
H4_8 H 0.9602 0.0991 0.9204
O2_8 O 0.88209(15) 0.1363(4) 0.9684(3)
C20_5 C 0.8175(2) 0.0493(6) 0.6761(4)
C21_5 C 0.8849(3) 0.0382(7) 0.7491(5)
H14_5 H 0.9094 0.0493 0.7909
C23_5 C 0.7726(3) 0.0896(7) 0.6531(5)
H16_5 H 0.7648 0.1409 0.6996
H17_5 H 0.7518 0.0308 0.6517
H18_5 H 0.7717 0.1238 0.5928
N4_5 N 0.8435(2) 0.0861(5) 0.7516(4)
H20_5 H 0.833947 0.139144 0.800564
C20_6 C 0.1825(2) 0.0493(6) 0.8239(4)
C21_6 C 0.1151(3) 0.0382(7) 0.7509(5)
H14_6 H 0.0906 0.0493 0.7091
C23_6 C 0.2274(3) 0.0896(7) 0.8469(5)
H16_6 H 0.2352 0.1409 0.8004
H17_6 H 0.2482 0.0308 0.8483
H18_6 H 0.2283 0.1238 0.9072
N4_6 N 0.1565(2) 0.0861(5) 0.7484(4)
H20_6 H 0.166053 0.139144 0.699436
C20_7 C 0.1825(2) 0.9507(6) 0.3239(4)
C21_7 C 0.1151(3) 0.9618(7) 0.2509(5)
H14_7 H 0.0906 0.9507 0.2091
C23_7 C 0.2274(3) 0.9104(7) 0.3469(5)
H16_7 H 0.2352 0.8591 0.3004
H17_7 H 0.2482 0.9692 0.3483
H18_7 H 0.2283 0.8762 0.4072
N4_7 N 0.1565(2) 0.9139(5) 0.2484(4)
H20_7 H 0.166053 0.860856 0.199436
C20_8 C 0.8175(2) 0.9507(6) 0.1761(4)
C21_8 C 0.8849(3) 0.9618(7) 0.2491(5)
H14_8 H 0.9094 0.9507 0.2909
C23_8 C 0.7726(3) 0.9104(7) 0.1531(5)
H16_8 H 0.7648 0.8591 0.1996
H17_8 H 0.7518 0.9692 0.1517
H18_8 H 0.7717 0.8762 0.0928
N4_8 N 0.8435(2) 0.9139(5) 0.2516(4)
H20_8 H 0.833947 0.860856 0.300564
loop_
_geom_bond_atom_site_label_1
_geom_bond_atom_site_label_2
_geom_bond_site_symmetry_1
_geom_bond_site_symmetry_2
Eu1 N3 1_555 1_555
C1 C2 1_555 1_555
C2 C3 1_555 1_555
C3 H1 1_555 1_555
C4 C3 1_555 1_555
H2 C4 1_555 1_555
C5 C4 1_555 1_555
C6 C5 1_555 1_555
H3 C6 1_555 1_555
C7 C2 1_555 1_555
H4 C7 1_555 1_555
C8 C5 1_555 1_555
C10 C11 1_555 1_555
C12 C11 1_555 1_555
C13 C12 1_555 1_555
H6 C13 1_555 1_555
C14 C13 1_555 1_555
C15 C10 1_555 1_555
H7 C15 1_555 1_555
C16 C14 1_555 1_555
C17 N2 1_555 1_555
C18 H8 1_555 1_555
H9 C18 1_555 1_555
H10 C18 1_555 1_555
C19 H11 1_555 1_555
H12 C19 1_555 1_555
H13 C19 1_555 1_555
C20 C23 1_555 1_555
C21 H14 1_555 1_555
C22 C21 1_555 1_555
H15 C22 1_555 1_555
C23 H16 1_555 1_555
H17 C23 1_555 1_555
H18 C23 1_555 1_555
N1 C8 1_555 1_555
N2 C18 1_555 1_555
N3 C20 1_555 1_555
N4 C20 1_555 1_555
O1 Eu1 1_555 1_555
O2 Eu1 1_555 1_555
O5 C16 1_555 1_555
O6 C16 1_555 1_555
O7 Eu1 1_555 1_555
H19 C8 1_555 1_555
Eu5 O6 1_555 1_555
O8 Eu1 1_555 1_555
O9 Eu1 1_555 1_555
O10 Eu1 1_555 1_555
O11 Eu1 1_555 1_555
O12 Eu1 1_555 1_555
C1 O1 1_555 1_555
C1 O2 1_555 1_555
C6 C7 1_555 1_555
C12 N1 1_555 1_555
C14 C15 1_555 1_555
C17 O7 1_555 1_555
C19 N2 1_555 1_555
C21 N4 1_555 1_555
C22 N3 1_555 1_555
N4 H20 1_555 1_555
C17 H21 1_555 1_555
O3 C9 1_555 1_555
O4 C9 1_555 1_555
Eu3 O3 1_555 1_555
Eu4 O3 1_555 1_555
O4 Eu3 1_555 1_555
C1_2 C2_2 1_555 1_555
C2_2 C3_2 1_555 1_555
C3_2 H1_2 1_555 1_555
C4_2 C3_2 1_555 1_555
H2_2 C4_2 1_555 1_555
C5_2 C4_2 1_555 1_555
C6_2 C5_2 1_555 1_555
H3_2 C6_2 1_555 1_555
C7_2 C2_2 1_555 1_555
H4_2 C7_2 1_555 1_555
C8_2 C5_2 1_555 1_555
C10_2 C11_2 1_555 1_555
C12_2 C11_2 1_555 1_555
C13_2 C12_2 1_555 1_555
H6_2 C13_2 1_555 1_555
C14_2 C13_2 1_555 1_555
C15_2 C10_2 1_555 1_555
H7_2 C15_2 1_555 1_555
C16_2 C14_2 1_555 1_555
N1_2 C8_2 1_555 1_555
O11 C16_2 1_555 1_555
O6_2 C16_2 1_555 1_555
H19_2 C8_2 1_555 1_555
Eu5_2 O6_2 1_555 1_555
C1_2 O2_2 1_555 1_555
C6_2 C7_2 1_555 1_555
C12_2 N1_2 1_555 1_555
C14_2 C15_2 1_555 1_555
Eu2 N3_2 1_555 1_555
C17_2 N2_2 1_555 1_555
C18_2 H8_2 1_555 1_555
H9_2 C18_2 1_555 1_555
H10_2 C18_2 1_555 1_555
C19_2 H11_2 1_555 1_555
H12_2 C19_2 1_555 1_555
H13_2 C19_2 1_555 1_555
C20_2 C23_2 1_555 1_555
C21_2 H14_2 1_555 1_555
C22_2 C21_2 1_555 1_555
H15_2 C22_2 1_555 1_555
C23_2 H16_2 1_555 1_555
H17_2 C23_2 1_555 1_555
H18_2 C23_2 1_555 1_555
N2_2 C18_2 1_555 1_555
N3_2 C20_2 1_555 1_555
N4_2 C20_2 1_555 1_555
O1_2 Eu2 1_555 1_555
O7_2 Eu2 1_555 1_555
O9_2 Eu2 1_555 1_555
O12_2 Eu2 1_555 1_555
C17_2 O7_2 1_555 1_555
C19_2 N2_2 1_555 1_555
C21_2 N4_2 1_555 1_555
C22_2 N3_2 1_555 1_555
N4_2 H20_2 1_555 1_555
C17_2 H21_2 1_555 1_555
O3_2 C9_2 1_555 1_555
O4_2 C9_2 1_555 1_555
Eu4_2 O3_2 1_555 1_555
C6_3 C5_3 1_555 1_555
H3_3 C6_3 1_555 1_555
C8_3 C5_3 1_555 1_555
C9_3 C10_3 1_555 1_555
C10_3 C11_3 1_555 1_555
C11_3 H5_3 1_555 1_555
C12_3 C11_3 1_555 1_555
C13_3 C12_3 1_555 1_555
H6_3 C13_3 1_555 1_555
C14_3 C13_3 1_555 1_555
C15_3 C10_3 1_555 1_555
H7_3 C15_3 1_555 1_555
C16_3 C14_3 1_555 1_555
N1_3 C8_3 1_555 1_555
O8 C9_3 1_555 1_555
O10 C9_3 1_555 1_555
O5_2 C16_3 1_555 1_555
O6_3 C16_3 1_555 1_555
H19_3 C8_3 1_555 1_555
Eu5_2 O8 1_555 1_555
Eu4_2 O6_3 1_555 1_555
C12_3 N1_3 1_555 1_555
C14_3 C15_3 1_555 1_555
Eu3 N3_3 1_555 1_555
C1_3 C2_3 1_555 1_555
C2_3 C3_3 1_555 1_555
C3_3 H1_3 1_555 1_555
C4_3 C3_3 1_555 1_555
C7_3 C2_3 1_555 1_555
H4_3 C7_3 1_555 1_555
C17_3 N2_3 1_555 1_555
C18_3 H8_3 1_555 1_555
H9_3 C18_3 1_555 1_555
H10_3 C18_3 1_555 1_555
C19_3 H11_3 1_555 1_555
H12_3 C19_3 1_555 1_555
H13_3 C19_3 1_555 1_555
H15_3 C22_3 1_555 1_555
N2_3 C18_3 1_555 1_555
O1_3 Eu3 1_555 1_555
O2_3 Eu3 1_555 1_555
O7_3 Eu3 1_555 1_555
O9_3 Eu3 1_555 1_555
O11_2 Eu3 1_555 1_555
O12_3 Eu3 1_555 1_555
C1_3 O1_3 1_555 1_555
C1_3 O2_3 1_555 1_555
C17_3 O7_3 1_555 1_555
C19_3 N2_3 1_555 1_555
C22_3 N3_3 1_555 1_555
C17_3 H21_3 1_555 1_555
C1_4 C2_4 1_555 1_555
C2_4 C3_4 1_555 1_555
C3_4 H1_4 1_555 1_555
C4_4 C3_4 1_555 1_555
C7_4 C2_4 1_555 1_555
H4_4 C7_4 1_555 1_555
C1_4 O2_4 1_555 1_555
Eu3_2 N3_4 1_555 1_555
C17_4 N2_4 1_555 1_555
C18_4 H8_4 1_555 1_555
H9_4 C18_4 1_555 1_555
H10_4 C18_4 1_555 1_555
C19_4 H11_4 1_555 1_555
H12_4 C19_4 1_555 1_555
H13_4 C19_4 1_555 1_555
H15_4 C22_4 1_555 1_555
N2_4 C18_4 1_555 1_555
O1_4 Eu3_2 1_555 1_555
O7_4 Eu3_2 1_555 1_555
O9_4 Eu3_2 1_555 1_555
O12_4 Eu3_2 1_555 1_555
C17_4 O7_4 1_555 1_555
C19_4 N2_4 1_555 1_555
C22_4 N3_4 1_555 1_555
C17_4 H21_4 1_555 1_555
C6_4 C5_4 1_555 1_555
H3_4 C6_4 1_555 1_555
C8_4 C5_4 1_555 1_555
C9_4 C10_4 1_555 1_555
C10_4 C11_4 1_555 1_555
C11_4 H5_4 1_555 1_555
C12_4 C11_4 1_555 1_555
C13_4 C12_4 1_555 1_555
H6_4 C13_4 1_555 1_555
C14_4 C13_4 1_555 1_555
C15_4 C10_4 1_555 1_555
H7_4 C15_4 1_555 1_555
C16_4 C14_4 1_555 1_555
N1_4 C8_4 1_555 1_555
O8_2 C9_4 1_555 1_555
O10_2 C9_4 1_555 1_555
O11_2 C16_4 1_555 1_555
O6_4 C16_4 1_555 1_555
H19_4 C8_4 1_555 1_555
Eu5 O8_2 1_555 1_555
Eu4 O6_4 1_555 1_555
C12_4 N1_4 1_555 1_555
C14_4 C15_4 1_555 1_555
O9 C9_5 1_555 1_555
O4_3 C9_5 1_555 1_555
Eu5_2 O9 1_555 1_555
O4_3 Eu5_2 1_555 1_555
Eu4 N3_5 1_555 1_555
C1_5 C2_5 1_555 1_555
C2_5 C3_5 1_555 1_555
C3_5 H1_5 1_555 1_555
C4_5 C3_5 1_555 1_555
H2_5 C4_5 1_555 1_555
C5_5 C4_5 1_555 1_555
C6_5 C5_5 1_555 1_555
H3_5 C6_5 1_555 1_555
C7_5 C2_5 1_555 1_555
H4_5 C7_5 1_555 1_555
C8_5 C5_5 1_555 1_555
C10_5 C11_5 1_555 1_555
C12_5 C11_5 1_555 1_555
C13_5 C12_5 1_555 1_555
H6_5 C13_5 1_555 1_555
C14_5 C13_5 1_555 1_555
C15_5 C10_5 1_555 1_555
H7_5 C15_5 1_555 1_555
C16_5 C14_5 1_555 1_555
C17_5 N2_5 1_555 1_555
C18_5 H8_5 1_555 1_555
H9_5 C18_5 1_555 1_555
H10_5 C18_5 1_555 1_555
C19_5 H11_5 1_555 1_555
H12_5 C19_5 1_555 1_555
H13_5 C19_5 1_555 1_555
C20_3 C23_3 1_555 1_555
C21_3 H14_3 1_555 1_555
C22_5 C21_3 1_555 1_555
H15_5 C22_5 1_555 1_555
C23_3 H16_3 1_555 1_555
H17_3 C23_3 1_555 1_555
H18_3 C23_3 1_555 1_555
N1_5 C8_5 1_555 1_555
N2_5 C18_5 1_555 1_555
N3_5 C20_3 1_555 1_555
N4_3 C20_3 1_555 1_555
O1_5 Eu4 1_555 1_555
O2_5 Eu4 1_555 1_555
O5_3 C16_5 1_555 1_555
O12_4 C16_5 1_555 1_555
O7_5 Eu4 1_555 1_555
H19_5 C8_5 1_555 1_555
O9_3 Eu4 1_555 1_555
O10_3 Eu4 1_555 1_555
O11_3 Eu4 1_555 1_555
C1_5 O1_5 1_555 1_555
C1_5 O2_5 1_555 1_555
C6_5 C7_5 1_555 1_555
C12_5 N1_5 1_555 1_555
C14_5 C15_5 1_555 1_555
C17_5 O7_5 1_555 1_555
C19_5 N2_5 1_555 1_555
C21_3 N4_3 1_555 1_555
C22_5 N3_5 1_555 1_555
N4_3 H20_3 1_555 1_555
C17_5 H21_5 1_555 1_555
O9_2 C9_6 1_555 1_555
O4_4 C9_6 1_555 1_555
Eu4_2 N3_6 1_555 1_555
C17_6 N2_6 1_555 1_555
C18_6 H8_6 1_555 1_555
H9_6 C18_6 1_555 1_555
H10_6 C18_6 1_555 1_555
C19_6 H11_6 1_555 1_555
H12_6 C19_6 1_555 1_555
H13_6 C19_6 1_555 1_555
C20_4 C23_4 1_555 1_555
C21_4 H14_4 1_555 1_555
C22_6 C21_4 1_555 1_555
H15_6 C22_6 1_555 1_555
C23_4 H16_4 1_555 1_555
H17_4 C23_4 1_555 1_555
H18_4 C23_4 1_555 1_555
N2_6 C18_6 1_555 1_555
N3_6 C20_4 1_555 1_555
N4_4 C20_4 1_555 1_555
O1_6 Eu4_2 1_555 1_555
O7_6 Eu4_2 1_555 1_555
C17_6 O7_6 1_555 1_555
C19_6 N2_6 1_555 1_555
C21_4 N4_4 1_555 1_555
C22_6 N3_6 1_555 1_555
N4_4 H20_4 1_555 1_555
C17_6 H21_6 1_555 1_555
C1_6 C2_6 1_555 1_555
C2_6 C3_6 1_555 1_555
C3_6 H1_6 1_555 1_555
C4_6 C3_6 1_555 1_555
H2_6 C4_6 1_555 1_555
C5_6 C4_6 1_555 1_555
C6_6 C5_6 1_555 1_555
H3_6 C6_6 1_555 1_555
C7_6 C2_6 1_555 1_555
H4_6 C7_6 1_555 1_555
C8_6 C5_6 1_555 1_555
C10_6 C11_6 1_555 1_555
C12_6 C11_6 1_555 1_555
C13_6 C12_6 1_555 1_555
H6_6 C13_6 1_555 1_555
C14_6 C13_6 1_555 1_555
C15_6 C10_6 1_555 1_555
H7_6 C15_6 1_555 1_555
C16_6 C14_6 1_555 1_555
N1_6 C8_6 1_555 1_555
O11_3 C16_6 1_555 1_555
O12_3 C16_6 1_555 1_555
H19_6 C8_6 1_555 1_555
C1_6 O2_6 1_555 1_555
C6_6 C7_6 1_555 1_555
C12_6 N1_6 1_555 1_555
C14_6 C15_6 1_555 1_555
Eu5_2 N3_7 1_555 1_555
C1_7 C2_7 1_555 1_555
C2_7 C3_7 1_555 1_555
C3_7 H1_7 1_555 1_555
C4_7 C3_7 1_555 1_555
C7_7 C2_7 1_555 1_555
H4_7 C7_7 1_555 1_555
C17_7 N2_7 1_555 1_555
C18_7 H8_7 1_555 1_555
H9_7 C18_7 1_555 1_555
H10_7 C18_7 1_555 1_555
C19_7 H11_7 1_555 1_555
H12_7 C19_7 1_555 1_555
H13_7 C19_7 1_555 1_555
H15_7 C22_7 1_555 1_555
N2_7 C18_7 1_555 1_555
O1_7 Eu5_2 1_555 1_555
O2_7 Eu5_2 1_555 1_555
O7_7 Eu5_2 1_555 1_555
O11_4 Eu5_2 1_555 1_555
C1_7 O1_7 1_555 1_555
C1_7 O2_7 1_555 1_555
C17_7 O7_7 1_555 1_555
C19_7 N2_7 1_555 1_555
C22_7 N3_7 1_555 1_555
C17_7 H21_7 1_555 1_555
C6_7 C5_7 1_555 1_555
H3_7 C6_7 1_555 1_555
C8_7 C5_7 1_555 1_555
C9_7 C10_7 1_555 1_555
C10_7 C11_7 1_555 1_555
C11_7 H5_7 1_555 1_555
C12_7 C11_7 1_555 1_555
C13_7 C12_7 1_555 1_555
H6_7 C13_7 1_555 1_555
C14_7 C13_7 1_555 1_555
C15_7 C10_7 1_555 1_555
H7_7 C15_7 1_555 1_555
C16_7 C14_7 1_555 1_555
N1_7 C8_7 1_555 1_555
O9_3 C9_7 1_555 1_555
O10_3 C9_7 1_555 1_555
O5_4 C16_7 1_555 1_555
O12_2 C16_7 1_555 1_555
H19_7 C8_7 1_555 1_555
C12_7 N1_7 1_555 1_555
C14_7 C15_7 1_555 1_555
C6_8 C5_8 1_555 1_555
H3_8 C6_8 1_555 1_555
C8_8 C5_8 1_555 1_555
C9_8 C10_8 1_555 1_555
C10_8 C11_8 1_555 1_555
C11_8 H5_8 1_555 1_555
C12_8 C11_8 1_555 1_555
C13_8 C12_8 1_555 1_555
H6_8 C13_8 1_555 1_555
C14_8 C13_8 1_555 1_555
C15_8 C10_8 1_555 1_555
H7_8 C15_8 1_555 1_555
C16_8 C14_8 1_555 1_555
N1_8 C8_8 1_555 1_555
O9_4 C9_8 1_555 1_555
O10_4 C9_8 1_555 1_555
O11_4 C16_8 1_555 1_555
O12 C16_8 1_555 1_555
H19_8 C8_8 1_555 1_555
C12_8 N1_8 1_555 1_555
C14_8 C15_8 1_555 1_555
Eu5 N3_8 1_555 1_555
C17_8 N2_8 1_555 1_555
C18_8 H8_8 1_555 1_555
H9_8 C18_8 1_555 1_555
H10_8 C18_8 1_555 1_555
C19_8 H11_8 1_555 1_555
H12_8 C19_8 1_555 1_555
H13_8 C19_8 1_555 1_555
H15_8 C22_8 1_555 1_555
N2_8 C18_8 1_555 1_555
O1_8 Eu5 1_555 1_555
O7_8 Eu5 1_555 1_555
C17_8 O7_8 1_555 1_555
C19_8 N2_8 1_555 1_555
C22_8 N3_8 1_555 1_555
C17_8 H21_8 1_555 1_555
C1_8 C2_8 1_555 1_555
C2_8 C3_8 1_555 1_555
C3_8 H1_8 1_555 1_555
C4_8 C3_8 1_555 1_555
C7_8 C2_8 1_555 1_555
H4_8 C7_8 1_555 1_555
C1_8 O2_8 1_555 1_555
C20_5 C23_5 1_555 1_555
C21_5 H14_5 1_555 1_555
C23_5 H16_5 1_555 1_555
H17_5 C23_5 1_555 1_555
H18_5 C23_5 1_555 1_555
N4_5 C20_5 1_555 1_555
C21_5 N4_5 1_555 1_555
N4_5 H20_5 1_555 1_555
C20_6 C23_6 1_555 1_555
C21_6 H14_6 1_555 1_555
C23_6 H16_6 1_555 1_555
H17_6 C23_6 1_555 1_555
H18_6 C23_6 1_555 1_555
N4_6 C20_6 1_555 1_555
C21_6 N4_6 1_555 1_555
N4_6 H20_6 1_555 1_555
C20_7 C23_7 1_555 1_555
C21_7 H14_7 1_555 1_555
C23_7 H16_7 1_555 1_555
H17_7 C23_7 1_555 1_555
H18_7 C23_7 1_555 1_555
N4_7 C20_7 1_555 1_555
C21_7 N4_7 1_555 1_555
N4_7 H20_7 1_555 1_555
C20_8 C23_8 1_555 1_555
C21_8 H14_8 1_555 1_555
C23_8 H16_8 1_555 1_555
H17_8 C23_8 1_555 1_555
H18_8 C23_8 1_555 1_555
N4_8 C20_8 1_555 1_555
C21_8 N4_8 1_555 1_555
N4_8 H20_8 1_555 1_555

#END
