
###############################################################################
#
# This file contains modified crystal structure data generated from the
# MOF subset of the Cambridge Structural Database (CSD) v543 
# hosted by the Cambridge Crystallographic Data Centre (CCDC).
#
# This work is licensed under the Creative Commons
# Attribution-NonCommercial-ShareAlike 4.0 International License.
# To view a copy of this license, visit
# http://creativecommons.org/licenses/by-nc-sa/4.0/
# or send a letter to
# Creative Commons, PO Box 1866, Mountain View, CA 94042, USA.
#
# CIF created using the CSD Python API on 29 September 2022
# The structure has been converted into the P1 space group
# The structure has a 3D framework
# The original CSD entry CUWXOJ is in the monoclinic crystal system
# The framework has been calculated to contain at least 10.0% void space
# The void calculation uses a probe of radius 1.32A, grid spacing 0.4
# H atom positions have been added when not included in the experimental data
#
###############################################################################

data_CUWXOJ
_chemical_formula_moiety         '(C160 H128 Eu8 N24 O56)n'
_symmetry_cell_setting           triclinic
_symmetry_space_group_name_H-M   'P 1'
_symmetry_Int_Tables_number      1
_space_group_name_Hall           'P 1'
loop_
_symmetry_equiv_pos_site_id
_symmetry_equiv_pos_as_xyz
1 x,y,z
_cell_length_a                   29.7050(17)
_cell_length_b                   12.9699(6)
_cell_length_c                   13.8285(6)
_cell_angle_alpha                90
_cell_angle_beta                 95.247(5)
_cell_angle_gamma                90
_cell_volume                     5305.39
loop_
_atom_site_label
_atom_site_type_symbol
_atom_site_fract_x
_atom_site_fract_y
_atom_site_fract_z
C17 C 0.32000(16) 0.0159(4) 0.1855(3)
H8 H 0.2887 0.0138 0.1731
C18 C 0.38680(16) 0.0602(4) 0.2478(3)
H9 H 0.4103 0.0934 0.2844
N3 N 0.34153(13) 0.0805(3) 0.2485(3)
H14 H 0.3268(15) 0.129(3) 0.290(3)
Eu1 Eu 0.314377(6) 0.800062(15) 0.036555(14)
C19 C 0.39070(15) 0.9825(4) 0.1834(3)
C20 C 0.43299(17) 0.9318(5) 0.1566(4)
H10 H 0.4254 0.8794 0.1088
H11 H 0.4486 0.9011 0.2133
H12 H 0.4521 0.9824 0.1305
N2 N 0.34772(12) 0.9550(3) 0.1423(3)
O7 O 0.35767(11) 0.7274(3) 0.1729(2)
O11 O 0.27225(9) 0.6454(2) 0.0254(2)
O13 O 0.26684(10) 0.8184(2) 0.1667(2)
H15 H 0.345134 0.750284 0.233498
H16 H 0.356398 0.651014 0.168621
C1 C 0.60264(14) 0.7552(4) 0.5391(3)
C2 C 0.55650(15) 0.7343(4) 0.5684(3)
C3 C 0.54185(17) 0.6339(4) 0.5797(4)
H1 H 0.5615 0.5794 0.5711
C4 C 0.49846(17) 0.6135(4) 0.6036(4)
H2 H 0.4890 0.5457 0.6107
C5 C 0.52668(16) 0.8148(4) 0.5810(4)
H3 H 0.5359 0.8825 0.5728
C6 C 0.46898(17) 0.6945(4) 0.6170(4)
C7 C 0.48340(16) 0.7950(4) 0.6056(4)
H4 H 0.4639 0.8495 0.6146
C8 C 0.42188(16) 0.6763(4) 0.6376(4)
C9 C 0.25575(14) 0.4378(3) 0.5550(3)
C10 C 0.28525(14) 0.5103(3) 0.6152(3)
C11 C 0.26577(14) 0.5766(3) 0.6790(3)
H5 H 0.2346 0.5779 0.6812
C12 C 0.29325(14) 0.6407(3) 0.7394(3)
C13 C 0.33916(14) 0.6447(3) 0.7303(3)
H6 H 0.3574 0.6891 0.7695
C14 C 0.35826(14) 0.5825(3) 0.6627(3)
C15 C 0.33155(14) 0.5121(3) 0.6080(3)
H7 H 0.3446 0.4664 0.5669
C16 C 0.27269(14) 0.7019(3) 0.8175(3)
N1 N 0.40512(12) 0.5877(3) 0.6464(3)
O1 O 0.61635(10) 0.8477(2) 0.5366(2)
O2 O 0.62702(10) 0.6810(2) 0.5165(2)
O3 O 0.27225(9) 0.3546(2) 0.5254(2)
O4 O 0.21507(9) 0.4598(2) 0.5352(2)
O5 O 0.23316(10) 0.6816(2) 0.8333(2)
O6 O 0.29786(9) 0.7696(2) 0.8624(2)
H13 H 0.4033(15) 0.739(3) 0.645(4)
Eu2 Eu 0.685623(6) 0.800062(15) 0.463445(14)
Eu3 Eu 0.185623(6) 0.300062(15) 0.463445(14)
Eu4 Eu 0.314377(6) 0.199938(15) 0.536555(14)
Eu5 Eu 0.185623(6) 0.699938(15) 0.963445(14)
O8 O 0.38365(10) 0.8477(2) 0.9634(2)
O9 O 0.37298(10) 0.6810(2) 0.9835(2)
O10 O 0.22775(9) 0.8546(2) 0.9746(2)
O12 O 0.28493(9) 0.9598(2) 0.9648(2)
Eu3_2 Eu 0.814377(6) 0.300062(15) 0.036555(14)
C1_2 C 0.39736(14) 0.7552(4) 0.9609(3)
C2_2 C 0.44350(15) 0.7343(4) 0.9316(3)
C3_2 C 0.45815(17) 0.6339(4) 0.9203(4)
H1_2 H 0.4385 0.5794 0.9289
C4_2 C 0.50154(17) 0.6135(4) 0.8964(4)
H2_2 H 0.5110 0.5457 0.8893
C5_2 C 0.47332(16) 0.8148(4) 0.9190(4)
H3_2 H 0.4641 0.8825 0.9272
C6_2 C 0.53102(17) 0.6945(4) 0.8830(4)
C7_2 C 0.51660(16) 0.7950(4) 0.8944(4)
H4_2 H 0.5361 0.8495 0.8854
C8_2 C 0.57812(16) 0.6763(4) 0.8624(4)
C9_2 C 0.74425(14) 0.4378(3) 0.9450(3)
C10_2 C 0.71475(14) 0.5103(3) 0.8848(3)
C11_2 C 0.73423(14) 0.5766(3) 0.8210(3)
H5_2 H 0.7654 0.5779 0.8188
C12_2 C 0.70675(14) 0.6407(3) 0.7606(3)
C13_2 C 0.66084(14) 0.6447(3) 0.7697(3)
H6_2 H 0.6426 0.6891 0.7305
C14_2 C 0.64174(14) 0.5825(3) 0.8373(3)
C15_2 C 0.66845(14) 0.5121(3) 0.8920(3)
H7_2 H 0.6554 0.4664 0.9331
C16_2 C 0.72731(14) 0.7019(3) 0.6825(3)
C19_2 C 0.60930(15) 0.9825(4) 0.3166(3)
C20_2 C 0.56701(17) 0.9318(5) 0.3434(4)
H10_2 H 0.5746 0.8794 0.3912
H11_2 H 0.5514 0.9011 0.2867
H12_2 H 0.5479 0.9824 0.3695
N1_2 N 0.59488(12) 0.5877(3) 0.8536(3)
N2_2 N 0.65228(12) 0.9550(3) 0.3577(3)
O3_2 O 0.72775(9) 0.3546(2) 0.9746(2)
O4_2 O 0.78493(9) 0.4598(2) 0.9648(2)
O5_2 O 0.76684(10) 0.6816(2) 0.6667(2)
O6_2 O 0.70214(9) 0.7696(2) 0.6376(2)
O7_2 O 0.64233(11) 0.7274(3) 0.3271(2)
H13_2 H 0.5967(15) 0.739(3) 0.855(4)
Eu4_2 Eu 0.685623(6) 0.199938(15) 0.963445(14)
Eu5_2 Eu 0.814377(6) 0.699938(15) 0.536555(14)
O10_2 O 0.77225(9) 0.8546(2) 0.5254(2)
O11_2 O 0.72775(9) 0.6454(2) 0.4746(2)
O12_2 O 0.71507(9) 0.9598(2) 0.5352(2)
O13_2 O 0.73316(10) 0.8184(2) 0.3333(2)
H15_2 H 0.654866 0.750284 0.266502
H16_2 H 0.643602 0.651014 0.331379
C1_3 C 0.10264(14) 0.2552(4) 0.5391(3)
C2_3 C 0.05650(15) 0.2343(4) 0.5684(3)
C3_3 C 0.04185(17) 0.1339(4) 0.5797(4)
H1_3 H 0.0615 0.0794 0.5711
C5_3 C 0.02668(16) 0.3148(4) 0.5810(4)
H3_3 H 0.0359 0.3825 0.5728
O1_2 O 0.11635(10) 0.3477(2) 0.5366(2)
O2_2 O 0.12702(10) 0.1810(2) 0.5165(2)
C17_2 C 0.82000(16) 0.5159(4) 0.1855(3)
H8_2 H 0.7887 0.5138 0.1731
C18_2 C 0.88680(16) 0.5602(4) 0.2478(3)
H9_2 H 0.9103 0.5934 0.2844
C19_3 C 0.89070(15) 0.4825(4) 0.1834(3)
C20_3 C 0.93299(17) 0.4318(5) 0.1566(4)
H10_3 H 0.9254 0.3794 0.1088
H11_3 H 0.9486 0.4011 0.2133
H12_3 H 0.9521 0.4824 0.1305
N2_3 N 0.84772(12) 0.4550(3) 0.1423(3)
N3_2 N 0.84153(13) 0.5805(3) 0.2485(3)
O7_3 O 0.85767(11) 0.2274(3) 0.1729(2)
H14_2 H 0.8268(15) 0.629(3) 0.290(3)
O11_3 O 0.77225(9) 0.1454(2) 0.0254(2)
O13_3 O 0.76684(10) 0.3184(2) 0.1667(2)
H15_3 H 0.845134 0.250284 0.233498
H16_3 H 0.856398 0.151014 0.168621
C4_3 C 0.99846(17) 0.1135(4) 0.6036(4)
H2_3 H 0.9890 0.0457 0.6107
C6_3 C 0.96898(17) 0.1945(4) 0.6170(4)
C7_3 C 0.98340(16) 0.2950(4) 0.6056(4)
H4_3 H 0.9639 0.3495 0.6146
C8_3 C 0.92188(16) 0.1763(4) 0.6376(4)
C10_3 C 0.78525(14) 0.0103(3) 0.6152(3)
C11_3 C 0.76577(14) 0.0766(3) 0.6790(3)
H5_3 H 0.7346 0.0779 0.6812
C12_3 C 0.79325(14) 0.1407(3) 0.7394(3)
C13_3 C 0.83916(14) 0.1447(3) 0.7303(3)
H6_3 H 0.8574 0.1891 0.7695
C14_3 C 0.85826(14) 0.0825(3) 0.6627(3)
C15_3 C 0.83155(14) 0.0121(3) 0.6080(3)
C16_3 C 0.77269(14) 0.2019(3) 0.8175(3)
N1_3 N 0.90512(12) 0.0877(3) 0.6464(3)
O5_3 O 0.73316(10) 0.1816(2) 0.8333(2)
O6_3 O 0.79786(9) 0.2696(2) 0.8624(2)
H13_3 H 0.9033(15) 0.239(3) 0.645(4)
O8_2 O 0.88365(10) 0.3477(2) 0.9634(2)
O9_2 O 0.87298(10) 0.1810(2) 0.9835(2)
C9_3 C 0.75575(14) 0.9378(3) 0.5550(3)
H7_3 H 0.8446 0.9664 0.5669
C4_4 C 0.00154(17) 0.1135(4) 0.8964(4)
H2_4 H 0.0110 0.0457 0.8893
C6_4 C 0.03102(17) 0.1945(4) 0.8830(4)
C7_4 C 0.01660(16) 0.2950(4) 0.8944(4)
H4_4 H 0.0361 0.3495 0.8854
C8_4 C 0.07812(16) 0.1763(4) 0.8624(4)
C10_4 C 0.21475(14) 0.0103(3) 0.8848(3)
C11_4 C 0.23423(14) 0.0766(3) 0.8210(3)
H5_4 H 0.2654 0.0779 0.8188
C12_4 C 0.20675(14) 0.1407(3) 0.7606(3)
C13_4 C 0.16084(14) 0.1447(3) 0.7697(3)
H6_4 H 0.1426 0.1891 0.7305
C14_4 C 0.14174(14) 0.0825(3) 0.8373(3)
C15_4 C 0.16845(14) 0.0121(3) 0.8920(3)
C16_4 C 0.22731(14) 0.2019(3) 0.6825(3)
C17_3 C 0.18000(16) 0.5159(4) 0.3145(3)
H8_3 H 0.2113 0.5138 0.3269
C18_3 C 0.11320(16) 0.5602(4) 0.2522(3)
H9_3 H 0.0897 0.5934 0.2156
C19_4 C 0.10930(15) 0.4825(4) 0.3166(3)
C20_4 C 0.06701(17) 0.4318(5) 0.3434(4)
H10_4 H 0.0746 0.3794 0.3912
H11_4 H 0.0514 0.4011 0.2867
H12_4 H 0.0479 0.4824 0.3695
N1_4 N 0.09488(12) 0.0877(3) 0.8536(3)
N2_4 N 0.15228(12) 0.4550(3) 0.3577(3)
N3_3 N 0.15847(13) 0.5805(3) 0.2515(3)
O5_4 O 0.26684(10) 0.1816(2) 0.6667(2)
O6_4 O 0.20214(9) 0.2696(2) 0.6376(2)
O7_4 O 0.14233(11) 0.2274(3) 0.3271(2)
H13_4 H 0.0967(15) 0.239(3) 0.855(4)
H14_3 H 0.1732(15) 0.629(3) 0.210(3)
O11_4 O 0.22775(9) 0.1454(2) 0.4746(2)
O13_4 O 0.23316(10) 0.3184(2) 0.3333(2)
H15_4 H 0.154866 0.250284 0.266502
H16_4 H 0.143602 0.151014 0.331379
C9_4 C 0.24425(14) 0.9378(3) 0.9450(3)
H7_4 H 0.1554 0.9664 0.9331
C1_4 C 0.89736(14) 0.2552(4) 0.9609(3)
C2_4 C 0.94350(15) 0.2343(4) 0.9316(3)
C3_4 C 0.95815(17) 0.1339(4) 0.9203(4)
H1_4 H 0.9385 0.0794 0.9289
C5_4 C 0.97332(16) 0.3148(4) 0.9190(4)
H3_4 H 0.9641 0.3825 0.9272
C1_5 C 0.39736(14) 0.2448(4) 0.4609(3)
C2_5 C 0.44350(15) 0.2657(4) 0.4316(3)
C3_5 C 0.45815(17) 0.3661(4) 0.4203(4)
H1_5 H 0.4385 0.4206 0.4289
C4_5 C 0.50154(17) 0.3865(4) 0.3964(4)
H2_5 H 0.5110 0.4543 0.3893
C5_5 C 0.47332(16) 0.1852(4) 0.4190(4)
H3_5 H 0.4641 0.1175 0.4272
C6_5 C 0.53102(17) 0.3055(4) 0.3830(4)
C7_5 C 0.51660(16) 0.2050(4) 0.3944(4)
H4_5 H 0.5361 0.1505 0.3854
C8_5 C 0.57812(16) 0.3237(4) 0.3624(4)
C9_5 C 0.74425(14) 0.5622(3) 0.4450(3)
C10_5 C 0.71475(14) 0.4897(3) 0.3848(3)
C11_5 C 0.73423(14) 0.4234(3) 0.3210(3)
H5_5 H 0.7654 0.4221 0.3188
C12_5 C 0.70675(14) 0.3593(3) 0.2606(3)
C13_5 C 0.66084(14) 0.3553(3) 0.2697(3)
H6_5 H 0.6426 0.3109 0.2305
C14_5 C 0.64174(14) 0.4175(3) 0.3373(3)
C15_5 C 0.66845(14) 0.4879(3) 0.3920(3)
H7_5 H 0.6554 0.5336 0.4331
C16_5 C 0.72731(14) 0.2981(3) 0.1825(3)
N1_5 N 0.59488(12) 0.4123(3) 0.3536(3)
O1_3 O 0.38365(10) 0.1523(2) 0.4634(2)
O2_3 O 0.37298(10) 0.3190(2) 0.4835(2)
O4_3 O 0.78493(9) 0.5402(2) 0.4648(2)
O6_5 O 0.70214(9) 0.2304(2) 0.1376(2)
H13_5 H 0.5967(15) 0.261(3) 0.355(4)
O8_3 O 0.61635(10) 0.1523(2) 0.0366(2)
O9_3 O 0.62702(10) 0.3190(2) 0.0165(2)
O12_3 O 0.71507(9) 0.0402(2) 0.0352(2)
C19_5 C 0.60930(15) 0.0175(4) 0.8166(3)
C20_5 C 0.56701(17) 0.0682(5) 0.8434(4)
H10_5 H 0.5746 0.1206 0.8912
H11_5 H 0.5514 0.0989 0.7867
H12_5 H 0.5479 0.0176 0.8695
N2_5 N 0.65228(12) 0.0450(3) 0.8577(3)
O7_5 O 0.64233(11) 0.2726(3) 0.8271(2)
H15_5 H 0.654866 0.249716 0.766502
H16_5 H 0.643602 0.348986 0.831379
C1_6 C 0.60264(14) 0.2448(4) 0.0391(3)
C2_6 C 0.55650(15) 0.2657(4) 0.0684(3)
C3_6 C 0.54185(17) 0.3661(4) 0.0797(4)
H1_6 H 0.5615 0.4206 0.0711
C4_6 C 0.49846(17) 0.3865(4) 0.1036(4)
H2_6 H 0.4890 0.4543 0.1107
C5_6 C 0.52668(16) 0.1852(4) 0.0810(4)
H3_6 H 0.5359 0.1175 0.0728
C6_6 C 0.46898(17) 0.3055(4) 0.1170(4)
C7_6 C 0.48340(16) 0.2050(4) 0.1056(4)
H4_6 H 0.4639 0.1505 0.1146
C8_6 C 0.42188(16) 0.3237(4) 0.1376(4)
C9_6 C 0.25575(14) 0.5622(3) 0.0550(3)
C10_6 C 0.28525(14) 0.4897(3) 0.1152(3)
C11_6 C 0.26577(14) 0.4234(3) 0.1790(3)
H5_6 H 0.2346 0.4221 0.1812
C12_6 C 0.29325(14) 0.3593(3) 0.2394(3)
C13_6 C 0.33916(14) 0.3553(3) 0.2303(3)
H6_6 H 0.3574 0.3109 0.2695
C14_6 C 0.35826(14) 0.4175(3) 0.1627(3)
C15_6 C 0.33155(14) 0.4879(3) 0.1080(3)
H7_6 H 0.3446 0.5336 0.0669
C16_6 C 0.27269(14) 0.2981(3) 0.3175(3)
C19_6 C 0.39070(15) 0.0175(4) 0.6834(3)
C20_6 C 0.43299(17) 0.0682(5) 0.6566(4)
H10_6 H 0.4254 0.1206 0.6088
H11_6 H 0.4486 0.0989 0.7133
H12_6 H 0.4521 0.0176 0.6305
N1_6 N 0.40512(12) 0.4123(3) 0.1464(3)
N2_6 N 0.34772(12) 0.0450(3) 0.6423(3)
O4_4 O 0.21507(9) 0.5402(2) 0.0352(2)
O6_6 O 0.29786(9) 0.2304(2) 0.3624(2)
O7_6 O 0.35767(11) 0.2726(3) 0.6729(2)
H13_6 H 0.4033(15) 0.261(3) 0.145(4)
O12_4 O 0.28493(9) 0.0402(2) 0.4648(2)
H15_6 H 0.345134 0.249716 0.733498
H16_6 H 0.356398 0.348986 0.668621
C9_7 C 0.24425(14) 0.0622(3) 0.4450(3)
H7_7 H 0.1554 0.0336 0.4331
C4_7 C 0.00154(17) 0.8865(4) 0.3964(4)
H2_7 H 0.0110 0.9543 0.3893
C6_7 C 0.03102(17) 0.8055(4) 0.3830(4)
C7_7 C 0.01660(16) 0.7050(4) 0.3944(4)
H4_7 H 0.0361 0.6505 0.3854
C8_7 C 0.07812(16) 0.8237(4) 0.3624(4)
C10_7 C 0.21475(14) 0.9897(3) 0.3848(3)
C11_7 C 0.23423(14) 0.9234(3) 0.3210(3)
H5_7 H 0.2654 0.9221 0.3188
C12_7 C 0.20675(14) 0.8593(3) 0.2606(3)
C13_7 C 0.16084(14) 0.8553(3) 0.2697(3)
H6_7 H 0.1426 0.8109 0.2305
C14_7 C 0.14174(14) 0.9175(3) 0.3373(3)
C15_7 C 0.16845(14) 0.9879(3) 0.3920(3)
C16_7 C 0.22731(14) 0.7981(3) 0.1825(3)
N1_7 N 0.09488(12) 0.9123(3) 0.3536(3)
O6_7 O 0.20214(9) 0.7304(2) 0.1376(2)
H13_7 H 0.0967(15) 0.761(3) 0.355(4)
O8_4 O 0.11635(10) 0.6523(2) 0.0366(2)
O9_4 O 0.12702(10) 0.8190(2) 0.0165(2)
C17_4 C 0.18000(16) 0.4841(4) 0.8145(3)
H8_4 H 0.2113 0.4862 0.8269
C18_4 C 0.11320(16) 0.4398(4) 0.7522(3)
H9_4 H 0.0897 0.4066 0.7156
C19_7 C 0.10930(15) 0.5175(4) 0.8166(3)
C20_7 C 0.06701(17) 0.5682(5) 0.8434(4)
H10_7 H 0.0746 0.6206 0.8912
H11_7 H 0.0514 0.5989 0.7867
H12_7 H 0.0479 0.5176 0.8695
N2_7 N 0.15228(12) 0.5450(3) 0.8577(3)
N3_4 N 0.15847(13) 0.4195(3) 0.7515(3)
O7_7 O 0.14233(11) 0.7726(3) 0.8271(2)
H14_4 H 0.1732(15) 0.371(3) 0.710(3)
H15_7 H 0.154866 0.749716 0.766502
H16_7 H 0.143602 0.848986 0.831379
C1_7 C 0.89736(14) 0.7448(4) 0.4609(3)
C2_7 C 0.94350(15) 0.7657(4) 0.4316(3)
C3_7 C 0.95815(17) 0.8661(4) 0.4203(4)
H1_7 H 0.9385 0.9206 0.4289
C5_7 C 0.97332(16) 0.6852(4) 0.4190(4)
H3_7 H 0.9641 0.6175 0.4272
O1_4 O 0.88365(10) 0.6523(2) 0.4634(2)
O2_4 O 0.87298(10) 0.8190(2) 0.4835(2)
C1_8 C 0.10264(14) 0.7448(4) 0.0391(3)
C2_8 C 0.05650(15) 0.7657(4) 0.0684(3)
C3_8 C 0.04185(17) 0.8661(4) 0.0797(4)
H1_8 H 0.0615 0.9206 0.0711
C5_8 C 0.02668(16) 0.6852(4) 0.0810(4)
H3_8 H 0.0359 0.6175 0.0728
C9_8 C 0.75575(14) 0.0622(3) 0.0550(3)
H7_8 H 0.8446 0.0336 0.0669
C4_8 C 0.99846(17) 0.8865(4) 0.1036(4)
H2_8 H 0.9890 0.9543 0.1107
C6_8 C 0.96898(17) 0.8055(4) 0.1170(4)
C7_8 C 0.98340(16) 0.7050(4) 0.1056(4)
H4_8 H 0.9639 0.6505 0.1146
C8_8 C 0.92188(16) 0.8237(4) 0.1376(4)
C10_8 C 0.78525(14) 0.9897(3) 0.1152(3)
C11_8 C 0.76577(14) 0.9234(3) 0.1790(3)
H5_8 H 0.7346 0.9221 0.1812
C12_8 C 0.79325(14) 0.8593(3) 0.2394(3)
C13_8 C 0.83916(14) 0.8553(3) 0.2303(3)
H6_8 H 0.8574 0.8109 0.2695
C14_8 C 0.85826(14) 0.9175(3) 0.1627(3)
C15_8 C 0.83155(14) 0.9879(3) 0.1080(3)
C16_8 C 0.77269(14) 0.7981(3) 0.3175(3)
C17_5 C 0.82000(16) 0.4841(4) 0.6855(3)
H8_5 H 0.7887 0.4862 0.6731
C18_5 C 0.88680(16) 0.4398(4) 0.7478(3)
H9_5 H 0.9103 0.4066 0.7844
C19_8 C 0.89070(15) 0.5175(4) 0.6834(3)
C20_8 C 0.93299(17) 0.5682(5) 0.6566(4)
H10_8 H 0.9254 0.6206 0.6088
H11_8 H 0.9486 0.5989 0.7133
H12_8 H 0.9521 0.5176 0.6305
N1_8 N 0.90512(12) 0.9123(3) 0.1464(3)
N2_8 N 0.84772(12) 0.5450(3) 0.6423(3)
N3_5 N 0.84153(13) 0.4195(3) 0.7485(3)
O6_8 O 0.79786(9) 0.7304(2) 0.3624(2)
O7_8 O 0.85767(11) 0.7726(3) 0.6729(2)
H13_8 H 0.9033(15) 0.761(3) 0.145(4)
H14_5 H 0.8268(15) 0.371(3) 0.790(3)
H15_8 H 0.845134 0.749716 0.733498
H16_8 H 0.856398 0.848986 0.668621
C17_6 C 0.68000(16) 0.0159(4) 0.3145(3)
H8_6 H 0.7113 0.0138 0.3269
C18_6 C 0.61320(16) 0.0602(4) 0.2522(3)
H9_6 H 0.5897 0.0934 0.2156
N3_6 N 0.65847(13) 0.0805(3) 0.2515(3)
H14_6 H 0.6732(15) 0.129(3) 0.210(3)
C17_7 C 0.68000(16) 0.9841(4) 0.8145(3)
H8_7 H 0.7113 0.9862 0.8269
C18_7 C 0.61320(16) 0.9398(4) 0.7522(3)
H9_7 H 0.5897 0.9066 0.7156
N3_7 N 0.65847(13) 0.9195(3) 0.7515(3)
H14_7 H 0.6732(15) 0.871(3) 0.710(3)
C17_8 C 0.32000(16) 0.9841(4) 0.6855(3)
H8_8 H 0.2887 0.9862 0.6731
C18_8 C 0.38680(16) 0.9398(4) 0.7478(3)
H9_8 H 0.4103 0.9066 0.7844
N3_8 N 0.34153(13) 0.9195(3) 0.7485(3)
H14_8 H 0.3268(15) 0.871(3) 0.790(3)
loop_
_geom_bond_atom_site_label_1
_geom_bond_atom_site_label_2
_geom_bond_site_symmetry_1
_geom_bond_site_symmetry_2
C17 H8 1_555 1_555
C18 H9 1_555 1_555
N3 C17 1_555 1_555
H14 N3 1_555 1_555
C18 N3 1_555 1_555
Eu1 N2 1_555 1_555
C20 C19 1_555 1_555
H10 C20 1_555 1_555
H11 C20 1_555 1_555
H12 C20 1_555 1_555
O7 Eu1 1_555 1_555
O11 Eu1 1_555 1_555
O13 Eu1 1_555 1_555
C19 N2 1_555 1_555
O7 H15 1_555 1_555
O7 H16 1_555 1_555
C1 C2 1_555 1_555
C2 C3 1_555 1_555
C3 H1 1_555 1_555
C4 C3 1_555 1_555
H2 C4 1_555 1_555
C5 C2 1_555 1_555
H3 C5 1_555 1_555
C6 C4 1_555 1_555
C7 C5 1_555 1_555
H4 C7 1_555 1_555
C8 C6 1_555 1_555
C9 C10 1_555 1_555
C10 C11 1_555 1_555
C11 H5 1_555 1_555
C12 C11 1_555 1_555
C13 C12 1_555 1_555
H6 C13 1_555 1_555
C14 C13 1_555 1_555
C15 C10 1_555 1_555
H7 C15 1_555 1_555
C16 C12 1_555 1_555
N1 C8 1_555 1_555
O1 C1 1_555 1_555
O2 C1 1_555 1_555
O3 C9 1_555 1_555
O4 C9 1_555 1_555
O5 C16 1_555 1_555
H13 C8 1_555 1_555
Eu2 O1 1_555 1_555
Eu3 O3 1_555 1_555
Eu4 O3 1_555 1_555
Eu5 O5 1_555 1_555
C6 C7 1_555 1_555
C14 C15 1_555 1_555
C14 N1 1_555 1_555
C16 O6 1_555 1_555
O2 Eu2 1_555 1_555
O4 Eu3 1_555 1_555
Eu5 O10 1_555 1_555
Eu2 N2_2 1_555 1_555
C1_2 C2_2 1_555 1_555
C2_2 C3_2 1_555 1_555
C3_2 H1_2 1_555 1_555
C4_2 C3_2 1_555 1_555
H2_2 C4_2 1_555 1_555
C5_2 C2_2 1_555 1_555
H3_2 C5_2 1_555 1_555
C6_2 C4_2 1_555 1_555
C7_2 C5_2 1_555 1_555
H4_2 C7_2 1_555 1_555
C8_2 C6_2 1_555 1_555
C9_2 C10_2 1_555 1_555
C10_2 C11_2 1_555 1_555
C11_2 H5_2 1_555 1_555
C12_2 C11_2 1_555 1_555
C13_2 C12_2 1_555 1_555
H6_2 C13_2 1_555 1_555
C14_2 C13_2 1_555 1_555
C15_2 C10_2 1_555 1_555
H7_2 C15_2 1_555 1_555
C16_2 C12_2 1_555 1_555
C20_2 C19_2 1_555 1_555
H10_2 C20_2 1_555 1_555
H11_2 C20_2 1_555 1_555
H12_2 C20_2 1_555 1_555
N1_2 C8_2 1_555 1_555
O8 C1_2 1_555 1_555
O9 C1_2 1_555 1_555
O3_2 C9_2 1_555 1_555
O4_2 C9_2 1_555 1_555
O5_2 C16_2 1_555 1_555
O6_2 Eu2 1_555 1_555
O7_2 Eu2 1_555 1_555
H13_2 C8_2 1_555 1_555
Eu4_2 O3_2 1_555 1_555
Eu5_2 O5_2 1_555 1_555
O10_2 Eu2 1_555 1_555
O11_2 Eu2 1_555 1_555
O12_2 Eu2 1_555 1_555
O13_2 Eu2 1_555 1_555
C6_2 C7_2 1_555 1_555
C14_2 C15_2 1_555 1_555
C14_2 N1_2 1_555 1_555
C16_2 O6_2 1_555 1_555
C19_2 N2_2 1_555 1_555
Eu5_2 O10_2 1_555 1_555
Eu5_2 O11_2 1_555 1_555
O7_2 H15_2 1_555 1_555
O7_2 H16_2 1_555 1_555
C1_3 C2_3 1_555 1_555
C2_3 C3_3 1_555 1_555
C3_3 H1_3 1_555 1_555
C5_3 C2_3 1_555 1_555
H3_3 C5_3 1_555 1_555
O1_2 C1_3 1_555 1_555
O2_2 C1_3 1_555 1_555
Eu3 O1_2 1_555 1_555
O2_2 Eu3 1_555 1_555
Eu3_2 N2_3 1_555 1_555
C17_2 H8_2 1_555 1_555
C18_2 H9_2 1_555 1_555
C19_3 C18_2 1_555 1_555
C20_3 C19_3 1_555 1_555
H10_3 C20_3 1_555 1_555
H11_3 C20_3 1_555 1_555
H12_3 C20_3 1_555 1_555
N2_3 C17_2 1_555 1_555
N3_2 C17_2 1_555 1_555
O7_3 Eu3_2 1_555 1_555
H14_2 N3_2 1_555 1_555
O11_3 Eu3_2 1_555 1_555
O13_3 Eu3_2 1_555 1_555
C18_2 N3_2 1_555 1_555
C19_3 N2_3 1_555 1_555
O7_3 H15_3 1_555 1_555
O7_3 H16_3 1_555 1_555
H2_3 C4_3 1_555 1_555
C6_3 C4_3 1_555 1_555
H4_3 C7_3 1_555 1_555
C8_3 C6_3 1_555 1_555
C10_3 C11_3 1_555 1_555
C11_3 H5_3 1_555 1_555
C12_3 C11_3 1_555 1_555
C13_3 C12_3 1_555 1_555
H6_3 C13_3 1_555 1_555
C14_3 C13_3 1_555 1_555
C15_3 C10_3 1_555 1_555
C16_3 C12_3 1_555 1_555
N1_3 C8_3 1_555 1_555
O5_3 C16_3 1_555 1_555
H13_3 C8_3 1_555 1_555
Eu4_2 O5_3 1_555 1_555
C6_3 C7_3 1_555 1_555
C14_3 C15_3 1_555 1_555
C14_3 N1_3 1_555 1_555
C16_3 O6_3 1_555 1_555
O10_2 C9_3 1_555 1_555
O12_2 C9_3 1_555 1_555
Eu3 N2_4 1_555 1_555
H2_4 C4_4 1_555 1_555
C6_4 C4_4 1_555 1_555
H4_4 C7_4 1_555 1_555
C8_4 C6_4 1_555 1_555
C10_4 C11_4 1_555 1_555
C11_4 H5_4 1_555 1_555
C12_4 C11_4 1_555 1_555
C13_4 C12_4 1_555 1_555
H6_4 C13_4 1_555 1_555
C14_4 C13_4 1_555 1_555
C15_4 C10_4 1_555 1_555
C16_4 C12_4 1_555 1_555
C17_3 H8_3 1_555 1_555
C18_3 H9_3 1_555 1_555
C19_4 C18_3 1_555 1_555
C20_4 C19_4 1_555 1_555
H10_4 C20_4 1_555 1_555
H11_4 C20_4 1_555 1_555
H12_4 C20_4 1_555 1_555
N1_4 C8_4 1_555 1_555
N2_4 C17_3 1_555 1_555
N3_3 C17_3 1_555 1_555
O5_4 C16_4 1_555 1_555
O6_4 Eu3 1_555 1_555
O7_4 Eu3 1_555 1_555
H13_4 C8_4 1_555 1_555
H14_3 N3_3 1_555 1_555
Eu4 O5_4 1_555 1_555
O11_4 Eu3 1_555 1_555
O13_4 Eu3 1_555 1_555
C6_4 C7_4 1_555 1_555
C14_4 C15_4 1_555 1_555
C14_4 N1_4 1_555 1_555
C16_4 O6_4 1_555 1_555
C18_3 N3_3 1_555 1_555
C19_4 N2_4 1_555 1_555
Eu4 O11_4 1_555 1_555
O7_4 H15_4 1_555 1_555
O7_4 H16_4 1_555 1_555
O10 C9_4 1_555 1_555
O12 C9_4 1_555 1_555
C1_4 C2_4 1_555 1_555
C2_4 C3_4 1_555 1_555
C3_4 H1_4 1_555 1_555
C5_4 C2_4 1_555 1_555
H3_4 C5_4 1_555 1_555
O8_2 C1_4 1_555 1_555
O9_2 C1_4 1_555 1_555
C1_5 C2_5 1_555 1_555
C2_5 C3_5 1_555 1_555
C3_5 H1_5 1_555 1_555
C4_5 C3_5 1_555 1_555
H2_5 C4_5 1_555 1_555
C5_5 C2_5 1_555 1_555
H3_5 C5_5 1_555 1_555
C6_5 C4_5 1_555 1_555
C7_5 C5_5 1_555 1_555
H4_5 C7_5 1_555 1_555
C8_5 C6_5 1_555 1_555
C9_5 C10_5 1_555 1_555
C10_5 C11_5 1_555 1_555
C11_5 H5_5 1_555 1_555
C12_5 C11_5 1_555 1_555
C13_5 C12_5 1_555 1_555
H6_5 C13_5 1_555 1_555
C14_5 C13_5 1_555 1_555
C15_5 C10_5 1_555 1_555
H7_5 C15_5 1_555 1_555
C16_5 C12_5 1_555 1_555
N1_5 C8_5 1_555 1_555
O1_3 C1_5 1_555 1_555
O2_3 C1_5 1_555 1_555
O11_2 C9_5 1_555 1_555
O4_3 C9_5 1_555 1_555
O13_3 C16_5 1_555 1_555
H13_5 C8_5 1_555 1_555
Eu4 O1_3 1_555 1_555
C6_5 C7_5 1_555 1_555
C14_5 C15_5 1_555 1_555
C14_5 N1_5 1_555 1_555
C16_5 O6_5 1_555 1_555
O2_3 Eu4 1_555 1_555
O4_3 Eu5_2 1_555 1_555
Eu4_2 N2_5 1_555 1_555
C20_5 C19_5 1_555 1_555
H10_5 C20_5 1_555 1_555
H11_5 C20_5 1_555 1_555
H12_5 C20_5 1_555 1_555
O7_5 Eu4_2 1_555 1_555
C19_5 N2_5 1_555 1_555
O7_5 H15_5 1_555 1_555
O7_5 H16_5 1_555 1_555
Eu4 N2_6 1_555 1_555
C1_6 C2_6 1_555 1_555
C2_6 C3_6 1_555 1_555
C3_6 H1_6 1_555 1_555
C4_6 C3_6 1_555 1_555
H2_6 C4_6 1_555 1_555
C5_6 C2_6 1_555 1_555
H3_6 C5_6 1_555 1_555
C6_6 C4_6 1_555 1_555
C7_6 C5_6 1_555 1_555
H4_6 C7_6 1_555 1_555
C8_6 C6_6 1_555 1_555
C9_6 C10_6 1_555 1_555
C10_6 C11_6 1_555 1_555
C11_6 H5_6 1_555 1_555
C12_6 C11_6 1_555 1_555
C13_6 C12_6 1_555 1_555
H6_6 C13_6 1_555 1_555
C14_6 C13_6 1_555 1_555
C15_6 C10_6 1_555 1_555
H7_6 C15_6 1_555 1_555
C16_6 C12_6 1_555 1_555
C20_6 C19_6 1_555 1_555
H10_6 C20_6 1_555 1_555
H11_6 C20_6 1_555 1_555
H12_6 C20_6 1_555 1_555
N1_6 C8_6 1_555 1_555
O8_3 C1_6 1_555 1_555
O9_3 C1_6 1_555 1_555
O11 C9_6 1_555 1_555
O4_4 C9_6 1_555 1_555
O13_4 C16_6 1_555 1_555
O6_6 Eu4 1_555 1_555
O7_6 Eu4 1_555 1_555
H13_6 C8_6 1_555 1_555
O12_4 Eu4 1_555 1_555
C6_6 C7_6 1_555 1_555
C14_6 C15_6 1_555 1_555
C14_6 N1_6 1_555 1_555
C16_6 O6_6 1_555 1_555
C19_6 N2_6 1_555 1_555
O7_6 H15_6 1_555 1_555
O7_6 H16_6 1_555 1_555
O11_4 C9_7 1_555 1_555
O12_4 C9_7 1_555 1_555
H2_7 C4_7 1_555 1_555
C6_7 C4_7 1_555 1_555
H4_7 C7_7 1_555 1_555
C8_7 C6_7 1_555 1_555
C10_7 C11_7 1_555 1_555
C11_7 H5_7 1_555 1_555
C12_7 C11_7 1_555 1_555
C13_7 C12_7 1_555 1_555
H6_7 C13_7 1_555 1_555
C14_7 C13_7 1_555 1_555
C15_7 C10_7 1_555 1_555
C16_7 C12_7 1_555 1_555
N1_7 C8_7 1_555 1_555
O13 C16_7 1_555 1_555
H13_7 C8_7 1_555 1_555
C6_7 C7_7 1_555 1_555
C14_7 C15_7 1_555 1_555
C14_7 N1_7 1_555 1_555
C16_7 O6_7 1_555 1_555
Eu5 N2_7 1_555 1_555
C17_4 H8_4 1_555 1_555
C18_4 H9_4 1_555 1_555
C19_7 C18_4 1_555 1_555
C20_7 C19_7 1_555 1_555
H10_7 C20_7 1_555 1_555
H11_7 C20_7 1_555 1_555
H12_7 C20_7 1_555 1_555
N2_7 C17_4 1_555 1_555
N3_4 C17_4 1_555 1_555
O7_7 Eu5 1_555 1_555
H14_4 N3_4 1_555 1_555
C18_4 N3_4 1_555 1_555
C19_7 N2_7 1_555 1_555
O7_7 H15_7 1_555 1_555
O7_7 H16_7 1_555 1_555
C1_7 C2_7 1_555 1_555
C2_7 C3_7 1_555 1_555
C3_7 H1_7 1_555 1_555
C5_7 C2_7 1_555 1_555
H3_7 C5_7 1_555 1_555
O1_4 C1_7 1_555 1_555
O2_4 C1_7 1_555 1_555
Eu5_2 O1_4 1_555 1_555
O2_4 Eu5_2 1_555 1_555
C1_8 C2_8 1_555 1_555
C2_8 C3_8 1_555 1_555
C3_8 H1_8 1_555 1_555
C5_8 C2_8 1_555 1_555
H3_8 C5_8 1_555 1_555
O8_4 C1_8 1_555 1_555
O9_4 C1_8 1_555 1_555
O11_3 C9_8 1_555 1_555
O12_3 C9_8 1_555 1_555
Eu5_2 N2_8 1_555 1_555
H2_8 C4_8 1_555 1_555
C6_8 C4_8 1_555 1_555
H4_8 C7_8 1_555 1_555
C8_8 C6_8 1_555 1_555
C10_8 C11_8 1_555 1_555
C11_8 H5_8 1_555 1_555
C12_8 C11_8 1_555 1_555
C13_8 C12_8 1_555 1_555
H6_8 C13_8 1_555 1_555
C14_8 C13_8 1_555 1_555
C15_8 C10_8 1_555 1_555
C16_8 C12_8 1_555 1_555
C17_5 H8_5 1_555 1_555
C18_5 H9_5 1_555 1_555
C19_8 C18_5 1_555 1_555
C20_8 C19_8 1_555 1_555
H10_8 C20_8 1_555 1_555
H11_8 C20_8 1_555 1_555
H12_8 C20_8 1_555 1_555
N1_8 C8_8 1_555 1_555
N2_8 C17_5 1_555 1_555
N3_5 C17_5 1_555 1_555
O13_2 C16_8 1_555 1_555
O6_8 Eu5_2 1_555 1_555
O7_8 Eu5_2 1_555 1_555
H13_8 C8_8 1_555 1_555
H14_5 N3_5 1_555 1_555
C6_8 C7_8 1_555 1_555
C14_8 C15_8 1_555 1_555
C14_8 N1_8 1_555 1_555
C16_8 O6_8 1_555 1_555
C18_5 N3_5 1_555 1_555
C19_8 N2_8 1_555 1_555
O7_8 H15_8 1_555 1_555
O7_8 H16_8 1_555 1_555
C17_6 H8_6 1_555 1_555
C18_6 H9_6 1_555 1_555
N3_6 C17_6 1_555 1_555
H14_6 N3_6 1_555 1_555
C18_6 N3_6 1_555 1_555
C17_7 H8_7 1_555 1_555
C18_7 H9_7 1_555 1_555
N3_7 C17_7 1_555 1_555
H14_7 N3_7 1_555 1_555
C18_7 N3_7 1_555 1_555
C17_8 H8_8 1_555 1_555
C18_8 H9_8 1_555 1_555
N3_8 C17_8 1_555 1_555
H14_8 N3_8 1_555 1_555
C18_8 N3_8 1_555 1_555

#END
