
###############################################################################
#
# This file contains modified crystal structure data generated from the
# MOF subset of the Cambridge Structural Database (CSD) v543 
# hosted by the Cambridge Crystallographic Data Centre (CCDC).
#
# This work is licensed under the Creative Commons
# Attribution-NonCommercial-ShareAlike 4.0 International License.
# To view a copy of this license, visit
# http://creativecommons.org/licenses/by-nc-sa/4.0/
# or send a letter to
# Creative Commons, PO Box 1866, Mountain View, CA 94042, USA.
#
# CIF created using the CSD Python API on 29 September 2022
# The structure has been converted into the P1 space group
# The structure has a 3D framework
# The original CSD entry CUWYOK is in the monoclinic crystal system
# The framework has been calculated to contain at least 10.0% void space
# The void calculation uses a probe of radius 1.32A, grid spacing 0.4
# H atom positions have been added when not included in the experimental data
#
###############################################################################

data_CUWYOK
_chemical_formula_moiety         '(C160 H104 Eu8 N24 O56)n'
_symmetry_cell_setting           triclinic
_symmetry_space_group_name_H-M   'P 1'
_symmetry_Int_Tables_number      1
_space_group_name_Hall           'P 1'
loop_
_symmetry_equiv_pos_site_id
_symmetry_equiv_pos_as_xyz
1 x,y,z
_cell_length_a                   29.081(2)
_cell_length_b                   13.3943(12)
_cell_length_c                   13.5384(14)
_cell_angle_alpha                90
_cell_angle_beta                 98.053(8)
_cell_angle_gamma                90
_cell_volume                     5221.47
loop_
_atom_site_label
_atom_site_type_symbol
_atom_site_fract_x
_atom_site_fract_y
_atom_site_fract_z
N3 N 0.3416(3) 0.0746(7) 0.2653(7)
C17 C 0.3256(5) 0.0384(10) 0.1776(10)
H8 H 0.3037 0.0716 0.1328
C18 C 0.3628(5) 0.0052(11) 0.3142(11)
H9 H 0.3774 0.0065 0.3799
H13 H 0.337609 0.145472 0.289242
O1 O 0.3758(2) 0.6853(4) 0.0083(5)
O7 O 0.3636(3) 0.7479(7) 0.1976(5)
N2 N 0.3436(3) 0.9487(6) 0.1569(6)
C19 C 0.3597(5) 0.9289(10) 0.2500(9)
C20 C 0.3776(6) 0.8232(11) 0.2599(12)
H10 H 0.4109 0.8276 0.2615
H11 H 0.3724 0.8009 0.3256
Eu1 Eu 0.314072(11) 0.79913(2) 0.04433(2)
O10 O 0.27136(16) 0.6485(4) 0.0303(4)
O12 O 0.26682(18) 0.8130(4) 0.1732(4)
Eu3 Eu 0.814072(11) 0.29913(2) 0.04433(2)
O2 O 0.38660(18) 0.8455(4) 0.9839(4)
O3 O 0.78781(16) 0.4521(4) 0.9588(4)
O4 O 0.72864(16) 0.3515(4) 0.9697(4)
O5 O 0.69822(17) 0.7616(4) 0.6318(4)
O6 O 0.76682(18) 0.6870(4) 0.6732(4)
N1 N 0.5922(2) 0.5844(6) 0.8490(6)
C1 C 0.3992(3) 0.7561(7) 0.9811(6)
C2 C 0.4436(3) 0.7337(8) 0.9420(7)
C3 C 0.4708(4) 0.8081(8) 0.9139(11)
H1 H 0.4609 0.8741 0.9159
C4 C 0.5132(4) 0.7867(9) 0.8822(13)
H2 H 0.5313 0.8383 0.8624
C5 C 0.5284(4) 0.6895(8) 0.8801(9)
C6 C 0.5012(4) 0.6150(8) 0.9056(9)
H3 H 0.5112 0.5493 0.9021
C7 C 0.4582(3) 0.6346(8) 0.9374(8)
H4 H 0.4398 0.5826 0.9550
C8 C 0.5751(4) 0.6705(9) 0.8520(8)
C9 C 0.7452(3) 0.4323(5) 0.9377(5)
C10 C 0.7138(2) 0.5020(5) 0.8774(5)
C11 C 0.7324(2) 0.5678(5) 0.8126(5)
H5 H 0.7640 0.5659 0.8089
C12 C 0.7047(2) 0.6351(5) 0.7544(5)
C13 C 0.6671(3) 0.5086(6) 0.8841(5)
H6 H 0.6540 0.4644 0.9251
C14 C 0.6394(3) 0.5793(6) 0.8313(6)
C15 C 0.6576(3) 0.6399(6) 0.7627(6)
H7 H 0.6383 0.6835 0.7225
C16 C 0.7244(3) 0.6993(5) 0.6811(6)
H12 H 0.588(5) 0.732(7) 0.824(11)
O8 O 0.28781(16) 0.9521(4) 0.9588(4)
O9 O 0.22864(16) 0.8515(4) 0.9697(4)
O11 O 0.30178(17) 0.7616(4) 0.8682(4)
Eu2 Eu 0.685928(11) 0.79913(2) 0.45567(2)
Eu4 Eu 0.685928(11) 0.20087(2) 0.95567(2)
Eu5 Eu 0.814072(11) 0.70087(2) 0.54433(2)
O1_2 O 0.6242(2) 0.6853(4) 0.4917(5)
O2_2 O 0.61340(18) 0.8455(4) 0.5161(4)
O3_2 O 0.21219(16) 0.4521(4) 0.5412(4)
O4_2 O 0.27136(16) 0.3515(4) 0.5303(4)
O6_2 O 0.23318(18) 0.6870(4) 0.8268(4)
O7_2 O 0.6364(3) 0.7479(7) 0.3024(5)
N1_2 N 0.4078(2) 0.5844(6) 0.6510(6)
N2_2 N 0.6564(3) 0.9487(6) 0.3431(6)
C1_2 C 0.6008(3) 0.7561(7) 0.5189(6)
C2_2 C 0.5564(3) 0.7337(8) 0.5580(7)
C3_2 C 0.5292(4) 0.8081(8) 0.5861(11)
H1_2 H 0.5391 0.8741 0.5841
C4_2 C 0.4868(4) 0.7867(9) 0.6178(13)
H2_2 H 0.4687 0.8383 0.6376
C5_2 C 0.4716(4) 0.6895(8) 0.6199(9)
C6_2 C 0.4988(4) 0.6150(8) 0.5944(9)
H3_2 H 0.4888 0.5493 0.5979
C7_2 C 0.5418(3) 0.6346(8) 0.5626(8)
H4_2 H 0.5602 0.5826 0.5450
C8_2 C 0.4249(4) 0.6705(9) 0.6480(8)
C9_2 C 0.2548(3) 0.4323(5) 0.5623(5)
C10_2 C 0.2862(2) 0.5020(5) 0.6226(5)
C11_2 C 0.2676(2) 0.5678(5) 0.6874(5)
H5_2 H 0.2360 0.5659 0.6911
C12_2 C 0.2953(2) 0.6351(5) 0.7456(5)
C13_2 C 0.3329(3) 0.5086(6) 0.6159(5)
H6_2 H 0.3460 0.4644 0.5749
C14_2 C 0.3606(3) 0.5793(6) 0.6687(6)
C15_2 C 0.3424(3) 0.6399(6) 0.7373(6)
H7_2 H 0.3617 0.6835 0.7775
C16_2 C 0.2756(3) 0.6993(5) 0.8189(6)
C19_2 C 0.6403(5) 0.9289(10) 0.2500(9)
C20_2 C 0.6224(6) 0.8232(11) 0.2401(12)
H10_2 H 0.5891 0.8276 0.2385
H11_2 H 0.6276 0.8009 0.1744
H12_2 H 0.412(5) 0.732(7) 0.676(11)
O8_2 O 0.71219(16) 0.9521(4) 0.5412(4)
O9_2 O 0.77136(16) 0.8515(4) 0.5303(4)
O10_2 O 0.72864(16) 0.6485(4) 0.4697(4)
O12_2 O 0.73318(18) 0.8130(4) 0.3268(4)
Eu3_2 Eu 0.185928(11) 0.29913(2) 0.45567(2)
Eu4_2 Eu 0.314072(11) 0.20087(2) 0.54433(2)
Eu5_2 Eu 0.185928(11) 0.70087(2) 0.95567(2)
O5_2 O 0.19822(17) 0.2616(4) 0.6318(4)
O6_3 O 0.26682(18) 0.1870(4) 0.6732(4)
N1_3 N 0.0922(2) 0.0844(6) 0.8490(6)
C4_3 C 0.0132(4) 0.2867(9) 0.8822(13)
H2_3 H 0.0313 0.3383 0.8624
C5_3 C 0.0284(4) 0.1895(8) 0.8801(9)
C6_3 C 0.0012(4) 0.1150(8) 0.9056(9)
H3_3 H 0.0112 0.0493 0.9021
C8_3 C 0.0751(4) 0.1705(9) 0.8520(8)
C10_3 C 0.2138(2) 0.0020(5) 0.8774(5)
C11_3 C 0.2324(2) 0.0678(5) 0.8126(5)
H5_3 H 0.2640 0.0659 0.8089
C12_3 C 0.2047(2) 0.1351(5) 0.7544(5)
C13_3 C 0.1671(3) 0.0086(6) 0.8841(5)
C14_3 C 0.1394(3) 0.0793(6) 0.8313(6)
C15_3 C 0.1576(3) 0.1399(6) 0.7627(6)
H7_3 H 0.1383 0.1835 0.7225
C16_3 C 0.2244(3) 0.1993(5) 0.6811(6)
H12_3 H 0.088(5) 0.232(7) 0.824(11)
C9_3 C 0.2452(3) 0.9323(5) 0.9377(5)
H6_3 H 0.1540 0.9644 0.9251
O1_3 O 0.8758(2) 0.1853(4) 0.0083(5)
O7_3 O 0.8636(3) 0.2479(7) 0.1976(5)
N2_3 N 0.8436(3) 0.4487(6) 0.1569(6)
N3_2 N 0.8416(3) 0.5746(7) 0.2653(7)
C17_2 C 0.8256(5) 0.5384(10) 0.1776(10)
H8_2 H 0.8037 0.5716 0.1328
C18_2 C 0.8628(5) 0.5052(11) 0.3142(11)
H9_2 H 0.8774 0.5065 0.3799
C19_3 C 0.8597(5) 0.4289(10) 0.2500(9)
C20_3 C 0.8776(6) 0.3232(11) 0.2599(12)
H10_3 H 0.9109 0.3276 0.2615
H11_3 H 0.8724 0.3009 0.3256
O10_3 O 0.77136(16) 0.1485(4) 0.0303(4)
O12_3 O 0.76682(18) 0.3130(4) 0.1732(4)
H13_2 H 0.837609 0.645472 0.289242
O2_3 O 0.88660(18) 0.3455(4) 0.9839(4)
C1_3 C 0.8992(3) 0.2561(7) 0.9811(6)
C2_3 C 0.9436(3) 0.2337(8) 0.9420(7)
C3_3 C 0.9708(4) 0.3081(8) 0.9139(11)
H1_3 H 0.9609 0.3741 0.9159
C7_3 C 0.9582(3) 0.1346(8) 0.9374(8)
H4_3 H 0.9398 0.0826 0.9550
O11_2 O 0.80178(17) 0.2616(4) 0.8682(4)
O1_4 O 0.1242(2) 0.1853(4) 0.4917(5)
O2_4 O 0.11340(18) 0.3455(4) 0.5161(4)
O7_4 O 0.1364(3) 0.2479(7) 0.3024(5)
N2_4 N 0.1564(3) 0.4487(6) 0.3431(6)
N3_3 N 0.1584(3) 0.5746(7) 0.2347(7)
C1_4 C 0.1008(3) 0.2561(7) 0.5189(6)
C2_4 C 0.0564(3) 0.2337(8) 0.5580(7)
C3_4 C 0.0292(4) 0.3081(8) 0.5861(11)
H1_4 H 0.0391 0.3741 0.5841
C7_4 C 0.0418(3) 0.1346(8) 0.5626(8)
H4_4 H 0.0602 0.0826 0.5450
C17_3 C 0.1744(5) 0.5384(10) 0.3224(10)
H8_3 H 0.1963 0.5716 0.3672
C18_3 C 0.1372(5) 0.5052(11) 0.1858(11)
H9_3 H 0.1226 0.5065 0.1201
C19_4 C 0.1403(5) 0.4289(10) 0.2500(9)
C20_4 C 0.1224(6) 0.3232(11) 0.2401(12)
H10_4 H 0.0891 0.3276 0.2385
H11_4 H 0.1276 0.3009 0.1744
O10_4 O 0.22864(16) 0.1485(4) 0.4697(4)
O12_4 O 0.23318(18) 0.3130(4) 0.3268(4)
H13_3 H 0.162391 0.645472 0.210758
O6_4 O 0.73318(18) 0.1870(4) 0.8268(4)
N1_4 N 0.9078(2) 0.0844(6) 0.6510(6)
C4_4 C 0.9868(4) 0.2867(9) 0.6178(13)
H2_4 H 0.9687 0.3383 0.6376
C5_4 C 0.9716(4) 0.1895(8) 0.6199(9)
C6_4 C 0.9988(4) 0.1150(8) 0.5944(9)
H3_4 H 0.9888 0.0493 0.5979
C8_4 C 0.9249(4) 0.1705(9) 0.6480(8)
C10_4 C 0.7862(2) 0.0020(5) 0.6226(5)
C11_4 C 0.7676(2) 0.0678(5) 0.6874(5)
H5_4 H 0.7360 0.0659 0.6911
C12_4 C 0.7953(2) 0.1351(5) 0.7456(5)
C13_4 C 0.8329(3) 0.0086(6) 0.6159(5)
C14_4 C 0.8606(3) 0.0793(6) 0.6687(6)
C15_4 C 0.8424(3) 0.1399(6) 0.7373(6)
H7_4 H 0.8617 0.1835 0.7775
C16_4 C 0.7756(3) 0.1993(5) 0.8189(6)
H12_4 H 0.912(5) 0.232(7) 0.676(11)
C9_4 C 0.7548(3) 0.9323(5) 0.5623(5)
H6_4 H 0.8460 0.9644 0.5749
O2_5 O 0.61340(18) 0.1545(4) 0.0161(4)
O3_3 O 0.21219(16) 0.5479(4) 0.0412(4)
O5_3 O 0.30178(17) 0.2384(4) 0.3682(4)
N1_5 N 0.4078(2) 0.4156(6) 0.1510(6)
C1_5 C 0.6008(3) 0.2439(7) 0.0189(6)
C2_5 C 0.5564(3) 0.2663(8) 0.0580(7)
C3_5 C 0.5292(4) 0.1919(8) 0.0861(11)
H1_5 H 0.5391 0.1259 0.0841
C4_5 C 0.4868(4) 0.2133(9) 0.1178(13)
H2_5 H 0.4687 0.1617 0.1376
C5_5 C 0.4716(4) 0.3105(8) 0.1199(9)
C6_5 C 0.4988(4) 0.3850(8) 0.0944(9)
H3_5 H 0.4888 0.4507 0.0979
C7_5 C 0.5418(3) 0.3654(8) 0.0626(8)
H4_5 H 0.5602 0.4174 0.0450
C8_5 C 0.4249(4) 0.3295(9) 0.1480(8)
C9_5 C 0.2548(3) 0.5677(5) 0.0623(5)
C10_5 C 0.2862(2) 0.4980(5) 0.1226(5)
C11_5 C 0.2676(2) 0.4322(5) 0.1874(5)
H5_5 H 0.2360 0.4341 0.1911
C12_5 C 0.2953(2) 0.3649(5) 0.2456(5)
C13_5 C 0.3329(3) 0.4914(6) 0.1159(5)
H6_5 H 0.3460 0.5356 0.0749
C14_5 C 0.3606(3) 0.4207(6) 0.1687(6)
C15_5 C 0.3424(3) 0.3601(6) 0.2373(6)
H7_5 H 0.3617 0.3165 0.2775
C16_5 C 0.2756(3) 0.3007(5) 0.3189(6)
H12_5 H 0.412(5) 0.268(7) 0.176(11)
O8_3 O 0.71219(16) 0.0479(4) 0.0412(4)
O11_3 O 0.69822(17) 0.2384(4) 0.1318(4)
O1_5 O 0.6242(2) 0.3147(4) 0.9917(5)
O7_5 O 0.6364(3) 0.2521(7) 0.8024(5)
N2_5 N 0.6564(3) 0.0513(6) 0.8431(6)
C19_5 C 0.6403(5) 0.0711(10) 0.7500(9)
C20_5 C 0.6224(6) 0.1768(11) 0.7401(12)
H10_5 H 0.5891 0.1724 0.7385
H11_5 H 0.6276 0.1991 0.6744
O1_6 O 0.3758(2) 0.3147(4) 0.5083(5)
O2_6 O 0.38660(18) 0.1545(4) 0.4839(4)
O3_4 O 0.78781(16) 0.5479(4) 0.4588(4)
O7_6 O 0.3636(3) 0.2521(7) 0.6976(5)
N1_6 N 0.5922(2) 0.4156(6) 0.3490(6)
N2_6 N 0.3436(3) 0.0513(6) 0.6569(6)
C1_6 C 0.3992(3) 0.2439(7) 0.4811(6)
C2_6 C 0.4436(3) 0.2663(8) 0.4420(7)
C3_6 C 0.4708(4) 0.1919(8) 0.4139(11)
H1_6 H 0.4609 0.1259 0.4159
C4_6 C 0.5132(4) 0.2133(9) 0.3822(13)
H2_6 H 0.5313 0.1617 0.3624
C5_6 C 0.5284(4) 0.3105(8) 0.3801(9)
C6_6 C 0.5012(4) 0.3850(8) 0.4056(9)
H3_6 H 0.5112 0.4507 0.4021
C7_6 C 0.4582(3) 0.3654(8) 0.4374(8)
H4_6 H 0.4398 0.4174 0.4550
C8_6 C 0.5751(4) 0.3295(9) 0.3520(8)
C9_6 C 0.7452(3) 0.5677(5) 0.4377(5)
C10_6 C 0.7138(2) 0.4980(5) 0.3774(5)
C11_6 C 0.7324(2) 0.4322(5) 0.3126(5)
H5_6 H 0.7640 0.4341 0.3089
C12_6 C 0.7047(2) 0.3649(5) 0.2544(5)
C13_6 C 0.6671(3) 0.4914(6) 0.3841(5)
H6_6 H 0.6540 0.5356 0.4251
C14_6 C 0.6394(3) 0.4207(6) 0.3313(6)
C15_6 C 0.6576(3) 0.3601(6) 0.2627(6)
H7_6 H 0.6383 0.3165 0.2225
C16_6 C 0.7244(3) 0.3007(5) 0.1811(6)
C19_6 C 0.3597(5) 0.0711(10) 0.7500(9)
C20_6 C 0.3776(6) 0.1768(11) 0.7599(12)
H10_6 H 0.4109 0.1724 0.7615
H11_6 H 0.3724 0.1991 0.8256
H12_6 H 0.588(5) 0.268(7) 0.324(11)
O8_4 O 0.28781(16) 0.0479(4) 0.4588(4)
O2_7 O 0.11340(18) 0.6545(4) 0.0161(4)
C1_7 C 0.1008(3) 0.7439(7) 0.0189(6)
C2_7 C 0.0564(3) 0.7663(8) 0.0580(7)
C3_7 C 0.0292(4) 0.6919(8) 0.0861(11)
H1_7 H 0.0391 0.6259 0.0841
C7_7 C 0.0418(3) 0.8654(8) 0.0626(8)
H4_7 H 0.0602 0.9174 0.0450
O11_4 O 0.19822(17) 0.7384(4) 0.1318(4)
O1_7 O 0.1242(2) 0.8147(4) 0.9917(5)
O7_7 O 0.1364(3) 0.7521(7) 0.8024(5)
N2_7 N 0.1564(3) 0.5513(6) 0.8431(6)
N3_4 N 0.1584(3) 0.4254(7) 0.7347(7)
C17_4 C 0.1744(5) 0.4616(10) 0.8224(10)
H8_4 H 0.1963 0.4284 0.8672
C18_4 C 0.1372(5) 0.4948(11) 0.6858(11)
H9_4 H 0.1226 0.4935 0.6201
C19_7 C 0.1403(5) 0.5711(10) 0.7500(9)
C20_7 C 0.1224(6) 0.6768(11) 0.7401(12)
H10_7 H 0.0891 0.6724 0.7385
H11_7 H 0.1276 0.6991 0.6744
H13_4 H 0.162391 0.354528 0.710758
C9_7 C 0.7548(3) 0.0677(5) 0.0623(5)
H6_7 H 0.8460 0.0356 0.0749
O5_4 O 0.80178(17) 0.7384(4) 0.3682(4)
N1_7 N 0.9078(2) 0.9156(6) 0.1510(6)
C4_7 C 0.9868(4) 0.7133(9) 0.1178(13)
H2_7 H 0.9687 0.6617 0.1376
C5_7 C 0.9716(4) 0.8105(8) 0.1199(9)
C6_7 C 0.9988(4) 0.8850(8) 0.0944(9)
H3_7 H 0.9888 0.9507 0.0979
C8_7 C 0.9249(4) 0.8295(9) 0.1480(8)
C10_7 C 0.7862(2) 0.9980(5) 0.1226(5)
C11_7 C 0.7676(2) 0.9322(5) 0.1874(5)
H5_7 H 0.7360 0.9341 0.1911
C12_7 C 0.7953(2) 0.8649(5) 0.2456(5)
C13_7 C 0.8329(3) 0.9914(6) 0.1159(5)
C14_7 C 0.8606(3) 0.9207(6) 0.1687(6)
C15_7 C 0.8424(3) 0.8601(6) 0.2373(6)
H7_7 H 0.8617 0.8165 0.2775
C16_7 C 0.7756(3) 0.8007(5) 0.3189(6)
H12_7 H 0.912(5) 0.768(7) 0.176(11)
C9_8 C 0.2452(3) 0.0677(5) 0.4377(5)
H6_8 H 0.1540 0.0356 0.4251
N1_8 N 0.0922(2) 0.9156(6) 0.3490(6)
C4_8 C 0.0132(4) 0.7133(9) 0.3822(13)
H2_8 H 0.0313 0.6617 0.3624
C5_8 C 0.0284(4) 0.8105(8) 0.3801(9)
C6_8 C 0.0012(4) 0.8850(8) 0.4056(9)
H3_8 H 0.0112 0.9507 0.4021
C8_8 C 0.0751(4) 0.8295(9) 0.3520(8)
C10_8 C 0.2138(2) 0.9980(5) 0.3774(5)
C11_8 C 0.2324(2) 0.9322(5) 0.3126(5)
H5_8 H 0.2640 0.9341 0.3089
C12_8 C 0.2047(2) 0.8649(5) 0.2544(5)
C13_8 C 0.1671(3) 0.9914(6) 0.3841(5)
C14_8 C 0.1394(3) 0.9207(6) 0.3313(6)
C15_8 C 0.1576(3) 0.8601(6) 0.2627(6)
H7_8 H 0.1383 0.8165 0.2225
C16_8 C 0.2244(3) 0.8007(5) 0.1811(6)
H12_8 H 0.088(5) 0.768(7) 0.324(11)
O1_8 O 0.8758(2) 0.8147(4) 0.5083(5)
O2_8 O 0.88660(18) 0.6545(4) 0.4839(4)
O7_8 O 0.8636(3) 0.7521(7) 0.6976(5)
N2_8 N 0.8436(3) 0.5513(6) 0.6569(6)
N3_5 N 0.8416(3) 0.4254(7) 0.7653(7)
C1_8 C 0.8992(3) 0.7439(7) 0.4811(6)
C2_8 C 0.9436(3) 0.7663(8) 0.4420(7)
C3_8 C 0.9708(4) 0.6919(8) 0.4139(11)
H1_8 H 0.9609 0.6259 0.4159
C7_8 C 0.9582(3) 0.8654(8) 0.4374(8)
H4_8 H 0.9398 0.9174 0.4550
C17_5 C 0.8256(5) 0.4616(10) 0.6776(10)
H8_5 H 0.8037 0.4284 0.6328
C18_5 C 0.8628(5) 0.4948(11) 0.8142(11)
H9_5 H 0.8774 0.4935 0.8799
C19_8 C 0.8597(5) 0.5711(10) 0.7500(9)
C20_8 C 0.8776(6) 0.6768(11) 0.7599(12)
H10_8 H 0.9109 0.6724 0.7615
H11_8 H 0.8724 0.6991 0.8256
H13_5 H 0.837609 0.354528 0.789242
N3_6 N 0.6584(3) 0.0746(7) 0.2347(7)
C17_6 C 0.6744(5) 0.0384(10) 0.3224(10)
H8_6 H 0.6963 0.0716 0.3672
C18_6 C 0.6372(5) 0.0052(11) 0.1858(11)
H9_6 H 0.6226 0.0065 0.1201
H13_6 H 0.662391 0.145472 0.210758
N3_7 N 0.6584(3) 0.9254(7) 0.7347(7)
C17_7 C 0.6744(5) 0.9616(10) 0.8224(10)
H8_7 H 0.6963 0.9284 0.8672
C18_7 C 0.6372(5) 0.9948(11) 0.6858(11)
H9_7 H 0.6226 0.9935 0.6201
H13_7 H 0.662391 0.854528 0.710758
N3_8 N 0.3416(3) 0.9254(7) 0.7653(7)
C17_8 C 0.3256(5) 0.9616(10) 0.6776(10)
H8_8 H 0.3037 0.9284 0.6328
C18_8 C 0.3628(5) 0.9948(11) 0.8142(11)
H9_8 H 0.3774 0.9935 0.8799
H13_8 H 0.337609 0.854528 0.789242
loop_
_geom_bond_atom_site_label_1
_geom_bond_atom_site_label_2
_geom_bond_site_symmetry_1
_geom_bond_site_symmetry_2
N3 C17 1_555 1_555
C17 H8 1_555 1_555
C18 N3 1_555 1_555
H9 C18 1_555 1_555
N3 H13 1_555 1_555
O7 C20 1_555 1_555
C19 N2 1_555 1_555
C20 C19 1_555 1_555
H10 C20 1_555 1_555
H11 C20 1_555 1_555
Eu1 O1 1_555 1_555
O10 Eu1 1_555 1_555
O12 Eu1 1_555 1_555
O7 Eu1 1_555 1_555
N2 Eu1 1_555 1_555
O2 C1 1_555 1_555
O3 C9 1_555 1_555
O4 C9 1_555 1_555
O5 C16 1_555 1_555
O6 C16 1_555 1_555
N1 C8 1_555 1_555
C1 C2 1_555 1_555
C2 C3 1_555 1_555
C3 H1 1_555 1_555
C4 C3 1_555 1_555
H2 C4 1_555 1_555
C5 C4 1_555 1_555
C6 C5 1_555 1_555
H3 C6 1_555 1_555
C7 C2 1_555 1_555
H4 C7 1_555 1_555
C8 C5 1_555 1_555
C9 C10 1_555 1_555
C10 C11 1_555 1_555
C11 H5 1_555 1_555
C12 C11 1_555 1_555
C13 C10 1_555 1_555
H6 C13 1_555 1_555
C14 N1 1_555 1_555
C15 C12 1_555 1_555
H7 C15 1_555 1_555
C16 C12 1_555 1_555
H12 C8 1_555 1_555
Eu2 O5 1_555 1_555
Eu4 O4 1_555 1_555
Eu5 O6 1_555 1_555
C6 C7 1_555 1_555
C13 C14 1_555 1_555
C14 C15 1_555 1_555
O1_2 C1_2 1_555 1_555
O2_2 C1_2 1_555 1_555
O3_2 C9_2 1_555 1_555
O4_2 C9_2 1_555 1_555
O11 C16_2 1_555 1_555
O6_2 C16_2 1_555 1_555
O7_2 C20_2 1_555 1_555
N1_2 C8_2 1_555 1_555
C1_2 C2_2 1_555 1_555
C2_2 C3_2 1_555 1_555
C3_2 H1_2 1_555 1_555
C4_2 C3_2 1_555 1_555
H2_2 C4_2 1_555 1_555
C5_2 C4_2 1_555 1_555
C6_2 C5_2 1_555 1_555
H3_2 C6_2 1_555 1_555
C7_2 C2_2 1_555 1_555
H4_2 C7_2 1_555 1_555
C8_2 C5_2 1_555 1_555
C9_2 C10_2 1_555 1_555
C10_2 C11_2 1_555 1_555
C11_2 H5_2 1_555 1_555
C12_2 C11_2 1_555 1_555
C13_2 C10_2 1_555 1_555
H6_2 C13_2 1_555 1_555
C14_2 N1_2 1_555 1_555
C15_2 C12_2 1_555 1_555
H7_2 C15_2 1_555 1_555
C16_2 C12_2 1_555 1_555
C19_2 N2_2 1_555 1_555
C20_2 C19_2 1_555 1_555
H10_2 C20_2 1_555 1_555
H11_2 C20_2 1_555 1_555
H12_2 C8_2 1_555 1_555
Eu2 O1_2 1_555 1_555
O8_2 Eu2 1_555 1_555
O9_2 Eu2 1_555 1_555
O10_2 Eu2 1_555 1_555
O12_2 Eu2 1_555 1_555
Eu3_2 O3_2 1_555 1_555
Eu4_2 O4_2 1_555 1_555
Eu5_2 O6_2 1_555 1_555
O2_2 Eu2 1_555 1_555
O4_2 Eu3_2 1_555 1_555
O7_2 Eu2 1_555 1_555
N2_2 Eu2 1_555 1_555
C6_2 C7_2 1_555 1_555
C13_2 C14_2 1_555 1_555
C14_2 C15_2 1_555 1_555
O5_2 C16_3 1_555 1_555
O6_3 C16_3 1_555 1_555
N1_3 C8_3 1_555 1_555
H2_3 C4_3 1_555 1_555
C5_3 C4_3 1_555 1_555
C6_3 C5_3 1_555 1_555
H3_3 C6_3 1_555 1_555
C8_3 C5_3 1_555 1_555
C10_3 C11_3 1_555 1_555
C11_3 H5_3 1_555 1_555
C12_3 C11_3 1_555 1_555
C13_3 C10_3 1_555 1_555
C14_3 N1_3 1_555 1_555
C15_3 C12_3 1_555 1_555
H7_3 C15_3 1_555 1_555
C16_3 C12_3 1_555 1_555
H12_3 C8_3 1_555 1_555
Eu3_2 O5_2 1_555 1_555
Eu4_2 O6_3 1_555 1_555
C13_3 C14_3 1_555 1_555
C14_3 C15_3 1_555 1_555
O8 C9_3 1_555 1_555
O9 C9_3 1_555 1_555
Eu5_2 O9 1_555 1_555
O7_3 C20_3 1_555 1_555
N2_3 C17_2 1_555 1_555
N3_2 C17_2 1_555 1_555
C17_2 H8_2 1_555 1_555
C18_2 N3_2 1_555 1_555
H9_2 C18_2 1_555 1_555
C19_3 N2_3 1_555 1_555
C20_3 C19_3 1_555 1_555
H10_3 C20_3 1_555 1_555
H11_3 C20_3 1_555 1_555
Eu3 O1_3 1_555 1_555
O10_3 Eu3 1_555 1_555
O12_3 Eu3 1_555 1_555
O7_3 Eu3 1_555 1_555
N2_3 Eu3 1_555 1_555
C18_2 C19_3 1_555 1_555
N3_2 H13_2 1_555 1_555
O2_3 C1_3 1_555 1_555
C1_3 C2_3 1_555 1_555
C2_3 C3_3 1_555 1_555
C3_3 H1_3 1_555 1_555
C7_3 C2_3 1_555 1_555
H4_3 C7_3 1_555 1_555
O1_4 C1_4 1_555 1_555
O2_4 C1_4 1_555 1_555
O7_4 C20_4 1_555 1_555
N2_4 C17_3 1_555 1_555
N3_3 C17_3 1_555 1_555
C1_4 C2_4 1_555 1_555
C2_4 C3_4 1_555 1_555
C3_4 H1_4 1_555 1_555
C7_4 C2_4 1_555 1_555
H4_4 C7_4 1_555 1_555
C17_3 H8_3 1_555 1_555
C18_3 N3_3 1_555 1_555
H9_3 C18_3 1_555 1_555
C19_4 N2_4 1_555 1_555
C20_4 C19_4 1_555 1_555
H10_4 C20_4 1_555 1_555
H11_4 C20_4 1_555 1_555
Eu3_2 O1_4 1_555 1_555
O10_4 Eu3_2 1_555 1_555
O12_4 Eu3_2 1_555 1_555
O2_4 Eu3_2 1_555 1_555
O7_4 Eu3_2 1_555 1_555
N2_4 Eu3_2 1_555 1_555
C18_3 C19_4 1_555 1_555
N3_3 H13_3 1_555 1_555
O11_2 C16_4 1_555 1_555
O6_4 C16_4 1_555 1_555
N1_4 C8_4 1_555 1_555
H2_4 C4_4 1_555 1_555
C5_4 C4_4 1_555 1_555
C6_4 C5_4 1_555 1_555
H3_4 C6_4 1_555 1_555
C8_4 C5_4 1_555 1_555
C10_4 C11_4 1_555 1_555
C11_4 H5_4 1_555 1_555
C12_4 C11_4 1_555 1_555
C13_4 C10_4 1_555 1_555
C14_4 N1_4 1_555 1_555
C15_4 C12_4 1_555 1_555
H7_4 C15_4 1_555 1_555
C16_4 C12_4 1_555 1_555
H12_4 C8_4 1_555 1_555
Eu4 O6_4 1_555 1_555
C13_4 C14_4 1_555 1_555
C14_4 C15_4 1_555 1_555
O8_2 C9_4 1_555 1_555
O9_2 C9_4 1_555 1_555
Eu5 O9_2 1_555 1_555
O2_5 C1_5 1_555 1_555
O3_3 C9_5 1_555 1_555
O10 C9_5 1_555 1_555
O5_3 C16_5 1_555 1_555
O12_4 C16_5 1_555 1_555
N1_5 C8_5 1_555 1_555
C1_5 C2_5 1_555 1_555
C2_5 C3_5 1_555 1_555
C3_5 H1_5 1_555 1_555
C4_5 C3_5 1_555 1_555
H2_5 C4_5 1_555 1_555
C5_5 C4_5 1_555 1_555
C6_5 C5_5 1_555 1_555
H3_5 C6_5 1_555 1_555
C7_5 C2_5 1_555 1_555
H4_5 C7_5 1_555 1_555
C8_5 C5_5 1_555 1_555
C9_5 C10_5 1_555 1_555
C10_5 C11_5 1_555 1_555
C11_5 H5_5 1_555 1_555
C12_5 C11_5 1_555 1_555
C13_5 C10_5 1_555 1_555
H6_5 C13_5 1_555 1_555
C14_5 N1_5 1_555 1_555
C15_5 C12_5 1_555 1_555
H7_5 C15_5 1_555 1_555
C16_5 C12_5 1_555 1_555
H12_5 C8_5 1_555 1_555
Eu4_2 O5_3 1_555 1_555
C6_5 C7_5 1_555 1_555
C13_5 C14_5 1_555 1_555
C14_5 C15_5 1_555 1_555
O7_5 C20_5 1_555 1_555
C19_5 N2_5 1_555 1_555
C20_5 C19_5 1_555 1_555
H10_5 C20_5 1_555 1_555
H11_5 C20_5 1_555 1_555
Eu4 O1_5 1_555 1_555
O7_5 Eu4 1_555 1_555
N2_5 Eu4 1_555 1_555
O1_6 C1_6 1_555 1_555
O2_6 C1_6 1_555 1_555
O3_4 C9_6 1_555 1_555
O10_2 C9_6 1_555 1_555
O11_3 C16_6 1_555 1_555
O12_3 C16_6 1_555 1_555
O7_6 C20_6 1_555 1_555
N1_6 C8_6 1_555 1_555
C1_6 C2_6 1_555 1_555
C2_6 C3_6 1_555 1_555
C3_6 H1_6 1_555 1_555
C4_6 C3_6 1_555 1_555
H2_6 C4_6 1_555 1_555
C5_6 C4_6 1_555 1_555
C6_6 C5_6 1_555 1_555
H3_6 C6_6 1_555 1_555
C7_6 C2_6 1_555 1_555
H4_6 C7_6 1_555 1_555
C8_6 C5_6 1_555 1_555
C9_6 C10_6 1_555 1_555
C10_6 C11_6 1_555 1_555
C11_6 H5_6 1_555 1_555
C12_6 C11_6 1_555 1_555
C13_6 C10_6 1_555 1_555
H6_6 C13_6 1_555 1_555
C14_6 N1_6 1_555 1_555
C15_6 C12_6 1_555 1_555
H7_6 C15_6 1_555 1_555
C16_6 C12_6 1_555 1_555
C19_6 N2_6 1_555 1_555
C20_6 C19_6 1_555 1_555
H10_6 C20_6 1_555 1_555
H11_6 C20_6 1_555 1_555
H12_6 C8_6 1_555 1_555
Eu4_2 O1_6 1_555 1_555
O8_4 Eu4_2 1_555 1_555
O10_4 Eu4_2 1_555 1_555
Eu5 O3_4 1_555 1_555
O2_6 Eu4_2 1_555 1_555
O10_2 Eu5 1_555 1_555
O7_6 Eu4_2 1_555 1_555
N2_6 Eu4_2 1_555 1_555
C6_6 C7_6 1_555 1_555
C13_6 C14_6 1_555 1_555
C14_6 C15_6 1_555 1_555
O2_7 C1_7 1_555 1_555
C1_7 C2_7 1_555 1_555
C2_7 C3_7 1_555 1_555
C3_7 H1_7 1_555 1_555
C7_7 C2_7 1_555 1_555
H4_7 C7_7 1_555 1_555
O7_7 C20_7 1_555 1_555
N2_7 C17_4 1_555 1_555
N3_4 C17_4 1_555 1_555
C17_4 H8_4 1_555 1_555
C18_4 N3_4 1_555 1_555
H9_4 C18_4 1_555 1_555
C19_7 N2_7 1_555 1_555
C20_7 C19_7 1_555 1_555
H10_7 C20_7 1_555 1_555
H11_7 C20_7 1_555 1_555
Eu5_2 O1_7 1_555 1_555
O7_7 Eu5_2 1_555 1_555
N2_7 Eu5_2 1_555 1_555
C18_4 C19_7 1_555 1_555
N3_4 H13_4 1_555 1_555
O8_3 C9_7 1_555 1_555
O10_3 C9_7 1_555 1_555
O5_4 C16_7 1_555 1_555
O12_2 C16_7 1_555 1_555
N1_7 C8_7 1_555 1_555
H2_7 C4_7 1_555 1_555
C5_7 C4_7 1_555 1_555
C6_7 C5_7 1_555 1_555
H3_7 C6_7 1_555 1_555
C8_7 C5_7 1_555 1_555
C10_7 C11_7 1_555 1_555
C11_7 H5_7 1_555 1_555
C12_7 C11_7 1_555 1_555
C13_7 C10_7 1_555 1_555
C14_7 N1_7 1_555 1_555
C15_7 C12_7 1_555 1_555
H7_7 C15_7 1_555 1_555
C16_7 C12_7 1_555 1_555
H12_7 C8_7 1_555 1_555
Eu5 O5_4 1_555 1_555
C13_7 C14_7 1_555 1_555
C14_7 C15_7 1_555 1_555
O8_4 C9_8 1_555 1_555
O10_4 C9_8 1_555 1_555
O11_4 C16_8 1_555 1_555
O12 C16_8 1_555 1_555
N1_8 C8_8 1_555 1_555
H2_8 C4_8 1_555 1_555
C5_8 C4_8 1_555 1_555
C6_8 C5_8 1_555 1_555
H3_8 C6_8 1_555 1_555
C8_8 C5_8 1_555 1_555
C10_8 C11_8 1_555 1_555
C11_8 H5_8 1_555 1_555
C12_8 C11_8 1_555 1_555
C13_8 C10_8 1_555 1_555
C14_8 N1_8 1_555 1_555
C15_8 C12_8 1_555 1_555
H7_8 C15_8 1_555 1_555
C16_8 C12_8 1_555 1_555
H12_8 C8_8 1_555 1_555
C13_8 C14_8 1_555 1_555
C14_8 C15_8 1_555 1_555
O1_8 C1_8 1_555 1_555
O2_8 C1_8 1_555 1_555
O7_8 C20_8 1_555 1_555
N2_8 C17_5 1_555 1_555
N3_5 C17_5 1_555 1_555
C1_8 C2_8 1_555 1_555
C2_8 C3_8 1_555 1_555
C3_8 H1_8 1_555 1_555
C7_8 C2_8 1_555 1_555
H4_8 C7_8 1_555 1_555
C17_5 H8_5 1_555 1_555
C18_5 N3_5 1_555 1_555
H9_5 C18_5 1_555 1_555
C19_8 N2_8 1_555 1_555
C20_8 C19_8 1_555 1_555
H10_8 C20_8 1_555 1_555
H11_8 C20_8 1_555 1_555
Eu5 O1_8 1_555 1_555
O2_8 Eu5 1_555 1_555
O7_8 Eu5 1_555 1_555
N2_8 Eu5 1_555 1_555
C18_5 C19_8 1_555 1_555
N3_5 H13_5 1_555 1_555
N3_6 C17_6 1_555 1_555
C17_6 H8_6 1_555 1_555
C18_6 N3_6 1_555 1_555
H9_6 C18_6 1_555 1_555
N3_6 H13_6 1_555 1_555
N3_7 C17_7 1_555 1_555
C17_7 H8_7 1_555 1_555
C18_7 N3_7 1_555 1_555
H9_7 C18_7 1_555 1_555
N3_7 H13_7 1_555 1_555
N3_8 C17_8 1_555 1_555
C17_8 H8_8 1_555 1_555
C18_8 N3_8 1_555 1_555
H9_8 C18_8 1_555 1_555
N3_8 H13_8 1_555 1_555

#END
