
###############################################################################
#
# This file contains modified crystal structure data generated from the
# MOF subset of the Cambridge Structural Database (CSD) v543 
# hosted by the Cambridge Crystallographic Data Centre (CCDC).
#
# This work is licensed under the Creative Commons
# Attribution-NonCommercial-ShareAlike 4.0 International License.
# To view a copy of this license, visit
# http://creativecommons.org/licenses/by-nc-sa/4.0/
# or send a letter to
# Creative Commons, PO Box 1866, Mountain View, CA 94042, USA.
#
# CIF created using the CSD Python API on 29 September 2022
# The structure has been converted into the P1 space group
# The structure has a 3D framework
# The original CSD entry CUWYUQ is in the monoclinic crystal system
# The framework has been calculated to contain at least 10.0% void space
# The void calculation uses a probe of radius 1.32A, grid spacing 0.4
# H atom positions have been added when not included in the experimental data
#
###############################################################################

data_CUWYUQ
_chemical_formula_moiety         '(C152 H112 Eu8 N24 O56)n'
_symmetry_cell_setting           triclinic
_symmetry_space_group_name_H-M   'P 1'
_symmetry_Int_Tables_number      1
_space_group_name_Hall           'P 1'
loop_
_symmetry_equiv_pos_site_id
_symmetry_equiv_pos_as_xyz
1 x,y,z
_cell_length_a                   29.7931(10)
_cell_length_b                   12.7929(10)
_cell_length_c                   13.7893(7)
_cell_angle_alpha                90
_cell_angle_beta                 95.185(4)
_cell_angle_gamma                90
_cell_volume                     5234.15
loop_
_atom_site_label
_atom_site_type_symbol
_atom_site_fract_x
_atom_site_fract_y
_atom_site_fract_z
C1 C 0.6032(3) 0.2382(9) 0.0371(7)
C2 C 0.5568(3) 0.2582(10) 0.0683(7)
C3 C 0.5267(4) 0.1748(11) 0.0755(10)
H1 H 0.5354 0.1067 0.0631
C4 C 0.4835(4) 0.1957(10) 0.1016(10)
H2 H 0.4637 0.1407 0.1086
C5 C 0.4699(4) 0.2962(9) 0.1170(9)
C6 C 0.4995(3) 0.3773(10) 0.1123(9)
H3 H 0.4906 0.4449 0.1262
C7 C 0.5433(4) 0.3586(11) 0.0864(9)
H4 H 0.5632 0.4140 0.0815
C8 C 0.4221(3) 0.3113(9) 0.1373(9)
H5 H 0.405(4) 0.247(6) 0.154(9)
C9 C 0.2556(3) 0.5573(7) 0.0522(6)
C10 C 0.2853(3) 0.4864(7) 0.1120(6)
C11 C 0.3317(3) 0.4810(8) 0.1028(7)
H6 H 0.3446 0.5251 0.0597
C12 C 0.3584(3) 0.4097(8) 0.1581(7)
C13 C 0.3398(3) 0.3481(8) 0.2264(7)
H7 H 0.3580 0.3018 0.2642
C14 C 0.2937(3) 0.3546(7) 0.2392(6)
C15 C 0.2663(3) 0.4215(8) 0.1789(7)
H8 H 0.2354 0.4227 0.1834
C16 C 0.2737(3) 0.2918(7) 0.3164(7)
N1 N 0.4048(2) 0.4032(7) 0.1430(6)
O1 O 0.61637(19) 0.1465(6) 0.0298(5)
O2 O 0.6271(2) 0.3154(6) 0.0173(5)
O3 O 0.2149(2) 0.5360(5) 0.0348(4)
O4 O 0.27173(19) 0.6426(5) 0.0223(4)
O5 O 0.29806(19) 0.2265(5) 0.3639(4)
O6 O 0.2329(2) 0.3120(5) 0.3293(4)
O8 O 0.11637(19) 0.6465(6) 0.0298(5)
O9 O 0.1271(2) 0.8154(6) 0.0173(5)
O11 O 0.20194(19) 0.7265(5) 0.1361(4)
Eu3 Eu 0.313419(13) 0.19945(4) 0.53791(3)
Eu4 Eu 0.186581(13) 0.30055(4) 0.46209(3)
Eu5 Eu 0.313419(13) 0.80055(4) 0.03791(3)
C17 C 0.1124(4) 0.5299(10) 0.8193(9)
H9 H 0.0869 0.5634 0.8378
C18 C 0.1128(4) 0.4550(11) 0.7474(10)
H10 H 0.0881 0.4320 0.7070
C19 C 0.1801(3) 0.4764(8) 0.8138(8)
H11 H 0.2110 0.4676 0.8283
N2 N 0.1547(3) 0.5469(7) 0.8585(6)
N3 N 0.1552(3) 0.4218(8) 0.7468(7)
O7 O 0.1414(2) 0.7755(6) 0.8256(5)
Eu1 Eu 0.186581(13) 0.69945(4) 0.96209(3)
O10 O 0.22827(19) 0.8574(5) 0.9777(4)
O12 O 0.2329(2) 0.6880(5) 0.8293(4)
Eu2 Eu 0.686581(13) 0.19945(4) 0.96209(3)
H12 H 0.10978 0.750987 0.825709
H13 H 0.142281 0.852886 0.831046
H14 H 0.166394 0.365307 0.703258
C1_2 C 0.3968(3) 0.2382(9) 0.4629(7)
C2_2 C 0.4432(3) 0.2582(10) 0.4317(7)
C3_2 C 0.4733(4) 0.1748(11) 0.4245(10)
H1_2 H 0.4646 0.1067 0.4369
C4_2 C 0.5165(4) 0.1957(10) 0.3984(10)
H2_2 H 0.5363 0.1407 0.3914
C5_2 C 0.5301(4) 0.2962(9) 0.3830(9)
C6_2 C 0.5005(3) 0.3773(10) 0.3877(9)
H3_2 H 0.5094 0.4449 0.3738
C7_2 C 0.4567(4) 0.3586(11) 0.4136(9)
H4_2 H 0.4368 0.4140 0.4185
C8_2 C 0.5779(3) 0.3113(9) 0.3627(9)
H5_2 H 0.595(4) 0.247(6) 0.346(9)
C9_2 C 0.7444(3) 0.5573(7) 0.4478(6)
C10_2 C 0.7147(3) 0.4864(7) 0.3880(6)
C11_2 C 0.6683(3) 0.4810(8) 0.3972(7)
H6_2 H 0.6554 0.5251 0.4403
C12_2 C 0.6416(3) 0.4097(8) 0.3419(7)
C13_2 C 0.6602(3) 0.3481(8) 0.2736(7)
H7_2 H 0.6420 0.3018 0.2358
C14_2 C 0.7063(3) 0.3546(7) 0.2608(6)
C15_2 C 0.7337(3) 0.4215(8) 0.3211(7)
H8_2 H 0.7646 0.4227 0.3166
C16_2 C 0.7263(3) 0.2918(7) 0.1836(7)
C17_2 C 0.8876(4) 0.5299(10) 0.6807(9)
H9_2 H 0.9131 0.5634 0.6622
C18_2 C 0.8872(4) 0.4550(11) 0.7526(10)
H10_2 H 0.9119 0.4320 0.7930
C19_2 C 0.8199(3) 0.4764(8) 0.6862(8)
H11_2 H 0.7890 0.4676 0.6717
N1_2 N 0.5952(2) 0.4032(7) 0.3570(6)
N2_2 N 0.8453(3) 0.5469(7) 0.6415(6)
N3_2 N 0.8448(3) 0.4218(8) 0.7532(7)
O1_2 O 0.38363(19) 0.1465(6) 0.4702(5)
O2_2 O 0.3729(2) 0.3154(6) 0.4827(5)
O3_2 O 0.7851(2) 0.5360(5) 0.4652(4)
O4_2 O 0.72827(19) 0.6426(5) 0.4777(4)
O5_2 O 0.70194(19) 0.2265(5) 0.1361(4)
O6_2 O 0.7671(2) 0.3120(5) 0.1707(4)
O7_2 O 0.8586(2) 0.7755(6) 0.6744(5)
Eu1_2 Eu 0.813419(13) 0.69945(4) 0.53791(3)
O8_2 O 0.88363(19) 0.6465(6) 0.4702(5)
O9_2 O 0.8729(2) 0.8154(6) 0.4827(5)
O10_2 O 0.77173(19) 0.8574(5) 0.5223(4)
O11_2 O 0.79806(19) 0.7265(5) 0.3639(4)
O12_2 O 0.7671(2) 0.6880(5) 0.6707(4)
Eu4_2 Eu 0.813419(13) 0.30055(4) 0.03791(3)
Eu5_2 Eu 0.686581(13) 0.80055(4) 0.46209(3)
H12_2 H 0.89022 0.750987 0.674291
H13_2 H 0.857719 0.852886 0.668954
H14_2 H 0.833606 0.365307 0.796742
C1_3 C 0.1032(3) 0.7382(9) 0.0371(7)
C2_3 C 0.0568(3) 0.7582(10) 0.0683(7)
C3_3 C 0.0267(4) 0.6748(11) 0.0755(10)
H1_3 H 0.0354 0.6067 0.0631
C7_3 C 0.0433(4) 0.8586(11) 0.0864(9)
H4_3 H 0.0632 0.9140 0.0815
C9_3 C 0.7556(3) 0.0573(7) 0.0522(6)
H6_3 H 0.8446 0.0251 0.0597
O3_3 O 0.7149(2) 0.0360(5) 0.0348(4)
O4_3 O 0.77173(19) 0.1426(5) 0.0223(4)
C17_3 C 0.6124(4) 0.0299(10) 0.8193(9)
H9_3 H 0.5869 0.0634 0.8378
N2_3 N 0.6547(3) 0.0469(7) 0.8585(6)
O7_3 O 0.6414(2) 0.2755(6) 0.8256(5)
O10_3 O 0.72827(19) 0.3574(5) 0.9777(4)
O12_3 O 0.7329(2) 0.1880(5) 0.8293(4)
H12_3 H 0.60978 0.250987 0.825709
H13_3 H 0.642281 0.352886 0.831046
C4_3 C 0.9835(4) 0.6957(10) 0.1016(10)
H2_3 H 0.9637 0.6407 0.1086
C5_3 C 0.9699(4) 0.7962(9) 0.1170(9)
C6_3 C 0.9995(3) 0.8773(10) 0.1123(9)
H3_3 H 0.9906 0.9449 0.1262
C8_3 C 0.9221(3) 0.8113(9) 0.1373(9)
H5_3 H 0.905(4) 0.747(6) 0.154(9)
C10_3 C 0.7853(3) 0.9864(7) 0.1120(6)
C11_3 C 0.8317(3) 0.9810(8) 0.1028(7)
C12_3 C 0.8584(3) 0.9097(8) 0.1581(7)
C13_3 C 0.8398(3) 0.8481(8) 0.2264(7)
H7_3 H 0.8580 0.8018 0.2642
C14_3 C 0.7937(3) 0.8546(7) 0.2392(6)
C15_3 C 0.7663(3) 0.9215(8) 0.1789(7)
H8_3 H 0.7354 0.9227 0.1834
C16_3 C 0.7737(3) 0.7918(7) 0.3164(7)
N1_3 N 0.9048(2) 0.9032(7) 0.1430(6)
O6_3 O 0.7329(2) 0.8120(5) 0.3293(4)
C9_4 C 0.2444(3) 0.0573(7) 0.4478(6)
H6_4 H 0.1554 0.0251 0.4403
C17_4 C 0.3876(4) 0.0299(10) 0.6807(9)
H9_4 H 0.4131 0.0634 0.6622
N2_4 N 0.3453(3) 0.0469(7) 0.6415(6)
O3_4 O 0.2851(2) 0.0360(5) 0.4652(4)
O4_4 O 0.22827(19) 0.1426(5) 0.4777(4)
O7_4 O 0.3586(2) 0.2755(6) 0.6744(5)
O10_4 O 0.27173(19) 0.3574(5) 0.5223(4)
O12_4 O 0.2671(2) 0.1880(5) 0.6707(4)
H12_4 H 0.39022 0.250987 0.674291
H13_4 H 0.357719 0.352886 0.668954
C4_4 C 0.0165(4) 0.6957(10) 0.3984(10)
H2_4 H 0.0363 0.6407 0.3914
C5_4 C 0.0301(4) 0.7962(9) 0.3830(9)
C6_4 C 0.0005(3) 0.8773(10) 0.3877(9)
H3_4 H 0.0094 0.9449 0.3738
C8_4 C 0.0779(3) 0.8113(9) 0.3627(9)
H5_4 H 0.095(4) 0.747(6) 0.346(9)
C10_4 C 0.2147(3) 0.9864(7) 0.3880(6)
C11_4 C 0.1683(3) 0.9810(8) 0.3972(7)
C12_4 C 0.1416(3) 0.9097(8) 0.3419(7)
C13_4 C 0.1602(3) 0.8481(8) 0.2736(7)
H7_4 H 0.1420 0.8018 0.2358
C14_4 C 0.2063(3) 0.8546(7) 0.2608(6)
C15_4 C 0.2337(3) 0.9215(8) 0.3211(7)
H8_4 H 0.2646 0.9227 0.3166
C16_4 C 0.2263(3) 0.7918(7) 0.1836(7)
C18_3 C 0.3872(4) 0.9550(11) 0.7526(10)
H10_3 H 0.4119 0.9320 0.7930
C19_3 C 0.3199(3) 0.9764(8) 0.6862(8)
H11_3 H 0.2890 0.9676 0.6717
N1_4 N 0.0952(2) 0.9032(7) 0.3570(6)
N3_3 N 0.3448(3) 0.9218(8) 0.7532(7)
O6_4 O 0.2671(2) 0.8120(5) 0.1707(4)
H14_3 H 0.333606 0.865307 0.796742
C1_4 C 0.8968(3) 0.7382(9) 0.4629(7)
C2_4 C 0.9432(3) 0.7582(10) 0.4317(7)
C3_4 C 0.9733(4) 0.6748(11) 0.4245(10)
H1_4 H 0.9646 0.6067 0.4369
C7_4 C 0.9567(4) 0.8586(11) 0.4136(9)
H4_4 H 0.9368 0.9140 0.4185
C17_5 C 0.8876(4) 0.4701(10) 0.1807(9)
H9_5 H 0.9131 0.4366 0.1622
C18_4 C 0.8872(4) 0.5450(11) 0.2526(10)
H10_4 H 0.9119 0.5680 0.2930
C19_4 C 0.8199(3) 0.5236(8) 0.1862(8)
H11_4 H 0.7890 0.5324 0.1717
N2_5 N 0.8453(3) 0.4531(7) 0.1415(6)
N3_4 N 0.8448(3) 0.5782(8) 0.2532(7)
O7_5 O 0.8586(2) 0.2245(6) 0.1744(5)
H12_5 H 0.89022 0.249013 0.174291
H13_5 H 0.857719 0.147114 0.168954
H14_4 H 0.833606 0.634693 0.296742
C1_5 C 0.3968(3) 0.7618(9) 0.9629(7)
C2_5 C 0.4432(3) 0.7418(10) 0.9317(7)
C3_5 C 0.4733(4) 0.8252(11) 0.9245(10)
H1_5 H 0.4646 0.8933 0.9369
C4_5 C 0.5165(4) 0.8043(10) 0.8984(10)
H2_5 H 0.5363 0.8593 0.8914
C5_5 C 0.5301(4) 0.7038(9) 0.8830(9)
C6_5 C 0.5005(3) 0.6227(10) 0.8877(9)
H3_5 H 0.5094 0.5551 0.8738
C7_5 C 0.4567(4) 0.6414(11) 0.9136(9)
H4_5 H 0.4368 0.5860 0.9185
C8_5 C 0.5779(3) 0.6887(9) 0.8627(9)
H5_5 H 0.595(4) 0.753(6) 0.846(9)
C9_5 C 0.7444(3) 0.4427(7) 0.9478(6)
C10_5 C 0.7147(3) 0.5136(7) 0.8880(6)
C11_5 C 0.6683(3) 0.5190(8) 0.8972(7)
H6_5 H 0.6554 0.4749 0.9403
C12_5 C 0.6416(3) 0.5903(8) 0.8419(7)
C13_5 C 0.6602(3) 0.6519(8) 0.7736(7)
H7_5 H 0.6420 0.6982 0.7358
C14_5 C 0.7063(3) 0.6454(7) 0.7608(6)
C15_5 C 0.7337(3) 0.5785(8) 0.8211(7)
H8_5 H 0.7646 0.5773 0.8166
C16_5 C 0.7263(3) 0.7082(7) 0.6836(7)
N1_5 N 0.5952(2) 0.5968(7) 0.8570(6)
O1_3 O 0.38363(19) 0.8535(6) 0.9702(5)
O2_3 O 0.3729(2) 0.6846(6) 0.9827(5)
O3_5 O 0.7851(2) 0.4640(5) 0.9652(4)
O5_3 O 0.70194(19) 0.7735(5) 0.6361(4)
O8_3 O 0.88363(19) 0.3535(6) 0.9702(5)
O9_3 O 0.8729(2) 0.1846(6) 0.9827(5)
O11_3 O 0.79806(19) 0.2735(5) 0.8639(4)
C1_6 C 0.6032(3) 0.7618(9) 0.5371(7)
C2_6 C 0.5568(3) 0.7418(10) 0.5683(7)
C3_6 C 0.5267(4) 0.8252(11) 0.5755(10)
H1_6 H 0.5354 0.8933 0.5631
C4_6 C 0.4835(4) 0.8043(10) 0.6016(10)
H2_6 H 0.4637 0.8593 0.6086
C5_6 C 0.4699(4) 0.7038(9) 0.6170(9)
C6_6 C 0.4995(3) 0.6227(10) 0.6123(9)
H3_6 H 0.4906 0.5551 0.6262
C7_6 C 0.5433(4) 0.6414(11) 0.5864(9)
H4_6 H 0.5632 0.5860 0.5815
C8_6 C 0.4221(3) 0.6887(9) 0.6373(9)
H5_6 H 0.405(4) 0.753(6) 0.654(9)
C9_6 C 0.2556(3) 0.4427(7) 0.5522(6)
C10_6 C 0.2853(3) 0.5136(7) 0.6120(6)
C11_6 C 0.3317(3) 0.5190(8) 0.6028(7)
H6_6 H 0.3446 0.4749 0.5597
C12_6 C 0.3584(3) 0.5903(8) 0.6581(7)
C13_6 C 0.3398(3) 0.6519(8) 0.7264(7)
H7_6 H 0.3580 0.6982 0.7642
C14_6 C 0.2937(3) 0.6454(7) 0.7392(6)
C15_6 C 0.2663(3) 0.5785(8) 0.6789(7)
H8_6 H 0.2354 0.5773 0.6834
C16_6 C 0.2737(3) 0.7082(7) 0.8164(7)
C17_6 C 0.1124(4) 0.4701(10) 0.3193(9)
H9_6 H 0.0869 0.4366 0.3378
C18_5 C 0.1128(4) 0.5450(11) 0.2474(10)
H10_5 H 0.0881 0.5680 0.2070
C19_5 C 0.1801(3) 0.5236(8) 0.3138(8)
H11_5 H 0.2110 0.5324 0.3283
N1_6 N 0.4048(2) 0.5968(7) 0.6430(6)
N2_6 N 0.1547(3) 0.4531(7) 0.3585(6)
N3_5 N 0.1552(3) 0.5782(8) 0.2468(7)
O1_4 O 0.61637(19) 0.8535(6) 0.5298(5)
O2_4 O 0.6271(2) 0.6846(6) 0.5173(5)
O3_6 O 0.2149(2) 0.4640(5) 0.5348(4)
O5_4 O 0.29806(19) 0.7735(5) 0.8639(4)
O7_6 O 0.1414(2) 0.2245(6) 0.3256(5)
O8_4 O 0.11637(19) 0.3535(6) 0.5298(5)
O9_4 O 0.1271(2) 0.1846(6) 0.5173(5)
O11_4 O 0.20194(19) 0.2735(5) 0.6361(4)
H12_6 H 0.10978 0.249013 0.325709
H13_6 H 0.142281 0.147114 0.331046
H14_5 H 0.166394 0.634693 0.203258
C4_7 C 0.0165(4) 0.3043(10) 0.8984(10)
H2_7 H 0.0363 0.3593 0.8914
C5_7 C 0.0301(4) 0.2038(9) 0.8830(9)
C6_7 C 0.0005(3) 0.1227(10) 0.8877(9)
H3_7 H 0.0094 0.0551 0.8738
C8_7 C 0.0779(3) 0.1887(9) 0.8627(9)
H5_7 H 0.095(4) 0.253(6) 0.846(9)
C10_7 C 0.2147(3) 0.0136(7) 0.8880(6)
C11_7 C 0.1683(3) 0.0190(8) 0.8972(7)
C12_7 C 0.1416(3) 0.0903(8) 0.8419(7)
C13_7 C 0.1602(3) 0.1519(8) 0.7736(7)
H7_7 H 0.1420 0.1982 0.7358
C14_7 C 0.2063(3) 0.1454(7) 0.7608(6)
C15_7 C 0.2337(3) 0.0785(8) 0.8211(7)
H8_7 H 0.2646 0.0773 0.8166
C16_7 C 0.2263(3) 0.2082(7) 0.6836(7)
N1_7 N 0.0952(2) 0.0968(7) 0.8570(6)
C17_7 C 0.3876(4) 0.9701(10) 0.1807(9)
H9_7 H 0.4131 0.9366 0.1622
N2_7 N 0.3453(3) 0.9531(7) 0.1415(6)
O7_7 O 0.3586(2) 0.7245(6) 0.1744(5)
H12_7 H 0.39022 0.749013 0.174291
H13_7 H 0.357719 0.647114 0.168954
C9_7 C 0.2444(3) 0.9427(7) 0.9478(6)
H6_7 H 0.1554 0.9749 0.9403
O3_7 O 0.2851(2) 0.9640(5) 0.9652(4)
C1_7 C 0.8968(3) 0.2618(9) 0.9629(7)
C2_7 C 0.9432(3) 0.2418(10) 0.9317(7)
C3_7 C 0.9733(4) 0.3252(11) 0.9245(10)
H1_7 H 0.9646 0.3933 0.9369
C7_7 C 0.9567(4) 0.1414(11) 0.9136(9)
H4_7 H 0.9368 0.0860 0.9185
C1_8 C 0.1032(3) 0.2618(9) 0.5371(7)
C2_8 C 0.0568(3) 0.2418(10) 0.5683(7)
C3_8 C 0.0267(4) 0.3252(11) 0.5755(10)
H1_8 H 0.0354 0.3933 0.5631
C7_8 C 0.0433(4) 0.1414(11) 0.5864(9)
H4_8 H 0.0632 0.0860 0.5815
C4_8 C 0.9835(4) 0.3043(10) 0.6016(10)
H2_8 H 0.9637 0.3593 0.6086
C5_8 C 0.9699(4) 0.2038(9) 0.6170(9)
C6_8 C 0.9995(3) 0.1227(10) 0.6123(9)
H3_8 H 0.9906 0.0551 0.6262
C8_8 C 0.9221(3) 0.1887(9) 0.6373(9)
H5_8 H 0.905(4) 0.253(6) 0.654(9)
C10_8 C 0.7853(3) 0.0136(7) 0.6120(6)
C11_8 C 0.8317(3) 0.0190(8) 0.6028(7)
C12_8 C 0.8584(3) 0.0903(8) 0.6581(7)
C13_8 C 0.8398(3) 0.1519(8) 0.7264(7)
H7_8 H 0.8580 0.1982 0.7642
C14_8 C 0.7937(3) 0.1454(7) 0.7392(6)
C15_8 C 0.7663(3) 0.0785(8) 0.6789(7)
H8_8 H 0.7354 0.0773 0.6834
C16_8 C 0.7737(3) 0.2082(7) 0.8164(7)
C18_6 C 0.6128(4) 0.0450(11) 0.2474(10)
H10_6 H 0.5881 0.0680 0.2070
C19_6 C 0.6801(3) 0.0236(8) 0.3138(8)
H11_6 H 0.7110 0.0324 0.3283
N1_8 N 0.9048(2) 0.0968(7) 0.6430(6)
N3_6 N 0.6552(3) 0.0782(8) 0.2468(7)
H14_6 H 0.666394 0.134693 0.203258
C9_8 C 0.7556(3) 0.9427(7) 0.5522(6)
H6_8 H 0.8446 0.9749 0.5597
C17_8 C 0.6124(4) 0.9701(10) 0.3193(9)
H9_8 H 0.5869 0.9366 0.3378
N2_8 N 0.6547(3) 0.9531(7) 0.3585(6)
O3_8 O 0.7149(2) 0.9640(5) 0.5348(4)
O7_8 O 0.6414(2) 0.7245(6) 0.3256(5)
H12_8 H 0.60978 0.749013 0.325709
H13_8 H 0.642281 0.647114 0.331046
C18_7 C 0.6128(4) 0.9550(11) 0.7474(10)
H10_7 H 0.5881 0.9320 0.7070
C19_7 C 0.6801(3) 0.9764(8) 0.8138(8)
H11_7 H 0.7110 0.9676 0.8283
N3_7 N 0.6552(3) 0.9218(8) 0.7468(7)
H14_7 H 0.666394 0.865307 0.703258
C18_8 C 0.3872(4) 0.0450(11) 0.2526(10)
H10_8 H 0.4119 0.0680 0.2930
C19_8 C 0.3199(3) 0.0236(8) 0.1862(8)
H11_8 H 0.2890 0.0324 0.1717
N3_8 N 0.3448(3) 0.0782(8) 0.2532(7)
H14_8 H 0.333606 0.134693 0.296742
loop_
_geom_bond_atom_site_label_1
_geom_bond_atom_site_label_2
_geom_bond_site_symmetry_1
_geom_bond_site_symmetry_2
C1 C2 1_555 1_555
C2 C3 1_555 1_555
C3 H1 1_555 1_555
C4 C3 1_555 1_555
H2 C4 1_555 1_555
C5 C4 1_555 1_555
C6 C5 1_555 1_555
H3 C6 1_555 1_555
C7 C2 1_555 1_555
H4 C7 1_555 1_555
C8 C5 1_555 1_555
H5 C8 1_555 1_555
C9 C10 1_555 1_555
C10 C11 1_555 1_555
C11 H6 1_555 1_555
C12 C11 1_555 1_555
C13 C12 1_555 1_555
H7 C13 1_555 1_555
C14 C13 1_555 1_555
C15 C10 1_555 1_555
H8 C15 1_555 1_555
C16 C14 1_555 1_555
N1 C8 1_555 1_555
O1 C1 1_555 1_555
O2 C1 1_555 1_555
O3 C9 1_555 1_555
O4 C9 1_555 1_555
O5 C16 1_555 1_555
O6 C16 1_555 1_555
Eu3 O5 1_555 1_555
Eu4 O6 1_555 1_555
Eu5 O4 1_555 1_555
C6 C7 1_555 1_555
C12 N1 1_555 1_555
C14 C15 1_555 1_555
C17 H9 1_555 1_555
C18 C17 1_555 1_555
H10 C18 1_555 1_555
C19 H11 1_555 1_555
N2 C17 1_555 1_555
N3 C18 1_555 1_555
O7 Eu1 1_555 1_555
Eu1 N2 1_555 1_555
O10 Eu1 1_555 1_555
O12 Eu1 1_555 1_555
C19 N2 1_555 1_555
C19 N3 1_555 1_555
O7 H12 1_555 1_555
O7 H13 1_555 1_555
N3 H14 1_555 1_555
C1_2 C2_2 1_555 1_555
C2_2 C3_2 1_555 1_555
C3_2 H1_2 1_555 1_555
C4_2 C3_2 1_555 1_555
H2_2 C4_2 1_555 1_555
C5_2 C4_2 1_555 1_555
C6_2 C5_2 1_555 1_555
H3_2 C6_2 1_555 1_555
C7_2 C2_2 1_555 1_555
H4_2 C7_2 1_555 1_555
C8_2 C5_2 1_555 1_555
H5_2 C8_2 1_555 1_555
C9_2 C10_2 1_555 1_555
C10_2 C11_2 1_555 1_555
C11_2 H6_2 1_555 1_555
C12_2 C11_2 1_555 1_555
C13_2 C12_2 1_555 1_555
H7_2 C13_2 1_555 1_555
C14_2 C13_2 1_555 1_555
C15_2 C10_2 1_555 1_555
H8_2 C15_2 1_555 1_555
C16_2 C14_2 1_555 1_555
C17_2 H9_2 1_555 1_555
C18_2 C17_2 1_555 1_555
H10_2 C18_2 1_555 1_555
C19_2 H11_2 1_555 1_555
N1_2 C8_2 1_555 1_555
N2_2 C17_2 1_555 1_555
N3_2 C18_2 1_555 1_555
O1_2 C1_2 1_555 1_555
O2_2 C1_2 1_555 1_555
O3_2 C9_2 1_555 1_555
O4_2 C9_2 1_555 1_555
O5_2 C16_2 1_555 1_555
O6_2 C16_2 1_555 1_555
O7_2 Eu1_2 1_555 1_555
Eu1_2 N2_2 1_555 1_555
O8_2 Eu1_2 1_555 1_555
O9_2 Eu1_2 1_555 1_555
O10_2 Eu1_2 1_555 1_555
O11_2 Eu1_2 1_555 1_555
O12_2 Eu1_2 1_555 1_555
Eu3 O1_2 1_555 1_555
Eu4_2 O6_2 1_555 1_555
Eu5_2 O4_2 1_555 1_555
C6_2 C7_2 1_555 1_555
C12_2 N1_2 1_555 1_555
C14_2 C15_2 1_555 1_555
C19_2 N2_2 1_555 1_555
C19_2 N3_2 1_555 1_555
O2_2 Eu3 1_555 1_555
O3_2 Eu1_2 1_555 1_555
O4_2 Eu1_2 1_555 1_555
O10_2 Eu5_2 1_555 1_555
O7_2 H12_2 1_555 1_555
O7_2 H13_2 1_555 1_555
N3_2 H14_2 1_555 1_555
C1_3 C2_3 1_555 1_555
C2_3 C3_3 1_555 1_555
C3_3 H1_3 1_555 1_555
C7_3 C2_3 1_555 1_555
H4_3 C7_3 1_555 1_555
O8 C1_3 1_555 1_555
O9 C1_3 1_555 1_555
O3_3 C9_3 1_555 1_555
O4_3 C9_3 1_555 1_555
Eu4_2 O4_3 1_555 1_555
C17_3 H9_3 1_555 1_555
N2_3 C17_3 1_555 1_555
O7_3 Eu2 1_555 1_555
Eu2 N2_3 1_555 1_555
O10_3 Eu2 1_555 1_555
O12_3 Eu2 1_555 1_555
O7_3 H12_3 1_555 1_555
O7_3 H13_3 1_555 1_555
H2_3 C4_3 1_555 1_555
C5_3 C4_3 1_555 1_555
C6_3 C5_3 1_555 1_555
H3_3 C6_3 1_555 1_555
C8_3 C5_3 1_555 1_555
H5_3 C8_3 1_555 1_555
C10_3 C11_3 1_555 1_555
C12_3 C11_3 1_555 1_555
C13_3 C12_3 1_555 1_555
H7_3 C13_3 1_555 1_555
C14_3 C13_3 1_555 1_555
C15_3 C10_3 1_555 1_555
H8_3 C15_3 1_555 1_555
C16_3 C14_3 1_555 1_555
N1_3 C8_3 1_555 1_555
O11_2 C16_3 1_555 1_555
O6_3 C16_3 1_555 1_555
Eu5_2 O6_3 1_555 1_555
C12_3 N1_3 1_555 1_555
C14_3 C15_3 1_555 1_555
C17_4 H9_4 1_555 1_555
N2_4 C17_4 1_555 1_555
O3_4 C9_4 1_555 1_555
O4_4 C9_4 1_555 1_555
O7_4 Eu3 1_555 1_555
Eu3 N2_4 1_555 1_555
O10_4 Eu3 1_555 1_555
O12_4 Eu3 1_555 1_555
Eu4 O4_4 1_555 1_555
O3_4 Eu3 1_555 1_555
O4_4 Eu3 1_555 1_555
O10_4 Eu4 1_555 1_555
O7_4 H12_4 1_555 1_555
O7_4 H13_4 1_555 1_555
H2_4 C4_4 1_555 1_555
C5_4 C4_4 1_555 1_555
C6_4 C5_4 1_555 1_555
H3_4 C6_4 1_555 1_555
C8_4 C5_4 1_555 1_555
H5_4 C8_4 1_555 1_555
C10_4 C11_4 1_555 1_555
C12_4 C11_4 1_555 1_555
C13_4 C12_4 1_555 1_555
H7_4 C13_4 1_555 1_555
C14_4 C13_4 1_555 1_555
C15_4 C10_4 1_555 1_555
H8_4 C15_4 1_555 1_555
C16_4 C14_4 1_555 1_555
H10_3 C18_3 1_555 1_555
C19_3 H11_3 1_555 1_555
N1_4 C8_4 1_555 1_555
N3_3 C18_3 1_555 1_555
O11 C16_4 1_555 1_555
O6_4 C16_4 1_555 1_555
Eu5 O6_4 1_555 1_555
C12_4 N1_4 1_555 1_555
C14_4 C15_4 1_555 1_555
C19_3 N3_3 1_555 1_555
N3_3 H14_3 1_555 1_555
C1_4 C2_4 1_555 1_555
C2_4 C3_4 1_555 1_555
C3_4 H1_4 1_555 1_555
C7_4 C2_4 1_555 1_555
H4_4 C7_4 1_555 1_555
O8_2 C1_4 1_555 1_555
O9_2 C1_4 1_555 1_555
C17_5 H9_5 1_555 1_555
C18_4 C17_5 1_555 1_555
H10_4 C18_4 1_555 1_555
C19_4 H11_4 1_555 1_555
N2_5 C17_5 1_555 1_555
N3_4 C18_4 1_555 1_555
O7_5 Eu4_2 1_555 1_555
Eu4_2 N2_5 1_555 1_555
C19_4 N2_5 1_555 1_555
C19_4 N3_4 1_555 1_555
O7_5 H12_5 1_555 1_555
O7_5 H13_5 1_555 1_555
N3_4 H14_4 1_555 1_555
C1_5 C2_5 1_555 1_555
C2_5 C3_5 1_555 1_555
C3_5 H1_5 1_555 1_555
C4_5 C3_5 1_555 1_555
H2_5 C4_5 1_555 1_555
C5_5 C4_5 1_555 1_555
C6_5 C5_5 1_555 1_555
H3_5 C6_5 1_555 1_555
C7_5 C2_5 1_555 1_555
H4_5 C7_5 1_555 1_555
C8_5 C5_5 1_555 1_555
H5_5 C8_5 1_555 1_555
C9_5 C10_5 1_555 1_555
C10_5 C11_5 1_555 1_555
C11_5 H6_5 1_555 1_555
C12_5 C11_5 1_555 1_555
C13_5 C12_5 1_555 1_555
H7_5 C13_5 1_555 1_555
C14_5 C13_5 1_555 1_555
C15_5 C10_5 1_555 1_555
H8_5 C15_5 1_555 1_555
C16_5 C14_5 1_555 1_555
N1_5 C8_5 1_555 1_555
O1_3 C1_5 1_555 1_555
O2_3 C1_5 1_555 1_555
O3_5 C9_5 1_555 1_555
O10_3 C9_5 1_555 1_555
O5_3 C16_5 1_555 1_555
O12_2 C16_5 1_555 1_555
Eu5_2 O5_3 1_555 1_555
C6_5 C7_5 1_555 1_555
C12_5 N1_5 1_555 1_555
C14_5 C15_5 1_555 1_555
C1_6 C2_6 1_555 1_555
C2_6 C3_6 1_555 1_555
C3_6 H1_6 1_555 1_555
C4_6 C3_6 1_555 1_555
H2_6 C4_6 1_555 1_555
C5_6 C4_6 1_555 1_555
C6_6 C5_6 1_555 1_555
H3_6 C6_6 1_555 1_555
C7_6 C2_6 1_555 1_555
H4_6 C7_6 1_555 1_555
C8_6 C5_6 1_555 1_555
H5_6 C8_6 1_555 1_555
C9_6 C10_6 1_555 1_555
C10_6 C11_6 1_555 1_555
C11_6 H6_6 1_555 1_555
C12_6 C11_6 1_555 1_555
C13_6 C12_6 1_555 1_555
H7_6 C13_6 1_555 1_555
C14_6 C13_6 1_555 1_555
C15_6 C10_6 1_555 1_555
H8_6 C15_6 1_555 1_555
C16_6 C14_6 1_555 1_555
C17_6 H9_6 1_555 1_555
C18_5 C17_6 1_555 1_555
H10_5 C18_5 1_555 1_555
C19_5 H11_5 1_555 1_555
N1_6 C8_6 1_555 1_555
N2_6 C17_6 1_555 1_555
N3_5 C18_5 1_555 1_555
O1_4 C1_6 1_555 1_555
O2_4 C1_6 1_555 1_555
O3_6 C9_6 1_555 1_555
O10_4 C9_6 1_555 1_555
O5_4 C16_6 1_555 1_555
O12 C16_6 1_555 1_555
O7_6 Eu4 1_555 1_555
Eu4 N2_6 1_555 1_555
O8_4 Eu4 1_555 1_555
O9_4 Eu4 1_555 1_555
O11_4 Eu4 1_555 1_555
Eu5_2 O1_4 1_555 1_555
C6_6 C7_6 1_555 1_555
C12_6 N1_6 1_555 1_555
C14_6 C15_6 1_555 1_555
C19_5 N2_6 1_555 1_555
C19_5 N3_5 1_555 1_555
O2_4 Eu5_2 1_555 1_555
O3_6 Eu4 1_555 1_555
O7_6 H12_6 1_555 1_555
O7_6 H13_6 1_555 1_555
N3_5 H14_5 1_555 1_555
H2_7 C4_7 1_555 1_555
C5_7 C4_7 1_555 1_555
C6_7 C5_7 1_555 1_555
H3_7 C6_7 1_555 1_555
C8_7 C5_7 1_555 1_555
H5_7 C8_7 1_555 1_555
C10_7 C11_7 1_555 1_555
C12_7 C11_7 1_555 1_555
C13_7 C12_7 1_555 1_555
H7_7 C13_7 1_555 1_555
C14_7 C13_7 1_555 1_555
C15_7 C10_7 1_555 1_555
H8_7 C15_7 1_555 1_555
C16_7 C14_7 1_555 1_555
N1_7 C8_7 1_555 1_555
O11_4 C16_7 1_555 1_555
O12_4 C16_7 1_555 1_555
C12_7 N1_7 1_555 1_555
C14_7 C15_7 1_555 1_555
C17_7 H9_7 1_555 1_555
N2_7 C17_7 1_555 1_555
O7_7 Eu5 1_555 1_555
Eu5 N2_7 1_555 1_555
O7_7 H12_7 1_555 1_555
O7_7 H13_7 1_555 1_555
O3_7 C9_7 1_555 1_555
O10 C9_7 1_555 1_555
C1_7 C2_7 1_555 1_555
C2_7 C3_7 1_555 1_555
C3_7 H1_7 1_555 1_555
C7_7 C2_7 1_555 1_555
H4_7 C7_7 1_555 1_555
O8_3 C1_7 1_555 1_555
O9_3 C1_7 1_555 1_555
C1_8 C2_8 1_555 1_555
C2_8 C3_8 1_555 1_555
C3_8 H1_8 1_555 1_555
C7_8 C2_8 1_555 1_555
H4_8 C7_8 1_555 1_555
O8_4 C1_8 1_555 1_555
O9_4 C1_8 1_555 1_555
H2_8 C4_8 1_555 1_555
C5_8 C4_8 1_555 1_555
C6_8 C5_8 1_555 1_555
H3_8 C6_8 1_555 1_555
C8_8 C5_8 1_555 1_555
H5_8 C8_8 1_555 1_555
C10_8 C11_8 1_555 1_555
C12_8 C11_8 1_555 1_555
C13_8 C12_8 1_555 1_555
H7_8 C13_8 1_555 1_555
C14_8 C13_8 1_555 1_555
C15_8 C10_8 1_555 1_555
H8_8 C15_8 1_555 1_555
C16_8 C14_8 1_555 1_555
H10_6 C18_6 1_555 1_555
C19_6 H11_6 1_555 1_555
N1_8 C8_8 1_555 1_555
N3_6 C18_6 1_555 1_555
O11_3 C16_8 1_555 1_555
O12_3 C16_8 1_555 1_555
C12_8 N1_8 1_555 1_555
C14_8 C15_8 1_555 1_555
C19_6 N3_6 1_555 1_555
N3_6 H14_6 1_555 1_555
C17_8 H9_8 1_555 1_555
N2_8 C17_8 1_555 1_555
O3_8 C9_8 1_555 1_555
O10_2 C9_8 1_555 1_555
O7_8 Eu5_2 1_555 1_555
Eu5_2 N2_8 1_555 1_555
O3_8 Eu5_2 1_555 1_555
O7_8 H12_8 1_555 1_555
O7_8 H13_8 1_555 1_555
H10_7 C18_7 1_555 1_555
C19_7 H11_7 1_555 1_555
N3_7 C18_7 1_555 1_555
C19_7 N3_7 1_555 1_555
N3_7 H14_7 1_555 1_555
H10_8 C18_8 1_555 1_555
C19_8 H11_8 1_555 1_555
N3_8 C18_8 1_555 1_555
C19_8 N3_8 1_555 1_555
N3_8 H14_8 1_555 1_555

#END
