
###############################################################################
#
# This file contains modified crystal structure data generated from the
# MOF subset of the Cambridge Structural Database (CSD) v543 
# hosted by the Cambridge Crystallographic Data Centre (CCDC).
#
# This work is licensed under the Creative Commons
# Attribution-NonCommercial-ShareAlike 4.0 International License.
# To view a copy of this license, visit
# http://creativecommons.org/licenses/by-nc-sa/4.0/
# or send a letter to
# Creative Commons, PO Box 1866, Mountain View, CA 94042, USA.
#
# CIF created using the CSD Python API on 29 September 2022
# The structure has been converted into the P1 space group
# The structure has a 3D framework
# The original CSD entry CUWYIE is in the monoclinic crystal system
# The framework has been calculated to contain at least 10.0% void space
# The void calculation uses a probe of radius 1.32A, grid spacing 0.4
# H atom positions have been added when not included in the experimental data
#
###############################################################################

data_CUWYIE
_chemical_formula_moiety         '(C176 H128 Eu8 N40 O48)n'
_symmetry_cell_setting           triclinic
_symmetry_space_group_name_H-M   'P 1'
_symmetry_Int_Tables_number      1
_space_group_name_Hall           'P 1'
loop_
_symmetry_equiv_pos_site_id
_symmetry_equiv_pos_as_xyz
1 x,y,z
_cell_length_a                   28.6627(10)
_cell_length_b                   14.0581(4)
_cell_length_c                   13.1543(5)
_cell_angle_alpha                90
_cell_angle_beta                 102.307(4)
_cell_angle_gamma                90
_cell_volume                     5178.63
loop_
_atom_site_label
_atom_site_type_symbol
_atom_site_fract_x
_atom_site_fract_y
_atom_site_fract_z
Eu3 Eu 0.816945(11) 0.20267(2) 0.05854(3)
C12 C 0.7130(2) 0.0073(5) 0.8699(5)
H7 H 0.6541 0.0390 0.9258
C16 C 0.7459(2) 0.0792(5) 0.9300(5)
O1 O 0.72873(16) 0.1575(3) 0.9546(4)
O6 O 0.78944(17) 0.0626(4) 0.9556(4)
Eu4 Eu 0.683055(11) 0.29733(2) 0.94146(3)
Eu1 Eu 0.316945(11) 0.70267(2) 0.05854(3)
C1 C 0.4049(2) 0.7378(6) 0.0013(6)
C17 C 0.3712(4) 0.4823(8) 0.1463(11)
H9 H 0.3753 0.4689 0.0795
C18 C 0.3805(5) 0.4199(10) 0.2261(9)
H10 H 0.3918 0.3581 0.2237
C19 C 0.3558(3) 0.5519(7) 0.2759(6)
H11 H 0.3469 0.5982 0.3186
C20 C 0.3903(6) 0.8161(10) 0.2853(11)
H12 H 0.4195 0.8095 0.2660
C21 C 0.3404(6) 0.8695(13) 0.3800(15)
H13 H 0.3249 0.8985 0.4270
C22 C 0.3259(8) 0.8102(12) 0.2985(13)
H14 H 0.2938 0.7934 0.2858
N2 N 0.3553(3) 0.5666(7) 0.1749(5)
N3 N 0.3703(3) 0.4641(7) 0.3098(8)
N4 N 0.3510(5) 0.7716(9) 0.2325(10)
N5 N 0.3860(6) 0.8708(11) 0.3675(12)
O4 O 0.3862(2) 0.8011(4) 0.0475(6)
O8 O 0.27127(16) 0.8425(3) 0.0454(4)
O10 O 0.26387(18) 0.6691(5) 0.1676(4)
H15 H 0.372965 0.437126 0.382386
H16 H 0.413088 0.907473 0.413131
C2 C 0.4475(2) 0.7658(6) 0.9571(6)
C3 C 0.4603(3) 0.8578(6) 0.9506(8)
H1 H 0.4420 0.9058 0.9713
C4 C 0.5014(3) 0.8810(6) 0.9125(7)
H2 H 0.5095 0.9445 0.9065
C5 C 0.5287(3) 0.8123(6) 0.8848(8)
C6 C 0.5158(5) 0.7163(8) 0.8911(14)
H3 H 0.5345 0.6682 0.8718
C7 C 0.4755(5) 0.6944(7) 0.9259(11)
H4 H 0.4664 0.6311 0.9288
C8 C 0.5742(3) 0.8330(7) 0.8541(8)
H5 H 0.598(3) 0.783(6) 0.849(9)
C9 C 0.7206(3) 0.8167(5) 0.6708(6)
C10 C 0.7013(2) 0.8787(5) 0.7467(5)
C11 C 0.7299(2) 0.9468(5) 0.8020(5)
H6 H 0.7613 0.9529 0.7943
C13 C 0.6661(2) 0.9975(5) 0.8827(6)
C14 C 0.6374(2) 0.9247(6) 0.8300(6)
C15 C 0.6547(3) 0.8684(5) 0.7603(5)
H8 H 0.6349 0.8229 0.7219
N1 N 0.5917(2) 0.9144(5) 0.8539(5)
O2 O 0.69311(17) 0.7583(4) 0.6179(4)
O3 O 0.38927(17) 0.6548(4) 0.9929(4)
O5 O 0.76387(18) 0.8309(5) 0.6676(4)
Eu2 Eu 0.683055(11) 0.70267(2) 0.44146(3)
Eu5 Eu 0.816945(11) 0.79733(2) 0.55854(3)
O7 O 0.22873(16) 0.6575(3) 0.9546(4)
O9 O 0.30689(17) 0.7583(4) 0.8821(4)
O11 O 0.28944(17) 0.5626(4) 0.9556(4)
C12_2 C 0.2870(2) 0.0073(5) 0.6301(5)
H7_2 H 0.3459 0.0390 0.5742
C16_2 C 0.2541(2) 0.0792(5) 0.5700(5)
O1_2 O 0.27127(16) 0.1575(3) 0.5454(4)
O6_2 O 0.21056(17) 0.0626(4) 0.5444(4)
Eu3_2 Eu 0.183055(11) 0.20267(2) 0.44146(3)
Eu4_2 Eu 0.316945(11) 0.29733(2) 0.55854(3)
C1_2 C 0.5951(2) 0.7378(6) 0.4987(6)
C2_2 C 0.5525(2) 0.7658(6) 0.5429(6)
C3_2 C 0.5397(3) 0.8578(6) 0.5494(8)
H1_2 H 0.5580 0.9058 0.5287
C4_2 C 0.4986(3) 0.8810(6) 0.5875(7)
H2_2 H 0.4905 0.9445 0.5935
C5_2 C 0.4713(3) 0.8123(6) 0.6152(8)
C6_2 C 0.4842(5) 0.7163(8) 0.6089(14)
H3_2 H 0.4655 0.6682 0.6282
C7_2 C 0.5245(5) 0.6944(7) 0.5741(11)
H4_2 H 0.5336 0.6311 0.5712
C8_2 C 0.4258(3) 0.8330(7) 0.6459(8)
H5_2 H 0.402(3) 0.783(6) 0.651(9)
C9_2 C 0.2794(3) 0.8167(5) 0.8292(6)
C10_2 C 0.2987(2) 0.8787(5) 0.7533(5)
C11_2 C 0.2701(2) 0.9468(5) 0.6980(5)
H6_2 H 0.2387 0.9529 0.7057
C13_2 C 0.3339(2) 0.9975(5) 0.6173(6)
C14_2 C 0.3626(2) 0.9247(6) 0.6700(6)
C15_2 C 0.3453(3) 0.8684(5) 0.7397(5)
H8_2 H 0.3651 0.8229 0.7781
C17_2 C 0.6288(4) 0.4823(8) 0.3537(11)
H9_2 H 0.6247 0.4689 0.4205
C18_2 C 0.6195(5) 0.4199(10) 0.2739(9)
H10_2 H 0.6082 0.3581 0.2763
C19_2 C 0.6442(3) 0.5519(7) 0.2241(6)
H11_2 H 0.6531 0.5982 0.1814
C20_2 C 0.6097(6) 0.8161(10) 0.2147(11)
H12_2 H 0.5805 0.8095 0.2340
C21_2 C 0.6596(6) 0.8695(13) 0.1200(15)
H13_2 H 0.6751 0.8985 0.0730
C22_2 C 0.6741(8) 0.8102(12) 0.2015(13)
H14_2 H 0.7062 0.7934 0.2142
N1_2 N 0.4083(2) 0.9144(5) 0.6461(5)
N2_2 N 0.6447(3) 0.5666(7) 0.3251(5)
N3_2 N 0.6297(3) 0.4641(7) 0.1902(8)
N4_2 N 0.6490(5) 0.7716(9) 0.2675(10)
N5_2 N 0.6140(6) 0.8708(11) 0.1325(12)
O3_2 O 0.61073(17) 0.6548(4) 0.5071(4)
O4_2 O 0.6138(2) 0.8011(4) 0.4525(6)
O5_2 O 0.23613(18) 0.8309(5) 0.8324(4)
Eu5_2 Eu 0.183055(11) 0.79733(2) 0.94146(3)
O7_2 O 0.77127(16) 0.6575(3) 0.5454(4)
O8_2 O 0.72873(16) 0.8425(3) 0.4546(4)
O10_2 O 0.73613(18) 0.6691(5) 0.3324(4)
O11_2 O 0.71056(17) 0.5626(4) 0.5444(4)
H15_2 H 0.627035 0.437126 0.117614
H16_2 H 0.586912 0.907473 0.0868688
C4_3 C 0.0014(3) 0.3810(6) 0.9125(7)
H2_3 H 0.0095 0.4445 0.9065
C5_3 C 0.0287(3) 0.3123(6) 0.8848(8)
C6_3 C 0.0158(5) 0.2163(8) 0.8911(14)
H3_3 H 0.0345 0.1682 0.8718
C8_3 C 0.0742(3) 0.3330(7) 0.8541(8)
H5_3 H 0.098(3) 0.283(6) 0.849(9)
C9_3 C 0.2206(3) 0.3167(5) 0.6708(6)
C10_3 C 0.2013(2) 0.3787(5) 0.7467(5)
C11_3 C 0.2299(2) 0.4468(5) 0.8020(5)
H6_3 H 0.2613 0.4529 0.7943
C12_3 C 0.2130(2) 0.5073(5) 0.8699(5)
C13_3 C 0.1661(2) 0.4975(5) 0.8827(6)
H7_3 H 0.1541 0.5390 0.9258
C14_3 C 0.1374(2) 0.4247(6) 0.8300(6)
C15_3 C 0.1547(3) 0.3684(5) 0.7603(5)
H8_3 H 0.1349 0.3229 0.7219
C16_3 C 0.2459(2) 0.5792(5) 0.9300(5)
N1_3 N 0.0917(2) 0.4144(5) 0.8539(5)
O2_2 O 0.19311(17) 0.2583(4) 0.6179(4)
O5_3 O 0.26387(18) 0.3309(5) 0.6676(4)
C1_3 C 0.9049(2) 0.2378(6) 0.0013(6)
C19_3 C 0.8558(3) 0.0519(7) 0.2759(6)
H11_3 H 0.8469 0.0982 0.3186
C20_3 C 0.8903(6) 0.3161(10) 0.2853(11)
H12_3 H 0.9195 0.3095 0.2660
C21_3 C 0.8404(6) 0.3695(13) 0.3800(15)
H13_3 H 0.8249 0.3985 0.4270
C22_3 C 0.8259(8) 0.3102(12) 0.2985(13)
H14_3 H 0.7938 0.2934 0.2858
N2_3 N 0.8553(3) 0.0666(7) 0.1749(5)
N4_3 N 0.8510(5) 0.2716(9) 0.2325(10)
N5_3 N 0.8860(6) 0.3708(11) 0.3675(12)
O4_3 O 0.8862(2) 0.3011(4) 0.0475(6)
O8_3 O 0.77127(16) 0.3425(3) 0.0454(4)
O10_3 O 0.76387(18) 0.1691(5) 0.1676(4)
H16_3 H 0.913088 0.407473 0.413131
C2_3 C 0.9475(2) 0.2658(6) 0.9571(6)
C3_3 C 0.9603(3) 0.3578(6) 0.9506(8)
H1_3 H 0.9420 0.4058 0.9713
C7_3 C 0.9755(5) 0.1944(7) 0.9259(11)
H4_3 H 0.9664 0.1311 0.9288
O3_3 O 0.88927(17) 0.1548(4) 0.9929(4)
O9_2 O 0.80689(17) 0.2583(4) 0.8821(4)
C1_4 C 0.0951(2) 0.2378(6) 0.4987(6)
C2_4 C 0.0525(2) 0.2658(6) 0.5429(6)
C3_4 C 0.0397(3) 0.3578(6) 0.5494(8)
H1_4 H 0.0580 0.4058 0.5287
C7_4 C 0.0245(5) 0.1944(7) 0.5741(11)
H4_4 H 0.0336 0.1311 0.5712
C19_4 C 0.1442(3) 0.0519(7) 0.2241(6)
H11_4 H 0.1531 0.0982 0.1814
C20_4 C 0.1097(6) 0.3161(10) 0.2147(11)
H12_4 H 0.0805 0.3095 0.2340
C21_4 C 0.1596(6) 0.3695(13) 0.1200(15)
H13_4 H 0.1751 0.3985 0.0730
C22_4 C 0.1741(8) 0.3102(12) 0.2015(13)
H14_4 H 0.2062 0.2934 0.2142
N2_4 N 0.1447(3) 0.0666(7) 0.3251(5)
N4_4 N 0.1490(5) 0.2716(9) 0.2675(10)
N5_4 N 0.1140(6) 0.3708(11) 0.1325(12)
O3_4 O 0.11073(17) 0.1548(4) 0.5071(4)
O4_4 O 0.1138(2) 0.3011(4) 0.4525(6)
O8_4 O 0.22873(16) 0.3425(3) 0.4546(4)
O10_4 O 0.23613(18) 0.1691(5) 0.3324(4)
H16_4 H 0.0869122 0.407473 0.0868688
C4_4 C 0.9986(3) 0.3810(6) 0.5875(7)
H2_4 H 0.9905 0.4445 0.5935
C5_4 C 0.9713(3) 0.3123(6) 0.6152(8)
C6_4 C 0.9842(5) 0.2163(8) 0.6089(14)
H3_4 H 0.9655 0.1682 0.6282
C8_4 C 0.9258(3) 0.3330(7) 0.6459(8)
H5_4 H 0.902(3) 0.283(6) 0.651(9)
C9_4 C 0.7794(3) 0.3167(5) 0.8292(6)
C10_4 C 0.7987(2) 0.3787(5) 0.7533(5)
C11_4 C 0.7701(2) 0.4468(5) 0.6980(5)
H6_4 H 0.7387 0.4529 0.7057
C12_4 C 0.7870(2) 0.5073(5) 0.6301(5)
C13_4 C 0.8339(2) 0.4975(5) 0.6173(6)
H7_4 H 0.8459 0.5390 0.5742
C14_4 C 0.8626(2) 0.4247(6) 0.6700(6)
C15_4 C 0.8453(3) 0.3684(5) 0.7397(5)
H8_4 H 0.8651 0.3229 0.7781
C16_4 C 0.7541(2) 0.5792(5) 0.5700(5)
N1_4 N 0.9083(2) 0.4144(5) 0.6461(5)
O5_4 O 0.73613(18) 0.3309(5) 0.8324(4)
C2_5 C 0.5525(2) 0.2342(6) 0.0429(6)
C3_5 C 0.5397(3) 0.1422(6) 0.0494(8)
H1_5 H 0.5580 0.0942 0.0287
C4_5 C 0.4986(3) 0.1190(6) 0.0875(7)
H2_5 H 0.4905 0.0555 0.0935
C5_5 C 0.4713(3) 0.1877(6) 0.1152(8)
C6_5 C 0.4842(5) 0.2837(8) 0.1089(14)
H3_5 H 0.4655 0.3318 0.1282
C7_5 C 0.5245(5) 0.3056(7) 0.0741(11)
H4_5 H 0.5336 0.3689 0.0712
C8_5 C 0.4258(3) 0.1670(7) 0.1459(8)
H5_5 H 0.402(3) 0.217(6) 0.151(9)
C9_5 C 0.2794(3) 0.1833(5) 0.3292(6)
C10_5 C 0.2987(2) 0.1213(5) 0.2533(5)
C11_5 C 0.2701(2) 0.0532(5) 0.1980(5)
H6_5 H 0.2387 0.0471 0.2057
C13_5 C 0.3339(2) 0.0025(5) 0.1173(6)
C14_5 C 0.3626(2) 0.0753(6) 0.1700(6)
C15_5 C 0.3453(3) 0.1316(5) 0.2397(5)
H8_5 H 0.3651 0.1771 0.2781
N1_5 N 0.4083(2) 0.0856(5) 0.1461(5)
O2_3 O 0.30689(17) 0.2417(4) 0.3821(4)
O3_5 O 0.61073(17) 0.3452(4) 0.0071(4)
O9_3 O 0.69311(17) 0.2417(4) 0.1179(4)
O11_3 O 0.71056(17) 0.4374(4) 0.0444(4)
C1_5 C 0.5951(2) 0.2622(6) 0.9987(6)
C17_3 C 0.6288(4) 0.5177(8) 0.8537(11)
H9_3 H 0.6247 0.5311 0.9205
C18_3 C 0.6195(5) 0.5801(10) 0.7739(9)
H10_3 H 0.6082 0.6419 0.7763
C19_5 C 0.6442(3) 0.4481(7) 0.7241(6)
H11_5 H 0.6531 0.4018 0.6814
C20_5 C 0.6097(6) 0.1839(10) 0.7147(11)
H12_5 H 0.5805 0.1905 0.7340
C21_5 C 0.6596(6) 0.1305(13) 0.6200(15)
H13_5 H 0.6751 0.1015 0.5730
C22_5 C 0.6741(8) 0.1898(12) 0.7015(13)
H14_5 H 0.7062 0.2066 0.7142
N2_5 N 0.6447(3) 0.4334(7) 0.8251(5)
N3_3 N 0.6297(3) 0.5359(7) 0.6902(8)
N4_5 N 0.6490(5) 0.2284(9) 0.7675(10)
N5_5 N 0.6140(6) 0.1292(11) 0.6325(12)
O4_5 O 0.6138(2) 0.1989(4) 0.9525(6)
H15_3 H 0.627035 0.562874 0.617614
H16_5 H 0.586912 0.0925273 0.586869
C12_5 C 0.2870(2) 0.9927(5) 0.1301(5)
H7_5 H 0.3459 0.9610 0.0742
C16_5 C 0.2541(2) 0.9208(5) 0.0700(5)
O6_3 O 0.21056(17) 0.9374(4) 0.0444(4)
C1_6 C 0.4049(2) 0.2622(6) 0.5013(6)
C2_6 C 0.4475(2) 0.2342(6) 0.4571(6)
C3_6 C 0.4603(3) 0.1422(6) 0.4506(8)
H1_6 H 0.4420 0.0942 0.4713
C4_6 C 0.5014(3) 0.1190(6) 0.4125(7)
H2_6 H 0.5095 0.0555 0.4065
C5_6 C 0.5287(3) 0.1877(6) 0.3848(8)
C6_6 C 0.5158(5) 0.2837(8) 0.3911(14)
H3_6 H 0.5345 0.3318 0.3718
C7_6 C 0.4755(5) 0.3056(7) 0.4259(11)
H4_6 H 0.4664 0.3689 0.4288
C8_6 C 0.5742(3) 0.1670(7) 0.3541(8)
H5_6 H 0.598(3) 0.217(6) 0.349(9)
C9_6 C 0.7206(3) 0.1833(5) 0.1708(6)
C10_6 C 0.7013(2) 0.1213(5) 0.2467(5)
C11_6 C 0.7299(2) 0.0532(5) 0.3020(5)
H6_6 H 0.7613 0.0471 0.2943
C13_6 C 0.6661(2) 0.0025(5) 0.3827(6)
C14_6 C 0.6374(2) 0.0753(6) 0.3300(6)
C15_6 C 0.6547(3) 0.1316(5) 0.2603(5)
H8_6 H 0.6349 0.1771 0.2219
C17_4 C 0.3712(4) 0.5177(8) 0.6463(11)
H9_4 H 0.3753 0.5311 0.5795
C18_4 C 0.3805(5) 0.5801(10) 0.7261(9)
H10_4 H 0.3918 0.6419 0.7237
C19_6 C 0.3558(3) 0.4481(7) 0.7759(6)
H11_6 H 0.3469 0.4018 0.8186
C20_6 C 0.3903(6) 0.1839(10) 0.7853(11)
H12_6 H 0.4195 0.1905 0.7660
C21_6 C 0.3404(6) 0.1305(13) 0.8800(15)
H13_6 H 0.3249 0.1015 0.9270
C22_6 C 0.3259(8) 0.1898(12) 0.7985(13)
H14_6 H 0.2938 0.2066 0.7858
N1_6 N 0.5917(2) 0.0856(5) 0.3539(5)
N2_6 N 0.3553(3) 0.4334(7) 0.6749(5)
N3_4 N 0.3703(3) 0.5359(7) 0.8098(8)
N4_6 N 0.3510(5) 0.2284(9) 0.7325(10)
N5_6 N 0.3860(6) 0.1292(11) 0.8675(12)
O3_6 O 0.38927(17) 0.3452(4) 0.4929(4)
O4_6 O 0.3862(2) 0.1989(4) 0.5475(6)
O11_4 O 0.28944(17) 0.4374(4) 0.4556(4)
H15_4 H 0.372965 0.562874 0.882386
H16_6 H 0.413088 0.0925273 0.913131
C12_6 C 0.7130(2) 0.9927(5) 0.3699(5)
H7_6 H 0.6541 0.9610 0.4258
C16_6 C 0.7459(2) 0.9208(5) 0.4300(5)
O6_4 O 0.78944(17) 0.9374(4) 0.4556(4)
C2_7 C 0.0525(2) 0.7342(6) 0.0429(6)
C3_7 C 0.0397(3) 0.6422(6) 0.0494(8)
H1_7 H 0.0580 0.5942 0.0287
C7_7 C 0.0245(5) 0.8056(7) 0.0741(11)
H4_7 H 0.0336 0.8689 0.0712
O3_7 O 0.11073(17) 0.8452(4) 0.0071(4)
O9_4 O 0.19311(17) 0.7417(4) 0.1179(4)
C1_7 C 0.0951(2) 0.7622(6) 0.9987(6)
C19_7 C 0.1442(3) 0.9481(7) 0.7241(6)
H11_7 H 0.1531 0.9018 0.6814
C20_7 C 0.1097(6) 0.6839(10) 0.7147(11)
H12_7 H 0.0805 0.6905 0.7340
C21_7 C 0.1596(6) 0.6305(13) 0.6200(15)
H13_7 H 0.1751 0.6015 0.5730
C22_7 C 0.1741(8) 0.6898(12) 0.7015(13)
H14_7 H 0.2062 0.7066 0.7142
N2_7 N 0.1447(3) 0.9334(7) 0.8251(5)
N4_7 N 0.1490(5) 0.7284(9) 0.7675(10)
N5_7 N 0.1140(6) 0.6292(11) 0.6325(12)
O4_7 O 0.1138(2) 0.6989(4) 0.9525(6)
H16_7 H 0.0869122 0.592527 0.586869
C4_7 C 0.9986(3) 0.6190(6) 0.0875(7)
H2_7 H 0.9905 0.5555 0.0935
C5_7 C 0.9713(3) 0.6877(6) 0.1152(8)
C6_7 C 0.9842(5) 0.7837(8) 0.1089(14)
H3_7 H 0.9655 0.8318 0.1282
C8_7 C 0.9258(3) 0.6670(7) 0.1459(8)
H5_7 H 0.902(3) 0.717(6) 0.151(9)
C9_7 C 0.7794(3) 0.6833(5) 0.3292(6)
C10_7 C 0.7987(2) 0.6213(5) 0.2533(5)
C11_7 C 0.7701(2) 0.5532(5) 0.1980(5)
H6_7 H 0.7387 0.5471 0.2057
C12_7 C 0.7870(2) 0.4927(5) 0.1301(5)
C13_7 C 0.8339(2) 0.5025(5) 0.1173(6)
H7_7 H 0.8459 0.4610 0.0742
C14_7 C 0.8626(2) 0.5753(6) 0.1700(6)
C15_7 C 0.8453(3) 0.6316(5) 0.2397(5)
H8_7 H 0.8651 0.6771 0.2781
C16_7 C 0.7541(2) 0.4208(5) 0.0700(5)
N1_7 N 0.9083(2) 0.5856(5) 0.1461(5)
O2_4 O 0.80689(17) 0.7417(4) 0.3821(4)
C4_8 C 0.0014(3) 0.6190(6) 0.4125(7)
H2_8 H 0.0095 0.5555 0.4065
C5_8 C 0.0287(3) 0.6877(6) 0.3848(8)
C6_8 C 0.0158(5) 0.7837(8) 0.3911(14)
H3_8 H 0.0345 0.8318 0.3718
C8_8 C 0.0742(3) 0.6670(7) 0.3541(8)
H5_8 H 0.098(3) 0.717(6) 0.349(9)
C9_8 C 0.2206(3) 0.6833(5) 0.1708(6)
C10_8 C 0.2013(2) 0.6213(5) 0.2467(5)
C11_8 C 0.2299(2) 0.5532(5) 0.3020(5)
H6_8 H 0.2613 0.5471 0.2943
C12_8 C 0.2130(2) 0.4927(5) 0.3699(5)
C13_8 C 0.1661(2) 0.5025(5) 0.3827(6)
H7_8 H 0.1541 0.4610 0.4258
C14_8 C 0.1374(2) 0.5753(6) 0.3300(6)
C15_8 C 0.1547(3) 0.6316(5) 0.2603(5)
H8_8 H 0.1349 0.6771 0.2219
C16_8 C 0.2459(2) 0.4208(5) 0.4300(5)
N1_8 N 0.0917(2) 0.5856(5) 0.3539(5)
C1_8 C 0.9049(2) 0.7622(6) 0.5013(6)
C2_8 C 0.9475(2) 0.7342(6) 0.4571(6)
C3_8 C 0.9603(3) 0.6422(6) 0.4506(8)
H1_8 H 0.9420 0.5942 0.4713
C7_8 C 0.9755(5) 0.8056(7) 0.4259(11)
H4_8 H 0.9664 0.8689 0.4288
C19_8 C 0.8558(3) 0.9481(7) 0.7759(6)
H11_8 H 0.8469 0.9018 0.8186
C20_8 C 0.8903(6) 0.6839(10) 0.7853(11)
H12_8 H 0.9195 0.6905 0.7660
C21_8 C 0.8404(6) 0.6305(13) 0.8800(15)
H13_8 H 0.8249 0.6015 0.9270
C22_8 C 0.8259(8) 0.6898(12) 0.7985(13)
H14_8 H 0.7938 0.7066 0.7858
N2_8 N 0.8553(3) 0.9334(7) 0.6749(5)
N4_8 N 0.8510(5) 0.7284(9) 0.7325(10)
N5_8 N 0.8860(6) 0.6292(11) 0.8675(12)
O3_8 O 0.88927(17) 0.8452(4) 0.4929(4)
O4_8 O 0.8862(2) 0.6989(4) 0.5475(6)
H16_8 H 0.913088 0.592527 0.913131
C17_5 C 0.8712(4) 0.9823(8) 0.1463(11)
H9_5 H 0.8753 0.9689 0.0795
C18_5 C 0.8805(5) 0.9199(10) 0.2261(9)
H10_5 H 0.8918 0.8581 0.2237
N3_5 N 0.8703(3) 0.9641(7) 0.3098(8)
H15_5 H 0.872965 0.937126 0.382386
C17_6 C 0.1288(4) 0.9823(8) 0.3537(11)
H9_6 H 0.1247 0.9689 0.4205
C18_6 C 0.1195(5) 0.9199(10) 0.2739(9)
H10_6 H 0.1082 0.8581 0.2763
N3_6 N 0.1297(3) 0.9641(7) 0.1902(8)
H15_6 H 0.127035 0.937126 0.117614
C17_7 C 0.1288(4) 0.0177(8) 0.8537(11)
H9_7 H 0.1247 0.0311 0.9205
C18_7 C 0.1195(5) 0.0801(10) 0.7739(9)
H10_7 H 0.1082 0.1419 0.7763
N3_7 N 0.1297(3) 0.0359(7) 0.6902(8)
H15_7 H 0.127035 0.0628745 0.617614
C17_8 C 0.8712(4) 0.0177(8) 0.6463(11)
H9_8 H 0.8753 0.0311 0.5795
C18_8 C 0.8805(5) 0.0801(10) 0.7261(9)
H10_8 H 0.8918 0.1419 0.7237
N3_8 N 0.8703(3) 0.0359(7) 0.8098(8)
H15_8 H 0.872965 0.0628745 0.882386
loop_
_geom_bond_atom_site_label_1
_geom_bond_atom_site_label_2
_geom_bond_site_symmetry_1
_geom_bond_site_symmetry_2
C16 C12 1_555 1_555
O1 C16 1_555 1_555
O6 C16 1_555 1_555
Eu4 O1 1_555 1_555
Eu1 N2 1_555 1_555
C17 H9 1_555 1_555
C18 C17 1_555 1_555
H10 C18 1_555 1_555
C19 H11 1_555 1_555
C20 H12 1_555 1_555
C21 H13 1_555 1_555
C22 C21 1_555 1_555
H14 C22 1_555 1_555
N2 C17 1_555 1_555
N3 C18 1_555 1_555
N4 Eu1 1_555 1_555
N5 C20 1_555 1_555
O4 Eu1 1_555 1_555
O8 Eu1 1_555 1_555
O10 Eu1 1_555 1_555
C1 O4 1_555 1_555
C19 N2 1_555 1_555
C19 N3 1_555 1_555
C20 N4 1_555 1_555
C21 N5 1_555 1_555
C22 N4 1_555 1_555
N3 H15 1_555 1_555
N5 H16 1_555 1_555
C2 C3 1_555 1_555
C3 H1 1_555 1_555
C4 C3 1_555 1_555
H2 C4 1_555 1_555
C5 C4 1_555 1_555
C6 C5 1_555 1_555
H3 C6 1_555 1_555
C7 C2 1_555 1_555
H4 C7 1_555 1_555
C8 C5 1_555 1_555
H5 C8 1_555 1_555
C9 C10 1_555 1_555
C10 C11 1_555 1_555
C11 H6 1_555 1_555
C14 C13 1_555 1_555
C15 C10 1_555 1_555
H8 C15 1_555 1_555
N1 C8 1_555 1_555
O2 C9 1_555 1_555
O5 C9 1_555 1_555
Eu2 O2 1_555 1_555
Eu5 O5 1_555 1_555
C6 C7 1_555 1_555
C14 C15 1_555 1_555
C14 N1 1_555 1_555
C16_2 C12_2 1_555 1_555
O1_2 C16_2 1_555 1_555
O6_2 C16_2 1_555 1_555
Eu3_2 O1_2 1_555 1_555
Eu4_2 O1_2 1_555 1_555
O6_2 Eu3_2 1_555 1_555
Eu2 N2_2 1_555 1_555
C1_2 C2_2 1_555 1_555
C2_2 C3_2 1_555 1_555
C3_2 H1_2 1_555 1_555
C4_2 C3_2 1_555 1_555
H2_2 C4_2 1_555 1_555
C5_2 C4_2 1_555 1_555
C6_2 C5_2 1_555 1_555
H3_2 C6_2 1_555 1_555
C7_2 C2_2 1_555 1_555
H4_2 C7_2 1_555 1_555
C8_2 C5_2 1_555 1_555
H5_2 C8_2 1_555 1_555
C9_2 C10_2 1_555 1_555
C10_2 C11_2 1_555 1_555
C11_2 H6_2 1_555 1_555
C14_2 C13_2 1_555 1_555
C15_2 C10_2 1_555 1_555
H8_2 C15_2 1_555 1_555
C17_2 H9_2 1_555 1_555
C18_2 C17_2 1_555 1_555
H10_2 C18_2 1_555 1_555
C19_2 H11_2 1_555 1_555
C20_2 H12_2 1_555 1_555
C21_2 H13_2 1_555 1_555
C22_2 C21_2 1_555 1_555
H14_2 C22_2 1_555 1_555
N1_2 C8_2 1_555 1_555
N2_2 C17_2 1_555 1_555
N3_2 C18_2 1_555 1_555
N4_2 Eu2 1_555 1_555
N5_2 C20_2 1_555 1_555
O9 C9_2 1_555 1_555
O3_2 Eu2 1_555 1_555
O4_2 Eu2 1_555 1_555
O5_2 C9_2 1_555 1_555
Eu5_2 O5_2 1_555 1_555
O7_2 Eu2 1_555 1_555
O8_2 Eu2 1_555 1_555
O10_2 Eu2 1_555 1_555
O11_2 Eu2 1_555 1_555
C1_2 O3_2 1_555 1_555
C1_2 O4_2 1_555 1_555
C6_2 C7_2 1_555 1_555
C14_2 C15_2 1_555 1_555
C14_2 N1_2 1_555 1_555
C19_2 N2_2 1_555 1_555
C19_2 N3_2 1_555 1_555
C20_2 N4_2 1_555 1_555
C21_2 N5_2 1_555 1_555
C22_2 N4_2 1_555 1_555
N3_2 H15_2 1_555 1_555
N5_2 H16_2 1_555 1_555
H2_3 C4_3 1_555 1_555
C5_3 C4_3 1_555 1_555
C6_3 C5_3 1_555 1_555
H3_3 C6_3 1_555 1_555
C8_3 C5_3 1_555 1_555
H5_3 C8_3 1_555 1_555
C9_3 C10_3 1_555 1_555
C10_3 C11_3 1_555 1_555
C11_3 H6_3 1_555 1_555
C12_3 C11_3 1_555 1_555
C13_3 C12_3 1_555 1_555
H7_3 C13_3 1_555 1_555
C14_3 C13_3 1_555 1_555
C15_3 C10_3 1_555 1_555
H8_3 C15_3 1_555 1_555
C16_3 C12_3 1_555 1_555
N1_3 C8_3 1_555 1_555
O7 C16_3 1_555 1_555
O2_2 C9_3 1_555 1_555
O5_3 C9_3 1_555 1_555
O11 C16_3 1_555 1_555
Eu3_2 O2_2 1_555 1_555
Eu5_2 O7 1_555 1_555
Eu4_2 O5_3 1_555 1_555
C14_3 C15_3 1_555 1_555
C14_3 N1_3 1_555 1_555
Eu3 N2_3 1_555 1_555
C19_3 H11_3 1_555 1_555
C20_3 H12_3 1_555 1_555
C21_3 H13_3 1_555 1_555
C22_3 C21_3 1_555 1_555
H14_3 C22_3 1_555 1_555
N4_3 Eu3 1_555 1_555
N5_3 C20_3 1_555 1_555
O4_3 Eu3 1_555 1_555
O8_3 Eu3 1_555 1_555
O10_3 Eu3 1_555 1_555
C1_3 O4_3 1_555 1_555
C19_3 N2_3 1_555 1_555
C20_3 N4_3 1_555 1_555
C21_3 N5_3 1_555 1_555
C22_3 N4_3 1_555 1_555
N5_3 H16_3 1_555 1_555
C2_3 C3_3 1_555 1_555
C3_3 H1_3 1_555 1_555
C7_3 C2_3 1_555 1_555
H4_3 C7_3 1_555 1_555
Eu3_2 N2_4 1_555 1_555
C1_4 C2_4 1_555 1_555
C2_4 C3_4 1_555 1_555
C3_4 H1_4 1_555 1_555
C7_4 C2_4 1_555 1_555
H4_4 C7_4 1_555 1_555
C19_4 H11_4 1_555 1_555
C20_4 H12_4 1_555 1_555
C21_4 H13_4 1_555 1_555
C22_4 C21_4 1_555 1_555
H14_4 C22_4 1_555 1_555
N4_4 Eu3_2 1_555 1_555
N5_4 C20_4 1_555 1_555
O3_4 Eu3_2 1_555 1_555
O4_4 Eu3_2 1_555 1_555
O8_4 Eu3_2 1_555 1_555
O10_4 Eu3_2 1_555 1_555
C1_4 O3_4 1_555 1_555
C1_4 O4_4 1_555 1_555
C19_4 N2_4 1_555 1_555
C20_4 N4_4 1_555 1_555
C21_4 N5_4 1_555 1_555
C22_4 N4_4 1_555 1_555
N5_4 H16_4 1_555 1_555
H2_4 C4_4 1_555 1_555
C5_4 C4_4 1_555 1_555
C6_4 C5_4 1_555 1_555
H3_4 C6_4 1_555 1_555
C8_4 C5_4 1_555 1_555
H5_4 C8_4 1_555 1_555
C9_4 C10_4 1_555 1_555
C10_4 C11_4 1_555 1_555
C11_4 H6_4 1_555 1_555
C12_4 C11_4 1_555 1_555
C13_4 C12_4 1_555 1_555
H7_4 C13_4 1_555 1_555
C14_4 C13_4 1_555 1_555
C15_4 C10_4 1_555 1_555
H8_4 C15_4 1_555 1_555
C16_4 C12_4 1_555 1_555
N1_4 C8_4 1_555 1_555
O7_2 C16_4 1_555 1_555
O9_2 C9_4 1_555 1_555
O5_4 C9_4 1_555 1_555
O11_2 C16_4 1_555 1_555
Eu5 O7_2 1_555 1_555
Eu4 O5_4 1_555 1_555
C14_4 C15_4 1_555 1_555
C14_4 N1_4 1_555 1_555
C2_5 C3_5 1_555 1_555
C3_5 H1_5 1_555 1_555
C4_5 C3_5 1_555 1_555
H2_5 C4_5 1_555 1_555
C5_5 C4_5 1_555 1_555
C6_5 C5_5 1_555 1_555
H3_5 C6_5 1_555 1_555
C7_5 C2_5 1_555 1_555
H4_5 C7_5 1_555 1_555
C8_5 C5_5 1_555 1_555
H5_5 C8_5 1_555 1_555
C9_5 C10_5 1_555 1_555
C10_5 C11_5 1_555 1_555
C11_5 H6_5 1_555 1_555
C14_5 C13_5 1_555 1_555
C15_5 C10_5 1_555 1_555
H8_5 C15_5 1_555 1_555
N1_5 C8_5 1_555 1_555
O2_3 C9_5 1_555 1_555
O10_4 C9_5 1_555 1_555
Eu4_2 O2_3 1_555 1_555
C6_5 C7_5 1_555 1_555
C14_5 C15_5 1_555 1_555
C14_5 N1_5 1_555 1_555
Eu4 N2_5 1_555 1_555
C17_3 H9_3 1_555 1_555
C18_3 C17_3 1_555 1_555
H10_3 C18_3 1_555 1_555
C19_5 H11_5 1_555 1_555
C20_5 H12_5 1_555 1_555
C21_5 H13_5 1_555 1_555
C22_5 C21_5 1_555 1_555
H14_5 C22_5 1_555 1_555
N2_5 C17_3 1_555 1_555
N3_3 C18_3 1_555 1_555
N4_5 Eu4 1_555 1_555
N5_5 C20_5 1_555 1_555
O4_5 Eu4 1_555 1_555
C1_5 O4_5 1_555 1_555
C19_5 N2_5 1_555 1_555
C19_5 N3_3 1_555 1_555
C20_5 N4_5 1_555 1_555
C21_5 N5_5 1_555 1_555
C22_5 N4_5 1_555 1_555
N3_3 H15_3 1_555 1_555
N5_5 H16_5 1_555 1_555
C16_5 C12_5 1_555 1_555
O8 C16_5 1_555 1_555
O6_3 C16_5 1_555 1_555
Eu4_2 N2_6 1_555 1_555
C1_6 C2_6 1_555 1_555
C2_6 C3_6 1_555 1_555
C3_6 H1_6 1_555 1_555
C4_6 C3_6 1_555 1_555
H2_6 C4_6 1_555 1_555
C5_6 C4_6 1_555 1_555
C6_6 C5_6 1_555 1_555
H3_6 C6_6 1_555 1_555
C7_6 C2_6 1_555 1_555
H4_6 C7_6 1_555 1_555
C8_6 C5_6 1_555 1_555
H5_6 C8_6 1_555 1_555
C9_6 C10_6 1_555 1_555
C10_6 C11_6 1_555 1_555
C11_6 H6_6 1_555 1_555
C14_6 C13_6 1_555 1_555
C15_6 C10_6 1_555 1_555
H8_6 C15_6 1_555 1_555
C17_4 H9_4 1_555 1_555
C18_4 C17_4 1_555 1_555
H10_4 C18_4 1_555 1_555
C19_6 H11_6 1_555 1_555
C20_6 H12_6 1_555 1_555
C21_6 H13_6 1_555 1_555
C22_6 C21_6 1_555 1_555
H14_6 C22_6 1_555 1_555
N1_6 C8_6 1_555 1_555
N2_6 C17_4 1_555 1_555
N3_4 C18_4 1_555 1_555
N4_6 Eu4_2 1_555 1_555
N5_6 C20_6 1_555 1_555
O9_3 C9_6 1_555 1_555
O3_6 Eu4_2 1_555 1_555
O4_6 Eu4_2 1_555 1_555
O10_3 C9_6 1_555 1_555
O8_4 Eu4_2 1_555 1_555
O11_4 Eu4_2 1_555 1_555
C1_6 O3_6 1_555 1_555
C1_6 O4_6 1_555 1_555
C6_6 C7_6 1_555 1_555
C14_6 C15_6 1_555 1_555
C14_6 N1_6 1_555 1_555
C19_6 N2_6 1_555 1_555
C19_6 N3_4 1_555 1_555
C20_6 N4_6 1_555 1_555
C21_6 N5_6 1_555 1_555
C22_6 N4_6 1_555 1_555
N3_4 H15_4 1_555 1_555
N5_6 H16_6 1_555 1_555
C16_6 C12_6 1_555 1_555
O8_2 C16_6 1_555 1_555
O6_4 C16_6 1_555 1_555
Eu5 O8_2 1_555 1_555
O6_4 Eu5 1_555 1_555
C2_7 C3_7 1_555 1_555
C3_7 H1_7 1_555 1_555
C7_7 C2_7 1_555 1_555
H4_7 C7_7 1_555 1_555
Eu5_2 N2_7 1_555 1_555
C19_7 H11_7 1_555 1_555
C20_7 H12_7 1_555 1_555
C21_7 H13_7 1_555 1_555
C22_7 C21_7 1_555 1_555
H14_7 C22_7 1_555 1_555
N4_7 Eu5_2 1_555 1_555
N5_7 C20_7 1_555 1_555
O4_7 Eu5_2 1_555 1_555
C1_7 O4_7 1_555 1_555
C19_7 N2_7 1_555 1_555
C20_7 N4_7 1_555 1_555
C21_7 N5_7 1_555 1_555
C22_7 N4_7 1_555 1_555
N5_7 H16_7 1_555 1_555
H2_7 C4_7 1_555 1_555
C5_7 C4_7 1_555 1_555
C6_7 C5_7 1_555 1_555
H3_7 C6_7 1_555 1_555
C8_7 C5_7 1_555 1_555
H5_7 C8_7 1_555 1_555
C9_7 C10_7 1_555 1_555
C10_7 C11_7 1_555 1_555
C11_7 H6_7 1_555 1_555
C12_7 C11_7 1_555 1_555
C13_7 C12_7 1_555 1_555
H7_7 C13_7 1_555 1_555
C14_7 C13_7 1_555 1_555
C15_7 C10_7 1_555 1_555
H8_7 C15_7 1_555 1_555
C16_7 C12_7 1_555 1_555
N1_7 C8_7 1_555 1_555
O8_3 C16_7 1_555 1_555
O2_4 C9_7 1_555 1_555
O10_2 C9_7 1_555 1_555
O11_3 C16_7 1_555 1_555
Eu5 O2_4 1_555 1_555
C14_7 C15_7 1_555 1_555
C14_7 N1_7 1_555 1_555
H2_8 C4_8 1_555 1_555
C5_8 C4_8 1_555 1_555
C6_8 C5_8 1_555 1_555
H3_8 C6_8 1_555 1_555
C8_8 C5_8 1_555 1_555
H5_8 C8_8 1_555 1_555
C9_8 C10_8 1_555 1_555
C10_8 C11_8 1_555 1_555
C11_8 H6_8 1_555 1_555
C12_8 C11_8 1_555 1_555
C13_8 C12_8 1_555 1_555
H7_8 C13_8 1_555 1_555
C14_8 C13_8 1_555 1_555
C15_8 C10_8 1_555 1_555
H8_8 C15_8 1_555 1_555
C16_8 C12_8 1_555 1_555
N1_8 C8_8 1_555 1_555
O8_4 C16_8 1_555 1_555
O9_4 C9_8 1_555 1_555
O10 C9_8 1_555 1_555
O11_4 C16_8 1_555 1_555
C14_8 C15_8 1_555 1_555
C14_8 N1_8 1_555 1_555
Eu5 N2_8 1_555 1_555
C1_8 C2_8 1_555 1_555
C2_8 C3_8 1_555 1_555
C3_8 H1_8 1_555 1_555
C7_8 C2_8 1_555 1_555
H4_8 C7_8 1_555 1_555
C19_8 H11_8 1_555 1_555
C20_8 H12_8 1_555 1_555
C21_8 H13_8 1_555 1_555
C22_8 C21_8 1_555 1_555
H14_8 C22_8 1_555 1_555
N4_8 Eu5 1_555 1_555
N5_8 C20_8 1_555 1_555
O3_8 Eu5 1_555 1_555
O4_8 Eu5 1_555 1_555
C1_8 O3_8 1_555 1_555
C1_8 O4_8 1_555 1_555
C19_8 N2_8 1_555 1_555
C20_8 N4_8 1_555 1_555
C21_8 N5_8 1_555 1_555
C22_8 N4_8 1_555 1_555
N5_8 H16_8 1_555 1_555
C17_5 H9_5 1_555 1_555
C18_5 C17_5 1_555 1_555
H10_5 C18_5 1_555 1_555
N3_5 C18_5 1_555 1_555
N3_5 H15_5 1_555 1_555
C17_6 H9_6 1_555 1_555
C18_6 C17_6 1_555 1_555
H10_6 C18_6 1_555 1_555
N3_6 C18_6 1_555 1_555
N3_6 H15_6 1_555 1_555
C17_7 H9_7 1_555 1_555
C18_7 C17_7 1_555 1_555
H10_7 C18_7 1_555 1_555
N3_7 C18_7 1_555 1_555
N3_7 H15_7 1_555 1_555
C17_8 H9_8 1_555 1_555
C18_8 C17_8 1_555 1_555
H10_8 C18_8 1_555 1_555
N3_8 C18_8 1_555 1_555
N3_8 H15_8 1_555 1_555

#END
