
###############################################################################
#
# This file contains modified crystal structure data generated from the
# MOF subset of the Cambridge Structural Database (CSD) v543 
# hosted by the Cambridge Crystallographic Data Centre (CCDC).
#
# This work is licensed under the Creative Commons
# Attribution-NonCommercial-ShareAlike 4.0 International License.
# To view a copy of this license, visit
# http://creativecommons.org/licenses/by-nc-sa/4.0/
# or send a letter to
# Creative Commons, PO Box 1866, Mountain View, CA 94042, USA.
#
# CIF created using the CSD Python API on 29 September 2022
# The structure has been converted into the P1 space group
# The structure has a 3D framework
# The original CSD entry CUWZIF is in the triclinic crystal system
# The framework has been calculated to contain at least 10.0% void space
# The void calculation uses a probe of radius 1.32A, grid spacing 0.4
# H atom positions have been added when not included in the experimental data
#
###############################################################################

data_CUWZIF
_chemical_formula_moiety         '(C84 H60 Eu4 N8 O22)n'
_symmetry_cell_setting           triclinic
_symmetry_space_group_name_H-M   'P 1'
_symmetry_Int_Tables_number      1
_space_group_name_Hall           'P 1'
loop_
_symmetry_equiv_pos_site_id
_symmetry_equiv_pos_as_xyz
1 x,y,z
_cell_length_a                   13.6903(4)
_cell_length_b                   14.7432(5)
_cell_length_c                   15.6518(7)
_cell_angle_alpha                95.222(3)
_cell_angle_beta                 112.945(4)
_cell_angle_gamma                90.244(3)
_cell_volume                     2894.39
loop_
_atom_site_label
_atom_site_type_symbol
_atom_site_fract_x
_atom_site_fract_y
_atom_site_fract_z
Eu3 Eu 0.50368(2) 0.01880(2) 0.13457(2)
H5 H 0.2333 0.7669 0.0178
O3 O 0.3585(3) 0.9081(3) 0.0595(3)
O6 O 0.1192(3) 0.6395(3) 0.0273(3)
Eu8 Eu 0.11000(2) 0.52991(2) 0.12900(2)
C9 C 0.3373(5) 0.8933(4) 0.9745(5)
C10 C 0.2374(5) 0.8376(4) 0.9142(5)
C11 C 0.1972(5) 0.7751(4) 0.9551(5)
C12 C 0.1039(5) 0.7253(4) 0.9030(4)
C13 C 0.0474(5) 0.7415(4) 0.8106(5)
C14 C 0.0857(5) 0.8041(4) 0.7686(5)
C15 C 0.1835(5) 0.8497(4) 0.8212(5)
H7 H 0.2127 0.8887 0.7931
C16 C 0.0622(5) 0.6550(5) 0.9436(5)
H15 H 0.0419 0.6176 0.5154
H16 H 0.0449 0.5631 0.6483
N1 N 0.0295(4) 0.8316(4) 0.6770(4)
O4 O 0.3907(3) 0.9271(3) 0.9349(4)
Eu5 Eu 0.49632(2) 0.98120(2) 0.86543(2)
O21 O 0.0708(3) 0.4460(3) 0.9566(3)
C17 C 0.2975(7) 0.1153(8) 0.1896(7)
H8 H 0.3189 0.1658 0.1688
C18 C 0.2035(7) 0.1194(8) 0.2098(7)
H9 H 0.1638 0.1713 0.2018
C19 C 0.1750(8) 0.0451(9) 0.2405(8)
H10 H 0.1139 0.0454 0.2530
N2 N 0.3540(5) 0.0424(5) 0.1998(5)
O2 O 0.6899(3) 0.0069(3) 0.2588(3)
O7 O 0.5441(4) 0.1648(3) 0.2278(4)
O16 O 0.6093(3) 0.0729(3) 0.0651(4)
O22 O 0.3867(3) 0.1202(3) 0.0345(3)
H29 H 0.554786 0.155945 0.29294
H30 H 0.609822 0.192861 0.22711
C1 C 0.6536(5) 0.9578(5) 0.3018(5)
C2 C 0.7266(5) 0.9169(5) 0.3847(5)
C3 C 0.8370(5) 0.9277(5) 0.4137(5)
H1 H 0.8654 0.9584 0.3787
C4 C 0.9040(6) 0.8925(5) 0.4946(5)
H2 H 0.9771 0.9004 0.5139
C5 C 0.8630(5) 0.8458(5) 0.5469(5)
C6 C 0.7545(5) 0.8348(6) 0.5173(6)
H3 H 0.7256 0.8045 0.5521
C7 C 0.6892(6) 0.8682(6) 0.4367(6)
H4 H 0.6163 0.8574 0.4165
C8 C 0.9309(6) 0.8140(5) 0.6376(6)
H6 H 0.9829 0.7100 0.7765
C20 C 0.2336(7) 0.9704(8) 0.2535(7)
H11 H 0.2156 0.9199 0.2767
C21 C 0.3219(7) 0.9720(7) 0.2307(7)
H12 H 0.3614 0.9200 0.2375
C22 C 0.8885(5) 0.5207(4) 0.6997(5)
C23 C 0.8866(5) 0.5599(5) 0.6148(5)
C24 C 0.7917(6) 0.5812(6) 0.5456(6)
H13 H 0.7289 0.5755 0.5548
C25 C 0.7890(5) 0.6105(6) 0.4636(6)
H14 H 0.7243 0.6221 0.4171
C26 C 0.8822(5) 0.6230(5) 0.4504(5)
C27 C 0.9784(6) 0.6067(5) 0.5221(5)
C28 C 0.9802(6) 0.5749(5) 0.6019(5)
C29 C 0.8784(6) 0.6517(5) 0.3610(5)
C30 C 0.8446(5) 0.5958(4) 0.0058(5)
C31 C 0.8065(4) 0.6584(4) 0.0672(5)
C32 C 0.8335(5) 0.6438(4) 0.1602(5)
H17 H 0.8841 0.6019 0.1877
C33 C 0.7844(5) 0.6924(5) 0.2116(5)
C34 C 0.7148(5) 0.7587(4) 0.1714(5)
H18 H 0.6814 0.7907 0.2056
C35 C 0.6938(5) 0.7784(4) 0.0805(5)
C36 C 0.7388(5) 0.7261(4) 0.0285(5)
C37 C 0.6217(5) 0.8548(5) 0.0424(5)
N3 N 0.7931(4) 0.6720(4) 0.3006(4)
O1 O 0.5547(4) 0.9414(3) 0.2752(3)
O5 O 0.9752(3) 0.6155(3) 0.8941(3)
O8 O 0.9709(3) 0.4884(3) 0.7527(3)
O9 O 0.8033(3) 0.5213(3) 0.7159(3)
O10 O 0.9292(3) 0.5540(3) 0.0434(3)
O12 O 0.5763(3) 0.8880(3) 0.0936(3)
H25 H 0.894(5) 0.772(4) 0.664(5)
H26 H 0.952(3) 0.661(5) 0.362(5)
Eu6 Eu 0.89000(2) 0.47009(2) 0.87100(2)
H19 H 0.7233 0.7367 0.9670
C38 C 0.6587(5) 0.3290(5) 0.8161(5)
H20 H 0.7118 0.2872 0.8346
C39 C 0.5552(5) 0.2998(6) 0.7950(5)
H21 H 0.5390 0.2399 0.8006
C40 C 0.4759(6) 0.3619(6) 0.7655(6)
H22 H 0.4052 0.3443 0.7498
C41 C 0.5045(6) 0.4500(6) 0.7601(6)
H23 H 0.4536 0.4937 0.7415
C42 C 0.6104(5) 0.4722(5) 0.7829(5)
H24 H 0.6291 0.5316 0.7781
N4 N 0.6856(4) 0.4143(4) 0.8108(4)
O11 O 0.7888(3) 0.5840(3) 0.9217(3)
O13 O 0.6133(3) 0.8798(3) 0.9655(3)
O14 O 0.8721(4) 0.3247(3) 0.7813(3)
O18 O 0.8808(3) 0.3605(3) 0.9727(3)
H27 H 0.820292 0.328469 0.716435
H28 H 0.942075 0.308313 0.780585
H19_2 H 0.2767 0.2633 0.0330
C38_2 C 0.3413(5) 0.6710(5) 0.1839(5)
H20_2 H 0.2882 0.7128 0.1654
C39_2 C 0.4448(5) 0.7002(6) 0.2050(5)
H21_2 H 0.4610 0.7601 0.1994
C40_2 C 0.5241(6) 0.6381(6) 0.2345(6)
H22_2 H 0.5948 0.6557 0.2502
C41_2 C 0.4955(6) 0.5500(6) 0.2399(6)
H23_2 H 0.5464 0.5063 0.2585
C42_2 C 0.3896(5) 0.5278(5) 0.2171(5)
H24_2 H 0.3709 0.4684 0.2219
N4_2 N 0.3144(4) 0.5857(4) 0.1892(4)
O11_2 O 0.2112(3) 0.4160(3) 0.0783(3)
O14_2 O 0.1279(4) 0.6753(3) 0.2187(3)
O17 O 0.0248(3) 0.3845(3) 0.1059(3)
O19 O 0.0291(3) 0.5116(3) 0.2473(3)
O20 O 0.1967(3) 0.4787(3) 0.2841(3)
H27_2 H 0.179708 0.671531 0.283565
H28_2 H 0.0579251 0.691687 0.219415
C1_2 C 0.3464(5) 0.0422(5) 0.6982(5)
C2_2 C 0.2734(5) 0.0831(5) 0.6153(5)
C3_2 C 0.1630(5) 0.0723(5) 0.5863(5)
H1_2 H 0.1346 0.0416 0.6213
C4_2 C 0.0960(6) 0.1075(5) 0.5054(5)
H2_2 H 0.0229 0.0996 0.4861
C5_2 C 0.1370(5) 0.1542(5) 0.4531(5)
C6_2 C 0.2455(5) 0.1652(6) 0.4827(6)
H3_2 H 0.2744 0.1955 0.4479
C7_2 C 0.3108(6) 0.1318(6) 0.5633(6)
H4_2 H 0.3837 0.1426 0.5835
C8_2 C 0.0691(6) 0.1860(5) 0.3624(6)
H6_2 H 0.0171 0.2900 0.2235
C20_2 C 0.7664(7) 0.0296(8) 0.7465(7)
H11_2 H 0.7844 0.0801 0.7233
C21_2 C 0.6781(7) 0.0280(7) 0.7693(7)
H12_2 H 0.6386 0.0800 0.7625
C22_2 C 0.1115(5) 0.4793(4) 0.3003(5)
C23_2 C 0.1134(5) 0.4401(5) 0.3852(5)
C24_2 C 0.2083(6) 0.4188(6) 0.4544(6)
H13_2 H 0.2711 0.4245 0.4452
C25_2 C 0.2110(5) 0.3895(6) 0.5364(6)
H14_2 H 0.2757 0.3779 0.5829
C26_2 C 0.1178(5) 0.3770(5) 0.5496(5)
C27_2 C 0.0216(6) 0.3933(5) 0.4779(5)
C28_2 C 0.0198(6) 0.4251(5) 0.3981(5)
C29_2 C 0.1216(6) 0.3483(5) 0.6390(5)
C30_2 C 0.1554(5) 0.4042(4) 0.9942(5)
C31_2 C 0.1935(4) 0.3416(4) 0.9328(5)
C32_2 C 0.1665(5) 0.3562(4) 0.8398(5)
H17_2 H 0.1159 0.3981 0.8123
C33_2 C 0.2156(5) 0.3076(5) 0.7884(5)
C34_2 C 0.2852(5) 0.2413(4) 0.8286(5)
H18_2 H 0.3186 0.2093 0.7944
C35_2 C 0.3062(5) 0.2216(4) 0.9195(5)
C36_2 C 0.2612(5) 0.2739(4) 0.9715(5)
C37_2 C 0.3783(5) 0.1452(5) 0.9576(5)
N3_2 N 0.2069(4) 0.3280(4) 0.6994(4)
O1_2 O 0.4453(4) 0.0586(3) 0.7248(3)
O12_2 O 0.4237(3) 0.1120(3) 0.9064(3)
H25_2 H 0.106(5) 0.228(4) 0.336(5)
H26_2 H 0.048(3) 0.339(5) 0.638(5)
O15 O 0.6415(3) 0.0919(3) 0.9405(3)
C17_2 C 0.7025(7) 0.8847(8) 0.8104(7)
H8_2 H 0.6811 0.8342 0.8312
C18_2 C 0.7965(7) 0.8806(8) 0.7902(7)
H9_2 H 0.8362 0.8287 0.7982
C19_2 C 0.8250(8) 0.9549(9) 0.7595(8)
H10_2 H 0.8861 0.9546 0.7470
N2_2 N 0.6460(5) 0.9576(5) 0.8002(5)
O2_2 O 0.3101(3) 0.9931(3) 0.7412(3)
O7_2 O 0.4559(4) 0.8352(3) 0.7722(4)
H29_2 H 0.445214 0.844055 0.70706
H30_2 H 0.390178 0.807139 0.77289
C9_2 C 0.6627(5) 0.1067(4) 0.0255(5)
C10_2 C 0.7626(5) 0.1624(4) 0.0858(5)
C11_2 C 0.8028(5) 0.2249(4) 0.0449(5)
C12_2 C 0.8961(5) 0.2747(4) 0.0970(4)
C13_2 C 0.9526(5) 0.2585(4) 0.1894(5)
C14_2 C 0.9143(5) 0.1959(4) 0.2314(5)
C15_2 C 0.8165(5) 0.1503(4) 0.1788(5)
H7_2 H 0.7873 0.1113 0.2069
C16_2 C 0.9378(5) 0.3450(5) 0.0564(5)
H15_2 H 0.9581 0.3824 0.4846
H16_2 H 0.9551 0.4369 0.3517
N1_2 N 0.9705(4) 0.1684(4) 0.3230(4)
H5_2 H 0.7667 0.2331 0.9822
loop_
_geom_bond_atom_site_label_1
_geom_bond_atom_site_label_2
_geom_bond_site_symmetry_1
_geom_bond_site_symmetry_2
Eu8 O6 1_555 1_555
C9 C10 1_555 1_555
C10 C11 1_555 1_555
C12 C11 1_555 1_555
C13 C12 1_555 1_555
C14 C13 1_555 1_555
C15 C10 1_555 1_555
H7 C15 1_555 1_555
C16 C12 1_555 1_555
O4 C9 1_555 1_555
Eu5 O4 1_555 1_555
C14 C15 1_555 1_555
C14 N1 1_555 1_555
C17 H8 1_555 1_555
C18 C17 1_555 1_555
H9 C18 1_555 1_555
C19 C18 1_555 1_555
H10 C19 1_555 1_555
N2 C17 1_555 1_555
O7 Eu3 1_555 1_555
Eu3 N2 1_555 1_555
O16 Eu3 1_555 1_555
O22 Eu3 1_555 1_555
O2 Eu3 1_555 1_555
O7 H29 1_555 1_555
O7 H30 1_555 1_555
C1 C2 1_555 1_555
C2 C3 1_555 1_555
C3 H1 1_555 1_555
C4 C3 1_555 1_555
H2 C4 1_555 1_555
C5 C4 1_555 1_555
C6 C5 1_555 1_555
H3 C6 1_555 1_555
C7 C2 1_555 1_555
H4 C7 1_555 1_555
C8 C5 1_555 1_555
H11 C20 1_555 1_555
C21 C20 1_555 1_555
H12 C21 1_555 1_555
C22 C23 1_555 1_555
C23 C24 1_555 1_555
C24 H13 1_555 1_555
C25 C24 1_555 1_555
H14 C25 1_555 1_555
C26 C25 1_555 1_555
C27 C26 1_555 1_555
C28 C23 1_555 1_555
C29 C26 1_555 1_555
C30 C31 1_555 1_555
C31 C32 1_555 1_555
C32 H17 1_555 1_555
C33 C32 1_555 1_555
C34 C33 1_555 1_555
H18 C34 1_555 1_555
C35 C34 1_555 1_555
C36 C31 1_555 1_555
C37 C35 1_555 1_555
N3 C29 1_555 1_555
O1 C1 1_555 1_555
O8 C22 1_555 1_555
O9 C22 1_555 1_555
O10 C30 1_555 1_555
O12 C37 1_555 1_555
H25 C8 1_555 1_555
H26 C29 1_555 1_555
Eu6 O5 1_555 1_555
C6 C7 1_555 1_555
C27 C28 1_555 1_555
C33 N3 1_555 1_555
C35 C36 1_555 1_555
O8 Eu6 1_555 1_555
O9 Eu6 1_555 1_555
C38 H20 1_555 1_555
C39 C38 1_555 1_555
H21 C39 1_555 1_555
C40 C39 1_555 1_555
H22 C40 1_555 1_555
C41 C40 1_555 1_555
H23 C41 1_555 1_555
C42 C41 1_555 1_555
H24 C42 1_555 1_555
N4 C38 1_555 1_555
O14 Eu6 1_555 1_555
Eu6 N4 1_555 1_555
O18 Eu6 1_555 1_555
Eu5 O13 1_555 1_555
C42 N4 1_555 1_555
O11 Eu6 1_555 1_555
O14 H27 1_555 1_555
O14 H28 1_555 1_555
C38_2 H20_2 1_555 1_555
C39_2 C38_2 1_555 1_555
H21_2 C39_2 1_555 1_555
C40_2 C39_2 1_555 1_555
H22_2 C40_2 1_555 1_555
C41_2 C40_2 1_555 1_555
H23_2 C41_2 1_555 1_555
C42_2 C41_2 1_555 1_555
H24_2 C42_2 1_555 1_555
N4_2 C38_2 1_555 1_555
O14_2 Eu8 1_555 1_555
Eu8 N4_2 1_555 1_555
O17 Eu8 1_555 1_555
O19 Eu8 1_555 1_555
O20 Eu8 1_555 1_555
C42_2 N4_2 1_555 1_555
O11_2 Eu8 1_555 1_555
O14_2 H27_2 1_555 1_555
O14_2 H28_2 1_555 1_555
C1_2 C2_2 1_555 1_555
C2_2 C3_2 1_555 1_555
C3_2 H1_2 1_555 1_555
C4_2 C3_2 1_555 1_555
H2_2 C4_2 1_555 1_555
C5_2 C4_2 1_555 1_555
C6_2 C5_2 1_555 1_555
H3_2 C6_2 1_555 1_555
C7_2 C2_2 1_555 1_555
H4_2 C7_2 1_555 1_555
C8_2 C5_2 1_555 1_555
H11_2 C20_2 1_555 1_555
C21_2 C20_2 1_555 1_555
H12_2 C21_2 1_555 1_555
C22_2 C23_2 1_555 1_555
C23_2 C24_2 1_555 1_555
C24_2 H13_2 1_555 1_555
C25_2 C24_2 1_555 1_555
H14_2 C25_2 1_555 1_555
C26_2 C25_2 1_555 1_555
C27_2 C26_2 1_555 1_555
C28_2 C23_2 1_555 1_555
C29_2 C26_2 1_555 1_555
C30_2 C31_2 1_555 1_555
C31_2 C32_2 1_555 1_555
C32_2 H17_2 1_555 1_555
C33_2 C32_2 1_555 1_555
C34_2 C33_2 1_555 1_555
H18_2 C34_2 1_555 1_555
C35_2 C34_2 1_555 1_555
C36_2 C31_2 1_555 1_555
C37_2 C35_2 1_555 1_555
N3_2 C29_2 1_555 1_555
O1_2 C1_2 1_555 1_555
O19 C22_2 1_555 1_555
O20 C22_2 1_555 1_555
O21 C30_2 1_555 1_555
O12_2 C37_2 1_555 1_555
H25_2 C8_2 1_555 1_555
H26_2 C29_2 1_555 1_555
C6_2 C7_2 1_555 1_555
C27_2 C28_2 1_555 1_555
C33_2 N3_2 1_555 1_555
C35_2 C36_2 1_555 1_555
C17_2 H8_2 1_555 1_555
C18_2 C17_2 1_555 1_555
H9_2 C18_2 1_555 1_555
C19_2 C18_2 1_555 1_555
H10_2 C19_2 1_555 1_555
N2_2 C17_2 1_555 1_555
O7_2 Eu5 1_555 1_555
Eu5 N2_2 1_555 1_555
O2_2 Eu5 1_555 1_555
O7_2 H29_2 1_555 1_555
O7_2 H30_2 1_555 1_555
C9_2 C10_2 1_555 1_555
C10_2 C11_2 1_555 1_555
C12_2 C11_2 1_555 1_555
C13_2 C12_2 1_555 1_555
C14_2 C13_2 1_555 1_555
C15_2 C10_2 1_555 1_555
H7_2 C15_2 1_555 1_555
C16_2 C12_2 1_555 1_555
O16 C9_2 1_555 1_555
C14_2 C15_2 1_555 1_555
C14_2 N1_2 1_555 1_555

#END
