
###############################################################################
#
# This file contains modified crystal structure data generated from the
# MOF subset of the Cambridge Structural Database (CSD) v543 
# hosted by the Cambridge Crystallographic Data Centre (CCDC).
#
# This work is licensed under the Creative Commons
# Attribution-NonCommercial-ShareAlike 4.0 International License.
# To view a copy of this license, visit
# http://creativecommons.org/licenses/by-nc-sa/4.0/
# or send a letter to
# Creative Commons, PO Box 1866, Mountain View, CA 94042, USA.
#
# CIF created using the CSD Python API on 29 September 2022
# The structure has been converted into the P1 space group
# The structure has a 3D framework
# The original CSD entry CUWZEB is in the monoclinic crystal system
# The framework has been calculated to contain at least 10.0% void space
# The void calculation uses a probe of radius 1.32A, grid spacing 0.4
# H atom positions have been added when not included in the experimental data
#
###############################################################################

data_CUWZEB
_chemical_formula_moiety         '(C168 H112 Eu8 N24 O52)n'
_symmetry_cell_setting           triclinic
_symmetry_space_group_name_H-M   'P 1'
_symmetry_Int_Tables_number      1
_space_group_name_Hall           'P 1'
loop_
_symmetry_equiv_pos_site_id
_symmetry_equiv_pos_as_xyz
1 x,y,z
_cell_length_a                   28.6032(8)
_cell_length_b                   14.3668(7)
_cell_length_c                   12.8150(5)
_cell_angle_alpha                90
_cell_angle_beta                 103.057(3)
_cell_angle_gamma                90
_cell_volume                     5130
loop_
_atom_site_label
_atom_site_type_symbol
_atom_site_fract_x
_atom_site_fract_y
_atom_site_fract_z
H10 H 0.3790 0.0930 0.0200
H11 H 0.4319 0.0784 0.0084
O1 O 0.60968(14) 0.1692(3) 0.0095(4)
O3 O 0.20672(12) 0.5652(3) 0.0346(3)
O4 O 0.27073(12) 0.6536(3) 0.0396(3)
O5 O 0.30085(13) 0.2522(3) 0.3712(3)
O6 O 0.22879(14) 0.3205(3) 0.3186(3)
O7 O 0.3635(3) 0.2775(5) 0.7282(6)
N1 N 0.40545(18) 0.4142(4) 0.1502(5)
N2 N 0.3590(2) 0.0858(6) 0.6809(6)
C1 C 0.5959(2) 0.2528(5) 0.0059(5)
C2 C 0.5521(2) 0.2756(5) 0.0488(6)
C3 C 0.5255(3) 0.2058(5) 0.0797(9)
H1 H 0.5362 0.1446 0.0800
C4 C 0.4836(3) 0.2243(5) 0.1100(9)
H2 H 0.4654 0.1759 0.1283
C5 C 0.4683(2) 0.3162(6) 0.1133(6)
C6 C 0.4968(3) 0.3885(6) 0.0879(6)
H3 H 0.4873 0.4501 0.0916
C7 C 0.5383(2) 0.3684(6) 0.0578(7)
H4 H 0.5576 0.4164 0.0432
C8 C 0.4217(2) 0.3338(5) 0.1420(6)
C9 C 0.25150(18) 0.5788(4) 0.0632(4)
C10 C 0.28256(18) 0.5045(4) 0.1233(4)
C11 C 0.32996(19) 0.4954(5) 0.1146(5)
H5 H 0.3429 0.5376 0.0740
C12 C 0.35786(19) 0.4227(4) 0.1672(6)
C13 C 0.33942(19) 0.3645(4) 0.2338(5)
H6 H 0.3588 0.3186 0.2726
C14 C 0.29245(18) 0.3736(4) 0.2436(4)
C15 C 0.26347(17) 0.4429(4) 0.1869(4)
H7 H 0.2316 0.4481 0.1913
C16 C 0.27274(19) 0.3110(4) 0.3178(5)
C17 C 0.3739(6) 0.1154(7) 0.7845(7)
C18 C 0.3827(6) 0.0552(9) 0.8691(9)
C20 C 0.3997(7) 0.0546(14) 0.9890(9)
C21 C 0.3758(7) 0.2198(7) 0.7981(10)
Eu1 Eu 0.318254(9) 0.21129(2) 0.55582(2)
H12 H 0.403(2) 0.280(3) 0.152(5)
O8 O 0.39032(14) 0.1692(3) 0.4905(4)
O9 O 0.38291(15) 0.3164(4) 0.5300(4)
O10 O 0.29328(12) 0.0652(3) 0.4654(3)
O11 O 0.22927(12) 0.1536(3) 0.4604(3)
O12 O 0.27073(12) 0.3464(3) 0.5396(3)
O13 O 0.27121(14) 0.1795(3) 0.6814(3)
Eu4 Eu 0.318254(9) 0.78871(2) 0.05582(2)
Eu5 Eu 0.181746(9) 0.28871(2) 0.44418(2)
H14 H 0.389628 0.245982 0.878936
O2 O 0.61709(15) 0.3164(4) 0.9700(4)
Eu2 Eu 0.681746(9) 0.21129(2) 0.94418(2)
Eu3 Eu 0.181746(9) 0.71129(2) 0.94418(2)
O3_2 O 0.79328(12) 0.5652(3) 0.4654(3)
O4_2 O 0.72927(12) 0.6536(3) 0.4604(3)
O5_2 O 0.69915(13) 0.2522(3) 0.1288(3)
O6_2 O 0.77121(14) 0.3205(3) 0.1814(3)
N1_2 N 0.59455(18) 0.4142(4) 0.3498(5)
C1_2 C 0.4041(2) 0.2528(5) 0.4941(5)
C2_2 C 0.4479(2) 0.2756(5) 0.4512(6)
C3_2 C 0.4745(3) 0.2058(5) 0.4203(9)
H1_2 H 0.4638 0.1446 0.4200
C4_2 C 0.5164(3) 0.2243(5) 0.3900(9)
H2_2 H 0.5346 0.1759 0.3717
C5_2 C 0.5317(2) 0.3162(6) 0.3867(6)
C6_2 C 0.5032(3) 0.3885(6) 0.4121(6)
H3_2 H 0.5127 0.4501 0.4084
C7_2 C 0.4617(2) 0.3684(6) 0.4422(7)
H4_2 H 0.4424 0.4164 0.4568
C8_2 C 0.5783(2) 0.3338(5) 0.3580(6)
C9_2 C 0.74850(18) 0.5788(4) 0.4368(4)
C10_2 C 0.71744(18) 0.5045(4) 0.3767(4)
C11_2 C 0.67004(19) 0.4954(5) 0.3854(5)
H5_2 H 0.6571 0.5376 0.4260
C12_2 C 0.64214(19) 0.4227(4) 0.3328(6)
C13_2 C 0.66058(19) 0.3645(4) 0.2662(5)
H6_2 H 0.6412 0.3186 0.2274
C14_2 C 0.70755(18) 0.3736(4) 0.2564(4)
C15_2 C 0.73653(17) 0.4429(4) 0.3131(4)
H7_2 H 0.7684 0.4481 0.3087
C16_2 C 0.72726(19) 0.3110(4) 0.1822(5)
H12_2 H 0.597(2) 0.280(3) 0.348(5)
O10_2 O 0.70672(12) 0.0652(3) 0.0346(3)
O11_2 O 0.77073(12) 0.1536(3) 0.0396(3)
Eu3_2 Eu 0.818254(9) 0.71129(2) 0.55582(2)
Eu4_2 Eu 0.681746(9) 0.78871(2) 0.44418(2)
Eu5_2 Eu 0.818254(9) 0.28871(2) 0.05582(2)
O7_2 O 0.6365(3) 0.2775(5) 0.7718(6)
N2_2 N 0.6410(2) 0.0858(6) 0.8191(6)
C17_2 C 0.6261(6) 0.1154(7) 0.7155(7)
C18_2 C 0.6173(6) 0.0552(9) 0.6309(9)
C20_2 C 0.6003(7) 0.0546(14) 0.5110(9)
H10_2 H 0.6210 0.0930 0.4800
H11_2 H 0.5681 0.0784 0.4916
C21_2 C 0.6242(7) 0.2198(7) 0.7019(10)
O12_2 O 0.72927(12) 0.3464(3) 0.9604(3)
O13_2 O 0.72879(14) 0.1795(3) 0.8186(3)
H14_2 H 0.610372 0.245982 0.621064
O1_2 O 0.10968(14) 0.6692(3) 0.0095(4)
C1_3 C 0.0959(2) 0.7528(5) 0.0059(5)
C2_3 C 0.0521(2) 0.7756(5) 0.0488(6)
C3_3 C 0.0255(3) 0.7058(5) 0.0797(9)
H1_3 H 0.0362 0.6446 0.0800
C7_3 C 0.0383(2) 0.8684(6) 0.0578(7)
H4_3 H 0.0576 0.9164 0.0432
O2_2 O 0.11709(15) 0.8164(4) 0.9700(4)
C9_3 C 0.75150(18) 0.0788(4) 0.0632(4)
C10_3 C 0.78256(18) 0.0045(4) 0.1233(4)
H5_3 H 0.8429 0.0376 0.0740
O5_3 O 0.80085(13) 0.7522(3) 0.3712(3)
O6_3 O 0.72879(14) 0.8205(3) 0.3186(3)
O7_3 O 0.8635(3) 0.7775(5) 0.7282(6)
N1_3 N 0.90545(18) 0.9142(4) 0.1502(5)
N2_3 N 0.8590(2) 0.5858(6) 0.6809(6)
N3 N 0.8683(5) 0.4719(9) 0.8239(9)
C4_3 C 0.9836(3) 0.7243(5) 0.1100(9)
H2_3 H 0.9654 0.6759 0.1283
C5_3 C 0.9683(2) 0.8162(6) 0.1133(6)
C6_3 C 0.9968(3) 0.8885(6) 0.0879(6)
H3_3 H 0.9873 0.9501 0.0916
C8_3 C 0.9217(2) 0.8338(5) 0.1420(6)
C11_3 C 0.82996(19) 0.9954(5) 0.1146(5)
C12_3 C 0.85786(19) 0.9227(4) 0.1672(6)
C13_3 C 0.83942(19) 0.8645(4) 0.2338(5)
H6_3 H 0.8588 0.8186 0.2726
C14_3 C 0.79245(18) 0.8736(4) 0.2436(4)
C15_3 C 0.76347(17) 0.9429(4) 0.1869(4)
H7_3 H 0.7316 0.9481 0.1913
C16_3 C 0.77274(19) 0.8110(4) 0.3178(5)
C17_3 C 0.8739(6) 0.6154(7) 0.7845(7)
C18_3 C 0.8827(6) 0.5552(9) 0.8691(9)
C19 C 0.8539(5) 0.4994(8) 0.7202(9)
H8 H 0.8392 0.4547 0.6712
C20_3 C 0.8997(7) 0.5546(14) 0.9890(9)
C21_3 C 0.8758(7) 0.7198(7) 0.7981(10)
H12_3 H 0.903(2) 0.780(3) 0.152(5)
O8_2 O 0.89032(14) 0.6692(3) 0.4905(4)
O9_2 O 0.88291(15) 0.8164(4) 0.5300(4)
O12_3 O 0.77073(12) 0.8464(3) 0.5396(3)
O13_3 O 0.77121(14) 0.6795(3) 0.6814(3)
H13 H 0.868266 0.407919 0.857473
H14_3 H 0.889628 0.745982 0.878936
C9_4 C 0.24850(18) 0.0788(4) 0.4368(4)
C10_4 C 0.21744(18) 0.0045(4) 0.3767(4)
H5_4 H 0.1571 0.0376 0.4260
O5_4 O 0.19915(13) 0.7522(3) 0.1288(3)
O6_4 O 0.27121(14) 0.8205(3) 0.1814(3)
N1_4 N 0.09455(18) 0.9142(4) 0.3498(5)
C4_4 C 0.0164(3) 0.7243(5) 0.3900(9)
H2_4 H 0.0346 0.6759 0.3717
C5_4 C 0.0317(2) 0.8162(6) 0.3867(6)
C6_4 C 0.0032(3) 0.8885(6) 0.4121(6)
H3_4 H 0.0127 0.9501 0.4084
C8_4 C 0.0783(2) 0.8338(5) 0.3580(6)
C11_4 C 0.17004(19) 0.9954(5) 0.3854(5)
C12_4 C 0.14214(19) 0.9227(4) 0.3328(6)
C13_4 C 0.16058(19) 0.8645(4) 0.2662(5)
H6_4 H 0.1412 0.8186 0.2274
C14_4 C 0.20755(18) 0.8736(4) 0.2564(4)
C15_4 C 0.23653(17) 0.9429(4) 0.3131(4)
H7_4 H 0.2684 0.9481 0.3087
C16_4 C 0.22726(19) 0.8110(4) 0.1822(5)
H12_4 H 0.097(2) 0.780(3) 0.348(5)
O7_4 O 0.1365(3) 0.7775(5) 0.7718(6)
N2_4 N 0.1410(2) 0.5858(6) 0.8191(6)
N3_2 N 0.1317(5) 0.4719(9) 0.6761(9)
C17_4 C 0.1261(6) 0.6154(7) 0.7155(7)
C18_4 C 0.1173(6) 0.5552(9) 0.6309(9)
C19_2 C 0.1461(5) 0.4994(8) 0.7798(9)
H8_2 H 0.1608 0.4547 0.8288
C20_4 C 0.1003(7) 0.5546(14) 0.5110(9)
H9 H 0.1009 0.4921 0.4850
H10_3 H 0.1210 0.5930 0.4800
H11_3 H 0.0681 0.5784 0.4916
C21_4 C 0.1242(7) 0.7198(7) 0.7019(10)
O12_4 O 0.22927(12) 0.8464(3) 0.9604(3)
O13_4 O 0.22879(14) 0.6795(3) 0.8186(3)
H13_2 H 0.131734 0.407919 0.642527
H14_4 H 0.110372 0.745982 0.621064
C1_4 C 0.9041(2) 0.7528(5) 0.4941(5)
C2_4 C 0.9479(2) 0.7756(5) 0.4512(6)
C3_4 C 0.9745(3) 0.7058(5) 0.4203(9)
H1_4 H 0.9638 0.6446 0.4200
C7_4 C 0.9617(2) 0.8684(6) 0.4422(7)
H4_4 H 0.9424 0.9164 0.4568
O2_3 O 0.38291(15) 0.6836(4) 0.0300(4)
O1_3 O 0.39032(14) 0.8308(3) 0.9905(4)
O3_3 O 0.79328(12) 0.4348(3) 0.9654(3)
O5_5 O 0.69915(13) 0.7478(3) 0.6288(3)
O7_5 O 0.6365(3) 0.7225(5) 0.2718(6)
N1_5 N 0.59455(18) 0.5858(4) 0.8498(5)
N2_5 N 0.6410(2) 0.9142(6) 0.3191(6)
C1_5 C 0.4041(2) 0.7472(5) 0.9941(5)
C2_5 C 0.4479(2) 0.7244(5) 0.9512(6)
C3_5 C 0.4745(3) 0.7942(5) 0.9203(9)
H1_5 H 0.4638 0.8554 0.9200
C4_5 C 0.5164(3) 0.7757(5) 0.8900(9)
H2_5 H 0.5346 0.8241 0.8717
C5_5 C 0.5317(2) 0.6838(6) 0.8867(6)
C6_5 C 0.5032(3) 0.6115(6) 0.9121(6)
H3_5 H 0.5127 0.5499 0.9084
C7_5 C 0.4617(2) 0.6316(6) 0.9422(7)
H4_5 H 0.4424 0.5836 0.9568
C8_5 C 0.5783(2) 0.6662(5) 0.8580(6)
C9_5 C 0.74850(18) 0.4212(4) 0.9368(4)
C10_5 C 0.71744(18) 0.4955(4) 0.8767(4)
C11_5 C 0.67004(19) 0.5046(5) 0.8854(5)
H5_5 H 0.6571 0.4624 0.9260
C12_5 C 0.64214(19) 0.5773(4) 0.8328(6)
C13_5 C 0.66058(19) 0.6355(4) 0.7662(5)
H6_5 H 0.6412 0.6814 0.7274
C14_5 C 0.70755(18) 0.6264(4) 0.7564(4)
C15_5 C 0.73653(17) 0.5571(4) 0.8131(4)
H7_5 H 0.7684 0.5519 0.8087
C16_5 C 0.72726(19) 0.6890(4) 0.6822(5)
C17_5 C 0.6261(6) 0.8846(7) 0.2155(7)
C18_5 C 0.6173(6) 0.9448(9) 0.1309(9)
C20_5 C 0.6003(7) 0.9454(14) 0.0110(9)
C21_5 C 0.6242(7) 0.7802(7) 0.2019(10)
H12_5 H 0.597(2) 0.720(3) 0.848(5)
O8_3 O 0.60968(14) 0.8308(3) 0.5095(4)
O9_3 O 0.61709(15) 0.6836(4) 0.4700(4)
O10_3 O 0.70672(12) 0.9348(3) 0.5346(3)
H14_5 H 0.610372 0.754018 0.121064
O7_6 O 0.3635(3) 0.7225(5) 0.2282(6)
N2_6 N 0.3590(2) 0.9142(6) 0.1809(6)
C17_6 C 0.3739(6) 0.8846(7) 0.2845(7)
C18_6 C 0.3827(6) 0.9448(9) 0.3691(9)
C20_6 C 0.3997(7) 0.9454(14) 0.4890(9)
H10_4 H 0.3790 0.9070 0.5200
H11_4 H 0.4319 0.9216 0.5084
C21_6 C 0.3758(7) 0.7802(7) 0.2981(10)
H14_6 H 0.389628 0.754018 0.378936
O3_4 O 0.20672(12) 0.4348(3) 0.5346(3)
O5_6 O 0.30085(13) 0.7478(3) 0.8712(3)
N1_6 N 0.40545(18) 0.5858(4) 0.6502(5)
C1_6 C 0.5959(2) 0.7472(5) 0.5059(5)
C2_6 C 0.5521(2) 0.7244(5) 0.5488(6)
C3_6 C 0.5255(3) 0.7942(5) 0.5797(9)
H1_6 H 0.5362 0.8554 0.5800
C4_6 C 0.4836(3) 0.7757(5) 0.6100(9)
H2_6 H 0.4654 0.8241 0.6283
C5_6 C 0.4683(2) 0.6838(6) 0.6133(6)
C6_6 C 0.4968(3) 0.6115(6) 0.5879(6)
H3_6 H 0.4873 0.5499 0.5916
C7_6 C 0.5383(2) 0.6316(6) 0.5578(7)
H4_6 H 0.5576 0.5836 0.5432
C8_6 C 0.4217(2) 0.6662(5) 0.6420(6)
C9_6 C 0.25150(18) 0.4212(4) 0.5632(4)
C10_6 C 0.28256(18) 0.4955(4) 0.6233(4)
C11_6 C 0.32996(19) 0.5046(5) 0.6146(5)
H5_6 H 0.3429 0.4624 0.5740
C12_6 C 0.35786(19) 0.5773(4) 0.6672(6)
C13_6 C 0.33942(19) 0.6355(4) 0.7338(5)
H6_6 H 0.3588 0.6814 0.7726
C14_6 C 0.29245(18) 0.6264(4) 0.7436(4)
C15_6 C 0.26347(17) 0.5571(4) 0.6869(4)
H7_6 H 0.2316 0.5519 0.6913
C16_6 C 0.27274(19) 0.6890(4) 0.8178(5)
H12_6 H 0.403(2) 0.720(3) 0.652(5)
O10_4 O 0.29328(12) 0.9348(3) 0.9654(3)
O5_7 O 0.19915(13) 0.2478(3) 0.6288(3)
O7_7 O 0.1365(3) 0.2225(5) 0.2718(6)
N1_7 N 0.09455(18) 0.0858(4) 0.8498(5)
N2_7 N 0.1410(2) 0.4142(6) 0.3191(6)
N3_3 N 0.1317(5) 0.5281(9) 0.1761(9)
C4_7 C 0.0164(3) 0.2757(5) 0.8900(9)
H2_7 H 0.0346 0.3241 0.8717
C5_7 C 0.0317(2) 0.1838(6) 0.8867(6)
C6_7 C 0.0032(3) 0.1115(6) 0.9121(6)
H3_7 H 0.0127 0.0499 0.9084
C8_7 C 0.0783(2) 0.1662(5) 0.8580(6)
C11_7 C 0.17004(19) 0.0046(5) 0.8854(5)
C12_7 C 0.14214(19) 0.0773(4) 0.8328(6)
C13_7 C 0.16058(19) 0.1355(4) 0.7662(5)
H6_7 H 0.1412 0.1814 0.7274
C14_7 C 0.20755(18) 0.1264(4) 0.7564(4)
C15_7 C 0.23653(17) 0.0571(4) 0.8131(4)
H7_7 H 0.2684 0.0519 0.8087
C16_7 C 0.22726(19) 0.1890(4) 0.6822(5)
C17_7 C 0.1261(6) 0.3846(7) 0.2155(7)
C18_7 C 0.1173(6) 0.4448(9) 0.1309(9)
C19_3 C 0.1461(5) 0.5006(8) 0.2798(9)
H8_3 H 0.1608 0.5453 0.3288
C20_7 C 0.1003(7) 0.4454(14) 0.0110(9)
C21_7 C 0.1242(7) 0.2802(7) 0.2019(10)
H12_7 H 0.097(2) 0.220(3) 0.848(5)
O8_4 O 0.10968(14) 0.3308(3) 0.5095(4)
O9_4 O 0.11709(15) 0.1836(4) 0.4700(4)
H13_3 H 0.131734 0.592081 0.142527
H14_7 H 0.110372 0.254018 0.121064
C9_7 C 0.24850(18) 0.9212(4) 0.9368(4)
C10_7 C 0.21744(18) 0.9955(4) 0.8767(4)
H5_7 H 0.1571 0.9624 0.9260
O2_4 O 0.88291(15) 0.1836(4) 0.0300(4)
O1_4 O 0.89032(14) 0.3308(3) 0.9905(4)
C1_7 C 0.9041(2) 0.2472(5) 0.9941(5)
C2_7 C 0.9479(2) 0.2244(5) 0.9512(6)
C3_7 C 0.9745(3) 0.2942(5) 0.9203(9)
H1_7 H 0.9638 0.3554 0.9200
C7_7 C 0.9617(2) 0.1316(6) 0.9422(7)
H4_7 H 0.9424 0.0836 0.9568
C1_8 C 0.0959(2) 0.2472(5) 0.5059(5)
C2_8 C 0.0521(2) 0.2244(5) 0.5488(6)
C3_8 C 0.0255(3) 0.2942(5) 0.5797(9)
H1_8 H 0.0362 0.3554 0.5800
C7_8 C 0.0383(2) 0.1316(6) 0.5578(7)
H4_8 H 0.0576 0.0836 0.5432
O7_8 O 0.8635(3) 0.2225(5) 0.2282(6)
N2_8 N 0.8590(2) 0.4142(6) 0.1809(6)
N3_4 N 0.8683(5) 0.5281(9) 0.3239(9)
C17_8 C 0.8739(6) 0.3846(7) 0.2845(7)
C18_8 C 0.8827(6) 0.4448(9) 0.3691(9)
C19_4 C 0.8539(5) 0.5006(8) 0.2202(9)
H8_4 H 0.8392 0.5453 0.1712
C20_8 C 0.8997(7) 0.4454(14) 0.4890(9)
H9_2 H 0.8991 0.5079 0.5150
H10_5 H 0.8790 0.4070 0.5200
H11_5 H 0.9319 0.4216 0.5084
C21_8 C 0.8758(7) 0.2802(7) 0.2981(10)
H13_4 H 0.868266 0.592081 0.357473
H14_8 H 0.889628 0.254018 0.378936
O5_8 O 0.80085(13) 0.2478(3) 0.8712(3)
N1_8 N 0.90545(18) 0.0858(4) 0.6502(5)
C4_8 C 0.9836(3) 0.2757(5) 0.6100(9)
H2_8 H 0.9654 0.3241 0.6283
C5_8 C 0.9683(2) 0.1838(6) 0.6133(6)
C6_8 C 0.9968(3) 0.1115(6) 0.5879(6)
H3_8 H 0.9873 0.0499 0.5916
C8_8 C 0.9217(2) 0.1662(5) 0.6420(6)
C11_8 C 0.82996(19) 0.0046(5) 0.6146(5)
C12_8 C 0.85786(19) 0.0773(4) 0.6672(6)
C13_8 C 0.83942(19) 0.1355(4) 0.7338(5)
H6_8 H 0.8588 0.1814 0.7726
C14_8 C 0.79245(18) 0.1264(4) 0.7436(4)
C15_8 C 0.76347(17) 0.0571(4) 0.6869(4)
H7_8 H 0.7316 0.0519 0.6913
C16_8 C 0.77274(19) 0.1890(4) 0.8178(5)
H12_8 H 0.903(2) 0.220(3) 0.652(5)
C9_8 C 0.75150(18) 0.9212(4) 0.5632(4)
C10_8 C 0.78256(18) 0.9955(4) 0.6233(4)
H5_8 H 0.8429 0.9624 0.5740
H9_3 H 0.3991 0.9921 0.0150
N3_5 N 0.3683(5) 0.9719(9) 0.8239(9)
C19_5 C 0.3539(5) 0.9994(8) 0.7202(9)
H8_5 H 0.3392 0.9547 0.6712
H13_5 H 0.368266 0.907919 0.857473
N3_6 N 0.6317(5) 0.9719(9) 0.6761(9)
C19_6 C 0.6461(5) 0.9994(8) 0.7798(9)
H8_6 H 0.6608 0.9547 0.8288
H9_4 H 0.6009 0.9921 0.4850
H13_6 H 0.631734 0.907919 0.642527
H9_5 H 0.8991 0.4921 0.0150
H10_6 H 0.8790 0.5930 0.0200
H11_6 H 0.9319 0.5784 0.0084
N3_7 N 0.6317(5) 0.0281(9) 0.1761(9)
C19_7 C 0.6461(5) 0.0006(8) 0.2798(9)
H8_7 H 0.6608 0.0453 0.3288
H13_7 H 0.631734 0.0920811 0.142527
H9_6 H 0.6009 0.0079 0.9850
H10_7 H 0.6210 0.9070 0.9800
H11_7 H 0.5681 0.9216 0.9916
N3_8 N 0.3683(5) 0.0281(9) 0.3239(9)
C19_8 C 0.3539(5) 0.0006(8) 0.2202(9)
H8_8 H 0.3392 0.0453 0.1712
H9_7 H 0.3991 0.0079 0.5150
H13_8 H 0.368266 0.0920811 0.357473
H9_8 H 0.1009 0.5079 0.9850
H10_8 H 0.1210 0.4070 0.9800
H11_8 H 0.0681 0.4216 0.9916
loop_
_geom_bond_atom_site_label_1
_geom_bond_atom_site_label_2
_geom_bond_site_symmetry_1
_geom_bond_site_symmetry_2
O1 C1 1_555 1_555
O3 C9 1_555 1_555
O4 C9 1_555 1_555
O5 C16 1_555 1_555
O6 C16 1_555 1_555
O7 C21 1_555 1_555
N1 C8 1_555 1_555
N2 C17 1_555 1_555
C1 C2 1_555 1_555
C2 C3 1_555 1_555
C3 H1 1_555 1_555
C4 C3 1_555 1_555
H2 C4 1_555 1_555
C5 C4 1_555 1_555
C6 C5 1_555 1_555
H3 C6 1_555 1_555
C7 C2 1_555 1_555
H4 C7 1_555 1_555
C8 C5 1_555 1_555
C9 C10 1_555 1_555
C10 C11 1_555 1_555
C11 H5 1_555 1_555
C12 N1 1_555 1_555
C13 C12 1_555 1_555
H6 C13 1_555 1_555
C14 C13 1_555 1_555
C15 C10 1_555 1_555
H7 C15 1_555 1_555
C16 C14 1_555 1_555
C17 C18 1_555 1_555
C18 C20 1_555 1_555
C21 C17 1_555 1_555
Eu1 O5 1_555 1_555
H12 C8 1_555 1_555
O8 Eu1 1_555 1_555
O9 Eu1 1_555 1_555
O10 Eu1 1_555 1_555
O11 Eu1 1_555 1_555
O12 Eu1 1_555 1_555
O13 Eu1 1_555 1_555
Eu4 O4 1_555 1_555
Eu5 O6 1_555 1_555
O7 Eu1 1_555 1_555
N2 Eu1 1_555 1_555
C6 C7 1_555 1_555
C11 C12 1_555 1_555
C14 C15 1_555 1_555
O11 Eu5 1_555 1_555
O12 Eu5 1_555 1_555
C21 H14 1_555 1_555
O2 Eu2 1_555 1_555
O8 C1_2 1_555 1_555
O9 C1_2 1_555 1_555
O3_2 C9_2 1_555 1_555
O4_2 C9_2 1_555 1_555
O5_2 C16_2 1_555 1_555
O6_2 C16_2 1_555 1_555
N1_2 C8_2 1_555 1_555
C1_2 C2_2 1_555 1_555
C2_2 C3_2 1_555 1_555
C3_2 H1_2 1_555 1_555
C4_2 C3_2 1_555 1_555
H2_2 C4_2 1_555 1_555
C5_2 C4_2 1_555 1_555
C6_2 C5_2 1_555 1_555
H3_2 C6_2 1_555 1_555
C7_2 C2_2 1_555 1_555
H4_2 C7_2 1_555 1_555
C8_2 C5_2 1_555 1_555
C9_2 C10_2 1_555 1_555
C10_2 C11_2 1_555 1_555
C11_2 H5_2 1_555 1_555
C12_2 N1_2 1_555 1_555
C13_2 C12_2 1_555 1_555
H6_2 C13_2 1_555 1_555
C14_2 C13_2 1_555 1_555
C15_2 C10_2 1_555 1_555
H7_2 C15_2 1_555 1_555
C16_2 C14_2 1_555 1_555
H12_2 C8_2 1_555 1_555
Eu3_2 O3_2 1_555 1_555
Eu4_2 O4_2 1_555 1_555
Eu5_2 O6_2 1_555 1_555
O4_2 Eu3_2 1_555 1_555
C6_2 C7_2 1_555 1_555
C11_2 C12_2 1_555 1_555
C14_2 C15_2 1_555 1_555
O11_2 Eu5_2 1_555 1_555
O7_2 C21_2 1_555 1_555
N2_2 C17_2 1_555 1_555
C17_2 C18_2 1_555 1_555
C18_2 C20_2 1_555 1_555
H10_2 C20_2 1_555 1_555
H11_2 C20_2 1_555 1_555
C21_2 C17_2 1_555 1_555
O12_2 Eu2 1_555 1_555
O13_2 Eu2 1_555 1_555
O7_2 Eu2 1_555 1_555
N2_2 Eu2 1_555 1_555
C21_2 H14_2 1_555 1_555
O1_2 C1_3 1_555 1_555
C1_3 C2_3 1_555 1_555
C2_3 C3_3 1_555 1_555
C3_3 H1_3 1_555 1_555
C7_3 C2_3 1_555 1_555
H4_3 C7_3 1_555 1_555
O2_2 Eu3 1_555 1_555
O10_2 C9_3 1_555 1_555
O11_2 C9_3 1_555 1_555
C9_3 C10_3 1_555 1_555
O5_3 C16_3 1_555 1_555
O6_3 C16_3 1_555 1_555
O7_3 C21_3 1_555 1_555
N1_3 C8_3 1_555 1_555
N2_3 C17_3 1_555 1_555
N3 C18_3 1_555 1_555
H2_3 C4_3 1_555 1_555
C5_3 C4_3 1_555 1_555
C6_3 C5_3 1_555 1_555
H3_3 C6_3 1_555 1_555
C8_3 C5_3 1_555 1_555
C12_3 N1_3 1_555 1_555
C13_3 C12_3 1_555 1_555
H6_3 C13_3 1_555 1_555
C14_3 C13_3 1_555 1_555
H7_3 C15_3 1_555 1_555
C16_3 C14_3 1_555 1_555
C17_3 C18_3 1_555 1_555
C18_3 C20_3 1_555 1_555
C19 N2_3 1_555 1_555
H8 C19 1_555 1_555
C21_3 C17_3 1_555 1_555
Eu3_2 O5_3 1_555 1_555
H12_3 C8_3 1_555 1_555
O8_2 Eu3_2 1_555 1_555
O9_2 Eu3_2 1_555 1_555
O12_3 Eu3_2 1_555 1_555
O13_3 Eu3_2 1_555 1_555
Eu4_2 O6_3 1_555 1_555
O7_3 Eu3_2 1_555 1_555
N2_3 Eu3_2 1_555 1_555
N3 C19 1_555 1_555
C11_3 C12_3 1_555 1_555
C14_3 C15_3 1_555 1_555
O12_3 Eu4_2 1_555 1_555
N3 H13 1_555 1_555
C21_3 H14_3 1_555 1_555
O10 C9_4 1_555 1_555
O11 C9_4 1_555 1_555
C9_4 C10_4 1_555 1_555
O5_4 C16_4 1_555 1_555
O6_4 C16_4 1_555 1_555
N1_4 C8_4 1_555 1_555
H2_4 C4_4 1_555 1_555
C5_4 C4_4 1_555 1_555
C6_4 C5_4 1_555 1_555
H3_4 C6_4 1_555 1_555
C8_4 C5_4 1_555 1_555
C12_4 N1_4 1_555 1_555
C13_4 C12_4 1_555 1_555
H6_4 C13_4 1_555 1_555
C14_4 C13_4 1_555 1_555
H7_4 C15_4 1_555 1_555
C16_4 C14_4 1_555 1_555
H12_4 C8_4 1_555 1_555
Eu4 O6_4 1_555 1_555
C11_4 C12_4 1_555 1_555
C14_4 C15_4 1_555 1_555
O7_4 C21_4 1_555 1_555
N2_4 C17_4 1_555 1_555
N3_2 C18_4 1_555 1_555
C17_4 C18_4 1_555 1_555
C18_4 C20_4 1_555 1_555
C19_2 N2_4 1_555 1_555
H8_2 C19_2 1_555 1_555
C20_4 H9 1_555 1_555
H10_3 C20_4 1_555 1_555
H11_3 C20_4 1_555 1_555
C21_4 C17_4 1_555 1_555
O12_4 Eu3 1_555 1_555
O13_4 Eu3 1_555 1_555
O7_4 Eu3 1_555 1_555
N2_4 Eu3 1_555 1_555
N3_2 C19_2 1_555 1_555
N3_2 H13_2 1_555 1_555
C21_4 H14_4 1_555 1_555
O8_2 C1_4 1_555 1_555
O9_2 C1_4 1_555 1_555
C1_4 C2_4 1_555 1_555
C2_4 C3_4 1_555 1_555
C3_4 H1_4 1_555 1_555
C7_4 C2_4 1_555 1_555
H4_4 C7_4 1_555 1_555
O2_3 Eu4 1_555 1_555
O1_3 C1_5 1_555 1_555
O3_3 C9_5 1_555 1_555
O12_2 C9_5 1_555 1_555
O5_5 C16_5 1_555 1_555
O13_3 C16_5 1_555 1_555
O7_5 C21_5 1_555 1_555
N1_5 C8_5 1_555 1_555
N2_5 C17_5 1_555 1_555
C1_5 C2_5 1_555 1_555
C2_5 C3_5 1_555 1_555
C3_5 H1_5 1_555 1_555
C4_5 C3_5 1_555 1_555
H2_5 C4_5 1_555 1_555
C5_5 C4_5 1_555 1_555
C6_5 C5_5 1_555 1_555
H3_5 C6_5 1_555 1_555
C7_5 C2_5 1_555 1_555
H4_5 C7_5 1_555 1_555
C8_5 C5_5 1_555 1_555
C9_5 C10_5 1_555 1_555
C10_5 C11_5 1_555 1_555
C11_5 H5_5 1_555 1_555
C12_5 N1_5 1_555 1_555
C13_5 C12_5 1_555 1_555
H6_5 C13_5 1_555 1_555
C14_5 C13_5 1_555 1_555
C15_5 C10_5 1_555 1_555
H7_5 C15_5 1_555 1_555
C16_5 C14_5 1_555 1_555
C17_5 C18_5 1_555 1_555
C18_5 C20_5 1_555 1_555
C21_5 C17_5 1_555 1_555
Eu4_2 O5_5 1_555 1_555
H12_5 C8_5 1_555 1_555
O8_3 Eu4_2 1_555 1_555
O9_3 Eu4_2 1_555 1_555
O10_3 Eu4_2 1_555 1_555
O7_5 Eu4_2 1_555 1_555
N2_5 Eu4_2 1_555 1_555
C6_5 C7_5 1_555 1_555
C11_5 C12_5 1_555 1_555
C14_5 C15_5 1_555 1_555
C21_5 H14_5 1_555 1_555
O7_6 C21_6 1_555 1_555
N2_6 C17_6 1_555 1_555
C17_6 C18_6 1_555 1_555
C18_6 C20_6 1_555 1_555
H10_4 C20_6 1_555 1_555
H11_4 C20_6 1_555 1_555
C21_6 C17_6 1_555 1_555
O7_6 Eu4 1_555 1_555
N2_6 Eu4 1_555 1_555
C21_6 H14_6 1_555 1_555
O8_3 C1_6 1_555 1_555
O9_3 C1_6 1_555 1_555
O3_4 C9_6 1_555 1_555
O12 C9_6 1_555 1_555
O5_6 C16_6 1_555 1_555
O13_4 C16_6 1_555 1_555
N1_6 C8_6 1_555 1_555
C1_6 C2_6 1_555 1_555
C2_6 C3_6 1_555 1_555
C3_6 H1_6 1_555 1_555
C4_6 C3_6 1_555 1_555
H2_6 C4_6 1_555 1_555
C5_6 C4_6 1_555 1_555
C6_6 C5_6 1_555 1_555
H3_6 C6_6 1_555 1_555
C7_6 C2_6 1_555 1_555
H4_6 C7_6 1_555 1_555
C8_6 C5_6 1_555 1_555
C9_6 C10_6 1_555 1_555
C10_6 C11_6 1_555 1_555
C11_6 H5_6 1_555 1_555
C12_6 N1_6 1_555 1_555
C13_6 C12_6 1_555 1_555
H6_6 C13_6 1_555 1_555
C14_6 C13_6 1_555 1_555
C15_6 C10_6 1_555 1_555
H7_6 C15_6 1_555 1_555
C16_6 C14_6 1_555 1_555
H12_6 C8_6 1_555 1_555
Eu5 O3_4 1_555 1_555
C6_6 C7_6 1_555 1_555
C11_6 C12_6 1_555 1_555
C14_6 C15_6 1_555 1_555
O5_7 C16_7 1_555 1_555
O13 C16_7 1_555 1_555
O7_7 C21_7 1_555 1_555
N1_7 C8_7 1_555 1_555
N2_7 C17_7 1_555 1_555
N3_3 C18_7 1_555 1_555
H2_7 C4_7 1_555 1_555
C5_7 C4_7 1_555 1_555
C6_7 C5_7 1_555 1_555
H3_7 C6_7 1_555 1_555
C8_7 C5_7 1_555 1_555
C12_7 N1_7 1_555 1_555
C13_7 C12_7 1_555 1_555
H6_7 C13_7 1_555 1_555
C14_7 C13_7 1_555 1_555
H7_7 C15_7 1_555 1_555
C16_7 C14_7 1_555 1_555
C17_7 C18_7 1_555 1_555
C18_7 C20_7 1_555 1_555
C19_3 N2_7 1_555 1_555
H8_3 C19_3 1_555 1_555
C21_7 C17_7 1_555 1_555
Eu5 O5_7 1_555 1_555
H12_7 C8_7 1_555 1_555
O8_4 Eu5 1_555 1_555
O9_4 Eu5 1_555 1_555
O7_7 Eu5 1_555 1_555
N2_7 Eu5 1_555 1_555
N3_3 C19_3 1_555 1_555
C11_7 C12_7 1_555 1_555
C14_7 C15_7 1_555 1_555
N3_3 H13_3 1_555 1_555
C21_7 H14_7 1_555 1_555
O10_4 C9_7 1_555 1_555
O12_4 C9_7 1_555 1_555
C9_7 C10_7 1_555 1_555
O2_4 Eu5_2 1_555 1_555
O1_4 C1_7 1_555 1_555
C1_7 C2_7 1_555 1_555
C2_7 C3_7 1_555 1_555
C3_7 H1_7 1_555 1_555
C7_7 C2_7 1_555 1_555
H4_7 C7_7 1_555 1_555
O8_4 C1_8 1_555 1_555
O9_4 C1_8 1_555 1_555
C1_8 C2_8 1_555 1_555
C2_8 C3_8 1_555 1_555
C3_8 H1_8 1_555 1_555
C7_8 C2_8 1_555 1_555
H4_8 C7_8 1_555 1_555
O7_8 C21_8 1_555 1_555
N2_8 C17_8 1_555 1_555
N3_4 C18_8 1_555 1_555
C17_8 C18_8 1_555 1_555
C18_8 C20_8 1_555 1_555
C19_4 N2_8 1_555 1_555
H8_4 C19_4 1_555 1_555
C20_8 H9_2 1_555 1_555
H10_5 C20_8 1_555 1_555
H11_5 C20_8 1_555 1_555
C21_8 C17_8 1_555 1_555
O7_8 Eu5_2 1_555 1_555
N2_8 Eu5_2 1_555 1_555
N3_4 C19_4 1_555 1_555
N3_4 H13_4 1_555 1_555
C21_8 H14_8 1_555 1_555
O5_8 C16_8 1_555 1_555
O13_2 C16_8 1_555 1_555
N1_8 C8_8 1_555 1_555
H2_8 C4_8 1_555 1_555
C5_8 C4_8 1_555 1_555
C6_8 C5_8 1_555 1_555
H3_8 C6_8 1_555 1_555
C8_8 C5_8 1_555 1_555
C12_8 N1_8 1_555 1_555
C13_8 C12_8 1_555 1_555
H6_8 C13_8 1_555 1_555
C14_8 C13_8 1_555 1_555
H7_8 C15_8 1_555 1_555
C16_8 C14_8 1_555 1_555
H12_8 C8_8 1_555 1_555
C11_8 C12_8 1_555 1_555
C14_8 C15_8 1_555 1_555
O10_3 C9_8 1_555 1_555
O12_3 C9_8 1_555 1_555
C9_8 C10_8 1_555 1_555
H8_5 C19_5 1_555 1_555
N3_5 C19_5 1_555 1_555
N3_5 H13_5 1_555 1_555
H8_6 C19_6 1_555 1_555
N3_6 C19_6 1_555 1_555
N3_6 H13_6 1_555 1_555
H8_7 C19_7 1_555 1_555
N3_7 C19_7 1_555 1_555
N3_7 H13_7 1_555 1_555
H8_8 C19_8 1_555 1_555
N3_8 C19_8 1_555 1_555
N3_8 H13_8 1_555 1_555

#END
