
###############################################################################
#
# This file contains modified crystal structure data generated from the
# MOF subset of the Cambridge Structural Database (CSD) v543 
# hosted by the Cambridge Crystallographic Data Centre (CCDC).
#
# This work is licensed under the Creative Commons
# Attribution-NonCommercial-ShareAlike 4.0 International License.
# To view a copy of this license, visit
# http://creativecommons.org/licenses/by-nc-sa/4.0/
# or send a letter to
# Creative Commons, PO Box 1866, Mountain View, CA 94042, USA.
#
# CIF created using the CSD Python API on 29 September 2022
# The structure has been converted into the P1 space group
# The structure has a 3D framework
# The original CSD entry CUWZAX is in the monoclinic crystal system
# The framework has been calculated to contain at least 10.0% void space
# The void calculation uses a probe of radius 1.32A, grid spacing 0.4
# H atom positions have been added when not included in the experimental data
#
###############################################################################

data_CUWZAX
_chemical_formula_moiety         '(C176 H176 Eu8 N16 O72 S8)n'
_symmetry_cell_setting           triclinic
_symmetry_space_group_name_H-M   'P 1'
_symmetry_Int_Tables_number      1
_space_group_name_Hall           'P 1'
loop_
_symmetry_equiv_pos_site_id
_symmetry_equiv_pos_as_xyz
1 x,y,z
_cell_length_a                   29.0553(12)
_cell_length_b                   14.1152(7)
_cell_length_c                   13.4991(7)
_cell_angle_alpha                90
_cell_angle_beta                 97.912(5)
_cell_angle_gamma                90
_cell_volume                     5483.57
loop_
_atom_site_label
_atom_site_type_symbol
_atom_site_fract_x
_atom_site_fract_y
_atom_site_fract_z
Eu1 Eu 0.184341(14) 0.70591(3) 0.46130(3)
C1 C 0.0984(4) 0.7522(9) 0.5260(8)
C2 C 0.0540(4) 0.7768(9) 0.5652(9)
C3 C 0.0382(5) 0.8704(10) 0.5643(12)
H1 H 0.0569 0.9183 0.5446
C7 C 0.0275(5) 0.7072(10) 0.5978(14)
H4 H 0.0374 0.6444 0.5996
C17 C 0.1192(15) 0.486(2) 0.380(3)
H8 H 0.0869 0.5017 0.3827
H9 H 0.1315 0.4583 0.4438
C18 C 0.1207(13) 0.412(3) 0.300(2)
H10 H 0.1029 0.3554 0.3136
C19 C 0.1719(13) 0.392(3) 0.311(3)
H11 H 0.1860 0.4525 0.2993
H12 H 0.1759 0.3527 0.2541
C20 C 0.1587(8) 0.803(2) 0.2277(18)
C21 C 0.0698(9) 0.860(2) 0.178(2)
H13 H 0.0603 0.8093 0.2186
H14 H 0.0523 0.8567 0.1126
H15 H 0.0644 0.9195 0.2084
C22 C 0.1298(9) 0.9295(19) 0.110(2)
H16 H 0.1016 0.9545 0.0744
H17 H 0.1498 0.9089 0.0636
H18 H 0.1451 0.9779 0.1527
N2 N 0.1190(9) 0.8500(17) 0.1709(19)
O1 O 0.1136(3) 0.6689(6) 0.5411(6)
O2 O 0.1202(3) 0.8137(6) 0.4860(7)
O7 O 0.1441(4) 0.5738(17) 0.3685(7)
O8 O 0.1098(12) 0.443(2) 0.194(2)
H19 H 0.1335 0.4412 0.1668
O9 O 0.1464(5) 0.7637(11) 0.3026(11)
S1 S 0.2096(7) 0.3408(14) 0.4142(13)
O10 O 0.2107(2) 0.5648(5) 0.5536(5)
O11 O 0.2712(2) 0.6556(4) 0.5455(5)
O12 O 0.2288(2) 0.8444(4) 0.4545(5)
O13 O 0.2327(2) 0.6591(5) 0.3428(5)
O14 O 0.1997(2) 0.7616(5) 0.6271(5)
H20 H 0.193788 0.802222 0.2079
H22 H 0.194094 0.249502 0.433051
C9 C 0.7537(3) 0.0796(7) 0.5748(7)
C10 C 0.7838(3) 0.0082(7) 0.6284(7)
C11 C 0.8304(3) 0.0002(7) 0.6185(7)
H5 H 0.8433 0.0425 0.5773
O3 O 0.7107(2) 0.0648(5) 0.5536(5)
O4 O 0.7712(2) 0.1556(4) 0.5455(5)
Eu3 Eu 0.684341(14) 0.20591(3) 0.46130(3)
Eu4 Eu 0.815659(14) 0.29409(3) 0.53870(3)
Eu2 Eu 0.815659(14) 0.70591(3) 0.03870(3)
C4 C 0.9971(5) 0.8931(10) 0.5908(11)
H2 H 0.9868 0.9555 0.5866
C5 C 0.9695(5) 0.8220(10) 0.6251(10)
C6 C 0.9846(6) 0.7325(12) 0.6289(15)
H3 H 0.9665 0.6856 0.6526
C8 C 0.9218(5) 0.8392(13) 0.6508(12)
C12 C 0.8578(3) 0.9323(7) 0.6672(8)
C13 C 0.8397(4) 0.8744(7) 0.7394(7)
H6 H 0.8587 0.8314 0.7780
C14 C 0.7938(3) 0.8835(7) 0.7506(6)
C15 C 0.7655(3) 0.9497(7) 0.6966(7)
H7 H 0.7345 0.9552 0.7057
C16 C 0.7738(3) 0.8234(8) 0.8272(7)
N1 N 0.9047(3) 0.9220(7) 0.6471(7)
O5 O 0.7327(2) 0.8409(5) 0.8428(5)
O6 O 0.8003(2) 0.7616(5) 0.8729(5)
Eu5 Eu 0.684341(14) 0.79409(3) 0.96130(3)
H21 H 0.901483 0.779956 0.672964
Eu3_2 Eu 0.315659(14) 0.20591(3) 0.03870(3)
C9_2 C 0.2463(3) 0.0796(7) 0.9252(7)
C10_2 C 0.2162(3) 0.0082(7) 0.8716(7)
C11_2 C 0.1696(3) 0.0002(7) 0.8815(7)
H5_2 H 0.1567 0.0425 0.9227
O3_2 O 0.2893(2) 0.0648(5) 0.9464(5)
O4_2 O 0.2288(2) 0.1556(4) 0.9545(5)
Eu4_2 Eu 0.184341(14) 0.29409(3) 0.96130(3)
C4_2 C 0.0029(5) 0.8931(10) 0.9092(11)
H2_2 H 0.0132 0.9555 0.9134
C5_2 C 0.0305(5) 0.8220(10) 0.8749(10)
C6_2 C 0.0154(6) 0.7325(12) 0.8711(15)
H3_2 H 0.0335 0.6856 0.8474
C8_2 C 0.0782(5) 0.8392(13) 0.8492(12)
C12_2 C 0.1422(3) 0.9323(7) 0.8328(8)
C13_2 C 0.1603(4) 0.8744(7) 0.7606(7)
H6_2 H 0.1413 0.8314 0.7220
C14_2 C 0.2062(3) 0.8835(7) 0.7494(6)
C15_2 C 0.2345(3) 0.9497(7) 0.8034(7)
H7_2 H 0.2655 0.9552 0.7943
C16_2 C 0.2262(3) 0.8234(8) 0.6728(7)
N1_2 N 0.0953(3) 0.9220(7) 0.8529(7)
O5_2 O 0.2673(2) 0.8409(5) 0.6572(5)
Eu5_2 Eu 0.315659(14) 0.79409(3) 0.53870(3)
H21_2 H 0.0985169 0.779956 0.827036
C17_2 C 0.8808(15) 0.486(2) 0.120(3)
H8_2 H 0.9131 0.5017 0.1173
H9_2 H 0.8685 0.4583 0.0562
C18_2 C 0.8793(13) 0.412(3) 0.200(2)
H10_2 H 0.8971 0.3554 0.1864
C19_2 C 0.8281(13) 0.392(3) 0.189(3)
H11_2 H 0.8140 0.4525 0.2007
H12_2 H 0.8241 0.3527 0.2459
C20_2 C 0.8413(8) 0.803(2) 0.2723(18)
C21_2 C 0.9302(9) 0.860(2) 0.322(2)
H13_2 H 0.9397 0.8093 0.2814
H14_2 H 0.9477 0.8567 0.3874
H15_2 H 0.9356 0.9195 0.2916
C22_2 C 0.8702(9) 0.9295(19) 0.390(2)
H16_2 H 0.8984 0.9545 0.4256
H17_2 H 0.8502 0.9089 0.4364
H18_2 H 0.8549 0.9779 0.3473
N2_2 N 0.8810(9) 0.8500(17) 0.3291(19)
O2_2 O 0.8798(3) 0.8137(6) 0.0140(7)
O7_2 O 0.8559(4) 0.5738(17) 0.1315(7)
O8_2 O 0.8902(12) 0.443(2) 0.306(2)
H19_2 H 0.8665 0.4412 0.3332
O9_2 O 0.8536(5) 0.7637(11) 0.1974(11)
S1_2 S 0.7904(7) 0.3408(14) 0.0858(13)
O12_2 O 0.7712(2) 0.8444(4) 0.0455(5)
O13_2 O 0.7673(2) 0.6591(5) 0.1572(5)
H20_2 H 0.806212 0.802222 0.2921
H22_2 H 0.805906 0.249502 0.0669489
C1_2 C 0.9016(4) 0.7522(9) 0.9740(8)
C2_2 C 0.9460(4) 0.7768(9) 0.9348(9)
C3_2 C 0.9618(5) 0.8704(10) 0.9357(12)
H1_2 H 0.9431 0.9183 0.9554
C7_2 C 0.9725(5) 0.7072(10) 0.9022(14)
H4_2 H 0.9626 0.6444 0.9004
O1_2 O 0.8864(3) 0.6689(6) 0.9589(6)
O10_2 O 0.7893(2) 0.5648(5) 0.9464(5)
O11_2 O 0.7288(2) 0.6556(4) 0.9545(5)
C1_3 C 0.5984(4) 0.2522(9) 0.5260(8)
C2_3 C 0.5540(4) 0.2768(9) 0.5652(9)
C3_3 C 0.5382(5) 0.3704(10) 0.5643(12)
H1_3 H 0.5569 0.4183 0.5446
C4_3 C 0.4971(5) 0.3931(10) 0.5908(11)
H2_3 H 0.4868 0.4555 0.5866
C5_3 C 0.4695(5) 0.3220(10) 0.6251(10)
C6_3 C 0.4846(6) 0.2325(12) 0.6289(15)
H3_3 H 0.4665 0.1856 0.6526
C7_3 C 0.5275(5) 0.2072(10) 0.5978(14)
H4_3 H 0.5374 0.1444 0.5996
C8_3 C 0.4218(5) 0.3392(13) 0.6508(12)
C9_3 C 0.2537(3) 0.5796(7) 0.5748(7)
C10_3 C 0.2838(3) 0.5082(7) 0.6284(7)
C11_3 C 0.3304(3) 0.5002(7) 0.6185(7)
H5_3 H 0.3433 0.5425 0.5773
C12_3 C 0.3578(3) 0.4323(7) 0.6672(8)
C13_3 C 0.3397(4) 0.3744(7) 0.7394(7)
H6_3 H 0.3587 0.3314 0.7780
C14_3 C 0.2938(3) 0.3835(7) 0.7506(6)
C15_3 C 0.2655(3) 0.4497(7) 0.6966(7)
H7_3 H 0.2345 0.4552 0.7057
C16_3 C 0.2738(3) 0.3234(8) 0.8272(7)
H8_3 H 0.5869 0.0017 0.3827
C20_3 C 0.6587(8) 0.303(2) 0.2277(18)
C21_3 C 0.5698(9) 0.360(2) 0.178(2)
H13_3 H 0.5603 0.3093 0.2186
H14_3 H 0.5523 0.3567 0.1126
H15_3 H 0.5644 0.4195 0.2084
C22_3 C 0.6298(9) 0.4295(19) 0.110(2)
H16_3 H 0.6016 0.4545 0.0744
H17_3 H 0.6498 0.4089 0.0636
H18_3 H 0.6451 0.4779 0.1527
N1_3 N 0.4047(3) 0.4220(7) 0.6471(7)
N2_3 N 0.6190(9) 0.3500(17) 0.1709(19)
O1_3 O 0.6136(3) 0.1689(6) 0.5411(6)
O2_3 O 0.6202(3) 0.3137(6) 0.4860(7)
O5_3 O 0.2327(2) 0.3409(5) 0.8428(5)
O6_2 O 0.3003(2) 0.2616(5) 0.8729(5)
O7_3 O 0.6441(4) 0.0738(17) 0.3685(7)
O9_3 O 0.6464(5) 0.2637(11) 0.3026(11)
O12_3 O 0.7288(2) 0.3444(4) 0.4545(5)
O13_3 O 0.7327(2) 0.1591(5) 0.3428(5)
O14_2 O 0.6997(2) 0.2616(5) 0.6271(5)
H20_3 H 0.693788 0.302222 0.2079
H21_3 H 0.401483 0.279956 0.672964
H8_4 H 0.4131 0.0017 0.1173
C20_4 C 0.3413(8) 0.303(2) 0.2723(18)
C21_4 C 0.4302(9) 0.360(2) 0.322(2)
H13_4 H 0.4397 0.3093 0.2814
H14_4 H 0.4477 0.3567 0.3874
H15_4 H 0.4356 0.4195 0.2916
C22_4 C 0.3702(9) 0.4295(19) 0.390(2)
H16_4 H 0.3984 0.4545 0.4256
H17_4 H 0.3502 0.4089 0.4364
H18_4 H 0.3549 0.4779 0.3473
N2_4 N 0.3810(9) 0.3500(17) 0.3291(19)
O2_4 O 0.3798(3) 0.3137(6) 0.0140(7)
O7_4 O 0.3559(4) 0.0738(17) 0.1315(7)
O9_4 O 0.3536(5) 0.2637(11) 0.1974(11)
O12_4 O 0.2712(2) 0.3444(4) 0.0455(5)
O13_4 O 0.2673(2) 0.1591(5) 0.1572(5)
H20_4 H 0.306212 0.302222 0.2921
C1_4 C 0.4016(4) 0.2522(9) 0.9740(8)
C2_4 C 0.4460(4) 0.2768(9) 0.9348(9)
C3_4 C 0.4618(5) 0.3704(10) 0.9357(12)
H1_4 H 0.4431 0.4183 0.9554
C4_4 C 0.5029(5) 0.3931(10) 0.9092(11)
H2_4 H 0.5132 0.4555 0.9134
C5_4 C 0.5305(5) 0.3220(10) 0.8749(10)
C6_4 C 0.5154(6) 0.2325(12) 0.8711(15)
H3_4 H 0.5335 0.1856 0.8474
C7_4 C 0.4725(5) 0.2072(10) 0.9022(14)
H4_4 H 0.4626 0.1444 0.9004
C8_4 C 0.5782(5) 0.3392(13) 0.8492(12)
C9_4 C 0.7463(3) 0.5796(7) 0.9252(7)
C10_4 C 0.7162(3) 0.5082(7) 0.8716(7)
C11_4 C 0.6696(3) 0.5002(7) 0.8815(7)
H5_4 H 0.6567 0.5425 0.9227
C12_4 C 0.6422(3) 0.4323(7) 0.8328(8)
C13_4 C 0.6603(4) 0.3744(7) 0.7606(7)
H6_4 H 0.6413 0.3314 0.7220
C14_4 C 0.7062(3) 0.3835(7) 0.7494(6)
C15_4 C 0.7345(3) 0.4497(7) 0.8034(7)
H7_4 H 0.7655 0.4552 0.7943
C16_4 C 0.7262(3) 0.3234(8) 0.6728(7)
N1_4 N 0.5953(3) 0.4220(7) 0.8529(7)
O1_4 O 0.3864(3) 0.1689(6) 0.9589(6)
O5_4 O 0.7673(2) 0.3409(5) 0.6572(5)
H21_4 H 0.598517 0.279956 0.827036
C4_5 C 0.0029(5) 0.1069(10) 0.4092(11)
H2_5 H 0.0132 0.0445 0.4134
C5_5 C 0.0305(5) 0.1780(10) 0.3749(10)
C6_5 C 0.0154(6) 0.2675(12) 0.3711(15)
H3_5 H 0.0335 0.3144 0.3474
C8_5 C 0.0782(5) 0.1608(13) 0.3492(12)
C12_5 C 0.1422(3) 0.0677(7) 0.3328(8)
C13_5 C 0.1603(4) 0.1256(7) 0.2606(7)
H6_5 H 0.1413 0.1686 0.2220
C14_5 C 0.2062(3) 0.1165(7) 0.2494(6)
C15_5 C 0.2345(3) 0.0503(7) 0.3034(7)
H7_5 H 0.2655 0.0448 0.2943
C16_5 C 0.2262(3) 0.1766(8) 0.1728(7)
N1_5 N 0.0953(3) 0.0780(7) 0.3529(7)
O6_3 O 0.1997(2) 0.2384(5) 0.1271(5)
H21_5 H 0.0985169 0.220044 0.327036
C9_5 C 0.2463(3) 0.9204(7) 0.4252(7)
C10_5 C 0.2162(3) 0.9918(7) 0.3716(7)
C11_5 C 0.1696(3) 0.9998(7) 0.3815(7)
H5_5 H 0.1567 0.9575 0.4227
O3_3 O 0.2893(2) 0.9352(5) 0.4464(5)
C1_5 C 0.9016(4) 0.2478(9) 0.4740(8)
C2_5 C 0.9460(4) 0.2232(9) 0.4348(9)
C3_5 C 0.9618(5) 0.1296(10) 0.4357(12)
H1_5 H 0.9431 0.0817 0.4554
C7_5 C 0.9725(5) 0.2928(10) 0.4022(14)
H4_5 H 0.9626 0.3556 0.4004
C17_3 C 0.8808(15) 0.514(2) 0.620(3)
H8_5 H 0.9131 0.4983 0.6173
H9_3 H 0.8685 0.5417 0.5562
C18_3 C 0.8793(13) 0.588(3) 0.700(2)
H10_3 H 0.8971 0.6446 0.6864
C19_3 C 0.8281(13) 0.608(3) 0.689(3)
H11_3 H 0.8140 0.5475 0.7007
H12_3 H 0.8241 0.6473 0.7459
C20_5 C 0.8413(8) 0.197(2) 0.7723(18)
C21_5 C 0.9302(9) 0.140(2) 0.822(2)
H13_5 H 0.9397 0.1907 0.7814
H14_5 H 0.9477 0.1433 0.8874
H15_5 H 0.9356 0.0805 0.7916
C22_5 C 0.8702(9) 0.0705(19) 0.890(2)
H16_5 H 0.8984 0.0455 0.9256
H17_5 H 0.8502 0.0911 0.9364
H18_5 H 0.8549 0.0221 0.8473
N2_5 N 0.8810(9) 0.1500(17) 0.8291(19)
O1_5 O 0.8864(3) 0.3311(6) 0.4589(6)
O2_5 O 0.8798(3) 0.1863(6) 0.5140(7)
O7_5 O 0.8559(4) 0.4262(17) 0.6315(7)
O8_3 O 0.8902(12) 0.557(2) 0.806(2)
H19_3 H 0.8665 0.5588 0.8332
O9_5 O 0.8536(5) 0.2363(11) 0.6974(11)
S1_3 S 0.7904(7) 0.6592(14) 0.5858(13)
O10_3 O 0.7893(2) 0.4352(5) 0.4464(5)
O14_3 O 0.8003(2) 0.2384(5) 0.3729(5)
H20_5 H 0.806212 0.197778 0.7921
H22_3 H 0.805906 0.750498 0.566949
C1_6 C 0.0984(4) 0.2478(9) 0.0260(8)
C2_6 C 0.0540(4) 0.2232(9) 0.0652(9)
C3_6 C 0.0382(5) 0.1296(10) 0.0643(12)
H1_6 H 0.0569 0.0817 0.0446
C7_6 C 0.0275(5) 0.2928(10) 0.0978(14)
H4_6 H 0.0374 0.3556 0.0996
O1_6 O 0.1136(3) 0.3311(6) 0.0411(6)
O10_4 O 0.2107(2) 0.4352(5) 0.0536(5)
C17_4 C 0.1192(15) 0.514(2) 0.880(3)
H8_6 H 0.0869 0.4983 0.8827
H9_4 H 0.1315 0.5417 0.9438
C18_4 C 0.1207(13) 0.588(3) 0.800(2)
H10_4 H 0.1029 0.6446 0.8136
C19_4 C 0.1719(13) 0.608(3) 0.811(3)
H11_4 H 0.1860 0.5475 0.7993
H12_4 H 0.1759 0.6473 0.7541
C20_6 C 0.1587(8) 0.197(2) 0.7277(18)
C21_6 C 0.0698(9) 0.140(2) 0.678(2)
H13_6 H 0.0603 0.1907 0.7186
H14_6 H 0.0523 0.1433 0.6126
H15_6 H 0.0644 0.0805 0.7084
C22_6 C 0.1298(9) 0.0705(19) 0.610(2)
H16_6 H 0.1016 0.0455 0.5744
H17_6 H 0.1498 0.0911 0.5636
H18_6 H 0.1451 0.0221 0.6527
N2_6 N 0.1190(9) 0.1500(17) 0.6709(19)
O2_6 O 0.1202(3) 0.1863(6) 0.9860(7)
O7_6 O 0.1441(4) 0.4262(17) 0.8685(7)
O8_4 O 0.1098(12) 0.557(2) 0.694(2)
H19_4 H 0.1335 0.5588 0.6668
O9_6 O 0.1464(5) 0.2363(11) 0.8026(11)
S1_4 S 0.2096(7) 0.6592(14) 0.9142(13)
H20_6 H 0.193788 0.197778 0.7079
H22_4 H 0.194094 0.750498 0.933051
C4_6 C 0.9971(5) 0.1069(10) 0.0908(11)
H2_6 H 0.9868 0.0445 0.0866
C5_6 C 0.9695(5) 0.1780(10) 0.1251(10)
C6_6 C 0.9846(6) 0.2675(12) 0.1289(15)
H3_6 H 0.9665 0.3144 0.1526
C8_6 C 0.9218(5) 0.1608(13) 0.1508(12)
C12_6 C 0.8578(3) 0.0677(7) 0.1672(8)
C13_6 C 0.8397(4) 0.1256(7) 0.2394(7)
H6_6 H 0.8587 0.1686 0.2780
C14_6 C 0.7938(3) 0.1165(7) 0.2506(6)
C15_6 C 0.7655(3) 0.0503(7) 0.1966(7)
H7_6 H 0.7345 0.0448 0.2057
C16_6 C 0.7738(3) 0.1766(8) 0.3272(7)
N1_6 N 0.9047(3) 0.0780(7) 0.1471(7)
H21_6 H 0.901483 0.220044 0.172964
C9_6 C 0.7537(3) 0.9204(7) 0.0748(7)
C10_6 C 0.7838(3) 0.9918(7) 0.1284(7)
C11_6 C 0.8304(3) 0.9998(7) 0.1185(7)
H5_6 H 0.8433 0.9575 0.0773
O3_4 O 0.7107(2) 0.9352(5) 0.0536(5)
C1_7 C 0.4016(4) 0.7478(9) 0.4740(8)
C2_7 C 0.4460(4) 0.7232(9) 0.4348(9)
C3_7 C 0.4618(5) 0.6296(10) 0.4357(12)
H1_7 H 0.4431 0.5817 0.4554
C4_7 C 0.5029(5) 0.6069(10) 0.4092(11)
H2_7 H 0.5132 0.5445 0.4134
C5_7 C 0.5305(5) 0.6780(10) 0.3749(10)
C6_7 C 0.5154(6) 0.7675(12) 0.3711(15)
H3_7 H 0.5335 0.8144 0.3474
C7_7 C 0.4725(5) 0.7928(10) 0.4022(14)
H4_7 H 0.4626 0.8556 0.4004
C8_7 C 0.5782(5) 0.6608(13) 0.3492(12)
C9_7 C 0.7463(3) 0.4204(7) 0.4252(7)
C10_7 C 0.7162(3) 0.4918(7) 0.3716(7)
C11_7 C 0.6696(3) 0.4998(7) 0.3815(7)
H5_7 H 0.6567 0.4575 0.4227
C12_7 C 0.6422(3) 0.5677(7) 0.3328(8)
C13_7 C 0.6603(4) 0.6256(7) 0.2606(7)
H6_7 H 0.6413 0.6686 0.2220
C14_7 C 0.7062(3) 0.6165(7) 0.2494(6)
C15_7 C 0.7345(3) 0.5503(7) 0.3034(7)
H7_7 H 0.7655 0.5448 0.2943
C16_7 C 0.7262(3) 0.6766(8) 0.1728(7)
H8_7 H 0.4131 0.9983 0.6173
C20_7 C 0.3413(8) 0.697(2) 0.7723(18)
C21_7 C 0.4302(9) 0.640(2) 0.822(2)
H13_7 H 0.4397 0.6907 0.7814
H14_7 H 0.4477 0.6433 0.8874
H15_7 H 0.4356 0.5805 0.7916
C22_7 C 0.3702(9) 0.5705(19) 0.890(2)
H16_7 H 0.3984 0.5455 0.9256
H17_7 H 0.3502 0.5911 0.9364
H18_7 H 0.3549 0.5221 0.8473
N1_7 N 0.5953(3) 0.5780(7) 0.3529(7)
N2_7 N 0.3810(9) 0.6500(17) 0.8291(19)
O1_7 O 0.3864(3) 0.8311(6) 0.4589(6)
O2_7 O 0.3798(3) 0.6863(6) 0.5140(7)
O6_4 O 0.6997(2) 0.7384(5) 0.1271(5)
O7_7 O 0.3559(4) 0.9262(17) 0.6315(7)
O9_7 O 0.3536(5) 0.7363(11) 0.6974(11)
O14_4 O 0.3003(2) 0.7384(5) 0.3729(5)
H20_7 H 0.306212 0.697778 0.7921
H21_7 H 0.598517 0.720044 0.327036
C1_8 C 0.5984(4) 0.7478(9) 0.0260(8)
C2_8 C 0.5540(4) 0.7232(9) 0.0652(9)
C3_8 C 0.5382(5) 0.6296(10) 0.0643(12)
H1_8 H 0.5569 0.5817 0.0446
C4_8 C 0.4971(5) 0.6069(10) 0.0908(11)
H2_8 H 0.4868 0.5445 0.0866
C5_8 C 0.4695(5) 0.6780(10) 0.1251(10)
C6_8 C 0.4846(6) 0.7675(12) 0.1289(15)
H3_8 H 0.4665 0.8144 0.1526
C7_8 C 0.5275(5) 0.7928(10) 0.0978(14)
H4_8 H 0.5374 0.8556 0.0996
C8_8 C 0.4218(5) 0.6608(13) 0.1508(12)
C9_8 C 0.2537(3) 0.4204(7) 0.0748(7)
C10_8 C 0.2838(3) 0.4918(7) 0.1284(7)
C11_8 C 0.3304(3) 0.4998(7) 0.1185(7)
H5_8 H 0.3433 0.4575 0.0773
C12_8 C 0.3578(3) 0.5677(7) 0.1672(8)
C13_8 C 0.3397(4) 0.6256(7) 0.2394(7)
H6_8 H 0.3587 0.6686 0.2780
C14_8 C 0.2938(3) 0.6165(7) 0.2506(6)
C15_8 C 0.2655(3) 0.5503(7) 0.1966(7)
H7_8 H 0.2345 0.5448 0.2057
C16_8 C 0.2738(3) 0.6766(8) 0.3272(7)
N1_8 N 0.4047(3) 0.5780(7) 0.1471(7)
O1_8 O 0.6136(3) 0.8311(6) 0.0411(6)
H21_8 H 0.401483 0.720044 0.172964
H8_8 H 0.5869 0.9983 0.8827
C20_8 C 0.6587(8) 0.697(2) 0.7277(18)
C21_8 C 0.5698(9) 0.640(2) 0.678(2)
H13_8 H 0.5603 0.6907 0.7186
H14_8 H 0.5523 0.6433 0.6126
H15_8 H 0.5644 0.5805 0.7084
C22_8 C 0.6298(9) 0.5705(19) 0.610(2)
H16_8 H 0.6016 0.5455 0.5744
H17_8 H 0.6498 0.5911 0.5636
H18_8 H 0.6451 0.5221 0.6527
N2_8 N 0.6190(9) 0.6500(17) 0.6709(19)
O2_8 O 0.6202(3) 0.6863(6) 0.9860(7)
O7_8 O 0.6441(4) 0.9262(17) 0.8685(7)
O9_8 O 0.6464(5) 0.7363(11) 0.8026(11)
H20_8 H 0.693788 0.697778 0.7079
C17_5 C 0.6192(15) 0.986(2) 0.380(3)
H9_5 H 0.6315 0.9583 0.4438
C18_5 C 0.6207(13) 0.912(3) 0.300(2)
H10_5 H 0.6029 0.8554 0.3136
C19_5 C 0.6719(13) 0.892(3) 0.311(3)
H11_5 H 0.6860 0.9525 0.2993
H12_5 H 0.6759 0.8527 0.2541
O8_5 O 0.6098(12) 0.943(2) 0.194(2)
H19_5 H 0.6335 0.9412 0.1668
S1_5 S 0.7096(7) 0.8408(14) 0.4142(13)
H22_5 H 0.694094 0.749502 0.433051
C17_6 C 0.3808(15) 0.986(2) 0.120(3)
H9_6 H 0.3685 0.9583 0.0562
C18_6 C 0.3793(13) 0.912(3) 0.200(2)
H10_6 H 0.3971 0.8554 0.1864
C19_6 C 0.3281(13) 0.892(3) 0.189(3)
H11_6 H 0.3140 0.9525 0.2007
H12_6 H 0.3241 0.8527 0.2459
O8_6 O 0.3902(12) 0.943(2) 0.306(2)
H19_6 H 0.3665 0.9412 0.3332
S1_6 S 0.2904(7) 0.8408(14) 0.0858(13)
H22_6 H 0.305906 0.749502 0.0669489
C17_7 C 0.3808(15) 0.014(2) 0.620(3)
H9_7 H 0.3685 0.0417 0.5562
C18_7 C 0.3793(13) 0.088(3) 0.700(2)
H10_7 H 0.3971 0.1446 0.6864
C19_7 C 0.3281(13) 0.108(3) 0.689(3)
H11_7 H 0.3140 0.0475 0.7007
H12_7 H 0.3241 0.1473 0.7459
O8_7 O 0.3902(12) 0.057(2) 0.806(2)
H19_7 H 0.3665 0.0588 0.8332
S1_7 S 0.2904(7) 0.1592(14) 0.5858(13)
H22_7 H 0.305906 0.250498 0.566949
C17_8 C 0.6192(15) 0.014(2) 0.880(3)
H9_8 H 0.6315 0.0417 0.9438
C18_8 C 0.6207(13) 0.088(3) 0.800(2)
H10_8 H 0.6029 0.1446 0.8136
C19_8 C 0.6719(13) 0.108(3) 0.811(3)
H11_8 H 0.6860 0.0475 0.7993
H12_8 H 0.6759 0.1473 0.7541
O8_8 O 0.6098(12) 0.057(2) 0.694(2)
H19_8 H 0.6335 0.0588 0.6668
S1_8 S 0.7096(7) 0.1592(14) 0.9142(13)
H22_8 H 0.694094 0.250498 0.933051
loop_
_geom_bond_atom_site_label_1
_geom_bond_atom_site_label_2
_geom_bond_site_symmetry_1
_geom_bond_site_symmetry_2
Eu1 O1 1_555 1_555
C1 C2 1_555 1_555
C2 C3 1_555 1_555
C3 H1 1_555 1_555
C7 C2 1_555 1_555
H4 C7 1_555 1_555
C17 H8 1_555 1_555
H9 C17 1_555 1_555
C18 C17 1_555 1_555
H10 C18 1_555 1_555
C19 C18 1_555 1_555
H11 C19 1_555 1_555
H12 C19 1_555 1_555
C20 N2 1_555 1_555
C21 H13 1_555 1_555
H14 C21 1_555 1_555
H15 C21 1_555 1_555
C22 H16 1_555 1_555
H17 C22 1_555 1_555
H18 C22 1_555 1_555
N2 C21 1_555 1_555
O1 C1 1_555 1_555
O2 Eu1 1_555 1_555
O7 Eu1 1_555 1_555
O8 C18 1_555 1_555
H19 O8 1_555 1_555
O9 Eu1 1_555 1_555
S1 C19 1_555 1_555
O10 Eu1 1_555 1_555
O11 Eu1 1_555 1_555
O12 Eu1 1_555 1_555
O13 Eu1 1_555 1_555
O14 Eu1 1_555 1_555
C1 O2 1_555 1_555
C17 O7 1_555 1_555
C20 O9 1_555 1_555
C22 N2 1_555 1_555
C20 H20 1_555 1_555
S1 H22 1_555 1_555
C9 C10 1_555 1_555
C10 C11 1_555 1_555
C11 H5 1_555 1_555
O3 C9 1_555 1_555
O4 C9 1_555 1_555
Eu3 O3 1_555 1_555
Eu4 O4 1_555 1_555
O4 Eu3 1_555 1_555
H2 C4 1_555 1_555
C5 C4 1_555 1_555
C6 C5 1_555 1_555
H3 C6 1_555 1_555
C8 C5 1_555 1_555
C13 C12 1_555 1_555
H6 C13 1_555 1_555
C14 C13 1_555 1_555
H7 C15 1_555 1_555
C16 C14 1_555 1_555
N1 C8 1_555 1_555
O5 C16 1_555 1_555
O6 C16 1_555 1_555
Eu5 O5 1_555 1_555
C12 N1 1_555 1_555
C14 C15 1_555 1_555
C8 H21 1_555 1_555
C9_2 C10_2 1_555 1_555
C10_2 C11_2 1_555 1_555
C11_2 H5_2 1_555 1_555
O3_2 C9_2 1_555 1_555
O4_2 C9_2 1_555 1_555
Eu4_2 O4_2 1_555 1_555
H2_2 C4_2 1_555 1_555
C5_2 C4_2 1_555 1_555
C6_2 C5_2 1_555 1_555
H3_2 C6_2 1_555 1_555
C8_2 C5_2 1_555 1_555
C13_2 C12_2 1_555 1_555
H6_2 C13_2 1_555 1_555
C14_2 C13_2 1_555 1_555
H7_2 C15_2 1_555 1_555
C16_2 C14_2 1_555 1_555
N1_2 C8_2 1_555 1_555
O5_2 C16_2 1_555 1_555
O14 C16_2 1_555 1_555
Eu5_2 O5_2 1_555 1_555
C12_2 N1_2 1_555 1_555
C14_2 C15_2 1_555 1_555
C8_2 H21_2 1_555 1_555
C17_2 H8_2 1_555 1_555
H9_2 C17_2 1_555 1_555
C18_2 C17_2 1_555 1_555
H10_2 C18_2 1_555 1_555
C19_2 C18_2 1_555 1_555
H11_2 C19_2 1_555 1_555
H12_2 C19_2 1_555 1_555
C20_2 N2_2 1_555 1_555
C21_2 H13_2 1_555 1_555
H14_2 C21_2 1_555 1_555
H15_2 C21_2 1_555 1_555
C22_2 H16_2 1_555 1_555
H17_2 C22_2 1_555 1_555
H18_2 C22_2 1_555 1_555
N2_2 C21_2 1_555 1_555
O2_2 Eu2 1_555 1_555
O7_2 Eu2 1_555 1_555
O8_2 C18_2 1_555 1_555
H19_2 O8_2 1_555 1_555
O9_2 Eu2 1_555 1_555
S1_2 C19_2 1_555 1_555
O12_2 Eu2 1_555 1_555
O13_2 Eu2 1_555 1_555
C17_2 O7_2 1_555 1_555
C20_2 O9_2 1_555 1_555
C22_2 N2_2 1_555 1_555
C20_2 H20_2 1_555 1_555
S1_2 H22_2 1_555 1_555
C1_2 C2_2 1_555 1_555
C2_2 C3_2 1_555 1_555
C3_2 H1_2 1_555 1_555
C7_2 C2_2 1_555 1_555
H4_2 C7_2 1_555 1_555
O1_2 C1_2 1_555 1_555
Eu3 O1_3 1_555 1_555
C1_3 C2_3 1_555 1_555
C2_3 C3_3 1_555 1_555
C3_3 H1_3 1_555 1_555
C4_3 C3_3 1_555 1_555
H2_3 C4_3 1_555 1_555
C5_3 C4_3 1_555 1_555
C6_3 C5_3 1_555 1_555
H3_3 C6_3 1_555 1_555
C7_3 C2_3 1_555 1_555
H4_3 C7_3 1_555 1_555
C8_3 C5_3 1_555 1_555
C9_3 C10_3 1_555 1_555
C10_3 C11_3 1_555 1_555
C11_3 H5_3 1_555 1_555
C12_3 C11_3 1_555 1_555
C13_3 C12_3 1_555 1_555
H6_3 C13_3 1_555 1_555
C14_3 C13_3 1_555 1_555
C15_3 C10_3 1_555 1_555
H7_3 C15_3 1_555 1_555
C16_3 C14_3 1_555 1_555
C20_3 N2_3 1_555 1_555
C21_3 H13_3 1_555 1_555
H14_3 C21_3 1_555 1_555
H15_3 C21_3 1_555 1_555
C22_3 H16_3 1_555 1_555
H17_3 C22_3 1_555 1_555
H18_3 C22_3 1_555 1_555
N1_3 C8_3 1_555 1_555
N2_3 C21_3 1_555 1_555
O1_3 C1_3 1_555 1_555
O2_3 Eu3 1_555 1_555
O10 C9_3 1_555 1_555
O11 C9_3 1_555 1_555
O5_3 C16_3 1_555 1_555
O6_2 C16_3 1_555 1_555
O7_3 Eu3 1_555 1_555
O9_3 Eu3 1_555 1_555
Eu5_2 O11 1_555 1_555
Eu4_2 O5_3 1_555 1_555
O12_3 Eu3 1_555 1_555
O13_3 Eu3 1_555 1_555
O14_2 Eu3 1_555 1_555
C1_3 O2_3 1_555 1_555
C6_3 C7_3 1_555 1_555
C12_3 N1_3 1_555 1_555
C14_3 C15_3 1_555 1_555
C20_3 O9_3 1_555 1_555
C22_3 N2_3 1_555 1_555
C20_3 H20_3 1_555 1_555
C8_3 H21_3 1_555 1_555
C20_4 N2_4 1_555 1_555
C21_4 H13_4 1_555 1_555
H14_4 C21_4 1_555 1_555
H15_4 C21_4 1_555 1_555
C22_4 H16_4 1_555 1_555
H17_4 C22_4 1_555 1_555
H18_4 C22_4 1_555 1_555
N2_4 C21_4 1_555 1_555
O2_4 Eu3_2 1_555 1_555
O7_4 Eu3_2 1_555 1_555
O9_4 Eu3_2 1_555 1_555
O12_4 Eu3_2 1_555 1_555
O13_4 Eu3_2 1_555 1_555
C20_4 O9_4 1_555 1_555
C22_4 N2_4 1_555 1_555
C20_4 H20_4 1_555 1_555
C1_4 C2_4 1_555 1_555
C2_4 C3_4 1_555 1_555
C3_4 H1_4 1_555 1_555
C4_4 C3_4 1_555 1_555
H2_4 C4_4 1_555 1_555
C5_4 C4_4 1_555 1_555
C6_4 C5_4 1_555 1_555
H3_4 C6_4 1_555 1_555
C7_4 C2_4 1_555 1_555
H4_4 C7_4 1_555 1_555
C8_4 C5_4 1_555 1_555
C9_4 C10_4 1_555 1_555
C10_4 C11_4 1_555 1_555
C11_4 H5_4 1_555 1_555
C12_4 C11_4 1_555 1_555
C13_4 C12_4 1_555 1_555
H6_4 C13_4 1_555 1_555
C14_4 C13_4 1_555 1_555
C15_4 C10_4 1_555 1_555
H7_4 C15_4 1_555 1_555
C16_4 C14_4 1_555 1_555
N1_4 C8_4 1_555 1_555
O1_4 C1_4 1_555 1_555
O10_2 C9_4 1_555 1_555
O11_2 C9_4 1_555 1_555
O5_4 C16_4 1_555 1_555
O14_2 C16_4 1_555 1_555
Eu5 O11_2 1_555 1_555
Eu4 O5_4 1_555 1_555
C6_4 C7_4 1_555 1_555
C12_4 N1_4 1_555 1_555
C14_4 C15_4 1_555 1_555
C8_4 H21_4 1_555 1_555
H2_5 C4_5 1_555 1_555
C5_5 C4_5 1_555 1_555
C6_5 C5_5 1_555 1_555
H3_5 C6_5 1_555 1_555
C8_5 C5_5 1_555 1_555
C13_5 C12_5 1_555 1_555
H6_5 C13_5 1_555 1_555
C14_5 C13_5 1_555 1_555
H7_5 C15_5 1_555 1_555
C16_5 C14_5 1_555 1_555
N1_5 C8_5 1_555 1_555
O13_4 C16_5 1_555 1_555
O6_3 C16_5 1_555 1_555
C12_5 N1_5 1_555 1_555
C14_5 C15_5 1_555 1_555
C8_5 H21_5 1_555 1_555
C9_5 C10_5 1_555 1_555
C10_5 C11_5 1_555 1_555
C11_5 H5_5 1_555 1_555
O3_3 C9_5 1_555 1_555
O12 C9_5 1_555 1_555
Eu5_2 O3_3 1_555 1_555
O12 Eu5_2 1_555 1_555
Eu4 O1_5 1_555 1_555
C1_5 C2_5 1_555 1_555
C2_5 C3_5 1_555 1_555
C3_5 H1_5 1_555 1_555
C7_5 C2_5 1_555 1_555
H4_5 C7_5 1_555 1_555
C17_3 H8_5 1_555 1_555
H9_3 C17_3 1_555 1_555
C18_3 C17_3 1_555 1_555
H10_3 C18_3 1_555 1_555
C19_3 C18_3 1_555 1_555
H11_3 C19_3 1_555 1_555
H12_3 C19_3 1_555 1_555
C20_5 N2_5 1_555 1_555
C21_5 H13_5 1_555 1_555
H14_5 C21_5 1_555 1_555
H15_5 C21_5 1_555 1_555
C22_5 H16_5 1_555 1_555
H17_5 C22_5 1_555 1_555
H18_5 C22_5 1_555 1_555
N2_5 C21_5 1_555 1_555
O1_5 C1_5 1_555 1_555
O2_5 Eu4 1_555 1_555
O7_5 Eu4 1_555 1_555
O8_3 C18_3 1_555 1_555
H19_3 O8_3 1_555 1_555
O9_5 Eu4 1_555 1_555
S1_3 C19_3 1_555 1_555
O10_3 Eu4 1_555 1_555
O12_3 Eu4 1_555 1_555
O14_3 Eu4 1_555 1_555
C1_5 O2_5 1_555 1_555
C17_3 O7_5 1_555 1_555
C20_5 O9_5 1_555 1_555
C22_5 N2_5 1_555 1_555
C20_5 H20_5 1_555 1_555
S1_3 H22_3 1_555 1_555
C1_6 C2_6 1_555 1_555
C2_6 C3_6 1_555 1_555
C3_6 H1_6 1_555 1_555
C7_6 C2_6 1_555 1_555
H4_6 C7_6 1_555 1_555
O1_6 C1_6 1_555 1_555
C17_4 H8_6 1_555 1_555
H9_4 C17_4 1_555 1_555
C18_4 C17_4 1_555 1_555
H10_4 C18_4 1_555 1_555
C19_4 C18_4 1_555 1_555
H11_4 C19_4 1_555 1_555
H12_4 C19_4 1_555 1_555
C20_6 N2_6 1_555 1_555
C21_6 H13_6 1_555 1_555
H14_6 C21_6 1_555 1_555
H15_6 C21_6 1_555 1_555
C22_6 H16_6 1_555 1_555
H17_6 C22_6 1_555 1_555
H18_6 C22_6 1_555 1_555
N2_6 C21_6 1_555 1_555
O2_6 Eu4_2 1_555 1_555
O7_6 Eu4_2 1_555 1_555
O8_4 C18_4 1_555 1_555
H19_4 O8_4 1_555 1_555
O9_6 Eu4_2 1_555 1_555
S1_4 C19_4 1_555 1_555
C17_4 O7_6 1_555 1_555
C20_6 O9_6 1_555 1_555
C22_6 N2_6 1_555 1_555
C20_6 H20_6 1_555 1_555
S1_4 H22_4 1_555 1_555
H2_6 C4_6 1_555 1_555
C5_6 C4_6 1_555 1_555
C6_6 C5_6 1_555 1_555
H3_6 C6_6 1_555 1_555
C8_6 C5_6 1_555 1_555
C13_6 C12_6 1_555 1_555
H6_6 C13_6 1_555 1_555
C14_6 C13_6 1_555 1_555
H7_6 C15_6 1_555 1_555
C16_6 C14_6 1_555 1_555
N1_6 C8_6 1_555 1_555
O13_3 C16_6 1_555 1_555
O14_3 C16_6 1_555 1_555
C12_6 N1_6 1_555 1_555
C14_6 C15_6 1_555 1_555
C8_6 H21_6 1_555 1_555
C9_6 C10_6 1_555 1_555
C10_6 C11_6 1_555 1_555
C11_6 H5_6 1_555 1_555
O3_4 C9_6 1_555 1_555
O12_2 C9_6 1_555 1_555
Eu5_2 O1_7 1_555 1_555
C1_7 C2_7 1_555 1_555
C2_7 C3_7 1_555 1_555
C3_7 H1_7 1_555 1_555
C4_7 C3_7 1_555 1_555
H2_7 C4_7 1_555 1_555
C5_7 C4_7 1_555 1_555
C6_7 C5_7 1_555 1_555
H3_7 C6_7 1_555 1_555
C7_7 C2_7 1_555 1_555
H4_7 C7_7 1_555 1_555
C8_7 C5_7 1_555 1_555
C9_7 C10_7 1_555 1_555
C10_7 C11_7 1_555 1_555
C11_7 H5_7 1_555 1_555
C12_7 C11_7 1_555 1_555
C13_7 C12_7 1_555 1_555
H6_7 C13_7 1_555 1_555
C14_7 C13_7 1_555 1_555
C15_7 C10_7 1_555 1_555
H7_7 C15_7 1_555 1_555
C16_7 C14_7 1_555 1_555
C20_7 N2_7 1_555 1_555
C21_7 H13_7 1_555 1_555
H14_7 C21_7 1_555 1_555
H15_7 C21_7 1_555 1_555
C22_7 H16_7 1_555 1_555
H17_7 C22_7 1_555 1_555
H18_7 C22_7 1_555 1_555
N1_7 C8_7 1_555 1_555
N2_7 C21_7 1_555 1_555
O1_7 C1_7 1_555 1_555
O2_7 Eu5_2 1_555 1_555
O10_3 C9_7 1_555 1_555
O12_3 C9_7 1_555 1_555
O13_2 C16_7 1_555 1_555
O6_4 C16_7 1_555 1_555
O7_7 Eu5_2 1_555 1_555
O9_7 Eu5_2 1_555 1_555
O14_4 Eu5_2 1_555 1_555
C1_7 O2_7 1_555 1_555
C6_7 C7_7 1_555 1_555
C12_7 N1_7 1_555 1_555
C14_7 C15_7 1_555 1_555
C20_7 O9_7 1_555 1_555
C22_7 N2_7 1_555 1_555
C20_7 H20_7 1_555 1_555
C8_7 H21_7 1_555 1_555
C1_8 C2_8 1_555 1_555
C2_8 C3_8 1_555 1_555
C3_8 H1_8 1_555 1_555
C4_8 C3_8 1_555 1_555
H2_8 C4_8 1_555 1_555
C5_8 C4_8 1_555 1_555
C6_8 C5_8 1_555 1_555
H3_8 C6_8 1_555 1_555
C7_8 C2_8 1_555 1_555
H4_8 C7_8 1_555 1_555
C8_8 C5_8 1_555 1_555
C9_8 C10_8 1_555 1_555
C10_8 C11_8 1_555 1_555
C11_8 H5_8 1_555 1_555
C12_8 C11_8 1_555 1_555
C13_8 C12_8 1_555 1_555
H6_8 C13_8 1_555 1_555
C14_8 C13_8 1_555 1_555
C15_8 C10_8 1_555 1_555
H7_8 C15_8 1_555 1_555
C16_8 C14_8 1_555 1_555
N1_8 C8_8 1_555 1_555
O1_8 C1_8 1_555 1_555
O10_4 C9_8 1_555 1_555
O12_4 C9_8 1_555 1_555
O13 C16_8 1_555 1_555
O14_4 C16_8 1_555 1_555
C6_8 C7_8 1_555 1_555
C12_8 N1_8 1_555 1_555
C14_8 C15_8 1_555 1_555
C8_8 H21_8 1_555 1_555
C20_8 N2_8 1_555 1_555
C21_8 H13_8 1_555 1_555
H14_8 C21_8 1_555 1_555
H15_8 C21_8 1_555 1_555
C22_8 H16_8 1_555 1_555
H17_8 C22_8 1_555 1_555
H18_8 C22_8 1_555 1_555
N2_8 C21_8 1_555 1_555
O2_8 Eu5 1_555 1_555
O7_8 Eu5 1_555 1_555
O9_8 Eu5 1_555 1_555
C20_8 O9_8 1_555 1_555
C22_8 N2_8 1_555 1_555
C20_8 H20_8 1_555 1_555
H9_5 C17_5 1_555 1_555
C18_5 C17_5 1_555 1_555
H10_5 C18_5 1_555 1_555
C19_5 C18_5 1_555 1_555
H11_5 C19_5 1_555 1_555
H12_5 C19_5 1_555 1_555
O8_5 C18_5 1_555 1_555
H19_5 O8_5 1_555 1_555
S1_5 C19_5 1_555 1_555
S1_5 H22_5 1_555 1_555
H9_6 C17_6 1_555 1_555
C18_6 C17_6 1_555 1_555
H10_6 C18_6 1_555 1_555
C19_6 C18_6 1_555 1_555
H11_6 C19_6 1_555 1_555
H12_6 C19_6 1_555 1_555
O8_6 C18_6 1_555 1_555
H19_6 O8_6 1_555 1_555
S1_6 C19_6 1_555 1_555
S1_6 H22_6 1_555 1_555
H9_7 C17_7 1_555 1_555
C18_7 C17_7 1_555 1_555
H10_7 C18_7 1_555 1_555
C19_7 C18_7 1_555 1_555
H11_7 C19_7 1_555 1_555
H12_7 C19_7 1_555 1_555
O8_7 C18_7 1_555 1_555
H19_7 O8_7 1_555 1_555
S1_7 C19_7 1_555 1_555
S1_7 H22_7 1_555 1_555
H9_8 C17_8 1_555 1_555
C18_8 C17_8 1_555 1_555
H10_8 C18_8 1_555 1_555
C19_8 C18_8 1_555 1_555
H11_8 C19_8 1_555 1_555
H12_8 C19_8 1_555 1_555
O8_8 C18_8 1_555 1_555
H19_8 O8_8 1_555 1_555
S1_8 C19_8 1_555 1_555
S1_8 H22_8 1_555 1_555

#END
