
###############################################################################
#
# This file contains modified crystal structure data generated from the
# MOF subset of the Cambridge Structural Database (CSD) v543 
# hosted by the Cambridge Crystallographic Data Centre (CCDC).
#
# This work is licensed under the Creative Commons
# Attribution-NonCommercial-ShareAlike 4.0 International License.
# To view a copy of this license, visit
# http://creativecommons.org/licenses/by-nc-sa/4.0/
# or send a letter to
# Creative Commons, PO Box 1866, Mountain View, CA 94042, USA.
#
# CIF created using the CSD Python API on 29 September 2022
# The structure has been converted into the P1 space group
# The structure has a 3D framework
# The original CSD entry CUYBIK is in the monoclinic crystal system
# The framework has been calculated to contain at least 10.0% void space
# The void calculation uses a probe of radius 1.32A, grid spacing 0.4
# The framework is charged, counterions have been retained in the structure
#
###############################################################################

data_CUYBIK
_chemical_formula_moiety         '(C134 H152 Cu8 F48 N16 O48 P8)n'
_symmetry_cell_setting           triclinic
_symmetry_space_group_name_H-M   'P 1'
_symmetry_Int_Tables_number      1
_space_group_name_Hall           'P 1'
loop_
_symmetry_equiv_pos_site_id
_symmetry_equiv_pos_as_xyz
1 x,y,z
_cell_length_a                   20.6174(8)
_cell_length_b                   16.1816(7)
_cell_length_c                   14.3749(6)
_cell_angle_alpha                90
_cell_angle_beta                 104.814(2)
_cell_angle_gamma                90
_cell_volume                     4636.38
loop_
_atom_site_label
_atom_site_type_symbol
_atom_site_fract_x
_atom_site_fract_y
_atom_site_fract_z
C13 C 0.5693(3) 0.3465(3) 0.0385(3)
H10 H 0.5967 0.3846 0.0816
C14 C 0.5015(3) 0.3632(3) 0.0044(4)
H11 H 0.4835 0.4132 0.0216
N2 N 0.59794(18) 0.2785(2) 0.0128(2)
Cu4 Cu 0.69670(3) 0.25532(3) 0.05385(3)
C9 C 0.4464(2) 0.0472(3) 0.7766(4)
H7 H 0.4200 0.0770 0.7192
H8 H 0.4155 0.0124 0.8023
C10 C 0.4469(3) 0.1739(3) 0.8580(3)
C11 C 0.4893(2) 0.2362(3) 0.9216(3)
C12 C 0.5580(2) 0.2244(3) 0.9564(3)
H9 H 0.5772 0.1754 0.9388
C15 C 0.4607(2) 0.3078(3) 0.9460(3)
H12 H 0.4140 0.3180 0.9227
O3 O 0.48079(16) 0.10541(19) 0.8490(2)
O4 O 0.38819(17) 0.1824(2) 0.8186(2)
H18 H 0.6658 0.0104 0.5452
C25 C 0.5536(2) 0.0472(3) 0.7234(4)
H26 H 0.5800 0.0770 0.7808
H27 H 0.5845 0.0124 0.6977
C26 C 0.5531(3) 0.1739(3) 0.6420(3)
C27 C 0.5107(2) 0.2362(3) 0.5784(3)
C28 C 0.4420(2) 0.2244(3) 0.5436(3)
H28 H 0.4228 0.1754 0.5612
C29 C 0.4307(3) 0.3465(3) 0.4615(3)
H29 H 0.4033 0.3846 0.4184
C30 C 0.4985(3) 0.3632(3) 0.4956(4)
H30 H 0.5165 0.4132 0.4784
C31 C 0.5393(2) 0.3078(3) 0.5540(3)
H31 H 0.5860 0.3180 0.5773
N4 N 0.40206(18) 0.2785(2) 0.4872(2)
O9 O 0.51921(16) 0.10541(19) 0.6510(2)
O10 O 0.61181(17) 0.1824(2) 0.6814(2)
H37 H 0.3342 0.0104 0.9548
Cu3 Cu 0.30330(3) 0.25532(3) 0.44615(3)
O11 O 0.29164(14) 0.73464(17) 0.07491(18)
C32 C 0.3295(2) 0.6782(3) 0.1455(3)
H32 H 0.3765 0.6783 0.1426
H33 H 0.3269 0.6955 0.2098
H34 H 0.3110 0.6224 0.1323
H35 H 0.301(2) 0.908(3) 0.011(3)
Cu6 Cu 0.19670(3) 0.75532(3) 0.05385(3)
C13_2 C 0.0693(3) 0.8465(3) 0.0385(3)
H10_2 H 0.0967 0.8846 0.0816
C14_2 C 0.0015(3) 0.8632(3) 0.0044(4)
N2_2 N 0.09794(18) 0.7785(2) 0.0128(2)
Cu1 Cu 0.19670(3) 0.24468(3) 0.55385(3)
C1 C -0.0000 0.4936(4) 0.7500
C2 C 0.0343(2) 0.4408(3) 0.8351(3)
H1 H 0.0606 0.4760 0.8878
H2 H 0.0006 0.4100 0.8595
C3 C 0.1115(2) 0.3319(3) 0.8675(3)
C4 C 0.1546(2) 0.2768(3) 0.8254(3)
C5 C 0.1569(2) 0.2832(3) 0.7314(3)
H3 H 0.1281 0.3219 0.6913
C6 C 0.2396(2) 0.1847(3) 0.7511(3)
H4 H 0.2700 0.1532 0.7258
C7 C 0.2399(2) 0.1746(3) 0.8471(3)
H5 H 0.2697 0.1363 0.8863
C8 C 0.1967(2) 0.2202(3) 0.8848(3)
H6 H 0.1956 0.2135 0.9500
C12_2 C 0.0580(2) 0.7244(3) 0.9564(3)
H9_2 H 0.0772 0.6754 0.9388
N1 N 0.19792(17) 0.2374(2) 0.6929(2)
O1 O 0.07756(16) 0.38471(18) 0.8032(2)
O2 O 0.10715(17) 0.32878(19) 0.9501(2)
O5 O 0.20836(14) 0.23464(17) 0.42509(18)
C16 C 0.1705(2) 0.1782(3) 0.3545(3)
H13 H 0.1235 0.1783 0.3574
H14 H 0.1731 0.1955 0.2902
H15 H 0.1890 0.1224 0.3677
O6 O 0.17504(18) 0.3951(2) 0.5249(2)
H16 H 0.199(2) 0.408(3) 0.489(3)
C17 C 0.1645(5) 0.4583(4) 0.5794(5)
H17 H 0.1996 0.4587 0.6401
H18_2 H 0.1658 0.5104 0.5452
H19 H 0.1205 0.4521 0.5929
C25_2 C 0.0536(2) 0.5472(3) 0.7234(4)
H26_2 H 0.0800 0.5770 0.7808
H27_2 H 0.0845 0.5124 0.6977
C26_2 C 0.0531(3) 0.6739(3) 0.6420(3)
C27_2 C 0.0107(2) 0.7362(3) 0.5784(3)
H30_2 H 0.0165 0.9132 0.4784
C31_2 C 0.0393(2) 0.8078(3) 0.5540(3)
H31_2 H 0.0860 0.8180 0.5773
O9_2 O 0.01921(16) 0.60541(19) 0.6510(2)
O10_2 O 0.11181(17) 0.6824(2) 0.6814(2)
N6 N 0.09794(18) 0.2215(2) 0.5128(2)
O13 O 0.29164(14) 0.26536(17) 0.57491(18)
H11_2 H 0.9835 0.9132 0.0216
O11_2 O 0.79164(14) 0.23464(17) 0.07491(18)
C32_2 C 0.8295(2) 0.1782(3) 0.1455(3)
H32_2 H 0.8765 0.1783 0.1426
H33_2 H 0.8269 0.1955 0.2098
H34_2 H 0.8110 0.1224 0.1323
H35_2 H 0.801(2) 0.408(3) 0.011(3)
C1_2 C 0.5000 0.0064(4) 0.2500
C2_2 C 0.4657(2) 0.0592(3) 0.1649(3)
H1_2 H 0.4394 0.0240 0.1122
H2_2 H 0.4994 0.0900 0.1405
C3_2 C 0.3885(2) 0.1681(3) 0.1325(3)
C4_2 C 0.3454(2) 0.2232(3) 0.1746(3)
C5_2 C 0.3431(2) 0.2168(3) 0.2686(3)
H3_2 H 0.3719 0.1781 0.3087
C6_2 C 0.2604(2) 0.3153(3) 0.2489(3)
H4_2 H 0.2300 0.3468 0.2742
C7_2 C 0.2601(2) 0.3254(3) 0.1529(3)
H5_2 H 0.2303 0.3637 0.1137
C8_2 C 0.3033(2) 0.2798(3) 0.1152(3)
H6_2 H 0.3044 0.2865 0.0500
N1_2 N 0.30208(17) 0.2626(2) 0.3071(2)
O1_2 O 0.42244(16) 0.11529(18) 0.1968(2)
O2_2 O 0.39285(17) 0.17122(19) 0.0499(2)
C16_2 C 0.3295(2) 0.3218(3) 0.6455(3)
H13_2 H 0.3765 0.3217 0.6426
H14_2 H 0.3269 0.3045 0.7098
H15_2 H 0.3110 0.3776 0.6323
O6_2 O 0.32496(18) 0.1049(2) 0.4751(2)
H16_2 H 0.301(2) 0.092(3) 0.511(3)
C17_2 C 0.3355(5) 0.0417(4) 0.4206(5)
H17_2 H 0.3004 0.0413 0.3599
H19_2 H 0.3795 0.0479 0.4071
C18 C 0.5343(2) 0.0592(3) 0.3351(3)
H20 H 0.5606 0.0240 0.3878
H21 H 0.5006 0.0900 0.3595
C19 C 0.6115(2) 0.1681(3) 0.3675(3)
C20 C 0.6546(2) 0.2232(3) 0.3254(3)
C21 C 0.6569(2) 0.2168(3) 0.2314(3)
H22 H 0.6281 0.1781 0.1913
C22 C 0.7396(2) 0.3153(3) 0.2511(3)
H23 H 0.7700 0.3468 0.2258
C23 C 0.7399(2) 0.3254(3) 0.3471(3)
H24 H 0.7697 0.3637 0.3863
C24 C 0.6967(2) 0.2798(3) 0.3848(3)
H25 H 0.6956 0.2865 0.4500
N3 N 0.69792(17) 0.2626(2) 0.1929(2)
O7 O 0.57756(16) 0.11529(18) 0.3032(2)
O8 O 0.60715(17) 0.17122(19) 0.4501(2)
O12 O 0.67504(18) 0.1049(2) 0.0249(2)
C33 C 0.6645(5) 0.0417(4) 0.0794(5)
H36 H 0.6996 0.0413 0.1401
H38 H 0.6205 0.0479 0.0929
C1_3 C 0.0000 0.5064(4) 0.2500
C9_2 C 0.0536(2) 0.4528(3) 0.2234(4)
H7_2 H 0.0800 0.4230 0.2808
H8_2 H 0.0845 0.4876 0.1977
C10_2 C 0.0531(3) 0.3261(3) 0.1420(3)
C11_2 C 0.0107(2) 0.2638(3) 0.0784(3)
C15_2 C 0.0393(2) 0.1922(3) 0.0540(3)
H12_2 H 0.0860 0.1820 0.0773
O3_2 O 0.01921(16) 0.39459(19) 0.1510(2)
O4_2 O 0.11181(17) 0.3176(2) 0.1814(2)
C18_2 C 0.0343(2) 0.5592(3) 0.3351(3)
H20_2 H 0.0606 0.5240 0.3878
H21_2 H 0.0006 0.5900 0.3595
C19_2 C 0.1115(2) 0.6681(3) 0.3675(3)
C20_2 C 0.1546(2) 0.7232(3) 0.3254(3)
C21_2 C 0.1569(2) 0.7168(3) 0.2314(3)
H22_2 H 0.1281 0.6781 0.1913
C22_2 C 0.2396(2) 0.8153(3) 0.2511(3)
H23_2 H 0.2700 0.8468 0.2258
C23_2 C 0.2399(2) 0.8254(3) 0.3471(3)
H24_2 H 0.2697 0.8637 0.3863
C24_2 C 0.1967(2) 0.7798(3) 0.3848(3)
H25_2 H 0.1956 0.7865 0.4500
C28_2 C 0.0580(2) 0.2756(3) 0.4564(3)
H28_2 H 0.0772 0.3246 0.4388
C29_2 C 0.0693(3) 0.1535(3) 0.5385(3)
H29_2 H 0.0967 0.1154 0.5816
C30_2 C 0.0015(3) 0.1368(3) 0.5044(4)
N3_2 N 0.19792(17) 0.7626(2) 0.1929(2)
O7_2 O 0.07756(16) 0.61529(18) 0.3032(2)
O8_2 O 0.10715(17) 0.67122(19) 0.4501(2)
O12_2 O 0.17504(18) 0.6049(2) 0.0249(2)
C33_2 C 0.1645(5) 0.5417(4) 0.0794(5)
H36_2 H 0.1996 0.5413 0.1401
H37_2 H 0.1658 0.4896 0.0452
H38_2 H 0.1205 0.5479 0.0929
Cu1_2 Cu 0.69670(3) 0.74468(3) 0.55385(3)
C1_4 C 0.5000 0.9936(4) 0.7500
C2_3 C 0.5343(2) 0.9408(3) 0.8351(3)
H1_3 H 0.5606 0.9760 0.8878
H2_3 H 0.5006 0.9100 0.8595
C3_3 C 0.6115(2) 0.8319(3) 0.8675(3)
C4_3 C 0.6546(2) 0.7768(3) 0.8254(3)
C5_3 C 0.6569(2) 0.7832(3) 0.7314(3)
H3_3 H 0.6281 0.8219 0.6913
C6_3 C 0.7396(2) 0.6847(3) 0.7511(3)
H4_3 H 0.7700 0.6532 0.7258
C7_3 C 0.7399(2) 0.6746(3) 0.8471(3)
H5_3 H 0.7697 0.6363 0.8863
C8_3 C 0.6967(2) 0.7202(3) 0.8848(3)
H6_3 H 0.6956 0.7135 0.9500
N1_3 N 0.69792(17) 0.7374(2) 0.6929(2)
O1_3 O 0.57756(16) 0.88471(18) 0.8032(2)
O2_3 O 0.60715(17) 0.82878(19) 0.9501(2)
O5_2 O 0.70836(14) 0.73464(17) 0.42509(18)
C16_3 C 0.6705(2) 0.6782(3) 0.3545(3)
H13_3 H 0.6235 0.6783 0.3574
H14_3 H 0.6731 0.6955 0.2902
H15_3 H 0.6890 0.6224 0.3677
O6_3 O 0.67504(18) 0.8951(2) 0.5249(2)
H16_3 H 0.699(2) 0.908(3) 0.489(3)
C17_3 C 0.6645(5) 0.9583(4) 0.5794(5)
H17_3 H 0.6996 0.9587 0.6401
H19_3 H 0.6205 0.9521 0.5929
C18_3 C 0.4657(2) 0.9408(3) 0.6649(3)
H20_3 H 0.4394 0.9760 0.6122
H21_3 H 0.4994 0.9100 0.6405
C19_3 C 0.3885(2) 0.8319(3) 0.6325(3)
C20_3 C 0.3454(2) 0.7768(3) 0.6746(3)
C21_3 C 0.3431(2) 0.7832(3) 0.7686(3)
H22_3 H 0.3719 0.8219 0.8087
C22_3 C 0.2604(2) 0.6847(3) 0.7489(3)
H23_3 H 0.2300 0.6532 0.7742
C23_3 C 0.2601(2) 0.6746(3) 0.6529(3)
H24_3 H 0.2303 0.6363 0.6137
C24_3 C 0.3033(2) 0.7202(3) 0.6152(3)
H25_3 H 0.3044 0.7135 0.5500
N3_3 N 0.30208(17) 0.7374(2) 0.8071(2)
O7_3 O 0.42244(16) 0.88471(18) 0.6968(2)
O8_3 O 0.39285(17) 0.82878(19) 0.5499(2)
Cu2 Cu 0.30330(3) 0.74468(3) 0.94615(3)
O12_3 O 0.32496(18) 0.8951(2) 0.9751(2)
C33_3 C 0.3355(5) 0.9583(4) 0.9206(5)
H36_3 H 0.3004 0.9587 0.8599
H38_3 H 0.3795 0.9521 0.9071
Cu5 Cu 0.80330(3) 0.75532(3) 0.44615(3)
N5 N 0.40206(18) 0.7215(2) 0.9872(2)
N6_2 N 0.59794(18) 0.7215(2) 0.5128(2)
O13_2 O 0.79164(14) 0.76536(17) 0.57491(18)
O14 O 0.20836(14) 0.76536(17) 0.92509(18)
C1_5 C 1.0000 0.4936(4) 0.7500
C9_3 C 0.9464(2) 0.5472(3) 0.7766(4)
H7_3 H 0.9200 0.5770 0.7192
H8_3 H 0.9155 0.5124 0.8023
C10_3 C 0.9469(3) 0.6739(3) 0.8580(3)
C11_3 C 0.9893(2) 0.7362(3) 0.9216(3)
C15_3 C 0.9607(2) 0.8078(3) 0.9460(3)
H12_3 H 0.9140 0.8180 0.9227
O3_3 O 0.98079(16) 0.60541(19) 0.8490(2)
O4_3 O 0.88819(17) 0.6824(2) 0.8186(2)
C18_4 C 0.9657(2) 0.4408(3) 0.6649(3)
H20_4 H 0.9394 0.4760 0.6122
H21_4 H 0.9994 0.4100 0.6405
C19_4 C 0.8885(2) 0.3319(3) 0.6325(3)
C20_4 C 0.8454(2) 0.2768(3) 0.6746(3)
C21_4 C 0.8431(2) 0.2832(3) 0.7686(3)
H22_4 H 0.8719 0.3219 0.8087
C22_4 C 0.7604(2) 0.1847(3) 0.7489(3)
H23_4 H 0.7300 0.1532 0.7742
C23_4 C 0.7601(2) 0.1746(3) 0.6529(3)
H24_4 H 0.7303 0.1363 0.6137
C24_4 C 0.8033(2) 0.2202(3) 0.6152(3)
H25_4 H 0.8044 0.2135 0.5500
C28_3 C 0.9420(2) 0.7244(3) 0.5436(3)
H28_3 H 0.9228 0.6754 0.5612
C29_3 C 0.9307(3) 0.8465(3) 0.4615(3)
H29_3 H 0.9033 0.8846 0.4184
C30_3 C 0.9985(3) 0.8632(3) 0.4956(4)
N3_4 N 0.80208(17) 0.2374(2) 0.8071(2)
N4_2 N 0.90206(18) 0.7785(2) 0.4872(2)
O7_4 O 0.92244(16) 0.38471(18) 0.6968(2)
O8_4 O 0.89285(17) 0.32878(19) 0.5499(2)
Cu2_2 Cu 0.80330(3) 0.24468(3) 0.94615(3)
O12_4 O 0.82496(18) 0.3951(2) 0.9751(2)
C33_4 C 0.8355(5) 0.4583(4) 0.9206(5)
H36_4 H 0.8004 0.4587 0.8599
H37_3 H 0.8342 0.5104 0.9548
H38_4 H 0.8795 0.4521 0.9071
N5_2 N 0.90206(18) 0.2215(2) 0.9872(2)
O14_2 O 0.70836(14) 0.26536(17) 0.92509(18)
C32_3 C 0.6705(2) 0.3218(3) 0.8545(3)
H32_3 H 0.6235 0.3217 0.8574
H33_3 H 0.6731 0.3045 0.7902
H34_3 H 0.6890 0.3776 0.8677
H35_3 H 0.699(2) 0.092(3) 0.989(3)
C9_4 C 0.5536(2) 0.9528(3) 0.2234(4)
H7_4 H 0.5800 0.9230 0.2808
H8_4 H 0.5845 0.9876 0.1977
C10_4 C 0.5531(3) 0.8261(3) 0.1420(3)
C11_4 C 0.5107(2) 0.7638(3) 0.0784(3)
C12_3 C 0.4420(2) 0.7756(3) 0.0436(3)
H9_3 H 0.4228 0.8246 0.0612
C15_4 C 0.5393(2) 0.6922(3) 0.0540(3)
H12_4 H 0.5860 0.6820 0.0773
O3_4 O 0.51921(16) 0.89459(19) 0.1510(2)
O4_4 O 0.61181(17) 0.8176(2) 0.1814(2)
H18_3 H 0.3342 0.9896 0.4548
C25_3 C 0.4464(2) 0.9528(3) 0.2766(4)
H26_3 H 0.4200 0.9230 0.2192
H27_3 H 0.4155 0.9876 0.3023
C26_3 C 0.4469(3) 0.8261(3) 0.3580(3)
C27_3 C 0.4893(2) 0.7638(3) 0.4216(3)
C28_4 C 0.5580(2) 0.7756(3) 0.4564(3)
H28_4 H 0.5772 0.8246 0.4388
C29_4 C 0.5693(3) 0.6535(3) 0.5385(3)
H29_4 H 0.5967 0.6154 0.5816
C30_4 C 0.5015(3) 0.6368(3) 0.5044(4)
H30_3 H 0.4835 0.5868 0.5216
C31_3 C 0.4607(2) 0.6922(3) 0.4460(3)
H31_3 H 0.4140 0.6820 0.4227
O9_3 O 0.48079(16) 0.89459(19) 0.3490(2)
O10_3 O 0.38819(17) 0.8176(2) 0.3186(2)
H37_4 H 0.6658 0.9896 0.0452
C13_3 C 0.4307(3) 0.6535(3) 0.9615(3)
H10_3 H 0.4033 0.6154 0.9184
C14_3 C 0.4985(3) 0.6368(3) 0.9956(4)
H11_3 H 0.5165 0.5868 0.9784
H11_4 H 0.0165 0.0868 0.9784
C32_4 C 0.1705(2) 0.8218(3) 0.8545(3)
H32_4 H 0.1235 0.8217 0.8574
H33_4 H 0.1731 0.8045 0.7902
H34_4 H 0.1890 0.8776 0.8677
H35_4 H 0.199(2) 0.592(3) 0.989(3)
C1_6 C 1.0000 0.5064(4) 0.2500
C2_4 C 0.9657(2) 0.5592(3) 0.1649(3)
H1_4 H 0.9394 0.5240 0.1122
H2_4 H 0.9994 0.5900 0.1405
C3_4 C 0.8885(2) 0.6681(3) 0.1325(3)
C4_4 C 0.8454(2) 0.7232(3) 0.1746(3)
C5_4 C 0.8431(2) 0.7168(3) 0.2686(3)
H3_4 H 0.8719 0.6781 0.3087
C6_4 C 0.7604(2) 0.8153(3) 0.2489(3)
H4_4 H 0.7300 0.8468 0.2742
C7_4 C 0.7601(2) 0.8254(3) 0.1529(3)
H5_4 H 0.7303 0.8637 0.1137
C8_4 C 0.8033(2) 0.7798(3) 0.1152(3)
H6_4 H 0.8044 0.7865 0.0500
C12_4 C 0.9420(2) 0.2756(3) 0.0436(3)
H9_4 H 0.9228 0.3246 0.0612
N1_4 N 0.80208(17) 0.7626(2) 0.3071(2)
O1_4 O 0.92244(16) 0.61529(18) 0.1968(2)
O2_4 O 0.89285(17) 0.67122(19) 0.0499(2)
C16_4 C 0.8295(2) 0.8218(3) 0.6455(3)
H13_4 H 0.8765 0.8217 0.6426
H14_4 H 0.8269 0.8045 0.7098
H15_4 H 0.8110 0.8776 0.6323
O6_4 O 0.82496(18) 0.6049(2) 0.4751(2)
H16_4 H 0.801(2) 0.592(3) 0.511(3)
C17_4 C 0.8355(5) 0.5417(4) 0.4206(5)
H17_4 H 0.8004 0.5413 0.3599
H18_4 H 0.8342 0.4896 0.4548
H19_4 H 0.8795 0.5479 0.4071
C25_4 C 0.9464(2) 0.4528(3) 0.2766(4)
H26_4 H 0.9200 0.4230 0.2192
H27_4 H 0.9155 0.4876 0.3023
C26_4 C 0.9469(3) 0.3261(3) 0.3580(3)
C27_4 C 0.9893(2) 0.2638(3) 0.4216(3)
H30_4 H 0.9835 0.0868 0.5216
C31_4 C 0.9607(2) 0.1922(3) 0.4460(3)
H31_4 H 0.9140 0.1820 0.4227
O9_4 O 0.98079(16) 0.39459(19) 0.3490(2)
O10_4 O 0.88819(17) 0.3176(2) 0.3186(2)
C13_4 C 0.9307(3) 0.1535(3) 0.9615(3)
H10_4 H 0.9033 0.1154 0.9184
C14_4 C 0.9985(3) 0.1368(3) 0.9956(4)
F3 F 0.8245(2) 0.00339(19) 0.8247(3)
F4 F 0.78132(13) 0.06628(15) 0.93272(16)
P1 P 0.78742(7) 0.97146(7) 0.89893(9)
F1 F 0.7467(3) 0.9418(2) 0.9684(3)
F2 F 0.79370(15) 0.87836(17) 0.8671(2)
F5 F 0.7206(2) 0.9821(2) 0.8213(3)
F6 F 0.8545(2) 0.9626(2) 0.9763(3)
F3_2 F 0.1755(2) 0.00339(19) 0.6753(3)
F4_2 F 0.21868(13) 0.06628(15) 0.56728(16)
P1_2 P 0.21258(7) 0.97146(7) 0.60107(9)
F1_2 F 0.2533(3) 0.9418(2) 0.5316(3)
F2_2 F 0.20630(15) 0.87836(17) 0.6329(2)
F5_2 F 0.2794(2) 0.9821(2) 0.6787(3)
F6_2 F 0.1455(2) 0.9626(2) 0.5237(3)
P1_3 P 0.28742(7) 0.47146(7) 0.89893(9)
F1_3 F 0.2467(3) 0.4418(2) 0.9684(3)
F2_3 F 0.29370(15) 0.37836(17) 0.8671(2)
F3_3 F 0.3245(2) 0.50339(19) 0.8247(3)
F4_3 F 0.28132(13) 0.56628(15) 0.93272(16)
F5_3 F 0.2206(2) 0.4821(2) 0.8213(3)
F6_3 F 0.3545(2) 0.4626(2) 0.9763(3)
P1_4 P 0.71258(7) 0.47146(7) 0.60107(9)
F1_4 F 0.7533(3) 0.4418(2) 0.5316(3)
F2_4 F 0.70630(15) 0.37836(17) 0.6329(2)
F3_4 F 0.6755(2) 0.50339(19) 0.6753(3)
F4_4 F 0.71868(13) 0.56628(15) 0.56728(16)
F5_4 F 0.7794(2) 0.4821(2) 0.6787(3)
F6_4 F 0.6455(2) 0.4626(2) 0.5237(3)
P1_5 P 0.21258(7) 0.02854(7) 0.10107(9)
F1_5 F 0.2533(3) 0.0582(2) 0.0316(3)
F2_5 F 0.20630(15) 0.12164(17) 0.1329(2)
F5_5 F 0.2794(2) 0.0179(2) 0.1787(3)
F6_5 F 0.1455(2) 0.0374(2) 0.0237(3)
F3_5 F 0.1755(2) 0.99661(19) 0.1753(3)
F4_5 F 0.21868(13) 0.93372(15) 0.06728(16)
P1_6 P 0.78742(7) 0.02854(7) 0.39893(9)
F1_6 F 0.7467(3) 0.0582(2) 0.4684(3)
F2_6 F 0.79370(15) 0.12164(17) 0.3671(2)
F5_6 F 0.7206(2) 0.0179(2) 0.3213(3)
F6_6 F 0.8545(2) 0.0374(2) 0.4763(3)
F3_6 F 0.8245(2) 0.99661(19) 0.3247(3)
F4_6 F 0.78132(13) 0.93372(15) 0.43272(16)
P1_7 P 0.71258(7) 0.52854(7) 0.10107(9)
F1_7 F 0.7533(3) 0.5582(2) 0.0316(3)
F2_7 F 0.70630(15) 0.62164(17) 0.1329(2)
F3_7 F 0.6755(2) 0.49661(19) 0.1753(3)
F4_7 F 0.71868(13) 0.43372(15) 0.06728(16)
F5_7 F 0.7794(2) 0.5179(2) 0.1787(3)
F6_7 F 0.6455(2) 0.5374(2) 0.0237(3)
P1_8 P 0.28742(7) 0.52854(7) 0.39893(9)
F1_8 F 0.2467(3) 0.5582(2) 0.4684(3)
F2_8 F 0.29370(15) 0.62164(17) 0.3671(2)
F3_8 F 0.3245(2) 0.49661(19) 0.3247(3)
F4_8 F 0.28132(13) 0.43372(15) 0.43272(16)
F5_8 F 0.2206(2) 0.5179(2) 0.3213(3)
F6_8 F 0.3545(2) 0.5374(2) 0.4763(3)
loop_
_geom_bond_atom_site_label_1
_geom_bond_atom_site_label_2
_geom_bond_site_symmetry_1
_geom_bond_site_symmetry_2
C13 H10 1_555 1_555
C14 C13 1_555 1_555
H11 C14 1_555 1_555
Cu4 N2 1_555 1_555
C13 N2 1_555 1_555
H7 C9 1_555 1_555
H8 C9 1_555 1_555
C10 C11 1_555 1_555
C11 C12 1_555 1_555
C12 H9 1_555 1_555
C15 C11 1_555 1_555
H12 C15 1_555 1_555
O3 C9 1_555 1_555
O4 C10 1_555 1_555
H26 C25 1_555 1_555
H27 C25 1_555 1_555
C26 C27 1_555 1_555
C27 C28 1_555 1_555
C28 H28 1_555 1_555
C29 H29 1_555 1_555
C30 C29 1_555 1_555
H30 C30 1_555 1_555
C31 C27 1_555 1_555
H31 C31 1_555 1_555
N4 C28 1_555 1_555
O9 C25 1_555 1_555
O10 C26 1_555 1_555
Cu3 N4 1_555 1_555
C10 O3 1_555 1_555
C26 O9 1_555 1_555
C29 N4 1_555 1_555
C30 C31 1_555 1_555
C32 O11 1_555 1_555
H32 C32 1_555 1_555
H33 C32 1_555 1_555
H34 C32 1_555 1_555
Cu6 O11 1_555 1_555
C13_2 H10_2 1_555 1_555
C14_2 C13_2 1_555 1_555
Cu6 N2_2 1_555 1_555
C13_2 N2_2 1_555 1_555
Cu1 N1 1_555 1_555
C1 C2 1_555 1_555
C2 H1 1_555 1_555
H2 C2 1_555 1_555
C3 C4 1_555 1_555
C4 C5 1_555 1_555
C5 H3 1_555 1_555
C6 H4 1_555 1_555
C7 C6 1_555 1_555
H5 C7 1_555 1_555
C8 C4 1_555 1_555
H6 C8 1_555 1_555
C12_2 H9_2 1_555 1_555
N1 C5 1_555 1_555
O1 C2 1_555 1_555
O2 C3 1_555 1_555
O5 Cu1 1_555 1_555
C16 O5 1_555 1_555
H13 C16 1_555 1_555
H14 C16 1_555 1_555
H15 C16 1_555 1_555
O6 Cu1 1_555 1_555
H16 O6 1_555 1_555
C17 O6 1_555 1_555
H17 C17 1_555 1_555
H18_2 C17 1_555 1_555
H19 C17 1_555 1_555
C25_2 C1 1_555 1_555
H26_2 C25_2 1_555 1_555
H27_2 C25_2 1_555 1_555
C26_2 C27_2 1_555 1_555
C31_2 C27_2 1_555 1_555
H31_2 C31_2 1_555 1_555
O9_2 C25_2 1_555 1_555
O10_2 C26_2 1_555 1_555
Cu3 O5 1_555 1_555
N6 Cu1 1_555 1_555
O13 Cu1 1_555 1_555
C3 O1 1_555 1_555
C6 N1 1_555 1_555
C7 C8 1_555 1_555
C26_2 O9_2 1_555 1_555
Cu3 O13 1_555 1_555
C32_2 O11_2 1_555 1_555
H32_2 C32_2 1_555 1_555
H33_2 C32_2 1_555 1_555
H34_2 C32_2 1_555 1_555
Cu4 O11_2 1_555 1_555
Cu3 N1_2 1_555 1_555
C1_2 C2_2 1_555 1_555
C2_2 H1_2 1_555 1_555
H2_2 C2_2 1_555 1_555
C3_2 C4_2 1_555 1_555
C4_2 C5_2 1_555 1_555
C5_2 H3_2 1_555 1_555
C6_2 H4_2 1_555 1_555
C7_2 C6_2 1_555 1_555
H5_2 C7_2 1_555 1_555
C8_2 C4_2 1_555 1_555
H6_2 C8_2 1_555 1_555
N1_2 C5_2 1_555 1_555
O1_2 C2_2 1_555 1_555
O2_2 C3_2 1_555 1_555
C16_2 O13 1_555 1_555
H13_2 C16_2 1_555 1_555
H14_2 C16_2 1_555 1_555
H15_2 C16_2 1_555 1_555
O6_2 Cu3 1_555 1_555
H16_2 O6_2 1_555 1_555
C17_2 O6_2 1_555 1_555
H17_2 C17_2 1_555 1_555
H19_2 C17_2 1_555 1_555
C18 C1_2 1_555 1_555
H20 C18 1_555 1_555
H21 C18 1_555 1_555
C19 C20 1_555 1_555
C20 C21 1_555 1_555
C21 H22 1_555 1_555
C22 H23 1_555 1_555
C23 C22 1_555 1_555
H24 C23 1_555 1_555
C24 C20 1_555 1_555
H25 C24 1_555 1_555
N3 C21 1_555 1_555
O7 C18 1_555 1_555
O8 C19 1_555 1_555
Cu4 N3 1_555 1_555
O12 Cu4 1_555 1_555
C33 O12 1_555 1_555
H36 C33 1_555 1_555
H38 C33 1_555 1_555
C3_2 O1_2 1_555 1_555
C6_2 N1_2 1_555 1_555
C7_2 C8_2 1_555 1_555
C19 O7 1_555 1_555
C22 N3 1_555 1_555
C23 C24 1_555 1_555
C9_2 C1_3 1_555 1_555
H7_2 C9_2 1_555 1_555
H8_2 C9_2 1_555 1_555
C10_2 C11_2 1_555 1_555
C15_2 C11_2 1_555 1_555
H12_2 C15_2 1_555 1_555
O3_2 C9_2 1_555 1_555
O4_2 C10_2 1_555 1_555
C18_2 C1_3 1_555 1_555
H20_2 C18_2 1_555 1_555
H21_2 C18_2 1_555 1_555
C19_2 C20_2 1_555 1_555
C20_2 C21_2 1_555 1_555
C21_2 H22_2 1_555 1_555
C22_2 H23_2 1_555 1_555
C23_2 C22_2 1_555 1_555
H24_2 C23_2 1_555 1_555
C24_2 C20_2 1_555 1_555
H25_2 C24_2 1_555 1_555
C28_2 H28_2 1_555 1_555
C29_2 H29_2 1_555 1_555
C30_2 C29_2 1_555 1_555
N3_2 C21_2 1_555 1_555
N6 C28_2 1_555 1_555
O7_2 C18_2 1_555 1_555
O8_2 C19_2 1_555 1_555
Cu6 N3_2 1_555 1_555
O12_2 Cu6 1_555 1_555
C33_2 O12_2 1_555 1_555
H36_2 C33_2 1_555 1_555
H37_2 C33_2 1_555 1_555
H38_2 C33_2 1_555 1_555
C10_2 O3_2 1_555 1_555
C19_2 O7_2 1_555 1_555
C22_2 N3_2 1_555 1_555
C23_2 C24_2 1_555 1_555
C29_2 N6 1_555 1_555
Cu1_2 N1_3 1_555 1_555
C1_4 C2_3 1_555 1_555
C2_3 H1_3 1_555 1_555
H2_3 C2_3 1_555 1_555
C3_3 C4_3 1_555 1_555
C4_3 C5_3 1_555 1_555
C5_3 H3_3 1_555 1_555
C6_3 H4_3 1_555 1_555
C7_3 C6_3 1_555 1_555
H5_3 C7_3 1_555 1_555
C8_3 C4_3 1_555 1_555
H6_3 C8_3 1_555 1_555
N1_3 C5_3 1_555 1_555
O1_3 C2_3 1_555 1_555
O2_3 C3_3 1_555 1_555
O5_2 Cu1_2 1_555 1_555
C16_3 O5_2 1_555 1_555
H13_3 C16_3 1_555 1_555
H14_3 C16_3 1_555 1_555
H15_3 C16_3 1_555 1_555
O6_3 Cu1_2 1_555 1_555
H16_3 O6_3 1_555 1_555
C17_3 O6_3 1_555 1_555
H17_3 C17_3 1_555 1_555
H19_3 C17_3 1_555 1_555
C18_3 C1_4 1_555 1_555
H20_3 C18_3 1_555 1_555
H21_3 C18_3 1_555 1_555
C19_3 C20_3 1_555 1_555
C20_3 C21_3 1_555 1_555
C21_3 H22_3 1_555 1_555
C22_3 H23_3 1_555 1_555
C23_3 C22_3 1_555 1_555
H24_3 C23_3 1_555 1_555
C24_3 C20_3 1_555 1_555
H25_3 C24_3 1_555 1_555
N3_3 C21_3 1_555 1_555
O7_3 C18_3 1_555 1_555
O8_3 C19_3 1_555 1_555
Cu2 N3_3 1_555 1_555
O12_3 Cu2 1_555 1_555
C33_3 O12_3 1_555 1_555
H36_3 C33_3 1_555 1_555
H38_3 C33_3 1_555 1_555
Cu5 O5_2 1_555 1_555
N5 Cu2 1_555 1_555
N6_2 Cu1_2 1_555 1_555
O13_2 Cu1_2 1_555 1_555
O14 Cu2 1_555 1_555
C3_3 O1_3 1_555 1_555
C6_3 N1_3 1_555 1_555
C7_3 C8_3 1_555 1_555
C19_3 O7_3 1_555 1_555
C22_3 N3_3 1_555 1_555
C23_3 C24_3 1_555 1_555
Cu5 O13_2 1_555 1_555
C9_3 C1_5 1_555 1_555
H7_3 C9_3 1_555 1_555
H8_3 C9_3 1_555 1_555
C10_3 C11_3 1_555 1_555
C15_3 C11_3 1_555 1_555
H12_3 C15_3 1_555 1_555
O3_3 C9_3 1_555 1_555
O4_3 C10_3 1_555 1_555
C18_4 C1_5 1_555 1_555
H20_4 C18_4 1_555 1_555
H21_4 C18_4 1_555 1_555
C19_4 C20_4 1_555 1_555
C20_4 C21_4 1_555 1_555
C21_4 H22_4 1_555 1_555
C22_4 H23_4 1_555 1_555
C23_4 C22_4 1_555 1_555
H24_4 C23_4 1_555 1_555
C24_4 C20_4 1_555 1_555
H25_4 C24_4 1_555 1_555
C28_3 H28_3 1_555 1_555
C29_3 H29_3 1_555 1_555
C30_3 C29_3 1_555 1_555
N3_4 C21_4 1_555 1_555
N4_2 C28_3 1_555 1_555
O7_4 C18_4 1_555 1_555
O8_4 C19_4 1_555 1_555
Cu2_2 N3_4 1_555 1_555
O12_4 Cu2_2 1_555 1_555
C33_4 O12_4 1_555 1_555
H36_4 C33_4 1_555 1_555
H37_3 C33_4 1_555 1_555
H38_4 C33_4 1_555 1_555
Cu5 N4_2 1_555 1_555
N5_2 Cu2_2 1_555 1_555
O14_2 Cu2_2 1_555 1_555
C10_3 O3_3 1_555 1_555
C19_4 O7_4 1_555 1_555
C22_4 N3_4 1_555 1_555
C23_4 C24_4 1_555 1_555
C29_3 N4_2 1_555 1_555
C32_3 O14_2 1_555 1_555
H32_3 C32_3 1_555 1_555
H33_3 C32_3 1_555 1_555
H34_3 C32_3 1_555 1_555
H7_4 C9_4 1_555 1_555
H8_4 C9_4 1_555 1_555
C10_4 C11_4 1_555 1_555
C11_4 C12_3 1_555 1_555
C12_3 H9_3 1_555 1_555
C15_4 C11_4 1_555 1_555
H12_4 C15_4 1_555 1_555
O3_4 C9_4 1_555 1_555
O4_4 C10_4 1_555 1_555
H26_3 C25_3 1_555 1_555
H27_3 C25_3 1_555 1_555
C26_3 C27_3 1_555 1_555
C27_3 C28_4 1_555 1_555
C28_4 H28_4 1_555 1_555
C29_4 H29_4 1_555 1_555
C30_4 C29_4 1_555 1_555
H30_3 C30_4 1_555 1_555
C31_3 C27_3 1_555 1_555
H31_3 C31_3 1_555 1_555
N6_2 C28_4 1_555 1_555
O9_3 C25_3 1_555 1_555
O10_3 C26_3 1_555 1_555
C10_4 O3_4 1_555 1_555
C26_3 O9_3 1_555 1_555
C29_4 N6_2 1_555 1_555
C30_4 C31_3 1_555 1_555
C13_3 H10_3 1_555 1_555
C14_3 C13_3 1_555 1_555
H11_3 C14_3 1_555 1_555
C13_3 N5 1_555 1_555
C32_4 O14 1_555 1_555
H32_4 C32_4 1_555 1_555
H33_4 C32_4 1_555 1_555
H34_4 C32_4 1_555 1_555
Cu5 N1_4 1_555 1_555
C1_6 C2_4 1_555 1_555
C2_4 H1_4 1_555 1_555
H2_4 C2_4 1_555 1_555
C3_4 C4_4 1_555 1_555
C4_4 C5_4 1_555 1_555
C5_4 H3_4 1_555 1_555
C6_4 H4_4 1_555 1_555
C7_4 C6_4 1_555 1_555
H5_4 C7_4 1_555 1_555
C8_4 C4_4 1_555 1_555
H6_4 C8_4 1_555 1_555
C12_4 H9_4 1_555 1_555
N1_4 C5_4 1_555 1_555
O1_4 C2_4 1_555 1_555
O2_4 C3_4 1_555 1_555
C16_4 O13_2 1_555 1_555
H13_4 C16_4 1_555 1_555
H14_4 C16_4 1_555 1_555
H15_4 C16_4 1_555 1_555
O6_4 Cu5 1_555 1_555
H16_4 O6_4 1_555 1_555
C17_4 O6_4 1_555 1_555
H17_4 C17_4 1_555 1_555
H18_4 C17_4 1_555 1_555
H19_4 C17_4 1_555 1_555
C25_4 C1_6 1_555 1_555
H26_4 C25_4 1_555 1_555
H27_4 C25_4 1_555 1_555
C26_4 C27_4 1_555 1_555
C31_4 C27_4 1_555 1_555
H31_4 C31_4 1_555 1_555
O9_4 C25_4 1_555 1_555
O10_4 C26_4 1_555 1_555
C3_4 O1_4 1_555 1_555
C6_4 N1_4 1_555 1_555
C7_4 C8_4 1_555 1_555
C26_4 O9_4 1_555 1_555
C13_4 H10_4 1_555 1_555
C14_4 C13_4 1_555 1_555
C13_4 N5_2 1_555 1_555
P1 F1 1_555 1_555
F2 P1 1_555 1_555
F5 P1 1_555 1_555
F6 P1 1_555 1_555
P1_2 F1_2 1_555 1_555
F2_2 P1_2 1_555 1_555
F5_2 P1_2 1_555 1_555
F6_2 P1_2 1_555 1_555
P1_3 F1_3 1_555 1_555
F2_3 P1_3 1_555 1_555
F3_3 P1_3 1_555 1_555
F4_3 P1_3 1_555 1_555
F5_3 P1_3 1_555 1_555
F6_3 P1_3 1_555 1_555
P1_4 F1_4 1_555 1_555
F2_4 P1_4 1_555 1_555
F3_4 P1_4 1_555 1_555
F4_4 P1_4 1_555 1_555
F5_4 P1_4 1_555 1_555
F6_4 P1_4 1_555 1_555
P1_5 F1_5 1_555 1_555
F2_5 P1_5 1_555 1_555
F5_5 P1_5 1_555 1_555
F6_5 P1_5 1_555 1_555
P1_6 F1_6 1_555 1_555
F2_6 P1_6 1_555 1_555
F5_6 P1_6 1_555 1_555
F6_6 P1_6 1_555 1_555
P1_7 F1_7 1_555 1_555
F2_7 P1_7 1_555 1_555
F3_7 P1_7 1_555 1_555
F4_7 P1_7 1_555 1_555
F5_7 P1_7 1_555 1_555
F6_7 P1_7 1_555 1_555
P1_8 F1_8 1_555 1_555
F2_8 P1_8 1_555 1_555
F3_8 P1_8 1_555 1_555
F4_8 P1_8 1_555 1_555
F5_8 P1_8 1_555 1_555
F6_8 P1_8 1_555 1_555

#END
