
###############################################################################
#
# This file contains modified crystal structure data generated from the
# MOF subset of the Cambridge Structural Database (CSD) v543 
# hosted by the Cambridge Crystallographic Data Centre (CCDC).
#
# This work is licensed under the Creative Commons
# Attribution-NonCommercial-ShareAlike 4.0 International License.
# To view a copy of this license, visit
# http://creativecommons.org/licenses/by-nc-sa/4.0/
# or send a letter to
# Creative Commons, PO Box 1866, Mountain View, CA 94042, USA.
#
# CIF created using the CSD Python API on 29 September 2022
# The structure has been converted into the P1 space group
# The structure has a 3D framework
# The original CSD entry CUYHIO is in the monoclinic crystal system
# The framework has been calculated to contain at least 10.0% void space
# The void calculation uses a probe of radius 1.32A, grid spacing 0.4
#
###############################################################################

data_CUYHIO
_chemical_formula_moiety         '(C88 H72 N8 O16 Zn4)n'
_symmetry_cell_setting           triclinic
_symmetry_space_group_name_H-M   'P 1'
_symmetry_Int_Tables_number      1
_space_group_name_Hall           'P 1'
loop_
_symmetry_equiv_pos_site_id
_symmetry_equiv_pos_as_xyz
1 x,y,z
_cell_length_a                   6.2047(7)
_cell_length_b                   17.746(2)
_cell_length_c                   20.4535(19)
_cell_angle_alpha                90
_cell_angle_beta                 99.009(3)
_cell_angle_gamma                90
_cell_volume                     2224.32
loop_
_atom_site_label
_atom_site_type_symbol
_atom_site_fract_x
_atom_site_fract_y
_atom_site_fract_z
Zn5 Zn 0.93129(9) 0.51380(3) 0.71938(3)
N5 N 0.6609(6) 0.5041(2) 0.64815(18)
C39 C 0.5186(8) 0.5607(3) 0.6341(3)
H32 H 0.5486 0.6064 0.6559
C40 C 0.3311(8) 0.5546(3) 0.5892(3)
H33 H 0.2374 0.5956 0.5812
C41 C 0.2799(8) 0.4870(3) 0.5554(2)
C42 C 0.4278(8) 0.4292(3) 0.5694(3)
H34 H 0.4027 0.3832 0.5477
C43 C 0.6117(8) 0.4393(3) 0.6151(3)
H35 H 0.7080 0.3990 0.6238
C44 C 0.0802(8) 0.4757(3) 0.5078(2)
H36 H 0.0651 0.4294 0.4863
H13 H 0.3393 0.4504 0.9742
N3 N 0.8082(6) 0.5233(2) 0.80600(19)
C33 C 0.6140(8) 0.4937(3) 0.8133(2)
H27 H 0.5279 0.4732 0.7763
C34 C 0.5364(8) 0.4922(3) 0.8720(2)
H28 H 0.4014 0.4703 0.8741
C35 C 0.6546(8) 0.5224(3) 0.9280(2)
C36 C 0.8518(8) 0.5551(3) 0.9211(2)
H29 H 0.9364 0.5775 0.9574
C37 C 0.9236(8) 0.5548(3) 0.8612(3)
C38 C 0.5836(8) 0.5203(3) 0.9924(2)
H30 H 0.9427 0.0770 0.6418
O1 O 0.9379(6) 0.6463(2) 0.6810(2)
O3 O 0.8314(6) 0.8799(2) 0.69715(19)
O4 O 0.9515(6) 0.91594(19) 0.79909(18)
H6 H 0.9100 0.7909 0.9162
C9 C 0.8381(8) 0.7901(3) 0.7849(3)
H7 H 0.7106 0.7927 0.8068
H8 H 0.8076 0.7542 0.7489
C10 C 0.8771(8) 0.8671(3) 0.7565(3)
O6 O 0.8162(6) 0.0845(2) 0.75716(18)
C23 C 0.8891(10) 0.1453(4) 0.7805(3)
C24 C 0.7731(8) 0.2171(3) 0.7588(2)
H19 H 0.6221 0.2140 0.7655
H20 H 0.8413 0.2588 0.7848
C25 C 0.7840(8) 0.2300(3) 0.6857(3)
C26 C 0.6122(9) 0.2059(3) 0.6388(3)
H21 H 0.4915 0.1836 0.6526
C27 C 0.6161(10) 0.2143(3) 0.5733(3)
H22 H 0.4971 0.1992 0.5426
C28 C 0.7953(11) 0.2449(3) 0.5522(3)
H23 H 0.8006 0.2494 0.5072
C29 C 0.9697(10) 0.2693(3) 0.5985(3)
C30 C 0.9691(8) 0.2622(3) 0.6662(3)
H30_2 H 0.0573 0.5770 0.8582
O2 O 0.8162(6) 0.4155(2) 0.25716(18)
C1 C 0.8891(10) 0.3547(4) 0.2805(3)
C2 C 0.7731(8) 0.2829(3) 0.2588(2)
H1 H 0.6221 0.2860 0.2655
H2 H 0.8413 0.2412 0.2848
C3 C 0.7840(8) 0.2700(3) 0.1857(3)
C4 C 0.6122(9) 0.2941(3) 0.1388(3)
H3 H 0.4915 0.3164 0.1526
C5 C 0.6161(10) 0.2857(3) 0.0733(3)
H4 H 0.4971 0.3008 0.0426
C6 C 0.7953(11) 0.2551(3) 0.0522(3)
H5 H 0.8006 0.2506 0.0072
C7 C 0.9697(10) 0.2307(3) 0.0985(3)
C8 C 0.9691(8) 0.2378(3) 0.1662(3)
H12 H 0.9427 0.4230 0.1418
Zn2 Zn 0.93129(9) 0.98620(3) 0.21938(3)
O5 O 0.9379(6) 0.8537(2) 0.1810(2)
O7 O 0.8314(6) 0.6201(2) 0.19715(19)
O8 O 0.9515(6) 0.58406(19) 0.29909(18)
N4 N 0.8082(6) 0.9767(2) 0.30600(19)
N6 N 0.6609(6) 0.9959(2) 0.14815(18)
H24 H 0.9100 0.7091 0.4162
C31 C 0.8381(8) 0.7099(3) 0.2849(3)
H25 H 0.7106 0.7073 0.3068
H26 H 0.8076 0.7458 0.2489
C32 C 0.8771(8) 0.6329(3) 0.2565(3)
C11 C 0.6140(8) 0.0063(3) 0.3133(2)
H9 H 0.5279 0.0268 0.2763
C12 C 0.5364(8) 0.0078(3) 0.3720(2)
H10 H 0.4014 0.0297 0.3741
C19 C 0.2799(8) 0.0130(3) 0.0554(2)
C20 C 0.4278(8) 0.0708(3) 0.0694(3)
H16 H 0.4027 0.1168 0.0477
C21 C 0.6117(8) 0.0607(3) 0.1151(3)
H17 H 0.7080 0.1010 0.1238
C22 C 0.0802(8) 0.0243(3) 0.0078(2)
Zn4 Zn 0.06871(9) 0.01380(3) 0.78062(3)
N3_2 N 0.1918(6) 0.0233(2) 0.69400(19)
C35_2 C 0.3454(8) 0.0224(3) 0.5720(2)
C36_2 C 0.1482(8) 0.0551(3) 0.5789(2)
H29_2 H 0.0636 0.0775 0.5426
C37_2 C 0.0764(8) 0.0548(3) 0.6388(3)
C38_2 C 0.4164(8) 0.0203(3) 0.5076(2)
H31 H 0.3393 0.0496 0.4742
C13 C 0.6546(8) 0.9776(3) 0.4280(2)
C14 C 0.8518(8) 0.9449(3) 0.4211(2)
H11 H 0.9364 0.9225 0.4574
C15 C 0.9236(8) 0.9452(3) 0.3612(3)
C16 C 0.5836(8) 0.9797(3) 0.4924(2)
H13_2 H 0.6607 0.9504 0.5258
C17 C 0.5186(8) 0.9393(3) 0.1341(3)
H14 H 0.5486 0.8936 0.1559
C18 C 0.3311(8) 0.9454(3) 0.0892(3)
H15 H 0.2374 0.9044 0.0812
C33_2 C 0.3860(8) 0.9937(3) 0.6867(2)
H27_2 H 0.4721 0.9732 0.7237
C34_2 C 0.4636(8) 0.9922(3) 0.6280(2)
H28_2 H 0.5986 0.9703 0.6259
N5_2 N 0.3391(6) 0.0041(2) 0.85185(18)
C39_2 C 0.4814(8) 0.0607(3) 0.8659(3)
H32_2 H 0.4514 0.1064 0.8441
C40_2 C 0.6689(8) 0.0546(3) 0.9108(3)
H33_2 H 0.7626 0.0956 0.9188
C41_2 C 0.7201(8) 0.9870(3) 0.9446(2)
C42_2 C 0.5722(8) 0.9292(3) 0.9306(3)
H34_2 H 0.5973 0.8832 0.9523
C43_2 C 0.3883(8) 0.9393(3) 0.8849(3)
H35_2 H 0.2920 0.8990 0.8762
C44_2 C 0.9198(8) 0.9757(3) 0.9922(2)
O2_2 O 0.1838(6) 0.5845(2) 0.74284(18)
C1_2 C 0.1109(10) 0.6453(4) 0.7195(3)
C2_2 C 0.2269(8) 0.7171(3) 0.7412(2)
H1_2 H 0.3779 0.7140 0.7345
H2_2 H 0.1587 0.7588 0.7152
C3_2 C 0.2160(8) 0.7300(3) 0.8143(3)
C4_2 C 0.3878(9) 0.7059(3) 0.8612(3)
H3_2 H 0.5085 0.6836 0.8474
C5_2 C 0.3839(10) 0.7143(3) 0.9267(3)
H4_2 H 0.5029 0.6992 0.9574
C6_2 C 0.2047(11) 0.7449(3) 0.9478(3)
H5_2 H 0.1994 0.7494 0.9928
C7_2 C 0.0303(10) 0.7693(3) 0.9015(3)
C8_2 C 0.0309(8) 0.7622(3) 0.8338(3)
O5_2 O 0.0621(6) 0.1463(2) 0.8190(2)
O7_2 O 0.1686(6) 0.3799(2) 0.80285(19)
O8_2 O 0.0485(6) 0.41594(19) 0.70091(18)
H24_2 H 0.0900 0.2909 0.5838
C31_2 C 0.1619(8) 0.2901(3) 0.7151(3)
H25_2 H 0.2894 0.2927 0.6932
H26_2 H 0.1924 0.2542 0.7511
C32_2 C 0.1229(8) 0.3671(3) 0.7435(3)
O9 O 0.0485(6) 0.08406(19) 0.20091(18)
Zn1 Zn 0.06871(9) 0.48620(3) 0.28062(3)
O1_2 O 0.0621(6) 0.3537(2) 0.3190(2)
O3_2 O 0.1686(6) 0.1201(2) 0.30285(19)
N1 N 0.1918(6) 0.4767(2) 0.19400(19)
N2 N 0.3391(6) 0.4959(2) 0.35185(18)
H6_2 H 0.0900 0.2091 0.0838
C9_2 C 0.1619(8) 0.2099(3) 0.2151(3)
H7_2 H 0.2894 0.2073 0.1932
H8_2 H 0.1924 0.2458 0.2511
C10_2 C 0.1229(8) 0.1329(3) 0.2435(3)
C11_2 C 0.3860(8) 0.5063(3) 0.1867(2)
H9_2 H 0.4721 0.5268 0.2237
C12_2 C 0.4636(8) 0.5078(3) 0.1280(2)
H10_2 H 0.5986 0.5297 0.1259
C13_2 C 0.3454(8) 0.4776(3) 0.0720(2)
C14_2 C 0.1482(8) 0.4449(3) 0.0789(2)
H11_2 H 0.0636 0.4225 0.0426
C15_2 C 0.0764(8) 0.4452(3) 0.1388(3)
C16_2 C 0.4164(8) 0.4797(3) 0.0076(2)
C17_2 C 0.4814(8) 0.4393(3) 0.3659(3)
H14_2 H 0.4514 0.3936 0.3441
C18_2 C 0.6689(8) 0.4454(3) 0.4108(3)
H15_2 H 0.7626 0.4044 0.4188
C19_2 C 0.7201(8) 0.5130(3) 0.4446(2)
C20_2 C 0.5722(8) 0.5708(3) 0.4306(3)
H16_2 H 0.5973 0.6168 0.4523
C21_2 C 0.3883(8) 0.5607(3) 0.3849(3)
H17_2 H 0.2920 0.6010 0.3762
C22_2 C 0.9198(8) 0.5243(3) 0.4922(2)
H18 H 0.9349 0.5706 0.5137
O6_2 O 0.1838(6) 0.9155(2) 0.24284(18)
C23_2 C 0.1109(10) 0.8547(4) 0.2195(3)
C24_2 C 0.2269(8) 0.7829(3) 0.2412(2)
H19_2 H 0.3779 0.7860 0.2345
H20_2 H 0.1587 0.7412 0.2152
C25_2 C 0.2160(8) 0.7700(3) 0.3143(3)
C26_2 C 0.3878(9) 0.7941(3) 0.3612(3)
H21_2 H 0.5085 0.8164 0.3474
C27_2 C 0.3839(10) 0.7857(3) 0.4267(3)
H22_2 H 0.5029 0.8008 0.4574
C28_2 C 0.2047(11) 0.7551(3) 0.4478(3)
H23_2 H 0.1994 0.7506 0.4928
C29_2 C 0.0303(10) 0.7307(3) 0.4015(3)
C30_2 C 0.0309(8) 0.7378(3) 0.3338(3)
H31_2 H 0.6607 0.5496 0.0258
H12_2 H 0.0573 0.9230 0.3582
H18_2 H 0.0651 0.0706 0.9863
H36_2 H 0.9349 0.9294 0.0137
loop_
_geom_bond_atom_site_label_1
_geom_bond_atom_site_label_2
_geom_bond_site_symmetry_1
_geom_bond_site_symmetry_2
Zn5 N5 1_555 1_555
N5 C39 1_555 1_555
C39 H32 1_555 1_555
C40 C39 1_555 1_555
H33 C40 1_555 1_555
C41 C40 1_555 1_555
C42 C41 1_555 1_555
H34 C42 1_555 1_555
C43 N5 1_555 1_555
H35 C43 1_555 1_555
H36 C44 1_555 1_555
C41 C44 1_555 1_555
C42 C43 1_555 1_555
Zn5 N3 1_555 1_555
N3 C33 1_555 1_555
C33 H27 1_555 1_555
C34 C33 1_555 1_555
H28 C34 1_555 1_555
C35 C34 1_555 1_555
C36 C35 1_555 1_555
H29 C36 1_555 1_555
C37 N3 1_555 1_555
C35 C38 1_555 1_555
C36 C37 1_555 1_555
Zn5 O1 1_555 1_555
O3 C10 1_555 1_555
O4 C10 1_555 1_555
H7 C9 1_555 1_555
H8 C9 1_555 1_555
C10 C9 1_555 1_555
C23 O6 1_555 1_555
C24 C23 1_555 1_555
H19 C24 1_555 1_555
H20 C24 1_555 1_555
C25 C24 1_555 1_555
C26 C25 1_555 1_555
H21 C26 1_555 1_555
C27 C26 1_555 1_555
H22 C27 1_555 1_555
C28 C27 1_555 1_555
H23 C28 1_555 1_555
C29 C28 1_555 1_555
C30 C25 1_555 1_555
C29 C30 1_555 1_555
C1 O2 1_555 1_555
C2 C1 1_555 1_555
H1 C2 1_555 1_555
H2 C2 1_555 1_555
C3 C2 1_555 1_555
C4 C3 1_555 1_555
H3 C4 1_555 1_555
C5 C4 1_555 1_555
H4 C5 1_555 1_555
C6 C5 1_555 1_555
H5 C6 1_555 1_555
C7 C6 1_555 1_555
C8 C3 1_555 1_555
Zn2 O5 1_555 1_555
O7 C32 1_555 1_555
N4 Zn2 1_555 1_555
N6 Zn2 1_555 1_555
H25 C31 1_555 1_555
H26 C31 1_555 1_555
C32 O8 1_555 1_555
C7 C8 1_555 1_555
C31 C32 1_555 1_555
H9 C11 1_555 1_555
C12 C11 1_555 1_555
H10 C12 1_555 1_555
C20 C19 1_555 1_555
H16 C20 1_555 1_555
H17 C21 1_555 1_555
C22 C19 1_555 1_555
Zn4 N3_2 1_555 1_555
C36_2 C35_2 1_555 1_555
H29_2 C36_2 1_555 1_555
C37_2 N3_2 1_555 1_555
H31 C38_2 1_555 1_555
C20 C21 1_555 1_555
C35_2 C38_2 1_555 1_555
C36_2 C37_2 1_555 1_555
C14 C13 1_555 1_555
H11 C14 1_555 1_555
C15 N4 1_555 1_555
C16 C13 1_555 1_555
H13_2 C16 1_555 1_555
C17 N6 1_555 1_555
H14 C17 1_555 1_555
C18 C17 1_555 1_555
H15 C18 1_555 1_555
C33_2 H27_2 1_555 1_555
C34_2 C33_2 1_555 1_555
H28_2 C34_2 1_555 1_555
C14 C15 1_555 1_555
Zn4 N5_2 1_555 1_555
N5_2 C39_2 1_555 1_555
C39_2 H32_2 1_555 1_555
C40_2 C39_2 1_555 1_555
H33_2 C40_2 1_555 1_555
C42_2 C41_2 1_555 1_555
H34_2 C42_2 1_555 1_555
H35_2 C43_2 1_555 1_555
C41_2 C44_2 1_555 1_555
C42_2 C43_2 1_555 1_555
C1_2 O2_2 1_555 1_555
C2_2 C1_2 1_555 1_555
H1_2 C2_2 1_555 1_555
H2_2 C2_2 1_555 1_555
C3_2 C2_2 1_555 1_555
C4_2 C3_2 1_555 1_555
H3_2 C4_2 1_555 1_555
C5_2 C4_2 1_555 1_555
H4_2 C5_2 1_555 1_555
C6_2 C5_2 1_555 1_555
H5_2 C6_2 1_555 1_555
C7_2 C6_2 1_555 1_555
C8_2 C3_2 1_555 1_555
Zn4 O5_2 1_555 1_555
O7_2 C32_2 1_555 1_555
H25_2 C31_2 1_555 1_555
H26_2 C31_2 1_555 1_555
C32_2 O8_2 1_555 1_555
C7_2 C8_2 1_555 1_555
C31_2 C32_2 1_555 1_555
Zn1 O1_2 1_555 1_555
O3_2 C10_2 1_555 1_555
O9 C10_2 1_555 1_555
N1 Zn1 1_555 1_555
N2 Zn1 1_555 1_555
H7_2 C9_2 1_555 1_555
H8_2 C9_2 1_555 1_555
C10_2 C9_2 1_555 1_555
C11_2 N1 1_555 1_555
H9_2 C11_2 1_555 1_555
C12_2 C11_2 1_555 1_555
H10_2 C12_2 1_555 1_555
C13_2 C12_2 1_555 1_555
C14_2 C13_2 1_555 1_555
H11_2 C14_2 1_555 1_555
C15_2 N1 1_555 1_555
C16_2 C13_2 1_555 1_555
C17_2 N2 1_555 1_555
H14_2 C17_2 1_555 1_555
C18_2 C17_2 1_555 1_555
H15_2 C18_2 1_555 1_555
C19_2 C18_2 1_555 1_555
C20_2 C19_2 1_555 1_555
H16_2 C20_2 1_555 1_555
C21_2 N2 1_555 1_555
H17_2 C21_2 1_555 1_555
C22_2 C19_2 1_555 1_555
H18 C22_2 1_555 1_555
C23_2 O6_2 1_555 1_555
C24_2 C23_2 1_555 1_555
H19_2 C24_2 1_555 1_555
H20_2 C24_2 1_555 1_555
C25_2 C24_2 1_555 1_555
C26_2 C25_2 1_555 1_555
H21_2 C26_2 1_555 1_555
C27_2 C26_2 1_555 1_555
H22_2 C27_2 1_555 1_555
C28_2 C27_2 1_555 1_555
H23_2 C28_2 1_555 1_555
C29_2 C28_2 1_555 1_555
C30_2 C25_2 1_555 1_555
C14_2 C15_2 1_555 1_555
C20_2 C21_2 1_555 1_555
C29_2 C30_2 1_555 1_555

#END
