
###############################################################################
#
# This file contains modified crystal structure data generated from the
# MOF subset of the Cambridge Structural Database (CSD) v543 
# hosted by the Cambridge Crystallographic Data Centre (CCDC).
#
# This work is licensed under the Creative Commons
# Attribution-NonCommercial-ShareAlike 4.0 International License.
# To view a copy of this license, visit
# http://creativecommons.org/licenses/by-nc-sa/4.0/
# or send a letter to
# Creative Commons, PO Box 1866, Mountain View, CA 94042, USA.
#
# CIF created using the CSD Python API on 29 September 2022
# The structure has been converted into the P1 space group
# The structure has a 3D framework
# The original CSD entry CUYQIX is in the triclinic crystal system
# The framework has been calculated to contain at least 10.0% void space
# The void calculation uses a probe of radius 1.32A, grid spacing 0.4
#
###############################################################################

data_CUYQIX
_chemical_formula_moiety         '(C44 H58 N8 O16 Zn10)n'
_symmetry_cell_setting           triclinic
_symmetry_space_group_name_H-M   'P 1'
_symmetry_Int_Tables_number      1
_space_group_name_Hall           'P 1'
loop_
_symmetry_equiv_pos_site_id
_symmetry_equiv_pos_as_xyz
1 x,y,z
_cell_length_a                   8.3207(6)
_cell_length_b                   13.1120(10)
_cell_length_c                   13.4253(10)
_cell_angle_alpha                71.716(1)
_cell_angle_beta                 79.758(1)
_cell_angle_gamma                88.055(1)
_cell_volume                     1368.23
loop_
_atom_site_label
_atom_site_type_symbol
_atom_site_fract_x
_atom_site_fract_y
_atom_site_fract_z
O13 O 0.01024(17) 0.63705(11) 0.31773(12)
Zn2 Zn 0.0000 1.0000 0.0000
Zn3 Zn 0.77437(3) 0.636989(17) 0.360838(17)
O9 O 0.74636(18) 0.71227(12) 0.16768(12)
O10 O 0.58935(18) 0.72749(12) 0.31208(12)
O14 O 0.00937(18) 0.81085(11) 0.30077(12)
O15 O 0.18361(17) 0.91482(11) 0.06593(11)
N6 N 0.7521(2) 0.47815(13) 0.36745(14)
N9 N 0.7351(2) 0.64515(13) 0.51293(13)
C39 C 0.6253(2) 0.75083(15) 0.21104(17)
C40 C 0.5208(2) 0.82951(16) 0.14258(16)
H54 H 0.5752 0.9013 0.1168
H55 H 0.5146 0.8072 0.0794
C41 C 0.3468(2) 0.83904(16) 0.19916(16)
H56 H 0.3528 0.8538 0.2671
C42 C 0.2513(2) 0.73434(16) 0.22559(17)
H57 H 0.3122 0.6757 0.2685
H58 H 0.2475 0.7195 0.1581
C43 C 0.0784(2) 0.73047(16) 0.28536(15)
C44 C 0.2679(2) 0.93470(16) 0.12708(16)
C7 C 0.0895(3) 0.02605(16) 0.56914(18)
H11 H 0.1924 0.0488 0.5843
H12 H 0.0029 0.0195 0.6319
C30 C 0.0433(3) 0.10945(16) 0.47279(18)
H42 H 0.1311 0.1170 0.4104
H43 H 0.0318 0.1798 0.4859
C16 C 0.4243(3) 0.41313(19) 0.98403(17)
H23 H 0.3279 0.3795 0.9718
H24 H 0.5163 0.3633 0.9834
N10 N 0.6127(2) 0.56867(14) 0.91158(13)
C31 C 0.6421(2) 0.72301(16) 0.53666(16)
H44 H 0.5940 0.7724 0.4823
C32 C 0.6141(2) 0.73367(17) 0.63732(17)
H45 H 0.5477 0.7896 0.6514
C33 C 0.6832(2) 0.66249(17) 0.71792(16)
C34 C 0.7809(3) 0.58258(17) 0.69267(17)
H46 H 0.8311 0.5325 0.7455
C35 C 0.8041(2) 0.57699(16) 0.59072(16)
H47 H 0.8718 0.5226 0.5743
C36 C 0.6520(3) 0.67261(18) 0.82839(17)
H48 H 0.5603 0.7217 0.8342
H49 H 0.7502 0.7048 0.8401
C37 C 0.4686(3) 0.51757(19) 0.89598(17)
H50 H 0.3753 0.5666 0.8951
H51 H 0.4918 0.5038 0.8264
Zn2_2 Zn 1.0000 1.0000 0.0000
O7 O 0.86690(19) 0.96860(13) 0.15697(12)
H1 H 0.778(2) 0.990(2) 0.181(2)
H2 H 0.899(3) 0.9199(18) 0.2080(17)
H3 H 0.862(3) 0.8109(17) 0.0402(15)
N7 N 0.8887(2) 0.07907(13) 0.44947(15)
C23 C 0.8121(3) 0.45880(16) 0.27579(17)
H34 H 0.8341 0.5180 0.2122
C24 C 0.8434(3) 0.35685(17) 0.26979(17)
H35 H 0.8840 0.3467 0.2029
C25 C 0.8155(2) 0.26882(16) 0.36162(17)
C26 C 0.7529(3) 0.28871(16) 0.45652(18)
H36 H 0.7312 0.2309 0.5213
C27 C 0.7225(2) 0.39275(16) 0.45629(17)
H37 H 0.6785 0.4048 0.5219
C28 C 0.8495(3) 0.15783(17) 0.35274(18)
H38 H 0.9419 0.1632 0.2935
H39 H 0.7525 0.1312 0.3342
Zn2_3 Zn 0.0000 -0.0000 0.0000
O16 O 0.29648(19) 0.02672(11) 0.13089(13)
O18 O 0.08812(18) 0.14506(12) 0.01609(12)
H33 H 0.157(3) 0.1189(19) 0.0556(17)
Zn2_4 Zn 0.0000 -0.0000 1.0000
Zn4 Zn 0.22563(3) 0.363011(17) 0.639162(17)
O17 O 0.13310(19) 0.03140(13) 0.84303(12)
H30 H 0.222(2) 0.010(2) 0.819(2)
H31 H 0.101(3) 0.0801(18) 0.7920(17)
H32 H 0.138(3) 0.1891(17) 0.9598(15)
Zn2_5 Zn 1.0000 -0.0000 1.0000
O1 O 0.25364(18) 0.28773(12) 0.83232(12)
O2 O 0.41065(18) 0.27251(12) 0.68792(12)
O3 O 0.98976(17) 0.36295(11) 0.68227(12)
O4 O 0.99063(18) 0.18915(11) 0.69923(12)
O5 O 0.81639(17) 0.08518(11) 0.93407(11)
N1 N 0.2479(2) 0.52185(13) 0.63255(14)
N2 N 0.1113(2) 0.92093(13) 0.55053(15)
N3 N 0.2649(2) 0.35485(13) 0.48707(13)
N4 N 0.3873(2) 0.43133(14) 0.08842(13)
C1 C 0.1879(3) 0.54120(16) 0.72421(17)
H5 H 0.1659 0.4820 0.7878
C2 C 0.1566(3) 0.64315(17) 0.73021(17)
H6 H 0.1160 0.6533 0.7971
C3 C 0.1845(2) 0.73118(16) 0.63838(17)
C4 C 0.2471(3) 0.71129(16) 0.54348(18)
H7 H 0.2688 0.7691 0.4787
C5 C 0.2775(2) 0.60725(16) 0.54371(17)
H8 H 0.3215 0.5952 0.4781
C6 C 0.1505(3) 0.84217(17) 0.64726(18)
H9 H 0.0581 0.8368 0.7065
H10 H 0.2475 0.8688 0.6658
C9 C 0.3579(2) 0.27699(16) 0.46334(16)
H15 H 0.4060 0.2276 0.5177
C10 C 0.3859(2) 0.26633(17) 0.36268(17)
H16 H 0.4523 0.2104 0.3486
C11 C 0.3168(2) 0.33751(17) 0.28208(16)
C12 C 0.2191(3) 0.41742(17) 0.30733(17)
H17 H 0.1689 0.4675 0.2545
C13 C 0.1959(2) 0.42301(16) 0.40928(16)
H18 H 0.1282 0.4774 0.4257
C14 C 0.3480(3) 0.32739(18) 0.17161(17)
H19 H 0.4397 0.2783 0.1658
H20 H 0.2498 0.2952 0.1599
C15 C 0.5314(3) 0.48243(19) 0.10402(17)
H21 H 0.6247 0.4334 0.1049
H22 H 0.5082 0.4962 0.1736
C17 C 0.3747(2) 0.24917(15) 0.78896(17)
C18 C 0.4792(2) 0.17049(16) 0.85742(16)
H25 H 0.4248 0.0987 0.8832
H26 H 0.4854 0.1928 0.9206
C19 C 0.6532(2) 0.16096(16) 0.80084(16)
H27 H 0.6472 0.1462 0.7329
C20 C 0.7487(2) 0.26566(16) 0.77441(17)
H28 H 0.6878 0.3243 0.7315
H29 H 0.7525 0.2805 0.8419
C21 C 0.9216(2) 0.26953(16) 0.71464(15)
C22 C 0.7321(2) 0.06530(16) 0.87292(16)
C38 C 0.5757(3) 0.58687(19) 0.01597(17)
H52 H 0.6721 0.6205 0.0282
H53 H 0.4837 0.6367 0.0166
C8 C 0.9567(3) 0.89055(16) 0.52721(18)
H13 H 0.8689 0.8830 0.5896
H14 H 0.9682 0.8202 0.5141
C29 C 0.9105(3) 0.97395(16) 0.43086(18)
H40 H 0.8076 0.9512 0.4157
H41 H 0.9971 0.9805 0.3681
Zn2_6 Zn 0.0000 1.0000 1.0000
Zn2_7 Zn 1.0000 -0.0000 0.0000
Zn2_8 Zn 1.0000 1.0000 1.0000
O6 O 0.70352(19) 0.97328(11) 0.86911(13)
O8 O 0.91188(18) 0.85494(12) 0.98391(12)
H4 H 0.843(3) 0.8811(19) 0.9444(17)
loop_
_geom_bond_atom_site_label_1
_geom_bond_atom_site_label_2
_geom_bond_site_symmetry_1
_geom_bond_site_symmetry_2
Zn3 O10 1_555 1_555
O9 C39 1_555 1_555
O10 C39 1_555 1_555
O13 C43 1_555 1_555
O14 C43 1_555 1_555
O15 Zn2 1_555 1_555
N6 Zn3 1_555 1_555
N9 Zn3 1_555 1_555
C39 C40 1_555 1_555
C40 H54 1_555 1_555
H55 C40 1_555 1_555
C41 C40 1_555 1_555
H56 C41 1_555 1_555
C42 C41 1_555 1_555
H57 C42 1_555 1_555
H58 C42 1_555 1_555
C43 C42 1_555 1_555
C44 O15 1_555 1_555
C41 C44 1_555 1_555
H11 C7 1_555 1_555
H12 C7 1_555 1_555
C30 C7 1_555 1_555
H42 C30 1_555 1_555
H43 C30 1_555 1_555
H23 C16 1_555 1_555
H24 C16 1_555 1_555
N9 C31 1_555 1_555
N10 C36 1_555 1_555
C31 H44 1_555 1_555
C32 C31 1_555 1_555
H45 C32 1_555 1_555
C33 C32 1_555 1_555
C34 C33 1_555 1_555
H46 C34 1_555 1_555
C35 N9 1_555 1_555
H47 C35 1_555 1_555
C36 C33 1_555 1_555
H48 C36 1_555 1_555
H49 C36 1_555 1_555
C37 C16 1_555 1_555
H50 C37 1_555 1_555
H51 C37 1_555 1_555
N10 C37 1_555 1_555
C34 C35 1_555 1_555
O7 Zn2_2 1_555 1_555
H1 O7 1_555 1_555
H2 O7 1_555 1_555
N6 C23 1_555 1_555
N7 C28 1_555 1_555
C23 H34 1_555 1_555
C24 C23 1_555 1_555
H35 C24 1_555 1_555
C25 C24 1_555 1_555
C26 C25 1_555 1_555
H36 C26 1_555 1_555
C27 N6 1_555 1_555
H37 C27 1_555 1_555
C28 C25 1_555 1_555
H38 C28 1_555 1_555
H39 C28 1_555 1_555
C26 C27 1_555 1_555
O18 Zn2_3 1_555 1_555
H33 O18 1_555 1_555
O17 Zn2_4 1_555 1_555
H30 O17 1_555 1_555
H31 O17 1_555 1_555
Zn4 O2 1_555 1_555
Zn2_5 O5 1_555 1_555
O1 C17 1_555 1_555
O2 C17 1_555 1_555
O3 C21 1_555 1_555
O4 C21 1_555 1_555
O5 C22 1_555 1_555
N1 Zn4 1_555 1_555
N2 C6 1_555 1_555
N3 Zn4 1_555 1_555
N4 C14 1_555 1_555
C1 N1 1_555 1_555
H5 C1 1_555 1_555
C2 C1 1_555 1_555
H6 C2 1_555 1_555
C3 C2 1_555 1_555
C4 C3 1_555 1_555
H7 C4 1_555 1_555
C5 N1 1_555 1_555
H8 C5 1_555 1_555
C6 C3 1_555 1_555
H9 C6 1_555 1_555
H10 C6 1_555 1_555
C9 N3 1_555 1_555
H15 C9 1_555 1_555
C10 C9 1_555 1_555
H16 C10 1_555 1_555
C11 C10 1_555 1_555
C12 C11 1_555 1_555
H17 C12 1_555 1_555
C13 N3 1_555 1_555
H18 C13 1_555 1_555
C14 C11 1_555 1_555
H19 C14 1_555 1_555
H20 C14 1_555 1_555
C15 N4 1_555 1_555
H21 C15 1_555 1_555
H22 C15 1_555 1_555
C17 C18 1_555 1_555
C18 H25 1_555 1_555
H26 C18 1_555 1_555
C19 C18 1_555 1_555
H27 C19 1_555 1_555
C20 C19 1_555 1_555
H28 C20 1_555 1_555
H29 C20 1_555 1_555
C21 C20 1_555 1_555
C22 C19 1_555 1_555
C38 C15 1_555 1_555
H52 C38 1_555 1_555
H53 C38 1_555 1_555
C4 C5 1_555 1_555
C12 C13 1_555 1_555
H13 C8 1_555 1_555
H14 C8 1_555 1_555
C29 C8 1_555 1_555
H40 C29 1_555 1_555
H41 C29 1_555 1_555
O8 Zn2_8 1_555 1_555
H4 O8 1_555 1_555

#END
