
###############################################################################
#
# This file contains modified crystal structure data generated from the
# MOF subset of the Cambridge Structural Database (CSD) v543 
# hosted by the Cambridge Crystallographic Data Centre (CCDC).
#
# This work is licensed under the Creative Commons
# Attribution-NonCommercial-ShareAlike 4.0 International License.
# To view a copy of this license, visit
# http://creativecommons.org/licenses/by-nc-sa/4.0/
# or send a letter to
# Creative Commons, PO Box 1866, Mountain View, CA 94042, USA.
#
# CIF created using the CSD Python API on 29 September 2022
# The structure has been converted into the P1 space group
# The structure has a 3D framework
# The original CSD entry CUYVOI is in the monoclinic crystal system
# The framework has been calculated to contain at least 10.0% void space
# The void calculation uses a probe of radius 1.32A, grid spacing 0.4
#
###############################################################################

data_CUYVOI
_chemical_formula_moiety         '(C216 H176 N63 O60 Zn16)n'
_symmetry_cell_setting           triclinic
_symmetry_space_group_name_H-M   'P 1'
_symmetry_Int_Tables_number      1
_space_group_name_Hall           'P 1'
loop_
_symmetry_equiv_pos_site_id
_symmetry_equiv_pos_as_xyz
1 x,y,z
_cell_length_a                   38.967(5)
_cell_length_b                   8.985(5)
_cell_length_c                   19.114(5)
_cell_angle_alpha                90
_cell_angle_beta                 92.438(5)
_cell_angle_gamma                90
_cell_volume                     6686.11
loop_
_atom_site_label
_atom_site_type_symbol
_atom_site_fract_x
_atom_site_fract_y
_atom_site_fract_z
Zn11 Zn 0.029070(16) 0.07405(8) 0.91122(3)
C20 C 0.02070(13) 0.3761(6) 0.0192(3)
C22 C 0.04503(13) 0.2537(6) 0.0408(3)
O3 O 0.05874(11) 0.2575(5) 0.0996(2)
N19 N 0.01511(11) 0.1679(5) 0.6217(2)
O4 O 0.05253(9) 0.1577(4) 0.99446(19)
C45 C 0.03263(14) 0.7700(6) 0.9491(3)
C46 C 0.01493(13) 0.6292(6) 0.9738(3)
C48 C 0.03508(13) 0.5067(6) 0.9939(3)
H43 H 0.0588 0.5123 0.9903
O9 O 0.06398(11) 0.7723(5) 0.9453(3)
O10 O 0.01271(10) 0.8781(4) 0.9351(2)
Zn10 Zn 0.029070(16) 0.92595(8) 0.41122(3)
N18 N 0.01511(11) 0.8321(5) 0.1217(2)
C35 C 0.82835(17) 0.0572(8) 0.0762(3)
H31 H 0.8225 0.1144 0.1145
C36 C 0.85553(18) 0.0826(8) 0.0361(3)
H32 H 0.8718 0.1579 0.0419
Zn1 Zn 0.773503(18) 0.17762(8) 0.59897(4)
C6 C 0.87782(14) 0.0444(7) 0.4281(3)
H6 H 0.8750 0.1445 0.4098
H7 H 0.9012 0.0361 0.4473
C7 C 0.82695(14) 0.1113(6) 0.4974(3)
H8 H 0.8203 0.1932 0.4703
C10 C 0.88535(15) 0.0214(6) 0.3023(3)
H11 H 0.9026 0.0919 0.3194
H12 H 0.8660 0.0790 0.2838
H15 H 0.9441 0.0519 0.2334
C18 C 0.96737(14) 0.2300(6) 0.0509(3)
C19 C 0.98507(13) 0.3708(6) 0.0262(3)
C21 C 0.96492(13) 0.4933(6) 0.0061(3)
H21 H 0.9412 0.4877 0.0097
C27 C 0.74443(13) 0.0277(7) 0.4229(3)
O1 O 0.93602(11) 0.2277(5) 0.0547(3)
O2 O 0.98729(10) 0.1219(4) 0.0649(2)
O5 O 0.72922(11) 0.0836(5) 0.6058(2)
O7 O 0.72851(12) 0.1349(5) 0.4514(2)
O8 O 0.75827(13) 0.0380(6) 0.3669(2)
N3 N 0.81091(12) 0.0656(5) 0.5519(2)
N4 N 0.85436(11) 0.0248(6) 0.4853(2)
Zn4 Zn 0.726497(18) 0.32238(8) 0.40103(4)
Zn8 Zn 0.970930(16) 0.07405(8) 0.58878(3)
Zn12 Zn 0.970930(16) 0.92595(8) 0.08878(3)
C28 C 0.80322(17) 0.3468(7) 0.7239(3)
H23 H 0.7990 0.4378 0.7019
C29 C 0.81976(16) 0.3288(7) 0.7870(3)
H24 H 0.8287 0.4030 0.8164
C30 C 0.80399(15) 0.1105(7) 0.7439(3)
H25 H 0.8003 0.0086 0.7396
C31 C 0.83410(13) 0.0983(7) 0.8611(3)
H26 H 0.8222 0.0038 0.8639
H27 H 0.8283 0.1561 0.9018
C32 C 0.87320(13) 0.0671(6) 0.8660(3)
C38 C 0.88537(16) 0.1698(8) 0.7008(3)
H35 H 0.8646 0.2180 0.7067
C39 C 0.90724(16) 0.1940(8) 0.6494(3)
H36 H 0.9042 0.2633 0.6135
C40 C 0.92935(14) 0.0211(7) 0.7151(3)
C41 C 0.89225(14) 0.2131(6) 0.8797(3)
H38 H 0.8816 0.2888 0.8498
H39 H 0.8888 0.2423 0.9278
C42 C 0.94593(16) 0.3225(7) 0.8319(3)
H40 H 0.9356 0.4011 0.8074
C43 C 0.97972(15) 0.2932(7) 0.8382(3)
H41 H 0.9969 0.3491 0.8184
C44 C 0.95418(13) 0.1232(6) 0.8960(3)
H42 H 0.9501 0.0403 0.9236
O13 O 0.94747(9) 0.8423(4) 0.00554(19)
O15 O 0.94747(9) 0.1577(4) 0.50554(19)
O19 O 0.77149(12) 0.3651(5) 0.5486(2)
N9 N 0.79363(13) 0.2108(6) 0.6972(2)
N11 N 0.82055(11) 0.1766(6) 0.7986(2)
N15 N 0.89973(11) 0.0601(5) 0.7433(2)
N16 N 0.93494(12) 0.0989(5) 0.6585(2)
N17 N 0.98489(11) 0.1679(5) 0.8783(2)
N20 N 0.92963(11) 0.2145(5) 0.8687(2)
C47 C 0.97930(13) 0.6239(6) 0.9808(3)
C49 C 0.95497(13) 0.7463(6) 0.9592(3)
O12 O 0.94126(11) 0.7425(5) 0.9004(2)
Zn7 Zn 0.773503(18) 0.82238(8) 0.09897(4)
N12 N 0.81091(12) 0.9344(5) 0.0519(2)
C1 C 0.80322(17) 0.6532(7) 0.2239(3)
H1 H 0.7990 0.5622 0.2019
C2 C 0.81976(16) 0.6712(7) 0.2870(3)
H2 H 0.8287 0.5970 0.3164
C3 C 0.80399(15) 0.8895(7) 0.2439(3)
H3 H 0.8003 0.9914 0.2396
C4 C 0.83410(13) 0.9017(7) 0.3611(3)
H4 H 0.8222 0.9962 0.3639
H5 H 0.8283 0.8439 0.4018
C5 C 0.87320(13) 0.9329(6) 0.3660(3)
C8 C 0.82835(17) 0.9428(8) 0.5762(3)
H9 H 0.8225 0.8856 0.6145
C9 C 0.85553(18) 0.9174(8) 0.5361(3)
H10 H 0.8718 0.8421 0.5419
C11 C 0.88537(16) 0.8302(8) 0.2008(3)
H13 H 0.8646 0.7820 0.2067
C12 C 0.90724(16) 0.8060(8) 0.1494(3)
H14 H 0.9042 0.7367 0.1135
C13 C 0.92935(14) 0.9789(7) 0.2151(3)
C14 C 0.89225(14) 0.7869(6) 0.3797(3)
H16 H 0.8816 0.7112 0.3498
H17 H 0.8888 0.7577 0.4278
C15 C 0.94593(16) 0.6775(7) 0.3319(3)
H18 H 0.9356 0.5989 0.3074
C16 C 0.97972(15) 0.7068(7) 0.3382(3)
H19 H 0.9969 0.6509 0.3184
C17 C 0.95418(13) 0.8768(6) 0.3960(3)
H20 H 0.9501 0.9597 0.4236
C23 C 0.71304(14) 0.9919(7) 0.5660(3)
C24 C 0.73352(13) 0.8715(6) 0.5311(3)
C25 C 0.73794(13) 0.7382(6) 0.5656(3)
H22 H 0.7296 0.7296 0.6103
C26 C 0.74589(13) 0.8844(6) 0.4626(3)
O6 O 0.68162(10) 0.9851(6) 0.5594(3)
N1 N 0.79363(13) 0.7892(6) 0.1972(2)
N2 N 0.82055(11) 0.8234(6) 0.2986(2)
N5 N 0.89973(11) 0.9399(5) 0.2433(2)
N6 N 0.93494(12) 0.9011(5) 0.1585(2)
N7 N 0.98489(11) 0.8321(5) 0.3783(2)
N8 N 0.92963(11) 0.7855(5) 0.3687(2)
C33 C 0.87782(14) 0.9556(7) 0.9281(3)
H28 H 0.8750 0.8555 0.9098
H29 H 0.9012 0.9639 0.9473
C34 C 0.82695(14) 0.8887(6) 0.9974(3)
H30 H 0.8203 0.8068 0.9703
C37 C 0.88535(15) 0.9786(6) 0.8023(3)
H33 H 0.9026 0.9081 0.8194
H34 H 0.8660 0.9210 0.7838
H37 H 0.9441 0.9481 0.7334
C50 C 0.78696(14) 0.5081(7) 0.4340(3)
C51 C 0.76648(13) 0.6285(6) 0.4689(3)
C52 C 0.76206(13) 0.7618(6) 0.4344(3)
H44 H 0.7704 0.7704 0.3897
C53 C 0.75411(13) 0.6156(6) 0.5374(3)
C54 C 0.75557(13) 0.4723(7) 0.5771(3)
O11 O 0.98729(10) 0.8781(4) 0.5649(2)
O16 O 0.77078(11) 0.4164(5) 0.3942(2)
O17 O 0.81838(10) 0.5149(6) 0.4406(3)
O21 O 0.74173(13) 0.4620(6) 0.6331(2)
N10 N 0.70637(13) 0.2892(6) 0.3028(2)
N13 N 0.68909(12) 0.4344(5) 0.4481(2)
N14 N 0.85436(11) 0.9752(6) 0.9853(2)
C6_2 C 0.12218(14) 0.0444(7) 0.0719(3)
H6_2 H 0.1250 0.1445 0.0902
H7_2 H 0.0988 0.0361 0.0527
C7_2 C 0.17305(14) 0.1113(6) 0.0026(3)
H8_2 H 0.1797 0.1932 0.0297
C10_2 C 0.11465(15) 0.0214(6) 0.1977(3)
H11_2 H 0.0974 0.0919 0.1806
H12_2 H 0.1340 0.0790 0.2162
H15_2 H 0.0559 0.0519 0.2666
C18_2 C 0.03263(14) 0.2300(6) 0.4491(3)
C19_2 C 0.01493(13) 0.3708(6) 0.4738(3)
C21_2 C 0.03508(13) 0.4933(6) 0.4939(3)
H21_2 H 0.0588 0.4877 0.4903
C27_2 C 0.25557(13) 0.0277(7) 0.0771(3)
O1_2 O 0.06398(11) 0.2277(5) 0.4453(3)
O2_2 O 0.01271(10) 0.1219(4) 0.4351(2)
O7_2 O 0.27149(12) 0.1349(5) 0.0486(2)
O8_2 O 0.24173(13) 0.0380(6) 0.1331(2)
N4_2 N 0.14564(11) 0.0248(6) 0.0147(2)
Zn4_2 Zn 0.273503(18) 0.32238(8) 0.09897(4)
C47_2 C 0.02070(13) 0.6239(6) 0.5192(3)
C49_2 C 0.04503(13) 0.7463(6) 0.5408(3)
O12_2 O 0.05874(11) 0.7425(5) 0.5996(2)
O13_2 O 0.05253(9) 0.8423(4) 0.49446(19)
Zn1_2 Zn 0.226497(18) 0.17762(8) 0.90103(4)
O5_2 O 0.27078(11) 0.0836(5) 0.8942(2)
N3_2 N 0.18909(12) 0.0656(5) 0.9481(2)
C28_2 C 0.19678(17) 0.3468(7) 0.7761(3)
H23_2 H 0.2010 0.4378 0.7981
C29_2 C 0.18024(16) 0.3288(7) 0.7130(3)
H24_2 H 0.1713 0.4030 0.6836
C30_2 C 0.19601(15) 0.1105(7) 0.7561(3)
H25_2 H 0.1997 0.0086 0.7604
C31_2 C 0.16590(13) 0.0983(7) 0.6389(3)
H26_2 H 0.1778 0.0038 0.6361
H27_2 H 0.1717 0.1561 0.5982
C32_2 C 0.12680(13) 0.0671(6) 0.6340(3)
C35_2 C 0.17165(17) 0.0572(8) 0.4238(3)
H31_2 H 0.1775 0.1144 0.3855
C36_2 C 0.14447(18) 0.0826(8) 0.4639(3)
H32_2 H 0.1282 0.1579 0.4581
C38_2 C 0.11463(16) 0.1698(8) 0.7992(3)
H35_2 H 0.1354 0.2180 0.7933
C39_2 C 0.09276(16) 0.1940(8) 0.8506(3)
H36_2 H 0.0958 0.2633 0.8865
C40_2 C 0.07065(14) 0.0211(7) 0.7849(3)
C41_2 C 0.10775(14) 0.2131(6) 0.6203(3)
H38_2 H 0.1184 0.2888 0.6502
H39_2 H 0.1112 0.2423 0.5722
C42_2 C 0.05407(16) 0.3225(7) 0.6681(3)
H40_2 H 0.0644 0.4011 0.6926
C43_2 C 0.02028(15) 0.2932(7) 0.6618(3)
H41_2 H 0.0031 0.3491 0.6816
C44_2 C 0.04582(13) 0.1232(6) 0.6040(3)
H42_2 H 0.0499 0.0403 0.5764
O19_2 O 0.22851(12) 0.3651(5) 0.9514(2)
N9_2 N 0.20637(13) 0.2108(6) 0.8028(2)
N11_2 N 0.17945(11) 0.1766(6) 0.7014(2)
N15_2 N 0.10027(11) 0.0601(5) 0.7567(2)
N16_2 N 0.06506(12) 0.0989(5) 0.8415(2)
N20_2 N 0.07037(11) 0.2145(5) 0.6313(2)
C1_2 C 0.19678(17) 0.6532(7) 0.2761(3)
H1_2 H 0.2010 0.5622 0.2981
C2_2 C 0.18024(16) 0.6712(7) 0.2130(3)
H2_2 H 0.1713 0.5970 0.1836
C3_2 C 0.19601(15) 0.8895(7) 0.2561(3)
H3_2 H 0.1997 0.9914 0.2604
C4_2 C 0.16590(13) 0.9017(7) 0.1389(3)
H4_2 H 0.1778 0.9962 0.1361
H5_2 H 0.1717 0.8439 0.0982
C5_2 C 0.12680(13) 0.9329(6) 0.1340(3)
C11_2 C 0.11463(16) 0.8302(8) 0.2992(3)
H13_2 H 0.1354 0.7820 0.2933
C12_2 C 0.09276(16) 0.8060(8) 0.3506(3)
H14_2 H 0.0958 0.7367 0.3865
C13_2 C 0.07065(14) 0.9789(7) 0.2849(3)
C14_2 C 0.10775(14) 0.7869(6) 0.1203(3)
H16_2 H 0.1184 0.7112 0.1502
H17_2 H 0.1112 0.7577 0.0722
C15_2 C 0.05407(16) 0.6775(7) 0.1681(3)
H18_2 H 0.0644 0.5989 0.1926
C16_2 C 0.02028(15) 0.7068(7) 0.1618(3)
H19_2 H 0.0031 0.6509 0.1816
C17_2 C 0.04582(13) 0.8768(6) 0.1040(3)
H20_2 H 0.0499 0.9597 0.0764
C26_2 C 0.25411(13) 0.8844(6) 0.0374(3)
N1_2 N 0.20637(13) 0.7892(6) 0.3028(2)
N2_2 N 0.17945(11) 0.8234(6) 0.2014(2)
N5_2 N 0.10027(11) 0.9399(5) 0.2567(2)
N6_2 N 0.06506(12) 0.9011(5) 0.3415(2)
N8_2 N 0.07037(11) 0.7855(5) 0.1313(2)
Zn5 Zn 0.226497(18) 0.82238(8) 0.40103(4)
C50_2 C 0.21304(14) 0.5081(7) 0.0660(3)
C51_2 C 0.23352(13) 0.6285(6) 0.0311(3)
C52_2 C 0.23794(13) 0.7618(6) 0.0656(3)
H44_2 H 0.2296 0.7704 0.1103
O16_2 O 0.22922(11) 0.4164(5) 0.1058(2)
O17_2 O 0.18162(10) 0.5149(6) 0.0594(3)
N10_2 N 0.29363(13) 0.2892(6) 0.1972(2)
N13_2 N 0.31091(12) 0.4344(5) 0.0519(2)
C8_2 C 0.17165(17) 0.9428(8) 0.9238(3)
H9_2 H 0.1775 0.8856 0.8855
C9_2 C 0.14447(18) 0.9174(8) 0.9639(3)
H10_2 H 0.1282 0.8421 0.9581
C23_2 C 0.28696(14) 0.9919(7) 0.9340(3)
C24_2 C 0.26648(13) 0.8715(6) 0.9689(3)
C25_2 C 0.26206(13) 0.7382(6) 0.9344(3)
H22_2 H 0.2704 0.7296 0.8897
O6_2 O 0.31838(10) 0.9851(6) 0.9406(3)
C33_2 C 0.12218(14) 0.9556(7) 0.5719(3)
H28_2 H 0.1250 0.8555 0.5902
H29_2 H 0.0988 0.9639 0.5527
C34_2 C 0.17305(14) 0.8887(6) 0.5026(3)
H30_2 H 0.1797 0.8068 0.5297
C37_2 C 0.11465(15) 0.9786(6) 0.6977(3)
H33_2 H 0.0974 0.9081 0.6806
H34_2 H 0.1340 0.9210 0.7162
H37_2 H 0.0559 0.9481 0.7666
C53_2 C 0.24589(13) 0.6156(6) 0.9626(3)
C54_2 C 0.24443(13) 0.4723(7) 0.9229(3)
O21_2 O 0.25827(13) 0.4620(6) 0.8669(2)
N12_2 N 0.18909(12) 0.9344(5) 0.4481(2)
N14_2 N 0.14564(11) 0.9752(6) 0.5147(2)
C20_2 C 0.97930(13) 0.3761(6) 0.4808(3)
C22_2 C 0.95497(13) 0.2537(6) 0.4592(3)
O3_2 O 0.94126(11) 0.2575(5) 0.4004(2)
C45_2 C 0.96737(14) 0.7700(6) 0.5509(3)
C46_2 C 0.98507(13) 0.6292(6) 0.5262(3)
C48_2 C 0.96492(13) 0.5067(6) 0.5061(3)
H43_2 H 0.9412 0.5123 0.5097
O9_2 O 0.93602(11) 0.7723(5) 0.5547(3)
Zn12_2 Zn 0.470930(16) 0.42595(8) 0.08878(3)
O13_3 O 0.44747(9) 0.3423(4) 0.00554(19)
Zn11_2 Zn 0.529070(16) 0.57405(8) 0.91122(3)
C45_3 C 0.53263(14) 0.2700(6) 0.9491(3)
C46_3 C 0.51493(13) 0.1292(6) 0.9738(3)
C47_3 C 0.47930(13) 0.1239(6) 0.9808(3)
C48_3 C 0.53508(13) 0.0067(6) 0.9939(3)
H43_3 H 0.5588 0.0123 0.9903
C49_3 C 0.45497(13) 0.2463(6) 0.9592(3)
O9_3 O 0.56398(11) 0.2723(5) 0.9453(3)
O10_2 O 0.51271(10) 0.3781(4) 0.9351(2)
O12_3 O 0.44126(11) 0.2425(5) 0.9004(2)
C35_3 C 0.32835(17) 0.5572(8) 0.0762(3)
H31_3 H 0.3225 0.6144 0.1145
C36_3 C 0.35553(18) 0.5826(8) 0.0361(3)
H32_3 H 0.3718 0.6579 0.0419
Zn1_3 Zn 0.273503(18) 0.67762(8) 0.59897(4)
C1_3 C 0.30322(17) 0.1532(7) 0.2239(3)
H1_3 H 0.2990 0.0622 0.2019
C2_3 C 0.31976(16) 0.1712(7) 0.2870(3)
H2_3 H 0.3287 0.0970 0.3164
C3_3 C 0.30399(15) 0.3895(7) 0.2439(3)
H3_3 H 0.3003 0.4914 0.2396
C4_3 C 0.33410(13) 0.4017(7) 0.3611(3)
H4_3 H 0.3222 0.4962 0.3639
H5_3 H 0.3283 0.3439 0.4018
C5_3 C 0.37320(13) 0.4329(6) 0.3660(3)
C6_3 C 0.37782(14) 0.5444(7) 0.4281(3)
H6_3 H 0.3750 0.6445 0.4098
H7_3 H 0.4012 0.5361 0.4473
C7_3 C 0.32695(14) 0.6113(6) 0.4974(3)
H8_3 H 0.3203 0.6932 0.4703
C8_3 C 0.32835(17) 0.4428(8) 0.5762(3)
H9_3 H 0.3225 0.3856 0.6145
C9_3 C 0.35553(18) 0.4174(8) 0.5361(3)
H10_3 H 0.3718 0.3421 0.5419
C10_3 C 0.38535(15) 0.5214(6) 0.3023(3)
H11_3 H 0.4026 0.5919 0.3194
H12_3 H 0.3660 0.5790 0.2838
C11_3 C 0.38537(16) 0.3302(8) 0.2008(3)
H13_3 H 0.3646 0.2820 0.2067
C12_3 C 0.40724(16) 0.3060(8) 0.1494(3)
H14_3 H 0.4042 0.2367 0.1135
C13_3 C 0.42935(14) 0.4789(7) 0.2151(3)
H15_3 H 0.4441 0.5519 0.2334
C14_3 C 0.39225(14) 0.2869(6) 0.3797(3)
H16_3 H 0.3816 0.2112 0.3498
H17_3 H 0.3888 0.2577 0.4278
C15_3 C 0.44593(16) 0.1775(7) 0.3319(3)
H18_3 H 0.4356 0.0989 0.3074
C16_3 C 0.47972(15) 0.2068(7) 0.3382(3)
H19_3 H 0.4969 0.1509 0.3184
C17_3 C 0.45418(13) 0.3768(6) 0.3960(3)
H20_3 H 0.4501 0.4597 0.4236
C18_3 C 0.46737(14) 0.7300(6) 0.0509(3)
C19_3 C 0.48507(13) 0.8708(6) 0.0262(3)
C20_3 C 0.52070(13) 0.8761(6) 0.0192(3)
C21_3 C 0.46492(13) 0.9933(6) 0.0061(3)
H21_3 H 0.4412 0.9877 0.0097
C22_3 C 0.54503(13) 0.7537(6) 0.0408(3)
C23_3 C 0.21304(14) 0.4919(7) 0.5660(3)
C24_3 C 0.23352(13) 0.3715(6) 0.5311(3)
C25_3 C 0.23794(13) 0.2382(6) 0.5656(3)
H22_3 H 0.2296 0.2296 0.6103
C26_3 C 0.24589(13) 0.3844(6) 0.4626(3)
C27_3 C 0.24443(13) 0.5277(7) 0.4229(3)
O1_3 O 0.43602(11) 0.7277(5) 0.0547(3)
O2_3 O 0.48729(10) 0.6219(4) 0.0649(2)
O3_3 O 0.55874(11) 0.7575(5) 0.0996(2)
O5_3 O 0.22922(11) 0.5836(5) 0.6058(2)
O6_3 O 0.18162(10) 0.4851(6) 0.5594(3)
O7_3 O 0.22851(12) 0.6349(5) 0.4514(2)
O8_3 O 0.25827(13) 0.5380(6) 0.3669(2)
N2_3 N 0.32055(11) 0.3234(6) 0.2986(2)
N3_3 N 0.31091(12) 0.5656(5) 0.5519(2)
N4_3 N 0.35436(11) 0.5248(6) 0.4853(2)
N5_3 N 0.39973(11) 0.4399(5) 0.2433(2)
N6_3 N 0.43494(12) 0.4011(5) 0.1585(2)
N7_2 N 0.48489(11) 0.3321(5) 0.3783(2)
N8_3 N 0.42963(11) 0.2855(5) 0.3687(2)
Zn8_2 Zn 0.470930(16) 0.57405(8) 0.58878(3)
Zn10_2 Zn 0.529070(16) 0.42595(8) 0.41122(3)
C28_3 C 0.30322(17) 0.8468(7) 0.7239(3)
H23_3 H 0.2990 0.9378 0.7019
C29_3 C 0.31976(16) 0.8288(7) 0.7870(3)
H24_3 H 0.3287 0.9030 0.8164
C30_3 C 0.30399(15) 0.6105(7) 0.7439(3)
H25_3 H 0.3003 0.5086 0.7396
C31_3 C 0.33410(13) 0.5983(7) 0.8611(3)
H26_3 H 0.3222 0.5038 0.8639
H27_3 H 0.3283 0.6561 0.9018
C32_3 C 0.37320(13) 0.5671(6) 0.8660(3)
C33_3 C 0.37782(14) 0.4556(7) 0.9281(3)
H28_3 H 0.3750 0.3555 0.9098
H29_3 H 0.4012 0.4639 0.9473
C34_3 C 0.32695(14) 0.3887(6) 0.9974(3)
H30_3 H 0.3203 0.3068 0.9703
C37_3 C 0.38535(15) 0.4786(6) 0.8023(3)
H33_3 H 0.4026 0.4081 0.8194
H34_3 H 0.3660 0.4210 0.7838
C38_3 C 0.38537(16) 0.6698(8) 0.7008(3)
H35_3 H 0.3646 0.7180 0.7067
C39_3 C 0.40724(16) 0.6940(8) 0.6494(3)
H36_3 H 0.4042 0.7633 0.6135
C40_3 C 0.42935(14) 0.5211(7) 0.7151(3)
H37_3 H 0.4441 0.4481 0.7334
C41_3 C 0.39225(14) 0.7131(6) 0.8797(3)
H38_3 H 0.3816 0.7888 0.8498
H39_3 H 0.3888 0.7423 0.9278
C42_3 C 0.44593(16) 0.8225(7) 0.8319(3)
H40_3 H 0.4356 0.9011 0.8074
C43_3 C 0.47972(15) 0.7932(7) 0.8382(3)
H41_3 H 0.4969 0.8491 0.8184
C44_3 C 0.45418(13) 0.6232(6) 0.8960(3)
H42_3 H 0.4501 0.5403 0.9236
C50_3 C 0.28696(14) 0.0081(7) 0.4340(3)
C51_3 C 0.26648(13) 0.1285(6) 0.4689(3)
C52_3 C 0.26206(13) 0.2618(6) 0.4344(3)
H44_3 H 0.2704 0.2704 0.3897
C53_3 C 0.25411(13) 0.1156(6) 0.5374(3)
O11_2 O 0.48729(10) 0.3781(4) 0.5649(2)
O15_2 O 0.44747(9) 0.6577(4) 0.50554(19)
O17_3 O 0.31838(10) 0.0149(6) 0.4406(3)
O19_3 O 0.27149(12) 0.8651(5) 0.5486(2)
N9_3 N 0.29363(13) 0.7108(6) 0.6972(2)
N11_3 N 0.32055(11) 0.6766(6) 0.7986(2)
N14_3 N 0.35436(11) 0.4752(6) 0.9853(2)
N15_3 N 0.39973(11) 0.5601(5) 0.7433(2)
N16_3 N 0.43494(12) 0.5989(5) 0.6585(2)
N17_2 N 0.48489(11) 0.6679(5) 0.8783(2)
N18_2 N 0.51511(11) 0.3321(5) 0.1217(2)
N19_2 N 0.51511(11) 0.6679(5) 0.6217(2)
N20_3 N 0.42963(11) 0.7145(5) 0.8687(2)
O4_2 O 0.55253(9) 0.6577(4) 0.99446(19)
C54_3 C 0.25557(13) 0.9723(7) 0.5771(3)
O16_3 O 0.27078(11) 0.9164(5) 0.3942(2)
O21_3 O 0.24173(13) 0.9620(6) 0.6331(2)
C45_4 C 0.46737(14) 0.2700(6) 0.5509(3)
C46_4 C 0.48507(13) 0.1292(6) 0.5262(3)
C47_4 C 0.52070(13) 0.1239(6) 0.5192(3)
C48_4 C 0.46492(13) 0.0067(6) 0.5061(3)
H43_4 H 0.4412 0.0123 0.5097
C49_4 C 0.54503(13) 0.2463(6) 0.5408(3)
O9_4 O 0.43602(11) 0.2723(5) 0.5547(3)
O12_4 O 0.55874(11) 0.2425(5) 0.5996(2)
O13_4 O 0.55253(9) 0.3423(4) 0.49446(19)
C1_4 C 0.69678(17) 0.1532(7) 0.2761(3)
H1_4 H 0.7010 0.0622 0.2981
C2_4 C 0.68024(16) 0.1712(7) 0.2130(3)
H2_4 H 0.6713 0.0970 0.1836
C3_4 C 0.69601(15) 0.3895(7) 0.2561(3)
H3_4 H 0.6997 0.4914 0.2604
C4_4 C 0.66590(13) 0.4017(7) 0.1389(3)
H4_4 H 0.6778 0.4962 0.1361
H5_4 H 0.6717 0.3439 0.0982
C5_4 C 0.62680(13) 0.4329(6) 0.1340(3)
C6_4 C 0.62218(14) 0.5444(7) 0.0719(3)
H6_4 H 0.6250 0.6445 0.0902
H7_4 H 0.5988 0.5361 0.0527
C7_4 C 0.67305(14) 0.6113(6) 0.0026(3)
H8_4 H 0.6797 0.6932 0.0297
C10_4 C 0.61465(15) 0.5214(6) 0.1977(3)
H11_4 H 0.5974 0.5919 0.1806
H12_4 H 0.6340 0.5790 0.2162
C11_4 C 0.61463(16) 0.3302(8) 0.2992(3)
H13_4 H 0.6354 0.2820 0.2933
C12_4 C 0.59276(16) 0.3060(8) 0.3506(3)
H14_4 H 0.5958 0.2367 0.3865
C13_4 C 0.57065(14) 0.4789(7) 0.2849(3)
H15_4 H 0.5559 0.5519 0.2666
C14_4 C 0.60775(14) 0.2869(6) 0.1203(3)
H16_4 H 0.6184 0.2112 0.1502
H17_4 H 0.6112 0.2577 0.0722
C15_4 C 0.55407(16) 0.1775(7) 0.1681(3)
H18_4 H 0.5644 0.0989 0.1926
C16_4 C 0.52028(15) 0.2068(7) 0.1618(3)
H19_4 H 0.5031 0.1509 0.1816
C17_4 C 0.54582(13) 0.3768(6) 0.1040(3)
H20_4 H 0.5499 0.4597 0.0764
C18_4 C 0.53263(14) 0.7300(6) 0.4491(3)
C19_4 C 0.51493(13) 0.8708(6) 0.4738(3)
C20_4 C 0.47930(13) 0.8761(6) 0.4808(3)
C21_4 C 0.53508(13) 0.9933(6) 0.4939(3)
H21_4 H 0.5588 0.9877 0.4903
C22_4 C 0.45497(13) 0.7537(6) 0.4592(3)
C26_4 C 0.75411(13) 0.3844(6) 0.0374(3)
C27_4 C 0.75557(13) 0.5277(7) 0.0771(3)
O1_4 O 0.56398(11) 0.7277(5) 0.4453(3)
O2_4 O 0.51271(10) 0.6219(4) 0.4351(2)
O3_4 O 0.44126(11) 0.7575(5) 0.4004(2)
O7_4 O 0.77149(12) 0.6349(5) 0.0486(2)
O8_4 O 0.74173(13) 0.5380(6) 0.1331(2)
N2_4 N 0.67945(11) 0.3234(6) 0.2014(2)
N4_4 N 0.64564(11) 0.5248(6) 0.0147(2)
N5_4 N 0.60027(11) 0.4399(5) 0.2567(2)
N6_4 N 0.56506(12) 0.4011(5) 0.3415(2)
N8_4 N 0.57037(11) 0.2855(5) 0.1313(2)
C50_4 C 0.71304(14) 0.0081(7) 0.0660(3)
C51_4 C 0.73352(13) 0.1285(6) 0.0311(3)
C52_4 C 0.73794(13) 0.2618(6) 0.0656(3)
H44_4 H 0.7296 0.2704 0.1103
O17_4 O 0.68162(10) 0.0149(6) 0.0594(3)
Zn1_4 Zn 0.726497(18) 0.67762(8) 0.90103(4)
C8_4 C 0.67165(17) 0.4428(8) 0.9238(3)
H9_4 H 0.6775 0.3856 0.8855
C9_4 C 0.64447(18) 0.4174(8) 0.9639(3)
H10_4 H 0.6282 0.3421 0.9581
C23_4 C 0.78696(14) 0.4919(7) 0.9340(3)
C24_4 C 0.76648(13) 0.3715(6) 0.9689(3)
C25_4 C 0.76206(13) 0.2382(6) 0.9344(3)
H22_4 H 0.7704 0.2296 0.8897
O5_4 O 0.77078(11) 0.5836(5) 0.8942(2)
O6_4 O 0.81838(10) 0.4851(6) 0.9406(3)
N3_4 N 0.68909(12) 0.5656(5) 0.9481(2)
C28_4 C 0.69678(17) 0.8468(7) 0.7761(3)
H23_4 H 0.7010 0.9378 0.7981
C29_4 C 0.68024(16) 0.8288(7) 0.7130(3)
H24_4 H 0.6713 0.9030 0.6836
C30_4 C 0.69601(15) 0.6105(7) 0.7561(3)
H25_4 H 0.6997 0.5086 0.7604
C31_4 C 0.66590(13) 0.5983(7) 0.6389(3)
H26_4 H 0.6778 0.5038 0.6361
H27_4 H 0.6717 0.6561 0.5982
C32_4 C 0.62680(13) 0.5671(6) 0.6340(3)
C33_4 C 0.62218(14) 0.4556(7) 0.5719(3)
H28_4 H 0.6250 0.3555 0.5902
H29_4 H 0.5988 0.4639 0.5527
C34_4 C 0.67305(14) 0.3887(6) 0.5026(3)
H30_4 H 0.6797 0.3068 0.5297
C35_4 C 0.67165(17) 0.5572(8) 0.4238(3)
H31_4 H 0.6775 0.6144 0.3855
C36_4 C 0.64447(18) 0.5826(8) 0.4639(3)
H32_4 H 0.6282 0.6579 0.4581
C37_4 C 0.61465(15) 0.4786(6) 0.6977(3)
H33_4 H 0.5974 0.4081 0.6806
H34_4 H 0.6340 0.4210 0.7162
C38_4 C 0.61463(16) 0.6698(8) 0.7992(3)
H35_4 H 0.6354 0.7180 0.7933
C39_4 C 0.59276(16) 0.6940(8) 0.8506(3)
H36_4 H 0.5958 0.7633 0.8865
C40_4 C 0.57065(14) 0.5211(7) 0.7849(3)
H37_4 H 0.5559 0.4481 0.7666
C41_4 C 0.60775(14) 0.7131(6) 0.6203(3)
H38_4 H 0.6184 0.7888 0.6502
H39_4 H 0.6112 0.7423 0.5722
C42_4 C 0.55407(16) 0.8225(7) 0.6681(3)
H40_4 H 0.5644 0.9011 0.6926
C43_4 C 0.52028(15) 0.7932(7) 0.6618(3)
H41_4 H 0.5031 0.8491 0.6816
C44_4 C 0.54582(13) 0.6232(6) 0.6040(3)
H42_4 H 0.5499 0.5403 0.5764
C53_4 C 0.74589(13) 0.1156(6) 0.9626(3)
O19_4 O 0.72851(12) 0.8651(5) 0.9514(2)
N9_4 N 0.70637(13) 0.7108(6) 0.8028(2)
N11_4 N 0.67945(11) 0.6766(6) 0.7014(2)
N14_4 N 0.64564(11) 0.4752(6) 0.5147(2)
N15_4 N 0.60027(11) 0.5601(5) 0.7567(2)
N16_4 N 0.56506(12) 0.5989(5) 0.8415(2)
N20_4 N 0.57037(11) 0.7145(5) 0.6313(2)
O16_4 O 0.72922(11) 0.9164(5) 0.1058(2)
C54_4 C 0.74443(13) 0.9723(7) 0.9229(3)
O21_4 O 0.75827(13) 0.9620(6) 0.8669(2)
loop_
_geom_bond_atom_site_label_1
_geom_bond_atom_site_label_2
_geom_bond_site_symmetry_1
_geom_bond_site_symmetry_2
C20 C22 1_555 1_555
C22 O3 1_555 1_555
Zn11 O4 1_555 1_555
C45 C46 1_555 1_555
H43 C48 1_555 1_555
O9 C45 1_555 1_555
O10 C45 1_555 1_555
C46 C48 1_555 1_555
C35 H31 1_555 1_555
C36 C35 1_555 1_555
H32 C36 1_555 1_555
Zn1 O5 1_555 1_555
H6 C6 1_555 1_555
H7 C6 1_555 1_555
C7 H8 1_555 1_555
H11 C10 1_555 1_555
H12 C10 1_555 1_555
C18 C19 1_555 1_555
C21 C19 1_555 1_555
H21 C21 1_555 1_555
O1 C18 1_555 1_555
O2 C18 1_555 1_555
O7 C27 1_555 1_555
O8 C27 1_555 1_555
N3 Zn1 1_555 1_555
N4 C6 1_555 1_555
Zn4 O7 1_555 1_555
Zn12 O13 1_555 1_555
C28 H23 1_555 1_555
C29 C28 1_555 1_555
H24 C29 1_555 1_555
C30 H25 1_555 1_555
C31 H26 1_555 1_555
H27 C31 1_555 1_555
C32 C31 1_555 1_555
C38 H35 1_555 1_555
C39 C38 1_555 1_555
H36 C39 1_555 1_555
C41 C32 1_555 1_555
H38 C41 1_555 1_555
H39 C41 1_555 1_555
C42 H40 1_555 1_555
C43 C42 1_555 1_555
H41 C43 1_555 1_555
C44 H42 1_555 1_555
O15 Zn8 1_555 1_555
O19 Zn1 1_555 1_555
N9 Zn1 1_555 1_555
N11 C29 1_555 1_555
N16 Zn8 1_555 1_555
N17 C43 1_555 1_555
N20 C41 1_555 1_555
C7 N3 1_555 1_555
C7 N4 1_555 1_555
C28 N9 1_555 1_555
C30 N9 1_555 1_555
C30 N11 1_555 1_555
C31 N11 1_555 1_555
C38 N15 1_555 1_555
C39 N16 1_555 1_555
C40 N15 1_555 1_555
C40 N16 1_555 1_555
C42 N20 1_555 1_555
C44 N17 1_555 1_555
C44 N20 1_555 1_555
C49 C47 1_555 1_555
O12 C49 1_555 1_555
Zn7 N12 1_555 1_555
C1 H1 1_555 1_555
C2 C1 1_555 1_555
H2 C2 1_555 1_555
C3 H3 1_555 1_555
C4 H4 1_555 1_555
H5 C4 1_555 1_555
C5 C4 1_555 1_555
C8 H9 1_555 1_555
C9 C8 1_555 1_555
H10 C9 1_555 1_555
C11 H13 1_555 1_555
C12 C11 1_555 1_555
H14 C12 1_555 1_555
C14 C5 1_555 1_555
H16 C14 1_555 1_555
H17 C14 1_555 1_555
C15 H18 1_555 1_555
C16 C15 1_555 1_555
H19 C16 1_555 1_555
C17 H20 1_555 1_555
C23 C24 1_555 1_555
C24 C25 1_555 1_555
C25 H22 1_555 1_555
C26 C24 1_555 1_555
O6 C23 1_555 1_555
N1 C1 1_555 1_555
N2 C2 1_555 1_555
N6 Zn12 1_555 1_555
N7 C16 1_555 1_555
N8 C14 1_555 1_555
Zn4 O16 1_555 1_555
Zn7 N1 1_555 1_555
H28 C33 1_555 1_555
H29 C33 1_555 1_555
C34 H30 1_555 1_555
H33 C37 1_555 1_555
H34 C37 1_555 1_555
C50 C51 1_555 1_555
C51 C52 1_555 1_555
C52 C26 1_555 1_555
H44 C52 1_555 1_555
C53 C25 1_555 1_555
C54 C53 1_555 1_555
O16 C50 1_555 1_555
O17 C50 1_555 1_555
O19 C54 1_555 1_555
O21 C54 1_555 1_555
N10 Zn4 1_555 1_555
N13 Zn4 1_555 1_555
N14 C33 1_555 1_555
C3 N1 1_555 1_555
C3 N2 1_555 1_555
C4 N2 1_555 1_555
C11 N5 1_555 1_555
C12 N6 1_555 1_555
C13 N5 1_555 1_555
C13 N6 1_555 1_555
C15 N8 1_555 1_555
C17 N7 1_555 1_555
C17 N8 1_555 1_555
C34 N14 1_555 1_555
C51 C53 1_555 1_555
H6_2 C6_2 1_555 1_555
H7_2 C6_2 1_555 1_555
C7_2 H8_2 1_555 1_555
H11_2 C10_2 1_555 1_555
H12_2 C10_2 1_555 1_555
C18_2 C19_2 1_555 1_555
C21_2 C19_2 1_555 1_555
H21_2 C21_2 1_555 1_555
O1_2 C18_2 1_555 1_555
O2_2 C18_2 1_555 1_555
O7_2 C27_2 1_555 1_555
O8_2 C27_2 1_555 1_555
N4_2 C6_2 1_555 1_555
Zn4_2 O7_2 1_555 1_555
Zn10 O13_2 1_555 1_555
C47_2 C21_2 1_555 1_555
C49_2 C47_2 1_555 1_555
O12_2 C49_2 1_555 1_555
O13_2 C49_2 1_555 1_555
C7_2 N4_2 1_555 1_555
Zn1_2 O5_2 1_555 1_555
N3_2 Zn1_2 1_555 1_555
C28_2 H23_2 1_555 1_555
C29_2 C28_2 1_555 1_555
H24_2 C29_2 1_555 1_555
C30_2 H25_2 1_555 1_555
C31_2 H26_2 1_555 1_555
H27_2 C31_2 1_555 1_555
C32_2 C31_2 1_555 1_555
C35_2 H31_2 1_555 1_555
C36_2 C35_2 1_555 1_555
H32_2 C36_2 1_555 1_555
C38_2 H35_2 1_555 1_555
C39_2 C38_2 1_555 1_555
H36_2 C39_2 1_555 1_555
C41_2 C32_2 1_555 1_555
H38_2 C41_2 1_555 1_555
H39_2 C41_2 1_555 1_555
C42_2 H40_2 1_555 1_555
C43_2 C42_2 1_555 1_555
H41_2 C43_2 1_555 1_555
C44_2 H42_2 1_555 1_555
O19_2 Zn1_2 1_555 1_555
N9_2 Zn1_2 1_555 1_555
N11_2 C29_2 1_555 1_555
N16_2 Zn11 1_555 1_555
N19 C43_2 1_555 1_555
N20_2 C41_2 1_555 1_555
C28_2 N9_2 1_555 1_555
C30_2 N9_2 1_555 1_555
C30_2 N11_2 1_555 1_555
C31_2 N11_2 1_555 1_555
C38_2 N15_2 1_555 1_555
C39_2 N16_2 1_555 1_555
C40_2 N15_2 1_555 1_555
C40_2 N16_2 1_555 1_555
C42_2 N20_2 1_555 1_555
C44_2 N19 1_555 1_555
C44_2 N20_2 1_555 1_555
C1_2 H1_2 1_555 1_555
C2_2 C1_2 1_555 1_555
H2_2 C2_2 1_555 1_555
C3_2 H3_2 1_555 1_555
C4_2 H4_2 1_555 1_555
H5_2 C4_2 1_555 1_555
C5_2 C4_2 1_555 1_555
C11_2 H13_2 1_555 1_555
C12_2 C11_2 1_555 1_555
H14_2 C12_2 1_555 1_555
C14_2 C5_2 1_555 1_555
H16_2 C14_2 1_555 1_555
H17_2 C14_2 1_555 1_555
C15_2 H18_2 1_555 1_555
C16_2 C15_2 1_555 1_555
H19_2 C16_2 1_555 1_555
C17_2 H20_2 1_555 1_555
N1_2 C1_2 1_555 1_555
N2_2 C2_2 1_555 1_555
N6_2 Zn10 1_555 1_555
N18 C16_2 1_555 1_555
N8_2 C14_2 1_555 1_555
Zn4_2 O16_2 1_555 1_555
Zn5 N1_2 1_555 1_555
C50_2 C51_2 1_555 1_555
C51_2 C52_2 1_555 1_555
C52_2 C26_2 1_555 1_555
H44_2 C52_2 1_555 1_555
O16_2 C50_2 1_555 1_555
O17_2 C50_2 1_555 1_555
N10_2 Zn4_2 1_555 1_555
N13_2 Zn4_2 1_555 1_555
C3_2 N1_2 1_555 1_555
C3_2 N2_2 1_555 1_555
C4_2 N2_2 1_555 1_555
C11_2 N5_2 1_555 1_555
C12_2 N6_2 1_555 1_555
C13_2 N5_2 1_555 1_555
C13_2 N6_2 1_555 1_555
C15_2 N8_2 1_555 1_555
C17_2 N18 1_555 1_555
C17_2 N8_2 1_555 1_555
C8_2 H9_2 1_555 1_555
C9_2 C8_2 1_555 1_555
H10_2 C9_2 1_555 1_555
C23_2 C24_2 1_555 1_555
C24_2 C25_2 1_555 1_555
C25_2 H22_2 1_555 1_555
O6_2 C23_2 1_555 1_555
Zn5 N12_2 1_555 1_555
H28_2 C33_2 1_555 1_555
H29_2 C33_2 1_555 1_555
C34_2 H30_2 1_555 1_555
H33_2 C37_2 1_555 1_555
H34_2 C37_2 1_555 1_555
C53_2 C25_2 1_555 1_555
C54_2 C53_2 1_555 1_555
O19_2 C54_2 1_555 1_555
O21_2 C54_2 1_555 1_555
N12_2 C34_2 1_555 1_555
N14_2 C33_2 1_555 1_555
C34_2 N14_2 1_555 1_555
C20_2 C22_2 1_555 1_555
C22_2 O3_2 1_555 1_555
O15 C22_2 1_555 1_555
C45_2 C46_2 1_555 1_555
C48_2 C20_2 1_555 1_555
H43_2 C48_2 1_555 1_555
O9_2 C45_2 1_555 1_555
O11 C45_2 1_555 1_555
C46_2 C48_2 1_555 1_555
Zn12_2 O13_3 1_555 1_555
Zn11_2 O10_2 1_555 1_555
C45_3 C46_3 1_555 1_555
C46_3 C47_3 1_555 1_555
H43_3 C48_3 1_555 1_555
C49_3 C47_3 1_555 1_555
O9_3 C45_3 1_555 1_555
O10_2 C45_3 1_555 1_555
O12_3 C49_3 1_555 1_555
C46_3 C48_3 1_555 1_555
C35_3 H31_3 1_555 1_555
C36_3 C35_3 1_555 1_555
H32_3 C36_3 1_555 1_555
C35_3 N13_2 1_555 1_555
Zn1_3 O5_3 1_555 1_555
Zn12_2 O2_3 1_555 1_555
C1_3 H1_3 1_555 1_555
C2_3 C1_3 1_555 1_555
H2_3 C2_3 1_555 1_555
C3_3 H3_3 1_555 1_555
C4_3 H4_3 1_555 1_555
H5_3 C4_3 1_555 1_555
C5_3 C4_3 1_555 1_555
C6_3 C5_3 1_555 1_555
H6_3 C6_3 1_555 1_555
H7_3 C6_3 1_555 1_555
C7_3 H8_3 1_555 1_555
C8_3 H9_3 1_555 1_555
C9_3 C8_3 1_555 1_555
H10_3 C9_3 1_555 1_555
C10_3 C5_3 1_555 1_555
H11_3 C10_3 1_555 1_555
H12_3 C10_3 1_555 1_555
C11_3 H13_3 1_555 1_555
C12_3 C11_3 1_555 1_555
H14_3 C12_3 1_555 1_555
C13_3 H15_3 1_555 1_555
C14_3 C5_3 1_555 1_555
H16_3 C14_3 1_555 1_555
H17_3 C14_3 1_555 1_555
C15_3 H18_3 1_555 1_555
C16_3 C15_3 1_555 1_555
H19_3 C16_3 1_555 1_555
C17_3 H20_3 1_555 1_555
C18_3 C19_3 1_555 1_555
C19_3 C20_3 1_555 1_555
C20_3 C22_3 1_555 1_555
C21_3 C19_3 1_555 1_555
H21_3 C21_3 1_555 1_555
C22_3 O3_3 1_555 1_555
C23_3 C24_3 1_555 1_555
C24_3 C25_3 1_555 1_555
C25_3 H22_3 1_555 1_555
C26_3 C24_3 1_555 1_555
C27_3 C26_3 1_555 1_555
O1_3 C18_3 1_555 1_555
O2_3 C18_3 1_555 1_555
O5_3 C23_3 1_555 1_555
O6_3 C23_3 1_555 1_555
O7_3 C27_3 1_555 1_555
O8_3 C27_3 1_555 1_555
N10_2 C1_3 1_555 1_555
N2_3 C2_3 1_555 1_555
N3_3 Zn1_3 1_555 1_555
N4_3 C6_3 1_555 1_555
N5_3 C10_3 1_555 1_555
N6_3 Zn12_2 1_555 1_555
N7_2 C16_3 1_555 1_555
N8_3 C14_3 1_555 1_555
Zn5 O7_3 1_555 1_555
Zn8_2 O11_2 1_555 1_555
Zn10_2 N7_2 1_555 1_555
Zn11_2 N17_2 1_555 1_555
C28_3 H23_3 1_555 1_555
C29_3 C28_3 1_555 1_555
H24_3 C29_3 1_555 1_555
C30_3 H25_3 1_555 1_555
C31_3 H26_3 1_555 1_555
H27_3 C31_3 1_555 1_555
C32_3 C31_3 1_555 1_555
C33_3 C32_3 1_555 1_555
H28_3 C33_3 1_555 1_555
H29_3 C33_3 1_555 1_555
C34_3 H30_3 1_555 1_555
C37_3 C32_3 1_555 1_555
H33_3 C37_3 1_555 1_555
H34_3 C37_3 1_555 1_555
C38_3 H35_3 1_555 1_555
C39_3 C38_3 1_555 1_555
H36_3 C39_3 1_555 1_555
C40_3 H37_3 1_555 1_555
C41_3 C32_3 1_555 1_555
H38_3 C41_3 1_555 1_555
H39_3 C41_3 1_555 1_555
C42_3 H40_3 1_555 1_555
C43_3 C42_3 1_555 1_555
H41_3 C43_3 1_555 1_555
C44_3 H42_3 1_555 1_555
C50_3 C51_3 1_555 1_555
C51_3 C52_3 1_555 1_555
C52_3 C26_3 1_555 1_555
H44_3 C52_3 1_555 1_555
C53_3 C25_3 1_555 1_555
O15_2 Zn8_2 1_555 1_555
O17_3 C50_3 1_555 1_555
O19_3 Zn1_3 1_555 1_555
N9_3 Zn1_3 1_555 1_555
N11_3 C29_3 1_555 1_555
N14_3 C33_3 1_555 1_555
N15_3 C37_3 1_555 1_555
N16_3 Zn8_2 1_555 1_555
N17_2 C43_3 1_555 1_555
N18_2 Zn12_2 1_555 1_555
N19_2 Zn8_2 1_555 1_555
N20_3 C41_3 1_555 1_555
C3_3 N10_2 1_555 1_555
C3_3 N2_3 1_555 1_555
C4_3 N2_3 1_555 1_555
C7_3 N3_3 1_555 1_555
C7_3 N4_3 1_555 1_555
C8_3 N3_3 1_555 1_555
C9_3 N4_3 1_555 1_555
C11_3 N5_3 1_555 1_555
C12_3 N6_3 1_555 1_555
C13_3 N5_3 1_555 1_555
C13_3 N6_3 1_555 1_555
C15_3 N8_3 1_555 1_555
C17_3 N7_2 1_555 1_555
C17_3 N8_3 1_555 1_555
C28_3 N9_3 1_555 1_555
C30_3 N9_3 1_555 1_555
C30_3 N11_3 1_555 1_555
C31_3 N11_3 1_555 1_555
C34_3 N14_3 1_555 1_555
C38_3 N15_3 1_555 1_555
C39_3 N16_3 1_555 1_555
C40_3 N15_3 1_555 1_555
C40_3 N16_3 1_555 1_555
C42_3 N20_3 1_555 1_555
C44_3 N17_2 1_555 1_555
C44_3 N20_3 1_555 1_555
C51_3 C53_3 1_555 1_555
Zn11_2 O4_2 1_555 1_555
Zn5 O16_3 1_555 1_555
O19_3 C54_3 1_555 1_555
O21_3 C54_3 1_555 1_555
Zn10_2 O13_4 1_555 1_555
C45_4 C46_4 1_555 1_555
C46_4 C47_4 1_555 1_555
H43_4 C48_4 1_555 1_555
C49_4 C47_4 1_555 1_555
O9_4 C45_4 1_555 1_555
O11_2 C45_4 1_555 1_555
O12_4 C49_4 1_555 1_555
O13_4 C49_4 1_555 1_555
C46_4 C48_4 1_555 1_555
Zn10_2 O2_4 1_555 1_555
C1_4 H1_4 1_555 1_555
C2_4 C1_4 1_555 1_555
H2_4 C2_4 1_555 1_555
C3_4 H3_4 1_555 1_555
C4_4 H4_4 1_555 1_555
H5_4 C4_4 1_555 1_555
C5_4 C4_4 1_555 1_555
C6_4 C5_4 1_555 1_555
H6_4 C6_4 1_555 1_555
H7_4 C6_4 1_555 1_555
C7_4 H8_4 1_555 1_555
C10_4 C5_4 1_555 1_555
H11_4 C10_4 1_555 1_555
H12_4 C10_4 1_555 1_555
C11_4 H13_4 1_555 1_555
C12_4 C11_4 1_555 1_555
H14_4 C12_4 1_555 1_555
C13_4 H15_4 1_555 1_555
C14_4 C5_4 1_555 1_555
H16_4 C14_4 1_555 1_555
H17_4 C14_4 1_555 1_555
C15_4 H18_4 1_555 1_555
C16_4 C15_4 1_555 1_555
H19_4 C16_4 1_555 1_555
C17_4 H20_4 1_555 1_555
C18_4 C19_4 1_555 1_555
C19_4 C20_4 1_555 1_555
C20_4 C22_4 1_555 1_555
C21_4 C19_4 1_555 1_555
H21_4 C21_4 1_555 1_555
C22_4 O3_4 1_555 1_555
C27_4 C26_4 1_555 1_555
O1_4 C18_4 1_555 1_555
O2_4 C18_4 1_555 1_555
O15_2 C22_4 1_555 1_555
O7_4 C27_4 1_555 1_555
O8_4 C27_4 1_555 1_555
N10 C1_4 1_555 1_555
N2_4 C2_4 1_555 1_555
N4_4 C6_4 1_555 1_555
N5_4 C10_4 1_555 1_555
N6_4 Zn10_2 1_555 1_555
N18_2 C16_4 1_555 1_555
N8_4 C14_4 1_555 1_555
Zn7 O7_4 1_555 1_555
C50_4 C51_4 1_555 1_555
C51_4 C52_4 1_555 1_555
C52_4 C26_4 1_555 1_555
H44_4 C52_4 1_555 1_555
O17_4 C50_4 1_555 1_555
C3_4 N10 1_555 1_555
C3_4 N2_4 1_555 1_555
C4_4 N2_4 1_555 1_555
C7_4 N4_4 1_555 1_555
C11_4 N5_4 1_555 1_555
C12_4 N6_4 1_555 1_555
C13_4 N5_4 1_555 1_555
C13_4 N6_4 1_555 1_555
C15_4 N8_4 1_555 1_555
C17_4 N18_2 1_555 1_555
C17_4 N8_4 1_555 1_555
Zn1_4 O5_4 1_555 1_555
C8_4 H9_4 1_555 1_555
C9_4 C8_4 1_555 1_555
H10_4 C9_4 1_555 1_555
C23_4 C24_4 1_555 1_555
C24_4 C25_4 1_555 1_555
C25_4 H22_4 1_555 1_555
O5_4 C23_4 1_555 1_555
O6_4 C23_4 1_555 1_555
N3_4 Zn1_4 1_555 1_555
C28_4 H23_4 1_555 1_555
C29_4 C28_4 1_555 1_555
H24_4 C29_4 1_555 1_555
C30_4 H25_4 1_555 1_555
C31_4 H26_4 1_555 1_555
H27_4 C31_4 1_555 1_555
C32_4 C31_4 1_555 1_555
C33_4 C32_4 1_555 1_555
H28_4 C33_4 1_555 1_555
H29_4 C33_4 1_555 1_555
C34_4 H30_4 1_555 1_555
C35_4 H31_4 1_555 1_555
C36_4 C35_4 1_555 1_555
H32_4 C36_4 1_555 1_555
C37_4 C32_4 1_555 1_555
H33_4 C37_4 1_555 1_555
H34_4 C37_4 1_555 1_555
C38_4 H35_4 1_555 1_555
C39_4 C38_4 1_555 1_555
H36_4 C39_4 1_555 1_555
C40_4 H37_4 1_555 1_555
C41_4 C32_4 1_555 1_555
H38_4 C41_4 1_555 1_555
H39_4 C41_4 1_555 1_555
C42_4 H40_4 1_555 1_555
C43_4 C42_4 1_555 1_555
H41_4 C43_4 1_555 1_555
C44_4 H42_4 1_555 1_555
C53_4 C25_4 1_555 1_555
O19_4 Zn1_4 1_555 1_555
N9_4 Zn1_4 1_555 1_555
N11_4 C29_4 1_555 1_555
N13 C34_4 1_555 1_555
N14_4 C33_4 1_555 1_555
N15_4 C37_4 1_555 1_555
N16_4 Zn11_2 1_555 1_555
N19_2 C43_4 1_555 1_555
N20_4 C41_4 1_555 1_555
C8_4 N3_4 1_555 1_555
C28_4 N9_4 1_555 1_555
C30_4 N9_4 1_555 1_555
C30_4 N11_4 1_555 1_555
C31_4 N11_4 1_555 1_555
C34_4 N14_4 1_555 1_555
C35_4 N13 1_555 1_555
C36_4 N14_4 1_555 1_555
C38_4 N15_4 1_555 1_555
C39_4 N16_4 1_555 1_555
C40_4 N15_4 1_555 1_555
C40_4 N16_4 1_555 1_555
C42_4 N20_4 1_555 1_555
C44_4 N19_2 1_555 1_555
C44_4 N20_4 1_555 1_555
Zn7 O16_4 1_555 1_555
O19_4 C54_4 1_555 1_555
O21_4 C54_4 1_555 1_555

#END
