
###############################################################################
#
# This file contains modified crystal structure data generated from the
# MOF subset of the Cambridge Structural Database (CSD) v543 
# hosted by the Cambridge Crystallographic Data Centre (CCDC).
#
# This work is licensed under the Creative Commons
# Attribution-NonCommercial-ShareAlike 4.0 International License.
# To view a copy of this license, visit
# http://creativecommons.org/licenses/by-nc-sa/4.0/
# or send a letter to
# Creative Commons, PO Box 1866, Mountain View, CA 94042, USA.
#
# CIF created using the CSD Python API on 29 September 2022
# The structure has been converted into the P1 space group
# The structure has a 3D framework
# The original CSD entry CUYWUP is in the orthorhombic crystal system
# The framework has been calculated to contain at least 10.0% void space
# The void calculation uses a probe of radius 1.32A, grid spacing 0.4
#
###############################################################################

data_CUYWUP
_chemical_formula_moiety         '(C132 H112 Cu8 O50)n'
_symmetry_cell_setting           triclinic
_symmetry_space_group_name_H-M   'P 1'
_symmetry_Int_Tables_number      1
_space_group_name_Hall           'P 1'
loop_
_symmetry_equiv_pos_site_id
_symmetry_equiv_pos_as_xyz
1 x,y,z
_cell_length_a                   27.353(4)
_cell_length_b                   17.844(3)
_cell_length_c                   10.6753(17)
_cell_angle_alpha                90
_cell_angle_beta                 90
_cell_angle_gamma                90
_cell_volume                     5210.47
loop_
_atom_site_label
_atom_site_type_symbol
_atom_site_fract_x
_atom_site_fract_y
_atom_site_fract_z
Cu5 Cu 0.013220(12) 0.939795(17) 0.56113(3)
Cu8 Cu 0.013220(12) 0.560205(17) 0.93887(3)
O5 O 0.92428(6) 0.01023(10) 0.40622(17)
Cu4 Cu 0.986780(12) 0.060205(17) 0.43887(3)
H4 H 0.5379 0.0006 0.9357
Cu1 Cu 0.486780(12) 0.060205(17) 0.56113(3)
O1 O 0.51326(6) 0.01030(11) 0.71023(18)
O7 O 0.46992(6) 0.16459(11) 0.65680(17)
H13 H 0.4804 0.2061 0.6062
H14 H 0.4866 0.1660 0.7359
O10 O 0.46335(7) 0.09060(10) 0.39577(18)
O15 O 0.42428(6) 0.01023(10) 0.59378(17)
O18 O 0.55328(6) 0.09090(10) 0.51603(17)
Cu6 Cu 0.513220(12) 0.560205(17) 0.06113(3)
O11 O 0.46335(7) 0.40940(10) 0.10423(18)
C5 C 0.59366(10) 0.85206(16) 0.0361(2)
C6 C 0.57310(11) 0.92150(17) 0.0398(3)
H3 H 0.5728 0.9481 0.1147
C8 C 0.64271(9) 0.76015(15) 0.1338(2)
H5 H 0.6638 0.7643 0.0612
H6 H 0.6219 0.7167 0.1224
C9 C 0.67347(11) 0.7500 0.2500
C10 C 0.70461(9) 0.81901(15) 0.2685(3)
H7 H 0.7234 0.8297 0.1935
H8 H 0.6843 0.8621 0.2877
C11 C 0.78012(10) 0.84097(15) 0.3836(3)
C12 C 0.81217(10) 0.81246(17) 0.4690(3)
H9 H 0.8034 0.7709 0.5165
C13 C 0.85677(10) 0.84416(16) 0.4853(3)
H10 H 0.8798 0.8203 0.5356
C14 C 0.86834(9) 0.91008(16) 0.4294(2)
C15 C 0.83391(10) 0.94365(16) 0.3491(3)
H11 H 0.8408 0.9898 0.3128
C16 C 0.79055(10) 0.90896(17) 0.3242(3)
H12 H 0.7683 0.9302 0.2687
C17 C 0.91707(11) 0.94615(15) 0.4524(3)
O3 O 0.61306(6) 0.82613(10) 0.14407(16)
O4 O 0.73689(7) 0.80203(10) 0.37252(18)
O6 O 0.94672(6) 0.90910(10) 0.51603(17)
C18 C 0.53240(10) 0.55275(15) 0.7983(3)
C19 C 0.55345(9) 0.58596(15) 0.6810(3)
C20 C 0.57409(11) 0.65446(18) 0.6837(3)
H15 H 0.5755 0.6801 0.7594
C21 C 0.59360(11) 0.68847(16) 0.5762(3)
H16 H 0.6062 0.7368 0.5795
C22 C 0.59366(10) 0.64794(16) 0.4639(2)
C23 C 0.57310(11) 0.57850(17) 0.4602(3)
H17 H 0.5728 0.5519 0.3853
C24 C 0.55230(11) 0.54653(17) 0.5681(3)
H18 H 0.5379 0.4994 0.5643
C25 C 0.64271(9) 0.73985(15) 0.3662(2)
H19 H 0.6638 0.7357 0.4388
H20 H 0.6219 0.7833 0.3776
C26 C 0.70461(9) 0.68099(15) 0.2315(3)
H21 H 0.7234 0.6703 0.3065
H22 H 0.6843 0.6379 0.2123
C27 C 0.78012(10) 0.65903(15) 0.1164(3)
C28 C 0.81217(10) 0.68754(17) 0.0310(3)
C29 C 0.85677(10) 0.65584(16) 0.0147(3)
C30 C 0.86834(9) 0.58992(16) 0.0706(2)
C31 C 0.83391(10) 0.55635(16) 0.1509(3)
H25 H 0.8408 0.5102 0.1872
C32 C 0.79055(10) 0.59104(17) 0.1758(3)
H26 H 0.7683 0.5698 0.2313
C33 C 0.91707(11) 0.55385(15) 0.0476(3)
Cu2 Cu 0.486780(12) 0.439795(17) 0.93887(3)
Cu7 Cu 0.986780(12) 0.439795(17) 0.06113(3)
O8 O 0.51326(6) 0.48970(11) 0.78977(18)
O9 O 0.53665(7) 0.59060(10) 0.89577(18)
O12 O 0.61306(6) 0.67387(10) 0.35593(16)
O13 O 0.73689(7) 0.69797(10) 0.12748(18)
O14 O 0.92428(6) 0.48977(10) 0.09378(17)
O16 O 0.42428(6) 0.48977(10) 0.90622(17)
O19 O 0.55328(6) 0.40910(10) 0.98397(17)
O20 O 0.46992(6) 0.33541(11) 0.84320(17)
H27 H 0.4804 0.2939 0.8938
H28 H 0.4866 0.3340 0.7641
C1 C 0.53240(10) 0.94725(15) 0.7017(3)
C2 C 0.55345(9) 0.91404(15) 0.8190(3)
C3 C 0.57409(11) 0.84554(18) 0.8163(3)
H1 H 0.5755 0.8199 0.7406
C4 C 0.59360(11) 0.81153(16) 0.9238(3)
H2 H 0.6062 0.7632 0.9205
C7 C 0.55230(11) 0.95347(17) 0.9319(3)
O2 O 0.53665(7) 0.90940(10) 0.60423(18)
H23 H 0.8034 0.7291 0.9835
H24 H 0.8798 0.6797 0.9644
Cu3 Cu 0.513220(12) 0.939795(17) 0.43887(3)
O17 O 0.94672(6) 0.59090(10) 0.98397(17)
O11_2 O 0.03665(7) 0.59060(10) 0.10423(18)
O16_2 O 0.07572(6) 0.51023(10) 0.90622(17)
O20_2 O 0.03008(6) 0.66459(11) 0.84320(17)
H27_2 H 0.0196 0.7061 0.8938
H28_2 H 0.0134 0.6660 0.7641
O7_2 O 0.03008(6) 0.83541(11) 0.65680(17)
H13_2 H 0.0196 0.7939 0.6062
H14_2 H 0.0134 0.8340 0.7359
O10_2 O 0.03665(7) 0.90940(10) 0.39577(18)
O15_2 O 0.07572(6) 0.98977(10) 0.59378(17)
C5_2 C 0.90634(10) 0.14794(16) 0.0361(2)
C6_2 C 0.92690(11) 0.07850(17) 0.0398(3)
H3_2 H 0.9272 0.0519 0.1147
C8_2 C 0.85729(9) 0.23985(15) 0.1338(2)
H5_2 H 0.8362 0.2357 0.0612
H6_2 H 0.8781 0.2833 0.1224
C9_2 C 0.82653(11) 0.2500 0.2500
C10_2 C 0.79539(9) 0.18099(15) 0.2685(3)
H7_2 H 0.7766 0.1703 0.1935
H8_2 H 0.8157 0.1379 0.2877
C11_2 C 0.71988(10) 0.15903(15) 0.3836(3)
C12_2 C 0.68783(10) 0.18754(17) 0.4690(3)
H9_2 H 0.6966 0.2291 0.5165
C13_2 C 0.64323(10) 0.15584(16) 0.4853(3)
H10_2 H 0.6202 0.1797 0.5356
C14_2 C 0.63166(9) 0.08992(16) 0.4294(2)
C15_2 C 0.66609(10) 0.05635(16) 0.3491(3)
H11_2 H 0.6592 0.0102 0.3128
C16_2 C 0.70945(10) 0.09104(17) 0.3242(3)
H12_2 H 0.7317 0.0698 0.2687
C17_2 C 0.58293(11) 0.05385(15) 0.4524(3)
O3_2 O 0.88694(6) 0.17387(10) 0.14407(16)
O4_2 O 0.76311(7) 0.19797(10) 0.37252(18)
C18_2 C 0.96760(10) 0.44725(15) 0.7983(3)
C19_2 C 0.94655(9) 0.41404(15) 0.6810(3)
C20_2 C 0.92591(11) 0.34554(18) 0.6837(3)
H15_2 H 0.9245 0.3199 0.7594
C21_2 C 0.90640(11) 0.31153(16) 0.5762(3)
H16_2 H 0.8938 0.2632 0.5795
C22_2 C 0.90634(10) 0.35206(16) 0.4639(2)
C23_2 C 0.92690(11) 0.42150(17) 0.4602(3)
H17_2 H 0.9272 0.4481 0.3853
C24_2 C 0.94770(11) 0.45347(17) 0.5681(3)
H18_2 H 0.9621 0.5006 0.5643
C25_2 C 0.85729(9) 0.26015(15) 0.3662(2)
H19_2 H 0.8362 0.2643 0.4388
H20_2 H 0.8781 0.2167 0.3776
C26_2 C 0.79539(9) 0.31901(15) 0.2315(3)
H21_2 H 0.7766 0.3297 0.3065
H22_2 H 0.8157 0.3621 0.2123
C27_2 C 0.71988(10) 0.34097(15) 0.1164(3)
C28_2 C 0.68783(10) 0.31246(17) 0.0310(3)
C29_2 C 0.64323(10) 0.34416(16) 0.0147(3)
C30_2 C 0.63166(9) 0.41008(16) 0.0706(2)
C31_2 C 0.66609(10) 0.44365(16) 0.1509(3)
H25_2 H 0.6592 0.4898 0.1872
C32_2 C 0.70945(10) 0.40896(17) 0.1758(3)
H26_2 H 0.7317 0.4302 0.2313
C33_2 C 0.58293(11) 0.44615(15) 0.0476(3)
O8_2 O 0.98674(6) 0.51030(11) 0.78977(18)
O9_2 O 0.96335(7) 0.40940(10) 0.89577(18)
O12_2 O 0.88694(6) 0.32613(10) 0.35593(16)
O13_2 O 0.76311(7) 0.30203(10) 0.12748(18)
O14_2 O 0.57572(6) 0.51023(10) 0.09378(17)
C1_2 C 0.96760(10) 0.05275(15) 0.7017(3)
C2_2 C 0.94655(9) 0.08596(15) 0.8190(3)
C3_2 C 0.92591(11) 0.15446(18) 0.8163(3)
H1_2 H 0.9245 0.1801 0.7406
C4_2 C 0.90640(11) 0.18847(16) 0.9238(3)
H2_2 H 0.8938 0.2368 0.9205
C7_2 C 0.94770(11) 0.04653(17) 0.9319(3)
O2_2 O 0.96335(7) 0.09060(10) 0.60423(18)
H23_2 H 0.6966 0.2709 0.9835
H24_2 H 0.6202 0.3203 0.9644
O5_2 O 0.57572(6) 0.98977(10) 0.40622(17)
H4_2 H 0.9621 0.9994 0.9357
O1_2 O 0.98674(6) 0.98970(11) 0.71023(18)
C1_3 C 0.46760(10) 0.05275(15) 0.2983(3)
C2_3 C 0.44655(9) 0.08596(15) 0.1810(3)
C3_3 C 0.42591(11) 0.15446(18) 0.1837(3)
H1_3 H 0.4245 0.1801 0.2594
C4_3 C 0.40640(11) 0.18847(16) 0.0762(3)
H2_3 H 0.3938 0.2368 0.0795
C7_3 C 0.44770(11) 0.04653(17) 0.0681(3)
H23_3 H 0.1966 0.2709 0.0165
H24_3 H 0.1202 0.3203 0.0356
O17_2 O 0.05328(6) 0.40910(10) 0.01603(17)
C5_3 C 0.40634(10) 0.14794(16) 0.9639(2)
C6_3 C 0.42690(11) 0.07850(17) 0.9602(3)
H3_3 H 0.4272 0.0519 0.8853
C8_3 C 0.35729(9) 0.23985(15) 0.8662(2)
H5_3 H 0.3362 0.2357 0.9388
H6_3 H 0.3781 0.2833 0.8776
C9_3 C 0.32653(11) 0.2500 0.7500
C10_3 C 0.29539(9) 0.18099(15) 0.7315(3)
H7_3 H 0.2766 0.1703 0.8065
H8_3 H 0.3157 0.1379 0.7123
C11_3 C 0.21988(10) 0.15903(15) 0.6164(3)
C12_3 C 0.18783(10) 0.18754(17) 0.5310(3)
H9_3 H 0.1966 0.2291 0.4835
C13_3 C 0.14323(10) 0.15584(16) 0.5147(3)
H10_3 H 0.1202 0.1797 0.4644
C14_3 C 0.13166(9) 0.08992(16) 0.5706(2)
C15_3 C 0.16609(10) 0.05635(16) 0.6509(3)
H11_3 H 0.1592 0.0102 0.6872
C16_3 C 0.20945(10) 0.09104(17) 0.6758(3)
H12_3 H 0.2317 0.0698 0.7313
C17_3 C 0.08293(11) 0.05385(15) 0.5476(3)
O3_3 O 0.38694(6) 0.17387(10) 0.85593(16)
O4_3 O 0.26311(7) 0.19797(10) 0.62748(18)
O6_2 O 0.05328(6) 0.09090(10) 0.48397(17)
C18_3 C 0.46760(10) 0.44725(15) 0.2017(3)
C19_3 C 0.44655(9) 0.41404(15) 0.3190(3)
C20_3 C 0.42591(11) 0.34554(18) 0.3163(3)
H15_3 H 0.4245 0.3199 0.2406
C21_3 C 0.40640(11) 0.31153(16) 0.4238(3)
H16_3 H 0.3938 0.2632 0.4205
C22_3 C 0.40634(10) 0.35206(16) 0.5361(2)
C23_3 C 0.42690(11) 0.42150(17) 0.5398(3)
H17_3 H 0.4272 0.4481 0.6147
C24_3 C 0.44770(11) 0.45347(17) 0.4319(3)
H18_3 H 0.4621 0.5006 0.4357
C25_3 C 0.35729(9) 0.26015(15) 0.6338(2)
H19_3 H 0.3362 0.2643 0.5612
H20_3 H 0.3781 0.2167 0.6224
C26_3 C 0.29539(9) 0.31901(15) 0.7685(3)
H21_3 H 0.2766 0.3297 0.6935
H22_3 H 0.3157 0.3621 0.7877
C27_3 C 0.21988(10) 0.34097(15) 0.8836(3)
C28_3 C 0.18783(10) 0.31246(17) 0.9690(3)
C29_3 C 0.14323(10) 0.34416(16) 0.9853(3)
C30_3 C 0.13166(9) 0.41008(16) 0.9294(2)
C31_3 C 0.16609(10) 0.44365(16) 0.8491(3)
H25_3 H 0.1592 0.4898 0.8128
C32_3 C 0.20945(10) 0.40896(17) 0.8242(3)
H26_3 H 0.2317 0.4302 0.7687
C33_3 C 0.08293(11) 0.44615(15) 0.9524(3)
O8_3 O 0.48674(6) 0.51030(11) 0.21023(18)
O12_3 O 0.38694(6) 0.32613(10) 0.64407(16)
O13_3 O 0.26311(7) 0.30203(10) 0.87252(18)
O19_2 O 0.44672(6) 0.59090(10) 0.01603(17)
O20_3 O 0.53008(6) 0.66459(11) 0.15680(17)
H27_3 H 0.5196 0.7061 0.1062
H28_3 H 0.5134 0.6660 0.2359
H4_3 H 0.4621 0.9994 0.0643
O1_3 O 0.48674(6) 0.98970(11) 0.28977(18)
O7_3 O 0.53008(6) 0.83541(11) 0.34320(17)
H13_3 H 0.5196 0.7939 0.3938
H14_3 H 0.5134 0.8340 0.2641
O18_2 O 0.44672(6) 0.90910(10) 0.48397(17)
H4_4 H 0.0379 0.0006 0.0643
O1_4 O 0.01326(6) 0.01030(11) 0.28977(18)
C1_4 C 0.03240(10) 0.94725(15) 0.2983(3)
C2_4 C 0.05345(9) 0.91404(15) 0.1810(3)
C3_4 C 0.07409(11) 0.84554(18) 0.1837(3)
H1_4 H 0.0755 0.8199 0.2594
C4_4 C 0.09360(11) 0.81153(16) 0.0762(3)
H2_4 H 0.1062 0.7632 0.0795
C7_4 C 0.05230(11) 0.95347(17) 0.0681(3)
H23_4 H 0.3034 0.7291 0.0165
H24_4 H 0.3798 0.6797 0.0356
C5_4 C 0.09366(10) 0.85206(16) 0.9639(2)
C6_4 C 0.07310(11) 0.92150(17) 0.9602(3)
H3_4 H 0.0728 0.9481 0.8853
C8_4 C 0.14271(9) 0.76015(15) 0.8662(2)
H5_4 H 0.1638 0.7643 0.9388
H6_4 H 0.1219 0.7167 0.8776
C9_4 C 0.17347(11) 0.7500 0.7500
C10_4 C 0.20461(9) 0.81901(15) 0.7315(3)
H7_4 H 0.2234 0.8297 0.8065
H8_4 H 0.1843 0.8621 0.7123
C11_4 C 0.28012(10) 0.84097(15) 0.6164(3)
C12_4 C 0.31217(10) 0.81246(17) 0.5310(3)
H9_4 H 0.3034 0.7709 0.4835
C13_4 C 0.35677(10) 0.84416(16) 0.5147(3)
H10_4 H 0.3798 0.8203 0.4644
C14_4 C 0.36834(9) 0.91008(16) 0.5706(2)
C15_4 C 0.33391(10) 0.94365(16) 0.6509(3)
H11_4 H 0.3408 0.9898 0.6872
C16_4 C 0.29055(10) 0.90896(17) 0.6758(3)
H12_4 H 0.2683 0.9302 0.7313
C17_4 C 0.41707(11) 0.94615(15) 0.5476(3)
O3_4 O 0.11306(6) 0.82613(10) 0.85593(16)
O4_4 O 0.23689(7) 0.80203(10) 0.62748(18)
C18_4 C 0.03240(10) 0.55275(15) 0.2017(3)
C19_4 C 0.05345(9) 0.58596(15) 0.3190(3)
C20_4 C 0.07409(11) 0.65446(18) 0.3163(3)
H15_4 H 0.0755 0.6801 0.2406
C21_4 C 0.09360(11) 0.68847(16) 0.4238(3)
H16_4 H 0.1062 0.7368 0.4205
C22_4 C 0.09366(10) 0.64794(16) 0.5361(2)
C23_4 C 0.07310(11) 0.57850(17) 0.5398(3)
H17_4 H 0.0728 0.5519 0.6147
C24_4 C 0.05230(11) 0.54653(17) 0.4319(3)
H18_4 H 0.0379 0.4994 0.4357
C25_4 C 0.14271(9) 0.73985(15) 0.6338(2)
H19_4 H 0.1638 0.7357 0.5612
H20_4 H 0.1219 0.7833 0.6224
C26_4 C 0.20461(9) 0.68099(15) 0.7685(3)
H21_4 H 0.2234 0.6703 0.6935
H22_4 H 0.1843 0.6379 0.7877
C27_4 C 0.28012(10) 0.65903(15) 0.8836(3)
C28_4 C 0.31217(10) 0.68754(17) 0.9690(3)
C29_4 C 0.35677(10) 0.65584(16) 0.9853(3)
C30_4 C 0.36834(9) 0.58992(16) 0.9294(2)
C31_4 C 0.33391(10) 0.55635(16) 0.8491(3)
H25_4 H 0.3408 0.5102 0.8128
C32_4 C 0.29055(10) 0.59104(17) 0.8242(3)
H26_4 H 0.2683 0.5698 0.7687
C33_4 C 0.41707(11) 0.55385(15) 0.9524(3)
O8_4 O 0.01326(6) 0.48970(11) 0.21023(18)
O12_4 O 0.11306(6) 0.67387(10) 0.64407(16)
O13_4 O 0.23689(7) 0.69797(10) 0.87252(18)
O7_4 O 0.96992(6) 0.16459(11) 0.34320(17)
H13_4 H 0.9804 0.2061 0.3938
H14_4 H 0.9866 0.1660 0.2641
O20_4 O 0.96992(6) 0.33541(11) 0.15680(17)
H27_4 H 0.9804 0.2939 0.1062
H28_4 H 0.9866 0.3340 0.2359
loop_
_geom_bond_atom_site_label_1
_geom_bond_atom_site_label_2
_geom_bond_site_symmetry_1
_geom_bond_site_symmetry_2
Cu4 O5 1_555 1_555
Cu1 O1 1_555 1_555
O7 Cu1 1_555 1_555
H13 O7 1_555 1_555
H14 O7 1_555 1_555
O10 Cu1 1_555 1_555
O15 Cu1 1_555 1_555
O18 Cu1 1_555 1_555
C6 C5 1_555 1_555
H3 C6 1_555 1_555
C8 H5 1_555 1_555
H6 C8 1_555 1_555
C9 C8 1_555 1_555
C10 C9 1_555 1_555
H7 C10 1_555 1_555
H8 C10 1_555 1_555
C11 C12 1_555 1_555
C12 H9 1_555 1_555
C13 C12 1_555 1_555
H10 C13 1_555 1_555
C14 C13 1_555 1_555
C15 C14 1_555 1_555
H11 C15 1_555 1_555
C16 C11 1_555 1_555
H12 C16 1_555 1_555
C17 C14 1_555 1_555
O3 C5 1_555 1_555
O4 C10 1_555 1_555
O6 C17 1_555 1_555
C18 C19 1_555 1_555
C19 C20 1_555 1_555
C20 H15 1_555 1_555
C21 C20 1_555 1_555
H16 C21 1_555 1_555
C22 C21 1_555 1_555
C23 C22 1_555 1_555
H17 C23 1_555 1_555
C24 C19 1_555 1_555
H18 C24 1_555 1_555
C25 C9 1_555 1_555
H19 C25 1_555 1_555
H20 C25 1_555 1_555
C26 C9 1_555 1_555
H21 C26 1_555 1_555
H22 C26 1_555 1_555
C27 C28 1_555 1_555
C29 C28 1_555 1_555
C30 C29 1_555 1_555
C31 C30 1_555 1_555
H25 C31 1_555 1_555
C32 C27 1_555 1_555
H26 C32 1_555 1_555
C33 C30 1_555 1_555
Cu2 O8 1_555 1_555
Cu7 O14 1_555 1_555
O8 C18 1_555 1_555
O9 C18 1_555 1_555
O12 C22 1_555 1_555
O13 C26 1_555 1_555
O14 C33 1_555 1_555
O16 Cu2 1_555 1_555
O19 Cu2 1_555 1_555
O20 Cu2 1_555 1_555
H27 O20 1_555 1_555
H28 O20 1_555 1_555
C8 O3 1_555 1_555
C11 O4 1_555 1_555
C15 C16 1_555 1_555
C23 C24 1_555 1_555
C25 O12 1_555 1_555
C27 O13 1_555 1_555
C31 C32 1_555 1_555
C1 C2 1_555 1_555
C2 C3 1_555 1_555
C3 H1 1_555 1_555
C4 C3 1_555 1_555
H2 C4 1_555 1_555
C7 C2 1_555 1_555
O2 C1 1_555 1_555
Cu3 O2 1_555 1_555
O16_2 Cu8 1_555 1_555
O20_2 Cu8 1_555 1_555
H27_2 O20_2 1_555 1_555
H28_2 O20_2 1_555 1_555
O7_2 Cu5 1_555 1_555
H13_2 O7_2 1_555 1_555
H14_2 O7_2 1_555 1_555
O10_2 Cu5 1_555 1_555
O15_2 Cu5 1_555 1_555
C6_2 C5_2 1_555 1_555
H3_2 C6_2 1_555 1_555
C8_2 H5_2 1_555 1_555
H6_2 C8_2 1_555 1_555
C9_2 C8_2 1_555 1_555
C10_2 C9_2 1_555 1_555
H7_2 C10_2 1_555 1_555
H8_2 C10_2 1_555 1_555
C11_2 C12_2 1_555 1_555
C12_2 H9_2 1_555 1_555
C13_2 C12_2 1_555 1_555
H10_2 C13_2 1_555 1_555
C14_2 C13_2 1_555 1_555
C15_2 C14_2 1_555 1_555
H11_2 C15_2 1_555 1_555
C16_2 C11_2 1_555 1_555
H12_2 C16_2 1_555 1_555
C17_2 C14_2 1_555 1_555
O3_2 C5_2 1_555 1_555
O4_2 C10_2 1_555 1_555
O18 C17_2 1_555 1_555
C18_2 C19_2 1_555 1_555
C19_2 C20_2 1_555 1_555
C20_2 H15_2 1_555 1_555
C21_2 C20_2 1_555 1_555
H16_2 C21_2 1_555 1_555
C22_2 C21_2 1_555 1_555
C23_2 C22_2 1_555 1_555
H17_2 C23_2 1_555 1_555
C24_2 C19_2 1_555 1_555
H18_2 C24_2 1_555 1_555
C25_2 C9_2 1_555 1_555
H19_2 C25_2 1_555 1_555
H20_2 C25_2 1_555 1_555
C26_2 C9_2 1_555 1_555
H21_2 C26_2 1_555 1_555
H22_2 C26_2 1_555 1_555
C27_2 C28_2 1_555 1_555
C29_2 C28_2 1_555 1_555
C30_2 C29_2 1_555 1_555
C31_2 C30_2 1_555 1_555
H25_2 C31_2 1_555 1_555
C32_2 C27_2 1_555 1_555
H26_2 C32_2 1_555 1_555
C33_2 C30_2 1_555 1_555
Cu6 O14_2 1_555 1_555
O8_2 C18_2 1_555 1_555
O9_2 C18_2 1_555 1_555
O12_2 C22_2 1_555 1_555
O13_2 C26_2 1_555 1_555
O14_2 C33_2 1_555 1_555
C8_2 O3_2 1_555 1_555
C11_2 O4_2 1_555 1_555
C15_2 C16_2 1_555 1_555
C23_2 C24_2 1_555 1_555
C25_2 O12_2 1_555 1_555
C27_2 O13_2 1_555 1_555
C31_2 C32_2 1_555 1_555
C1_2 C2_2 1_555 1_555
C2_2 C3_2 1_555 1_555
C3_2 H1_2 1_555 1_555
C4_2 C3_2 1_555 1_555
H2_2 C4_2 1_555 1_555
C7_2 C2_2 1_555 1_555
O2_2 C1_2 1_555 1_555
Cu4 O2_2 1_555 1_555
Cu3 O5_2 1_555 1_555
C1_3 C2_3 1_555 1_555
C2_3 C3_3 1_555 1_555
C3_3 H1_3 1_555 1_555
C4_3 C3_3 1_555 1_555
H2_3 C4_3 1_555 1_555
C7_3 C2_3 1_555 1_555
O10 C1_3 1_555 1_555
C6_3 C5_3 1_555 1_555
H3_3 C6_3 1_555 1_555
C8_3 H5_3 1_555 1_555
H6_3 C8_3 1_555 1_555
C9_3 C8_3 1_555 1_555
C10_3 C9_3 1_555 1_555
H7_3 C10_3 1_555 1_555
H8_3 C10_3 1_555 1_555
C11_3 C12_3 1_555 1_555
C12_3 H9_3 1_555 1_555
C13_3 C12_3 1_555 1_555
H10_3 C13_3 1_555 1_555
C14_3 C13_3 1_555 1_555
C15_3 C14_3 1_555 1_555
H11_3 C15_3 1_555 1_555
C16_3 C11_3 1_555 1_555
H12_3 C16_3 1_555 1_555
C17_3 C14_3 1_555 1_555
O3_3 C5_3 1_555 1_555
O4_3 C10_3 1_555 1_555
O6_2 C17_3 1_555 1_555
C18_3 C19_3 1_555 1_555
C19_3 C20_3 1_555 1_555
C20_3 H15_3 1_555 1_555
C21_3 C20_3 1_555 1_555
H16_3 C21_3 1_555 1_555
C22_3 C21_3 1_555 1_555
C23_3 C22_3 1_555 1_555
H17_3 C23_3 1_555 1_555
C24_3 C19_3 1_555 1_555
H18_3 C24_3 1_555 1_555
C25_3 C9_3 1_555 1_555
H19_3 C25_3 1_555 1_555
H20_3 C25_3 1_555 1_555
C26_3 C9_3 1_555 1_555
H21_3 C26_3 1_555 1_555
H22_3 C26_3 1_555 1_555
C27_3 C28_3 1_555 1_555
C29_3 C28_3 1_555 1_555
C30_3 C29_3 1_555 1_555
C31_3 C30_3 1_555 1_555
H25_3 C31_3 1_555 1_555
C32_3 C27_3 1_555 1_555
H26_3 C32_3 1_555 1_555
C33_3 C30_3 1_555 1_555
Cu6 O8_3 1_555 1_555
O8_3 C18_3 1_555 1_555
O11 C18_3 1_555 1_555
O12_3 C22_3 1_555 1_555
O13_3 C26_3 1_555 1_555
O16_2 C33_3 1_555 1_555
O19_2 Cu6 1_555 1_555
O20_3 Cu6 1_555 1_555
H27_3 O20_3 1_555 1_555
H28_3 O20_3 1_555 1_555
C8_3 O3_3 1_555 1_555
C11_3 O4_3 1_555 1_555
C15_3 C16_3 1_555 1_555
C23_3 C24_3 1_555 1_555
C25_3 O12_3 1_555 1_555
C27_3 O13_3 1_555 1_555
C31_3 C32_3 1_555 1_555
Cu3 O1_3 1_555 1_555
O7_3 Cu3 1_555 1_555
H13_3 O7_3 1_555 1_555
H14_3 O7_3 1_555 1_555
O18_2 Cu3 1_555 1_555
C1_4 C2_4 1_555 1_555
C2_4 C3_4 1_555 1_555
C3_4 H1_4 1_555 1_555
C4_4 C3_4 1_555 1_555
H2_4 C4_4 1_555 1_555
C7_4 C2_4 1_555 1_555
O10_2 C1_4 1_555 1_555
C6_4 C5_4 1_555 1_555
H3_4 C6_4 1_555 1_555
C8_4 H5_4 1_555 1_555
H6_4 C8_4 1_555 1_555
C9_4 C8_4 1_555 1_555
C10_4 C9_4 1_555 1_555
H7_4 C10_4 1_555 1_555
H8_4 C10_4 1_555 1_555
C11_4 C12_4 1_555 1_555
C12_4 H9_4 1_555 1_555
C13_4 C12_4 1_555 1_555
H10_4 C13_4 1_555 1_555
C14_4 C13_4 1_555 1_555
C15_4 C14_4 1_555 1_555
H11_4 C15_4 1_555 1_555
C16_4 C11_4 1_555 1_555
H12_4 C16_4 1_555 1_555
C17_4 C14_4 1_555 1_555
O3_4 C5_4 1_555 1_555
O4_4 C10_4 1_555 1_555
O18_2 C17_4 1_555 1_555
C18_4 C19_4 1_555 1_555
C19_4 C20_4 1_555 1_555
C20_4 H15_4 1_555 1_555
C21_4 C20_4 1_555 1_555
H16_4 C21_4 1_555 1_555
C22_4 C21_4 1_555 1_555
C23_4 C22_4 1_555 1_555
H17_4 C23_4 1_555 1_555
C24_4 C19_4 1_555 1_555
H18_4 C24_4 1_555 1_555
C25_4 C9_4 1_555 1_555
H19_4 C25_4 1_555 1_555
H20_4 C25_4 1_555 1_555
C26_4 C9_4 1_555 1_555
H21_4 C26_4 1_555 1_555
H22_4 C26_4 1_555 1_555
C27_4 C28_4 1_555 1_555
C29_4 C28_4 1_555 1_555
C30_4 C29_4 1_555 1_555
C31_4 C30_4 1_555 1_555
H25_4 C31_4 1_555 1_555
C32_4 C27_4 1_555 1_555
H26_4 C32_4 1_555 1_555
C33_4 C30_4 1_555 1_555
O8_4 C18_4 1_555 1_555
O11_2 C18_4 1_555 1_555
O12_4 C22_4 1_555 1_555
O13_4 C26_4 1_555 1_555
O16 C33_4 1_555 1_555
C8_4 O3_4 1_555 1_555
C11_4 O4_4 1_555 1_555
C15_4 C16_4 1_555 1_555
C23_4 C24_4 1_555 1_555
C25_4 O12_4 1_555 1_555
C27_4 O13_4 1_555 1_555
C31_4 C32_4 1_555 1_555
O7_4 Cu4 1_555 1_555
H13_4 O7_4 1_555 1_555
H14_4 O7_4 1_555 1_555
O20_4 Cu7 1_555 1_555
H27_4 O20_4 1_555 1_555
H28_4 O20_4 1_555 1_555

#END
