
###############################################################################
#
# This file contains modified crystal structure data generated from the
# MOF subset of the Cambridge Structural Database (CSD) v543 
# hosted by the Cambridge Crystallographic Data Centre (CCDC).
#
# This work is licensed under the Creative Commons
# Attribution-NonCommercial-ShareAlike 4.0 International License.
# To view a copy of this license, visit
# http://creativecommons.org/licenses/by-nc-sa/4.0/
# or send a letter to
# Creative Commons, PO Box 1866, Mountain View, CA 94042, USA.
#
# CIF created using the CSD Python API on 29 September 2022
# The structure has been converted into the P1 space group
# The structure has a 3D framework
# The original CSD entry DABDAP is in the cubic crystal system
# The framework has been calculated to contain at least 10.0% void space
# The void calculation uses a probe of radius 1.32A, grid spacing 0.4
#
###############################################################################

data_DABDAP
_chemical_formula_moiety         '(C264 H360 Cu97 I64 N96 O56)n'
_symmetry_cell_setting           triclinic
_symmetry_space_group_name_H-M   'P 1'
_symmetry_Int_Tables_number      1
_space_group_name_Hall           'P 1'
loop_
_symmetry_equiv_pos_site_id
_symmetry_equiv_pos_as_xyz
1 x,y,z
_cell_length_a                   25.1585(14)
_cell_length_b                   25.1585(14)
_cell_length_c                   25.1585(14)
_cell_angle_alpha                90
_cell_angle_beta                 90
_cell_angle_gamma                90
_cell_volume                     15924.1
loop_
_atom_site_label
_atom_site_type_symbol
_atom_site_fract_x
_atom_site_fract_y
_atom_site_fract_z
C1 C 0.1369(10) 0.4719(14) 0.1369(10)
H1 H 0.1320 0.5090 0.1320
C2 C 0.1799(10) 0.3973(10) 0.1146(9)
H2 H 0.2060 0.3788 0.0946
C3 C 0.1507(9) 0.3696(14) 0.1507(9)
C4 C 0.1587(10) 0.3120(15) 0.1587(10)
C5 C 0.0295(12) 0.2374(16) 0.1709(12)
H3 H 0.0427 0.2107 0.1451
H4 H 0.0437 0.2726 0.1603
C6 C 0.027(2) 0.2610(16) 0.2610(16)
H5 H 0.0392 0.2973 0.2522
N1 N 0.1735(8) 0.4500(8) 0.1060(8)
N2 N 0.0483(12) 0.2241(10) 0.2241(10)
O1 O 0.1299(6) 0.2908(7) 0.1933(6)
O2 O 0.2113(13) 0.2113(13) 0.2113(13)
I1 I 0.18541(7) 0.58339(6) 0.03521(7)
I2 I 0.32253(8) 0.19507(9) 0.32253(8)
I4 I 0.1398(10) 0.1398(10) 0.1398(10)
Cu1 Cu 0.21474(14) 0.48585(13) 0.04918(15)
Cu2 Cu 0.2621(2) 0.2621(2) 0.2621(2)
Cu4 Cu 0.1328(2) 0.22070(18) 0.22070(18)
C9 C 0.1146(9) 0.3973(10) 0.1799(10)
H9 H 0.0946 0.3788 0.2060
N4 N 0.1060(8) 0.4500(8) 0.1735(8)
O3 O 0.1933(6) 0.2908(7) 0.1299(6)
C10 C 0.0295(12) 0.1709(12) 0.2374(16)
H10 H 0.0427 0.1451 0.2107
H11 H 0.0437 0.1603 0.2726
H12 H 0.0392 0.2522 0.2973
C28 C 0.1709(12) 0.2374(16) 0.0295(12)
H34 H 0.1451 0.2107 0.0427
H35 H 0.1603 0.2726 0.0437
C29 C 0.2610(16) 0.2610(16) 0.027(2)
H36 H 0.2522 0.2973 0.0392
N11 N 0.2241(10) 0.2241(10) 0.0483(12)
I9 I 0.03521(7) 0.58339(6) 0.18541(7)
Cu11 Cu 0.04918(15) 0.48585(13) 0.21474(14)
Cu13 Cu 0.22070(18) 0.22070(18) 0.1328(2)
C32 C 0.2374(16) 0.1709(12) 0.0295(12)
H40 H 0.2107 0.1451 0.0427
H41 H 0.2726 0.1603 0.0437
H42 H 0.2973 0.2522 0.0392
I10 I 0.19507(9) 0.32253(8) 0.32253(8)
I11 I 0.32253(8) 0.32253(8) 0.19507(9)
O8 O 0.2908(7) 0.1933(6) 0.1299(6)
O10 O 0.1299(6) 0.1933(6) 0.2908(7)
I13 I 0.31459(7) 0.46479(7) 0.08339(6)
I17 I 0.08339(6) 0.46479(7) 0.31459(7)
Cu15 Cu 0.28526(14) 0.54918(15) 0.01415(13)
Cu19 Cu 0.01415(13) 0.54918(15) 0.28526(14)
Cu22 Cu 0.28488(14) 0.36161(18) 0.28488(14)
Cu23 Cu 0.36161(18) 0.28488(14) 0.28488(14)
Cu24 Cu 0.28488(14) 0.28488(14) 0.36161(18)
Cu29 Cu 0.22070(18) 0.1328(2) 0.22070(18)
C12 C 0.1369(10) 0.5281(14) 0.8631(10)
H16 H 0.1320 0.4910 0.8680
C13 C 0.1799(10) 0.6027(10) 0.8854(9)
H17 H 0.2060 0.6212 0.9054
C14 C 0.1507(9) 0.6304(14) 0.8493(9)
C15 C 0.1587(10) 0.6880(15) 0.8413(10)
N5 N 0.1735(8) 0.5500(8) 0.8940(8)
O4 O 0.1299(6) 0.7092(7) 0.8067(6)
I5 I 0.18541(7) 0.41661(6) 0.96479(7)
Cu5 Cu 0.21474(14) 0.51415(13) 0.95082(15)
C16 C 0.1146(9) 0.6027(10) 0.8201(10)
H18 H 0.0946 0.6212 0.7940
N6 N 0.1060(8) 0.5500(8) 0.8265(8)
O5 O 0.1933(6) 0.7092(7) 0.8701(6)
I7 I 0.03521(7) 0.41661(6) 0.81459(7)
Cu7 Cu 0.04918(15) 0.51415(13) 0.78526(14)
C30 C 0.1694(9) 0.2387(10) 0.9672(11)
H37 H 0.1610 0.2751 0.9548
H38 H 0.1414 0.2144 0.9540
C31 C 0.2593(10) 0.2593(10) 0.9641(14)
H39 H 0.2950 0.2499 0.9503
N12 N 0.2220(9) 0.2220(9) 0.9458(12)
Cu12 Cu 0.21512(14) 0.21512(14) 0.86161(18)
C33 C 0.2387(10) 0.1694(9) 0.9672(11)
H43 H 0.2751 0.1610 0.9548
H44 H 0.2144 0.1414 0.9540
H45 H 0.2499 0.2950 0.9503
I12 I 0.31459(7) 0.53521(7) 0.91661(6)
I14 I 0.08339(6) 0.53521(7) 0.68541(7)
I19 I 0.17747(8) 0.30493(9) 0.82253(8)
I21 I 0.30493(9) 0.17747(8) 0.82253(8)
I23 I 0.13726(10) 0.13726(10) 0.86274(10)
Cu16 Cu 0.28526(14) 0.45082(15) 0.98585(13)
Cu18 Cu 0.01415(13) 0.45082(15) 0.71474(14)
Cu26 Cu 0.1328(2) 0.77930(18) 0.77930(18)
Cu28 Cu 0.22070(18) 0.77930(18) 0.8672(2)
C7 C 0.9672(11) 0.2387(10) 0.1694(9)
H6 H 0.9548 0.2751 0.1610
H7 H 0.9540 0.2144 0.1414
C8 C 0.9641(14) 0.2593(10) 0.2593(10)
H8 H 0.9503 0.2499 0.2950
N3 N 0.9458(12) 0.2220(9) 0.2220(9)
I3 I 0.86274(10) 0.13726(10) 0.13726(10)
Cu3 Cu 0.86161(18) 0.21512(14) 0.21512(14)
C11 C 0.9672(11) 0.1694(9) 0.2387(10)
H13 H 0.9548 0.1610 0.2751
H14 H 0.9540 0.1414 0.2144
H15 H 0.9503 0.2950 0.2499
C17 C 0.8631(10) 0.5281(14) 0.1369(10)
H19 H 0.8680 0.4910 0.1320
C18 C 0.8854(9) 0.6027(10) 0.1799(10)
H20 H 0.9054 0.6212 0.2060
C19 C 0.8493(9) 0.6304(14) 0.1507(9)
C20 C 0.8413(10) 0.6880(15) 0.1587(10)
N7 N 0.8940(8) 0.5500(8) 0.1735(8)
O6 O 0.8067(6) 0.7092(7) 0.1299(6)
I6 I 0.96479(7) 0.41661(6) 0.18541(7)
Cu6 Cu 0.95082(15) 0.51415(13) 0.21474(14)
C21 C 0.8201(10) 0.6027(10) 0.1146(9)
H21 H 0.7940 0.6212 0.0946
N8 N 0.8265(8) 0.5500(8) 0.1060(8)
O7 O 0.8701(6) 0.7092(7) 0.1933(6)
C24 C 0.8306(9) 0.2387(10) 0.0328(11)
H25 H 0.8390 0.2751 0.0452
H26 H 0.8586 0.2144 0.0460
C25 C 0.7407(10) 0.2593(10) 0.0359(14)
H27 H 0.7050 0.2499 0.0497
N10 N 0.7780(9) 0.2220(9) 0.0542(12)
Cu9 Cu 0.78488(14) 0.21512(14) 0.13839(18)
C27 C 0.7613(10) 0.1694(9) 0.0328(11)
H31 H 0.7249 0.1610 0.0452
H32 H 0.7856 0.1414 0.0460
H33 H 0.7501 0.2950 0.0497
I16 I 0.91661(6) 0.53521(7) 0.31459(7)
I18 I 0.69507(9) 0.17747(8) 0.17747(8)
I20 I 0.82253(8) 0.30493(9) 0.17747(8)
I22 I 0.82253(8) 0.17747(8) 0.30493(9)
Cu14 Cu 0.78526(14) 0.51415(13) 0.04918(15)
Cu20 Cu 0.98585(13) 0.45082(15) 0.28526(14)
Cu21 Cu 0.78488(14) 0.13839(18) 0.21512(14)
Cu25 Cu 0.8672(2) 0.77930(18) 0.22070(18)
Cu27 Cu 0.77930(18) 0.77930(18) 0.1328(2)
C22 C 0.8291(12) 0.2374(16) 0.9705(12)
H22 H 0.8549 0.2107 0.9573
H23 H 0.8397 0.2726 0.9563
C23 C 0.7390(16) 0.2610(16) 0.973(2)
H24 H 0.7478 0.2973 0.9608
N9 N 0.7759(10) 0.2241(10) 0.9517(12)
I8 I 0.96479(7) 0.58339(6) 0.81459(7)
Cu8 Cu 0.95082(15) 0.48585(13) 0.78526(14)
Cu10 Cu 0.77930(18) 0.22070(18) 0.8672(2)
C26 C 0.7626(16) 0.1709(12) 0.9705(12)
H28 H 0.7893 0.1451 0.9573
H29 H 0.7274 0.1603 0.9563
H30 H 0.7027 0.2522 0.9608
N13 N 0.8940(8) 0.4500(8) 0.8265(8)
O9 O 0.7092(7) 0.1933(6) 0.8701(6)
O11 O 0.8067(6) 0.2908(7) 0.8701(6)
O12 O 0.7887(13) 0.2113(13) 0.7887(13)
I15 I 0.91661(6) 0.46479(7) 0.68541(7)
I24 I 0.8602(10) 0.1398(10) 0.8602(10)
Cu17 Cu 0.98585(13) 0.54918(15) 0.71474(14)
I8_2 I 0.58339(6) 0.03521(7) 0.18541(7)
Cu8_2 Cu 0.48585(13) 0.04918(15) 0.21474(14)
N13_2 N 0.4500(8) 0.1060(8) 0.1735(8)
I15_2 I 0.46479(7) 0.08339(6) 0.31459(7)
Cu17_2 Cu 0.54918(15) 0.01415(13) 0.28526(14)
C7_2 C 0.2387(10) 0.0328(11) 0.8306(9)
H6_2 H 0.2751 0.0452 0.8390
H7_2 H 0.2144 0.0460 0.8586
C8_2 C 0.2593(10) 0.0359(14) 0.7407(10)
H8_2 H 0.2499 0.0497 0.7050
N3_2 N 0.2220(9) 0.0542(12) 0.7780(9)
Cu3_2 Cu 0.21512(14) 0.13839(18) 0.78488(14)
C11_2 C 0.1694(9) 0.0328(11) 0.7613(10)
H13_2 H 0.1610 0.0452 0.7249
H14_2 H 0.1414 0.0460 0.7856
H15_2 H 0.2950 0.0497 0.7501
C17_2 C 0.5281(14) 0.1369(10) 0.8631(10)
H19_2 H 0.4910 0.1320 0.8680
C18_2 C 0.6027(10) 0.1146(9) 0.8201(10)
H20_2 H 0.6212 0.0946 0.7940
C19_2 C 0.6304(14) 0.1507(9) 0.8493(9)
C20_2 C 0.6880(15) 0.1587(10) 0.8413(10)
N7_2 N 0.5500(8) 0.1060(8) 0.8265(8)
I6_2 I 0.41661(6) 0.03521(7) 0.81459(7)
Cu6_2 Cu 0.51415(13) 0.04918(15) 0.78526(14)
C21_2 C 0.6027(10) 0.1799(10) 0.8854(9)
H21_2 H 0.6212 0.2060 0.9054
N8_2 N 0.5500(8) 0.1735(8) 0.8940(8)
O7_2 O 0.7092(7) 0.1299(6) 0.8067(6)
I16_2 I 0.53521(7) 0.08339(6) 0.68541(7)
I22_2 I 0.17747(8) 0.17747(8) 0.69507(9)
Cu14_2 Cu 0.51415(13) 0.21474(14) 0.95082(15)
Cu20_2 Cu 0.45082(15) 0.01415(13) 0.71474(14)
Cu21_2 Cu 0.13839(18) 0.21512(14) 0.78488(14)
Cu25_2 Cu 0.77930(18) 0.1328(2) 0.77930(18)
C12_2 C 0.5281(14) 0.8631(10) 0.1369(10)
H16_2 H 0.4910 0.8680 0.1320
C13_2 C 0.6027(10) 0.8201(10) 0.1146(9)
H17_2 H 0.6212 0.7940 0.0946
C14_2 C 0.6304(14) 0.8493(9) 0.1507(9)
C15_2 C 0.6880(15) 0.8413(10) 0.1587(10)
N5_2 N 0.5500(8) 0.8265(8) 0.1060(8)
O4_2 O 0.7092(7) 0.8701(6) 0.1933(6)
I5_2 I 0.41661(6) 0.81459(7) 0.03521(7)
Cu5_2 Cu 0.51415(13) 0.78526(14) 0.04918(15)
C16_2 C 0.6027(10) 0.8854(9) 0.1799(10)
H18_2 H 0.6212 0.9054 0.2060
N6_2 N 0.5500(8) 0.8940(8) 0.1735(8)
O5_2 O 0.7092(7) 0.8067(6) 0.1299(6)
I7_2 I 0.41661(6) 0.96479(7) 0.18541(7)
Cu7_2 Cu 0.51415(13) 0.95082(15) 0.21474(14)
C30_2 C 0.2387(10) 0.8306(9) 0.0328(11)
H37_2 H 0.2751 0.8390 0.0452
H38_2 H 0.2144 0.8586 0.0460
C31_2 C 0.2593(10) 0.7407(10) 0.0359(14)
H39_2 H 0.2499 0.7050 0.0497
N12_2 N 0.2220(9) 0.7780(9) 0.0542(12)
Cu12_2 Cu 0.21512(14) 0.78488(14) 0.13839(18)
C33_2 C 0.1694(9) 0.7613(10) 0.0328(11)
H43_2 H 0.1610 0.7249 0.0452
H44_2 H 0.1414 0.7856 0.0460
H45_2 H 0.2950 0.7501 0.0497
I12_2 I 0.53521(7) 0.68541(7) 0.08339(6)
I14_2 I 0.53521(7) 0.91661(6) 0.31459(7)
I19_2 I 0.30493(9) 0.82253(8) 0.17747(8)
I21_2 I 0.17747(8) 0.69507(9) 0.17747(8)
I23_2 I 0.13726(10) 0.86274(10) 0.13726(10)
Cu16_2 Cu 0.45082(15) 0.71474(14) 0.01415(13)
Cu18_2 Cu 0.45082(15) 0.98585(13) 0.28526(14)
Cu26_2 Cu 0.77930(18) 0.8672(2) 0.22070(18)
C1_2 C 0.4719(14) 0.8631(10) 0.8631(10)
H1_2 H 0.5090 0.8680 0.8680
C2_2 C 0.3973(10) 0.8201(10) 0.8854(9)
H2_2 H 0.3788 0.7940 0.9054
C3_2 C 0.3696(14) 0.8493(9) 0.8493(9)
C4_2 C 0.3120(15) 0.8413(10) 0.8413(10)
C5_2 C 0.2374(16) 0.9705(12) 0.8291(12)
H3_2 H 0.2107 0.9573 0.8549
H4_2 H 0.2726 0.9563 0.8397
C6_2 C 0.2610(16) 0.973(2) 0.7390(16)
H5_2 H 0.2973 0.9608 0.7478
N1_2 N 0.4500(8) 0.8265(8) 0.8940(8)
N2_2 N 0.2241(10) 0.9517(12) 0.7759(10)
O1_2 O 0.2908(7) 0.8701(6) 0.8067(6)
O2_2 O 0.2113(13) 0.7887(13) 0.7887(13)
I1_2 I 0.58339(6) 0.81459(7) 0.96479(7)
I2_2 I 0.19507(9) 0.67747(8) 0.67747(8)
I4_2 I 0.1398(10) 0.8602(10) 0.8602(10)
Cu1_2 Cu 0.48585(13) 0.78526(14) 0.95082(15)
Cu2_2 Cu 0.2621(2) 0.7379(2) 0.7379(2)
Cu4_2 Cu 0.22070(18) 0.8672(2) 0.77930(18)
C9_2 C 0.3973(10) 0.8854(9) 0.8201(10)
H9_2 H 0.3788 0.9054 0.7940
N4_2 N 0.4500(8) 0.8940(8) 0.8265(8)
O3_2 O 0.2908(7) 0.8067(6) 0.8701(6)
C10_2 C 0.1709(12) 0.9705(12) 0.7626(16)
H10_2 H 0.1451 0.9573 0.7893
H11_2 H 0.1603 0.9563 0.7274
H12_2 H 0.2522 0.9608 0.7027
C28_2 C 0.2374(16) 0.8291(12) 0.9705(12)
H34_2 H 0.2107 0.8549 0.9573
H35_2 H 0.2726 0.8397 0.9563
C29_2 C 0.2610(16) 0.7390(16) 0.973(2)
H36_2 H 0.2973 0.7478 0.9608
N11_2 N 0.2241(10) 0.7759(10) 0.9517(12)
I9_2 I 0.58339(6) 0.96479(7) 0.81459(7)
Cu11_2 Cu 0.48585(13) 0.95082(15) 0.78526(14)
C32_2 C 0.1709(12) 0.7626(16) 0.9705(12)
H40_2 H 0.1451 0.7893 0.9573
H41_2 H 0.1603 0.7274 0.9563
H42_2 H 0.2522 0.7027 0.9608
I10_2 I 0.32253(8) 0.80493(9) 0.67747(8)
I11_2 I 0.32253(8) 0.67747(8) 0.80493(9)
O10_2 O 0.1933(6) 0.8701(6) 0.7092(7)
I13_2 I 0.46479(7) 0.68541(7) 0.91661(6)
I17_2 I 0.46479(7) 0.91661(6) 0.68541(7)
Cu15_2 Cu 0.54918(15) 0.71474(14) 0.98585(13)
Cu19_2 Cu 0.54918(15) 0.98585(13) 0.71474(14)
Cu22_2 Cu 0.36161(18) 0.71512(14) 0.71512(14)
Cu23_2 Cu 0.28488(14) 0.63839(18) 0.71512(14)
Cu24_2 Cu 0.28488(14) 0.71512(14) 0.63839(18)
C7_3 C 0.0328(11) 0.7613(10) 0.1694(9)
H6_3 H 0.0452 0.7249 0.1610
H7_3 H 0.0460 0.7856 0.1414
C8_3 C 0.0359(14) 0.7407(10) 0.2593(10)
H8_3 H 0.0497 0.7501 0.2950
N3_3 N 0.0542(12) 0.7780(9) 0.2220(9)
Cu3_3 Cu 0.13839(18) 0.78488(14) 0.21512(14)
C11_3 C 0.0328(11) 0.8306(9) 0.2387(10)
H13_3 H 0.0452 0.8390 0.2751
H14_3 H 0.0460 0.8586 0.2144
H15_3 H 0.0497 0.7050 0.2499
I22_3 I 0.17747(8) 0.82253(8) 0.30493(9)
Cu21_3 Cu 0.21512(14) 0.86161(18) 0.21512(14)
C5_3 C 0.9705(12) 0.7626(16) 0.1709(12)
H3_3 H 0.9573 0.7893 0.1451
H4_3 H 0.9563 0.7274 0.1603
C6_3 C 0.973(2) 0.7390(16) 0.2610(16)
H5_3 H 0.9608 0.7027 0.2522
N2_3 N 0.9517(12) 0.7759(10) 0.2241(10)
O2_3 O 0.7887(13) 0.7887(13) 0.2113(13)
I1_3 I 0.81459(7) 0.41661(6) 0.03521(7)
I2_3 I 0.67747(8) 0.80493(9) 0.32253(8)
I4_3 I 0.8602(10) 0.8602(10) 0.1398(10)
Cu2_3 Cu 0.7379(2) 0.7379(2) 0.2621(2)
C10_3 C 0.9705(12) 0.8291(12) 0.2374(16)
H10_3 H 0.9573 0.8549 0.2107
H11_3 H 0.9563 0.8397 0.2726
H12_3 H 0.9608 0.7478 0.2973
C28_3 C 0.8291(12) 0.7626(16) 0.0295(12)
H34_3 H 0.8549 0.7893 0.0427
H35_3 H 0.8397 0.7274 0.0437
C29_3 C 0.7390(16) 0.7390(16) 0.027(2)
H36_3 H 0.7478 0.7027 0.0392
N11_3 N 0.7759(10) 0.7759(10) 0.0483(12)
C32_3 C 0.7626(16) 0.8291(12) 0.0295(12)
H40_3 H 0.7893 0.8549 0.0427
H41_3 H 0.7274 0.8397 0.0437
H42_3 H 0.7027 0.7478 0.0392
I10_3 I 0.80493(9) 0.67747(8) 0.32253(8)
I11_3 I 0.67747(8) 0.67747(8) 0.19507(9)
O10_3 O 0.8701(6) 0.8067(6) 0.2908(7)
I13_3 I 0.68541(7) 0.53521(7) 0.08339(6)
Cu15_3 Cu 0.71474(14) 0.45082(15) 0.01415(13)
Cu22_3 Cu 0.71512(14) 0.63839(18) 0.28488(14)
Cu23_3 Cu 0.63839(18) 0.71512(14) 0.28488(14)
Cu24_3 Cu 0.71512(14) 0.71512(14) 0.36161(18)
C12_3 C 0.8631(10) 0.4719(14) 0.8631(10)
H16_3 H 0.8680 0.5090 0.8680
C13_3 C 0.8201(10) 0.3973(10) 0.8854(9)
H17_3 H 0.7940 0.3788 0.9054
C14_3 C 0.8493(9) 0.3696(14) 0.8493(9)
C15_3 C 0.8413(10) 0.3120(15) 0.8413(10)
N5_3 N 0.8265(8) 0.4500(8) 0.8940(8)
O4_3 O 0.8701(6) 0.2908(7) 0.8067(6)
I5_3 I 0.81459(7) 0.58339(6) 0.96479(7)
Cu5_3 Cu 0.78526(14) 0.48585(13) 0.95082(15)
C16_3 C 0.8854(9) 0.3973(10) 0.8201(10)
H18_3 H 0.9054 0.3788 0.7940
C30_3 C 0.8306(9) 0.7613(10) 0.9672(11)
H37_3 H 0.8390 0.7249 0.9548
H38_3 H 0.8586 0.7856 0.9540
C31_3 C 0.7407(10) 0.7407(10) 0.9641(14)
H39_3 H 0.7050 0.7501 0.9503
N12_3 N 0.7780(9) 0.7780(9) 0.9458(12)
Cu12_3 Cu 0.78488(14) 0.78488(14) 0.86161(18)
C33_3 C 0.7613(10) 0.8306(9) 0.9672(11)
H43_3 H 0.7249 0.8390 0.9548
H44_3 H 0.7856 0.8586 0.9540
H45_3 H 0.7501 0.7050 0.9503
I12_3 I 0.68541(7) 0.46479(7) 0.91661(6)
I19_3 I 0.82253(8) 0.69507(9) 0.82253(8)
I21_3 I 0.69507(9) 0.82253(8) 0.82253(8)
I23_3 I 0.86274(10) 0.86274(10) 0.86274(10)
Cu16_3 Cu 0.71474(14) 0.54918(15) 0.98585(13)
Cu26_3 Cu 0.8672(2) 0.22070(18) 0.77930(18)
C12_4 C 0.4719(14) 0.1369(10) 0.1369(10)
H16_4 H 0.5090 0.1320 0.1320
C13_4 C 0.3973(10) 0.1799(10) 0.1146(9)
H17_4 H 0.3788 0.2060 0.0946
C14_4 C 0.3696(14) 0.1507(9) 0.1507(9)
C15_4 C 0.3120(15) 0.1587(10) 0.1587(10)
N5_4 N 0.4500(8) 0.1735(8) 0.1060(8)
O4_4 O 0.2908(7) 0.1299(6) 0.1933(6)
I5_4 I 0.58339(6) 0.18541(7) 0.03521(7)
Cu5_4 Cu 0.48585(13) 0.21474(14) 0.04918(15)
C16_4 C 0.3973(10) 0.1146(9) 0.1799(10)
H18_4 H 0.3788 0.0946 0.2060
I12_4 I 0.46479(7) 0.31459(7) 0.08339(6)
Cu16_4 Cu 0.54918(15) 0.28526(14) 0.01415(13)
C5_4 C 0.7626(16) 0.0295(12) 0.8291(12)
H3_4 H 0.7893 0.0427 0.8549
H4_4 H 0.7274 0.0437 0.8397
C6_4 C 0.7390(16) 0.027(2) 0.7390(16)
H5_4 H 0.7027 0.0392 0.7478
N2_4 N 0.7759(10) 0.0483(12) 0.7759(10)
I1_4 I 0.41661(6) 0.18541(7) 0.96479(7)
I2_4 I 0.80493(9) 0.32253(8) 0.67747(8)
Cu2_4 Cu 0.7379(2) 0.2621(2) 0.7379(2)
C10_4 C 0.8291(12) 0.0295(12) 0.7626(16)
H10_4 H 0.8549 0.0427 0.7893
H11_4 H 0.8397 0.0437 0.7274
H12_4 H 0.7478 0.0392 0.7027
I10_4 I 0.67747(8) 0.19507(9) 0.67747(8)
I11_4 I 0.67747(8) 0.32253(8) 0.80493(9)
O10_4 O 0.8067(6) 0.1299(6) 0.7092(7)
I13_4 I 0.53521(7) 0.31459(7) 0.91661(6)
Cu15_4 Cu 0.45082(15) 0.28526(14) 0.98585(13)
Cu22_4 Cu 0.63839(18) 0.28488(14) 0.71512(14)
Cu23_4 Cu 0.71512(14) 0.36161(18) 0.71512(14)
Cu24_4 Cu 0.71512(14) 0.28488(14) 0.63839(18)
C7_4 C 0.7613(10) 0.9672(11) 0.8306(9)
H6_4 H 0.7249 0.9548 0.8390
H7_4 H 0.7856 0.9540 0.8586
C8_4 C 0.7407(10) 0.9641(14) 0.7407(10)
H8_4 H 0.7501 0.9503 0.7050
N3_4 N 0.7780(9) 0.9458(12) 0.7780(9)
Cu3_4 Cu 0.78488(14) 0.86161(18) 0.78488(14)
C11_4 C 0.8306(9) 0.9672(11) 0.7613(10)
H13_4 H 0.8390 0.9548 0.7249
H14_4 H 0.8586 0.9540 0.7856
H15_4 H 0.7050 0.9503 0.7501
I22_4 I 0.82253(8) 0.82253(8) 0.69507(9)
Cu21_4 Cu 0.86161(18) 0.78488(14) 0.78488(14)
C7_5 C 0.0328(11) 0.1694(9) 0.7613(10)
H6_5 H 0.0452 0.1610 0.7249
H7_5 H 0.0460 0.1414 0.7856
C8_5 C 0.0359(14) 0.2593(10) 0.7407(10)
H8_5 H 0.0497 0.2950 0.7501
N3_5 N 0.0542(12) 0.2220(9) 0.7780(9)
C11_5 C 0.0328(11) 0.2387(10) 0.8306(9)
H13_5 H 0.0452 0.2751 0.8390
H14_5 H 0.0460 0.2144 0.8586
H15_5 H 0.0497 0.2499 0.7050
C17_3 C 0.1369(10) 0.1369(10) 0.4719(14)
H19_3 H 0.1320 0.1320 0.5090
C18_3 C 0.1146(9) 0.1799(10) 0.3973(10)
H20_3 H 0.0946 0.2060 0.3788
C19_3 C 0.1507(9) 0.1507(9) 0.3696(14)
C20_3 C 0.1587(10) 0.1587(10) 0.3120(15)
N7_3 N 0.1060(8) 0.1735(8) 0.4500(8)
O6_2 O 0.1933(6) 0.1299(6) 0.2908(7)
I6_3 I 0.03521(7) 0.18541(7) 0.58339(6)
Cu6_3 Cu 0.04918(15) 0.21474(14) 0.48585(13)
C21_3 C 0.1799(10) 0.1146(9) 0.3973(10)
H21_3 H 0.2060 0.0946 0.3788
N8_3 N 0.1735(8) 0.1060(8) 0.4500(8)
I16_3 I 0.08339(6) 0.31459(7) 0.46479(7)
Cu14_3 Cu 0.21474(14) 0.04918(15) 0.48585(13)
Cu20_3 Cu 0.01415(13) 0.28526(14) 0.54918(15)
I8_3 I 0.03521(7) 0.81459(7) 0.41661(6)
Cu8_3 Cu 0.04918(15) 0.78526(14) 0.51415(13)
N13_3 N 0.1060(8) 0.8265(8) 0.5500(8)
I15_3 I 0.08339(6) 0.68541(7) 0.53521(7)
Cu17_3 Cu 0.01415(13) 0.71474(14) 0.45082(15)
C1_3 C 0.8631(10) 0.1369(10) 0.5281(14)
H1_3 H 0.8680 0.1320 0.4910
C2_3 C 0.8201(10) 0.1146(9) 0.6027(10)
H2_3 H 0.7940 0.0946 0.6212
C3_3 C 0.8493(9) 0.1507(9) 0.6304(14)
C4_3 C 0.8413(10) 0.1587(10) 0.6880(15)
C5_5 C 0.9705(12) 0.1709(12) 0.7626(16)
H3_5 H 0.9573 0.1451 0.7893
H4_5 H 0.9563 0.1603 0.7274
C6_5 C 0.973(2) 0.2610(16) 0.7390(16)
H5_5 H 0.9608 0.2522 0.7027
N1_3 N 0.8265(8) 0.1060(8) 0.5500(8)
N2_5 N 0.9517(12) 0.2241(10) 0.7759(10)
O1_3 O 0.8701(6) 0.1933(6) 0.7092(7)
I1_5 I 0.81459(7) 0.03521(7) 0.41661(6)
Cu1_3 Cu 0.78526(14) 0.04918(15) 0.51415(13)
C9_3 C 0.8854(9) 0.1799(10) 0.6027(10)
H9_3 H 0.9054 0.2060 0.6212
N4_3 N 0.8940(8) 0.1735(8) 0.5500(8)
C10_5 C 0.9705(12) 0.2374(16) 0.8291(12)
H10_5 H 0.9573 0.2107 0.8549
H11_5 H 0.9563 0.2726 0.8397
H12_5 H 0.9608 0.2973 0.7478
I9_3 I 0.96479(7) 0.18541(7) 0.41661(6)
Cu11_3 Cu 0.95082(15) 0.21474(14) 0.51415(13)
I13_5 I 0.68541(7) 0.08339(6) 0.53521(7)
I17_3 I 0.91661(6) 0.31459(7) 0.53521(7)
Cu15_5 Cu 0.71474(14) 0.01415(13) 0.45082(15)
Cu19_3 Cu 0.98585(13) 0.28526(14) 0.45082(15)
C12_5 C 0.8631(10) 0.8631(10) 0.4719(14)
H16_5 H 0.8680 0.8680 0.5090
C13_5 C 0.8201(10) 0.8854(9) 0.3973(10)
H17_5 H 0.7940 0.9054 0.3788
C14_5 C 0.8493(9) 0.8493(9) 0.3696(14)
C15_5 C 0.8413(10) 0.8413(10) 0.3120(15)
N5_5 N 0.8265(8) 0.8940(8) 0.4500(8)
I5_5 I 0.81459(7) 0.96479(7) 0.58339(6)
Cu5_5 Cu 0.78526(14) 0.95082(15) 0.48585(13)
C16_5 C 0.8854(9) 0.8201(10) 0.3973(10)
H18_5 H 0.9054 0.7940 0.3788
N6_3 N 0.8940(8) 0.8265(8) 0.4500(8)
O5_3 O 0.8067(6) 0.8701(6) 0.2908(7)
I7_3 I 0.96479(7) 0.81459(7) 0.58339(6)
Cu7_3 Cu 0.95082(15) 0.78526(14) 0.48585(13)
I12_5 I 0.68541(7) 0.91661(6) 0.46479(7)
I14_3 I 0.91661(6) 0.68541(7) 0.46479(7)
Cu16_5 Cu 0.71474(14) 0.98585(13) 0.54918(15)
Cu18_3 Cu 0.98585(13) 0.71474(14) 0.54918(15)
C5_6 C 0.0295(12) 0.7626(16) 0.8291(12)
H3_6 H 0.0427 0.7893 0.8549
H4_6 H 0.0437 0.7274 0.8397
C6_6 C 0.027(2) 0.7390(16) 0.7390(16)
H5_6 H 0.0392 0.7027 0.7478
N2_6 N 0.0483(12) 0.7759(10) 0.7759(10)
C10_6 C 0.0295(12) 0.8291(12) 0.7626(16)
H10_6 H 0.0427 0.8549 0.7893
H11_6 H 0.0437 0.8397 0.7274
H12_6 H 0.0392 0.7478 0.7027
O10_5 O 0.1299(6) 0.8067(6) 0.7092(7)
C7_6 C 0.9672(11) 0.7613(10) 0.8306(9)
H6_6 H 0.9548 0.7249 0.8390
H7_6 H 0.9540 0.7856 0.8586
C8_6 C 0.9641(14) 0.7407(10) 0.7407(10)
H8_6 H 0.9503 0.7501 0.7050
N3_6 N 0.9458(12) 0.7780(9) 0.7780(9)
C11_6 C 0.9672(11) 0.8306(9) 0.7613(10)
H13_6 H 0.9548 0.8390 0.7249
H14_6 H 0.9540 0.8586 0.7856
H15_6 H 0.9503 0.7050 0.7501
C22_2 C 0.1709(12) 0.0295(12) 0.2374(16)
H22_2 H 0.1451 0.0427 0.2107
H23_2 H 0.1603 0.0437 0.2726
C23_2 C 0.2610(16) 0.027(2) 0.2610(16)
H24_2 H 0.2522 0.0392 0.2973
N9_2 N 0.2241(10) 0.0483(12) 0.2241(10)
C26_2 C 0.2374(16) 0.0295(12) 0.1709(12)
H28_2 H 0.2107 0.0427 0.1451
H29_2 H 0.2726 0.0437 0.1603
H30_2 H 0.2973 0.0392 0.2522
C17_4 C 0.1369(10) 0.8631(10) 0.5281(14)
H19_4 H 0.1320 0.8680 0.4910
C18_4 C 0.1146(9) 0.8201(10) 0.6027(10)
H20_4 H 0.0946 0.7940 0.6212
C19_4 C 0.1507(9) 0.8493(9) 0.6304(14)
C20_4 C 0.1587(10) 0.8413(10) 0.6880(15)
C21_4 C 0.1799(10) 0.8854(9) 0.6027(10)
H21_4 H 0.2060 0.9054 0.6212
N8_4 N 0.1735(8) 0.8940(8) 0.5500(8)
C24_2 C 0.1694(9) 0.9672(11) 0.2387(10)
H25_2 H 0.1610 0.9548 0.2751
H26_2 H 0.1414 0.9540 0.2144
C25_2 C 0.2593(10) 0.9641(14) 0.2593(10)
H27_2 H 0.2950 0.9503 0.2499
N10_2 N 0.2220(9) 0.9458(12) 0.2220(9)
C27_2 C 0.2387(10) 0.9672(11) 0.1694(9)
H31_2 H 0.2751 0.9548 0.1610
H32_2 H 0.2144 0.9540 0.1414
H33_2 H 0.2499 0.9503 0.2950
Cu14_4 Cu 0.21474(14) 0.95082(15) 0.51415(13)
C30_4 C 0.8306(9) 0.0328(11) 0.2387(10)
H37_4 H 0.8390 0.0452 0.2751
H38_4 H 0.8586 0.0460 0.2144
C31_4 C 0.7407(10) 0.0359(14) 0.2593(10)
H39_4 H 0.7050 0.0497 0.2499
N12_4 N 0.7780(9) 0.0542(12) 0.2220(9)
C33_4 C 0.7613(10) 0.0328(11) 0.1694(9)
H43_4 H 0.7249 0.0452 0.1610
H44_4 H 0.7856 0.0460 0.1414
H45_4 H 0.7501 0.0497 0.2950
C28_4 C 0.8291(12) 0.9705(12) 0.2374(16)
H34_4 H 0.8549 0.9573 0.2107
H35_4 H 0.8397 0.9563 0.2726
C29_4 C 0.7390(16) 0.973(2) 0.2610(16)
H36_4 H 0.7478 0.9608 0.2973
N11_4 N 0.7759(10) 0.9517(12) 0.2241(10)
C32_4 C 0.7626(16) 0.9705(12) 0.1709(12)
H40_4 H 0.7893 0.9573 0.1451
H41_4 H 0.7274 0.9563 0.1603
H42_4 H 0.7027 0.9608 0.2522
I9_4 I 0.18541(7) 0.03521(7) 0.58339(6)
I17_4 I 0.31459(7) 0.08339(6) 0.46479(7)
Cu19_4 Cu 0.28526(14) 0.01415(13) 0.54918(15)
I6_4 I 0.18541(7) 0.96479(7) 0.41661(6)
I16_4 I 0.31459(7) 0.91661(6) 0.53521(7)
Cu20_4 Cu 0.28526(14) 0.98585(13) 0.45082(15)
H1_4 H 0.6320 0.0090 0.6320
C12_6 C 0.6369(10) 0.0281(14) 0.3631(10)
C13_6 C 0.6799(10) 0.1027(10) 0.3854(9)
H17_6 H 0.7060 0.1212 0.4054
C14_6 C 0.6507(9) 0.1304(14) 0.3493(9)
C15_6 C 0.6587(10) 0.1880(15) 0.3413(10)
N5_6 N 0.6735(8) 0.0500(8) 0.3940(8)
O4_5 O 0.6299(6) 0.2092(7) 0.3067(6)
C16_6 C 0.6146(9) 0.1027(10) 0.3201(10)
H18_6 H 0.5946 0.1212 0.2940
N6_4 N 0.6060(8) 0.0500(8) 0.3265(8)
O5_4 O 0.6933(6) 0.2092(7) 0.3701(6)
C17_5 C 0.3631(10) 0.0281(14) 0.6369(10)
C18_5 C 0.3854(9) 0.1027(10) 0.6799(10)
H20_5 H 0.4054 0.1212 0.7060
C19_5 C 0.3493(9) 0.1304(14) 0.6507(9)
C20_5 C 0.3413(10) 0.1880(15) 0.6587(10)
N7_4 N 0.3940(8) 0.0500(8) 0.6735(8)
O6_3 O 0.3067(6) 0.2092(7) 0.6299(6)
C21_5 C 0.3201(10) 0.1027(10) 0.6146(9)
H21_5 H 0.2940 0.1212 0.5946
N8_5 N 0.3265(8) 0.0500(8) 0.6060(8)
O7_3 O 0.3701(6) 0.2092(7) 0.6933(6)
Cu25_3 Cu 0.3672(2) 0.27930(18) 0.72070(18)
Cu26_4 Cu 0.6328(2) 0.27930(18) 0.27930(18)
Cu27_2 Cu 0.27930(18) 0.27930(18) 0.6328(2)
Cu28_2 Cu 0.72070(18) 0.27930(18) 0.3672(2)
C1_4 C 0.6369(10) 0.9719(14) 0.6369(10)
C2_4 C 0.6799(10) 0.8973(10) 0.6146(9)
H2_4 H 0.7060 0.8788 0.5946
C3_4 C 0.6507(9) 0.8696(14) 0.6507(9)
C4_4 C 0.6587(10) 0.8120(15) 0.6587(10)
C5_7 C 0.5295(12) 0.7374(16) 0.6709(12)
H3_7 H 0.5427 0.7107 0.6451
H4_7 H 0.5437 0.7726 0.6603
C6_7 C 0.527(2) 0.7610(16) 0.7610(16)
H5_7 H 0.5392 0.7973 0.7522
C7_7 C 0.4672(11) 0.7387(10) 0.6694(9)
H6_7 H 0.4548 0.7751 0.6610
H7_7 H 0.4540 0.7144 0.6414
C8_7 C 0.4641(14) 0.7593(10) 0.7593(10)
H8_7 H 0.4503 0.7499 0.7950
N1_4 N 0.6735(8) 0.9500(8) 0.6060(8)
N2_7 N 0.5483(12) 0.7241(10) 0.7241(10)
N3_7 N 0.4458(12) 0.7220(9) 0.7220(9)
O1_4 O 0.6299(6) 0.7908(7) 0.6933(6)
O2_4 O 0.7113(13) 0.7113(13) 0.7113(13)
I3_2 I 0.36274(10) 0.63726(10) 0.63726(10)
I4_4 I 0.6398(10) 0.6398(10) 0.6398(10)
Cu2_5 Cu 0.7621(2) 0.7621(2) 0.7621(2)
Cu4_3 Cu 0.6328(2) 0.72070(18) 0.72070(18)
C9_4 C 0.6146(9) 0.8973(10) 0.6799(10)
H9_4 H 0.5946 0.8788 0.7060
N4_4 N 0.6060(8) 0.9500(8) 0.6735(8)
O3_3 O 0.6933(6) 0.7908(7) 0.6299(6)
C10_7 C 0.5295(12) 0.6709(12) 0.7374(16)
H10_7 H 0.5427 0.6451 0.7107
H11_7 H 0.5437 0.6603 0.7726
H12_7 H 0.5392 0.7522 0.7973
C11_7 C 0.4672(11) 0.6694(9) 0.7387(10)
H13_7 H 0.4548 0.6610 0.7751
H14_7 H 0.4540 0.6414 0.7144
H15_7 H 0.4503 0.7950 0.7499
H16_6 H 0.6320 0.9910 0.3680
H19_5 H 0.3680 0.9910 0.6320
C22_3 C 0.3291(12) 0.7374(16) 0.4705(12)
H22_3 H 0.3549 0.7107 0.4573
H23_3 H 0.3397 0.7726 0.4563
C23_3 C 0.2390(16) 0.7610(16) 0.473(2)
H24_3 H 0.2478 0.7973 0.4608
C24_3 C 0.3306(9) 0.7387(10) 0.5328(11)
H25_3 H 0.3390 0.7751 0.5452
H26_3 H 0.3586 0.7144 0.5460
C25_3 C 0.2407(10) 0.7593(10) 0.5359(14)
H27_3 H 0.2050 0.7499 0.5497
N9_3 N 0.2759(10) 0.7241(10) 0.4517(12)
N10_3 N 0.2780(9) 0.7220(9) 0.5542(12)
Cu10_2 Cu 0.27930(18) 0.72070(18) 0.3672(2)
C26_3 C 0.2626(16) 0.6709(12) 0.4705(12)
H28_3 H 0.2893 0.6451 0.4573
H29_3 H 0.2274 0.6603 0.4563
H30_3 H 0.2027 0.7522 0.4608
C27_3 C 0.2613(10) 0.6694(9) 0.5328(11)
H31_3 H 0.2249 0.6610 0.5452
H32_3 H 0.2856 0.6414 0.5460
H33_3 H 0.2501 0.7950 0.5497
C28_5 C 0.6709(12) 0.7374(16) 0.5295(12)
H34_5 H 0.6451 0.7107 0.5427
H35_5 H 0.6603 0.7726 0.5437
C29_5 C 0.7610(16) 0.7610(16) 0.527(2)
H36_5 H 0.7522 0.7973 0.5392
C30_5 C 0.6694(9) 0.7387(10) 0.4672(11)
H37_5 H 0.6610 0.7751 0.4548
H38_5 H 0.6414 0.7144 0.4540
C31_5 C 0.7593(10) 0.7593(10) 0.4641(14)
H39_5 H 0.7950 0.7499 0.4503
N11_5 N 0.7241(10) 0.7241(10) 0.5483(12)
N12_5 N 0.7220(9) 0.7220(9) 0.4458(12)
Cu13_2 Cu 0.72070(18) 0.72070(18) 0.6328(2)
C32_5 C 0.7374(16) 0.6709(12) 0.5295(12)
H40_5 H 0.7107 0.6451 0.5427
H41_5 H 0.7726 0.6603 0.5437
H42_5 H 0.7973 0.7522 0.5392
C33_5 C 0.7387(10) 0.6694(9) 0.4672(11)
H43_5 H 0.7751 0.6610 0.4548
H44_5 H 0.7144 0.6414 0.4540
H45_5 H 0.7499 0.7950 0.4503
N13_4 N 0.3940(8) 0.9500(8) 0.3265(8)
O8_2 O 0.7908(7) 0.6933(6) 0.6299(6)
O9_2 O 0.2092(7) 0.6933(6) 0.3701(6)
O10_6 O 0.6299(6) 0.6933(6) 0.7908(7)
O11_2 O 0.3067(6) 0.7908(7) 0.3701(6)
O12_2 O 0.2887(13) 0.7113(13) 0.2887(13)
I23_4 I 0.63726(10) 0.63726(10) 0.36274(10)
I24_2 I 0.3602(10) 0.6398(10) 0.3602(10)
Cu29_2 Cu 0.72070(18) 0.6328(2) 0.72070(18)
H1_5 H 0.0090 0.3680 0.3680
C12_7 C 0.0281(14) 0.3631(10) 0.6369(10)
C13_7 C 0.1027(10) 0.3201(10) 0.6146(9)
H17_7 H 0.1212 0.2940 0.5946
C14_7 C 0.1304(14) 0.3493(9) 0.6507(9)
C15_7 C 0.1880(15) 0.3413(10) 0.6587(10)
N5_7 N 0.0500(8) 0.3265(8) 0.6060(8)
O4_6 O 0.2092(7) 0.3701(6) 0.6933(6)
C16_7 C 0.1027(10) 0.3854(9) 0.6799(10)
H18_7 H 0.1212 0.4054 0.7060
N6_5 N 0.0500(8) 0.3940(8) 0.6735(8)
O5_5 O 0.2092(7) 0.3067(6) 0.6299(6)
C17_6 C 0.0281(14) 0.6369(10) 0.3631(10)
C18_6 C 0.1027(10) 0.6146(9) 0.3201(10)
H20_6 H 0.1212 0.5946 0.2940
C19_6 C 0.1304(14) 0.6507(9) 0.3493(9)
C20_6 C 0.1880(15) 0.6587(10) 0.3413(10)
N7_5 N 0.0500(8) 0.6060(8) 0.3265(8)
C21_6 C 0.1027(10) 0.6799(10) 0.3854(9)
H21_6 H 0.1212 0.7060 0.4054
N8_6 N 0.0500(8) 0.6735(8) 0.3940(8)
O7_4 O 0.2092(7) 0.6299(6) 0.3067(6)
Cu25_4 Cu 0.27930(18) 0.6328(2) 0.27930(18)
Cu26_5 Cu 0.27930(18) 0.3672(2) 0.72070(18)
C1_5 C 0.9719(14) 0.3631(10) 0.3631(10)
C2_5 C 0.8973(10) 0.3201(10) 0.3854(9)
H2_5 H 0.8788 0.2940 0.4054
C3_5 C 0.8696(14) 0.3493(9) 0.3493(9)
C4_5 C 0.8120(15) 0.3413(10) 0.3413(10)
C5_8 C 0.7374(16) 0.4705(12) 0.3291(12)
H3_8 H 0.7107 0.4573 0.3549
H4_8 H 0.7726 0.4563 0.3397
C6_8 C 0.7610(16) 0.473(2) 0.2390(16)
H5_8 H 0.7973 0.4608 0.2478
C7_8 C 0.7387(10) 0.5328(11) 0.3306(9)
H6_8 H 0.7751 0.5452 0.3390
H7_8 H 0.7144 0.5460 0.3586
C8_8 C 0.7593(10) 0.5359(14) 0.2407(10)
H8_8 H 0.7499 0.5497 0.2050
N1_5 N 0.9500(8) 0.3265(8) 0.3940(8)
N2_8 N 0.7241(10) 0.4517(12) 0.2759(10)
N3_8 N 0.7220(9) 0.5542(12) 0.2780(9)
O1_5 O 0.7908(7) 0.3701(6) 0.3067(6)
O2_5 O 0.7113(13) 0.2887(13) 0.2887(13)
I4_5 I 0.6398(10) 0.3602(10) 0.3602(10)
Cu2_6 Cu 0.7621(2) 0.2379(2) 0.2379(2)
Cu4_4 Cu 0.72070(18) 0.3672(2) 0.27930(18)
C9_5 C 0.8973(10) 0.3854(9) 0.3201(10)
H9_5 H 0.8788 0.4054 0.2940
N4_5 N 0.9500(8) 0.3940(8) 0.3265(8)
O3_4 O 0.7908(7) 0.3067(6) 0.3701(6)
C10_8 C 0.6709(12) 0.4705(12) 0.2626(16)
H10_8 H 0.6451 0.4573 0.2893
H11_8 H 0.6603 0.4563 0.2274
H12_8 H 0.7522 0.4608 0.2027
C11_8 C 0.6694(9) 0.5328(11) 0.2613(10)
H13_8 H 0.6610 0.5452 0.2249
H14_8 H 0.6414 0.5460 0.2856
H15_8 H 0.7950 0.5497 0.2501
H16_7 H 0.9910 0.3680 0.6320
H19_6 H 0.9910 0.6320 0.3680
C28_6 C 0.7374(16) 0.3291(12) 0.4705(12)
H34_6 H 0.7107 0.3549 0.4573
H35_6 H 0.7726 0.3397 0.4563
C29_6 C 0.7610(16) 0.2390(16) 0.473(2)
H36_6 H 0.7973 0.2478 0.4608
C30_6 C 0.7387(10) 0.3306(9) 0.5328(11)
H37_6 H 0.7751 0.3390 0.5452
H38_6 H 0.7144 0.3586 0.5460
C31_6 C 0.7593(10) 0.2407(10) 0.5359(14)
H39_6 H 0.7499 0.2050 0.5497
N11_6 N 0.7241(10) 0.2759(10) 0.4517(12)
N12_6 N 0.7220(9) 0.2780(9) 0.5542(12)
C32_6 C 0.6709(12) 0.2626(16) 0.4705(12)
H40_6 H 0.6451 0.2893 0.4573
H41_6 H 0.6603 0.2274 0.4563
H42_6 H 0.7522 0.2027 0.4608
C33_6 C 0.6694(9) 0.2613(10) 0.5328(11)
H43_6 H 0.6610 0.2249 0.5452
H44_6 H 0.6414 0.2856 0.5460
H45_6 H 0.7950 0.2501 0.5497
N13_5 N 0.9500(8) 0.6060(8) 0.6735(8)
O10_7 O 0.6933(6) 0.3701(6) 0.2092(7)
I23_5 I 0.63726(10) 0.36274(10) 0.63726(10)
C5_9 C 0.4705(12) 0.2626(16) 0.6709(12)
H3_9 H 0.4573 0.2893 0.6451
H4_9 H 0.4563 0.2274 0.6603
C6_9 C 0.473(2) 0.2390(16) 0.7610(16)
H5_9 H 0.4608 0.2027 0.7522
C7_9 C 0.5328(11) 0.2613(10) 0.6694(9)
H6_9 H 0.5452 0.2249 0.6610
H7_9 H 0.5460 0.2856 0.6414
C8_9 C 0.5359(14) 0.2407(10) 0.7593(10)
H8_9 H 0.5497 0.2501 0.7950
N2_9 N 0.4517(12) 0.2759(10) 0.7241(10)
N3_9 N 0.5542(12) 0.2780(9) 0.7220(9)
O2_6 O 0.2887(13) 0.2887(13) 0.7113(13)
I4_6 I 0.3602(10) 0.3602(10) 0.6398(10)
Cu2_7 Cu 0.2379(2) 0.2379(2) 0.7621(2)
C10_9 C 0.4705(12) 0.3291(12) 0.7374(16)
H10_9 H 0.4573 0.3549 0.7107
H11_9 H 0.4563 0.3397 0.7726
H12_9 H 0.4608 0.2478 0.7973
C11_9 C 0.5328(11) 0.3306(9) 0.7387(10)
H13_9 H 0.5452 0.3390 0.7751
H14_9 H 0.5460 0.3586 0.7144
H15_9 H 0.5497 0.2050 0.7499
H16_8 H 0.3680 0.0090 0.3680
C28_7 C 0.3291(12) 0.2626(16) 0.5295(12)
H34_7 H 0.3549 0.2893 0.5427
H35_7 H 0.3397 0.2274 0.5437
C29_7 C 0.2390(16) 0.2390(16) 0.527(2)
H36_7 H 0.2478 0.2027 0.5392
C30_7 C 0.3306(9) 0.2613(10) 0.4672(11)
H37_7 H 0.3390 0.2249 0.4548
H38_7 H 0.3586 0.2856 0.4540
C31_7 C 0.2407(10) 0.2407(10) 0.4641(14)
H39_7 H 0.2050 0.2501 0.4503
N11_7 N 0.2759(10) 0.2759(10) 0.5483(12)
N12_7 N 0.2780(9) 0.2780(9) 0.4458(12)
C32_7 C 0.2626(16) 0.3291(12) 0.5295(12)
H40_7 H 0.2893 0.3549 0.5427
H41_7 H 0.2274 0.3397 0.5437
H42_7 H 0.2027 0.2478 0.5392
C33_7 C 0.2613(10) 0.3306(9) 0.4672(11)
H43_7 H 0.2249 0.3390 0.4548
H44_7 H 0.2856 0.3586 0.4540
H45_7 H 0.2501 0.2050 0.4503
O10_8 O 0.3701(6) 0.3067(6) 0.7908(7)
I23_6 I 0.36274(10) 0.36274(10) 0.36274(10)
C12_8 C 0.3631(10) 0.9719(14) 0.3631(10)
C13_8 C 0.3201(10) 0.8973(10) 0.3854(9)
H17_8 H 0.2940 0.8788 0.4054
C14_8 C 0.3493(9) 0.8696(14) 0.3493(9)
C15_8 C 0.3413(10) 0.8120(15) 0.3413(10)
N5_8 N 0.3265(8) 0.9500(8) 0.3940(8)
O4_7 O 0.3701(6) 0.7908(7) 0.3067(6)
C16_8 C 0.3854(9) 0.8973(10) 0.3201(10)
H18_8 H 0.4054 0.8788 0.2940
Cu26_6 Cu 0.3672(2) 0.72070(18) 0.27930(18)
C5_10 C 0.2626(16) 0.5295(12) 0.3291(12)
H3_10 H 0.2893 0.5427 0.3549
H4_10 H 0.2274 0.5437 0.3397
C6_10 C 0.2390(16) 0.527(2) 0.2390(16)
H5_10 H 0.2027 0.5392 0.2478
C7_10 C 0.2613(10) 0.4672(11) 0.3306(9)
H6_10 H 0.2249 0.4548 0.3390
H7_10 H 0.2856 0.4540 0.3586
C8_10 C 0.2407(10) 0.4641(14) 0.2407(10)
H8_10 H 0.2501 0.4503 0.2050
N2_10 N 0.2759(10) 0.5483(12) 0.2759(10)
N3_10 N 0.2780(9) 0.4458(12) 0.2780(9)
Cu2_8 Cu 0.2379(2) 0.7621(2) 0.2379(2)
C10_10 C 0.3291(12) 0.5295(12) 0.2626(16)
H10_10 H 0.3549 0.5427 0.2893
H11_10 H 0.3397 0.5437 0.2274
H12_10 H 0.2478 0.5392 0.2027
C11_10 C 0.3306(9) 0.4672(11) 0.2613(10)
H13_10 H 0.3390 0.4548 0.2249
H14_10 H 0.3586 0.4540 0.2856
H15_10 H 0.2050 0.4503 0.2501
H16_9 H 0.0090 0.6320 0.6320
O10_9 O 0.3067(6) 0.6299(6) 0.2092(7)
C12_9 C 0.9719(14) 0.6369(10) 0.6369(10)
C13_9 C 0.8973(10) 0.6799(10) 0.6146(9)
H17_9 H 0.8788 0.7060 0.5946
C14_9 C 0.8696(14) 0.6507(9) 0.6507(9)
C15_9 C 0.8120(15) 0.6587(10) 0.6587(10)
N5_9 N 0.9500(8) 0.6735(8) 0.6060(8)
O4_8 O 0.7908(7) 0.6299(6) 0.6933(6)
C16_9 C 0.8973(10) 0.6146(9) 0.6799(10)
H18_9 H 0.8788 0.5946 0.7060
C1_6 C 0.3631(10) 0.6369(10) 0.0281(14)
C2_6 C 0.3201(10) 0.6146(9) 0.1027(10)
H2_6 H 0.2940 0.5946 0.1212
C3_6 C 0.3493(9) 0.6507(9) 0.1304(14)
C4_6 C 0.3413(10) 0.6587(10) 0.1880(15)
C5_11 C 0.4705(12) 0.6709(12) 0.2626(16)
H3_11 H 0.4573 0.6451 0.2893
H4_11 H 0.4563 0.6603 0.2274
C6_11 C 0.473(2) 0.7610(16) 0.2390(16)
H5_11 H 0.4608 0.7522 0.2027
C7_11 C 0.5328(11) 0.6694(9) 0.2613(10)
H6_11 H 0.5452 0.6610 0.2249
H7_11 H 0.5460 0.6414 0.2856
C8_11 C 0.5359(14) 0.7593(10) 0.2407(10)
H8_11 H 0.5497 0.7950 0.2501
N1_6 N 0.3265(8) 0.6060(8) 0.0500(8)
N2_11 N 0.4517(12) 0.7241(10) 0.2759(10)
N3_11 N 0.5542(12) 0.7220(9) 0.2780(9)
O1_6 O 0.3701(6) 0.6933(6) 0.2092(7)
C9_6 C 0.3854(9) 0.6799(10) 0.1027(10)
H9_6 H 0.4054 0.7060 0.1212
N4_6 N 0.3940(8) 0.6735(8) 0.0500(8)
C10_11 C 0.4705(12) 0.7374(16) 0.3291(12)
H10_11 H 0.4573 0.7107 0.3549
H11_11 H 0.4563 0.7726 0.3397
H12_11 H 0.4608 0.7973 0.2478
C11_11 C 0.5328(11) 0.7387(10) 0.3306(9)
H13_11 H 0.5452 0.7751 0.3390
H14_11 H 0.5460 0.7144 0.3586
H15_11 H 0.5497 0.7499 0.2050
H16_10 H 0.3680 0.3680 0.0090
H19_7 H 0.6320 0.6320 0.0090
N13_6 N 0.6060(8) 0.3265(8) 0.0500(8)
H1_6 H 0.3680 0.6320 0.9910
C12_10 C 0.3631(10) 0.3631(10) 0.9719(14)
C13_10 C 0.3201(10) 0.3854(9) 0.8973(10)
H17_10 H 0.2940 0.4054 0.8788
C14_10 C 0.3493(9) 0.3493(9) 0.8696(14)
C15_10 C 0.3413(10) 0.3413(10) 0.8120(15)
N5_10 N 0.3265(8) 0.3940(8) 0.9500(8)
C16_10 C 0.3854(9) 0.3201(10) 0.8973(10)
H18_10 H 0.4054 0.2940 0.8788
N6_6 N 0.3940(8) 0.3265(8) 0.9500(8)
O5_6 O 0.3067(6) 0.3701(6) 0.7908(7)
C17_7 C 0.6369(10) 0.6369(10) 0.9719(14)
C18_7 C 0.6146(9) 0.6799(10) 0.8973(10)
H20_7 H 0.5946 0.7060 0.8788
C19_7 C 0.6507(9) 0.6507(9) 0.8696(14)
C20_7 C 0.6587(10) 0.6587(10) 0.8120(15)
N7_6 N 0.6060(8) 0.6735(8) 0.9500(8)
O6_4 O 0.6933(6) 0.6299(6) 0.7908(7)
C21_7 C 0.6799(10) 0.6146(9) 0.8973(10)
H21_7 H 0.7060 0.5946 0.8788
N8_7 N 0.6735(8) 0.6060(8) 0.9500(8)
C5_12 C 0.5295(12) 0.2626(16) 0.3291(12)
H3_12 H 0.5427 0.2893 0.3549
H4_12 H 0.5437 0.2274 0.3397
C6_12 C 0.527(2) 0.2390(16) 0.2390(16)
H5_12 H 0.5392 0.2027 0.2478
C7_12 C 0.4672(11) 0.2613(10) 0.3306(9)
H6_12 H 0.4548 0.2249 0.3390
H7_12 H 0.4540 0.2856 0.3586
C8_12 C 0.4641(14) 0.2407(10) 0.2407(10)
H8_12 H 0.4503 0.2501 0.2050
N2_12 N 0.5483(12) 0.2759(10) 0.2759(10)
N3_12 N 0.4458(12) 0.2780(9) 0.2780(9)
C10_12 C 0.5295(12) 0.3291(12) 0.2626(16)
H10_12 H 0.5427 0.3549 0.2893
H11_12 H 0.5437 0.3397 0.2274
H12_12 H 0.5392 0.2478 0.2027
C11_12 C 0.4672(11) 0.3306(9) 0.2613(10)
H13_12 H 0.4548 0.3390 0.2249
H14_12 H 0.4540 0.3586 0.2856
H15_12 H 0.4503 0.2050 0.2501
O10_10 O 0.6299(6) 0.3067(6) 0.2092(7)
C17_8 C 0.6369(10) 0.3631(10) 0.0281(14)
C18_8 C 0.6146(9) 0.3201(10) 0.1027(10)
H20_8 H 0.5946 0.2940 0.1212
C19_8 C 0.6507(9) 0.3493(9) 0.1304(14)
C20_8 C 0.6587(10) 0.3413(10) 0.1880(15)
C21_8 C 0.6799(10) 0.3854(9) 0.1027(10)
H21_8 H 0.7060 0.4054 0.1212
N8_8 N 0.6735(8) 0.3940(8) 0.0500(8)
H19_8 H 0.6320 0.3680 0.9910
C22_4 C 0.6709(12) 0.5295(12) 0.7374(16)
H22_4 H 0.6451 0.5427 0.7107
H23_4 H 0.6603 0.5437 0.7726
C23_4 C 0.7610(16) 0.527(2) 0.7610(16)
H24_4 H 0.7522 0.5392 0.7973
C24_4 C 0.6694(9) 0.4672(11) 0.7387(10)
H25_4 H 0.6610 0.4548 0.7751
H26_4 H 0.6414 0.4540 0.7144
C25_4 C 0.7593(10) 0.4641(14) 0.7593(10)
H27_4 H 0.7950 0.4503 0.7499
N9_4 N 0.7241(10) 0.5483(12) 0.7241(10)
N10_4 N 0.7220(9) 0.4458(12) 0.7220(9)
C26_4 C 0.7374(16) 0.5295(12) 0.6709(12)
H28_4 H 0.7107 0.5427 0.6451
H29_4 H 0.7726 0.5437 0.6603
H30_4 H 0.7973 0.5392 0.7522
C27_4 C 0.7387(10) 0.4672(11) 0.6694(9)
H31_4 H 0.7751 0.4548 0.6610
H32_4 H 0.7144 0.4540 0.6414
H33_4 H 0.7499 0.4503 0.7950
C28_8 C 0.3291(12) 0.4705(12) 0.7374(16)
H34_8 H 0.3549 0.4573 0.7107
H35_8 H 0.3397 0.4563 0.7726
C29_8 C 0.2390(16) 0.473(2) 0.7610(16)
H36_8 H 0.2478 0.4608 0.7973
C30_8 C 0.3306(9) 0.5328(11) 0.7387(10)
H37_8 H 0.3390 0.5452 0.7751
H38_8 H 0.3586 0.5460 0.7144
C31_8 C 0.2407(10) 0.5359(14) 0.7593(10)
H39_8 H 0.2050 0.5497 0.7499
N11_8 N 0.2759(10) 0.4517(12) 0.7241(10)
N12_8 N 0.2780(9) 0.5542(12) 0.7220(9)
C32_8 C 0.2626(16) 0.4705(12) 0.6709(12)
H40_8 H 0.2893 0.4573 0.6451
H41_8 H 0.2274 0.4563 0.6603
H42_8 H 0.2027 0.4608 0.7522
C33_8 C 0.2613(10) 0.5328(11) 0.6694(9)
H43_8 H 0.2249 0.5452 0.6610
H44_8 H 0.2856 0.5460 0.6414
H45_8 H 0.2501 0.5497 0.7950
loop_
_geom_bond_atom_site_label_1
_geom_bond_atom_site_label_2
_geom_bond_site_symmetry_1
_geom_bond_site_symmetry_2
C1 H1 1_555 1_555
C2 H2 1_555 1_555
C3 C2 1_555 1_555
C4 C3 1_555 1_555
C5 H3 1_555 1_555
H4 C5 1_555 1_555
C6 H5 1_555 1_555
N1 C1 1_555 1_555
N2 C5 1_555 1_555
O1 C4 1_555 1_555
O2 Cu2 1_555 1_555
I1 Cu1 1_555 1_555
I2 Cu2 1_555 1_555
I4 Cu4 1_555 1_555
Cu1 N1 1_555 1_555
Cu2 I10 1_555 1_555
Cu4 N2 1_555 1_555
C9 C3 1_555 1_555
H9 C9 1_555 1_555
N4 C1 1_555 1_555
O3 C4 1_555 1_555
C10 N2 1_555 1_555
H10 C10 1_555 1_555
H11 C10 1_555 1_555
H12 C6 1_555 1_555
C28 H34 1_555 1_555
H35 C28 1_555 1_555
C29 H36 1_555 1_555
N11 C28 1_555 1_555
Cu11 N4 1_555 1_555
Cu13 O2 1_555 1_555
C32 N11 1_555 1_555
H40 C32 1_555 1_555
H41 C32 1_555 1_555
H42 C29 1_555 1_555
I10 Cu22 1_555 1_555
I11 Cu2 1_555 1_555
O8 Cu13 1_555 1_555
O10 Cu4 1_555 1_555
I13 Cu1 1_555 1_555
I17 Cu11 1_555 1_555
Cu15 I1 1_555 1_555
Cu19 I9 1_555 1_555
Cu22 I11 1_555 1_555
Cu23 I2 1_555 1_555
Cu24 I2 1_555 1_555
Cu29 O2 1_555 1_555
C2 N1 1_555 1_555
C6 N2 1_555 1_555
O1 Cu4 1_555 1_555
O2 Cu4 1_555 1_555
I4 Cu13 1_555 1_555
I4 Cu29 1_555 1_555
C9 N4 1_555 1_555
O3 Cu13 1_555 1_555
C29 N11 1_555 1_555
N11 Cu13 1_555 1_555
I9 Cu11 1_555 1_555
I10 Cu24 1_555 1_555
I11 Cu23 1_555 1_555
I13 Cu15 1_555 1_555
I17 Cu19 1_555 1_555
C12 H16 1_555 1_555
C13 H17 1_555 1_555
C14 C13 1_555 1_555
C15 C14 1_555 1_555
N5 C12 1_555 1_555
O4 C15 1_555 1_555
C16 C14 1_555 1_555
H18 C16 1_555 1_555
N6 C12 1_555 1_555
O5 C15 1_555 1_555
I7 Cu7 1_555 1_555
Cu7 N6 1_555 1_555
H37 C30 1_555 1_555
H38 C30 1_555 1_555
H39 C31 1_555 1_555
N12 C30 1_555 1_555
Cu12 N12 1_555 1_555
C33 N12 1_555 1_555
H43 C33 1_555 1_555
H44 C33 1_555 1_555
H45 C31 1_555 1_555
I12 Cu5 1_555 1_555
I14 Cu7 1_555 1_555
I19 Cu12 1_555 1_555
I21 Cu12 1_555 1_555
I23 Cu12 1_555 1_555
Cu16 I5 1_555 1_555
Cu18 I7 1_555 1_555
Cu26 O4 1_555 1_555
Cu28 O5 1_555 1_555
C13 N5 1_555 1_555
N5 Cu5 1_555 1_555
I5 Cu5 1_555 1_555
C16 N6 1_555 1_555
C31 N12 1_555 1_555
I12 Cu16 1_555 1_555
I14 Cu18 1_555 1_555
H6 C7 1_555 1_555
H7 C7 1_555 1_555
H8 C8 1_555 1_555
N3 C7 1_555 1_555
I3 Cu3 1_555 1_555
Cu3 N3 1_555 1_555
C11 N3 1_555 1_555
H13 C11 1_555 1_555
H14 C11 1_555 1_555
H15 C8 1_555 1_555
C17 H19 1_555 1_555
C18 H20 1_555 1_555
C19 C18 1_555 1_555
C20 C19 1_555 1_555
N7 C17 1_555 1_555
O6 C20 1_555 1_555
I6 Cu6 1_555 1_555
Cu6 N7 1_555 1_555
C21 C19 1_555 1_555
H21 C21 1_555 1_555
N8 C17 1_555 1_555
O7 C20 1_555 1_555
H25 C24 1_555 1_555
H26 C24 1_555 1_555
H27 C25 1_555 1_555
N10 C24 1_555 1_555
Cu9 I3 1_555 1_555
C27 N10 1_555 1_555
H31 C27 1_555 1_555
H32 C27 1_555 1_555
H33 C25 1_555 1_555
I16 Cu6 1_555 1_555
I18 Cu9 1_555 1_555
I20 Cu3 1_555 1_555
I22 Cu3 1_555 1_555
Cu14 N8 1_555 1_555
Cu20 I6 1_555 1_555
Cu21 I3 1_555 1_555
Cu25 O7 1_555 1_555
Cu27 O6 1_555 1_555
C8 N3 1_555 1_555
C18 N7 1_555 1_555
C21 N8 1_555 1_555
C25 N10 1_555 1_555
N10 Cu9 1_555 1_555
Cu9 I20 1_555 1_555
I16 Cu20 1_555 1_555
I18 Cu21 1_555 1_555
I22 Cu21 1_555 1_555
C22 H22 1_555 1_555
H23 C22 1_555 1_555
C23 H24 1_555 1_555
N9 C22 1_555 1_555
Cu10 N9 1_555 1_555
C26 N9 1_555 1_555
H28 C26 1_555 1_555
H29 C26 1_555 1_555
H30 C23 1_555 1_555
N13 Cu8 1_555 1_555
O9 Cu10 1_555 1_555
O11 Cu10 1_555 1_555
O12 Cu10 1_555 1_555
I15 Cu8 1_555 1_555
I24 Cu10 1_555 1_555
Cu17 I8 1_555 1_555
C23 N9 1_555 1_555
I8 Cu8 1_555 1_555
I15 Cu17 1_555 1_555
N13_2 Cu8_2 1_555 1_555
I15_2 Cu8_2 1_555 1_555
Cu17_2 I8_2 1_555 1_555
I8_2 Cu8_2 1_555 1_555
I15_2 Cu17_2 1_555 1_555
H6_2 C7_2 1_555 1_555
H7_2 C7_2 1_555 1_555
H8_2 C8_2 1_555 1_555
N3_2 C7_2 1_555 1_555
I23 Cu3_2 1_555 1_555
Cu3_2 N3_2 1_555 1_555
C11_2 N3_2 1_555 1_555
H13_2 C11_2 1_555 1_555
H14_2 C11_2 1_555 1_555
H15_2 C8_2 1_555 1_555
C17_2 H19_2 1_555 1_555
C18_2 H20_2 1_555 1_555
C19_2 C18_2 1_555 1_555
C20_2 C19_2 1_555 1_555
N7_2 C17_2 1_555 1_555
O9 C20_2 1_555 1_555
I6_2 Cu6_2 1_555 1_555
Cu6_2 N7_2 1_555 1_555
C21_2 C19_2 1_555 1_555
H21_2 C21_2 1_555 1_555
N8_2 C17_2 1_555 1_555
O7_2 C20_2 1_555 1_555
I16_2 Cu6_2 1_555 1_555
I21 Cu3_2 1_555 1_555
I22_2 Cu3_2 1_555 1_555
Cu14_2 N8_2 1_555 1_555
Cu20_2 I6_2 1_555 1_555
Cu21_2 I23 1_555 1_555
Cu25_2 O7_2 1_555 1_555
C8_2 N3_2 1_555 1_555
C18_2 N7_2 1_555 1_555
C21_2 N8_2 1_555 1_555
I16_2 Cu20_2 1_555 1_555
I19 Cu21_2 1_555 1_555
I22_2 Cu21_2 1_555 1_555
C12_2 H16_2 1_555 1_555
C13_2 H17_2 1_555 1_555
C14_2 C13_2 1_555 1_555
C15_2 C14_2 1_555 1_555
N5_2 C12_2 1_555 1_555
O4_2 C15_2 1_555 1_555
C16_2 C14_2 1_555 1_555
H18_2 C16_2 1_555 1_555
N6_2 C12_2 1_555 1_555
O5_2 C15_2 1_555 1_555
I7_2 Cu7_2 1_555 1_555
Cu7_2 N6_2 1_555 1_555
H37_2 C30_2 1_555 1_555
H38_2 C30_2 1_555 1_555
H39_2 C31_2 1_555 1_555
N12_2 C30_2 1_555 1_555
Cu12_2 N12_2 1_555 1_555
C33_2 N12_2 1_555 1_555
H43_2 C33_2 1_555 1_555
H44_2 C33_2 1_555 1_555
H45_2 C31_2 1_555 1_555
I12_2 Cu5_2 1_555 1_555
I14_2 Cu7_2 1_555 1_555
I19_2 Cu12_2 1_555 1_555
I21_2 Cu12_2 1_555 1_555
I23_2 Cu12_2 1_555 1_555
Cu16_2 I5_2 1_555 1_555
Cu18_2 I7_2 1_555 1_555
Cu26_2 O4_2 1_555 1_555
Cu27 O5_2 1_555 1_555
C13_2 N5_2 1_555 1_555
N5_2 Cu5_2 1_555 1_555
I5_2 Cu5_2 1_555 1_555
C16_2 N6_2 1_555 1_555
C31_2 N12_2 1_555 1_555
I12_2 Cu16_2 1_555 1_555
I14_2 Cu18_2 1_555 1_555
C1_2 H1_2 1_555 1_555
C2_2 H2_2 1_555 1_555
C3_2 C2_2 1_555 1_555
C4_2 C3_2 1_555 1_555
C5_2 H3_2 1_555 1_555
H4_2 C5_2 1_555 1_555
C6_2 H5_2 1_555 1_555
N1_2 C1_2 1_555 1_555
N2_2 C5_2 1_555 1_555
O1_2 C4_2 1_555 1_555
O2_2 Cu2_2 1_555 1_555
I1_2 Cu1_2 1_555 1_555
I2_2 Cu2_2 1_555 1_555
I4_2 Cu4_2 1_555 1_555
Cu1_2 N1_2 1_555 1_555
Cu2_2 I10_2 1_555 1_555
Cu4_2 N2_2 1_555 1_555
C9_2 C3_2 1_555 1_555
H9_2 C9_2 1_555 1_555
N4_2 C1_2 1_555 1_555
O3_2 C4_2 1_555 1_555
C10_2 N2_2 1_555 1_555
H10_2 C10_2 1_555 1_555
H11_2 C10_2 1_555 1_555
H12_2 C6_2 1_555 1_555
C28_2 H34_2 1_555 1_555
H35_2 C28_2 1_555 1_555
C29_2 H36_2 1_555 1_555
N11_2 C28_2 1_555 1_555
Cu11_2 N4_2 1_555 1_555
Cu28 O2_2 1_555 1_555
C32_2 N11_2 1_555 1_555
H40_2 C32_2 1_555 1_555
H41_2 C32_2 1_555 1_555
H42_2 C29_2 1_555 1_555
I10_2 Cu22_2 1_555 1_555
I11_2 Cu2_2 1_555 1_555
O10_2 Cu4_2 1_555 1_555
I13_2 Cu1_2 1_555 1_555
I17_2 Cu11_2 1_555 1_555
Cu15_2 I1_2 1_555 1_555
Cu19_2 I9_2 1_555 1_555
Cu22_2 I11_2 1_555 1_555
Cu23_2 I2_2 1_555 1_555
Cu24_2 I2_2 1_555 1_555
Cu26 O2_2 1_555 1_555
C2_2 N1_2 1_555 1_555
C6_2 N2_2 1_555 1_555
O1_2 Cu4_2 1_555 1_555
O2_2 Cu4_2 1_555 1_555
I4_2 Cu28 1_555 1_555
I4_2 Cu26 1_555 1_555
C9_2 N4_2 1_555 1_555
O3_2 Cu28 1_555 1_555
C29_2 N11_2 1_555 1_555
N11_2 Cu28 1_555 1_555
I9_2 Cu11_2 1_555 1_555
I10_2 Cu24_2 1_555 1_555
I11_2 Cu23_2 1_555 1_555
I13_2 Cu15_2 1_555 1_555
I17_2 Cu19_2 1_555 1_555
H6_3 C7_3 1_555 1_555
H7_3 C7_3 1_555 1_555
H8_3 C8_3 1_555 1_555
N3_3 C7_3 1_555 1_555
I23_2 Cu3_3 1_555 1_555
Cu3_3 N3_3 1_555 1_555
C11_3 N3_3 1_555 1_555
H13_3 C11_3 1_555 1_555
H14_3 C11_3 1_555 1_555
H15_3 C8_3 1_555 1_555
I21_2 Cu3_3 1_555 1_555
I22_3 Cu3_3 1_555 1_555
Cu21_3 I23_2 1_555 1_555
C8_3 N3_3 1_555 1_555
I19_2 Cu21_3 1_555 1_555
I22_3 Cu21_3 1_555 1_555
C5_3 H3_3 1_555 1_555
H4_3 C5_3 1_555 1_555
C6_3 H5_3 1_555 1_555
N2_3 C5_3 1_555 1_555
O2_3 Cu2_3 1_555 1_555
I1_3 Cu14 1_555 1_555
I2_3 Cu2_3 1_555 1_555
I4_3 Cu25 1_555 1_555
Cu2_3 I10_3 1_555 1_555
Cu25 N2_3 1_555 1_555
C10_3 N2_3 1_555 1_555
H10_3 C10_3 1_555 1_555
H11_3 C10_3 1_555 1_555
H12_3 C6_3 1_555 1_555
C28_3 H34_3 1_555 1_555
H35_3 C28_3 1_555 1_555
C29_3 H36_3 1_555 1_555
N11_3 C28_3 1_555 1_555
Cu27 O2_3 1_555 1_555
C32_3 N11_3 1_555 1_555
H40_3 C32_3 1_555 1_555
H41_3 C32_3 1_555 1_555
H42_3 C29_3 1_555 1_555
I10_3 Cu22_3 1_555 1_555
I11_3 Cu2_3 1_555 1_555
O10_3 Cu25 1_555 1_555
I13_3 Cu14 1_555 1_555
Cu15_3 I1_3 1_555 1_555
Cu22_3 I11_3 1_555 1_555
Cu23_3 I2_3 1_555 1_555
Cu24_3 I2_3 1_555 1_555
Cu26_2 O2_3 1_555 1_555
C6_3 N2_3 1_555 1_555
O2_3 Cu25 1_555 1_555
I4_3 Cu27 1_555 1_555
I4_3 Cu26_2 1_555 1_555
C29_3 N11_3 1_555 1_555
N11_3 Cu27 1_555 1_555
I10_3 Cu24_3 1_555 1_555
I11_3 Cu23_3 1_555 1_555
I13_3 Cu15_3 1_555 1_555
C12_3 H16_3 1_555 1_555
C13_3 H17_3 1_555 1_555
C14_3 C13_3 1_555 1_555
C15_3 C14_3 1_555 1_555
N5_3 C12_3 1_555 1_555
O4_3 C15_3 1_555 1_555
C16_3 C14_3 1_555 1_555
H18_3 C16_3 1_555 1_555
N13 C12_3 1_555 1_555
O11 C15_3 1_555 1_555
H37_3 C30_3 1_555 1_555
H38_3 C30_3 1_555 1_555
H39_3 C31_3 1_555 1_555
N12_3 C30_3 1_555 1_555
Cu12_3 N12_3 1_555 1_555
C33_3 N12_3 1_555 1_555
H43_3 C33_3 1_555 1_555
H44_3 C33_3 1_555 1_555
H45_3 C31_3 1_555 1_555
I12_3 Cu5_3 1_555 1_555
I19_3 Cu12_3 1_555 1_555
I21_3 Cu12_3 1_555 1_555
I23_3 Cu12_3 1_555 1_555
Cu16_3 I5_3 1_555 1_555
Cu26_3 O4_3 1_555 1_555
C13_3 N5_3 1_555 1_555
N5_3 Cu5_3 1_555 1_555
I5_3 Cu5_3 1_555 1_555
C16_3 N13 1_555 1_555
C31_3 N12_3 1_555 1_555
I12_3 Cu16_3 1_555 1_555
C12_4 H16_4 1_555 1_555
C13_4 H17_4 1_555 1_555
C14_4 C13_4 1_555 1_555
C15_4 C14_4 1_555 1_555
N5_4 C12_4 1_555 1_555
O4_4 C15_4 1_555 1_555
C16_4 C14_4 1_555 1_555
H18_4 C16_4 1_555 1_555
N13_2 C12_4 1_555 1_555
O8 C15_4 1_555 1_555
I12_4 Cu5_4 1_555 1_555
Cu16_4 I5_4 1_555 1_555
Cu29 O4_4 1_555 1_555
C13_4 N5_4 1_555 1_555
N5_4 Cu5_4 1_555 1_555
I5_4 Cu5_4 1_555 1_555
C16_4 N13_2 1_555 1_555
I12_4 Cu16_4 1_555 1_555
C5_4 H3_4 1_555 1_555
H4_4 C5_4 1_555 1_555
C6_4 H5_4 1_555 1_555
N2_4 C5_4 1_555 1_555
O12 Cu2_4 1_555 1_555
I1_4 Cu14_2 1_555 1_555
I2_4 Cu2_4 1_555 1_555
I24 Cu25_2 1_555 1_555
Cu2_4 I10_4 1_555 1_555
Cu25_2 N2_4 1_555 1_555
C10_4 N2_4 1_555 1_555
H10_4 C10_4 1_555 1_555
H11_4 C10_4 1_555 1_555
H12_4 C6_4 1_555 1_555
I10_4 Cu22_4 1_555 1_555
I11_4 Cu2_4 1_555 1_555
O10_4 Cu25_2 1_555 1_555
I13_4 Cu14_2 1_555 1_555
Cu15_4 I1_4 1_555 1_555
Cu22_4 I11_4 1_555 1_555
Cu23_4 I2_4 1_555 1_555
Cu24_4 I2_4 1_555 1_555
Cu26_3 O12 1_555 1_555
C6_4 N2_4 1_555 1_555
O12 Cu25_2 1_555 1_555
I24 Cu26_3 1_555 1_555
I10_4 Cu24_4 1_555 1_555
I11_4 Cu23_4 1_555 1_555
I13_4 Cu15_4 1_555 1_555
H6_4 C7_4 1_555 1_555
H7_4 C7_4 1_555 1_555
H8_4 C8_4 1_555 1_555
N3_4 C7_4 1_555 1_555
I23_3 Cu3_4 1_555 1_555
Cu3_4 N3_4 1_555 1_555
C11_4 N3_4 1_555 1_555
H13_4 C11_4 1_555 1_555
H14_4 C11_4 1_555 1_555
H15_4 C8_4 1_555 1_555
I21_3 Cu3_4 1_555 1_555
I22_4 Cu3_4 1_555 1_555
Cu21_4 I23_3 1_555 1_555
C8_4 N3_4 1_555 1_555
I19_3 Cu21_4 1_555 1_555
I22_4 Cu21_4 1_555 1_555
H6_5 C7_5 1_555 1_555
H7_5 C7_5 1_555 1_555
H8_5 C8_5 1_555 1_555
N3_5 C7_5 1_555 1_555
Cu21_2 N3_5 1_555 1_555
C11_5 N3_5 1_555 1_555
H13_5 C11_5 1_555 1_555
H14_5 C11_5 1_555 1_555
H15_5 C8_5 1_555 1_555
C17_3 H19_3 1_555 1_555
C18_3 H20_3 1_555 1_555
C19_3 C18_3 1_555 1_555
C20_3 C19_3 1_555 1_555
N7_3 C17_3 1_555 1_555
O6_2 C20_3 1_555 1_555
I6_3 Cu6_3 1_555 1_555
Cu6_3 N7_3 1_555 1_555
C21_3 C19_3 1_555 1_555
H21_3 C21_3 1_555 1_555
N8_3 C17_3 1_555 1_555
O10 C20_3 1_555 1_555
I16_3 Cu6_3 1_555 1_555
Cu14_3 N8_3 1_555 1_555
Cu20_3 I6_3 1_555 1_555
Cu29 O6_2 1_555 1_555
C8_5 N3_5 1_555 1_555
C18_3 N7_3 1_555 1_555
C21_3 N8_3 1_555 1_555
I16_3 Cu20_3 1_555 1_555
N13_3 Cu8_3 1_555 1_555
I15_3 Cu8_3 1_555 1_555
Cu17_3 I8_3 1_555 1_555
I8_3 Cu8_3 1_555 1_555
I15_3 Cu17_3 1_555 1_555
C1_3 H1_3 1_555 1_555
C2_3 H2_3 1_555 1_555
C3_3 C2_3 1_555 1_555
C4_3 C3_3 1_555 1_555
C5_5 H3_5 1_555 1_555
H4_5 C5_5 1_555 1_555
C6_5 H5_5 1_555 1_555
N1_3 C1_3 1_555 1_555
N2_5 C5_5 1_555 1_555
O1_3 C4_3 1_555 1_555
I1_5 Cu1_3 1_555 1_555
Cu1_3 N1_3 1_555 1_555
Cu26_3 N2_5 1_555 1_555
C9_3 C3_3 1_555 1_555
H9_3 C9_3 1_555 1_555
N4_3 C1_3 1_555 1_555
O10_4 C4_3 1_555 1_555
C10_5 N2_5 1_555 1_555
H10_5 C10_5 1_555 1_555
H11_5 C10_5 1_555 1_555
H12_5 C6_5 1_555 1_555
Cu11_3 N4_3 1_555 1_555
I13_5 Cu1_3 1_555 1_555
I17_3 Cu11_3 1_555 1_555
Cu15_5 I1_5 1_555 1_555
Cu19_3 I9_3 1_555 1_555
C2_3 N1_3 1_555 1_555
C6_5 N2_5 1_555 1_555
O1_3 Cu26_3 1_555 1_555
C9_3 N4_3 1_555 1_555
I9_3 Cu11_3 1_555 1_555
I13_5 Cu15_5 1_555 1_555
I17_3 Cu19_3 1_555 1_555
C12_5 H16_5 1_555 1_555
C13_5 H17_5 1_555 1_555
C14_5 C13_5 1_555 1_555
C15_5 C14_5 1_555 1_555
N5_5 C12_5 1_555 1_555
O10_3 C15_5 1_555 1_555
C16_5 C14_5 1_555 1_555
H18_5 C16_5 1_555 1_555
N6_3 C12_5 1_555 1_555
O5_3 C15_5 1_555 1_555
I7_3 Cu7_3 1_555 1_555
Cu7_3 N6_3 1_555 1_555
I12_5 Cu5_5 1_555 1_555
I14_3 Cu7_3 1_555 1_555
Cu16_5 I5_5 1_555 1_555
Cu18_3 I7_3 1_555 1_555
Cu26_2 O5_3 1_555 1_555
C13_5 N5_5 1_555 1_555
N5_5 Cu5_5 1_555 1_555
I5_5 Cu5_5 1_555 1_555
C16_5 N6_3 1_555 1_555
I12_5 Cu16_5 1_555 1_555
I14_3 Cu18_3 1_555 1_555
C5_6 H3_6 1_555 1_555
H4_6 C5_6 1_555 1_555
C6_6 H5_6 1_555 1_555
N2_6 C5_6 1_555 1_555
Cu26 N2_6 1_555 1_555
C10_6 N2_6 1_555 1_555
H10_6 C10_6 1_555 1_555
H11_6 C10_6 1_555 1_555
H12_6 C6_6 1_555 1_555
O10_5 Cu26 1_555 1_555
C6_6 N2_6 1_555 1_555
H6_6 C7_6 1_555 1_555
H7_6 C7_6 1_555 1_555
H8_6 C8_6 1_555 1_555
N3_6 C7_6 1_555 1_555
Cu21_4 N3_6 1_555 1_555
C11_6 N3_6 1_555 1_555
H13_6 C11_6 1_555 1_555
H14_6 C11_6 1_555 1_555
H15_6 C8_6 1_555 1_555
C8_6 N3_6 1_555 1_555
C22_2 H22_2 1_555 1_555
H23_2 C22_2 1_555 1_555
C23_2 H24_2 1_555 1_555
N9_2 C22_2 1_555 1_555
Cu29 N9_2 1_555 1_555
C26_2 N9_2 1_555 1_555
H28_2 C26_2 1_555 1_555
H29_2 C26_2 1_555 1_555
H30_2 C23_2 1_555 1_555
C23_2 N9_2 1_555 1_555
C17_4 H19_4 1_555 1_555
C18_4 H20_4 1_555 1_555
C19_4 C18_4 1_555 1_555
C20_4 C19_4 1_555 1_555
N13_3 C17_4 1_555 1_555
O10_2 C20_4 1_555 1_555
C21_4 C19_4 1_555 1_555
H21_4 C21_4 1_555 1_555
N8_4 C17_4 1_555 1_555
O10_5 C20_4 1_555 1_555
H25_2 C24_2 1_555 1_555
H26_2 C24_2 1_555 1_555
H27_2 C25_2 1_555 1_555
N10_2 C24_2 1_555 1_555
C27_2 N10_2 1_555 1_555
H31_2 C27_2 1_555 1_555
H32_2 C27_2 1_555 1_555
H33_2 C25_2 1_555 1_555
Cu14_4 N8_4 1_555 1_555
C18_4 N13_3 1_555 1_555
C21_4 N8_4 1_555 1_555
C25_2 N10_2 1_555 1_555
N10_2 Cu21_3 1_555 1_555
H37_4 C30_4 1_555 1_555
H38_4 C30_4 1_555 1_555
H39_4 C31_4 1_555 1_555
N12_4 C30_4 1_555 1_555
Cu21 N12_4 1_555 1_555
C33_4 N12_4 1_555 1_555
H43_4 C33_4 1_555 1_555
H44_4 C33_4 1_555 1_555
H45_4 C31_4 1_555 1_555
C31_4 N12_4 1_555 1_555
C28_4 H34_4 1_555 1_555
H35_4 C28_4 1_555 1_555
C29_4 H36_4 1_555 1_555
N11_4 C28_4 1_555 1_555
C32_4 N11_4 1_555 1_555
H40_4 C32_4 1_555 1_555
H41_4 C32_4 1_555 1_555
H42_4 C29_4 1_555 1_555
C29_4 N11_4 1_555 1_555
N11_4 Cu26_2 1_555 1_555
I17_4 Cu14_3 1_555 1_555
Cu19_4 I9_4 1_555 1_555
I9_4 Cu14_3 1_555 1_555
I17_4 Cu19_4 1_555 1_555
I6_4 Cu14_4 1_555 1_555
I16_4 Cu14_4 1_555 1_555
Cu20_4 I6_4 1_555 1_555
I16_4 Cu20_4 1_555 1_555
C13_6 H17_6 1_555 1_555
C14_6 C13_6 1_555 1_555
C15_6 C14_6 1_555 1_555
N5_6 C12_6 1_555 1_555
O4_5 C15_6 1_555 1_555
C16_6 C14_6 1_555 1_555
H18_6 C16_6 1_555 1_555
N6_4 C12_6 1_555 1_555
O5_4 C15_6 1_555 1_555
C18_5 H20_5 1_555 1_555
C19_5 C18_5 1_555 1_555
C20_5 C19_5 1_555 1_555
N7_4 C17_5 1_555 1_555
O6_3 C20_5 1_555 1_555
Cu20_2 N7_4 1_555 1_555
C21_5 C19_5 1_555 1_555
H21_5 C21_5 1_555 1_555
N8_5 C17_5 1_555 1_555
O7_3 C20_5 1_555 1_555
Cu17_2 N6_4 1_555 1_555
Cu19_4 N8_5 1_555 1_555
Cu25_3 O7_3 1_555 1_555
Cu26_4 O4_5 1_555 1_555
Cu27_2 O6_3 1_555 1_555
Cu28_2 O5_4 1_555 1_555
C13_6 N5_6 1_555 1_555
N5_6 Cu15_5 1_555 1_555
C16_6 N6_4 1_555 1_555
C18_5 N7_4 1_555 1_555
C21_5 N8_5 1_555 1_555
C2_4 H2_4 1_555 1_555
C3_4 C2_4 1_555 1_555
C4_4 C3_4 1_555 1_555
C5_7 H3_7 1_555 1_555
H4_7 C5_7 1_555 1_555
C6_7 H5_7 1_555 1_555
C7_7 C5_7 1_555 1_555
H6_7 C7_7 1_555 1_555
H7_7 C7_7 1_555 1_555
C8_7 C6_7 1_555 1_555
H8_7 C8_7 1_555 1_555
N1_4 C1_4 1_555 1_555
N2_7 C5_7 1_555 1_555
N3_7 C7_7 1_555 1_555
O1_4 C4_4 1_555 1_555
O2_4 Cu2_5 1_555 1_555
I19_3 Cu2_5 1_555 1_555
I3_2 Cu22_2 1_555 1_555
I4_4 Cu4_3 1_555 1_555
Cu16_5 N1_4 1_555 1_555
Cu2_5 I21_3 1_555 1_555
Cu22_2 N3_7 1_555 1_555
Cu4_3 N2_7 1_555 1_555
C9_4 C3_4 1_555 1_555
H9_4 C9_4 1_555 1_555
N4_4 C1_4 1_555 1_555
O3_3 C4_4 1_555 1_555
C10_7 N2_7 1_555 1_555
H10_7 C10_7 1_555 1_555
H11_7 C10_7 1_555 1_555
H12_7 C6_7 1_555 1_555
C11_7 N3_7 1_555 1_555
H13_7 C11_7 1_555 1_555
H14_7 C11_7 1_555 1_555
H15_7 C8_7 1_555 1_555
C22_3 H22_3 1_555 1_555
H23_3 C22_3 1_555 1_555
C23_3 H24_3 1_555 1_555
C24_3 C22_3 1_555 1_555
H25_3 C24_3 1_555 1_555
H26_3 C24_3 1_555 1_555
C25_3 C23_3 1_555 1_555
H27_3 C25_3 1_555 1_555
N9_3 C22_3 1_555 1_555
N10_3 C24_3 1_555 1_555
Cu24_2 I3_2 1_555 1_555
Cu10_2 N9_3 1_555 1_555
C26_3 N9_3 1_555 1_555
H28_3 C26_3 1_555 1_555
H29_3 C26_3 1_555 1_555
H30_3 C23_3 1_555 1_555
C27_3 N10_3 1_555 1_555
H31_3 C27_3 1_555 1_555
H32_3 C27_3 1_555 1_555
H33_3 C25_3 1_555 1_555
C28_5 H34_5 1_555 1_555
H35_5 C28_5 1_555 1_555
C29_5 H36_5 1_555 1_555
C30_5 C28_5 1_555 1_555
H37_5 C30_5 1_555 1_555
H38_5 C30_5 1_555 1_555
C31_5 C29_5 1_555 1_555
H39_5 C31_5 1_555 1_555
N11_5 C28_5 1_555 1_555
N12_5 C30_5 1_555 1_555
Cu19_2 N4_4 1_555 1_555
Cu24_3 N12_5 1_555 1_555
Cu13_2 O2_4 1_555 1_555
C32_5 N11_5 1_555 1_555
H40_5 C32_5 1_555 1_555
H41_5 C32_5 1_555 1_555
H42_5 C29_5 1_555 1_555
C33_5 N12_5 1_555 1_555
H43_5 C33_5 1_555 1_555
H44_5 C33_5 1_555 1_555
H45_5 C31_5 1_555 1_555
I22_4 Cu2_5 1_555 1_555
N13_4 Cu18_2 1_555 1_555
O8_2 Cu13_2 1_555 1_555
O9_2 Cu10_2 1_555 1_555
O10_6 Cu4_3 1_555 1_555
O11_2 Cu10_2 1_555 1_555
O12_2 Cu10_2 1_555 1_555
I23_4 Cu24_3 1_555 1_555
I24_2 Cu10_2 1_555 1_555
Cu23_2 I3_2 1_555 1_555
Cu29_2 O2_4 1_555 1_555
C2_4 N1_4 1_555 1_555
C6_7 N2_7 1_555 1_555
C8_7 N3_7 1_555 1_555
O1_4 Cu4_3 1_555 1_555
O2_4 Cu4_3 1_555 1_555
I4_4 Cu13_2 1_555 1_555
I4_4 Cu29_2 1_555 1_555
C9_4 N4_4 1_555 1_555
O3_3 Cu13_2 1_555 1_555
C10_7 C11_7 1_555 1_555
C23_3 N9_3 1_555 1_555
C25_3 N10_3 1_555 1_555
N10_3 Cu24_2 1_555 1_555
C26_3 C27_3 1_555 1_555
C29_5 N11_5 1_555 1_555
C31_5 N12_5 1_555 1_555
N11_5 Cu13_2 1_555 1_555
C32_5 C33_5 1_555 1_555
C13_7 H17_7 1_555 1_555
C14_7 C13_7 1_555 1_555
C15_7 C14_7 1_555 1_555
N5_7 C12_7 1_555 1_555
O4_6 C15_7 1_555 1_555
C16_7 C14_7 1_555 1_555
H18_7 C16_7 1_555 1_555
N6_5 C12_7 1_555 1_555
O5_5 C15_7 1_555 1_555
C18_6 H20_6 1_555 1_555
C19_6 C18_6 1_555 1_555
C20_6 C19_6 1_555 1_555
N7_5 C17_6 1_555 1_555
O9_2 C20_6 1_555 1_555
Cu19 N7_5 1_555 1_555
C21_6 C19_6 1_555 1_555
H21_6 C21_6 1_555 1_555
N8_6 C17_6 1_555 1_555
O7_4 C20_6 1_555 1_555
Cu18 N6_5 1_555 1_555
Cu17_3 N8_6 1_555 1_555
Cu25_4 O7_4 1_555 1_555
Cu26_5 O4_6 1_555 1_555
Cu27_2 O5_5 1_555 1_555
C13_7 N5_7 1_555 1_555
N5_7 Cu20_3 1_555 1_555
C16_7 N6_5 1_555 1_555
C18_6 N7_5 1_555 1_555
C21_6 N8_6 1_555 1_555
C2_5 H2_5 1_555 1_555
C3_5 C2_5 1_555 1_555
C4_5 C3_5 1_555 1_555
C5_8 H3_8 1_555 1_555
H4_8 C5_8 1_555 1_555
C6_8 H5_8 1_555 1_555
C7_8 C5_8 1_555 1_555
H6_8 C7_8 1_555 1_555
H7_8 C7_8 1_555 1_555
C8_8 C6_8 1_555 1_555
H8_8 C8_8 1_555 1_555
N1_5 C1_5 1_555 1_555
N2_8 C5_8 1_555 1_555
N3_8 C7_8 1_555 1_555
O1_5 C4_5 1_555 1_555
O2_5 Cu2_6 1_555 1_555
I18 Cu2_6 1_555 1_555
I23_4 Cu22_3 1_555 1_555
I4_5 Cu4_4 1_555 1_555
Cu19_3 N1_5 1_555 1_555
Cu2_6 I20 1_555 1_555
Cu22_3 N3_8 1_555 1_555
Cu4_4 N2_8 1_555 1_555
C9_5 C3_5 1_555 1_555
H9_5 C9_5 1_555 1_555
N4_5 C1_5 1_555 1_555
O3_4 C4_5 1_555 1_555
C10_8 N2_8 1_555 1_555
H10_8 C10_8 1_555 1_555
H11_8 C10_8 1_555 1_555
H12_8 C6_8 1_555 1_555
C11_8 N3_8 1_555 1_555
H13_8 C11_8 1_555 1_555
H14_8 C11_8 1_555 1_555
H15_8 C8_8 1_555 1_555
C28_6 H34_6 1_555 1_555
H35_6 C28_6 1_555 1_555
C29_6 H36_6 1_555 1_555
C30_6 C28_6 1_555 1_555
H37_6 C30_6 1_555 1_555
H38_6 C30_6 1_555 1_555
C31_6 C29_6 1_555 1_555
H39_6 C31_6 1_555 1_555
N11_6 C28_6 1_555 1_555
N12_6 C30_6 1_555 1_555
Cu20 N4_5 1_555 1_555
Cu24_4 N12_6 1_555 1_555
Cu28_2 O2_5 1_555 1_555
C32_6 N11_6 1_555 1_555
H40_6 C32_6 1_555 1_555
H41_6 C32_6 1_555 1_555
H42_6 C29_6 1_555 1_555
C33_6 N12_6 1_555 1_555
H43_6 C33_6 1_555 1_555
H44_6 C33_6 1_555 1_555
H45_6 C31_6 1_555 1_555
I22 Cu2_6 1_555 1_555
N13_5 Cu17 1_555 1_555
O10_7 Cu4_4 1_555 1_555
I23_5 Cu24_4 1_555 1_555
Cu23_3 I23_4 1_555 1_555
Cu26_4 O2_5 1_555 1_555
C2_5 N1_5 1_555 1_555
C6_8 N2_8 1_555 1_555
C8_8 N3_8 1_555 1_555
O1_5 Cu4_4 1_555 1_555
O2_5 Cu4_4 1_555 1_555
I4_5 Cu28_2 1_555 1_555
I4_5 Cu26_4 1_555 1_555
C9_5 N4_5 1_555 1_555
O3_4 Cu28_2 1_555 1_555
C10_8 C11_8 1_555 1_555
C29_6 N11_6 1_555 1_555
C31_6 N12_6 1_555 1_555
N11_6 Cu28_2 1_555 1_555
C32_6 C33_6 1_555 1_555
C5_9 H3_9 1_555 1_555
H4_9 C5_9 1_555 1_555
C6_9 H5_9 1_555 1_555
C7_9 C5_9 1_555 1_555
H6_9 C7_9 1_555 1_555
H7_9 C7_9 1_555 1_555
C8_9 C6_9 1_555 1_555
H8_9 C8_9 1_555 1_555
N2_9 C5_9 1_555 1_555
N3_9 C7_9 1_555 1_555
O2_6 Cu2_7 1_555 1_555
I19 Cu2_7 1_555 1_555
I23_5 Cu22_4 1_555 1_555
I4_6 Cu25_3 1_555 1_555
Cu2_7 I21 1_555 1_555
Cu22_4 N3_9 1_555 1_555
Cu25_3 N2_9 1_555 1_555
C10_9 N2_9 1_555 1_555
H10_9 C10_9 1_555 1_555
H11_9 C10_9 1_555 1_555
H12_9 C6_9 1_555 1_555
C11_9 N3_9 1_555 1_555
H13_9 C11_9 1_555 1_555
H14_9 C11_9 1_555 1_555
H15_9 C8_9 1_555 1_555
C28_7 H34_7 1_555 1_555
H35_7 C28_7 1_555 1_555
C29_7 H36_7 1_555 1_555
C30_7 C28_7 1_555 1_555
H37_7 C30_7 1_555 1_555
H38_7 C30_7 1_555 1_555
C31_7 C29_7 1_555 1_555
H39_7 C31_7 1_555 1_555
N11_7 C28_7 1_555 1_555
N12_7 C30_7 1_555 1_555
Cu24 N12_7 1_555 1_555
Cu27_2 O2_6 1_555 1_555
C32_7 N11_7 1_555 1_555
H40_7 C32_7 1_555 1_555
H41_7 C32_7 1_555 1_555
H42_7 C29_7 1_555 1_555
C33_7 N12_7 1_555 1_555
H43_7 C33_7 1_555 1_555
H44_7 C33_7 1_555 1_555
H45_7 C31_7 1_555 1_555
I22_2 Cu2_7 1_555 1_555
O10_8 Cu25_3 1_555 1_555
I23_6 Cu24 1_555 1_555
Cu23_4 I23_5 1_555 1_555
Cu26_5 O2_6 1_555 1_555
C6_9 N2_9 1_555 1_555
C8_9 N3_9 1_555 1_555
O2_6 Cu25_3 1_555 1_555
I4_6 Cu27_2 1_555 1_555
I4_6 Cu26_5 1_555 1_555
C10_9 C11_9 1_555 1_555
C29_7 N11_7 1_555 1_555
C31_7 N12_7 1_555 1_555
N11_7 Cu27_2 1_555 1_555
C32_7 C33_7 1_555 1_555
C13_8 H17_8 1_555 1_555
C14_8 C13_8 1_555 1_555
C15_8 C14_8 1_555 1_555
N5_8 C12_8 1_555 1_555
O4_7 C15_8 1_555 1_555
C16_8 C14_8 1_555 1_555
H18_8 C16_8 1_555 1_555
N13_4 C12_8 1_555 1_555
O11_2 C15_8 1_555 1_555
Cu26_6 O4_7 1_555 1_555
C13_8 N5_8 1_555 1_555
N5_8 Cu20_4 1_555 1_555
C16_8 N13_4 1_555 1_555
C5_10 H3_10 1_555 1_555
H4_10 C5_10 1_555 1_555
C6_10 H5_10 1_555 1_555
C7_10 C5_10 1_555 1_555
H6_10 C7_10 1_555 1_555
H7_10 C7_10 1_555 1_555
C8_10 C6_10 1_555 1_555
H8_10 C8_10 1_555 1_555
N2_10 C5_10 1_555 1_555
N3_10 C7_10 1_555 1_555
O12_2 Cu2_8 1_555 1_555
I19_2 Cu2_8 1_555 1_555
I23_6 Cu22 1_555 1_555
I24_2 Cu25_4 1_555 1_555
Cu2_8 I21_2 1_555 1_555
Cu22 N3_10 1_555 1_555
Cu25_4 N2_10 1_555 1_555
C10_10 N2_10 1_555 1_555
H10_10 C10_10 1_555 1_555
H11_10 C10_10 1_555 1_555
H12_10 C6_10 1_555 1_555
C11_10 N3_10 1_555 1_555
H13_10 C11_10 1_555 1_555
H14_10 C11_10 1_555 1_555
H15_10 C8_10 1_555 1_555
I22_3 Cu2_8 1_555 1_555
O10_9 Cu25_4 1_555 1_555
Cu23 I23_6 1_555 1_555
Cu26_6 O12_2 1_555 1_555
C6_10 N2_10 1_555 1_555
C8_10 N3_10 1_555 1_555
O12_2 Cu25_4 1_555 1_555
I24_2 Cu26_6 1_555 1_555
C10_10 C11_10 1_555 1_555
C13_9 H17_9 1_555 1_555
C14_9 C13_9 1_555 1_555
C15_9 C14_9 1_555 1_555
N5_9 C12_9 1_555 1_555
O4_8 C15_9 1_555 1_555
C16_9 C14_9 1_555 1_555
H18_9 C16_9 1_555 1_555
N13_5 C12_9 1_555 1_555
O8_2 C15_9 1_555 1_555
Cu29_2 O4_8 1_555 1_555
C13_9 N5_9 1_555 1_555
N5_9 Cu18_3 1_555 1_555
C16_9 N13_5 1_555 1_555
C2_6 H2_6 1_555 1_555
C3_6 C2_6 1_555 1_555
C4_6 C3_6 1_555 1_555
C5_11 H3_11 1_555 1_555
H4_11 C5_11 1_555 1_555
C6_11 H5_11 1_555 1_555
C7_11 C5_11 1_555 1_555
H6_11 C7_11 1_555 1_555
H7_11 C7_11 1_555 1_555
C8_11 C6_11 1_555 1_555
H8_11 C8_11 1_555 1_555
N1_6 C1_6 1_555 1_555
N2_11 C5_11 1_555 1_555
N3_11 C7_11 1_555 1_555
O1_6 C4_6 1_555 1_555
Cu15 N1_6 1_555 1_555
Cu23_3 N3_11 1_555 1_555
Cu26_6 N2_11 1_555 1_555
C9_6 C3_6 1_555 1_555
H9_6 C9_6 1_555 1_555
N4_6 C1_6 1_555 1_555
O10_9 C4_6 1_555 1_555
C10_11 N2_11 1_555 1_555
H10_11 C10_11 1_555 1_555
H11_11 C10_11 1_555 1_555
H12_11 C6_11 1_555 1_555
C11_11 N3_11 1_555 1_555
H13_11 C11_11 1_555 1_555
H14_11 C11_11 1_555 1_555
H15_11 C8_11 1_555 1_555
Cu16_2 N4_6 1_555 1_555
N13_6 Cu16_4 1_555 1_555
C2_6 N1_6 1_555 1_555
C6_11 N2_11 1_555 1_555
C8_11 N3_11 1_555 1_555
O1_6 Cu26_6 1_555 1_555
C9_6 N4_6 1_555 1_555
C10_11 C11_11 1_555 1_555
C13_10 H17_10 1_555 1_555
C14_10 C13_10 1_555 1_555
C15_10 C14_10 1_555 1_555
N5_10 C12_10 1_555 1_555
O10_8 C15_10 1_555 1_555
C16_10 C14_10 1_555 1_555
H18_10 C16_10 1_555 1_555
N6_6 C12_10 1_555 1_555
O5_6 C15_10 1_555 1_555
C18_7 H20_7 1_555 1_555
C19_7 C18_7 1_555 1_555
C20_7 C19_7 1_555 1_555
N7_6 C17_7 1_555 1_555
O6_4 C20_7 1_555 1_555
Cu15_2 N7_6 1_555 1_555
C21_7 C19_7 1_555 1_555
H21_7 C21_7 1_555 1_555
N8_7 C17_7 1_555 1_555
O10_6 C20_7 1_555 1_555
Cu15_4 N6_6 1_555 1_555
Cu16_3 N8_7 1_555 1_555
Cu29_2 O6_4 1_555 1_555
Cu26_5 O5_6 1_555 1_555
C13_10 N5_10 1_555 1_555
N5_10 Cu16 1_555 1_555
C16_10 N6_6 1_555 1_555
C18_7 N7_6 1_555 1_555
C21_7 N8_7 1_555 1_555
C5_12 H3_12 1_555 1_555
H4_12 C5_12 1_555 1_555
C6_12 H5_12 1_555 1_555
C7_12 C5_12 1_555 1_555
H6_12 C7_12 1_555 1_555
H7_12 C7_12 1_555 1_555
C8_12 C6_12 1_555 1_555
H8_12 C8_12 1_555 1_555
N2_12 C5_12 1_555 1_555
N3_12 C7_12 1_555 1_555
Cu23 N3_12 1_555 1_555
Cu26_4 N2_12 1_555 1_555
C10_12 N2_12 1_555 1_555
H10_12 C10_12 1_555 1_555
H11_12 C10_12 1_555 1_555
H12_12 C6_12 1_555 1_555
C11_12 N3_12 1_555 1_555
H13_12 C11_12 1_555 1_555
H14_12 C11_12 1_555 1_555
H15_12 C8_12 1_555 1_555
O10_10 Cu26_4 1_555 1_555
C6_12 N2_12 1_555 1_555
C8_12 N3_12 1_555 1_555
C10_12 C11_12 1_555 1_555
C18_8 H20_8 1_555 1_555
C19_8 C18_8 1_555 1_555
C20_8 C19_8 1_555 1_555
N13_6 C17_8 1_555 1_555
O10_7 C20_8 1_555 1_555
C21_8 C19_8 1_555 1_555
H21_8 C21_8 1_555 1_555
N8_8 C17_8 1_555 1_555
O10_10 C20_8 1_555 1_555
Cu15_3 N8_8 1_555 1_555
C18_8 N13_6 1_555 1_555
C21_8 N8_8 1_555 1_555
C22_4 H22_4 1_555 1_555
H23_4 C22_4 1_555 1_555
C23_4 H24_4 1_555 1_555
C24_4 C22_4 1_555 1_555
H25_4 C24_4 1_555 1_555
H26_4 C24_4 1_555 1_555
C25_4 C23_4 1_555 1_555
H27_4 C25_4 1_555 1_555
N9_4 C22_4 1_555 1_555
N10_4 C24_4 1_555 1_555
Cu29_2 N9_4 1_555 1_555
C26_4 N9_4 1_555 1_555
H28_4 C26_4 1_555 1_555
H29_4 C26_4 1_555 1_555
H30_4 C23_4 1_555 1_555
C27_4 N10_4 1_555 1_555
H31_4 C27_4 1_555 1_555
H32_4 C27_4 1_555 1_555
H33_4 C25_4 1_555 1_555
C28_8 H34_8 1_555 1_555
H35_8 C28_8 1_555 1_555
C29_8 H36_8 1_555 1_555
C30_8 C28_8 1_555 1_555
H37_8 C30_8 1_555 1_555
H38_8 C30_8 1_555 1_555
C31_8 C29_8 1_555 1_555
H39_8 C31_8 1_555 1_555
N11_8 C28_8 1_555 1_555
N12_8 C30_8 1_555 1_555
Cu23_2 N12_8 1_555 1_555
C32_8 N11_8 1_555 1_555
H40_8 C32_8 1_555 1_555
H41_8 C32_8 1_555 1_555
H42_8 C29_8 1_555 1_555
C33_8 N12_8 1_555 1_555
H43_8 C33_8 1_555 1_555
H44_8 C33_8 1_555 1_555
H45_8 C31_8 1_555 1_555
C23_4 N9_4 1_555 1_555
C25_4 N10_4 1_555 1_555
N10_4 Cu23_4 1_555 1_555
C26_4 C27_4 1_555 1_555
C29_8 N11_8 1_555 1_555
C31_8 N12_8 1_555 1_555
N11_8 Cu26_5 1_555 1_555
C32_8 C33_8 1_555 1_555

#END
