
###############################################################################
#
# This file contains modified crystal structure data generated from the
# MOF subset of the Cambridge Structural Database (CSD) v543 
# hosted by the Cambridge Crystallographic Data Centre (CCDC).
#
# This work is licensed under the Creative Commons
# Attribution-NonCommercial-ShareAlike 4.0 International License.
# To view a copy of this license, visit
# http://creativecommons.org/licenses/by-nc-sa/4.0/
# or send a letter to
# Creative Commons, PO Box 1866, Mountain View, CA 94042, USA.
#
# CIF created using the CSD Python API on 29 September 2022
# The structure has been converted into the P1 space group
# The structure has a 3D framework
# The original CSD entry DABFET is in the cubic crystal system
# The original CSD entry DABFET is in a Sohncke space group
# The framework has been calculated to contain at least 10.0% void space
# The void calculation uses a probe of radius 1.32A, grid spacing 0.4
# The framework is charged, counterions have been retained in the structure
#
###############################################################################

data_DABFET
_chemical_formula_moiety         '(C480 H336 Ag8 B16 F64 N92 Ni8 8+)n'
_symmetry_cell_setting           triclinic
_symmetry_space_group_name_H-M   'P 1'
_symmetry_Int_Tables_number      1
_space_group_name_Hall           'P 1'
loop_
_symmetry_equiv_pos_site_id
_symmetry_equiv_pos_as_xyz
1 x,y,z
_cell_length_a                   23.0065(2)
_cell_length_b                   23.0065(2)
_cell_length_c                   23.0065(2)
_cell_angle_alpha                90
_cell_angle_beta                 90
_cell_angle_gamma                90
_cell_volume                     12177.3
loop_
_atom_site_label
_atom_site_type_symbol
_atom_site_fract_x
_atom_site_fract_y
_atom_site_fract_z
Ag1 Ag 0.48961(4) 0.51039(4) 0.01039(4)
Ni1 Ni 0.61095(4) 0.88905(4) 0.11095(4)
N1 N 0.70171(15) 0.8985(2) 0.1137(2)
C1 C 0.7283(2) 0.9025(2) 0.05957(17)
C2 C 0.7883(2) 0.9085(3) 0.0558(2)
H1 H 0.8065 0.9113 0.0188
C3 C 0.82172(15) 0.9104(3) 0.1061(3)
H2 H 0.8627 0.9145 0.1034
C4 C 0.7951(2) 0.9063(3) 0.1602(2)
H3 H 0.8180 0.9076 0.1945
C5 C 0.7351(2) 0.9004(3) 0.16397(17)
H4 H 0.7170 0.8976 0.2009
N3 N 0.6319(2) 0.8952(2) 0.02146(16)
C6 C 0.69267(19) 0.9018(3) 0.0130(2)
Ni2 Ni 0.38905(4) 0.38905(4) 0.38905(4)
N5 N 0.3863(2) 0.29829(15) 0.3985(2)
N7 N 0.6137(2) 0.79829(15) 0.1015(2)
N8 N 0.6015(2) 0.8863(2) 0.20171(15)
C21 C 0.44043(17) 0.2717(2) 0.4025(2)
C23 C 0.4442(2) 0.2117(2) 0.4085(3)
H15 H 0.4812 0.1935 0.4113
C25 C 0.3939(3) 0.17828(15) 0.4104(3)
H17 H 0.3966 0.1373 0.4145
C27 C 0.3398(2) 0.2049(2) 0.4063(3)
H19 H 0.3055 0.1820 0.4076
C29 C 0.33603(17) 0.2649(2) 0.4004(3)
H21 H 0.2991 0.2830 0.3976
N9 N 0.5338(2) 0.3955(2) 0.3982(2)
N11 N 0.47854(16) 0.3681(2) 0.3952(2)
N13 N 0.52146(16) 0.8681(2) 0.1048(2)
N14 N 0.6048(2) 0.97854(16) 0.1319(2)
C31 C 0.4870(2) 0.30733(19) 0.4018(3)
C33 C 0.5475(3) 0.2972(2) 0.4089(3)
H23 H 0.5655 0.2604 0.4142
C35 C 0.57639(16) 0.3517(3) 0.4066(3)
H25 H 0.6171 0.3577 0.4101
C37 C 0.5415(4) 0.4536(4) 0.3843(4)
H27 H 0.5767 0.4682 0.4043
H29 H 0.5078 0.4761 0.3988
C39 C 0.5481(2) 0.4644(2) 0.31742(15)
C41 C 0.5455(2) 0.41752(16) 0.2795(2)
H31 H 0.5412 0.3792 0.2943
C43 C 0.5493(3) 0.4266(2) 0.21985(19)
H33 H 0.5475 0.3946 0.1939
C45 C 0.5556(3) 0.4827(2) 0.19821(15)
C47 C 0.5582(2) 0.52962(18) 0.2362(2)
C48 C 0.2638(2) 0.4418(2) 0.02962(18)
C49 C 0.5544(2) 0.52050(17) 0.2958(2)
C50 C 0.2042(2) 0.4456(2) 0.02050(17)
C51 C 0.5662(5) 0.5847(2) 0.2126(2)
C52 C 0.2874(2) 0.4338(5) 0.0847(2)
H35 H 0.5704 0.5892 0.1718
H36 H 0.3282 0.4296 0.0892
C53 C 0.5682(6) 0.63306(19) 0.2487(3)
C54 C 0.2513(3) 0.4318(6) 0.13306(19)
H37 H 0.5690 0.6713 0.2332
H38 H 0.2668 0.4310 0.1713
C55 C 0.5689(4) 0.62341(18) 0.3083(3)
C56 C 0.1917(3) 0.4311(4) 0.12341(18)
H39 H 0.5761 0.6552 0.3337
H40 H 0.1663 0.4239 0.1552
C57 C 0.5593(4) 0.5685(2) 0.33215(18)
C58 C 0.16785(18) 0.4407(4) 0.0685(2)
H41 H 0.5562 0.5639 0.3731
H42 H 0.1269 0.4438 0.0639
C59 C 0.5521(5) 0.4888(6) 0.1376(6)
N15 N 0.5503(5) 0.4960(5) 0.0836(4)
N2 N 0.6045(2) 0.8982(2) 0.9662(2)
C7 C 0.7028(2) 0.9089(3) 0.9525(3)
H5 H 0.7396 0.9142 0.9345
C8 C 0.6483(3) 0.9066(3) 0.92361(16)
H6 H 0.6423 0.9101 0.8829
C9 C 0.5464(4) 0.8843(4) 0.9585(4)
H7 H 0.5318 0.9043 0.9233
H8 H 0.5239 0.8988 0.9922
C10 C 0.5356(2) 0.81742(15) 0.9519(2)
C11 C 0.58248(16) 0.7795(2) 0.9545(2)
H9 H 0.6208 0.7943 0.9588
C12 C 0.5734(2) 0.71985(19) 0.9507(3)
H10 H 0.6054 0.6939 0.9525
C13 C 0.5173(2) 0.69821(15) 0.9444(3)
C14 C 0.47038(18) 0.7362(2) 0.9418(2)
C15 C 0.47950(17) 0.7958(2) 0.9456(2)
C16 C 0.4153(2) 0.7126(2) 0.9338(5)
H11 H 0.4108 0.6718 0.9296
C17 C 0.36694(19) 0.7487(3) 0.9318(6)
H12 H 0.3287 0.7332 0.9310
C18 C 0.37659(18) 0.8083(3) 0.9311(4)
H13 H 0.3448 0.8337 0.9239
C19 C 0.4315(2) 0.83215(18) 0.9407(4)
H14 H 0.4361 0.8731 0.9438
C20 C 0.5112(6) 0.6376(6) 0.9479(5)
N4 N 0.5040(5) 0.5836(4) 0.9497(5)
Ni3 Ni 0.11095(4) 0.61095(4) 0.88905(4)
N6 N 0.1015(2) 0.6137(2) 0.79829(15)
C22 C 0.0975(2) 0.55957(17) 0.7717(2)
C24 C 0.0915(3) 0.5558(2) 0.7117(2)
H16 H 0.0887 0.5188 0.6935
C26 C 0.0896(3) 0.6061(3) 0.67828(15)
H18 H 0.0855 0.6034 0.6373
C28 C 0.0937(3) 0.6602(2) 0.7049(2)
H20 H 0.0924 0.6945 0.6820
C30 C 0.0996(3) 0.66397(17) 0.7649(2)
H22 H 0.1024 0.7009 0.7830
N10 N 0.1018(2) 0.4662(2) 0.8955(2)
N12 N 0.1048(2) 0.52146(16) 0.8681(2)
C32 C 0.0982(3) 0.5130(2) 0.80733(19)
C34 C 0.0911(3) 0.4525(3) 0.7972(2)
H24 H 0.0858 0.4345 0.7604
C36 C 0.0934(3) 0.42361(16) 0.8517(3)
H26 H 0.0899 0.3829 0.8577
C38 C 0.1157(4) 0.4585(4) 0.9536(4)
H28 H 0.0957 0.4233 0.9682
H30 H 0.1012 0.4922 0.9761
C40 C 0.18258(15) 0.4519(2) 0.9644(2)
C42 C 0.2205(2) 0.4545(2) 0.91752(16)
H32 H 0.2057 0.4588 0.8792
C44 C 0.28015(19) 0.4507(3) 0.9266(2)
H34 H 0.3061 0.4525 0.8946
C46 C 0.30179(15) 0.4444(3) 0.9827(2)
C60 C 0.3624(6) 0.4479(5) 0.9888(6)
N16 N 0.4164(4) 0.4497(5) 0.9960(5)
Ag1_2 Ag 0.01039(4) 0.48961(4) 0.51039(4)
C14_2 C 0.02962(18) 0.2638(2) 0.4418(2)
C15_2 C 0.02050(17) 0.2042(2) 0.4456(2)
C16_2 C 0.0847(2) 0.2874(2) 0.4338(5)
H11_2 H 0.0892 0.3282 0.4296
C17_2 C 0.13306(19) 0.2513(3) 0.4318(6)
H12_2 H 0.1713 0.2668 0.4310
C18_2 C 0.12341(18) 0.1917(3) 0.4311(4)
H13_2 H 0.1552 0.1663 0.4239
C19_2 C 0.0685(2) 0.16785(18) 0.4407(4)
H14_2 H 0.0639 0.1269 0.4438
N5_2 N 0.1137(2) 0.70171(15) 0.8985(2)
N6_2 N 0.3985(2) 0.3863(2) 0.29829(15)
C21_2 C 0.05957(17) 0.7283(2) 0.9025(2)
C22_2 C 0.4025(2) 0.44043(17) 0.2717(2)
C23_2 C 0.0558(2) 0.7883(2) 0.9085(3)
C24_2 C 0.4085(3) 0.4442(2) 0.2117(2)
H15_2 H 0.0188 0.8065 0.9113
H16_2 H 0.4113 0.4812 0.1935
C25_2 C 0.1061(3) 0.82172(15) 0.9104(3)
C26_2 C 0.4104(3) 0.3939(3) 0.17828(15)
H17_2 H 0.1034 0.8627 0.9145
H18_2 H 0.4145 0.3966 0.1373
C27_2 C 0.1602(2) 0.7951(2) 0.9063(3)
C28_2 C 0.4063(3) 0.3398(2) 0.2049(2)
H19_2 H 0.1945 0.8180 0.9076
H20_2 H 0.4076 0.3055 0.1820
C29_2 C 0.16397(17) 0.7351(2) 0.9004(3)
C30_2 C 0.4004(3) 0.33603(17) 0.2649(2)
H21_2 H 0.2009 0.7170 0.8976
H22_2 H 0.3976 0.2991 0.2830
N10_2 N 0.3982(2) 0.5338(2) 0.3955(2)
N11_2 N 0.02146(16) 0.6319(2) 0.8952(2)
N12_2 N 0.3952(2) 0.47854(16) 0.3681(2)
C31_2 C 0.0130(2) 0.69267(19) 0.9018(3)
C32_2 C 0.4018(3) 0.4870(2) 0.30733(19)
C34_2 C 0.4089(3) 0.5475(3) 0.2972(2)
H24_2 H 0.4142 0.5655 0.2604
C36_2 C 0.4066(3) 0.57639(16) 0.3517(3)
H26_2 H 0.4101 0.6171 0.3577
C38_2 C 0.3843(4) 0.5415(4) 0.4536(4)
H28_2 H 0.4043 0.5767 0.4682
H30_2 H 0.3988 0.5078 0.4761
C40_2 C 0.31742(15) 0.5481(2) 0.4644(2)
C42_2 C 0.2795(2) 0.5455(2) 0.41752(16)
H32_2 H 0.2943 0.5412 0.3792
C44_2 C 0.21985(19) 0.5493(3) 0.4266(2)
H34_2 H 0.1939 0.5475 0.3946
C46_2 C 0.19821(15) 0.5556(3) 0.4827(2)
C48_2 C 0.2362(2) 0.5582(2) 0.52962(18)
C50_2 C 0.2958(2) 0.5544(2) 0.52050(17)
C52_2 C 0.2126(2) 0.5662(5) 0.5847(2)
H36_2 H 0.1718 0.5704 0.5892
C54_2 C 0.2487(3) 0.5682(6) 0.63306(19)
H38_2 H 0.2332 0.5690 0.6713
C56_2 C 0.3083(3) 0.5689(4) 0.62341(18)
H40_2 H 0.3337 0.5761 0.6552
C58_2 C 0.33215(18) 0.5593(4) 0.5685(2)
H42_2 H 0.3731 0.5562 0.5639
C60_2 C 0.1376(6) 0.5521(5) 0.4888(6)
N16_2 N 0.0836(4) 0.5503(5) 0.4960(5)
Ni1_2 Ni 0.88905(4) 0.11095(4) 0.61095(4)
N1_2 N 0.79829(15) 0.1015(2) 0.6137(2)
C1_2 C 0.7717(2) 0.0975(2) 0.55957(17)
C2_2 C 0.7117(2) 0.0915(3) 0.5558(2)
H1_2 H 0.6935 0.0887 0.5188
C3_2 C 0.67828(15) 0.0896(3) 0.6061(3)
H2_2 H 0.6373 0.0855 0.6034
C4_2 C 0.7049(2) 0.0937(3) 0.6602(2)
H3_2 H 0.6820 0.0924 0.6945
C5_2 C 0.7649(2) 0.0996(3) 0.66397(17)
H4_2 H 0.7830 0.1024 0.7009
N2_2 N 0.8955(2) 0.1018(2) 0.4662(2)
N3_2 N 0.8681(2) 0.1048(2) 0.52146(16)
C6_2 C 0.80733(19) 0.0982(3) 0.5130(2)
C7_2 C 0.7972(2) 0.0911(3) 0.4525(3)
H5_2 H 0.7604 0.0858 0.4345
C8_2 C 0.8517(3) 0.0934(3) 0.42361(16)
H6_2 H 0.8577 0.0899 0.3829
C9_2 C 0.9536(4) 0.1157(4) 0.4585(4)
H7_2 H 0.9682 0.0957 0.4233
H8_2 H 0.9761 0.1012 0.4922
C10_2 C 0.9644(2) 0.18258(15) 0.4519(2)
C11_2 C 0.91752(16) 0.2205(2) 0.4545(2)
H9_2 H 0.8792 0.2057 0.4588
C12_2 C 0.9266(2) 0.28015(19) 0.4507(3)
H10_2 H 0.8946 0.3061 0.4525
C13_2 C 0.9827(2) 0.30179(15) 0.4444(3)
C20_2 C 0.9888(6) 0.3624(6) 0.4479(5)
N4_2 N 0.9960(5) 0.4164(4) 0.4497(5)
N7_2 N 0.8863(2) 0.20171(15) 0.6015(2)
N8_2 N 0.8985(2) 0.1137(2) 0.70171(15)
N9_2 N 0.9662(2) 0.6045(2) 0.8982(2)
N13_2 N 0.97854(16) 0.1319(2) 0.6048(2)
N14_2 N 0.8952(2) 0.02146(16) 0.6319(2)
C33_2 C 0.9525(3) 0.7028(2) 0.9089(3)
H23_2 H 0.9345 0.7396 0.9142
C35_2 C 0.92361(16) 0.6483(3) 0.9066(3)
H25_2 H 0.8829 0.6423 0.9101
C37_2 C 0.9585(4) 0.5464(4) 0.8843(4)
H27_2 H 0.9233 0.5318 0.9043
H29_2 H 0.9922 0.5239 0.8988
C39_2 C 0.9519(2) 0.5356(2) 0.81742(15)
C41_2 C 0.9545(2) 0.58248(16) 0.7795(2)
H31_2 H 0.9588 0.6208 0.7943
C43_2 C 0.9507(3) 0.5734(2) 0.71985(19)
H33_2 H 0.9525 0.6054 0.6939
C45_2 C 0.9444(3) 0.5173(2) 0.69821(15)
C47_2 C 0.9418(2) 0.47038(18) 0.7362(2)
C49_2 C 0.9456(2) 0.47950(17) 0.7958(2)
C51_2 C 0.9338(5) 0.4153(2) 0.7126(2)
H35_2 H 0.9296 0.4108 0.6718
C53_2 C 0.9318(6) 0.36694(19) 0.7487(3)
H37_2 H 0.9310 0.3287 0.7332
C55_2 C 0.9311(4) 0.37659(18) 0.8083(3)
H39_2 H 0.9239 0.3448 0.8337
C57_2 C 0.9407(4) 0.4315(2) 0.83215(18)
H41_2 H 0.9438 0.4361 0.8731
C59_2 C 0.9479(5) 0.5112(6) 0.6376(6)
N15_2 N 0.9497(5) 0.5040(5) 0.5836(4)
N1_3 N 0.20171(15) 0.6015(2) 0.8863(2)
C1_3 C 0.2283(2) 0.5975(2) 0.94043(17)
C2_3 C 0.2883(2) 0.5915(3) 0.9442(2)
H1_3 H 0.3065 0.5887 0.9812
C3_3 C 0.32172(15) 0.5896(3) 0.8939(3)
H2_3 H 0.3627 0.5855 0.8966
C4_3 C 0.2951(2) 0.5937(3) 0.8398(2)
H3_3 H 0.3180 0.5924 0.8055
C5_3 C 0.2351(2) 0.5996(3) 0.83603(17)
H4_3 H 0.2170 0.6024 0.7991
N3_3 N 0.1319(2) 0.6048(2) 0.97854(16)
C6_3 C 0.19267(19) 0.5982(3) 0.9870(2)
C47_3 C 0.0582(2) 0.97038(18) 0.7638(2)
C49_3 C 0.0544(2) 0.97950(17) 0.7042(2)
C51_3 C 0.0662(5) 0.9153(2) 0.7874(2)
H35_3 H 0.0704 0.9108 0.8282
C53_3 C 0.0682(6) 0.86694(19) 0.7513(3)
H37_3 H 0.0690 0.8287 0.7668
C55_3 C 0.0689(4) 0.87659(18) 0.6917(3)
H39_3 H 0.0761 0.8448 0.6663
C57_3 C 0.0593(4) 0.9315(2) 0.66785(18)
H41_3 H 0.0562 0.9361 0.6269
C21_3 C 0.94043(17) 0.2283(2) 0.5975(2)
C23_3 C 0.9442(2) 0.2883(2) 0.5915(3)
H15_3 H 0.9812 0.3065 0.5887
C25_3 C 0.8939(3) 0.32172(15) 0.5896(3)
H17_3 H 0.8966 0.3627 0.5855
C27_3 C 0.8398(2) 0.2951(2) 0.5937(3)
H19_3 H 0.8055 0.3180 0.5924
C29_3 C 0.83603(17) 0.2351(2) 0.5996(3)
H21_3 H 0.7991 0.2170 0.6024
C31_3 C 0.9870(2) 0.19267(19) 0.5982(3)
C48_3 C 0.7638(2) 0.0582(2) 0.97038(18)
C50_3 C 0.7042(2) 0.0544(2) 0.97950(17)
C52_3 C 0.7874(2) 0.0662(5) 0.9153(2)
H36_3 H 0.8282 0.0704 0.9108
C54_3 C 0.7513(3) 0.0682(6) 0.86694(19)
H38_3 H 0.7668 0.0690 0.8287
C56_3 C 0.6917(3) 0.0689(4) 0.87659(18)
H40_3 H 0.6663 0.0761 0.8448
C58_3 C 0.66785(18) 0.0593(4) 0.9315(2)
H42_3 H 0.6269 0.0562 0.9361
C14_3 C 0.97038(18) 0.7638(2) 0.0582(2)
C15_3 C 0.97950(17) 0.7042(2) 0.0544(2)
C16_3 C 0.9153(2) 0.7874(2) 0.0662(5)
H11_3 H 0.9108 0.8282 0.0704
C17_3 C 0.86694(19) 0.7513(3) 0.0682(6)
H12_3 H 0.8287 0.7668 0.0690
C18_3 C 0.87659(18) 0.6917(3) 0.0689(4)
H13_3 H 0.8448 0.6663 0.0761
C19_3 C 0.9315(2) 0.66785(18) 0.0593(4)
H14_3 H 0.9361 0.6269 0.0562
C22_3 C 0.5975(2) 0.94043(17) 0.2283(2)
C24_3 C 0.5915(3) 0.9442(2) 0.2883(2)
H16_3 H 0.5887 0.9812 0.3065
C26_3 C 0.5896(3) 0.8939(3) 0.32172(15)
H18_3 H 0.5855 0.8966 0.3627
C28_3 C 0.5937(3) 0.8398(2) 0.2951(2)
H20_3 H 0.5924 0.8055 0.3180
C30_3 C 0.5996(3) 0.83603(17) 0.2351(2)
H22_3 H 0.6024 0.7991 0.2170
C32_3 C 0.5982(3) 0.9870(2) 0.19267(19)
Ag1_3 Ag 0.51039(4) 0.01039(4) 0.48961(4)
N1_4 N 0.29829(15) 0.3985(2) 0.3863(2)
C1_4 C 0.2717(2) 0.4025(2) 0.44043(17)
C2_4 C 0.2117(2) 0.4085(3) 0.4442(2)
H1_4 H 0.1935 0.4113 0.4812
C3_4 C 0.17828(15) 0.4104(3) 0.3939(3)
H2_4 H 0.1373 0.4145 0.3966
C4_4 C 0.2049(2) 0.4063(3) 0.3398(2)
H3_4 H 0.1820 0.4076 0.3055
C5_4 C 0.2649(2) 0.4004(3) 0.33603(17)
H4_4 H 0.2830 0.3976 0.2991
N2_3 N 0.3955(2) 0.3982(2) 0.5338(2)
N3_4 N 0.3681(2) 0.3952(2) 0.47854(16)
C6_4 C 0.30733(19) 0.4018(3) 0.4870(2)
C7_3 C 0.2972(2) 0.4089(3) 0.5475(3)
H5_3 H 0.2604 0.4142 0.5655
C8_3 C 0.3517(3) 0.4066(3) 0.57639(16)
H6_3 H 0.3577 0.4101 0.6171
C9_3 C 0.4536(4) 0.3843(4) 0.5415(4)
H7_3 H 0.4682 0.4043 0.5767
H8_3 H 0.4761 0.3988 0.5078
C10_3 C 0.4644(2) 0.31742(15) 0.5481(2)
C11_3 C 0.41752(16) 0.2795(2) 0.5455(2)
H9_3 H 0.3792 0.2943 0.5412
C12_3 C 0.4266(2) 0.21985(19) 0.5493(3)
H10_3 H 0.3946 0.1939 0.5475
C13_3 C 0.4827(2) 0.19821(15) 0.5556(3)
C14_4 C 0.52962(18) 0.2362(2) 0.5582(2)
C15_4 C 0.52050(17) 0.2958(2) 0.5544(2)
C16_4 C 0.5847(2) 0.2126(2) 0.5662(5)
H11_4 H 0.5892 0.1718 0.5704
C17_4 C 0.63306(19) 0.2487(3) 0.5682(6)
H12_4 H 0.6713 0.2332 0.5690
C18_4 C 0.62341(18) 0.3083(3) 0.5689(4)
H13_4 H 0.6552 0.3337 0.5761
C19_4 C 0.5685(2) 0.33215(18) 0.5593(4)
H14_4 H 0.5639 0.3731 0.5562
C20_3 C 0.4888(6) 0.1376(6) 0.5521(5)
N4_3 N 0.4960(5) 0.0836(4) 0.5503(5)
C22_4 C 0.9025(2) 0.05957(17) 0.7283(2)
C24_4 C 0.9085(3) 0.0558(2) 0.7883(2)
H16_4 H 0.9113 0.0188 0.8065
C26_4 C 0.9104(3) 0.1061(3) 0.82172(15)
H18_4 H 0.9145 0.1034 0.8627
C28_4 C 0.9063(3) 0.1602(2) 0.7951(2)
H20_4 H 0.9076 0.1945 0.8180
C30_4 C 0.9004(3) 0.16397(17) 0.7351(2)
H22_4 H 0.8976 0.2009 0.7170
C32_4 C 0.9018(3) 0.0130(2) 0.69267(19)
C47_4 C 0.4418(2) 0.02962(18) 0.2638(2)
C49_4 C 0.4456(2) 0.02050(17) 0.2042(2)
C51_4 C 0.4338(5) 0.0847(2) 0.2874(2)
H35_4 H 0.4296 0.0892 0.3282
C53_4 C 0.4318(6) 0.13306(19) 0.2513(3)
H37_4 H 0.4310 0.1713 0.2668
C55_4 C 0.4311(4) 0.12341(18) 0.1917(3)
H39_4 H 0.4239 0.1552 0.1663
C57_4 C 0.4407(4) 0.0685(2) 0.16785(18)
H41_4 H 0.4438 0.0639 0.1269
C21_4 C 0.55957(17) 0.7717(2) 0.0975(2)
C23_4 C 0.5558(2) 0.7117(2) 0.0915(3)
H15_4 H 0.5188 0.6935 0.0887
C25_4 C 0.6061(3) 0.67828(15) 0.0896(3)
H17_4 H 0.6034 0.6373 0.0855
C27_4 C 0.6602(2) 0.7049(2) 0.0937(3)
H19_4 H 0.6945 0.6820 0.0924
C29_4 C 0.66397(17) 0.7649(2) 0.0996(3)
H21_4 H 0.7009 0.7830 0.1024
N9_3 N 0.4662(2) 0.8955(2) 0.1018(2)
N10_3 N 0.8982(2) 0.9662(2) 0.6045(2)
C31_4 C 0.5130(2) 0.80733(19) 0.0982(3)
C33_3 C 0.4525(3) 0.7972(2) 0.0911(3)
C34_3 C 0.9089(3) 0.9525(3) 0.7028(2)
H23_3 H 0.4345 0.7604 0.0858
H24_3 H 0.9142 0.9345 0.7396
C35_3 C 0.42361(16) 0.8517(3) 0.0934(3)
C36_3 C 0.9066(3) 0.92361(16) 0.6483(3)
H25_3 H 0.3829 0.8577 0.0899
H26_3 H 0.9101 0.8829 0.6423
C37_3 C 0.4585(4) 0.9536(4) 0.1157(4)
C38_3 C 0.8843(4) 0.9585(4) 0.5464(4)
H27_3 H 0.4233 0.9682 0.0957
H28_3 H 0.9043 0.9233 0.5318
H29_3 H 0.4922 0.9761 0.1012
H30_3 H 0.8988 0.9922 0.5239
C39_3 C 0.4519(2) 0.9644(2) 0.18258(15)
C40_3 C 0.81742(15) 0.9519(2) 0.5356(2)
C41_3 C 0.4545(2) 0.91752(16) 0.2205(2)
C42_3 C 0.7795(2) 0.9545(2) 0.58248(16)
H31_3 H 0.4588 0.8792 0.2057
H32_3 H 0.7943 0.9588 0.6208
C43_3 C 0.4507(3) 0.9266(2) 0.28015(19)
C44_3 C 0.71985(19) 0.9507(3) 0.5734(2)
H33_3 H 0.4525 0.8946 0.3061
H34_3 H 0.6939 0.9525 0.6054
C45_3 C 0.4444(3) 0.9827(2) 0.30179(15)
C46_3 C 0.69821(15) 0.9444(3) 0.5173(2)
C48_4 C 0.7362(2) 0.9418(2) 0.47038(18)
C50_4 C 0.7958(2) 0.9456(2) 0.47950(17)
C52_4 C 0.7126(2) 0.9338(5) 0.4153(2)
H36_4 H 0.6718 0.9296 0.4108
C54_4 C 0.7487(3) 0.9318(6) 0.36694(19)
H38_4 H 0.7332 0.9310 0.3287
C56_4 C 0.8083(3) 0.9311(4) 0.37659(18)
H40_4 H 0.8337 0.9239 0.3448
C58_4 C 0.83215(18) 0.9407(4) 0.4315(2)
H42_4 H 0.8731 0.9438 0.4361
C59_3 C 0.4479(5) 0.9888(6) 0.3624(6)
C60_3 C 0.6376(6) 0.9479(5) 0.5112(6)
N15_3 N 0.4497(5) 0.9960(5) 0.4164(4)
N16_3 N 0.5836(4) 0.9497(5) 0.5040(5)
N9_4 N 0.0338(2) 0.1045(2) 0.6018(2)
C33_4 C 0.0475(3) 0.2028(2) 0.5911(3)
H23_4 H 0.0655 0.2396 0.5858
C35_4 C 0.07639(16) 0.1483(3) 0.5934(3)
H25_4 H 0.1171 0.1423 0.5899
C37_4 C 0.0415(4) 0.0464(4) 0.6157(4)
H27_4 H 0.0767 0.0318 0.5957
H29_4 H 0.0078 0.0239 0.6012
C39_4 C 0.0481(2) 0.0356(2) 0.68258(15)
C41_4 C 0.0455(2) 0.08248(16) 0.7205(2)
H31_4 H 0.0412 0.1208 0.7057
C43_4 C 0.0493(3) 0.0734(2) 0.78015(19)
H33_4 H 0.0475 0.1054 0.8061
C45_4 C 0.0556(3) 0.0173(2) 0.80179(15)
C59_4 C 0.0521(5) 0.0112(6) 0.8624(6)
N15_4 N 0.0503(5) 0.0040(5) 0.9164(4)
N2_4 N 0.1045(2) 0.6018(2) 0.0338(2)
C7_4 C 0.2028(2) 0.5911(3) 0.0475(3)
H5_4 H 0.2396 0.5858 0.0655
C8_4 C 0.1483(3) 0.5934(3) 0.07639(16)
H6_4 H 0.1423 0.5899 0.1171
C9_4 C 0.0464(4) 0.6157(4) 0.0415(4)
H7_4 H 0.0318 0.5957 0.0767
H8_4 H 0.0239 0.6012 0.0078
C10_4 C 0.0356(2) 0.68258(15) 0.0481(2)
C11_4 C 0.08248(16) 0.7205(2) 0.0455(2)
H9_4 H 0.1208 0.7057 0.0412
C12_4 C 0.0734(2) 0.78015(19) 0.0493(3)
H10_4 H 0.1054 0.8061 0.0475
C13_4 C 0.0173(2) 0.80179(15) 0.0556(3)
C20_4 C 0.0112(6) 0.8624(6) 0.0521(5)
N4_4 N 0.0040(5) 0.9164(4) 0.0503(5)
N10_4 N 0.6018(2) 0.0338(2) 0.1045(2)
C34_4 C 0.5911(3) 0.0475(3) 0.2028(2)
H24_4 H 0.5858 0.0655 0.2396
C36_4 C 0.5934(3) 0.07639(16) 0.1483(3)
H26_4 H 0.5899 0.1171 0.1423
C38_4 C 0.6157(4) 0.0415(4) 0.0464(4)
H28_4 H 0.5957 0.0767 0.0318
H30_4 H 0.6012 0.0078 0.0239
C40_4 C 0.68258(15) 0.0481(2) 0.0356(2)
C42_4 C 0.7205(2) 0.0455(2) 0.08248(16)
H32_4 H 0.7057 0.0412 0.1208
C44_4 C 0.78015(19) 0.0493(3) 0.0734(2)
H34_4 H 0.8061 0.0475 0.1054
C46_4 C 0.80179(15) 0.0556(3) 0.0173(2)
C60_4 C 0.8624(6) 0.0521(5) 0.0112(6)
N16_4 N 0.9164(4) 0.0503(5) 0.0040(5)
Ag1_4 Ag 0.98961(4) 0.98961(4) 0.98961(4)
C81 C 0.0006(2) 0.6653(2) 0.3624(2)
C83 C 0.0597(2) 0.6668(3) 0.3501(3)
H57 H 0.0791 0.7031 0.3462
C85 C 0.09056(16) 0.6153(3) 0.3434(3)
H59 H 0.1310 0.6163 0.3350
C87 C 0.0623(2) 0.5622(3) 0.3491(3)
H61 H 0.0833 0.5270 0.3445
C89 C 0.0031(2) 0.5607(2) 0.3614(3)
H65 H 0.0162 0.7904 0.3570
C82 C 0.3624(2) 0.0006(2) 0.6653(2)
C84 C 0.3501(3) 0.0597(2) 0.6668(3)
H58 H 0.3462 0.0791 0.7031
C86 C 0.3434(3) 0.09056(16) 0.6153(3)
H60 H 0.3350 0.1310 0.6163
C88 C 0.3491(3) 0.0623(2) 0.5622(3)
H62 H 0.3445 0.0833 0.5270
C90 C 0.3614(3) 0.0031(2) 0.5607(2)
H66 H 0.3570 0.0162 0.7904
C61 C 0.6653(2) 0.3624(2) 0.0006(2)
C62 C 0.6668(3) 0.3501(3) 0.0597(2)
H43 H 0.7031 0.3462 0.0791
C63 C 0.6153(3) 0.3434(3) 0.09056(16)
H44 H 0.6163 0.3350 0.1310
C64 C 0.5622(3) 0.3491(3) 0.0623(2)
H45 H 0.5270 0.3445 0.0833
C65 C 0.5607(2) 0.3614(3) 0.0031(2)
H47 H 0.7904 0.3570 0.0162
Ag2 Ag 0.75736(6) 0.75736(6) 0.75736(6)
Ni4 Ni 0.61829(4) 0.38171(4) 0.88171(4)
N17 N 0.6122(2) 0.3681(2) 0.97231(16)
H46 H 0.5244 0.3653 0.9838
N18 N 0.7624(2) 0.3722(2) 0.88015(19)
N19 N 0.70622(16) 0.3718(2) 0.90568(19)
C66 C 0.7130(2) 0.3653(3) 0.96667(18)
C67 C 0.7734(3) 0.3616(3) 0.9788(2)
C68 C 0.80395(16) 0.3658(3) 0.9254(3)
H48 H 0.8450 0.3647 0.9207
C69 C 0.7736(3) 0.3865(4) 0.8233(4)
H49 H 0.7407 0.3727 0.7992
H50 H 0.8087 0.3649 0.8107
C70 C 0.7831(2) 0.45004(17) 0.8104(2)
C71 C 0.7864(2) 0.4888(2) 0.85662(15)
H51 H 0.7835 0.4750 0.8954
C72 C 0.7941(2) 0.5478(2) 0.8461(2)
H52 H 0.7963 0.5743 0.8777
C73 C 0.7984(2) 0.56804(17) 0.7893(2)
C74 C 0.7951(2) 0.5293(2) 0.74310(17)
C75 C 0.7875(2) 0.4703(2) 0.75363(18)
C76 C 0.7937(5) 0.5502(2) 0.68644(19)
H53 H 0.7944 0.5909 0.6795
C77 C 0.7912(5) 0.5117(4) 0.6400(2)
H54 H 0.7921 0.5258 0.6012
C78 C 0.7874(5) 0.4523(4) 0.65052(17)
H55 H 0.7851 0.4259 0.6189
C79 C 0.7868(4) 0.4314(2) 0.7074(2)
H56 H 0.7860 0.3908 0.7145
C80 C 0.8058(6) 0.6290(6) 0.7838(7)
N20 N 0.8127(6) 0.6790(4) 0.7780(6)
Ni5 Ni 0.88171(4) 0.61829(4) 0.38171(4)
Ni6 Ni 0.38171(4) 0.88171(4) 0.61829(4)
N21 N 0.97231(16) 0.6122(2) 0.3681(2)
N22 N 0.3681(2) 0.97231(16) 0.6122(2)
N23 N 0.52769(16) 0.3878(2) 0.8681(2)
N24 N 0.6319(2) 0.47231(16) 0.8878(2)
H63 H 0.9838 0.5244 0.3653
H64 H 0.3653 0.9838 0.5244
N25 N 0.88015(19) 0.7624(2) 0.3722(2)
N26 N 0.3722(2) 0.88015(19) 0.7624(2)
N27 N 0.90568(19) 0.70622(16) 0.3718(2)
N28 N 0.3718(2) 0.90568(19) 0.70622(16)
N29 N 0.59432(19) 0.29378(16) 0.8718(2)
N30 N 0.6282(2) 0.40568(19) 0.79378(16)
C91 C 0.96667(18) 0.7130(2) 0.3653(3)
C92 C 0.3653(3) 0.96667(18) 0.7130(2)
C93 C 0.9788(2) 0.7734(3) 0.3616(3)
C94 C 0.3616(3) 0.9788(2) 0.7734(3)
C95 C 0.9254(3) 0.80395(16) 0.3658(3)
C96 C 0.3658(3) 0.9254(3) 0.80395(16)
H67 H 0.9207 0.8450 0.3647
H68 H 0.3647 0.9207 0.8450
C97 C 0.8233(4) 0.7736(3) 0.3865(4)
C98 C 0.3865(4) 0.8233(4) 0.7736(3)
H69 H 0.7992 0.7407 0.3727
H70 H 0.3727 0.7992 0.7407
H71 H 0.8107 0.8087 0.3649
H72 H 0.3649 0.8107 0.8087
C99 C 0.8104(2) 0.7831(2) 0.45004(17)
C100 C 0.45004(17) 0.8104(2) 0.7831(2)
C101 C 0.85662(15) 0.7864(2) 0.4888(2)
C102 C 0.4888(2) 0.85662(15) 0.7864(2)
H73 H 0.8954 0.7835 0.4750
H74 H 0.4750 0.8954 0.7835
C103 C 0.8461(2) 0.7941(2) 0.5478(2)
C104 C 0.5478(2) 0.8461(2) 0.7941(2)
H75 H 0.8777 0.7963 0.5743
H76 H 0.5743 0.8777 0.7963
C105 C 0.7893(2) 0.7984(2) 0.56804(17)
C106 C 0.56804(17) 0.7893(2) 0.7984(2)
C107 C 0.74310(17) 0.7951(2) 0.5293(2)
C108 C 0.5293(2) 0.74310(17) 0.7951(2)
C109 C 0.75363(18) 0.7875(2) 0.4703(2)
C110 C 0.4703(2) 0.75363(18) 0.7875(2)
C111 C 0.68644(19) 0.7937(5) 0.5502(2)
C112 C 0.5502(2) 0.68644(19) 0.7937(5)
H77 H 0.6795 0.7944 0.5909
H78 H 0.5909 0.6795 0.7944
C113 C 0.6400(2) 0.7912(5) 0.5117(4)
C114 C 0.5117(4) 0.6400(2) 0.7912(5)
H79 H 0.6012 0.7921 0.5258
H80 H 0.5258 0.6012 0.7921
C115 C 0.65052(17) 0.7874(5) 0.4523(4)
C116 C 0.4523(4) 0.65052(17) 0.7874(5)
H81 H 0.6189 0.7851 0.4259
H82 H 0.4259 0.6189 0.7851
C117 C 0.7074(2) 0.7868(4) 0.4314(2)
C118 C 0.4314(2) 0.7074(2) 0.7868(4)
H83 H 0.7145 0.7860 0.3908
H84 H 0.3908 0.7145 0.7860
C119 C 0.7838(7) 0.8058(6) 0.6290(6)
C120 C 0.6290(6) 0.7838(7) 0.8058(6)
N31 N 0.7780(6) 0.8127(6) 0.6790(4)
N32 N 0.6790(4) 0.7780(6) 0.8127(6)
Ag2_2 Ag 0.74264(6) 0.24264(6) 0.25736(6)
N17_2 N 0.8878(2) 0.6319(2) 0.47231(16)
C61_2 C 0.8347(2) 0.6376(2) 0.5006(2)
C62_2 C 0.8332(3) 0.6499(3) 0.5597(2)
H43_2 H 0.7969 0.6538 0.5791
C63_2 C 0.8847(3) 0.6566(3) 0.59056(16)
H44_2 H 0.8837 0.6650 0.6310
C64_2 C 0.9378(3) 0.6509(3) 0.5623(2)
H45_2 H 0.9730 0.6555 0.5833
C65_2 C 0.9393(2) 0.6386(3) 0.5031(2)
H46_2 H 0.9756 0.6347 0.4838
N18_2 N 0.7376(2) 0.6278(2) 0.38015(19)
N19_2 N 0.79378(16) 0.6282(2) 0.40568(19)
C66_2 C 0.7870(2) 0.6347(3) 0.46667(18)
C67_2 C 0.7266(3) 0.6384(3) 0.4788(2)
H47_2 H 0.7096 0.6430 0.5162
C68_2 C 0.69605(16) 0.6342(3) 0.4254(3)
H48_2 H 0.6550 0.6353 0.4207
C69_2 C 0.7264(3) 0.6135(4) 0.3233(4)
H49_2 H 0.7593 0.6273 0.2992
H50_2 H 0.6913 0.6351 0.3107
C70_2 C 0.7169(2) 0.54996(17) 0.3104(2)
C71_2 C 0.7136(2) 0.5112(2) 0.35662(15)
H51_2 H 0.7165 0.5250 0.3954
C72_2 C 0.7059(2) 0.4522(2) 0.3461(2)
H52_2 H 0.7037 0.4257 0.3777
C73_2 C 0.7016(2) 0.43196(17) 0.2893(2)
C74_2 C 0.7049(2) 0.4707(2) 0.24310(17)
C75_2 C 0.7125(2) 0.5297(2) 0.25363(18)
C76_2 C 0.7063(5) 0.4498(2) 0.18644(19)
H53_2 H 0.7056 0.4091 0.1795
C77_2 C 0.7088(5) 0.4883(4) 0.1400(2)
H54_2 H 0.7079 0.4742 0.1012
C78_2 C 0.7126(5) 0.5477(4) 0.15052(17)
H55_2 H 0.7149 0.5741 0.1189
C79_2 C 0.7132(4) 0.5686(2) 0.2074(2)
H56_2 H 0.7140 0.6092 0.2145
C80_2 C 0.6942(6) 0.3710(6) 0.2838(7)
N20_2 N 0.6873(6) 0.3210(4) 0.2780(6)
N24_2 N 0.8681(2) 0.52769(16) 0.3878(2)
N30_2 N 0.8718(2) 0.59432(19) 0.29378(16)
C103_2 C 0.6539(2) 0.2059(2) 0.0478(2)
C104_2 C 0.9522(2) 0.1539(2) 0.2941(2)
H75_2 H 0.6223 0.2037 0.0743
H76_2 H 0.9257 0.1223 0.2963
C105_2 C 0.7107(2) 0.2016(2) 0.06804(17)
C106_2 C 0.93196(17) 0.2107(2) 0.2984(2)
C107_2 C 0.75690(17) 0.2049(2) 0.0293(2)
C108_2 C 0.9707(2) 0.25690(17) 0.2951(2)
C111_2 C 0.81356(19) 0.2063(5) 0.0502(2)
C112_2 C 0.9498(2) 0.31356(19) 0.2937(5)
H77_2 H 0.8205 0.2056 0.0909
H78_2 H 0.9091 0.3205 0.2944
C113_2 C 0.8600(2) 0.2088(5) 0.0117(4)
C114_2 C 0.9883(4) 0.3600(2) 0.2912(5)
H79_2 H 0.8988 0.2079 0.0258
H80_2 H 0.9742 0.3988 0.2921
C119_2 C 0.7162(7) 0.1942(6) 0.1290(6)
C120_2 C 0.8710(6) 0.2162(7) 0.3058(6)
N31_2 N 0.7220(6) 0.1873(6) 0.1790(4)
N32_2 N 0.8210(4) 0.2220(6) 0.3127(6)
C81_2 C 0.4994(2) 0.3347(2) 0.8624(2)
C83_2 C 0.4403(2) 0.3332(3) 0.8501(3)
H57_2 H 0.4209 0.2969 0.8462
C85_2 C 0.40944(16) 0.3847(3) 0.8434(3)
H59_2 H 0.3690 0.3837 0.8350
C87_2 C 0.4377(2) 0.4378(3) 0.8491(3)
H61_2 H 0.4167 0.4730 0.8445
C89_2 C 0.4969(2) 0.4393(2) 0.8614(3)
H63_2 H 0.5162 0.4756 0.8653
N25_2 N 0.61985(19) 0.2376(2) 0.8722(2)
C91_2 C 0.53333(18) 0.2870(2) 0.8653(3)
C93_2 C 0.5212(2) 0.2266(3) 0.8616(3)
H65_2 H 0.4838 0.2096 0.8570
C95_2 C 0.5746(3) 0.19605(16) 0.8658(3)
H67_2 H 0.5793 0.1550 0.8647
C97_2 C 0.6767(4) 0.2264(3) 0.8865(4)
H69_2 H 0.7008 0.2593 0.8727
H71_2 H 0.6893 0.1913 0.8649
C99_2 C 0.6896(2) 0.2169(2) 0.95004(17)
C101_2 C 0.64338(15) 0.2136(2) 0.9888(2)
H73_2 H 0.6046 0.2165 0.9750
C109_2 C 0.74637(18) 0.2125(2) 0.9703(2)
C115_2 C 0.84948(17) 0.2126(5) 0.9523(4)
H81_2 H 0.8811 0.2149 0.9259
C117_2 C 0.7926(2) 0.2132(4) 0.9314(2)
H83_2 H 0.7855 0.2140 0.8908
Ag2_3 Ag 0.25736(6) 0.74264(6) 0.24264(6)
C72_3 C 0.2941(2) 0.9522(2) 0.1539(2)
H52_3 H 0.2963 0.9257 0.1223
C73_3 C 0.2984(2) 0.93196(17) 0.2107(2)
C74_3 C 0.2951(2) 0.9707(2) 0.25690(17)
C76_3 C 0.2937(5) 0.9498(2) 0.31356(19)
H53_3 H 0.2944 0.9091 0.3205
C77_3 C 0.2912(5) 0.9883(4) 0.3600(2)
H54_3 H 0.2921 0.9742 0.3988
C80_3 C 0.3058(6) 0.8710(6) 0.2162(7)
N20_3 N 0.3127(6) 0.8210(4) 0.2220(6)
N21_2 N 0.47231(16) 0.8878(2) 0.6319(2)
C81_3 C 0.5006(2) 0.8347(2) 0.6376(2)
C83_3 C 0.5597(2) 0.8332(3) 0.6499(3)
H57_3 H 0.5791 0.7969 0.6538
C85_3 C 0.59056(16) 0.8847(3) 0.6566(3)
H59_3 H 0.6310 0.8837 0.6650
C87_3 C 0.5623(2) 0.9378(3) 0.6509(3)
H61_3 H 0.5833 0.9730 0.6555
C89_3 C 0.5031(2) 0.9393(2) 0.6386(3)
H63_3 H 0.4838 0.9756 0.6347
N25_3 N 0.38015(19) 0.7376(2) 0.6278(2)
N27_2 N 0.40568(19) 0.79378(16) 0.6282(2)
C91_3 C 0.46667(18) 0.7870(2) 0.6347(3)
C93_3 C 0.4788(2) 0.7266(3) 0.6384(3)
H65_3 H 0.5162 0.7096 0.6430
C95_3 C 0.4254(3) 0.69605(16) 0.6342(3)
H67_3 H 0.4207 0.6550 0.6353
C97_3 C 0.3233(4) 0.7264(3) 0.6135(4)
H69_3 H 0.2992 0.7593 0.6273
H71_3 H 0.3107 0.6913 0.6351
C99_3 C 0.3104(2) 0.7169(2) 0.54996(17)
C101_3 C 0.35662(15) 0.7136(2) 0.5112(2)
H73_3 H 0.3954 0.7165 0.5250
C103_3 C 0.3461(2) 0.7059(2) 0.4522(2)
C104_3 C 0.0478(2) 0.6539(2) 0.2059(2)
H75_3 H 0.3777 0.7037 0.4257
H76_3 H 0.0743 0.6223 0.2037
C105_3 C 0.2893(2) 0.7016(2) 0.43196(17)
C106_3 C 0.06804(17) 0.7107(2) 0.2016(2)
C107_3 C 0.24310(17) 0.7049(2) 0.4707(2)
C108_3 C 0.0293(2) 0.75690(17) 0.2049(2)
C109_3 C 0.25363(18) 0.7125(2) 0.5297(2)
C111_3 C 0.18644(19) 0.7063(5) 0.4498(2)
C112_3 C 0.0502(2) 0.81356(19) 0.2063(5)
H77_3 H 0.1795 0.7056 0.4091
H78_3 H 0.0909 0.8205 0.2056
C113_3 C 0.1400(2) 0.7088(5) 0.4883(4)
C114_3 C 0.0117(4) 0.8600(2) 0.2088(5)
H79_3 H 0.1012 0.7079 0.4742
H80_3 H 0.0258 0.8988 0.2079
C115_3 C 0.15052(17) 0.7126(5) 0.5477(4)
H81_3 H 0.1189 0.7149 0.5741
C117_3 C 0.2074(2) 0.7132(4) 0.5686(2)
H83_3 H 0.2145 0.7140 0.6092
C119_3 C 0.2838(7) 0.6942(6) 0.3710(6)
C120_3 C 0.1290(6) 0.7162(7) 0.1942(6)
N31_3 N 0.2780(6) 0.6873(6) 0.3210(4)
N32_3 N 0.1790(4) 0.7220(6) 0.1873(6)
C82_2 C 0.8624(2) 0.4994(2) 0.3347(2)
C84_2 C 0.8501(3) 0.4403(2) 0.3332(3)
H58_2 H 0.8462 0.4209 0.2969
C86_2 C 0.8434(3) 0.40944(16) 0.3847(3)
H60_2 H 0.8350 0.3690 0.3837
C88_2 C 0.8491(3) 0.4377(2) 0.4378(3)
H62_2 H 0.8445 0.4167 0.4730
C90_2 C 0.8614(3) 0.4969(2) 0.4393(2)
H64_2 H 0.8653 0.5162 0.4756
N26_2 N 0.8722(2) 0.61985(19) 0.2376(2)
C92_2 C 0.8653(3) 0.53333(18) 0.2870(2)
C94_2 C 0.8616(3) 0.5212(2) 0.2266(3)
H66_2 H 0.8570 0.4838 0.2096
C96_2 C 0.8658(3) 0.5746(3) 0.19605(16)
H68_2 H 0.8647 0.5793 0.1550
C98_2 C 0.8865(4) 0.6767(4) 0.2264(3)
H70_2 H 0.8727 0.7008 0.2593
H72_2 H 0.8649 0.6893 0.1913
C100_2 C 0.95004(17) 0.6896(2) 0.2169(2)
C102_2 C 0.9888(2) 0.64338(15) 0.2136(2)
H74_2 H 0.9750 0.6046 0.2165
C110_2 C 0.9703(2) 0.74637(18) 0.2125(2)
C116_2 C 0.9523(4) 0.84948(17) 0.2126(5)
H82_2 H 0.9259 0.8811 0.2149
C118_2 C 0.9314(2) 0.7926(2) 0.2132(4)
H84_2 H 0.8908 0.7855 0.2140
Ag2_4 Ag 0.24264(6) 0.25736(6) 0.74264(6)
C72_4 C 0.2059(2) 0.0478(2) 0.6539(2)
H52_4 H 0.2037 0.0743 0.6223
C73_4 C 0.2016(2) 0.06804(17) 0.7107(2)
C74_4 C 0.2049(2) 0.0293(2) 0.75690(17)
C76_4 C 0.2063(5) 0.0502(2) 0.81356(19)
H53_4 H 0.2056 0.0909 0.8205
C77_4 C 0.2088(5) 0.0117(4) 0.8600(2)
H54_4 H 0.2079 0.0258 0.8988
C80_4 C 0.1942(6) 0.1290(6) 0.7162(7)
N20_4 N 0.1873(6) 0.1790(4) 0.7220(6)
C82_3 C 0.6376(2) 0.5006(2) 0.8347(2)
C84_3 C 0.6499(3) 0.5597(2) 0.8332(3)
H58_3 H 0.6538 0.5791 0.7969
C86_3 C 0.6566(3) 0.59056(16) 0.8847(3)
H60_3 H 0.6650 0.6310 0.8837
C88_3 C 0.6509(3) 0.5623(2) 0.9378(3)
H62_3 H 0.6555 0.5833 0.9730
C90_3 C 0.6386(3) 0.5031(2) 0.9393(2)
H64_3 H 0.6347 0.4838 0.9756
N26_3 N 0.6278(2) 0.38015(19) 0.7376(2)
C92_3 C 0.6347(3) 0.46667(18) 0.7870(2)
C94_3 C 0.6384(3) 0.4788(2) 0.7266(3)
H66_3 H 0.6430 0.5162 0.7096
C96_3 C 0.6342(3) 0.4254(3) 0.69605(16)
H68_3 H 0.6353 0.4207 0.6550
C98_3 C 0.6135(4) 0.3233(4) 0.7264(3)
H70_3 H 0.6273 0.2992 0.7593
H72_3 H 0.6351 0.3107 0.6913
C100_3 C 0.54996(17) 0.3104(2) 0.7169(2)
C102_3 C 0.5112(2) 0.35662(15) 0.7136(2)
H74_3 H 0.5250 0.3954 0.7165
C103_4 C 0.1539(2) 0.2941(2) 0.9522(2)
C104_4 C 0.4522(2) 0.3461(2) 0.7059(2)
H75_4 H 0.1223 0.2963 0.9257
H76_4 H 0.4257 0.3777 0.7037
C105_4 C 0.2107(2) 0.2984(2) 0.93196(17)
C106_4 C 0.43196(17) 0.2893(2) 0.7016(2)
C107_4 C 0.25690(17) 0.2951(2) 0.9707(2)
C108_4 C 0.4707(2) 0.24310(17) 0.7049(2)
C110_3 C 0.5297(2) 0.25363(18) 0.7125(2)
C111_4 C 0.31356(19) 0.2937(5) 0.9498(2)
C112_4 C 0.4498(2) 0.18644(19) 0.7063(5)
H77_4 H 0.3205 0.2944 0.9091
H78_4 H 0.4091 0.1795 0.7056
C113_4 C 0.3600(2) 0.2912(5) 0.9883(4)
C114_4 C 0.4883(4) 0.1400(2) 0.7088(5)
H79_4 H 0.3988 0.2921 0.9742
H80_4 H 0.4742 0.1012 0.7079
C116_3 C 0.5477(4) 0.15052(17) 0.7126(5)
H82_3 H 0.5741 0.1189 0.7149
C118_3 C 0.5686(2) 0.2074(2) 0.7132(4)
H84_3 H 0.6092 0.2145 0.7140
C119_4 C 0.2162(7) 0.3058(6) 0.8710(6)
C120_4 C 0.3710(6) 0.2838(7) 0.6942(6)
N31_4 N 0.2220(6) 0.3127(6) 0.8210(4)
N32_4 N 0.3210(4) 0.2780(6) 0.6873(6)
N17_3 N 0.3878(2) 0.8681(2) 0.52769(16)
C61_3 C 0.3347(2) 0.8624(2) 0.4994(2)
C62_3 C 0.3332(3) 0.8501(3) 0.4403(2)
H43_3 H 0.2969 0.8462 0.4209
C63_3 C 0.3847(3) 0.8434(3) 0.40944(16)
H44_3 H 0.3837 0.8350 0.3690
C64_3 C 0.4378(3) 0.8491(3) 0.4377(2)
H45_3 H 0.4730 0.8445 0.4167
C65_3 C 0.4393(2) 0.8614(3) 0.4969(2)
H46_3 H 0.4756 0.8653 0.5162
N18_3 N 0.2376(2) 0.8722(2) 0.61985(19)
N19_3 N 0.29378(16) 0.8718(2) 0.59432(19)
C66_3 C 0.2870(2) 0.8653(3) 0.53333(18)
C67_3 C 0.2266(3) 0.8616(3) 0.5212(2)
H47_3 H 0.2096 0.8570 0.4838
C68_3 C 0.19605(16) 0.8658(3) 0.5746(3)
H48_3 H 0.1550 0.8647 0.5793
C69_3 C 0.2264(3) 0.8865(4) 0.6767(4)
H49_3 H 0.2593 0.8727 0.7008
H50_3 H 0.1913 0.8649 0.6893
C70_3 C 0.2169(2) 0.95004(17) 0.6896(2)
C71_3 C 0.2136(2) 0.9888(2) 0.64338(15)
H51_3 H 0.2165 0.9750 0.6046
C75_3 C 0.2125(2) 0.9703(2) 0.74637(18)
C78_3 C 0.2126(5) 0.9523(4) 0.84948(17)
H55_3 H 0.2149 0.9259 0.8811
C79_3 C 0.2132(4) 0.9314(2) 0.7926(2)
H56_3 H 0.2140 0.8908 0.7855
Ni6_2 Ni 0.11829(4) 0.11829(4) 0.11829(4)
N22_2 N 0.1319(2) 0.02769(16) 0.1122(2)
H64_4 H 0.1347 0.0162 0.0244
N26_4 N 0.1278(2) 0.11985(19) 0.2624(2)
N28_2 N 0.1282(2) 0.09432(19) 0.20622(16)
C92_4 C 0.1347(3) 0.03333(18) 0.2130(2)
C94_4 C 0.1384(3) 0.0212(2) 0.2734(3)
C96_4 C 0.1342(3) 0.0746(3) 0.30395(16)
H68_4 H 0.1353 0.0793 0.3450
C98_4 C 0.1135(4) 0.1767(4) 0.2736(3)
H70_4 H 0.1273 0.2008 0.2407
H72_4 H 0.1351 0.1893 0.3087
C100_4 C 0.04996(17) 0.1896(2) 0.2831(2)
C102_4 C 0.0112(2) 0.14338(15) 0.2864(2)
H74_4 H 0.0250 0.1046 0.2835
C110_4 C 0.0297(2) 0.24637(18) 0.2875(2)
C116_4 C 0.0477(4) 0.34948(17) 0.2874(5)
H82_4 H 0.0741 0.3811 0.2851
C118_4 C 0.0686(2) 0.2926(2) 0.2868(4)
H84_4 H 0.1092 0.2855 0.2860
N17_4 N 0.1122(2) 0.1319(2) 0.02769(16)
H46_4 H 0.0244 0.1347 0.0162
N18_4 N 0.2624(2) 0.1278(2) 0.11985(19)
N19_4 N 0.20622(16) 0.1282(2) 0.09432(19)
C66_4 C 0.2130(2) 0.1347(3) 0.03333(18)
C67_4 C 0.2734(3) 0.1384(3) 0.0212(2)
C68_4 C 0.30395(16) 0.1342(3) 0.0746(3)
H48_4 H 0.3450 0.1353 0.0793
C69_4 C 0.2736(3) 0.1135(4) 0.1767(4)
H49_4 H 0.2407 0.1273 0.2008
H50_4 H 0.3087 0.1351 0.1893
C70_4 C 0.2831(2) 0.04996(17) 0.1896(2)
C71_4 C 0.2864(2) 0.0112(2) 0.14338(15)
H51_4 H 0.2835 0.0250 0.1046
C75_4 C 0.2875(2) 0.0297(2) 0.24637(18)
C78_4 C 0.2874(5) 0.0477(4) 0.34948(17)
H55_4 H 0.2851 0.0741 0.3811
C79_4 C 0.2868(4) 0.0686(2) 0.2926(2)
H56_4 H 0.2860 0.1092 0.2855
N23_2 N 0.02769(16) 0.1122(2) 0.1319(2)
N29_2 N 0.09432(19) 0.20622(16) 0.1282(2)
H63_4 H 0.0162 0.0244 0.1347
N25_4 N 0.11985(19) 0.2624(2) 0.1278(2)
C91_4 C 0.03333(18) 0.2130(2) 0.1347(3)
C93_4 C 0.0212(2) 0.2734(3) 0.1384(3)
C95_4 C 0.0746(3) 0.30395(16) 0.1342(3)
H67_4 H 0.0793 0.3450 0.1353
C97_4 C 0.1767(4) 0.2736(3) 0.1135(4)
H69_4 H 0.2008 0.2407 0.1273
H71_4 H 0.1893 0.3087 0.1351
C99_4 C 0.1896(2) 0.2831(2) 0.04996(17)
C101_4 C 0.14338(15) 0.2864(2) 0.0112(2)
H73_4 H 0.1046 0.2835 0.0250
C109_4 C 0.24637(18) 0.2875(2) 0.0297(2)
C115_4 C 0.34948(17) 0.2874(5) 0.0477(4)
H81_4 H 0.3811 0.2851 0.0741
C117_4 C 0.2926(2) 0.2868(4) 0.0686(2)
H83_4 H 0.2855 0.2860 0.1092
C82_4 C 0.1376(2) 0.9994(2) 0.1653(2)
C84_4 C 0.1499(3) 0.9403(2) 0.1668(3)
H58_4 H 0.1538 0.9209 0.2031
C86_4 C 0.1566(3) 0.90944(16) 0.1153(3)
H60_4 H 0.1650 0.8690 0.1163
C88_4 C 0.1509(3) 0.9377(2) 0.0622(3)
H62_4 H 0.1555 0.9167 0.0270
C90_4 C 0.1386(3) 0.9969(2) 0.0607(2)
H66_4 H 0.1430 0.9838 0.2904
C61_4 C 0.1653(2) 0.1376(2) 0.9994(2)
C62_4 C 0.1668(3) 0.1499(3) 0.9403(2)
H43_4 H 0.2031 0.1538 0.9209
C63_4 C 0.1153(3) 0.1566(3) 0.90944(16)
H44_4 H 0.1163 0.1650 0.8690
C64_4 C 0.0622(3) 0.1509(3) 0.9377(2)
H45_4 H 0.0270 0.1555 0.9167
C65_4 C 0.0607(2) 0.1386(3) 0.9969(2)
H47_4 H 0.2904 0.1430 0.9838
C81_4 C 0.9994(2) 0.1653(2) 0.1376(2)
C83_4 C 0.9403(2) 0.1668(3) 0.1499(3)
H57_4 H 0.9209 0.2031 0.1538
C85_4 C 0.90944(16) 0.1153(3) 0.1566(3)
H59_4 H 0.8690 0.1163 0.1650
C87_4 C 0.9377(2) 0.0622(3) 0.1509(3)
H61_4 H 0.9167 0.0270 0.1555
C89_4 C 0.9969(2) 0.0607(2) 0.1386(3)
H65_4 H 0.9838 0.2904 0.1430
B1 B 0.7588(2) 0.2412(2) 0.7412(2)
F1 F 0.7326(3) 0.2344(3) 0.6877(2)
F2 F 0.7241(2) 0.2759(2) 0.7759(2)
F3 F 0.8123(2) 0.2674(3) 0.7344(3)
F4 F 0.7656(3) 0.1877(2) 0.7674(3)
B1_2 B 0.7412(2) 0.7588(2) 0.2412(2)
F1_2 F 0.7674(3) 0.7656(3) 0.1877(2)
F2_2 F 0.7759(2) 0.7241(2) 0.2759(2)
F3_2 F 0.6877(2) 0.7326(3) 0.2344(3)
F4_2 F 0.7344(3) 0.8123(2) 0.2674(3)
B1_3 B 0.2588(2) 0.2588(2) 0.2588(2)
F1_3 F 0.2326(3) 0.2656(3) 0.3123(2)
F2_3 F 0.2241(2) 0.2241(2) 0.2241(2)
F3_3 F 0.3123(2) 0.2326(3) 0.2656(3)
F4_3 F 0.2656(3) 0.3123(2) 0.2326(3)
B1_4 B 0.2412(2) 0.7412(2) 0.7588(2)
F1_4 F 0.2674(3) 0.7344(3) 0.8123(2)
F2_4 F 0.2759(2) 0.7759(2) 0.7241(2)
F3_4 F 0.1877(2) 0.7674(3) 0.7656(3)
F4_4 F 0.2344(3) 0.6877(2) 0.7326(3)
B2 B 0.5586(3) 0.0152(3) 0.7990(3)
F5 F 0.5509(4) 0.0647(3) 0.8318(4)
F6 F 0.6057(4) 0.0225(4) 0.7625(4)
F8 F 0.5094(3) 0.0050(4) 0.7662(4)
F7 F 0.5685(5) 0.9685(3) 0.8352(4)
F7_2 F 0.9315(5) 0.0315(3) 0.3352(4)
B2_2 B 0.9414(3) 0.9848(3) 0.2990(3)
F5_2 F 0.9491(4) 0.9353(3) 0.3318(4)
F6_2 F 0.8943(4) 0.9775(4) 0.2625(4)
F8_2 F 0.9906(3) 0.9950(4) 0.2662(4)
B2_3 B 0.0586(3) 0.4848(3) 0.2010(3)
F5_3 F 0.0509(4) 0.4353(3) 0.1682(4)
F6_3 F 0.1057(4) 0.4775(4) 0.2375(4)
F7_3 F 0.0685(5) 0.5315(3) 0.1648(4)
F8_3 F 0.0094(3) 0.4950(4) 0.2338(4)
B2_4 B 0.4414(3) 0.5152(3) 0.7010(3)
F5_4 F 0.4491(4) 0.5647(3) 0.6682(4)
F6_4 F 0.3943(4) 0.5225(4) 0.7375(4)
F7_4 F 0.4315(5) 0.4685(3) 0.6648(4)
F8_4 F 0.4906(3) 0.5050(4) 0.7338(4)
B2_5 B 0.7990(3) 0.5586(3) 0.0152(3)
F5_5 F 0.8318(4) 0.5509(4) 0.0647(3)
F6_5 F 0.7625(4) 0.6057(4) 0.0225(4)
F8_5 F 0.7662(4) 0.5094(3) 0.0050(4)
F7_5 F 0.8352(4) 0.5685(5) 0.9685(3)
B2_6 B 0.7010(3) 0.4414(3) 0.5152(3)
F5_6 F 0.6682(4) 0.4491(4) 0.5647(3)
F6_6 F 0.7375(4) 0.3943(4) 0.5225(4)
F7_6 F 0.6648(4) 0.4315(5) 0.4685(3)
F8_6 F 0.7338(4) 0.4906(3) 0.5050(4)
F7_7 F 0.3352(4) 0.9315(5) 0.0315(3)
B2_7 B 0.2990(3) 0.9414(3) 0.9848(3)
F5_7 F 0.3318(4) 0.9491(4) 0.9353(3)
F6_7 F 0.2625(4) 0.8943(4) 0.9775(4)
F8_7 F 0.2662(4) 0.9906(3) 0.9950(4)
B2_8 B 0.2010(3) 0.0586(3) 0.4848(3)
F5_8 F 0.1682(4) 0.0509(4) 0.4353(3)
F6_8 F 0.2375(4) 0.1057(4) 0.4775(4)
F7_8 F 0.1648(4) 0.0685(5) 0.5315(3)
F8_8 F 0.2338(4) 0.0094(3) 0.4950(4)
B2_9 B 0.0152(3) 0.7990(3) 0.5586(3)
F5_9 F 0.0647(3) 0.8318(4) 0.5509(4)
F6_9 F 0.0225(4) 0.7625(4) 0.6057(4)
F8_9 F 0.0050(4) 0.7662(4) 0.5094(3)
F7_9 F 0.9685(3) 0.8352(4) 0.5685(5)
B2_10 B 0.5152(3) 0.7010(3) 0.4414(3)
F5_10 F 0.5647(3) 0.6682(4) 0.4491(4)
F6_10 F 0.5225(4) 0.7375(4) 0.3943(4)
F7_10 F 0.4685(3) 0.6648(4) 0.4315(5)
F8_10 F 0.5050(4) 0.7338(4) 0.4906(3)
F7_11 F 0.0315(3) 0.3352(4) 0.9315(5)
B2_11 B 0.9848(3) 0.2990(3) 0.9414(3)
F5_11 F 0.9353(3) 0.3318(4) 0.9491(4)
F6_11 F 0.9775(4) 0.2625(4) 0.8943(4)
F8_11 F 0.9950(4) 0.2662(4) 0.9906(3)
B2_12 B 0.4848(3) 0.2010(3) 0.0586(3)
F5_12 F 0.4353(3) 0.1682(4) 0.0509(4)
F6_12 F 0.4775(4) 0.2375(4) 0.1057(4)
F7_12 F 0.5315(3) 0.1648(4) 0.0685(5)
F8_12 F 0.4950(4) 0.2338(4) 0.0094(3)
loop_
_geom_bond_atom_site_label_1
_geom_bond_atom_site_label_2
_geom_bond_site_symmetry_1
_geom_bond_site_symmetry_2
Ni1 N1 1_555 1_555
N1 C1 1_555 1_555
C1 C2 1_555 1_555
C2 H1 1_555 1_555
C3 C2 1_555 1_555
H2 C3 1_555 1_555
C4 C3 1_555 1_555
H3 C4 1_555 1_555
C5 N1 1_555 1_555
H4 C5 1_555 1_555
N3 Ni1 1_555 1_555
C6 C1 1_555 1_555
Ni2 N5 1_555 1_555
N5 C21 1_555 1_555
N7 Ni1 1_555 1_555
N8 Ni1 1_555 1_555
C21 C23 1_555 1_555
C23 H15 1_555 1_555
C25 C23 1_555 1_555
H17 C25 1_555 1_555
C27 C25 1_555 1_555
H19 C27 1_555 1_555
C29 N5 1_555 1_555
H21 C29 1_555 1_555
N9 N11 1_555 1_555
N11 Ni2 1_555 1_555
N13 Ni1 1_555 1_555
N14 Ni1 1_555 1_555
C31 C21 1_555 1_555
C33 C31 1_555 1_555
H23 C33 1_555 1_555
C35 N9 1_555 1_555
H25 C35 1_555 1_555
C37 N9 1_555 1_555
H27 C37 1_555 1_555
H29 C37 1_555 1_555
C39 C37 1_555 1_555
C41 C39 1_555 1_555
H31 C41 1_555 1_555
C43 C41 1_555 1_555
H33 C43 1_555 1_555
C45 C43 1_555 1_555
C47 C45 1_555 1_555
C49 C39 1_555 1_555
C51 C47 1_555 1_555
C52 C48 1_555 1_555
H35 C51 1_555 1_555
H36 C52 1_555 1_555
C53 C51 1_555 1_555
C54 C52 1_555 1_555
H37 C53 1_555 1_555
H38 C54 1_555 1_555
C55 C53 1_555 1_555
C56 C54 1_555 1_555
H39 C55 1_555 1_555
H40 C56 1_555 1_555
C57 C49 1_555 1_555
C58 C50 1_555 1_555
H41 C57 1_555 1_555
H42 C58 1_555 1_555
C59 C45 1_555 1_555
N15 Ag1 1_555 1_555
C4 C5 1_555 1_555
N3 C6 1_555 1_555
C27 C29 1_555 1_555
N11 C31 1_555 1_555
C33 C35 1_555 1_555
C47 C49 1_555 1_555
C48 C50 1_555 1_555
C55 C57 1_555 1_555
C56 C58 1_555 1_555
C59 N15 1_555 1_555
H5 C7 1_555 1_555
C8 N2 1_555 1_555
H6 C8 1_555 1_555
C9 N2 1_555 1_555
H7 C9 1_555 1_555
H8 C9 1_555 1_555
C10 C9 1_555 1_555
C11 C10 1_555 1_555
H9 C11 1_555 1_555
C12 C11 1_555 1_555
H10 C12 1_555 1_555
C13 C12 1_555 1_555
C14 C13 1_555 1_555
C15 C10 1_555 1_555
C16 C14 1_555 1_555
H11 C16 1_555 1_555
C17 C16 1_555 1_555
H12 C17 1_555 1_555
C18 C17 1_555 1_555
H13 C18 1_555 1_555
C19 C15 1_555 1_555
H14 C19 1_555 1_555
C20 C13 1_555 1_555
N4 C20 1_555 1_555
Ni3 N6 1_555 1_555
N6 C22 1_555 1_555
C22 C24 1_555 1_555
C24 H16 1_555 1_555
C26 C24 1_555 1_555
H18 C26 1_555 1_555
C28 C26 1_555 1_555
H20 C28 1_555 1_555
C30 N6 1_555 1_555
H22 C30 1_555 1_555
N10 N12 1_555 1_555
N12 Ni3 1_555 1_555
C32 C22 1_555 1_555
C34 C32 1_555 1_555
H24 C34 1_555 1_555
C36 N10 1_555 1_555
H26 C36 1_555 1_555
C38 N10 1_555 1_555
H28 C38 1_555 1_555
H30 C38 1_555 1_555
C40 C38 1_555 1_555
C42 C40 1_555 1_555
H32 C42 1_555 1_555
C44 C42 1_555 1_555
H34 C44 1_555 1_555
C46 C44 1_555 1_555
C60 C46 1_555 1_555
C7 C8 1_555 1_555
C14 C15 1_555 1_555
C18 C19 1_555 1_555
C28 C30 1_555 1_555
N12 C32 1_555 1_555
C34 C36 1_555 1_555
C60 N16 1_555 1_555
C16_2 C14_2 1_555 1_555
H11_2 C16_2 1_555 1_555
C17_2 C16_2 1_555 1_555
H12_2 C17_2 1_555 1_555
C18_2 C17_2 1_555 1_555
H13_2 C18_2 1_555 1_555
C19_2 C15_2 1_555 1_555
H14_2 C19_2 1_555 1_555
Ni3 N5_2 1_555 1_555
Ni2 N6_2 1_555 1_555
N5_2 C21_2 1_555 1_555
N6_2 C22_2 1_555 1_555
C21_2 C23_2 1_555 1_555
C22_2 C24_2 1_555 1_555
C23_2 H15_2 1_555 1_555
C24_2 H16_2 1_555 1_555
C25_2 C23_2 1_555 1_555
C26_2 C24_2 1_555 1_555
H17_2 C25_2 1_555 1_555
H18_2 C26_2 1_555 1_555
C27_2 C25_2 1_555 1_555
C28_2 C26_2 1_555 1_555
H19_2 C27_2 1_555 1_555
H20_2 C28_2 1_555 1_555
C29_2 N5_2 1_555 1_555
C30_2 N6_2 1_555 1_555
H21_2 C29_2 1_555 1_555
H22_2 C30_2 1_555 1_555
N10_2 N12_2 1_555 1_555
N11_2 Ni3 1_555 1_555
N12_2 Ni2 1_555 1_555
C31_2 C21_2 1_555 1_555
C32_2 C22_2 1_555 1_555
C34_2 C32_2 1_555 1_555
H24_2 C34_2 1_555 1_555
C36_2 N10_2 1_555 1_555
H26_2 C36_2 1_555 1_555
C38_2 N10_2 1_555 1_555
H28_2 C38_2 1_555 1_555
H30_2 C38_2 1_555 1_555
C40_2 C38_2 1_555 1_555
C42_2 C40_2 1_555 1_555
H32_2 C42_2 1_555 1_555
C44_2 C42_2 1_555 1_555
H34_2 C44_2 1_555 1_555
C46_2 C44_2 1_555 1_555
C48_2 C46_2 1_555 1_555
C50_2 C40_2 1_555 1_555
C52_2 C48_2 1_555 1_555
H36_2 C52_2 1_555 1_555
C54_2 C52_2 1_555 1_555
H38_2 C54_2 1_555 1_555
C56_2 C54_2 1_555 1_555
H40_2 C56_2 1_555 1_555
C58_2 C50_2 1_555 1_555
H42_2 C58_2 1_555 1_555
C60_2 C46_2 1_555 1_555
N16_2 Ag1_2 1_555 1_555
C14_2 C15_2 1_555 1_555
C18_2 C19_2 1_555 1_555
C27_2 C29_2 1_555 1_555
C28_2 C30_2 1_555 1_555
N11_2 C31_2 1_555 1_555
N12_2 C32_2 1_555 1_555
C34_2 C36_2 1_555 1_555
C48_2 C50_2 1_555 1_555
C56_2 C58_2 1_555 1_555
C60_2 N16_2 1_555 1_555
Ni1_2 N1_2 1_555 1_555
N1_2 C1_2 1_555 1_555
C1_2 C2_2 1_555 1_555
C2_2 H1_2 1_555 1_555
C3_2 C2_2 1_555 1_555
H2_2 C3_2 1_555 1_555
C4_2 C3_2 1_555 1_555
H3_2 C4_2 1_555 1_555
C5_2 N1_2 1_555 1_555
H4_2 C5_2 1_555 1_555
N2_2 N3_2 1_555 1_555
N3_2 Ni1_2 1_555 1_555
C6_2 C1_2 1_555 1_555
C7_2 C6_2 1_555 1_555
H5_2 C7_2 1_555 1_555
C8_2 N2_2 1_555 1_555
H6_2 C8_2 1_555 1_555
C9_2 N2_2 1_555 1_555
H7_2 C9_2 1_555 1_555
H8_2 C9_2 1_555 1_555
C10_2 C9_2 1_555 1_555
C11_2 C10_2 1_555 1_555
H9_2 C11_2 1_555 1_555
C12_2 C11_2 1_555 1_555
H10_2 C12_2 1_555 1_555
C13_2 C12_2 1_555 1_555
C20_2 C13_2 1_555 1_555
N4_2 C20_2 1_555 1_555
N7_2 Ni1_2 1_555 1_555
N8_2 Ni1_2 1_555 1_555
N13_2 Ni1_2 1_555 1_555
N14_2 Ni1_2 1_555 1_555
H23_2 C33_2 1_555 1_555
C35_2 N9_2 1_555 1_555
H25_2 C35_2 1_555 1_555
C37_2 N9_2 1_555 1_555
H27_2 C37_2 1_555 1_555
H29_2 C37_2 1_555 1_555
C39_2 C37_2 1_555 1_555
C41_2 C39_2 1_555 1_555
H31_2 C41_2 1_555 1_555
C43_2 C41_2 1_555 1_555
H33_2 C43_2 1_555 1_555
C45_2 C43_2 1_555 1_555
C47_2 C45_2 1_555 1_555
C49_2 C39_2 1_555 1_555
C51_2 C47_2 1_555 1_555
H35_2 C51_2 1_555 1_555
C53_2 C51_2 1_555 1_555
H37_2 C53_2 1_555 1_555
C55_2 C53_2 1_555 1_555
H39_2 C55_2 1_555 1_555
C57_2 C49_2 1_555 1_555
H41_2 C57_2 1_555 1_555
C59_2 C45_2 1_555 1_555
C4_2 C5_2 1_555 1_555
N3_2 C6_2 1_555 1_555
C7_2 C8_2 1_555 1_555
C33_2 C35_2 1_555 1_555
C47_2 C49_2 1_555 1_555
C55_2 C57_2 1_555 1_555
C59_2 N15_2 1_555 1_555
Ni3 N1_3 1_555 1_555
N1_3 C1_3 1_555 1_555
C1_3 C2_3 1_555 1_555
C2_3 H1_3 1_555 1_555
C3_3 C2_3 1_555 1_555
H2_3 C3_3 1_555 1_555
C4_3 C3_3 1_555 1_555
H3_3 C4_3 1_555 1_555
C5_3 N1_3 1_555 1_555
H4_3 C5_3 1_555 1_555
N3_3 Ni3 1_555 1_555
C6_3 C1_3 1_555 1_555
C51_3 C47_3 1_555 1_555
H35_3 C51_3 1_555 1_555
C53_3 C51_3 1_555 1_555
H37_3 C53_3 1_555 1_555
C55_3 C53_3 1_555 1_555
H39_3 C55_3 1_555 1_555
C57_3 C49_3 1_555 1_555
H41_3 C57_3 1_555 1_555
C4_3 C5_3 1_555 1_555
N3_3 C6_3 1_555 1_555
C47_3 C49_3 1_555 1_555
C55_3 C57_3 1_555 1_555
N7_2 C21_3 1_555 1_555
C21_3 C23_3 1_555 1_555
C23_3 H15_3 1_555 1_555
C25_3 C23_3 1_555 1_555
H17_3 C25_3 1_555 1_555
C27_3 C25_3 1_555 1_555
H19_3 C27_3 1_555 1_555
C29_3 N7_2 1_555 1_555
H21_3 C29_3 1_555 1_555
C31_3 C21_3 1_555 1_555
C52_3 C48_3 1_555 1_555
H36_3 C52_3 1_555 1_555
C54_3 C52_3 1_555 1_555
H38_3 C54_3 1_555 1_555
C56_3 C54_3 1_555 1_555
H40_3 C56_3 1_555 1_555
C58_3 C50_3 1_555 1_555
H42_3 C58_3 1_555 1_555
C27_3 C29_3 1_555 1_555
N13_2 C31_3 1_555 1_555
C48_3 C50_3 1_555 1_555
C56_3 C58_3 1_555 1_555
C16_3 C14_3 1_555 1_555
H11_3 C16_3 1_555 1_555
C17_3 C16_3 1_555 1_555
H12_3 C17_3 1_555 1_555
C18_3 C17_3 1_555 1_555
H13_3 C18_3 1_555 1_555
C19_3 C15_3 1_555 1_555
H14_3 C19_3 1_555 1_555
N8 C22_3 1_555 1_555
C22_3 C24_3 1_555 1_555
C24_3 H16_3 1_555 1_555
C26_3 C24_3 1_555 1_555
H18_3 C26_3 1_555 1_555
C28_3 C26_3 1_555 1_555
H20_3 C28_3 1_555 1_555
C30_3 N8 1_555 1_555
H22_3 C30_3 1_555 1_555
C32_3 C22_3 1_555 1_555
C14_3 C15_3 1_555 1_555
C18_3 C19_3 1_555 1_555
C28_3 C30_3 1_555 1_555
N14 C32_3 1_555 1_555
Ag1_3 N4_3 1_555 1_555
Ni2 N1_4 1_555 1_555
N1_4 C1_4 1_555 1_555
C1_4 C2_4 1_555 1_555
C2_4 H1_4 1_555 1_555
C3_4 C2_4 1_555 1_555
H2_4 C3_4 1_555 1_555
C4_4 C3_4 1_555 1_555
H3_4 C4_4 1_555 1_555
C5_4 N1_4 1_555 1_555
H4_4 C5_4 1_555 1_555
N2_3 N3_4 1_555 1_555
N3_4 Ni2 1_555 1_555
C6_4 C1_4 1_555 1_555
C7_3 C6_4 1_555 1_555
H5_3 C7_3 1_555 1_555
C8_3 N2_3 1_555 1_555
H6_3 C8_3 1_555 1_555
C9_3 N2_3 1_555 1_555
H7_3 C9_3 1_555 1_555
H8_3 C9_3 1_555 1_555
C10_3 C9_3 1_555 1_555
C11_3 C10_3 1_555 1_555
H9_3 C11_3 1_555 1_555
C12_3 C11_3 1_555 1_555
H10_3 C12_3 1_555 1_555
C13_3 C12_3 1_555 1_555
C14_4 C13_3 1_555 1_555
C15_4 C10_3 1_555 1_555
C16_4 C14_4 1_555 1_555
H11_4 C16_4 1_555 1_555
C17_4 C16_4 1_555 1_555
H12_4 C17_4 1_555 1_555
C18_4 C17_4 1_555 1_555
H13_4 C18_4 1_555 1_555
C19_4 C15_4 1_555 1_555
H14_4 C19_4 1_555 1_555
C20_3 C13_3 1_555 1_555
N4_3 C20_3 1_555 1_555
N8_2 C22_4 1_555 1_555
C22_4 C24_4 1_555 1_555
C24_4 H16_4 1_555 1_555
C26_4 C24_4 1_555 1_555
H18_4 C26_4 1_555 1_555
C28_4 C26_4 1_555 1_555
H20_4 C28_4 1_555 1_555
C30_4 N8_2 1_555 1_555
H22_4 C30_4 1_555 1_555
C32_4 C22_4 1_555 1_555
C51_4 C47_4 1_555 1_555
H35_4 C51_4 1_555 1_555
C53_4 C51_4 1_555 1_555
H37_4 C53_4 1_555 1_555
C55_4 C53_4 1_555 1_555
H39_4 C55_4 1_555 1_555
C57_4 C49_4 1_555 1_555
H41_4 C57_4 1_555 1_555
C4_4 C5_4 1_555 1_555
N3_4 C6_4 1_555 1_555
C7_3 C8_3 1_555 1_555
C14_4 C15_4 1_555 1_555
C18_4 C19_4 1_555 1_555
C28_4 C30_4 1_555 1_555
N14_2 C32_4 1_555 1_555
C47_4 C49_4 1_555 1_555
C55_4 C57_4 1_555 1_555
N7 C21_4 1_555 1_555
C21_4 C23_4 1_555 1_555
C23_4 H15_4 1_555 1_555
C25_4 C23_4 1_555 1_555
H17_4 C25_4 1_555 1_555
C27_4 C25_4 1_555 1_555
H19_4 C27_4 1_555 1_555
C29_4 N7 1_555 1_555
H21_4 C29_4 1_555 1_555
N9_3 N13 1_555 1_555
C31_4 C21_4 1_555 1_555
C33_3 C31_4 1_555 1_555
H23_3 C33_3 1_555 1_555
H24_3 C34_3 1_555 1_555
C35_3 N9_3 1_555 1_555
C36_3 N10_3 1_555 1_555
H25_3 C35_3 1_555 1_555
H26_3 C36_3 1_555 1_555
C37_3 N9_3 1_555 1_555
C38_3 N10_3 1_555 1_555
H27_3 C37_3 1_555 1_555
H28_3 C38_3 1_555 1_555
H29_3 C37_3 1_555 1_555
H30_3 C38_3 1_555 1_555
C39_3 C37_3 1_555 1_555
C40_3 C38_3 1_555 1_555
C41_3 C39_3 1_555 1_555
C42_3 C40_3 1_555 1_555
H31_3 C41_3 1_555 1_555
H32_3 C42_3 1_555 1_555
C43_3 C41_3 1_555 1_555
C44_3 C42_3 1_555 1_555
H33_3 C43_3 1_555 1_555
H34_3 C44_3 1_555 1_555
C45_3 C43_3 1_555 1_555
C46_3 C44_3 1_555 1_555
C48_4 C46_3 1_555 1_555
C50_4 C40_3 1_555 1_555
C52_4 C48_4 1_555 1_555
H36_4 C52_4 1_555 1_555
C54_4 C52_4 1_555 1_555
H38_4 C54_4 1_555 1_555
C56_4 C54_4 1_555 1_555
H40_4 C56_4 1_555 1_555
C58_4 C50_4 1_555 1_555
H42_4 C58_4 1_555 1_555
C59_3 C45_3 1_555 1_555
C60_3 C46_3 1_555 1_555
C27_4 C29_4 1_555 1_555
N13 C31_4 1_555 1_555
C33_3 C35_3 1_555 1_555
C34_3 C36_3 1_555 1_555
C48_4 C50_4 1_555 1_555
C56_4 C58_4 1_555 1_555
C59_3 N15_3 1_555 1_555
C60_3 N16_3 1_555 1_555
H23_4 C33_4 1_555 1_555
C35_4 N9_4 1_555 1_555
H25_4 C35_4 1_555 1_555
C37_4 N9_4 1_555 1_555
H27_4 C37_4 1_555 1_555
H29_4 C37_4 1_555 1_555
C39_4 C37_4 1_555 1_555
C41_4 C39_4 1_555 1_555
H31_4 C41_4 1_555 1_555
C43_4 C41_4 1_555 1_555
H33_4 C43_4 1_555 1_555
C45_4 C43_4 1_555 1_555
C59_4 C45_4 1_555 1_555
C33_4 C35_4 1_555 1_555
C59_4 N15_4 1_555 1_555
H5_4 C7_4 1_555 1_555
C8_4 N2_4 1_555 1_555
H6_4 C8_4 1_555 1_555
C9_4 N2_4 1_555 1_555
H7_4 C9_4 1_555 1_555
H8_4 C9_4 1_555 1_555
C10_4 C9_4 1_555 1_555
C11_4 C10_4 1_555 1_555
H9_4 C11_4 1_555 1_555
C12_4 C11_4 1_555 1_555
H10_4 C12_4 1_555 1_555
C13_4 C12_4 1_555 1_555
C20_4 C13_4 1_555 1_555
N4_4 C20_4 1_555 1_555
C7_4 C8_4 1_555 1_555
H24_4 C34_4 1_555 1_555
C36_4 N10_4 1_555 1_555
H26_4 C36_4 1_555 1_555
C38_4 N10_4 1_555 1_555
H28_4 C38_4 1_555 1_555
H30_4 C38_4 1_555 1_555
C40_4 C38_4 1_555 1_555
C42_4 C40_4 1_555 1_555
H32_4 C42_4 1_555 1_555
C44_4 C42_4 1_555 1_555
H34_4 C44_4 1_555 1_555
C46_4 C44_4 1_555 1_555
C60_4 C46_4 1_555 1_555
C34_4 C36_4 1_555 1_555
C60_4 N16_4 1_555 1_555
C81 C83 1_555 1_555
C83 H57 1_555 1_555
C85 C83 1_555 1_555
H59 C85 1_555 1_555
C87 C85 1_555 1_555
H61 C87 1_555 1_555
C87 C89 1_555 1_555
C82 C84 1_555 1_555
C84 H58 1_555 1_555
C86 C84 1_555 1_555
H60 C86 1_555 1_555
C88 C86 1_555 1_555
H62 C88 1_555 1_555
C88 C90 1_555 1_555
C61 C62 1_555 1_555
C62 H43 1_555 1_555
C63 C62 1_555 1_555
H44 C63 1_555 1_555
C64 C63 1_555 1_555
H45 C64 1_555 1_555
C64 C65 1_555 1_555
Ag2 N20 1_555 1_555
Ni4 N17 1_555 1_555
N18 N19 1_555 1_555
N19 Ni4 1_555 1_555
C67 C66 1_555 1_555
C68 N18 1_555 1_555
H48 C68 1_555 1_555
C69 N18 1_555 1_555
H49 C69 1_555 1_555
H50 C69 1_555 1_555
C70 C69 1_555 1_555
C71 C70 1_555 1_555
H51 C71 1_555 1_555
C72 C71 1_555 1_555
H52 C72 1_555 1_555
C73 C72 1_555 1_555
C74 C73 1_555 1_555
C75 C70 1_555 1_555
C76 C74 1_555 1_555
H53 C76 1_555 1_555
C77 C76 1_555 1_555
H54 C77 1_555 1_555
C78 C77 1_555 1_555
H55 C78 1_555 1_555
C79 C75 1_555 1_555
H56 C79 1_555 1_555
C80 C73 1_555 1_555
N20 C80 1_555 1_555
Ni5 N21 1_555 1_555
Ni6 N22 1_555 1_555
N23 Ni4 1_555 1_555
N24 Ni4 1_555 1_555
N25 N27 1_555 1_555
N26 N28 1_555 1_555
N27 Ni5 1_555 1_555
N28 Ni6 1_555 1_555
N29 Ni4 1_555 1_555
N30 Ni4 1_555 1_555
C93 C91 1_555 1_555
C94 C92 1_555 1_555
C95 N25 1_555 1_555
C96 N26 1_555 1_555
H67 C95 1_555 1_555
H68 C96 1_555 1_555
C97 N25 1_555 1_555
C98 N26 1_555 1_555
H69 C97 1_555 1_555
H70 C98 1_555 1_555
H71 C97 1_555 1_555
H72 C98 1_555 1_555
C99 C97 1_555 1_555
C100 C98 1_555 1_555
C101 C99 1_555 1_555
C102 C100 1_555 1_555
H73 C101 1_555 1_555
H74 C102 1_555 1_555
C103 C101 1_555 1_555
C104 C102 1_555 1_555
H75 C103 1_555 1_555
H76 C104 1_555 1_555
C105 C103 1_555 1_555
C106 C104 1_555 1_555
C107 C105 1_555 1_555
C108 C106 1_555 1_555
C109 C99 1_555 1_555
C110 C100 1_555 1_555
C111 C107 1_555 1_555
C112 C108 1_555 1_555
H77 C111 1_555 1_555
H78 C112 1_555 1_555
C113 C111 1_555 1_555
C114 C112 1_555 1_555
H79 C113 1_555 1_555
H80 C114 1_555 1_555
C115 C113 1_555 1_555
C116 C114 1_555 1_555
H81 C115 1_555 1_555
H82 C116 1_555 1_555
C117 C109 1_555 1_555
C118 C110 1_555 1_555
H83 C117 1_555 1_555
H84 C118 1_555 1_555
C119 C105 1_555 1_555
C120 C106 1_555 1_555
N31 Ag2 1_555 1_555
N32 Ag2 1_555 1_555
N19 C66 1_555 1_555
C67 C68 1_555 1_555
C74 C75 1_555 1_555
C78 C79 1_555 1_555
N27 C91 1_555 1_555
N28 C92 1_555 1_555
C93 C95 1_555 1_555
C94 C96 1_555 1_555
C107 C109 1_555 1_555
C108 C110 1_555 1_555
C115 C117 1_555 1_555
C116 C118 1_555 1_555
C119 N31 1_555 1_555
C120 N32 1_555 1_555
Ag2_2 N20_2 1_555 1_555
Ni5 N17_2 1_555 1_555
N17_2 C61_2 1_555 1_555
C61_2 C62_2 1_555 1_555
C62_2 H43_2 1_555 1_555
C63_2 C62_2 1_555 1_555
H44_2 C63_2 1_555 1_555
C64_2 C63_2 1_555 1_555
H45_2 C64_2 1_555 1_555
C65_2 N17_2 1_555 1_555
H46_2 C65_2 1_555 1_555
N18_2 N19_2 1_555 1_555
N19_2 Ni5 1_555 1_555
C66_2 C61_2 1_555 1_555
C67_2 C66_2 1_555 1_555
H47_2 C67_2 1_555 1_555
C68_2 N18_2 1_555 1_555
H48_2 C68_2 1_555 1_555
C69_2 N18_2 1_555 1_555
H49_2 C69_2 1_555 1_555
H50_2 C69_2 1_555 1_555
C70_2 C69_2 1_555 1_555
C71_2 C70_2 1_555 1_555
H51_2 C71_2 1_555 1_555
C72_2 C71_2 1_555 1_555
H52_2 C72_2 1_555 1_555
C73_2 C72_2 1_555 1_555
C74_2 C73_2 1_555 1_555
C75_2 C70_2 1_555 1_555
C76_2 C74_2 1_555 1_555
H53_2 C76_2 1_555 1_555
C77_2 C76_2 1_555 1_555
H54_2 C77_2 1_555 1_555
C78_2 C77_2 1_555 1_555
H55_2 C78_2 1_555 1_555
C79_2 C75_2 1_555 1_555
H56_2 C79_2 1_555 1_555
C80_2 C73_2 1_555 1_555
N20_2 C80_2 1_555 1_555
N24_2 Ni5 1_555 1_555
N30_2 Ni5 1_555 1_555
H75_2 C103_2 1_555 1_555
H76_2 C104_2 1_555 1_555
C105_2 C103_2 1_555 1_555
C106_2 C104_2 1_555 1_555
C107_2 C105_2 1_555 1_555
C108_2 C106_2 1_555 1_555
C111_2 C107_2 1_555 1_555
C112_2 C108_2 1_555 1_555
H77_2 C111_2 1_555 1_555
H78_2 C112_2 1_555 1_555
C113_2 C111_2 1_555 1_555
C114_2 C112_2 1_555 1_555
H79_2 C113_2 1_555 1_555
H80_2 C114_2 1_555 1_555
C119_2 C105_2 1_555 1_555
C120_2 C106_2 1_555 1_555
N31_2 Ag2_2 1_555 1_555
N32_2 Ag2_2 1_555 1_555
C64_2 C65_2 1_555 1_555
N19_2 C66_2 1_555 1_555
C67_2 C68_2 1_555 1_555
C74_2 C75_2 1_555 1_555
C78_2 C79_2 1_555 1_555
C119_2 N31_2 1_555 1_555
C120_2 N32_2 1_555 1_555
N23 C81_2 1_555 1_555
C81_2 C83_2 1_555 1_555
C83_2 H57_2 1_555 1_555
C85_2 C83_2 1_555 1_555
H59_2 C85_2 1_555 1_555
C87_2 C85_2 1_555 1_555
H61_2 C87_2 1_555 1_555
C89_2 N23 1_555 1_555
H63_2 C89_2 1_555 1_555
N25_2 N29 1_555 1_555
C91_2 C81_2 1_555 1_555
C93_2 C91_2 1_555 1_555
H65_2 C93_2 1_555 1_555
C95_2 N25_2 1_555 1_555
H67_2 C95_2 1_555 1_555
C97_2 N25_2 1_555 1_555
H69_2 C97_2 1_555 1_555
H71_2 C97_2 1_555 1_555
C99_2 C97_2 1_555 1_555
C101_2 C99_2 1_555 1_555
H73_2 C101_2 1_555 1_555
C109_2 C99_2 1_555 1_555
H81_2 C115_2 1_555 1_555
C117_2 C109_2 1_555 1_555
H83_2 C117_2 1_555 1_555
C87_2 C89_2 1_555 1_555
N29 C91_2 1_555 1_555
C93_2 C95_2 1_555 1_555
C115_2 C117_2 1_555 1_555
Ag2_3 N20_3 1_555 1_555
H52_3 C72_3 1_555 1_555
C73_3 C72_3 1_555 1_555
C74_3 C73_3 1_555 1_555
C76_3 C74_3 1_555 1_555
H53_3 C76_3 1_555 1_555
C77_3 C76_3 1_555 1_555
H54_3 C77_3 1_555 1_555
C80_3 C73_3 1_555 1_555
N20_3 C80_3 1_555 1_555
Ni6 N21_2 1_555 1_555
N21_2 C81_3 1_555 1_555
C81_3 C83_3 1_555 1_555
C83_3 H57_3 1_555 1_555
C85_3 C83_3 1_555 1_555
H59_3 C85_3 1_555 1_555
C87_3 C85_3 1_555 1_555
H61_3 C87_3 1_555 1_555
C89_3 N21_2 1_555 1_555
H63_3 C89_3 1_555 1_555
N25_3 N27_2 1_555 1_555
N27_2 Ni6 1_555 1_555
C91_3 C81_3 1_555 1_555
C93_3 C91_3 1_555 1_555
H65_3 C93_3 1_555 1_555
C95_3 N25_3 1_555 1_555
H67_3 C95_3 1_555 1_555
C97_3 N25_3 1_555 1_555
H69_3 C97_3 1_555 1_555
H71_3 C97_3 1_555 1_555
C99_3 C97_3 1_555 1_555
C101_3 C99_3 1_555 1_555
H73_3 C101_3 1_555 1_555
C103_3 C101_3 1_555 1_555
H75_3 C103_3 1_555 1_555
H76_3 C104_3 1_555 1_555
C105_3 C103_3 1_555 1_555
C106_3 C104_3 1_555 1_555
C107_3 C105_3 1_555 1_555
C108_3 C106_3 1_555 1_555
C109_3 C99_3 1_555 1_555
C111_3 C107_3 1_555 1_555
C112_3 C108_3 1_555 1_555
H77_3 C111_3 1_555 1_555
H78_3 C112_3 1_555 1_555
C113_3 C111_3 1_555 1_555
C114_3 C112_3 1_555 1_555
H79_3 C113_3 1_555 1_555
H80_3 C114_3 1_555 1_555
C115_3 C113_3 1_555 1_555
H81_3 C115_3 1_555 1_555
C117_3 C109_3 1_555 1_555
H83_3 C117_3 1_555 1_555
C119_3 C105_3 1_555 1_555
C120_3 C106_3 1_555 1_555
N31_3 Ag2_3 1_555 1_555
N32_3 Ag2_3 1_555 1_555
C87_3 C89_3 1_555 1_555
N27_2 C91_3 1_555 1_555
C93_3 C95_3 1_555 1_555
C107_3 C109_3 1_555 1_555
C115_3 C117_3 1_555 1_555
C119_3 N31_3 1_555 1_555
C120_3 N32_3 1_555 1_555
N24_2 C82_2 1_555 1_555
C82_2 C84_2 1_555 1_555
C84_2 H58_2 1_555 1_555
C86_2 C84_2 1_555 1_555
H60_2 C86_2 1_555 1_555
C88_2 C86_2 1_555 1_555
H62_2 C88_2 1_555 1_555
C90_2 N24_2 1_555 1_555
H64_2 C90_2 1_555 1_555
N26_2 N30_2 1_555 1_555
C92_2 C82_2 1_555 1_555
C94_2 C92_2 1_555 1_555
H66_2 C94_2 1_555 1_555
C96_2 N26_2 1_555 1_555
H68_2 C96_2 1_555 1_555
C98_2 N26_2 1_555 1_555
H70_2 C98_2 1_555 1_555
H72_2 C98_2 1_555 1_555
C100_2 C98_2 1_555 1_555
C102_2 C100_2 1_555 1_555
H74_2 C102_2 1_555 1_555
C110_2 C100_2 1_555 1_555
H82_2 C116_2 1_555 1_555
C118_2 C110_2 1_555 1_555
H84_2 C118_2 1_555 1_555
C88_2 C90_2 1_555 1_555
N30_2 C92_2 1_555 1_555
C94_2 C96_2 1_555 1_555
C116_2 C118_2 1_555 1_555
Ag2_4 N20_4 1_555 1_555
H52_4 C72_4 1_555 1_555
C73_4 C72_4 1_555 1_555
C74_4 C73_4 1_555 1_555
C76_4 C74_4 1_555 1_555
H53_4 C76_4 1_555 1_555
C77_4 C76_4 1_555 1_555
H54_4 C77_4 1_555 1_555
C80_4 C73_4 1_555 1_555
N20_4 C80_4 1_555 1_555
N24 C82_3 1_555 1_555
C82_3 C84_3 1_555 1_555
C84_3 H58_3 1_555 1_555
C86_3 C84_3 1_555 1_555
H60_3 C86_3 1_555 1_555
C88_3 C86_3 1_555 1_555
H62_3 C88_3 1_555 1_555
C90_3 N24 1_555 1_555
H64_3 C90_3 1_555 1_555
N26_3 N30 1_555 1_555
C92_3 C82_3 1_555 1_555
C94_3 C92_3 1_555 1_555
H66_3 C94_3 1_555 1_555
C96_3 N26_3 1_555 1_555
H68_3 C96_3 1_555 1_555
C98_3 N26_3 1_555 1_555
H70_3 C98_3 1_555 1_555
H72_3 C98_3 1_555 1_555
C100_3 C98_3 1_555 1_555
C102_3 C100_3 1_555 1_555
H74_3 C102_3 1_555 1_555
C104_4 C102_3 1_555 1_555
H75_4 C103_4 1_555 1_555
H76_4 C104_4 1_555 1_555
C105_4 C103_4 1_555 1_555
C106_4 C104_4 1_555 1_555
C107_4 C105_4 1_555 1_555
C108_4 C106_4 1_555 1_555
C110_3 C100_3 1_555 1_555
C111_4 C107_4 1_555 1_555
C112_4 C108_4 1_555 1_555
H77_4 C111_4 1_555 1_555
H78_4 C112_4 1_555 1_555
C113_4 C111_4 1_555 1_555
C114_4 C112_4 1_555 1_555
H79_4 C113_4 1_555 1_555
H80_4 C114_4 1_555 1_555
C116_3 C114_4 1_555 1_555
H82_3 C116_3 1_555 1_555
C118_3 C110_3 1_555 1_555
H84_3 C118_3 1_555 1_555
C119_4 C105_4 1_555 1_555
C120_4 C106_4 1_555 1_555
N31_4 Ag2_4 1_555 1_555
N32_4 Ag2_4 1_555 1_555
C88_3 C90_3 1_555 1_555
N30 C92_3 1_555 1_555
C94_3 C96_3 1_555 1_555
C108_4 C110_3 1_555 1_555
C116_3 C118_3 1_555 1_555
C119_4 N31_4 1_555 1_555
C120_4 N32_4 1_555 1_555
Ni6 N17_3 1_555 1_555
N17_3 C61_3 1_555 1_555
C61_3 C62_3 1_555 1_555
C62_3 H43_3 1_555 1_555
C63_3 C62_3 1_555 1_555
H44_3 C63_3 1_555 1_555
C64_3 C63_3 1_555 1_555
H45_3 C64_3 1_555 1_555
C65_3 N17_3 1_555 1_555
H46_3 C65_3 1_555 1_555
N18_3 N19_3 1_555 1_555
N19_3 Ni6 1_555 1_555
C66_3 C61_3 1_555 1_555
C67_3 C66_3 1_555 1_555
H47_3 C67_3 1_555 1_555
C68_3 N18_3 1_555 1_555
H48_3 C68_3 1_555 1_555
C69_3 N18_3 1_555 1_555
H49_3 C69_3 1_555 1_555
H50_3 C69_3 1_555 1_555
C70_3 C69_3 1_555 1_555
C71_3 C70_3 1_555 1_555
H51_3 C71_3 1_555 1_555
C75_3 C70_3 1_555 1_555
H55_3 C78_3 1_555 1_555
C79_3 C75_3 1_555 1_555
H56_3 C79_3 1_555 1_555
C64_3 C65_3 1_555 1_555
N19_3 C66_3 1_555 1_555
C67_3 C68_3 1_555 1_555
C78_3 C79_3 1_555 1_555
Ni6_2 N22_2 1_555 1_555
N26_4 N28_2 1_555 1_555
N28_2 Ni6_2 1_555 1_555
C94_4 C92_4 1_555 1_555
C96_4 N26_4 1_555 1_555
H68_4 C96_4 1_555 1_555
C98_4 N26_4 1_555 1_555
H70_4 C98_4 1_555 1_555
H72_4 C98_4 1_555 1_555
C100_4 C98_4 1_555 1_555
C102_4 C100_4 1_555 1_555
H74_4 C102_4 1_555 1_555
C110_4 C100_4 1_555 1_555
H82_4 C116_4 1_555 1_555
C118_4 C110_4 1_555 1_555
H84_4 C118_4 1_555 1_555
N28_2 C92_4 1_555 1_555
C94_4 C96_4 1_555 1_555
C116_4 C118_4 1_555 1_555
Ni6_2 N17_4 1_555 1_555
N18_4 N19_4 1_555 1_555
N19_4 Ni6_2 1_555 1_555
C67_4 C66_4 1_555 1_555
C68_4 N18_4 1_555 1_555
H48_4 C68_4 1_555 1_555
C69_4 N18_4 1_555 1_555
H49_4 C69_4 1_555 1_555
H50_4 C69_4 1_555 1_555
C70_4 C69_4 1_555 1_555
C71_4 C70_4 1_555 1_555
H51_4 C71_4 1_555 1_555
C75_4 C70_4 1_555 1_555
H55_4 C78_4 1_555 1_555
C79_4 C75_4 1_555 1_555
H56_4 C79_4 1_555 1_555
N23_2 Ni6_2 1_555 1_555
N29_2 Ni6_2 1_555 1_555
N19_4 C66_4 1_555 1_555
C67_4 C68_4 1_555 1_555
C78_4 C79_4 1_555 1_555
N25_4 N29_2 1_555 1_555
C93_4 C91_4 1_555 1_555
C95_4 N25_4 1_555 1_555
H67_4 C95_4 1_555 1_555
C97_4 N25_4 1_555 1_555
H69_4 C97_4 1_555 1_555
H71_4 C97_4 1_555 1_555
C99_4 C97_4 1_555 1_555
C101_4 C99_4 1_555 1_555
H73_4 C101_4 1_555 1_555
C109_4 C99_4 1_555 1_555
H81_4 C115_4 1_555 1_555
C117_4 C109_4 1_555 1_555
H83_4 C117_4 1_555 1_555
N29_2 C91_4 1_555 1_555
C93_4 C95_4 1_555 1_555
C115_4 C117_4 1_555 1_555
C82_4 C84_4 1_555 1_555
C84_4 H58_4 1_555 1_555
C86_4 C84_4 1_555 1_555
H60_4 C86_4 1_555 1_555
C88_4 C86_4 1_555 1_555
H62_4 C88_4 1_555 1_555
C88_4 C90_4 1_555 1_555
C61_4 C62_4 1_555 1_555
C62_4 H43_4 1_555 1_555
C63_4 C62_4 1_555 1_555
H44_4 C63_4 1_555 1_555
C64_4 C63_4 1_555 1_555
H45_4 C64_4 1_555 1_555
C64_4 C65_4 1_555 1_555
C81_4 C83_4 1_555 1_555
C83_4 H57_4 1_555 1_555
C85_4 C83_4 1_555 1_555
H59_4 C85_4 1_555 1_555
C87_4 C85_4 1_555 1_555
H61_4 C87_4 1_555 1_555
C87_4 C89_4 1_555 1_555
B1 F1 1_555 1_555
F2 B1 1_555 1_555
F3 B1 1_555 1_555
F4 B1 1_555 1_555
B1_2 F1_2 1_555 1_555
F2_2 B1_2 1_555 1_555
F3_2 B1_2 1_555 1_555
F4_2 B1_2 1_555 1_555
B1_3 F1_3 1_555 1_555
F2_3 B1_3 1_555 1_555
F3_3 B1_3 1_555 1_555
F4_3 B1_3 1_555 1_555
B1_4 F1_4 1_555 1_555
F2_4 B1_4 1_555 1_555
F3_4 B1_4 1_555 1_555
F4_4 B1_4 1_555 1_555
B2 F5 1_555 1_555
F6 B2 1_555 1_555
F8 B2 1_555 1_555
B2_2 F5_2 1_555 1_555
F6_2 B2_2 1_555 1_555
F8_2 B2_2 1_555 1_555
B2_3 F5_3 1_555 1_555
F6_3 B2_3 1_555 1_555
F7_3 B2_3 1_555 1_555
F8_3 B2_3 1_555 1_555
B2_4 F5_4 1_555 1_555
F6_4 B2_4 1_555 1_555
F7_4 B2_4 1_555 1_555
F8_4 B2_4 1_555 1_555
B2_5 F5_5 1_555 1_555
F6_5 B2_5 1_555 1_555
F8_5 B2_5 1_555 1_555
B2_6 F5_6 1_555 1_555
F6_6 B2_6 1_555 1_555
F7_6 B2_6 1_555 1_555
F8_6 B2_6 1_555 1_555
B2_7 F5_7 1_555 1_555
F6_7 B2_7 1_555 1_555
F8_7 B2_7 1_555 1_555
B2_8 F5_8 1_555 1_555
F6_8 B2_8 1_555 1_555
F7_8 B2_8 1_555 1_555
F8_8 B2_8 1_555 1_555
B2_9 F5_9 1_555 1_555
F6_9 B2_9 1_555 1_555
F8_9 B2_9 1_555 1_555
B2_10 F5_10 1_555 1_555
F6_10 B2_10 1_555 1_555
F7_10 B2_10 1_555 1_555
F8_10 B2_10 1_555 1_555
B2_11 F5_11 1_555 1_555
F6_11 B2_11 1_555 1_555
F8_11 B2_11 1_555 1_555
B2_12 F5_12 1_555 1_555
F6_12 B2_12 1_555 1_555
F7_12 B2_12 1_555 1_555
F8_12 B2_12 1_555 1_555

#END
