
###############################################################################
#
# This file contains modified crystal structure data generated from the
# MOF subset of the Cambridge Structural Database (CSD) v543 
# hosted by the Cambridge Crystallographic Data Centre (CCDC).
#
# This work is licensed under the Creative Commons
# Attribution-NonCommercial-ShareAlike 4.0 International License.
# To view a copy of this license, visit
# http://creativecommons.org/licenses/by-nc-sa/4.0/
# or send a letter to
# Creative Commons, PO Box 1866, Mountain View, CA 94042, USA.
#
# CIF created using the CSD Python API on 29 September 2022
# The structure has been converted into the P1 space group
# The structure has a 3D framework
# The original CSD entry DABFIX is in the cubic crystal system
# The original CSD entry DABFIX is in a Sohncke space group
# The framework has been calculated to contain at least 10.0% void space
# The void calculation uses a probe of radius 1.32A, grid spacing 0.4
# The framework is charged, counterions have been retained in the structure
#
###############################################################################

data_DABFIX
_chemical_formula_moiety         '(C480 H336 Ag8 B20 Co8 F80 N96 4+)n'
_symmetry_cell_setting           triclinic
_symmetry_space_group_name_H-M   'P 1'
_symmetry_Int_Tables_number      1
_space_group_name_Hall           'P 1'
loop_
_symmetry_equiv_pos_site_id
_symmetry_equiv_pos_as_xyz
1 x,y,z
_cell_length_a                   23.0538(10)
_cell_length_b                   23.0538(10)
_cell_length_c                   23.0538(10)
_cell_angle_alpha                90
_cell_angle_beta                 90
_cell_angle_gamma                90
_cell_volume                     12252.6
loop_
_atom_site_label
_atom_site_type_symbol
_atom_site_fract_x
_atom_site_fract_y
_atom_site_fract_z
Ag1 Ag 0.00679(8) 0.49321(8) 0.50679(8)
Co1 Co 0.12978(7) 0.87022(7) 0.37022(7)
N1 N 0.2230(4) 0.8835(4) 0.3658(2)
C1 C 0.2515(4) 0.8892(3) 0.4186(3)
C2 C 0.3104(4) 0.9020(3) 0.4198(3)
H1 H 0.3299 0.9059 0.4559
C3 C 0.3408(4) 0.9092(4) 0.3683(2)
H2 H 0.3810 0.9179 0.3691
C4 C 0.3123(4) 0.9035(3) 0.3154(3)
H3 H 0.3330 0.9084 0.2802
C5 C 0.2534(4) 0.8906(3) 0.3142(3)
H4 H 0.2339 0.8867 0.2781
N2 N 0.1346(5) 0.8766(5) 0.5145(5)
N3 N 0.1562(5) 0.8791(5) 0.4598(5)
C6 C 0.2144(6) 0.8864(7) 0.4690(6)
C7 C 0.2271(7) 0.8896(6) 0.5285(6)
H5 H 0.2639 0.8936 0.5466
C8 C 0.1741(7) 0.8858(6) 0.5539(6)
H6 H 0.1669 0.8892 0.5944
C9 C 0.0741(7) 0.8634(6) 0.5249(6)
H7 H 0.0512 0.8771 0.4912
H8 H 0.0611 0.8857 0.5592
C10 C 0.0606(3) 0.8011(2) 0.5347(4)
C11 C 0.1063(2) 0.7620(3) 0.5378(4)
H9 H 0.1452 0.7755 0.5359
C12 C 0.0952(3) 0.7030(3) 0.5438(4)
H10 H 0.1265 0.6763 0.5459
C13 C 0.0383(3) 0.6832(2) 0.5466(4)
C15 C 0.0037(3) 0.7813(3) 0.5375(4)
C20 C 0.0326(7) 0.6202(7) 0.5529(7)
N4 N 0.0283(6) 0.5709(5) 0.5578(5)
N7 N 0.1342(2) 0.7770(4) 0.3835(4)
N8 N 0.1165(4) 0.8658(2) 0.2770(4)
N9 N 0.0145(5) 0.3654(5) 0.1234(5)
N13 N 0.0402(5) 0.8438(5) 0.3791(5)
N14 N 0.1209(5) 0.9598(5) 0.3438(5)
C33 C 0.0285(6) 0.2729(7) 0.1104(6)
H23 H 0.0466 0.2361 0.1064
C35 C 0.0539(6) 0.3259(7) 0.1142(6)
H25 H 0.0944 0.3331 0.1108
C37 C 0.0249(6) 0.4259(7) 0.1366(6)
H29 H 0.0592 0.4389 0.1143
C39 C 0.0347(4) 0.4394(3) 0.1989(2)
C41 C 0.0378(4) 0.3937(2) 0.2380(3)
H31 H 0.0359 0.3548 0.2245
C43 C 0.0438(4) 0.4048(3) 0.2970(3)
H33 H 0.0459 0.3735 0.3237
C45 C 0.0466(4) 0.4617(3) 0.3168(2)
C47 C 0.0435(4) 0.5074(2) 0.2777(3)
C49 C 0.0375(4) 0.4963(3) 0.2187(3)
C51 C 0.0462(6) 0.5640(3) 0.2984(3)
H35 H 0.0523 0.5709 0.3385
C53 C 0.0399(6) 0.6104(3) 0.2604(4)
H37 H 0.0377 0.6490 0.2746
C55 C 0.0369(6) 0.5993(3) 0.2012(4)
H39 H 0.0332 0.6307 0.1748
C57 C 0.0392(6) 0.5424(3) 0.1799(2)
H41 H 0.0419 0.5355 0.1394
C59 C 0.0529(7) 0.4674(7) 0.3798(7)
N15 N 0.0578(5) 0.4717(6) 0.4291(5)
C14 C 0.9926(2) 0.7223(3) 0.5435(4)
C16 C 0.9360(3) 0.7016(3) 0.5462(6)
H11 H 0.9291 0.6615 0.5523
C17 C 0.8896(3) 0.7396(4) 0.5399(6)
H12 H 0.8510 0.7254 0.5377
C18 C 0.9007(3) 0.7988(4) 0.5369(6)
H13 H 0.8693 0.8252 0.5332
C19 C 0.9576(3) 0.8201(2) 0.5392(6)
H14 H 0.9645 0.8606 0.5419
Co2 Co 0.87022(7) 0.37022(7) 0.12978(7)
Co3 Co 0.62978(7) 0.62978(7) 0.62978(7)
N5 N 0.8658(2) 0.2770(4) 0.1165(4)
N6 N 0.6165(4) 0.6342(2) 0.7230(4)
C21 C 0.9186(3) 0.2485(4) 0.1108(3)
C22 C 0.6108(3) 0.5814(3) 0.7515(4)
C23 C 0.9198(3) 0.1896(4) 0.0980(3)
C24 C 0.5980(3) 0.5802(3) 0.8104(4)
H15 H 0.9559 0.1701 0.0941
H16 H 0.5941 0.5441 0.8299
C25 C 0.8683(2) 0.1592(4) 0.0908(4)
C26 C 0.5908(4) 0.6317(2) 0.8408(4)
H17 H 0.8691 0.1190 0.0821
H18 H 0.5821 0.6309 0.8810
C27 C 0.8154(3) 0.1877(4) 0.0965(3)
C28 C 0.5965(3) 0.6846(3) 0.8123(4)
H19 H 0.7802 0.1670 0.0916
H20 H 0.5916 0.7198 0.8330
C29 C 0.8142(3) 0.2466(4) 0.1094(3)
C30 C 0.6094(3) 0.6858(3) 0.7534(4)
H21 H 0.7781 0.2661 0.1133
H22 H 0.6133 0.7219 0.7339
N10 N 0.6234(5) 0.4855(5) 0.6346(5)
N11 N 0.9598(5) 0.3438(5) 0.1209(5)
N12 N 0.6209(5) 0.5402(5) 0.6562(5)
C31 C 0.9690(6) 0.2856(6) 0.1136(7)
C32 C 0.6136(7) 0.5310(6) 0.7144(6)
C34 C 0.6104(6) 0.4715(6) 0.7271(7)
H24 H 0.6064 0.4534 0.7639
C36 C 0.6142(6) 0.4461(6) 0.6741(7)
H26 H 0.6108 0.4056 0.6669
C38 C 0.6366(6) 0.4751(6) 0.5741(7)
H27 H 0.9912 0.4488 0.1229
H28 H 0.6229 0.5088 0.5512
H30 H 0.6143 0.4408 0.5611
C40 C 0.6989(2) 0.4653(4) 0.5606(3)
C42 C 0.7380(3) 0.4622(4) 0.6063(2)
H32 H 0.7245 0.4641 0.6452
C44 C 0.7970(3) 0.4562(4) 0.5952(3)
H34 H 0.8237 0.4541 0.6265
C46 C 0.8168(2) 0.4534(4) 0.5383(3)
C48 C 0.7777(3) 0.4565(4) 0.4926(2)
C50 C 0.7187(3) 0.4625(4) 0.5037(3)
C52 C 0.7984(3) 0.4538(6) 0.4360(3)
H36 H 0.8385 0.4477 0.4291
C54 C 0.7604(4) 0.4601(6) 0.3896(3)
H38 H 0.7746 0.4623 0.3510
C56 C 0.7012(4) 0.4631(6) 0.4007(3)
H40 H 0.6748 0.4668 0.3693
C58 C 0.6799(2) 0.4608(6) 0.4576(3)
H42 H 0.6394 0.4581 0.4645
C60 C 0.8798(7) 0.4471(7) 0.5326(7)
N16 N 0.9291(5) 0.4422(5) 0.5283(6)
Ag1_2 Ag 0.49321(8) 0.50679(8) 0.00679(8)
N2_2 N 0.3654(5) 0.1234(5) 0.0145(5)
C7_2 C 0.2729(7) 0.1104(6) 0.0285(6)
H5_2 H 0.2361 0.1064 0.0466
C8_2 C 0.3259(7) 0.1142(6) 0.0539(6)
H6_2 H 0.3331 0.1108 0.0944
C9_2 C 0.4259(7) 0.1366(6) 0.0249(6)
H8_2 H 0.4389 0.1143 0.0592
C10_2 C 0.4394(3) 0.1989(2) 0.0347(4)
C11_2 C 0.3937(2) 0.2380(3) 0.0378(4)
H9_2 H 0.3548 0.2245 0.0359
C12_2 C 0.4048(3) 0.2970(3) 0.0438(4)
H10_2 H 0.3735 0.3237 0.0459
C13_2 C 0.4617(3) 0.3168(2) 0.0466(4)
C14_2 C 0.5074(2) 0.2777(3) 0.0435(4)
C15_2 C 0.4963(3) 0.2187(3) 0.0375(4)
C16_2 C 0.5640(3) 0.2984(3) 0.0462(6)
H11_2 H 0.5709 0.3385 0.0523
C17_2 C 0.6104(3) 0.2604(4) 0.0399(6)
H12_2 H 0.6490 0.2746 0.0377
C18_2 C 0.5993(3) 0.2012(4) 0.0369(6)
H13_2 H 0.6307 0.1748 0.0332
C19_2 C 0.5424(3) 0.1799(2) 0.0392(6)
H14_2 H 0.5355 0.1394 0.0419
C20_2 C 0.4674(7) 0.3798(7) 0.0529(7)
N4_2 N 0.4717(6) 0.4291(5) 0.0578(5)
N6_2 N 0.8835(4) 0.3658(2) 0.2230(4)
C22_2 C 0.8892(3) 0.4186(3) 0.2515(4)
C24_2 C 0.9020(3) 0.4198(3) 0.3104(4)
H16_2 H 0.9059 0.4559 0.3299
C26_2 C 0.9092(4) 0.3683(2) 0.3408(4)
H18_2 H 0.9179 0.3691 0.3810
C28_2 C 0.9035(3) 0.3154(3) 0.3123(4)
H20_2 H 0.9084 0.2802 0.3330
C30_2 C 0.8906(3) 0.3142(3) 0.2534(4)
H22_2 H 0.8867 0.2781 0.2339
N10_2 N 0.8766(5) 0.5145(5) 0.1346(5)
N12_2 N 0.8791(5) 0.4598(5) 0.1562(5)
C32_2 C 0.8864(7) 0.4690(6) 0.2144(6)
C34_2 C 0.8896(6) 0.5285(6) 0.2271(7)
H24_2 H 0.8936 0.5466 0.2639
C36_2 C 0.8858(6) 0.5539(6) 0.1741(7)
H26_2 H 0.8892 0.5944 0.1669
C38_2 C 0.8634(6) 0.5249(6) 0.0741(7)
H28_2 H 0.8771 0.4912 0.0512
H30_2 H 0.8857 0.5592 0.0611
C40_2 C 0.8011(2) 0.5347(4) 0.0606(3)
C42_2 C 0.7620(3) 0.5378(4) 0.1063(2)
H32_2 H 0.7755 0.5359 0.1452
C44_2 C 0.7030(3) 0.5438(4) 0.0952(3)
H34_2 H 0.6763 0.5459 0.1265
C46_2 C 0.6832(2) 0.5466(4) 0.0383(3)
C50_2 C 0.7813(3) 0.5375(4) 0.0037(3)
C60_2 C 0.6202(7) 0.5529(7) 0.0326(7)
N16_2 N 0.5709(5) 0.5578(5) 0.0283(6)
Co1_2 Co 0.37022(7) 0.12978(7) 0.87022(7)
N1_2 N 0.2770(4) 0.1165(4) 0.8658(2)
C1_2 C 0.2485(4) 0.1108(3) 0.9186(3)
C2_2 C 0.1896(4) 0.0980(3) 0.9198(3)
H1_2 H 0.1701 0.0941 0.9559
C3_2 C 0.1592(4) 0.0908(4) 0.8683(2)
H2_2 H 0.1190 0.0821 0.8691
C4_2 C 0.1877(4) 0.0965(3) 0.8154(3)
H3_2 H 0.1670 0.0916 0.7802
C5_2 C 0.2466(4) 0.1094(3) 0.8142(3)
H4_2 H 0.2661 0.1133 0.7781
N3_2 N 0.3438(5) 0.1209(5) 0.9598(5)
C6_2 C 0.2856(6) 0.1136(7) 0.9690(6)
H7_2 H 0.4488 0.1229 0.9912
N5_2 N 0.6342(2) 0.7230(4) 0.6165(4)
N7_2 N 0.3658(2) 0.2230(4) 0.8835(4)
N8_2 N 0.3835(4) 0.1342(2) 0.7770(4)
C21_2 C 0.5814(3) 0.7515(4) 0.6108(3)
C23_2 C 0.5802(3) 0.8104(4) 0.5980(3)
H15_2 H 0.5441 0.8299 0.5941
C25_2 C 0.6317(2) 0.8408(4) 0.5908(4)
H17_2 H 0.6309 0.8810 0.5821
C27_2 C 0.6846(3) 0.8123(4) 0.5965(3)
H19_2 H 0.7198 0.8330 0.5916
C29_2 C 0.6858(3) 0.7534(4) 0.6094(3)
H21_2 H 0.7219 0.7339 0.6133
N9_2 N 0.4855(5) 0.6346(5) 0.6234(5)
N11_2 N 0.5402(5) 0.6562(5) 0.6209(5)
N13_2 N 0.4598(5) 0.1562(5) 0.8791(5)
N14_2 N 0.3791(5) 0.0402(5) 0.8438(5)
C31_2 C 0.5310(6) 0.7144(6) 0.6136(7)
C33_2 C 0.4715(6) 0.7271(7) 0.6104(6)
H23_2 H 0.4534 0.7639 0.6064
C35_2 C 0.4461(6) 0.6741(7) 0.6142(6)
H25_2 H 0.4056 0.6669 0.6108
C37_2 C 0.4751(6) 0.5741(7) 0.6366(6)
H27_2 H 0.5088 0.5512 0.6229
H29_2 H 0.4408 0.5611 0.6143
C39_2 C 0.4653(4) 0.5606(3) 0.6989(2)
C41_2 C 0.4622(4) 0.6063(2) 0.7380(3)
H31_2 H 0.4641 0.6452 0.7245
C43_2 C 0.4562(4) 0.5952(3) 0.7970(3)
H33_2 H 0.4541 0.6265 0.8237
C45_2 C 0.4534(4) 0.5383(3) 0.8168(2)
C47_2 C 0.4565(4) 0.4926(2) 0.7777(3)
C48_2 C 0.7223(3) 0.5435(4) 0.9926(2)
C49_2 C 0.4625(4) 0.5037(3) 0.7187(3)
C51_2 C 0.4538(6) 0.4360(3) 0.7984(3)
C52_2 C 0.7016(3) 0.5462(6) 0.9360(3)
H35_2 H 0.4477 0.4291 0.8385
H36_2 H 0.6615 0.5523 0.9291
C53_2 C 0.4601(6) 0.3896(3) 0.7604(4)
C54_2 C 0.7396(4) 0.5399(6) 0.8896(3)
H37_2 H 0.4623 0.3510 0.7746
H38_2 H 0.7254 0.5377 0.8510
C55_2 C 0.4631(6) 0.4007(3) 0.7012(4)
C56_2 C 0.7988(4) 0.5369(6) 0.9007(3)
H39_2 H 0.4668 0.3693 0.6748
H40_2 H 0.8252 0.5332 0.8693
C57_2 C 0.4608(6) 0.4576(3) 0.6799(2)
C58_2 C 0.8201(2) 0.5392(6) 0.9576(3)
H41_2 H 0.4581 0.4645 0.6394
H42_2 H 0.8606 0.5419 0.9645
C59_2 C 0.4471(7) 0.5326(7) 0.8798(7)
N15_2 N 0.4422(5) 0.5283(6) 0.9291(5)
C14_3 C 0.0074(2) 0.2223(3) 0.9565(4)
C16_3 C 0.0640(3) 0.2016(3) 0.9538(6)
H11_3 H 0.0709 0.1615 0.9477
C17_3 C 0.1104(3) 0.2396(4) 0.9601(6)
H12_3 H 0.1490 0.2254 0.9623
C18_3 C 0.0993(3) 0.2988(4) 0.9631(6)
H13_3 H 0.1307 0.3252 0.9668
C19_3 C 0.0424(3) 0.3201(2) 0.9608(6)
H14_3 H 0.0355 0.3606 0.9581
C22_3 C 0.3892(3) 0.0814(3) 0.7485(4)
C24_3 C 0.4020(3) 0.0802(3) 0.6896(4)
H16_3 H 0.4059 0.0441 0.6701
C26_3 C 0.4092(4) 0.1317(2) 0.6592(4)
H18_3 H 0.4179 0.1309 0.6190
C28_3 C 0.4035(3) 0.1846(3) 0.6877(4)
H20_3 H 0.4084 0.2198 0.6670
C30_3 C 0.3906(3) 0.1858(3) 0.7466(4)
H22_3 H 0.3867 0.2219 0.7661
C32_3 C 0.3864(7) 0.0310(6) 0.7856(6)
H28_3 H 0.3771 0.0088 0.9488
C21_3 C 0.0814(3) 0.7485(4) 0.3892(3)
C23_3 C 0.0802(3) 0.6896(4) 0.4020(3)
H15_3 H 0.0441 0.6701 0.4059
C25_3 C 0.1317(2) 0.6592(4) 0.4092(4)
H17_3 H 0.1309 0.6190 0.4179
C27_3 C 0.1846(3) 0.6877(4) 0.4035(3)
H19_3 H 0.2198 0.6670 0.4084
C29_3 C 0.1858(3) 0.7466(4) 0.3906(3)
H21_3 H 0.2219 0.7661 0.3867
C31_3 C 0.0310(6) 0.7856(6) 0.3864(7)
H27_3 H 0.0088 0.9488 0.3771
C48_3 C 0.2223(3) 0.9565(4) 0.0074(2)
C52_3 C 0.2016(3) 0.9538(6) 0.0640(3)
H36_3 H 0.1615 0.9477 0.0709
C54_3 C 0.2396(4) 0.9601(6) 0.1104(3)
H38_3 H 0.2254 0.9623 0.1490
C56_3 C 0.2988(4) 0.9631(6) 0.0993(3)
H40_3 H 0.3252 0.9668 0.1307
C58_3 C 0.3201(2) 0.9608(6) 0.0424(3)
H42_3 H 0.3606 0.9581 0.0355
N1_3 N 0.7770(4) 0.3835(4) 0.1342(2)
C1_3 C 0.7485(4) 0.3892(3) 0.0814(3)
C2_3 C 0.6896(4) 0.4020(3) 0.0802(3)
H1_3 H 0.6701 0.4059 0.0441
C3_3 C 0.6592(4) 0.4092(4) 0.1317(2)
H2_3 H 0.6190 0.4179 0.1309
C4_3 C 0.6877(4) 0.4035(3) 0.1846(3)
H3_3 H 0.6670 0.4084 0.2198
C5_3 C 0.7466(4) 0.3906(3) 0.1858(3)
H4_3 H 0.7661 0.3867 0.2219
N3_3 N 0.8438(5) 0.3791(5) 0.0402(5)
C6_3 C 0.7856(6) 0.3864(7) 0.0310(6)
H7_3 H 0.9488 0.3771 0.0088
C47_3 C 0.9565(4) 0.0074(2) 0.2223(3)
C51_3 C 0.9538(6) 0.0640(3) 0.2016(3)
H35_3 H 0.9477 0.0709 0.1615
C53_3 C 0.9601(6) 0.1104(3) 0.2396(4)
H37_3 H 0.9623 0.1490 0.2254
C55_3 C 0.9631(6) 0.0993(3) 0.2988(4)
H39_3 H 0.9668 0.1307 0.3252
C57_3 C 0.9608(6) 0.0424(3) 0.3201(2)
H41_3 H 0.9581 0.0355 0.3606
Ag1_3 Ag 0.50679(8) 0.00679(8) 0.49321(8)
C21_4 C 0.4186(3) 0.2515(4) 0.8892(3)
C23_4 C 0.4198(3) 0.3104(4) 0.9020(3)
H15_4 H 0.4559 0.3299 0.9059
C25_4 C 0.3683(2) 0.3408(4) 0.9092(4)
H17_4 H 0.3691 0.3810 0.9179
C27_4 C 0.3154(3) 0.3123(4) 0.9035(3)
H19_4 H 0.2802 0.3330 0.9084
C29_4 C 0.3142(3) 0.2534(4) 0.8906(3)
H21_4 H 0.2781 0.2339 0.8867
N9_3 N 0.5145(5) 0.1346(5) 0.8766(5)
N10_3 N 0.1234(5) 0.0145(5) 0.3654(5)
C31_4 C 0.4690(6) 0.2144(6) 0.8864(7)
C33_3 C 0.5285(6) 0.2271(7) 0.8896(6)
C34_3 C 0.1104(6) 0.0285(6) 0.2729(7)
H23_3 H 0.5466 0.2639 0.8936
H24_3 H 0.1064 0.0466 0.2361
C35_3 C 0.5539(6) 0.1741(7) 0.8858(6)
C36_3 C 0.1142(6) 0.0539(6) 0.3259(7)
H25_3 H 0.5944 0.1669 0.8892
H26_3 H 0.1108 0.0944 0.3331
C37_3 C 0.5249(6) 0.0741(7) 0.8634(6)
C38_3 C 0.1366(6) 0.0249(6) 0.4259(7)
H27_4 H 0.4912 0.0512 0.8771
H29_3 H 0.5592 0.0611 0.8857
H30_3 H 0.1143 0.0592 0.4389
C39_3 C 0.5347(4) 0.0606(3) 0.8011(2)
C40_3 C 0.1989(2) 0.0347(4) 0.4394(3)
C41_3 C 0.5378(4) 0.1063(2) 0.7620(3)
C42_3 C 0.2380(3) 0.0378(4) 0.3937(2)
H31_3 H 0.5359 0.1452 0.7755
H32_3 H 0.2245 0.0359 0.3548
C43_3 C 0.5438(4) 0.0952(3) 0.7030(3)
C44_3 C 0.2970(3) 0.0438(4) 0.4048(3)
H33_3 H 0.5459 0.1265 0.6763
H34_3 H 0.3237 0.0459 0.3735
C45_3 C 0.5466(4) 0.0383(3) 0.6832(2)
C46_3 C 0.3168(2) 0.0466(4) 0.4617(3)
C48_4 C 0.2777(3) 0.0435(4) 0.5074(2)
C49_3 C 0.5375(4) 0.0037(3) 0.7813(3)
C50_3 C 0.2187(3) 0.0375(4) 0.4963(3)
C52_4 C 0.2984(3) 0.0462(6) 0.5640(3)
H36_4 H 0.3385 0.0523 0.5709
C54_4 C 0.2604(4) 0.0399(6) 0.6104(3)
H38_4 H 0.2746 0.0377 0.6490
C56_4 C 0.2012(4) 0.0369(6) 0.5993(3)
H40_4 H 0.1748 0.0332 0.6307
C58_4 C 0.1799(2) 0.0392(6) 0.5424(3)
H42_4 H 0.1394 0.0419 0.5355
C59_3 C 0.5529(7) 0.0326(7) 0.6202(7)
C60_3 C 0.3798(7) 0.0529(7) 0.4674(7)
N15_3 N 0.5578(5) 0.0283(6) 0.5709(5)
N16_3 N 0.4291(5) 0.0578(5) 0.4717(6)
N1_4 N 0.7230(4) 0.6165(4) 0.6342(2)
C1_4 C 0.7515(4) 0.6108(3) 0.5814(3)
C2_4 C 0.8104(4) 0.5980(3) 0.5802(3)
H1_4 H 0.8299 0.5941 0.5441
C3_4 C 0.8408(4) 0.5908(4) 0.6317(2)
H2_4 H 0.8810 0.5821 0.6309
C4_4 C 0.8123(4) 0.5965(3) 0.6846(3)
H3_4 H 0.8330 0.5916 0.7198
C5_4 C 0.7534(4) 0.6094(3) 0.6858(3)
H4_4 H 0.7339 0.6133 0.7219
N2_3 N 0.6346(5) 0.6234(5) 0.4855(5)
N3_4 N 0.6562(5) 0.6209(5) 0.5402(5)
C6_4 C 0.7144(6) 0.6136(7) 0.5310(6)
C7_3 C 0.7271(7) 0.6104(6) 0.4715(6)
H5_3 H 0.7639 0.6064 0.4534
C8_3 C 0.6741(7) 0.6142(6) 0.4461(6)
H6_3 H 0.6669 0.6108 0.4056
C9_3 C 0.5741(7) 0.6366(6) 0.4751(6)
H7_4 H 0.5512 0.6229 0.5088
H8_3 H 0.5611 0.6143 0.4408
C10_3 C 0.5606(3) 0.6989(2) 0.4653(4)
C11_3 C 0.6063(2) 0.7380(3) 0.4622(4)
H9_3 H 0.6452 0.7245 0.4641
C12_3 C 0.5952(3) 0.7970(3) 0.4562(4)
H10_3 H 0.6265 0.8237 0.4541
C13_3 C 0.5383(3) 0.8168(2) 0.4534(4)
C14_4 C 0.4926(2) 0.7777(3) 0.4565(4)
C15_3 C 0.5037(3) 0.7187(3) 0.4625(4)
C16_4 C 0.4360(3) 0.7984(3) 0.4538(6)
H11_4 H 0.4291 0.8385 0.4477
C17_4 C 0.3896(3) 0.7604(4) 0.4601(6)
H12_4 H 0.3510 0.7746 0.4623
C18_4 C 0.4007(3) 0.7012(4) 0.4631(6)
H13_4 H 0.3693 0.6748 0.4668
C19_4 C 0.4576(3) 0.6799(2) 0.4608(6)
H14_4 H 0.4645 0.6394 0.4581
C20_3 C 0.5326(7) 0.8798(7) 0.4471(7)
N4_3 N 0.5283(6) 0.9291(5) 0.4422(5)
C22_4 C 0.1108(3) 0.9186(3) 0.2485(4)
C24_4 C 0.0980(3) 0.9198(3) 0.1896(4)
H16_4 H 0.0941 0.9559 0.1701
C26_4 C 0.0908(4) 0.8683(2) 0.1592(4)
H18_4 H 0.0821 0.8691 0.1190
C28_4 C 0.0965(3) 0.8154(3) 0.1877(4)
H20_4 H 0.0916 0.7802 0.1670
C30_4 C 0.1094(3) 0.8142(3) 0.2466(4)
H22_4 H 0.1133 0.7781 0.2661
C32_4 C 0.1136(7) 0.9690(6) 0.2856(6)
H28_4 H 0.1229 0.9912 0.4488
C47_4 C 0.5435(4) 0.9926(2) 0.7223(3)
C51_4 C 0.5462(6) 0.9360(3) 0.7016(3)
H35_4 H 0.5523 0.9291 0.6615
C53_4 C 0.5399(6) 0.8896(3) 0.7396(4)
H37_4 H 0.5377 0.8510 0.7254
C55_4 C 0.5369(6) 0.9007(3) 0.7988(4)
H39_4 H 0.5332 0.8693 0.8252
C57_4 C 0.5392(6) 0.9576(3) 0.8201(2)
H41_4 H 0.5419 0.9645 0.8606
N10_4 N 0.3766(5) 0.9855(5) 0.8654(5)
C34_4 C 0.3896(6) 0.9715(6) 0.7729(7)
H24_4 H 0.3936 0.9534 0.7361
C36_4 C 0.3858(6) 0.9461(6) 0.8259(7)
H26_4 H 0.3892 0.9056 0.8331
C38_4 C 0.3634(6) 0.9751(6) 0.9259(7)
H30_4 H 0.3857 0.9408 0.9389
C40_4 C 0.3011(2) 0.9653(4) 0.9394(3)
C42_4 C 0.2620(3) 0.9622(4) 0.8937(2)
H32_4 H 0.2755 0.9641 0.8548
C44_4 C 0.2030(3) 0.9562(4) 0.9048(3)
H34_4 H 0.1763 0.9541 0.8735
C46_4 C 0.1832(2) 0.9534(4) 0.9617(3)
C50_4 C 0.2813(3) 0.9625(4) 0.9963(3)
C60_4 C 0.1202(7) 0.9471(7) 0.9674(7)
N16_4 N 0.0709(5) 0.9422(5) 0.9717(6)
N2_4 N 0.8654(5) 0.3766(5) 0.9855(5)
C7_4 C 0.7729(7) 0.3896(6) 0.9715(6)
H5_4 H 0.7361 0.3936 0.9534
C8_4 C 0.8259(7) 0.3858(6) 0.9461(6)
H6_4 H 0.8331 0.3892 0.9056
C9_4 C 0.9259(7) 0.3634(6) 0.9751(6)
H8_4 H 0.9389 0.3857 0.9408
C10_4 C 0.9394(3) 0.3011(2) 0.9653(4)
C11_4 C 0.8937(2) 0.2620(3) 0.9622(4)
H9_4 H 0.8548 0.2755 0.9641
C12_4 C 0.9048(3) 0.2030(3) 0.9562(4)
H10_4 H 0.8735 0.1763 0.9541
C13_4 C 0.9617(3) 0.1832(2) 0.9534(4)
C15_4 C 0.9963(3) 0.2813(3) 0.9625(4)
C20_4 C 0.9674(7) 0.1202(7) 0.9471(7)
N4_4 N 0.9717(6) 0.0709(5) 0.9422(5)
N9_4 N 0.9855(5) 0.8654(5) 0.3766(5)
C33_4 C 0.9715(6) 0.7729(7) 0.3896(6)
H23_4 H 0.9534 0.7361 0.3936
C35_4 C 0.9461(6) 0.8259(7) 0.3858(6)
H25_4 H 0.9056 0.8331 0.3892
C37_4 C 0.9751(6) 0.9259(7) 0.3634(6)
H29_4 H 0.9408 0.9389 0.3857
C39_4 C 0.9653(4) 0.9394(3) 0.3011(2)
C41_4 C 0.9622(4) 0.8937(2) 0.2620(3)
H31_4 H 0.9641 0.8548 0.2755
C43_4 C 0.9562(4) 0.9048(3) 0.2030(3)
H33_4 H 0.9541 0.8735 0.1763
C45_4 C 0.9534(4) 0.9617(3) 0.1832(2)
C49_4 C 0.9625(4) 0.9963(3) 0.2813(3)
C59_4 C 0.9471(7) 0.9674(7) 0.1202(7)
N15_4 N 0.9422(5) 0.9717(6) 0.0709(5)
Ag1_4 Ag 0.99321(8) 0.99321(8) 0.99321(8)
C83 C 0.1940(4) 0.6561(3) 0.0405(3)
H57 H 0.2307 0.6575 0.0590
C85 C 0.1435(4) 0.6607(2) 0.0732(4)
H59 H 0.1458 0.6653 0.1141
C87 C 0.0897(4) 0.6586(3) 0.0460(3)
H61 H 0.0552 0.6617 0.0683
Ag2 Ag 0.24084(5) 0.25916(5) 0.74084(5)
C72 C 0.0314(3) 0.1750(3) 0.7992(4)
H52 H 0.0572 0.1429 0.7976
C73 C 0.0531(2) 0.2310(4) 0.8047(4)
C74 C 0.0153(3) 0.2779(3) 0.8070(4)
C76 C 0.0381(3) 0.3334(3) 0.8125(6)
H53 H 0.0789 0.3388 0.8154
C77 C 0.0013(4) 0.3812(3) 0.8139(6)
H54 H 0.0164 0.4195 0.8129
C80 C 0.1138(6) 0.2377(7) 0.8007(6)
N20 N 0.1661(5) 0.2426(6) 0.7999(5)
Co5 Co 0.13839(7) 0.63839(7) 0.86161(7)
Co6 Co 0.36161(7) 0.36161(7) 0.36161(7)
N21 N 0.1368(4) 0.6474(2) 0.9535(3)
N22 N 0.4535(3) 0.3632(4) 0.3526(2)
C81 C 0.1906(4) 0.6495(3) 0.9807(3)
C82 C 0.4807(3) 0.3094(4) 0.3505(3)
C84 C 0.5405(3) 0.3060(4) 0.3439(3)
H58 H 0.5590 0.2693 0.3425
C86 C 0.5732(4) 0.3565(4) 0.3393(2)
H60 H 0.6141 0.3542 0.3347
C88 C 0.5460(3) 0.4103(4) 0.3414(3)
H62 H 0.5683 0.4448 0.3383
C89 C 0.0864(4) 0.6520(3) 0.9862(3)
C90 C 0.4862(3) 0.4136(4) 0.3480(3)
H63 H 0.0496 0.6505 0.9676
H64 H 0.4676 0.4504 0.3495
N25 N 0.2833(5) 0.6473(5) 0.8599(6)
N26 N 0.3599(6) 0.2167(5) 0.3527(5)
N27 N 0.2288(5) 0.6452(5) 0.8850(6)
N28 N 0.3850(6) 0.2712(5) 0.3548(5)
C91 C 0.2391(6) 0.6524(6) 0.9414(6)
C92 C 0.4414(6) 0.2609(6) 0.3476(6)
C93 C 0.2978(6) 0.6571(7) 0.9534(6)
C94 C 0.4534(6) 0.2022(6) 0.3429(7)
H65 H 0.3152 0.6605 0.9906
H66 H 0.4906 0.1848 0.3395
C95 C 0.3244(6) 0.6560(6) 0.9034(7)
C96 C 0.4034(7) 0.1756(6) 0.3440(6)
H67 H 0.3650 0.6604 0.8977
H68 H 0.3977 0.1350 0.3396
C97 C 0.2897(6) 0.6323(6) 0.7977(7)
C98 C 0.2977(7) 0.2103(6) 0.3677(6)
H69 H 0.3234 0.6534 0.7816
H70 H 0.2816 0.1766 0.3466
H71 H 0.2547 0.6454 0.7766
H72 H 0.2766 0.2453 0.3546
C99 C 0.2982(4) 0.5659(3) 0.7872(3)
C100 C 0.2872(3) 0.2018(4) 0.4341(3)
C101 C 0.2959(4) 0.5281(3) 0.8341(3)
C102 C 0.3341(3) 0.2041(4) 0.4719(3)
H73 H 0.2921 0.5430 0.8723
H74 H 0.3723 0.2079 0.4570
C103 C 0.2992(4) 0.4686(3) 0.8250(3)
C104 C 0.3250(3) 0.2008(4) 0.5314(3)
H75 H 0.2976 0.4428 0.8571
H76 H 0.3571 0.2024 0.5572
C105 C 0.3047(4) 0.4469(2) 0.7690(4)
C106 C 0.2690(4) 0.1953(4) 0.5531(2)
C107 C 0.3070(4) 0.4847(3) 0.7221(3)
C108 C 0.2221(3) 0.1930(4) 0.5153(3)
C109 C 0.3038(4) 0.5442(3) 0.7312(3)
C110 C 0.2312(3) 0.1962(4) 0.4558(3)
C111 C 0.3125(6) 0.4619(3) 0.6666(3)
C112 C 0.1666(3) 0.1875(6) 0.5381(3)
H77 H 0.3154 0.4211 0.6612
H78 H 0.1612 0.1846 0.5789
C113 C 0.3139(6) 0.4987(4) 0.6188(3)
C114 C 0.1188(3) 0.1861(6) 0.5013(4)
H79 H 0.3129 0.4836 0.5805
H80 H 0.0805 0.1871 0.5164
C115 C 0.3168(6) 0.5581(4) 0.6285(3)
C116 C 0.1285(3) 0.1832(6) 0.4419(4)
H81 H 0.3251 0.5835 0.5971
H82 H 0.0971 0.1749 0.4165
C117 C 0.3078(6) 0.5812(2) 0.6837(3)
C118 C 0.1837(3) 0.1922(6) 0.4188(2)
H83 H 0.3044 0.6219 0.6888
H84 H 0.1888 0.1956 0.3781
C119 C 0.3007(6) 0.3862(6) 0.7623(7)
C120 C 0.2623(7) 0.1993(6) 0.6138(6)
N31 N 0.2999(5) 0.3339(5) 0.7574(6)
N32 N 0.2574(6) 0.2001(5) 0.6661(5)
Co4 Co 0.86161(7) 0.13839(7) 0.63839(7)
N17 N 0.8526(2) 0.0465(3) 0.6368(4)
C61 C 0.8505(3) 0.0193(3) 0.6906(4)
C65 C 0.8480(3) 0.0138(3) 0.5864(4)
H46 H 0.8495 0.0324 0.5496
N18 N 0.8527(5) 0.1401(6) 0.7833(5)
N19 N 0.8548(5) 0.1150(6) 0.7288(5)
C66 C 0.8476(6) 0.0586(6) 0.7391(6)
C67 C 0.8429(7) 0.0466(6) 0.7978(6)
H47 H 0.8395 0.0094 0.8152
C68 C 0.8440(6) 0.0966(7) 0.8244(6)
H48 H 0.8396 0.1023 0.8650
C69 C 0.8677(6) 0.2023(7) 0.7897(6)
H49 H 0.8466 0.2184 0.8234
H50 H 0.8546 0.2234 0.7547
C70 C 0.9341(3) 0.2128(3) 0.7982(4)
C71 C 0.9719(3) 0.1659(3) 0.7959(4)
H51 H 0.9570 0.1277 0.7921
C75 C 0.9558(3) 0.2688(3) 0.8038(4)
C78 C 0.9419(4) 0.3715(3) 0.8168(6)
H55 H 0.9165 0.4029 0.8251
C79 C 0.9188(2) 0.3163(3) 0.8078(6)
H56 H 0.8781 0.3112 0.8044
N23 N 0.8632(4) 0.1474(2) 0.5465(3)
N24 N 0.9535(3) 0.1368(4) 0.6474(2)
N29 N 0.7712(5) 0.1452(5) 0.6150(6)
N30 N 0.8850(6) 0.2288(5) 0.6452(5)
Ag2_2 Ag 0.25916(5) 0.74084(5) 0.24084(5)
Co4_2 Co 0.63839(7) 0.86161(7) 0.13839(7)
N17_2 N 0.6474(2) 0.9535(3) 0.1368(4)
C61_2 C 0.6495(3) 0.9807(3) 0.1906(4)
C65_2 C 0.6520(3) 0.9862(3) 0.0864(4)
H46_2 H 0.6505 0.9676 0.0496
N18_2 N 0.6473(5) 0.8599(6) 0.2833(5)
N19_2 N 0.6452(5) 0.8850(6) 0.2288(5)
C66_2 C 0.6524(6) 0.9414(6) 0.2391(6)
C67_2 C 0.6571(7) 0.9534(6) 0.2978(6)
H47_2 H 0.6605 0.9906 0.3152
C68_2 C 0.6560(6) 0.9034(7) 0.3244(6)
H48_2 H 0.6604 0.8977 0.3650
C69_2 C 0.6323(6) 0.7977(7) 0.2897(6)
H49_2 H 0.6534 0.7816 0.3234
H50_2 H 0.6454 0.7766 0.2547
C70_2 C 0.5659(3) 0.7872(3) 0.2982(4)
C71_2 C 0.5281(3) 0.8341(3) 0.2959(4)
H51_2 H 0.5430 0.8723 0.2921
C72_2 C 0.4686(3) 0.8250(3) 0.2992(4)
H52_2 H 0.4428 0.8571 0.2976
C73_2 C 0.4469(2) 0.7690(4) 0.3047(4)
C74_2 C 0.4847(3) 0.7221(3) 0.3070(4)
C75_2 C 0.5442(3) 0.7312(3) 0.3038(4)
C76_2 C 0.4619(3) 0.6666(3) 0.3125(6)
H53_2 H 0.4211 0.6612 0.3154
C77_2 C 0.4987(4) 0.6188(3) 0.3139(6)
H54_2 H 0.4836 0.5805 0.3129
C78_2 C 0.5581(4) 0.6285(3) 0.3168(6)
H55_2 H 0.5835 0.5971 0.3251
C79_2 C 0.5812(2) 0.6837(3) 0.3078(6)
H56_2 H 0.6219 0.6888 0.3044
C80_2 C 0.3862(6) 0.7623(7) 0.3007(6)
N20_2 N 0.3339(5) 0.7574(6) 0.2999(5)
N21_2 N 0.3632(4) 0.3526(2) 0.4535(3)
N23_2 N 0.6368(4) 0.8526(2) 0.0465(3)
N24_2 N 0.5465(3) 0.8632(4) 0.1474(2)
C81_2 C 0.3094(4) 0.3505(3) 0.4807(3)
C83_2 C 0.3060(4) 0.3439(3) 0.5405(3)
H57_2 H 0.2693 0.3425 0.5590
C85_2 C 0.3565(4) 0.3393(2) 0.5732(4)
H59_2 H 0.3542 0.3347 0.6141
C87_2 C 0.4103(4) 0.3414(3) 0.5460(3)
H61_2 H 0.4448 0.3383 0.5683
C89_2 C 0.4136(4) 0.3480(3) 0.4862(3)
H63_2 H 0.4504 0.3495 0.4676
N25_2 N 0.2167(5) 0.3527(5) 0.3599(6)
N27_2 N 0.2712(5) 0.3548(5) 0.3850(6)
N29_2 N 0.7288(5) 0.8548(5) 0.1150(6)
N30_2 N 0.6150(6) 0.7712(5) 0.1452(5)
C91_2 C 0.2609(6) 0.3476(6) 0.4414(6)
C93_2 C 0.2022(6) 0.3429(7) 0.4534(6)
H65_2 H 0.1848 0.3395 0.4906
C95_2 C 0.1756(6) 0.3440(6) 0.4034(7)
H67_2 H 0.1350 0.3396 0.3977
C97_2 C 0.2103(6) 0.3677(6) 0.2977(7)
H69_2 H 0.1766 0.3466 0.2816
H71_2 H 0.2453 0.3546 0.2766
C99_2 C 0.2018(4) 0.4341(3) 0.2872(3)
C101_2 C 0.2041(4) 0.4719(3) 0.3341(3)
H73_2 H 0.2079 0.4570 0.3723
C103_2 C 0.2008(4) 0.5314(3) 0.3250(3)
C104_2 C 0.1750(3) 0.7992(4) 0.0314(3)
H75_2 H 0.2024 0.5572 0.3571
H76_2 H 0.1429 0.7976 0.0572
C105_2 C 0.1953(4) 0.5531(2) 0.2690(4)
C106_2 C 0.2310(4) 0.8047(4) 0.0531(2)
C107_2 C 0.1930(4) 0.5153(3) 0.2221(3)
C108_2 C 0.2779(3) 0.8070(4) 0.0153(3)
C109_2 C 0.1962(4) 0.4558(3) 0.2312(3)
C111_2 C 0.1875(6) 0.5381(3) 0.1666(3)
C112_2 C 0.3334(3) 0.8125(6) 0.0381(3)
H77_2 H 0.1846 0.5789 0.1612
H78_2 H 0.3388 0.8154 0.0789
C113_2 C 0.1861(6) 0.5013(4) 0.1188(3)
C114_2 C 0.3812(3) 0.8139(6) 0.0013(4)
H79_2 H 0.1871 0.5164 0.0805
H80_2 H 0.4195 0.8129 0.0164
C115_2 C 0.1832(6) 0.4419(4) 0.1285(3)
H81_2 H 0.1749 0.4165 0.0971
C117_2 C 0.1922(6) 0.4188(2) 0.1837(3)
H83_2 H 0.1956 0.3781 0.1888
C119_2 C 0.1993(6) 0.6138(6) 0.2623(7)
C120_2 C 0.2377(7) 0.8007(6) 0.1138(6)
N31_2 N 0.2001(5) 0.6661(5) 0.2574(6)
N32_2 N 0.2426(6) 0.7999(5) 0.1661(5)
N22_2 N 0.0465(3) 0.6368(4) 0.8526(2)
C82_2 C 0.0193(3) 0.6906(4) 0.8505(3)
C90_2 C 0.0138(3) 0.5864(4) 0.8480(3)
H64_2 H 0.0324 0.5496 0.8495
N26_2 N 0.1401(6) 0.7833(5) 0.8527(5)
N28_2 N 0.1150(6) 0.7288(5) 0.8548(5)
C92_2 C 0.0586(6) 0.7391(6) 0.8476(6)
C94_2 C 0.0466(6) 0.7978(6) 0.8429(7)
H66_2 H 0.0094 0.8152 0.8395
C96_2 C 0.0966(7) 0.8244(6) 0.8440(6)
H68_2 H 0.1023 0.8650 0.8396
C98_2 C 0.2023(7) 0.7897(6) 0.8677(6)
H70_2 H 0.2184 0.8234 0.8466
H72_2 H 0.2234 0.7547 0.8546
C100_2 C 0.2128(3) 0.7982(4) 0.9341(3)
C102_2 C 0.1659(3) 0.7959(4) 0.9719(3)
H74_2 H 0.1277 0.7921 0.9570
C110_2 C 0.2688(3) 0.8038(4) 0.9558(3)
C116_2 C 0.3715(3) 0.8168(6) 0.9419(4)
H82_2 H 0.4029 0.8251 0.9165
C118_2 C 0.3163(3) 0.8078(6) 0.9188(2)
H84_2 H 0.3112 0.8044 0.8781
N17_3 N 0.1474(2) 0.5465(3) 0.8632(4)
C61_3 C 0.1495(3) 0.5193(3) 0.8094(4)
C62 C 0.1561(3) 0.4595(3) 0.8060(4)
H43 H 0.1575 0.4410 0.7693
C63 C 0.1607(2) 0.4268(4) 0.8565(4)
H44 H 0.1653 0.3859 0.8542
C64 C 0.1586(3) 0.4540(3) 0.9103(4)
H45 H 0.1617 0.4317 0.9448
C65_3 C 0.1520(3) 0.5138(3) 0.9136(4)
H46_3 H 0.1505 0.5324 0.9504
N18_3 N 0.1473(5) 0.6401(6) 0.7167(5)
N19_3 N 0.1452(5) 0.6150(6) 0.7712(5)
C66_3 C 0.1524(6) 0.5586(6) 0.7609(6)
C67_3 C 0.1571(7) 0.5466(6) 0.7022(6)
H47_3 H 0.1605 0.5094 0.6848
C68_3 C 0.1560(6) 0.5966(7) 0.6756(6)
H48_3 H 0.1604 0.6023 0.6350
C69_3 C 0.1323(6) 0.7023(7) 0.7103(6)
H49_3 H 0.1534 0.7184 0.6766
H50_3 H 0.1454 0.7234 0.7453
C70_3 C 0.0659(3) 0.7128(3) 0.7018(4)
C71_3 C 0.0281(3) 0.6659(3) 0.7041(4)
H51_3 H 0.0430 0.6277 0.7079
C75_3 C 0.0442(3) 0.7688(3) 0.6962(4)
C78_3 C 0.0581(4) 0.8715(3) 0.6832(6)
H55_3 H 0.0835 0.9029 0.6749
C79_3 C 0.0812(2) 0.8163(3) 0.6922(6)
H56_3 H 0.1219 0.8112 0.6956
C81_3 C 0.8094(4) 0.1495(3) 0.5193(3)
C83_3 C 0.8060(4) 0.1561(3) 0.4595(3)
H57_3 H 0.7693 0.1575 0.4410
C85_3 C 0.8565(4) 0.1607(2) 0.4268(4)
H59_3 H 0.8542 0.1653 0.3859
C87_3 C 0.9103(4) 0.1586(3) 0.4540(3)
H61_3 H 0.9448 0.1617 0.4317
C89_3 C 0.9136(4) 0.1520(3) 0.5138(3)
H63_3 H 0.9504 0.1505 0.5324
N25_3 N 0.7167(5) 0.1473(5) 0.6401(6)
C91_3 C 0.7609(6) 0.1524(6) 0.5586(6)
C93_3 C 0.7022(6) 0.1571(7) 0.5466(6)
H65_3 H 0.6848 0.1605 0.5094
C95_3 C 0.6756(6) 0.1560(6) 0.5966(7)
H67_3 H 0.6350 0.1604 0.6023
C97_3 C 0.7103(6) 0.1323(6) 0.7023(7)
H69_3 H 0.6766 0.1534 0.7184
H71_3 H 0.7453 0.1454 0.7234
C99_3 C 0.7018(4) 0.0659(3) 0.7128(3)
C101_3 C 0.7041(4) 0.0281(3) 0.6659(3)
H73_3 H 0.7079 0.0430 0.6277
C109_3 C 0.6962(4) 0.0442(3) 0.7688(3)
C115_3 C 0.6832(6) 0.0581(4) 0.8715(3)
H81_3 H 0.6749 0.0835 0.9029
C117_3 C 0.6922(6) 0.0812(2) 0.8163(3)
H83_3 H 0.6956 0.1219 0.8112
C82_3 C 0.5193(3) 0.8094(4) 0.1495(3)
C84_2 C 0.4595(3) 0.8060(4) 0.1561(3)
H58_2 H 0.4410 0.7693 0.1575
C86_2 C 0.4268(4) 0.8565(4) 0.1607(2)
H60_2 H 0.3859 0.8542 0.1653
C88_2 C 0.4540(3) 0.9103(4) 0.1586(3)
H62_2 H 0.4317 0.9448 0.1617
C90_3 C 0.5138(3) 0.9136(4) 0.1520(3)
H64_3 H 0.5324 0.9504 0.1505
N26_3 N 0.6401(6) 0.7167(5) 0.1473(5)
C92_3 C 0.5586(6) 0.7609(6) 0.1524(6)
C94_3 C 0.5466(6) 0.7022(6) 0.1571(7)
H66_3 H 0.5094 0.6848 0.1605
C96_3 C 0.5966(7) 0.6756(6) 0.1560(6)
H68_3 H 0.6023 0.6350 0.1604
C98_3 C 0.7023(7) 0.7103(6) 0.1323(6)
H70_3 H 0.7184 0.6766 0.1534
H72_3 H 0.7234 0.7453 0.1454
C100_3 C 0.7128(3) 0.7018(4) 0.0659(3)
C102_3 C 0.6659(3) 0.7041(4) 0.0281(3)
H74_3 H 0.6277 0.7079 0.0430
C110_3 C 0.7688(3) 0.6962(4) 0.0442(3)
C116_3 C 0.8715(3) 0.6832(6) 0.0581(4)
H82_3 H 0.9029 0.6749 0.0835
C118_3 C 0.8163(3) 0.6922(6) 0.0812(2)
H84_3 H 0.8112 0.6956 0.1219
Ag2_3 Ag 0.74084(5) 0.24084(5) 0.25916(5)
N17_4 N 0.3526(2) 0.4535(3) 0.3632(4)
C61_4 C 0.3505(3) 0.4807(3) 0.3094(4)
C62_2 C 0.3439(3) 0.5405(3) 0.3060(4)
H43_2 H 0.3425 0.5590 0.2693
C63_2 C 0.3393(2) 0.5732(4) 0.3565(4)
H44_2 H 0.3347 0.6141 0.3542
C64_2 C 0.3414(3) 0.5460(3) 0.4103(4)
H45_2 H 0.3383 0.5683 0.4448
C65_4 C 0.3480(3) 0.4862(3) 0.4136(4)
H46_4 H 0.3495 0.4676 0.4504
N18_4 N 0.3527(5) 0.3599(6) 0.2167(5)
N19_4 N 0.3548(5) 0.3850(6) 0.2712(5)
C66_4 C 0.3476(6) 0.4414(6) 0.2609(6)
C67_4 C 0.3429(7) 0.4534(6) 0.2022(6)
H47_4 H 0.3395 0.4906 0.1848
C68_4 C 0.3440(6) 0.4034(7) 0.1756(6)
H48_4 H 0.3396 0.3977 0.1350
C69_4 C 0.3677(6) 0.2977(7) 0.2103(6)
H49_4 H 0.3466 0.2816 0.1766
H50_4 H 0.3546 0.2766 0.2453
C70_4 C 0.4341(3) 0.2872(3) 0.2018(4)
C71_4 C 0.4719(3) 0.3341(3) 0.2041(4)
H51_4 H 0.4570 0.3723 0.2079
C72_3 C 0.5314(3) 0.3250(3) 0.2008(4)
H52_3 H 0.5572 0.3571 0.2024
C73_3 C 0.5531(2) 0.2690(4) 0.1953(4)
C74_3 C 0.5153(3) 0.2221(3) 0.1930(4)
C75_4 C 0.4558(3) 0.2312(3) 0.1962(4)
C76_3 C 0.5381(3) 0.1666(3) 0.1875(6)
H53_3 H 0.5789 0.1612 0.1846
C77_3 C 0.5013(4) 0.1188(3) 0.1861(6)
H54_3 H 0.5164 0.0805 0.1871
C78_4 C 0.4419(4) 0.1285(3) 0.1832(6)
H55_4 H 0.4165 0.0971 0.1749
C79_4 C 0.4188(2) 0.1837(3) 0.1922(6)
H56_4 H 0.3781 0.1888 0.1956
C80_3 C 0.6138(6) 0.2623(7) 0.1993(6)
N20_3 N 0.6661(5) 0.2574(6) 0.2001(5)
C82_4 C 0.9807(3) 0.1906(4) 0.6495(3)
C90_4 C 0.9862(3) 0.0864(4) 0.6520(3)
H64_4 H 0.9676 0.0496 0.6505
N26_4 N 0.8599(6) 0.2833(5) 0.6473(5)
C92_4 C 0.9414(6) 0.2391(6) 0.6524(6)
C94_4 C 0.9534(6) 0.2978(6) 0.6571(7)
H66_4 H 0.9906 0.3152 0.6605
C96_4 C 0.9034(7) 0.3244(6) 0.6560(6)
H68_4 H 0.8977 0.3650 0.6604
C98_4 C 0.7977(7) 0.2897(6) 0.6323(6)
H70_4 H 0.7816 0.3234 0.6534
H72_4 H 0.7766 0.2547 0.6454
C100_4 C 0.7872(3) 0.2982(4) 0.5659(3)
C102_4 C 0.8341(3) 0.2959(4) 0.5281(3)
H74_4 H 0.8723 0.2921 0.5430
C103_3 C 0.7992(4) 0.0314(3) 0.1750(3)
C104_3 C 0.8250(3) 0.2992(4) 0.4686(3)
H75_3 H 0.7976 0.0572 0.1429
H76_3 H 0.8571 0.2976 0.4428
C105_3 C 0.8047(4) 0.0531(2) 0.2310(4)
C106_3 C 0.7690(4) 0.3047(4) 0.4469(2)
C107_3 C 0.8070(4) 0.0153(3) 0.2779(3)
C108_3 C 0.7221(3) 0.3070(4) 0.4847(3)
C110_4 C 0.7312(3) 0.3038(4) 0.5442(3)
C111_3 C 0.8125(6) 0.0381(3) 0.3334(3)
C112_3 C 0.6666(3) 0.3125(6) 0.4619(3)
H77_3 H 0.8154 0.0789 0.3388
H78_3 H 0.6612 0.3154 0.4211
C113_3 C 0.8139(6) 0.0013(4) 0.3812(3)
C114_3 C 0.6188(3) 0.3139(6) 0.4987(4)
H79_3 H 0.8129 0.0164 0.4195
H80_3 H 0.5805 0.3129 0.4836
C116_4 C 0.6285(3) 0.3168(6) 0.5581(4)
H82_4 H 0.5971 0.3251 0.5835
C118_4 C 0.6837(3) 0.3078(6) 0.5812(2)
H84_4 H 0.6888 0.3044 0.6219
C119_3 C 0.8007(6) 0.1138(6) 0.2377(7)
C120_3 C 0.7623(7) 0.3007(6) 0.3862(6)
N31_3 N 0.7999(5) 0.1661(5) 0.2426(6)
N32_3 N 0.7574(6) 0.2999(5) 0.3339(5)
C81_4 C 0.6906(4) 0.8505(3) 0.0193(3)
C89_4 C 0.5864(4) 0.8480(3) 0.0138(3)
H63_4 H 0.5496 0.8495 0.0324
N25_4 N 0.7833(5) 0.8527(5) 0.1401(6)
C91_4 C 0.7391(6) 0.8476(6) 0.0586(6)
C93_4 C 0.7978(6) 0.8429(7) 0.0466(6)
H65_4 H 0.8152 0.8395 0.0094
C95_4 C 0.8244(6) 0.8440(6) 0.0966(7)
H67_4 H 0.8650 0.8396 0.1023
C97_4 C 0.7897(6) 0.8677(6) 0.2023(7)
H69_4 H 0.8234 0.8466 0.2184
H71_4 H 0.7547 0.8546 0.2234
C99_4 C 0.7982(4) 0.9341(3) 0.2128(3)
C101_4 C 0.7959(4) 0.9719(3) 0.1659(3)
H73_4 H 0.7921 0.9570 0.1277
C109_4 C 0.8038(4) 0.9558(3) 0.2688(3)
C115_4 C 0.8168(6) 0.9419(4) 0.3715(3)
H81_4 H 0.8251 0.9165 0.4029
C117_4 C 0.8078(6) 0.9188(2) 0.3163(3)
H83_4 H 0.8044 0.8781 0.3112
C62_3 C 0.8439(3) 0.9595(3) 0.6940(4)
H43_3 H 0.8425 0.9410 0.7307
C63_3 C 0.8393(2) 0.9268(4) 0.6435(4)
H44_3 H 0.8347 0.8859 0.6458
C64_3 C 0.8414(3) 0.9540(3) 0.5897(4)
H45_3 H 0.8383 0.9317 0.5552
C62_4 C 0.6561(3) 0.0405(3) 0.1940(4)
H43_4 H 0.6575 0.0590 0.2307
C63_4 C 0.6607(2) 0.0732(4) 0.1435(4)
H44_4 H 0.6653 0.1141 0.1458
C64_4 C 0.6586(3) 0.0460(3) 0.0897(4)
H45_4 H 0.6617 0.0683 0.0552
C84_3 C 0.9595(3) 0.6940(4) 0.8439(3)
H58_3 H 0.9410 0.7307 0.8425
C86_3 C 0.9268(4) 0.6435(4) 0.8393(2)
H60_3 H 0.8859 0.6458 0.8347
C88_3 C 0.9540(3) 0.5897(4) 0.8414(3)
H62_3 H 0.9317 0.5552 0.8383
Ag2_4 Ag 0.75916(5) 0.75916(5) 0.75916(5)
C72_4 C 0.9686(3) 0.6750(3) 0.7008(4)
H52_4 H 0.9428 0.6429 0.7024
C73_4 C 0.9469(2) 0.7310(4) 0.6953(4)
C74_4 C 0.9847(3) 0.7779(3) 0.6930(4)
C76_4 C 0.9619(3) 0.8334(3) 0.6875(6)
H53_4 H 0.9211 0.8388 0.6846
C77_4 C 0.9987(4) 0.8812(3) 0.6861(6)
H54_4 H 0.9836 0.9195 0.6871
C80_4 C 0.8862(6) 0.7377(7) 0.6993(6)
N20_4 N 0.8339(5) 0.7426(6) 0.7001(5)
C103_4 C 0.7008(4) 0.9686(3) 0.6750(3)
C104_4 C 0.6750(3) 0.7008(4) 0.9686(3)
H75_4 H 0.7024 0.9428 0.6429
H76_4 H 0.6429 0.7024 0.9428
C105_4 C 0.6953(4) 0.9469(2) 0.7310(4)
C106_4 C 0.7310(4) 0.6953(4) 0.9469(2)
C107_4 C 0.6930(4) 0.9847(3) 0.7779(3)
C108_4 C 0.7779(3) 0.6930(4) 0.9847(3)
C111_4 C 0.6875(6) 0.9619(3) 0.8334(3)
C112_4 C 0.8334(3) 0.6875(6) 0.9619(3)
H77_4 H 0.6846 0.9211 0.8388
H78_4 H 0.8388 0.6846 0.9211
C113_4 C 0.6861(6) 0.9987(4) 0.8812(3)
C114_4 C 0.8812(3) 0.6861(6) 0.9987(4)
H79_4 H 0.6871 0.9836 0.9195
H80_4 H 0.9195 0.6871 0.9836
C119_4 C 0.6993(6) 0.8862(6) 0.7377(7)
C120_4 C 0.7377(7) 0.6993(6) 0.8862(6)
N31_4 N 0.7001(5) 0.8339(5) 0.7426(6)
N32_4 N 0.7426(6) 0.7001(5) 0.8339(5)
C84_4 C 0.0405(3) 0.1940(4) 0.6561(3)
H58_4 H 0.0590 0.2307 0.6575
C86_4 C 0.0732(4) 0.1435(4) 0.6607(2)
H60_4 H 0.1141 0.1458 0.6653
C88_4 C 0.0460(3) 0.0897(4) 0.6586(3)
H62_4 H 0.0683 0.0552 0.6617
C83_4 C 0.6940(4) 0.8439(3) 0.9595(3)
H57_4 H 0.7307 0.8425 0.9410
C85_4 C 0.6435(4) 0.8393(2) 0.9268(4)
H59_4 H 0.6458 0.8347 0.8859
C87_4 C 0.5897(4) 0.8414(3) 0.9540(3)
H61_4 H 0.5552 0.8383 0.9317
B1 B 0.8090(4) 0.4490(6) 0.7646(5)
F1 F 0.8551(7) 0.4865(7) 0.7721(6)
F2 F 0.8197(8) 0.4099(6) 0.7206(7)
F3 F 0.7992(6) 0.4166(7) 0.8140(6)
F4 F 0.7621(6) 0.4840(6) 0.7521(6)
B1_2 B 0.6910(4) 0.5510(6) 0.2646(5)
F1_2 F 0.6449(7) 0.5135(7) 0.2721(6)
F2_2 F 0.6803(8) 0.5901(6) 0.2206(7)
F3_2 F 0.7008(6) 0.5834(7) 0.3140(6)
F4_2 F 0.7379(6) 0.5160(6) 0.2521(6)
B1_3 B 0.1910(4) 0.9490(6) 0.7354(5)
F1_3 F 0.1449(7) 0.9865(7) 0.7279(6)
F2_3 F 0.1803(8) 0.9099(6) 0.7794(7)
F3_3 F 0.2008(6) 0.9166(7) 0.6860(6)
F4_3 F 0.2379(6) 0.9840(6) 0.7479(6)
B1_4 B 0.3090(4) 0.0510(6) 0.2354(5)
F1_4 F 0.3551(7) 0.0135(7) 0.2279(6)
F2_4 F 0.3197(8) 0.0901(6) 0.2794(7)
F3_4 F 0.2992(6) 0.0834(7) 0.1860(6)
F4_4 F 0.2621(6) 0.0160(6) 0.2479(6)
B1_5 B 0.7646(5) 0.8090(4) 0.4490(6)
F1_5 F 0.7721(6) 0.8551(7) 0.4865(7)
F2_5 F 0.7206(7) 0.8197(8) 0.4099(6)
F3_5 F 0.8140(6) 0.7992(6) 0.4166(7)
F4_5 F 0.7521(6) 0.7621(6) 0.4840(6)
B1_6 B 0.2646(5) 0.6910(4) 0.5510(6)
F1_6 F 0.2721(6) 0.6449(7) 0.5135(7)
F2_6 F 0.2206(7) 0.6803(8) 0.5901(6)
F3_6 F 0.3140(6) 0.7008(6) 0.5834(7)
F4_6 F 0.2521(6) 0.7379(6) 0.5160(6)
B1_7 B 0.7354(5) 0.1910(4) 0.9490(6)
F1_7 F 0.7279(6) 0.1449(7) 0.9865(7)
F2_7 F 0.7794(7) 0.1803(8) 0.9099(6)
F3_7 F 0.6860(6) 0.2008(6) 0.9166(7)
F4_7 F 0.7479(6) 0.2379(6) 0.9840(6)
B1_8 B 0.2354(5) 0.3090(4) 0.0510(6)
F1_8 F 0.2279(6) 0.3551(7) 0.0135(7)
F2_8 F 0.2794(7) 0.3197(8) 0.0901(6)
F3_8 F 0.1860(6) 0.2992(6) 0.0834(7)
F4_8 F 0.2479(6) 0.2621(6) 0.0160(6)
B1_9 B 0.4490(6) 0.7646(5) 0.8090(4)
F1_9 F 0.4865(7) 0.7721(6) 0.8551(7)
F2_9 F 0.4099(6) 0.7206(7) 0.8197(8)
F3_9 F 0.4166(7) 0.8140(6) 0.7992(6)
F4_9 F 0.4840(6) 0.7521(6) 0.7621(6)
B1_10 B 0.5510(6) 0.2646(5) 0.6910(4)
F1_10 F 0.5135(7) 0.2721(6) 0.6449(7)
F2_10 F 0.5901(6) 0.2206(7) 0.6803(8)
F3_10 F 0.5834(7) 0.3140(6) 0.7008(6)
F4_10 F 0.5160(6) 0.2521(6) 0.7379(6)
B1_11 B 0.9490(6) 0.7354(5) 0.1910(4)
F1_11 F 0.9865(7) 0.7279(6) 0.1449(7)
F2_11 F 0.9099(6) 0.7794(7) 0.1803(8)
F3_11 F 0.9166(7) 0.6860(6) 0.2008(6)
F4_11 F 0.9840(6) 0.7479(6) 0.2379(6)
B1_12 B 0.0510(6) 0.2354(5) 0.3090(4)
F1_12 F 0.0135(7) 0.2279(6) 0.3551(7)
F2_12 F 0.0901(6) 0.2794(7) 0.3197(8)
F3_12 F 0.0834(7) 0.1860(6) 0.2992(6)
F4_12 F 0.0160(6) 0.2479(6) 0.2621(6)
F8 F 0.0158(3) 0.0632(3) 0.5149(4)
F6 F 0.0255(2) 0.9745(2) 0.4745(2)
B2 B 0.9910(2) 0.0090(2) 0.5090(2)
F7 F 0.9368(3) 0.0149(4) 0.4842(3)
F5 F 0.9851(4) 0.9842(3) 0.5632(3)
F5_2 F 0.5149(4) 0.0158(3) 0.0632(3)
F6_2 F 0.4745(2) 0.0255(2) 0.9745(2)
B2_2 B 0.5090(2) 0.9910(2) 0.0090(2)
F8_2 F 0.4842(3) 0.9368(3) 0.0149(4)
F7_2 F 0.5632(3) 0.9851(4) 0.9842(3)
F7_3 F 0.0632(3) 0.5149(4) 0.0158(3)
B2_3 B 0.0090(2) 0.5090(2) 0.9910(2)
F5_3 F 0.0149(4) 0.4842(3) 0.9368(3)
F6_3 F 0.9745(2) 0.4745(2) 0.0255(2)
F8_3 F 0.9842(3) 0.5632(3) 0.9851(4)
B2_4 B 0.4910(2) 0.4910(2) 0.4910(2)
F5_4 F 0.4851(4) 0.5158(3) 0.4368(3)
F6_4 F 0.5255(2) 0.5255(2) 0.5255(2)
F7_4 F 0.4368(3) 0.4851(4) 0.5158(3)
F8_4 F 0.5158(3) 0.4368(3) 0.4851(4)
B3 B 0.9165(4) 0.5835(4) 0.4165(4)
F9 F 0.9295(8) 0.5326(5) 0.3879(5)
F10 F 0.8819(4) 0.6181(4) 0.3819(4)
F11 F 0.8879(5) 0.5705(8) 0.4674(5)
F12 F 0.9674(5) 0.6121(5) 0.4295(8)
B3_2 B 0.5835(4) 0.4165(4) 0.9165(4)
F9_2 F 0.5705(8) 0.4674(5) 0.8879(5)
F10_2 F 0.6181(4) 0.3819(4) 0.8819(4)
F11_2 F 0.6121(5) 0.4295(8) 0.9674(5)
F12_2 F 0.5326(5) 0.3879(5) 0.9295(8)
B3_3 B 0.0835(4) 0.0835(4) 0.0835(4)
F9_3 F 0.0705(8) 0.0326(5) 0.1121(5)
F10_3 F 0.1181(4) 0.1181(4) 0.1181(4)
F11_3 F 0.1121(5) 0.0705(8) 0.0326(5)
F12_3 F 0.0326(5) 0.1121(5) 0.0705(8)
B3_4 B 0.4165(4) 0.9165(4) 0.5835(4)
F9_4 F 0.4295(8) 0.9674(5) 0.6121(5)
F10_4 F 0.3819(4) 0.8819(4) 0.6181(4)
F11_4 F 0.3879(5) 0.9295(8) 0.5326(5)
F12_4 F 0.4674(5) 0.8879(5) 0.5705(8)
loop_
_geom_bond_atom_site_label_1
_geom_bond_atom_site_label_2
_geom_bond_site_symmetry_1
_geom_bond_site_symmetry_2
Ag1 N4 1_555 1_555
Co1 N1 1_555 1_555
N1 C1 1_555 1_555
C1 C2 1_555 1_555
C2 H1 1_555 1_555
C3 C2 1_555 1_555
H2 C3 1_555 1_555
C4 C3 1_555 1_555
H3 C4 1_555 1_555
C5 N1 1_555 1_555
H4 C5 1_555 1_555
N2 N3 1_555 1_555
N3 Co1 1_555 1_555
C6 C1 1_555 1_555
C7 C6 1_555 1_555
H5 C7 1_555 1_555
C8 N2 1_555 1_555
H6 C8 1_555 1_555
C9 N2 1_555 1_555
H7 C9 1_555 1_555
H8 C9 1_555 1_555
C10 C9 1_555 1_555
C11 C10 1_555 1_555
H9 C11 1_555 1_555
C12 C11 1_555 1_555
H10 C12 1_555 1_555
C13 C12 1_555 1_555
C15 C10 1_555 1_555
C20 C13 1_555 1_555
N4 C20 1_555 1_555
N7 Co1 1_555 1_555
N8 Co1 1_555 1_555
N13 Co1 1_555 1_555
N14 Co1 1_555 1_555
H23 C33 1_555 1_555
C35 N9 1_555 1_555
H25 C35 1_555 1_555
C37 N9 1_555 1_555
H29 C37 1_555 1_555
C39 C37 1_555 1_555
C41 C39 1_555 1_555
H31 C41 1_555 1_555
C43 C41 1_555 1_555
H33 C43 1_555 1_555
C45 C43 1_555 1_555
C47 C45 1_555 1_555
C49 C39 1_555 1_555
C51 C47 1_555 1_555
H35 C51 1_555 1_555
C53 C51 1_555 1_555
H37 C53 1_555 1_555
C55 C53 1_555 1_555
H39 C55 1_555 1_555
C57 C49 1_555 1_555
H41 C57 1_555 1_555
C59 C45 1_555 1_555
N15 Ag1 1_555 1_555
C4 C5 1_555 1_555
N3 C6 1_555 1_555
C7 C8 1_555 1_555
C33 C35 1_555 1_555
C47 C49 1_555 1_555
C55 C57 1_555 1_555
C59 N15 1_555 1_555
C16 C14 1_555 1_555
H11 C16 1_555 1_555
C17 C16 1_555 1_555
H12 C17 1_555 1_555
C18 C17 1_555 1_555
H13 C18 1_555 1_555
H14 C19 1_555 1_555
Co2 N5 1_555 1_555
Co3 N6 1_555 1_555
N5 C21 1_555 1_555
N6 C22 1_555 1_555
C21 C23 1_555 1_555
C22 C24 1_555 1_555
C23 H15 1_555 1_555
C24 H16 1_555 1_555
C25 C23 1_555 1_555
C26 C24 1_555 1_555
H17 C25 1_555 1_555
H18 C26 1_555 1_555
C27 C25 1_555 1_555
C28 C26 1_555 1_555
H19 C27 1_555 1_555
H20 C28 1_555 1_555
C29 N5 1_555 1_555
C30 N6 1_555 1_555
H21 C29 1_555 1_555
H22 C30 1_555 1_555
N10 N12 1_555 1_555
N11 Co2 1_555 1_555
N12 Co3 1_555 1_555
C31 C21 1_555 1_555
C32 C22 1_555 1_555
C34 C32 1_555 1_555
H24 C34 1_555 1_555
C36 N10 1_555 1_555
H26 C36 1_555 1_555
C38 N10 1_555 1_555
H28 C38 1_555 1_555
H30 C38 1_555 1_555
C40 C38 1_555 1_555
C42 C40 1_555 1_555
H32 C42 1_555 1_555
C44 C42 1_555 1_555
H34 C44 1_555 1_555
C46 C44 1_555 1_555
C48 C46 1_555 1_555
C50 C40 1_555 1_555
C52 C48 1_555 1_555
H36 C52 1_555 1_555
C54 C52 1_555 1_555
H38 C54 1_555 1_555
C56 C54 1_555 1_555
H40 C56 1_555 1_555
C58 C50 1_555 1_555
H42 C58 1_555 1_555
C60 C46 1_555 1_555
C18 C19 1_555 1_555
C27 C29 1_555 1_555
C28 C30 1_555 1_555
N11 C31 1_555 1_555
N12 C32 1_555 1_555
C34 C36 1_555 1_555
C48 C50 1_555 1_555
C56 C58 1_555 1_555
C60 N16 1_555 1_555
Ag1_2 N4_2 1_555 1_555
H5_2 C7_2 1_555 1_555
C8_2 N2_2 1_555 1_555
H6_2 C8_2 1_555 1_555
C9_2 N2_2 1_555 1_555
H8_2 C9_2 1_555 1_555
C10_2 C9_2 1_555 1_555
C11_2 C10_2 1_555 1_555
H9_2 C11_2 1_555 1_555
C12_2 C11_2 1_555 1_555
H10_2 C12_2 1_555 1_555
C13_2 C12_2 1_555 1_555
C14_2 C13_2 1_555 1_555
C15_2 C10_2 1_555 1_555
C16_2 C14_2 1_555 1_555
H11_2 C16_2 1_555 1_555
C17_2 C16_2 1_555 1_555
H12_2 C17_2 1_555 1_555
C18_2 C17_2 1_555 1_555
H13_2 C18_2 1_555 1_555
C19_2 C15_2 1_555 1_555
H14_2 C19_2 1_555 1_555
C20_2 C13_2 1_555 1_555
N4_2 C20_2 1_555 1_555
Co2 N6_2 1_555 1_555
N6_2 C22_2 1_555 1_555
C22_2 C24_2 1_555 1_555
C24_2 H16_2 1_555 1_555
C26_2 C24_2 1_555 1_555
H18_2 C26_2 1_555 1_555
C28_2 C26_2 1_555 1_555
H20_2 C28_2 1_555 1_555
C30_2 N6_2 1_555 1_555
H22_2 C30_2 1_555 1_555
N10_2 N12_2 1_555 1_555
N12_2 Co2 1_555 1_555
C32_2 C22_2 1_555 1_555
C34_2 C32_2 1_555 1_555
H24_2 C34_2 1_555 1_555
C36_2 N10_2 1_555 1_555
H26_2 C36_2 1_555 1_555
C38_2 N10_2 1_555 1_555
H28_2 C38_2 1_555 1_555
H30_2 C38_2 1_555 1_555
C40_2 C38_2 1_555 1_555
C42_2 C40_2 1_555 1_555
H32_2 C42_2 1_555 1_555
C44_2 C42_2 1_555 1_555
H34_2 C44_2 1_555 1_555
C46_2 C44_2 1_555 1_555
C50_2 C40_2 1_555 1_555
C60_2 C46_2 1_555 1_555
N16_2 Ag1_2 1_555 1_555
C7_2 C8_2 1_555 1_555
C14_2 C15_2 1_555 1_555
C18_2 C19_2 1_555 1_555
C28_2 C30_2 1_555 1_555
N12_2 C32_2 1_555 1_555
C34_2 C36_2 1_555 1_555
C60_2 N16_2 1_555 1_555
Co1_2 N1_2 1_555 1_555
N1_2 C1_2 1_555 1_555
C1_2 C2_2 1_555 1_555
C2_2 H1_2 1_555 1_555
C3_2 C2_2 1_555 1_555
H2_2 C3_2 1_555 1_555
C4_2 C3_2 1_555 1_555
H3_2 C4_2 1_555 1_555
C5_2 N1_2 1_555 1_555
H4_2 C5_2 1_555 1_555
N3_2 Co1_2 1_555 1_555
C6_2 C1_2 1_555 1_555
Co3 N5_2 1_555 1_555
N5_2 C21_2 1_555 1_555
N7_2 Co1_2 1_555 1_555
N8_2 Co1_2 1_555 1_555
C21_2 C23_2 1_555 1_555
C23_2 H15_2 1_555 1_555
C25_2 C23_2 1_555 1_555
H17_2 C25_2 1_555 1_555
C27_2 C25_2 1_555 1_555
H19_2 C27_2 1_555 1_555
C29_2 N5_2 1_555 1_555
H21_2 C29_2 1_555 1_555
N9_2 N11_2 1_555 1_555
N11_2 Co3 1_555 1_555
N13_2 Co1_2 1_555 1_555
N14_2 Co1_2 1_555 1_555
C31_2 C21_2 1_555 1_555
C33_2 C31_2 1_555 1_555
H23_2 C33_2 1_555 1_555
C35_2 N9_2 1_555 1_555
H25_2 C35_2 1_555 1_555
C37_2 N9_2 1_555 1_555
H27_2 C37_2 1_555 1_555
H29_2 C37_2 1_555 1_555
C39_2 C37_2 1_555 1_555
C41_2 C39_2 1_555 1_555
H31_2 C41_2 1_555 1_555
C43_2 C41_2 1_555 1_555
H33_2 C43_2 1_555 1_555
C45_2 C43_2 1_555 1_555
C47_2 C45_2 1_555 1_555
C49_2 C39_2 1_555 1_555
C51_2 C47_2 1_555 1_555
C52_2 C48_2 1_555 1_555
H35_2 C51_2 1_555 1_555
H36_2 C52_2 1_555 1_555
C53_2 C51_2 1_555 1_555
C54_2 C52_2 1_555 1_555
H37_2 C53_2 1_555 1_555
H38_2 C54_2 1_555 1_555
C55_2 C53_2 1_555 1_555
C56_2 C54_2 1_555 1_555
H39_2 C55_2 1_555 1_555
H40_2 C56_2 1_555 1_555
C57_2 C49_2 1_555 1_555
H41_2 C57_2 1_555 1_555
H42_2 C58_2 1_555 1_555
C59_2 C45_2 1_555 1_555
C4_2 C5_2 1_555 1_555
N3_2 C6_2 1_555 1_555
C27_2 C29_2 1_555 1_555
N11_2 C31_2 1_555 1_555
C33_2 C35_2 1_555 1_555
C47_2 C49_2 1_555 1_555
C55_2 C57_2 1_555 1_555
C56_2 C58_2 1_555 1_555
C59_2 N15_2 1_555 1_555
C16_3 C14_3 1_555 1_555
H11_3 C16_3 1_555 1_555
C17_3 C16_3 1_555 1_555
H12_3 C17_3 1_555 1_555
C18_3 C17_3 1_555 1_555
H13_3 C18_3 1_555 1_555
H14_3 C19_3 1_555 1_555
N8_2 C22_3 1_555 1_555
C22_3 C24_3 1_555 1_555
C24_3 H16_3 1_555 1_555
C26_3 C24_3 1_555 1_555
H18_3 C26_3 1_555 1_555
C28_3 C26_3 1_555 1_555
H20_3 C28_3 1_555 1_555
C30_3 N8_2 1_555 1_555
H22_3 C30_3 1_555 1_555
C32_3 C22_3 1_555 1_555
C18_3 C19_3 1_555 1_555
C28_3 C30_3 1_555 1_555
N14_2 C32_3 1_555 1_555
N7 C21_3 1_555 1_555
C21_3 C23_3 1_555 1_555
C23_3 H15_3 1_555 1_555
C25_3 C23_3 1_555 1_555
H17_3 C25_3 1_555 1_555
C27_3 C25_3 1_555 1_555
H19_3 C27_3 1_555 1_555
C29_3 N7 1_555 1_555
H21_3 C29_3 1_555 1_555
C31_3 C21_3 1_555 1_555
C52_3 C48_3 1_555 1_555
H36_3 C52_3 1_555 1_555
C54_3 C52_3 1_555 1_555
H38_3 C54_3 1_555 1_555
C56_3 C54_3 1_555 1_555
H40_3 C56_3 1_555 1_555
H42_3 C58_3 1_555 1_555
C27_3 C29_3 1_555 1_555
N13 C31_3 1_555 1_555
C56_3 C58_3 1_555 1_555
Co2 N1_3 1_555 1_555
N1_3 C1_3 1_555 1_555
C1_3 C2_3 1_555 1_555
C2_3 H1_3 1_555 1_555
C3_3 C2_3 1_555 1_555
H2_3 C3_3 1_555 1_555
C4_3 C3_3 1_555 1_555
H3_3 C4_3 1_555 1_555
C5_3 N1_3 1_555 1_555
H4_3 C5_3 1_555 1_555
N3_3 Co2 1_555 1_555
C6_3 C1_3 1_555 1_555
C51_3 C47_3 1_555 1_555
H35_3 C51_3 1_555 1_555
C53_3 C51_3 1_555 1_555
H37_3 C53_3 1_555 1_555
C55_3 C53_3 1_555 1_555
H39_3 C55_3 1_555 1_555
H41_3 C57_3 1_555 1_555
C4_3 C5_3 1_555 1_555
N3_3 C6_3 1_555 1_555
C55_3 C57_3 1_555 1_555
N7_2 C21_4 1_555 1_555
C21_4 C23_4 1_555 1_555
C23_4 H15_4 1_555 1_555
C25_4 C23_4 1_555 1_555
H17_4 C25_4 1_555 1_555
C27_4 C25_4 1_555 1_555
H19_4 C27_4 1_555 1_555
C29_4 N7_2 1_555 1_555
H21_4 C29_4 1_555 1_555
N9_3 N13_2 1_555 1_555
C31_4 C21_4 1_555 1_555
C33_3 C31_4 1_555 1_555
H23_3 C33_3 1_555 1_555
H24_3 C34_3 1_555 1_555
C35_3 N9_3 1_555 1_555
C36_3 N10_3 1_555 1_555
H25_3 C35_3 1_555 1_555
H26_3 C36_3 1_555 1_555
C37_3 N9_3 1_555 1_555
C38_3 N10_3 1_555 1_555
H27_4 C37_3 1_555 1_555
H29_3 C37_3 1_555 1_555
H30_3 C38_3 1_555 1_555
C39_3 C37_3 1_555 1_555
C40_3 C38_3 1_555 1_555
C41_3 C39_3 1_555 1_555
C42_3 C40_3 1_555 1_555
H31_3 C41_3 1_555 1_555
H32_3 C42_3 1_555 1_555
C43_3 C41_3 1_555 1_555
C44_3 C42_3 1_555 1_555
H33_3 C43_3 1_555 1_555
H34_3 C44_3 1_555 1_555
C45_3 C43_3 1_555 1_555
C46_3 C44_3 1_555 1_555
C48_4 C46_3 1_555 1_555
C49_3 C39_3 1_555 1_555
C50_3 C40_3 1_555 1_555
C52_4 C48_4 1_555 1_555
H36_4 C52_4 1_555 1_555
C54_4 C52_4 1_555 1_555
H38_4 C54_4 1_555 1_555
C56_4 C54_4 1_555 1_555
H40_4 C56_4 1_555 1_555
C58_4 C50_3 1_555 1_555
H42_4 C58_4 1_555 1_555
C59_3 C45_3 1_555 1_555
C60_3 C46_3 1_555 1_555
N15_3 Ag1_3 1_555 1_555
N16_3 Ag1_3 1_555 1_555
C27_4 C29_4 1_555 1_555
N13_2 C31_4 1_555 1_555
C33_3 C35_3 1_555 1_555
C34_3 C36_3 1_555 1_555
C48_4 C50_3 1_555 1_555
C56_4 C58_4 1_555 1_555
C59_3 N15_3 1_555 1_555
C60_3 N16_3 1_555 1_555
Co3 N1_4 1_555 1_555
N1_4 C1_4 1_555 1_555
C1_4 C2_4 1_555 1_555
C2_4 H1_4 1_555 1_555
C3_4 C2_4 1_555 1_555
H2_4 C3_4 1_555 1_555
C4_4 C3_4 1_555 1_555
H3_4 C4_4 1_555 1_555
C5_4 N1_4 1_555 1_555
H4_4 C5_4 1_555 1_555
N2_3 N3_4 1_555 1_555
N3_4 Co3 1_555 1_555
C6_4 C1_4 1_555 1_555
C7_3 C6_4 1_555 1_555
H5_3 C7_3 1_555 1_555
C8_3 N2_3 1_555 1_555
H6_3 C8_3 1_555 1_555
C9_3 N2_3 1_555 1_555
H7_4 C9_3 1_555 1_555
H8_3 C9_3 1_555 1_555
C10_3 C9_3 1_555 1_555
C11_3 C10_3 1_555 1_555
H9_3 C11_3 1_555 1_555
C12_3 C11_3 1_555 1_555
H10_3 C12_3 1_555 1_555
C13_3 C12_3 1_555 1_555
C14_4 C13_3 1_555 1_555
C15_3 C10_3 1_555 1_555
C16_4 C14_4 1_555 1_555
H11_4 C16_4 1_555 1_555
C17_4 C16_4 1_555 1_555
H12_4 C17_4 1_555 1_555
C18_4 C17_4 1_555 1_555
H13_4 C18_4 1_555 1_555
C19_4 C15_3 1_555 1_555
H14_4 C19_4 1_555 1_555
C20_3 C13_3 1_555 1_555
N4_3 C20_3 1_555 1_555
N8 C22_4 1_555 1_555
C22_4 C24_4 1_555 1_555
C24_4 H16_4 1_555 1_555
C26_4 C24_4 1_555 1_555
H18_4 C26_4 1_555 1_555
C28_4 C26_4 1_555 1_555
H20_4 C28_4 1_555 1_555
C30_4 N8 1_555 1_555
H22_4 C30_4 1_555 1_555
C32_4 C22_4 1_555 1_555
C51_4 C47_4 1_555 1_555
H35_4 C51_4 1_555 1_555
C53_4 C51_4 1_555 1_555
H37_4 C53_4 1_555 1_555
C55_4 C53_4 1_555 1_555
H39_4 C55_4 1_555 1_555
H41_4 C57_4 1_555 1_555
C4_4 C5_4 1_555 1_555
N3_4 C6_4 1_555 1_555
C7_3 C8_3 1_555 1_555
C14_4 C15_3 1_555 1_555
C18_4 C19_4 1_555 1_555
C28_4 C30_4 1_555 1_555
N14 C32_4 1_555 1_555
C55_4 C57_4 1_555 1_555
H24_4 C34_4 1_555 1_555
C36_4 N10_4 1_555 1_555
H26_4 C36_4 1_555 1_555
C38_4 N10_4 1_555 1_555
H30_4 C38_4 1_555 1_555
C40_4 C38_4 1_555 1_555
C42_4 C40_4 1_555 1_555
H32_4 C42_4 1_555 1_555
C44_4 C42_4 1_555 1_555
H34_4 C44_4 1_555 1_555
C46_4 C44_4 1_555 1_555
C50_4 C40_4 1_555 1_555
C60_4 C46_4 1_555 1_555
C34_4 C36_4 1_555 1_555
C60_4 N16_4 1_555 1_555
H5_4 C7_4 1_555 1_555
C8_4 N2_4 1_555 1_555
H6_4 C8_4 1_555 1_555
C9_4 N2_4 1_555 1_555
H8_4 C9_4 1_555 1_555
C10_4 C9_4 1_555 1_555
C11_4 C10_4 1_555 1_555
H9_4 C11_4 1_555 1_555
C12_4 C11_4 1_555 1_555
H10_4 C12_4 1_555 1_555
C13_4 C12_4 1_555 1_555
C15_4 C10_4 1_555 1_555
C20_4 C13_4 1_555 1_555
N4_4 C20_4 1_555 1_555
C7_4 C8_4 1_555 1_555
H23_4 C33_4 1_555 1_555
C35_4 N9_4 1_555 1_555
H25_4 C35_4 1_555 1_555
C37_4 N9_4 1_555 1_555
H29_4 C37_4 1_555 1_555
C39_4 C37_4 1_555 1_555
C41_4 C39_4 1_555 1_555
H31_4 C41_4 1_555 1_555
C43_4 C41_4 1_555 1_555
H33_4 C43_4 1_555 1_555
C45_4 C43_4 1_555 1_555
C49_4 C39_4 1_555 1_555
C59_4 C45_4 1_555 1_555
C33_4 C35_4 1_555 1_555
C59_4 N15_4 1_555 1_555
C83 H57 1_555 1_555
C85 C83 1_555 1_555
H59 C85 1_555 1_555
C87 C85 1_555 1_555
H61 C87 1_555 1_555
Ag2 N20 1_555 1_555
H52 C72 1_555 1_555
C73 C72 1_555 1_555
C74 C73 1_555 1_555
C76 C74 1_555 1_555
H53 C76 1_555 1_555
C77 C76 1_555 1_555
H54 C77 1_555 1_555
C80 C73 1_555 1_555
N20 C80 1_555 1_555
Co5 N21 1_555 1_555
Co6 N22 1_555 1_555
N21 C81 1_555 1_555
N22 C82 1_555 1_555
C82 C84 1_555 1_555
C84 H58 1_555 1_555
C86 C84 1_555 1_555
H60 C86 1_555 1_555
C88 C86 1_555 1_555
H62 C88 1_555 1_555
C89 N21 1_555 1_555
C90 N22 1_555 1_555
H63 C89 1_555 1_555
H64 C90 1_555 1_555
N25 N27 1_555 1_555
N26 N28 1_555 1_555
N27 Co5 1_555 1_555
N28 Co6 1_555 1_555
C91 C81 1_555 1_555
C92 C82 1_555 1_555
C93 C91 1_555 1_555
C94 C92 1_555 1_555
H65 C93 1_555 1_555
H66 C94 1_555 1_555
C95 N25 1_555 1_555
C96 N26 1_555 1_555
H67 C95 1_555 1_555
H68 C96 1_555 1_555
C97 N25 1_555 1_555
C98 N26 1_555 1_555
H69 C97 1_555 1_555
H70 C98 1_555 1_555
H71 C97 1_555 1_555
H72 C98 1_555 1_555
C99 C97 1_555 1_555
C100 C98 1_555 1_555
C101 C99 1_555 1_555
C102 C100 1_555 1_555
H73 C101 1_555 1_555
H74 C102 1_555 1_555
C103 C101 1_555 1_555
C104 C102 1_555 1_555
H75 C103 1_555 1_555
H76 C104 1_555 1_555
C105 C103 1_555 1_555
C106 C104 1_555 1_555
C107 C105 1_555 1_555
C108 C106 1_555 1_555
C109 C99 1_555 1_555
C110 C100 1_555 1_555
C111 C107 1_555 1_555
C112 C108 1_555 1_555
H77 C111 1_555 1_555
H78 C112 1_555 1_555
C113 C111 1_555 1_555
C114 C112 1_555 1_555
H79 C113 1_555 1_555
H80 C114 1_555 1_555
C115 C113 1_555 1_555
C116 C114 1_555 1_555
H81 C115 1_555 1_555
H82 C116 1_555 1_555
C117 C109 1_555 1_555
C118 C110 1_555 1_555
H83 C117 1_555 1_555
H84 C118 1_555 1_555
C119 C105 1_555 1_555
C120 C106 1_555 1_555
N31 Ag2 1_555 1_555
N32 Ag2 1_555 1_555
C88 C90 1_555 1_555
N27 C91 1_555 1_555
N28 C92 1_555 1_555
C93 C95 1_555 1_555
C94 C96 1_555 1_555
C107 C109 1_555 1_555
C108 C110 1_555 1_555
C115 C117 1_555 1_555
C116 C118 1_555 1_555
C119 N31 1_555 1_555
C120 N32 1_555 1_555
Co4 N17 1_555 1_555
N17 C61 1_555 1_555
C65 N17 1_555 1_555
H46 C65 1_555 1_555
N18 N19 1_555 1_555
N19 Co4 1_555 1_555
C66 C61 1_555 1_555
C67 C66 1_555 1_555
H47 C67 1_555 1_555
C68 N18 1_555 1_555
H48 C68 1_555 1_555
C69 N18 1_555 1_555
H49 C69 1_555 1_555
H50 C69 1_555 1_555
C70 C69 1_555 1_555
C71 C70 1_555 1_555
H51 C71 1_555 1_555
C75 C70 1_555 1_555
H55 C78 1_555 1_555
C79 C75 1_555 1_555
H56 C79 1_555 1_555
N23 Co4 1_555 1_555
N24 Co4 1_555 1_555
N29 Co4 1_555 1_555
N30 Co4 1_555 1_555
N19 C66 1_555 1_555
C67 C68 1_555 1_555
C78 C79 1_555 1_555
Ag2_2 N20_2 1_555 1_555
Co4_2 N17_2 1_555 1_555
N17_2 C61_2 1_555 1_555
C65_2 N17_2 1_555 1_555
H46_2 C65_2 1_555 1_555
N18_2 N19_2 1_555 1_555
N19_2 Co4_2 1_555 1_555
C66_2 C61_2 1_555 1_555
C67_2 C66_2 1_555 1_555
H47_2 C67_2 1_555 1_555
C68_2 N18_2 1_555 1_555
H48_2 C68_2 1_555 1_555
C69_2 N18_2 1_555 1_555
H49_2 C69_2 1_555 1_555
H50_2 C69_2 1_555 1_555
C70_2 C69_2 1_555 1_555
C71_2 C70_2 1_555 1_555
H51_2 C71_2 1_555 1_555
C72_2 C71_2 1_555 1_555
H52_2 C72_2 1_555 1_555
C73_2 C72_2 1_555 1_555
C74_2 C73_2 1_555 1_555
C75_2 C70_2 1_555 1_555
C76_2 C74_2 1_555 1_555
H53_2 C76_2 1_555 1_555
C77_2 C76_2 1_555 1_555
H54_2 C77_2 1_555 1_555
C78_2 C77_2 1_555 1_555
H55_2 C78_2 1_555 1_555
C79_2 C75_2 1_555 1_555
H56_2 C79_2 1_555 1_555
C80_2 C73_2 1_555 1_555
N20_2 C80_2 1_555 1_555
Co6 N21_2 1_555 1_555
N21_2 C81_2 1_555 1_555
N23_2 Co4_2 1_555 1_555
N24_2 Co4_2 1_555 1_555
C81_2 C83_2 1_555 1_555
C83_2 H57_2 1_555 1_555
C85_2 C83_2 1_555 1_555
H59_2 C85_2 1_555 1_555
C87_2 C85_2 1_555 1_555
H61_2 C87_2 1_555 1_555
C89_2 N21_2 1_555 1_555
H63_2 C89_2 1_555 1_555
N25_2 N27_2 1_555 1_555
N27_2 Co6 1_555 1_555
N29_2 Co4_2 1_555 1_555
N30_2 Co4_2 1_555 1_555
C91_2 C81_2 1_555 1_555
C93_2 C91_2 1_555 1_555
H65_2 C93_2 1_555 1_555
C95_2 N25_2 1_555 1_555
H67_2 C95_2 1_555 1_555
C97_2 N25_2 1_555 1_555
H69_2 C97_2 1_555 1_555
H71_2 C97_2 1_555 1_555
C99_2 C97_2 1_555 1_555
C101_2 C99_2 1_555 1_555
H73_2 C101_2 1_555 1_555
C103_2 C101_2 1_555 1_555
H75_2 C103_2 1_555 1_555
H76_2 C104_2 1_555 1_555
C105_2 C103_2 1_555 1_555
C106_2 C104_2 1_555 1_555
C107_2 C105_2 1_555 1_555
C108_2 C106_2 1_555 1_555
C109_2 C99_2 1_555 1_555
C111_2 C107_2 1_555 1_555
C112_2 C108_2 1_555 1_555
H77_2 C111_2 1_555 1_555
H78_2 C112_2 1_555 1_555
C113_2 C111_2 1_555 1_555
C114_2 C112_2 1_555 1_555
H79_2 C113_2 1_555 1_555
H80_2 C114_2 1_555 1_555
C115_2 C113_2 1_555 1_555
H81_2 C115_2 1_555 1_555
C117_2 C109_2 1_555 1_555
H83_2 C117_2 1_555 1_555
C119_2 C105_2 1_555 1_555
C120_2 C106_2 1_555 1_555
N31_2 Ag2_2 1_555 1_555
N32_2 Ag2_2 1_555 1_555
N19_2 C66_2 1_555 1_555
C67_2 C68_2 1_555 1_555
C74_2 C75_2 1_555 1_555
C78_2 C79_2 1_555 1_555
C87_2 C89_2 1_555 1_555
N27_2 C91_2 1_555 1_555
C93_2 C95_2 1_555 1_555
C107_2 C109_2 1_555 1_555
C115_2 C117_2 1_555 1_555
C119_2 N31_2 1_555 1_555
C120_2 N32_2 1_555 1_555
Co5 N22_2 1_555 1_555
N22_2 C82_2 1_555 1_555
C90_2 N22_2 1_555 1_555
H64_2 C90_2 1_555 1_555
N26_2 N28_2 1_555 1_555
N28_2 Co5 1_555 1_555
C92_2 C82_2 1_555 1_555
C94_2 C92_2 1_555 1_555
H66_2 C94_2 1_555 1_555
C96_2 N26_2 1_555 1_555
H68_2 C96_2 1_555 1_555
C98_2 N26_2 1_555 1_555
H70_2 C98_2 1_555 1_555
H72_2 C98_2 1_555 1_555
C100_2 C98_2 1_555 1_555
C102_2 C100_2 1_555 1_555
H74_2 C102_2 1_555 1_555
C110_2 C100_2 1_555 1_555
H82_2 C116_2 1_555 1_555
C118_2 C110_2 1_555 1_555
H84_2 C118_2 1_555 1_555
N28_2 C92_2 1_555 1_555
C94_2 C96_2 1_555 1_555
C116_2 C118_2 1_555 1_555
Co5 N17_3 1_555 1_555
N17_3 C61_3 1_555 1_555
C61_3 C62 1_555 1_555
C62 H43 1_555 1_555
C63 C62 1_555 1_555
H44 C63 1_555 1_555
C64 C63 1_555 1_555
H45 C64 1_555 1_555
C65_3 N17_3 1_555 1_555
H46_3 C65_3 1_555 1_555
N18_3 N19_3 1_555 1_555
N19_3 Co5 1_555 1_555
C66_3 C61_3 1_555 1_555
C67_3 C66_3 1_555 1_555
H47_3 C67_3 1_555 1_555
C68_3 N18_3 1_555 1_555
H48_3 C68_3 1_555 1_555
C69_3 N18_3 1_555 1_555
H49_3 C69_3 1_555 1_555
H50_3 C69_3 1_555 1_555
C70_3 C69_3 1_555 1_555
C71_3 C70_3 1_555 1_555
H51_3 C71_3 1_555 1_555
C75_3 C70_3 1_555 1_555
H55_3 C78_3 1_555 1_555
C79_3 C75_3 1_555 1_555
H56_3 C79_3 1_555 1_555
C64 C65_3 1_555 1_555
N19_3 C66_3 1_555 1_555
C67_3 C68_3 1_555 1_555
C78_3 C79_3 1_555 1_555
N23 C81_3 1_555 1_555
C81_3 C83_3 1_555 1_555
C83_3 H57_3 1_555 1_555
C85_3 C83_3 1_555 1_555
H59_3 C85_3 1_555 1_555
C87_3 C85_3 1_555 1_555
H61_3 C87_3 1_555 1_555
C89_3 N23 1_555 1_555
H63_3 C89_3 1_555 1_555
N25_3 N29 1_555 1_555
C91_3 C81_3 1_555 1_555
C93_3 C91_3 1_555 1_555
H65_3 C93_3 1_555 1_555
C95_3 N25_3 1_555 1_555
H67_3 C95_3 1_555 1_555
C97_3 N25_3 1_555 1_555
H69_3 C97_3 1_555 1_555
H71_3 C97_3 1_555 1_555
C99_3 C97_3 1_555 1_555
C101_3 C99_3 1_555 1_555
H73_3 C101_3 1_555 1_555
C109_3 C99_3 1_555 1_555
H81_3 C115_3 1_555 1_555
C117_3 C109_3 1_555 1_555
H83_3 C117_3 1_555 1_555
C87_3 C89_3 1_555 1_555
N29 C91_3 1_555 1_555
C93_3 C95_3 1_555 1_555
C115_3 C117_3 1_555 1_555
N24_2 C82_3 1_555 1_555
C82_3 C84_2 1_555 1_555
C84_2 H58_2 1_555 1_555
C86_2 C84_2 1_555 1_555
H60_2 C86_2 1_555 1_555
C88_2 C86_2 1_555 1_555
H62_2 C88_2 1_555 1_555
C90_3 N24_2 1_555 1_555
H64_3 C90_3 1_555 1_555
N26_3 N30_2 1_555 1_555
C92_3 C82_3 1_555 1_555
C94_3 C92_3 1_555 1_555
H66_3 C94_3 1_555 1_555
C96_3 N26_3 1_555 1_555
H68_3 C96_3 1_555 1_555
C98_3 N26_3 1_555 1_555
H70_3 C98_3 1_555 1_555
H72_3 C98_3 1_555 1_555
C100_3 C98_3 1_555 1_555
C102_3 C100_3 1_555 1_555
H74_3 C102_3 1_555 1_555
C110_3 C100_3 1_555 1_555
H82_3 C116_3 1_555 1_555
C118_3 C110_3 1_555 1_555
H84_3 C118_3 1_555 1_555
C88_2 C90_3 1_555 1_555
N30_2 C92_3 1_555 1_555
C94_3 C96_3 1_555 1_555
C116_3 C118_3 1_555 1_555
Ag2_3 N20_3 1_555 1_555
Co6 N17_4 1_555 1_555
N17_4 C61_4 1_555 1_555
C61_4 C62_2 1_555 1_555
C62_2 H43_2 1_555 1_555
C63_2 C62_2 1_555 1_555
H44_2 C63_2 1_555 1_555
C64_2 C63_2 1_555 1_555
H45_2 C64_2 1_555 1_555
C65_4 N17_4 1_555 1_555
H46_4 C65_4 1_555 1_555
N18_4 N19_4 1_555 1_555
N19_4 Co6 1_555 1_555
C66_4 C61_4 1_555 1_555
C67_4 C66_4 1_555 1_555
H47_4 C67_4 1_555 1_555
C68_4 N18_4 1_555 1_555
H48_4 C68_4 1_555 1_555
C69_4 N18_4 1_555 1_555
H49_4 C69_4 1_555 1_555
H50_4 C69_4 1_555 1_555
C70_4 C69_4 1_555 1_555
C71_4 C70_4 1_555 1_555
H51_4 C71_4 1_555 1_555
C72_3 C71_4 1_555 1_555
H52_3 C72_3 1_555 1_555
C73_3 C72_3 1_555 1_555
C74_3 C73_3 1_555 1_555
C75_4 C70_4 1_555 1_555
C76_3 C74_3 1_555 1_555
H53_3 C76_3 1_555 1_555
C77_3 C76_3 1_555 1_555
H54_3 C77_3 1_555 1_555
C78_4 C77_3 1_555 1_555
H55_4 C78_4 1_555 1_555
C79_4 C75_4 1_555 1_555
H56_4 C79_4 1_555 1_555
C80_3 C73_3 1_555 1_555
N20_3 C80_3 1_555 1_555
N24 C82_4 1_555 1_555
C90_4 N24 1_555 1_555
H64_4 C90_4 1_555 1_555
N26_4 N30 1_555 1_555
C92_4 C82_4 1_555 1_555
C94_4 C92_4 1_555 1_555
H66_4 C94_4 1_555 1_555
C96_4 N26_4 1_555 1_555
H68_4 C96_4 1_555 1_555
C98_4 N26_4 1_555 1_555
H70_4 C98_4 1_555 1_555
H72_4 C98_4 1_555 1_555
C100_4 C98_4 1_555 1_555
C102_4 C100_4 1_555 1_555
H74_4 C102_4 1_555 1_555
C104_3 C102_4 1_555 1_555
H75_3 C103_3 1_555 1_555
H76_3 C104_3 1_555 1_555
C105_3 C103_3 1_555 1_555
C106_3 C104_3 1_555 1_555
C107_3 C105_3 1_555 1_555
C108_3 C106_3 1_555 1_555
C110_4 C100_4 1_555 1_555
C111_3 C107_3 1_555 1_555
C112_3 C108_3 1_555 1_555
H77_3 C111_3 1_555 1_555
H78_3 C112_3 1_555 1_555
C113_3 C111_3 1_555 1_555
C114_3 C112_3 1_555 1_555
H79_3 C113_3 1_555 1_555
H80_3 C114_3 1_555 1_555
C116_4 C114_3 1_555 1_555
H82_4 C116_4 1_555 1_555
C118_4 C110_4 1_555 1_555
H84_4 C118_4 1_555 1_555
C119_3 C105_3 1_555 1_555
C120_3 C106_3 1_555 1_555
N31_3 Ag2_3 1_555 1_555
N32_3 Ag2_3 1_555 1_555
C64_2 C65_4 1_555 1_555
N19_4 C66_4 1_555 1_555
C67_4 C68_4 1_555 1_555
C74_3 C75_4 1_555 1_555
C78_4 C79_4 1_555 1_555
N30 C92_4 1_555 1_555
C94_4 C96_4 1_555 1_555
C108_3 C110_4 1_555 1_555
C116_4 C118_4 1_555 1_555
C119_3 N31_3 1_555 1_555
C120_3 N32_3 1_555 1_555
N23_2 C81_4 1_555 1_555
C89_4 N23_2 1_555 1_555
H63_4 C89_4 1_555 1_555
N25_4 N29_2 1_555 1_555
C91_4 C81_4 1_555 1_555
C93_4 C91_4 1_555 1_555
H65_4 C93_4 1_555 1_555
C95_4 N25_4 1_555 1_555
H67_4 C95_4 1_555 1_555
C97_4 N25_4 1_555 1_555
H69_4 C97_4 1_555 1_555
H71_4 C97_4 1_555 1_555
C99_4 C97_4 1_555 1_555
C101_4 C99_4 1_555 1_555
H73_4 C101_4 1_555 1_555
C109_4 C99_4 1_555 1_555
H81_4 C115_4 1_555 1_555
C117_4 C109_4 1_555 1_555
H83_4 C117_4 1_555 1_555
N29_2 C91_4 1_555 1_555
C93_4 C95_4 1_555 1_555
C115_4 C117_4 1_555 1_555
C62_3 H43_3 1_555 1_555
C63_3 C62_3 1_555 1_555
H44_3 C63_3 1_555 1_555
C64_3 C63_3 1_555 1_555
H45_3 C64_3 1_555 1_555
C62_4 H43_4 1_555 1_555
C63_4 C62_4 1_555 1_555
H44_4 C63_4 1_555 1_555
C64_4 C63_4 1_555 1_555
H45_4 C64_4 1_555 1_555
C84_3 H58_3 1_555 1_555
C86_3 C84_3 1_555 1_555
H60_3 C86_3 1_555 1_555
C88_3 C86_3 1_555 1_555
H62_3 C88_3 1_555 1_555
Ag2_4 N20_4 1_555 1_555
H52_4 C72_4 1_555 1_555
C73_4 C72_4 1_555 1_555
C74_4 C73_4 1_555 1_555
C76_4 C74_4 1_555 1_555
H53_4 C76_4 1_555 1_555
C77_4 C76_4 1_555 1_555
H54_4 C77_4 1_555 1_555
C80_4 C73_4 1_555 1_555
N20_4 C80_4 1_555 1_555
H75_4 C103_4 1_555 1_555
H76_4 C104_4 1_555 1_555
C105_4 C103_4 1_555 1_555
C106_4 C104_4 1_555 1_555
C107_4 C105_4 1_555 1_555
C108_4 C106_4 1_555 1_555
C111_4 C107_4 1_555 1_555
C112_4 C108_4 1_555 1_555
H77_4 C111_4 1_555 1_555
H78_4 C112_4 1_555 1_555
C113_4 C111_4 1_555 1_555
C114_4 C112_4 1_555 1_555
H79_4 C113_4 1_555 1_555
H80_4 C114_4 1_555 1_555
C119_4 C105_4 1_555 1_555
C120_4 C106_4 1_555 1_555
N31_4 Ag2_4 1_555 1_555
N32_4 Ag2_4 1_555 1_555
C119_4 N31_4 1_555 1_555
C120_4 N32_4 1_555 1_555
C84_4 H58_4 1_555 1_555
C86_4 C84_4 1_555 1_555
H60_4 C86_4 1_555 1_555
C88_4 C86_4 1_555 1_555
H62_4 C88_4 1_555 1_555
C83_4 H57_4 1_555 1_555
C85_4 C83_4 1_555 1_555
H59_4 C85_4 1_555 1_555
C87_4 C85_4 1_555 1_555
H61_4 C87_4 1_555 1_555
B1 F1 1_555 1_555
F2 B1 1_555 1_555
F3 B1 1_555 1_555
F4 B1 1_555 1_555
B1_2 F1_2 1_555 1_555
F2_2 B1_2 1_555 1_555
F3_2 B1_2 1_555 1_555
F4_2 B1_2 1_555 1_555
B1_3 F1_3 1_555 1_555
F2_3 B1_3 1_555 1_555
F3_3 B1_3 1_555 1_555
F4_3 B1_3 1_555 1_555
B1_4 F1_4 1_555 1_555
F2_4 B1_4 1_555 1_555
F3_4 B1_4 1_555 1_555
F4_4 B1_4 1_555 1_555
B1_5 F1_5 1_555 1_555
F2_5 B1_5 1_555 1_555
F3_5 B1_5 1_555 1_555
F4_5 B1_5 1_555 1_555
B1_6 F1_6 1_555 1_555
F2_6 B1_6 1_555 1_555
F3_6 B1_6 1_555 1_555
F4_6 B1_6 1_555 1_555
B1_7 F1_7 1_555 1_555
F2_7 B1_7 1_555 1_555
F3_7 B1_7 1_555 1_555
F4_7 B1_7 1_555 1_555
B1_8 F1_8 1_555 1_555
F2_8 B1_8 1_555 1_555
F3_8 B1_8 1_555 1_555
F4_8 B1_8 1_555 1_555
B1_9 F1_9 1_555 1_555
F2_9 B1_9 1_555 1_555
F3_9 B1_9 1_555 1_555
F4_9 B1_9 1_555 1_555
B1_10 F1_10 1_555 1_555
F2_10 B1_10 1_555 1_555
F3_10 B1_10 1_555 1_555
F4_10 B1_10 1_555 1_555
B1_11 F1_11 1_555 1_555
F2_11 B1_11 1_555 1_555
F3_11 B1_11 1_555 1_555
F4_11 B1_11 1_555 1_555
B1_12 F1_12 1_555 1_555
F2_12 B1_12 1_555 1_555
F3_12 B1_12 1_555 1_555
F4_12 B1_12 1_555 1_555
F7 B2 1_555 1_555
F8_2 B2_2 1_555 1_555
B2_3 F5_3 1_555 1_555
B2_4 F5_4 1_555 1_555
F6_4 B2_4 1_555 1_555
F7_4 B2_4 1_555 1_555
F8_4 B2_4 1_555 1_555
B3 F9 1_555 1_555
F10 B3 1_555 1_555
F11 B3 1_555 1_555
F12 B3 1_555 1_555
B3_2 F9_2 1_555 1_555
F10_2 B3_2 1_555 1_555
F11_2 B3_2 1_555 1_555
F12_2 B3_2 1_555 1_555
B3_3 F9_3 1_555 1_555
F10_3 B3_3 1_555 1_555
F11_3 B3_3 1_555 1_555
F12_3 B3_3 1_555 1_555
B3_4 F9_4 1_555 1_555
F10_4 B3_4 1_555 1_555
F11_4 B3_4 1_555 1_555
F12_4 B3_4 1_555 1_555

#END
