
###############################################################################
#
# This file contains modified crystal structure data generated from the
# MOF subset of the Cambridge Structural Database (CSD) v543 
# hosted by the Cambridge Crystallographic Data Centre (CCDC).
#
# This work is licensed under the Creative Commons
# Attribution-NonCommercial-ShareAlike 4.0 International License.
# To view a copy of this license, visit
# http://creativecommons.org/licenses/by-nc-sa/4.0/
# or send a letter to
# Creative Commons, PO Box 1866, Mountain View, CA 94042, USA.
#
# CIF created using the CSD Python API on 29 September 2022
# The structure has been converted into the P1 space group
# The structure has a 3D framework
# The original CSD entry DABGIZ is in the monoclinic crystal system
# The framework has been calculated to contain at least 10.0% void space
# The void calculation uses a probe of radius 1.32A, grid spacing 0.4
# H atom positions have been added when not included in the experimental data
# Generated hydrogen atom positions removed from atoms on special positions
#
###############################################################################

data_DABGIZ
_chemical_formula_moiety         '(C120 H128 Cd12 Mo32 N24 O144 P16)n'
_symmetry_cell_setting           triclinic
_symmetry_space_group_name_H-M   'P 1'
_symmetry_Int_Tables_number      1
_space_group_name_Hall           'P 1'
loop_
_symmetry_equiv_pos_site_id
_symmetry_equiv_pos_as_xyz
1 x,y,z
_cell_length_a                   12.9676(8)
_cell_length_b                   16.1701(11)
_cell_length_c                   30.9055(15)
_cell_angle_alpha                90
_cell_angle_beta                 91.249(2)
_cell_angle_gamma                90
_cell_volume                     6478.95
loop_
_atom_site_label
_atom_site_type_symbol
_atom_site_fract_x
_atom_site_fract_y
_atom_site_fract_z
C2 C 0.1490(12) 0.0151(9) 0.0295(5)
H2 H 0.1932 0.0439 0.0115
C3 C 0.0709(12) 0.0564(10) 0.0510(5)
H3 H 0.0576 0.1120 0.0457
C4 C 0.0140(11) 0.0127(7) 0.0802(5)
H22 H 0.0475 0.0558 0.2860
H23 H 0.2132 0.0038 0.2863
Mo4 Mo 0.36347(4) 0.67420(3) 0.066291(18)
Mo5 Mo 0.33325(4) 0.46690(4) 0.101793(17)
Mo6 Mo 0.30469(4) 0.34601(4) 0.046470(18)
Mo7 Mo 0.19492(5) 0.65353(4) 0.236909(19)
Mo8 Mo 0.10979(5) 0.68964(4) 0.307907(18)
Cd2 Cd 0.5000 0.5000 0.0000
Cd3 Cd 0.10592(4) 0.74769(3) 0.066064(17)
P1 P 0.20921(12) 0.53497(10) 0.00865(5)
P2 P 0.17620(13) 0.61760(11) 0.13060(5)
O7 O 0.4374(3) 0.6287(3) 0.01662(15)
O8 O 0.2578(4) 0.7304(3) 0.03113(15)
O9 O 0.2543(4) 0.6830(3) 0.11383(15)
O10 O 0.2598(3) 0.5591(3) 0.05216(14)
O11 O 0.4231(3) 0.5757(3) 0.10185(16)
O12 O 0.4427(4) 0.7484(3) 0.08410(16)
O13 O 0.4125(4) 0.4316(3) 0.05126(15)
O14 O 0.2162(3) 0.3972(3) 0.08802(15)
O16 O 0.3619(4) 0.2665(3) 0.07177(18)
O23 O 0.2289(4) 0.5337(3) 0.13614(15)
O24 O 0.3953(4) 0.4206(3) 0.14346(16)
O25 O 0.0925(4) 0.5415(3) 0.00608(15)
O26 O 0.0854(4) 0.6197(3) 0.09843(15)
O27 O 0.0219(4) 0.4332(4) 0.09804(19)
O31 O 0.0598(4) 0.6954(3) 0.24839(15)
O32 O 0.2507(4) 0.6998(3) 0.29073(16)
O33 O 0.1384(4) 0.6455(3) 0.17449(15)
O34 O 0.2022(5) 0.5504(3) 0.24436(19)
O36 O 0.0799(5) 0.5924(3) 0.32364(19)
N1 N 0.1068(6) 0.8883(5) 0.0632(3)
N3 N 0.2377(6) 0.7800(4) 0.2071(2)
N4 N 0.3587(5) 0.6499(5) 0.2154(2)
N6 N 0.0929(5) 0.8335(4) 0.3036(2)
C1 C 0.1601(10) 0.9293(7) 0.0353(4)
H1 H 0.2071 0.9009 0.0185
C9 C 0.0335(9) 0.9259(6) 0.0859(3)
C11 C 0.1704(9) 0.8388(6) 0.1998(3)
H9 H 0.1027 0.8306 0.2083
C12 C 0.1963(12) 0.9152(8) 0.1795(4)
H10 H 0.1494 0.9582 0.1755
C13 C 0.2966(13) 0.9196(10) 0.1662(6)
H11 H 0.3182 0.9679 0.1528
C14 C 0.3669(13) 0.8567(9) 0.1716(5)
H12 H 0.4333 0.8612 0.1611
C15 C 0.5123(10) 0.7153(10) 0.1887(4)
H13 H 0.5447 0.7616 0.1774
C16 C 0.5649(12) 0.6450(9) 0.1947(5)
H14 H 0.6342 0.6429 0.1878
C17 C 0.5194(11) 0.5775(9) 0.2106(5)
H15 H 0.5568 0.5291 0.2151
C18 C 0.4140(8) 0.5813(8) 0.2202(4)
H16 H 0.3818 0.5339 0.2303
C19 C 0.3364(8) 0.7878(7) 0.1928(3)
C20 C 0.4045(8) 0.7188(8) 0.1998(3)
C26 C 0.0592(10) 0.9998(6) 0.2907(4)
C27 C 0.1574(8) 0.9691(5) 0.2910(3)
C28 C 0.1723(7) 0.8852(5) 0.2982(3)
H24 H 0.2392 0.8644 0.2995
O51 O 0.1723(4) 0.2864(3) 0.02644(16)
O73 O 0.6067(3) 0.5264(3) 0.05888(15)
O77 O 0.1642(5) 0.7159(3) 0.37009(17)
Mo1 Mo 0.27865(4) 0.39430(3) 0.934461(17)
Mo2 Mo 0.30006(4) 0.54740(3) 0.907692(17)
Mo3 Mo 0.35138(4) 0.70763(3) 0.983626(18)
Cd2_2 Cd 0.5000 0.5000 1.0000
P4 P 0.16830(13) 0.72564(11) 0.90813(5)
O1 O 0.1793(3) 0.4760(3) 0.91327(14)
O2 O 0.3933(3) 0.4736(3) 0.94112(15)
O3 O 0.2403(3) 0.4445(3) 0.99934(13)
O5 O 0.3528(4) 0.3216(3) 0.98259(14)
O6 O 0.3105(4) 0.3367(3) 0.89196(17)
O17 O 0.2556(3) 0.5915(3) 0.97377(14)
O18 O 0.3986(3) 0.6449(3) 0.92689(15)
O19 O 0.1962(4) 0.6395(3) 0.89321(16)
O20 O 0.3431(4) 0.5344(3) 0.85768(16)
O21 O 0.2402(4) 0.7585(3) 0.94369(16)
O22 O 0.4309(4) 0.7882(3) 0.98181(17)
O30 O 0.0569(4) 0.7204(4) 0.92629(18)
O35 O 0.1642(5) 0.7841(3) 0.87009(17)
Cd4 Cd 0.02210(4) 0.45947(3) 0.942833(16)
P7 P 0.11485(13) 0.26976(11) 0.98432(6)
O40 O 0.1379(4) 0.3363(3) 0.95002(15)
O64 O 0.0003(4) 0.2668(3) 0.99092(16)
O65 O 0.1464(5) 0.1835(3) 0.96655(19)
N8 N 0.0085(5) 0.2045(4) 0.8824(2)
N11 N 0.0537(6) 0.2736(4) 0.6781(2)
C35 C 0.0951(11) 0.0889(7) 0.8548(5)
H29 H 0.1064 0.0321 0.8554
C36 C 0.1459(13) 0.1368(10) 0.8260(6)
H30 H 0.1932 0.1135 0.8074
C37 C 0.1254(10) 0.2242(8) 0.8249(4)
H31 H 0.1570 0.2593 0.8053
C38 C 0.0565(7) 0.2524(6) 0.8543(3)
H32 H 0.0423 0.3088 0.8547
C40 C 0.0273(7) 0.1238(6) 0.8830(3)
C51 C 0.1249(9) 0.3299(7) 0.6676(4)
H41 H 0.1034 0.3837 0.6619
C52 C 0.2267(10) 0.3120(9) 0.6650(5)
H42 H 0.2742 0.3522 0.6572
C53 C 0.2568(10) 0.2337(9) 0.6743(5)
H43 H 0.3264 0.2201 0.6737
C54 C 0.1867(8) 0.1744(7) 0.6844(4)
H44 H 0.2079 0.1204 0.6900
C55 C 0.0223(9) 0.0529(6) 0.7024(4)
H45 H 0.0897 0.0332 0.7024
C59 C 0.0844(7) 0.1956(5) 0.6862(3)
C60 C 0.0016(7) 0.1359(5) 0.6954(3)
Mo18 Mo 0.10979(5) 0.81036(4) 0.807907(18)
O74 O 0.5626(3) 0.3713(3) 0.98338(15)
O75 O 0.5875(4) 0.5684(3) 0.94874(15)
H50 H 0.0561659 0.680752 0.950817
H55 H 0.221214 0.183505 0.960349
Cd1 Cd 0.97790(4) 0.54053(3) 0.057167(16)
P3 P 0.88515(13) 0.73024(11) 0.01568(6)
O4 O 0.8621(4) 0.6637(3) 0.04998(15)
O28 O 0.9997(4) 0.7332(3) 0.00908(16)
O29 O 0.8536(5) 0.8165(3) 0.03345(19)
N2 N 0.9915(5) 0.7955(4) 0.1176(2)
N5 N 0.9463(6) 0.7264(4) 0.3219(2)
C5 C 0.9049(11) 0.9111(7) 0.1452(5)
H5 H 0.8936 0.9679 0.1446
C6 C 0.8541(13) 0.8632(10) 0.1740(6)
H6 H 0.8068 0.8865 0.1926
C7 C 0.8746(10) 0.7758(8) 0.1751(4)
H7 H 0.8430 0.7407 0.1947
C8 C 0.9435(7) 0.7476(6) 0.1457(3)
H8 H 0.9577 0.6912 0.1453
C10 C 0.9727(7) 0.8762(6) 0.1170(3)
C21 C 0.8751(9) 0.6701(7) 0.3324(4)
H17 H 0.8966 0.6163 0.3381
C22 C 0.7733(10) 0.6880(9) 0.3350(5)
H18 H 0.7258 0.6478 0.3428
C23 C 0.7432(10) 0.7663(9) 0.3257(5)
H19 H 0.6736 0.7799 0.3263
C24 C 0.8133(8) 0.8256(7) 0.3156(4)
H20 H 0.7921 0.8796 0.3100
C25 C 0.9777(9) 0.9471(6) 0.2976(4)
H21 H 0.9103 0.9668 0.2976
C29 C 0.9156(7) 0.8044(5) 0.3138(3)
C30 C 0.9984(7) 0.8641(5) 0.3046(3)
Mo9 Mo 0.72135(4) 0.60570(3) 0.065539(17)
Mo10 Mo 0.69994(4) 0.45260(3) 0.092308(17)
Mo11 Mo 0.64862(4) 0.29237(3) 0.016374(18)
P8 P 0.83170(13) 0.27436(11) 0.09187(5)
O37 O 0.8207(3) 0.5240(3) 0.08673(14)
O39 O 0.7597(3) 0.5555(3) 0.00066(13)
O41 O 0.6472(4) 0.6784(3) 0.01741(14)
O42 O 0.6895(4) 0.6633(3) 0.10804(17)
O53 O 0.7444(3) 0.4085(3) 0.02623(14)
O54 O 0.6014(3) 0.3551(3) 0.07311(15)
O55 O 0.8038(4) 0.3605(3) 0.10679(16)
O56 O 0.6569(4) 0.4656(3) 0.14232(16)
O57 O 0.7598(4) 0.2415(3) 0.05631(16)
O58 O 0.5691(4) 0.2118(3) 0.01819(17)
O66 O 0.9431(4) 0.2796(4) 0.07371(18)
O71 O 0.8358(5) 0.2159(3) 0.12991(17)
Mo17 Mo 0.89021(5) 0.18964(4) 0.192093(18)
H49 H 0.893683 0.828383 0.0604808
H51 H 0.961035 0.396777 0.101643
H56 H 0.991601 0.29876 0.0969112
O15 O 0.8277(4) 0.7136(3) 0.97356(16)
Mo12 Mo 0.63653(4) 0.32580(3) 0.933709(18)
Mo13 Mo 0.66675(4) 0.53310(4) 0.898207(17)
Mo14 Mo 0.69531(4) 0.65399(4) 0.953530(18)
Mo15 Mo 0.80508(5) 0.34647(4) 0.763091(19)
Mo16 Mo 0.89021(5) 0.31036(4) 0.692093(18)
Cd5 Cd 0.89408(4) 0.25231(3) 0.933936(17)
P5 P 0.79079(12) 0.46503(10) 0.99135(5)
P6 P 0.82380(13) 0.38240(11) 0.86940(5)
O44 O 0.7422(4) 0.2696(3) 0.96887(15)
O45 O 0.7457(4) 0.3170(3) 0.88617(15)
O46 O 0.7402(3) 0.4409(3) 0.94784(14)
O47 O 0.5769(3) 0.4243(3) 0.89815(16)
O48 O 0.5573(4) 0.2516(3) 0.91590(16)
O50 O 0.7838(3) 0.6028(3) 0.91198(15)
O52 O 0.6381(4) 0.7335(3) 0.92823(18)
O59 O 0.7711(4) 0.4663(3) 0.86386(15)
O60 O 0.6047(4) 0.5794(3) 0.85654(16)
O61 O 0.9075(4) 0.4585(3) 0.99392(15)
O62 O 0.9146(4) 0.3803(3) 0.90157(15)
O63 O 0.9781(4) 0.5668(4) 0.90196(19)
O67 O 0.9402(4) 0.3046(3) 0.75161(15)
O68 O 0.7493(4) 0.3002(3) 0.70927(16)
O69 O 0.8616(4) 0.3545(3) 0.82551(15)
O70 O 0.7978(5) 0.4496(3) 0.75564(19)
O72 O 0.9201(5) 0.4076(3) 0.67636(19)
N7 N 0.8932(6) 0.1117(5) 0.9368(3)
N9 N 0.7623(6) 0.2200(4) 0.7929(2)
N10 N 0.6413(5) 0.3501(5) 0.7846(2)
N12 N 0.9071(5) 0.1665(4) 0.6964(2)
C31 C 0.8399(10) 0.0707(7) 0.9647(4)
H25 H 0.7929 0.0991 0.9815
C39 C 0.9665(9) 0.0741(6) 0.9141(3)
C41 C 0.8296(9) 0.1612(6) 0.8002(3)
H33 H 0.8973 0.1694 0.7917
C42 C 0.8037(12) 0.0848(8) 0.8205(4)
H34 H 0.8506 0.0418 0.8245
C43 C 0.7034(13) 0.0804(10) 0.8338(6)
H35 H 0.6818 0.0321 0.8472
C44 C 0.6331(13) 0.1433(9) 0.8284(5)
H36 H 0.5667 0.1388 0.8389
C45 C 0.4877(10) 0.2847(10) 0.8113(4)
H37 H 0.4553 0.2384 0.8226
C46 C 0.4351(12) 0.3550(9) 0.8053(5)
H38 H 0.3658 0.3571 0.8122
C47 C 0.4806(11) 0.4225(9) 0.7894(5)
H39 H 0.4432 0.4709 0.7849
C48 C 0.5860(8) 0.4187(8) 0.7798(4)
H40 H 0.6182 0.4661 0.7697
C49 C 0.6636(8) 0.2122(7) 0.8072(3)
C50 C 0.5955(8) 0.2812(8) 0.8002(3)
C56 C 0.9408(10) 0.0002(6) 0.7093(4)
C57 C 0.8426(8) 0.0309(5) 0.7090(3)
C58 C 0.8277(7) 0.1148(5) 0.7018(3)
H48 H 0.7608 0.1356 0.7005
O76 O 0.8358(5) 0.2841(3) 0.62991(17)
Cd1_2 Cd 0.02210(4) 0.04053(3) 0.442833(16)
P3_2 P 0.11485(13) 0.23024(11) 0.48432(6)
O4_2 O 0.1379(4) 0.1637(3) 0.45002(15)
O15_2 O 0.1723(4) 0.2136(3) 0.52644(16)
O28_2 O 0.0003(4) 0.2332(3) 0.49092(16)
O29_2 O 0.1464(5) 0.3165(3) 0.46655(19)
N2_2 N 0.0085(5) 0.2955(4) 0.3824(2)
N5_2 N 0.0537(6) 0.2264(4) 0.1781(2)
H4 H 0.0364 0.5390 0.4039
C5_2 C 0.0951(11) 0.4111(7) 0.3548(5)
H5_2 H 0.1064 0.4679 0.3554
C6_2 C 0.1459(13) 0.3632(10) 0.3260(6)
H6_2 H 0.1932 0.3865 0.3074
C7_2 C 0.1254(10) 0.2758(8) 0.3249(4)
H7_2 H 0.1570 0.2407 0.3053
C8_2 C 0.0565(7) 0.2476(6) 0.3543(3)
H8_2 H 0.0423 0.1912 0.3547
C10_2 C 0.0273(7) 0.3762(6) 0.3830(3)
C21_2 C 0.1249(9) 0.1701(7) 0.1676(4)
H17_2 H 0.1034 0.1163 0.1619
C22_2 C 0.2267(10) 0.1880(9) 0.1650(5)
H18_2 H 0.2742 0.1478 0.1572
C23_2 C 0.2568(10) 0.2663(9) 0.1743(5)
H19_2 H 0.3264 0.2799 0.1737
C24_2 C 0.1867(8) 0.3256(7) 0.1844(4)
H20_2 H 0.2079 0.3796 0.1900
C25_2 C 0.0223(9) 0.4471(6) 0.2024(4)
H21_2 H 0.0897 0.4668 0.2024
C29_2 C 0.0844(7) 0.3044(5) 0.1862(3)
C30_2 C 0.0016(7) 0.3641(5) 0.1954(3)
Mo9_2 Mo 0.27865(4) 0.10570(3) 0.434461(17)
Mo13_2 Mo 0.33325(4) 0.03310(4) 0.601793(17)
Mo14_2 Mo 0.30469(4) 0.15399(4) 0.546470(18)
O37_2 O 0.1793(3) 0.0240(3) 0.41327(14)
O38 O 0.3933(3) 0.0264(3) 0.44112(15)
O39_2 O 0.2403(3) 0.0555(3) 0.49934(13)
O41_2 O 0.3528(4) 0.1784(3) 0.48259(14)
O42_2 O 0.3105(4) 0.1633(3) 0.39196(17)
O49 O 0.4125(4) 0.0684(3) 0.55126(15)
O50_2 O 0.2162(3) 0.1028(3) 0.58802(15)
O52_2 O 0.3619(4) 0.2335(3) 0.57177(18)
O60_2 O 0.3953(4) 0.0794(3) 0.64346(16)
O63_2 O 0.0219(4) 0.0668(4) 0.59804(19)
Cd6 Cd 0.5000 0.0000 0.5000
H49_2 H 0.106317 0.328383 0.439519
Mo10_2 Mo 0.30006(4) 0.95260(3) 0.407692(17)
Mo11_2 Mo 0.35138(4) 0.79237(3) 0.483626(18)
Mo12_2 Mo 0.36347(4) 0.82580(3) 0.566291(18)
Mo15_2 Mo 0.19492(5) 0.84647(4) 0.736909(19)
Cd5_2 Cd 0.10592(4) 0.75231(3) 0.566064(17)
P5_2 P 0.20921(12) 0.96503(10) 0.50865(5)
P6_2 P 0.17620(13) 0.88240(11) 0.63060(5)
P8_2 P 0.16830(13) 0.77436(11) 0.40813(5)
O43 O 0.4374(3) 0.8713(3) 0.51662(15)
O44_2 O 0.2578(4) 0.7696(3) 0.53113(15)
O45_2 O 0.2543(4) 0.8170(3) 0.61383(15)
O46_2 O 0.2598(3) 0.9409(3) 0.55216(14)
O47_2 O 0.4231(3) 0.9243(3) 0.60185(16)
O48_2 O 0.4427(4) 0.7516(3) 0.58410(16)
O53_2 O 0.2556(3) 0.9085(3) 0.47377(14)
O54_2 O 0.3986(3) 0.8551(3) 0.42689(15)
O55_2 O 0.1962(4) 0.8605(3) 0.39321(16)
O56_2 O 0.3431(4) 0.9656(3) 0.35768(16)
O57_2 O 0.2402(4) 0.7415(3) 0.44369(16)
O58_2 O 0.4309(4) 0.7118(3) 0.48181(17)
O59_2 O 0.2289(4) 0.9663(3) 0.63614(15)
O61_2 O 0.0925(4) 0.9585(3) 0.50608(15)
O62_2 O 0.0854(4) 0.8803(3) 0.59843(15)
O66_2 O 0.0569(4) 0.7796(4) 0.42629(18)
O67_2 O 0.0598(4) 0.8046(3) 0.74839(15)
O68_2 O 0.2507(4) 0.8002(3) 0.79073(16)
O69_2 O 0.1384(4) 0.8545(3) 0.67449(15)
O70_2 O 0.2022(5) 0.9496(3) 0.74436(19)
O72_2 O 0.0799(5) 0.9076(3) 0.82364(19)
N7_2 N 0.1068(6) 0.6117(5) 0.5632(3)
N9_2 N 0.2377(6) 0.7200(4) 0.7071(2)
N10_2 N 0.3587(5) 0.8501(5) 0.7154(2)
N12_2 N 0.0929(5) 0.6665(4) 0.8036(2)
C31_2 C 0.1601(10) 0.5707(7) 0.5353(4)
H25_2 H 0.2071 0.5991 0.5185
C32 C 0.1490(12) 0.4849(9) 0.5295(5)
H26 H 0.1932 0.4561 0.5115
C33 C 0.0709(12) 0.4436(10) 0.5510(5)
H27 H 0.0576 0.3880 0.5457
C34 C 0.0140(11) 0.4873(7) 0.5802(5)
C39_2 C 0.0335(9) 0.5741(6) 0.5859(3)
C41_2 C 0.1704(9) 0.6612(6) 0.6998(3)
H33_2 H 0.1027 0.6694 0.7083
C42_2 C 0.1963(12) 0.5848(8) 0.6795(4)
H34_2 H 0.1494 0.5418 0.6755
C43_2 C 0.2966(13) 0.5804(10) 0.6662(6)
H35_2 H 0.3182 0.5321 0.6528
C44_2 C 0.3669(13) 0.6433(9) 0.6716(5)
H36_2 H 0.4333 0.6388 0.6611
C45_2 C 0.5123(10) 0.7847(10) 0.6887(4)
H37_2 H 0.5447 0.7384 0.6774
C46_2 C 0.5649(12) 0.8550(9) 0.6947(5)
H38_2 H 0.6342 0.8571 0.6878
C47_2 C 0.5194(11) 0.9225(9) 0.7106(5)
H39_2 H 0.5568 0.9709 0.7151
C48_2 C 0.4140(8) 0.9187(8) 0.7202(4)
H40_2 H 0.3818 0.9661 0.7303
C49_2 C 0.3364(8) 0.7122(7) 0.6928(3)
C50_2 C 0.4045(8) 0.7812(8) 0.6998(3)
C56_2 C 0.0592(10) 0.5002(6) 0.7907(4)
H46 H 0.0475 0.4442 0.7860
C57_2 C 0.1574(8) 0.5309(5) 0.7910(3)
H47 H 0.2132 0.4962 0.7863
C58_2 C 0.1723(7) 0.6148(5) 0.7982(3)
H48_2 H 0.2392 0.6356 0.7995
Cd6_2 Cd 0.5000 1.0000 0.5000
H51_2 H 0.0389646 0.896777 0.398357
H56_2 H 0.00839863 0.79876 0.403089
Mo2_2 Mo 0.69994(4) 0.04740(3) 0.592308(17)
Mo3_2 Mo 0.64862(4) 0.20763(3) 0.516374(18)
Mo4_2 Mo 0.63653(4) 0.17420(3) 0.433709(18)
Mo7_2 Mo 0.80508(5) 0.15353(4) 0.263091(19)
Cd3_2 Cd 0.89408(4) 0.24769(3) 0.433936(17)
P1_2 P 0.79079(12) 0.03497(10) 0.49135(5)
P2_2 P 0.82380(13) 0.11760(11) 0.36940(5)
P4_2 P 0.83170(13) 0.22564(11) 0.59187(5)
O7_2 O 0.5626(3) 0.1287(3) 0.48338(15)
O8_2 O 0.7422(4) 0.2304(3) 0.46887(15)
O9_2 O 0.7457(4) 0.1830(3) 0.38617(15)
O10_2 O 0.7402(3) 0.0591(3) 0.44784(14)
O11_2 O 0.5769(3) 0.0757(3) 0.39815(16)
O12_2 O 0.5573(4) 0.2484(3) 0.41590(16)
O17_2 O 0.7444(3) 0.0915(3) 0.52623(14)
O18_2 O 0.6014(3) 0.1449(3) 0.57311(15)
O19_2 O 0.8038(4) 0.1395(3) 0.60679(16)
O20_2 O 0.6569(4) 0.0344(3) 0.64232(16)
O21_2 O 0.7598(4) 0.2585(3) 0.55631(16)
O22_2 O 0.5691(4) 0.2882(3) 0.51819(17)
O23_2 O 0.7711(4) 0.0337(3) 0.36386(15)
O25_2 O 0.9075(4) 0.0415(3) 0.49392(15)
O26_2 O 0.9146(4) 0.1197(3) 0.40157(15)
O30_2 O 0.9431(4) 0.2204(4) 0.57371(18)
O31_2 O 0.9402(4) 0.1954(3) 0.25161(15)
O32_2 O 0.7493(4) 0.1998(3) 0.20927(16)
O33_2 O 0.8616(4) 0.1455(3) 0.32551(15)
O34_2 O 0.7978(5) 0.0504(3) 0.25564(19)
O36_2 O 0.9201(5) 0.0924(3) 0.17636(19)
N1_2 N 0.8932(6) 0.3883(5) 0.4368(3)
N3_2 N 0.7623(6) 0.2800(4) 0.2929(2)
N4_2 N 0.6413(5) 0.1499(5) 0.2846(2)
N6_2 N 0.9071(5) 0.3335(4) 0.1964(2)
C1_2 C 0.8399(10) 0.4293(7) 0.4647(4)
H1_2 H 0.7929 0.4009 0.4815
C2_2 C 0.8510(12) 0.5151(9) 0.4705(5)
H2_2 H 0.8068 0.5439 0.4885
C3_2 C 0.9291(12) 0.5564(10) 0.4490(5)
H3_2 H 0.9424 0.6120 0.4543
C4_2 C 0.9860(11) 0.5127(7) 0.4198(5)
C9_2 C 0.9665(9) 0.4259(6) 0.4141(3)
C11_2 C 0.8296(9) 0.3388(6) 0.3002(3)
H9_2 H 0.8973 0.3306 0.2917
C12_2 C 0.8037(12) 0.4152(8) 0.3205(4)
H10_2 H 0.8506 0.4582 0.3245
C13_2 C 0.7034(13) 0.4196(10) 0.3338(6)
H11_2 H 0.6818 0.4679 0.3472
C14_2 C 0.6331(13) 0.3567(9) 0.3284(5)
H12_2 H 0.5667 0.3612 0.3389
C15_2 C 0.4877(10) 0.2153(10) 0.3113(4)
H13_2 H 0.4553 0.2616 0.3226
C16_2 C 0.4351(12) 0.1450(9) 0.3053(5)
H14_2 H 0.3658 0.1429 0.3122
C17_2 C 0.4806(11) 0.0775(9) 0.2894(5)
H15_2 H 0.4432 0.0291 0.2849
C18_2 C 0.5860(8) 0.0813(8) 0.2798(4)
H16_2 H 0.6182 0.0339 0.2697
C19_2 C 0.6636(8) 0.2878(7) 0.3072(3)
C20_2 C 0.5955(8) 0.2188(8) 0.3002(3)
C26_2 C 0.9408(10) 0.4998(6) 0.2093(4)
H22_2 H 0.9525 0.5558 0.2140
C27_2 C 0.8426(8) 0.4691(5) 0.2090(3)
H23_2 H 0.7868 0.5038 0.2137
C28_2 C 0.8277(7) 0.3852(5) 0.2018(3)
H24_2 H 0.7608 0.3644 0.2005
H50_2 H 0.943834 0.180752 0.549183
Mo1_2 Mo 0.72135(4) 0.89430(3) 0.565539(17)
Mo5_2 Mo 0.66675(4) 0.96690(4) 0.398207(17)
Mo6_2 Mo 0.69531(4) 0.84601(4) 0.453530(18)
O1_2 O 0.8207(3) 0.9760(3) 0.58673(14)
O2_2 O 0.6067(3) 0.9736(3) 0.55888(15)
O3_2 O 0.7597(3) 0.9445(3) 0.50066(13)
O5_2 O 0.6472(4) 0.8216(3) 0.51741(14)
O6_2 O 0.6895(4) 0.8367(3) 0.60804(17)
O13_2 O 0.5875(4) 0.9316(3) 0.44874(15)
O14_2 O 0.7838(3) 0.8972(3) 0.41198(15)
O16_2 O 0.6381(4) 0.7665(3) 0.42823(18)
O24_2 O 0.6047(4) 0.9206(3) 0.35654(16)
O27_2 O 0.9781(4) 0.9332(4) 0.40196(19)
Cd4_2 Cd 0.97790(4) 0.95947(3) 0.557167(16)
P7_2 P 0.88515(13) 0.76976(11) 0.51568(6)
O40_2 O 0.8621(4) 0.8363(3) 0.54998(15)
O51_2 O 0.8277(4) 0.7864(3) 0.47356(16)
O64_2 O 0.9997(4) 0.7668(3) 0.50908(16)
O65_2 O 0.8536(5) 0.6835(3) 0.53345(19)
N8_2 N 0.9915(5) 0.7045(4) 0.6176(2)
N11_2 N 0.9463(6) 0.7736(4) 0.8219(2)
H28 H 0.9636 0.4610 0.5961
C35_2 C 0.9049(11) 0.5889(7) 0.6452(5)
H29_2 H 0.8936 0.5321 0.6446
C36_2 C 0.8541(13) 0.6368(10) 0.6740(6)
H30_2 H 0.8068 0.6135 0.6926
C37_2 C 0.8746(10) 0.7242(8) 0.6751(4)
H31_2 H 0.8430 0.7593 0.6947
C38_2 C 0.9435(7) 0.7524(6) 0.6457(3)
H32_2 H 0.9577 0.8088 0.6453
C40_2 C 0.9727(7) 0.6238(6) 0.6170(3)
C51_2 C 0.8751(9) 0.8299(7) 0.8324(4)
H41_2 H 0.8966 0.8837 0.8381
C52_2 C 0.7733(10) 0.8120(9) 0.8350(5)
H42_2 H 0.7258 0.8522 0.8428
C53_2 C 0.7432(10) 0.7337(9) 0.8257(5)
H43_2 H 0.6736 0.7201 0.8263
C54_2 C 0.8133(8) 0.6744(7) 0.8156(4)
H44_2 H 0.7921 0.6204 0.8100
C55_2 C 0.9777(9) 0.5529(6) 0.7976(4)
H45_2 H 0.9103 0.5332 0.7976
C59_2 C 0.9156(7) 0.6956(5) 0.8138(3)
C60_2 C 0.9984(7) 0.6359(5) 0.8046(3)
H55_2 H 0.778786 0.683505 0.539651
H49_3 H 0.106317 0.171617 0.939519
H51_3 H 0.0389646 0.603223 0.898357
H56_3 H 0.00839863 0.70124 0.903089
H50_3 H 0.943834 0.319248 0.0491826
H55_3 H 0.778786 0.816495 0.0396512
H55_4 H 0.221214 0.316495 0.460349
H50_4 H 0.0561659 0.819248 0.450817
H51_4 H 0.961035 0.103223 0.601643
H56_4 H 0.991601 0.20124 0.596911
H49_4 H 0.893683 0.671617 0.560481
H28_2 H 0.0364 0.9610 0.9039
H4_2 H 0.9636 0.0390 0.0961
C32_2 C 0.8510(12) 0.9849(9) 0.9705(5)
H26_2 H 0.8068 0.9561 0.9885
C33_2 C 0.9291(12) 0.9436(10) 0.9490(5)
H27_2 H 0.9424 0.8880 0.9543
C34_2 C 0.9860(11) 0.9873(7) 0.9198(5)
H46_2 H 0.9525 0.9442 0.7140
H47_2 H 0.7868 0.9962 0.7137
loop_
_geom_bond_atom_site_label_1
_geom_bond_atom_site_label_2
_geom_bond_site_symmetry_1
_geom_bond_site_symmetry_2
H2 C2 1_555 1_555
C3 C2 1_555 1_555
H3 C3 1_555 1_555
C4 C3 1_555 1_555
Mo4 O7 1_555 1_555
Mo5 O10 1_555 1_555
Mo7 O31 1_555 1_555
Mo8 O31 1_555 1_555
Cd3 O8 1_555 1_555
P2 O9 1_555 1_555
O7 Cd2 1_555 1_555
O9 Mo4 1_555 1_555
O10 Mo4 1_555 1_555
O11 Mo4 1_555 1_555
O12 Mo4 1_555 1_555
O13 Mo5 1_555 1_555
O14 Mo5 1_555 1_555
O16 Mo6 1_555 1_555
O23 Mo5 1_555 1_555
O24 Mo5 1_555 1_555
O32 Mo7 1_555 1_555
O33 Mo7 1_555 1_555
O34 Mo7 1_555 1_555
O36 Mo8 1_555 1_555
N1 Cd3 1_555 1_555
N3 Mo7 1_555 1_555
N4 Mo7 1_555 1_555
N6 Mo8 1_555 1_555
C1 N1 1_555 1_555
H1 C1 1_555 1_555
C9 N1 1_555 1_555
C11 N3 1_555 1_555
H9 C11 1_555 1_555
C12 C11 1_555 1_555
H10 C12 1_555 1_555
C13 C12 1_555 1_555
H11 C13 1_555 1_555
C14 C13 1_555 1_555
H12 C14 1_555 1_555
C15 H13 1_555 1_555
C16 C15 1_555 1_555
H14 C16 1_555 1_555
C17 C16 1_555 1_555
H15 C17 1_555 1_555
C18 N4 1_555 1_555
H16 C18 1_555 1_555
C19 N3 1_555 1_555
C20 N4 1_555 1_555
C27 C26 1_555 1_555
C28 N6 1_555 1_555
H24 C28 1_555 1_555
O51 Mo6 1_555 1_555
O73 Cd2 1_555 1_555
O77 Mo8 1_555 1_555
Mo4 O8 1_555 1_555
Mo5 O11 1_555 1_555
Mo6 O13 1_555 1_555
Mo6 O14 1_555 1_555
Mo8 O32 1_555 1_555
Cd2 O13 1_555 1_555
Cd3 O9 1_555 1_555
Cd3 O26 1_555 1_555
P1 O10 1_555 1_555
P1 O25 1_555 1_555
P2 O23 1_555 1_555
P2 O26 1_555 1_555
P2 O33 1_555 1_555
C14 C19 1_555 1_555
C15 C20 1_555 1_555
C17 C18 1_555 1_555
C19 C20 1_555 1_555
C27 C28 1_555 1_555
Mo1 O1 1_555 1_555
Mo2 O1 1_555 1_555
Cd2_2 O2 1_555 1_555
P4 O19 1_555 1_555
O1 Cd4 1_555 1_555
O2 Mo1 1_555 1_555
O3 Mo1 1_555 1_555
O5 Mo1 1_555 1_555
O6 Mo1 1_555 1_555
O17 Mo2 1_555 1_555
O18 Mo2 1_555 1_555
O19 Mo2 1_555 1_555
O20 Mo2 1_555 1_555
O21 Mo3 1_555 1_555
O22 Mo3 1_555 1_555
O30 P4 1_555 1_555
O35 P4 1_555 1_555
P7 O40 1_555 1_555
O40 Mo1 1_555 1_555
O65 P7 1_555 1_555
C35 H29 1_555 1_555
C36 C35 1_555 1_555
H30 C36 1_555 1_555
C37 C36 1_555 1_555
H31 C37 1_555 1_555
C38 N8 1_555 1_555
H32 C38 1_555 1_555
C40 N8 1_555 1_555
C51 N11 1_555 1_555
H41 C51 1_555 1_555
C52 C51 1_555 1_555
H42 C52 1_555 1_555
C53 C52 1_555 1_555
H43 C53 1_555 1_555
C54 C53 1_555 1_555
H44 C54 1_555 1_555
C55 H45 1_555 1_555
C59 N11 1_555 1_555
Mo18 O35 1_555 1_555
O74 Cd2_2 1_555 1_555
O75 Cd2_2 1_555 1_555
Mo2 O2 1_555 1_555
Mo3 O17 1_555 1_555
Mo3 O18 1_555 1_555
P4 O21 1_555 1_555
Cd4 O40 1_555 1_555
P7 O64 1_555 1_555
C35 C40 1_555 1_555
C37 C38 1_555 1_555
C54 C59 1_555 1_555
C55 C60 1_555 1_555
C59 C60 1_555 1_555
O30 H50 1_555 1_555
O65 H55 1_555 1_555
Cd1 O4 1_555 1_555
P3 O4 1_555 1_555
O4 Mo9 1_555 1_555
O29 P3 1_555 1_555
C5 H5 1_555 1_555
C6 C5 1_555 1_555
H6 C6 1_555 1_555
C7 C6 1_555 1_555
H7 C7 1_555 1_555
C8 N2 1_555 1_555
H8 C8 1_555 1_555
C10 N2 1_555 1_555
C21 N5 1_555 1_555
H17 C21 1_555 1_555
C22 C21 1_555 1_555
H18 C22 1_555 1_555
C23 C22 1_555 1_555
H19 C23 1_555 1_555
C24 C23 1_555 1_555
H20 C24 1_555 1_555
C25 H21 1_555 1_555
C29 N5 1_555 1_555
Mo9 O37 1_555 1_555
Mo10 O37 1_555 1_555
P8 O55 1_555 1_555
O37 Cd1 1_555 1_555
O73 Mo9 1_555 1_555
O39 Mo9 1_555 1_555
O41 Mo9 1_555 1_555
O42 Mo9 1_555 1_555
O53 Mo10 1_555 1_555
O54 Mo10 1_555 1_555
O55 Mo10 1_555 1_555
O56 Mo10 1_555 1_555
O57 Mo11 1_555 1_555
O58 Mo11 1_555 1_555
O66 P8 1_555 1_555
O71 P8 1_555 1_555
Mo17 O71 1_555 1_555
P3 O28 1_555 1_555
C5 C10 1_555 1_555
C7 C8 1_555 1_555
C24 C29 1_555 1_555
C25 C30 1_555 1_555
C29 C30 1_555 1_555
Mo10 O73 1_555 1_555
Mo11 O53 1_555 1_555
Mo11 O54 1_555 1_555
P8 O57 1_555 1_555
O29 H49 1_555 1_555
O66 H56 1_555 1_555
Mo12 O74 1_555 1_555
Mo13 O46 1_555 1_555
Mo14 O15 1_555 1_555
Mo15 O67 1_555 1_555
Mo16 O67 1_555 1_555
Cd5 O44 1_555 1_555
P6 O45 1_555 1_555
O45 Mo12 1_555 1_555
O46 Mo12 1_555 1_555
O47 Mo12 1_555 1_555
O48 Mo12 1_555 1_555
O75 Mo13 1_555 1_555
O50 Mo13 1_555 1_555
O52 Mo14 1_555 1_555
O59 Mo13 1_555 1_555
O60 Mo13 1_555 1_555
O68 Mo15 1_555 1_555
O69 Mo15 1_555 1_555
O70 Mo15 1_555 1_555
O72 Mo16 1_555 1_555
N7 Cd5 1_555 1_555
N9 Mo15 1_555 1_555
N10 Mo15 1_555 1_555
N12 Mo16 1_555 1_555
C31 N7 1_555 1_555
H25 C31 1_555 1_555
C39 N7 1_555 1_555
C41 N9 1_555 1_555
H33 C41 1_555 1_555
C42 C41 1_555 1_555
H34 C42 1_555 1_555
C43 C42 1_555 1_555
H35 C43 1_555 1_555
C44 C43 1_555 1_555
H36 C44 1_555 1_555
C45 H37 1_555 1_555
C46 C45 1_555 1_555
H38 C46 1_555 1_555
C47 C46 1_555 1_555
H39 C47 1_555 1_555
C48 N10 1_555 1_555
H40 C48 1_555 1_555
C49 N9 1_555 1_555
C50 N10 1_555 1_555
C57 C56 1_555 1_555
C58 N12 1_555 1_555
H48 C58 1_555 1_555
O76 Mo16 1_555 1_555
Mo12 O44 1_555 1_555
Mo13 O47 1_555 1_555
Mo14 O75 1_555 1_555
Mo14 O50 1_555 1_555
Mo16 O68 1_555 1_555
Cd5 O45 1_555 1_555
Cd5 O62 1_555 1_555
P5 O46 1_555 1_555
P5 O61 1_555 1_555
P6 O59 1_555 1_555
P6 O62 1_555 1_555
P6 O69 1_555 1_555
C44 C49 1_555 1_555
C45 C50 1_555 1_555
C47 C48 1_555 1_555
C49 C50 1_555 1_555
C57 C58 1_555 1_555
Cd1_2 O4_2 1_555 1_555
P3_2 O4_2 1_555 1_555
O4_2 Mo9_2 1_555 1_555
O15_2 P3_2 1_555 1_555
O29_2 P3_2 1_555 1_555
C5_2 H5_2 1_555 1_555
C6_2 C5_2 1_555 1_555
H6_2 C6_2 1_555 1_555
C7_2 C6_2 1_555 1_555
H7_2 C7_2 1_555 1_555
C8_2 N2_2 1_555 1_555
H8_2 C8_2 1_555 1_555
C10_2 N2_2 1_555 1_555
C21_2 N5_2 1_555 1_555
H17_2 C21_2 1_555 1_555
C22_2 C21_2 1_555 1_555
H18_2 C22_2 1_555 1_555
C23_2 C22_2 1_555 1_555
H19_2 C23_2 1_555 1_555
C24_2 C23_2 1_555 1_555
H20_2 C24_2 1_555 1_555
C25_2 H21_2 1_555 1_555
C29_2 N5_2 1_555 1_555
Mo9_2 O37_2 1_555 1_555
Mo14_2 O15_2 1_555 1_555
O37_2 Cd1_2 1_555 1_555
O38 Mo9_2 1_555 1_555
O39_2 Mo9_2 1_555 1_555
O41_2 Mo9_2 1_555 1_555
O42_2 Mo9_2 1_555 1_555
O49 Mo13_2 1_555 1_555
O50_2 Mo13_2 1_555 1_555
O52_2 Mo14_2 1_555 1_555
O60_2 Mo13_2 1_555 1_555
Cd6 O38 1_555 1_555
P3_2 O28_2 1_555 1_555
C5_2 C10_2 1_555 1_555
C7_2 C8_2 1_555 1_555
C24_2 C29_2 1_555 1_555
C25_2 C30_2 1_555 1_555
C29_2 C30_2 1_555 1_555
Mo14_2 O39_2 1_555 1_555
Mo14_2 O41_2 1_555 1_555
Mo14_2 O49 1_555 1_555
Mo14_2 O50_2 1_555 1_555
O49 Cd6 1_555 1_555
O29_2 H49_2 1_555 1_555
Mo11_2 O43 1_555 1_555
Mo12_2 O43 1_555 1_555
Mo15_2 O67_2 1_555 1_555
Mo18 O67_2 1_555 1_555
Cd5_2 O44_2 1_555 1_555
P6_2 O45_2 1_555 1_555
P8_2 O55_2 1_555 1_555
O43 Cd6_2 1_555 1_555
O44_2 Mo11_2 1_555 1_555
O45_2 Mo12_2 1_555 1_555
O46_2 Mo12_2 1_555 1_555
O47_2 Mo12_2 1_555 1_555
O48_2 Mo12_2 1_555 1_555
O53_2 Mo10_2 1_555 1_555
O54_2 Mo10_2 1_555 1_555
O55_2 Mo10_2 1_555 1_555
O56_2 Mo10_2 1_555 1_555
O57_2 Mo11_2 1_555 1_555
O58_2 Mo11_2 1_555 1_555
O66_2 P8_2 1_555 1_555
O68_2 Mo15_2 1_555 1_555
O69_2 Mo15_2 1_555 1_555
O70_2 Mo15_2 1_555 1_555
O77 P8_2 1_555 1_555
O72_2 Mo18 1_555 1_555
N7_2 Cd5_2 1_555 1_555
N9_2 Mo15_2 1_555 1_555
N10_2 Mo15_2 1_555 1_555
N12_2 Mo18 1_555 1_555
C31_2 N7_2 1_555 1_555
H25_2 C31_2 1_555 1_555
C32 C31_2 1_555 1_555
H26 C32 1_555 1_555
C33 C32 1_555 1_555
H27 C33 1_555 1_555
C34 C33 1_555 1_555
C39_2 N7_2 1_555 1_555
C41_2 N9_2 1_555 1_555
H33_2 C41_2 1_555 1_555
C42_2 C41_2 1_555 1_555
H34_2 C42_2 1_555 1_555
C43_2 C42_2 1_555 1_555
H35_2 C43_2 1_555 1_555
C44_2 C43_2 1_555 1_555
H36_2 C44_2 1_555 1_555
C45_2 H37_2 1_555 1_555
C46_2 C45_2 1_555 1_555
H38_2 C46_2 1_555 1_555
C47_2 C46_2 1_555 1_555
H39_2 C47_2 1_555 1_555
C48_2 N10_2 1_555 1_555
H40_2 C48_2 1_555 1_555
C49_2 N9_2 1_555 1_555
C50_2 N10_2 1_555 1_555
H46 C56_2 1_555 1_555
C57_2 C56_2 1_555 1_555
H47 C57_2 1_555 1_555
C58_2 N12_2 1_555 1_555
H48_2 C58_2 1_555 1_555
Mo11_2 O53_2 1_555 1_555
Mo11_2 O54_2 1_555 1_555
Mo12_2 O44_2 1_555 1_555
Mo18 O68_2 1_555 1_555
Cd5_2 O45_2 1_555 1_555
Cd5_2 O62_2 1_555 1_555
P5_2 O46_2 1_555 1_555
P5_2 O53_2 1_555 1_555
P5_2 O61_2 1_555 1_555
P6_2 O59_2 1_555 1_555
P6_2 O62_2 1_555 1_555
P6_2 O69_2 1_555 1_555
P8_2 O57_2 1_555 1_555
C34 C39_2 1_555 1_555
C44_2 C49_2 1_555 1_555
C45_2 C50_2 1_555 1_555
C47_2 C48_2 1_555 1_555
C49_2 C50_2 1_555 1_555
C57_2 C58_2 1_555 1_555
O66_2 H56_2 1_555 1_555
Mo3_2 O7_2 1_555 1_555
Mo4_2 O7_2 1_555 1_555
Mo7_2 O31_2 1_555 1_555
Mo17 O31_2 1_555 1_555
Cd3_2 O8_2 1_555 1_555
P2_2 O9_2 1_555 1_555
P4_2 O19_2 1_555 1_555
O7_2 Cd6 1_555 1_555
O8_2 Mo3_2 1_555 1_555
O9_2 Mo4_2 1_555 1_555
O10_2 Mo4_2 1_555 1_555
O11_2 Mo4_2 1_555 1_555
O12_2 Mo4_2 1_555 1_555
O17_2 Mo2_2 1_555 1_555
O18_2 Mo2_2 1_555 1_555
O19_2 Mo2_2 1_555 1_555
O20_2 Mo2_2 1_555 1_555
O21_2 Mo3_2 1_555 1_555
O22_2 Mo3_2 1_555 1_555
O30_2 P4_2 1_555 1_555
O32_2 Mo7_2 1_555 1_555
O33_2 Mo7_2 1_555 1_555
O34_2 Mo7_2 1_555 1_555
O76 P4_2 1_555 1_555
O36_2 Mo17 1_555 1_555
N1_2 Cd3_2 1_555 1_555
N3_2 Mo7_2 1_555 1_555
N4_2 Mo7_2 1_555 1_555
N6_2 Mo17 1_555 1_555
C1_2 N1_2 1_555 1_555
H1_2 C1_2 1_555 1_555
C2_2 C1_2 1_555 1_555
H2_2 C2_2 1_555 1_555
C3_2 C2_2 1_555 1_555
H3_2 C3_2 1_555 1_555
C4_2 C3_2 1_555 1_555
C9_2 N1_2 1_555 1_555
C11_2 N3_2 1_555 1_555
H9_2 C11_2 1_555 1_555
C12_2 C11_2 1_555 1_555
H10_2 C12_2 1_555 1_555
C13_2 C12_2 1_555 1_555
H11_2 C13_2 1_555 1_555
C14_2 C13_2 1_555 1_555
H12_2 C14_2 1_555 1_555
C15_2 H13_2 1_555 1_555
C16_2 C15_2 1_555 1_555
H14_2 C16_2 1_555 1_555
C17_2 C16_2 1_555 1_555
H15_2 C17_2 1_555 1_555
C18_2 N4_2 1_555 1_555
H16_2 C18_2 1_555 1_555
C19_2 N3_2 1_555 1_555
C20_2 N4_2 1_555 1_555
H22_2 C26_2 1_555 1_555
C27_2 C26_2 1_555 1_555
H23_2 C27_2 1_555 1_555
C28_2 N6_2 1_555 1_555
H24_2 C28_2 1_555 1_555
Mo3_2 O17_2 1_555 1_555
Mo3_2 O18_2 1_555 1_555
Mo4_2 O8_2 1_555 1_555
Mo17 O32_2 1_555 1_555
Cd3_2 O9_2 1_555 1_555
Cd3_2 O26_2 1_555 1_555
P1_2 O10_2 1_555 1_555
P1_2 O17_2 1_555 1_555
P1_2 O25_2 1_555 1_555
P2_2 O23_2 1_555 1_555
P2_2 O26_2 1_555 1_555
P2_2 O33_2 1_555 1_555
P4_2 O21_2 1_555 1_555
C4_2 C9_2 1_555 1_555
C14_2 C19_2 1_555 1_555
C15_2 C20_2 1_555 1_555
C17_2 C18_2 1_555 1_555
C19_2 C20_2 1_555 1_555
C27_2 C28_2 1_555 1_555
O30_2 H50_2 1_555 1_555
Mo1_2 O1_2 1_555 1_555
Mo6_2 O3_2 1_555 1_555
Cd6_2 O2_2 1_555 1_555
O1_2 Cd4_2 1_555 1_555
O2_2 Mo1_2 1_555 1_555
O3_2 Mo1_2 1_555 1_555
O5_2 Mo1_2 1_555 1_555
O6_2 Mo1_2 1_555 1_555
O13_2 Mo5_2 1_555 1_555
O14_2 Mo5_2 1_555 1_555
O16_2 Mo6_2 1_555 1_555
O24_2 Mo5_2 1_555 1_555
P7_2 O40_2 1_555 1_555
O40_2 Mo1_2 1_555 1_555
O51_2 Mo6_2 1_555 1_555
O65_2 P7_2 1_555 1_555
C35_2 H29_2 1_555 1_555
C36_2 C35_2 1_555 1_555
H30_2 C36_2 1_555 1_555
C37_2 C36_2 1_555 1_555
H31_2 C37_2 1_555 1_555
C38_2 N8_2 1_555 1_555
H32_2 C38_2 1_555 1_555
C40_2 N8_2 1_555 1_555
C51_2 N11_2 1_555 1_555
H41_2 C51_2 1_555 1_555
C52_2 C51_2 1_555 1_555
H42_2 C52_2 1_555 1_555
C53_2 C52_2 1_555 1_555
H43_2 C53_2 1_555 1_555
C54_2 C53_2 1_555 1_555
H44_2 C54_2 1_555 1_555
C55_2 H45_2 1_555 1_555
C59_2 N11_2 1_555 1_555
Mo6_2 O5_2 1_555 1_555
Mo6_2 O13_2 1_555 1_555
Mo6_2 O14_2 1_555 1_555
Cd6_2 O13_2 1_555 1_555
Cd4_2 O40_2 1_555 1_555
P7_2 O51_2 1_555 1_555
P7_2 O64_2 1_555 1_555
C35_2 C40_2 1_555 1_555
C37_2 C38_2 1_555 1_555
C54_2 C59_2 1_555 1_555
C55_2 C60_2 1_555 1_555
C59_2 C60_2 1_555 1_555
O65_2 H55_2 1_555 1_555
O65 H49_3 1_555 1_555
O30 H56_3 1_555 1_555
O66 H50_3 1_555 1_555
O29 H55_3 1_555 1_555
O29_2 H55_4 1_555 1_555
O66_2 H50_4 1_555 1_555
O30_2 H56_4 1_555 1_555
O65_2 H49_4 1_555 1_555
H26_2 C32_2 1_555 1_555
C33_2 C32_2 1_555 1_555
H27_2 C33_2 1_555 1_555
C34_2 C33_2 1_555 1_555

#END
