
###############################################################################
#
# This file contains modified crystal structure data generated from the
# MOF subset of the Cambridge Structural Database (CSD) v543 
# hosted by the Cambridge Crystallographic Data Centre (CCDC).
#
# This work is licensed under the Creative Commons
# Attribution-NonCommercial-ShareAlike 4.0 International License.
# To view a copy of this license, visit
# http://creativecommons.org/licenses/by-nc-sa/4.0/
# or send a letter to
# Creative Commons, PO Box 1866, Mountain View, CA 94042, USA.
#
# CIF created using the CSD Python API on 29 September 2022
# The structure has been converted into the P1 space group
# The structure has a 3D framework
# The original CSD entry DABWUA is in the monoclinic crystal system
# The framework has been calculated to contain at least 10.0% void space
# The void calculation uses a probe of radius 1.32A, grid spacing 0.4
#
###############################################################################

data_DABWUA
_chemical_formula_moiety         '(C64 H40 Cu10 N16 O16)n'
_symmetry_cell_setting           triclinic
_symmetry_space_group_name_H-M   'P 1'
_symmetry_Int_Tables_number      1
_space_group_name_Hall           'P 1'
loop_
_symmetry_equiv_pos_site_id
_symmetry_equiv_pos_as_xyz
1 x,y,z
_cell_length_a                   14.0087(12)
_cell_length_b                   13.3191(8)
_cell_length_c                   14.8297(14)
_cell_angle_alpha                90
_cell_angle_beta                 93.116(7)
_cell_angle_gamma                90
_cell_volume                     2762.88
loop_
_atom_site_label
_atom_site_type_symbol
_atom_site_fract_x
_atom_site_fract_y
_atom_site_fract_z
C1 C 0.3668(3) 0.4920(3) 0.1381(3)
C2 C 0.28932(19) 0.4371(2) 0.18284(18)
C3 C 0.26454(17) 0.34075(19) 0.15442(17)
H1 H 0.2982 0.3088 0.1104
C4 C 0.18900(16) 0.29324(17) 0.19268(15)
C5 C 0.13907(17) 0.33807(18) 0.26027(16)
H2 H 0.0887 0.3047 0.2856
C6 C 0.16520(19) 0.4321(2) 0.28901(17)
C7 C 0.2405(2) 0.4810(2) 0.25134(19)
H3 H 0.2586 0.5443 0.2724
C8 C 0.1145(2) 0.4786(2) 0.3666(2)
C9 C 0.0401(2) 0.2557(2) 0.0378(2)
H4 H 0.0837 0.2937 0.0036
H5 H 0.0084 0.2998 0.0779
C10 C 0.09515(17) 0.17546(19) 0.09295(16)
C11 C 0.19275(17) 0.10168(19) 0.19075(16)
C12 C 0.26625(18) 0.0819(2) 0.26370(18)
C13 C 0.2853(3) 0.1455(3) 0.3362(2)
H7 H 0.2524 0.2058 0.3404
C14 C 0.3527(3) 0.1188(3) 0.4016(2)
H8 H 0.3649 0.1622 0.4500
Cu1 Cu 0.5000 0.0000 0.5000
Cu2 Cu 0.0000 0.0000 0.0000
N1 N 0.16114(14) 0.19427(14) 0.16125(13)
N2 N 0.08777(15) 0.07854(16) 0.08265(14)
N3 N 0.14880(16) 0.03127(18) 0.14430(15)
N4 N 0.40205(17) 0.0329(2) 0.39933(16)
O1 O 0.41333(15) 0.44318(19) 0.08511(14)
O2 O 0.3805(3) 0.5803(3) 0.1561(4)
O3 O 0.04775(14) 0.42824(14) 0.39708(12)
O4 O 0.1392(2) 0.56187(19) 0.3975(2)
Cu3 Cu 0.5000 0.5000 0.0000
Cu6 Cu -0.0000 0.5000 0.5000
O6 O 0.41333(15) 0.05682(19) 0.58511(14)
Cu2_2 Cu -0.0000 0.0000 1.0000
Cu3_2 Cu 0.5000 0.5000 1.0000
O10 O 0.04775(14) 0.07176(14) 0.89708(12)
C15 C 0.3846(3) 0.9743(3) 0.3303(3)
H9 H 0.4192 0.9149 0.3278
C16 C 0.3189(3) 0.9939(3) 0.2612(3)
H10 H 0.3096 0.9491 0.2135
Cu1_2 Cu 0.5000 1.0000 0.5000
Cu2_3 Cu 0.0000 1.0000 0.0000
H16 H 0.0066 0.7759 0.0026
N8 N 0.59795(17) 0.9671(2) 0.60067(16)
O5 O 0.58667(15) 0.94318(19) 0.41489(14)
Cu2_4 Cu -0.0000 1.0000 1.0000
Cu2_5 Cu 1.0000 0.0000 0.0000
Cu6_2 Cu 1.0000 0.5000 0.5000
H6 H 0.9934 0.2241 0.9974
Cu2_6 Cu 1.0000 0.0000 1.0000
C31 C 0.6154(3) 0.0257(3) 0.6697(3)
H19 H 0.5808 0.0851 0.6722
C32 C 0.6811(3) 0.0061(3) 0.7388(3)
H20 H 0.6904 0.0509 0.7865
Cu2_7 Cu 1.0000 1.0000 0.0000
O9 O 0.95225(14) 0.92824(14) 0.10292(12)
Cu2_8 Cu 1.0000 1.0000 1.0000
C17 C 0.6332(3) 0.5080(3) 0.8619(3)
C18 C 0.71068(19) 0.5629(2) 0.81716(18)
C19 C 0.73546(17) 0.65925(19) 0.84558(17)
H11 H 0.7018 0.6912 0.8896
C20 C 0.81100(16) 0.70676(17) 0.80732(15)
C21 C 0.86093(17) 0.66193(18) 0.73973(16)
H12 H 0.9113 0.6953 0.7144
C22 C 0.83480(19) 0.5679(2) 0.71099(17)
C23 C 0.7595(2) 0.5190(2) 0.74866(19)
H13 H 0.7414 0.4557 0.7276
C24 C 0.8855(2) 0.5214(2) 0.6334(2)
C25 C 0.9599(2) 0.7443(2) 0.9622(2)
H14 H 0.9163 0.7063 0.9964
H15 H 0.9916 0.7002 0.9221
C26 C 0.90485(17) 0.82454(19) 0.90705(16)
C27 C 0.80725(17) 0.89832(19) 0.80925(16)
C28 C 0.73375(18) 0.9181(2) 0.73630(18)
C29 C 0.7147(3) 0.8545(3) 0.6638(2)
H17 H 0.7476 0.7942 0.6596
C30 C 0.6473(3) 0.8812(3) 0.5984(2)
H18 H 0.6351 0.8378 0.5500
N5 N 0.83886(14) 0.80573(14) 0.83875(13)
N6 N 0.91223(15) 0.92146(16) 0.91735(14)
N7 N 0.85120(16) 0.96873(18) 0.85570(15)
O7 O 0.58667(15) 0.55682(19) 0.91489(14)
O8 O 0.6195(3) 0.4197(3) 0.8439(4)
O11 O 0.95225(14) 0.57176(14) 0.60292(12)
O12 O 0.8608(2) 0.43813(19) 0.6025(2)
H6_2 H 0.0066 0.7241 0.5026
C17_2 C 0.3668(3) 0.0080(3) 0.6381(3)
C18_2 C 0.28932(19) 0.0629(2) 0.68284(18)
C19_2 C 0.26454(17) 0.15925(19) 0.65442(17)
H11_2 H 0.2982 0.1912 0.6104
C20_2 C 0.18900(16) 0.20676(17) 0.69268(15)
C21_2 C 0.13907(17) 0.16193(18) 0.76027(16)
H12_2 H 0.0887 0.1953 0.7856
C22_2 C 0.16520(19) 0.0679(2) 0.78901(17)
C23_2 C 0.2405(2) 0.0190(2) 0.75134(19)
C24_2 C 0.1145(2) 0.0214(2) 0.8666(2)
C25_2 C 0.0401(2) 0.2443(2) 0.5378(2)
H14_2 H 0.0837 0.2063 0.5036
H15_2 H 0.0084 0.2002 0.5779
C26_2 C 0.09515(17) 0.32454(19) 0.59295(16)
C27_2 C 0.19275(17) 0.39832(19) 0.69075(16)
C28_2 C 0.26625(18) 0.4181(2) 0.76370(18)
C29_2 C 0.2853(3) 0.3545(3) 0.8362(2)
H17_2 H 0.2524 0.2942 0.8404
C30_2 C 0.3527(3) 0.3812(3) 0.9016(2)
H18_2 H 0.3649 0.3378 0.9500
C31_2 C 0.3846(3) 0.5257(3) 0.8303(3)
H19_2 H 0.4192 0.5851 0.8278
C32_2 C 0.3189(3) 0.5061(3) 0.7612(3)
H20_2 H 0.3096 0.5509 0.7135
N5_2 N 0.16114(14) 0.30573(14) 0.66125(13)
N6_2 N 0.08777(15) 0.42146(16) 0.58265(14)
N7_2 N 0.14880(16) 0.46873(18) 0.64430(15)
N9 N 0.40205(17) 0.4671(2) 0.89933(16)
H13_2 H 0.2586 0.9557 0.7724
O8_2 O 0.3805(3) 0.9197(3) 0.6561(4)
O12_2 O 0.1392(2) 0.93813(19) 0.8975(2)
H3_2 H 0.7414 0.0443 0.2276
O2_2 O 0.6195(3) 0.0803(3) 0.3439(4)
O4_2 O 0.8608(2) 0.06187(19) 0.1025(2)
C1_2 C 0.6332(3) 0.9920(3) 0.3619(3)
C2_2 C 0.71068(19) 0.9371(2) 0.31716(18)
C3_2 C 0.73546(17) 0.84075(19) 0.34558(17)
H1_2 H 0.7018 0.8088 0.3896
C4_2 C 0.81100(16) 0.79324(17) 0.30732(15)
C5_2 C 0.86093(17) 0.83807(18) 0.23973(16)
H2_2 H 0.9113 0.8047 0.2144
C6_2 C 0.83480(19) 0.9321(2) 0.21099(17)
C7_2 C 0.7595(2) 0.9810(2) 0.24866(19)
C8_2 C 0.8855(2) 0.9786(2) 0.1334(2)
C9_2 C 0.9599(2) 0.7557(2) 0.4622(2)
H4_2 H 0.9163 0.7937 0.4964
H5_2 H 0.9916 0.7998 0.4221
C10_2 C 0.90485(17) 0.67546(19) 0.40705(16)
C11_2 C 0.80725(17) 0.60168(19) 0.30925(16)
C12_2 C 0.73375(18) 0.5819(2) 0.23630(18)
C13_2 C 0.7147(3) 0.6455(3) 0.1638(2)
H7_2 H 0.7476 0.7058 0.1596
C14_2 C 0.6473(3) 0.6188(3) 0.0984(2)
H8_2 H 0.6351 0.6622 0.0500
C15_2 C 0.6154(3) 0.4743(3) 0.1697(3)
H9_2 H 0.5808 0.4149 0.1722
C16_2 C 0.6811(3) 0.4939(3) 0.2388(3)
H10_2 H 0.6904 0.4491 0.2865
N1_2 N 0.83886(14) 0.69427(14) 0.33875(13)
N2_2 N 0.91223(15) 0.57854(16) 0.41735(14)
N3_2 N 0.85120(16) 0.53127(18) 0.35570(15)
N4_2 N 0.59795(17) 0.5329(2) 0.10067(16)
H16_2 H 0.9934 0.2759 0.4974
loop_
_geom_bond_atom_site_label_1
_geom_bond_atom_site_label_2
_geom_bond_site_symmetry_1
_geom_bond_site_symmetry_2
C1 C2 1_555 1_555
C2 C3 1_555 1_555
C3 H1 1_555 1_555
C4 C3 1_555 1_555
C5 C4 1_555 1_555
H2 C5 1_555 1_555
C6 C5 1_555 1_555
C7 C2 1_555 1_555
H3 C7 1_555 1_555
C8 C6 1_555 1_555
C9 H4 1_555 1_555
H5 C9 1_555 1_555
C10 C9 1_555 1_555
C11 C12 1_555 1_555
C12 C13 1_555 1_555
C13 H7 1_555 1_555
C14 C13 1_555 1_555
H8 C14 1_555 1_555
Cu1 N4 1_555 1_555
Cu2 N2 1_555 1_555
N1 C4 1_555 1_555
N2 C10 1_555 1_555
N3 C11 1_555 1_555
N4 C14 1_555 1_555
O1 C1 1_555 1_555
O2 C1 1_555 1_555
O3 C8 1_555 1_555
O4 C8 1_555 1_555
Cu3 O1 1_555 1_555
Cu6 O3 1_555 1_555
O6 Cu1 1_555 1_555
C6 C7 1_555 1_555
C10 N1 1_555 1_555
C11 N1 1_555 1_555
N2 N3 1_555 1_555
O10 Cu2_2 1_555 1_555
C15 H9 1_555 1_555
H10 C16 1_555 1_555
N8 Cu1_2 1_555 1_555
O5 Cu1_2 1_555 1_555
C15 C16 1_555 1_555
C31 H19 1_555 1_555
H20 C32 1_555 1_555
C31 C32 1_555 1_555
O9 Cu2_7 1_555 1_555
C17 C18 1_555 1_555
C18 C19 1_555 1_555
C19 H11 1_555 1_555
C20 C19 1_555 1_555
C21 C20 1_555 1_555
H12 C21 1_555 1_555
C22 C21 1_555 1_555
C23 C18 1_555 1_555
H13 C23 1_555 1_555
C24 C22 1_555 1_555
C25 H14 1_555 1_555
H15 C25 1_555 1_555
C26 C25 1_555 1_555
C27 C28 1_555 1_555
C28 C29 1_555 1_555
C29 H17 1_555 1_555
C30 C29 1_555 1_555
H18 C30 1_555 1_555
Cu3_2 O7 1_555 1_555
Cu6_2 O11 1_555 1_555
N5 C20 1_555 1_555
N6 Cu2_8 1_555 1_555
N7 C27 1_555 1_555
N8 C30 1_555 1_555
O7 C17 1_555 1_555
O8 C17 1_555 1_555
O11 C24 1_555 1_555
O12 C24 1_555 1_555
C22 C23 1_555 1_555
C26 N5 1_555 1_555
C26 N6 1_555 1_555
C27 N5 1_555 1_555
N6 N7 1_555 1_555
C17_2 C18_2 1_555 1_555
C18_2 C19_2 1_555 1_555
C19_2 H11_2 1_555 1_555
C20_2 C19_2 1_555 1_555
C21_2 C20_2 1_555 1_555
H12_2 C21_2 1_555 1_555
C22_2 C21_2 1_555 1_555
C23_2 C18_2 1_555 1_555
C24_2 C22_2 1_555 1_555
C25_2 H14_2 1_555 1_555
H15_2 C25_2 1_555 1_555
C26_2 C25_2 1_555 1_555
C27_2 C28_2 1_555 1_555
C28_2 C29_2 1_555 1_555
C29_2 H17_2 1_555 1_555
C30_2 C29_2 1_555 1_555
H18_2 C30_2 1_555 1_555
C31_2 H19_2 1_555 1_555
C32_2 C28_2 1_555 1_555
H20_2 C32_2 1_555 1_555
Cu3_2 N9 1_555 1_555
N5_2 C20_2 1_555 1_555
N6_2 Cu6 1_555 1_555
N7_2 C27_2 1_555 1_555
N9 C30_2 1_555 1_555
O6 C17_2 1_555 1_555
O10 C24_2 1_555 1_555
C22_2 C23_2 1_555 1_555
C26_2 N5_2 1_555 1_555
C26_2 N6_2 1_555 1_555
C27_2 N5_2 1_555 1_555
C31_2 C32_2 1_555 1_555
C31_2 N9 1_555 1_555
N6_2 N7_2 1_555 1_555
C1_2 C2_2 1_555 1_555
C2_2 C3_2 1_555 1_555
C3_2 H1_2 1_555 1_555
C4_2 C3_2 1_555 1_555
C5_2 C4_2 1_555 1_555
H2_2 C5_2 1_555 1_555
C6_2 C5_2 1_555 1_555
C7_2 C2_2 1_555 1_555
C8_2 C6_2 1_555 1_555
C9_2 H4_2 1_555 1_555
H5_2 C9_2 1_555 1_555
C10_2 C9_2 1_555 1_555
C11_2 C12_2 1_555 1_555
C12_2 C13_2 1_555 1_555
C13_2 H7_2 1_555 1_555
C14_2 C13_2 1_555 1_555
H8_2 C14_2 1_555 1_555
C15_2 H9_2 1_555 1_555
C16_2 C12_2 1_555 1_555
H10_2 C16_2 1_555 1_555
Cu3 N4_2 1_555 1_555
Cu6_2 N2_2 1_555 1_555
N1_2 C4_2 1_555 1_555
N2_2 C10_2 1_555 1_555
N3_2 C11_2 1_555 1_555
N4_2 C14_2 1_555 1_555
O5 C1_2 1_555 1_555
O9 C8_2 1_555 1_555
C6_2 C7_2 1_555 1_555
C10_2 N1_2 1_555 1_555
C11_2 N1_2 1_555 1_555
C15_2 C16_2 1_555 1_555
C15_2 N4_2 1_555 1_555
N2_2 N3_2 1_555 1_555

#END
