
###############################################################################
#
# This file contains modified crystal structure data generated from the
# MOF subset of the Cambridge Structural Database (CSD) v543 
# hosted by the Cambridge Crystallographic Data Centre (CCDC).
#
# This work is licensed under the Creative Commons
# Attribution-NonCommercial-ShareAlike 4.0 International License.
# To view a copy of this license, visit
# http://creativecommons.org/licenses/by-nc-sa/4.0/
# or send a letter to
# Creative Commons, PO Box 1866, Mountain View, CA 94042, USA.
#
# CIF created using the CSD Python API on 29 September 2022
# The structure has been converted into the P1 space group
# The structure has a 3D framework
# The original CSD entry DACDOE is in the monoclinic crystal system
# The framework has been calculated to contain at least 10.0% void space
# The void calculation uses a probe of radius 1.32A, grid spacing 0.4
# H atom positions have been added when not included in the experimental data
#
###############################################################################

data_DACDOE
_chemical_formula_moiety         '(C112 H72 K14 O92 S16 Zn4)n'
_symmetry_cell_setting           triclinic
_symmetry_space_group_name_H-M   'P 1'
_symmetry_Int_Tables_number      1
_space_group_name_Hall           'P 1'
loop_
_symmetry_equiv_pos_site_id
_symmetry_equiv_pos_as_xyz
1 x,y,z
_cell_length_a                   44.20(2)
_cell_length_b                   15.892(8)
_cell_length_c                   7.134(4)
_cell_angle_alpha                90
_cell_angle_beta                 98.119(6)
_cell_angle_gamma                90
_cell_volume                     4960.88
loop_
_atom_site_label
_atom_site_type_symbol
_atom_site_fract_x
_atom_site_fract_y
_atom_site_fract_z
K7 K 0.66829(4) 0.08661(9) 0.0248(2)
O38 O 0.32994(9) 0.0926(3) 0.0625(6)
Zn1 Zn 0.5000 0.03745(8) 0.7500
K8 K 0.33171(4) 0.08661(9) 0.4752(2)
O27 O 0.52114(13) 0.1074(4) 0.9469(11)
O28 O 0.47886(13) 0.1074(4) 0.5531(11)
O33 O 0.62984(10) 0.0451(2) 0.6059(6)
O34 O 0.37016(10) 0.0451(2) 0.8941(6)
O37 O 0.67006(9) 0.0926(3) 0.4375(6)
O1 O 0.47886(13) 0.8926(4) 0.0531(11)
O9 O 0.30552(10) 0.7621(2) 0.0081(6)
H3 H 0.3917 0.7224 0.0294
H4 H 0.4368 0.7963 0.1027
K4 K 0.71484(3) 0.78918(9) 0.15158(18)
S3 S 0.64332(3) 0.88445(8) 0.02206(18)
O19 O 0.62984(10) 0.9549(2) 0.1059(6)
O20 O 0.64901(10) 0.8143(3) 0.1508(6)
O25 O 0.7217(2) 0.9541(6) 0.421(4)
Zn3 Zn 0.5000 0.96255(8) 0.2500
K6 K 0.66829(4) 0.91339(9) 0.5248(2)
K9 K 0.28516(3) 0.78918(9) 0.34842(18)
O29 O 0.69021(10) 0.6296(2) 0.1334(6)
O31 O 0.37016(10) 0.9549(2) 0.3941(6)
O35 O 0.35099(10) 0.8143(3) 0.3492(6)
O40 O 0.69448(10) 0.7621(2) 0.4919(6)
O42 O 0.77864(9) 0.7583(3) 0.1960(5)
O44 O 0.76840(10) 0.8478(3) 0.4474(7)
O45 O 0.2783(2) 0.9541(6) 0.079(4)
K1 K 0.33171(4) 0.91339(9) 0.9752(2)
S1 S 0.35668(3) 0.88445(8) 0.47794(18)
S2 S 0.29069(3) 0.70287(8) 0.87295(17)
O2 O 0.46495(12) 0.9776(4) 0.8070(12)
O3 O 0.34939(8) 0.7463(2) 0.7434(6)
O4 O 0.35638(11) 0.3524(3) 0.7920(6)
H1 H 0.3547 0.3051 0.8352
O5 O 0.30979(10) 0.3704(2) 0.8666(6)
O8 O 0.32994(9) 0.9074(3) 0.5625(6)
O10 O 0.27864(9) 0.7417(3) 0.6960(5)
O11 O 0.26840(10) 0.6522(3) 0.9474(7)
O13 O 0.2558(6) 0.9085(18) 0.650(4)
C1 C 0.46053(16) 0.9182(6) 0.9135(14)
C2 C 0.43107(14) 0.8721(4) 0.8720(10)
C3 C 0.41069(12) 0.8942(4) 0.7146(9)
H2 H 0.4152 0.9386 0.6384
C4 C 0.38385(11) 0.8510(3) 0.6706(7)
C5 C 0.37699(12) 0.7854(3) 0.7885(8)
C6 C 0.39664(15) 0.7652(4) 0.9502(9)
C7 C 0.42355(17) 0.8089(5) 0.9929(10)
C8 C 0.34697(12) 0.6611(3) 0.7748(7)
C9 C 0.31964(11) 0.6317(3) 0.8247(7)
C10 C 0.31547(12) 0.5466(3) 0.8395(7)
H5 H 0.2972 0.5261 0.8724
C11 C 0.33839(13) 0.4904(3) 0.8058(7)
C12 C 0.36555(14) 0.5214(4) 0.7602(8)
H6 H 0.3810 0.4843 0.7398
C13 C 0.36995(12) 0.6063(4) 0.7446(8)
H7 H 0.3883 0.6268 0.7137
C14 C 0.33287(14) 0.3991(3) 0.8243(7)
S4 S 0.70931(3) 0.70287(8) 0.62705(17)
O14 O 0.52114(13) 0.8926(4) 0.4469(11)
O15 O 0.53505(12) 0.9776(4) 0.6930(12)
O16 O 0.65061(8) 0.7463(2) 0.7566(6)
O17 O 0.64362(11) 0.3524(3) 0.7080(6)
H8 H 0.6453 0.3051 0.6648
O18 O 0.69021(10) 0.3704(2) 0.6334(6)
O21 O 0.67006(9) 0.9074(3) 0.9375(6)
O23 O 0.72136(9) 0.7417(3) 0.8040(5)
O24 O 0.73160(10) 0.6522(3) 0.5526(7)
O26 O 0.7442(6) 0.9085(18) 0.850(4)
C15 C 0.53947(16) 0.9182(6) 0.5865(14)
C16 C 0.56893(14) 0.8721(4) 0.6280(10)
C17 C 0.58931(12) 0.8942(4) 0.7854(9)
H9 H 0.5848 0.9386 0.8616
C18 C 0.61615(11) 0.8510(3) 0.8294(7)
C19 C 0.62301(12) 0.7854(3) 0.7115(8)
C20 C 0.60336(15) 0.7652(4) 0.5498(9)
H10 H 0.6083 0.7224 0.4706
C21 C 0.57645(17) 0.8089(5) 0.5071(10)
H11 H 0.5632 0.7963 0.3973
C22 C 0.65303(12) 0.6611(3) 0.7252(7)
C23 C 0.68036(11) 0.6317(3) 0.6753(7)
C24 C 0.68453(12) 0.5466(3) 0.6605(7)
H12 H 0.7028 0.5261 0.6276
C25 C 0.66161(13) 0.4904(3) 0.6942(7)
C26 C 0.63445(14) 0.5214(4) 0.7398(8)
H13 H 0.6190 0.4843 0.7602
C27 C 0.63005(12) 0.6063(4) 0.7554(8)
H14 H 0.6117 0.6268 0.7863
C28 C 0.66713(14) 0.3991(3) 0.6757(7)
K11 K 0.71484(3) 0.21082(9) 0.65158(18)
K12 K 0.28516(3) 0.21082(9) 0.84842(18)
K13 K 0.21484(3) 0.71082(9) 0.65158(18)
K14 K 0.78516(3) 0.71082(9) 0.84842(18)
O30 O 0.30979(10) 0.6296(2) 0.3666(6)
O41 O 0.22136(9) 0.7583(3) 0.3040(5)
O43 O 0.23160(10) 0.8478(3) 0.0526(7)
H15 H 0.258857 0.968575 0.619298
H16 H 0.233594 0.896682 0.642001
H17 H 0.741143 0.968575 0.880702
H18 H 0.766406 0.896682 0.857999
K4_2 K 0.21484(3) 0.28918(9) 0.15158(18)
S3_2 S 0.14332(3) 0.38445(8) 0.02206(18)
O19_2 O 0.12984(10) 0.4549(2) 0.1059(6)
O20_2 O 0.14901(10) 0.3143(3) 0.1508(6)
O25_2 O 0.2217(2) 0.4541(6) 0.421(4)
Zn3_2 Zn -0.0000 0.46255(8) 0.2500
K6_2 K 0.16829(4) 0.41339(9) 0.5248(2)
K7_2 K 0.16829(4) 0.58661(9) 0.0248(2)
O29_2 O 0.19021(10) 0.1296(2) 0.1334(6)
O40_2 O 0.19448(10) 0.2621(2) 0.4919(6)
O42_2 O 0.27864(9) 0.2583(3) 0.1960(5)
O44_2 O 0.26840(10) 0.3478(3) 0.4474(7)
Zn1_2 Zn 0.0000 0.53745(8) 0.7500
S4_2 S 0.20931(3) 0.20287(8) 0.62705(17)
O14_2 O 0.02114(13) 0.3926(4) 0.4469(11)
O15_2 O 0.03505(12) 0.4776(4) 0.6930(12)
O16_2 O 0.15061(8) 0.2463(2) 0.7566(6)
O21_2 O 0.17006(9) 0.4074(3) 0.9375(6)
O23_2 O 0.22136(9) 0.2417(3) 0.8040(5)
O24_2 O 0.23160(10) 0.1522(3) 0.5526(7)
O26_2 O 0.2442(6) 0.4085(18) 0.850(4)
C15_2 C 0.03947(16) 0.4182(6) 0.5865(14)
C16_2 C 0.06893(14) 0.3721(4) 0.6280(10)
C17_2 C 0.08931(12) 0.3942(4) 0.7854(9)
H9_2 H 0.0848 0.4386 0.8616
C18_2 C 0.11615(11) 0.3510(3) 0.8294(7)
C19_2 C 0.12301(12) 0.2854(3) 0.7115(8)
C20_2 C 0.10336(15) 0.2652(4) 0.5498(9)
H10_2 H 0.1083 0.2224 0.4706
C21_2 C 0.07645(17) 0.3089(5) 0.5071(10)
H11_2 H 0.0632 0.2963 0.3973
C22_2 C 0.15303(12) 0.1611(3) 0.7252(7)
C23_2 C 0.18036(11) 0.1317(3) 0.6753(7)
C24_2 C 0.18453(12) 0.0466(3) 0.6605(7)
H12_2 H 0.2028 0.0261 0.6276
C26_2 C 0.13445(14) 0.0214(4) 0.7398(8)
C27_2 C 0.13005(12) 0.1063(4) 0.7554(8)
H14_2 H 0.1117 0.1268 0.7863
O27_2 O 0.02114(13) 0.6074(4) 0.9469(11)
O33_2 O 0.12984(10) 0.5451(2) 0.6059(6)
O37_2 O 0.17006(9) 0.5926(3) 0.4375(6)
H17_2 H 0.241143 0.468575 0.880702
H18_2 H 0.266406 0.396682 0.857999
O17_2 O 0.14362(11) 0.8524(3) 0.7080(6)
H8_2 H 0.1453 0.8051 0.6648
O18_2 O 0.19021(10) 0.8704(2) 0.6334(6)
C25_2 C 0.16161(13) 0.9904(3) 0.6942(7)
H13_2 H 0.1190 0.9843 0.7602
C28_2 C 0.16713(14) 0.8991(3) 0.6757(7)
O1_2 O 0.97886(13) 0.3926(4) 0.0531(11)
O9_2 O 0.80552(10) 0.2621(2) 0.0081(6)
H3_2 H 0.8917 0.2224 0.0294
H4_2 H 0.9368 0.2963 0.1027
Zn3_3 Zn 1.0000 0.46255(8) 0.2500
K9_2 K 0.78516(3) 0.28918(9) 0.34842(18)
O31_2 O 0.87016(10) 0.4549(2) 0.3941(6)
O35_2 O 0.85099(10) 0.3143(3) 0.3492(6)
O38_2 O 0.82994(9) 0.5926(3) 0.0625(6)
O45_2 O 0.7783(2) 0.4541(6) 0.079(4)
Zn1_3 Zn 1.0000 0.53745(8) 0.7500
K1_2 K 0.83171(4) 0.41339(9) 0.9752(2)
S1_2 S 0.85668(3) 0.38445(8) 0.47794(18)
S2_2 S 0.79069(3) 0.20287(8) 0.87295(17)
O2_2 O 0.96495(12) 0.4776(4) 0.8070(12)
O3_2 O 0.84939(8) 0.2463(2) 0.7434(6)
O8_2 O 0.82994(9) 0.4074(3) 0.5625(6)
O10_2 O 0.77864(9) 0.2417(3) 0.6960(5)
O11_2 O 0.76840(10) 0.1522(3) 0.9474(7)
O13_2 O 0.7558(6) 0.4085(18) 0.650(4)
C1_2 C 0.96053(16) 0.4182(6) 0.9135(14)
C2_2 C 0.93107(14) 0.3721(4) 0.8720(10)
C3_2 C 0.91069(12) 0.3942(4) 0.7146(9)
H2_2 H 0.9152 0.4386 0.6384
C4_2 C 0.88385(11) 0.3510(3) 0.6706(7)
C5_2 C 0.87699(12) 0.2854(3) 0.7885(8)
C6_2 C 0.89664(15) 0.2652(4) 0.9502(9)
C7_2 C 0.92355(17) 0.3089(5) 0.9929(10)
C8_2 C 0.84697(12) 0.1611(3) 0.7748(7)
C9_2 C 0.81964(11) 0.1317(3) 0.8247(7)
C10_2 C 0.81547(12) 0.0466(3) 0.8395(7)
H5_2 H 0.7972 0.0261 0.8724
C12_2 C 0.86555(14) 0.0214(4) 0.7602(8)
C13_2 C 0.86995(12) 0.1063(4) 0.7446(8)
H7_2 H 0.8883 0.1268 0.7137
K8_2 K 0.83171(4) 0.58661(9) 0.4752(2)
O28_2 O 0.97886(13) 0.6074(4) 0.5531(11)
O30_2 O 0.80979(10) 0.1296(2) 0.3666(6)
O34_2 O 0.87016(10) 0.5451(2) 0.8941(6)
O41_2 O 0.72136(9) 0.2583(3) 0.3040(5)
O43_2 O 0.73160(10) 0.3478(3) 0.0526(7)
H15_2 H 0.758857 0.468575 0.619298
H16_2 H 0.733594 0.396682 0.642001
O4_2 O 0.85638(11) 0.8524(3) 0.7920(6)
H1_2 H 0.8547 0.8051 0.8352
O5_2 O 0.80979(10) 0.8704(2) 0.8666(6)
C11_2 C 0.83839(13) 0.9904(3) 0.8058(7)
H6_2 H 0.8810 0.9843 0.7398
C14_2 C 0.83287(14) 0.8991(3) 0.8243(7)
S1_3 S 0.64332(3) 0.11555(8) 0.52206(18)
S2_3 S 0.70931(3) 0.29713(8) 0.12705(17)
O2_3 O 0.53505(12) 0.0224(4) 0.1930(12)
O3_3 O 0.65061(8) 0.2537(2) 0.2566(6)
O4_3 O 0.64362(11) 0.6476(3) 0.2080(6)
H1_3 H 0.6453 0.6949 0.1648
O7 O 0.64901(10) 0.1857(3) 0.6508(6)
O12 O 0.7217(2) 0.0459(6) 0.921(4)
O13_3 O 0.7442(6) 0.0915(18) 0.350(4)
C1_3 C 0.53947(16) 0.0818(6) 0.0865(14)
C2_3 C 0.56893(14) 0.1279(4) 0.1280(10)
C3_3 C 0.58931(12) 0.1058(4) 0.2854(9)
H2_3 H 0.5848 0.0614 0.3616
C4_3 C 0.61615(11) 0.1490(3) 0.3294(7)
C5_3 C 0.62301(12) 0.2146(3) 0.2115(8)
C6_3 C 0.60336(15) 0.2348(4) 0.0498(9)
C7_3 C 0.57645(17) 0.1911(5) 0.0071(10)
C8_3 C 0.65303(12) 0.3389(3) 0.2252(7)
C9_3 C 0.68036(11) 0.3683(3) 0.1753(7)
C10_3 C 0.68453(12) 0.4534(3) 0.1605(7)
H5_3 H 0.7028 0.4739 0.1276
C11_3 C 0.66161(13) 0.5096(3) 0.1942(7)
C12_3 C 0.63445(14) 0.4786(4) 0.2398(8)
H6_3 H 0.6190 0.5157 0.2602
C13_3 C 0.63005(12) 0.3937(4) 0.2554(8)
H7_3 H 0.6117 0.3732 0.2863
C14_3 C 0.66713(14) 0.6009(3) 0.1757(7)
S4_3 S 0.29069(3) 0.29713(8) 0.37295(17)
O15_3 O 0.46495(12) 0.0224(4) 0.3070(12)
O16_3 O 0.34939(8) 0.2537(2) 0.2434(6)
O17_3 O 0.35638(11) 0.6476(3) 0.2920(6)
H8_3 H 0.3547 0.6949 0.3352
O22 O 0.30552(10) 0.2379(2) 0.5081(6)
O26_3 O 0.2558(6) 0.0915(18) 0.150(4)
C15_3 C 0.46053(16) 0.0818(6) 0.4135(14)
C16_3 C 0.43107(14) 0.1279(4) 0.3720(10)
C17_3 C 0.41069(12) 0.1058(4) 0.2146(9)
H9_3 H 0.4152 0.0614 0.1384
C18_3 C 0.38385(11) 0.1490(3) 0.1706(7)
C19_3 C 0.37699(12) 0.2146(3) 0.2885(8)
C20_3 C 0.39664(15) 0.2348(4) 0.4502(9)
H10_3 H 0.3917 0.2776 0.5294
C21_3 C 0.42355(17) 0.1911(5) 0.4929(10)
H11_3 H 0.4368 0.2037 0.6027
C22_3 C 0.34697(12) 0.3389(3) 0.2748(7)
C23_3 C 0.31964(11) 0.3683(3) 0.3247(7)
C24_3 C 0.31547(12) 0.4534(3) 0.3395(7)
H12_3 H 0.2972 0.4739 0.3724
C25_3 C 0.33839(13) 0.5096(3) 0.3058(7)
C26_3 C 0.36555(14) 0.4786(4) 0.2602(8)
H13_3 H 0.3810 0.5157 0.2398
C27_3 C 0.36995(12) 0.3937(4) 0.2446(8)
H14_3 H 0.3883 0.3732 0.2137
C28_3 C 0.33287(14) 0.6009(3) 0.3243(7)
O36 O 0.35099(10) 0.1857(3) 0.8492(6)
O39 O 0.69448(10) 0.2379(2) 0.9919(6)
O46 O 0.2783(2) 0.0459(6) 0.579(4)
H15_3 H 0.741143 0.0314254 0.380702
H16_3 H 0.766406 0.103318 0.357999
H17_3 H 0.258857 0.0314254 0.119298
H18_3 H 0.233594 0.103318 0.142001
H3_3 H 0.6083 0.2776 0.9706
H4_3 H 0.5632 0.2037 0.8973
S3_3 S 0.35668(3) 0.11555(8) 0.97794(18)
O4_4 O 0.14362(11) 0.1476(3) 0.2080(6)
H1_4 H 0.1453 0.1949 0.1648
C11_4 C 0.16161(13) 0.0096(3) 0.1942(7)
H6_4 H 0.1190 0.0157 0.2602
C14_4 C 0.16713(14) 0.1009(3) 0.1757(7)
S1_4 S 0.14332(3) 0.61555(8) 0.52206(18)
S2_4 S 0.20931(3) 0.79713(8) 0.12705(17)
O2_4 O 0.03505(12) 0.5224(4) 0.1930(12)
O3_4 O 0.15061(8) 0.7537(2) 0.2566(6)
O7_2 O 0.14901(10) 0.6857(3) 0.6508(6)
O12_2 O 0.2217(2) 0.5459(6) 0.921(4)
O13_4 O 0.2442(6) 0.5915(18) 0.350(4)
C1_4 C 0.03947(16) 0.5818(6) 0.0865(14)
C2_4 C 0.06893(14) 0.6279(4) 0.1280(10)
C3_4 C 0.08931(12) 0.6058(4) 0.2854(9)
H2_4 H 0.0848 0.5614 0.3616
C4_4 C 0.11615(11) 0.6490(3) 0.3294(7)
C5_4 C 0.12301(12) 0.7146(3) 0.2115(8)
C6_4 C 0.10336(15) 0.7348(4) 0.0498(9)
C7_4 C 0.07645(17) 0.6911(5) 0.0071(10)
C8_4 C 0.15303(12) 0.8389(3) 0.2252(7)
C9_4 C 0.18036(11) 0.8683(3) 0.1753(7)
C10_4 C 0.18453(12) 0.9534(3) 0.1605(7)
H5_4 H 0.2028 0.9739 0.1276
C12_4 C 0.13445(14) 0.9786(4) 0.2398(8)
C13_4 C 0.13005(12) 0.8937(4) 0.2554(8)
H7_4 H 0.1117 0.8732 0.2863
O39_2 O 0.19448(10) 0.7379(2) 0.9919(6)
H15_4 H 0.241143 0.531425 0.380702
H16_4 H 0.266406 0.603318 0.357999
H3_4 H 0.1083 0.7776 0.9706
H4_4 H 0.0632 0.7037 0.8973
O17_4 O 0.85638(11) 0.1476(3) 0.2920(6)
H8_4 H 0.8547 0.1949 0.3352
C25_4 C 0.83839(13) 0.0096(3) 0.3058(7)
H13_4 H 0.8810 0.0157 0.2398
C28_4 C 0.83287(14) 0.1009(3) 0.3243(7)
S4_4 S 0.79069(3) 0.79713(8) 0.37295(17)
O15_4 O 0.96495(12) 0.5224(4) 0.3070(12)
O16_4 O 0.84939(8) 0.7537(2) 0.2434(6)
O22_2 O 0.80552(10) 0.7379(2) 0.5081(6)
O26_4 O 0.7558(6) 0.5915(18) 0.150(4)
C15_4 C 0.96053(16) 0.5818(6) 0.4135(14)
C16_4 C 0.93107(14) 0.6279(4) 0.3720(10)
C17_4 C 0.91069(12) 0.6058(4) 0.2146(9)
H9_4 H 0.9152 0.5614 0.1384
C18_4 C 0.88385(11) 0.6490(3) 0.1706(7)
C19_4 C 0.87699(12) 0.7146(3) 0.2885(8)
C20_4 C 0.89664(15) 0.7348(4) 0.4502(9)
H10_4 H 0.8917 0.7776 0.5294
C21_4 C 0.92355(17) 0.6911(5) 0.4929(10)
H11_4 H 0.9368 0.7037 0.6027
C22_4 C 0.84697(12) 0.8389(3) 0.2748(7)
C23_4 C 0.81964(11) 0.8683(3) 0.3247(7)
C24_4 C 0.81547(12) 0.9534(3) 0.3395(7)
H12_4 H 0.7972 0.9739 0.3724
C26_4 C 0.86555(14) 0.9786(4) 0.2602(8)
C27_4 C 0.86995(12) 0.8937(4) 0.2446(8)
H14_4 H 0.8883 0.8732 0.2137
O36_2 O 0.85099(10) 0.6857(3) 0.8492(6)
O46_2 O 0.7783(2) 0.5459(6) 0.579(4)
H17_4 H 0.758857 0.531425 0.119298
H18_4 H 0.733594 0.603318 0.142001
S3_4 S 0.85668(3) 0.61555(8) 0.97794(18)
loop_
_geom_bond_atom_site_label_1
_geom_bond_atom_site_label_2
_geom_bond_site_symmetry_1
_geom_bond_site_symmetry_2
O27 Zn1 1_555 1_555
O28 Zn1 1_555 1_555
K8 O34 1_555 1_555
K4 O20 1_555 1_555
S3 O19 1_555 1_555
O19 K6 1_555 1_555
O20 S3 1_555 1_555
O25 K4 1_555 1_555
Zn3 O1 1_555 1_555
K6 O20 1_555 1_555
K9 O9 1_555 1_555
O29 K4 1_555 1_555
O40 K4 1_555 1_555
O42 K4 1_555 1_555
O44 K4 1_555 1_555
O25 K6 1_555 1_555
K6 O40 1_555 1_555
K9 O35 1_555 1_555
K9 O45 1_555 1_555
K1 O3 1_555 1_555
S1 O31 1_555 1_555
O2 C1 1_555 1_555
O3 C5 1_555 1_555
O4 H1 1_555 1_555
O5 C14 1_555 1_555
O35 S1 1_555 1_555
O8 K1 1_555 1_555
O10 K9 1_555 1_555
O11 S2 1_555 1_555
O13 K9 1_555 1_555
C1 C2 1_555 1_555
C2 C3 1_555 1_555
C3 H2 1_555 1_555
C4 S1 1_555 1_555
C5 C4 1_555 1_555
C6 C5 1_555 1_555
C7 C2 1_555 1_555
C8 O3 1_555 1_555
C9 S2 1_555 1_555
C10 C9 1_555 1_555
H5 C10 1_555 1_555
C11 C10 1_555 1_555
C12 C11 1_555 1_555
H6 C12 1_555 1_555
C13 C8 1_555 1_555
H7 C13 1_555 1_555
C14 O4 1_555 1_555
K6 O16 1_555 1_555
S4 O40 1_555 1_555
O14 C15 1_555 1_555
O16 C19 1_555 1_555
O17 H8 1_555 1_555
O18 C28 1_555 1_555
O21 K6 1_555 1_555
O24 S4 1_555 1_555
C15 O15 1_555 1_555
C16 C15 1_555 1_555
C17 C16 1_555 1_555
H9 C17 1_555 1_555
C19 C18 1_555 1_555
C20 C19 1_555 1_555
H10 C20 1_555 1_555
C21 C16 1_555 1_555
H11 C21 1_555 1_555
C22 O16 1_555 1_555
C23 S4 1_555 1_555
C24 C23 1_555 1_555
H12 C24 1_555 1_555
C25 C24 1_555 1_555
C26 C25 1_555 1_555
H13 C26 1_555 1_555
C27 C22 1_555 1_555
H14 C27 1_555 1_555
C28 O17 1_555 1_555
Zn3 O14 1_555 1_555
K11 O18 1_555 1_555
K12 O5 1_555 1_555
K13 O10 1_555 1_555
K14 O23 1_555 1_555
O30 K9 1_555 1_555
O41 K9 1_555 1_555
O43 K9 1_555 1_555
K9 O8 1_555 1_555
S1 O8 1_555 1_555
S2 O10 1_555 1_555
O11 K13 1_555 1_555
C3 C4 1_555 1_555
C6 C7 1_555 1_555
C8 C9 1_555 1_555
C11 C14 1_555 1_555
C12 C13 1_555 1_555
S4 O23 1_555 1_555
O24 K14 1_555 1_555
C17 C18 1_555 1_555
C20 C21 1_555 1_555
C22 C23 1_555 1_555
C25 C28 1_555 1_555
C26 C27 1_555 1_555
K13 O41 1_555 1_555
O13 H15 1_555 1_555
O13 H16 1_555 1_555
O26 H17 1_555 1_555
O26 H18 1_555 1_555
K4_2 O20_2 1_555 1_555
S3_2 O19_2 1_555 1_555
O19_2 K6_2 1_555 1_555
O20_2 S3_2 1_555 1_555
O25_2 K4_2 1_555 1_555
K6_2 O20_2 1_555 1_555
K7_2 O19_2 1_555 1_555
O29_2 K4_2 1_555 1_555
O40_2 K4_2 1_555 1_555
O42_2 K4_2 1_555 1_555
O44_2 K4_2 1_555 1_555
O25_2 K6_2 1_555 1_555
K6_2 O40_2 1_555 1_555
K6_2 O16_2 1_555 1_555
S4_2 O40_2 1_555 1_555
O14_2 C15_2 1_555 1_555
O15_2 Zn1_2 1_555 1_555
O16_2 C19_2 1_555 1_555
O21_2 K6_2 1_555 1_555
O24_2 S4_2 1_555 1_555
C15_2 O15_2 1_555 1_555
C16_2 C15_2 1_555 1_555
C17_2 C16_2 1_555 1_555
H9_2 C17_2 1_555 1_555
C19_2 C18_2 1_555 1_555
C20_2 C19_2 1_555 1_555
H10_2 C20_2 1_555 1_555
C21_2 C16_2 1_555 1_555
H11_2 C21_2 1_555 1_555
C22_2 O16_2 1_555 1_555
C23_2 S4_2 1_555 1_555
C24_2 C23_2 1_555 1_555
H12_2 C24_2 1_555 1_555
C27_2 C22_2 1_555 1_555
H14_2 C27_2 1_555 1_555
Zn3_2 O14_2 1_555 1_555
K12 O23_2 1_555 1_555
O27_2 Zn1_2 1_555 1_555
O33_2 K6_2 1_555 1_555
O37_2 K6_2 1_555 1_555
S4_2 O23_2 1_555 1_555
O24_2 K12 1_555 1_555
C17_2 C18_2 1_555 1_555
C20_2 C21_2 1_555 1_555
C22_2 C23_2 1_555 1_555
C26_2 C27_2 1_555 1_555
O26_2 H17_2 1_555 1_555
O26_2 H18_2 1_555 1_555
O17_2 H8_2 1_555 1_555
O18_2 C28_2 1_555 1_555
C28_2 O17_2 1_555 1_555
K13 O18_2 1_555 1_555
C25_2 C28_2 1_555 1_555
Zn3_3 O1_2 1_555 1_555
K9_2 O9_2 1_555 1_555
K9_2 O35_2 1_555 1_555
K9_2 O45_2 1_555 1_555
Zn1_3 O2_2 1_555 1_555
K1_2 O3_2 1_555 1_555
S1_2 O31_2 1_555 1_555
O2_2 C1_2 1_555 1_555
O3_2 C5_2 1_555 1_555
O35_2 S1_2 1_555 1_555
O8_2 K1_2 1_555 1_555
O10_2 K9_2 1_555 1_555
O11_2 S2_2 1_555 1_555
O13_2 K9_2 1_555 1_555
C1_2 C2_2 1_555 1_555
C2_2 C3_2 1_555 1_555
C3_2 H2_2 1_555 1_555
C4_2 S1_2 1_555 1_555
C5_2 C4_2 1_555 1_555
C6_2 C5_2 1_555 1_555
C7_2 C2_2 1_555 1_555
C8_2 O3_2 1_555 1_555
C9_2 S2_2 1_555 1_555
C10_2 C9_2 1_555 1_555
H5_2 C10_2 1_555 1_555
C13_2 C8_2 1_555 1_555
H7_2 C13_2 1_555 1_555
K8_2 O31_2 1_555 1_555
K11 O10_2 1_555 1_555
O28_2 Zn1_3 1_555 1_555
O30_2 K9_2 1_555 1_555
O34_2 K1_2 1_555 1_555
O41_2 K9_2 1_555 1_555
O43_2 K9_2 1_555 1_555
K9_2 O8_2 1_555 1_555
S1_2 O8_2 1_555 1_555
S2_2 O10_2 1_555 1_555
O8_2 K8_2 1_555 1_555
O11_2 K11 1_555 1_555
C3_2 C4_2 1_555 1_555
C6_2 C7_2 1_555 1_555
C8_2 C9_2 1_555 1_555
C12_2 C13_2 1_555 1_555
K8_2 O34_2 1_555 1_555
K11 O41_2 1_555 1_555
O13_2 H15_2 1_555 1_555
O13_2 H16_2 1_555 1_555
O4_2 H1_2 1_555 1_555
O5_2 C14_2 1_555 1_555
C14_2 O4_2 1_555 1_555
K14 O5_2 1_555 1_555
C11_2 C14_2 1_555 1_555
K7 O3_3 1_555 1_555
K11 O7 1_555 1_555
S1_3 O33 1_555 1_555
O2_3 C1_3 1_555 1_555
O3_3 C5_3 1_555 1_555
O4_3 H1_3 1_555 1_555
O29 C14_3 1_555 1_555
O7 S1_3 1_555 1_555
O37 K7 1_555 1_555
O43_2 S2_3 1_555 1_555
O12 K11 1_555 1_555
O13_3 K11 1_555 1_555
C1_3 C2_3 1_555 1_555
C2_3 C3_3 1_555 1_555
C3_3 H2_3 1_555 1_555
C4_3 S1_3 1_555 1_555
C5_3 C4_3 1_555 1_555
C6_3 C5_3 1_555 1_555
C7_3 C2_3 1_555 1_555
C8_3 O3_3 1_555 1_555
C9_3 S2_3 1_555 1_555
C10_3 C9_3 1_555 1_555
H5_3 C10_3 1_555 1_555
C11_3 C10_3 1_555 1_555
C12_3 C11_3 1_555 1_555
H6_3 C12_3 1_555 1_555
C13_3 C8_3 1_555 1_555
H7_3 C13_3 1_555 1_555
C14_3 O4_3 1_555 1_555
K8 O16_3 1_555 1_555
S4_3 O22 1_555 1_555
O28 C15_3 1_555 1_555
O16_3 C19_3 1_555 1_555
O17_3 H8_3 1_555 1_555
O30 C28_3 1_555 1_555
O38 K8 1_555 1_555
O22 K8 1_555 1_555
O44_2 S4_3 1_555 1_555
C15_3 O15_3 1_555 1_555
C16_3 C15_3 1_555 1_555
C17_3 C16_3 1_555 1_555
H9_3 C17_3 1_555 1_555
C19_3 C18_3 1_555 1_555
C20_3 C19_3 1_555 1_555
H10_3 C20_3 1_555 1_555
C21_3 C16_3 1_555 1_555
H11_3 C21_3 1_555 1_555
C22_3 O16_3 1_555 1_555
C23_3 S4_3 1_555 1_555
C24_3 C23_3 1_555 1_555
H12_3 C24_3 1_555 1_555
C25_3 C24_3 1_555 1_555
C26_3 C25_3 1_555 1_555
H13_3 C26_3 1_555 1_555
C27_3 C22_3 1_555 1_555
H14_3 C27_3 1_555 1_555
C28_3 O17_3 1_555 1_555
K12 O22 1_555 1_555
O36 K8 1_555 1_555
O39 K11 1_555 1_555
O46 K8 1_555 1_555
K11 O37 1_555 1_555
S1_3 O37 1_555 1_555
S2_3 O41_2 1_555 1_555
C3_3 C4_3 1_555 1_555
C6_3 C7_3 1_555 1_555
C8_3 C9_3 1_555 1_555
C11_3 C14_3 1_555 1_555
C12_3 C13_3 1_555 1_555
S4_3 O42_2 1_555 1_555
C17_3 C18_3 1_555 1_555
C20_3 C21_3 1_555 1_555
C22_3 C23_3 1_555 1_555
C25_3 C28_3 1_555 1_555
C26_3 C27_3 1_555 1_555
K12 O36 1_555 1_555
K12 O46 1_555 1_555
O13_3 H15_3 1_555 1_555
O13_3 H16_3 1_555 1_555
O26_3 H17_3 1_555 1_555
O26_3 H18_3 1_555 1_555
S3_3 O34 1_555 1_555
O36 S3_3 1_555 1_555
O4_4 H1_4 1_555 1_555
O29_2 C14_4 1_555 1_555
C14_4 O4_4 1_555 1_555
C11_4 C14_4 1_555 1_555
Zn3_2 O2_4 1_555 1_555
K7_2 O3_4 1_555 1_555
K13 O7_2 1_555 1_555
S1_4 O33_2 1_555 1_555
O2_4 C1_4 1_555 1_555
O3_4 C5_4 1_555 1_555
O7_2 S1_4 1_555 1_555
O37_2 K7_2 1_555 1_555
O43 S2_4 1_555 1_555
O12_2 K13 1_555 1_555
O13_4 K13 1_555 1_555
C1_4 C2_4 1_555 1_555
C2_4 C3_4 1_555 1_555
C3_4 H2_4 1_555 1_555
C4_4 S1_4 1_555 1_555
C5_4 C4_4 1_555 1_555
C6_4 C5_4 1_555 1_555
C7_4 C2_4 1_555 1_555
C8_4 O3_4 1_555 1_555
C9_4 S2_4 1_555 1_555
C10_4 C9_4 1_555 1_555
H5_4 C10_4 1_555 1_555
C13_4 C8_4 1_555 1_555
H7_4 C13_4 1_555 1_555
O39_2 K13 1_555 1_555
K13 O37_2 1_555 1_555
S1_4 O37_2 1_555 1_555
S2_4 O41 1_555 1_555
C3_4 C4_4 1_555 1_555
C6_4 C7_4 1_555 1_555
C8_4 C9_4 1_555 1_555
C12_4 C13_4 1_555 1_555
O13_4 H15_4 1_555 1_555
O13_4 H16_4 1_555 1_555
O17_4 H8_4 1_555 1_555
O30_2 C28_4 1_555 1_555
C28_4 O17_4 1_555 1_555
C25_4 C28_4 1_555 1_555
K8_2 O16_4 1_555 1_555
S4_4 O22_2 1_555 1_555
O28_2 C15_4 1_555 1_555
O15_4 Zn3_3 1_555 1_555
O16_4 C19_4 1_555 1_555
O38_2 K8_2 1_555 1_555
O22_2 K8_2 1_555 1_555
O44 S4_4 1_555 1_555
C15_4 O15_4 1_555 1_555
C16_4 C15_4 1_555 1_555
C17_4 C16_4 1_555 1_555
H9_4 C17_4 1_555 1_555
C19_4 C18_4 1_555 1_555
C20_4 C19_4 1_555 1_555
H10_4 C20_4 1_555 1_555
C21_4 C16_4 1_555 1_555
H11_4 C21_4 1_555 1_555
C22_4 O16_4 1_555 1_555
C23_4 S4_4 1_555 1_555
C24_4 C23_4 1_555 1_555
H12_4 C24_4 1_555 1_555
C27_4 C22_4 1_555 1_555
H14_4 C27_4 1_555 1_555
K14 O22_2 1_555 1_555
O36_2 K8_2 1_555 1_555
O46_2 K8_2 1_555 1_555
S4_4 O42 1_555 1_555
C17_4 C18_4 1_555 1_555
C20_4 C21_4 1_555 1_555
C22_4 C23_4 1_555 1_555
C26_4 C27_4 1_555 1_555
K14 O36_2 1_555 1_555
K14 O46_2 1_555 1_555
O26_4 H17_4 1_555 1_555
O26_4 H18_4 1_555 1_555
S3_4 O34_2 1_555 1_555
O36_2 S3_4 1_555 1_555

#END
