
###############################################################################
#
# This file contains modified crystal structure data generated from the
# MOF subset of the Cambridge Structural Database (CSD) v543 
# hosted by the Cambridge Crystallographic Data Centre (CCDC).
#
# This work is licensed under the Creative Commons
# Attribution-NonCommercial-ShareAlike 4.0 International License.
# To view a copy of this license, visit
# http://creativecommons.org/licenses/by-nc-sa/4.0/
# or send a letter to
# Creative Commons, PO Box 1866, Mountain View, CA 94042, USA.
#
# CIF created using the CSD Python API on 29 September 2022
# The structure has been converted into the P1 space group
# The structure has a 3D framework
# The original CSD entry DACDEU is in the rhombohedral crystal system
# The framework has been calculated to contain at least 10.0% void space
# The void calculation uses a probe of radius 1.32A, grid spacing 0.4
# H atom positions have been added when not included in the experimental data
#
###############################################################################

data_DACDEU
_chemical_formula_moiety         '(C504 H252 Na32 O398 S72 Zn36)n'
_symmetry_cell_setting           triclinic
_symmetry_space_group_name_H-M   'P 1'
_symmetry_Int_Tables_number      1
_space_group_name_Hall           'P 1'
loop_
_symmetry_equiv_pos_site_id
_symmetry_equiv_pos_as_xyz
1 x,y,z
_cell_length_a                   19.9692(15)
_cell_length_b                   19.9692(15)
_cell_length_c                   77.038(8)
_cell_angle_alpha                90
_cell_angle_beta                 90
_cell_angle_gamma                120
_cell_volume                     26604.6
loop_
_atom_site_label
_atom_site_type_symbol
_atom_site_fract_x
_atom_site_fract_y
_atom_site_fract_z
Zn2 Zn 0.57163(3) 0.15140(4) 0.57357(2)
S4 S 0.56580(9) 0.03396(12) 0.69831(2)
O13 O 0.55857(19) 0.08107(28) 0.59284(4)
O14 O 0.66396(19) 0.17889(27) 0.60483(4)
O16 O 0.8679(2) 0.0092(3) 0.70652(6)
O17 O 0.82157(19) 0.06337(28) 0.72427(5)
O21 O 0.5751(3) 0.0919(4) 0.68598(7)
O23 O 0.5868(2) 0.0633(3) 0.71585(6)
C15 C 0.6061(3) 0.1112(4) 0.60525(6)
C16 C 0.5932(3) 0.0650(4) 0.62120(6)
C18 C 0.6459(3) 0.0979(4) 0.63495(7)
H8 H 0.6878 0.1477 0.6340
C20 C 0.6355(3) 0.0565(4) 0.64972(7)
H9 H 0.6702 0.0785 0.6589
C23 C 0.6338(3) 0.0053(4) 0.69216(6)
C25 C 0.6973(3) 0.0252(4) 0.70288(6)
H11 H 0.7033 0.0530 0.7130
C27 C 0.7518(3) 0.0041(4) 0.69863(6)
C28 C 0.8197(3) 0.0265(4) 0.71063(7)
Zn3 Zn 0.76170(3) 0.24644(3) 0.59310(2)
Zn6 Zn 0.90496(3) 0.08690(3) 0.74024(2)
O24 O 0.5755(2) 0.2422(2) 0.5833
O25 O 0.66937(19) 0.18160(19) 0.56184(4)
O29 O 0.48824(19) 0.0915(2) 0.55760(5)
Zn1 Zn 0.57977(3) 0.42837(3) 0.57357(2)
S1 S 0.41456(7) 0.56129(6) 0.63885(2)
S2 S 0.46816(8) 0.43420(9) 0.69831(2)
Na1 Na 0.51402(11) 0.73354(11) 0.64951(3)
O1 O 0.6667 0.4245(2) 0.5833
O2 O 0.5225(2) 0.44143(19) 0.59284(4)
O3 O 0.51493(19) 0.33604(19) 0.60483(4)
O4 O 0.37736(19) 0.43768(17) 0.66637(4)
O5 O 0.1413(2) 0.1321(2) 0.70652(6)
O6 O 0.2418(2) 0.17843(19) 0.72427(5)
O7 O 0.4629(2) 0.61379(19) 0.62557(5)
O8 O 0.33338(18) 0.53007(19) 0.63558(5)
O9 O 0.43839(19) 0.59589(18) 0.65597(5)
O10 O 0.5168(2) 0.4249(3) 0.68598(7)
O11 O 0.4748(2) 0.5088(2) 0.69729(6)
O12 O 0.4765(2) 0.4132(2) 0.71585(6)
C1 C 0.5051(3) 0.3939(3) 0.60525(6)
C2 C 0.4718(3) 0.4068(3) 0.62120(6)
C3 C 0.4620(3) 0.4699(2) 0.62317(6)
H1 H 0.4771 0.5058 0.6142
C4 C 0.4520(3) 0.3541(3) 0.63495(7)
H2 H 0.4599 0.3122 0.6340
C5 C 0.4303(2) 0.4814(2) 0.63807(6)
C6 C 0.4210(3) 0.3645(3) 0.64972(7)
H3 H 0.4083 0.3298 0.6589
C7 C 0.4082(3) 0.4267(3) 0.65129(6)
C8 C 0.3370(3) 0.3734(3) 0.67718(6)
C9 C 0.3715(3) 0.3662(3) 0.69216(6)
C10 C 0.2626(3) 0.3206(3) 0.67287(6)
H4 H 0.2409 0.3270 0.6628
C11 C 0.3279(3) 0.3027(3) 0.70288(6)
H5 H 0.3497 0.2967 0.7130
C12 C 0.2191(3) 0.2571(3) 0.68362(7)
H6 H 0.1684 0.2211 0.6807
C13 C 0.2523(3) 0.2482(3) 0.69863(6)
C14 C 0.2068(3) 0.1803(3) 0.71063(7)
S3 S 0.43871(6) 0.85327(9) 0.63885(2)
Na2 Na 0.26646(11) 0.78048(16) 0.64951(3)
O15 O 0.56232(17) 0.93968(25) 0.66637(4)
O18 O 0.38621(19) 0.84911(28) 0.62557(5)
O19 O 0.46993(19) 0.80331(26) 0.63558(5)
O20 O 0.40411(18) 0.84250(26) 0.65597(5)
O22 O 0.4912(2) 0.9660(3) 0.69729(6)
C17 C 0.5301(2) 0.9921(4) 0.62317(6)
H7 H 0.4942 0.9713 0.6142
C19 C 0.5186(2) 0.9489(3) 0.63807(6)
C21 C 0.5733(3) 0.9815(4) 0.65129(6)
C22 C 0.6266(3) 0.9636(4) 0.67718(6)
C24 C 0.6794(3) 0.9420(4) 0.67287(6)
H10 H 0.6730 0.9139 0.6628
C26 C 0.7429(3) 0.9620(4) 0.68362(7)
H12 H 0.7789 0.9473 0.6807
Zn4 Zn 0.75356(3) 0.51527(4) 0.59310(2)
Zn5 Zn 0.48473(4) 0.23830(3) 0.59310(2)
Zn7 Zn 0.18193(4) 0.09504(3) 0.74024(2)
Na3 Na 0.21952(16) 0.48598(11) 0.64951(3)
Na4 Na 0.40021(11) 0.55285(16) 0.68382(3)
Na5 Na 0.44715(16) 0.84735(11) 0.68382(3)
O26 O 0.51222(27) 0.33063(19) 0.56184(4)
O27 O 0.28931(19) 0.89565(17) 0.66696(4)
O28 O 0.60635(25) 0.71069(19) 0.66696(4)
O30 O 0.60330(28) 0.51176(19) 0.55760(5)
O31 O 0.19669(26) 0.66662(18) 0.63558(5)
O32 O 0.22828(19) 0.73744(18) 0.67736(5)
O33 O 0.50917(26) 0.77172(19) 0.67736(5)
O34 O 0.1919(2) 0.8245(2) 0.63604(6)
O35 O 0.6327(3) 0.8081(2) 0.63604(6)
H13 H 0.104668 0.128766 0.715655
H14 H 0.871234 0.975902 0.715655
S3_2 S 0.14673(9) 0.58544(11) 0.63885(2)
O15_2 O 0.06032(25) 0.62264(30) 0.66637(4)
O18_2 O 0.15089(28) 0.53710(34) 0.62557(5)
O20_2 O 0.15750(26) 0.56161(32) 0.65597(5)
O22_2 O 0.0340(3) 0.5252(4) 0.69729(6)
C17_2 C 0.0079(4) 0.5380(4) 0.62317(6)
H7_2 H 0.0287 0.5229 0.6142
C19_2 C 0.0511(3) 0.5697(4) 0.63807(6)
C21_2 C 0.0185(4) 0.5918(5) 0.65129(6)
C22_2 C 0.0364(4) 0.6630(5) 0.67718(6)
C24_2 C 0.0580(4) 0.7374(5) 0.67287(6)
H10_2 H 0.0861 0.7591 0.6628
C26_2 C 0.0380(4) 0.7809(5) 0.68362(7)
H12_2 H 0.0527 0.8316 0.6807
Na5_2 Na 0.15265(11) 0.59979(19) 0.68382(3)
O27_2 O 0.10435(17) 0.39365(25) 0.66696(4)
O32_2 O 0.26256(18) 0.49083(26) 0.67736(5)
O34_2 O 0.1755(2) 0.3673(3) 0.63604(6)
H14_2 H 0.0240978 0.895332 0.715655
Zn2_2 Zn 0.84860(4) 0.42023(5) 0.57357(2)
S4_2 S 0.96604(12) 0.53184(15) 0.69831(2)
O13_2 O 0.91893(28) 0.47750(34) 0.59284(4)
O14_2 O 0.82111(27) 0.48507(33) 0.60483(4)
O16_2 O 0.9908(3) 0.8587(4) 0.70652(6)
O17_2 O 0.93663(28) 0.75820(34) 0.72427(5)
O21_2 O 0.9081(4) 0.4832(5) 0.68598(7)
O23_2 O 0.9367(3) 0.5235(4) 0.71585(6)
C15_2 C 0.8888(4) 0.4949(5) 0.60525(6)
C16_2 C 0.9350(4) 0.5282(5) 0.62120(6)
C18_2 C 0.9021(4) 0.5480(5) 0.63495(7)
H8_2 H 0.8523 0.5401 0.6340
C20_2 C 0.9435(4) 0.5790(5) 0.64972(7)
H9_2 H 0.9215 0.5917 0.6589
C23_2 C 0.9947(4) 0.6285(5) 0.69216(6)
C25_2 C 0.9748(4) 0.6721(5) 0.70288(6)
H11_2 H 0.9470 0.6503 0.7130
C27_2 C 0.9959(4) 0.7477(5) 0.69863(6)
C28_2 C 0.9735(4) 0.7932(5) 0.71063(7)
Zn6_2 Zn 0.91310(3) 0.81807(4) 0.74024(2)
O24_2 O 0.7578(2) 0.3333(3) 0.5833
O25_2 O 0.81840(19) 0.48778(27) 0.56184(4)
O29_2 O 0.9085(2) 0.39670(28) 0.55760(5)
Zn2_3 Zn 0.15140(4) 0.57163(3) 0.92643(2)
S4_3 S 0.03396(12) 0.56580(9) 0.80169(2)
O13_3 O 0.08107(28) 0.55857(19) 0.90716(4)
O14_3 O 0.17889(27) 0.66396(19) 0.89517(4)
O16_3 O 0.0092(3) 0.8679(2) 0.79348(6)
O17_3 O 0.06337(28) 0.82157(19) 0.77573(5)
O21_3 O 0.0919(4) 0.5751(3) 0.81402(7)
O23_3 O 0.0633(3) 0.5868(2) 0.78415(6)
C15_3 C 0.1112(4) 0.6061(3) 0.89475(6)
C16_3 C 0.0650(4) 0.5932(3) 0.87880(6)
C18_3 C 0.0979(4) 0.6459(3) 0.86505(7)
H8_3 H 0.1477 0.6878 0.8660
C20_3 C 0.0565(4) 0.6355(3) 0.85028(7)
H9_3 H 0.0785 0.6702 0.8411
C23_3 C 0.0053(4) 0.6338(3) 0.80784(6)
C25_3 C 0.0252(4) 0.6973(3) 0.79712(6)
H11_3 H 0.0530 0.7033 0.7870
C27_3 C 0.0041(4) 0.7518(3) 0.80137(6)
C28_3 C 0.0265(4) 0.8197(3) 0.78937(7)
Zn3_2 Zn 0.24644(3) 0.76170(3) 0.90690(2)
Zn6_3 Zn 0.08690(3) 0.90496(3) 0.75976(2)
O24_3 O 0.2422(2) 0.5755(2) 0.9167
O25_3 O 0.18160(19) 0.66937(19) 0.93816(4)
O29_3 O 0.0915(2) 0.48824(19) 0.94240(5)
Zn1_2 Zn 0.42837(3) 0.57977(3) 0.92643(2)
S1_2 S 0.56129(6) 0.41456(7) 0.86115(2)
S2_2 S 0.43420(9) 0.46816(8) 0.80169(2)
Na1_2 Na 0.73354(11) 0.51402(11) 0.85049(3)
O1_2 O 0.4245(2) 0.6667 0.9167
O2_2 O 0.44143(19) 0.5225(2) 0.90716(4)
O3_2 O 0.33604(19) 0.51493(19) 0.89517(4)
O4_2 O 0.43768(17) 0.37736(19) 0.83363(4)
O5_2 O 0.1321(2) 0.1413(2) 0.79348(6)
O6_2 O 0.17843(19) 0.2418(2) 0.77573(5)
O7_2 O 0.61379(19) 0.4629(2) 0.87443(5)
O8_2 O 0.53007(19) 0.33338(18) 0.86442(5)
O9_2 O 0.59589(18) 0.43839(19) 0.84403(5)
O10_2 O 0.4249(3) 0.5168(2) 0.81402(7)
O11_2 O 0.5088(2) 0.4748(2) 0.80271(6)
O12_2 O 0.4132(2) 0.4765(2) 0.78415(6)
C1_2 C 0.3939(3) 0.5051(3) 0.89475(6)
C2_2 C 0.4068(3) 0.4718(3) 0.87880(6)
C3_2 C 0.4699(2) 0.4620(3) 0.87683(6)
H1_2 H 0.5058 0.4771 0.8858
C4_2 C 0.3541(3) 0.4520(3) 0.86505(7)
H2_2 H 0.3122 0.4599 0.8660
C5_2 C 0.4814(2) 0.4303(2) 0.86193(6)
C6_2 C 0.3645(3) 0.4210(3) 0.85028(7)
H3_2 H 0.3298 0.4083 0.8411
C7_2 C 0.4267(3) 0.4082(3) 0.84871(6)
C8_2 C 0.3734(3) 0.3370(3) 0.82282(6)
C9_2 C 0.3662(3) 0.3715(3) 0.80784(6)
C10_2 C 0.3206(3) 0.2626(3) 0.82713(6)
H4_2 H 0.3270 0.2409 0.8372
C11_2 C 0.3027(3) 0.3279(3) 0.79712(6)
H5_2 H 0.2967 0.3497 0.7870
C12_2 C 0.2571(3) 0.2191(3) 0.81638(7)
H6_2 H 0.2211 0.1684 0.8193
C13_2 C 0.2482(3) 0.2523(3) 0.80137(6)
C14_2 C 0.1803(3) 0.2068(3) 0.78937(7)
S3_3 S 0.85327(9) 0.43871(6) 0.86115(2)
Na2_2 Na 0.78048(16) 0.26646(11) 0.85049(3)
O15_3 O 0.93968(25) 0.56232(17) 0.83363(4)
O18_3 O 0.84911(28) 0.38621(19) 0.87443(5)
O19_2 O 0.80331(26) 0.46993(19) 0.86442(5)
O20_3 O 0.84250(26) 0.40411(18) 0.84403(5)
O22_3 O 0.9660(3) 0.4912(2) 0.80271(6)
C17_3 C 0.9921(4) 0.5301(2) 0.87683(6)
H7_3 H 0.9713 0.4942 0.8858
C19_3 C 0.9489(3) 0.5186(2) 0.86193(6)
C21_3 C 0.9815(4) 0.5733(3) 0.84871(6)
C22_3 C 0.9636(4) 0.6266(3) 0.82282(6)
C24_3 C 0.9420(4) 0.6794(3) 0.82713(6)
H10_3 H 0.9139 0.6730 0.8372
C26_3 C 0.9620(4) 0.7429(3) 0.81638(7)
H12_3 H 0.9473 0.7789 0.8193
Zn4_2 Zn 0.51527(4) 0.75356(3) 0.90690(2)
Zn5_2 Zn 0.23830(3) 0.48473(4) 0.90690(2)
Zn7_2 Zn 0.09504(3) 0.18193(4) 0.75976(2)
Na3_2 Na 0.48598(11) 0.21952(16) 0.85049(3)
Na4_2 Na 0.55285(16) 0.40021(11) 0.81618(3)
Na5_3 Na 0.84735(11) 0.44715(16) 0.81618(3)
O26_2 O 0.33063(19) 0.51222(27) 0.93816(4)
O27_3 O 0.89565(17) 0.28931(19) 0.83304(4)
O28_2 O 0.71069(19) 0.60635(25) 0.83304(4)
O30_2 O 0.51176(19) 0.60330(28) 0.94240(5)
O31_2 O 0.66662(18) 0.19669(26) 0.86442(5)
O32_3 O 0.73744(18) 0.22828(19) 0.82264(5)
O33_2 O 0.77172(19) 0.50917(26) 0.82264(5)
O34_3 O 0.8245(2) 0.1919(2) 0.86396(6)
O35_2 O 0.8081(2) 0.6327(3) 0.86396(6)
H13_2 H 0.128766 0.104668 0.784345
H14_3 H 0.975902 0.871234 0.784345
S1_3 S 0.58544(7) 0.14673(9) 0.86115(2)
O4_3 O 0.62264(19) 0.06032(25) 0.83363(4)
O7_3 O 0.5371(2) 0.15089(28) 0.87443(5)
O9_3 O 0.56161(19) 0.15750(26) 0.84403(5)
O11_3 O 0.5252(2) 0.0340(3) 0.80271(6)
C3_3 C 0.5380(3) 0.0079(4) 0.87683(6)
H1_3 H 0.5229 0.0287 0.8858
C5_3 C 0.5697(2) 0.0511(3) 0.86193(6)
C7_3 C 0.5918(3) 0.0185(4) 0.84871(6)
C8_3 C 0.6630(3) 0.0364(4) 0.82282(6)
C10_3 C 0.7374(3) 0.0580(4) 0.82713(6)
H4_3 H 0.7591 0.0861 0.8372
C12_3 C 0.7809(3) 0.0380(4) 0.81638(7)
H6_3 H 0.8316 0.0527 0.8193
Na4_3 Na 0.59979(11) 0.15265(19) 0.81618(3)
O28_3 O 0.39365(25) 0.10435(31) 0.83304(4)
O33_3 O 0.49083(26) 0.26256(32) 0.82264(5)
O35_3 O 0.3673(3) 0.1755(4) 0.86396(6)
H13_3 H 0.895332 0.0240978 0.784345
Zn1_3 Zn 0.42023(3) 0.84860(4) 0.92643(2)
S2_3 S 0.53184(8) 0.96604(12) 0.80169(2)
O1_3 O 0.3333 0.7578(2) 0.9167
O2_3 O 0.4775(2) 0.91893(28) 0.90716(4)
O3_3 O 0.48507(19) 0.82111(27) 0.89517(4)
O5_3 O 0.8587(2) 0.9908(3) 0.79348(6)
O6_3 O 0.7582(2) 0.93663(28) 0.77573(5)
O10_3 O 0.4832(2) 0.9081(4) 0.81402(7)
O12_3 O 0.5235(2) 0.9367(3) 0.78415(6)
C1_3 C 0.4949(3) 0.8888(4) 0.89475(6)
C2_3 C 0.5282(3) 0.9350(4) 0.87880(6)
C4_3 C 0.5480(3) 0.9021(4) 0.86505(7)
H2_3 H 0.5401 0.8523 0.8660
C6_3 C 0.5790(3) 0.9435(4) 0.85028(7)
H3_3 H 0.5917 0.9215 0.8411
C9_3 C 0.6285(3) 0.9947(4) 0.80784(6)
C11_3 C 0.6721(3) 0.9748(4) 0.79712(6)
H5_3 H 0.6503 0.9470 0.7870
C13_3 C 0.7477(3) 0.9959(4) 0.80137(6)
C14_3 C 0.7932(3) 0.9735(4) 0.78937(7)
Zn7_3 Zn 0.81807(4) 0.91310(5) 0.75976(2)
O26_3 O 0.48778(27) 0.81840(33) 0.93816(4)
O30_3 O 0.39670(28) 0.90847(34) 0.94240(5)
S4_4 S 0.23247(9) 0.36729(12) 0.03164(2)
O16_4 O 0.5346(2) 0.3425(3) 0.03985(6)
O17_4 O 0.48824(19) 0.39670(28) 0.05760(5)
O21_4 O 0.2418(3) 0.4252(4) 0.01931(7)
O22_4 O 0.1579(2) 0.2993(3) 0.03062(6)
O23_4 O 0.2535(2) 0.3966(3) 0.04918(6)
C22_4 C 0.2933(3) 0.2969(4) 0.01051(6)
C23_4 C 0.3005(3) 0.3386(4) 0.02549(6)
C24_4 C 0.3461(3) 0.2753(4) 0.00620(6)
C25_4 C 0.3640(3) 0.3585(4) 0.03621(6)
H11_4 H 0.3700 0.3863 0.0463
C26_4 C 0.4096(3) 0.2953(4) 0.01695(7)
H12_4 H 0.4456 0.2806 0.0140
C27_4 C 0.4185(3) 0.3374(4) 0.03196(6)
C28_4 C 0.4864(3) 0.3598(4) 0.04396(7)
Zn6_4 Zn 0.57163(3) 0.42023(3) 0.07357(2)
Na5_4 Na 0.11381(16) 0.18069(11) 0.01716(3)
O28_4 O 0.27301(25) 0.04403(19) 0.00030(4)
O33_4 O 0.17583(26) 0.10506(19) 0.01070(5)
H14_4 H 0.537901 0.309236 0.048988
Na1_3 Na 0.18069(11) 0.06687(11) 0.98284(3)
S3_4 S 0.10538(6) 0.18660(9) 0.97218(2)
O13_4 O 0.22524(19) 0.41440(28) 0.92617(4)
O15_4 O 0.22899(17) 0.27301(25) 0.99970(4)
O18_4 O 0.05288(19) 0.18244(28) 0.95890(5)
O19_3 O 0.13660(19) 0.13664(26) 0.96891(5)
O20_4 O 0.07078(18) 0.17583(26) 0.98930(5)
C15_4 C 0.2728(3) 0.4445(4) 0.93858(6)
C16_4 C 0.2599(3) 0.3983(4) 0.95453(6)
C17_4 C 0.1968(2) 0.3254(4) 0.95650(6)
H7_4 H 0.1609 0.3046 0.9475
C18_4 C 0.3126(3) 0.4312(4) 0.96828(7)
H8_4 H 0.3545 0.4810 0.9673
C19_4 C 0.1853(2) 0.2822(3) 0.97140(6)
C20_4 C 0.3022(3) 0.3898(4) 0.98305(7)
H9_4 H 0.3369 0.4118 0.9922
C21_4 C 0.2400(3) 0.3148(4) 0.98462(6)
H10_4 H 0.3397 0.2472 0.9961
O29_4 O 0.15490(19) 0.4249(2) 0.89094(5)
O35_4 O 0.2993(3) 0.1415(2) 0.96938(6)
S1_4 S 0.08123(7) 0.89462(6) 0.97218(2)
O2_4 O 0.1892(2) 0.77476(19) 0.92617(4)
O4_4 O 0.04403(19) 0.77101(17) 0.99970(4)
O7_4 O 0.1296(2) 0.94712(19) 0.95890(5)
O8_3 O 0.00005(18) 0.86340(19) 0.96891(5)
O9_4 O 0.10506(19) 0.92922(18) 0.98930(5)
C1_4 C 0.1718(3) 0.7272(3) 0.93858(6)
C2_4 C 0.1385(3) 0.7401(3) 0.95453(6)
C3_4 C 0.1287(3) 0.8032(2) 0.95650(6)
H1_4 H 0.1438 0.8391 0.9475
C4_4 C 0.1187(3) 0.6874(3) 0.96828(7)
H2_4 H 0.1266 0.6455 0.9673
C5_4 C 0.0970(2) 0.8147(2) 0.97140(6)
C6_4 C 0.0877(3) 0.6978(3) 0.98305(7)
H3_4 H 0.0750 0.6631 0.9922
C7_4 C 0.0749(3) 0.7600(3) 0.98462(6)
O30_4 O 0.26996(28) 0.84510(19) 0.89094(5)
O27_4 O 0.95597(19) 0.22899(17) 0.00030(4)
O32_4 O 0.89494(19) 0.07078(18) 0.01070(5)
O5_4 O 0.8080(2) 0.4654(2) 0.03985(6)
O6_4 O 0.9085(2) 0.51176(19) 0.05760(5)
C10_4 C 0.9293(3) 0.6539(3) 0.00620(6)
C11_4 C 0.9946(3) 0.6360(3) 0.03621(6)
C12_4 C 0.8858(3) 0.5904(3) 0.01695(7)
H6_4 H 0.8351 0.5544 0.0140
C13_4 C 0.9190(3) 0.5815(3) 0.03196(6)
C14_4 C 0.8735(3) 0.5136(3) 0.04396(7)
Zn7_4 Zn 0.84860(4) 0.42837(3) 0.07357(2)
H13_4 H 0.771335 0.462099 0.048988
O8_4 O 1.00005(18) 0.86340(19) 0.96891(5)
H4_4 H 0.9076 0.6603 0.9961
Na3_3 Na 0.88619(16) 0.81931(11) 0.98284(3)
O31_3 O 0.86336(26) 0.99995(18) 0.96891(5)
O16_5 O 0.6575(3) 0.1920(4) 0.03985(6)
O17_5 O 0.60330(28) 0.09153(34) 0.05760(5)
C24_5 C 0.7247(4) 0.0707(5) 0.00620(6)
C25_5 C 0.6415(4) 0.0054(5) 0.03621(6)
C26_5 C 0.7047(4) 0.1142(5) 0.01695(7)
H12_5 H 0.7194 0.1649 0.0140
C27_5 C 0.6626(4) 0.0810(5) 0.03196(6)
C28_5 C 0.6402(4) 0.1265(5) 0.04396(7)
Zn6_5 Zn 0.57977(3) 0.15140(4) 0.07357(2)
H14_5 H 0.690764 0.228665 0.048988
S4_5 S 0.63271(12) 0.86517(15) 0.03164(2)
O21_5 O 0.5748(4) 0.8165(5) 0.01931(7)
O22_5 O 0.7007(3) 0.8585(4) 0.03062(6)
O23_5 O 0.6034(3) 0.8568(4) 0.04918(6)
C22_5 C 0.7031(4) 0.9963(5) 0.01051(6)
C23_5 C 0.6614(4) 0.9618(5) 0.02549(6)
H11_5 H 0.6137 0.9836 0.0463
Na5_5 Na 0.81931(11) 0.93313(19) 0.01716(3)
O27_5 O 0.77101(17) 0.72699(25) 0.00030(4)
O32_5 O 0.92922(18) 0.82417(26) 0.01070(5)
S3_5 S 0.81340(9) 0.91877(11) 0.97218(2)
O13_5 O 0.58560(28) 0.81083(34) 0.92617(4)
O15_5 O 0.72699(25) 0.95597(30) 0.99970(4)
O18_5 O 0.81756(28) 0.87043(34) 0.95890(5)
O20_5 O 0.82417(26) 0.89494(32) 0.98930(5)
C15_5 C 0.5555(4) 0.8282(5) 0.93858(6)
C16_5 C 0.6017(4) 0.8615(5) 0.95453(6)
C17_5 C 0.6746(4) 0.8713(4) 0.95650(6)
H7_5 H 0.6954 0.8562 0.9475
C18_5 C 0.5688(4) 0.8813(5) 0.96828(7)
H8_5 H 0.5190 0.8734 0.9673
C19_5 C 0.7178(3) 0.9030(4) 0.97140(6)
C20_5 C 0.6102(4) 0.9123(5) 0.98305(7)
H9_5 H 0.5882 0.9250 0.9922
C21_5 C 0.6852(4) 0.9251(5) 0.98462(6)
O29_5 O 0.5751(2) 0.73004(28) 0.89094(5)
O34_4 O 0.8421(2) 0.7007(3) 0.96938(6)
O1_4 O 0.0912(2) 0.0000 0.2500
O16_6 O 0.6759(3) 0.2012(2) 0.12681(6)
O17_6 O 0.73004(28) 0.15490(19) 0.10906(5)
H8_6 H 0.8144 0.0211 0.1993
H9_6 H 0.7452 0.0035 0.1744
C24_6 C 0.6087(4) 0.0127(3) 0.16046(6)
H10_5 H 0.5806 0.0063 0.1705
C25_6 C 0.6919(4) 0.0306(3) 0.13045(6)
H11_6 H 0.7197 0.0366 0.1203
C26_6 C 0.6287(4) 0.0762(3) 0.14971(7)
H12_6 H 0.6140 0.1122 0.1526
C27_6 C 0.6708(4) 0.0851(3) 0.13470(6)
C28_6 C 0.6932(4) 0.1530(3) 0.12270(7)
Zn3_3 Zn 0.91310(3) 0.09504(3) 0.24024(2)
Zn4_3 Zn 0.18193(4) 0.08690(3) 0.24024(2)
Zn6_6 Zn 0.75356(3) 0.23830(3) 0.09310(2)
O25_4 O 0.84826(19) 0.00271(19) 0.27150(4)
H14_6 H 0.642569 0.204567 0.117679
Zn1_4 Zn 0.09504(3) 0.91310(3) 0.25976(2)
S1_5 S 0.22796(6) 0.74789(7) 0.19448(2)
S2_4 S 0.10087(9) 0.80149(8) 0.13502(2)
Na1_4 Na 0.40021(11) 0.84735(11) 0.18382(3)
O1_5 O 0.0912(2) 1.0000 0.2500
O2_5 O 0.10810(19) 0.8558(2) 0.24049(4)
O3_4 O 0.00271(19) 0.84826(19) 0.22850(4)
O4_5 O 0.10435(17) 0.71069(19) 0.16696(4)
O7_5 O 0.28046(19) 0.7962(2) 0.20776(5)
O8_5 O 0.19674(19) 0.66671(18) 0.19775(5)
O9_5 O 0.26256(18) 0.77172(19) 0.17736(5)
O10_4 O 0.0916(3) 0.8501(2) 0.14735(7)
O11_4 O 0.1755(2) 0.8081(2) 0.13604(6)
O12_4 O 0.0799(2) 0.8098(2) 0.11748(6)
C1_5 C 0.0606(3) 0.8384(3) 0.22808(6)
C2_5 C 0.0735(3) 0.8051(3) 0.21213(6)
C3_5 C 0.1366(2) 0.7953(3) 0.21016(6)
H1_5 H 0.1725 0.8104 0.2191
C4_5 C 0.0208(3) 0.7853(3) 0.19838(7)
C5_5 C 0.1481(2) 0.7636(2) 0.19526(6)
C6_5 C 0.0312(3) 0.7543(3) 0.18361(7)
C7_5 C 0.0934(3) 0.7415(3) 0.18204(6)
C8_4 C 0.0401(3) 0.6703(3) 0.15615(6)
C9_4 C 0.0329(3) 0.7048(3) 0.14117(6)
Zn2_4 Zn 0.81807(4) 0.90496(3) 0.25976(2)
S3_6 S 0.51994(9) 0.77204(6) 0.19448(2)
S4_6 S 0.70063(12) 0.89913(9) 0.13502(2)
Na2_3 Na 0.44715(16) 0.59979(11) 0.18382(3)
O13_6 O 0.74774(28) 0.89190(19) 0.24049(4)
O14_4 O 0.84556(27) 0.99729(19) 0.22850(4)
O15_6 O 0.60635(25) 0.89565(17) 0.16696(4)
O18_6 O 0.51578(28) 0.71954(19) 0.20776(5)
O19_4 O 0.46998(26) 0.80326(19) 0.19775(5)
O20_6 O 0.50917(26) 0.73744(18) 0.17736(5)
O21_6 O 0.7586(4) 0.9084(3) 0.14735(7)
O22_6 O 0.6327(3) 0.8245(2) 0.13604(6)
O23_6 O 0.7300(3) 0.9201(2) 0.11748(6)
C15_6 C 0.7779(4) 0.9394(3) 0.22808(6)
C16_6 C 0.7317(4) 0.9265(3) 0.21213(6)
C17_6 C 0.6588(4) 0.8634(2) 0.21016(6)
H7_6 H 0.6380 0.8275 0.2191
C18_6 C 0.7646(4) 0.9792(3) 0.19838(7)
C19_6 C 0.6156(3) 0.8519(2) 0.19526(6)
C20_6 C 0.7232(4) 0.9688(3) 0.18361(7)
C21_6 C 0.6482(4) 0.9066(3) 0.18204(6)
C22_6 C 0.6303(4) 0.9599(3) 0.15615(6)
C23_6 C 0.6720(4) 0.9671(3) 0.14117(6)
Na3_4 Na 0.15265(11) 0.55285(16) 0.18382(3)
Na4_4 Na 0.21952(16) 0.73354(11) 0.14951(3)
Na5_6 Na 0.51402(11) 0.78048(16) 0.14951(3)
O24_4 O 0.9089(2) 0.9088(2) 0.2500
O27_6 O 0.56232(17) 0.62264(19) 0.16637(4)
O28_5 O 0.37736(19) 0.93968(25) 0.16637(4)
O29_6 O 0.7582(2) 0.82157(19) 0.27573(5)
O30_5 O 0.17843(19) 0.93663(28) 0.27573(5)
O31_4 O 0.33329(18) 0.53002(26) 0.19775(5)
O32_6 O 0.40411(18) 0.56161(19) 0.15597(5)
O33_5 O 0.43839(19) 0.84250(26) 0.15597(5)
O34_5 O 0.4912(2) 0.5252(2) 0.19729(6)
O35_5 O 0.4748(2) 0.9660(3) 0.19729(6)
O5_5 O 0.7988(2) 0.4746(2) 0.12681(6)
O6_5 O 0.84510(19) 0.5751(2) 0.10906(5)
H2_5 H 0.9789 0.7932 0.1993
H3_5 H 0.9965 0.7416 0.1744
C10_5 C 0.9873(3) 0.5959(3) 0.16046(6)
H4_5 H 0.9937 0.5742 0.1705
C11_5 C 0.9694(3) 0.6612(3) 0.13045(6)
H5_4 H 0.9634 0.6830 0.1203
C12_5 C 0.9238(3) 0.5524(3) 0.14971(7)
H6_5 H 0.8878 0.5017 0.1526
C13_5 C 0.9149(3) 0.5856(3) 0.13470(6)
C14_5 C 0.8470(3) 0.5401(3) 0.12270(7)
Zn5_3 Zn 0.90496(3) 0.81807(4) 0.24024(2)
Zn7_5 Zn 0.76170(3) 0.51527(4) 0.09310(2)
O26_4 O 0.99729(19) 0.84556(27) 0.27150(4)
H13_5 H 0.795433 0.438002 0.117679
Zn1_5 Zn 0.08690(3) 0.18193(4) 0.25976(2)
S1_6 S 0.25211(7) 0.48006(9) 0.19448(2)
S2_5 S 0.19851(8) 0.29937(12) 0.13502(2)
O1_6 O -0.0000 0.0911(2) 0.2500
O2_6 O 0.1442(2) 0.25226(28) 0.24049(4)
O3_5 O 0.15174(19) 0.15444(27) 0.22850(4)
O4_6 O 0.28931(19) 0.39365(25) 0.16696(4)
O5_6 O 0.5254(2) 0.3241(3) 0.12681(6)
O6_6 O 0.4249(2) 0.26996(28) 0.10906(5)
O7_6 O 0.2038(2) 0.48422(28) 0.20776(5)
O9_6 O 0.22828(19) 0.49083(26) 0.17736(5)
O10_5 O 0.1499(2) 0.2414(4) 0.14735(7)
O11_5 O 0.1919(2) 0.3673(3) 0.13604(6)
O12_5 O 0.1902(2) 0.2700(3) 0.11748(6)
C1_6 C 0.1616(3) 0.2221(4) 0.22808(6)
C2_6 C 0.1949(3) 0.2683(4) 0.21213(6)
C3_6 C 0.2047(3) 0.3412(4) 0.21016(6)
H1_6 H 0.1896 0.3620 0.2191
C4_6 C 0.2147(3) 0.2354(4) 0.19838(7)
H2_6 H 0.2068 0.1856 0.1993
C5_6 C 0.2364(2) 0.3844(3) 0.19526(6)
C6_6 C 0.2457(3) 0.2768(4) 0.18361(7)
H3_6 H 0.2584 0.2548 0.1744
C7_6 C 0.2585(3) 0.3518(4) 0.18204(6)
C8_5 C 0.3297(3) 0.3697(4) 0.15615(6)
C9_5 C 0.2952(3) 0.3280(4) 0.14117(6)
C10_6 C 0.4041(3) 0.3913(4) 0.16046(6)
H4_6 H 0.4258 0.4194 0.1705
C11_6 C 0.3388(3) 0.3081(4) 0.13045(6)
H5_5 H 0.3170 0.2803 0.1203
C12_6 C 0.4476(3) 0.3713(4) 0.14971(7)
H6_6 H 0.4983 0.3860 0.1526
C13_6 C 0.4144(3) 0.3292(4) 0.13470(6)
C14_6 C 0.4599(3) 0.3068(4) 0.12270(7)
Zn7_6 Zn 0.48473(4) 0.24644(5) 0.09310(2)
Na4_5 Na 0.26646(11) 0.48598(19) 0.14951(3)
O26_5 O 0.15444(27) 0.15174(33) 0.27150(4)
O28_6 O 0.06032(25) 0.43768(31) 0.16637(4)
O30_6 O 0.06337(28) 0.24180(34) 0.27573(5)
O33_6 O 0.15750(26) 0.59589(32) 0.15597(5)
O35_6 O 0.0340(3) 0.5088(4) 0.19729(6)
H13_6 H 0.561998 0.357431 0.117679
O1_7 O 1.0000 0.0911(2) 0.2500
O16_7 O 0.2012(2) 0.6759(3) 0.37319(6)
O17_7 O 0.15490(19) 0.73004(28) 0.39094(5)
H8_7 H 0.0211 0.8144 0.3007
H9_7 H 0.0035 0.7452 0.3256
C24_7 C 0.0127(3) 0.6087(4) 0.33954(6)
H10_6 H 0.0063 0.5806 0.3295
C25_7 C 0.0306(3) 0.6919(4) 0.36955(6)
H11_7 H 0.0366 0.7197 0.3797
C26_7 C 0.0762(3) 0.6287(4) 0.35029(7)
H12_7 H 0.1122 0.6140 0.3474
C27_7 C 0.0851(3) 0.6708(4) 0.36530(6)
C28_7 C 0.1530(3) 0.6932(4) 0.37730(7)
Zn6_7 Zn 0.23830(3) 0.75356(3) 0.40690(2)
H14_7 H 0.204567 0.642569 0.382321
S1_7 S 0.74789(7) 0.22796(6) 0.30552(2)
S2_6 S 0.80149(8) 0.10087(9) 0.36498(2)
Na1_5 Na 0.84735(11) 0.40021(11) 0.31618(3)
O2_7 O 0.8558(2) 0.10810(19) 0.25951(4)
O4_7 O 0.71069(19) 0.10435(17) 0.33304(4)
O7_7 O 0.7962(2) 0.28046(19) 0.29224(5)
O8_6 O 0.66671(18) 0.19674(19) 0.30225(5)
O9_7 O 0.77172(19) 0.26256(18) 0.32264(5)
O10_6 O 0.8501(2) 0.0916(3) 0.35265(7)
O11_6 O 0.8081(2) 0.1755(2) 0.36396(6)
O12_6 O 0.8098(2) 0.0799(2) 0.38252(6)
C1_7 C 0.8384(3) 0.0606(3) 0.27192(6)
C2_7 C 0.8051(3) 0.0735(3) 0.28787(6)
C3_7 C 0.7953(3) 0.1366(2) 0.28984(6)
H1_7 H 0.8104 0.1725 0.2809
C4_7 C 0.7853(3) 0.0208(3) 0.30162(7)
C5_7 C 0.7636(2) 0.1481(2) 0.30474(6)
C6_7 C 0.7543(3) 0.0312(3) 0.31639(7)
C7_7 C 0.7415(3) 0.0934(3) 0.31796(6)
C8_6 C 0.6703(3) 0.0401(3) 0.34385(6)
C9_6 C 0.7048(3) 0.0329(3) 0.35883(6)
S3_7 S 0.77204(6) 0.51994(9) 0.30552(2)
S4_7 S 0.89913(9) 0.70063(12) 0.36498(2)
Na2_4 Na 0.59979(11) 0.44715(16) 0.31618(3)
O13_7 O 0.89190(19) 0.74774(28) 0.25951(4)
O15_7 O 0.89565(17) 0.60635(25) 0.33304(4)
O18_7 O 0.71954(19) 0.51578(28) 0.29224(5)
O19_5 O 0.80326(19) 0.46998(26) 0.30225(5)
O20_7 O 0.73744(18) 0.50917(26) 0.32264(5)
O21_7 O 0.9084(3) 0.7586(4) 0.35265(7)
O22_7 O 0.8245(2) 0.6327(3) 0.36396(6)
O23_7 O 0.9201(2) 0.7300(3) 0.38252(6)
C15_7 C 0.9394(3) 0.7779(4) 0.27192(6)
C16_7 C 0.9265(3) 0.7317(4) 0.28787(6)
C17_7 C 0.8634(2) 0.6588(4) 0.28984(6)
H7_7 H 0.8275 0.6380 0.2809
C18_7 C 0.9792(3) 0.7646(4) 0.30162(7)
C19_7 C 0.8519(2) 0.6156(3) 0.30474(6)
C20_7 C 0.9688(3) 0.7232(4) 0.31639(7)
C21_7 C 0.9066(3) 0.6482(4) 0.31796(6)
C22_7 C 0.9599(3) 0.6303(4) 0.34385(6)
C23_7 C 0.9671(3) 0.6720(4) 0.35883(6)
Na3_5 Na 0.55285(16) 0.15265(11) 0.31618(3)
Na4_6 Na 0.73354(11) 0.21952(16) 0.35049(3)
Na5_7 Na 0.78048(16) 0.51402(11) 0.35049(3)
O27_7 O 0.62264(19) 0.56232(17) 0.33363(4)
O28_7 O 0.93968(25) 0.37736(19) 0.33363(4)
O29_7 O 0.82157(19) 0.7582(2) 0.22427(5)
O30_7 O 0.93663(28) 0.17843(19) 0.22427(5)
O31_5 O 0.53002(26) 0.33329(18) 0.30225(5)
O32_7 O 0.56161(19) 0.40411(18) 0.34403(5)
O33_7 O 0.84250(26) 0.43839(19) 0.34403(5)
O34_6 O 0.5252(2) 0.4912(2) 0.30271(6)
O35_7 O 0.9660(3) 0.4748(2) 0.30271(6)
O5_7 O 0.4746(2) 0.7988(2) 0.37319(6)
O6_7 O 0.5751(2) 0.84510(19) 0.39094(5)
H2_7 H 0.7932 0.9789 0.3007
H3_7 H 0.7416 0.9965 0.3256
C10_7 C 0.5959(3) 0.9873(3) 0.33954(6)
H4_7 H 0.5742 0.9937 0.3295
C11_7 C 0.6612(3) 0.9694(3) 0.36955(6)
H5_6 H 0.6830 0.9634 0.3797
C12_7 C 0.5524(3) 0.9238(3) 0.35029(7)
H6_7 H 0.5017 0.8878 0.3474
C13_7 C 0.5856(3) 0.9149(3) 0.36530(6)
C14_7 C 0.5401(3) 0.8470(3) 0.37730(7)
Zn7_7 Zn 0.51527(4) 0.76170(3) 0.40690(2)
H13_7 H 0.438002 0.795433 0.382321
S3_8 S 0.48006(9) 0.25211(11) 0.30552(2)
S4_8 S 0.29937(12) 0.19851(15) 0.36498(2)
O13_8 O 0.25226(28) 0.14417(34) 0.25951(4)
O15_8 O 0.39365(25) 0.28931(30) 0.33304(4)
O16_8 O 0.3241(3) 0.5254(4) 0.37319(6)
O17_8 O 0.26996(28) 0.42487(34) 0.39094(5)
O18_8 O 0.48422(28) 0.20377(34) 0.29224(5)
O20_8 O 0.49083(26) 0.22828(32) 0.32264(5)
O21_8 O 0.2414(4) 0.1499(5) 0.35265(7)
O22_8 O 0.3673(3) 0.1919(4) 0.36396(6)
O23_8 O 0.2700(3) 0.1902(4) 0.38252(6)
C15_8 C 0.2221(4) 0.1616(5) 0.27192(6)
C16_8 C 0.2683(4) 0.1949(5) 0.28787(6)
C17_8 C 0.3412(4) 0.2047(4) 0.28984(6)
H7_8 H 0.3620 0.1896 0.2809
C18_8 C 0.2354(4) 0.2147(5) 0.30162(7)
H8_8 H 0.1856 0.2068 0.3007
C19_8 C 0.3844(3) 0.2364(4) 0.30474(6)
C20_8 C 0.2768(4) 0.2457(5) 0.31639(7)
H9_8 H 0.2548 0.2584 0.3256
C21_8 C 0.3518(4) 0.2585(5) 0.31796(6)
C22_8 C 0.3697(4) 0.3297(5) 0.34385(6)
C23_8 C 0.3280(4) 0.2952(5) 0.35883(6)
C24_8 C 0.3913(4) 0.4041(5) 0.33954(6)
H10_7 H 0.4194 0.4258 0.3295
C25_8 C 0.3081(4) 0.3388(5) 0.36955(6)
H11_8 H 0.2803 0.3170 0.3797
C26_8 C 0.3713(4) 0.4476(5) 0.35029(7)
H12_8 H 0.3860 0.4983 0.3474
C27_8 C 0.3292(4) 0.4144(5) 0.36530(6)
C28_8 C 0.3068(4) 0.4599(5) 0.37730(7)
Zn6_8 Zn 0.24644(3) 0.48473(4) 0.40690(2)
Na5_8 Na 0.48598(11) 0.26646(19) 0.35049(3)
O27_8 O 0.43768(17) 0.06032(25) 0.33363(4)
O29_8 O 0.2418(2) 0.06337(28) 0.22427(5)
O32_8 O 0.59589(18) 0.15750(26) 0.34403(5)
O34_7 O 0.5088(2) 0.0340(3) 0.30271(6)
H14_8 H 0.357431 0.561998 0.382321
Na1_6 Na 0.06687(11) 0.18069(11) 0.51716(3)
S3_9 S 0.18660(9) 0.10538(6) 0.52782(2)
S4_9 S 0.36729(12) 0.23247(9) 0.46836(2)
O13_9 O 0.41440(28) 0.22524(19) 0.57383(4)
O15_9 O 0.27301(25) 0.22899(17) 0.50030(4)
O16_9 O 0.3425(3) 0.5346(2) 0.46015(6)
O17_9 O 0.39670(28) 0.48824(19) 0.44240(5)
O18_9 O 0.18244(28) 0.05288(19) 0.54110(5)
O19_6 O 0.13664(26) 0.13660(19) 0.53109(5)
O20_9 O 0.17583(26) 0.07078(18) 0.51070(5)
O21_9 O 0.4252(4) 0.2418(3) 0.48069(7)
O22_9 O 0.2993(3) 0.1579(2) 0.46938(6)
O23_9 O 0.3966(3) 0.2535(2) 0.45082(6)
C15_9 C 0.4445(4) 0.2728(3) 0.56142(6)
C16_9 C 0.3983(4) 0.2599(3) 0.54547(6)
C17_9 C 0.3254(4) 0.1968(2) 0.54350(6)
H7_9 H 0.3046 0.1609 0.5525
C18_9 C 0.4312(4) 0.3126(3) 0.53172(7)
H8_9 H 0.4810 0.3545 0.5327
C19_9 C 0.2822(3) 0.1853(2) 0.52860(6)
C20_9 C 0.3898(4) 0.3022(3) 0.51695(7)
H9_9 H 0.4118 0.3369 0.5078
C21_9 C 0.3148(4) 0.2400(3) 0.51538(6)
C22_9 C 0.2969(4) 0.2933(3) 0.48949(6)
C23_9 C 0.3386(4) 0.3005(3) 0.47451(6)
C24_9 C 0.2753(4) 0.3461(3) 0.49380(6)
H10_8 H 0.2472 0.3397 0.5039
C25_9 C 0.3585(4) 0.3640(3) 0.46379(6)
H11_9 H 0.3863 0.3700 0.4537
C26_9 C 0.2953(4) 0.4096(3) 0.48305(7)
H12_9 H 0.2806 0.4456 0.4860
C27_9 C 0.3374(4) 0.4185(3) 0.46804(6)
C28_9 C 0.3598(4) 0.4864(3) 0.45604(7)
Zn6_9 Zn 0.42023(3) 0.57163(3) 0.42643(2)
Na5_9 Na 0.18069(11) 0.11381(16) 0.48284(3)
O28_8 O 0.04403(19) 0.27301(25) 0.49970(4)
O29_9 O 0.4249(2) 0.15490(19) 0.60906(5)
O33_8 O 0.10506(19) 0.17583(26) 0.48930(5)
O35_8 O 0.1415(2) 0.2993(3) 0.53062(6)
H14_9 H 0.309236 0.537901 0.451012
Na2_5 Na 0.11381(16) 0.93313(11) 0.51716(3)
O27_9 O 0.22899(17) 0.95597(19) 0.49970(4)
O31_6 O -0.00005(18) 0.86336(26) 0.53109(5)
O32_9 O 0.07078(18) 0.89494(19) 0.48930(5)
O34_8 O 0.1579(2) 0.8585(2) 0.53062(6)
S1_8 S 0.89462(6) 0.08123(7) 0.52782(2)
S2_7 S 0.76753(9) 0.13483(8) 0.46836(2)
O2_8 O 0.77476(19) 0.1892(2) 0.57383(4)
O4_8 O 0.77101(17) 0.04403(19) 0.50030(4)
O7_8 O 0.94712(19) 0.1296(2) 0.54110(5)
O8_7 O 0.86340(19) 0.00005(18) 0.53109(5)
O9_8 O 0.92922(18) 0.10506(19) 0.51070(5)
O10_7 O 0.7582(3) 0.1835(2) 0.48069(7)
O11_7 O 0.8421(2) 0.1415(2) 0.46938(6)
O12_7 O 0.7465(2) 0.1432(2) 0.45082(6)
C1_8 C 0.7272(3) 0.1718(3) 0.56142(6)
C2_8 C 0.7401(3) 0.1385(3) 0.54547(6)
C3_8 C 0.8032(2) 0.1287(3) 0.54350(6)
H1_8 H 0.8391 0.1438 0.5525
C4_8 C 0.6874(3) 0.1187(3) 0.53172(7)
H2_8 H 0.6455 0.1266 0.5327
C5_8 C 0.8147(2) 0.0970(2) 0.52860(6)
C6_8 C 0.6978(3) 0.0877(3) 0.51695(7)
H3_8 H 0.6631 0.0750 0.5078
C7_8 C 0.7600(3) 0.0749(3) 0.51538(6)
C8_7 C 0.7067(3) 0.0037(3) 0.48949(6)
C9_7 C 0.6995(3) 0.0382(3) 0.47451(6)
H5_7 H 0.6300 0.0164 0.4537
Na4_7 Na 0.88619(16) 0.06687(11) 0.48284(3)
O30_8 O 0.84510(19) 0.26996(28) 0.60906(5)
O5_8 O 0.4654(2) 0.8080(2) 0.46015(6)
O6_8 O 0.51176(19) 0.9085(2) 0.44240(5)
O8_8 O 0.86340(19) 1.00005(18) 0.53109(5)
C10_8 C 0.6539(3) 0.9293(3) 0.49380(6)
H4_8 H 0.6603 0.9076 0.5039
C11_8 C 0.6360(3) 0.9946(3) 0.46379(6)
C12_8 C 0.5904(3) 0.8858(3) 0.48305(7)
H6_8 H 0.5544 0.8351 0.4860
C13_8 C 0.5815(3) 0.9190(3) 0.46804(6)
C14_8 C 0.5136(3) 0.8735(3) 0.45604(7)
Zn7_8 Zn 0.42837(3) 0.84860(4) 0.42643(2)
Na3_6 Na 0.81931(11) 0.88619(16) 0.51716(3)
O31_7 O 0.99995(18) 0.86336(26) 0.53109(5)
H13_8 H 0.462099 0.771335 0.451012
O5_9 O 0.1920(2) 0.6575(3) 0.46015(6)
O6_9 O 0.0915(2) 0.60330(28) 0.44240(5)
C10_9 C 0.0707(3) 0.7247(4) 0.49380(6)
H4_9 H 0.0924 0.7528 0.5039
C11_9 C 0.0054(3) 0.6415(4) 0.46379(6)
C12_9 C 0.1142(3) 0.7047(4) 0.48305(7)
H6_9 H 0.1649 0.7194 0.4860
C13_9 C 0.0810(3) 0.6626(4) 0.46804(6)
C14_9 C 0.1265(3) 0.6402(4) 0.45604(7)
Zn7_9 Zn 0.15140(4) 0.57977(5) 0.42643(2)
H13_9 H 0.228665 0.690764 0.451012
S1_9 S 0.91877(7) 0.81340(9) 0.52782(2)
S2_8 S 0.86517(8) 0.63271(12) 0.46836(2)
O2_9 O 0.8108(2) 0.58560(28) 0.57383(4)
O4_9 O 0.95597(19) 0.72699(25) 0.50030(4)
O7_9 O 0.8704(2) 0.81756(28) 0.54110(5)
O9_9 O 0.89494(19) 0.82417(26) 0.51070(5)
O10_8 O 0.8165(2) 0.5748(4) 0.48069(7)
O11_8 O 0.8585(2) 0.7007(3) 0.46938(6)
O12_8 O 0.8568(2) 0.6034(3) 0.45082(6)
C1_9 C 0.8282(3) 0.5555(4) 0.56142(6)
C2_9 C 0.8615(3) 0.6017(4) 0.54547(6)
C3_9 C 0.8713(3) 0.6746(4) 0.54350(6)
H1_9 H 0.8562 0.6954 0.5525
C4_9 C 0.8813(3) 0.5688(4) 0.53172(7)
H2_9 H 0.8734 0.5190 0.5327
C5_9 C 0.9030(2) 0.7178(3) 0.52860(6)
C6_9 C 0.9123(3) 0.6102(4) 0.51695(7)
H3_9 H 0.9250 0.5882 0.5078
C7_9 C 0.9251(3) 0.6852(4) 0.51538(6)
C8_8 C 0.9963(3) 0.7031(4) 0.48949(6)
C9_8 C 0.9618(3) 0.6614(4) 0.47451(6)
H5_8 H 0.9836 0.6137 0.4537
Na4_8 Na 0.93313(11) 0.81931(19) 0.48284(3)
O28_9 O 0.72699(25) 0.77101(31) 0.49970(4)
O30_9 O 0.73004(28) 0.57513(34) 0.60906(5)
O33_9 O 0.82417(26) 0.92922(32) 0.48930(5)
O35_9 O 0.7007(3) 0.8421(4) 0.53062(6)
S1_10 S 0.58544(7) 0.43871(6) 0.36115(2)
S2_9 S 0.53184(8) 0.56580(9) 0.30169(2)
O1_8 O 0.3333 0.5755(2) 0.4167
O2_10 O 0.4775(2) 0.55857(19) 0.40716(4)
O3_6 O 0.48507(19) 0.66396(19) 0.39517(4)
O5_10 O 0.8587(2) 0.8679(2) 0.29348(6)
O7_10 O 0.5371(2) 0.38621(19) 0.37443(5)
O8_9 O 0.66662(18) 0.46993(19) 0.36442(5)
O10_9 O 0.4832(2) 0.5751(3) 0.31402(7)
O12_9 O 0.5235(2) 0.5868(2) 0.28415(6)
C1_10 C 0.4949(3) 0.6061(3) 0.39475(6)
C2_10 C 0.5282(3) 0.5932(3) 0.37880(6)
C3_10 C 0.5380(3) 0.5301(2) 0.37683(6)
H1_10 H 0.5229 0.4942 0.3858
C4_10 C 0.5480(3) 0.6459(3) 0.36505(7)
H2_10 H 0.5401 0.6878 0.3660
C5_10 C 0.5697(2) 0.5186(2) 0.36193(6)
C6_10 C 0.5790(3) 0.6355(3) 0.35028(7)
H3_10 H 0.5917 0.6702 0.3411
C7_10 C 0.5918(3) 0.5733(3) 0.34871(6)
C8_9 C 0.6630(3) 0.6266(3) 0.32282(6)
C9_9 C 0.6285(3) 0.6338(3) 0.30784(6)
C10_10 C 0.7374(3) 0.6794(3) 0.32713(6)
H4_10 H 0.7591 0.6730 0.3372
C11_10 C 0.6721(3) 0.6973(3) 0.29712(6)
H5_9 H 0.6503 0.7033 0.2870
C12_10 C 0.7809(3) 0.7429(3) 0.31638(7)
H6_10 H 0.8316 0.7789 0.3193
C13_10 C 0.7477(3) 0.7518(3) 0.30137(6)
C14_10 C 0.7932(3) 0.8197(3) 0.28937(7)
S3_10 S 0.56129(6) 0.14673(9) 0.36115(2)
O18_10 O 0.61379(19) 0.15089(28) 0.37443(5)
O19_7 O 0.53007(19) 0.19669(26) 0.36442(5)
C17_10 C 0.4699(2) 0.0079(4) 0.37683(6)
H7_10 H 0.5058 0.0287 0.3858
C19_10 C 0.4814(2) 0.0511(3) 0.36193(6)
C21_10 C 0.4267(3) 0.0185(4) 0.34871(6)
C22_10 C 0.3734(3) 0.0364(4) 0.32282(6)
C24_10 C 0.3206(3) 0.0580(4) 0.32713(6)
H10_9 H 0.3270 0.0861 0.3372
C26_10 C 0.2571(3) 0.0380(4) 0.31638(7)
H12_10 H 0.2211 0.0527 0.3193
O26_6 O 0.48778(27) 0.66937(19) 0.43816(4)
O31_8 O 0.80331(26) 0.33338(18) 0.36442(5)
H13_10 H 0.895332 0.871234 0.284345
H14_10 H 0.128766 0.0240978 0.284345
S4_10 S 0.43420(9) 0.96604(12) 0.30169(2)
O13_10 O 0.44143(19) 0.91893(28) 0.40716(4)
O14_5 O 0.33604(19) 0.82111(27) 0.39517(4)
O16_10 O 0.1321(2) 0.9908(3) 0.29348(6)
O21_10 O 0.4249(3) 0.9081(4) 0.31402(7)
O23_10 O 0.4132(2) 0.9367(3) 0.28415(6)
C15_10 C 0.3939(3) 0.8888(4) 0.39475(6)
C16_10 C 0.4068(3) 0.9350(4) 0.37880(6)
C18_10 C 0.3541(3) 0.9021(4) 0.36505(7)
H8_10 H 0.3122 0.8523 0.3660
C20_10 C 0.3645(3) 0.9435(4) 0.35028(7)
H9_10 H 0.3298 0.9215 0.3411
C23_10 C 0.3662(3) 0.9947(4) 0.30784(6)
C25_10 C 0.3027(3) 0.9748(4) 0.29712(6)
H11_10 H 0.2967 0.9470 0.2870
C27_10 C 0.2482(3) 0.9959(4) 0.30137(6)
C28_10 C 0.1803(3) 0.9735(4) 0.28937(7)
O24_5 O 0.4245(2) 0.7578(2) 0.4167
O25_5 O 0.33063(19) 0.81840(19) 0.43816(4)
S4_11 S 0.03396(12) 0.46816(15) 0.30169(2)
O13_11 O 0.08107(28) 0.52250(34) 0.40716(4)
O14_6 O 0.17889(27) 0.51493(33) 0.39517(4)
O16_11 O 0.0092(3) 0.1413(4) 0.29348(6)
O21_11 O 0.0919(4) 0.5168(5) 0.31402(7)
O23_11 O 0.0633(3) 0.4765(4) 0.28415(6)
C15_11 C 0.1112(4) 0.5051(5) 0.39475(6)
C16_11 C 0.0650(4) 0.4718(5) 0.37880(6)
C18_11 C 0.0979(4) 0.4520(5) 0.36505(7)
H8_11 H 0.1477 0.4599 0.3660
C20_11 C 0.0565(4) 0.4210(5) 0.35028(7)
H9_11 H 0.0785 0.4083 0.3411
C23_11 C 0.0053(4) 0.3715(5) 0.30784(6)
C25_11 C 0.0252(4) 0.3279(5) 0.29712(6)
H11_11 H 0.0530 0.3497 0.2870
C27_11 C 0.0041(4) 0.2523(5) 0.30137(6)
C28_11 C 0.0265(4) 0.2068(5) 0.28937(7)
O24_6 O 0.2422(2) 0.6667(3) 0.4167
O25_6 O 0.18160(19) 0.51222(27) 0.43816(4)
S3_11 S 0.85327(9) 0.41456(11) 0.36115(2)
O18_11 O 0.84911(28) 0.46290(34) 0.37443(5)
C17_11 C 0.9921(4) 0.4620(4) 0.37683(6)
H7_11 H 0.9713 0.4771 0.3858
C19_11 C 0.9489(3) 0.4303(4) 0.36193(6)
C21_11 C 0.9815(4) 0.4082(5) 0.34871(6)
C22_11 C 0.9636(4) 0.3370(5) 0.32282(6)
C24_11 C 0.9420(4) 0.2626(5) 0.32713(6)
H10_10 H 0.9139 0.2409 0.3372
C26_11 C 0.9620(4) 0.2191(5) 0.31638(7)
H12_11 H 0.9473 0.1684 0.3193
H14_11 H 0.975902 0.104668 0.284345
S1_11 S 0.43871(6) 0.58544(7) 0.13885(2)
S2_10 S 0.56580(9) 0.53184(8) 0.19831(2)
O1_9 O 0.5755(2) 0.3333 0.0833
O2_11 O 0.55857(19) 0.4775(2) 0.09284(4)
O3_7 O 0.66396(19) 0.48507(19) 0.10483(4)
O5_11 O 0.8679(2) 0.8587(2) 0.20652(6)
O7_11 O 0.38621(19) 0.5371(2) 0.12557(5)
O8_10 O 0.46993(19) 0.66662(18) 0.13558(5)
O10_10 O 0.5751(3) 0.4832(2) 0.18598(7)
O12_10 O 0.5868(2) 0.5235(2) 0.21585(6)
C1_11 C 0.6061(3) 0.4949(3) 0.10525(6)
C2_11 C 0.5932(3) 0.5282(3) 0.12120(6)
C3_11 C 0.5301(2) 0.5380(3) 0.12317(6)
H1_11 H 0.4942 0.5229 0.1142
C4_11 C 0.6459(3) 0.5480(3) 0.13495(7)
H2_11 H 0.6878 0.5401 0.1340
C5_11 C 0.5186(2) 0.5697(2) 0.13807(6)
C6_11 C 0.6355(3) 0.5790(3) 0.14972(7)
H3_11 H 0.6702 0.5917 0.1589
C7_11 C 0.5733(3) 0.5918(3) 0.15129(6)
C8_10 C 0.6266(3) 0.6630(3) 0.17718(6)
C9_10 C 0.6338(3) 0.6285(3) 0.19216(6)
C10_11 C 0.6794(3) 0.7374(3) 0.17287(6)
H4_11 H 0.6730 0.7591 0.1628
C11_11 C 0.6973(3) 0.6721(3) 0.20288(6)
H5_10 H 0.7033 0.6503 0.2130
C12_11 C 0.7429(3) 0.7809(3) 0.18362(7)
H6_11 H 0.7789 0.8316 0.1807
C13_11 C 0.7518(3) 0.7477(3) 0.19863(6)
C14_11 C 0.8197(3) 0.7932(3) 0.21063(7)
S3_12 S 0.14673(9) 0.56129(6) 0.13885(2)
O18_12 O 0.15089(28) 0.61379(19) 0.12557(5)
O19_8 O 0.19669(26) 0.53007(19) 0.13558(5)
C17_12 C 0.0079(4) 0.4699(2) 0.12317(6)
H7_12 H 0.0287 0.5058 0.1142
C19_12 C 0.0511(3) 0.4814(2) 0.13807(6)
C21_12 C 0.0185(4) 0.4267(3) 0.15129(6)
C22_12 C 0.0364(4) 0.3734(3) 0.17718(6)
C24_12 C 0.0580(4) 0.3206(3) 0.17287(6)
H10_11 H 0.0861 0.3270 0.1628
C26_12 C 0.0380(4) 0.2571(3) 0.18362(7)
H12_12 H 0.0527 0.2211 0.1807
O26_7 O 0.66937(19) 0.48778(27) 0.06184(4)
O31_9 O 0.33338(18) 0.80331(26) 0.13558(5)
H13_11 H 0.871234 0.895332 0.215655
H14_12 H 0.0240978 0.128766 0.215655
S4_12 S 0.96604(12) 0.43420(9) 0.19831(2)
O13_12 O 0.91893(28) 0.44143(19) 0.09284(4)
O14_7 O 0.82111(27) 0.33604(19) 0.10483(4)
O16_12 O 0.9908(3) 0.1321(2) 0.20652(6)
O21_12 O 0.9081(4) 0.4249(3) 0.18598(7)
O23_12 O 0.9367(3) 0.4132(2) 0.21585(6)
C15_12 C 0.8888(4) 0.3939(3) 0.10525(6)
C16_12 C 0.9350(4) 0.4068(3) 0.12120(6)
C18_12 C 0.9021(4) 0.3541(3) 0.13495(7)
H8_12 H 0.8523 0.3122 0.1340
C20_12 C 0.9435(4) 0.3645(3) 0.14972(7)
H9_12 H 0.9215 0.3298 0.1589
C23_12 C 0.9947(4) 0.3662(3) 0.19216(6)
C25_12 C 0.9748(4) 0.3027(3) 0.20288(6)
H11_12 H 0.9470 0.2967 0.2130
C27_12 C 0.9959(4) 0.2482(3) 0.19863(6)
C28_12 C 0.9735(4) 0.1803(3) 0.21063(7)
O24_7 O 0.7578(2) 0.4245(2) 0.0833
O25_7 O 0.81840(19) 0.33063(19) 0.06184(4)
S2_11 S 0.46816(8) 0.03396(12) 0.19831(2)
O1_10 O 0.6667 0.2422(2) 0.0833
O2_12 O 0.5225(2) 0.08107(28) 0.09284(4)
O3_8 O 0.51493(19) 0.17889(27) 0.10483(4)
O5_12 O 0.1413(2) 0.0092(3) 0.20652(6)
O10_11 O 0.5168(2) 0.0919(4) 0.18598(7)
O12_11 O 0.4765(2) 0.0633(3) 0.21585(6)
C1_12 C 0.5051(3) 0.1112(4) 0.10525(6)
C2_12 C 0.4718(3) 0.0650(4) 0.12120(6)
C4_12 C 0.4520(3) 0.0979(4) 0.13495(7)
H2_12 H 0.4599 0.1477 0.1340
C6_12 C 0.4210(3) 0.0565(4) 0.14972(7)
H3_12 H 0.4083 0.0785 0.1589
C9_11 C 0.3715(3) 0.0053(4) 0.19216(6)
C11_12 C 0.3279(3) 0.0252(4) 0.20288(6)
H5_11 H 0.3497 0.0530 0.2130
C13_12 C 0.2523(3) 0.0041(4) 0.19863(6)
C14_12 C 0.2068(3) 0.0265(4) 0.21063(7)
O26_8 O 0.51222(27) 0.18160(33) 0.06184(4)
S1_12 S 0.41456(7) 0.85327(9) 0.13885(2)
O7_12 O 0.4629(2) 0.84911(28) 0.12557(5)
C3_12 C 0.4620(3) 0.9921(4) 0.12317(6)
H1_12 H 0.4771 0.9713 0.1142
C5_12 C 0.4303(2) 0.9489(3) 0.13807(6)
C7_12 C 0.4082(3) 0.9815(4) 0.15129(6)
C8_11 C 0.3370(3) 0.9636(4) 0.17718(6)
C10_12 C 0.2626(3) 0.9420(4) 0.17287(6)
H4_12 H 0.2409 0.9139 0.1628
C12_12 C 0.2191(3) 0.9620(4) 0.18362(7)
H6_12 H 0.1684 0.9473 0.1807
H13_12 H 0.104668 0.975902 0.215655
O8_11 O -0.00005(18) 0.13660(19) 0.03109(5)
H4_13 H 0.0924 0.3397 0.0039
O31_10 O 0.13664(26) 0.00005(18) 0.03109(5)
O5_13 O 0.1920(2) 0.5346(2) 0.96015(6)
C10_13 C 0.0707(3) 0.3461(3) 0.99380(6)
C11_13 C 0.0054(3) 0.3640(3) 0.96379(6)
C12_13 C 0.1142(3) 0.4096(3) 0.98305(7)
H6_13 H 0.1649 0.4456 0.9860
C13_13 C 0.0810(3) 0.4185(3) 0.96804(6)
C14_13 C 0.1265(3) 0.4864(3) 0.95604(7)
H13_13 H 0.228665 0.537901 0.951012
S1_13 S 0.91877(7) 0.10538(6) 0.02782(2)
O2_13 O 0.8108(2) 0.22524(19) 0.07383(4)
O7_13 O 0.8704(2) 0.05288(19) 0.04110(5)
O8_12 O 0.99995(18) 0.13660(19) 0.03109(5)
C1_13 C 0.8282(3) 0.2728(3) 0.06142(6)
C2_13 C 0.8615(3) 0.2599(3) 0.04547(6)
C3_13 C 0.8713(3) 0.1968(2) 0.04350(6)
H1_13 H 0.8562 0.1609 0.0525
C4_13 C 0.8813(3) 0.3126(3) 0.03172(7)
H2_13 H 0.8734 0.3545 0.0327
C5_13 C 0.9030(2) 0.1853(2) 0.02860(6)
C6_13 C 0.9123(3) 0.3022(3) 0.01695(7)
H3_13 H 0.9250 0.3369 0.0078
C7_13 C 0.9251(3) 0.2400(3) 0.01538(6)
S3_13 S 0.89462(6) 0.81340(9) 0.02782(2)
O13_13 O 0.77476(19) 0.58560(28) 0.07383(4)
O18_13 O 0.94712(19) 0.81756(28) 0.04110(5)
O19_9 O 0.86340(19) 0.86336(26) 0.03109(5)
C15_13 C 0.7272(3) 0.5555(4) 0.06142(6)
C16_13 C 0.7401(3) 0.6017(4) 0.04547(6)
C17_13 C 0.8032(2) 0.6746(4) 0.04350(6)
H7_13 H 0.8391 0.6954 0.0525
C18_13 C 0.6874(3) 0.5688(4) 0.03172(7)
H8_13 H 0.6455 0.5190 0.0327
C19_13 C 0.8147(2) 0.7178(3) 0.02860(6)
C20_13 C 0.6978(3) 0.6102(4) 0.01695(7)
H9_13 H 0.6631 0.5882 0.0078
C21_13 C 0.7600(3) 0.6852(4) 0.01538(6)
H10_12 H 0.6603 0.7528 0.0039
S4_13 S 0.76753(9) 0.63271(12) 0.96836(2)
O16_13 O 0.4654(2) 0.6575(3) 0.96015(6)
O21_13 O 0.7582(3) 0.5748(4) 0.98069(7)
O23_13 O 0.7465(2) 0.6034(3) 0.95082(6)
C22_13 C 0.7067(3) 0.7031(4) 0.98949(6)
C23_13 C 0.6995(3) 0.6614(4) 0.97451(6)
C24_13 C 0.6539(3) 0.7247(4) 0.99380(6)
C25_13 C 0.6360(3) 0.6415(4) 0.96379(6)
H11_13 H 0.6300 0.6137 0.9537
C26_13 C 0.5904(3) 0.7047(4) 0.98305(7)
H12_13 H 0.5544 0.7194 0.9860
C27_13 C 0.5815(3) 0.6626(4) 0.96804(6)
C28_13 C 0.5136(3) 0.6402(4) 0.95604(7)
H14_13 H 0.462099 0.690764 0.951012
S3_14 S 0.18660(9) 0.08123(11) 0.02782(2)
O13_14 O 0.41440(28) 0.18917(34) 0.07383(4)
O18_14 O 0.18244(28) 0.12957(34) 0.04110(5)
C15_14 C 0.4445(4) 0.1718(5) 0.06142(6)
C16_14 C 0.3983(4) 0.1385(5) 0.04547(6)
C17_14 C 0.3254(4) 0.1287(4) 0.04350(6)
H7_14 H 0.3046 0.1438 0.0525
C18_14 C 0.4312(4) 0.1187(5) 0.03172(7)
H8_14 H 0.4810 0.1266 0.0327
C19_14 C 0.2822(3) 0.0970(4) 0.02860(6)
C20_14 C 0.3898(4) 0.0877(5) 0.01695(7)
H9_14 H 0.4118 0.0750 0.0078
C21_14 C 0.3148(4) 0.0749(5) 0.01538(6)
S4_14 S 0.36729(12) 0.13483(15) 0.96836(2)
O21_14 O 0.4252(4) 0.1835(5) 0.98069(7)
O23_14 O 0.3966(3) 0.1432(4) 0.95082(6)
C22_14 C 0.2969(4) 0.0037(5) 0.98949(6)
C23_14 C 0.3386(4) 0.0382(5) 0.97451(6)
H11_14 H 0.3863 0.0164 0.9537
O16_14 O 0.3425(3) 0.8080(4) 0.96015(6)
C24_14 C 0.2753(4) 0.9293(5) 0.99380(6)
C25_14 C 0.3585(4) 0.9946(5) 0.96379(6)
C26_14 C 0.2953(4) 0.8858(5) 0.98305(7)
H12_14 H 0.2806 0.8351 0.9860
C27_14 C 0.3374(4) 0.9190(5) 0.96804(6)
C28_14 C 0.3598(4) 0.8735(5) 0.95604(7)
H14_14 H 0.309236 0.771335 0.951012
O5_14 O 0.2012(2) 0.5254(2) 0.87319(6)
H2_14 H 0.0211 0.2068 0.8007
H3_14 H 0.0035 0.2584 0.8256
C10_14 C 0.0127(3) 0.4041(3) 0.83954(6)
H4_14 H 0.0063 0.4258 0.8295
C11_14 C 0.0306(3) 0.3388(3) 0.86955(6)
H5_12 H 0.0366 0.3170 0.8797
C12_14 C 0.0762(3) 0.4476(3) 0.85029(7)
H6_14 H 0.1122 0.4983 0.8474
C13_14 C 0.0851(3) 0.4144(3) 0.86530(6)
C14_14 C 0.1530(3) 0.4599(3) 0.87730(7)
O26_9 O 0.00271(19) 0.15444(27) 0.72850(4)
H13_14 H 0.204567 0.561998 0.882321
S1_14 S 0.77204(6) 0.25211(7) 0.80552(2)
S2_12 S 0.89913(9) 0.19851(8) 0.86498(2)
O1_11 O 0.9088(2) -0.0000 0.7500
O2_14 O 0.89190(19) 0.1442(2) 0.75951(4)
O3_9 O 0.99729(19) 0.15174(19) 0.77150(4)
O7_14 O 0.71954(19) 0.2038(2) 0.79224(5)
O8_13 O 0.80326(19) 0.33329(18) 0.80225(5)
O10_12 O 0.9084(3) 0.1499(2) 0.85265(7)
O12_12 O 0.9201(2) 0.1902(2) 0.88252(6)
C1_14 C 0.9394(3) 0.1616(3) 0.77192(6)
C2_14 C 0.9265(3) 0.1949(3) 0.78787(6)
C3_14 C 0.8634(2) 0.2047(3) 0.78984(6)
H1_14 H 0.8275 0.1896 0.7809
C4_14 C 0.9792(3) 0.2147(3) 0.80162(7)
C5_14 C 0.8519(2) 0.2364(2) 0.80474(6)
C6_14 C 0.9688(3) 0.2457(3) 0.81639(7)
C7_14 C 0.9066(3) 0.2585(3) 0.81796(6)
C8_12 C 0.9599(3) 0.3297(3) 0.84385(6)
C9_12 C 0.9671(3) 0.2952(3) 0.85883(6)
S3_15 S 0.48006(9) 0.22796(6) 0.80552(2)
S4_15 S 0.29937(12) 0.10087(9) 0.86498(2)
O13_15 O 0.25226(28) 0.10810(19) 0.75951(4)
O14_8 O 0.15444(27) 0.00271(19) 0.77150(4)
O18_15 O 0.48422(28) 0.28046(19) 0.79224(5)
O19_10 O 0.53002(26) 0.19674(19) 0.80225(5)
O21_15 O 0.2414(4) 0.0916(3) 0.85265(7)
O23_15 O 0.2700(3) 0.0799(2) 0.88252(6)
C15_15 C 0.2221(4) 0.0606(3) 0.77192(6)
C16_15 C 0.2683(4) 0.0735(3) 0.78787(6)
C17_15 C 0.3412(4) 0.1366(2) 0.78984(6)
H7_15 H 0.3620 0.1725 0.7809
C18_15 C 0.2354(4) 0.0208(3) 0.80162(7)
C19_15 C 0.3844(3) 0.1481(2) 0.80474(6)
C20_15 C 0.2768(4) 0.0312(3) 0.81639(7)
C21_15 C 0.3518(4) 0.0934(3) 0.81796(6)
C22_15 C 0.3697(4) 0.0401(3) 0.84385(6)
C23_15 C 0.3280(4) 0.0329(3) 0.85883(6)
O24_8 O 0.0911(2) 0.0912(2) 0.7500
O31_11 O 0.66671(18) 0.46998(26) 0.80225(5)
O1_12 O 0.9088(2) 1.0000 0.7500
O16_15 O 0.3241(3) 0.7988(2) 0.87319(6)
H8_15 H 0.1856 0.9789 0.8007
H9_15 H 0.2548 0.9965 0.8256
C24_15 C 0.3913(4) 0.9873(3) 0.83954(6)
H10_13 H 0.4194 0.9937 0.8295
C25_15 C 0.3081(4) 0.9694(3) 0.86955(6)
H11_15 H 0.2803 0.9634 0.8797
C26_15 C 0.3713(4) 0.9238(3) 0.85029(7)
H12_15 H 0.3860 0.8878 0.8474
C27_15 C 0.3292(4) 0.9149(3) 0.86530(6)
C28_15 C 0.3068(4) 0.8470(3) 0.87730(7)
O25_8 O 0.15174(19) 0.99729(19) 0.72850(4)
H14_15 H 0.357431 0.795433 0.882321
O1_13 O 0.0000 0.9089(2) 0.7500
S1_15 S 0.74789(7) 0.51994(9) 0.80552(2)
S2_13 S 0.80149(8) 0.70063(12) 0.86498(2)
O1_14 O 1.0000 0.9089(2) 0.7500
O2_15 O 0.8558(2) 0.74774(28) 0.75951(4)
O3_10 O 0.84826(19) 0.84556(27) 0.77150(4)
O5_15 O 0.4746(2) 0.6759(3) 0.87319(6)
O7_15 O 0.7962(2) 0.51578(28) 0.79224(5)
O10_13 O 0.8501(2) 0.7586(4) 0.85265(7)
O12_13 O 0.8098(2) 0.7300(3) 0.88252(6)
C1_15 C 0.8384(3) 0.7779(4) 0.77192(6)
C2_15 C 0.8051(3) 0.7317(4) 0.78787(6)
C3_15 C 0.7953(3) 0.6588(4) 0.78984(6)
H1_15 H 0.8104 0.6380 0.7809
C4_15 C 0.7853(3) 0.7646(4) 0.80162(7)
H2_15 H 0.7932 0.8144 0.8007
C5_15 C 0.7636(2) 0.6156(3) 0.80474(6)
C6_15 C 0.7543(3) 0.7232(4) 0.81639(7)
H3_15 H 0.7416 0.7452 0.8256
C7_15 C 0.7415(3) 0.6482(4) 0.81796(6)
C8_13 C 0.6703(3) 0.6303(4) 0.84385(6)
C9_13 C 0.7048(3) 0.6720(4) 0.85883(6)
C10_15 C 0.5959(3) 0.6087(4) 0.83954(6)
H4_15 H 0.5742 0.5806 0.8295
C11_15 C 0.6612(3) 0.6919(4) 0.86955(6)
H5_13 H 0.6830 0.7197 0.8797
C12_15 C 0.5524(3) 0.6287(4) 0.85029(7)
H6_15 H 0.5017 0.6140 0.8474
C13_15 C 0.5856(3) 0.6708(4) 0.86530(6)
C14_15 C 0.5401(3) 0.6932(4) 0.87730(7)
O26_10 O 0.84556(27) 0.84826(33) 0.72850(4)
H13_15 H 0.438002 0.642569 0.882321
O5_16 O 0.5254(2) 0.2012(2) 0.62681(6)
H2_16 H 0.2068 0.0211 0.6993
H3_16 H 0.2584 0.0035 0.6744
C10_16 C 0.4041(3) 0.0127(3) 0.66046(6)
H4_16 H 0.4258 0.0063 0.6705
C11_16 C 0.3388(3) 0.0306(3) 0.63045(6)
H5_14 H 0.3170 0.0366 0.6203
C12_16 C 0.4476(3) 0.0762(3) 0.64971(7)
H6_16 H 0.4983 0.1122 0.6526
C13_16 C 0.4144(3) 0.0851(3) 0.63470(6)
C14_16 C 0.4599(3) 0.1530(3) 0.62270(7)
H13_16 H 0.561998 0.204567 0.617679
S1_16 S 0.25211(7) 0.77204(6) 0.69448(2)
S2_14 S 0.19851(8) 0.89913(9) 0.63502(2)
O2_16 O 0.1442(2) 0.89190(19) 0.74049(4)
O7_16 O 0.2038(2) 0.71954(19) 0.70776(5)
O8_14 O 0.33329(18) 0.80326(19) 0.69775(5)
O10_14 O 0.1499(2) 0.9084(3) 0.64735(7)
O12_14 O 0.1902(2) 0.9201(2) 0.61748(6)
C1_16 C 0.1616(3) 0.9394(3) 0.72808(6)
C2_16 C 0.1949(3) 0.9265(3) 0.71213(6)
C3_16 C 0.2047(3) 0.8634(2) 0.71016(6)
H1_16 H 0.1896 0.8275 0.7191
C4_16 C 0.2147(3) 0.9792(3) 0.69838(7)
C5_16 C 0.2364(2) 0.8519(2) 0.69526(6)
C6_16 C 0.2457(3) 0.9688(3) 0.68361(7)
C7_16 C 0.2585(3) 0.9066(3) 0.68204(6)
C8_14 C 0.3297(3) 0.9599(3) 0.65615(6)
C9_14 C 0.2952(3) 0.9671(3) 0.64117(6)
S3_16 S 0.22796(6) 0.48006(9) 0.69448(2)
S4_16 S 0.10087(9) 0.29937(12) 0.63502(2)
O13_16 O 0.10810(19) 0.25226(28) 0.74049(4)
O18_16 O 0.28046(19) 0.48422(28) 0.70776(5)
O19_11 O 0.19674(19) 0.53002(26) 0.69775(5)
O21_16 O 0.0916(3) 0.2414(4) 0.64735(7)
O23_16 O 0.0799(2) 0.2700(3) 0.61748(6)
C15_16 C 0.0606(3) 0.2221(4) 0.72808(6)
C16_16 C 0.0735(3) 0.2683(4) 0.71213(6)
C17_16 C 0.1366(2) 0.3412(4) 0.71016(6)
H7_16 H 0.1725 0.3620 0.7191
C18_16 C 0.0208(3) 0.2354(4) 0.69838(7)
C19_16 C 0.1481(2) 0.3844(3) 0.69526(6)
C20_16 C 0.0312(3) 0.2768(4) 0.68361(7)
C21_16 C 0.0934(3) 0.3518(4) 0.68204(6)
C22_16 C 0.0401(3) 0.3697(4) 0.65615(6)
C23_16 C 0.0329(3) 0.3280(4) 0.64117(6)
O31_12 O 0.46998(26) 0.66671(18) 0.69775(5)
O16_16 O 0.7988(2) 0.3241(3) 0.62681(6)
H8_16 H 0.9789 0.1856 0.6993
H9_16 H 0.9965 0.2548 0.6744
C24_16 C 0.9873(3) 0.3913(4) 0.66046(6)
H10_14 H 0.9937 0.4194 0.6705
C25_16 C 0.9694(3) 0.3081(4) 0.63045(6)
H11_16 H 0.9634 0.2803 0.6203
C26_16 C 0.9238(3) 0.3713(4) 0.64971(7)
H12_16 H 0.8878 0.3860 0.6526
C27_16 C 0.9149(3) 0.3292(4) 0.63470(6)
C28_16 C 0.8470(3) 0.3068(4) 0.62270(7)
H14_16 H 0.795433 0.357431 0.617679
S3_17 S 0.51994(9) 0.74789(11) 0.69448(2)
S4_17 S 0.70063(12) 0.80149(15) 0.63502(2)
O13_17 O 0.74774(28) 0.85583(34) 0.74049(4)
O16_17 O 0.6759(3) 0.4746(4) 0.62681(6)
O18_17 O 0.51578(28) 0.79623(34) 0.70776(5)
O21_17 O 0.7586(4) 0.8501(5) 0.64735(7)
O23_17 O 0.7300(3) 0.8098(4) 0.61748(6)
C15_17 C 0.7779(4) 0.8384(5) 0.72808(6)
C16_17 C 0.7317(4) 0.8051(5) 0.71213(6)
C17_17 C 0.6588(4) 0.7953(4) 0.71016(6)
H7_17 H 0.6380 0.8104 0.7191
C18_17 C 0.7646(4) 0.7853(5) 0.69838(7)
H8_17 H 0.8144 0.7932 0.6993
C19_17 C 0.6156(3) 0.7636(4) 0.69526(6)
C20_17 C 0.7232(4) 0.7543(5) 0.68361(7)
H9_17 H 0.7452 0.7416 0.6744
C21_17 C 0.6482(4) 0.7415(5) 0.68204(6)
C22_17 C 0.6303(4) 0.6703(5) 0.65615(6)
C23_17 C 0.6720(4) 0.7048(5) 0.64117(6)
C24_17 C 0.6087(4) 0.5959(5) 0.66046(6)
H10_15 H 0.5806 0.5742 0.6705
C25_17 C 0.6919(4) 0.6612(5) 0.63045(6)
H11_17 H 0.7197 0.6830 0.6203
C26_17 C 0.6287(4) 0.5524(5) 0.64971(7)
H12_17 H 0.6140 0.5017 0.6526
C27_17 C 0.6708(4) 0.5856(5) 0.63470(6)
C28_17 C 0.6932(4) 0.5401(5) 0.62270(7)
H14_17 H 0.642569 0.438002 0.617679
O5_17 O 0.5346(2) 0.1920(2) 0.53985(6)
O8_15 O 0.13660(19) -0.00005(18) 0.46891(5)
C10_17 C 0.3461(3) 0.0707(3) 0.50620(6)
H4_17 H 0.3397 0.0924 0.4961
C11_17 C 0.3640(3) 0.0054(3) 0.53621(6)
C12_17 C 0.4096(3) 0.1142(3) 0.51695(7)
H6_17 H 0.4456 0.1649 0.5140
C13_17 C 0.4185(3) 0.0810(3) 0.53196(6)
C14_17 C 0.4864(3) 0.1265(3) 0.54396(7)
O31_13 O 0.00005(18) 0.13664(26) 0.46891(5)
H13_17 H 0.537901 0.228665 0.548988
S1_17 S 0.10538(6) 0.91877(7) 0.47218(2)
S2_15 S 0.23247(9) 0.86517(8) 0.53164(2)
O2_17 O 0.22524(19) 0.8108(2) 0.42617(4)
O7_17 O 0.05288(19) 0.8704(2) 0.45890(5)
O8_16 O 0.13660(19) 0.99995(18) 0.46891(5)
O10_15 O 0.2418(3) 0.8165(2) 0.51931(7)
O12_15 O 0.2535(2) 0.8568(2) 0.54918(6)
C1_17 C 0.2728(3) 0.8282(3) 0.43858(6)
C2_17 C 0.2599(3) 0.8615(3) 0.45453(6)
C3_17 C 0.1968(2) 0.8713(3) 0.45650(6)
H1_17 H 0.1609 0.8562 0.4475
C4_17 C 0.3126(3) 0.8813(3) 0.46828(7)
H2_17 H 0.3545 0.8734 0.4673
C5_17 C 0.1853(2) 0.9030(2) 0.47140(6)
C6_17 C 0.3022(3) 0.9123(3) 0.48305(7)
H3_17 H 0.3369 0.9250 0.4922
C7_17 C 0.2400(3) 0.9251(3) 0.48462(6)
C8_15 C 0.2933(3) 0.9963(3) 0.51051(6)
C9_15 C 0.3005(3) 0.9618(3) 0.52549(6)
H5_15 H 0.3700 0.9836 0.5463
O31_14 O 1.00005(18) 0.13664(26) 0.46891(5)
S3_18 S 0.81340(9) 0.89462(6) 0.47218(2)
S4_18 S 0.63271(12) 0.76753(9) 0.53164(2)
O13_18 O 0.58560(28) 0.77476(19) 0.42617(4)
O16_18 O 0.6575(3) 0.4654(2) 0.53985(6)
O18_18 O 0.81756(28) 0.94712(19) 0.45890(5)
O19_12 O 0.86336(26) 0.86340(19) 0.46891(5)
O21_18 O 0.5748(4) 0.7582(3) 0.51931(7)
O23_18 O 0.6034(3) 0.7465(2) 0.54918(6)
C15_18 C 0.5555(4) 0.7272(3) 0.43858(6)
C16_18 C 0.6017(4) 0.7401(3) 0.45453(6)
C17_18 C 0.6746(4) 0.8032(2) 0.45650(6)
H7_18 H 0.6954 0.8391 0.4475
C18_18 C 0.5688(4) 0.6874(3) 0.46828(7)
H8_18 H 0.5190 0.6455 0.4673
C19_18 C 0.7178(3) 0.8147(2) 0.47140(6)
C20_18 C 0.6102(4) 0.6978(3) 0.48305(7)
H9_18 H 0.5882 0.6631 0.4922
C21_18 C 0.6852(4) 0.7600(3) 0.48462(6)
C22_18 C 0.7031(4) 0.7067(3) 0.51051(6)
C23_18 C 0.6614(4) 0.6995(3) 0.52549(6)
C24_18 C 0.7247(4) 0.6539(3) 0.50620(6)
H10_16 H 0.7528 0.6603 0.4961
C25_18 C 0.6415(4) 0.6360(3) 0.53621(6)
H11_18 H 0.6137 0.6300 0.5463
C26_18 C 0.7047(4) 0.5904(3) 0.51695(7)
H12_18 H 0.7194 0.5544 0.5140
C27_18 C 0.6626(4) 0.5815(3) 0.53196(6)
C28_18 C 0.6402(4) 0.5136(3) 0.54396(7)
H14_18 H 0.690764 0.462099 0.548988
S1_18 S 0.08123(7) 0.18660(9) 0.47218(2)
S2_16 S 0.13483(8) 0.36729(12) 0.53164(2)
O2_18 O 0.1892(2) 0.41440(28) 0.42617(4)
O7_18 O 0.1296(2) 0.18244(28) 0.45890(5)
O10_16 O 0.1835(2) 0.4252(4) 0.51931(7)
O12_16 O 0.1432(2) 0.3966(3) 0.54918(6)
C1_18 C 0.1718(3) 0.4445(4) 0.43858(6)
C2_18 C 0.1385(3) 0.3983(4) 0.45453(6)
C3_18 C 0.1287(3) 0.3254(4) 0.45650(6)
H1_18 H 0.1438 0.3046 0.4475
C4_18 C 0.1187(3) 0.4312(4) 0.46828(7)
H2_18 H 0.1266 0.4810 0.4673
C5_18 C 0.0970(2) 0.2822(3) 0.47140(6)
C6_18 C 0.0877(3) 0.3898(4) 0.48305(7)
H3_18 H 0.0750 0.4118 0.4922
C7_18 C 0.0749(3) 0.3148(4) 0.48462(6)
C8_16 C 0.0037(3) 0.2969(4) 0.51051(6)
C9_16 C 0.0382(3) 0.3386(4) 0.52549(6)
H5_16 H 0.0164 0.3863 0.5463
O5_18 O 0.8080(2) 0.3425(3) 0.53985(6)
C10_18 C 0.9293(3) 0.2753(4) 0.50620(6)
H4_18 H 0.9076 0.2472 0.4961
C11_18 C 0.9946(3) 0.3585(4) 0.53621(6)
C12_18 C 0.8858(3) 0.2953(4) 0.51695(7)
H6_18 H 0.8351 0.2806 0.5140
C13_18 C 0.9190(3) 0.3374(4) 0.53196(6)
C14_18 C 0.8735(3) 0.3598(4) 0.54396(7)
H13_18 H 0.771335 0.309236 0.548988
S2_17 S 0.13483(8) 0.76753(9) 0.03164(2)
O10_17 O 0.1835(2) 0.7582(3) 0.01931(7)
O11_9 O 0.1415(2) 0.8421(2) 0.03062(6)
O12_17 O 0.1432(2) 0.7465(2) 0.04918(6)
C8_17 C 0.0037(3) 0.7067(3) 0.01051(6)
C9_17 C 0.0382(3) 0.6995(3) 0.02549(6)
H5_17 H 0.0164 0.6300 0.0463
Na4_9 Na 0.06687(11) 0.88619(16) 0.01716(3)
O31_15 O 0.13664(26) 1.00005(18) 0.03109(5)
H10_17 H 0.2472 0.9076 0.0039
Na2_6 Na 0.93313(11) 0.11381(16) 0.98284(3)
O31_16 O 0.86336(26) -0.00005(18) 0.96891(5)
O34_9 O 0.8585(2) 0.1579(2) 0.96938(6)
H10_18 H 0.7528 0.0924 0.9961
S2_18 S 0.86517(8) 0.23247(9) 0.96836(2)
O10_18 O 0.8165(2) 0.2418(3) 0.98069(7)
O12_18 O 0.8568(2) 0.2535(2) 0.95082(6)
C8_18 C 0.9963(3) 0.2933(3) 0.98949(6)
C9_18 C 0.9618(3) 0.3005(3) 0.97451(6)
H5_18 H 0.9836 0.3700 0.9537
loop_
_geom_bond_atom_site_label_1
_geom_bond_atom_site_label_2
_geom_bond_site_symmetry_1
_geom_bond_site_symmetry_2
Zn2 O13 1_555 1_555
S4 O21 1_555 1_555
O13 C15 1_555 1_555
O14 C15 1_555 1_555
O16 C28 1_555 1_555
O17 C28 1_555 1_555
O23 S4 1_555 1_555
C15 C16 1_555 1_555
C18 C16 1_555 1_555
H8 C18 1_555 1_555
C20 C18 1_555 1_555
H9 C20 1_555 1_555
C23 S4 1_555 1_555
C25 C23 1_555 1_555
H11 C25 1_555 1_555
C27 C25 1_555 1_555
C28 C27 1_555 1_555
Zn3 O14 1_555 1_555
Zn6 O17 1_555 1_555
O24 Zn2 1_555 1_555
O25 Zn2 1_555 1_555
O29 Zn2 1_555 1_555
Zn1 O1 1_555 1_555
S1 O7 1_555 1_555
S2 O10 1_555 1_555
Na1 O7 1_555 1_555
O1 Zn4 1_555 1_555
O2 Zn1 1_555 1_555
O3 C1 1_555 1_555
O4 C7 1_555 1_555
O5 C14 1_555 1_555
O6 C14 1_555 1_555
O8 S1 1_555 1_555
O9 S1 1_555 1_555
O11 S2 1_555 1_555
O12 S2 1_555 1_555
C1 O2 1_555 1_555
C2 C1 1_555 1_555
C3 C2 1_555 1_555
H1 C3 1_555 1_555
C4 C2 1_555 1_555
H2 C4 1_555 1_555
C5 S1 1_555 1_555
C6 C4 1_555 1_555
H3 C6 1_555 1_555
C7 C5 1_555 1_555
C8 O4 1_555 1_555
C9 S2 1_555 1_555
C10 C8 1_555 1_555
H4 C10 1_555 1_555
C11 C9 1_555 1_555
H5 C11 1_555 1_555
C12 C10 1_555 1_555
H6 C12 1_555 1_555
C13 C11 1_555 1_555
C14 C13 1_555 1_555
S3 O18 1_555 1_555
Na2 O18 1_555 1_555
O15 C21 1_555 1_555
O19 Na1 1_555 1_555
O20 S3 1_555 1_555
C17 H7 1_555 1_555
C19 S3 1_555 1_555
C21 C19 1_555 1_555
C22 O15 1_555 1_555
C24 C22 1_555 1_555
H10 C24 1_555 1_555
C26 C24 1_555 1_555
H12 C26 1_555 1_555
Zn5 O3 1_555 1_555
Zn7 O6 1_555 1_555
Na3 O8 1_555 1_555
Na4 O4 1_555 1_555
Na5 O15 1_555 1_555
O26 Zn1 1_555 1_555
O27 Na2 1_555 1_555
O28 Na1 1_555 1_555
O30 Zn1 1_555 1_555
O31 Na2 1_555 1_555
O32 Na2 1_555 1_555
O33 Na1 1_555 1_555
O34 Na2 1_555 1_555
O35 Na1 1_555 1_555
Na1 O9 1_555 1_555
O9 Na4 1_555 1_555
O11 Na4 1_555 1_555
C3 C5 1_555 1_555
C6 C7 1_555 1_555
C8 C9 1_555 1_555
C12 C13 1_555 1_555
S3 O19 1_555 1_555
Na2 O20 1_555 1_555
O20 Na5 1_555 1_555
O22 Na5 1_555 1_555
C17 C19 1_555 1_555
Na5 O33 1_555 1_555
O5 H13 1_555 1_555
O24 Zn5 1_555 1_555
S3_2 O18_2 1_555 1_555
Na3 O18_2 1_555 1_555
O15_2 C21_2 1_555 1_555
O20_2 S3_2 1_555 1_555
C17_2 H7_2 1_555 1_555
C19_2 S3_2 1_555 1_555
C21_2 C19_2 1_555 1_555
C22_2 O15_2 1_555 1_555
C24_2 C22_2 1_555 1_555
H10_2 C24_2 1_555 1_555
C26_2 C24_2 1_555 1_555
H12_2 C26_2 1_555 1_555
Na5_2 O15_2 1_555 1_555
O27_2 Na3 1_555 1_555
O32_2 Na3 1_555 1_555
O34_2 Na3 1_555 1_555
S3_2 O31 1_555 1_555
Na3 O20_2 1_555 1_555
O20_2 Na5_2 1_555 1_555
O22_2 Na5_2 1_555 1_555
C17_2 C19_2 1_555 1_555
Na5_2 O32 1_555 1_555
Zn2_2 O13_2 1_555 1_555
S4_2 O21_2 1_555 1_555
O13_2 C15_2 1_555 1_555
O14_2 C15_2 1_555 1_555
O16_2 C28_2 1_555 1_555
O17_2 C28_2 1_555 1_555
O23_2 S4_2 1_555 1_555
C15_2 C16_2 1_555 1_555
C18_2 C16_2 1_555 1_555
H8_2 C18_2 1_555 1_555
C20_2 C18_2 1_555 1_555
H9_2 C20_2 1_555 1_555
C23_2 S4_2 1_555 1_555
C25_2 C23_2 1_555 1_555
H11_2 C25_2 1_555 1_555
C27_2 C25_2 1_555 1_555
C28_2 C27_2 1_555 1_555
Zn4 O14_2 1_555 1_555
Zn6_2 O17_2 1_555 1_555
O24_2 Zn2_2 1_555 1_555
O25_2 Zn2_2 1_555 1_555
O29_2 Zn2_2 1_555 1_555
Na4 O32_2 1_555 1_555
O24_2 Zn3 1_555 1_555
Zn2_3 O13_3 1_555 1_555
S4_3 O21_3 1_555 1_555
O13_3 C15_3 1_555 1_555
O14_3 C15_3 1_555 1_555
O16_3 C28_3 1_555 1_555
O17_3 C28_3 1_555 1_555
O23_3 S4_3 1_555 1_555
C15_3 C16_3 1_555 1_555
C18_3 C16_3 1_555 1_555
H8_3 C18_3 1_555 1_555
C20_3 C18_3 1_555 1_555
H9_3 C20_3 1_555 1_555
C23_3 S4_3 1_555 1_555
C25_3 C23_3 1_555 1_555
H11_3 C25_3 1_555 1_555
C27_3 C25_3 1_555 1_555
C28_3 C27_3 1_555 1_555
Zn3_2 O14_3 1_555 1_555
Zn6_3 O17_3 1_555 1_555
O24_3 Zn2_3 1_555 1_555
O25_3 Zn2_3 1_555 1_555
O29_3 Zn2_3 1_555 1_555
Zn1_2 O1_2 1_555 1_555
S1_2 O7_2 1_555 1_555
S2_2 O10_2 1_555 1_555
Na1_2 O7_2 1_555 1_555
O1_2 Zn4_2 1_555 1_555
O2_2 Zn1_2 1_555 1_555
O3_2 C1_2 1_555 1_555
O4_2 C7_2 1_555 1_555
O5_2 C14_2 1_555 1_555
O6_2 C14_2 1_555 1_555
O8_2 S1_2 1_555 1_555
O9_2 S1_2 1_555 1_555
O11_2 S2_2 1_555 1_555
O12_2 S2_2 1_555 1_555
C1_2 O2_2 1_555 1_555
C2_2 C1_2 1_555 1_555
C3_2 C2_2 1_555 1_555
H1_2 C3_2 1_555 1_555
C4_2 C2_2 1_555 1_555
H2_2 C4_2 1_555 1_555
C5_2 S1_2 1_555 1_555
C6_2 C4_2 1_555 1_555
H3_2 C6_2 1_555 1_555
C7_2 C5_2 1_555 1_555
C8_2 O4_2 1_555 1_555
C9_2 S2_2 1_555 1_555
C10_2 C8_2 1_555 1_555
H4_2 C10_2 1_555 1_555
C11_2 C9_2 1_555 1_555
H5_2 C11_2 1_555 1_555
C12_2 C10_2 1_555 1_555
H6_2 C12_2 1_555 1_555
C13_2 C11_2 1_555 1_555
C14_2 C13_2 1_555 1_555
S3_3 O18_3 1_555 1_555
Na2_2 O18_3 1_555 1_555
O15_3 C21_3 1_555 1_555
O19_2 Na1_2 1_555 1_555
O20_3 S3_3 1_555 1_555
C17_3 H7_3 1_555 1_555
C19_3 S3_3 1_555 1_555
C21_3 C19_3 1_555 1_555
C22_3 O15_3 1_555 1_555
C24_3 C22_3 1_555 1_555
H10_3 C24_3 1_555 1_555
C26_3 C24_3 1_555 1_555
H12_3 C26_3 1_555 1_555
Zn5_2 O3_2 1_555 1_555
Zn7_2 O6_2 1_555 1_555
Na3_2 O8_2 1_555 1_555
Na4_2 O4_2 1_555 1_555
Na5_3 O15_3 1_555 1_555
O26_2 Zn1_2 1_555 1_555
O27_3 Na2_2 1_555 1_555
O28_2 Na1_2 1_555 1_555
O30_2 Zn1_2 1_555 1_555
O31_2 Na2_2 1_555 1_555
O32_3 Na2_2 1_555 1_555
O33_2 Na1_2 1_555 1_555
O34_3 Na2_2 1_555 1_555
O35_2 Na1_2 1_555 1_555
Na1_2 O9_2 1_555 1_555
O9_2 Na4_2 1_555 1_555
O11_2 Na4_2 1_555 1_555
C3_2 C5_2 1_555 1_555
C6_2 C7_2 1_555 1_555
C8_2 C9_2 1_555 1_555
C12_2 C13_2 1_555 1_555
S3_3 O19_2 1_555 1_555
Na2_2 O20_3 1_555 1_555
O20_3 Na5_3 1_555 1_555
O22_3 Na5_3 1_555 1_555
C17_3 C19_3 1_555 1_555
Na5_3 O33_2 1_555 1_555
O5_2 H13_2 1_555 1_555
S1_3 O7_3 1_555 1_555
Na3_2 O7_3 1_555 1_555
O4_3 C7_3 1_555 1_555
O31_2 S1_3 1_555 1_555
O9_3 S1_3 1_555 1_555
H1_3 C3_3 1_555 1_555
C5_3 S1_3 1_555 1_555
C7_3 C5_3 1_555 1_555
C8_3 O4_3 1_555 1_555
C10_3 C8_3 1_555 1_555
H4_3 C10_3 1_555 1_555
C12_3 C10_3 1_555 1_555
H6_3 C12_3 1_555 1_555
Na4_3 O4_3 1_555 1_555
O28_3 Na3_2 1_555 1_555
O33_3 Na3_2 1_555 1_555
O35_3 Na3_2 1_555 1_555
Na3_2 O9_3 1_555 1_555
O9_3 Na4_3 1_555 1_555
O11_3 Na4_3 1_555 1_555
C3_3 C5_3 1_555 1_555
Na4_2 O33_3 1_555 1_555
Zn1_3 O1_3 1_555 1_555
S2_3 O10_3 1_555 1_555
O1_3 Zn3_2 1_555 1_555
O2_3 Zn1_3 1_555 1_555
O3_3 C1_3 1_555 1_555
O5_3 C14_3 1_555 1_555
O6_3 C14_3 1_555 1_555
O12_3 S2_3 1_555 1_555
C1_3 O2_3 1_555 1_555
C2_3 C1_3 1_555 1_555
C4_3 C2_3 1_555 1_555
H2_3 C4_3 1_555 1_555
C6_3 C4_3 1_555 1_555
H3_3 C6_3 1_555 1_555
C9_3 S2_3 1_555 1_555
C11_3 C9_3 1_555 1_555
H5_3 C11_3 1_555 1_555
C13_3 C11_3 1_555 1_555
C14_3 C13_3 1_555 1_555
Zn4_2 O3_3 1_555 1_555
Zn7_3 O6_3 1_555 1_555
O26_3 Zn1_3 1_555 1_555
O30_3 Zn1_3 1_555 1_555
O24_3 Zn5_2 1_555 1_555
Na4_3 O32_3 1_555 1_555
S4_4 O21_4 1_555 1_555
O16_4 C28_4 1_555 1_555
O17_4 C28_4 1_555 1_555
O22_4 S4_4 1_555 1_555
O23_4 S4_4 1_555 1_555
C23_4 S4_4 1_555 1_555
C24_4 C22_4 1_555 1_555
C25_4 C23_4 1_555 1_555
H11_4 C25_4 1_555 1_555
C26_4 C24_4 1_555 1_555
H12_4 C26_4 1_555 1_555
C27_4 C25_4 1_555 1_555
C28_4 C27_4 1_555 1_555
Zn6_4 O17_4 1_555 1_555
O22_4 Na5_4 1_555 1_555
C22_4 C23_4 1_555 1_555
C26_4 C27_4 1_555 1_555
Na5_4 O33_4 1_555 1_555
O16_4 H14_4 1_555 1_555
Zn5_2 O13_4 1_555 1_555
S3_4 O18_4 1_555 1_555
O13_4 C15_4 1_555 1_555
O26_2 C15_4 1_555 1_555
O15_4 C21_4 1_555 1_555
O19_3 Na1_3 1_555 1_555
O20_4 S3_4 1_555 1_555
C15_4 C16_4 1_555 1_555
C16_4 C17_4 1_555 1_555
C17_4 H7_4 1_555 1_555
C18_4 C16_4 1_555 1_555
H8_4 C18_4 1_555 1_555
C19_4 S3_4 1_555 1_555
C20_4 C18_4 1_555 1_555
H9_4 C20_4 1_555 1_555
C21_4 C19_4 1_555 1_555
O29_4 Zn5_2 1_555 1_555
O35_4 Na1_3 1_555 1_555
S3_4 O19_3 1_555 1_555
C17_4 C19_4 1_555 1_555
C20_4 C21_4 1_555 1_555
S1_4 O7_4 1_555 1_555
O2_4 Zn3_2 1_555 1_555
O25_3 C1_4 1_555 1_555
O4_4 C7_4 1_555 1_555
O8_3 S1_4 1_555 1_555
O9_4 S1_4 1_555 1_555
C1_4 O2_4 1_555 1_555
C2_4 C1_4 1_555 1_555
C3_4 C2_4 1_555 1_555
H1_4 C3_4 1_555 1_555
C4_4 C2_4 1_555 1_555
H2_4 C4_4 1_555 1_555
C5_4 S1_4 1_555 1_555
C6_4 C4_4 1_555 1_555
H3_4 C6_4 1_555 1_555
C7_4 C5_4 1_555 1_555
O30_4 Zn3_2 1_555 1_555
C3_4 C5_4 1_555 1_555
C6_4 C7_4 1_555 1_555
O5_4 C14_4 1_555 1_555
O6_4 C14_4 1_555 1_555
C12_4 C10_4 1_555 1_555
H6_4 C12_4 1_555 1_555
C13_4 C11_4 1_555 1_555
C14_4 C13_4 1_555 1_555
Zn7_4 O6_4 1_555 1_555
C12_4 C13_4 1_555 1_555
O5_4 H13_4 1_555 1_555
Na3_3 O8_4 1_555 1_555
O16_5 C28_5 1_555 1_555
O17_5 C28_5 1_555 1_555
C26_5 C24_5 1_555 1_555
H12_5 C26_5 1_555 1_555
C27_5 C25_5 1_555 1_555
C28_5 C27_5 1_555 1_555
Zn6_5 O17_5 1_555 1_555
C26_5 C27_5 1_555 1_555
O16_5 H14_5 1_555 1_555
S4_5 O21_5 1_555 1_555
O22_5 S4_5 1_555 1_555
O23_5 S4_5 1_555 1_555
C23_5 S4_5 1_555 1_555
O22_5 Na5_5 1_555 1_555
C22_5 C23_5 1_555 1_555
Zn4_2 O13_5 1_555 1_555
S3_5 O18_5 1_555 1_555
Na3_3 O18_5 1_555 1_555
O13_5 C15_5 1_555 1_555
O26_3 C15_5 1_555 1_555
O15_5 C21_5 1_555 1_555
O20_5 S3_5 1_555 1_555
C15_5 C16_5 1_555 1_555
C16_5 C17_5 1_555 1_555
C17_5 H7_5 1_555 1_555
C18_5 C16_5 1_555 1_555
H8_5 C18_5 1_555 1_555
C19_5 S3_5 1_555 1_555
C20_5 C18_5 1_555 1_555
H9_5 C20_5 1_555 1_555
C21_5 C19_5 1_555 1_555
O29_5 Zn4_2 1_555 1_555
O34_4 Na3_3 1_555 1_555
S3_5 O31_3 1_555 1_555
Na3_3 O20_5 1_555 1_555
C17_5 C19_5 1_555 1_555
C20_5 C21_5 1_555 1_555
O1_4 Zn4_3 1_555 1_555
O16_6 C28_6 1_555 1_555
O17_6 C28_6 1_555 1_555
H10_5 C24_6 1_555 1_555
H11_6 C25_6 1_555 1_555
C26_6 C24_6 1_555 1_555
H12_6 C26_6 1_555 1_555
C27_6 C25_6 1_555 1_555
C28_6 C27_6 1_555 1_555
Zn6_6 O17_6 1_555 1_555
C26_6 C27_6 1_555 1_555
O16_6 H14_6 1_555 1_555
Zn1_4 O1_5 1_555 1_555
S1_5 O7_5 1_555 1_555
S2_4 O10_4 1_555 1_555
Na1_4 O7_5 1_555 1_555
O2_5 Zn1_4 1_555 1_555
O3_4 C1_5 1_555 1_555
O4_5 C7_5 1_555 1_555
O8_5 S1_5 1_555 1_555
O9_5 S1_5 1_555 1_555
O11_4 S2_4 1_555 1_555
O12_4 S2_4 1_555 1_555
C1_5 O2_5 1_555 1_555
C2_5 C1_5 1_555 1_555
C3_5 C2_5 1_555 1_555
H1_5 C3_5 1_555 1_555
C4_5 C2_5 1_555 1_555
C5_5 S1_5 1_555 1_555
C6_5 C4_5 1_555 1_555
C7_5 C5_5 1_555 1_555
C8_4 O4_5 1_555 1_555
C9_4 S2_4 1_555 1_555
Zn2_4 O13_6 1_555 1_555
S3_6 O18_6 1_555 1_555
S4_6 O21_6 1_555 1_555
Na2_3 O18_6 1_555 1_555
O13_6 C15_6 1_555 1_555
O14_4 C15_6 1_555 1_555
O15_6 C21_6 1_555 1_555
O19_4 Na1_4 1_555 1_555
O20_6 S3_6 1_555 1_555
O22_6 S4_6 1_555 1_555
O23_6 S4_6 1_555 1_555
C15_6 C16_6 1_555 1_555
C16_6 C17_6 1_555 1_555
C17_6 H7_6 1_555 1_555
C18_6 C16_6 1_555 1_555
C19_6 S3_6 1_555 1_555
C20_6 C18_6 1_555 1_555
C21_6 C19_6 1_555 1_555
C22_6 O15_6 1_555 1_555
C23_6 S4_6 1_555 1_555
Na3_4 O8_5 1_555 1_555
Na4_4 O4_5 1_555 1_555
Na5_6 O15_6 1_555 1_555
O24_4 Zn2_4 1_555 1_555
O27_6 Na2_3 1_555 1_555
O28_5 Na1_4 1_555 1_555
O29_6 Zn2_4 1_555 1_555
O30_5 Zn1_4 1_555 1_555
O31_4 Na2_3 1_555 1_555
O32_6 Na2_3 1_555 1_555
O33_5 Na1_4 1_555 1_555
O34_5 Na2_3 1_555 1_555
O35_5 Na1_4 1_555 1_555
Na1_4 O9_5 1_555 1_555
O9_5 Na4_4 1_555 1_555
O11_4 Na4_4 1_555 1_555
C3_5 C5_5 1_555 1_555
C6_5 C7_5 1_555 1_555
C8_4 C9_4 1_555 1_555
S3_6 O19_4 1_555 1_555
Na2_3 O20_6 1_555 1_555
O20_6 Na5_6 1_555 1_555
O22_6 Na5_6 1_555 1_555
C17_6 C19_6 1_555 1_555
C20_6 C21_6 1_555 1_555
C22_6 C23_6 1_555 1_555
Na5_6 O33_5 1_555 1_555
O5_5 C14_5 1_555 1_555
O6_5 C14_5 1_555 1_555
H4_5 C10_5 1_555 1_555
H5_4 C11_5 1_555 1_555
C12_5 C10_5 1_555 1_555
H6_5 C12_5 1_555 1_555
C13_5 C11_5 1_555 1_555
C14_5 C13_5 1_555 1_555
Zn7_5 O6_5 1_555 1_555
C12_5 C13_5 1_555 1_555
O5_5 H13_5 1_555 1_555
Zn1_5 O1_6 1_555 1_555
S1_6 O7_6 1_555 1_555
S2_5 O10_5 1_555 1_555
Na3_4 O7_6 1_555 1_555
O2_6 Zn1_5 1_555 1_555
O3_5 C1_6 1_555 1_555
O4_6 C7_6 1_555 1_555
O5_6 C14_6 1_555 1_555
O6_6 C14_6 1_555 1_555
O31_4 S1_6 1_555 1_555
O9_6 S1_6 1_555 1_555
O11_5 S2_5 1_555 1_555
O12_5 S2_5 1_555 1_555
C1_6 O2_6 1_555 1_555
C2_6 C1_6 1_555 1_555
C3_6 C2_6 1_555 1_555
H1_6 C3_6 1_555 1_555
C4_6 C2_6 1_555 1_555
H2_6 C4_6 1_555 1_555
C5_6 S1_6 1_555 1_555
C6_6 C4_6 1_555 1_555
H3_6 C6_6 1_555 1_555
C7_6 C5_6 1_555 1_555
C8_5 O4_6 1_555 1_555
C9_5 S2_5 1_555 1_555
C10_6 C8_5 1_555 1_555
H4_6 C10_6 1_555 1_555
C11_6 C9_5 1_555 1_555
H5_5 C11_6 1_555 1_555
C12_6 C10_6 1_555 1_555
H6_6 C12_6 1_555 1_555
C13_6 C11_6 1_555 1_555
C14_6 C13_6 1_555 1_555
Zn4_3 O3_5 1_555 1_555
Zn7_6 O6_6 1_555 1_555
Na4_5 O4_6 1_555 1_555
O26_5 Zn1_5 1_555 1_555
O28_6 Na3_4 1_555 1_555
O30_6 Zn1_5 1_555 1_555
O33_6 Na3_4 1_555 1_555
O35_6 Na3_4 1_555 1_555
Na3_4 O9_6 1_555 1_555
O9_6 Na4_5 1_555 1_555
O11_5 Na4_5 1_555 1_555
C3_6 C5_6 1_555 1_555
C6_6 C7_6 1_555 1_555
C8_5 C9_5 1_555 1_555
C12_6 C13_6 1_555 1_555
Na4_4 O33_6 1_555 1_555
O5_6 H13_6 1_555 1_555
O1_7 Zn3_3 1_555 1_555
O24_4 Zn5_3 1_555 1_555
Na4_5 O32_6 1_555 1_555
O16_7 C28_7 1_555 1_555
O17_7 C28_7 1_555 1_555
H10_6 C24_7 1_555 1_555
H11_7 C25_7 1_555 1_555
C26_7 C24_7 1_555 1_555
H12_7 C26_7 1_555 1_555
C27_7 C25_7 1_555 1_555
C28_7 C27_7 1_555 1_555
Zn6_7 O17_7 1_555 1_555
C26_7 C27_7 1_555 1_555
O16_7 H14_7 1_555 1_555
S1_7 O7_7 1_555 1_555
S2_6 O10_6 1_555 1_555
Na1_5 O7_7 1_555 1_555
O2_7 Zn3_3 1_555 1_555
O25_4 C1_7 1_555 1_555
O4_7 C7_7 1_555 1_555
O8_6 S1_7 1_555 1_555
O9_7 S1_7 1_555 1_555
O11_6 S2_6 1_555 1_555
O12_6 S2_6 1_555 1_555
C1_7 O2_7 1_555 1_555
C2_7 C1_7 1_555 1_555
C3_7 C2_7 1_555 1_555
H1_7 C3_7 1_555 1_555
C4_7 C2_7 1_555 1_555
C5_7 S1_7 1_555 1_555
C6_7 C4_7 1_555 1_555
C7_7 C5_7 1_555 1_555
C8_6 O4_7 1_555 1_555
C9_6 S2_6 1_555 1_555
Zn5_3 O13_7 1_555 1_555
S3_7 O18_7 1_555 1_555
S4_7 O21_7 1_555 1_555
Na2_4 O18_7 1_555 1_555
O13_7 C15_7 1_555 1_555
O26_4 C15_7 1_555 1_555
O15_7 C21_7 1_555 1_555
O19_5 Na1_5 1_555 1_555
O20_7 S3_7 1_555 1_555
O22_7 S4_7 1_555 1_555
O23_7 S4_7 1_555 1_555
C15_7 C16_7 1_555 1_555
C16_7 C17_7 1_555 1_555
C17_7 H7_7 1_555 1_555
C18_7 C16_7 1_555 1_555
C19_7 S3_7 1_555 1_555
C20_7 C18_7 1_555 1_555
C21_7 C19_7 1_555 1_555
C22_7 O15_7 1_555 1_555
C23_7 S4_7 1_555 1_555
Na3_5 O8_6 1_555 1_555
Na4_6 O4_7 1_555 1_555
Na5_7 O15_7 1_555 1_555
O27_7 Na2_4 1_555 1_555
O28_7 Na1_5 1_555 1_555
O29_7 Zn5_3 1_555 1_555
O30_7 Zn3_3 1_555 1_555
O31_5 Na2_4 1_555 1_555
O32_7 Na2_4 1_555 1_555
O33_7 Na1_5 1_555 1_555
O34_6 Na2_4 1_555 1_555
O35_7 Na1_5 1_555 1_555
Na1_5 O9_7 1_555 1_555
O9_7 Na4_6 1_555 1_555
O11_6 Na4_6 1_555 1_555
C3_7 C5_7 1_555 1_555
C6_7 C7_7 1_555 1_555
C8_6 C9_6 1_555 1_555
S3_7 O19_5 1_555 1_555
Na2_4 O20_7 1_555 1_555
O20_7 Na5_7 1_555 1_555
O22_7 Na5_7 1_555 1_555
C17_7 C19_7 1_555 1_555
C20_7 C21_7 1_555 1_555
C22_7 C23_7 1_555 1_555
Na5_7 O33_7 1_555 1_555
O5_7 C14_7 1_555 1_555
O6_7 C14_7 1_555 1_555
H4_7 C10_7 1_555 1_555
H5_6 C11_7 1_555 1_555
C12_7 C10_7 1_555 1_555
H6_7 C12_7 1_555 1_555
C13_7 C11_7 1_555 1_555
C14_7 C13_7 1_555 1_555
Zn7_7 O6_7 1_555 1_555
C12_7 C13_7 1_555 1_555
O5_7 H13_7 1_555 1_555
Zn4_3 O13_8 1_555 1_555
S3_8 O18_8 1_555 1_555
S4_8 O21_8 1_555 1_555
Na3_5 O18_8 1_555 1_555
O13_8 C15_8 1_555 1_555
O26_5 C15_8 1_555 1_555
O15_8 C21_8 1_555 1_555
O16_8 C28_8 1_555 1_555
O17_8 C28_8 1_555 1_555
O20_8 S3_8 1_555 1_555
O22_8 S4_8 1_555 1_555
O23_8 S4_8 1_555 1_555
C15_8 C16_8 1_555 1_555
C16_8 C17_8 1_555 1_555
C17_8 H7_8 1_555 1_555
C18_8 C16_8 1_555 1_555
H8_8 C18_8 1_555 1_555
C19_8 S3_8 1_555 1_555
C20_8 C18_8 1_555 1_555
H9_8 C20_8 1_555 1_555
C21_8 C19_8 1_555 1_555
C22_8 O15_8 1_555 1_555
C23_8 S4_8 1_555 1_555
C24_8 C22_8 1_555 1_555
H10_7 C24_8 1_555 1_555
C25_8 C23_8 1_555 1_555
H11_8 C25_8 1_555 1_555
C26_8 C24_8 1_555 1_555
H12_8 C26_8 1_555 1_555
C27_8 C25_8 1_555 1_555
C28_8 C27_8 1_555 1_555
Zn6_8 O17_8 1_555 1_555
Na5_8 O15_8 1_555 1_555
O27_8 Na3_5 1_555 1_555
O29_8 Zn4_3 1_555 1_555
O32_8 Na3_5 1_555 1_555
O34_7 Na3_5 1_555 1_555
S3_8 O31_5 1_555 1_555
Na3_5 O20_8 1_555 1_555
O20_8 Na5_8 1_555 1_555
O22_8 Na5_8 1_555 1_555
C17_8 C19_8 1_555 1_555
C20_8 C21_8 1_555 1_555
C22_8 C23_8 1_555 1_555
C26_8 C27_8 1_555 1_555
Na5_8 O32_7 1_555 1_555
O16_8 H14_8 1_555 1_555
Na4_6 O32_8 1_555 1_555
Zn5 O13_9 1_555 1_555
S3_9 O18_9 1_555 1_555
S4_9 O21_9 1_555 1_555
O13_9 C15_9 1_555 1_555
O26 C15_9 1_555 1_555
O15_9 C21_9 1_555 1_555
O16_9 C28_9 1_555 1_555
O17_9 C28_9 1_555 1_555
O19_6 Na1_6 1_555 1_555
O20_9 S3_9 1_555 1_555
O22_9 S4_9 1_555 1_555
O23_9 S4_9 1_555 1_555
C15_9 C16_9 1_555 1_555
C16_9 C17_9 1_555 1_555
C17_9 H7_9 1_555 1_555
C18_9 C16_9 1_555 1_555
H8_9 C18_9 1_555 1_555
C19_9 S3_9 1_555 1_555
C20_9 C18_9 1_555 1_555
H9_9 C20_9 1_555 1_555
C21_9 C19_9 1_555 1_555
C22_9 O15_9 1_555 1_555
C23_9 S4_9 1_555 1_555
C24_9 C22_9 1_555 1_555
H10_8 C24_9 1_555 1_555
C25_9 C23_9 1_555 1_555
H11_9 C25_9 1_555 1_555
C26_9 C24_9 1_555 1_555
H12_9 C26_9 1_555 1_555
C27_9 C25_9 1_555 1_555
C28_9 C27_9 1_555 1_555
Zn6_9 O17_9 1_555 1_555
Na5_9 O15_9 1_555 1_555
O28_8 Na1_6 1_555 1_555
O29_9 Zn5 1_555 1_555
O33_8 Na1_6 1_555 1_555
O35_8 Na1_6 1_555 1_555
S3_9 O19_6 1_555 1_555
O20_9 Na5_9 1_555 1_555
O22_9 Na5_9 1_555 1_555
C17_9 C19_9 1_555 1_555
C20_9 C21_9 1_555 1_555
C22_9 C23_9 1_555 1_555
C26_9 C27_9 1_555 1_555
Na5_9 O33_8 1_555 1_555
O16_9 H14_9 1_555 1_555
O27_9 Na2_5 1_555 1_555
O31_6 Na2_5 1_555 1_555
O32_9 Na2_5 1_555 1_555
O34_8 Na2_5 1_555 1_555
S1_8 O7_8 1_555 1_555
S2_7 O10_7 1_555 1_555
O2_8 Zn3 1_555 1_555
O25 C1_8 1_555 1_555
O4_8 C7_8 1_555 1_555
O8_7 S1_8 1_555 1_555
O9_8 S1_8 1_555 1_555
O11_7 S2_7 1_555 1_555
O12_7 S2_7 1_555 1_555
C1_8 O2_8 1_555 1_555
C2_8 C1_8 1_555 1_555
C3_8 C2_8 1_555 1_555
H1_8 C3_8 1_555 1_555
C4_8 C2_8 1_555 1_555
H2_8 C4_8 1_555 1_555
C5_8 S1_8 1_555 1_555
C6_8 C4_8 1_555 1_555
H3_8 C6_8 1_555 1_555
C7_8 C5_8 1_555 1_555
C8_7 O4_8 1_555 1_555
C9_7 S2_7 1_555 1_555
Na4_7 O4_8 1_555 1_555
O30_8 Zn3 1_555 1_555
O9_8 Na4_7 1_555 1_555
O11_7 Na4_7 1_555 1_555
C3_8 C5_8 1_555 1_555
C6_8 C7_8 1_555 1_555
C8_7 C9_7 1_555 1_555
O5_8 C14_8 1_555 1_555
O6_8 C14_8 1_555 1_555
H4_8 C10_8 1_555 1_555
C12_8 C10_8 1_555 1_555
H6_8 C12_8 1_555 1_555
C13_8 C11_8 1_555 1_555
C14_8 C13_8 1_555 1_555
Zn7_8 O6_8 1_555 1_555
Na3_6 O8_8 1_555 1_555
C12_8 C13_8 1_555 1_555
O5_8 H13_8 1_555 1_555
O5_9 C14_9 1_555 1_555
O6_9 C14_9 1_555 1_555
H4_9 C10_9 1_555 1_555
C12_9 C10_9 1_555 1_555
H6_9 C12_9 1_555 1_555
C13_9 C11_9 1_555 1_555
C14_9 C13_9 1_555 1_555
Zn7_9 O6_9 1_555 1_555
C12_9 C13_9 1_555 1_555
O5_9 H13_9 1_555 1_555
S1_9 O7_9 1_555 1_555
S2_8 O10_8 1_555 1_555
Na3_6 O7_9 1_555 1_555
O2_9 Zn4 1_555 1_555
O25_2 C1_9 1_555 1_555
O4_9 C7_9 1_555 1_555
O31_7 S1_9 1_555 1_555
O9_9 S1_9 1_555 1_555
O11_8 S2_8 1_555 1_555
O12_8 S2_8 1_555 1_555
C1_9 O2_9 1_555 1_555
C2_9 C1_9 1_555 1_555
C3_9 C2_9 1_555 1_555
H1_9 C3_9 1_555 1_555
C4_9 C2_9 1_555 1_555
H2_9 C4_9 1_555 1_555
C5_9 S1_9 1_555 1_555
C6_9 C4_9 1_555 1_555
H3_9 C6_9 1_555 1_555
C7_9 C5_9 1_555 1_555
C8_8 O4_9 1_555 1_555
C9_8 S2_8 1_555 1_555
Na4_8 O4_9 1_555 1_555
O28_9 Na3_6 1_555 1_555
O30_9 Zn4 1_555 1_555
O33_9 Na3_6 1_555 1_555
O35_9 Na3_6 1_555 1_555
Na3_6 O9_9 1_555 1_555
O9_9 Na4_8 1_555 1_555
O11_8 Na4_8 1_555 1_555
C3_9 C5_9 1_555 1_555
C6_9 C7_9 1_555 1_555
C8_8 C9_8 1_555 1_555
Zn6_9 O1_8 1_555 1_555
S1_10 O7_10 1_555 1_555
S2_9 O10_9 1_555 1_555
Na5_8 O7_10 1_555 1_555
O1_8 Zn6_8 1_555 1_555
O2_10 Zn6_9 1_555 1_555
O3_6 C1_10 1_555 1_555
O27_7 C7_10 1_555 1_555
O5_10 C14_10 1_555 1_555
O29_6 C14_10 1_555 1_555
O8_9 S1_10 1_555 1_555
O32_7 S1_10 1_555 1_555
O34_6 S2_9 1_555 1_555
O12_9 S2_9 1_555 1_555
C1_10 O2_10 1_555 1_555
C2_10 C1_10 1_555 1_555
C3_10 C2_10 1_555 1_555
H1_10 C3_10 1_555 1_555
C4_10 C2_10 1_555 1_555
H2_10 C4_10 1_555 1_555
C5_10 S1_10 1_555 1_555
C6_10 C4_10 1_555 1_555
H3_10 C6_10 1_555 1_555
C7_10 C5_10 1_555 1_555
C8_9 O27_7 1_555 1_555
C9_9 S2_9 1_555 1_555
C10_10 C8_9 1_555 1_555
H4_10 C10_10 1_555 1_555
C11_10 C9_9 1_555 1_555
H5_9 C11_10 1_555 1_555
C12_10 C10_10 1_555 1_555
H6_10 C12_10 1_555 1_555
C13_10 C11_10 1_555 1_555
C14_10 C13_10 1_555 1_555
S3_10 O18_10 1_555 1_555
Na4_6 O18_10 1_555 1_555
O27_8 C21_10 1_555 1_555
O19_7 Na5_8 1_555 1_555
O32_8 S3_10 1_555 1_555
C17_10 H7_10 1_555 1_555
C19_10 S3_10 1_555 1_555
C21_10 C19_10 1_555 1_555
C22_10 O27_8 1_555 1_555
C24_10 C22_10 1_555 1_555
H10_9 C24_10 1_555 1_555
C26_10 C24_10 1_555 1_555
H12_10 C26_10 1_555 1_555
Zn7_7 O3_6 1_555 1_555
Na5_7 O8_9 1_555 1_555
O26_6 Zn6_9 1_555 1_555
O31_8 Na4_6 1_555 1_555
C3_10 C5_10 1_555 1_555
C6_10 C7_10 1_555 1_555
C8_9 C9_9 1_555 1_555
C12_10 C13_10 1_555 1_555
S3_10 O19_7 1_555 1_555
C17_10 C19_10 1_555 1_555
O5_10 H13_10 1_555 1_555
Zn7_8 O13_10 1_555 1_555
S4_10 O21_10 1_555 1_555
O13_10 C15_10 1_555 1_555
O14_5 C15_10 1_555 1_555
O16_10 C28_10 1_555 1_555
O30_5 C28_10 1_555 1_555
O23_10 S4_10 1_555 1_555
C15_10 C16_10 1_555 1_555
C18_10 C16_10 1_555 1_555
H8_10 C18_10 1_555 1_555
C20_10 C18_10 1_555 1_555
H9_10 C20_10 1_555 1_555
C23_10 S4_10 1_555 1_555
C25_10 C23_10 1_555 1_555
H11_10 C25_10 1_555 1_555
C27_10 C25_10 1_555 1_555
C28_10 C27_10 1_555 1_555
Zn6_7 O14_5 1_555 1_555
O24_5 Zn7_8 1_555 1_555
O25_5 Zn7_8 1_555 1_555
Zn7_9 O13_11 1_555 1_555
S4_11 O21_11 1_555 1_555
O13_11 C15_11 1_555 1_555
O14_6 C15_11 1_555 1_555
O16_11 C28_11 1_555 1_555
O30_6 C28_11 1_555 1_555
O23_11 S4_11 1_555 1_555
C15_11 C16_11 1_555 1_555
C18_11 C16_11 1_555 1_555
H8_11 C18_11 1_555 1_555
C20_11 C18_11 1_555 1_555
H9_11 C20_11 1_555 1_555
C23_11 S4_11 1_555 1_555
C25_11 C23_11 1_555 1_555
H11_11 C25_11 1_555 1_555
C27_11 C25_11 1_555 1_555
C28_11 C27_11 1_555 1_555
Zn6_8 O14_6 1_555 1_555
O24_6 Zn7_9 1_555 1_555
O25_6 Zn7_9 1_555 1_555
S3_11 O18_11 1_555 1_555
Na5_7 O18_11 1_555 1_555
O28_7 C21_11 1_555 1_555
O33_7 S3_11 1_555 1_555
C17_11 H7_11 1_555 1_555
C19_11 S3_11 1_555 1_555
C21_11 C19_11 1_555 1_555
C22_11 O28_7 1_555 1_555
C24_11 C22_11 1_555 1_555
H10_10 C24_11 1_555 1_555
C26_11 C24_11 1_555 1_555
H12_11 C26_11 1_555 1_555
S3_11 O31_8 1_555 1_555
C17_11 C19_11 1_555 1_555
O24_5 Zn7_7 1_555 1_555
O24_6 Zn6_7 1_555 1_555
Zn6_4 O1_9 1_555 1_555
S1_11 O7_11 1_555 1_555
S2_10 O10_10 1_555 1_555
Na4_5 O7_11 1_555 1_555
O1_9 Zn7_6 1_555 1_555
O2_11 Zn6_4 1_555 1_555
O3_7 C1_11 1_555 1_555
O27_6 C7_11 1_555 1_555
O5_11 C14_11 1_555 1_555
O29_7 C14_11 1_555 1_555
O8_10 S1_11 1_555 1_555
O32_6 S1_11 1_555 1_555
O34_5 S2_10 1_555 1_555
O12_10 S2_10 1_555 1_555
C1_11 O2_11 1_555 1_555
C2_11 C1_11 1_555 1_555
C3_11 C2_11 1_555 1_555
H1_11 C3_11 1_555 1_555
C4_11 C2_11 1_555 1_555
H2_11 C4_11 1_555 1_555
C5_11 S1_11 1_555 1_555
C6_11 C4_11 1_555 1_555
H3_11 C6_11 1_555 1_555
C7_11 C5_11 1_555 1_555
C8_10 O27_6 1_555 1_555
C9_10 S2_10 1_555 1_555
C10_11 C8_10 1_555 1_555
H4_11 C10_11 1_555 1_555
C11_11 C9_10 1_555 1_555
H5_10 C11_11 1_555 1_555
C12_11 C10_11 1_555 1_555
H6_11 C12_11 1_555 1_555
C13_11 C11_11 1_555 1_555
C14_11 C13_11 1_555 1_555
S3_12 O18_12 1_555 1_555
Na4_4 O18_12 1_555 1_555
O28_6 C21_12 1_555 1_555
O19_8 Na4_5 1_555 1_555
O33_6 S3_12 1_555 1_555
C17_12 H7_12 1_555 1_555
C19_12 S3_12 1_555 1_555
C21_12 C19_12 1_555 1_555
C22_12 O28_6 1_555 1_555
C24_12 C22_12 1_555 1_555
H10_11 C24_12 1_555 1_555
C26_12 C24_12 1_555 1_555
H12_12 C26_12 1_555 1_555
Zn7_5 O3_7 1_555 1_555
Na5_6 O8_10 1_555 1_555
O26_7 Zn6_4 1_555 1_555
O31_9 Na4_4 1_555 1_555
C3_11 C5_11 1_555 1_555
C6_11 C7_11 1_555 1_555
C8_10 C9_10 1_555 1_555
C12_11 C13_11 1_555 1_555
S3_12 O19_8 1_555 1_555
C17_12 C19_12 1_555 1_555
O5_11 H13_11 1_555 1_555
Zn7_4 O13_12 1_555 1_555
S4_12 O21_12 1_555 1_555
O13_12 C15_12 1_555 1_555
O14_7 C15_12 1_555 1_555
O16_12 C28_12 1_555 1_555
O30_7 C28_12 1_555 1_555
O23_12 S4_12 1_555 1_555
C15_12 C16_12 1_555 1_555
C18_12 C16_12 1_555 1_555
H8_12 C18_12 1_555 1_555
C20_12 C18_12 1_555 1_555
H9_12 C20_12 1_555 1_555
C23_12 S4_12 1_555 1_555
C25_12 C23_12 1_555 1_555
H11_12 C25_12 1_555 1_555
C27_12 C25_12 1_555 1_555
C28_12 C27_12 1_555 1_555
Zn6_6 O14_7 1_555 1_555
O24_7 Zn7_4 1_555 1_555
O25_7 Zn7_4 1_555 1_555
Zn6_5 O1_10 1_555 1_555
S2_11 O10_11 1_555 1_555
O1_10 Zn6_6 1_555 1_555
O2_12 Zn6_5 1_555 1_555
O3_8 C1_12 1_555 1_555
O5_12 C14_12 1_555 1_555
O29_8 C14_12 1_555 1_555
O12_11 S2_11 1_555 1_555
C1_12 O2_12 1_555 1_555
C2_12 C1_12 1_555 1_555
C4_12 C2_12 1_555 1_555
H2_12 C4_12 1_555 1_555
C6_12 C4_12 1_555 1_555
H3_12 C6_12 1_555 1_555
C9_11 S2_11 1_555 1_555
C11_12 C9_11 1_555 1_555
H5_11 C11_12 1_555 1_555
C13_12 C11_12 1_555 1_555
C14_12 C13_12 1_555 1_555
Zn7_6 O3_8 1_555 1_555
O26_8 Zn6_5 1_555 1_555
S1_12 O7_12 1_555 1_555
Na5_6 O7_12 1_555 1_555
O28_5 C7_12 1_555 1_555
O31_9 S1_12 1_555 1_555
O33_5 S1_12 1_555 1_555
H1_12 C3_12 1_555 1_555
C5_12 S1_12 1_555 1_555
C7_12 C5_12 1_555 1_555
C8_11 O28_5 1_555 1_555
C10_12 C8_11 1_555 1_555
H4_12 C10_12 1_555 1_555
C12_12 C10_12 1_555 1_555
H6_12 C12_12 1_555 1_555
C3_12 C5_12 1_555 1_555
O24_7 Zn7_5 1_555 1_555
Na5_4 O8_11 1_555 1_555
O5_13 C14_13 1_555 1_555
O29_3 C14_13 1_555 1_555
C12_13 C10_13 1_555 1_555
H6_13 C12_13 1_555 1_555
C13_13 C11_13 1_555 1_555
C14_13 C13_13 1_555 1_555
C12_13 C13_13 1_555 1_555
O5_13 H13_13 1_555 1_555
S1_13 O7_13 1_555 1_555
O2_13 Zn6_6 1_555 1_555
O25_7 C1_13 1_555 1_555
O27_4 C7_13 1_555 1_555
O8_12 S1_13 1_555 1_555
O32_4 S1_13 1_555 1_555
C1_13 O2_13 1_555 1_555
C2_13 C1_13 1_555 1_555
C3_13 C2_13 1_555 1_555
H1_13 C3_13 1_555 1_555
C4_13 C2_13 1_555 1_555
H2_13 C4_13 1_555 1_555
C5_13 S1_13 1_555 1_555
C6_13 C4_13 1_555 1_555
H3_13 C6_13 1_555 1_555
C7_13 C5_13 1_555 1_555
C3_13 C5_13 1_555 1_555
C6_13 C7_13 1_555 1_555
Zn7_5 O13_13 1_555 1_555
S3_13 O18_13 1_555 1_555
O13_13 C15_13 1_555 1_555
O26_7 C15_13 1_555 1_555
O27_5 C21_13 1_555 1_555
O19_9 Na5_5 1_555 1_555
O32_5 S3_13 1_555 1_555
C15_13 C16_13 1_555 1_555
C16_13 C17_13 1_555 1_555
C17_13 H7_13 1_555 1_555
C18_13 C16_13 1_555 1_555
H8_13 C18_13 1_555 1_555
C19_13 S3_13 1_555 1_555
C20_13 C18_13 1_555 1_555
H9_13 C20_13 1_555 1_555
C21_13 C19_13 1_555 1_555
S3_13 O19_9 1_555 1_555
C17_13 C19_13 1_555 1_555
C20_13 C21_13 1_555 1_555
S4_13 O21_13 1_555 1_555
O16_13 C28_13 1_555 1_555
O30_2 C28_13 1_555 1_555
O34_4 S4_13 1_555 1_555
O23_13 S4_13 1_555 1_555
C23_13 S4_13 1_555 1_555
C24_13 C22_13 1_555 1_555
C25_13 C23_13 1_555 1_555
H11_13 C25_13 1_555 1_555
C26_13 C24_13 1_555 1_555
H12_13 C26_13 1_555 1_555
C27_13 C25_13 1_555 1_555
C28_13 C27_13 1_555 1_555
C22_13 C23_13 1_555 1_555
C26_13 C27_13 1_555 1_555
O16_13 H14_13 1_555 1_555
Zn7_6 O13_14 1_555 1_555
S3_14 O18_14 1_555 1_555
Na5_4 O18_14 1_555 1_555
O13_14 C15_14 1_555 1_555
O26_8 C15_14 1_555 1_555
O28_4 C21_14 1_555 1_555
O33_4 S3_14 1_555 1_555
C15_14 C16_14 1_555 1_555
C16_14 C17_14 1_555 1_555
C17_14 H7_14 1_555 1_555
C18_14 C16_14 1_555 1_555
H8_14 C18_14 1_555 1_555
C19_14 S3_14 1_555 1_555
C20_14 C18_14 1_555 1_555
H9_14 C20_14 1_555 1_555
C21_14 C19_14 1_555 1_555
S3_14 O31_10 1_555 1_555
C17_14 C19_14 1_555 1_555
C20_14 C21_14 1_555 1_555
S4_14 O21_14 1_555 1_555
O35_4 S4_14 1_555 1_555
O23_14 S4_14 1_555 1_555
C23_14 S4_14 1_555 1_555
C22_14 C23_14 1_555 1_555
O16_14 C28_14 1_555 1_555
O30_3 C28_14 1_555 1_555
C26_14 C24_14 1_555 1_555
H12_14 C26_14 1_555 1_555
C27_14 C25_14 1_555 1_555
C28_14 C27_14 1_555 1_555
C26_14 C27_14 1_555 1_555
O16_14 H14_14 1_555 1_555
O5_14 C14_14 1_555 1_555
O29_4 C14_14 1_555 1_555
H4_14 C10_14 1_555 1_555
H5_12 C11_14 1_555 1_555
C12_14 C10_14 1_555 1_555
H6_14 C12_14 1_555 1_555
C13_14 C11_14 1_555 1_555
C14_14 C13_14 1_555 1_555
C12_14 C13_14 1_555 1_555
O5_14 H13_14 1_555 1_555
Zn6 O1_11 1_555 1_555
S1_14 O7_14 1_555 1_555
S2_12 O10_12 1_555 1_555
Na4_3 O7_14 1_555 1_555
O2_14 Zn6 1_555 1_555
O3_9 C1_14 1_555 1_555
O27_3 C7_14 1_555 1_555
O8_13 S1_14 1_555 1_555
O32_3 S1_14 1_555 1_555
O34_3 S2_12 1_555 1_555
O12_12 S2_12 1_555 1_555
C1_14 O2_14 1_555 1_555
C2_14 C1_14 1_555 1_555
C3_14 C2_14 1_555 1_555
H1_14 C3_14 1_555 1_555
C4_14 C2_14 1_555 1_555
C5_14 S1_14 1_555 1_555
C6_14 C4_14 1_555 1_555
C7_14 C5_14 1_555 1_555
C8_12 O27_3 1_555 1_555
C9_12 S2_12 1_555 1_555
Zn7 O13_15 1_555 1_555
S3_15 O18_15 1_555 1_555
S4_15 O21_15 1_555 1_555
Na4_2 O18_15 1_555 1_555
O13_15 C15_15 1_555 1_555
O14_8 C15_15 1_555 1_555
O28_3 C21_15 1_555 1_555
O19_10 Na4_3 1_555 1_555
O33_3 S3_15 1_555 1_555
O35_3 S4_15 1_555 1_555
O23_15 S4_15 1_555 1_555
C15_15 C16_15 1_555 1_555
C16_15 C17_15 1_555 1_555
C17_15 H7_15 1_555 1_555
C18_15 C16_15 1_555 1_555
C19_15 S3_15 1_555 1_555
C20_15 C18_15 1_555 1_555
C21_15 C19_15 1_555 1_555
C22_15 O28_3 1_555 1_555
C23_15 S4_15 1_555 1_555
Na5_3 O8_13 1_555 1_555
O24_8 Zn7 1_555 1_555
O31_11 Na4_2 1_555 1_555
C3_14 C5_14 1_555 1_555
C6_14 C7_14 1_555 1_555
C8_12 C9_12 1_555 1_555
S3_15 O19_10 1_555 1_555
C17_15 C19_15 1_555 1_555
C20_15 C21_15 1_555 1_555
C22_15 C23_15 1_555 1_555
O1_12 Zn7_3 1_555 1_555
O16_15 C28_15 1_555 1_555
O30_4 C28_15 1_555 1_555
H10_13 C24_15 1_555 1_555
H11_15 C25_15 1_555 1_555
C26_15 C24_15 1_555 1_555
H12_15 C26_15 1_555 1_555
C27_15 C25_15 1_555 1_555
C28_15 C27_15 1_555 1_555
C26_15 C27_15 1_555 1_555
O16_15 H14_15 1_555 1_555
O1_13 Zn6_3 1_555 1_555
Zn6_2 O1_14 1_555 1_555
S1_15 O7_15 1_555 1_555
S2_13 O10_13 1_555 1_555
Na5_3 O7_15 1_555 1_555
O2_15 Zn6_2 1_555 1_555
O3_10 C1_15 1_555 1_555
O28_2 C7_15 1_555 1_555
O5_15 C14_15 1_555 1_555
O29_5 C14_15 1_555 1_555
O31_11 S1_15 1_555 1_555
O33_2 S1_15 1_555 1_555
O35_2 S2_13 1_555 1_555
O12_13 S2_13 1_555 1_555
C1_15 O2_15 1_555 1_555
C2_15 C1_15 1_555 1_555
C3_15 C2_15 1_555 1_555
H1_15 C3_15 1_555 1_555
C4_15 C2_15 1_555 1_555
H2_15 C4_15 1_555 1_555
C5_15 S1_15 1_555 1_555
C6_15 C4_15 1_555 1_555
H3_15 C6_15 1_555 1_555
C7_15 C5_15 1_555 1_555
C8_13 O28_2 1_555 1_555
C9_13 S2_13 1_555 1_555
C10_15 C8_13 1_555 1_555
H4_15 C10_15 1_555 1_555
C11_15 C9_13 1_555 1_555
H5_13 C11_15 1_555 1_555
C12_15 C10_15 1_555 1_555
H6_15 C12_15 1_555 1_555
C13_15 C11_15 1_555 1_555
C14_15 C13_15 1_555 1_555
Zn7_3 O3_10 1_555 1_555
O26_10 Zn6_2 1_555 1_555
C3_15 C5_15 1_555 1_555
C6_15 C7_15 1_555 1_555
C8_13 C9_13 1_555 1_555
C12_15 C13_15 1_555 1_555
O5_15 H13_15 1_555 1_555
O24_8 Zn7_2 1_555 1_555
O5_16 C14_16 1_555 1_555
O29_9 C14_16 1_555 1_555
H4_16 C10_16 1_555 1_555
H5_14 C11_16 1_555 1_555
C12_16 C10_16 1_555 1_555
H6_16 C12_16 1_555 1_555
C13_16 C11_16 1_555 1_555
C14_16 C13_16 1_555 1_555
C12_16 C13_16 1_555 1_555
O5_16 H13_16 1_555 1_555
S1_16 O7_16 1_555 1_555
S2_14 O10_14 1_555 1_555
Na5_2 O7_16 1_555 1_555
O2_16 Zn6_3 1_555 1_555
O25_8 C1_16 1_555 1_555
O27 C7_16 1_555 1_555
O8_14 S1_16 1_555 1_555
O32 S1_16 1_555 1_555
O34 S2_14 1_555 1_555
O12_14 S2_14 1_555 1_555
C1_16 O2_16 1_555 1_555
C2_16 C1_16 1_555 1_555
C3_16 C2_16 1_555 1_555
H1_16 C3_16 1_555 1_555
C4_16 C2_16 1_555 1_555
C5_16 S1_16 1_555 1_555
C6_16 C4_16 1_555 1_555
C7_16 C5_16 1_555 1_555
C8_14 O27 1_555 1_555
C9_14 S2_14 1_555 1_555
Zn7_2 O13_16 1_555 1_555
S3_16 O18_16 1_555 1_555
S4_16 O21_16 1_555 1_555
Na4 O18_16 1_555 1_555
O13_16 C15_16 1_555 1_555
O26_9 C15_16 1_555 1_555
O27_2 C21_16 1_555 1_555
O19_11 Na5_2 1_555 1_555
O32_2 S3_16 1_555 1_555
O34_2 S4_16 1_555 1_555
O23_16 S4_16 1_555 1_555
C15_16 C16_16 1_555 1_555
C16_16 C17_16 1_555 1_555
C17_16 H7_16 1_555 1_555
C18_16 C16_16 1_555 1_555
C19_16 S3_16 1_555 1_555
C20_16 C18_16 1_555 1_555
C21_16 C19_16 1_555 1_555
C22_16 O27_2 1_555 1_555
C23_16 S4_16 1_555 1_555
Na5 O8_14 1_555 1_555
O31_12 Na4 1_555 1_555
C3_16 C5_16 1_555 1_555
C6_16 C7_16 1_555 1_555
C8_14 C9_14 1_555 1_555
S3_16 O19_11 1_555 1_555
C17_16 C19_16 1_555 1_555
C20_16 C21_16 1_555 1_555
C22_16 C23_16 1_555 1_555
O16_16 C28_16 1_555 1_555
O30_8 C28_16 1_555 1_555
H10_14 C24_16 1_555 1_555
H11_16 C25_16 1_555 1_555
C26_16 C24_16 1_555 1_555
H12_16 C26_16 1_555 1_555
C27_16 C25_16 1_555 1_555
C28_16 C27_16 1_555 1_555
C26_16 C27_16 1_555 1_555
O16_16 H14_16 1_555 1_555
Zn7_3 O13_17 1_555 1_555
S3_17 O18_17 1_555 1_555
S4_17 O21_17 1_555 1_555
Na5 O18_17 1_555 1_555
O13_17 C15_17 1_555 1_555
O26_10 C15_17 1_555 1_555
O28 C21_17 1_555 1_555
O16_17 C28_17 1_555 1_555
O30_9 C28_17 1_555 1_555
O33 S3_17 1_555 1_555
O35 S4_17 1_555 1_555
O23_17 S4_17 1_555 1_555
C15_17 C16_17 1_555 1_555
C16_17 C17_17 1_555 1_555
C17_17 H7_17 1_555 1_555
C18_17 C16_17 1_555 1_555
H8_17 C18_17 1_555 1_555
C19_17 S3_17 1_555 1_555
C20_17 C18_17 1_555 1_555
H9_17 C20_17 1_555 1_555
C21_17 C19_17 1_555 1_555
C22_17 O28 1_555 1_555
C23_17 S4_17 1_555 1_555
C24_17 C22_17 1_555 1_555
H10_15 C24_17 1_555 1_555
C25_17 C23_17 1_555 1_555
H11_17 C25_17 1_555 1_555
C26_17 C24_17 1_555 1_555
H12_17 C26_17 1_555 1_555
C27_17 C25_17 1_555 1_555
C28_17 C27_17 1_555 1_555
S3_17 O31_12 1_555 1_555
C17_17 C19_17 1_555 1_555
C20_17 C21_17 1_555 1_555
C22_17 C23_17 1_555 1_555
C26_17 C27_17 1_555 1_555
O16_17 H14_17 1_555 1_555
O5_17 C14_17 1_555 1_555
O29 C14_17 1_555 1_555
H4_17 C10_17 1_555 1_555
C12_17 C10_17 1_555 1_555
H6_17 C12_17 1_555 1_555
C13_17 C11_17 1_555 1_555
C14_17 C13_17 1_555 1_555
Na5_9 O8_15 1_555 1_555
C12_17 C13_17 1_555 1_555
O5_17 H13_17 1_555 1_555
S1_17 O7_17 1_555 1_555
S2_15 O10_15 1_555 1_555
O2_17 Zn6_7 1_555 1_555
O25_5 C1_17 1_555 1_555
O27_9 C7_17 1_555 1_555
O8_16 S1_17 1_555 1_555
O32_9 S1_17 1_555 1_555
O34_8 S2_15 1_555 1_555
O12_15 S2_15 1_555 1_555
C1_17 O2_17 1_555 1_555
C2_17 C1_17 1_555 1_555
C3_17 C2_17 1_555 1_555
H1_17 C3_17 1_555 1_555
C4_17 C2_17 1_555 1_555
H2_17 C4_17 1_555 1_555
C5_17 S1_17 1_555 1_555
C6_17 C4_17 1_555 1_555
H3_17 C6_17 1_555 1_555
C7_17 C5_17 1_555 1_555
C8_15 O27_9 1_555 1_555
C9_15 S2_15 1_555 1_555
C3_17 C5_17 1_555 1_555
C6_17 C7_17 1_555 1_555
C8_15 C9_15 1_555 1_555
O31_14 Na4_7 1_555 1_555
Zn7_7 O13_18 1_555 1_555
S3_18 O18_18 1_555 1_555
S4_18 O21_18 1_555 1_555
O13_18 C15_18 1_555 1_555
O26_6 C15_18 1_555 1_555
O28_9 C21_18 1_555 1_555
O16_18 C28_18 1_555 1_555
O30 C28_18 1_555 1_555
O19_12 Na4_8 1_555 1_555
O33_9 S3_18 1_555 1_555
O35_9 S4_18 1_555 1_555
O23_18 S4_18 1_555 1_555
C15_18 C16_18 1_555 1_555
C16_18 C17_18 1_555 1_555
C17_18 H7_18 1_555 1_555
C18_18 C16_18 1_555 1_555
H8_18 C18_18 1_555 1_555
C19_18 S3_18 1_555 1_555
C20_18 C18_18 1_555 1_555
H9_18 C20_18 1_555 1_555
C21_18 C19_18 1_555 1_555
C22_18 O28_9 1_555 1_555
C23_18 S4_18 1_555 1_555
C24_18 C22_18 1_555 1_555
H10_16 C24_18 1_555 1_555
C25_18 C23_18 1_555 1_555
H11_18 C25_18 1_555 1_555
C26_18 C24_18 1_555 1_555
H12_18 C26_18 1_555 1_555
C27_18 C25_18 1_555 1_555
C28_18 C27_18 1_555 1_555
S3_18 O19_12 1_555 1_555
C17_18 C19_18 1_555 1_555
C20_18 C21_18 1_555 1_555
C22_18 C23_18 1_555 1_555
C26_18 C27_18 1_555 1_555
O16_18 H14_18 1_555 1_555
S1_18 O7_18 1_555 1_555
S2_16 O10_16 1_555 1_555
Na5_9 O7_18 1_555 1_555
O2_18 Zn6_8 1_555 1_555
O25_6 C1_18 1_555 1_555
O28_8 C7_18 1_555 1_555
O31_13 S1_18 1_555 1_555
O33_8 S1_18 1_555 1_555
O35_8 S2_16 1_555 1_555
O12_16 S2_16 1_555 1_555
C1_18 O2_18 1_555 1_555
C2_18 C1_18 1_555 1_555
C3_18 C2_18 1_555 1_555
H1_18 C3_18 1_555 1_555
C4_18 C2_18 1_555 1_555
H2_18 C4_18 1_555 1_555
C5_18 S1_18 1_555 1_555
C6_18 C4_18 1_555 1_555
H3_18 C6_18 1_555 1_555
C7_18 C5_18 1_555 1_555
C8_16 O28_8 1_555 1_555
C9_16 S2_16 1_555 1_555
C3_18 C5_18 1_555 1_555
C6_18 C7_18 1_555 1_555
C8_16 C9_16 1_555 1_555
O5_18 C14_18 1_555 1_555
O29_2 C14_18 1_555 1_555
H4_18 C10_18 1_555 1_555
C12_18 C10_18 1_555 1_555
H6_18 C12_18 1_555 1_555
C13_18 C11_18 1_555 1_555
C14_18 C13_18 1_555 1_555
C12_18 C13_18 1_555 1_555
O5_18 H13_18 1_555 1_555
S2_17 O10_17 1_555 1_555
O11_9 S2_17 1_555 1_555
O12_17 S2_17 1_555 1_555
C9_17 S2_17 1_555 1_555
O11_9 Na4_9 1_555 1_555
C8_17 C9_17 1_555 1_555
O31_15 Na4_9 1_555 1_555
O31_16 Na2_6 1_555 1_555
O34_9 Na2_6 1_555 1_555
S2_18 O10_18 1_555 1_555
O34_9 S2_18 1_555 1_555
O12_18 S2_18 1_555 1_555
C9_18 S2_18 1_555 1_555
C8_18 C9_18 1_555 1_555

#END
