
###############################################################################
#
# This file contains modified crystal structure data generated from the
# MOF subset of the Cambridge Structural Database (CSD) v543 
# hosted by the Cambridge Crystallographic Data Centre (CCDC).
#
# This work is licensed under the Creative Commons
# Attribution-NonCommercial-ShareAlike 4.0 International License.
# To view a copy of this license, visit
# http://creativecommons.org/licenses/by-nc-sa/4.0/
# or send a letter to
# Creative Commons, PO Box 1866, Mountain View, CA 94042, USA.
#
# CIF created using the CSD Python API on 29 September 2022
# The structure has been converted into the P1 space group
# The structure has a 3D framework
# The original CSD entry DACDIY is in the monoclinic crystal system
# The framework has been calculated to contain at least 10.0% void space
# The void calculation uses a probe of radius 1.32A, grid spacing 0.4
# The framework is charged, counterions have been retained in the structure
# H atom positions have been added when not included in the experimental data
#
###############################################################################

data_DACDIY
_chemical_formula_moiety         '(C140 H144 K12 N12 O100 S16 Zn8 2+)n'
_symmetry_cell_setting           triclinic
_symmetry_space_group_name_H-M   'P 1'
_symmetry_Int_Tables_number      1
_space_group_name_Hall           'P 1'
loop_
_symmetry_equiv_pos_site_id
_symmetry_equiv_pos_as_xyz
1 x,y,z
_cell_length_a                   23.142(3)
_cell_length_b                   12.3715(13)
_cell_length_c                   25.092(3)
_cell_angle_alpha                90
_cell_angle_beta                 107.659(2)
_cell_angle_gamma                90
_cell_volume                     6845.36
loop_
_atom_site_label
_atom_site_type_symbol
_atom_site_fract_x
_atom_site_fract_y
_atom_site_fract_z
K3 K 0.15744(8) 0.26707(13) 0.18930(7)
O12 O 0.0282(2) 0.4799(4) 0.59996(19)
O13 O 0.11541(18) 0.4041(4) 0.60521(17)
O15 O 0.1033(2) 0.1136(4) 0.2228(2)
O25 O 0.1696(6) 0.3761(10) 0.2937(5)
C15 C 0.0585(3) 0.4154(5) 0.5822(2)
C16 C 0.0305(3) 0.3493(5) 0.5305(2)
C20 C 0.0393(3) 0.2209(5) 0.4618(3)
H8 H 0.063154 0.175336 0.447743
C21 C 0.0652(3) 0.2803(5) 0.5095(3)
H9 H 0.106579 0.273981 0.527751
C25 C 0.0425(3) 0.0741(5) 0.2792(3)
C26 C 0.0344(3) 0.1812(6) 0.2883(3)
H11 H 0.049907 0.233138 0.269570
C27 C 0.0034(3) 0.2140(6) 0.3252(3)
C28 C 0.0773(3) 0.0407(6) 0.2407(3)
Zn7 Zn 0.12399(3) 0.51310(6) 0.66806(3)
K4 K 0.22232(7) 0.42744(12) 0.58321(6)
K9 K 0.15744(8) 0.23293(13) 0.68930(7)
O31 O 0.2492(2) 0.3962(4) 0.17610(19)
O32 O 0.20417(18) 0.2879(4) 0.09387(19)
O33 O 0.21538(17) 0.0328(3) 0.20007(17)
O36 O 0.11541(18) 0.0959(4) 0.10521(17)
O39 O 0.1044(2) 0.4519(4) 0.1307(2)
O40 O 0.0298(3) 0.3268(4) 0.1419(2)
O41 O 0.0062(2) 0.0543(4) 0.56068(19)
H35 H 0.193274 0.330103 0.325202
H36 H 0.190968 0.445929 0.294375
O16 O 0.0802(2) 0.9433(4) 0.22665(19)
C24 C 0.0183(3) 0.9971(5) 0.3062(2)
H10 H 0.022321 0.924069 0.299168
Zn6 Zn 0.12399(3) 0.98690(6) 0.16806(3)
K6 K 0.10635(8) 0.98082(15) 0.52530(7)
Zn4 Zn 0.54098(3) 0.09567(5) 0.50575(2)
K5 K 0.89365(8) 0.01918(15) 0.47470(7)
O27 O 0.4238(2) 0.0151(4) 0.53576(19)
Zn1 Zn 0.45902(3) 0.90433(5) 0.49425(2)
Zn2 Zn 0.87601(3) 0.48690(6) 0.33194(3)
S1 S 0.75446(7) 0.87500(13) 0.38198(7)
S2 S 0.72803(7) 0.47140(12) 0.28243(6)
S3 S 0.86364(6) 0.31169(12) 0.42082(6)
K1 K 0.77768(7) 0.57256(12) 0.41679(6)
O1 O 0.51576(19) 0.8422(4) 0.45467(18)
O2 O 0.5762(2) 0.9849(4) 0.46424(19)
O3 O 0.69006(16) 0.6830(3) 0.31916(15)
O4 O 0.5207(2) 0.6315(4) 0.06902(17)
O5 O 0.5802(2) 0.4871(4) 0.07717(17)
O6 O 0.7644(2) 0.9717(4) 0.4155(2)
O7 O 0.7508(2) 0.8962(4) 0.32390(19)
O8 O 0.79583(18) 0.7879(4) 0.40613(19)
O9 O 0.7083(2) 0.4430(4) 0.32958(18)
O10 O 0.78462(17) 0.5328(3) 0.29993(17)
O11 O 0.7304(2) 0.3829(4) 0.24572(19)
O14 O 0.94851(18) 0.1680(4) 0.38907(18)
O20 O 0.83786(18) 0.2056(3) 0.42086(18)
O21 O 0.84139(18) 0.3911(4) 0.45097(18)
O22 O 0.85894(18) 0.3438(3) 0.36286(16)
O23 O 0.7155(5) 0.5903(10) 0.4913(4)
O24 O 0.8561(4) 0.0156(14) 0.5665(4)
O26 O 0.4014(2) 0.7843(4) 0.48756(19)
C1 C 0.5593(3) 0.8919(5) 0.4469(2)
C2 C 0.5939(2) 0.8368(5) 0.4126(2)
C3 C 0.6490(3) 0.8762(5) 0.4107(2)
H1 H 0.664707 0.938426 0.430624
C4 C 0.6812(2) 0.8259(5) 0.3800(2)
C5 C 0.6569(2) 0.7357(5) 0.3491(2)
C6 C 0.6026(3) 0.6928(5) 0.3512(2)
H2 H 0.586737 0.631125 0.330786
C7 C 0.5722(3) 0.7423(5) 0.3839(2)
H3 H 0.536549 0.711778 0.386831
C8 C 0.6599(2) 0.6598(5) 0.2639(2)
C9 C 0.6734(2) 0.5638(4) 0.2414(2)
C10 C 0.6434(2) 0.5377(4) 0.1862(2)
H4 H 0.652759 0.473797 0.171108
C11 C 0.5992(2) 0.6065(5) 0.1531(2)
C12 C 0.5887(3) 0.7043(5) 0.1757(2)
H5 H 0.560737 0.752426 0.153513
C13 C 0.6191(3) 0.7314(5) 0.2302(2)
H6 H 0.612045 0.797957 0.244359
C14 C 0.5643(3) 0.5732(5) 0.0950(2)
C17 C 0.9689(3) 0.3573(5) 0.5036(2)
H7 H 0.945272 0.402975 0.517838
C18 C 0.9423(2) 0.2988(5) 0.4560(2)
C19 C 0.9782(3) 0.2289(5) 0.4351(2)
C22 C 0.9813(3) 0.1369(5) 0.3534(2)
C23 C 0.9879(3) 0.0285(5) 0.3442(2)
H12 H 0.997688 0.287121 0.330662
C29 C 0.3797(6) 0.7455(10) 0.5189(6)
C30 C 0.3793(8) 0.6094(14) 0.5910(6)
H13 H 0.402361 0.618173 0.630137
H14 H 0.370507 0.533641 0.582419
C31 C 0.3186(7) 0.6859(12) 0.5720(6)
H15 H 0.282644 0.644451 0.553258
H16 H 0.312326 0.723862 0.603639
C32 C 0.2929(9) 0.8291(16) 0.5071(9)
H17 H 0.259710 0.832133 0.522560
H18 H 0.311634 0.898953 0.509962
H19 H 0.278109 0.808053 0.468539
C33 C 0.4616(8) 0.5983(15) 0.5473(8)
H20 H 0.477086 0.638769 0.521923
H21 H 0.492660 0.591371 0.582582
H22 H 0.449511 0.527710 0.532036
N1 N 0.4060(6) 0.6581(11) 0.5558(6)
N2 N 0.3342(6) 0.7558(10) 0.5358(5)
Zn3 Zn 0.54098(3) 0.40433(5) 0.00575(2)
K8 K 0.84256(8) 0.76707(13) 0.31070(7)
O28 O 0.5207(2) 0.8685(4) 0.56902(17)
O29 O 0.4198(2) 0.9871(4) 0.42283(17)
O34 O 0.9718(2) 0.5201(4) 0.40004(19)
O35 O 0.88459(18) 0.5959(4) 0.39479(17)
O37 O 0.8967(2) 0.6136(4) 0.2772(2)
O38 O 0.9198(2) 0.4433(4) 0.27335(19)
H31 H 0.67582 0.553054 0.476611
H32 H 0.739086 0.556512 0.527207
H33 H 0.821207 0.0655474 0.561134
Zn5 Zn 0.45902(3) 0.59567(5) 0.99425(2)
S4 S 0.96012(8) 0.92868(14) 0.38079(7)
O17 O 0.8956(2) 0.9519(4) 0.3693(2)
O18 O 0.9702(3) 0.8268(4) 0.3581(2)
O19 O 0.9938(2) 0.9457(4) 0.43932(19)
H34 H 0.843472 0.941083 0.572616
S1_2 S 0.24554(7) 0.37500(13) 0.11802(7)
K1_2 K 0.22232(7) 0.07256(12) 0.08321(6)
O1_2 O 0.48424(19) 0.3422(4) 0.04533(18)
O2_2 O 0.4238(2) 0.4849(4) 0.03576(19)
O3_2 O 0.30994(16) 0.1830(3) 0.18084(15)
O4_2 O 0.4793(2) 0.1315(4) 0.43098(17)
O6_2 O 0.2356(2) 0.4717(4) 0.0845(2)
O23_2 O 0.2845(5) 0.0903(10) 0.0087(4)
O26_2 O 0.5986(2) 0.2843(4) 0.01244(19)
C1_2 C 0.4407(3) 0.3919(5) 0.0531(2)
C2_2 C 0.4061(2) 0.3368(5) 0.0874(2)
C3_2 C 0.3510(3) 0.3762(5) 0.0893(2)
H1_2 H 0.335293 0.438426 0.069376
C4_2 C 0.3188(2) 0.3259(5) 0.1200(2)
C5_2 C 0.3431(2) 0.2357(5) 0.1509(2)
C6_2 C 0.3974(3) 0.1928(5) 0.1488(2)
H2_2 H 0.413263 0.131125 0.169214
C7_2 C 0.4278(3) 0.2423(5) 0.1161(2)
H3_2 H 0.463451 0.211778 0.113169
C8_2 C 0.3401(2) 0.1598(5) 0.2361(2)
C9_2 C 0.3266(2) 0.0638(4) 0.2586(2)
C10_2 C 0.3566(2) 0.0377(4) 0.3138(2)
C11_2 C 0.4008(2) 0.1065(5) 0.3469(2)
C12_2 C 0.4113(3) 0.2043(5) 0.3243(2)
H5_2 H 0.439263 0.252426 0.346487
C13_2 C 0.3809(3) 0.2314(5) 0.2698(2)
H6_2 H 0.387955 0.297957 0.255641
C14_2 C 0.4357(3) 0.0732(5) 0.4050(2)
H19_2 H 0.721891 0.308053 0.031461
K5_2 K 0.10635(8) 0.51918(15) 0.02530(7)
O34_2 O 0.0282(2) 0.0201(4) 0.09996(19)
H31_2 H 0.32418 0.0530542 0.0233893
C29_2 C 0.6203(6) 0.2455(10) 0.9811(6)
C30_2 C 0.6207(8) 0.1094(14) 0.9090(6)
H13_2 H 0.597639 0.118173 0.869863
H14_2 H 0.629493 0.033641 0.917581
C31_2 C 0.6814(7) 0.1859(12) 0.9280(6)
H15_2 H 0.717356 0.144451 0.946742
H16_2 H 0.687674 0.223862 0.896361
C32_2 C 0.7071(9) 0.3291(16) 0.9929(9)
H17_2 H 0.740290 0.332133 0.977440
H18_2 H 0.688366 0.398953 0.990038
C33_2 C 0.5384(8) 0.0983(15) 0.9527(8)
H20_2 H 0.522914 0.138769 0.978077
H21_2 H 0.507340 0.091371 0.917418
H22_2 H 0.550489 0.027710 0.967964
N1_2 N 0.5940(6) 0.1581(11) 0.9442(6)
N2_2 N 0.6658(6) 0.2558(10) 0.9642(5)
O27_2 O 0.5762(2) 0.5151(4) 0.96424(19)
O28_2 O 0.4793(2) 0.3685(4) 0.93098(17)
H32_2 H 0.260914 0.0565121 0.972793
S2_2 S 0.27197(7) 0.97140(12) 0.21757(6)
S3_2 S 0.13636(6) 0.81169(12) 0.07918(6)
S4_2 S 0.03988(8) 0.42868(14) 0.11921(7)
O9_2 O 0.2917(2) 0.9430(4) 0.17042(18)
O11_2 O 0.2696(2) 0.8829(4) 0.25428(19)
O14_2 O 0.05149(18) 0.6680(4) 0.11093(18)
O19_2 O 0.0062(2) 0.4457(4) 0.06068(19)
O20_2 O 0.16214(18) 0.7056(3) 0.07914(18)
O21_2 O 0.15861(18) 0.8911(4) 0.04903(18)
O22_2 O 0.14106(18) 0.8438(3) 0.13714(16)
H4_2 H 0.347241 0.973797 0.328892
C18_2 C 0.0577(2) 0.7988(5) 0.0440(2)
C19_2 C 0.0218(3) 0.7289(5) 0.0649(2)
C22_2 C 0.0187(3) 0.6369(5) 0.1466(2)
C23_2 C 0.0121(3) 0.5285(5) 0.1558(2)
H12_2 H 0.002312 0.787121 0.169338
Zn7_2 Zn 0.87601(3) 0.01310(6) 0.83194(3)
O25_2 O 0.8304(6) 0.8761(10) 0.2063(5)
C20_2 C 0.9607(3) 0.7209(5) 0.0382(3)
H8_2 H 0.936846 0.675336 0.052257
C24_2 C 0.9817(3) 0.4971(5) 0.1938(2)
H10_2 H 0.977679 0.424069 0.200832
C25_2 C 0.9575(3) 0.5741(5) 0.2208(3)
C26_2 C 0.9656(3) 0.6812(6) 0.2117(3)
H11_2 H 0.950093 0.733138 0.230430
C27_2 C 0.9966(3) 0.7140(6) 0.1748(3)
C28_2 C 0.9227(3) 0.5407(6) 0.2593(3)
H35_2 H 0.806726 0.830103 0.174798
H36_2 H 0.809032 0.945929 0.205625
O12_2 O 0.9718(2) 0.9799(4) 0.90004(19)
O13_2 O 0.88459(18) 0.9041(4) 0.89479(17)
C15_2 C 0.9415(3) 0.9154(5) 0.9178(2)
C16_2 C 0.9695(3) 0.8493(5) 0.9695(2)
C21_2 C 0.9348(3) 0.7803(5) 0.9905(3)
H9_2 H 0.893421 0.773981 0.972249
K4_2 K 0.77768(7) 0.92744(12) 0.91679(6)
K6_2 K 0.89365(8) 0.48082(15) 0.97470(7)
K9_2 K 0.84256(8) 0.73293(13) 0.81070(7)
O41_2 O 0.9938(2) 0.5543(4) 0.93932(19)
S4_3 S 0.03988(8) 0.07132(14) 0.61921(7)
O17_2 O 0.1044(2) 0.0481(4) 0.6307(2)
O18_2 O 0.0298(3) 0.1732(4) 0.6419(2)
O30 O 0.2356(2) 0.0283(4) 0.5845(2)
H34_2 H 0.156528 0.0589174 0.427384
S1_3 S 0.24554(7) 0.12500(13) 0.61802(7)
S2_3 S 0.27197(7) 0.52860(12) 0.71757(6)
S3_3 S 0.13636(6) 0.68831(12) 0.57918(6)
O1_3 O 0.48424(19) 0.1578(4) 0.54533(18)
O3_3 O 0.30994(16) 0.3170(3) 0.68084(15)
O5_2 O 0.4198(2) 0.5129(4) 0.92283(17)
O7_2 O 0.2492(2) 0.1038(4) 0.67610(19)
O8_2 O 0.20417(18) 0.2121(4) 0.59387(19)
O9_3 O 0.2917(2) 0.5570(4) 0.67042(18)
O10_2 O 0.21538(17) 0.4672(3) 0.70007(17)
O11_3 O 0.2696(2) 0.6171(4) 0.75428(19)
O14_3 O 0.05149(18) 0.8320(4) 0.61093(18)
O20_3 O 0.16214(18) 0.7944(3) 0.57914(18)
O21_3 O 0.15861(18) 0.6089(4) 0.54903(18)
O22_3 O 0.14106(18) 0.6562(3) 0.63714(16)
O23_3 O 0.2845(5) 0.4097(10) 0.5087(4)
O24_2 O 0.1439(4) 0.9844(14) 0.4335(4)
O26_3 O 0.5986(2) 0.2157(4) 0.51244(19)
C1_3 C 0.4407(3) 0.1081(5) 0.5531(2)
C2_3 C 0.4061(2) 0.1632(5) 0.5874(2)
C3_3 C 0.3510(3) 0.1238(5) 0.5893(2)
H1_3 H 0.335293 0.061574 0.569376
C4_3 C 0.3188(2) 0.1741(5) 0.6200(2)
C5_3 C 0.3431(2) 0.2643(5) 0.6509(2)
C6_3 C 0.3974(3) 0.3072(5) 0.6488(2)
H2_3 H 0.413263 0.368875 0.669214
C7_3 C 0.4278(3) 0.2577(5) 0.6161(2)
H3_3 H 0.463451 0.288222 0.613169
C8_3 C 0.3401(2) 0.3402(5) 0.7361(2)
C9_3 C 0.3266(2) 0.4362(4) 0.7586(2)
C10_3 C 0.3566(2) 0.4623(4) 0.8138(2)
H4_3 H 0.347241 0.526203 0.828892
C11_3 C 0.4008(2) 0.3935(5) 0.8469(2)
C12_3 C 0.4113(3) 0.2957(5) 0.8243(2)
H5_3 H 0.439263 0.247574 0.846487
C13_3 C 0.3809(3) 0.2686(5) 0.7698(2)
H6_3 H 0.387955 0.202043 0.755641
C14_3 C 0.4357(3) 0.4268(5) 0.9050(2)
C17_2 C 0.0311(3) 0.6427(5) 0.4964(2)
H7_2 H 0.054728 0.597025 0.482162
C18_3 C 0.0577(2) 0.7012(5) 0.5440(2)
C19_3 C 0.0218(3) 0.7711(5) 0.5649(2)
C22_3 C 0.0187(3) 0.8631(5) 0.6466(2)
C23_3 C 0.0121(3) 0.9715(5) 0.6558(2)
H12_3 H 0.002312 0.712879 0.669338
C29_3 C 0.6203(6) 0.2545(10) 0.4811(6)
C30_3 C 0.6207(8) 0.3906(14) 0.4090(6)
H13_3 H 0.597639 0.381827 0.369863
H14_3 H 0.629493 0.466359 0.417581
C31_3 C 0.6814(7) 0.3141(12) 0.4280(6)
H15_3 H 0.717356 0.355549 0.446742
H16_3 H 0.687674 0.276138 0.396361
C32_3 C 0.7071(9) 0.1709(16) 0.4929(9)
H17_3 H 0.740290 0.167867 0.477440
H18_3 H 0.688366 0.101047 0.490038
H19_3 H 0.721891 0.191947 0.531461
C33_3 C 0.5384(8) 0.4017(15) 0.4527(8)
H20_3 H 0.522914 0.361231 0.478077
H21_3 H 0.507340 0.408629 0.417418
H22_3 H 0.550489 0.472290 0.467964
N1_3 N 0.5940(6) 0.3419(11) 0.4442(6)
N2_3 N 0.6658(6) 0.2442(10) 0.4642(5)
O29_2 O 0.5802(2) 0.0129(4) 0.57717(17)
O37_2 O 0.1033(2) 0.3864(4) 0.7228(2)
O38_2 O 0.0802(2) 0.5567(4) 0.72665(19)
H31_3 H 0.32418 0.446946 0.523389
H32_3 H 0.260914 0.443488 0.472793
H33_2 H 0.178793 0.934453 0.438866
O16_2 O 0.9198(2) 0.0567(4) 0.77335(19)
C24_3 C 0.9817(3) 0.0029(5) 0.6938(2)
H10_3 H 0.977679 0.075931 0.700832
O15_2 O 0.8967(2) 0.8864(4) 0.7772(2)
O25_3 O 0.8304(6) 0.6239(10) 0.7063(5)
C15_3 C 0.9415(3) 0.5846(5) 0.4178(2)
C16_3 C 0.9695(3) 0.6507(5) 0.4695(2)
C20_3 C 0.9607(3) 0.7791(5) 0.5382(3)
H8_3 H 0.936846 0.824664 0.552257
C21_3 C 0.9348(3) 0.7197(5) 0.4905(3)
H9_3 H 0.893421 0.726019 0.472249
C25_3 C 0.9575(3) 0.9259(5) 0.7208(3)
C26_3 C 0.9656(3) 0.8188(6) 0.7117(3)
H11_3 H 0.950093 0.766862 0.730430
C27_3 C 0.9966(3) 0.7860(6) 0.6748(3)
C28_3 C 0.9227(3) 0.9593(6) 0.7593(3)
O31_2 O 0.7508(2) 0.6038(4) 0.82390(19)
O32_2 O 0.79583(18) 0.7121(4) 0.90613(19)
O33_2 O 0.78462(17) 0.9672(3) 0.79993(17)
O39_2 O 0.8956(2) 0.5481(4) 0.8693(2)
O40_2 O 0.9702(3) 0.6732(4) 0.8581(2)
H35_3 H 0.806726 0.669897 0.674798
H36_3 H 0.809032 0.554071 0.705625
C15_4 C 0.0585(3) 0.0846(5) 0.0822(2)
C16_4 C 0.0305(3) 0.1507(5) 0.0305(2)
C21_4 C 0.0652(3) 0.2197(5) 0.0095(3)
H9_4 H 0.106579 0.226019 0.027751
O25_4 O 0.1696(6) 0.1239(10) 0.7937(5)
C20_4 C 0.0393(3) 0.2791(5) 0.9618(3)
H8_4 H 0.063154 0.324664 0.947743
C24_4 C 0.0183(3) 0.5029(5) 0.8062(2)
H10_4 H 0.022321 0.575931 0.799168
C25_4 C 0.0425(3) 0.4259(5) 0.7792(3)
C26_4 C 0.0344(3) 0.3188(6) 0.7883(3)
H11_4 H 0.049907 0.266862 0.769570
C27_4 C 0.0034(3) 0.2860(6) 0.8252(3)
C28_4 C 0.0773(3) 0.4593(6) 0.7407(3)
H35_4 H 0.193274 0.169897 0.825202
H36_4 H 0.190968 0.0540706 0.794375
S2_4 S 0.72803(7) 0.02860(12) 0.78243(6)
S3_4 S 0.86364(6) 0.18831(12) 0.92082(6)
S4_4 S 0.96012(8) 0.57132(14) 0.88079(7)
O9_4 O 0.7083(2) 0.0570(4) 0.82958(18)
O11_4 O 0.7304(2) 0.1171(4) 0.74572(19)
O14_4 O 0.94851(18) 0.3320(4) 0.88907(18)
O20_4 O 0.83786(18) 0.2944(3) 0.92086(18)
O21_4 O 0.84139(18) 0.1089(4) 0.95097(18)
O22_4 O 0.85894(18) 0.1562(3) 0.86286(16)
H4_4 H 0.652759 0.026203 0.671108
C18_4 C 0.9423(2) 0.2012(5) 0.9560(2)
C19_4 C 0.9782(3) 0.2711(5) 0.9351(2)
C22_4 C 0.9813(3) 0.3631(5) 0.8534(2)
C23_4 C 0.9879(3) 0.4715(5) 0.8442(2)
H12_4 H 0.997688 0.212879 0.830662
O30_2 O 0.7644(2) 0.5283(4) 0.9155(2)
C29_4 C 0.3797(6) 0.7545(10) 0.0189(6)
C30_4 C 0.3793(8) 0.8906(14) 0.0910(6)
H13_4 H 0.402361 0.881827 0.130137
H14_4 H 0.370507 0.966359 0.082419
C31_4 C 0.3186(7) 0.8141(12) 0.0720(6)
H15_4 H 0.282644 0.855549 0.053258
H16_4 H 0.312326 0.776138 0.103639
C32_4 C 0.2929(9) 0.6709(16) 0.0071(9)
H17_4 H 0.259710 0.667867 0.022560
H18_4 H 0.311634 0.601047 0.009962
C33_4 C 0.4616(8) 0.9017(15) 0.0473(8)
H20_4 H 0.477086 0.861231 0.021923
H21_4 H 0.492660 0.908629 0.082582
H22_4 H 0.449511 0.972290 0.032036
N1_4 N 0.4060(6) 0.8419(11) 0.0558(6)
N2_4 N 0.3342(6) 0.7442(10) 0.0358(5)
H32_4 H 0.739086 0.943488 0.0272068
S1_4 S 0.75446(7) 0.62500(13) 0.88198(7)
O1_4 O 0.51576(19) 0.6578(4) 0.95467(18)
O3_4 O 0.69006(16) 0.8170(3) 0.81916(15)
O23_4 O 0.7155(5) 0.9097(10) 0.9913(4)
O26_4 O 0.4014(2) 0.7157(4) 0.98756(19)
C1_4 C 0.5593(3) 0.6081(5) 0.9469(2)
C2_4 C 0.5939(2) 0.6632(5) 0.9126(2)
C3_4 C 0.6490(3) 0.6238(5) 0.9107(2)
H1_4 H 0.664707 0.561574 0.930624
C4_4 C 0.6812(2) 0.6741(5) 0.8800(2)
C5_4 C 0.6569(2) 0.7643(5) 0.8491(2)
C6_4 C 0.6026(3) 0.8072(5) 0.8512(2)
H2_4 H 0.586737 0.868875 0.830786
C7_4 C 0.5722(3) 0.7577(5) 0.8839(2)
H3_4 H 0.536549 0.788222 0.886831
C8_4 C 0.6599(2) 0.8402(5) 0.7639(2)
C9_4 C 0.6734(2) 0.9362(4) 0.7414(2)
C10_4 C 0.6434(2) 0.9623(4) 0.6862(2)
C11_4 C 0.5992(2) 0.8935(5) 0.6531(2)
C12_4 C 0.5887(3) 0.7957(5) 0.6757(2)
H5_4 H 0.560737 0.747574 0.653513
C13_4 C 0.6191(3) 0.7686(5) 0.7302(2)
H6_4 H 0.612045 0.702043 0.744359
C14_4 C 0.5643(3) 0.9268(5) 0.5950(2)
H19_4 H 0.278109 0.691947 0.968539
H31_4 H 0.67582 0.946946 0.976611
O24_3 O 0.1439(4) 0.5156(14) 0.9335(4)
C17_3 C 0.0311(3) 0.8573(5) 0.9964(2)
H7_3 H 0.054728 0.902975 0.982162
H33_3 H 0.178793 0.565547 0.938866
H34_3 H 0.156528 0.441083 0.927384
O24_4 O 0.8561(4) 0.4844(14) 0.0665(4)
C17_4 C 0.9689(3) 0.1427(5) 0.0036(2)
H7_4 H 0.945272 0.097025 0.017838
H33_4 H 0.821207 0.434453 0.0611338
H34_4 H 0.843472 0.558917 0.0726158
C34 C 0.7306(5) 0.1408(9) 0.3030(5)
H23 H 0.716665 0.120009 0.333819
H24 H 0.727088 0.217683 0.298001
H25 H 0.706486 0.105468 0.269555
C35 C 0.8180(5) 0.1373(9) 0.2702(4)
H26 H 0.859560 0.114404 0.280300
H27 H 0.795310 0.101981 0.236290
H28 H 0.815913 0.214196 0.264737
N3 N 0.7929(3) 0.1096(6) 0.3142(3)
H29 H 0.795885 0.0282941 0.319769
H30 H 0.817689 0.146955 0.349814
C34_2 C 0.2694(5) 0.6408(9) 0.1970(5)
H23_2 H 0.283335 0.620009 0.166181
H24_2 H 0.272912 0.717683 0.201999
H25_2 H 0.293514 0.605468 0.230445
C35_2 C 0.1820(5) 0.6373(9) 0.2298(4)
H26_2 H 0.140440 0.614404 0.219700
H27_2 H 0.204690 0.601981 0.263710
H28_2 H 0.184087 0.714196 0.235263
N3_2 N 0.2071(3) 0.6096(6) 0.1858(3)
H29_2 H 0.204115 0.528294 0.180231
H30_2 H 0.182311 0.646955 0.150186
C34_3 C 0.2694(5) 0.8592(9) 0.6970(5)
H23_3 H 0.283335 0.879991 0.666181
H24_3 H 0.272912 0.782317 0.701999
H25_3 H 0.293514 0.894532 0.730445
C35_3 C 0.1820(5) 0.8627(9) 0.7298(4)
H26_3 H 0.140440 0.885596 0.719700
H27_3 H 0.204690 0.898019 0.763710
H28_3 H 0.184087 0.785804 0.735263
N3_3 N 0.2071(3) 0.8904(6) 0.6858(3)
H29_3 H 0.204115 0.971706 0.680231
H30_3 H 0.182311 0.853045 0.650186
C34_4 C 0.7306(5) 0.3592(9) 0.8030(5)
H23_4 H 0.716665 0.379991 0.833819
H24_4 H 0.727088 0.282317 0.798001
H25_4 H 0.706486 0.394532 0.769555
C35_4 C 0.8180(5) 0.3627(9) 0.7702(4)
H26_4 H 0.859560 0.385596 0.780300
H27_4 H 0.795310 0.398019 0.736290
H28_4 H 0.815913 0.285804 0.764737
N3_4 N 0.7929(3) 0.3904(6) 0.8142(3)
H29_4 H 0.795885 0.471706 0.819769
H30_4 H 0.817689 0.353045 0.849814
loop_
_geom_bond_atom_site_label_1
_geom_bond_atom_site_label_2
_geom_bond_site_symmetry_1
_geom_bond_site_symmetry_2
K3 O15 1_555 1_555
O12 C15 1_555 1_555
O13 C15 1_555 1_555
O15 C28 1_555 1_555
O25 K3 1_555 1_555
C15 C16 1_555 1_555
H8 C20 1_555 1_555
C21 C16 1_555 1_555
H9 C21 1_555 1_555
C26 C25 1_555 1_555
H11 C26 1_555 1_555
C28 C25 1_555 1_555
Zn7 O12 1_555 1_555
K4 O13 1_555 1_555
K9 O13 1_555 1_555
O31 K3 1_555 1_555
O32 K3 1_555 1_555
O33 K3 1_555 1_555
O36 K3 1_555 1_555
O39 K3 1_555 1_555
O40 K3 1_555 1_555
O13 Zn7 1_555 1_555
C20 C21 1_555 1_555
C26 C27 1_555 1_555
O25 H35 1_555 1_555
O25 H36 1_555 1_555
H10 C24 1_555 1_555
O16 Zn6 1_555 1_555
Zn1 O1 1_555 1_555
Zn2 O10 1_555 1_555
S1 O6 1_555 1_555
S2 O9 1_555 1_555
S3 O20 1_555 1_555
K1 O3 1_555 1_555
K5 O14 1_555 1_555
O1 C1 1_555 1_555
O2 C1 1_555 1_555
O3 C5 1_555 1_555
O4 C14 1_555 1_555
O5 C14 1_555 1_555
O7 S1 1_555 1_555
O8 S1 1_555 1_555
O9 K1 1_555 1_555
O10 S2 1_555 1_555
O11 S2 1_555 1_555
O14 C19 1_555 1_555
O20 K5 1_555 1_555
O21 S3 1_555 1_555
O22 Zn2 1_555 1_555
O23 K1 1_555 1_555
O24 K5 1_555 1_555
O26 Zn1 1_555 1_555
C1 C2 1_555 1_555
C2 C3 1_555 1_555
C3 H1 1_555 1_555
C4 S1 1_555 1_555
C5 C4 1_555 1_555
C6 C5 1_555 1_555
H2 C6 1_555 1_555
C7 C2 1_555 1_555
H3 C7 1_555 1_555
C8 O3 1_555 1_555
C9 S2 1_555 1_555
C10 C9 1_555 1_555
H4 C10 1_555 1_555
C11 C10 1_555 1_555
C12 C11 1_555 1_555
H5 C12 1_555 1_555
C13 C8 1_555 1_555
H6 C13 1_555 1_555
C14 C11 1_555 1_555
C17 H7 1_555 1_555
C18 S3 1_555 1_555
C19 C18 1_555 1_555
C22 O14 1_555 1_555
C29 O26 1_555 1_555
C30 H13 1_555 1_555
H14 C30 1_555 1_555
C31 C30 1_555 1_555
H15 C31 1_555 1_555
H16 C31 1_555 1_555
C32 H17 1_555 1_555
H18 C32 1_555 1_555
H19 C32 1_555 1_555
C33 H20 1_555 1_555
H21 C33 1_555 1_555
H22 C33 1_555 1_555
N1 C29 1_555 1_555
N2 C29 1_555 1_555
Zn3 O5 1_555 1_555
K8 O7 1_555 1_555
O28 Zn1 1_555 1_555
O29 Zn1 1_555 1_555
O34 Zn2 1_555 1_555
O35 Zn2 1_555 1_555
O37 Zn2 1_555 1_555
O38 Zn2 1_555 1_555
S3 O22 1_555 1_555
K1 O8 1_555 1_555
K1 O10 1_555 1_555
K1 O21 1_555 1_555
K1 O35 1_555 1_555
O8 K8 1_555 1_555
O10 K8 1_555 1_555
C3 C4 1_555 1_555
C6 C7 1_555 1_555
C8 C9 1_555 1_555
C12 C13 1_555 1_555
C17 C18 1_555 1_555
C22 C23 1_555 1_555
C30 N1 1_555 1_555
C31 N2 1_555 1_555
C32 N2 1_555 1_555
C33 N1 1_555 1_555
K8 O35 1_555 1_555
K8 O37 1_555 1_555
O23 H31 1_555 1_555
O23 H32 1_555 1_555
O24 H33 1_555 1_555
S4 O17 1_555 1_555
O18 S4 1_555 1_555
O19 S4 1_555 1_555
K8 O17 1_555 1_555
O18 K8 1_555 1_555
Zn3 O1_2 1_555 1_555
S1_2 O6_2 1_555 1_555
K1_2 O3_2 1_555 1_555
O1_2 C1_2 1_555 1_555
O2_2 C1_2 1_555 1_555
O3_2 C5_2 1_555 1_555
O4_2 C14_2 1_555 1_555
O6_2 K5_2 1_555 1_555
O31 S1_2 1_555 1_555
O32 S1_2 1_555 1_555
O23_2 K1_2 1_555 1_555
O26_2 Zn3 1_555 1_555
C1_2 C2_2 1_555 1_555
C2_2 C3_2 1_555 1_555
C3_2 H1_2 1_555 1_555
C4_2 S1_2 1_555 1_555
C5_2 C4_2 1_555 1_555
C6_2 C5_2 1_555 1_555
H2_2 C6_2 1_555 1_555
C7_2 C2_2 1_555 1_555
H3_2 C7_2 1_555 1_555
C8_2 O3_2 1_555 1_555
C10_2 C9_2 1_555 1_555
C11_2 C10_2 1_555 1_555
C12_2 C11_2 1_555 1_555
H5_2 C12_2 1_555 1_555
C13_2 C8_2 1_555 1_555
H6_2 C13_2 1_555 1_555
C14_2 C11_2 1_555 1_555
Zn4 O4_2 1_555 1_555
K1_2 O32 1_555 1_555
K1_2 O33 1_555 1_555
K1_2 O36 1_555 1_555
C3_2 C4_2 1_555 1_555
C6_2 C7_2 1_555 1_555
C8_2 C9_2 1_555 1_555
C12_2 C13_2 1_555 1_555
O23_2 H31_2 1_555 1_555
C30_2 H13_2 1_555 1_555
H14_2 C30_2 1_555 1_555
C31_2 C30_2 1_555 1_555
H15_2 C31_2 1_555 1_555
H16_2 C31_2 1_555 1_555
C32_2 H17_2 1_555 1_555
H18_2 C32_2 1_555 1_555
C33_2 H20_2 1_555 1_555
H21_2 C33_2 1_555 1_555
H22_2 C33_2 1_555 1_555
N1_2 C29_2 1_555 1_555
N2_2 C29_2 1_555 1_555
C30_2 N1_2 1_555 1_555
C31_2 N2_2 1_555 1_555
C32_2 N2_2 1_555 1_555
C33_2 N1_2 1_555 1_555
S2_2 O9_2 1_555 1_555
S3_2 O20_2 1_555 1_555
S4_2 O39 1_555 1_555
K5_2 O14_2 1_555 1_555
O11_2 S2_2 1_555 1_555
O14_2 C19_2 1_555 1_555
O39 K5_2 1_555 1_555
O40 S4_2 1_555 1_555
O19_2 S4_2 1_555 1_555
O20_2 K5_2 1_555 1_555
O21_2 S3_2 1_555 1_555
O22_2 Zn6 1_555 1_555
C18_2 S3_2 1_555 1_555
C19_2 C18_2 1_555 1_555
C22_2 O14_2 1_555 1_555
C23_2 S4_2 1_555 1_555
S3_2 O22_2 1_555 1_555
K5_2 O19_2 1_555 1_555
C22_2 C23_2 1_555 1_555
O37 C28_2 1_555 1_555
O38 C28_2 1_555 1_555
O25_2 K8 1_555 1_555
H8_2 C20_2 1_555 1_555
H10_2 C24_2 1_555 1_555
C25_2 C24_2 1_555 1_555
C26_2 C25_2 1_555 1_555
H11_2 C26_2 1_555 1_555
C28_2 C25_2 1_555 1_555
C26_2 C27_2 1_555 1_555
O25_2 H35_2 1_555 1_555
O25_2 H36_2 1_555 1_555
O12_2 C15_2 1_555 1_555
O13_2 C15_2 1_555 1_555
C15_2 C16_2 1_555 1_555
C21_2 C16_2 1_555 1_555
H9_2 C21_2 1_555 1_555
K4_2 O13_2 1_555 1_555
K9_2 O13_2 1_555 1_555
K6_2 O41_2 1_555 1_555
S4_3 O17_2 1_555 1_555
O18_2 S4_3 1_555 1_555
O41 S4_3 1_555 1_555
K9 O17_2 1_555 1_555
O18_2 K9 1_555 1_555
Zn4 O1_3 1_555 1_555
Zn7 O10_2 1_555 1_555
S1_3 O30 1_555 1_555
S2_3 O9_3 1_555 1_555
S3_3 O20_3 1_555 1_555
K4 O3_3 1_555 1_555
K6 O14_3 1_555 1_555
O1_3 C1_3 1_555 1_555
O27 C1_3 1_555 1_555
O3_3 C5_3 1_555 1_555
O28_2 C14_3 1_555 1_555
O5_2 C14_3 1_555 1_555
O7_2 S1_3 1_555 1_555
O8_2 S1_3 1_555 1_555
O9_3 K4 1_555 1_555
O10_2 S2_3 1_555 1_555
O11_3 S2_3 1_555 1_555
O14_3 C19_3 1_555 1_555
O20_3 K6 1_555 1_555
O21_3 S3_3 1_555 1_555
O22_3 Zn7 1_555 1_555
O23_3 K4 1_555 1_555
O24_2 K6 1_555 1_555
O26_3 Zn4 1_555 1_555
C1_3 C2_3 1_555 1_555
C2_3 C3_3 1_555 1_555
C3_3 H1_3 1_555 1_555
C4_3 S1_3 1_555 1_555
C5_3 C4_3 1_555 1_555
C6_3 C5_3 1_555 1_555
H2_3 C6_3 1_555 1_555
C7_3 C2_3 1_555 1_555
H3_3 C7_3 1_555 1_555
C8_3 O3_3 1_555 1_555
C9_3 S2_3 1_555 1_555
C10_3 C9_3 1_555 1_555
H4_3 C10_3 1_555 1_555
C11_3 C10_3 1_555 1_555
C12_3 C11_3 1_555 1_555
H5_3 C12_3 1_555 1_555
C13_3 C8_3 1_555 1_555
H6_3 C13_3 1_555 1_555
C14_3 C11_3 1_555 1_555
C17_2 H7_2 1_555 1_555
C18_3 S3_3 1_555 1_555
C19_3 C18_3 1_555 1_555
C22_3 O14_3 1_555 1_555
C29_3 O26_3 1_555 1_555
C30_3 H13_3 1_555 1_555
H14_3 C30_3 1_555 1_555
C31_3 C30_3 1_555 1_555
H15_3 C31_3 1_555 1_555
H16_3 C31_3 1_555 1_555
C32_3 H17_3 1_555 1_555
H18_3 C32_3 1_555 1_555
H19_3 C32_3 1_555 1_555
C33_3 H20_3 1_555 1_555
H21_3 C33_3 1_555 1_555
H22_3 C33_3 1_555 1_555
N1_3 C29_3 1_555 1_555
N2_3 C29_3 1_555 1_555
Zn5 O5_2 1_555 1_555
K9 O7_2 1_555 1_555
O29_2 Zn4 1_555 1_555
O37_2 Zn7 1_555 1_555
O38_2 Zn7 1_555 1_555
S3_3 O22_3 1_555 1_555
K4 O8_2 1_555 1_555
K4 O10_2 1_555 1_555
K4 O21_3 1_555 1_555
O8_2 K9 1_555 1_555
O10_2 K9 1_555 1_555
C3_3 C4_3 1_555 1_555
C6_3 C7_3 1_555 1_555
C8_3 C9_3 1_555 1_555
C12_3 C13_3 1_555 1_555
C17_2 C18_3 1_555 1_555
C22_3 C23_3 1_555 1_555
C30_3 N1_3 1_555 1_555
C31_3 N2_3 1_555 1_555
C32_3 N2_3 1_555 1_555
C33_3 N1_3 1_555 1_555
K9 O37_2 1_555 1_555
O23_3 H31_3 1_555 1_555
O23_3 H32_3 1_555 1_555
O24_2 H33_2 1_555 1_555
H10_3 C24_3 1_555 1_555
O16_2 Zn7_2 1_555 1_555
K9_2 O15_2 1_555 1_555
O34 C15_3 1_555 1_555
O35 C15_3 1_555 1_555
O15_2 C28_3 1_555 1_555
O25_3 K9_2 1_555 1_555
C15_3 C16_3 1_555 1_555
H8_3 C20_3 1_555 1_555
C21_3 C16_3 1_555 1_555
H9_3 C21_3 1_555 1_555
C26_3 C25_3 1_555 1_555
H11_3 C26_3 1_555 1_555
C28_3 C25_3 1_555 1_555
O31_2 K9_2 1_555 1_555
O32_2 K9_2 1_555 1_555
O33_2 K9_2 1_555 1_555
O39_2 K9_2 1_555 1_555
O40_2 K9_2 1_555 1_555
C20_3 C21_3 1_555 1_555
C26_3 C27_3 1_555 1_555
O25_3 H35_3 1_555 1_555
O25_3 H36_3 1_555 1_555
O34_2 C15_4 1_555 1_555
O36 C15_4 1_555 1_555
C15_4 C16_4 1_555 1_555
C21_4 C16_4 1_555 1_555
H9_4 C21_4 1_555 1_555
O37_2 C28_4 1_555 1_555
O38_2 C28_4 1_555 1_555
O25_4 K9 1_555 1_555
H8_4 C20_4 1_555 1_555
H10_4 C24_4 1_555 1_555
C25_4 C24_4 1_555 1_555
C26_4 C25_4 1_555 1_555
H11_4 C26_4 1_555 1_555
C28_4 C25_4 1_555 1_555
C26_4 C27_4 1_555 1_555
O25_4 H35_4 1_555 1_555
O25_4 H36_4 1_555 1_555
S2_4 O9_4 1_555 1_555
S3_4 O20_4 1_555 1_555
S4_4 O39_2 1_555 1_555
K6_2 O14_4 1_555 1_555
O11_4 S2_4 1_555 1_555
O14_4 C19_4 1_555 1_555
O39_2 K6_2 1_555 1_555
O40_2 S4_4 1_555 1_555
O41_2 S4_4 1_555 1_555
O20_4 K6_2 1_555 1_555
O21_4 S3_4 1_555 1_555
O22_4 Zn7_2 1_555 1_555
C18_4 S3_4 1_555 1_555
C19_4 C18_4 1_555 1_555
C22_4 O14_4 1_555 1_555
C23_4 S4_4 1_555 1_555
O30_2 K6_2 1_555 1_555
S3_4 O22_4 1_555 1_555
C22_4 C23_4 1_555 1_555
C30_4 H13_4 1_555 1_555
H14_4 C30_4 1_555 1_555
C31_4 C30_4 1_555 1_555
H15_4 C31_4 1_555 1_555
H16_4 C31_4 1_555 1_555
C32_4 H17_4 1_555 1_555
H18_4 C32_4 1_555 1_555
C33_4 H20_4 1_555 1_555
H21_4 C33_4 1_555 1_555
H22_4 C33_4 1_555 1_555
N1_4 C29_4 1_555 1_555
N2_4 C29_4 1_555 1_555
C30_4 N1_4 1_555 1_555
C31_4 N2_4 1_555 1_555
C32_4 N2_4 1_555 1_555
C33_4 N1_4 1_555 1_555
Zn5 O1_4 1_555 1_555
S1_4 O30_2 1_555 1_555
K4_2 O3_4 1_555 1_555
O1_4 C1_4 1_555 1_555
O27_2 C1_4 1_555 1_555
O3_4 C5_4 1_555 1_555
O28 C14_4 1_555 1_555
O31_2 S1_4 1_555 1_555
O32_2 S1_4 1_555 1_555
O23_4 K4_2 1_555 1_555
O26_4 Zn5 1_555 1_555
C1_4 C2_4 1_555 1_555
C2_4 C3_4 1_555 1_555
C3_4 H1_4 1_555 1_555
C4_4 S1_4 1_555 1_555
C5_4 C4_4 1_555 1_555
C6_4 C5_4 1_555 1_555
H2_4 C6_4 1_555 1_555
C7_4 C2_4 1_555 1_555
H3_4 C7_4 1_555 1_555
C8_4 O3_4 1_555 1_555
C10_4 C9_4 1_555 1_555
C11_4 C10_4 1_555 1_555
C12_4 C11_4 1_555 1_555
H5_4 C12_4 1_555 1_555
C13_4 C8_4 1_555 1_555
H6_4 C13_4 1_555 1_555
C14_4 C11_4 1_555 1_555
K4_2 O32_2 1_555 1_555
K4_2 O33_2 1_555 1_555
C3_4 C4_4 1_555 1_555
C6_4 C7_4 1_555 1_555
C8_4 C9_4 1_555 1_555
C12_4 C13_4 1_555 1_555
O23_4 H31_4 1_555 1_555
C17_3 H7_3 1_555 1_555
O24_3 H33_3 1_555 1_555
O24_3 H34_3 1_555 1_555
C17_4 H7_4 1_555 1_555
O24_4 H33_4 1_555 1_555
O24_4 H34_4 1_555 1_555
C34 H23 1_555 1_555
H24 C34 1_555 1_555
H25 C34 1_555 1_555
C35 H26 1_555 1_555
H27 C35 1_555 1_555
H28 C35 1_555 1_555
N3 C34 1_555 1_555
C35 N3 1_555 1_555
N3 H29 1_555 1_555
N3 H30 1_555 1_555
C34_2 H23_2 1_555 1_555
H24_2 C34_2 1_555 1_555
H25_2 C34_2 1_555 1_555
C35_2 H26_2 1_555 1_555
H27_2 C35_2 1_555 1_555
H28_2 C35_2 1_555 1_555
N3_2 C34_2 1_555 1_555
C35_2 N3_2 1_555 1_555
N3_2 H29_2 1_555 1_555
N3_2 H30_2 1_555 1_555
C34_3 H23_3 1_555 1_555
H24_3 C34_3 1_555 1_555
H25_3 C34_3 1_555 1_555
C35_3 H26_3 1_555 1_555
H27_3 C35_3 1_555 1_555
H28_3 C35_3 1_555 1_555
N3_3 C34_3 1_555 1_555
C35_3 N3_3 1_555 1_555
N3_3 H29_3 1_555 1_555
N3_3 H30_3 1_555 1_555
C34_4 H23_4 1_555 1_555
H24_4 C34_4 1_555 1_555
H25_4 C34_4 1_555 1_555
C35_4 H26_4 1_555 1_555
H27_4 C35_4 1_555 1_555
H28_4 C35_4 1_555 1_555
N3_4 C34_4 1_555 1_555
C35_4 N3_4 1_555 1_555
N3_4 H29_4 1_555 1_555
N3_4 H30_4 1_555 1_555

#END
