
###############################################################################
#
# This file contains modified crystal structure data generated from the
# MOF subset of the Cambridge Structural Database (CSD) v543 
# hosted by the Cambridge Crystallographic Data Centre (CCDC).
#
# This work is licensed under the Creative Commons
# Attribution-NonCommercial-ShareAlike 4.0 International License.
# To view a copy of this license, visit
# http://creativecommons.org/licenses/by-nc-sa/4.0/
# or send a letter to
# Creative Commons, PO Box 1866, Mountain View, CA 94042, USA.
#
# CIF created using the CSD Python API on 29 September 2022
# The structure has been converted into the P1 space group
# The structure has a 3D framework
# The original CSD entry DACXOV is in the triclinic crystal system
# The framework has been calculated to contain at least 10.0% void space
# The void calculation uses a probe of radius 1.32A, grid spacing 0.4
#
###############################################################################

data_DACXOV
_chemical_formula_moiety         '(C60 H34 N4 O10 Tb2)n'
_symmetry_cell_setting           triclinic
_symmetry_space_group_name_H-M   'P 1'
_symmetry_Int_Tables_number      1
_space_group_name_Hall           'P 1'
loop_
_symmetry_equiv_pos_site_id
_symmetry_equiv_pos_as_xyz
1 x,y,z
_cell_length_a                   10.7822(2)
_cell_length_b                   12.1806(3)
_cell_length_c                   12.3369(3)
_cell_angle_alpha                94.2028(9)
_cell_angle_beta                 106.3049(9)
_cell_angle_gamma                100.9193(12)
_cell_volume                     1513.12
loop_
_atom_site_label
_atom_site_type_symbol
_atom_site_fract_x
_atom_site_fract_y
_atom_site_fract_z
_atom_site_U_iso_or_equiv
_atom_site_thermal_displace_type
C1 C 0.3577(4) 0.0325(3) 0.0681(4) 0.0268 Uani
H1 H 0.2934 0.0674 0.0269 0.0320 Uiso
C2 C 0.4879(4) 0.0949(4) 0.1114(4) 0.0314 Uani
H2 H 0.5087 0.1697 0.0991 0.0380 Uiso
C3 C 0.5841(4) 0.0463(4) 0.1715(4) 0.0329 Uani
H3 H 0.6714 0.0868 0.1993 0.0390 Uiso
O5 O 0.0714(3) 0.9368(2) 0.1347(2) 0.0231 Uani
N1 N 0.3217(3) 0.9257(3) 0.0830(3) 0.0212 Uani
N2 N 0.2470(3) 0.7086(3) 0.1208(3) 0.0211 Uani
C4 C 0.5499(4) 0.9329(4) 0.1913(4) 0.0305 Uani
C5 C 0.6448(4) 0.8762(4) 0.2558(4) 0.0425 Uani
H4 H 0.7329 0.9142 0.2865 0.0510 Uiso
C6 C 0.6076(4) 0.7679(4) 0.2727(4) 0.0424 Uani
H5 H 0.6710 0.7320 0.3135 0.0510 Uiso
C7 C 0.4732(4) 0.7079(4) 0.2289(4) 0.0307 Uani
C8 C 0.4293(4) 0.5972(4) 0.2489(4) 0.0350 Uani
H6 H 0.4894 0.5593 0.2913 0.0420 Uiso
C9 C 0.2998(4) 0.5458(4) 0.2067(4) 0.0309 Uani
H7 H 0.2702 0.4727 0.2199 0.0370 Uiso
C10 C 0.2106(4) 0.6038(3) 0.1430(4) 0.0262 Uani
H8 H 0.1217 0.5675 0.1148 0.0310 Uiso
C11 C 0.3776(4) 0.7603(3) 0.1640(3) 0.0235 Uani
C12 C 0.4176(4) 0.8764(3) 0.1446(3) 0.0216 Uani
C25 C 0.0102(4) 0.9957(3) 0.1781(3) 0.0180 Uani
C26 C 0.0069(4) 0.9797(3) 0.2974(3) 0.0200 Uani
C27 C 0.0205(4) 0.8753(3) 0.3365(3) 0.0255 Uani
H15 H 0.0306 0.8172 0.2886 0.0310 Uiso
C28 C 0.0191(4) 0.8597(3) 0.4449(3) 0.0270 Uani
H16 H 0.0268 0.7903 0.4697 0.0320 Uiso
C30 C 0.0061(4) 0.9470(3) 0.5190(3) 0.0209 Uani
C43 C 0.0066(4) 0.9344(3) 0.6329(3) 0.0212 Uani
O12 O 0.0492(3) 0.9337(2) 0.8708(2) 0.0241 Uani
H26 H 0.0163 0.8663 0.6601 0.0250 Uiso
Tb6 Tb 0.087166(16) 0.809688(14) 0.998782(14) 0.0160 Uani
O1 O 0.1953(3) 0.7508(2) 0.8609(2) 0.0237 Uani
C13 C 0.0919(4) 0.6793(3) 0.8068(3) 0.0249 Uani
C14 C 0.0778(4) 0.6222(3) 0.6909(3) 0.0238 Uani
C15 C 0.1807(4) 0.6455(4) 0.6412(4) 0.0299 Uani
H9 H 0.2581 0.6980 0.6803 0.0360 Uiso
C16 C 0.1685(5) 0.5928(4) 0.5376(4) 0.0377 Uani
H10 H 0.2376 0.6096 0.5061 0.0450 Uiso
C18 C 0.0516(4) 0.5120(4) 0.4756(3) 0.0275 Uani
C31 C 0.0357(4) 0.4552(4) 0.3669(4) 0.0315 Uani
O8 O 0.0031(3) 0.3442(3) 0.1513(3) 0.0401 Uani
H20 H 0.1038 0.4708 0.3340 0.0380 Uiso
O15 O 0.1558(3) 0.2295(2) 0.0370(2) 0.0253 Uani
O3 O 0.9630(2) 0.6839(2) 0.0897(2) 0.0223 Uani
C19 C 0.8525(4) 0.6961(3) 0.0304(3) 0.0195 Uani
C20 C 0.7289(4) 0.6188(3) 0.0364(3) 0.0202 Uani
C21 C 0.7411(4) 0.5408(4) 0.1158(4) 0.0313 Uani
H12 H 0.8230 0.5426 0.1679 0.0380 Uiso
C22 C 0.6317(4) 0.4625(4) 0.1160(4) 0.0358 Uani
H13 H 0.6402 0.4102 0.1674 0.0430 Uiso
C24 C 0.5060(4) 0.4603(3) 0.0389(3) 0.0229 Uani
C37 C 0.3908(4) 0.3795(3) 0.0374(3) 0.0245 Uani
H23 H 0.3975 0.3255 0.0871 0.0300 Uiso
O14 O 0.0370(2) 0.3161(2) 0.9103(2) 0.0223 Uani
Tb5 Tb 0.912834(16) 0.190312(14) 0.001218(14) 0.0160 Uani
O6 O 0.9508(3) 0.0663(2) 0.1292(2) 0.0241 Uani
C29 C 0.9934(4) 0.0656(3) 0.3671(3) 0.0212 Uani
H17 H 0.9837 0.1337 0.3399 0.0250 Uiso
C44 C 0.9931(4) 0.0203(3) 0.7026(3) 0.0200 Uani
C45 C 0.9898(4) 0.0043(3) 0.8219(3) 0.0180 Uani
O11 O 0.9286(3) 0.0632(2) 0.8653(2) 0.0231 Uani
C46 C 0.9795(4) 0.1247(3) 0.6635(3) 0.0255 Uani
H24 H 0.9694 0.1828 0.7114 0.0310 Uiso
C47 C 0.9809(4) 0.1403(3) 0.5551(3) 0.0270 Uani
H25 H 0.9732 0.2097 0.5303 0.0320 Uiso
C48 C 0.9939(4) 0.0530(3) 0.4810(3) 0.0209 Uani
O2 O 0.9969(3) 0.6558(3) 0.8487(3) 0.0401 Uani
O4 O 0.8442(3) 0.7705(2) 0.9630(2) 0.0253 Uani
C17 C 0.9643(4) 0.5448(4) 0.6331(4) 0.0315 Uani
H11 H 0.8962 0.5292 0.6660 0.0380 Uiso
C23 C 0.6092(4) 0.6205(3) 0.9626(3) 0.0245 Uani
H14 H 0.6025 0.6745 0.9129 0.0300 Uiso
C32 C 0.9222(4) 0.3778(3) 0.3091(3) 0.0238 Uani
C33 C 0.9081(4) 0.3207(3) 0.1932(3) 0.0249 Uani
O7 O 0.8047(3) 0.2492(2) 0.1391(2) 0.0237 Uani
C34 C 0.8193(4) 0.3545(4) 0.3588(4) 0.0299 Uani
H18 H 0.7419 0.3020 0.3197 0.0360 Uiso
C35 C 0.8315(5) 0.4072(4) 0.4624(4) 0.0377 Uani
H19 H 0.7624 0.3904 0.4939 0.0450 Uiso
C36 C 0.9484(4) 0.4880(4) 0.5244(3) 0.0275 Uani
C38 C 0.2711(4) 0.3812(3) 0.9636(3) 0.0202 Uani
C39 C 0.1475(4) 0.3039(3) 0.9696(3) 0.0195 Uani
C40 C 0.2589(4) 0.4592(4) 0.8842(4) 0.0313 Uani
H21 H 0.1770 0.4574 0.8321 0.0380 Uiso
C41 C 0.3683(4) 0.5375(4) 0.8840(4) 0.0358 Uani
H22 H 0.3598 0.5898 0.8326 0.0430 Uiso
C42 C 0.4940(4) 0.5397(3) 0.9611(3) 0.0229 Uani
N3 N 0.6783(3) 0.0743(3) 0.9170(3) 0.0212 Uani
N4 N 0.7530(3) 0.2914(3) 0.8792(3) 0.0211 Uani
C52 C 0.4501(4) 0.0671(4) 0.8087(4) 0.0305 Uani
C53 C 0.3552(4) 0.1238(4) 0.7442(4) 0.0425 Uani
H30 H 0.2671 0.0858 0.7135 0.0510 Uiso
C54 C 0.3924(4) 0.2321(4) 0.7273(4) 0.0424 Uani
H31 H 0.3290 0.2680 0.6865 0.0510 Uiso
C55 C 0.5268(4) 0.2921(4) 0.7711(4) 0.0307 Uani
C56 C 0.5707(4) 0.4028(4) 0.7511(4) 0.0350 Uani
H32 H 0.5106 0.4407 0.7087 0.0420 Uiso
C57 C 0.7002(4) 0.4542(4) 0.7933(4) 0.0309 Uani
H33 H 0.7298 0.5273 0.7801 0.0370 Uiso
C58 C 0.7894(4) 0.3962(3) 0.8570(4) 0.0262 Uani
H34 H 0.8783 0.4325 0.8852 0.0310 Uiso
C59 C 0.6224(4) 0.2397(3) 0.8360(3) 0.0235 Uani
C60 C 0.5824(4) 0.1236(3) 0.8554(3) 0.0216 Uani
C49 C 0.6423(4) 0.9675(3) 0.9319(4) 0.0268 Uani
H27 H 0.7066 0.9326 0.9731 0.0320 Uiso
C50 C 0.5121(4) 0.9051(4) 0.8886(4) 0.0314 Uani
H28 H 0.4913 0.8303 0.9009 0.0380 Uiso
C51 C 0.4159(4) 0.9537(4) 0.8285(4) 0.0329 Uani
H29 H 0.3286 0.9132 0.8007 0.0390 Uiso
loop_
_atom_site_aniso_label
_atom_site_aniso_U_11
_atom_site_aniso_U_22
_atom_site_aniso_U_33
_atom_site_aniso_U_23
_atom_site_aniso_U_13
_atom_site_aniso_U_12
C1 0.031 0.022 0.031 0.0008 0.0157 0.0057
C2 0.033 0.019 0.041 -0.001 0.017 -0.0042
C3 0.022 0.031 0.04 -0.005 0.0106 -0.0058
O5 0.0245 0.0262 0.0199 0.0007 0.0094 0.0058
N1 0.025 0.0179 0.0212 -0.0005 0.0095 0.0033
N2 0.0193 0.0206 0.0233 0.001 0.0061 0.005
C4 0.018 0.037 0.035 0.002 0.0085 0.0025
C5 0.018 0.05 0.051 0.003 0.001 0.003
C6 0.016 0.053 0.056 0.016 0.001 0.014
C7 0.025 0.036 0.03 0.0045 0.0037 0.011
C8 0.031 0.04 0.039 0.014 0.008 0.02
C9 0.035 0.028 0.037 0.0115 0.014 0.0168
C10 0.024 0.025 0.03 0.0042 0.0076 0.0068
C11 0.021 0.025 0.025 0.0031 0.0081 0.0044
C12 0.017 0.025 0.022 0.0001 0.0069 0.0023
C25 0.0148 0.0213 0.0169 0.0025 0.0062 -0.0007
C26 0.018 0.026 0.0162 0.0054 0.0043 0.0055
C27 0.033 0.026 0.021 0.0041 0.0098 0.0118
C28 0.042 0.024 0.022 0.0092 0.0144 0.0146
C30 0.023 0.024 0.0177 0.0036 0.0068 0.0086
C43 0.023 0.023 0.02 0.0068 0.0059 0.0103
O12 0.0313 0.0279 0.0165 0.0066 0.0079 0.0121
Tb6 0.01565 0.01677 0.01495 0.00183 0.00445 0.00273
O1 0.0202 0.0227 0.0254 -0.0018 0.005 0.0027
C13 0.036 0.019 0.021 0 0.0107 0.0072
C14 0.032 0.02 0.02 0.0014 0.0088 0.0064
C15 0.026 0.032 0.027 -0.0025 0.0078 -0.0025
C16 0.032 0.044 0.033 -0.01 0.018 -0.008
C18 0.025 0.029 0.025 -0.0035 0.0078 -0.0003
C31 0.029 0.037 0.027 -0.0055 0.0143 -0.0019
O8 0.0378 0.0424 0.0329 -0.0162 0.022 -0.0173
O15 0.0195 0.0275 0.0285 0.0112 0.0056 0.0035
O3 0.014 0.026 0.0275 0.0089 0.007 0.003
C19 0.018 0.023 0.0168 0.0017 0.0056 0.0027
C20 0.0137 0.022 0.025 0.0097 0.0051 0.0027
C21 0.017 0.035 0.037 0.016 0.0005 0.0014
C22 0.023 0.039 0.043 0.026 0.0034 0.0034
C24 0.017 0.021 0.032 0.0096 0.0081 0.0039
C37 0.024 0.021 0.03 0.0125 0.0076 0.0056
O14 0.014 0.026 0.0275 0.0089 0.007 0.003
Tb5 0.01565 0.01677 0.01495 0.00183 0.00445 0.00273
O6 0.0313 0.0279 0.0165 0.0066 0.0079 0.0121
C29 0.023 0.023 0.02 0.0068 0.0059 0.0103
C44 0.018 0.026 0.0162 0.0054 0.0043 0.0055
C45 0.0148 0.0213 0.0169 0.0025 0.0062 -0.0007
O11 0.0245 0.0262 0.0199 0.0007 0.0094 0.0058
C46 0.033 0.026 0.021 0.0041 0.0098 0.0118
C47 0.042 0.024 0.022 0.0092 0.0144 0.0146
C48 0.023 0.024 0.0177 0.0036 0.0068 0.0086
O2 0.0378 0.0424 0.0329 -0.0162 0.022 -0.0173
O4 0.0195 0.0275 0.0285 0.0112 0.0056 0.0035
C17 0.029 0.037 0.027 -0.0055 0.0143 -0.0019
C23 0.024 0.021 0.03 0.0125 0.0076 0.0056
C32 0.032 0.02 0.02 0.0014 0.0088 0.0064
C33 0.036 0.019 0.021 0 0.0107 0.0072
O7 0.0202 0.0227 0.0254 -0.0018 0.005 0.0027
C34 0.026 0.032 0.027 -0.0025 0.0078 -0.0025
C35 0.032 0.044 0.033 -0.01 0.018 -0.008
C36 0.025 0.029 0.025 -0.0035 0.0078 -0.0003
C38 0.0137 0.022 0.025 0.0097 0.0051 0.0027
C39 0.018 0.023 0.0168 0.0017 0.0056 0.0027
C40 0.017 0.035 0.037 0.016 0.0005 0.0014
C41 0.023 0.039 0.043 0.026 0.0034 0.0034
C42 0.017 0.021 0.032 0.0096 0.0081 0.0039
N3 0.025 0.0179 0.0212 -0.0005 0.0095 0.0033
N4 0.0193 0.0206 0.0233 0.001 0.0061 0.005
C52 0.018 0.037 0.035 0.002 0.0085 0.0025
C53 0.018 0.05 0.051 0.003 0.001 0.003
C54 0.016 0.053 0.056 0.016 0.001 0.014
C55 0.025 0.036 0.03 0.0045 0.0037 0.011
C56 0.031 0.04 0.039 0.014 0.008 0.02
C57 0.035 0.028 0.037 0.0115 0.014 0.0168
C58 0.024 0.025 0.03 0.0042 0.0076 0.0068
C59 0.021 0.025 0.025 0.0031 0.0081 0.0044
C60 0.017 0.025 0.022 0.0001 0.0069 0.0023
C49 0.031 0.022 0.031 0.0008 0.0157 0.0057
C50 0.033 0.019 0.041 -0.001 0.017 -0.0042
C51 0.022 0.031 0.04 -0.005 0.0106 -0.0058
loop_
_geom_bond_atom_site_label_1
_geom_bond_atom_site_label_2
_geom_bond_site_symmetry_1
_geom_bond_site_symmetry_2
H1 C1 1_555 1_555
C2 C1 1_555 1_555
H2 C2 1_555 1_555
C3 C2 1_555 1_555
H3 C3 1_555 1_555
C5 C4 1_555 1_555
H4 C5 1_555 1_555
C6 C5 1_555 1_555
H5 C6 1_555 1_555
C7 C6 1_555 1_555
C8 C7 1_555 1_555
H6 C8 1_555 1_555
C9 C8 1_555 1_555
H7 C9 1_555 1_555
C10 N2 1_555 1_555
H8 C10 1_555 1_555
C11 N2 1_555 1_555
C12 N1 1_555 1_555
C25 O5 1_555 1_555
C26 C25 1_555 1_555
C27 C26 1_555 1_555
H15 C27 1_555 1_555
C28 C27 1_555 1_555
H16 C28 1_555 1_555
C30 C28 1_555 1_555
C43 C30 1_555 1_555
H26 C43 1_555 1_555
Tb6 O12 1_555 1_555
C4 C12 1_555 1_555
C7 C11 1_555 1_555
C9 C10 1_555 1_555
C11 C12 1_555 1_555
Tb6 O1 1_555 1_555
O1 C13 1_555 1_555
C14 C13 1_555 1_555
C15 C14 1_555 1_555
H9 C15 1_555 1_555
C16 C15 1_555 1_555
H10 C16 1_555 1_555
C18 C16 1_555 1_555
C31 C18 1_555 1_555
H20 C31 1_555 1_555
C19 O3 1_555 1_555
C20 C19 1_555 1_555
C21 C20 1_555 1_555
H12 C21 1_555 1_555
C22 C21 1_555 1_555
H13 C22 1_555 1_555
C24 C22 1_555 1_555
C37 C24 1_555 1_555
H23 C37 1_555 1_555
H17 C29 1_555 1_555
C45 C44 1_555 1_555
O11 C45 1_555 1_555
C46 C44 1_555 1_555
H24 C46 1_555 1_555
C47 C46 1_555 1_555
H25 C47 1_555 1_555
C48 C29 1_555 1_555
Tb5 O6 1_555 1_555
C47 C48 1_555 1_555
H11 C17 1_555 1_555
H14 C23 1_555 1_555
C33 C32 1_555 1_555
O7 C33 1_555 1_555
C34 C32 1_555 1_555
H18 C34 1_555 1_555
C35 C34 1_555 1_555
H19 C35 1_555 1_555
C36 C17 1_555 1_555
C39 C38 1_555 1_555
O14 C39 1_555 1_555
C40 C38 1_555 1_555
H21 C40 1_555 1_555
C41 C40 1_555 1_555
H22 C41 1_555 1_555
C42 C23 1_555 1_555
Tb5 O7 1_555 1_555
C35 C36 1_555 1_555
C41 C42 1_555 1_555
C53 C52 1_555 1_555
H30 C53 1_555 1_555
C54 C53 1_555 1_555
H31 C54 1_555 1_555
C55 C54 1_555 1_555
C56 C55 1_555 1_555
H32 C56 1_555 1_555
C57 C56 1_555 1_555
H33 C57 1_555 1_555
C58 N4 1_555 1_555
H34 C58 1_555 1_555
C59 N4 1_555 1_555
C60 N3 1_555 1_555
C52 C60 1_555 1_555
C55 C59 1_555 1_555
C57 C58 1_555 1_555
C59 C60 1_555 1_555
H27 C49 1_555 1_555
C50 C49 1_555 1_555
H28 C50 1_555 1_555
C51 C50 1_555 1_555
H29 C51 1_555 1_555

#END
