
###############################################################################
#
# This file contains modified crystal structure data generated from the
# MOF subset of the Cambridge Structural Database (CSD) v543 
# hosted by the Cambridge Crystallographic Data Centre (CCDC).
#
# This work is licensed under the Creative Commons
# Attribution-NonCommercial-ShareAlike 4.0 International License.
# To view a copy of this license, visit
# http://creativecommons.org/licenses/by-nc-sa/4.0/
# or send a letter to
# Creative Commons, PO Box 1866, Mountain View, CA 94042, USA.
#
# CIF created using the CSD Python API on 29 September 2022
# The structure has been converted into the P1 space group
# The structure has a 3D framework
# The original CSD entry DACXUB is in the triclinic crystal system
# The framework has been calculated to contain at least 10.0% void space
# The void calculation uses a probe of radius 1.32A, grid spacing 0.4
#
###############################################################################

data_DACXUB
_chemical_formula_moiety         '(C60 H34 Ho1 N4 O10)n'
_symmetry_cell_setting           triclinic
_symmetry_space_group_name_H-M   'P 1'
_symmetry_Int_Tables_number      1
_space_group_name_Hall           'P 1'
loop_
_symmetry_equiv_pos_site_id
_symmetry_equiv_pos_as_xyz
1 x,y,z
_cell_length_a                   10.802(6)
_cell_length_b                   12.143(6)
_cell_length_c                   12.245(7)
_cell_angle_alpha                94.031(11)
_cell_angle_beta                 106.641(9)
_cell_angle_gamma                101.356(9)
_cell_volume                     1494.98
loop_
_atom_site_label
_atom_site_type_symbol
_atom_site_fract_x
_atom_site_fract_y
_atom_site_fract_z
_atom_site_U_iso_or_equiv
_atom_site_thermal_displace_type
C19 C 0.3481(8) 0.0328(7) 0.0641(7) 0.0414 Uani
H10 H 0.2827 0.0667 0.0226 0.0500 Uiso
C20 C 0.4783(9) 0.0966(7) 0.1065(8) 0.0503 Uani
H11 H 0.4992 0.1714 0.0928 0.0600 Uiso
C21 C 0.5744(9) 0.0479(8) 0.1682(8) 0.0507 Uani
H12 H 0.6618 0.0893 0.1970 0.0610 Uiso
O1 O 0.0680(5) 0.9344(4) 0.1333(4) 0.0307 Uani
N1 N 0.3142(6) 0.9268(5) 0.0803(5) 0.0269 Uani
N2 N 0.2424(5) 0.7109(5) 0.1202(5) 0.0257 Uani
C1 C 0.0084(7) 0.9940(6) 0.1766(6) 0.0206 Uani
C2 C 0.0065(6) 0.9793(6) 0.2967(5) 0.0209 Uani
C3 C 0.0152(7) 0.8736(6) 0.3349(6) 0.0324 Uani
H1 H 0.0219 0.8141 0.2864 0.0390 Uiso
C4 C 0.0136(8) 0.8597(6) 0.4439(6) 0.0368 Uani
H2 H 0.0186 0.7896 0.4687 0.0450 Uiso
C5 C 0.0045(7) 0.9472(5) 0.5196(6) 0.0241 Uani
C22 C 0.5417(8) 0.9371(7) 0.1881(7) 0.0418 Uani
C23 C 0.6366(9) 0.8810(9) 0.2544(9) 0.0682 Uani
H13 H 0.7243 0.9204 0.2869 0.0820 Uiso
C24 C 0.6015(9) 0.7733(8) 0.2705(9) 0.0631 Uani
H14 H 0.6660 0.7377 0.3107 0.0760 Uiso
C25 C 0.4684(8) 0.7124(7) 0.2278(7) 0.0391 Uani
C26 C 0.4248(9) 0.6014(7) 0.2494(8) 0.0553 Uani
H15 H 0.4853 0.5642 0.2929 0.0670 Uiso
C27 C 0.2962(9) 0.5495(7) 0.2074(8) 0.0460 Uani
H16 H 0.2668 0.4759 0.2208 0.0550 Uiso
C28 C 0.2077(8) 0.6063(6) 0.1439(7) 0.0357 Uani
H17 H 0.1187 0.5692 0.1160 0.0430 Uiso
C29 C 0.3717(7) 0.7657(6) 0.1638(6) 0.0278 Uani
C30 C 0.4103(7) 0.8791(6) 0.1415(6) 0.0305 Uani
C51 C 0.0052(7) 0.9350(6) 0.6335(6) 0.0298 Uani
H30 H 0.0138 0.8665 0.6609 0.0350 Uiso
O15 O 0.0456(5) 0.9329(4) 0.8717(4) 0.0334 Uani
Ho5 Ho 0.08300(3) 0.80966(3) 0.99812(3) 0.0209 Uani
O4 O 0.1913(5) 0.7515(4) 0.8616(4) 0.0315 Uani
C7 C 0.0880(8) 0.6825(6) 0.8067(7) 0.0305 Uani
C8 C 0.0750(7) 0.6234(6) 0.6908(6) 0.0278 Uani
C12 C 0.1793(7) 0.6449(7) 0.6436(6) 0.0396 Uani
H6 H 0.2572 0.6974 0.6839 0.0480 Uiso
C52 C 0.0525(7) 0.5103(6) 0.4776(6) 0.0344 Uani
C53 C 0.0384(8) 0.4523(6) 0.3681(7) 0.0448 Uani
C54 C 0.1681(8) 0.5905(7) 0.5404(7) 0.0514 Uani
H31 H 0.1079 0.4667 0.3368 0.0540 Uiso
H32 H 0.2384 0.6065 0.5101 0.0620 Uiso
O16 O 0.0091(6) 0.3376(5) 0.1549(5) 0.0564 Uani
O5 O 0.9620(5) 0.6815(4) 0.0866(4) 0.0302 Uani
C13 C 0.8503(7) 0.6939(6) 0.0273(6) 0.0270 Uani
C14 C 0.7297(7) 0.6190(6) 0.0358(6) 0.0283 Uani
C18 C 0.7391(7) 0.5413(6) 0.1157(7) 0.0403 Uani
H9 H 0.8207 0.5427 0.1688 0.0480 Uiso
C31 C 0.5052(7) 0.4610(6) 0.0397(6) 0.0298 Uani
C32 C 0.3912(7) 0.3826(6) 0.0394(7) 0.0355 Uani
O13 O 0.1567(5) 0.2300(4) 0.0387(4) 0.0344 Uani
H27 H 0.3982 0.3305 0.0918 0.0420 Uiso
C48 C 0.6309(8) 0.4649(7) 0.1161(8) 0.0565 Uani
H28 H 0.6397 0.4131 0.1686 0.0680 Uiso
Ho4 Ho 0.91700(3) 0.19034(3) 0.00188(3) 0.0209 Uani
O2 O 0.9544(5) 0.0671(4) 0.1283(4) 0.0334 Uani
C6 C 0.9948(7) 0.0650(6) 0.3665(6) 0.0298 Uani
H3 H 0.9862 0.1335 0.3391 0.0350 Uiso
C49 C 0.9955(7) 0.0528(5) 0.4804(6) 0.0241 Uani
C50 C 0.9864(8) 0.1403(6) 0.5561(6) 0.0368 Uani
C56 C 0.9848(7) 0.1264(6) 0.6651(6) 0.0324 Uani
H29 H 0.9814 0.2104 0.5313 0.0450 Uiso
C57 C 0.9935(6) 0.0207(6) 0.7033(5) 0.0209 Uani
H34 H 0.9781 0.1859 0.7136 0.0390 Uiso
C59 C 0.9916(7) 0.0060(6) 0.8234(6) 0.0206 Uani
O14 O 0.9320(5) 0.0656(4) 0.8667(4) 0.0307 Uani
O3 O 0.9909(6) 0.6624(5) 0.8451(5) 0.0564 Uani
O6 O 0.8433(5) 0.7700(4) 0.9613(4) 0.0344 Uani
C9 C 0.9616(8) 0.5477(6) 0.6319(7) 0.0448 Uani
H4 H 0.8921 0.5333 0.6632 0.0540 Uiso
C10 C 0.9475(7) 0.4897(6) 0.5224(6) 0.0344 Uani
C11 C 0.8319(8) 0.4095(7) 0.4596(7) 0.0514 Uani
H5 H 0.7616 0.3935 0.4899 0.0620 Uiso
C15 C 0.6088(7) 0.6174(6) 0.9606(7) 0.0355 Uani
H7 H 0.6018 0.6695 0.9082 0.0420 Uiso
C16 C 0.4948(7) 0.5390(6) 0.9603(6) 0.0298 Uani
C17 C 0.3691(8) 0.5351(7) 0.8839(8) 0.0565 Uani
H8 H 0.3603 0.5869 0.8314 0.0680 Uiso
C33 C 0.2703(7) 0.3810(6) 0.9642(6) 0.0283 Uani
C34 C 0.1497(7) 0.3061(6) 0.9727(6) 0.0270 Uani
O8 O 0.0380(5) 0.3185(4) 0.9134(4) 0.0302 Uani
C47 C 0.2609(7) 0.4587(6) 0.8843(7) 0.0403 Uani
H26 H 0.1793 0.4573 0.8312 0.0480 Uiso
C55 C 0.8207(7) 0.3551(7) 0.3564(6) 0.0396 Uani
C58 C 0.9250(7) 0.3766(6) 0.3092(6) 0.0278 Uani
H33 H 0.7428 0.3026 0.3161 0.0480 Uiso
C60 C 0.9120(8) 0.3175(6) 0.1933(7) 0.0305 Uani
O17 O 0.8087(5) 0.2485(4) 0.1384(4) 0.0315 Uani
N3 N 0.6858(6) 0.0732(5) 0.9197(5) 0.0269 Uani
C38 C 0.4583(8) 0.0629(7) 0.8119(7) 0.0418 Uani
C39 C 0.3634(9) 0.1190(9) 0.7456(9) 0.0682 Uani
H21 H 0.2757 0.0796 0.7131 0.0820 Uiso
C40 C 0.3985(9) 0.2267(8) 0.7295(9) 0.0631 Uani
H22 H 0.3340 0.2623 0.6893 0.0760 Uiso
C41 C 0.5316(8) 0.2876(7) 0.7722(7) 0.0391 Uani
C42 C 0.5752(9) 0.3986(7) 0.7506(8) 0.0553 Uani
H23 H 0.5147 0.4358 0.7071 0.0670 Uiso
C43 C 0.7038(9) 0.4505(7) 0.7926(8) 0.0460 Uani
H24 H 0.7332 0.5241 0.7792 0.0550 Uiso
C44 C 0.7923(8) 0.3937(6) 0.8561(7) 0.0357 Uani
N4 N 0.7576(5) 0.2891(5) 0.8798(5) 0.0257 Uani
C45 C 0.6283(7) 0.2343(6) 0.8362(6) 0.0278 Uani
C46 C 0.5897(7) 0.1209(6) 0.8585(6) 0.0305 Uani
H25 H 0.8813 0.4308 0.8840 0.0430 Uiso
C35 C 0.6519(8) 0.9672(7) 0.9359(7) 0.0414 Uani
H18 H 0.7173 0.9333 0.9774 0.0500 Uiso
C36 C 0.5217(9) 0.9034(7) 0.8935(8) 0.0503 Uani
H19 H 0.5008 0.8286 0.9072 0.0600 Uiso
C37 C 0.4256(9) 0.9521(8) 0.8318(8) 0.0507 Uani
H20 H 0.3382 0.9107 0.8030 0.0610 Uiso
loop_
_atom_site_aniso_label
_atom_site_aniso_U_11
_atom_site_aniso_U_22
_atom_site_aniso_U_33
_atom_site_aniso_U_23
_atom_site_aniso_U_13
_atom_site_aniso_U_12
C19 0.046 0.039 0.04 -0.002 0.016 0.01
C20 0.053 0.03 0.065 -0.007 0.029 -0.009
C21 0.034 0.06 0.049 -0.006 0.013 -0.006
O1 0.039 0.033 0.022 0 0.014 0.007
N1 0.028 0.021 0.032 -0.001 0.015 -0.001
N2 0.023 0.029 0.024 0.006 0.005 0.006
C1 0.024 0.019 0.018 0.001 0.008 0.001
C2 0.019 0.032 0.013 0.002 0.009 0.003
C3 0.049 0.033 0.025 0.004 0.018 0.022
C4 0.063 0.026 0.029 0.009 0.018 0.02
C5 0.035 0.023 0.019 0.004 0.013 0.01
C22 0.037 0.036 0.044 -0.008 0.012 -0.006
C23 0.021 0.078 0.083 0 -0.008 -0.001
C24 0.034 0.065 0.086 0.015 0.004 0.021
C25 0.029 0.054 0.035 0.008 0.006 0.016
C26 0.055 0.06 0.058 0.031 0.01 0.032
C27 0.049 0.039 0.059 0.019 0.023 0.017
C28 0.029 0.031 0.048 0.007 0.014 0.005
C29 0.023 0.037 0.024 0.009 0.009 0.004
C30 0.024 0.033 0.031 0.004 0.004 0.005
C51 0.045 0.025 0.019 0.007 0.007 0.01
O15 0.043 0.036 0.026 0.012 0.012 0.015
Ho5 0.02233 0.02284 0.01595 0.00172 0.00625 0.00143
O4 0.032 0.033 0.025 -0.01 0.008 0.003
C7 0.04 0.02 0.03 0.004 0.009 0.006
C8 0.038 0.023 0.021 0 0.008 0.006
C12 0.029 0.048 0.031 -0.009 0.009 -0.011
C52 0.035 0.033 0.029 -0.006 0.01 -0.003
C53 0.043 0.048 0.038 -0.013 0.021 -0.008
C54 0.039 0.068 0.036 -0.023 0.023 -0.02
O16 0.053 0.062 0.038 -0.029 0.027 -0.031
O5 0.021 0.036 0.033 0.014 0.006 0.005
C13 0.027 0.029 0.025 0.002 0.014 -0.002
C14 0.024 0.025 0.041 0.013 0.017 0.004
C18 0.022 0.044 0.048 0.024 0.003 -0.003
C31 0.027 0.027 0.038 0.014 0.011 0.007
C32 0.029 0.03 0.048 0.014 0.011 0.006
O13 0.027 0.04 0.031 0.017 0.005 -0.003
C48 0.041 0.055 0.061 0.048 -0.003 -0.004
Ho4 0.02233 0.02284 0.01595 0.00172 0.00625 0.00143
O2 0.043 0.036 0.026 0.012 0.012 0.015
C6 0.045 0.025 0.019 0.007 0.007 0.01
C49 0.035 0.023 0.019 0.004 0.013 0.01
C50 0.063 0.026 0.029 0.009 0.018 0.02
C56 0.049 0.033 0.025 0.004 0.018 0.022
C57 0.019 0.032 0.013 0.002 0.009 0.003
C59 0.024 0.019 0.018 0.001 0.008 0.001
O14 0.039 0.033 0.022 0 0.014 0.007
O3 0.053 0.062 0.038 -0.029 0.027 -0.031
O6 0.027 0.04 0.031 0.017 0.005 -0.003
C9 0.043 0.048 0.038 -0.013 0.021 -0.008
C10 0.035 0.033 0.029 -0.006 0.01 -0.003
C11 0.039 0.068 0.036 -0.023 0.023 -0.02
C15 0.029 0.03 0.048 0.014 0.011 0.006
C16 0.027 0.027 0.038 0.014 0.011 0.007
C17 0.041 0.055 0.061 0.048 -0.003 -0.004
C33 0.024 0.025 0.041 0.013 0.017 0.004
C34 0.027 0.029 0.025 0.002 0.014 -0.002
O8 0.021 0.036 0.033 0.014 0.006 0.005
C47 0.022 0.044 0.048 0.024 0.003 -0.003
C55 0.029 0.048 0.031 -0.009 0.009 -0.011
C58 0.038 0.023 0.021 0 0.008 0.006
C60 0.04 0.02 0.03 0.004 0.009 0.006
O17 0.032 0.033 0.025 -0.01 0.008 0.003
N3 0.028 0.021 0.032 -0.001 0.015 -0.001
C38 0.037 0.036 0.044 -0.008 0.012 -0.006
C39 0.021 0.078 0.083 0 -0.008 -0.001
C40 0.034 0.065 0.086 0.015 0.004 0.021
C41 0.029 0.054 0.035 0.008 0.006 0.016
C42 0.055 0.06 0.058 0.031 0.01 0.032
C43 0.049 0.039 0.059 0.019 0.023 0.017
C44 0.029 0.031 0.048 0.007 0.014 0.005
N4 0.023 0.029 0.024 0.006 0.005 0.006
C45 0.023 0.037 0.024 0.009 0.009 0.004
C46 0.024 0.033 0.031 0.004 0.004 0.005
C35 0.046 0.039 0.04 -0.002 0.016 0.01
C36 0.053 0.03 0.065 -0.007 0.029 -0.009
C37 0.034 0.06 0.049 -0.006 0.013 -0.006
loop_
_geom_bond_atom_site_label_1
_geom_bond_atom_site_label_2
_geom_bond_site_symmetry_1
_geom_bond_site_symmetry_2
H10 C19 1_555 1_555
C20 C19 1_555 1_555
H11 C20 1_555 1_555
C21 C20 1_555 1_555
H12 C21 1_555 1_555
O1 C1 1_555 1_555
C1 C2 1_555 1_555
C2 C3 1_555 1_555
C3 H1 1_555 1_555
C4 C3 1_555 1_555
H2 C4 1_555 1_555
C5 C4 1_555 1_555
C23 C22 1_555 1_555
H13 C23 1_555 1_555
C24 C23 1_555 1_555
H14 C24 1_555 1_555
C25 C24 1_555 1_555
C26 C25 1_555 1_555
H15 C26 1_555 1_555
C27 C26 1_555 1_555
H16 C27 1_555 1_555
C28 N2 1_555 1_555
H17 C28 1_555 1_555
C29 N2 1_555 1_555
C30 N1 1_555 1_555
C51 C5 1_555 1_555
H30 C51 1_555 1_555
Ho5 O15 1_555 1_555
C22 C30 1_555 1_555
C25 C29 1_555 1_555
C27 C28 1_555 1_555
C29 C30 1_555 1_555
O4 Ho5 1_555 1_555
C8 C7 1_555 1_555
C12 C8 1_555 1_555
H6 C12 1_555 1_555
C53 C52 1_555 1_555
C54 C12 1_555 1_555
H31 C53 1_555 1_555
H32 C54 1_555 1_555
O4 C7 1_555 1_555
C52 C54 1_555 1_555
C13 O5 1_555 1_555
C14 C13 1_555 1_555
C18 C14 1_555 1_555
H9 C18 1_555 1_555
C32 C31 1_555 1_555
H27 C32 1_555 1_555
C48 C18 1_555 1_555
H28 C48 1_555 1_555
C31 C48 1_555 1_555
H3 C6 1_555 1_555
Ho4 O2 1_555 1_555
C50 C49 1_555 1_555
C56 C50 1_555 1_555
H29 C50 1_555 1_555
H34 C56 1_555 1_555
C59 C57 1_555 1_555
O14 C59 1_555 1_555
C6 C49 1_555 1_555
C56 C57 1_555 1_555
H4 C9 1_555 1_555
C10 C9 1_555 1_555
C11 C10 1_555 1_555
H5 C11 1_555 1_555
H7 C15 1_555 1_555
C16 C15 1_555 1_555
C17 C16 1_555 1_555
H8 C17 1_555 1_555
C34 C33 1_555 1_555
O8 C34 1_555 1_555
C47 C17 1_555 1_555
H26 C47 1_555 1_555
C55 C11 1_555 1_555
H33 C55 1_555 1_555
C60 C58 1_555 1_555
O17 C60 1_555 1_555
C33 C47 1_555 1_555
C55 C58 1_555 1_555
O17 Ho4 1_555 1_555
C39 C38 1_555 1_555
H21 C39 1_555 1_555
C40 C39 1_555 1_555
H22 C40 1_555 1_555
C41 C40 1_555 1_555
C42 C41 1_555 1_555
H23 C42 1_555 1_555
C43 C42 1_555 1_555
H24 C43 1_555 1_555
C44 C43 1_555 1_555
C45 C41 1_555 1_555
C46 N3 1_555 1_555
H25 C44 1_555 1_555
C38 C46 1_555 1_555
C44 N4 1_555 1_555
N4 C45 1_555 1_555
C45 C46 1_555 1_555
H18 C35 1_555 1_555
C36 C35 1_555 1_555
H19 C36 1_555 1_555
C37 C36 1_555 1_555
H20 C37 1_555 1_555

#END
