
###############################################################################
#
# This file contains modified crystal structure data generated from the
# MOF subset of the Cambridge Structural Database (CSD) v543 
# hosted by the Cambridge Crystallographic Data Centre (CCDC).
#
# This work is licensed under the Creative Commons
# Attribution-NonCommercial-ShareAlike 4.0 International License.
# To view a copy of this license, visit
# http://creativecommons.org/licenses/by-nc-sa/4.0/
# or send a letter to
# Creative Commons, PO Box 1866, Mountain View, CA 94042, USA.
#
# CIF created using the CSD Python API on 29 September 2022
# The structure has been converted into the P1 space group
# The structure has a 3D framework
# The original CSD entry DACYAI is in the triclinic crystal system
# The framework has been calculated to contain at least 10.0% void space
# The void calculation uses a probe of radius 1.32A, grid spacing 0.4
#
###############################################################################

data_DACYAI
_chemical_formula_moiety         '(C60 H34 N4 O10 Yb2)n'
_symmetry_cell_setting           triclinic
_symmetry_space_group_name_H-M   'P 1'
_symmetry_Int_Tables_number      1
_space_group_name_Hall           'P 1'
loop_
_symmetry_equiv_pos_site_id
_symmetry_equiv_pos_as_xyz
1 x,y,z
_cell_length_a                   10.8762(2)
_cell_length_b                   12.2294(3)
_cell_length_c                   12.3328(3)
_cell_angle_alpha                93.9317(11)
_cell_angle_beta                 106.6736(11)
_cell_angle_gamma                101.2612(13)
_cell_volume                     1527.54
loop_
_atom_site_label
_atom_site_type_symbol
_atom_site_fract_x
_atom_site_fract_y
_atom_site_fract_z
_atom_site_U_iso_or_equiv
_atom_site_thermal_displace_type
C1 C 0.3534(6) 0.0324(4) 0.0669(5) 0.0323 Uani
H1 H 0.2889 0.0667 0.0257 0.0390 Uiso
C2 C 0.4836(6) 0.0962(5) 0.1092(6) 0.0435 Uani
H2 H 0.5044 0.1705 0.0958 0.0520 Uiso
C3 C 0.5777(6) 0.0478(5) 0.1696(6) 0.0446 Uani
H3 H 0.6644 0.0889 0.1978 0.0530 Uiso
O5 O 0.0693(3) 0.9346(3) 0.1352(3) 0.0246 Uani
N1 N 0.3176(4) 0.9269(3) 0.0822(3) 0.0228 Uani
N2 N 0.2453(4) 0.7101(3) 0.1220(3) 0.0226 Uani
C4 C 0.5461(5) 0.9351(5) 0.1906(5) 0.0380 Uani
C5 C 0.6392(6) 0.8779(6) 0.2548(6) 0.0564 Uani
H4 H 0.7266 0.9163 0.2862 0.0680 Uiso
C6 C 0.6052(6) 0.7724(7) 0.2710(7) 0.0594 Uani
H5 H 0.6698 0.7374 0.3106 0.0710 Uiso
C7 C 0.4705(5) 0.7100(5) 0.2288(5) 0.0403 Uani
C8 C 0.4273(6) 0.6017(6) 0.2485(6) 0.0477 Uani
H6 H 0.4879 0.5643 0.2904 0.0570 Uiso
C9 C 0.2981(6) 0.5485(5) 0.2079(6) 0.0420 Uani
H7 H 0.2692 0.4757 0.2221 0.0500 Uiso
C10 C 0.2104(5) 0.6063(4) 0.1445(5) 0.0309 Uani
H8 H 0.1219 0.5699 0.1163 0.0370 Uiso
C11 C 0.3748(5) 0.7630(4) 0.1634(4) 0.0249 Uani
C12 C 0.4129(5) 0.8781(4) 0.1438(4) 0.0251 Uani
C25 C 0.0090(4) 0.9941(4) 0.1774(4) 0.0190 Uani
C26 C 0.0056(5) 0.9780(4) 0.2972(4) 0.0199 Uani
C27 C 0.0162(5) 0.8737(4) 0.3364(4) 0.0278 Uani
H15 H 0.0242 0.8149 0.2888 0.0340 Uiso
C28 C 0.0145(6) 0.8594(4) 0.4454(4) 0.0310 Uani
H16 H 0.0197 0.7901 0.4706 0.0370 Uiso
C30 C 0.0049(5) 0.9471(4) 0.5194(4) 0.0205 Uani
C43 C 0.0054(5) 0.9351(4) 0.6331(4) 0.0236 Uani
O12 O 0.0467(3) 0.9347(3) 0.8713(3) 0.0267 Uani
H26 H 0.0134 0.8670 0.6606 0.0290 Uiso
Yb6 Yb 0.08402(2) 0.809722(18) 0.998122(17) 0.0224 Uani
O1 O 0.1917(3) 0.7514(3) 0.8602(3) 0.0272 Uani
C13 C 0.0884(5) 0.6816(4) 0.8058(4) 0.0275 Uani
C14 C 0.0752(5) 0.6231(4) 0.6892(4) 0.0270 Uani
C15 C 0.1794(5) 0.6458(5) 0.6425(5) 0.0341 Uani
H9 H 0.2559 0.6988 0.6821 0.0410 Uiso
C16 C 0.1693(6) 0.5914(5) 0.5407(5) 0.0462 Uani
H10 H 0.2396 0.6062 0.5113 0.0550 Uiso
C18 C 0.0518(5) 0.5110(5) 0.4772(5) 0.0317 Uani
C31 C 0.0364(6) 0.4528(5) 0.3689(5) 0.0374 Uani
O8 O 0.0085(4) 0.3390(4) 0.1557(3) 0.0521 Uani
H20 H 0.1049 0.4674 0.3371 0.0450 Uiso
O15 O 0.1573(3) 0.2309(3) 0.0379(3) 0.0291 Uani
O3 O 0.9609(3) 0.6813(3) 0.0867(3) 0.0269 Uani
C19 C 0.8513(5) 0.6936(4) 0.0288(4) 0.0223 Uani
C20 C 0.7284(5) 0.6167(4) 0.0344(5) 0.0274 Uani
C21 C 0.7400(5) 0.5398(5) 0.1138(5) 0.0417 Uani
H12 H 0.8218 0.5411 0.1653 0.0500 Uiso
C22 C 0.6309(5) 0.4626(5) 0.1159(6) 0.0454 Uani
H13 H 0.6396 0.4114 0.1686 0.0550 Uiso
C24 C 0.5060(5) 0.4599(4) 0.0395(5) 0.0290 Uani
C37 C 0.3903(5) 0.3817(5) 0.0380(5) 0.0339 Uani
H23 H 0.3965 0.3281 0.0881 0.0410 Uiso
O14 O 0.0391(3) 0.3187(3) 0.9133(3) 0.0269 Uani
Yb5 Yb 0.91598(2) 0.190278(18) 0.001878(17) 0.0224 Uani
O6 O 0.9533(3) 0.0653(3) 0.1287(3) 0.0267 Uani
C29 C 0.9946(5) 0.0649(4) 0.3669(4) 0.0236 Uani
H17 H 0.9866 0.1330 0.3394 0.0290 Uiso
C44 C 0.9944(5) 0.0220(4) 0.7028(4) 0.0199 Uani
C45 C 0.9910(4) 0.0059(4) 0.8226(4) 0.0190 Uani
O11 O 0.9307(3) 0.0654(3) 0.8648(3) 0.0246 Uani
C46 C 0.9838(5) 0.1263(4) 0.6636(4) 0.0278 Uani
H24 H 0.9758 0.1851 0.7112 0.0340 Uiso
C47 C 0.9855(6) 0.1406(4) 0.5546(4) 0.0310 Uani
H25 H 0.9803 0.2099 0.5294 0.0370 Uiso
C48 C 0.9951(5) 0.0529(4) 0.4806(4) 0.0205 Uani
O2 O 0.9915(4) 0.6610(4) 0.8443(3) 0.0521 Uani
O4 O 0.8427(3) 0.7691(3) 0.9621(3) 0.0291 Uani
C17 C 0.9636(6) 0.5472(5) 0.6311(5) 0.0374 Uani
H11 H 0.8951 0.5326 0.6629 0.0450 Uiso
C23 C 0.6097(5) 0.6183(5) 0.9620(5) 0.0339 Uani
H14 H 0.6035 0.6719 0.9119 0.0410 Uiso
C32 C 0.9248(5) 0.3769(4) 0.3108(4) 0.0270 Uani
C33 C 0.9116(5) 0.3184(4) 0.1942(4) 0.0275 Uani
O7 O 0.8083(3) 0.2486(3) 0.1398(3) 0.0272 Uani
C34 C 0.8206(5) 0.3542(5) 0.3575(5) 0.0341 Uani
H18 H 0.7441 0.3012 0.3179 0.0410 Uiso
C35 C 0.8307(6) 0.4086(5) 0.4593(5) 0.0462 Uani
H19 H 0.7604 0.3938 0.4887 0.0550 Uiso
C36 C 0.9482(5) 0.4890(5) 0.5228(5) 0.0317 Uani
C38 C 0.2716(5) 0.3833(4) 0.9656(5) 0.0274 Uani
C39 C 0.1487(5) 0.3064(4) 0.9712(4) 0.0223 Uani
C40 C 0.2600(5) 0.4602(5) 0.8862(5) 0.0417 Uani
H21 H 0.1782 0.4589 0.8347 0.0500 Uiso
C41 C 0.3691(5) 0.5374(5) 0.8841(6) 0.0454 Uani
H22 H 0.3604 0.5886 0.8314 0.0550 Uiso
C42 C 0.4940(5) 0.5401(4) 0.9605(5) 0.0290 Uani
N3 N 0.6824(4) 0.0731(3) 0.9178(3) 0.0228 Uani
N4 N 0.7547(4) 0.2899(3) 0.8780(3) 0.0226 Uani
C52 C 0.4539(5) 0.0649(5) 0.8094(5) 0.0380 Uani
C53 C 0.3608(6) 0.1221(6) 0.7452(6) 0.0564 Uani
H30 H 0.2734 0.0837 0.7138 0.0680 Uiso
C54 C 0.3948(6) 0.2276(7) 0.7290(7) 0.0594 Uani
H31 H 0.3302 0.2626 0.6894 0.0710 Uiso
C55 C 0.5295(5) 0.2900(5) 0.7712(5) 0.0403 Uani
C56 C 0.5727(6) 0.3983(6) 0.7515(6) 0.0477 Uani
H32 H 0.5121 0.4357 0.7096 0.0570 Uiso
C57 C 0.7019(6) 0.4515(5) 0.7921(6) 0.0420 Uani
H33 H 0.7308 0.5243 0.7779 0.0500 Uiso
C58 C 0.7896(5) 0.3937(4) 0.8555(5) 0.0309 Uani
H34 H 0.8781 0.4301 0.8837 0.0370 Uiso
C59 C 0.6252(5) 0.2370(4) 0.8366(4) 0.0249 Uani
C60 C 0.5871(5) 0.1219(4) 0.8562(4) 0.0251 Uani
C49 C 0.6466(6) 0.9676(4) 0.9331(5) 0.0323 Uani
H27 H 0.7111 0.9333 0.9743 0.0390 Uiso
C50 C 0.5164(6) 0.9038(5) 0.8908(6) 0.0435 Uani
H28 H 0.4956 0.8295 0.9042 0.0520 Uiso
C51 C 0.4223(6) 0.9522(5) 0.8304(6) 0.0446 Uani
H29 H 0.3356 0.9111 0.8022 0.0530 Uiso
loop_
_atom_site_aniso_label
_atom_site_aniso_U_11
_atom_site_aniso_U_22
_atom_site_aniso_U_33
_atom_site_aniso_U_23
_atom_site_aniso_U_13
_atom_site_aniso_U_12
C1 0.039 0.022 0.038 0 0.017 0.005
C2 0.045 0.024 0.061 -0.005 0.029 -0.009
C3 0.025 0.042 0.06 -0.01 0.016 -0.007
O5 0.0312 0.0294 0.0169 -0.0017 0.0137 0.0073
N1 0.025 0.018 0.026 -0.002 0.0124 0.001
N2 0.022 0.023 0.024 0.0054 0.0077 0.0063
C4 0.02 0.044 0.044 -0.002 0.009 -0.003
C5 0.02 0.067 0.07 0.008 -0.001 0.004
C6 0.023 0.073 0.077 0.02 0 0.018
C7 0.026 0.047 0.047 0.011 0.003 0.017
C8 0.044 0.053 0.054 0.025 0.009 0.032
C9 0.047 0.033 0.057 0.018 0.023 0.02
C10 0.026 0.026 0.041 0.008 0.01 0.006
C11 0.019 0.028 0.028 0.004 0.006 0.008
C12 0.017 0.028 0.029 0 0.008 0.002
C25 0.02 0.022 0.013 0.0002 0.0064 -0.0015
C26 0.022 0.029 0.012 0.0058 0.0082 0.008
C27 0.045 0.027 0.018 0.005 0.014 0.016
C28 0.061 0.023 0.018 0.009 0.018 0.019
C30 0.027 0.019 0.02 0.0058 0.009 0.0118
C43 0.034 0.026 0.017 0.009 0.011 0.014
O12 0.038 0.032 0.0168 0.0115 0.0117 0.0159
Yb6 0.02305 0.0232 0.02041 0.00283 0.00745 0.0027
O1 0.0247 0.0282 0.025 -0.0069 0.0076 0.0013
C13 0.041 0.017 0.023 0.001 0.008 0.006
C14 0.038 0.021 0.022 0.001 0.01 0.006
C15 0.029 0.036 0.029 -0.011 0.01 -0.008
C16 0.035 0.054 0.041 -0.018 0.022 -0.017
C18 0.031 0.032 0.03 -0.004 0.014 -0.002
C31 0.04 0.037 0.033 -0.011 0.021 -0.006
O8 0.046 0.056 0.041 -0.027 0.028 -0.03
O15 0.0205 0.032 0.034 0.0163 0.006 0.0037
O3 0.0167 0.0299 0.034 0.0156 0.0076 0.0017
C19 0.024 0.022 0.022 0.004 0.01 0.003
C20 0.016 0.03 0.035 0.018 0.007 -0.001
C21 0.016 0.048 0.056 0.032 0.002 0
C22 0.022 0.048 0.061 0.039 0.002 0.001
C24 0.023 0.026 0.039 0.012 0.009 0.006
C37 0.033 0.027 0.046 0.021 0.016 0.005
O14 0.0167 0.0299 0.034 0.0156 0.0076 0.0017
Yb5 0.02305 0.0232 0.02041 0.00283 0.00745 0.0027
O6 0.038 0.032 0.0168 0.0115 0.0117 0.0159
C29 0.034 0.026 0.017 0.009 0.011 0.014
C44 0.022 0.029 0.012 0.0058 0.0082 0.008
C45 0.02 0.022 0.013 0.0002 0.0064 -0.0015
O11 0.0312 0.0294 0.0169 -0.0017 0.0137 0.0073
C46 0.045 0.027 0.018 0.005 0.014 0.016
C47 0.061 0.023 0.018 0.009 0.018 0.019
C48 0.027 0.019 0.02 0.0058 0.009 0.0118
O2 0.046 0.056 0.041 -0.027 0.028 -0.03
O4 0.0205 0.032 0.034 0.0163 0.006 0.0037
C17 0.04 0.037 0.033 -0.011 0.021 -0.006
C23 0.033 0.027 0.046 0.021 0.016 0.005
C32 0.038 0.021 0.022 0.001 0.01 0.006
C33 0.041 0.017 0.023 0.001 0.008 0.006
O7 0.0247 0.0282 0.025 -0.0069 0.0076 0.0013
C34 0.029 0.036 0.029 -0.011 0.01 -0.008
C35 0.035 0.054 0.041 -0.018 0.022 -0.017
C36 0.031 0.032 0.03 -0.004 0.014 -0.002
C38 0.016 0.03 0.035 0.018 0.007 -0.001
C39 0.024 0.022 0.022 0.004 0.01 0.003
C40 0.016 0.048 0.056 0.032 0.002 0
C41 0.022 0.048 0.061 0.039 0.002 0.001
C42 0.023 0.026 0.039 0.012 0.009 0.006
N3 0.025 0.018 0.026 -0.002 0.0124 0.001
N4 0.022 0.023 0.024 0.0054 0.0077 0.0063
C52 0.02 0.044 0.044 -0.002 0.009 -0.003
C53 0.02 0.067 0.07 0.008 -0.001 0.004
C54 0.023 0.073 0.077 0.02 0 0.018
C55 0.026 0.047 0.047 0.011 0.003 0.017
C56 0.044 0.053 0.054 0.025 0.009 0.032
C57 0.047 0.033 0.057 0.018 0.023 0.02
C58 0.026 0.026 0.041 0.008 0.01 0.006
C59 0.019 0.028 0.028 0.004 0.006 0.008
C60 0.017 0.028 0.029 0 0.008 0.002
C49 0.039 0.022 0.038 0 0.017 0.005
C50 0.045 0.024 0.061 -0.005 0.029 -0.009
C51 0.025 0.042 0.06 -0.01 0.016 -0.007
loop_
_geom_bond_atom_site_label_1
_geom_bond_atom_site_label_2
_geom_bond_site_symmetry_1
_geom_bond_site_symmetry_2
H1 C1 1_555 1_555
C2 C1 1_555 1_555
H2 C2 1_555 1_555
C3 C2 1_555 1_555
H3 C3 1_555 1_555
C5 C4 1_555 1_555
H4 C5 1_555 1_555
C6 C5 1_555 1_555
H5 C6 1_555 1_555
C7 C6 1_555 1_555
C8 C7 1_555 1_555
H6 C8 1_555 1_555
C9 C8 1_555 1_555
H7 C9 1_555 1_555
C10 N2 1_555 1_555
H8 C10 1_555 1_555
C11 N2 1_555 1_555
C12 N1 1_555 1_555
C25 O5 1_555 1_555
C26 C25 1_555 1_555
C27 C26 1_555 1_555
H15 C27 1_555 1_555
C28 C27 1_555 1_555
H16 C28 1_555 1_555
C30 C28 1_555 1_555
C43 C30 1_555 1_555
H26 C43 1_555 1_555
Yb6 O12 1_555 1_555
C4 C12 1_555 1_555
C7 C11 1_555 1_555
C9 C10 1_555 1_555
C11 C12 1_555 1_555
Yb6 O1 1_555 1_555
O1 C13 1_555 1_555
C14 C13 1_555 1_555
C15 C14 1_555 1_555
H9 C15 1_555 1_555
C16 C15 1_555 1_555
H10 C16 1_555 1_555
C18 C16 1_555 1_555
C31 C18 1_555 1_555
H20 C31 1_555 1_555
C19 O3 1_555 1_555
C20 C19 1_555 1_555
C21 C20 1_555 1_555
H12 C21 1_555 1_555
C22 C21 1_555 1_555
H13 C22 1_555 1_555
C24 C22 1_555 1_555
C37 C24 1_555 1_555
H23 C37 1_555 1_555
H17 C29 1_555 1_555
C45 C44 1_555 1_555
O11 C45 1_555 1_555
C46 C44 1_555 1_555
H24 C46 1_555 1_555
C47 C46 1_555 1_555
H25 C47 1_555 1_555
C48 C29 1_555 1_555
Yb5 O6 1_555 1_555
C47 C48 1_555 1_555
H11 C17 1_555 1_555
H14 C23 1_555 1_555
C33 C32 1_555 1_555
O7 C33 1_555 1_555
C34 C32 1_555 1_555
H18 C34 1_555 1_555
C35 C34 1_555 1_555
H19 C35 1_555 1_555
C36 C17 1_555 1_555
C39 C38 1_555 1_555
O14 C39 1_555 1_555
C40 C38 1_555 1_555
H21 C40 1_555 1_555
C41 C40 1_555 1_555
H22 C41 1_555 1_555
C42 C23 1_555 1_555
Yb5 O7 1_555 1_555
C35 C36 1_555 1_555
C41 C42 1_555 1_555
C53 C52 1_555 1_555
H30 C53 1_555 1_555
C54 C53 1_555 1_555
H31 C54 1_555 1_555
C55 C54 1_555 1_555
C56 C55 1_555 1_555
H32 C56 1_555 1_555
C57 C56 1_555 1_555
H33 C57 1_555 1_555
C58 N4 1_555 1_555
H34 C58 1_555 1_555
C59 N4 1_555 1_555
C60 N3 1_555 1_555
C52 C60 1_555 1_555
C55 C59 1_555 1_555
C57 C58 1_555 1_555
C59 C60 1_555 1_555
H27 C49 1_555 1_555
C50 C49 1_555 1_555
H28 C50 1_555 1_555
C51 C50 1_555 1_555
H29 C51 1_555 1_555

#END
