
###############################################################################
#
# This file contains modified crystal structure data generated from the
# MOF subset of the Cambridge Structural Database (CSD) v543 
# hosted by the Cambridge Crystallographic Data Centre (CCDC).
#
# This work is licensed under the Creative Commons
# Attribution-NonCommercial-ShareAlike 4.0 International License.
# To view a copy of this license, visit
# http://creativecommons.org/licenses/by-nc-sa/4.0/
# or send a letter to
# Creative Commons, PO Box 1866, Mountain View, CA 94042, USA.
#
# CIF created using the CSD Python API on 29 September 2022
# The structure has been converted into the P1 space group
# The structure has a 3D framework
# The original CSD entry DACYUE is in the monoclinic crystal system
# The framework has been calculated to contain at least 10.0% void space
# The void calculation uses a probe of radius 1.32A, grid spacing 0.4
# The framework is charged, counterions have been retained in the structure
#
###############################################################################

data_DACYUE
_chemical_formula_moiety         '(C104 H104 Mg6 N24 O40 8-)n'
_symmetry_cell_setting           triclinic
_symmetry_space_group_name_H-M   'P 1'
_symmetry_Int_Tables_number      1
_space_group_name_Hall           'P 1'
loop_
_symmetry_equiv_pos_site_id
_symmetry_equiv_pos_as_xyz
1 x,y,z
_cell_length_a                   10.7621(3)
_cell_length_b                   21.2484(6)
_cell_length_c                   15.5667(5)
_cell_angle_alpha                90
_cell_angle_beta                 102.881(3)
_cell_angle_gamma                90
_cell_volume                     3470.17
loop_
_atom_site_label
_atom_site_type_symbol
_atom_site_fract_x
_atom_site_fract_y
_atom_site_fract_z
Mg1 Mg 0.0000 0.14860(4) 0.2500
C2 C 0.0390(2) 0.37928(11) 0.09123(14)
H2 H 0.0987 0.3949 0.1391
O1 O 0.05753(17) 0.07958(9) 0.17395(12)
C6 C 0.0873(2) 0.02524(12) 0.15803(16)
N1 N 0.2048(2) 0.00202(13) 0.1706(2)
C8 C 0.3192(3) 0.0364(2) 0.2068(3)
H6 H 0.3734 0.0364 0.1655
H7 H 0.3628 0.0169 0.2607
H8 H 0.2978 0.0790 0.2184
O2 O 0.03280(14) 0.21790(7) 0.16309(10)
O3 O 0.14232(17) 0.30138(8) 0.22665(11)
C11 C 0.00601(19) 0.31602(10) 0.08771(14)
C12 C 0.0639(2) 0.27351(11) 0.16419(14)
N3 N 0.02326(19) 0.48334(9) 0.03240(12)
C16 C 0.1077(2) 0.60365(10) 0.04824(13)
H16 H 0.1463 0.5765 0.0932
C17 C 0.14001(19) 0.66677(10) 0.05203(13)
O8 O 0.23434(16) 0.74899(7) 0.14401(11)
C21 C 0.2377(2) 0.69015(10) 0.12999(13)
O9 O 0.31161(15) 0.65158(7) 0.17448(10)
H26 H 0.1527 0.0311 0.3939
Mg2 Mg 0.5000 0.64860(4) 0.2500
O13 O 0.18839(15) 0.15158(7) 0.32552(10)
C14 C 0.08173(19) 0.70701(10) 0.98402(13)
H14 H 0.1021 0.7496 0.9870
C18 C 0.0172(2) 0.58098(10) 0.97694(14)
Mg3 Mg -0.0000 0.85140(4) 0.7500
Mg1_2 Mg 1.0000 0.14860(4) 0.2500
C1 C 0.91827(19) 0.29299(10) 0.01598(13)
H1 H 0.8979 0.2504 0.0130
C5 C 0.9828(2) 0.41902(10) 0.02306(14)
H13 H 0.8473 0.0311 0.1061
O10 O 0.94247(17) 0.07958(9) 0.32605(12)
C22 C 0.9127(2) 0.02524(12) 0.34197(16)
N5 N 0.7952(2) 0.00202(13) 0.3294(2)
C24 C 0.6808(3) 0.0364(2) 0.2932(3)
H19 H 0.6266 0.0364 0.3345
H20 H 0.6372 0.0169 0.2393
H21 H 0.7022 0.0790 0.2816
O11 O 0.96720(14) 0.21790(7) 0.33691(10)
O12 O 0.81161(15) 0.15158(7) 0.17448(10)
C3 C 0.8923(2) 0.39635(10) 0.95176(13)
H3 H 0.8537 0.4235 0.9068
C4 C 0.85999(19) 0.33323(10) 0.94797(13)
O4 O 0.76566(16) 0.25101(7) 0.85599(11)
C13 C 0.7623(2) 0.30985(10) 0.87001(13)
O5 O 0.68839(15) 0.34842(7) 0.82552(10)
C15 C 0.9610(2) 0.62072(11) 0.90877(14)
H15 H 0.9013 0.6051 0.8609
O6 O 0.96720(14) 0.78210(7) 0.83691(10)
O7 O 0.85768(17) 0.69862(8) 0.77335(11)
C19 C 0.99399(19) 0.68398(10) 0.91229(14)
C20 C 0.9361(2) 0.72649(11) 0.83581(14)
N4 N 0.97674(19) 0.51666(9) 0.96760(12)
Mg3_2 Mg 1.0000 0.85140(4) 0.7500
Mg4 Mg 0.5000 0.35140(4) 0.7500
C1_2 C 0.08173(19) 0.29299(10) 0.48402(13)
H1_2 H 0.1021 0.2504 0.4870
C3_2 C 0.1077(2) 0.39635(10) 0.54824(13)
H3_2 H 0.1463 0.4235 0.5932
C4_2 C 0.14001(19) 0.33323(10) 0.55203(13)
C5_2 C 0.0172(2) 0.41902(10) 0.47694(14)
O4_2 O 0.23434(16) 0.25101(7) 0.64401(11)
C13_2 C 0.2377(2) 0.30985(10) 0.62999(13)
O5_2 O 0.31161(15) 0.34842(7) 0.67448(10)
C15_2 C 0.0390(2) 0.62072(11) 0.59123(14)
H15_2 H 0.0987 0.6051 0.6391
O6_2 O 0.03280(14) 0.78210(7) 0.66309(10)
O7_2 O 0.14232(17) 0.69862(8) 0.72665(11)
C19_2 C 0.00601(19) 0.68398(10) 0.58771(14)
C20_2 C 0.0639(2) 0.72649(11) 0.66419(14)
N4_2 N 0.02326(19) 0.51666(9) 0.53240(12)
C2_2 C 0.9610(2) 0.37928(11) 0.40877(14)
H2_2 H 0.9013 0.3949 0.3609
O3_2 O 0.85768(17) 0.30138(8) 0.27335(11)
C11_2 C 0.99399(19) 0.31602(10) 0.41229(14)
C12_2 C 0.9361(2) 0.27351(11) 0.33581(14)
N3_2 N 0.97674(19) 0.48334(9) 0.46760(12)
C14_2 C 0.91827(19) 0.70701(10) 0.51598(13)
H14_2 H 0.8979 0.7496 0.5130
C16_2 C 0.8923(2) 0.60365(10) 0.45176(13)
H16_2 H 0.8537 0.5765 0.4068
C17_2 C 0.85999(19) 0.66677(10) 0.44797(13)
C18_2 C 0.9828(2) 0.58098(10) 0.52306(14)
O8_2 O 0.76566(16) 0.74899(7) 0.35599(11)
C21_2 C 0.7623(2) 0.69015(10) 0.37001(13)
O9_2 O 0.68839(15) 0.65158(7) 0.32552(10)
C16_3 C 0.6077(2) 0.10365(10) 0.04824(13)
H16_3 H 0.6463 0.0765 0.0932
C17_3 C 0.64001(19) 0.16677(10) 0.05203(13)
O8_3 O 0.73434(16) 0.24899(7) 0.14401(11)
C21_3 C 0.7377(2) 0.19015(10) 0.12999(13)
C14_3 C 0.58173(19) 0.20701(10) 0.98402(13)
H14_3 H 0.6021 0.2496 0.9870
C15_3 C 0.4610(2) 0.12072(11) 0.90877(14)
H15_3 H 0.4013 0.1051 0.8609
C18_3 C 0.5172(2) 0.08098(10) 0.97694(14)
O6_3 O 0.46720(14) 0.28210(7) 0.83691(10)
O7_3 O 0.35768(17) 0.19862(8) 0.77335(11)
C19_3 C 0.49399(19) 0.18398(10) 0.91229(14)
C20_3 C 0.4361(2) 0.22649(11) 0.83581(14)
N4_3 N 0.47674(19) 0.01666(9) 0.96760(12)
C1_3 C 0.41827(19) 0.79299(10) 0.01598(13)
H1_3 H 0.3979 0.7504 0.0130
C2_3 C 0.5390(2) 0.87928(11) 0.09123(14)
H2_3 H 0.5987 0.8949 0.1391
C5_3 C 0.4828(2) 0.91902(10) 0.02306(14)
O1_2 O 0.55753(17) 0.57958(9) 0.17395(12)
C6_2 C 0.5873(2) 0.52524(12) 0.15803(16)
N1_2 N 0.7048(2) 0.50202(13) 0.1706(2)
N2 N 0.5044(3) 0.47989(14) 0.1232(3)
C7 C 0.7069(4) 0.43664(18) 0.1440(3)
H4 H 0.7455 0.4101 0.1934
H5 H 0.7531 0.4316 0.0976
C8_2 C 0.8192(3) 0.5364(2) 0.2068(3)
H6_2 H 0.8734 0.5364 0.1655
H7_2 H 0.8628 0.5169 0.2607
H8_2 H 0.7978 0.5790 0.2184
C9 C 0.5670(4) 0.42131(18) 0.1112(4)
H9 H 0.5485 0.4090 0.0496
H10 H 0.5409 0.3877 0.1455
C10 C 0.3682(3) 0.4875(2) 0.1012(3)
H11 H 0.3312 0.4630 0.1410
H12 H 0.3352 0.4734 0.0419
H13_2 H 0.3473 0.5311 0.1061
O2_2 O 0.53280(14) 0.71790(7) 0.16309(10)
O3_3 O 0.64232(17) 0.80138(8) 0.22665(11)
C11_3 C 0.50601(19) 0.81602(10) 0.08771(14)
C12_3 C 0.5639(2) 0.77351(11) 0.16419(14)
N3_3 N 0.52326(19) 0.98334(9) 0.03240(12)
O10_2 O 0.44247(17) 0.57958(9) 0.32605(12)
C22_2 C 0.4127(2) 0.52524(12) 0.34197(16)
N5_2 N 0.2952(2) 0.50202(13) 0.3294(2)
N6 N 0.4956(3) 0.47989(14) 0.3768(3)
C23 C 0.2931(4) 0.43664(18) 0.3560(3)
H17 H 0.2545 0.4101 0.3066
H18 H 0.2469 0.4316 0.4024
C24_2 C 0.1808(3) 0.5364(2) 0.2932(3)
H19_2 H 0.1266 0.5364 0.3345
H20_2 H 0.1372 0.5169 0.2393
H21_2 H 0.2022 0.5790 0.2816
C25 C 0.4330(4) 0.42131(18) 0.3888(4)
H22 H 0.4515 0.4090 0.4504
H23 H 0.4591 0.3877 0.3545
C26 C 0.6318(3) 0.4875(2) 0.3988(3)
H24 H 0.6688 0.4630 0.3590
H25 H 0.6648 0.4734 0.4581
H26_2 H 0.6527 0.5311 0.3939
O11_2 O 0.46720(14) 0.71790(7) 0.33691(10)
C3_3 C 0.3923(2) 0.89635(10) 0.95176(13)
H3_3 H 0.3537 0.9235 0.9068
C4_3 C 0.35999(19) 0.83323(10) 0.94797(13)
O4_3 O 0.26566(16) 0.75101(7) 0.85599(11)
C13_3 C 0.2623(2) 0.80985(10) 0.87001(13)
O5_3 O 0.18839(15) 0.84842(7) 0.82552(10)
C14_4 C 0.41827(19) 0.20701(10) 0.51598(13)
H14_4 H 0.3979 0.2496 0.5130
C15_4 C 0.5390(2) 0.12072(11) 0.59123(14)
H15_4 H 0.5987 0.1051 0.6391
C16_4 C 0.3923(2) 0.10365(10) 0.45176(13)
H16_4 H 0.3537 0.0765 0.4068
C17_4 C 0.35999(19) 0.16677(10) 0.44797(13)
C18_4 C 0.4828(2) 0.08098(10) 0.52306(14)
O6_4 O 0.53280(14) 0.28210(7) 0.66309(10)
O7_4 O 0.64232(17) 0.19862(8) 0.72665(11)
C19_4 C 0.50601(19) 0.18398(10) 0.58771(14)
C20_4 C 0.5639(2) 0.22649(11) 0.66419(14)
N4_4 N 0.52326(19) 0.01666(9) 0.53240(12)
O8_4 O 0.26566(16) 0.24899(7) 0.35599(11)
C21_4 C 0.2623(2) 0.19015(10) 0.37001(13)
C1_4 C 0.58173(19) 0.79299(10) 0.48402(13)
H1_4 H 0.6021 0.7504 0.4870
C2_4 C 0.4610(2) 0.87928(11) 0.40877(14)
H2_4 H 0.4013 0.8949 0.3609
C3_4 C 0.6077(2) 0.89635(10) 0.54824(13)
H3_4 H 0.6463 0.9235 0.5932
C4_4 C 0.64001(19) 0.83323(10) 0.55203(13)
C5_4 C 0.5172(2) 0.91902(10) 0.47694(14)
O3_4 O 0.35768(17) 0.80138(8) 0.27335(11)
C11_4 C 0.49399(19) 0.81602(10) 0.41229(14)
C12_4 C 0.4361(2) 0.77351(11) 0.33581(14)
N3_4 N 0.47674(19) 0.98334(9) 0.46760(12)
O4_4 O 0.73434(16) 0.75101(7) 0.64401(11)
C13_4 C 0.7377(2) 0.80985(10) 0.62999(13)
O5_4 O 0.81161(15) 0.84842(7) 0.67448(10)
H13_3 H 0.1527 0.9689 0.8939
O10_3 O 0.05753(17) 0.92042(9) 0.67395(12)
C22_3 C 0.0873(2) 0.97476(12) 0.65803(16)
N5_3 N 0.2048(2) 0.99798(13) 0.6706(2)
C24_3 C 0.3192(3) 0.9636(2) 0.7068(3)
H19_3 H 0.3734 0.9636 0.6655
H20_3 H 0.3628 0.9831 0.7607
H21_3 H 0.2978 0.9210 0.7184
O1_3 O 0.94247(17) 0.92042(9) 0.82605(12)
C6_3 C 0.9127(2) 0.97476(12) 0.84197(16)
N1_3 N 0.7952(2) 0.99798(13) 0.8294(2)
C8_3 C 0.6808(3) 0.9636(2) 0.7932(3)
H6_3 H 0.6266 0.9636 0.8345
H7_3 H 0.6372 0.9831 0.7393
H8_3 H 0.7022 0.9210 0.7816
H26_3 H 0.8473 0.9689 0.6061
O1_4 O 0.44247(17) 0.42042(9) 0.82605(12)
C6_4 C 0.4127(2) 0.47476(12) 0.84197(16)
N1_4 N 0.2952(2) 0.49798(13) 0.8294(2)
N2_2 N 0.4956(3) 0.52011(14) 0.8768(3)
C7_2 C 0.2931(4) 0.56336(18) 0.8560(3)
H4_2 H 0.2545 0.5899 0.8066
H5_2 H 0.2469 0.5684 0.9024
C8_4 C 0.1808(3) 0.4636(2) 0.7932(3)
H6_4 H 0.1266 0.4636 0.8345
H7_4 H 0.1372 0.4831 0.7393
H8_4 H 0.2022 0.4210 0.7816
C9_2 C 0.4330(4) 0.57869(18) 0.8888(4)
H9_2 H 0.4515 0.5910 0.9504
H10_2 H 0.4591 0.6123 0.8545
C10_2 C 0.6318(3) 0.5125(2) 0.8988(3)
H11_2 H 0.6688 0.5370 0.8590
H12_2 H 0.6648 0.5266 0.9581
H13_4 H 0.6527 0.4689 0.8939
O10_4 O 0.55753(17) 0.42042(9) 0.67395(12)
C22_4 C 0.5873(2) 0.47476(12) 0.65803(16)
N5_4 N 0.7048(2) 0.49798(13) 0.6706(2)
N6_2 N 0.5044(3) 0.52011(14) 0.6232(3)
C23_2 C 0.7069(4) 0.56336(18) 0.6440(3)
H17_2 H 0.7455 0.5899 0.6934
H18_2 H 0.7531 0.5684 0.5976
C24_4 C 0.8192(3) 0.4636(2) 0.7068(3)
H19_4 H 0.8734 0.4636 0.6655
H20_4 H 0.8628 0.4831 0.7607
H21_4 H 0.7978 0.4210 0.7184
C25_2 C 0.5670(4) 0.57869(18) 0.6112(4)
H22_2 H 0.5485 0.5910 0.5496
H23_2 H 0.5409 0.6123 0.6455
C26_2 C 0.3682(3) 0.5125(2) 0.6012(3)
H24_2 H 0.3312 0.5370 0.6410
H25_2 H 0.3352 0.5266 0.5419
H26_4 H 0.3473 0.4689 0.6061
N2_3 N 0.0044(3) 0.97989(14) 0.1232(3)
C7_3 C 0.2069(4) 0.93664(18) 0.1440(3)
H4_3 H 0.2455 0.9101 0.1934
H5_3 H 0.2531 0.9316 0.0976
C9_3 C 0.0670(4) 0.92131(18) 0.1112(4)
H9_3 H 0.0485 0.9090 0.0496
H10_3 H 0.0409 0.8877 0.1455
C26_3 C 0.1318(3) 0.9875(2) 0.3988(3)
H24_3 H 0.1688 0.9630 0.3590
H25_3 H 0.1648 0.9734 0.4581
C10_3 C 0.8682(3) 0.9875(2) 0.1012(3)
H11_3 H 0.8312 0.9630 0.1410
H12_3 H 0.8352 0.9734 0.0419
N6_3 N 0.9956(3) 0.97989(14) 0.3768(3)
C23_3 C 0.7931(4) 0.93664(18) 0.3560(3)
H17_3 H 0.7545 0.9101 0.3066
H18_3 H 0.7469 0.9316 0.4024
C25_3 C 0.9330(4) 0.92131(18) 0.3888(4)
H22_3 H 0.9515 0.9090 0.4504
H23_3 H 0.9591 0.8877 0.3545
C10_4 C 0.1318(3) 0.0125(2) 0.8988(3)
H11_4 H 0.1688 0.0370 0.8590
H12_4 H 0.1648 0.0266 0.9581
N6_4 N 0.0044(3) 0.02011(14) 0.6232(3)
C23_4 C 0.2069(4) 0.06336(18) 0.6440(3)
H17_4 H 0.2455 0.0899 0.6934
H18_4 H 0.2531 0.0684 0.5976
C25_4 C 0.0670(4) 0.07869(18) 0.6112(4)
H22_4 H 0.0485 0.0910 0.5496
H23_4 H 0.0409 0.1123 0.6455
N2_4 N 0.9956(3) 0.02011(14) 0.8768(3)
C7_4 C 0.7931(4) 0.06336(18) 0.8560(3)
H4_4 H 0.7545 0.0899 0.8066
H5_4 H 0.7469 0.0684 0.9024
C9_4 C 0.9330(4) 0.07869(18) 0.8888(4)
H9_4 H 0.9515 0.0910 0.9504
H10_4 H 0.9591 0.1123 0.8545
C26_4 C 0.8682(3) 0.0125(2) 0.6012(3)
H24_4 H 0.8312 0.0370 0.6410
H25_4 H 0.8352 0.0266 0.5419
loop_
_geom_bond_atom_site_label_1
_geom_bond_atom_site_label_2
_geom_bond_site_symmetry_1
_geom_bond_site_symmetry_2
Mg1 O1 1_555 1_555
C2 H2 1_555 1_555
O1 C6 1_555 1_555
C6 N1 1_555 1_555
C8 N1 1_555 1_555
H6 C8 1_555 1_555
H7 C8 1_555 1_555
H8 C8 1_555 1_555
O2 Mg1 1_555 1_555
O3 C12 1_555 1_555
C12 O2 1_555 1_555
C16 H16 1_555 1_555
O8 C21 1_555 1_555
C21 C17 1_555 1_555
O9 C21 1_555 1_555
Mg2 O9 1_555 1_555
O13 Mg1 1_555 1_555
C2 C11 1_555 1_555
C11 C12 1_555 1_555
C16 C17 1_555 1_555
C14 H14 1_555 1_555
C1 H1 1_555 1_555
O10 Mg1_2 1_555 1_555
C22 O10 1_555 1_555
N5 C22 1_555 1_555
C24 N5 1_555 1_555
H19 C24 1_555 1_555
H20 C24 1_555 1_555
H21 C24 1_555 1_555
O11 Mg1_2 1_555 1_555
O12 Mg1_2 1_555 1_555
C3 H3 1_555 1_555
O4 C13 1_555 1_555
C13 C4 1_555 1_555
O5 C13 1_555 1_555
C15 H15 1_555 1_555
O6 C20 1_555 1_555
O7 C20 1_555 1_555
C20 C19 1_555 1_555
Mg3_2 O6 1_555 1_555
Mg4 O5 1_555 1_555
C3 C4 1_555 1_555
C15 C19 1_555 1_555
C1_2 H1_2 1_555 1_555
C3_2 H3_2 1_555 1_555
C4_2 C1_2 1_555 1_555
O4_2 C13_2 1_555 1_555
C13_2 C4_2 1_555 1_555
O5_2 C13_2 1_555 1_555
C15_2 H15_2 1_555 1_555
O6_2 C20_2 1_555 1_555
O7_2 C20_2 1_555 1_555
C20_2 C19_2 1_555 1_555
Mg3 O6_2 1_555 1_555
Mg4 O5_2 1_555 1_555
C3_2 C4_2 1_555 1_555
C3_2 C5_2 1_555 1_555
C15_2 C19_2 1_555 1_555
C2_2 H2_2 1_555 1_555
O3_2 C12_2 1_555 1_555
C12_2 O11 1_555 1_555
C14_2 H14_2 1_555 1_555
C16_2 H16_2 1_555 1_555
C17_2 C14_2 1_555 1_555
O8_2 C21_2 1_555 1_555
C21_2 C17_2 1_555 1_555
O9_2 C21_2 1_555 1_555
Mg2 O9_2 1_555 1_555
C2_2 C11_2 1_555 1_555
C11_2 C12_2 1_555 1_555
C16_2 C17_2 1_555 1_555
C16_2 C18_2 1_555 1_555
C16_3 H16_3 1_555 1_555
O8_3 C21_3 1_555 1_555
C21_3 C17_3 1_555 1_555
O12 C21_3 1_555 1_555
C16_3 C17_3 1_555 1_555
C14_3 H14_3 1_555 1_555
C15_3 H15_3 1_555 1_555
C18_3 C15_3 1_555 1_555
O6_3 C20_3 1_555 1_555
O7_3 C20_3 1_555 1_555
C19_3 C14_3 1_555 1_555
C20_3 C19_3 1_555 1_555
Mg4 O6_3 1_555 1_555
C15_3 C19_3 1_555 1_555
C18_3 N4_3 1_555 1_555
Mg2 O1_2 1_555 1_555
C1_3 H1_3 1_555 1_555
C2_3 H2_3 1_555 1_555
C5_3 C2_3 1_555 1_555
O1_2 C6_2 1_555 1_555
C6_2 N1_2 1_555 1_555
N1_2 C7 1_555 1_555
N2 C6_2 1_555 1_555
C7 H4 1_555 1_555
H5 C7 1_555 1_555
C8_2 N1_2 1_555 1_555
H6_2 C8_2 1_555 1_555
H7_2 C8_2 1_555 1_555
H8_2 C8_2 1_555 1_555
C9 N2 1_555 1_555
H9 C9 1_555 1_555
H10 C9 1_555 1_555
C10 N2 1_555 1_555
H11 C10 1_555 1_555
H12 C10 1_555 1_555
H13_2 C10 1_555 1_555
O2_2 Mg2 1_555 1_555
O3_3 C12_3 1_555 1_555
C11_3 C1_3 1_555 1_555
C12_3 O2_2 1_555 1_555
N3_3 C5_3 1_555 1_555
O10_2 Mg2 1_555 1_555
C22_2 O10_2 1_555 1_555
N5_2 C22_2 1_555 1_555
N6 C22_2 1_555 1_555
C23 N5_2 1_555 1_555
H17 C23 1_555 1_555
H18 C23 1_555 1_555
C24_2 N5_2 1_555 1_555
H19_2 C24_2 1_555 1_555
H20_2 C24_2 1_555 1_555
H21_2 C24_2 1_555 1_555
C25 N6 1_555 1_555
H22 C25 1_555 1_555
H23 C25 1_555 1_555
C26 N6 1_555 1_555
H24 C26 1_555 1_555
H25 C26 1_555 1_555
H26_2 C26 1_555 1_555
O11_2 Mg2 1_555 1_555
C2_3 C11_3 1_555 1_555
C7 C9 1_555 1_555
C11_3 C12_3 1_555 1_555
C23 C25 1_555 1_555
C3_3 H3_3 1_555 1_555
O4_3 C13_3 1_555 1_555
C13_3 C4_3 1_555 1_555
O5_3 C13_3 1_555 1_555
Mg3 O5_3 1_555 1_555
C3_3 C4_3 1_555 1_555
C14_4 H14_4 1_555 1_555
C15_4 H15_4 1_555 1_555
C16_4 H16_4 1_555 1_555
C17_4 C14_4 1_555 1_555
C18_4 C15_4 1_555 1_555
O6_4 C20_4 1_555 1_555
O7_4 C20_4 1_555 1_555
C19_4 C14_4 1_555 1_555
C20_4 C19_4 1_555 1_555
O8_4 C21_4 1_555 1_555
C21_4 C17_4 1_555 1_555
O13 C21_4 1_555 1_555
Mg4 O6_4 1_555 1_555
C15_4 C19_4 1_555 1_555
C16_4 C17_4 1_555 1_555
C16_4 C18_4 1_555 1_555
C18_4 N4_4 1_555 1_555
C1_4 H1_4 1_555 1_555
C2_4 H2_4 1_555 1_555
C3_4 H3_4 1_555 1_555
C4_4 C1_4 1_555 1_555
C5_4 C2_4 1_555 1_555
O3_4 C12_4 1_555 1_555
C11_4 C1_4 1_555 1_555
C12_4 O11_2 1_555 1_555
N3_4 C5_4 1_555 1_555
O4_4 C13_4 1_555 1_555
C13_4 C4_4 1_555 1_555
O5_4 C13_4 1_555 1_555
Mg3_2 O5_4 1_555 1_555
C2_4 C11_4 1_555 1_555
C3_4 C4_4 1_555 1_555
C3_4 C5_4 1_555 1_555
C11_4 C12_4 1_555 1_555
O10_3 Mg3 1_555 1_555
C22_3 O10_3 1_555 1_555
N5_3 C22_3 1_555 1_555
C24_3 N5_3 1_555 1_555
H19_3 C24_3 1_555 1_555
H20_3 C24_3 1_555 1_555
H21_3 C24_3 1_555 1_555
Mg3_2 O1_3 1_555 1_555
O1_3 C6_3 1_555 1_555
C6_3 N1_3 1_555 1_555
C8_3 N1_3 1_555 1_555
H6_3 C8_3 1_555 1_555
H7_3 C8_3 1_555 1_555
H8_3 C8_3 1_555 1_555
Mg4 O1_4 1_555 1_555
O1_4 C6_4 1_555 1_555
C6_4 N1_4 1_555 1_555
N1_4 C7_2 1_555 1_555
N2_2 C6_4 1_555 1_555
C7_2 H4_2 1_555 1_555
H5_2 C7_2 1_555 1_555
C8_4 N1_4 1_555 1_555
H6_4 C8_4 1_555 1_555
H7_4 C8_4 1_555 1_555
H8_4 C8_4 1_555 1_555
C9_2 N2_2 1_555 1_555
H9_2 C9_2 1_555 1_555
H10_2 C9_2 1_555 1_555
C10_2 N2_2 1_555 1_555
H11_2 C10_2 1_555 1_555
H12_2 C10_2 1_555 1_555
H13_4 C10_2 1_555 1_555
O10_4 Mg4 1_555 1_555
C22_4 O10_4 1_555 1_555
N5_4 C22_4 1_555 1_555
N6_2 C22_4 1_555 1_555
C23_2 N5_4 1_555 1_555
H17_2 C23_2 1_555 1_555
H18_2 C23_2 1_555 1_555
C24_4 N5_4 1_555 1_555
H19_4 C24_4 1_555 1_555
H20_4 C24_4 1_555 1_555
H21_4 C24_4 1_555 1_555
C25_2 N6_2 1_555 1_555
H22_2 C25_2 1_555 1_555
H23_2 C25_2 1_555 1_555
C26_2 N6_2 1_555 1_555
H24_2 C26_2 1_555 1_555
H25_2 C26_2 1_555 1_555
H26_4 C26_2 1_555 1_555
C7_2 C9_2 1_555 1_555
C23_2 C25_2 1_555 1_555
C7_3 H4_3 1_555 1_555
H5_3 C7_3 1_555 1_555
C9_3 N2_3 1_555 1_555
H9_3 C9_3 1_555 1_555
H10_3 C9_3 1_555 1_555
H24_3 C26_3 1_555 1_555
H25_3 C26_3 1_555 1_555
C7_3 C9_3 1_555 1_555
H11_3 C10_3 1_555 1_555
H12_3 C10_3 1_555 1_555
H17_3 C23_3 1_555 1_555
H18_3 C23_3 1_555 1_555
C25_3 N6_3 1_555 1_555
H22_3 C25_3 1_555 1_555
H23_3 C25_3 1_555 1_555
C23_3 C25_3 1_555 1_555
H11_4 C10_4 1_555 1_555
H12_4 C10_4 1_555 1_555
H17_4 C23_4 1_555 1_555
H18_4 C23_4 1_555 1_555
C25_4 N6_4 1_555 1_555
H22_4 C25_4 1_555 1_555
H23_4 C25_4 1_555 1_555
C23_4 C25_4 1_555 1_555
C7_4 H4_4 1_555 1_555
H5_4 C7_4 1_555 1_555
C9_4 N2_4 1_555 1_555
H9_4 C9_4 1_555 1_555
H10_4 C9_4 1_555 1_555
H24_4 C26_4 1_555 1_555
H25_4 C26_4 1_555 1_555
C7_4 C9_4 1_555 1_555

#END
