
###############################################################################
#
# This file contains modified crystal structure data generated from the
# MOF subset of the Cambridge Structural Database (CSD) v543 
# hosted by the Cambridge Crystallographic Data Centre (CCDC).
#
# This work is licensed under the Creative Commons
# Attribution-NonCommercial-ShareAlike 4.0 International License.
# To view a copy of this license, visit
# http://creativecommons.org/licenses/by-nc-sa/4.0/
# or send a letter to
# Creative Commons, PO Box 1866, Mountain View, CA 94042, USA.
#
# CIF created using the CSD Python API on 29 September 2022
# The structure has been converted into the P1 space group
# The structure has a 3D framework
# The original CSD entry DADNUU is in the monoclinic crystal system
# The framework has been calculated to contain at least 10.0% void space
# The void calculation uses a probe of radius 1.32A, grid spacing 0.4
#
###############################################################################

data_DADNUU
_chemical_formula_moiety         '(C32 H72 Fe6 Gd8 N8 O88 S16 4+)n'
_symmetry_cell_setting           triclinic
_symmetry_space_group_name_H-M   'P 1'
_symmetry_Int_Tables_number      1
_space_group_name_Hall           'P 1'
loop_
_symmetry_equiv_pos_site_id
_symmetry_equiv_pos_as_xyz
1 x,y,z
_cell_length_a                   15.577(3)
_cell_length_b                   16.394(3)
_cell_length_c                   12.593(2)
_cell_angle_alpha                90
_cell_angle_beta                 92.840(3)
_cell_angle_gamma                90
_cell_volume                     3211.92
loop_
_atom_site_label
_atom_site_type_symbol
_atom_site_fract_x
_atom_site_fract_y
_atom_site_fract_z
C1 C 0.8836(19) 0.780(2) 0.667(3)
H1 H 0.9011 0.7372 0.7157
H2 H 0.8628 0.7560 0.6009
H3 H 0.9319 0.8143 0.6546
C2 C 0.7816(16) 0.8978(14) 0.6427(19)
H4 H 0.7369 0.9277 0.6753
H5 H 0.8287 0.9336 0.6300
H6 H 0.7596 0.8754 0.5763
N1 N 0.8117(17) 0.8306(14) 0.714(2)
H7 H 0.7676 0.7981 0.7268
H8 H 0.8310 0.8516 0.7761
C1_2 C 0.1164(19) 0.780(2) 0.833(3)
H1_2 H 0.0989 0.7372 0.7843
H2_2 H 0.1372 0.7560 0.8991
H3_2 H 0.0681 0.8143 0.8454
C2_2 C 0.2184(16) 0.8978(14) 0.8573(19)
H4_2 H 0.2631 0.9277 0.8247
H5_2 H 0.1713 0.9336 0.8700
H6_2 H 0.2404 0.8754 0.9237
N1_2 N 0.1883(17) 0.8306(14) 0.786(2)
H7_2 H 0.2324 0.7981 0.7732
H8_2 H 0.1690 0.8516 0.7239
C1_3 C 0.3836(19) 0.280(2) 0.667(3)
H1_3 H 0.4011 0.2372 0.7157
H2_3 H 0.3628 0.2560 0.6009
H3_3 H 0.4319 0.3143 0.6546
C2_3 C 0.2816(16) 0.3978(14) 0.6427(19)
H4_3 H 0.2369 0.4277 0.6753
H5_3 H 0.3287 0.4336 0.6300
H6_3 H 0.2596 0.3754 0.5763
N1_3 N 0.3117(17) 0.3306(14) 0.714(2)
H7_3 H 0.2676 0.2981 0.7268
H8_3 H 0.3310 0.3516 0.7761
C1_4 C 0.6164(19) 0.280(2) 0.833(3)
H1_4 H 0.5989 0.2372 0.7843
H2_4 H 0.6372 0.2560 0.8991
H3_4 H 0.5681 0.3143 0.8454
C2_4 C 0.7184(16) 0.3978(14) 0.8573(19)
H4_4 H 0.7631 0.4277 0.8247
H5_4 H 0.6713 0.4336 0.8700
H6_4 H 0.7404 0.3754 0.9237
N1_4 N 0.6883(17) 0.3306(14) 0.786(2)
H7_4 H 0.7324 0.2981 0.7732
H8_4 H 0.6690 0.3516 0.7239
C1_5 C 0.1164(19) 0.220(2) 0.333(3)
H1_5 H 0.0989 0.2628 0.2843
H2_5 H 0.1372 0.2440 0.3991
H3_5 H 0.0681 0.1857 0.3454
C2_5 C 0.2184(16) 0.1022(14) 0.3573(19)
H4_5 H 0.2631 0.0723 0.3247
H5_5 H 0.1713 0.0664 0.3700
H6_5 H 0.2404 0.1246 0.4237
N1_5 N 0.1883(17) 0.1694(14) 0.286(2)
H7_5 H 0.2324 0.2019 0.2732
H8_5 H 0.1690 0.1484 0.2239
C1_6 C 0.8836(19) 0.220(2) 0.167(3)
H1_6 H 0.9011 0.2628 0.2157
H2_6 H 0.8628 0.2440 0.1009
H3_6 H 0.9319 0.1857 0.1546
C2_6 C 0.7816(16) 0.1022(14) 0.1427(19)
H4_6 H 0.7369 0.0723 0.1753
H5_6 H 0.8287 0.0664 0.1300
H6_6 H 0.7596 0.1246 0.0763
N1_6 N 0.8117(17) 0.1694(14) 0.214(2)
H7_6 H 0.7676 0.2019 0.2268
H8_6 H 0.8310 0.1484 0.2761
C1_7 C 0.6164(19) 0.720(2) 0.333(3)
H1_7 H 0.5989 0.7628 0.2843
H2_7 H 0.6372 0.7440 0.3991
H3_7 H 0.5681 0.6857 0.3454
C2_7 C 0.7184(16) 0.6022(14) 0.3573(19)
H4_7 H 0.7631 0.5723 0.3247
H5_7 H 0.6713 0.5664 0.3700
H6_7 H 0.7404 0.6246 0.4237
N1_7 N 0.6883(17) 0.6694(14) 0.286(2)
H7_7 H 0.7324 0.7019 0.2732
H8_7 H 0.6690 0.6484 0.2239
C1_8 C 0.3836(19) 0.720(2) 0.167(3)
H1_8 H 0.4011 0.7628 0.2157
H2_8 H 0.3628 0.7440 0.1009
H3_8 H 0.4319 0.6857 0.1546
C2_8 C 0.2816(16) 0.6022(14) 0.1427(19)
H4_8 H 0.2369 0.5723 0.1753
H5_8 H 0.3287 0.5664 0.1300
H6_8 H 0.2596 0.6246 0.0763
N1_8 N 0.3117(17) 0.6694(14) 0.214(2)
H7_8 H 0.2676 0.7019 0.2268
H8_8 H 0.3310 0.6484 0.2761
S2 S 0.18587(15) 0.34943(16) 0.0762(2)
O3 O 0.0860(5) 0.1440(4) 0.0754(5)
O7 O 0.0737(5) 0.0428(4) 0.1853(6)
O9 O 0.2562(5) 0.3976(5) 0.0356(8)
C3 C 0.0656(6) 0.0731(6) 0.0949(8)
O10 O 0.1315(6) 0.3916(8) 0.1471(10)
O11 O 0.2308(6) 0.2828(7) 0.1317(9)
Gd4 Gd 0.37869(3) 0.31200(3) 0.09061(3)
Gd1 Gd 0.12131(3) 0.18800(3) 0.90939(3)
Fe1 Fe 0.0000 0.04840(10) 0.7500
S1 S 0.10586(14) 0.21912(15) 0.66557(17)
O1 O 0.0545(4) 0.0617(4) 0.9002(5)
O2 O 0.1020(4) 0.1412(4) 0.7262(5)
O4 O 0.0224(4) 0.2333(4) 0.6079(5)
O5 O 0.1312(6) 0.3169(5) 0.9900(8)
O6 O 0.1212(5) 0.2827(4) 0.7488(5)
O8 O 0.1746(5) 0.2178(6) 0.5939(6)
C4 C 0.0374(10) 0.0204(9) 0.9964(10)
O26 O 0.2438(5) 0.1024(5) 0.9644(8)
O28 O 0.2692(6) 0.2172(7) 0.8683(9)
Fe2 Fe 0.0000 0.95160(10) 0.2500
H9 H 0.0801 0.9764 0.9987
O25 O 0.0737(5) 0.9572(4) 0.6853(6)
H10 H 0.9199 0.0236 0.0013
Fe1_2 Fe 1.0000 0.04840(10) 0.7500
Gd2 Gd 0.87869(3) 0.18800(3) 0.59061(3)
S3 S 0.89414(14) 0.21912(15) 0.83443(17)
S4 S 0.81413(15) 0.34943(16) 0.4238(2)
O15 O 0.8980(4) 0.1412(4) 0.7738(5)
O16 O 0.9776(4) 0.2333(4) 0.8921(5)
O17 O 0.8688(6) 0.3169(5) 0.5100(8)
O18 O 0.8788(5) 0.2827(4) 0.7512(5)
O19 O 0.8254(5) 0.2178(6) 0.9061(6)
O20 O 0.7438(5) 0.3976(5) 0.4644(8)
O21 O 0.8685(6) 0.3916(8) 0.3529(10)
O22 O 0.7692(6) 0.2828(7) 0.3683(9)
Gd5 Gd 0.62131(3) 0.31200(3) 0.40939(3)
O23 O 0.9455(4) 0.0617(4) 0.5998(5)
O24 O 0.9140(5) 0.1440(4) 0.4246(5)
O27 O 0.7562(5) 0.1024(5) 0.5356(8)
O29 O 0.7308(6) 0.2172(7) 0.6317(9)
O12 O 0.9455(4) 0.9383(4) 0.0998(5)
C6 C 0.9626(10) 0.9796(9) 0.0036(10)
Gd3 Gd 0.87869(3) 0.81200(3) 0.09061(3)
Fe2_2 Fe 1.0000 0.95160(10) 0.2500
O13 O 0.9140(5) 0.8560(4) 0.9246(5)
O14 O 0.9263(5) 0.9572(4) 0.8147(6)
C5 C 0.9344(6) 0.9269(6) 0.9051(8)
H10_2 H 0.0801 0.0236 0.4987
O12_2 O 0.0545(4) 0.9383(4) 0.4002(5)
O13_2 O 0.0860(5) 0.8560(4) 0.5754(5)
C5_2 C 0.0656(6) 0.9269(6) 0.5949(8)
C6_2 C 0.0374(10) 0.9796(9) 0.4964(10)
Gd3_2 Gd 0.12131(3) 0.81200(3) 0.40939(3)
O7_2 O 0.9263(5) 0.0428(4) 0.3147(6)
C3_2 C 0.9344(6) 0.0731(6) 0.4051(8)
C4_2 C 0.9626(10) 0.0204(9) 0.5036(10)
H9_2 H 0.9199 0.9764 0.5013
S2_2 S 0.68587(15) 0.84943(16) 0.0762(2)
O3_2 O 0.5860(5) 0.6440(4) 0.0754(5)
O7_3 O 0.5737(5) 0.5428(4) 0.1853(6)
O9_2 O 0.7562(5) 0.8976(5) 0.0356(8)
C3_3 C 0.5656(6) 0.5731(6) 0.0949(8)
O10_2 O 0.6315(6) 0.8916(8) 0.1471(10)
O11_2 O 0.7308(6) 0.7828(7) 0.1317(9)
O12_3 O 0.4455(4) 0.4383(4) 0.0998(5)
C6_3 C 0.4626(10) 0.4796(9) 0.0036(10)
H10_3 H 0.4199 0.5236 0.0013
Fe2_3 Fe 0.5000 0.45160(10) 0.2500
Gd1_2 Gd 0.62131(3) 0.68800(3) 0.90939(3)
Fe1_3 Fe 0.5000 0.54840(10) 0.7500
S1_2 S 0.60586(14) 0.71912(15) 0.66557(17)
O1_2 O 0.5545(4) 0.5617(4) 0.9002(5)
O2_2 O 0.6020(4) 0.6412(4) 0.7262(5)
O4_2 O 0.5224(4) 0.7333(4) 0.6079(5)
O5_2 O 0.6312(6) 0.8169(5) 0.9900(8)
O6_2 O 0.6212(5) 0.7827(4) 0.7488(5)
O8_2 O 0.6746(5) 0.7178(6) 0.5939(6)
C4_3 C 0.5374(10) 0.5204(9) 0.9964(10)
H9_3 H 0.5801 0.4764 0.9987
O13_3 O 0.4140(5) 0.3560(4) 0.9246(5)
O14_2 O 0.4263(5) 0.4572(4) 0.8147(6)
C5_3 C 0.4344(6) 0.4269(6) 0.9051(8)
Gd2_2 Gd 0.37869(3) 0.68800(3) 0.59061(3)
S3_2 S 0.39414(14) 0.71912(15) 0.83443(17)
S4_2 S 0.31413(15) 0.84943(16) 0.4238(2)
O15_2 O 0.3980(4) 0.6412(4) 0.7738(5)
O16_2 O 0.4776(4) 0.7333(4) 0.8921(5)
O17_2 O 0.3688(6) 0.8169(5) 0.5100(8)
O18_2 O 0.3788(5) 0.7827(4) 0.7512(5)
O19_2 O 0.3254(5) 0.7178(6) 0.9061(6)
O20_2 O 0.2438(5) 0.8976(5) 0.4644(8)
O21_2 O 0.3685(6) 0.8916(8) 0.3529(10)
O22_2 O 0.2692(6) 0.7828(7) 0.3683(9)
O23_2 O 0.4455(4) 0.5617(4) 0.5998(5)
O24_2 O 0.4140(5) 0.6440(4) 0.4246(5)
O25_2 O 0.5737(5) 0.4572(4) 0.6853(6)
O26_2 O 0.7438(5) 0.6024(5) 0.9644(8)
O27_2 O 0.2562(5) 0.6024(5) 0.5356(8)
O28_2 O 0.7692(6) 0.7172(7) 0.8683(9)
O29_2 O 0.2308(6) 0.7172(7) 0.6317(9)
O7_4 O 0.4263(5) 0.5428(4) 0.3147(6)
C3_4 C 0.4344(6) 0.5731(6) 0.4051(8)
C4_4 C 0.4626(10) 0.5204(9) 0.5036(10)
H9_4 H 0.4199 0.4764 0.5013
O12_4 O 0.5545(4) 0.4383(4) 0.4002(5)
O13_4 O 0.5860(5) 0.3560(4) 0.5754(5)
C5_4 C 0.5656(6) 0.4269(6) 0.5949(8)
C6_4 C 0.5374(10) 0.4796(9) 0.4964(10)
H10_4 H 0.5801 0.5236 0.4987
S3_3 S 0.10586(14) 0.78088(15) 0.16557(17)
S4_3 S 0.18587(15) 0.65057(16) 0.5762(2)
O15_3 O 0.1020(4) 0.8588(4) 0.2262(5)
O16_3 O 0.0224(4) 0.7667(4) 0.1079(5)
O17_3 O 0.1312(6) 0.6831(5) 0.4900(8)
O18_3 O 0.1212(5) 0.7173(4) 0.2488(5)
O19_3 O 0.1746(5) 0.7822(6) 0.0939(6)
O21_3 O 0.1315(6) 0.6084(8) 0.6471(10)
S1_3 S 0.89414(14) 0.78088(15) 0.33443(17)
O2_3 O 0.8980(4) 0.8588(4) 0.2738(5)
O4_3 O 0.9776(4) 0.7667(4) 0.3921(5)
O5_3 O 0.8688(6) 0.6831(5) 0.0100(8)
O6_3 O 0.8788(5) 0.7173(4) 0.2512(5)
O8_3 O 0.8254(5) 0.7822(6) 0.4061(6)
S2_3 S 0.81413(15) 0.65057(16) 0.9238(2)
O10_3 O 0.8685(6) 0.6084(8) 0.8529(10)
S1_4 S 0.39414(14) 0.28088(15) 0.33443(17)
O2_4 O 0.3980(4) 0.3588(4) 0.2738(5)
O4_4 O 0.4776(4) 0.2667(4) 0.3921(5)
O5_4 O 0.3688(6) 0.1831(5) 0.0100(8)
O6_4 O 0.3788(5) 0.2173(4) 0.2512(5)
O8_4 O 0.3254(5) 0.2822(6) 0.4061(6)
S3_4 S 0.60586(14) 0.28088(15) 0.16557(17)
S4_4 S 0.68587(15) 0.15057(16) 0.5762(2)
O15_4 O 0.6020(4) 0.3588(4) 0.2262(5)
O16_4 O 0.5224(4) 0.2667(4) 0.1079(5)
O17_4 O 0.6312(6) 0.1831(5) 0.4900(8)
O18_4 O 0.6212(5) 0.2173(4) 0.2488(5)
O19_4 O 0.6746(5) 0.2822(6) 0.0939(6)
O21_4 O 0.6315(6) 0.1084(8) 0.6471(10)
S2_4 S 0.31413(15) 0.15057(16) 0.9238(2)
O10_4 O 0.3685(6) 0.1084(8) 0.8529(10)
loop_
_geom_bond_atom_site_label_1
_geom_bond_atom_site_label_2
_geom_bond_site_symmetry_1
_geom_bond_site_symmetry_2
C1 H1 1_555 1_555
H2 C1 1_555 1_555
H3 C1 1_555 1_555
C2 H4 1_555 1_555
H5 C2 1_555 1_555
H6 C2 1_555 1_555
N1 C1 1_555 1_555
H7 N1 1_555 1_555
H8 N1 1_555 1_555
C2 N1 1_555 1_555
C1_2 H1_2 1_555 1_555
H2_2 C1_2 1_555 1_555
H3_2 C1_2 1_555 1_555
C2_2 H4_2 1_555 1_555
H5_2 C2_2 1_555 1_555
H6_2 C2_2 1_555 1_555
N1_2 C1_2 1_555 1_555
H7_2 N1_2 1_555 1_555
H8_2 N1_2 1_555 1_555
C2_2 N1_2 1_555 1_555
C1_3 H1_3 1_555 1_555
H2_3 C1_3 1_555 1_555
H3_3 C1_3 1_555 1_555
C2_3 H4_3 1_555 1_555
H5_3 C2_3 1_555 1_555
H6_3 C2_3 1_555 1_555
N1_3 C1_3 1_555 1_555
H7_3 N1_3 1_555 1_555
H8_3 N1_3 1_555 1_555
C2_3 N1_3 1_555 1_555
C1_4 H1_4 1_555 1_555
H2_4 C1_4 1_555 1_555
H3_4 C1_4 1_555 1_555
C2_4 H4_4 1_555 1_555
H5_4 C2_4 1_555 1_555
H6_4 C2_4 1_555 1_555
N1_4 C1_4 1_555 1_555
H7_4 N1_4 1_555 1_555
H8_4 N1_4 1_555 1_555
C2_4 N1_4 1_555 1_555
C1_5 H1_5 1_555 1_555
H2_5 C1_5 1_555 1_555
H3_5 C1_5 1_555 1_555
C2_5 H4_5 1_555 1_555
H5_5 C2_5 1_555 1_555
H6_5 C2_5 1_555 1_555
N1_5 C1_5 1_555 1_555
H7_5 N1_5 1_555 1_555
H8_5 N1_5 1_555 1_555
C2_5 N1_5 1_555 1_555
C1_6 H1_6 1_555 1_555
H2_6 C1_6 1_555 1_555
H3_6 C1_6 1_555 1_555
C2_6 H4_6 1_555 1_555
H5_6 C2_6 1_555 1_555
H6_6 C2_6 1_555 1_555
N1_6 C1_6 1_555 1_555
H7_6 N1_6 1_555 1_555
H8_6 N1_6 1_555 1_555
C2_6 N1_6 1_555 1_555
C1_7 H1_7 1_555 1_555
H2_7 C1_7 1_555 1_555
H3_7 C1_7 1_555 1_555
C2_7 H4_7 1_555 1_555
H5_7 C2_7 1_555 1_555
H6_7 C2_7 1_555 1_555
N1_7 C1_7 1_555 1_555
H7_7 N1_7 1_555 1_555
H8_7 N1_7 1_555 1_555
C2_7 N1_7 1_555 1_555
C1_8 H1_8 1_555 1_555
H2_8 C1_8 1_555 1_555
H3_8 C1_8 1_555 1_555
C2_8 H4_8 1_555 1_555
H5_8 C2_8 1_555 1_555
H6_8 C2_8 1_555 1_555
N1_8 C1_8 1_555 1_555
H7_8 N1_8 1_555 1_555
H8_8 N1_8 1_555 1_555
C2_8 N1_8 1_555 1_555
O7 C3 1_555 1_555
O9 S2 1_555 1_555
C3 O3 1_555 1_555
O10 S2 1_555 1_555
O11 S2 1_555 1_555
Gd4 O9 1_555 1_555
O11 Gd4 1_555 1_555
Gd1 O1 1_555 1_555
Fe1 O1 1_555 1_555
S1 O2 1_555 1_555
O1 C4 1_555 1_555
O2 Gd1 1_555 1_555
O4 S1 1_555 1_555
O5 Gd1 1_555 1_555
O6 Gd1 1_555 1_555
O8 S1 1_555 1_555
O26 Gd1 1_555 1_555
O28 Gd1 1_555 1_555
Fe1 O2 1_555 1_555
S1 O6 1_555 1_555
S3 O15 1_555 1_555
S4 O17 1_555 1_555
O15 Fe1_2 1_555 1_555
O17 Gd2 1_555 1_555
O18 Gd2 1_555 1_555
O19 S3 1_555 1_555
O20 S4 1_555 1_555
O21 S4 1_555 1_555
O22 S4 1_555 1_555
Gd5 O20 1_555 1_555
O23 Fe1_2 1_555 1_555
O24 Gd2 1_555 1_555
O27 Gd2 1_555 1_555
O29 Gd2 1_555 1_555
Gd2 O15 1_555 1_555
Gd2 O23 1_555 1_555
S3 O16 1_555 1_555
S3 O18 1_555 1_555
O22 Gd5 1_555 1_555
O12 C6 1_555 1_555
Gd3 O12 1_555 1_555
O12 Fe2_2 1_555 1_555
O13 C5 1_555 1_555
C5 O14 1_555 1_555
O12_2 C6_2 1_555 1_555
O13_2 C5_2 1_555 1_555
C5_2 O25 1_555 1_555
Gd3_2 O12_2 1_555 1_555
O12_2 Fe2 1_555 1_555
O13_2 Gd3_2 1_555 1_555
C5_2 C6_2 1_555 1_555
O23 C4_2 1_555 1_555
O7_2 C3_2 1_555 1_555
C3_2 O24 1_555 1_555
C4_2 C3_2 1_555 1_555
O7_3 C3_3 1_555 1_555
O9_2 S2_2 1_555 1_555
C3_3 O3_2 1_555 1_555
O10_2 S2_2 1_555 1_555
O11_2 S2_2 1_555 1_555
O12_3 C6_3 1_555 1_555
H10_3 C6_3 1_555 1_555
Gd4 O12_3 1_555 1_555
Gd3 O9_2 1_555 1_555
Fe2_3 O7_3 1_555 1_555
O11_2 Gd3 1_555 1_555
O12_3 Fe2_3 1_555 1_555
Gd1_2 O1_2 1_555 1_555
Fe1_3 O1_2 1_555 1_555
S1_2 O2_2 1_555 1_555
O1_2 C4_3 1_555 1_555
O2_2 Gd1_2 1_555 1_555
O4_2 S1_2 1_555 1_555
O5_2 Gd1_2 1_555 1_555
O6_2 Gd1_2 1_555 1_555
O8_2 S1_2 1_555 1_555
H9_3 C4_3 1_555 1_555
O13_3 C5_3 1_555 1_555
O14_2 Fe1_3 1_555 1_555
C5_3 O14_2 1_555 1_555
Gd2_2 O4_2 1_555 1_555
S3_2 O15_2 1_555 1_555
S4_2 O17_2 1_555 1_555
O15_2 Fe1_3 1_555 1_555
O16_2 Gd1_2 1_555 1_555
O17_2 Gd2_2 1_555 1_555
O18_2 Gd2_2 1_555 1_555
O19_2 S3_2 1_555 1_555
O20_2 S4_2 1_555 1_555
O21_2 S4_2 1_555 1_555
O22_2 S4_2 1_555 1_555
Gd3_2 O20_2 1_555 1_555
O23_2 Fe1_3 1_555 1_555
O24_2 Gd2_2 1_555 1_555
O25_2 Fe1_3 1_555 1_555
O26_2 Gd1_2 1_555 1_555
O27_2 Gd2_2 1_555 1_555
O28_2 Gd1_2 1_555 1_555
O29_2 Gd2_2 1_555 1_555
Fe1_3 O2_2 1_555 1_555
S1_2 O6_2 1_555 1_555
Gd2_2 O15_2 1_555 1_555
Gd2_2 O23_2 1_555 1_555
S3_2 O16_2 1_555 1_555
S3_2 O18_2 1_555 1_555
O22_2 Gd3_2 1_555 1_555
O23_2 C4_4 1_555 1_555
O7_4 C3_4 1_555 1_555
C3_4 O24_2 1_555 1_555
C4_4 C3_4 1_555 1_555
H9_4 C4_4 1_555 1_555
O12_4 C6_4 1_555 1_555
O13_4 C5_4 1_555 1_555
C5_4 O25_2 1_555 1_555
C6_4 C4_4 1_555 1_555
H10_4 C6_4 1_555 1_555
Gd5 O12_4 1_555 1_555
Fe2_3 O7_4 1_555 1_555
O12_4 Fe2_3 1_555 1_555
O13_4 Gd5 1_555 1_555
C5_4 C6_4 1_555 1_555
S3_3 O15_3 1_555 1_555
S4_3 O17_3 1_555 1_555
O15_3 Fe2 1_555 1_555
O17_3 Gd3_2 1_555 1_555
O18_3 Gd3_2 1_555 1_555
O19_3 S3_3 1_555 1_555
O27_2 S4_3 1_555 1_555
O21_3 S4_3 1_555 1_555
O29_2 S4_3 1_555 1_555
Gd3_2 O15_3 1_555 1_555
S3_3 O16_3 1_555 1_555
S3_3 O18_3 1_555 1_555
S1_3 O2_3 1_555 1_555
O2_3 Gd3 1_555 1_555
O4_3 S1_3 1_555 1_555
O5_3 Gd3 1_555 1_555
O6_3 Gd3 1_555 1_555
O8_3 S1_3 1_555 1_555
Fe2_2 O2_3 1_555 1_555
S1_3 O6_3 1_555 1_555
O26_2 S2_3 1_555 1_555
O10_3 S2_3 1_555 1_555
O28_2 S2_3 1_555 1_555
S1_4 O2_4 1_555 1_555
O2_4 Gd4 1_555 1_555
O4_4 S1_4 1_555 1_555
O5_4 Gd4 1_555 1_555
O6_4 Gd4 1_555 1_555
O8_4 S1_4 1_555 1_555
Gd5 O4_4 1_555 1_555
S3_4 O15_4 1_555 1_555
S4_4 O17_4 1_555 1_555
O15_4 Fe2_3 1_555 1_555
O16_4 Gd4 1_555 1_555
O17_4 Gd5 1_555 1_555
O18_4 Gd5 1_555 1_555
O19_4 S3_4 1_555 1_555
O27 S4_4 1_555 1_555
O21_4 S4_4 1_555 1_555
O29 S4_4 1_555 1_555
Fe2_3 O2_4 1_555 1_555
S1_4 O6_4 1_555 1_555
Gd5 O15_4 1_555 1_555
S3_4 O16_4 1_555 1_555
S3_4 O18_4 1_555 1_555
O26 S2_4 1_555 1_555
O10_4 S2_4 1_555 1_555
O28 S2_4 1_555 1_555

#END
