
###############################################################################
#
# This file contains modified crystal structure data generated from the
# MOF subset of the Cambridge Structural Database (CSD) v543 
# hosted by the Cambridge Crystallographic Data Centre (CCDC).
#
# This work is licensed under the Creative Commons
# Attribution-NonCommercial-ShareAlike 4.0 International License.
# To view a copy of this license, visit
# http://creativecommons.org/licenses/by-nc-sa/4.0/
# or send a letter to
# Creative Commons, PO Box 1866, Mountain View, CA 94042, USA.
#
# CIF created using the CSD Python API on 29 September 2022
# The structure has been converted into the P1 space group
# The structure has a 3D framework
# The original CSD entry DADNOO is in the monoclinic crystal system
# The framework has been calculated to contain at least 10.0% void space
# The void calculation uses a probe of radius 1.32A, grid spacing 0.4
#
###############################################################################

data_DADNOO
_chemical_formula_moiety         '(C32 H72 Dy8 Fe6 N8 O88 S16 4+)n'
_symmetry_cell_setting           triclinic
_symmetry_space_group_name_H-M   'P 1'
_symmetry_Int_Tables_number      1
_space_group_name_Hall           'P 1'
loop_
_symmetry_equiv_pos_site_id
_symmetry_equiv_pos_as_xyz
1 x,y,z
_cell_length_a                   15.576(4)
_cell_length_b                   16.427(4)
_cell_length_c                   12.477(3)
_cell_angle_alpha                90
_cell_angle_beta                 92.314(4)
_cell_angle_gamma                90
_cell_volume                     3189.85
loop_
_atom_site_label
_atom_site_type_symbol
_atom_site_fract_x
_atom_site_fract_y
_atom_site_fract_z
C1 C 0.874(2) 0.780(2) 0.672(3)
H1 H 0.8902 0.7388 0.7231
H2 H 0.8504 0.7557 0.6078
H3 H 0.9229 0.8126 0.6563
C2 C 0.7777(16) 0.8997(16) 0.646(2)
H4 H 0.7351 0.9328 0.6786
H5 H 0.8263 0.9327 0.6300
H6 H 0.7539 0.8758 0.5815
N1 N 0.8050(19) 0.8354(15) 0.721(2)
H7 H 0.7597 0.8053 0.7365
H8 H 0.8263 0.8576 0.7811
C1_2 C 0.126(2) 0.780(2) 0.828(3)
H1_2 H 0.1098 0.7388 0.7769
H2_2 H 0.1496 0.7557 0.8922
H3_2 H 0.0771 0.8126 0.8437
C2_2 C 0.2223(16) 0.8997(16) 0.854(2)
H4_2 H 0.2649 0.9328 0.8214
H5_2 H 0.1737 0.9327 0.8700
H6_2 H 0.2461 0.8758 0.9185
N1_2 N 0.1950(19) 0.8354(15) 0.779(2)
H7_2 H 0.2403 0.8053 0.7635
H8_2 H 0.1737 0.8576 0.7189
C1_3 C 0.374(2) 0.280(2) 0.672(3)
H1_3 H 0.3902 0.2388 0.7231
H2_3 H 0.3504 0.2557 0.6078
H3_3 H 0.4229 0.3126 0.6563
C2_3 C 0.2777(16) 0.3997(16) 0.646(2)
H4_3 H 0.2351 0.4328 0.6786
H5_3 H 0.3263 0.4327 0.6300
H6_3 H 0.2539 0.3758 0.5815
N1_3 N 0.3050(19) 0.3354(15) 0.721(2)
H7_3 H 0.2597 0.3053 0.7365
H8_3 H 0.3263 0.3576 0.7811
C1_4 C 0.626(2) 0.280(2) 0.828(3)
H1_4 H 0.6098 0.2388 0.7769
H2_4 H 0.6496 0.2557 0.8922
H3_4 H 0.5771 0.3126 0.8437
C2_4 C 0.7223(16) 0.3997(16) 0.854(2)
H4_4 H 0.7649 0.4328 0.8214
H5_4 H 0.6737 0.4327 0.8700
H6_4 H 0.7461 0.3758 0.9185
N1_4 N 0.6950(19) 0.3354(15) 0.779(2)
H7_4 H 0.7403 0.3053 0.7635
H8_4 H 0.6737 0.3576 0.7189
C1_5 C 0.126(2) 0.220(2) 0.328(3)
H1_5 H 0.1098 0.2612 0.2769
H2_5 H 0.1496 0.2443 0.3922
H3_5 H 0.0771 0.1874 0.3437
C2_5 C 0.2223(16) 0.1003(16) 0.354(2)
H4_5 H 0.2649 0.0672 0.3214
H5_5 H 0.1737 0.0673 0.3700
H6_5 H 0.2461 0.1242 0.4185
N1_5 N 0.1950(19) 0.1646(15) 0.279(2)
H7_5 H 0.2403 0.1947 0.2635
H8_5 H 0.1737 0.1424 0.2189
C1_6 C 0.874(2) 0.220(2) 0.172(3)
H1_6 H 0.8902 0.2612 0.2231
H2_6 H 0.8504 0.2443 0.1078
H3_6 H 0.9229 0.1874 0.1563
C2_6 C 0.7777(16) 0.1003(16) 0.146(2)
H4_6 H 0.7351 0.0672 0.1786
H5_6 H 0.8263 0.0673 0.1300
H6_6 H 0.7539 0.1242 0.0815
N1_6 N 0.8050(19) 0.1646(15) 0.221(2)
H7_6 H 0.7597 0.1947 0.2365
H8_6 H 0.8263 0.1424 0.2811
C1_7 C 0.626(2) 0.720(2) 0.328(3)
H1_7 H 0.6098 0.7612 0.2769
H2_7 H 0.6496 0.7443 0.3922
H3_7 H 0.5771 0.6874 0.3437
C2_7 C 0.7223(16) 0.6003(16) 0.354(2)
H4_7 H 0.7649 0.5672 0.3214
H5_7 H 0.6737 0.5673 0.3700
H6_7 H 0.7461 0.6242 0.4185
N1_7 N 0.6950(19) 0.6646(15) 0.279(2)
H7_7 H 0.7403 0.6947 0.2635
H8_7 H 0.6737 0.6424 0.2189
C1_8 C 0.374(2) 0.720(2) 0.172(3)
H1_8 H 0.3902 0.7612 0.2231
H2_8 H 0.3504 0.7443 0.1078
H3_8 H 0.4229 0.6874 0.1563
C2_8 C 0.2777(16) 0.6003(16) 0.146(2)
H4_8 H 0.2351 0.5672 0.1786
H5_8 H 0.3263 0.5673 0.1300
H6_8 H 0.2539 0.6242 0.0815
N1_8 N 0.3050(19) 0.6646(15) 0.221(2)
H7_8 H 0.2597 0.6947 0.2365
H8_8 H 0.3263 0.6424 0.2811
S2 S 0.18876(16) 0.35127(17) 0.0729(2)
O3 O 0.0837(5) 0.1451(4) 0.0728(5)
O7 O 0.0728(5) 0.0423(4) 0.1828(6)
O9 O 0.2601(5) 0.3937(5) 0.0274(9)
C3 C 0.0650(7) 0.0731(6) 0.0923(8)
O10 O 0.1348(7) 0.4002(8) 0.1350(12)
O11 O 0.2341(6) 0.2913(7) 0.1394(8)
Dy4 Dy 0.38027(3) 0.31289(3) 0.09270(3)
Dy1 Dy 0.11973(3) 0.18711(3) 0.90730(3)
Fe1 Fe 0.0000 0.04831(11) 0.7500
S1 S 0.10489(15) 0.21941(16) 0.66356(17)
O1 O 0.0568(4) 0.0625(4) 0.8993(4)
O2 O 0.1011(4) 0.1410(4) 0.7236(5)
O4 O 0.0216(4) 0.2337(4) 0.6075(5)
O5 O 0.1358(6) 0.3111(5) 0.9902(8)
O6 O 0.1207(5) 0.2819(5) 0.7482(5)
O8 O 0.1735(5) 0.2177(6) 0.5893(6)
C4 C 0.0416(9) 0.0192(9) 0.9978(8)
O26 O 0.2399(5) 0.1063(5) 0.9726(9)
O28 O 0.2659(6) 0.2087(7) 0.8606(8)
H9 H 0.0835 0.9747 0.0009
Fe2 Fe 0.0000 0.95169(11) 0.2500
O25 O 0.0728(5) 0.9577(4) 0.6828(6)
Fe1_2 Fe 1.0000 0.04831(11) 0.7500
H10 H 0.9165 0.0253 0.9991
Dy2 Dy 0.88027(3) 0.18711(3) 0.59270(3)
S3 S 0.89511(15) 0.21941(16) 0.83644(17)
S4 S 0.81124(16) 0.35127(17) 0.4271(2)
O15 O 0.8989(4) 0.1410(4) 0.7764(5)
O16 O 0.9784(4) 0.2337(4) 0.8925(5)
O17 O 0.8642(6) 0.3111(5) 0.5098(8)
O18 O 0.8793(5) 0.2819(5) 0.7518(5)
O19 O 0.8265(5) 0.2177(6) 0.9107(6)
O20 O 0.7399(5) 0.3937(5) 0.4726(9)
O21 O 0.8652(7) 0.4002(8) 0.3650(12)
O22 O 0.7659(6) 0.2913(7) 0.3606(8)
Dy5 Dy 0.61973(3) 0.31289(3) 0.40730(3)
O23 O 0.9432(4) 0.0625(4) 0.6007(4)
O24 O 0.9163(5) 0.1451(4) 0.4272(5)
O27 O 0.7601(5) 0.1063(5) 0.5274(9)
O29 O 0.7341(6) 0.2087(7) 0.6394(8)
O12 O 0.9432(4) 0.9375(4) 0.1007(4)
C6 C 0.9584(9) 0.9808(9) 0.0022(8)
Dy3 Dy 0.88027(3) 0.81289(3) 0.09270(3)
Fe2_2 Fe 1.0000 0.95169(11) 0.2500
O13 O 0.9163(5) 0.8549(4) 0.9272(5)
O14 O 0.9272(5) 0.9577(4) 0.8172(6)
C5 C 0.9350(7) 0.9269(6) 0.9077(8)
H10_2 H 0.0835 0.0253 0.5009
O12_2 O 0.0568(4) 0.9375(4) 0.3993(4)
O13_2 O 0.0837(5) 0.8549(4) 0.5728(5)
C5_2 C 0.0650(7) 0.9269(6) 0.5923(8)
C6_2 C 0.0416(9) 0.9808(9) 0.4978(8)
Dy3_2 Dy 0.11973(3) 0.81289(3) 0.40730(3)
O7_2 O 0.9272(5) 0.0423(4) 0.3172(6)
C3_2 C 0.9350(7) 0.0731(6) 0.4077(8)
C4_2 C 0.9584(9) 0.0192(9) 0.5022(8)
H9_2 H 0.9165 0.9747 0.4991
S2_2 S 0.68876(16) 0.85127(17) 0.0729(2)
O3_2 O 0.5837(5) 0.6451(4) 0.0728(5)
O7_3 O 0.5728(5) 0.5423(4) 0.1828(6)
O9_2 O 0.7601(5) 0.8937(5) 0.0274(9)
C3_3 C 0.5650(7) 0.5731(6) 0.0923(8)
O10_2 O 0.6348(7) 0.9002(8) 0.1350(12)
O11_2 O 0.7341(6) 0.7913(7) 0.1394(8)
H9_3 H 0.5835 0.4747 0.0009
O12_3 O 0.4432(4) 0.4375(4) 0.1007(4)
C6_3 C 0.4584(9) 0.4808(9) 0.0022(8)
Fe2_3 Fe 0.5000 0.45169(11) 0.2500
Dy1_2 Dy 0.61973(3) 0.68711(3) 0.90730(3)
Fe1_3 Fe 0.5000 0.54831(11) 0.7500
S1_2 S 0.60489(15) 0.71941(16) 0.66356(17)
O1_2 O 0.5568(4) 0.5625(4) 0.8993(4)
O2_2 O 0.6011(4) 0.6410(4) 0.7236(5)
O4_2 O 0.5216(4) 0.7337(4) 0.6075(5)
O5_2 O 0.6358(6) 0.8111(5) 0.9902(8)
O6_2 O 0.6207(5) 0.7819(5) 0.7482(5)
O8_2 O 0.6735(5) 0.7177(6) 0.5893(6)
C4_3 C 0.5416(9) 0.5192(9) 0.9978(8)
O13_3 O 0.4163(5) 0.3549(4) 0.9272(5)
O14_2 O 0.4272(5) 0.4577(4) 0.8172(6)
C5_3 C 0.4350(7) 0.4269(6) 0.9077(8)
H10_3 H 0.4165 0.5253 0.9991
Dy2_2 Dy 0.38027(3) 0.68711(3) 0.59270(3)
S3_2 S 0.39511(15) 0.71941(16) 0.83644(17)
S4_2 S 0.31124(16) 0.85127(17) 0.4271(2)
O15_2 O 0.3989(4) 0.6410(4) 0.7764(5)
O16_2 O 0.4784(4) 0.7337(4) 0.8925(5)
O17_2 O 0.3642(6) 0.8111(5) 0.5098(8)
O18_2 O 0.3793(5) 0.7819(5) 0.7518(5)
O19_2 O 0.3265(5) 0.7177(6) 0.9107(6)
O20_2 O 0.2399(5) 0.8937(5) 0.4726(9)
O21_2 O 0.3652(7) 0.9002(8) 0.3650(12)
O22_2 O 0.2659(6) 0.7913(7) 0.3606(8)
O23_2 O 0.4432(4) 0.5625(4) 0.6007(4)
O24_2 O 0.4163(5) 0.6451(4) 0.4272(5)
O25_2 O 0.5728(5) 0.4577(4) 0.6828(6)
O26_2 O 0.7399(5) 0.6063(5) 0.9726(9)
O27_2 O 0.2601(5) 0.6063(5) 0.5274(9)
O28_2 O 0.7659(6) 0.7087(7) 0.8606(8)
O29_2 O 0.2341(6) 0.7087(7) 0.6394(8)
O7_4 O 0.4272(5) 0.5423(4) 0.3172(6)
C3_4 C 0.4350(7) 0.5731(6) 0.4077(8)
C4_4 C 0.4584(9) 0.5192(9) 0.5022(8)
H9_4 H 0.4165 0.4747 0.4991
O12_4 O 0.5568(4) 0.4375(4) 0.3993(4)
O13_4 O 0.5837(5) 0.3549(4) 0.5728(5)
C5_4 C 0.5650(7) 0.4269(6) 0.5923(8)
C6_4 C 0.5416(9) 0.4808(9) 0.4978(8)
H10_4 H 0.5835 0.5253 0.5009
S3_3 S 0.10489(15) 0.78059(16) 0.16356(17)
S4_3 S 0.18876(16) 0.64873(17) 0.5729(2)
O15_3 O 0.1011(4) 0.8590(4) 0.2236(5)
O16_3 O 0.0216(4) 0.7663(4) 0.1075(5)
O17_3 O 0.1358(6) 0.6889(5) 0.4902(8)
O18_3 O 0.1207(5) 0.7181(5) 0.2482(5)
O19_3 O 0.1735(5) 0.7823(6) 0.0893(6)
O21_3 O 0.1348(7) 0.5998(8) 0.6350(12)
S1_3 S 0.89511(15) 0.78059(16) 0.33644(17)
O2_3 O 0.8989(4) 0.8590(4) 0.2764(5)
O4_3 O 0.9784(4) 0.7663(4) 0.3925(5)
O5_3 O 0.8642(6) 0.6889(5) 0.0098(8)
O6_3 O 0.8793(5) 0.7181(5) 0.2518(5)
O8_3 O 0.8265(5) 0.7823(6) 0.4107(6)
S2_3 S 0.81124(16) 0.64873(17) 0.9271(2)
O10_3 O 0.8652(7) 0.5998(8) 0.8650(12)
S1_4 S 0.39511(15) 0.28059(16) 0.33644(17)
O2_4 O 0.3989(4) 0.3590(4) 0.2764(5)
O4_4 O 0.4784(4) 0.2663(4) 0.3925(5)
O5_4 O 0.3642(6) 0.1889(5) 0.0098(8)
O6_4 O 0.3793(5) 0.2181(5) 0.2518(5)
O8_4 O 0.3265(5) 0.2823(6) 0.4107(6)
S3_4 S 0.60489(15) 0.28059(16) 0.16356(17)
S4_4 S 0.68876(16) 0.14873(17) 0.5729(2)
O15_4 O 0.6011(4) 0.3590(4) 0.2236(5)
O16_4 O 0.5216(4) 0.2663(4) 0.1075(5)
O17_4 O 0.6358(6) 0.1889(5) 0.4902(8)
O18_4 O 0.6207(5) 0.2181(5) 0.2482(5)
O19_4 O 0.6735(5) 0.2823(6) 0.0893(6)
O21_4 O 0.6348(7) 0.0998(8) 0.6350(12)
S2_4 S 0.31124(16) 0.14873(17) 0.9271(2)
O10_4 O 0.3652(7) 0.0998(8) 0.8650(12)
loop_
_geom_bond_atom_site_label_1
_geom_bond_atom_site_label_2
_geom_bond_site_symmetry_1
_geom_bond_site_symmetry_2
C1 H1 1_555 1_555
H2 C1 1_555 1_555
H3 C1 1_555 1_555
C2 H4 1_555 1_555
H5 C2 1_555 1_555
H6 C2 1_555 1_555
N1 C1 1_555 1_555
H7 N1 1_555 1_555
H8 N1 1_555 1_555
C2 N1 1_555 1_555
C1_2 H1_2 1_555 1_555
H2_2 C1_2 1_555 1_555
H3_2 C1_2 1_555 1_555
C2_2 H4_2 1_555 1_555
H5_2 C2_2 1_555 1_555
H6_2 C2_2 1_555 1_555
N1_2 C1_2 1_555 1_555
H7_2 N1_2 1_555 1_555
H8_2 N1_2 1_555 1_555
C2_2 N1_2 1_555 1_555
C1_3 H1_3 1_555 1_555
H2_3 C1_3 1_555 1_555
H3_3 C1_3 1_555 1_555
C2_3 H4_3 1_555 1_555
H5_3 C2_3 1_555 1_555
H6_3 C2_3 1_555 1_555
N1_3 C1_3 1_555 1_555
H7_3 N1_3 1_555 1_555
H8_3 N1_3 1_555 1_555
C2_3 N1_3 1_555 1_555
C1_4 H1_4 1_555 1_555
H2_4 C1_4 1_555 1_555
H3_4 C1_4 1_555 1_555
C2_4 H4_4 1_555 1_555
H5_4 C2_4 1_555 1_555
H6_4 C2_4 1_555 1_555
N1_4 C1_4 1_555 1_555
H7_4 N1_4 1_555 1_555
H8_4 N1_4 1_555 1_555
C2_4 N1_4 1_555 1_555
C1_5 H1_5 1_555 1_555
H2_5 C1_5 1_555 1_555
H3_5 C1_5 1_555 1_555
C2_5 H4_5 1_555 1_555
H5_5 C2_5 1_555 1_555
H6_5 C2_5 1_555 1_555
N1_5 C1_5 1_555 1_555
H7_5 N1_5 1_555 1_555
H8_5 N1_5 1_555 1_555
C2_5 N1_5 1_555 1_555
C1_6 H1_6 1_555 1_555
H2_6 C1_6 1_555 1_555
H3_6 C1_6 1_555 1_555
C2_6 H4_6 1_555 1_555
H5_6 C2_6 1_555 1_555
H6_6 C2_6 1_555 1_555
N1_6 C1_6 1_555 1_555
H7_6 N1_6 1_555 1_555
H8_6 N1_6 1_555 1_555
C2_6 N1_6 1_555 1_555
C1_7 H1_7 1_555 1_555
H2_7 C1_7 1_555 1_555
H3_7 C1_7 1_555 1_555
C2_7 H4_7 1_555 1_555
H5_7 C2_7 1_555 1_555
H6_7 C2_7 1_555 1_555
N1_7 C1_7 1_555 1_555
H7_7 N1_7 1_555 1_555
H8_7 N1_7 1_555 1_555
C2_7 N1_7 1_555 1_555
C1_8 H1_8 1_555 1_555
H2_8 C1_8 1_555 1_555
H3_8 C1_8 1_555 1_555
C2_8 H4_8 1_555 1_555
H5_8 C2_8 1_555 1_555
H6_8 C2_8 1_555 1_555
N1_8 C1_8 1_555 1_555
H7_8 N1_8 1_555 1_555
H8_8 N1_8 1_555 1_555
C2_8 N1_8 1_555 1_555
O7 C3 1_555 1_555
O9 S2 1_555 1_555
C3 O3 1_555 1_555
O10 S2 1_555 1_555
O11 S2 1_555 1_555
Dy4 O9 1_555 1_555
O11 Dy4 1_555 1_555
Dy1 O1 1_555 1_555
Fe1 O1 1_555 1_555
S1 O2 1_555 1_555
O1 C4 1_555 1_555
O2 Dy1 1_555 1_555
O4 S1 1_555 1_555
O5 Dy1 1_555 1_555
O6 Dy1 1_555 1_555
O8 S1 1_555 1_555
O26 Dy1 1_555 1_555
O28 Dy1 1_555 1_555
Fe1 O2 1_555 1_555
S1 O6 1_555 1_555
S3 O15 1_555 1_555
S4 O17 1_555 1_555
O15 Fe1_2 1_555 1_555
O17 Dy2 1_555 1_555
O18 Dy2 1_555 1_555
O19 S3 1_555 1_555
O20 S4 1_555 1_555
O21 S4 1_555 1_555
O22 S4 1_555 1_555
Dy5 O20 1_555 1_555
O23 Fe1_2 1_555 1_555
O24 Dy2 1_555 1_555
O27 Dy2 1_555 1_555
O29 Dy2 1_555 1_555
Dy2 O15 1_555 1_555
Dy2 O23 1_555 1_555
S3 O16 1_555 1_555
S3 O18 1_555 1_555
O22 Dy5 1_555 1_555
O12 C6 1_555 1_555
Dy3 O12 1_555 1_555
O12 Fe2_2 1_555 1_555
O13 C5 1_555 1_555
C5 O14 1_555 1_555
O12_2 C6_2 1_555 1_555
O13_2 C5_2 1_555 1_555
C5_2 O25 1_555 1_555
Dy3_2 O12_2 1_555 1_555
O12_2 Fe2 1_555 1_555
O13_2 Dy3_2 1_555 1_555
C5_2 C6_2 1_555 1_555
O23 C4_2 1_555 1_555
O7_2 C3_2 1_555 1_555
C3_2 O24 1_555 1_555
C4_2 C3_2 1_555 1_555
O7_3 C3_3 1_555 1_555
O9_2 S2_2 1_555 1_555
C3_3 O3_2 1_555 1_555
O10_2 S2_2 1_555 1_555
O11_2 S2_2 1_555 1_555
O12_3 C6_3 1_555 1_555
Dy4 O12_3 1_555 1_555
Dy3 O9_2 1_555 1_555
Fe2_3 O7_3 1_555 1_555
O11_2 Dy3 1_555 1_555
O12_3 Fe2_3 1_555 1_555
Dy1_2 O1_2 1_555 1_555
Fe1_3 O1_2 1_555 1_555
S1_2 O2_2 1_555 1_555
O1_2 C4_3 1_555 1_555
O2_2 Dy1_2 1_555 1_555
O4_2 S1_2 1_555 1_555
O5_2 Dy1_2 1_555 1_555
O6_2 Dy1_2 1_555 1_555
O8_2 S1_2 1_555 1_555
O13_3 C5_3 1_555 1_555
O14_2 Fe1_3 1_555 1_555
C5_3 O14_2 1_555 1_555
Dy2_2 O4_2 1_555 1_555
S3_2 O15_2 1_555 1_555
S4_2 O17_2 1_555 1_555
O15_2 Fe1_3 1_555 1_555
O16_2 Dy1_2 1_555 1_555
O17_2 Dy2_2 1_555 1_555
O18_2 Dy2_2 1_555 1_555
O19_2 S3_2 1_555 1_555
O20_2 S4_2 1_555 1_555
O21_2 S4_2 1_555 1_555
O22_2 S4_2 1_555 1_555
Dy3_2 O20_2 1_555 1_555
O23_2 Fe1_3 1_555 1_555
O24_2 Dy2_2 1_555 1_555
O25_2 Fe1_3 1_555 1_555
O26_2 Dy1_2 1_555 1_555
O27_2 Dy2_2 1_555 1_555
O28_2 Dy1_2 1_555 1_555
O29_2 Dy2_2 1_555 1_555
Fe1_3 O2_2 1_555 1_555
S1_2 O6_2 1_555 1_555
Dy2_2 O15_2 1_555 1_555
Dy2_2 O23_2 1_555 1_555
S3_2 O16_2 1_555 1_555
S3_2 O18_2 1_555 1_555
O22_2 Dy3_2 1_555 1_555
O23_2 C4_4 1_555 1_555
O7_4 C3_4 1_555 1_555
C3_4 O24_2 1_555 1_555
C4_4 C3_4 1_555 1_555
H9_4 C4_4 1_555 1_555
O12_4 C6_4 1_555 1_555
O13_4 C5_4 1_555 1_555
C5_4 O25_2 1_555 1_555
C6_4 C4_4 1_555 1_555
H10_4 C6_4 1_555 1_555
Dy5 O12_4 1_555 1_555
Fe2_3 O7_4 1_555 1_555
O12_4 Fe2_3 1_555 1_555
O13_4 Dy5 1_555 1_555
C5_4 C6_4 1_555 1_555
S3_3 O15_3 1_555 1_555
S4_3 O17_3 1_555 1_555
O15_3 Fe2 1_555 1_555
O17_3 Dy3_2 1_555 1_555
O18_3 Dy3_2 1_555 1_555
O19_3 S3_3 1_555 1_555
O27_2 S4_3 1_555 1_555
O21_3 S4_3 1_555 1_555
O29_2 S4_3 1_555 1_555
Dy3_2 O15_3 1_555 1_555
S3_3 O16_3 1_555 1_555
S3_3 O18_3 1_555 1_555
S1_3 O2_3 1_555 1_555
O2_3 Dy3 1_555 1_555
O4_3 S1_3 1_555 1_555
O5_3 Dy3 1_555 1_555
O6_3 Dy3 1_555 1_555
O8_3 S1_3 1_555 1_555
Fe2_2 O2_3 1_555 1_555
S1_3 O6_3 1_555 1_555
O26_2 S2_3 1_555 1_555
O10_3 S2_3 1_555 1_555
O28_2 S2_3 1_555 1_555
S1_4 O2_4 1_555 1_555
O2_4 Dy4 1_555 1_555
O4_4 S1_4 1_555 1_555
O5_4 Dy4 1_555 1_555
O6_4 Dy4 1_555 1_555
O8_4 S1_4 1_555 1_555
Dy5 O4_4 1_555 1_555
S3_4 O15_4 1_555 1_555
S4_4 O17_4 1_555 1_555
O15_4 Fe2_3 1_555 1_555
O16_4 Dy4 1_555 1_555
O17_4 Dy5 1_555 1_555
O18_4 Dy5 1_555 1_555
O19_4 S3_4 1_555 1_555
O27 S4_4 1_555 1_555
O21_4 S4_4 1_555 1_555
O29 S4_4 1_555 1_555
Fe2_3 O2_4 1_555 1_555
S1_4 O6_4 1_555 1_555
Dy5 O15_4 1_555 1_555
S3_4 O16_4 1_555 1_555
S3_4 O18_4 1_555 1_555
O26 S2_4 1_555 1_555
O10_4 S2_4 1_555 1_555
O28 S2_4 1_555 1_555

#END
