
###############################################################################
#
# This file contains modified crystal structure data generated from the
# MOF subset of the Cambridge Structural Database (CSD) v543 
# hosted by the Cambridge Crystallographic Data Centre (CCDC).
#
# This work is licensed under the Creative Commons
# Attribution-NonCommercial-ShareAlike 4.0 International License.
# To view a copy of this license, visit
# http://creativecommons.org/licenses/by-nc-sa/4.0/
# or send a letter to
# Creative Commons, PO Box 1866, Mountain View, CA 94042, USA.
#
# CIF created using the CSD Python API on 29 September 2022
# The structure has been converted into the P1 space group
# The structure has a 3D framework
# The original CSD entry DADPEG is in the monoclinic crystal system
# The framework has been calculated to contain at least 10.0% void space
# The void calculation uses a probe of radius 1.32A, grid spacing 0.4
#
###############################################################################

data_DADPEG
_chemical_formula_moiety         '(C32 H72 Er8 Fe6 N8 O88 S16 4+)n'
_symmetry_cell_setting           triclinic
_symmetry_space_group_name_H-M   'P 1'
_symmetry_Int_Tables_number      1
_space_group_name_Hall           'P 1'
loop_
_symmetry_equiv_pos_site_id
_symmetry_equiv_pos_as_xyz
1 x,y,z
_cell_length_a                   15.5555(14)
_cell_length_b                   16.5429(14)
_cell_length_c                   12.3964(11)
_cell_angle_alpha                90
_cell_angle_beta                 91.9060(10)
_cell_angle_gamma                90
_cell_volume                     3188.24
loop_
_atom_site_label
_atom_site_type_symbol
_atom_site_fract_x
_atom_site_fract_y
_atom_site_fract_z
C1 C 0.8754(19) 0.784(2) 0.676(3)
H1 H 0.8944 0.7430 0.7258
H2 H 0.8517 0.7589 0.6114
H3 H 0.9234 0.8173 0.6575
C2 C 0.7761(16) 0.8988(15) 0.654(2)
H4 H 0.7330 0.9309 0.6873
H5 H 0.8236 0.9326 0.6357
H6 H 0.7520 0.8743 0.5896
N1 N 0.8056(17) 0.8369(14) 0.728(2)
H7 H 0.7614 0.8059 0.7453
H8 H 0.8273 0.8596 0.7876
C1_2 C 0.1246(19) 0.784(2) 0.824(3)
H1_2 H 0.1056 0.7430 0.7742
H2_2 H 0.1483 0.7589 0.8886
H3_2 H 0.0766 0.8173 0.8425
C2_2 C 0.2239(16) 0.8988(15) 0.846(2)
H4_2 H 0.2670 0.9309 0.8127
H5_2 H 0.1764 0.9326 0.8643
H6_2 H 0.2480 0.8743 0.9104
N1_2 N 0.1944(17) 0.8369(14) 0.772(2)
H7_2 H 0.2386 0.8059 0.7547
H8_2 H 0.1727 0.8596 0.7124
C1_3 C 0.3754(19) 0.284(2) 0.676(3)
H1_3 H 0.3944 0.2430 0.7258
H2_3 H 0.3517 0.2589 0.6114
H3_3 H 0.4234 0.3173 0.6575
C2_3 C 0.2761(16) 0.3988(15) 0.654(2)
H4_3 H 0.2330 0.4309 0.6873
H5_3 H 0.3236 0.4326 0.6357
H6_3 H 0.2520 0.3743 0.5896
N1_3 N 0.3056(17) 0.3369(14) 0.728(2)
H7_3 H 0.2614 0.3059 0.7453
H8_3 H 0.3273 0.3596 0.7876
C1_4 C 0.6246(19) 0.284(2) 0.824(3)
H1_4 H 0.6056 0.2430 0.7742
H2_4 H 0.6483 0.2589 0.8886
H3_4 H 0.5766 0.3173 0.8425
C2_4 C 0.7239(16) 0.3988(15) 0.846(2)
H4_4 H 0.7670 0.4309 0.8127
H5_4 H 0.6764 0.4326 0.8643
H6_4 H 0.7480 0.3743 0.9104
N1_4 N 0.6944(17) 0.3369(14) 0.772(2)
H7_4 H 0.7386 0.3059 0.7547
H8_4 H 0.6727 0.3596 0.7124
C1_5 C 0.1246(19) 0.216(2) 0.324(3)
H1_5 H 0.1056 0.2570 0.2742
H2_5 H 0.1483 0.2411 0.3886
H3_5 H 0.0766 0.1827 0.3425
C2_5 C 0.2239(16) 0.1012(15) 0.346(2)
H4_5 H 0.2670 0.0691 0.3127
H5_5 H 0.1764 0.0674 0.3643
H6_5 H 0.2480 0.1257 0.4104
N1_5 N 0.1944(17) 0.1631(14) 0.272(2)
H7_5 H 0.2386 0.1941 0.2547
H8_5 H 0.1727 0.1404 0.2124
C1_6 C 0.8754(19) 0.216(2) 0.176(3)
H1_6 H 0.8944 0.2570 0.2258
H2_6 H 0.8517 0.2411 0.1114
H3_6 H 0.9234 0.1827 0.1575
C2_6 C 0.7761(16) 0.1012(15) 0.154(2)
H4_6 H 0.7330 0.0691 0.1873
H5_6 H 0.8236 0.0674 0.1357
H6_6 H 0.7520 0.1257 0.0896
N1_6 N 0.8056(17) 0.1631(14) 0.228(2)
H7_6 H 0.7614 0.1941 0.2453
H8_6 H 0.8273 0.1404 0.2876
C1_7 C 0.6246(19) 0.716(2) 0.324(3)
H1_7 H 0.6056 0.7570 0.2742
H2_7 H 0.6483 0.7411 0.3886
H3_7 H 0.5766 0.6827 0.3425
C2_7 C 0.7239(16) 0.6012(15) 0.346(2)
H4_7 H 0.7670 0.5691 0.3127
H5_7 H 0.6764 0.5674 0.3643
H6_7 H 0.7480 0.6257 0.4104
N1_7 N 0.6944(17) 0.6631(14) 0.272(2)
H7_7 H 0.7386 0.6941 0.2547
H8_7 H 0.6727 0.6404 0.2124
C1_8 C 0.3754(19) 0.716(2) 0.176(3)
H1_8 H 0.3944 0.7570 0.2258
H2_8 H 0.3517 0.7411 0.1114
H3_8 H 0.4234 0.6827 0.1575
C2_8 C 0.2761(16) 0.6012(15) 0.154(2)
H4_8 H 0.2330 0.5691 0.1873
H5_8 H 0.3236 0.5674 0.1357
H6_8 H 0.2520 0.6257 0.0896
N1_8 N 0.3056(17) 0.6631(14) 0.228(2)
H7_8 H 0.2614 0.6941 0.2453
H8_8 H 0.3273 0.6404 0.2876
S2 S 0.18953(15) 0.35092(16) 0.0709(2)
O3 O 0.0827(5) 0.1464(4) 0.0735(5)
O7 O 0.0745(4) 0.0429(4) 0.1834(5)
O9 O 0.2626(5) 0.3884(6) 0.0189(10)
C3 C 0.0660(6) 0.0735(6) 0.0912(7)
O10 O 0.1348(6) 0.4060(7) 0.1228(12)
O11 O 0.2357(6) 0.2963(6) 0.1454(7)
Er4 Er 0.38199(2) 0.31392(2) 0.09359(3)
Er1 Er 0.11801(2) 0.18608(2) 0.90641(3)
Fe1 Fe -0.0000 0.04728(9) 0.7500
S1 S 0.10482(12) 0.21854(14) 0.66307(16)
O1 O 0.0565(3) 0.0627(3) 0.8993(4)
O2 O 0.1007(3) 0.1403(4) 0.7243(4)
O4 O 0.0220(4) 0.2328(4) 0.6067(5)
O5 O 0.1376(5) 0.3051(4) 0.9934(6)
O6 O 0.1192(4) 0.2805(4) 0.7487(5)
O8 O 0.1740(4) 0.2180(5) 0.5885(5)
C4 C 0.0438(6) 0.0185(6) 0.9962(7)
O26 O 0.2374(5) 0.1116(6) 0.9811(10)
O28 O 0.2643(6) 0.2037(6) 0.8546(7)
Fe2 Fe -0.0000 0.95272(9) 0.2500
H9 H 0.0856 0.9742 0.9982
O25 O 0.0745(4) 0.9571(4) 0.6834(5)
H10 H 0.9144 0.0258 0.0018
Fe1_2 Fe 1.0000 0.04728(9) 0.7500
Er2 Er 0.88199(2) 0.18608(2) 0.59359(3)
S3 S 0.89518(12) 0.21854(14) 0.83693(16)
S4 S 0.81047(15) 0.35092(16) 0.4291(2)
O15 O 0.8993(3) 0.1403(4) 0.7757(4)
O16 O 0.9780(4) 0.2328(4) 0.8933(5)
O17 O 0.8624(5) 0.3051(4) 0.5066(6)
O18 O 0.8808(4) 0.2805(4) 0.7513(5)
O19 O 0.8260(4) 0.2180(5) 0.9115(5)
O20 O 0.7374(5) 0.3884(6) 0.4811(10)
O21 O 0.8652(6) 0.4060(7) 0.3772(12)
O22 O 0.7643(6) 0.2963(6) 0.3546(7)
Er5 Er 0.61801(2) 0.31392(2) 0.40641(3)
O23 O 0.9435(3) 0.0627(3) 0.6007(4)
O24 O 0.9173(5) 0.1464(4) 0.4265(5)
O27 O 0.7626(5) 0.1116(6) 0.5189(10)
O29 O 0.7357(6) 0.2037(6) 0.6454(7)
O12 O 0.9435(3) 0.9373(3) 0.1007(4)
C6 C 0.9562(6) 0.9815(6) 0.0038(7)
Er3 Er 0.88199(2) 0.81392(2) 0.09359(3)
Fe2_2 Fe 1.0000 0.95272(9) 0.2500
O13 O 0.9173(5) 0.8536(4) 0.9265(5)
O14 O 0.9255(4) 0.9571(4) 0.8166(5)
C5 C 0.9340(6) 0.9265(6) 0.9088(7)
H10_2 H 0.0856 0.0258 0.4982
O12_2 O 0.0565(3) 0.9373(3) 0.3993(4)
O13_2 O 0.0827(5) 0.8536(4) 0.5735(5)
C5_2 C 0.0660(6) 0.9265(6) 0.5912(7)
C6_2 C 0.0438(6) 0.9815(6) 0.4962(7)
Er3_2 Er 0.11801(2) 0.81392(2) 0.40641(3)
O7_2 O 0.9255(4) 0.0429(4) 0.3166(5)
C3_2 C 0.9340(6) 0.0735(6) 0.4088(7)
C4_2 C 0.9562(6) 0.0185(6) 0.5038(7)
H9_2 H 0.9144 0.9742 0.5018
S2_2 S 0.68953(15) 0.85092(16) 0.0709(2)
O3_2 O 0.5827(5) 0.6464(4) 0.0735(5)
O7_3 O 0.5745(4) 0.5429(4) 0.1834(5)
O9_2 O 0.7626(5) 0.8884(6) 0.0189(10)
C3_3 C 0.5660(6) 0.5735(6) 0.0912(7)
O10_2 O 0.6348(6) 0.9060(7) 0.1228(12)
O11_2 O 0.7357(6) 0.7963(6) 0.1454(7)
O12_3 O 0.4435(3) 0.4373(3) 0.1007(4)
C6_3 C 0.4562(6) 0.4815(6) 0.0038(7)
H10_3 H 0.4144 0.5258 0.0018
Fe2_3 Fe 0.5000 0.45272(9) 0.2500
Er1_2 Er 0.61801(2) 0.68608(2) 0.90641(3)
Fe1_3 Fe 0.5000 0.54728(9) 0.7500
S1_2 S 0.60482(12) 0.71854(14) 0.66307(16)
O1_2 O 0.5565(3) 0.5627(3) 0.8993(4)
O2_2 O 0.6007(3) 0.6403(4) 0.7243(4)
O4_2 O 0.5220(4) 0.7328(4) 0.6067(5)
O5_2 O 0.6376(5) 0.8051(4) 0.9934(6)
O6_2 O 0.6192(4) 0.7805(4) 0.7487(5)
O8_2 O 0.6740(4) 0.7180(5) 0.5885(5)
C4_3 C 0.5438(6) 0.5185(6) 0.9962(7)
H9_3 H 0.5856 0.4742 0.9982
O13_3 O 0.4173(5) 0.3536(4) 0.9265(5)
O14_2 O 0.4255(4) 0.4571(4) 0.8166(5)
C5_3 C 0.4340(6) 0.4265(6) 0.9088(7)
Er2_2 Er 0.38199(2) 0.68608(2) 0.59359(3)
S3_2 S 0.39518(12) 0.71854(14) 0.83693(16)
S4_2 S 0.31047(15) 0.85092(16) 0.4291(2)
O15_2 O 0.3993(3) 0.6403(4) 0.7757(4)
O16_2 O 0.4780(4) 0.7328(4) 0.8933(5)
O17_2 O 0.3624(5) 0.8051(4) 0.5066(6)
O18_2 O 0.3808(4) 0.7805(4) 0.7513(5)
O19_2 O 0.3260(4) 0.7180(5) 0.9115(5)
O20_2 O 0.2374(5) 0.8884(6) 0.4811(10)
O21_2 O 0.3652(6) 0.9060(7) 0.3772(12)
O22_2 O 0.2643(6) 0.7963(6) 0.3546(7)
O23_2 O 0.4435(3) 0.5627(3) 0.6007(4)
O24_2 O 0.4173(5) 0.6464(4) 0.4265(5)
O25_2 O 0.5745(4) 0.4571(4) 0.6834(5)
O26_2 O 0.7374(5) 0.6116(6) 0.9811(10)
O27_2 O 0.2626(5) 0.6116(6) 0.5189(10)
O28_2 O 0.7643(6) 0.7037(6) 0.8546(7)
O29_2 O 0.2357(6) 0.7037(6) 0.6454(7)
O7_4 O 0.4255(4) 0.5429(4) 0.3166(5)
C3_4 C 0.4340(6) 0.5735(6) 0.4088(7)
C4_4 C 0.4562(6) 0.5185(6) 0.5038(7)
H9_4 H 0.4144 0.4742 0.5018
O12_4 O 0.5565(3) 0.4373(3) 0.3993(4)
O13_4 O 0.5827(5) 0.3536(4) 0.5735(5)
C5_4 C 0.5660(6) 0.4265(6) 0.5912(7)
C6_4 C 0.5438(6) 0.4815(6) 0.4962(7)
H10_4 H 0.5856 0.5258 0.4982
S3_3 S 0.10482(12) 0.78146(14) 0.16307(16)
S4_3 S 0.18953(15) 0.64908(16) 0.5709(2)
O15_3 O 0.1007(3) 0.8597(4) 0.2243(4)
O16_3 O 0.0220(4) 0.7672(4) 0.1067(5)
O17_3 O 0.1376(5) 0.6949(4) 0.4934(6)
O18_3 O 0.1192(4) 0.7195(4) 0.2487(5)
O19_3 O 0.1740(4) 0.7820(5) 0.0885(5)
O21_3 O 0.1348(6) 0.5940(7) 0.6228(12)
S1_3 S 0.89518(12) 0.78146(14) 0.33693(16)
O2_3 O 0.8993(3) 0.8597(4) 0.2757(4)
O4_3 O 0.9780(4) 0.7672(4) 0.3933(5)
O5_3 O 0.8624(5) 0.6949(4) 0.0066(6)
O6_3 O 0.8808(4) 0.7195(4) 0.2513(5)
O8_3 O 0.8260(4) 0.7820(5) 0.4115(5)
S2_3 S 0.81047(15) 0.64908(16) 0.9291(2)
O10_3 O 0.8652(6) 0.5940(7) 0.8772(12)
S1_4 S 0.39518(12) 0.28146(14) 0.33693(16)
O2_4 O 0.3993(3) 0.3597(4) 0.2757(4)
O4_4 O 0.4780(4) 0.2672(4) 0.3933(5)
O5_4 O 0.3624(5) 0.1949(4) 0.0066(6)
O6_4 O 0.3808(4) 0.2195(4) 0.2513(5)
O8_4 O 0.3260(4) 0.2820(5) 0.4115(5)
S3_4 S 0.60482(12) 0.28146(14) 0.16307(16)
S4_4 S 0.68953(15) 0.14908(16) 0.5709(2)
O15_4 O 0.6007(3) 0.3597(4) 0.2243(4)
O16_4 O 0.5220(4) 0.2672(4) 0.1067(5)
O17_4 O 0.6376(5) 0.1949(4) 0.4934(6)
O18_4 O 0.6192(4) 0.2195(4) 0.2487(5)
O19_4 O 0.6740(4) 0.2820(5) 0.0885(5)
O21_4 O 0.6348(6) 0.0940(7) 0.6228(12)
S2_4 S 0.31047(15) 0.14908(16) 0.9291(2)
O10_4 O 0.3652(6) 0.0940(7) 0.8772(12)
loop_
_geom_bond_atom_site_label_1
_geom_bond_atom_site_label_2
_geom_bond_site_symmetry_1
_geom_bond_site_symmetry_2
C1 H1 1_555 1_555
H2 C1 1_555 1_555
H3 C1 1_555 1_555
C2 H4 1_555 1_555
H5 C2 1_555 1_555
H6 C2 1_555 1_555
N1 C1 1_555 1_555
H7 N1 1_555 1_555
H8 N1 1_555 1_555
C2 N1 1_555 1_555
C1_2 H1_2 1_555 1_555
H2_2 C1_2 1_555 1_555
H3_2 C1_2 1_555 1_555
C2_2 H4_2 1_555 1_555
H5_2 C2_2 1_555 1_555
H6_2 C2_2 1_555 1_555
N1_2 C1_2 1_555 1_555
H7_2 N1_2 1_555 1_555
H8_2 N1_2 1_555 1_555
C2_2 N1_2 1_555 1_555
C1_3 H1_3 1_555 1_555
H2_3 C1_3 1_555 1_555
H3_3 C1_3 1_555 1_555
C2_3 H4_3 1_555 1_555
H5_3 C2_3 1_555 1_555
H6_3 C2_3 1_555 1_555
N1_3 C1_3 1_555 1_555
H7_3 N1_3 1_555 1_555
H8_3 N1_3 1_555 1_555
C2_3 N1_3 1_555 1_555
C1_4 H1_4 1_555 1_555
H2_4 C1_4 1_555 1_555
H3_4 C1_4 1_555 1_555
C2_4 H4_4 1_555 1_555
H5_4 C2_4 1_555 1_555
H6_4 C2_4 1_555 1_555
N1_4 C1_4 1_555 1_555
H7_4 N1_4 1_555 1_555
H8_4 N1_4 1_555 1_555
C2_4 N1_4 1_555 1_555
C1_5 H1_5 1_555 1_555
H2_5 C1_5 1_555 1_555
H3_5 C1_5 1_555 1_555
C2_5 H4_5 1_555 1_555
H5_5 C2_5 1_555 1_555
H6_5 C2_5 1_555 1_555
N1_5 C1_5 1_555 1_555
H7_5 N1_5 1_555 1_555
H8_5 N1_5 1_555 1_555
C2_5 N1_5 1_555 1_555
C1_6 H1_6 1_555 1_555
H2_6 C1_6 1_555 1_555
H3_6 C1_6 1_555 1_555
C2_6 H4_6 1_555 1_555
H5_6 C2_6 1_555 1_555
H6_6 C2_6 1_555 1_555
N1_6 C1_6 1_555 1_555
H7_6 N1_6 1_555 1_555
H8_6 N1_6 1_555 1_555
C2_6 N1_6 1_555 1_555
C1_7 H1_7 1_555 1_555
H2_7 C1_7 1_555 1_555
H3_7 C1_7 1_555 1_555
C2_7 H4_7 1_555 1_555
H5_7 C2_7 1_555 1_555
H6_7 C2_7 1_555 1_555
N1_7 C1_7 1_555 1_555
H7_7 N1_7 1_555 1_555
H8_7 N1_7 1_555 1_555
C2_7 N1_7 1_555 1_555
C1_8 H1_8 1_555 1_555
H2_8 C1_8 1_555 1_555
H3_8 C1_8 1_555 1_555
C2_8 H4_8 1_555 1_555
H5_8 C2_8 1_555 1_555
H6_8 C2_8 1_555 1_555
N1_8 C1_8 1_555 1_555
H7_8 N1_8 1_555 1_555
H8_8 N1_8 1_555 1_555
C2_8 N1_8 1_555 1_555
O7 C3 1_555 1_555
O9 S2 1_555 1_555
C3 O3 1_555 1_555
O10 S2 1_555 1_555
O11 S2 1_555 1_555
Er4 O9 1_555 1_555
O11 Er4 1_555 1_555
Er1 O1 1_555 1_555
Fe1 O1 1_555 1_555
S1 O2 1_555 1_555
O1 C4 1_555 1_555
O2 Er1 1_555 1_555
O4 S1 1_555 1_555
O5 Er1 1_555 1_555
O6 Er1 1_555 1_555
O8 S1 1_555 1_555
O26 Er1 1_555 1_555
O28 Er1 1_555 1_555
Fe1 O2 1_555 1_555
S1 O6 1_555 1_555
S3 O15 1_555 1_555
S4 O17 1_555 1_555
O15 Fe1_2 1_555 1_555
O17 Er2 1_555 1_555
O18 Er2 1_555 1_555
O19 S3 1_555 1_555
O20 S4 1_555 1_555
O21 S4 1_555 1_555
O22 S4 1_555 1_555
Er5 O20 1_555 1_555
O23 Fe1_2 1_555 1_555
O24 Er2 1_555 1_555
O27 Er2 1_555 1_555
O29 Er2 1_555 1_555
Er2 O15 1_555 1_555
Er2 O23 1_555 1_555
S3 O16 1_555 1_555
S3 O18 1_555 1_555
O22 Er5 1_555 1_555
O12 C6 1_555 1_555
Er3 O12 1_555 1_555
O12 Fe2_2 1_555 1_555
O13 C5 1_555 1_555
C5 O14 1_555 1_555
O12_2 C6_2 1_555 1_555
O13_2 C5_2 1_555 1_555
C5_2 O25 1_555 1_555
Er3_2 O12_2 1_555 1_555
O12_2 Fe2 1_555 1_555
O13_2 Er3_2 1_555 1_555
C5_2 C6_2 1_555 1_555
O23 C4_2 1_555 1_555
O7_2 C3_2 1_555 1_555
C3_2 O24 1_555 1_555
C4_2 C3_2 1_555 1_555
O7_3 C3_3 1_555 1_555
O9_2 S2_2 1_555 1_555
C3_3 O3_2 1_555 1_555
O10_2 S2_2 1_555 1_555
O11_2 S2_2 1_555 1_555
O12_3 C6_3 1_555 1_555
H10_3 C6_3 1_555 1_555
Er4 O12_3 1_555 1_555
Er3 O9_2 1_555 1_555
Fe2_3 O7_3 1_555 1_555
O11_2 Er3 1_555 1_555
O12_3 Fe2_3 1_555 1_555
Er1_2 O1_2 1_555 1_555
Fe1_3 O1_2 1_555 1_555
S1_2 O2_2 1_555 1_555
O1_2 C4_3 1_555 1_555
O2_2 Er1_2 1_555 1_555
O4_2 S1_2 1_555 1_555
O5_2 Er1_2 1_555 1_555
O6_2 Er1_2 1_555 1_555
O8_2 S1_2 1_555 1_555
H9_3 C4_3 1_555 1_555
O13_3 C5_3 1_555 1_555
O14_2 Fe1_3 1_555 1_555
C5_3 O14_2 1_555 1_555
Er2_2 O4_2 1_555 1_555
S3_2 O15_2 1_555 1_555
S4_2 O17_2 1_555 1_555
O15_2 Fe1_3 1_555 1_555
O16_2 Er1_2 1_555 1_555
O17_2 Er2_2 1_555 1_555
O18_2 Er2_2 1_555 1_555
O19_2 S3_2 1_555 1_555
O20_2 S4_2 1_555 1_555
O21_2 S4_2 1_555 1_555
O22_2 S4_2 1_555 1_555
Er3_2 O20_2 1_555 1_555
O23_2 Fe1_3 1_555 1_555
O24_2 Er2_2 1_555 1_555
O25_2 Fe1_3 1_555 1_555
O26_2 Er1_2 1_555 1_555
O27_2 Er2_2 1_555 1_555
O28_2 Er1_2 1_555 1_555
O29_2 Er2_2 1_555 1_555
Fe1_3 O2_2 1_555 1_555
S1_2 O6_2 1_555 1_555
Er2_2 O15_2 1_555 1_555
Er2_2 O23_2 1_555 1_555
S3_2 O16_2 1_555 1_555
S3_2 O18_2 1_555 1_555
O22_2 Er3_2 1_555 1_555
O23_2 C4_4 1_555 1_555
O7_4 C3_4 1_555 1_555
C3_4 O24_2 1_555 1_555
C4_4 C3_4 1_555 1_555
H9_4 C4_4 1_555 1_555
O12_4 C6_4 1_555 1_555
O13_4 C5_4 1_555 1_555
C5_4 O25_2 1_555 1_555
C6_4 C4_4 1_555 1_555
H10_4 C6_4 1_555 1_555
Er5 O12_4 1_555 1_555
Fe2_3 O7_4 1_555 1_555
O12_4 Fe2_3 1_555 1_555
O13_4 Er5 1_555 1_555
C5_4 C6_4 1_555 1_555
S3_3 O15_3 1_555 1_555
S4_3 O17_3 1_555 1_555
O15_3 Fe2 1_555 1_555
O17_3 Er3_2 1_555 1_555
O18_3 Er3_2 1_555 1_555
O19_3 S3_3 1_555 1_555
O27_2 S4_3 1_555 1_555
O21_3 S4_3 1_555 1_555
O29_2 S4_3 1_555 1_555
Er3_2 O15_3 1_555 1_555
S3_3 O16_3 1_555 1_555
S3_3 O18_3 1_555 1_555
S1_3 O2_3 1_555 1_555
O2_3 Er3 1_555 1_555
O4_3 S1_3 1_555 1_555
O5_3 Er3 1_555 1_555
O6_3 Er3 1_555 1_555
O8_3 S1_3 1_555 1_555
Fe2_2 O2_3 1_555 1_555
S1_3 O6_3 1_555 1_555
O26_2 S2_3 1_555 1_555
O10_3 S2_3 1_555 1_555
O28_2 S2_3 1_555 1_555
S1_4 O2_4 1_555 1_555
O2_4 Er4 1_555 1_555
O4_4 S1_4 1_555 1_555
O5_4 Er4 1_555 1_555
O6_4 Er4 1_555 1_555
O8_4 S1_4 1_555 1_555
Er5 O4_4 1_555 1_555
S3_4 O15_4 1_555 1_555
S4_4 O17_4 1_555 1_555
O15_4 Fe2_3 1_555 1_555
O16_4 Er4 1_555 1_555
O17_4 Er5 1_555 1_555
O18_4 Er5 1_555 1_555
O19_4 S3_4 1_555 1_555
O27 S4_4 1_555 1_555
O21_4 S4_4 1_555 1_555
O29 S4_4 1_555 1_555
Fe2_3 O2_4 1_555 1_555
S1_4 O6_4 1_555 1_555
Er5 O15_4 1_555 1_555
S3_4 O16_4 1_555 1_555
S3_4 O18_4 1_555 1_555
O26 S2_4 1_555 1_555
O10_4 S2_4 1_555 1_555
O28 S2_4 1_555 1_555

#END
