
###############################################################################
#
# This file contains modified crystal structure data generated from the
# MOF subset of the Cambridge Structural Database (CSD) v543 
# hosted by the Cambridge Crystallographic Data Centre (CCDC).
#
# This work is licensed under the Creative Commons
# Attribution-NonCommercial-ShareAlike 4.0 International License.
# To view a copy of this license, visit
# http://creativecommons.org/licenses/by-nc-sa/4.0/
# or send a letter to
# Creative Commons, PO Box 1866, Mountain View, CA 94042, USA.
#
# CIF created using the CSD Python API on 29 September 2022
# The structure has been converted into the P1 space group
# The structure has a 3D framework
# The original CSD entry DADPAC is in the monoclinic crystal system
# The framework has been calculated to contain at least 10.0% void space
# The void calculation uses a probe of radius 1.32A, grid spacing 0.4
#
###############################################################################

data_DADPAC
_chemical_formula_moiety         '(C32 H72 Fe6 N8 O88 S16 Sm8 4+)n'
_symmetry_cell_setting           triclinic
_symmetry_space_group_name_H-M   'P 1'
_symmetry_Int_Tables_number      1
_space_group_name_Hall           'P 1'
loop_
_symmetry_equiv_pos_site_id
_symmetry_equiv_pos_as_xyz
1 x,y,z
_cell_length_a                   15.498(4)
_cell_length_b                   16.400(4)
_cell_length_c                   12.660(3)
_cell_angle_alpha                90
_cell_angle_beta                 93.360(4)
_cell_angle_gamma                90
_cell_volume                     3212.23
loop_
_atom_site_label
_atom_site_type_symbol
_atom_site_fract_x
_atom_site_fract_y
_atom_site_fract_z
C1 C 0.8893(15) 0.7683(17) 0.6653(19)
H1 H 0.8994 0.7251 0.7157
H2 H 0.8706 0.7457 0.5979
H3 H 0.9418 0.7985 0.6586
C2 C 0.7808(15) 0.9006(14) 0.654(2)
H4 H 0.7380 0.9224 0.6982
H5 H 0.8254 0.9404 0.6465
H6 H 0.7543 0.8876 0.5858
N1 N 0.8188(15) 0.8257(13) 0.7036(19)
H7 H 0.7738 0.7934 0.7131
H8 H 0.8382 0.8412 0.7680
C1_2 C 0.1107(15) 0.7683(17) 0.8347(19)
H1_2 H 0.1006 0.7251 0.7843
H2_2 H 0.1294 0.7457 0.9021
H3_2 H 0.0582 0.7985 0.8414
C2_2 C 0.2192(15) 0.9006(14) 0.846(2)
H4_2 H 0.2620 0.9224 0.8018
H5_2 H 0.1746 0.9404 0.8535
H6_2 H 0.2457 0.8876 0.9142
N1_2 N 0.1812(15) 0.8257(13) 0.7964(19)
H7_2 H 0.2262 0.7934 0.7869
H8_2 H 0.1618 0.8412 0.7320
C1_3 C 0.3893(15) 0.2683(17) 0.6653(19)
H1_3 H 0.3994 0.2251 0.7157
H2_3 H 0.3706 0.2457 0.5979
H3_3 H 0.4418 0.2985 0.6586
C2_3 C 0.2808(15) 0.4006(14) 0.654(2)
H4_3 H 0.2380 0.4224 0.6982
H5_3 H 0.3254 0.4404 0.6465
H6_3 H 0.2543 0.3876 0.5858
N1_3 N 0.3188(15) 0.3257(13) 0.7036(19)
H7_3 H 0.2738 0.2934 0.7131
H8_3 H 0.3382 0.3412 0.7680
C1_4 C 0.6107(15) 0.2683(17) 0.8347(19)
H1_4 H 0.6006 0.2251 0.7843
H2_4 H 0.6294 0.2457 0.9021
H3_4 H 0.5582 0.2985 0.8414
C2_4 C 0.7192(15) 0.4006(14) 0.846(2)
H4_4 H 0.7620 0.4224 0.8018
H5_4 H 0.6746 0.4404 0.8535
H6_4 H 0.7457 0.3876 0.9142
N1_4 N 0.6812(15) 0.3257(13) 0.7964(19)
H7_4 H 0.7262 0.2934 0.7869
H8_4 H 0.6618 0.3412 0.7320
C1_5 C 0.1107(15) 0.2317(17) 0.3347(19)
H1_5 H 0.1006 0.2749 0.2843
H2_5 H 0.1294 0.2543 0.4021
H3_5 H 0.0582 0.2015 0.3414
C2_5 C 0.2192(15) 0.0994(14) 0.346(2)
H4_5 H 0.2620 0.0776 0.3018
H5_5 H 0.1746 0.0596 0.3535
H6_5 H 0.2457 0.1124 0.4142
N1_5 N 0.1812(15) 0.1743(13) 0.2964(19)
H7_5 H 0.2262 0.2066 0.2869
H8_5 H 0.1618 0.1588 0.2320
C1_6 C 0.8893(15) 0.2317(17) 0.1653(19)
H1_6 H 0.8994 0.2749 0.2157
H2_6 H 0.8706 0.2543 0.0979
H3_6 H 0.9418 0.2015 0.1586
C2_6 C 0.7808(15) 0.0994(14) 0.154(2)
H4_6 H 0.7380 0.0776 0.1982
H5_6 H 0.8254 0.0596 0.1465
H6_6 H 0.7543 0.1124 0.0858
N1_6 N 0.8188(15) 0.1743(13) 0.2036(19)
H7_6 H 0.7738 0.2066 0.2131
H8_6 H 0.8382 0.1588 0.2680
C1_7 C 0.6107(15) 0.7317(17) 0.3347(19)
H1_7 H 0.6006 0.7749 0.2843
H2_7 H 0.6294 0.7543 0.4021
H3_7 H 0.5582 0.7015 0.3414
C2_7 C 0.7192(15) 0.5994(14) 0.346(2)
H4_7 H 0.7620 0.5776 0.3018
H5_7 H 0.6746 0.5596 0.3535
H6_7 H 0.7457 0.6124 0.4142
N1_7 N 0.6812(15) 0.6743(13) 0.2964(19)
H7_7 H 0.7262 0.7066 0.2869
H8_7 H 0.6618 0.6588 0.2320
C1_8 C 0.3893(15) 0.7317(17) 0.1653(19)
H1_8 H 0.3994 0.7749 0.2157
H2_8 H 0.3706 0.7543 0.0979
H3_8 H 0.4418 0.7015 0.1586
C2_8 C 0.2808(15) 0.5994(14) 0.154(2)
H4_8 H 0.2380 0.5776 0.1982
H5_8 H 0.3254 0.5596 0.1465
H6_8 H 0.2543 0.6124 0.0858
N1_8 N 0.3188(15) 0.6743(13) 0.2036(19)
H7_8 H 0.2738 0.7066 0.2131
H8_8 H 0.3382 0.6588 0.2680
S2 S 0.18208(13) 0.35054(14) 0.07458(19)
O3 O 0.0861(4) 0.1427(4) 0.0790(4)
O7 O 0.0751(5) 0.0402(4) 0.1860(6)
O9 O 0.2534(4) 0.4006(4) 0.0429(6)
C3 C 0.0636(6) 0.0727(6) 0.0969(8)
O10 O 0.1313(5) 0.3891(6) 0.1528(8)
O11 O 0.2251(5) 0.2755(6) 0.1179(8)
Sm4 Sm 0.37743(3) 0.30981(3) 0.08622(3)
Sm1 Sm 0.12257(3) 0.19019(3) 0.91378(3)
Fe1 Fe 0.0000 0.05061(10) 0.7500
S1 S 0.10822(12) 0.21911(14) 0.66777(15)
O1 O 0.0538(4) 0.0629(4) 0.9015(5)
O2 O 0.1035(4) 0.1416(3) 0.7294(5)
O4 O 0.0252(4) 0.2343(4) 0.6097(5)
O5 O 0.1246(5) 0.3256(5) 0.9860(7)
O6 O 0.1236(4) 0.2823(4) 0.7499(5)
O8 O 0.1774(4) 0.2172(6) 0.5981(6)
C4 C 0.0368(8) 0.0231(8) 0.9960(9)
O26 O 0.2466(4) 0.0994(4) 0.9571(6)
O28 O 0.2749(5) 0.2245(6) 0.8821(8)
Fe2 Fe 0.0000 0.94939(10) 0.2500
H9 H 0.0813 0.9806 0.9985
O25 O 0.0751(5) 0.9598(4) 0.6860(6)
H10 H 0.9187 0.0194 0.0015
Fe1_2 Fe 1.0000 0.05061(10) 0.7500
Sm2 Sm 0.87743(3) 0.19019(3) 0.58622(3)
S3 S 0.89178(12) 0.21911(14) 0.83223(15)
S4 S 0.81792(13) 0.35054(14) 0.42542(19)
O15 O 0.8965(4) 0.1416(3) 0.7706(5)
O16 O 0.9748(4) 0.2343(4) 0.8903(5)
O17 O 0.8754(5) 0.3256(5) 0.5140(7)
O18 O 0.8764(4) 0.2823(4) 0.7501(5)
O19 O 0.8226(4) 0.2172(6) 0.9019(6)
O20 O 0.7466(4) 0.4006(4) 0.4571(6)
O21 O 0.8687(5) 0.3891(6) 0.3472(8)
O22 O 0.7749(5) 0.2755(6) 0.3821(8)
Sm5 Sm 0.62257(3) 0.30981(3) 0.41378(3)
O23 O 0.9462(4) 0.0629(4) 0.5985(5)
O24 O 0.9139(4) 0.1427(4) 0.4210(4)
O27 O 0.7534(4) 0.0994(4) 0.5429(6)
O29 O 0.7251(5) 0.2245(6) 0.6179(8)
O12 O 0.9462(4) 0.9371(4) 0.0985(5)
C6 C 0.9632(8) 0.9769(8) 0.0040(9)
Sm3 Sm 0.87743(3) 0.80981(3) 0.08622(3)
Fe2_2 Fe 1.0000 0.94939(10) 0.2500
O13 O 0.9139(4) 0.8573(4) 0.9210(4)
O14 O 0.9249(5) 0.9598(4) 0.8140(6)
C5 C 0.9364(6) 0.9273(6) 0.9031(8)
H10_2 H 0.0813 0.0194 0.4985
O12_2 O 0.0538(4) 0.9371(4) 0.4015(5)
O13_2 O 0.0861(4) 0.8573(4) 0.5790(4)
C5_2 C 0.0636(6) 0.9273(6) 0.5969(8)
C6_2 C 0.0368(8) 0.9769(8) 0.4960(9)
Sm3_2 Sm 0.12257(3) 0.80981(3) 0.41378(3)
O7_2 O 0.9249(5) 0.0402(4) 0.3140(6)
C3_2 C 0.9364(6) 0.0727(6) 0.4031(8)
C4_2 C 0.9632(8) 0.0231(8) 0.5040(9)
H9_2 H 0.9187 0.9806 0.5015
S2_2 S 0.68208(13) 0.85054(14) 0.07458(19)
O3_2 O 0.5861(4) 0.6427(4) 0.0790(4)
O7_3 O 0.5751(5) 0.5402(4) 0.1860(6)
O9_2 O 0.7534(4) 0.9006(4) 0.0429(6)
C3_3 C 0.5636(6) 0.5727(6) 0.0969(8)
O10_2 O 0.6313(5) 0.8891(6) 0.1528(8)
O11_2 O 0.7251(5) 0.7755(6) 0.1179(8)
O12_3 O 0.4462(4) 0.4371(4) 0.0985(5)
C6_3 C 0.4632(8) 0.4769(8) 0.0040(9)
H10_3 H 0.4187 0.5194 0.0015
Fe2_3 Fe 0.5000 0.44939(10) 0.2500
Sm1_2 Sm 0.62257(3) 0.69019(3) 0.91378(3)
Fe1_3 Fe 0.5000 0.55061(10) 0.7500
S1_2 S 0.60822(12) 0.71911(14) 0.66777(15)
O1_2 O 0.5538(4) 0.5629(4) 0.9015(5)
O2_2 O 0.6035(4) 0.6416(3) 0.7294(5)
O4_2 O 0.5252(4) 0.7343(4) 0.6097(5)
O5_2 O 0.6246(5) 0.8256(5) 0.9860(7)
O6_2 O 0.6236(4) 0.7823(4) 0.7499(5)
O8_2 O 0.6774(4) 0.7172(6) 0.5981(6)
C4_3 C 0.5368(8) 0.5231(8) 0.9960(9)
H9_3 H 0.5813 0.4806 0.9985
O13_3 O 0.4139(4) 0.3573(4) 0.9210(4)
O14_2 O 0.4249(5) 0.4598(4) 0.8140(6)
C5_3 C 0.4364(6) 0.4273(6) 0.9031(8)
Sm2_2 Sm 0.37743(3) 0.69019(3) 0.58622(3)
S3_2 S 0.39178(12) 0.71911(14) 0.83223(15)
S4_2 S 0.31792(13) 0.85054(14) 0.42542(19)
O15_2 O 0.3965(4) 0.6416(3) 0.7706(5)
O16_2 O 0.4748(4) 0.7343(4) 0.8903(5)
O17_2 O 0.3754(5) 0.8256(5) 0.5140(7)
O18_2 O 0.3764(4) 0.7823(4) 0.7501(5)
O19_2 O 0.3226(4) 0.7172(6) 0.9019(6)
O20_2 O 0.2466(4) 0.9006(4) 0.4571(6)
O21_2 O 0.3687(5) 0.8891(6) 0.3472(8)
O22_2 O 0.2749(5) 0.7755(6) 0.3821(8)
O23_2 O 0.4462(4) 0.5629(4) 0.5985(5)
O24_2 O 0.4139(4) 0.6427(4) 0.4210(4)
O25_2 O 0.5751(5) 0.4598(4) 0.6860(6)
O26_2 O 0.7466(4) 0.5994(4) 0.9571(6)
O27_2 O 0.2534(4) 0.5994(4) 0.5429(6)
O28_2 O 0.7749(5) 0.7245(6) 0.8821(8)
O29_2 O 0.2251(5) 0.7245(6) 0.6179(8)
O7_4 O 0.4249(5) 0.5402(4) 0.3140(6)
C3_4 C 0.4364(6) 0.5727(6) 0.4031(8)
C4_4 C 0.4632(8) 0.5231(8) 0.5040(9)
H9_4 H 0.4187 0.4806 0.5015
O12_4 O 0.5538(4) 0.4371(4) 0.4015(5)
O13_4 O 0.5861(4) 0.3573(4) 0.5790(4)
C5_4 C 0.5636(6) 0.4273(6) 0.5969(8)
C6_4 C 0.5368(8) 0.4769(8) 0.4960(9)
H10_4 H 0.5813 0.5194 0.4985
S3_3 S 0.10822(12) 0.78089(14) 0.16777(15)
S4_3 S 0.18208(13) 0.64946(14) 0.57458(19)
O15_3 O 0.1035(4) 0.8584(3) 0.2294(5)
O16_3 O 0.0252(4) 0.7657(4) 0.1097(5)
O17_3 O 0.1246(5) 0.6744(5) 0.4860(7)
O18_3 O 0.1236(4) 0.7177(4) 0.2499(5)
O19_3 O 0.1774(4) 0.7828(6) 0.0981(6)
O21_3 O 0.1313(5) 0.6109(6) 0.6528(8)
S1_3 S 0.89178(12) 0.78089(14) 0.33223(15)
O2_3 O 0.8965(4) 0.8584(3) 0.2706(5)
O4_3 O 0.9748(4) 0.7657(4) 0.3903(5)
O5_3 O 0.8754(5) 0.6744(5) 0.0140(7)
O6_3 O 0.8764(4) 0.7177(4) 0.2501(5)
O8_3 O 0.8226(4) 0.7828(6) 0.4019(6)
S2_3 S 0.81792(13) 0.64946(14) 0.92542(19)
O10_3 O 0.8687(5) 0.6109(6) 0.8472(8)
S1_4 S 0.39178(12) 0.28089(14) 0.33223(15)
O2_4 O 0.3965(4) 0.3584(3) 0.2706(5)
O4_4 O 0.4748(4) 0.2657(4) 0.3903(5)
O5_4 O 0.3754(5) 0.1744(5) 0.0140(7)
O6_4 O 0.3764(4) 0.2177(4) 0.2501(5)
O8_4 O 0.3226(4) 0.2828(6) 0.4019(6)
S3_4 S 0.60822(12) 0.28089(14) 0.16777(15)
S4_4 S 0.68208(13) 0.14946(14) 0.57458(19)
O15_4 O 0.6035(4) 0.3584(3) 0.2294(5)
O16_4 O 0.5252(4) 0.2657(4) 0.1097(5)
O17_4 O 0.6246(5) 0.1744(5) 0.4860(7)
O18_4 O 0.6236(4) 0.2177(4) 0.2499(5)
O19_4 O 0.6774(4) 0.2828(6) 0.0981(6)
O21_4 O 0.6313(5) 0.1109(6) 0.6528(8)
S2_4 S 0.31792(13) 0.14946(14) 0.92542(19)
O10_4 O 0.3687(5) 0.1109(6) 0.8472(8)
loop_
_geom_bond_atom_site_label_1
_geom_bond_atom_site_label_2
_geom_bond_site_symmetry_1
_geom_bond_site_symmetry_2
C1 H1 1_555 1_555
H2 C1 1_555 1_555
H3 C1 1_555 1_555
C2 H4 1_555 1_555
H5 C2 1_555 1_555
H6 C2 1_555 1_555
N1 C1 1_555 1_555
H7 N1 1_555 1_555
H8 N1 1_555 1_555
C2 N1 1_555 1_555
C1_2 H1_2 1_555 1_555
H2_2 C1_2 1_555 1_555
H3_2 C1_2 1_555 1_555
C2_2 H4_2 1_555 1_555
H5_2 C2_2 1_555 1_555
H6_2 C2_2 1_555 1_555
N1_2 C1_2 1_555 1_555
H7_2 N1_2 1_555 1_555
H8_2 N1_2 1_555 1_555
C2_2 N1_2 1_555 1_555
C1_3 H1_3 1_555 1_555
H2_3 C1_3 1_555 1_555
H3_3 C1_3 1_555 1_555
C2_3 H4_3 1_555 1_555
H5_3 C2_3 1_555 1_555
H6_3 C2_3 1_555 1_555
N1_3 C1_3 1_555 1_555
H7_3 N1_3 1_555 1_555
H8_3 N1_3 1_555 1_555
C2_3 N1_3 1_555 1_555
C1_4 H1_4 1_555 1_555
H2_4 C1_4 1_555 1_555
H3_4 C1_4 1_555 1_555
C2_4 H4_4 1_555 1_555
H5_4 C2_4 1_555 1_555
H6_4 C2_4 1_555 1_555
N1_4 C1_4 1_555 1_555
H7_4 N1_4 1_555 1_555
H8_4 N1_4 1_555 1_555
C2_4 N1_4 1_555 1_555
C1_5 H1_5 1_555 1_555
H2_5 C1_5 1_555 1_555
H3_5 C1_5 1_555 1_555
C2_5 H4_5 1_555 1_555
H5_5 C2_5 1_555 1_555
H6_5 C2_5 1_555 1_555
N1_5 C1_5 1_555 1_555
H7_5 N1_5 1_555 1_555
H8_5 N1_5 1_555 1_555
C2_5 N1_5 1_555 1_555
C1_6 H1_6 1_555 1_555
H2_6 C1_6 1_555 1_555
H3_6 C1_6 1_555 1_555
C2_6 H4_6 1_555 1_555
H5_6 C2_6 1_555 1_555
H6_6 C2_6 1_555 1_555
N1_6 C1_6 1_555 1_555
H7_6 N1_6 1_555 1_555
H8_6 N1_6 1_555 1_555
C2_6 N1_6 1_555 1_555
C1_7 H1_7 1_555 1_555
H2_7 C1_7 1_555 1_555
H3_7 C1_7 1_555 1_555
C2_7 H4_7 1_555 1_555
H5_7 C2_7 1_555 1_555
H6_7 C2_7 1_555 1_555
N1_7 C1_7 1_555 1_555
H7_7 N1_7 1_555 1_555
H8_7 N1_7 1_555 1_555
C2_7 N1_7 1_555 1_555
C1_8 H1_8 1_555 1_555
H2_8 C1_8 1_555 1_555
H3_8 C1_8 1_555 1_555
C2_8 H4_8 1_555 1_555
H5_8 C2_8 1_555 1_555
H6_8 C2_8 1_555 1_555
N1_8 C1_8 1_555 1_555
H7_8 N1_8 1_555 1_555
H8_8 N1_8 1_555 1_555
C2_8 N1_8 1_555 1_555
O7 C3 1_555 1_555
O9 S2 1_555 1_555
C3 O3 1_555 1_555
O10 S2 1_555 1_555
O11 S2 1_555 1_555
Sm4 O9 1_555 1_555
O11 Sm4 1_555 1_555
Sm1 O1 1_555 1_555
Fe1 O1 1_555 1_555
S1 O2 1_555 1_555
O1 C4 1_555 1_555
O2 Sm1 1_555 1_555
O4 S1 1_555 1_555
O5 Sm1 1_555 1_555
O6 Sm1 1_555 1_555
O8 S1 1_555 1_555
O26 Sm1 1_555 1_555
O28 Sm1 1_555 1_555
Fe1 O2 1_555 1_555
S1 O6 1_555 1_555
S3 O15 1_555 1_555
S4 O17 1_555 1_555
O15 Fe1_2 1_555 1_555
O17 Sm2 1_555 1_555
O18 Sm2 1_555 1_555
O19 S3 1_555 1_555
O20 S4 1_555 1_555
O21 S4 1_555 1_555
O22 S4 1_555 1_555
Sm5 O20 1_555 1_555
O23 Fe1_2 1_555 1_555
O24 Sm2 1_555 1_555
O27 Sm2 1_555 1_555
O29 Sm2 1_555 1_555
Sm2 O15 1_555 1_555
Sm2 O23 1_555 1_555
S3 O16 1_555 1_555
S3 O18 1_555 1_555
O22 Sm5 1_555 1_555
O12 C6 1_555 1_555
Sm3 O12 1_555 1_555
O12 Fe2_2 1_555 1_555
O13 C5 1_555 1_555
C5 O14 1_555 1_555
O12_2 C6_2 1_555 1_555
O13_2 C5_2 1_555 1_555
C5_2 O25 1_555 1_555
Sm3_2 O12_2 1_555 1_555
O12_2 Fe2 1_555 1_555
O13_2 Sm3_2 1_555 1_555
C5_2 C6_2 1_555 1_555
O23 C4_2 1_555 1_555
O7_2 C3_2 1_555 1_555
C3_2 O24 1_555 1_555
C4_2 C3_2 1_555 1_555
O7_3 C3_3 1_555 1_555
O9_2 S2_2 1_555 1_555
C3_3 O3_2 1_555 1_555
O10_2 S2_2 1_555 1_555
O11_2 S2_2 1_555 1_555
O12_3 C6_3 1_555 1_555
H10_3 C6_3 1_555 1_555
Sm4 O12_3 1_555 1_555
Sm3 O9_2 1_555 1_555
Fe2_3 O7_3 1_555 1_555
O11_2 Sm3 1_555 1_555
O12_3 Fe2_3 1_555 1_555
Sm1_2 O1_2 1_555 1_555
Fe1_3 O1_2 1_555 1_555
S1_2 O2_2 1_555 1_555
O1_2 C4_3 1_555 1_555
O2_2 Sm1_2 1_555 1_555
O4_2 S1_2 1_555 1_555
O5_2 Sm1_2 1_555 1_555
O6_2 Sm1_2 1_555 1_555
O8_2 S1_2 1_555 1_555
H9_3 C4_3 1_555 1_555
O13_3 C5_3 1_555 1_555
O14_2 Fe1_3 1_555 1_555
C5_3 O14_2 1_555 1_555
Sm2_2 O4_2 1_555 1_555
S3_2 O15_2 1_555 1_555
S4_2 O17_2 1_555 1_555
O15_2 Fe1_3 1_555 1_555
O16_2 Sm1_2 1_555 1_555
O17_2 Sm2_2 1_555 1_555
O18_2 Sm2_2 1_555 1_555
O19_2 S3_2 1_555 1_555
O20_2 S4_2 1_555 1_555
O21_2 S4_2 1_555 1_555
O22_2 S4_2 1_555 1_555
Sm3_2 O20_2 1_555 1_555
O23_2 Fe1_3 1_555 1_555
O24_2 Sm2_2 1_555 1_555
O25_2 Fe1_3 1_555 1_555
O26_2 Sm1_2 1_555 1_555
O27_2 Sm2_2 1_555 1_555
O28_2 Sm1_2 1_555 1_555
O29_2 Sm2_2 1_555 1_555
Fe1_3 O2_2 1_555 1_555
S1_2 O6_2 1_555 1_555
Sm2_2 O15_2 1_555 1_555
Sm2_2 O23_2 1_555 1_555
S3_2 O16_2 1_555 1_555
S3_2 O18_2 1_555 1_555
O22_2 Sm3_2 1_555 1_555
O23_2 C4_4 1_555 1_555
O7_4 C3_4 1_555 1_555
C3_4 O24_2 1_555 1_555
C4_4 C3_4 1_555 1_555
H9_4 C4_4 1_555 1_555
O12_4 C6_4 1_555 1_555
O13_4 C5_4 1_555 1_555
C5_4 O25_2 1_555 1_555
C6_4 C4_4 1_555 1_555
H10_4 C6_4 1_555 1_555
Sm5 O12_4 1_555 1_555
Fe2_3 O7_4 1_555 1_555
O12_4 Fe2_3 1_555 1_555
O13_4 Sm5 1_555 1_555
C5_4 C6_4 1_555 1_555
S3_3 O15_3 1_555 1_555
S4_3 O17_3 1_555 1_555
O15_3 Fe2 1_555 1_555
O17_3 Sm3_2 1_555 1_555
O18_3 Sm3_2 1_555 1_555
O19_3 S3_3 1_555 1_555
O27_2 S4_3 1_555 1_555
O21_3 S4_3 1_555 1_555
O29_2 S4_3 1_555 1_555
Sm3_2 O15_3 1_555 1_555
S3_3 O16_3 1_555 1_555
S3_3 O18_3 1_555 1_555
S1_3 O2_3 1_555 1_555
O2_3 Sm3 1_555 1_555
O4_3 S1_3 1_555 1_555
O5_3 Sm3 1_555 1_555
O6_3 Sm3 1_555 1_555
O8_3 S1_3 1_555 1_555
Fe2_2 O2_3 1_555 1_555
S1_3 O6_3 1_555 1_555
O26_2 S2_3 1_555 1_555
O10_3 S2_3 1_555 1_555
O28_2 S2_3 1_555 1_555
S1_4 O2_4 1_555 1_555
O2_4 Sm4 1_555 1_555
O4_4 S1_4 1_555 1_555
O5_4 Sm4 1_555 1_555
O6_4 Sm4 1_555 1_555
O8_4 S1_4 1_555 1_555
Sm5 O4_4 1_555 1_555
S3_4 O15_4 1_555 1_555
S4_4 O17_4 1_555 1_555
O15_4 Fe2_3 1_555 1_555
O16_4 Sm4 1_555 1_555
O17_4 Sm5 1_555 1_555
O18_4 Sm5 1_555 1_555
O19_4 S3_4 1_555 1_555
O27 S4_4 1_555 1_555
O21_4 S4_4 1_555 1_555
O29 S4_4 1_555 1_555
Fe2_3 O2_4 1_555 1_555
S1_4 O6_4 1_555 1_555
Sm5 O15_4 1_555 1_555
S3_4 O16_4 1_555 1_555
S3_4 O18_4 1_555 1_555
O26 S2_4 1_555 1_555
O10_4 S2_4 1_555 1_555
O28 S2_4 1_555 1_555

#END
