
###############################################################################
#
# This file contains modified crystal structure data generated from the
# MOF subset of the Cambridge Structural Database (CSD) v543 
# hosted by the Cambridge Crystallographic Data Centre (CCDC).
#
# This work is licensed under the Creative Commons
# Attribution-NonCommercial-ShareAlike 4.0 International License.
# To view a copy of this license, visit
# http://creativecommons.org/licenses/by-nc-sa/4.0/
# or send a letter to
# Creative Commons, PO Box 1866, Mountain View, CA 94042, USA.
#
# CIF created using the CSD Python API on 29 September 2022
# The structure has been converted into the P1 space group
# The structure has a 3D framework
# The original CSD entry DADTOS12 is in the rhombohedral crystal system
# The framework has been calculated to contain at least 10.0% void space
# The void calculation uses a probe of radius 1.32A, grid spacing 0.4
# The framework is charged, counterions have been retained in the structure
#
###############################################################################

data_DADTOS12
_chemical_formula_moiety         '(C22 H22 Mn7 O30 7-)n'
_symmetry_cell_setting           triclinic
_symmetry_space_group_name_H-M   'P 1'
_symmetry_Int_Tables_number      1
_space_group_name_Hall           'P 1'
loop_
_symmetry_equiv_pos_site_id
_symmetry_equiv_pos_as_xyz
1 x,y,z
_cell_length_a                   8.31888(17)
_cell_length_b                   8.31888(17)
_cell_length_c                   22.8731(3)
_cell_angle_alpha                90
_cell_angle_beta                 90
_cell_angle_gamma                120
_cell_volume                     1370.84
loop_
_atom_site_label
_atom_site_type_symbol
_atom_site_fract_x
_atom_site_fract_y
_atom_site_fract_z
C1 C 0.000000 0.4519(3) 0.250000
H1 H -0.000001 0.563650 0.249999
O2 O 0.1228(2) 0.4458(3) 0.22092(6)
Mn4 Mn 0.333333 0.666667 0.166667
Mn1 Mn 0.666667 0.333333 0.333333
O1 O 0.8772(2) 0.3230(2) 0.27908(6)
C1_2 C 1.000000 0.4519(3) 0.250000
H1_2 H 0.999999 0.563650 0.249999
O3 O 0.6770(2) 0.5542(3) 0.27908(6)
C2 C 0.5481(3) 0.54810(30) 0.250000
H2 H 0.436350 0.436349 0.249999
O4 O 0.5542(3) 0.6770(2) 0.22092(6)
O5 O 0.4458(3) 0.1228(2) 0.27908(6)
C3 C 0.45190(30) -0.000000 0.250000
H3 H 0.563651 0.000001 0.249999
O7 O 0.4561(2) 0.3437(2) 0.38759(6)
O8 O 0.6563(2) 0.1125(3) 0.38759(6)
O9 O 0.8875(3) 0.5439(2) 0.38759(6)
C3_2 C 0.45190(30) 1.000000 0.250000
H3_2 H 0.563651 1.000001 0.249999
O6 O 0.3230(2) 0.8772(2) 0.22092(6)
O7_2 O 0.3437(2) 0.4561(2) 0.11241(6)
O8_2 O 0.1125(3) 0.6563(2) 0.11241(6)
O9_2 O 0.5439(2) 0.8875(3) 0.11241(6)
Mn4_2 Mn -0.000000 0.000000 0.500000
Mn4_3 Mn -0.000000 1.000000 0.500000
O4_2 O 0.2209(3) 0.0103(2) 0.55425(6)
Mn4_4 Mn 1.000000 0.000000 0.500000
Mn1_2 Mn 0.333334 0.666666 0.666666
O1_2 O 0.5439(2) 0.6563(2) 0.61241(6)
C1_3 C 0.666667 0.7852(3) 0.583333
H1_3 H 0.666666 0.896983 0.583332
O2_2 O 0.7895(2) 0.7791(3) 0.55425(6)
O3_2 O 0.3437(2) 0.8875(3) 0.61241(6)
C2_2 C 0.2148(3) 0.88143(30) 0.583333
H2_2 H 0.103017 0.769682 0.583332
O5_2 O 0.1125(3) 0.4561(2) 0.61241(6)
C3_3 C 0.11857(30) 0.333333 0.583333
H3_3 H 0.230318 0.333334 0.583332
Mn4_5 Mn 1.000000 1.000000 0.500000
O7_3 O 0.1228(2) 0.6770(2) 0.72092(6)
O8_3 O 0.3230(2) 0.4458(3) 0.72092(6)
O9_3 O 0.5542(3) 0.8772(2) 0.72092(6)
O6_2 O 0.9897(2) 0.2105(2) 0.55425(6)
O9_4 O 0.2105(2) 0.2209(3) 0.44575(6)
O7_4 O 0.0103(2) 0.7895(2) 0.44575(6)
O8_4 O 0.7791(3) 0.9897(2) 0.44575(6)
Mn1_3 Mn 0.000000 -0.000000 -0.000000
O9_5 O 0.2209(3) 0.2105(2) 0.05425(6)
Mn1_4 Mn 0.000000 -0.000000 1.000000
C1_4 C 0.333333 0.1186(3) 0.916667
H1_4 H 0.333332 0.230317 0.916666
O2_3 O 0.4561(2) 0.1125(3) 0.88759(6)
O3_3 O 0.0103(2) 0.2209(3) 0.94575(6)
Mn4_6 Mn 0.666666 0.333334 0.833334
Mn1_5 Mn 0.000000 1.000000 -0.000000
Mn1_6 Mn 0.000000 1.000000 1.000000
O1_3 O 0.2105(2) 0.9897(2) 0.94575(6)
Mn1_7 Mn 1.000000 -0.000000 -0.000000
O7_5 O 0.7895(2) 0.0103(2) 0.05425(6)
Mn1_8 Mn 1.000000 -0.000000 1.000000
C2_3 C 0.8814(3) 0.21477(30) 0.916667
H2_3 H 0.769683 0.103016 0.916666
O4_3 O 0.8875(3) 0.3437(2) 0.88759(6)
Mn1_9 Mn 1.000000 1.000000 -0.000000
O8_5 O 0.9897(2) 0.7791(3) 0.05425(6)
Mn1_10 Mn 1.000000 1.000000 1.000000
O5_3 O 0.7791(3) 0.7895(2) 0.94575(6)
C3_4 C 0.78523(30) 0.666667 0.916667
H3_4 H 0.896984 0.666668 0.916666
O6_3 O 0.6563(2) 0.5439(2) 0.88759(6)
O7_6 O 0.6770(2) 0.1228(2) 0.77908(6)
O8_6 O 0.4458(3) 0.3230(2) 0.77908(6)
O9_6 O 0.8772(2) 0.5542(3) 0.77908(6)
C3_5 C 0.54810(30) -0.000000 0.750000
H3_5 H 0.436349 -0.000001 0.750001
C1_5 C -0.000000 0.5481(3) 0.750000
H1_5 H 0.000001 0.436350 0.750001
C2_4 C 0.4519(3) 0.45190(30) 0.750000
H2_4 H 0.563650 0.563651 0.750001
C3_6 C 0.54810(30) 1.000000 0.750000
H3_6 H 0.436349 0.999999 0.750001
C1_6 C 1.000000 0.5481(3) 0.750000
H1_6 H 1.000001 0.436350 0.750001
C1_7 C 0.333333 0.2148(3) 0.416667
H1_7 H 0.333334 0.103017 0.416668
C2_5 C 0.7852(3) 0.11857(30) 0.416667
H2_5 H 0.896983 0.230318 0.416668
C3_7 C 0.88143(30) 0.666667 0.416667
H3_7 H 0.769682 0.666666 0.416668
C3_8 C 0.21477(30) 0.333333 0.083333
H3_8 H 0.103016 0.333332 0.083334
C2_6 C 0.1186(3) 0.78523(30) 0.083333
H2_6 H 0.230317 0.896984 0.083334
C1_8 C 0.666667 0.8814(3) 0.083333
H1_8 H 0.666668 0.769683 0.083334
loop_
_geom_bond_atom_site_label_1
_geom_bond_atom_site_label_2
_geom_bond_site_symmetry_1
_geom_bond_site_symmetry_2
C1 H1 1_555 1_555
O2 C1 1_555 1_555
Mn4 O2 1_555 1_555
Mn1 O1 1_555 1_555
O1 C1_2 1_555 1_555
C1_2 H1_2 1_555 1_555
O3 Mn1 1_555 1_555
C2 O3 1_555 1_555
H2 C2 1_555 1_555
O4 C2 1_555 1_555
O5 Mn1 1_555 1_555
C3 O5 1_555 1_555
H3 C3 1_555 1_555
Mn4 O4 1_555 1_555
O7 Mn1 1_555 1_555
O8 Mn1 1_555 1_555
O9 Mn1 1_555 1_555
H3_2 C3_2 1_555 1_555
O6 C3_2 1_555 1_555
Mn4 O6 1_555 1_555
O7_2 Mn4 1_555 1_555
O8_2 Mn4 1_555 1_555
O9_2 Mn4 1_555 1_555
Mn4_2 O4_2 1_555 1_555
Mn1_2 O1_2 1_555 1_555
O1_2 C1_3 1_555 1_555
C1_3 H1_3 1_555 1_555
O2_2 C1_3 1_555 1_555
O3_2 Mn1_2 1_555 1_555
C2_2 O3_2 1_555 1_555
H2_2 C2_2 1_555 1_555
O5_2 Mn1_2 1_555 1_555
C3_3 O5_2 1_555 1_555
H3_3 C3_3 1_555 1_555
Mn4_5 O2_2 1_555 1_555
O7_3 Mn1_2 1_555 1_555
O8_3 Mn1_2 1_555 1_555
O9_3 Mn1_2 1_555 1_555
Mn4_4 O6_2 1_555 1_555
O9_4 Mn4_2 1_555 1_555
O7_4 Mn4_3 1_555 1_555
O8_4 Mn4_5 1_555 1_555
O9_5 Mn1_3 1_555 1_555
C1_4 H1_4 1_555 1_555
O2_3 C1_4 1_555 1_555
O3_3 Mn1_4 1_555 1_555
Mn4_6 O2_3 1_555 1_555
Mn1_6 O1_3 1_555 1_555
O7_5 Mn1_7 1_555 1_555
H2_3 C2_3 1_555 1_555
O4_3 C2_3 1_555 1_555
Mn4_6 O4_3 1_555 1_555
O8_5 Mn1_9 1_555 1_555
O5_3 Mn1_10 1_555 1_555
C3_4 O5_3 1_555 1_555
H3_4 C3_4 1_555 1_555
O6_3 C3_4 1_555 1_555
Mn4_6 O6_3 1_555 1_555
O7_6 Mn4_6 1_555 1_555
O8_6 Mn4_6 1_555 1_555
O9_6 Mn4_6 1_555 1_555
H3_5 C3_5 1_555 1_555
O7_6 C3_5 1_555 1_555
O7_3 C1_5 1_555 1_555
C1_5 H1_5 1_555 1_555
C2_4 O8_3 1_555 1_555
H2_4 C2_4 1_555 1_555
O8_6 C2_4 1_555 1_555
C3_6 O9_3 1_555 1_555
H3_6 C3_6 1_555 1_555
C1_6 H1_6 1_555 1_555
O9_6 C1_6 1_555 1_555
O7 C1_7 1_555 1_555
C1_7 H1_7 1_555 1_555
O9_4 C1_7 1_555 1_555
C2_5 O8 1_555 1_555
H2_5 C2_5 1_555 1_555
C3_7 O9 1_555 1_555
H3_7 C3_7 1_555 1_555
C3_8 O9_5 1_555 1_555
H3_8 C3_8 1_555 1_555
O7_2 C3_8 1_555 1_555
H2_6 C2_6 1_555 1_555
O8_2 C2_6 1_555 1_555
C1_8 H1_8 1_555 1_555
O9_2 C1_8 1_555 1_555

#END
