
###############################################################################
#
# This file contains modified crystal structure data generated from the
# MOF subset of the Cambridge Structural Database (CSD) v543 
# hosted by the Cambridge Crystallographic Data Centre (CCDC).
#
# This work is licensed under the Creative Commons
# Attribution-NonCommercial-ShareAlike 4.0 International License.
# To view a copy of this license, visit
# http://creativecommons.org/licenses/by-nc-sa/4.0/
# or send a letter to
# Creative Commons, PO Box 1866, Mountain View, CA 94042, USA.
#
# CIF created using the CSD Python API on 29 September 2022
# The structure has been converted into the P1 space group
# The structure has a 3D framework
# The original CSD entry DADTUY is in the rhombohedral crystal system
# The framework has been calculated to contain at least 10.0% void space
# The void calculation uses a probe of radius 1.32A, grid spacing 0.4
# The framework is charged, counterions have been retained in the structure
#
###############################################################################

data_DADTUY
_chemical_formula_moiety         '(C22 H22 Co5 O28 13-)n'
_symmetry_cell_setting           triclinic
_symmetry_space_group_name_H-M   'P 1'
_symmetry_Int_Tables_number      1
_space_group_name_Hall           'P 1'
loop_
_symmetry_equiv_pos_site_id
_symmetry_equiv_pos_as_xyz
1 x,y,z
_cell_length_a                   8.1989(12)
_cell_length_b                   8.1989(12)
_cell_length_c                   22.224(4)
_cell_angle_alpha                90
_cell_angle_beta                 90
_cell_angle_gamma                120
_cell_volume                     1293.79
loop_
_atom_site_label
_atom_site_type_symbol
_atom_site_fract_x
_atom_site_fract_y
_atom_site_fract_z
Co3 Co 0.0000 -0.0000 -0.0000
Co3_2 Co 0.0000 -0.0000 1.0000
Co3_3 Co 0.0000 1.0000 -0.0000
Co3_4 Co 0.0000 1.0000 1.0000
O4 O 0.79154(14) 0.00812(15) 0.05340(4)
Co3_5 Co 1.0000 -0.0000 -0.0000
Co3_6 Co 1.0000 -0.0000 1.0000
Co1 Co 0.3333 0.6667 0.1667
O1 O 0.34145(15) 0.45821(14) 0.11327(4)
C1 C 0.2090(2) 0.3333 0.0833
H1 H 0.0956 0.3333 0.0833
O2 O 0.21657(21) 0.20846(14) 0.05340(4)
O3 O 0.54179(14) 0.88324(21) 0.11327(4)
C2 C 0.6667 0.8757(2) 0.0833
H2 H 0.6667 0.7623 0.0833
O5 O 0.11676(21) 0.65855(15) 0.11327(4)
C3 C 0.1243(2) 0.7910(2) 0.0833
H3 H 0.2377 0.9044 0.0833
O7 O 0.12488(14) 0.45009(21) 0.22006(4)
O8 O 0.54991(21) 0.67478(15) 0.22006(4)
O9 O 0.32522(15) 0.87512(14) 0.22006(4)
Co3_7 Co 1.0000 1.0000 -0.0000
Co3_8 Co 1.0000 1.0000 1.0000
O6 O 0.99188(15) 0.78343(21) 0.05340(4)
Co3_9 Co -0.0000 0.0000 0.5000
O4_2 O 0.00812(15) 0.79154(14) 0.44660(4)
Co3_10 Co -0.0000 1.0000 0.5000
Co3_11 Co 1.0000 0.0000 0.5000
Co1_2 Co 0.6667 0.3333 0.3333
O1_2 O 0.45821(14) 0.34145(15) 0.38673(4)
C1_2 C 0.3333 0.2090(2) 0.4167
H1_2 H 0.3333 0.0956 0.4167
O2_2 O 0.20846(14) 0.21657(21) 0.44660(4)
O3_2 O 0.88324(21) 0.54179(14) 0.38673(4)
C2_2 C 0.8757(2) 0.6667 0.4167
H2_2 H 0.7623 0.6667 0.4167
O5_2 O 0.65855(15) 0.11676(21) 0.38673(4)
C3_2 C 0.7910(2) 0.1243(2) 0.4167
H3_2 H 0.9044 0.2377 0.4167
O7_2 O 0.45009(21) 0.12488(14) 0.27994(4)
O8_2 O 0.67478(15) 0.54991(21) 0.27994(4)
O9_2 O 0.87512(14) 0.32522(15) 0.27994(4)
Co3_12 Co 1.0000 1.0000 0.5000
O6_2 O 0.78343(21) 0.99188(15) 0.44660(4)
O8_3 O 0.21657(21) 0.00812(15) 0.55340(4)
O9_3 O 0.99188(15) 0.20846(14) 0.55340(4)
O7_3 O 0.79154(14) 0.78343(21) 0.55340(4)
C2_3 C 0.5424(2) 0.0000 0.7500
H2_3 H 0.4290 0.0000 0.7500
O4_3 O 0.67478(15) 0.12488(14) 0.77994(4)
Co3_13 Co 0.6666 0.3334 0.8334
Co1_3 Co 0.3334 0.6666 0.6666
O1_3 O 0.12488(14) 0.67478(15) 0.72006(4)
C1_3 C -0.0000 0.5423(2) 0.7500
H1_3 H -0.0000 0.4289 0.7500
O3_3 O 0.54991(21) 0.87512(14) 0.72006(4)
C2_4 C 0.5424(2) 1.0000 0.7500
H2_4 H 0.4290 1.0000 0.7500
O5_3 O 0.32522(15) 0.45009(21) 0.72006(4)
C3_3 C 0.4577(2) 0.4576(2) 0.7500
H3_3 H 0.5711 0.5710 0.7500
O6_3 O 0.45009(21) 0.32522(15) 0.77994(4)
O7_4 O 0.11676(21) 0.45821(14) 0.61327(4)
O8_4 O 0.34145(15) 0.88324(21) 0.61327(4)
O9_4 O 0.54179(14) 0.65855(15) 0.61327(4)
C1_4 C 1.0000 0.5423(2) 0.7500
H1_4 H 1.0000 0.4289 0.7500
O2_3 O 0.87512(14) 0.54991(21) 0.77994(4)
O7_5 O 0.45821(14) 0.11676(21) 0.88673(4)
O8_5 O 0.88324(21) 0.34145(15) 0.88673(4)
O9_5 O 0.65855(15) 0.54179(14) 0.88673(4)
O8_6 O 0.00812(15) 0.21657(21) 0.94660(4)
O9_6 O 0.20846(14) 0.99188(15) 0.94660(4)
O7_6 O 0.78343(21) 0.79154(14) 0.94660(4)
C1_5 C 0.7910(2) 0.6667 0.9167
H1_5 H 0.9044 0.6667 0.9167
C2_5 C 0.3333 0.1243(2) 0.9167
H2_5 H 0.3333 0.2377 0.9167
C3_4 C 0.8757(2) 0.2090(2) 0.9167
H3_4 H 0.7623 0.0956 0.9167
C1_6 C 0.6667 0.7910(2) 0.5833
H1_6 H 0.6667 0.9044 0.5833
C2_6 C 0.1243(2) 0.3333 0.5833
H2_6 H 0.2377 0.3333 0.5833
C3_5 C 0.2090(2) 0.8757(2) 0.5833
H3_5 H 0.0956 0.7623 0.5833
C1_7 C 0.0000 0.4577(2) 0.2500
H1_7 H 0.0000 0.5711 0.2500
C1_8 C 1.0000 0.4577(2) 0.2500
H1_8 H 1.0000 0.5711 0.2500
C2_7 C 0.4576(2) -0.0000 0.2500
H2_7 H 0.5710 -0.0000 0.2500
C3_6 C 0.5423(2) 0.5424(2) 0.2500
H3_6 H 0.4289 0.4290 0.2500
C2_8 C 0.4576(2) 1.0000 0.2500
H2_8 H 0.5710 1.0000 0.2500
loop_
_geom_bond_atom_site_label_1
_geom_bond_atom_site_label_2
_geom_bond_site_symmetry_1
_geom_bond_site_symmetry_2
Co3_5 O4 1_555 1_555
Co1 O1 1_555 1_555
O1 C1 1_555 1_555
C1 H1 1_555 1_555
O2 C1 1_555 1_555
O3 Co1 1_555 1_555
C2 O3 1_555 1_555
H2 C2 1_555 1_555
O5 Co1 1_555 1_555
C3 O5 1_555 1_555
H3 C3 1_555 1_555
O7 Co1 1_555 1_555
O8 Co1 1_555 1_555
O9 Co1 1_555 1_555
Co3 O2 1_555 1_555
Co3_7 O6 1_555 1_555
Co3_10 O4_2 1_555 1_555
Co1_2 O1_2 1_555 1_555
O1_2 C1_2 1_555 1_555
C1_2 H1_2 1_555 1_555
O2_2 C1_2 1_555 1_555
O3_2 Co1_2 1_555 1_555
C2_2 O3_2 1_555 1_555
H2_2 C2_2 1_555 1_555
O5_2 Co1_2 1_555 1_555
C3_2 O5_2 1_555 1_555
H3_2 C3_2 1_555 1_555
O7_2 Co1_2 1_555 1_555
O8_2 Co1_2 1_555 1_555
O9_2 Co1_2 1_555 1_555
Co3_9 O2_2 1_555 1_555
Co3_12 O6_2 1_555 1_555
O8_3 Co3_9 1_555 1_555
O9_3 Co3_11 1_555 1_555
O7_3 Co3_12 1_555 1_555
H2_3 C2_3 1_555 1_555
O4_3 C2_3 1_555 1_555
Co3_13 O4_3 1_555 1_555
Co1_3 O1_3 1_555 1_555
O1_3 C1_3 1_555 1_555
C1_3 H1_3 1_555 1_555
O3_3 Co1_3 1_555 1_555
C2_4 O3_3 1_555 1_555
H2_4 C2_4 1_555 1_555
O5_3 Co1_3 1_555 1_555
C3_3 O5_3 1_555 1_555
H3_3 C3_3 1_555 1_555
O6_3 C3_3 1_555 1_555
O7_4 Co1_3 1_555 1_555
O8_4 Co1_3 1_555 1_555
O9_4 Co1_3 1_555 1_555
Co3_13 O6_3 1_555 1_555
C1_4 H1_4 1_555 1_555
O2_3 C1_4 1_555 1_555
Co3_13 O2_3 1_555 1_555
O7_5 Co3_13 1_555 1_555
O8_5 Co3_13 1_555 1_555
O9_5 Co3_13 1_555 1_555
O8_6 Co3_2 1_555 1_555
O9_6 Co3_4 1_555 1_555
O7_6 Co3_8 1_555 1_555
O9_5 C1_5 1_555 1_555
C1_5 H1_5 1_555 1_555
O7_6 C1_5 1_555 1_555
C2_5 O7_5 1_555 1_555
H2_5 C2_5 1_555 1_555
C3_4 O8_5 1_555 1_555
H3_4 C3_4 1_555 1_555
O9_4 C1_6 1_555 1_555
C1_6 H1_6 1_555 1_555
O7_3 C1_6 1_555 1_555
C2_6 O7_4 1_555 1_555
H2_6 C2_6 1_555 1_555
C3_5 O8_4 1_555 1_555
H3_5 C3_5 1_555 1_555
C1_7 H1_7 1_555 1_555
O7 C1_7 1_555 1_555
O9_2 C1_8 1_555 1_555
C1_8 H1_8 1_555 1_555
C2_7 O7_2 1_555 1_555
H2_7 C2_7 1_555 1_555
C3_6 O8_2 1_555 1_555
H3_6 C3_6 1_555 1_555
O8 C3_6 1_555 1_555
H2_8 C2_8 1_555 1_555
O9 C2_8 1_555 1_555

#END
