
###############################################################################
#
# This file contains modified crystal structure data generated from the
# MOF subset of the Cambridge Structural Database (CSD) v543 
# hosted by the Cambridge Crystallographic Data Centre (CCDC).
#
# This work is licensed under the Creative Commons
# Attribution-NonCommercial-ShareAlike 4.0 International License.
# To view a copy of this license, visit
# http://creativecommons.org/licenses/by-nc-sa/4.0/
# or send a letter to
# Creative Commons, PO Box 1866, Mountain View, CA 94042, USA.
#
# CIF created using the CSD Python API on 29 September 2022
# The structure has been converted into the P1 space group
# The structure has a 3D framework
# The original CSD entry DADTOS is in the rhombohedral crystal system
# The framework has been calculated to contain at least 10.0% void space
# The void calculation uses a probe of radius 1.32A, grid spacing 0.4
# The framework is charged, counterions have been retained in the structure
#
###############################################################################

data_DADTOS
_chemical_formula_moiety         '(C22 H22 Mn9 O32 3-)n'
_symmetry_cell_setting           triclinic
_symmetry_space_group_name_H-M   'P 1'
_symmetry_Int_Tables_number      1
_space_group_name_Hall           'P 1'
loop_
_symmetry_equiv_pos_site_id
_symmetry_equiv_pos_as_xyz
1 x,y,z
_cell_length_a                   8.3340(12)
_cell_length_b                   8.3340(12)
_cell_length_c                   22.893(5)
_cell_angle_alpha                90
_cell_angle_beta                 90
_cell_angle_gamma                120
_cell_volume                     1377.02
loop_
_atom_site_label
_atom_site_type_symbol
_atom_site_fract_x
_atom_site_fract_y
_atom_site_fract_z
Mn1 Mn 0.0000 0.0000 0.0000
O1 O 0.22092(13) 0.21080(13) 0.05426(4)
C1 C 0.2155(3) 0.3333 0.0833
H1 H 0.109(4) 0.3333 0.0833
O2 O 0.34345(18) 0.45587(13) 0.11241(4)
Mn2 Mn 0.3333 0.6667 0.1667
Mn1_2 Mn 0.0000 0.0000 1.0000
O9 O 0.01012(18) 0.22092(13) 0.94574(4)
Mn1_3 Mn 0.0000 1.0000 0.0000
C3 C 0.1178(3) 0.7845(3) 0.0833
H3 H 0.2243(40) 0.891(4) 0.0833
O6 O 0.11241(13) 0.65655(18) 0.11241(4)
Mn1_4 Mn 0.0000 1.0000 1.0000
O8 O 0.21080(13) 0.98988(18) 0.94574(4)
Mn1_5 Mn 1.0000 0.0000 0.0000
O3 O 0.78920(13) 0.01012(18) 0.05426(4)
Mn1_6 Mn 1.0000 0.0000 1.0000
Mn1_7 Mn 1.0000 1.0000 0.0000
C2 C 0.6667 0.8822(3) 0.0833
H2 H 0.6667 0.7757(40) 0.0833
O4 O 0.54413(13) 0.88759(13) 0.11241(4)
O5 O 0.98988(18) 0.77908(13) 0.05426(4)
Mn1_8 Mn 1.0000 1.0000 1.0000
O7 O 0.77908(13) 0.78920(13) 0.94574(4)
Mn1_9 Mn 0.0000 0.0000 0.5000
O1_2 O 0.21080(13) 0.22092(13) 0.44574(4)
C1_2 C 0.3333 0.2155(3) 0.4167
H1_2 H 0.3333 0.109(4) 0.4167
O2_2 O 0.45587(13) 0.34345(18) 0.38759(4)
O9_2 O 0.22092(13) 0.01012(18) 0.55426(4)
Mn2_2 Mn 0.6667 0.3333 0.3333
Mn1_10 Mn -0.0000 1.0000 0.5000
O3_2 O 0.01012(18) 0.78920(13) 0.44574(4)
Mn1_11 Mn 1.0000 0.0000 0.5000
C3_2 C 0.7845(3) 0.1178(3) 0.4167
H3_2 H 0.891(4) 0.2243(40) 0.4167
O6_2 O 0.65655(18) 0.11241(13) 0.38759(4)
O8_2 O 0.98988(18) 0.21080(13) 0.55426(4)
Mn1_12 Mn 1.0000 1.0000 0.5000
C2_2 C 0.8822(3) 0.6667 0.4167
H2_2 H 0.7757(40) 0.6667 0.4167
O4_2 O 0.88759(13) 0.54413(13) 0.38759(4)
O5_2 O 0.77908(13) 0.98988(18) 0.44574(4)
O7_2 O 0.78920(13) 0.77908(13) 0.55426(4)
O7_3 O 0.44575(13) 0.12253(13) 0.27907(4)
O8_3 O 0.87747(13) 0.32321(18) 0.27907(4)
O9_3 O 0.67679(18) 0.55425(13) 0.27907(4)
C1_3 C -0.0000 0.5488(3) 0.7500
H1_3 H -0.0000 0.442(4) 0.7500
O2_3 O 0.12253(13) 0.67679(18) 0.72093(4)
Mn2_3 Mn 0.3333 0.6667 0.6667
Mn1_13 Mn 0.6667 0.3333 0.8333
O1_3 O 0.87747(13) 0.55425(13) 0.77907(4)
C1_4 C 1.0000 0.5488(3) 0.7500
H1_4 H 1.0000 0.442(4) 0.7500
O3_3 O 0.67679(18) 0.12253(13) 0.77907(4)
C2_3 C 0.5489(3) 0.0000 0.7500
H2_3 H 0.4424(40) 0.0000 0.7500
O5_3 O 0.44575(13) 0.32321(18) 0.77907(4)
C3_3 C 0.4512(3) 0.4511(3) 0.7500
H3_3 H 0.558(4) 0.5576(40) 0.7500
O6_3 O 0.32321(18) 0.44575(13) 0.72093(4)
O7_4 O 0.45587(13) 0.11241(13) 0.88759(4)
O8_4 O 0.65655(18) 0.54413(13) 0.88759(4)
O9_4 O 0.88759(13) 0.34345(18) 0.88759(4)
C2_4 C 0.5489(3) 1.0000 0.7500
H2_4 H 0.4424(40) 1.0000 0.7500
O4_3 O 0.55425(13) 0.87747(13) 0.72093(4)
O7_5 O 0.11241(13) 0.45587(13) 0.61241(4)
O8_5 O 0.54413(13) 0.65655(18) 0.61241(4)
O9_5 O 0.34345(18) 0.88759(13) 0.61241(4)
O7_6 O 0.12253(13) 0.44575(13) 0.22093(4)
O8_6 O 0.32321(18) 0.87747(13) 0.22093(4)
O9_6 O 0.55425(13) 0.67679(18) 0.22093(4)
C2_5 C 0.3333 0.1178(3) 0.9167
H2_5 H 0.3333 0.2243(40) 0.9167
C3_4 C 0.8822(3) 0.2155(3) 0.9167
H3_4 H 0.7757(40) 0.109(4) 0.9167
C1_5 C 0.7845(3) 0.6667 0.9167
H1_5 H 0.891(4) 0.6667 0.9167
C2_6 C 0.1178(3) 0.3333 0.5833
H2_6 H 0.2243(40) 0.3333 0.5833
C3_5 C 0.2155(3) 0.8822(3) 0.5833
H3_5 H 0.109(4) 0.7757(40) 0.5833
C1_6 C 0.6667 0.7845(3) 0.5833
H1_6 H 0.6667 0.891(4) 0.5833
C2_7 C 0.4511(3) -0.0000 0.2500
H2_7 H 0.5576(40) -0.0000 0.2500
C1_7 C 0.0000 0.4512(3) 0.2500
H1_7 H 0.0000 0.558(4) 0.2500
C2_8 C 0.4511(3) 1.0000 0.2500
H2_8 H 0.5576(40) 1.0000 0.2500
C3_6 C 0.5488(3) 0.5489(3) 0.2500
H3_6 H 0.442(4) 0.4424(40) 0.2500
C1_8 C 1.0000 0.4512(3) 0.2500
H1_8 H 1.0000 0.558(4) 0.2500
loop_
_geom_bond_atom_site_label_1
_geom_bond_atom_site_label_2
_geom_bond_site_symmetry_1
_geom_bond_site_symmetry_2
Mn1 O1 1_555 1_555
O1 C1 1_555 1_555
C1 H1 1_555 1_555
O2 C1 1_555 1_555
Mn2 O2 1_555 1_555
O9 Mn1_2 1_555 1_555
H3 C3 1_555 1_555
O6 C3 1_555 1_555
Mn2 O6 1_555 1_555
O8 Mn1_4 1_555 1_555
O3 Mn1_5 1_555 1_555
H2 C2 1_555 1_555
O4 C2 1_555 1_555
O5 Mn1_7 1_555 1_555
Mn2 O4 1_555 1_555
O7 Mn1_8 1_555 1_555
Mn1_9 O1_2 1_555 1_555
O1_2 C1_2 1_555 1_555
C1_2 H1_2 1_555 1_555
O2_2 C1_2 1_555 1_555
O9_2 Mn1_9 1_555 1_555
Mn2_2 O2_2 1_555 1_555
O3_2 Mn1_10 1_555 1_555
H3_2 C3_2 1_555 1_555
O6_2 C3_2 1_555 1_555
O8_2 Mn1_11 1_555 1_555
Mn2_2 O6_2 1_555 1_555
H2_2 C2_2 1_555 1_555
O4_2 C2_2 1_555 1_555
O5_2 Mn1_12 1_555 1_555
O7_2 Mn1_12 1_555 1_555
Mn2_2 O4_2 1_555 1_555
O7_3 Mn2_2 1_555 1_555
O8_3 Mn2_2 1_555 1_555
O9_3 Mn2_2 1_555 1_555
C1_3 H1_3 1_555 1_555
O2_3 C1_3 1_555 1_555
Mn2_3 O2_3 1_555 1_555
Mn1_13 O1_3 1_555 1_555
O1_3 C1_4 1_555 1_555
C1_4 H1_4 1_555 1_555
O3_3 Mn1_13 1_555 1_555
C2_3 O3_3 1_555 1_555
H2_3 C2_3 1_555 1_555
O5_3 Mn1_13 1_555 1_555
C3_3 O5_3 1_555 1_555
H3_3 C3_3 1_555 1_555
O6_3 C3_3 1_555 1_555
O7_4 Mn1_13 1_555 1_555
O8_4 Mn1_13 1_555 1_555
O9_4 Mn1_13 1_555 1_555
Mn2_3 O6_3 1_555 1_555
H2_4 C2_4 1_555 1_555
O4_3 C2_4 1_555 1_555
Mn2_3 O4_3 1_555 1_555
O7_5 Mn2_3 1_555 1_555
O8_5 Mn2_3 1_555 1_555
O9_5 Mn2_3 1_555 1_555
O7_6 Mn2 1_555 1_555
O8_6 Mn2 1_555 1_555
O9_6 Mn2 1_555 1_555
H2_5 C2_5 1_555 1_555
O7_4 C2_5 1_555 1_555
H3_4 C3_4 1_555 1_555
O9_4 C3_4 1_555 1_555
O7 C1_5 1_555 1_555
C1_5 H1_5 1_555 1_555
O8_4 C1_5 1_555 1_555
H2_6 C2_6 1_555 1_555
O7_5 C2_6 1_555 1_555
H3_5 C3_5 1_555 1_555
O9_5 C3_5 1_555 1_555
O7_2 C1_6 1_555 1_555
C1_6 H1_6 1_555 1_555
O8_5 C1_6 1_555 1_555
H2_7 C2_7 1_555 1_555
O7_3 C2_7 1_555 1_555
O7_6 C1_7 1_555 1_555
C1_7 H1_7 1_555 1_555
C2_8 O8_6 1_555 1_555
H2_8 C2_8 1_555 1_555
C3_6 O9_6 1_555 1_555
H3_6 C3_6 1_555 1_555
O9_3 C3_6 1_555 1_555
C1_8 H1_8 1_555 1_555
O8_3 C1_8 1_555 1_555

#END
