
###############################################################################
#
# This file contains modified crystal structure data generated from the
# MOF subset of the Cambridge Structural Database (CSD) v543 
# hosted by the Cambridge Crystallographic Data Centre (CCDC).
#
# This work is licensed under the Creative Commons
# Attribution-NonCommercial-ShareAlike 4.0 International License.
# To view a copy of this license, visit
# http://creativecommons.org/licenses/by-nc-sa/4.0/
# or send a letter to
# Creative Commons, PO Box 1866, Mountain View, CA 94042, USA.
#
# CIF created using the CSD Python API on 29 September 2022
# The structure has been converted into the P1 space group
# The structure has a 3D framework
# The original CSD entry DADVAG01 is in the rhombohedral crystal system
# The framework has been calculated to contain at least 10.0% void space
# The void calculation uses a probe of radius 1.32A, grid spacing 0.4
# The framework is charged, counterions have been retained in the structure
#
###############################################################################

data_DADVAG01
_chemical_formula_moiety         '(C22 H22 Ni9 O32 3-)n'
_symmetry_cell_setting           triclinic
_symmetry_space_group_name_H-M   'P 1'
_symmetry_Int_Tables_number      1
_space_group_name_Hall           'P 1'
loop_
_symmetry_equiv_pos_site_id
_symmetry_equiv_pos_as_xyz
1 x,y,z
_cell_length_a                   8.1368(19)
_cell_length_b                   8.1368(19)
_cell_length_c                   22.071(7)
_cell_angle_alpha                90
_cell_angle_beta                 90
_cell_angle_gamma                120
_cell_volume                     1265.49
loop_
_atom_site_label
_atom_site_type_symbol
_atom_site_fract_x
_atom_site_fract_y
_atom_site_fract_z
Ni1 Ni 0.0000 0.0000 0.5000
Ni3 Ni 0.6667 0.3333 0.3333
O4 O 0.4584(4) 0.1189(4) 0.38648(13)
O5 O 0.0061(6) 0.2144(4) 0.44685(13)
O7 O 0.2144(4) 0.2083(4) 0.55315(13)
C2 C 0.3333 0.1279(8) 0.4167
H2 H 0.3333 0.255(10) 0.4167
Ni1_2 Ni 0.0000 1.0000 0.5000
O3 O 0.2083(4) 0.9939(6) 0.44685(13)
Ni1_3 Ni 1.0000 0.0000 0.5000
O6 O 0.8811(4) 0.3394(6) 0.38648(13)
O8 O 0.7917(4) 0.0061(6) 0.55315(13)
C3 C 0.8721(8) 0.2054(8) 0.4167
H3 H 0.745(10) 0.078(10) 0.4167
Ni1_4 Ni 1.0000 1.0000 0.5000
O1 O 0.7856(4) 0.7917(4) 0.44685(13)
C1 C 0.7946(8) 0.6667 0.4167
H1 H 0.922(10) 0.6667 0.4167
O2 O 0.6606(6) 0.5416(4) 0.38648(13)
O9 O 0.9939(6) 0.7856(4) 0.55315(13)
Ni1_5 Ni 0.0000 0.0000 0.0000
Ni3_2 Ni 0.3333 0.6667 0.1667
O4_2 O 0.1189(4) 0.4584(4) 0.11352(13)
O5_2 O 0.2144(4) 0.0061(6) 0.05315(13)
C2_2 C 0.1279(8) 0.3333 0.0833
H2_2 H 0.255(10) 0.3333 0.0833
Ni1_6 Ni 0.0000 0.0000 1.0000
O7_2 O 0.2083(4) 0.2144(4) 0.94685(13)
Ni1_7 Ni 0.0000 1.0000 0.0000
O6_2 O 0.3394(6) 0.8811(4) 0.11352(13)
C3_2 C 0.2054(8) 0.8721(8) 0.0833
H3_2 H 0.078(10) 0.745(10) 0.0833
Ni1_8 Ni 0.0000 1.0000 1.0000
O8_2 O 0.0061(6) 0.7917(4) 0.94685(13)
Ni1_9 Ni 1.0000 0.0000 0.0000
O3_2 O 0.9939(6) 0.2083(4) 0.05315(13)
Ni1_10 Ni 1.0000 0.0000 1.0000
Ni1_11 Ni 1.0000 1.0000 0.0000
O1_2 O 0.7917(4) 0.7856(4) 0.05315(13)
C1_2 C 0.6667 0.7946(8) 0.0833
H1_2 H 0.6667 0.922(10) 0.0833
O2_2 O 0.5416(4) 0.6606(6) 0.11352(13)
Ni1_12 Ni 1.0000 1.0000 1.0000
O9_2 O 0.7856(4) 0.9939(6) 0.94685(13)
Ni3_3 Ni 0.3333 0.6667 0.6667
O4_3 O 0.1250(4) 0.4523(4) 0.71982(13)
C2_3 C -0.0000 0.4612(8) 0.7500
H2_3 H -0.0000 0.589(10) 0.7500
Ni1_13 Ni 0.6667 0.3333 0.8333
O1_3 O 0.4523(4) 0.1250(4) 0.78018(13)
C1_3 C 0.4613(8) 0.0000 0.7500
H1_3 H 0.589(10) 0.0000 0.7500
O3_3 O 0.8750(4) 0.3272(6) 0.78018(13)
O5_3 O 0.6728(6) 0.5477(4) 0.78018(13)
O6_3 O 0.5477(4) 0.6728(6) 0.71982(13)
O7_3 O 0.8811(4) 0.5416(4) 0.88648(13)
O8_3 O 0.4584(4) 0.3394(6) 0.88648(13)
O9_3 O 0.6606(6) 0.1189(4) 0.88648(13)
C2_4 C 1.0000 0.4612(8) 0.7500
C3_3 C 0.5388(8) 0.5387(8) 0.7500
H2_4 H 1.0000 0.589(10) 0.7500
H3_3 H 0.411(10) 0.411(10) 0.7500
C1_4 C 0.4613(8) 1.0000 0.7500
H1_4 H 0.589(10) 1.0000 0.7500
O2_3 O 0.3272(6) 0.8750(4) 0.71982(13)
O7_4 O 0.8750(4) 0.5477(4) 0.28018(13)
O8_4 O 0.6728(6) 0.1250(4) 0.28018(13)
O9_4 O 0.4523(4) 0.3272(6) 0.28018(13)
O7_5 O 0.5477(4) 0.8750(4) 0.21982(13)
O8_5 O 0.1250(4) 0.6728(6) 0.21982(13)
O9_5 O 0.3272(6) 0.4523(4) 0.21982(13)
O7_6 O 0.5416(4) 0.8811(4) 0.61352(13)
O8_6 O 0.3394(6) 0.4584(4) 0.61352(13)
O9_6 O 0.1189(4) 0.6606(6) 0.61352(13)
C1_5 C 0.2054(8) 0.3333 0.5833
H1_5 H 0.078(10) 0.3333 0.5833
C3_4 C 0.1279(8) 0.7946(8) 0.5833
H3_4 H 0.255(10) 0.922(10) 0.5833
C2_5 C 0.6667 0.8721(8) 0.5833
H2_5 H 0.6667 0.745(10) 0.5833
C1_6 C 0.3333 0.2054(8) 0.9167
H1_6 H 0.3333 0.078(10) 0.9167
C3_5 C 0.7946(8) 0.1279(8) 0.9167
H3_5 H 0.922(10) 0.255(10) 0.9167
C2_6 C 0.8721(8) 0.6667 0.9167
H2_6 H 0.745(10) 0.6667 0.9167
C1_7 C 0.5387(8) -0.0000 0.2500
H1_7 H 0.411(10) -0.0000 0.2500
C1_8 C 0.5387(8) 1.0000 0.2500
H1_8 H 0.411(10) 1.0000 0.2500
C2_7 C 0.0000 0.5388(8) 0.2500
C3_6 C 0.4612(8) 0.4613(8) 0.2500
H2_7 H 0.0000 0.411(10) 0.2500
H3_6 H 0.589(10) 0.589(10) 0.2500
C2_8 C 1.0000 0.5388(8) 0.2500
H2_8 H 1.0000 0.411(10) 0.2500
loop_
_geom_bond_atom_site_label_1
_geom_bond_atom_site_label_2
_geom_bond_site_symmetry_1
_geom_bond_site_symmetry_2
Ni3 O4 1_555 1_555
O4 C2 1_555 1_555
O5 Ni1 1_555 1_555
O7 Ni1 1_555 1_555
H2 C2 1_555 1_555
O3 Ni1_2 1_555 1_555
Ni3 O6 1_555 1_555
O6 C3 1_555 1_555
O8 Ni1_3 1_555 1_555
H3 C3 1_555 1_555
Ni1_4 O1 1_555 1_555
O1 C1 1_555 1_555
C1 H1 1_555 1_555
Ni3 O2 1_555 1_555
O2 C1 1_555 1_555
O9 Ni1_4 1_555 1_555
Ni3_2 O4_2 1_555 1_555
O4_2 C2_2 1_555 1_555
O5_2 Ni1_5 1_555 1_555
H2_2 C2_2 1_555 1_555
O7_2 Ni1_6 1_555 1_555
Ni3_2 O6_2 1_555 1_555
O6_2 C3_2 1_555 1_555
H3_2 C3_2 1_555 1_555
O8_2 Ni1_8 1_555 1_555
O3_2 Ni1_9 1_555 1_555
Ni1_11 O1_2 1_555 1_555
O1_2 C1_2 1_555 1_555
C1_2 H1_2 1_555 1_555
Ni3_2 O2_2 1_555 1_555
O2_2 C1_2 1_555 1_555
O9_2 Ni1_12 1_555 1_555
Ni3_3 O4_3 1_555 1_555
O4_3 C2_3 1_555 1_555
H2_3 C2_3 1_555 1_555
Ni1_13 O1_3 1_555 1_555
O1_3 C1_3 1_555 1_555
C1_3 H1_3 1_555 1_555
Ni3_3 O6_3 1_555 1_555
O3_3 Ni1_13 1_555 1_555
O5_3 Ni1_13 1_555 1_555
O6_3 C3_3 1_555 1_555
O7_3 Ni1_13 1_555 1_555
O8_3 Ni1_13 1_555 1_555
O9_3 Ni1_13 1_555 1_555
C2_4 O3_3 1_555 1_555
C3_3 O5_3 1_555 1_555
H2_4 C2_4 1_555 1_555
H3_3 C3_3 1_555 1_555
C1_4 H1_4 1_555 1_555
Ni3_3 O2_3 1_555 1_555
O2_3 C1_4 1_555 1_555
O7_4 Ni3 1_555 1_555
O8_4 Ni3 1_555 1_555
O9_4 Ni3 1_555 1_555
O7_5 Ni3_2 1_555 1_555
O8_5 Ni3_2 1_555 1_555
O9_5 Ni3_2 1_555 1_555
O7_6 Ni3_3 1_555 1_555
O8_6 Ni3_3 1_555 1_555
O9_6 Ni3_3 1_555 1_555
O7 C1_5 1_555 1_555
C1_5 H1_5 1_555 1_555
O8_6 C1_5 1_555 1_555
O9_6 C3_4 1_555 1_555
H3_4 C3_4 1_555 1_555
O7_6 C2_5 1_555 1_555
H2_5 C2_5 1_555 1_555
O7_2 C1_6 1_555 1_555
C1_6 H1_6 1_555 1_555
O8_3 C1_6 1_555 1_555
O9_3 C3_5 1_555 1_555
H3_5 C3_5 1_555 1_555
O7_3 C2_6 1_555 1_555
H2_6 C2_6 1_555 1_555
C1_7 H1_7 1_555 1_555
O8_4 C1_7 1_555 1_555
O7_5 C1_8 1_555 1_555
C1_8 H1_8 1_555 1_555
O9_4 C3_6 1_555 1_555
C2_7 O8_5 1_555 1_555
C3_6 O9_5 1_555 1_555
H2_7 C2_7 1_555 1_555
H3_6 C3_6 1_555 1_555
O7_4 C2_8 1_555 1_555
H2_8 C2_8 1_555 1_555

#END
