
###############################################################################
#
# This file contains modified crystal structure data generated from the
# MOF subset of the Cambridge Structural Database (CSD) v543 
# hosted by the Cambridge Crystallographic Data Centre (CCDC).
#
# This work is licensed under the Creative Commons
# Attribution-NonCommercial-ShareAlike 4.0 International License.
# To view a copy of this license, visit
# http://creativecommons.org/licenses/by-nc-sa/4.0/
# or send a letter to
# Creative Commons, PO Box 1866, Mountain View, CA 94042, USA.
#
# CIF created using the CSD Python API on 29 September 2022
# The structure has been converted into the P1 space group
# The structure has a 3D framework
# The original CSD entry DADVAG is in the rhombohedral crystal system
# The framework has been calculated to contain at least 10.0% void space
# The void calculation uses a probe of radius 1.32A, grid spacing 0.4
# The framework is charged, counterions have been retained in the structure
#
###############################################################################

data_DADVAG
_chemical_formula_moiety         '(C22 H22 Ni5 O28 13-)n'
_symmetry_cell_setting           triclinic
_symmetry_space_group_name_H-M   'P 1'
_symmetry_Int_Tables_number      1
_space_group_name_Hall           'P 1'
loop_
_symmetry_equiv_pos_site_id
_symmetry_equiv_pos_as_xyz
1 x,y,z
_cell_length_a                   8.1989(12)
_cell_length_b                   8.1989(12)
_cell_length_c                   22.224(4)
_cell_angle_alpha                90
_cell_angle_beta                 90
_cell_angle_gamma                120
_cell_volume                     1293.79
loop_
_atom_site_label
_atom_site_type_symbol
_atom_site_fract_x
_atom_site_fract_y
_atom_site_fract_z
Ni3 Ni 0.0000 -0.0000 -0.0000
Ni3_2 Ni 0.0000 -0.0000 1.0000
Ni3_3 Ni 0.0000 1.0000 -0.0000
Ni3_4 Ni 0.0000 1.0000 1.0000
O4 O 0.79241(13) 0.00642(13) 0.05325(4)
Ni3_5 Ni 1.0000 -0.0000 -0.0000
Ni3_6 Ni 1.0000 -0.0000 1.0000
Ni1 Ni 0.3333 0.6667 0.1667
O1 O 0.33975(13) 0.45908(13) 0.11342(4)
C1 C 0.2066(2) 0.3333 0.0833
H1 H 0.0931 0.3333 0.0833
O2 O 0.21400(18) 0.20759(13) 0.05325(4)
O3 O 0.54092(13) 0.88067(18) 0.11342(4)
C2 C 0.6667 0.8733(2) 0.0833
H2 H 0.6667 0.7598 0.0833
O5 O 0.11933(18) 0.66025(13) 0.11342(4)
C3 C 0.1267(2) 0.7934(2) 0.0833
H3 H 0.2402 0.9069 0.0833
O7 O 0.12575(13) 0.45266(18) 0.21991(4)
O8 O 0.54734(18) 0.67308(13) 0.21991(4)
O9 O 0.32692(13) 0.87425(13) 0.21991(4)
Ni3_7 Ni 1.0000 1.0000 -0.0000
Ni3_8 Ni 1.0000 1.0000 1.0000
O6 O 0.99358(13) 0.78600(18) 0.05325(4)
Ni3_9 Ni -0.0000 0.0000 0.5000
O4_2 O 0.00642(13) 0.79241(13) 0.44675(4)
Ni3_10 Ni -0.0000 1.0000 0.5000
Ni3_11 Ni 1.0000 0.0000 0.5000
Ni1_2 Ni 0.6667 0.3333 0.3333
O1_2 O 0.45908(13) 0.33975(13) 0.38658(4)
C1_2 C 0.3333 0.2066(2) 0.4167
H1_2 H 0.3333 0.0931 0.4167
O2_2 O 0.20759(13) 0.21400(18) 0.44675(4)
O3_2 O 0.88067(18) 0.54092(13) 0.38658(4)
C2_2 C 0.8733(2) 0.6667 0.4167
H2_2 H 0.7598 0.6667 0.4167
O5_2 O 0.66025(13) 0.11933(18) 0.38658(4)
C3_2 C 0.7934(2) 0.1267(2) 0.4167
H3_2 H 0.9069 0.2402 0.4167
O7_2 O 0.45266(18) 0.12575(13) 0.28009(4)
O8_2 O 0.67308(13) 0.54734(18) 0.28009(4)
O9_2 O 0.87425(13) 0.32692(13) 0.28009(4)
Ni3_12 Ni 1.0000 1.0000 0.5000
O6_2 O 0.78600(18) 0.99358(13) 0.44675(4)
O8_3 O 0.21400(18) 0.00642(13) 0.55325(4)
O9_3 O 0.99358(13) 0.20759(13) 0.55325(4)
O7_3 O 0.79241(13) 0.78600(18) 0.55325(4)
C2_3 C 0.5400(2) 0.0000 0.7500
H2_3 H 0.4265 0.0000 0.7500
O4_3 O 0.67308(13) 0.12575(13) 0.78009(4)
Ni3_13 Ni 0.6666 0.3334 0.8334
Ni1_3 Ni 0.3334 0.6666 0.6666
O1_3 O 0.12575(13) 0.67308(13) 0.71991(4)
C1_3 C -0.0000 0.5399(2) 0.7500
H1_3 H -0.0000 0.4264 0.7500
O3_3 O 0.54734(18) 0.87425(13) 0.71991(4)
C2_4 C 0.5400(2) 1.0000 0.7500
H2_4 H 0.4265 1.0000 0.7500
O5_3 O 0.32692(13) 0.45266(18) 0.71991(4)
C3_3 C 0.4601(2) 0.4600(2) 0.7500
H3_3 H 0.5736 0.5735 0.7500
O6_3 O 0.45266(18) 0.32692(13) 0.78009(4)
O7_4 O 0.11933(18) 0.45908(13) 0.61342(4)
O8_4 O 0.33975(13) 0.88067(18) 0.61342(4)
O9_4 O 0.54092(13) 0.66025(13) 0.61342(4)
C1_4 C 1.0000 0.5399(2) 0.7500
H1_4 H 1.0000 0.4264 0.7500
O2_3 O 0.87425(13) 0.54734(18) 0.78009(4)
O7_5 O 0.45908(13) 0.11933(18) 0.88658(4)
O8_5 O 0.88067(18) 0.33975(13) 0.88658(4)
O9_5 O 0.66025(13) 0.54092(13) 0.88658(4)
O8_6 O 0.00642(13) 0.21400(18) 0.94675(4)
O9_6 O 0.20759(13) 0.99358(13) 0.94675(4)
O7_6 O 0.78600(18) 0.79241(13) 0.94675(4)
C1_5 C 0.7934(2) 0.6667 0.9167
H1_5 H 0.9069 0.6667 0.9167
C2_5 C 0.3333 0.1267(2) 0.9167
H2_5 H 0.3333 0.2402 0.9167
C3_4 C 0.8733(2) 0.2066(2) 0.9167
H3_4 H 0.7598 0.0931 0.9167
C1_6 C 0.6667 0.7934(2) 0.5833
H1_6 H 0.6667 0.9069 0.5833
C2_6 C 0.1267(2) 0.3333 0.5833
H2_6 H 0.2402 0.3333 0.5833
C3_5 C 0.2066(2) 0.8733(2) 0.5833
H3_5 H 0.0931 0.7598 0.5833
C1_7 C 0.0000 0.4601(2) 0.2500
H1_7 H 0.0000 0.5736 0.2500
C1_8 C 1.0000 0.4601(2) 0.2500
H1_8 H 1.0000 0.5736 0.2500
C2_7 C 0.4600(2) -0.0000 0.2500
H2_7 H 0.5735 -0.0000 0.2500
C3_6 C 0.5399(2) 0.5400(2) 0.2500
H3_6 H 0.4264 0.4265 0.2500
C2_8 C 0.4600(2) 1.0000 0.2500
H2_8 H 0.5735 1.0000 0.2500
loop_
_geom_bond_atom_site_label_1
_geom_bond_atom_site_label_2
_geom_bond_site_symmetry_1
_geom_bond_site_symmetry_2
Ni3_5 O4 1_555 1_555
Ni1 O1 1_555 1_555
O1 C1 1_555 1_555
C1 H1 1_555 1_555
O2 C1 1_555 1_555
O3 Ni1 1_555 1_555
C2 O3 1_555 1_555
H2 C2 1_555 1_555
O5 Ni1 1_555 1_555
C3 O5 1_555 1_555
H3 C3 1_555 1_555
O7 Ni1 1_555 1_555
O8 Ni1 1_555 1_555
O9 Ni1 1_555 1_555
Ni3 O2 1_555 1_555
Ni3_7 O6 1_555 1_555
Ni3_10 O4_2 1_555 1_555
Ni1_2 O1_2 1_555 1_555
O1_2 C1_2 1_555 1_555
C1_2 H1_2 1_555 1_555
O2_2 C1_2 1_555 1_555
O3_2 Ni1_2 1_555 1_555
C2_2 O3_2 1_555 1_555
H2_2 C2_2 1_555 1_555
O5_2 Ni1_2 1_555 1_555
C3_2 O5_2 1_555 1_555
H3_2 C3_2 1_555 1_555
O7_2 Ni1_2 1_555 1_555
O8_2 Ni1_2 1_555 1_555
O9_2 Ni1_2 1_555 1_555
Ni3_9 O2_2 1_555 1_555
Ni3_12 O6_2 1_555 1_555
O8_3 Ni3_9 1_555 1_555
O9_3 Ni3_11 1_555 1_555
O7_3 Ni3_12 1_555 1_555
H2_3 C2_3 1_555 1_555
O4_3 C2_3 1_555 1_555
Ni3_13 O4_3 1_555 1_555
Ni1_3 O1_3 1_555 1_555
O1_3 C1_3 1_555 1_555
C1_3 H1_3 1_555 1_555
O3_3 Ni1_3 1_555 1_555
C2_4 O3_3 1_555 1_555
H2_4 C2_4 1_555 1_555
O5_3 Ni1_3 1_555 1_555
C3_3 O5_3 1_555 1_555
H3_3 C3_3 1_555 1_555
O6_3 C3_3 1_555 1_555
O7_4 Ni1_3 1_555 1_555
O8_4 Ni1_3 1_555 1_555
O9_4 Ni1_3 1_555 1_555
Ni3_13 O6_3 1_555 1_555
C1_4 H1_4 1_555 1_555
O2_3 C1_4 1_555 1_555
Ni3_13 O2_3 1_555 1_555
O7_5 Ni3_13 1_555 1_555
O8_5 Ni3_13 1_555 1_555
O9_5 Ni3_13 1_555 1_555
O8_6 Ni3_2 1_555 1_555
O9_6 Ni3_4 1_555 1_555
O7_6 Ni3_8 1_555 1_555
O9_5 C1_5 1_555 1_555
C1_5 H1_5 1_555 1_555
O7_6 C1_5 1_555 1_555
C2_5 O7_5 1_555 1_555
H2_5 C2_5 1_555 1_555
C3_4 O8_5 1_555 1_555
H3_4 C3_4 1_555 1_555
O9_4 C1_6 1_555 1_555
C1_6 H1_6 1_555 1_555
O7_3 C1_6 1_555 1_555
C2_6 O7_4 1_555 1_555
H2_6 C2_6 1_555 1_555
C3_5 O8_4 1_555 1_555
H3_5 C3_5 1_555 1_555
C1_7 H1_7 1_555 1_555
O7 C1_7 1_555 1_555
O9_2 C1_8 1_555 1_555
C1_8 H1_8 1_555 1_555
C2_7 O7_2 1_555 1_555
H2_7 C2_7 1_555 1_555
C3_6 O8_2 1_555 1_555
H3_6 C3_6 1_555 1_555
O8 C3_6 1_555 1_555
H2_8 C2_8 1_555 1_555
O9 C2_8 1_555 1_555

#END
