
###############################################################################
#
# This file contains modified crystal structure data generated from the
# MOF subset of the Cambridge Structural Database (CSD) v543 
# hosted by the Cambridge Crystallographic Data Centre (CCDC).
#
# This work is licensed under the Creative Commons
# Attribution-NonCommercial-ShareAlike 4.0 International License.
# To view a copy of this license, visit
# http://creativecommons.org/licenses/by-nc-sa/4.0/
# or send a letter to
# Creative Commons, PO Box 1866, Mountain View, CA 94042, USA.
#
# CIF created using the CSD Python API on 29 September 2022
# The structure has been converted into the P1 space group
# The structure has a 3D framework
# The original CSD entry DADVAG05 is in the rhombohedral crystal system
# The framework has been calculated to contain at least 10.0% void space
# The void calculation uses a probe of radius 1.32A, grid spacing 0.4
# The framework is charged, counterions have been retained in the structure
#
###############################################################################

data_DADVAG05
_chemical_formula_moiety         '(C22 H30 Ni9 O32 3-)n'
_symmetry_cell_setting           triclinic
_symmetry_space_group_name_H-M   'P 1'
_symmetry_Int_Tables_number      1
_space_group_name_Hall           'P 1'
loop_
_symmetry_equiv_pos_site_id
_symmetry_equiv_pos_as_xyz
1 x,y,z
_cell_length_a                   7.981(4)
_cell_length_b                   7.981(4)
_cell_length_c                   21.55(3)
_cell_angle_alpha                90
_cell_angle_beta                 90
_cell_angle_gamma                120
_cell_volume                     1188.76
loop_
_atom_site_label
_atom_site_type_symbol
_atom_site_fract_x
_atom_site_fract_y
_atom_site_fract_z
Ni1 Ni 0.0000 0.0000 0.0000
C2 C 0.2113(4) 0.3334(6) 0.0833
O3 O 0.21968(19) 0.20337(27) 0.05369(7)
H2 H 0.083(5) 0.333(7) 0.0833
O4 O 0.34964(19) 0.46330(27) 0.11298(7)
Ni4 Ni 0.3333 0.6667 0.1667
Ni1_2 Ni -0.0000 0.0000 1.0000
O7 O 0.01631(19) 0.21968(19) 0.94631(7)
Ni1_3 Ni 0.0000 1.0000 0.0000
C1 C 0.1221(4) 0.7887(4) 0.0833
H1 H 0.250(5) 0.917(5) 0.0833
O2 O 0.11365(19) 0.65036(19) 0.11298(7)
Ni1_4 Ni 0.0000 1.0000 1.0000
O9 O 0.20337(27) 0.98369(19) 0.94631(7)
Ni1_5 Ni 1.0000 0.0000 0.0000
O5 O 0.79663(27) 0.01631(19) 0.05369(7)
Ni1_6 Ni 1.0000 0.0000 1.0000
Ni1_7 Ni 1.0000 1.0000 0.0000
O1 O 0.98369(19) 0.78032(19) 0.05369(7)
C3 C 0.6666(6) 0.8779(4) 0.0833
H3 H 0.667(7) 0.750(5) 0.0833
O6 O 0.53670(27) 0.88635(19) 0.11298(7)
Ni1_8 Ni 1.0000 1.0000 1.0000
O8 O 0.78032(19) 0.79663(27) 0.94631(7)
Ni1_9 Ni -0.0000 0.0000 0.5000
C1_2 C 0.3334(6) 0.2113(4) 0.4167
O1_2 O 0.20337(27) 0.21968(19) 0.44631(7)
H1_2 H 0.333(7) 0.083(5) 0.4167
O2_2 O 0.46330(27) 0.34964(19) 0.38702(7)
Ni3 Ni 0.6667 0.3333 0.3333
O9_2 O 0.21968(33) 0.01631(19) 0.55369(7)
Ni1_10 Ni 0.0000 1.0000 0.5000
O3_2 O 0.01631(33) 0.79663(27) 0.44631(7)
Ni1_11 Ni 1.0000 0.0000 0.5000
C3_2 C 0.7887(7) 0.1221(4) 0.4167
H3_2 H 0.917(9) 0.250(5) 0.4167
O6_2 O 0.65036(33) 0.11365(19) 0.38702(7)
O8_2 O 0.98369(33) 0.20337(27) 0.55369(7)
Ni1_12 Ni 1.0000 1.0000 0.5000
C2_2 C 0.8779(7) 0.6666(6) 0.4167
H2_2 H 0.750(9) 0.667(7) 0.4167
O4_2 O 0.88635(33) 0.53670(27) 0.38702(7)
O5_2 O 0.78032(33) 0.98369(19) 0.44631(7)
O7_2 O 0.79663(27) 0.78032(19) 0.55369(7)
H2_3 H 0.750(5) 0.666(7) 0.4166
H3_3 H 0.334(7) 0.083(5) 0.4166
O7_3 O 0.68298(19) 0.55301(19) 0.27964(7)
O8_3 O 0.44699(19) 0.12996(27) 0.27964(7)
O9_3 O 0.87004(27) 0.31702(19) 0.27964(7)
C1_3 C 0.0001(6) 0.5446(4) 0.7500
O2_3 O 0.12996(27) 0.68298(19) 0.72036(7)
Ni3_2 Ni 0.3333 0.6667 0.6667
Ni1_13 Ni 0.6667 0.3333 0.8333
C1_4 C 1.0001(6) 0.5446(4) 0.7500
O1_3 O 0.87004(27) 0.55301(19) 0.77964(7)
H1_3 H 1.000(7) 0.416(5) 0.7500
C2_3 C 0.5446(7) -0.0001(6) 0.7500
O3_3 O 0.68298(33) 0.12996(27) 0.77964(7)
H2_4 H 0.417(9) 0.000(7) 0.7500
C3_3 C 0.4554(7) 0.4554(4) 0.7500
O5_3 O 0.44699(33) 0.31702(19) 0.77964(7)
H3_4 H 0.584(9) 0.583(5) 0.7500
O6_3 O 0.31702(33) 0.44699(19) 0.72036(7)
O7_4 O 0.46330(27) 0.11365(19) 0.88702(7)
O8_4 O 0.65036(33) 0.53670(27) 0.88702(7)
O9_4 O 0.88635(33) 0.34964(19) 0.88702(7)
C2_4 C 0.5446(7) 0.9999(6) 0.7500
O4_3 O 0.55301(33) 0.87004(27) 0.72036(7)
H2_5 H 0.416(5) 1.000(7) 0.7500
H3_5 H 0.000(7) 0.417(5) 0.7500
O7_5 O 0.34964(19) 0.88635(19) 0.61298(7)
O8_5 O 0.11365(19) 0.46330(27) 0.61298(7)
O9_5 O 0.53670(27) 0.65036(19) 0.61298(7)
H1_4 H 0.666(7) 0.750(5) 0.0834
H2_6 H 0.083(9) 0.334(7) 0.0834
O7_6 O 0.12996(27) 0.44699(19) 0.22036(7)
O8_6 O 0.31702(33) 0.87004(27) 0.22036(7)
O9_6 O 0.55301(33) 0.68298(19) 0.22036(7)
C3_4 C 0.3334(6) 0.1221(4) 0.9167
H3_6 H 0.333(7) 0.250(5) 0.9167
C1_5 C 0.8779(4) 0.2113(4) 0.9167
H1_5 H 0.750(5) 0.083(5) 0.9167
C2_5 C 0.7887(4) 0.6666(6) 0.9167
H2_7 H 0.917(5) 0.667(7) 0.9167
C2_6 C 0.1221(7) 0.3334(6) 0.5833
H2_8 H 0.250(9) 0.333(7) 0.5833
C3_5 C 0.2113(7) 0.8779(4) 0.5833
H3_7 H 0.083(9) 0.750(5) 0.5833
C1_6 C 0.6666(6) 0.7887(4) 0.5833
H1_6 H 0.667(7) 0.917(5) 0.5833
H2_9 H 0.250(5) 0.334(7) 0.5834
H3_8 H 0.666(7) 0.917(5) 0.5834
C2_7 C 0.4554(7) 0.0001(6) 0.2500
C1_7 C -0.0001(6) 0.4554(4) 0.2500
H1_7 H 0.000(7) 0.584(5) 0.2500
C2_8 C 0.4554(7) 1.0001(6) 0.2500
H2_10 H 0.583(9) 1.000(7) 0.2500
C3_6 C 0.5446(7) 0.5446(4) 0.2500
H3_9 H 0.416(9) 0.417(5) 0.2500
C1_8 C 0.9999(6) 0.4554(4) 0.2500
H2_11 H 0.584(5) 0.000(7) 0.2500
H3_10 H 1.000(7) 0.583(5) 0.2500
H1_8 H 0.334(7) 0.250(5) 0.9166
H2_12 H 0.917(9) 0.666(7) 0.9166
loop_
_geom_bond_atom_site_label_1
_geom_bond_atom_site_label_2
_geom_bond_site_symmetry_1
_geom_bond_site_symmetry_2
C2 O3 1_555 1_555
O3 Ni1 1_555 1_555
H2 C2 1_555 1_555
O4 C2 1_555 1_555
Ni4 O4 1_555 1_555
O7 Ni1_2 1_555 1_555
H1 C1 1_555 1_555
O2 C1 1_555 1_555
Ni4 O2 1_555 1_555
O9 Ni1_4 1_555 1_555
O5 Ni1_5 1_555 1_555
Ni1_7 O1 1_555 1_555
H3 C3 1_555 1_555
O6 C3 1_555 1_555
Ni4 O6 1_555 1_555
O8 Ni1_8 1_555 1_555
Ni1_9 O1_2 1_555 1_555
C1_2 O1_2 1_555 1_555
H1_2 C1_2 1_555 1_555
O2_2 C1_2 1_555 1_555
Ni3 O2_2 1_555 1_555
O9_2 Ni1_9 1_555 1_555
O3_2 Ni1_10 1_555 1_555
H3_2 C3_2 1_555 1_555
O6_2 C3_2 1_555 1_555
Ni3 O6_2 1_555 1_555
O8_2 Ni1_11 1_555 1_555
H2_2 C2_2 1_555 1_555
O4_2 C2_2 1_555 1_555
O5_2 Ni1_12 1_555 1_555
Ni3 O4_2 1_555 1_555
O7_2 Ni1_12 1_555 1_555
H2_3 C2_2 1_555 1_555
H3_3 C1_2 1_555 1_555
O7_3 Ni3 1_555 1_555
O8_3 Ni3 1_555 1_555
O9_3 Ni3 1_555 1_555
O2_3 C1_3 1_555 1_555
Ni3_2 O2_3 1_555 1_555
Ni1_13 O1_3 1_555 1_555
C1_4 O1_3 1_555 1_555
H1_3 C1_4 1_555 1_555
C2_3 O3_3 1_555 1_555
O3_3 Ni1_13 1_555 1_555
H2_4 C2_3 1_555 1_555
C3_3 O5_3 1_555 1_555
O5_3 Ni1_13 1_555 1_555
H3_4 C3_3 1_555 1_555
O6_3 C3_3 1_555 1_555
Ni3_2 O6_3 1_555 1_555
O7_4 Ni1_13 1_555 1_555
O8_4 Ni1_13 1_555 1_555
O9_4 Ni1_13 1_555 1_555
O4_3 C2_4 1_555 1_555
Ni3_2 O4_3 1_555 1_555
H2_5 C2_4 1_555 1_555
H3_5 C1_3 1_555 1_555
O7_5 Ni3_2 1_555 1_555
O8_5 Ni3_2 1_555 1_555
O9_5 Ni3_2 1_555 1_555
H1_4 C3 1_555 1_555
H2_6 C2 1_555 1_555
O7_6 Ni4 1_555 1_555
O8_6 Ni4 1_555 1_555
O9_6 Ni4 1_555 1_555
H3_6 C3_4 1_555 1_555
O7_4 C3_4 1_555 1_555
H1_5 C1_5 1_555 1_555
O9_4 C1_5 1_555 1_555
C2_5 O8 1_555 1_555
H2_7 C2_5 1_555 1_555
O8_4 C2_5 1_555 1_555
H2_8 C2_6 1_555 1_555
O8_5 C2_6 1_555 1_555
H3_7 C3_5 1_555 1_555
O7_5 C3_5 1_555 1_555
C1_6 O7_2 1_555 1_555
H1_6 C1_6 1_555 1_555
O9_5 C1_6 1_555 1_555
H2_9 C2_6 1_555 1_555
H3_8 C1_6 1_555 1_555
O8_3 C2_7 1_555 1_555
C1_7 O7_6 1_555 1_555
H1_7 C1_7 1_555 1_555
C2_8 O8_6 1_555 1_555
H2_10 C2_8 1_555 1_555
C3_6 O9_6 1_555 1_555
H3_9 C3_6 1_555 1_555
O7_3 C3_6 1_555 1_555
O9_3 C1_8 1_555 1_555
H2_11 C2_7 1_555 1_555
H3_10 C1_8 1_555 1_555
H1_8 C3_4 1_555 1_555
H2_12 C2_5 1_555 1_555

#END
