
###############################################################################
#
# This file contains modified crystal structure data generated from the
# MOF subset of the Cambridge Structural Database (CSD) v543 
# hosted by the Cambridge Crystallographic Data Centre (CCDC).
#
# This work is licensed under the Creative Commons
# Attribution-NonCommercial-ShareAlike 4.0 International License.
# To view a copy of this license, visit
# http://creativecommons.org/licenses/by-nc-sa/4.0/
# or send a letter to
# Creative Commons, PO Box 1866, Mountain View, CA 94042, USA.
#
# CIF created using the CSD Python API on 29 September 2022
# The structure has been converted into the P1 space group
# The structure has a 3D framework
# The original CSD entry DADVAG06 is in the rhombohedral crystal system
# The framework has been calculated to contain at least 10.0% void space
# The void calculation uses a probe of radius 1.32A, grid spacing 0.4
# The framework is charged, counterions have been retained in the structure
#
###############################################################################

data_DADVAG06
_chemical_formula_moiety         '(C22 H22 Ni7 O30 3-)n'
_symmetry_cell_setting           triclinic
_symmetry_space_group_name_H-M   'P 1'
_symmetry_Int_Tables_number      1
_space_group_name_Hall           'P 1'
loop_
_symmetry_equiv_pos_site_id
_symmetry_equiv_pos_as_xyz
1 x,y,z
_cell_length_a                   8.0039(15)
_cell_length_b                   8.0039(15)
_cell_length_c                   21.172(5)
_cell_angle_alpha                90
_cell_angle_beta                 90
_cell_angle_gamma                120
_cell_volume                     1174.62
loop_
_atom_site_label
_atom_site_type_symbol
_atom_site_fract_x
_atom_site_fract_y
_atom_site_fract_z
C2 C -0.0000 0.5477(6) 0.2500
H2 H -0.0000 0.4340(80) 0.2500
O4 O 0.1308(3) 0.6847(3) 0.22061(10)
Ni4 Ni 0.3334 0.6667 0.1667
Ni1 Ni 0.6667 0.3333 0.3333
O1 O 0.6847(3) 0.1308(3) 0.27939(10)
C1 C 0.5477(6) 0.0000 0.2500
H1 H 0.434(8) 0.0000 0.2500
O3 O 0.8692(3) 0.5539(4) 0.27939(10)
C2_2 C 1.0000 0.5477(6) 0.2500
H2_2 H 1.0000 0.4340(80) 0.2500
O5 O 0.4461(4) 0.3153(3) 0.27939(10)
C3 C 0.4523(6) 0.4523(6) 0.2500
H3 H 0.5660(80) 0.566(8) 0.2500
O6 O 0.3153(3) 0.4461(4) 0.22061(10)
O7 O 0.6486(3) 0.5359(3) 0.38728(10)
O8 O 0.4641(3) 0.1128(4) 0.38728(10)
O9 O 0.8872(4) 0.3514(3) 0.38728(10)
C1_2 C 0.5477(6) 1.0000 0.2500
H1_2 H 0.434(8) 1.0000 0.2500
O2 O 0.5539(4) 0.8692(3) 0.22061(10)
O7_2 O 0.1128(4) 0.4641(3) 0.11272(10)
O8_2 O 0.3514(5) 0.8872(4) 0.11272(10)
O9_2 O 0.5359(5) 0.6486(3) 0.11272(10)
Ni4_2 Ni 0.0001 0.0000 0.5000
Ni4_3 Ni 0.0001 1.0000 0.5000
O4_2 O 0.7975(3) 0.0180(3) 0.55394(10)
Ni4_4 Ni 1.0001 0.0000 0.5000
Ni1_2 Ni 0.3334 0.6666 0.6666
O1_2 O 0.3514(3) 0.4641(3) 0.61272(10)
C1_3 C 0.2144(6) 0.3333 0.5833
H1_3 H 0.101(8) 0.3333 0.5833
O2_2 O 0.2206(4) 0.2025(3) 0.55394(10)
O3_2 O 0.5359(3) 0.8872(4) 0.61272(10)
C2_3 C 0.6667 0.8810(6) 0.5833
H2_3 H 0.6667 0.7673(80) 0.5833
O5_2 O 0.1128(4) 0.6486(3) 0.61272(10)
C3_2 C 0.1190(6) 0.7856(6) 0.5833
H3_2 H 0.2327(80) 0.899(8) 0.5833
Ni4_5 Ni 1.0001 1.0000 0.5000
O7_3 O 0.3153(3) 0.8692(3) 0.72061(10)
O8_3 O 0.1308(3) 0.4461(4) 0.72061(10)
O9_3 O 0.5539(4) 0.6847(3) 0.72061(10)
O6_2 O 0.9820(3) 0.7794(4) 0.55394(10)
O8_4 O 0.0180(5) 0.2206(4) 0.44606(10)
O9_4 O 0.2025(5) 0.9820(3) 0.44606(10)
O7_4 O 0.7794(4) 0.7975(3) 0.44606(10)
Ni1_3 Ni 0.0000 -0.0000 -0.0000
O9_5 O 0.2206(4) 0.0180(3) 0.05394(10)
Ni1_4 Ni 0.0000 -0.0000 1.0000
O3_3 O 0.2025(3) 0.2206(4) 0.94606(10)
C2_4 C 0.3333 0.2144(6) 0.9167
H2_4 H 0.3333 0.1007(80) 0.9167
O4_3 O 0.4641(3) 0.3514(3) 0.88728(10)
Ni4_6 Ni 0.6667 0.3334 0.8334
Ni1_5 Ni 0.0000 1.0000 -0.0000
Ni1_6 Ni 0.0000 1.0000 1.0000
O1_3 O 0.0180(3) 0.7975(3) 0.94606(10)
Ni1_7 Ni 1.0000 -0.0000 -0.0000
O7_5 O 0.9820(3) 0.2025(3) 0.05394(10)
Ni1_8 Ni 1.0000 -0.0000 1.0000
C3_3 C 0.7856(6) 0.1190(6) 0.9167
H3_3 H 0.8993(80) 0.233(8) 0.9167
O6_3 O 0.6486(3) 0.1128(4) 0.88728(10)
Ni1_9 Ni 1.0000 1.0000 -0.0000
O8_5 O 0.7975(3) 0.7794(4) 0.05394(10)
Ni1_10 Ni 1.0000 1.0000 1.0000
C1_4 C 0.8810(6) 0.6667 0.9167
H1_4 H 0.767(8) 0.6667 0.9167
O2_3 O 0.8872(4) 0.5359(3) 0.88728(10)
O5_3 O 0.7794(4) 0.9820(3) 0.94606(10)
O7_6 O 0.4461(4) 0.1308(3) 0.77939(10)
O8_6 O 0.6847(5) 0.5539(4) 0.77939(10)
O9_6 O 0.8692(5) 0.3153(3) 0.77939(10)
C1_5 C 0.4523(6) -0.0000 0.7500
H1_5 H 0.566(8) -0.0000 0.7500
C1_6 C 0.4523(6) 1.0000 0.7500
H1_6 H 0.566(8) 1.0000 0.7500
C2_5 C 0.0000 0.4523(6) 0.7500
H2_5 H 0.0000 0.5660(80) 0.7500
C3_4 C 0.5477(6) 0.5477(6) 0.7500
H3_4 H 0.4340(80) 0.434(8) 0.7500
C2_6 C 1.0000 0.4523(6) 0.7500
H2_6 H 1.0000 0.5660(80) 0.7500
C1_7 C 0.7856(6) 0.6667 0.4167
H1_7 H 0.899(8) 0.6667 0.4167
C2_7 C 0.3333 0.1190(6) 0.4167
H2_7 H 0.3333 0.2327(80) 0.4167
C3_5 C 0.8810(6) 0.2144(6) 0.4167
H3_5 H 0.7673(80) 0.101(8) 0.4167
C1_8 C 0.1190(6) 0.3333 0.0833
H1_8 H 0.233(8) 0.3333 0.0833
C3_6 C 0.2144(6) 0.8810(6) 0.0833
H3_6 H 0.1007(80) 0.767(8) 0.0833
C2_8 C 0.6667 0.7856(6) 0.0833
H2_8 H 0.6667 0.8993(80) 0.0833
loop_
_geom_bond_atom_site_label_1
_geom_bond_atom_site_label_2
_geom_bond_site_symmetry_1
_geom_bond_site_symmetry_2
H2 C2 1_555 1_555
O4 C2 1_555 1_555
Ni4 O4 1_555 1_555
Ni1 O1 1_555 1_555
O1 C1 1_555 1_555
C1 H1 1_555 1_555
O3 Ni1 1_555 1_555
C2_2 O3 1_555 1_555
H2_2 C2_2 1_555 1_555
O5 Ni1 1_555 1_555
C3 O5 1_555 1_555
H3 C3 1_555 1_555
O6 C3 1_555 1_555
Ni4 O6 1_555 1_555
O7 Ni1 1_555 1_555
O8 Ni1 1_555 1_555
O9 Ni1 1_555 1_555
C1_2 H1_2 1_555 1_555
O2 C1_2 1_555 1_555
Ni4 O2 1_555 1_555
O7_2 Ni4 1_555 1_555
O8_2 Ni4 1_555 1_555
O9_2 Ni4 1_555 1_555
Ni4_4 O4_2 1_555 1_555
Ni1_2 O1_2 1_555 1_555
O1_2 C1_3 1_555 1_555
C1_3 H1_3 1_555 1_555
O2_2 C1_3 1_555 1_555
O3_2 Ni1_2 1_555 1_555
C2_3 O3_2 1_555 1_555
H2_3 C2_3 1_555 1_555
O5_2 Ni1_2 1_555 1_555
C3_2 O5_2 1_555 1_555
H3_2 C3_2 1_555 1_555
Ni4_2 O2_2 1_555 1_555
O7_3 Ni1_2 1_555 1_555
O8_3 Ni1_2 1_555 1_555
O9_3 Ni1_2 1_555 1_555
Ni4_5 O6_2 1_555 1_555
O8_4 Ni4_2 1_555 1_555
O9_4 Ni4_3 1_555 1_555
O7_4 Ni4_5 1_555 1_555
O9_5 Ni1_3 1_555 1_555
O3_3 Ni1_4 1_555 1_555
C2_4 O3_3 1_555 1_555
H2_4 C2_4 1_555 1_555
O4_3 C2_4 1_555 1_555
Ni4_6 O4_3 1_555 1_555
Ni1_6 O1_3 1_555 1_555
O7_5 Ni1_7 1_555 1_555
H3_3 C3_3 1_555 1_555
O6_3 C3_3 1_555 1_555
Ni4_6 O6_3 1_555 1_555
O8_5 Ni1_9 1_555 1_555
C1_4 H1_4 1_555 1_555
O2_3 C1_4 1_555 1_555
O5_3 Ni1_10 1_555 1_555
Ni4_6 O2_3 1_555 1_555
O7_6 Ni4_6 1_555 1_555
O8_6 Ni4_6 1_555 1_555
O9_6 Ni4_6 1_555 1_555
C1_5 H1_5 1_555 1_555
O7_6 C1_5 1_555 1_555
O7_3 C1_6 1_555 1_555
C1_6 H1_6 1_555 1_555
C2_5 O8_3 1_555 1_555
H2_5 C2_5 1_555 1_555
C3_4 O9_3 1_555 1_555
H3_4 C3_4 1_555 1_555
O8_6 C3_4 1_555 1_555
H2_6 C2_6 1_555 1_555
O9_6 C2_6 1_555 1_555
O7 C1_7 1_555 1_555
C1_7 H1_7 1_555 1_555
O7_4 C1_7 1_555 1_555
C2_7 O8 1_555 1_555
H2_7 C2_7 1_555 1_555
C3_5 O9 1_555 1_555
H3_5 C3_5 1_555 1_555
C1_8 H1_8 1_555 1_555
O7_2 C1_8 1_555 1_555
H3_6 C3_6 1_555 1_555
O8_2 C3_6 1_555 1_555
C2_8 O8_5 1_555 1_555
H2_8 C2_8 1_555 1_555
O9_2 C2_8 1_555 1_555

#END
