
###############################################################################
#
# This file contains modified crystal structure data generated from the
# MOF subset of the Cambridge Structural Database (CSD) v543 
# hosted by the Cambridge Crystallographic Data Centre (CCDC).
#
# This work is licensed under the Creative Commons
# Attribution-NonCommercial-ShareAlike 4.0 International License.
# To view a copy of this license, visit
# http://creativecommons.org/licenses/by-nc-sa/4.0/
# or send a letter to
# Creative Commons, PO Box 1866, Mountain View, CA 94042, USA.
#
# CIF created using the CSD Python API on 29 September 2022
# The structure has been converted into the P1 space group
# The structure has a 3D framework
# The original CSD entry DAFJUS is in the hexagonal crystal system
# The framework has been calculated to contain at least 10.0% void space
# The void calculation uses a probe of radius 1.32A, grid spacing 0.4
# The framework is charged, counterions have been retained in the structure
#
###############################################################################

data_DAFJUS
_chemical_formula_moiety         '(C84 H48 Mg6 N12 O26)n'
_symmetry_cell_setting           triclinic
_symmetry_space_group_name_H-M   'P 1'
_symmetry_Int_Tables_number      1
_space_group_name_Hall           'P 1'
loop_
_symmetry_equiv_pos_site_id
_symmetry_equiv_pos_as_xyz
1 x,y,z
_cell_length_a                   17.0231(11)
_cell_length_b                   17.0231(11)
_cell_length_c                   14.947(3)
_cell_angle_alpha                90
_cell_angle_beta                 90
_cell_angle_gamma                120
_cell_volume                     3751.13
loop_
_atom_site_label
_atom_site_type_symbol
_atom_site_fract_x
_atom_site_fract_y
_atom_site_fract_z
Mg1 Mg 0.26589(4) 0.53177(8) 0.2500
N1 N 0.18963(11) 0.3793(2) 0.2500
O1 O 0.3333 0.6667 0.2500
O2 O 0.17569(10) 0.52249(9) 0.15414(10)
C1 C 0.2321(2) 0.3306(2) 0.2500
C2 C 0.14665(18) 0.57332(9) 0.12922(18)
H1 H 0.2952 0.3622 0.2500
C3 C 0.1890(2) 0.2377(2) 0.2500
C4 C 0.0707(2) 0.53533(10) 0.0625(2)
H2 H 0.2220 0.2077 0.2500
C5 C 0.09473(14) 0.1895(3) 0.2500
C6 C 0.03447(18) 0.44822(16) 0.03131(19)
C7 C 0.04373(14) 0.0875(3) 0.2500
H3 H 0.0567 0.4118 0.0527
N2 N 0.0931(2) 0.04654(11) 0.2500
O3 O 0.34680(13) 0.52249(9) 0.34586(10)
O4 O 0.17569(10) 0.52249(9) 0.34586(10)
O5 O 0.34680(13) 0.52249(9) 0.15414(10)
C8 C 0.0985(3) 0.3306(2) 0.2500
Mg2 Mg 0.46823(8) 0.73412(9) 0.2500
Mg3 Mg 0.26588(9) 0.73411(4) 0.2500
H4 H 0.0670 0.3622 0.2500
C9 C 0.0487(3) 0.2377(2) 0.2500
O6 O 0.17569(10) 0.65320(13) 0.15414(10)
C10 C 0.03447(18) 0.58625(24) 0.03131(19)
H6 H 0.0567 0.6449 0.0527
H10 H 0.2220 0.0143 0.2500
C14 C 0.04377(33) 0.95627(14) 0.2500
C17 C 0.09477(33) 0.90527(14) 0.2500
C19 C 0.0487(3) 0.8110(2) 0.2500
C20 C 0.1890(2) 0.9513(3) 0.2500
C23 C 0.0985(3) 0.7679(2) 0.2500
C24 C 0.2321(2) 0.9015(3) 0.2500
H13 H 0.0670 0.7048 0.2500
N5 N 0.18967(23) 0.81037(11) 0.2500
H14 H 0.2952 0.9330 0.2500
H5 H 0.9857 0.2077 0.2500
N3 N 0.95346(11) 0.04656(23) 0.2500
H11 H 0.7923 0.0143 0.2500
C11 C 0.96553(18) 0.41375(24) 0.96869(19)
C12 C 0.96553(18) 0.55178(16) 0.96869(19)
C13 C 0.9293(2) 0.46463(22) 0.9375(2)
H7 H 0.9433 0.3551 0.9473
H8 H 0.9433 0.5882 0.9473
C16 C 0.85335(18) 0.42667(20) 0.87078(18)
O7 O 0.82431(10) 0.34680(13) 0.84586(10)
O8 O 0.82431(10) 0.47751(9) 0.84586(10)
Mg4 Mg 0.73412(9) 0.26589(4) 0.7500
Mg5 Mg 0.73411(4) 0.46823(8) 0.7500
O9 O 0.65320(13) 0.17569(10) 0.84586(10)
C27 C 0.57332(9) 0.14665(18) 0.87078(18)
Mg6 Mg 0.53177(8) 0.26588(9) 0.7500
C28 C 0.53533(10) 0.0707(2) 0.9375(2)
O10 O 0.52249(9) 0.17569(10) 0.84586(10)
C29 C 0.44822(16) 0.03447(18) 0.96869(19)
C30 C 0.58625(24) 0.03447(18) 0.96869(19)
H17 H 0.4118 0.0567 0.9473
H18 H 0.6449 0.0567 0.9473
C15 C 0.9125(3) 0.95623(33) 0.2500
N4 N 0.95344(23) 0.9069(2) 0.2500
C18 C 0.8105(3) 0.90523(33) 0.2500
C21 C 0.7623(2) 0.9513(3) 0.2500
C22 C 0.7623(2) 0.8110(2) 0.2500
H9 H 0.9857 0.7780 0.2500
C25 C 0.6694(2) 0.9015(3) 0.2500
C26 C 0.6694(2) 0.7679(2) 0.2500
H12 H 0.7923 0.7780 0.2500
H15 H 0.6378 0.9330 0.2500
N6 N 0.6207(2) 0.81033(23) 0.2500
H16 H 0.6378 0.7048 0.2500
O11 O 0.47751(9) 0.65320(13) 0.15414(10)
O12 O 0.47751(9) 0.82431(10) 0.15414(10)
O14 O 0.47751(9) 0.82431(10) 0.34586(10)
O15 O 0.47751(9) 0.65320(13) 0.34586(10)
C31 C 0.42668(9) 0.57333(20) 0.12922(18)
C32 C 0.42667(20) 0.85335(18) 0.12922(18)
C33 C 0.41375(24) 0.96553(18) 0.03131(19)
C34 C 0.55178(16) 0.96553(18) 0.03131(19)
C35 C 0.46467(10) 0.53537(22) 0.0625(2)
C36 C 0.46463(22) 0.9293(2) 0.0625(2)
O17 O 0.34680(13) 0.82431(10) 0.15414(10)
O18 O 0.17569(10) 0.65320(13) 0.34586(10)
O19 O 0.34680(13) 0.82431(10) 0.34586(10)
H19 H 0.3551 0.9433 0.0527
H20 H 0.5882 0.9433 0.0527
C37 C 0.55178(16) 0.58625(24) 0.03131(19)
C38 C 0.41375(24) 0.44822(16) 0.03131(19)
H21 H 0.5882 0.6449 0.0527
H22 H 0.3551 0.4118 0.0527
C39 C 0.58625(24) 0.55178(16) 0.96869(19)
C40 C 0.44822(16) 0.41375(24) 0.96869(19)
C41 C 0.53537(22) 0.46467(10) 0.9375(2)
H23 H 0.6449 0.5882 0.9473
H24 H 0.4118 0.3551 0.9473
C42 C 0.57333(20) 0.42668(9) 0.87078(18)
O21 O 0.65320(13) 0.47751(9) 0.84586(10)
O22 O 0.52249(9) 0.34680(13) 0.84586(10)
H2_2 H 0.0143 0.2220 0.7500
N2_2 N 0.04656(23) 0.0931(2) 0.7500
C14_2 C 0.08750(36) 0.04377(33) 0.7500
C17_2 C 0.18950(36) 0.09477(33) 0.7500
C19_2 C 0.2377(4) 0.0487(3) 0.7500
C20_2 C 0.2377(4) 0.1890(2) 0.7500
C23_2 C 0.3306(4) 0.0985(3) 0.7500
C24_2 C 0.3306(4) 0.2321(2) 0.7500
H10_2 H 0.2077 0.2220 0.7500
H13_2 H 0.3622 0.0670 0.7500
N5_2 N 0.37930(25) 0.18967(23) 0.7500
H14_2 H 0.3622 0.2952 0.7500
N4_2 N 0.04654(30) 0.95344(23) 0.7500
H9_2 H 0.2077 0.9857 0.7500
H12_2 H 0.0143 0.7923 0.7500
C39_2 C 0.03447(29) 0.58625(24) 0.46869(19)
C40_2 C 0.03447(29) 0.44822(16) 0.46869(19)
C41_2 C 0.07070(24) 0.53537(22) 0.4375(2)
H23_2 H 0.0567 0.6449 0.4473
H24_2 H 0.0567 0.4118 0.4473
C42_2 C 0.14665(22) 0.57333(20) 0.37078(18)
N1_2 N 0.81033(23) 0.18963(11) 0.7500
O1_2 O 0.6666 0.3333 0.7500
O2_2 O 0.65320(13) 0.17569(10) 0.65414(10)
C1_2 C 0.9015(3) 0.2321(2) 0.7500
C2_2 C 0.57333(20) 0.14665(18) 0.62922(18)
H1_2 H 0.9330 0.2952 0.7500
C3_2 C 0.9513(3) 0.1890(2) 0.7500
C4_2 C 0.53537(22) 0.0707(2) 0.5625(2)
C5_2 C 0.90523(33) 0.09473(14) 0.7500
C6_2 C 0.58625(24) 0.03447(18) 0.53131(19)
C7_2 C 0.95623(33) 0.04373(14) 0.7500
H3_2 H 0.6449 0.0567 0.5527
O5_2 O 0.82431(16) 0.34680(13) 0.65414(10)
C8_2 C 0.7679(4) 0.0985(3) 0.7500
H4_2 H 0.7048 0.0670 0.7500
C9_2 C 0.8110(4) 0.0487(3) 0.7500
O6_2 O 0.52249(16) 0.17569(10) 0.65414(10)
C10_2 C 0.44822(30) 0.03447(18) 0.53131(19)
H6_2 H 0.4118 0.0567 0.5527
H5_2 H 0.7780 0.9857 0.7500
C11_2 C 0.55178(30) 0.96553(18) 0.46869(19)
C12_2 C 0.41375(24) 0.96553(18) 0.46869(19)
N3_2 N 0.90690(25) 0.95346(11) 0.7500
C13_2 C 0.46467(30) 0.9293(2) 0.4375(2)
H7_2 H 0.5882 0.9433 0.4473
H8_2 H 0.3551 0.9433 0.4473
C15_2 C 0.95627(45) 0.9125(3) 0.7500
C16_2 C 0.42668(27) 0.85335(18) 0.37078(18)
C18_2 C 0.90527(45) 0.8105(3) 0.7500
C21_2 C 0.8110(4) 0.7623(2) 0.7500
C22_2 C 0.9513(3) 0.7623(2) 0.7500
C25_2 C 0.7679(4) 0.6694(2) 0.7500
H11_2 H 0.7780 0.7923 0.7500
C26_2 C 0.9015(3) 0.6694(2) 0.7500
H15_2 H 0.7048 0.6378 0.7500
N6_2 N 0.81037(30) 0.6207(2) 0.7500
H16_2 H 0.9330 0.6378 0.7500
C27_2 C 0.42667(20) 0.57332(9) 0.37078(18)
C28_2 C 0.46463(22) 0.53533(10) 0.4375(2)
O11_2 O 0.82431(16) 0.47751(9) 0.65414(10)
O12_2 O 0.65320(13) 0.47751(9) 0.65414(10)
C29_2 C 0.41375(24) 0.44822(16) 0.46869(19)
C30_2 C 0.55178(30) 0.58625(24) 0.46869(19)
C31_2 C 0.85335(22) 0.42668(9) 0.62922(18)
C32_2 C 0.57332(27) 0.42667(20) 0.62922(18)
C33_2 C 0.44822(30) 0.41375(24) 0.53131(19)
H17_2 H 0.3551 0.4118 0.4473
H18_2 H 0.5882 0.6449 0.4473
C34_2 C 0.58625(24) 0.55178(16) 0.53131(19)
C35_2 C 0.92930(24) 0.46467(10) 0.5625(2)
C36_2 C 0.53533(30) 0.46463(22) 0.5625(2)
O17_2 O 0.52249(16) 0.34680(13) 0.65414(10)
H19_2 H 0.4118 0.3551 0.5527
H20_2 H 0.6449 0.5882 0.5527
C37_2 C 0.96553(29) 0.55178(16) 0.53131(19)
C38_2 C 0.96553(29) 0.41375(24) 0.53131(19)
H21_2 H 0.9433 0.5882 0.5527
H22_2 H 0.9433 0.3551 0.5527
loop_
_geom_bond_atom_site_label_1
_geom_bond_atom_site_label_2
_geom_bond_site_symmetry_1
_geom_bond_site_symmetry_2
Mg1 N1 1_555 1_555
N1 C1 1_555 1_555
O1 Mg1 1_555 1_555
O2 Mg1 1_555 1_555
C1 H1 1_555 1_555
C2 O2 1_555 1_555
C3 C1 1_555 1_555
C4 C2 1_555 1_555
H2 C3 1_555 1_555
C5 C3 1_555 1_555
C6 C4 1_555 1_555
C7 C5 1_555 1_555
H3 C6 1_555 1_555
N2 C7 1_555 1_555
O3 Mg1 1_555 1_555
O4 Mg1 1_555 1_555
O5 Mg1 1_555 1_555
C8 N1 1_555 1_555
Mg2 O1 1_555 1_555
Mg3 O1 1_555 1_555
H4 C8 1_555 1_555
C9 C5 1_555 1_555
O6 C2 1_555 1_555
C10 C4 1_555 1_555
H6 C10 1_555 1_555
C8 C9 1_555 1_555
Mg3 O6 1_555 1_555
C17 C14 1_555 1_555
C19 C17 1_555 1_555
C20 C17 1_555 1_555
C23 C19 1_555 1_555
C24 C20 1_555 1_555
H13 C23 1_555 1_555
N5 C23 1_555 1_555
H14 C24 1_555 1_555
Mg3 N5 1_555 1_555
C24 N5 1_555 1_555
C13 C11 1_555 1_555
H7 C11 1_555 1_555
H8 C12 1_555 1_555
C16 C13 1_555 1_555
O7 C16 1_555 1_555
O8 C16 1_555 1_555
Mg4 O7 1_555 1_555
Mg5 O8 1_555 1_555
O9 Mg4 1_555 1_555
C27 O9 1_555 1_555
Mg6 O10 1_555 1_555
C28 C27 1_555 1_555
O10 C27 1_555 1_555
C29 C28 1_555 1_555
C30 C28 1_555 1_555
H17 C29 1_555 1_555
H18 C30 1_555 1_555
C12 C13 1_555 1_555
C18 C15 1_555 1_555
C21 C18 1_555 1_555
C22 C18 1_555 1_555
C25 C21 1_555 1_555
C26 C22 1_555 1_555
H12 C22 1_555 1_555
H15 C25 1_555 1_555
N6 C25 1_555 1_555
H16 C26 1_555 1_555
Mg2 N6 1_555 1_555
O11 Mg2 1_555 1_555
O12 Mg2 1_555 1_555
O14 Mg2 1_555 1_555
O15 Mg2 1_555 1_555
C31 O11 1_555 1_555
C32 O12 1_555 1_555
C35 C31 1_555 1_555
O5 C31 1_555 1_555
C36 C32 1_555 1_555
O17 C32 1_555 1_555
O18 Mg3 1_555 1_555
O19 Mg3 1_555 1_555
H19 C33 1_555 1_555
H20 C34 1_555 1_555
C37 C35 1_555 1_555
C38 C35 1_555 1_555
H21 C37 1_555 1_555
H22 C38 1_555 1_555
C15 N4 1_555 1_555
C26 N6 1_555 1_555
Mg3 O17 1_555 1_555
C33 C36 1_555 1_555
C34 C36 1_555 1_555
C41 C39 1_555 1_555
H23 C39 1_555 1_555
H24 C40 1_555 1_555
C42 C41 1_555 1_555
O21 C42 1_555 1_555
O22 C42 1_555 1_555
Mg5 O21 1_555 1_555
Mg6 O22 1_555 1_555
C40 C41 1_555 1_555
C14_2 N2_2 1_555 1_555
C17_2 C14_2 1_555 1_555
C19_2 C17_2 1_555 1_555
C20_2 C17_2 1_555 1_555
C23_2 C19_2 1_555 1_555
C24_2 C20_2 1_555 1_555
H10_2 C20_2 1_555 1_555
H13_2 C23_2 1_555 1_555
N5_2 C23_2 1_555 1_555
H14_2 C24_2 1_555 1_555
Mg6 N5_2 1_555 1_555
C24_2 N5_2 1_555 1_555
C41_2 C39_2 1_555 1_555
H23_2 C39_2 1_555 1_555
H24_2 C40_2 1_555 1_555
C42_2 C41_2 1_555 1_555
O18 C42_2 1_555 1_555
O4 C42_2 1_555 1_555
C40_2 C41_2 1_555 1_555
Mg4 N1_2 1_555 1_555
N1_2 C1_2 1_555 1_555
O1_2 Mg4 1_555 1_555
O2_2 Mg4 1_555 1_555
C1_2 H1_2 1_555 1_555
C2_2 O2_2 1_555 1_555
C3_2 C1_2 1_555 1_555
C4_2 C2_2 1_555 1_555
C5_2 C3_2 1_555 1_555
C6_2 C4_2 1_555 1_555
C7_2 C5_2 1_555 1_555
H3_2 C6_2 1_555 1_555
O5_2 Mg4 1_555 1_555
C8_2 N1_2 1_555 1_555
Mg5 O1_2 1_555 1_555
Mg6 O1_2 1_555 1_555
H4_2 C8_2 1_555 1_555
C9_2 C5_2 1_555 1_555
O6_2 C2_2 1_555 1_555
C10_2 C4_2 1_555 1_555
H6_2 C10_2 1_555 1_555
C8_2 C9_2 1_555 1_555
Mg6 O6_2 1_555 1_555
C13_2 C11_2 1_555 1_555
H7_2 C11_2 1_555 1_555
H8_2 C12_2 1_555 1_555
C15_2 N3_2 1_555 1_555
C16_2 C13_2 1_555 1_555
C18_2 C15_2 1_555 1_555
O14 C16_2 1_555 1_555
O19 C16_2 1_555 1_555
C21_2 C18_2 1_555 1_555
C22_2 C18_2 1_555 1_555
C25_2 C21_2 1_555 1_555
H11_2 C21_2 1_555 1_555
C26_2 C22_2 1_555 1_555
H15_2 C25_2 1_555 1_555
N6_2 C25_2 1_555 1_555
H16_2 C26_2 1_555 1_555
C27_2 O15 1_555 1_555
Mg5 N6_2 1_555 1_555
C28_2 C27_2 1_555 1_555
O3 C27_2 1_555 1_555
O11_2 Mg5 1_555 1_555
O12_2 Mg5 1_555 1_555
C29_2 C28_2 1_555 1_555
C30_2 C28_2 1_555 1_555
C31_2 O11_2 1_555 1_555
C32_2 O12_2 1_555 1_555
C33_2 C29_2 1_555 1_555
H17_2 C29_2 1_555 1_555
H18_2 C30_2 1_555 1_555
C34_2 C30_2 1_555 1_555
C35_2 C31_2 1_555 1_555
O5_2 C31_2 1_555 1_555
C36_2 C32_2 1_555 1_555
O17_2 C32_2 1_555 1_555
H19_2 C33_2 1_555 1_555
H20_2 C34_2 1_555 1_555
C37_2 C35_2 1_555 1_555
C38_2 C35_2 1_555 1_555
H21_2 C37_2 1_555 1_555
H22_2 C38_2 1_555 1_555
C12_2 C13_2 1_555 1_555
C26_2 N6_2 1_555 1_555
Mg6 O17_2 1_555 1_555
C33_2 C36_2 1_555 1_555
C34_2 C36_2 1_555 1_555

#END
