
###############################################################################
#
# This file contains modified crystal structure data generated from the
# MOF subset of the Cambridge Structural Database (CSD) v543 
# hosted by the Cambridge Crystallographic Data Centre (CCDC).
#
# This work is licensed under the Creative Commons
# Attribution-NonCommercial-ShareAlike 4.0 International License.
# To view a copy of this license, visit
# http://creativecommons.org/licenses/by-nc-sa/4.0/
# or send a letter to
# Creative Commons, PO Box 1866, Mountain View, CA 94042, USA.
#
# CIF created using the CSD Python API on 29 September 2022
# The structure has been converted into the P1 space group
# The structure has a 3D framework
# The original CSD entry DAFSOV is in the monoclinic crystal system
# The framework has been calculated to contain at least 10.0% void space
# The void calculation uses a probe of radius 1.32A, grid spacing 0.4
#
###############################################################################

data_DAFSOV
_chemical_formula_moiety         '(C40 H24 N12 O16 Zn12)n'
_symmetry_cell_setting           triclinic
_symmetry_space_group_name_H-M   'P 1'
_symmetry_Int_Tables_number      1
_space_group_name_Hall           'P 1'
loop_
_symmetry_equiv_pos_site_id
_symmetry_equiv_pos_as_xyz
1 x,y,z
_cell_length_a                   9.267(3)
_cell_length_b                   19.041(6)
_cell_length_c                   8.292(3)
_cell_angle_alpha                90
_cell_angle_beta                 111.164(4)
_cell_angle_gamma                90
_cell_volume                     1364.46
loop_
_atom_site_label
_atom_site_type_symbol
_atom_site_fract_x
_atom_site_fract_y
_atom_site_fract_z
Zn5 Zn 0.0000 -0.0000 0.5000
Zn9 Zn 0.30240(7) 0.03017(4) 0.33751(9)
Zn1 Zn -0.0000 0.5000 0.0000
N1 N 0.2368(6) 0.5291(3) 0.1391(7)
N2 N 0.3514(5) 0.5171(3) 0.0768(6)
N3 N 0.4880(6) 0.5417(3) 0.1911(7)
C9 C 0.3026(8) 0.5607(4) 0.2932(9)
H5 H 0.2512 0.5745 0.3658
C10 C 0.4579(8) 0.5693(4) 0.3264(9)
H6 H 0.5293 0.5902 0.4239
O7 O 0.2129(5) 0.9504(2) 0.1694(6)
O8 O 0.0183(6) 0.9793(2) 0.2527(6)
C13 C 0.0493(7) 0.7412(3) 0.0697(9)
H7 H 0.1060 0.7069 0.0388
C14 C 0.0980(7) 0.8112(3) 0.0860(9)
H8 H 0.1866 0.8231 0.0644
C15 C 0.0161(7) 0.8631(3) 0.1340(8)
C18 C 0.0822(7) 0.9356(3) 0.1838(8)
Zn5_2 Zn 0.0000 1.0000 0.5000
Zn8 Zn 0.69760(7) 0.53017(4) 0.16249(9)
Zn1_2 Zn -0.0000 0.5000 1.0000
Zn2 Zn 0.30240(7) 0.46983(4) 0.83751(9)
O1 O 0.0606(5) 0.3972(2) 0.9702(6)
O2 O 0.2328(5) 0.3724(2) 0.8408(6)
C1 C 0.1286(6) 0.3550(3) 0.9044(8)
C2 C 0.0875(7) 0.2776(3) 0.8993(8)
C6 C 0.1257(7) 0.1549(3) 0.8457(9)
H3 H 0.1857 0.1200 0.8224
C7 C 0.1745(7) 0.2246(3) 0.8609(8)
H4 H 0.2661 0.2360 0.8452
O9 O 0.2129(5) 0.5496(2) 0.6694(6)
O11 O 0.0183(6) 0.5207(2) 0.7527(6)
N8 N 0.5120(6) 0.4583(3) 0.8089(7)
Zn5_3 Zn 1.0000 -0.0000 0.5000
Zn1_3 Zn 1.0000 0.5000 0.0000
O5 O 0.9394(5) 0.6028(2) 0.0298(6)
O6 O 0.7672(5) 0.6276(2) 0.1592(6)
C11 C 0.8714(6) 0.6450(3) 0.0956(8)
C12 C 0.9125(7) 0.7224(3) 0.1007(8)
C16 C 0.8743(7) 0.8451(3) 0.1543(9)
H9 H 0.8143 0.8800 0.1776
C17 C 0.8255(7) 0.7754(3) 0.1391(8)
H10 H 0.7339 0.7640 0.1548
Zn5_4 Zn 1.0000 1.0000 0.5000
O10 O 0.7871(5) 0.4504(2) 0.3306(6)
O12 O 0.9817(6) 0.4793(2) 0.2473(6)
Zn1_4 Zn 1.0000 0.5000 1.0000
O3 O 0.7871(5) 0.0496(2) 0.8306(6)
O4 O 0.9817(6) 0.0207(2) 0.7473(6)
C3 C 0.9507(7) 0.2588(3) 0.9303(9)
H1 H 0.8940 0.2931 0.9612
C4 C 0.9020(7) 0.1888(3) 0.9140(9)
H2 H 0.8134 0.1769 0.9356
C5 C 0.9839(7) 0.1369(3) 0.8660(8)
C8 C 0.9178(7) 0.0644(3) 0.8162(8)
N4 N 0.7632(6) 0.4709(3) 0.8609(7)
N5 N 0.6486(5) 0.4829(3) 0.9232(6)
C19 C 0.6974(8) 0.4393(4) 0.7068(9)
H11 H 0.7488 0.4255 0.6342
C20 C 0.5421(8) 0.4307(4) 0.6736(9)
H12 H 0.4707 0.4098 0.5761
Zn7 Zn 0.69760(7) 0.96983(4) 0.66249(9)
O5_2 O 0.0606(5) 0.1028(2) 0.4702(6)
O6_2 O 0.2328(5) 0.1276(2) 0.3408(6)
C11_2 C 0.1286(6) 0.1450(3) 0.4044(8)
C12_2 C 0.0875(7) 0.2224(3) 0.3993(8)
C16_2 C 0.1257(7) 0.3451(3) 0.3457(9)
H9_2 H 0.1857 0.3800 0.3224
C17_2 C 0.1745(7) 0.2754(3) 0.3609(8)
H10_2 H 0.2661 0.2640 0.3452
N7 N 0.5120(6) 0.0417(3) 0.3089(7)
C3_2 C 0.0493(7) 0.7588(3) 0.5697(9)
H1_2 H 0.1060 0.7931 0.5388
C4_2 C 0.0980(7) 0.6888(3) 0.5860(9)
H2_2 H 0.1866 0.6769 0.5644
C5_2 C 0.0161(7) 0.6369(3) 0.6340(8)
C8_2 C 0.0822(7) 0.5644(3) 0.6838(8)
N4_2 N 0.2368(6) 0.9709(3) 0.6391(7)
N5_2 N 0.3514(5) 0.9829(3) 0.5768(6)
N6 N 0.4880(6) 0.9583(3) 0.6911(7)
C19_2 C 0.3026(8) 0.9393(4) 0.7932(9)
H11_2 H 0.2512 0.9255 0.8658
C20_2 C 0.4579(8) 0.9307(4) 0.8264(9)
H12_2 H 0.5293 0.9098 0.9239
N1_2 N 0.7632(6) 0.0291(3) 0.3609(7)
N2_2 N 0.6486(5) 0.0171(3) 0.4232(6)
C9_2 C 0.6974(8) 0.0607(4) 0.2068(9)
H5_2 H 0.7488 0.0745 0.1342
C10_2 C 0.5421(8) 0.0693(4) 0.1736(9)
H6_2 H 0.4707 0.0902 0.0761
C13_2 C 0.9507(7) 0.2412(3) 0.4303(9)
H7_2 H 0.8940 0.2069 0.4612
C14_2 C 0.9020(7) 0.3112(3) 0.4140(9)
H8_2 H 0.8134 0.3231 0.4356
C15_2 C 0.9839(7) 0.3631(3) 0.3660(8)
C18_2 C 0.9178(7) 0.4356(3) 0.3162(8)
O1_2 O 0.9394(5) 0.8972(2) 0.5298(6)
O2_2 O 0.7672(5) 0.8724(2) 0.6592(6)
C1_2 C 0.8714(6) 0.8550(3) 0.5956(8)
C2_2 C 0.9125(7) 0.7776(3) 0.6007(8)
C6_2 C 0.8743(7) 0.6549(3) 0.6543(9)
H3_2 H 0.8143 0.6200 0.6776
C7_2 C 0.8255(7) 0.7246(3) 0.6391(8)
H4_2 H 0.7339 0.7360 0.6548
loop_
_geom_bond_atom_site_label_1
_geom_bond_atom_site_label_2
_geom_bond_site_symmetry_1
_geom_bond_site_symmetry_2
N1 Zn1 1_555 1_555
N3 N2 1_555 1_555
C9 N1 1_555 1_555
H5 C9 1_555 1_555
C10 N3 1_555 1_555
H6 C10 1_555 1_555
O7 C18 1_555 1_555
O8 C18 1_555 1_555
H7 C13 1_555 1_555
C14 C13 1_555 1_555
H8 C14 1_555 1_555
C15 C14 1_555 1_555
C18 C15 1_555 1_555
Zn5_2 O8 1_555 1_555
Zn8 N3 1_555 1_555
N1 N2 1_555 1_555
C9 C10 1_555 1_555
Zn1_2 O1 1_555 1_555
Zn2 O2 1_555 1_555
O1 C1 1_555 1_555
O2 C1 1_555 1_555
C1 C2 1_555 1_555
H3 C6 1_555 1_555
C7 C2 1_555 1_555
H4 C7 1_555 1_555
O9 Zn2 1_555 1_555
O11 Zn1_2 1_555 1_555
N8 Zn2 1_555 1_555
C6 C7 1_555 1_555
Zn8 O6 1_555 1_555
O5 Zn1_3 1_555 1_555
O6 C11 1_555 1_555
C11 O5 1_555 1_555
C12 C11 1_555 1_555
H9 C16 1_555 1_555
C17 C12 1_555 1_555
H10 C17 1_555 1_555
O10 Zn8 1_555 1_555
O12 Zn1_3 1_555 1_555
C16 C17 1_555 1_555
O3 C8 1_555 1_555
O4 C8 1_555 1_555
C3 H1 1_555 1_555
C4 C3 1_555 1_555
H2 C4 1_555 1_555
C5 C4 1_555 1_555
C8 C5 1_555 1_555
N4 Zn1_4 1_555 1_555
N8 N5 1_555 1_555
C19 N4 1_555 1_555
H11 C19 1_555 1_555
C20 N8 1_555 1_555
H12 C20 1_555 1_555
Zn5_3 O4 1_555 1_555
N4 N5 1_555 1_555
C19 C20 1_555 1_555
Zn9 O6_2 1_555 1_555
O5_2 Zn5 1_555 1_555
O6_2 C11_2 1_555 1_555
C11_2 O5_2 1_555 1_555
C12_2 C11_2 1_555 1_555
H9_2 C16_2 1_555 1_555
C17_2 C12_2 1_555 1_555
H10_2 C17_2 1_555 1_555
N7 Zn9 1_555 1_555
C16_2 C17_2 1_555 1_555
O9 C8_2 1_555 1_555
O11 C8_2 1_555 1_555
C3_2 H1_2 1_555 1_555
C4_2 C3_2 1_555 1_555
H2_2 C4_2 1_555 1_555
C5_2 C4_2 1_555 1_555
C8_2 C5_2 1_555 1_555
N4_2 Zn5_2 1_555 1_555
N6 N5_2 1_555 1_555
C19_2 N4_2 1_555 1_555
H11_2 C19_2 1_555 1_555
C20_2 N6 1_555 1_555
H12_2 C20_2 1_555 1_555
Zn7 N6 1_555 1_555
N4_2 N5_2 1_555 1_555
C19_2 C20_2 1_555 1_555
N1_2 Zn5_3 1_555 1_555
N7 N2_2 1_555 1_555
C9_2 N1_2 1_555 1_555
H5_2 C9_2 1_555 1_555
C10_2 N7 1_555 1_555
H6_2 C10_2 1_555 1_555
O10 C18_2 1_555 1_555
O12 C18_2 1_555 1_555
H7_2 C13_2 1_555 1_555
C14_2 C13_2 1_555 1_555
H8_2 C14_2 1_555 1_555
C15_2 C14_2 1_555 1_555
C18_2 C15_2 1_555 1_555
N1_2 N2_2 1_555 1_555
C9_2 C10_2 1_555 1_555
Zn5_4 O1_2 1_555 1_555
Zn7 O2_2 1_555 1_555
O1_2 C1_2 1_555 1_555
O2_2 C1_2 1_555 1_555
C1_2 C2_2 1_555 1_555
H3_2 C6_2 1_555 1_555
C7_2 C2_2 1_555 1_555
H4_2 C7_2 1_555 1_555
C6_2 C7_2 1_555 1_555

#END
