
###############################################################################
#
# This file contains modified crystal structure data generated from the
# MOF subset of the Cambridge Structural Database (CSD) v543 
# hosted by the Cambridge Crystallographic Data Centre (CCDC).
#
# This work is licensed under the Creative Commons
# Attribution-NonCommercial-ShareAlike 4.0 International License.
# To view a copy of this license, visit
# http://creativecommons.org/licenses/by-nc-sa/4.0/
# or send a letter to
# Creative Commons, PO Box 1866, Mountain View, CA 94042, USA.
#
# CIF created using the CSD Python API on 29 September 2022
# The structure has been converted into the P1 space group
# The structure has a 3D framework
# The original CSD entry DAFSEL is in the monoclinic crystal system
# The framework has been calculated to contain at least 10.0% void space
# The void calculation uses a probe of radius 1.32A, grid spacing 0.4
#
###############################################################################

data_DAFSEL
_chemical_formula_moiety         '(C40 H24 N12 O16 Zn12)n'
_symmetry_cell_setting           triclinic
_symmetry_space_group_name_H-M   'P 1'
_symmetry_Int_Tables_number      1
_space_group_name_Hall           'P 1'
loop_
_symmetry_equiv_pos_site_id
_symmetry_equiv_pos_as_xyz
1 x,y,z
_cell_length_a                   9.1212(2)
_cell_length_b                   18.8576(4)
_cell_length_c                   8.1265(2)
_cell_angle_alpha                90
_cell_angle_beta                 111.9630(10)
_cell_angle_gamma                90
_cell_volume                     1296.35
loop_
_atom_site_label
_atom_site_type_symbol
_atom_site_fract_x
_atom_site_fract_y
_atom_site_fract_z
Zn5 Zn 0.0000 0.0000 0.0000
Zn5_2 Zn 0.0000 0.0000 1.0000
Zn1 Zn 0.0000 0.5000 0.5000
Zn2 Zn 0.30126(4) 0.529655(18) 0.33651(5)
O1 O 0.0579(3) 0.60235(11) 0.4647(3)
O2 O 0.2291(3) 0.62633(12) 0.3346(3)
N1 N 0.2389(3) 0.47231(15) 0.6416(4)
N2 N 0.3519(3) 0.48378(13) 0.5786(3)
N3 N 0.4889(3) 0.45855(14) 0.6924(4)
C1 C 0.1253(3) 0.64376(17) 0.3975(4)
C2 C 0.0817(4) 0.72038(16) 0.3910(4)
C3 C 0.1721(4) 0.77315(17) 0.3561(4)
H1 H 0.2659 0.7614 0.3424
C4 C 0.1237(4) 0.84289(17) 0.3416(4)
H2 H 0.1856 0.8780 0.3198
C9 C 0.3042(4) 0.4397(2) 0.7968(5)
H5 H 0.2525 0.4254 0.8705
C10 C 0.4608(4) 0.4308(2) 0.8286(5)
H6 H 0.5350 0.4093 0.9278
O7 O 0.2143(3) 0.05157(12) 0.6736(3)
O8 O 0.0170(3) 0.02262(12) 0.7529(3)
C15 C 0.0174(4) 0.13908(16) 0.6406(4)
C16 C 0.1033(4) 0.19132(18) 0.5976(5)
H9 H 0.1951 0.1793 0.5796
C17 C 0.0543(4) 0.26077(18) 0.5811(5)
H10 H 0.1127 0.2954 0.5511
C18 C 0.0841(4) 0.06626(17) 0.6892(4)
Zn5_3 Zn 0.0000 1.0000 0.0000
Zn8 Zn 0.69874(4) 0.470345(18) 0.66349(5)
O9 O 0.2143(3) 0.44843(12) 0.1736(3)
O11 O 0.0170(3) 0.47738(12) 0.2529(3)
N8 N 0.5111(3) 0.54145(14) 0.3076(4)
Zn5_4 Zn 0.0000 1.0000 1.0000
Zn9 Zn 0.30126(4) 0.970345(18) 0.83651(5)
Zn5_5 Zn 1.0000 0.0000 0.0000
Zn7 Zn 0.69874(4) 0.029655(18) 0.16349(5)
Zn5_6 Zn 1.0000 0.0000 1.0000
Zn1_2 Zn 1.0000 0.5000 0.5000
O3 O 0.7857(3) 0.94843(12) 0.3264(3)
O4 O 0.9830(3) 0.97738(12) 0.2471(3)
C5 C 0.9826(4) 0.86092(16) 0.3594(4)
C6 C 0.8967(4) 0.80868(18) 0.4024(5)
H3 H 0.8049 0.8207 0.4204
C7 C 0.9457(4) 0.73923(18) 0.4189(5)
H4 H 0.8873 0.7046 0.4489
C8 C 0.9159(4) 0.93374(17) 0.3108(4)
O5 O 0.9421(3) 0.39765(11) 0.5353(3)
O6 O 0.7709(3) 0.37367(12) 0.6654(3)
N4 N 0.7611(3) 0.52769(15) 0.3584(4)
N5 N 0.6481(3) 0.51622(13) 0.4214(3)
C11 C 0.8747(3) 0.35624(17) 0.6025(4)
C12 C 0.9183(4) 0.27962(16) 0.6090(4)
C13 C 0.8279(4) 0.22685(17) 0.6439(4)
H7 H 0.7341 0.2386 0.6576
C14 C 0.8763(4) 0.15711(17) 0.6584(4)
H8 H 0.8144 0.1220 0.6802
C19 C 0.6958(4) 0.5603(2) 0.2032(5)
H11 H 0.7475 0.5746 0.1295
C20 C 0.5392(4) 0.5692(2) 0.1714(5)
H12 H 0.4650 0.5907 0.0722
Zn5_7 Zn 1.0000 1.0000 0.0000
O10 O 0.7857(3) 0.55157(12) 0.8264(3)
O12 O 0.9830(3) 0.52262(12) 0.7471(3)
Zn5_8 Zn 1.0000 1.0000 1.0000
C5_2 C 0.0174(4) 0.36092(16) 0.1406(4)
C6_2 C 0.1033(4) 0.30868(18) 0.0976(5)
H3_2 H 0.1951 0.3207 0.0796
C7_2 C 0.0543(4) 0.23923(18) 0.0811(5)
H4_2 H 0.1127 0.2046 0.0511
C8_2 C 0.0841(4) 0.43374(17) 0.1892(4)
N4_2 N 0.2389(3) 0.02769(15) 0.1416(4)
N5_2 N 0.3519(3) 0.01622(13) 0.0786(3)
N6 N 0.4889(3) 0.04145(14) 0.1924(4)
C19_2 C 0.3042(4) 0.0603(2) 0.2968(5)
H11_2 H 0.2525 0.0746 0.3705
C20_2 C 0.4608(4) 0.0692(2) 0.3286(5)
H12_2 H 0.5350 0.0907 0.4278
O5_2 O 0.0579(3) 0.89765(11) 0.9647(3)
O6_2 O 0.2291(3) 0.87367(12) 0.8346(3)
C11_2 C 0.1253(3) 0.85624(17) 0.8975(4)
C12_2 C 0.0817(4) 0.77962(16) 0.8910(4)
C13_2 C 0.1721(4) 0.72685(17) 0.8561(4)
H7_2 H 0.2659 0.7386 0.8424
C14_2 C 0.1237(4) 0.65711(17) 0.8416(4)
H8_2 H 0.1856 0.6220 0.8198
N7 N 0.5111(3) 0.95855(14) 0.8076(4)
O1_2 O 0.9421(3) 0.10235(11) 0.0353(3)
O2_2 O 0.7709(3) 0.12633(12) 0.1654(3)
C1_2 C 0.8747(3) 0.14376(17) 0.1025(4)
C2_2 C 0.9183(4) 0.22038(16) 0.1090(4)
C3_2 C 0.8279(4) 0.27315(17) 0.1439(4)
H1_2 H 0.7341 0.2614 0.1576
C4_2 C 0.8763(4) 0.34289(17) 0.1584(4)
H2_2 H 0.8144 0.3780 0.1802
N1_2 N 0.7611(3) 0.97231(15) 0.8584(4)
N2_2 N 0.6481(3) 0.98378(13) 0.9214(3)
C9_2 C 0.6958(4) 0.9397(2) 0.7032(5)
H5_2 H 0.7475 0.9254 0.6295
C10_2 C 0.5392(4) 0.9308(2) 0.6714(5)
H6_2 H 0.4650 0.9093 0.5722
C15_2 C 0.9826(4) 0.63908(16) 0.8594(4)
C16_2 C 0.8967(4) 0.69132(18) 0.9024(5)
H9_2 H 0.8049 0.6793 0.9204
C17_2 C 0.9457(4) 0.76077(18) 0.9189(5)
H10_2 H 0.8873 0.7954 0.9489
C18_2 C 0.9159(4) 0.56626(17) 0.8108(4)
loop_
_geom_bond_atom_site_label_1
_geom_bond_atom_site_label_2
_geom_bond_site_symmetry_1
_geom_bond_site_symmetry_2
Zn1 O1 1_555 1_555
Zn2 O2 1_555 1_555
O1 C1 1_555 1_555
O2 C1 1_555 1_555
N1 Zn1 1_555 1_555
N2 Zn2 1_555 1_555
N3 N2 1_555 1_555
C1 C2 1_555 1_555
C2 C3 1_555 1_555
C3 H1 1_555 1_555
C4 C3 1_555 1_555
H2 C4 1_555 1_555
C9 N1 1_555 1_555
H5 C9 1_555 1_555
C10 N3 1_555 1_555
H6 C10 1_555 1_555
O7 C18 1_555 1_555
O8 C18 1_555 1_555
C16 C15 1_555 1_555
H9 C16 1_555 1_555
H10 C17 1_555 1_555
C18 C15 1_555 1_555
Zn5_2 O8 1_555 1_555
Zn8 N3 1_555 1_555
O9 Zn2 1_555 1_555
O11 Zn1 1_555 1_555
N8 Zn2 1_555 1_555
N1 N2 1_555 1_555
C9 C10 1_555 1_555
C16 C17 1_555 1_555
O3 C8 1_555 1_555
O4 C8 1_555 1_555
C6 C5 1_555 1_555
H3 C6 1_555 1_555
H4 C7 1_555 1_555
C8 C5 1_555 1_555
Zn8 O6 1_555 1_555
O5 Zn1_2 1_555 1_555
O6 C11 1_555 1_555
N4 Zn1_2 1_555 1_555
N5 Zn8 1_555 1_555
N8 N5 1_555 1_555
C11 O5 1_555 1_555
C12 C11 1_555 1_555
C13 C12 1_555 1_555
H7 C13 1_555 1_555
C14 C13 1_555 1_555
H8 C14 1_555 1_555
C19 N4 1_555 1_555
H11 C19 1_555 1_555
C20 N8 1_555 1_555
H12 C20 1_555 1_555
Zn5_7 O4 1_555 1_555
O10 Zn8 1_555 1_555
O12 Zn1_2 1_555 1_555
C6 C7 1_555 1_555
N4 N5 1_555 1_555
C19 C20 1_555 1_555
O9 C8_2 1_555 1_555
O11 C8_2 1_555 1_555
C6_2 C5_2 1_555 1_555
H3_2 C6_2 1_555 1_555
H4_2 C7_2 1_555 1_555
C8_2 C5_2 1_555 1_555
N4_2 Zn5 1_555 1_555
N6 N5_2 1_555 1_555
C19_2 N4_2 1_555 1_555
H11_2 C19_2 1_555 1_555
C20_2 N6 1_555 1_555
H12_2 C20_2 1_555 1_555
Zn7 N6 1_555 1_555
C6_2 C7_2 1_555 1_555
N4_2 N5_2 1_555 1_555
C19_2 C20_2 1_555 1_555
Zn9 O6_2 1_555 1_555
O5_2 Zn5_4 1_555 1_555
O6_2 C11_2 1_555 1_555
C11_2 O5_2 1_555 1_555
C12_2 C11_2 1_555 1_555
C13_2 C12_2 1_555 1_555
H7_2 C13_2 1_555 1_555
C14_2 C13_2 1_555 1_555
H8_2 C14_2 1_555 1_555
N7 Zn9 1_555 1_555
Zn5_5 O1_2 1_555 1_555
Zn7 O2_2 1_555 1_555
O1_2 C1_2 1_555 1_555
O2_2 C1_2 1_555 1_555
C1_2 C2_2 1_555 1_555
C2_2 C3_2 1_555 1_555
C3_2 H1_2 1_555 1_555
C4_2 C3_2 1_555 1_555
H2_2 C4_2 1_555 1_555
N1_2 Zn5_8 1_555 1_555
N7 N2_2 1_555 1_555
C9_2 N1_2 1_555 1_555
H5_2 C9_2 1_555 1_555
C10_2 N7 1_555 1_555
H6_2 C10_2 1_555 1_555
O10 C18_2 1_555 1_555
O12 C18_2 1_555 1_555
C16_2 C15_2 1_555 1_555
H9_2 C16_2 1_555 1_555
H10_2 C17_2 1_555 1_555
C18_2 C15_2 1_555 1_555
N1_2 N2_2 1_555 1_555
C9_2 C10_2 1_555 1_555
C16_2 C17_2 1_555 1_555

#END
