
###############################################################################
#
# This file contains modified crystal structure data generated from the
# MOF subset of the Cambridge Structural Database (CSD) v543 
# hosted by the Cambridge Crystallographic Data Centre (CCDC).
#
# This work is licensed under the Creative Commons
# Attribution-NonCommercial-ShareAlike 4.0 International License.
# To view a copy of this license, visit
# http://creativecommons.org/licenses/by-nc-sa/4.0/
# or send a letter to
# Creative Commons, PO Box 1866, Mountain View, CA 94042, USA.
#
# CIF created using the CSD Python API on 29 September 2022
# The structure has been converted into the P1 space group
# The structure has a 3D framework
# The original CSD entry DAFZAO is in the hexagonal crystal system
# The framework has been calculated to contain at least 10.0% void space
# The void calculation uses a probe of radius 1.32A, grid spacing 0.4
#
###############################################################################

data_DAFZAO
_chemical_formula_moiety         '(C84 H48 Mn6 N12 O25)n'
_symmetry_cell_setting           triclinic
_symmetry_space_group_name_H-M   'P 1'
_symmetry_Int_Tables_number      1
_space_group_name_Hall           'P 1'
loop_
_symmetry_equiv_pos_site_id
_symmetry_equiv_pos_as_xyz
1 x,y,z
_cell_length_a                   17.4162(4)
_cell_length_b                   17.4162(4)
_cell_length_c                   14.9154(7)
_cell_angle_alpha                90
_cell_angle_beta                 90
_cell_angle_gamma                120
_cell_volume                     3918.07
loop_
_atom_site_label
_atom_site_type_symbol
_atom_site_fract_x
_atom_site_fract_y
_atom_site_fract_z
Mn1 Mn 0.52760(3) 0.26380(2) 0.2500
C1 C 0.57258(10) 0.42742(10) 0.3732(2)
C2 C 0.53463(10) 0.46537(10) 0.4384(2)
C3 C 0.44961(16) 0.41594(18) 0.4693(2)
H1 H 0.4141 0.3585 0.4482
C4 C 0.3289(2) 0.1013(2) 0.2500
H2 H 0.3592 0.0700 0.2500
C5 C 0.2368(2) 0.05269(19) 0.2500
C6 C 0.1899(2) 0.09495(11) 0.2500
C7 C 0.0903(2) 0.04517(11) 0.2500
O1 O 0.6667 0.3333 0.2500
O2 O 0.52266(10) 0.34934(10) 0.34987(12)
N1 N 0.3761(2) 0.18804(10) 0.2500
C8 C 0.42742(10) 0.57258(10) 0.6268(2)
C9 C 0.46537(10) 0.53463(10) 0.5616(2)
C10 C 0.41594(18) 0.44961(16) 0.5307(2)
H4 H 0.3585 0.4141 0.5518
O3 O 0.34934(10) 0.52266(10) 0.65013(12)
C11 C 0.55039(16) 0.58406(18) 0.5307(2)
H5 H 0.5859 0.6415 0.5518
O4 O 0.47734(10) 0.65066(10) 0.65013(12)
C12 C 0.58406(18) 0.55039(16) 0.4693(2)
H6 H 0.6415 0.5859 0.4482
O5 O 0.65066(10) 0.47734(10) 0.34987(12)
H8 H 0.0089 0.2166 0.2500
N4 N 0.04547(11) 0.09094(16) 0.2500
C25 C 0.3289(2) 0.2276(3) 0.2500
H15 H 0.3592 0.2892 0.2500
C26 C 0.2368(2) 0.18411(28) 0.2500
H16 H 0.2077 0.2166 0.2500
Mn6 Mn 0.73620(2) 0.26380(4) 0.2500
Mn7 Mn 0.73620(4) 0.47240(3) 0.2500
Mn9 Mn 0.47240(3) 0.73620(2) 0.7500
Mn13 Mn 0.26380(4) 0.52760(3) 0.7500
O18 O 0.52266(10) 0.17332(14) 0.15013(12)
O19 O 0.52266(10) 0.34934(10) 0.15013(12)
O24 O 0.52266(10) 0.17332(14) 0.34987(12)
H3 H 0.2077 0.9911 0.2500
N2 N 0.04547(11) 0.95453(11) 0.2500
H12 H 0.0089 0.7923 0.2500
C38 C 0.14516(14) 0.57258(10) 0.6268(2)
C39 C 0.06926(14) 0.53463(10) 0.5616(2)
C40 C 0.03367(24) 0.58406(18) 0.5307(2)
H22 H 0.0556 0.6415 0.5518
O11 O 0.17332(14) 0.65066(10) 0.65013(12)
C41 C 0.03367(24) 0.44961(16) 0.5307(2)
H23 H 0.0556 0.4141 0.5518
O12 O 0.17332(14) 0.52266(10) 0.65013(12)
Mn11 Mn 0.26380(2) 0.73620(4) 0.7500
C13 C 0.8987(2) 0.2276(3) 0.2500
H7 H 0.9300 0.2892 0.2500
C14 C 0.94731(19) 0.18411(28) 0.2500
C15 C 0.90505(11) 0.09495(23) 0.2500
C16 C 0.95483(11) 0.04513(23) 0.2500
N3 N 0.81196(10) 0.18806(22) 0.2500
C23 C 0.7724(3) 0.1013(2) 0.2500
H13 H 0.7108 0.0700 0.2500
C24 C 0.81589(28) 0.05269(19) 0.2500
C27 C 0.57258(10) 0.14516(14) 0.3732(2)
C28 C 0.53463(10) 0.06926(14) 0.4384(2)
C29 C 0.58406(18) 0.03367(24) 0.4693(2)
H17 H 0.6415 0.0556 0.4482
O6 O 0.65066(10) 0.17332(14) 0.34987(12)
C34 C 0.44961(16) 0.03367(24) 0.4693(2)
H20 H 0.4141 0.0556 0.4482
O17 O 0.82668(14) 0.34934(10) 0.15013(12)
O20 O 0.65066(10) 0.17332(14) 0.15013(12)
O23 O 0.82668(14) 0.34934(10) 0.34987(12)
C17 C 0.7724(3) 0.6711(2) 0.2500
H9 H 0.7108 0.6408 0.2500
C18 C 0.81589(28) 0.7632(2) 0.2500
H10 H 0.7834 0.7923 0.2500
C19 C 0.90505(23) 0.8101(2) 0.2500
C20 C 0.95487(23) 0.9097(2) 0.2500
N5 N 0.81194(22) 0.6239(2) 0.2500
N6 N 0.90906(16) 0.95453(11) 0.2500
C21 C 0.8987(2) 0.6711(2) 0.2500
H11 H 0.9300 0.6408 0.2500
C22 C 0.94731(19) 0.7632(2) 0.2500
H14 H 0.7834 0.9911 0.2500
C30 C 0.42742(10) 0.85484(14) 0.6268(2)
C31 C 0.46537(10) 0.93074(14) 0.5616(2)
C32 C 0.55039(16) 0.96633(24) 0.5307(2)
H18 H 0.5859 0.9444 0.5518
O7 O 0.47734(10) 0.82668(14) 0.65013(12)
C33 C 0.41594(18) 0.96633(24) 0.5307(2)
H19 H 0.3585 0.9444 0.5518
O8 O 0.34934(10) 0.82668(14) 0.65013(12)
C35 C 0.85484(14) 0.42742(10) 0.3732(2)
C36 C 0.93074(14) 0.46537(10) 0.4384(2)
C37 C 0.96633(24) 0.55039(16) 0.4693(2)
H21 H 0.9444 0.5859 0.4482
O10 O 0.82668(14) 0.47734(10) 0.34987(12)
C42 C 0.96633(24) 0.41594(18) 0.4693(2)
H24 H 0.9444 0.3585 0.4482
O16 O 0.65066(10) 0.47734(10) 0.15013(12)
O21 O 0.82668(14) 0.47734(10) 0.15013(12)
C30_2 C 0.57258(10) 0.14516(14) 0.1268(2)
C31_2 C 0.53463(10) 0.06926(14) 0.0616(2)
C32_2 C 0.44961(16) 0.03367(24) 0.0307(2)
H18_2 H 0.4141 0.0556 0.0518
C33_2 C 0.58406(18) 0.03367(24) 0.0307(2)
H19_2 H 0.6415 0.0556 0.0518
C17_2 C 0.2276(3) 0.3289(2) 0.7500
H9_2 H 0.2892 0.3592 0.7500
C18_2 C 0.18411(28) 0.2368(2) 0.7500
H10_2 H 0.2166 0.2077 0.7500
C19_2 C 0.09495(23) 0.1899(2) 0.7500
C20_2 C 0.04513(23) 0.0903(2) 0.7500
N5_2 N 0.18806(22) 0.3761(2) 0.7500
N6_2 N 0.09094(16) 0.04547(11) 0.7500
C21_2 C 0.1013(2) 0.3289(2) 0.7500
H11_2 H 0.0700 0.3592 0.7500
C22_2 C 0.05269(19) 0.2368(2) 0.7500
H14_2 H 0.2166 0.0089 0.7500
C35_2 C 0.14516(14) 0.57258(10) 0.8732(2)
C36_2 C 0.06926(14) 0.53463(10) 0.9384(2)
C37_2 C 0.03367(24) 0.44961(16) 0.9693(2)
H21_2 H 0.0556 0.4141 0.9482
O10_2 O 0.17332(14) 0.52266(10) 0.84987(12)
C42_2 C 0.03367(24) 0.58406(18) 0.9693(2)
H24_2 H 0.0556 0.6415 0.9482
O13 O 0.17332(14) 0.65066(10) 0.84987(12)
O14 O 0.3333 0.6667 0.7500
O22 O 0.34934(10) 0.52266(10) 0.84987(12)
C13_2 C 0.1013(2) 0.7724(3) 0.7500
H7_2 H 0.0700 0.7108 0.7500
C14_2 C 0.05269(19) 0.81589(28) 0.7500
C15_2 C 0.09495(11) 0.90505(23) 0.7500
C16_2 C 0.04517(11) 0.95487(23) 0.7500
N3_2 N 0.18804(10) 0.81194(22) 0.7500
C23_2 C 0.2276(3) 0.8987(2) 0.7500
H13_2 H 0.2892 0.9300 0.7500
C24_2 C 0.18411(28) 0.94731(19) 0.7500
C27_2 C 0.42742(10) 0.85484(14) 0.8732(2)
C28_2 C 0.46537(10) 0.93074(14) 0.9384(2)
C29_2 C 0.41594(18) 0.96633(24) 0.9693(2)
H17_2 H 0.3585 0.9444 0.9482
O6_2 O 0.34934(10) 0.82668(14) 0.84987(12)
C34_2 C 0.55039(16) 0.96633(24) 0.9693(2)
H20_2 H 0.5859 0.9444 0.9482
O9 O 0.47734(10) 0.82668(14) 0.84987(12)
C38_2 C 0.85484(14) 0.42742(10) 0.1268(2)
C39_2 C 0.93074(14) 0.46537(10) 0.0616(2)
C40_2 C 0.96633(24) 0.41594(18) 0.0307(2)
H22_2 H 0.9444 0.3585 0.0518
C41_2 C 0.96633(24) 0.55039(16) 0.0307(2)
H23_2 H 0.9444 0.5859 0.0518
H3_2 H 0.7923 0.0089 0.7500
N2_2 N 0.95453(11) 0.04547(11) 0.7500
H12_2 H 0.9911 0.2077 0.7500
C8_2 C 0.57258(10) 0.42742(10) 0.1268(2)
C9_2 C 0.53463(10) 0.46537(10) 0.0616(2)
C10_2 C 0.58406(18) 0.55039(16) 0.0307(2)
H4_2 H 0.6415 0.5859 0.0518
C11_2 C 0.44961(16) 0.41594(18) 0.0307(2)
H5_2 H 0.4141 0.3585 0.0518
C1_2 C 0.42742(10) 0.57258(10) 0.8732(2)
C2_2 C 0.46537(10) 0.53463(10) 0.9384(2)
C3_2 C 0.55039(16) 0.58406(18) 0.9693(2)
H1_2 H 0.5859 0.6415 0.9482
C4_2 C 0.6711(2) 0.8987(2) 0.7500
H2_2 H 0.6408 0.9300 0.7500
C5_2 C 0.7632(2) 0.94731(19) 0.7500
C6_2 C 0.8101(2) 0.90505(11) 0.7500
C7_2 C 0.9097(2) 0.95483(11) 0.7500
O2_2 O 0.47734(10) 0.65066(10) 0.84987(12)
N1_2 N 0.6239(2) 0.81196(10) 0.7500
C12_2 C 0.41594(18) 0.44961(16) 0.9693(2)
H6_2 H 0.3585 0.4141 0.9482
H8_2 H 0.9911 0.7834 0.7500
N4_2 N 0.95453(11) 0.90906(16) 0.7500
C25_2 C 0.6711(2) 0.7724(3) 0.7500
H15_2 H 0.6408 0.7108 0.7500
C26_2 C 0.7632(2) 0.81589(28) 0.7500
H16_2 H 0.7923 0.7834 0.7500
loop_
_geom_bond_atom_site_label_1
_geom_bond_atom_site_label_2
_geom_bond_site_symmetry_1
_geom_bond_site_symmetry_2
Mn1 O1 1_555 1_555
C1 C2 1_555 1_555
C2 C3 1_555 1_555
C3 H1 1_555 1_555
C4 H2 1_555 1_555
C5 C4 1_555 1_555
C6 C5 1_555 1_555
C7 C6 1_555 1_555
O1 Mn6 1_555 1_555
O2 Mn1 1_555 1_555
N1 Mn1 1_555 1_555
C8 C9 1_555 1_555
C9 C10 1_555 1_555
C10 C3 1_555 1_555
H4 C10 1_555 1_555
O3 C8 1_555 1_555
C11 C9 1_555 1_555
H5 C11 1_555 1_555
O4 C8 1_555 1_555
C12 C2 1_555 1_555
H6 C12 1_555 1_555
O5 C1 1_555 1_555
N4 C7 1_555 1_555
C25 N1 1_555 1_555
H15 C25 1_555 1_555
C26 C6 1_555 1_555
H16 C26 1_555 1_555
Mn7 O1 1_555 1_555
Mn9 O4 1_555 1_555
Mn13 O3 1_555 1_555
O18 Mn1 1_555 1_555
O19 Mn1 1_555 1_555
O24 Mn1 1_555 1_555
C1 O2 1_555 1_555
C4 N1 1_555 1_555
C11 C12 1_555 1_555
O5 Mn7 1_555 1_555
C25 C26 1_555 1_555
C38 C39 1_555 1_555
C39 C40 1_555 1_555
H22 C40 1_555 1_555
O11 C38 1_555 1_555
C41 C39 1_555 1_555
H23 C41 1_555 1_555
O12 C38 1_555 1_555
Mn11 O11 1_555 1_555
Mn13 O12 1_555 1_555
C13 H7 1_555 1_555
C14 C13 1_555 1_555
C15 C14 1_555 1_555
C16 C15 1_555 1_555
N3 C13 1_555 1_555
C23 N3 1_555 1_555
H13 C23 1_555 1_555
C24 C15 1_555 1_555
Mn6 N3 1_555 1_555
C27 C28 1_555 1_555
C28 C29 1_555 1_555
C29 H17 1_555 1_555
O6 Mn6 1_555 1_555
C34 C28 1_555 1_555
H20 C34 1_555 1_555
O24 C27 1_555 1_555
O17 Mn6 1_555 1_555
O20 Mn6 1_555 1_555
O23 Mn6 1_555 1_555
C23 C24 1_555 1_555
C27 O6 1_555 1_555
C17 H9 1_555 1_555
C18 C17 1_555 1_555
H10 C18 1_555 1_555
C19 C18 1_555 1_555
N5 C17 1_555 1_555
C21 N5 1_555 1_555
H11 C21 1_555 1_555
C22 C19 1_555 1_555
C30 C31 1_555 1_555
C31 C32 1_555 1_555
H18 C32 1_555 1_555
O7 C30 1_555 1_555
C33 C31 1_555 1_555
H19 C33 1_555 1_555
O8 C30 1_555 1_555
Mn7 N5 1_555 1_555
C35 C36 1_555 1_555
C36 C37 1_555 1_555
C37 H21 1_555 1_555
O10 Mn7 1_555 1_555
C42 C36 1_555 1_555
H24 C42 1_555 1_555
O23 C35 1_555 1_555
Mn9 O7 1_555 1_555
Mn11 O8 1_555 1_555
O16 Mn7 1_555 1_555
O21 Mn7 1_555 1_555
C19 C20 1_555 1_555
C20 N6 1_555 1_555
C21 C22 1_555 1_555
C35 O10 1_555 1_555
C30_2 C31_2 1_555 1_555
C31_2 C32_2 1_555 1_555
H18_2 C32_2 1_555 1_555
O18 C30_2 1_555 1_555
C33_2 C31_2 1_555 1_555
H19_2 C33_2 1_555 1_555
O20 C30_2 1_555 1_555
C17_2 H9_2 1_555 1_555
C18_2 C17_2 1_555 1_555
H10_2 C18_2 1_555 1_555
C19_2 C18_2 1_555 1_555
N5_2 C17_2 1_555 1_555
C21_2 N5_2 1_555 1_555
H11_2 C21_2 1_555 1_555
C22_2 C19_2 1_555 1_555
Mn13 N5_2 1_555 1_555
C35_2 C36_2 1_555 1_555
C36_2 C37_2 1_555 1_555
C37_2 H21_2 1_555 1_555
O10_2 Mn13 1_555 1_555
C42_2 C36_2 1_555 1_555
H24_2 C42_2 1_555 1_555
O13 C35_2 1_555 1_555
Mn11 O13 1_555 1_555
O14 Mn13 1_555 1_555
O22 Mn13 1_555 1_555
C19_2 C20_2 1_555 1_555
C20_2 N6_2 1_555 1_555
C21_2 C22_2 1_555 1_555
C35_2 O10_2 1_555 1_555
Mn11 O14 1_555 1_555
C13_2 H7_2 1_555 1_555
C14_2 C13_2 1_555 1_555
C15_2 C14_2 1_555 1_555
C16_2 C15_2 1_555 1_555
N3_2 C13_2 1_555 1_555
C23_2 N3_2 1_555 1_555
H13_2 C23_2 1_555 1_555
C24_2 C15_2 1_555 1_555
Mn11 N3_2 1_555 1_555
C27_2 C28_2 1_555 1_555
C28_2 C29_2 1_555 1_555
C29_2 H17_2 1_555 1_555
O6_2 Mn11 1_555 1_555
C34_2 C28_2 1_555 1_555
H20_2 C34_2 1_555 1_555
O9 C27_2 1_555 1_555
Mn9 O9 1_555 1_555
C23_2 C24_2 1_555 1_555
C27_2 O6_2 1_555 1_555
Mn9 O14 1_555 1_555
C38_2 C39_2 1_555 1_555
C39_2 C40_2 1_555 1_555
H22_2 C40_2 1_555 1_555
O17 C38_2 1_555 1_555
C41_2 C39_2 1_555 1_555
H23_2 C41_2 1_555 1_555
O21 C38_2 1_555 1_555
C8_2 C9_2 1_555 1_555
C9_2 C10_2 1_555 1_555
H4_2 C10_2 1_555 1_555
O16 C8_2 1_555 1_555
C11_2 C9_2 1_555 1_555
H5_2 C11_2 1_555 1_555
O19 C8_2 1_555 1_555
C1_2 C2_2 1_555 1_555
C2_2 C3_2 1_555 1_555
C3_2 H1_2 1_555 1_555
C4_2 H2_2 1_555 1_555
C5_2 C4_2 1_555 1_555
C6_2 C5_2 1_555 1_555
C7_2 C6_2 1_555 1_555
O2_2 Mn9 1_555 1_555
N1_2 Mn9 1_555 1_555
C12_2 C2_2 1_555 1_555
H6_2 C12_2 1_555 1_555
O22 C1_2 1_555 1_555
N4_2 C7_2 1_555 1_555
C25_2 N1_2 1_555 1_555
H15_2 C25_2 1_555 1_555
C26_2 C6_2 1_555 1_555
H16_2 C26_2 1_555 1_555
C1_2 O2_2 1_555 1_555
C4_2 N1_2 1_555 1_555
C25_2 C26_2 1_555 1_555

#END
