
###############################################################################
#
# This file contains modified crystal structure data generated from the
# MOF subset of the Cambridge Structural Database (CSD) v543 
# hosted by the Cambridge Crystallographic Data Centre (CCDC).
#
# This work is licensed under the Creative Commons
# Attribution-NonCommercial-ShareAlike 4.0 International License.
# To view a copy of this license, visit
# http://creativecommons.org/licenses/by-nc-sa/4.0/
# or send a letter to
# Creative Commons, PO Box 1866, Mountain View, CA 94042, USA.
#
# CIF created using the CSD Python API on 29 September 2022
# The structure has been converted into the P1 space group
# The structure has a 3D framework
# The original CSD entry DAGJAZ is in the cubic crystal system
# The original CSD entry DAGJAZ is in a Sohncke space group
# The framework has been calculated to contain at least 10.0% void space
# The void calculation uses a probe of radius 1.32A, grid spacing 0.4
#
###############################################################################

data_DAGJAZ
_chemical_formula_moiety         '(C336 H216 Cd16 N48 O48)n'
_symmetry_cell_setting           triclinic
_symmetry_space_group_name_H-M   'P 1'
_symmetry_Int_Tables_number      1
_space_group_name_Hall           'P 1'
loop_
_symmetry_equiv_pos_site_id
_symmetry_equiv_pos_as_xyz
1 x,y,z
_cell_length_a                   22.1980(14)
_cell_length_b                   22.1980(13)
_cell_length_c                   22.1980(13)
_cell_angle_alpha                90
_cell_angle_beta                 90
_cell_angle_gamma                90
_cell_volume                     10938.1
loop_
_atom_site_label
_atom_site_type_symbol
_atom_site_fract_x
_atom_site_fract_y
_atom_site_fract_z
Cd7 Cd -0.0000 0.37466(2) 0.37466(2)
Cd5 Cd 0.37466(2) -0.0000 0.37466(2)
Cd9 Cd 0.62534(2) -0.0000 0.62534(2)
Cd1 Cd 0.37466(2) 0.62534(2) 1.0000
N1 N 0.3527(3) 0.7036(2) 0.9398(2)
N2 N 0.2991(3) 0.7560(2) 0.8748(3)
C1 C 0.2707(3) 0.8163(3) 0.7884(3)
H1 H 0.3039 0.8410 0.7949
C2 C 0.2587(3) 0.7677(3) 0.8266(3)
C3 C 0.3140(3) 0.7008(3) 0.8959(3)
H2 H 0.2984 0.6649 0.8808
C4 C 0.3640(3) 0.7634(3) 0.9479(3)
H3 H 0.3902 0.7790 0.9767
C5 C 0.3321(4) 0.7973(3) 0.9083(4)
H4 H 0.3323 0.8390 0.9045
N3 N 0.0602(2) 0.6473(3) 0.7036(2)
N4 N 0.1252(3) 0.7009(3) 0.7560(2)
C15 C 0.2116(3) 0.7293(3) 0.8163(3)
H10 H 0.2051 0.6961 0.8410
C16 C 0.1734(3) 0.7413(3) 0.7677(3)
C17 C 0.1041(3) 0.6860(3) 0.7008(3)
H11 H 0.1192 0.7016 0.6649
C18 C 0.0521(3) 0.6360(3) 0.7634(3)
H12 H 0.0233 0.6098 0.7790
C19 C 0.0917(4) 0.6679(4) 0.7973(3)
H13 H 0.0955 0.6677 0.8390
N5 N 0.2964(2) 0.9398(2) 0.6473(3)
N6 N 0.2440(2) 0.8748(3) 0.7009(3)
C20 C 0.1837(3) 0.7884(3) 0.7293(3)
H14 H 0.1590 0.7949 0.6961
C21 C 0.2323(3) 0.8266(3) 0.7413(3)
C22 C 0.2992(3) 0.8959(3) 0.6860(3)
H15 H 0.3351 0.8808 0.7016
C23 C 0.2366(3) 0.9479(3) 0.6360(3)
H16 H 0.2210 0.9767 0.6098
C24 C 0.2027(3) 0.9083(4) 0.6679(4)
H17 H 0.1610 0.9045 0.6677
Cd2 Cd -0.0000 0.62534(2) 0.62534(2)
Cd3 Cd 0.37466(2) 1.0000 0.62534(2)
O7 O 0.2961(3) 0.5688(2) 0.9327(2)
O8 O 0.3917(2) 0.5445(2) 0.94347(19)
C58 C 0.3410(4) 0.5374(3) 0.9191(3)
C59 C 0.3344(3) 0.4925(3) 0.8694(2)
C60 C 0.2793(3) 0.4768(3) 0.8462(3)
H40 H 0.2446 0.4946 0.8616
C61 C 0.3858(3) 0.4658(3) 0.8449(3)
H41 H 0.4236 0.4759 0.8597
C62 C 0.3809(3) 0.4244(3) 0.7990(3)
H42 H 0.4158 0.4074 0.7833
C63 C 0.2746(3) 0.4346(3) 0.8002(3)
H43 H 0.2368 0.4242 0.7855
C64 C 0.3261(3) 0.4076(3) 0.7756(3)
C65 C 0.3224(4) 0.3612(4) 0.7278(3)
C66 C 0.3637(4) 0.3145(3) 0.7240(3)
H44 H 0.3938 0.3113 0.7530
O9 O 0.5688(2) 0.0673(2) 0.7039(3)
O10 O 0.5445(2) 0.05653(19) 0.6083(2)
C67 C 0.5374(3) 0.0809(3) 0.6590(4)
C68 C 0.4925(3) 0.1306(2) 0.6656(3)
C69 C 0.4768(3) 0.1538(3) 0.7207(3)
H45 H 0.4946 0.1384 0.7554
C70 C 0.4658(3) 0.1551(3) 0.6142(3)
H46 H 0.4759 0.1403 0.5764
C71 C 0.4244(3) 0.2010(3) 0.6191(3)
H47 H 0.4074 0.2167 0.5842
C72 C 0.4346(3) 0.1998(3) 0.7254(3)
H48 H 0.4242 0.2145 0.7632
C73 C 0.4076(3) 0.2244(3) 0.6739(3)
C74 C 0.3612(4) 0.2722(3) 0.6776(4)
C75 C 0.3145(3) 0.2760(3) 0.6363(4)
H49 H 0.3113 0.2470 0.6062
O11 O 0.0673(2) 0.2961(3) 0.4312(2)
O12 O 0.05653(19) 0.3917(2) 0.4555(2)
C76 C 0.0809(3) 0.3410(4) 0.4626(3)
C77 C 0.1306(2) 0.3344(3) 0.5075(3)
C78 C 0.1538(3) 0.2793(3) 0.5232(3)
H50 H 0.1384 0.2446 0.5054
C79 C 0.1551(3) 0.3858(3) 0.5342(3)
H51 H 0.1403 0.4236 0.5241
C80 C 0.2010(3) 0.3809(3) 0.5756(3)
H52 H 0.2167 0.4158 0.5926
C81 C 0.1998(3) 0.2746(3) 0.5654(3)
H53 H 0.2145 0.2368 0.5758
C82 C 0.2244(3) 0.3261(3) 0.5924(3)
C83 C 0.2722(3) 0.3224(4) 0.6388(4)
C84 C 0.2760(3) 0.3637(4) 0.6855(3)
H54 H 0.2470 0.3938 0.6887
O15 O 0.4312(2) 0.9327(2) 0.7039(3)
O16 O 0.0673(2) 0.7039(3) 0.5688(2)
O19 O 0.4555(2) 0.94347(19) 0.6083(2)
O20 O 0.05653(19) 0.6083(2) 0.5445(2)
Cd4 Cd 1.0000 0.62534(2) 0.37466(2)
Cd1_2 Cd 0.62534(2) 0.37466(2) 1.0000
N1_2 N 0.6473(3) 0.2964(2) 0.9398(2)
N2_2 N 0.7009(3) 0.2440(2) 0.8748(3)
C1_2 C 0.7293(3) 0.1837(3) 0.7884(3)
H1_2 H 0.6961 0.1590 0.7949
C2_2 C 0.7413(3) 0.2323(3) 0.8266(3)
C3_2 C 0.6860(3) 0.2992(3) 0.8959(3)
H2_2 H 0.7016 0.3351 0.8808
C4_2 C 0.6360(3) 0.2366(3) 0.9479(3)
H3_2 H 0.6098 0.2210 0.9767
C5_2 C 0.6679(4) 0.2027(3) 0.9083(4)
H4_2 H 0.6677 0.1610 0.9045
N3_2 N 0.9398(2) 0.3527(3) 0.7036(2)
N4_2 N 0.8748(3) 0.2991(3) 0.7560(2)
C15_2 C 0.7884(3) 0.2707(3) 0.8163(3)
H10_2 H 0.7949 0.3039 0.8410
C16_2 C 0.8266(3) 0.2587(3) 0.7677(3)
C17_2 C 0.8959(3) 0.3140(3) 0.7008(3)
H11_2 H 0.8808 0.2984 0.6649
C18_2 C 0.9479(3) 0.3640(3) 0.7634(3)
H12_2 H 0.9767 0.3902 0.7790
C19_2 C 0.9083(4) 0.3321(4) 0.7973(3)
H13_2 H 0.9045 0.3323 0.8390
N5_2 N 0.7036(2) 0.0602(2) 0.6473(3)
N6_2 N 0.7560(2) 0.1252(3) 0.7009(3)
C20_2 C 0.8163(3) 0.2116(3) 0.7293(3)
H14_2 H 0.8410 0.2051 0.6961
C21_2 C 0.7677(3) 0.1734(3) 0.7413(3)
C22_2 C 0.7008(3) 0.1041(3) 0.6860(3)
H15_2 H 0.6649 0.1192 0.7016
C23_2 C 0.7634(3) 0.0521(3) 0.6360(3)
H16_2 H 0.7790 0.0233 0.6098
C24_2 C 0.7973(3) 0.0917(4) 0.6679(4)
H17_2 H 0.8390 0.0955 0.6677
Cd2_2 Cd 1.0000 0.37466(2) 0.62534(2)
O7_2 O 0.7039(3) 0.4312(2) 0.9327(2)
O8_2 O 0.6083(2) 0.4555(2) 0.94347(19)
C58_2 C 0.6590(4) 0.4626(3) 0.9191(3)
C59_2 C 0.6656(3) 0.5075(3) 0.8694(2)
C60_2 C 0.7207(3) 0.5232(3) 0.8462(3)
H40_2 H 0.7554 0.5054 0.8616
C61_2 C 0.6142(3) 0.5342(3) 0.8449(3)
H41_2 H 0.5764 0.5241 0.8597
C62_2 C 0.6191(3) 0.5756(3) 0.7990(3)
H42_2 H 0.5842 0.5926 0.7833
C63_2 C 0.7254(3) 0.5654(3) 0.8002(3)
H43_2 H 0.7632 0.5758 0.7855
C64_2 C 0.6739(3) 0.5924(3) 0.7756(3)
C65_2 C 0.6776(4) 0.6388(4) 0.7278(3)
C66_2 C 0.6363(4) 0.6855(3) 0.7240(3)
H44_2 H 0.6062 0.6887 0.7530
C67_2 C 0.4626(3) 0.9191(3) 0.6590(4)
C68_2 C 0.5075(3) 0.8694(2) 0.6656(3)
C69_2 C 0.5232(3) 0.8462(3) 0.7207(3)
H45_2 H 0.5054 0.8616 0.7554
C70_2 C 0.5342(3) 0.8449(3) 0.6142(3)
H46_2 H 0.5241 0.8597 0.5764
C71_2 C 0.5756(3) 0.7990(3) 0.6191(3)
H47_2 H 0.5926 0.7833 0.5842
C72_2 C 0.5654(3) 0.8002(3) 0.7254(3)
H48_2 H 0.5758 0.7855 0.7632
C73_2 C 0.5924(3) 0.7756(3) 0.6739(3)
C74_2 C 0.6388(4) 0.7278(3) 0.6776(4)
C75_2 C 0.6855(3) 0.7240(3) 0.6363(4)
H49_2 H 0.6887 0.7530 0.6062
O11_2 O 0.9327(2) 0.7039(3) 0.4312(2)
O12_2 O 0.94347(19) 0.6083(2) 0.4555(2)
C76_2 C 0.9191(3) 0.6590(4) 0.4626(3)
C77_2 C 0.8694(2) 0.6656(3) 0.5075(3)
C78_2 C 0.8462(3) 0.7207(3) 0.5232(3)
H50_2 H 0.8616 0.7554 0.5054
C79_2 C 0.8449(3) 0.6142(3) 0.5342(3)
H51_2 H 0.8597 0.5764 0.5241
C80_2 C 0.7990(3) 0.6191(3) 0.5756(3)
H52_2 H 0.7833 0.5842 0.5926
C81_2 C 0.8002(3) 0.7254(3) 0.5654(3)
H53_2 H 0.7855 0.7632 0.5758
C82_2 C 0.7756(3) 0.6739(3) 0.5924(3)
C83_2 C 0.7278(3) 0.6776(4) 0.6388(4)
C84_2 C 0.7240(3) 0.6363(4) 0.6855(3)
H54_2 H 0.7530 0.6062 0.6887
O16_2 O 0.9327(2) 0.2961(3) 0.5688(2)
O20_2 O 0.94347(19) 0.3917(2) 0.5445(2)
Cd5_2 Cd 0.62534(2) 1.0000 0.37466(2)
Cd1_3 Cd 0.37466(2) 0.37466(2) 0.0000
N1_3 N 0.3527(3) 0.2964(2) 0.0602(2)
N2_3 N 0.2991(3) 0.2440(2) 0.1252(3)
C1_3 C 0.2707(3) 0.1837(3) 0.2116(3)
H1_3 H 0.3039 0.1590 0.2051
C2_3 C 0.2587(3) 0.2323(3) 0.1734(3)
C3_3 C 0.3140(3) 0.2992(3) 0.1041(3)
H2_3 H 0.2984 0.3351 0.1192
C4_3 C 0.3640(3) 0.2366(3) 0.0521(3)
H3_3 H 0.3902 0.2210 0.0233
C5_3 C 0.3321(4) 0.2027(3) 0.0917(4)
H4_3 H 0.3323 0.1610 0.0955
N3_3 N 0.0602(2) 0.3527(3) 0.2964(2)
N4_3 N 0.1252(3) 0.2991(3) 0.2440(2)
C15_3 C 0.2116(3) 0.2707(3) 0.1837(3)
H10_3 H 0.2051 0.3039 0.1590
C16_3 C 0.1734(3) 0.2587(3) 0.2323(3)
C17_3 C 0.1041(3) 0.3140(3) 0.2992(3)
H11_3 H 0.1192 0.2984 0.3351
C18_3 C 0.0521(3) 0.3640(3) 0.2366(3)
H12_3 H 0.0233 0.3902 0.2210
C19_3 C 0.0917(4) 0.3321(4) 0.2027(3)
H13_3 H 0.0955 0.3323 0.1610
N5_3 N 0.2964(2) 0.0602(2) 0.3527(3)
N6_3 N 0.2440(2) 0.1252(3) 0.2991(3)
C20_3 C 0.1837(3) 0.2116(3) 0.2707(3)
H14_3 H 0.1590 0.2051 0.3039
C21_3 C 0.2323(3) 0.1734(3) 0.2587(3)
C22_3 C 0.2992(3) 0.1041(3) 0.3140(3)
H15_3 H 0.3351 0.1192 0.2984
C23_3 C 0.2366(3) 0.0521(3) 0.3640(3)
H16_3 H 0.2210 0.0233 0.3902
C24_3 C 0.2027(3) 0.0917(4) 0.3321(4)
H17_3 H 0.1610 0.0955 0.3323
O7_3 O 0.2961(3) 0.4312(2) 0.0673(2)
O8_3 O 0.3917(2) 0.4555(2) 0.05653(19)
C58_3 C 0.3410(4) 0.4626(3) 0.0809(3)
C59_3 C 0.3344(3) 0.5075(3) 0.1306(2)
C60_3 C 0.2793(3) 0.5232(3) 0.1538(3)
H40_3 H 0.2446 0.5054 0.1384
C61_3 C 0.3858(3) 0.5342(3) 0.1551(3)
H41_3 H 0.4236 0.5241 0.1403
C62_3 C 0.3809(3) 0.5756(3) 0.2010(3)
H42_3 H 0.4158 0.5926 0.2167
C63_3 C 0.2746(3) 0.5654(3) 0.1998(3)
H43_3 H 0.2368 0.5758 0.2145
C64_3 C 0.3261(3) 0.5924(3) 0.2244(3)
C65_3 C 0.3224(4) 0.6388(4) 0.2722(3)
C66_3 C 0.3637(4) 0.6855(3) 0.2760(3)
H44_3 H 0.3938 0.6887 0.2470
O9_2 O 0.5688(2) 0.9327(2) 0.2961(3)
O10_2 O 0.5445(2) 0.94347(19) 0.3917(2)
C67_3 C 0.5374(3) 0.9191(3) 0.3410(4)
C68_3 C 0.4925(3) 0.8694(2) 0.3344(3)
C69_3 C 0.4768(3) 0.8462(3) 0.2793(3)
H45_3 H 0.4946 0.8616 0.2446
C70_3 C 0.4658(3) 0.8449(3) 0.3858(3)
H46_3 H 0.4759 0.8597 0.4236
C71_3 C 0.4244(3) 0.7990(3) 0.3809(3)
H47_3 H 0.4074 0.7833 0.4158
C72_3 C 0.4346(3) 0.8002(3) 0.2746(3)
H48_3 H 0.4242 0.7855 0.2368
C73_3 C 0.4076(3) 0.7756(3) 0.3261(3)
C74_3 C 0.3612(4) 0.7278(3) 0.3224(4)
C75_3 C 0.3145(3) 0.7240(3) 0.3637(4)
H49_3 H 0.3113 0.7530 0.3938
C76_3 C 0.0809(3) 0.6590(4) 0.5374(3)
C77_3 C 0.1306(2) 0.6656(3) 0.4925(3)
C78_3 C 0.1538(3) 0.7207(3) 0.4768(3)
H50_3 H 0.1384 0.7554 0.4946
C79_3 C 0.1551(3) 0.6142(3) 0.4658(3)
H51_3 H 0.1403 0.5764 0.4759
C80_3 C 0.2010(3) 0.6191(3) 0.4244(3)
H52_3 H 0.2167 0.5842 0.4074
C81_3 C 0.1998(3) 0.7254(3) 0.4346(3)
H53_3 H 0.2145 0.7632 0.4242
C82_3 C 0.2244(3) 0.6739(3) 0.4076(3)
C83_3 C 0.2722(3) 0.6776(4) 0.3612(4)
C84_3 C 0.2760(3) 0.6363(4) 0.3145(3)
H54_3 H 0.2470 0.6062 0.3113
O15_2 O 0.4312(2) 0.0673(2) 0.2961(3)
O19_2 O 0.4555(2) 0.05653(19) 0.3917(2)
Cd1_4 Cd 0.62534(2) 0.62534(2) 0.0000
N1_4 N 0.6473(3) 0.7036(2) 0.0602(2)
N2_4 N 0.7009(3) 0.7560(2) 0.1252(3)
C1_4 C 0.7293(3) 0.8163(3) 0.2116(3)
H1_4 H 0.6961 0.8410 0.2051
C2_4 C 0.7413(3) 0.7677(3) 0.1734(3)
C3_4 C 0.6860(3) 0.7008(3) 0.1041(3)
H2_4 H 0.7016 0.6649 0.1192
C4_4 C 0.6360(3) 0.7634(3) 0.0521(3)
H3_4 H 0.6098 0.7790 0.0233
C5_4 C 0.6679(4) 0.7973(3) 0.0917(4)
H4_4 H 0.6677 0.8390 0.0955
N3_4 N 0.9398(2) 0.6473(3) 0.2964(2)
N4_4 N 0.8748(3) 0.7009(3) 0.2440(2)
C15_4 C 0.7884(3) 0.7293(3) 0.1837(3)
H10_4 H 0.7949 0.6961 0.1590
C16_4 C 0.8266(3) 0.7413(3) 0.2323(3)
C17_4 C 0.8959(3) 0.6860(3) 0.2992(3)
H11_4 H 0.8808 0.7016 0.3351
C18_4 C 0.9479(3) 0.6360(3) 0.2366(3)
H12_4 H 0.9767 0.6098 0.2210
C19_4 C 0.9083(4) 0.6679(4) 0.2027(3)
H13_4 H 0.9045 0.6677 0.1610
N5_4 N 0.7036(2) 0.9398(2) 0.3527(3)
N6_4 N 0.7560(2) 0.8748(3) 0.2991(3)
C20_4 C 0.8163(3) 0.7884(3) 0.2707(3)
H14_4 H 0.8410 0.7949 0.3039
C21_4 C 0.7677(3) 0.8266(3) 0.2587(3)
C22_4 C 0.7008(3) 0.8959(3) 0.3140(3)
H15_4 H 0.6649 0.8808 0.2984
C23_4 C 0.7634(3) 0.9479(3) 0.3640(3)
H16_4 H 0.7790 0.9767 0.3902
C24_4 C 0.7973(3) 0.9083(4) 0.3321(4)
H17_4 H 0.8390 0.9045 0.3323
O7_4 O 0.7039(3) 0.5688(2) 0.0673(2)
O8_4 O 0.6083(2) 0.5445(2) 0.05653(19)
C58_4 C 0.6590(4) 0.5374(3) 0.0809(3)
C59_4 C 0.6656(3) 0.4925(3) 0.1306(2)
C60_4 C 0.7207(3) 0.4768(3) 0.1538(3)
H40_4 H 0.7554 0.4946 0.1384
C61_4 C 0.6142(3) 0.4658(3) 0.1551(3)
H41_4 H 0.5764 0.4759 0.1403
C62_4 C 0.6191(3) 0.4244(3) 0.2010(3)
H42_4 H 0.5842 0.4074 0.2167
C63_4 C 0.7254(3) 0.4346(3) 0.1998(3)
H43_4 H 0.7632 0.4242 0.2145
C64_4 C 0.6739(3) 0.4076(3) 0.2244(3)
C65_4 C 0.6776(4) 0.3612(4) 0.2722(3)
C66_4 C 0.6363(4) 0.3145(3) 0.2760(3)
H44_4 H 0.6062 0.3113 0.2470
C67_4 C 0.4626(3) 0.0809(3) 0.3410(4)
C68_4 C 0.5075(3) 0.1306(2) 0.3344(3)
C69_4 C 0.5232(3) 0.1538(3) 0.2793(3)
H45_4 H 0.5054 0.1384 0.2446
C70_4 C 0.5342(3) 0.1551(3) 0.3858(3)
H46_4 H 0.5241 0.1403 0.4236
C71_4 C 0.5756(3) 0.2010(3) 0.3809(3)
H47_4 H 0.5926 0.2167 0.4158
C72_4 C 0.5654(3) 0.1998(3) 0.2746(3)
H48_4 H 0.5758 0.2145 0.2368
C73_4 C 0.5924(3) 0.2244(3) 0.3261(3)
C74_4 C 0.6388(4) 0.2722(3) 0.3224(4)
C75_4 C 0.6855(3) 0.2760(3) 0.3637(4)
H49_4 H 0.6887 0.2470 0.3938
C76_4 C 0.9191(3) 0.3410(4) 0.5374(3)
C77_4 C 0.8694(2) 0.3344(3) 0.4925(3)
C78_4 C 0.8462(3) 0.2793(3) 0.4768(3)
H50_4 H 0.8616 0.2446 0.4946
C79_4 C 0.8449(3) 0.3858(3) 0.4658(3)
H51_4 H 0.8597 0.4236 0.4759
C80_4 C 0.7990(3) 0.3809(3) 0.4244(3)
H52_4 H 0.7833 0.4158 0.4074
C81_4 C 0.8002(3) 0.2746(3) 0.4346(3)
H53_4 H 0.7855 0.2368 0.4242
C82_4 C 0.7756(3) 0.3261(3) 0.4076(3)
C83_4 C 0.7278(3) 0.3224(4) 0.3612(4)
C84_4 C 0.7240(3) 0.3637(4) 0.3145(3)
H54_4 H 0.7530 0.3938 0.3113
Cd3_2 Cd 0.37466(2) -0.0000 0.62534(2)
N13 N 0.3527(3) 0.0602(2) 0.7036(2)
O14 O 0.2961(3) 0.0673(2) 0.5688(2)
O18 O 0.3917(2) 0.05653(19) 0.5445(2)
Cd1_5 Cd 0.37466(2) 0.62534(2) 0.0000
O1 O 0.4312(2) 0.7039(3) 0.0673(2)
O2 O 0.4555(2) 0.6083(2) 0.05653(19)
C6 C 0.4626(3) 0.6590(4) 0.0809(3)
C7 C 0.5075(3) 0.6656(3) 0.1306(2)
C8 C 0.5232(3) 0.7207(3) 0.1538(3)
H5 H 0.5054 0.7554 0.1384
C9 C 0.5342(3) 0.6142(3) 0.1551(3)
H6 H 0.5241 0.5764 0.1403
C10 C 0.5756(3) 0.6191(3) 0.2010(3)
H7 H 0.5926 0.5842 0.2167
C11 C 0.5654(3) 0.7254(3) 0.1998(3)
H8 H 0.5758 0.7632 0.2145
C12 C 0.5924(3) 0.6739(3) 0.2244(3)
C13 C 0.6388(4) 0.6776(4) 0.2722(3)
C14 C 0.6855(3) 0.6363(4) 0.2760(3)
H9 H 0.6887 0.6062 0.2470
O3 O 0.9327(2) 0.4312(2) 0.2961(3)
O4 O 0.94347(19) 0.4555(2) 0.3917(2)
C25 C 0.9191(3) 0.4626(3) 0.3410(4)
C26 C 0.8694(2) 0.5075(3) 0.3344(3)
C27 C 0.8462(3) 0.5232(3) 0.2793(3)
H18 H 0.8616 0.5054 0.2446
C28 C 0.8449(3) 0.5342(3) 0.3858(3)
H19 H 0.8597 0.5241 0.4236
C29 C 0.7990(3) 0.5756(3) 0.3809(3)
H20 H 0.7833 0.5926 0.4158
C30 C 0.8002(3) 0.5654(3) 0.2746(3)
H21 H 0.7855 0.5758 0.2368
C31 C 0.7756(3) 0.5924(3) 0.3261(3)
C32 C 0.7278(3) 0.6388(4) 0.3224(4)
C33 C 0.7240(3) 0.6855(3) 0.3637(4)
H22 H 0.7530 0.6887 0.3938
O5 O 0.7039(3) 0.9327(2) 0.5688(2)
O6 O 0.6083(2) 0.94347(19) 0.5445(2)
C34 C 0.6590(4) 0.9191(3) 0.5374(3)
C35 C 0.6656(3) 0.8694(2) 0.4925(3)
C36 C 0.7207(3) 0.8462(3) 0.4768(3)
H23 H 0.7554 0.8616 0.4946
C37 C 0.6142(3) 0.8449(3) 0.4658(3)
H24 H 0.5764 0.8597 0.4759
C38 C 0.6191(3) 0.7990(3) 0.4244(3)
H25 H 0.5842 0.7833 0.4074
C39 C 0.7254(3) 0.8002(3) 0.4346(3)
H26 H 0.7632 0.7855 0.4242
C40 C 0.6739(3) 0.7756(3) 0.4076(3)
C41 C 0.6776(4) 0.7278(3) 0.3612(4)
C42 C 0.6363(4) 0.7240(3) 0.3145(3)
H27 H 0.6062 0.7530 0.3113
N7 N 0.2964(2) 0.6473(3) 0.0602(2)
N8 N 0.2440(2) 0.7009(3) 0.1252(3)
C43 C 0.1837(3) 0.7293(3) 0.2116(3)
H28 H 0.1590 0.6961 0.2051
C44 C 0.2323(3) 0.7413(3) 0.1734(3)
C45 C 0.2992(3) 0.6860(3) 0.1041(3)
H29 H 0.3351 0.7016 0.1192
C46 C 0.2366(3) 0.6360(3) 0.0521(3)
H30 H 0.2210 0.6098 0.0233
C47 C 0.2027(3) 0.6679(4) 0.0917(4)
H31 H 0.1610 0.6677 0.0955
N9 N 0.3527(3) 0.9398(2) 0.2964(2)
N10 N 0.2991(3) 0.8748(3) 0.2440(2)
C48 C 0.2707(3) 0.7884(3) 0.1837(3)
H32 H 0.3039 0.7949 0.1590
C49 C 0.2587(3) 0.8266(3) 0.2323(3)
C50 C 0.3140(3) 0.8959(3) 0.2992(3)
H33 H 0.2984 0.8808 0.3351
C51 C 0.3640(3) 0.9479(3) 0.2366(3)
H34 H 0.3902 0.9767 0.2210
C52 C 0.3321(4) 0.9083(4) 0.2027(3)
H35 H 0.3323 0.9045 0.1610
N11 N 0.0602(2) 0.7036(2) 0.3527(3)
N12 N 0.1252(3) 0.7560(2) 0.2991(3)
C53 C 0.2116(3) 0.8163(3) 0.2707(3)
H36 H 0.2051 0.8410 0.3039
C54 C 0.1734(3) 0.7677(3) 0.2587(3)
C55 C 0.1041(3) 0.7008(3) 0.3140(3)
H37 H 0.1192 0.6649 0.2984
C56 C 0.0521(3) 0.7634(3) 0.3640(3)
H38 H 0.0233 0.7790 0.3902
C57 C 0.0917(4) 0.7973(3) 0.3321(4)
H39 H 0.0955 0.8390 0.3323
Cd4_2 Cd -0.0000 0.62534(2) 0.37466(2)
Cd5_3 Cd 0.37466(2) 1.0000 0.37466(2)
Cd7_2 Cd 1.0000 0.37466(2) 0.37466(2)
Cd9_2 Cd 0.62534(2) 1.0000 0.62534(2)
Cd2_3 Cd 1.0000 0.62534(2) 0.62534(2)
N14 N 0.9398(2) 0.7036(2) 0.6473(3)
O13 O 0.9327(2) 0.5688(2) 0.7039(3)
O17 O 0.94347(19) 0.5445(2) 0.6083(2)
Cd2_4 Cd -0.0000 0.37466(2) 0.62534(2)
N14_2 N 0.0602(2) 0.2964(2) 0.6473(3)
O13_2 O 0.0673(2) 0.4312(2) 0.7039(3)
O17_2 O 0.05653(19) 0.4555(2) 0.6083(2)
Cd1_6 Cd 0.62534(2) 0.37466(2) 0.0000
O1_2 O 0.5688(2) 0.2961(3) 0.0673(2)
O2_2 O 0.5445(2) 0.3917(2) 0.05653(19)
C6_2 C 0.5374(3) 0.3410(4) 0.0809(3)
C7_2 C 0.4925(3) 0.3344(3) 0.1306(2)
C8_2 C 0.4768(3) 0.2793(3) 0.1538(3)
H5_2 H 0.4946 0.2446 0.1384
C9_2 C 0.4658(3) 0.3858(3) 0.1551(3)
H6_2 H 0.4759 0.4236 0.1403
C10_2 C 0.4244(3) 0.3809(3) 0.2010(3)
H7_2 H 0.4074 0.4158 0.2167
C11_2 C 0.4346(3) 0.2746(3) 0.1998(3)
H8_2 H 0.4242 0.2368 0.2145
C12_2 C 0.4076(3) 0.3261(3) 0.2244(3)
C13_2 C 0.3612(4) 0.3224(4) 0.2722(3)
C14_2 C 0.3145(3) 0.3637(4) 0.2760(3)
H9_2 H 0.3113 0.3938 0.2470
O3_2 O 0.0673(2) 0.5688(2) 0.2961(3)
O4_2 O 0.05653(19) 0.5445(2) 0.3917(2)
C25_2 C 0.0809(3) 0.5374(3) 0.3410(4)
C26_2 C 0.1306(2) 0.4925(3) 0.3344(3)
C27_2 C 0.1538(3) 0.4768(3) 0.2793(3)
H18_2 H 0.1384 0.4946 0.2446
C28_2 C 0.1551(3) 0.4658(3) 0.3858(3)
H19_2 H 0.1403 0.4759 0.4236
C29_2 C 0.2010(3) 0.4244(3) 0.3809(3)
H20_2 H 0.2167 0.4074 0.4158
C30_2 C 0.1998(3) 0.4346(3) 0.2746(3)
H21_2 H 0.2145 0.4242 0.2368
C31_2 C 0.2244(3) 0.4076(3) 0.3261(3)
C32_2 C 0.2722(3) 0.3612(4) 0.3224(4)
C33_2 C 0.2760(3) 0.3145(3) 0.3637(4)
H22_2 H 0.2470 0.3113 0.3938
C34_2 C 0.3410(4) 0.0809(3) 0.5374(3)
C35_2 C 0.3344(3) 0.1306(2) 0.4925(3)
C36_2 C 0.2793(3) 0.1538(3) 0.4768(3)
H23_2 H 0.2446 0.1384 0.4946
C37_2 C 0.3858(3) 0.1551(3) 0.4658(3)
H24_2 H 0.4236 0.1403 0.4759
C38_2 C 0.3809(3) 0.2010(3) 0.4244(3)
H25_2 H 0.4158 0.2167 0.4074
C39_2 C 0.2746(3) 0.1998(3) 0.4346(3)
H26_2 H 0.2368 0.2145 0.4242
C40_2 C 0.3261(3) 0.2244(3) 0.4076(3)
C41_2 C 0.3224(4) 0.2722(3) 0.3612(4)
C42_2 C 0.3637(4) 0.2760(3) 0.3145(3)
H27_2 H 0.3938 0.2470 0.3113
N7_2 N 0.7036(2) 0.3527(3) 0.0602(2)
N8_2 N 0.7560(2) 0.2991(3) 0.1252(3)
C43_2 C 0.8163(3) 0.2707(3) 0.2116(3)
H28_2 H 0.8410 0.3039 0.2051
C44_2 C 0.7677(3) 0.2587(3) 0.1734(3)
C45_2 C 0.7008(3) 0.3140(3) 0.1041(3)
H29_2 H 0.6649 0.2984 0.1192
C46_2 C 0.7634(3) 0.3640(3) 0.0521(3)
H30_2 H 0.7790 0.3902 0.0233
C47_2 C 0.7973(3) 0.3321(4) 0.0917(4)
H31_2 H 0.8390 0.3323 0.0955
N9_2 N 0.6473(3) 0.0602(2) 0.2964(2)
N10_2 N 0.7009(3) 0.1252(3) 0.2440(2)
C48_2 C 0.7293(3) 0.2116(3) 0.1837(3)
H32_2 H 0.6961 0.2051 0.1590
C49_2 C 0.7413(3) 0.1734(3) 0.2323(3)
C50_2 C 0.6860(3) 0.1041(3) 0.2992(3)
H33_2 H 0.7016 0.1192 0.3351
C51_2 C 0.6360(3) 0.0521(3) 0.2366(3)
H34_2 H 0.6098 0.0233 0.2210
C52_2 C 0.6679(4) 0.0917(4) 0.2027(3)
H35_2 H 0.6677 0.0955 0.1610
N11_2 N 0.9398(2) 0.2964(2) 0.3527(3)
N12_2 N 0.8748(3) 0.2440(2) 0.2991(3)
C53_2 C 0.7884(3) 0.1837(3) 0.2707(3)
H36_2 H 0.7949 0.1590 0.3039
C54_2 C 0.8266(3) 0.2323(3) 0.2587(3)
C55_2 C 0.8959(3) 0.2992(3) 0.3140(3)
H37_2 H 0.8808 0.3351 0.2984
C56_2 C 0.9479(3) 0.2366(3) 0.3640(3)
H38_2 H 0.9767 0.2210 0.3902
C57_2 C 0.9083(4) 0.2027(3) 0.3321(4)
H39_2 H 0.9045 0.1610 0.3323
Cd5_4 Cd 0.62534(2) -0.0000 0.37466(2)
N13_2 N 0.6473(3) 0.9398(2) 0.7036(2)
Cd1_7 Cd 0.37466(2) 0.37466(2) 1.0000
O1_3 O 0.4312(2) 0.2961(3) 0.9327(2)
O2_3 O 0.4555(2) 0.3917(2) 0.94347(19)
C6_3 C 0.4626(3) 0.3410(4) 0.9191(3)
C7_3 C 0.5075(3) 0.3344(3) 0.8694(2)
C8_3 C 0.5232(3) 0.2793(3) 0.8462(3)
H5_3 H 0.5054 0.2446 0.8616
C9_3 C 0.5342(3) 0.3858(3) 0.8449(3)
H6_3 H 0.5241 0.4236 0.8597
C10_3 C 0.5756(3) 0.3809(3) 0.7990(3)
H7_3 H 0.5926 0.4158 0.7833
C11_3 C 0.5654(3) 0.2746(3) 0.8002(3)
H8_3 H 0.5758 0.2368 0.7855
C12_3 C 0.5924(3) 0.3261(3) 0.7756(3)
C13_3 C 0.6388(4) 0.3224(4) 0.7278(3)
C14_3 C 0.6855(3) 0.3637(4) 0.7240(3)
H9_3 H 0.6887 0.3938 0.7530
C25_3 C 0.9191(3) 0.5374(3) 0.6590(4)
C26_3 C 0.8694(2) 0.4925(3) 0.6656(3)
C27_3 C 0.8462(3) 0.4768(3) 0.7207(3)
H18_3 H 0.8616 0.4946 0.7554
C28_3 C 0.8449(3) 0.4658(3) 0.6142(3)
H19_3 H 0.8597 0.4759 0.5764
C29_3 C 0.7990(3) 0.4244(3) 0.6191(3)
H20_3 H 0.7833 0.4074 0.5842
C30_3 C 0.8002(3) 0.4346(3) 0.7254(3)
H21_3 H 0.7855 0.4242 0.7632
C31_3 C 0.7756(3) 0.4076(3) 0.6739(3)
C32_3 C 0.7278(3) 0.3612(4) 0.6776(4)
C33_3 C 0.7240(3) 0.3145(3) 0.6363(4)
H22_3 H 0.7530 0.3113 0.6062
O5_2 O 0.7039(3) 0.0673(2) 0.4312(2)
O6_2 O 0.6083(2) 0.05653(19) 0.4555(2)
C34_3 C 0.6590(4) 0.0809(3) 0.4626(3)
C35_3 C 0.6656(3) 0.1306(2) 0.5075(3)
C36_3 C 0.7207(3) 0.1538(3) 0.5232(3)
H23_3 H 0.7554 0.1384 0.5054
C37_3 C 0.6142(3) 0.1551(3) 0.5342(3)
H24_3 H 0.5764 0.1403 0.5241
C38_3 C 0.6191(3) 0.2010(3) 0.5756(3)
H25_3 H 0.5842 0.2167 0.5926
C39_3 C 0.7254(3) 0.1998(3) 0.5654(3)
H26_3 H 0.7632 0.2145 0.5758
C40_3 C 0.6739(3) 0.2244(3) 0.5924(3)
C41_3 C 0.6776(4) 0.2722(3) 0.6388(4)
C42_3 C 0.6363(4) 0.2760(3) 0.6855(3)
H27_3 H 0.6062 0.2470 0.6887
N7_3 N 0.2964(2) 0.3527(3) 0.9398(2)
N8_3 N 0.2440(2) 0.2991(3) 0.8748(3)
C43_3 C 0.1837(3) 0.2707(3) 0.7884(3)
H28_3 H 0.1590 0.3039 0.7949
C44_3 C 0.2323(3) 0.2587(3) 0.8266(3)
C45_3 C 0.2992(3) 0.3140(3) 0.8959(3)
H29_3 H 0.3351 0.2984 0.8808
C46_3 C 0.2366(3) 0.3640(3) 0.9479(3)
H30_3 H 0.2210 0.3902 0.9767
C47_3 C 0.2027(3) 0.3321(4) 0.9083(4)
H31_3 H 0.1610 0.3323 0.9045
N10_3 N 0.2991(3) 0.1252(3) 0.7560(2)
C48_3 C 0.2707(3) 0.2116(3) 0.8163(3)
H32_3 H 0.3039 0.2051 0.8410
C49_3 C 0.2587(3) 0.1734(3) 0.7677(3)
C50_3 C 0.3140(3) 0.1041(3) 0.7008(3)
H33_3 H 0.2984 0.1192 0.6649
C51_3 C 0.3640(3) 0.0521(3) 0.7634(3)
H34_3 H 0.3902 0.0233 0.7790
C52_3 C 0.3321(4) 0.0917(4) 0.7973(3)
H35_3 H 0.3323 0.0955 0.8390
N12_3 N 0.1252(3) 0.2440(2) 0.7009(3)
C53_3 C 0.2116(3) 0.1837(3) 0.7293(3)
H36_3 H 0.2051 0.1590 0.6961
C54_3 C 0.1734(3) 0.2323(3) 0.7413(3)
C55_3 C 0.1041(3) 0.2992(3) 0.6860(3)
H37_3 H 0.1192 0.3351 0.7016
C56_3 C 0.0521(3) 0.2366(3) 0.6360(3)
H38_3 H 0.0233 0.2210 0.6098
C57_3 C 0.0917(4) 0.2027(3) 0.6679(4)
H39_3 H 0.0955 0.1610 0.6677
O14_2 O 0.2961(3) 0.9327(2) 0.4312(2)
O18_2 O 0.3917(2) 0.94347(19) 0.4555(2)
Cd1_8 Cd 0.62534(2) 0.62534(2) 1.0000
O1_4 O 0.5688(2) 0.7039(3) 0.9327(2)
O2_4 O 0.5445(2) 0.6083(2) 0.94347(19)
C6_4 C 0.5374(3) 0.6590(4) 0.9191(3)
C7_4 C 0.4925(3) 0.6656(3) 0.8694(2)
C8_4 C 0.4768(3) 0.7207(3) 0.8462(3)
H5_4 H 0.4946 0.7554 0.8616
C9_4 C 0.4658(3) 0.6142(3) 0.8449(3)
H6_4 H 0.4759 0.5764 0.8597
C10_4 C 0.4244(3) 0.6191(3) 0.7990(3)
H7_4 H 0.4074 0.5842 0.7833
C11_4 C 0.4346(3) 0.7254(3) 0.8002(3)
H8_4 H 0.4242 0.7632 0.7855
C12_4 C 0.4076(3) 0.6739(3) 0.7756(3)
C13_4 C 0.3612(4) 0.6776(4) 0.7278(3)
C14_4 C 0.3145(3) 0.6363(4) 0.7240(3)
H9_4 H 0.3113 0.6062 0.7530
C25_4 C 0.0809(3) 0.4626(3) 0.6590(4)
C26_4 C 0.1306(2) 0.5075(3) 0.6656(3)
C27_4 C 0.1538(3) 0.5232(3) 0.7207(3)
H18_4 H 0.1384 0.5054 0.7554
C28_4 C 0.1551(3) 0.5342(3) 0.6142(3)
H19_4 H 0.1403 0.5241 0.5764
C29_4 C 0.2010(3) 0.5756(3) 0.6191(3)
H20_4 H 0.2167 0.5926 0.5842
C30_4 C 0.1998(3) 0.5654(3) 0.7254(3)
H21_4 H 0.2145 0.5758 0.7632
C31_4 C 0.2244(3) 0.5924(3) 0.6739(3)
C32_4 C 0.2722(3) 0.6388(4) 0.6776(4)
C33_4 C 0.2760(3) 0.6855(3) 0.6363(4)
H22_4 H 0.2470 0.6887 0.6062
C34_4 C 0.3410(4) 0.9191(3) 0.4626(3)
C35_4 C 0.3344(3) 0.8694(2) 0.5075(3)
C36_4 C 0.2793(3) 0.8462(3) 0.5232(3)
H23_4 H 0.2446 0.8616 0.5054
C37_4 C 0.3858(3) 0.8449(3) 0.5342(3)
H24_4 H 0.4236 0.8597 0.5241
C38_4 C 0.3809(3) 0.7990(3) 0.5756(3)
H25_4 H 0.4158 0.7833 0.5926
C39_4 C 0.2746(3) 0.8002(3) 0.5654(3)
H26_4 H 0.2368 0.7855 0.5758
C40_4 C 0.3261(3) 0.7756(3) 0.5924(3)
C41_4 C 0.3224(4) 0.7278(3) 0.6388(4)
C42_4 C 0.3637(4) 0.7240(3) 0.6855(3)
H27_4 H 0.3938 0.7530 0.6887
N7_4 N 0.7036(2) 0.6473(3) 0.9398(2)
N8_4 N 0.7560(2) 0.7009(3) 0.8748(3)
C43_4 C 0.8163(3) 0.7293(3) 0.7884(3)
H28_4 H 0.8410 0.6961 0.7949
C44_4 C 0.7677(3) 0.7413(3) 0.8266(3)
C45_4 C 0.7008(3) 0.6860(3) 0.8959(3)
H29_4 H 0.6649 0.7016 0.8808
C46_4 C 0.7634(3) 0.6360(3) 0.9479(3)
H30_4 H 0.7790 0.6098 0.9767
C47_4 C 0.7973(3) 0.6679(4) 0.9083(4)
H31_4 H 0.8390 0.6677 0.9045
N10_4 N 0.7009(3) 0.8748(3) 0.7560(2)
C48_4 C 0.7293(3) 0.7884(3) 0.8163(3)
H32_4 H 0.6961 0.7949 0.8410
C49_4 C 0.7413(3) 0.8266(3) 0.7677(3)
C50_4 C 0.6860(3) 0.8959(3) 0.7008(3)
H33_4 H 0.7016 0.8808 0.6649
C51_4 C 0.6360(3) 0.9479(3) 0.7634(3)
H34_4 H 0.6098 0.9767 0.7790
C52_4 C 0.6679(4) 0.9083(4) 0.7973(3)
H35_4 H 0.6677 0.9045 0.8390
N12_4 N 0.8748(3) 0.7560(2) 0.7009(3)
C53_4 C 0.7884(3) 0.8163(3) 0.7293(3)
H36_4 H 0.7949 0.8410 0.6961
C54_4 C 0.8266(3) 0.7677(3) 0.7413(3)
C55_4 C 0.8959(3) 0.7008(3) 0.6860(3)
H37_4 H 0.8808 0.6649 0.7016
C56_4 C 0.9479(3) 0.7634(3) 0.6360(3)
H38_4 H 0.9767 0.7790 0.6098
C57_4 C 0.9083(4) 0.7973(3) 0.6679(4)
H39_4 H 0.9045 0.8390 0.6677
loop_
_geom_bond_atom_site_label_1
_geom_bond_atom_site_label_2
_geom_bond_site_symmetry_1
_geom_bond_site_symmetry_2
Cd1 N1 1_555 1_555
N1 C3 1_555 1_555
N2 C2 1_555 1_555
C1 H1 1_555 1_555
C2 C1 1_555 1_555
C3 N2 1_555 1_555
H2 C3 1_555 1_555
C4 N1 1_555 1_555
H3 C4 1_555 1_555
C5 N2 1_555 1_555
H4 C5 1_555 1_555
N3 C17 1_555 1_555
N4 C16 1_555 1_555
C15 C2 1_555 1_555
H10 C15 1_555 1_555
C16 C15 1_555 1_555
C17 N4 1_555 1_555
H11 C17 1_555 1_555
C18 N3 1_555 1_555
H12 C18 1_555 1_555
C19 N4 1_555 1_555
H13 C19 1_555 1_555
N5 C22 1_555 1_555
N6 C21 1_555 1_555
C20 C16 1_555 1_555
H14 C20 1_555 1_555
C21 C1 1_555 1_555
C22 N6 1_555 1_555
H15 C22 1_555 1_555
C23 N5 1_555 1_555
H16 C23 1_555 1_555
C24 N6 1_555 1_555
H17 C24 1_555 1_555
Cd2 N3 1_555 1_555
Cd3 N5 1_555 1_555
O7 Cd1 1_555 1_555
O8 Cd1 1_555 1_555
C58 O7 1_555 1_555
C59 C58 1_555 1_555
C60 C59 1_555 1_555
H40 C60 1_555 1_555
C61 C59 1_555 1_555
H41 C61 1_555 1_555
C62 C61 1_555 1_555
H42 C62 1_555 1_555
C63 C60 1_555 1_555
H43 C63 1_555 1_555
C64 C62 1_555 1_555
C65 C64 1_555 1_555
C66 C65 1_555 1_555
H44 C66 1_555 1_555
O9 C67 1_555 1_555
O10 C67 1_555 1_555
C67 C68 1_555 1_555
C68 C69 1_555 1_555
C69 H45 1_555 1_555
C70 C68 1_555 1_555
H46 C70 1_555 1_555
C71 C70 1_555 1_555
H47 C71 1_555 1_555
C72 C69 1_555 1_555
H48 C72 1_555 1_555
C73 C71 1_555 1_555
C74 C66 1_555 1_555
C75 C74 1_555 1_555
H49 C75 1_555 1_555
O11 C76 1_555 1_555
O12 C76 1_555 1_555
C76 C77 1_555 1_555
C77 C78 1_555 1_555
C78 H50 1_555 1_555
C79 C77 1_555 1_555
H51 C79 1_555 1_555
C80 C79 1_555 1_555
H52 C80 1_555 1_555
C81 C78 1_555 1_555
H53 C81 1_555 1_555
C82 C80 1_555 1_555
C83 C75 1_555 1_555
C84 C65 1_555 1_555
H54 C84 1_555 1_555
Cd7 O11 1_555 1_555
Cd9 O9 1_555 1_555
O15 Cd3 1_555 1_555
O16 Cd2 1_555 1_555
O19 Cd3 1_555 1_555
O20 Cd2 1_555 1_555
C4 C5 1_555 1_555
C18 C19 1_555 1_555
C20 C21 1_555 1_555
C23 C24 1_555 1_555
O8 C58 1_555 1_555
C63 C64 1_555 1_555
O10 Cd9 1_555 1_555
C72 C73 1_555 1_555
C73 C74 1_555 1_555
O12 Cd7 1_555 1_555
C81 C82 1_555 1_555
C82 C83 1_555 1_555
C83 C84 1_555 1_555
Cd1_2 N1_2 1_555 1_555
N1_2 C3_2 1_555 1_555
N2_2 C2_2 1_555 1_555
C1_2 H1_2 1_555 1_555
C2_2 C1_2 1_555 1_555
C3_2 N2_2 1_555 1_555
H2_2 C3_2 1_555 1_555
C4_2 N1_2 1_555 1_555
H3_2 C4_2 1_555 1_555
C5_2 N2_2 1_555 1_555
H4_2 C5_2 1_555 1_555
N3_2 C17_2 1_555 1_555
N4_2 C16_2 1_555 1_555
C15_2 C2_2 1_555 1_555
H10_2 C15_2 1_555 1_555
C16_2 C15_2 1_555 1_555
C17_2 N4_2 1_555 1_555
H11_2 C17_2 1_555 1_555
C18_2 N3_2 1_555 1_555
H12_2 C18_2 1_555 1_555
C19_2 N4_2 1_555 1_555
H13_2 C19_2 1_555 1_555
N5_2 C22_2 1_555 1_555
N6_2 C21_2 1_555 1_555
C20_2 C16_2 1_555 1_555
H14_2 C20_2 1_555 1_555
C21_2 C1_2 1_555 1_555
C22_2 N6_2 1_555 1_555
H15_2 C22_2 1_555 1_555
C23_2 N5_2 1_555 1_555
H16_2 C23_2 1_555 1_555
C24_2 N6_2 1_555 1_555
H17_2 C24_2 1_555 1_555
Cd2_2 N3_2 1_555 1_555
Cd9 N5_2 1_555 1_555
O7_2 Cd1_2 1_555 1_555
O8_2 Cd1_2 1_555 1_555
C58_2 O7_2 1_555 1_555
C59_2 C58_2 1_555 1_555
C60_2 C59_2 1_555 1_555
H40_2 C60_2 1_555 1_555
C61_2 C59_2 1_555 1_555
H41_2 C61_2 1_555 1_555
C62_2 C61_2 1_555 1_555
H42_2 C62_2 1_555 1_555
C63_2 C60_2 1_555 1_555
H43_2 C63_2 1_555 1_555
C64_2 C62_2 1_555 1_555
C65_2 C64_2 1_555 1_555
C66_2 C65_2 1_555 1_555
H44_2 C66_2 1_555 1_555
O15 C67_2 1_555 1_555
O19 C67_2 1_555 1_555
C67_2 C68_2 1_555 1_555
C68_2 C69_2 1_555 1_555
C69_2 H45_2 1_555 1_555
C70_2 C68_2 1_555 1_555
H46_2 C70_2 1_555 1_555
C71_2 C70_2 1_555 1_555
H47_2 C71_2 1_555 1_555
C72_2 C69_2 1_555 1_555
H48_2 C72_2 1_555 1_555
C73_2 C71_2 1_555 1_555
C74_2 C66_2 1_555 1_555
C75_2 C74_2 1_555 1_555
H49_2 C75_2 1_555 1_555
O11_2 C76_2 1_555 1_555
O12_2 C76_2 1_555 1_555
C76_2 C77_2 1_555 1_555
C77_2 C78_2 1_555 1_555
C78_2 H50_2 1_555 1_555
C79_2 C77_2 1_555 1_555
H51_2 C79_2 1_555 1_555
C80_2 C79_2 1_555 1_555
H52_2 C80_2 1_555 1_555
C81_2 C78_2 1_555 1_555
H53_2 C81_2 1_555 1_555
C82_2 C80_2 1_555 1_555
C83_2 C75_2 1_555 1_555
C84_2 C65_2 1_555 1_555
H54_2 C84_2 1_555 1_555
Cd4 O11_2 1_555 1_555
O16_2 Cd2_2 1_555 1_555
O20_2 Cd2_2 1_555 1_555
C4_2 C5_2 1_555 1_555
C18_2 C19_2 1_555 1_555
C20_2 C21_2 1_555 1_555
C23_2 C24_2 1_555 1_555
O8_2 C58_2 1_555 1_555
C63_2 C64_2 1_555 1_555
C72_2 C73_2 1_555 1_555
C73_2 C74_2 1_555 1_555
O12_2 Cd4 1_555 1_555
C81_2 C82_2 1_555 1_555
C82_2 C83_2 1_555 1_555
C83_2 C84_2 1_555 1_555
Cd1_3 N1_3 1_555 1_555
N1_3 C3_3 1_555 1_555
N2_3 C2_3 1_555 1_555
C1_3 H1_3 1_555 1_555
C2_3 C1_3 1_555 1_555
C3_3 N2_3 1_555 1_555
H2_3 C3_3 1_555 1_555
C4_3 N1_3 1_555 1_555
H3_3 C4_3 1_555 1_555
C5_3 N2_3 1_555 1_555
H4_3 C5_3 1_555 1_555
N3_3 C17_3 1_555 1_555
N4_3 C16_3 1_555 1_555
C15_3 C2_3 1_555 1_555
H10_3 C15_3 1_555 1_555
C16_3 C15_3 1_555 1_555
C17_3 N4_3 1_555 1_555
H11_3 C17_3 1_555 1_555
C18_3 N3_3 1_555 1_555
H12_3 C18_3 1_555 1_555
C19_3 N4_3 1_555 1_555
H13_3 C19_3 1_555 1_555
N5_3 C22_3 1_555 1_555
N6_3 C21_3 1_555 1_555
C20_3 C16_3 1_555 1_555
H14_3 C20_3 1_555 1_555
C21_3 C1_3 1_555 1_555
C22_3 N6_3 1_555 1_555
H15_3 C22_3 1_555 1_555
C23_3 N5_3 1_555 1_555
H16_3 C23_3 1_555 1_555
C24_3 N6_3 1_555 1_555
H17_3 C24_3 1_555 1_555
Cd7 N3_3 1_555 1_555
Cd5 N5_3 1_555 1_555
O7_3 Cd1_3 1_555 1_555
O8_3 Cd1_3 1_555 1_555
C58_3 O7_3 1_555 1_555
C59_3 C58_3 1_555 1_555
C60_3 C59_3 1_555 1_555
H40_3 C60_3 1_555 1_555
C61_3 C59_3 1_555 1_555
H41_3 C61_3 1_555 1_555
C62_3 C61_3 1_555 1_555
H42_3 C62_3 1_555 1_555
C63_3 C60_3 1_555 1_555
H43_3 C63_3 1_555 1_555
C64_3 C62_3 1_555 1_555
C65_3 C64_3 1_555 1_555
C66_3 C65_3 1_555 1_555
H44_3 C66_3 1_555 1_555
O9_2 C67_3 1_555 1_555
O10_2 C67_3 1_555 1_555
C67_3 C68_3 1_555 1_555
C68_3 C69_3 1_555 1_555
C69_3 H45_3 1_555 1_555
C70_3 C68_3 1_555 1_555
H46_3 C70_3 1_555 1_555
C71_3 C70_3 1_555 1_555
H47_3 C71_3 1_555 1_555
C72_3 C69_3 1_555 1_555
H48_3 C72_3 1_555 1_555
C73_3 C71_3 1_555 1_555
C74_3 C66_3 1_555 1_555
C75_3 C74_3 1_555 1_555
H49_3 C75_3 1_555 1_555
O16 C76_3 1_555 1_555
O20 C76_3 1_555 1_555
C76_3 C77_3 1_555 1_555
C77_3 C78_3 1_555 1_555
C78_3 H50_3 1_555 1_555
C79_3 C77_3 1_555 1_555
H51_3 C79_3 1_555 1_555
C80_3 C79_3 1_555 1_555
H52_3 C80_3 1_555 1_555
C81_3 C78_3 1_555 1_555
H53_3 C81_3 1_555 1_555
C82_3 C80_3 1_555 1_555
C83_3 C75_3 1_555 1_555
C84_3 C65_3 1_555 1_555
H54_3 C84_3 1_555 1_555
Cd5_2 O9_2 1_555 1_555
O15_2 Cd5 1_555 1_555
O19_2 Cd5 1_555 1_555
C4_3 C5_3 1_555 1_555
C18_3 C19_3 1_555 1_555
C20_3 C21_3 1_555 1_555
C23_3 C24_3 1_555 1_555
O8_3 C58_3 1_555 1_555
C63_3 C64_3 1_555 1_555
O10_2 Cd5_2 1_555 1_555
C72_3 C73_3 1_555 1_555
C73_3 C74_3 1_555 1_555
C81_3 C82_3 1_555 1_555
C82_3 C83_3 1_555 1_555
C83_3 C84_3 1_555 1_555
Cd1_4 N1_4 1_555 1_555
N1_4 C3_4 1_555 1_555
N2_4 C2_4 1_555 1_555
C1_4 H1_4 1_555 1_555
C2_4 C1_4 1_555 1_555
C3_4 N2_4 1_555 1_555
H2_4 C3_4 1_555 1_555
C4_4 N1_4 1_555 1_555
H3_4 C4_4 1_555 1_555
C5_4 N2_4 1_555 1_555
H4_4 C5_4 1_555 1_555
N3_4 C17_4 1_555 1_555
N4_4 C16_4 1_555 1_555
C15_4 C2_4 1_555 1_555
H10_4 C15_4 1_555 1_555
C16_4 C15_4 1_555 1_555
C17_4 N4_4 1_555 1_555
H11_4 C17_4 1_555 1_555
C18_4 N3_4 1_555 1_555
H12_4 C18_4 1_555 1_555
C19_4 N4_4 1_555 1_555
H13_4 C19_4 1_555 1_555
N5_4 C22_4 1_555 1_555
N6_4 C21_4 1_555 1_555
C20_4 C16_4 1_555 1_555
H14_4 C20_4 1_555 1_555
C21_4 C1_4 1_555 1_555
C22_4 N6_4 1_555 1_555
H15_4 C22_4 1_555 1_555
C23_4 N5_4 1_555 1_555
H16_4 C23_4 1_555 1_555
C24_4 N6_4 1_555 1_555
H17_4 C24_4 1_555 1_555
Cd4 N3_4 1_555 1_555
Cd5_2 N5_4 1_555 1_555
O7_4 Cd1_4 1_555 1_555
O8_4 Cd1_4 1_555 1_555
C58_4 O7_4 1_555 1_555
C59_4 C58_4 1_555 1_555
C60_4 C59_4 1_555 1_555
H40_4 C60_4 1_555 1_555
C61_4 C59_4 1_555 1_555
H41_4 C61_4 1_555 1_555
C62_4 C61_4 1_555 1_555
H42_4 C62_4 1_555 1_555
C63_4 C60_4 1_555 1_555
H43_4 C63_4 1_555 1_555
C64_4 C62_4 1_555 1_555
C65_4 C64_4 1_555 1_555
C66_4 C65_4 1_555 1_555
H44_4 C66_4 1_555 1_555
O15_2 C67_4 1_555 1_555
O19_2 C67_4 1_555 1_555
C67_4 C68_4 1_555 1_555
C68_4 C69_4 1_555 1_555
C69_4 H45_4 1_555 1_555
C70_4 C68_4 1_555 1_555
H46_4 C70_4 1_555 1_555
C71_4 C70_4 1_555 1_555
H47_4 C71_4 1_555 1_555
C72_4 C69_4 1_555 1_555
H48_4 C72_4 1_555 1_555
C73_4 C71_4 1_555 1_555
C74_4 C66_4 1_555 1_555
C75_4 C74_4 1_555 1_555
H49_4 C75_4 1_555 1_555
O16_2 C76_4 1_555 1_555
O20_2 C76_4 1_555 1_555
C76_4 C77_4 1_555 1_555
C77_4 C78_4 1_555 1_555
C78_4 H50_4 1_555 1_555
C79_4 C77_4 1_555 1_555
H51_4 C79_4 1_555 1_555
C80_4 C79_4 1_555 1_555
H52_4 C80_4 1_555 1_555
C81_4 C78_4 1_555 1_555
H53_4 C81_4 1_555 1_555
C82_4 C80_4 1_555 1_555
C83_4 C75_4 1_555 1_555
C84_4 C65_4 1_555 1_555
H54_4 C84_4 1_555 1_555
C4_4 C5_4 1_555 1_555
C18_4 C19_4 1_555 1_555
C20_4 C21_4 1_555 1_555
C23_4 C24_4 1_555 1_555
O8_4 C58_4 1_555 1_555
C63_4 C64_4 1_555 1_555
C72_4 C73_4 1_555 1_555
C73_4 C74_4 1_555 1_555
C81_4 C82_4 1_555 1_555
C82_4 C83_4 1_555 1_555
C83_4 C84_4 1_555 1_555
N13 Cd3_2 1_555 1_555
O14 Cd3_2 1_555 1_555
O18 Cd3_2 1_555 1_555
O1 Cd1_5 1_555 1_555
O2 Cd1_5 1_555 1_555
C6 O1 1_555 1_555
C7 C6 1_555 1_555
C8 C7 1_555 1_555
H5 C8 1_555 1_555
C9 C7 1_555 1_555
H6 C9 1_555 1_555
C10 C9 1_555 1_555
H7 C10 1_555 1_555
C11 C8 1_555 1_555
H8 C11 1_555 1_555
C12 C10 1_555 1_555
C13 C12 1_555 1_555
C14 C13 1_555 1_555
H9 C14 1_555 1_555
O3 C25 1_555 1_555
O4 C25 1_555 1_555
C25 C26 1_555 1_555
C26 C27 1_555 1_555
C27 H18 1_555 1_555
C28 C26 1_555 1_555
H19 C28 1_555 1_555
C29 C28 1_555 1_555
H20 C29 1_555 1_555
C30 C27 1_555 1_555
H21 C30 1_555 1_555
C31 C29 1_555 1_555
C32 C14 1_555 1_555
C33 C32 1_555 1_555
H22 C33 1_555 1_555
O5 C34 1_555 1_555
O6 C34 1_555 1_555
C34 C35 1_555 1_555
C35 C36 1_555 1_555
C36 H23 1_555 1_555
C37 C35 1_555 1_555
H24 C37 1_555 1_555
C38 C37 1_555 1_555
H25 C38 1_555 1_555
C39 C36 1_555 1_555
H26 C39 1_555 1_555
C40 C38 1_555 1_555
C41 C33 1_555 1_555
C42 C13 1_555 1_555
H27 C42 1_555 1_555
N7 Cd1_5 1_555 1_555
N8 C44 1_555 1_555
C43 H28 1_555 1_555
C44 C43 1_555 1_555
C45 N7 1_555 1_555
H29 C45 1_555 1_555
C46 N7 1_555 1_555
H30 C46 1_555 1_555
C47 N8 1_555 1_555
H31 C47 1_555 1_555
N9 C50 1_555 1_555
N10 C49 1_555 1_555
C48 C44 1_555 1_555
H32 C48 1_555 1_555
C49 C48 1_555 1_555
C50 N10 1_555 1_555
H33 C50 1_555 1_555
C51 N9 1_555 1_555
H34 C51 1_555 1_555
C52 N10 1_555 1_555
H35 C52 1_555 1_555
N11 C55 1_555 1_555
N12 C54 1_555 1_555
C53 C49 1_555 1_555
H36 C53 1_555 1_555
C54 C43 1_555 1_555
C55 N12 1_555 1_555
H37 C55 1_555 1_555
C56 N11 1_555 1_555
H38 C56 1_555 1_555
C57 N12 1_555 1_555
H39 C57 1_555 1_555
Cd4_2 N11 1_555 1_555
Cd5_3 N9 1_555 1_555
Cd7_2 O3 1_555 1_555
Cd9_2 O5 1_555 1_555
O2 C6 1_555 1_555
C11 C12 1_555 1_555
O4 Cd7_2 1_555 1_555
C30 C31 1_555 1_555
C31 C32 1_555 1_555
O6 Cd9_2 1_555 1_555
C39 C40 1_555 1_555
C40 C41 1_555 1_555
C41 C42 1_555 1_555
N8 C45 1_555 1_555
C46 C47 1_555 1_555
C51 C52 1_555 1_555
C53 C54 1_555 1_555
C56 C57 1_555 1_555
N14 Cd2_3 1_555 1_555
O13 Cd2_3 1_555 1_555
O17 Cd2_3 1_555 1_555
N14_2 Cd2_4 1_555 1_555
O13_2 Cd2_4 1_555 1_555
O17_2 Cd2_4 1_555 1_555
O1_2 Cd1_6 1_555 1_555
O2_2 Cd1_6 1_555 1_555
C6_2 O1_2 1_555 1_555
C7_2 C6_2 1_555 1_555
C8_2 C7_2 1_555 1_555
H5_2 C8_2 1_555 1_555
C9_2 C7_2 1_555 1_555
H6_2 C9_2 1_555 1_555
C10_2 C9_2 1_555 1_555
H7_2 C10_2 1_555 1_555
C11_2 C8_2 1_555 1_555
H8_2 C11_2 1_555 1_555
C12_2 C10_2 1_555 1_555
C13_2 C12_2 1_555 1_555
C14_2 C13_2 1_555 1_555
H9_2 C14_2 1_555 1_555
O3_2 C25_2 1_555 1_555
O4_2 C25_2 1_555 1_555
C25_2 C26_2 1_555 1_555
C26_2 C27_2 1_555 1_555
C27_2 H18_2 1_555 1_555
C28_2 C26_2 1_555 1_555
H19_2 C28_2 1_555 1_555
C29_2 C28_2 1_555 1_555
H20_2 C29_2 1_555 1_555
C30_2 C27_2 1_555 1_555
H21_2 C30_2 1_555 1_555
C31_2 C29_2 1_555 1_555
C32_2 C14_2 1_555 1_555
C33_2 C32_2 1_555 1_555
H22_2 C33_2 1_555 1_555
O14 C34_2 1_555 1_555
O18 C34_2 1_555 1_555
C34_2 C35_2 1_555 1_555
C35_2 C36_2 1_555 1_555
C36_2 H23_2 1_555 1_555
C37_2 C35_2 1_555 1_555
H24_2 C37_2 1_555 1_555
C38_2 C37_2 1_555 1_555
H25_2 C38_2 1_555 1_555
C39_2 C36_2 1_555 1_555
H26_2 C39_2 1_555 1_555
C40_2 C38_2 1_555 1_555
C41_2 C33_2 1_555 1_555
C42_2 C13_2 1_555 1_555
H27_2 C42_2 1_555 1_555
N7_2 Cd1_6 1_555 1_555
N8_2 C44_2 1_555 1_555
C43_2 H28_2 1_555 1_555
C44_2 C43_2 1_555 1_555
C45_2 N7_2 1_555 1_555
H29_2 C45_2 1_555 1_555
C46_2 N7_2 1_555 1_555
H30_2 C46_2 1_555 1_555
C47_2 N8_2 1_555 1_555
H31_2 C47_2 1_555 1_555
N9_2 C50_2 1_555 1_555
N10_2 C49_2 1_555 1_555
C48_2 C44_2 1_555 1_555
H32_2 C48_2 1_555 1_555
C49_2 C48_2 1_555 1_555
C50_2 N10_2 1_555 1_555
H33_2 C50_2 1_555 1_555
C51_2 N9_2 1_555 1_555
H34_2 C51_2 1_555 1_555
C52_2 N10_2 1_555 1_555
H35_2 C52_2 1_555 1_555
N11_2 C55_2 1_555 1_555
N12_2 C54_2 1_555 1_555
C53_2 C49_2 1_555 1_555
H36_2 C53_2 1_555 1_555
C54_2 C43_2 1_555 1_555
C55_2 N12_2 1_555 1_555
H37_2 C55_2 1_555 1_555
C56_2 N11_2 1_555 1_555
H38_2 C56_2 1_555 1_555
C57_2 N12_2 1_555 1_555
H39_2 C57_2 1_555 1_555
Cd7_2 N11_2 1_555 1_555
Cd5_4 N9_2 1_555 1_555
Cd4_2 O3_2 1_555 1_555
O2_2 C6_2 1_555 1_555
C11_2 C12_2 1_555 1_555
O4_2 Cd4_2 1_555 1_555
C30_2 C31_2 1_555 1_555
C31_2 C32_2 1_555 1_555
C39_2 C40_2 1_555 1_555
C40_2 C41_2 1_555 1_555
C41_2 C42_2 1_555 1_555
N8_2 C45_2 1_555 1_555
C46_2 C47_2 1_555 1_555
C51_2 C52_2 1_555 1_555
C53_2 C54_2 1_555 1_555
C56_2 C57_2 1_555 1_555
N13_2 Cd9_2 1_555 1_555
O1_3 Cd1_7 1_555 1_555
O2_3 Cd1_7 1_555 1_555
C6_3 O1_3 1_555 1_555
C7_3 C6_3 1_555 1_555
C8_3 C7_3 1_555 1_555
H5_3 C8_3 1_555 1_555
C9_3 C7_3 1_555 1_555
H6_3 C9_3 1_555 1_555
C10_3 C9_3 1_555 1_555
H7_3 C10_3 1_555 1_555
C11_3 C8_3 1_555 1_555
H8_3 C11_3 1_555 1_555
C12_3 C10_3 1_555 1_555
C13_3 C12_3 1_555 1_555
C14_3 C13_3 1_555 1_555
H9_3 C14_3 1_555 1_555
O13 C25_3 1_555 1_555
O17 C25_3 1_555 1_555
C25_3 C26_3 1_555 1_555
C26_3 C27_3 1_555 1_555
C27_3 H18_3 1_555 1_555
C28_3 C26_3 1_555 1_555
H19_3 C28_3 1_555 1_555
C29_3 C28_3 1_555 1_555
H20_3 C29_3 1_555 1_555
C30_3 C27_3 1_555 1_555
H21_3 C30_3 1_555 1_555
C31_3 C29_3 1_555 1_555
C32_3 C14_3 1_555 1_555
C33_3 C32_3 1_555 1_555
H22_3 C33_3 1_555 1_555
O5_2 C34_3 1_555 1_555
O6_2 C34_3 1_555 1_555
C34_3 C35_3 1_555 1_555
C35_3 C36_3 1_555 1_555
C36_3 H23_3 1_555 1_555
C37_3 C35_3 1_555 1_555
H24_3 C37_3 1_555 1_555
C38_3 C37_3 1_555 1_555
H25_3 C38_3 1_555 1_555
C39_3 C36_3 1_555 1_555
H26_3 C39_3 1_555 1_555
C40_3 C38_3 1_555 1_555
C41_3 C33_3 1_555 1_555
C42_3 C13_3 1_555 1_555
H27_3 C42_3 1_555 1_555
N7_3 Cd1_7 1_555 1_555
N8_3 C44_3 1_555 1_555
C43_3 H28_3 1_555 1_555
C44_3 C43_3 1_555 1_555
C45_3 N7_3 1_555 1_555
H29_3 C45_3 1_555 1_555
C46_3 N7_3 1_555 1_555
H30_3 C46_3 1_555 1_555
C47_3 N8_3 1_555 1_555
H31_3 C47_3 1_555 1_555
N13 C50_3 1_555 1_555
N10_3 C49_3 1_555 1_555
C48_3 C44_3 1_555 1_555
H32_3 C48_3 1_555 1_555
C49_3 C48_3 1_555 1_555
C50_3 N10_3 1_555 1_555
H33_3 C50_3 1_555 1_555
C51_3 N13 1_555 1_555
H34_3 C51_3 1_555 1_555
C52_3 N10_3 1_555 1_555
H35_3 C52_3 1_555 1_555
N14_2 C55_3 1_555 1_555
N12_3 C54_3 1_555 1_555
C53_3 C49_3 1_555 1_555
H36_3 C53_3 1_555 1_555
C54_3 C43_3 1_555 1_555
C55_3 N12_3 1_555 1_555
H37_3 C55_3 1_555 1_555
C56_3 N14_2 1_555 1_555
H38_3 C56_3 1_555 1_555
C57_3 N12_3 1_555 1_555
H39_3 C57_3 1_555 1_555
Cd5_4 O5_2 1_555 1_555
O2_3 C6_3 1_555 1_555
C11_3 C12_3 1_555 1_555
C30_3 C31_3 1_555 1_555
C31_3 C32_3 1_555 1_555
O6_2 Cd5_4 1_555 1_555
C39_3 C40_3 1_555 1_555
C40_3 C41_3 1_555 1_555
C41_3 C42_3 1_555 1_555
N8_3 C45_3 1_555 1_555
C46_3 C47_3 1_555 1_555
C51_3 C52_3 1_555 1_555
C53_3 C54_3 1_555 1_555
C56_3 C57_3 1_555 1_555
O14_2 Cd5_3 1_555 1_555
O18_2 Cd5_3 1_555 1_555
O1_4 Cd1_8 1_555 1_555
O2_4 Cd1_8 1_555 1_555
C6_4 O1_4 1_555 1_555
C7_4 C6_4 1_555 1_555
C8_4 C7_4 1_555 1_555
H5_4 C8_4 1_555 1_555
C9_4 C7_4 1_555 1_555
H6_4 C9_4 1_555 1_555
C10_4 C9_4 1_555 1_555
H7_4 C10_4 1_555 1_555
C11_4 C8_4 1_555 1_555
H8_4 C11_4 1_555 1_555
C12_4 C10_4 1_555 1_555
C13_4 C12_4 1_555 1_555
C14_4 C13_4 1_555 1_555
H9_4 C14_4 1_555 1_555
O13_2 C25_4 1_555 1_555
O17_2 C25_4 1_555 1_555
C25_4 C26_4 1_555 1_555
C26_4 C27_4 1_555 1_555
C27_4 H18_4 1_555 1_555
C28_4 C26_4 1_555 1_555
H19_4 C28_4 1_555 1_555
C29_4 C28_4 1_555 1_555
H20_4 C29_4 1_555 1_555
C30_4 C27_4 1_555 1_555
H21_4 C30_4 1_555 1_555
C31_4 C29_4 1_555 1_555
C32_4 C14_4 1_555 1_555
C33_4 C32_4 1_555 1_555
H22_4 C33_4 1_555 1_555
O14_2 C34_4 1_555 1_555
O18_2 C34_4 1_555 1_555
C34_4 C35_4 1_555 1_555
C35_4 C36_4 1_555 1_555
C36_4 H23_4 1_555 1_555
C37_4 C35_4 1_555 1_555
H24_4 C37_4 1_555 1_555
C38_4 C37_4 1_555 1_555
H25_4 C38_4 1_555 1_555
C39_4 C36_4 1_555 1_555
H26_4 C39_4 1_555 1_555
C40_4 C38_4 1_555 1_555
C41_4 C33_4 1_555 1_555
C42_4 C13_4 1_555 1_555
H27_4 C42_4 1_555 1_555
N7_4 Cd1_8 1_555 1_555
N8_4 C44_4 1_555 1_555
C43_4 H28_4 1_555 1_555
C44_4 C43_4 1_555 1_555
C45_4 N7_4 1_555 1_555
H29_4 C45_4 1_555 1_555
C46_4 N7_4 1_555 1_555
H30_4 C46_4 1_555 1_555
C47_4 N8_4 1_555 1_555
H31_4 C47_4 1_555 1_555
N13_2 C50_4 1_555 1_555
N10_4 C49_4 1_555 1_555
C48_4 C44_4 1_555 1_555
H32_4 C48_4 1_555 1_555
C49_4 C48_4 1_555 1_555
C50_4 N10_4 1_555 1_555
H33_4 C50_4 1_555 1_555
C51_4 N13_2 1_555 1_555
H34_4 C51_4 1_555 1_555
C52_4 N10_4 1_555 1_555
H35_4 C52_4 1_555 1_555
N14 C55_4 1_555 1_555
N12_4 C54_4 1_555 1_555
C53_4 C49_4 1_555 1_555
H36_4 C53_4 1_555 1_555
C54_4 C43_4 1_555 1_555
C55_4 N12_4 1_555 1_555
H37_4 C55_4 1_555 1_555
C56_4 N14 1_555 1_555
H38_4 C56_4 1_555 1_555
C57_4 N12_4 1_555 1_555
H39_4 C57_4 1_555 1_555
O2_4 C6_4 1_555 1_555
C11_4 C12_4 1_555 1_555
C30_4 C31_4 1_555 1_555
C31_4 C32_4 1_555 1_555
C39_4 C40_4 1_555 1_555
C40_4 C41_4 1_555 1_555
C41_4 C42_4 1_555 1_555
N8_4 C45_4 1_555 1_555
C46_4 C47_4 1_555 1_555
C51_4 C52_4 1_555 1_555
C53_4 C54_4 1_555 1_555
C56_4 C57_4 1_555 1_555

#END
