
###############################################################################
#
# This file contains modified crystal structure data generated from the
# MOF subset of the Cambridge Structural Database (CSD) v543 
# hosted by the Cambridge Crystallographic Data Centre (CCDC).
#
# This work is licensed under the Creative Commons
# Attribution-NonCommercial-ShareAlike 4.0 International License.
# To view a copy of this license, visit
# http://creativecommons.org/licenses/by-nc-sa/4.0/
# or send a letter to
# Creative Commons, PO Box 1866, Mountain View, CA 94042, USA.
#
# CIF created using the CSD Python API on 29 September 2022
# The structure has been converted into the P1 space group
# The structure has a 3D framework
# The original CSD entry DAHCAS is in the hexagonal crystal system
# The original CSD entry DAHCAS is in a Sohncke space group
# The framework has been calculated to contain at least 10.0% void space
# The void calculation uses a probe of radius 1.32A, grid spacing 0.4
# The framework is charged, counterions have been retained in the structure
#
###############################################################################

data_DAHCAS
_chemical_formula_moiety         '(C252 H192 Cd12 N51 Na4 O48 4+)n'
_symmetry_cell_setting           triclinic
_symmetry_space_group_name_H-M   'P 1'
_symmetry_Int_Tables_number      1
_space_group_name_Hall           'P 1'
loop_
_symmetry_equiv_pos_site_id
_symmetry_equiv_pos_as_xyz
1 x,y,z
_cell_length_a                   18.643(3)
_cell_length_b                   18.643(3)
_cell_length_c                   24.945(5)
_cell_angle_alpha                90
_cell_angle_beta                 90
_cell_angle_gamma                120
_cell_volume                     7508.37
loop_
_atom_site_label
_atom_site_type_symbol
_atom_site_fract_x
_atom_site_fract_y
_atom_site_fract_z
N1 N -0.0000 0.8129(19) -0.0000
C2 C 0.017(3) 0.795(4) 0.0542(10)
H5 H 0.0004 0.7987 0.0900
H6 H 0.0131 0.7421 0.0491
H7 H 0.0736 0.8381 0.0487
H8 H 0.0292 0.8696 0.0126
N1_2 N -0.0000 0.8129(19) 1.0000
N1_3 N 1.0000 0.8129(19) -0.0000
N1_4 N 1.0000 0.8129(19) 1.0000
C1 C 0.983(3) 0.778(2) 0.9458(10)
H1 H 0.9996 0.7983 0.9100
H2 H 0.9869 0.7290 0.9509
H3 H 0.9264 0.7645 0.9513
H4 H 0.9708 0.8404 0.9874
N1_5 N 0.1871(19) -0.0000 0.5000
C2_2 C 0.222(5) 0.017(3) 0.5542(10)
H5_2 H 0.2017 0.0004 0.5900
H6_2 H 0.2710 0.0131 0.5491
H7_2 H 0.2355 0.0736 0.5487
H8_2 H 0.1596 0.0292 0.5126
N1_6 N 0.1871(19) 1.0000 0.5000
C1_2 C 0.205(4) 0.983(3) 0.4458(10)
H1_2 H 0.2013 0.9996 0.4100
H2_2 H 0.2579 0.9869 0.4509
H3_2 H 0.1619 0.9264 0.4513
H4_2 H 0.1304 0.9708 0.4874
N1_7 N 0.1871(19) 0.1871(19) -0.0000
C2_3 C 0.205(4) 0.222(5) 0.0542(10)
H5_3 H 0.2013 0.2017 0.0900
H6_3 H 0.2579 0.2710 0.0491
H7_3 H 0.1619 0.2355 0.0487
H8_3 H 0.1304 0.1596 0.0126
N1_8 N 0.1871(19) 0.1871(19) 1.0000
C1_3 C 0.222(2) 0.205(4) 0.9458(10)
H1_3 H 0.2017 0.2013 0.9100
H2_3 H 0.2710 0.2579 0.9509
H3_3 H 0.2355 0.1619 0.9513
H4_3 H 0.1596 0.1304 0.9874
N1_9 N 0.0000 0.1871(19) 0.5000
C1_4 C 0.017(3) 0.222(2) 0.4458(10)
H1_4 H 0.0004 0.2017 0.4100
H2_4 H 0.0131 0.2710 0.4509
H3_4 H 0.0736 0.2355 0.4513
H4_4 H 0.0292 0.1596 0.4874
N1_10 N 1.0000 0.1871(19) 0.5000
C2_4 C 0.983(3) 0.205(4) 0.5542(10)
H5_4 H 0.9996 0.2013 0.5900
H6_4 H 0.9869 0.2579 0.5491
H7_4 H 0.9264 0.1619 0.5487
H8_4 H 0.9708 0.1304 0.5126
N1_11 N 0.8129(19) 0.0000 -0.0000
N1_12 N 0.8129(19) 0.0000 1.0000
C1_5 C 0.795(4) 0.017(3) 0.9458(10)
H1_5 H 0.7987 0.0004 0.9100
H2_5 H 0.7421 0.0131 0.9509
H3_5 H 0.8381 0.0736 0.9513
H4_5 H 0.8696 0.0292 0.9874
N1_13 N 0.8129(19) 1.0000 -0.0000
C2_5 C 0.778(5) 0.983(3) 0.0542(10)
H5_5 H 0.7983 0.9996 0.0900
H6_5 H 0.7290 0.9869 0.0491
H7_5 H 0.7645 0.9264 0.0487
H8_5 H 0.8404 0.9708 0.0126
N1_14 N 0.8129(19) 1.0000 1.0000
N1_15 N 0.8129(19) 0.8129(19) 0.5000
C1_6 C 0.778(2) 0.795(4) 0.4458(10)
H1_6 H 0.7983 0.7987 0.4100
H2_6 H 0.7290 0.7421 0.4509
H3_6 H 0.7645 0.8381 0.4513
H4_6 H 0.8404 0.8696 0.4874
C2_6 C 0.795(4) 0.778(5) 0.5542(10)
H5_6 H 0.7987 0.7983 0.5900
H6_6 H 0.7421 0.7290 0.5491
H7_6 H 0.8381 0.7645 0.5487
H8_6 H 0.8696 0.8404 0.5126
Cd7 Cd 0.45154(3) 0.19200(3) 0.062258(19)
O15 O 0.3172(4) 0.0779(6) 0.0809(2)
O23 O 0.3820(5) 0.1589(7) 0.1464(3)
C58 C 0.3189(6) 0.0988(8) 0.1264(3)
C63 C 0.2471(5) 0.0484(6) 0.1641(3)
H41 H 0.1565 0.0003 0.1061
C88 C 0.2614(5) 0.0510(6) 0.2190(3)
H56 H 0.3146 0.0874 0.2335
Cd2 Cd 0.74046(4) 0.54846(3) 0.062258(19)
Cd6 Cd 0.80800(3) 0.25954(4) 0.062258(19)
Na2 Na 0.6666 0.3333 0.01369(10)
O16 O 0.7607(7) 0.6828(4) 0.0809(2)
O22 O 0.9221(6) 0.2393(7) 0.0809(2)
O24 O 0.7769(9) 0.6180(5) 0.1464(3)
O30 O 0.8411(7) 0.2231(9) 0.1464(3)
N7 N 0.5467(5) 0.1593(3) 0.0891(2)
N8 N 0.6126(4) 0.4533(5) 0.0891(2)
N9 N 0.8407(3) 0.3874(4) 0.0891(2)
N12 N 0.6232(5) 0.2089(3) 0.0708(2)
N13 N 0.5857(4) 0.3768(5) 0.0708(2)
N14 N 0.7911(3) 0.4143(4) 0.0708(2)
N17 N 0.6748(6) 0.1837(3) 0.0894(2)
N18 N 0.5089(5) 0.3252(6) 0.0894(2)
N19 N 0.8163(3) 0.4911(5) 0.0894(2)
C59 C 0.7799(10) 0.6811(6) 0.1264(3)
C64 C 0.8013(8) 0.7529(5) 0.1641(3)
C69 C 0.8325(10) 0.8330(6) 0.1433(3)
C70 C 0.8325(10) 0.9995(8) 0.3567(3)
H42 H 0.8438 0.8435 0.1061
C74 C 0.8463(9) 0.8959(5) 0.1779(3)
C75 C 0.8463(9) 0.9504(8) 0.3221(3)
H47 H 0.8682 0.9505 0.1643
H48 H 0.8682 0.9177 0.3357
C79 C 0.8289(7) 0.8816(4) 0.2325(3)
C80 C 0.8289(7) 0.9473(6) 0.2675(3)
C84 C 0.8031(8) 0.8041(5) 0.2520(3)
C85 C 0.8031(8) 0.9990(6) 0.2480(3)
H52 H 0.7942 0.7947 0.2895
H53 H 0.7942 0.9995 0.2105
C89 C 0.7896(8) 0.7386(5) 0.2190(3)
H57 H 0.7728 0.6854 0.2335
C95 C 0.5460(7) 0.0987(4) 0.1196(3)
C96 C 0.5527(6) 0.4540(7) 0.1196(3)
C97 C 0.9013(4) 0.4473(6) 0.1196(3)
C100 C 0.4821(9) 0.0318(5) 0.1466(3)
C101 C 0.5497(8) 0.5179(9) 0.1466(3)
C102 C 0.9682(5) 0.4503(8) 0.1466(3)
H63 H 0.4271 0.0224 0.1468
H64 H 0.5953 0.5729 0.1468
H65 H 0.9776 0.4047 0.1468
C106 C 0.4767(11) 0.4969(13) 0.1732(5)
H69 H 0.4709 0.5387 0.1911
C111 C 0.4110(11) 0.4148(13) 0.1743(4)
H74 H 0.3628 0.4020 0.1944
C115 C 0.6463(10) 0.0604(5) 0.1477(3)
C116 C 0.4141(9) 0.3537(10) 0.1477(3)
C117 C 0.9396(5) 0.5859(9) 0.1477(3)
H78 H 0.7011 0.0691 0.1478
H79 H 0.3680 0.2989 0.1478
H80 H 0.9309 0.6320 0.1478
C120 C 0.6272(9) 0.1142(5) 0.1198(3)
C121 C 0.4870(8) 0.3728(9) 0.1198(3)
C122 C 0.8858(5) 0.5130(8) 0.1198(3)
C19 C 0.4767(11) 0.9798(7) 0.3268(5)
H18 H 0.4709 0.9322 0.3089
C20 C 0.4110(11) 0.9962(7) 0.3257(4)
H19 H 0.3628 0.9608 0.3056
C62 C 0.9012(8) 0.2201(10) 0.1264(3)
C67 C 0.9516(6) 0.1987(8) 0.1641(3)
H45 H 0.9997 0.1562 0.1061
C92 C 0.9490(6) 0.2104(8) 0.2190(3)
H60 H 0.9126 0.2272 0.2335
C107 C 0.0202(7) 0.5233(11) 0.1732(5)
H70 H 0.0678 0.5291 0.1911
C112 C 0.0038(7) 0.5890(11) 0.1743(4)
H75 H 0.0392 0.6372 0.1944
Cd8 Cd 0.74046(4) 0.19200(3) 0.437742(19)
O17 O 0.7607(7) 0.0779(6) 0.4191(2)
O25 O 0.7769(9) 0.1589(7) 0.3536(3)
C60 C 0.7799(10) 0.0988(8) 0.3736(3)
C65 C 0.8013(8) 0.0484(6) 0.3359(3)
H43 H 0.8438 0.0003 0.3939
C90 C 0.7896(8) 0.0510(6) 0.2810(3)
H58 H 0.7728 0.0874 0.2665
Cd1 Cd 0.80800(3) 0.54846(3) 0.437742(19)
Na1 Na 0.6667 0.3333 0.48631(10)
O1 O 0.7493(5) 0.4667(3) 0.52326(17)
O2 O 0.8334(6) 0.5994(3) 0.52319(18)
O3 O 0.9221(6) 0.6828(4) 0.4191(2)
O4 O 0.8411(7) 0.6180(5) 0.3536(3)
N2 N 0.6126(4) 0.1593(3) 0.4109(2)
N3 N 0.5857(4) 0.2089(3) 0.4292(2)
N4 N 0.5089(5) 0.1837(3) 0.4106(2)
C3 C 0.7880(7) 0.5333(4) 0.5475(2)
C4 C 0.7814(7) 0.5345(4) 0.6074(2)
C5 C 0.8366(7) 0.6029(4) 0.6365(3)
H9 H 0.8791 0.6500 0.6186
C6 C 0.8300(7) 0.6028(4) 0.6925(2)
H10 H 0.8681 0.6507 0.7120
C7 C 0.7705(6) 0.5359(3) 0.7202(2)
C8 C 0.7147(6) 0.4687(3) 0.6897(2)
H11 H 0.6714 0.4217 0.7072
C9 C 0.7208(7) 0.4687(4) 0.6339(2)
H12 H 0.6818 0.4217 0.6142
C10 C 0.9012(8) 0.6811(6) 0.3736(3)
C11 C 0.9516(6) 0.7529(5) 0.3359(3)
H13 H 0.9997 0.8435 0.3939
C16 C 0.9490(6) 0.7386(5) 0.2810(3)
H16 H 0.9126 0.6854 0.2665
C17 C 0.5527(6) 0.0987(4) 0.3804(3)
C18 C 0.5497(8) 0.0318(5) 0.3534(3)
H17 H 0.5953 0.0224 0.3532
C21 C 0.4141(9) 0.0604(5) 0.3523(3)
H20 H 0.3680 0.0691 0.3522
C22 C 0.4870(8) 0.1142(5) 0.3802(3)
Cd3 Cd 0.45154(3) 0.25954(4) 0.437742(19)
O5 O 0.7174(6) 0.4667(3) 0.97674(17)
O6 O 0.5333(3) 0.2826(6) 0.52326(17)
O7 O 0.5333(3) 0.2507(5) 0.97674(17)
O8 O 0.7174(6) 0.2507(5) 0.52326(17)
O9 O 0.7493(5) 0.2826(6) 0.97674(17)
O10 O 0.7660(7) 0.5994(3) 0.97681(18)
O11 O 0.4006(3) 0.2340(7) 0.52319(18)
O12 O 0.4006(3) 0.1666(6) 0.97681(18)
O13 O 0.7660(7) 0.1666(6) 0.52319(18)
O14 O 0.8334(6) 0.2340(7) 0.97681(18)
O18 O 0.3172(4) 0.2393(7) 0.4191(2)
O26 O 0.3820(5) 0.2231(9) 0.3536(3)
N5 N 0.8407(3) 0.4533(5) 0.4109(2)
N6 N 0.5467(5) 0.3874(4) 0.4109(2)
N10 N 0.7911(3) 0.3768(5) 0.4292(2)
N11 N 0.6232(5) 0.4143(4) 0.4292(2)
N15 N 0.8163(3) 0.3252(6) 0.4106(2)
N16 N 0.6748(6) 0.4911(5) 0.4106(2)
C23 C 0.7453(8) 0.5333(4) 0.9525(2)
C24 C 0.4667(4) 0.2547(8) 0.5475(2)
C25 C 0.4667(4) 0.2120(7) 0.9525(2)
C26 C 0.7453(8) 0.2120(7) 0.5475(2)
C27 C 0.7880(7) 0.2547(8) 0.9525(2)
C28 C 0.7531(8) 0.5345(4) 0.8926(2)
C29 C 0.4655(4) 0.2469(8) 0.6074(2)
C30 C 0.4655(4) 0.2186(7) 0.8926(2)
C31 C 0.7531(8) 0.2186(7) 0.6074(2)
C32 C 0.7814(7) 0.2469(8) 0.8926(2)
C33 C 0.7663(8) 0.6029(4) 0.8635(3)
C34 C 0.3971(4) 0.2337(8) 0.6365(3)
C35 C 0.3971(4) 0.1634(7) 0.8635(3)
C36 C 0.7663(8) 0.1634(7) 0.6365(3)
C37 C 0.8366(7) 0.2337(8) 0.8635(3)
H21 H 0.7709 0.6500 0.8814
H22 H 0.3500 0.2291 0.6186
H23 H 0.3500 0.1209 0.8814
H24 H 0.7709 0.1209 0.6186
H25 H 0.8791 0.2291 0.8814
C38 C 0.7728(8) 0.6028(4) 0.8075(2)
C39 C 0.3972(4) 0.2272(8) 0.6925(2)
C40 C 0.3972(4) 0.1700(7) 0.8075(2)
C41 C 0.7728(8) 0.1700(7) 0.6925(2)
C42 C 0.8300(7) 0.2272(8) 0.8075(2)
H26 H 0.7826 0.6507 0.7880
H27 H 0.3493 0.2174 0.7120
H28 H 0.3493 0.1319 0.7880
H29 H 0.7826 0.1319 0.7120
H30 H 0.8681 0.2174 0.7880
C43 C 0.7654(7) 0.5359(3) 0.7798(2)
C44 C 0.4641(3) 0.2346(7) 0.7202(2)
C45 C 0.4641(3) 0.2295(6) 0.7798(2)
C46 C 0.7654(7) 0.2295(6) 0.7202(2)
C47 C 0.7705(6) 0.2346(7) 0.7798(2)
C48 C 0.7540(7) 0.4687(3) 0.8103(2)
C49 C 0.5313(3) 0.2460(7) 0.6897(2)
C50 C 0.5313(3) 0.2853(6) 0.8103(2)
C51 C 0.7540(7) 0.2853(6) 0.6897(2)
C52 C 0.7147(6) 0.2460(7) 0.8103(2)
H31 H 0.7503 0.4217 0.7928
H32 H 0.5783 0.2497 0.7072
H33 H 0.5783 0.3286 0.7928
H34 H 0.7503 0.3286 0.7072
H35 H 0.6714 0.2497 0.7928
C53 C 0.7479(8) 0.4687(4) 0.8661(2)
C54 C 0.5313(4) 0.2521(8) 0.6339(2)
C55 C 0.5313(4) 0.2792(7) 0.8661(2)
C56 C 0.7479(8) 0.2792(7) 0.6339(2)
C57 C 0.7208(7) 0.2521(8) 0.8661(2)
H36 H 0.7399 0.4217 0.8858
H37 H 0.5783 0.2601 0.6142
H38 H 0.5783 0.3182 0.8858
H39 H 0.7399 0.3182 0.6142
H40 H 0.6818 0.2601 0.8858
C61 C 0.3189(6) 0.2201(10) 0.3736(3)
C66 C 0.2471(5) 0.1987(8) 0.3359(3)
C71 C 0.1670(6) 0.1675(10) 0.3567(3)
C72 C 0.0005(8) 0.1675(10) 0.1433(3)
H44 H 0.1565 0.1562 0.3939
C76 C 0.1041(5) 0.1537(9) 0.3221(3)
C77 C 0.0496(8) 0.1537(9) 0.1779(3)
H49 H 0.0495 0.1318 0.3357
H50 H 0.0823 0.1318 0.1643
C81 C 0.1184(4) 0.1711(7) 0.2675(3)
C82 C 0.0527(6) 0.1711(7) 0.2325(3)
C86 C 0.1959(5) 0.1969(8) 0.2480(3)
C87 C 0.0010(6) 0.1969(8) 0.2520(3)
H54 H 0.2053 0.2058 0.2105
H55 H 0.0005 0.2058 0.2895
C91 C 0.2614(5) 0.2104(8) 0.2810(3)
H59 H 0.3146 0.2272 0.2665
C93 C 0.9013(4) 0.4540(7) 0.3804(3)
C94 C 0.5460(7) 0.4473(6) 0.3804(3)
C98 C 0.9682(5) 0.5179(9) 0.3534(3)
C99 C 0.4821(9) 0.4503(8) 0.3534(3)
H61 H 0.9776 0.5729 0.3532
H62 H 0.4271 0.4047 0.3532
C104 C 0.5031(13) 0.5233(11) 0.3268(5)
H67 H 0.4613 0.5291 0.3089
C109 C 0.5852(13) 0.5890(11) 0.3257(4)
H72 H 0.5980 0.6372 0.3056
C113 C 0.9396(5) 0.3537(10) 0.3523(3)
C114 C 0.6463(10) 0.5859(9) 0.3523(3)
H76 H 0.9309 0.2989 0.3522
H77 H 0.7011 0.6320 0.3522
C118 C 0.8858(5) 0.3728(9) 0.3802(3)
C119 C 0.6272(9) 0.5130(8) 0.3802(3)
C12 C 0.0005(8) 0.8330(6) 0.3567(3)
C13 C 0.0496(8) 0.8959(5) 0.3221(3)
H14 H 0.0823 0.9505 0.3357
C14 C 0.0527(6) 0.8816(4) 0.2675(3)
C15 C 0.0010(6) 0.8041(5) 0.2480(3)
H15 H 0.0005 0.7947 0.2105
C68 C 0.1670(6) 0.9995(8) 0.1433(3)
C73 C 0.1041(5) 0.9504(8) 0.1779(3)
H46 H 0.0495 0.9177 0.1643
C78 C 0.1184(4) 0.9473(6) 0.2325(3)
C83 C 0.1959(5) 0.9990(6) 0.2520(3)
H51 H 0.2053 0.9995 0.2895
C103 C 0.0202(7) 0.4969(13) 0.3268(5)
H66 H 0.0678 0.5387 0.3089
C108 C 0.0038(7) 0.4148(13) 0.3257(4)
H71 H 0.0392 0.4020 0.3056
C105 C 0.5031(13) 0.9798(7) 0.1732(5)
H68 H 0.4613 0.9322 0.1911
C110 C 0.5852(13) 0.9962(7) 0.1743(4)
H73 H 0.5980 0.9608 0.1944
C107_2 C 0.4969(13) 0.0202(7) 0.6732(5)
H70_2 H 0.5387 0.0678 0.6911
C112_2 C 0.4148(13) 0.0038(7) 0.6743(4)
H75_2 H 0.4020 0.0392 0.6944
C71_2 C 0.9995(12) 0.1670(6) 0.8567(3)
C72_2 C 0.8330(13) 0.0005(8) 0.6433(3)
C76_2 C 0.9504(10) 0.1041(5) 0.8221(3)
C77_2 C 0.8959(12) 0.0496(8) 0.6779(3)
H49_2 H 0.9177 0.0495 0.8357
H50_2 H 0.9505 0.0823 0.6643
C81_2 C 0.9473(8) 0.1184(4) 0.7675(3)
C82_2 C 0.8816(9) 0.0527(6) 0.7325(3)
C86_2 C 0.9990(9) 0.1959(5) 0.7480(3)
C87_2 C 0.8041(10) 0.0010(6) 0.7520(3)
H54_2 H 0.9995 0.2053 0.7105
H55_2 H 0.7947 0.0005 0.7895
C104_2 C 0.9798(17) 0.5031(13) 0.8268(5)
H67_2 H 0.9322 0.4613 0.8089
C109_2 C 0.9962(17) 0.5852(13) 0.8257(4)
H72_2 H 0.9608 0.5980 0.8056
C12_2 C 0.1675(10) 0.0005(8) 0.8567(3)
C13_2 C 0.1537(9) 0.0496(8) 0.8221(3)
H14_2 H 0.1318 0.0823 0.8357
C14_2 C 0.1711(7) 0.0527(6) 0.7675(3)
C15_2 C 0.1969(8) 0.0010(6) 0.7480(3)
H15_2 H 0.2058 0.0005 0.7105
Cd7_2 Cd 0.25954(4) 0.45154(3) 0.562258(19)
O15_2 O 0.2393(7) 0.3172(4) 0.5809(2)
O23_2 O 0.2231(9) 0.3820(5) 0.6464(3)
C58_2 C 0.2201(10) 0.3189(6) 0.6264(3)
C63_2 C 0.1987(8) 0.2471(5) 0.6641(3)
C68_2 C 0.1675(10) 0.1670(6) 0.6433(3)
H41_2 H 0.1562 0.1565 0.6061
C73_2 C 0.1537(9) 0.1041(5) 0.6779(3)
H46_2 H 0.1318 0.0495 0.6643
C78_2 C 0.1711(7) 0.1184(4) 0.7325(3)
C83_2 C 0.1969(8) 0.1959(5) 0.7520(3)
H51_2 H 0.2058 0.2053 0.7895
C88_2 C 0.2104(8) 0.2614(5) 0.7190(3)
H56_2 H 0.2272 0.3146 0.7335
C103_2 C 0.5233(15) 0.0202(7) 0.8268(5)
H66_2 H 0.5291 0.0678 0.8089
C108_2 C 0.5890(15) 0.0038(7) 0.8257(4)
H71_2 H 0.6372 0.0392 0.8056
O1_2 O 0.2826(6) 0.7493(5) 0.02326(17)
O2_2 O 0.2340(7) 0.8334(6) 0.02319(18)
C3_2 C 0.2547(8) 0.7880(7) 0.0475(2)
C4_2 C 0.2469(8) 0.7814(7) 0.1074(2)
C5_2 C 0.2337(8) 0.8366(7) 0.1365(3)
H9_2 H 0.2291 0.8791 0.1186
C6_2 C 0.2272(8) 0.8300(7) 0.1925(2)
H10_2 H 0.2174 0.8681 0.2120
C7_2 C 0.2346(7) 0.7705(6) 0.2202(2)
C8_2 C 0.2460(7) 0.7147(6) 0.1897(2)
H11_2 H 0.2497 0.6714 0.2072
C9_2 C 0.2521(8) 0.7208(7) 0.1339(2)
H12_2 H 0.2601 0.6818 0.1142
Cd2_2 Cd 0.19200(5) 0.74046(4) 0.562258(19)
Cd6_2 Cd 0.54846(5) 0.80800(3) 0.562258(19)
Na2_2 Na 0.3333 0.6666 0.51369(10)
O5_2 O 0.2507(7) 0.7174(6) 0.47674(17)
O6_2 O 0.2507(7) 0.5333(3) 0.02326(17)
O7_2 O 0.2826(6) 0.5333(3) 0.47674(17)
O8_2 O 0.4667(8) 0.7174(6) 0.02326(17)
O9_2 O 0.4667(8) 0.7493(5) 0.47674(17)
O10_2 O 0.1666(8) 0.7660(7) 0.47681(18)
O11_2 O 0.1666(8) 0.4006(3) 0.02319(18)
O12_2 O 0.2340(7) 0.4006(3) 0.47681(18)
O13_2 O 0.5994(9) 0.7660(7) 0.02319(18)
O14_2 O 0.5994(9) 0.8334(6) 0.47681(18)
O16_2 O 0.0779(8) 0.7607(7) 0.5809(2)
O22_2 O 0.6828(9) 0.9221(6) 0.5809(2)
O24_2 O 0.1589(10) 0.7769(9) 0.6464(3)
O30_2 O 0.6180(11) 0.8411(7) 0.6464(3)
N7_2 N 0.3874(6) 0.5467(5) 0.5891(2)
N8_2 N 0.1593(6) 0.6126(4) 0.5891(2)
N9_2 N 0.4533(5) 0.8407(3) 0.5891(2)
N12_2 N 0.4143(6) 0.6232(5) 0.5708(2)
N13_2 N 0.2089(6) 0.5857(4) 0.5708(2)
N14_2 N 0.3768(5) 0.7911(3) 0.5708(2)
N17_2 N 0.4911(7) 0.6748(6) 0.5894(2)
N18_2 N 0.1837(8) 0.5089(5) 0.5894(2)
N19_2 N 0.3252(6) 0.8163(3) 0.5894(2)
C23_2 C 0.2120(9) 0.7453(8) 0.4525(2)
C24_2 C 0.2120(9) 0.4667(4) 0.0475(2)
C25_2 C 0.2547(8) 0.4667(4) 0.4525(2)
C26_2 C 0.5333(11) 0.7453(8) 0.0475(2)
C27_2 C 0.5333(11) 0.7880(7) 0.4525(2)
C28_2 C 0.2186(9) 0.7531(8) 0.3926(2)
C29_2 C 0.2186(9) 0.4655(4) 0.1074(2)
C30_2 C 0.2469(8) 0.4655(4) 0.3926(2)
C31_2 C 0.5345(11) 0.7531(8) 0.1074(2)
C32_2 C 0.5345(11) 0.7814(7) 0.3926(2)
C33_2 C 0.1634(9) 0.7663(8) 0.3635(3)
C34_2 C 0.1634(9) 0.3971(4) 0.1365(3)
C35_2 C 0.2337(8) 0.3971(4) 0.3635(3)
C36_2 C 0.6029(11) 0.7663(8) 0.1365(3)
C37_2 C 0.6029(11) 0.8366(7) 0.3635(3)
H21_2 H 0.1209 0.7709 0.3814
H22_2 H 0.1209 0.3500 0.1186
H23_2 H 0.2291 0.3500 0.3814
H24_2 H 0.6500 0.7709 0.1186
H25_2 H 0.6500 0.8791 0.3814
C38_2 C 0.1700(9) 0.7728(8) 0.3075(2)
C39_2 C 0.1700(9) 0.3972(4) 0.1925(2)
C40_2 C 0.2272(8) 0.3972(4) 0.3075(2)
C41_2 C 0.6028(11) 0.7728(8) 0.1925(2)
C42_2 C 0.6028(11) 0.8300(7) 0.3075(2)
H26_2 H 0.1319 0.7826 0.2880
H27_2 H 0.1319 0.3493 0.2120
H28_2 H 0.2174 0.3493 0.2880
H29_2 H 0.6507 0.7826 0.2120
H30_2 H 0.6507 0.8681 0.2880
C43_2 C 0.2295(8) 0.7654(7) 0.2798(2)
C44_2 C 0.2295(8) 0.4641(3) 0.2202(2)
C45_2 C 0.2346(7) 0.4641(3) 0.2798(2)
C46_2 C 0.5359(9) 0.7654(7) 0.2202(2)
C47_2 C 0.5359(9) 0.7705(6) 0.2798(2)
C48_2 C 0.2853(8) 0.7540(7) 0.3103(2)
C49_2 C 0.2853(8) 0.5313(3) 0.1897(2)
C50_2 C 0.2460(7) 0.5313(3) 0.3103(2)
C51_2 C 0.4687(9) 0.7540(7) 0.1897(2)
C52_2 C 0.4687(9) 0.7147(6) 0.3103(2)
H31_2 H 0.3286 0.7503 0.2928
H32_2 H 0.3286 0.5783 0.2072
H33_2 H 0.2497 0.5783 0.2928
H34_2 H 0.4217 0.7503 0.2072
H35_2 H 0.4217 0.6714 0.2928
C53_2 C 0.2792(9) 0.7479(8) 0.3661(2)
C54_2 C 0.2792(9) 0.5313(4) 0.1339(2)
C55_2 C 0.2521(8) 0.5313(4) 0.3661(2)
C56_2 C 0.4687(11) 0.7479(8) 0.1339(2)
C57_2 C 0.4687(11) 0.7208(7) 0.3661(2)
H36_2 H 0.3182 0.7399 0.3858
H37_2 H 0.3182 0.5783 0.1142
H38_2 H 0.2601 0.5783 0.3858
H39_2 H 0.4217 0.7399 0.1142
H40_2 H 0.4217 0.6818 0.3858
C59_2 C 0.0988(12) 0.7799(10) 0.6264(3)
C64_2 C 0.0484(9) 0.8013(8) 0.6641(3)
H42_2 H 0.0003 0.8438 0.6061
C89_2 C 0.0510(9) 0.7896(8) 0.7190(3)
H57_2 H 0.0874 0.7728 0.7335
C95_2 C 0.4473(8) 0.5460(7) 0.6196(3)
C96_2 C 0.0987(9) 0.5527(6) 0.6196(3)
C97_2 C 0.4540(7) 0.9013(4) 0.6196(3)
C100_2 C 0.4503(10) 0.4821(9) 0.6466(3)
C101_2 C 0.0318(12) 0.5497(8) 0.6466(3)
C102_2 C 0.5179(9) 0.9682(5) 0.6466(3)
H63_2 H 0.4047 0.4271 0.6468
H64_2 H 0.0224 0.5953 0.6468
H65_2 H 0.5729 0.9776 0.6468
C105_2 C 0.5233(15) 0.5031(13) 0.6732(5)
H68_2 H 0.5291 0.4613 0.6911
C110_2 C 0.5890(15) 0.5852(13) 0.6743(4)
H73_2 H 0.6372 0.5980 0.6944
C115_2 C 0.5859(11) 0.6463(10) 0.6477(3)
C116_2 C 0.0604(13) 0.4141(9) 0.6477(3)
C117_2 C 0.3537(10) 0.9396(5) 0.6477(3)
H78_2 H 0.6320 0.7011 0.6478
H79_2 H 0.0691 0.3680 0.6478
H80_2 H 0.2989 0.9309 0.6478
C120_2 C 0.5130(10) 0.6272(9) 0.6198(3)
C121_2 C 0.1142(12) 0.4870(8) 0.6198(3)
C122_2 C 0.3728(9) 0.8858(5) 0.6198(3)
C62_2 C 0.6811(13) 0.9012(8) 0.6264(3)
C67_2 C 0.7529(10) 0.9516(6) 0.6641(3)
H45_2 H 0.8435 0.9997 0.6061
C92_2 C 0.7386(10) 0.9490(6) 0.7190(3)
H60_2 H 0.6854 0.9126 0.7335
Cd1_2 Cd 0.25954(4) 0.80800(3) 0.937742(19)
Na1_2 Na 0.3334 0.6667 0.98631(10)
O3_2 O 0.2393(7) 0.9221(6) 0.9191(2)
O4_2 O 0.2231(9) 0.8411(7) 0.8536(3)
N2_2 N 0.4533(5) 0.6126(4) 0.9109(2)
N3_2 N 0.3768(5) 0.5857(4) 0.9292(2)
N4_2 N 0.3252(6) 0.5089(5) 0.9106(2)
C10_2 C 0.2201(10) 0.9012(8) 0.8736(3)
C11_2 C 0.1987(8) 0.9516(6) 0.8359(3)
H13_2 H 0.1562 0.9997 0.8939
C16_2 C 0.2104(8) 0.9490(6) 0.7810(3)
H16_2 H 0.2272 0.9126 0.7665
C17_2 C 0.4540(7) 0.5527(6) 0.8804(3)
C18_2 C 0.5179(9) 0.5497(8) 0.8534(3)
H17_2 H 0.5729 0.5953 0.8532
C19_2 C 0.4969(13) 0.4767(11) 0.8268(5)
H18_2 H 0.5387 0.4709 0.8089
C20_2 C 0.4148(13) 0.4110(11) 0.8257(4)
H19_2 H 0.4020 0.3628 0.8056
C21_2 C 0.3537(10) 0.4141(9) 0.8523(3)
H20_2 H 0.2989 0.3680 0.8522
C22_2 C 0.3728(9) 0.4870(8) 0.8802(3)
Cd3_2 Cd 0.19200(5) 0.45154(3) 0.937742(19)
Cd5 Cd 0.54846(5) 0.74046(4) 0.937742(19)
O18_2 O 0.0779(8) 0.3172(4) 0.9191(2)
O21 O 0.6828(9) 0.7607(7) 0.9191(2)
O26_2 O 0.1589(10) 0.3820(5) 0.8536(3)
O29 O 0.6180(11) 0.7769(9) 0.8536(3)
N5_2 N 0.3874(6) 0.8407(3) 0.9109(2)
N6_2 N 0.1593(6) 0.5467(5) 0.9109(2)
N10_2 N 0.4143(6) 0.7911(3) 0.9292(2)
N11_2 N 0.2089(6) 0.6232(5) 0.9292(2)
N15_2 N 0.4911(7) 0.8163(3) 0.9106(2)
N16_2 N 0.1837(8) 0.6748(6) 0.9106(2)
C61_2 C 0.0988(12) 0.3189(6) 0.8736(3)
C66_2 C 0.0484(9) 0.2471(5) 0.8359(3)
H44_2 H 0.0003 0.1565 0.8939
C91_2 C 0.0510(9) 0.2614(5) 0.7810(3)
H59_2 H 0.0874 0.3146 0.7665
C93_2 C 0.4473(8) 0.9013(4) 0.8804(3)
C94_2 C 0.0987(9) 0.5460(7) 0.8804(3)
C98_2 C 0.4503(10) 0.9682(5) 0.8534(3)
C99_2 C 0.0318(12) 0.4821(9) 0.8534(3)
H61_2 H 0.4047 0.9776 0.8532
H62_2 H 0.0224 0.4271 0.8532
C113_2 C 0.5859(11) 0.9396(5) 0.8523(3)
C114_2 C 0.0604(13) 0.6463(10) 0.8523(3)
H76_2 H 0.6320 0.9309 0.8522
H77_2 H 0.0691 0.7011 0.8522
C118_2 C 0.5130(10) 0.8858(5) 0.8802(3)
C119_2 C 0.1142(12) 0.6272(9) 0.8802(3)
C60_2 C 0.6811(13) 0.7799(10) 0.8736(3)
C65_2 C 0.7529(10) 0.8013(8) 0.8359(3)
C69_2 C 0.9995(12) 0.8325(10) 0.6433(3)
C70_2 C 0.8330(13) 0.8325(10) 0.8567(3)
H43_2 H 0.8435 0.8438 0.8939
C74_2 C 0.9504(10) 0.8463(9) 0.6779(3)
C75_2 C 0.8959(12) 0.8463(9) 0.8221(3)
H47_2 H 0.9177 0.8682 0.6643
H48_2 H 0.9505 0.8682 0.8357
C79_2 C 0.9473(8) 0.8289(7) 0.7325(3)
C80_2 C 0.8816(9) 0.8289(7) 0.7675(3)
C84_2 C 0.9990(9) 0.8031(8) 0.7520(3)
C85_2 C 0.8041(10) 0.8031(8) 0.7480(3)
H52_2 H 0.9995 0.7942 0.7895
H53_2 H 0.7947 0.7942 0.7105
C90_2 C 0.7386(10) 0.7896(8) 0.7810(3)
H58_2 H 0.6854 0.7728 0.7665
C106_2 C 0.9798(17) 0.4767(11) 0.6732(5)
H69_2 H 0.9322 0.4709 0.6911
C111_2 C 0.9962(17) 0.4110(11) 0.6743(4)
H74_2 H 0.9608 0.3628 0.6944
loop_
_geom_bond_atom_site_label_1
_geom_bond_atom_site_label_2
_geom_bond_site_symmetry_1
_geom_bond_site_symmetry_2
C2 N1 1_555 1_555
H5 C2 1_555 1_555
H6 C2 1_555 1_555
H7 C2 1_555 1_555
H8 N1 1_555 1_555
N1_4 C1 1_555 1_555
C1 H1 1_555 1_555
H2 C1 1_555 1_555
H3 C1 1_555 1_555
H4 N1_4 1_555 1_555
C2_2 N1_5 1_555 1_555
H5_2 C2_2 1_555 1_555
H6_2 C2_2 1_555 1_555
H7_2 C2_2 1_555 1_555
H8_2 N1_5 1_555 1_555
N1_6 C1_2 1_555 1_555
C1_2 H1_2 1_555 1_555
H2_2 C1_2 1_555 1_555
H3_2 C1_2 1_555 1_555
H4_2 N1_6 1_555 1_555
C2_3 N1_7 1_555 1_555
H5_3 C2_3 1_555 1_555
H6_3 C2_3 1_555 1_555
H7_3 C2_3 1_555 1_555
H8_3 N1_7 1_555 1_555
N1_8 C1_3 1_555 1_555
C1_3 H1_3 1_555 1_555
H2_3 C1_3 1_555 1_555
H3_3 C1_3 1_555 1_555
H4_3 N1_8 1_555 1_555
N1_9 C1_4 1_555 1_555
C1_4 H1_4 1_555 1_555
H2_4 C1_4 1_555 1_555
H3_4 C1_4 1_555 1_555
H4_4 N1_9 1_555 1_555
C2_4 N1_10 1_555 1_555
H5_4 C2_4 1_555 1_555
H6_4 C2_4 1_555 1_555
H7_4 C2_4 1_555 1_555
H8_4 N1_10 1_555 1_555
N1_12 C1_5 1_555 1_555
C1_5 H1_5 1_555 1_555
H2_5 C1_5 1_555 1_555
H3_5 C1_5 1_555 1_555
H4_5 N1_12 1_555 1_555
C2_5 N1_13 1_555 1_555
H5_5 C2_5 1_555 1_555
H6_5 C2_5 1_555 1_555
H7_5 C2_5 1_555 1_555
H8_5 N1_13 1_555 1_555
N1_15 C1_6 1_555 1_555
C1_6 H1_6 1_555 1_555
H2_6 C1_6 1_555 1_555
H3_6 C1_6 1_555 1_555
H4_6 N1_15 1_555 1_555
C2_6 N1_15 1_555 1_555
H5_6 C2_6 1_555 1_555
H6_6 C2_6 1_555 1_555
H7_6 C2_6 1_555 1_555
H8_6 N1_15 1_555 1_555
Cd7 O15 1_555 1_555
O15 C58 1_555 1_555
O23 Cd7 1_555 1_555
C58 O23 1_555 1_555
C63 C58 1_555 1_555
C88 C63 1_555 1_555
H56 C88 1_555 1_555
O16 Cd2 1_555 1_555
O22 Cd6 1_555 1_555
O24 Cd2 1_555 1_555
O30 Cd6 1_555 1_555
N7 Cd7 1_555 1_555
N8 Cd2 1_555 1_555
N9 Cd6 1_555 1_555
N12 Na2 1_555 1_555
N13 Na2 1_555 1_555
N14 Na2 1_555 1_555
N17 Cd6 1_555 1_555
N18 Cd7 1_555 1_555
N19 Cd2 1_555 1_555
C59 O16 1_555 1_555
C64 C59 1_555 1_555
C69 C64 1_555 1_555
H42 C69 1_555 1_555
C74 C69 1_555 1_555
C75 C70 1_555 1_555
H47 C74 1_555 1_555
H48 C75 1_555 1_555
C79 C74 1_555 1_555
C80 C75 1_555 1_555
C84 C79 1_555 1_555
C85 C80 1_555 1_555
H52 C84 1_555 1_555
H53 C85 1_555 1_555
C89 C64 1_555 1_555
H57 C89 1_555 1_555
C95 N7 1_555 1_555
C96 N8 1_555 1_555
C97 N9 1_555 1_555
C100 C95 1_555 1_555
C101 C96 1_555 1_555
C102 C97 1_555 1_555
H63 C100 1_555 1_555
H64 C101 1_555 1_555
H65 C102 1_555 1_555
C106 C101 1_555 1_555
H69 C106 1_555 1_555
C111 C106 1_555 1_555
H74 C111 1_555 1_555
C116 C111 1_555 1_555
H78 C115 1_555 1_555
H79 C116 1_555 1_555
H80 C117 1_555 1_555
C120 N17 1_555 1_555
C121 N18 1_555 1_555
C122 N19 1_555 1_555
O24 C59 1_555 1_555
N7 N12 1_555 1_555
N8 N13 1_555 1_555
N9 N14 1_555 1_555
N12 N17 1_555 1_555
N13 N18 1_555 1_555
N14 N19 1_555 1_555
C79 C80 1_555 1_555
C84 C89 1_555 1_555
C95 C120 1_555 1_555
C96 C121 1_555 1_555
C97 C122 1_555 1_555
C115 C120 1_555 1_555
C116 C121 1_555 1_555
C117 C122 1_555 1_555
H18 C19 1_555 1_555
C20 C19 1_555 1_555
H19 C20 1_555 1_555
O22 C62 1_555 1_555
C62 O30 1_555 1_555
C67 C62 1_555 1_555
C92 C67 1_555 1_555
H60 C92 1_555 1_555
H70 C107 1_555 1_555
C112 C107 1_555 1_555
H75 C112 1_555 1_555
Cd8 O17 1_555 1_555
O17 C60 1_555 1_555
O25 Cd8 1_555 1_555
C60 O25 1_555 1_555
C65 C60 1_555 1_555
C90 C65 1_555 1_555
H58 C90 1_555 1_555
Cd1 O1 1_555 1_555
Na1 O1 1_555 1_555
O1 C3 1_555 1_555
O2 Cd1 1_555 1_555
O3 Cd1 1_555 1_555
O4 Cd1 1_555 1_555
N2 N3 1_555 1_555
N3 Na1 1_555 1_555
N4 N3 1_555 1_555
C3 O2 1_555 1_555
C4 C3 1_555 1_555
C5 C4 1_555 1_555
H9 C5 1_555 1_555
C6 C5 1_555 1_555
H10 C6 1_555 1_555
C7 C6 1_555 1_555
C8 C7 1_555 1_555
H11 C8 1_555 1_555
C9 C4 1_555 1_555
H12 C9 1_555 1_555
C10 O3 1_555 1_555
C11 C10 1_555 1_555
C16 C11 1_555 1_555
H16 C16 1_555 1_555
C17 N2 1_555 1_555
C18 C17 1_555 1_555
H17 C18 1_555 1_555
H20 C21 1_555 1_555
C22 N4 1_555 1_555
Cd3 N4 1_555 1_555
Cd8 N2 1_555 1_555
O5 C23 1_555 1_555
O6 Na1 1_555 1_555
O8 Na1 1_555 1_555
O11 Cd3 1_555 1_555
O13 Cd8 1_555 1_555
O18 Cd3 1_555 1_555
O26 Cd3 1_555 1_555
N5 Cd1 1_555 1_555
N6 Cd3 1_555 1_555
N10 Na1 1_555 1_555
N11 Na1 1_555 1_555
N15 Cd8 1_555 1_555
N16 Cd1 1_555 1_555
C23 O10 1_555 1_555
C24 O6 1_555 1_555
C25 O7 1_555 1_555
C26 O8 1_555 1_555
C27 O9 1_555 1_555
C28 C23 1_555 1_555
C29 C24 1_555 1_555
C30 C25 1_555 1_555
C31 C26 1_555 1_555
C32 C27 1_555 1_555
C33 C28 1_555 1_555
C34 C29 1_555 1_555
C35 C30 1_555 1_555
C36 C31 1_555 1_555
C37 C32 1_555 1_555
H21 C33 1_555 1_555
H22 C34 1_555 1_555
H23 C35 1_555 1_555
H24 C36 1_555 1_555
H25 C37 1_555 1_555
C38 C33 1_555 1_555
C39 C34 1_555 1_555
C40 C35 1_555 1_555
C41 C36 1_555 1_555
C42 C37 1_555 1_555
H26 C38 1_555 1_555
H27 C39 1_555 1_555
H28 C40 1_555 1_555
H29 C41 1_555 1_555
H30 C42 1_555 1_555
C43 C7 1_555 1_555
C44 C39 1_555 1_555
C45 C40 1_555 1_555
C46 C41 1_555 1_555
C47 C42 1_555 1_555
C48 C43 1_555 1_555
C49 C44 1_555 1_555
C50 C45 1_555 1_555
C51 C46 1_555 1_555
C52 C47 1_555 1_555
H31 C48 1_555 1_555
H32 C49 1_555 1_555
H33 C50 1_555 1_555
H34 C51 1_555 1_555
H35 C52 1_555 1_555
C53 C28 1_555 1_555
C54 C29 1_555 1_555
C55 C30 1_555 1_555
C56 C31 1_555 1_555
C57 C32 1_555 1_555
H36 C53 1_555 1_555
H37 C54 1_555 1_555
H38 C55 1_555 1_555
H39 C56 1_555 1_555
H40 C57 1_555 1_555
C61 O18 1_555 1_555
C66 C61 1_555 1_555
C71 C66 1_555 1_555
H44 C71 1_555 1_555
C76 C71 1_555 1_555
C77 C72 1_555 1_555
H49 C76 1_555 1_555
H50 C77 1_555 1_555
C81 C76 1_555 1_555
C82 C77 1_555 1_555
C86 C81 1_555 1_555
C87 C82 1_555 1_555
H54 C86 1_555 1_555
H55 C87 1_555 1_555
C91 C66 1_555 1_555
H59 C91 1_555 1_555
C93 N5 1_555 1_555
C94 N6 1_555 1_555
C98 C93 1_555 1_555
C99 C94 1_555 1_555
H61 C98 1_555 1_555
H62 C99 1_555 1_555
C104 C99 1_555 1_555
H67 C104 1_555 1_555
C109 C104 1_555 1_555
H72 C109 1_555 1_555
C114 C109 1_555 1_555
H76 C113 1_555 1_555
H77 C114 1_555 1_555
C118 N15 1_555 1_555
C119 N16 1_555 1_555
O4 C10 1_555 1_555
C8 C9 1_555 1_555
C17 C22 1_555 1_555
C21 C22 1_555 1_555
Cd3 O6 1_555 1_555
Cd8 O8 1_555 1_555
O11 C24 1_555 1_555
O12 C25 1_555 1_555
O13 C26 1_555 1_555
O14 C27 1_555 1_555
O26 C61 1_555 1_555
N5 N10 1_555 1_555
N6 N11 1_555 1_555
N10 N15 1_555 1_555
N11 N16 1_555 1_555
C38 C43 1_555 1_555
C44 C45 1_555 1_555
C46 C47 1_555 1_555
C48 C53 1_555 1_555
C49 C54 1_555 1_555
C50 C55 1_555 1_555
C51 C56 1_555 1_555
C52 C57 1_555 1_555
C81 C82 1_555 1_555
C86 C91 1_555 1_555
C93 C118 1_555 1_555
C94 C119 1_555 1_555
C113 C118 1_555 1_555
C114 C119 1_555 1_555
C13 C12 1_555 1_555
H14 C13 1_555 1_555
C14 C13 1_555 1_555
C15 C14 1_555 1_555
H15 C15 1_555 1_555
C73 C68 1_555 1_555
H46 C73 1_555 1_555
C78 C14 1_555 1_555
C83 C78 1_555 1_555
H51 C83 1_555 1_555
H66 C103 1_555 1_555
C108 C103 1_555 1_555
H71 C108 1_555 1_555
C73 C78 1_555 1_555
H68 C105 1_555 1_555
C110 C105 1_555 1_555
H73 C110 1_555 1_555
H70_2 C107_2 1_555 1_555
C112_2 C107_2 1_555 1_555
H75_2 C112_2 1_555 1_555
C76_2 C71_2 1_555 1_555
C77_2 C72_2 1_555 1_555
H49_2 C76_2 1_555 1_555
H50_2 C77_2 1_555 1_555
C81_2 C76_2 1_555 1_555
C82_2 C77_2 1_555 1_555
C86_2 C81_2 1_555 1_555
C87_2 C82_2 1_555 1_555
H54_2 C86_2 1_555 1_555
H55_2 C87_2 1_555 1_555
H67_2 C104_2 1_555 1_555
C109_2 C104_2 1_555 1_555
H72_2 C109_2 1_555 1_555
C81_2 C82_2 1_555 1_555
C13_2 C12_2 1_555 1_555
H14_2 C13_2 1_555 1_555
C14_2 C13_2 1_555 1_555
C15_2 C14_2 1_555 1_555
H15_2 C15_2 1_555 1_555
Cd7_2 O15_2 1_555 1_555
O15_2 C58_2 1_555 1_555
O23_2 Cd7_2 1_555 1_555
C58_2 O23_2 1_555 1_555
C63_2 C58_2 1_555 1_555
C68_2 C63_2 1_555 1_555
H41_2 C68_2 1_555 1_555
C73_2 C68_2 1_555 1_555
H46_2 C73_2 1_555 1_555
C78_2 C14_2 1_555 1_555
C83_2 C78_2 1_555 1_555
H51_2 C83_2 1_555 1_555
C88_2 C63_2 1_555 1_555
H56_2 C88_2 1_555 1_555
H66_2 C103_2 1_555 1_555
C108_2 C103_2 1_555 1_555
H71_2 C108_2 1_555 1_555
C73_2 C78_2 1_555 1_555
C83_2 C88_2 1_555 1_555
O1_2 C3_2 1_555 1_555
C3_2 O2_2 1_555 1_555
C4_2 C3_2 1_555 1_555
C5_2 C4_2 1_555 1_555
H9_2 C5_2 1_555 1_555
C6_2 C5_2 1_555 1_555
H10_2 C6_2 1_555 1_555
C7_2 C6_2 1_555 1_555
C8_2 C7_2 1_555 1_555
H11_2 C8_2 1_555 1_555
C9_2 C4_2 1_555 1_555
H12_2 C9_2 1_555 1_555
Cd2_2 O5_2 1_555 1_555
Cd7_2 O7_2 1_555 1_555
Cd6_2 O9_2 1_555 1_555
Na2_2 O5_2 1_555 1_555
O5_2 C23_2 1_555 1_555
O7_2 Na2_2 1_555 1_555
O9_2 Na2_2 1_555 1_555
O10_2 Cd2_2 1_555 1_555
O12_2 Cd7_2 1_555 1_555
O14_2 Cd6_2 1_555 1_555
O16_2 Cd2_2 1_555 1_555
O22_2 Cd6_2 1_555 1_555
O24_2 Cd2_2 1_555 1_555
O30_2 Cd6_2 1_555 1_555
N7_2 Cd7_2 1_555 1_555
N8_2 Cd2_2 1_555 1_555
N9_2 Cd6_2 1_555 1_555
N12_2 Na2_2 1_555 1_555
N13_2 Na2_2 1_555 1_555
N14_2 Na2_2 1_555 1_555
N17_2 Cd6_2 1_555 1_555
N18_2 Cd7_2 1_555 1_555
N19_2 Cd2_2 1_555 1_555
C23_2 O10_2 1_555 1_555
C24_2 O6_2 1_555 1_555
C25_2 O7_2 1_555 1_555
C26_2 O8_2 1_555 1_555
C27_2 O9_2 1_555 1_555
C28_2 C23_2 1_555 1_555
C29_2 C24_2 1_555 1_555
C30_2 C25_2 1_555 1_555
C31_2 C26_2 1_555 1_555
C32_2 C27_2 1_555 1_555
C33_2 C28_2 1_555 1_555
C34_2 C29_2 1_555 1_555
C35_2 C30_2 1_555 1_555
C36_2 C31_2 1_555 1_555
C37_2 C32_2 1_555 1_555
H21_2 C33_2 1_555 1_555
H22_2 C34_2 1_555 1_555
H23_2 C35_2 1_555 1_555
H24_2 C36_2 1_555 1_555
H25_2 C37_2 1_555 1_555
C38_2 C33_2 1_555 1_555
C39_2 C34_2 1_555 1_555
C40_2 C35_2 1_555 1_555
C41_2 C36_2 1_555 1_555
C42_2 C37_2 1_555 1_555
H26_2 C38_2 1_555 1_555
H27_2 C39_2 1_555 1_555
H28_2 C40_2 1_555 1_555
H29_2 C41_2 1_555 1_555
H30_2 C42_2 1_555 1_555
C43_2 C7_2 1_555 1_555
C44_2 C39_2 1_555 1_555
C45_2 C40_2 1_555 1_555
C46_2 C41_2 1_555 1_555
C47_2 C42_2 1_555 1_555
C48_2 C43_2 1_555 1_555
C49_2 C44_2 1_555 1_555
C50_2 C45_2 1_555 1_555
C51_2 C46_2 1_555 1_555
C52_2 C47_2 1_555 1_555
H31_2 C48_2 1_555 1_555
H32_2 C49_2 1_555 1_555
H33_2 C50_2 1_555 1_555
H34_2 C51_2 1_555 1_555
H35_2 C52_2 1_555 1_555
C53_2 C28_2 1_555 1_555
C54_2 C29_2 1_555 1_555
C55_2 C30_2 1_555 1_555
C56_2 C31_2 1_555 1_555
C57_2 C32_2 1_555 1_555
H36_2 C53_2 1_555 1_555
H37_2 C54_2 1_555 1_555
H38_2 C55_2 1_555 1_555
H39_2 C56_2 1_555 1_555
H40_2 C57_2 1_555 1_555
C59_2 O16_2 1_555 1_555
C64_2 C59_2 1_555 1_555
C89_2 C64_2 1_555 1_555
H57_2 C89_2 1_555 1_555
C95_2 N7_2 1_555 1_555
C96_2 N8_2 1_555 1_555
C97_2 N9_2 1_555 1_555
C100_2 C95_2 1_555 1_555
C101_2 C96_2 1_555 1_555
C102_2 C97_2 1_555 1_555
H63_2 C100_2 1_555 1_555
H64_2 C101_2 1_555 1_555
H65_2 C102_2 1_555 1_555
C105_2 C100_2 1_555 1_555
H68_2 C105_2 1_555 1_555
C110_2 C105_2 1_555 1_555
H73_2 C110_2 1_555 1_555
C115_2 C110_2 1_555 1_555
H78_2 C115_2 1_555 1_555
H79_2 C116_2 1_555 1_555
H80_2 C117_2 1_555 1_555
C120_2 N17_2 1_555 1_555
C121_2 N18_2 1_555 1_555
C122_2 N19_2 1_555 1_555
C8_2 C9_2 1_555 1_555
O11_2 C24_2 1_555 1_555
O12_2 C25_2 1_555 1_555
O13_2 C26_2 1_555 1_555
O14_2 C27_2 1_555 1_555
O24_2 C59_2 1_555 1_555
N7_2 N12_2 1_555 1_555
N8_2 N13_2 1_555 1_555
N9_2 N14_2 1_555 1_555
N12_2 N17_2 1_555 1_555
N13_2 N18_2 1_555 1_555
N14_2 N19_2 1_555 1_555
C38_2 C43_2 1_555 1_555
C44_2 C45_2 1_555 1_555
C46_2 C47_2 1_555 1_555
C48_2 C53_2 1_555 1_555
C49_2 C54_2 1_555 1_555
C50_2 C55_2 1_555 1_555
C51_2 C56_2 1_555 1_555
C52_2 C57_2 1_555 1_555
C95_2 C120_2 1_555 1_555
C96_2 C121_2 1_555 1_555
C97_2 C122_2 1_555 1_555
C115_2 C120_2 1_555 1_555
C116_2 C121_2 1_555 1_555
C117_2 C122_2 1_555 1_555
O22_2 C62_2 1_555 1_555
C62_2 O30_2 1_555 1_555
C67_2 C62_2 1_555 1_555
C92_2 C67_2 1_555 1_555
H60_2 C92_2 1_555 1_555
O3_2 Cd1_2 1_555 1_555
O4_2 Cd1_2 1_555 1_555
N2_2 N3_2 1_555 1_555
N3_2 Na1_2 1_555 1_555
N4_2 N3_2 1_555 1_555
C10_2 O3_2 1_555 1_555
C11_2 C10_2 1_555 1_555
C16_2 C11_2 1_555 1_555
H16_2 C16_2 1_555 1_555
C17_2 N2_2 1_555 1_555
C18_2 C17_2 1_555 1_555
H17_2 C18_2 1_555 1_555
C19_2 C18_2 1_555 1_555
H18_2 C19_2 1_555 1_555
C20_2 C19_2 1_555 1_555
H19_2 C20_2 1_555 1_555
C21_2 C20_2 1_555 1_555
H20_2 C21_2 1_555 1_555
C22_2 N4_2 1_555 1_555
Cd3_2 N4_2 1_555 1_555
Cd5 N2_2 1_555 1_555
O18_2 Cd3_2 1_555 1_555
O21 Cd5 1_555 1_555
O26_2 Cd3_2 1_555 1_555
O29 Cd5 1_555 1_555
N5_2 Cd1_2 1_555 1_555
N6_2 Cd3_2 1_555 1_555
N10_2 Na1_2 1_555 1_555
N11_2 Na1_2 1_555 1_555
N15_2 Cd5 1_555 1_555
N16_2 Cd1_2 1_555 1_555
C61_2 O18_2 1_555 1_555
C66_2 C61_2 1_555 1_555
C91_2 C66_2 1_555 1_555
H59_2 C91_2 1_555 1_555
C93_2 N5_2 1_555 1_555
C94_2 N6_2 1_555 1_555
C98_2 C93_2 1_555 1_555
C99_2 C94_2 1_555 1_555
H61_2 C98_2 1_555 1_555
H62_2 C99_2 1_555 1_555
H76_2 C113_2 1_555 1_555
H77_2 C114_2 1_555 1_555
C118_2 N15_2 1_555 1_555
C119_2 N16_2 1_555 1_555
O4_2 C10_2 1_555 1_555
C17_2 C22_2 1_555 1_555
C21_2 C22_2 1_555 1_555
O26_2 C61_2 1_555 1_555
N5_2 N10_2 1_555 1_555
N6_2 N11_2 1_555 1_555
N10_2 N15_2 1_555 1_555
N11_2 N16_2 1_555 1_555
C93_2 C118_2 1_555 1_555
C94_2 C119_2 1_555 1_555
C113_2 C118_2 1_555 1_555
C114_2 C119_2 1_555 1_555
O21 C60_2 1_555 1_555
C60_2 O29 1_555 1_555
C65_2 C60_2 1_555 1_555
C70_2 C65_2 1_555 1_555
H43_2 C70_2 1_555 1_555
C74_2 C69_2 1_555 1_555
C75_2 C70_2 1_555 1_555
H47_2 C74_2 1_555 1_555
H48_2 C75_2 1_555 1_555
C79_2 C74_2 1_555 1_555
C80_2 C75_2 1_555 1_555
C84_2 C79_2 1_555 1_555
C85_2 C80_2 1_555 1_555
H52_2 C84_2 1_555 1_555
H53_2 C85_2 1_555 1_555
C90_2 C65_2 1_555 1_555
H58_2 C90_2 1_555 1_555
H69_2 C106_2 1_555 1_555
C111_2 C106_2 1_555 1_555
H74_2 C111_2 1_555 1_555
C79_2 C80_2 1_555 1_555
C85_2 C90_2 1_555 1_555

#END
