
###############################################################################
#
# This file contains modified crystal structure data generated from the
# MOF subset of the Cambridge Structural Database (CSD) v543 
# hosted by the Cambridge Crystallographic Data Centre (CCDC).
#
# This work is licensed under the Creative Commons
# Attribution-NonCommercial-ShareAlike 4.0 International License.
# To view a copy of this license, visit
# http://creativecommons.org/licenses/by-nc-sa/4.0/
# or send a letter to
# Creative Commons, PO Box 1866, Mountain View, CA 94042, USA.
#
# CIF created using the CSD Python API on 29 September 2022
# The structure has been converted into the P1 space group
# The structure has a 3D framework
# The original CSD entry DAJHOM is in the triclinic crystal system
# The framework has been calculated to contain at least 10.0% void space
# The void calculation uses a probe of radius 1.32A, grid spacing 0.4
# H atom positions have been added when not included in the experimental data
#
###############################################################################

data_DAJHOM
_chemical_formula_moiety         '(C108 H66 Co6 N6 O24)n'
_symmetry_cell_setting           triclinic
_symmetry_space_group_name_H-M   'P 1'
_symmetry_Int_Tables_number      1
_space_group_name_Hall           'P 1'
loop_
_symmetry_equiv_pos_site_id
_symmetry_equiv_pos_as_xyz
1 x,y,z
_cell_length_a                   13.1717(12)
_cell_length_b                   13.1901(14)
_cell_length_c                   16.2347(19)
_cell_angle_alpha                97.293(7)
_cell_angle_beta                 94.437(7)
_cell_angle_gamma                90.523(5)
_cell_volume                     2788.84
loop_
_atom_site_label
_atom_site_type_symbol
_atom_site_fract_x
_atom_site_fract_y
_atom_site_fract_z
_atom_site_U_iso_or_equiv
_atom_site_thermal_displace_type
C105 C 0.0113(3) 0.2379(3) 0.1791(3) 0.0234 Uani
H55 H 0.0012 0.2486 0.0552 0.0370 Uiso
C107 C 0.1265(3) 0.2346(3) 0.1904(3) 0.0238 Uani
O23 O 0.1671(2) 0.2360(3) 0.2622(2) 0.0324 Uani
O24 O 0.1730(2) 0.2288(3) 0.1249(2) 0.0341 Uani
Co14 Co 0.32060(4) 0.23846(4) 0.28227(3) 0.0179 Uani
Co15 Co 0.32505(4) 0.22875(4) 0.11183(3) 0.0183 Uani
O27 O 0.4727(2) 0.2377(3) 0.2687(2) 0.0330 Uani
O28 O 0.3217(3) 0.0821(2) 0.2529(2) 0.0314 Uani
O29 O 0.3189(3) 0.3917(2) 0.2758(2) 0.0367 Uani
N8 N 0.3369(3) 0.2458(3) 0.4106(2) 0.0220 Uani
O30 O 0.4786(2) 0.2325(3) 0.1315(2) 0.0358 Uani
O31 O 0.3268(3) 0.0743(2) 0.1149(2) 0.0332 Uani
O32 O 0.3257(3) 0.3846(2) 0.1382(2) 0.0395 Uani
N9 N 0.3099(3) 0.2263(3) 0.9840(2) 0.0268 Uani
C85 C 0.3260(3) 0.0343(3) 0.1810(3) 0.0245 Uani
C86 C 0.5201(3) 0.2344(3) 0.2037(3) 0.0253 Uani
C88 C 0.6336(3) 0.2326(3) 0.2147(3) 0.0248 Uani
C91 C 0.6908(3) 0.2349(4) 0.1469(3) 0.0288 Uani
C92 C 0.6839(3) 0.2284(4) 0.2940(3) 0.0305 Uani
C95 C 0.7874(3) 0.2271(4) 0.3045(3) 0.0313 Uani
H48 H 0.6458 0.2265 0.3397 0.0360 Uiso
H49 H 0.6577 0.2351 0.0942 0.0340 Uiso
C96 C 0.7976(3) 0.2368(4) 0.1559(3) 0.0277 Uani
C99 C 0.8472(3) 0.2328(3) 0.2364(3) 0.0245 Uani
H51 H 0.8192 0.2224 0.3570 0.0380 Uiso
C100 C 0.8580(3) 0.2439(4) 0.0886(3) 0.0330 Uani
C101 C 0.9553(3) 0.2316(3) 0.2457(3) 0.0246 Uani
H52 H 0.8268 0.2483 0.0359 0.0400 Uiso
C102 C 0.9625(4) 0.2442(4) 0.1002(3) 0.0310 Uani
H54 H 0.9883 0.2266 0.2977 0.0290 Uiso
C73 C 0.2267(4) 0.2564(4) 0.9446(3) 0.0377 Uani
C74 C 0.3865(5) 0.1939(6) 0.9376(3) 0.0595 Uani
H39 H 0.1720 0.2765 0.9754 0.0450 Uiso
C75 C 0.2167(4) 0.2595(5) 0.8597(3) 0.0431 Uani
C76 C 0.3817(5) 0.1961(6) 0.8518(3) 0.0608 Uani
H40 H 0.1560 0.2806 0.8346 0.0520 Uiso
C77 C 0.2961(4) 0.2315(4) 0.8121(3) 0.0336 Uani
C78 C 0.2863(4) 0.2368(4) 0.7216(3) 0.0384 Uani
H41 H 0.2207 0.2373 0.6960 0.0460 Uiso
C79 C 0.3619(4) 0.2410(4) 0.6741(3) 0.0362 Uani
H42 H 0.4276 0.2408 0.6996 0.0430 Uiso
C80 C 0.3515(4) 0.2458(4) 0.5832(3) 0.0283 Uani
C81 C 0.2581(4) 0.2379(4) 0.5378(3) 0.0328 Uani
C82 C 0.4383(4) 0.2566(4) 0.5408(3) 0.0350 Uani
H43 H 0.1986 0.2335 0.5646 0.0390 Uiso
C83 C 0.2534(4) 0.2366(4) 0.4521(3) 0.0287 Uani
C84 C 0.4278(4) 0.2558(4) 0.4558(3) 0.0303 Uani
H44 H 0.1901 0.2291 0.4222 0.0350 Uiso
H45 H 0.4862 0.2626 0.4280 0.0360 Uiso
H130 H 0.454705 0.164913 0.968227 . .
H131 H 0.445586 0.169847 0.816504 . .
H132 H 0.513254 0.265531 0.574505 . .
C87 C 0.3317(3) 0.9197(3) 0.1735(3) 0.0243 Uani
C89 C 0.3144(4) 0.8693(4) 0.2403(3) 0.0302 Uani
C90 C 0.3500(4) 0.8613(4) 0.0966(3) 0.0330 Uani
H46 H 0.3020 0.9070 0.2908 0.0360 Uiso
C93 C 0.3150(4) 0.7616(3) 0.2340(3) 0.0277 Uani
C94 C 0.3533(4) 0.7582(4) 0.0895(3) 0.0366 Uani
H47 H 0.3598 0.8944 0.0505 0.0400 Uiso
C97 C 0.2963(5) 0.7082(4) 0.3026(3) 0.0400 Uani
C98 C 0.3362(4) 0.7050(4) 0.1576(3) 0.0299 Uani
H50 H 0.3671 0.7216 0.0389 0.0440 Uiso
C103 C 0.3381(4) 0.5975(4) 0.1512(3) 0.0333 Uani
H53 H 0.2825 0.7445 0.3533 0.0480 Uiso
C104 C 0.2985(5) 0.6044(4) 0.2939(3) 0.0416 Uani
H56 H 0.2858 0.5706 0.3391 0.0500 Uiso
C106 C 0.3197(4) 0.5464(3) 0.2177(3) 0.0291 Uani
H57 H 0.3521 0.5601 0.1009 0.0400 Uiso
C108 C 0.3210(4) 0.4331(4) 0.2099(3) 0.0297 Uani
C59 C 0.0375(4) 0.7558(4) 0.8998(3) 0.0310 Uani
C60 C 0.1420(3) 0.7561(4) 0.9114(3) 0.0330 Uani
C61 C 0.2024(3) 0.7632(4) 0.8441(3) 0.0277 Uani
C62 C 0.3092(3) 0.7651(4) 0.8531(3) 0.0288 Uani
C63 C 0.3664(3) 0.7674(3) 0.7853(3) 0.0248 Uani
C64 C 0.3161(3) 0.7716(4) 0.7060(3) 0.0305 Uani
C65 C 0.2126(3) 0.7729(4) 0.6955(3) 0.0313 Uani
C66 C 0.1528(3) 0.7672(3) 0.7636(3) 0.0245 Uani
C67 C 0.0447(3) 0.7684(3) 0.7543(3) 0.0246 Uani
H31 H 0.0117 0.7734 0.7023 0.0290 Uiso
H32 H 0.1808 0.7776 0.6430 0.0380 Uiso
H33 H 0.3542 0.7735 0.6603 0.0360 Uiso
C68 C 0.4799(3) 0.7656(3) 0.7963(3) 0.0253 Uani
O11 O 0.5214(2) 0.7675(3) 0.8685(2) 0.0358 Uani
O12 O 0.5273(2) 0.7623(3) 0.7313(2) 0.0330 Uani
H34 H 0.3423 0.7649 0.9058 0.0340 Uiso
H35 H 0.1732 0.7517 0.9641 0.0400 Uiso
Co5 Co 0.67940(4) 0.76154(4) 0.71773(3) 0.0179 Uani
Co6 Co 0.67495(4) 0.77125(4) 0.88817(3) 0.0183 Uani
C13 C 0.6683(3) 0.0803(3) 0.8265(3) 0.0243 Uani
C14 C 0.6856(4) 0.1307(4) 0.7597(3) 0.0302 Uani
H7 H 0.6980 0.0930 0.7092 0.0360 Uiso
C15 C 0.6850(4) 0.2384(3) 0.7660(3) 0.0277 Uani
C16 C 0.7037(5) 0.2918(4) 0.6974(3) 0.0400 Uani
H8 H 0.7175 0.2555 0.6467 0.0480 Uiso
C17 C 0.7015(5) 0.3956(4) 0.7061(3) 0.0416 Uani
H9 H 0.7142 0.4294 0.6609 0.0500 Uiso
C18 C 0.6803(4) 0.4536(3) 0.7823(3) 0.0291 Uani
C19 C 0.6619(4) 0.4025(4) 0.8488(3) 0.0333 Uani
H10 H 0.6479 0.4399 0.8991 0.0400 Uiso
C20 C 0.6638(4) 0.2950(4) 0.8424(3) 0.0299 Uani
C21 C 0.6467(4) 0.2418(4) 0.9105(3) 0.0366 Uani
H11 H 0.6329 0.2784 0.9611 0.0440 Uiso
C22 C 0.6500(4) 0.1387(4) 0.9034(3) 0.0330 Uani
H12 H 0.6402 0.1056 0.9495 0.0400 Uiso
C70 C 0.6790(4) 0.5669(4) 0.7901(3) 0.0297 Uani
O15 O 0.6743(3) 0.6154(2) 0.8618(2) 0.0395 Uani
O16 O 0.6811(3) 0.6083(2) 0.7242(2) 0.0367 Uani
N1 N 0.6901(3) 0.7737(3) 0.0160(2) 0.0268 Uani
C25 C 0.7733(4) 0.7436(4) 0.0554(3) 0.0377 Uani
H13 H 0.8280 0.7235 0.0246 0.0450 Uiso
C26 C 0.7833(4) 0.7405(5) 0.1403(3) 0.0431 Uani
H14 H 0.8440 0.7194 0.1654 0.0520 Uiso
C27 C 0.7039(4) 0.7685(4) 0.1879(3) 0.0336 Uani
C28 C 0.6183(5) 0.8039(6) 0.1482(3) 0.0608 Uani
C29 C 0.6135(5) 0.8061(6) 0.0624(3) 0.0595 Uani
C30 C 0.7137(4) 0.7632(4) 0.2784(3) 0.0384 Uani
H15 H 0.7793 0.7627 0.3040 0.0460 Uiso
C31 C 0.6381(4) 0.7590(4) 0.3259(3) 0.0362 Uani
H16 H 0.5724 0.7592 0.3004 0.0430 Uiso
C32 C 0.6485(4) 0.7542(4) 0.4168(3) 0.0283 Uani
C33 C 0.7419(4) 0.7621(4) 0.4622(3) 0.0328 Uani
H17 H 0.8014 0.7665 0.4354 0.0390 Uiso
C36 C 0.5617(4) 0.7434(4) 0.4592(3) 0.0350 Uani
C71 C 0.7466(4) 0.7634(4) 0.5479(3) 0.0287 Uani
C72 C 0.5722(4) 0.7442(4) 0.5442(3) 0.0303 Uani
N4 N 0.6631(3) 0.7542(3) 0.5894(2) 0.0220 Uani
H37 H 0.5138 0.7374 0.5720 0.0360 Uiso
H38 H 0.8099 0.7709 0.5778 0.0350 Uiso
H124 H 0.554414 0.830153 0.183496 . .
H125 H 0.545295 0.835087 0.031773 . .
H127 H 0.486746 0.734469 0.425495 . .
O3 O 0.8329(2) 0.7640(3) 0.7378(2) 0.0324 Uani
O4 O 0.8270(2) 0.7712(3) 0.8751(2) 0.0341 Uani
O5 O 0.6783(3) 0.9179(2) 0.7471(2) 0.0314 Uani
O6 O 0.6732(3) 0.9257(2) 0.8851(2) 0.0332 Uani
C12 C 0.8735(3) 0.7654(3) 0.8096(3) 0.0238 Uani
C23 C 0.6740(3) 0.9657(3) 0.8190(3) 0.0245 Uani
C58 C 0.9887(3) 0.7621(3) 0.8209(3) 0.0234 Uani
H36 H 0.9988 0.7514 0.9448 0.0370 Uiso
Co23 Co 0.00227(4) 0.99492(4) 0.41409(3) 0.0176 Uani
H78 H 0.101(4) 0.029(4) 0.006(4) 0.0400 Uiso
O35 O 0.0043(3) 0.1512(2) 0.4418(2) 0.0313 Uani
C123 C 0.0216(4) 0.3654(4) 0.4580(3) 0.0298 Uani
H66 H 0.0453 0.3290 0.4106 0.0360 Uiso
C124 C 0.0185(4) 0.4723(3) 0.4645(3) 0.0270 Uani
C125 C 0.0523(4) 0.5279(4) 0.4010(3) 0.0406 Uani
H67 H 0.0788 0.4929 0.3543 0.0480 Uiso
O37 O 0.1507(2) 0.0027(3) 0.5723(2) 0.0305 Uani
N11 N 0.0128(3) 0.0146(3) 0.7142(2) 0.0242 Uani
C129 C 0.1033(4) 0.0183(4) 0.7581(3) 0.0298 Uani
H69 H 0.162(4) 0.019(4) 0.730(3) 0.0360 Uiso
C130 C 0.1136(4) 0.0208(4) 0.8441(3) 0.0332 Uani
H70 H 0.178(4) 0.025(4) 0.872(3) 0.0400 Uiso
C131 C 0.0271(4) 0.0170(4) 0.8878(3) 0.0287 Uani
C134 C 0.0374(4) 0.0128(4) 0.9778(3) 0.0334 Uani
C143 C 0.0095(3) 0.6871(3) 0.4796(3) 0.0257 Uani
C144 C 0.0030(3) 0.8006(3) 0.4870(3) 0.0250 Uani
O42 O 0.0026(3) 0.8413(2) 0.4210(2) 0.0335 Uani
C145 C 0.0457(5) 0.6312(4) 0.4086(3) 0.0415 Uani
H79 H 0.0657 0.6658 0.3658 0.0500 Uiso
C163 C 0.3676(3) 0.0065(3) 0.4522(3) 0.0231 Uani
H91 H 0.3344 0.0159 0.4011 0.0280 Uiso
C166 C 0.4748(3) 0.0070(3) 0.4608(3) 0.0220 Uani
C170 C 0.5355(3) 0.0215(4) 0.3942(3) 0.0254 Uani
C175 C 0.6889(3) 0.0075(3) 0.4825(3) 0.0229 Uani
C177 C 0.8024(3) 0.0032(3) 0.4923(3) 0.0239 Uani
C178 C 0.6384(3) 0.0215(4) 0.4045(3) 0.0255 Uani
H98 H 0.5038 0.0311 0.3427 0.0310 Uiso
O46 O 0.8442(2) 0.0053(3) 0.5652(2) 0.0306 Uani
Co22 Co 0.99773(4) 0.00508(4) 0.58591(3) 0.0176 Uani
H122 H 0.6763 0.0307 0.3600 0.0310 Uiso
C139 C 0.0712(4) 0.9871(4) 0.2437(3) 0.0343 Uani
C140 C 0.0664(4) 0.9853(5) 0.1584(3) 0.0365 Uani
H73 H 0.126(4) 0.986(4) 0.132(4) 0.0440 Uiso
H74 H 0.135(4) 0.990(4) 0.273(4) 0.0410 Uiso
O34 O 0.1558(2) 0.9947(3) 0.4348(2) 0.0306 Uani
C127 C 0.1976(3) 0.9968(3) 0.5077(3) 0.0239 Uani
C154 C 0.3111(3) 0.9925(3) 0.5175(3) 0.0229 Uani
C164 C 0.3616(3) 0.9785(4) 0.5955(3) 0.0255 Uani
C165 C 0.4645(3) 0.9785(4) 0.6058(3) 0.0254 Uani
H90 H 0.3237 0.9693 0.6400 0.0310 Uiso
C169 C 0.5252(3) 0.9930(3) 0.5392(3) 0.0220 Uani
H94 H 0.4962 0.9689 0.6573 0.0310 Uiso
C173 C 0.6324(3) 0.9935(3) 0.5478(3) 0.0231 Uani
H96 H 0.6656 0.9841 0.5989 0.0280 Uiso
O45 O 0.8493(2) 0.9973(3) 0.4277(2) 0.0305 Uani
C121 C 0.9970(3) 0.1994(3) 0.5130(3) 0.0250 Uani
C122 C 0.9905(3) 0.3129(3) 0.5204(3) 0.0257 Uani
C126 C 0.9543(5) 0.3688(4) 0.5914(3) 0.0415 Uani
H68 H 0.9343 0.3342 0.6342 0.0500 Uiso
O40 O 0.9974(3) 0.1587(2) 0.5790(2) 0.0335 Uani
C132 C 0.9336(4) 0.0147(5) 0.8416(3) 0.0365 Uani
H71 H 0.874(4) 0.014(4) 0.868(4) 0.0440 Uiso
C133 C 0.9288(4) 0.0129(4) 0.7563(3) 0.0343 Uani
H72 H 0.865(4) 0.010(4) 0.727(4) 0.0410 Uiso
C141 C 0.9815(4) 0.5277(3) 0.5355(3) 0.0270 Uani
C142 C 0.9784(4) 0.6346(4) 0.5420(3) 0.0298 Uani
O41 O 0.9957(3) 0.8488(2) 0.5582(2) 0.0313 Uani
H80 H 0.9547 0.6710 0.5894 0.0360 Uiso
C146 C 0.9477(4) 0.4721(4) 0.5990(3) 0.0406 Uani
H81 H 0.9212 0.5071 0.6457 0.0480 Uiso
C135 C 0.9626(4) 0.9872(4) 0.0222(3) 0.0334 Uani
C136 C 0.9729(4) 0.9830(4) 0.1122(3) 0.0287 Uani
C137 C 0.8864(4) 0.9792(4) 0.1559(3) 0.0332 Uani
C138 C 0.8967(4) 0.9817(4) 0.2419(3) 0.0298 Uani
N12 N 0.9872(3) 0.9854(3) 0.2858(2) 0.0242 Uani
H75 H 0.838(4) 0.981(4) 0.270(3) 0.0360 Uiso
H76 H 0.822(4) 0.975(4) 0.128(3) 0.0400 Uiso
H77 H 0.899(4) 0.971(4) 0.994(4) 0.0400 Uiso
loop_
_atom_site_aniso_label
_atom_site_aniso_U_11
_atom_site_aniso_U_22
_atom_site_aniso_U_33
_atom_site_aniso_U_23
_atom_site_aniso_U_13
_atom_site_aniso_U_12
C105 0.012 0.027 0.031 0.003 0.0016 0.0023
C107 0.016 0.027 0.029 0.0056 0.0027 0.0011
O23 0.0185 0.049 0.0306 0.0094 0.0002 -0.001
O24 0.0169 0.054 0.0329 0.0091 0.0063 0.0007
Co14 0.0164 0.0217 0.0161 0.004 0.0015 -0.0003
Co15 0.0166 0.0221 0.0169 0.0044 0.0023 0.0002
O27 0.0187 0.049 0.0321 0.0053 0.0063 -0.0002
O28 0.042 0.0193 0.0325 0.0031 0.0016 0.0004
O29 0.05 0.0225 0.039 0.0107 0.0021 0
N8 0.0211 0.026 0.0188 0.0025 0.0013 -0.0021
O30 0.0183 0.059 0.0315 0.0116 0.0012 -0.0008
O31 0.047 0.023 0.0308 0.008 0.0037 0.0009
O32 0.059 0.0224 0.037 0.0037 0.004 0.0026
N9 0.03 0.032 0.0195 0.0055 0.0042 0.0039
C85 0.018 0.026 0.03 0.006 0.0007 -0.0018
C86 0.017 0.027 0.033 0.0069 0.0033 0.0002
C88 0.016 0.03 0.029 0.0074 0.0008 -0.0016
C91 0.018 0.043 0.026 0.008 -0.0002 0.0017
C92 0.024 0.044 0.025 0.009 0.0047 0.002
C95 0.021 0.052 0.023 0.013 0.0019 0.005
C96 0.022 0.037 0.026 0.01 0.0033 0.0039
C99 0.019 0.03 0.025 0.0054 0.0013 0.004
C100 0.02 0.054 0.027 0.013 0.0023 0.003
C101 0.018 0.03 0.026 0.0071 -0.0026 0.0023
C102 0.024 0.045 0.026 0.009 0.007 0.004
C73 0.038 0.055 0.022 0.009 0.007 0.014
C74 0.041 0.118 0.022 0.013 0.008 0.027
C75 0.037 0.065 0.031 0.019 0.003 0.013
C76 0.048 0.116 0.022 0.017 0.008 0.03
C77 0.043 0.04 0.019 0.007 0.005 0.001
C78 0.041 0.056 0.019 0.009 0 0.002
C79 0.037 0.051 0.02 0.004 -0.001 -0.004
C80 0.029 0.038 0.017 0.0031 -0.0022 -0.004
C81 0.03 0.047 0.022 0.004 0.007 -0.005
C82 0.034 0.045 0.025 0.001 0.002 -0.006
C83 0.026 0.041 0.021 0.009 0.0047 0.004
C84 0.024 0.042 0.025 0.006 0.0008 -0.004
C87 0.026 0.019 0.028 0.0036 0.0009 0.0022
C89 0.04 0.024 0.026 0.0013 0.003 -0.001
C90 0.045 0.027 0.029 0.008 0.009 0
C93 0.038 0.021 0.025 0.0049 0.005 0.0025
C94 0.065 0.022 0.024 0.0017 0.012 0.007
C97 0.073 0.022 0.026 0 0.015 -0.002
C98 0.037 0.025 0.027 0.0022 0 0
C103 0.049 0.023 0.028 0.0021 0.004 0.007
C104 0.065 0.029 0.035 0.013 0.015 0.008
C106 0.036 0.017 0.034 0.0051 -0.002 0.0002
C108 0.026 0.024 0.039 0.006 0 -0.0031
C59 0.024 0.045 0.026 0.009 0.007 0.004
C60 0.02 0.054 0.027 0.013 0.0023 0.003
C61 0.022 0.037 0.026 0.01 0.0033 0.0039
C62 0.018 0.043 0.026 0.008 -0.0002 0.0017
C63 0.016 0.03 0.029 0.0074 0.0008 -0.0016
C64 0.024 0.044 0.025 0.009 0.0047 0.002
C65 0.021 0.052 0.023 0.013 0.0019 0.005
C66 0.019 0.03 0.025 0.0054 0.0013 0.004
C67 0.018 0.03 0.026 0.0071 -0.0026 0.0023
C68 0.017 0.027 0.033 0.0069 0.0033 0.0002
O11 0.0183 0.059 0.0315 0.0116 0.0012 -0.0008
O12 0.0187 0.049 0.0321 0.0053 0.0063 -0.0002
Co5 0.0164 0.0217 0.0161 0.004 0.0015 -0.0003
Co6 0.0166 0.0221 0.0169 0.0044 0.0023 0.0002
C13 0.026 0.019 0.028 0.0036 0.0009 0.0022
C14 0.04 0.024 0.026 0.0013 0.003 -0.001
C15 0.038 0.021 0.025 0.0049 0.005 0.0025
C16 0.073 0.022 0.026 0 0.015 -0.002
C17 0.065 0.029 0.035 0.013 0.015 0.008
C18 0.036 0.017 0.034 0.0051 -0.002 0.0002
C19 0.049 0.023 0.028 0.0021 0.004 0.007
C20 0.037 0.025 0.027 0.0022 0 0
C21 0.065 0.022 0.024 0.0017 0.012 0.007
C22 0.045 0.027 0.029 0.008 0.009 0
C70 0.026 0.024 0.039 0.006 0 -0.0031
O15 0.059 0.0224 0.037 0.0037 0.004 0.0026
O16 0.05 0.0225 0.039 0.0107 0.0021 0
N1 0.03 0.032 0.0195 0.0055 0.0042 0.0039
C25 0.038 0.055 0.022 0.009 0.007 0.014
C26 0.037 0.065 0.031 0.019 0.003 0.013
C27 0.043 0.04 0.019 0.007 0.005 0.001
C28 0.048 0.116 0.022 0.017 0.008 0.03
C29 0.041 0.118 0.022 0.013 0.008 0.027
C30 0.041 0.056 0.019 0.009 0 0.002
C31 0.037 0.051 0.02 0.004 -0.001 -0.004
C32 0.029 0.038 0.017 0.0031 -0.0022 -0.004
C33 0.03 0.047 0.022 0.004 0.007 -0.005
C36 0.034 0.045 0.025 0.001 0.002 -0.006
C71 0.026 0.041 0.021 0.009 0.0047 0.004
C72 0.024 0.042 0.025 0.006 0.0008 -0.004
N4 0.0211 0.026 0.0188 0.0025 0.0013 -0.0021
O3 0.0185 0.049 0.0306 0.0094 0.0002 -0.001
O4 0.0169 0.054 0.0329 0.0091 0.0063 0.0007
O5 0.042 0.0193 0.0325 0.0031 0.0016 0.0004
O6 0.047 0.023 0.0308 0.008 0.0037 0.0009
C12 0.016 0.027 0.029 0.0056 0.0027 0.0011
C23 0.018 0.026 0.03 0.006 0.0007 -0.0018
C58 0.012 0.027 0.031 0.003 0.0016 0.0023
Co23 0.0163 0.0208 0.0163 0.004 0.0017 0.0003
O35 0.041 0.0176 0.0354 0.0051 0.0015 -0.0001
C123 0.038 0.022 0.03 0.0057 0.003 0.002
C124 0.033 0.021 0.028 0.0055 0.004 0.0009
C125 0.062 0.03 0.033 0.007 0.018 0.006
O37 0.0164 0.045 0.0317 0.0081 0.0065 0.0024
N11 0.026 0.026 0.0217 0.005 0.0054 0.0016
C129 0.022 0.047 0.021 0.005 0.0047 -0.004
C130 0.027 0.051 0.022 0.008 0 -0.006
C131 0.03 0.038 0.019 0.0068 0.0029 0
C134 0.035 0.047 0.017 0.001 -0.0004 -0.004
C143 0.026 0.021 0.03 0.0042 0.0005 -0.0024
C144 0.022 0.023 0.031 0.008 0.0005 0.0022
O42 0.045 0.0198 0.0379 0.0097 0.0071 0.0022
C145 0.062 0.026 0.041 0.014 0.016 0.002
C163 0.017 0.031 0.021 0.0031 0.0007 0.0014
C166 0.019 0.026 0.022 0.0067 0.0026 0.0021
C170 0.02 0.04 0.018 0.0111 0.0006 0.0003
C175 0.015 0.027 0.027 0.0043 0.0026 0.0014
C177 0.016 0.025 0.032 0.0083 0.0031 -0.0029
C178 0.018 0.039 0.022 0.0107 0.0067 0.0019
O46 0.017 0.044 0.0306 0.0059 -0.0009 -0.0003
Co22 0.0163 0.0208 0.0163 0.004 0.0017 0.0003
C139 0.026 0.056 0.022 0.01 0.001 0.003
C140 0.024 0.065 0.021 0.006 0.004 -0.001
O34 0.017 0.044 0.0306 0.0059 -0.0009 -0.0003
C127 0.016 0.025 0.032 0.0083 0.0031 -0.0029
C154 0.015 0.027 0.027 0.0043 0.0026 0.0014
C164 0.018 0.039 0.022 0.0107 0.0067 0.0019
C165 0.02 0.04 0.018 0.0111 0.0006 0.0003
C169 0.019 0.026 0.022 0.0067 0.0026 0.0021
C173 0.017 0.031 0.021 0.0031 0.0007 0.0014
O45 0.0164 0.045 0.0317 0.0081 0.0065 0.0024
C121 0.022 0.023 0.031 0.008 0.0005 0.0022
C122 0.026 0.021 0.03 0.0042 0.0005 -0.0024
C126 0.062 0.026 0.041 0.014 0.016 0.002
O40 0.045 0.0198 0.0379 0.0097 0.0071 0.0022
C132 0.024 0.065 0.021 0.006 0.004 -0.001
C133 0.026 0.056 0.022 0.01 0.001 0.003
C141 0.033 0.021 0.028 0.0055 0.004 0.0009
C142 0.038 0.022 0.03 0.0057 0.003 0.002
O41 0.041 0.0176 0.0354 0.0051 0.0015 -0.0001
C146 0.062 0.03 0.033 0.007 0.018 0.006
C135 0.035 0.047 0.017 0.001 -0.0004 -0.004
C136 0.03 0.038 0.019 0.0068 0.0029 0
C137 0.027 0.051 0.022 0.008 0 -0.006
C138 0.022 0.047 0.021 0.005 0.0047 -0.004
N12 0.026 0.026 0.0217 0.005 0.0054 0.0016
loop_
_geom_bond_atom_site_label_1
_geom_bond_atom_site_label_2
_geom_bond_site_symmetry_1
_geom_bond_site_symmetry_2
C107 C105 1_555 1_555
O23 C107 1_555 1_555
O24 C107 1_555 1_555
Co14 O23 1_555 1_555
Co15 O24 1_555 1_555
O27 Co14 1_555 1_555
O28 Co14 1_555 1_555
O29 Co14 1_555 1_555
N8 Co14 1_555 1_555
O30 Co15 1_555 1_555
O31 Co15 1_555 1_555
O32 Co15 1_555 1_555
Co14 Co15 1_555 1_555
C85 O28 1_555 1_555
C86 O27 1_555 1_555
C88 C86 1_555 1_555
C91 C88 1_555 1_555
C92 C88 1_555 1_555
C95 C92 1_555 1_555
H48 C92 1_555 1_555
H49 C91 1_555 1_555
C96 C91 1_555 1_555
C99 C95 1_555 1_555
H51 C95 1_555 1_555
C100 C96 1_555 1_555
C101 C99 1_555 1_555
H52 C100 1_555 1_555
C102 C100 1_555 1_555
H54 C101 1_555 1_555
O30 C86 1_555 1_555
O31 C85 1_555 1_555
C96 C99 1_555 1_555
C73 N9 1_555 1_555
C74 N9 1_555 1_555
H39 C73 1_555 1_555
C75 C73 1_555 1_555
C76 C74 1_555 1_555
H40 C75 1_555 1_555
C77 C75 1_555 1_555
C78 C77 1_555 1_555
H41 C78 1_555 1_555
C79 C78 1_555 1_555
H42 C79 1_555 1_555
C80 C79 1_555 1_555
C81 C80 1_555 1_555
C82 C80 1_555 1_555
H43 C81 1_555 1_555
C83 C81 1_555 1_555
C84 C82 1_555 1_555
N8 C83 1_555 1_555
H44 C83 1_555 1_555
H45 C84 1_555 1_555
C76 C77 1_555 1_555
C84 N8 1_555 1_555
C74 H130 1_555 1_555
C76 H131 1_555 1_555
C82 H132 1_555 1_555
C89 C87 1_555 1_555
C90 C87 1_555 1_555
H46 C89 1_555 1_555
C93 C89 1_555 1_555
C94 C90 1_555 1_555
H47 C90 1_555 1_555
C97 C93 1_555 1_555
C98 C93 1_555 1_555
H50 C94 1_555 1_555
C103 C98 1_555 1_555
H53 C97 1_555 1_555
C104 C97 1_555 1_555
H56 C104 1_555 1_555
C106 C103 1_555 1_555
H57 C103 1_555 1_555
C108 C106 1_555 1_555
O32 C108 1_555 1_555
O29 C108 1_555 1_555
C94 C98 1_555 1_555
C104 C106 1_555 1_555
C60 C59 1_555 1_555
C61 C60 1_555 1_555
C62 C61 1_555 1_555
C63 C62 1_555 1_555
C64 C63 1_555 1_555
C65 C64 1_555 1_555
C66 C61 1_555 1_555
H31 C67 1_555 1_555
H32 C65 1_555 1_555
H33 C64 1_555 1_555
C68 C63 1_555 1_555
O11 C68 1_555 1_555
O12 C68 1_555 1_555
H34 C62 1_555 1_555
H35 C60 1_555 1_555
Co5 O12 1_555 1_555
Co6 O11 1_555 1_555
C65 C66 1_555 1_555
C66 C67 1_555 1_555
Co5 Co6 1_555 1_555
C13 C14 1_555 1_555
C14 H7 1_555 1_555
C15 C14 1_555 1_555
C16 C15 1_555 1_555
H8 C16 1_555 1_555
C17 C16 1_555 1_555
H9 C17 1_555 1_555
C18 C17 1_555 1_555
C19 C18 1_555 1_555
H10 C19 1_555 1_555
C20 C15 1_555 1_555
C21 C20 1_555 1_555
H11 C21 1_555 1_555
C22 C13 1_555 1_555
H12 C22 1_555 1_555
C70 C18 1_555 1_555
O15 C70 1_555 1_555
O16 C70 1_555 1_555
Co6 O15 1_555 1_555
Co5 O16 1_555 1_555
C19 C20 1_555 1_555
C21 C22 1_555 1_555
C25 N1 1_555 1_555
H13 C25 1_555 1_555
C26 C25 1_555 1_555
H14 C26 1_555 1_555
C27 C26 1_555 1_555
C28 C27 1_555 1_555
C29 N1 1_555 1_555
C30 C27 1_555 1_555
H15 C30 1_555 1_555
C31 C30 1_555 1_555
H16 C31 1_555 1_555
C32 C31 1_555 1_555
C33 C32 1_555 1_555
H17 C33 1_555 1_555
C36 C32 1_555 1_555
C71 C33 1_555 1_555
C72 C36 1_555 1_555
N4 C71 1_555 1_555
H37 C72 1_555 1_555
H38 C71 1_555 1_555
Co5 N4 1_555 1_555
C28 C29 1_555 1_555
C72 N4 1_555 1_555
C28 H124 1_555 1_555
C29 H125 1_555 1_555
C36 H127 1_555 1_555
O3 Co5 1_555 1_555
O4 Co6 1_555 1_555
O5 Co5 1_555 1_555
O6 Co6 1_555 1_555
C12 O3 1_555 1_555
C23 O5 1_555 1_555
C58 C12 1_555 1_555
O4 C12 1_555 1_555
O6 C23 1_555 1_555
H66 C123 1_555 1_555
C124 C123 1_555 1_555
C125 C124 1_555 1_555
H67 C125 1_555 1_555
C129 N11 1_555 1_555
H69 C129 1_555 1_555
C130 C129 1_555 1_555
H70 C130 1_555 1_555
C131 C130 1_555 1_555
C134 C131 1_555 1_555
C144 C143 1_555 1_555
O42 C144 1_555 1_555
C145 C125 1_555 1_555
H79 C145 1_555 1_555
H91 C163 1_555 1_555
C166 C163 1_555 1_555
C170 C166 1_555 1_555
C177 C175 1_555 1_555
C178 C170 1_555 1_555
H98 C170 1_555 1_555
O46 C177 1_555 1_555
Co22 O46 1_555 1_555
Co23 O42 1_555 1_555
H122 C178 1_555 1_555
C143 C145 1_555 1_555
C175 C178 1_555 1_555
H73 C140 1_555 1_555
H74 C139 1_555 1_555
C139 C140 1_555 1_555
O34 Co23 1_555 1_555
C127 O34 1_555 1_555
C154 C127 1_555 1_555
C164 C154 1_555 1_555
C165 C164 1_555 1_555
H90 C164 1_555 1_555
C169 C165 1_555 1_555
H94 C165 1_555 1_555
C173 C169 1_555 1_555
H96 C173 1_555 1_555
C122 C121 1_555 1_555
C126 C122 1_555 1_555
H68 C126 1_555 1_555
O40 C121 1_555 1_555
H71 C132 1_555 1_555
H72 C133 1_555 1_555
C142 C141 1_555 1_555
H80 C142 1_555 1_555
C146 C126 1_555 1_555
H81 C146 1_555 1_555
Co22 O40 1_555 1_555
C132 C133 1_555 1_555
C141 C146 1_555 1_555
C136 C135 1_555 1_555
C137 C136 1_555 1_555
C138 C137 1_555 1_555
N12 C138 1_555 1_555
H75 C138 1_555 1_555
H76 C137 1_555 1_555

#END
