
###############################################################################
#
# This file contains modified crystal structure data generated from the
# MOF subset of the Cambridge Structural Database (CSD) v543 
# hosted by the Cambridge Crystallographic Data Centre (CCDC).
#
# This work is licensed under the Creative Commons
# Attribution-NonCommercial-ShareAlike 4.0 International License.
# To view a copy of this license, visit
# http://creativecommons.org/licenses/by-nc-sa/4.0/
# or send a letter to
# Creative Commons, PO Box 1866, Mountain View, CA 94042, USA.
#
# CIF created using the CSD Python API on 29 September 2022
# The structure has been converted into the P1 space group
# The structure has a 3D framework
# The original CSD entry DAJWET is in the hexagonal crystal system
# The framework has been calculated to contain at least 10.0% void space
# The void calculation uses a probe of radius 1.32A, grid spacing 0.4
# The framework is charged, counterions have been retained in the structure
# H atom positions have been added when not included in the experimental data
# Generated hydrogen atom positions removed from atoms on special positions
#
###############################################################################

data_DAJWET
_chemical_formula_moiety         '(C144 H154 Mg6 N22 O32 3-)n'
_symmetry_cell_setting           triclinic
_symmetry_space_group_name_H-M   'P 1'
_symmetry_Int_Tables_number      1
_space_group_name_Hall           'P 1'
loop_
_symmetry_equiv_pos_site_id
_symmetry_equiv_pos_as_xyz
1 x,y,z
_cell_length_a                   31.848(8)
_cell_length_b                   31.848(8)
_cell_length_c                   16.883(5)
_cell_angle_alpha                90
_cell_angle_beta                 90
_cell_angle_gamma                120
_cell_volume                     14830.1
loop_
_atom_site_label
_atom_site_type_symbol
_atom_site_fract_x
_atom_site_fract_y
_atom_site_fract_z
N9 N 0.5000 0.0000 0.1184(6)
H53 H 0.5000 0.0000 0.0674
C107 C 0.52020(23) 0.0404(2) 0.1723(6)
O22 O 0.65967(14) 0.24971(10) 0.4134(2)
C108 C 0.54405(23) 0.0881(2) 0.1423(5)
N11 N 0.53701(33) 0.0740(3) 0.0000
C109 C 0.61785(21) 0.23570(19) 0.3893(4)
C110 C 0.55131(33) 0.1026(3) 0.0652(6)
C111 C 0.59916(21) 0.19831(19) 0.3248(5)
C112 C 0.56348(22) 0.1270(2) 0.2083(5)
C113 C 0.57635(23) 0.1527(2) 0.0394(5)
H58 H 0.5900 0.1799 0.0720
C114 C 0.62646(27) 0.1799(2) 0.2941(4)
H59 H 0.6584 0.1929 0.3110
C115 C 0.6087(3) 0.1433(2) 0.2396(5)
H60 H 0.6271 0.1295 0.2240
C116 C 0.51246(23) 0.0249(2) 0.2513(7)
H61 H 0.5223 0.0447 0.2958
O28 O 0.59004(10) 0.24971(10) 0.4134(2)
C143 C 0.55344(18) 0.1799(2) 0.2941(4)
H77 H 0.5345 0.1929 0.3110
C144 C 0.5346(2) 0.1433(2) 0.2396(5)
H78 H 0.5024 0.1295 0.2240
Mg16 Mg 0.59475(8) 0.29737(9) 0.5000
Mg19 Mg 0.70263(9) 0.29738(4) 0.5000
N11_2 N 0.53701(33) 0.0740(3) 1.0000
C117 C 0.52020(11) 0.0404(2) 0.8277(6)
N12 N 0.5000 0.0000 0.8816(6)
H62 H 0.5000 0.0000 0.9326
O23 O 0.59004(10) 0.24971(10) 0.5866(2)
C118 C 0.54405(11) 0.0881(2) 0.8577(5)
C119 C 0.61785(10) 0.23570(19) 0.6107(4)
C120 C 0.55129(14) 0.1026(3) 0.9348(6)
C121 C 0.59915(9) 0.19831(19) 0.6752(5)
C122 C 0.56352(10) 0.1270(2) 0.7917(5)
C123 C 0.57635(11) 0.1527(2) 0.9606(5)
H63 H 0.5899 0.1799 0.9280
C124 C 0.55344(18) 0.1799(2) 0.7059(4)
H64 H 0.5345 0.1929 0.6890
C125 C 0.5346(2) 0.1433(2) 0.7604(5)
H65 H 0.5024 0.1295 0.7760
C126 C 0.51244(12) 0.0249(2) 0.7487(7)
H66 H 0.5224 0.0447 0.7042
O25 O 0.65967(14) 0.24971(10) 0.5866(2)
C137 C 0.62646(27) 0.1799(2) 0.7059(4)
H71 H 0.6584 0.1929 0.6890
C138 C 0.6087(3) 0.1433(2) 0.7604(5)
H72 H 0.6271 0.1295 0.7760
Mg1 Mg 0.29738(4) 0.59475(8) 0.5000
O1 O 0.25861(11) 0.5172(2) 0.5000
C1 C 0.0404(2) 0.52020(11) 0.1723(6)
N1 N -0.0000 0.5000 0.1184(6)
H1 H -0.0000 0.5000 0.0674
O2 O 0.24971(10) 0.59004(10) 0.4134(2)
C2 C 0.0881(2) 0.54405(11) 0.1423(5)
N2 N 0.0740(3) 0.53699(14) 0.0000
C3 C 0.23570(19) 0.61785(10) 0.3893(4)
C4 C 0.1026(3) 0.55129(14) 0.0652(6)
O3 O 0.3333 0.6667 0.5000
C5 C 0.19831(19) 0.59915(9) 0.3248(5)
C6 C 0.1270(2) 0.56352(10) 0.2083(5)
C7 C 0.1527(2) 0.57635(11) 0.0394(5)
H2 H 0.1799 0.5899 0.0720
C8 C 0.1799(2) 0.55344(18) 0.2941(4)
H3 H 0.1929 0.5345 0.3110
C9 C 0.1433(2) 0.5346(2) 0.2396(5)
H4 H 0.1295 0.5024 0.2240
C10 C 0.0249(2) 0.51244(12) 0.2513(7)
H5 H 0.0447 0.5224 0.2958
O9 O 0.24971(10) 0.65967(14) 0.4134(2)
C45 C 0.1799(2) 0.62646(27) 0.2941(4)
H23 H 0.1929 0.6584 0.3110
C46 C 0.1433(2) 0.6087(3) 0.2396(5)
H24 H 0.1295 0.6271 0.2240
Mg2 Mg 0.40525(8) 0.70263(9) 0.5000
O11 O 0.4828(2) 0.74141(23) 0.5000
C49 C 0.47980(11) 0.52020(23) 0.1723(6)
N5 N 0.5000 0.5000 0.1184(6)
H27 H 0.5000 0.5000 0.0674
O12 O 0.40996(10) 0.65967(14) 0.4134(2)
C50 C 0.45595(11) 0.54405(23) 0.1423(5)
N6 N 0.46301(14) 0.53701(33) 0.0000
C51 C 0.38215(10) 0.61785(21) 0.3893(4)
C52 C 0.44871(14) 0.55131(33) 0.0652(6)
C53 C 0.40085(9) 0.59916(21) 0.3248(5)
C54 C 0.43648(10) 0.56348(22) 0.2083(5)
C55 C 0.42365(11) 0.57635(23) 0.0394(5)
H28 H 0.4101 0.5900 0.0720
C56 C 0.44656(18) 0.62646(27) 0.2941(4)
H29 H 0.4655 0.6584 0.3110
C57 C 0.4654(2) 0.6087(3) 0.2396(5)
H30 H 0.4976 0.6271 0.2240
C58 C 0.48756(12) 0.51246(23) 0.2513(7)
H31 H 0.4776 0.5223 0.2958
C59 C 0.52020(11) 0.47980(23) 0.1723(6)
O13 O 0.59004(10) 0.34033(14) 0.4134(2)
C60 C 0.54405(11) 0.45595(23) 0.1423(5)
N7 N 0.53699(14) 0.46299(33) 0.0000
C61 C 0.61785(10) 0.38215(21) 0.3893(4)
C62 C 0.55129(14) 0.44869(33) 0.0652(6)
C63 C 0.59915(9) 0.40084(21) 0.3248(5)
C64 C 0.56352(10) 0.43652(22) 0.2083(5)
C65 C 0.57635(11) 0.42365(23) 0.0394(5)
H32 H 0.5899 0.4100 0.0720
C66 C 0.55344(18) 0.37354(27) 0.2941(4)
H33 H 0.5345 0.3416 0.3110
C67 C 0.5346(2) 0.3913(3) 0.2396(5)
H34 H 0.5024 0.3729 0.2240
C68 C 0.51244(12) 0.48754(23) 0.2513(7)
H35 H 0.5224 0.4777 0.2958
O18 O 0.34033(14) 0.59004(10) 0.4134(2)
C93 C 0.37354(27) 0.55344(18) 0.2941(4)
H49 H 0.3416 0.5345 0.3110
C94 C 0.3913(3) 0.5346(2) 0.2396(5)
H50 H 0.3729 0.5024 0.2240
O19 O 0.65967(14) 0.40996(10) 0.4134(2)
C95 C 0.62646(27) 0.44656(18) 0.2941(4)
H51 H 0.6584 0.4655 0.3110
C96 C 0.6087(3) 0.4654(2) 0.2396(5)
H52 H 0.6271 0.4976 0.2240
Mg3 Mg 0.29737(9) 0.70262(4) 0.5000
O20 O 0.25859(23) 0.74139(11) 0.5000
C97 C 0.47980(23) 0.9596(2) 0.1723(6)
N9_2 N 0.5000 1.0000 0.1184(6)
H53_2 H 0.5000 1.0000 0.0674
O21 O 0.34033(14) 0.75029(10) 0.4134(2)
C98 C 0.45595(23) 0.9119(2) 0.1423(5)
N10 N 0.46299(33) 0.9260(3) 0.0000
C99 C 0.38215(21) 0.76430(19) 0.3893(4)
C100 C 0.44869(33) 0.8974(3) 0.0652(6)
C101 C 0.40084(21) 0.80169(19) 0.3248(5)
C102 C 0.43652(22) 0.8730(2) 0.2083(5)
C103 C 0.42365(23) 0.8473(2) 0.0394(5)
H54 H 0.4100 0.8201 0.0720
C104 C 0.37354(27) 0.8201(2) 0.2941(4)
H55 H 0.3416 0.8071 0.3110
C105 C 0.3913(3) 0.8567(2) 0.2396(5)
H56 H 0.3729 0.8705 0.2240
C106 C 0.48754(23) 0.9751(2) 0.2513(7)
H57 H 0.4777 0.9553 0.2958
O27 O 0.40996(10) 0.75029(10) 0.4134(2)
C141 C 0.44656(18) 0.8201(2) 0.2941(4)
H75 H 0.4655 0.8071 0.3110
C142 C 0.4654(2) 0.8567(2) 0.2396(5)
H76 H 0.4976 0.8705 0.2240
Mg12 Mg 0.70262(4) 0.40525(8) 0.5000
O38 O 0.40996(10) 0.75029(10) 0.5866(2)
O39 O 0.34033(14) 0.59004(10) 0.5866(2)
O40 O 0.24971(10) 0.65967(14) 0.5866(2)
O44 O 0.24971(10) 0.59004(10) 0.5866(2)
O45 O 0.40996(10) 0.65967(14) 0.5866(2)
O46 O 0.34033(14) 0.75029(10) 0.5866(2)
N2_2 N 0.0740(3) 0.53699(14) 1.0000
N4 N -0.0000 0.5000 0.8816(6)
H10 H -0.0000 0.5000 0.9326
C31 C 0.0404(2) 0.52020(23) 0.8277(6)
C32 C 0.0881(2) 0.54405(23) 0.8577(5)
C33 C 0.23570(19) 0.61785(21) 0.6107(4)
C34 C 0.1026(3) 0.55131(33) 0.9348(6)
C35 C 0.19831(19) 0.59916(21) 0.6752(5)
C36 C 0.1270(2) 0.56348(22) 0.7917(5)
C37 C 0.1527(2) 0.57635(23) 0.9606(5)
H15 H 0.1799 0.5900 0.9280
C38 C 0.1799(2) 0.62646(27) 0.7059(4)
H16 H 0.1929 0.6584 0.6890
C39 C 0.1433(2) 0.6087(3) 0.7604(5)
H17 H 0.1295 0.6271 0.7760
C40 C 0.0249(2) 0.51246(23) 0.7487(7)
H18 H 0.0447 0.5223 0.7042
C43 C 0.1799(2) 0.55344(18) 0.7059(4)
H21 H 0.1929 0.5345 0.6890
C44 C 0.1433(2) 0.5346(2) 0.7604(5)
H22 H 0.1295 0.5024 0.7760
N6_2 N 0.46301(14) 0.53701(33) 1.0000
N7_2 N 0.53699(14) 0.46299(33) 1.0000
C69 C 0.52020(23) 0.47980(11) 0.8277(6)
N8 N 0.5000 0.5000 0.8816(6)
H36 H 0.5000 0.5000 0.9326
O14 O 0.65967(14) 0.40996(10) 0.5866(2)
C70 C 0.54405(23) 0.45595(11) 0.8577(5)
C71 C 0.61785(21) 0.38215(10) 0.6107(4)
C72 C 0.55131(33) 0.44871(14) 0.9348(6)
C73 C 0.59916(21) 0.40085(9) 0.6752(5)
C74 C 0.56348(22) 0.43648(10) 0.7917(5)
C75 C 0.57635(23) 0.42365(11) 0.9606(5)
H37 H 0.5900 0.4101 0.9280
C76 C 0.62646(27) 0.44656(18) 0.7059(4)
H38 H 0.6584 0.4655 0.6890
C77 C 0.6087(3) 0.4654(2) 0.7604(5)
H39 H 0.6271 0.4976 0.7760
C78 C 0.51246(23) 0.48756(12) 0.7487(7)
H40 H 0.5223 0.4776 0.7042
C79 C 0.47980(23) 0.52020(11) 0.8277(6)
C80 C 0.45595(23) 0.54405(11) 0.8577(5)
C81 C 0.38215(21) 0.61785(10) 0.6107(4)
C82 C 0.44869(33) 0.55129(14) 0.9348(6)
C83 C 0.40084(21) 0.59915(9) 0.6752(5)
C84 C 0.43652(22) 0.56352(10) 0.7917(5)
C85 C 0.42365(23) 0.57635(11) 0.9606(5)
H41 H 0.4100 0.5899 0.9280
C86 C 0.37354(27) 0.55344(18) 0.7059(4)
H42 H 0.3416 0.5345 0.6890
C87 C 0.3913(3) 0.5346(2) 0.7604(5)
H43 H 0.3729 0.5024 0.7760
C88 C 0.48754(23) 0.51244(12) 0.7487(7)
H44 H 0.4777 0.5224 0.7042
O16 O 0.59004(10) 0.34033(14) 0.5866(2)
C89 C 0.55344(18) 0.37354(27) 0.7059(4)
H45 H 0.5345 0.3416 0.6890
C90 C 0.5346(2) 0.3913(3) 0.7604(5)
H46 H 0.5024 0.3729 0.7760
C91 C 0.44656(18) 0.62646(27) 0.7059(4)
H47 H 0.4655 0.6584 0.6890
C92 C 0.4654(2) 0.6087(3) 0.7604(5)
H48 H 0.4976 0.6271 0.7760
N10_2 N 0.46299(33) 0.9260(3) 1.0000
N12_2 N 0.5000 1.0000 0.8816(6)
H62_2 H 0.5000 1.0000 0.9326
C127 C 0.47980(11) 0.9596(2) 0.8277(6)
C128 C 0.45595(11) 0.9119(2) 0.8577(5)
C129 C 0.38215(10) 0.76430(19) 0.6107(4)
C130 C 0.44871(14) 0.8974(3) 0.9348(6)
C131 C 0.40085(9) 0.80169(19) 0.6752(5)
C132 C 0.43648(10) 0.8730(2) 0.7917(5)
C133 C 0.42365(11) 0.8473(2) 0.9606(5)
H67 H 0.4101 0.8201 0.9280
C134 C 0.44656(18) 0.8201(2) 0.7059(4)
H68 H 0.4655 0.8071 0.6890
C135 C 0.4654(2) 0.8567(2) 0.7604(5)
H69 H 0.4976 0.8705 0.7760
C136 C 0.48756(12) 0.9751(2) 0.7487(7)
H70 H 0.4776 0.9553 0.7042
C139 C 0.37354(27) 0.8201(2) 0.7059(4)
H73 H 0.3416 0.8071 0.6890
C140 C 0.3913(3) 0.8567(2) 0.7604(5)
H74 H 0.3729 0.8705 0.7760
N1_2 N 1.0000 0.5000 0.1184(6)
H1_2 H 1.0000 0.5000 0.0674
C11 C 0.9596(2) 0.47980(11) 0.1723(6)
O4 O 0.75029(10) 0.40996(10) 0.4134(2)
C12 C 0.9119(2) 0.45595(11) 0.1423(5)
N3 N 0.9260(3) 0.46301(14) 0.0000
C13 C 0.76430(19) 0.38215(10) 0.3893(4)
C14 C 0.8974(3) 0.44871(14) 0.0652(6)
C15 C 0.80169(19) 0.40085(9) 0.3248(5)
C16 C 0.8730(2) 0.43648(10) 0.2083(5)
C17 C 0.8473(2) 0.42365(11) 0.0394(5)
H6 H 0.8201 0.4101 0.0720
C18 C 0.8201(2) 0.44656(18) 0.2941(4)
H7 H 0.8071 0.4655 0.3110
C19 C 0.8567(2) 0.4654(2) 0.2396(5)
H8 H 0.8705 0.4976 0.2240
C20 C 0.9751(2) 0.48756(12) 0.2513(7)
H9 H 0.9553 0.4776 0.2958
O10 O 0.75029(10) 0.34033(14) 0.4134(2)
C47 C 0.8201(2) 0.37354(27) 0.2941(4)
H25 H 0.8071 0.3416 0.3110
C48 C 0.8567(2) 0.3913(3) 0.2396(5)
H26 H 0.8705 0.3729 0.2240
O29 O 0.74139(11) 0.4828(2) 0.5000
O30 O 0.6667 0.3333 0.5000
O31 O 0.5172(2) 0.25859(23) 0.5000
O32 O 0.74141(23) 0.25861(11) 0.5000
O37 O 0.75029(10) 0.34033(14) 0.5866(2)
O41 O 0.75029(10) 0.40996(10) 0.5866(2)
N3_2 N 0.9260(3) 0.46301(14) 1.0000
C21 C 0.9596(2) 0.47980(23) 0.8277(6)
N4_2 N 1.0000 0.5000 0.8816(6)
H10_2 H 1.0000 0.5000 0.9326
C22 C 0.9119(2) 0.45595(23) 0.8577(5)
C23 C 0.76430(19) 0.38215(21) 0.6107(4)
C24 C 0.8974(3) 0.44869(33) 0.9348(6)
C25 C 0.80169(19) 0.40084(21) 0.6752(5)
C26 C 0.8730(2) 0.43652(22) 0.7917(5)
C27 C 0.8473(2) 0.42365(23) 0.9606(5)
H11 H 0.8201 0.4100 0.9280
C28 C 0.8201(2) 0.37354(27) 0.7059(4)
H12 H 0.8071 0.3416 0.6890
C29 C 0.8567(2) 0.3913(3) 0.7604(5)
H13 H 0.8705 0.3729 0.7760
C30 C 0.9751(2) 0.48754(23) 0.7487(7)
H14 H 0.9553 0.4777 0.7042
C41 C 0.8201(2) 0.44656(18) 0.7059(4)
H19 H 0.8071 0.4655 0.6890
C42 C 0.8567(2) 0.4654(2) 0.7604(5)
H20 H 0.8705 0.4976 0.7760
loop_
_geom_bond_atom_site_label_1
_geom_bond_atom_site_label_2
_geom_bond_site_symmetry_1
_geom_bond_site_symmetry_2
N9 H53 1_555 1_555
C107 N9 1_555 1_555
O22 C109 1_555 1_555
C108 C107 1_555 1_555
N11 C110 1_555 1_555
C109 C111 1_555 1_555
C110 C108 1_555 1_555
C111 C114 1_555 1_555
C112 C108 1_555 1_555
C113 C110 1_555 1_555
H58 C113 1_555 1_555
C114 H59 1_555 1_555
C115 C112 1_555 1_555
H60 C115 1_555 1_555
H61 C116 1_555 1_555
O28 C109 1_555 1_555
C143 C111 1_555 1_555
H77 C143 1_555 1_555
C144 C112 1_555 1_555
H78 C144 1_555 1_555
Mg16 O28 1_555 1_555
Mg19 O22 1_555 1_555
C107 C116 1_555 1_555
C114 C115 1_555 1_555
C143 C144 1_555 1_555
C117 N12 1_555 1_555
N12 H62 1_555 1_555
O23 C119 1_555 1_555
C118 C117 1_555 1_555
C119 C121 1_555 1_555
C120 N11_2 1_555 1_555
C121 C124 1_555 1_555
C122 C118 1_555 1_555
H63 C123 1_555 1_555
C124 H64 1_555 1_555
C125 C122 1_555 1_555
H65 C125 1_555 1_555
C126 C117 1_555 1_555
H66 C126 1_555 1_555
O25 C119 1_555 1_555
C137 C121 1_555 1_555
H71 C137 1_555 1_555
C138 C122 1_555 1_555
H72 C138 1_555 1_555
Mg16 O23 1_555 1_555
Mg19 O25 1_555 1_555
C118 C120 1_555 1_555
C120 C123 1_555 1_555
C124 C125 1_555 1_555
C137 C138 1_555 1_555
Mg1 O1 1_555 1_555
C1 N1 1_555 1_555
N1 H1 1_555 1_555
O2 Mg1 1_555 1_555
C2 C1 1_555 1_555
N2 C4 1_555 1_555
C3 O2 1_555 1_555
C4 C2 1_555 1_555
O3 Mg1 1_555 1_555
C5 C3 1_555 1_555
C6 C2 1_555 1_555
C7 C4 1_555 1_555
H2 C7 1_555 1_555
C8 C5 1_555 1_555
H3 C8 1_555 1_555
C9 C6 1_555 1_555
H4 C9 1_555 1_555
C10 C1 1_555 1_555
H5 C10 1_555 1_555
O9 C3 1_555 1_555
C45 C5 1_555 1_555
H23 C45 1_555 1_555
C46 C6 1_555 1_555
H24 C46 1_555 1_555
Mg2 O3 1_555 1_555
O11 Mg2 1_555 1_555
C49 N5 1_555 1_555
N5 H27 1_555 1_555
O12 Mg2 1_555 1_555
C50 C49 1_555 1_555
N6 C52 1_555 1_555
C51 O12 1_555 1_555
C52 C50 1_555 1_555
C53 C51 1_555 1_555
C54 C50 1_555 1_555
C55 C52 1_555 1_555
H28 C55 1_555 1_555
C56 C53 1_555 1_555
H29 C56 1_555 1_555
C57 C54 1_555 1_555
H30 C57 1_555 1_555
C58 C49 1_555 1_555
H31 C58 1_555 1_555
C59 N5 1_555 1_555
O13 C61 1_555 1_555
C60 C59 1_555 1_555
N7 C62 1_555 1_555
C61 C63 1_555 1_555
C62 C60 1_555 1_555
C63 C66 1_555 1_555
C64 C60 1_555 1_555
C65 C62 1_555 1_555
H32 C65 1_555 1_555
C66 H33 1_555 1_555
C67 C64 1_555 1_555
H34 C67 1_555 1_555
C68 C58 1_555 1_555
H35 C68 1_555 1_555
O18 Mg1 1_555 1_555
C93 C53 1_555 1_555
H49 C93 1_555 1_555
C94 C54 1_555 1_555
H50 C94 1_555 1_555
O19 C61 1_555 1_555
C95 C63 1_555 1_555
H51 C95 1_555 1_555
C96 C64 1_555 1_555
H52 C96 1_555 1_555
Mg3 O3 1_555 1_555
O20 Mg3 1_555 1_555
C97 N9_2 1_555 1_555
N9_2 H53_2 1_555 1_555
O21 Mg3 1_555 1_555
C98 C97 1_555 1_555
N10 C100 1_555 1_555
C99 O21 1_555 1_555
C100 C98 1_555 1_555
C101 C99 1_555 1_555
C102 C98 1_555 1_555
C103 C100 1_555 1_555
H54 C103 1_555 1_555
C104 C101 1_555 1_555
H55 C104 1_555 1_555
C105 C102 1_555 1_555
H56 C105 1_555 1_555
C106 C97 1_555 1_555
H57 C106 1_555 1_555
O27 Mg2 1_555 1_555
C141 C101 1_555 1_555
H75 C141 1_555 1_555
C142 C102 1_555 1_555
H76 C142 1_555 1_555
Mg12 O19 1_555 1_555
Mg16 O13 1_555 1_555
O38 Mg2 1_555 1_555
O39 Mg1 1_555 1_555
O40 Mg3 1_555 1_555
O44 Mg1 1_555 1_555
O45 Mg2 1_555 1_555
O46 Mg3 1_555 1_555
C8 C9 1_555 1_555
O9 Mg3 1_555 1_555
C45 C46 1_555 1_555
C51 O18 1_555 1_555
C56 C57 1_555 1_555
C59 C68 1_555 1_555
C66 C67 1_555 1_555
C93 C94 1_555 1_555
C95 C96 1_555 1_555
C99 O27 1_555 1_555
C104 C105 1_555 1_555
C141 C142 1_555 1_555
N4 H10 1_555 1_555
C31 N4 1_555 1_555
O40 C33 1_555 1_555
C32 C31 1_555 1_555
C33 C35 1_555 1_555
C34 N2_2 1_555 1_555
C35 C38 1_555 1_555
C36 C32 1_555 1_555
H15 C37 1_555 1_555
C38 H16 1_555 1_555
C39 C36 1_555 1_555
H17 C39 1_555 1_555
H18 C40 1_555 1_555
O44 C33 1_555 1_555
C43 C35 1_555 1_555
H21 C43 1_555 1_555
C44 C36 1_555 1_555
H22 C44 1_555 1_555
C69 N8 1_555 1_555
N8 H36 1_555 1_555
O14 C71 1_555 1_555
C70 C69 1_555 1_555
C71 C73 1_555 1_555
C72 N7_2 1_555 1_555
C73 C76 1_555 1_555
C74 C70 1_555 1_555
H37 C75 1_555 1_555
C76 H38 1_555 1_555
C77 C74 1_555 1_555
H39 C77 1_555 1_555
C78 C69 1_555 1_555
H40 C78 1_555 1_555
C79 N8 1_555 1_555
O39 C81 1_555 1_555
C80 C79 1_555 1_555
C81 C83 1_555 1_555
C82 N6_2 1_555 1_555
C83 C86 1_555 1_555
C84 C80 1_555 1_555
H41 C85 1_555 1_555
C86 H42 1_555 1_555
C87 C84 1_555 1_555
H43 C87 1_555 1_555
C88 C78 1_555 1_555
H44 C88 1_555 1_555
O16 C71 1_555 1_555
C89 C73 1_555 1_555
H45 C89 1_555 1_555
C90 C74 1_555 1_555
H46 C90 1_555 1_555
O45 C81 1_555 1_555
C91 C83 1_555 1_555
H47 C91 1_555 1_555
C92 C84 1_555 1_555
H48 C92 1_555 1_555
N12_2 H62_2 1_555 1_555
C127 N12_2 1_555 1_555
O38 C129 1_555 1_555
C128 C127 1_555 1_555
C129 C131 1_555 1_555
C130 N10_2 1_555 1_555
C131 C134 1_555 1_555
C132 C128 1_555 1_555
H67 C133 1_555 1_555
C134 H68 1_555 1_555
C135 C132 1_555 1_555
H69 C135 1_555 1_555
H70 C136 1_555 1_555
O46 C129 1_555 1_555
C139 C131 1_555 1_555
H73 C139 1_555 1_555
C140 C132 1_555 1_555
H74 C140 1_555 1_555
Mg12 O14 1_555 1_555
Mg16 O16 1_555 1_555
C31 C40 1_555 1_555
C32 C34 1_555 1_555
C34 C37 1_555 1_555
C38 C39 1_555 1_555
C43 C44 1_555 1_555
C70 C72 1_555 1_555
C72 C75 1_555 1_555
C76 C77 1_555 1_555
C79 C88 1_555 1_555
C80 C82 1_555 1_555
C82 C85 1_555 1_555
C86 C87 1_555 1_555
C89 C90 1_555 1_555
C91 C92 1_555 1_555
C127 C136 1_555 1_555
C128 C130 1_555 1_555
C130 C133 1_555 1_555
C134 C135 1_555 1_555
C139 C140 1_555 1_555
N1_2 H1_2 1_555 1_555
C11 N1_2 1_555 1_555
O4 C13 1_555 1_555
C12 C11 1_555 1_555
N3 C14 1_555 1_555
C13 C15 1_555 1_555
C14 C12 1_555 1_555
C15 C18 1_555 1_555
C16 C12 1_555 1_555
C17 C14 1_555 1_555
H6 C17 1_555 1_555
C18 H7 1_555 1_555
C19 C16 1_555 1_555
H8 C19 1_555 1_555
H9 C20 1_555 1_555
O10 C13 1_555 1_555
C47 C15 1_555 1_555
H25 C47 1_555 1_555
C48 C16 1_555 1_555
H26 C48 1_555 1_555
Mg12 O4 1_555 1_555
O29 Mg12 1_555 1_555
O30 Mg12 1_555 1_555
Mg16 O30 1_555 1_555
O31 Mg16 1_555 1_555
Mg19 O10 1_555 1_555
O32 Mg19 1_555 1_555
O37 Mg19 1_555 1_555
O41 Mg12 1_555 1_555
C11 C20 1_555 1_555
C18 C19 1_555 1_555
C47 C48 1_555 1_555
O30 Mg19 1_555 1_555
C21 N4_2 1_555 1_555
N4_2 H10_2 1_555 1_555
O37 C23 1_555 1_555
C22 C21 1_555 1_555
C23 C25 1_555 1_555
C24 N3_2 1_555 1_555
C25 C28 1_555 1_555
C26 C22 1_555 1_555
H11 C27 1_555 1_555
C28 H12 1_555 1_555
C29 C26 1_555 1_555
H13 C29 1_555 1_555
C30 C21 1_555 1_555
H14 C30 1_555 1_555
O41 C23 1_555 1_555
C41 C25 1_555 1_555
H19 C41 1_555 1_555
C42 C26 1_555 1_555
H20 C42 1_555 1_555
C22 C24 1_555 1_555
C24 C27 1_555 1_555
C28 C29 1_555 1_555
C41 C42 1_555 1_555

#END
