
###############################################################################
#
# This file contains modified crystal structure data generated from the
# MOF subset of the Cambridge Structural Database (CSD) v543 
# hosted by the Cambridge Crystallographic Data Centre (CCDC).
#
# This work is licensed under the Creative Commons
# Attribution-NonCommercial-ShareAlike 4.0 International License.
# To view a copy of this license, visit
# http://creativecommons.org/licenses/by-nc-sa/4.0/
# or send a letter to
# Creative Commons, PO Box 1866, Mountain View, CA 94042, USA.
#
# CIF created using the CSD Python API on 29 September 2022
# The structure has been converted into the P1 space group
# The structure has a 3D framework
# The original CSD entry DAKVUI is in the orthorhombic crystal system
# The framework has been calculated to contain at least 10.0% void space
# The void calculation uses a probe of radius 1.32A, grid spacing 0.4
# H atom positions have been added when not included in the experimental data
# Generated hydrogen atom positions removed from atoms on special positions
#
###############################################################################

data_DAKVUI
_chemical_formula_moiety         '(C150 H136 Cu16 O89)n'
_symmetry_cell_setting           triclinic
_symmetry_space_group_name_H-M   'P 1'
_symmetry_Int_Tables_number      1
_space_group_name_Hall           'P 1'
loop_
_symmetry_equiv_pos_site_id
_symmetry_equiv_pos_as_xyz
1 x,y,z
_cell_length_a                   12.2970(5)
_cell_length_b                   26.0570(12)
_cell_length_c                   26.0840(12)
_cell_angle_alpha                90
_cell_angle_beta                 90
_cell_angle_gamma                90
_cell_volume                     8357.91
loop_
_atom_site_label
_atom_site_type_symbol
_atom_site_fract_x
_atom_site_fract_y
_atom_site_fract_z
Cu1 Cu 0.14653(7) 0.22428(3) 0.2500
H3 H 0.0002 0.1249 0.1311
O1 O 0.2658(6) 0.1648(3) 0.2500
O3 O 0.0524(3) 0.19224(16) 0.19689(15)
O5 O 0.0022(3) 0.05097(16) 0.07124(17)
O15 O 0.0524(3) 0.19224(16) 0.30311(15)
O26 O 0.2147(3) 0.26641(15) 0.19545(15)
O27 O 0.2147(3) 0.26641(15) 0.30455(15)
O29 O 0.0864(4) 0.3273(2) 0.1975(2)
O30 O 0.0864(4) 0.3273(2) 0.3025(2)
O32 O 0.0380(3) 0.44671(17) 0.06211(17)
Cu5 Cu 0.14653(7) 0.27572(3) 0.7500
Cu10 Cu 0.07413(4) 0.50640(2) 0.96363(2)
H13 H 0.0002 0.3751 0.8689
O14 O 0.0524(3) 0.30776(16) 0.80311(15)
O18 O 0.0022(3) 0.44903(16) 0.92876(17)
Cu14 Cu 0.07413(4) 0.99360(2) 0.03637(2)
Cu2 Cu 0.99600(7) 0.29698(3) 0.2500
Cu3 Cu 0.92587(4) 0.49360(2) 0.03637(2)
C1 C 0.9668(5) 0.2135(2) 0.1818(2)
C2 C 0.9054(5) 0.1883(2) 0.1389(2)
C3 C 0.8142(5) 0.2135(2) 0.1188(2)
H1 H 0.7914 0.2444 0.1330
C4 C 0.7579(5) 0.1925(2) 0.0779(2)
C5 C 0.7916(5) 0.1465(2) 0.0565(2)
H2 H 0.7543 0.1327 0.0287
C6 C 0.8819(4) 0.1209(2) 0.0767(2)
C7 C 0.9398(4) 0.1418(2) 0.1179(2)
C8 C 0.9223(4) 0.0730(2) 0.0512(2)
C9 C 0.6152(4) 0.2050(2) 0.0169(2)
H4 H 0.5707 0.1755 0.0254
C10 C 0.5434(6) 0.2500 0.0000
O2 O 0.8759(7) 0.3577(3) 0.2500
O4 O 0.9287(4) 0.2553(2) 0.1976(2)
O6 O 0.8753(3) 0.06045(15) 0.01033(16)
O7 O 0.6745(4) 0.22190(19) 0.0611(2)
O12 O 0.1631(3) 0.04433(17) -0.00002(16)
O13 O 0.8123(4) 0.4734(2) 0.0953(2)
H15 H 0.6649 0.3045 0.0103
C29 C 0.4733(4) 0.2671(2) 0.0452(2)
H16 H 0.4230 0.2402 0.0548
H17 H 0.5185 0.2753 0.0745
C30 C 0.3335(5) 0.3302(2) 0.0582(2)
C31 C 0.3020(5) 0.3092(2) 0.1050(2)
H18 H 0.3397 0.2816 0.1190
C32 C 0.2132(5) 0.3302(2) 0.1305(2)
C33 C 0.1570(5) 0.3719(2) 0.1106(2)
H19 H 0.0974 0.3854 0.1280
C34 C 0.1912(5) 0.3932(2) 0.0643(2)
C35 C 0.2790(5) 0.3723(2) 0.0382(2)
H20 H 0.3013 0.3865 0.0072
C36 C 0.1700(4) 0.3061(2) 0.1791(2)
C37 C 0.1256(4) 0.4358(2) 0.0405(2)
O17 O 0.9287(4) 0.2553(2) 0.3024(2)
O19 O 0.9978(3) 0.55097(16) 0.07124(17)
O22 O 0.1247(3) 0.56045(15) 0.01033(16)
O24 O 0.4151(4) 0.31184(19) 0.02822(18)
O34 O 0.1631(3) 0.45567(17) 0.00002(16)
O35 O 0.8369(3) 0.54433(17) -0.00002(16)
H5 H 0.6649 0.1955 0.9897
C10_2 C 0.5434(6) 0.2500 1.0000
C11 C 0.4733(4) 0.2329(2) 0.9548(2)
H6 H 0.4230 0.2598 0.9452
H7 H 0.5185 0.2247 0.9255
C12 C 0.3335(5) 0.1698(2) 0.9418(2)
C13 C 0.3020(5) 0.1908(2) 0.8950(2)
H8 H 0.3397 0.2184 0.8810
C14 C 0.2132(5) 0.1698(2) 0.8695(2)
C15 C 0.1570(5) 0.1281(2) 0.8894(2)
H9 H 0.0974 0.1146 0.8720
C16 C 0.1912(5) 0.1068(2) 0.9357(2)
C17 C 0.2790(5) 0.1277(2) 0.9618(2)
H10 H 0.3013 0.1135 0.9928
C18 C 0.1700(4) 0.1939(2) 0.8209(2)
C19 C 0.1256(4) 0.0642(2) 0.9595(2)
O8 O 0.4151(4) 0.18816(19) 0.97178(18)
O9 O 0.2147(3) 0.23359(15) 0.80455(15)
O10 O 0.0864(4) 0.1727(2) 0.8025(2)
O11 O 0.0380(3) 0.05329(17) 0.93789(17)
O12_2 O 0.1631(3) 0.04433(17) 0.99998(16)
Cu8 Cu 0.99600(7) 0.20302(3) 0.7500
Cu11 Cu 0.92587(4) 0.00640(2) 0.96363(2)
C20 C 0.9668(5) 0.2865(2) 0.8182(2)
C21 C 0.9054(5) 0.3117(2) 0.8611(2)
C22 C 0.8142(5) 0.2865(2) 0.8812(2)
H11 H 0.7914 0.2556 0.8670
C23 C 0.7579(5) 0.3075(2) 0.9221(2)
C24 C 0.7916(5) 0.3535(2) 0.9435(2)
H12 H 0.7543 0.3673 0.9713
C25 C 0.8819(4) 0.3791(2) 0.9233(2)
C26 C 0.9398(4) 0.3582(2) 0.8821(2)
C27 C 0.9223(4) 0.4270(2) 0.9488(2)
C28 C 0.6152(4) 0.2950(2) 0.9831(2)
H14 H 0.5707 0.3245 0.9746
O16 O 0.9287(4) 0.2447(2) 0.8024(2)
O21 O 0.8753(3) 0.43955(15) 0.98967(16)
O23 O 0.6745(4) 0.27810(19) 0.9389(2)
O34_2 O 0.1631(3) 0.45567(17) 1.00002(16)
O35_2 O 0.8369(3) 0.54433(17) 0.99998(16)
O36 O 0.1877(4) 0.5266(2) 0.9047(2)
O33 O 0.9620(3) 0.55329(17) 0.93789(17)
Cu7 Cu 0.00400(7) 0.79698(3) 0.2500
Cu9 Cu 0.00400(7) 0.70302(3) 0.7500
Cu12 Cu 0.07413(4) 0.99360(2) 0.46363(2)
Cu15 Cu 0.07413(4) 0.50640(2) 0.53637(2)
O33_2 O 0.0380(3) 0.44671(17) 0.43789(17)
Cu13 Cu 0.92587(4) 0.00640(2) 0.53637(2)
C1_2 C 0.0332(5) 0.7865(2) 0.6818(2)
C2_2 C 0.0946(5) 0.8117(2) 0.6389(2)
C3_2 C 0.1858(5) 0.7865(2) 0.6188(2)
H1_2 H 0.2086 0.7556 0.6330
C4_2 C 0.2421(5) 0.8075(2) 0.5779(2)
C5_2 C 0.2084(5) 0.8535(2) 0.5565(2)
H2_2 H 0.2457 0.8673 0.5287
C6_2 C 0.1181(4) 0.8791(2) 0.5767(2)
C7_2 C 0.0602(4) 0.8582(2) 0.6179(2)
C8_2 C 0.0777(4) 0.9270(2) 0.5512(2)
C9_2 C 0.3848(4) 0.7950(2) 0.5169(2)
H4_2 H 0.4293 0.8245 0.5254
H5_2 H 0.3351 0.8045 0.4897
C10_3 C 0.4566(6) 0.7500 0.5000
C11_2 C 0.5267(4) 0.7671(2) 0.4548(2)
H6_2 H 0.5770 0.7402 0.4452
H7_2 H 0.4815 0.7753 0.4255
C12_2 C 0.6665(5) 0.8302(2) 0.4418(2)
C13_2 C 0.6980(5) 0.8092(2) 0.3950(2)
H8_2 H 0.6603 0.7816 0.3810
C14_2 C 0.7868(5) 0.8302(2) 0.3695(2)
C15_2 C 0.8430(5) 0.8719(2) 0.3894(2)
H9_2 H 0.9026 0.8854 0.3720
C16_2 C 0.8088(5) 0.8932(2) 0.4357(2)
C17_2 C 0.7210(5) 0.8723(2) 0.4618(2)
H10_2 H 0.6987 0.8865 0.4928
C18_2 C 0.8300(4) 0.8061(2) 0.3209(2)
C19_2 C 0.8744(4) 0.9358(2) 0.4595(2)
O2_2 O 0.1241(7) 0.6423(3) 0.7500
O4_2 O 0.0713(4) 0.7447(2) 0.6976(2)
O6_2 O 0.1247(3) 0.93955(15) 0.51033(16)
O7_2 O 0.3255(4) 0.77810(19) 0.5611(2)
O8_2 O 0.5849(4) 0.81184(19) 0.47178(18)
O9_2 O 0.7853(3) 0.76641(15) 0.30455(15)
O10_2 O 0.9136(4) 0.8273(2) 0.3025(2)
O11_2 O 0.9620(3) 0.94671(17) 0.43789(17)
O12_3 O 0.8369(3) 0.95567(17) 0.49998(16)
O13_2 O 0.1877(4) 0.5266(2) 0.5953(2)
Cu4 Cu 0.85347(7) 0.72428(3) 0.2500
Cu6 Cu 0.85347(7) 0.77572(3) 0.7500
Cu16 Cu 0.92587(4) 0.49360(2) 0.46363(2)
C20_2 C 0.0332(5) 0.7135(2) 0.3182(2)
C21_2 C 0.0946(5) 0.6883(2) 0.3611(2)
C22_2 C 0.1858(5) 0.7135(2) 0.3812(2)
H11_2 H 0.2086 0.7444 0.3670
C23_2 C 0.2421(5) 0.6925(2) 0.4221(2)
C24_2 C 0.2084(5) 0.6465(2) 0.4435(2)
H12_2 H 0.2457 0.6327 0.4713
C25_2 C 0.1181(4) 0.6209(2) 0.4233(2)
C26_2 C 0.0602(4) 0.6418(2) 0.3821(2)
C27_2 C 0.0777(4) 0.5730(2) 0.4488(2)
C28_2 C 0.3848(4) 0.7050(2) 0.4831(2)
H14_2 H 0.4293 0.6755 0.4746
H15_2 H 0.3351 0.6955 0.5103
C29_2 C 0.5267(4) 0.7329(2) 0.5452(2)
H16_2 H 0.5770 0.7598 0.5548
H17_2 H 0.4815 0.7247 0.5745
C30_2 C 0.6665(5) 0.6698(2) 0.5582(2)
C31_2 C 0.6980(5) 0.6908(2) 0.6050(2)
H18_2 H 0.6603 0.7184 0.6190
C32_2 C 0.7868(5) 0.6698(2) 0.6305(2)
C33_2 C 0.8430(5) 0.6281(2) 0.6106(2)
H19_2 H 0.9026 0.6146 0.6280
C34_2 C 0.8088(5) 0.6068(2) 0.5643(2)
C35_2 C 0.7210(5) 0.6277(2) 0.5382(2)
H20_2 H 0.6987 0.6135 0.5072
C36_2 C 0.8300(4) 0.6939(2) 0.6791(2)
C37_2 C 0.8744(4) 0.5642(2) 0.5405(2)
O16_2 O 0.0713(4) 0.7553(2) 0.3024(2)
O17_2 O 0.0713(4) 0.7447(2) 0.8024(2)
O19_2 O 0.0022(3) 0.44903(16) 0.57124(17)
O20 O 0.9978(3) 0.55097(16) 0.42876(17)
O21_2 O 0.1247(3) 0.56045(15) 0.48967(16)
O22_2 O 0.8753(3) 0.43955(15) 0.51033(16)
O23_2 O 0.3255(4) 0.72190(19) 0.4389(2)
O24_2 O 0.5849(4) 0.68816(19) 0.52822(18)
O25 O 0.7853(3) 0.73359(15) 0.69545(15)
O28 O 0.9136(4) 0.6727(2) 0.6975(2)
O31 O 0.9620(3) 0.55329(17) 0.56211(17)
O34_3 O 0.8369(3) 0.54433(17) 0.50002(16)
O35_3 O 0.1631(3) 0.45567(17) 0.49998(16)
O36_2 O 0.8123(4) 0.4734(2) 0.4047(2)
H3_2 H 0.9998 0.8751 0.6311
O1_2 O 0.7342(6) 0.8352(3) 0.7500
O3_2 O 0.9476(3) 0.80776(16) 0.69689(15)
O5_2 O 0.9978(3) 0.94903(16) 0.57124(17)
H13_2 H 0.9998 0.6249 0.3689
O14_2 O 0.9476(3) 0.69224(16) 0.30311(15)
O15_2 O 0.9476(3) 0.80776(16) 0.80311(15)
O27_2 O 0.7853(3) 0.73359(15) 0.80455(15)
O30_2 O 0.9136(4) 0.6727(2) 0.8025(2)
O1_3 O 0.2658(6) 0.3352(3) 0.7500
O15_3 O 0.0524(3) 0.30776(16) 0.69689(15)
O27_3 O 0.2147(3) 0.23359(15) 0.69545(15)
O30_3 O 0.0864(4) 0.1727(2) 0.6975(2)
O2_3 O 0.8759(7) 0.1423(3) 0.7500
O13_3 O 0.8123(4) 0.0266(2) 0.9047(2)
O17_3 O 0.9287(4) 0.2447(2) 0.6976(2)
H26 H 0.767478 0.0560956 0.916301
O35_4 O 0.8369(3) 0.95567(17) 0.00002(16)
O36_3 O 0.1877(4) 0.9734(2) 0.0953(2)
H27 H 0.147539 0.963768 0.126895
H28 H 0.232522 0.943904 0.0836992
O19_3 O 0.9978(3) 0.94903(16) 0.92876(17)
O22_3 O 0.1247(3) 0.93955(15) 0.98967(16)
O35_5 O 0.8369(3) 0.95567(17) 1.00002(16)
H25 H 0.764323 0.996835 0.897381
O33_3 O 0.9620(3) 0.94671(17) 0.06211(17)
O33_4 O 0.0380(3) 0.05329(17) 0.56211(17)
O19_4 O 0.0022(3) 0.05097(16) 0.42876(17)
O22_4 O 0.8753(3) 0.06045(15) 0.48967(16)
O35_6 O 0.1631(3) 0.04433(17) 0.50002(16)
O36_4 O 0.8123(4) 0.0266(2) 0.5953(2)
H25_2 H 0.235677 0.00316504 0.397381
H27_2 H 0.852461 0.0362318 0.626895
H28_2 H 0.767478 0.0560956 0.583699
O2_4 O 0.1241(7) 0.8577(3) 0.2500
O13_4 O 0.1877(4) 0.9734(2) 0.4047(2)
O17_4 O 0.0713(4) 0.7553(2) 0.1976(2)
H26_2 H 0.232522 0.943904 0.416301
O1_4 O 0.7342(6) 0.6648(3) 0.2500
O15_4 O 0.9476(3) 0.69224(16) 0.19689(15)
O27_4 O 0.7853(3) 0.76641(15) 0.19545(15)
O30_4 O 0.9136(4) 0.8273(2) 0.1975(2)
H5_3 H 0.3351 0.8045 0.0103
C10_4 C 0.4566(6) 0.7500 0.0000
C11_3 C 0.5267(4) 0.7671(2) 0.0452(2)
H6_3 H 0.5770 0.7402 0.0548
H7_3 H 0.4815 0.7753 0.0745
C12_3 C 0.6665(5) 0.8302(2) 0.0582(2)
C13_3 C 0.6980(5) 0.8092(2) 0.1050(2)
H8_3 H 0.6603 0.7816 0.1190
C14_3 C 0.7868(5) 0.8302(2) 0.1305(2)
C15_3 C 0.8430(5) 0.8719(2) 0.1106(2)
H9_3 H 0.9026 0.8854 0.1280
C16_3 C 0.8088(5) 0.8932(2) 0.0643(2)
C17_3 C 0.7210(5) 0.8723(2) 0.0382(2)
H10_3 H 0.6987 0.8865 0.0072
C18_3 C 0.8300(4) 0.8061(2) 0.1791(2)
C19_3 C 0.8744(4) 0.9358(2) 0.0405(2)
O8_3 O 0.5849(4) 0.81184(19) 0.02822(18)
C20_3 C 0.0332(5) 0.7135(2) 0.1818(2)
C21_3 C 0.0946(5) 0.6883(2) 0.1389(2)
C22_3 C 0.1858(5) 0.7135(2) 0.1188(2)
H11_3 H 0.2086 0.7444 0.1330
C23_3 C 0.2421(5) 0.6925(2) 0.0779(2)
C24_3 C 0.2084(5) 0.6465(2) 0.0565(2)
H12_3 H 0.2457 0.6327 0.0287
C25_3 C 0.1181(4) 0.6209(2) 0.0767(2)
C26_3 C 0.0602(4) 0.6418(2) 0.1179(2)
C27_3 C 0.0777(4) 0.5730(2) 0.0512(2)
C28_3 C 0.3848(4) 0.7050(2) 0.0169(2)
H14_3 H 0.4293 0.6755 0.0254
O23_3 O 0.3255(4) 0.72190(19) 0.0611(2)
C1_3 C 0.0332(5) 0.7865(2) 0.8182(2)
C2_3 C 0.0946(5) 0.8117(2) 0.8611(2)
C3_3 C 0.1858(5) 0.7865(2) 0.8812(2)
H1_3 H 0.2086 0.7556 0.8670
C4_3 C 0.2421(5) 0.8075(2) 0.9221(2)
C5_3 C 0.2084(5) 0.8535(2) 0.9435(2)
H2_3 H 0.2457 0.8673 0.9713
C6_3 C 0.1181(4) 0.8791(2) 0.9233(2)
C7_3 C 0.0602(4) 0.8582(2) 0.8821(2)
C8_3 C 0.0777(4) 0.9270(2) 0.9488(2)
C9_3 C 0.3848(4) 0.7950(2) 0.9831(2)
H4_3 H 0.4293 0.8245 0.9746
C10_5 C 0.4566(6) 0.7500 1.0000
O7_3 O 0.3255(4) 0.77810(19) 0.9389(2)
H15_3 H 0.3351 0.6955 0.9897
C29_3 C 0.5267(4) 0.7329(2) 0.9548(2)
H16_3 H 0.5770 0.7598 0.9452
H17_3 H 0.4815 0.7247 0.9255
C30_3 C 0.6665(5) 0.6698(2) 0.9418(2)
C31_3 C 0.6980(5) 0.6908(2) 0.8950(2)
H18_3 H 0.6603 0.7184 0.8810
C32_3 C 0.7868(5) 0.6698(2) 0.8695(2)
C33_3 C 0.8430(5) 0.6281(2) 0.8894(2)
H19_3 H 0.9026 0.6146 0.8720
C34_3 C 0.8088(5) 0.6068(2) 0.9357(2)
C35_3 C 0.7210(5) 0.6277(2) 0.9618(2)
H20_3 H 0.6987 0.6135 0.9928
C36_3 C 0.8300(4) 0.6939(2) 0.8209(2)
C37_3 C 0.8744(4) 0.5642(2) 0.9595(2)
O24_3 O 0.5849(4) 0.68816(19) 0.97178(18)
H13_3 H 0.9998 0.6249 0.1311
H3_3 H 0.9998 0.8751 0.8689
H3_4 H 0.0002 0.1249 0.3689
H13_4 H 0.0002 0.3751 0.6311
C1_4 C 0.9668(5) 0.2135(2) 0.3182(2)
C2_4 C 0.9054(5) 0.1883(2) 0.3611(2)
C3_4 C 0.8142(5) 0.2135(2) 0.3812(2)
H1_4 H 0.7914 0.2444 0.3670
C4_4 C 0.7579(5) 0.1925(2) 0.4221(2)
C5_4 C 0.7916(5) 0.1465(2) 0.4435(2)
H2_4 H 0.7543 0.1327 0.4713
C6_4 C 0.8819(4) 0.1209(2) 0.4233(2)
C7_4 C 0.9398(4) 0.1418(2) 0.3821(2)
C8_4 C 0.9223(4) 0.0730(2) 0.4488(2)
C9_4 C 0.6152(4) 0.2050(2) 0.4831(2)
H4_4 H 0.5707 0.1755 0.4746
H5_4 H 0.6649 0.1955 0.5103
C10_6 C 0.5434(6) 0.2500 0.5000
C11_4 C 0.4733(4) 0.2329(2) 0.5452(2)
H6_4 H 0.4230 0.2598 0.5548
H7_4 H 0.5185 0.2247 0.5745
C12_4 C 0.3335(5) 0.1698(2) 0.5582(2)
C13_4 C 0.3020(5) 0.1908(2) 0.6050(2)
H8_4 H 0.3397 0.2184 0.6190
C14_4 C 0.2132(5) 0.1698(2) 0.6305(2)
C15_4 C 0.1570(5) 0.1281(2) 0.6106(2)
H9_4 H 0.0974 0.1146 0.6280
C16_4 C 0.1912(5) 0.1068(2) 0.5643(2)
C17_4 C 0.2790(5) 0.1277(2) 0.5382(2)
H10_4 H 0.3013 0.1135 0.5072
C18_4 C 0.1700(4) 0.1939(2) 0.6791(2)
C19_4 C 0.1256(4) 0.0642(2) 0.5405(2)
O7_4 O 0.6745(4) 0.22190(19) 0.4389(2)
O8_4 O 0.4151(4) 0.18816(19) 0.52822(18)
C20_4 C 0.9668(5) 0.2865(2) 0.6818(2)
C21_4 C 0.9054(5) 0.3117(2) 0.6389(2)
C22_4 C 0.8142(5) 0.2865(2) 0.6188(2)
H11_4 H 0.7914 0.2556 0.6330
C23_4 C 0.7579(5) 0.3075(2) 0.5779(2)
C24_4 C 0.7916(5) 0.3535(2) 0.5565(2)
H12_4 H 0.7543 0.3673 0.5287
C25_4 C 0.8819(4) 0.3791(2) 0.5767(2)
C26_4 C 0.9398(4) 0.3582(2) 0.6179(2)
C27_4 C 0.9223(4) 0.4270(2) 0.5512(2)
C28_4 C 0.6152(4) 0.2950(2) 0.5169(2)
H14_4 H 0.5707 0.3245 0.5254
H15_4 H 0.6649 0.3045 0.4897
C29_4 C 0.4733(4) 0.2671(2) 0.4548(2)
H16_4 H 0.4230 0.2402 0.4452
H17_4 H 0.5185 0.2753 0.4255
C30_4 C 0.3335(5) 0.3302(2) 0.4418(2)
C31_4 C 0.3020(5) 0.3092(2) 0.3950(2)
H18_4 H 0.3397 0.2816 0.3810
C32_4 C 0.2132(5) 0.3302(2) 0.3695(2)
C33_4 C 0.1570(5) 0.3719(2) 0.3894(2)
H19_4 H 0.0974 0.3854 0.3720
C34_4 C 0.1912(5) 0.3932(2) 0.4357(2)
C35_4 C 0.2790(5) 0.3723(2) 0.4618(2)
H20_4 H 0.3013 0.3865 0.4928
C36_4 C 0.1700(4) 0.3061(2) 0.3209(2)
C37_4 C 0.1256(4) 0.4358(2) 0.4595(2)
O23_4 O 0.6745(4) 0.27810(19) 0.5611(2)
O24_4 O 0.4151(4) 0.31184(19) 0.47178(18)
H25_3 H 0.235677 0.00316504 0.102619
H27_3 H 0.852461 0.0362318 0.873105
H25_4 H 0.764323 0.996835 0.602619
H27_4 H 0.147539 0.963768 0.373105
loop_
_geom_bond_atom_site_label_1
_geom_bond_atom_site_label_2
_geom_bond_site_symmetry_1
_geom_bond_site_symmetry_2
Cu1 O1 1_555 1_555
O3 Cu1 1_555 1_555
O15 Cu1 1_555 1_555
O26 Cu1 1_555 1_555
O27 Cu1 1_555 1_555
Cu5 O14 1_555 1_555
Cu10 O18 1_555 1_555
Cu2 O2 1_555 1_555
Cu3 O13 1_555 1_555
C1 C2 1_555 1_555
C2 C3 1_555 1_555
C3 H1 1_555 1_555
C4 C3 1_555 1_555
C5 C4 1_555 1_555
H2 C5 1_555 1_555
C6 C5 1_555 1_555
C7 C2 1_555 1_555
C8 C6 1_555 1_555
C9 H4 1_555 1_555
C10 C9 1_555 1_555
O4 Cu2 1_555 1_555
O6 C8 1_555 1_555
O7 C4 1_555 1_555
C29 C10 1_555 1_555
H16 C29 1_555 1_555
H17 C29 1_555 1_555
C30 C31 1_555 1_555
C31 H18 1_555 1_555
C32 C31 1_555 1_555
C33 C32 1_555 1_555
H19 C33 1_555 1_555
C34 C33 1_555 1_555
C35 C30 1_555 1_555
H20 C35 1_555 1_555
C36 C32 1_555 1_555
C37 C34 1_555 1_555
O17 Cu2 1_555 1_555
O19 Cu3 1_555 1_555
O24 C29 1_555 1_555
O26 C36 1_555 1_555
O29 C36 1_555 1_555
O32 C37 1_555 1_555
O35 Cu3 1_555 1_555
C1 O4 1_555 1_555
C6 C7 1_555 1_555
C9 O7 1_555 1_555
C30 O24 1_555 1_555
C34 C35 1_555 1_555
C37 O34 1_555 1_555
C11 C10_2 1_555 1_555
H6 C11 1_555 1_555
H7 C11 1_555 1_555
C12 C13 1_555 1_555
C13 H8 1_555 1_555
C14 C13 1_555 1_555
C15 C14 1_555 1_555
H9 C15 1_555 1_555
C16 C15 1_555 1_555
C17 C12 1_555 1_555
H10 C17 1_555 1_555
C18 C14 1_555 1_555
C19 C16 1_555 1_555
O8 C11 1_555 1_555
O9 C18 1_555 1_555
O10 C18 1_555 1_555
O11 C19 1_555 1_555
O12_2 C19 1_555 1_555
Cu5 O9 1_555 1_555
Cu8 O16 1_555 1_555
C20 C21 1_555 1_555
C21 C22 1_555 1_555
C22 H11 1_555 1_555
C23 C22 1_555 1_555
C24 C23 1_555 1_555
H12 C24 1_555 1_555
C25 C24 1_555 1_555
C26 C21 1_555 1_555
C27 C25 1_555 1_555
C28 C10_2 1_555 1_555
H14 C28 1_555 1_555
O16 C20 1_555 1_555
O23 C23 1_555 1_555
O34_2 Cu10 1_555 1_555
O36 Cu10 1_555 1_555
C12 O8 1_555 1_555
C16 C17 1_555 1_555
C25 C26 1_555 1_555
C27 O21 1_555 1_555
C28 O23 1_555 1_555
Cu9 O2_2 1_555 1_555
Cu15 O13_2 1_555 1_555
C1_2 C2_2 1_555 1_555
C2_2 C3_2 1_555 1_555
C3_2 H1_2 1_555 1_555
C4_2 C3_2 1_555 1_555
C5_2 C4_2 1_555 1_555
H2_2 C5_2 1_555 1_555
C6_2 C5_2 1_555 1_555
C7_2 C2_2 1_555 1_555
C8_2 C6_2 1_555 1_555
C9_2 H4_2 1_555 1_555
H5_2 C9_2 1_555 1_555
C10_3 C9_2 1_555 1_555
C11_2 C10_3 1_555 1_555
H6_2 C11_2 1_555 1_555
H7_2 C11_2 1_555 1_555
C12_2 C13_2 1_555 1_555
C13_2 H8_2 1_555 1_555
C14_2 C13_2 1_555 1_555
C15_2 C14_2 1_555 1_555
H9_2 C15_2 1_555 1_555
C16_2 C15_2 1_555 1_555
C17_2 C12_2 1_555 1_555
H10_2 C17_2 1_555 1_555
C18_2 C14_2 1_555 1_555
C19_2 C16_2 1_555 1_555
O4_2 Cu9 1_555 1_555
O6_2 C8_2 1_555 1_555
O7_2 C4_2 1_555 1_555
O8_2 C11_2 1_555 1_555
O9_2 C18_2 1_555 1_555
O10_2 C18_2 1_555 1_555
O11_2 C19_2 1_555 1_555
O12_3 C19_2 1_555 1_555
Cu4 O9_2 1_555 1_555
Cu6 O25 1_555 1_555
Cu7 O16_2 1_555 1_555
Cu12 O6_2 1_555 1_555
Cu16 O20 1_555 1_555
C20_2 C21_2 1_555 1_555
C21_2 C22_2 1_555 1_555
C22_2 H11_2 1_555 1_555
C23_2 C22_2 1_555 1_555
C24_2 C23_2 1_555 1_555
H12_2 C24_2 1_555 1_555
C25_2 C24_2 1_555 1_555
C26_2 C21_2 1_555 1_555
C27_2 C25_2 1_555 1_555
C28_2 C10_3 1_555 1_555
H14_2 C28_2 1_555 1_555
H15_2 C28_2 1_555 1_555
C29_2 C10_3 1_555 1_555
H16_2 C29_2 1_555 1_555
H17_2 C29_2 1_555 1_555
C30_2 C31_2 1_555 1_555
C31_2 H18_2 1_555 1_555
C32_2 C31_2 1_555 1_555
C33_2 C32_2 1_555 1_555
H19_2 C33_2 1_555 1_555
C34_2 C33_2 1_555 1_555
C35_2 C30_2 1_555 1_555
H20_2 C35_2 1_555 1_555
C36_2 C32_2 1_555 1_555
C37_2 C34_2 1_555 1_555
O16_2 C20_2 1_555 1_555
O17_2 Cu9 1_555 1_555
O19_2 Cu15 1_555 1_555
O21_2 Cu15 1_555 1_555
O22_2 Cu16 1_555 1_555
O23_2 C23_2 1_555 1_555
O24_2 C29_2 1_555 1_555
O25 C36_2 1_555 1_555
O28 C36_2 1_555 1_555
O31 C37_2 1_555 1_555
O34_3 Cu16 1_555 1_555
O35_3 Cu15 1_555 1_555
O36_2 Cu16 1_555 1_555
C1_2 O4_2 1_555 1_555
C6_2 C7_2 1_555 1_555
C9_2 O7_2 1_555 1_555
C12_2 O8_2 1_555 1_555
C16_2 C17_2 1_555 1_555
C25_2 C26_2 1_555 1_555
C27_2 O21_2 1_555 1_555
C28_2 O23_2 1_555 1_555
C30_2 O24_2 1_555 1_555
C34_2 C35_2 1_555 1_555
C37_2 O34_3 1_555 1_555
Cu6 O1_2 1_555 1_555
O3_2 Cu6 1_555 1_555
Cu4 O14_2 1_555 1_555
O15_2 Cu6 1_555 1_555
O27_2 Cu6 1_555 1_555
Cu5 O1_3 1_555 1_555
O15_3 Cu5 1_555 1_555
O27_3 Cu5 1_555 1_555
Cu8 O2_3 1_555 1_555
Cu11 O13_3 1_555 1_555
O17_3 Cu8 1_555 1_555
O13_3 H26 1_555 1_555
O36_3 Cu14 1_555 1_555
O36_3 H27 1_555 1_555
O36_3 H28 1_555 1_555
O22_4 Cu13 1_555 1_555
O36_4 Cu13 1_555 1_555
O36_4 H27_2 1_555 1_555
O36_4 H28_2 1_555 1_555
Cu7 O2_4 1_555 1_555
Cu12 O13_4 1_555 1_555
O17_4 Cu7 1_555 1_555
O13_4 H26_2 1_555 1_555
Cu4 O1_4 1_555 1_555
O15_4 Cu4 1_555 1_555
O27_4 Cu4 1_555 1_555
C11_3 C10_4 1_555 1_555
H6_3 C11_3 1_555 1_555
H7_3 C11_3 1_555 1_555
C12_3 C13_3 1_555 1_555
C13_3 H8_3 1_555 1_555
C14_3 C13_3 1_555 1_555
C15_3 C14_3 1_555 1_555
H9_3 C15_3 1_555 1_555
C16_3 C15_3 1_555 1_555
C17_3 C12_3 1_555 1_555
H10_3 C17_3 1_555 1_555
C18_3 C14_3 1_555 1_555
C19_3 C16_3 1_555 1_555
O8_3 C11_3 1_555 1_555
O27_4 C18_3 1_555 1_555
O30_4 C18_3 1_555 1_555
O33_3 C19_3 1_555 1_555
O35_4 C19_3 1_555 1_555
C20_3 C21_3 1_555 1_555
C21_3 C22_3 1_555 1_555
C22_3 H11_3 1_555 1_555
C23_3 C22_3 1_555 1_555
C24_3 C23_3 1_555 1_555
H12_3 C24_3 1_555 1_555
C25_3 C24_3 1_555 1_555
C26_3 C21_3 1_555 1_555
C27_3 C25_3 1_555 1_555
C28_3 C10_4 1_555 1_555
H14_3 C28_3 1_555 1_555
O17_4 C20_3 1_555 1_555
O23_3 C23_3 1_555 1_555
C12_3 O8_3 1_555 1_555
C16_3 C17_3 1_555 1_555
C25_3 C26_3 1_555 1_555
C27_3 O22 1_555 1_555
C28_3 O23_3 1_555 1_555
C1_3 C2_3 1_555 1_555
C2_3 C3_3 1_555 1_555
C3_3 H1_3 1_555 1_555
C4_3 C3_3 1_555 1_555
C5_3 C4_3 1_555 1_555
H2_3 C5_3 1_555 1_555
C6_3 C5_3 1_555 1_555
C7_3 C2_3 1_555 1_555
C8_3 C6_3 1_555 1_555
C9_3 H4_3 1_555 1_555
C10_5 C9_3 1_555 1_555
O22_3 C8_3 1_555 1_555
O7_3 C4_3 1_555 1_555
C29_3 C10_5 1_555 1_555
H16_3 C29_3 1_555 1_555
H17_3 C29_3 1_555 1_555
C30_3 C31_3 1_555 1_555
C31_3 H18_3 1_555 1_555
C32_3 C31_3 1_555 1_555
C33_3 C32_3 1_555 1_555
H19_3 C33_3 1_555 1_555
C34_3 C33_3 1_555 1_555
C35_3 C30_3 1_555 1_555
H20_3 C35_3 1_555 1_555
C36_3 C32_3 1_555 1_555
C37_3 C34_3 1_555 1_555
O24_3 C29_3 1_555 1_555
O27_2 C36_3 1_555 1_555
O30_2 C36_3 1_555 1_555
O33 C37_3 1_555 1_555
C1_3 O17_2 1_555 1_555
C6_3 C7_3 1_555 1_555
C9_3 O7_3 1_555 1_555
C30_3 O24_3 1_555 1_555
C34_3 C35_3 1_555 1_555
C37_3 O35_2 1_555 1_555
C1_4 C2_4 1_555 1_555
C2_4 C3_4 1_555 1_555
C3_4 H1_4 1_555 1_555
C4_4 C3_4 1_555 1_555
C5_4 C4_4 1_555 1_555
H2_4 C5_4 1_555 1_555
C6_4 C5_4 1_555 1_555
C7_4 C2_4 1_555 1_555
C8_4 C6_4 1_555 1_555
C9_4 H4_4 1_555 1_555
H5_4 C9_4 1_555 1_555
C10_6 C9_4 1_555 1_555
C11_4 C10_6 1_555 1_555
H6_4 C11_4 1_555 1_555
H7_4 C11_4 1_555 1_555
C12_4 C13_4 1_555 1_555
C13_4 H8_4 1_555 1_555
C14_4 C13_4 1_555 1_555
C15_4 C14_4 1_555 1_555
H9_4 C15_4 1_555 1_555
C16_4 C15_4 1_555 1_555
C17_4 C12_4 1_555 1_555
H10_4 C17_4 1_555 1_555
C18_4 C14_4 1_555 1_555
C19_4 C16_4 1_555 1_555
O22_4 C8_4 1_555 1_555
O7_4 C4_4 1_555 1_555
O8_4 C11_4 1_555 1_555
O27_3 C18_4 1_555 1_555
O30_3 C18_4 1_555 1_555
O33_4 C19_4 1_555 1_555
O35_6 C19_4 1_555 1_555
C20_4 C21_4 1_555 1_555
C21_4 C22_4 1_555 1_555
C22_4 H11_4 1_555 1_555
C23_4 C22_4 1_555 1_555
C24_4 C23_4 1_555 1_555
H12_4 C24_4 1_555 1_555
C25_4 C24_4 1_555 1_555
C26_4 C21_4 1_555 1_555
C27_4 C25_4 1_555 1_555
C28_4 C10_6 1_555 1_555
H14_4 C28_4 1_555 1_555
H15_4 C28_4 1_555 1_555
C29_4 C10_6 1_555 1_555
H16_4 C29_4 1_555 1_555
H17_4 C29_4 1_555 1_555
C30_4 C31_4 1_555 1_555
C31_4 H18_4 1_555 1_555
C32_4 C31_4 1_555 1_555
C33_4 C32_4 1_555 1_555
H19_4 C33_4 1_555 1_555
C34_4 C33_4 1_555 1_555
C35_4 C30_4 1_555 1_555
H20_4 C35_4 1_555 1_555
C36_4 C32_4 1_555 1_555
C37_4 C34_4 1_555 1_555
O17_3 C20_4 1_555 1_555
O23_4 C23_4 1_555 1_555
O24_4 C29_4 1_555 1_555
O27 C36_4 1_555 1_555
O30 C36_4 1_555 1_555
O33_2 C37_4 1_555 1_555
C1_4 O17 1_555 1_555
C6_4 C7_4 1_555 1_555
C9_4 O7_4 1_555 1_555
C12_4 O8_4 1_555 1_555
C16_4 C17_4 1_555 1_555
C25_4 C26_4 1_555 1_555
C27_4 O22_2 1_555 1_555
C28_4 O23_4 1_555 1_555
C30_4 O24_4 1_555 1_555
C34_4 C35_4 1_555 1_555
C37_4 O35_3 1_555 1_555
O13_3 H27_3 1_555 1_555
O13_4 H27_4 1_555 1_555

#END
