
###############################################################################
#
# This file contains modified crystal structure data generated from the
# MOF subset of the Cambridge Structural Database (CSD) v543 
# hosted by the Cambridge Crystallographic Data Centre (CCDC).
#
# This work is licensed under the Creative Commons
# Attribution-NonCommercial-ShareAlike 4.0 International License.
# To view a copy of this license, visit
# http://creativecommons.org/licenses/by-nc-sa/4.0/
# or send a letter to
# Creative Commons, PO Box 1866, Mountain View, CA 94042, USA.
#
# CIF created using the CSD Python API on 29 September 2022
# The structure has been converted into the P1 space group
# The structure has a 3D framework
# The original CSD entry DAKVOC is in the orthorhombic crystal system
# The framework has been calculated to contain at least 10.0% void space
# The void calculation uses a probe of radius 1.32A, grid spacing 0.4
# H atom positions have been added when not included in the experimental data
# Generated hydrogen atom positions removed from atoms on special positions
#
###############################################################################

data_DAKVOC
_chemical_formula_moiety         '(C150 H144 O86 Zn16)n'
_symmetry_cell_setting           triclinic
_symmetry_space_group_name_H-M   'P 1'
_symmetry_Int_Tables_number      1
_space_group_name_Hall           'P 1'
loop_
_symmetry_equiv_pos_site_id
_symmetry_equiv_pos_as_xyz
1 x,y,z
_cell_length_a                   12.4105(5)
_cell_length_b                   26.2172(12)
_cell_length_c                   26.2215(12)
_cell_angle_alpha                90
_cell_angle_beta                 90
_cell_angle_gamma                90
_cell_volume                     8531.65
loop_
_atom_site_label
_atom_site_type_symbol
_atom_site_fract_x
_atom_site_fract_y
_atom_site_fract_z
Zn1 Zn 0.15408(7) 0.22118(3) 0.2500
O1 O 0.2573(7) 0.1634(4) 0.2500
O3 O 0.0485(4) 0.1944(2) 0.19612(18)
O5 O 0.0001(4) 0.0519(2) 0.0729(2)
O15 O 0.0485(4) 0.1944(2) 0.30388(18)
O27 O 0.2164(4) 0.26697(19) 0.19426(17)
O28 O 0.2164(4) 0.26697(19) 0.30574(17)
O30 O 0.0906(4) 0.3275(2) 0.1973(2)
O31 O 0.0906(4) 0.3275(2) 0.3027(2)
Zn6 Zn 0.15408(7) 0.27882(3) 0.7500
Zn12 Zn 0.08194(4) 0.50688(2) 0.95920(3)
O14 O 0.0485(4) 0.3056(2) 0.80388(18)
O18 O 0.0001(4) 0.4481(2) 0.9271(2)
Zn11 Zn 0.08194(4) 0.99312(2) 0.04080(3)
Zn2 Zn 0.98713(7) 0.30297(3) 0.2500
C1 C 0.9652(5) 0.2140(3) 0.1801(3)
C2 C 0.9034(5) 0.1893(3) 0.1379(2)
C3 C 0.8127(5) 0.2145(3) 0.1190(3)
H1 H 0.7893 0.2448 0.1337
C4 C 0.7568(5) 0.1928(2) 0.0770(3)
C5 C 0.7904(5) 0.1466(2) 0.0570(2)
H2 H 0.7529 0.1317 0.0301
C6 C 0.8809(5) 0.1224(2) 0.0774(3)
C7 C 0.9364(5) 0.1434(3) 0.1172(3)
H3 H 0.9965 0.1268 0.1304
C8 C 0.9211(4) 0.0737(2) 0.0518(3)
C9 C 0.6156(5) 0.2053(2) 0.0164(2)
H4 H 0.5714 0.1759 0.0247
C10 C 0.5451(5) 0.2500 0.0000
O2 O 0.8812(9) 0.3594(4) 0.2500
O4 O 0.9256(4) 0.2563(2) 0.1966(2)
O6 O 0.8750(4) 0.06057(19) 0.0119(2)
O7 O 0.6744(4) 0.22205(19) 0.0606(2)
O12 O 0.1669(5) 0.0450(2) 0.0016(2)
Zn16 Zn 0.91806(4) 0.49312(2) 0.04080(3)
H15 H 0.6649 0.3041 0.0107
C29 C 0.4738(4) 0.2675(2) 0.0447(2)
H16 H 0.4247 0.2404 0.0546
H17 H 0.5180 0.2763 0.0739
C30 C 0.3336(5) 0.3291(2) 0.0575(2)
C31 C 0.3030(5) 0.3084(3) 0.1040(2)
H18 H 0.3407 0.2812 0.1181
C32 C 0.2137(5) 0.3295(3) 0.1294(2)
C33 C 0.1584(5) 0.3706(3) 0.1088(3)
H19 H 0.0994 0.3843 0.1259
C34 C 0.1913(5) 0.3915(2) 0.0622(3)
C35 C 0.2793(5) 0.3711(2) 0.0368(3)
H20 H 0.3021 0.3851 0.0061
C36 C 0.1719(5) 0.3055(3) 0.1777(2)
C37 C 0.1289(5) 0.4344(3) 0.0384(3)
O17 O 0.9256(4) 0.2563(2) 0.3034(2)
O23 O 0.1250(4) 0.56057(19) 0.0119(2)
O25 O 0.4154(4) 0.3105(2) 0.02777(19)
O32 O 0.0426(5) 0.4467(2) 0.0602(2)
H23 H 0.20342 0.00297325 0.115499
H5 H 0.6649 0.1959 0.9893
C10_2 C 0.5451(5) 0.2500 1.0000
C11 C 0.4738(4) 0.2325(2) 0.9553(2)
H6 H 0.4247 0.2596 0.9454
H7 H 0.5180 0.2237 0.9261
C12 C 0.3336(5) 0.1709(2) 0.9425(2)
C13 C 0.3030(5) 0.1916(3) 0.8960(2)
H8 H 0.3407 0.2188 0.8819
C14 C 0.2137(5) 0.1705(3) 0.8706(2)
C15 C 0.1584(5) 0.1294(3) 0.8912(3)
H9 H 0.0994 0.1157 0.8741
C16 C 0.1913(5) 0.1085(2) 0.9378(3)
C17 C 0.2793(5) 0.1289(2) 0.9632(3)
H10 H 0.3021 0.1149 0.9939
C18 C 0.1719(5) 0.1945(3) 0.8223(2)
C19 C 0.1289(5) 0.0656(3) 0.9616(3)
O8 O 0.4154(4) 0.1895(2) 0.97223(19)
O9 O 0.2164(4) 0.23303(19) 0.80574(17)
O10 O 0.0906(4) 0.1725(2) 0.8027(2)
O11 O 0.0426(5) 0.0533(2) 0.9398(2)
Zn9 Zn 0.98713(7) 0.19703(3) 0.7500
Zn14 Zn 0.91806(4) 0.00688(2) 0.95920(3)
C20 C 0.9652(5) 0.2860(3) 0.8199(3)
C21 C 0.9034(5) 0.3107(3) 0.8621(2)
C22 C 0.8127(5) 0.2855(3) 0.8810(3)
H11 H 0.7893 0.2552 0.8663
C23 C 0.7568(5) 0.3072(2) 0.9230(3)
C24 C 0.7904(5) 0.3534(2) 0.9430(2)
H12 H 0.7529 0.3683 0.9699
C25 C 0.8809(5) 0.3776(2) 0.9226(3)
C26 C 0.9364(5) 0.3566(3) 0.8828(3)
H13 H 0.9965 0.3732 0.8696
C27 C 0.9211(4) 0.4263(2) 0.9482(3)
C28 C 0.6156(5) 0.2947(2) 0.9836(2)
H14 H 0.5714 0.3241 0.9753
O16 O 0.9256(4) 0.2437(2) 0.8034(2)
O21 O 0.8750(4) 0.43943(19) 0.9881(2)
O24 O 0.6744(4) 0.27795(19) 0.9394(2)
O35 O 0.1669(5) 0.4550(2) 0.9984(2)
O36 O 0.1839(5) 0.5273(2) 0.9053(2)
O13 O 0.1839(5) 0.9727(2) 0.0947(2)
O22 O 0.1250(4) 0.93943(19) 0.9881(2)
O34 O 0.9574(5) 0.5533(2) 0.9398(2)
O33 O 0.9574(5) 0.9467(2) 0.0602(2)
O33_2 O 0.0426(5) 0.0533(2) 0.5602(2)
Zn7 Zn 0.01287(7) 0.69703(3) 0.7500
Zn8 Zn 0.01287(7) 0.80297(3) 0.2500
Zn13 Zn 0.08194(4) 0.99312(2) 0.45920(3)
Zn15 Zn 0.08194(4) 0.50688(2) 0.54080(3)
O34_2 O 0.0426(5) 0.4467(2) 0.4398(2)
Zn3 Zn 0.91806(4) 0.00688(2) 0.54080(3)
O13_2 O 0.8161(5) 0.0273(2) 0.5947(2)
O22_2 O 0.8750(4) 0.06057(19) 0.4881(2)
C1_2 C 0.0348(5) 0.7860(3) 0.6801(3)
C2_2 C 0.0966(5) 0.8107(3) 0.6379(2)
C3_2 C 0.1873(5) 0.7855(3) 0.6190(3)
H1_2 H 0.2107 0.7552 0.6337
C4_2 C 0.2432(5) 0.8072(2) 0.5770(3)
C5_2 C 0.2096(5) 0.8534(2) 0.5570(2)
H2_2 H 0.2471 0.8683 0.5301
C6_2 C 0.1191(5) 0.8776(2) 0.5774(3)
C7_2 C 0.0636(5) 0.8566(3) 0.6172(3)
H3_2 H 0.0035 0.8732 0.6304
C8_2 C 0.0789(4) 0.9263(2) 0.5518(3)
C9_2 C 0.3844(5) 0.7947(2) 0.5164(2)
H4_2 H 0.4286 0.8241 0.5247
H5_2 H 0.3351 0.8041 0.4893
C10_3 C 0.4549(5) 0.7500 0.5000
C11_2 C 0.5262(4) 0.7675(2) 0.4553(2)
H6_2 H 0.5753 0.7404 0.4454
H7_2 H 0.4820 0.7763 0.4261
C12_2 C 0.6664(5) 0.8291(2) 0.4425(2)
C13_2 C 0.6970(5) 0.8084(3) 0.3960(2)
H8_2 H 0.6593 0.7812 0.3819
C14_2 C 0.7863(5) 0.8295(3) 0.3706(2)
C15_2 C 0.8416(5) 0.8706(3) 0.3912(3)
H9_2 H 0.9006 0.8843 0.3741
C16_2 C 0.8087(5) 0.8915(2) 0.4378(3)
C17_2 C 0.7207(5) 0.8711(2) 0.4632(3)
H10_2 H 0.6979 0.8851 0.4939
C18_2 C 0.8281(5) 0.8055(3) 0.3223(2)
C19_2 C 0.8711(5) 0.9344(3) 0.4616(3)
O2_2 O 0.1188(9) 0.6406(4) 0.7500
O4_2 O 0.0744(4) 0.7437(2) 0.6966(2)
O6_2 O 0.1250(4) 0.93943(19) 0.5119(2)
O7_2 O 0.3256(4) 0.77795(19) 0.5606(2)
O8_2 O 0.5846(4) 0.8105(2) 0.47223(19)
O9_2 O 0.7836(4) 0.76697(19) 0.30574(17)
O10_2 O 0.9094(4) 0.8275(2) 0.3027(2)
O11_2 O 0.9574(5) 0.9467(2) 0.4398(2)
O12_2 O 0.8331(5) 0.9550(2) 0.5016(2)
Zn4 Zn 0.84592(7) 0.77882(3) 0.7500
Zn5 Zn 0.84592(7) 0.72118(3) 0.2500
Zn10 Zn 0.91806(4) 0.49312(2) 0.45920(3)
C20_2 C 0.0348(5) 0.7140(3) 0.3199(3)
C21_2 C 0.0966(5) 0.6893(3) 0.3621(2)
C22_2 C 0.1873(5) 0.7145(3) 0.3810(3)
H11_2 H 0.2107 0.7448 0.3663
C23_2 C 0.2432(5) 0.6928(2) 0.4230(3)
C24_2 C 0.2096(5) 0.6466(2) 0.4430(2)
H12_2 H 0.2471 0.6317 0.4699
C25_2 C 0.1191(5) 0.6224(2) 0.4226(3)
C26_2 C 0.0636(5) 0.6434(3) 0.3828(3)
H13_2 H 0.0035 0.6268 0.3696
C27_2 C 0.0789(4) 0.5737(2) 0.4482(3)
C28_2 C 0.3844(5) 0.7053(2) 0.4836(2)
H14_2 H 0.4286 0.6759 0.4753
H15_2 H 0.3351 0.6959 0.5107
C29_2 C 0.5262(4) 0.7325(2) 0.5447(2)
H16_2 H 0.5753 0.7596 0.5546
H17_2 H 0.4820 0.7237 0.5739
C30_2 C 0.6664(5) 0.6709(2) 0.5575(2)
C31_2 C 0.6970(5) 0.6916(3) 0.6040(2)
H18_2 H 0.6593 0.7188 0.6181
C32_2 C 0.7863(5) 0.6705(3) 0.6294(2)
C33_2 C 0.8416(5) 0.6294(3) 0.6088(3)
H19_2 H 0.9006 0.6157 0.6259
C34_2 C 0.8087(5) 0.6085(2) 0.5622(3)
C35_2 C 0.7207(5) 0.6289(2) 0.5368(3)
H20_2 H 0.6979 0.6149 0.5061
C36_2 C 0.8281(5) 0.6945(3) 0.6777(2)
C37_2 C 0.8711(5) 0.5656(3) 0.5384(3)
O16_2 O 0.0744(4) 0.7563(2) 0.3034(2)
O17_2 O 0.0744(4) 0.7437(2) 0.8034(2)
O19 O 0.9999(4) 0.9481(2) 0.5729(2)
O20 O 0.9999(4) 0.5519(2) 0.4271(2)
O21_2 O 0.1250(4) 0.56057(19) 0.4881(2)
O23_2 O 0.8750(4) 0.43943(19) 0.5119(2)
O24_2 O 0.3256(4) 0.72205(19) 0.4394(2)
O25_2 O 0.5846(4) 0.6895(2) 0.52777(19)
O26 O 0.7836(4) 0.73303(19) 0.69426(17)
O29 O 0.9094(4) 0.6725(2) 0.6973(2)
O32_2 O 0.9574(5) 0.5533(2) 0.5602(2)
O35_2 O 0.8331(5) 0.5450(2) 0.4984(2)
O36_2 O 0.8161(5) 0.4727(2) 0.4053(2)
H23_2 H 0.79658 0.997027 0.615499
O1_2 O 0.7427(7) 0.8366(4) 0.7500
O3_2 O 0.9515(4) 0.8056(2) 0.69612(18)
O14_2 O 0.9515(4) 0.6944(2) 0.30388(18)
O15_2 O 0.9515(4) 0.8056(2) 0.80388(18)
O28_2 O 0.7836(4) 0.73303(19) 0.80574(17)
O31_2 O 0.9094(4) 0.6725(2) 0.8027(2)
O1_3 O 0.2573(7) 0.3366(4) 0.7500
O15_3 O 0.0485(4) 0.3056(2) 0.69612(18)
O28_3 O 0.2164(4) 0.23303(19) 0.69426(17)
O31_3 O 0.0906(4) 0.1725(2) 0.6973(2)
O2_3 O 0.8812(9) 0.1406(4) 0.7500
O17_3 O 0.9256(4) 0.2437(2) 0.6966(2)
O2_4 O 0.1188(9) 0.8594(4) 0.2500
O17_4 O 0.0744(4) 0.7563(2) 0.1966(2)
O1_4 O 0.7427(7) 0.6634(4) 0.2500
O15_4 O 0.9515(4) 0.6944(2) 0.19612(18)
O28_4 O 0.7836(4) 0.76697(19) 0.19426(17)
O31_4 O 0.9094(4) 0.8275(2) 0.1973(2)
O13_3 O 0.8161(5) 0.0273(2) 0.9053(2)
H5_3 H 0.3351 0.8041 0.0107
C10_4 C 0.4549(5) 0.7500 0.0000
C11_3 C 0.5262(4) 0.7675(2) 0.0447(2)
H6_3 H 0.5753 0.7404 0.0546
H7_3 H 0.4820 0.7763 0.0739
C12_3 C 0.6664(5) 0.8291(2) 0.0575(2)
C13_3 C 0.6970(5) 0.8084(3) 0.1040(2)
H8_3 H 0.6593 0.7812 0.1181
C14_3 C 0.7863(5) 0.8295(3) 0.1294(2)
C15_3 C 0.8416(5) 0.8706(3) 0.1088(3)
H9_3 H 0.9006 0.8843 0.1259
C16_3 C 0.8087(5) 0.8915(2) 0.0622(3)
C17_3 C 0.7207(5) 0.8711(2) 0.0368(3)
H10_3 H 0.6979 0.8851 0.0061
C18_3 C 0.8281(5) 0.8055(3) 0.1777(2)
C19_3 C 0.8711(5) 0.9344(3) 0.0384(3)
O8_3 O 0.5846(4) 0.8105(2) 0.02777(19)
C20_3 C 0.0348(5) 0.7140(3) 0.1801(3)
C21_3 C 0.0966(5) 0.6893(3) 0.1379(2)
C22_3 C 0.1873(5) 0.7145(3) 0.1190(3)
H11_3 H 0.2107 0.7448 0.1337
C23_3 C 0.2432(5) 0.6928(2) 0.0770(3)
C24_3 C 0.2096(5) 0.6466(2) 0.0570(2)
H12_3 H 0.2471 0.6317 0.0301
C25_3 C 0.1191(5) 0.6224(2) 0.0774(3)
C26_3 C 0.0636(5) 0.6434(3) 0.1172(3)
H13_3 H 0.0035 0.6268 0.1304
C27_3 C 0.0789(4) 0.5737(2) 0.0518(3)
C28_3 C 0.3844(5) 0.7053(2) 0.0164(2)
H14_3 H 0.4286 0.6759 0.0247
O20_2 O 0.9999(4) 0.5519(2) 0.0729(2)
O24_3 O 0.3256(4) 0.72205(19) 0.0606(2)
O35_3 O 0.8331(5) 0.5450(2) 0.0016(2)
O36_3 O 0.8161(5) 0.4727(2) 0.0947(2)
C1_3 C 0.0348(5) 0.7860(3) 0.8199(3)
C2_3 C 0.0966(5) 0.8107(3) 0.8621(2)
C3_3 C 0.1873(5) 0.7855(3) 0.8810(3)
H1_3 H 0.2107 0.7552 0.8663
C4_3 C 0.2432(5) 0.8072(2) 0.9230(3)
C5_3 C 0.2096(5) 0.8534(2) 0.9430(2)
H2_3 H 0.2471 0.8683 0.9699
C6_3 C 0.1191(5) 0.8776(2) 0.9226(3)
C7_3 C 0.0636(5) 0.8566(3) 0.8828(3)
H3_3 H 0.0035 0.8732 0.8696
C8_3 C 0.0789(4) 0.9263(2) 0.9482(3)
C9_3 C 0.3844(5) 0.7947(2) 0.9836(2)
H4_3 H 0.4286 0.8241 0.9753
C10_5 C 0.4549(5) 0.7500 1.0000
O7_3 O 0.3256(4) 0.77795(19) 0.9394(2)
O12_3 O 0.8331(5) 0.9550(2) 0.9984(2)
H15_3 H 0.3351 0.6959 0.9893
C29_3 C 0.5262(4) 0.7325(2) 0.9553(2)
H16_3 H 0.5753 0.7596 0.9454
H17_3 H 0.4820 0.7237 0.9261
C30_3 C 0.6664(5) 0.6709(2) 0.9425(2)
C31_3 C 0.6970(5) 0.6916(3) 0.8960(2)
H18_3 H 0.6593 0.7188 0.8819
C32_3 C 0.7863(5) 0.6705(3) 0.8706(2)
C33_3 C 0.8416(5) 0.6294(3) 0.8912(3)
H19_3 H 0.9006 0.6157 0.8741
C34_3 C 0.8087(5) 0.6085(2) 0.9378(3)
C35_3 C 0.7207(5) 0.6289(2) 0.9632(3)
H20_3 H 0.6979 0.6149 0.9939
C36_3 C 0.8281(5) 0.6945(3) 0.8223(2)
C37_3 C 0.8711(5) 0.5656(3) 0.9616(3)
O19_2 O 0.9999(4) 0.9481(2) 0.9271(2)
O25_3 O 0.5846(4) 0.6895(2) 0.97223(19)
H23_3 H 0.79658 0.997027 0.884501
O5_2 O 0.0001(4) 0.0519(2) 0.4271(2)
O18_2 O 0.0001(4) 0.4481(2) 0.5729(2)
C1_4 C 0.9652(5) 0.2140(3) 0.3199(3)
C2_4 C 0.9034(5) 0.1893(3) 0.3621(2)
C3_4 C 0.8127(5) 0.2145(3) 0.3810(3)
H1_4 H 0.7893 0.2448 0.3663
C4_4 C 0.7568(5) 0.1928(2) 0.4230(3)
C5_4 C 0.7904(5) 0.1466(2) 0.4430(2)
H2_4 H 0.7529 0.1317 0.4699
C6_4 C 0.8809(5) 0.1224(2) 0.4226(3)
C7_4 C 0.9364(5) 0.1434(3) 0.3828(3)
H3_4 H 0.9965 0.1268 0.3696
C8_4 C 0.9211(4) 0.0737(2) 0.4482(3)
C9_4 C 0.6156(5) 0.2053(2) 0.4836(2)
H4_4 H 0.5714 0.1759 0.4753
H5_4 H 0.6649 0.1959 0.5107
C10_6 C 0.5451(5) 0.2500 0.5000
C11_4 C 0.4738(4) 0.2325(2) 0.5447(2)
H6_4 H 0.4247 0.2596 0.5546
H7_4 H 0.5180 0.2237 0.5739
C12_4 C 0.3336(5) 0.1709(2) 0.5575(2)
C13_4 C 0.3030(5) 0.1916(3) 0.6040(2)
H8_4 H 0.3407 0.2188 0.6181
C14_4 C 0.2137(5) 0.1705(3) 0.6294(2)
C15_4 C 0.1584(5) 0.1294(3) 0.6088(3)
H9_4 H 0.0994 0.1157 0.6259
C16_4 C 0.1913(5) 0.1085(2) 0.5622(3)
C17_4 C 0.2793(5) 0.1289(2) 0.5368(3)
H10_4 H 0.3021 0.1149 0.5061
C18_4 C 0.1719(5) 0.1945(3) 0.6777(2)
C19_4 C 0.1289(5) 0.0656(3) 0.5384(3)
O7_4 O 0.6744(4) 0.22205(19) 0.4394(2)
O8_4 O 0.4154(4) 0.1895(2) 0.52777(19)
O12_4 O 0.1669(5) 0.0450(2) 0.4984(2)
C20_4 C 0.9652(5) 0.2860(3) 0.6801(3)
C21_4 C 0.9034(5) 0.3107(3) 0.6379(2)
C22_4 C 0.8127(5) 0.2855(3) 0.6190(3)
H11_4 H 0.7893 0.2552 0.6337
C23_4 C 0.7568(5) 0.3072(2) 0.5770(3)
C24_4 C 0.7904(5) 0.3534(2) 0.5570(2)
H12_4 H 0.7529 0.3683 0.5301
C25_4 C 0.8809(5) 0.3776(2) 0.5774(3)
C26_4 C 0.9364(5) 0.3566(3) 0.6172(3)
H13_4 H 0.9965 0.3732 0.6304
C27_4 C 0.9211(4) 0.4263(2) 0.5518(3)
C28_4 C 0.6156(5) 0.2947(2) 0.5164(2)
H14_4 H 0.5714 0.3241 0.5247
H15_4 H 0.6649 0.3041 0.4893
C29_4 C 0.4738(4) 0.2675(2) 0.4553(2)
H16_4 H 0.4247 0.2404 0.4454
H17_4 H 0.5180 0.2763 0.4261
C30_4 C 0.3336(5) 0.3291(2) 0.4425(2)
C31_4 C 0.3030(5) 0.3084(3) 0.3960(2)
H18_4 H 0.3407 0.2812 0.3819
C32_4 C 0.2137(5) 0.3295(3) 0.3706(2)
C33_4 C 0.1584(5) 0.3706(3) 0.3912(3)
H19_4 H 0.0994 0.3843 0.3741
C34_4 C 0.1913(5) 0.3915(2) 0.4378(3)
C35_4 C 0.2793(5) 0.3711(2) 0.4632(3)
H20_4 H 0.3021 0.3851 0.4939
C36_4 C 0.1719(5) 0.3055(3) 0.3223(2)
C37_4 C 0.1289(5) 0.4344(3) 0.4616(3)
O24_4 O 0.6744(4) 0.27795(19) 0.5606(2)
O25_4 O 0.4154(4) 0.3105(2) 0.47223(19)
O35_4 O 0.1669(5) 0.4550(2) 0.5016(2)
O36_4 O 0.1839(5) 0.5273(2) 0.5947(2)
H23_4 H 0.20342 0.00297325 0.384501
O13_4 O 0.1839(5) 0.9727(2) 0.4053(2)
loop_
_geom_bond_atom_site_label_1
_geom_bond_atom_site_label_2
_geom_bond_site_symmetry_1
_geom_bond_site_symmetry_2
Zn1 O1 1_555 1_555
O3 Zn1 1_555 1_555
O15 Zn1 1_555 1_555
O27 Zn1 1_555 1_555
O28 Zn1 1_555 1_555
Zn6 O14 1_555 1_555
Zn12 O18 1_555 1_555
Zn2 O2 1_555 1_555
C1 C2 1_555 1_555
C2 C3 1_555 1_555
C3 H1 1_555 1_555
C4 C3 1_555 1_555
C5 C4 1_555 1_555
H2 C5 1_555 1_555
C6 C5 1_555 1_555
C7 C2 1_555 1_555
H3 C7 1_555 1_555
C8 C6 1_555 1_555
C9 H4 1_555 1_555
C10 C9 1_555 1_555
O4 Zn2 1_555 1_555
O6 C8 1_555 1_555
O7 C4 1_555 1_555
C29 C10 1_555 1_555
H16 C29 1_555 1_555
H17 C29 1_555 1_555
C30 C31 1_555 1_555
C31 H18 1_555 1_555
C32 C31 1_555 1_555
C33 C32 1_555 1_555
H19 C33 1_555 1_555
C34 C33 1_555 1_555
C35 C30 1_555 1_555
H20 C35 1_555 1_555
C36 C32 1_555 1_555
C37 C34 1_555 1_555
O17 Zn2 1_555 1_555
O25 C29 1_555 1_555
O27 C36 1_555 1_555
O30 C36 1_555 1_555
O32 C37 1_555 1_555
C1 O4 1_555 1_555
C6 C7 1_555 1_555
C9 O7 1_555 1_555
C30 O25 1_555 1_555
C34 C35 1_555 1_555
C11 C10_2 1_555 1_555
H6 C11 1_555 1_555
H7 C11 1_555 1_555
C12 C13 1_555 1_555
C13 H8 1_555 1_555
C14 C13 1_555 1_555
C15 C14 1_555 1_555
H9 C15 1_555 1_555
C16 C15 1_555 1_555
C17 C12 1_555 1_555
H10 C17 1_555 1_555
C18 C14 1_555 1_555
C19 C16 1_555 1_555
O8 C11 1_555 1_555
O9 C18 1_555 1_555
O10 C18 1_555 1_555
O11 C19 1_555 1_555
Zn6 O9 1_555 1_555
Zn9 O16 1_555 1_555
C20 C21 1_555 1_555
C21 C22 1_555 1_555
C22 H11 1_555 1_555
C23 C22 1_555 1_555
C24 C23 1_555 1_555
H12 C24 1_555 1_555
C25 C24 1_555 1_555
C26 C21 1_555 1_555
H13 C26 1_555 1_555
C27 C25 1_555 1_555
C28 C10_2 1_555 1_555
H14 C28 1_555 1_555
O16 C20 1_555 1_555
O21 C27 1_555 1_555
O24 C23 1_555 1_555
O35 Zn12 1_555 1_555
O36 Zn12 1_555 1_555
C12 O8 1_555 1_555
C16 C17 1_555 1_555
C25 C26 1_555 1_555
C28 O24 1_555 1_555
O13 Zn11 1_555 1_555
O13_2 Zn3 1_555 1_555
O22_2 Zn3 1_555 1_555
Zn7 O2_2 1_555 1_555
C1_2 C2_2 1_555 1_555
C2_2 C3_2 1_555 1_555
C3_2 H1_2 1_555 1_555
C4_2 C3_2 1_555 1_555
C5_2 C4_2 1_555 1_555
H2_2 C5_2 1_555 1_555
C6_2 C5_2 1_555 1_555
C7_2 C2_2 1_555 1_555
H3_2 C7_2 1_555 1_555
C8_2 C6_2 1_555 1_555
C9_2 H4_2 1_555 1_555
H5_2 C9_2 1_555 1_555
C10_3 C9_2 1_555 1_555
C11_2 C10_3 1_555 1_555
H6_2 C11_2 1_555 1_555
H7_2 C11_2 1_555 1_555
C12_2 C13_2 1_555 1_555
C13_2 H8_2 1_555 1_555
C14_2 C13_2 1_555 1_555
C15_2 C14_2 1_555 1_555
H9_2 C15_2 1_555 1_555
C16_2 C15_2 1_555 1_555
C17_2 C12_2 1_555 1_555
H10_2 C17_2 1_555 1_555
C18_2 C14_2 1_555 1_555
C19_2 C16_2 1_555 1_555
O4_2 Zn7 1_555 1_555
O6_2 C8_2 1_555 1_555
O7_2 C4_2 1_555 1_555
O8_2 C11_2 1_555 1_555
O9_2 C18_2 1_555 1_555
O10_2 C18_2 1_555 1_555
O11_2 C19_2 1_555 1_555
O12_2 C19_2 1_555 1_555
Zn4 O26 1_555 1_555
Zn5 O9_2 1_555 1_555
Zn8 O16_2 1_555 1_555
Zn10 O20 1_555 1_555
Zn13 O6_2 1_555 1_555
Zn15 O21_2 1_555 1_555
C20_2 C21_2 1_555 1_555
C21_2 C22_2 1_555 1_555
C22_2 H11_2 1_555 1_555
C23_2 C22_2 1_555 1_555
C24_2 C23_2 1_555 1_555
H12_2 C24_2 1_555 1_555
C25_2 C24_2 1_555 1_555
C26_2 C21_2 1_555 1_555
H13_2 C26_2 1_555 1_555
C27_2 C25_2 1_555 1_555
C28_2 C10_3 1_555 1_555
H14_2 C28_2 1_555 1_555
H15_2 C28_2 1_555 1_555
C29_2 C10_3 1_555 1_555
H16_2 C29_2 1_555 1_555
H17_2 C29_2 1_555 1_555
C30_2 C31_2 1_555 1_555
C31_2 H18_2 1_555 1_555
C32_2 C31_2 1_555 1_555
C33_2 C32_2 1_555 1_555
H19_2 C33_2 1_555 1_555
C34_2 C33_2 1_555 1_555
C35_2 C30_2 1_555 1_555
H20_2 C35_2 1_555 1_555
C36_2 C32_2 1_555 1_555
C37_2 C34_2 1_555 1_555
O16_2 C20_2 1_555 1_555
O17_2 Zn7 1_555 1_555
O21_2 C27_2 1_555 1_555
O23_2 Zn10 1_555 1_555
O24_2 C23_2 1_555 1_555
O25_2 C29_2 1_555 1_555
O26 C36_2 1_555 1_555
O29 C36_2 1_555 1_555
O32_2 C37_2 1_555 1_555
O35_2 Zn10 1_555 1_555
O36_2 Zn10 1_555 1_555
C1_2 O4_2 1_555 1_555
C6_2 C7_2 1_555 1_555
C9_2 O7_2 1_555 1_555
C12_2 O8_2 1_555 1_555
C16_2 C17_2 1_555 1_555
C25_2 C26_2 1_555 1_555
C28_2 O24_2 1_555 1_555
C30_2 O25_2 1_555 1_555
C34_2 C35_2 1_555 1_555
C37_2 O35_2 1_555 1_555
Zn4 O1_2 1_555 1_555
O3_2 Zn4 1_555 1_555
Zn5 O14_2 1_555 1_555
O15_2 Zn4 1_555 1_555
O28_2 Zn4 1_555 1_555
Zn6 O1_3 1_555 1_555
O15_3 Zn6 1_555 1_555
O28_3 Zn6 1_555 1_555
Zn9 O2_3 1_555 1_555
O17_3 Zn9 1_555 1_555
Zn8 O2_4 1_555 1_555
O17_4 Zn8 1_555 1_555
Zn5 O1_4 1_555 1_555
O15_4 Zn5 1_555 1_555
O28_4 Zn5 1_555 1_555
O13_3 Zn14 1_555 1_555
C11_3 C10_4 1_555 1_555
H6_3 C11_3 1_555 1_555
H7_3 C11_3 1_555 1_555
C12_3 C13_3 1_555 1_555
C13_3 H8_3 1_555 1_555
C14_3 C13_3 1_555 1_555
C15_3 C14_3 1_555 1_555
H9_3 C15_3 1_555 1_555
C16_3 C15_3 1_555 1_555
C17_3 C12_3 1_555 1_555
H10_3 C17_3 1_555 1_555
C18_3 C14_3 1_555 1_555
C19_3 C16_3 1_555 1_555
O8_3 C11_3 1_555 1_555
O28_4 C18_3 1_555 1_555
O31_4 C18_3 1_555 1_555
O33 C19_3 1_555 1_555
Zn16 O20_2 1_555 1_555
C20_3 C21_3 1_555 1_555
C21_3 C22_3 1_555 1_555
C22_3 H11_3 1_555 1_555
C23_3 C22_3 1_555 1_555
C24_3 C23_3 1_555 1_555
H12_3 C24_3 1_555 1_555
C25_3 C24_3 1_555 1_555
C26_3 C21_3 1_555 1_555
H13_3 C26_3 1_555 1_555
C27_3 C25_3 1_555 1_555
C28_3 C10_4 1_555 1_555
H14_3 C28_3 1_555 1_555
O17_4 C20_3 1_555 1_555
O23 C27_3 1_555 1_555
O24_3 C23_3 1_555 1_555
O35_3 Zn16 1_555 1_555
O36_3 Zn16 1_555 1_555
C12_3 O8_3 1_555 1_555
C16_3 C17_3 1_555 1_555
C25_3 C26_3 1_555 1_555
C28_3 O24_3 1_555 1_555
C1_3 C2_3 1_555 1_555
C2_3 C3_3 1_555 1_555
C3_3 H1_3 1_555 1_555
C4_3 C3_3 1_555 1_555
C5_3 C4_3 1_555 1_555
H2_3 C5_3 1_555 1_555
C6_3 C5_3 1_555 1_555
C7_3 C2_3 1_555 1_555
H3_3 C7_3 1_555 1_555
C8_3 C6_3 1_555 1_555
C9_3 H4_3 1_555 1_555
C10_5 C9_3 1_555 1_555
O22 C8_3 1_555 1_555
O7_3 C4_3 1_555 1_555
C29_3 C10_5 1_555 1_555
H16_3 C29_3 1_555 1_555
H17_3 C29_3 1_555 1_555
C30_3 C31_3 1_555 1_555
C31_3 H18_3 1_555 1_555
C32_3 C31_3 1_555 1_555
C33_3 C32_3 1_555 1_555
H19_3 C33_3 1_555 1_555
C34_3 C33_3 1_555 1_555
C35_3 C30_3 1_555 1_555
H20_3 C35_3 1_555 1_555
C36_3 C32_3 1_555 1_555
C37_3 C34_3 1_555 1_555
O25_3 C29_3 1_555 1_555
O28_2 C36_3 1_555 1_555
O31_2 C36_3 1_555 1_555
O34 C37_3 1_555 1_555
C1_3 O17_2 1_555 1_555
C6_3 C7_3 1_555 1_555
C9_3 O7_3 1_555 1_555
C30_3 O25_3 1_555 1_555
C34_3 C35_3 1_555 1_555
Zn15 O18_2 1_555 1_555
C1_4 C2_4 1_555 1_555
C2_4 C3_4 1_555 1_555
C3_4 H1_4 1_555 1_555
C4_4 C3_4 1_555 1_555
C5_4 C4_4 1_555 1_555
H2_4 C5_4 1_555 1_555
C6_4 C5_4 1_555 1_555
C7_4 C2_4 1_555 1_555
H3_4 C7_4 1_555 1_555
C8_4 C6_4 1_555 1_555
C9_4 H4_4 1_555 1_555
H5_4 C9_4 1_555 1_555
C10_6 C9_4 1_555 1_555
C11_4 C10_6 1_555 1_555
H6_4 C11_4 1_555 1_555
H7_4 C11_4 1_555 1_555
C12_4 C13_4 1_555 1_555
C13_4 H8_4 1_555 1_555
C14_4 C13_4 1_555 1_555
C15_4 C14_4 1_555 1_555
H9_4 C15_4 1_555 1_555
C16_4 C15_4 1_555 1_555
C17_4 C12_4 1_555 1_555
H10_4 C17_4 1_555 1_555
C18_4 C14_4 1_555 1_555
C19_4 C16_4 1_555 1_555
O22_2 C8_4 1_555 1_555
O7_4 C4_4 1_555 1_555
O8_4 C11_4 1_555 1_555
O28_3 C18_4 1_555 1_555
O31_3 C18_4 1_555 1_555
O33_2 C19_4 1_555 1_555
O12_4 C19_4 1_555 1_555
C20_4 C21_4 1_555 1_555
C21_4 C22_4 1_555 1_555
C22_4 H11_4 1_555 1_555
C23_4 C22_4 1_555 1_555
C24_4 C23_4 1_555 1_555
H12_4 C24_4 1_555 1_555
C25_4 C24_4 1_555 1_555
C26_4 C21_4 1_555 1_555
H13_4 C26_4 1_555 1_555
C27_4 C25_4 1_555 1_555
C28_4 C10_6 1_555 1_555
H14_4 C28_4 1_555 1_555
H15_4 C28_4 1_555 1_555
C29_4 C10_6 1_555 1_555
H16_4 C29_4 1_555 1_555
H17_4 C29_4 1_555 1_555
C30_4 C31_4 1_555 1_555
C31_4 H18_4 1_555 1_555
C32_4 C31_4 1_555 1_555
C33_4 C32_4 1_555 1_555
H19_4 C33_4 1_555 1_555
C34_4 C33_4 1_555 1_555
C35_4 C30_4 1_555 1_555
H20_4 C35_4 1_555 1_555
C36_4 C32_4 1_555 1_555
C37_4 C34_4 1_555 1_555
O17_3 C20_4 1_555 1_555
O23_2 C27_4 1_555 1_555
O24_4 C23_4 1_555 1_555
O25_4 C29_4 1_555 1_555
O28 C36_4 1_555 1_555
O31 C36_4 1_555 1_555
O34_2 C37_4 1_555 1_555
O35_4 Zn15 1_555 1_555
O36_4 Zn15 1_555 1_555
C1_4 O17 1_555 1_555
C6_4 C7_4 1_555 1_555
C9_4 O7_4 1_555 1_555
C12_4 O8_4 1_555 1_555
C16_4 C17_4 1_555 1_555
C25_4 C26_4 1_555 1_555
C28_4 O24_4 1_555 1_555
C30_4 O25_4 1_555 1_555
C34_4 C35_4 1_555 1_555
C37_4 O35_4 1_555 1_555
O13_4 Zn13 1_555 1_555

#END
