
###############################################################################
#
# This file contains modified crystal structure data generated from the
# MOF subset of the Cambridge Structural Database (CSD) v543 
# hosted by the Cambridge Crystallographic Data Centre (CCDC).
#
# This work is licensed under the Creative Commons
# Attribution-NonCommercial-ShareAlike 4.0 International License.
# To view a copy of this license, visit
# http://creativecommons.org/licenses/by-nc-sa/4.0/
# or send a letter to
# Creative Commons, PO Box 1866, Mountain View, CA 94042, USA.
#
# CIF created using the CSD Python API on 29 September 2022
# The structure has been converted into the P1 space group
# The structure has a 3D framework
# The original CSD entry DAKXIA is in the tetragonal crystal system
# The framework has been calculated to contain at least 10.0% void space
# The void calculation uses a probe of radius 1.32A, grid spacing 0.4
# H atom positions have been added when not included in the experimental data
# Generated hydrogen atom positions removed from atoms on special positions
#
###############################################################################

data_DAKXIA
_chemical_formula_moiety         '(C604 H364 Cu48 N172 O220)n'
_symmetry_cell_setting           triclinic
_symmetry_space_group_name_H-M   'P 1'
_symmetry_Int_Tables_number      1
_space_group_name_Hall           'P 1'
loop_
_symmetry_equiv_pos_site_id
_symmetry_equiv_pos_as_xyz
1 x,y,z
_cell_length_a                   32.327(9)
_cell_length_b                   32.327(9)
_cell_length_c                   32.129(7)
_cell_angle_alpha                90
_cell_angle_beta                 90
_cell_angle_gamma                90
_cell_volume                     33575.9
loop_
_atom_site_label
_atom_site_type_symbol
_atom_site_fract_x
_atom_site_fract_y
_atom_site_fract_z
Cu1 Cu 0.26652(3) 0.52568(3) 0.23042(3)
Cu2 Cu 0.32395(3) 0.51944(3) 0.17022(3)
C1 C 0.4248(3) 0.3390(2) 0.2419(2)
C2 C 0.3942(3) 0.3647(3) 0.2610(3)
C3 C 0.3789(3) 0.3554(3) 0.3003(3)
H1 H 0.3882 0.3319 0.3142
C4 C 0.3786(3) 0.4006(2) 0.2409(2)
H2 H 0.3881 0.4065 0.2143
C5 C 0.3319(2) 0.4624(2) 0.2353(2)
C6 C 0.3504(2) 0.4268(2) 0.2583(2)
C7 C 0.3336(3) 0.4165(3) 0.2988(2)
H3 H 0.3130 0.4324 0.3111
C8 C 0.3499(3) 0.3809(2) 0.3188(2)
C9 C 0.3345(3) 0.3391(3) 0.3821(3)
H4 H 0.3378 0.3126 0.3713
C10 C 0.3254(3) 0.3510(3) 0.4228(3)
C11 C 0.3090(3) 0.2860(2) 0.4655(3)
H5 H 0.3066 0.2711 0.4408
C12 C 0.3205(3) 0.3271(3) 0.4629(3)
C13 C 0.3233(3) 0.3488(4) 0.5000
H6 H 0.3269 0.3774 0.5000
N1 N 0.3013(3) 0.2670(3) 0.5000
N2 N 0.3372(3) 0.3740(2) 0.3631(2)
N3 N 0.3302(4) 0.4080(3) 0.3856(3)
N4 N 0.3218(4) 0.3946(3) 0.4229(3)
O1 O 0.3475(2) 0.4721(2) 0.2009(2)
O2 O 0.30234(17) 0.48060(16) 0.25365(19)
O3 O 0.43214(19) 0.30430(17) 0.25615(17)
O4 O 0.4424(2) 0.3537(2) 0.2071(2)
O5 O 0.3713(2) 0.5279(3) 0.1239(2)
Cu3 Cu 0.16038(4) 0.80547(4) 0.5000
Cu4 Cu 0.21155(4) 0.73967(4) 0.5000
C14 C 0.1426(3) 0.7358(2) 0.4463(2)
C15 C 0.1154(3) 0.7196(3) 0.4106(2)
C16 C 0.1224(3) 0.6756(3) 0.4008(3)
H7 H 0.1415 0.6591 0.4146
C17 C 0.0970(2) 0.6612(2) 0.3683(3)
C18 C 0.0661(3) 0.6847(3) 0.3492(3)
H8 H 0.0496 0.6732 0.3285
C19 C 0.1936(3) 0.5400(3) 0.2944(3)
H9 H 0.1937 0.5673 0.2852
C20 C 0.2194(3) 0.4743(2) 0.2902(2)
H10 H 0.2355 0.4549 0.2762
C21 C 0.1911(3) 0.4599(3) 0.3216(3)
C22 C 0.1634(3) 0.4888(3) 0.3351(3)
H11 H 0.1439 0.4809 0.3548
C23 C 0.1629(3) 0.5284(2) 0.3213(3)
C24 C 0.1959(3) 0.4157(3) 0.3339(3)
C25 C 0.1643(3) 0.3893(3) 0.3472(3)
H12 H 0.1363 0.3946 0.3512
C26 C 0.0811(2) 0.2430(2) 0.3359(3)
C27 C 0.1172(2) 0.2606(2) 0.3589(3)
C28 C 0.1919(2) 0.2270(2) 0.4449(2)
C29 C 0.0854(3) 0.7403(3) 0.3939(2)
H13 H 0.0801 0.7667 0.4041
C30 C 0.0604(3) 0.7259(2) 0.3618(2)
C31 C 0.1434(3) 0.6024(3) 0.3481(3)
H14 H 0.1690 0.6154 0.3501
C32 C 0.1336(3) 0.5610(3) 0.3362(2)
C33 C 0.1734(3) 0.2534(3) 0.4087(3)
C34 C 0.1349(3) 0.3000(2) 0.3461(3)
H15 H 0.1235 0.3150 0.3242
C35 C 0.1355(3) 0.2360(3) 0.3896(3)
H16 H 0.1246 0.2105 0.3975
C36 C 0.0270(3) 0.7501(3) 0.3424(2)
C37 C 0.1880(3) 0.2911(3) 0.3974(3)
H17 H 0.2115 0.3017 0.4103
C38 C 0.1680(3) 0.3140(3) 0.3667(3)
N5 N 0.2237(2) 0.5149(2) 0.2803(2)
N6 N 0.1047(2) 0.6176(2) 0.3557(3)
N7 N 0.0746(3) 0.5924(3) 0.3520(4)
N8 N 0.0923(3) 0.5573(3) 0.3389(4)
N9 N 0.1863(2) 0.3531(2) 0.3527(2)
N10 N 0.2260(3) 0.3578(3) 0.3452(3)
N11 N 0.2317(3) 0.3954(3) 0.3333(4)
O6 O 0.06873(18) 0.25982(18) 0.3033(2)
O7 O 0.0663(2) 0.20844(18) 0.3507(2)
O8 O 0.01999(17) 0.78553(15) 0.35718(18)
O9 O 0.01572(19) 0.73790(18) 0.30638(18)
O10 O 0.1318(2) 0.77315(19) 0.4567(2)
O11 O 0.17209(18) 0.71732(18) 0.45780(19)
O12 O 0.1708(2) 0.1957(2) 0.4582(2)
O13 O 0.22610(18) 0.23950(17) 0.45777(17)
O14 O 0.1163(3) 0.8569(3) 0.5000
C39 C 0.4248(3) 0.3390(2) 0.7581(2)
C40 C 0.3942(3) 0.3647(3) 0.7390(3)
C41 C 0.3789(3) 0.3554(3) 0.6997(3)
H18 H 0.3882 0.3319 0.6858
C42 C 0.3786(3) 0.4006(2) 0.7591(2)
H19 H 0.3881 0.4065 0.7857
C43 C 0.3319(2) 0.4624(2) 0.7647(2)
C44 C 0.3504(2) 0.4268(2) 0.7417(2)
C45 C 0.3336(3) 0.4165(3) 0.7012(2)
H20 H 0.3130 0.4324 0.6889
C46 C 0.3499(3) 0.3809(2) 0.6812(2)
C47 C 0.3345(3) 0.3391(3) 0.6179(3)
H21 H 0.3378 0.3126 0.6287
C48 C 0.3254(3) 0.3510(3) 0.5772(3)
C49 C 0.3090(3) 0.2860(2) 0.5345(3)
H22 H 0.3066 0.2711 0.5592
C50 C 0.3205(3) 0.3271(3) 0.5371(3)
N12 N 0.3372(3) 0.3740(2) 0.6369(2)
N13 N 0.3302(4) 0.4080(3) 0.6144(3)
N14 N 0.3218(4) 0.3946(3) 0.5771(3)
O15 O 0.3475(2) 0.4721(2) 0.7991(2)
O16 O 0.30234(17) 0.48060(16) 0.74635(19)
O17 O 0.43214(19) 0.30430(17) 0.74385(17)
O18 O 0.4424(2) 0.3537(2) 0.7929(2)
Cu5 Cu 0.47432(3) 0.26652(3) 0.23042(3)
Cu6 Cu 0.48056(3) 0.32395(3) 0.17022(3)
O19 O 0.4721(3) 0.3713(2) 0.1239(2)
C51 C 0.2642(2) 0.1426(3) 0.4463(2)
C52 C 0.2804(3) 0.1154(3) 0.4106(2)
C53 C 0.3244(3) 0.1224(3) 0.4008(3)
H23 H 0.3409 0.1415 0.4146
C54 C 0.3388(2) 0.0970(2) 0.3683(3)
C55 C 0.3153(3) 0.0661(3) 0.3492(3)
H24 H 0.3268 0.0496 0.3285
C56 C 0.4600(3) 0.1936(3) 0.2944(3)
H25 H 0.4327 0.1937 0.2852
C57 C 0.5257(2) 0.2194(3) 0.2902(2)
H26 H 0.5451 0.2355 0.2762
C58 C 0.5401(3) 0.1911(3) 0.3216(3)
C59 C 0.5112(3) 0.1634(3) 0.3351(3)
H27 H 0.5191 0.1439 0.3548
C60 C 0.4716(2) 0.1629(3) 0.3213(3)
C61 C 0.5843(3) 0.1959(3) 0.3339(3)
C62 C 0.6107(3) 0.1643(3) 0.3472(3)
H28 H 0.6054 0.1363 0.3512
C63 C 0.7570(2) 0.0811(2) 0.3359(3)
C64 C 0.7394(2) 0.1172(2) 0.3589(3)
C65 C 0.7730(2) 0.1919(2) 0.4449(2)
C66 C 0.2597(3) 0.0854(3) 0.3939(2)
H29 H 0.2333 0.0801 0.4041
C67 C 0.2741(2) 0.0604(3) 0.3618(2)
C68 C 0.3976(3) 0.1434(3) 0.3481(3)
H30 H 0.3846 0.1690 0.3501
C69 C 0.4390(3) 0.1336(3) 0.3362(2)
C70 C 0.7466(3) 0.1734(3) 0.4087(3)
C71 C 0.7000(2) 0.1349(3) 0.3461(3)
H31 H 0.6850 0.1235 0.3242
C72 C 0.7640(3) 0.1355(3) 0.3896(3)
H32 H 0.7895 0.1246 0.3975
C73 C 0.2499(3) 0.0270(3) 0.3424(2)
C74 C 0.7089(3) 0.1880(3) 0.3974(3)
H33 H 0.6983 0.2115 0.4103
C75 C 0.6860(3) 0.1680(3) 0.3667(3)
N15 N 0.4851(2) 0.2237(2) 0.2803(2)
N16 N 0.3824(2) 0.1047(2) 0.3557(3)
N17 N 0.4076(3) 0.0746(3) 0.3520(4)
N18 N 0.4427(3) 0.0923(3) 0.3389(4)
N19 N 0.6469(2) 0.1863(2) 0.3527(2)
N20 N 0.6422(3) 0.2260(3) 0.3452(3)
N21 N 0.6046(3) 0.2317(3) 0.3333(4)
O20 O 0.74018(18) 0.06873(18) 0.3033(2)
O21 O 0.79156(18) 0.0663(2) 0.3507(2)
O22 O 0.21447(15) 0.01999(17) 0.35718(18)
O23 O 0.26210(18) 0.01572(19) 0.30638(18)
O24 O 0.22685(19) 0.1318(2) 0.4567(2)
O25 O 0.28268(18) 0.17209(18) 0.45780(19)
O26 O 0.8043(2) 0.1708(2) 0.4582(2)
O27 O 0.76050(17) 0.22610(18) 0.45777(17)
Cu7 Cu 0.26652(3) 0.52568(3) 0.76958(3)
Cu8 Cu 0.47432(3) 0.26652(3) 0.76958(3)
Cu10 Cu 0.76652(3) 0.02568(3) 0.26958(3)
Cu11 Cu 0.02568(3) 0.23348(3) 0.26958(3)
Cu13 Cu 0.32395(3) 0.51944(3) 0.82978(3)
Cu14 Cu 0.48056(3) 0.32395(3) 0.82978(3)
Cu16 Cu 0.82395(3) 0.01944(3) 0.32978(3)
Cu17 Cu 0.01944(3) 0.17605(3) 0.32978(3)
N22 N 0.2670(3) 0.6987(3) 0.5000
O28 O 0.5279(2) 0.3475(2) 0.2009(2)
O29 O 0.51940(16) 0.30234(17) 0.25365(19)
O30 O 0.30430(17) 0.56786(19) 0.25615(17)
O31 O 0.3537(2) 0.5576(2) 0.2071(2)
Cu19 Cu 0.83962(4) 0.19453(4) 0.5000
Cu20 Cu 0.19453(4) 0.16038(4) 0.5000
Cu21 Cu 0.78845(4) 0.26033(4) 0.5000
Cu22 Cu 0.26033(4) 0.21155(4) 0.5000
O32 O 0.43127(18) 0.24018(18) 0.1967(2)
O33 O 0.24018(18) 0.56873(18) 0.1967(2)
O34 O 0.4337(2) 0.29156(18) 0.1493(2)
O35 O 0.29156(18) 0.5663(2) 0.1493(2)
O36 O 0.51999(17) 0.28553(15) 0.14282(18)
O37 O 0.28553(15) 0.48001(17) 0.14282(18)
O38 O 0.51572(19) 0.23790(18) 0.19362(18)
O39 O 0.23790(18) 0.48428(19) 0.19362(18)
O40 O 0.1318(2) 0.77315(19) 0.5433(2)
O41 O 0.17209(18) 0.71732(18) 0.54220(19)
O42 O 0.1957(2) 0.8292(2) 0.4582(2)
O43 O 0.1957(2) 0.8292(2) 0.5418(2)
O44 O 0.23950(17) 0.77390(18) 0.45777(17)
O45 O 0.23950(17) 0.77390(18) 0.54223(17)
Cu9 Cu 0.23348(3) 0.97432(3) 0.26958(3)
Cu15 Cu 0.17605(3) 0.98056(3) 0.32978(3)
Cu12 Cu 0.97432(3) 0.76652(3) 0.26958(3)
Cu18 Cu 0.98056(3) 0.82395(3) 0.32978(3)
Cu1_2 Cu 0.73348(3) 0.47432(3) 0.23042(3)
Cu2_2 Cu 0.67605(3) 0.48056(3) 0.17022(3)
C1_2 C 0.5752(3) 0.6610(2) 0.2419(2)
C2_2 C 0.6058(3) 0.6353(3) 0.2610(3)
C3_2 C 0.6211(3) 0.6446(3) 0.3003(3)
H1_2 H 0.6118 0.6681 0.3142
C4_2 C 0.6214(3) 0.5994(2) 0.2409(2)
H2_2 H 0.6119 0.5935 0.2143
C5_2 C 0.6681(2) 0.5376(2) 0.2353(2)
C6_2 C 0.6496(2) 0.5732(2) 0.2583(2)
C7_2 C 0.6664(3) 0.5835(3) 0.2988(2)
H3_2 H 0.6870 0.5676 0.3111
C8_2 C 0.6501(3) 0.6191(2) 0.3188(2)
C9_2 C 0.6655(3) 0.6609(3) 0.3821(3)
H4_2 H 0.6622 0.6874 0.3713
C10_2 C 0.6746(3) 0.6490(3) 0.4228(3)
C11_2 C 0.6910(3) 0.7140(2) 0.4655(3)
H5_2 H 0.6934 0.7289 0.4408
C12_2 C 0.6795(3) 0.6729(3) 0.4629(3)
C13_2 C 0.6767(3) 0.6512(4) 0.5000
H6_2 H 0.6731 0.6226 0.5000
N1_2 N 0.6987(3) 0.7330(3) 0.5000
N2_2 N 0.6628(3) 0.6260(2) 0.3631(2)
N3_2 N 0.6698(4) 0.5920(3) 0.3856(3)
N4_2 N 0.6782(4) 0.6054(3) 0.4229(3)
O1_2 O 0.6525(2) 0.5279(2) 0.2009(2)
O2_2 O 0.69766(17) 0.51940(16) 0.25365(19)
O3_2 O 0.56786(19) 0.69570(17) 0.25615(17)
O4_2 O 0.5576(2) 0.6463(2) 0.2071(2)
O5_2 O 0.6287(2) 0.4721(3) 0.1239(2)
C14_2 C 0.8574(3) 0.2642(2) 0.4463(2)
C15_2 C 0.8846(3) 0.2804(3) 0.4106(2)
C16_2 C 0.8776(3) 0.3244(3) 0.4008(3)
H7_2 H 0.8585 0.3409 0.4146
C17_2 C 0.9030(2) 0.3388(2) 0.3683(3)
C18_2 C 0.9339(3) 0.3153(3) 0.3492(3)
H8_2 H 0.9504 0.3268 0.3285
C19_2 C 0.8064(3) 0.4600(3) 0.2944(3)
H9_2 H 0.8063 0.4327 0.2852
C20_2 C 0.7806(3) 0.5257(2) 0.2902(2)
H10_2 H 0.7645 0.5451 0.2762
C21_2 C 0.8089(3) 0.5401(3) 0.3216(3)
C22_2 C 0.8366(3) 0.5112(3) 0.3351(3)
H11_2 H 0.8561 0.5191 0.3548
C23_2 C 0.8371(3) 0.4716(2) 0.3213(3)
C24_2 C 0.8041(3) 0.5843(3) 0.3339(3)
C25_2 C 0.8357(3) 0.6107(3) 0.3472(3)
H12_2 H 0.8637 0.6054 0.3512
C26_2 C 0.9189(2) 0.7570(2) 0.3359(3)
C27_2 C 0.8828(2) 0.7394(2) 0.3589(3)
C28_2 C 0.8081(2) 0.7730(2) 0.4449(2)
C29_2 C 0.9146(3) 0.2597(3) 0.3939(2)
H13_2 H 0.9199 0.2333 0.4041
C30_2 C 0.9396(3) 0.2741(2) 0.3618(2)
C31_2 C 0.8566(3) 0.3976(3) 0.3481(3)
H14_2 H 0.8310 0.3846 0.3501
C32_2 C 0.8664(3) 0.4390(3) 0.3362(2)
C33_2 C 0.8266(3) 0.7466(3) 0.4087(3)
C34_2 C 0.8651(3) 0.7000(2) 0.3461(3)
H15_2 H 0.8765 0.6850 0.3242
C35_2 C 0.8645(3) 0.7640(3) 0.3896(3)
H16_2 H 0.8754 0.7895 0.3975
C36_2 C 0.9730(3) 0.2499(3) 0.3424(2)
C37_2 C 0.8120(3) 0.7089(3) 0.3974(3)
H17_2 H 0.7885 0.6983 0.4103
C38_2 C 0.8320(3) 0.6860(3) 0.3667(3)
N5_2 N 0.7763(2) 0.4851(2) 0.2803(2)
N6_2 N 0.8953(2) 0.3824(2) 0.3557(3)
N7_2 N 0.9254(3) 0.4076(3) 0.3520(4)
N8_2 N 0.9077(3) 0.4427(3) 0.3389(4)
N9_2 N 0.8137(2) 0.6469(2) 0.3527(2)
N10_2 N 0.7740(3) 0.6422(3) 0.3452(3)
N11_2 N 0.7683(3) 0.6046(3) 0.3333(4)
O6_2 O 0.93127(18) 0.74018(18) 0.3033(2)
O7_2 O 0.9337(2) 0.79156(18) 0.3507(2)
O8_2 O 0.98001(17) 0.21447(15) 0.35718(18)
O9_2 O 0.98428(19) 0.26210(18) 0.30638(18)
O10_2 O 0.8682(2) 0.22685(19) 0.4567(2)
O11_2 O 0.82791(18) 0.28268(18) 0.45780(19)
O12_2 O 0.8292(2) 0.8043(2) 0.4582(2)
O13_2 O 0.77390(18) 0.76050(17) 0.45777(17)
O14_2 O 0.8837(3) 0.1431(3) 0.5000
C39_2 C 0.5752(3) 0.6610(2) 0.7581(2)
C40_2 C 0.6058(3) 0.6353(3) 0.7390(3)
C41_2 C 0.6211(3) 0.6446(3) 0.6997(3)
H18_2 H 0.6118 0.6681 0.6858
C42_2 C 0.6214(3) 0.5994(2) 0.7591(2)
H19_2 H 0.6119 0.5935 0.7857
C43_2 C 0.6681(2) 0.5376(2) 0.7647(2)
C44_2 C 0.6496(2) 0.5732(2) 0.7417(2)
C45_2 C 0.6664(3) 0.5835(3) 0.7012(2)
H20_2 H 0.6870 0.5676 0.6889
C46_2 C 0.6501(3) 0.6191(2) 0.6812(2)
C47_2 C 0.6655(3) 0.6609(3) 0.6179(3)
H21_2 H 0.6622 0.6874 0.6287
C48_2 C 0.6746(3) 0.6490(3) 0.5772(3)
C49_2 C 0.6910(3) 0.7140(2) 0.5345(3)
H22_2 H 0.6934 0.7289 0.5592
C50_2 C 0.6795(3) 0.6729(3) 0.5371(3)
N12_2 N 0.6628(3) 0.6260(2) 0.6369(2)
N13_2 N 0.6698(4) 0.5920(3) 0.6144(3)
N14_2 N 0.6782(4) 0.6054(3) 0.5771(3)
O15_2 O 0.6525(2) 0.5279(2) 0.7991(2)
O16_2 O 0.69766(17) 0.51940(16) 0.74635(19)
O17_2 O 0.56786(19) 0.69570(17) 0.74385(17)
O18_2 O 0.5576(2) 0.6463(2) 0.7929(2)
Cu5_2 Cu 0.52568(3) 0.73348(3) 0.23042(3)
Cu6_2 Cu 0.51944(3) 0.67605(3) 0.17022(3)
O19_2 O 0.5279(3) 0.6287(2) 0.1239(2)
C51_2 C 0.7358(2) 0.8574(3) 0.4463(2)
C52_2 C 0.7196(3) 0.8846(3) 0.4106(2)
C53_2 C 0.6756(3) 0.8776(3) 0.4008(3)
H23_2 H 0.6591 0.8585 0.4146
C54_2 C 0.6612(2) 0.9030(2) 0.3683(3)
C55_2 C 0.6847(3) 0.9339(3) 0.3492(3)
H24_2 H 0.6732 0.9504 0.3285
C56_2 C 0.5400(3) 0.8064(3) 0.2944(3)
H25_2 H 0.5673 0.8063 0.2852
C57_2 C 0.4743(2) 0.7806(3) 0.2902(2)
H26_2 H 0.4549 0.7645 0.2762
C58_2 C 0.4599(3) 0.8089(3) 0.3216(3)
C59_2 C 0.4888(3) 0.8366(3) 0.3351(3)
H27_2 H 0.4809 0.8561 0.3548
C60_2 C 0.5284(2) 0.8371(3) 0.3213(3)
C61_2 C 0.4157(3) 0.8041(3) 0.3339(3)
C62_2 C 0.3893(3) 0.8357(3) 0.3472(3)
H28_2 H 0.3946 0.8637 0.3512
C63_2 C 0.2430(2) 0.9189(2) 0.3359(3)
C64_2 C 0.2606(2) 0.8828(2) 0.3589(3)
C65_2 C 0.2270(2) 0.8081(2) 0.4449(2)
C66_2 C 0.7403(3) 0.9146(3) 0.3939(2)
H29_2 H 0.7667 0.9199 0.4041
C67_2 C 0.7259(2) 0.9396(3) 0.3618(2)
C68_2 C 0.6024(3) 0.8566(3) 0.3481(3)
H30_2 H 0.6154 0.8310 0.3501
C69_2 C 0.5610(3) 0.8664(3) 0.3362(2)
C70_2 C 0.2534(3) 0.8266(3) 0.4087(3)
C71_2 C 0.3000(2) 0.8651(3) 0.3461(3)
H31_2 H 0.3150 0.8765 0.3242
C72_2 C 0.2360(3) 0.8645(3) 0.3896(3)
H32_2 H 0.2105 0.8754 0.3975
C73_2 C 0.7501(3) 0.9730(3) 0.3424(2)
C74_2 C 0.2911(3) 0.8120(3) 0.3974(3)
H33_2 H 0.3017 0.7885 0.4103
C75_2 C 0.3140(3) 0.8320(3) 0.3667(3)
N15_2 N 0.5149(2) 0.7763(2) 0.2803(2)
N16_2 N 0.6176(2) 0.8953(2) 0.3557(3)
N17_2 N 0.5924(3) 0.9254(3) 0.3520(4)
N18_2 N 0.5573(3) 0.9077(3) 0.3389(4)
N19_2 N 0.3531(2) 0.8137(2) 0.3527(2)
N20_2 N 0.3578(3) 0.7740(3) 0.3452(3)
N21_2 N 0.3954(3) 0.7683(3) 0.3333(4)
O20_2 O 0.25982(18) 0.93127(18) 0.3033(2)
O21_2 O 0.20844(18) 0.9337(2) 0.3507(2)
O22_2 O 0.78553(15) 0.98001(17) 0.35718(18)
O23_2 O 0.73790(18) 0.98428(19) 0.30638(18)
O24_2 O 0.77315(19) 0.8682(2) 0.4567(2)
O25_2 O 0.71732(18) 0.82791(18) 0.45780(19)
Cu7_2 Cu 0.73348(3) 0.47432(3) 0.76958(3)
Cu8_2 Cu 0.52568(3) 0.73348(3) 0.76958(3)
Cu13_2 Cu 0.67605(3) 0.48056(3) 0.82978(3)
Cu14_2 Cu 0.51944(3) 0.67605(3) 0.82978(3)
N22_2 N 0.7330(3) 0.3013(3) 0.5000
O28_2 O 0.4721(2) 0.6525(2) 0.2009(2)
O29_2 O 0.48060(16) 0.69766(17) 0.25365(19)
O30_2 O 0.69570(17) 0.43214(19) 0.25615(17)
O31_2 O 0.6463(2) 0.4424(2) 0.2071(2)
Cu20_2 Cu 0.80547(4) 0.83962(4) 0.5000
Cu22_2 Cu 0.73967(4) 0.78845(4) 0.5000
O32_2 O 0.56873(18) 0.75982(18) 0.1967(2)
O33_2 O 0.75982(18) 0.43127(18) 0.1967(2)
O34_2 O 0.5663(2) 0.70844(18) 0.1493(2)
O35_2 O 0.70844(18) 0.4337(2) 0.1493(2)
O36_2 O 0.48001(17) 0.71447(15) 0.14282(18)
O37_2 O 0.71447(15) 0.51999(17) 0.14282(18)
O38_2 O 0.48428(19) 0.76210(18) 0.19362(18)
O39_2 O 0.76210(18) 0.51572(19) 0.19362(18)
O40_2 O 0.8682(2) 0.22685(19) 0.5433(2)
O41_2 O 0.82791(18) 0.28268(18) 0.54220(19)
O43_2 O 0.8043(2) 0.1708(2) 0.5418(2)
O45_2 O 0.76050(17) 0.22610(18) 0.54223(17)
C1_3 C 0.6610(2) 0.4248(3) 0.2419(2)
C2_3 C 0.6353(3) 0.3942(3) 0.2610(3)
C3_3 C 0.6446(3) 0.3789(3) 0.3003(3)
H1_3 H 0.6681 0.3882 0.3142
C4_3 C 0.5994(2) 0.3786(3) 0.2409(2)
H2_3 H 0.5935 0.3881 0.2143
C5_3 C 0.5376(2) 0.3319(2) 0.2353(2)
C6_3 C 0.5732(2) 0.3504(2) 0.2583(2)
C7_3 C 0.5835(3) 0.3336(3) 0.2988(2)
H3_3 H 0.5676 0.3130 0.3111
C8_3 C 0.6191(2) 0.3499(3) 0.3188(2)
C9_3 C 0.6609(3) 0.3345(3) 0.3821(3)
H4_3 H 0.6874 0.3378 0.3713
C10_3 C 0.6490(3) 0.3254(3) 0.4228(3)
C11_3 C 0.7140(2) 0.3090(3) 0.4655(3)
H5_3 H 0.7289 0.3066 0.4408
C12_3 C 0.6729(3) 0.3205(3) 0.4629(3)
C13_3 C 0.6512(4) 0.3233(3) 0.5000
H6_3 H 0.6226 0.3269 0.5000
N2_3 N 0.6260(2) 0.3372(3) 0.3631(2)
N3_3 N 0.5920(3) 0.3302(4) 0.3856(3)
N4_3 N 0.6054(3) 0.3218(4) 0.4229(3)
O14_3 O 0.1431(3) 0.1163(3) 0.5000
C39_3 C 0.6610(2) 0.4248(3) 0.7581(2)
C40_3 C 0.6353(3) 0.3942(3) 0.7390(3)
C41_3 C 0.6446(3) 0.3789(3) 0.6997(3)
H18_3 H 0.6681 0.3882 0.6858
C42_3 C 0.5994(2) 0.3786(3) 0.7591(2)
H19_3 H 0.5935 0.3881 0.7857
C43_3 C 0.5376(2) 0.3319(2) 0.7647(2)
C44_3 C 0.5732(2) 0.3504(2) 0.7417(2)
C45_3 C 0.5835(3) 0.3336(3) 0.7012(2)
H20_3 H 0.5676 0.3130 0.6889
C46_3 C 0.6191(2) 0.3499(3) 0.6812(2)
C47_3 C 0.6609(3) 0.3345(3) 0.6179(3)
H21_3 H 0.6874 0.3378 0.6287
C48_3 C 0.6490(3) 0.3254(3) 0.5772(3)
C49_3 C 0.7140(2) 0.3090(3) 0.5345(3)
H22_3 H 0.7289 0.3066 0.5592
C50_3 C 0.6729(3) 0.3205(3) 0.5371(3)
N12_3 N 0.6260(2) 0.3372(3) 0.6369(2)
N13_3 N 0.5920(3) 0.3302(4) 0.6144(3)
N14_3 N 0.6054(3) 0.3218(4) 0.5771(3)
O15_3 O 0.5279(2) 0.3475(2) 0.7991(2)
O16_3 O 0.51940(16) 0.30234(17) 0.74635(19)
O17_3 O 0.69570(17) 0.43214(19) 0.74385(17)
O18_3 O 0.6463(2) 0.4424(2) 0.7929(2)
O40_3 O 0.22685(19) 0.1318(2) 0.5433(2)
O41_3 O 0.28268(18) 0.17209(18) 0.54220(19)
O43_3 O 0.1708(2) 0.1957(2) 0.5418(2)
O45_3 O 0.22610(18) 0.23950(17) 0.54223(17)
C1_4 C 0.3390(2) 0.5752(3) 0.2419(2)
C2_4 C 0.3647(3) 0.6058(3) 0.2610(3)
C3_4 C 0.3554(3) 0.6211(3) 0.3003(3)
H1_4 H 0.3319 0.6118 0.3142
C4_4 C 0.4006(2) 0.6214(3) 0.2409(2)
H2_4 H 0.4065 0.6119 0.2143
C5_4 C 0.4624(2) 0.6681(2) 0.2353(2)
C6_4 C 0.4268(2) 0.6496(2) 0.2583(2)
C7_4 C 0.4165(3) 0.6664(3) 0.2988(2)
H3_4 H 0.4324 0.6870 0.3111
C8_4 C 0.3809(2) 0.6501(3) 0.3188(2)
C9_4 C 0.3391(3) 0.6655(3) 0.3821(3)
H4_4 H 0.3126 0.6622 0.3713
C10_4 C 0.3510(3) 0.6746(3) 0.4228(3)
C11_4 C 0.2860(2) 0.6910(3) 0.4655(3)
H5_4 H 0.2711 0.6934 0.4408
C12_4 C 0.3271(3) 0.6795(3) 0.4629(3)
C13_4 C 0.3488(4) 0.6767(3) 0.5000
H6_4 H 0.3774 0.6731 0.5000
N2_4 N 0.3740(2) 0.6628(3) 0.3631(2)
N3_4 N 0.4080(3) 0.6698(4) 0.3856(3)
N4_4 N 0.3946(3) 0.6782(4) 0.4229(3)
O14_4 O 0.8569(3) 0.8837(3) 0.5000
C39_4 C 0.3390(2) 0.5752(3) 0.7581(2)
C40_4 C 0.3647(3) 0.6058(3) 0.7390(3)
C41_4 C 0.3554(3) 0.6211(3) 0.6997(3)
H18_4 H 0.3319 0.6118 0.6858
C42_4 C 0.4006(2) 0.6214(3) 0.7591(2)
H19_4 H 0.4065 0.6119 0.7857
C43_4 C 0.4624(2) 0.6681(2) 0.7647(2)
C44_4 C 0.4268(2) 0.6496(2) 0.7417(2)
C45_4 C 0.4165(3) 0.6664(3) 0.7012(2)
H20_4 H 0.4324 0.6870 0.6889
C46_4 C 0.3809(2) 0.6501(3) 0.6812(2)
C47_4 C 0.3391(3) 0.6655(3) 0.6179(3)
H21_4 H 0.3126 0.6622 0.6287
C48_4 C 0.3510(3) 0.6746(3) 0.5772(3)
C49_4 C 0.2860(2) 0.6910(3) 0.5345(3)
H22_4 H 0.2711 0.6934 0.5592
C50_4 C 0.3271(3) 0.6795(3) 0.5371(3)
N12_4 N 0.3740(2) 0.6628(3) 0.6369(2)
N13_4 N 0.4080(3) 0.6698(4) 0.6144(3)
N14_4 N 0.3946(3) 0.6782(4) 0.5771(3)
O15_4 O 0.4721(2) 0.6525(2) 0.7991(2)
O16_4 O 0.48060(16) 0.69766(17) 0.74635(19)
O17_4 O 0.30430(17) 0.56786(19) 0.74385(17)
O18_4 O 0.3537(2) 0.5576(2) 0.7929(2)
O40_4 O 0.77315(19) 0.8682(2) 0.5433(2)
O41_4 O 0.71732(18) 0.82791(18) 0.54220(19)
O43_4 O 0.8292(2) 0.8043(2) 0.5418(2)
O45_4 O 0.77390(18) 0.76050(17) 0.54223(17)
Cu19_2 Cu 0.33962(4) 0.69453(4) 0.0000
Cu21_2 Cu 0.28845(4) 0.76033(4) 0.0000
C57_3 C 0.0257(2) 0.7194(3) 0.7902(2)
H26_3 H 0.0451 0.7355 0.7762
C58_3 C 0.0401(3) 0.6911(3) 0.8216(3)
C59_3 C 0.0112(3) 0.6634(3) 0.8351(3)
H27_3 H 0.0191 0.6439 0.8548
C61_3 C 0.0843(3) 0.6959(3) 0.8339(3)
C62_3 C 0.1107(3) 0.6643(3) 0.8472(3)
H28_3 H 0.1054 0.6363 0.8512
C63_3 C 0.2570(2) 0.5811(2) 0.8359(3)
C64_3 C 0.2394(2) 0.6172(2) 0.8589(3)
C65_3 C 0.2730(2) 0.6919(2) 0.9449(2)
C70_3 C 0.2466(3) 0.6734(3) 0.9087(3)
C71_3 C 0.2000(2) 0.6349(3) 0.8461(3)
H31_3 H 0.1850 0.6235 0.8242
C72_3 C 0.2640(3) 0.6355(3) 0.8896(3)
H32_3 H 0.2895 0.6246 0.8975
C74_3 C 0.2089(3) 0.6880(3) 0.8974(3)
H33_3 H 0.1983 0.7115 0.9103
C75_3 C 0.1860(3) 0.6680(3) 0.8667(3)
N19_3 N 0.1469(2) 0.6863(2) 0.8527(2)
N20_3 N 0.1422(3) 0.7260(3) 0.8452(3)
N21_3 N 0.1046(3) 0.7317(3) 0.8333(4)
O20_3 O 0.24018(18) 0.56873(18) 0.8033(2)
O21_3 O 0.29156(18) 0.5663(2) 0.8507(2)
O26_2 O 0.3043(2) 0.6708(2) 0.9582(2)
O27_2 O 0.26050(17) 0.72610(18) 0.95777(17)
O28_3 O 0.0279(2) 0.8475(2) 0.7009(2)
O29_3 O 0.01940(16) 0.80234(17) 0.75365(19)
Cu19_3 Cu 0.33962(4) 0.69453(4) 1.0000
Cu21_3 Cu 0.28845(4) 0.76033(4) 1.0000
O36_3 O 0.01999(17) 0.78553(15) 0.64282(18)
O38_3 O 0.01572(19) 0.73790(18) 0.69362(18)
Cu3_2 Cu 0.66038(4) 0.30547(4) 0.0000
Cu4_2 Cu 0.71155(4) 0.23967(4) 0.0000
O14_5 O 0.6163(3) 0.3569(3) 0.0000
N22_3 N 0.7670(3) 0.1987(3) 0.0000
O40_5 O 0.6318(2) 0.27315(19) 0.0433(2)
O41_5 O 0.67209(18) 0.21732(18) 0.04220(19)
O43_5 O 0.6957(2) 0.3292(2) 0.0418(2)
O45_5 O 0.73950(17) 0.27390(18) 0.04223(17)
H36 H 0.588377 0.346453 0.00744264
H37 H 0.625131 0.377954 0.0206768
Cu1_3 Cu 0.76652(3) 0.02568(3) 0.73042(3)
Cu2_3 Cu 0.82395(3) 0.01944(3) 0.67022(3)
O5_3 O 0.8713(2) 0.0279(3) 0.6239(2)
Cu3_3 Cu 0.66038(4) 0.30547(4) 1.0000
Cu4_3 Cu 0.71155(4) 0.23967(4) 1.0000
C14_3 C 0.6426(3) 0.2358(2) 0.9463(2)
C15_3 C 0.6154(3) 0.2196(3) 0.9106(2)
C16_3 C 0.6224(3) 0.1756(3) 0.9008(3)
H7_3 H 0.6415 0.1591 0.9146
C17_3 C 0.5970(2) 0.1612(2) 0.8683(3)
C18_3 C 0.5661(3) 0.1847(3) 0.8492(3)
H8_3 H 0.5496 0.1732 0.8285
C19_3 C 0.6936(3) 0.0400(3) 0.7944(3)
H9_3 H 0.6937 0.0673 0.7852
C23_3 C 0.6629(3) 0.0284(2) 0.8213(3)
C29_3 C 0.5854(3) 0.2403(3) 0.8939(2)
H13_3 H 0.5801 0.2667 0.9041
C30_3 C 0.5604(3) 0.2259(2) 0.8618(2)
C31_3 C 0.6434(3) 0.1024(3) 0.8481(3)
H14_3 H 0.6690 0.1154 0.8501
C32_3 C 0.6336(3) 0.0610(3) 0.8362(2)
C36_3 C 0.5270(3) 0.2501(3) 0.8424(2)
N5_3 N 0.7237(2) 0.0149(2) 0.7803(2)
N6_3 N 0.6047(2) 0.1176(2) 0.8557(3)
N7_3 N 0.5746(3) 0.0924(3) 0.8520(4)
N8_3 N 0.5923(3) 0.0573(3) 0.8389(4)
O8_3 O 0.51999(17) 0.28553(15) 0.85718(18)
O9_3 O 0.51572(19) 0.23790(18) 0.80638(18)
O10_3 O 0.6318(2) 0.27315(19) 0.9567(2)
O11_3 O 0.67209(18) 0.21732(18) 0.95780(19)
O14_6 O 0.6163(3) 0.3569(3) 1.0000
N22_4 N 0.7670(3) 0.1987(3) 1.0000
O30_3 O 0.80430(17) 0.06786(19) 0.75615(17)
O31_3 O 0.8537(2) 0.0576(2) 0.7071(2)
O33_3 O 0.74018(18) 0.06873(18) 0.6967(2)
O35_3 O 0.79156(18) 0.0663(2) 0.6493(2)
O42_2 O 0.6957(2) 0.3292(2) 0.9582(2)
O44_2 O 0.73950(17) 0.27390(18) 0.95777(17)
C13_5 C 0.8233(3) 0.8488(4) 0.0000
H6_5 H 0.8269 0.8774 0.0000
N1_3 N 0.8013(3) 0.7670(3) 0.0000
C39_5 C 0.9248(3) 0.8390(2) 0.2581(2)
C40_5 C 0.8942(3) 0.8647(3) 0.2390(3)
C41_5 C 0.8789(3) 0.8554(3) 0.1997(3)
H18_5 H 0.8882 0.8319 0.1858
C42_5 C 0.8786(3) 0.9006(2) 0.2591(2)
H19_5 H 0.8881 0.9065 0.2857
C43_5 C 0.8319(2) 0.9624(2) 0.2647(2)
C44_5 C 0.8504(2) 0.9268(2) 0.2417(2)
C45_5 C 0.8336(3) 0.9165(3) 0.2012(2)
H20_5 H 0.8130 0.9324 0.1889
C46_5 C 0.8499(3) 0.8809(2) 0.1812(2)
C47_5 C 0.8345(3) 0.8391(3) 0.1179(3)
H21_5 H 0.8378 0.8126 0.1287
C48_5 C 0.8254(3) 0.8510(3) 0.0772(3)
C49_5 C 0.8090(3) 0.7860(2) 0.0345(3)
H22_5 H 0.8066 0.7711 0.0592
C50_5 C 0.8205(3) 0.8271(3) 0.0371(3)
N12_5 N 0.8372(3) 0.8740(2) 0.1369(2)
N13_5 N 0.8302(4) 0.9080(3) 0.1144(3)
N14_5 N 0.8218(4) 0.8946(3) 0.0771(3)
O15_5 O 0.8475(2) 0.9721(2) 0.2991(2)
O16_5 O 0.80234(17) 0.98060(16) 0.24635(19)
O17_5 O 0.93214(19) 0.80430(17) 0.24385(17)
O18_5 O 0.9424(2) 0.8537(2) 0.2929(2)
Cu20_3 Cu 0.69453(4) 0.66038(4) 0.0000
Cu22_3 Cu 0.76033(4) 0.71155(4) 0.0000
C1_5 C 0.9248(3) 0.8390(2) 0.7419(2)
C2_5 C 0.8942(3) 0.8647(3) 0.7610(3)
C3_5 C 0.8789(3) 0.8554(3) 0.8003(3)
H1_5 H 0.8882 0.8319 0.8142
C4_5 C 0.8786(3) 0.9006(2) 0.7409(2)
H2_5 H 0.8881 0.9065 0.7143
C5_5 C 0.8319(2) 0.9624(2) 0.7353(2)
C6_5 C 0.8504(2) 0.9268(2) 0.7583(2)
C7_5 C 0.8336(3) 0.9165(3) 0.7988(2)
H3_5 H 0.8130 0.9324 0.8111
C8_5 C 0.8499(3) 0.8809(2) 0.8188(2)
C9_5 C 0.8345(3) 0.8391(3) 0.8821(3)
H4_5 H 0.8378 0.8126 0.8713
C10_5 C 0.8254(3) 0.8510(3) 0.9228(3)
C11_5 C 0.8090(3) 0.7860(2) 0.9655(3)
H5_5 H 0.8066 0.7711 0.9408
C12_5 C 0.8205(3) 0.8271(3) 0.9629(3)
C13_6 C 0.8233(3) 0.8488(4) 1.0000
H6_6 H 0.8269 0.8774 1.0000
N1_4 N 0.8013(3) 0.7670(3) 1.0000
N2_5 N 0.8372(3) 0.8740(2) 0.8631(2)
N3_5 N 0.8302(4) 0.9080(3) 0.8856(3)
N4_5 N 0.8218(4) 0.8946(3) 0.9229(3)
O1_3 O 0.8475(2) 0.9721(2) 0.7009(2)
O2_3 O 0.80234(17) 0.98060(16) 0.75365(19)
O3_3 O 0.93214(19) 0.80430(17) 0.75615(17)
O4_3 O 0.9424(2) 0.8537(2) 0.7071(2)
C20_3 C 0.7194(3) 0.9743(2) 0.7902(2)
H10_3 H 0.7355 0.9549 0.7762
C21_3 C 0.6911(3) 0.9599(3) 0.8216(3)
C22_3 C 0.6634(3) 0.9888(3) 0.8351(3)
H11_3 H 0.6439 0.9809 0.8548
C24_3 C 0.6959(3) 0.9157(3) 0.8339(3)
C25_3 C 0.6643(3) 0.8893(3) 0.8472(3)
H12_3 H 0.6363 0.8946 0.8512
C26_3 C 0.5811(2) 0.7430(2) 0.8359(3)
C27_3 C 0.6172(2) 0.7606(2) 0.8589(3)
C28_3 C 0.6919(2) 0.7270(2) 0.9449(2)
C33_3 C 0.6734(3) 0.7534(3) 0.9087(3)
C34_3 C 0.6349(3) 0.8000(2) 0.8461(3)
H15_3 H 0.6235 0.8150 0.8242
C35_3 C 0.6355(3) 0.7360(3) 0.8896(3)
H16_3 H 0.6246 0.7105 0.8975
C37_3 C 0.6880(3) 0.7911(3) 0.8974(3)
H17_3 H 0.7115 0.8017 0.9103
C38_3 C 0.6680(3) 0.8140(3) 0.8667(3)
N9_3 N 0.6863(2) 0.8531(2) 0.8527(2)
N10_3 N 0.7260(3) 0.8578(3) 0.8452(3)
N11_3 N 0.7317(3) 0.8954(3) 0.8333(4)
O6_3 O 0.56873(18) 0.75982(18) 0.8033(2)
O7_3 O 0.5663(2) 0.70844(18) 0.8507(2)
O12_3 O 0.6708(2) 0.6957(2) 0.9582(2)
O13_3 O 0.72610(18) 0.73950(17) 0.95777(17)
Cu5_3 Cu 0.97432(3) 0.76652(3) 0.73042(3)
Cu6_3 Cu 0.98056(3) 0.82395(3) 0.67022(3)
O19_3 O 0.9721(3) 0.8713(2) 0.6239(2)
C51_3 C 0.7642(2) 0.6426(3) 0.9463(2)
C52_3 C 0.7804(3) 0.6154(3) 0.9106(2)
C53_3 C 0.8244(3) 0.6224(3) 0.9008(3)
H23_3 H 0.8409 0.6415 0.9146
C54_3 C 0.8388(2) 0.5970(2) 0.8683(3)
C55_3 C 0.8153(3) 0.5661(3) 0.8492(3)
H24_3 H 0.8268 0.5496 0.8285
C56_3 C 0.9600(3) 0.6936(3) 0.7944(3)
H25_3 H 0.9327 0.6937 0.7852
C60_3 C 0.9716(2) 0.6629(3) 0.8213(3)
C66_3 C 0.7597(3) 0.5854(3) 0.8939(2)
H29_3 H 0.7333 0.5801 0.9041
C67_3 C 0.7741(2) 0.5604(3) 0.8618(2)
C68_3 C 0.8976(3) 0.6434(3) 0.8481(3)
H30_3 H 0.8846 0.6690 0.8501
C69_3 C 0.9390(3) 0.6336(3) 0.8362(2)
C73_3 C 0.7499(3) 0.5270(3) 0.8424(2)
N15_3 N 0.9851(2) 0.7237(2) 0.7803(2)
N16_3 N 0.8824(2) 0.6047(2) 0.8557(3)
N17_3 N 0.9076(3) 0.5746(3) 0.8520(4)
N18_3 N 0.9427(3) 0.5923(3) 0.8389(4)
O22_3 O 0.71447(15) 0.51999(17) 0.85718(18)
O23_3 O 0.76210(18) 0.51572(19) 0.80638(18)
O24_3 O 0.72685(19) 0.6318(2) 0.9567(2)
O25_3 O 0.78268(18) 0.67209(18) 0.95780(19)
Cu20_4 Cu 0.69453(4) 0.66038(4) 1.0000
Cu22_4 Cu 0.76033(4) 0.71155(4) 1.0000
O32_3 O 0.93127(18) 0.74018(18) 0.6967(2)
O34_3 O 0.9337(2) 0.79156(18) 0.6493(2)
O37_3 O 0.78553(15) 0.98001(17) 0.64282(18)
O39_3 O 0.73790(18) 0.98428(19) 0.69362(18)
C13_7 C 0.1767(3) 0.1512(4) 0.0000
H6_7 H 0.1731 0.1226 0.0000
N1_5 N 0.1987(3) 0.2330(3) 0.0000
C39_6 C 0.0752(3) 0.1610(2) 0.2581(2)
C40_6 C 0.1058(3) 0.1353(3) 0.2390(3)
C41_6 C 0.1211(3) 0.1446(3) 0.1997(3)
H18_6 H 0.1118 0.1681 0.1858
C42_6 C 0.1214(3) 0.0994(2) 0.2591(2)
H19_6 H 0.1119 0.0935 0.2857
C43_6 C 0.1681(2) 0.0376(2) 0.2647(2)
C44_6 C 0.1496(2) 0.0732(2) 0.2417(2)
C45_6 C 0.1664(3) 0.0835(3) 0.2012(2)
H20_6 H 0.1870 0.0676 0.1889
C46_6 C 0.1501(3) 0.1191(2) 0.1812(2)
C47_6 C 0.1655(3) 0.1609(3) 0.1179(3)
H21_6 H 0.1622 0.1874 0.1287
C48_6 C 0.1746(3) 0.1490(3) 0.0772(3)
C49_6 C 0.1910(3) 0.2140(2) 0.0345(3)
H22_6 H 0.1934 0.2289 0.0592
C50_6 C 0.1795(3) 0.1729(3) 0.0371(3)
N12_6 N 0.1628(3) 0.1260(2) 0.1369(2)
N13_6 N 0.1698(4) 0.0920(3) 0.1144(3)
N14_6 N 0.1782(4) 0.1054(3) 0.0771(3)
O15_6 O 0.1525(2) 0.0279(2) 0.2991(2)
O16_6 O 0.19766(17) 0.01940(16) 0.24635(19)
O17_6 O 0.06786(19) 0.19570(17) 0.24385(17)
O18_6 O 0.0576(2) 0.1463(2) 0.2929(2)
Cu20_5 Cu 0.30547(4) 0.33962(4) 0.0000
Cu22_5 Cu 0.23967(4) 0.28845(4) 0.0000
C1_6 C 0.0752(3) 0.1610(2) 0.7419(2)
C2_6 C 0.1058(3) 0.1353(3) 0.7610(3)
C3_6 C 0.1211(3) 0.1446(3) 0.8003(3)
H1_6 H 0.1118 0.1681 0.8142
C4_6 C 0.1214(3) 0.0994(2) 0.7409(2)
H2_6 H 0.1119 0.0935 0.7143
C5_6 C 0.1681(2) 0.0376(2) 0.7353(2)
C6_6 C 0.1496(2) 0.0732(2) 0.7583(2)
C7_6 C 0.1664(3) 0.0835(3) 0.7988(2)
H3_6 H 0.1870 0.0676 0.8111
C8_6 C 0.1501(3) 0.1191(2) 0.8188(2)
C9_6 C 0.1655(3) 0.1609(3) 0.8821(3)
H4_6 H 0.1622 0.1874 0.8713
C10_6 C 0.1746(3) 0.1490(3) 0.9228(3)
C11_6 C 0.1910(3) 0.2140(2) 0.9655(3)
H5_6 H 0.1934 0.2289 0.9408
C12_6 C 0.1795(3) 0.1729(3) 0.9629(3)
C13_8 C 0.1767(3) 0.1512(4) 1.0000
H6_8 H 0.1731 0.1226 1.0000
N1_6 N 0.1987(3) 0.2330(3) 1.0000
N2_6 N 0.1628(3) 0.1260(2) 0.8631(2)
N3_6 N 0.1698(4) 0.0920(3) 0.8856(3)
N4_6 N 0.1782(4) 0.1054(3) 0.9229(3)
O1_4 O 0.1525(2) 0.0279(2) 0.7009(2)
O2_4 O 0.19766(17) 0.01940(16) 0.75365(19)
O3_4 O 0.06786(19) 0.19570(17) 0.75615(17)
O4_4 O 0.0576(2) 0.1463(2) 0.7071(2)
C20_4 C 0.2806(3) 0.0257(2) 0.7902(2)
H10_4 H 0.2645 0.0451 0.7762
C21_4 C 0.3089(3) 0.0401(3) 0.8216(3)
C22_4 C 0.3366(3) 0.0112(3) 0.8351(3)
H11_4 H 0.3561 0.0191 0.8548
C24_4 C 0.3041(3) 0.0843(3) 0.8339(3)
C25_4 C 0.3357(3) 0.1107(3) 0.8472(3)
H12_4 H 0.3637 0.1054 0.8512
C26_4 C 0.4189(2) 0.2570(2) 0.8359(3)
C27_4 C 0.3828(2) 0.2394(2) 0.8589(3)
C28_4 C 0.3081(2) 0.2730(2) 0.9449(2)
C33_4 C 0.3266(3) 0.2466(3) 0.9087(3)
C34_4 C 0.3651(3) 0.2000(2) 0.8461(3)
H15_4 H 0.3765 0.1850 0.8242
C35_4 C 0.3645(3) 0.2640(3) 0.8896(3)
H16_4 H 0.3754 0.2895 0.8975
C37_4 C 0.3120(3) 0.2089(3) 0.8974(3)
H17_4 H 0.2885 0.1983 0.9103
C38_4 C 0.3320(3) 0.1860(3) 0.8667(3)
N9_4 N 0.3137(2) 0.1469(2) 0.8527(2)
N10_4 N 0.2740(3) 0.1422(3) 0.8452(3)
N11_4 N 0.2683(3) 0.1046(3) 0.8333(4)
O6_4 O 0.43127(18) 0.24018(18) 0.8033(2)
O7_4 O 0.4337(2) 0.29156(18) 0.8507(2)
O12_4 O 0.3292(2) 0.3043(2) 0.9582(2)
O13_4 O 0.27390(18) 0.26050(17) 0.95777(17)
Cu5_4 Cu 0.02568(3) 0.23348(3) 0.73042(3)
Cu6_4 Cu 0.01944(3) 0.17605(3) 0.67022(3)
O19_4 O 0.0279(3) 0.1287(2) 0.6239(2)
C51_4 C 0.2358(2) 0.3574(3) 0.9463(2)
C52_4 C 0.2196(3) 0.3846(3) 0.9106(2)
C53_4 C 0.1756(3) 0.3776(3) 0.9008(3)
H23_4 H 0.1591 0.3585 0.9146
C54_4 C 0.1612(2) 0.4030(2) 0.8683(3)
C55_4 C 0.1847(3) 0.4339(3) 0.8492(3)
H24_4 H 0.1732 0.4504 0.8285
C56_4 C 0.0400(3) 0.3064(3) 0.7944(3)
H25_4 H 0.0673 0.3063 0.7852
C60_4 C 0.0284(2) 0.3371(3) 0.8213(3)
C66_4 C 0.2403(3) 0.4146(3) 0.8939(2)
H29_4 H 0.2667 0.4199 0.9041
C67_4 C 0.2259(2) 0.4396(3) 0.8618(2)
C68_4 C 0.1024(3) 0.3566(3) 0.8481(3)
H30_4 H 0.1154 0.3310 0.8501
C69_4 C 0.0610(3) 0.3664(3) 0.8362(2)
C73_4 C 0.2501(3) 0.4730(3) 0.8424(2)
N15_4 N 0.0149(2) 0.2763(2) 0.7803(2)
N16_4 N 0.1176(2) 0.3953(2) 0.8557(3)
N17_4 N 0.0924(3) 0.4254(3) 0.8520(4)
N18_4 N 0.0573(3) 0.4077(3) 0.8389(4)
O22_4 O 0.28553(15) 0.48001(17) 0.85718(18)
O23_4 O 0.23790(18) 0.48428(19) 0.80638(18)
O24_4 O 0.27315(19) 0.3682(2) 0.9567(2)
O25_4 O 0.21732(18) 0.32791(18) 0.95780(19)
Cu20_6 Cu 0.30547(4) 0.33962(4) 1.0000
Cu22_6 Cu 0.23967(4) 0.28845(4) 1.0000
O32_4 O 0.06873(18) 0.25982(18) 0.6967(2)
O34_4 O 0.0663(2) 0.20844(18) 0.6493(2)
O37_4 O 0.21447(15) 0.01999(17) 0.64282(18)
O39_4 O 0.26210(18) 0.01572(19) 0.69362(18)
O14_7 O 0.3837(3) 0.6431(3) 0.0000
N22_5 N 0.2330(3) 0.8013(3) 0.0000
O40_6 O 0.3682(2) 0.72685(19) 0.0433(2)
O41_6 O 0.32791(18) 0.78268(18) 0.04220(19)
O43_6 O 0.3043(2) 0.6708(2) 0.0418(2)
O45_6 O 0.26050(17) 0.72610(18) 0.04223(17)
H36_2 H 0.411623 0.653547 0.00744264
H37_2 H 0.374869 0.622046 0.0206768
Cu1_4 Cu 0.23348(3) 0.97432(3) 0.73042(3)
Cu2_4 Cu 0.17605(3) 0.98056(3) 0.67022(3)
O5_4 O 0.1287(2) 0.9721(3) 0.6239(2)
C14_4 C 0.3574(3) 0.7642(2) 0.9463(2)
C15_4 C 0.3846(3) 0.7804(3) 0.9106(2)
C16_4 C 0.3776(3) 0.8244(3) 0.9008(3)
H7_4 H 0.3585 0.8409 0.9146
C17_4 C 0.4030(2) 0.8388(2) 0.8683(3)
C18_4 C 0.4339(3) 0.8153(3) 0.8492(3)
H8_4 H 0.4504 0.8268 0.8285
C19_4 C 0.3064(3) 0.9600(3) 0.7944(3)
H9_4 H 0.3063 0.9327 0.7852
C23_4 C 0.3371(3) 0.9716(2) 0.8213(3)
C29_4 C 0.4146(3) 0.7597(3) 0.8939(2)
H13_4 H 0.4199 0.7333 0.9041
C30_4 C 0.4396(3) 0.7741(2) 0.8618(2)
C31_4 C 0.3566(3) 0.8976(3) 0.8481(3)
H14_4 H 0.3310 0.8846 0.8501
C32_4 C 0.3664(3) 0.9390(3) 0.8362(2)
C36_4 C 0.4730(3) 0.7499(3) 0.8424(2)
N5_4 N 0.2763(2) 0.9851(2) 0.7803(2)
N6_4 N 0.3953(2) 0.8824(2) 0.8557(3)
N7_4 N 0.4254(3) 0.9076(3) 0.8520(4)
N8_4 N 0.4077(3) 0.9427(3) 0.8389(4)
O8_4 O 0.48001(17) 0.71447(15) 0.85718(18)
O9_4 O 0.48428(19) 0.76210(18) 0.80638(18)
O10_4 O 0.3682(2) 0.72685(19) 0.9567(2)
O11_4 O 0.32791(18) 0.78268(18) 0.95780(19)
O14_8 O 0.3837(3) 0.6431(3) 1.0000
N22_6 N 0.2330(3) 0.8013(3) 1.0000
O30_4 O 0.19570(17) 0.93214(19) 0.75615(17)
O31_4 O 0.1463(2) 0.9424(2) 0.7071(2)
O33_4 O 0.25982(18) 0.93127(18) 0.6967(2)
O35_4 O 0.20844(18) 0.9337(2) 0.6493(2)
C57_4 C 0.9743(2) 0.2806(3) 0.7902(2)
H26_4 H 0.9549 0.2645 0.7762
C58_4 C 0.9599(3) 0.3089(3) 0.8216(3)
C59_4 C 0.9888(3) 0.3366(3) 0.8351(3)
H27_4 H 0.9809 0.3561 0.8548
C61_4 C 0.9157(3) 0.3041(3) 0.8339(3)
C62_4 C 0.8893(3) 0.3357(3) 0.8472(3)
H28_4 H 0.8946 0.3637 0.8512
C63_4 C 0.7430(2) 0.4189(2) 0.8359(3)
C64_4 C 0.7606(2) 0.3828(2) 0.8589(3)
C65_4 C 0.7270(2) 0.3081(2) 0.9449(2)
C70_4 C 0.7534(3) 0.3266(3) 0.9087(3)
C71_4 C 0.8000(2) 0.3651(3) 0.8461(3)
H31_4 H 0.8150 0.3765 0.8242
C72_4 C 0.7360(3) 0.3645(3) 0.8896(3)
H32_4 H 0.7105 0.3754 0.8975
C74_4 C 0.7911(3) 0.3120(3) 0.8974(3)
H33_4 H 0.8017 0.2885 0.9103
C75_4 C 0.8140(3) 0.3320(3) 0.8667(3)
N19_4 N 0.8531(2) 0.3137(2) 0.8527(2)
N20_4 N 0.8578(3) 0.2740(3) 0.8452(3)
N21_4 N 0.8954(3) 0.2683(3) 0.8333(4)
O20_4 O 0.75982(18) 0.43127(18) 0.8033(2)
O21_4 O 0.70844(18) 0.4337(2) 0.8507(2)
O28_4 O 0.9721(2) 0.1525(2) 0.7009(2)
O29_4 O 0.98060(16) 0.19766(17) 0.75365(19)
O36_4 O 0.98001(17) 0.21447(15) 0.64282(18)
O38_4 O 0.98428(19) 0.26210(18) 0.69362(18)
C13_9 C 0.1512(4) 0.8233(3) 0.0000
H6_9 H 0.1226 0.8269 0.0000
C39_7 C 0.1610(2) 0.9248(3) 0.2581(2)
C40_7 C 0.1353(3) 0.8942(3) 0.2390(3)
C41_7 C 0.1446(3) 0.8789(3) 0.1997(3)
H18_7 H 0.1681 0.8882 0.1858
C42_7 C 0.0994(2) 0.8786(3) 0.2591(2)
H19_7 H 0.0935 0.8881 0.2857
C43_7 C 0.0376(2) 0.8319(2) 0.2647(2)
C44_7 C 0.0732(2) 0.8504(2) 0.2417(2)
C45_7 C 0.0835(3) 0.8336(3) 0.2012(2)
H20_7 H 0.0676 0.8130 0.1889
C46_7 C 0.1191(2) 0.8499(3) 0.1812(2)
C47_7 C 0.1609(3) 0.8345(3) 0.1179(3)
H21_7 H 0.1874 0.8378 0.1287
C48_7 C 0.1490(3) 0.8254(3) 0.0772(3)
C49_7 C 0.2140(2) 0.8090(3) 0.0345(3)
H22_7 H 0.2289 0.8066 0.0592
C50_7 C 0.1729(3) 0.8205(3) 0.0371(3)
N12_7 N 0.1260(2) 0.8372(3) 0.1369(2)
N13_7 N 0.0920(3) 0.8302(4) 0.1144(3)
N14_7 N 0.1054(3) 0.8218(4) 0.0771(3)
O15_7 O 0.0279(2) 0.8475(2) 0.2991(2)
O16_7 O 0.01940(16) 0.80234(17) 0.24635(19)
O17_7 O 0.19570(17) 0.93214(19) 0.24385(17)
O18_7 O 0.1463(2) 0.9424(2) 0.2929(2)
C1_7 C 0.1610(2) 0.9248(3) 0.7419(2)
C2_7 C 0.1353(3) 0.8942(3) 0.7610(3)
C3_7 C 0.1446(3) 0.8789(3) 0.8003(3)
H1_7 H 0.1681 0.8882 0.8142
C4_7 C 0.0994(2) 0.8786(3) 0.7409(2)
H2_7 H 0.0935 0.8881 0.7143
C5_7 C 0.0376(2) 0.8319(2) 0.7353(2)
C6_7 C 0.0732(2) 0.8504(2) 0.7583(2)
C7_7 C 0.0835(3) 0.8336(3) 0.7988(2)
H3_7 H 0.0676 0.8130 0.8111
C8_7 C 0.1191(2) 0.8499(3) 0.8188(2)
C9_7 C 0.1609(3) 0.8345(3) 0.8821(3)
H4_7 H 0.1874 0.8378 0.8713
C10_7 C 0.1490(3) 0.8254(3) 0.9228(3)
C11_7 C 0.2140(2) 0.8090(3) 0.9655(3)
H5_7 H 0.2289 0.8066 0.9408
C12_7 C 0.1729(3) 0.8205(3) 0.9629(3)
C13_10 C 0.1512(4) 0.8233(3) 1.0000
H6_10 H 0.1226 0.8269 1.0000
N2_7 N 0.1260(2) 0.8372(3) 0.8631(2)
N3_7 N 0.0920(3) 0.8302(4) 0.8856(3)
N4_7 N 0.1054(3) 0.8218(4) 0.9229(3)
O14_9 O 0.6431(3) 0.6163(3) 0.0000
O40_7 O 0.72685(19) 0.6318(2) 0.0433(2)
O41_7 O 0.78268(18) 0.67209(18) 0.04220(19)
O43_7 O 0.6708(2) 0.6957(2) 0.0418(2)
O45_7 O 0.72610(18) 0.73950(17) 0.04223(17)
H36_3 H 0.653547 0.588377 0.00744264
H37_3 H 0.622046 0.625131 0.0206768
O14_10 O 0.6431(3) 0.6163(3) 1.0000
O14_11 O 0.3569(3) 0.3837(3) 0.0000
O40_8 O 0.27315(19) 0.3682(2) 0.0433(2)
O41_8 O 0.21732(18) 0.32791(18) 0.04220(19)
O43_8 O 0.3292(2) 0.3043(2) 0.0418(2)
O45_8 O 0.27390(18) 0.26050(17) 0.04223(17)
H36_4 H 0.346453 0.411623 0.00744264
H37_4 H 0.377954 0.374869 0.0206768
O14_12 O 0.3569(3) 0.3837(3) 1.0000
C13_11 C 0.8488(4) 0.1767(3) 0.0000
H6_11 H 0.8774 0.1731 0.0000
C39_8 C 0.8390(2) 0.0752(3) 0.2581(2)
C40_8 C 0.8647(3) 0.1058(3) 0.2390(3)
C41_8 C 0.8554(3) 0.1211(3) 0.1997(3)
H18_8 H 0.8319 0.1118 0.1858
C42_8 C 0.9006(2) 0.1214(3) 0.2591(2)
H19_8 H 0.9065 0.1119 0.2857
C43_8 C 0.9624(2) 0.1681(2) 0.2647(2)
C44_8 C 0.9268(2) 0.1496(2) 0.2417(2)
C45_8 C 0.9165(3) 0.1664(3) 0.2012(2)
H20_8 H 0.9324 0.1870 0.1889
C46_8 C 0.8809(2) 0.1501(3) 0.1812(2)
C47_8 C 0.8391(3) 0.1655(3) 0.1179(3)
H21_8 H 0.8126 0.1622 0.1287
C48_8 C 0.8510(3) 0.1746(3) 0.0772(3)
C49_8 C 0.7860(2) 0.1910(3) 0.0345(3)
H22_8 H 0.7711 0.1934 0.0592
C50_8 C 0.8271(3) 0.1795(3) 0.0371(3)
N12_8 N 0.8740(2) 0.1628(3) 0.1369(2)
N13_8 N 0.9080(3) 0.1698(4) 0.1144(3)
N14_8 N 0.8946(3) 0.1782(4) 0.0771(3)
O15_8 O 0.9721(2) 0.1525(2) 0.2991(2)
O16_8 O 0.98060(16) 0.19766(17) 0.24635(19)
O17_8 O 0.80430(17) 0.06786(19) 0.24385(17)
O18_8 O 0.8537(2) 0.0576(2) 0.2929(2)
C1_8 C 0.8390(2) 0.0752(3) 0.7419(2)
C2_8 C 0.8647(3) 0.1058(3) 0.7610(3)
C3_8 C 0.8554(3) 0.1211(3) 0.8003(3)
H1_8 H 0.8319 0.1118 0.8142
C4_8 C 0.9006(2) 0.1214(3) 0.7409(2)
H2_8 H 0.9065 0.1119 0.7143
C5_8 C 0.9624(2) 0.1681(2) 0.7353(2)
C6_8 C 0.9268(2) 0.1496(2) 0.7583(2)
C7_8 C 0.9165(3) 0.1664(3) 0.7988(2)
H3_8 H 0.9324 0.1870 0.8111
C8_8 C 0.8809(2) 0.1501(3) 0.8188(2)
C9_8 C 0.8391(3) 0.1655(3) 0.8821(3)
H4_8 H 0.8126 0.1622 0.8713
C10_8 C 0.8510(3) 0.1746(3) 0.9228(3)
C11_8 C 0.7860(2) 0.1910(3) 0.9655(3)
H5_8 H 0.7711 0.1934 0.9408
C12_8 C 0.8271(3) 0.1795(3) 0.9629(3)
C13_12 C 0.8488(4) 0.1767(3) 1.0000
H6_12 H 0.8774 0.1731 1.0000
N2_8 N 0.8740(2) 0.1628(3) 0.8631(2)
N3_8 N 0.9080(3) 0.1698(4) 0.8856(3)
N4_8 N 0.8946(3) 0.1782(4) 0.9229(3)
O5_5 O 0.6287(2) 0.4721(3) 0.8761(2)
C14_5 C 0.8574(3) 0.2642(2) 0.5537(2)
C15_5 C 0.8846(3) 0.2804(3) 0.5894(2)
C16_5 C 0.8776(3) 0.3244(3) 0.5992(3)
H7_5 H 0.8585 0.3409 0.5854
C17_5 C 0.9030(2) 0.3388(2) 0.6317(3)
C18_5 C 0.9339(3) 0.3153(3) 0.6508(3)
H8_5 H 0.9504 0.3268 0.6715
C19_5 C 0.8064(3) 0.4600(3) 0.7056(3)
H9_5 H 0.8063 0.4327 0.7148
C20_5 C 0.7806(3) 0.5257(2) 0.7098(2)
H10_5 H 0.7645 0.5451 0.7238
C21_5 C 0.8089(3) 0.5401(3) 0.6784(3)
C22_5 C 0.8366(3) 0.5112(3) 0.6649(3)
H11_5 H 0.8561 0.5191 0.6452
C23_5 C 0.8371(3) 0.4716(2) 0.6787(3)
C24_5 C 0.8041(3) 0.5843(3) 0.6661(3)
C25_5 C 0.8357(3) 0.6107(3) 0.6528(3)
H12_5 H 0.8637 0.6054 0.6488
C26_5 C 0.9189(2) 0.7570(2) 0.6641(3)
C27_5 C 0.8828(2) 0.7394(2) 0.6411(3)
C28_5 C 0.8081(2) 0.7730(2) 0.5551(2)
C29_5 C 0.9146(3) 0.2597(3) 0.6061(2)
H13_5 H 0.9199 0.2333 0.5959
C30_5 C 0.9396(3) 0.2741(2) 0.6382(2)
C31_5 C 0.8566(3) 0.3976(3) 0.6519(3)
H14_5 H 0.8310 0.3846 0.6499
C32_5 C 0.8664(3) 0.4390(3) 0.6638(2)
C33_5 C 0.8266(3) 0.7466(3) 0.5913(3)
C34_5 C 0.8651(3) 0.7000(2) 0.6539(3)
H15_5 H 0.8765 0.6850 0.6758
C35_5 C 0.8645(3) 0.7640(3) 0.6104(3)
H16_5 H 0.8754 0.7895 0.6025
C36_5 C 0.9730(3) 0.2499(3) 0.6576(2)
C37_5 C 0.8120(3) 0.7089(3) 0.6026(3)
H17_5 H 0.7885 0.6983 0.5897
C38_5 C 0.8320(3) 0.6860(3) 0.6333(3)
N5_5 N 0.7763(2) 0.4851(2) 0.7197(2)
N6_5 N 0.8953(2) 0.3824(2) 0.6443(3)
N7_5 N 0.9254(3) 0.4076(3) 0.6480(4)
N8_5 N 0.9077(3) 0.4427(3) 0.6611(4)
N9_5 N 0.8137(2) 0.6469(2) 0.6473(2)
N10_5 N 0.7740(3) 0.6422(3) 0.6548(3)
N11_5 N 0.7683(3) 0.6046(3) 0.6667(4)
O19_5 O 0.5279(3) 0.6287(2) 0.8761(2)
C51_5 C 0.7358(2) 0.8574(3) 0.5537(2)
C52_5 C 0.7196(3) 0.8846(3) 0.5894(2)
C53_5 C 0.6756(3) 0.8776(3) 0.5992(3)
H23_5 H 0.6591 0.8585 0.5854
C54_5 C 0.6612(2) 0.9030(2) 0.6317(3)
C55_5 C 0.6847(3) 0.9339(3) 0.6508(3)
H24_5 H 0.6732 0.9504 0.6715
C56_5 C 0.5400(3) 0.8064(3) 0.7056(3)
H25_5 H 0.5673 0.8063 0.7148
C57_5 C 0.4743(2) 0.7806(3) 0.7098(2)
H26_5 H 0.4549 0.7645 0.7238
C58_5 C 0.4599(3) 0.8089(3) 0.6784(3)
C59_5 C 0.4888(3) 0.8366(3) 0.6649(3)
H27_5 H 0.4809 0.8561 0.6452
C60_5 C 0.5284(2) 0.8371(3) 0.6787(3)
C61_5 C 0.4157(3) 0.8041(3) 0.6661(3)
C62_5 C 0.3893(3) 0.8357(3) 0.6528(3)
H28_5 H 0.3946 0.8637 0.6488
C63_5 C 0.2430(2) 0.9189(2) 0.6641(3)
C64_5 C 0.2606(2) 0.8828(2) 0.6411(3)
C65_5 C 0.2270(2) 0.8081(2) 0.5551(2)
C66_5 C 0.7403(3) 0.9146(3) 0.6061(2)
H29_5 H 0.7667 0.9199 0.5959
C67_5 C 0.7259(2) 0.9396(3) 0.6382(2)
C68_5 C 0.6024(3) 0.8566(3) 0.6519(3)
H30_5 H 0.6154 0.8310 0.6499
C69_5 C 0.5610(3) 0.8664(3) 0.6638(2)
C70_5 C 0.2534(3) 0.8266(3) 0.5913(3)
C71_5 C 0.3000(2) 0.8651(3) 0.6539(3)
H31_5 H 0.3150 0.8765 0.6758
C72_5 C 0.2360(3) 0.8645(3) 0.6104(3)
H32_5 H 0.2105 0.8754 0.6025
C73_5 C 0.7501(3) 0.9730(3) 0.6576(2)
C74_5 C 0.2911(3) 0.8120(3) 0.6026(3)
H33_5 H 0.3017 0.7885 0.5897
C75_5 C 0.3140(3) 0.8320(3) 0.6333(3)
N15_5 N 0.5149(2) 0.7763(2) 0.7197(2)
N16_5 N 0.6176(2) 0.8953(2) 0.6443(3)
N17_5 N 0.5924(3) 0.9254(3) 0.6480(4)
N18_5 N 0.5573(3) 0.9077(3) 0.6611(4)
N19_5 N 0.3531(2) 0.8137(2) 0.6473(2)
N20_5 N 0.3578(3) 0.7740(3) 0.6548(3)
N21_5 N 0.3954(3) 0.7683(3) 0.6667(4)
O5_6 O 0.3713(2) 0.5279(3) 0.8761(2)
C14_6 C 0.1426(3) 0.7358(2) 0.5537(2)
C15_6 C 0.1154(3) 0.7196(3) 0.5894(2)
C16_6 C 0.1224(3) 0.6756(3) 0.5992(3)
H7_6 H 0.1415 0.6591 0.5854
C17_6 C 0.0970(2) 0.6612(2) 0.6317(3)
C18_6 C 0.0661(3) 0.6847(3) 0.6508(3)
H8_6 H 0.0496 0.6732 0.6715
C19_6 C 0.1936(3) 0.5400(3) 0.7056(3)
H9_6 H 0.1937 0.5673 0.7148
C20_6 C 0.2194(3) 0.4743(2) 0.7098(2)
H10_6 H 0.2355 0.4549 0.7238
C21_6 C 0.1911(3) 0.4599(3) 0.6784(3)
C22_6 C 0.1634(3) 0.4888(3) 0.6649(3)
H11_6 H 0.1439 0.4809 0.6452
C23_6 C 0.1629(3) 0.5284(2) 0.6787(3)
C24_6 C 0.1959(3) 0.4157(3) 0.6661(3)
C25_6 C 0.1643(3) 0.3893(3) 0.6528(3)
H12_6 H 0.1363 0.3946 0.6488
C26_6 C 0.0811(2) 0.2430(2) 0.6641(3)
C27_6 C 0.1172(2) 0.2606(2) 0.6411(3)
C28_6 C 0.1919(2) 0.2270(2) 0.5551(2)
C29_6 C 0.0854(3) 0.7403(3) 0.6061(2)
H13_6 H 0.0801 0.7667 0.5959
C30_6 C 0.0604(3) 0.7259(2) 0.6382(2)
C31_6 C 0.1434(3) 0.6024(3) 0.6519(3)
H14_6 H 0.1690 0.6154 0.6499
C32_6 C 0.1336(3) 0.5610(3) 0.6638(2)
C33_6 C 0.1734(3) 0.2534(3) 0.5913(3)
C34_6 C 0.1349(3) 0.3000(2) 0.6539(3)
H15_6 H 0.1235 0.3150 0.6758
C35_6 C 0.1355(3) 0.2360(3) 0.6104(3)
H16_6 H 0.1246 0.2105 0.6025
C36_6 C 0.0270(3) 0.7501(3) 0.6576(2)
C37_6 C 0.1880(3) 0.2911(3) 0.6026(3)
H17_6 H 0.2115 0.3017 0.5897
C38_6 C 0.1680(3) 0.3140(3) 0.6333(3)
N5_6 N 0.2237(2) 0.5149(2) 0.7197(2)
N6_6 N 0.1047(2) 0.6176(2) 0.6443(3)
N7_6 N 0.0746(3) 0.5924(3) 0.6480(4)
N8_6 N 0.0923(3) 0.5573(3) 0.6611(4)
N9_6 N 0.1863(2) 0.3531(2) 0.6473(2)
N10_6 N 0.2260(3) 0.3578(3) 0.6548(3)
N11_6 N 0.2317(3) 0.3954(3) 0.6667(4)
O19_6 O 0.4721(3) 0.3713(2) 0.8761(2)
C51_6 C 0.2642(2) 0.1426(3) 0.5537(2)
C52_6 C 0.2804(3) 0.1154(3) 0.5894(2)
C53_6 C 0.3244(3) 0.1224(3) 0.5992(3)
H23_6 H 0.3409 0.1415 0.5854
C54_6 C 0.3388(2) 0.0970(2) 0.6317(3)
C55_6 C 0.3153(3) 0.0661(3) 0.6508(3)
H24_6 H 0.3268 0.0496 0.6715
C56_6 C 0.4600(3) 0.1936(3) 0.7056(3)
H25_6 H 0.4327 0.1937 0.7148
C57_6 C 0.5257(2) 0.2194(3) 0.7098(2)
H26_6 H 0.5451 0.2355 0.7238
C58_6 C 0.5401(3) 0.1911(3) 0.6784(3)
C59_6 C 0.5112(3) 0.1634(3) 0.6649(3)
H27_6 H 0.5191 0.1439 0.6452
C60_6 C 0.4716(2) 0.1629(3) 0.6787(3)
C61_6 C 0.5843(3) 0.1959(3) 0.6661(3)
C62_6 C 0.6107(3) 0.1643(3) 0.6528(3)
H28_6 H 0.6054 0.1363 0.6488
C63_6 C 0.7570(2) 0.0811(2) 0.6641(3)
C64_6 C 0.7394(2) 0.1172(2) 0.6411(3)
C65_6 C 0.7730(2) 0.1919(2) 0.5551(2)
C66_6 C 0.2597(3) 0.0854(3) 0.6061(2)
H29_6 H 0.2333 0.0801 0.5959
C67_6 C 0.2741(2) 0.0604(3) 0.6382(2)
C68_6 C 0.3976(3) 0.1434(3) 0.6519(3)
H30_6 H 0.3846 0.1690 0.6499
C69_6 C 0.4390(3) 0.1336(3) 0.6638(2)
C70_6 C 0.7466(3) 0.1734(3) 0.5913(3)
C71_6 C 0.7000(2) 0.1349(3) 0.6539(3)
H31_6 H 0.6850 0.1235 0.6758
C72_6 C 0.7640(3) 0.1355(3) 0.6104(3)
H32_6 H 0.7895 0.1246 0.6025
C73_6 C 0.2499(3) 0.0270(3) 0.6576(2)
C74_6 C 0.7089(3) 0.1880(3) 0.6026(3)
H33_6 H 0.6983 0.2115 0.5897
C75_6 C 0.6860(3) 0.1680(3) 0.6333(3)
N15_6 N 0.4851(2) 0.2237(2) 0.7197(2)
N16_6 N 0.3824(2) 0.1047(2) 0.6443(3)
N17_6 N 0.4076(3) 0.0746(3) 0.6480(4)
N18_6 N 0.4427(3) 0.0923(3) 0.6611(4)
N19_6 N 0.6469(2) 0.1863(2) 0.6473(2)
N20_6 N 0.6422(3) 0.2260(3) 0.6548(3)
N21_6 N 0.6046(3) 0.2317(3) 0.6667(4)
C20_7 C 0.2806(3) 0.0257(2) 0.2098(2)
H10_7 H 0.2645 0.0451 0.2238
C21_7 C 0.3089(3) 0.0401(3) 0.1784(3)
C22_7 C 0.3366(3) 0.0112(3) 0.1649(3)
H11_7 H 0.3561 0.0191 0.1452
C24_7 C 0.3041(3) 0.0843(3) 0.1661(3)
C25_7 C 0.3357(3) 0.1107(3) 0.1528(3)
H12_7 H 0.3637 0.1054 0.1488
C26_7 C 0.4189(2) 0.2570(2) 0.1641(3)
C27_7 C 0.3828(2) 0.2394(2) 0.1411(3)
C28_7 C 0.3081(2) 0.2730(2) 0.0551(2)
C33_7 C 0.3266(3) 0.2466(3) 0.0913(3)
C34_7 C 0.3651(3) 0.2000(2) 0.1539(3)
H15_7 H 0.3765 0.1850 0.1758
C35_7 C 0.3645(3) 0.2640(3) 0.1104(3)
H16_7 H 0.3754 0.2895 0.1025
C37_7 C 0.3120(3) 0.2089(3) 0.1026(3)
H17_7 H 0.2885 0.1983 0.0897
C38_7 C 0.3320(3) 0.1860(3) 0.1333(3)
N9_7 N 0.3137(2) 0.1469(2) 0.1473(2)
N10_7 N 0.2740(3) 0.1422(3) 0.1548(3)
N11_7 N 0.2683(3) 0.1046(3) 0.1667(4)
O19_7 O 0.0279(3) 0.1287(2) 0.3761(2)
C51_7 C 0.2358(2) 0.3574(3) 0.0537(2)
C52_7 C 0.2196(3) 0.3846(3) 0.0894(2)
C53_7 C 0.1756(3) 0.3776(3) 0.0992(3)
H23_7 H 0.1591 0.3585 0.0854
C54_7 C 0.1612(2) 0.4030(2) 0.1317(3)
C55_7 C 0.1847(3) 0.4339(3) 0.1508(3)
H24_7 H 0.1732 0.4504 0.1715
C56_7 C 0.0400(3) 0.3064(3) 0.2056(3)
H25_7 H 0.0673 0.3063 0.2148
C60_7 C 0.0284(2) 0.3371(3) 0.1787(3)
C66_7 C 0.2403(3) 0.4146(3) 0.1061(2)
H29_7 H 0.2667 0.4199 0.0959
C67_7 C 0.2259(2) 0.4396(3) 0.1382(2)
C68_7 C 0.1024(3) 0.3566(3) 0.1519(3)
H30_7 H 0.1154 0.3310 0.1499
C69_7 C 0.0610(3) 0.3664(3) 0.1638(2)
C73_7 C 0.2501(3) 0.4730(3) 0.1576(2)
N15_7 N 0.0149(2) 0.2763(2) 0.2197(2)
N16_7 N 0.1176(2) 0.3953(2) 0.1443(3)
N17_7 N 0.0924(3) 0.4254(3) 0.1480(4)
N18_7 N 0.0573(3) 0.4077(3) 0.1611(4)
O5_7 O 0.1287(2) 0.9721(3) 0.3761(2)
C14_7 C 0.3574(3) 0.7642(2) 0.0537(2)
C15_7 C 0.3846(3) 0.7804(3) 0.0894(2)
C16_7 C 0.3776(3) 0.8244(3) 0.0992(3)
H7_7 H 0.3585 0.8409 0.0854
C17_7 C 0.4030(2) 0.8388(2) 0.1317(3)
C18_7 C 0.4339(3) 0.8153(3) 0.1508(3)
H8_7 H 0.4504 0.8268 0.1715
C19_7 C 0.3064(3) 0.9600(3) 0.2056(3)
H9_7 H 0.3063 0.9327 0.2148
C23_7 C 0.3371(3) 0.9716(2) 0.1787(3)
C29_7 C 0.4146(3) 0.7597(3) 0.1061(2)
H13_7 H 0.4199 0.7333 0.0959
C30_7 C 0.4396(3) 0.7741(2) 0.1382(2)
C31_7 C 0.3566(3) 0.8976(3) 0.1519(3)
H14_7 H 0.3310 0.8846 0.1499
C32_7 C 0.3664(3) 0.9390(3) 0.1638(2)
C36_7 C 0.4730(3) 0.7499(3) 0.1576(2)
N5_7 N 0.2763(2) 0.9851(2) 0.2197(2)
N6_7 N 0.3953(2) 0.8824(2) 0.1443(3)
N7_7 N 0.4254(3) 0.9076(3) 0.1480(4)
N8_7 N 0.4077(3) 0.9427(3) 0.1611(4)
H36_5 H 0.411623 0.653547 0.992557
H37_5 H 0.374869 0.622046 0.979323
C57_7 C 0.9743(2) 0.2806(3) 0.2098(2)
H26_7 H 0.9549 0.2645 0.2238
C58_7 C 0.9599(3) 0.3089(3) 0.1784(3)
C59_7 C 0.9888(3) 0.3366(3) 0.1649(3)
H27_7 H 0.9809 0.3561 0.1452
C61_7 C 0.9157(3) 0.3041(3) 0.1661(3)
C62_7 C 0.8893(3) 0.3357(3) 0.1528(3)
H28_7 H 0.8946 0.3637 0.1488
C63_7 C 0.7430(2) 0.4189(2) 0.1641(3)
C64_7 C 0.7606(2) 0.3828(2) 0.1411(3)
C65_7 C 0.7270(2) 0.3081(2) 0.0551(2)
C70_7 C 0.7534(3) 0.3266(3) 0.0913(3)
C71_7 C 0.8000(2) 0.3651(3) 0.1539(3)
H31_7 H 0.8150 0.3765 0.1758
C72_7 C 0.7360(3) 0.3645(3) 0.1104(3)
H32_7 H 0.7105 0.3754 0.1025
C74_7 C 0.7911(3) 0.3120(3) 0.1026(3)
H33_7 H 0.8017 0.2885 0.0897
C75_7 C 0.8140(3) 0.3320(3) 0.1333(3)
N19_7 N 0.8531(2) 0.3137(2) 0.1473(2)
N20_7 N 0.8578(3) 0.2740(3) 0.1548(3)
N21_7 N 0.8954(3) 0.2683(3) 0.1667(4)
C57_8 C 0.0257(2) 0.7194(3) 0.2098(2)
H26_8 H 0.0451 0.7355 0.2238
C58_8 C 0.0401(3) 0.6911(3) 0.1784(3)
C59_8 C 0.0112(3) 0.6634(3) 0.1649(3)
H27_8 H 0.0191 0.6439 0.1452
C61_8 C 0.0843(3) 0.6959(3) 0.1661(3)
C62_8 C 0.1107(3) 0.6643(3) 0.1528(3)
H28_8 H 0.1054 0.6363 0.1488
C63_8 C 0.2570(2) 0.5811(2) 0.1641(3)
C64_8 C 0.2394(2) 0.6172(2) 0.1411(3)
C65_8 C 0.2730(2) 0.6919(2) 0.0551(2)
C70_8 C 0.2466(3) 0.6734(3) 0.0913(3)
C71_8 C 0.2000(2) 0.6349(3) 0.1539(3)
H31_8 H 0.1850 0.6235 0.1758
C72_8 C 0.2640(3) 0.6355(3) 0.1104(3)
H32_8 H 0.2895 0.6246 0.1025
C74_8 C 0.2089(3) 0.6880(3) 0.1026(3)
H33_8 H 0.1983 0.7115 0.0897
C75_8 C 0.1860(3) 0.6680(3) 0.1333(3)
N19_8 N 0.1469(2) 0.6863(2) 0.1473(2)
N20_8 N 0.1422(3) 0.7260(3) 0.1548(3)
N21_8 N 0.1046(3) 0.7317(3) 0.1667(4)
O5_8 O 0.8713(2) 0.0279(3) 0.3761(2)
C14_8 C 0.6426(3) 0.2358(2) 0.0537(2)
C15_8 C 0.6154(3) 0.2196(3) 0.0894(2)
C16_8 C 0.6224(3) 0.1756(3) 0.0992(3)
H7_8 H 0.6415 0.1591 0.0854
C17_8 C 0.5970(2) 0.1612(2) 0.1317(3)
C18_8 C 0.5661(3) 0.1847(3) 0.1508(3)
H8_8 H 0.5496 0.1732 0.1715
C19_8 C 0.6936(3) 0.0400(3) 0.2056(3)
H9_8 H 0.6937 0.0673 0.2148
C23_8 C 0.6629(3) 0.0284(2) 0.1787(3)
C29_8 C 0.5854(3) 0.2403(3) 0.1061(2)
H13_8 H 0.5801 0.2667 0.0959
C30_8 C 0.5604(3) 0.2259(2) 0.1382(2)
C31_8 C 0.6434(3) 0.1024(3) 0.1519(3)
H14_8 H 0.6690 0.1154 0.1499
C32_8 C 0.6336(3) 0.0610(3) 0.1638(2)
C36_8 C 0.5270(3) 0.2501(3) 0.1576(2)
N5_8 N 0.7237(2) 0.0149(2) 0.2197(2)
N6_8 N 0.6047(2) 0.1176(2) 0.1443(3)
N7_8 N 0.5746(3) 0.0924(3) 0.1480(4)
N8_8 N 0.5923(3) 0.0573(3) 0.1611(4)
H36_6 H 0.588377 0.346453 0.992557
H37_6 H 0.625131 0.377954 0.979323
C20_8 C 0.7194(3) 0.9743(2) 0.2098(2)
H10_8 H 0.7355 0.9549 0.2238
C21_8 C 0.6911(3) 0.9599(3) 0.1784(3)
C22_8 C 0.6634(3) 0.9888(3) 0.1649(3)
H11_8 H 0.6439 0.9809 0.1452
C24_8 C 0.6959(3) 0.9157(3) 0.1661(3)
C25_8 C 0.6643(3) 0.8893(3) 0.1528(3)
H12_8 H 0.6363 0.8946 0.1488
C26_8 C 0.5811(2) 0.7430(2) 0.1641(3)
C27_8 C 0.6172(2) 0.7606(2) 0.1411(3)
C28_8 C 0.6919(2) 0.7270(2) 0.0551(2)
C33_8 C 0.6734(3) 0.7534(3) 0.0913(3)
C34_8 C 0.6349(3) 0.8000(2) 0.1539(3)
H15_8 H 0.6235 0.8150 0.1758
C35_8 C 0.6355(3) 0.7360(3) 0.1104(3)
H16_8 H 0.6246 0.7105 0.1025
C37_8 C 0.6880(3) 0.7911(3) 0.1026(3)
H17_8 H 0.7115 0.8017 0.0897
C38_8 C 0.6680(3) 0.8140(3) 0.1333(3)
N9_8 N 0.6863(2) 0.8531(2) 0.1473(2)
N10_8 N 0.7260(3) 0.8578(3) 0.1548(3)
N11_8 N 0.7317(3) 0.8954(3) 0.1667(4)
O19_8 O 0.9721(3) 0.8713(2) 0.3761(2)
C51_8 C 0.7642(2) 0.6426(3) 0.0537(2)
C52_8 C 0.7804(3) 0.6154(3) 0.0894(2)
C53_8 C 0.8244(3) 0.6224(3) 0.0992(3)
H23_8 H 0.8409 0.6415 0.0854
C54_8 C 0.8388(2) 0.5970(2) 0.1317(3)
C55_8 C 0.8153(3) 0.5661(3) 0.1508(3)
H24_8 H 0.8268 0.5496 0.1715
C56_8 C 0.9600(3) 0.6936(3) 0.2056(3)
H25_8 H 0.9327 0.6937 0.2148
C60_8 C 0.9716(2) 0.6629(3) 0.1787(3)
C66_8 C 0.7597(3) 0.5854(3) 0.1061(2)
H29_8 H 0.7333 0.5801 0.0959
C67_8 C 0.7741(2) 0.5604(3) 0.1382(2)
C68_8 C 0.8976(3) 0.6434(3) 0.1519(3)
H30_8 H 0.8846 0.6690 0.1499
C69_8 C 0.9390(3) 0.6336(3) 0.1638(2)
C73_8 C 0.7499(3) 0.5270(3) 0.1576(2)
N15_8 N 0.9851(2) 0.7237(2) 0.2197(2)
N16_8 N 0.8824(2) 0.6047(2) 0.1443(3)
N17_8 N 0.9076(3) 0.5746(3) 0.1480(4)
N18_8 N 0.9427(3) 0.5923(3) 0.1611(4)
H36_7 H 0.346453 0.411623 0.992557
H37_7 H 0.377954 0.374869 0.979323
H36_8 H 0.653547 0.588377 0.992557
H37_8 H 0.622046 0.625131 0.979323
loop_
_geom_bond_atom_site_label_1
_geom_bond_atom_site_label_2
_geom_bond_site_symmetry_1
_geom_bond_site_symmetry_2
Cu1 O2 1_555 1_555
Cu2 O1 1_555 1_555
C1 C2 1_555 1_555
C2 C3 1_555 1_555
C3 H1 1_555 1_555
C4 C2 1_555 1_555
H2 C4 1_555 1_555
C5 C6 1_555 1_555
C6 C4 1_555 1_555
C7 C6 1_555 1_555
H3 C7 1_555 1_555
C8 C3 1_555 1_555
C9 H4 1_555 1_555
C10 C9 1_555 1_555
C11 H5 1_555 1_555
C12 C10 1_555 1_555
C13 C12 1_555 1_555
H6 C13 1_555 1_555
N1 C11 1_555 1_555
N2 C8 1_555 1_555
N3 N2 1_555 1_555
N4 C10 1_555 1_555
O1 C5 1_555 1_555
O2 C5 1_555 1_555
O3 C1 1_555 1_555
O4 C1 1_555 1_555
O5 Cu2 1_555 1_555
Cu3 O10 1_555 1_555
Cu4 O11 1_555 1_555
C14 C15 1_555 1_555
C15 C16 1_555 1_555
C16 H7 1_555 1_555
C17 C16 1_555 1_555
C18 C17 1_555 1_555
H8 C18 1_555 1_555
C19 H9 1_555 1_555
C20 H10 1_555 1_555
C21 C20 1_555 1_555
C22 C21 1_555 1_555
H11 C22 1_555 1_555
C23 C19 1_555 1_555
C24 C21 1_555 1_555
C25 C24 1_555 1_555
H12 C25 1_555 1_555
C26 C27 1_555 1_555
C27 C34 1_555 1_555
C28 C33 1_555 1_555
C29 C15 1_555 1_555
H13 C29 1_555 1_555
C30 C18 1_555 1_555
C31 H14 1_555 1_555
C32 C23 1_555 1_555
C33 C35 1_555 1_555
C34 H15 1_555 1_555
C35 C27 1_555 1_555
H16 C35 1_555 1_555
C36 C30 1_555 1_555
C37 C33 1_555 1_555
H17 C37 1_555 1_555
C38 C34 1_555 1_555
N5 Cu1 1_555 1_555
N6 C17 1_555 1_555
N7 N6 1_555 1_555
N8 C32 1_555 1_555
N9 C25 1_555 1_555
N10 N9 1_555 1_555
N11 C24 1_555 1_555
O6 C26 1_555 1_555
O7 C26 1_555 1_555
O8 C36 1_555 1_555
O9 C36 1_555 1_555
O10 C14 1_555 1_555
O11 C14 1_555 1_555
O12 C28 1_555 1_555
O13 C28 1_555 1_555
O14 Cu3 1_555 1_555
C39 C40 1_555 1_555
C40 C41 1_555 1_555
C41 H18 1_555 1_555
C42 C40 1_555 1_555
H19 C42 1_555 1_555
C43 C44 1_555 1_555
C44 C42 1_555 1_555
C45 C44 1_555 1_555
H20 C45 1_555 1_555
C46 C41 1_555 1_555
C47 H21 1_555 1_555
C48 C47 1_555 1_555
C49 N1 1_555 1_555
H22 C49 1_555 1_555
C50 C13 1_555 1_555
N12 C46 1_555 1_555
N13 N12 1_555 1_555
N14 C48 1_555 1_555
O15 C43 1_555 1_555
O16 C43 1_555 1_555
O17 C39 1_555 1_555
O18 C39 1_555 1_555
Cu5 O3 1_555 1_555
Cu6 O4 1_555 1_555
O19 Cu6 1_555 1_555
C51 C52 1_555 1_555
C52 C53 1_555 1_555
C53 H23 1_555 1_555
C54 C53 1_555 1_555
C55 C54 1_555 1_555
H24 C55 1_555 1_555
C56 H25 1_555 1_555
C57 H26 1_555 1_555
C58 C57 1_555 1_555
C59 C58 1_555 1_555
H27 C59 1_555 1_555
C60 C56 1_555 1_555
C61 C58 1_555 1_555
C62 C61 1_555 1_555
H28 C62 1_555 1_555
C63 C64 1_555 1_555
C64 C71 1_555 1_555
C65 C70 1_555 1_555
C66 C52 1_555 1_555
H29 C66 1_555 1_555
C67 C55 1_555 1_555
C68 H30 1_555 1_555
C69 C60 1_555 1_555
C70 C72 1_555 1_555
C71 H31 1_555 1_555
C72 C64 1_555 1_555
H32 C72 1_555 1_555
C73 C67 1_555 1_555
C74 C70 1_555 1_555
H33 C74 1_555 1_555
C75 C71 1_555 1_555
N15 Cu5 1_555 1_555
N16 C54 1_555 1_555
N17 N16 1_555 1_555
N18 C69 1_555 1_555
N19 C62 1_555 1_555
N20 N19 1_555 1_555
N21 C61 1_555 1_555
O20 C63 1_555 1_555
O21 C63 1_555 1_555
O22 C73 1_555 1_555
O23 C73 1_555 1_555
O24 C51 1_555 1_555
O25 C51 1_555 1_555
O26 C65 1_555 1_555
O27 C65 1_555 1_555
Cu7 O16 1_555 1_555
Cu8 O17 1_555 1_555
Cu10 O20 1_555 1_555
Cu11 O6 1_555 1_555
Cu13 O15 1_555 1_555
Cu14 O18 1_555 1_555
Cu16 O21 1_555 1_555
Cu17 O7 1_555 1_555
N22 Cu4 1_555 1_555
O28 Cu6 1_555 1_555
O29 Cu5 1_555 1_555
O30 Cu1 1_555 1_555
O31 Cu2 1_555 1_555
Cu19 O26 1_555 1_555
Cu20 O12 1_555 1_555
Cu21 O27 1_555 1_555
Cu22 N1 1_555 1_555
O32 Cu5 1_555 1_555
O33 Cu1 1_555 1_555
O34 Cu6 1_555 1_555
O35 Cu2 1_555 1_555
O36 Cu6 1_555 1_555
O37 Cu2 1_555 1_555
O38 Cu5 1_555 1_555
O39 Cu1 1_555 1_555
O40 Cu3 1_555 1_555
O41 Cu4 1_555 1_555
O42 Cu3 1_555 1_555
O43 Cu3 1_555 1_555
O44 Cu4 1_555 1_555
O45 Cu4 1_555 1_555
C7 C8 1_555 1_555
C9 N2 1_555 1_555
C11 C12 1_555 1_555
N3 N4 1_555 1_555
C19 N5 1_555 1_555
C20 N5 1_555 1_555
C22 C23 1_555 1_555
C29 C30 1_555 1_555
C31 C32 1_555 1_555
C31 N6 1_555 1_555
C37 C38 1_555 1_555
C38 N9 1_555 1_555
N7 N8 1_555 1_555
N10 N11 1_555 1_555
O13 Cu22 1_555 1_555
C45 C46 1_555 1_555
C47 N12 1_555 1_555
C48 C50 1_555 1_555
C49 C50 1_555 1_555
N13 N14 1_555 1_555
C56 N15 1_555 1_555
C57 N15 1_555 1_555
C59 C60 1_555 1_555
C66 C67 1_555 1_555
C68 C69 1_555 1_555
C68 N16 1_555 1_555
C74 C75 1_555 1_555
C75 N19 1_555 1_555
N17 N18 1_555 1_555
N20 N21 1_555 1_555
O24 Cu20 1_555 1_555
O25 Cu22 1_555 1_555
Cu1_2 O2_2 1_555 1_555
Cu2_2 O1_2 1_555 1_555
C1_2 C2_2 1_555 1_555
C2_2 C3_2 1_555 1_555
C3_2 H1_2 1_555 1_555
C4_2 C2_2 1_555 1_555
H2_2 C4_2 1_555 1_555
C5_2 C6_2 1_555 1_555
C6_2 C4_2 1_555 1_555
C7_2 C6_2 1_555 1_555
H3_2 C7_2 1_555 1_555
C8_2 C3_2 1_555 1_555
C9_2 H4_2 1_555 1_555
C10_2 C9_2 1_555 1_555
C11_2 H5_2 1_555 1_555
C12_2 C10_2 1_555 1_555
C13_2 C12_2 1_555 1_555
H6_2 C13_2 1_555 1_555
N1_2 C11_2 1_555 1_555
N2_2 C8_2 1_555 1_555
N3_2 N2_2 1_555 1_555
N4_2 C10_2 1_555 1_555
O1_2 C5_2 1_555 1_555
O2_2 C5_2 1_555 1_555
O3_2 C1_2 1_555 1_555
O4_2 C1_2 1_555 1_555
O5_2 Cu2_2 1_555 1_555
Cu19 O10_2 1_555 1_555
Cu21 O11_2 1_555 1_555
C14_2 C15_2 1_555 1_555
C15_2 C16_2 1_555 1_555
C16_2 H7_2 1_555 1_555
C17_2 C16_2 1_555 1_555
C18_2 C17_2 1_555 1_555
H8_2 C18_2 1_555 1_555
C19_2 H9_2 1_555 1_555
C20_2 H10_2 1_555 1_555
C21_2 C20_2 1_555 1_555
C22_2 C21_2 1_555 1_555
H11_2 C22_2 1_555 1_555
C23_2 C19_2 1_555 1_555
C24_2 C21_2 1_555 1_555
C25_2 C24_2 1_555 1_555
H12_2 C25_2 1_555 1_555
C26_2 C27_2 1_555 1_555
C27_2 C34_2 1_555 1_555
C28_2 C33_2 1_555 1_555
C29_2 C15_2 1_555 1_555
H13_2 C29_2 1_555 1_555
C30_2 C18_2 1_555 1_555
C31_2 H14_2 1_555 1_555
C32_2 C23_2 1_555 1_555
C33_2 C35_2 1_555 1_555
C34_2 H15_2 1_555 1_555
C35_2 C27_2 1_555 1_555
H16_2 C35_2 1_555 1_555
C36_2 C30_2 1_555 1_555
C37_2 C33_2 1_555 1_555
H17_2 C37_2 1_555 1_555
C38_2 C34_2 1_555 1_555
N5_2 Cu1_2 1_555 1_555
N6_2 C17_2 1_555 1_555
N7_2 N6_2 1_555 1_555
N8_2 C32_2 1_555 1_555
N9_2 C25_2 1_555 1_555
N10_2 N9_2 1_555 1_555
N11_2 C24_2 1_555 1_555
O6_2 C26_2 1_555 1_555
O7_2 C26_2 1_555 1_555
O8_2 C36_2 1_555 1_555
O9_2 C36_2 1_555 1_555
O10_2 C14_2 1_555 1_555
O11_2 C14_2 1_555 1_555
O12_2 C28_2 1_555 1_555
O13_2 C28_2 1_555 1_555
O14_2 Cu19 1_555 1_555
C39_2 C40_2 1_555 1_555
C40_2 C41_2 1_555 1_555
C41_2 H18_2 1_555 1_555
C42_2 C40_2 1_555 1_555
H19_2 C42_2 1_555 1_555
C43_2 C44_2 1_555 1_555
C44_2 C42_2 1_555 1_555
C45_2 C44_2 1_555 1_555
H20_2 C45_2 1_555 1_555
C46_2 C41_2 1_555 1_555
C47_2 H21_2 1_555 1_555
C48_2 C47_2 1_555 1_555
C49_2 N1_2 1_555 1_555
H22_2 C49_2 1_555 1_555
C50_2 C13_2 1_555 1_555
N12_2 C46_2 1_555 1_555
N13_2 N12_2 1_555 1_555
N14_2 C48_2 1_555 1_555
O15_2 C43_2 1_555 1_555
O16_2 C43_2 1_555 1_555
O17_2 C39_2 1_555 1_555
O18_2 C39_2 1_555 1_555
Cu5_2 O3_2 1_555 1_555
Cu6_2 O4_2 1_555 1_555
O19_2 Cu6_2 1_555 1_555
C51_2 C52_2 1_555 1_555
C52_2 C53_2 1_555 1_555
C53_2 H23_2 1_555 1_555
C54_2 C53_2 1_555 1_555
C55_2 C54_2 1_555 1_555
H24_2 C55_2 1_555 1_555
C56_2 H25_2 1_555 1_555
C57_2 H26_2 1_555 1_555
C58_2 C57_2 1_555 1_555
C59_2 C58_2 1_555 1_555
H27_2 C59_2 1_555 1_555
C60_2 C56_2 1_555 1_555
C61_2 C58_2 1_555 1_555
C62_2 C61_2 1_555 1_555
H28_2 C62_2 1_555 1_555
C63_2 C64_2 1_555 1_555
C64_2 C71_2 1_555 1_555
C65_2 C70_2 1_555 1_555
C66_2 C52_2 1_555 1_555
H29_2 C66_2 1_555 1_555
C67_2 C55_2 1_555 1_555
C68_2 H30_2 1_555 1_555
C69_2 C60_2 1_555 1_555
C70_2 C72_2 1_555 1_555
C71_2 H31_2 1_555 1_555
C72_2 C64_2 1_555 1_555
H32_2 C72_2 1_555 1_555
C73_2 C67_2 1_555 1_555
C74_2 C70_2 1_555 1_555
H33_2 C74_2 1_555 1_555
C75_2 C71_2 1_555 1_555
N15_2 Cu5_2 1_555 1_555
N16_2 C54_2 1_555 1_555
N17_2 N16_2 1_555 1_555
N18_2 C69_2 1_555 1_555
N19_2 C62_2 1_555 1_555
N20_2 N19_2 1_555 1_555
N21_2 C61_2 1_555 1_555
O20_2 C63_2 1_555 1_555
O21_2 C63_2 1_555 1_555
O22_2 C73_2 1_555 1_555
O23_2 C73_2 1_555 1_555
O24_2 C51_2 1_555 1_555
O25_2 C51_2 1_555 1_555
O42 C65_2 1_555 1_555
O44 C65_2 1_555 1_555
Cu7_2 O16_2 1_555 1_555
Cu8_2 O17_2 1_555 1_555
Cu9 O20_2 1_555 1_555
Cu12 O6_2 1_555 1_555
Cu13_2 O15_2 1_555 1_555
Cu14_2 O18_2 1_555 1_555
Cu15 O21_2 1_555 1_555
Cu18 O7_2 1_555 1_555
N22_2 Cu21 1_555 1_555
O28_2 Cu6_2 1_555 1_555
O29_2 Cu5_2 1_555 1_555
O30_2 Cu1_2 1_555 1_555
O31_2 Cu2_2 1_555 1_555
Cu20_2 O12_2 1_555 1_555
Cu22_2 N1_2 1_555 1_555
O32_2 Cu5_2 1_555 1_555
O33_2 Cu1_2 1_555 1_555
O34_2 Cu6_2 1_555 1_555
O35_2 Cu2_2 1_555 1_555
O36_2 Cu6_2 1_555 1_555
O37_2 Cu2_2 1_555 1_555
O38_2 Cu5_2 1_555 1_555
O39_2 Cu1_2 1_555 1_555
O40_2 Cu19 1_555 1_555
O41_2 Cu21 1_555 1_555
O43_2 Cu19 1_555 1_555
O45_2 Cu21 1_555 1_555
C7_2 C8_2 1_555 1_555
C9_2 N2_2 1_555 1_555
C11_2 C12_2 1_555 1_555
N3_2 N4_2 1_555 1_555
C19_2 N5_2 1_555 1_555
C20_2 N5_2 1_555 1_555
C22_2 C23_2 1_555 1_555
C29_2 C30_2 1_555 1_555
C31_2 C32_2 1_555 1_555
C31_2 N6_2 1_555 1_555
C37_2 C38_2 1_555 1_555
C38_2 N9_2 1_555 1_555
N7_2 N8_2 1_555 1_555
N10_2 N11_2 1_555 1_555
O13_2 Cu22_2 1_555 1_555
C45_2 C46_2 1_555 1_555
C47_2 N12_2 1_555 1_555
C48_2 C50_2 1_555 1_555
C49_2 C50_2 1_555 1_555
N13_2 N14_2 1_555 1_555
C56_2 N15_2 1_555 1_555
C57_2 N15_2 1_555 1_555
C59_2 C60_2 1_555 1_555
C66_2 C67_2 1_555 1_555
C68_2 C69_2 1_555 1_555
C68_2 N16_2 1_555 1_555
C74_2 C75_2 1_555 1_555
C75_2 N19_2 1_555 1_555
N17_2 N18_2 1_555 1_555
N20_2 N21_2 1_555 1_555
O24_2 Cu20_2 1_555 1_555
O25_2 Cu22_2 1_555 1_555
C1_3 C2_3 1_555 1_555
C2_3 C3_3 1_555 1_555
C3_3 H1_3 1_555 1_555
C4_3 C2_3 1_555 1_555
H2_3 C4_3 1_555 1_555
C5_3 C6_3 1_555 1_555
C6_3 C4_3 1_555 1_555
C7_3 C6_3 1_555 1_555
H3_3 C7_3 1_555 1_555
C8_3 C3_3 1_555 1_555
C9_3 H4_3 1_555 1_555
C10_3 C9_3 1_555 1_555
C11_3 H5_3 1_555 1_555
C12_3 C10_3 1_555 1_555
C13_3 C12_3 1_555 1_555
H6_3 C13_3 1_555 1_555
N22_2 C11_3 1_555 1_555
N2_3 C8_3 1_555 1_555
N3_3 N2_3 1_555 1_555
N4_3 C10_3 1_555 1_555
O28 C5_3 1_555 1_555
O29 C5_3 1_555 1_555
O30_2 C1_3 1_555 1_555
O31_2 C1_3 1_555 1_555
O14_3 Cu20 1_555 1_555
C39_3 C40_3 1_555 1_555
C40_3 C41_3 1_555 1_555
C41_3 H18_3 1_555 1_555
C42_3 C40_3 1_555 1_555
H19_3 C42_3 1_555 1_555
C43_3 C44_3 1_555 1_555
C44_3 C42_3 1_555 1_555
C45_3 C44_3 1_555 1_555
H20_3 C45_3 1_555 1_555
C46_3 C41_3 1_555 1_555
C47_3 H21_3 1_555 1_555
C48_3 C47_3 1_555 1_555
C49_3 N22_2 1_555 1_555
H22_3 C49_3 1_555 1_555
C50_3 C13_3 1_555 1_555
N12_3 C46_3 1_555 1_555
N13_3 N12_3 1_555 1_555
N14_3 C48_3 1_555 1_555
O15_3 C43_3 1_555 1_555
O16_3 C43_3 1_555 1_555
O17_3 C39_3 1_555 1_555
O18_3 C39_3 1_555 1_555
Cu8 O16_3 1_555 1_555
Cu7_2 O17_3 1_555 1_555
Cu14 O15_3 1_555 1_555
Cu13_2 O18_3 1_555 1_555
O40_3 Cu20 1_555 1_555
O41_3 Cu22 1_555 1_555
O43_3 Cu20 1_555 1_555
O45_3 Cu22 1_555 1_555
C7_3 C8_3 1_555 1_555
C9_3 N2_3 1_555 1_555
C11_3 C12_3 1_555 1_555
N3_3 N4_3 1_555 1_555
C45_3 C46_3 1_555 1_555
C47_3 N12_3 1_555 1_555
C48_3 C50_3 1_555 1_555
C49_3 C50_3 1_555 1_555
N13_3 N14_3 1_555 1_555
C1_4 C2_4 1_555 1_555
C2_4 C3_4 1_555 1_555
C3_4 H1_4 1_555 1_555
C4_4 C2_4 1_555 1_555
H2_4 C4_4 1_555 1_555
C5_4 C6_4 1_555 1_555
C6_4 C4_4 1_555 1_555
C7_4 C6_4 1_555 1_555
H3_4 C7_4 1_555 1_555
C8_4 C3_4 1_555 1_555
C9_4 H4_4 1_555 1_555
C10_4 C9_4 1_555 1_555
C11_4 H5_4 1_555 1_555
C12_4 C10_4 1_555 1_555
C13_4 C12_4 1_555 1_555
H6_4 C13_4 1_555 1_555
N22 C11_4 1_555 1_555
N2_4 C8_4 1_555 1_555
N3_4 N2_4 1_555 1_555
N4_4 C10_4 1_555 1_555
O28_2 C5_4 1_555 1_555
O29_2 C5_4 1_555 1_555
O30 C1_4 1_555 1_555
O31 C1_4 1_555 1_555
O14_4 Cu20_2 1_555 1_555
C39_4 C40_4 1_555 1_555
C40_4 C41_4 1_555 1_555
C41_4 H18_4 1_555 1_555
C42_4 C40_4 1_555 1_555
H19_4 C42_4 1_555 1_555
C43_4 C44_4 1_555 1_555
C44_4 C42_4 1_555 1_555
C45_4 C44_4 1_555 1_555
H20_4 C45_4 1_555 1_555
C46_4 C41_4 1_555 1_555
C47_4 H21_4 1_555 1_555
C48_4 C47_4 1_555 1_555
C49_4 N22 1_555 1_555
H22_4 C49_4 1_555 1_555
C50_4 C13_4 1_555 1_555
N12_4 C46_4 1_555 1_555
N13_4 N12_4 1_555 1_555
N14_4 C48_4 1_555 1_555
O15_4 C43_4 1_555 1_555
O16_4 C43_4 1_555 1_555
O17_4 C39_4 1_555 1_555
O18_4 C39_4 1_555 1_555
Cu8_2 O16_4 1_555 1_555
Cu7 O17_4 1_555 1_555
Cu14_2 O15_4 1_555 1_555
Cu13 O18_4 1_555 1_555
O40_4 Cu20_2 1_555 1_555
O41_4 Cu22_2 1_555 1_555
O43_4 Cu20_2 1_555 1_555
O45_4 Cu22_2 1_555 1_555
C7_4 C8_4 1_555 1_555
C9_4 N2_4 1_555 1_555
C11_4 C12_4 1_555 1_555
N3_4 N4_4 1_555 1_555
C45_4 C46_4 1_555 1_555
C47_4 N12_4 1_555 1_555
C48_4 C50_4 1_555 1_555
C49_4 C50_4 1_555 1_555
N13_4 N14_4 1_555 1_555
C57_3 H26_3 1_555 1_555
C58_3 C57_3 1_555 1_555
C59_3 C58_3 1_555 1_555
H27_3 C59_3 1_555 1_555
C61_3 C58_3 1_555 1_555
C62_3 C61_3 1_555 1_555
H28_3 C62_3 1_555 1_555
C63_3 C64_3 1_555 1_555
C64_3 C71_3 1_555 1_555
C65_3 C70_3 1_555 1_555
C70_3 C72_3 1_555 1_555
C71_3 H31_3 1_555 1_555
C72_3 C64_3 1_555 1_555
H32_3 C72_3 1_555 1_555
C74_3 C70_3 1_555 1_555
H33_3 C74_3 1_555 1_555
C75_3 C71_3 1_555 1_555
N19_3 C62_3 1_555 1_555
N20_3 N19_3 1_555 1_555
N21_3 C61_3 1_555 1_555
O20_3 C63_3 1_555 1_555
O21_3 C63_3 1_555 1_555
O26_2 C65_3 1_555 1_555
O27_2 C65_3 1_555 1_555
Cu7 O20_3 1_555 1_555
Cu13 O21_3 1_555 1_555
Cu19_3 O26_2 1_555 1_555
Cu21_3 O27_2 1_555 1_555
C74_3 C75_3 1_555 1_555
C75_3 N19_3 1_555 1_555
N20_3 N21_3 1_555 1_555
O14_5 Cu3_2 1_555 1_555
N22_3 Cu4_2 1_555 1_555
O40_5 Cu3_2 1_555 1_555
O41_5 Cu4_2 1_555 1_555
O43_5 Cu3_2 1_555 1_555
O45_5 Cu4_2 1_555 1_555
O14_5 H36 1_555 1_555
O14_5 H37 1_555 1_555
O5_3 Cu2_3 1_555 1_555
Cu3_3 O10_3 1_555 1_555
Cu4_3 O11_3 1_555 1_555
C14_3 C15_3 1_555 1_555
C15_3 C16_3 1_555 1_555
C16_3 H7_3 1_555 1_555
C17_3 C16_3 1_555 1_555
C18_3 C17_3 1_555 1_555
H8_3 C18_3 1_555 1_555
C19_3 H9_3 1_555 1_555
C23_3 C19_3 1_555 1_555
C29_3 C15_3 1_555 1_555
H13_3 C29_3 1_555 1_555
C30_3 C18_3 1_555 1_555
C31_3 H14_3 1_555 1_555
C32_3 C23_3 1_555 1_555
C36_3 C30_3 1_555 1_555
N5_3 Cu1_3 1_555 1_555
N6_3 C17_3 1_555 1_555
N7_3 N6_3 1_555 1_555
N8_3 C32_3 1_555 1_555
O8_3 C36_3 1_555 1_555
O9_3 C36_3 1_555 1_555
O10_3 C14_3 1_555 1_555
O11_3 C14_3 1_555 1_555
O14_6 Cu3_3 1_555 1_555
Cu8 O9_3 1_555 1_555
Cu14 O8_3 1_555 1_555
N22_4 Cu4_3 1_555 1_555
O30_3 Cu1_3 1_555 1_555
O31_3 Cu2_3 1_555 1_555
O33_3 Cu1_3 1_555 1_555
O35_3 Cu2_3 1_555 1_555
O42_2 Cu3_3 1_555 1_555
O44_2 Cu4_3 1_555 1_555
C19_3 N5_3 1_555 1_555
C29_3 C30_3 1_555 1_555
C31_3 C32_3 1_555 1_555
C31_3 N6_3 1_555 1_555
N7_3 N8_3 1_555 1_555
H6_5 C13_5 1_555 1_555
C39_5 C40_5 1_555 1_555
C40_5 C41_5 1_555 1_555
C41_5 H18_5 1_555 1_555
C42_5 C40_5 1_555 1_555
H19_5 C42_5 1_555 1_555
C43_5 C44_5 1_555 1_555
C44_5 C42_5 1_555 1_555
C45_5 C44_5 1_555 1_555
H20_5 C45_5 1_555 1_555
C46_5 C41_5 1_555 1_555
C47_5 H21_5 1_555 1_555
C48_5 C47_5 1_555 1_555
C49_5 N1_3 1_555 1_555
H22_5 C49_5 1_555 1_555
C50_5 C13_5 1_555 1_555
N12_5 C46_5 1_555 1_555
N13_5 N12_5 1_555 1_555
N14_5 C48_5 1_555 1_555
O15_5 C43_5 1_555 1_555
O16_5 C43_5 1_555 1_555
O17_5 C39_5 1_555 1_555
O18_5 C39_5 1_555 1_555
Cu12 O17_5 1_555 1_555
Cu18 O18_5 1_555 1_555
Cu22_3 N1_3 1_555 1_555
C45_5 C46_5 1_555 1_555
C47_5 N12_5 1_555 1_555
C48_5 C50_5 1_555 1_555
C49_5 C50_5 1_555 1_555
N13_5 N14_5 1_555 1_555
C1_5 C2_5 1_555 1_555
C2_5 C3_5 1_555 1_555
C3_5 H1_5 1_555 1_555
C4_5 C2_5 1_555 1_555
H2_5 C4_5 1_555 1_555
C5_5 C6_5 1_555 1_555
C6_5 C4_5 1_555 1_555
C7_5 C6_5 1_555 1_555
H3_5 C7_5 1_555 1_555
C8_5 C3_5 1_555 1_555
C9_5 H4_5 1_555 1_555
C10_5 C9_5 1_555 1_555
C11_5 H5_5 1_555 1_555
C12_5 C10_5 1_555 1_555
C13_6 C12_5 1_555 1_555
H6_6 C13_6 1_555 1_555
N1_4 C11_5 1_555 1_555
N2_5 C8_5 1_555 1_555
N3_5 N2_5 1_555 1_555
N4_5 C10_5 1_555 1_555
O1_3 C5_5 1_555 1_555
O2_3 C5_5 1_555 1_555
O3_3 C1_5 1_555 1_555
O4_3 C1_5 1_555 1_555
C20_3 H10_3 1_555 1_555
C21_3 C20_3 1_555 1_555
C22_3 C21_3 1_555 1_555
H11_3 C22_3 1_555 1_555
C24_3 C21_3 1_555 1_555
C25_3 C24_3 1_555 1_555
H12_3 C25_3 1_555 1_555
C26_3 C27_3 1_555 1_555
C27_3 C34_3 1_555 1_555
C28_3 C33_3 1_555 1_555
C33_3 C35_3 1_555 1_555
C34_3 H15_3 1_555 1_555
C35_3 C27_3 1_555 1_555
H16_3 C35_3 1_555 1_555
C37_3 C33_3 1_555 1_555
H17_3 C37_3 1_555 1_555
C38_3 C34_3 1_555 1_555
N9_3 C25_3 1_555 1_555
N10_3 N9_3 1_555 1_555
N11_3 C24_3 1_555 1_555
O6_3 C26_3 1_555 1_555
O7_3 C26_3 1_555 1_555
O12_3 C28_3 1_555 1_555
O13_3 C28_3 1_555 1_555
Cu5_3 O3_3 1_555 1_555
Cu6_3 O4_3 1_555 1_555
O19_3 Cu6_3 1_555 1_555
C51_3 C52_3 1_555 1_555
C52_3 C53_3 1_555 1_555
C53_3 H23_3 1_555 1_555
C54_3 C53_3 1_555 1_555
C55_3 C54_3 1_555 1_555
H24_3 C55_3 1_555 1_555
C56_3 H25_3 1_555 1_555
C60_3 C56_3 1_555 1_555
C66_3 C52_3 1_555 1_555
H29_3 C66_3 1_555 1_555
C67_3 C55_3 1_555 1_555
C68_3 H30_3 1_555 1_555
C69_3 C60_3 1_555 1_555
C73_3 C67_3 1_555 1_555
N15_3 Cu5_3 1_555 1_555
N16_3 C54_3 1_555 1_555
N17_3 N16_3 1_555 1_555
N18_3 C69_3 1_555 1_555
O22_3 C73_3 1_555 1_555
O23_3 C73_3 1_555 1_555
O24_3 C51_3 1_555 1_555
O25_3 C51_3 1_555 1_555
Cu7_2 O23_3 1_555 1_555
Cu8_2 O6_3 1_555 1_555
Cu13_2 O22_3 1_555 1_555
Cu14_2 O7_3 1_555 1_555
Cu20_4 O12_3 1_555 1_555
Cu22_4 N1_4 1_555 1_555
O32_3 Cu5_3 1_555 1_555
O34_3 Cu6_3 1_555 1_555
C7_5 C8_5 1_555 1_555
C9_5 N2_5 1_555 1_555
C11_5 C12_5 1_555 1_555
N3_5 N4_5 1_555 1_555
C37_3 C38_3 1_555 1_555
C38_3 N9_3 1_555 1_555
N10_3 N11_3 1_555 1_555
O13_3 Cu22_4 1_555 1_555
C56_3 N15_3 1_555 1_555
C66_3 C67_3 1_555 1_555
C68_3 C69_3 1_555 1_555
C68_3 N16_3 1_555 1_555
N17_3 N18_3 1_555 1_555
O24_3 Cu20_4 1_555 1_555
O25_3 Cu22_4 1_555 1_555
H6_7 C13_7 1_555 1_555
C39_6 C40_6 1_555 1_555
C40_6 C41_6 1_555 1_555
C41_6 H18_6 1_555 1_555
C42_6 C40_6 1_555 1_555
H19_6 C42_6 1_555 1_555
C43_6 C44_6 1_555 1_555
C44_6 C42_6 1_555 1_555
C45_6 C44_6 1_555 1_555
H20_6 C45_6 1_555 1_555
C46_6 C41_6 1_555 1_555
C47_6 H21_6 1_555 1_555
C48_6 C47_6 1_555 1_555
C49_6 N1_5 1_555 1_555
H22_6 C49_6 1_555 1_555
C50_6 C13_7 1_555 1_555
N12_6 C46_6 1_555 1_555
N13_6 N12_6 1_555 1_555
N14_6 C48_6 1_555 1_555
O15_6 C43_6 1_555 1_555
O16_6 C43_6 1_555 1_555
O17_6 C39_6 1_555 1_555
O18_6 C39_6 1_555 1_555
Cu11 O17_6 1_555 1_555
Cu17 O18_6 1_555 1_555
Cu22_5 N1_5 1_555 1_555
C45_6 C46_6 1_555 1_555
C47_6 N12_6 1_555 1_555
C48_6 C50_6 1_555 1_555
C49_6 C50_6 1_555 1_555
N13_6 N14_6 1_555 1_555
C1_6 C2_6 1_555 1_555
C2_6 C3_6 1_555 1_555
C3_6 H1_6 1_555 1_555
C4_6 C2_6 1_555 1_555
H2_6 C4_6 1_555 1_555
C5_6 C6_6 1_555 1_555
C6_6 C4_6 1_555 1_555
C7_6 C6_6 1_555 1_555
H3_6 C7_6 1_555 1_555
C8_6 C3_6 1_555 1_555
C9_6 H4_6 1_555 1_555
C10_6 C9_6 1_555 1_555
C11_6 H5_6 1_555 1_555
C12_6 C10_6 1_555 1_555
C13_8 C12_6 1_555 1_555
H6_8 C13_8 1_555 1_555
N1_6 C11_6 1_555 1_555
N2_6 C8_6 1_555 1_555
N3_6 N2_6 1_555 1_555
N4_6 C10_6 1_555 1_555
O1_4 C5_6 1_555 1_555
O2_4 C5_6 1_555 1_555
O3_4 C1_6 1_555 1_555
O4_4 C1_6 1_555 1_555
C20_4 H10_4 1_555 1_555
C21_4 C20_4 1_555 1_555
C22_4 C21_4 1_555 1_555
H11_4 C22_4 1_555 1_555
C24_4 C21_4 1_555 1_555
C25_4 C24_4 1_555 1_555
H12_4 C25_4 1_555 1_555
C26_4 C27_4 1_555 1_555
C27_4 C34_4 1_555 1_555
C28_4 C33_4 1_555 1_555
C33_4 C35_4 1_555 1_555
C34_4 H15_4 1_555 1_555
C35_4 C27_4 1_555 1_555
H16_4 C35_4 1_555 1_555
C37_4 C33_4 1_555 1_555
H17_4 C37_4 1_555 1_555
C38_4 C34_4 1_555 1_555
N9_4 C25_4 1_555 1_555
N10_4 N9_4 1_555 1_555
N11_4 C24_4 1_555 1_555
O6_4 C26_4 1_555 1_555
O7_4 C26_4 1_555 1_555
O12_4 C28_4 1_555 1_555
O13_4 C28_4 1_555 1_555
Cu5_4 O3_4 1_555 1_555
Cu6_4 O4_4 1_555 1_555
O19_4 Cu6_4 1_555 1_555
C51_4 C52_4 1_555 1_555
C52_4 C53_4 1_555 1_555
C53_4 H23_4 1_555 1_555
C54_4 C53_4 1_555 1_555
C55_4 C54_4 1_555 1_555
H24_4 C55_4 1_555 1_555
C56_4 H25_4 1_555 1_555
C60_4 C56_4 1_555 1_555
C66_4 C52_4 1_555 1_555
H29_4 C66_4 1_555 1_555
C67_4 C55_4 1_555 1_555
C68_4 H30_4 1_555 1_555
C69_4 C60_4 1_555 1_555
C73_4 C67_4 1_555 1_555
N15_4 Cu5_4 1_555 1_555
N16_4 C54_4 1_555 1_555
N17_4 N16_4 1_555 1_555
N18_4 C69_4 1_555 1_555
O22_4 C73_4 1_555 1_555
O23_4 C73_4 1_555 1_555
O24_4 C51_4 1_555 1_555
O25_4 C51_4 1_555 1_555
Cu7 O23_4 1_555 1_555
Cu8 O6_4 1_555 1_555
Cu13 O22_4 1_555 1_555
Cu14 O7_4 1_555 1_555
Cu20_6 O12_4 1_555 1_555
Cu22_6 N1_6 1_555 1_555
O32_4 Cu5_4 1_555 1_555
O34_4 Cu6_4 1_555 1_555
C7_6 C8_6 1_555 1_555
C9_6 N2_6 1_555 1_555
C11_6 C12_6 1_555 1_555
N3_6 N4_6 1_555 1_555
C37_4 C38_4 1_555 1_555
C38_4 N9_4 1_555 1_555
N10_4 N11_4 1_555 1_555
O13_4 Cu22_6 1_555 1_555
C56_4 N15_4 1_555 1_555
C66_4 C67_4 1_555 1_555
C68_4 C69_4 1_555 1_555
C68_4 N16_4 1_555 1_555
N17_4 N18_4 1_555 1_555
O24_4 Cu20_6 1_555 1_555
O25_4 Cu22_6 1_555 1_555
O14_7 Cu19_2 1_555 1_555
N22_5 Cu21_2 1_555 1_555
O40_6 Cu19_2 1_555 1_555
O41_6 Cu21_2 1_555 1_555
O43_6 Cu19_2 1_555 1_555
O45_6 Cu21_2 1_555 1_555
O14_7 H36_2 1_555 1_555
O14_7 H37_2 1_555 1_555
O5_4 Cu2_4 1_555 1_555
Cu19_3 O10_4 1_555 1_555
Cu21_3 O11_4 1_555 1_555
C14_4 C15_4 1_555 1_555
C15_4 C16_4 1_555 1_555
C16_4 H7_4 1_555 1_555
C17_4 C16_4 1_555 1_555
C18_4 C17_4 1_555 1_555
H8_4 C18_4 1_555 1_555
C19_4 H9_4 1_555 1_555
C23_4 C19_4 1_555 1_555
C29_4 C15_4 1_555 1_555
H13_4 C29_4 1_555 1_555
C30_4 C18_4 1_555 1_555
C31_4 H14_4 1_555 1_555
C32_4 C23_4 1_555 1_555
C36_4 C30_4 1_555 1_555
N5_4 Cu1_4 1_555 1_555
N6_4 C17_4 1_555 1_555
N7_4 N6_4 1_555 1_555
N8_4 C32_4 1_555 1_555
O8_4 C36_4 1_555 1_555
O9_4 C36_4 1_555 1_555
O10_4 C14_4 1_555 1_555
O11_4 C14_4 1_555 1_555
O14_8 Cu19_3 1_555 1_555
Cu8_2 O9_4 1_555 1_555
Cu14_2 O8_4 1_555 1_555
N22_6 Cu21_3 1_555 1_555
O30_4 Cu1_4 1_555 1_555
O31_4 Cu2_4 1_555 1_555
O33_4 Cu1_4 1_555 1_555
O35_4 Cu2_4 1_555 1_555
C19_4 N5_4 1_555 1_555
C29_4 C30_4 1_555 1_555
C31_4 C32_4 1_555 1_555
C31_4 N6_4 1_555 1_555
N7_4 N8_4 1_555 1_555
C57_4 H26_4 1_555 1_555
C58_4 C57_4 1_555 1_555
C59_4 C58_4 1_555 1_555
H27_4 C59_4 1_555 1_555
C61_4 C58_4 1_555 1_555
C62_4 C61_4 1_555 1_555
H28_4 C62_4 1_555 1_555
C63_4 C64_4 1_555 1_555
C64_4 C71_4 1_555 1_555
C65_4 C70_4 1_555 1_555
C70_4 C72_4 1_555 1_555
C71_4 H31_4 1_555 1_555
C72_4 C64_4 1_555 1_555
H32_4 C72_4 1_555 1_555
C74_4 C70_4 1_555 1_555
H33_4 C74_4 1_555 1_555
C75_4 C71_4 1_555 1_555
N19_4 C62_4 1_555 1_555
N20_4 N19_4 1_555 1_555
N21_4 C61_4 1_555 1_555
O20_4 C63_4 1_555 1_555
O21_4 C63_4 1_555 1_555
O42_2 C65_4 1_555 1_555
O44_2 C65_4 1_555 1_555
Cu7_2 O20_4 1_555 1_555
Cu13_2 O21_4 1_555 1_555
C74_4 C75_4 1_555 1_555
C75_4 N19_4 1_555 1_555
N20_4 N21_4 1_555 1_555
H6_9 C13_9 1_555 1_555
C39_7 C40_7 1_555 1_555
C40_7 C41_7 1_555 1_555
C41_7 H18_7 1_555 1_555
C42_7 C40_7 1_555 1_555
H19_7 C42_7 1_555 1_555
C43_7 C44_7 1_555 1_555
C44_7 C42_7 1_555 1_555
C45_7 C44_7 1_555 1_555
H20_7 C45_7 1_555 1_555
C46_7 C41_7 1_555 1_555
C47_7 H21_7 1_555 1_555
C48_7 C47_7 1_555 1_555
C49_7 N22_5 1_555 1_555
H22_7 C49_7 1_555 1_555
C50_7 C13_9 1_555 1_555
N12_7 C46_7 1_555 1_555
N13_7 N12_7 1_555 1_555
N14_7 C48_7 1_555 1_555
O15_7 C43_7 1_555 1_555
O16_7 C43_7 1_555 1_555
O17_7 C39_7 1_555 1_555
O18_7 C39_7 1_555 1_555
Cu9 O17_7 1_555 1_555
Cu15 O18_7 1_555 1_555
C45_7 C46_7 1_555 1_555
C47_7 N12_7 1_555 1_555
C48_7 C50_7 1_555 1_555
C49_7 C50_7 1_555 1_555
N13_7 N14_7 1_555 1_555
C1_7 C2_7 1_555 1_555
C2_7 C3_7 1_555 1_555
C3_7 H1_7 1_555 1_555
C4_7 C2_7 1_555 1_555
H2_7 C4_7 1_555 1_555
C5_7 C6_7 1_555 1_555
C6_7 C4_7 1_555 1_555
C7_7 C6_7 1_555 1_555
H3_7 C7_7 1_555 1_555
C8_7 C3_7 1_555 1_555
C9_7 H4_7 1_555 1_555
C10_7 C9_7 1_555 1_555
C11_7 H5_7 1_555 1_555
C12_7 C10_7 1_555 1_555
C13_10 C12_7 1_555 1_555
H6_10 C13_10 1_555 1_555
N22_6 C11_7 1_555 1_555
N2_7 C8_7 1_555 1_555
N3_7 N2_7 1_555 1_555
N4_7 C10_7 1_555 1_555
O28_3 C5_7 1_555 1_555
O29_3 C5_7 1_555 1_555
O30_4 C1_7 1_555 1_555
O31_4 C1_7 1_555 1_555
C7_7 C8_7 1_555 1_555
C9_7 N2_7 1_555 1_555
C11_7 C12_7 1_555 1_555
N3_7 N4_7 1_555 1_555
O14_9 Cu20_3 1_555 1_555
O40_7 Cu20_3 1_555 1_555
O41_7 Cu22_3 1_555 1_555
O43_7 Cu20_3 1_555 1_555
O45_7 Cu22_3 1_555 1_555
O14_9 H36_3 1_555 1_555
O14_9 H37_3 1_555 1_555
O14_10 Cu20_4 1_555 1_555
O14_11 Cu20_5 1_555 1_555
O40_8 Cu20_5 1_555 1_555
O41_8 Cu22_5 1_555 1_555
O43_8 Cu20_5 1_555 1_555
O45_8 Cu22_5 1_555 1_555
O14_11 H36_4 1_555 1_555
O14_11 H37_4 1_555 1_555
O14_12 Cu20_6 1_555 1_555
H6_11 C13_11 1_555 1_555
C39_8 C40_8 1_555 1_555
C40_8 C41_8 1_555 1_555
C41_8 H18_8 1_555 1_555
C42_8 C40_8 1_555 1_555
H19_8 C42_8 1_555 1_555
C43_8 C44_8 1_555 1_555
C44_8 C42_8 1_555 1_555
C45_8 C44_8 1_555 1_555
H20_8 C45_8 1_555 1_555
C46_8 C41_8 1_555 1_555
C47_8 H21_8 1_555 1_555
C48_8 C47_8 1_555 1_555
C49_8 N22_3 1_555 1_555
H22_8 C49_8 1_555 1_555
C50_8 C13_11 1_555 1_555
N12_8 C46_8 1_555 1_555
N13_8 N12_8 1_555 1_555
N14_8 C48_8 1_555 1_555
O15_8 C43_8 1_555 1_555
O16_8 C43_8 1_555 1_555
O17_8 C39_8 1_555 1_555
O18_8 C39_8 1_555 1_555
Cu10 O17_8 1_555 1_555
Cu16 O18_8 1_555 1_555
C45_8 C46_8 1_555 1_555
C47_8 N12_8 1_555 1_555
C48_8 C50_8 1_555 1_555
C49_8 C50_8 1_555 1_555
N13_8 N14_8 1_555 1_555
C1_8 C2_8 1_555 1_555
C2_8 C3_8 1_555 1_555
C3_8 H1_8 1_555 1_555
C4_8 C2_8 1_555 1_555
H2_8 C4_8 1_555 1_555
C5_8 C6_8 1_555 1_555
C6_8 C4_8 1_555 1_555
C7_8 C6_8 1_555 1_555
H3_8 C7_8 1_555 1_555
C8_8 C3_8 1_555 1_555
C9_8 H4_8 1_555 1_555
C10_8 C9_8 1_555 1_555
C11_8 H5_8 1_555 1_555
C12_8 C10_8 1_555 1_555
C13_12 C12_8 1_555 1_555
H6_12 C13_12 1_555 1_555
N22_4 C11_8 1_555 1_555
N2_8 C8_8 1_555 1_555
N3_8 N2_8 1_555 1_555
N4_8 C10_8 1_555 1_555
O28_4 C5_8 1_555 1_555
O29_4 C5_8 1_555 1_555
O30_3 C1_8 1_555 1_555
O31_3 C1_8 1_555 1_555
C7_8 C8_8 1_555 1_555
C9_8 N2_8 1_555 1_555
C11_8 C12_8 1_555 1_555
N3_8 N4_8 1_555 1_555
O5_5 Cu13_2 1_555 1_555
C14_5 C15_5 1_555 1_555
C15_5 C16_5 1_555 1_555
C16_5 H7_5 1_555 1_555
C17_5 C16_5 1_555 1_555
C18_5 C17_5 1_555 1_555
H8_5 C18_5 1_555 1_555
C19_5 H9_5 1_555 1_555
C20_5 H10_5 1_555 1_555
C21_5 C20_5 1_555 1_555
C22_5 C21_5 1_555 1_555
H11_5 C22_5 1_555 1_555
C23_5 C19_5 1_555 1_555
C24_5 C21_5 1_555 1_555
C25_5 C24_5 1_555 1_555
H12_5 C25_5 1_555 1_555
C26_5 C27_5 1_555 1_555
C27_5 C34_5 1_555 1_555
C28_5 C33_5 1_555 1_555
C29_5 C15_5 1_555 1_555
H13_5 C29_5 1_555 1_555
C30_5 C18_5 1_555 1_555
C31_5 H14_5 1_555 1_555
C32_5 C23_5 1_555 1_555
C33_5 C35_5 1_555 1_555
C34_5 H15_5 1_555 1_555
C35_5 C27_5 1_555 1_555
H16_5 C35_5 1_555 1_555
C36_5 C30_5 1_555 1_555
C37_5 C33_5 1_555 1_555
H17_5 C37_5 1_555 1_555
C38_5 C34_5 1_555 1_555
N5_5 Cu7_2 1_555 1_555
N6_5 C17_5 1_555 1_555
N7_5 N6_5 1_555 1_555
N8_5 C32_5 1_555 1_555
N9_5 C25_5 1_555 1_555
N10_5 N9_5 1_555 1_555
N11_5 C24_5 1_555 1_555
O32_3 C26_5 1_555 1_555
O34_3 C26_5 1_555 1_555
O36_4 C36_5 1_555 1_555
O38_4 C36_5 1_555 1_555
O40_2 C14_5 1_555 1_555
O41_2 C14_5 1_555 1_555
O43_4 C28_5 1_555 1_555
O45_4 C28_5 1_555 1_555
O19_5 Cu14_2 1_555 1_555
C51_5 C52_5 1_555 1_555
C52_5 C53_5 1_555 1_555
C53_5 H23_5 1_555 1_555
C54_5 C53_5 1_555 1_555
C55_5 C54_5 1_555 1_555
H24_5 C55_5 1_555 1_555
C56_5 H25_5 1_555 1_555
C57_5 H26_5 1_555 1_555
C58_5 C57_5 1_555 1_555
C59_5 C58_5 1_555 1_555
H27_5 C59_5 1_555 1_555
C60_5 C56_5 1_555 1_555
C61_5 C58_5 1_555 1_555
C62_5 C61_5 1_555 1_555
H28_5 C62_5 1_555 1_555
C63_5 C64_5 1_555 1_555
C64_5 C71_5 1_555 1_555
C65_5 C70_5 1_555 1_555
C66_5 C52_5 1_555 1_555
H29_5 C66_5 1_555 1_555
C67_5 C55_5 1_555 1_555
C68_5 H30_5 1_555 1_555
C69_5 C60_5 1_555 1_555
C70_5 C72_5 1_555 1_555
C71_5 H31_5 1_555 1_555
C72_5 C64_5 1_555 1_555
H32_5 C72_5 1_555 1_555
C73_5 C67_5 1_555 1_555
C74_5 C70_5 1_555 1_555
H33_5 C74_5 1_555 1_555
C75_5 C71_5 1_555 1_555
N15_5 Cu8_2 1_555 1_555
N16_5 C54_5 1_555 1_555
N17_5 N16_5 1_555 1_555
N18_5 C69_5 1_555 1_555
N19_5 C62_5 1_555 1_555
N20_5 N19_5 1_555 1_555
N21_5 C61_5 1_555 1_555
O33_4 C63_5 1_555 1_555
O35_4 C63_5 1_555 1_555
O37_3 C73_5 1_555 1_555
O39_3 C73_5 1_555 1_555
O40_4 C51_5 1_555 1_555
O41_4 C51_5 1_555 1_555
O43 C65_5 1_555 1_555
O45 C65_5 1_555 1_555
C19_5 N5_5 1_555 1_555
C20_5 N5_5 1_555 1_555
C22_5 C23_5 1_555 1_555
C29_5 C30_5 1_555 1_555
C31_5 C32_5 1_555 1_555
C31_5 N6_5 1_555 1_555
C37_5 C38_5 1_555 1_555
C38_5 N9_5 1_555 1_555
N7_5 N8_5 1_555 1_555
N10_5 N11_5 1_555 1_555
C56_5 N15_5 1_555 1_555
C57_5 N15_5 1_555 1_555
C59_5 C60_5 1_555 1_555
C66_5 C67_5 1_555 1_555
C68_5 C69_5 1_555 1_555
C68_5 N16_5 1_555 1_555
C74_5 C75_5 1_555 1_555
C75_5 N19_5 1_555 1_555
N17_5 N18_5 1_555 1_555
N20_5 N21_5 1_555 1_555
O5_6 Cu13 1_555 1_555
C14_6 C15_6 1_555 1_555
C15_6 C16_6 1_555 1_555
C16_6 H7_6 1_555 1_555
C17_6 C16_6 1_555 1_555
C18_6 C17_6 1_555 1_555
H8_6 C18_6 1_555 1_555
C19_6 H9_6 1_555 1_555
C20_6 H10_6 1_555 1_555
C21_6 C20_6 1_555 1_555
C22_6 C21_6 1_555 1_555
H11_6 C22_6 1_555 1_555
C23_6 C19_6 1_555 1_555
C24_6 C21_6 1_555 1_555
C25_6 C24_6 1_555 1_555
H12_6 C25_6 1_555 1_555
C26_6 C27_6 1_555 1_555
C27_6 C34_6 1_555 1_555
C28_6 C33_6 1_555 1_555
C29_6 C15_6 1_555 1_555
H13_6 C29_6 1_555 1_555
C30_6 C18_6 1_555 1_555
C31_6 H14_6 1_555 1_555
C32_6 C23_6 1_555 1_555
C33_6 C35_6 1_555 1_555
C34_6 H15_6 1_555 1_555
C35_6 C27_6 1_555 1_555
H16_6 C35_6 1_555 1_555
C36_6 C30_6 1_555 1_555
C37_6 C33_6 1_555 1_555
H17_6 C37_6 1_555 1_555
C38_6 C34_6 1_555 1_555
N5_6 Cu7 1_555 1_555
N6_6 C17_6 1_555 1_555
N7_6 N6_6 1_555 1_555
N8_6 C32_6 1_555 1_555
N9_6 C25_6 1_555 1_555
N10_6 N9_6 1_555 1_555
N11_6 C24_6 1_555 1_555
O32_4 C26_6 1_555 1_555
O34_4 C26_6 1_555 1_555
O36_3 C36_6 1_555 1_555
O38_3 C36_6 1_555 1_555
O40 C14_6 1_555 1_555
O41 C14_6 1_555 1_555
O43_3 C28_6 1_555 1_555
O45_3 C28_6 1_555 1_555
O19_6 Cu14 1_555 1_555
C51_6 C52_6 1_555 1_555
C52_6 C53_6 1_555 1_555
C53_6 H23_6 1_555 1_555
C54_6 C53_6 1_555 1_555
C55_6 C54_6 1_555 1_555
H24_6 C55_6 1_555 1_555
C56_6 H25_6 1_555 1_555
C57_6 H26_6 1_555 1_555
C58_6 C57_6 1_555 1_555
C59_6 C58_6 1_555 1_555
H27_6 C59_6 1_555 1_555
C60_6 C56_6 1_555 1_555
C61_6 C58_6 1_555 1_555
C62_6 C61_6 1_555 1_555
H28_6 C62_6 1_555 1_555
C63_6 C64_6 1_555 1_555
C64_6 C71_6 1_555 1_555
C65_6 C70_6 1_555 1_555
C66_6 C52_6 1_555 1_555
H29_6 C66_6 1_555 1_555
C67_6 C55_6 1_555 1_555
C68_6 H30_6 1_555 1_555
C69_6 C60_6 1_555 1_555
C70_6 C72_6 1_555 1_555
C71_6 H31_6 1_555 1_555
C72_6 C64_6 1_555 1_555
H32_6 C72_6 1_555 1_555
C73_6 C67_6 1_555 1_555
C74_6 C70_6 1_555 1_555
H33_6 C74_6 1_555 1_555
C75_6 C71_6 1_555 1_555
N15_6 Cu8 1_555 1_555
N16_6 C54_6 1_555 1_555
N17_6 N16_6 1_555 1_555
N18_6 C69_6 1_555 1_555
N19_6 C62_6 1_555 1_555
N20_6 N19_6 1_555 1_555
N21_6 C61_6 1_555 1_555
O33_3 C63_6 1_555 1_555
O35_3 C63_6 1_555 1_555
O37_4 C73_6 1_555 1_555
O39_4 C73_6 1_555 1_555
O40_3 C51_6 1_555 1_555
O41_3 C51_6 1_555 1_555
O43_2 C65_6 1_555 1_555
O45_2 C65_6 1_555 1_555
C19_6 N5_6 1_555 1_555
C20_6 N5_6 1_555 1_555
C22_6 C23_6 1_555 1_555
C29_6 C30_6 1_555 1_555
C31_6 C32_6 1_555 1_555
C31_6 N6_6 1_555 1_555
C37_6 C38_6 1_555 1_555
C38_6 N9_6 1_555 1_555
N7_6 N8_6 1_555 1_555
N10_6 N11_6 1_555 1_555
C56_6 N15_6 1_555 1_555
C57_6 N15_6 1_555 1_555
C59_6 C60_6 1_555 1_555
C66_6 C67_6 1_555 1_555
C68_6 C69_6 1_555 1_555
C68_6 N16_6 1_555 1_555
C74_6 C75_6 1_555 1_555
C75_6 N19_6 1_555 1_555
N17_6 N18_6 1_555 1_555
N20_6 N21_6 1_555 1_555
C20_7 H10_7 1_555 1_555
C21_7 C20_7 1_555 1_555
C22_7 C21_7 1_555 1_555
H11_7 C22_7 1_555 1_555
C24_7 C21_7 1_555 1_555
C25_7 C24_7 1_555 1_555
H12_7 C25_7 1_555 1_555
C26_7 C27_7 1_555 1_555
C27_7 C34_7 1_555 1_555
C28_7 C33_7 1_555 1_555
C33_7 C35_7 1_555 1_555
C34_7 H15_7 1_555 1_555
C35_7 C27_7 1_555 1_555
H16_7 C35_7 1_555 1_555
C37_7 C33_7 1_555 1_555
H17_7 C37_7 1_555 1_555
C38_7 C34_7 1_555 1_555
N9_7 C25_7 1_555 1_555
N10_7 N9_7 1_555 1_555
N11_7 C24_7 1_555 1_555
O32 C26_7 1_555 1_555
O34 C26_7 1_555 1_555
O43_8 C28_7 1_555 1_555
O45_8 C28_7 1_555 1_555
O19_7 Cu17 1_555 1_555
C51_7 C52_7 1_555 1_555
C52_7 C53_7 1_555 1_555
C53_7 H23_7 1_555 1_555
C54_7 C53_7 1_555 1_555
C55_7 C54_7 1_555 1_555
H24_7 C55_7 1_555 1_555
C56_7 H25_7 1_555 1_555
C60_7 C56_7 1_555 1_555
C66_7 C52_7 1_555 1_555
H29_7 C66_7 1_555 1_555
C67_7 C55_7 1_555 1_555
C68_7 H30_7 1_555 1_555
C69_7 C60_7 1_555 1_555
C73_7 C67_7 1_555 1_555
N15_7 Cu11 1_555 1_555
N16_7 C54_7 1_555 1_555
N17_7 N16_7 1_555 1_555
N18_7 C69_7 1_555 1_555
O37 C73_7 1_555 1_555
O39 C73_7 1_555 1_555
O40_8 C51_7 1_555 1_555
O41_8 C51_7 1_555 1_555
C37_7 C38_7 1_555 1_555
C38_7 N9_7 1_555 1_555
N10_7 N11_7 1_555 1_555
C56_7 N15_7 1_555 1_555
C66_7 C67_7 1_555 1_555
C68_7 C69_7 1_555 1_555
C68_7 N16_7 1_555 1_555
N17_7 N18_7 1_555 1_555
O5_7 Cu15 1_555 1_555
C14_7 C15_7 1_555 1_555
C15_7 C16_7 1_555 1_555
C16_7 H7_7 1_555 1_555
C17_7 C16_7 1_555 1_555
C18_7 C17_7 1_555 1_555
H8_7 C18_7 1_555 1_555
C19_7 H9_7 1_555 1_555
C23_7 C19_7 1_555 1_555
C29_7 C15_7 1_555 1_555
H13_7 C29_7 1_555 1_555
C30_7 C18_7 1_555 1_555
C31_7 H14_7 1_555 1_555
C32_7 C23_7 1_555 1_555
C36_7 C30_7 1_555 1_555
N5_7 Cu9 1_555 1_555
N6_7 C17_7 1_555 1_555
N7_7 N6_7 1_555 1_555
N8_7 C32_7 1_555 1_555
O36_2 C36_7 1_555 1_555
O38_2 C36_7 1_555 1_555
O40_6 C14_7 1_555 1_555
O41_6 C14_7 1_555 1_555
C19_7 N5_7 1_555 1_555
C29_7 C30_7 1_555 1_555
C31_7 C32_7 1_555 1_555
C31_7 N6_7 1_555 1_555
N7_7 N8_7 1_555 1_555
O14_8 H36_5 1_555 1_555
O14_8 H37_5 1_555 1_555
C57_7 H26_7 1_555 1_555
C58_7 C57_7 1_555 1_555
C59_7 C58_7 1_555 1_555
H27_7 C59_7 1_555 1_555
C61_7 C58_7 1_555 1_555
C62_7 C61_7 1_555 1_555
H28_7 C62_7 1_555 1_555
C63_7 C64_7 1_555 1_555
C64_7 C71_7 1_555 1_555
C65_7 C70_7 1_555 1_555
C70_7 C72_7 1_555 1_555
C71_7 H31_7 1_555 1_555
C72_7 C64_7 1_555 1_555
H32_7 C72_7 1_555 1_555
C74_7 C70_7 1_555 1_555
H33_7 C74_7 1_555 1_555
C75_7 C71_7 1_555 1_555
N19_7 C62_7 1_555 1_555
N20_7 N19_7 1_555 1_555
N21_7 C61_7 1_555 1_555
O33_2 C63_7 1_555 1_555
O35_2 C63_7 1_555 1_555
O43_5 C65_7 1_555 1_555
O45_5 C65_7 1_555 1_555
C74_7 C75_7 1_555 1_555
C75_7 N19_7 1_555 1_555
N20_7 N21_7 1_555 1_555
C57_8 H26_8 1_555 1_555
C58_8 C57_8 1_555 1_555
C59_8 C58_8 1_555 1_555
H27_8 C59_8 1_555 1_555
C61_8 C58_8 1_555 1_555
C62_8 C61_8 1_555 1_555
H28_8 C62_8 1_555 1_555
C63_8 C64_8 1_555 1_555
C64_8 C71_8 1_555 1_555
C65_8 C70_8 1_555 1_555
C70_8 C72_8 1_555 1_555
C71_8 H31_8 1_555 1_555
C72_8 C64_8 1_555 1_555
H32_8 C72_8 1_555 1_555
C74_8 C70_8 1_555 1_555
H33_8 C74_8 1_555 1_555
C75_8 C71_8 1_555 1_555
N19_8 C62_8 1_555 1_555
N20_8 N19_8 1_555 1_555
N21_8 C61_8 1_555 1_555
O33 C63_8 1_555 1_555
O35 C63_8 1_555 1_555
O43_6 C65_8 1_555 1_555
O45_6 C65_8 1_555 1_555
C74_8 C75_8 1_555 1_555
C75_8 N19_8 1_555 1_555
N20_8 N21_8 1_555 1_555
O5_8 Cu16 1_555 1_555
C14_8 C15_8 1_555 1_555
C15_8 C16_8 1_555 1_555
C16_8 H7_8 1_555 1_555
C17_8 C16_8 1_555 1_555
C18_8 C17_8 1_555 1_555
H8_8 C18_8 1_555 1_555
C19_8 H9_8 1_555 1_555
C23_8 C19_8 1_555 1_555
C29_8 C15_8 1_555 1_555
H13_8 C29_8 1_555 1_555
C30_8 C18_8 1_555 1_555
C31_8 H14_8 1_555 1_555
C32_8 C23_8 1_555 1_555
C36_8 C30_8 1_555 1_555
N5_8 Cu10 1_555 1_555
N6_8 C17_8 1_555 1_555
N7_8 N6_8 1_555 1_555
N8_8 C32_8 1_555 1_555
O36 C36_8 1_555 1_555
O38 C36_8 1_555 1_555
O40_5 C14_8 1_555 1_555
O41_5 C14_8 1_555 1_555
C19_8 N5_8 1_555 1_555
C29_8 C30_8 1_555 1_555
C31_8 C32_8 1_555 1_555
C31_8 N6_8 1_555 1_555
N7_8 N8_8 1_555 1_555
O14_6 H36_6 1_555 1_555
O14_6 H37_6 1_555 1_555
C20_8 H10_8 1_555 1_555
C21_8 C20_8 1_555 1_555
C22_8 C21_8 1_555 1_555
H11_8 C22_8 1_555 1_555
C24_8 C21_8 1_555 1_555
C25_8 C24_8 1_555 1_555
H12_8 C25_8 1_555 1_555
C26_8 C27_8 1_555 1_555
C27_8 C34_8 1_555 1_555
C28_8 C33_8 1_555 1_555
C33_8 C35_8 1_555 1_555
C34_8 H15_8 1_555 1_555
C35_8 C27_8 1_555 1_555
H16_8 C35_8 1_555 1_555
C37_8 C33_8 1_555 1_555
H17_8 C37_8 1_555 1_555
C38_8 C34_8 1_555 1_555
N9_8 C25_8 1_555 1_555
N10_8 N9_8 1_555 1_555
N11_8 C24_8 1_555 1_555
O32_2 C26_8 1_555 1_555
O34_2 C26_8 1_555 1_555
O43_7 C28_8 1_555 1_555
O45_7 C28_8 1_555 1_555
O19_8 Cu18 1_555 1_555
C51_8 C52_8 1_555 1_555
C52_8 C53_8 1_555 1_555
C53_8 H23_8 1_555 1_555
C54_8 C53_8 1_555 1_555
C55_8 C54_8 1_555 1_555
H24_8 C55_8 1_555 1_555
C56_8 H25_8 1_555 1_555
C60_8 C56_8 1_555 1_555
C66_8 C52_8 1_555 1_555
H29_8 C66_8 1_555 1_555
C67_8 C55_8 1_555 1_555
C68_8 H30_8 1_555 1_555
C69_8 C60_8 1_555 1_555
C73_8 C67_8 1_555 1_555
N15_8 Cu12 1_555 1_555
N16_8 C54_8 1_555 1_555
N17_8 N16_8 1_555 1_555
N18_8 C69_8 1_555 1_555
O37_2 C73_8 1_555 1_555
O39_2 C73_8 1_555 1_555
O40_7 C51_8 1_555 1_555
O41_7 C51_8 1_555 1_555
C37_8 C38_8 1_555 1_555
C38_8 N9_8 1_555 1_555
N10_8 N11_8 1_555 1_555
C56_8 N15_8 1_555 1_555
C66_8 C67_8 1_555 1_555
C68_8 C69_8 1_555 1_555
C68_8 N16_8 1_555 1_555
N17_8 N18_8 1_555 1_555
O14_12 H36_7 1_555 1_555
O14_12 H37_7 1_555 1_555
O14_10 H36_8 1_555 1_555
O14_10 H37_8 1_555 1_555

#END
