
###############################################################################
#
# This file contains modified crystal structure data generated from the
# MOF subset of the Cambridge Structural Database (CSD) v543 
# hosted by the Cambridge Crystallographic Data Centre (CCDC).
#
# This work is licensed under the Creative Commons
# Attribution-NonCommercial-ShareAlike 4.0 International License.
# To view a copy of this license, visit
# http://creativecommons.org/licenses/by-nc-sa/4.0/
# or send a letter to
# Creative Commons, PO Box 1866, Mountain View, CA 94042, USA.
#
# CIF created using the CSD Python API on 29 September 2022
# The structure has been converted into the P1 space group
# The structure has a 3D framework
# The original CSD entry DAKZUN is in the orthorhombic crystal system
# The framework has been calculated to contain at least 10.0% void space
# The void calculation uses a probe of radius 1.32A, grid spacing 0.4
# H atom positions have been added when not included in the experimental data
#
###############################################################################

data_DAKZUN
_chemical_formula_moiety         '(C110 H68 O28 Tb4)n'
_symmetry_cell_setting           triclinic
_symmetry_space_group_name_H-M   'P 1'
_symmetry_Int_Tables_number      1
_space_group_name_Hall           'P 1'
loop_
_symmetry_equiv_pos_site_id
_symmetry_equiv_pos_as_xyz
1 x,y,z
_cell_length_a                   7.2562(3)
_cell_length_b                   19.3586(8)
_cell_length_c                   25.9395(13)
_cell_angle_alpha                90
_cell_angle_beta                 90
_cell_angle_gamma                90
_cell_volume                     3643.72
loop_
_atom_site_label
_atom_site_type_symbol
_atom_site_fract_x
_atom_site_fract_y
_atom_site_fract_z
Tb6 Tb 0.12977(5) 0.807431(15) 0.73851(3)
O11 O 0.0040(7) 0.6721(2) 0.7446(4)
O1 O 0.2195(7) 0.1835(3) 0.2816(2)
O2 O 0.4960(7) 0.1721(2) 0.2446(4)
C1 C 0.3628(11) 0.1496(4) 0.2720(3)
C2 C 0.3787(10) 0.0773(4) 0.2904(3)
C3 C 0.4765(11) 0.0289(4) 0.2630(3)
H3 H 0.5278 0.0412 0.2306
C7 C 0.3024(12) 0.0591(4) 0.3378(3)
H6 H 0.2267 0.0908 0.3560
Tb3 Tb 0.37023(5) 0.307431(15) 0.23851(3)
Tb5 Tb 0.87023(5) 0.192569(15) 0.23851(3)
Tb1 Tb 0.62977(5) 0.692569(15) 0.73851(3)
O3 O 0.8316(7) 0.7668(3) 0.6667(2)
O4 O 0.9531(9) 0.8708(3) 0.6538(2)
O5 O 0.4189(8) 0.4502(3) 0.2498(3)
O6 O 0.6857(15) 0.6686(6) 0.8414(4)
H1 H 0.7340 0.7051 0.8690
H2 H 0.6624 0.6206 0.8604
O7 O 0.5716(10) 0.4986(3) 0.1854(3)
C4 C 0.5021(11) 0.9621(4) 0.2817(3)
H4 H 0.5619 0.9282 0.2611
C5 C 0.4400(10) 0.9457(4) 0.3303(3)
C6 C 0.3380(11) 0.9940(4) 0.3582(3)
H5 H 0.2925 0.9824 0.3915
C8 C 0.4871(10) 0.8768(4) 0.3536(3)
C9 C 0.4915(10) 0.8171(4) 0.3239(3)
C10 C 0.8578(11) 0.8189(4) 0.6394(3)
C11 C 0.7881(10) 0.8178(4) 0.5851(3)
C12 C 0.8200(12) 0.8747(4) 0.5512(3)
H7 H 0.8849 0.9142 0.5631
C13 C 0.7573(12) 0.8722(4) 0.5018(3)
H8 H 0.7755 0.9109 0.4800
C14 C 0.6655(10) 0.8132(4) 0.4822(3)
C15 C 0.6429(10) 0.7573(4) 0.5156(3)
H9 H 0.5841 0.7166 0.5033
C16 C 0.7031(10) 0.7592(4) 0.5658(3)
H10 H 0.6864 0.7201 0.5874
C17 C 0.5967(10) 0.8124(4) 0.4286(3)
C18 C 0.5380(10) 0.8754(4) 0.4062(3)
C19 C 0.5951(9) 0.7530(4) 0.3989(3)
C20 C 0.5416(10) 0.7543(4) 0.3468(3)
C21 C 0.5279(10) 0.6898(3) 0.3163(3)
C22 C 0.5727(13) 0.6882(4) 0.2642(3)
H11 H 0.6106 0.7297 0.2478
C23 C 0.5638(11) 0.6274(4) 0.2353(5)
H12 H 0.5955 0.6273 0.1997
C24 C 0.5074(11) 0.5669(4) 0.2597(3)
C25 C 0.4545(11) 0.5683(4) 0.3114(3)
H13 H 0.4082 0.5277 0.3273
C26 C 0.4694(10) 0.6287(4) 0.3394(3)
H14 H 0.4393 0.6285 0.3750
C27 C 0.4950(11) 0.5000(4) 0.2321(5)
O8 O 0.7805(7) 0.8165(3) 0.7816(2)
O9 O 0.2805(7) 0.6835(3) 0.7816(2)
O10 O 0.5040(7) 0.8279(2) 0.7446(4)
O12 O 0.4531(9) 0.6292(3) 0.6538(2)
O13 O 0.5811(8) 0.5498(3) 0.7498(3)
H15 H 0.532131 0.922333 0.429287
H16 H 0.456265 0.819102 0.283118
H17 H 0.636197 0.704158 0.41627
O3_2 O 0.1684(7) 0.2332(3) 0.1667(2)
O4_2 O 0.0469(9) 0.1292(3) 0.1538(2)
O6_2 O 0.3143(15) 0.3314(6) 0.3414(4)
H1_2 H 0.2660 0.2949 0.3690
H2_2 H 0.3376 0.3794 0.3604
C10_2 C 0.1422(11) 0.1811(4) 0.1394(3)
C11_2 C 0.2119(10) 0.1822(4) 0.0851(3)
C12_2 C 0.1800(12) 0.1253(4) 0.0512(3)
H7_2 H 0.1151 0.0858 0.0631
C13_2 C 0.2427(12) 0.1278(4) 0.0018(3)
C15_2 C 0.3571(10) 0.2427(4) 0.0156(3)
H9_2 H 0.4159 0.2834 0.0033
C16_2 C 0.2969(10) 0.2408(4) 0.0658(3)
H10_2 H 0.3136 0.2799 0.0874
O9_2 O 0.7195(7) 0.3165(3) 0.2816(2)
O12_2 O 0.5469(9) 0.3708(3) 0.1538(2)
O7_2 O 0.4284(10) 0.5014(3) 0.6854(3)
C4_2 C 0.4979(11) 0.0379(4) 0.7817(3)
H4_2 H 0.4381 0.0718 0.7611
C5_2 C 0.5600(10) 0.0543(4) 0.8303(3)
C6_2 C 0.6620(11) 0.0060(4) 0.8582(3)
H5_2 H 0.7075 0.0176 0.8915
C8_2 C 0.5129(10) 0.1232(4) 0.8536(3)
C9_2 C 0.5085(10) 0.1829(4) 0.8239(3)
H8_2 H 0.2245 0.0891 0.9800
C14_2 C 0.3345(10) 0.1868(4) 0.9822(3)
C17_2 C 0.4033(10) 0.1876(4) 0.9286(3)
C18_2 C 0.4620(10) 0.1246(4) 0.9062(3)
C19_2 C 0.4049(9) 0.2470(4) 0.8989(3)
C20_2 C 0.4584(10) 0.2457(4) 0.8468(3)
C21_2 C 0.4721(10) 0.3102(3) 0.8163(3)
C22_2 C 0.4273(13) 0.3118(4) 0.7642(3)
H11_2 H 0.3894 0.2703 0.7478
C23_2 C 0.4362(11) 0.3726(4) 0.7353(5)
H12_2 H 0.4045 0.3727 0.6997
C24_2 C 0.4926(11) 0.4331(4) 0.7597(3)
C25_2 C 0.5455(11) 0.4317(4) 0.8114(3)
H13_2 H 0.5918 0.4723 0.8273
C26_2 C 0.5306(10) 0.3713(4) 0.8394(3)
H14_2 H 0.5607 0.3715 0.8750
C27_2 C 0.5050(11) 0.5000(4) 0.7321(5)
H15_2 H 0.467869 0.0776672 0.929287
H16_2 H 0.543735 0.180898 0.783118
H17_2 H 0.363803 0.295842 0.91627
C1_2 C 0.6372(11) 0.8504(4) 0.7720(3)
C2_2 C 0.6213(10) 0.9227(4) 0.7904(3)
C3_2 C 0.5235(11) 0.9711(4) 0.7630(3)
H3_2 H 0.4722 0.9588 0.7306
C7_2 C 0.6976(12) 0.9409(4) 0.8378(3)
H6_2 H 0.7733 0.9092 0.8560
O11_2 O 0.9960(7) 0.3279(2) 0.2446(4)
C1_3 C 0.1372(11) 0.6496(4) 0.7720(3)
C2_3 C 0.1213(10) 0.5773(4) 0.7904(3)
C3_3 C 0.0235(11) 0.5289(4) 0.7630(3)
C5_3 C 0.0600(10) 0.4457(4) 0.8303(3)
C6_3 C 0.1620(11) 0.4940(4) 0.8582(3)
H5_3 H 0.2075 0.4824 0.8915
C7_3 C 0.1976(12) 0.5591(4) 0.8378(3)
H6_3 H 0.2733 0.5908 0.8560
C8_3 C 0.0129(10) 0.3768(4) 0.8536(3)
C9_3 C 0.0085(10) 0.3171(4) 0.8239(3)
C25_3 C 0.0455(11) 0.0683(4) 0.8114(3)
H13_3 H 0.0918 0.0277 0.8273
C26_3 C 0.0306(10) 0.1287(4) 0.8394(3)
H14_3 H 0.0607 0.1285 0.8750
C27_3 C 0.0050(11) -0.0000(4) 0.7321(5)
H16_3 H 0.0437348 0.319102 0.783118
O5_2 O 0.0811(8) 0.9502(3) 0.7498(3)
C27_4 C 0.0050(11) 1.0000(4) 0.7321(5)
O3_3 O 0.6684(7) 0.2668(3) 0.1667(2)
O6_3 O 0.8143(15) 0.1686(6) 0.3414(4)
H1_3 H 0.7660 0.2051 0.3690
H2_3 H 0.8376 0.1206 0.3604
C10_3 C 0.6422(11) 0.3189(4) 0.1394(3)
C11_3 C 0.7119(10) 0.3178(4) 0.0851(3)
C12_3 C 0.6800(12) 0.3747(4) 0.0512(3)
H7_3 H 0.6151 0.4142 0.0631
C13_3 C 0.7427(12) 0.3722(4) 0.0018(3)
C15_3 C 0.8571(10) 0.2573(4) 0.0156(3)
H9_3 H 0.9159 0.2166 0.0033
C16_3 C 0.7969(10) 0.2592(4) 0.0658(3)
H10_3 H 0.8136 0.2201 0.0874
O13_2 O 0.9189(8) 0.0498(3) 0.2498(3)
H3_3 H 0.9722 0.5412 0.7306
C4_3 C 0.9979(11) 0.4621(4) 0.7817(3)
H4_3 H 0.9381 0.4282 0.7611
H8_3 H 0.7245 0.4109 0.9800
C14_3 C 0.8345(10) 0.3132(4) 0.9822(3)
C17_3 C 0.9033(10) 0.3124(4) 0.9286(3)
C18_3 C 0.9620(10) 0.3754(4) 0.9062(3)
C19_3 C 0.9049(9) 0.2530(4) 0.8989(3)
C20_3 C 0.9584(10) 0.2543(4) 0.8468(3)
C21_3 C 0.9721(10) 0.1898(3) 0.8163(3)
C22_3 C 0.9273(13) 0.1882(4) 0.7642(3)
H11_3 H 0.8894 0.2297 0.7478
C23_3 C 0.9362(11) 0.1274(4) 0.7353(5)
H12_3 H 0.9045 0.1273 0.6997
C24_3 C 0.9926(11) 0.0669(4) 0.7597(3)
H15_3 H 0.967869 0.422333 0.929287
H17_3 H 0.863803 0.204158 0.91627
O3_4 O 0.3316(7) 0.7332(3) 0.6667(2)
O6_4 O 0.1857(15) 0.8314(6) 0.8414(4)
H1_4 H 0.2340 0.7949 0.8690
H2_4 H 0.1624 0.8794 0.8604
H3_4 H 0.0278 0.4588 0.2306
C4_4 C 0.0021(11) 0.5379(4) 0.2817(3)
H4_4 H 0.0619 0.5718 0.2611
C10_4 C 0.3578(11) 0.6811(4) 0.6394(3)
C11_4 C 0.2881(10) 0.6822(4) 0.5851(3)
C12_4 C 0.3200(12) 0.6253(4) 0.5512(3)
H7_4 H 0.3849 0.5858 0.5631
C13_4 C 0.2573(12) 0.6278(4) 0.5018(3)
H8_4 H 0.2755 0.5891 0.4800
C14_4 C 0.1655(10) 0.6868(4) 0.4822(3)
C15_4 C 0.1429(10) 0.7427(4) 0.5156(3)
H9_4 H 0.0841 0.7834 0.5033
C16_4 C 0.2031(10) 0.7408(4) 0.5658(3)
H10_4 H 0.1864 0.7799 0.5874
C17_4 C 0.0967(10) 0.6876(4) 0.4286(3)
C18_4 C 0.0380(10) 0.6246(4) 0.4062(3)
C19_4 C 0.0951(9) 0.7470(4) 0.3989(3)
C20_4 C 0.0416(10) 0.7457(4) 0.3468(3)
C21_4 C 0.0279(10) 0.8102(3) 0.3163(3)
C22_4 C 0.0727(13) 0.8118(4) 0.2642(3)
H11_4 H 0.1106 0.7703 0.2478
C23_4 C 0.0638(11) 0.8726(4) 0.2353(5)
H12_4 H 0.0955 0.8727 0.1997
C24_4 C 0.0074(11) 0.9331(4) 0.2597(3)
H15_4 H 0.0321312 0.577667 0.429287
H17_4 H 0.136197 0.795842 0.41627
C27_5 C 0.9950(11) -0.0000(4) 0.2321(5)
C1_4 C 0.8628(11) 0.3504(4) 0.2720(3)
C2_4 C 0.8787(10) 0.4227(4) 0.2904(3)
C3_4 C 0.9765(11) 0.4711(4) 0.2630(3)
C5_4 C 0.9400(10) 0.5543(4) 0.3303(3)
C6_4 C 0.8380(11) 0.5060(4) 0.3582(3)
H5_4 H 0.7925 0.5176 0.3915
C7_4 C 0.8024(12) 0.4409(4) 0.3378(3)
H6_4 H 0.7267 0.4092 0.3560
C8_4 C 0.9871(10) 0.6232(4) 0.3536(3)
C9_4 C 0.9915(10) 0.6829(4) 0.3239(3)
C25_4 C 0.9545(11) 0.9317(4) 0.3114(3)
H13_4 H 0.9082 0.9723 0.3273
C26_4 C 0.9694(10) 0.8713(4) 0.3394(3)
H14_4 H 0.9393 0.8715 0.3750
C27_6 C 0.9950(11) 1.0000(4) 0.2321(5)
H16_4 H 0.956265 0.680898 0.283118
O7_3 O 0.9284(10) 0.9986(3) 0.6854(3)
O7_4 O 0.0716(10) 0.0014(3) 0.1854(3)
loop_
_geom_bond_atom_site_label_1
_geom_bond_atom_site_label_2
_geom_bond_site_symmetry_1
_geom_bond_site_symmetry_2
Tb6 O11 1_555 1_555
O1 C1 1_555 1_555
O2 C1 1_555 1_555
C1 C2 1_555 1_555
C2 C3 1_555 1_555
C3 H3 1_555 1_555
C7 C2 1_555 1_555
H6 C7 1_555 1_555
Tb3 O1 1_555 1_555
Tb5 O2 1_555 1_555
O2 Tb3 1_555 1_555
Tb1 O3 1_555 1_555
O3 C10 1_555 1_555
O4 C10 1_555 1_555
O5 C27 1_555 1_555
O6 Tb1 1_555 1_555
H1 O6 1_555 1_555
H2 O6 1_555 1_555
O7 C27 1_555 1_555
H4 C4 1_555 1_555
C5 C4 1_555 1_555
C6 C5 1_555 1_555
H5 C6 1_555 1_555
C8 C5 1_555 1_555
C9 C8 1_555 1_555
C10 C11 1_555 1_555
C11 C12 1_555 1_555
C12 H7 1_555 1_555
C13 C12 1_555 1_555
H8 C13 1_555 1_555
C14 C13 1_555 1_555
C15 C14 1_555 1_555
H9 C15 1_555 1_555
C16 C11 1_555 1_555
H10 C16 1_555 1_555
C17 C14 1_555 1_555
C18 C8 1_555 1_555
C19 C17 1_555 1_555
C20 C9 1_555 1_555
C21 C20 1_555 1_555
C22 C21 1_555 1_555
H11 C22 1_555 1_555
C23 C22 1_555 1_555
H12 C23 1_555 1_555
C24 C23 1_555 1_555
C25 C24 1_555 1_555
H13 C25 1_555 1_555
C26 C21 1_555 1_555
H14 C26 1_555 1_555
C27 C24 1_555 1_555
Tb3 O5 1_555 1_555
O8 Tb1 1_555 1_555
O9 Tb1 1_555 1_555
O10 Tb1 1_555 1_555
O12 Tb1 1_555 1_555
O13 Tb1 1_555 1_555
C15 C16 1_555 1_555
C17 C18 1_555 1_555
C19 C20 1_555 1_555
C25 C26 1_555 1_555
C18 H15 1_555 1_555
C9 H16 1_555 1_555
C19 H17 1_555 1_555
Tb3 O3_2 1_555 1_555
O3_2 C10_2 1_555 1_555
O4_2 C10_2 1_555 1_555
O6_2 Tb3 1_555 1_555
H1_2 O6_2 1_555 1_555
H2_2 O6_2 1_555 1_555
C10_2 C11_2 1_555 1_555
C11_2 C12_2 1_555 1_555
C12_2 H7_2 1_555 1_555
C13_2 C12_2 1_555 1_555
H9_2 C15_2 1_555 1_555
C16_2 C11_2 1_555 1_555
H10_2 C16_2 1_555 1_555
O9_2 Tb3 1_555 1_555
O12_2 Tb3 1_555 1_555
C15_2 C16_2 1_555 1_555
O13 C27_2 1_555 1_555
O7_2 C27_2 1_555 1_555
H4_2 C4_2 1_555 1_555
C5_2 C4_2 1_555 1_555
C6_2 C5_2 1_555 1_555
H5_2 C6_2 1_555 1_555
C8_2 C5_2 1_555 1_555
C9_2 C8_2 1_555 1_555
C17_2 C14_2 1_555 1_555
C18_2 C8_2 1_555 1_555
C19_2 C17_2 1_555 1_555
C20_2 C9_2 1_555 1_555
C21_2 C20_2 1_555 1_555
C22_2 C21_2 1_555 1_555
H11_2 C22_2 1_555 1_555
C23_2 C22_2 1_555 1_555
H12_2 C23_2 1_555 1_555
C24_2 C23_2 1_555 1_555
C25_2 C24_2 1_555 1_555
H13_2 C25_2 1_555 1_555
C26_2 C21_2 1_555 1_555
H14_2 C26_2 1_555 1_555
C27_2 C24_2 1_555 1_555
C17_2 C18_2 1_555 1_555
C19_2 C20_2 1_555 1_555
C25_2 C26_2 1_555 1_555
C18_2 H15_2 1_555 1_555
C9_2 H16_2 1_555 1_555
C19_2 H17_2 1_555 1_555
O8 C1_2 1_555 1_555
O10 C1_2 1_555 1_555
C1_2 C2_2 1_555 1_555
C2_2 C3_2 1_555 1_555
C3_2 H3_2 1_555 1_555
C7_2 C2_2 1_555 1_555
H6_2 C7_2 1_555 1_555
Tb6 O10 1_555 1_555
Tb5 O11_2 1_555 1_555
O9 C1_3 1_555 1_555
O11 C1_3 1_555 1_555
C1_3 C2_3 1_555 1_555
C2_3 C3_3 1_555 1_555
C6_3 C5_3 1_555 1_555
H5_3 C6_3 1_555 1_555
C7_3 C2_3 1_555 1_555
H6_3 C7_3 1_555 1_555
C8_3 C5_3 1_555 1_555
C9_3 C8_3 1_555 1_555
H13_3 C25_3 1_555 1_555
H14_3 C26_3 1_555 1_555
Tb6 O9 1_555 1_555
C6_3 C7_3 1_555 1_555
C25_3 C26_3 1_555 1_555
C9_3 H16_3 1_555 1_555
O5_2 C27_4 1_555 1_555
Tb6 O5_2 1_555 1_555
Tb5 O3_3 1_555 1_555
O3_3 C10_3 1_555 1_555
O12_2 C10_3 1_555 1_555
O6_3 Tb5 1_555 1_555
H1_3 O6_3 1_555 1_555
H2_3 O6_3 1_555 1_555
C10_3 C11_3 1_555 1_555
C11_3 C12_3 1_555 1_555
C12_3 H7_3 1_555 1_555
C13_3 C12_3 1_555 1_555
H9_3 C15_3 1_555 1_555
C16_3 C11_3 1_555 1_555
H10_3 C16_3 1_555 1_555
O9_2 Tb5 1_555 1_555
O13_2 Tb5 1_555 1_555
C15_3 C16_3 1_555 1_555
H4_3 C4_3 1_555 1_555
C17_3 C14_3 1_555 1_555
C19_3 C17_3 1_555 1_555
C21_3 C20_3 1_555 1_555
C22_3 C21_3 1_555 1_555
H11_3 C22_3 1_555 1_555
C23_3 C22_3 1_555 1_555
H12_3 C23_3 1_555 1_555
C24_3 C23_3 1_555 1_555
C17_3 C18_3 1_555 1_555
C19_3 C20_3 1_555 1_555
C18_3 H15_3 1_555 1_555
C19_3 H17_3 1_555 1_555
Tb6 O3_4 1_555 1_555
O3_4 C10_4 1_555 1_555
O12 C10_4 1_555 1_555
O6_4 Tb6 1_555 1_555
H1_4 O6_4 1_555 1_555
H2_4 O6_4 1_555 1_555
H4_4 C4_4 1_555 1_555
C10_4 C11_4 1_555 1_555
C11_4 C12_4 1_555 1_555
C12_4 H7_4 1_555 1_555
C13_4 C12_4 1_555 1_555
H8_4 C13_4 1_555 1_555
C14_4 C13_4 1_555 1_555
C15_4 C14_4 1_555 1_555
H9_4 C15_4 1_555 1_555
C16_4 C11_4 1_555 1_555
H10_4 C16_4 1_555 1_555
C17_4 C14_4 1_555 1_555
C19_4 C17_4 1_555 1_555
C21_4 C20_4 1_555 1_555
C22_4 C21_4 1_555 1_555
H11_4 C22_4 1_555 1_555
C23_4 C22_4 1_555 1_555
H12_4 C23_4 1_555 1_555
C24_4 C23_4 1_555 1_555
C15_4 C16_4 1_555 1_555
C17_4 C18_4 1_555 1_555
C19_4 C20_4 1_555 1_555
C18_4 H15_4 1_555 1_555
C19_4 H17_4 1_555 1_555
O13_2 C27_5 1_555 1_555
O9_2 C1_4 1_555 1_555
O11_2 C1_4 1_555 1_555
C1_4 C2_4 1_555 1_555
C2_4 C3_4 1_555 1_555
C6_4 C5_4 1_555 1_555
H5_4 C6_4 1_555 1_555
C7_4 C2_4 1_555 1_555
H6_4 C7_4 1_555 1_555
C8_4 C5_4 1_555 1_555
C9_4 C8_4 1_555 1_555
H13_4 C25_4 1_555 1_555
H14_4 C26_4 1_555 1_555
C6_4 C7_4 1_555 1_555
C25_4 C26_4 1_555 1_555
C9_4 H16_4 1_555 1_555

#END
