
###############################################################################
#
# This file contains modified crystal structure data generated from the
# MOF subset of the Cambridge Structural Database (CSD) v543 
# hosted by the Cambridge Crystallographic Data Centre (CCDC).
#
# This work is licensed under the Creative Commons
# Attribution-NonCommercial-ShareAlike 4.0 International License.
# To view a copy of this license, visit
# http://creativecommons.org/licenses/by-nc-sa/4.0/
# or send a letter to
# Creative Commons, PO Box 1866, Mountain View, CA 94042, USA.
#
# CIF created using the CSD Python API on 29 September 2022
# The structure has been converted into the P1 space group
# The structure has a 3D framework
# The original CSD entry DALCEZ is in the orthorhombic crystal system
# The original CSD entry DALCEZ is in a Sohncke space group
# The framework has been calculated to contain at least 10.0% void space
# The void calculation uses a probe of radius 1.32A, grid spacing 0.4
# The framework is charged, counterions have been retained in the structure
#
###############################################################################

data_DALCEZ
_chemical_formula_moiety         '(C160 H160 Cu4 F24 N32 P4)n'
_symmetry_cell_setting           triclinic
_symmetry_space_group_name_H-M   'P 1'
_symmetry_Int_Tables_number      1
_space_group_name_Hall           'P 1'
loop_
_symmetry_equiv_pos_site_id
_symmetry_equiv_pos_as_xyz
1 x,y,z
_cell_length_a                   10.0500(6)
_cell_length_b                   18.3035(10)
_cell_length_c                   24.8967(13)
_cell_angle_alpha                90
_cell_angle_beta                 90
_cell_angle_gamma                90
_cell_volume                     4579.75
loop_
_atom_site_label
_atom_site_type_symbol
_atom_site_fract_x
_atom_site_fract_y
_atom_site_fract_z
C5 C 0.1153(3) 0.0983(2) 0.05759(14)
N7 N 0.1182(3) 0.10141(18) 0.00326(11)
C10 C 0.0149(4) 0.0612(2) 0.14107(14)
N8 N 0.1150(4) 0.0825(2) 0.27252(13)
C20 C 0.0116(4) 0.0645(2) 0.08568(14)
C21 C 0.1188(4) 0.0913(2) 0.16960(14)
H17 H 0.0339 0.3673 0.0175
C29 C 0.2210(5) 0.1242(4) 0.14150(18)
H24 H 0.2927 0.1439 0.1602
C30 C 0.2187(5) 0.1284(3) 0.08716(17)
H25 H 0.2878 0.1519 0.0693
C40 C 0.1197(5) 0.0868(2) 0.22690(16)
N9 N 0.1295(3) 0.6099(2) 0.15544(18)
Cu3 Cu 0.05229(4) 0.06845(2) 0.347189(15)
N1 N 0.7997(3) 0.19967(16) 0.65406(13)
H2 H 0.7943 0.1689 0.6281
C2 C 0.4579(3) 0.19507(17) 0.57233(11)
C3 C 0.5626(3) 0.17604(17) 0.66274(12)
H3 H 0.5782 0.1248 0.6533
N3 N 0.1589(3) 0.11713(15) 0.40376(12)
C4 C 0.2971(3) 0.15471(19) 0.48581(13)
N4 N 0.5370(3) 0.21674(15) 0.61371(10)
H4 H 0.5755 0.2585 0.6105
C7 C 0.2194(4) 0.13406(19) 0.44084(14)
C8 C 0.3213(4) 0.10592(19) 0.52764(15)
H7 H 0.2836 0.0595 0.5269
C9 C 0.9286(4) 0.2995(2) 0.69168(15)
H9 H 0.8580 0.3143 0.7133
C11 C 0.4005(4) 0.12626(18) 0.56986(14)
H11 H 0.4162 0.0932 0.5975
C14 C 0.6866(3) 0.2059(2) 0.68958(12)
H12 H 0.6719 0.2579 0.6966
C17 C 0.4287(4) 0.24527(18) 0.53142(13)
H15 H 0.4633 0.2924 0.5331
C19 C 0.9143(3) 0.23889(19) 0.65867(14)
C25 C 0.4436(4) 0.1800(2) 0.70055(14)
H19 H 0.3665 0.1587 0.6831
H20 H 0.4235 0.2308 0.7082
C28 C 0.3498(4) 0.2254(2) 0.48915(13)
H23 H 0.3310 0.2591 0.4623
C32 C 0.5922(5) 0.1736(4) 0.78080(17)
H28 H 0.5744 0.2245 0.7891
H29 H 0.6109 0.1483 0.8142
C33 C 0.7107(4) 0.1682(3) 0.74377(17)
H30 H 0.7311 0.1171 0.7376
H31 H 0.7873 0.1903 0.7610
C37 C 0.4706(5) 0.1394(3) 0.75349(17)
H37 H 0.3938 0.1431 0.7769
H38 H 0.4872 0.0881 0.7463
N1_2 N 0.7003(3) 0.80033(16) 0.15406(13)
H2_2 H 0.7057 0.8311 0.1281
C3_2 C 0.9374(3) 0.82396(17) 0.16274(12)
H3_2 H 0.9218 0.8752 0.1533
N4_2 N 0.9630(3) 0.78326(15) 0.11371(10)
H4_2 H 0.9245 0.7415 0.1105
C6 C 0.4535(4) 0.6617(2) 0.19282(17)
H5 H 0.4441 0.6223 0.2161
C9_2 C 0.5714(4) 0.7005(2) 0.19168(15)
H9_2 H 0.6420 0.6857 0.2133
C12 C 0.3489(3) 0.6812(2) 0.15937(18)
C14_2 C 0.8134(3) 0.7941(2) 0.18958(12)
H12_2 H 0.8281 0.7421 0.1966
C19_2 C 0.5857(3) 0.76111(19) 0.15867(14)
C26 C 0.3640(4) 0.7414(2) 0.12610(18)
H21 H 0.2949 0.7548 0.1034
C32_2 C 0.9078(5) 0.8264(4) 0.28080(17)
H28_2 H 0.9256 0.7755 0.2891
H29_2 H 0.8891 0.8517 0.3142
C33_2 C 0.7893(4) 0.8318(3) 0.24377(17)
H30_2 H 0.7689 0.8829 0.2376
H31_2 H 0.7127 0.8097 0.2610
C35 C 0.4771(4) 0.7806(2) 0.12623(18)
H34 H 0.4836 0.8215 0.1043
C39 C 0.2281(4) 0.6408(2) 0.1574(2)
C1 C 0.0240(3) 0.06963(19) 0.96546(13)
H8 H 0.1837 0.1250 0.9894
H14 H 0.0036 0.2609 0.9712
C31 C 0.0973(5) 0.0425(3) 0.91601(17)
H26 H 0.1645 0.0073 0.9267
H27 H 0.1417 0.0831 0.8986
C36 C 0.0014(6) 0.0068(3) 0.87661(19)
H35 H 0.0498 0.9920 0.8447
Cu1 Cu 0.94771(4) 0.56845(2) 0.152811(15)
N2 N 0.9458(3) 0.46476(16) 0.12932(12)
N3_2 N 0.8411(3) 0.61713(15) 0.09624(12)
C4_2 C 0.7029(3) 0.65471(19) 0.01419(13)
H6 H 0.7753 0.1269 0.0064
C7_2 C 0.7806(4) 0.63406(19) 0.05916(14)
H10 H 0.9459 0.0383 0.1594
C13 C 0.8706(3) 0.21417(17) 0.02207(13)
C16 C 0.9580(4) 0.26832(18) 0.00328(14)
C18 C 0.9130(4) 0.34301(18) 0.07981(15)
H16 H 0.9404 0.0443 0.0670
C22 C 0.9774(4) 0.3316(2) 0.03112(16)
C23 C 0.9314(4) 0.41065(19) 0.10821(15)
C24 C 0.8278(4) 0.28944(19) 0.09950(15)
H18 H 0.7858 0.2964 0.1324
C27 C 0.8052(4) 0.22726(19) 0.07148(15)
H22 H 0.7459 0.1927 0.0849
C28_2 C 0.6502(4) 0.7254(2) 0.01085(13)
H23_2 H 0.6690 0.7591 0.0377
N10 N 0.8850(4) 0.5825(2) 0.22748(13)
C1_2 C 0.9760(3) 0.56963(19) 0.53454(13)
C5_2 C 0.8847(3) 0.5983(2) 0.44241(14)
N7_2 N 0.8818(3) 0.60141(18) 0.49674(11)
H8_2 H 0.8163 0.6250 0.5106
C10_2 C 0.9851(4) 0.5612(2) 0.35893(14)
H14_2 H 0.9964 0.7609 0.5288
C20_2 C 0.9884(4) 0.5645(2) 0.41432(14)
C21_2 C 0.8812(4) 0.5913(2) 0.33040(14)
H17_2 H 0.9661 0.8673 0.4825
C29_2 C 0.7790(5) 0.6242(4) 0.35850(18)
H24_2 H 0.7073 0.6439 0.3398
C30_2 C 0.7813(5) 0.6284(3) 0.41284(17)
H25_2 H 0.7122 0.6519 0.4307
C31_2 C 0.9027(5) 0.5425(3) 0.58399(17)
H26_2 H 0.8355 0.5073 0.5733
H27_2 H 0.8583 0.5831 0.6014
C36_2 C 0.9986(6) 0.5068(3) 0.62339(19)
H35_2 H 0.9502 0.4920 0.6553
C40_2 C 0.8803(5) 0.5868(2) 0.27310(16)
H1 H 0.9817 0.0276 0.9828
N1_3 N 0.2003(3) 0.69967(16) 0.84594(13)
H2_3 H 0.2057 0.6689 0.8719
C2_2 C 0.5421(3) 0.69507(17) 0.92767(11)
C3_3 C 0.4374(3) 0.67604(17) 0.83726(12)
H3_3 H 0.4218 0.6248 0.8467
N4_3 N 0.4630(3) 0.71674(15) 0.88629(10)
H4_3 H 0.4245 0.7585 0.8895
N6 N 0.8422(3) 0.15194(16) 0.99516(12)
C8_2 C 0.6787(4) 0.60592(19) 0.97236(15)
H7_2 H 0.7164 0.5595 0.9731
C9_3 C 0.0714(4) 0.7995(2) 0.80832(15)
H9_3 H 0.1420 0.8143 0.7867
C11_2 C 0.5995(4) 0.62626(18) 0.93014(14)
H11_2 H 0.5838 0.5932 0.9025
C14_3 C 0.3134(3) 0.7059(2) 0.81042(12)
H12_3 H 0.3281 0.7579 0.8034
C15 C 0.9147(4) 0.1231(2) 0.94865(13)
H13 H 0.9572 0.1644 0.9303
C17_2 C 0.5713(4) 0.74527(18) 0.96858(13)
H15_2 H 0.5367 0.7924 0.9669
C19_3 C 0.0857(3) 0.73889(19) 0.84133(14)
C25_2 C 0.5564(4) 0.6800(2) 0.79945(14)
H19_2 H 0.6335 0.6587 0.8169
H20_2 H 0.5765 0.7308 0.7918
C32_3 C 0.4078(5) 0.6736(4) 0.71920(17)
H28_3 H 0.4256 0.7245 0.7109
H29_3 H 0.3891 0.6483 0.6858
C33_3 C 0.2893(4) 0.6682(3) 0.75623(17)
H30_3 H 0.2689 0.6171 0.7624
H31_3 H 0.2127 0.6903 0.7390
C34 C 0.8193(5) 0.0869(3) 0.90903(18)
H32 H 0.7732 0.0472 0.9269
H33 H 0.7532 0.1223 0.8976
C37_2 C 0.5294(5) 0.6394(3) 0.74651(17)
H37_2 H 0.6062 0.6431 0.7231
H38_2 H 0.5128 0.5881 0.7537
C38 C 0.8901(6) 0.0577(3) 0.86071(18)
H39 H 0.9262 0.0981 0.8401
H40 H 0.8273 0.0318 0.8381
H36 H 0.9639 0.9633 0.8929
N5 N 0.6295(3) 0.8901(2) 0.84456(18)
C6_2 C 0.9535(4) 0.8383(2) 0.80718(17)
H5_2 H 0.9441 0.8777 0.7839
C12_2 C 0.8489(3) 0.8188(2) 0.84063(18)
C26_2 C 0.8640(4) 0.7586(2) 0.87390(18)
H21_2 H 0.7949 0.7452 0.8966
C35_2 C 0.9771(4) 0.7194(2) 0.87377(18)
H34_2 H 0.9836 0.6785 0.8957
C39_2 C 0.7281(4) 0.8592(2) 0.8426(2)
Cu2 Cu 0.44771(4) 0.93155(2) 0.847189(15)
Cu1_2 Cu 0.55229(4) 0.43155(2) 0.652811(15)
C1_3 C 0.4760(3) 0.93037(19) 0.46546(13)
H1_2 H 0.5183 0.9724 0.4828
C2_3 C 0.9579(3) 0.30493(17) 0.42767(11)
N2_2 N 0.5542(3) 0.53524(16) 0.62932(12)
N3_3 N 0.6589(3) 0.38287(15) 0.59624(12)
C4_3 C 0.7971(3) 0.34529(19) 0.51419(13)
C5_3 C 0.3847(3) 0.9017(2) 0.55759(14)
N6_2 N 0.6578(3) 0.84806(16) 0.49516(12)
H6_2 H 0.7247 0.8731 0.5064
C7_3 C 0.7194(4) 0.36594(19) 0.55916(14)
C8_3 C 0.8213(4) 0.39408(19) 0.47236(15)
H7_3 H 0.7836 0.4405 0.4731
N7_3 N 0.3818(3) 0.89859(18) 0.50326(11)
H8_3 H 0.3163 0.8750 0.4894
C10_3 C 0.4851(4) 0.9388(2) 0.64107(14)
H10_2 H 0.5541 0.9617 0.6594
C11_3 C 0.9005(4) 0.37374(18) 0.43014(14)
H11_3 H 0.9162 0.4068 0.4025
N8_2 N 0.3850(4) 0.9175(2) 0.77252(13)
C13_2 C 0.6294(3) 0.78583(17) 0.52207(13)
C15_2 C 0.5853(4) 0.8769(2) 0.44865(13)
H13_2 H 0.5428 0.8356 0.4303
C16_2 C 0.5420(4) 0.73168(18) 0.50328(14)
H14_3 H 0.4964 0.7391 0.4712
C17_3 C 0.9287(4) 0.25473(18) 0.46858(13)
H15_3 H 0.9633 0.2076 0.4669
C18_2 C 0.5870(4) 0.65699(18) 0.57981(15)
C20_3 C 0.4884(4) 0.9355(2) 0.58568(14)
H16_2 H 0.5596 0.9557 0.5670
C21_3 C 0.3812(4) 0.9087(2) 0.66960(14)
C22_2 C 0.5226(4) 0.6684(2) 0.53112(16)
H17_3 H 0.4661 0.6327 0.5175
C23_2 C 0.5686(4) 0.58935(19) 0.60821(15)
C24_2 C 0.6722(4) 0.71056(19) 0.59950(15)
H18_2 H 0.7142 0.7036 0.6324
C25_3 C 0.9436(4) 0.3200(2) 0.29945(14)
H19_3 H 0.8665 0.3413 0.3169
H20_3 H 0.9235 0.2692 0.2918
C27_2 C 0.6948(4) 0.77274(19) 0.57148(15)
H22_2 H 0.7541 0.8073 0.5849
C28_3 C 0.8498(4) 0.2746(2) 0.51085(13)
H23_3 H 0.8310 0.2409 0.5377
C29_3 C 0.2790(5) 0.8758(4) 0.64150(18)
H24_3 H 0.2073 0.8561 0.6602
C30_3 C 0.2813(5) 0.8716(3) 0.58716(17)
H25_3 H 0.2122 0.8481 0.5693
C31_3 C 0.4027(5) 0.9575(3) 0.41601(17)
H26_3 H 0.3355 0.9927 0.4267
H27_3 H 0.3583 0.9169 0.3986
C34_2 C 0.6807(5) 0.9131(3) 0.40903(18)
H32_2 H 0.7268 0.9528 0.4269
H33_2 H 0.7468 0.8777 0.3976
C36_3 C 0.4986(6) 0.9932(3) 0.37661(19)
C37_3 C 0.9706(5) 0.3606(3) 0.24651(17)
H37_3 H 0.8938 0.3569 0.2231
H38_3 H 0.9872 0.4119 0.2537
C38_2 C 0.6099(6) 0.9423(3) 0.36071(18)
H39_2 H 0.5738 0.9019 0.3401
H40_2 H 0.6727 0.9682 0.3381
C40_3 C 0.3803(5) 0.9132(2) 0.72690(16)
N9_2 N 0.3705(3) 0.3901(2) 0.65544(18)
N10_2 N 0.6150(4) 0.4175(2) 0.72748(13)
C6_3 C 0.0465(4) 0.3383(2) 0.69282(17)
H5_3 H 0.0559 0.3777 0.7161
C12_3 C 0.1511(3) 0.3188(2) 0.65937(18)
C26_3 C 0.1360(4) 0.2586(2) 0.62610(18)
H21_3 H 0.2051 0.2452 0.6034
C35_3 C 0.0229(4) 0.2194(2) 0.62623(18)
H34_3 H 0.0164 0.1785 0.6043
C39_3 C 0.2719(4) 0.3592(2) 0.6574(2)
N2_3 N 0.4458(3) 0.03524(16) 0.87068(12)
C5_4 C 0.6153(3) 0.4017(2) 0.94241(14)
H6_3 H 0.2753 0.3731 0.9936
N7_4 N 0.6182(3) 0.39859(18) 0.99674(11)
C10_4 C 0.5149(4) 0.4388(2) 0.85893(14)
H10_3 H 0.4459 0.4617 0.8406
C13_3 C 0.3706(3) 0.28583(17) 0.97793(13)
C16_3 C 0.4580(4) 0.23168(18) 0.99672(14)
C18_3 C 0.4130(4) 0.15699(18) 0.92019(15)
C20_4 C 0.5116(4) 0.4355(2) 0.91432(14)
H16_3 H 0.4404 0.4557 0.9330
C21_4 C 0.6188(4) 0.4087(2) 0.83040(14)
C22_3 C 0.4774(4) 0.1684(2) 0.96888(16)
H17_4 H 0.5339 0.1327 0.9825
C23_3 C 0.4314(4) 0.08935(19) 0.89179(15)
C24_3 C 0.3278(4) 0.21056(19) 0.90050(15)
H18_3 H 0.2858 0.2036 0.8676
C27_3 C 0.3052(4) 0.27274(19) 0.92852(15)
H22_3 H 0.2459 0.3073 0.9151
C29_4 C 0.7210(5) 0.3758(4) 0.85850(18)
H24_4 H 0.7927 0.3561 0.8398
C30_4 C 0.7187(5) 0.3716(3) 0.91284(17)
H25_4 H 0.7878 0.3481 0.9307
C40_4 C 0.6197(5) 0.4132(2) 0.77310(16)
N3_4 N 0.3411(3) 0.88287(15) 0.90376(12)
C4_4 C 0.2029(3) 0.84529(19) 0.98581(13)
C7_4 C 0.2806(4) 0.86594(19) 0.94084(14)
C28_4 C 0.1502(4) 0.7746(2) 0.98915(13)
H23_4 H 0.1690 0.7409 0.9623
N1_4 N 0.2997(3) 0.30033(16) 0.34594(13)
H2_4 H 0.2943 0.3311 0.3719
C3_4 C 0.0626(3) 0.32396(17) 0.33726(12)
H3_4 H 0.0782 0.3752 0.3467
N4_4 N 0.0370(3) 0.28326(15) 0.38629(10)
H4_4 H 0.0755 0.2415 0.3895
N5_2 N 0.8705(3) 0.1099(2) 0.34456(18)
C6_4 C 0.5465(4) 0.1617(2) 0.30718(17)
H5_4 H 0.5559 0.1223 0.2839
C9_4 C 0.4286(4) 0.2005(2) 0.30832(15)
H9_4 H 0.3580 0.1857 0.2867
C12_4 C 0.6511(3) 0.1812(2) 0.34063(18)
C14_4 C 0.1866(3) 0.2941(2) 0.31042(12)
H12_4 H 0.1719 0.2421 0.3034
C19_4 C 0.4143(3) 0.26111(19) 0.34133(14)
C26_4 C 0.6360(4) 0.2414(2) 0.37390(18)
H21_4 H 0.7051 0.2548 0.3966
C32_4 C 0.0922(5) 0.3264(4) 0.21920(17)
H28_4 H 0.0744 0.2755 0.2109
H29_4 H 0.1109 0.3517 0.1858
C33_4 C 0.2107(4) 0.3318(3) 0.25623(17)
H30_4 H 0.2311 0.3829 0.2624
H31_4 H 0.2873 0.3097 0.2390
C35_4 C 0.5229(4) 0.2806(2) 0.37377(18)
H34_4 H 0.5164 0.3215 0.3957
C39_4 C 0.7719(4) 0.1408(2) 0.3426(2)
H35_3 H 0.4502 0.0080 0.3447
H36_2 H 0.5361 0.0367 0.3929
H1_3 H 0.0183 0.5276 0.5172
N2_4 N 0.0542(3) 0.96476(16) 0.37068(12)
N6_3 N 0.1578(3) 0.65194(16) 0.50484(12)
H6_4 H 0.2247 0.6269 0.4936
H10_4 H 0.0541 0.5383 0.3406
C13_4 C 0.1294(3) 0.71417(17) 0.47793(13)
C15_3 C 0.0853(4) 0.6231(2) 0.55135(13)
H13_3 H 0.0428 0.6644 0.5697
C16_4 C 0.0420(4) 0.76832(18) 0.49672(14)
C18_4 C 0.0870(4) 0.84301(18) 0.42019(15)
H16_4 H 0.0596 0.5443 0.4330
C22_4 C 0.0226(4) 0.8316(2) 0.46888(16)
C23_4 C 0.0686(4) 0.91065(19) 0.39179(15)
C24_4 C 0.1722(4) 0.78944(19) 0.40050(15)
H18_4 H 0.2142 0.7964 0.3676
C27_4 C 0.1948(4) 0.72726(19) 0.42852(15)
H22_4 H 0.2541 0.6927 0.4151
C34_3 C 0.1807(5) 0.5869(3) 0.59097(18)
H32_3 H 0.2268 0.5472 0.5731
H33_3 H 0.2468 0.6223 0.6024
H36_3 H 0.0361 0.4633 0.6071
C38_3 C 0.1099(6) 0.5577(3) 0.63929(18)
H39_3 H 0.0738 0.5981 0.6599
H40_3 H 0.1727 0.5318 0.6619
C1_4 C 0.5240(3) 0.43037(19) 0.03454(13)
H1_4 H 0.4817 0.4724 0.0172
N6_4 N 0.3422(3) 0.34806(16) 0.00484(12)
H8_4 H 0.6837 0.3750 0.0106
C15_4 C 0.4147(4) 0.3769(2) 0.05135(13)
H13_4 H 0.4572 0.3356 0.0697
H14_4 H 0.5036 0.2391 0.0288
C31_4 C 0.5973(5) 0.4575(3) 0.08399(17)
H26_4 H 0.6645 0.4927 0.0733
H27_4 H 0.6417 0.4169 0.1014
C34_4 C 0.3193(5) 0.4131(3) 0.09097(18)
H32_4 H 0.2732 0.4528 0.0731
H33_4 H 0.2532 0.3777 0.1024
C36_4 C 0.5014(6) 0.4932(3) 0.12339(19)
H35_4 H 0.5498 0.5080 0.1553
H36_4 H 0.4639 0.5367 0.1071
C38_4 C 0.3901(6) 0.4423(3) 0.13929(18)
H39_4 H 0.4262 0.4019 0.1599
H40_4 H 0.3273 0.4682 0.1619
C2_4 C 0.0421(3) 0.80493(17) 0.07233(11)
C8_4 C 0.1787(4) 0.89408(19) 0.02764(15)
H7_4 H 0.2164 0.9405 0.0269
C11_4 C 0.0995(4) 0.87374(18) 0.06986(14)
H11_4 H 0.0838 0.9068 0.0975
C17_4 C 0.0713(4) 0.75473(18) 0.03142(13)
H15_4 H 0.0367 0.7076 0.0331
C25_4 C 0.0564(4) 0.8200(2) 0.20055(14)
H19_4 H 0.1335 0.8413 0.1831
H20_4 H 0.0765 0.7692 0.2082
C37_4 C 0.0294(5) 0.8606(3) 0.25349(17)
H37_4 H 0.1062 0.8569 0.2769
H38_4 H 0.0128 0.9119 0.2463
F1 F 0.7038(8) 0.0124(5) 0.0266(4)
F2 F 0.6185(12) 0.0656(3) 0.0842(4)
F6 F 0.4938(8) 0.0081(4) 0.0278(4)
P1 P 0.6052(2) 0.98763(11) 0.06644(13)
F3 F 0.5010(7) 0.9710(4) 0.1094(4)
F4 F 0.7132(7) 0.9656(4) 0.1057(3)
F5 F 0.5946(9) 0.9066(3) 0.0464(3)
F6_2 F 0.0062(8) 0.9919(4) 0.5278(4)
P1_2 P 0.8948(2) 0.01237(11) 0.56644(13)
F3_2 F 0.9990(7) 0.0290(4) 0.6094(4)
F4_2 F 0.7868(7) 0.0344(4) 0.6057(3)
F5_2 F 0.9054(9) 0.0934(3) 0.5464(3)
F1_2 F 0.7962(8) 0.9876(5) 0.5266(4)
F2_2 F 0.8815(12) 0.9344(3) 0.5842(4)
P1_3 P 0.3948(2) 0.48763(11) 0.43356(13)
F1_3 F 0.2962(8) 0.5124(5) 0.4734(4)
F2_3 F 0.3815(12) 0.5656(3) 0.4158(4)
F3_3 F 0.4990(7) 0.4710(4) 0.3906(4)
F4_3 F 0.2868(7) 0.4656(4) 0.3943(3)
F5_3 F 0.4054(9) 0.4066(3) 0.4536(3)
F6_3 F 0.5062(8) 0.5081(4) 0.4722(4)
P1_4 P 0.1052(2) 0.51237(11) 0.93356(13)
F1_4 F 0.2038(8) 0.4876(5) 0.9734(4)
F2_4 F 0.1185(12) 0.4344(3) 0.9158(4)
F3_4 F 0.0010(7) 0.5290(4) 0.8906(4)
F4_4 F 0.2132(7) 0.5344(4) 0.8943(3)
F5_4 F 0.0946(9) 0.5934(3) 0.9536(3)
F6_4 F 0.9938(8) 0.4919(4) 0.9722(4)
loop_
_geom_bond_atom_site_label_1
_geom_bond_atom_site_label_2
_geom_bond_site_symmetry_1
_geom_bond_site_symmetry_2
C5 N7 1_555 1_555
N8 C40 1_555 1_555
C20 C5 1_555 1_555
C21 C10 1_555 1_555
C29 C21 1_555 1_555
H24 C29 1_555 1_555
C30 C5 1_555 1_555
H25 C30 1_555 1_555
C40 C21 1_555 1_555
Cu3 N8 1_555 1_555
C10 C20 1_555 1_555
C29 C30 1_555 1_555
N1 H2 1_555 1_555
C2 N4 1_555 1_555
C3 H3 1_555 1_555
N3 Cu3 1_555 1_555
C4 C7 1_555 1_555
N4 C3 1_555 1_555
H4 N4 1_555 1_555
C7 N3 1_555 1_555
C8 C4 1_555 1_555
H7 C8 1_555 1_555
H9 C9 1_555 1_555
C11 C2 1_555 1_555
H11 C11 1_555 1_555
C14 N1 1_555 1_555
H12 C14 1_555 1_555
C17 C2 1_555 1_555
H15 C17 1_555 1_555
C19 N1 1_555 1_555
C25 C3 1_555 1_555
H19 C25 1_555 1_555
H20 C25 1_555 1_555
C28 C4 1_555 1_555
H23 C28 1_555 1_555
C32 H28 1_555 1_555
H29 C32 1_555 1_555
C33 C14 1_555 1_555
H30 C33 1_555 1_555
H31 C33 1_555 1_555
C37 C25 1_555 1_555
H37 C37 1_555 1_555
H38 C37 1_555 1_555
C3 C14 1_555 1_555
C8 C11 1_555 1_555
C9 C19 1_555 1_555
C17 C28 1_555 1_555
C32 C37 1_555 1_555
C32 C33 1_555 1_555
N1_2 H2_2 1_555 1_555
C3_2 H3_2 1_555 1_555
N4_2 C3_2 1_555 1_555
H4_2 N4_2 1_555 1_555
N9 C39 1_555 1_555
C6 H5 1_555 1_555
C9_2 C6 1_555 1_555
H9_2 C9_2 1_555 1_555
C12 C6 1_555 1_555
C14_2 N1_2 1_555 1_555
H12_2 C14_2 1_555 1_555
C19_2 N1_2 1_555 1_555
C26 C12 1_555 1_555
H21 C26 1_555 1_555
C32_2 H28_2 1_555 1_555
H29_2 C32_2 1_555 1_555
C33_2 C14_2 1_555 1_555
H30_2 C33_2 1_555 1_555
H31_2 C33_2 1_555 1_555
C35 C19_2 1_555 1_555
H34 C35 1_555 1_555
C39 C12 1_555 1_555
C3_2 C14_2 1_555 1_555
C9_2 C19_2 1_555 1_555
C26 C35 1_555 1_555
C32_2 C33_2 1_555 1_555
C31 C1 1_555 1_555
H26 C31 1_555 1_555
H27 C31 1_555 1_555
C36 C31 1_555 1_555
Cu1 N2 1_555 1_555
N2 C23 1_555 1_555
N3_2 Cu1 1_555 1_555
C4_2 C7_2 1_555 1_555
C7_2 N3_2 1_555 1_555
C16 C13 1_555 1_555
C18 C22 1_555 1_555
C22 C16 1_555 1_555
C23 C18 1_555 1_555
C24 C18 1_555 1_555
H18 C24 1_555 1_555
C27 C13 1_555 1_555
H22 C27 1_555 1_555
C28_2 C4_2 1_555 1_555
H23_2 C28_2 1_555 1_555
N10 Cu1 1_555 1_555
C24 C27 1_555 1_555
C5_2 N7_2 1_555 1_555
N7_2 C1_2 1_555 1_555
H8_2 N7_2 1_555 1_555
N10 C40_2 1_555 1_555
C20_2 C5_2 1_555 1_555
C21_2 C10_2 1_555 1_555
C29_2 C21_2 1_555 1_555
H24_2 C29_2 1_555 1_555
C30_2 C5_2 1_555 1_555
H25_2 C30_2 1_555 1_555
C31_2 C1_2 1_555 1_555
H26_2 C31_2 1_555 1_555
H27_2 C31_2 1_555 1_555
C36_2 C31_2 1_555 1_555
H35_2 C36_2 1_555 1_555
C40_2 C21_2 1_555 1_555
C10_2 C20_2 1_555 1_555
C29_2 C30_2 1_555 1_555
N1_3 H2_3 1_555 1_555
C2_2 N4_3 1_555 1_555
C3_3 H3_3 1_555 1_555
N4_3 C3_3 1_555 1_555
H4_3 N4_3 1_555 1_555
H7_2 C8_2 1_555 1_555
H9_3 C9_3 1_555 1_555
C11_2 C2_2 1_555 1_555
H11_2 C11_2 1_555 1_555
C14_3 N1_3 1_555 1_555
H12_3 C14_3 1_555 1_555
H13 C15 1_555 1_555
C17_2 C2_2 1_555 1_555
H15_2 C17_2 1_555 1_555
C19_3 N1_3 1_555 1_555
C25_2 C3_3 1_555 1_555
H19_2 C25_2 1_555 1_555
H20_2 C25_2 1_555 1_555
C32_3 H28_3 1_555 1_555
H29_3 C32_3 1_555 1_555
C33_3 C14_3 1_555 1_555
H30_3 C33_3 1_555 1_555
H31_3 C33_3 1_555 1_555
C34 C15 1_555 1_555
H32 C34 1_555 1_555
H33 C34 1_555 1_555
C37_2 C25_2 1_555 1_555
H37_2 C37_2 1_555 1_555
H38_2 C37_2 1_555 1_555
C38 C34 1_555 1_555
H39 C38 1_555 1_555
H40 C38 1_555 1_555
C3_3 C14_3 1_555 1_555
N6 C15 1_555 1_555
C8_2 C11_2 1_555 1_555
C9_3 C19_3 1_555 1_555
C32_3 C37_2 1_555 1_555
C32_3 C33_3 1_555 1_555
N5 C39_2 1_555 1_555
C6_2 H5_2 1_555 1_555
C12_2 C6_2 1_555 1_555
C26_2 C12_2 1_555 1_555
H21_2 C26_2 1_555 1_555
H34_2 C35_2 1_555 1_555
C39_2 C12_2 1_555 1_555
Cu2 N5 1_555 1_555
C26_2 C35_2 1_555 1_555
Cu1_2 N2_2 1_555 1_555
C1_3 H1_2 1_555 1_555
N2_2 C23_2 1_555 1_555
N3_3 Cu1_2 1_555 1_555
C4_3 C7_3 1_555 1_555
C5_3 N7_3 1_555 1_555
N6_2 H6_2 1_555 1_555
C7_3 N3_3 1_555 1_555
C8_3 C4_3 1_555 1_555
H7_3 C8_3 1_555 1_555
N7_3 C1_3 1_555 1_555
H8_3 N7_3 1_555 1_555
C10_3 H10_2 1_555 1_555
C11_3 C2_3 1_555 1_555
H11_3 C11_3 1_555 1_555
N8_2 C40_3 1_555 1_555
C13_2 N6_2 1_555 1_555
C15_2 C1_3 1_555 1_555
H13_2 C15_2 1_555 1_555
C16_2 C13_2 1_555 1_555
H14_3 C16_2 1_555 1_555
C17_3 C2_3 1_555 1_555
H15_3 C17_3 1_555 1_555
C18_2 C22_2 1_555 1_555
C20_3 C5_3 1_555 1_555
H16_2 C20_3 1_555 1_555
C21_3 C10_3 1_555 1_555
C22_2 C16_2 1_555 1_555
H17_3 C22_2 1_555 1_555
C23_2 C18_2 1_555 1_555
C24_2 C18_2 1_555 1_555
H18_2 C24_2 1_555 1_555
H19_3 C25_3 1_555 1_555
H20_3 C25_3 1_555 1_555
C27_2 C13_2 1_555 1_555
H22_2 C27_2 1_555 1_555
C28_3 C4_3 1_555 1_555
H23_3 C28_3 1_555 1_555
C29_3 C21_3 1_555 1_555
H24_3 C29_3 1_555 1_555
C30_3 C5_3 1_555 1_555
H25_3 C30_3 1_555 1_555
C31_3 C1_3 1_555 1_555
H26_3 C31_3 1_555 1_555
H27_3 C31_3 1_555 1_555
C34_2 C15_2 1_555 1_555
H32_2 C34_2 1_555 1_555
H33_2 C34_2 1_555 1_555
C36_3 C31_3 1_555 1_555
C37_3 C25_3 1_555 1_555
H37_3 C37_3 1_555 1_555
H38_3 C37_3 1_555 1_555
C38_2 C34_2 1_555 1_555
H39_2 C38_2 1_555 1_555
H40_2 C38_2 1_555 1_555
C40_3 C21_3 1_555 1_555
N9_2 Cu1_2 1_555 1_555
N10_2 Cu1_2 1_555 1_555
Cu2 N8_2 1_555 1_555
N6_2 C15_2 1_555 1_555
C8_3 C11_3 1_555 1_555
C10_3 C20_3 1_555 1_555
C17_3 C28_3 1_555 1_555
C24_2 C27_2 1_555 1_555
C29_3 C30_3 1_555 1_555
C36_3 C38_2 1_555 1_555
N9_2 C39_3 1_555 1_555
C6_3 H5_3 1_555 1_555
C12_3 C6_3 1_555 1_555
C26_3 C12_3 1_555 1_555
H21_3 C26_3 1_555 1_555
H34_3 C35_3 1_555 1_555
C39_3 C12_3 1_555 1_555
C26_3 C35_3 1_555 1_555
N2_3 C23_3 1_555 1_555
C5_4 N7_4 1_555 1_555
C10_4 H10_3 1_555 1_555
N10_2 C40_4 1_555 1_555
C16_3 C13_3 1_555 1_555
C18_3 C22_3 1_555 1_555
C20_4 C5_4 1_555 1_555
H16_3 C20_4 1_555 1_555
C21_4 C10_4 1_555 1_555
C22_3 C16_3 1_555 1_555
H17_4 C22_3 1_555 1_555
C23_3 C18_3 1_555 1_555
C24_3 C18_3 1_555 1_555
H18_3 C24_3 1_555 1_555
C27_3 C13_3 1_555 1_555
H22_3 C27_3 1_555 1_555
C29_4 C21_4 1_555 1_555
H24_4 C29_4 1_555 1_555
C30_4 C5_4 1_555 1_555
H25_4 C30_4 1_555 1_555
C40_4 C21_4 1_555 1_555
C10_4 C20_4 1_555 1_555
C24_3 C27_3 1_555 1_555
C29_4 C30_4 1_555 1_555
N3_4 Cu2 1_555 1_555
C4_4 C7_4 1_555 1_555
C7_4 N3_4 1_555 1_555
C28_4 C4_4 1_555 1_555
H23_4 C28_4 1_555 1_555
N1_4 H2_4 1_555 1_555
C3_4 H3_4 1_555 1_555
N4_4 C3_4 1_555 1_555
H4_4 N4_4 1_555 1_555
N5_2 C39_4 1_555 1_555
C6_4 H5_4 1_555 1_555
C9_4 C6_4 1_555 1_555
H9_4 C9_4 1_555 1_555
C12_4 C6_4 1_555 1_555
C14_4 N1_4 1_555 1_555
H12_4 C14_4 1_555 1_555
C19_4 N1_4 1_555 1_555
C26_4 C12_4 1_555 1_555
H21_4 C26_4 1_555 1_555
C32_4 H28_4 1_555 1_555
H29_4 C32_4 1_555 1_555
C33_4 C14_4 1_555 1_555
H30_4 C33_4 1_555 1_555
H31_4 C33_4 1_555 1_555
C35_4 C19_4 1_555 1_555
H34_4 C35_4 1_555 1_555
C39_4 C12_4 1_555 1_555
C3_4 C14_4 1_555 1_555
C9_4 C19_4 1_555 1_555
C26_4 C35_4 1_555 1_555
C32_4 C33_4 1_555 1_555
N2_4 C23_4 1_555 1_555
N6_3 H6_4 1_555 1_555
C13_4 N6_3 1_555 1_555
H13_3 C15_3 1_555 1_555
C16_4 C13_4 1_555 1_555
C18_4 C22_4 1_555 1_555
C22_4 C16_4 1_555 1_555
C23_4 C18_4 1_555 1_555
C24_4 C18_4 1_555 1_555
H18_4 C24_4 1_555 1_555
C27_4 C13_4 1_555 1_555
H22_4 C27_4 1_555 1_555
C34_3 C15_3 1_555 1_555
H32_3 C34_3 1_555 1_555
H33_3 C34_3 1_555 1_555
C38_3 C34_3 1_555 1_555
H39_3 C38_3 1_555 1_555
H40_3 C38_3 1_555 1_555
N6_3 C15_3 1_555 1_555
C24_4 C27_4 1_555 1_555
C1_4 H1_4 1_555 1_555
C15_4 C1_4 1_555 1_555
H13_4 C15_4 1_555 1_555
C31_4 C1_4 1_555 1_555
H26_4 C31_4 1_555 1_555
H27_4 C31_4 1_555 1_555
C34_4 C15_4 1_555 1_555
H32_4 C34_4 1_555 1_555
H33_4 C34_4 1_555 1_555
C36_4 C31_4 1_555 1_555
H35_4 C36_4 1_555 1_555
H36_4 C36_4 1_555 1_555
C38_4 C34_4 1_555 1_555
H39_4 C38_4 1_555 1_555
H40_4 C38_4 1_555 1_555
N6_4 C15_4 1_555 1_555
C36_4 C38_4 1_555 1_555
H7_4 C8_4 1_555 1_555
C11_4 C2_4 1_555 1_555
H11_4 C11_4 1_555 1_555
C17_4 C2_4 1_555 1_555
H15_4 C17_4 1_555 1_555
H19_4 C25_4 1_555 1_555
H20_4 C25_4 1_555 1_555
C37_4 C25_4 1_555 1_555
H37_4 C37_4 1_555 1_555
H38_4 C37_4 1_555 1_555
C8_4 C11_4 1_555 1_555
F3 P1 1_555 1_555
F4 P1 1_555 1_555
F5 P1 1_555 1_555
F3_2 P1_2 1_555 1_555
F4_2 P1_2 1_555 1_555
F5_2 P1_2 1_555 1_555
P1_3 F1_3 1_555 1_555
F2_3 P1_3 1_555 1_555
F3_3 P1_3 1_555 1_555
F4_3 P1_3 1_555 1_555
F5_3 P1_3 1_555 1_555
F6_3 P1_3 1_555 1_555
P1_4 F1_4 1_555 1_555
F2_4 P1_4 1_555 1_555
F3_4 P1_4 1_555 1_555
F4_4 P1_4 1_555 1_555
F5_4 P1_4 1_555 1_555

#END
