
###############################################################################
#
# This file contains modified crystal structure data generated from the
# MOF subset of the Cambridge Structural Database (CSD) v543 
# hosted by the Cambridge Crystallographic Data Centre (CCDC).
#
# This work is licensed under the Creative Commons
# Attribution-NonCommercial-ShareAlike 4.0 International License.
# To view a copy of this license, visit
# http://creativecommons.org/licenses/by-nc-sa/4.0/
# or send a letter to
# Creative Commons, PO Box 1866, Mountain View, CA 94042, USA.
#
# CIF created using the CSD Python API on 29 September 2022
# The structure has been converted into the P1 space group
# The structure has a 3D framework
# The original CSD entry DALJUZ is in the tetragonal crystal system
# The original CSD entry DALJUZ is in a Sohncke space group
# The framework has been calculated to contain at least 10.0% void space
# The void calculation uses a probe of radius 1.32A, grid spacing 0.4
# The framework is charged, counterions have been retained in the structure
#
###############################################################################

data_DALJUZ
_chemical_formula_moiety         '(C520 H312 Ce24 N37 O228 P37 8-)n'
_symmetry_cell_setting           triclinic
_symmetry_space_group_name_H-M   'P 1'
_symmetry_Int_Tables_number      1
_space_group_name_Hall           'P 1'
loop_
_symmetry_equiv_pos_site_id
_symmetry_equiv_pos_as_xyz
1 x,y,z
_cell_length_a                   23.0481(3)
_cell_length_b                   23.0481(3)
_cell_length_c                   47.9933(8)
_cell_angle_alpha                90
_cell_angle_beta                 90
_cell_angle_gamma                90
_cell_volume                     25494.8
loop_
_atom_site_label
_atom_site_type_symbol
_atom_site_fract_x
_atom_site_fract_y
_atom_site_fract_z
Ce22 Ce 0.43543(2) 0.01410(2) 0.02526(2)
O30 O 0.4101(3) 0.0222(4) 0.71136(11)
O31 O 0.4353(3) 0.0111(3) 0.75546(12)
C71 C 0.4027(4) 0.0021(4) 0.73553(16)
C89 C 0.5579(7) 0.1821(6) 0.7905(3)
Ce4 Ce 0.46933(2) 0.01977(2) 0.59743(2)
Ce5 Ce 0.44821(2) 0.07783(2) 0.67377(2)
Ce6 Ce 0.51410(2) 0.06457(2) 0.77526(2)
H54 H 0.295608 0.010378 0.538596
O51 O 0.3876(3) 0.0237(4) 0.56388(11)
O52 O 0.5197(5) 0.1602(4) 0.80529(19)
O56 O 0.5815(4) 0.1538(4) 0.7698(2)
C130 C 0.5772(7) 0.2319(7) 0.7947(3)
H76 H 0.548522 0.254611 0.804281
H77 H 0.586199 0.249939 0.777178
H78 H 0.611668 0.229541 0.805838
Ce11 Ce 0.51977(2) 0.03067(2) 0.34743(2)
Ce17 Ce 0.57783(2) 0.05179(2) 0.42377(2)
O60 O 0.5333(3) 0.0386(3) 0.69578(12)
O64 O 0.4081(3) 0.0881(3) 0.62241(10)
O65 O 0.4655(3) 0.1396(3) 0.74983(12)
O69 O 0.5297(3) 0.0616(3) 0.63410(9)
O71 O 0.5553(3) 0.0556(3) 0.56382(9)
O72 O 0.4444(3) 0.0553(3) 0.81382(9)
O76 O 0.5929(4) 0.0554(4) 0.80738(18)
O77 O 0.4940(3) 0.1210(2) 0.58004(11)
O79 O 0.5359(4) 0.1385(3) 0.65969(15)
O81 O 0.4431(3) 0.1561(3) 0.70668(11)
O84 O 0.5725(3) 0.0384(3) 0.73737(10)
O86 O 0.4012(4) 0.1660(4) 0.64663(18)
C5 C 0.1452(6) 0.7315(5) 0.1582(2)
H4 H 0.172974 0.752331 0.168045
C6 C 0.1944(6) 0.6003(6) 0.0614(3)
C8 C 0.0888(5) 0.7185(5) 0.1174(2)
H5 H 0.079522 0.730860 0.099524
O1 O 0.2353(5) 0.6441(5) 0.0704(2)
P2 P 0.13877(12) 0.77288(13) 0.04224(5)
P3 P 0.18664(14) 0.80128(15) 0.09263(5)
O2 O 0.0333(3) 0.4614(3) 0.05422(12)
O3 O 0.0330(4) 0.5618(4) 0.15077(16)
P5 P 0.23426(15) 0.71156(15) 0.06165(8)
C10 C 0.0712(3) 0.4779(4) 0.03821(14)
O8 O 0.1353(3) 0.8125(3) 0.01528(11)
O9 O 0.4703(3) 0.9384(3) 0.13410(9)
O10 O 0.4447(3) 0.9444(3) 0.06382(9)
O12 O 0.2181(3) 0.8625(3) 0.09610(12)
C14 C 0.0584(4) 0.7072(4) 0.01908(16)
O13 O 0.0554(4) 0.5929(4) 0.19262(18)
C16 C 0.3011(4) 0.9186(4) 0.10320(14)
H9 H 0.285428 0.945250 0.090761
C19 C 0.1147(4) 0.5426(4) 0.0730(2)
H10 H 0.086251 0.531023 0.085540
C21 C 0.4170(4) 0.8441(4) 0.06097(16)
O17 O 0.1564(3) 0.7998(3) 0.12174(14)
O18 O 0.5060(3) 0.8790(2) 0.08004(11)
C22 C 0.4403(5) 0.8961(4) 0.14295(16)
O21 O 0.0749(3) 0.7465(3) 0.04088(11)
C23 C 0.3562(4) 0.9288(4) 0.11516(15)
H11 H 0.375468 0.963268 0.111282
O22 O 0.4641(4) 0.8615(3) 0.15969(15)
N3 N 0.2293(4) 0.7493(4) 0.08902(18)
C25 C 0.1296(6) 0.7471(5) 0.13253(19)
C27 C 0.2941(6) 0.8306(6) 0.1283(2)
H12 H 0.272793 0.798151 0.133487
C29 C 0.1836(4) 0.8467(5) 0.00703(19)
C31 C 0.0553(6) 0.5982(5) 0.1669(2)
N4 N 0.1386(3) 0.8112(4) 0.06951(14)
C32 C 0.0794(5) 0.6516(5) 0.1549(2)
C33 C 0.1163(4) 0.5176(4) 0.04788(15)
C36 C 0.3687(5) 0.8529(5) 0.0466(2)
H15 H 0.362052 0.889362 0.038944
C38 C 0.0614(5) 0.6711(5) 0.12887(17)
H17 H 0.031508 0.652463 0.119408
C40 C 0.0641(5) 0.6503(4) 0.02304(18)
H18 H 0.079126 0.635660 0.039595
N5 N 0.1890(4) 0.7242(4) 0.03838(19)
C42 C 0.2710(5) 0.8698(5) 0.10983(18)
C43 C 0.3817(4) 0.8887(4) 0.13243(15)
C44 C 0.2490(4) 0.9240(5) 0.01445(18)
H20 H 0.260936 0.955651 0.025036
C45 C 0.3507(5) 0.8395(5) 0.1394(2)
H21 H 0.366759 0.812199 0.151462
C46 C 0.3269(5) 0.8089(5) 0.0426(2)
H22 H 0.292250 0.817314 0.033498
O27 O 0.0725(3) 0.4616(3) 0.01263(10)
C49 C 0.2020(5) 0.8913(5) 0.02275(18)
H24 H 0.182884 0.900176 0.039290
C50 C 0.4586(4) 0.8919(4) 0.06785(16)
C53 C 0.1606(5) 0.5333(6) 0.0292(2)
H26 H 0.163080 0.515405 0.011873
O29 O 0.2975(3) 0.7124(3) 0.04926(19)
C58 C 0.3367(5) 0.7574(5) 0.0515(2)
C59 C 0.0466(5) 0.6129(4) 0.0012(2)
H30 H 0.053751 0.573304 0.002842
C60 C 0.2012(6) 0.5761(6) 0.0366(3)
H31 H 0.231344 0.586716 0.024798
C61 C 0.1187(6) 0.6831(6) 0.1697(2)
H32 H 0.127915 0.672042 0.187751
C62 C 0.4273(7) 0.7884(6) 0.0708(3)
H33 H 0.460116 0.780614 0.081470
C63 C 0.1547(6) 0.5862(5) 0.0813(2)
H34 H 0.153881 0.603456 0.098836
C64 C 0.3882(7) 0.7446(7) 0.0646(3)
H35 H 0.396923 0.706431 0.069217
Ce12 Ce 0.53067(2) 0.98023(2) 0.09743(2)
Ce18 Ce 0.55179(2) 0.92217(2) 0.17377(2)
Ce20 Ce 0.06457(2) 0.51410(2) 0.22474(2)
C1 C 0.1923(13) 0.7018(12) 0.6318(6)
C2 C 0.1619(7) 0.6405(7) 0.6688(3)
H1 H 0.132927 0.616230 0.675569
C3 C 0.2480(8) 0.7127(8) 0.6529(4)
H2 H 0.280585 0.732272 0.646454
C4 C 0.2079(6) 0.6567(6) 0.6879(3)
H3 H 0.209405 0.641071 0.705772
P1 P 0.28475(12) 0.74741(12) 0.72380(4)
P4 P 0.19569(14) 0.80431(14) 0.750000
C9 C 0.0207(4) 0.6323(4) 0.97873(15)
O5 O 0.0919(3) 0.5881(3) 0.62759(10)
C11 C 0.4114(4) 0.8480(4) 0.70309(19)
H6 H 0.434605 0.839269 0.718389
C12 C 0.4296(4) 0.8883(4) 0.68441(16)
H7 H 0.463715 0.908773 0.687481
O6 O 0.3604(3) 0.9655(3) 0.99983(12)
C13 C 0.4157(5) 0.9417(4) 0.64014(17)
N1 N 0.2303(4) 0.7866(4) 0.72274(15)
O7 O 0.0192(3) 0.5396(3) 0.95564(11)
O11 O 0.3990(3) 0.9391(3) 0.61541(11)
O15 O 0.4487(3) 0.9832(3) 0.64820(9)
O16 O 0.3446(3) 0.7815(3) 0.72084(11)
C15 C 0.0106(5) 0.6904(5) 0.9765(2)
C17 C 0.2786(4) 0.9094(4) 0.98998(15)
C18 C 0.0033(4) 0.5917(4) 0.95612(16)
N2 N 0.2941(3) 0.7059(3) 0.750000
C20 C 0.0327(4) 0.6519(4) 0.75917(15)
C24 C 0.2465(5) 0.6930(5) 0.6798(2)
O23 O 0.1270(3) 0.8022(3) 0.74534(15)
C28 C 0.0693(5) 0.7430(5) 0.7748(2)
H13 H 0.070348 0.772051 0.788184
C30 C 0.0587(5) 0.6622(4) 0.73473(16)
H14 H 0.055422 0.634871 0.720546
O24 O 0.2905(3) 0.7098(4) 0.69607(11)
C34 C 0.3962(4) 0.8988(4) 0.66021(15)
C35 C 0.3315(4) 0.9436(4) 0.98157(17)
C37 C 0.2108(5) 0.8335(5) 0.98210(16)
H16 H 0.198327 0.802342 0.971340
C39 C 0.0958(4) 0.7509(4) 0.74973(19)
O25 O 0.3439(3) 0.9431(3) 0.95668(11)
C41 C 0.0903(5) 0.7122(5) 0.73000(18)
H19 H 0.107628 0.718397 0.712751
C47 C 0.1581(5) 0.6565(6) 0.64385(19)
C48 C 0.3265(5) 0.8302(5) 0.67657(18)
H23 H 0.291339 0.811118 0.673963
O28 O 0.0988(4) 0.6660(4) 0.60337(18)
C51 C 0.0411(5) 0.6916(5) 0.78007(19)
H25 H 0.027573 0.683710 0.797935
C52 C 0.1139(5) 0.6332(6) 0.6247(2)
C54 C 0.3466(5) 0.8693(5) 0.65718(17)
H27 H 0.324706 0.875496 0.641185
C55 C 0.2556(4) 0.8667(5) 0.97373(17)
H28 H 0.271513 0.860171 0.956192
C56 C 0.3594(4) 0.8201(4) 0.69973(17)
C57 C 0.0310(5) 0.7289(4) 0.99626(18)
H29 H 0.026171 0.768709 0.993998
H39 H 0.221(5) 0.675(5) 0.627(3)
C66 C 0.2982(12) 0.8077(13) 0.8682(6)
C67 C 0.2873(8) 0.7520(8) 0.8471(4)
H40 H 0.267728 0.719415 0.853546
C68 C 0.3433(6) 0.7921(6) 0.8121(3)
H41 H 0.358929 0.790595 0.794228
P6 P 0.25259(12) 0.71525(12) 0.77620(4)
N6 N 0.2134(4) 0.7697(4) 0.77726(15)
O32 O 0.2185(3) 0.6554(3) 0.77916(11)
C69 C 0.3481(4) 0.9673(4) 0.74083(15)
C70 C 0.3070(5) 0.7535(5) 0.8202(2)
O33 O 0.1978(3) 0.8730(3) 0.75466(15)
C72 C 0.2570(5) 0.9307(5) 0.7252(2)
H42 H 0.227949 0.929652 0.711816
C73 C 0.3378(4) 0.9413(5) 0.76527(16)
H43 H 0.365129 0.944578 0.779454
O34 O 0.2902(4) 0.7095(3) 0.80393(11)
C74 C 0.2491(4) 0.9042(4) 0.75027(19)
C75 C 0.2878(5) 0.9097(5) 0.77000(18)
H44 H 0.281603 0.892372 0.787249
C76 C 0.3084(5) 0.9589(5) 0.71993(19)
H45 H 0.316290 0.972427 0.702065
H46 H 0.325(5) 0.779(5) 0.873(3)
C77 C 0.1520(4) 0.5886(4) 0.79691(19)
H47 H 0.160731 0.565395 0.781611
C78 C 0.1117(4) 0.5704(4) 0.81559(16)
H48 H 0.091227 0.536285 0.812519
C79 C 0.0583(4) 0.5843(5) 0.85986(17)
O35 O 0.0609(3) 0.6010(3) 0.88459(11)
O36 O 0.0168(3) 0.5513(3) 0.85180(9)
C80 C 0.1012(4) 0.6038(4) 0.83979(15)
C81 C 0.1698(5) 0.6735(5) 0.82343(18)
H49 H 0.188882 0.708661 0.826037
C82 C 0.1307(5) 0.6534(5) 0.84282(17)
H50 H 0.124504 0.675294 0.858815
C83 C 0.1799(4) 0.6406(4) 0.80027(17)
C84 C 0.3595(7) 0.8381(7) 0.8312(3)
H51 H 0.383770 0.867073 0.824431
O37 O 0.4119(3) 0.9081(3) 0.87241(10)
C85 C 0.3435(6) 0.8419(5) 0.85615(19)
O38 O 0.3340(4) 0.9012(4) 0.89663(18)
C86 C 0.3668(6) 0.8861(5) 0.8753(2)
C87 C 0.2685(5) 0.8548(6) 0.3418(2)
H52 H 0.247669 0.827026 0.331955
C88 C 0.3997(6) 0.8056(6) 0.4386(3)
C90 C 0.2815(5) 0.9112(5) 0.3826(2)
H53 H 0.269140 0.920478 0.400476
O39 O 0.3559(5) 0.7647(5) 0.4296(2)
P7 P 0.22712(13) 0.86123(12) 0.45776(5)
P8 P 0.19872(15) 0.81336(14) 0.40737(5)
O40 O 0.5386(3) 0.9667(3) 0.44578(12)
O41 O 0.4382(4) 0.9670(4) 0.34923(16)
P9 P 0.28844(15) 0.76574(15) 0.43835(8)
C91 C 0.3677(4) 0.9793(4) 0.52127(15)
C92 C 0.5221(4) 0.9288(3) 0.46179(14)
O42 O 0.0345(3) 0.6396(3) 0.50017(12)
O43 O 0.4604(3) 0.9808(3) 0.54436(11)
O44 O 0.1875(3) 0.8647(3) 0.48472(11)
O45 O 0.0616(3) 0.5297(3) 0.36590(9)
O46 O 0.0556(3) 0.5553(3) 0.43618(9)
O47 O 0.1375(3) 0.7819(3) 0.40390(12)
C93 C 0.2928(4) 0.9416(4) 0.48092(16)
O48 O 0.4071(4) 0.9446(4) 0.30738(18)
C94 C 0.3096(5) 0.9894(5) 0.5235(2)
C95 C 0.0814(4) 0.6989(4) 0.39680(14)
H55 H 0.054750 0.714572 0.409239
C96 C 0.0906(4) 0.7214(4) 0.51002(15)
C97 C 0.4083(4) 0.9967(4) 0.54388(16)
C98 C 0.4574(4) 0.8853(4) 0.4270(2)
H56 H 0.468977 0.913749 0.414460
C99 C 0.1559(4) 0.5830(4) 0.43903(16)
O49 O 0.2002(3) 0.8436(3) 0.37826(14)
O50 O 0.1210(2) 0.4940(3) 0.41996(11)
C100 C 0.1039(4) 0.5597(5) 0.35705(16)
O53 O 0.2535(3) 0.9251(3) 0.45912(11)
C101 C 0.0712(4) 0.6438(4) 0.38484(15)
H57 H 0.036732 0.624532 0.388718
O54 O 0.1385(3) 0.5359(4) 0.34031(15)
N7 N 0.2507(4) 0.7707(4) 0.41098(18)
C102 C 0.2529(5) 0.8704(6) 0.36747(19)
C103 C 0.1694(6) 0.7059(6) 0.3717(2)
H58 H 0.201849 0.727207 0.366513
C104 C 0.1533(5) 0.8164(4) 0.49297(19)
C105 C 0.4018(5) 0.9447(6) 0.3331(2)
N8 N 0.1888(4) 0.8614(3) 0.43049(14)
C106 C 0.3484(5) 0.9206(5) 0.3451(2)
C107 C 0.4824(4) 0.8837(4) 0.45212(15)
C108 C 0.0564(4) 0.6685(4) 0.51843(17)
C109 C 0.1471(5) 0.6313(5) 0.4534(2)
H59 H 0.110638 0.637948 0.461056
C110 C 0.1665(5) 0.7892(5) 0.51790(16)
H60 H 0.197658 0.801673 0.528660
C111 C 0.3289(5) 0.9386(5) 0.37113(17)
H61 H 0.347537 0.968492 0.380592
C112 C 0.3497(4) 0.9359(5) 0.47696(18)
H62 H 0.364340 0.920874 0.460405
O55 O 0.0569(3) 0.6561(3) 0.54332(11)
N9 N 0.2758(4) 0.8110(4) 0.46162(19)
C113 C 0.1302(5) 0.7290(5) 0.39017(18)
C114 C 0.1113(4) 0.6183(4) 0.36757(15)
C115 C 0.0760(5) 0.7510(4) 0.48555(18)
H63 H 0.044349 0.739064 0.474964
C116 C 0.1605(5) 0.6493(5) 0.3606(2)
H64 H 0.187801 0.633241 0.348538
C117 C 0.1911(5) 0.6731(5) 0.4574(2)
H65 H 0.182686 0.707750 0.466502
O57 O 0.5384(3) 0.9275(3) 0.48737(10)
C118 C 0.1087(5) 0.7980(5) 0.47725(18)
H66 H 0.099824 0.817116 0.460710
C119 C 0.1081(4) 0.5414(4) 0.43215(16)
C120 C 0.4667(6) 0.8394(5) 0.4708(2)
H67 H 0.484595 0.836920 0.488127
O58 O 0.2876(3) 0.7025(3) 0.45074(19)
C121 C 0.1333(5) 0.7444(4) 0.52627(17)
H68 H 0.139829 0.728487 0.543808
C122 C 0.2711(4) 0.9690(5) 0.50374(18)
H69 H 0.231291 0.973829 0.506002
C123 C 0.2426(5) 0.6633(5) 0.4485(2)
C124 C 0.3871(4) 0.9534(5) 0.4988(2)
H70 H 0.426696 0.946249 0.497158
C125 C 0.4239(6) 0.7988(6) 0.4634(3)
H71 H 0.413284 0.768656 0.475202
C126 C 0.3169(6) 0.8813(6) 0.3303(2)
H72 H 0.327958 0.872085 0.312249
C127 C 0.2116(6) 0.5727(7) 0.4292(3)
H73 H 0.219386 0.539884 0.418530
C128 C 0.4138(5) 0.8453(6) 0.4187(2)
H74 H 0.396544 0.846119 0.401164
C129 C 0.2554(7) 0.6118(7) 0.4354(3)
H75 H 0.293569 0.603077 0.430783
Ce8 Ce 0.01977(2) 0.46933(2) 0.40257(2)
Ce9 Ce 0.03067(2) 0.51977(2) 0.65257(2)
Ce10 Ce 0.48023(2) 0.96933(2) 0.84743(2)
Ce14 Ce 0.07783(2) 0.44821(2) 0.32623(2)
Ce15 Ce 0.05179(2) 0.57783(2) 0.57623(2)
Ce16 Ce 0.42217(2) 0.94821(2) 0.92377(2)
Ce19 Ce 0.01410(2) 0.43543(2) 0.97474(2)
Ce23 Ce 0.56457(2) 0.98590(2) 0.52526(2)
Ce24 Ce 0.48590(2) 0.93543(2) 0.27526(2)
O61 O 0.0618(4) 0.4670(4) 0.90077(16)
O62 O 0.5330(4) 0.9382(4) 0.59923(16)
O67 O 0.0396(3) 0.4808(3) 0.70564(11)
O68 O 0.5192(3) 0.9604(3) 0.79436(11)
Ce7 Ce 0.96933(2) 0.48023(2) 0.15257(2)
Ce13 Ce 0.94821(2) 0.42217(2) 0.07623(2)
C7 C 0.8179(6) 0.4421(7) 0.7095(3)
Ce1 Ce 0.98023(2) 0.53067(2) 0.90257(2)
Ce2 Ce 0.92217(2) 0.55179(2) 0.82623(2)
Ce3 Ce 0.93543(2) 0.48590(2) 0.72474(2)
O4 O 0.9778(4) 0.5899(3) 0.78864(11)
O14 O 0.9889(3) 0.5647(3) 0.74454(12)
H8 H 0.989622 0.704392 0.961404
O19 O 0.9763(4) 0.6124(3) 0.93612(11)
O20 O 0.8398(4) 0.4803(5) 0.69471(19)
C26 C 0.9979(4) 0.5973(4) 0.76447(16)
O26 O 0.8462(4) 0.4185(4) 0.7302(2)
C65 C 0.7681(7) 0.4228(7) 0.7053(3)
H36 H 0.745389 0.451478 0.695719
H37 H 0.750061 0.413801 0.722822
H38 H 0.770459 0.388332 0.694162
Ce21 Ce 0.98590(2) 0.56457(2) 0.47474(2)
O59 O 0.9614(3) 0.4667(3) 0.80422(12)
O63 O 0.9119(3) 0.5919(3) 0.87759(10)
O66 O 0.8604(3) 0.5345(3) 0.75017(12)
O70 O 0.9384(3) 0.4703(3) 0.86590(9)
O73 O 0.9447(3) 0.5556(3) 0.68618(9)
O74 O 0.9444(3) 0.4447(3) 0.93618(9)
O75 O 0.9446(4) 0.4071(4) 0.69262(18)
O78 O 0.8790(2) 0.5060(3) 0.91996(11)
O80 O 0.8615(3) 0.4641(4) 0.84031(15)
O82 O 0.8439(3) 0.5569(3) 0.79332(11)
O83 O 0.9616(3) 0.4275(3) 0.76263(10)
O85 O 0.8340(4) 0.5988(4) 0.85337(18)
O2_2 O 0.0386(3) 0.5333(3) 0.30422(12)
C10_2 C 0.0221(4) 0.5712(3) 0.28821(14)
O27_2 O 0.0384(3) 0.5725(3) 0.26263(10)
O70_2 O 0.0297(3) 0.4384(3) 0.11590(9)
O74_2 O 0.0553(3) 0.4444(3) 0.18618(9)
O80_2 O 0.0359(4) 0.3615(3) 0.09031(15)
C7_2 C 0.0579(7) 0.3179(6) 0.9595(3)
O20_2 O 0.0197(5) 0.3398(4) 0.94471(19)
O26_2 O 0.0815(4) 0.3462(4) 0.9802(2)
C65_2 C 0.0772(7) 0.2681(7) 0.9553(3)
H36_2 H 0.048522 0.245389 0.945719
H37_2 H 0.086199 0.250061 0.972822
H38_2 H 0.111668 0.270459 0.944162
O50_2 O 0.0060(3) 0.6210(2) 0.66996(11)
O75_2 O 0.0929(4) 0.4446(4) 0.94262(18)
O18_2 O 0.6210(2) 0.0060(3) 0.33004(11)
C89_2 C 0.3179(6) 0.0579(7) 0.0405(3)
O52_2 O 0.3398(4) 0.0197(5) 0.05529(19)
O56_2 O 0.3462(4) 0.0815(4) 0.0198(2)
C130_2 C 0.2681(7) 0.0772(7) 0.0447(3)
H76_2 H 0.245389 0.048522 0.054281
H77_2 H 0.250061 0.086199 0.027178
H78_2 H 0.270459 0.111668 0.055838
O68_2 O 0.5396(3) 0.0192(3) 0.04436(11)
O76_2 O 0.4446(4) 0.0929(4) 0.05738(18)
C92_2 C 0.5712(3) 0.0221(4) 0.71179(14)
O60_2 O 0.4614(3) 0.0333(3) 0.94578(12)
O62_2 O 0.5618(4) 0.0330(4) 0.84923(16)
O69_2 O 0.4384(3) 0.0297(3) 0.88410(9)
O79_2 O 0.3615(3) 0.0359(4) 0.90969(15)
O84_2 O 0.4616(3) 0.0725(3) 0.98737(10)
C5_2 C 0.7685(5) 0.6452(6) 0.4082(2)
H4_2 H 0.747669 0.672974 0.418045
C6_2 C 0.8997(6) 0.6944(6) 0.3114(3)
C8_2 C 0.7815(5) 0.5888(5) 0.3674(2)
H5_2 H 0.769140 0.579522 0.349524
O1_2 O 0.8559(5) 0.7353(5) 0.3204(2)
P2_2 P 0.72712(13) 0.63877(12) 0.29224(5)
P3_2 P 0.69872(15) 0.68664(14) 0.34263(5)
P4_2 P 0.69569(14) 0.69569(14) 0.000000
O3_2 O 0.9382(4) 0.5330(4) 0.40077(16)
P5_2 P 0.78844(15) 0.73426(15) 0.31165(8)
C9_2 C 0.8677(4) 0.5207(4) 0.22873(15)
O4_2 O 0.9101(3) 0.4778(4) 0.03864(11)
O6_2 O 0.5345(3) 0.8604(3) 0.24983(12)
O7_2 O 0.9604(3) 0.5192(3) 0.20564(11)
O8_2 O 0.6875(3) 0.6353(3) 0.26528(11)
O9_2 O 0.5616(3) 0.9703(3) 0.38410(9)
O10_2 O 0.5556(3) 0.9447(3) 0.31382(9)
O12_2 O 0.6375(3) 0.7181(3) 0.34610(12)
C14_2 C 0.7928(4) 0.5584(4) 0.26908(16)
O13_2 O 0.9071(4) 0.5554(4) 0.44262(18)
C15_2 C 0.8096(5) 0.5106(5) 0.2265(2)
H8_2 H 0.795608 0.489622 0.211404
C16_2 C 0.5814(4) 0.8011(4) 0.35320(14)
H9_2 H 0.554750 0.785428 0.340761
C17_2 C 0.5906(4) 0.7786(4) 0.23998(15)
C18_2 C 0.9083(4) 0.5033(4) 0.20612(16)
N2_2 N 0.7941(3) 0.7941(3) 0.000000
C19_2 C 0.9574(4) 0.6147(4) 0.3230(2)
H10_2 H 0.968977 0.586251 0.335540
C20_2 C 0.8481(4) 0.5327(4) 0.00917(15)
C21_2 C 0.6559(4) 0.9170(4) 0.31097(16)
O17_2 O 0.7002(3) 0.6564(3) 0.37174(14)
C22_2 C 0.6039(4) 0.9403(5) 0.39295(16)
O19_2 O 0.8876(3) 0.4763(4) 0.18612(11)
O21_2 O 0.7535(3) 0.5749(3) 0.29088(11)
C23_2 C 0.5712(4) 0.8562(4) 0.36516(15)
H11_2 H 0.536732 0.875468 0.361282
O22_2 O 0.6385(3) 0.9641(4) 0.40969(15)
N3_2 N 0.7507(4) 0.7293(4) 0.33902(18)
C25_2 C 0.7529(5) 0.6296(6) 0.38253(19)
C26_2 C 0.9027(4) 0.4979(4) 0.01447(16)
C27_2 C 0.6694(6) 0.7941(6) 0.3783(2)
H12_2 H 0.701849 0.772793 0.383487
C28_2 C 0.7570(5) 0.5693(5) 0.0248(2)
H13_2 H 0.727949 0.570348 0.038184
C29_2 C 0.6533(5) 0.6836(4) 0.25703(19)
C31_2 C 0.9018(5) 0.5553(6) 0.4169(2)
N4_2 N 0.6888(4) 0.6386(3) 0.31951(14)
C32_2 C 0.8484(5) 0.5794(5) 0.4049(2)
C33_2 C 0.9824(4) 0.6163(4) 0.29788(15)
C35_2 C 0.5564(4) 0.8315(4) 0.23157(17)
C36_2 C 0.6471(5) 0.8687(5) 0.2966(2)
H15_2 H 0.610638 0.862052 0.288944
C37_2 C 0.6665(5) 0.7108(5) 0.23210(16)
H16_2 H 0.697658 0.698327 0.221340
C38_2 C 0.8289(5) 0.5614(5) 0.37887(17)
H17_2 H 0.847537 0.531508 0.369408
C40_2 C 0.8497(4) 0.5641(5) 0.27304(18)
H18_2 H 0.864340 0.579126 0.289595
O25_2 O 0.5569(3) 0.8439(3) 0.20668(11)
N5_2 N 0.7758(4) 0.6890(4) 0.28838(19)
C42_2 C 0.6302(5) 0.7710(5) 0.35983(18)
C43_2 C 0.6113(4) 0.8817(4) 0.38243(15)
C44_2 C 0.5760(5) 0.7490(4) 0.26445(18)
H20_2 H 0.544349 0.760936 0.275036
C45_2 C 0.6605(5) 0.8507(5) 0.3894(2)
H21_2 H 0.687801 0.866759 0.401462
C46_2 C 0.6911(5) 0.8269(5) 0.2926(2)
H22_2 H 0.682686 0.792250 0.283498
C49_2 C 0.6087(5) 0.7020(5) 0.27275(18)
H24_2 H 0.599824 0.682884 0.289290
C50_2 C 0.6081(4) 0.9586(4) 0.31785(16)
C51_2 C 0.8084(5) 0.5411(5) 0.03007(19)
H25_2 H 0.816290 0.527573 0.047935
C53_2 C 0.9667(6) 0.6606(5) 0.2792(2)
H26_2 H 0.984595 0.663080 0.261873
O29_2 O 0.7876(3) 0.7975(3) 0.29926(19)
C55_2 C 0.6333(5) 0.7556(4) 0.22373(17)
H28_2 H 0.639829 0.771513 0.206192
C57_2 C 0.7711(4) 0.5310(5) 0.24626(18)
H29_2 H 0.731291 0.526171 0.243998
C58_2 C 0.7426(5) 0.8367(5) 0.3015(2)
C59_2 C 0.8871(4) 0.5466(5) 0.2512(2)
H30_2 H 0.926696 0.553751 0.252842
C60_2 C 0.9239(6) 0.7012(6) 0.2866(3)
H31_2 H 0.913284 0.731344 0.274798
C61_2 C 0.8169(6) 0.6187(6) 0.4197(2)
H32_2 H 0.827958 0.627915 0.437751
C62_2 C 0.7116(6) 0.9273(7) 0.3208(3)
H33_2 H 0.719386 0.960116 0.331470
C63_2 C 0.9138(5) 0.6547(6) 0.3313(2)
H34_2 H 0.896544 0.653881 0.348836
C64_2 C 0.7554(7) 0.8882(7) 0.3146(3)
H35_2 H 0.793569 0.896923 0.319217
C66_2 C 0.6923(13) 0.7982(12) 0.1182(6)
C67_2 C 0.7480(8) 0.7873(8) 0.0971(4)
H40_2 H 0.780585 0.767728 0.103546
C68_2 C 0.7079(6) 0.8433(6) 0.0621(3)
H41_2 H 0.709405 0.858929 0.044228
P6_2 P 0.78475(12) 0.75259(12) 0.02620(4)
N6_2 N 0.7303(4) 0.7134(4) 0.02726(15)
O31_2 O 0.4889(3) 0.9353(3) 0.00546(12)
O32_2 O 0.8446(3) 0.7185(3) 0.02916(11)
C70_2 C 0.7465(5) 0.8070(5) 0.0702(2)
O33_2 O 0.6270(3) 0.6978(3) 0.00466(15)
C73_2 C 0.5587(5) 0.8378(4) 0.01527(16)
H43_2 H 0.555422 0.865129 0.029454
O34_2 O 0.7905(3) 0.7902(4) 0.05393(11)
C74_2 C 0.5958(4) 0.7491(4) 0.00027(19)
C75_2 C 0.5903(5) 0.7878(5) 0.02000(18)
H44_2 H 0.607628 0.781603 0.037249
H46_2 H 0.721(5) 0.825(5) 0.123(3)
C77_2 C 0.9114(4) 0.6520(4) 0.04691(19)
H47_2 H 0.934605 0.660731 0.031611
C78_2 C 0.9296(4) 0.6117(4) 0.06559(16)
H48_2 H 0.963715 0.591227 0.062519
C79_2 C 0.9157(5) 0.5583(4) 0.10986(17)
O35_2 O 0.8990(3) 0.5609(3) 0.13459(11)
O36_2 O 0.9487(3) 0.5168(3) 0.10180(9)
C80_2 C 0.8962(4) 0.6012(4) 0.08979(15)
C81_2 C 0.8265(5) 0.6698(5) 0.07343(18)
H49_2 H 0.791339 0.688882 0.076037
C82_2 C 0.8466(5) 0.6307(5) 0.09282(17)
H50_2 H 0.824706 0.624504 0.108815
C83_2 C 0.8594(4) 0.6799(4) 0.05027(17)
C84_2 C 0.6619(7) 0.8595(7) 0.0812(3)
H51_2 H 0.632927 0.883770 0.074431
O37_2 O 0.5919(3) 0.9119(3) 0.12241(10)
C85_2 C 0.6581(5) 0.8435(6) 0.10615(19)
O38_2 O 0.5988(4) 0.8340(4) 0.14663(18)
C86_2 C 0.6139(5) 0.8668(6) 0.1253(2)
O63_2 O 0.9081(3) 0.4119(3) 0.12759(10)
O66_2 O 0.9655(3) 0.3604(3) 0.00017(12)
O78_2 O 0.9940(3) 0.3790(2) 0.16996(11)
O82_2 O 0.9431(3) 0.3439(3) 0.04332(11)
O85_2 O 0.9012(4) 0.3340(4) 0.10337(18)
C1_2 C 0.7982(12) 0.6923(13) 0.8818(6)
C2_2 C 0.8595(7) 0.6619(7) 0.9188(3)
H1_2 H 0.883770 0.632927 0.925569
C3_2 C 0.7873(8) 0.7480(8) 0.9029(4)
H2_2 H 0.767728 0.780585 0.896454
C4_2 C 0.8433(6) 0.7079(6) 0.9379(3)
H3_2 H 0.858929 0.709405 0.955772
P1_2 P 0.75259(12) 0.78475(12) 0.97380(4)
P4_3 P 0.69569(14) 0.69569(14) 1.000000
C11_2 C 0.6520(4) 0.9114(4) 0.95309(19)
H6_2 H 0.660731 0.934605 0.968389
C12_2 C 0.6117(4) 0.9296(4) 0.93441(16)
H7_2 H 0.591227 0.963715 0.937481
C13_2 C 0.5583(4) 0.9157(5) 0.89014(17)
N1_2 N 0.7134(4) 0.7303(4) 0.97274(15)
O11_2 O 0.5609(3) 0.8990(3) 0.86541(11)
O14_2 O 0.9353(3) 0.4889(3) 0.99454(12)
O15_2 O 0.5168(3) 0.9487(3) 0.89820(9)
O16_2 O 0.7185(3) 0.8446(3) 0.97084(11)
N2_3 N 0.7941(3) 0.7941(3) 1.000000
C24_2 C 0.8070(5) 0.7465(5) 0.9298(2)
O23_2 O 0.6978(3) 0.6270(3) 0.99534(15)
C30_2 C 0.8378(4) 0.5587(5) 0.98473(16)
H14_2 H 0.865129 0.555422 0.970546
O24_2 O 0.7902(4) 0.7905(3) 0.94607(11)
C34_2 C 0.6012(4) 0.8962(4) 0.91021(15)
C39_2 C 0.7491(4) 0.5958(4) 0.99973(19)
C41_2 C 0.7878(5) 0.5903(5) 0.98000(18)
H19_2 H 0.781603 0.607628 0.962751
C47_2 C 0.8435(6) 0.6581(5) 0.89385(19)
C48_2 C 0.6698(5) 0.8265(5) 0.92657(18)
H23_2 H 0.688882 0.791339 0.923963
C52_2 C 0.8668(6) 0.6139(5) 0.8747(2)
C54_2 C 0.6307(5) 0.8466(5) 0.90718(17)
H27_2 H 0.624504 0.824706 0.891185
C56_2 C 0.6799(4) 0.8594(4) 0.94973(17)
H39_2 H 0.825(5) 0.721(5) 0.877(3)
O30_2 O 0.4778(4) 0.9101(3) 0.96136(11)
C69_2 C 0.5327(4) 0.8481(4) 0.99083(15)
C71_2 C 0.4979(4) 0.9027(4) 0.98553(16)
C72_2 C 0.5693(5) 0.7570(5) 0.9752(2)
H42_2 H 0.570348 0.727949 0.961816
C76_2 C 0.5411(5) 0.8084(5) 0.96993(19)
H45_2 H 0.527573 0.816290 0.952065
C87_2 C 0.6452(6) 0.7685(5) 0.5918(2)
H52_2 H 0.672974 0.747669 0.581955
C88_2 C 0.6944(6) 0.8997(6) 0.6886(3)
C90_2 C 0.5888(5) 0.7815(5) 0.6326(2)
H53_2 H 0.579522 0.769140 0.650476
O39_2 O 0.7353(5) 0.8559(5) 0.6796(2)
P7_2 P 0.63877(12) 0.72712(13) 0.70776(5)
P8_2 P 0.68664(14) 0.69872(15) 0.65737(5)
P9_2 P 0.73426(15) 0.78844(15) 0.68835(8)
C91_2 C 0.5207(4) 0.8677(4) 0.77127(15)
O44_2 O 0.6353(3) 0.6875(3) 0.73472(11)
O45_2 O 0.9703(3) 0.5616(3) 0.61590(9)
O47_2 O 0.7181(3) 0.6375(3) 0.65390(12)
C93_2 C 0.5584(4) 0.7928(4) 0.73092(16)
O48_2 O 0.5554(4) 0.9071(4) 0.55738(18)
C94_2 C 0.5106(5) 0.8096(5) 0.7735(2)
H54_2 H 0.489622 0.795608 0.788596
C95_2 C 0.8011(4) 0.5814(4) 0.64680(14)
H55_2 H 0.785428 0.554750 0.659239
C96_2 C 0.7786(4) 0.5906(4) 0.76002(15)
C97_2 C 0.5033(4) 0.9083(4) 0.79388(16)
C98_2 C 0.6147(4) 0.9574(4) 0.6770(2)
H56_2 H 0.586251 0.968977 0.664460
C99_2 C 0.9170(4) 0.6559(4) 0.68903(16)
O49_2 O 0.6564(3) 0.7002(3) 0.62826(14)
C100_2 C 0.9403(5) 0.6039(4) 0.60705(16)
O51_2 O 0.4763(4) 0.8876(3) 0.81388(11)
O53_2 O 0.5749(3) 0.7535(3) 0.70912(11)
C101_2 C 0.8562(4) 0.5712(4) 0.63484(15)
H57_2 H 0.875468 0.536732 0.638718
O54_2 O 0.9641(4) 0.6385(3) 0.59031(15)
N7_2 N 0.7293(4) 0.7507(4) 0.66098(18)
C102_2 C 0.6296(6) 0.7529(5) 0.61747(19)
C103_2 C 0.7941(6) 0.6694(6) 0.6217(2)
H58_2 H 0.772793 0.701849 0.616513
C104_2 C 0.6836(4) 0.6533(5) 0.74297(19)
C105_2 C 0.5553(6) 0.9018(5) 0.5831(2)
N8_2 N 0.6386(3) 0.6888(4) 0.68049(14)
C106_2 C 0.5794(5) 0.8484(5) 0.5951(2)
C107_2 C 0.6163(4) 0.9824(4) 0.70212(15)
C108_2 C 0.8315(4) 0.5564(4) 0.76843(17)
C109_2 C 0.8687(5) 0.6471(5) 0.7034(2)
H59_2 H 0.862052 0.610638 0.711056
C110_2 C 0.7108(5) 0.6665(5) 0.76790(16)
H60_2 H 0.698327 0.697658 0.778660
C111_2 C 0.5614(5) 0.8289(5) 0.62113(17)
H61_2 H 0.531508 0.847537 0.630592
C112_2 C 0.5641(5) 0.8497(4) 0.72696(18)
H62_2 H 0.579126 0.864340 0.710405
N9_2 N 0.6890(4) 0.7758(4) 0.71162(19)
C113_2 C 0.7710(5) 0.6302(5) 0.64017(18)
C114_2 C 0.8817(4) 0.6113(4) 0.61757(15)
C115_2 C 0.7490(4) 0.5760(5) 0.73555(18)
H63_2 H 0.760936 0.544349 0.724964
C116_2 C 0.8507(5) 0.6605(5) 0.6106(2)
H64_2 H 0.866759 0.687801 0.598538
C117_2 C 0.8269(5) 0.6911(5) 0.7074(2)
H65_2 H 0.792250 0.682686 0.716502
C118_2 C 0.7020(5) 0.6087(5) 0.72725(18)
H66_2 H 0.682884 0.599824 0.710710
C119_2 C 0.9586(4) 0.6081(4) 0.68215(16)
C120_2 C 0.6606(5) 0.9667(6) 0.7208(2)
H67_2 H 0.663080 0.984595 0.738127
O58_2 O 0.7975(3) 0.7876(3) 0.70074(19)
C121_2 C 0.7556(4) 0.6333(5) 0.77627(17)
H68_2 H 0.771513 0.639829 0.793808
C122_2 C 0.5310(5) 0.7711(4) 0.75374(18)
H69_2 H 0.526171 0.731291 0.756002
C123_2 C 0.8367(5) 0.7426(5) 0.6985(2)
C124_2 C 0.5466(5) 0.8871(4) 0.7488(2)
H70_2 H 0.553751 0.926696 0.747158
C125_2 C 0.7012(6) 0.9239(6) 0.7134(3)
H71_2 H 0.731344 0.913284 0.725202
C126_2 C 0.6187(6) 0.8169(6) 0.5803(2)
H72_2 H 0.627915 0.827958 0.562249
C127_2 C 0.9273(7) 0.7116(6) 0.6792(3)
H73_2 H 0.960116 0.719386 0.668530
C128_2 C 0.6547(6) 0.9138(5) 0.6687(2)
H74_2 H 0.653881 0.896544 0.651164
C129_2 C 0.8882(7) 0.7554(7) 0.6854(3)
H75_2 H 0.896923 0.793569 0.680783
O77_2 O 0.3790(2) 0.9940(3) 0.83004(11)
C7_3 C 0.1821(6) 0.5579(7) 0.2095(3)
O4_3 O 0.0222(4) 0.4101(3) 0.28864(11)
O14_3 O 0.0111(3) 0.4353(3) 0.24454(12)
H8_3 H 0.010378 0.295608 0.461404
O19_3 O 0.0237(4) 0.3876(3) 0.43612(11)
O20_3 O 0.1602(4) 0.5197(5) 0.19471(19)
C26_3 C 0.0021(4) 0.4027(4) 0.26447(16)
O26_3 O 0.1538(4) 0.5815(4) 0.2302(2)
C65_3 C 0.2319(7) 0.5772(7) 0.2053(3)
H36_3 H 0.254611 0.548522 0.195719
H37_3 H 0.249939 0.586199 0.222822
H38_3 H 0.229541 0.611668 0.194162
O63_3 O 0.0881(3) 0.4081(3) 0.37759(10)
O66_3 O 0.1396(3) 0.4655(3) 0.25017(12)
O82_3 O 0.1561(3) 0.4431(3) 0.29332(11)
O85_3 O 0.1660(4) 0.4012(4) 0.35337(18)
C1_3 C 0.8077(13) 0.2982(12) 0.1318(6)
C2_3 C 0.8381(7) 0.3595(7) 0.1688(3)
H1_3 H 0.867073 0.383770 0.175569
C3_3 C 0.7520(8) 0.2873(8) 0.1529(4)
H2_3 H 0.719415 0.267728 0.146454
C4_3 C 0.7921(6) 0.3433(6) 0.1879(3)
H3_3 H 0.790595 0.358929 0.205772
C5_3 C 0.8548(6) 0.2685(5) 0.6582(2)
H4_3 H 0.827026 0.247669 0.668045
C6_3 C 0.8056(6) 0.3997(6) 0.5614(3)
C8_3 C 0.9112(5) 0.2815(5) 0.6174(2)
H5_3 H 0.920478 0.269140 0.599524
O1_3 O 0.7647(5) 0.3559(5) 0.5704(2)
P1_3 P 0.71525(12) 0.25259(12) 0.22380(4)
P2_3 P 0.86123(12) 0.22712(13) 0.54224(5)
P3_3 P 0.81336(14) 0.19872(15) 0.59263(5)
P4_4 P 0.80431(14) 0.19569(14) 0.250000
O2_3 O 0.9667(3) 0.5386(3) 0.55422(12)
O3_3 O 0.9670(4) 0.4382(4) 0.65077(16)
P5_3 P 0.76574(15) 0.28844(15) 0.56165(8)
C9_3 C 0.9793(4) 0.3677(4) 0.47873(15)
C10_3 C 0.9288(3) 0.5221(4) 0.53821(14)
C11_3 C 0.5886(4) 0.1520(4) 0.20309(19)
H6_3 H 0.565395 0.160731 0.218389
C12_3 C 0.5704(4) 0.1117(4) 0.18441(16)
H7_3 H 0.536285 0.091227 0.187481
O6_3 O 0.6396(3) 0.0345(3) 0.49983(12)
C13_3 C 0.5843(5) 0.0583(4) 0.14014(17)
N1_3 N 0.7697(4) 0.2134(4) 0.22274(15)
O7_3 O 0.9808(3) 0.4604(3) 0.45564(11)
O8_3 O 0.8647(3) 0.1875(3) 0.51528(11)
O11_3 O 0.6010(3) 0.0609(3) 0.11541(11)
O12_3 O 0.7819(3) 0.1375(3) 0.59610(12)
C14_3 C 0.9416(4) 0.2928(4) 0.51908(16)
O15_3 O 0.5513(3) 0.0168(3) 0.14820(9)
O16_3 O 0.6554(3) 0.2185(3) 0.22084(11)
C15_3 C 0.9894(5) 0.3096(5) 0.4765(2)
C16_3 C 0.6989(4) 0.0814(4) 0.60320(14)
H9_3 H 0.714572 0.054750 0.590761
C17_3 C 0.7214(4) 0.0906(4) 0.48998(15)
C18_3 C 0.9967(4) 0.4083(4) 0.45612(16)
N2_4 N 0.7059(3) 0.2941(3) 0.250000
C19_3 C 0.8853(4) 0.4574(4) 0.5730(2)
H10_3 H 0.913749 0.468977 0.585540
C20_3 C 0.9673(4) 0.3481(4) 0.25917(15)
C21_3 C 0.5830(4) 0.1559(4) 0.56097(16)
O17_3 O 0.8436(3) 0.2002(3) 0.62174(14)
C22_3 C 0.5597(5) 0.1039(4) 0.64295(16)
O21_3 O 0.9251(3) 0.2535(3) 0.54088(11)
C23_3 C 0.6438(4) 0.0712(4) 0.61516(15)
H11_3 H 0.624532 0.036732 0.611282
C24_3 C 0.7535(5) 0.3070(5) 0.1798(2)
N3_3 N 0.7707(4) 0.2507(4) 0.58902(18)
O23_3 O 0.8730(3) 0.1978(3) 0.24534(15)
C25_3 C 0.8704(6) 0.2529(5) 0.63253(19)
C27_3 C 0.7059(6) 0.1694(6) 0.6283(2)
H12_3 H 0.727207 0.201849 0.633487
C28_3 C 0.9307(5) 0.2570(5) 0.2748(2)
H13_3 H 0.929652 0.227949 0.288184
C29_3 C 0.8164(4) 0.1533(5) 0.50703(19)
C30_3 C 0.9413(5) 0.3378(4) 0.23473(16)
H14_3 H 0.944578 0.365129 0.220546
O24_3 O 0.7095(3) 0.2902(4) 0.19607(11)
C31_3 C 0.9447(6) 0.4018(5) 0.6669(2)
N4_3 N 0.8614(3) 0.1888(4) 0.56951(14)
C32_3 C 0.9206(5) 0.3484(5) 0.6549(2)
C33_3 C 0.8837(4) 0.4824(4) 0.54788(15)
C34_3 C 0.6038(4) 0.1012(4) 0.16021(15)
C35_3 C 0.6685(4) 0.0564(4) 0.48157(17)
C36_3 C 0.6313(5) 0.1471(5) 0.5466(2)
H15_3 H 0.637948 0.110638 0.538944
C37_3 C 0.7892(5) 0.1665(5) 0.48210(16)
H16_3 H 0.801673 0.197658 0.471340
C38_3 C 0.9386(5) 0.3289(5) 0.62887(17)
H17_3 H 0.968492 0.347537 0.619408
C39_3 C 0.9042(4) 0.2491(4) 0.24973(19)
C40_3 C 0.9359(5) 0.3497(4) 0.52304(18)
H18_3 H 0.920874 0.364340 0.539595
O25_3 O 0.6561(3) 0.0569(3) 0.45668(11)
C41_3 C 0.9097(5) 0.2878(5) 0.23000(18)
H19_3 H 0.892372 0.281603 0.212751
N5_3 N 0.8110(4) 0.2758(4) 0.53838(19)
C42_3 C 0.7290(5) 0.1302(5) 0.60983(18)
C43_3 C 0.6183(4) 0.1113(4) 0.63243(15)
C44_3 C 0.7510(4) 0.0760(5) 0.51445(18)
H20_3 H 0.739064 0.044349 0.525036
C45_3 C 0.6493(5) 0.1605(5) 0.6394(2)
H21_3 H 0.633241 0.187801 0.651462
C46_3 C 0.6731(5) 0.1911(5) 0.5426(2)
H22_3 H 0.707750 0.182686 0.533498
C47_3 C 0.8419(5) 0.3435(6) 0.14385(19)
C48_3 C 0.6735(5) 0.1698(5) 0.17657(18)
H23_3 H 0.708661 0.188882 0.173963
O27_3 O 0.9275(3) 0.5384(3) 0.51263(10)
C49_3 C 0.7980(5) 0.1087(5) 0.52275(18)
H24_3 H 0.817116 0.099824 0.539290
C50_3 C 0.5414(4) 0.1081(4) 0.56785(16)
C51_3 C 0.9589(5) 0.3084(5) 0.28007(19)
H25_3 H 0.972427 0.316290 0.297935
C52_3 C 0.8861(5) 0.3668(6) 0.1247(2)
C53_3 C 0.8394(5) 0.4667(6) 0.5292(2)
H26_3 H 0.836920 0.484595 0.511873
O29_3 O 0.7025(3) 0.2876(3) 0.54926(19)
C54_3 C 0.6534(5) 0.1307(5) 0.15718(17)
H27_3 H 0.675294 0.124504 0.141185
C55_3 C 0.7444(4) 0.1333(5) 0.47373(17)
H28_3 H 0.728487 0.139829 0.456192
C56_3 C 0.6406(4) 0.1799(4) 0.19973(17)
C57_3 C 0.9690(5) 0.2711(4) 0.49626(18)
H29_3 H 0.973829 0.231291 0.493998
C58_3 C 0.6633(5) 0.2426(5) 0.5515(2)
C59_3 C 0.9534(5) 0.3871(4) 0.5012(2)
H30_3 H 0.946249 0.426696 0.502842
C60_3 C 0.7988(6) 0.4239(6) 0.5366(3)
H31_3 H 0.768656 0.413284 0.524798
C61_3 C 0.8813(6) 0.3169(6) 0.6697(2)
H32_3 H 0.872085 0.327958 0.687751
C62_3 C 0.5727(7) 0.2116(6) 0.5708(3)
H33_3 H 0.539884 0.219386 0.581470
C63_3 C 0.8453(6) 0.4138(5) 0.5813(2)
H34_3 H 0.846119 0.396544 0.598836
C64_3 C 0.6118(7) 0.2554(7) 0.5646(3)
H35_3 H 0.603077 0.293569 0.569217
H39_3 H 0.779(5) 0.325(5) 0.127(3)
C66_3 C 0.7018(12) 0.1923(13) 0.3682(6)
C67_3 C 0.7127(8) 0.2480(8) 0.3471(4)
H40_3 H 0.732272 0.280585 0.353546
C68_3 C 0.6567(6) 0.2079(6) 0.3121(3)
H41_3 H 0.641071 0.209405 0.294228
P6_3 P 0.74741(12) 0.28475(12) 0.27620(4)
N6_3 N 0.7866(4) 0.2303(4) 0.27726(15)
O32_3 O 0.7815(3) 0.3446(3) 0.27916(11)
C69_3 C 0.6519(4) 0.0327(4) 0.24083(15)
C70_3 C 0.6930(5) 0.2465(5) 0.3202(2)
O33_3 O 0.8022(3) 0.1270(3) 0.25466(15)
C72_3 C 0.7430(5) 0.0693(5) 0.2252(2)
H42_3 H 0.772051 0.070348 0.211816
C73_3 C 0.6622(4) 0.0587(5) 0.26527(16)
H43_3 H 0.634871 0.055422 0.279454
O34_3 O 0.7098(4) 0.2905(3) 0.30393(11)
C74_3 C 0.7509(4) 0.0958(4) 0.25027(19)
C75_3 C 0.7122(5) 0.0903(5) 0.27000(18)
H44_3 H 0.718397 0.107628 0.287249
C76_3 C 0.6916(5) 0.0411(5) 0.21993(19)
H45_3 H 0.683710 0.027573 0.202065
H46_3 H 0.675(5) 0.221(5) 0.373(3)
C77_3 C 0.8480(4) 0.4114(4) 0.29691(19)
H47_3 H 0.839269 0.434605 0.281611
C78_3 C 0.8883(4) 0.4296(4) 0.31559(16)
H48_3 H 0.908773 0.463715 0.312519
C79_3 C 0.9417(4) 0.4157(5) 0.35986(17)
O35_3 O 0.9391(3) 0.3990(3) 0.38459(11)
O36_3 O 0.9832(3) 0.4487(3) 0.35180(9)
C80_3 C 0.8988(4) 0.3962(4) 0.33979(15)
C81_3 C 0.8302(5) 0.3265(5) 0.32343(18)
H49_3 H 0.811118 0.291339 0.326037
C82_3 C 0.8693(5) 0.3466(5) 0.34282(17)
H50_3 H 0.875496 0.324706 0.358815
C83_3 C 0.8201(4) 0.3594(4) 0.30027(17)
C84_3 C 0.6405(7) 0.1619(7) 0.3312(3)
H51_3 H 0.616230 0.132927 0.324431
O37_3 O 0.5881(3) 0.0919(3) 0.37241(10)
C85_3 C 0.6565(6) 0.1581(5) 0.35615(19)
O38_3 O 0.6660(4) 0.0988(4) 0.39663(18)
C86_3 C 0.6332(6) 0.1139(5) 0.3753(2)
C91_3 C 0.6323(4) 0.0207(4) 0.02127(15)
C94_3 C 0.6904(5) 0.0106(5) 0.0235(2)
C96_3 C 0.9094(4) 0.2786(4) 0.01002(15)
C97_3 C 0.5917(4) 0.0033(4) 0.04388(16)
C108_3 C 0.9436(4) 0.3315(4) 0.01843(17)
C110_3 C 0.8335(5) 0.2108(5) 0.01790(16)
H60_3 H 0.802342 0.198327 0.028660
C121_3 C 0.8667(5) 0.2556(4) 0.02627(17)
H68_3 H 0.860171 0.271513 0.043808
C122_3 C 0.7289(4) 0.0310(5) 0.00374(18)
H69_3 H 0.768709 0.026171 0.006002
O62_3 O 0.4670(4) 0.0618(4) 0.09923(16)
O68_3 O 0.4808(3) 0.0396(3) 0.29436(11)
C87_3 C 0.7315(5) 0.1452(6) 0.8418(2)
H52_3 H 0.752331 0.172974 0.831955
C88_3 C 0.6003(6) 0.1944(6) 0.9386(3)
C90_3 C 0.7185(5) 0.0888(5) 0.8826(2)
H53_3 H 0.730860 0.079522 0.900476
O39_3 O 0.6441(5) 0.2353(5) 0.9296(2)
P7_3 P 0.77288(13) 0.13877(12) 0.95776(5)
P8_3 P 0.80128(15) 0.18664(14) 0.90737(5)
P9_3 P 0.71156(15) 0.23426(15) 0.93835(8)
C92_3 C 0.4779(4) 0.0712(3) 0.96179(14)
O44_3 O 0.8125(3) 0.1353(3) 0.98472(11)
O47_3 O 0.8625(3) 0.2181(3) 0.90390(12)
C93_3 C 0.7072(4) 0.0584(4) 0.98092(16)
C95_3 C 0.9186(4) 0.3011(4) 0.89680(14)
H55_3 H 0.945250 0.285428 0.909239
C98_3 C 0.5426(4) 0.1147(4) 0.9270(2)
H56_3 H 0.531023 0.086251 0.914460
C99_3 C 0.8441(4) 0.4170(4) 0.93903(16)
O49_3 O 0.7998(3) 0.1564(3) 0.87826(14)
C100_3 C 0.8961(4) 0.4403(5) 0.85705(16)
O53_3 O 0.7465(3) 0.0749(3) 0.95912(11)
C101_3 C 0.9288(4) 0.3562(4) 0.88484(15)
H57_3 H 0.963268 0.375468 0.888718
N7_3 N 0.7493(4) 0.2293(4) 0.91098(18)
C102_3 C 0.7471(5) 0.1296(6) 0.86747(19)
C103_3 C 0.8306(6) 0.2941(6) 0.8717(2)
H58_3 H 0.798151 0.272793 0.866513
C104_3 C 0.8467(5) 0.1836(4) 0.99297(19)
C105_3 C 0.5982(5) 0.0553(6) 0.8331(2)
N8_3 N 0.8112(4) 0.1386(3) 0.93049(14)
C106_3 C 0.6516(5) 0.0794(5) 0.8451(2)
C107_3 C 0.5176(4) 0.1163(4) 0.95212(15)
C109_3 C 0.8529(5) 0.3687(5) 0.9534(2)
H59_3 H 0.889362 0.362052 0.961056
C111_3 C 0.6711(5) 0.0614(5) 0.87113(17)
H61_3 H 0.652463 0.031508 0.880592
C112_3 C 0.6503(4) 0.0641(5) 0.97696(18)
H62_3 H 0.635660 0.079126 0.960405
N9_3 N 0.7242(4) 0.1890(4) 0.96162(19)
C113_3 C 0.8698(5) 0.2710(5) 0.89017(18)
C114_3 C 0.8887(4) 0.3817(4) 0.86757(15)
C115_3 C 0.9240(5) 0.2490(4) 0.98555(18)
H63_3 H 0.955651 0.260936 0.974964
C116_3 C 0.8395(5) 0.3507(5) 0.8606(2)
H64_3 H 0.812199 0.366759 0.848538
C117_3 C 0.8089(5) 0.3269(5) 0.9574(2)
H65_3 H 0.817314 0.292250 0.966502
C118_3 C 0.8913(5) 0.2020(5) 0.97725(18)
H66_3 H 0.900176 0.182884 0.960710
C119_3 C 0.8919(4) 0.4586(4) 0.93215(16)
C120_3 C 0.5333(6) 0.1606(5) 0.9708(2)
H67_3 H 0.515405 0.163080 0.988127
O58_3 O 0.7124(3) 0.2975(3) 0.95074(19)
C123_3 C 0.7574(5) 0.3367(5) 0.9485(2)
C124_3 C 0.6129(4) 0.0466(5) 0.9988(2)
H70_3 H 0.573304 0.053751 0.997158
C125_3 C 0.5761(6) 0.2012(6) 0.9634(3)
H71_3 H 0.586716 0.231344 0.975202
C126_3 C 0.6831(6) 0.1187(6) 0.8303(2)
H72_3 H 0.672042 0.127915 0.812249
C127_3 C 0.7884(6) 0.4273(7) 0.9292(3)
H73_3 H 0.780614 0.460116 0.918530
C128_3 C 0.5862(5) 0.1547(6) 0.9187(2)
H74_3 H 0.603456 0.153881 0.901164
C129_3 C 0.7446(7) 0.3882(7) 0.9354(3)
H75_3 H 0.706431 0.396923 0.930783
O30_3 O 0.5899(3) 0.9778(4) 0.21136(11)
O31_3 O 0.5647(3) 0.9889(3) 0.25546(12)
C71_3 C 0.5973(4) 0.9979(4) 0.23553(16)
C89_3 C 0.4421(7) 0.8179(6) 0.2905(3)
H54_3 H 0.704392 0.989622 0.038596
O51_3 O 0.6124(3) 0.9763(4) 0.06388(11)
O52_3 O 0.4803(5) 0.8398(4) 0.30529(19)
O56_3 O 0.4185(4) 0.8462(4) 0.2698(2)
C130_3 C 0.4228(7) 0.7681(7) 0.2947(3)
H76_3 H 0.451478 0.745389 0.304281
H77_3 H 0.413801 0.750061 0.277178
H78_3 H 0.388332 0.770459 0.305838
O60_3 O 0.4667(3) 0.9614(3) 0.19578(12)
O84_3 O 0.4275(3) 0.9616(3) 0.23737(10)
C1_4 C 0.2018(12) 0.3077(13) 0.3818(6)
C2_4 C 0.1405(7) 0.3381(7) 0.4188(3)
H1_4 H 0.116230 0.367073 0.425569
C3_4 C 0.2127(8) 0.2520(8) 0.4029(4)
H2_4 H 0.232272 0.219415 0.396454
C4_4 C 0.1567(6) 0.2921(6) 0.4379(3)
H3_4 H 0.141071 0.290595 0.455772
C5_4 C 0.2315(5) 0.3548(6) 0.9082(2)
H4_4 H 0.252331 0.327026 0.918045
C6_4 C 0.1003(6) 0.3056(6) 0.8114(3)
C8_4 C 0.2185(5) 0.4112(5) 0.8674(2)
H5_4 H 0.230860 0.420478 0.849524
O1_4 O 0.1441(5) 0.2647(5) 0.8204(2)
P1_4 P 0.24741(12) 0.21525(12) 0.47380(4)
P2_4 P 0.27288(13) 0.36123(12) 0.79224(5)
P3_4 P 0.30128(15) 0.31336(14) 0.84263(5)
P4_5 P 0.30431(14) 0.30431(14) 0.500000
P5_4 P 0.21156(15) 0.26574(15) 0.81165(8)
C9_4 C 0.1323(4) 0.4793(4) 0.72873(15)
O4_4 O 0.0899(3) 0.5222(4) 0.53864(11)
C11_4 C 0.3480(4) 0.0886(4) 0.45309(19)
H6_4 H 0.339269 0.065395 0.468389
C12_4 C 0.3883(4) 0.0704(4) 0.43441(16)
H7_4 H 0.408773 0.036285 0.437481
C13_4 C 0.4417(4) 0.0843(5) 0.39014(17)
N1_4 N 0.2866(4) 0.2697(4) 0.47274(15)
O8_4 O 0.3125(3) 0.3647(3) 0.76528(11)
O11_4 O 0.4391(3) 0.1010(3) 0.36541(11)
O12_4 O 0.3625(3) 0.2819(3) 0.84610(12)
C14_4 C 0.2072(4) 0.4416(4) 0.76908(16)
O14_4 O 0.0647(3) 0.5111(3) 0.49454(12)
O15_4 O 0.4832(3) 0.0513(3) 0.39820(9)
O16_4 O 0.2815(3) 0.1554(3) 0.47084(11)
C15_4 C 0.1904(5) 0.4894(5) 0.7265(2)
H8_4 H 0.204392 0.510378 0.711404
C16_4 C 0.4186(4) 0.1989(4) 0.85320(14)
H9_4 H 0.445250 0.214572 0.840761
C17_4 C 0.4094(4) 0.2214(4) 0.73998(15)
C18_4 C 0.0917(4) 0.4967(4) 0.70612(16)
N2_5 N 0.2059(3) 0.2059(3) 0.500000
C19_4 C 0.0426(4) 0.3853(4) 0.8230(2)
H10_4 H 0.031023 0.413749 0.835540
C20_4 C 0.1519(4) 0.4673(4) 0.50917(15)
C21_4 C 0.3441(4) 0.0830(4) 0.81097(16)
O17_4 O 0.2998(3) 0.3436(3) 0.87174(14)
C22_4 C 0.3961(4) 0.0597(5) 0.89295(16)
O19_4 O 0.1124(3) 0.5237(4) 0.68612(11)
O21_4 O 0.2465(3) 0.4251(3) 0.79088(11)
C23_4 C 0.4288(4) 0.1438(4) 0.86516(15)
H11_4 H 0.463268 0.124532 0.861282
C24_4 C 0.1930(5) 0.2535(5) 0.4298(2)
N3_4 N 0.2493(4) 0.2707(4) 0.83902(18)
O23_4 O 0.3022(3) 0.3730(3) 0.49534(15)
C25_4 C 0.2471(5) 0.3704(6) 0.88253(19)
C26_4 C 0.0973(4) 0.5021(4) 0.51447(16)
C27_4 C 0.3306(6) 0.2059(6) 0.8783(2)
H12_4 H 0.298151 0.227207 0.883487
C28_4 C 0.2430(5) 0.4307(5) 0.5248(2)
H13_4 H 0.272051 0.429652 0.538184
C29_4 C 0.3467(5) 0.3164(4) 0.75703(19)
C30_4 C 0.1622(4) 0.4413(5) 0.48473(16)
H14_4 H 0.134871 0.444578 0.470546
O24_4 O 0.2098(4) 0.2095(3) 0.44607(11)
C31_4 C 0.0982(5) 0.4447(6) 0.9169(2)
N4_4 N 0.3112(4) 0.3614(3) 0.81951(14)
C32_4 C 0.1516(5) 0.4206(5) 0.9049(2)
C33_4 C 0.0176(4) 0.3837(4) 0.79788(15)
C34_4 C 0.3988(4) 0.1038(4) 0.41021(15)
C35_4 C 0.4436(4) 0.1685(4) 0.73157(17)
C36_4 C 0.3529(5) 0.1313(5) 0.7966(2)
H15_4 H 0.389362 0.137948 0.788944
C37_4 C 0.3335(5) 0.2892(5) 0.73210(16)
H16_4 H 0.302342 0.301673 0.721340
C38_4 C 0.1711(5) 0.4386(5) 0.87887(17)
H17_4 H 0.152463 0.468492 0.869408
C39_4 C 0.2509(4) 0.4042(4) 0.49973(19)
C40_4 C 0.1503(4) 0.4359(5) 0.77304(18)
H18_4 H 0.135660 0.420874 0.789595
C41_4 C 0.2122(5) 0.4097(5) 0.48000(18)
H19_4 H 0.218397 0.392372 0.462751
N5_4 N 0.2242(4) 0.3110(4) 0.78838(19)
C42_4 C 0.3698(5) 0.2290(5) 0.85983(18)
C43_4 C 0.3887(4) 0.1183(4) 0.88243(15)
C44_4 C 0.4240(5) 0.2510(4) 0.76445(18)
H20_4 H 0.455651 0.239064 0.775036
C45_4 C 0.3395(5) 0.1493(5) 0.8894(2)
H21_4 H 0.312199 0.133241 0.901462
C46_4 C 0.3089(5) 0.1731(5) 0.7926(2)
H22_4 H 0.317314 0.207750 0.783498
C47_4 C 0.1565(6) 0.3419(5) 0.39385(19)
C48_4 C 0.3302(5) 0.1735(5) 0.42657(18)
H23_4 H 0.311118 0.208661 0.423963
C49_4 C 0.3913(5) 0.2980(5) 0.77275(18)
H24_4 H 0.400176 0.317116 0.789290
C50_4 C 0.3919(4) 0.0414(4) 0.81785(16)
C51_4 C 0.1916(5) 0.4589(5) 0.53007(19)
H25_4 H 0.183710 0.472427 0.547935
C52_4 C 0.1332(6) 0.3861(5) 0.3747(2)
C53_4 C 0.0333(6) 0.3394(5) 0.7792(2)
H26_4 H 0.015405 0.336920 0.761873
O29_4 O 0.2124(3) 0.2025(3) 0.79926(19)
C54_4 C 0.3693(5) 0.1534(5) 0.40718(17)
H27_4 H 0.375496 0.175294 0.391185
C55_4 C 0.3667(5) 0.2444(4) 0.72373(17)
H28_4 H 0.360171 0.228487 0.706192
C56_4 C 0.3201(4) 0.1406(4) 0.44973(17)
C57_4 C 0.2289(4) 0.4690(5) 0.74626(18)
H29_4 H 0.268709 0.473829 0.743998
C58_4 C 0.2574(5) 0.1633(5) 0.8015(2)
C59_4 C 0.1129(4) 0.4534(5) 0.7512(2)
H30_4 H 0.073304 0.446249 0.752842
C60_4 C 0.0761(6) 0.2988(6) 0.7866(3)
H31_4 H 0.086716 0.268656 0.774798
C61_4 C 0.1831(6) 0.3813(6) 0.9197(2)
H32_4 H 0.172042 0.372085 0.937751
C62_4 C 0.2884(6) 0.0727(7) 0.8208(3)
H33_4 H 0.280614 0.039884 0.831470
C63_4 C 0.0862(5) 0.3453(6) 0.8313(2)
H34_4 H 0.103456 0.346119 0.848836
C64_4 C 0.2446(7) 0.1118(7) 0.8146(3)
H35_4 H 0.206431 0.103077 0.819217
H39_4 H 0.175(5) 0.279(5) 0.377(3)
C66_4 C 0.3077(13) 0.2018(12) 0.6182(6)
C67_4 C 0.2520(8) 0.2127(8) 0.5971(4)
H40_4 H 0.219415 0.232272 0.603546
C68_4 C 0.2921(6) 0.1567(6) 0.5621(3)
H41_4 H 0.290595 0.141071 0.544228
P6_4 P 0.21525(12) 0.24741(12) 0.52620(4)
O30_4 O 0.5222(4) 0.0899(3) 0.46136(11)
N6_4 N 0.2697(4) 0.2866(4) 0.52726(15)
O31_4 O 0.5111(3) 0.0647(3) 0.50546(12)
O32_4 O 0.1554(3) 0.2815(3) 0.52916(11)
C69_4 C 0.4673(4) 0.1519(4) 0.49083(15)
C70_4 C 0.2535(5) 0.1930(5) 0.5702(2)
O33_4 O 0.3730(3) 0.3022(3) 0.50466(15)
C71_4 C 0.5021(4) 0.0973(4) 0.48553(16)
C72_4 C 0.4307(5) 0.2430(5) 0.4752(2)
H42_4 H 0.429652 0.272051 0.461816
C73_4 C 0.4413(5) 0.1622(4) 0.51527(16)
H43_4 H 0.444578 0.134871 0.529454
O34_4 O 0.2095(3) 0.2098(4) 0.55393(11)
C74_4 C 0.4042(4) 0.2509(4) 0.50027(19)
C75_4 C 0.4097(5) 0.2122(5) 0.52000(18)
H44_4 H 0.392372 0.218397 0.537249
C76_4 C 0.4589(5) 0.1916(5) 0.46993(19)
H45_4 H 0.472427 0.183710 0.452065
H46_4 H 0.279(5) 0.175(5) 0.623(3)
C77_4 C 0.0886(4) 0.3480(4) 0.54691(19)
H47_4 H 0.065395 0.339269 0.531611
C78_4 C 0.0704(4) 0.3883(4) 0.56559(16)
H48_4 H 0.036285 0.408773 0.562519
C79_4 C 0.0843(5) 0.4417(4) 0.60986(17)
O35_4 O 0.1010(3) 0.4391(3) 0.63459(11)
O36_4 O 0.0513(3) 0.4832(3) 0.60180(9)
C80_4 C 0.1038(4) 0.3988(4) 0.58979(15)
C81_4 C 0.1735(5) 0.3302(5) 0.57343(18)
H49_4 H 0.208661 0.311118 0.576037
C82_4 C 0.1534(5) 0.3693(5) 0.59282(17)
H50_4 H 0.175294 0.375496 0.608815
C83_4 C 0.1406(4) 0.3201(4) 0.55027(17)
C84_4 C 0.3381(7) 0.1405(7) 0.5812(3)
H51_4 H 0.367073 0.116230 0.574431
C85_4 C 0.3419(5) 0.1565(6) 0.60615(19)
C86_4 C 0.3861(5) 0.1332(6) 0.6253(2)
C87_4 C 0.3548(6) 0.2315(5) 0.0918(2)
H52_4 H 0.327026 0.252331 0.081955
C88_4 C 0.3056(6) 0.1003(6) 0.1886(3)
C90_4 C 0.4112(5) 0.2185(5) 0.1326(2)
H53_4 H 0.420478 0.230860 0.150476
O39_4 O 0.2647(5) 0.1441(5) 0.1796(2)
P7_4 P 0.36123(12) 0.27288(13) 0.20776(5)
P8_4 P 0.31336(14) 0.30128(15) 0.15737(5)
P9_4 P 0.26574(15) 0.21156(15) 0.18835(8)
C91_4 C 0.4793(4) 0.1323(4) 0.27127(15)
O44_4 O 0.3647(3) 0.3125(3) 0.23472(11)
O47_4 O 0.2819(3) 0.3625(3) 0.15390(12)
C93_4 C 0.4416(4) 0.2072(4) 0.23092(16)
C94_4 C 0.4894(5) 0.1904(5) 0.2735(2)
H54_4 H 0.510378 0.204392 0.288596
C95_4 C 0.1989(4) 0.4186(4) 0.14680(14)
H55_4 H 0.214572 0.445250 0.159239
C96_4 C 0.2214(4) 0.4094(4) 0.26002(15)
C97_4 C 0.4967(4) 0.0917(4) 0.29388(16)
C98_4 C 0.3853(4) 0.0426(4) 0.1770(2)
H56_4 H 0.413749 0.031023 0.164460
C99_4 C 0.0830(4) 0.3441(4) 0.18903(16)
O49_4 O 0.3436(3) 0.2998(3) 0.12826(14)
C100_4 C 0.0597(5) 0.3961(4) 0.10705(16)
O51_4 O 0.5237(4) 0.1124(3) 0.31388(11)
O53_4 O 0.4251(3) 0.2465(3) 0.20912(11)
C101_4 C 0.1438(4) 0.4288(4) 0.13484(15)
H57_4 H 0.124532 0.463268 0.138718
N7_4 N 0.2707(4) 0.2493(4) 0.16098(18)
C102_4 C 0.3704(6) 0.2471(5) 0.11747(19)
C103_4 C 0.2059(6) 0.3306(6) 0.1217(2)
H58_4 H 0.227207 0.298151 0.116513
C104_4 C 0.3164(4) 0.3467(5) 0.24297(19)
C105_4 C 0.4447(6) 0.0982(5) 0.0831(2)
N8_4 N 0.3614(3) 0.3112(4) 0.18049(14)
C106_4 C 0.4206(5) 0.1516(5) 0.0951(2)
C107_4 C 0.3837(4) 0.0176(4) 0.20212(15)
C108_4 C 0.1685(4) 0.4436(4) 0.26843(17)
C109_4 C 0.1313(5) 0.3529(5) 0.2034(2)
H59_4 H 0.137948 0.389362 0.211056
C110_4 C 0.2892(5) 0.3335(5) 0.26790(16)
H60_4 H 0.301673 0.302342 0.278660
C111_4 C 0.4386(5) 0.1711(5) 0.12113(17)
H61_4 H 0.468492 0.152463 0.130592
C112_4 C 0.4359(5) 0.1503(4) 0.22696(18)
H62_4 H 0.420874 0.135660 0.210405
N9_4 N 0.3110(4) 0.2242(4) 0.21162(19)
C113_4 C 0.2290(5) 0.3698(5) 0.14017(18)
C114_4 C 0.1183(4) 0.3887(4) 0.11757(15)
C115_4 C 0.2510(4) 0.4240(5) 0.23555(18)
H63_4 H 0.239064 0.455651 0.224964
C116_4 C 0.1493(5) 0.3395(5) 0.1106(2)
H64_4 H 0.133241 0.312199 0.098538
C117_4 C 0.1731(5) 0.3089(5) 0.2074(2)
H65_4 H 0.207750 0.317314 0.216502
C118_4 C 0.2980(5) 0.3913(5) 0.22725(18)
H66_4 H 0.317116 0.400176 0.210710
C119_4 C 0.0414(4) 0.3919(4) 0.18215(16)
C120_4 C 0.3394(5) 0.0333(6) 0.2208(2)
H67_4 H 0.336920 0.015405 0.238127
O58_4 O 0.2025(3) 0.2124(3) 0.20074(19)
C121_4 C 0.2444(4) 0.3667(5) 0.27627(17)
H68_4 H 0.228487 0.360171 0.293808
C122_4 C 0.4690(5) 0.2289(4) 0.25374(18)
H69_4 H 0.473829 0.268709 0.256002
C123_4 C 0.1633(5) 0.2574(5) 0.1985(2)
C124_4 C 0.4534(5) 0.1129(4) 0.2488(2)
H70_4 H 0.446249 0.073304 0.247158
C125_4 C 0.2988(6) 0.0761(6) 0.2134(3)
H71_4 H 0.268656 0.086716 0.225202
C126_4 C 0.3813(6) 0.1831(6) 0.0803(2)
H72_4 H 0.372085 0.172042 0.062249
C127_4 C 0.0727(7) 0.2884(6) 0.1792(3)
H73_4 H 0.039884 0.280614 0.168530
C128_4 C 0.3453(6) 0.0862(5) 0.1687(2)
H74_4 H 0.346119 0.103456 0.151164
C129_4 C 0.1118(7) 0.2446(7) 0.1854(3)
H75_4 H 0.103077 0.206431 0.180783
C89_4 C 0.6821(6) 0.9421(7) 0.5405(3)
C92_4 C 0.4288(3) 0.9779(4) 0.21179(14)
O52_4 O 0.6602(4) 0.9803(5) 0.55529(19)
O56_4 O 0.6538(4) 0.9185(4) 0.5198(2)
C130_4 C 0.7319(7) 0.9228(7) 0.5447(3)
H76_4 H 0.754611 0.951478 0.554281
H77_4 H 0.749939 0.913801 0.527178
H78_4 H 0.729541 0.888332 0.555838
C7_4 C 0.9421(7) 0.6821(6) 0.4595(3)
C10_4 C 0.9779(4) 0.4288(3) 0.78821(14)
O20_4 O 0.9803(5) 0.6602(4) 0.44471(19)
O26_4 O 0.9185(4) 0.6538(4) 0.4802(2)
C65_4 C 0.9228(7) 0.7319(7) 0.4553(3)
H36_4 H 0.951478 0.754611 0.445719
H37_4 H 0.913801 0.749939 0.472822
H38_4 H 0.888332 0.729541 0.444162
loop_
_geom_bond_atom_site_label_1
_geom_bond_atom_site_label_2
_geom_bond_site_symmetry_1
_geom_bond_site_symmetry_2
O30 C71 1_555 1_555
O31 C71 1_555 1_555
C89 O52 1_555 1_555
Ce6 O31 1_555 1_555
O51 Ce4 1_555 1_555
O52 Ce6 1_555 1_555
O56 C89 1_555 1_555
C130 C89 1_555 1_555
H76 C130 1_555 1_555
H77 C130 1_555 1_555
H78 C130 1_555 1_555
O60 Ce5 1_555 1_555
O64 Ce4 1_555 1_555
O65 Ce6 1_555 1_555
O69 Ce4 1_555 1_555
O71 Ce4 1_555 1_555
O72 Ce6 1_555 1_555
O76 Ce6 1_555 1_555
O77 Ce4 1_555 1_555
O79 Ce5 1_555 1_555
O81 Ce5 1_555 1_555
O84 Ce6 1_555 1_555
O86 Ce5 1_555 1_555
O30 Ce5 1_555 1_555
Ce5 O64 1_555 1_555
Ce5 O69 1_555 1_555
Ce6 O56 1_555 1_555
C5 H4 1_555 1_555
C6 O1 1_555 1_555
C8 H5 1_555 1_555
O1 P5 1_555 1_555
P2 O8 1_555 1_555
P3 O12 1_555 1_555
O2 C10 1_555 1_555
O3 C31 1_555 1_555
P5 N3 1_555 1_555
C10 C33 1_555 1_555
O8 C29 1_555 1_555
O9 C22 1_555 1_555
O10 C50 1_555 1_555
O12 C42 1_555 1_555
C14 O21 1_555 1_555
O13 C31 1_555 1_555
C16 H9 1_555 1_555
C19 H10 1_555 1_555
C21 C36 1_555 1_555
O17 P3 1_555 1_555
O18 C50 1_555 1_555
C22 O22 1_555 1_555
O21 P2 1_555 1_555
C23 C16 1_555 1_555
H11 C23 1_555 1_555
O22 Ce18 1_555 1_555
N3 P3 1_555 1_555
C25 C5 1_555 1_555
C27 H12 1_555 1_555
C31 C32 1_555 1_555
N4 P2 1_555 1_555
C32 C38 1_555 1_555
C33 C19 1_555 1_555
C36 H15 1_555 1_555
C38 C8 1_555 1_555
H17 C38 1_555 1_555
C40 C14 1_555 1_555
H18 C40 1_555 1_555
N5 P2 1_555 1_555
C42 C16 1_555 1_555
C43 C22 1_555 1_555
H20 C44 1_555 1_555
C45 C27 1_555 1_555
H21 C45 1_555 1_555
C46 C36 1_555 1_555
H22 C46 1_555 1_555
O27 C10 1_555 1_555
C49 C29 1_555 1_555
H24 C49 1_555 1_555
C50 C21 1_555 1_555
C53 C33 1_555 1_555
H26 C53 1_555 1_555
O29 P5 1_555 1_555
C58 C46 1_555 1_555
H30 C59 1_555 1_555
C60 C6 1_555 1_555
H31 C60 1_555 1_555
C61 C5 1_555 1_555
H32 C61 1_555 1_555
C62 C21 1_555 1_555
H33 C62 1_555 1_555
C63 C6 1_555 1_555
H34 C63 1_555 1_555
C64 C58 1_555 1_555
H35 C64 1_555 1_555
Ce12 O9 1_555 1_555
Ce18 O9 1_555 1_555
Ce20 O13 1_555 1_555
C8 C25 1_555 1_555
P3 N4 1_555 1_555
P5 N5 1_555 1_555
O10 Ce12 1_555 1_555
C19 C63 1_555 1_555
O17 C25 1_555 1_555
O18 Ce12 1_555 1_555
C23 C43 1_555 1_555
C27 C42 1_555 1_555
C32 C61 1_555 1_555
C40 C59 1_555 1_555
C43 C45 1_555 1_555
C44 C49 1_555 1_555
C53 C60 1_555 1_555
O29 C58 1_555 1_555
C62 C64 1_555 1_555
C1 C3 1_555 1_555
C2 H1 1_555 1_555
C3 H2 1_555 1_555
C4 C2 1_555 1_555
H3 C4 1_555 1_555
P1 N1 1_555 1_555
P4 N1 1_555 1_555
C9 C15 1_555 1_555
O5 C52 1_555 1_555
C11 H6 1_555 1_555
C12 C11 1_555 1_555
H7 C12 1_555 1_555
O6 C35 1_555 1_555
C13 O11 1_555 1_555
O7 C18 1_555 1_555
O15 C13 1_555 1_555
O16 P1 1_555 1_555
C17 C35 1_555 1_555
C18 C9 1_555 1_555
N2 P1 1_555 1_555
C24 C3 1_555 1_555
O23 P4 1_555 1_555
C28 H13 1_555 1_555
C30 C20 1_555 1_555
H14 C30 1_555 1_555
O24 P1 1_555 1_555
C34 C12 1_555 1_555
C35 O25 1_555 1_555
C37 H16 1_555 1_555
C39 O23 1_555 1_555
O25 Ce16 1_555 1_555
C41 C30 1_555 1_555
H19 C41 1_555 1_555
C47 C1 1_555 1_555
C48 H23 1_555 1_555
O28 C52 1_555 1_555
C51 C20 1_555 1_555
H25 C51 1_555 1_555
C52 C47 1_555 1_555
C54 C34 1_555 1_555
H27 C54 1_555 1_555
C55 C17 1_555 1_555
H28 C55 1_555 1_555
C56 C11 1_555 1_555
H29 C57 1_555 1_555
H39 C1 1_555 1_555
C66 C67 1_555 1_555
C67 H40 1_555 1_555
C68 H41 1_555 1_555
P6 N2 1_555 1_555
N6 P4 1_555 1_555
O32 P6 1_555 1_555
C70 C67 1_555 1_555
O33 P4 1_555 1_555
C72 H42 1_555 1_555
C73 C69 1_555 1_555
H43 C73 1_555 1_555
O34 P6 1_555 1_555
C74 O33 1_555 1_555
C75 C73 1_555 1_555
H44 C75 1_555 1_555
C76 C69 1_555 1_555
H45 C76 1_555 1_555
H46 C66 1_555 1_555
C77 H47 1_555 1_555
C78 C77 1_555 1_555
H48 C78 1_555 1_555
C79 O35 1_555 1_555
C80 C78 1_555 1_555
C81 H49 1_555 1_555
C82 C80 1_555 1_555
H50 C82 1_555 1_555
C83 O32 1_555 1_555
C84 C68 1_555 1_555
H51 C84 1_555 1_555
O37 C86 1_555 1_555
C85 C66 1_555 1_555
O38 C86 1_555 1_555
C86 C85 1_555 1_555
C87 H52 1_555 1_555
C88 O39 1_555 1_555
C90 H53 1_555 1_555
O39 P9 1_555 1_555
P7 O44 1_555 1_555
P8 O47 1_555 1_555
O40 C92 1_555 1_555
O41 C105 1_555 1_555
P9 N7 1_555 1_555
C91 C94 1_555 1_555
C92 C107 1_555 1_555
O42 C108 1_555 1_555
O44 C104 1_555 1_555
O45 C100 1_555 1_555
O46 C119 1_555 1_555
O47 C113 1_555 1_555
C93 O53 1_555 1_555
O48 C105 1_555 1_555
C95 H55 1_555 1_555
C96 C108 1_555 1_555
C97 C91 1_555 1_555
C98 H56 1_555 1_555
C99 C109 1_555 1_555
O49 P8 1_555 1_555
O50 C119 1_555 1_555
C100 O54 1_555 1_555
O53 P7 1_555 1_555
C101 C95 1_555 1_555
H57 C101 1_555 1_555
O54 Ce14 1_555 1_555
N7 P8 1_555 1_555
C102 C87 1_555 1_555
C103 H58 1_555 1_555
C104 C110 1_555 1_555
C105 C106 1_555 1_555
N8 P7 1_555 1_555
C106 C111 1_555 1_555
C107 C98 1_555 1_555
C108 O55 1_555 1_555
C109 H59 1_555 1_555
C110 H60 1_555 1_555
C111 C90 1_555 1_555
H61 C111 1_555 1_555
C112 C93 1_555 1_555
H62 C112 1_555 1_555
O55 Ce15 1_555 1_555
N9 P7 1_555 1_555
C113 C95 1_555 1_555
C114 C100 1_555 1_555
C115 C96 1_555 1_555
H63 C115 1_555 1_555
C116 C103 1_555 1_555
H64 C116 1_555 1_555
C117 C109 1_555 1_555
H65 C117 1_555 1_555
O57 C92 1_555 1_555
C118 C104 1_555 1_555
H66 C118 1_555 1_555
C119 C99 1_555 1_555
C120 C107 1_555 1_555
H67 C120 1_555 1_555
O58 P9 1_555 1_555
C121 C96 1_555 1_555
H68 C121 1_555 1_555
C122 C93 1_555 1_555
H69 C122 1_555 1_555
C123 C117 1_555 1_555
C124 C91 1_555 1_555
H70 C124 1_555 1_555
C125 C88 1_555 1_555
H71 C125 1_555 1_555
C126 C87 1_555 1_555
H72 C126 1_555 1_555
C127 C99 1_555 1_555
H73 C127 1_555 1_555
C128 C88 1_555 1_555
H74 C128 1_555 1_555
C129 C123 1_555 1_555
H75 C129 1_555 1_555
Ce8 O45 1_555 1_555
Ce9 O5 1_555 1_555
Ce10 O37 1_555 1_555
Ce14 O45 1_555 1_555
Ce15 O5 1_555 1_555
Ce16 O37 1_555 1_555
Ce19 O7 1_555 1_555
Ce23 O43 1_555 1_555
Ce24 O48 1_555 1_555
C2 C47 1_555 1_555
C4 C24 1_555 1_555
C13 C34 1_555 1_555
O16 C56 1_555 1_555
C15 C57 1_555 1_555
C24 O24 1_555 1_555
C28 C39 1_555 1_555
C28 C51 1_555 1_555
C37 C55 1_555 1_555
C39 C41 1_555 1_555
C48 C54 1_555 1_555
C48 C56 1_555 1_555
O28 Ce15 1_555 1_555
C68 C70 1_555 1_555
P6 N6 1_555 1_555
C70 O34 1_555 1_555
C72 C74 1_555 1_555
C72 C76 1_555 1_555
C74 C75 1_555 1_555
C77 C83 1_555 1_555
C79 O36 1_555 1_555
C79 C80 1_555 1_555
C81 C82 1_555 1_555
C81 C83 1_555 1_555
C84 C85 1_555 1_555
O38 Ce16 1_555 1_555
C90 C102 1_555 1_555
P8 N8 1_555 1_555
P9 N9 1_555 1_555
O43 C97 1_555 1_555
O46 Ce8 1_555 1_555
C94 C122 1_555 1_555
C98 C128 1_555 1_555
O49 C102 1_555 1_555
O50 Ce8 1_555 1_555
C101 C114 1_555 1_555
C103 C113 1_555 1_555
C106 C126 1_555 1_555
C110 C121 1_555 1_555
C112 C124 1_555 1_555
C114 C116 1_555 1_555
C115 C118 1_555 1_555
O57 Ce23 1_555 1_555
C120 C125 1_555 1_555
O58 C123 1_555 1_555
C127 C129 1_555 1_555
Ce9 O67 1_555 1_555
Ce10 O68 1_555 1_555
C7 O20 1_555 1_555
Ce2 O4 1_555 1_555
Ce3 O14 1_555 1_555
O4 C26 1_555 1_555
O14 C26 1_555 1_555
O19 Ce1 1_555 1_555
O20 Ce3 1_555 1_555
O26 C7 1_555 1_555
C65 C7 1_555 1_555
H36 C65 1_555 1_555
H37 C65 1_555 1_555
H38 C65 1_555 1_555
O59 Ce2 1_555 1_555
O63 Ce1 1_555 1_555
O66 Ce3 1_555 1_555
O70 Ce1 1_555 1_555
O73 Ce3 1_555 1_555
O74 Ce1 1_555 1_555
O75 Ce3 1_555 1_555
O78 Ce1 1_555 1_555
O80 Ce2 1_555 1_555
O82 Ce2 1_555 1_555
O83 Ce3 1_555 1_555
O85 Ce2 1_555 1_555
Ce2 O63 1_555 1_555
Ce2 O70 1_555 1_555
Ce3 O26 1_555 1_555
O2_2 C10_2 1_555 1_555
O27_2 C10_2 1_555 1_555
Ce14 O2_2 1_555 1_555
O27_2 Ce20 1_555 1_555
Ce20 O74_2 1_555 1_555
C7_2 O20_2 1_555 1_555
O20_2 Ce19 1_555 1_555
O26_2 C7_2 1_555 1_555
C65_2 C7_2 1_555 1_555
H36_2 C65_2 1_555 1_555
H37_2 C65_2 1_555 1_555
H38_2 C65_2 1_555 1_555
O75_2 Ce19 1_555 1_555
Ce19 O26_2 1_555 1_555
O50_2 Ce9 1_555 1_555
C89_2 O52_2 1_555 1_555
O52_2 Ce22 1_555 1_555
O56_2 C89_2 1_555 1_555
C130_2 C89_2 1_555 1_555
H76_2 C130_2 1_555 1_555
H77_2 C130_2 1_555 1_555
H78_2 C130_2 1_555 1_555
O68_2 Ce22 1_555 1_555
O76_2 Ce22 1_555 1_555
O18_2 Ce11 1_555 1_555
Ce22 O56_2 1_555 1_555
O60 C92_2 1_555 1_555
O84 C92_2 1_555 1_555
C5_2 H4_2 1_555 1_555
C6_2 O1_2 1_555 1_555
C8_2 H5_2 1_555 1_555
O1_2 P5_2 1_555 1_555
Ce7 O7_2 1_555 1_555
Ce13 O4_2 1_555 1_555
P2_2 O8_2 1_555 1_555
P3_2 O12_2 1_555 1_555
O3_2 C31_2 1_555 1_555
P5_2 N3_2 1_555 1_555
C9_2 C15_2 1_555 1_555
O4_2 C26_2 1_555 1_555
O6_2 C35_2 1_555 1_555
O7_2 C18_2 1_555 1_555
O8_2 C29_2 1_555 1_555
O9_2 C22_2 1_555 1_555
O10_2 C50_2 1_555 1_555
O12_2 C42_2 1_555 1_555
C14_2 O21_2 1_555 1_555
O13_2 C31_2 1_555 1_555
C15_2 H8_2 1_555 1_555
C16_2 H9_2 1_555 1_555
C17_2 C35_2 1_555 1_555
C18_2 C9_2 1_555 1_555
C19_2 H10_2 1_555 1_555
C20_2 C26_2 1_555 1_555
C21_2 C36_2 1_555 1_555
O17_2 P3_2 1_555 1_555
C22_2 O22_2 1_555 1_555
O19_2 Ce7 1_555 1_555
O21_2 P2_2 1_555 1_555
C23_2 C16_2 1_555 1_555
H11_2 C23_2 1_555 1_555
N3_2 P3_2 1_555 1_555
C25_2 C5_2 1_555 1_555
C27_2 H12_2 1_555 1_555
C28_2 H13_2 1_555 1_555
C29_2 C37_2 1_555 1_555
C31_2 C32_2 1_555 1_555
N4_2 P2_2 1_555 1_555
C32_2 C38_2 1_555 1_555
C33_2 C19_2 1_555 1_555
C35_2 O25_2 1_555 1_555
C36_2 H15_2 1_555 1_555
C37_2 H16_2 1_555 1_555
C38_2 C8_2 1_555 1_555
H17_2 C38_2 1_555 1_555
C40_2 C14_2 1_555 1_555
H18_2 C40_2 1_555 1_555
O25_2 Ce18 1_555 1_555
N5_2 P2_2 1_555 1_555
C42_2 C16_2 1_555 1_555
C43_2 C22_2 1_555 1_555
C44_2 C17_2 1_555 1_555
H20_2 C44_2 1_555 1_555
C45_2 C27_2 1_555 1_555
H21_2 C45_2 1_555 1_555
C46_2 C36_2 1_555 1_555
H22_2 C46_2 1_555 1_555
C49_2 C29_2 1_555 1_555
H24_2 C49_2 1_555 1_555
C50_2 C21_2 1_555 1_555
C51_2 C20_2 1_555 1_555
H25_2 C51_2 1_555 1_555
C53_2 C33_2 1_555 1_555
H26_2 C53_2 1_555 1_555
O29_2 P5_2 1_555 1_555
C55_2 C17_2 1_555 1_555
H28_2 C55_2 1_555 1_555
C57_2 C14_2 1_555 1_555
H29_2 C57_2 1_555 1_555
C58_2 C46_2 1_555 1_555
C59_2 C9_2 1_555 1_555
H30_2 C59_2 1_555 1_555
C60_2 C6_2 1_555 1_555
H31_2 C60_2 1_555 1_555
C61_2 C5_2 1_555 1_555
H32_2 C61_2 1_555 1_555
C62_2 C21_2 1_555 1_555
H33_2 C62_2 1_555 1_555
C63_2 C6_2 1_555 1_555
H34_2 C63_2 1_555 1_555
C64_2 C58_2 1_555 1_555
H35_2 C64_2 1_555 1_555
C66_2 C67_2 1_555 1_555
C67_2 H40_2 1_555 1_555
C68_2 H41_2 1_555 1_555
P6_2 N2_2 1_555 1_555
N6_2 P4_2 1_555 1_555
O32_2 P6_2 1_555 1_555
C70_2 C67_2 1_555 1_555
O33_2 P4_2 1_555 1_555
H43_2 C73_2 1_555 1_555
O34_2 P6_2 1_555 1_555
C74_2 O33_2 1_555 1_555
C75_2 C73_2 1_555 1_555
H44_2 C75_2 1_555 1_555
H46_2 C66_2 1_555 1_555
C77_2 H47_2 1_555 1_555
C78_2 C77_2 1_555 1_555
H48_2 C78_2 1_555 1_555
C79_2 O35_2 1_555 1_555
O35_2 Ce7 1_555 1_555
O36_2 Ce7 1_555 1_555
C80_2 C78_2 1_555 1_555
C81_2 H49_2 1_555 1_555
C82_2 C80_2 1_555 1_555
H50_2 C82_2 1_555 1_555
C83_2 O32_2 1_555 1_555
C84_2 C68_2 1_555 1_555
H51_2 C84_2 1_555 1_555
O37_2 C86_2 1_555 1_555
C85_2 C66_2 1_555 1_555
O38_2 C86_2 1_555 1_555
C86_2 C85_2 1_555 1_555
Ce12 O37_2 1_555 1_555
Ce18 O37_2 1_555 1_555
Ce21 O13_2 1_555 1_555
Ce24 O6_2 1_555 1_555
O63_2 Ce7 1_555 1_555
O78_2 Ce7 1_555 1_555
O82_2 Ce13 1_555 1_555
O85_2 Ce13 1_555 1_555
C8_2 C25_2 1_555 1_555
Ce13 O36_2 1_555 1_555
Ce13 O63_2 1_555 1_555
P3_2 N4_2 1_555 1_555
P5_2 N5_2 1_555 1_555
O10_2 Ce24 1_555 1_555
C15_2 C57_2 1_555 1_555
C18_2 O19_2 1_555 1_555
C19_2 C63_2 1_555 1_555
O17_2 C25_2 1_555 1_555
C23_2 C43_2 1_555 1_555
C27_2 C42_2 1_555 1_555
C28_2 C51_2 1_555 1_555
C32_2 C61_2 1_555 1_555
C37_2 C55_2 1_555 1_555
C40_2 C59_2 1_555 1_555
C43_2 C45_2 1_555 1_555
C44_2 C49_2 1_555 1_555
C53_2 C60_2 1_555 1_555
O29_2 C58_2 1_555 1_555
C62_2 C64_2 1_555 1_555
C68_2 C70_2 1_555 1_555
P6_2 N6_2 1_555 1_555
C70_2 O34_2 1_555 1_555
C74_2 C75_2 1_555 1_555
C77_2 C83_2 1_555 1_555
C79_2 O36_2 1_555 1_555
C79_2 C80_2 1_555 1_555
C81_2 C82_2 1_555 1_555
C81_2 C83_2 1_555 1_555
C84_2 C85_2 1_555 1_555
O38_2 Ce18 1_555 1_555
C1_2 C3_2 1_555 1_555
C2_2 H1_2 1_555 1_555
C3_2 H2_2 1_555 1_555
C4_2 C2_2 1_555 1_555
H3_2 C4_2 1_555 1_555
P1_2 N1_2 1_555 1_555
P4_3 N1_2 1_555 1_555
O63 C52_2 1_555 1_555
C11_2 H6_2 1_555 1_555
C12_2 C11_2 1_555 1_555
H7_2 C12_2 1_555 1_555
C13_2 O11_2 1_555 1_555
O11_2 Ce10 1_555 1_555
O15_2 C13_2 1_555 1_555
O16_2 P1_2 1_555 1_555
N2_3 P1_2 1_555 1_555
C24_2 C3_2 1_555 1_555
O23_2 P4_3 1_555 1_555
H14_2 C30_2 1_555 1_555
O24_2 P1_2 1_555 1_555
C34_2 C12_2 1_555 1_555
C39_2 O23_2 1_555 1_555
C41_2 C30_2 1_555 1_555
H19_2 C41_2 1_555 1_555
C47_2 C1_2 1_555 1_555
C48_2 H23_2 1_555 1_555
O85 C52_2 1_555 1_555
C52_2 C47_2 1_555 1_555
C54_2 C34_2 1_555 1_555
H27_2 C54_2 1_555 1_555
C56_2 C11_2 1_555 1_555
H39_2 C1_2 1_555 1_555
O30_2 C71_2 1_555 1_555
C69_2 C71_2 1_555 1_555
C72_2 H42_2 1_555 1_555
C76_2 C69_2 1_555 1_555
H45_2 C76_2 1_555 1_555
C87_2 H52_2 1_555 1_555
C88_2 O39_2 1_555 1_555
C90_2 H53_2 1_555 1_555
O39_2 P9_2 1_555 1_555
Ce10 O15_2 1_555 1_555
Ce16 O15_2 1_555 1_555
P7_2 O44_2 1_555 1_555
P8_2 O47_2 1_555 1_555
O62 C105_2 1_555 1_555
P9_2 N7_2 1_555 1_555
C91_2 C94_2 1_555 1_555
O66 C108_2 1_555 1_555
O44_2 C104_2 1_555 1_555
O45_2 C100_2 1_555 1_555
O73 C119_2 1_555 1_555
O47_2 C113_2 1_555 1_555
C93_2 O53_2 1_555 1_555
O48_2 C105_2 1_555 1_555
C94_2 H54_2 1_555 1_555
C95_2 H55_2 1_555 1_555
C96_2 C108_2 1_555 1_555
C97_2 C91_2 1_555 1_555
C98_2 H56_2 1_555 1_555
C99_2 C109_2 1_555 1_555
O49_2 P8_2 1_555 1_555
C100_2 O54_2 1_555 1_555
O51_2 Ce10 1_555 1_555
O53_2 P7_2 1_555 1_555
C101_2 C95_2 1_555 1_555
H57_2 C101_2 1_555 1_555
N7_2 P8_2 1_555 1_555
C102_2 C87_2 1_555 1_555
C103_2 H58_2 1_555 1_555
C104_2 C110_2 1_555 1_555
C105_2 C106_2 1_555 1_555
N8_2 P7_2 1_555 1_555
C106_2 C111_2 1_555 1_555
C107_2 C98_2 1_555 1_555
C108_2 O82 1_555 1_555
C109_2 H59_2 1_555 1_555
C110_2 H60_2 1_555 1_555
C111_2 C90_2 1_555 1_555
H61_2 C111_2 1_555 1_555
C112_2 C93_2 1_555 1_555
H62_2 C112_2 1_555 1_555
N9_2 P7_2 1_555 1_555
C113_2 C95_2 1_555 1_555
C114_2 C100_2 1_555 1_555
C115_2 C96_2 1_555 1_555
H63_2 C115_2 1_555 1_555
C116_2 C103_2 1_555 1_555
H64_2 C116_2 1_555 1_555
C117_2 C109_2 1_555 1_555
H65_2 C117_2 1_555 1_555
C118_2 C104_2 1_555 1_555
H66_2 C118_2 1_555 1_555
C119_2 C99_2 1_555 1_555
C120_2 C107_2 1_555 1_555
H67_2 C120_2 1_555 1_555
O58_2 P9_2 1_555 1_555
C121_2 C96_2 1_555 1_555
H68_2 C121_2 1_555 1_555
C122_2 C93_2 1_555 1_555
H69_2 C122_2 1_555 1_555
C123_2 C117_2 1_555 1_555
C124_2 C91_2 1_555 1_555
H70_2 C124_2 1_555 1_555
C125_2 C88_2 1_555 1_555
H71_2 C125_2 1_555 1_555
C126_2 C87_2 1_555 1_555
H72_2 C126_2 1_555 1_555
C127_2 C99_2 1_555 1_555
H73_2 C127_2 1_555 1_555
C128_2 C88_2 1_555 1_555
H74_2 C128_2 1_555 1_555
C129_2 C123_2 1_555 1_555
H75_2 C129_2 1_555 1_555
Ce23 O48_2 1_555 1_555
O77_2 Ce10 1_555 1_555
C2_2 C47_2 1_555 1_555
C4_2 C24_2 1_555 1_555
C13_2 C34_2 1_555 1_555
O16_2 C56_2 1_555 1_555
C24_2 O24_2 1_555 1_555
C39_2 C41_2 1_555 1_555
C48_2 C54_2 1_555 1_555
C48_2 C56_2 1_555 1_555
O30_2 Ce16 1_555 1_555
C72_2 C76_2 1_555 1_555
C90_2 C102_2 1_555 1_555
P8_2 N8_2 1_555 1_555
P9_2 N9_2 1_555 1_555
O68 C97_2 1_555 1_555
C94_2 C122_2 1_555 1_555
C97_2 O51_2 1_555 1_555
C98_2 C128_2 1_555 1_555
O49_2 C102_2 1_555 1_555
C101_2 C114_2 1_555 1_555
C103_2 C113_2 1_555 1_555
C106_2 C126_2 1_555 1_555
C110_2 C121_2 1_555 1_555
C112_2 C124_2 1_555 1_555
C114_2 C116_2 1_555 1_555
C115_2 C118_2 1_555 1_555
C120_2 C125_2 1_555 1_555
O58_2 C123_2 1_555 1_555
C127_2 C129_2 1_555 1_555
C7_3 O20_3 1_555 1_555
Ce14 O4_3 1_555 1_555
Ce20 O14_3 1_555 1_555
O4_3 C26_3 1_555 1_555
O14_3 C26_3 1_555 1_555
O19_3 Ce8 1_555 1_555
O20_3 Ce20 1_555 1_555
O26_3 C7_3 1_555 1_555
C65_3 C7_3 1_555 1_555
H36_3 C65_3 1_555 1_555
H37_3 C65_3 1_555 1_555
H38_3 C65_3 1_555 1_555
O63_3 Ce8 1_555 1_555
O66_3 Ce20 1_555 1_555
O82_3 Ce14 1_555 1_555
O85_3 Ce14 1_555 1_555
Ce14 O63_3 1_555 1_555
Ce20 O26_3 1_555 1_555
C1_3 C3_3 1_555 1_555
C2_3 H1_3 1_555 1_555
C3_3 H2_3 1_555 1_555
C4_3 C2_3 1_555 1_555
H3_3 C4_3 1_555 1_555
C5_3 H4_3 1_555 1_555
C6_3 O1_3 1_555 1_555
C8_3 H5_3 1_555 1_555
O1_3 P5_3 1_555 1_555
P1_3 N1_3 1_555 1_555
P2_3 O8_3 1_555 1_555
P3_3 O12_3 1_555 1_555
P4_4 N1_3 1_555 1_555
O2_3 C10_3 1_555 1_555
O3_3 C31_3 1_555 1_555
P5_3 N3_3 1_555 1_555
C9_3 C15_3 1_555 1_555
O63_2 C52_3 1_555 1_555
C10_3 C33_3 1_555 1_555
C11_3 H6_3 1_555 1_555
C12_3 C11_3 1_555 1_555
H7_3 C12_3 1_555 1_555
O6_3 C35_3 1_555 1_555
C13_3 O11_3 1_555 1_555
O7_3 C18_3 1_555 1_555
O8_3 C29_3 1_555 1_555
O69 C22_3 1_555 1_555
O71 C50_3 1_555 1_555
O12_3 C42_3 1_555 1_555
C14_3 O21_3 1_555 1_555
O75 C31_3 1_555 1_555
O15_3 C13_3 1_555 1_555
O16_3 P1_3 1_555 1_555
C16_3 H9_3 1_555 1_555
C17_3 C35_3 1_555 1_555
C18_3 C9_3 1_555 1_555
N2_4 P1_3 1_555 1_555
C19_3 H10_3 1_555 1_555
C21_3 C36_3 1_555 1_555
O17_3 P3_3 1_555 1_555
O77 C50_3 1_555 1_555
C22_3 O79 1_555 1_555
O21_3 P2_3 1_555 1_555
C23_3 C16_3 1_555 1_555
H11_3 C23_3 1_555 1_555
C24_3 C3_3 1_555 1_555
N3_3 P3_3 1_555 1_555
O23_3 P4_4 1_555 1_555
C25_3 C5_3 1_555 1_555
C27_3 H12_3 1_555 1_555
C28_3 H13_3 1_555 1_555
C29_3 C37_3 1_555 1_555
C30_3 C20_3 1_555 1_555
H14_3 C30_3 1_555 1_555
O24_3 P1_3 1_555 1_555
C31_3 C32_3 1_555 1_555
N4_3 P2_3 1_555 1_555
C32_3 C38_3 1_555 1_555
C33_3 C19_3 1_555 1_555
C34_3 C12_3 1_555 1_555
C35_3 O25_3 1_555 1_555
C36_3 H15_3 1_555 1_555
C37_3 H16_3 1_555 1_555
C38_3 C8_3 1_555 1_555
H17_3 C38_3 1_555 1_555
C39_3 O23_3 1_555 1_555
C40_3 C14_3 1_555 1_555
H18_3 C40_3 1_555 1_555
O25_3 Ce17 1_555 1_555
C41_3 C30_3 1_555 1_555
H19_3 C41_3 1_555 1_555
N5_3 P2_3 1_555 1_555
C42_3 C16_3 1_555 1_555
C43_3 C22_3 1_555 1_555
C44_3 C17_3 1_555 1_555
H20_3 C44_3 1_555 1_555
C45_3 C27_3 1_555 1_555
H21_3 C45_3 1_555 1_555
C46_3 C36_3 1_555 1_555
H22_3 C46_3 1_555 1_555
C47_3 C1_3 1_555 1_555
C48_3 H23_3 1_555 1_555
O27_3 C10_3 1_555 1_555
O85_2 C52_3 1_555 1_555
C49_3 C29_3 1_555 1_555
H24_3 C49_3 1_555 1_555
C50_3 C21_3 1_555 1_555
C51_3 C20_3 1_555 1_555
H25_3 C51_3 1_555 1_555
C52_3 C47_3 1_555 1_555
C53_3 C33_3 1_555 1_555
H26_3 C53_3 1_555 1_555
O29_3 P5_3 1_555 1_555
C54_3 C34_3 1_555 1_555
H27_3 C54_3 1_555 1_555
C55_3 C17_3 1_555 1_555
H28_3 C55_3 1_555 1_555
C56_3 C11_3 1_555 1_555
C57_3 C14_3 1_555 1_555
H29_3 C57_3 1_555 1_555
C58_3 C46_3 1_555 1_555
C59_3 C9_3 1_555 1_555
H30_3 C59_3 1_555 1_555
C60_3 C6_3 1_555 1_555
H31_3 C60_3 1_555 1_555
C61_3 C5_3 1_555 1_555
H32_3 C61_3 1_555 1_555
C62_3 C21_3 1_555 1_555
H33_3 C62_3 1_555 1_555
C63_3 C6_3 1_555 1_555
H34_3 C63_3 1_555 1_555
C64_3 C58_3 1_555 1_555
H35_3 C64_3 1_555 1_555
H39_3 C1_3 1_555 1_555
C66_3 C67_3 1_555 1_555
C67_3 H40_3 1_555 1_555
C68_3 H41_3 1_555 1_555
P6_3 N2_4 1_555 1_555
N6_3 P4_4 1_555 1_555
O32_3 P6_3 1_555 1_555
C70_3 C67_3 1_555 1_555
O33_3 P4_4 1_555 1_555
C72_3 H42_3 1_555 1_555
C73_3 C69_3 1_555 1_555
H43_3 C73_3 1_555 1_555
O34_3 P6_3 1_555 1_555
C74_3 O33_3 1_555 1_555
C75_3 C73_3 1_555 1_555
H44_3 C75_3 1_555 1_555
C76_3 C69_3 1_555 1_555
H45_3 C76_3 1_555 1_555
H46_3 C66_3 1_555 1_555
C77_3 H47_3 1_555 1_555
C78_3 C77_3 1_555 1_555
H48_3 C78_3 1_555 1_555
C79_3 O35_3 1_555 1_555
C80_3 C78_3 1_555 1_555
C81_3 H49_3 1_555 1_555
C82_3 C80_3 1_555 1_555
H50_3 C82_3 1_555 1_555
C83_3 O32_3 1_555 1_555
C84_3 C68_3 1_555 1_555
H51_3 C84_3 1_555 1_555
O37_3 C86_3 1_555 1_555
C85_3 C66_3 1_555 1_555
O38_3 C86_3 1_555 1_555
C86_3 C85_3 1_555 1_555
C91_3 C94_3 1_555 1_555
O66_2 C108_3 1_555 1_555
C96_3 C108_3 1_555 1_555
C97_3 C91_3 1_555 1_555
C108_3 O82_2 1_555 1_555
C110_3 H60_3 1_555 1_555
C121_3 C96_3 1_555 1_555
H68_3 C121_3 1_555 1_555
H69_3 C122_3 1_555 1_555
Ce11 O37_3 1_555 1_555
Ce17 O37_3 1_555 1_555
Ce21 O7_3 1_555 1_555
C2_3 C47_3 1_555 1_555
C4_3 C24_3 1_555 1_555
C8_3 C25_3 1_555 1_555
P3_3 N4_3 1_555 1_555
P5_3 N5_3 1_555 1_555
C13_3 C34_3 1_555 1_555
O16_3 C56_3 1_555 1_555
C15_3 C57_3 1_555 1_555
C19_3 C63_3 1_555 1_555
O17_3 C25_3 1_555 1_555
C23_3 C43_3 1_555 1_555
C24_3 O24_3 1_555 1_555
C27_3 C42_3 1_555 1_555
C28_3 C39_3 1_555 1_555
C28_3 C51_3 1_555 1_555
C32_3 C61_3 1_555 1_555
C37_3 C55_3 1_555 1_555
C39_3 C41_3 1_555 1_555
C40_3 C59_3 1_555 1_555
C43_3 C45_3 1_555 1_555
C44_3 C49_3 1_555 1_555
C48_3 C54_3 1_555 1_555
C48_3 C56_3 1_555 1_555
O27_3 Ce21 1_555 1_555
C53_3 C60_3 1_555 1_555
O29_3 C58_3 1_555 1_555
C62_3 C64_3 1_555 1_555
C68_3 C70_3 1_555 1_555
P6_3 N6_3 1_555 1_555
C70_3 O34_3 1_555 1_555
C72_3 C74_3 1_555 1_555
C72_3 C76_3 1_555 1_555
C74_3 C75_3 1_555 1_555
C77_3 C83_3 1_555 1_555
C79_3 O36_3 1_555 1_555
C79_3 C80_3 1_555 1_555
C81_3 C82_3 1_555 1_555
C81_3 C83_3 1_555 1_555
C84_3 C85_3 1_555 1_555
O38_3 Ce17 1_555 1_555
O68_2 C97_3 1_555 1_555
C94_3 C122_3 1_555 1_555
C110_3 C121_3 1_555 1_555
Ce11 O68_3 1_555 1_555
C87_3 H52_3 1_555 1_555
C88_3 O39_3 1_555 1_555
C90_3 H53_3 1_555 1_555
O39_3 P9_3 1_555 1_555
P7_3 O44_3 1_555 1_555
P8_3 O47_3 1_555 1_555
O60_2 C92_3 1_555 1_555
O62_2 C105_3 1_555 1_555
P9_3 N7_3 1_555 1_555
C92_3 C107_3 1_555 1_555
O44_3 C104_3 1_555 1_555
O70 C100_3 1_555 1_555
O74 C119_3 1_555 1_555
O47_3 C113_3 1_555 1_555
C93_3 O53_3 1_555 1_555
O76 C105_3 1_555 1_555
C95_3 H55_3 1_555 1_555
C98_3 H56_3 1_555 1_555
C99_3 C109_3 1_555 1_555
O49_3 P8_3 1_555 1_555
O78 C119_3 1_555 1_555
C100_3 O80 1_555 1_555
O53_3 P7_3 1_555 1_555
C101_3 C95_3 1_555 1_555
H57_3 C101_3 1_555 1_555
N7_3 P8_3 1_555 1_555
C102_3 C87_3 1_555 1_555
C103_3 H58_3 1_555 1_555
C105_3 C106_3 1_555 1_555
N8_3 P7_3 1_555 1_555
C106_3 C111_3 1_555 1_555
C107_3 C98_3 1_555 1_555
C109_3 H59_3 1_555 1_555
C111_3 C90_3 1_555 1_555
H61_3 C111_3 1_555 1_555
C112_3 C93_3 1_555 1_555
H62_3 C112_3 1_555 1_555
N9_3 P7_3 1_555 1_555
C113_3 C95_3 1_555 1_555
C114_3 C100_3 1_555 1_555
H63_3 C115_3 1_555 1_555
C116_3 C103_3 1_555 1_555
H64_3 C116_3 1_555 1_555
C117_3 C109_3 1_555 1_555
H65_3 C117_3 1_555 1_555
O84_2 C92_3 1_555 1_555
C118_3 C104_3 1_555 1_555
H66_3 C118_3 1_555 1_555
C119_3 C99_3 1_555 1_555
C120_3 C107_3 1_555 1_555
H67_3 C120_3 1_555 1_555
O58_3 P9_3 1_555 1_555
C123_3 C117_3 1_555 1_555
H70_3 C124_3 1_555 1_555
C125_3 C88_3 1_555 1_555
H71_3 C125_3 1_555 1_555
C126_3 C87_3 1_555 1_555
H72_3 C126_3 1_555 1_555
C127_3 C99_3 1_555 1_555
H73_3 C127_3 1_555 1_555
C128_3 C88_3 1_555 1_555
H74_3 C128_3 1_555 1_555
C129_3 C123_3 1_555 1_555
H75_3 C129_3 1_555 1_555
C90_3 C102_3 1_555 1_555
P8_3 N8_3 1_555 1_555
P9_3 N9_3 1_555 1_555
C98_3 C128_3 1_555 1_555
O49_3 C102_3 1_555 1_555
C101_3 C114_3 1_555 1_555
C103_3 C113_3 1_555 1_555
C106_3 C126_3 1_555 1_555
C112_3 C124_3 1_555 1_555
C114_3 C116_3 1_555 1_555
C115_3 C118_3 1_555 1_555
C120_3 C125_3 1_555 1_555
O58_3 C123_3 1_555 1_555
C127_3 C129_3 1_555 1_555
O30_3 C71_3 1_555 1_555
O31_3 C71_3 1_555 1_555
C89_3 O52_3 1_555 1_555
Ce24 O31_3 1_555 1_555
O51_3 Ce12 1_555 1_555
O52_3 Ce24 1_555 1_555
O56_3 C89_3 1_555 1_555
C130_3 C89_3 1_555 1_555
H76_3 C130_3 1_555 1_555
H77_3 C130_3 1_555 1_555
H78_3 C130_3 1_555 1_555
O60_3 Ce18 1_555 1_555
O84_3 Ce24 1_555 1_555
O30_3 Ce18 1_555 1_555
Ce24 O56_3 1_555 1_555
C1_4 C3_4 1_555 1_555
C2_4 H1_4 1_555 1_555
C3_4 H2_4 1_555 1_555
C4_4 C2_4 1_555 1_555
H3_4 C4_4 1_555 1_555
C5_4 H4_4 1_555 1_555
C6_4 O1_4 1_555 1_555
C8_4 H5_4 1_555 1_555
O1_4 P5_4 1_555 1_555
Ce15 O4_4 1_555 1_555
P1_4 N1_4 1_555 1_555
P2_4 O8_4 1_555 1_555
P3_4 O12_4 1_555 1_555
P4_5 N1_4 1_555 1_555
O61 C31_4 1_555 1_555
P5_4 N3_4 1_555 1_555
C9_4 C15_4 1_555 1_555
O4_4 C26_4 1_555 1_555
O63_3 C52_4 1_555 1_555
C11_4 H6_4 1_555 1_555
C12_4 C11_4 1_555 1_555
H7_4 C12_4 1_555 1_555
O65 C35_4 1_555 1_555
C13_4 O11_4 1_555 1_555
O67 C18_4 1_555 1_555
O8_4 C29_4 1_555 1_555
O69_2 C22_4 1_555 1_555
O72 C50_4 1_555 1_555
O11_4 Ce11 1_555 1_555
O12_4 C42_4 1_555 1_555
C14_4 O21_4 1_555 1_555
O75_2 C31_4 1_555 1_555
O14_4 C26_4 1_555 1_555
O15_4 C13_4 1_555 1_555
O16_4 P1_4 1_555 1_555
C15_4 H8_4 1_555 1_555
C16_4 H9_4 1_555 1_555
C17_4 C35_4 1_555 1_555
C18_4 C9_4 1_555 1_555
N2_5 P1_4 1_555 1_555
C19_4 H10_4 1_555 1_555
C20_4 C26_4 1_555 1_555
C21_4 C36_4 1_555 1_555
O17_4 P3_4 1_555 1_555
C22_4 O79_2 1_555 1_555
O19_4 Ce9 1_555 1_555
O21_4 P2_4 1_555 1_555
C23_4 C16_4 1_555 1_555
H11_4 C23_4 1_555 1_555
C24_4 C3_4 1_555 1_555
N3_4 P3_4 1_555 1_555
O23_4 P4_5 1_555 1_555
C25_4 C5_4 1_555 1_555
C27_4 H12_4 1_555 1_555
C28_4 H13_4 1_555 1_555
C29_4 C37_4 1_555 1_555
C30_4 C20_4 1_555 1_555
H14_4 C30_4 1_555 1_555
O24_4 P1_4 1_555 1_555
C31_4 C32_4 1_555 1_555
N4_4 P2_4 1_555 1_555
C32_4 C38_4 1_555 1_555
C33_4 C19_4 1_555 1_555
C34_4 C12_4 1_555 1_555
C35_4 O81 1_555 1_555
C36_4 H15_4 1_555 1_555
C37_4 H16_4 1_555 1_555
C38_4 C8_4 1_555 1_555
H17_4 C38_4 1_555 1_555
C39_4 O23_4 1_555 1_555
C40_4 C14_4 1_555 1_555
H18_4 C40_4 1_555 1_555
C41_4 C30_4 1_555 1_555
H19_4 C41_4 1_555 1_555
N5_4 P2_4 1_555 1_555
C42_4 C16_4 1_555 1_555
C43_4 C22_4 1_555 1_555
C44_4 C17_4 1_555 1_555
H20_4 C44_4 1_555 1_555
C45_4 C27_4 1_555 1_555
H21_4 C45_4 1_555 1_555
C46_4 C36_4 1_555 1_555
H22_4 C46_4 1_555 1_555
C47_4 C1_4 1_555 1_555
C48_4 H23_4 1_555 1_555
O85_3 C52_4 1_555 1_555
C49_4 C29_4 1_555 1_555
H24_4 C49_4 1_555 1_555
C50_4 C21_4 1_555 1_555
C51_4 C20_4 1_555 1_555
H25_4 C51_4 1_555 1_555
C52_4 C47_4 1_555 1_555
C53_4 C33_4 1_555 1_555
H26_4 C53_4 1_555 1_555
O29_4 P5_4 1_555 1_555
C54_4 C34_4 1_555 1_555
H27_4 C54_4 1_555 1_555
C55_4 C17_4 1_555 1_555
H28_4 C55_4 1_555 1_555
C56_4 C11_4 1_555 1_555
C57_4 C14_4 1_555 1_555
H29_4 C57_4 1_555 1_555
C58_4 C46_4 1_555 1_555
C59_4 C9_4 1_555 1_555
H30_4 C59_4 1_555 1_555
C60_4 C6_4 1_555 1_555
H31_4 C60_4 1_555 1_555
C61_4 C5_4 1_555 1_555
H32_4 C61_4 1_555 1_555
C62_4 C21_4 1_555 1_555
H33_4 C62_4 1_555 1_555
C63_4 C6_4 1_555 1_555
H34_4 C63_4 1_555 1_555
C64_4 C58_4 1_555 1_555
H35_4 C64_4 1_555 1_555
H39_4 C1_4 1_555 1_555
C66_4 C67_4 1_555 1_555
C67_4 H40_4 1_555 1_555
C68_4 H41_4 1_555 1_555
P6_4 N2_5 1_555 1_555
O30_4 C71_4 1_555 1_555
N6_4 P4_5 1_555 1_555
O31_4 C71_4 1_555 1_555
O32_4 P6_4 1_555 1_555
C69_4 C71_4 1_555 1_555
C70_4 C67_4 1_555 1_555
O33_4 P4_5 1_555 1_555
C72_4 H42_4 1_555 1_555
C73_4 C69_4 1_555 1_555
H43_4 C73_4 1_555 1_555
O34_4 P6_4 1_555 1_555
C74_4 O33_4 1_555 1_555
C75_4 C73_4 1_555 1_555
H44_4 C75_4 1_555 1_555
C76_4 C69_4 1_555 1_555
H45_4 C76_4 1_555 1_555
H46_4 C66_4 1_555 1_555
C77_4 H47_4 1_555 1_555
C78_4 C77_4 1_555 1_555
H48_4 C78_4 1_555 1_555
C79_4 O35_4 1_555 1_555
O35_4 Ce9 1_555 1_555
O36_4 Ce9 1_555 1_555
C80_4 C78_4 1_555 1_555
C81_4 H49_4 1_555 1_555
C82_4 C80_4 1_555 1_555
H50_4 C82_4 1_555 1_555
C83_4 O32_4 1_555 1_555
C84_4 C68_4 1_555 1_555
H51_4 C84_4 1_555 1_555
O64 C86_4 1_555 1_555
C85_4 C66_4 1_555 1_555
O86 C86_4 1_555 1_555
C86_4 C85_4 1_555 1_555
C87_4 H52_4 1_555 1_555
C88_4 O39_4 1_555 1_555
C90_4 H53_4 1_555 1_555
O39_4 P9_4 1_555 1_555
Ce11 O15_4 1_555 1_555
Ce17 O15_4 1_555 1_555
P7_4 O44_4 1_555 1_555
P8_4 O47_4 1_555 1_555
O62_3 C105_4 1_555 1_555
P9_4 N7_4 1_555 1_555
C91_4 C94_4 1_555 1_555
O66_3 C108_4 1_555 1_555
O44_4 C104_4 1_555 1_555
O70_2 C100_4 1_555 1_555
O74_2 C119_4 1_555 1_555
O47_4 C113_4 1_555 1_555
C93_4 O53_4 1_555 1_555
O76_2 C105_4 1_555 1_555
C94_4 H54_4 1_555 1_555
C95_4 H55_4 1_555 1_555
C96_4 C108_4 1_555 1_555
C97_4 C91_4 1_555 1_555
C98_4 H56_4 1_555 1_555
C99_4 C109_4 1_555 1_555
O49_4 P8_4 1_555 1_555
C100_4 O80_2 1_555 1_555
O51_4 Ce11 1_555 1_555
O53_4 P7_4 1_555 1_555
C101_4 C95_4 1_555 1_555
H57_4 C101_4 1_555 1_555
N7_4 P8_4 1_555 1_555
C102_4 C87_4 1_555 1_555
C103_4 H58_4 1_555 1_555
C104_4 C110_4 1_555 1_555
C105_4 C106_4 1_555 1_555
N8_4 P7_4 1_555 1_555
C106_4 C111_4 1_555 1_555
C107_4 C98_4 1_555 1_555
C108_4 O82_3 1_555 1_555
C109_4 H59_4 1_555 1_555
C110_4 H60_4 1_555 1_555
C111_4 C90_4 1_555 1_555
H61_4 C111_4 1_555 1_555
C112_4 C93_4 1_555 1_555
H62_4 C112_4 1_555 1_555
N9_4 P7_4 1_555 1_555
C113_4 C95_4 1_555 1_555
C114_4 C100_4 1_555 1_555
C115_4 C96_4 1_555 1_555
H63_4 C115_4 1_555 1_555
C116_4 C103_4 1_555 1_555
H64_4 C116_4 1_555 1_555
C117_4 C109_4 1_555 1_555
H65_4 C117_4 1_555 1_555
C118_4 C104_4 1_555 1_555
H66_4 C118_4 1_555 1_555
C119_4 C99_4 1_555 1_555
C120_4 C107_4 1_555 1_555
H67_4 C120_4 1_555 1_555
O58_4 P9_4 1_555 1_555
C121_4 C96_4 1_555 1_555
H68_4 C121_4 1_555 1_555
C122_4 C93_4 1_555 1_555
H69_4 C122_4 1_555 1_555
C123_4 C117_4 1_555 1_555
C124_4 C91_4 1_555 1_555
H70_4 C124_4 1_555 1_555
C125_4 C88_4 1_555 1_555
H71_4 C125_4 1_555 1_555
C126_4 C87_4 1_555 1_555
H72_4 C126_4 1_555 1_555
C127_4 C99_4 1_555 1_555
H73_4 C127_4 1_555 1_555
C128_4 C88_4 1_555 1_555
H74_4 C128_4 1_555 1_555
C129_4 C123_4 1_555 1_555
H75_4 C129_4 1_555 1_555
C2_4 C47_4 1_555 1_555
C4_4 C24_4 1_555 1_555
C8_4 C25_4 1_555 1_555
Ce15 O36_4 1_555 1_555
P3_4 N4_4 1_555 1_555
P5_4 N5_4 1_555 1_555
C13_4 C34_4 1_555 1_555
O16_4 C56_4 1_555 1_555
C15_4 C57_4 1_555 1_555
C18_4 O19_4 1_555 1_555
C19_4 C63_4 1_555 1_555
O17_4 C25_4 1_555 1_555
C23_4 C43_4 1_555 1_555
C24_4 O24_4 1_555 1_555
C27_4 C42_4 1_555 1_555
C28_4 C39_4 1_555 1_555
C28_4 C51_4 1_555 1_555
C32_4 C61_4 1_555 1_555
C37_4 C55_4 1_555 1_555
C39_4 C41_4 1_555 1_555
C40_4 C59_4 1_555 1_555
C43_4 C45_4 1_555 1_555
C44_4 C49_4 1_555 1_555
C48_4 C54_4 1_555 1_555
C48_4 C56_4 1_555 1_555
C53_4 C60_4 1_555 1_555
O29_4 C58_4 1_555 1_555
C62_4 C64_4 1_555 1_555
C68_4 C70_4 1_555 1_555
P6_4 N6_4 1_555 1_555
O30_4 Ce17 1_555 1_555
C70_4 O34_4 1_555 1_555
C72_4 C74_4 1_555 1_555
C72_4 C76_4 1_555 1_555
C74_4 C75_4 1_555 1_555
C77_4 C83_4 1_555 1_555
C79_4 O36_4 1_555 1_555
C79_4 C80_4 1_555 1_555
C81_4 C82_4 1_555 1_555
C81_4 C83_4 1_555 1_555
C84_4 C85_4 1_555 1_555
C90_4 C102_4 1_555 1_555
P8_4 N8_4 1_555 1_555
P9_4 N9_4 1_555 1_555
O68_3 C97_4 1_555 1_555
C94_4 C122_4 1_555 1_555
C97_4 O51_4 1_555 1_555
C98_4 C128_4 1_555 1_555
O49_4 C102_4 1_555 1_555
C101_4 C114_4 1_555 1_555
C103_4 C113_4 1_555 1_555
C106_4 C126_4 1_555 1_555
C110_4 C121_4 1_555 1_555
C112_4 C124_4 1_555 1_555
C114_4 C116_4 1_555 1_555
C115_4 C118_4 1_555 1_555
C120_4 C125_4 1_555 1_555
O58_4 C123_4 1_555 1_555
C127_4 C129_4 1_555 1_555
C89_4 O52_4 1_555 1_555
O60_3 C92_4 1_555 1_555
O52_4 Ce23 1_555 1_555
O56_4 C89_4 1_555 1_555
O84_3 C92_4 1_555 1_555
C130_4 C89_4 1_555 1_555
H76_4 C130_4 1_555 1_555
H77_4 C130_4 1_555 1_555
H78_4 C130_4 1_555 1_555
Ce23 O56_4 1_555 1_555
C7_4 O20_4 1_555 1_555
O59 C10_4 1_555 1_555
O20_4 Ce21 1_555 1_555
O26_4 C7_4 1_555 1_555
O83 C10_4 1_555 1_555
C65_4 C7_4 1_555 1_555
H36_4 C65_4 1_555 1_555
H37_4 C65_4 1_555 1_555
H38_4 C65_4 1_555 1_555
Ce21 O26_4 1_555 1_555

#END
