
###############################################################################
#
# This file contains modified crystal structure data generated from the
# MOF subset of the Cambridge Structural Database (CSD) v543 
# hosted by the Cambridge Crystallographic Data Centre (CCDC).
#
# This work is licensed under the Creative Commons
# Attribution-NonCommercial-ShareAlike 4.0 International License.
# To view a copy of this license, visit
# http://creativecommons.org/licenses/by-nc-sa/4.0/
# or send a letter to
# Creative Commons, PO Box 1866, Mountain View, CA 94042, USA.
#
# CIF created using the CSD Python API on 29 September 2022
# The structure has been converted into the P1 space group
# The structure has a 3D framework
# The original CSD entry DALKEK is in the tetragonal crystal system
# The original CSD entry DALKEK is in a Sohncke space group
# The framework has been calculated to contain at least 10.0% void space
# The void calculation uses a probe of radius 1.32A, grid spacing 0.4
# The framework is charged, counterions have been retained in the structure
#
###############################################################################

data_DALKEK
_chemical_formula_moiety         '(C522 H312 Eu24 N37 O230 P37 8-)n'
_symmetry_cell_setting           triclinic
_symmetry_space_group_name_H-M   'P 1'
_symmetry_Int_Tables_number      1
_space_group_name_Hall           'P 1'
loop_
_symmetry_equiv_pos_site_id
_symmetry_equiv_pos_as_xyz
1 x,y,z
_cell_length_a                   23.1017(14)
_cell_length_b                   23.1017(14)
_cell_length_c                   47.068(4)
_cell_angle_alpha                90
_cell_angle_beta                 90
_cell_angle_gamma                90
_cell_volume                     25119.7
loop_
_atom_site_label
_atom_site_type_symbol
_atom_site_fract_x
_atom_site_fract_y
_atom_site_fract_z
Eu22 Eu 0.43544(2) 0.01409(2) 0.02526(2)
O30 O 0.4100(4) 0.0225(4) 0.71122(12)
O31 O 0.4356(3) 0.0108(4) 0.75555(14)
C71 C 0.4023(5) 0.0018(5) 0.73524(19)
C89 C 0.5581(8) 0.1824(6) 0.7909(3)
Eu4 Eu 0.46934(2) 0.01976(2) 0.59743(2)
Eu5 Eu 0.44820(2) 0.07782(2) 0.67378(2)
Eu6 Eu 0.51409(2) 0.06456(2) 0.77526(2)
H54 H 0.294946 0.012427 0.538112
O51 O 0.3875(3) 0.0236(4) 0.56407(13)
O52 O 0.5199(5) 0.1602(4) 0.80483(19)
O56 O 0.5815(5) 0.1544(5) 0.7702(2)
C130 C 0.5774(8) 0.2328(8) 0.7939(4)
H76 H 0.547660 0.257147 0.801710
H77 H 0.589227 0.247676 0.775797
H78 H 0.609958 0.232137 0.806581
Eu11 Eu 0.51976(2) 0.03066(2) 0.34743(2)
Eu17 Eu 0.57782(2) 0.05180(2) 0.42378(2)
O60 O 0.5333(3) 0.0387(4) 0.69605(14)
O64 O 0.4080(3) 0.0883(3) 0.62234(11)
O65 O 0.4656(4) 0.1395(3) 0.75001(13)
O69 O 0.5298(3) 0.0616(3) 0.63406(10)
O71 O 0.5553(3) 0.0555(3) 0.56387(10)
O72 O 0.4445(3) 0.0553(3) 0.81387(10)
O76 O 0.5927(4) 0.0554(4) 0.8072(2)
O77 O 0.4943(3) 0.1210(3) 0.58007(12)
O79 O 0.5361(4) 0.1383(4) 0.65948(17)
O81 O 0.4426(4) 0.1558(3) 0.70651(12)
O84 O 0.5723(3) 0.0385(3) 0.73730(12)
O86 O 0.4012(5) 0.1658(5) 0.6466(2)
C5 C 0.1451(6) 0.7317(6) 0.1580(2)
H4 H 0.172731 0.752500 0.168194
C6 C 0.1949(6) 0.6004(6) 0.0615(3)
C8 C 0.0879(6) 0.7196(6) 0.1177(3)
H5 H 0.077227 0.732870 0.099763
O1 O 0.2352(6) 0.6432(6) 0.0702(2)
P2 P 0.13868(13) 0.77294(14) 0.04221(5)
P3 P 0.18648(16) 0.80140(16) 0.09267(6)
O2 O 0.0333(3) 0.4613(4) 0.05395(14)
O3 O 0.0326(4) 0.5621(4) 0.15051(18)
P5 P 0.23431(17) 0.71141(16) 0.06162(9)
C10 C 0.0715(4) 0.4775(4) 0.03823(16)
O6 O 0.3605(3) 0.9656(4) 0.00001(13)
O8 O 0.1352(3) 0.8125(3) 0.01527(12)
O9 O 0.4702(3) 0.9384(3) 0.13406(10)
O10 O 0.4447(3) 0.9445(3) 0.06387(10)
O12 O 0.2180(3) 0.8627(3) 0.09610(14)
C14 C 0.0582(4) 0.7073(5) 0.01912(18)
O13 O 0.0554(4) 0.5927(4) 0.1928(2)
C16 C 0.3016(5) 0.9181(5) 0.10315(16)
H9 H 0.285914 0.944951 0.090568
C19 C 0.1154(5) 0.5422(5) 0.0730(2)
H10 H 0.087538 0.530561 0.086114
C21 C 0.4168(5) 0.8439(5) 0.06125(18)
O17 O 0.1558(4) 0.7996(4) 0.12163(16)
O18 O 0.5057(3) 0.8790(3) 0.08007(12)
C22 C 0.4406(5) 0.8961(5) 0.14285(17)
O21 O 0.0750(3) 0.7466(3) 0.04069(12)
C23 C 0.3565(5) 0.9283(4) 0.11512(17)
H11 H 0.375612 0.962792 0.111134
O22 O 0.4639(4) 0.8617(4) 0.15948(17)
N3 N 0.2280(5) 0.7506(5) 0.0894(2)
C25 C 0.1293(7) 0.7477(5) 0.1322(2)
C27 C 0.2947(6) 0.8292(7) 0.1283(3)
H12 H 0.273839 0.796286 0.133241
C29 C 0.1836(5) 0.8465(5) 0.0073(2)
C31 C 0.0543(6) 0.5976(6) 0.1664(3)
N4 N 0.1388(4) 0.8109(4) 0.06949(16)
C32 C 0.0788(6) 0.6516(5) 0.1546(3)
C33 C 0.1164(4) 0.5174(5) 0.04779(17)
C36 C 0.3682(6) 0.8531(6) 0.0473(2)
H15 H 0.360904 0.889844 0.040090
C38 C 0.0608(6) 0.6713(6) 0.12880(19)
H17 H 0.031159 0.652854 0.118975
C40 C 0.0637(5) 0.6500(5) 0.0232(2)
H18 H 0.078869 0.635511 0.040044
N5 N 0.1891(5) 0.7245(5) 0.0383(2)
C42 C 0.2713(5) 0.8698(5) 0.1097(2)
C43 C 0.3820(5) 0.8887(5) 0.13239(17)
C44 C 0.2484(5) 0.9240(5) 0.0148(2)
H20 H 0.260033 0.955524 0.025638
C45 C 0.3508(6) 0.8385(6) 0.1396(2)
H21 H 0.367110 0.811353 0.151786
C46 C 0.3267(6) 0.8089(6) 0.0431(3)
H22 H 0.291933 0.817184 0.034039
O27 O 0.0723(3) 0.4615(3) 0.01270(12)
C49 C 0.2023(5) 0.8918(5) 0.0227(2)
H24 H 0.182832 0.901369 0.039350
C50 C 0.4586(5) 0.8918(4) 0.06793(18)
C53 C 0.1608(5) 0.5337(6) 0.0291(3)
H26 H 0.163485 0.516157 0.011384
O29 O 0.2977(4) 0.7119(4) 0.0494(2)
C58 C 0.3371(6) 0.7580(6) 0.0516(3)
C59 C 0.0460(6) 0.6127(5) 0.0014(2)
H30 H 0.052647 0.573200 0.003220
C60 C 0.2007(7) 0.5755(7) 0.0367(3)
H31 H 0.230844 0.585551 0.024573
C61 C 0.1191(7) 0.6830(6) 0.1694(2)
H32 H 0.129328 0.671217 0.187635
C62 C 0.4271(7) 0.7890(7) 0.0708(3)
H33 H 0.460783 0.781548 0.080953
C63 C 0.1553(7) 0.5861(5) 0.0810(3)
H34 H 0.153927 0.603936 0.098691
C64 C 0.3889(8) 0.7446(9) 0.0657(3)
H35 H 0.397239 0.706922 0.071319
Eu12 Eu 0.53066(2) 0.98024(2) 0.09743(2)
Eu18 Eu 0.55180(2) 0.92218(2) 0.17378(2)
Eu20 Eu 0.06456(2) 0.51409(2) 0.22474(2)
C1 C 0.1920(14) 0.7030(13) 0.6335(6)
C2 C 0.1615(8) 0.6411(7) 0.6692(3)
H1 H 0.132732 0.616853 0.676269
C3 C 0.2498(9) 0.7121(9) 0.6524(4)
H2 H 0.283201 0.729144 0.645151
C4 C 0.2074(6) 0.6575(7) 0.6876(3)
H3 H 0.209118 0.641996 0.705775
P1 P 0.28476(13) 0.74758(13) 0.72383(5)
P4 P 0.19573(15) 0.80427(15) 0.750000
C9 C 0.0206(4) 0.6323(4) 0.97885(16)
O5 O 0.0920(3) 0.5883(3) 0.62766(11)
C11 C 0.4107(4) 0.8485(5) 0.7035(2)
H6 H 0.433537 0.840002 0.719223
C12 C 0.4294(5) 0.8888(5) 0.68451(18)
H7 H 0.463569 0.909143 0.687607
O6_2 O 0.3605(3) 0.9656(4) 1.00001(13)
C13 C 0.4158(5) 0.9421(5) 0.6401(2)
N1 N 0.2310(4) 0.7864(4) 0.72267(17)
O7 O 0.0195(3) 0.5398(3) 0.95569(13)
O11 O 0.3990(4) 0.9392(3) 0.61508(13)
O15 O 0.4488(3) 0.9836(3) 0.64821(10)
O16 O 0.3444(3) 0.7819(3) 0.72099(12)
C15 C 0.0098(5) 0.6913(5) 0.9769(2)
C17 C 0.2787(5) 0.9092(5) 0.98991(18)
C18 C 0.0037(4) 0.5916(5) 0.95601(18)
N2 N 0.2936(4) 0.7064(4) 0.750000
C20 C 0.0325(5) 0.6522(4) 0.75941(17)
C24 C 0.2459(6) 0.6929(6) 0.6796(2)
O23 O 0.1269(3) 0.8021(3) 0.74551(18)
C28 C 0.0696(5) 0.7421(5) 0.7754(2)
H13 H 0.070858 0.770511 0.789385
C30 C 0.0587(5) 0.6619(5) 0.73482(18)
H14 H 0.055820 0.634684 0.720349
O24 O 0.2901(4) 0.7100(4) 0.69588(13)
C34 C 0.3961(5) 0.8988(5) 0.66031(17)
C35 C 0.3314(5) 0.9434(5) 0.98152(19)
C37 C 0.2103(5) 0.8336(6) 0.98218(18)
H16 H 0.197567 0.802779 0.971114
C39 C 0.0957(5) 0.7506(5) 0.7500(2)
O25 O 0.3442(3) 0.9426(4) 0.95651(12)
C41 C 0.0905(5) 0.7121(6) 0.7303(2)
H19 H 0.108228 0.718112 0.712775
C47 C 0.1579(6) 0.6574(7) 0.6442(2)
C48 C 0.3262(6) 0.8302(6) 0.6767(2)
H23 H 0.291406 0.810838 0.673905
O28 O 0.0988(5) 0.6658(5) 0.6034(2)
C51 C 0.0416(5) 0.6915(5) 0.7801(2)
H25 H 0.028213 0.683614 0.798358
C52 C 0.1128(6) 0.6333(6) 0.6247(3)
C54 C 0.3461(6) 0.8699(6) 0.6575(2)
H27 H 0.323608 0.877193 0.641513
C55 C 0.2555(5) 0.8666(5) 0.97368(19)
H28 H 0.271480 0.859767 0.955853
C56 C 0.3594(5) 0.8203(5) 0.7000(2)
C57 C 0.0307(6) 0.7292(5) 0.9962(2)
H29 H 0.026240 0.768876 0.993725
H39 H 0.220964 0.678911 0.626131
C66 C 0.2970(13) 0.8080(14) 0.8665(6)
C67 C 0.2879(9) 0.7502(9) 0.8476(4)
H40 H 0.270856 0.716799 0.854849
C68 C 0.3425(7) 0.7926(6) 0.8124(3)
H41 H 0.358004 0.790882 0.794225
P6 P 0.25242(13) 0.71524(13) 0.77617(5)
N6 N 0.2136(4) 0.7690(4) 0.77733(17)
O32 O 0.2181(3) 0.6556(3) 0.77901(12)
C69 C 0.3478(4) 0.9675(5) 0.74059(17)
C70 C 0.3071(6) 0.7541(6) 0.8204(2)
O33 O 0.1979(3) 0.8731(3) 0.75449(18)
C72 C 0.2579(5) 0.9304(5) 0.7246(2)
H42 H 0.229489 0.929142 0.710615
C73 C 0.3381(5) 0.9413(5) 0.76518(18)
H43 H 0.365316 0.944180 0.779651
O34 O 0.2900(4) 0.7099(4) 0.80412(13)
C74 C 0.2494(5) 0.9043(5) 0.7500(2)
C75 C 0.2879(6) 0.9095(5) 0.7697(2)
H44 H 0.281888 0.891772 0.787225
C76 C 0.3085(5) 0.9584(5) 0.7199(2)
H45 H 0.316386 0.971787 0.701642
H46 H 0.321089 0.779036 0.873869
C77 C 0.1515(5) 0.5893(4) 0.7965(2)
H47 H 0.159998 0.566463 0.780777
C78 C 0.1112(5) 0.5706(5) 0.81549(18)
H48 H 0.090857 0.536431 0.812393
C79 C 0.0579(5) 0.5842(5) 0.8599(2)
O35 O 0.0608(3) 0.6010(4) 0.88492(13)
O36 O 0.0164(3) 0.5512(3) 0.85179(10)
C80 C 0.1012(5) 0.6039(5) 0.83969(17)
C81 C 0.1698(6) 0.6738(6) 0.8233(2)
H49 H 0.189162 0.708594 0.826095
C82 C 0.1301(6) 0.6539(6) 0.8425(2)
H50 H 0.122807 0.676392 0.858487
C83 C 0.1797(5) 0.6406(5) 0.8000(2)
C84 C 0.3589(7) 0.8385(8) 0.8308(3)
H51 H 0.383147 0.867268 0.823731
O37 O 0.4117(3) 0.9080(3) 0.87234(11)
C85 C 0.3426(7) 0.8421(6) 0.8558(2)
O38 O 0.3342(5) 0.9012(5) 0.8966(2)
C86 C 0.3667(6) 0.8872(6) 0.8753(3)
C87 C 0.2683(6) 0.8549(6) 0.3420(2)
H52 H 0.247500 0.827269 0.331806
C88 C 0.3996(6) 0.8051(6) 0.4385(3)
C90 C 0.2804(6) 0.9121(6) 0.3823(3)
H53 H 0.267130 0.922773 0.400237
O39 O 0.3568(6) 0.7648(6) 0.4298(2)
P7 P 0.22706(14) 0.86132(13) 0.45779(5)
P8 P 0.19860(16) 0.81352(16) 0.40733(6)
O40 O 0.5387(4) 0.9667(3) 0.44605(14)
O41 O 0.4379(4) 0.9674(4) 0.34949(18)
P9 P 0.28859(16) 0.76569(17) 0.43838(9)
C91 C 0.3677(4) 0.9794(4) 0.52115(16)
C92 C 0.5225(4) 0.9285(4) 0.46177(16)
O42 O 0.0344(4) 0.6395(3) 0.49999(13)
O43 O 0.4602(3) 0.9805(3) 0.54431(13)
O44 O 0.1875(3) 0.8648(3) 0.48473(12)
O45 O 0.0616(3) 0.5298(3) 0.36594(10)
O46 O 0.0555(3) 0.5553(3) 0.43613(10)
O47 O 0.1373(3) 0.7820(3) 0.40390(14)
C93 C 0.2927(5) 0.9418(4) 0.48088(18)
O48 O 0.4073(4) 0.9446(4) 0.3072(2)
C94 C 0.3087(5) 0.9902(5) 0.5231(2)
C95 C 0.0819(5) 0.6984(5) 0.39685(16)
H55 H 0.055049 0.714086 0.409432
C96 C 0.0908(5) 0.7213(5) 0.51009(18)
C97 C 0.4084(5) 0.9963(4) 0.54399(18)
C98 C 0.4578(5) 0.8846(5) 0.4270(2)
H56 H 0.469439 0.912462 0.413886
C99 C 0.1561(5) 0.5832(5) 0.43875(18)
O49 O 0.2004(4) 0.8442(4) 0.37837(16)
O50 O 0.1210(3) 0.4943(3) 0.41993(12)
C100 C 0.1039(5) 0.5594(5) 0.35715(17)
O53 O 0.2534(3) 0.9250(3) 0.45931(12)
C101 C 0.0717(4) 0.6435(5) 0.38488(17)
H57 H 0.037208 0.624388 0.388866
O54 O 0.1383(4) 0.5361(4) 0.34052(17)
N7 N 0.2494(5) 0.7720(5) 0.4106(2)
C102 C 0.2523(5) 0.8707(7) 0.3678(2)
C103 C 0.1708(7) 0.7053(6) 0.3717(3)
H58 H 0.203714 0.726161 0.366759
C104 C 0.1535(5) 0.8164(5) 0.4927(2)
C105 C 0.4024(6) 0.9457(6) 0.3336(3)
N8 N 0.1891(4) 0.8612(4) 0.43051(16)
C106 C 0.3484(5) 0.9212(6) 0.3454(3)
C107 C 0.4826(5) 0.8836(4) 0.45221(17)
C108 C 0.0566(5) 0.6686(5) 0.51848(19)
C109 C 0.1469(6) 0.6318(6) 0.4527(2)
H59 H 0.110156 0.639096 0.459910
C110 C 0.1664(6) 0.7897(5) 0.51782(18)
H60 H 0.197221 0.802433 0.528886
C111 C 0.3287(6) 0.9392(6) 0.37120(19)
H61 H 0.347146 0.968841 0.381025
C112 C 0.3500(5) 0.9363(5) 0.4768(2)
H62 H 0.364489 0.921131 0.459956
O55 O 0.0574(4) 0.6558(3) 0.54349(12)
N9 N 0.2755(5) 0.8109(5) 0.4617(2)
C113 C 0.1302(5) 0.7287(5) 0.3903(2)
C114 C 0.1113(5) 0.6180(5) 0.36761(17)
C115 C 0.0760(5) 0.7516(5) 0.4852(2)
H63 H 0.044476 0.739967 0.474362
C116 C 0.1615(6) 0.6492(6) 0.3604(2)
H64 H 0.188647 0.632890 0.348214
C117 C 0.1911(6) 0.6733(6) 0.4569(3)
H65 H 0.182816 0.708067 0.465961
O57 O 0.5385(3) 0.9277(3) 0.48730(12)
C118 C 0.1082(5) 0.7977(5) 0.4773(2)
H66 H 0.098631 0.817168 0.460650
C119 C 0.1082(4) 0.5414(5) 0.43207(18)
C120 C 0.4663(6) 0.8392(5) 0.4709(3)
H67 H 0.483843 0.836515 0.488616
O58 O 0.2881(4) 0.7023(4) 0.4506(2)
C121 C 0.1334(5) 0.7445(5) 0.52632(19)
H68 H 0.140233 0.728520 0.544147
C122 C 0.2708(5) 0.9693(6) 0.5038(2)
H69 H 0.231124 0.973760 0.506275
C123 C 0.2420(6) 0.6629(6) 0.4484(3)
C124 C 0.3873(5) 0.9540(6) 0.4986(2)
H70 H 0.426800 0.947353 0.496780
C125 C 0.4245(7) 0.7993(7) 0.4633(3)
H71 H 0.414449 0.769156 0.475427
C126 C 0.3170(6) 0.8809(7) 0.3306(2)
H72 H 0.328783 0.870672 0.312365
C127 C 0.2110(7) 0.5729(7) 0.4292(3)
H73 H 0.218452 0.539217 0.419047
C128 C 0.4139(5) 0.8447(7) 0.4190(3)
H74 H 0.396064 0.846073 0.401309
C129 C 0.2554(9) 0.6111(8) 0.4343(3)
H75 H 0.293078 0.602761 0.428681
Eu8 Eu 0.01976(2) 0.46934(2) 0.40257(2)
Eu9 Eu 0.03066(2) 0.51976(2) 0.65257(2)
Eu10 Eu 0.48024(2) 0.96934(2) 0.84743(2)
Eu14 Eu 0.07782(2) 0.44820(2) 0.32622(2)
Eu15 Eu 0.05180(2) 0.57782(2) 0.57622(2)
Eu16 Eu 0.42218(2) 0.94820(2) 0.92378(2)
Eu19 Eu 0.01409(2) 0.43544(2) 0.97474(2)
Eu23 Eu 0.56456(2) 0.98591(2) 0.52526(2)
Eu24 Eu 0.48591(2) 0.93544(2) 0.27526(2)
O61 O 0.0621(4) 0.4674(4) 0.90051(18)
O62 O 0.5326(4) 0.9379(4) 0.59949(18)
O67 O 0.0398(3) 0.4805(3) 0.70569(13)
O68 O 0.5195(3) 0.9602(3) 0.79431(13)
Eu7 Eu 0.96934(2) 0.48024(2) 0.15257(2)
Eu13 Eu 0.94820(2) 0.42218(2) 0.07622(2)
C7 C 0.8176(6) 0.4419(8) 0.7091(3)
Eu1 Eu 0.98024(2) 0.53066(2) 0.90257(2)
Eu2 Eu 0.92218(2) 0.55180(2) 0.82622(2)
Eu3 Eu 0.93544(2) 0.48591(2) 0.72474(2)
O4 O 0.9775(4) 0.5900(4) 0.78878(12)
O14 O 0.9892(4) 0.5644(3) 0.74445(14)
H8 H 0.987573 0.705054 0.961888
O19 O 0.9764(4) 0.6125(3) 0.93593(13)
O20 O 0.8398(4) 0.4801(5) 0.69517(19)
C26 C 0.9982(5) 0.5977(5) 0.76476(19)
O26 O 0.8456(5) 0.4185(5) 0.7298(2)
C65 C 0.7672(8) 0.4226(8) 0.7061(4)
H36 H 0.742853 0.452340 0.698290
H37 H 0.752324 0.410773 0.724203
H38 H 0.767863 0.390042 0.693419
Eu21 Eu 0.98591(2) 0.56456(2) 0.47474(2)
O59 O 0.9613(4) 0.4667(3) 0.80395(14)
O63 O 0.9117(3) 0.5920(3) 0.87766(11)
O66 O 0.8605(3) 0.5344(4) 0.74999(13)
O70 O 0.9384(3) 0.4702(3) 0.86594(10)
O73 O 0.9447(3) 0.5555(3) 0.68613(10)
O74 O 0.9445(3) 0.4447(3) 0.93613(10)
O75 O 0.9446(4) 0.4073(4) 0.6928(2)
O78 O 0.8790(3) 0.5057(3) 0.91993(12)
O80 O 0.8617(4) 0.4639(4) 0.84052(17)
O82 O 0.8442(3) 0.5574(4) 0.79349(12)
O83 O 0.9615(3) 0.4277(3) 0.76270(12)
O85 O 0.8342(5) 0.5988(5) 0.8534(2)
O2_2 O 0.0387(4) 0.5333(3) 0.30395(14)
C10_2 C 0.0225(4) 0.5715(4) 0.28823(16)
O27_2 O 0.0385(3) 0.5723(3) 0.26270(12)
O70_2 O 0.0298(3) 0.4384(3) 0.11594(10)
O74_2 O 0.0553(3) 0.4445(3) 0.18613(10)
O80_2 O 0.0361(4) 0.3617(4) 0.09052(17)
C7_2 C 0.0581(8) 0.3176(6) 0.9591(3)
O20_2 O 0.0199(5) 0.3398(4) 0.94517(19)
O26_2 O 0.0815(5) 0.3456(5) 0.9798(2)
C65_2 C 0.0774(8) 0.2672(8) 0.9561(4)
H36_2 H 0.047660 0.242853 0.948290
H37_2 H 0.089227 0.252324 0.974203
H38_2 H 0.109958 0.267863 0.943419
O50_2 O 0.0057(3) 0.6210(3) 0.66993(12)
O75_2 O 0.0927(4) 0.4446(4) 0.9428(2)
O18_2 O 0.6210(3) 0.0057(3) 0.33007(12)
C89_2 C 0.3176(6) 0.0581(8) 0.0409(3)
O52_2 O 0.3398(4) 0.0199(5) 0.05483(19)
O56_2 O 0.3456(5) 0.0815(5) 0.0202(2)
C130_2 C 0.2672(8) 0.0774(8) 0.0439(4)
H76_2 H 0.242853 0.047660 0.051710
H77_2 H 0.252324 0.089227 0.025797
H78_2 H 0.267863 0.109958 0.056581
O68_2 O 0.5398(3) 0.0195(3) 0.04431(13)
O76_2 O 0.4446(4) 0.0927(4) 0.0572(2)
C92_2 C 0.5715(4) 0.0225(4) 0.71177(16)
O60_2 O 0.4613(4) 0.0333(3) 0.94605(14)
O62_2 O 0.5621(4) 0.0326(4) 0.84949(18)
O69_2 O 0.4384(3) 0.0298(3) 0.88406(10)
O79_2 O 0.3617(4) 0.0361(4) 0.90948(17)
O84_2 O 0.4615(3) 0.0723(3) 0.98730(12)
C5_2 C 0.7683(6) 0.6451(6) 0.4080(2)
H4_2 H 0.747500 0.672731 0.418194
C6_2 C 0.8996(6) 0.6949(6) 0.3115(3)
C8_2 C 0.7804(6) 0.5879(6) 0.3677(3)
H5_2 H 0.767130 0.577227 0.349763
O1_2 O 0.8568(6) 0.7352(6) 0.3202(2)
P2_2 P 0.72706(14) 0.63868(13) 0.29221(5)
P3_2 P 0.69860(16) 0.68648(16) 0.34267(6)
P4_2 P 0.69573(15) 0.69573(15) 0.000000
O3_2 O 0.9379(4) 0.5326(4) 0.40051(18)
P5_2 P 0.78859(16) 0.73431(17) 0.31162(9)
C9_2 C 0.8677(4) 0.5206(4) 0.22885(16)
O4_2 O 0.9100(4) 0.4775(4) 0.03878(12)
O6_3 O 0.5344(4) 0.8605(3) 0.25001(13)
O7_2 O 0.9602(3) 0.5195(3) 0.20569(13)
O8_2 O 0.6875(3) 0.6352(3) 0.26527(12)
O9_2 O 0.5616(3) 0.9702(3) 0.38406(10)
O10_2 O 0.5555(3) 0.9447(3) 0.31387(10)
O12_2 O 0.6373(3) 0.7180(3) 0.34610(14)
C14_2 C 0.7927(5) 0.5582(4) 0.26912(18)
O13_2 O 0.9073(4) 0.5554(4) 0.4428(2)
C15_2 C 0.8087(5) 0.5098(5) 0.2269(2)
H8_2 H 0.794946 0.487573 0.211888
C16_2 C 0.5819(5) 0.8016(5) 0.35315(16)
H9_2 H 0.555049 0.785914 0.340568
C17_2 C 0.5908(5) 0.7787(5) 0.23991(18)
C18_2 C 0.9084(5) 0.5037(4) 0.20601(18)
N2_2 N 0.7936(4) 0.7936(4) 0.000000
C19_2 C 0.9578(5) 0.6154(5) 0.3230(2)
H10_2 H 0.969439 0.587538 0.336114
C20_2 C 0.8478(4) 0.5325(5) 0.00941(17)
C21_2 C 0.6561(5) 0.9168(5) 0.31125(18)
O17_2 O 0.7004(4) 0.6558(4) 0.37163(16)
C22_2 C 0.6039(5) 0.9406(5) 0.39285(17)
O19_2 O 0.8875(3) 0.4764(4) 0.18593(13)
O21_2 O 0.7534(3) 0.5750(3) 0.29069(12)
C23_2 C 0.5717(4) 0.8565(5) 0.36512(17)
H11_2 H 0.537208 0.875612 0.361134
O22_2 O 0.6383(4) 0.9639(4) 0.40948(17)
N3_2 N 0.7494(5) 0.7280(5) 0.3394(2)
C25_2 C 0.7523(5) 0.6293(7) 0.3822(2)
C26_2 C 0.9023(5) 0.4982(5) 0.01476(19)
C27_2 C 0.6708(7) 0.7947(6) 0.3783(3)
H12_2 H 0.703714 0.773839 0.383241
C28_2 C 0.7579(5) 0.5696(5) 0.0254(2)
H13_2 H 0.729489 0.570858 0.039385
C29_2 C 0.6535(5) 0.6836(5) 0.2573(2)
C31_2 C 0.9024(6) 0.5543(6) 0.4164(3)
N4_2 N 0.6891(4) 0.6388(4) 0.31949(16)
C32_2 C 0.8484(5) 0.5788(6) 0.4046(3)
C33_2 C 0.9826(5) 0.6164(4) 0.29779(17)
C35_2 C 0.5566(5) 0.8314(5) 0.23152(19)
C36_2 C 0.6469(6) 0.8682(6) 0.2973(2)
H15_2 H 0.610156 0.860904 0.290090
C37_2 C 0.6664(6) 0.7103(5) 0.23218(18)
H16_2 H 0.697221 0.697567 0.221114
C38_2 C 0.8287(6) 0.5608(6) 0.37880(19)
H17_2 H 0.847146 0.531159 0.368975
C39_2 C 0.7494(5) 0.5957(5) 0.0000(2)
C40_2 C 0.8500(5) 0.5637(5) 0.2732(2)
H18_2 H 0.864489 0.578869 0.290044
O25_2 O 0.5574(4) 0.8442(3) 0.20651(12)
N5_2 N 0.7755(5) 0.6891(5) 0.2883(2)
C42_2 C 0.6302(5) 0.7713(5) 0.3597(2)
C43_2 C 0.6113(5) 0.8820(5) 0.38239(17)
C44_2 C 0.5760(5) 0.7484(5) 0.2648(2)
H20_2 H 0.544476 0.760033 0.275638
C45_2 C 0.6615(6) 0.8508(6) 0.3896(2)
H21_2 H 0.688647 0.867110 0.401786
C46_2 C 0.6911(6) 0.8267(6) 0.2931(3)
H22_2 H 0.682816 0.791933 0.284039
C49_2 C 0.6082(5) 0.7023(5) 0.2727(2)
H24_2 H 0.598631 0.682832 0.289350
C50_2 C 0.6082(4) 0.9586(5) 0.31793(18)
C51_2 C 0.8085(5) 0.5416(5) 0.0301(2)
H25_2 H 0.816386 0.528213 0.048358
C53_2 C 0.9663(6) 0.6608(5) 0.2791(3)
H26_2 H 0.983843 0.663485 0.261384
O29_2 O 0.7881(4) 0.7977(4) 0.2994(2)
C55_2 C 0.6334(5) 0.7555(5) 0.22368(19)
H28_2 H 0.640233 0.771480 0.205853
C57_2 C 0.7708(5) 0.5307(6) 0.2462(2)
H29_2 H 0.731124 0.526240 0.243725
C58_2 C 0.7420(6) 0.8371(6) 0.3016(3)
C59_2 C 0.8873(5) 0.5460(6) 0.2514(2)
H30_2 H 0.926800 0.552647 0.253220
C60_2 C 0.9245(7) 0.7007(7) 0.2867(3)
H31_2 H 0.914449 0.730844 0.274573
C61_2 C 0.8170(6) 0.6191(7) 0.4194(2)
H32_2 H 0.828783 0.629328 0.437635
C62_2 C 0.7110(7) 0.9271(7) 0.3208(3)
H33_2 H 0.718452 0.960783 0.330953
C63_2 C 0.9139(5) 0.6553(7) 0.3310(3)
H34_2 H 0.896064 0.653927 0.348691
C64_2 C 0.7554(9) 0.8889(8) 0.3157(3)
H35_2 H 0.793078 0.897239 0.321319
C66_2 C 0.6920(14) 0.7970(13) 0.1165(6)
C67_2 C 0.7498(9) 0.7879(9) 0.0976(4)
H40_2 H 0.783201 0.770856 0.104849
C68_2 C 0.7074(6) 0.8425(7) 0.0624(3)
H41_2 H 0.709118 0.858004 0.044225
P6_2 P 0.78476(13) 0.75242(13) 0.02617(5)
N6_2 N 0.7310(4) 0.7136(4) 0.02733(17)
O31_2 O 0.4892(4) 0.9356(3) 0.00555(14)
O32_2 O 0.8444(3) 0.7181(3) 0.02901(12)
C70_2 C 0.7459(6) 0.8071(6) 0.0704(2)
O33_2 O 0.6269(3) 0.6979(3) 0.00449(18)
C73_2 C 0.5587(5) 0.8381(5) 0.01518(18)
H43_2 H 0.555820 0.865316 0.029651
O34_2 O 0.7901(4) 0.7900(4) 0.05412(13)
C74_2 C 0.5957(5) 0.7494(5) 0.0000(2)
C75_2 C 0.5905(5) 0.7879(6) 0.0197(2)
H44_2 H 0.608228 0.781888 0.037225
H46_2 H 0.720964 0.821089 0.123869
C77_2 C 0.9107(4) 0.6515(5) 0.0465(2)
H47_2 H 0.933537 0.659998 0.030777
C78_2 C 0.9294(5) 0.6112(5) 0.06549(18)
H48_2 H 0.963569 0.590857 0.062393
C79_2 C 0.9158(5) 0.5579(5) 0.1099(2)
O35_2 O 0.8990(4) 0.5608(3) 0.13492(13)
O36_2 O 0.9488(3) 0.5164(3) 0.10179(10)
C80_2 C 0.8961(5) 0.6012(5) 0.08969(17)
C81_2 C 0.8262(6) 0.6698(6) 0.0733(2)
H49_2 H 0.791406 0.689162 0.076095
C82_2 C 0.8461(6) 0.6301(6) 0.0925(2)
H50_2 H 0.823608 0.622807 0.108487
C83_2 C 0.8594(5) 0.6797(5) 0.0500(2)
C84_2 C 0.6615(8) 0.8589(7) 0.0808(3)
H51_2 H 0.632732 0.883147 0.073731
O37_2 O 0.5920(3) 0.9117(3) 0.12234(11)
C85_2 C 0.6579(6) 0.8426(7) 0.1058(2)
O38_2 O 0.5988(5) 0.8342(5) 0.1466(2)
C86_2 C 0.6128(6) 0.8667(6) 0.1253(3)
O63_2 O 0.9080(3) 0.4117(3) 0.12766(11)
O66_2 O 0.9656(4) 0.3605(3) -0.00001(13)
O78_2 O 0.9943(3) 0.3790(3) 0.16993(12)
O82_2 O 0.9426(4) 0.3442(3) 0.04349(12)
O85_2 O 0.9012(5) 0.3342(5) 0.1034(2)
C1_2 C 0.7970(13) 0.6920(14) 0.8835(6)
C2_2 C 0.8589(7) 0.6615(8) 0.9192(3)
H1_2 H 0.883147 0.632732 0.926269
C3_2 C 0.7879(9) 0.7498(9) 0.9024(4)
H2_2 H 0.770856 0.783201 0.895151
C4_2 C 0.8425(7) 0.7074(6) 0.9376(3)
H3_2 H 0.858004 0.709118 0.955775
P1_2 P 0.75242(13) 0.78476(13) 0.97383(5)
P4_3 P 0.69573(15) 0.69573(15) 1.000000
C11_2 C 0.6515(5) 0.9107(4) 0.9535(2)
H6_2 H 0.659998 0.933537 0.969223
C12_2 C 0.6112(5) 0.9294(5) 0.93451(18)
H7_2 H 0.590857 0.963569 0.937607
C13_2 C 0.5579(5) 0.9158(5) 0.8901(2)
N1_2 N 0.7136(4) 0.7310(4) 0.97267(17)
O11_2 O 0.5608(3) 0.8990(4) 0.86508(13)
O14_2 O 0.9356(3) 0.4892(4) 0.99445(14)
O15_2 O 0.5164(3) 0.9488(3) 0.89821(10)
O16_2 O 0.7181(3) 0.8444(3) 0.97099(12)
N2_3 N 0.7936(4) 0.7936(4) 1.000000
C24_2 C 0.8071(6) 0.7459(6) 0.9296(2)
O23_2 O 0.6979(3) 0.6269(3) 0.99551(18)
C30_2 C 0.8381(5) 0.5587(5) 0.98482(18)
H14_2 H 0.865316 0.555820 0.970349
O24_2 O 0.7900(4) 0.7901(4) 0.94588(13)
C34_2 C 0.6012(5) 0.8961(5) 0.91031(17)
C39_3 C 0.7494(5) 0.5957(5) 1.0000(2)
C41_2 C 0.7879(6) 0.5905(5) 0.9803(2)
H19_2 H 0.781888 0.608228 0.962775
C47_2 C 0.8426(7) 0.6579(6) 0.8942(2)
C48_2 C 0.6698(6) 0.8262(6) 0.9267(2)
H23_2 H 0.689162 0.791406 0.923905
C52_2 C 0.8667(6) 0.6128(6) 0.8747(3)
C54_2 C 0.6301(6) 0.8461(6) 0.9075(2)
H27_2 H 0.622807 0.823608 0.891513
C56_2 C 0.6797(5) 0.8594(5) 0.9500(2)
H39_2 H 0.821089 0.720964 0.876131
O30_2 O 0.4775(4) 0.9100(4) 0.96122(12)
C69_2 C 0.5325(5) 0.8478(4) 0.99059(17)
C71_2 C 0.4982(5) 0.9023(5) 0.98524(19)
C72_2 C 0.5696(5) 0.7579(5) 0.9746(2)
H42_2 H 0.570858 0.729489 0.960615
C74_3 C 0.5957(5) 0.7494(5) 1.0000(2)
C76_2 C 0.5416(5) 0.8085(5) 0.9699(2)
H45_2 H 0.528213 0.816386 0.951642
C87_2 C 0.6451(6) 0.7683(6) 0.5920(2)
H52_2 H 0.672731 0.747500 0.581806
C88_2 C 0.6949(6) 0.8996(6) 0.6885(3)
C90_2 C 0.5879(6) 0.7804(6) 0.6323(3)
H53_2 H 0.577227 0.767130 0.650237
O39_2 O 0.7352(6) 0.8568(6) 0.6798(2)
P7_2 P 0.63868(13) 0.72706(14) 0.70779(5)
P8_2 P 0.68648(16) 0.69860(16) 0.65733(6)
P9_2 P 0.73431(17) 0.78859(16) 0.68838(9)
C91_2 C 0.5206(4) 0.8677(4) 0.77115(16)
O44_2 O 0.6352(3) 0.6875(3) 0.73473(12)
O45_2 O 0.9702(3) 0.5616(3) 0.61594(10)
O47_2 O 0.7180(3) 0.6373(3) 0.65390(14)
C93_2 C 0.5582(4) 0.7927(5) 0.73088(18)
O48_2 O 0.5554(4) 0.9073(4) 0.5572(2)
C94_2 C 0.5098(5) 0.8087(5) 0.7731(2)
H54_2 H 0.487573 0.794946 0.788112
C95_2 C 0.8016(5) 0.5819(5) 0.64685(16)
H55_2 H 0.785914 0.555049 0.659432
C96_2 C 0.7787(5) 0.5908(5) 0.76009(18)
C97_2 C 0.5037(4) 0.9084(5) 0.79399(18)
C98_2 C 0.6154(5) 0.9578(5) 0.6770(2)
H56_2 H 0.587538 0.969439 0.663886
C99_2 C 0.9168(5) 0.6561(5) 0.68875(18)
O49_2 O 0.6558(4) 0.7004(4) 0.62837(16)
C100_2 C 0.9406(5) 0.6039(5) 0.60715(17)
O51_2 O 0.4764(4) 0.8875(3) 0.81407(13)
O53_2 O 0.5750(3) 0.7534(3) 0.70931(12)
C101_2 C 0.8565(5) 0.5717(4) 0.63488(17)
H57_2 H 0.875612 0.537208 0.638866
O54_2 O 0.9639(4) 0.6383(4) 0.59052(17)
N7_2 N 0.7280(5) 0.7494(5) 0.6606(2)
C102_2 C 0.6293(7) 0.7523(5) 0.6178(2)
C103_2 C 0.7947(6) 0.6708(7) 0.6217(3)
H58_2 H 0.773839 0.703714 0.616759
C104_2 C 0.6836(5) 0.6535(5) 0.7427(2)
C105_2 C 0.5543(6) 0.9024(6) 0.5836(3)
N8_2 N 0.6388(4) 0.6891(4) 0.68051(16)
C106_2 C 0.5788(6) 0.8484(5) 0.5954(3)
C107_2 C 0.6164(4) 0.9826(5) 0.70221(17)
C108_2 C 0.8314(5) 0.5566(5) 0.76848(19)
C109_2 C 0.8682(6) 0.6469(6) 0.7027(2)
H59_2 H 0.860904 0.610156 0.709910
C110_2 C 0.7103(5) 0.6664(6) 0.76782(18)
H60_2 H 0.697567 0.697221 0.778886
C111_2 C 0.5608(6) 0.8287(6) 0.62120(19)
H61_2 H 0.531159 0.847146 0.631025
C112_2 C 0.5637(5) 0.8500(5) 0.7268(2)
H62_2 H 0.578869 0.864489 0.709956
N9_2 N 0.6891(5) 0.7755(5) 0.7117(2)
C113_2 C 0.7713(5) 0.6302(5) 0.6403(2)
C114_2 C 0.8820(5) 0.6113(5) 0.61761(17)
C115_2 C 0.7484(5) 0.5760(5) 0.7352(2)
H63_2 H 0.760033 0.544476 0.724362
C116_2 C 0.8508(6) 0.6615(6) 0.6104(2)
H64_2 H 0.867110 0.688647 0.598214
C117_2 C 0.8267(6) 0.6911(6) 0.7069(3)
H65_2 H 0.791933 0.682816 0.715961
C118_2 C 0.7023(5) 0.6082(5) 0.7273(2)
H66_2 H 0.682832 0.598631 0.710650
C119_2 C 0.9586(5) 0.6082(4) 0.68207(18)
C120_2 C 0.6608(5) 0.9663(6) 0.7209(3)
H67_2 H 0.663485 0.983843 0.738616
O58_2 O 0.7977(4) 0.7881(4) 0.7006(2)
C121_2 C 0.7555(5) 0.6334(5) 0.77632(19)
H68_2 H 0.771480 0.640233 0.794147
C122_2 C 0.5307(6) 0.7708(5) 0.7538(2)
H69_2 H 0.526240 0.731124 0.756275
C123_2 C 0.8371(6) 0.7420(6) 0.6984(3)
C124_2 C 0.5460(6) 0.8873(5) 0.7486(2)
H70_2 H 0.552647 0.926800 0.746780
C125_2 C 0.7007(7) 0.9245(7) 0.7133(3)
H71_2 H 0.730844 0.914449 0.725427
C126_2 C 0.6191(7) 0.8170(6) 0.5806(2)
H72_2 H 0.629328 0.828783 0.562365
C127_2 C 0.9271(7) 0.7110(7) 0.6792(3)
H73_2 H 0.960783 0.718452 0.669047
C128_2 C 0.6553(7) 0.9139(5) 0.6690(3)
H74_2 H 0.653927 0.896064 0.651309
C129_2 C 0.8889(8) 0.7554(9) 0.6843(3)
H75_2 H 0.897239 0.793078 0.678681
O66_3 O 0.9656(4) 0.3605(3) 0.99999(13)
O77_2 O 0.3790(3) 0.9943(3) 0.83007(12)
C7_3 C 0.1824(6) 0.5581(8) 0.2091(3)
O4_3 O 0.0225(4) 0.4100(4) 0.28878(12)
O14_3 O 0.0108(4) 0.4356(3) 0.24445(14)
H8_3 H 0.012427 0.294946 0.461888
O19_3 O 0.0236(4) 0.3875(3) 0.43593(13)
O20_3 O 0.1602(4) 0.5199(5) 0.19517(19)
C26_3 C 0.0018(5) 0.4023(5) 0.26476(19)
O26_3 O 0.1544(5) 0.5815(5) 0.2298(2)
C65_3 C 0.2328(8) 0.5774(8) 0.2061(4)
H36_3 H 0.257147 0.547660 0.198290
H37_3 H 0.247676 0.589227 0.224203
H38_3 H 0.232137 0.609958 0.193419
O63_3 O 0.0883(3) 0.4080(3) 0.37766(11)
O66_4 O 0.1395(3) 0.4656(4) 0.24999(13)
O82_3 O 0.1558(3) 0.4426(4) 0.29349(12)
O85_3 O 0.1658(5) 0.4012(5) 0.3534(2)
C1_3 C 0.8080(14) 0.2970(13) 0.1335(6)
C2_3 C 0.8385(8) 0.3589(7) 0.1692(3)
H1_3 H 0.867268 0.383147 0.176269
C3_3 C 0.7502(9) 0.2879(9) 0.1524(4)
H2_3 H 0.716799 0.270856 0.145151
C4_3 C 0.7926(6) 0.3425(7) 0.1876(3)
H3_3 H 0.790882 0.358004 0.205775
C5_3 C 0.8549(6) 0.2683(6) 0.6580(2)
H4_3 H 0.827269 0.247500 0.668194
C6_3 C 0.8051(6) 0.3996(6) 0.5615(3)
C8_3 C 0.9121(6) 0.2804(6) 0.6177(3)
H5_3 H 0.922773 0.267130 0.599763
O1_3 O 0.7648(6) 0.3568(6) 0.5702(2)
P1_3 P 0.71524(13) 0.25242(13) 0.22383(5)
P2_3 P 0.86132(13) 0.22706(14) 0.54221(5)
P3_3 P 0.81352(16) 0.19860(16) 0.59267(6)
P4_4 P 0.80427(15) 0.19573(15) 0.250000
O2_3 O 0.9667(3) 0.5387(4) 0.55395(14)
O3_3 O 0.9674(4) 0.4379(4) 0.65051(18)
P5_3 P 0.76569(17) 0.28859(16) 0.56162(9)
C9_3 C 0.9794(4) 0.3677(4) 0.47885(16)
C10_3 C 0.9285(4) 0.5225(4) 0.53823(16)
C11_3 C 0.5893(4) 0.1515(5) 0.2035(2)
H6_3 H 0.566463 0.159998 0.219223
C12_3 C 0.5706(5) 0.1112(5) 0.18451(18)
H7_3 H 0.536431 0.090857 0.187607
O6_4 O 0.6395(3) 0.0344(4) 0.50001(13)
C13_3 C 0.5842(5) 0.0579(5) 0.1401(2)
N1_3 N 0.7690(4) 0.2136(4) 0.22267(17)
O7_3 O 0.9805(3) 0.4602(3) 0.45569(13)
O8_3 O 0.8648(3) 0.1875(3) 0.51527(12)
O11_3 O 0.6010(4) 0.0608(3) 0.11508(13)
O12_3 O 0.7820(3) 0.1373(3) 0.59610(14)
C14_3 C 0.9418(4) 0.2927(5) 0.51912(18)
O15_3 O 0.5512(3) 0.0164(3) 0.14821(10)
O16_3 O 0.6556(3) 0.2181(3) 0.22099(12)
C15_3 C 0.9902(5) 0.3087(5) 0.4769(2)
C16_3 C 0.6984(5) 0.0819(5) 0.60315(16)
H9_3 H 0.714086 0.055049 0.590568
C17_3 C 0.7213(5) 0.0908(5) 0.48991(18)
C18_3 C 0.9963(4) 0.4084(5) 0.45601(18)
N2_4 N 0.7064(4) 0.2936(4) 0.250000
C19_3 C 0.8846(5) 0.4578(5) 0.5730(2)
H10_3 H 0.912462 0.469439 0.586114
C20_3 C 0.9675(5) 0.3478(4) 0.25941(17)
C21_3 C 0.5832(5) 0.1561(5) 0.56125(18)
O17_3 O 0.8442(4) 0.2004(4) 0.62163(16)
C22_3 C 0.5594(5) 0.1039(5) 0.64285(17)
O21_3 O 0.9250(3) 0.2534(3) 0.54069(12)
C23_3 C 0.6435(5) 0.0717(4) 0.61512(17)
H11_3 H 0.624388 0.037208 0.611134
C24_3 C 0.7541(6) 0.3071(6) 0.1796(2)
N3_3 N 0.7720(5) 0.2494(5) 0.5894(2)
O23_3 O 0.8731(3) 0.1979(3) 0.24551(18)
C25_3 C 0.8707(7) 0.2523(5) 0.6322(2)
C27_3 C 0.7053(6) 0.1708(7) 0.6283(3)
H12_3 H 0.726161 0.203714 0.633241
C28_3 C 0.9304(5) 0.2579(5) 0.2754(2)
H13_3 H 0.929142 0.229489 0.289385
C29_3 C 0.8164(5) 0.1535(5) 0.5073(2)
C30_3 C 0.9413(5) 0.3381(5) 0.23482(18)
H14_3 H 0.944180 0.365316 0.220349
O24_3 O 0.7099(4) 0.2900(4) 0.19588(13)
C31_3 C 0.9457(6) 0.4024(6) 0.6664(3)
N4_3 N 0.8612(4) 0.1891(4) 0.56949(16)
C32_3 C 0.9212(6) 0.3484(5) 0.6546(3)
C33_3 C 0.8836(4) 0.4826(5) 0.54779(17)
C34_3 C 0.6039(5) 0.1012(5) 0.16031(17)
C35_3 C 0.6686(5) 0.0566(5) 0.48152(19)
C36_3 C 0.6318(6) 0.1469(6) 0.5473(2)
H15_3 H 0.639096 0.110156 0.540090
C37_3 C 0.7897(5) 0.1664(6) 0.48218(18)
H16_3 H 0.802433 0.197221 0.471114
C38_3 C 0.9392(6) 0.3287(6) 0.62880(19)
H17_3 H 0.968841 0.347146 0.618975
C39_4 C 0.9043(5) 0.2494(5) 0.2500(2)
C40_3 C 0.9363(5) 0.3500(5) 0.5232(2)
H18_3 H 0.921131 0.364489 0.540044
O25_3 O 0.6558(3) 0.0574(4) 0.45651(12)
C41_3 C 0.9095(5) 0.2879(6) 0.2303(2)
H19_3 H 0.891772 0.281888 0.212775
N5_3 N 0.8109(5) 0.2755(5) 0.5383(2)
C42_3 C 0.7287(5) 0.1302(5) 0.6097(2)
C43_3 C 0.6180(5) 0.1113(5) 0.63239(17)
C44_3 C 0.7516(5) 0.0760(5) 0.5148(2)
H20_3 H 0.739967 0.044476 0.525638
C45_3 C 0.6492(6) 0.1615(6) 0.6396(2)
H21_3 H 0.632890 0.188647 0.651786
C46_3 C 0.6733(6) 0.1911(6) 0.5431(3)
H22_3 H 0.708067 0.182816 0.534039
C47_3 C 0.8421(6) 0.3426(7) 0.1442(2)
C48_3 C 0.6738(6) 0.1698(6) 0.1767(2)
H23_3 H 0.708594 0.189162 0.173905
O27_3 O 0.9277(3) 0.5385(3) 0.51270(12)
C49_3 C 0.7977(5) 0.1082(5) 0.5227(2)
H24_3 H 0.817168 0.098631 0.539350
C50_3 C 0.5414(5) 0.1082(4) 0.56793(18)
C51_3 C 0.9584(5) 0.3085(5) 0.2801(2)
H25_3 H 0.971787 0.316386 0.298358
C52_3 C 0.8872(6) 0.3667(6) 0.1247(3)
C53_3 C 0.8392(5) 0.4663(6) 0.5291(3)
H26_3 H 0.836515 0.483843 0.511384
O29_3 O 0.7023(4) 0.2881(4) 0.5494(2)
C54_3 C 0.6539(6) 0.1301(6) 0.1575(2)
H27_3 H 0.676392 0.122807 0.141513
C55_3 C 0.7445(5) 0.1334(5) 0.47368(19)
H28_3 H 0.728520 0.140233 0.455853
C56_3 C 0.6406(5) 0.1797(5) 0.2000(2)
C57_3 C 0.9693(6) 0.2708(5) 0.4962(2)
H29_3 H 0.973760 0.231124 0.493725
C58_3 C 0.6629(6) 0.2420(6) 0.5516(3)
C59_3 C 0.9540(6) 0.3873(5) 0.5014(2)
H30_3 H 0.947353 0.426800 0.503220
C60_3 C 0.7993(7) 0.4245(7) 0.5367(3)
H31_3 H 0.769156 0.414449 0.524573
C61_3 C 0.8809(7) 0.3170(6) 0.6694(2)
H32_3 H 0.870672 0.328783 0.687635
C62_3 C 0.5729(7) 0.2110(7) 0.5708(3)
H33_3 H 0.539217 0.218452 0.580953
C63_3 C 0.8447(7) 0.4139(5) 0.5810(3)
H34_3 H 0.846073 0.396064 0.598691
C64_3 C 0.6111(8) 0.2554(9) 0.5657(3)
H35_3 H 0.602761 0.293078 0.571319
H39_3 H 0.779036 0.321089 0.126131
C66_3 C 0.7030(13) 0.1920(14) 0.3665(6)
C67_3 C 0.7121(9) 0.2498(9) 0.3476(4)
H40_3 H 0.729144 0.283201 0.354849
C68_3 C 0.6575(7) 0.2074(6) 0.3124(3)
H41_3 H 0.641996 0.209118 0.294225
P6_3 P 0.74758(13) 0.28476(13) 0.27617(5)
N6_3 N 0.7864(4) 0.2310(4) 0.27733(17)
O32_3 O 0.7819(3) 0.3444(3) 0.27901(12)
C69_3 C 0.6522(4) 0.0325(5) 0.24059(17)
C70_3 C 0.6929(6) 0.2459(6) 0.3204(2)
O33_3 O 0.8021(3) 0.1269(3) 0.25449(18)
C72_3 C 0.7421(5) 0.0696(5) 0.2246(2)
H42_3 H 0.770511 0.070858 0.210615
C73_3 C 0.6619(5) 0.0587(5) 0.26518(18)
H43_3 H 0.634684 0.055820 0.279651
O34_3 O 0.7100(4) 0.2901(4) 0.30412(13)
C74_4 C 0.7506(5) 0.0957(5) 0.2500(2)
C75_3 C 0.7121(6) 0.0905(5) 0.2697(2)
H44_3 H 0.718112 0.108228 0.287225
C76_3 C 0.6915(5) 0.0416(5) 0.2199(2)
H45_3 H 0.683614 0.028213 0.201642
H46_3 H 0.678911 0.220964 0.373869
C77_3 C 0.8485(5) 0.4107(4) 0.2965(2)
H47_3 H 0.840002 0.433537 0.280777
C78_3 C 0.8888(5) 0.4294(5) 0.31549(18)
H48_3 H 0.909143 0.463569 0.312393
C79_3 C 0.9421(5) 0.4158(5) 0.3599(2)
O35_3 O 0.9392(3) 0.3990(4) 0.38492(13)
O36_3 O 0.9836(3) 0.4488(3) 0.35179(10)
C80_3 C 0.8988(5) 0.3961(5) 0.33969(17)
C81_3 C 0.8302(6) 0.3262(6) 0.3233(2)
H49_3 H 0.810838 0.291406 0.326095
C82_3 C 0.8699(6) 0.3461(6) 0.3425(2)
H50_3 H 0.877193 0.323608 0.358487
C83_3 C 0.8203(5) 0.3594(5) 0.3000(2)
C84_3 C 0.6411(7) 0.1615(8) 0.3308(3)
H51_3 H 0.616853 0.132732 0.323731
O37_3 O 0.5883(3) 0.0920(3) 0.37234(11)
C85_3 C 0.6574(7) 0.1579(6) 0.3558(2)
O38_3 O 0.6658(5) 0.0988(5) 0.3966(2)
C86_3 C 0.6333(6) 0.1128(6) 0.3753(3)
C91_3 C 0.6323(4) 0.0206(4) 0.02115(16)
C94_3 C 0.6913(5) 0.0098(5) 0.0231(2)
C96_3 C 0.9092(5) 0.2787(5) 0.01009(18)
C97_3 C 0.5916(5) 0.0037(4) 0.04399(18)
C108_3 C 0.9434(5) 0.3314(5) 0.01848(19)
C110_3 C 0.8336(6) 0.2103(5) 0.01782(18)
H60_3 H 0.802779 0.197567 0.028886
C121_3 C 0.8666(5) 0.2555(5) 0.02632(19)
H68_3 H 0.859767 0.271480 0.044147
C122_3 C 0.7292(5) 0.0307(6) 0.0038(2)
H69_3 H 0.768876 0.026240 0.006275
O62_3 O 0.4674(4) 0.0621(4) 0.09949(18)
O68_3 O 0.4805(3) 0.0398(3) 0.29431(13)
C87_3 C 0.7317(6) 0.1451(6) 0.8420(2)
H52_3 H 0.752500 0.172731 0.831806
C88_3 C 0.6004(6) 0.1949(6) 0.9385(3)
C90_3 C 0.7196(6) 0.0879(6) 0.8823(3)
H53_3 H 0.732870 0.077227 0.900237
O39_3 O 0.6432(6) 0.2352(6) 0.9298(2)
P7_3 P 0.77294(14) 0.13868(13) 0.95779(5)
P8_3 P 0.80140(16) 0.18648(16) 0.90733(6)
P9_3 P 0.71141(16) 0.23431(17) 0.93838(9)
C92_3 C 0.4775(4) 0.0715(4) 0.96177(16)
O44_3 O 0.8125(3) 0.1352(3) 0.98473(12)
O47_3 O 0.8627(3) 0.2180(3) 0.90390(14)
C93_3 C 0.7073(5) 0.0582(4) 0.98088(18)
C95_3 C 0.9181(5) 0.3016(5) 0.89685(16)
H55_3 H 0.944951 0.285914 0.909432
C98_3 C 0.5422(5) 0.1154(5) 0.9270(2)
H56_3 H 0.530561 0.087538 0.913886
C99_3 C 0.8439(5) 0.4168(5) 0.93875(18)
O49_3 O 0.7996(4) 0.1558(4) 0.87837(16)
C100_3 C 0.8961(5) 0.4406(5) 0.85715(17)
O53_3 O 0.7466(3) 0.0750(3) 0.95931(12)
C101_3 C 0.9283(4) 0.3565(5) 0.88488(17)
H57_3 H 0.962792 0.375612 0.888866
N7_3 N 0.7506(5) 0.2280(5) 0.9106(2)
C102_3 C 0.7477(5) 0.1293(7) 0.8678(2)
C103_3 C 0.8292(7) 0.2947(6) 0.8717(3)
H58_3 H 0.796286 0.273839 0.866759
C104_3 C 0.8465(5) 0.1836(5) 0.9927(2)
C105_3 C 0.5976(6) 0.0543(6) 0.8336(3)
N8_3 N 0.8109(4) 0.1388(4) 0.93051(16)
C106_3 C 0.6516(5) 0.0788(6) 0.8454(3)
C107_3 C 0.5174(5) 0.1164(4) 0.95221(17)
C109_3 C 0.8531(6) 0.3682(6) 0.9527(2)
H59_3 H 0.889844 0.360904 0.959910
C111_3 C 0.6713(6) 0.0608(6) 0.87120(19)
H61_3 H 0.652854 0.031159 0.881025
C112_3 C 0.6500(5) 0.0637(5) 0.9768(2)
H62_3 H 0.635511 0.078869 0.959956
N9_3 N 0.7245(5) 0.1891(5) 0.9617(2)
C113_3 C 0.8698(5) 0.2713(5) 0.8903(2)
C114_3 C 0.8887(5) 0.3820(5) 0.86761(17)
C115_3 C 0.9240(5) 0.2484(5) 0.9852(2)
H63_3 H 0.955524 0.260033 0.974362
C116_3 C 0.8385(6) 0.3508(6) 0.8604(2)
H64_3 H 0.811353 0.367110 0.848214
C117_3 C 0.8089(6) 0.3267(6) 0.9569(3)
H65_3 H 0.817184 0.291933 0.965961
C118_3 C 0.8918(5) 0.2023(5) 0.9773(2)
H66_3 H 0.901369 0.182832 0.960650
C119_3 C 0.8918(4) 0.4586(5) 0.93207(18)
C120_3 C 0.5337(6) 0.1608(5) 0.9709(3)
H67_3 H 0.516157 0.163485 0.988616
O58_3 O 0.7119(4) 0.2977(4) 0.9506(2)
C123_3 C 0.7580(6) 0.3371(6) 0.9484(3)
C124_3 C 0.6127(5) 0.0460(6) 0.9986(2)
H70_3 H 0.573200 0.052647 0.996780
C125_3 C 0.5755(7) 0.2007(7) 0.9633(3)
H71_3 H 0.585551 0.230844 0.975427
C126_3 C 0.6830(6) 0.1191(7) 0.8306(2)
H72_3 H 0.671217 0.129328 0.812365
C127_3 C 0.7890(7) 0.4271(7) 0.9292(3)
H73_3 H 0.781548 0.460783 0.919047
C128_3 C 0.5861(5) 0.1553(7) 0.9190(3)
H74_3 H 0.603936 0.153927 0.901309
C129_3 C 0.7446(9) 0.3889(8) 0.9343(3)
H75_3 H 0.706922 0.397239 0.928681
O30_3 O 0.5900(4) 0.9775(4) 0.21122(12)
O31_3 O 0.5644(3) 0.9892(4) 0.25555(14)
C71_3 C 0.5977(5) 0.9982(5) 0.23524(19)
C89_3 C 0.4419(8) 0.8176(6) 0.2909(3)
H54_3 H 0.705054 0.987573 0.038112
O51_3 O 0.6125(3) 0.9764(4) 0.06407(13)
O52_3 O 0.4801(5) 0.8398(4) 0.30483(19)
O56_3 O 0.4185(5) 0.8456(5) 0.2702(2)
C130_3 C 0.4226(8) 0.7672(8) 0.2939(4)
H76_3 H 0.452340 0.742853 0.301710
H77_3 H 0.410773 0.752324 0.275797
H78_3 H 0.390042 0.767863 0.306581
O60_3 O 0.4667(3) 0.9613(4) 0.19605(14)
O84_3 O 0.4277(3) 0.9615(3) 0.23730(12)
C1_4 C 0.2030(13) 0.3080(14) 0.3835(6)
C2_4 C 0.1411(7) 0.3385(8) 0.4192(3)
H1_4 H 0.116853 0.367268 0.426269
C3_4 C 0.2121(9) 0.2502(9) 0.4024(4)
H2_4 H 0.229144 0.216799 0.395151
C4_4 C 0.1575(7) 0.2926(6) 0.4376(3)
H3_4 H 0.141996 0.290882 0.455775
C5_4 C 0.2317(6) 0.3549(6) 0.9080(2)
H4_4 H 0.252500 0.327269 0.918194
C6_4 C 0.1004(6) 0.3051(6) 0.8115(3)
C8_4 C 0.2196(6) 0.4121(6) 0.8677(3)
H5_4 H 0.232870 0.422773 0.849763
O1_4 O 0.1432(6) 0.2648(6) 0.8202(2)
P1_4 P 0.24758(13) 0.21524(13) 0.47383(5)
P2_4 P 0.27294(14) 0.36132(13) 0.79221(5)
P3_4 P 0.30140(16) 0.31352(16) 0.84267(6)
P4_5 P 0.30427(15) 0.30427(15) 0.500000
P5_4 P 0.21141(16) 0.26569(17) 0.81162(9)
C9_4 C 0.1323(4) 0.4794(4) 0.72885(16)
O4_4 O 0.0900(4) 0.5225(4) 0.53878(12)
C11_4 C 0.3485(5) 0.0893(4) 0.4535(2)
H6_4 H 0.340002 0.066463 0.469223
C12_4 C 0.3888(5) 0.0706(5) 0.43451(18)
H7_4 H 0.409143 0.036431 0.437607
C13_4 C 0.4421(5) 0.0842(5) 0.3901(2)
N1_4 N 0.2864(4) 0.2690(4) 0.47267(17)
O8_4 O 0.3125(3) 0.3648(3) 0.76527(12)
O11_4 O 0.4392(3) 0.1010(4) 0.36508(13)
O12_4 O 0.3627(3) 0.2820(3) 0.84610(14)
C14_4 C 0.2073(5) 0.4418(4) 0.76912(18)
O14_4 O 0.0644(3) 0.5108(4) 0.49445(14)
O15_4 O 0.4836(3) 0.0512(3) 0.39821(10)
O16_4 O 0.2819(3) 0.1556(3) 0.47099(12)
C15_4 C 0.1913(5) 0.4902(5) 0.7269(2)
H8_4 H 0.205054 0.512427 0.711888
C16_4 C 0.4181(5) 0.1984(5) 0.85315(16)
H9_4 H 0.444951 0.214086 0.840568
C17_4 C 0.4092(5) 0.2213(5) 0.73991(18)
C18_4 C 0.0916(5) 0.4963(4) 0.70601(18)
N2_5 N 0.2064(4) 0.2064(4) 0.500000
C19_4 C 0.0422(5) 0.3846(5) 0.8230(2)
H10_4 H 0.030561 0.412462 0.836114
C20_4 C 0.1522(4) 0.4675(5) 0.50941(17)
C21_4 C 0.3439(5) 0.0832(5) 0.81125(18)
O17_4 O 0.2996(4) 0.3442(4) 0.87163(16)
C22_4 C 0.3961(5) 0.0594(5) 0.89285(17)
O19_4 O 0.1125(3) 0.5236(4) 0.68593(13)
O21_4 O 0.2466(3) 0.4250(3) 0.79069(12)
C23_4 C 0.4283(4) 0.1435(5) 0.86512(17)
H11_4 H 0.462792 0.124388 0.861134
C24_4 C 0.1929(6) 0.2541(6) 0.4296(2)
N3_4 N 0.2506(5) 0.2720(5) 0.8394(2)
O23_4 O 0.3021(3) 0.3731(3) 0.49551(18)
C25_4 C 0.2477(5) 0.3707(7) 0.8822(2)
C26_4 C 0.0977(5) 0.5018(5) 0.51476(19)
C27_4 C 0.3292(7) 0.2053(6) 0.8783(3)
H12_4 H 0.296286 0.226161 0.883241
C28_4 C 0.2421(5) 0.4304(5) 0.5254(2)
H13_4 H 0.270511 0.429142 0.539385
C29_4 C 0.3465(5) 0.3164(5) 0.7573(2)
C30_4 C 0.1619(5) 0.4413(5) 0.48482(18)
H14_4 H 0.134684 0.444180 0.470349
O24_4 O 0.2100(4) 0.2099(4) 0.44588(13)
C31_4 C 0.0976(6) 0.4457(6) 0.9164(3)
N4_4 N 0.3109(4) 0.3612(4) 0.81949(16)
C32_4 C 0.1516(5) 0.4212(6) 0.9046(3)
C33_4 C 0.0174(5) 0.3836(4) 0.79779(17)
C34_4 C 0.3988(5) 0.1039(5) 0.41031(17)
C35_4 C 0.4434(5) 0.1686(5) 0.73152(19)
C36_4 C 0.3531(6) 0.1318(6) 0.7973(2)
H15_4 H 0.389844 0.139096 0.790090
C37_4 C 0.3336(6) 0.2897(5) 0.73218(18)
H16_4 H 0.302779 0.302433 0.721114
C38_4 C 0.1713(6) 0.4392(6) 0.87880(19)
H17_4 H 0.152854 0.468841 0.868975
C39_5 C 0.2506(5) 0.4043(5) 0.5000(2)
C40_4 C 0.1500(5) 0.4363(5) 0.7732(2)
H18_4 H 0.135511 0.421131 0.790044
C41_4 C 0.2121(6) 0.4095(5) 0.4803(2)
H19_4 H 0.218112 0.391772 0.462775
N5_4 N 0.2245(5) 0.3109(5) 0.7883(2)
C42_4 C 0.3698(5) 0.2287(5) 0.8597(2)
C43_4 C 0.3887(5) 0.1180(5) 0.88239(17)
C44_4 C 0.4240(5) 0.2516(5) 0.7648(2)
H20_4 H 0.455524 0.239967 0.775638
C45_4 C 0.3385(6) 0.1492(6) 0.8896(2)
H21_4 H 0.311353 0.132890 0.901786
C46_4 C 0.3089(6) 0.1733(6) 0.7931(3)
H22_4 H 0.317184 0.208067 0.784039
C47_4 C 0.1574(7) 0.3421(6) 0.3942(2)
C48_4 C 0.3302(6) 0.1738(6) 0.4267(2)
H23_4 H 0.310838 0.208594 0.423905
C49_4 C 0.3918(5) 0.2977(5) 0.7727(2)
H24_4 H 0.401369 0.317168 0.789350
C50_4 C 0.3918(4) 0.0414(5) 0.81793(18)
C51_4 C 0.1915(5) 0.4584(5) 0.5301(2)
H25_4 H 0.183614 0.471787 0.548358
C52_4 C 0.1333(6) 0.3872(6) 0.3747(3)
C53_4 C 0.0337(6) 0.3392(5) 0.7791(3)
H26_4 H 0.016157 0.336515 0.761384
O29_4 O 0.2119(4) 0.2023(4) 0.7994(2)
C54_4 C 0.3699(6) 0.1539(6) 0.4075(2)
H27_4 H 0.377193 0.176392 0.391513
C55_4 C 0.3666(5) 0.2445(5) 0.72368(19)
H28_4 H 0.359767 0.228520 0.705853
C56_4 C 0.3203(5) 0.1406(5) 0.4500(2)
C57_4 C 0.2292(5) 0.4693(6) 0.7462(2)
H29_4 H 0.268876 0.473760 0.743725
C58_4 C 0.2580(6) 0.1629(6) 0.8016(3)
C59_4 C 0.1127(5) 0.4540(6) 0.7514(2)
H30_4 H 0.073200 0.447353 0.753220
C60_4 C 0.0755(7) 0.2993(7) 0.7867(3)
H31_4 H 0.085551 0.269156 0.774573
C61_4 C 0.1830(6) 0.3809(7) 0.9194(2)
H32_4 H 0.171217 0.370672 0.937635
C62_4 C 0.2890(7) 0.0729(7) 0.8208(3)
H33_4 H 0.281548 0.039217 0.830953
C63_4 C 0.0861(5) 0.3447(7) 0.8310(3)
H34_4 H 0.103936 0.346073 0.848691
C64_4 C 0.2446(9) 0.1111(8) 0.8157(3)
H35_4 H 0.206922 0.102761 0.821319
H39_4 H 0.178911 0.279036 0.376131
C66_4 C 0.3080(14) 0.2030(13) 0.6165(6)
C67_4 C 0.2502(9) 0.2121(9) 0.5976(4)
H40_4 H 0.216799 0.229144 0.604849
C68_4 C 0.2926(6) 0.1575(7) 0.5624(3)
H41_4 H 0.290882 0.141996 0.544225
P6_4 P 0.21524(13) 0.24758(13) 0.52617(5)
O30_4 O 0.5225(4) 0.0900(4) 0.46122(12)
N6_4 N 0.2690(4) 0.2864(4) 0.52733(17)
O31_4 O 0.5108(4) 0.0644(3) 0.50555(14)
O32_4 O 0.1556(3) 0.2819(3) 0.52901(12)
C69_4 C 0.4675(5) 0.1522(4) 0.49059(17)
C70_4 C 0.2541(6) 0.1929(6) 0.5704(2)
O33_4 O 0.3731(3) 0.3021(3) 0.50449(18)
C71_4 C 0.5018(5) 0.0977(5) 0.48524(19)
C72_4 C 0.4304(5) 0.2421(5) 0.4746(2)
H42_4 H 0.429142 0.270511 0.460615
C73_4 C 0.4413(5) 0.1619(5) 0.51518(18)
H43_4 H 0.444180 0.134684 0.529651
O34_4 O 0.2099(4) 0.2100(4) 0.55412(13)
C74_5 C 0.4043(5) 0.2506(5) 0.5000(2)
C75_4 C 0.4095(5) 0.2121(6) 0.5197(2)
H44_4 H 0.391772 0.218112 0.537225
C76_4 C 0.4584(5) 0.1915(5) 0.4699(2)
H45_4 H 0.471787 0.183614 0.451642
H46_4 H 0.279036 0.178911 0.623869
C77_4 C 0.0893(4) 0.3485(5) 0.5465(2)
H47_4 H 0.066463 0.340002 0.530777
C78_4 C 0.0706(5) 0.3888(5) 0.56549(18)
H48_4 H 0.036431 0.409143 0.562393
C79_4 C 0.0842(5) 0.4421(5) 0.6099(2)
O35_4 O 0.1010(4) 0.4392(3) 0.63492(13)
O36_4 O 0.0512(3) 0.4836(3) 0.60179(10)
C80_4 C 0.1039(5) 0.3988(5) 0.58969(17)
C81_4 C 0.1738(6) 0.3302(6) 0.5733(2)
H49_4 H 0.208594 0.310838 0.576095
C82_4 C 0.1539(6) 0.3699(6) 0.5925(2)
H50_4 H 0.176392 0.377193 0.608487
C83_4 C 0.1406(5) 0.3203(5) 0.5500(2)
C84_4 C 0.3385(8) 0.1411(7) 0.5808(3)
H51_4 H 0.367268 0.116853 0.573731
C85_4 C 0.3421(6) 0.1574(7) 0.6058(2)
C86_4 C 0.3872(6) 0.1333(6) 0.6253(3)
C87_4 C 0.3549(6) 0.2317(6) 0.0920(2)
H52_4 H 0.327269 0.252500 0.081806
C88_4 C 0.3051(6) 0.1004(6) 0.1885(3)
C90_4 C 0.4121(6) 0.2196(6) 0.1323(3)
H53_4 H 0.422773 0.232870 0.150237
O39_4 O 0.2648(6) 0.1432(6) 0.1798(2)
P7_4 P 0.36132(13) 0.27294(14) 0.20779(5)
P8_4 P 0.31352(16) 0.30140(16) 0.15733(6)
P9_4 P 0.26569(17) 0.21141(16) 0.18838(9)
C91_4 C 0.4794(4) 0.1323(4) 0.27115(16)
O44_4 O 0.3648(3) 0.3125(3) 0.23473(12)
O47_4 O 0.2820(3) 0.3627(3) 0.15390(14)
C93_4 C 0.4418(4) 0.2073(5) 0.23088(18)
C94_4 C 0.4902(5) 0.1913(5) 0.2731(2)
H54_4 H 0.512427 0.205054 0.288112
C95_4 C 0.1984(5) 0.4181(5) 0.14685(16)
H55_4 H 0.214086 0.444951 0.159432
C96_4 C 0.2213(5) 0.4092(5) 0.26009(18)
C97_4 C 0.4963(4) 0.0916(5) 0.29399(18)
C98_4 C 0.3846(5) 0.0422(5) 0.1770(2)
H56_4 H 0.412462 0.030561 0.163886
C99_4 C 0.0832(5) 0.3439(5) 0.18875(18)
O49_4 O 0.3442(4) 0.2996(4) 0.12837(16)
C100_4 C 0.0594(5) 0.3961(5) 0.10715(17)
O51_4 O 0.5236(4) 0.1125(3) 0.31407(13)
O53_4 O 0.4250(3) 0.2466(3) 0.20931(12)
C101_4 C 0.1435(5) 0.4283(4) 0.13488(17)
H57_4 H 0.124388 0.462792 0.138866
N7_4 N 0.2720(5) 0.2506(5) 0.1606(2)
C102_4 C 0.3707(7) 0.2477(5) 0.1178(2)
C103_4 C 0.2053(6) 0.3292(7) 0.1217(3)
H58_4 H 0.226161 0.296286 0.116759
C104_4 C 0.3164(5) 0.3465(5) 0.2427(2)
C105_4 C 0.4457(6) 0.0976(6) 0.0836(3)
N8_4 N 0.3612(4) 0.3109(4) 0.18051(16)
C106_4 C 0.4212(6) 0.1516(5) 0.0954(3)
C107_4 C 0.3836(4) 0.0174(5) 0.20221(17)
C108_4 C 0.1686(5) 0.4434(5) 0.26848(19)
C109_4 C 0.1318(6) 0.3531(6) 0.2027(2)
H59_4 H 0.139096 0.389844 0.209910
C110_4 C 0.2897(5) 0.3336(6) 0.26782(18)
H60_4 H 0.302433 0.302779 0.278886
C111_4 C 0.4392(6) 0.1713(6) 0.12120(19)
H61_4 H 0.468841 0.152854 0.131025
C112_4 C 0.4363(5) 0.1500(5) 0.2268(2)
H62_4 H 0.421131 0.135511 0.209956
N9_4 N 0.3109(5) 0.2245(5) 0.2117(2)
C113_4 C 0.2287(5) 0.3698(5) 0.1403(2)
C114_4 C 0.1180(5) 0.3887(5) 0.11761(17)
C115_4 C 0.2516(5) 0.4240(5) 0.2352(2)
H63_4 H 0.239967 0.455524 0.224362
C116_4 C 0.1492(6) 0.3385(6) 0.1104(2)
H64_4 H 0.132890 0.311353 0.098214
C117_4 C 0.1733(6) 0.3089(6) 0.2069(3)
H65_4 H 0.208067 0.317184 0.215961
C118_4 C 0.2977(5) 0.3918(5) 0.2273(2)
H66_4 H 0.317168 0.401369 0.210650
C119_4 C 0.0414(5) 0.3918(4) 0.18207(18)
C120_4 C 0.3392(5) 0.0337(6) 0.2209(3)
H67_4 H 0.336515 0.016157 0.238616
O58_4 O 0.2023(4) 0.2119(4) 0.2006(2)
C121_4 C 0.2445(5) 0.3666(5) 0.27632(19)
H68_4 H 0.228520 0.359767 0.294147
C122_4 C 0.4693(6) 0.2292(5) 0.2538(2)
H69_4 H 0.473760 0.268876 0.256275
C123_4 C 0.1629(6) 0.2580(6) 0.1984(3)
C124_4 C 0.4540(6) 0.1127(5) 0.2486(2)
H70_4 H 0.447353 0.073200 0.246780
C125_4 C 0.2993(7) 0.0755(7) 0.2133(3)
H71_4 H 0.269156 0.085551 0.225427
C126_4 C 0.3809(7) 0.1830(6) 0.0806(2)
H72_4 H 0.370672 0.171217 0.062365
C127_4 C 0.0729(7) 0.2890(7) 0.1792(3)
H73_4 H 0.039217 0.281548 0.169047
C128_4 C 0.3447(7) 0.0861(5) 0.1690(3)
H74_4 H 0.346073 0.103936 0.151309
C129_4 C 0.1111(8) 0.2446(9) 0.1843(3)
H75_4 H 0.102761 0.206922 0.178681
C89_4 C 0.6824(6) 0.9419(8) 0.5409(3)
C92_4 C 0.4285(4) 0.9775(4) 0.21177(16)
O52_4 O 0.6602(4) 0.9801(5) 0.55483(19)
O56_4 O 0.6544(5) 0.9185(5) 0.5202(2)
C130_4 C 0.7328(8) 0.9226(8) 0.5439(4)
H76_4 H 0.757147 0.952340 0.551710
H77_4 H 0.747676 0.910773 0.525797
H78_4 H 0.732137 0.890042 0.556581
C7_4 C 0.9419(8) 0.6824(6) 0.4591(3)
C10_4 C 0.9775(4) 0.4285(4) 0.78823(16)
O20_4 O 0.9801(5) 0.6602(4) 0.44517(19)
O26_4 O 0.9185(5) 0.6544(5) 0.4798(2)
C65_4 C 0.9226(8) 0.7328(8) 0.4561(4)
H36_4 H 0.952340 0.757147 0.448290
H37_4 H 0.910773 0.747676 0.474203
H38_4 H 0.890042 0.732137 0.443419
loop_
_geom_bond_atom_site_label_1
_geom_bond_atom_site_label_2
_geom_bond_site_symmetry_1
_geom_bond_site_symmetry_2
O30 C71 1_555 1_555
O31 C71 1_555 1_555
C89 O52 1_555 1_555
Eu6 O31 1_555 1_555
O51 Eu4 1_555 1_555
O52 Eu6 1_555 1_555
O56 C89 1_555 1_555
C130 C89 1_555 1_555
H76 C130 1_555 1_555
H77 C130 1_555 1_555
H78 C130 1_555 1_555
O60 Eu5 1_555 1_555
O64 Eu4 1_555 1_555
O65 Eu6 1_555 1_555
O69 Eu4 1_555 1_555
O71 Eu4 1_555 1_555
O72 Eu6 1_555 1_555
O76 Eu6 1_555 1_555
O77 Eu4 1_555 1_555
O79 Eu5 1_555 1_555
O81 Eu5 1_555 1_555
O84 Eu6 1_555 1_555
O86 Eu5 1_555 1_555
O30 Eu5 1_555 1_555
Eu5 O64 1_555 1_555
Eu5 O69 1_555 1_555
Eu6 O56 1_555 1_555
C5 H4 1_555 1_555
C6 O1 1_555 1_555
C8 H5 1_555 1_555
O1 P5 1_555 1_555
P2 O8 1_555 1_555
P3 O12 1_555 1_555
O2 C10 1_555 1_555
O3 C31 1_555 1_555
P5 N3 1_555 1_555
C10 C33 1_555 1_555
O8 C29 1_555 1_555
O9 C22 1_555 1_555
O10 C50 1_555 1_555
O12 C42 1_555 1_555
C14 O21 1_555 1_555
O13 C31 1_555 1_555
C16 H9 1_555 1_555
C19 H10 1_555 1_555
C21 C36 1_555 1_555
O17 P3 1_555 1_555
O18 C50 1_555 1_555
C22 O22 1_555 1_555
O21 P2 1_555 1_555
C23 C16 1_555 1_555
H11 C23 1_555 1_555
O22 Eu18 1_555 1_555
N3 P3 1_555 1_555
C25 C5 1_555 1_555
C27 H12 1_555 1_555
C31 C32 1_555 1_555
N4 P2 1_555 1_555
C32 C38 1_555 1_555
C33 C19 1_555 1_555
C36 H15 1_555 1_555
C38 C8 1_555 1_555
H17 C38 1_555 1_555
C40 C14 1_555 1_555
H18 C40 1_555 1_555
N5 P2 1_555 1_555
C42 C16 1_555 1_555
C43 C22 1_555 1_555
H20 C44 1_555 1_555
C45 C27 1_555 1_555
H21 C45 1_555 1_555
C46 C36 1_555 1_555
H22 C46 1_555 1_555
O27 C10 1_555 1_555
C49 C29 1_555 1_555
H24 C49 1_555 1_555
C50 C21 1_555 1_555
C53 C33 1_555 1_555
H26 C53 1_555 1_555
O29 P5 1_555 1_555
C58 C46 1_555 1_555
H30 C59 1_555 1_555
C60 C6 1_555 1_555
H31 C60 1_555 1_555
C61 C5 1_555 1_555
H32 C61 1_555 1_555
C62 C21 1_555 1_555
H33 C62 1_555 1_555
C63 C6 1_555 1_555
H34 C63 1_555 1_555
C64 C58 1_555 1_555
H35 C64 1_555 1_555
Eu12 O9 1_555 1_555
Eu18 O9 1_555 1_555
Eu20 O13 1_555 1_555
C8 C25 1_555 1_555
P3 N4 1_555 1_555
P5 N5 1_555 1_555
O10 Eu12 1_555 1_555
C19 C63 1_555 1_555
O17 C25 1_555 1_555
O18 Eu12 1_555 1_555
C23 C43 1_555 1_555
C27 C42 1_555 1_555
C32 C61 1_555 1_555
C40 C59 1_555 1_555
C43 C45 1_555 1_555
C44 C49 1_555 1_555
C53 C60 1_555 1_555
O29 C58 1_555 1_555
C62 C64 1_555 1_555
C1 C3 1_555 1_555
C2 H1 1_555 1_555
C3 H2 1_555 1_555
C4 C2 1_555 1_555
H3 C4 1_555 1_555
P1 N1 1_555 1_555
P4 N1 1_555 1_555
C9 C15 1_555 1_555
O5 C52 1_555 1_555
C11 H6 1_555 1_555
C12 C11 1_555 1_555
H7 C12 1_555 1_555
O6_2 C35 1_555 1_555
C13 O11 1_555 1_555
O7 C18 1_555 1_555
O15 C13 1_555 1_555
O16 P1 1_555 1_555
C17 C35 1_555 1_555
C18 C9 1_555 1_555
N2 P1 1_555 1_555
C24 C3 1_555 1_555
O23 P4 1_555 1_555
C28 H13 1_555 1_555
C30 C20 1_555 1_555
H14 C30 1_555 1_555
O24 P1 1_555 1_555
C34 C12 1_555 1_555
C35 O25 1_555 1_555
C37 H16 1_555 1_555
C39 O23 1_555 1_555
O25 Eu16 1_555 1_555
C41 C30 1_555 1_555
H19 C41 1_555 1_555
C47 C1 1_555 1_555
C48 H23 1_555 1_555
O28 C52 1_555 1_555
C51 C20 1_555 1_555
H25 C51 1_555 1_555
C52 C47 1_555 1_555
C54 C34 1_555 1_555
H27 C54 1_555 1_555
C55 C17 1_555 1_555
H28 C55 1_555 1_555
C56 C11 1_555 1_555
H29 C57 1_555 1_555
H39 C1 1_555 1_555
C66 C67 1_555 1_555
C67 H40 1_555 1_555
C68 H41 1_555 1_555
P6 N2 1_555 1_555
N6 P4 1_555 1_555
O32 P6 1_555 1_555
C70 C67 1_555 1_555
O33 P4 1_555 1_555
C72 H42 1_555 1_555
C73 C69 1_555 1_555
H43 C73 1_555 1_555
O34 P6 1_555 1_555
C74 O33 1_555 1_555
C75 C73 1_555 1_555
H44 C75 1_555 1_555
C76 C69 1_555 1_555
H45 C76 1_555 1_555
H46 C66 1_555 1_555
C77 H47 1_555 1_555
C78 C77 1_555 1_555
H48 C78 1_555 1_555
C79 O35 1_555 1_555
C80 C78 1_555 1_555
C81 H49 1_555 1_555
C82 C80 1_555 1_555
H50 C82 1_555 1_555
C83 O32 1_555 1_555
C84 C68 1_555 1_555
H51 C84 1_555 1_555
O37 C86 1_555 1_555
C85 C66 1_555 1_555
O38 C86 1_555 1_555
C86 C85 1_555 1_555
C87 H52 1_555 1_555
C88 O39 1_555 1_555
C90 H53 1_555 1_555
O39 P9 1_555 1_555
P7 O44 1_555 1_555
P8 O47 1_555 1_555
O40 C92 1_555 1_555
O41 C105 1_555 1_555
P9 N7 1_555 1_555
C91 C94 1_555 1_555
C92 C107 1_555 1_555
O42 C108 1_555 1_555
O44 C104 1_555 1_555
O45 C100 1_555 1_555
O46 C119 1_555 1_555
O47 C113 1_555 1_555
C93 O53 1_555 1_555
O48 C105 1_555 1_555
C95 H55 1_555 1_555
C96 C108 1_555 1_555
C97 C91 1_555 1_555
C98 H56 1_555 1_555
C99 C109 1_555 1_555
O49 P8 1_555 1_555
O50 C119 1_555 1_555
C100 O54 1_555 1_555
O53 P7 1_555 1_555
C101 C95 1_555 1_555
H57 C101 1_555 1_555
O54 Eu14 1_555 1_555
N7 P8 1_555 1_555
C102 C87 1_555 1_555
C103 H58 1_555 1_555
C104 C110 1_555 1_555
C105 C106 1_555 1_555
N8 P7 1_555 1_555
C106 C111 1_555 1_555
C107 C98 1_555 1_555
C108 O55 1_555 1_555
C109 H59 1_555 1_555
C110 H60 1_555 1_555
C111 C90 1_555 1_555
H61 C111 1_555 1_555
C112 C93 1_555 1_555
H62 C112 1_555 1_555
O55 Eu15 1_555 1_555
N9 P7 1_555 1_555
C113 C95 1_555 1_555
C114 C100 1_555 1_555
C115 C96 1_555 1_555
H63 C115 1_555 1_555
C116 C103 1_555 1_555
H64 C116 1_555 1_555
C117 C109 1_555 1_555
H65 C117 1_555 1_555
O57 C92 1_555 1_555
C118 C104 1_555 1_555
H66 C118 1_555 1_555
C119 C99 1_555 1_555
C120 C107 1_555 1_555
H67 C120 1_555 1_555
O58 P9 1_555 1_555
C121 C96 1_555 1_555
H68 C121 1_555 1_555
C122 C93 1_555 1_555
H69 C122 1_555 1_555
C123 C117 1_555 1_555
C124 C91 1_555 1_555
H70 C124 1_555 1_555
C125 C88 1_555 1_555
H71 C125 1_555 1_555
C126 C87 1_555 1_555
H72 C126 1_555 1_555
C127 C99 1_555 1_555
H73 C127 1_555 1_555
C128 C88 1_555 1_555
H74 C128 1_555 1_555
C129 C123 1_555 1_555
H75 C129 1_555 1_555
Eu8 O45 1_555 1_555
Eu9 O5 1_555 1_555
Eu10 O37 1_555 1_555
Eu14 O45 1_555 1_555
Eu15 O5 1_555 1_555
Eu16 O37 1_555 1_555
Eu19 O7 1_555 1_555
Eu23 O43 1_555 1_555
Eu24 O48 1_555 1_555
C2 C47 1_555 1_555
C4 C24 1_555 1_555
C13 C34 1_555 1_555
O16 C56 1_555 1_555
C15 C57 1_555 1_555
C24 O24 1_555 1_555
C28 C39 1_555 1_555
C28 C51 1_555 1_555
C37 C55 1_555 1_555
C39 C41 1_555 1_555
C48 C54 1_555 1_555
C48 C56 1_555 1_555
O28 Eu15 1_555 1_555
C68 C70 1_555 1_555
P6 N6 1_555 1_555
C70 O34 1_555 1_555
C72 C74 1_555 1_555
C72 C76 1_555 1_555
C74 C75 1_555 1_555
C77 C83 1_555 1_555
C79 O36 1_555 1_555
C79 C80 1_555 1_555
C81 C82 1_555 1_555
C81 C83 1_555 1_555
C84 C85 1_555 1_555
O38 Eu16 1_555 1_555
C90 C102 1_555 1_555
P8 N8 1_555 1_555
P9 N9 1_555 1_555
O43 C97 1_555 1_555
O46 Eu8 1_555 1_555
C94 C122 1_555 1_555
C98 C128 1_555 1_555
O49 C102 1_555 1_555
O50 Eu8 1_555 1_555
C101 C114 1_555 1_555
C103 C113 1_555 1_555
C106 C126 1_555 1_555
C110 C121 1_555 1_555
C112 C124 1_555 1_555
C114 C116 1_555 1_555
C115 C118 1_555 1_555
O57 Eu23 1_555 1_555
C120 C125 1_555 1_555
O58 C123 1_555 1_555
C127 C129 1_555 1_555
Eu9 O67 1_555 1_555
Eu10 O68 1_555 1_555
C7 O20 1_555 1_555
Eu2 O4 1_555 1_555
Eu3 O14 1_555 1_555
O4 C26 1_555 1_555
O14 C26 1_555 1_555
O19 Eu1 1_555 1_555
O20 Eu3 1_555 1_555
O26 C7 1_555 1_555
C65 C7 1_555 1_555
H36 C65 1_555 1_555
H37 C65 1_555 1_555
H38 C65 1_555 1_555
O59 Eu2 1_555 1_555
O63 Eu1 1_555 1_555
O66 Eu3 1_555 1_555
O70 Eu1 1_555 1_555
O73 Eu3 1_555 1_555
O74 Eu1 1_555 1_555
O75 Eu3 1_555 1_555
O78 Eu1 1_555 1_555
O80 Eu2 1_555 1_555
O82 Eu2 1_555 1_555
O83 Eu3 1_555 1_555
O85 Eu2 1_555 1_555
Eu2 O63 1_555 1_555
Eu2 O70 1_555 1_555
Eu3 O26 1_555 1_555
O2_2 C10_2 1_555 1_555
O27_2 C10_2 1_555 1_555
Eu14 O2_2 1_555 1_555
O27_2 Eu20 1_555 1_555
Eu20 O74_2 1_555 1_555
C7_2 O20_2 1_555 1_555
O20_2 Eu19 1_555 1_555
O26_2 C7_2 1_555 1_555
C65_2 C7_2 1_555 1_555
H36_2 C65_2 1_555 1_555
H37_2 C65_2 1_555 1_555
H38_2 C65_2 1_555 1_555
O75_2 Eu19 1_555 1_555
Eu19 O26_2 1_555 1_555
O50_2 Eu9 1_555 1_555
C89_2 O52_2 1_555 1_555
O52_2 Eu22 1_555 1_555
O56_2 C89_2 1_555 1_555
C130_2 C89_2 1_555 1_555
H76_2 C130_2 1_555 1_555
H77_2 C130_2 1_555 1_555
H78_2 C130_2 1_555 1_555
O68_2 Eu22 1_555 1_555
O76_2 Eu22 1_555 1_555
O18_2 Eu11 1_555 1_555
Eu22 O56_2 1_555 1_555
O60 C92_2 1_555 1_555
O84 C92_2 1_555 1_555
C5_2 H4_2 1_555 1_555
C6_2 O1_2 1_555 1_555
C8_2 H5_2 1_555 1_555
O1_2 P5_2 1_555 1_555
Eu7 O7_2 1_555 1_555
Eu13 O4_2 1_555 1_555
P2_2 O8_2 1_555 1_555
P3_2 O12_2 1_555 1_555
O3_2 C31_2 1_555 1_555
P5_2 N3_2 1_555 1_555
C9_2 C15_2 1_555 1_555
O4_2 C26_2 1_555 1_555
O6_3 C35_2 1_555 1_555
O7_2 C18_2 1_555 1_555
O8_2 C29_2 1_555 1_555
O9_2 C22_2 1_555 1_555
O10_2 C50_2 1_555 1_555
O12_2 C42_2 1_555 1_555
C14_2 O21_2 1_555 1_555
O13_2 C31_2 1_555 1_555
C15_2 H8_2 1_555 1_555
C16_2 H9_2 1_555 1_555
C17_2 C35_2 1_555 1_555
C18_2 C9_2 1_555 1_555
C19_2 H10_2 1_555 1_555
C20_2 C26_2 1_555 1_555
C21_2 C36_2 1_555 1_555
O17_2 P3_2 1_555 1_555
C22_2 O22_2 1_555 1_555
O19_2 Eu7 1_555 1_555
O21_2 P2_2 1_555 1_555
C23_2 C16_2 1_555 1_555
H11_2 C23_2 1_555 1_555
N3_2 P3_2 1_555 1_555
C25_2 C5_2 1_555 1_555
C27_2 H12_2 1_555 1_555
C28_2 H13_2 1_555 1_555
C29_2 C37_2 1_555 1_555
C31_2 C32_2 1_555 1_555
N4_2 P2_2 1_555 1_555
C32_2 C38_2 1_555 1_555
C33_2 C19_2 1_555 1_555
C35_2 O25_2 1_555 1_555
C36_2 H15_2 1_555 1_555
C37_2 H16_2 1_555 1_555
C38_2 C8_2 1_555 1_555
H17_2 C38_2 1_555 1_555
C40_2 C14_2 1_555 1_555
H18_2 C40_2 1_555 1_555
O25_2 Eu18 1_555 1_555
N5_2 P2_2 1_555 1_555
C42_2 C16_2 1_555 1_555
C43_2 C22_2 1_555 1_555
C44_2 C17_2 1_555 1_555
H20_2 C44_2 1_555 1_555
C45_2 C27_2 1_555 1_555
H21_2 C45_2 1_555 1_555
C46_2 C36_2 1_555 1_555
H22_2 C46_2 1_555 1_555
C49_2 C29_2 1_555 1_555
H24_2 C49_2 1_555 1_555
C50_2 C21_2 1_555 1_555
C51_2 C20_2 1_555 1_555
H25_2 C51_2 1_555 1_555
C53_2 C33_2 1_555 1_555
H26_2 C53_2 1_555 1_555
O29_2 P5_2 1_555 1_555
C55_2 C17_2 1_555 1_555
H28_2 C55_2 1_555 1_555
C57_2 C14_2 1_555 1_555
H29_2 C57_2 1_555 1_555
C58_2 C46_2 1_555 1_555
C59_2 C9_2 1_555 1_555
H30_2 C59_2 1_555 1_555
C60_2 C6_2 1_555 1_555
H31_2 C60_2 1_555 1_555
C61_2 C5_2 1_555 1_555
H32_2 C61_2 1_555 1_555
C62_2 C21_2 1_555 1_555
H33_2 C62_2 1_555 1_555
C63_2 C6_2 1_555 1_555
H34_2 C63_2 1_555 1_555
C64_2 C58_2 1_555 1_555
H35_2 C64_2 1_555 1_555
C66_2 C67_2 1_555 1_555
C67_2 H40_2 1_555 1_555
C68_2 H41_2 1_555 1_555
P6_2 N2_2 1_555 1_555
N6_2 P4_2 1_555 1_555
O32_2 P6_2 1_555 1_555
C70_2 C67_2 1_555 1_555
O33_2 P4_2 1_555 1_555
H43_2 C73_2 1_555 1_555
O34_2 P6_2 1_555 1_555
C74_2 O33_2 1_555 1_555
C75_2 C73_2 1_555 1_555
H44_2 C75_2 1_555 1_555
H46_2 C66_2 1_555 1_555
C77_2 H47_2 1_555 1_555
C78_2 C77_2 1_555 1_555
H48_2 C78_2 1_555 1_555
C79_2 O35_2 1_555 1_555
O35_2 Eu7 1_555 1_555
O36_2 Eu7 1_555 1_555
C80_2 C78_2 1_555 1_555
C81_2 H49_2 1_555 1_555
C82_2 C80_2 1_555 1_555
H50_2 C82_2 1_555 1_555
C83_2 O32_2 1_555 1_555
C84_2 C68_2 1_555 1_555
H51_2 C84_2 1_555 1_555
O37_2 C86_2 1_555 1_555
C85_2 C66_2 1_555 1_555
O38_2 C86_2 1_555 1_555
C86_2 C85_2 1_555 1_555
Eu12 O37_2 1_555 1_555
Eu18 O37_2 1_555 1_555
Eu21 O13_2 1_555 1_555
Eu24 O6_3 1_555 1_555
O63_2 Eu7 1_555 1_555
O78_2 Eu7 1_555 1_555
O82_2 Eu13 1_555 1_555
O85_2 Eu13 1_555 1_555
C8_2 C25_2 1_555 1_555
Eu13 O36_2 1_555 1_555
Eu13 O63_2 1_555 1_555
P3_2 N4_2 1_555 1_555
P5_2 N5_2 1_555 1_555
O10_2 Eu24 1_555 1_555
C15_2 C57_2 1_555 1_555
C18_2 O19_2 1_555 1_555
C19_2 C63_2 1_555 1_555
O17_2 C25_2 1_555 1_555
C23_2 C43_2 1_555 1_555
C27_2 C42_2 1_555 1_555
C28_2 C39_2 1_555 1_555
C28_2 C51_2 1_555 1_555
C32_2 C61_2 1_555 1_555
C37_2 C55_2 1_555 1_555
C40_2 C59_2 1_555 1_555
C43_2 C45_2 1_555 1_555
C44_2 C49_2 1_555 1_555
C53_2 C60_2 1_555 1_555
O29_2 C58_2 1_555 1_555
C62_2 C64_2 1_555 1_555
C68_2 C70_2 1_555 1_555
P6_2 N6_2 1_555 1_555
C70_2 O34_2 1_555 1_555
C74_2 C75_2 1_555 1_555
C77_2 C83_2 1_555 1_555
C79_2 O36_2 1_555 1_555
C79_2 C80_2 1_555 1_555
C81_2 C82_2 1_555 1_555
C81_2 C83_2 1_555 1_555
C84_2 C85_2 1_555 1_555
O38_2 Eu18 1_555 1_555
C1_2 C3_2 1_555 1_555
C2_2 H1_2 1_555 1_555
C3_2 H2_2 1_555 1_555
C4_2 C2_2 1_555 1_555
H3_2 C4_2 1_555 1_555
P1_2 N1_2 1_555 1_555
P4_3 N1_2 1_555 1_555
O63 C52_2 1_555 1_555
C11_2 H6_2 1_555 1_555
C12_2 C11_2 1_555 1_555
H7_2 C12_2 1_555 1_555
C13_2 O11_2 1_555 1_555
O11_2 Eu10 1_555 1_555
O15_2 C13_2 1_555 1_555
O16_2 P1_2 1_555 1_555
N2_3 P1_2 1_555 1_555
C24_2 C3_2 1_555 1_555
O23_2 P4_3 1_555 1_555
H14_2 C30_2 1_555 1_555
O24_2 P1_2 1_555 1_555
C34_2 C12_2 1_555 1_555
C39_3 O23_2 1_555 1_555
C41_2 C30_2 1_555 1_555
H19_2 C41_2 1_555 1_555
C47_2 C1_2 1_555 1_555
C48_2 H23_2 1_555 1_555
O85 C52_2 1_555 1_555
C52_2 C47_2 1_555 1_555
C54_2 C34_2 1_555 1_555
H27_2 C54_2 1_555 1_555
C56_2 C11_2 1_555 1_555
H39_2 C1_2 1_555 1_555
O30_2 C71_2 1_555 1_555
C69_2 C71_2 1_555 1_555
C72_2 H42_2 1_555 1_555
C76_2 C69_2 1_555 1_555
H45_2 C76_2 1_555 1_555
C87_2 H52_2 1_555 1_555
C88_2 O39_2 1_555 1_555
C90_2 H53_2 1_555 1_555
O39_2 P9_2 1_555 1_555
Eu10 O15_2 1_555 1_555
Eu16 O15_2 1_555 1_555
P7_2 O44_2 1_555 1_555
P8_2 O47_2 1_555 1_555
O62 C105_2 1_555 1_555
P9_2 N7_2 1_555 1_555
C91_2 C94_2 1_555 1_555
O66 C108_2 1_555 1_555
O44_2 C104_2 1_555 1_555
O45_2 C100_2 1_555 1_555
O73 C119_2 1_555 1_555
O47_2 C113_2 1_555 1_555
C93_2 O53_2 1_555 1_555
O48_2 C105_2 1_555 1_555
C94_2 H54_2 1_555 1_555
C95_2 H55_2 1_555 1_555
C96_2 C108_2 1_555 1_555
C97_2 C91_2 1_555 1_555
C98_2 H56_2 1_555 1_555
C99_2 C109_2 1_555 1_555
O49_2 P8_2 1_555 1_555
C100_2 O54_2 1_555 1_555
O51_2 Eu10 1_555 1_555
O53_2 P7_2 1_555 1_555
C101_2 C95_2 1_555 1_555
H57_2 C101_2 1_555 1_555
N7_2 P8_2 1_555 1_555
C102_2 C87_2 1_555 1_555
C103_2 H58_2 1_555 1_555
C104_2 C110_2 1_555 1_555
C105_2 C106_2 1_555 1_555
N8_2 P7_2 1_555 1_555
C106_2 C111_2 1_555 1_555
C107_2 C98_2 1_555 1_555
C108_2 O82 1_555 1_555
C109_2 H59_2 1_555 1_555
C110_2 H60_2 1_555 1_555
C111_2 C90_2 1_555 1_555
H61_2 C111_2 1_555 1_555
C112_2 C93_2 1_555 1_555
H62_2 C112_2 1_555 1_555
N9_2 P7_2 1_555 1_555
C113_2 C95_2 1_555 1_555
C114_2 C100_2 1_555 1_555
C115_2 C96_2 1_555 1_555
H63_2 C115_2 1_555 1_555
C116_2 C103_2 1_555 1_555
H64_2 C116_2 1_555 1_555
C117_2 C109_2 1_555 1_555
H65_2 C117_2 1_555 1_555
C118_2 C104_2 1_555 1_555
H66_2 C118_2 1_555 1_555
C119_2 C99_2 1_555 1_555
C120_2 C107_2 1_555 1_555
H67_2 C120_2 1_555 1_555
O58_2 P9_2 1_555 1_555
C121_2 C96_2 1_555 1_555
H68_2 C121_2 1_555 1_555
C122_2 C93_2 1_555 1_555
H69_2 C122_2 1_555 1_555
C123_2 C117_2 1_555 1_555
C124_2 C91_2 1_555 1_555
H70_2 C124_2 1_555 1_555
C125_2 C88_2 1_555 1_555
H71_2 C125_2 1_555 1_555
C126_2 C87_2 1_555 1_555
H72_2 C126_2 1_555 1_555
C127_2 C99_2 1_555 1_555
H73_2 C127_2 1_555 1_555
C128_2 C88_2 1_555 1_555
H74_2 C128_2 1_555 1_555
C129_2 C123_2 1_555 1_555
H75_2 C129_2 1_555 1_555
Eu23 O48_2 1_555 1_555
O77_2 Eu10 1_555 1_555
C2_2 C47_2 1_555 1_555
C4_2 C24_2 1_555 1_555
C13_2 C34_2 1_555 1_555
O16_2 C56_2 1_555 1_555
C24_2 O24_2 1_555 1_555
C39_3 C41_2 1_555 1_555
C48_2 C54_2 1_555 1_555
C48_2 C56_2 1_555 1_555
O30_2 Eu16 1_555 1_555
C72_2 C74_3 1_555 1_555
C72_2 C76_2 1_555 1_555
C90_2 C102_2 1_555 1_555
P8_2 N8_2 1_555 1_555
P9_2 N9_2 1_555 1_555
O68 C97_2 1_555 1_555
C94_2 C122_2 1_555 1_555
C97_2 O51_2 1_555 1_555
C98_2 C128_2 1_555 1_555
O49_2 C102_2 1_555 1_555
C101_2 C114_2 1_555 1_555
C103_2 C113_2 1_555 1_555
C106_2 C126_2 1_555 1_555
C110_2 C121_2 1_555 1_555
C112_2 C124_2 1_555 1_555
C114_2 C116_2 1_555 1_555
C115_2 C118_2 1_555 1_555
C120_2 C125_2 1_555 1_555
O58_2 C123_2 1_555 1_555
C127_2 C129_2 1_555 1_555
C7_3 O20_3 1_555 1_555
Eu14 O4_3 1_555 1_555
Eu20 O14_3 1_555 1_555
O4_3 C26_3 1_555 1_555
O14_3 C26_3 1_555 1_555
O19_3 Eu8 1_555 1_555
O20_3 Eu20 1_555 1_555
O26_3 C7_3 1_555 1_555
C65_3 C7_3 1_555 1_555
H36_3 C65_3 1_555 1_555
H37_3 C65_3 1_555 1_555
H38_3 C65_3 1_555 1_555
O63_3 Eu8 1_555 1_555
O66_4 Eu20 1_555 1_555
O82_3 Eu14 1_555 1_555
O85_3 Eu14 1_555 1_555
Eu14 O63_3 1_555 1_555
Eu20 O26_3 1_555 1_555
C1_3 C3_3 1_555 1_555
C2_3 H1_3 1_555 1_555
C3_3 H2_3 1_555 1_555
C4_3 C2_3 1_555 1_555
H3_3 C4_3 1_555 1_555
C5_3 H4_3 1_555 1_555
C6_3 O1_3 1_555 1_555
C8_3 H5_3 1_555 1_555
O1_3 P5_3 1_555 1_555
P1_3 N1_3 1_555 1_555
P2_3 O8_3 1_555 1_555
P3_3 O12_3 1_555 1_555
P4_4 N1_3 1_555 1_555
O2_3 C10_3 1_555 1_555
O3_3 C31_3 1_555 1_555
P5_3 N3_3 1_555 1_555
C9_3 C15_3 1_555 1_555
O63_2 C52_3 1_555 1_555
C10_3 C33_3 1_555 1_555
C11_3 H6_3 1_555 1_555
C12_3 C11_3 1_555 1_555
H7_3 C12_3 1_555 1_555
O6_4 C35_3 1_555 1_555
C13_3 O11_3 1_555 1_555
O7_3 C18_3 1_555 1_555
O8_3 C29_3 1_555 1_555
O69 C22_3 1_555 1_555
O71 C50_3 1_555 1_555
O12_3 C42_3 1_555 1_555
C14_3 O21_3 1_555 1_555
O75 C31_3 1_555 1_555
O15_3 C13_3 1_555 1_555
O16_3 P1_3 1_555 1_555
C16_3 H9_3 1_555 1_555
C17_3 C35_3 1_555 1_555
C18_3 C9_3 1_555 1_555
N2_4 P1_3 1_555 1_555
C19_3 H10_3 1_555 1_555
C21_3 C36_3 1_555 1_555
O17_3 P3_3 1_555 1_555
O77 C50_3 1_555 1_555
C22_3 O79 1_555 1_555
O21_3 P2_3 1_555 1_555
C23_3 C16_3 1_555 1_555
H11_3 C23_3 1_555 1_555
C24_3 C3_3 1_555 1_555
N3_3 P3_3 1_555 1_555
O23_3 P4_4 1_555 1_555
C25_3 C5_3 1_555 1_555
C27_3 H12_3 1_555 1_555
C28_3 H13_3 1_555 1_555
C29_3 C37_3 1_555 1_555
C30_3 C20_3 1_555 1_555
H14_3 C30_3 1_555 1_555
O24_3 P1_3 1_555 1_555
C31_3 C32_3 1_555 1_555
N4_3 P2_3 1_555 1_555
C32_3 C38_3 1_555 1_555
C33_3 C19_3 1_555 1_555
C34_3 C12_3 1_555 1_555
C35_3 O25_3 1_555 1_555
C36_3 H15_3 1_555 1_555
C37_3 H16_3 1_555 1_555
C38_3 C8_3 1_555 1_555
H17_3 C38_3 1_555 1_555
C39_4 O23_3 1_555 1_555
C40_3 C14_3 1_555 1_555
H18_3 C40_3 1_555 1_555
O25_3 Eu17 1_555 1_555
C41_3 C30_3 1_555 1_555
H19_3 C41_3 1_555 1_555
N5_3 P2_3 1_555 1_555
C42_3 C16_3 1_555 1_555
C43_3 C22_3 1_555 1_555
C44_3 C17_3 1_555 1_555
H20_3 C44_3 1_555 1_555
C45_3 C27_3 1_555 1_555
H21_3 C45_3 1_555 1_555
C46_3 C36_3 1_555 1_555
H22_3 C46_3 1_555 1_555
C47_3 C1_3 1_555 1_555
C48_3 H23_3 1_555 1_555
O27_3 C10_3 1_555 1_555
O85_2 C52_3 1_555 1_555
C49_3 C29_3 1_555 1_555
H24_3 C49_3 1_555 1_555
C50_3 C21_3 1_555 1_555
C51_3 C20_3 1_555 1_555
H25_3 C51_3 1_555 1_555
C52_3 C47_3 1_555 1_555
C53_3 C33_3 1_555 1_555
H26_3 C53_3 1_555 1_555
O29_3 P5_3 1_555 1_555
C54_3 C34_3 1_555 1_555
H27_3 C54_3 1_555 1_555
C55_3 C17_3 1_555 1_555
H28_3 C55_3 1_555 1_555
C56_3 C11_3 1_555 1_555
C57_3 C14_3 1_555 1_555
H29_3 C57_3 1_555 1_555
C58_3 C46_3 1_555 1_555
C59_3 C9_3 1_555 1_555
H30_3 C59_3 1_555 1_555
C60_3 C6_3 1_555 1_555
H31_3 C60_3 1_555 1_555
C61_3 C5_3 1_555 1_555
H32_3 C61_3 1_555 1_555
C62_3 C21_3 1_555 1_555
H33_3 C62_3 1_555 1_555
C63_3 C6_3 1_555 1_555
H34_3 C63_3 1_555 1_555
C64_3 C58_3 1_555 1_555
H35_3 C64_3 1_555 1_555
H39_3 C1_3 1_555 1_555
C66_3 C67_3 1_555 1_555
C67_3 H40_3 1_555 1_555
C68_3 H41_3 1_555 1_555
P6_3 N2_4 1_555 1_555
N6_3 P4_4 1_555 1_555
O32_3 P6_3 1_555 1_555
C70_3 C67_3 1_555 1_555
O33_3 P4_4 1_555 1_555
C72_3 H42_3 1_555 1_555
C73_3 C69_3 1_555 1_555
H43_3 C73_3 1_555 1_555
O34_3 P6_3 1_555 1_555
C74_4 O33_3 1_555 1_555
C75_3 C73_3 1_555 1_555
H44_3 C75_3 1_555 1_555
C76_3 C69_3 1_555 1_555
H45_3 C76_3 1_555 1_555
H46_3 C66_3 1_555 1_555
C77_3 H47_3 1_555 1_555
C78_3 C77_3 1_555 1_555
H48_3 C78_3 1_555 1_555
C79_3 O35_3 1_555 1_555
C80_3 C78_3 1_555 1_555
C81_3 H49_3 1_555 1_555
C82_3 C80_3 1_555 1_555
H50_3 C82_3 1_555 1_555
C83_3 O32_3 1_555 1_555
C84_3 C68_3 1_555 1_555
H51_3 C84_3 1_555 1_555
O37_3 C86_3 1_555 1_555
C85_3 C66_3 1_555 1_555
O38_3 C86_3 1_555 1_555
C86_3 C85_3 1_555 1_555
C91_3 C94_3 1_555 1_555
O66_2 C108_3 1_555 1_555
C96_3 C108_3 1_555 1_555
C97_3 C91_3 1_555 1_555
C108_3 O82_2 1_555 1_555
C110_3 H60_3 1_555 1_555
C121_3 C96_3 1_555 1_555
H68_3 C121_3 1_555 1_555
H69_3 C122_3 1_555 1_555
Eu11 O37_3 1_555 1_555
Eu17 O37_3 1_555 1_555
Eu21 O7_3 1_555 1_555
C2_3 C47_3 1_555 1_555
C4_3 C24_3 1_555 1_555
C8_3 C25_3 1_555 1_555
P3_3 N4_3 1_555 1_555
P5_3 N5_3 1_555 1_555
C13_3 C34_3 1_555 1_555
O16_3 C56_3 1_555 1_555
C15_3 C57_3 1_555 1_555
C19_3 C63_3 1_555 1_555
O17_3 C25_3 1_555 1_555
C23_3 C43_3 1_555 1_555
C24_3 O24_3 1_555 1_555
C27_3 C42_3 1_555 1_555
C28_3 C39_4 1_555 1_555
C28_3 C51_3 1_555 1_555
C32_3 C61_3 1_555 1_555
C37_3 C55_3 1_555 1_555
C39_4 C41_3 1_555 1_555
C40_3 C59_3 1_555 1_555
C43_3 C45_3 1_555 1_555
C44_3 C49_3 1_555 1_555
C48_3 C54_3 1_555 1_555
C48_3 C56_3 1_555 1_555
O27_3 Eu21 1_555 1_555
C53_3 C60_3 1_555 1_555
O29_3 C58_3 1_555 1_555
C62_3 C64_3 1_555 1_555
C68_3 C70_3 1_555 1_555
P6_3 N6_3 1_555 1_555
C70_3 O34_3 1_555 1_555
C72_3 C74_4 1_555 1_555
C72_3 C76_3 1_555 1_555
C74_4 C75_3 1_555 1_555
C77_3 C83_3 1_555 1_555
C79_3 O36_3 1_555 1_555
C79_3 C80_3 1_555 1_555
C81_3 C82_3 1_555 1_555
C81_3 C83_3 1_555 1_555
C84_3 C85_3 1_555 1_555
O38_3 Eu17 1_555 1_555
O68_2 C97_3 1_555 1_555
C94_3 C122_3 1_555 1_555
C110_3 C121_3 1_555 1_555
Eu11 O68_3 1_555 1_555
C87_3 H52_3 1_555 1_555
C88_3 O39_3 1_555 1_555
C90_3 H53_3 1_555 1_555
O39_3 P9_3 1_555 1_555
P7_3 O44_3 1_555 1_555
P8_3 O47_3 1_555 1_555
O60_2 C92_3 1_555 1_555
O62_2 C105_3 1_555 1_555
P9_3 N7_3 1_555 1_555
C92_3 C107_3 1_555 1_555
O44_3 C104_3 1_555 1_555
O70 C100_3 1_555 1_555
O74 C119_3 1_555 1_555
O47_3 C113_3 1_555 1_555
C93_3 O53_3 1_555 1_555
O76 C105_3 1_555 1_555
C95_3 H55_3 1_555 1_555
C98_3 H56_3 1_555 1_555
C99_3 C109_3 1_555 1_555
O49_3 P8_3 1_555 1_555
O78 C119_3 1_555 1_555
C100_3 O80 1_555 1_555
O53_3 P7_3 1_555 1_555
C101_3 C95_3 1_555 1_555
H57_3 C101_3 1_555 1_555
N7_3 P8_3 1_555 1_555
C102_3 C87_3 1_555 1_555
C103_3 H58_3 1_555 1_555
C105_3 C106_3 1_555 1_555
N8_3 P7_3 1_555 1_555
C106_3 C111_3 1_555 1_555
C107_3 C98_3 1_555 1_555
C109_3 H59_3 1_555 1_555
C111_3 C90_3 1_555 1_555
H61_3 C111_3 1_555 1_555
C112_3 C93_3 1_555 1_555
H62_3 C112_3 1_555 1_555
N9_3 P7_3 1_555 1_555
C113_3 C95_3 1_555 1_555
C114_3 C100_3 1_555 1_555
H63_3 C115_3 1_555 1_555
C116_3 C103_3 1_555 1_555
H64_3 C116_3 1_555 1_555
C117_3 C109_3 1_555 1_555
H65_3 C117_3 1_555 1_555
O84_2 C92_3 1_555 1_555
C118_3 C104_3 1_555 1_555
H66_3 C118_3 1_555 1_555
C119_3 C99_3 1_555 1_555
C120_3 C107_3 1_555 1_555
H67_3 C120_3 1_555 1_555
O58_3 P9_3 1_555 1_555
C123_3 C117_3 1_555 1_555
H70_3 C124_3 1_555 1_555
C125_3 C88_3 1_555 1_555
H71_3 C125_3 1_555 1_555
C126_3 C87_3 1_555 1_555
H72_3 C126_3 1_555 1_555
C127_3 C99_3 1_555 1_555
H73_3 C127_3 1_555 1_555
C128_3 C88_3 1_555 1_555
H74_3 C128_3 1_555 1_555
C129_3 C123_3 1_555 1_555
H75_3 C129_3 1_555 1_555
C90_3 C102_3 1_555 1_555
P8_3 N8_3 1_555 1_555
P9_3 N9_3 1_555 1_555
C98_3 C128_3 1_555 1_555
O49_3 C102_3 1_555 1_555
C101_3 C114_3 1_555 1_555
C103_3 C113_3 1_555 1_555
C106_3 C126_3 1_555 1_555
C112_3 C124_3 1_555 1_555
C114_3 C116_3 1_555 1_555
C115_3 C118_3 1_555 1_555
C120_3 C125_3 1_555 1_555
O58_3 C123_3 1_555 1_555
C127_3 C129_3 1_555 1_555
O30_3 C71_3 1_555 1_555
O31_3 C71_3 1_555 1_555
C89_3 O52_3 1_555 1_555
Eu24 O31_3 1_555 1_555
O51_3 Eu12 1_555 1_555
O52_3 Eu24 1_555 1_555
O56_3 C89_3 1_555 1_555
C130_3 C89_3 1_555 1_555
H76_3 C130_3 1_555 1_555
H77_3 C130_3 1_555 1_555
H78_3 C130_3 1_555 1_555
O60_3 Eu18 1_555 1_555
O84_3 Eu24 1_555 1_555
O30_3 Eu18 1_555 1_555
Eu24 O56_3 1_555 1_555
C1_4 C3_4 1_555 1_555
C2_4 H1_4 1_555 1_555
C3_4 H2_4 1_555 1_555
C4_4 C2_4 1_555 1_555
H3_4 C4_4 1_555 1_555
C5_4 H4_4 1_555 1_555
C6_4 O1_4 1_555 1_555
C8_4 H5_4 1_555 1_555
O1_4 P5_4 1_555 1_555
Eu15 O4_4 1_555 1_555
P1_4 N1_4 1_555 1_555
P2_4 O8_4 1_555 1_555
P3_4 O12_4 1_555 1_555
P4_5 N1_4 1_555 1_555
O61 C31_4 1_555 1_555
P5_4 N3_4 1_555 1_555
C9_4 C15_4 1_555 1_555
O4_4 C26_4 1_555 1_555
O63_3 C52_4 1_555 1_555
C11_4 H6_4 1_555 1_555
C12_4 C11_4 1_555 1_555
H7_4 C12_4 1_555 1_555
O65 C35_4 1_555 1_555
C13_4 O11_4 1_555 1_555
O67 C18_4 1_555 1_555
O8_4 C29_4 1_555 1_555
O69_2 C22_4 1_555 1_555
O72 C50_4 1_555 1_555
O11_4 Eu11 1_555 1_555
O12_4 C42_4 1_555 1_555
C14_4 O21_4 1_555 1_555
O75_2 C31_4 1_555 1_555
O14_4 C26_4 1_555 1_555
O15_4 C13_4 1_555 1_555
O16_4 P1_4 1_555 1_555
C15_4 H8_4 1_555 1_555
C16_4 H9_4 1_555 1_555
C17_4 C35_4 1_555 1_555
C18_4 C9_4 1_555 1_555
N2_5 P1_4 1_555 1_555
C19_4 H10_4 1_555 1_555
C20_4 C26_4 1_555 1_555
C21_4 C36_4 1_555 1_555
O17_4 P3_4 1_555 1_555
C22_4 O79_2 1_555 1_555
O19_4 Eu9 1_555 1_555
O21_4 P2_4 1_555 1_555
C23_4 C16_4 1_555 1_555
H11_4 C23_4 1_555 1_555
C24_4 C3_4 1_555 1_555
N3_4 P3_4 1_555 1_555
O23_4 P4_5 1_555 1_555
C25_4 C5_4 1_555 1_555
C27_4 H12_4 1_555 1_555
C28_4 H13_4 1_555 1_555
C29_4 C37_4 1_555 1_555
C30_4 C20_4 1_555 1_555
H14_4 C30_4 1_555 1_555
O24_4 P1_4 1_555 1_555
C31_4 C32_4 1_555 1_555
N4_4 P2_4 1_555 1_555
C32_4 C38_4 1_555 1_555
C33_4 C19_4 1_555 1_555
C34_4 C12_4 1_555 1_555
C35_4 O81 1_555 1_555
C36_4 H15_4 1_555 1_555
C37_4 H16_4 1_555 1_555
C38_4 C8_4 1_555 1_555
H17_4 C38_4 1_555 1_555
C39_5 O23_4 1_555 1_555
C40_4 C14_4 1_555 1_555
H18_4 C40_4 1_555 1_555
C41_4 C30_4 1_555 1_555
H19_4 C41_4 1_555 1_555
N5_4 P2_4 1_555 1_555
C42_4 C16_4 1_555 1_555
C43_4 C22_4 1_555 1_555
C44_4 C17_4 1_555 1_555
H20_4 C44_4 1_555 1_555
C45_4 C27_4 1_555 1_555
H21_4 C45_4 1_555 1_555
C46_4 C36_4 1_555 1_555
H22_4 C46_4 1_555 1_555
C47_4 C1_4 1_555 1_555
C48_4 H23_4 1_555 1_555
O85_3 C52_4 1_555 1_555
C49_4 C29_4 1_555 1_555
H24_4 C49_4 1_555 1_555
C50_4 C21_4 1_555 1_555
C51_4 C20_4 1_555 1_555
H25_4 C51_4 1_555 1_555
C52_4 C47_4 1_555 1_555
C53_4 C33_4 1_555 1_555
H26_4 C53_4 1_555 1_555
O29_4 P5_4 1_555 1_555
C54_4 C34_4 1_555 1_555
H27_4 C54_4 1_555 1_555
C55_4 C17_4 1_555 1_555
H28_4 C55_4 1_555 1_555
C56_4 C11_4 1_555 1_555
C57_4 C14_4 1_555 1_555
H29_4 C57_4 1_555 1_555
C58_4 C46_4 1_555 1_555
C59_4 C9_4 1_555 1_555
H30_4 C59_4 1_555 1_555
C60_4 C6_4 1_555 1_555
H31_4 C60_4 1_555 1_555
C61_4 C5_4 1_555 1_555
H32_4 C61_4 1_555 1_555
C62_4 C21_4 1_555 1_555
H33_4 C62_4 1_555 1_555
C63_4 C6_4 1_555 1_555
H34_4 C63_4 1_555 1_555
C64_4 C58_4 1_555 1_555
H35_4 C64_4 1_555 1_555
H39_4 C1_4 1_555 1_555
C66_4 C67_4 1_555 1_555
C67_4 H40_4 1_555 1_555
C68_4 H41_4 1_555 1_555
P6_4 N2_5 1_555 1_555
O30_4 C71_4 1_555 1_555
N6_4 P4_5 1_555 1_555
O31_4 C71_4 1_555 1_555
O32_4 P6_4 1_555 1_555
C69_4 C71_4 1_555 1_555
C70_4 C67_4 1_555 1_555
O33_4 P4_5 1_555 1_555
C72_4 H42_4 1_555 1_555
C73_4 C69_4 1_555 1_555
H43_4 C73_4 1_555 1_555
O34_4 P6_4 1_555 1_555
C74_5 O33_4 1_555 1_555
C75_4 C73_4 1_555 1_555
H44_4 C75_4 1_555 1_555
C76_4 C69_4 1_555 1_555
H45_4 C76_4 1_555 1_555
H46_4 C66_4 1_555 1_555
C77_4 H47_4 1_555 1_555
C78_4 C77_4 1_555 1_555
H48_4 C78_4 1_555 1_555
C79_4 O35_4 1_555 1_555
O35_4 Eu9 1_555 1_555
O36_4 Eu9 1_555 1_555
C80_4 C78_4 1_555 1_555
C81_4 H49_4 1_555 1_555
C82_4 C80_4 1_555 1_555
H50_4 C82_4 1_555 1_555
C83_4 O32_4 1_555 1_555
C84_4 C68_4 1_555 1_555
H51_4 C84_4 1_555 1_555
O64 C86_4 1_555 1_555
C85_4 C66_4 1_555 1_555
O86 C86_4 1_555 1_555
C86_4 C85_4 1_555 1_555
C87_4 H52_4 1_555 1_555
C88_4 O39_4 1_555 1_555
C90_4 H53_4 1_555 1_555
O39_4 P9_4 1_555 1_555
Eu11 O15_4 1_555 1_555
Eu17 O15_4 1_555 1_555
P7_4 O44_4 1_555 1_555
P8_4 O47_4 1_555 1_555
O62_3 C105_4 1_555 1_555
P9_4 N7_4 1_555 1_555
C91_4 C94_4 1_555 1_555
O66_4 C108_4 1_555 1_555
O44_4 C104_4 1_555 1_555
O70_2 C100_4 1_555 1_555
O74_2 C119_4 1_555 1_555
O47_4 C113_4 1_555 1_555
C93_4 O53_4 1_555 1_555
O76_2 C105_4 1_555 1_555
C94_4 H54_4 1_555 1_555
C95_4 H55_4 1_555 1_555
C96_4 C108_4 1_555 1_555
C97_4 C91_4 1_555 1_555
C98_4 H56_4 1_555 1_555
C99_4 C109_4 1_555 1_555
O49_4 P8_4 1_555 1_555
C100_4 O80_2 1_555 1_555
O51_4 Eu11 1_555 1_555
O53_4 P7_4 1_555 1_555
C101_4 C95_4 1_555 1_555
H57_4 C101_4 1_555 1_555
N7_4 P8_4 1_555 1_555
C102_4 C87_4 1_555 1_555
C103_4 H58_4 1_555 1_555
C104_4 C110_4 1_555 1_555
C105_4 C106_4 1_555 1_555
N8_4 P7_4 1_555 1_555
C106_4 C111_4 1_555 1_555
C107_4 C98_4 1_555 1_555
C108_4 O82_3 1_555 1_555
C109_4 H59_4 1_555 1_555
C110_4 H60_4 1_555 1_555
C111_4 C90_4 1_555 1_555
H61_4 C111_4 1_555 1_555
C112_4 C93_4 1_555 1_555
H62_4 C112_4 1_555 1_555
N9_4 P7_4 1_555 1_555
C113_4 C95_4 1_555 1_555
C114_4 C100_4 1_555 1_555
C115_4 C96_4 1_555 1_555
H63_4 C115_4 1_555 1_555
C116_4 C103_4 1_555 1_555
H64_4 C116_4 1_555 1_555
C117_4 C109_4 1_555 1_555
H65_4 C117_4 1_555 1_555
C118_4 C104_4 1_555 1_555
H66_4 C118_4 1_555 1_555
C119_4 C99_4 1_555 1_555
C120_4 C107_4 1_555 1_555
H67_4 C120_4 1_555 1_555
O58_4 P9_4 1_555 1_555
C121_4 C96_4 1_555 1_555
H68_4 C121_4 1_555 1_555
C122_4 C93_4 1_555 1_555
H69_4 C122_4 1_555 1_555
C123_4 C117_4 1_555 1_555
C124_4 C91_4 1_555 1_555
H70_4 C124_4 1_555 1_555
C125_4 C88_4 1_555 1_555
H71_4 C125_4 1_555 1_555
C126_4 C87_4 1_555 1_555
H72_4 C126_4 1_555 1_555
C127_4 C99_4 1_555 1_555
H73_4 C127_4 1_555 1_555
C128_4 C88_4 1_555 1_555
H74_4 C128_4 1_555 1_555
C129_4 C123_4 1_555 1_555
H75_4 C129_4 1_555 1_555
C2_4 C47_4 1_555 1_555
C4_4 C24_4 1_555 1_555
C8_4 C25_4 1_555 1_555
Eu15 O36_4 1_555 1_555
P3_4 N4_4 1_555 1_555
P5_4 N5_4 1_555 1_555
C13_4 C34_4 1_555 1_555
O16_4 C56_4 1_555 1_555
C15_4 C57_4 1_555 1_555
C18_4 O19_4 1_555 1_555
C19_4 C63_4 1_555 1_555
O17_4 C25_4 1_555 1_555
C23_4 C43_4 1_555 1_555
C24_4 O24_4 1_555 1_555
C27_4 C42_4 1_555 1_555
C28_4 C39_5 1_555 1_555
C28_4 C51_4 1_555 1_555
C32_4 C61_4 1_555 1_555
C37_4 C55_4 1_555 1_555
C39_5 C41_4 1_555 1_555
C40_4 C59_4 1_555 1_555
C43_4 C45_4 1_555 1_555
C44_4 C49_4 1_555 1_555
C48_4 C54_4 1_555 1_555
C48_4 C56_4 1_555 1_555
C53_4 C60_4 1_555 1_555
O29_4 C58_4 1_555 1_555
C62_4 C64_4 1_555 1_555
C68_4 C70_4 1_555 1_555
P6_4 N6_4 1_555 1_555
O30_4 Eu17 1_555 1_555
C70_4 O34_4 1_555 1_555
C72_4 C74_5 1_555 1_555
C72_4 C76_4 1_555 1_555
C74_5 C75_4 1_555 1_555
C77_4 C83_4 1_555 1_555
C79_4 O36_4 1_555 1_555
C79_4 C80_4 1_555 1_555
C81_4 C82_4 1_555 1_555
C81_4 C83_4 1_555 1_555
C84_4 C85_4 1_555 1_555
C90_4 C102_4 1_555 1_555
P8_4 N8_4 1_555 1_555
P9_4 N9_4 1_555 1_555
O68_3 C97_4 1_555 1_555
C94_4 C122_4 1_555 1_555
C97_4 O51_4 1_555 1_555
C98_4 C128_4 1_555 1_555
O49_4 C102_4 1_555 1_555
C101_4 C114_4 1_555 1_555
C103_4 C113_4 1_555 1_555
C106_4 C126_4 1_555 1_555
C110_4 C121_4 1_555 1_555
C112_4 C124_4 1_555 1_555
C114_4 C116_4 1_555 1_555
C115_4 C118_4 1_555 1_555
C120_4 C125_4 1_555 1_555
O58_4 C123_4 1_555 1_555
C127_4 C129_4 1_555 1_555
C89_4 O52_4 1_555 1_555
O60_3 C92_4 1_555 1_555
O52_4 Eu23 1_555 1_555
O56_4 C89_4 1_555 1_555
O84_3 C92_4 1_555 1_555
C130_4 C89_4 1_555 1_555
H76_4 C130_4 1_555 1_555
H77_4 C130_4 1_555 1_555
H78_4 C130_4 1_555 1_555
Eu23 O56_4 1_555 1_555
C7_4 O20_4 1_555 1_555
O59 C10_4 1_555 1_555
O20_4 Eu21 1_555 1_555
O26_4 C7_4 1_555 1_555
O83 C10_4 1_555 1_555
C65_4 C7_4 1_555 1_555
H36_4 C65_4 1_555 1_555
H37_4 C65_4 1_555 1_555
H38_4 C65_4 1_555 1_555
Eu21 O26_4 1_555 1_555

#END
