
###############################################################################
#
# This file contains modified crystal structure data generated from the
# MOF subset of the Cambridge Structural Database (CSD) v543 
# hosted by the Cambridge Crystallographic Data Centre (CCDC).
#
# This work is licensed under the Creative Commons
# Attribution-NonCommercial-ShareAlike 4.0 International License.
# To view a copy of this license, visit
# http://creativecommons.org/licenses/by-nc-sa/4.0/
# or send a letter to
# Creative Commons, PO Box 1866, Mountain View, CA 94042, USA.
#
# CIF created using the CSD Python API on 29 September 2022
# The structure has been converted into the P1 space group
# The structure has a 3D framework
# The original CSD entry DALKAG is in the tetragonal crystal system
# The original CSD entry DALKAG is in a Sohncke space group
# The framework has been calculated to contain at least 10.0% void space
# The void calculation uses a probe of radius 1.32A, grid spacing 0.4
# The framework is charged, counterions have been retained in the structure
#
###############################################################################

data_DALKAG
_chemical_formula_moiety         '(C520 H312 N37 O228 P37 Sm24 8-)n'
_symmetry_cell_setting           triclinic
_symmetry_space_group_name_H-M   'P 1'
_symmetry_Int_Tables_number      1
_space_group_name_Hall           'P 1'
loop_
_symmetry_equiv_pos_site_id
_symmetry_equiv_pos_as_xyz
1 x,y,z
_cell_length_a                   23.0966(8)
_cell_length_b                   23.0966(8)
_cell_length_c                   47.2483(16)
_cell_angle_alpha                90
_cell_angle_beta                 90
_cell_angle_gamma                90
_cell_volume                     25204.7
loop_
_atom_site_label
_atom_site_type_symbol
_atom_site_fract_x
_atom_site_fract_y
_atom_site_fract_z
Sm22 Sm 0.43544(2) 0.01409(2) 0.02526(2)
O30 O 0.4102(4) 0.0224(4) 0.71127(12)
O31 O 0.4353(3) 0.0111(4) 0.75557(13)
C71 C 0.4025(5) 0.0021(5) 0.73544(19)
C89 C 0.5581(8) 0.1821(6) 0.7908(3)
Sm4 Sm 0.46933(2) 0.01977(2) 0.59743(2)
Sm5 Sm 0.44821(2) 0.07782(2) 0.67378(2)
Sm6 Sm 0.51409(2) 0.06456(2) 0.77526(2)
H54 H 0.295272 0.012033 0.538362
O51 O 0.3876(3) 0.0236(4) 0.56401(13)
O52 O 0.5199(5) 0.1600(4) 0.8051(2)
O56 O 0.5815(5) 0.1541(5) 0.7699(2)
C130 C 0.5777(8) 0.2323(8) 0.7943(4)
H76 H 0.549332 0.255620 0.803820
H77 H 0.586497 0.249138 0.776238
H78 H 0.612303 0.230539 0.805548
Sm11 Sm 0.51977(2) 0.03067(2) 0.34743(2)
Sm17 Sm 0.57782(2) 0.05179(2) 0.42378(2)
O60 O 0.5333(3) 0.0386(3) 0.69600(13)
O64 O 0.4080(3) 0.0883(3) 0.62239(11)
O65 O 0.4654(4) 0.1395(3) 0.74989(13)
O69 O 0.5298(3) 0.0617(3) 0.63405(10)
O71 O 0.5553(3) 0.0554(3) 0.56387(10)
O72 O 0.4446(3) 0.0553(3) 0.81387(10)
O76 O 0.5928(4) 0.0552(4) 0.80741(19)
O77 O 0.4941(3) 0.1210(3) 0.58008(12)
O79 O 0.5361(4) 0.1384(4) 0.65943(17)
O81 O 0.4429(4) 0.1559(3) 0.70665(12)
O84 O 0.5723(3) 0.0386(3) 0.73726(12)
O86 O 0.4011(5) 0.1657(5) 0.6465(2)
C5 C 0.1451(6) 0.7314(6) 0.1583(2)
H4 H 0.172581 0.752114 0.168463
C6 C 0.1950(6) 0.6004(6) 0.0612(3)
C8 C 0.0884(6) 0.7193(6) 0.1176(3)
H5 H 0.077931 0.732379 0.099679
O1 O 0.2354(6) 0.6434(6) 0.0700(2)
P2 P 0.13869(13) 0.77289(14) 0.04224(5)
P3 P 0.18645(16) 0.80146(16) 0.09266(6)
O2 O 0.0333(3) 0.4614(3) 0.05400(13)
O3 O 0.0328(4) 0.5621(4) 0.15071(18)
P5 P 0.23427(17) 0.71147(16) 0.06160(9)
C10 C 0.0714(4) 0.4776(4) 0.03826(15)
O8 O 0.1352(3) 0.8124(3) 0.01528(12)
O9 O 0.4702(3) 0.9383(3) 0.13405(10)
O10 O 0.4447(3) 0.9446(3) 0.06387(10)
O12 O 0.2180(3) 0.8628(3) 0.09609(13)
C14 C 0.0584(4) 0.7071(5) 0.01921(17)
O13 O 0.0552(4) 0.5928(4) 0.19259(19)
C16 C 0.3015(5) 0.9183(5) 0.10321(16)
H9 H 0.285768 0.945207 0.090726
C19 C 0.1153(5) 0.5422(5) 0.0729(2)
H10 H 0.087238 0.530691 0.085827
C21 C 0.4170(5) 0.8438(5) 0.06114(18)
O17 O 0.1559(4) 0.7998(4) 0.12159(16)
O18 O 0.5059(3) 0.8790(3) 0.08008(12)
C22 C 0.4405(5) 0.8961(4) 0.14279(17)
O21 O 0.0750(3) 0.7466(3) 0.04084(12)
C23 C 0.3563(4) 0.9284(4) 0.11509(17)
H11 H 0.375528 0.962879 0.111101
O22 O 0.4639(4) 0.8616(4) 0.15943(17)
N3 N 0.2281(5) 0.7505(5) 0.0892(2)
C25 C 0.1297(7) 0.7475(5) 0.1324(2)
C27 C 0.2949(6) 0.8297(7) 0.1281(3)
H12 H 0.273981 0.796795 0.133082
C29 C 0.1837(5) 0.8466(5) 0.0071(2)
C31 C 0.0548(6) 0.5978(6) 0.1667(3)
N4 N 0.1387(4) 0.8110(4) 0.06953(16)
C32 C 0.0793(6) 0.6516(5) 0.1548(3)
C33 C 0.1164(4) 0.5175(5) 0.04778(17)
C36 C 0.3687(6) 0.8527(6) 0.0469(2)
H15 H 0.361862 0.889164 0.039256
C38 C 0.0614(6) 0.6709(5) 0.12889(19)
H17 H 0.031935 0.652031 0.119112
C40 C 0.0638(5) 0.6501(5) 0.0233(2)
H18 H 0.078763 0.635550 0.040107
N5 N 0.1890(4) 0.7244(4) 0.0384(2)
C42 C 0.2712(5) 0.8700(5) 0.1097(2)
C43 C 0.3819(5) 0.8887(4) 0.13233(17)
C44 C 0.2487(5) 0.9238(5) 0.0144(2)
H20 H 0.260389 0.955396 0.025220
C45 C 0.3509(6) 0.8388(6) 0.1394(2)
H21 H 0.367174 0.811471 0.151447
C46 C 0.3269(6) 0.8085(6) 0.0428(3)
H22 H 0.292180 0.816819 0.033716
O27 O 0.0723(3) 0.4614(3) 0.01274(12)
C49 C 0.2022(5) 0.8916(5) 0.0226(2)
H24 H 0.182868 0.901014 0.039215
C50 C 0.4588(5) 0.8920(4) 0.06791(18)
C53 C 0.1607(5) 0.5338(6) 0.0293(3)
H26 H 0.163330 0.516186 0.011600
O29 O 0.2976(4) 0.7120(4) 0.0494(2)
C58 C 0.3370(6) 0.7577(5) 0.0515(3)
C59 C 0.0463(5) 0.6128(5) 0.0014(2)
H30 H 0.053117 0.573300 0.003094
C60 C 0.2008(7) 0.5757(7) 0.0367(3)
H31 H 0.230805 0.585758 0.024528
C61 C 0.1189(7) 0.6831(6) 0.1695(2)
H32 H 0.128709 0.671678 0.187754
C62 C 0.4273(7) 0.7885(7) 0.0707(3)
H33 H 0.460590 0.780798 0.081113
C63 C 0.1554(6) 0.5861(5) 0.0809(3)
H34 H 0.154368 0.603671 0.098614
C64 C 0.3890(8) 0.7444(8) 0.0651(3)
H35 H 0.397629 0.706447 0.070168
Sm12 Sm 0.53067(2) 0.98023(2) 0.09743(2)
Sm18 Sm 0.55179(2) 0.92218(2) 0.17378(2)
Sm20 Sm 0.06456(2) 0.51409(2) 0.22474(2)
C1 C 0.1916(15) 0.7022(14) 0.6329(7)
C2 C 0.1615(8) 0.6410(7) 0.6691(3)
H1 H 0.132733 0.616755 0.676121
C3 C 0.2491(9) 0.7126(9) 0.6526(4)
H2 H 0.282061 0.730908 0.645646
C4 C 0.2075(6) 0.6575(7) 0.6877(3)
H3 H 0.209082 0.642137 0.705882
P1 P 0.28476(13) 0.74754(13) 0.72381(5)
P4 P 0.19568(15) 0.80432(15) 0.750000
C9 C 0.0206(4) 0.6323(4) 0.97879(16)
O5 O 0.0920(3) 0.5883(3) 0.62761(11)
C11 C 0.4110(4) 0.8482(4) 0.7032(2)
H6 H 0.433971 0.839545 0.718861
C12 C 0.4296(5) 0.8885(5) 0.68438(18)
H7 H 0.463750 0.908863 0.687446
O6 O 0.3605(3) 0.9654(4) 0.99989(13)
C13 C 0.4156(5) 0.9421(5) 0.64025(19)
N1 N 0.2308(4) 0.7864(4) 0.72272(17)
O7 O 0.0195(3) 0.5398(3) 0.95564(13)
O11 O 0.3989(4) 0.9393(3) 0.61524(13)
O15 O 0.4486(3) 0.9835(3) 0.64821(10)
O16 O 0.3445(3) 0.7817(3) 0.72091(12)
C15 C 0.0100(5) 0.6909(5) 0.9767(2)
C17 C 0.2788(4) 0.9092(5) 0.98986(17)
C18 C 0.0036(4) 0.5916(5) 0.95600(17)
N2 N 0.2938(4) 0.7062(4) 0.750000
C20 C 0.0325(4) 0.6522(4) 0.75918(17)
C24 C 0.2460(6) 0.6930(6) 0.6797(2)
O23 O 0.1269(3) 0.8022(3) 0.74544(17)
C28 C 0.0697(5) 0.7424(5) 0.7751(2)
H13 H 0.070916 0.771015 0.788900
C30 C 0.0585(5) 0.6621(5) 0.73473(18)
H14 H 0.055444 0.634918 0.720276
O24 O 0.2902(4) 0.7100(4) 0.69591(13)
C34 C 0.3961(5) 0.8989(4) 0.66027(16)
C35 C 0.3314(5) 0.9434(5) 0.98157(18)
C37 C 0.2104(5) 0.8338(6) 0.98210(17)
H16 H 0.197795 0.803012 0.971012
C39 C 0.0958(5) 0.7508(5) 0.7497(2)
O25 O 0.3441(3) 0.9429(4) 0.95665(12)
C41 C 0.0903(5) 0.7122(6) 0.7302(2)
H19 H 0.107926 0.718123 0.712761
C47 C 0.1579(6) 0.6571(6) 0.6440(2)
C48 C 0.3266(5) 0.8301(6) 0.6766(2)
H23 H 0.291796 0.810658 0.673750
O28 O 0.0989(5) 0.6657(5) 0.6035(2)
C51 C 0.0415(5) 0.6915(5) 0.7800(2)
H25 H 0.028197 0.683526 0.798196
C52 C 0.1130(6) 0.6331(6) 0.6248(2)
C54 C 0.3462(5) 0.8699(6) 0.6574(2)
H27 H 0.323622 0.877248 0.641528
C55 C 0.2555(5) 0.8668(5) 0.97380(18)
H28 H 0.271502 0.860012 0.956037
C56 C 0.3596(5) 0.8199(5) 0.69980(19)
C57 C 0.0310(6) 0.7290(5) 0.9961(2)
H29 H 0.026829 0.768774 0.993617
H39 H 0.220(6) 0.677(6) 0.626(3)
C66 C 0.2978(14) 0.8084(15) 0.8671(7)
C67 C 0.2874(9) 0.7509(9) 0.8474(4)
H40 H 0.269092 0.717939 0.854354
C68 C 0.3425(7) 0.7925(6) 0.8123(3)
H41 H 0.357863 0.790918 0.794118
P6 P 0.25246(13) 0.71524(13) 0.77619(5)
N6 N 0.2136(4) 0.7692(4) 0.77728(17)
O32 O 0.2183(3) 0.6555(3) 0.77909(12)
C69 C 0.3478(4) 0.9675(4) 0.74082(17)
C70 C 0.3070(6) 0.7540(6) 0.8203(2)
O33 O 0.1978(3) 0.8731(3) 0.75456(17)
C72 C 0.2576(5) 0.9303(5) 0.7249(2)
H42 H 0.228985 0.929084 0.711100
C73 C 0.3379(5) 0.9415(5) 0.76527(18)
H43 H 0.365082 0.944556 0.779724
O34 O 0.2900(4) 0.7098(4) 0.80409(13)
C74 C 0.2492(5) 0.9042(5) 0.7503(2)
C75 C 0.2878(6) 0.9097(5) 0.7698(2)
H44 H 0.281877 0.892074 0.787239
C76 C 0.3085(5) 0.9585(5) 0.7200(2)
H45 H 0.316474 0.971803 0.701804
H46 H 0.323(6) 0.780(6) 0.874(3)
C77 C 0.1518(4) 0.5890(4) 0.7968(2)
H47 H 0.160455 0.566029 0.781139
C78 C 0.1115(5) 0.5704(5) 0.81562(18)
H48 H 0.091137 0.536250 0.812554
C79 C 0.0579(5) 0.5844(5) 0.85975(19)
O35 O 0.0607(3) 0.6011(4) 0.88476(13)
O36 O 0.0165(3) 0.5514(3) 0.85179(10)
C80 C 0.1011(4) 0.6039(5) 0.83973(16)
C81 C 0.1699(6) 0.6734(5) 0.8234(2)
H49 H 0.189342 0.708204 0.826250
C82 C 0.1301(6) 0.6538(5) 0.8426(2)
H50 H 0.122752 0.676378 0.858472
C83 C 0.1801(5) 0.6404(5) 0.80020(19)
C84 C 0.3590(7) 0.8385(8) 0.8309(3)
H51 H 0.383245 0.867267 0.823879
O37 O 0.4117(3) 0.9080(3) 0.87239(11)
C85 C 0.3429(6) 0.8421(6) 0.8560(2)
O38 O 0.3343(5) 0.9011(5) 0.8965(2)
C86 C 0.3669(6) 0.8870(6) 0.8752(2)
C87 C 0.2686(6) 0.8549(6) 0.3417(2)
H52 H 0.247886 0.827419 0.331537
C88 C 0.3996(6) 0.8050(6) 0.4388(3)
C90 C 0.2807(6) 0.9116(6) 0.3824(3)
H53 H 0.267621 0.922069 0.400321
O39 O 0.3566(6) 0.7646(6) 0.4300(2)
P7 P 0.22711(14) 0.86131(13) 0.45776(5)
P8 P 0.19854(16) 0.81355(16) 0.40734(6)
O40 O 0.5386(3) 0.9667(3) 0.44600(13)
O41 O 0.4379(4) 0.9672(4) 0.34929(18)
P9 P 0.28853(16) 0.76573(17) 0.43840(9)
C91 C 0.3677(4) 0.9794(4) 0.52121(16)
C92 C 0.5224(4) 0.9286(4) 0.46174(15)
O42 O 0.0346(4) 0.6395(3) 0.50011(13)
O43 O 0.4602(3) 0.9805(3) 0.54436(13)
O44 O 0.1876(3) 0.8648(3) 0.48472(12)
O45 O 0.0617(3) 0.5298(3) 0.36595(10)
O46 O 0.0554(3) 0.5553(3) 0.43613(10)
O47 O 0.1372(3) 0.7820(3) 0.40391(13)
C93 C 0.2929(5) 0.9416(4) 0.48079(17)
O48 O 0.4072(4) 0.9448(4) 0.30741(19)
C94 C 0.3091(5) 0.9900(5) 0.5233(2)
C95 C 0.0817(5) 0.6985(5) 0.39679(16)
H55 H 0.054793 0.714232 0.409274
C96 C 0.0908(5) 0.7212(4) 0.51014(17)
C97 C 0.4084(5) 0.9964(4) 0.54400(17)
C98 C 0.4578(5) 0.8847(5) 0.4271(2)
H56 H 0.469309 0.912762 0.414173
C99 C 0.1562(5) 0.5830(5) 0.43886(18)
O49 O 0.2002(4) 0.8441(4) 0.37841(16)
O50 O 0.1210(3) 0.4941(3) 0.41992(12)
C100 C 0.1039(4) 0.5595(5) 0.35721(17)
O53 O 0.2534(3) 0.9250(3) 0.45916(12)
C101 C 0.0716(4) 0.6437(4) 0.38491(17)
H57 H 0.037121 0.624472 0.388899
O54 O 0.1384(4) 0.5361(4) 0.34057(17)
N7 N 0.2495(5) 0.7719(5) 0.4108(2)
C102 C 0.2525(5) 0.8703(7) 0.3676(2)
C103 C 0.1703(7) 0.7051(6) 0.3719(3)
H58 H 0.203205 0.726019 0.366918
C104 C 0.1534(5) 0.8163(5) 0.4929(2)
C105 C 0.4022(6) 0.9452(6) 0.3333(3)
N8 N 0.1890(4) 0.8613(4) 0.43047(16)
C106 C 0.3484(5) 0.9207(6) 0.3452(3)
C107 C 0.4825(5) 0.8836(4) 0.45222(17)
C108 C 0.0566(5) 0.6686(5) 0.51843(18)
C109 C 0.1473(6) 0.6313(6) 0.4531(2)
H59 H 0.110836 0.638138 0.460744
C110 C 0.1662(6) 0.7896(5) 0.51790(17)
H60 H 0.196988 0.802205 0.528988
C111 C 0.3291(5) 0.9386(6) 0.37111(19)
H61 H 0.347969 0.968065 0.380888
C112 C 0.3499(5) 0.9362(5) 0.4767(2)
H62 H 0.364450 0.921237 0.459893
O55 O 0.0571(4) 0.6559(3) 0.54335(12)
N9 N 0.2756(4) 0.8110(4) 0.4616(2)
C113 C 0.1300(5) 0.7288(5) 0.3903(2)
C114 C 0.1113(4) 0.6181(5) 0.36767(17)
C115 C 0.0762(5) 0.7513(5) 0.4856(2)
H63 H 0.044604 0.739611 0.474780
C116 C 0.1612(6) 0.6491(6) 0.3606(2)
H64 H 0.188529 0.632826 0.348553
C117 C 0.1915(6) 0.6731(6) 0.4572(3)
H65 H 0.183181 0.707820 0.466284
O57 O 0.5386(3) 0.9277(3) 0.48726(12)
C118 C 0.1084(5) 0.7978(5) 0.4774(2)
H66 H 0.098986 0.817132 0.460785
C119 C 0.1080(4) 0.5412(5) 0.43209(18)
C120 C 0.4662(6) 0.8393(5) 0.4707(3)
H67 H 0.483814 0.836670 0.488400
O58 O 0.2880(4) 0.7024(4) 0.4506(2)
C121 C 0.1332(5) 0.7445(5) 0.52620(18)
H68 H 0.139988 0.728498 0.543963
C122 C 0.2710(5) 0.9690(6) 0.5039(2)
H69 H 0.231226 0.973171 0.506383
C123 C 0.2423(5) 0.6630(6) 0.4485(3)
C124 C 0.3872(5) 0.9537(5) 0.4986(2)
H70 H 0.426700 0.946883 0.496906
C125 C 0.4243(7) 0.7992(7) 0.4633(3)
H71 H 0.414242 0.769195 0.475472
C126 C 0.3169(6) 0.8811(7) 0.3305(2)
H72 H 0.328322 0.871291 0.312246
C127 C 0.2115(7) 0.5727(7) 0.4293(3)
H73 H 0.219202 0.539410 0.418887
C128 C 0.4139(5) 0.8446(6) 0.4191(3)
H74 H 0.396329 0.845632 0.401386
C129 C 0.2556(8) 0.6110(8) 0.4349(3)
H75 H 0.293553 0.602371 0.429832
Sm8 Sm 0.01977(2) 0.46933(2) 0.40257(2)
Sm9 Sm 0.03067(2) 0.51977(2) 0.65257(2)
Sm10 Sm 0.48023(2) 0.96933(2) 0.84743(2)
Sm14 Sm 0.07782(2) 0.44821(2) 0.32622(2)
Sm15 Sm 0.05179(2) 0.57782(2) 0.57622(2)
Sm16 Sm 0.42218(2) 0.94821(2) 0.92378(2)
Sm19 Sm 0.01409(2) 0.43544(2) 0.97474(2)
Sm23 Sm 0.56456(2) 0.98591(2) 0.52526(2)
Sm24 Sm 0.48591(2) 0.93544(2) 0.27526(2)
O61 O 0.0621(4) 0.4672(4) 0.90071(18)
O62 O 0.5328(4) 0.9379(4) 0.59929(18)
O67 O 0.0398(3) 0.4805(3) 0.70564(13)
O68 O 0.5195(3) 0.9602(3) 0.79436(13)
Sm7 Sm 0.96933(2) 0.48023(2) 0.15257(2)
Sm13 Sm 0.94821(2) 0.42218(2) 0.07622(2)
C7 C 0.8179(6) 0.4419(8) 0.7092(3)
Sm1 Sm 0.98023(2) 0.53067(2) 0.90257(2)
Sm2 Sm 0.92218(2) 0.55179(2) 0.82622(2)
Sm3 Sm 0.93544(2) 0.48591(2) 0.72474(2)
O4 O 0.9776(4) 0.5898(4) 0.78873(12)
O14 O 0.9889(4) 0.5647(3) 0.74443(13)
H8 H 0.987967 0.704728 0.961638
O19 O 0.9764(4) 0.6124(3) 0.93599(13)
O20 O 0.8400(4) 0.4801(5) 0.6949(2)
C26 C 0.9979(5) 0.5975(5) 0.76456(19)
O26 O 0.8459(5) 0.4185(5) 0.7301(2)
C65 C 0.7677(8) 0.4223(8) 0.7057(4)
H36 H 0.744380 0.450668 0.696180
H37 H 0.750862 0.413503 0.723762
H38 H 0.769461 0.387697 0.694452
Sm21 Sm 0.98591(2) 0.56456(2) 0.47474(2)
O59 O 0.9614(3) 0.4667(3) 0.80400(13)
O63 O 0.9117(3) 0.5920(3) 0.87761(11)
O66 O 0.8605(3) 0.5346(4) 0.75011(13)
O70 O 0.9383(3) 0.4702(3) 0.86595(10)
O73 O 0.9447(3) 0.5554(3) 0.68613(10)
O74 O 0.9446(3) 0.4447(3) 0.93613(10)
O75 O 0.9448(4) 0.4072(4) 0.69259(19)
O78 O 0.8790(3) 0.5059(3) 0.91992(12)
O80 O 0.8616(4) 0.4639(4) 0.84057(17)
O82 O 0.8441(3) 0.5571(4) 0.79335(12)
O83 O 0.9614(3) 0.4277(3) 0.76274(12)
O85 O 0.8343(5) 0.5989(5) 0.8535(2)
O2_2 O 0.0386(3) 0.5333(3) 0.30400(13)
C10_2 C 0.0224(4) 0.5714(4) 0.28826(15)
O27_2 O 0.0386(3) 0.5723(3) 0.26274(12)
O70_2 O 0.0298(3) 0.4383(3) 0.11595(10)
O74_2 O 0.0553(3) 0.4446(3) 0.18613(10)
O80_2 O 0.0361(4) 0.3616(4) 0.09057(17)
C7_2 C 0.0581(8) 0.3179(6) 0.9592(3)
O20_2 O 0.0199(5) 0.3400(4) 0.9449(2)
O26_2 O 0.0815(5) 0.3459(5) 0.9801(2)
C65_2 C 0.0777(8) 0.2677(8) 0.9557(4)
H36_2 H 0.049332 0.244380 0.946180
H37_2 H 0.086497 0.250862 0.973762
H38_2 H 0.112303 0.269461 0.944452
O50_2 O 0.0059(3) 0.6210(3) 0.66992(12)
O75_2 O 0.0928(4) 0.4448(4) 0.94259(19)
O18_2 O 0.6210(3) 0.0059(3) 0.33008(12)
C89_2 C 0.3179(6) 0.0581(8) 0.0408(3)
O52_2 O 0.3400(4) 0.0199(5) 0.0551(2)
O56_2 O 0.3459(5) 0.0815(5) 0.0199(2)
C130_2 C 0.2677(8) 0.0777(8) 0.0443(4)
H76_2 H 0.244380 0.049332 0.053820
H77_2 H 0.250862 0.086497 0.026238
H78_2 H 0.269461 0.112303 0.055548
O68_2 O 0.5398(3) 0.0195(3) 0.04436(13)
O76_2 O 0.4448(4) 0.0928(4) 0.05741(19)
C92_2 C 0.5714(4) 0.0224(4) 0.71174(15)
O60_2 O 0.4614(3) 0.0333(3) 0.94600(13)
O62_2 O 0.5621(4) 0.0328(4) 0.84929(18)
O69_2 O 0.4383(3) 0.0298(3) 0.88405(10)
O79_2 O 0.3616(4) 0.0361(4) 0.90943(17)
O84_2 O 0.4614(3) 0.0723(3) 0.98726(12)
C5_2 C 0.7686(6) 0.6451(6) 0.4083(2)
H4_2 H 0.747886 0.672581 0.418463
C6_2 C 0.8996(6) 0.6950(6) 0.3112(3)
C8_2 C 0.7807(6) 0.5884(6) 0.3676(3)
H5_2 H 0.767621 0.577931 0.349679
O1_2 O 0.8566(6) 0.7354(6) 0.3200(2)
P2_2 P 0.72711(14) 0.63869(13) 0.29224(5)
P3_2 P 0.69854(16) 0.68645(16) 0.34266(6)
P4_2 P 0.69568(15) 0.69568(15) 0.000000
O3_2 O 0.9379(4) 0.5328(4) 0.40071(18)
P5_2 P 0.78853(16) 0.73427(17) 0.31160(9)
C9_2 C 0.8677(4) 0.5206(4) 0.22879(16)
O4_2 O 0.9102(4) 0.4776(4) 0.03873(12)
O6_2 O 0.5346(4) 0.8605(3) 0.24989(13)
O7_2 O 0.9602(3) 0.5195(3) 0.20564(13)
O8_2 O 0.6876(3) 0.6352(3) 0.26528(12)
O9_2 O 0.5617(3) 0.9702(3) 0.38405(10)
O10_2 O 0.5554(3) 0.9447(3) 0.31387(10)
O12_2 O 0.6372(3) 0.7180(3) 0.34609(13)
C14_2 C 0.7929(5) 0.5584(4) 0.26921(17)
O13_2 O 0.9072(4) 0.5552(4) 0.44259(19)
C15_2 C 0.8091(5) 0.5100(5) 0.2267(2)
H8_2 H 0.795272 0.487967 0.211638
C16_2 C 0.5817(5) 0.8015(5) 0.35321(16)
H9_2 H 0.554793 0.785768 0.340726
C17_2 C 0.5908(5) 0.7788(4) 0.23986(17)
C18_2 C 0.9084(5) 0.5036(4) 0.20600(17)
N2_2 N 0.7938(4) 0.7938(4) 0.000000
C19_2 C 0.9578(5) 0.6153(5) 0.3229(2)
H10_2 H 0.969309 0.587238 0.335827
C20_2 C 0.8478(4) 0.5325(4) 0.00918(17)
C21_2 C 0.6562(5) 0.9170(5) 0.31114(18)
O17_2 O 0.7002(4) 0.6559(4) 0.37159(16)
C22_2 C 0.6039(4) 0.9405(5) 0.39279(17)
O19_2 O 0.8876(3) 0.4764(4) 0.18599(13)
O21_2 O 0.7534(3) 0.5750(3) 0.29084(12)
C23_2 C 0.5716(4) 0.8563(4) 0.36509(17)
H11_2 H 0.537121 0.875528 0.361101
O22_2 O 0.6384(4) 0.9639(4) 0.40943(17)
N3_2 N 0.7495(5) 0.7281(5) 0.3392(2)
C25_2 C 0.7525(5) 0.6297(7) 0.3824(2)
C26_2 C 0.9025(5) 0.4979(5) 0.01456(19)
C27_2 C 0.6703(7) 0.7949(6) 0.3781(3)
H12_2 H 0.703205 0.773981 0.383082
C28_2 C 0.7576(5) 0.5697(5) 0.0251(2)
H13_2 H 0.728985 0.570916 0.038900
C29_2 C 0.6534(5) 0.6837(5) 0.2571(2)
C31_2 C 0.9022(6) 0.5548(6) 0.4167(3)
N4_2 N 0.6890(4) 0.6387(4) 0.31953(16)
C32_2 C 0.8484(5) 0.5793(6) 0.4048(3)
C33_2 C 0.9825(5) 0.6164(4) 0.29778(17)
C35_2 C 0.5566(5) 0.8314(5) 0.23157(18)
C36_2 C 0.6473(6) 0.8687(6) 0.2969(2)
H15_2 H 0.610836 0.861862 0.289256
C37_2 C 0.6662(6) 0.7104(5) 0.23210(17)
H16_2 H 0.696988 0.697795 0.221012
C38_2 C 0.8291(5) 0.5614(6) 0.37889(19)
H17_2 H 0.847969 0.531935 0.369112
C40_2 C 0.8499(5) 0.5638(5) 0.2733(2)
H18_2 H 0.864450 0.578763 0.290107
O25_2 O 0.5571(4) 0.8441(3) 0.20665(12)
N5_2 N 0.7756(4) 0.6890(4) 0.2884(2)
C42_2 C 0.6300(5) 0.7712(5) 0.3597(2)
C43_2 C 0.6113(4) 0.8819(5) 0.38233(17)
C44_2 C 0.5762(5) 0.7487(5) 0.2644(2)
H20_2 H 0.544604 0.760389 0.275220
C45_2 C 0.6612(6) 0.8509(6) 0.3894(2)
H21_2 H 0.688529 0.867174 0.401447
C46_2 C 0.6915(6) 0.8269(6) 0.2928(3)
H22_2 H 0.683181 0.792180 0.283716
C49_2 C 0.6084(5) 0.7022(5) 0.2726(2)
H24_2 H 0.598986 0.682868 0.289215
C50_2 C 0.6080(4) 0.9588(5) 0.31791(18)
C51_2 C 0.8085(5) 0.5415(5) 0.0300(2)
H25_2 H 0.816474 0.528197 0.048196
C53_2 C 0.9662(6) 0.6607(5) 0.2793(3)
H26_2 H 0.983814 0.663330 0.261600
O29_2 O 0.7880(4) 0.7976(4) 0.2994(2)
C55_2 C 0.6332(5) 0.7555(5) 0.22380(18)
H28_2 H 0.639988 0.771502 0.206037
C57_2 C 0.7710(5) 0.5310(6) 0.2461(2)
H29_2 H 0.731226 0.526829 0.243617
C58_2 C 0.7423(5) 0.8370(6) 0.3015(3)
C59_2 C 0.8872(5) 0.5463(5) 0.2514(2)
H30_2 H 0.926700 0.553117 0.253094
C60_2 C 0.9243(7) 0.7008(7) 0.2867(3)
H31_2 H 0.914242 0.730805 0.274528
C61_2 C 0.8169(6) 0.6189(7) 0.4195(2)
H32_2 H 0.828322 0.628709 0.437754
C62_2 C 0.7115(7) 0.9273(7) 0.3207(3)
H33_2 H 0.719202 0.960590 0.331113
C63_2 C 0.9139(5) 0.6554(6) 0.3309(3)
H34_2 H 0.896329 0.654368 0.348614
C64_2 C 0.7556(8) 0.8890(8) 0.3151(3)
H35_2 H 0.793553 0.897629 0.320168
C66_2 C 0.6916(15) 0.7978(14) 0.1171(7)
C67_2 C 0.7491(9) 0.7874(9) 0.0974(4)
H40_2 H 0.782061 0.769092 0.104354
C68_2 C 0.7075(6) 0.8425(7) 0.0623(3)
H41_2 H 0.709082 0.857863 0.044118
P6_2 P 0.78476(13) 0.75246(13) 0.02619(5)
N6_2 N 0.7308(4) 0.7136(4) 0.02728(17)
O31_2 O 0.4889(4) 0.9353(3) 0.00557(13)
O32_2 O 0.8445(3) 0.7183(3) 0.02909(12)
C70_2 C 0.7460(6) 0.8070(6) 0.0703(2)
O33_2 O 0.6269(3) 0.6978(3) 0.00456(17)
C73_2 C 0.5585(5) 0.8379(5) 0.01527(18)
H43_2 H 0.555444 0.865082 0.029724
O34_2 O 0.7902(4) 0.7900(4) 0.05409(13)
C74_2 C 0.5958(5) 0.7492(5) 0.0003(2)
C75_2 C 0.5903(5) 0.7878(6) 0.0198(2)
H44_2 H 0.607926 0.781877 0.037239
H46_2 H 0.720(6) 0.823(6) 0.124(3)
C77_2 C 0.9110(4) 0.6518(4) 0.0468(2)
H47_2 H 0.933971 0.660455 0.031139
C78_2 C 0.9296(5) 0.6115(5) 0.06562(18)
H48_2 H 0.963750 0.591137 0.062554
C79_2 C 0.9156(5) 0.5579(5) 0.10975(19)
O35_2 O 0.8989(4) 0.5607(3) 0.13476(13)
O36_2 O 0.9486(3) 0.5165(3) 0.10179(10)
C80_2 C 0.8961(5) 0.6011(4) 0.08973(16)
C81_2 C 0.8266(5) 0.6699(6) 0.0734(2)
H49_2 H 0.791796 0.689342 0.076250
C82_2 C 0.8462(5) 0.6301(6) 0.0926(2)
H50_2 H 0.823622 0.622752 0.108472
C83_2 C 0.8596(5) 0.6801(5) 0.05020(19)
C84_2 C 0.6615(8) 0.8590(7) 0.0809(3)
H51_2 H 0.632733 0.883245 0.073879
O37_2 O 0.5920(3) 0.9117(3) 0.12239(11)
C85_2 C 0.6579(6) 0.8429(6) 0.1060(2)
O38_2 O 0.5989(5) 0.8343(5) 0.1465(2)
C86_2 C 0.6130(6) 0.8669(6) 0.1252(2)
O63_2 O 0.9080(3) 0.4117(3) 0.12761(11)
O66_2 O 0.9654(4) 0.3605(3) 0.00011(13)
O78_2 O 0.9941(3) 0.3790(3) 0.16992(12)
O82_2 O 0.9429(4) 0.3441(3) 0.04335(12)
O85_2 O 0.9011(5) 0.3343(5) 0.1035(2)
C1_2 C 0.7978(14) 0.6916(15) 0.8829(7)
C2_2 C 0.8590(7) 0.6615(8) 0.9191(3)
H1_2 H 0.883245 0.632733 0.926121
C3_2 C 0.7874(9) 0.7491(9) 0.9026(4)
H2_2 H 0.769092 0.782061 0.895646
C4_2 C 0.8425(7) 0.7075(6) 0.9377(3)
H3_2 H 0.857863 0.709082 0.955882
P1_2 P 0.75246(13) 0.78476(13) 0.97381(5)
P4_3 P 0.69568(15) 0.69568(15) 1.000000
C11_2 C 0.6518(4) 0.9110(4) 0.9532(2)
H6_2 H 0.660455 0.933971 0.968861
C12_2 C 0.6115(5) 0.9296(5) 0.93438(18)
H7_2 H 0.591137 0.963750 0.937446
C13_2 C 0.5579(5) 0.9156(5) 0.89025(19)
N1_2 N 0.7136(4) 0.7308(4) 0.97272(17)
O11_2 O 0.5607(3) 0.8989(4) 0.86524(13)
O14_2 O 0.9353(3) 0.4889(4) 0.99443(13)
O15_2 O 0.5165(3) 0.9486(3) 0.89821(10)
O16_2 O 0.7183(3) 0.8445(3) 0.97091(12)
N2_3 N 0.7938(4) 0.7938(4) 1.000000
C24_2 C 0.8070(6) 0.7460(6) 0.9297(2)
O23_2 O 0.6978(3) 0.6269(3) 0.99544(17)
C30_2 C 0.8379(5) 0.5585(5) 0.98473(18)
H14_2 H 0.865082 0.555444 0.970276
O24_2 O 0.7900(4) 0.7902(4) 0.94591(13)
C34_2 C 0.6011(4) 0.8961(5) 0.91027(16)
C39_2 C 0.7492(5) 0.5958(5) 0.9997(2)
C41_2 C 0.7878(6) 0.5903(5) 0.9802(2)
H19_2 H 0.781877 0.607926 0.962761
C47_2 C 0.8429(6) 0.6579(6) 0.8940(2)
C48_2 C 0.6699(6) 0.8266(5) 0.9266(2)
H23_2 H 0.689342 0.791796 0.923750
C52_2 C 0.8669(6) 0.6130(6) 0.8748(2)
C54_2 C 0.6301(6) 0.8462(5) 0.9074(2)
H27_2 H 0.622752 0.823622 0.891528
C56_2 C 0.6801(5) 0.8596(5) 0.94980(19)
H39_2 H 0.823(6) 0.720(6) 0.876(3)
O30_2 O 0.4776(4) 0.9102(4) 0.96127(12)
C69_2 C 0.5325(4) 0.8478(4) 0.99082(17)
C71_2 C 0.4979(5) 0.9025(5) 0.98544(19)
C72_2 C 0.5697(5) 0.7576(5) 0.9749(2)
H42_2 H 0.570916 0.728985 0.961100
C76_2 C 0.5415(5) 0.8085(5) 0.9700(2)
H45_2 H 0.528197 0.816474 0.951804
C87_2 C 0.6451(6) 0.7686(6) 0.5917(2)
H52_2 H 0.672581 0.747886 0.581537
C88_2 C 0.6950(6) 0.8996(6) 0.6888(3)
C90_2 C 0.5884(6) 0.7807(6) 0.6324(3)
H53_2 H 0.577931 0.767621 0.650321
O39_2 O 0.7354(6) 0.8566(6) 0.6800(2)
P7_2 P 0.63869(13) 0.72711(14) 0.70776(5)
P8_2 P 0.68645(16) 0.69854(16) 0.65734(6)
P9_2 P 0.73427(17) 0.78853(16) 0.68840(9)
C91_2 C 0.5206(4) 0.8677(4) 0.77121(16)
O44_2 O 0.6352(3) 0.6876(3) 0.73472(12)
O45_2 O 0.9702(3) 0.5617(3) 0.61595(10)
O47_2 O 0.7180(3) 0.6372(3) 0.65391(13)
C93_2 C 0.5584(4) 0.7929(5) 0.73079(17)
O48_2 O 0.5552(4) 0.9072(4) 0.55741(19)
C94_2 C 0.5100(5) 0.8091(5) 0.7733(2)
H54_2 H 0.487967 0.795272 0.788362
C95_2 C 0.8015(5) 0.5817(5) 0.64679(16)
H55_2 H 0.785768 0.554793 0.659274
C96_2 C 0.7788(4) 0.5908(5) 0.76014(17)
C97_2 C 0.5036(4) 0.9084(5) 0.79400(17)
C98_2 C 0.6153(5) 0.9578(5) 0.6771(2)
H56_2 H 0.587238 0.969309 0.664173
C99_2 C 0.9170(5) 0.6562(5) 0.68886(18)
O49_2 O 0.6559(4) 0.7002(4) 0.62841(16)
C100_2 C 0.9405(5) 0.6039(4) 0.60721(17)
O51_2 O 0.4764(4) 0.8876(3) 0.81401(13)
O53_2 O 0.5750(3) 0.7534(3) 0.70916(12)
C101_2 C 0.8563(4) 0.5716(4) 0.63491(17)
H57_2 H 0.875528 0.537121 0.638899
O54_2 O 0.9639(4) 0.6384(4) 0.59057(17)
N7_2 N 0.7281(5) 0.7495(5) 0.6608(2)
C102_2 C 0.6297(7) 0.7525(5) 0.6176(2)
C103_2 C 0.7949(6) 0.6703(7) 0.6219(3)
H58_2 H 0.773981 0.703205 0.616918
C104_2 C 0.6837(5) 0.6534(5) 0.7429(2)
C105_2 C 0.5548(6) 0.9022(6) 0.5833(3)
N8_2 N 0.6387(4) 0.6890(4) 0.68047(16)
C106_2 C 0.5793(6) 0.8484(5) 0.5952(3)
C107_2 C 0.6164(4) 0.9825(5) 0.70222(17)
C108_2 C 0.8314(5) 0.5566(5) 0.76843(18)
C109_2 C 0.8687(6) 0.6473(6) 0.7031(2)
H59_2 H 0.861862 0.610836 0.710744
C110_2 C 0.7104(5) 0.6662(6) 0.76790(17)
H60_2 H 0.697795 0.696988 0.778988
C111_2 C 0.5614(6) 0.8291(5) 0.62111(19)
H61_2 H 0.531935 0.847969 0.630888
C112_2 C 0.5638(5) 0.8499(5) 0.7267(2)
H62_2 H 0.578763 0.864450 0.709893
N9_2 N 0.6890(4) 0.7756(4) 0.7116(2)
C113_2 C 0.7712(5) 0.6300(5) 0.6403(2)
C114_2 C 0.8819(5) 0.6113(4) 0.61767(17)
C115_2 C 0.7487(5) 0.5762(5) 0.7356(2)
H63_2 H 0.760389 0.544604 0.724780
C116_2 C 0.8509(6) 0.6612(6) 0.6106(2)
H64_2 H 0.867174 0.688529 0.598553
C117_2 C 0.8269(6) 0.6915(6) 0.7072(3)
H65_2 H 0.792180 0.683181 0.716284
C118_2 C 0.7022(5) 0.6084(5) 0.7274(2)
H66_2 H 0.682868 0.598986 0.710785
C119_2 C 0.9588(5) 0.6080(4) 0.68209(18)
C120_2 C 0.6607(5) 0.9662(6) 0.7207(3)
H67_2 H 0.663330 0.983814 0.738400
O58_2 O 0.7976(4) 0.7880(4) 0.7006(2)
C121_2 C 0.7555(5) 0.6332(5) 0.77620(18)
H68_2 H 0.771502 0.639988 0.793963
C122_2 C 0.5310(6) 0.7710(5) 0.7539(2)
H69_2 H 0.526829 0.731226 0.756383
C123_2 C 0.8370(6) 0.7423(5) 0.6985(3)
C124_2 C 0.5463(5) 0.8872(5) 0.7486(2)
H70_2 H 0.553117 0.926700 0.746906
C125_2 C 0.7008(7) 0.9243(7) 0.7133(3)
H71_2 H 0.730805 0.914242 0.725472
C126_2 C 0.6189(7) 0.8169(6) 0.5805(2)
H72_2 H 0.628709 0.828322 0.562246
C127_2 C 0.9273(7) 0.7115(7) 0.6793(3)
H73_2 H 0.960590 0.719202 0.668887
C128_2 C 0.6554(6) 0.9139(5) 0.6691(3)
H74_2 H 0.654368 0.896329 0.651386
C129_2 C 0.8890(8) 0.7556(8) 0.6849(3)
H75_2 H 0.897629 0.793553 0.679832
O77_2 O 0.3790(3) 0.9941(3) 0.83008(12)
C7_3 C 0.1821(6) 0.5581(8) 0.2092(3)
O4_3 O 0.0224(4) 0.4102(4) 0.28873(12)
O14_3 O 0.0111(4) 0.4353(3) 0.24443(13)
H8_3 H 0.012033 0.295272 0.461638
O19_3 O 0.0236(4) 0.3876(3) 0.43599(13)
O20_3 O 0.1600(4) 0.5199(5) 0.1949(2)
C26_3 C 0.0021(5) 0.4025(5) 0.26456(19)
O26_3 O 0.1541(5) 0.5815(5) 0.2301(2)
C65_3 C 0.2323(8) 0.5777(8) 0.2057(4)
H36_3 H 0.255620 0.549332 0.196180
H37_3 H 0.249138 0.586497 0.223762
H38_3 H 0.230539 0.612303 0.194452
O63_3 O 0.0883(3) 0.4080(3) 0.37761(11)
O66_3 O 0.1395(3) 0.4654(4) 0.25011(13)
O82_3 O 0.1559(3) 0.4429(4) 0.29335(12)
O85_3 O 0.1657(5) 0.4011(5) 0.3535(2)
C1_3 C 0.8084(15) 0.2978(14) 0.1329(7)
C2_3 C 0.8385(8) 0.3590(7) 0.1691(3)
H1_3 H 0.867267 0.383245 0.176121
C3_3 C 0.7509(9) 0.2874(9) 0.1526(4)
H2_3 H 0.717939 0.269092 0.145646
C4_3 C 0.7925(6) 0.3425(7) 0.1877(3)
H3_3 H 0.790918 0.357863 0.205882
C5_3 C 0.8549(6) 0.2686(6) 0.6583(2)
H4_3 H 0.827419 0.247886 0.668463
C6_3 C 0.8050(6) 0.3996(6) 0.5612(3)
C8_3 C 0.9116(6) 0.2807(6) 0.6176(3)
H5_3 H 0.922069 0.267621 0.599679
O1_3 O 0.7646(6) 0.3566(6) 0.5700(2)
P1_3 P 0.71524(13) 0.25246(13) 0.22381(5)
P2_3 P 0.86131(13) 0.22711(14) 0.54224(5)
P3_3 P 0.81355(16) 0.19854(16) 0.59266(6)
P4_4 P 0.80432(15) 0.19568(15) 0.250000
O2_3 O 0.9667(3) 0.5386(3) 0.55400(13)
O3_3 O 0.9672(4) 0.4379(4) 0.65071(18)
P5_3 P 0.76573(17) 0.28853(16) 0.56160(9)
C9_3 C 0.9794(4) 0.3677(4) 0.47879(16)
C10_3 C 0.9286(4) 0.5224(4) 0.53826(15)
C11_3 C 0.5890(4) 0.1518(4) 0.2032(2)
H6_3 H 0.566029 0.160455 0.218861
C12_3 C 0.5704(5) 0.1115(5) 0.18438(18)
H7_3 H 0.536250 0.091137 0.187446
O6_3 O 0.6395(3) 0.0346(4) 0.49989(13)
C13_3 C 0.5844(5) 0.0579(5) 0.14025(19)
N1_3 N 0.7692(4) 0.2136(4) 0.22272(17)
O7_3 O 0.9805(3) 0.4602(3) 0.45564(13)
O8_3 O 0.8648(3) 0.1876(3) 0.51528(12)
O11_3 O 0.6011(4) 0.0607(3) 0.11524(13)
O12_3 O 0.7820(3) 0.1372(3) 0.59609(13)
C14_3 C 0.9416(4) 0.2929(5) 0.51921(17)
O15_3 O 0.5514(3) 0.0165(3) 0.14821(10)
O16_3 O 0.6555(3) 0.2183(3) 0.22091(12)
C15_3 C 0.9900(5) 0.3091(5) 0.4767(2)
C16_3 C 0.6985(5) 0.0817(5) 0.60321(16)
H9_3 H 0.714232 0.054793 0.590726
C17_3 C 0.7212(4) 0.0908(5) 0.48986(17)
C18_3 C 0.9964(4) 0.4084(5) 0.45600(17)
N2_4 N 0.7062(4) 0.2938(4) 0.250000
C19_3 C 0.8847(5) 0.4578(5) 0.5729(2)
H10_3 H 0.912762 0.469309 0.585827
C20_3 C 0.9675(4) 0.3478(4) 0.25918(17)
C21_3 C 0.5830(5) 0.1562(5) 0.56114(18)
O17_3 O 0.8441(4) 0.2002(4) 0.62159(16)
C22_3 C 0.5595(5) 0.1039(4) 0.64279(17)
O21_3 O 0.9250(3) 0.2534(3) 0.54084(12)
C23_3 C 0.6437(4) 0.0716(4) 0.61509(17)
H11_3 H 0.624472 0.037121 0.611101
C24_3 C 0.7540(6) 0.3070(6) 0.1797(2)
N3_3 N 0.7719(5) 0.2495(5) 0.5892(2)
O23_3 O 0.8731(3) 0.1978(3) 0.24544(17)
C25_3 C 0.8703(7) 0.2525(5) 0.6324(2)
C27_3 C 0.7051(6) 0.1703(7) 0.6281(3)
H12_3 H 0.726019 0.203205 0.633082
C28_3 C 0.9303(5) 0.2576(5) 0.2751(2)
H13_3 H 0.929084 0.228985 0.288900
C29_3 C 0.8163(5) 0.1534(5) 0.5071(2)
C30_3 C 0.9415(5) 0.3379(5) 0.23473(18)
H14_3 H 0.944556 0.365082 0.220276
O24_3 O 0.7098(4) 0.2900(4) 0.19591(13)
C31_3 C 0.9452(6) 0.4022(6) 0.6667(3)
N4_3 N 0.8613(4) 0.1890(4) 0.56953(16)
C32_3 C 0.9207(6) 0.3484(5) 0.6548(3)
C33_3 C 0.8836(4) 0.4825(5) 0.54778(17)
C34_3 C 0.6039(5) 0.1011(4) 0.16027(16)
C35_3 C 0.6686(5) 0.0566(5) 0.48157(18)
C36_3 C 0.6313(6) 0.1473(6) 0.5469(2)
H15_3 H 0.638138 0.110836 0.539256
C37_3 C 0.7896(5) 0.1662(6) 0.48210(17)
H16_3 H 0.802205 0.196988 0.471012
C38_3 C 0.9386(6) 0.3291(5) 0.62889(19)
H17_3 H 0.968065 0.347969 0.619112
C39_3 C 0.9042(5) 0.2492(5) 0.2497(2)
C40_3 C 0.9362(5) 0.3499(5) 0.5233(2)
H18_3 H 0.921237 0.364450 0.540107
O25_3 O 0.6559(3) 0.0571(4) 0.45665(12)
C41_3 C 0.9097(5) 0.2878(6) 0.2302(2)
H19_3 H 0.892074 0.281877 0.212761
N5_3 N 0.8110(4) 0.2756(4) 0.5384(2)
C42_3 C 0.7288(5) 0.1300(5) 0.6097(2)
C43_3 C 0.6181(5) 0.1113(4) 0.63233(17)
C44_3 C 0.7513(5) 0.0762(5) 0.5144(2)
H20_3 H 0.739611 0.044604 0.525220
C45_3 C 0.6491(6) 0.1612(6) 0.6394(2)
H21_3 H 0.632826 0.188529 0.651447
C46_3 C 0.6731(6) 0.1915(6) 0.5428(3)
H22_3 H 0.707820 0.183181 0.533716
C47_3 C 0.8421(6) 0.3429(6) 0.1440(2)
C48_3 C 0.6734(5) 0.1699(6) 0.1766(2)
H23_3 H 0.708204 0.189342 0.173750
O27_3 O 0.9277(3) 0.5386(3) 0.51274(12)
C49_3 C 0.7978(5) 0.1084(5) 0.5226(2)
H24_3 H 0.817132 0.098986 0.539215
C50_3 C 0.5412(5) 0.1080(4) 0.56791(18)
C51_3 C 0.9585(5) 0.3085(5) 0.2800(2)
H25_3 H 0.971803 0.316474 0.298196
C52_3 C 0.8870(6) 0.3669(6) 0.1248(2)
C53_3 C 0.8393(5) 0.4662(6) 0.5293(3)
H26_3 H 0.836670 0.483814 0.511600
O29_3 O 0.7024(4) 0.2880(4) 0.5494(2)
C54_3 C 0.6538(5) 0.1301(6) 0.1574(2)
H27_3 H 0.676378 0.122752 0.141528
C55_3 C 0.7445(5) 0.1332(5) 0.47380(18)
H28_3 H 0.728498 0.139988 0.456037
C56_3 C 0.6404(5) 0.1801(5) 0.19980(19)
C57_3 C 0.9690(6) 0.2710(5) 0.4961(2)
H29_3 H 0.973171 0.231226 0.493617
C58_3 C 0.6630(6) 0.2423(5) 0.5515(3)
C59_3 C 0.9537(5) 0.3872(5) 0.5014(2)
H30_3 H 0.946883 0.426700 0.503094
C60_3 C 0.7992(7) 0.4243(7) 0.5367(3)
H31_3 H 0.769195 0.414242 0.524528
C61_3 C 0.8811(7) 0.3169(6) 0.6695(2)
H32_3 H 0.871291 0.328322 0.687754
C62_3 C 0.5727(7) 0.2115(7) 0.5707(3)
H33_3 H 0.539410 0.219202 0.581113
C63_3 C 0.8446(6) 0.4139(5) 0.5809(3)
H34_3 H 0.845632 0.396329 0.598614
C64_3 C 0.6110(8) 0.2556(8) 0.5651(3)
H35_3 H 0.602371 0.293553 0.570168
H39_3 H 0.780(6) 0.323(6) 0.126(3)
C66_3 C 0.7022(14) 0.1916(15) 0.3671(7)
C67_3 C 0.7126(9) 0.2491(9) 0.3474(4)
H40_3 H 0.730908 0.282061 0.354354
C68_3 C 0.6575(7) 0.2075(6) 0.3123(3)
H41_3 H 0.642137 0.209082 0.294118
P6_3 P 0.74754(13) 0.28476(13) 0.27619(5)
N6_3 N 0.7864(4) 0.2308(4) 0.27728(17)
O32_3 O 0.7817(3) 0.3445(3) 0.27909(12)
C69_3 C 0.6522(4) 0.0325(4) 0.24082(17)
C70_3 C 0.6930(6) 0.2460(6) 0.3203(2)
O33_3 O 0.8022(3) 0.1269(3) 0.25456(17)
C72_3 C 0.7424(5) 0.0697(5) 0.2249(2)
H42_3 H 0.771015 0.070916 0.211100
C73_3 C 0.6621(5) 0.0585(5) 0.26527(18)
H43_3 H 0.634918 0.055444 0.279724
O34_3 O 0.7100(4) 0.2902(4) 0.30409(13)
C74_3 C 0.7508(5) 0.0958(5) 0.2503(2)
C75_3 C 0.7122(6) 0.0903(5) 0.2698(2)
H44_3 H 0.718123 0.107926 0.287239
C76_3 C 0.6915(5) 0.0415(5) 0.2200(2)
H45_3 H 0.683526 0.028197 0.201804
H46_3 H 0.677(6) 0.220(6) 0.374(3)
C77_3 C 0.8482(4) 0.4110(4) 0.2968(2)
H47_3 H 0.839545 0.433971 0.281139
C78_3 C 0.8885(5) 0.4296(5) 0.31562(18)
H48_3 H 0.908863 0.463750 0.312554
C79_3 C 0.9421(5) 0.4156(5) 0.35975(19)
O35_3 O 0.9393(3) 0.3989(4) 0.38476(13)
O36_3 O 0.9835(3) 0.4486(3) 0.35179(10)
C80_3 C 0.8989(4) 0.3961(5) 0.33973(16)
C81_3 C 0.8301(6) 0.3266(5) 0.3234(2)
H49_3 H 0.810658 0.291796 0.326250
C82_3 C 0.8699(6) 0.3462(5) 0.3426(2)
H50_3 H 0.877248 0.323622 0.358472
C83_3 C 0.8199(5) 0.3596(5) 0.30020(19)
C84_3 C 0.6410(7) 0.1615(8) 0.3309(3)
H51_3 H 0.616755 0.132733 0.323879
O37_3 O 0.5883(3) 0.0920(3) 0.37239(11)
C85_3 C 0.6571(6) 0.1579(6) 0.3560(2)
O38_3 O 0.6657(5) 0.0989(5) 0.3965(2)
C86_3 C 0.6331(6) 0.1130(6) 0.3752(2)
C91_3 C 0.6323(4) 0.0206(4) 0.02121(16)
C94_3 C 0.6909(5) 0.0100(5) 0.0233(2)
C96_3 C 0.9092(5) 0.2788(4) 0.01014(17)
C97_3 C 0.5916(5) 0.0036(4) 0.04400(17)
C108_3 C 0.9434(5) 0.3314(5) 0.01843(18)
C110_3 C 0.8338(6) 0.2104(5) 0.01790(17)
H60_3 H 0.803012 0.197795 0.028988
C121_3 C 0.8668(5) 0.2555(5) 0.02620(18)
H68_3 H 0.860012 0.271502 0.043963
C122_3 C 0.7290(5) 0.0310(6) 0.0039(2)
H69_3 H 0.768774 0.026829 0.006383
O62_3 O 0.4672(4) 0.0621(4) 0.09929(18)
O68_3 O 0.4805(3) 0.0398(3) 0.29436(13)
C87_3 C 0.7314(6) 0.1451(6) 0.8417(2)
H52_3 H 0.752114 0.172581 0.831537
C88_3 C 0.6004(6) 0.1950(6) 0.9388(3)
C90_3 C 0.7193(6) 0.0884(6) 0.8824(3)
H53_3 H 0.732379 0.077931 0.900321
O39_3 O 0.6434(6) 0.2354(6) 0.9300(2)
P7_3 P 0.77289(14) 0.13869(13) 0.95776(5)
P8_3 P 0.80146(16) 0.18645(16) 0.90734(6)
P9_3 P 0.71147(16) 0.23427(17) 0.93840(9)
C92_3 C 0.4776(4) 0.0714(4) 0.96174(15)
O44_3 O 0.8124(3) 0.1352(3) 0.98472(12)
O47_3 O 0.8628(3) 0.2180(3) 0.90391(13)
C93_3 C 0.7071(5) 0.0584(4) 0.98079(17)
C95_3 C 0.9183(5) 0.3015(5) 0.89679(16)
H55_3 H 0.945207 0.285768 0.909274
C98_3 C 0.5422(5) 0.1153(5) 0.9271(2)
H56_3 H 0.530691 0.087238 0.914173
C99_3 C 0.8438(5) 0.4170(5) 0.93886(18)
O49_3 O 0.7998(4) 0.1559(4) 0.87841(16)
C100_3 C 0.8961(4) 0.4405(5) 0.85721(17)
O53_3 O 0.7466(3) 0.0750(3) 0.95916(12)
C101_3 C 0.9284(4) 0.3563(4) 0.88491(17)
H57_3 H 0.962879 0.375528 0.888899
N7_3 N 0.7505(5) 0.2281(5) 0.9108(2)
C102_3 C 0.7475(5) 0.1297(7) 0.8676(2)
C103_3 C 0.8297(7) 0.2949(6) 0.8719(3)
H58_3 H 0.796795 0.273981 0.866918
C104_3 C 0.8466(5) 0.1837(5) 0.9929(2)
C105_3 C 0.5978(6) 0.0548(6) 0.8333(3)
N8_3 N 0.8110(4) 0.1387(4) 0.93047(16)
C106_3 C 0.6516(5) 0.0793(6) 0.8452(3)
C107_3 C 0.5175(5) 0.1164(4) 0.95222(17)
C109_3 C 0.8527(6) 0.3687(6) 0.9531(2)
H59_3 H 0.889164 0.361862 0.960744
C111_3 C 0.6709(5) 0.0614(6) 0.87111(19)
H61_3 H 0.652031 0.031935 0.880888
C112_3 C 0.6501(5) 0.0638(5) 0.9767(2)
H62_3 H 0.635550 0.078763 0.959893
N9_3 N 0.7244(4) 0.1890(4) 0.9616(2)
C113_3 C 0.8700(5) 0.2712(5) 0.8903(2)
C114_3 C 0.8887(4) 0.3819(5) 0.86767(17)
C115_3 C 0.9238(5) 0.2487(5) 0.9856(2)
H63_3 H 0.955396 0.260389 0.974780
C116_3 C 0.8388(6) 0.3509(6) 0.8606(2)
H64_3 H 0.811471 0.367174 0.848553
C117_3 C 0.8085(6) 0.3269(6) 0.9572(3)
H65_3 H 0.816819 0.292180 0.966284
C118_3 C 0.8916(5) 0.2022(5) 0.9774(2)
H66_3 H 0.901014 0.182868 0.960785
C119_3 C 0.8920(4) 0.4588(5) 0.93209(18)
C120_3 C 0.5338(6) 0.1607(5) 0.9707(3)
H67_3 H 0.516186 0.163330 0.988400
O58_3 O 0.7120(4) 0.2976(4) 0.9506(2)
C123_3 C 0.7577(5) 0.3370(6) 0.9485(3)
C124_3 C 0.6128(5) 0.0463(5) 0.9986(2)
H70_3 H 0.573300 0.053117 0.996906
C125_3 C 0.5757(7) 0.2008(7) 0.9633(3)
H71_3 H 0.585758 0.230805 0.975472
C126_3 C 0.6831(6) 0.1189(7) 0.8305(2)
H72_3 H 0.671678 0.128709 0.812246
C127_3 C 0.7885(7) 0.4273(7) 0.9293(3)
H73_3 H 0.780798 0.460590 0.918887
C128_3 C 0.5861(5) 0.1554(6) 0.9191(3)
H74_3 H 0.603671 0.154368 0.901386
C129_3 C 0.7444(8) 0.3890(8) 0.9349(3)
H75_3 H 0.706447 0.397629 0.929832
O30_3 O 0.5898(4) 0.9776(4) 0.21127(12)
O31_3 O 0.5647(3) 0.9889(4) 0.25557(13)
C71_3 C 0.5975(5) 0.9979(5) 0.23544(19)
C89_3 C 0.4419(8) 0.8179(6) 0.2908(3)
H54_3 H 0.704728 0.987967 0.038362
O51_3 O 0.6124(3) 0.9764(4) 0.06401(13)
O52_3 O 0.4801(5) 0.8400(4) 0.3051(2)
O56_3 O 0.4185(5) 0.8459(5) 0.2699(2)
C130_3 C 0.4223(8) 0.7677(8) 0.2943(4)
H76_3 H 0.450668 0.744380 0.303820
H77_3 H 0.413503 0.750862 0.276238
H78_3 H 0.387697 0.769461 0.305548
O60_3 O 0.4667(3) 0.9614(3) 0.19600(13)
O84_3 O 0.4277(3) 0.9614(3) 0.23726(12)
C1_4 C 0.2022(14) 0.3084(15) 0.3829(7)
C2_4 C 0.1410(7) 0.3385(8) 0.4191(3)
H1_4 H 0.116755 0.367267 0.426121
C3_4 C 0.2126(9) 0.2509(9) 0.4026(4)
H2_4 H 0.230908 0.217939 0.395646
C4_4 C 0.1575(7) 0.2925(6) 0.4377(3)
H3_4 H 0.142137 0.290918 0.455882
C5_4 C 0.2314(6) 0.3549(6) 0.9083(2)
H4_4 H 0.252114 0.327419 0.918463
C6_4 C 0.1004(6) 0.3050(6) 0.8112(3)
C8_4 C 0.2193(6) 0.4116(6) 0.8676(3)
H5_4 H 0.232379 0.422069 0.849679
O1_4 O 0.1434(6) 0.2646(6) 0.8200(2)
P1_4 P 0.24754(13) 0.21524(13) 0.47381(5)
P2_4 P 0.27289(14) 0.36131(13) 0.79224(5)
P3_4 P 0.30146(16) 0.31355(16) 0.84266(6)
P4_5 P 0.30432(15) 0.30432(15) 0.500000
P5_4 P 0.21147(16) 0.26573(17) 0.81160(9)
C9_4 C 0.1323(4) 0.4794(4) 0.72879(16)
O4_4 O 0.0898(4) 0.5224(4) 0.53873(12)
C11_4 C 0.3482(4) 0.0890(4) 0.4532(2)
H6_4 H 0.339545 0.066029 0.468861
C12_4 C 0.3885(5) 0.0704(5) 0.43438(18)
H7_4 H 0.408863 0.036250 0.437446
C13_4 C 0.4421(5) 0.0844(5) 0.39025(19)
N1_4 N 0.2864(4) 0.2692(4) 0.47272(17)
O8_4 O 0.3124(3) 0.3648(3) 0.76528(12)
O11_4 O 0.4393(3) 0.1011(4) 0.36524(13)
O12_4 O 0.3628(3) 0.2820(3) 0.84609(13)
C14_4 C 0.2071(5) 0.4416(4) 0.76921(17)
O14_4 O 0.0647(3) 0.5111(4) 0.49443(13)
O15_4 O 0.4835(3) 0.0514(3) 0.39821(10)
O16_4 O 0.2817(3) 0.1555(3) 0.47091(12)
C15_4 C 0.1909(5) 0.4900(5) 0.7267(2)
H8_4 H 0.204728 0.512033 0.711638
C16_4 C 0.4183(5) 0.1985(5) 0.85321(16)
H9_4 H 0.445207 0.214232 0.840726
C17_4 C 0.4092(5) 0.2212(4) 0.73986(17)
C18_4 C 0.0916(5) 0.4964(4) 0.70600(17)
N2_5 N 0.2062(4) 0.2062(4) 0.500000
C19_4 C 0.0422(5) 0.3847(5) 0.8229(2)
H10_4 H 0.030691 0.412762 0.835827
C20_4 C 0.1522(4) 0.4675(4) 0.50918(17)
C21_4 C 0.3438(5) 0.0830(5) 0.81114(18)
O17_4 O 0.2998(4) 0.3441(4) 0.87159(16)
C22_4 C 0.3961(4) 0.0595(5) 0.89279(17)
O19_4 O 0.1124(3) 0.5236(4) 0.68599(13)
O21_4 O 0.2466(3) 0.4250(3) 0.79084(12)
C23_4 C 0.4284(4) 0.1437(4) 0.86509(17)
H11_4 H 0.462879 0.124472 0.861101
C24_4 C 0.1930(6) 0.2540(6) 0.4297(2)
N3_4 N 0.2505(5) 0.2719(5) 0.8392(2)
O23_4 O 0.3022(3) 0.3731(3) 0.49544(17)
C25_4 C 0.2475(5) 0.3703(7) 0.8824(2)
C26_4 C 0.0975(5) 0.5021(5) 0.51456(19)
C27_4 C 0.3297(7) 0.2051(6) 0.8781(3)
H12_4 H 0.296795 0.226019 0.883082
C28_4 C 0.2424(5) 0.4303(5) 0.5251(2)
H13_4 H 0.271015 0.429084 0.538900
C29_4 C 0.3466(5) 0.3163(5) 0.7571(2)
C30_4 C 0.1621(5) 0.4415(5) 0.48473(18)
H14_4 H 0.134918 0.444556 0.470276
O24_4 O 0.2100(4) 0.2098(4) 0.44591(13)
C31_4 C 0.0978(6) 0.4452(6) 0.9167(3)
N4_4 N 0.3110(4) 0.3613(4) 0.81953(16)
C32_4 C 0.1516(5) 0.4207(6) 0.9048(3)
C33_4 C 0.0175(5) 0.3836(4) 0.79778(17)
C34_4 C 0.3989(4) 0.1039(5) 0.41027(16)
C35_4 C 0.4434(5) 0.1686(5) 0.73157(18)
C36_4 C 0.3527(6) 0.1313(6) 0.7969(2)
H15_4 H 0.389164 0.138138 0.789256
C37_4 C 0.3338(6) 0.2896(5) 0.73210(17)
H16_4 H 0.303012 0.302205 0.721012
C38_4 C 0.1709(5) 0.4386(6) 0.87889(19)
H17_4 H 0.152031 0.468065 0.869112
C39_4 C 0.2508(5) 0.4042(5) 0.4997(2)
C40_4 C 0.1501(5) 0.4362(5) 0.7733(2)
H18_4 H 0.135550 0.421237 0.790107
C41_4 C 0.2122(6) 0.4097(5) 0.4802(2)
H19_4 H 0.218123 0.392074 0.462761
N5_4 N 0.2244(4) 0.3110(4) 0.7884(2)
C42_4 C 0.3700(5) 0.2288(5) 0.8597(2)
C43_4 C 0.3887(4) 0.1181(5) 0.88233(17)
C44_4 C 0.4238(5) 0.2513(5) 0.7644(2)
H20_4 H 0.455396 0.239611 0.775220
C45_4 C 0.3388(6) 0.1491(6) 0.8894(2)
H21_4 H 0.311471 0.132826 0.901447
C46_4 C 0.3085(6) 0.1731(6) 0.7928(3)
H22_4 H 0.316819 0.207820 0.783716
C47_4 C 0.1571(6) 0.3421(6) 0.3940(2)
C48_4 C 0.3301(6) 0.1734(5) 0.4266(2)
H23_4 H 0.310658 0.208204 0.423750
C49_4 C 0.3916(5) 0.2978(5) 0.7726(2)
H24_4 H 0.401014 0.317132 0.789215
C50_4 C 0.3920(4) 0.0412(5) 0.81791(18)
C51_4 C 0.1915(5) 0.4585(5) 0.5300(2)
H25_4 H 0.183526 0.471803 0.548196
C52_4 C 0.1331(6) 0.3870(6) 0.3748(2)
C53_4 C 0.0338(6) 0.3393(5) 0.7793(3)
H26_4 H 0.016186 0.336670 0.761600
O29_4 O 0.2120(4) 0.2024(4) 0.7994(2)
C54_4 C 0.3699(6) 0.1538(5) 0.4074(2)
H27_4 H 0.377248 0.176378 0.391528
C55_4 C 0.3668(5) 0.2445(5) 0.72380(18)
H28_4 H 0.360012 0.228498 0.706037
C56_4 C 0.3199(5) 0.1404(5) 0.44980(19)
C57_4 C 0.2290(5) 0.4690(6) 0.7461(2)
H29_4 H 0.268774 0.473171 0.743617
C58_4 C 0.2577(5) 0.1630(6) 0.8015(3)
C59_4 C 0.1128(5) 0.4537(5) 0.7514(2)
H30_4 H 0.073300 0.446883 0.753094
C60_4 C 0.0757(7) 0.2992(7) 0.7867(3)
H31_4 H 0.085758 0.269195 0.774528
C61_4 C 0.1831(6) 0.3811(7) 0.9195(2)
H32_4 H 0.171678 0.371291 0.937754
C62_4 C 0.2885(7) 0.0727(7) 0.8207(3)
H33_4 H 0.280798 0.039410 0.831113
C63_4 C 0.0861(5) 0.3446(6) 0.8309(3)
H34_4 H 0.103671 0.345632 0.848614
C64_4 C 0.2444(8) 0.1110(8) 0.8151(3)
H35_4 H 0.206447 0.102371 0.820168
H39_4 H 0.177(6) 0.280(6) 0.376(3)
C66_4 C 0.3084(15) 0.2022(14) 0.6171(7)
C67_4 C 0.2509(9) 0.2126(9) 0.5974(4)
H40_4 H 0.217939 0.230908 0.604354
C68_4 C 0.2925(6) 0.1575(7) 0.5623(3)
H41_4 H 0.290918 0.142137 0.544118
P6_4 P 0.21524(13) 0.24754(13) 0.52619(5)
O30_4 O 0.5224(4) 0.0898(4) 0.46127(12)
N6_4 N 0.2692(4) 0.2864(4) 0.52728(17)
O31_4 O 0.5111(4) 0.0647(3) 0.50557(13)
O32_4 O 0.1555(3) 0.2817(3) 0.52909(12)
C69_4 C 0.4675(4) 0.1522(4) 0.49082(17)
C70_4 C 0.2540(6) 0.1930(6) 0.5703(2)
O33_4 O 0.3731(3) 0.3022(3) 0.50456(17)
C71_4 C 0.5021(5) 0.0975(5) 0.48544(19)
C72_4 C 0.4303(5) 0.2424(5) 0.4749(2)
H42_4 H 0.429084 0.271015 0.461100
C73_4 C 0.4415(5) 0.1621(5) 0.51527(18)
H43_4 H 0.444556 0.134918 0.529724
O34_4 O 0.2098(4) 0.2100(4) 0.55409(13)
C74_4 C 0.4042(5) 0.2508(5) 0.5003(2)
C75_4 C 0.4097(5) 0.2122(6) 0.5198(2)
H44_4 H 0.392074 0.218123 0.537239
C76_4 C 0.4585(5) 0.1915(5) 0.4700(2)
H45_4 H 0.471803 0.183526 0.451804
H46_4 H 0.280(6) 0.177(6) 0.624(3)
C77_4 C 0.0890(4) 0.3482(4) 0.5468(2)
H47_4 H 0.066029 0.339545 0.531139
C78_4 C 0.0704(5) 0.3885(5) 0.56562(18)
H48_4 H 0.036250 0.408863 0.562554
C79_4 C 0.0844(5) 0.4421(5) 0.60975(19)
O35_4 O 0.1011(4) 0.4393(3) 0.63476(13)
O36_4 O 0.0514(3) 0.4835(3) 0.60179(10)
C80_4 C 0.1039(5) 0.3989(4) 0.58973(16)
C81_4 C 0.1734(5) 0.3301(6) 0.5734(2)
H49_4 H 0.208204 0.310658 0.576250
C82_4 C 0.1538(5) 0.3699(6) 0.5926(2)
H50_4 H 0.176378 0.377248 0.608472
C83_4 C 0.1404(5) 0.3199(5) 0.55020(19)
C84_4 C 0.3385(8) 0.1410(7) 0.5809(3)
H51_4 H 0.367267 0.116755 0.573879
C85_4 C 0.3421(6) 0.1571(6) 0.6060(2)
C86_4 C 0.3870(6) 0.1331(6) 0.6252(2)
C87_4 C 0.3549(6) 0.2314(6) 0.0917(2)
H52_4 H 0.327419 0.252114 0.081537
C88_4 C 0.3050(6) 0.1004(6) 0.1888(3)
C90_4 C 0.4116(6) 0.2193(6) 0.1324(3)
H53_4 H 0.422069 0.232379 0.150321
O39_4 O 0.2646(6) 0.1434(6) 0.1800(2)
P7_4 P 0.36131(13) 0.27289(14) 0.20776(5)
P8_4 P 0.31355(16) 0.30146(16) 0.15734(6)
P9_4 P 0.26573(17) 0.21147(16) 0.18840(9)
C91_4 C 0.4794(4) 0.1323(4) 0.27121(16)
O44_4 O 0.3648(3) 0.3124(3) 0.23472(12)
O47_4 O 0.2820(3) 0.3628(3) 0.15391(13)
C93_4 C 0.4416(4) 0.2071(5) 0.23079(17)
C94_4 C 0.4900(5) 0.1909(5) 0.2733(2)
H54_4 H 0.512033 0.204728 0.288362
C95_4 C 0.1985(5) 0.4183(5) 0.14679(16)
H55_4 H 0.214232 0.445207 0.159274
C96_4 C 0.2212(4) 0.4092(5) 0.26014(17)
C97_4 C 0.4964(4) 0.0916(5) 0.29400(17)
C98_4 C 0.3847(5) 0.0422(5) 0.1771(2)
H56_4 H 0.412762 0.030691 0.164173
C99_4 C 0.0830(5) 0.3438(5) 0.18886(18)
O49_4 O 0.3441(4) 0.2998(4) 0.12841(16)
C100_4 C 0.0595(5) 0.3961(4) 0.10721(17)
O51_4 O 0.5236(4) 0.1124(3) 0.31401(13)
O53_4 O 0.4250(3) 0.2466(3) 0.20916(12)
C101_4 C 0.1437(4) 0.4284(4) 0.13491(17)
H57_4 H 0.124472 0.462879 0.138899
N7_4 N 0.2719(5) 0.2505(5) 0.1608(2)
C102_4 C 0.3703(7) 0.2475(5) 0.1176(2)
C103_4 C 0.2051(6) 0.3297(7) 0.1219(3)
H58_4 H 0.226019 0.296795 0.116918
C104_4 C 0.3163(5) 0.3466(5) 0.2429(2)
C105_4 C 0.4452(6) 0.0978(6) 0.0833(3)
N8_4 N 0.3613(4) 0.3110(4) 0.18047(16)
C106_4 C 0.4207(6) 0.1516(5) 0.0952(3)
C107_4 C 0.3836(4) 0.0175(5) 0.20222(17)
C108_4 C 0.1686(5) 0.4434(5) 0.26843(18)
C109_4 C 0.1313(6) 0.3527(6) 0.2031(2)
H59_4 H 0.138138 0.389164 0.210744
C110_4 C 0.2896(5) 0.3338(6) 0.26790(17)
H60_4 H 0.302205 0.303012 0.278988
C111_4 C 0.4386(6) 0.1709(5) 0.12111(19)
H61_4 H 0.468065 0.152031 0.130888
C112_4 C 0.4362(5) 0.1501(5) 0.2267(2)
H62_4 H 0.421237 0.135550 0.209893
N9_4 N 0.3110(4) 0.2244(4) 0.2116(2)
C113_4 C 0.2288(5) 0.3700(5) 0.1403(2)
C114_4 C 0.1181(5) 0.3887(4) 0.11767(17)
C115_4 C 0.2513(5) 0.4238(5) 0.2356(2)
H63_4 H 0.239611 0.455396 0.224780
C116_4 C 0.1491(6) 0.3388(6) 0.1106(2)
H64_4 H 0.132826 0.311471 0.098553
C117_4 C 0.1731(6) 0.3085(6) 0.2072(3)
H65_4 H 0.207820 0.316819 0.216284
C118_4 C 0.2978(5) 0.3916(5) 0.2274(2)
H66_4 H 0.317132 0.401014 0.210785
C119_4 C 0.0412(5) 0.3920(4) 0.18209(18)
C120_4 C 0.3393(5) 0.0338(6) 0.2207(3)
H67_4 H 0.336670 0.016186 0.238400
O58_4 O 0.2024(4) 0.2120(4) 0.2006(2)
C121_4 C 0.2445(5) 0.3668(5) 0.27620(18)
H68_4 H 0.228498 0.360012 0.293963
C122_4 C 0.4690(6) 0.2290(5) 0.2539(2)
H69_4 H 0.473171 0.268774 0.256383
C123_4 C 0.1630(6) 0.2577(5) 0.1985(3)
C124_4 C 0.4537(5) 0.1128(5) 0.2486(2)
H70_4 H 0.446883 0.073300 0.246906
C125_4 C 0.2992(7) 0.0757(7) 0.2133(3)
H71_4 H 0.269195 0.085758 0.225472
C126_4 C 0.3811(7) 0.1831(6) 0.0805(2)
H72_4 H 0.371291 0.171678 0.062246
C127_4 C 0.0727(7) 0.2885(7) 0.1793(3)
H73_4 H 0.039410 0.280798 0.168887
C128_4 C 0.3446(6) 0.0861(5) 0.1691(3)
H74_4 H 0.345632 0.103671 0.151386
C129_4 C 0.1110(8) 0.2444(8) 0.1849(3)
H75_4 H 0.102371 0.206447 0.179832
C89_4 C 0.6821(6) 0.9419(8) 0.5408(3)
C92_4 C 0.4286(4) 0.9776(4) 0.21174(15)
O52_4 O 0.6600(4) 0.9801(5) 0.5551(2)
O56_4 O 0.6541(5) 0.9185(5) 0.5199(2)
C130_4 C 0.7323(8) 0.9223(8) 0.5443(4)
H76_4 H 0.755620 0.950668 0.553820
H77_4 H 0.749138 0.913503 0.526238
H78_4 H 0.730539 0.887697 0.555548
C7_4 C 0.9419(8) 0.6821(6) 0.4592(3)
C10_4 C 0.9776(4) 0.4286(4) 0.78826(15)
O20_4 O 0.9801(5) 0.6600(4) 0.4449(2)
O26_4 O 0.9185(5) 0.6541(5) 0.4801(2)
C65_4 C 0.9223(8) 0.7323(8) 0.4557(4)
H36_4 H 0.950668 0.755620 0.446180
H37_4 H 0.913503 0.749138 0.473762
H38_4 H 0.887697 0.730539 0.444452
loop_
_geom_bond_atom_site_label_1
_geom_bond_atom_site_label_2
_geom_bond_site_symmetry_1
_geom_bond_site_symmetry_2
O30 C71 1_555 1_555
O31 C71 1_555 1_555
C89 O52 1_555 1_555
Sm6 O31 1_555 1_555
O51 Sm4 1_555 1_555
O52 Sm6 1_555 1_555
O56 C89 1_555 1_555
C130 C89 1_555 1_555
H76 C130 1_555 1_555
H77 C130 1_555 1_555
H78 C130 1_555 1_555
O60 Sm5 1_555 1_555
O64 Sm4 1_555 1_555
O65 Sm6 1_555 1_555
O69 Sm4 1_555 1_555
O71 Sm4 1_555 1_555
O72 Sm6 1_555 1_555
O76 Sm6 1_555 1_555
O77 Sm4 1_555 1_555
O79 Sm5 1_555 1_555
O81 Sm5 1_555 1_555
O84 Sm6 1_555 1_555
O86 Sm5 1_555 1_555
O30 Sm5 1_555 1_555
Sm5 O64 1_555 1_555
Sm5 O69 1_555 1_555
Sm6 O56 1_555 1_555
C5 H4 1_555 1_555
C6 O1 1_555 1_555
C8 H5 1_555 1_555
O1 P5 1_555 1_555
P2 O8 1_555 1_555
P3 O12 1_555 1_555
O2 C10 1_555 1_555
O3 C31 1_555 1_555
P5 N3 1_555 1_555
C10 C33 1_555 1_555
O8 C29 1_555 1_555
O9 C22 1_555 1_555
O10 C50 1_555 1_555
O12 C42 1_555 1_555
C14 O21 1_555 1_555
O13 C31 1_555 1_555
C16 H9 1_555 1_555
C19 H10 1_555 1_555
C21 C36 1_555 1_555
O17 P3 1_555 1_555
O18 C50 1_555 1_555
C22 O22 1_555 1_555
O21 P2 1_555 1_555
C23 C16 1_555 1_555
H11 C23 1_555 1_555
O22 Sm18 1_555 1_555
N3 P3 1_555 1_555
C25 C5 1_555 1_555
C27 H12 1_555 1_555
C31 C32 1_555 1_555
N4 P2 1_555 1_555
C32 C38 1_555 1_555
C33 C19 1_555 1_555
C36 H15 1_555 1_555
C38 C8 1_555 1_555
H17 C38 1_555 1_555
C40 C14 1_555 1_555
H18 C40 1_555 1_555
N5 P2 1_555 1_555
C42 C16 1_555 1_555
C43 C22 1_555 1_555
H20 C44 1_555 1_555
C45 C27 1_555 1_555
H21 C45 1_555 1_555
C46 C36 1_555 1_555
H22 C46 1_555 1_555
O27 C10 1_555 1_555
C49 C29 1_555 1_555
H24 C49 1_555 1_555
C50 C21 1_555 1_555
C53 C33 1_555 1_555
H26 C53 1_555 1_555
O29 P5 1_555 1_555
C58 C46 1_555 1_555
H30 C59 1_555 1_555
C60 C6 1_555 1_555
H31 C60 1_555 1_555
C61 C5 1_555 1_555
H32 C61 1_555 1_555
C62 C21 1_555 1_555
H33 C62 1_555 1_555
C63 C6 1_555 1_555
H34 C63 1_555 1_555
C64 C58 1_555 1_555
H35 C64 1_555 1_555
Sm12 O9 1_555 1_555
Sm18 O9 1_555 1_555
Sm20 O13 1_555 1_555
C8 C25 1_555 1_555
P3 N4 1_555 1_555
P5 N5 1_555 1_555
O10 Sm12 1_555 1_555
C19 C63 1_555 1_555
O17 C25 1_555 1_555
O18 Sm12 1_555 1_555
C23 C43 1_555 1_555
C27 C42 1_555 1_555
C32 C61 1_555 1_555
C40 C59 1_555 1_555
C43 C45 1_555 1_555
C44 C49 1_555 1_555
C53 C60 1_555 1_555
O29 C58 1_555 1_555
C62 C64 1_555 1_555
C1 C3 1_555 1_555
C2 H1 1_555 1_555
C3 H2 1_555 1_555
C4 C2 1_555 1_555
H3 C4 1_555 1_555
P1 N1 1_555 1_555
P4 N1 1_555 1_555
C9 C15 1_555 1_555
O5 C52 1_555 1_555
C11 H6 1_555 1_555
C12 C11 1_555 1_555
H7 C12 1_555 1_555
O6 C35 1_555 1_555
C13 O11 1_555 1_555
O7 C18 1_555 1_555
O15 C13 1_555 1_555
O16 P1 1_555 1_555
C17 C35 1_555 1_555
C18 C9 1_555 1_555
N2 P1 1_555 1_555
C24 C3 1_555 1_555
O23 P4 1_555 1_555
C28 H13 1_555 1_555
C30 C20 1_555 1_555
H14 C30 1_555 1_555
O24 P1 1_555 1_555
C34 C12 1_555 1_555
C35 O25 1_555 1_555
C37 H16 1_555 1_555
C39 O23 1_555 1_555
O25 Sm16 1_555 1_555
C41 C30 1_555 1_555
H19 C41 1_555 1_555
C47 C1 1_555 1_555
C48 H23 1_555 1_555
O28 C52 1_555 1_555
C51 C20 1_555 1_555
H25 C51 1_555 1_555
C52 C47 1_555 1_555
C54 C34 1_555 1_555
H27 C54 1_555 1_555
C55 C17 1_555 1_555
H28 C55 1_555 1_555
C56 C11 1_555 1_555
H29 C57 1_555 1_555
H39 C1 1_555 1_555
C66 C67 1_555 1_555
C67 H40 1_555 1_555
C68 H41 1_555 1_555
P6 N2 1_555 1_555
N6 P4 1_555 1_555
O32 P6 1_555 1_555
C70 C67 1_555 1_555
O33 P4 1_555 1_555
C72 H42 1_555 1_555
C73 C69 1_555 1_555
H43 C73 1_555 1_555
O34 P6 1_555 1_555
C74 O33 1_555 1_555
C75 C73 1_555 1_555
H44 C75 1_555 1_555
C76 C69 1_555 1_555
H45 C76 1_555 1_555
H46 C66 1_555 1_555
C77 H47 1_555 1_555
C78 C77 1_555 1_555
H48 C78 1_555 1_555
C79 O35 1_555 1_555
C80 C78 1_555 1_555
C81 H49 1_555 1_555
C82 C80 1_555 1_555
H50 C82 1_555 1_555
C83 O32 1_555 1_555
C84 C68 1_555 1_555
H51 C84 1_555 1_555
O37 C86 1_555 1_555
C85 C66 1_555 1_555
O38 C86 1_555 1_555
C86 C85 1_555 1_555
C87 H52 1_555 1_555
C88 O39 1_555 1_555
C90 H53 1_555 1_555
O39 P9 1_555 1_555
P7 O44 1_555 1_555
P8 O47 1_555 1_555
O40 C92 1_555 1_555
O41 C105 1_555 1_555
P9 N7 1_555 1_555
C91 C94 1_555 1_555
C92 C107 1_555 1_555
O42 C108 1_555 1_555
O44 C104 1_555 1_555
O45 C100 1_555 1_555
O46 C119 1_555 1_555
O47 C113 1_555 1_555
C93 O53 1_555 1_555
O48 C105 1_555 1_555
C95 H55 1_555 1_555
C96 C108 1_555 1_555
C97 C91 1_555 1_555
C98 H56 1_555 1_555
C99 C109 1_555 1_555
O49 P8 1_555 1_555
O50 C119 1_555 1_555
C100 O54 1_555 1_555
O53 P7 1_555 1_555
C101 C95 1_555 1_555
H57 C101 1_555 1_555
O54 Sm14 1_555 1_555
N7 P8 1_555 1_555
C102 C87 1_555 1_555
C103 H58 1_555 1_555
C104 C110 1_555 1_555
C105 C106 1_555 1_555
N8 P7 1_555 1_555
C106 C111 1_555 1_555
C107 C98 1_555 1_555
C108 O55 1_555 1_555
C109 H59 1_555 1_555
C110 H60 1_555 1_555
C111 C90 1_555 1_555
H61 C111 1_555 1_555
C112 C93 1_555 1_555
H62 C112 1_555 1_555
O55 Sm15 1_555 1_555
N9 P7 1_555 1_555
C113 C95 1_555 1_555
C114 C100 1_555 1_555
C115 C96 1_555 1_555
H63 C115 1_555 1_555
C116 C103 1_555 1_555
H64 C116 1_555 1_555
C117 C109 1_555 1_555
H65 C117 1_555 1_555
O57 C92 1_555 1_555
C118 C104 1_555 1_555
H66 C118 1_555 1_555
C119 C99 1_555 1_555
C120 C107 1_555 1_555
H67 C120 1_555 1_555
O58 P9 1_555 1_555
C121 C96 1_555 1_555
H68 C121 1_555 1_555
C122 C93 1_555 1_555
H69 C122 1_555 1_555
C123 C117 1_555 1_555
C124 C91 1_555 1_555
H70 C124 1_555 1_555
C125 C88 1_555 1_555
H71 C125 1_555 1_555
C126 C87 1_555 1_555
H72 C126 1_555 1_555
C127 C99 1_555 1_555
H73 C127 1_555 1_555
C128 C88 1_555 1_555
H74 C128 1_555 1_555
C129 C123 1_555 1_555
H75 C129 1_555 1_555
Sm8 O45 1_555 1_555
Sm9 O5 1_555 1_555
Sm10 O37 1_555 1_555
Sm14 O45 1_555 1_555
Sm15 O5 1_555 1_555
Sm16 O37 1_555 1_555
Sm19 O7 1_555 1_555
Sm23 O43 1_555 1_555
Sm24 O48 1_555 1_555
C2 C47 1_555 1_555
C4 C24 1_555 1_555
C13 C34 1_555 1_555
O16 C56 1_555 1_555
C15 C57 1_555 1_555
C24 O24 1_555 1_555
C28 C39 1_555 1_555
C28 C51 1_555 1_555
C37 C55 1_555 1_555
C39 C41 1_555 1_555
C48 C54 1_555 1_555
C48 C56 1_555 1_555
O28 Sm15 1_555 1_555
C68 C70 1_555 1_555
P6 N6 1_555 1_555
C70 O34 1_555 1_555
C72 C74 1_555 1_555
C72 C76 1_555 1_555
C74 C75 1_555 1_555
C77 C83 1_555 1_555
C79 O36 1_555 1_555
C79 C80 1_555 1_555
C81 C82 1_555 1_555
C81 C83 1_555 1_555
C84 C85 1_555 1_555
O38 Sm16 1_555 1_555
C90 C102 1_555 1_555
P8 N8 1_555 1_555
P9 N9 1_555 1_555
O43 C97 1_555 1_555
O46 Sm8 1_555 1_555
C94 C122 1_555 1_555
C98 C128 1_555 1_555
O49 C102 1_555 1_555
O50 Sm8 1_555 1_555
C101 C114 1_555 1_555
C103 C113 1_555 1_555
C106 C126 1_555 1_555
C110 C121 1_555 1_555
C112 C124 1_555 1_555
C114 C116 1_555 1_555
C115 C118 1_555 1_555
O57 Sm23 1_555 1_555
C120 C125 1_555 1_555
O58 C123 1_555 1_555
C127 C129 1_555 1_555
Sm9 O67 1_555 1_555
Sm10 O68 1_555 1_555
C7 O20 1_555 1_555
Sm2 O4 1_555 1_555
Sm3 O14 1_555 1_555
O4 C26 1_555 1_555
O14 C26 1_555 1_555
O19 Sm1 1_555 1_555
O20 Sm3 1_555 1_555
O26 C7 1_555 1_555
C65 C7 1_555 1_555
H36 C65 1_555 1_555
H37 C65 1_555 1_555
H38 C65 1_555 1_555
O59 Sm2 1_555 1_555
O63 Sm1 1_555 1_555
O66 Sm3 1_555 1_555
O70 Sm1 1_555 1_555
O73 Sm3 1_555 1_555
O74 Sm1 1_555 1_555
O75 Sm3 1_555 1_555
O78 Sm1 1_555 1_555
O80 Sm2 1_555 1_555
O82 Sm2 1_555 1_555
O83 Sm3 1_555 1_555
O85 Sm2 1_555 1_555
Sm2 O63 1_555 1_555
Sm2 O70 1_555 1_555
Sm3 O26 1_555 1_555
O2_2 C10_2 1_555 1_555
O27_2 C10_2 1_555 1_555
Sm14 O2_2 1_555 1_555
O27_2 Sm20 1_555 1_555
Sm20 O74_2 1_555 1_555
C7_2 O20_2 1_555 1_555
O20_2 Sm19 1_555 1_555
O26_2 C7_2 1_555 1_555
C65_2 C7_2 1_555 1_555
H36_2 C65_2 1_555 1_555
H37_2 C65_2 1_555 1_555
H38_2 C65_2 1_555 1_555
O75_2 Sm19 1_555 1_555
Sm19 O26_2 1_555 1_555
O50_2 Sm9 1_555 1_555
C89_2 O52_2 1_555 1_555
O52_2 Sm22 1_555 1_555
O56_2 C89_2 1_555 1_555
C130_2 C89_2 1_555 1_555
H76_2 C130_2 1_555 1_555
H77_2 C130_2 1_555 1_555
H78_2 C130_2 1_555 1_555
O68_2 Sm22 1_555 1_555
O76_2 Sm22 1_555 1_555
O18_2 Sm11 1_555 1_555
Sm22 O56_2 1_555 1_555
O60 C92_2 1_555 1_555
O84 C92_2 1_555 1_555
C5_2 H4_2 1_555 1_555
C6_2 O1_2 1_555 1_555
C8_2 H5_2 1_555 1_555
O1_2 P5_2 1_555 1_555
Sm7 O7_2 1_555 1_555
Sm13 O4_2 1_555 1_555
P2_2 O8_2 1_555 1_555
P3_2 O12_2 1_555 1_555
O3_2 C31_2 1_555 1_555
P5_2 N3_2 1_555 1_555
C9_2 C15_2 1_555 1_555
O4_2 C26_2 1_555 1_555
O6_2 C35_2 1_555 1_555
O7_2 C18_2 1_555 1_555
O8_2 C29_2 1_555 1_555
O9_2 C22_2 1_555 1_555
O10_2 C50_2 1_555 1_555
O12_2 C42_2 1_555 1_555
C14_2 O21_2 1_555 1_555
O13_2 C31_2 1_555 1_555
C15_2 H8_2 1_555 1_555
C16_2 H9_2 1_555 1_555
C17_2 C35_2 1_555 1_555
C18_2 C9_2 1_555 1_555
C19_2 H10_2 1_555 1_555
C20_2 C26_2 1_555 1_555
C21_2 C36_2 1_555 1_555
O17_2 P3_2 1_555 1_555
C22_2 O22_2 1_555 1_555
O19_2 Sm7 1_555 1_555
O21_2 P2_2 1_555 1_555
C23_2 C16_2 1_555 1_555
H11_2 C23_2 1_555 1_555
N3_2 P3_2 1_555 1_555
C25_2 C5_2 1_555 1_555
C27_2 H12_2 1_555 1_555
C28_2 H13_2 1_555 1_555
C29_2 C37_2 1_555 1_555
C31_2 C32_2 1_555 1_555
N4_2 P2_2 1_555 1_555
C32_2 C38_2 1_555 1_555
C33_2 C19_2 1_555 1_555
C35_2 O25_2 1_555 1_555
C36_2 H15_2 1_555 1_555
C37_2 H16_2 1_555 1_555
C38_2 C8_2 1_555 1_555
H17_2 C38_2 1_555 1_555
C40_2 C14_2 1_555 1_555
H18_2 C40_2 1_555 1_555
O25_2 Sm18 1_555 1_555
N5_2 P2_2 1_555 1_555
C42_2 C16_2 1_555 1_555
C43_2 C22_2 1_555 1_555
C44_2 C17_2 1_555 1_555
H20_2 C44_2 1_555 1_555
C45_2 C27_2 1_555 1_555
H21_2 C45_2 1_555 1_555
C46_2 C36_2 1_555 1_555
H22_2 C46_2 1_555 1_555
C49_2 C29_2 1_555 1_555
H24_2 C49_2 1_555 1_555
C50_2 C21_2 1_555 1_555
C51_2 C20_2 1_555 1_555
H25_2 C51_2 1_555 1_555
C53_2 C33_2 1_555 1_555
H26_2 C53_2 1_555 1_555
O29_2 P5_2 1_555 1_555
C55_2 C17_2 1_555 1_555
H28_2 C55_2 1_555 1_555
C57_2 C14_2 1_555 1_555
H29_2 C57_2 1_555 1_555
C58_2 C46_2 1_555 1_555
C59_2 C9_2 1_555 1_555
H30_2 C59_2 1_555 1_555
C60_2 C6_2 1_555 1_555
H31_2 C60_2 1_555 1_555
C61_2 C5_2 1_555 1_555
H32_2 C61_2 1_555 1_555
C62_2 C21_2 1_555 1_555
H33_2 C62_2 1_555 1_555
C63_2 C6_2 1_555 1_555
H34_2 C63_2 1_555 1_555
C64_2 C58_2 1_555 1_555
H35_2 C64_2 1_555 1_555
C66_2 C67_2 1_555 1_555
C67_2 H40_2 1_555 1_555
C68_2 H41_2 1_555 1_555
P6_2 N2_2 1_555 1_555
N6_2 P4_2 1_555 1_555
O32_2 P6_2 1_555 1_555
C70_2 C67_2 1_555 1_555
O33_2 P4_2 1_555 1_555
H43_2 C73_2 1_555 1_555
O34_2 P6_2 1_555 1_555
C74_2 O33_2 1_555 1_555
C75_2 C73_2 1_555 1_555
H44_2 C75_2 1_555 1_555
H46_2 C66_2 1_555 1_555
C77_2 H47_2 1_555 1_555
C78_2 C77_2 1_555 1_555
H48_2 C78_2 1_555 1_555
C79_2 O35_2 1_555 1_555
O35_2 Sm7 1_555 1_555
O36_2 Sm7 1_555 1_555
C80_2 C78_2 1_555 1_555
C81_2 H49_2 1_555 1_555
C82_2 C80_2 1_555 1_555
H50_2 C82_2 1_555 1_555
C83_2 O32_2 1_555 1_555
C84_2 C68_2 1_555 1_555
H51_2 C84_2 1_555 1_555
O37_2 C86_2 1_555 1_555
C85_2 C66_2 1_555 1_555
O38_2 C86_2 1_555 1_555
C86_2 C85_2 1_555 1_555
Sm12 O37_2 1_555 1_555
Sm18 O37_2 1_555 1_555
Sm21 O13_2 1_555 1_555
Sm24 O6_2 1_555 1_555
O63_2 Sm7 1_555 1_555
O78_2 Sm7 1_555 1_555
O82_2 Sm13 1_555 1_555
O85_2 Sm13 1_555 1_555
C8_2 C25_2 1_555 1_555
Sm13 O36_2 1_555 1_555
Sm13 O63_2 1_555 1_555
P3_2 N4_2 1_555 1_555
P5_2 N5_2 1_555 1_555
O10_2 Sm24 1_555 1_555
C15_2 C57_2 1_555 1_555
C18_2 O19_2 1_555 1_555
C19_2 C63_2 1_555 1_555
O17_2 C25_2 1_555 1_555
C23_2 C43_2 1_555 1_555
C27_2 C42_2 1_555 1_555
C28_2 C51_2 1_555 1_555
C32_2 C61_2 1_555 1_555
C37_2 C55_2 1_555 1_555
C40_2 C59_2 1_555 1_555
C43_2 C45_2 1_555 1_555
C44_2 C49_2 1_555 1_555
C53_2 C60_2 1_555 1_555
O29_2 C58_2 1_555 1_555
C62_2 C64_2 1_555 1_555
C68_2 C70_2 1_555 1_555
P6_2 N6_2 1_555 1_555
C70_2 O34_2 1_555 1_555
C74_2 C75_2 1_555 1_555
C77_2 C83_2 1_555 1_555
C79_2 O36_2 1_555 1_555
C79_2 C80_2 1_555 1_555
C81_2 C82_2 1_555 1_555
C81_2 C83_2 1_555 1_555
C84_2 C85_2 1_555 1_555
O38_2 Sm18 1_555 1_555
C1_2 C3_2 1_555 1_555
C2_2 H1_2 1_555 1_555
C3_2 H2_2 1_555 1_555
C4_2 C2_2 1_555 1_555
H3_2 C4_2 1_555 1_555
P1_2 N1_2 1_555 1_555
P4_3 N1_2 1_555 1_555
O63 C52_2 1_555 1_555
C11_2 H6_2 1_555 1_555
C12_2 C11_2 1_555 1_555
H7_2 C12_2 1_555 1_555
C13_2 O11_2 1_555 1_555
O11_2 Sm10 1_555 1_555
O15_2 C13_2 1_555 1_555
O16_2 P1_2 1_555 1_555
N2_3 P1_2 1_555 1_555
C24_2 C3_2 1_555 1_555
O23_2 P4_3 1_555 1_555
H14_2 C30_2 1_555 1_555
O24_2 P1_2 1_555 1_555
C34_2 C12_2 1_555 1_555
C39_2 O23_2 1_555 1_555
C41_2 C30_2 1_555 1_555
H19_2 C41_2 1_555 1_555
C47_2 C1_2 1_555 1_555
C48_2 H23_2 1_555 1_555
O85 C52_2 1_555 1_555
C52_2 C47_2 1_555 1_555
C54_2 C34_2 1_555 1_555
H27_2 C54_2 1_555 1_555
C56_2 C11_2 1_555 1_555
H39_2 C1_2 1_555 1_555
O30_2 C71_2 1_555 1_555
C69_2 C71_2 1_555 1_555
C72_2 H42_2 1_555 1_555
C76_2 C69_2 1_555 1_555
H45_2 C76_2 1_555 1_555
C87_2 H52_2 1_555 1_555
C88_2 O39_2 1_555 1_555
C90_2 H53_2 1_555 1_555
O39_2 P9_2 1_555 1_555
Sm10 O15_2 1_555 1_555
Sm16 O15_2 1_555 1_555
P7_2 O44_2 1_555 1_555
P8_2 O47_2 1_555 1_555
O62 C105_2 1_555 1_555
P9_2 N7_2 1_555 1_555
C91_2 C94_2 1_555 1_555
O66 C108_2 1_555 1_555
O44_2 C104_2 1_555 1_555
O45_2 C100_2 1_555 1_555
O73 C119_2 1_555 1_555
O47_2 C113_2 1_555 1_555
C93_2 O53_2 1_555 1_555
O48_2 C105_2 1_555 1_555
C94_2 H54_2 1_555 1_555
C95_2 H55_2 1_555 1_555
C96_2 C108_2 1_555 1_555
C97_2 C91_2 1_555 1_555
C98_2 H56_2 1_555 1_555
C99_2 C109_2 1_555 1_555
O49_2 P8_2 1_555 1_555
C100_2 O54_2 1_555 1_555
O51_2 Sm10 1_555 1_555
O53_2 P7_2 1_555 1_555
C101_2 C95_2 1_555 1_555
H57_2 C101_2 1_555 1_555
N7_2 P8_2 1_555 1_555
C102_2 C87_2 1_555 1_555
C103_2 H58_2 1_555 1_555
C104_2 C110_2 1_555 1_555
C105_2 C106_2 1_555 1_555
N8_2 P7_2 1_555 1_555
C106_2 C111_2 1_555 1_555
C107_2 C98_2 1_555 1_555
C108_2 O82 1_555 1_555
C109_2 H59_2 1_555 1_555
C110_2 H60_2 1_555 1_555
C111_2 C90_2 1_555 1_555
H61_2 C111_2 1_555 1_555
C112_2 C93_2 1_555 1_555
H62_2 C112_2 1_555 1_555
N9_2 P7_2 1_555 1_555
C113_2 C95_2 1_555 1_555
C114_2 C100_2 1_555 1_555
C115_2 C96_2 1_555 1_555
H63_2 C115_2 1_555 1_555
C116_2 C103_2 1_555 1_555
H64_2 C116_2 1_555 1_555
C117_2 C109_2 1_555 1_555
H65_2 C117_2 1_555 1_555
C118_2 C104_2 1_555 1_555
H66_2 C118_2 1_555 1_555
C119_2 C99_2 1_555 1_555
C120_2 C107_2 1_555 1_555
H67_2 C120_2 1_555 1_555
O58_2 P9_2 1_555 1_555
C121_2 C96_2 1_555 1_555
H68_2 C121_2 1_555 1_555
C122_2 C93_2 1_555 1_555
H69_2 C122_2 1_555 1_555
C123_2 C117_2 1_555 1_555
C124_2 C91_2 1_555 1_555
H70_2 C124_2 1_555 1_555
C125_2 C88_2 1_555 1_555
H71_2 C125_2 1_555 1_555
C126_2 C87_2 1_555 1_555
H72_2 C126_2 1_555 1_555
C127_2 C99_2 1_555 1_555
H73_2 C127_2 1_555 1_555
C128_2 C88_2 1_555 1_555
H74_2 C128_2 1_555 1_555
C129_2 C123_2 1_555 1_555
H75_2 C129_2 1_555 1_555
Sm23 O48_2 1_555 1_555
O77_2 Sm10 1_555 1_555
C2_2 C47_2 1_555 1_555
C4_2 C24_2 1_555 1_555
C13_2 C34_2 1_555 1_555
O16_2 C56_2 1_555 1_555
C24_2 O24_2 1_555 1_555
C39_2 C41_2 1_555 1_555
C48_2 C54_2 1_555 1_555
C48_2 C56_2 1_555 1_555
O30_2 Sm16 1_555 1_555
C72_2 C76_2 1_555 1_555
C90_2 C102_2 1_555 1_555
P8_2 N8_2 1_555 1_555
P9_2 N9_2 1_555 1_555
O68 C97_2 1_555 1_555
C94_2 C122_2 1_555 1_555
C97_2 O51_2 1_555 1_555
C98_2 C128_2 1_555 1_555
O49_2 C102_2 1_555 1_555
C101_2 C114_2 1_555 1_555
C103_2 C113_2 1_555 1_555
C106_2 C126_2 1_555 1_555
C110_2 C121_2 1_555 1_555
C112_2 C124_2 1_555 1_555
C114_2 C116_2 1_555 1_555
C115_2 C118_2 1_555 1_555
C120_2 C125_2 1_555 1_555
O58_2 C123_2 1_555 1_555
C127_2 C129_2 1_555 1_555
C7_3 O20_3 1_555 1_555
Sm14 O4_3 1_555 1_555
Sm20 O14_3 1_555 1_555
O4_3 C26_3 1_555 1_555
O14_3 C26_3 1_555 1_555
O19_3 Sm8 1_555 1_555
O20_3 Sm20 1_555 1_555
O26_3 C7_3 1_555 1_555
C65_3 C7_3 1_555 1_555
H36_3 C65_3 1_555 1_555
H37_3 C65_3 1_555 1_555
H38_3 C65_3 1_555 1_555
O63_3 Sm8 1_555 1_555
O66_3 Sm20 1_555 1_555
O82_3 Sm14 1_555 1_555
O85_3 Sm14 1_555 1_555
Sm14 O63_3 1_555 1_555
Sm20 O26_3 1_555 1_555
C1_3 C3_3 1_555 1_555
C2_3 H1_3 1_555 1_555
C3_3 H2_3 1_555 1_555
C4_3 C2_3 1_555 1_555
H3_3 C4_3 1_555 1_555
C5_3 H4_3 1_555 1_555
C6_3 O1_3 1_555 1_555
C8_3 H5_3 1_555 1_555
O1_3 P5_3 1_555 1_555
P1_3 N1_3 1_555 1_555
P2_3 O8_3 1_555 1_555
P3_3 O12_3 1_555 1_555
P4_4 N1_3 1_555 1_555
O2_3 C10_3 1_555 1_555
O3_3 C31_3 1_555 1_555
P5_3 N3_3 1_555 1_555
C9_3 C15_3 1_555 1_555
O63_2 C52_3 1_555 1_555
C10_3 C33_3 1_555 1_555
C11_3 H6_3 1_555 1_555
C12_3 C11_3 1_555 1_555
H7_3 C12_3 1_555 1_555
O6_3 C35_3 1_555 1_555
C13_3 O11_3 1_555 1_555
O7_3 C18_3 1_555 1_555
O8_3 C29_3 1_555 1_555
O69 C22_3 1_555 1_555
O71 C50_3 1_555 1_555
O12_3 C42_3 1_555 1_555
C14_3 O21_3 1_555 1_555
O75 C31_3 1_555 1_555
O15_3 C13_3 1_555 1_555
O16_3 P1_3 1_555 1_555
C16_3 H9_3 1_555 1_555
C17_3 C35_3 1_555 1_555
C18_3 C9_3 1_555 1_555
N2_4 P1_3 1_555 1_555
C19_3 H10_3 1_555 1_555
C21_3 C36_3 1_555 1_555
O17_3 P3_3 1_555 1_555
O77 C50_3 1_555 1_555
C22_3 O79 1_555 1_555
O21_3 P2_3 1_555 1_555
C23_3 C16_3 1_555 1_555
H11_3 C23_3 1_555 1_555
C24_3 C3_3 1_555 1_555
N3_3 P3_3 1_555 1_555
O23_3 P4_4 1_555 1_555
C25_3 C5_3 1_555 1_555
C27_3 H12_3 1_555 1_555
C28_3 H13_3 1_555 1_555
C29_3 C37_3 1_555 1_555
C30_3 C20_3 1_555 1_555
H14_3 C30_3 1_555 1_555
O24_3 P1_3 1_555 1_555
C31_3 C32_3 1_555 1_555
N4_3 P2_3 1_555 1_555
C32_3 C38_3 1_555 1_555
C33_3 C19_3 1_555 1_555
C34_3 C12_3 1_555 1_555
C35_3 O25_3 1_555 1_555
C36_3 H15_3 1_555 1_555
C37_3 H16_3 1_555 1_555
C38_3 C8_3 1_555 1_555
H17_3 C38_3 1_555 1_555
C39_3 O23_3 1_555 1_555
C40_3 C14_3 1_555 1_555
H18_3 C40_3 1_555 1_555
O25_3 Sm17 1_555 1_555
C41_3 C30_3 1_555 1_555
H19_3 C41_3 1_555 1_555
N5_3 P2_3 1_555 1_555
C42_3 C16_3 1_555 1_555
C43_3 C22_3 1_555 1_555
C44_3 C17_3 1_555 1_555
H20_3 C44_3 1_555 1_555
C45_3 C27_3 1_555 1_555
H21_3 C45_3 1_555 1_555
C46_3 C36_3 1_555 1_555
H22_3 C46_3 1_555 1_555
C47_3 C1_3 1_555 1_555
C48_3 H23_3 1_555 1_555
O27_3 C10_3 1_555 1_555
O85_2 C52_3 1_555 1_555
C49_3 C29_3 1_555 1_555
H24_3 C49_3 1_555 1_555
C50_3 C21_3 1_555 1_555
C51_3 C20_3 1_555 1_555
H25_3 C51_3 1_555 1_555
C52_3 C47_3 1_555 1_555
C53_3 C33_3 1_555 1_555
H26_3 C53_3 1_555 1_555
O29_3 P5_3 1_555 1_555
C54_3 C34_3 1_555 1_555
H27_3 C54_3 1_555 1_555
C55_3 C17_3 1_555 1_555
H28_3 C55_3 1_555 1_555
C56_3 C11_3 1_555 1_555
C57_3 C14_3 1_555 1_555
H29_3 C57_3 1_555 1_555
C58_3 C46_3 1_555 1_555
C59_3 C9_3 1_555 1_555
H30_3 C59_3 1_555 1_555
C60_3 C6_3 1_555 1_555
H31_3 C60_3 1_555 1_555
C61_3 C5_3 1_555 1_555
H32_3 C61_3 1_555 1_555
C62_3 C21_3 1_555 1_555
H33_3 C62_3 1_555 1_555
C63_3 C6_3 1_555 1_555
H34_3 C63_3 1_555 1_555
C64_3 C58_3 1_555 1_555
H35_3 C64_3 1_555 1_555
H39_3 C1_3 1_555 1_555
C66_3 C67_3 1_555 1_555
C67_3 H40_3 1_555 1_555
C68_3 H41_3 1_555 1_555
P6_3 N2_4 1_555 1_555
N6_3 P4_4 1_555 1_555
O32_3 P6_3 1_555 1_555
C70_3 C67_3 1_555 1_555
O33_3 P4_4 1_555 1_555
C72_3 H42_3 1_555 1_555
C73_3 C69_3 1_555 1_555
H43_3 C73_3 1_555 1_555
O34_3 P6_3 1_555 1_555
C74_3 O33_3 1_555 1_555
C75_3 C73_3 1_555 1_555
H44_3 C75_3 1_555 1_555
C76_3 C69_3 1_555 1_555
H45_3 C76_3 1_555 1_555
H46_3 C66_3 1_555 1_555
C77_3 H47_3 1_555 1_555
C78_3 C77_3 1_555 1_555
H48_3 C78_3 1_555 1_555
C79_3 O35_3 1_555 1_555
C80_3 C78_3 1_555 1_555
C81_3 H49_3 1_555 1_555
C82_3 C80_3 1_555 1_555
H50_3 C82_3 1_555 1_555
C83_3 O32_3 1_555 1_555
C84_3 C68_3 1_555 1_555
H51_3 C84_3 1_555 1_555
O37_3 C86_3 1_555 1_555
C85_3 C66_3 1_555 1_555
O38_3 C86_3 1_555 1_555
C86_3 C85_3 1_555 1_555
C91_3 C94_3 1_555 1_555
O66_2 C108_3 1_555 1_555
C96_3 C108_3 1_555 1_555
C97_3 C91_3 1_555 1_555
C108_3 O82_2 1_555 1_555
C110_3 H60_3 1_555 1_555
C121_3 C96_3 1_555 1_555
H68_3 C121_3 1_555 1_555
H69_3 C122_3 1_555 1_555
Sm11 O37_3 1_555 1_555
Sm17 O37_3 1_555 1_555
Sm21 O7_3 1_555 1_555
C2_3 C47_3 1_555 1_555
C4_3 C24_3 1_555 1_555
C8_3 C25_3 1_555 1_555
P3_3 N4_3 1_555 1_555
P5_3 N5_3 1_555 1_555
C13_3 C34_3 1_555 1_555
O16_3 C56_3 1_555 1_555
C15_3 C57_3 1_555 1_555
C19_3 C63_3 1_555 1_555
O17_3 C25_3 1_555 1_555
C23_3 C43_3 1_555 1_555
C24_3 O24_3 1_555 1_555
C27_3 C42_3 1_555 1_555
C28_3 C39_3 1_555 1_555
C28_3 C51_3 1_555 1_555
C32_3 C61_3 1_555 1_555
C37_3 C55_3 1_555 1_555
C39_3 C41_3 1_555 1_555
C40_3 C59_3 1_555 1_555
C43_3 C45_3 1_555 1_555
C44_3 C49_3 1_555 1_555
C48_3 C54_3 1_555 1_555
C48_3 C56_3 1_555 1_555
O27_3 Sm21 1_555 1_555
C53_3 C60_3 1_555 1_555
O29_3 C58_3 1_555 1_555
C62_3 C64_3 1_555 1_555
C68_3 C70_3 1_555 1_555
P6_3 N6_3 1_555 1_555
C70_3 O34_3 1_555 1_555
C72_3 C74_3 1_555 1_555
C72_3 C76_3 1_555 1_555
C74_3 C75_3 1_555 1_555
C77_3 C83_3 1_555 1_555
C79_3 O36_3 1_555 1_555
C79_3 C80_3 1_555 1_555
C81_3 C82_3 1_555 1_555
C81_3 C83_3 1_555 1_555
C84_3 C85_3 1_555 1_555
O38_3 Sm17 1_555 1_555
O68_2 C97_3 1_555 1_555
C94_3 C122_3 1_555 1_555
C110_3 C121_3 1_555 1_555
Sm11 O68_3 1_555 1_555
C87_3 H52_3 1_555 1_555
C88_3 O39_3 1_555 1_555
C90_3 H53_3 1_555 1_555
O39_3 P9_3 1_555 1_555
P7_3 O44_3 1_555 1_555
P8_3 O47_3 1_555 1_555
O60_2 C92_3 1_555 1_555
O62_2 C105_3 1_555 1_555
P9_3 N7_3 1_555 1_555
C92_3 C107_3 1_555 1_555
O44_3 C104_3 1_555 1_555
O70 C100_3 1_555 1_555
O74 C119_3 1_555 1_555
O47_3 C113_3 1_555 1_555
C93_3 O53_3 1_555 1_555
O76 C105_3 1_555 1_555
C95_3 H55_3 1_555 1_555
C98_3 H56_3 1_555 1_555
C99_3 C109_3 1_555 1_555
O49_3 P8_3 1_555 1_555
O78 C119_3 1_555 1_555
C100_3 O80 1_555 1_555
O53_3 P7_3 1_555 1_555
C101_3 C95_3 1_555 1_555
H57_3 C101_3 1_555 1_555
N7_3 P8_3 1_555 1_555
C102_3 C87_3 1_555 1_555
C103_3 H58_3 1_555 1_555
C105_3 C106_3 1_555 1_555
N8_3 P7_3 1_555 1_555
C106_3 C111_3 1_555 1_555
C107_3 C98_3 1_555 1_555
C109_3 H59_3 1_555 1_555
C111_3 C90_3 1_555 1_555
H61_3 C111_3 1_555 1_555
C112_3 C93_3 1_555 1_555
H62_3 C112_3 1_555 1_555
N9_3 P7_3 1_555 1_555
C113_3 C95_3 1_555 1_555
C114_3 C100_3 1_555 1_555
H63_3 C115_3 1_555 1_555
C116_3 C103_3 1_555 1_555
H64_3 C116_3 1_555 1_555
C117_3 C109_3 1_555 1_555
H65_3 C117_3 1_555 1_555
O84_2 C92_3 1_555 1_555
C118_3 C104_3 1_555 1_555
H66_3 C118_3 1_555 1_555
C119_3 C99_3 1_555 1_555
C120_3 C107_3 1_555 1_555
H67_3 C120_3 1_555 1_555
O58_3 P9_3 1_555 1_555
C123_3 C117_3 1_555 1_555
H70_3 C124_3 1_555 1_555
C125_3 C88_3 1_555 1_555
H71_3 C125_3 1_555 1_555
C126_3 C87_3 1_555 1_555
H72_3 C126_3 1_555 1_555
C127_3 C99_3 1_555 1_555
H73_3 C127_3 1_555 1_555
C128_3 C88_3 1_555 1_555
H74_3 C128_3 1_555 1_555
C129_3 C123_3 1_555 1_555
H75_3 C129_3 1_555 1_555
C90_3 C102_3 1_555 1_555
P8_3 N8_3 1_555 1_555
P9_3 N9_3 1_555 1_555
C98_3 C128_3 1_555 1_555
O49_3 C102_3 1_555 1_555
C101_3 C114_3 1_555 1_555
C103_3 C113_3 1_555 1_555
C106_3 C126_3 1_555 1_555
C112_3 C124_3 1_555 1_555
C114_3 C116_3 1_555 1_555
C115_3 C118_3 1_555 1_555
C120_3 C125_3 1_555 1_555
O58_3 C123_3 1_555 1_555
C127_3 C129_3 1_555 1_555
O30_3 C71_3 1_555 1_555
O31_3 C71_3 1_555 1_555
C89_3 O52_3 1_555 1_555
Sm24 O31_3 1_555 1_555
O51_3 Sm12 1_555 1_555
O52_3 Sm24 1_555 1_555
O56_3 C89_3 1_555 1_555
C130_3 C89_3 1_555 1_555
H76_3 C130_3 1_555 1_555
H77_3 C130_3 1_555 1_555
H78_3 C130_3 1_555 1_555
O60_3 Sm18 1_555 1_555
O84_3 Sm24 1_555 1_555
O30_3 Sm18 1_555 1_555
Sm24 O56_3 1_555 1_555
C1_4 C3_4 1_555 1_555
C2_4 H1_4 1_555 1_555
C3_4 H2_4 1_555 1_555
C4_4 C2_4 1_555 1_555
H3_4 C4_4 1_555 1_555
C5_4 H4_4 1_555 1_555
C6_4 O1_4 1_555 1_555
C8_4 H5_4 1_555 1_555
O1_4 P5_4 1_555 1_555
Sm15 O4_4 1_555 1_555
P1_4 N1_4 1_555 1_555
P2_4 O8_4 1_555 1_555
P3_4 O12_4 1_555 1_555
P4_5 N1_4 1_555 1_555
O61 C31_4 1_555 1_555
P5_4 N3_4 1_555 1_555
C9_4 C15_4 1_555 1_555
O4_4 C26_4 1_555 1_555
O63_3 C52_4 1_555 1_555
C11_4 H6_4 1_555 1_555
C12_4 C11_4 1_555 1_555
H7_4 C12_4 1_555 1_555
O65 C35_4 1_555 1_555
C13_4 O11_4 1_555 1_555
O67 C18_4 1_555 1_555
O8_4 C29_4 1_555 1_555
O69_2 C22_4 1_555 1_555
O72 C50_4 1_555 1_555
O11_4 Sm11 1_555 1_555
O12_4 C42_4 1_555 1_555
C14_4 O21_4 1_555 1_555
O75_2 C31_4 1_555 1_555
O14_4 C26_4 1_555 1_555
O15_4 C13_4 1_555 1_555
O16_4 P1_4 1_555 1_555
C15_4 H8_4 1_555 1_555
C16_4 H9_4 1_555 1_555
C17_4 C35_4 1_555 1_555
C18_4 C9_4 1_555 1_555
N2_5 P1_4 1_555 1_555
C19_4 H10_4 1_555 1_555
C20_4 C26_4 1_555 1_555
C21_4 C36_4 1_555 1_555
O17_4 P3_4 1_555 1_555
C22_4 O79_2 1_555 1_555
O19_4 Sm9 1_555 1_555
O21_4 P2_4 1_555 1_555
C23_4 C16_4 1_555 1_555
H11_4 C23_4 1_555 1_555
C24_4 C3_4 1_555 1_555
N3_4 P3_4 1_555 1_555
O23_4 P4_5 1_555 1_555
C25_4 C5_4 1_555 1_555
C27_4 H12_4 1_555 1_555
C28_4 H13_4 1_555 1_555
C29_4 C37_4 1_555 1_555
C30_4 C20_4 1_555 1_555
H14_4 C30_4 1_555 1_555
O24_4 P1_4 1_555 1_555
C31_4 C32_4 1_555 1_555
N4_4 P2_4 1_555 1_555
C32_4 C38_4 1_555 1_555
C33_4 C19_4 1_555 1_555
C34_4 C12_4 1_555 1_555
C35_4 O81 1_555 1_555
C36_4 H15_4 1_555 1_555
C37_4 H16_4 1_555 1_555
C38_4 C8_4 1_555 1_555
H17_4 C38_4 1_555 1_555
C39_4 O23_4 1_555 1_555
C40_4 C14_4 1_555 1_555
H18_4 C40_4 1_555 1_555
C41_4 C30_4 1_555 1_555
H19_4 C41_4 1_555 1_555
N5_4 P2_4 1_555 1_555
C42_4 C16_4 1_555 1_555
C43_4 C22_4 1_555 1_555
C44_4 C17_4 1_555 1_555
H20_4 C44_4 1_555 1_555
C45_4 C27_4 1_555 1_555
H21_4 C45_4 1_555 1_555
C46_4 C36_4 1_555 1_555
H22_4 C46_4 1_555 1_555
C47_4 C1_4 1_555 1_555
C48_4 H23_4 1_555 1_555
O85_3 C52_4 1_555 1_555
C49_4 C29_4 1_555 1_555
H24_4 C49_4 1_555 1_555
C50_4 C21_4 1_555 1_555
C51_4 C20_4 1_555 1_555
H25_4 C51_4 1_555 1_555
C52_4 C47_4 1_555 1_555
C53_4 C33_4 1_555 1_555
H26_4 C53_4 1_555 1_555
O29_4 P5_4 1_555 1_555
C54_4 C34_4 1_555 1_555
H27_4 C54_4 1_555 1_555
C55_4 C17_4 1_555 1_555
H28_4 C55_4 1_555 1_555
C56_4 C11_4 1_555 1_555
C57_4 C14_4 1_555 1_555
H29_4 C57_4 1_555 1_555
C58_4 C46_4 1_555 1_555
C59_4 C9_4 1_555 1_555
H30_4 C59_4 1_555 1_555
C60_4 C6_4 1_555 1_555
H31_4 C60_4 1_555 1_555
C61_4 C5_4 1_555 1_555
H32_4 C61_4 1_555 1_555
C62_4 C21_4 1_555 1_555
H33_4 C62_4 1_555 1_555
C63_4 C6_4 1_555 1_555
H34_4 C63_4 1_555 1_555
C64_4 C58_4 1_555 1_555
H35_4 C64_4 1_555 1_555
H39_4 C1_4 1_555 1_555
C66_4 C67_4 1_555 1_555
C67_4 H40_4 1_555 1_555
C68_4 H41_4 1_555 1_555
P6_4 N2_5 1_555 1_555
O30_4 C71_4 1_555 1_555
N6_4 P4_5 1_555 1_555
O31_4 C71_4 1_555 1_555
O32_4 P6_4 1_555 1_555
C69_4 C71_4 1_555 1_555
C70_4 C67_4 1_555 1_555
O33_4 P4_5 1_555 1_555
C72_4 H42_4 1_555 1_555
C73_4 C69_4 1_555 1_555
H43_4 C73_4 1_555 1_555
O34_4 P6_4 1_555 1_555
C74_4 O33_4 1_555 1_555
C75_4 C73_4 1_555 1_555
H44_4 C75_4 1_555 1_555
C76_4 C69_4 1_555 1_555
H45_4 C76_4 1_555 1_555
H46_4 C66_4 1_555 1_555
C77_4 H47_4 1_555 1_555
C78_4 C77_4 1_555 1_555
H48_4 C78_4 1_555 1_555
C79_4 O35_4 1_555 1_555
O35_4 Sm9 1_555 1_555
O36_4 Sm9 1_555 1_555
C80_4 C78_4 1_555 1_555
C81_4 H49_4 1_555 1_555
C82_4 C80_4 1_555 1_555
H50_4 C82_4 1_555 1_555
C83_4 O32_4 1_555 1_555
C84_4 C68_4 1_555 1_555
H51_4 C84_4 1_555 1_555
O64 C86_4 1_555 1_555
C85_4 C66_4 1_555 1_555
O86 C86_4 1_555 1_555
C86_4 C85_4 1_555 1_555
C87_4 H52_4 1_555 1_555
C88_4 O39_4 1_555 1_555
C90_4 H53_4 1_555 1_555
O39_4 P9_4 1_555 1_555
Sm11 O15_4 1_555 1_555
Sm17 O15_4 1_555 1_555
P7_4 O44_4 1_555 1_555
P8_4 O47_4 1_555 1_555
O62_3 C105_4 1_555 1_555
P9_4 N7_4 1_555 1_555
C91_4 C94_4 1_555 1_555
O66_3 C108_4 1_555 1_555
O44_4 C104_4 1_555 1_555
O70_2 C100_4 1_555 1_555
O74_2 C119_4 1_555 1_555
O47_4 C113_4 1_555 1_555
C93_4 O53_4 1_555 1_555
O76_2 C105_4 1_555 1_555
C94_4 H54_4 1_555 1_555
C95_4 H55_4 1_555 1_555
C96_4 C108_4 1_555 1_555
C97_4 C91_4 1_555 1_555
C98_4 H56_4 1_555 1_555
C99_4 C109_4 1_555 1_555
O49_4 P8_4 1_555 1_555
C100_4 O80_2 1_555 1_555
O51_4 Sm11 1_555 1_555
O53_4 P7_4 1_555 1_555
C101_4 C95_4 1_555 1_555
H57_4 C101_4 1_555 1_555
N7_4 P8_4 1_555 1_555
C102_4 C87_4 1_555 1_555
C103_4 H58_4 1_555 1_555
C104_4 C110_4 1_555 1_555
C105_4 C106_4 1_555 1_555
N8_4 P7_4 1_555 1_555
C106_4 C111_4 1_555 1_555
C107_4 C98_4 1_555 1_555
C108_4 O82_3 1_555 1_555
C109_4 H59_4 1_555 1_555
C110_4 H60_4 1_555 1_555
C111_4 C90_4 1_555 1_555
H61_4 C111_4 1_555 1_555
C112_4 C93_4 1_555 1_555
H62_4 C112_4 1_555 1_555
N9_4 P7_4 1_555 1_555
C113_4 C95_4 1_555 1_555
C114_4 C100_4 1_555 1_555
C115_4 C96_4 1_555 1_555
H63_4 C115_4 1_555 1_555
C116_4 C103_4 1_555 1_555
H64_4 C116_4 1_555 1_555
C117_4 C109_4 1_555 1_555
H65_4 C117_4 1_555 1_555
C118_4 C104_4 1_555 1_555
H66_4 C118_4 1_555 1_555
C119_4 C99_4 1_555 1_555
C120_4 C107_4 1_555 1_555
H67_4 C120_4 1_555 1_555
O58_4 P9_4 1_555 1_555
C121_4 C96_4 1_555 1_555
H68_4 C121_4 1_555 1_555
C122_4 C93_4 1_555 1_555
H69_4 C122_4 1_555 1_555
C123_4 C117_4 1_555 1_555
C124_4 C91_4 1_555 1_555
H70_4 C124_4 1_555 1_555
C125_4 C88_4 1_555 1_555
H71_4 C125_4 1_555 1_555
C126_4 C87_4 1_555 1_555
H72_4 C126_4 1_555 1_555
C127_4 C99_4 1_555 1_555
H73_4 C127_4 1_555 1_555
C128_4 C88_4 1_555 1_555
H74_4 C128_4 1_555 1_555
C129_4 C123_4 1_555 1_555
H75_4 C129_4 1_555 1_555
C2_4 C47_4 1_555 1_555
C4_4 C24_4 1_555 1_555
C8_4 C25_4 1_555 1_555
Sm15 O36_4 1_555 1_555
P3_4 N4_4 1_555 1_555
P5_4 N5_4 1_555 1_555
C13_4 C34_4 1_555 1_555
O16_4 C56_4 1_555 1_555
C15_4 C57_4 1_555 1_555
C18_4 O19_4 1_555 1_555
C19_4 C63_4 1_555 1_555
O17_4 C25_4 1_555 1_555
C23_4 C43_4 1_555 1_555
C24_4 O24_4 1_555 1_555
C27_4 C42_4 1_555 1_555
C28_4 C39_4 1_555 1_555
C28_4 C51_4 1_555 1_555
C32_4 C61_4 1_555 1_555
C37_4 C55_4 1_555 1_555
C39_4 C41_4 1_555 1_555
C40_4 C59_4 1_555 1_555
C43_4 C45_4 1_555 1_555
C44_4 C49_4 1_555 1_555
C48_4 C54_4 1_555 1_555
C48_4 C56_4 1_555 1_555
C53_4 C60_4 1_555 1_555
O29_4 C58_4 1_555 1_555
C62_4 C64_4 1_555 1_555
C68_4 C70_4 1_555 1_555
P6_4 N6_4 1_555 1_555
O30_4 Sm17 1_555 1_555
C70_4 O34_4 1_555 1_555
C72_4 C74_4 1_555 1_555
C72_4 C76_4 1_555 1_555
C74_4 C75_4 1_555 1_555
C77_4 C83_4 1_555 1_555
C79_4 O36_4 1_555 1_555
C79_4 C80_4 1_555 1_555
C81_4 C82_4 1_555 1_555
C81_4 C83_4 1_555 1_555
C84_4 C85_4 1_555 1_555
C90_4 C102_4 1_555 1_555
P8_4 N8_4 1_555 1_555
P9_4 N9_4 1_555 1_555
O68_3 C97_4 1_555 1_555
C94_4 C122_4 1_555 1_555
C97_4 O51_4 1_555 1_555
C98_4 C128_4 1_555 1_555
O49_4 C102_4 1_555 1_555
C101_4 C114_4 1_555 1_555
C103_4 C113_4 1_555 1_555
C106_4 C126_4 1_555 1_555
C110_4 C121_4 1_555 1_555
C112_4 C124_4 1_555 1_555
C114_4 C116_4 1_555 1_555
C115_4 C118_4 1_555 1_555
C120_4 C125_4 1_555 1_555
O58_4 C123_4 1_555 1_555
C127_4 C129_4 1_555 1_555
C89_4 O52_4 1_555 1_555
O60_3 C92_4 1_555 1_555
O52_4 Sm23 1_555 1_555
O56_4 C89_4 1_555 1_555
O84_3 C92_4 1_555 1_555
C130_4 C89_4 1_555 1_555
H76_4 C130_4 1_555 1_555
H77_4 C130_4 1_555 1_555
H78_4 C130_4 1_555 1_555
Sm23 O56_4 1_555 1_555
C7_4 O20_4 1_555 1_555
O59 C10_4 1_555 1_555
O20_4 Sm21 1_555 1_555
O26_4 C7_4 1_555 1_555
O83 C10_4 1_555 1_555
C65_4 C7_4 1_555 1_555
H36_4 C65_4 1_555 1_555
H37_4 C65_4 1_555 1_555
H38_4 C65_4 1_555 1_555
Sm21 O26_4 1_555 1_555

#END
