
###############################################################################
#
# This file contains modified crystal structure data generated from the
# MOF subset of the Cambridge Structural Database (CSD) v543 
# hosted by the Cambridge Crystallographic Data Centre (CCDC).
#
# This work is licensed under the Creative Commons
# Attribution-NonCommercial-ShareAlike 4.0 International License.
# To view a copy of this license, visit
# http://creativecommons.org/licenses/by-nc-sa/4.0/
# or send a letter to
# Creative Commons, PO Box 1866, Mountain View, CA 94042, USA.
#
# CIF created using the CSD Python API on 29 September 2022
# The structure has been converted into the P1 space group
# The structure has a 3D framework
# The original CSD entry DALSER is in the orthorhombic crystal system
# The framework has been calculated to contain at least 10.0% void space
# The void calculation uses a probe of radius 1.32A, grid spacing 0.4
# The framework is charged, counterions have been retained in the structure
# H atom positions have been added when not included in the experimental data
# Generated hydrogen atom positions removed from atoms on special positions
#
###############################################################################

data_DALSER
_chemical_formula_moiety         '(C32 H48 Cl16 Fe16 O89 7-)n'
_symmetry_cell_setting           triclinic
_symmetry_space_group_name_H-M   'P 1'
_symmetry_Int_Tables_number      1
_space_group_name_Hall           'P 1'
loop_
_symmetry_equiv_pos_site_id
_symmetry_equiv_pos_as_xyz
1 x,y,z
_cell_length_a                   14.914(4)
_cell_length_b                   23.507(8)
_cell_length_c                   9.261(4)
_cell_angle_alpha                90
_cell_angle_beta                 90
_cell_angle_gamma                90
_cell_volume                     3246.75
loop_
_atom_site_label
_atom_site_type_symbol
_atom_site_fract_x
_atom_site_fract_y
_atom_site_fract_z
O1 O 0.0553(15) 0.6614(10) 0.186(3)
O1_2 O 0.9447(15) 0.3386(10) 0.186(3)
O1_3 O 0.3053(15) 0.5886(10) 0.436(3)
O1_4 O 0.1947(15) 0.9114(10) 0.436(3)
O1_5 O 0.0553(15) 0.1614(10) 0.686(3)
O1_6 O 0.9447(15) 0.8386(10) 0.686(3)
O1_7 O 0.3053(15) 0.0886(10) 0.936(3)
O1_8 O 0.1947(15) 0.4114(10) 0.936(3)
O1_9 O 0.5553(15) 0.6614(10) 0.686(3)
O1_10 O 0.4447(15) 0.3386(10) 0.686(3)
O1_11 O 0.8053(15) 0.5886(10) 0.936(3)
O1_12 O 0.6947(15) 0.9114(10) 0.936(3)
O1_13 O 0.5553(15) 0.1614(10) 0.186(3)
O1_14 O 0.4447(15) 0.8386(10) 0.186(3)
O1_15 O 0.8053(15) 0.0886(10) 0.436(3)
O1_16 O 0.6947(15) 0.4114(10) 0.436(3)
Fe1 Fe 0.07694(4) 0.44385(2) 0.55071(5)
Cl1 Cl 0.18137(10) 0.50420(7) 0.6446(2)
O3 O 0.0170(2) 0.43018(14) 0.7459(4)
O6 O 0.0000 0.5000 0.4703(6)
O7 O 0.0169(2) 0.62024(14) 0.4956(4)
O9 O 0.0874(2) 0.62404(15) 0.8529(4)
O10 O 0.1168(2) 0.67720(14) 0.6033(4)
C3 C 0.0601(3) 0.63782(17) 0.6028(5)
C4 C 0.0427(3) 0.60775(17) 0.7471(5)
Fe3 Fe 0.17306(4) 0.69385(2) 0.80071(5)
O11 O 0.1626(2) 0.37404(15) 0.6029(4)
O13 O 0.1332(2) 0.42720(14) 0.3533(4)
O2 O 0.9831(2) 0.37976(14) 0.4956(4)
O4 O 0.9126(2) 0.37596(15) 0.8529(4)
O5 O 0.8832(2) 0.32280(14) 0.6033(4)
O6_2 O 1.0000 0.5000 0.4703(6)
C1 C 0.9399(3) 0.36218(17) 0.6028(5)
C2 C 0.9573(3) 0.39225(17) 0.7471(5)
Fe2 Fe 0.92306(4) 0.55615(2) 0.55071(5)
Cl2 Cl 0.81863(10) 0.49580(7) 0.6446(2)
O8 O 0.9830(2) 0.56982(14) 0.7459(4)
Fe4 Fe 0.82694(4) 0.30615(2) 0.80071(5)
O12 O 0.8374(2) 0.62596(15) 0.6029(4)
O14 O 0.8668(2) 0.57280(14) 0.3533(4)
O4_2 O 0.1626(2) 0.87404(15) 0.1029(4)
O9_2 O 0.3374(2) 0.62596(15) 0.1029(4)
Fe3_2 Fe 0.42306(4) 0.55615(2) 0.05071(5)
Fe4_2 Fe 0.07694(4) 0.94385(2) 0.05071(5)
Fe1_2 Fe 0.32694(4) 0.80615(2) 0.80071(5)
Cl1_2 Cl 0.43137(10) 0.74580(7) 0.8946(2)
O2_2 O 0.2331(2) 0.87024(14) 0.7456(4)
O3_2 O 0.2670(2) 0.81982(14) 0.9959(4)
O5_2 O 0.1332(2) 0.92720(14) 0.8533(4)
O6_3 O 0.2500 0.7500 0.7203(6)
C1_2 C 0.1899(3) 0.88782(17) 0.8528(5)
C2_2 C 0.2073(3) 0.85775(17) 0.9971(5)
Cl2_2 Cl 0.06863(10) 0.75420(7) 0.8946(2)
O7_2 O 0.2669(2) 0.62976(14) 0.7456(4)
O8_2 O 0.2330(2) 0.68018(14) 0.9959(4)
O10_2 O 0.3668(2) 0.57280(14) 0.8533(4)
C3_2 C 0.3101(3) 0.61218(17) 0.8528(5)
C4_2 C 0.2927(3) 0.64225(17) 0.9971(5)
O11_2 O 0.4126(2) 0.87596(15) 0.8529(4)
O13_2 O 0.3832(2) 0.82280(14) 0.6033(4)
Cl1_3 Cl 0.18137(10) 0.00420(7) 0.1446(2)
O9_3 O 0.0874(2) 0.12404(15) 0.3529(4)
O10_3 O 0.1168(2) 0.17720(14) 0.1033(4)
C3_3 C 0.0601(3) 0.13782(17) 0.1028(5)
C4_3 C 0.0427(3) 0.10775(17) 0.2471(5)
Fe3_3 Fe 0.17306(4) 0.19385(2) 0.30071(5)
O3_3 O 0.0170(2) 0.93018(14) 0.2459(4)
O6_4 O 0.0000 1.0000 0.9703(6)
Fe2_2 Fe 0.92306(4) 0.05615(2) 0.05071(5)
O8_3 O 0.9830(2) 0.06982(14) 0.2459(4)
O12_2 O 0.8374(2) 0.12596(15) 0.1029(4)
O6_5 O 1.0000 0.0000 0.9703(6)
O14_2 O 0.8668(2) 0.07280(14) 0.8533(4)
O4_3 O 0.9126(2) 0.87596(15) 0.3529(4)
O5_3 O 0.8832(2) 0.82280(14) 0.1033(4)
C1_3 C 0.9399(3) 0.86218(17) 0.1028(5)
C2_3 C 0.9573(3) 0.89225(17) 0.2471(5)
Cl2_3 Cl 0.81863(10) 0.99580(7) 0.1446(2)
Fe4_3 Fe 0.82694(4) 0.80615(2) 0.30071(5)
Fe1_3 Fe 0.32694(4) 0.30615(2) 0.30071(5)
Cl1_4 Cl 0.43137(10) 0.24580(7) 0.3946(2)
O2_3 O 0.2331(2) 0.37024(14) 0.2456(4)
O3_4 O 0.2670(2) 0.31982(14) 0.4959(4)
O6_6 O 0.2500 0.2500 0.2203(6)
C1_4 C 0.1899(3) 0.38782(17) 0.3528(5)
C2_4 C 0.2073(3) 0.35775(17) 0.4971(5)
Cl2_4 Cl 0.06863(10) 0.25420(7) 0.3946(2)
O7_3 O 0.2669(2) 0.12976(14) 0.2456(4)
O8_4 O 0.2330(2) 0.18018(14) 0.4959(4)
O9_4 O 0.3374(2) 0.12596(15) 0.6029(4)
O10_4 O 0.3668(2) 0.07280(14) 0.3533(4)
C3_4 C 0.3101(3) 0.11218(17) 0.3528(5)
C4_4 C 0.2927(3) 0.14225(17) 0.4971(5)
Fe3_4 Fe 0.42306(4) 0.05615(2) 0.55071(5)
O11_3 O 0.4126(2) 0.37596(15) 0.3529(4)
O13_3 O 0.3832(2) 0.32280(14) 0.1033(4)
Fe1_4 Fe 0.57694(4) 0.44385(2) 0.05071(5)
Cl1_5 Cl 0.68137(10) 0.50420(7) 0.1446(2)
O3_5 O 0.5170(2) 0.43018(14) 0.2459(4)
C1_5 C 0.4399(3) 0.36218(17) 0.1028(5)
C2_5 C 0.4573(3) 0.39225(17) 0.2471(5)
Cl2_5 Cl 0.31863(10) 0.49580(7) 0.1446(2)
O8_5 O 0.4830(2) 0.56982(14) 0.2459(4)
O9_5 O 0.5874(2) 0.62404(15) 0.3529(4)
O10_5 O 0.6168(2) 0.67720(14) 0.1033(4)
C3_5 C 0.5601(3) 0.63782(17) 0.1028(5)
C4_5 C 0.5427(3) 0.60775(17) 0.2471(5)
Fe3_5 Fe 0.67306(4) 0.69385(2) 0.30071(5)
O11_4 O 0.6626(2) 0.37404(15) 0.1029(4)
O2_4 O 0.4831(2) 0.37976(14) 0.9956(4)
O6_7 O 0.5000 0.5000 0.9703(6)
O7_4 O 0.5169(2) 0.62024(14) 0.9956(4)
O13_4 O 0.6332(2) 0.42720(14) 0.8533(4)
Cl1_6 Cl 0.93137(10) 0.74580(7) 0.3946(2)
O2_5 O 0.7331(2) 0.87024(14) 0.2456(4)
O3_6 O 0.7670(2) 0.81982(14) 0.4959(4)
O4_4 O 0.6626(2) 0.87404(15) 0.6029(4)
O5_4 O 0.6332(2) 0.92720(14) 0.3533(4)
O6_8 O 0.7500 0.7500 0.2203(6)
C1_6 C 0.6899(3) 0.88782(17) 0.3528(5)
C2_6 C 0.7073(3) 0.85775(17) 0.4971(5)
Cl2_6 Cl 0.56863(10) 0.75420(7) 0.3946(2)
O7_5 O 0.7669(2) 0.62976(14) 0.2456(4)
O8_6 O 0.7330(2) 0.68018(14) 0.4959(4)
C3_6 C 0.8101(3) 0.61218(17) 0.3528(5)
C4_6 C 0.7927(3) 0.64225(17) 0.4971(5)
Fe4_4 Fe 0.57694(4) 0.94385(2) 0.55071(5)
Cl1_7 Cl 0.68137(10) 0.00420(7) 0.6446(2)
O6_9 O 0.5000 0.0000 0.4703(6)
O7_6 O 0.5169(2) 0.12024(14) 0.4956(4)
O8_7 O 0.4830(2) 0.06982(14) 0.7459(4)
O9_6 O 0.5874(2) 0.12404(15) 0.8529(4)
O10_6 O 0.6168(2) 0.17720(14) 0.6033(4)
C3_7 C 0.5601(3) 0.13782(17) 0.6028(5)
C4_7 C 0.5427(3) 0.10775(17) 0.7471(5)
Fe3_6 Fe 0.67306(4) 0.19385(2) 0.80071(5)
O2_6 O 0.4831(2) 0.87976(14) 0.4956(4)
O3_7 O 0.5170(2) 0.93018(14) 0.7459(4)
O6_10 O 0.5000 1.0000 0.4703(6)
C1_7 C 0.4399(3) 0.86218(17) 0.6028(5)
C2_7 C 0.4573(3) 0.89225(17) 0.7471(5)
Cl2_7 Cl 0.31863(10) 0.99580(7) 0.6446(2)
Cl1_8 Cl 0.93137(10) 0.24580(7) 0.8946(2)
O2_7 O 0.7331(2) 0.37024(14) 0.7456(4)
O3_8 O 0.7670(2) 0.31982(14) 0.9959(4)
O6_11 O 0.7500 0.2500 0.7203(6)
C1_8 C 0.6899(3) 0.38782(17) 0.8528(5)
C2_8 C 0.7073(3) 0.35775(17) 0.9971(5)
Cl2_8 Cl 0.56863(10) 0.25420(7) 0.8946(2)
O7_7 O 0.7669(2) 0.12976(14) 0.7456(4)
O8_8 O 0.7330(2) 0.18018(14) 0.9959(4)
C3_8 C 0.8101(3) 0.11218(17) 0.8528(5)
C4_8 C 0.7927(3) 0.14225(17) 0.9971(5)
O6_12 O 0.0000 0.0000 0.9703(6)
O7_8 O 0.0169(2) 0.12024(14) 0.9956(4)
O2_8 O 0.9831(2) 0.87976(14) 0.9956(4)
O6_13 O 1.0000 1.0000 0.9703(6)
loop_
_geom_bond_atom_site_label_1
_geom_bond_atom_site_label_2
_geom_bond_site_symmetry_1
_geom_bond_site_symmetry_2
Fe1 Cl1 1_555 1_555
O3 Fe1 1_555 1_555
O6 Fe1 1_555 1_555
O9 C4 1_555 1_555
O10 C3 1_555 1_555
C3 O7 1_555 1_555
Fe3 O9 1_555 1_555
O11 Fe1 1_555 1_555
O13 Fe1 1_555 1_555
O10 Fe3 1_555 1_555
C3 C4 1_555 1_555
O4 C2 1_555 1_555
O5 C1 1_555 1_555
C1 O2 1_555 1_555
Fe2 O6_2 1_555 1_555
Cl2 Fe2 1_555 1_555
O8 Fe2 1_555 1_555
Fe4 O4 1_555 1_555
O12 Fe2 1_555 1_555
O14 Fe2 1_555 1_555
O5 Fe4 1_555 1_555
C1 C2 1_555 1_555
Fe3_2 O9_2 1_555 1_555
Fe4_2 O4_2 1_555 1_555
Fe1_2 Cl1_2 1_555 1_555
O2_2 Fe1_2 1_555 1_555
O3_2 Fe1_2 1_555 1_555
O5_2 C1_2 1_555 1_555
O6_3 Fe1_2 1_555 1_555
C1_2 O2_2 1_555 1_555
C2_2 O3_2 1_555 1_555
Fe3 O6_3 1_555 1_555
Cl2_2 Fe3 1_555 1_555
O7_2 Fe3 1_555 1_555
O8_2 Fe3 1_555 1_555
O10_2 C3_2 1_555 1_555
C3_2 O7_2 1_555 1_555
C4_2 O8_2 1_555 1_555
O11_2 Fe1_2 1_555 1_555
O13_2 Fe1_2 1_555 1_555
C1_2 C2_2 1_555 1_555
C3_2 C4_2 1_555 1_555
O9_3 C4_3 1_555 1_555
O10_3 C3_3 1_555 1_555
Fe3_3 O9_3 1_555 1_555
O10_3 Fe3_3 1_555 1_555
C3_3 C4_3 1_555 1_555
O3_3 Fe4_2 1_555 1_555
O8_3 Fe2_2 1_555 1_555
O12_2 Fe2_2 1_555 1_555
O4_3 C2_3 1_555 1_555
O5_3 C1_3 1_555 1_555
Fe4_3 O4_3 1_555 1_555
O5_3 Fe4_3 1_555 1_555
C1_3 C2_3 1_555 1_555
Fe1_3 Cl1_4 1_555 1_555
O2_3 Fe1_3 1_555 1_555
O3_4 Fe1_3 1_555 1_555
O11 C2_4 1_555 1_555
O13 C1_4 1_555 1_555
O6_6 Fe1_3 1_555 1_555
C1_4 O2_3 1_555 1_555
C2_4 O3_4 1_555 1_555
Fe3_3 O6_6 1_555 1_555
Cl2_4 Fe3_3 1_555 1_555
O7_3 Fe3_3 1_555 1_555
O8_4 Fe3_3 1_555 1_555
O9_4 C4_4 1_555 1_555
O10_4 C3_4 1_555 1_555
C3_4 O7_3 1_555 1_555
C4_4 O8_4 1_555 1_555
Fe3_4 O9_4 1_555 1_555
O11_3 Fe1_3 1_555 1_555
O13_3 Fe1_3 1_555 1_555
C1_4 C2_4 1_555 1_555
O10_4 Fe3_4 1_555 1_555
C3_4 C4_4 1_555 1_555
Fe1_4 Cl1_5 1_555 1_555
O3_5 Fe1_4 1_555 1_555
O11_3 C2_5 1_555 1_555
O13_3 C1_5 1_555 1_555
C2_5 O3_5 1_555 1_555
Cl2_5 Fe3_2 1_555 1_555
O8_5 Fe3_2 1_555 1_555
O9_5 C4_5 1_555 1_555
O10_5 C3_5 1_555 1_555
C4_5 O8_5 1_555 1_555
Fe3_5 O9_5 1_555 1_555
O11_4 Fe1_4 1_555 1_555
C1_5 C2_5 1_555 1_555
O10_5 Fe3_5 1_555 1_555
C3_5 C4_5 1_555 1_555
Fe4_3 Cl1_6 1_555 1_555
O2_5 Fe4_3 1_555 1_555
O3_6 Fe4_3 1_555 1_555
O4_4 C2_6 1_555 1_555
O5_4 C1_6 1_555 1_555
O6_8 Fe4_3 1_555 1_555
C1_6 O2_5 1_555 1_555
C2_6 O3_6 1_555 1_555
Fe3_5 O6_8 1_555 1_555
Cl2_6 Fe3_5 1_555 1_555
O7_5 Fe3_5 1_555 1_555
O8_6 Fe3_5 1_555 1_555
O12 C4_6 1_555 1_555
O14 C3_6 1_555 1_555
C3_6 O7_5 1_555 1_555
C4_6 O8_6 1_555 1_555
Fe4_4 O4_4 1_555 1_555
O5_4 Fe4_4 1_555 1_555
C1_6 C2_6 1_555 1_555
C3_6 C4_6 1_555 1_555
Fe3_4 O6_9 1_555 1_555
O7_6 Fe3_4 1_555 1_555
O8_7 Fe3_4 1_555 1_555
O9_6 C4_7 1_555 1_555
O10_6 C3_7 1_555 1_555
C3_7 O7_6 1_555 1_555
C4_7 O8_7 1_555 1_555
Fe3_6 O9_6 1_555 1_555
O10_6 Fe3_6 1_555 1_555
C3_7 C4_7 1_555 1_555
O2_6 Fe4_4 1_555 1_555
O3_7 Fe4_4 1_555 1_555
O11_2 C2_7 1_555 1_555
O13_2 C1_7 1_555 1_555
O6_10 Fe4_4 1_555 1_555
C1_7 O2_6 1_555 1_555
C2_7 O3_7 1_555 1_555
C1_7 C2_7 1_555 1_555
Fe4 Cl1_8 1_555 1_555
O2_7 Fe4 1_555 1_555
O3_8 Fe4 1_555 1_555
O13_4 C1_8 1_555 1_555
O6_11 Fe4 1_555 1_555
C1_8 O2_7 1_555 1_555
C2_8 O3_8 1_555 1_555
Fe3_6 O6_11 1_555 1_555
Cl2_8 Fe3_6 1_555 1_555
O7_7 Fe3_6 1_555 1_555
O8_8 Fe3_6 1_555 1_555
O14_2 C3_8 1_555 1_555
C3_8 O7_7 1_555 1_555
C4_8 O8_8 1_555 1_555
C1_8 C2_8 1_555 1_555
C3_8 C4_8 1_555 1_555

#END
