
###############################################################################
#
# This file contains modified crystal structure data generated from the
# MOF subset of the Cambridge Structural Database (CSD) v543 
# hosted by the Cambridge Crystallographic Data Centre (CCDC).
#
# This work is licensed under the Creative Commons
# Attribution-NonCommercial-ShareAlike 4.0 International License.
# To view a copy of this license, visit
# http://creativecommons.org/licenses/by-nc-sa/4.0/
# or send a letter to
# Creative Commons, PO Box 1866, Mountain View, CA 94042, USA.
#
# CIF created using the CSD Python API on 29 September 2022
# The structure has been converted into the P1 space group
# The structure has a 3D framework
# The original CSD entry DALSAN is in the monoclinic crystal system
# The framework has been calculated to contain at least 10.0% void space
# The void calculation uses a probe of radius 1.32A, grid spacing 0.4
# The framework is charged, counterions have been retained in the structure
#
###############################################################################

data_DALSAN
_chemical_formula_moiety         '(C20 H28 Cl8 Fe8 N4 O32)n'
_symmetry_cell_setting           triclinic
_symmetry_space_group_name_H-M   'P 1'
_symmetry_Int_Tables_number      1
_space_group_name_Hall           'P 1'
loop_
_symmetry_equiv_pos_site_id
_symmetry_equiv_pos_as_xyz
1 x,y,z
_cell_length_a                   8.945(3)
_cell_length_b                   14.936(5)
_cell_length_c                   12.408(5)
_cell_angle_alpha                90
_cell_angle_beta                 108.531(8)
_cell_angle_gamma                90
_cell_volume                     1571.79
loop_
_atom_site_label
_atom_site_type_symbol
_atom_site_fract_x
_atom_site_fract_y
_atom_site_fract_z
O1 O 0.2482(5) 0.2849(3) 0.0487(4)
O4 O 0.6139(5) 0.3609(3) 0.0452(4)
O9 O 0.4091(5) 0.3882(3) 0.1577(4)
C1 C 0.4890(7) 0.3171(4) 0.0129(5)
C4 C 0.3702(7) 0.3303(3) 0.0785(5)
Fe3 Fe 0.62132(9) 0.45047(5) 0.17924(7)
O11 O 0.3579(5) 0.1103(3) 0.0249(4)
Cl1 Cl 0.0852(2) 0.94945(9) 0.80424(14)
O3 O 0.3056(5) 0.9923(3) 0.6415(4)
O5 O 0.3579(5) 0.8897(3) 0.5249(4)
O6 O 0.0515(5) 0.8582(3) 0.4325(4)
C2 C 0.2663(7) 0.9348(3) 0.5624(5)
C3 C 0.0876(7) 0.9186(4) 0.5079(5)
Fe4 Fe 0.23500(9) 0.79446(5) 0.40427(7)
O13 O 0.9091(5) 0.1118(3) 0.6577(4)
Cl1_2 Cl 0.0852(2) 0.05055(9) 0.30424(14)
O3_2 O 0.3056(5) 0.0077(3) 0.1415(4)
C2_2 C 0.2663(7) 0.0652(3) 0.0624(5)
C3_2 C 0.0876(7) 0.0814(4) 0.0079(5)
Fe1 Fe 0.12132(9) 0.95047(5) 0.17924(7)
Cl2 Cl 0.0809(2) 0.68750(10) 0.29043(14)
O1_2 O 0.2482(5) 0.7151(3) 0.5487(4)
O2 O 0.2588(5) 0.8661(3) 0.2811(4)
O4_2 O 0.6139(5) 0.6391(3) 0.5452(4)
O8 O 0.4507(5) 0.7374(3) 0.4307(4)
O9_2 O 0.4091(5) 0.6118(3) 0.6577(4)
C1_2 C 0.4890(7) 0.6829(4) 0.5129(5)
C4_2 C 0.3702(7) 0.6697(3) 0.5785(5)
H1 H 0.3143 0.8363 0.2494
Fe3_2 Fe 0.62132(9) 0.54953(5) 0.67924(7)
O10 O 0.1139(5) 0.8609(3) 0.0452(4)
O13_2 O 0.9091(5) 0.8882(3) 0.1577(4)
O1_3 O 0.7482(5) 0.7849(3) 0.0487(4)
C1_3 C 0.9890(7) 0.8171(4) 0.0129(5)
C4_3 C 0.8702(7) 0.8303(3) 0.0785(5)
O11_2 O 0.8579(5) 0.6103(3) 0.0249(4)
Fe2 Fe 0.73500(9) 0.70554(5) 0.90427(7)
Cl1_3 Cl 0.5852(2) 0.44945(9) 0.80424(14)
Cl2_2 Cl 0.5809(2) 0.81250(10) 0.79043(14)
O2_2 O 0.7588(5) 0.6339(3) 0.7811(4)
O3_3 O 0.8056(5) 0.4923(3) 0.6415(4)
O5_2 O 0.8579(5) 0.3897(3) 0.5249(4)
O6_2 O 0.5515(5) 0.3582(3) 0.4325(4)
O7 O 0.4969(5) 0.4642(3) 0.5433(4)
O8_2 O 0.9507(5) 0.7626(3) 0.9307(4)
C2_3 C 0.7663(7) 0.4348(3) 0.5624(5)
C3_3 C 0.5876(7) 0.4186(4) 0.5079(5)
H1_2 H 0.8143 0.6637 0.7494
Fe4_2 Fe 0.73500(9) 0.29446(5) 0.40427(7)
O12 O 0.5515(5) 0.6418(3) 0.9325(4)
Cl1_4 Cl 0.5852(2) 0.55055(9) 0.30424(14)
Cl2_3 Cl 0.5809(2) 0.18750(10) 0.29043(14)
O1_4 O 0.7482(5) 0.2151(3) 0.5487(4)
O2_3 O 0.7588(5) 0.3661(3) 0.2811(4)
O3_4 O 0.8056(5) 0.5077(3) 0.1415(4)
O7_2 O 0.4969(5) 0.5358(3) 0.0433(4)
O8_3 O 0.9507(5) 0.2374(3) 0.4307(4)
C1_4 C 0.9890(7) 0.1829(4) 0.5129(5)
C2_4 C 0.7663(7) 0.5652(3) 0.0624(5)
C3_4 C 0.5876(7) 0.5814(4) 0.0079(5)
C4_4 C 0.8702(7) 0.1697(3) 0.5785(5)
H1_3 H 0.8143 0.3363 0.2494
Fe1_2 Fe 0.12132(9) 0.04953(5) 0.67924(7)
Fe2_2 Fe 0.23500(9) 0.20554(5) 0.90427(7)
Cl2_4 Cl 0.0809(2) 0.31250(10) 0.79043(14)
O2_4 O 0.2588(5) 0.1339(3) 0.7811(4)
O8_4 O 0.4507(5) 0.2626(3) 0.9307(4)
H1_4 H 0.3143 0.1637 0.7494
O10_2 O 0.1139(5) 0.1391(3) 0.5452(4)
O12_2 O 0.0515(5) 0.1418(3) 0.9325(4)
O7_3 O 0.9969(5) 0.9642(3) 0.5433(4)
O7_4 O 0.9969(5) 0.0358(3) 0.0433(4)
N1 N 0.7028(10) 0.1515(6) 0.8368(9)
H2 H 0.7877 0.1677 0.8190
H3 H 0.7227 0.1564 0.9116
H4 H 0.6223 0.1870 0.8011
C5 C 0.6631(11) 0.0600(7) 0.8027(12)
H5 H 0.5639 0.0451 0.8126
H6 H 0.7437 0.0210 0.8485
H7 H 0.6554 0.0530 0.7242
N1_2 N 0.7028(10) 0.8485(6) 0.3368(9)
H2_2 H 0.7877 0.8323 0.3190
H3_2 H 0.7227 0.8436 0.4116
H4_2 H 0.6223 0.8130 0.3011
C5_2 C 0.6631(11) 0.9400(7) 0.3027(12)
H5_2 H 0.5639 0.9549 0.3126
H6_2 H 0.7437 0.9790 0.3485
H7_2 H 0.6554 0.9470 0.2242
N1_3 N 0.2028(10) 0.6515(6) 0.8368(9)
H2_3 H 0.2877 0.6677 0.8190
H3_3 H 0.2227 0.6564 0.9116
H4_3 H 0.1223 0.6870 0.8011
C5_3 C 0.1631(11) 0.5600(7) 0.8027(12)
H5_3 H 0.0639 0.5451 0.8126
H6_3 H 0.2437 0.5210 0.8485
H7_3 H 0.1554 0.5530 0.7242
N1_4 N 0.2028(10) 0.3485(6) 0.3368(9)
H2_4 H 0.2877 0.3323 0.3190
H3_4 H 0.2227 0.3436 0.4116
H4_4 H 0.1223 0.3130 0.3011
C5_4 C 0.1631(11) 0.4400(7) 0.3027(12)
H5_4 H 0.0639 0.4549 0.3126
H6_4 H 0.2437 0.4790 0.3485
H7_4 H 0.1554 0.4470 0.2242
loop_
_geom_bond_atom_site_label_1
_geom_bond_atom_site_label_2
_geom_bond_site_symmetry_1
_geom_bond_site_symmetry_2
O4 C1 1_555 1_555
O9 C4 1_555 1_555
C4 O1 1_555 1_555
Fe3 O4 1_555 1_555
O9 Fe3 1_555 1_555
C1 C4 1_555 1_555
O5 C2 1_555 1_555
O6 C3 1_555 1_555
C2 O3 1_555 1_555
Fe4 O5 1_555 1_555
O6 Fe4 1_555 1_555
C2 C3 1_555 1_555
O11 C2_2 1_555 1_555
C2_2 O3_2 1_555 1_555
C2_2 C3_2 1_555 1_555
Fe4 Cl2 1_555 1_555
O1_2 Fe4 1_555 1_555
O2 Fe1 1_555 1_555
O4_2 C1_2 1_555 1_555
O8 Fe4 1_555 1_555
O9_2 C4_2 1_555 1_555
C1_2 O8 1_555 1_555
C4_2 O1_2 1_555 1_555
H1 O2 1_555 1_555
Fe3_2 O4_2 1_555 1_555
O10 Fe1 1_555 1_555
Fe4 O2 1_555 1_555
O9_2 Fe3_2 1_555 1_555
C1_2 C4_2 1_555 1_555
O13_2 C4_3 1_555 1_555
C4_3 O1_3 1_555 1_555
C1_3 C4_3 1_555 1_555
Fe3_2 Cl1_3 1_555 1_555
Fe2 Cl2_2 1_555 1_555
O2_2 Fe3_2 1_555 1_555
O3_3 Fe3_2 1_555 1_555
O5_2 C2_3 1_555 1_555
O6_2 C3_3 1_555 1_555
O7 Fe3_2 1_555 1_555
O8_2 Fe2 1_555 1_555
C2_3 O3_3 1_555 1_555
C3_3 O7 1_555 1_555
H1_2 O2_2 1_555 1_555
Fe4_2 O5_2 1_555 1_555
O12 Fe2 1_555 1_555
Fe2 O2_2 1_555 1_555
O6_2 Fe4_2 1_555 1_555
C2_3 C3_3 1_555 1_555
Fe3 Cl1_4 1_555 1_555
Fe4_2 Cl2_3 1_555 1_555
O1_4 Fe4_2 1_555 1_555
O2_3 Fe3 1_555 1_555
O3_4 Fe3 1_555 1_555
O11_2 C2_4 1_555 1_555
O7_2 Fe3 1_555 1_555
O8_3 Fe4_2 1_555 1_555
O13 C4_4 1_555 1_555
C1_4 O8_3 1_555 1_555
C2_4 O3_4 1_555 1_555
C3_4 O7_2 1_555 1_555
C4_4 O1_4 1_555 1_555
H1_3 O2_3 1_555 1_555
Fe4_2 O2_3 1_555 1_555
C1_4 C4_4 1_555 1_555
C2_4 C3_4 1_555 1_555
Fe2_2 Cl2_4 1_555 1_555
O2_4 Fe1_2 1_555 1_555
O8_4 Fe2_2 1_555 1_555
H1_4 O2_4 1_555 1_555
O10_2 Fe1_2 1_555 1_555
O12_2 Fe2_2 1_555 1_555
Fe2_2 O2_4 1_555 1_555
N1 H2 1_555 1_555
H3 N1 1_555 1_555
H4 N1 1_555 1_555
C5 N1 1_555 1_555
H5 C5 1_555 1_555
H6 C5 1_555 1_555
H7 C5 1_555 1_555
N1_2 H2_2 1_555 1_555
H3_2 N1_2 1_555 1_555
H4_2 N1_2 1_555 1_555
C5_2 N1_2 1_555 1_555
H5_2 C5_2 1_555 1_555
H6_2 C5_2 1_555 1_555
H7_2 C5_2 1_555 1_555
N1_3 H2_3 1_555 1_555
H3_3 N1_3 1_555 1_555
H4_3 N1_3 1_555 1_555
C5_3 N1_3 1_555 1_555
H5_3 C5_3 1_555 1_555
H6_3 C5_3 1_555 1_555
H7_3 C5_3 1_555 1_555
N1_4 H2_4 1_555 1_555
H3_4 N1_4 1_555 1_555
H4_4 N1_4 1_555 1_555
C5_4 N1_4 1_555 1_555
H5_4 C5_4 1_555 1_555
H6_4 C5_4 1_555 1_555
H7_4 C5_4 1_555 1_555

#END
