
###############################################################################
#
# This file contains modified crystal structure data generated from the
# MOF subset of the Cambridge Structural Database (CSD) v543 
# hosted by the Cambridge Crystallographic Data Centre (CCDC).
#
# This work is licensed under the Creative Commons
# Attribution-NonCommercial-ShareAlike 4.0 International License.
# To view a copy of this license, visit
# http://creativecommons.org/licenses/by-nc-sa/4.0/
# or send a letter to
# Creative Commons, PO Box 1866, Mountain View, CA 94042, USA.
#
# CIF created using the CSD Python API on 29 September 2022
# The structure has been converted into the P1 space group
# The structure has a 3D framework
# The original CSD entry DALSUH is in the orthorhombic crystal system
# The framework has been calculated to contain at least 10.0% void space
# The void calculation uses a probe of radius 1.32A, grid spacing 0.4
#
###############################################################################

data_DALSUH
_chemical_formula_moiety         '(C120 H96 Dy8 N8 O84)n'
_symmetry_cell_setting           triclinic
_symmetry_space_group_name_H-M   'P 1'
_symmetry_Int_Tables_number      1
_space_group_name_Hall           'P 1'
loop_
_symmetry_equiv_pos_site_id
_symmetry_equiv_pos_as_xyz
1 x,y,z
_cell_length_a                   12.7243(14)
_cell_length_b                   13.2940(15)
_cell_length_c                   28.598(3)
_cell_angle_alpha                90
_cell_angle_beta                 90
_cell_angle_gamma                90
_cell_volume                     4837.55
loop_
_atom_site_label
_atom_site_type_symbol
_atom_site_fract_x
_atom_site_fract_y
_atom_site_fract_z
Dy1 Dy 0.08939(3) 0.54299(3) 0.92996(2)
O1 O 0.0924(7) 0.4389(6) 0.8661(2)
O2 O 0.2726(7) 0.5285(8) 0.9116(3)
H1 H 0.2976 0.4635 0.9145
H2 H 0.3149 0.5673 0.9307
O3 O 0.1652(7) 0.2902(6) 0.8807(3)
O4 O 0.1575(6) 0.3919(5) 0.9662(2)
H3 H 0.2198 0.4028 0.9781
H4 H 0.1629 0.3434 0.9456
O5 O 0.0400(9) 0.1468(9) 0.8283(4)
O6 O 0.1455(8) 0.6994(9) 0.8965(5)
H5 H 0.1317 0.7023 0.8658
H6 H 0.2149 0.7075 0.8998
O7 O 0.1868(11) 0.0866(8) 0.8076(4)
O8 O 0.4477(6) 0.1034(5) 0.6190(2)
O9 O 0.4522(5) 0.1614(5) 0.5470(2)
O10 O 0.1656(6) 0.3890(6) 0.4950(2)
O11 O 0.0512(7) 0.4478(6) 0.5455(3)
N1 N 0.1237(9) 0.1534(7) 0.8088(3)
C1 C 0.1298(9) 0.3563(8) 0.8541(3)
C2 C 0.1341(8) 0.3381(7) 0.8026(3)
C3 C 0.1435(8) 0.2455(8) 0.7813(3)
C4 C 0.1659(8) 0.2313(7) 0.7346(3)
H7 H 0.1735 0.1666 0.7228
C5 C 0.1771(8) 0.3135(8) 0.7053(3)
C6 C 0.1622(9) 0.4092(8) 0.7252(4)
H8 H 0.1649 0.4659 0.7063
C7 C 0.1437(9) 0.4202(8) 0.7725(4)
H9 H 0.1375 0.4848 0.7847
C8 C 0.2057(8) 0.2999(8) 0.6557(3)
C9 C 0.2867(8) 0.2345(8) 0.6445(3)
H10 H 0.3198 0.1975 0.6678
C10 C 0.3185(7) 0.2244(8) 0.5979(3)
C11 C 0.2682(8) 0.2789(8) 0.5632(3)
H11 H 0.2895 0.2725 0.5322
C12 C 0.1864(8) 0.3428(7) 0.5746(3)
C13 C 0.1560(8) 0.3545(8) 0.6210(3)
H12 H 0.1022 0.3989 0.6287
C14 C 0.4104(7) 0.1597(7) 0.5871(3)
C15 C 0.1309(8) 0.3970(7) 0.5356(3)
Dy3 Dy 0.58939(3) 0.04299(3) 0.57004(2)
Dy4 Dy 0.08939(3) 0.45701(3) 0.42996(2)
O14 O 0.1656(6) 0.6110(6) 0.9950(2)
Dy2 Dy 0.91061(3) 0.54299(3) 0.57004(2)
O12 O 0.9477(6) 0.6034(5) 0.8810(2)
O13 O 0.9522(5) 0.6614(5) 0.9530(2)
O15 O 0.9488(7) 0.4478(6) 0.9545(3)
O1_2 O 0.4076(7) 0.0611(6) 0.3661(2)
H1_2 H 0.2024 0.0365 0.4145
O3_2 O 0.3348(7) 0.2098(6) 0.3807(3)
O4_2 O 0.3425(6) 0.1081(5) 0.4662(2)
H3_2 H 0.2802 0.0972 0.4781
H4_2 H 0.3371 0.1566 0.4456
O5_2 O 0.4600(9) 0.3532(9) 0.3283(4)
O7_2 O 0.3132(11) 0.4134(8) 0.3076(4)
O8_2 O 0.0523(6) 0.3966(5) 0.1190(2)
O9_2 O 0.0478(5) 0.3386(5) 0.0470(2)
O11_2 O 0.4488(7) 0.0522(6) 0.0455(3)
N1_2 N 0.3763(9) 0.3466(7) 0.3088(3)
C1_2 C 0.3702(9) 0.1437(8) 0.3541(3)
C2_2 C 0.3659(8) 0.1619(7) 0.3026(3)
C3_2 C 0.3565(8) 0.2545(8) 0.2813(3)
C4_2 C 0.3341(8) 0.2687(7) 0.2346(3)
H7_2 H 0.3265 0.3334 0.2228
C5_2 C 0.3229(8) 0.1865(8) 0.2053(3)
C6_2 C 0.3378(9) 0.0908(8) 0.2252(4)
H8_2 H 0.3351 0.0341 0.2063
C7_2 C 0.3563(9) 0.0798(8) 0.2725(4)
H9_2 H 0.3625 0.0152 0.2847
C8_2 C 0.2943(8) 0.2001(8) 0.1557(3)
C9_2 C 0.2133(8) 0.2655(8) 0.1445(3)
H10_2 H 0.1802 0.3025 0.1678
C10_2 C 0.1815(7) 0.2756(8) 0.0979(3)
C11_2 C 0.2318(8) 0.2211(8) 0.0632(3)
H11_2 H 0.2105 0.2275 0.0322
C12_2 C 0.3136(8) 0.1572(7) 0.0746(3)
C13_2 C 0.3440(8) 0.1455(8) 0.1210(3)
H12_2 H 0.3978 0.1011 0.1287
C14_2 C 0.0896(7) 0.3403(7) 0.0871(3)
C15_2 C 0.3691(8) 0.1030(7) 0.0356(3)
O15_2 O 0.5512(7) 0.0522(6) 0.4545(3)
O10_2 O 0.3344(6) 0.1110(6) 0.9950(2)
Dy4_2 Dy 0.41061(3) 0.04299(3) 0.92996(2)
Dy1_2 Dy 0.41061(3) 0.95701(3) 0.42996(2)
O2_2 O 0.2274(7) 0.9715(8) 0.4116(3)
H2_2 H 0.1851 0.9327 0.4307
O6_2 O 0.3545(8) 0.8006(9) 0.3965(5)
H5_2 H 0.3683 0.7977 0.3658
H6_2 H 0.2851 0.7925 0.3998
Dy2_2 Dy 0.58939(3) 0.95701(3) 0.07004(2)
O12_2 O 0.5523(6) 0.8966(5) 0.3810(2)
O13_2 O 0.5478(5) 0.8386(5) 0.4530(2)
O14_2 O 0.3344(6) 0.8890(6) 0.4950(2)
Dy3_2 Dy 0.91061(3) 0.45701(3) 0.07004(2)
O12_3 O 0.0523(6) 0.6034(5) 0.6190(2)
O13_3 O 0.0478(5) 0.6614(5) 0.5470(2)
O10_3 O 0.8344(6) 0.3890(6) 0.0050(2)
O1_3 O 0.9076(7) 0.4389(6) 0.6339(2)
O2_3 O 0.7274(7) 0.5285(8) 0.5884(3)
H1_3 H 0.7024 0.4635 0.5855
H2_3 H 0.6851 0.5673 0.5693
O3_3 O 0.8348(7) 0.2902(6) 0.6193(3)
O4_3 O 0.8425(6) 0.3919(5) 0.5338(2)
H3_3 H 0.7802 0.4028 0.5219
H4_3 H 0.8371 0.3434 0.5544
O5_3 O 0.9600(9) 0.1468(9) 0.6717(4)
O6_3 O 0.8545(8) 0.6994(9) 0.6035(5)
H5_3 H 0.8683 0.7023 0.6342
H6_3 H 0.7851 0.7075 0.6002
O7_3 O 0.8132(11) 0.0866(8) 0.6924(4)
O8_3 O 0.5523(6) 0.1034(5) 0.8810(2)
O9_3 O 0.5478(5) 0.1614(5) 0.9530(2)
N1_3 N 0.8763(9) 0.1534(7) 0.6912(3)
C1_3 C 0.8702(9) 0.3563(8) 0.6459(3)
C2_3 C 0.8659(8) 0.3381(7) 0.6974(3)
C3_3 C 0.8565(8) 0.2455(8) 0.7187(3)
C4_3 C 0.8341(8) 0.2313(7) 0.7654(3)
H7_3 H 0.8265 0.1666 0.7772
C5_3 C 0.8229(8) 0.3135(8) 0.7947(3)
C6_3 C 0.8378(9) 0.4092(8) 0.7748(4)
H8_3 H 0.8351 0.4659 0.7937
C7_3 C 0.8563(9) 0.4202(8) 0.7275(4)
H9_3 H 0.8625 0.4848 0.7153
C8_3 C 0.7943(8) 0.2999(8) 0.8443(3)
C9_3 C 0.7133(8) 0.2345(8) 0.8555(3)
H10_3 H 0.6802 0.1975 0.8322
C10_3 C 0.6815(7) 0.2244(8) 0.9021(3)
C11_3 C 0.7318(8) 0.2789(8) 0.9368(3)
H11_3 H 0.7105 0.2725 0.9678
C12_3 C 0.8136(8) 0.3428(7) 0.9254(3)
C13_3 C 0.8440(8) 0.3545(8) 0.8790(3)
H12_3 H 0.8978 0.3989 0.8713
C14_3 C 0.5896(7) 0.1597(7) 0.9129(3)
C15_3 C 0.8691(8) 0.3970(7) 0.9644(3)
O14_3 O 0.8344(6) 0.6110(6) 0.5050(2)
O1_4 O 0.5924(7) 0.0611(6) 0.1339(2)
H1_4 H 0.7976 0.0365 0.0855
O3_4 O 0.6652(7) 0.2098(6) 0.1193(3)
O4_4 O 0.6575(6) 0.1081(5) 0.0338(2)
H3_4 H 0.7198 0.0972 0.0219
H4_4 H 0.6629 0.1566 0.0544
O5_4 O 0.5400(9) 0.3532(9) 0.1717(4)
O7_4 O 0.6868(11) 0.4134(8) 0.1924(4)
O8_4 O 0.9477(6) 0.3966(5) 0.3810(2)
O9_4 O 0.9522(5) 0.3386(5) 0.4530(2)
O10_4 O 0.6656(6) 0.1110(6) 0.5050(2)
N1_4 N 0.6237(9) 0.3466(7) 0.1912(3)
C1_4 C 0.6298(9) 0.1437(8) 0.1459(3)
C2_4 C 0.6341(8) 0.1619(7) 0.1974(3)
C3_4 C 0.6435(8) 0.2545(8) 0.2187(3)
C4_4 C 0.6659(8) 0.2687(7) 0.2654(3)
H7_4 H 0.6735 0.3334 0.2772
C5_4 C 0.6771(8) 0.1865(8) 0.2947(3)
C6_4 C 0.6622(9) 0.0908(8) 0.2748(4)
H8_4 H 0.6649 0.0341 0.2937
C7_4 C 0.6437(9) 0.0798(8) 0.2275(4)
H9_4 H 0.6375 0.0152 0.2153
C8_4 C 0.7057(8) 0.2001(8) 0.3443(3)
C9_4 C 0.7867(8) 0.2655(8) 0.3555(3)
H10_4 H 0.8198 0.3025 0.3322
C10_4 C 0.8185(7) 0.2756(8) 0.4021(3)
C11_4 C 0.7682(8) 0.2211(8) 0.4368(3)
H11_4 H 0.7895 0.2275 0.4678
C12_4 C 0.6864(8) 0.1572(7) 0.4254(3)
C13_4 C 0.6560(8) 0.1455(8) 0.3790(3)
H12_4 H 0.6022 0.1011 0.3713
C14_4 C 0.9104(7) 0.3403(7) 0.4129(3)
C15_4 C 0.6309(8) 0.1030(7) 0.4644(3)
O2_4 O 0.7726(7) 0.9715(8) 0.0884(3)
H2_4 H 0.8149 0.9327 0.0693
O6_4 O 0.6455(8) 0.8006(9) 0.1035(5)
H5_4 H 0.6317 0.7977 0.1342
H6_4 H 0.7149 0.7925 0.1002
O12_4 O 0.4477(6) 0.8966(5) 0.1190(2)
O13_4 O 0.4522(5) 0.8386(5) 0.0470(2)
O14_4 O 0.6656(6) 0.8890(6) 0.0050(2)
O15_3 O 0.0512(7) 0.5522(6) 0.0455(3)
O1_5 O 0.9076(7) 0.5611(6) 0.1339(2)
O2_5 O 0.7274(7) 0.4715(8) 0.0884(3)
H1_5 H 0.7024 0.5365 0.0855
H2_5 H 0.6851 0.4327 0.0693
O3_5 O 0.8348(7) 0.7098(6) 0.1193(3)
O4_5 O 0.8425(6) 0.6081(5) 0.0338(2)
H3_5 H 0.7802 0.5972 0.0219
H4_5 H 0.8371 0.6566 0.0544
O5_5 O 0.9600(9) 0.8532(9) 0.1717(4)
O6_5 O 0.8545(8) 0.3006(9) 0.1035(5)
H5_5 H 0.8683 0.2977 0.1342
H6_5 H 0.7851 0.2925 0.1002
O7_5 O 0.8132(11) 0.9134(8) 0.1924(4)
O11_3 O 0.9488(7) 0.5522(6) 0.4545(3)
N1_5 N 0.8763(9) 0.8466(7) 0.1912(3)
C1_5 C 0.8702(9) 0.6437(8) 0.1459(3)
C2_5 C 0.8659(8) 0.6619(7) 0.1974(3)
C3_5 C 0.8565(8) 0.7545(8) 0.2187(3)
C4_5 C 0.8341(8) 0.7687(7) 0.2654(3)
H7_5 H 0.8265 0.8334 0.2772
C5_5 C 0.8229(8) 0.6865(8) 0.2947(3)
C6_5 C 0.8378(9) 0.5908(8) 0.2748(4)
H8_5 H 0.8351 0.5341 0.2937
C7_5 C 0.8563(9) 0.5798(8) 0.2275(4)
H9_5 H 0.8625 0.5152 0.2153
C8_5 C 0.7943(8) 0.7001(8) 0.3443(3)
C9_5 C 0.7133(8) 0.7655(8) 0.3555(3)
H10_5 H 0.6802 0.8025 0.3322
C10_5 C 0.6815(7) 0.7756(8) 0.4021(3)
C11_5 C 0.7318(8) 0.7211(8) 0.4368(3)
H11_5 H 0.7105 0.7275 0.4678
C12_5 C 0.8136(8) 0.6572(7) 0.4254(3)
C13_5 C 0.8440(8) 0.6455(8) 0.3790(3)
H12_5 H 0.8978 0.6011 0.3713
C14_5 C 0.5896(7) 0.8403(7) 0.4129(3)
C15_5 C 0.8691(8) 0.6030(7) 0.4644(3)
O2_6 O 0.7726(7) 0.0285(8) 0.5884(3)
H2_6 H 0.8149 0.0673 0.5693
O6_6 O 0.6455(8) 0.1994(9) 0.6035(5)
H5_6 H 0.6317 0.2023 0.6342
H6_6 H 0.7149 0.2075 0.6002
O1_6 O 0.5924(7) 0.9389(6) 0.6339(2)
H1_6 H 0.7976 0.9635 0.5855
O3_6 O 0.6652(7) 0.7902(6) 0.6193(3)
O4_6 O 0.6575(6) 0.8919(5) 0.5338(2)
H3_6 H 0.7198 0.9028 0.5219
H4_6 H 0.6629 0.8434 0.5544
O5_6 O 0.5400(9) 0.6468(9) 0.6717(4)
O7_6 O 0.6868(11) 0.5866(8) 0.6924(4)
O11_4 O 0.5512(7) 0.9478(6) 0.9545(3)
N1_6 N 0.6237(9) 0.6534(7) 0.6912(3)
C1_6 C 0.6298(9) 0.8563(8) 0.6459(3)
C2_6 C 0.6341(8) 0.8381(7) 0.6974(3)
C3_6 C 0.6435(8) 0.7455(8) 0.7187(3)
C4_6 C 0.6659(8) 0.7313(7) 0.7654(3)
H7_6 H 0.6735 0.6666 0.7772
C5_6 C 0.6771(8) 0.8135(8) 0.7947(3)
C6_6 C 0.6622(9) 0.9092(8) 0.7748(4)
H8_6 H 0.6649 0.9659 0.7937
C7_6 C 0.6437(9) 0.9202(8) 0.7275(4)
H9_6 H 0.6375 0.9848 0.7153
C8_6 C 0.7057(8) 0.7999(8) 0.8443(3)
C9_6 C 0.7867(8) 0.7345(8) 0.8555(3)
H10_6 H 0.8198 0.6975 0.8322
C10_6 C 0.8185(7) 0.7244(8) 0.9021(3)
C11_6 C 0.7682(8) 0.7789(8) 0.9368(3)
H11_6 H 0.7895 0.7725 0.9678
C12_6 C 0.6864(8) 0.8428(7) 0.9254(3)
C13_6 C 0.6560(8) 0.8545(8) 0.8790(3)
H12_6 H 0.6022 0.8989 0.8713
C14_6 C 0.9104(7) 0.6597(7) 0.9129(3)
C15_6 C 0.6309(8) 0.8970(7) 0.9644(3)
O15_4 O 0.4488(7) 0.9478(6) 0.5455(3)
O1_7 O 0.0924(7) 0.5611(6) 0.3661(2)
O2_7 O 0.2726(7) 0.4715(8) 0.4116(3)
H1_7 H 0.2976 0.5365 0.4145
H2_7 H 0.3149 0.4327 0.4307
O3_7 O 0.1652(7) 0.7098(6) 0.3807(3)
O4_7 O 0.1575(6) 0.6081(5) 0.4662(2)
H3_7 H 0.2198 0.5972 0.4781
H4_7 H 0.1629 0.6566 0.4456
O5_7 O 0.0400(9) 0.8532(9) 0.3283(4)
O6_7 O 0.1455(8) 0.3006(9) 0.3965(5)
H5_7 H 0.1317 0.2977 0.3658
H6_7 H 0.2149 0.2925 0.3998
O7_7 O 0.1868(11) 0.9134(8) 0.3076(4)
N1_7 N 0.1237(9) 0.8466(7) 0.3088(3)
C1_7 C 0.1298(9) 0.6437(8) 0.3541(3)
C2_7 C 0.1341(8) 0.6619(7) 0.3026(3)
C3_7 C 0.1435(8) 0.7545(8) 0.2813(3)
C4_7 C 0.1659(8) 0.7687(7) 0.2346(3)
H7_7 H 0.1735 0.8334 0.2228
C5_7 C 0.1771(8) 0.6865(8) 0.2053(3)
C6_7 C 0.1622(9) 0.5908(8) 0.2252(4)
H8_7 H 0.1649 0.5341 0.2063
C7_7 C 0.1437(9) 0.5798(8) 0.2725(4)
H9_7 H 0.1375 0.5152 0.2847
C8_7 C 0.2057(8) 0.7001(8) 0.1557(3)
C9_7 C 0.2867(8) 0.7655(8) 0.1445(3)
H10_7 H 0.3198 0.8025 0.1678
C10_7 C 0.3185(7) 0.7756(8) 0.0979(3)
C11_7 C 0.2682(8) 0.7211(8) 0.0632(3)
H11_7 H 0.2895 0.7275 0.0322
C12_7 C 0.1864(8) 0.6572(7) 0.0746(3)
C13_7 C 0.1560(8) 0.6455(8) 0.1210(3)
H12_7 H 0.1022 0.6011 0.1287
C14_7 C 0.4104(7) 0.8403(7) 0.0871(3)
C15_7 C 0.1309(8) 0.6030(7) 0.0356(3)
O2_8 O 0.2274(7) 0.0285(8) 0.9116(3)
H2_8 H 0.1851 0.0673 0.9307
O6_8 O 0.3545(8) 0.1994(9) 0.8965(5)
H5_8 H 0.3683 0.2023 0.8658
H6_8 H 0.2851 0.2075 0.8998
O1_8 O 0.4076(7) 0.9389(6) 0.8661(2)
H1_8 H 0.2024 0.9635 0.9145
O3_8 O 0.3348(7) 0.7902(6) 0.8807(3)
O4_8 O 0.3425(6) 0.8919(5) 0.9662(2)
H3_8 H 0.2802 0.9028 0.9781
H4_8 H 0.3371 0.8434 0.9456
O5_8 O 0.4600(9) 0.6468(9) 0.8283(4)
O7_8 O 0.3132(11) 0.5866(8) 0.8076(4)
N1_8 N 0.3763(9) 0.6534(7) 0.8088(3)
C1_8 C 0.3702(9) 0.8563(8) 0.8541(3)
C2_8 C 0.3659(8) 0.8381(7) 0.8026(3)
C3_8 C 0.3565(8) 0.7455(8) 0.7813(3)
C4_8 C 0.3341(8) 0.7313(7) 0.7346(3)
H7_8 H 0.3265 0.6666 0.7228
C5_8 C 0.3229(8) 0.8135(8) 0.7053(3)
C6_8 C 0.3378(9) 0.9092(8) 0.7252(4)
H8_8 H 0.3351 0.9659 0.7063
C7_8 C 0.3563(9) 0.9202(8) 0.7725(4)
H9_8 H 0.3625 0.9848 0.7847
C8_8 C 0.2943(8) 0.7999(8) 0.6557(3)
C9_8 C 0.2133(8) 0.7345(8) 0.6445(3)
H10_8 H 0.1802 0.6975 0.6678
C10_8 C 0.1815(7) 0.7244(8) 0.5979(3)
C11_8 C 0.2318(8) 0.7789(8) 0.5632(3)
H11_8 H 0.2105 0.7725 0.5322
C12_8 C 0.3136(8) 0.8428(7) 0.5746(3)
C13_8 C 0.3440(8) 0.8545(8) 0.6210(3)
H12_8 H 0.3978 0.8989 0.6287
C14_8 C 0.0896(7) 0.6597(7) 0.5871(3)
C15_8 C 0.3691(8) 0.8970(7) 0.5356(3)
loop_
_geom_bond_atom_site_label_1
_geom_bond_atom_site_label_2
_geom_bond_site_symmetry_1
_geom_bond_site_symmetry_2
Dy1 O1 1_555 1_555
O1 C1 1_555 1_555
O2 Dy1 1_555 1_555
H1 O2 1_555 1_555
H2 O2 1_555 1_555
O3 C1 1_555 1_555
O4 Dy1 1_555 1_555
H3 O4 1_555 1_555
H4 O4 1_555 1_555
O5 N1 1_555 1_555
O6 Dy1 1_555 1_555
H5 O6 1_555 1_555
H6 O6 1_555 1_555
O7 N1 1_555 1_555
O8 C14 1_555 1_555
O9 C14 1_555 1_555
O10 C15 1_555 1_555
O11 C15 1_555 1_555
N1 C3 1_555 1_555
C1 C2 1_555 1_555
C2 C3 1_555 1_555
C3 C4 1_555 1_555
C4 H7 1_555 1_555
C5 C4 1_555 1_555
C6 C5 1_555 1_555
H8 C6 1_555 1_555
C7 C2 1_555 1_555
H9 C7 1_555 1_555
C8 C5 1_555 1_555
C9 C8 1_555 1_555
H10 C9 1_555 1_555
C10 C9 1_555 1_555
C11 C10 1_555 1_555
H11 C11 1_555 1_555
C12 C11 1_555 1_555
C13 C8 1_555 1_555
H12 C13 1_555 1_555
C14 C10 1_555 1_555
C15 C12 1_555 1_555
Dy3 O8 1_555 1_555
Dy4 O10 1_555 1_555
O14 Dy1 1_555 1_555
O9 Dy3 1_555 1_555
C6 C7 1_555 1_555
C12 C13 1_555 1_555
O1_2 C1_2 1_555 1_555
O3_2 C1_2 1_555 1_555
H3_2 O4_2 1_555 1_555
H4_2 O4_2 1_555 1_555
O5_2 N1_2 1_555 1_555
O7_2 N1_2 1_555 1_555
O8_2 C14_2 1_555 1_555
O9_2 C14_2 1_555 1_555
O11_2 C15_2 1_555 1_555
N1_2 C3_2 1_555 1_555
C1_2 C2_2 1_555 1_555
C2_2 C3_2 1_555 1_555
C3_2 C4_2 1_555 1_555
C4_2 H7_2 1_555 1_555
C5_2 C4_2 1_555 1_555
C6_2 C5_2 1_555 1_555
H8_2 C6_2 1_555 1_555
C7_2 C2_2 1_555 1_555
H9_2 C7_2 1_555 1_555
C8_2 C5_2 1_555 1_555
C9_2 C8_2 1_555 1_555
H10_2 C9_2 1_555 1_555
C10_2 C9_2 1_555 1_555
C11_2 C10_2 1_555 1_555
H11_2 C11_2 1_555 1_555
C12_2 C11_2 1_555 1_555
C13_2 C8_2 1_555 1_555
H12_2 C13_2 1_555 1_555
C14_2 C10_2 1_555 1_555
C15_2 C12_2 1_555 1_555
C6_2 C7_2 1_555 1_555
C12_2 C13_2 1_555 1_555
Dy4_2 O10_2 1_555 1_555
O2_2 Dy1_2 1_555 1_555
H2_2 O2_2 1_555 1_555
O6_2 Dy1_2 1_555 1_555
H5_2 O6_2 1_555 1_555
H6_2 O6_2 1_555 1_555
O12_2 Dy1_2 1_555 1_555
O13_2 Dy1_2 1_555 1_555
O14_2 Dy1_2 1_555 1_555
Dy3_2 O10_3 1_555 1_555
Dy2 O1_3 1_555 1_555
O1_3 C1_3 1_555 1_555
O2_3 Dy2 1_555 1_555
H1_3 O2_3 1_555 1_555
H2_3 O2_3 1_555 1_555
O3_3 C1_3 1_555 1_555
O4_3 Dy2 1_555 1_555
H3_3 O4_3 1_555 1_555
H4_3 O4_3 1_555 1_555
O5_3 N1_3 1_555 1_555
O6_3 Dy2 1_555 1_555
H5_3 O6_3 1_555 1_555
H6_3 O6_3 1_555 1_555
O7_3 N1_3 1_555 1_555
O8_3 C14_3 1_555 1_555
O9_3 C14_3 1_555 1_555
O15 C15_3 1_555 1_555
N1_3 C3_3 1_555 1_555
C1_3 C2_3 1_555 1_555
C2_3 C3_3 1_555 1_555
C3_3 C4_3 1_555 1_555
C4_3 H7_3 1_555 1_555
C5_3 C4_3 1_555 1_555
C6_3 C5_3 1_555 1_555
H8_3 C6_3 1_555 1_555
C7_3 C2_3 1_555 1_555
H9_3 C7_3 1_555 1_555
C8_3 C5_3 1_555 1_555
C9_3 C8_3 1_555 1_555
H10_3 C9_3 1_555 1_555
C10_3 C9_3 1_555 1_555
C11_3 C10_3 1_555 1_555
H11_3 C11_3 1_555 1_555
C12_3 C11_3 1_555 1_555
C13_3 C8_3 1_555 1_555
H12_3 C13_3 1_555 1_555
C14_3 C10_3 1_555 1_555
C15_3 C12_3 1_555 1_555
Dy4_2 O8_3 1_555 1_555
O14_3 Dy2 1_555 1_555
O9_3 Dy4_2 1_555 1_555
C6_3 C7_3 1_555 1_555
C12_3 C13_3 1_555 1_555
O1_4 C1_4 1_555 1_555
O3_4 C1_4 1_555 1_555
H3_4 O4_4 1_555 1_555
H4_4 O4_4 1_555 1_555
O5_4 N1_4 1_555 1_555
O7_4 N1_4 1_555 1_555
O8_4 C14_4 1_555 1_555
O9_4 C14_4 1_555 1_555
O10_4 C15_4 1_555 1_555
O15_2 C15_4 1_555 1_555
N1_4 C3_4 1_555 1_555
C1_4 C2_4 1_555 1_555
C2_4 C3_4 1_555 1_555
C3_4 C4_4 1_555 1_555
C4_4 H7_4 1_555 1_555
C5_4 C4_4 1_555 1_555
C6_4 C5_4 1_555 1_555
H8_4 C6_4 1_555 1_555
C7_4 C2_4 1_555 1_555
H9_4 C7_4 1_555 1_555
C8_4 C5_4 1_555 1_555
C9_4 C8_4 1_555 1_555
H10_4 C9_4 1_555 1_555
C10_4 C9_4 1_555 1_555
C11_4 C10_4 1_555 1_555
H11_4 C11_4 1_555 1_555
C12_4 C11_4 1_555 1_555
C13_4 C8_4 1_555 1_555
H12_4 C13_4 1_555 1_555
C14_4 C10_4 1_555 1_555
C15_4 C12_4 1_555 1_555
Dy3 O10_4 1_555 1_555
C6_4 C7_4 1_555 1_555
C12_4 C13_4 1_555 1_555
O2_4 Dy2_2 1_555 1_555
H2_4 O2_4 1_555 1_555
O6_4 Dy2_2 1_555 1_555
H5_4 O6_4 1_555 1_555
H6_4 O6_4 1_555 1_555
O12_4 Dy2_2 1_555 1_555
O13_4 Dy2_2 1_555 1_555
O14_4 Dy2_2 1_555 1_555
Dy3_2 O1_5 1_555 1_555
O1_5 C1_5 1_555 1_555
O2_5 Dy3_2 1_555 1_555
H1_5 O2_5 1_555 1_555
H2_5 O2_5 1_555 1_555
O3_5 C1_5 1_555 1_555
O4_5 Dy3_2 1_555 1_555
H3_5 O4_5 1_555 1_555
H4_5 O4_5 1_555 1_555
O5_5 N1_5 1_555 1_555
O6_5 Dy3_2 1_555 1_555
H5_5 O6_5 1_555 1_555
H6_5 O6_5 1_555 1_555
O7_5 N1_5 1_555 1_555
O12_2 C14_5 1_555 1_555
O13_2 C14_5 1_555 1_555
O14_3 C15_5 1_555 1_555
O11_3 C15_5 1_555 1_555
N1_5 C3_5 1_555 1_555
C1_5 C2_5 1_555 1_555
C2_5 C3_5 1_555 1_555
C3_5 C4_5 1_555 1_555
C4_5 H7_5 1_555 1_555
C5_5 C4_5 1_555 1_555
C6_5 C5_5 1_555 1_555
H8_5 C6_5 1_555 1_555
C7_5 C2_5 1_555 1_555
H9_5 C7_5 1_555 1_555
C8_5 C5_5 1_555 1_555
C9_5 C8_5 1_555 1_555
H10_5 C9_5 1_555 1_555
C10_5 C9_5 1_555 1_555
C11_5 C10_5 1_555 1_555
H11_5 C11_5 1_555 1_555
C12_5 C11_5 1_555 1_555
C13_5 C8_5 1_555 1_555
H12_5 C13_5 1_555 1_555
C14_5 C10_5 1_555 1_555
C15_5 C12_5 1_555 1_555
C6_5 C7_5 1_555 1_555
C12_5 C13_5 1_555 1_555
O2_6 Dy3 1_555 1_555
H2_6 O2_6 1_555 1_555
O6_6 Dy3 1_555 1_555
H5_6 O6_6 1_555 1_555
H6_6 O6_6 1_555 1_555
O1_6 C1_6 1_555 1_555
O3_6 C1_6 1_555 1_555
H3_6 O4_6 1_555 1_555
H4_6 O4_6 1_555 1_555
O5_6 N1_6 1_555 1_555
O7_6 N1_6 1_555 1_555
O12 C14_6 1_555 1_555
O13 C14_6 1_555 1_555
O11_4 C15_6 1_555 1_555
N1_6 C3_6 1_555 1_555
C1_6 C2_6 1_555 1_555
C2_6 C3_6 1_555 1_555
C3_6 C4_6 1_555 1_555
C4_6 H7_6 1_555 1_555
C5_6 C4_6 1_555 1_555
C6_6 C5_6 1_555 1_555
H8_6 C6_6 1_555 1_555
C7_6 C2_6 1_555 1_555
H9_6 C7_6 1_555 1_555
C8_6 C5_6 1_555 1_555
C9_6 C8_6 1_555 1_555
H10_6 C9_6 1_555 1_555
C10_6 C9_6 1_555 1_555
C11_6 C10_6 1_555 1_555
H11_6 C11_6 1_555 1_555
C12_6 C11_6 1_555 1_555
C13_6 C8_6 1_555 1_555
H12_6 C13_6 1_555 1_555
C14_6 C10_6 1_555 1_555
C15_6 C12_6 1_555 1_555
C6_6 C7_6 1_555 1_555
C12_6 C13_6 1_555 1_555
Dy4 O1_7 1_555 1_555
O1_7 C1_7 1_555 1_555
O2_7 Dy4 1_555 1_555
H1_7 O2_7 1_555 1_555
H2_7 O2_7 1_555 1_555
O3_7 C1_7 1_555 1_555
O4_7 Dy4 1_555 1_555
H3_7 O4_7 1_555 1_555
H4_7 O4_7 1_555 1_555
O5_7 N1_7 1_555 1_555
O6_7 Dy4 1_555 1_555
H5_7 O6_7 1_555 1_555
H6_7 O6_7 1_555 1_555
O7_7 N1_7 1_555 1_555
O12_4 C14_7 1_555 1_555
O13_4 C14_7 1_555 1_555
O15_3 C15_7 1_555 1_555
N1_7 C3_7 1_555 1_555
C1_7 C2_7 1_555 1_555
C2_7 C3_7 1_555 1_555
C3_7 C4_7 1_555 1_555
C4_7 H7_7 1_555 1_555
C5_7 C4_7 1_555 1_555
C6_7 C5_7 1_555 1_555
H8_7 C6_7 1_555 1_555
C7_7 C2_7 1_555 1_555
H9_7 C7_7 1_555 1_555
C8_7 C5_7 1_555 1_555
C9_7 C8_7 1_555 1_555
H10_7 C9_7 1_555 1_555
C10_7 C9_7 1_555 1_555
C11_7 C10_7 1_555 1_555
H11_7 C11_7 1_555 1_555
C12_7 C11_7 1_555 1_555
C13_7 C8_7 1_555 1_555
H12_7 C13_7 1_555 1_555
C14_7 C10_7 1_555 1_555
C15_7 C12_7 1_555 1_555
C6_7 C7_7 1_555 1_555
C12_7 C13_7 1_555 1_555
O2_8 Dy4_2 1_555 1_555
H2_8 O2_8 1_555 1_555
O6_8 Dy4_2 1_555 1_555
H5_8 O6_8 1_555 1_555
H6_8 O6_8 1_555 1_555
O1_8 C1_8 1_555 1_555
O3_8 C1_8 1_555 1_555
H3_8 O4_8 1_555 1_555
H4_8 O4_8 1_555 1_555
O5_8 N1_8 1_555 1_555
O7_8 N1_8 1_555 1_555
O12_3 C14_8 1_555 1_555
O13_3 C14_8 1_555 1_555
O14_2 C15_8 1_555 1_555
O15_4 C15_8 1_555 1_555
N1_8 C3_8 1_555 1_555
C1_8 C2_8 1_555 1_555
C2_8 C3_8 1_555 1_555
C3_8 C4_8 1_555 1_555
C4_8 H7_8 1_555 1_555
C5_8 C4_8 1_555 1_555
C6_8 C5_8 1_555 1_555
H8_8 C6_8 1_555 1_555
C7_8 C2_8 1_555 1_555
H9_8 C7_8 1_555 1_555
C8_8 C5_8 1_555 1_555
C9_8 C8_8 1_555 1_555
H10_8 C9_8 1_555 1_555
C10_8 C9_8 1_555 1_555
C11_8 C10_8 1_555 1_555
H11_8 C11_8 1_555 1_555
C12_8 C11_8 1_555 1_555
C13_8 C8_8 1_555 1_555
H12_8 C13_8 1_555 1_555
C14_8 C10_8 1_555 1_555
C15_8 C12_8 1_555 1_555
C6_8 C7_8 1_555 1_555
C12_8 C13_8 1_555 1_555

#END
