
###############################################################################
#
# This file contains modified crystal structure data generated from the
# MOF subset of the Cambridge Structural Database (CSD) v543 
# hosted by the Cambridge Crystallographic Data Centre (CCDC).
#
# This work is licensed under the Creative Commons
# Attribution-NonCommercial-ShareAlike 4.0 International License.
# To view a copy of this license, visit
# http://creativecommons.org/licenses/by-nc-sa/4.0/
# or send a letter to
# Creative Commons, PO Box 1866, Mountain View, CA 94042, USA.
#
# CIF created using the CSD Python API on 29 September 2022
# The structure has been converted into the P1 space group
# The structure has a 3D framework
# The original CSD entry DALTAO is in the orthorhombic crystal system
# The framework has been calculated to contain at least 10.0% void space
# The void calculation uses a probe of radius 1.32A, grid spacing 0.4
#
###############################################################################

data_DALTAO
_chemical_formula_moiety         '(C120 H96 Eu8 N8 O84)n'
_symmetry_cell_setting           triclinic
_symmetry_space_group_name_H-M   'P 1'
_symmetry_Int_Tables_number      1
_space_group_name_Hall           'P 1'
loop_
_symmetry_equiv_pos_site_id
_symmetry_equiv_pos_as_xyz
1 x,y,z
_cell_length_a                   12.780(2)
_cell_length_b                   13.358(3)
_cell_length_c                   28.668(5)
_cell_angle_alpha                90
_cell_angle_beta                 90
_cell_angle_gamma                90
_cell_volume                     4894.06
loop_
_atom_site_label
_atom_site_type_symbol
_atom_site_fract_x
_atom_site_fract_y
_atom_site_fract_z
Eu3 Eu 0.08915(3) 0.95801(3) 0.56996(2)
Eu1 Eu 0.58915(3) 0.45801(3) 0.93004(2)
O1 O 0.5905(6) 0.5629(5) 0.8660(2)
O2 O 0.7725(5) 0.4733(7) 0.9112(3)
H1 H 0.8142 0.4270 0.9272
H2 H 0.8007 0.5358 0.9186
O3 O 0.6642(6) 0.7115(5) 0.8809(2)
O4 O 0.6463(7) 0.3036(8) 0.8959(4)
H3 H 0.6181 0.2923 0.8665
H4 H 0.6278 0.2482 0.9136
O5 O 0.5396(8) 0.8536(7) 0.8290(3)
O6 O 0.6582(5) 0.6102(5) 0.9657(2)
H5 H 0.7014 0.5953 0.9885
H6 H 0.6073 0.6466 0.9773
O7 O 0.6866(9) 0.9141(7) 0.8072(3)
O8 O 0.9469(5) 0.8965(5) 0.61908(19)
O9 O 0.9514(4) 0.8385(4) 0.54712(17)
O10 O 0.6668(5) 0.6115(6) 0.4952(2)
O11 O 0.5527(6) 0.5531(5) 0.5445(2)
N1 N 0.6226(8) 0.8471(6) 0.8083(3)
C1 C 0.6300(8) 0.6447(7) 0.8544(3)
C2 C 0.6346(7) 0.6634(7) 0.8023(3)
C3 C 0.6431(7) 0.7559(7) 0.7814(3)
C4 C 0.6658(7) 0.7701(6) 0.7347(3)
H7 H 0.6740 0.8345 0.7228
C5 C 0.6763(7) 0.6869(7) 0.7055(3)
C6 C 0.6628(8) 0.5924(7) 0.7250(3)
H8 H 0.6676 0.5361 0.7060
C7 C 0.6421(8) 0.5805(7) 0.7725(3)
H9 H 0.6330 0.5165 0.7846
C8 C 0.7051(7) 0.7003(6) 0.6558(3)
C9 C 0.7856(7) 0.7654(7) 0.6439(3)
H10 H 0.8177 0.8031 0.6672
C10 C 0.8195(6) 0.7754(6) 0.5980(3)
C11 C 0.7683(6) 0.7210(6) 0.5634(3)
H11 H 0.7896 0.7277 0.5326
C12 C 0.6871(7) 0.6578(6) 0.5739(3)
C13 C 0.6557(7) 0.6466(7) 0.6210(3)
H12 H 0.6016 0.6029 0.6285
C14 C 0.9106(6) 0.8407(6) 0.5874(3)
C15 C 0.6314(7) 0.6035(6) 0.5354(3)
Eu2 Eu 0.41085(3) 0.45801(3) 0.56996(2)
Eu4 Eu 0.58915(3) 0.54199(3) 0.43004(2)
O12 O 0.4469(5) 0.3965(5) 0.88092(19)
O13 O 0.4514(4) 0.3385(4) 0.95288(17)
O14 O 0.6668(5) 0.3885(6) 0.9952(2)
O15 O 0.4473(6) 0.5531(5) 0.9555(2)
Eu2_2 Eu 0.08915(3) 0.04199(3) 0.06996(2)
O12_2 O 0.0531(5) 0.1035(5) 0.38092(19)
O13_2 O 0.0486(4) 0.1615(4) 0.45288(17)
O15_2 O 0.0527(6) 0.9469(5) 0.4555(2)
Eu1_2 Eu 0.91085(3) 0.04199(3) 0.43004(2)
O2_2 O 0.7275(5) 0.0267(7) 0.4112(3)
H1_2 H 0.6858 0.0730 0.4272
O4_2 O 0.8537(7) 0.1964(8) 0.3959(4)
H3_2 H 0.8819 0.2077 0.3665
H4_2 H 0.8722 0.2518 0.4136
O14_2 O 0.8332(5) 0.1115(6) 0.4952(2)
O1_2 O 0.9095(6) 0.9371(5) 0.3660(2)
H2_2 H 0.6993 0.9642 0.4186
O3_2 O 0.8358(6) 0.7885(5) 0.3809(2)
O5_2 O 0.9604(8) 0.6464(7) 0.3290(3)
O6_2 O 0.8418(5) 0.8898(5) 0.4657(2)
H5_2 H 0.7986 0.9047 0.4885
H6_2 H 0.8927 0.8534 0.4773
O7_2 O 0.8134(9) 0.5859(7) 0.3072(3)
O8_2 O 0.5531(5) 0.6035(5) 0.11908(19)
O9_2 O 0.5486(4) 0.6615(4) 0.04712(17)
O11_2 O 0.9473(6) 0.9469(5) 0.0445(2)
N1_2 N 0.8774(8) 0.6529(6) 0.3083(3)
C1_2 C 0.8700(8) 0.8553(7) 0.3544(3)
C2_2 C 0.8654(7) 0.8366(7) 0.3023(3)
C3_2 C 0.8569(7) 0.7441(7) 0.2814(3)
C4_2 C 0.8342(7) 0.7299(6) 0.2347(3)
H7_2 H 0.8260 0.6655 0.2228
C5_2 C 0.8237(7) 0.8131(7) 0.2055(3)
C6_2 C 0.8372(8) 0.9076(7) 0.2250(3)
H8_2 H 0.8324 0.9639 0.2060
C7_2 C 0.8579(8) 0.9195(7) 0.2725(3)
H9_2 H 0.8670 0.9835 0.2846
C8_2 C 0.7949(7) 0.7997(6) 0.1558(3)
C9_2 C 0.7144(7) 0.7346(7) 0.1439(3)
H10_2 H 0.6823 0.6969 0.1672
C10_2 C 0.6805(6) 0.7246(6) 0.0980(3)
C11_2 C 0.7317(6) 0.7790(6) 0.0634(3)
H11_2 H 0.7104 0.7723 0.0326
C12_2 C 0.8129(7) 0.8422(6) 0.0739(3)
C13_2 C 0.8443(7) 0.8534(7) 0.1210(3)
H12_2 H 0.8984 0.8971 0.1285
C14_2 C 0.5894(6) 0.6593(6) 0.0874(3)
C15_2 C 0.8686(7) 0.8965(6) 0.0354(3)
Eu3_2 Eu 0.41085(3) 0.54199(3) 0.06996(2)
O10_2 O 0.8332(5) 0.8885(6) 0.9952(2)
Eu4_2 Eu 0.91085(3) 0.95801(3) 0.93004(2)
O2_3 O 0.2725(5) 0.0267(7) 0.0888(3)
H1_3 H 0.3142 0.0730 0.0728
O4_3 O 0.1463(7) 0.1964(8) 0.1041(4)
H3_3 H 0.1181 0.2077 0.1335
H4_3 H 0.1278 0.2518 0.0864
O14_3 O 0.1668(5) 0.1115(6) 0.0048(2)
O1_3 O 0.0905(6) 0.9371(5) 0.1340(2)
H2_3 H 0.3007 0.9642 0.0814
O3_3 O 0.1642(6) 0.7885(5) 0.1191(2)
O5_3 O 0.0396(8) 0.6464(7) 0.1710(3)
O6_3 O 0.1582(5) 0.8898(5) 0.0343(2)
H5_3 H 0.2014 0.9047 0.0115
H6_3 H 0.1073 0.8534 0.0227
O7_3 O 0.1866(9) 0.5859(7) 0.1928(3)
O8_3 O 0.4469(5) 0.6035(5) 0.38092(19)
O9_3 O 0.4514(4) 0.6615(4) 0.45288(17)
O10_3 O 0.1668(5) 0.8885(6) 0.5048(2)
N1_3 N 0.1226(8) 0.6529(6) 0.1917(3)
C1_3 C 0.1300(8) 0.8553(7) 0.1456(3)
C2_3 C 0.1346(7) 0.8366(7) 0.1977(3)
C3_3 C 0.1431(7) 0.7441(7) 0.2186(3)
C4_3 C 0.1658(7) 0.7299(6) 0.2653(3)
H7_3 H 0.1740 0.6655 0.2772
C5_3 C 0.1763(7) 0.8131(7) 0.2945(3)
C6_3 C 0.1628(8) 0.9076(7) 0.2750(3)
H8_3 H 0.1676 0.9639 0.2940
C7_3 C 0.1421(8) 0.9195(7) 0.2275(3)
H9_3 H 0.1330 0.9835 0.2154
C8_3 C 0.2051(7) 0.7997(6) 0.3442(3)
C9_3 C 0.2856(7) 0.7346(7) 0.3561(3)
H10_3 H 0.3177 0.6969 0.3328
C10_3 C 0.3195(6) 0.7246(6) 0.4020(3)
C11_3 C 0.2683(6) 0.7790(6) 0.4366(3)
H11_3 H 0.2896 0.7723 0.4674
C12_3 C 0.1871(7) 0.8422(6) 0.4261(3)
C13_3 C 0.1557(7) 0.8534(7) 0.3790(3)
H12_3 H 0.1016 0.8971 0.3715
C14_3 C 0.4106(6) 0.6593(6) 0.4126(3)
C15_3 C 0.1314(7) 0.8965(6) 0.4646(3)
O12_3 O 0.9469(5) 0.1035(5) 0.11908(19)
O13_3 O 0.9514(4) 0.1615(4) 0.04712(17)
O10_4 O 0.3332(5) 0.6115(6) 0.0048(2)
O1_4 O 0.4095(6) 0.5629(5) 0.6340(2)
O2_4 O 0.2275(5) 0.4733(7) 0.5888(3)
H1_4 H 0.1858 0.4270 0.5728
H2_4 H 0.1993 0.5358 0.5814
O3_4 O 0.3358(6) 0.7115(5) 0.6191(2)
O4_4 O 0.3537(7) 0.3036(8) 0.6041(4)
H3_4 H 0.3819 0.2923 0.6335
H4_4 H 0.3722 0.2482 0.5864
O5_4 O 0.4604(8) 0.8536(7) 0.6710(3)
O6_4 O 0.3418(5) 0.6102(5) 0.5343(2)
H5_4 H 0.2986 0.5953 0.5115
H6_4 H 0.3927 0.6466 0.5227
O7_4 O 0.3134(9) 0.9141(7) 0.6928(3)
O8_4 O 0.0531(5) 0.8965(5) 0.88092(19)
O9_4 O 0.0486(4) 0.8385(4) 0.95288(17)
N1_4 N 0.3774(8) 0.8471(6) 0.6917(3)
C1_4 C 0.3700(8) 0.6447(7) 0.6456(3)
C2_4 C 0.3654(7) 0.6634(7) 0.6977(3)
C3_4 C 0.3569(7) 0.7559(7) 0.7186(3)
C4_4 C 0.3342(7) 0.7701(6) 0.7653(3)
H7_4 H 0.3260 0.8345 0.7772
C5_4 C 0.3237(7) 0.6869(7) 0.7945(3)
C6_4 C 0.3372(8) 0.5924(7) 0.7750(3)
H8_4 H 0.3324 0.5361 0.7940
C7_4 C 0.3579(8) 0.5805(7) 0.7275(3)
H9_4 H 0.3670 0.5165 0.7154
C8_4 C 0.2949(7) 0.7003(6) 0.8442(3)
C9_4 C 0.2144(7) 0.7654(7) 0.8561(3)
H10_4 H 0.1823 0.8031 0.8328
C10_4 C 0.1805(6) 0.7754(6) 0.9020(3)
C11_4 C 0.2317(6) 0.7210(6) 0.9366(3)
H11_4 H 0.2104 0.7277 0.9674
C12_4 C 0.3129(7) 0.6578(6) 0.9261(3)
C13_4 C 0.3443(7) 0.6466(7) 0.8790(3)
H12_4 H 0.3984 0.6029 0.8715
C14_4 C 0.0894(6) 0.8407(6) 0.9126(3)
C15_4 C 0.3686(7) 0.6035(6) 0.9646(3)
O12_4 O 0.5531(5) 0.3965(5) 0.61908(19)
O13_4 O 0.5486(4) 0.3385(4) 0.54712(17)
O14_4 O 0.3332(5) 0.3885(6) 0.5048(2)
O1_5 O 0.4095(6) 0.4371(5) 0.1340(2)
O2_5 O 0.2275(5) 0.5267(7) 0.0888(3)
H1_5 H 0.1858 0.5730 0.0728
H2_5 H 0.1993 0.4642 0.0814
O3_5 O 0.3358(6) 0.2885(5) 0.1191(2)
O4_5 O 0.3537(7) 0.6964(8) 0.1041(4)
H3_5 H 0.3819 0.7077 0.1335
H4_5 H 0.3722 0.7518 0.0864
O5_5 O 0.4604(8) 0.1464(7) 0.1710(3)
O6_5 O 0.3418(5) 0.3898(5) 0.0343(2)
H5_5 H 0.2986 0.4047 0.0115
H6_5 H 0.3927 0.3534 0.0227
O7_5 O 0.3134(9) 0.0859(7) 0.1928(3)
O11_3 O 0.4473(6) 0.4469(5) 0.4555(2)
N1_5 N 0.3774(8) 0.1529(6) 0.1917(3)
C1_5 C 0.3700(8) 0.3553(7) 0.1456(3)
C2_5 C 0.3654(7) 0.3366(7) 0.1977(3)
C3_5 C 0.3569(7) 0.2441(7) 0.2186(3)
C4_5 C 0.3342(7) 0.2299(6) 0.2653(3)
H7_5 H 0.3260 0.1655 0.2772
C5_5 C 0.3237(7) 0.3131(7) 0.2945(3)
C6_5 C 0.3372(8) 0.4076(7) 0.2750(3)
H8_5 H 0.3324 0.4639 0.2940
C7_5 C 0.3579(8) 0.4195(7) 0.2275(3)
H9_5 H 0.3670 0.4835 0.2154
C8_5 C 0.2949(7) 0.2997(6) 0.3442(3)
C9_5 C 0.2144(7) 0.2346(7) 0.3561(3)
H10_5 H 0.1823 0.1969 0.3328
C10_5 C 0.1805(6) 0.2246(6) 0.4020(3)
C11_5 C 0.2317(6) 0.2790(6) 0.4366(3)
H11_5 H 0.2104 0.2723 0.4674
C12_5 C 0.3129(7) 0.3422(6) 0.4261(3)
C13_5 C 0.3443(7) 0.3534(7) 0.3790(3)
H12_5 H 0.3984 0.3971 0.3715
C14_5 C 0.0894(6) 0.1593(6) 0.4126(3)
C15_5 C 0.3686(7) 0.3965(6) 0.4646(3)
O15_3 O 0.5527(6) 0.4469(5) 0.0445(2)
O1_6 O 0.0905(6) 0.0629(5) 0.6340(2)
H2_6 H 0.3007 0.0358 0.5814
O3_6 O 0.1642(6) 0.2115(5) 0.6191(2)
O5_6 O 0.0396(8) 0.3536(7) 0.6710(3)
O6_6 O 0.1582(5) 0.1102(5) 0.5343(2)
H5_6 H 0.2014 0.0953 0.5115
H6_6 H 0.1073 0.1466 0.5227
O7_6 O 0.1866(9) 0.4141(7) 0.6928(3)
O11_4 O 0.0527(6) 0.0531(5) 0.9555(2)
N1_6 N 0.1226(8) 0.3471(6) 0.6917(3)
C1_6 C 0.1300(8) 0.1447(7) 0.6456(3)
C2_6 C 0.1346(7) 0.1634(7) 0.6977(3)
C3_6 C 0.1431(7) 0.2559(7) 0.7186(3)
C4_6 C 0.1658(7) 0.2701(6) 0.7653(3)
H7_6 H 0.1740 0.3345 0.7772
C5_6 C 0.1763(7) 0.1869(7) 0.7945(3)
C6_6 C 0.1628(8) 0.0924(7) 0.7750(3)
H8_6 H 0.1676 0.0361 0.7940
C7_6 C 0.1421(8) 0.0805(7) 0.7275(3)
H9_6 H 0.1330 0.0165 0.7154
C8_6 C 0.2051(7) 0.2003(6) 0.8442(3)
C9_6 C 0.2856(7) 0.2654(7) 0.8561(3)
H10_6 H 0.3177 0.3031 0.8328
C10_6 C 0.3195(6) 0.2754(6) 0.9020(3)
C11_6 C 0.2683(6) 0.2210(6) 0.9366(3)
H11_6 H 0.2896 0.2277 0.9674
C12_6 C 0.1871(7) 0.1578(6) 0.9261(3)
C13_6 C 0.1557(7) 0.1466(7) 0.8790(3)
H12_6 H 0.1016 0.1029 0.8715
C14_6 C 0.4106(6) 0.3407(6) 0.9126(3)
C15_6 C 0.1314(7) 0.1035(6) 0.9646(3)
O2_6 O 0.2725(5) 0.9733(7) 0.5888(3)
H1_6 H 0.3142 0.9270 0.5728
O4_6 O 0.1463(7) 0.8036(8) 0.6041(4)
H3_6 H 0.1181 0.7923 0.6335
H4_6 H 0.1278 0.7482 0.5864
O15_4 O 0.9473(6) 0.0531(5) 0.5445(2)
O1_7 O 0.9095(6) 0.0629(5) 0.8660(2)
H2_7 H 0.6993 0.0358 0.9186
O3_7 O 0.8358(6) 0.2115(5) 0.8809(2)
O5_7 O 0.9604(8) 0.3536(7) 0.8290(3)
O6_7 O 0.8418(5) 0.1102(5) 0.9657(2)
H5_7 H 0.7986 0.0953 0.9885
H6_7 H 0.8927 0.1466 0.9773
O7_7 O 0.8134(9) 0.4141(7) 0.8072(3)
N1_7 N 0.8774(8) 0.3471(6) 0.8083(3)
C1_7 C 0.8700(8) 0.1447(7) 0.8544(3)
C2_7 C 0.8654(7) 0.1634(7) 0.8023(3)
C3_7 C 0.8569(7) 0.2559(7) 0.7814(3)
C4_7 C 0.8342(7) 0.2701(6) 0.7347(3)
H7_7 H 0.8260 0.3345 0.7228
C5_7 C 0.8237(7) 0.1869(7) 0.7055(3)
C6_7 C 0.8372(8) 0.0924(7) 0.7250(3)
H8_7 H 0.8324 0.0361 0.7060
C7_7 C 0.8579(8) 0.0805(7) 0.7725(3)
H9_7 H 0.8670 0.0165 0.7846
C8_7 C 0.7949(7) 0.2003(6) 0.6558(3)
C9_7 C 0.7144(7) 0.2654(7) 0.6439(3)
H10_7 H 0.6823 0.3031 0.6672
C10_7 C 0.6805(6) 0.2754(6) 0.5980(3)
C11_7 C 0.7317(6) 0.2210(6) 0.5634(3)
H11_7 H 0.7104 0.2277 0.5326
C12_7 C 0.8129(7) 0.1578(6) 0.5739(3)
C13_7 C 0.8443(7) 0.1466(7) 0.6210(3)
H12_7 H 0.8984 0.1029 0.6285
C14_7 C 0.5894(6) 0.3407(6) 0.5874(3)
C15_7 C 0.8686(7) 0.1035(6) 0.5354(3)
O2_7 O 0.7275(5) 0.9733(7) 0.9112(3)
H1_7 H 0.6858 0.9270 0.9272
O4_7 O 0.8537(7) 0.8036(8) 0.8959(4)
H3_7 H 0.8819 0.7923 0.8665
H4_7 H 0.8722 0.7482 0.9136
O1_8 O 0.5905(6) 0.4371(5) 0.3660(2)
O2_8 O 0.7725(5) 0.5267(7) 0.4112(3)
H1_8 H 0.8142 0.5730 0.4272
H2_8 H 0.8007 0.4642 0.4186
O3_8 O 0.6642(6) 0.2885(5) 0.3809(2)
O4_8 O 0.6463(7) 0.6964(8) 0.3959(4)
H3_8 H 0.6181 0.7077 0.3665
H4_8 H 0.6278 0.7518 0.4136
O5_8 O 0.5396(8) 0.1464(7) 0.3290(3)
O6_8 O 0.6582(5) 0.3898(5) 0.4657(2)
H5_8 H 0.7014 0.4047 0.4885
H6_8 H 0.6073 0.3534 0.4773
O7_8 O 0.6866(9) 0.0859(7) 0.3072(3)
N1_8 N 0.6226(8) 0.1529(6) 0.3083(3)
C1_8 C 0.6300(8) 0.3553(7) 0.3544(3)
C2_8 C 0.6346(7) 0.3366(7) 0.3023(3)
C3_8 C 0.6431(7) 0.2441(7) 0.2814(3)
C4_8 C 0.6658(7) 0.2299(6) 0.2347(3)
H7_8 H 0.6740 0.1655 0.2228
C5_8 C 0.6763(7) 0.3131(7) 0.2055(3)
C6_8 C 0.6628(8) 0.4076(7) 0.2250(3)
H8_8 H 0.6676 0.4639 0.2060
C7_8 C 0.6421(8) 0.4195(7) 0.2725(3)
H9_8 H 0.6330 0.4835 0.2846
C8_8 C 0.7051(7) 0.2997(6) 0.1558(3)
C9_8 C 0.7856(7) 0.2346(7) 0.1439(3)
H10_8 H 0.8177 0.1969 0.1672
C10_8 C 0.8195(6) 0.2246(6) 0.0980(3)
C11_8 C 0.7683(6) 0.2790(6) 0.0634(3)
H11_8 H 0.7896 0.2723 0.0326
C12_8 C 0.6871(7) 0.3422(6) 0.0739(3)
C13_8 C 0.6557(7) 0.3534(7) 0.1210(3)
H12_8 H 0.6016 0.3971 0.1285
C14_8 C 0.9106(6) 0.1593(6) 0.0874(3)
C15_8 C 0.6314(7) 0.3965(6) 0.0354(3)
loop_
_geom_bond_atom_site_label_1
_geom_bond_atom_site_label_2
_geom_bond_site_symmetry_1
_geom_bond_site_symmetry_2
Eu1 O1 1_555 1_555
O1 C1 1_555 1_555
O2 Eu1 1_555 1_555
H1 O2 1_555 1_555
H2 O2 1_555 1_555
O3 C1 1_555 1_555
O4 Eu1 1_555 1_555
H3 O4 1_555 1_555
H4 O4 1_555 1_555
O5 N1 1_555 1_555
O6 Eu1 1_555 1_555
H5 O6 1_555 1_555
H6 O6 1_555 1_555
O7 N1 1_555 1_555
O8 C14 1_555 1_555
O9 C14 1_555 1_555
O10 C15 1_555 1_555
O11 C15 1_555 1_555
N1 C3 1_555 1_555
C1 C2 1_555 1_555
C2 C3 1_555 1_555
C3 C4 1_555 1_555
C4 H7 1_555 1_555
C5 C4 1_555 1_555
C6 C5 1_555 1_555
H8 C6 1_555 1_555
C7 C2 1_555 1_555
H9 C7 1_555 1_555
C8 C5 1_555 1_555
C9 C8 1_555 1_555
H10 C9 1_555 1_555
C10 C9 1_555 1_555
C11 C10 1_555 1_555
H11 C11 1_555 1_555
C12 C11 1_555 1_555
C13 C8 1_555 1_555
H12 C13 1_555 1_555
C14 C10 1_555 1_555
C15 C12 1_555 1_555
Eu2 O11 1_555 1_555
Eu4 O10 1_555 1_555
O12 Eu1 1_555 1_555
O13 Eu1 1_555 1_555
O14 Eu1 1_555 1_555
O15 Eu1 1_555 1_555
C6 C7 1_555 1_555
C12 C13 1_555 1_555
O2_2 Eu1_2 1_555 1_555
H1_2 O2_2 1_555 1_555
O4_2 Eu1_2 1_555 1_555
H3_2 O4_2 1_555 1_555
H4_2 O4_2 1_555 1_555
O14_2 Eu1_2 1_555 1_555
O1_2 C1_2 1_555 1_555
O3_2 C1_2 1_555 1_555
O5_2 N1_2 1_555 1_555
H5_2 O6_2 1_555 1_555
H6_2 O6_2 1_555 1_555
O7_2 N1_2 1_555 1_555
O8_2 C14_2 1_555 1_555
O9_2 C14_2 1_555 1_555
O11_2 C15_2 1_555 1_555
N1_2 C3_2 1_555 1_555
C1_2 C2_2 1_555 1_555
C2_2 C3_2 1_555 1_555
C3_2 C4_2 1_555 1_555
C4_2 H7_2 1_555 1_555
C5_2 C4_2 1_555 1_555
C6_2 C5_2 1_555 1_555
H8_2 C6_2 1_555 1_555
C7_2 C2_2 1_555 1_555
H9_2 C7_2 1_555 1_555
C8_2 C5_2 1_555 1_555
C9_2 C8_2 1_555 1_555
H10_2 C9_2 1_555 1_555
C10_2 C9_2 1_555 1_555
C11_2 C10_2 1_555 1_555
H11_2 C11_2 1_555 1_555
C12_2 C11_2 1_555 1_555
C13_2 C8_2 1_555 1_555
H12_2 C13_2 1_555 1_555
C14_2 C10_2 1_555 1_555
C15_2 C12_2 1_555 1_555
Eu3_2 O8_2 1_555 1_555
O9_2 Eu3_2 1_555 1_555
C6_2 C7_2 1_555 1_555
C12_2 C13_2 1_555 1_555
Eu4_2 O10_2 1_555 1_555
O2_3 Eu2_2 1_555 1_555
H1_3 O2_3 1_555 1_555
O4_3 Eu2_2 1_555 1_555
H3_3 O4_3 1_555 1_555
H4_3 O4_3 1_555 1_555
O14_3 Eu2_2 1_555 1_555
O1_3 C1_3 1_555 1_555
O3_3 C1_3 1_555 1_555
O5_3 N1_3 1_555 1_555
H5_3 O6_3 1_555 1_555
H6_3 O6_3 1_555 1_555
O7_3 N1_3 1_555 1_555
O8_3 C14_3 1_555 1_555
O9_3 C14_3 1_555 1_555
O10_3 C15_3 1_555 1_555
O15_2 C15_3 1_555 1_555
N1_3 C3_3 1_555 1_555
C1_3 C2_3 1_555 1_555
C2_3 C3_3 1_555 1_555
C3_3 C4_3 1_555 1_555
C4_3 H7_3 1_555 1_555
C5_3 C4_3 1_555 1_555
C6_3 C5_3 1_555 1_555
H8_3 C6_3 1_555 1_555
C7_3 C2_3 1_555 1_555
H9_3 C7_3 1_555 1_555
C8_3 C5_3 1_555 1_555
C9_3 C8_3 1_555 1_555
H10_3 C9_3 1_555 1_555
C10_3 C9_3 1_555 1_555
C11_3 C10_3 1_555 1_555
H11_3 C11_3 1_555 1_555
C12_3 C11_3 1_555 1_555
C13_3 C8_3 1_555 1_555
H12_3 C13_3 1_555 1_555
C14_3 C10_3 1_555 1_555
C15_3 C12_3 1_555 1_555
Eu4 O8_3 1_555 1_555
Eu3 O10_3 1_555 1_555
O9_3 Eu4 1_555 1_555
C6_3 C7_3 1_555 1_555
C12_3 C13_3 1_555 1_555
Eu3_2 O10_4 1_555 1_555
Eu2 O1_4 1_555 1_555
O1_4 C1_4 1_555 1_555
O2_4 Eu2 1_555 1_555
H1_4 O2_4 1_555 1_555
H2_4 O2_4 1_555 1_555
O3_4 C1_4 1_555 1_555
O4_4 Eu2 1_555 1_555
H3_4 O4_4 1_555 1_555
H4_4 O4_4 1_555 1_555
O5_4 N1_4 1_555 1_555
O6_4 Eu2 1_555 1_555
H5_4 O6_4 1_555 1_555
H6_4 O6_4 1_555 1_555
O7_4 N1_4 1_555 1_555
O8_4 C14_4 1_555 1_555
O9_4 C14_4 1_555 1_555
O15 C15_4 1_555 1_555
N1_4 C3_4 1_555 1_555
C1_4 C2_4 1_555 1_555
C2_4 C3_4 1_555 1_555
C3_4 C4_4 1_555 1_555
C4_4 H7_4 1_555 1_555
C5_4 C4_4 1_555 1_555
C6_4 C5_4 1_555 1_555
H8_4 C6_4 1_555 1_555
C7_4 C2_4 1_555 1_555
H9_4 C7_4 1_555 1_555
C8_4 C5_4 1_555 1_555
C9_4 C8_4 1_555 1_555
H10_4 C9_4 1_555 1_555
C10_4 C9_4 1_555 1_555
C11_4 C10_4 1_555 1_555
H11_4 C11_4 1_555 1_555
C12_4 C11_4 1_555 1_555
C13_4 C8_4 1_555 1_555
H12_4 C13_4 1_555 1_555
C14_4 C10_4 1_555 1_555
C15_4 C12_4 1_555 1_555
O12_4 Eu2 1_555 1_555
O13_4 Eu2 1_555 1_555
O14_4 Eu2 1_555 1_555
C6_4 C7_4 1_555 1_555
C12_4 C13_4 1_555 1_555
Eu3_2 O1_5 1_555 1_555
O1_5 C1_5 1_555 1_555
O2_5 Eu3_2 1_555 1_555
H1_5 O2_5 1_555 1_555
H2_5 O2_5 1_555 1_555
O3_5 C1_5 1_555 1_555
O4_5 Eu3_2 1_555 1_555
H3_5 O4_5 1_555 1_555
H4_5 O4_5 1_555 1_555
O5_5 N1_5 1_555 1_555
O6_5 Eu3_2 1_555 1_555
H5_5 O6_5 1_555 1_555
H6_5 O6_5 1_555 1_555
O7_5 N1_5 1_555 1_555
O12_2 C14_5 1_555 1_555
O13_2 C14_5 1_555 1_555
O14_4 C15_5 1_555 1_555
O11_3 C15_5 1_555 1_555
N1_5 C3_5 1_555 1_555
C1_5 C2_5 1_555 1_555
C2_5 C3_5 1_555 1_555
C3_5 C4_5 1_555 1_555
C4_5 H7_5 1_555 1_555
C5_5 C4_5 1_555 1_555
C6_5 C5_5 1_555 1_555
H8_5 C6_5 1_555 1_555
C7_5 C2_5 1_555 1_555
H9_5 C7_5 1_555 1_555
C8_5 C5_5 1_555 1_555
C9_5 C8_5 1_555 1_555
H10_5 C9_5 1_555 1_555
C10_5 C9_5 1_555 1_555
C11_5 C10_5 1_555 1_555
H11_5 C11_5 1_555 1_555
C12_5 C11_5 1_555 1_555
C13_5 C8_5 1_555 1_555
H12_5 C13_5 1_555 1_555
C14_5 C10_5 1_555 1_555
C15_5 C12_5 1_555 1_555
Eu4 O11_3 1_555 1_555
O15_3 Eu3_2 1_555 1_555
C6_5 C7_5 1_555 1_555
C12_5 C13_5 1_555 1_555
O1_6 C1_6 1_555 1_555
O3_6 C1_6 1_555 1_555
O5_6 N1_6 1_555 1_555
H5_6 O6_6 1_555 1_555
H6_6 O6_6 1_555 1_555
O7_6 N1_6 1_555 1_555
O12 C14_6 1_555 1_555
O13 C14_6 1_555 1_555
O11_4 C15_6 1_555 1_555
N1_6 C3_6 1_555 1_555
C1_6 C2_6 1_555 1_555
C2_6 C3_6 1_555 1_555
C3_6 C4_6 1_555 1_555
C4_6 H7_6 1_555 1_555
C5_6 C4_6 1_555 1_555
C6_6 C5_6 1_555 1_555
H8_6 C6_6 1_555 1_555
C7_6 C2_6 1_555 1_555
H9_6 C7_6 1_555 1_555
C8_6 C5_6 1_555 1_555
C9_6 C8_6 1_555 1_555
H10_6 C9_6 1_555 1_555
C10_6 C9_6 1_555 1_555
C11_6 C10_6 1_555 1_555
H11_6 C11_6 1_555 1_555
C12_6 C11_6 1_555 1_555
C13_6 C8_6 1_555 1_555
H12_6 C13_6 1_555 1_555
C14_6 C10_6 1_555 1_555
C15_6 C12_6 1_555 1_555
C6_6 C7_6 1_555 1_555
C12_6 C13_6 1_555 1_555
O2_6 Eu3 1_555 1_555
H1_6 O2_6 1_555 1_555
O4_6 Eu3 1_555 1_555
H3_6 O4_6 1_555 1_555
H4_6 O4_6 1_555 1_555
O1_7 C1_7 1_555 1_555
O3_7 C1_7 1_555 1_555
O5_7 N1_7 1_555 1_555
H5_7 O6_7 1_555 1_555
H6_7 O6_7 1_555 1_555
O7_7 N1_7 1_555 1_555
O12_4 C14_7 1_555 1_555
O13_4 C14_7 1_555 1_555
O14_2 C15_7 1_555 1_555
O15_4 C15_7 1_555 1_555
N1_7 C3_7 1_555 1_555
C1_7 C2_7 1_555 1_555
C2_7 C3_7 1_555 1_555
C3_7 C4_7 1_555 1_555
C4_7 H7_7 1_555 1_555
C5_7 C4_7 1_555 1_555
C6_7 C5_7 1_555 1_555
H8_7 C6_7 1_555 1_555
C7_7 C2_7 1_555 1_555
H9_7 C7_7 1_555 1_555
C8_7 C5_7 1_555 1_555
C9_7 C8_7 1_555 1_555
H10_7 C9_7 1_555 1_555
C10_7 C9_7 1_555 1_555
C11_7 C10_7 1_555 1_555
H11_7 C11_7 1_555 1_555
C12_7 C11_7 1_555 1_555
C13_7 C8_7 1_555 1_555
H12_7 C13_7 1_555 1_555
C14_7 C10_7 1_555 1_555
C15_7 C12_7 1_555 1_555
C6_7 C7_7 1_555 1_555
C12_7 C13_7 1_555 1_555
O2_7 Eu4_2 1_555 1_555
H1_7 O2_7 1_555 1_555
O4_7 Eu4_2 1_555 1_555
H3_7 O4_7 1_555 1_555
H4_7 O4_7 1_555 1_555
Eu4 O1_8 1_555 1_555
O1_8 C1_8 1_555 1_555
O2_8 Eu4 1_555 1_555
H1_8 O2_8 1_555 1_555
H2_8 O2_8 1_555 1_555
O3_8 C1_8 1_555 1_555
O4_8 Eu4 1_555 1_555
H3_8 O4_8 1_555 1_555
H4_8 O4_8 1_555 1_555
O5_8 N1_8 1_555 1_555
O6_8 Eu4 1_555 1_555
H5_8 O6_8 1_555 1_555
H6_8 O6_8 1_555 1_555
O7_8 N1_8 1_555 1_555
O12_3 C14_8 1_555 1_555
O13_3 C14_8 1_555 1_555
O15_3 C15_8 1_555 1_555
N1_8 C3_8 1_555 1_555
C1_8 C2_8 1_555 1_555
C2_8 C3_8 1_555 1_555
C3_8 C4_8 1_555 1_555
C4_8 H7_8 1_555 1_555
C5_8 C4_8 1_555 1_555
C6_8 C5_8 1_555 1_555
H8_8 C6_8 1_555 1_555
C7_8 C2_8 1_555 1_555
H9_8 C7_8 1_555 1_555
C8_8 C5_8 1_555 1_555
C9_8 C8_8 1_555 1_555
H10_8 C9_8 1_555 1_555
C10_8 C9_8 1_555 1_555
C11_8 C10_8 1_555 1_555
H11_8 C11_8 1_555 1_555
C12_8 C11_8 1_555 1_555
C13_8 C8_8 1_555 1_555
H12_8 C13_8 1_555 1_555
C14_8 C10_8 1_555 1_555
C15_8 C12_8 1_555 1_555
C6_8 C7_8 1_555 1_555
C12_8 C13_8 1_555 1_555

#END
