
###############################################################################
#
# This file contains modified crystal structure data generated from the
# MOF subset of the Cambridge Structural Database (CSD) v543 
# hosted by the Cambridge Crystallographic Data Centre (CCDC).
#
# This work is licensed under the Creative Commons
# Attribution-NonCommercial-ShareAlike 4.0 International License.
# To view a copy of this license, visit
# http://creativecommons.org/licenses/by-nc-sa/4.0/
# or send a letter to
# Creative Commons, PO Box 1866, Mountain View, CA 94042, USA.
#
# CIF created using the CSD Python API on 29 September 2022
# The structure has been converted into the P1 space group
# The structure has a 3D framework
# The original CSD entry DALVIY is in the orthorhombic crystal system
# The framework has been calculated to contain at least 10.0% void space
# The void calculation uses a probe of radius 1.32A, grid spacing 0.4
# H atom positions have been added when not included in the experimental data
#
###############################################################################

data_DALVIY
_chemical_formula_moiety         '(C808 H728 Gd48 N136 O364)n'
_symmetry_cell_setting           triclinic
_symmetry_space_group_name_H-M   'P 1'
_symmetry_Int_Tables_number      1
_space_group_name_Hall           'P 1'
loop_
_symmetry_equiv_pos_site_id
_symmetry_equiv_pos_as_xyz
1 x,y,z
_cell_length_a                   34.967(2)
_cell_length_b                   21.6125(12)
_cell_length_c                   41.296(2)
_cell_angle_alpha                90
_cell_angle_beta                 90
_cell_angle_gamma                90
_cell_volume                     31208.4
loop_
_atom_site_label
_atom_site_type_symbol
_atom_site_fract_x
_atom_site_fract_y
_atom_site_fract_z
Gd1 Gd 0.27660(3) 0.06248(4) 0.04341(2)
Gd4 Gd 0.59304(3) 0.35301(4) 0.14623(2)
C1 C 0.2742(5) 0.2568(7) 0.0617(4)
C2 C 0.2730(6) 0.1881(8) 0.0570(5)
O1 O 0.2494(3) 0.1671(5) 0.0374(3)
O2 O 0.2927(4) 0.1553(6) 0.0750(3)
C3 C 0.2495(5) 0.2949(8) 0.0451(4)
H1 H 0.2312 0.2775 0.0315
C4 C 0.2512(6) 0.3593(7) 0.0483(4)
C5 C 0.2234(5) 0.3998(9) 0.0304(4)
O3 O 0.2254(3) 0.4579(5) 0.0361(3)
O4 O 0.1998(3) 0.3748(5) 0.0106(3)
C6 C 0.2790(6) 0.3861(9) 0.0664(5)
H2 H 0.2812 0.4290 0.0675
C7 C 0.3046(7) 0.3473(9) 0.0836(5)
C8 C 0.3316(10) 0.3739(10) 0.1029(8)
N1 N 0.3575(8) 0.3933(10) 0.1194(7)
C10 C 0.3012(6) 0.2843(10) 0.0809(5)
H4 H 0.3179 0.2593 0.0926
O5 O 0.3221(4) 0.1152(6) 0.0146(3)
C18 C 0.4093(7) 0.3002(13) 0.0186(6)
N2 N 0.4131(9) 0.3432(13) 0.0345(6)
C19 C 0.3819(5) 0.1985(9) 0.0082(5)
H7 H 0.3686 0.2001 0.0276
C31 C 0.5470(5) 0.3320(8) 0.0132(4)
H11 H 0.5633 0.2996 0.0080
C32 C 0.5489(5) 0.3565(7) 0.0437(4)
C33 C 0.5772(6) 0.3327(9) 0.0658(4)
O15 O 0.5849(3) 0.3667(6) 0.0904(3)
O16 O 0.5928(4) 0.2806(7) 0.0616(3)
C34 C 0.5233(5) 0.4020(8) 0.0522(4)
H12 H 0.5242 0.4187 0.0730
C35 C 0.4958(5) 0.4235(7) 0.0302(4)
C36 C 0.4685(6) 0.4723(9) 0.0402(5)
N4 N 0.4478(5) 0.5087(8) 0.0480(4)
O35 O 0.2095(4) 0.0457(6) 0.0435(3)
C79 C 0.1861(7) 0.0712(11) 0.0252(5)
H39 H 0.1880 0.1139 0.0231
N11 N 0.1576(6) 0.0426(10) 0.0076(5)
H40 H 0.1064 0.0846 0.0015
O39 O 0.5267(4) 0.3436(6) 0.1361(3)
C91 C 0.4991(7) 0.3331(12) 0.1521(9)
H67 H 0.5026 0.3377 0.1743
N15 N 0.4658(10) 0.3167(12) 0.1437(9)
C92 C 0.4574(13) 0.309(2) 0.1097(9)
H68 H 0.4352 0.2836 0.1072
H69 H 0.4788 0.2904 0.0990
H70 H 0.4525 0.3492 0.1002
C93 C 0.4344(14) 0.311(2) 0.1666(13)
H71 H 0.4382 0.3398 0.1841
H72 H 0.4335 0.2699 0.1749
H73 H 0.4107 0.3205 0.1558
O42 O 0.2610(4) 0.0346(7) 0.0987(3)
Gd8 Gd 0.22340(3) 0.56248(4) 0.04341(2)
Gd13 Gd 0.64633(3) 0.21973(4) 0.07006(2)
Gd15 Gd 0.65430(3) 0.05993(4) 0.01676(2)
O50 O 0.3360(5) 0.0307(6) 0.0633(4)
O52 O 0.5646(4) 0.3368(5) 0.1987(3)
O53 O 0.6245(3) 0.3016(5) 0.1927(3)
O54 O 0.5861(5) 0.2500(5) 0.1340(3)
O56 O 0.6543(4) 0.3484(6) 0.1274(3)
O57 O 0.5749(4) 0.4600(5) 0.1457(3)
O58 O 0.6246(4) 0.4386(5) 0.1763(3)
H90 H 0.232805 0.0350206 0.101562
Gd2 Gd 0.52233(3) 0.27573(4) 0.89407(2)
Gd3 Gd 0.44891(3) 0.14542(4) 0.83986(2)
C9 C 0.3860(6) 0.3308(10) 0.8184(5)
H3 H 0.3821 0.2884 0.8162
C11 C 0.3771(5) 0.1496(8) 0.9861(5)
C12 C 0.3488(5) 0.1000(8) 0.9972(4)
O6 O 0.3557(3) 0.0459(6) 0.9877(3)
C13 C 0.3979(5) 0.1429(7) 0.9587(4)
H5 H 0.3962 0.1068 0.9465
C14 C 0.4224(5) 0.1913(8) 0.9489(4)
C15 C 0.4419(6) 0.1904(8) 0.9173(4)
O7 O 0.4696(4) 0.2289(5) 0.9135(3)
O8 O 0.4310(3) 0.1540(5) 0.8960(3)
C16 C 0.4265(5) 0.2413(10) 0.9695(5)
H6 H 0.4421 0.2740 0.9632
C17 C 0.4080(6) 0.2446(10) 0.9992(5)
C20 C 0.5549(6) 0.0664(9) 0.8894(5)
C21 C 0.5303(6) 0.1238(9) 0.8868(4)
O9 O 0.5409(3) 0.1703(6) 0.9017(3)
O10 O 0.5035(4) 0.1185(5) 0.8674(3)
C22 C 0.5842(6) 0.0632(8) 0.9124(5)
H8 H 0.5883 0.0972 0.9257
C23 C 0.6080(6) 0.0106(10) 0.9162(5)
C24 C 0.6393(7) 0.0096(11) 0.9398(5)
O11 O 0.6371(3) 0.0493(6) 0.9629(3)
C28 C 0.5486(8) 0.0167(13) 0.8702(8)
H10 H 0.5295 0.0179 0.8545
C29 C 0.5220(5) 0.3528(8) 0.9900(4)
C30 C 0.5220(5) 0.3283(8) 0.9571(4)
O13 O 0.4990(3) 0.3508(5) 0.9356(3)
O14 O 0.5435(3) 0.2839(6) 0.9496(3)
C37 C 0.4954(5) 0.4001(8) 0.9994(4)
H13 H 0.4778 0.4151 0.9844
C38 C 0.5578(6) 0.2326(8) 0.7929(4)
C39 C 0.5260(5) 0.2153(9) 0.8137(4)
O17 O 0.5263(3) 0.2435(5) 0.8419(3)
O18 O 0.5011(4) 0.1795(5) 0.8052(3)
C40 C 0.5608(6) 0.2043(7) 0.7619(4)
H14 H 0.5424 0.1763 0.7548
C41 C 0.5918(6) 0.2197(8) 0.7426(4)
C42 C 0.5944(6) 0.1909(9) 0.7092(5)
O19 O 0.5646(4) 0.1632(5) 0.6987(3)
O20 O 0.6245(3) 0.1984(5) 0.6927(3)
C43 C 0.6196(8) 0.2584(15) 0.7522(6)
H15 H 0.6415 0.2665 0.7401
C44 C 0.6126(10) 0.2850(15) 0.7820(9)
C45 C 0.6418(16) 0.321(3) 0.792(3)
N5 N 0.6627(12) 0.359(3) 0.8002(10)
C46 C 0.5852(8) 0.2726(12) 0.8032(6)
H16 H 0.5847 0.2901 0.8238
C48 C 0.4495(6) 0.0154(8) 0.8315(4)
O21 O 0.4664(4) 0.0494(6) 0.8115(3)
O22 O 0.4304(4) 0.0379(5) 0.8544(4)
C56 C 0.2418(5) 0.0294(8) 0.9340(4)
C57 C 0.2643(5) 0.0214(8) 0.9648(4)
O25 O 0.2566(4) 0.0549(6) 0.9885(3)
C58 C 0.2188(5) 0.0786(8) 0.9313(4)
H20 H 0.2154 0.1052 0.9488
C59 C 0.2004(5) 0.0896(7) 0.9030(4)
C60 C 0.1736(6) 0.1453(9) 0.8983(5)
O27 O 0.1727(4) 0.1818(6) 0.9211(3)
O28 O 0.1543(4) 0.1516(6) 0.8726(3)
C61 C 0.2048(6) 0.0504(9) 0.8752(4)
H21 H 0.1928 0.0594 0.8557
C65 C 0.4173(6) 0.3507(8) 0.8351(4)
C66 C 0.4464(5) 0.3071(9) 0.8511(4)
O29 O 0.4718(3) 0.3280(5) 0.8682(3)
O30 O 0.4404(4) 0.2505(5) 0.8429(3)
C67 C 0.4198(5) 0.4140(7) 0.8413(4)
H23 H 0.4397 0.4284 0.8542
C68 C 0.3947(5) 0.4549(7) 0.8293(4)
C69 C 0.3992(6) 0.5220(8) 0.8360(4)
O31 O 0.4251(4) 0.5400(5) 0.8543(3)
O32 O 0.3754(4) 0.5614(5) 0.8237(3)
C70 C 0.3652(7) 0.4348(9) 0.8103(5)
H24 H 0.3486 0.4635 0.8010
C71 C 0.3595(6) 0.3713(9) 0.8045(5)
C72 C 0.3272(9) 0.3470(14) 0.7840(7)
N8 N 0.3038(8) 0.3293(12) 0.7674(7)
H32 H 0.4351 0.0036 0.9943
N10 N 0.4588(9) 0.0089(16) 0.9549(8)
C77 C 0.4870(12) 0.0572(18) 0.9608(11)
H33 H 0.4880 0.0846 0.9426
H34 H 0.5117 0.0386 0.9640
H35 H 0.4801 0.0801 0.9799
H38 H 0.4583 0.0134 0.9070
C80 C 0.1290(9) 0.0788(14) 0.9887(7)
H41 H 0.1227 0.0567 0.9692
H42 H 0.1397 0.1183 0.9831
O36 O 0.5495(4) 0.3700(7) 0.8770(3)
C82 C 0.5330(9) 0.4202(15) 0.8752(7)
H46 H 0.5081 0.4233 0.8829
N12 N 0.5494(12) 0.4694(19) 0.8629(9)
C83 C 0.5287(12) 0.5276(19) 0.8637(11)
H47 H 0.5137 0.5316 0.8443
H48 H 0.5465 0.5612 0.8650
H49 H 0.5121 0.5283 0.8822
C84 C 0.5890(13) 0.464(3) 0.8521(14)
H50 H 0.5897 0.4635 0.8289
H51 H 0.5999 0.4268 0.8605
H52 H 0.6033 0.4991 0.8599
O37 O 0.4226(4) 0.1598(7) 0.7863(4)
C85 C 0.4199(13) 0.2018(13) 0.7673(6)
H53 H 0.4421 0.2255 0.7669
N13 N 0.3951(9) 0.2229(14) 0.7474(7)
C86 C 0.3943(10) 0.2817(16) 0.7303(8)
H54 H 0.4149 0.3073 0.7378
H55 H 0.3704 0.3022 0.7344
H56 H 0.3971 0.2746 0.7075
C87 C 0.3603(12) 0.186(2) 0.7452(12)
H57 H 0.3387 0.2131 0.7429
H58 H 0.3575 0.1618 0.7645
H59 H 0.3619 0.1593 0.7267
O38 O 0.3813(4) 0.1501(7) 0.8427(4)
C88 C 0.3620(11) 0.1232(18) 0.8636(9)
H60 H 0.3663 0.0812 0.8669
N14 N 0.3356(9) 0.1511(15) 0.8815(7)
C89 C 0.3113(11) 0.1292(17) 0.9051(9)
H61 H 0.2892 0.1111 0.8951
H62 H 0.3035 0.1628 0.9188
H63 H 0.3243 0.0986 0.9178
C90 C 0.3398(19) 0.217(3) 0.8752(16)
H64 H 0.3658 0.2290 0.8791
H65 H 0.3231 0.2397 0.8893
H66 H 0.3332 0.2254 0.8531
O40 O 0.5921(5) 0.2672(7) 0.8905(4)
C94 C 0.6260(6) 0.261(3) 0.8941(13)
H74 H 0.6378 0.2237 0.8892
N16 N 0.6462(13) 0.308(2) 0.9050(10)
C95 C 0.6885(13) 0.307(3) 0.9090(15)
H75 H 0.7005 0.3144 0.8885
H76 H 0.6961 0.2667 0.9169
H77 H 0.6961 0.3379 0.9242
C96 C 0.629(3) 0.369(3) 0.914(3)
H78 H 0.6235 0.3686 0.9371
H79 H 0.6063 0.3758 0.9022
H80 H 0.6473 0.4013 0.9098
Gd9 Gd 0.09304(3) 0.14699(4) 0.85377(2)
Gd11 Gd 0.40696(3) 0.64699(4) 0.85377(2)
Gd12 Gd 0.59304(3) 0.14699(4) 0.64623(2)
Gd14 Gd 0.14633(3) 0.28027(4) 0.92994(2)
Gd16 Gd 0.15430(3) 0.44007(4) 0.98324(2)
C81 C 0.1478(9) 0.9721(14) 0.0116(7)
H43 H 0.1709 0.9482 0.0104
H45 H 0.1358 0.9655 0.0322
H89 H 0.3594 0.7892 0.0219
O47 O 0.2746(3) 0.9579(5) 0.0361(3)
O48 O 0.3002(3) 0.8748(5) 0.0106(3)
O49 O 0.3629(3) 0.9507(6) 0.0371(3)
H91 H 0.270962 0.992527 0.103412
Gd5 Gd 0.35367(3) 0.78027(4) 0.92994(2)
Gd6 Gd 0.34570(3) 0.94007(4) 0.98324(2)
O12 O 0.6640(5) 0.9693(6) 0.9367(4)
C25 C 0.6020(7) 0.9606(11) 0.8987(7)
H9 H 0.6169 0.9255 0.9018
C26 C 0.5719(11) 0.9607(17) 0.8744(9)
C27 C 0.562(3) 0.902(2) 0.8662(14)
N3 N 0.5580(11) 0.871(2) 0.8438(10)
C47 C 0.4519(5) 0.9474(8) 0.8290(4)
C49 C 0.4351(6) 0.9111(7) 0.8507(4)
H17 H 0.4216 0.9290 0.8677
C50 C 0.4372(5) 0.8449(9) 0.8485(5)
C51 C 0.4153(5) 0.8066(9) 0.8726(5)
O23 O 0.4011(4) 0.8296(5) 0.8977(3)
O24 O 0.4139(5) 0.7500(5) 0.8660(3)
C52 C 0.4553(5) 0.8215(8) 0.8230(5)
H18 H 0.4554 0.7788 0.8202
C53 C 0.4740(6) 0.8587(11) 0.8002(5)
C54 C 0.4950(7) 0.8323(11) 0.7737(7)
N6 N 0.5125(7) 0.8139(11) 0.7517(6)
C55 C 0.4712(6) 0.9206(8) 0.8034(4)
H19 H 0.4825 0.9460 0.7879
O26 O 0.2884(4) 0.9745(6) 0.9658(3)
C62 C 0.2278(6) 0.9990(12) 0.8786(5)
C63 C 0.2347(8) 0.9594(15) 0.8514(6)
N7 N 0.2395(8) 0.9278(14) 0.8309(7)
C64 C 0.2476(5) 0.9925(9) 0.9072(5)
H22 H 0.2660 0.9615 0.9086
O33 O 0.2897(5) 0.7947(7) 0.9463(4)
C73 C 0.2622(8) 0.7661(13) 0.9601(6)
H25 H 0.2660 0.7264 0.9681
N9 N 0.2299(5) 0.7911(8) 0.9628(4)
C74 C 0.2198(8) 0.8555(13) 0.9563(7)
H26 H 0.2014 0.8693 0.9719
H27 H 0.2092 0.8588 0.9350
H28 H 0.2424 0.8808 0.9578
C75 C 0.1984(8) 0.7526(13) 0.9780(6)
H29 H 0.2095 0.7225 0.9923
H30 H 0.1843 0.7319 0.9613
H31 H 0.1815 0.7790 0.9900
O34 O 0.4103(5) 0.9451(8) 0.9733(4)
C76 C 0.4342(7) 0.9850(12) 0.9741(12)
C78 C 0.4612(11) 0.9817(18) 0.9231(9)
H36 H 0.4412 0.9516 0.9206
H37 H 0.4856 0.9620 0.9206
H44 H 0.1307 0.9595 0.9946
O41 O 0.3231(4) 0.7945(7) 0.8807(4)
C97 C 0.3165(10) 0.7853(14) 0.8525(5)
H81 H 0.3378 0.7844 0.8390
N17 N 0.2847(10) 0.7767(18) 0.8386(10)
C98 C 0.2833(13) 0.779(2) 0.8036(10)
H82 H 0.3079 0.7907 0.7954
H83 H 0.2645 0.8083 0.7969
H84 H 0.2767 0.7386 0.7954
C99 C 0.2506(14) 0.778(3) 0.8587(13)
H85 H 0.2376 0.7393 0.8575
H86 H 0.2338 0.8105 0.8512
H87 H 0.2577 0.7865 0.8808
O43 O 0.3417(4) 0.8900(6) 0.9301(3)
C100 C 0.3499(5) 0.9390(10) 0.9117(5)
H88 H 0.3512 0.9352 0.8893
O44 O 0.3554(4) 0.9861(7) 0.9238(4)
O45 O 0.3679(4) 0.8335(5) 0.9814(3)
C101 C 0.3584(5) 0.7854(9) 0.9995(5)
O46 O 0.3483(4) 0.7360(5) 0.9877(3)
Gd7 Gd 0.72340(3) 0.93752(4) 0.95659(2)
O51 O 0.4072(4) 0.7194(7) 0.9384(3)
O55 O 0.3273(4) 0.6818(6) 0.9211(3)
Gd5_2 Gd 0.14633(3) 0.21973(4) 0.42994(2)
Gd6_2 Gd 0.15430(3) 0.05993(4) 0.48324(2)
C47_2 C 0.0481(5) 0.0526(8) 0.3290(4)
C49_2 C 0.0649(6) 0.0889(7) 0.3507(4)
H17_2 H 0.0784 0.0710 0.3677
C50_2 C 0.0628(5) 0.1551(9) 0.3485(5)
C51_2 C 0.0847(5) 0.1934(9) 0.3726(5)
O23_2 O 0.0989(4) 0.1704(5) 0.3977(3)
O24_2 O 0.0861(5) 0.2500(5) 0.3660(3)
C52_2 C 0.0447(5) 0.1785(8) 0.3230(5)
H18_2 H 0.0446 0.2212 0.3202
C53_2 C 0.0260(6) 0.1413(11) 0.3002(5)
C54_2 C 0.0050(7) 0.1677(11) 0.2737(7)
C55_2 C 0.0288(6) 0.0794(8) 0.3034(4)
H19_2 H 0.0175 0.0540 0.2879
O26_2 O 0.2116(4) 0.0255(6) 0.4658(3)
C62_2 C 0.2722(6) 0.0010(12) 0.3786(5)
C63_2 C 0.2653(8) 0.0406(15) 0.3514(6)
N7_2 N 0.2605(8) 0.0722(14) 0.3309(7)
C64_2 C 0.2524(5) 0.0075(9) 0.4072(5)
H22_2 H 0.2340 0.0385 0.4086
O33_2 O 0.2103(5) 0.2053(7) 0.4463(4)
C73_2 C 0.2378(8) 0.2339(13) 0.4601(6)
H25_2 H 0.2340 0.2736 0.4681
N9_2 N 0.2701(5) 0.2089(8) 0.4628(4)
C74_2 C 0.2802(8) 0.1445(13) 0.4563(7)
H26_2 H 0.2986 0.1307 0.4719
H27_2 H 0.2908 0.1412 0.4350
H28_2 H 0.2576 0.1192 0.4578
C75_2 C 0.3016(8) 0.2474(13) 0.4780(6)
H29_2 H 0.2905 0.2775 0.4923
H30_2 H 0.3157 0.2681 0.4613
H31_2 H 0.3185 0.2210 0.4900
O34_2 O 0.0897(5) 0.0549(8) 0.4733(4)
C76_2 C 0.0658(7) 0.0150(12) 0.4741(12)
C78_2 C 0.0388(11) 0.0183(18) 0.4231(9)
H36_2 H 0.0588 0.0484 0.4206
H37_2 H 0.0144 0.0380 0.4206
C81_2 C 0.3522(9) 0.0279(14) 0.5116(7)
H43_2 H 0.3291 0.0518 0.5104
H44_2 H 0.3693 0.0405 0.4946
H45_2 H 0.3642 0.0345 0.5322
O41_2 O 0.1769(4) 0.2055(7) 0.3807(4)
C97_2 C 0.1835(10) 0.2147(14) 0.3525(5)
H81_2 H 0.1622 0.2156 0.3390
N17_2 N 0.2153(10) 0.2233(18) 0.3386(10)
C98_2 C 0.2167(13) 0.221(2) 0.3036(10)
H82_2 H 0.1921 0.2093 0.2954
H83_2 H 0.2355 0.1917 0.2969
H84_2 H 0.2233 0.2614 0.2954
C99_2 C 0.2494(14) 0.222(3) 0.3587(13)
H85_2 H 0.2624 0.2607 0.3575
H86_2 H 0.2662 0.1895 0.3512
H87_2 H 0.2423 0.2135 0.3808
O43_2 O 0.1583(4) 0.1100(6) 0.4301(3)
C100_2 C 0.1501(5) 0.0610(10) 0.4117(5)
H88_2 H 0.1488 0.0648 0.3893
O44_2 O 0.1446(4) 0.0139(7) 0.4238(4)
O45_2 O 0.1321(4) 0.1665(5) 0.4814(3)
C101_2 C 0.1416(5) 0.2146(9) 0.4995(5)
H89_2 H 0.1406 0.2108 0.5219
O46_2 O 0.1517(4) 0.2640(5) 0.4877(3)
Gd10 Gd 0.09304(3) 0.35301(4) 0.35377(2)
O47_2 O 0.2254(3) 0.0421(5) 0.5361(3)
O48_2 O 0.1998(3) 0.1252(5) 0.5106(3)
O49_2 O 0.1371(3) 0.0493(6) 0.5371(3)
O51_2 O 0.0928(4) 0.2806(7) 0.4384(3)
O55_2 O 0.1727(4) 0.3182(6) 0.4211(3)
H91_2 H 0.229038 0.00747335 0.603412
Gd1_2 Gd 0.22340(3) 0.93752(4) 0.54341(2)
Gd3_2 Gd 0.05109(3) 0.85458(4) 0.33986(2)
C1_2 C 0.2258(5) 0.7432(7) 0.5617(4)
C2_2 C 0.2270(6) 0.8119(8) 0.5570(5)
O1_2 O 0.2506(3) 0.8329(5) 0.5374(3)
O2_2 O 0.2073(4) 0.8447(6) 0.5750(3)
C3_2 C 0.2505(5) 0.7051(8) 0.5451(4)
H1_2 H 0.2688 0.7225 0.5315
C4_2 C 0.2488(6) 0.6407(7) 0.5483(4)
C5_2 C 0.2766(5) 0.6002(9) 0.5304(4)
O3_2 O 0.2746(3) 0.5421(5) 0.5361(3)
O4_2 O 0.3002(3) 0.6252(5) 0.5106(3)
C6_2 C 0.2210(6) 0.6139(9) 0.5664(5)
H2_2 H 0.2188 0.5710 0.5675
C7_2 C 0.1954(7) 0.6527(9) 0.5836(5)
C8_2 C 0.1684(10) 0.6261(10) 0.6029(8)
N1_2 N 0.1425(8) 0.6067(10) 0.6194(7)
C9_2 C 0.1140(6) 0.6692(10) 0.3184(5)
H3_2 H 0.1179 0.7116 0.3162
C10_2 C 0.1988(6) 0.7157(10) 0.5809(5)
H4_2 H 0.1821 0.7407 0.5926
C11_2 C 0.1229(5) 0.8504(8) 0.4861(5)
C12_2 C 0.1512(5) 0.9000(8) 0.4972(4)
O5_2 O 0.1779(4) 0.8848(6) 0.5146(3)
O6_2 O 0.1443(3) 0.9541(6) 0.4877(3)
C13_2 C 0.1021(5) 0.8571(7) 0.4587(4)
H5_2 H 0.1038 0.8932 0.4465
C14_2 C 0.0776(5) 0.8087(8) 0.4489(4)
C15_2 C 0.0581(6) 0.8096(8) 0.4173(4)
O7_2 O 0.0304(4) 0.7711(5) 0.4135(3)
O8_2 O 0.0690(3) 0.8460(5) 0.3960(3)
C16_2 C 0.0735(5) 0.7587(10) 0.4695(5)
H6_2 H 0.0579 0.7260 0.4632
C17_2 C 0.0920(6) 0.7554(10) 0.4992(5)
C18_2 C 0.0907(7) 0.6998(13) 0.5186(6)
N2_2 N 0.0869(9) 0.6568(13) 0.5345(6)
C19_2 C 0.1181(5) 0.8015(9) 0.5082(5)
H7_2 H 0.1314 0.7999 0.5276
O13_2 O 0.0010(3) 0.6492(5) 0.4356(3)
C35_2 C 0.0042(5) 0.5765(7) 0.5302(4)
C36_2 C 0.0315(6) 0.5277(9) 0.5402(5)
N4_2 N 0.0522(5) 0.4913(8) 0.5480(4)
C37_2 C 0.0046(5) 0.5999(8) 0.4994(4)
H13_2 H 0.0222 0.5849 0.4844
C48_2 C 0.0505(6) 0.9846(8) 0.3315(4)
O21_2 O 0.0336(4) 0.9506(6) 0.3115(3)
O22_2 O 0.0696(4) 0.9621(5) 0.3544(4)
C56_2 C 0.2582(5) 0.9706(8) 0.4340(4)
C57_2 C 0.2357(5) 0.9786(8) 0.4648(4)
O25_2 O 0.2434(4) 0.9451(6) 0.4885(3)
C58_2 C 0.2812(5) 0.9214(8) 0.4313(4)
H20_2 H 0.2846 0.8948 0.4488
C59_2 C 0.2996(5) 0.9104(7) 0.4030(4)
C60_2 C 0.3264(6) 0.8547(9) 0.3983(5)
O27_2 O 0.3273(4) 0.8182(6) 0.4211(3)
O28_2 O 0.3457(4) 0.8484(6) 0.3726(3)
C61_2 C 0.2952(6) 0.9496(9) 0.3752(4)
H21_2 H 0.3072 0.9406 0.3557
C65_2 C 0.0827(6) 0.6493(8) 0.3351(4)
C66_2 C 0.0536(5) 0.6929(9) 0.3511(4)
O29_2 O 0.0282(3) 0.6720(5) 0.3682(3)
O30_2 O 0.0596(4) 0.7495(5) 0.3429(3)
C67_2 C 0.0802(5) 0.5860(7) 0.3413(4)
H23_2 H 0.0603 0.5716 0.3542
C68_2 C 0.1053(5) 0.5451(7) 0.3293(4)
C69_2 C 0.1008(6) 0.4780(8) 0.3360(4)
O31_2 O 0.0749(4) 0.4600(5) 0.3543(3)
O32_2 O 0.1246(4) 0.4386(5) 0.3237(3)
C70_2 C 0.1348(7) 0.5652(9) 0.3103(5)
H24_2 H 0.1514 0.5365 0.3010
C71_2 C 0.1405(6) 0.6287(9) 0.3045(5)
C72_2 C 0.1728(9) 0.6530(14) 0.2840(7)
N8_2 N 0.1962(8) 0.6707(12) 0.2674(7)
H32_2 H 0.0649 0.9964 0.4943
N10_2 N 0.0412(9) 0.9911(16) 0.4549(8)
C77_2 C 0.0130(12) 0.9428(18) 0.4608(11)
H33_2 H 0.0120 0.9154 0.4426
H35_2 H 0.0199 0.9199 0.4799
H38_2 H 0.0417 0.9866 0.4070
O35_2 O 0.2905(4) 0.9543(6) 0.5435(3)
C79_2 C 0.3139(7) 0.9288(11) 0.5252(5)
H39_2 H 0.3120 0.8861 0.5231
N11_2 N 0.3424(6) 0.9574(10) 0.5076(5)
C80_2 C 0.3710(9) 0.9212(14) 0.4887(7)
H40_2 H 0.3936 0.9154 0.5015
H41_2 H 0.3773 0.9433 0.4692
H42_2 H 0.3603 0.8817 0.4831
O37_2 O 0.0774(4) 0.8402(7) 0.2863(4)
C85_2 C 0.0801(13) 0.7982(13) 0.2673(6)
H53_2 H 0.0579 0.7745 0.2669
N13_2 N 0.1049(9) 0.7771(14) 0.2474(7)
C86_2 C 0.1057(10) 0.7183(16) 0.2303(8)
H54_2 H 0.0851 0.6927 0.2378
H55_2 H 0.1296 0.6978 0.2344
H56_2 H 0.1029 0.7254 0.2075
C87_2 C 0.1397(12) 0.814(2) 0.2452(12)
H57_2 H 0.1613 0.7869 0.2429
H58_2 H 0.1425 0.8382 0.2645
H59_2 H 0.1381 0.8407 0.2267
O38_2 O 0.1187(4) 0.8499(7) 0.3427(4)
C88_2 C 0.1380(11) 0.8768(18) 0.3636(9)
H60_2 H 0.1337 0.9188 0.3669
N14_2 N 0.1644(9) 0.8489(15) 0.3815(7)
C89_2 C 0.1887(11) 0.8708(17) 0.4051(9)
H61_2 H 0.2108 0.8889 0.3951
H62_2 H 0.1965 0.8372 0.4188
H63_2 H 0.1757 0.9014 0.4178
C90_2 C 0.1602(19) 0.783(3) 0.3752(16)
H64_2 H 0.1342 0.7710 0.3791
H65_2 H 0.1769 0.7603 0.3893
H66_2 H 0.1668 0.7746 0.3531
C91_2 C 0.0009(7) 0.6669(12) 0.6521(9)
N15_2 N 0.0342(10) 0.6833(12) 0.6437(9)
C92_2 C 0.0426(13) 0.691(2) 0.6097(9)
H68_2 H 0.0648 0.7164 0.6072
H69_2 H 0.0212 0.7096 0.5990
H70_2 H 0.0475 0.6508 0.6002
C93_2 C 0.0656(14) 0.689(2) 0.6666(13)
H71_2 H 0.0618 0.6602 0.6841
H72_2 H 0.0665 0.7301 0.6749
H73_2 H 0.0893 0.6795 0.6558
O42_2 O 0.2390(4) 0.9654(7) 0.5987(3)
Gd8_2 Gd 0.27660(3) 0.43752(4) 0.54341(2)
Gd9_2 Gd 0.40696(3) 0.85301(4) 0.35377(2)
Gd14_2 Gd 0.35367(3) 0.71973(4) 0.42994(2)
Gd16_2 Gd 0.34570(3) 0.55993(4) 0.48324(2)
O50_2 O 0.1640(5) 0.9693(6) 0.5633(4)
H90_2 H 0.267195 0.964979 0.601562
O12_2 O 0.8360(5) 0.0307(6) 0.4367(4)
C25_2 C 0.8980(7) 0.0394(11) 0.3987(7)
H9_2 H 0.8831 0.0745 0.4018
C26_2 C 0.9281(11) 0.0393(17) 0.3744(9)
C27_2 C 0.938(3) 0.098(2) 0.3662(14)
N3_2 N 0.9420(11) 0.129(2) 0.3438(10)
N6_2 N 0.9875(7) 0.1861(11) 0.2517(6)
Gd7_2 Gd 0.77660(3) 0.06248(4) 0.45659(2)
Gd2_2 Gd 0.97767(3) 0.72427(4) 0.39407(2)
Gd4_2 Gd 0.90696(3) 0.64699(4) 0.64623(2)
C20_2 C 0.9451(6) 0.9336(9) 0.3894(5)
C21_2 C 0.9697(6) 0.8762(9) 0.3868(4)
O9_2 O 0.9591(3) 0.8297(6) 0.4017(3)
O10_2 O 0.9965(4) 0.8815(5) 0.3674(3)
C22_2 C 0.9158(6) 0.9368(8) 0.4124(5)
H8_2 H 0.9117 0.9028 0.4257
C23_2 C 0.8920(6) 0.9894(10) 0.4162(5)
C24_2 C 0.8607(7) 0.9904(11) 0.4398(5)
O11_2 O 0.8629(3) 0.9507(6) 0.4629(3)
C28_2 C 0.9514(8) 0.9833(13) 0.3702(8)
H10_2 H 0.9705 0.9821 0.3545
C29_2 C 0.9780(5) 0.6472(8) 0.4900(4)
C30_2 C 0.9780(5) 0.6717(8) 0.4571(4)
O14_2 O 0.9565(3) 0.7161(6) 0.4496(3)
C31_2 C 0.9530(5) 0.6680(8) 0.5132(4)
H11_2 H 0.9367 0.7004 0.5080
C32_2 C 0.9511(5) 0.6435(7) 0.5437(4)
C33_2 C 0.9228(6) 0.6673(9) 0.5658(4)
O15_2 O 0.9151(3) 0.6333(6) 0.5904(3)
O16_2 O 0.9072(4) 0.7194(7) 0.5616(3)
C34_2 C 0.9767(5) 0.5980(8) 0.5522(4)
H12_2 H 0.9758 0.5813 0.5730
C38_2 C 0.9422(6) 0.7674(8) 0.2929(4)
C39_2 C 0.9740(5) 0.7847(9) 0.3137(4)
O17_2 O 0.9737(3) 0.7565(5) 0.3419(3)
O18_2 O 0.9989(4) 0.8205(5) 0.3052(3)
C40_2 C 0.9392(6) 0.7957(7) 0.2619(4)
H14_2 H 0.9576 0.8237 0.2548
C41_2 C 0.9082(6) 0.7803(8) 0.2426(4)
C42_2 C 0.9056(6) 0.8091(9) 0.2092(5)
O19_2 O 0.9354(4) 0.8368(5) 0.1987(3)
O20_2 O 0.8755(3) 0.8016(5) 0.1927(3)
C43_2 C 0.8804(8) 0.7416(15) 0.2522(6)
H15_2 H 0.8585 0.7335 0.2401
C44_2 C 0.8874(10) 0.7150(15) 0.2820(9)
C45_2 C 0.8582(16) 0.679(3) 0.292(3)
N5_2 N 0.8373(12) 0.641(3) 0.3002(10)
C46_2 C 0.9148(8) 0.7274(12) 0.3032(6)
H16_2 H 0.9153 0.7099 0.3238
H34_2 H 0.9883 0.9614 0.4640
O36_2 O 0.9505(4) 0.6300(7) 0.3770(3)
C82_2 C 0.9670(9) 0.5798(15) 0.3752(7)
H46_2 H 0.9919 0.5767 0.3829
N12_2 N 0.9506(12) 0.5306(19) 0.3629(9)
C83_2 C 0.9713(12) 0.4724(19) 0.3637(11)
H47_2 H 0.9863 0.4684 0.3443
H48_2 H 0.9535 0.4388 0.3650
H49_2 H 0.9879 0.4717 0.3822
C84_2 C 0.9110(13) 0.536(3) 0.3521(14)
H50_2 H 0.9103 0.5365 0.3289
H51_2 H 0.9001 0.5732 0.3605
H52_2 H 0.8967 0.5009 0.3599
O39_2 O 0.9733(4) 0.6564(6) 0.6361(3)
H67_2 H 0.9974 0.6623 0.6743
O40_2 O 0.9079(5) 0.7328(7) 0.3905(4)
C94_2 C 0.8740(6) 0.739(3) 0.3941(13)
H74_2 H 0.8622 0.7763 0.3892
N16_2 N 0.8538(13) 0.692(2) 0.4050(10)
C95_2 C 0.8115(13) 0.693(3) 0.4090(15)
H75_2 H 0.7995 0.6856 0.3885
H76_2 H 0.8039 0.7333 0.4169
H77_2 H 0.8039 0.6621 0.4242
C96_2 C 0.871(3) 0.631(3) 0.414(3)
H78_2 H 0.8765 0.6314 0.4371
H79_2 H 0.8937 0.6242 0.4022
H80_2 H 0.8527 0.5987 0.4098
Gd12_2 Gd 0.90696(3) 0.85301(4) 0.14623(2)
Gd13_2 Gd 0.85367(3) 0.78027(4) 0.57006(2)
Gd15_2 Gd 0.84570(3) 0.94007(4) 0.51676(2)
O52_2 O 0.9354(4) 0.6632(5) 0.6987(3)
O53_2 O 0.8755(3) 0.6984(5) 0.6927(3)
O54_2 O 0.9139(5) 0.7500(5) 0.6340(3)
O56_2 O 0.8457(4) 0.6516(6) 0.6274(3)
O57_2 O 0.9251(4) 0.5400(5) 0.6457(3)
O58_2 O 0.8754(4) 0.5614(5) 0.6763(3)
N4_3 N 0.5522(5) 0.0087(8) 0.4520(4)
C69_3 C 0.6008(6) 0.0220(8) 0.6640(4)
O31_3 O 0.5749(4) 0.0400(5) 0.6457(3)
O32_3 O 0.6246(4) 0.0614(5) 0.6763(3)
C83_3 C 0.4713(12) 0.0276(19) 0.6363(11)
H47_3 H 0.4863 0.0316 0.6557
H48_3 H 0.4535 0.0612 0.6350
H49_3 H 0.4879 0.0283 0.6178
Gd1_3 Gd 0.72340(3) 0.56248(4) 0.45659(2)
Gd2_3 Gd 0.47767(3) 0.77573(4) 0.60593(2)
Gd3_3 Gd 0.55109(3) 0.64542(4) 0.66014(2)
Gd5_3 Gd 0.64633(3) 0.28027(4) 0.57006(2)
Gd6_3 Gd 0.65430(3) 0.44007(4) 0.51676(2)
C1_3 C 0.7258(5) 0.7568(7) 0.4383(4)
C2_3 C 0.7270(6) 0.6881(8) 0.4430(5)
O1_3 O 0.7506(3) 0.6671(5) 0.4626(3)
O2_3 O 0.7073(4) 0.6553(6) 0.4250(3)
C3_3 C 0.7505(5) 0.7949(8) 0.4549(4)
H1_3 H 0.7688 0.7775 0.4685
C4_3 C 0.7488(6) 0.8593(7) 0.4517(4)
C5_3 C 0.7766(5) 0.8998(9) 0.4696(4)
O3_3 O 0.7746(3) 0.9579(5) 0.4639(3)
O4_3 O 0.8002(3) 0.8748(5) 0.4894(3)
C6_3 C 0.7210(6) 0.8861(9) 0.4336(5)
H2_3 H 0.7188 0.9290 0.4325
C7_3 C 0.6954(7) 0.8473(9) 0.4164(5)
C8_3 C 0.6684(10) 0.8739(10) 0.3971(8)
N1_3 N 0.6425(8) 0.8933(10) 0.3806(7)
C9_3 C 0.6140(6) 0.8308(10) 0.6816(5)
H3_3 H 0.6179 0.7884 0.6838
C10_3 C 0.6988(6) 0.7843(10) 0.4191(5)
H4_3 H 0.6821 0.7593 0.4074
C11_3 C 0.6229(5) 0.6496(8) 0.5139(5)
C12_3 C 0.6512(5) 0.6000(8) 0.5028(4)
O5_3 O 0.6779(4) 0.6152(6) 0.4854(3)
O6_3 O 0.6443(3) 0.5459(6) 0.5123(3)
C13_3 C 0.6021(5) 0.6429(7) 0.5413(4)
H5_3 H 0.6038 0.6068 0.5535
C14_3 C 0.5776(5) 0.6913(8) 0.5511(4)
C15_3 C 0.5581(6) 0.6904(8) 0.5827(4)
O7_3 O 0.5304(4) 0.7289(5) 0.5865(3)
O8_3 O 0.5690(3) 0.6540(5) 0.6040(3)
C16_3 C 0.5735(5) 0.7413(10) 0.5305(5)
H6_3 H 0.5579 0.7740 0.5368
C17_3 C 0.5920(6) 0.7446(10) 0.5008(5)
C18_3 C 0.5907(7) 0.8002(13) 0.4814(6)
N2_3 N 0.5869(9) 0.8432(13) 0.4655(6)
C19_3 C 0.6181(5) 0.6985(9) 0.4918(5)
H7_3 H 0.6314 0.7001 0.4724
C20_3 C 0.4451(6) 0.5664(9) 0.6106(5)
C21_3 C 0.4697(6) 0.6238(9) 0.6132(4)
O9_3 O 0.4591(3) 0.6703(6) 0.5983(3)
O10_3 O 0.4965(4) 0.6185(5) 0.6326(3)
C22_3 C 0.4158(6) 0.5632(8) 0.5876(5)
H8_3 H 0.4117 0.5972 0.5743
C23_3 C 0.3920(6) 0.5106(10) 0.5838(5)
C24_3 C 0.3607(7) 0.5096(11) 0.5602(5)
O11_3 O 0.3629(3) 0.5493(6) 0.5371(3)
O12_3 O 0.3360(5) 0.4693(6) 0.5633(4)
C25_3 C 0.3980(7) 0.4606(11) 0.6013(7)
H9_3 H 0.3831 0.4255 0.5982
C26_3 C 0.4281(11) 0.4607(17) 0.6256(9)
C27_3 C 0.438(3) 0.402(2) 0.6338(14)
N3_3 N 0.4420(11) 0.371(2) 0.6562(10)
C28_3 C 0.4514(8) 0.5167(13) 0.6298(8)
H10_3 H 0.4705 0.5179 0.6455
C29_3 C 0.4780(5) 0.8528(8) 0.5100(4)
C30_3 C 0.4780(5) 0.8283(8) 0.5429(4)
O13_3 O 0.5010(3) 0.8508(5) 0.5644(3)
O14_3 O 0.4565(3) 0.7839(6) 0.5504(3)
C31_3 C 0.4530(5) 0.8320(8) 0.4868(4)
H11_3 H 0.4367 0.7996 0.4920
C32_3 C 0.4511(5) 0.8565(7) 0.4563(4)
C33_3 C 0.4228(6) 0.8327(9) 0.4342(4)
O15_3 O 0.4151(3) 0.8667(6) 0.4096(3)
O16_3 O 0.4072(4) 0.7806(7) 0.4384(3)
C34_3 C 0.4767(5) 0.9020(8) 0.4478(4)
H12_3 H 0.4758 0.9187 0.4270
C35_3 C 0.5042(5) 0.9235(7) 0.4698(4)
C36_3 C 0.5315(6) 0.9723(9) 0.4598(5)
C37_3 C 0.5046(5) 0.9001(8) 0.5006(4)
H13_3 H 0.5222 0.9151 0.5156
C38_3 C 0.4422(6) 0.7326(8) 0.7071(4)
C39_3 C 0.4740(5) 0.7153(9) 0.6863(4)
O17_3 O 0.4737(3) 0.7435(5) 0.6581(3)
O18_3 O 0.4989(4) 0.6795(5) 0.6948(3)
C40_3 C 0.4392(6) 0.7043(7) 0.7381(4)
H14_3 H 0.4576 0.6763 0.7452
C41_3 C 0.4082(6) 0.7197(8) 0.7574(4)
C42_3 C 0.4056(6) 0.6909(9) 0.7908(5)
O19_3 O 0.4354(4) 0.6632(5) 0.8013(3)
O20_3 O 0.3755(3) 0.6984(5) 0.8073(3)
C43_3 C 0.3804(8) 0.7584(15) 0.7478(6)
H15_3 H 0.3585 0.7665 0.7599
C44_3 C 0.3874(10) 0.7850(15) 0.7180(9)
C45_3 C 0.3582(16) 0.821(3) 0.708(3)
N5_3 N 0.3373(12) 0.859(3) 0.6998(10)
C46_3 C 0.4148(8) 0.7726(12) 0.6968(6)
H16_3 H 0.4153 0.7901 0.6762
C47_3 C 0.5481(5) 0.4474(8) 0.6710(4)
C48_3 C 0.5505(6) 0.5154(8) 0.6685(4)
O21_3 O 0.5336(4) 0.5494(6) 0.6885(3)
O22_3 O 0.5696(4) 0.5379(5) 0.6456(4)
C49_3 C 0.5649(6) 0.4111(7) 0.6493(4)
H17_3 H 0.5784 0.4290 0.6323
C50_3 C 0.5628(5) 0.3449(9) 0.6515(5)
C51_3 C 0.5847(5) 0.3066(9) 0.6274(5)
O23_3 O 0.5989(4) 0.3296(5) 0.6023(3)
O24_3 O 0.5861(5) 0.2500(5) 0.6340(3)
C52_3 C 0.5447(5) 0.3215(8) 0.6770(5)
H18_3 H 0.5446 0.2788 0.6798
C53_3 C 0.5260(6) 0.3587(11) 0.6998(5)
C54_3 C 0.5050(7) 0.3323(11) 0.7263(7)
N6_3 N 0.4875(7) 0.3139(11) 0.7483(6)
C55_3 C 0.5288(6) 0.4206(8) 0.6966(4)
H19_3 H 0.5175 0.4460 0.7121
C56_3 C 0.7582(5) 0.5294(8) 0.5660(4)
C57_3 C 0.7357(5) 0.5214(8) 0.5352(4)
O25_3 O 0.7434(4) 0.5549(6) 0.5115(3)
O26_3 O 0.7116(4) 0.4745(6) 0.5342(3)
C58_3 C 0.7812(5) 0.5786(8) 0.5687(4)
H20_3 H 0.7846 0.6052 0.5512
C59_3 C 0.7996(5) 0.5896(7) 0.5970(4)
C60_3 C 0.8264(6) 0.6453(9) 0.6017(5)
O27_3 O 0.8273(4) 0.6818(6) 0.5789(3)
C61_3 C 0.7952(6) 0.5504(9) 0.6248(4)
H21_3 H 0.8072 0.5594 0.6443
C62_3 C 0.7722(6) 0.4990(12) 0.6214(5)
C63_3 C 0.7653(8) 0.4594(15) 0.6486(6)
N7_3 N 0.7605(8) 0.4278(14) 0.6691(7)
C64_3 C 0.7524(5) 0.4925(9) 0.5928(5)
H22_3 H 0.7340 0.4615 0.5914
C65_3 C 0.5827(6) 0.8507(8) 0.6649(4)
C66_3 C 0.5536(5) 0.8071(9) 0.6489(4)
O29_3 O 0.5282(3) 0.8280(5) 0.6318(3)
O30_3 O 0.5596(4) 0.7505(5) 0.6571(3)
C67_3 C 0.5802(5) 0.9140(7) 0.6587(4)
H23_3 H 0.5603 0.9284 0.6458
C68_3 C 0.6053(5) 0.9549(7) 0.6707(4)
C70_3 C 0.6348(7) 0.9348(9) 0.6897(5)
H24_3 H 0.6514 0.9635 0.6990
C71_3 C 0.6405(6) 0.8713(9) 0.6955(5)
C72_3 C 0.6728(9) 0.8470(14) 0.7160(7)
N8_3 N 0.6962(8) 0.8293(12) 0.7326(7)
O33_3 O 0.7103(5) 0.2947(7) 0.5537(4)
C73_3 C 0.7378(8) 0.2661(13) 0.5399(6)
H25_3 H 0.7340 0.2264 0.5319
N9_3 N 0.7701(5) 0.2911(8) 0.5372(4)
C74_3 C 0.7802(8) 0.3555(13) 0.5437(7)
H26_3 H 0.7986 0.3693 0.5281
H27_3 H 0.7908 0.3588 0.5650
H28_3 H 0.7576 0.3808 0.5422
C75_3 C 0.8016(8) 0.2526(13) 0.5220(6)
H29_3 H 0.7905 0.2225 0.5077
H30_3 H 0.8157 0.2319 0.5387
H31_3 H 0.8185 0.2790 0.5100
O34_3 O 0.5897(5) 0.4451(8) 0.5267(4)
C76_3 C 0.5658(7) 0.4850(12) 0.5259(12)
H32_3 H 0.5649 0.5036 0.5057
N10_3 N 0.5412(9) 0.5089(16) 0.5451(8)
C77_3 C 0.5130(12) 0.5572(18) 0.5392(11)
H33_3 H 0.5120 0.5846 0.5574
H34_3 H 0.4883 0.5386 0.5360
H35_3 H 0.5199 0.5801 0.5201
C78_3 C 0.5388(11) 0.4817(18) 0.5769(9)
H36_3 H 0.5588 0.4516 0.5794
H37_3 H 0.5144 0.4620 0.5794
H38_3 H 0.5417 0.5134 0.5930
O35_3 O 0.7905(4) 0.5457(6) 0.4565(3)
C79_3 C 0.8139(7) 0.5712(11) 0.4748(5)
H39_3 H 0.8120 0.6139 0.4769
N11_3 N 0.8424(6) 0.5426(10) 0.4924(5)
C80_3 C 0.8710(9) 0.5788(14) 0.5113(7)
H40_3 H 0.8936 0.5846 0.4985
H41_3 H 0.8773 0.5567 0.5308
H42_3 H 0.8603 0.6183 0.5169
C81_3 C 0.8522(9) 0.4721(14) 0.4884(7)
H43_3 H 0.8291 0.4482 0.4896
H44_3 H 0.8693 0.4595 0.5054
H45_3 H 0.8642 0.4655 0.4678
O36_3 O 0.4505(4) 0.8700(7) 0.6230(3)
C82_3 C 0.4670(9) 0.9202(15) 0.6248(7)
H46_3 H 0.4919 0.9233 0.6171
N12_3 N 0.4506(12) 0.9694(19) 0.6371(9)
C84_3 C 0.4110(13) 0.964(3) 0.6479(14)
H50_3 H 0.4103 0.9635 0.6711
H51_3 H 0.4001 0.9268 0.6395
H52_3 H 0.3967 0.9991 0.6401
O37_3 O 0.5774(4) 0.6598(7) 0.7137(4)
C85_3 C 0.5801(13) 0.7018(13) 0.7327(6)
H53_3 H 0.5579 0.7255 0.7331
N13_3 N 0.6049(9) 0.7229(14) 0.7526(7)
C86_3 C 0.6057(10) 0.7817(16) 0.7697(8)
H54_3 H 0.5851 0.8073 0.7622
H55_3 H 0.6296 0.8022 0.7656
H56_3 H 0.6029 0.7746 0.7925
C87_3 C 0.6397(12) 0.686(2) 0.7548(12)
H57_3 H 0.6613 0.7131 0.7571
H58_3 H 0.6425 0.6618 0.7355
H59_3 H 0.6381 0.6593 0.7733
O38_3 O 0.6187(4) 0.6501(7) 0.6573(4)
C88_3 C 0.6380(11) 0.6232(18) 0.6364(9)
H60_3 H 0.6337 0.5812 0.6331
N14_3 N 0.6644(9) 0.6511(15) 0.6185(7)
C89_3 C 0.6887(11) 0.6292(17) 0.5949(9)
H61_3 H 0.7108 0.6111 0.6049
H62_3 H 0.6965 0.6628 0.5812
H63_3 H 0.6757 0.5986 0.5822
C90_3 C 0.6602(19) 0.717(3) 0.6248(16)
H64_3 H 0.6342 0.7290 0.6209
H65_3 H 0.6769 0.7397 0.6107
H66_3 H 0.6668 0.7254 0.6469
O39_3 O 0.4733(4) 0.8436(6) 0.3639(3)
C91_3 C 0.5009(7) 0.8331(12) 0.3479(9)
H67_3 H 0.4974 0.8377 0.3257
N15_3 N 0.5342(10) 0.8167(12) 0.3563(9)
C92_3 C 0.5426(13) 0.809(2) 0.3903(9)
H68_3 H 0.5648 0.7836 0.3928
H69_3 H 0.5212 0.7904 0.4010
H70_3 H 0.5475 0.8492 0.3998
C93_3 C 0.5656(14) 0.811(2) 0.3334(13)
H71_3 H 0.5618 0.8398 0.3159
H72_3 H 0.5665 0.7699 0.3251
H73_3 H 0.5893 0.8205 0.3442
O40_3 O 0.4079(5) 0.7672(7) 0.6095(4)
C94_3 C 0.3740(6) 0.761(3) 0.6059(13)
H74_3 H 0.3622 0.7237 0.6108
N16_3 N 0.3538(13) 0.808(2) 0.5950(10)
C95_3 C 0.3115(13) 0.807(3) 0.5910(15)
H75_3 H 0.2995 0.8144 0.6115
H76_3 H 0.3039 0.7667 0.5831
H77_3 H 0.3039 0.8379 0.5758
C96_3 C 0.371(3) 0.869(3) 0.586(3)
H78_3 H 0.3765 0.8686 0.5629
H79_3 H 0.3937 0.8758 0.5978
H80_3 H 0.3527 0.9013 0.5902
O41_3 O 0.6769(4) 0.2945(7) 0.6193(4)
C97_3 C 0.6835(10) 0.2853(14) 0.6475(5)
H81_3 H 0.6622 0.2844 0.6610
N17_3 N 0.7153(10) 0.2767(18) 0.6614(10)
C98_3 C 0.7167(13) 0.279(2) 0.6964(10)
H82_3 H 0.6921 0.2907 0.7046
H83_3 H 0.7355 0.3083 0.7031
H84_3 H 0.7233 0.2386 0.7046
C99_3 C 0.7494(14) 0.278(3) 0.6413(13)
H85_3 H 0.7624 0.2393 0.6425
H86_3 H 0.7662 0.3105 0.6488
H87_3 H 0.7423 0.2865 0.6192
O42_3 O 0.7390(4) 0.5346(7) 0.4013(3)
O43_3 O 0.6583(4) 0.3900(6) 0.5699(3)
C100_3 C 0.6501(5) 0.4390(10) 0.5883(5)
H88_3 H 0.6488 0.4352 0.6107
O44_3 O 0.6446(4) 0.4861(7) 0.5762(4)
O45_3 O 0.6321(4) 0.3335(5) 0.5186(3)
C101_3 C 0.6416(5) 0.2854(9) 0.5005(5)
H89_3 H 0.6406 0.2892 0.4781
O46_3 O 0.6517(4) 0.2360(5) 0.5123(3)
O47_3 O 0.7254(3) 0.4579(5) 0.4639(3)
O48_3 O 0.6998(3) 0.3748(5) 0.4894(3)
O49_3 O 0.6371(3) 0.4507(6) 0.4629(3)
O50_3 O 0.6640(5) 0.5307(6) 0.4367(4)
O51_3 O 0.5928(4) 0.2194(7) 0.5616(3)
O52_3 O 0.4354(4) 0.8368(5) 0.3013(3)
O53_3 O 0.3755(3) 0.8016(5) 0.3073(3)
O54_3 O 0.4139(5) 0.7500(5) 0.3660(3)
O55_3 O 0.6727(4) 0.1818(6) 0.5789(3)
O57_3 O 0.4251(4) 0.9600(5) 0.3543(3)
O58_3 O 0.3754(4) 0.9386(5) 0.3237(3)
H90_3 H 0.767195 0.535021 0.398438
H91_3 H 0.729038 0.492527 0.396588
Gd2_4 Gd 0.02233(3) 0.22427(4) 0.10593(2)
C20_4 C 0.0549(6) 0.4336(9) 0.1106(5)
C21_4 C 0.0303(6) 0.3762(9) 0.1132(4)
O9_4 O 0.0409(3) 0.3297(6) 0.0983(3)
O10_4 O 0.0035(4) 0.3815(5) 0.1326(3)
C22_4 C 0.0842(6) 0.4368(8) 0.0876(5)
H8_4 H 0.0883 0.4028 0.0743
C23_4 C 0.1080(6) 0.4894(10) 0.0838(5)
C24_4 C 0.1393(7) 0.4904(11) 0.0602(5)
O11_4 O 0.1371(3) 0.4507(6) 0.0371(3)
O12_4 O 0.1640(5) 0.5307(6) 0.0633(4)
C25_4 C 0.1020(7) 0.5394(11) 0.1013(7)
H9_4 H 0.1169 0.5745 0.0982
C26_4 C 0.0719(11) 0.5393(17) 0.1256(9)
C27_4 C 0.062(3) 0.598(2) 0.1338(14)
N3_4 N 0.0580(11) 0.629(2) 0.1562(10)
C28_4 C 0.0486(8) 0.4833(13) 0.1298(8)
H10_4 H 0.0295 0.4821 0.1455
C29_4 C 0.0220(5) 0.1472(8) 0.0100(4)
C30_4 C 0.0220(5) 0.1717(8) 0.0429(4)
O14_4 O 0.0435(3) 0.2161(6) 0.0504(3)
C38_4 C 0.0578(6) 0.2674(8) 0.2071(4)
C39_4 C 0.0260(5) 0.2847(9) 0.1863(4)
O17_4 O 0.0263(3) 0.2565(5) 0.1581(3)
O18_4 O 0.0011(4) 0.3205(5) 0.1948(3)
C40_4 C 0.0608(6) 0.2957(7) 0.2381(4)
H14_4 H 0.0424 0.3237 0.2452
C41_4 C 0.0918(6) 0.2803(8) 0.2574(4)
C42_4 C 0.0944(6) 0.3091(9) 0.2908(5)
O19_4 O 0.0646(4) 0.3368(5) 0.3013(3)
O20_4 O 0.1245(3) 0.3016(5) 0.3073(3)
C43_4 C 0.1196(8) 0.2416(15) 0.2478(6)
H15_4 H 0.1415 0.2335 0.2599
C44_4 C 0.1126(10) 0.2150(15) 0.2180(9)
C45_4 C 0.1418(16) 0.179(3) 0.208(3)
N5_4 N 0.1627(12) 0.141(3) 0.1998(10)
C46_4 C 0.0852(8) 0.2274(12) 0.1968(6)
H16_4 H 0.0847 0.2099 0.1762
N6_4 N 0.0125(7) 0.6861(11) 0.2483(6)
H34_4 H 0.0117 0.4614 0.0360
O36_4 O 0.0495(4) 0.1300(7) 0.1230(3)
C82_4 C 0.0330(9) 0.0798(15) 0.1248(7)
H46_4 H 0.0081 0.0767 0.1171
N12_4 N 0.0494(12) 0.0306(19) 0.1371(9)
C84_4 C 0.0890(13) 0.036(3) 0.1479(14)
H50_4 H 0.0897 0.0365 0.1711
H51_4 H 0.0999 0.0732 0.1395
H52_4 H 0.1033 0.0009 0.1401
O40_4 O 0.0921(5) 0.2328(7) 0.1095(4)
C94_4 C 0.1260(6) 0.239(3) 0.1059(13)
H74_4 H 0.1378 0.2763 0.1108
N16_4 N 0.1462(13) 0.192(2) 0.0950(10)
C95_4 C 0.1885(13) 0.193(3) 0.0910(15)
H75_4 H 0.2005 0.1856 0.1115
H76_4 H 0.1961 0.2333 0.0831
H77_4 H 0.1961 0.1621 0.0758
C96_4 C 0.129(3) 0.131(3) 0.086(3)
H78_4 H 0.1235 0.1314 0.0629
H79_4 H 0.1063 0.1242 0.0978
H80_4 H 0.1473 0.0987 0.0902
C31_4 C 0.0470(5) 0.1680(8) 0.9868(4)
H11_4 H 0.0633 0.2004 0.9920
C32_4 C 0.0489(5) 0.1435(7) 0.9563(4)
C33_4 C 0.0772(6) 0.1673(9) 0.9342(4)
O15_4 O 0.0849(3) 0.1333(6) 0.9096(3)
O16_4 O 0.0928(4) 0.2194(7) 0.9384(3)
C34_4 C 0.0233(5) 0.0980(8) 0.9478(4)
H12_4 H 0.0242 0.0813 0.9270
O39_4 O 0.0267(4) 0.1564(6) 0.8639(3)
H67_4 H 0.0026 0.1623 0.8257
O52_4 O 0.0646(4) 0.1632(5) 0.8013(3)
O53_4 O 0.1245(3) 0.1984(5) 0.8073(3)
O54_4 O 0.0861(5) 0.2500(5) 0.8660(3)
O57_4 O 0.0749(4) 0.0400(5) 0.8543(3)
O58_4 O 0.1246(4) 0.0614(5) 0.8237(3)
Gd3_4 Gd 0.94891(3) 0.35458(4) 0.16014(2)
Gd5_4 Gd 0.85367(3) 0.71973(4) 0.07006(2)
Gd6_4 Gd 0.84570(3) 0.55993(4) 0.01676(2)
C9_4 C 0.8860(6) 0.1692(10) 0.1816(5)
H3_4 H 0.8821 0.2116 0.1838
C11_4 C 0.8771(5) 0.3504(8) 0.0139(5)
C12_4 C 0.8488(5) 0.4000(8) 0.0028(4)
O6_4 O 0.8557(3) 0.4541(6) 0.0123(3)
C13_4 C 0.8979(5) 0.3571(7) 0.0413(4)
H5_4 H 0.8962 0.3932 0.0535
C14_4 C 0.9224(5) 0.3087(8) 0.0511(4)
C15_4 C 0.9419(6) 0.3096(8) 0.0827(4)
O7_4 O 0.9696(4) 0.2711(5) 0.0865(3)
O8_4 O 0.9310(3) 0.3460(5) 0.1040(3)
C16_4 C 0.9265(5) 0.2587(10) 0.0305(5)
H6_4 H 0.9421 0.2260 0.0368
C17_4 C 0.9080(6) 0.2554(10) 0.0008(5)
O13_4 O 0.9990(3) 0.1492(5) 0.0644(3)
C37_4 C 0.9954(5) 0.0999(8) 0.0006(4)
H13_4 H 0.9778 0.0849 0.0156
C47_4 C 0.9519(5) 0.5526(8) 0.1710(4)
C48_4 C 0.9495(6) 0.4846(8) 0.1685(4)
O21_4 O 0.9664(4) 0.4506(6) 0.1885(3)
O22_4 O 0.9304(4) 0.4621(5) 0.1456(4)
C49_4 C 0.9351(6) 0.5889(7) 0.1493(4)
H17_4 H 0.9216 0.5710 0.1323
C50_4 C 0.9372(5) 0.6551(9) 0.1515(5)
C51_4 C 0.9153(5) 0.6934(9) 0.1274(5)
O23_4 O 0.9011(4) 0.6704(5) 0.1023(3)
O24_4 O 0.9139(5) 0.7500(5) 0.1340(3)
C52_4 C 0.9553(5) 0.6785(8) 0.1770(5)
H18_4 H 0.9554 0.7212 0.1798
C53_4 C 0.9740(6) 0.6413(11) 0.1998(5)
C54_4 C 0.9950(7) 0.6677(11) 0.2263(7)
C55_4 C 0.9712(6) 0.5794(8) 0.1966(4)
H19_4 H 0.9825 0.5540 0.2121
C56_4 C 0.7418(5) 0.4706(8) 0.0660(4)
C57_4 C 0.7643(5) 0.4786(8) 0.0352(4)
O25_4 O 0.7566(4) 0.4451(6) 0.0115(3)
O26_4 O 0.7884(4) 0.5255(6) 0.0342(3)
C58_4 C 0.7188(5) 0.4214(8) 0.0687(4)
H20_4 H 0.7154 0.3948 0.0512
C59_4 C 0.7004(5) 0.4104(7) 0.0970(4)
C60_4 C 0.6736(6) 0.3547(9) 0.1017(5)
O27_4 O 0.6727(4) 0.3182(6) 0.0789(3)
C61_4 C 0.7048(6) 0.4496(9) 0.1248(4)
H21_4 H 0.6928 0.4406 0.1443
C62_4 C 0.7278(6) 0.5010(12) 0.1214(5)
C63_4 C 0.7347(8) 0.5406(15) 0.1486(6)
N7_4 N 0.7395(8) 0.5722(14) 0.1691(7)
C64_4 C 0.7476(5) 0.5075(9) 0.0928(5)
H22_4 H 0.7660 0.5385 0.0914
C65_4 C 0.9173(6) 0.1493(8) 0.1649(4)
C66_4 C 0.9464(5) 0.1929(9) 0.1489(4)
O29_4 O 0.9718(3) 0.1720(5) 0.1318(3)
O30_4 O 0.9404(4) 0.2495(5) 0.1571(3)
C67_4 C 0.9198(5) 0.0860(7) 0.1587(4)
H23_4 H 0.9397 0.0716 0.1458
C68_4 C 0.8947(5) 0.0451(7) 0.1707(4)
C70_4 C 0.8652(7) 0.0652(9) 0.1897(5)
H24_4 H 0.8486 0.0365 0.1990
C71_4 C 0.8595(6) 0.1287(9) 0.1955(5)
C72_4 C 0.8272(9) 0.1530(14) 0.2160(7)
N8_4 N 0.8038(8) 0.1707(12) 0.2326(7)
O33_4 O 0.7897(5) 0.7053(7) 0.0537(4)
C73_4 C 0.7622(8) 0.7339(13) 0.0399(6)
H25_4 H 0.7660 0.7736 0.0319
N9_4 N 0.7299(5) 0.7089(8) 0.0372(4)
C74_4 C 0.7198(8) 0.6445(13) 0.0437(7)
H26_4 H 0.7014 0.6307 0.0281
H27_4 H 0.7092 0.6412 0.0650
H28_4 H 0.7424 0.6192 0.0422
C75_4 C 0.6984(8) 0.7474(13) 0.0220(6)
H29_4 H 0.7095 0.7775 0.0077
H30_4 H 0.6843 0.7681 0.0387
H31_4 H 0.6815 0.7210 0.0100
O34_4 O 0.9103(5) 0.5549(8) 0.0267(4)
C76_4 C 0.9342(7) 0.5150(12) 0.0259(12)
H32_4 H 0.9351 0.4964 0.0057
N10_4 N 0.9588(9) 0.4911(16) 0.0451(8)
C77_4 C 0.9870(12) 0.4428(18) 0.0392(11)
H33_4 H 0.9880 0.4154 0.0574
H35_4 H 0.9801 0.4199 0.0201
C78_4 C 0.9612(11) 0.5183(18) 0.0769(9)
H36_4 H 0.9412 0.5484 0.0794
H37_4 H 0.9856 0.5380 0.0794
H38_4 H 0.9583 0.4866 0.0930
C80_4 C 0.6290(9) 0.4212(14) 0.0113(7)
H41_4 H 0.6227 0.4433 0.0308
H42_4 H 0.6397 0.3817 0.0169
H44_4 H 0.6307 0.5405 0.0054
O37_4 O 0.9226(4) 0.3402(7) 0.2137(4)
C85_4 C 0.9199(13) 0.2982(13) 0.2327(6)
H53_4 H 0.9421 0.2745 0.2331
N13_4 N 0.8951(9) 0.2771(14) 0.2526(7)
C86_4 C 0.8943(10) 0.2183(16) 0.2697(8)
H54_4 H 0.9149 0.1927 0.2622
H55_4 H 0.8704 0.1978 0.2656
H56_4 H 0.8971 0.2254 0.2925
C87_4 C 0.8603(12) 0.314(2) 0.2548(12)
H57_4 H 0.8387 0.2869 0.2571
H58_4 H 0.8575 0.3382 0.2355
H59_4 H 0.8619 0.3407 0.2733
O38_4 O 0.8813(4) 0.3499(7) 0.1573(4)
C88_4 C 0.8620(11) 0.3768(18) 0.1364(9)
H60_4 H 0.8663 0.4188 0.1331
N14_4 N 0.8356(9) 0.3489(15) 0.1185(7)
C89_4 C 0.8113(11) 0.3708(17) 0.0949(9)
H61_4 H 0.7892 0.3889 0.1049
H62_4 H 0.8035 0.3372 0.0812
H63_4 H 0.8243 0.4014 0.0822
C90_4 C 0.8398(19) 0.283(3) 0.1248(16)
H64_4 H 0.8658 0.2710 0.1209
H65_4 H 0.8231 0.2603 0.1107
H66_4 H 0.8332 0.2746 0.1469
O41_4 O 0.8231(4) 0.7055(7) 0.1193(4)
C97_4 C 0.8165(10) 0.7147(14) 0.1475(5)
H81_4 H 0.8378 0.7156 0.1610
N17_4 N 0.7847(10) 0.7233(18) 0.1614(10)
C98_4 C 0.7833(13) 0.721(2) 0.1964(10)
H82_4 H 0.8079 0.7093 0.2046
H83_4 H 0.7645 0.6917 0.2031
H84_4 H 0.7767 0.7614 0.2046
C99_4 C 0.7506(14) 0.722(3) 0.1413(13)
H85_4 H 0.7376 0.7607 0.1425
H86_4 H 0.7338 0.6895 0.1488
H87_4 H 0.7577 0.7135 0.1192
O43_4 O 0.8417(4) 0.6100(6) 0.0699(3)
C100_4 C 0.8499(5) 0.5610(10) 0.0883(5)
H88_4 H 0.8512 0.5648 0.1107
O44_4 O 0.8554(4) 0.5139(7) 0.0762(4)
O45_4 O 0.8679(4) 0.6665(5) 0.0186(3)
C101_4 C 0.8584(5) 0.7146(9) 0.0005(5)
O46_4 O 0.8483(4) 0.7640(5) 0.0123(3)
O51_4 O 0.9072(4) 0.7806(7) 0.0616(3)
O55_4 O 0.8273(4) 0.8182(6) 0.0789(3)
Gd1_4 Gd 0.77660(3) 0.43752(4) 0.95659(2)
C1_4 C 0.7742(5) 0.2432(7) 0.9383(4)
C2_4 C 0.7730(6) 0.3119(8) 0.9430(5)
O1_4 O 0.7494(3) 0.3329(5) 0.9626(3)
O2_4 O 0.7927(4) 0.3447(6) 0.9250(3)
C3_4 C 0.7495(5) 0.2051(8) 0.9549(4)
H1_4 H 0.7312 0.2225 0.9685
C4_4 C 0.7512(6) 0.1407(7) 0.9517(4)
C5_4 C 0.7234(5) 0.1002(9) 0.9696(4)
O3_4 O 0.7254(3) 0.0421(5) 0.9639(3)
O4_4 O 0.6998(3) 0.1252(5) 0.9894(3)
C6_4 C 0.7790(6) 0.1139(9) 0.9336(5)
H2_4 H 0.7812 0.0710 0.9325
C7_4 C 0.8046(7) 0.1527(9) 0.9164(5)
C8_4 C 0.8316(10) 0.1261(10) 0.8971(8)
N1_4 N 0.8575(8) 0.1067(10) 0.8806(7)
C10_4 C 0.8012(6) 0.2157(10) 0.9191(5)
H4_4 H 0.8179 0.2407 0.9074
O5_4 O 0.8221(4) 0.3848(6) 0.9854(3)
C18_4 C 0.9093(7) 0.1998(13) 0.9814(6)
N2_4 N 0.9131(9) 0.1568(13) 0.9655(6)
C19_4 C 0.8819(5) 0.3015(9) 0.9918(5)
H7_4 H 0.8686 0.2999 0.9724
C35_4 C 0.9958(5) 0.0765(7) 0.9698(4)
C36_4 C 0.9685(6) 0.0277(9) 0.9598(5)
O35_4 O 0.7095(4) 0.4543(6) 0.9565(3)
C79_4 C 0.6861(7) 0.4288(11) 0.9748(5)
H39_4 H 0.6880 0.3861 0.9769
N11_4 N 0.6576(6) 0.4574(10) 0.9924(5)
H40_4 H 0.6064 0.4154 0.9985
C81_4 C 0.6478(9) 0.5279(14) 0.9884(7)
H43_4 H 0.6709 0.5518 0.9896
H45_4 H 0.6358 0.5345 0.9678
C91_4 C 0.9991(7) 0.1669(12) 0.8479(9)
N15_4 N 0.9658(10) 0.1833(12) 0.8563(9)
C92_4 C 0.9574(13) 0.191(2) 0.8903(9)
H68_4 H 0.9352 0.2164 0.8928
H69_4 H 0.9788 0.2096 0.9010
H70_4 H 0.9525 0.1508 0.8998
C93_4 C 0.9344(14) 0.189(2) 0.8334(13)
H71_4 H 0.9382 0.1602 0.8159
H72_4 H 0.9335 0.2301 0.8251
H73_4 H 0.9107 0.1795 0.8442
O42_4 O 0.7610(4) 0.4654(7) 0.9013(3)
H89_4 H 0.8594 0.7108 0.9781
O47_4 O 0.7746(3) 0.5421(5) 0.9639(3)
O48_4 O 0.8002(3) 0.6252(5) 0.9894(3)
O49_4 O 0.8629(3) 0.5493(6) 0.9629(3)
O50_4 O 0.8360(5) 0.4693(6) 0.9367(4)
H90_4 H 0.732805 0.464979 0.898438
H91_4 H 0.770962 0.507473 0.896588
C69_4 C 0.8992(6) 0.9780(8) 0.1640(4)
O31_4 O 0.9251(4) 0.9600(5) 0.1457(3)
O32_4 O 0.8754(4) 0.9386(5) 0.1763(3)
N4_4 N 0.9478(5) 0.9913(8) 0.9520(4)
C25_5 C 0.3980(7) 0.0394(11) 0.1013(7)
H9_5 H 0.3831 0.0745 0.0982
C26_5 C 0.4281(11) 0.0393(17) 0.1256(9)
C27_5 C 0.438(3) 0.098(2) 0.1338(14)
N3_5 N 0.4420(11) 0.129(2) 0.1562(10)
C47_5 C 0.5481(5) 0.0526(8) 0.1710(4)
C49_5 C 0.5649(6) 0.0889(7) 0.1493(4)
H17_5 H 0.5784 0.0710 0.1323
C50_5 C 0.5628(5) 0.1551(9) 0.1515(5)
C51_5 C 0.5847(5) 0.1934(9) 0.1274(5)
O23_5 O 0.5989(4) 0.1704(5) 0.1023(3)
C52_5 C 0.5447(5) 0.1785(8) 0.1770(5)
H18_5 H 0.5446 0.2212 0.1798
C53_5 C 0.5260(6) 0.1413(11) 0.1998(5)
C54_5 C 0.5050(7) 0.1677(11) 0.2263(7)
N6_5 N 0.4875(7) 0.1861(11) 0.2483(6)
C55_5 C 0.5288(6) 0.0794(8) 0.1966(4)
H19_5 H 0.5175 0.0540 0.2121
O26_5 O 0.7116(4) 0.0255(6) 0.0342(3)
C62_5 C 0.7722(6) 0.0010(12) 0.1214(5)
C63_5 C 0.7653(8) 0.0406(15) 0.1486(6)
N7_5 N 0.7605(8) 0.0722(14) 0.1691(7)
C64_5 C 0.7524(5) 0.0075(9) 0.0928(5)
H22_5 H 0.7340 0.0385 0.0914
O33_5 O 0.7103(5) 0.2053(7) 0.0537(4)
C73_5 C 0.7378(8) 0.2339(13) 0.0399(6)
H25_5 H 0.7340 0.2736 0.0319
N9_5 N 0.7701(5) 0.2089(8) 0.0372(4)
C74_5 C 0.7802(8) 0.1445(13) 0.0437(7)
H26_5 H 0.7986 0.1307 0.0281
H27_5 H 0.7908 0.1412 0.0650
H28_5 H 0.7576 0.1192 0.0422
C75_5 C 0.8016(8) 0.2474(13) 0.0220(6)
H29_5 H 0.7905 0.2775 0.0077
H30_5 H 0.8157 0.2681 0.0387
H31_5 H 0.8185 0.2210 0.0100
O34_5 O 0.5897(5) 0.0549(8) 0.0267(4)
C76_5 C 0.5658(7) 0.0150(12) 0.0259(12)
C78_5 C 0.5388(11) 0.0183(18) 0.0769(9)
H36_5 H 0.5588 0.0484 0.0794
H37_5 H 0.5144 0.0380 0.0794
H44_5 H 0.8693 0.0405 0.0054
O41_5 O 0.6769(4) 0.2055(7) 0.1193(4)
C97_5 C 0.6835(10) 0.2147(14) 0.1475(5)
H81_5 H 0.6622 0.2156 0.1610
N17_5 N 0.7153(10) 0.2233(18) 0.1614(10)
C98_5 C 0.7167(13) 0.221(2) 0.1964(10)
H82_5 H 0.6921 0.2093 0.2046
H83_5 H 0.7355 0.1917 0.2031
H84_5 H 0.7233 0.2614 0.2046
C99_5 C 0.7494(14) 0.222(3) 0.1413(13)
H85_5 H 0.7624 0.2607 0.1425
H86_5 H 0.7662 0.1895 0.1488
H87_5 H 0.7423 0.2135 0.1192
O43_5 O 0.6583(4) 0.1100(6) 0.0699(3)
C100_5 C 0.6501(5) 0.0610(10) 0.0883(5)
H88_5 H 0.6488 0.0648 0.1107
O44_5 O 0.6446(4) 0.0139(7) 0.0762(4)
O45_5 O 0.6321(4) 0.1665(5) 0.0186(3)
C101_5 C 0.6416(5) 0.2146(9) 0.0005(5)
O46_5 O 0.6517(4) 0.2640(5) 0.0123(3)
C81_5 C 0.8522(9) 0.0279(14) 0.9884(7)
H43_5 H 0.8291 0.0518 0.9896
H45_5 H 0.8642 0.0345 0.9678
H89_5 H 0.6406 0.2108 0.9781
H91_5 H 0.729038 0.00747335 0.896588
Gd2_5 Gd 0.47767(3) 0.72427(4) 0.10593(2)
Gd3_5 Gd 0.55109(3) 0.85458(4) 0.16014(2)
C9_5 C 0.6140(6) 0.6692(10) 0.1816(5)
H3_5 H 0.6179 0.7116 0.1838
C11_5 C 0.6229(5) 0.8504(8) 0.0139(5)
C12_5 C 0.6512(5) 0.9000(8) 0.0028(4)
O6_5 O 0.6443(3) 0.9541(6) 0.0123(3)
C13_5 C 0.6021(5) 0.8571(7) 0.0413(4)
H5_5 H 0.6038 0.8932 0.0535
C14_5 C 0.5776(5) 0.8087(8) 0.0511(4)
C15_5 C 0.5581(6) 0.8096(8) 0.0827(4)
O7_5 O 0.5304(4) 0.7711(5) 0.0865(3)
O8_5 O 0.5690(3) 0.8460(5) 0.1040(3)
C16_5 C 0.5735(5) 0.7587(10) 0.0305(5)
H6_5 H 0.5579 0.7260 0.0368
C17_5 C 0.5920(6) 0.7554(10) 0.0008(5)
C20_5 C 0.4451(6) 0.9336(9) 0.1106(5)
C21_5 C 0.4697(6) 0.8762(9) 0.1132(4)
O9_5 O 0.4591(3) 0.8297(6) 0.0983(3)
O10_5 O 0.4965(4) 0.8815(5) 0.1326(3)
C22_5 C 0.4158(6) 0.9368(8) 0.0876(5)
H8_5 H 0.4117 0.9028 0.0743
C23_5 C 0.3920(6) 0.9894(10) 0.0838(5)
C24_5 C 0.3607(7) 0.9904(11) 0.0602(5)
C28_5 C 0.4514(8) 0.9833(13) 0.1298(8)
H10_5 H 0.4705 0.9821 0.1455
C29_5 C 0.4780(5) 0.6472(8) 0.0100(4)
C30_5 C 0.4780(5) 0.6717(8) 0.0429(4)
O13_5 O 0.5010(3) 0.6492(5) 0.0644(3)
O14_5 O 0.4565(3) 0.7161(6) 0.0504(3)
C37_5 C 0.5046(5) 0.5999(8) 0.0006(4)
H13_5 H 0.5222 0.5849 0.0156
C38_5 C 0.4422(6) 0.7674(8) 0.2071(4)
C39_5 C 0.4740(5) 0.7847(9) 0.1863(4)
O17_5 O 0.4737(3) 0.7565(5) 0.1581(3)
O18_5 O 0.4989(4) 0.8205(5) 0.1948(3)
C40_5 C 0.4392(6) 0.7957(7) 0.2381(4)
H14_5 H 0.4576 0.8237 0.2452
C41_5 C 0.4082(6) 0.7803(8) 0.2574(4)
C42_5 C 0.4056(6) 0.8091(9) 0.2908(5)
C43_5 C 0.3804(8) 0.7416(15) 0.2478(6)
H15_5 H 0.3585 0.7335 0.2599
C44_5 C 0.3874(10) 0.7150(15) 0.2180(9)
C45_5 C 0.3582(16) 0.679(3) 0.208(3)
N5_5 N 0.3373(12) 0.641(3) 0.1998(10)
C46_5 C 0.4148(8) 0.7274(12) 0.1968(6)
H16_5 H 0.4153 0.7099 0.1762
C48_5 C 0.5505(6) 0.9846(8) 0.1685(4)
O21_5 O 0.5336(4) 0.9506(6) 0.1885(3)
O22_5 O 0.5696(4) 0.9621(5) 0.1456(4)
C56_5 C 0.7582(5) 0.9706(8) 0.0660(4)
C57_5 C 0.7357(5) 0.9786(8) 0.0352(4)
O25_5 O 0.7434(4) 0.9451(6) 0.0115(3)
C58_5 C 0.7812(5) 0.9214(8) 0.0687(4)
H20_5 H 0.7846 0.8948 0.0512
C59_5 C 0.7996(5) 0.9104(7) 0.0970(4)
C60_5 C 0.8264(6) 0.8547(9) 0.1017(5)
O28_3 O 0.8457(4) 0.8484(6) 0.1274(3)
C61_5 C 0.7952(6) 0.9496(9) 0.1248(4)
H21_5 H 0.8072 0.9406 0.1443
C65_5 C 0.5827(6) 0.6493(8) 0.1649(4)
C66_5 C 0.5536(5) 0.6929(9) 0.1489(4)
O29_5 O 0.5282(3) 0.6720(5) 0.1318(3)
O30_5 O 0.5596(4) 0.7495(5) 0.1571(3)
C67_5 C 0.5802(5) 0.5860(7) 0.1587(4)
H23_5 H 0.5603 0.5716 0.1458
C68_5 C 0.6053(5) 0.5451(7) 0.1707(4)
C69_5 C 0.6008(6) 0.4780(8) 0.1640(4)
C70_5 C 0.6348(7) 0.5652(9) 0.1897(5)
H24_5 H 0.6514 0.5365 0.1990
C71_5 C 0.6405(6) 0.6287(9) 0.1955(5)
C72_5 C 0.6728(9) 0.6530(14) 0.2160(7)
N8_5 N 0.6962(8) 0.6707(12) 0.2326(7)
H32_5 H 0.5649 0.9964 0.0057
N10_5 N 0.5412(9) 0.9911(16) 0.0451(8)
C77_5 C 0.5130(12) 0.9428(18) 0.0392(11)
H33_5 H 0.5120 0.9154 0.0574
H34_5 H 0.4883 0.9614 0.0360
H35_5 H 0.5199 0.9199 0.0201
H38_5 H 0.5417 0.9866 0.0930
C80_5 C 0.8710(9) 0.9212(14) 0.0113(7)
H41_5 H 0.8773 0.9433 0.0308
H42_5 H 0.8603 0.8817 0.0169
O36_5 O 0.4505(4) 0.6300(7) 0.1230(3)
C82_5 C 0.4670(9) 0.5798(15) 0.1248(7)
H46_5 H 0.4919 0.5767 0.1171
N12_5 N 0.4506(12) 0.5306(19) 0.1371(9)
C83_4 C 0.4713(12) 0.4724(19) 0.1363(11)
H47_4 H 0.4863 0.4684 0.1557
H48_4 H 0.4535 0.4388 0.1350
H49_4 H 0.4879 0.4717 0.1178
C84_5 C 0.4110(13) 0.536(3) 0.1479(14)
H50_5 H 0.4103 0.5365 0.1711
H51_5 H 0.4001 0.5732 0.1395
H52_5 H 0.3967 0.5009 0.1401
O37_5 O 0.5774(4) 0.8402(7) 0.2137(4)
C85_5 C 0.5801(13) 0.7982(13) 0.2327(6)
H53_5 H 0.5579 0.7745 0.2331
N13_5 N 0.6049(9) 0.7771(14) 0.2526(7)
C86_5 C 0.6057(10) 0.7183(16) 0.2697(8)
H54_5 H 0.5851 0.6927 0.2622
H55_5 H 0.6296 0.6978 0.2656
H56_5 H 0.6029 0.7254 0.2925
C87_5 C 0.6397(12) 0.814(2) 0.2548(12)
H57_5 H 0.6613 0.7869 0.2571
H58_5 H 0.6425 0.8382 0.2355
H59_5 H 0.6381 0.8407 0.2733
O38_5 O 0.6187(4) 0.8499(7) 0.1573(4)
C88_5 C 0.6380(11) 0.8768(18) 0.1364(9)
H60_5 H 0.6337 0.9188 0.1331
N14_5 N 0.6644(9) 0.8489(15) 0.1185(7)
C89_5 C 0.6887(11) 0.8708(17) 0.0949(9)
H61_5 H 0.7108 0.8889 0.1049
H62_5 H 0.6965 0.8372 0.0812
H63_5 H 0.6757 0.9014 0.0822
C90_5 C 0.6602(19) 0.783(3) 0.1248(16)
H64_5 H 0.6342 0.7710 0.1209
H65_5 H 0.6769 0.7603 0.1107
H66_5 H 0.6668 0.7746 0.1469
O40_5 O 0.4079(5) 0.7328(7) 0.1095(4)
C94_5 C 0.3740(6) 0.739(3) 0.1059(13)
H74_5 H 0.3622 0.7763 0.1108
N16_5 N 0.3538(13) 0.692(2) 0.0950(10)
C95_5 C 0.3115(13) 0.693(3) 0.0910(15)
H75_5 H 0.2995 0.6856 0.1115
H76_5 H 0.3039 0.7333 0.0831
H77_5 H 0.3039 0.6621 0.0758
C96_5 C 0.371(3) 0.631(3) 0.086(3)
H78_5 H 0.3765 0.6314 0.0629
H79_5 H 0.3937 0.6242 0.0978
H80_5 H 0.3527 0.5987 0.0902
C1_5 C 0.7258(5) 0.7432(7) 0.9383(4)
C2_5 C 0.7270(6) 0.8119(8) 0.9430(5)
O1_5 O 0.7506(3) 0.8329(5) 0.9626(3)
O2_5 O 0.7073(4) 0.8447(6) 0.9250(3)
C3_5 C 0.7505(5) 0.7051(8) 0.9549(4)
H1_5 H 0.7688 0.7225 0.9685
C4_5 C 0.7488(6) 0.6407(7) 0.9517(4)
C5_5 C 0.7766(5) 0.6002(9) 0.9696(4)
C6_5 C 0.7210(6) 0.6139(9) 0.9336(5)
H2_5 H 0.7188 0.5710 0.9325
C7_5 C 0.6954(7) 0.6527(9) 0.9164(5)
C8_5 C 0.6684(10) 0.6261(10) 0.8971(8)
N1_5 N 0.6425(8) 0.6067(10) 0.8806(7)
C10_5 C 0.6988(6) 0.7157(10) 0.9191(5)
H4_5 H 0.6821 0.7407 0.9074
O5_5 O 0.6779(4) 0.8848(6) 0.9854(3)
C18_5 C 0.5907(7) 0.6998(13) 0.9814(6)
N2_5 N 0.5869(9) 0.6568(13) 0.9655(6)
C19_5 C 0.6181(5) 0.8015(9) 0.9918(5)
H7_5 H 0.6314 0.7999 0.9724
C31_5 C 0.4530(5) 0.6680(8) 0.9868(4)
H11_5 H 0.4367 0.7004 0.9920
C32_5 C 0.4511(5) 0.6435(7) 0.9563(4)
C33_5 C 0.4228(6) 0.6673(9) 0.9342(4)
O15_5 O 0.4151(3) 0.6333(6) 0.9096(3)
C34_5 C 0.4767(5) 0.5980(8) 0.9478(4)
H12_5 H 0.4758 0.5813 0.9270
C35_5 C 0.5042(5) 0.5765(7) 0.9698(4)
C36_5 C 0.5315(6) 0.5277(9) 0.9598(5)
N4_5 N 0.5522(5) 0.4913(8) 0.9520(4)
O35_5 O 0.7905(4) 0.9543(6) 0.9565(3)
C79_5 C 0.8139(7) 0.9288(11) 0.9748(5)
H39_5 H 0.8120 0.8861 0.9769
N11_5 N 0.8424(6) 0.9574(10) 0.9924(5)
H40_5 H 0.8936 0.9154 0.9985
O39_5 O 0.4733(4) 0.6564(6) 0.8639(3)
C91_5 C 0.5009(7) 0.6669(12) 0.8479(9)
H67_5 H 0.4974 0.6623 0.8257
N15_5 N 0.5342(10) 0.6833(12) 0.8563(9)
C92_5 C 0.5426(13) 0.691(2) 0.8903(9)
H68_5 H 0.5648 0.7164 0.8928
H69_5 H 0.5212 0.7096 0.9010
H70_5 H 0.5475 0.6508 0.8998
C93_5 C 0.5656(14) 0.689(2) 0.8334(13)
H71_5 H 0.5618 0.6602 0.8159
H72_5 H 0.5665 0.7301 0.8251
H73_5 H 0.5893 0.6795 0.8442
O42_5 O 0.7390(4) 0.9654(7) 0.9013(3)
O56_3 O 0.3457(4) 0.6516(6) 0.8726(3)
H90_5 H 0.767195 0.964979 0.898438
Gd2_6 Gd 0.02233(3) 0.27573(4) 0.60593(2)
C20_6 C 0.0549(6) 0.0664(9) 0.6106(5)
C21_6 C 0.0303(6) 0.1238(9) 0.6132(4)
O9_6 O 0.0409(3) 0.1703(6) 0.5983(3)
O10_6 O 0.0035(4) 0.1185(5) 0.6326(3)
C22_6 C 0.0842(6) 0.0632(8) 0.5876(5)
H8_6 H 0.0883 0.0972 0.5743
C23_6 C 0.1080(6) 0.0106(10) 0.5838(5)
C24_6 C 0.1393(7) 0.0096(11) 0.5602(5)
C28_6 C 0.0486(8) 0.0167(13) 0.6298(8)
H10_6 H 0.0295 0.0179 0.6455
C29_6 C 0.0220(5) 0.3528(8) 0.5100(4)
C30_6 C 0.0220(5) 0.3283(8) 0.5429(4)
O14_6 O 0.0435(3) 0.2839(6) 0.5504(3)
C31_6 C 0.0470(5) 0.3320(8) 0.4868(4)
H11_6 H 0.0633 0.2996 0.4920
C32_6 C 0.0489(5) 0.3565(7) 0.4563(4)
C33_6 C 0.0772(6) 0.3327(9) 0.4342(4)
O15_6 O 0.0849(3) 0.3667(6) 0.4096(3)
C34_6 C 0.0233(5) 0.4020(8) 0.4478(4)
H12_6 H 0.0242 0.4187 0.4270
C38_6 C 0.0578(6) 0.2326(8) 0.7071(4)
C39_6 C 0.0260(5) 0.2153(9) 0.6863(4)
O17_6 O 0.0263(3) 0.2435(5) 0.6581(3)
O18_6 O 0.0011(4) 0.1795(5) 0.6948(3)
C40_6 C 0.0608(6) 0.2043(7) 0.7381(4)
H14_6 H 0.0424 0.1763 0.7452
C41_6 C 0.0918(6) 0.2197(8) 0.7574(4)
C42_6 C 0.0944(6) 0.1909(9) 0.7908(5)
C43_6 C 0.1196(8) 0.2584(15) 0.7478(6)
H15_6 H 0.1415 0.2665 0.7599
C44_6 C 0.1126(10) 0.2850(15) 0.7180(9)
C45_6 C 0.1418(16) 0.321(3) 0.708(3)
N5_6 N 0.1627(12) 0.359(3) 0.6998(10)
C46_6 C 0.0852(8) 0.2726(12) 0.6968(6)
H16_6 H 0.0847 0.2901 0.6762
H34_6 H 0.0117 0.0386 0.5360
O36_6 O 0.0495(4) 0.3700(7) 0.6230(3)
C82_6 C 0.0330(9) 0.4202(15) 0.6248(7)
H46_6 H 0.0081 0.4233 0.6171
N12_6 N 0.0494(12) 0.4694(19) 0.6371(9)
C83_5 C 0.0287(12) 0.5276(19) 0.6363(11)
H47_5 H 0.0137 0.5316 0.6557
H48_5 H 0.0465 0.5612 0.6350
H49_5 H 0.0121 0.5283 0.6178
C84_6 C 0.0890(13) 0.464(3) 0.6479(14)
H50_6 H 0.0897 0.4635 0.6711
H51_6 H 0.0999 0.4268 0.6395
H52_6 H 0.1033 0.4991 0.6401
O39_6 O 0.0267(4) 0.3436(6) 0.3639(3)
H67_6 H 0.0026 0.3377 0.3257
O40_6 O 0.0921(5) 0.2672(7) 0.6095(4)
C94_6 C 0.1260(6) 0.261(3) 0.6059(13)
H74_6 H 0.1378 0.2237 0.6108
N16_6 N 0.1462(13) 0.308(2) 0.5950(10)
C95_6 C 0.1885(13) 0.307(3) 0.5910(15)
H75_6 H 0.2005 0.3144 0.6115
H76_6 H 0.1961 0.2667 0.5831
H77_6 H 0.1961 0.3379 0.5758
C96_6 C 0.129(3) 0.369(3) 0.586(3)
H78_6 H 0.1235 0.3686 0.5629
H79_6 H 0.1063 0.3758 0.5978
H80_6 H 0.1473 0.4013 0.5902
O56_4 O 0.1543(4) 0.3484(6) 0.3726(3)
C25_6 C 0.1020(7) 0.9606(11) 0.6013(7)
H9_6 H 0.1169 0.9255 0.5982
C26_6 C 0.0719(11) 0.9607(17) 0.6256(9)
C27_6 C 0.062(3) 0.902(2) 0.6338(14)
N3_6 N 0.0580(11) 0.871(2) 0.6562(10)
N6_6 N 0.0125(7) 0.8139(11) 0.7483(6)
Gd3_6 Gd 0.94891(3) 0.14542(4) 0.66014(2)
C1_6 C 0.7742(5) 0.2568(7) 0.4383(4)
C2_6 C 0.7730(6) 0.1881(8) 0.4430(5)
O1_6 O 0.7494(3) 0.1671(5) 0.4626(3)
O2_6 O 0.7927(4) 0.1553(6) 0.4250(3)
C3_6 C 0.7495(5) 0.2949(8) 0.4549(4)
H1_6 H 0.7312 0.2775 0.4685
C4_6 C 0.7512(6) 0.3593(7) 0.4517(4)
C5_6 C 0.7234(5) 0.3998(9) 0.4696(4)
C6_6 C 0.7790(6) 0.3861(9) 0.4336(5)
H2_6 H 0.7812 0.4290 0.4325
C7_6 C 0.8046(7) 0.3473(9) 0.4164(5)
C8_6 C 0.8316(10) 0.3739(10) 0.3971(8)
N1_6 N 0.8575(8) 0.3933(10) 0.3806(7)
C9_6 C 0.8860(6) 0.3308(10) 0.6816(5)
H3_6 H 0.8821 0.2884 0.6838
C10_6 C 0.8012(6) 0.2843(10) 0.4191(5)
H4_6 H 0.8179 0.2593 0.4074
C11_6 C 0.8771(5) 0.1496(8) 0.5139(5)
C12_6 C 0.8488(5) 0.1000(8) 0.5028(4)
O5_6 O 0.8221(4) 0.1152(6) 0.4854(3)
O6_6 O 0.8557(3) 0.0459(6) 0.5123(3)
C13_6 C 0.8979(5) 0.1429(7) 0.5413(4)
H5_6 H 0.8962 0.1068 0.5535
C14_6 C 0.9224(5) 0.1913(8) 0.5511(4)
C15_6 C 0.9419(6) 0.1904(8) 0.5827(4)
O7_6 O 0.9696(4) 0.2289(5) 0.5865(3)
O8_6 O 0.9310(3) 0.1540(5) 0.6040(3)
C16_6 C 0.9265(5) 0.2413(10) 0.5305(5)
H6_6 H 0.9421 0.2740 0.5368
C17_6 C 0.9080(6) 0.2446(10) 0.5008(5)
C18_6 C 0.9093(7) 0.3002(13) 0.4814(6)
N2_6 N 0.9131(9) 0.3432(13) 0.4655(6)
C19_6 C 0.8819(5) 0.1985(9) 0.4918(5)
H7_6 H 0.8686 0.2001 0.4724
O13_6 O 0.9990(3) 0.3508(5) 0.5644(3)
C35_6 C 0.9958(5) 0.4235(7) 0.4698(4)
C36_6 C 0.9685(6) 0.4723(9) 0.4598(5)
N4_6 N 0.9478(5) 0.5087(8) 0.4520(4)
C37_6 C 0.9954(5) 0.4001(8) 0.5006(4)
H13_6 H 0.9778 0.4151 0.5156
C48_6 C 0.9495(6) 0.0154(8) 0.6685(4)
O21_6 O 0.9664(4) 0.0494(6) 0.6885(3)
O22_6 O 0.9304(4) 0.0379(5) 0.6456(4)
C56_6 C 0.7418(5) 0.0294(8) 0.5660(4)
C57_6 C 0.7643(5) 0.0214(8) 0.5352(4)
O25_6 O 0.7566(4) 0.0549(6) 0.5115(3)
C58_6 C 0.7188(5) 0.0786(8) 0.5687(4)
H20_6 H 0.7154 0.1052 0.5512
C59_6 C 0.7004(5) 0.0896(7) 0.5970(4)
C60_6 C 0.6736(6) 0.1453(9) 0.6017(5)
O28_4 O 0.6543(4) 0.1516(6) 0.6274(3)
C61_6 C 0.7048(6) 0.0504(9) 0.6248(4)
H21_6 H 0.6928 0.0594 0.6443
C65_6 C 0.9173(6) 0.3507(8) 0.6649(4)
C66_6 C 0.9464(5) 0.3071(9) 0.6489(4)
O29_6 O 0.9718(3) 0.3280(5) 0.6318(3)
O30_6 O 0.9404(4) 0.2505(5) 0.6571(3)
C67_6 C 0.9198(5) 0.4140(7) 0.6587(4)
H23_6 H 0.9397 0.4284 0.6458
C68_6 C 0.8947(5) 0.4549(7) 0.6707(4)
C69_6 C 0.8992(6) 0.5220(8) 0.6640(4)
C70_6 C 0.8652(7) 0.4348(9) 0.6897(5)
H24_6 H 0.8486 0.4635 0.6990
C71_6 C 0.8595(6) 0.3713(9) 0.6955(5)
C72_6 C 0.8272(9) 0.3470(14) 0.7160(7)
N8_6 N 0.8038(8) 0.3293(12) 0.7326(7)
H32_6 H 0.9351 0.0036 0.5057
N10_6 N 0.9588(9) 0.0089(16) 0.5451(8)
C77_6 C 0.9870(12) 0.0572(18) 0.5392(11)
H33_6 H 0.9880 0.0846 0.5574
H35_6 H 0.9801 0.0801 0.5201
H38_6 H 0.9583 0.0134 0.5930
O35_6 O 0.7095(4) 0.0457(6) 0.4565(3)
C79_6 C 0.6861(7) 0.0712(11) 0.4748(5)
H39_6 H 0.6880 0.1139 0.4769
N11_6 N 0.6576(6) 0.0426(10) 0.4924(5)
C80_6 C 0.6290(9) 0.0788(14) 0.5113(7)
H40_6 H 0.6064 0.0846 0.4985
H41_6 H 0.6227 0.0567 0.5308
H42_6 H 0.6397 0.1183 0.5169
O37_6 O 0.9226(4) 0.1598(7) 0.7137(4)
C85_6 C 0.9199(13) 0.2018(13) 0.7327(6)
H53_6 H 0.9421 0.2255 0.7331
N13_6 N 0.8951(9) 0.2229(14) 0.7526(7)
C86_6 C 0.8943(10) 0.2817(16) 0.7697(8)
H54_6 H 0.9149 0.3073 0.7622
H55_6 H 0.8704 0.3022 0.7656
H56_6 H 0.8971 0.2746 0.7925
C87_6 C 0.8603(12) 0.186(2) 0.7548(12)
H57_6 H 0.8387 0.2131 0.7571
H58_6 H 0.8575 0.1618 0.7355
H59_6 H 0.8619 0.1593 0.7733
O38_6 O 0.8813(4) 0.1501(7) 0.6573(4)
C88_6 C 0.8620(11) 0.1232(18) 0.6364(9)
H60_6 H 0.8663 0.0812 0.6331
N14_6 N 0.8356(9) 0.1511(15) 0.6185(7)
C89_6 C 0.8113(11) 0.1292(17) 0.5949(9)
H61_6 H 0.7892 0.1111 0.6049
H62_6 H 0.8035 0.1628 0.5812
H63_6 H 0.8243 0.0986 0.5822
C90_6 C 0.8398(19) 0.217(3) 0.6248(16)
H64_6 H 0.8658 0.2290 0.6209
H65_6 H 0.8231 0.2397 0.6107
H66_6 H 0.8332 0.2254 0.6469
C91_6 C 0.9991(7) 0.3331(12) 0.3479(9)
N15_6 N 0.9658(10) 0.3167(12) 0.3563(9)
C92_6 C 0.9574(13) 0.309(2) 0.3903(9)
H68_6 H 0.9352 0.2836 0.3928
H69_6 H 0.9788 0.2904 0.4010
H70_6 H 0.9525 0.3492 0.3998
C93_6 C 0.9344(14) 0.311(2) 0.3334(13)
H71_6 H 0.9382 0.3398 0.3159
H72_6 H 0.9335 0.2699 0.3251
H73_6 H 0.9107 0.3205 0.3442
O42_6 O 0.7610(4) 0.0346(7) 0.4013(3)
H90_6 H 0.732805 0.0350206 0.398438
C47_6 C 0.9519(5) 0.9474(8) 0.6710(4)
C49_6 C 0.9351(6) 0.9111(7) 0.6493(4)
H17_6 H 0.9216 0.9290 0.6323
C50_6 C 0.9372(5) 0.8449(9) 0.6515(5)
C51_6 C 0.9153(5) 0.8066(9) 0.6274(5)
O23_6 O 0.9011(4) 0.8296(5) 0.6023(3)
C52_6 C 0.9553(5) 0.8215(8) 0.6770(5)
H18_6 H 0.9554 0.7788 0.6798
C53_6 C 0.9740(6) 0.8587(11) 0.6998(5)
C54_6 C 0.9950(7) 0.8323(11) 0.7263(7)
C55_6 C 0.9712(6) 0.9206(8) 0.6966(4)
H19_6 H 0.9825 0.9460 0.7121
O26_6 O 0.7884(4) 0.9745(6) 0.5342(3)
C62_6 C 0.7278(6) 0.9990(12) 0.6214(5)
C63_6 C 0.7347(8) 0.9594(15) 0.6486(6)
N7_6 N 0.7395(8) 0.9278(14) 0.6691(7)
C64_6 C 0.7476(5) 0.9925(9) 0.5928(5)
H22_6 H 0.7660 0.9615 0.5914
O33_6 O 0.7897(5) 0.7947(7) 0.5537(4)
C73_6 C 0.7622(8) 0.7661(13) 0.5399(6)
H25_6 H 0.7660 0.7264 0.5319
N9_6 N 0.7299(5) 0.7911(8) 0.5372(4)
C74_6 C 0.7198(8) 0.8555(13) 0.5437(7)
H26_6 H 0.7014 0.8693 0.5281
H27_6 H 0.7092 0.8588 0.5650
H28_6 H 0.7424 0.8808 0.5422
C75_6 C 0.6984(8) 0.7526(13) 0.5220(6)
H29_6 H 0.7095 0.7225 0.5077
H30_6 H 0.6843 0.7319 0.5387
H31_6 H 0.6815 0.7790 0.5100
O34_6 O 0.9103(5) 0.9451(8) 0.5267(4)
C76_6 C 0.9342(7) 0.9850(12) 0.5259(12)
C78_6 C 0.9612(11) 0.9817(18) 0.5769(9)
H36_6 H 0.9412 0.9516 0.5794
H37_6 H 0.9856 0.9620 0.5794
C81_6 C 0.6478(9) 0.9721(14) 0.4884(7)
H43_6 H 0.6709 0.9482 0.4896
H44_6 H 0.6307 0.9595 0.5054
H45_6 H 0.6358 0.9655 0.4678
O41_6 O 0.8231(4) 0.7945(7) 0.6193(4)
C97_6 C 0.8165(10) 0.7853(14) 0.6475(5)
H81_6 H 0.8378 0.7844 0.6610
N17_6 N 0.7847(10) 0.7767(18) 0.6614(10)
C98_6 C 0.7833(13) 0.779(2) 0.6964(10)
H82_6 H 0.8079 0.7907 0.7046
H83_6 H 0.7645 0.8083 0.7031
H84_6 H 0.7767 0.7386 0.7046
C99_6 C 0.7506(14) 0.778(3) 0.6413(13)
H85_6 H 0.7376 0.7393 0.6425
H86_6 H 0.7338 0.8105 0.6488
H87_6 H 0.7577 0.7865 0.6192
O43_6 O 0.8417(4) 0.8900(6) 0.5699(3)
C100_6 C 0.8499(5) 0.9390(10) 0.5883(5)
H88_6 H 0.8512 0.9352 0.6107
O44_6 O 0.8554(4) 0.9861(7) 0.5762(4)
O45_6 O 0.8679(4) 0.8335(5) 0.5186(3)
C101_6 C 0.8584(5) 0.7854(9) 0.5005(5)
H89_6 H 0.8594 0.7892 0.4781
O46_6 O 0.8483(4) 0.7360(5) 0.5123(3)
H91_6 H 0.770962 0.992527 0.396588
Gd2_7 Gd 0.52233(3) 0.22427(4) 0.39407(2)
Gd3_7 Gd 0.44891(3) 0.35458(4) 0.33986(2)
C1_7 C 0.2742(5) 0.2432(7) 0.5617(4)
C2_7 C 0.2730(6) 0.3119(8) 0.5570(5)
O1_7 O 0.2494(3) 0.3329(5) 0.5374(3)
O2_7 O 0.2927(4) 0.3447(6) 0.5750(3)
C3_7 C 0.2495(5) 0.2051(8) 0.5451(4)
H1_7 H 0.2312 0.2225 0.5315
C4_7 C 0.2512(6) 0.1407(7) 0.5483(4)
C5_7 C 0.2234(5) 0.1002(9) 0.5304(4)
C6_7 C 0.2790(6) 0.1139(9) 0.5664(5)
H2_7 H 0.2812 0.0710 0.5675
C7_7 C 0.3046(7) 0.1527(9) 0.5836(5)
C8_7 C 0.3316(10) 0.1261(10) 0.6029(8)
N1_7 N 0.3575(8) 0.1067(10) 0.6194(7)
C9_7 C 0.3860(6) 0.1692(10) 0.3184(5)
H3_7 H 0.3821 0.2116 0.3162
C10_7 C 0.3012(6) 0.2157(10) 0.5809(5)
H4_7 H 0.3179 0.2407 0.5926
C11_7 C 0.3771(5) 0.3504(8) 0.4861(5)
C12_7 C 0.3488(5) 0.4000(8) 0.4972(4)
O5_7 O 0.3221(4) 0.3848(6) 0.5146(3)
O6_7 O 0.3557(3) 0.4541(6) 0.4877(3)
C13_7 C 0.3979(5) 0.3571(7) 0.4587(4)
H5_7 H 0.3962 0.3932 0.4465
C14_7 C 0.4224(5) 0.3087(8) 0.4489(4)
C15_7 C 0.4419(6) 0.3096(8) 0.4173(4)
O7_7 O 0.4696(4) 0.2711(5) 0.4135(3)
O8_7 O 0.4310(3) 0.3460(5) 0.3960(3)
C16_7 C 0.4265(5) 0.2587(10) 0.4695(5)
H6_7 H 0.4421 0.2260 0.4632
C17_7 C 0.4080(6) 0.2554(10) 0.4992(5)
C18_7 C 0.4093(7) 0.1998(13) 0.5186(6)
N2_7 N 0.4131(9) 0.1568(13) 0.5345(6)
C19_7 C 0.3819(5) 0.3015(9) 0.5082(5)
H7_7 H 0.3686 0.2999 0.5276
C20_7 C 0.5549(6) 0.4336(9) 0.3894(5)
C21_7 C 0.5303(6) 0.3762(9) 0.3868(4)
O9_7 O 0.5409(3) 0.3297(6) 0.4017(3)
O10_7 O 0.5035(4) 0.3815(5) 0.3674(3)
C22_7 C 0.5842(6) 0.4368(8) 0.4124(5)
H8_7 H 0.5883 0.4028 0.4257
C23_7 C 0.6080(6) 0.4894(10) 0.4162(5)
C24_7 C 0.6393(7) 0.4904(11) 0.4398(5)
C25_7 C 0.6020(7) 0.5394(11) 0.3987(7)
H9_7 H 0.6169 0.5745 0.4018
C26_7 C 0.5719(11) 0.5393(17) 0.3744(9)
C27_7 C 0.562(3) 0.598(2) 0.3662(14)
N3_7 N 0.5580(11) 0.629(2) 0.3438(10)
C28_7 C 0.5486(8) 0.4833(13) 0.3702(8)
H10_7 H 0.5295 0.4821 0.3545
C29_7 C 0.5220(5) 0.1472(8) 0.4900(4)
C30_7 C 0.5220(5) 0.1717(8) 0.4571(4)
O13_7 O 0.4990(3) 0.1492(5) 0.4356(3)
O14_7 O 0.5435(3) 0.2161(6) 0.4496(3)
C31_7 C 0.5470(5) 0.1680(8) 0.5132(4)
H11_7 H 0.5633 0.2004 0.5080
C32_7 C 0.5489(5) 0.1435(7) 0.5437(4)
C33_7 C 0.5772(6) 0.1673(9) 0.5658(4)
O15_7 O 0.5849(3) 0.1333(6) 0.5904(3)
C34_7 C 0.5233(5) 0.0980(8) 0.5522(4)
H12_7 H 0.5242 0.0813 0.5730
C35_7 C 0.4958(5) 0.0765(7) 0.5302(4)
C36_7 C 0.4685(6) 0.0277(9) 0.5402(5)
C37_7 C 0.4954(5) 0.0999(8) 0.4994(4)
H13_7 H 0.4778 0.0849 0.4844
C38_7 C 0.5578(6) 0.2674(8) 0.2929(4)
C39_7 C 0.5260(5) 0.2847(9) 0.3137(4)
O17_7 O 0.5263(3) 0.2565(5) 0.3419(3)
O18_7 O 0.5011(4) 0.3205(5) 0.3052(3)
C40_7 C 0.5608(6) 0.2957(7) 0.2619(4)
H14_7 H 0.5424 0.3237 0.2548
C41_7 C 0.5918(6) 0.2803(8) 0.2426(4)
C42_7 C 0.5944(6) 0.3091(9) 0.2092(5)
C43_7 C 0.6196(8) 0.2416(15) 0.2522(6)
H15_7 H 0.6415 0.2335 0.2401
C44_7 C 0.6126(10) 0.2150(15) 0.2820(9)
C45_7 C 0.6418(16) 0.179(3) 0.292(3)
N5_7 N 0.6627(12) 0.141(3) 0.3002(10)
C46_7 C 0.5852(8) 0.2274(12) 0.3032(6)
H16_7 H 0.5847 0.2099 0.3238
C47_7 C 0.4519(5) 0.5526(8) 0.3290(4)
C48_7 C 0.4495(6) 0.4846(8) 0.3315(4)
O21_7 O 0.4664(4) 0.4506(6) 0.3115(3)
O22_7 O 0.4304(4) 0.4621(5) 0.3544(4)
C49_7 C 0.4351(6) 0.5889(7) 0.3507(4)
H17_7 H 0.4216 0.5710 0.3677
C50_7 C 0.4372(5) 0.6551(9) 0.3485(5)
C51_7 C 0.4153(5) 0.6934(9) 0.3726(5)
O23_7 O 0.4011(4) 0.6704(5) 0.3977(3)
C52_7 C 0.4553(5) 0.6785(8) 0.3230(5)
H18_7 H 0.4554 0.7212 0.3202
C53_7 C 0.4740(6) 0.6413(11) 0.3002(5)
C54_7 C 0.4950(7) 0.6677(11) 0.2737(7)
N6_7 N 0.5125(7) 0.6861(11) 0.2517(6)
C55_7 C 0.4712(6) 0.5794(8) 0.3034(4)
H19_7 H 0.4825 0.5540 0.2879
C56_7 C 0.2418(5) 0.4706(8) 0.4340(4)
C57_7 C 0.2643(5) 0.4786(8) 0.4648(4)
O25_7 O 0.2566(4) 0.4451(6) 0.4885(3)
O26_7 O 0.2884(4) 0.5255(6) 0.4658(3)
C58_7 C 0.2188(5) 0.4214(8) 0.4313(4)
H20_7 H 0.2154 0.3948 0.4488
C59_7 C 0.2004(5) 0.4104(7) 0.4030(4)
C60_7 C 0.1736(6) 0.3547(9) 0.3983(5)
C61_7 C 0.2048(6) 0.4496(9) 0.3752(4)
H21_7 H 0.1928 0.4406 0.3557
C62_7 C 0.2278(6) 0.5010(12) 0.3786(5)
C63_7 C 0.2347(8) 0.5406(15) 0.3514(6)
N7_7 N 0.2395(8) 0.5722(14) 0.3309(7)
C64_7 C 0.2476(5) 0.5075(9) 0.4072(5)
H22_7 H 0.2660 0.5385 0.4086
C65_7 C 0.4173(6) 0.1493(8) 0.3351(4)
C66_7 C 0.4464(5) 0.1929(9) 0.3511(4)
O29_7 O 0.4718(3) 0.1720(5) 0.3682(3)
O30_7 O 0.4404(4) 0.2495(5) 0.3429(3)
C67_7 C 0.4198(5) 0.0860(7) 0.3413(4)
H23_7 H 0.4397 0.0716 0.3542
C68_7 C 0.3947(5) 0.0451(7) 0.3293(4)
C70_7 C 0.3652(7) 0.0652(9) 0.3103(5)
H24_7 H 0.3486 0.0365 0.3010
C71_7 C 0.3595(6) 0.1287(9) 0.3045(5)
C72_7 C 0.3272(9) 0.1530(14) 0.2840(7)
N8_7 N 0.3038(8) 0.1707(12) 0.2674(7)
O33_7 O 0.2897(5) 0.7053(7) 0.4463(4)
C73_7 C 0.2622(8) 0.7339(13) 0.4601(6)
H25_7 H 0.2660 0.7736 0.4681
N9_7 N 0.2299(5) 0.7089(8) 0.4628(4)
C74_7 C 0.2198(8) 0.6445(13) 0.4563(7)
H26_7 H 0.2014 0.6307 0.4719
H27_7 H 0.2092 0.6412 0.4350
H28_7 H 0.2424 0.6192 0.4578
C75_7 C 0.1984(8) 0.7474(13) 0.4780(6)
H29_7 H 0.2095 0.7775 0.4923
H30_7 H 0.1843 0.7681 0.4613
H31_7 H 0.1815 0.7210 0.4900
O34_7 O 0.4103(5) 0.5549(8) 0.4733(4)
C76_7 C 0.4342(7) 0.5150(12) 0.4741(12)
H32_7 H 0.4351 0.4964 0.4943
N10_7 N 0.4588(9) 0.4911(16) 0.4549(8)
C77_7 C 0.4870(12) 0.4428(18) 0.4608(11)
H33_7 H 0.4880 0.4154 0.4426
H34_7 H 0.5117 0.4614 0.4640
H35_7 H 0.4801 0.4199 0.4799
C78_7 C 0.4612(11) 0.5183(18) 0.4231(9)
H36_7 H 0.4412 0.5484 0.4206
H37_7 H 0.4856 0.5380 0.4206
H38_7 H 0.4583 0.4866 0.4070
O35_7 O 0.2095(4) 0.4543(6) 0.5435(3)
C79_7 C 0.1861(7) 0.4288(11) 0.5252(5)
H39_7 H 0.1880 0.3861 0.5231
N11_7 N 0.1576(6) 0.4574(10) 0.5076(5)
C80_7 C 0.1290(9) 0.4212(14) 0.4887(7)
H40_7 H 0.1064 0.4154 0.5015
H41_7 H 0.1227 0.4433 0.4692
H42_7 H 0.1397 0.3817 0.4831
C81_7 C 0.1478(9) 0.5279(14) 0.5116(7)
H43_7 H 0.1709 0.5518 0.5104
H44_7 H 0.1307 0.5405 0.4946
H45_7 H 0.1358 0.5345 0.5322
O36_7 O 0.5495(4) 0.1300(7) 0.3770(3)
C82_7 C 0.5330(9) 0.0798(15) 0.3752(7)
H46_7 H 0.5081 0.0767 0.3829
N12_7 N 0.5494(12) 0.0306(19) 0.3629(9)
C84_7 C 0.5890(13) 0.036(3) 0.3521(14)
H50_7 H 0.5897 0.0365 0.3289
H51_7 H 0.5999 0.0732 0.3605
H52_7 H 0.6033 0.0009 0.3599
O37_7 O 0.4226(4) 0.3402(7) 0.2863(4)
C85_7 C 0.4199(13) 0.2982(13) 0.2673(6)
H53_7 H 0.4421 0.2745 0.2669
N13_7 N 0.3951(9) 0.2771(14) 0.2474(7)
C86_7 C 0.3943(10) 0.2183(16) 0.2303(8)
H54_7 H 0.4149 0.1927 0.2378
H55_7 H 0.3704 0.1978 0.2344
H56_7 H 0.3971 0.2254 0.2075
C87_7 C 0.3603(12) 0.314(2) 0.2452(12)
H57_7 H 0.3387 0.2869 0.2429
H58_7 H 0.3575 0.3382 0.2645
H59_7 H 0.3619 0.3407 0.2267
O38_7 O 0.3813(4) 0.3499(7) 0.3427(4)
C88_7 C 0.3620(11) 0.3768(18) 0.3636(9)
H60_7 H 0.3663 0.4188 0.3669
N14_7 N 0.3356(9) 0.3489(15) 0.3815(7)
C89_7 C 0.3113(11) 0.3708(17) 0.4051(9)
H61_7 H 0.2892 0.3889 0.3951
H62_7 H 0.3035 0.3372 0.4188
H63_7 H 0.3243 0.4014 0.4178
C90_7 C 0.3398(19) 0.283(3) 0.3752(16)
H64_7 H 0.3658 0.2710 0.3791
H65_7 H 0.3231 0.2603 0.3893
H66_7 H 0.3332 0.2746 0.3531
O39_7 O 0.5267(4) 0.1564(6) 0.6361(3)
C91_7 C 0.4991(7) 0.1669(12) 0.6521(9)
H67_7 H 0.5026 0.1623 0.6743
N15_7 N 0.4658(10) 0.1833(12) 0.6437(9)
C92_7 C 0.4574(13) 0.191(2) 0.6097(9)
H68_7 H 0.4352 0.2164 0.6072
H69_7 H 0.4788 0.2096 0.5990
H70_7 H 0.4525 0.1508 0.6002
C93_7 C 0.4344(14) 0.189(2) 0.6666(13)
H71_7 H 0.4382 0.1602 0.6841
H72_7 H 0.4335 0.2301 0.6749
H73_7 H 0.4107 0.1795 0.6558
O40_7 O 0.5921(5) 0.2328(7) 0.3905(4)
C94_7 C 0.6260(6) 0.239(3) 0.3941(13)
H74_7 H 0.6378 0.2763 0.3892
N16_7 N 0.6462(13) 0.192(2) 0.4050(10)
C95_7 C 0.6885(13) 0.193(3) 0.4090(15)
H75_7 H 0.7005 0.1856 0.3885
H76_7 H 0.6961 0.2333 0.4169
H77_7 H 0.6961 0.1621 0.4242
C96_7 C 0.629(3) 0.131(3) 0.414(3)
H78_7 H 0.6235 0.1314 0.4371
H79_7 H 0.6063 0.1242 0.4022
H80_7 H 0.6473 0.0987 0.4098
O41_7 O 0.3231(4) 0.7055(7) 0.3807(4)
C97_7 C 0.3165(10) 0.7147(14) 0.3525(5)
H81_7 H 0.3378 0.7156 0.3390
N17_7 N 0.2847(10) 0.7233(18) 0.3386(10)
C98_7 C 0.2833(13) 0.721(2) 0.3036(10)
H82_7 H 0.3079 0.7093 0.2954
H83_7 H 0.2645 0.6917 0.2969
H84_7 H 0.2767 0.7614 0.2954
C99_7 C 0.2506(14) 0.722(3) 0.3587(13)
H85_7 H 0.2376 0.7607 0.3575
H86_7 H 0.2338 0.6895 0.3512
H87_7 H 0.2577 0.7135 0.3808
O42_7 O 0.2610(4) 0.4654(7) 0.5987(3)
O43_7 O 0.3417(4) 0.6100(6) 0.4301(3)
C100_7 C 0.3499(5) 0.5610(10) 0.4117(5)
H88_7 H 0.3512 0.5648 0.3893
O44_7 O 0.3554(4) 0.5139(7) 0.4238(4)
O45_7 O 0.3679(4) 0.6665(5) 0.4814(3)
C101_7 C 0.3584(5) 0.7146(9) 0.4995(5)
H89_7 H 0.3594 0.7108 0.5219
O46_7 O 0.3483(4) 0.7640(5) 0.4877(3)
H90_7 H 0.232805 0.464979 0.601562
H91_7 H 0.270962 0.507473 0.603412
N4_7 N 0.4478(5) 0.9913(8) 0.5480(4)
C69_7 C 0.3992(6) 0.9780(8) 0.3360(4)
C83_6 C 0.5287(12) 0.9724(19) 0.3637(11)
H47_6 H 0.5137 0.9684 0.3443
H48_6 H 0.5465 0.9388 0.3650
H49_6 H 0.5121 0.9717 0.3822
N4_8 N 0.0522(5) 0.0087(8) 0.0480(4)
C69_8 C 0.1008(6) 0.0220(8) 0.8360(4)
C1_8 C 0.2258(5) 0.7568(7) 0.0617(4)
C2_8 C 0.2270(6) 0.6881(8) 0.0570(5)
O1_8 O 0.2506(3) 0.6671(5) 0.0374(3)
O2_8 O 0.2073(4) 0.6553(6) 0.0750(3)
C3_8 C 0.2505(5) 0.7949(8) 0.0451(4)
H1_8 H 0.2688 0.7775 0.0315
C4_8 C 0.2488(6) 0.8593(7) 0.0483(4)
C5_8 C 0.2766(5) 0.8998(9) 0.0304(4)
C6_8 C 0.2210(6) 0.8861(9) 0.0664(5)
H2_8 H 0.2188 0.9290 0.0675
C7_8 C 0.1954(7) 0.8473(9) 0.0836(5)
C8_8 C 0.1684(10) 0.8739(10) 0.1029(8)
N1_8 N 0.1425(8) 0.8933(10) 0.1194(7)
C10_8 C 0.1988(6) 0.7843(10) 0.0809(5)
H4_8 H 0.1821 0.7593 0.0926
O5_8 O 0.1779(4) 0.6152(6) 0.0146(3)
C18_8 C 0.0907(7) 0.8002(13) 0.0186(6)
N2_8 N 0.0869(9) 0.8432(13) 0.0345(6)
C19_8 C 0.1181(5) 0.6985(9) 0.0082(5)
H7_8 H 0.1314 0.7001 0.0276
C35_8 C 0.0042(5) 0.9235(7) 0.0302(4)
C36_8 C 0.0315(6) 0.9723(9) 0.0402(5)
O35_8 O 0.2905(4) 0.5457(6) 0.0435(3)
C79_8 C 0.3139(7) 0.5712(11) 0.0252(5)
H39_8 H 0.3120 0.6139 0.0231
N11_8 N 0.3424(6) 0.5426(10) 0.0076(5)
H40_8 H 0.3936 0.5846 0.0015
C81_8 C 0.3522(9) 0.4721(14) 0.0116(7)
H43_8 H 0.3291 0.4482 0.0104
H45_8 H 0.3642 0.4655 0.0322
C91_8 C 0.0009(7) 0.8331(12) 0.1521(9)
N15_8 N 0.0342(10) 0.8167(12) 0.1437(9)
C92_8 C 0.0426(13) 0.809(2) 0.1097(9)
H68_8 H 0.0648 0.7836 0.1072
H69_8 H 0.0212 0.7904 0.0990
H70_8 H 0.0475 0.8492 0.1002
C93_8 C 0.0656(14) 0.811(2) 0.1666(13)
H71_8 H 0.0618 0.8398 0.1841
H72_8 H 0.0665 0.7699 0.1749
H73_8 H 0.0893 0.8205 0.1558
O42_8 O 0.2390(4) 0.5346(7) 0.0987(3)
H89_8 H 0.1406 0.2892 0.0219
H90_8 H 0.267195 0.535021 0.101562
H91_8 H 0.229038 0.492527 0.103412
Gd3_8 Gd 0.05109(3) 0.64542(4) 0.83986(2)
C9_8 C 0.1140(6) 0.8308(10) 0.8184(5)
H3_8 H 0.1179 0.7884 0.8162
C11_8 C 0.1229(5) 0.6496(8) 0.9861(5)
C12_8 C 0.1512(5) 0.6000(8) 0.9972(4)
O6_8 O 0.1443(3) 0.5459(6) 0.9877(3)
C13_8 C 0.1021(5) 0.6429(7) 0.9587(4)
H5_8 H 0.1038 0.6068 0.9465
C14_8 C 0.0776(5) 0.6913(8) 0.9489(4)
C15_8 C 0.0581(6) 0.6904(8) 0.9173(4)
O7_8 O 0.0304(4) 0.7289(5) 0.9135(3)
O8_8 O 0.0690(3) 0.6540(5) 0.8960(3)
C16_8 C 0.0735(5) 0.7413(10) 0.9695(5)
H6_8 H 0.0579 0.7740 0.9632
C17_8 C 0.0920(6) 0.7446(10) 0.9992(5)
O13_8 O 0.0010(3) 0.8508(5) 0.9356(3)
C37_8 C 0.0046(5) 0.9001(8) 0.9994(4)
H13_8 H 0.0222 0.9151 0.9844
C47_8 C 0.0481(5) 0.4474(8) 0.8290(4)
C48_8 C 0.0505(6) 0.5154(8) 0.8315(4)
O21_8 O 0.0336(4) 0.5494(6) 0.8115(3)
O22_8 O 0.0696(4) 0.5379(5) 0.8544(4)
C49_8 C 0.0649(6) 0.4111(7) 0.8507(4)
H17_8 H 0.0784 0.4290 0.8677
C50_8 C 0.0628(5) 0.3449(9) 0.8485(5)
C51_8 C 0.0847(5) 0.3066(9) 0.8726(5)
O23_8 O 0.0989(4) 0.3296(5) 0.8977(3)
C52_8 C 0.0447(5) 0.3215(8) 0.8230(5)
H18_8 H 0.0446 0.2788 0.8202
C53_8 C 0.0260(6) 0.3587(11) 0.8002(5)
C54_8 C 0.0050(7) 0.3323(11) 0.7737(7)
C55_8 C 0.0288(6) 0.4206(8) 0.8034(4)
H19_8 H 0.0175 0.4460 0.7879
C56_8 C 0.2582(5) 0.5294(8) 0.9340(4)
C57_8 C 0.2357(5) 0.5214(8) 0.9648(4)
O25_8 O 0.2434(4) 0.5549(6) 0.9885(3)
O26_8 O 0.2116(4) 0.4745(6) 0.9658(3)
C58_8 C 0.2812(5) 0.5786(8) 0.9313(4)
H20_8 H 0.2846 0.6052 0.9488
C59_8 C 0.2996(5) 0.5896(7) 0.9030(4)
C60_8 C 0.3264(6) 0.6453(9) 0.8983(5)
C61_8 C 0.2952(6) 0.5504(9) 0.8752(4)
H21_8 H 0.3072 0.5594 0.8557
C62_8 C 0.2722(6) 0.4990(12) 0.8786(5)
C63_8 C 0.2653(8) 0.4594(15) 0.8514(6)
N7_8 N 0.2605(8) 0.4278(14) 0.8309(7)
C64_8 C 0.2524(5) 0.4925(9) 0.9072(5)
H22_8 H 0.2340 0.4615 0.9086
C65_8 C 0.0827(6) 0.8507(8) 0.8351(4)
C66_8 C 0.0536(5) 0.8071(9) 0.8511(4)
O29_8 O 0.0282(3) 0.8280(5) 0.8682(3)
O30_8 O 0.0596(4) 0.7505(5) 0.8429(3)
C67_8 C 0.0802(5) 0.9140(7) 0.8413(4)
H23_8 H 0.0603 0.9284 0.8542
C68_8 C 0.1053(5) 0.9549(7) 0.8293(4)
C70_8 C 0.1348(7) 0.9348(9) 0.8103(5)
H24_8 H 0.1514 0.9635 0.8010
C71_8 C 0.1405(6) 0.8713(9) 0.8045(5)
C72_8 C 0.1728(9) 0.8470(14) 0.7840(7)
N8_8 N 0.1962(8) 0.8293(12) 0.7674(7)
O33_8 O 0.2103(5) 0.2947(7) 0.9463(4)
C73_8 C 0.2378(8) 0.2661(13) 0.9601(6)
H25_8 H 0.2340 0.2264 0.9681
N9_8 N 0.2701(5) 0.2911(8) 0.9628(4)
C74_8 C 0.2802(8) 0.3555(13) 0.9563(7)
H26_8 H 0.2986 0.3693 0.9719
H27_8 H 0.2908 0.3588 0.9350
H28_8 H 0.2576 0.3808 0.9578
C75_8 C 0.3016(8) 0.2526(13) 0.9780(6)
H29_8 H 0.2905 0.2225 0.9923
H30_8 H 0.3157 0.2319 0.9613
H31_8 H 0.3185 0.2790 0.9900
O34_8 O 0.0897(5) 0.4451(8) 0.9733(4)
C76_8 C 0.0658(7) 0.4850(12) 0.9741(12)
H32_8 H 0.0649 0.5036 0.9943
N10_8 N 0.0412(9) 0.5089(16) 0.9549(8)
C77_8 C 0.0130(12) 0.5572(18) 0.9608(11)
H33_8 H 0.0120 0.5846 0.9426
H35_8 H 0.0199 0.5801 0.9799
C78_8 C 0.0388(11) 0.4817(18) 0.9231(9)
H36_8 H 0.0588 0.4516 0.9206
H37_8 H 0.0144 0.4620 0.9206
H38_8 H 0.0417 0.5134 0.9070
C80_8 C 0.3710(9) 0.5788(14) 0.9887(7)
H41_8 H 0.3773 0.5567 0.9692
H42_8 H 0.3603 0.6183 0.9831
H44_8 H 0.3693 0.4595 0.9946
O37_8 O 0.0774(4) 0.6598(7) 0.7863(4)
C85_8 C 0.0801(13) 0.7018(13) 0.7673(6)
H53_8 H 0.0579 0.7255 0.7669
N13_8 N 0.1049(9) 0.7229(14) 0.7474(7)
C86_8 C 0.1057(10) 0.7817(16) 0.7303(8)
H54_8 H 0.0851 0.8073 0.7378
H55_8 H 0.1296 0.8022 0.7344
H56_8 H 0.1029 0.7746 0.7075
C87_8 C 0.1397(12) 0.686(2) 0.7452(12)
H57_8 H 0.1613 0.7131 0.7429
H58_8 H 0.1425 0.6618 0.7645
H59_8 H 0.1381 0.6593 0.7267
O38_8 O 0.1187(4) 0.6501(7) 0.8427(4)
C88_8 C 0.1380(11) 0.6232(18) 0.8636(9)
H60_8 H 0.1337 0.5812 0.8669
N14_8 N 0.1644(9) 0.6511(15) 0.8815(7)
C89_8 C 0.1887(11) 0.6292(17) 0.9051(9)
H61_8 H 0.2108 0.6111 0.8951
H62_8 H 0.1965 0.6628 0.9188
H63_8 H 0.1757 0.5986 0.9178
C90_8 C 0.1602(19) 0.717(3) 0.8752(16)
H64_8 H 0.1342 0.7290 0.8791
H65_8 H 0.1769 0.7397 0.8893
H66_8 H 0.1668 0.7254 0.8531
O41_8 O 0.1769(4) 0.2945(7) 0.8807(4)
C97_8 C 0.1835(10) 0.2853(14) 0.8525(5)
H81_8 H 0.1622 0.2844 0.8390
N17_8 N 0.2153(10) 0.2767(18) 0.8386(10)
C98_8 C 0.2167(13) 0.279(2) 0.8036(10)
H82_8 H 0.1921 0.2907 0.7954
H83_8 H 0.2355 0.3083 0.7969
H84_8 H 0.2233 0.2386 0.7954
C99_8 C 0.2494(14) 0.278(3) 0.8587(13)
H85_8 H 0.2624 0.2393 0.8575
H86_8 H 0.2662 0.3105 0.8512
H87_8 H 0.2423 0.2865 0.8808
O43_8 O 0.1583(4) 0.3900(6) 0.9301(3)
C100_8 C 0.1501(5) 0.4390(10) 0.9117(5)
H88_8 H 0.1488 0.4352 0.8893
O44_8 O 0.1446(4) 0.4861(7) 0.9238(4)
O45_8 O 0.1321(4) 0.3335(5) 0.9814(3)
C101_8 C 0.1416(5) 0.2854(9) 0.9995(5)
O46_8 O 0.1517(4) 0.2360(5) 0.9877(3)
C31_8 C 0.9530(5) 0.8320(8) 0.0132(4)
H11_8 H 0.9367 0.7996 0.0080
C32_8 C 0.9511(5) 0.8565(7) 0.0437(4)
C33_8 C 0.9228(6) 0.8327(9) 0.0658(4)
O15_8 O 0.9151(3) 0.8667(6) 0.0904(3)
C34_8 C 0.9767(5) 0.9020(8) 0.0522(4)
H12_8 H 0.9758 0.9187 0.0730
O39_8 O 0.9733(4) 0.8436(6) 0.1361(3)
H67_8 H 0.9974 0.8377 0.1743
Gd2_8 Gd 0.97767(3) 0.77573(4) 0.89407(2)
C20_8 C 0.9451(6) 0.5664(9) 0.8894(5)
C21_8 C 0.9697(6) 0.6238(9) 0.8868(4)
O9_8 O 0.9591(3) 0.6703(6) 0.9017(3)
O10_8 O 0.9965(4) 0.6185(5) 0.8674(3)
C22_8 C 0.9158(6) 0.5632(8) 0.9124(5)
H8_8 H 0.9117 0.5972 0.9257
C23_8 C 0.8920(6) 0.5106(10) 0.9162(5)
C24_8 C 0.8607(7) 0.5096(11) 0.9398(5)
C25_8 C 0.8980(7) 0.4606(11) 0.8987(7)
H9_8 H 0.8831 0.4255 0.9018
C26_8 C 0.9281(11) 0.4607(17) 0.8744(9)
C27_8 C 0.938(3) 0.402(2) 0.8662(14)
N3_8 N 0.9420(11) 0.371(2) 0.8438(10)
C28_8 C 0.9514(8) 0.5167(13) 0.8702(8)
H10_8 H 0.9705 0.5179 0.8545
C29_8 C 0.9780(5) 0.8528(8) 0.9900(4)
C30_8 C 0.9780(5) 0.8283(8) 0.9571(4)
O14_8 O 0.9565(3) 0.7839(6) 0.9496(3)
C38_8 C 0.9422(6) 0.7326(8) 0.7929(4)
C39_8 C 0.9740(5) 0.7153(9) 0.8137(4)
O17_8 O 0.9737(3) 0.7435(5) 0.8419(3)
O18_8 O 0.9989(4) 0.6795(5) 0.8052(3)
C40_8 C 0.9392(6) 0.7043(7) 0.7619(4)
H14_8 H 0.9576 0.6763 0.7548
C41_8 C 0.9082(6) 0.7197(8) 0.7426(4)
C42_8 C 0.9056(6) 0.6909(9) 0.7092(5)
C43_8 C 0.8804(8) 0.7584(15) 0.7522(6)
H15_8 H 0.8585 0.7665 0.7401
C44_8 C 0.8874(10) 0.7850(15) 0.7820(9)
C45_8 C 0.8582(16) 0.821(3) 0.792(3)
N5_8 N 0.8373(12) 0.859(3) 0.8002(10)
C46_8 C 0.9148(8) 0.7726(12) 0.8032(6)
H16_8 H 0.9153 0.7901 0.8238
N6_8 N 0.9875(7) 0.3139(11) 0.7517(6)
H34_8 H 0.9883 0.5386 0.9640
O36_8 O 0.9505(4) 0.8700(7) 0.8770(3)
C82_8 C 0.9670(9) 0.9202(15) 0.8752(7)
H46_8 H 0.9919 0.9233 0.8829
N12_8 N 0.9506(12) 0.9694(19) 0.8629(9)
C84_8 C 0.9110(13) 0.964(3) 0.8521(14)
H50_8 H 0.9103 0.9635 0.8289
H51_8 H 0.9001 0.9268 0.8605
H52_8 H 0.8967 0.9991 0.8599
O40_8 O 0.9079(5) 0.7672(7) 0.8905(4)
C94_8 C 0.8740(6) 0.761(3) 0.8941(13)
H74_8 H 0.8622 0.7237 0.8892
N16_8 N 0.8538(13) 0.808(2) 0.9050(10)
C95_8 C 0.8115(13) 0.807(3) 0.9090(15)
H75_8 H 0.7995 0.8144 0.8885
H76_8 H 0.8039 0.7667 0.9169
H77_8 H 0.8039 0.8379 0.9242
C96_8 C 0.871(3) 0.869(3) 0.914(3)
H78_8 H 0.8765 0.8686 0.9371
H79_8 H 0.8937 0.8758 0.9022
H80_8 H 0.8527 0.9013 0.9098
C83_7 C 0.0287(12) 0.9724(19) 0.1363(11)
H47_7 H 0.0137 0.9684 0.1557
H48_7 H 0.0465 0.9388 0.1350
H49_7 H 0.0121 0.9717 0.1178
C83_8 C 0.9713(12) 0.0276(19) 0.8637(11)
H47_8 H 0.9863 0.0316 0.8443
H48_8 H 0.9535 0.0612 0.8650
H49_8 H 0.9879 0.0283 0.8822
loop_
_geom_bond_atom_site_label_1
_geom_bond_atom_site_label_2
_geom_bond_site_symmetry_1
_geom_bond_site_symmetry_2
Gd1 O1 1_555 1_555
Gd4 O15 1_555 1_555
C1 C2 1_555 1_555
C2 O1 1_555 1_555
O2 Gd1 1_555 1_555
C3 C1 1_555 1_555
H1 C3 1_555 1_555
C4 C3 1_555 1_555
C5 C4 1_555 1_555
O3 C5 1_555 1_555
O4 C5 1_555 1_555
C6 C4 1_555 1_555
H2 C6 1_555 1_555
C7 C6 1_555 1_555
C8 C7 1_555 1_555
N1 C8 1_555 1_555
C10 C1 1_555 1_555
H4 C10 1_555 1_555
O5 Gd1 1_555 1_555
N2 C18 1_555 1_555
H7 C19 1_555 1_555
H11 C31 1_555 1_555
C32 C31 1_555 1_555
C33 C32 1_555 1_555
O15 C33 1_555 1_555
O16 C33 1_555 1_555
C34 C32 1_555 1_555
H12 C34 1_555 1_555
C35 C34 1_555 1_555
C36 C35 1_555 1_555
N4 C36 1_555 1_555
O35 Gd1 1_555 1_555
C79 O35 1_555 1_555
H39 C79 1_555 1_555
N11 C79 1_555 1_555
O39 Gd4 1_555 1_555
C91 O39 1_555 1_555
H67 C91 1_555 1_555
N15 C91 1_555 1_555
C92 N15 1_555 1_555
H68 C92 1_555 1_555
H69 C92 1_555 1_555
H70 C92 1_555 1_555
C93 N15 1_555 1_555
H71 C93 1_555 1_555
H72 C93 1_555 1_555
H73 C93 1_555 1_555
O42 Gd1 1_555 1_555
Gd8 O3 1_555 1_555
Gd13 O16 1_555 1_555
O50 Gd1 1_555 1_555
O52 Gd4 1_555 1_555
O53 Gd4 1_555 1_555
O54 Gd4 1_555 1_555
O56 Gd4 1_555 1_555
O57 Gd4 1_555 1_555
O58 Gd4 1_555 1_555
C2 O2 1_555 1_555
C7 C10 1_555 1_555
O42 H90 1_555 1_555
Gd2 O7 1_555 1_555
Gd3 O8 1_555 1_555
C9 H3 1_555 1_555
C11 C12 1_555 1_555
O6 C12 1_555 1_555
C13 C11 1_555 1_555
H5 C13 1_555 1_555
C14 C13 1_555 1_555
C15 C14 1_555 1_555
O7 C15 1_555 1_555
O8 C15 1_555 1_555
C16 C14 1_555 1_555
H6 C16 1_555 1_555
C17 C16 1_555 1_555
C20 C21 1_555 1_555
C21 O9 1_555 1_555
O9 Gd2 1_555 1_555
O10 Gd3 1_555 1_555
C22 C20 1_555 1_555
H8 C22 1_555 1_555
C23 C22 1_555 1_555
C24 C23 1_555 1_555
O11 C24 1_555 1_555
C28 C20 1_555 1_555
H10 C28 1_555 1_555
C29 C30 1_555 1_555
C30 O13 1_555 1_555
O13 Gd2 1_555 1_555
O14 Gd2 1_555 1_555
C37 C29 1_555 1_555
H13 C37 1_555 1_555
C38 C39 1_555 1_555
C39 O17 1_555 1_555
O17 Gd2 1_555 1_555
O18 Gd3 1_555 1_555
C40 C38 1_555 1_555
H14 C40 1_555 1_555
C41 C40 1_555 1_555
C42 C41 1_555 1_555
O19 C42 1_555 1_555
O20 C42 1_555 1_555
C43 C41 1_555 1_555
H15 C43 1_555 1_555
C44 C43 1_555 1_555
C45 C44 1_555 1_555
N5 C45 1_555 1_555
C46 C38 1_555 1_555
H16 C46 1_555 1_555
C48 O21 1_555 1_555
O21 Gd3 1_555 1_555
O22 Gd3 1_555 1_555
C56 C57 1_555 1_555
C57 O25 1_555 1_555
C58 C56 1_555 1_555
H20 C58 1_555 1_555
C59 C58 1_555 1_555
C60 C59 1_555 1_555
O27 C60 1_555 1_555
O28 C60 1_555 1_555
C61 C59 1_555 1_555
H21 C61 1_555 1_555
C65 C9 1_555 1_555
C66 C65 1_555 1_555
O29 Gd2 1_555 1_555
O30 Gd3 1_555 1_555
C67 C65 1_555 1_555
H23 C67 1_555 1_555
C68 C67 1_555 1_555
C69 C68 1_555 1_555
O31 C69 1_555 1_555
O32 C69 1_555 1_555
C70 C68 1_555 1_555
H24 C70 1_555 1_555
C71 C9 1_555 1_555
C72 C71 1_555 1_555
N8 C72 1_555 1_555
C77 N10 1_555 1_555
H33 C77 1_555 1_555
H34 C77 1_555 1_555
H35 C77 1_555 1_555
H41 C80 1_555 1_555
H42 C80 1_555 1_555
O36 Gd2 1_555 1_555
C82 O36 1_555 1_555
H46 C82 1_555 1_555
N12 C82 1_555 1_555
C83 N12 1_555 1_555
H47 C83 1_555 1_555
H48 C83 1_555 1_555
H49 C83 1_555 1_555
C84 N12 1_555 1_555
H50 C84 1_555 1_555
H51 C84 1_555 1_555
H52 C84 1_555 1_555
O37 Gd3 1_555 1_555
C85 O37 1_555 1_555
H53 C85 1_555 1_555
N13 C85 1_555 1_555
C86 N13 1_555 1_555
H54 C86 1_555 1_555
H55 C86 1_555 1_555
H56 C86 1_555 1_555
C87 N13 1_555 1_555
H57 C87 1_555 1_555
H58 C87 1_555 1_555
H59 C87 1_555 1_555
O38 Gd3 1_555 1_555
C88 O38 1_555 1_555
H60 C88 1_555 1_555
N14 C88 1_555 1_555
C89 N14 1_555 1_555
H61 C89 1_555 1_555
H62 C89 1_555 1_555
H63 C89 1_555 1_555
C90 N14 1_555 1_555
H64 C90 1_555 1_555
H65 C90 1_555 1_555
H66 C90 1_555 1_555
O40 Gd2 1_555 1_555
C94 O40 1_555 1_555
H74 C94 1_555 1_555
N16 C94 1_555 1_555
C95 N16 1_555 1_555
H75 C95 1_555 1_555
H76 C95 1_555 1_555
H77 C95 1_555 1_555
C96 N16 1_555 1_555
H78 C96 1_555 1_555
H79 C96 1_555 1_555
H80 C96 1_555 1_555
Gd9 O28 1_555 1_555
Gd11 O31 1_555 1_555
Gd12 O19 1_555 1_555
Gd14 O27 1_555 1_555
C21 O10 1_555 1_555
C30 O14 1_555 1_555
C39 O18 1_555 1_555
O20 Gd12 1_555 1_555
C44 C46 1_555 1_555
C48 O22 1_555 1_555
C66 O29 1_555 1_555
C66 O30 1_555 1_555
O32 Gd11 1_555 1_555
C70 C71 1_555 1_555
H43 C81 1_555 1_555
H45 C81 1_555 1_555
Gd5 O23 1_555 1_555
H9 C25 1_555 1_555
C26 C25 1_555 1_555
C27 C26 1_555 1_555
N3 C27 1_555 1_555
C49 C47 1_555 1_555
H17 C49 1_555 1_555
C50 C49 1_555 1_555
C51 C50 1_555 1_555
O23 C51 1_555 1_555
O24 C51 1_555 1_555
C52 C50 1_555 1_555
H18 C52 1_555 1_555
C53 C52 1_555 1_555
C54 C53 1_555 1_555
N6 C54 1_555 1_555
C55 C47 1_555 1_555
H19 C55 1_555 1_555
O26 Gd6 1_555 1_555
C63 C62 1_555 1_555
N7 C63 1_555 1_555
H22 C64 1_555 1_555
O33 Gd5 1_555 1_555
C73 O33 1_555 1_555
H25 C73 1_555 1_555
N9 C73 1_555 1_555
C74 N9 1_555 1_555
H26 C74 1_555 1_555
H27 C74 1_555 1_555
H28 C74 1_555 1_555
C75 N9 1_555 1_555
H29 C75 1_555 1_555
H30 C75 1_555 1_555
H31 C75 1_555 1_555
O34 Gd6 1_555 1_555
C76 O34 1_555 1_555
H36 C78 1_555 1_555
H37 C78 1_555 1_555
O41 Gd5 1_555 1_555
C97 O41 1_555 1_555
H81 C97 1_555 1_555
N17 C97 1_555 1_555
C98 N17 1_555 1_555
H82 C98 1_555 1_555
H83 C98 1_555 1_555
H84 C98 1_555 1_555
C99 N17 1_555 1_555
H85 C99 1_555 1_555
H86 C99 1_555 1_555
H87 C99 1_555 1_555
O43 Gd5 1_555 1_555
C100 O43 1_555 1_555
H88 C100 1_555 1_555
O44 Gd6 1_555 1_555
O45 Gd5 1_555 1_555
C101 O45 1_555 1_555
O46 Gd5 1_555 1_555
Gd7 O12 1_555 1_555
Gd11 O24 1_555 1_555
O51 Gd5 1_555 1_555
O55 Gd5 1_555 1_555
Gd6 O43 1_555 1_555
Gd6 O45 1_555 1_555
C53 C55 1_555 1_555
C62 C64 1_555 1_555
C100 O44 1_555 1_555
C101 O46 1_555 1_555
Gd5_2 O23_2 1_555 1_555
C49_2 C47_2 1_555 1_555
H17_2 C49_2 1_555 1_555
C50_2 C49_2 1_555 1_555
C51_2 C50_2 1_555 1_555
O23_2 C51_2 1_555 1_555
O24_2 C51_2 1_555 1_555
C52_2 C50_2 1_555 1_555
H18_2 C52_2 1_555 1_555
C53_2 C52_2 1_555 1_555
C54_2 C53_2 1_555 1_555
C55_2 C47_2 1_555 1_555
H19_2 C55_2 1_555 1_555
O26_2 Gd6_2 1_555 1_555
C63_2 C62_2 1_555 1_555
N7_2 C63_2 1_555 1_555
H22_2 C64_2 1_555 1_555
O33_2 Gd5_2 1_555 1_555
C73_2 O33_2 1_555 1_555
H25_2 C73_2 1_555 1_555
N9_2 C73_2 1_555 1_555
C74_2 N9_2 1_555 1_555
H26_2 C74_2 1_555 1_555
H27_2 C74_2 1_555 1_555
H28_2 C74_2 1_555 1_555
C75_2 N9_2 1_555 1_555
H29_2 C75_2 1_555 1_555
H30_2 C75_2 1_555 1_555
H31_2 C75_2 1_555 1_555
O34_2 Gd6_2 1_555 1_555
C76_2 O34_2 1_555 1_555
H36_2 C78_2 1_555 1_555
H37_2 C78_2 1_555 1_555
H43_2 C81_2 1_555 1_555
H44_2 C81_2 1_555 1_555
H45_2 C81_2 1_555 1_555
O41_2 Gd5_2 1_555 1_555
C97_2 O41_2 1_555 1_555
H81_2 C97_2 1_555 1_555
N17_2 C97_2 1_555 1_555
C98_2 N17_2 1_555 1_555
H82_2 C98_2 1_555 1_555
H83_2 C98_2 1_555 1_555
H84_2 C98_2 1_555 1_555
C99_2 N17_2 1_555 1_555
H85_2 C99_2 1_555 1_555
H86_2 C99_2 1_555 1_555
H87_2 C99_2 1_555 1_555
O43_2 Gd5_2 1_555 1_555
C100_2 O43_2 1_555 1_555
H88_2 C100_2 1_555 1_555
O44_2 Gd6_2 1_555 1_555
O45_2 Gd5_2 1_555 1_555
C101_2 O45_2 1_555 1_555
H89_2 C101_2 1_555 1_555
O46_2 Gd5_2 1_555 1_555
Gd10 O24_2 1_555 1_555
O48_2 Gd6_2 1_555 1_555
O49_2 Gd6_2 1_555 1_555
O51_2 Gd5_2 1_555 1_555
O55_2 Gd5_2 1_555 1_555
Gd6_2 O43_2 1_555 1_555
Gd6_2 O45_2 1_555 1_555
C53_2 C55_2 1_555 1_555
C62_2 C64_2 1_555 1_555
C100_2 O44_2 1_555 1_555
C101_2 O46_2 1_555 1_555
Gd1_2 O1_2 1_555 1_555
Gd3_2 O8_2 1_555 1_555
C1_2 C2_2 1_555 1_555
C2_2 O1_2 1_555 1_555
O2_2 Gd1_2 1_555 1_555
C3_2 C1_2 1_555 1_555
H1_2 C3_2 1_555 1_555
C4_2 C3_2 1_555 1_555
C5_2 C4_2 1_555 1_555
O3_2 C5_2 1_555 1_555
O4_2 C5_2 1_555 1_555
C6_2 C4_2 1_555 1_555
H2_2 C6_2 1_555 1_555
C7_2 C6_2 1_555 1_555
C8_2 C7_2 1_555 1_555
N1_2 C8_2 1_555 1_555
C9_2 H3_2 1_555 1_555
C10_2 C1_2 1_555 1_555
H4_2 C10_2 1_555 1_555
C11_2 C12_2 1_555 1_555
C12_2 O5_2 1_555 1_555
O5_2 Gd1_2 1_555 1_555
O6_2 C12_2 1_555 1_555
C13_2 C11_2 1_555 1_555
H5_2 C13_2 1_555 1_555
C14_2 C13_2 1_555 1_555
C15_2 C14_2 1_555 1_555
O7_2 C15_2 1_555 1_555
O8_2 C15_2 1_555 1_555
C16_2 C14_2 1_555 1_555
H6_2 C16_2 1_555 1_555
C17_2 C16_2 1_555 1_555
C18_2 C17_2 1_555 1_555
N2_2 C18_2 1_555 1_555
C19_2 C11_2 1_555 1_555
H7_2 C19_2 1_555 1_555
C36_2 C35_2 1_555 1_555
N4_2 C36_2 1_555 1_555
H13_2 C37_2 1_555 1_555
C48_2 O21_2 1_555 1_555
O21_2 Gd3_2 1_555 1_555
O22_2 Gd3_2 1_555 1_555
C56_2 C57_2 1_555 1_555
C57_2 O25_2 1_555 1_555
O25_2 Gd1_2 1_555 1_555
C58_2 C56_2 1_555 1_555
H20_2 C58_2 1_555 1_555
C59_2 C58_2 1_555 1_555
C60_2 C59_2 1_555 1_555
O27_2 C60_2 1_555 1_555
O28_2 C60_2 1_555 1_555
C61_2 C59_2 1_555 1_555
H21_2 C61_2 1_555 1_555
C65_2 C9_2 1_555 1_555
C66_2 C65_2 1_555 1_555
O30_2 Gd3_2 1_555 1_555
C67_2 C65_2 1_555 1_555
H23_2 C67_2 1_555 1_555
C68_2 C67_2 1_555 1_555
C69_2 C68_2 1_555 1_555
O31_2 C69_2 1_555 1_555
O32_2 C69_2 1_555 1_555
C70_2 C68_2 1_555 1_555
H24_2 C70_2 1_555 1_555
C71_2 C9_2 1_555 1_555
C72_2 C71_2 1_555 1_555
N8_2 C72_2 1_555 1_555
C77_2 N10_2 1_555 1_555
H33_2 C77_2 1_555 1_555
H35_2 C77_2 1_555 1_555
O35_2 Gd1_2 1_555 1_555
C79_2 O35_2 1_555 1_555
H39_2 C79_2 1_555 1_555
N11_2 C79_2 1_555 1_555
C80_2 N11_2 1_555 1_555
H40_2 C80_2 1_555 1_555
H41_2 C80_2 1_555 1_555
H42_2 C80_2 1_555 1_555
O37_2 Gd3_2 1_555 1_555
C85_2 O37_2 1_555 1_555
H53_2 C85_2 1_555 1_555
N13_2 C85_2 1_555 1_555
C86_2 N13_2 1_555 1_555
H54_2 C86_2 1_555 1_555
H55_2 C86_2 1_555 1_555
H56_2 C86_2 1_555 1_555
C87_2 N13_2 1_555 1_555
H57_2 C87_2 1_555 1_555
H58_2 C87_2 1_555 1_555
H59_2 C87_2 1_555 1_555
O38_2 Gd3_2 1_555 1_555
C88_2 O38_2 1_555 1_555
H60_2 C88_2 1_555 1_555
N14_2 C88_2 1_555 1_555
C89_2 N14_2 1_555 1_555
H61_2 C89_2 1_555 1_555
H62_2 C89_2 1_555 1_555
H63_2 C89_2 1_555 1_555
C90_2 N14_2 1_555 1_555
H64_2 C90_2 1_555 1_555
H65_2 C90_2 1_555 1_555
H66_2 C90_2 1_555 1_555
N15_2 C91_2 1_555 1_555
C92_2 N15_2 1_555 1_555
H68_2 C92_2 1_555 1_555
H69_2 C92_2 1_555 1_555
H70_2 C92_2 1_555 1_555
C93_2 N15_2 1_555 1_555
H71_2 C93_2 1_555 1_555
H72_2 C93_2 1_555 1_555
H73_2 C93_2 1_555 1_555
O42_2 Gd1_2 1_555 1_555
Gd8_2 O3_2 1_555 1_555
Gd9_2 O28_2 1_555 1_555
Gd10 O31_2 1_555 1_555
Gd14_2 O27_2 1_555 1_555
Gd16_2 O4_2 1_555 1_555
O50_2 Gd1_2 1_555 1_555
C2_2 O2_2 1_555 1_555
C7_2 C10_2 1_555 1_555
C17_2 C19_2 1_555 1_555
C35_2 C37_2 1_555 1_555
C48_2 O22_2 1_555 1_555
C66_2 O29_2 1_555 1_555
C66_2 O30_2 1_555 1_555
O32_2 Gd10 1_555 1_555
C70_2 C71_2 1_555 1_555
O42_2 H90_2 1_555 1_555
H9_2 C25_2 1_555 1_555
C26_2 C25_2 1_555 1_555
C27_2 C26_2 1_555 1_555
N3_2 C27_2 1_555 1_555
Gd7_2 O12_2 1_555 1_555
Gd4_2 O15_2 1_555 1_555
C20_2 C21_2 1_555 1_555
C21_2 O9_2 1_555 1_555
O9_2 Gd2_2 1_555 1_555
C22_2 C20_2 1_555 1_555
H8_2 C22_2 1_555 1_555
C23_2 C22_2 1_555 1_555
C24_2 C23_2 1_555 1_555
O11_2 C24_2 1_555 1_555
C28_2 C20_2 1_555 1_555
H10_2 C28_2 1_555 1_555
C29_2 C30_2 1_555 1_555
O14_2 Gd2_2 1_555 1_555
C31_2 C29_2 1_555 1_555
H11_2 C31_2 1_555 1_555
C32_2 C31_2 1_555 1_555
C33_2 C32_2 1_555 1_555
O15_2 C33_2 1_555 1_555
O16_2 C33_2 1_555 1_555
C34_2 C32_2 1_555 1_555
H12_2 C34_2 1_555 1_555
C38_2 C39_2 1_555 1_555
C39_2 O17_2 1_555 1_555
O17_2 Gd2_2 1_555 1_555
C40_2 C38_2 1_555 1_555
H14_2 C40_2 1_555 1_555
C41_2 C40_2 1_555 1_555
C42_2 C41_2 1_555 1_555
O19_2 C42_2 1_555 1_555
O20_2 C42_2 1_555 1_555
C43_2 C41_2 1_555 1_555
H15_2 C43_2 1_555 1_555
C44_2 C43_2 1_555 1_555
C45_2 C44_2 1_555 1_555
N5_2 C45_2 1_555 1_555
C46_2 C38_2 1_555 1_555
H16_2 C46_2 1_555 1_555
O36_2 Gd2_2 1_555 1_555
C82_2 O36_2 1_555 1_555
H46_2 C82_2 1_555 1_555
N12_2 C82_2 1_555 1_555
C83_2 N12_2 1_555 1_555
H47_2 C83_2 1_555 1_555
H48_2 C83_2 1_555 1_555
H49_2 C83_2 1_555 1_555
C84_2 N12_2 1_555 1_555
H50_2 C84_2 1_555 1_555
H51_2 C84_2 1_555 1_555
H52_2 C84_2 1_555 1_555
O39_2 Gd4_2 1_555 1_555
O40_2 Gd2_2 1_555 1_555
C94_2 O40_2 1_555 1_555
H74_2 C94_2 1_555 1_555
N16_2 C94_2 1_555 1_555
C95_2 N16_2 1_555 1_555
H75_2 C95_2 1_555 1_555
H76_2 C95_2 1_555 1_555
H77_2 C95_2 1_555 1_555
C96_2 N16_2 1_555 1_555
H78_2 C96_2 1_555 1_555
H79_2 C96_2 1_555 1_555
H80_2 C96_2 1_555 1_555
Gd12_2 O19_2 1_555 1_555
Gd13_2 O16_2 1_555 1_555
Gd15_2 O11_2 1_555 1_555
O52_2 Gd4_2 1_555 1_555
O53_2 Gd4_2 1_555 1_555
O54_2 Gd4_2 1_555 1_555
O56_2 Gd4_2 1_555 1_555
O57_2 Gd4_2 1_555 1_555
O58_2 Gd4_2 1_555 1_555
C21_2 O10_2 1_555 1_555
C30_2 O14_2 1_555 1_555
C39_2 O18_2 1_555 1_555
O20_2 Gd12_2 1_555 1_555
C44_2 C46_2 1_555 1_555
O31_3 C69_3 1_555 1_555
O32_3 C69_3 1_555 1_555
H47_3 C83_3 1_555 1_555
H48_3 C83_3 1_555 1_555
H49_3 C83_3 1_555 1_555
Gd12 O31_3 1_555 1_555
O32_3 Gd12 1_555 1_555
Gd1_3 O1_3 1_555 1_555
Gd2_3 O7_3 1_555 1_555
Gd3_3 O8_3 1_555 1_555
Gd9_2 O15_3 1_555 1_555
Gd5_3 O23_3 1_555 1_555
Gd6_3 O6_3 1_555 1_555
C1_3 C2_3 1_555 1_555
C2_3 O1_3 1_555 1_555
O2_3 Gd1_3 1_555 1_555
C3_3 C1_3 1_555 1_555
H1_3 C3_3 1_555 1_555
C4_3 C3_3 1_555 1_555
C5_3 C4_3 1_555 1_555
O3_3 C5_3 1_555 1_555
O4_3 C5_3 1_555 1_555
C6_3 C4_3 1_555 1_555
H2_3 C6_3 1_555 1_555
C7_3 C6_3 1_555 1_555
C8_3 C7_3 1_555 1_555
N1_3 C8_3 1_555 1_555
C9_3 H3_3 1_555 1_555
C10_3 C1_3 1_555 1_555
H4_3 C10_3 1_555 1_555
C11_3 C12_3 1_555 1_555
C12_3 O5_3 1_555 1_555
O5_3 Gd1_3 1_555 1_555
O6_3 C12_3 1_555 1_555
C13_3 C11_3 1_555 1_555
H5_3 C13_3 1_555 1_555
C14_3 C13_3 1_555 1_555
C15_3 C14_3 1_555 1_555
O7_3 C15_3 1_555 1_555
O8_3 C15_3 1_555 1_555
C16_3 C14_3 1_555 1_555
H6_3 C16_3 1_555 1_555
C17_3 C16_3 1_555 1_555
C18_3 C17_3 1_555 1_555
N2_3 C18_3 1_555 1_555
C19_3 C11_3 1_555 1_555
H7_3 C19_3 1_555 1_555
C20_3 C21_3 1_555 1_555
C21_3 O9_3 1_555 1_555
O9_3 Gd2_3 1_555 1_555
O10_3 Gd3_3 1_555 1_555
C22_3 C20_3 1_555 1_555
H8_3 C22_3 1_555 1_555
C23_3 C22_3 1_555 1_555
C24_3 C23_3 1_555 1_555
O11_3 C24_3 1_555 1_555
O12_3 C24_3 1_555 1_555
C25_3 C23_3 1_555 1_555
H9_3 C25_3 1_555 1_555
C26_3 C25_3 1_555 1_555
C27_3 C26_3 1_555 1_555
N3_3 C27_3 1_555 1_555
C28_3 C20_3 1_555 1_555
H10_3 C28_3 1_555 1_555
C29_3 C30_3 1_555 1_555
C30_3 O13_3 1_555 1_555
O13_3 Gd2_3 1_555 1_555
O14_3 Gd2_3 1_555 1_555
C31_3 C29_3 1_555 1_555
H11_3 C31_3 1_555 1_555
C32_3 C31_3 1_555 1_555
C33_3 C32_3 1_555 1_555
O15_3 C33_3 1_555 1_555
O16_3 C33_3 1_555 1_555
C34_3 C32_3 1_555 1_555
H12_3 C34_3 1_555 1_555
C35_3 C34_3 1_555 1_555
C36_3 C35_3 1_555 1_555
C37_3 C29_3 1_555 1_555
H13_3 C37_3 1_555 1_555
C38_3 C39_3 1_555 1_555
C39_3 O17_3 1_555 1_555
O17_3 Gd2_3 1_555 1_555
O18_3 Gd3_3 1_555 1_555
C40_3 C38_3 1_555 1_555
H14_3 C40_3 1_555 1_555
C41_3 C40_3 1_555 1_555
C42_3 C41_3 1_555 1_555
O19_3 C42_3 1_555 1_555
O20_3 C42_3 1_555 1_555
C43_3 C41_3 1_555 1_555
H15_3 C43_3 1_555 1_555
C44_3 C43_3 1_555 1_555
C45_3 C44_3 1_555 1_555
N5_3 C45_3 1_555 1_555
C46_3 C38_3 1_555 1_555
H16_3 C46_3 1_555 1_555
C47_3 C48_3 1_555 1_555
C48_3 O21_3 1_555 1_555
O21_3 Gd3_3 1_555 1_555
O22_3 Gd3_3 1_555 1_555
C49_3 C47_3 1_555 1_555
H17_3 C49_3 1_555 1_555
C50_3 C49_3 1_555 1_555
C51_3 C50_3 1_555 1_555
O23_3 C51_3 1_555 1_555
O24_3 C51_3 1_555 1_555
C52_3 C50_3 1_555 1_555
H18_3 C52_3 1_555 1_555
C53_3 C52_3 1_555 1_555
C54_3 C53_3 1_555 1_555
N6_3 C54_3 1_555 1_555
C55_3 C47_3 1_555 1_555
H19_3 C55_3 1_555 1_555
C56_3 C57_3 1_555 1_555
C57_3 O25_3 1_555 1_555
O25_3 Gd1_3 1_555 1_555
O26_3 Gd6_3 1_555 1_555
C58_3 C56_3 1_555 1_555
H20_3 C58_3 1_555 1_555
C59_3 C58_3 1_555 1_555
C60_3 C59_3 1_555 1_555
O27_3 C60_3 1_555 1_555
O56_2 C60_3 1_555 1_555
C61_3 C59_3 1_555 1_555
H21_3 C61_3 1_555 1_555
C62_3 C61_3 1_555 1_555
C63_3 C62_3 1_555 1_555
N7_3 C63_3 1_555 1_555
C64_3 C56_3 1_555 1_555
H22_3 C64_3 1_555 1_555
C65_3 C9_3 1_555 1_555
C66_3 C65_3 1_555 1_555
O29_3 Gd2_3 1_555 1_555
O30_3 Gd3_3 1_555 1_555
C67_3 C65_3 1_555 1_555
H23_3 C67_3 1_555 1_555
C68_3 C67_3 1_555 1_555
C70_3 C68_3 1_555 1_555
H24_3 C70_3 1_555 1_555
C71_3 C9_3 1_555 1_555
C72_3 C71_3 1_555 1_555
N8_3 C72_3 1_555 1_555
O33_3 Gd5_3 1_555 1_555
C73_3 O33_3 1_555 1_555
H25_3 C73_3 1_555 1_555
N9_3 C73_3 1_555 1_555
C74_3 N9_3 1_555 1_555
H26_3 C74_3 1_555 1_555
H27_3 C74_3 1_555 1_555
H28_3 C74_3 1_555 1_555
C75_3 N9_3 1_555 1_555
H29_3 C75_3 1_555 1_555
H30_3 C75_3 1_555 1_555
H31_3 C75_3 1_555 1_555
O34_3 Gd6_3 1_555 1_555
C76_3 O34_3 1_555 1_555
H32_3 C76_3 1_555 1_555
N10_3 C76_3 1_555 1_555
C77_3 N10_3 1_555 1_555
H33_3 C77_3 1_555 1_555
H34_3 C77_3 1_555 1_555
H35_3 C77_3 1_555 1_555
C78_3 N10_3 1_555 1_555
H36_3 C78_3 1_555 1_555
H37_3 C78_3 1_555 1_555
H38_3 C78_3 1_555 1_555
O35_3 Gd1_3 1_555 1_555
C79_3 O35_3 1_555 1_555
H39_3 C79_3 1_555 1_555
N11_3 C79_3 1_555 1_555
C80_3 N11_3 1_555 1_555
H40_3 C80_3 1_555 1_555
H41_3 C80_3 1_555 1_555
H42_3 C80_3 1_555 1_555
C81_3 N11_3 1_555 1_555
H43_3 C81_3 1_555 1_555
H44_3 C81_3 1_555 1_555
H45_3 C81_3 1_555 1_555
O36_3 Gd2_3 1_555 1_555
C82_3 O36_3 1_555 1_555
H46_3 C82_3 1_555 1_555
N12_3 C82_3 1_555 1_555
C84_3 N12_3 1_555 1_555
H50_3 C84_3 1_555 1_555
H51_3 C84_3 1_555 1_555
H52_3 C84_3 1_555 1_555
O37_3 Gd3_3 1_555 1_555
C85_3 O37_3 1_555 1_555
H53_3 C85_3 1_555 1_555
N13_3 C85_3 1_555 1_555
C86_3 N13_3 1_555 1_555
H54_3 C86_3 1_555 1_555
H55_3 C86_3 1_555 1_555
H56_3 C86_3 1_555 1_555
C87_3 N13_3 1_555 1_555
H57_3 C87_3 1_555 1_555
H58_3 C87_3 1_555 1_555
H59_3 C87_3 1_555 1_555
O38_3 Gd3_3 1_555 1_555
C88_3 O38_3 1_555 1_555
H60_3 C88_3 1_555 1_555
N14_3 C88_3 1_555 1_555
C89_3 N14_3 1_555 1_555
H61_3 C89_3 1_555 1_555
H62_3 C89_3 1_555 1_555
H63_3 C89_3 1_555 1_555
C90_3 N14_3 1_555 1_555
H64_3 C90_3 1_555 1_555
H65_3 C90_3 1_555 1_555
H66_3 C90_3 1_555 1_555
O39_3 Gd9_2 1_555 1_555
C91_3 O39_3 1_555 1_555
H67_3 C91_3 1_555 1_555
N15_3 C91_3 1_555 1_555
C92_3 N15_3 1_555 1_555
H68_3 C92_3 1_555 1_555
H69_3 C92_3 1_555 1_555
H70_3 C92_3 1_555 1_555
C93_3 N15_3 1_555 1_555
H71_3 C93_3 1_555 1_555
H72_3 C93_3 1_555 1_555
H73_3 C93_3 1_555 1_555
O40_3 Gd2_3 1_555 1_555
C94_3 O40_3 1_555 1_555
H74_3 C94_3 1_555 1_555
N16_3 C94_3 1_555 1_555
C95_3 N16_3 1_555 1_555
H75_3 C95_3 1_555 1_555
H76_3 C95_3 1_555 1_555
H77_3 C95_3 1_555 1_555
C96_3 N16_3 1_555 1_555
H78_3 C96_3 1_555 1_555
H79_3 C96_3 1_555 1_555
H80_3 C96_3 1_555 1_555
O41_3 Gd5_3 1_555 1_555
C97_3 O41_3 1_555 1_555
H81_3 C97_3 1_555 1_555
N17_3 C97_3 1_555 1_555
C98_3 N17_3 1_555 1_555
H82_3 C98_3 1_555 1_555
H83_3 C98_3 1_555 1_555
H84_3 C98_3 1_555 1_555
C99_3 N17_3 1_555 1_555
H85_3 C99_3 1_555 1_555
H86_3 C99_3 1_555 1_555
H87_3 C99_3 1_555 1_555
O42_3 Gd1_3 1_555 1_555
O43_3 Gd5_3 1_555 1_555
C100_3 O43_3 1_555 1_555
H88_3 C100_3 1_555 1_555
O44_3 Gd6_3 1_555 1_555
O45_3 Gd5_3 1_555 1_555
C101_3 O45_3 1_555 1_555
H89_3 C101_3 1_555 1_555
O46_3 Gd5_3 1_555 1_555
Gd8_2 O12_3 1_555 1_555
Gd12 O24_3 1_555 1_555
Gd11 O19_3 1_555 1_555
Gd14_2 O16_3 1_555 1_555
Gd13_2 O27_3 1_555 1_555
Gd16_2 O11_3 1_555 1_555
Gd15_2 O4_3 1_555 1_555
O47_3 Gd1_3 1_555 1_555
O48_3 Gd6_3 1_555 1_555
O49_3 Gd6_3 1_555 1_555
O50_3 Gd1_3 1_555 1_555
O51_3 Gd5_3 1_555 1_555
O52_3 Gd9_2 1_555 1_555
O53_3 Gd9_2 1_555 1_555
O54_3 Gd9_2 1_555 1_555
O55_3 Gd5_3 1_555 1_555
O57_3 Gd9_2 1_555 1_555
O58_3 Gd9_2 1_555 1_555
Gd6_3 O43_3 1_555 1_555
Gd6_3 O45_3 1_555 1_555
C2_3 O2_3 1_555 1_555
C7_3 C10_3 1_555 1_555
C17_3 C19_3 1_555 1_555
C21_3 O10_3 1_555 1_555
C26_3 C28_3 1_555 1_555
C30_3 O14_3 1_555 1_555
C35_3 C37_3 1_555 1_555
C39_3 O18_3 1_555 1_555
O20_3 Gd11 1_555 1_555
C44_3 C46_3 1_555 1_555
C48_3 O22_3 1_555 1_555
C53_3 C55_3 1_555 1_555
C57_3 O26_3 1_555 1_555
C62_3 C64_3 1_555 1_555
C66_3 O29_3 1_555 1_555
C66_3 O30_3 1_555 1_555
C70_3 C71_3 1_555 1_555
C100_3 O44_3 1_555 1_555
C101_3 O46_3 1_555 1_555
O42_3 H90_3 1_555 1_555
O42_3 H91_3 1_555 1_555
C20_4 C21_4 1_555 1_555
C21_4 O9_4 1_555 1_555
O9_4 Gd2_4 1_555 1_555
C22_4 C20_4 1_555 1_555
H8_4 C22_4 1_555 1_555
C23_4 C22_4 1_555 1_555
C24_4 C23_4 1_555 1_555
O11_4 C24_4 1_555 1_555
O12_4 C24_4 1_555 1_555
C25_4 C23_4 1_555 1_555
H9_4 C25_4 1_555 1_555
C26_4 C25_4 1_555 1_555
C27_4 C26_4 1_555 1_555
N3_4 C27_4 1_555 1_555
C28_4 C20_4 1_555 1_555
H10_4 C28_4 1_555 1_555
C29_4 C30_4 1_555 1_555
O14_4 Gd2_4 1_555 1_555
C38_4 C39_4 1_555 1_555
C39_4 O17_4 1_555 1_555
O17_4 Gd2_4 1_555 1_555
C40_4 C38_4 1_555 1_555
H14_4 C40_4 1_555 1_555
C41_4 C40_4 1_555 1_555
C42_4 C41_4 1_555 1_555
O19_4 C42_4 1_555 1_555
O20_4 C42_4 1_555 1_555
C43_4 C41_4 1_555 1_555
H15_4 C43_4 1_555 1_555
C44_4 C43_4 1_555 1_555
C45_4 C44_4 1_555 1_555
N5_4 C45_4 1_555 1_555
C46_4 C38_4 1_555 1_555
H16_4 C46_4 1_555 1_555
O36_4 Gd2_4 1_555 1_555
C82_4 O36_4 1_555 1_555
H46_4 C82_4 1_555 1_555
N12_4 C82_4 1_555 1_555
C84_4 N12_4 1_555 1_555
H50_4 C84_4 1_555 1_555
H51_4 C84_4 1_555 1_555
H52_4 C84_4 1_555 1_555
O40_4 Gd2_4 1_555 1_555
C94_4 O40_4 1_555 1_555
H74_4 C94_4 1_555 1_555
N16_4 C94_4 1_555 1_555
C95_4 N16_4 1_555 1_555
H75_4 C95_4 1_555 1_555
H76_4 C95_4 1_555 1_555
H77_4 C95_4 1_555 1_555
C96_4 N16_4 1_555 1_555
H78_4 C96_4 1_555 1_555
H79_4 C96_4 1_555 1_555
H80_4 C96_4 1_555 1_555
Gd8 O12_4 1_555 1_555
Gd10 O19_4 1_555 1_555
C21_4 O10_4 1_555 1_555
C26_4 C28_4 1_555 1_555
C30_4 O14_4 1_555 1_555
C39_4 O18_4 1_555 1_555
O20_4 Gd10 1_555 1_555
C44_4 C46_4 1_555 1_555
Gd9 O15_4 1_555 1_555
H11_4 C31_4 1_555 1_555
C32_4 C31_4 1_555 1_555
C33_4 C32_4 1_555 1_555
O15_4 C33_4 1_555 1_555
O16_4 C33_4 1_555 1_555
C34_4 C32_4 1_555 1_555
H12_4 C34_4 1_555 1_555
O39_4 Gd9 1_555 1_555
Gd14 O16_4 1_555 1_555
O52_4 Gd9 1_555 1_555
O53_4 Gd9 1_555 1_555
O54_4 Gd9 1_555 1_555
O57_4 Gd9 1_555 1_555
O58_4 Gd9 1_555 1_555
Gd3_4 O8_4 1_555 1_555
Gd5_4 O23_4 1_555 1_555
Gd6_4 O6_4 1_555 1_555
C9_4 H3_4 1_555 1_555
C11_4 C12_4 1_555 1_555
O6_4 C12_4 1_555 1_555
C13_4 C11_4 1_555 1_555
H5_4 C13_4 1_555 1_555
C14_4 C13_4 1_555 1_555
C15_4 C14_4 1_555 1_555
O7_4 C15_4 1_555 1_555
O8_4 C15_4 1_555 1_555
C16_4 C14_4 1_555 1_555
H6_4 C16_4 1_555 1_555
C17_4 C16_4 1_555 1_555
H13_4 C37_4 1_555 1_555
C47_4 C48_4 1_555 1_555
C48_4 O21_4 1_555 1_555
O21_4 Gd3_4 1_555 1_555
O22_4 Gd3_4 1_555 1_555
C49_4 C47_4 1_555 1_555
H17_4 C49_4 1_555 1_555
C50_4 C49_4 1_555 1_555
C51_4 C50_4 1_555 1_555
O23_4 C51_4 1_555 1_555
O24_4 C51_4 1_555 1_555
C52_4 C50_4 1_555 1_555
H18_4 C52_4 1_555 1_555
C53_4 C52_4 1_555 1_555
C54_4 C53_4 1_555 1_555
C55_4 C47_4 1_555 1_555
H19_4 C55_4 1_555 1_555
C56_4 C57_4 1_555 1_555
C57_4 O25_4 1_555 1_555
O26_4 Gd6_4 1_555 1_555
C58_4 C56_4 1_555 1_555
H20_4 C58_4 1_555 1_555
C59_4 C58_4 1_555 1_555
C60_4 C59_4 1_555 1_555
O27_4 C60_4 1_555 1_555
O56 C60_4 1_555 1_555
C61_4 C59_4 1_555 1_555
H21_4 C61_4 1_555 1_555
C62_4 C61_4 1_555 1_555
C63_4 C62_4 1_555 1_555
N7_4 C63_4 1_555 1_555
C64_4 C56_4 1_555 1_555
H22_4 C64_4 1_555 1_555
C65_4 C9_4 1_555 1_555
C66_4 C65_4 1_555 1_555
O30_4 Gd3_4 1_555 1_555
C67_4 C65_4 1_555 1_555
H23_4 C67_4 1_555 1_555
C68_4 C67_4 1_555 1_555
C70_4 C68_4 1_555 1_555
H24_4 C70_4 1_555 1_555
C71_4 C9_4 1_555 1_555
C72_4 C71_4 1_555 1_555
N8_4 C72_4 1_555 1_555
O33_4 Gd5_4 1_555 1_555
C73_4 O33_4 1_555 1_555
H25_4 C73_4 1_555 1_555
N9_4 C73_4 1_555 1_555
C74_4 N9_4 1_555 1_555
H26_4 C74_4 1_555 1_555
H27_4 C74_4 1_555 1_555
H28_4 C74_4 1_555 1_555
C75_4 N9_4 1_555 1_555
H29_4 C75_4 1_555 1_555
H30_4 C75_4 1_555 1_555
H31_4 C75_4 1_555 1_555
O34_4 Gd6_4 1_555 1_555
C76_4 O34_4 1_555 1_555
H32_4 C76_4 1_555 1_555
N10_4 C76_4 1_555 1_555
C77_4 N10_4 1_555 1_555
H33_4 C77_4 1_555 1_555
H35_4 C77_4 1_555 1_555
C78_4 N10_4 1_555 1_555
H36_4 C78_4 1_555 1_555
H37_4 C78_4 1_555 1_555
H38_4 C78_4 1_555 1_555
H41_4 C80_4 1_555 1_555
H42_4 C80_4 1_555 1_555
O37_4 Gd3_4 1_555 1_555
C85_4 O37_4 1_555 1_555
H53_4 C85_4 1_555 1_555
N13_4 C85_4 1_555 1_555
C86_4 N13_4 1_555 1_555
H54_4 C86_4 1_555 1_555
H55_4 C86_4 1_555 1_555
H56_4 C86_4 1_555 1_555
C87_4 N13_4 1_555 1_555
H57_4 C87_4 1_555 1_555
H58_4 C87_4 1_555 1_555
H59_4 C87_4 1_555 1_555
O38_4 Gd3_4 1_555 1_555
C88_4 O38_4 1_555 1_555
H60_4 C88_4 1_555 1_555
N14_4 C88_4 1_555 1_555
C89_4 N14_4 1_555 1_555
H61_4 C89_4 1_555 1_555
H62_4 C89_4 1_555 1_555
H63_4 C89_4 1_555 1_555
C90_4 N14_4 1_555 1_555
H64_4 C90_4 1_555 1_555
H65_4 C90_4 1_555 1_555
H66_4 C90_4 1_555 1_555
O41_4 Gd5_4 1_555 1_555
C97_4 O41_4 1_555 1_555
H81_4 C97_4 1_555 1_555
N17_4 C97_4 1_555 1_555
C98_4 N17_4 1_555 1_555
H82_4 C98_4 1_555 1_555
H83_4 C98_4 1_555 1_555
H84_4 C98_4 1_555 1_555
C99_4 N17_4 1_555 1_555
H85_4 C99_4 1_555 1_555
H86_4 C99_4 1_555 1_555
H87_4 C99_4 1_555 1_555
O43_4 Gd5_4 1_555 1_555
C100_4 O43_4 1_555 1_555
H88_4 C100_4 1_555 1_555
O44_4 Gd6_4 1_555 1_555
O45_4 Gd5_4 1_555 1_555
C101_4 O45_4 1_555 1_555
O46_4 Gd5_4 1_555 1_555
Gd12_2 O24_4 1_555 1_555
Gd13 O27_4 1_555 1_555
O51_4 Gd5_4 1_555 1_555
O55_4 Gd5_4 1_555 1_555
Gd6_4 O43_4 1_555 1_555
Gd6_4 O45_4 1_555 1_555
C48_4 O22_4 1_555 1_555
C53_4 C55_4 1_555 1_555
C57_4 O26_4 1_555 1_555
C62_4 C64_4 1_555 1_555
C66_4 O29_4 1_555 1_555
C66_4 O30_4 1_555 1_555
C70_4 C71_4 1_555 1_555
C100_4 O44_4 1_555 1_555
C101_4 O46_4 1_555 1_555
Gd1_4 O1_4 1_555 1_555
C1_4 C2_4 1_555 1_555
C2_4 O1_4 1_555 1_555
O2_4 Gd1_4 1_555 1_555
C3_4 C1_4 1_555 1_555
H1_4 C3_4 1_555 1_555
C4_4 C3_4 1_555 1_555
C5_4 C4_4 1_555 1_555
O3_4 C5_4 1_555 1_555
O4_4 C5_4 1_555 1_555
C6_4 C4_4 1_555 1_555
H2_4 C6_4 1_555 1_555
C7_4 C6_4 1_555 1_555
C8_4 C7_4 1_555 1_555
N1_4 C8_4 1_555 1_555
C10_4 C1_4 1_555 1_555
H4_4 C10_4 1_555 1_555
O5_4 Gd1_4 1_555 1_555
N2_4 C18_4 1_555 1_555
H7_4 C19_4 1_555 1_555
C36_4 C35_4 1_555 1_555
O35_4 Gd1_4 1_555 1_555
C79_4 O35_4 1_555 1_555
H39_4 C79_4 1_555 1_555
N11_4 C79_4 1_555 1_555
C81_4 N11_4 1_555 1_555
H43_4 C81_4 1_555 1_555
H45_4 C81_4 1_555 1_555
N15_4 C91_4 1_555 1_555
C92_4 N15_4 1_555 1_555
H68_4 C92_4 1_555 1_555
H69_4 C92_4 1_555 1_555
H70_4 C92_4 1_555 1_555
C93_4 N15_4 1_555 1_555
H71_4 C93_4 1_555 1_555
H72_4 C93_4 1_555 1_555
H73_4 C93_4 1_555 1_555
O42_4 Gd1_4 1_555 1_555
O47_4 Gd1_4 1_555 1_555
O50_4 Gd1_4 1_555 1_555
C2_4 O2_4 1_555 1_555
C7_4 C10_4 1_555 1_555
O42_4 H90_4 1_555 1_555
O42_4 H91_4 1_555 1_555
O31_4 C69_4 1_555 1_555
O32_4 C69_4 1_555 1_555
Gd12_2 O31_4 1_555 1_555
O32_4 Gd12_2 1_555 1_555
Gd13 O23_5 1_555 1_555
H9_5 C25_5 1_555 1_555
C26_5 C25_5 1_555 1_555
C27_5 C26_5 1_555 1_555
N3_5 C27_5 1_555 1_555
C49_5 C47_5 1_555 1_555
H17_5 C49_5 1_555 1_555
C50_5 C49_5 1_555 1_555
C51_5 C50_5 1_555 1_555
O23_5 C51_5 1_555 1_555
O54 C51_5 1_555 1_555
C52_5 C50_5 1_555 1_555
H18_5 C52_5 1_555 1_555
C53_5 C52_5 1_555 1_555
C54_5 C53_5 1_555 1_555
N6_5 C54_5 1_555 1_555
C55_5 C47_5 1_555 1_555
H19_5 C55_5 1_555 1_555
O26_5 Gd15 1_555 1_555
C63_5 C62_5 1_555 1_555
N7_5 C63_5 1_555 1_555
H22_5 C64_5 1_555 1_555
O33_5 Gd13 1_555 1_555
C73_5 O33_5 1_555 1_555
H25_5 C73_5 1_555 1_555
N9_5 C73_5 1_555 1_555
C74_5 N9_5 1_555 1_555
H26_5 C74_5 1_555 1_555
H27_5 C74_5 1_555 1_555
H28_5 C74_5 1_555 1_555
C75_5 N9_5 1_555 1_555
H29_5 C75_5 1_555 1_555
H30_5 C75_5 1_555 1_555
H31_5 C75_5 1_555 1_555
O34_5 Gd15 1_555 1_555
C76_5 O34_5 1_555 1_555
H36_5 C78_5 1_555 1_555
H37_5 C78_5 1_555 1_555
O41_5 Gd13 1_555 1_555
C97_5 O41_5 1_555 1_555
H81_5 C97_5 1_555 1_555
N17_5 C97_5 1_555 1_555
C98_5 N17_5 1_555 1_555
H82_5 C98_5 1_555 1_555
H83_5 C98_5 1_555 1_555
H84_5 C98_5 1_555 1_555
C99_5 N17_5 1_555 1_555
H85_5 C99_5 1_555 1_555
H86_5 C99_5 1_555 1_555
H87_5 C99_5 1_555 1_555
O43_5 Gd13 1_555 1_555
C100_5 O43_5 1_555 1_555
H88_5 C100_5 1_555 1_555
O44_5 Gd15 1_555 1_555
O45_5 Gd13 1_555 1_555
C101_5 O45_5 1_555 1_555
O46_5 Gd13 1_555 1_555
Gd15 O43_5 1_555 1_555
Gd15 O45_5 1_555 1_555
C53_5 C55_5 1_555 1_555
C62_5 C64_5 1_555 1_555
C100_5 O44_5 1_555 1_555
C101_5 O46_5 1_555 1_555
H43_5 C81_5 1_555 1_555
H45_5 C81_5 1_555 1_555
Gd2_5 O7_5 1_555 1_555
Gd3_5 O8_5 1_555 1_555
C9_5 H3_5 1_555 1_555
C11_5 C12_5 1_555 1_555
O6_5 C12_5 1_555 1_555
C13_5 C11_5 1_555 1_555
H5_5 C13_5 1_555 1_555
C14_5 C13_5 1_555 1_555
C15_5 C14_5 1_555 1_555
O7_5 C15_5 1_555 1_555
O8_5 C15_5 1_555 1_555
C16_5 C14_5 1_555 1_555
H6_5 C16_5 1_555 1_555
C17_5 C16_5 1_555 1_555
C20_5 C21_5 1_555 1_555
C21_5 O9_5 1_555 1_555
O9_5 Gd2_5 1_555 1_555
O10_5 Gd3_5 1_555 1_555
C22_5 C20_5 1_555 1_555
H8_5 C22_5 1_555 1_555
C23_5 C22_5 1_555 1_555
C24_5 C23_5 1_555 1_555
O49 C24_5 1_555 1_555
C28_5 C20_5 1_555 1_555
H10_5 C28_5 1_555 1_555
C29_5 C30_5 1_555 1_555
C30_5 O13_5 1_555 1_555
O13_5 Gd2_5 1_555 1_555
O14_5 Gd2_5 1_555 1_555
C37_5 C29_5 1_555 1_555
H13_5 C37_5 1_555 1_555
C38_5 C39_5 1_555 1_555
C39_5 O17_5 1_555 1_555
O17_5 Gd2_5 1_555 1_555
O18_5 Gd3_5 1_555 1_555
C40_5 C38_5 1_555 1_555
H14_5 C40_5 1_555 1_555
C41_5 C40_5 1_555 1_555
C42_5 C41_5 1_555 1_555
O52_3 C42_5 1_555 1_555
O53_3 C42_5 1_555 1_555
C43_5 C41_5 1_555 1_555
H15_5 C43_5 1_555 1_555
C44_5 C43_5 1_555 1_555
C45_5 C44_5 1_555 1_555
N5_5 C45_5 1_555 1_555
C46_5 C38_5 1_555 1_555
H16_5 C46_5 1_555 1_555
C48_5 O21_5 1_555 1_555
O21_5 Gd3_5 1_555 1_555
O22_5 Gd3_5 1_555 1_555
C56_5 C57_5 1_555 1_555
C57_5 O25_5 1_555 1_555
C58_5 C56_5 1_555 1_555
H20_5 C58_5 1_555 1_555
C59_5 C58_5 1_555 1_555
C60_5 C59_5 1_555 1_555
O55_4 C60_5 1_555 1_555
O28_3 C60_5 1_555 1_555
C61_5 C59_5 1_555 1_555
H21_5 C61_5 1_555 1_555
C65_5 C9_5 1_555 1_555
C66_5 C65_5 1_555 1_555
O29_5 Gd2_5 1_555 1_555
O30_5 Gd3_5 1_555 1_555
C67_5 C65_5 1_555 1_555
H23_5 C67_5 1_555 1_555
C68_5 C67_5 1_555 1_555
C69_5 C68_5 1_555 1_555
O57 C69_5 1_555 1_555
O58 C69_5 1_555 1_555
C70_5 C68_5 1_555 1_555
H24_5 C70_5 1_555 1_555
C71_5 C9_5 1_555 1_555
C72_5 C71_5 1_555 1_555
N8_5 C72_5 1_555 1_555
C77_5 N10_5 1_555 1_555
H33_5 C77_5 1_555 1_555
H34_5 C77_5 1_555 1_555
H35_5 C77_5 1_555 1_555
H41_5 C80_5 1_555 1_555
H42_5 C80_5 1_555 1_555
O36_5 Gd2_5 1_555 1_555
C82_5 O36_5 1_555 1_555
H46_5 C82_5 1_555 1_555
N12_5 C82_5 1_555 1_555
C83_4 N12_5 1_555 1_555
H47_4 C83_4 1_555 1_555
H48_4 C83_4 1_555 1_555
H49_4 C83_4 1_555 1_555
C84_5 N12_5 1_555 1_555
H50_5 C84_5 1_555 1_555
H51_5 C84_5 1_555 1_555
H52_5 C84_5 1_555 1_555
O37_5 Gd3_5 1_555 1_555
C85_5 O37_5 1_555 1_555
H53_5 C85_5 1_555 1_555
N13_5 C85_5 1_555 1_555
C86_5 N13_5 1_555 1_555
H54_5 C86_5 1_555 1_555
H55_5 C86_5 1_555 1_555
H56_5 C86_5 1_555 1_555
C87_5 N13_5 1_555 1_555
H57_5 C87_5 1_555 1_555
H58_5 C87_5 1_555 1_555
H59_5 C87_5 1_555 1_555
O38_5 Gd3_5 1_555 1_555
C88_5 O38_5 1_555 1_555
H60_5 C88_5 1_555 1_555
N14_5 C88_5 1_555 1_555
C89_5 N14_5 1_555 1_555
H61_5 C89_5 1_555 1_555
H62_5 C89_5 1_555 1_555
H63_5 C89_5 1_555 1_555
C90_5 N14_5 1_555 1_555
H64_5 C90_5 1_555 1_555
H65_5 C90_5 1_555 1_555
H66_5 C90_5 1_555 1_555
O40_5 Gd2_5 1_555 1_555
C94_5 O40_5 1_555 1_555
H74_5 C94_5 1_555 1_555
N16_5 C94_5 1_555 1_555
C95_5 N16_5 1_555 1_555
H75_5 C95_5 1_555 1_555
H76_5 C95_5 1_555 1_555
H77_5 C95_5 1_555 1_555
C96_5 N16_5 1_555 1_555
H78_5 C96_5 1_555 1_555
H79_5 C96_5 1_555 1_555
H80_5 C96_5 1_555 1_555
Gd12_2 O28_3 1_555 1_555
C21_5 O10_5 1_555 1_555
C30_5 O14_5 1_555 1_555
C39_5 O18_5 1_555 1_555
C44_5 C46_5 1_555 1_555
C48_5 O22_5 1_555 1_555
C66_5 O29_5 1_555 1_555
C66_5 O30_5 1_555 1_555
C70_5 C71_5 1_555 1_555
Gd7 O1_5 1_555 1_555
Gd11 O15_5 1_555 1_555
C1_5 C2_5 1_555 1_555
C2_5 O1_5 1_555 1_555
O2_5 Gd7 1_555 1_555
C3_5 C1_5 1_555 1_555
H1_5 C3_5 1_555 1_555
C4_5 C3_5 1_555 1_555
C5_5 C4_5 1_555 1_555
O47_4 C5_5 1_555 1_555
O48_4 C5_5 1_555 1_555
C6_5 C4_5 1_555 1_555
H2_5 C6_5 1_555 1_555
C7_5 C6_5 1_555 1_555
C8_5 C7_5 1_555 1_555
N1_5 C8_5 1_555 1_555
C10_5 C1_5 1_555 1_555
H4_5 C10_5 1_555 1_555
O5_5 Gd7 1_555 1_555
N2_5 C18_5 1_555 1_555
H7_5 C19_5 1_555 1_555
H11_5 C31_5 1_555 1_555
C32_5 C31_5 1_555 1_555
C33_5 C32_5 1_555 1_555
O15_5 C33_5 1_555 1_555
O51 C33_5 1_555 1_555
C34_5 C32_5 1_555 1_555
H12_5 C34_5 1_555 1_555
C35_5 C34_5 1_555 1_555
C36_5 C35_5 1_555 1_555
N4_5 C36_5 1_555 1_555
O35_5 Gd7 1_555 1_555
C79_5 O35_5 1_555 1_555
H39_5 C79_5 1_555 1_555
N11_5 C79_5 1_555 1_555
O39_5 Gd11 1_555 1_555
C91_5 O39_5 1_555 1_555
H67_5 C91_5 1_555 1_555
N15_5 C91_5 1_555 1_555
C92_5 N15_5 1_555 1_555
H68_5 C92_5 1_555 1_555
H69_5 C92_5 1_555 1_555
H70_5 C92_5 1_555 1_555
C93_5 N15_5 1_555 1_555
H71_5 C93_5 1_555 1_555
H72_5 C93_5 1_555 1_555
H73_5 C93_5 1_555 1_555
O42_5 Gd7 1_555 1_555
O56_3 Gd11 1_555 1_555
C2_5 O2_5 1_555 1_555
C7_5 C10_5 1_555 1_555
O42_5 H90_5 1_555 1_555
Gd10 O15_6 1_555 1_555
C20_6 C21_6 1_555 1_555
C21_6 O9_6 1_555 1_555
O9_6 Gd2_6 1_555 1_555
C22_6 C20_6 1_555 1_555
H8_6 C22_6 1_555 1_555
C23_6 C22_6 1_555 1_555
C24_6 C23_6 1_555 1_555
O49_2 C24_6 1_555 1_555
C28_6 C20_6 1_555 1_555
H10_6 C28_6 1_555 1_555
C29_6 C30_6 1_555 1_555
O14_6 Gd2_6 1_555 1_555
C31_6 C29_6 1_555 1_555
H11_6 C31_6 1_555 1_555
C32_6 C31_6 1_555 1_555
C33_6 C32_6 1_555 1_555
O15_6 C33_6 1_555 1_555
O51_2 C33_6 1_555 1_555
C34_6 C32_6 1_555 1_555
H12_6 C34_6 1_555 1_555
C38_6 C39_6 1_555 1_555
C39_6 O17_6 1_555 1_555
O17_6 Gd2_6 1_555 1_555
C40_6 C38_6 1_555 1_555
H14_6 C40_6 1_555 1_555
C41_6 C40_6 1_555 1_555
C42_6 C41_6 1_555 1_555
O52_4 C42_6 1_555 1_555
O53_4 C42_6 1_555 1_555
C43_6 C41_6 1_555 1_555
H15_6 C43_6 1_555 1_555
C44_6 C43_6 1_555 1_555
C45_6 C44_6 1_555 1_555
N5_6 C45_6 1_555 1_555
C46_6 C38_6 1_555 1_555
H16_6 C46_6 1_555 1_555
O36_6 Gd2_6 1_555 1_555
C82_6 O36_6 1_555 1_555
H46_6 C82_6 1_555 1_555
N12_6 C82_6 1_555 1_555
C83_5 N12_6 1_555 1_555
H47_5 C83_5 1_555 1_555
H48_5 C83_5 1_555 1_555
H49_5 C83_5 1_555 1_555
C84_6 N12_6 1_555 1_555
H50_6 C84_6 1_555 1_555
H51_6 C84_6 1_555 1_555
H52_6 C84_6 1_555 1_555
O39_6 Gd10 1_555 1_555
O40_6 Gd2_6 1_555 1_555
C94_6 O40_6 1_555 1_555
H74_6 C94_6 1_555 1_555
N16_6 C94_6 1_555 1_555
C95_6 N16_6 1_555 1_555
H75_6 C95_6 1_555 1_555
H76_6 C95_6 1_555 1_555
H77_6 C95_6 1_555 1_555
C96_6 N16_6 1_555 1_555
H78_6 C96_6 1_555 1_555
H79_6 C96_6 1_555 1_555
H80_6 C96_6 1_555 1_555
O56_4 Gd10 1_555 1_555
C21_6 O10_6 1_555 1_555
C30_6 O14_6 1_555 1_555
C39_6 O18_6 1_555 1_555
C44_6 C46_6 1_555 1_555
H9_6 C25_6 1_555 1_555
C26_6 C25_6 1_555 1_555
C27_6 C26_6 1_555 1_555
N3_6 C27_6 1_555 1_555
Gd7_2 O1_6 1_555 1_555
Gd3_6 O8_6 1_555 1_555
C1_6 C2_6 1_555 1_555
C2_6 O1_6 1_555 1_555
O2_6 Gd7_2 1_555 1_555
C3_6 C1_6 1_555 1_555
H1_6 C3_6 1_555 1_555
C4_6 C3_6 1_555 1_555
C5_6 C4_6 1_555 1_555
O47_3 C5_6 1_555 1_555
O48_3 C5_6 1_555 1_555
C6_6 C4_6 1_555 1_555
H2_6 C6_6 1_555 1_555
C7_6 C6_6 1_555 1_555
C8_6 C7_6 1_555 1_555
N1_6 C8_6 1_555 1_555
C9_6 H3_6 1_555 1_555
C10_6 C1_6 1_555 1_555
H4_6 C10_6 1_555 1_555
C11_6 C12_6 1_555 1_555
C12_6 O5_6 1_555 1_555
O5_6 Gd7_2 1_555 1_555
O6_6 C12_6 1_555 1_555
C13_6 C11_6 1_555 1_555
H5_6 C13_6 1_555 1_555
C14_6 C13_6 1_555 1_555
C15_6 C14_6 1_555 1_555
O7_6 C15_6 1_555 1_555
O8_6 C15_6 1_555 1_555
C16_6 C14_6 1_555 1_555
H6_6 C16_6 1_555 1_555
C17_6 C16_6 1_555 1_555
C18_6 C17_6 1_555 1_555
N2_6 C18_6 1_555 1_555
C19_6 C11_6 1_555 1_555
H7_6 C19_6 1_555 1_555
C36_6 C35_6 1_555 1_555
N4_6 C36_6 1_555 1_555
H13_6 C37_6 1_555 1_555
C48_6 O21_6 1_555 1_555
O21_6 Gd3_6 1_555 1_555
O22_6 Gd3_6 1_555 1_555
C56_6 C57_6 1_555 1_555
C57_6 O25_6 1_555 1_555
O25_6 Gd7_2 1_555 1_555
C58_6 C56_6 1_555 1_555
H20_6 C58_6 1_555 1_555
C59_6 C58_6 1_555 1_555
C60_6 C59_6 1_555 1_555
O55_3 C60_6 1_555 1_555
O28_4 C60_6 1_555 1_555
C61_6 C59_6 1_555 1_555
H21_6 C61_6 1_555 1_555
C65_6 C9_6 1_555 1_555
C66_6 C65_6 1_555 1_555
O30_6 Gd3_6 1_555 1_555
C67_6 C65_6 1_555 1_555
H23_6 C67_6 1_555 1_555
C68_6 C67_6 1_555 1_555
C69_6 C68_6 1_555 1_555
O57_2 C69_6 1_555 1_555
O58_2 C69_6 1_555 1_555
C70_6 C68_6 1_555 1_555
H24_6 C70_6 1_555 1_555
C71_6 C9_6 1_555 1_555
C72_6 C71_6 1_555 1_555
N8_6 C72_6 1_555 1_555
C77_6 N10_6 1_555 1_555
H33_6 C77_6 1_555 1_555
H35_6 C77_6 1_555 1_555
O35_6 Gd7_2 1_555 1_555
C79_6 O35_6 1_555 1_555
H39_6 C79_6 1_555 1_555
N11_6 C79_6 1_555 1_555
C80_6 N11_6 1_555 1_555
H40_6 C80_6 1_555 1_555
H41_6 C80_6 1_555 1_555
H42_6 C80_6 1_555 1_555
O37_6 Gd3_6 1_555 1_555
C85_6 O37_6 1_555 1_555
H53_6 C85_6 1_555 1_555
N13_6 C85_6 1_555 1_555
C86_6 N13_6 1_555 1_555
H54_6 C86_6 1_555 1_555
H55_6 C86_6 1_555 1_555
H56_6 C86_6 1_555 1_555
C87_6 N13_6 1_555 1_555
H57_6 C87_6 1_555 1_555
H58_6 C87_6 1_555 1_555
H59_6 C87_6 1_555 1_555
O38_6 Gd3_6 1_555 1_555
C88_6 O38_6 1_555 1_555
H60_6 C88_6 1_555 1_555
N14_6 C88_6 1_555 1_555
C89_6 N14_6 1_555 1_555
H61_6 C89_6 1_555 1_555
H62_6 C89_6 1_555 1_555
H63_6 C89_6 1_555 1_555
C90_6 N14_6 1_555 1_555
H64_6 C90_6 1_555 1_555
H65_6 C90_6 1_555 1_555
H66_6 C90_6 1_555 1_555
N15_6 C91_6 1_555 1_555
C92_6 N15_6 1_555 1_555
H68_6 C92_6 1_555 1_555
H69_6 C92_6 1_555 1_555
H70_6 C92_6 1_555 1_555
C93_6 N15_6 1_555 1_555
H71_6 C93_6 1_555 1_555
H72_6 C93_6 1_555 1_555
H73_6 C93_6 1_555 1_555
O42_6 Gd7_2 1_555 1_555
Gd12 O28_4 1_555 1_555
C2_6 O2_6 1_555 1_555
C7_6 C10_6 1_555 1_555
C17_6 C19_6 1_555 1_555
C35_6 C37_6 1_555 1_555
C48_6 O22_6 1_555 1_555
C66_6 O29_6 1_555 1_555
C66_6 O30_6 1_555 1_555
C70_6 C71_6 1_555 1_555
O42_6 H90_6 1_555 1_555
Gd13_2 O23_6 1_555 1_555
C49_6 C47_6 1_555 1_555
H17_6 C49_6 1_555 1_555
C50_6 C49_6 1_555 1_555
C51_6 C50_6 1_555 1_555
O23_6 C51_6 1_555 1_555
O54_2 C51_6 1_555 1_555
C52_6 C50_6 1_555 1_555
H18_6 C52_6 1_555 1_555
C53_6 C52_6 1_555 1_555
C54_6 C53_6 1_555 1_555
C55_6 C47_6 1_555 1_555
H19_6 C55_6 1_555 1_555
O26_6 Gd15_2 1_555 1_555
C63_6 C62_6 1_555 1_555
N7_6 C63_6 1_555 1_555
H22_6 C64_6 1_555 1_555
O33_6 Gd13_2 1_555 1_555
C73_6 O33_6 1_555 1_555
H25_6 C73_6 1_555 1_555
N9_6 C73_6 1_555 1_555
C74_6 N9_6 1_555 1_555
H26_6 C74_6 1_555 1_555
H27_6 C74_6 1_555 1_555
H28_6 C74_6 1_555 1_555
C75_6 N9_6 1_555 1_555
H29_6 C75_6 1_555 1_555
H30_6 C75_6 1_555 1_555
H31_6 C75_6 1_555 1_555
O34_6 Gd15_2 1_555 1_555
C76_6 O34_6 1_555 1_555
H36_6 C78_6 1_555 1_555
H37_6 C78_6 1_555 1_555
H43_6 C81_6 1_555 1_555
H44_6 C81_6 1_555 1_555
H45_6 C81_6 1_555 1_555
O41_6 Gd13_2 1_555 1_555
C97_6 O41_6 1_555 1_555
H81_6 C97_6 1_555 1_555
N17_6 C97_6 1_555 1_555
C98_6 N17_6 1_555 1_555
H82_6 C98_6 1_555 1_555
H83_6 C98_6 1_555 1_555
H84_6 C98_6 1_555 1_555
C99_6 N17_6 1_555 1_555
H85_6 C99_6 1_555 1_555
H86_6 C99_6 1_555 1_555
H87_6 C99_6 1_555 1_555
O43_6 Gd13_2 1_555 1_555
C100_6 O43_6 1_555 1_555
H88_6 C100_6 1_555 1_555
O44_6 Gd15_2 1_555 1_555
O45_6 Gd13_2 1_555 1_555
C101_6 O45_6 1_555 1_555
H89_6 C101_6 1_555 1_555
O46_6 Gd13_2 1_555 1_555
Gd15_2 O43_6 1_555 1_555
Gd15_2 O45_6 1_555 1_555
C53_6 C55_6 1_555 1_555
C62_6 C64_6 1_555 1_555
C100_6 O44_6 1_555 1_555
C101_6 O46_6 1_555 1_555
Gd8_2 O1_7 1_555 1_555
Gd2_7 O7_7 1_555 1_555
Gd3_7 O8_7 1_555 1_555
Gd12 O15_7 1_555 1_555
Gd14_2 O23_7 1_555 1_555
Gd16_2 O6_7 1_555 1_555
C1_7 C2_7 1_555 1_555
C2_7 O1_7 1_555 1_555
O2_7 Gd8_2 1_555 1_555
C3_7 C1_7 1_555 1_555
H1_7 C3_7 1_555 1_555
C4_7 C3_7 1_555 1_555
C5_7 C4_7 1_555 1_555
O47_2 C5_7 1_555 1_555
O48_2 C5_7 1_555 1_555
C6_7 C4_7 1_555 1_555
H2_7 C6_7 1_555 1_555
C7_7 C6_7 1_555 1_555
C8_7 C7_7 1_555 1_555
N1_7 C8_7 1_555 1_555
C9_7 H3_7 1_555 1_555
C10_7 C1_7 1_555 1_555
H4_7 C10_7 1_555 1_555
C11_7 C12_7 1_555 1_555
C12_7 O5_7 1_555 1_555
O5_7 Gd8_2 1_555 1_555
O6_7 C12_7 1_555 1_555
C13_7 C11_7 1_555 1_555
H5_7 C13_7 1_555 1_555
C14_7 C13_7 1_555 1_555
C15_7 C14_7 1_555 1_555
O7_7 C15_7 1_555 1_555
O8_7 C15_7 1_555 1_555
C16_7 C14_7 1_555 1_555
H6_7 C16_7 1_555 1_555
C17_7 C16_7 1_555 1_555
C18_7 C17_7 1_555 1_555
N2_7 C18_7 1_555 1_555
C19_7 C11_7 1_555 1_555
H7_7 C19_7 1_555 1_555
C20_7 C21_7 1_555 1_555
C21_7 O9_7 1_555 1_555
O9_7 Gd2_7 1_555 1_555
O10_7 Gd3_7 1_555 1_555
C22_7 C20_7 1_555 1_555
H8_7 C22_7 1_555 1_555
C23_7 C22_7 1_555 1_555
C24_7 C23_7 1_555 1_555
O49_3 C24_7 1_555 1_555
O50_3 C24_7 1_555 1_555
C25_7 C23_7 1_555 1_555
H9_7 C25_7 1_555 1_555
C26_7 C25_7 1_555 1_555
C27_7 C26_7 1_555 1_555
N3_7 C27_7 1_555 1_555
C28_7 C20_7 1_555 1_555
H10_7 C28_7 1_555 1_555
C29_7 C30_7 1_555 1_555
C30_7 O13_7 1_555 1_555
O13_7 Gd2_7 1_555 1_555
O14_7 Gd2_7 1_555 1_555
C31_7 C29_7 1_555 1_555
H11_7 C31_7 1_555 1_555
C32_7 C31_7 1_555 1_555
C33_7 C32_7 1_555 1_555
O15_7 C33_7 1_555 1_555
O51_3 C33_7 1_555 1_555
C34_7 C32_7 1_555 1_555
H12_7 C34_7 1_555 1_555
C35_7 C34_7 1_555 1_555
C36_7 C35_7 1_555 1_555
C37_7 C29_7 1_555 1_555
H13_7 C37_7 1_555 1_555
C38_7 C39_7 1_555 1_555
C39_7 O17_7 1_555 1_555
O17_7 Gd2_7 1_555 1_555
O18_7 Gd3_7 1_555 1_555
C40_7 C38_7 1_555 1_555
H14_7 C40_7 1_555 1_555
C41_7 C40_7 1_555 1_555
C42_7 C41_7 1_555 1_555
O52 C42_7 1_555 1_555
O53 C42_7 1_555 1_555
C43_7 C41_7 1_555 1_555
H15_7 C43_7 1_555 1_555
C44_7 C43_7 1_555 1_555
C45_7 C44_7 1_555 1_555
N5_7 C45_7 1_555 1_555
C46_7 C38_7 1_555 1_555
H16_7 C46_7 1_555 1_555
C47_7 C48_7 1_555 1_555
C48_7 O21_7 1_555 1_555
O21_7 Gd3_7 1_555 1_555
O22_7 Gd3_7 1_555 1_555
C49_7 C47_7 1_555 1_555
H17_7 C49_7 1_555 1_555
C50_7 C49_7 1_555 1_555
C51_7 C50_7 1_555 1_555
O23_7 C51_7 1_555 1_555
O54_3 C51_7 1_555 1_555
C52_7 C50_7 1_555 1_555
H18_7 C52_7 1_555 1_555
C53_7 C52_7 1_555 1_555
C54_7 C53_7 1_555 1_555
N6_7 C54_7 1_555 1_555
C55_7 C47_7 1_555 1_555
H19_7 C55_7 1_555 1_555
C56_7 C57_7 1_555 1_555
C57_7 O25_7 1_555 1_555
O25_7 Gd8_2 1_555 1_555
O26_7 Gd16_2 1_555 1_555
C58_7 C56_7 1_555 1_555
H20_7 C58_7 1_555 1_555
C59_7 C58_7 1_555 1_555
C60_7 C59_7 1_555 1_555
O55_2 C60_7 1_555 1_555
O56_4 C60_7 1_555 1_555
C61_7 C59_7 1_555 1_555
H21_7 C61_7 1_555 1_555
C62_7 C61_7 1_555 1_555
C63_7 C62_7 1_555 1_555
N7_7 C63_7 1_555 1_555
C64_7 C56_7 1_555 1_555
H22_7 C64_7 1_555 1_555
C65_7 C9_7 1_555 1_555
C66_7 C65_7 1_555 1_555
O29_7 Gd2_7 1_555 1_555
O30_7 Gd3_7 1_555 1_555
C67_7 C65_7 1_555 1_555
H23_7 C67_7 1_555 1_555
C68_7 C67_7 1_555 1_555
C70_7 C68_7 1_555 1_555
H24_7 C70_7 1_555 1_555
C71_7 C9_7 1_555 1_555
C72_7 C71_7 1_555 1_555
N8_7 C72_7 1_555 1_555
O33_7 Gd14_2 1_555 1_555
C73_7 O33_7 1_555 1_555
H25_7 C73_7 1_555 1_555
N9_7 C73_7 1_555 1_555
C74_7 N9_7 1_555 1_555
H26_7 C74_7 1_555 1_555
H27_7 C74_7 1_555 1_555
H28_7 C74_7 1_555 1_555
C75_7 N9_7 1_555 1_555
H29_7 C75_7 1_555 1_555
H30_7 C75_7 1_555 1_555
H31_7 C75_7 1_555 1_555
O34_7 Gd16_2 1_555 1_555
C76_7 O34_7 1_555 1_555
H32_7 C76_7 1_555 1_555
N10_7 C76_7 1_555 1_555
C77_7 N10_7 1_555 1_555
H33_7 C77_7 1_555 1_555
H34_7 C77_7 1_555 1_555
H35_7 C77_7 1_555 1_555
C78_7 N10_7 1_555 1_555
H36_7 C78_7 1_555 1_555
H37_7 C78_7 1_555 1_555
H38_7 C78_7 1_555 1_555
O35_7 Gd8_2 1_555 1_555
C79_7 O35_7 1_555 1_555
H39_7 C79_7 1_555 1_555
N11_7 C79_7 1_555 1_555
C80_7 N11_7 1_555 1_555
H40_7 C80_7 1_555 1_555
H41_7 C80_7 1_555 1_555
H42_7 C80_7 1_555 1_555
C81_7 N11_7 1_555 1_555
H43_7 C81_7 1_555 1_555
H44_7 C81_7 1_555 1_555
H45_7 C81_7 1_555 1_555
O36_7 Gd2_7 1_555 1_555
C82_7 O36_7 1_555 1_555
H46_7 C82_7 1_555 1_555
N12_7 C82_7 1_555 1_555
C84_7 N12_7 1_555 1_555
H50_7 C84_7 1_555 1_555
H51_7 C84_7 1_555 1_555
H52_7 C84_7 1_555 1_555
O37_7 Gd3_7 1_555 1_555
C85_7 O37_7 1_555 1_555
H53_7 C85_7 1_555 1_555
N13_7 C85_7 1_555 1_555
C86_7 N13_7 1_555 1_555
H54_7 C86_7 1_555 1_555
H55_7 C86_7 1_555 1_555
H56_7 C86_7 1_555 1_555
C87_7 N13_7 1_555 1_555
H57_7 C87_7 1_555 1_555
H58_7 C87_7 1_555 1_555
H59_7 C87_7 1_555 1_555
O38_7 Gd3_7 1_555 1_555
C88_7 O38_7 1_555 1_555
H60_7 C88_7 1_555 1_555
N14_7 C88_7 1_555 1_555
C89_7 N14_7 1_555 1_555
H61_7 C89_7 1_555 1_555
H62_7 C89_7 1_555 1_555
H63_7 C89_7 1_555 1_555
C90_7 N14_7 1_555 1_555
H64_7 C90_7 1_555 1_555
H65_7 C90_7 1_555 1_555
H66_7 C90_7 1_555 1_555
O39_7 Gd12 1_555 1_555
C91_7 O39_7 1_555 1_555
H67_7 C91_7 1_555 1_555
N15_7 C91_7 1_555 1_555
C92_7 N15_7 1_555 1_555
H68_7 C92_7 1_555 1_555
H69_7 C92_7 1_555 1_555
H70_7 C92_7 1_555 1_555
C93_7 N15_7 1_555 1_555
H71_7 C93_7 1_555 1_555
H72_7 C93_7 1_555 1_555
H73_7 C93_7 1_555 1_555
O40_7 Gd2_7 1_555 1_555
C94_7 O40_7 1_555 1_555
H74_7 C94_7 1_555 1_555
N16_7 C94_7 1_555 1_555
C95_7 N16_7 1_555 1_555
H75_7 C95_7 1_555 1_555
H76_7 C95_7 1_555 1_555
H77_7 C95_7 1_555 1_555
C96_7 N16_7 1_555 1_555
H78_7 C96_7 1_555 1_555
H79_7 C96_7 1_555 1_555
H80_7 C96_7 1_555 1_555
O41_7 Gd14_2 1_555 1_555
C97_7 O41_7 1_555 1_555
H81_7 C97_7 1_555 1_555
N17_7 C97_7 1_555 1_555
C98_7 N17_7 1_555 1_555
H82_7 C98_7 1_555 1_555
H83_7 C98_7 1_555 1_555
H84_7 C98_7 1_555 1_555
C99_7 N17_7 1_555 1_555
H85_7 C99_7 1_555 1_555
H86_7 C99_7 1_555 1_555
H87_7 C99_7 1_555 1_555
O42_7 Gd8_2 1_555 1_555
O43_7 Gd14_2 1_555 1_555
C100_7 O43_7 1_555 1_555
H88_7 C100_7 1_555 1_555
O44_7 Gd16_2 1_555 1_555
O45_7 Gd14_2 1_555 1_555
C101_7 O45_7 1_555 1_555
H89_7 C101_7 1_555 1_555
O46_7 Gd14_2 1_555 1_555
Gd16_2 O43_7 1_555 1_555
Gd16_2 O45_7 1_555 1_555
C2_7 O2_7 1_555 1_555
C7_7 C10_7 1_555 1_555
C17_7 C19_7 1_555 1_555
C21_7 O10_7 1_555 1_555
C26_7 C28_7 1_555 1_555
C30_7 O14_7 1_555 1_555
C35_7 C37_7 1_555 1_555
C39_7 O18_7 1_555 1_555
C44_7 C46_7 1_555 1_555
C48_7 O22_7 1_555 1_555
C53_7 C55_7 1_555 1_555
C57_7 O26_7 1_555 1_555
C62_7 C64_7 1_555 1_555
C66_7 O29_7 1_555 1_555
C66_7 O30_7 1_555 1_555
C70_7 C71_7 1_555 1_555
C100_7 O44_7 1_555 1_555
C101_7 O46_7 1_555 1_555
O42_7 H90_7 1_555 1_555
O42_7 H91_7 1_555 1_555
O57_3 C69_7 1_555 1_555
O58_3 C69_7 1_555 1_555
H47_6 C83_6 1_555 1_555
H48_6 C83_6 1_555 1_555
H49_6 C83_6 1_555 1_555
O57_4 C69_8 1_555 1_555
O58_4 C69_8 1_555 1_555
Gd8 O1_8 1_555 1_555
C1_8 C2_8 1_555 1_555
C2_8 O1_8 1_555 1_555
O2_8 Gd8 1_555 1_555
C3_8 C1_8 1_555 1_555
H1_8 C3_8 1_555 1_555
C4_8 C3_8 1_555 1_555
C5_8 C4_8 1_555 1_555
O47 C5_8 1_555 1_555
O48 C5_8 1_555 1_555
C6_8 C4_8 1_555 1_555
H2_8 C6_8 1_555 1_555
C7_8 C6_8 1_555 1_555
C8_8 C7_8 1_555 1_555
N1_8 C8_8 1_555 1_555
C10_8 C1_8 1_555 1_555
H4_8 C10_8 1_555 1_555
O5_8 Gd8 1_555 1_555
N2_8 C18_8 1_555 1_555
H7_8 C19_8 1_555 1_555
C36_8 C35_8 1_555 1_555
O35_8 Gd8 1_555 1_555
C79_8 O35_8 1_555 1_555
H39_8 C79_8 1_555 1_555
N11_8 C79_8 1_555 1_555
C81_8 N11_8 1_555 1_555
H43_8 C81_8 1_555 1_555
H45_8 C81_8 1_555 1_555
N15_8 C91_8 1_555 1_555
C92_8 N15_8 1_555 1_555
H68_8 C92_8 1_555 1_555
H69_8 C92_8 1_555 1_555
H70_8 C92_8 1_555 1_555
C93_8 N15_8 1_555 1_555
H71_8 C93_8 1_555 1_555
H72_8 C93_8 1_555 1_555
H73_8 C93_8 1_555 1_555
O42_8 Gd8 1_555 1_555
C2_8 O2_8 1_555 1_555
C7_8 C10_8 1_555 1_555
O42_8 H90_8 1_555 1_555
O42_8 H91_8 1_555 1_555
Gd3_8 O8_8 1_555 1_555
Gd14 O23_8 1_555 1_555
Gd16 O6_8 1_555 1_555
C9_8 H3_8 1_555 1_555
C11_8 C12_8 1_555 1_555
O6_8 C12_8 1_555 1_555
C13_8 C11_8 1_555 1_555
H5_8 C13_8 1_555 1_555
C14_8 C13_8 1_555 1_555
C15_8 C14_8 1_555 1_555
O7_8 C15_8 1_555 1_555
O8_8 C15_8 1_555 1_555
C16_8 C14_8 1_555 1_555
H6_8 C16_8 1_555 1_555
C17_8 C16_8 1_555 1_555
H13_8 C37_8 1_555 1_555
C47_8 C48_8 1_555 1_555
C48_8 O21_8 1_555 1_555
O21_8 Gd3_8 1_555 1_555
O22_8 Gd3_8 1_555 1_555
C49_8 C47_8 1_555 1_555
H17_8 C49_8 1_555 1_555
C50_8 C49_8 1_555 1_555
C51_8 C50_8 1_555 1_555
O23_8 C51_8 1_555 1_555
O54_4 C51_8 1_555 1_555
C52_8 C50_8 1_555 1_555
H18_8 C52_8 1_555 1_555
C53_8 C52_8 1_555 1_555
C54_8 C53_8 1_555 1_555
C55_8 C47_8 1_555 1_555
H19_8 C55_8 1_555 1_555
C56_8 C57_8 1_555 1_555
C57_8 O25_8 1_555 1_555
O26_8 Gd16 1_555 1_555
C58_8 C56_8 1_555 1_555
H20_8 C58_8 1_555 1_555
C59_8 C58_8 1_555 1_555
C60_8 C59_8 1_555 1_555
O55 C60_8 1_555 1_555
O56_3 C60_8 1_555 1_555
C61_8 C59_8 1_555 1_555
H21_8 C61_8 1_555 1_555
C62_8 C61_8 1_555 1_555
C63_8 C62_8 1_555 1_555
N7_8 C63_8 1_555 1_555
C64_8 C56_8 1_555 1_555
H22_8 C64_8 1_555 1_555
C65_8 C9_8 1_555 1_555
C66_8 C65_8 1_555 1_555
O30_8 Gd3_8 1_555 1_555
C67_8 C65_8 1_555 1_555
H23_8 C67_8 1_555 1_555
C68_8 C67_8 1_555 1_555
C70_8 C68_8 1_555 1_555
H24_8 C70_8 1_555 1_555
C71_8 C9_8 1_555 1_555
C72_8 C71_8 1_555 1_555
N8_8 C72_8 1_555 1_555
O33_8 Gd14 1_555 1_555
C73_8 O33_8 1_555 1_555
H25_8 C73_8 1_555 1_555
N9_8 C73_8 1_555 1_555
C74_8 N9_8 1_555 1_555
H26_8 C74_8 1_555 1_555
H27_8 C74_8 1_555 1_555
H28_8 C74_8 1_555 1_555
C75_8 N9_8 1_555 1_555
H29_8 C75_8 1_555 1_555
H30_8 C75_8 1_555 1_555
H31_8 C75_8 1_555 1_555
O34_8 Gd16 1_555 1_555
C76_8 O34_8 1_555 1_555
H32_8 C76_8 1_555 1_555
N10_8 C76_8 1_555 1_555
C77_8 N10_8 1_555 1_555
H33_8 C77_8 1_555 1_555
H35_8 C77_8 1_555 1_555
C78_8 N10_8 1_555 1_555
H36_8 C78_8 1_555 1_555
H37_8 C78_8 1_555 1_555
H38_8 C78_8 1_555 1_555
H41_8 C80_8 1_555 1_555
H42_8 C80_8 1_555 1_555
O37_8 Gd3_8 1_555 1_555
C85_8 O37_8 1_555 1_555
H53_8 C85_8 1_555 1_555
N13_8 C85_8 1_555 1_555
C86_8 N13_8 1_555 1_555
H54_8 C86_8 1_555 1_555
H55_8 C86_8 1_555 1_555
H56_8 C86_8 1_555 1_555
C87_8 N13_8 1_555 1_555
H57_8 C87_8 1_555 1_555
H58_8 C87_8 1_555 1_555
H59_8 C87_8 1_555 1_555
O38_8 Gd3_8 1_555 1_555
C88_8 O38_8 1_555 1_555
H60_8 C88_8 1_555 1_555
N14_8 C88_8 1_555 1_555
C89_8 N14_8 1_555 1_555
H61_8 C89_8 1_555 1_555
H62_8 C89_8 1_555 1_555
H63_8 C89_8 1_555 1_555
C90_8 N14_8 1_555 1_555
H64_8 C90_8 1_555 1_555
H65_8 C90_8 1_555 1_555
H66_8 C90_8 1_555 1_555
O41_8 Gd14 1_555 1_555
C97_8 O41_8 1_555 1_555
H81_8 C97_8 1_555 1_555
N17_8 C97_8 1_555 1_555
C98_8 N17_8 1_555 1_555
H82_8 C98_8 1_555 1_555
H83_8 C98_8 1_555 1_555
H84_8 C98_8 1_555 1_555
C99_8 N17_8 1_555 1_555
H85_8 C99_8 1_555 1_555
H86_8 C99_8 1_555 1_555
H87_8 C99_8 1_555 1_555
O43_8 Gd14 1_555 1_555
C100_8 O43_8 1_555 1_555
H88_8 C100_8 1_555 1_555
O44_8 Gd16 1_555 1_555
O45_8 Gd14 1_555 1_555
C101_8 O45_8 1_555 1_555
O46_8 Gd14 1_555 1_555
Gd16 O43_8 1_555 1_555
Gd16 O45_8 1_555 1_555
C48_8 O22_8 1_555 1_555
C53_8 C55_8 1_555 1_555
C57_8 O26_8 1_555 1_555
C62_8 C64_8 1_555 1_555
C66_8 O29_8 1_555 1_555
C66_8 O30_8 1_555 1_555
C70_8 C71_8 1_555 1_555
C100_8 O44_8 1_555 1_555
C101_8 O46_8 1_555 1_555
Gd12_2 O15_8 1_555 1_555
H11_8 C31_8 1_555 1_555
C32_8 C31_8 1_555 1_555
C33_8 C32_8 1_555 1_555
O15_8 C33_8 1_555 1_555
O51_4 C33_8 1_555 1_555
C34_8 C32_8 1_555 1_555
H12_8 C34_8 1_555 1_555
O39_8 Gd12_2 1_555 1_555
C20_8 C21_8 1_555 1_555
C21_8 O9_8 1_555 1_555
O9_8 Gd2_8 1_555 1_555
C22_8 C20_8 1_555 1_555
H8_8 C22_8 1_555 1_555
C23_8 C22_8 1_555 1_555
C24_8 C23_8 1_555 1_555
O49_4 C24_8 1_555 1_555
O50_4 C24_8 1_555 1_555
C25_8 C23_8 1_555 1_555
H9_8 C25_8 1_555 1_555
C26_8 C25_8 1_555 1_555
C27_8 C26_8 1_555 1_555
N3_8 C27_8 1_555 1_555
C28_8 C20_8 1_555 1_555
H10_8 C28_8 1_555 1_555
C29_8 C30_8 1_555 1_555
O14_8 Gd2_8 1_555 1_555
C38_8 C39_8 1_555 1_555
C39_8 O17_8 1_555 1_555
O17_8 Gd2_8 1_555 1_555
C40_8 C38_8 1_555 1_555
H14_8 C40_8 1_555 1_555
C41_8 C40_8 1_555 1_555
C42_8 C41_8 1_555 1_555
O52_2 C42_8 1_555 1_555
O53_2 C42_8 1_555 1_555
C43_8 C41_8 1_555 1_555
H15_8 C43_8 1_555 1_555
C44_8 C43_8 1_555 1_555
C45_8 C44_8 1_555 1_555
N5_8 C45_8 1_555 1_555
C46_8 C38_8 1_555 1_555
H16_8 C46_8 1_555 1_555
O36_8 Gd2_8 1_555 1_555
C82_8 O36_8 1_555 1_555
H46_8 C82_8 1_555 1_555
N12_8 C82_8 1_555 1_555
C84_8 N12_8 1_555 1_555
H50_8 C84_8 1_555 1_555
H51_8 C84_8 1_555 1_555
H52_8 C84_8 1_555 1_555
O40_8 Gd2_8 1_555 1_555
C94_8 O40_8 1_555 1_555
H74_8 C94_8 1_555 1_555
N16_8 C94_8 1_555 1_555
C95_8 N16_8 1_555 1_555
H75_8 C95_8 1_555 1_555
H76_8 C95_8 1_555 1_555
H77_8 C95_8 1_555 1_555
C96_8 N16_8 1_555 1_555
H78_8 C96_8 1_555 1_555
H79_8 C96_8 1_555 1_555
H80_8 C96_8 1_555 1_555
C21_8 O10_8 1_555 1_555
C26_8 C28_8 1_555 1_555
C30_8 O14_8 1_555 1_555
C39_8 O18_8 1_555 1_555
C44_8 C46_8 1_555 1_555
H47_7 C83_7 1_555 1_555
H48_7 C83_7 1_555 1_555
H49_7 C83_7 1_555 1_555
H47_8 C83_8 1_555 1_555
H48_8 C83_8 1_555 1_555
H49_8 C83_8 1_555 1_555

#END
