
###############################################################################
#
# This file contains modified crystal structure data generated from the
# MOF subset of the Cambridge Structural Database (CSD) v543 
# hosted by the Cambridge Crystallographic Data Centre (CCDC).
#
# This work is licensed under the Creative Commons
# Attribution-NonCommercial-ShareAlike 4.0 International License.
# To view a copy of this license, visit
# http://creativecommons.org/licenses/by-nc-sa/4.0/
# or send a letter to
# Creative Commons, PO Box 1866, Mountain View, CA 94042, USA.
#
# CIF created using the CSD Python API on 29 September 2022
# The structure has been converted into the P1 space group
# The structure has a 3D framework
# The original CSD entry DAMDUT is in the orthorhombic crystal system
# The framework has been calculated to contain at least 10.0% void space
# The void calculation uses a probe of radius 1.32A, grid spacing 0.4
#
###############################################################################

data_DAMDUT
_chemical_formula_moiety         '(C288 H192 I48 N96 Zn24)n'
_symmetry_cell_setting           triclinic
_symmetry_space_group_name_H-M   'P 1'
_symmetry_Int_Tables_number      1
_space_group_name_Hall           'P 1'
loop_
_symmetry_equiv_pos_site_id
_symmetry_equiv_pos_as_xyz
1 x,y,z
_cell_length_a                   28.0724(2)
_cell_length_b                   14.00074(9)
_cell_length_c                   44.7159(3)
_cell_angle_alpha                90
_cell_angle_beta                 90
_cell_angle_gamma                90
_cell_volume                     17574.9
loop_
_atom_site_label
_atom_site_type_symbol
_atom_site_fract_x
_atom_site_fract_y
_atom_site_fract_z
I5 I 0.44196(3) 0.31918(4) 0.58343(2)
I6 I 0.51462(2) 0.05536(5) 0.61641(2)
Zn3 Zn 0.45002(3) 0.13820(7) 0.58689(2)
N2 N 0.3859(2) 0.0949(4) 0.60540(11)
N3 N 0.0414(2) 0.0849(4) 0.60711(12)
N4 N 0.25743(19) 0.0243(3) 0.67933(10)
N5 N 0.1740(2) 0.0196(3) 0.68089(11)
N6 N 0.21355(19) 0.0624(3) 0.63608(11)
N7 N 0.44581(19) 0.0805(4) 0.54458(11)
N9 N 0.3004(2) 0.0939(4) 0.35082(11)
H3 H 0.2894 0.0052 0.7296
C6 C 0.2158(2) 0.0097(4) 0.69293(13)
C7 C 0.1743(2) 0.0465(4) 0.65206(13)
C8 C 0.2543(2) 0.0491(4) 0.65055(13)
C9 C 0.1281(2) 0.0585(4) 0.63677(14)
C10 C 0.0855(3) 0.0483(5) 0.65141(16)
H5 H 0.0848 0.0319 0.6720
C11 C 0.0435(3) 0.0622(6) 0.63592(16)
H6 H 0.0144 0.0551 0.6465
C12 C 0.0832(2) 0.0928(5) 0.59278(16)
H7 H 0.0827 0.1075 0.5720
C13 C 0.1263(3) 0.0811(5) 0.60628(14)
H8 H 0.1549 0.0881 0.5951
C14 C 0.2997(2) 0.0640(4) 0.63445(12)
C15 C 0.3006(3) 0.0943(5) 0.60500(15)
H9 H 0.2719 0.1051 0.5943
C16 C 0.3448(3) 0.1088(6) 0.59134(15)
H10 H 0.3454 0.1296 0.5711
C17 C 0.3843(3) 0.0641(5) 0.63388(15)
H11 H 0.4135 0.0530 0.6441
C18 C 0.3430(3) 0.0483(5) 0.64874(14)
H12 H 0.3436 0.0266 0.6689
C19 C 0.4281(3) 0.1291(5) 0.52159(15)
H13 H 0.4226 0.1956 0.5239
C20 C 0.4176(3) 0.0872(5) 0.49459(15)
H14 H 0.4054 0.1242 0.4785
C33 C 0.3462(3) 0.0900(5) 0.39558(18)
H21 H 0.3615 0.1242 0.4112
C34 C 0.3231(3) 0.1385(5) 0.37270(16)
H22 H 0.3235 0.2064 0.3728
C35 C 0.3016(3) 0.0009(5) 0.35050(16)
Zn4 Zn 0.26185(3) 0.17355(6) 0.32081(2)
I1 I 0.30152(2) 0.33590(4) 0.31559(2)
I2 I 0.17404(2) 0.17218(6) 0.33457(2)
N1 N 0.2709(2) 0.1003(4) 0.28160(11)
C1 C 0.3129(3) 0.1022(6) 0.26721(15)
H1 H 0.3394 0.1307 0.2769
C2 C 0.3190(3) 0.0646(5) 0.23903(15)
H2 H 0.3494 0.0656 0.2297
C3 C 0.2799(2) 0.0252(4) 0.22458(13)
C4 C 0.2376(2) 0.0222(5) 0.23905(14)
C5 C 0.2338(2) 0.0593(4) 0.26785(14)
H4 H 0.2041 0.0556 0.2780
C22 C 0.0552(3) 0.0593(5) 0.01468(14)
H15 H 0.0481 0.1253 0.0127
C23 C 0.0455(3) 0.0124(5) 0.04122(14)
H16 H 0.0323 0.0473 0.0575
I1_2 I 0.19848(2) 0.66410(4) 0.81559(2)
I2_2 I 0.32596(2) 0.82782(6) 0.83457(2)
I3 I 0.42567(3) 0.30643(5) 0.37482(2)
I4 I 0.49551(2) 0.30448(4) 0.46362(2)
Zn1 Zn 0.23815(3) 0.82645(6) 0.82081(2)
Zn2 Zn 0.47724(3) 0.38529(6) 0.41372(2)
N1_2 N 0.2291(2) 0.8997(4) 0.78160(11)
N8 N 0.4490(2) 0.5180(4) 0.42261(12)
N10 N 0.4218(2) 0.8472(4) 0.46103(11)
N11 N 0.3783(2) 0.8468(4) 0.41542(12)
N12 N 0.3867(2) 0.9904(4) 0.44279(11)
C1_2 C 0.1871(3) 0.8978(6) 0.76721(15)
H1_2 H 0.1606 0.8693 0.7769
C2_2 C 0.1810(3) 0.9354(5) 0.73903(15)
H2_2 H 0.1506 0.9344 0.7297
C3_2 C 0.2201(2) 0.9748(4) 0.72458(13)
C4_2 C 0.2624(2) 0.9778(5) 0.73905(14)
C5_2 C 0.2662(2) 0.9407(4) 0.76785(14)
H4_2 H 0.2959 0.9444 0.7780
C21 C 0.4250(2) 0.9902(5) 0.49124(14)
C22_2 C 0.4448(3) 0.9407(5) 0.51468(14)
H15_2 H 0.4519 0.8747 0.5127
C23_2 C 0.4545(3) 0.9876(5) 0.54122(14)
H16_2 H 0.4677 0.9527 0.5575
C24 C 0.4104(2) 0.9396(4) 0.46339(13)
C25 C 0.3718(2) 0.9392(5) 0.41972(13)
C26 C 0.4052(2) 0.8043(4) 0.43686(13)
C27 C 0.4540(3) 0.5602(5) 0.44913(15)
H17 H 0.4686 0.5250 0.4648
C28 C 0.4392(3) 0.6517(5) 0.45508(15)
H18 H 0.4429 0.6783 0.4745
C29 C 0.4188(2) 0.7043(5) 0.43222(14)
C30 C 0.4118(3) 0.6591(5) 0.40510(15)
H19 H 0.3963 0.6919 0.3892
C31 C 0.4269(3) 0.5676(5) 0.40115(16)
H20 H 0.4216 0.5378 0.3824
C32 C 0.3467(2) 0.9933(5) 0.39526(14)
H23 H 0.2855 0.9683 0.3348
C36 C 0.3252(3) 0.9472(5) 0.37194(17)
H24 H 0.3265 0.8795 0.3704
N13 N 0.5414(2) 0.4151(4) 0.39289(12)
N14 N 0.1996(2) 0.9061(4) 0.85082(11)
C20_2 C 0.0824(3) 0.9128(5) 0.99459(15)
H14_2 H 0.0946 0.8758 0.9785
C33_2 C 0.1538(3) 0.9100(5) 0.89558(18)
H21_2 H 0.1385 0.8758 0.9112
C34_2 C 0.1769(3) 0.8615(5) 0.87270(16)
H22_2 H 0.1765 0.7936 0.8728
C35_2 C 0.1984(3) 0.9991(5) 0.85050(16)
N13_2 N 0.9586(2) 0.5849(4) 0.89289(12)
I1_3 I 0.69848(2) 0.83590(4) 0.18441(2)
I2_3 I 0.82596(2) 0.67218(6) 0.16543(2)
I5_2 I 0.94196(3) 0.18082(4) 0.41657(2)
Zn1_2 Zn 0.73815(3) 0.67355(6) 0.17919(2)
Zn3_2 Zn 0.95002(3) 0.36180(7) 0.41311(2)
N1_3 N 0.7291(2) 0.6003(4) 0.21840(11)
N2_2 N 0.8859(2) 0.4051(4) 0.39460(11)
N4_2 N 0.75743(19) 0.4757(3) 0.32067(10)
N5_2 N 0.6740(2) 0.4804(3) 0.31911(11)
N6_2 N 0.71355(19) 0.4376(3) 0.36392(11)
N7_2 N 0.94581(19) 0.4195(4) 0.45542(11)
N8_2 N 0.9490(2) 0.9820(4) 0.57739(12)
N9_2 N 0.8004(2) 0.4061(4) 0.64918(11)
N10_2 N 0.9218(2) 0.6528(4) 0.53897(11)
N11_2 N 0.8783(2) 0.6532(4) 0.58458(12)
N12_2 N 0.8867(2) 0.5096(4) 0.55721(11)
C1_3 C 0.6871(3) 0.6022(6) 0.23279(15)
H1_3 H 0.6606 0.6307 0.2231
C2_3 C 0.6810(3) 0.5646(5) 0.26097(15)
H2_3 H 0.6506 0.5656 0.2703
C3_3 C 0.7201(2) 0.5252(4) 0.27542(13)
C4_3 C 0.7624(2) 0.5222(5) 0.26095(14)
H3_2 H 0.7894 0.4948 0.2704
C5_3 C 0.7662(2) 0.5593(4) 0.23215(14)
H4_3 H 0.7959 0.5556 0.2220
C6_2 C 0.7158(2) 0.4903(4) 0.30707(13)
C7_2 C 0.6743(2) 0.4535(4) 0.34794(13)
C8_2 C 0.7543(2) 0.4509(4) 0.34945(13)
C9_2 C 0.6281(2) 0.4415(4) 0.36323(14)
C10_2 C 0.5855(3) 0.4517(5) 0.34859(16)
H5_2 H 0.5848 0.4681 0.3280
C11_2 C 0.5435(3) 0.4378(6) 0.36408(16)
H6_2 H 0.5144 0.4449 0.3535
C12_2 C 0.5832(2) 0.4072(5) 0.40722(16)
H7_2 H 0.5827 0.3925 0.4280
C13_2 C 0.6263(3) 0.4189(5) 0.39372(14)
H8_2 H 0.6549 0.4119 0.4049
C14_2 C 0.7997(2) 0.4360(4) 0.36555(12)
C15_2 C 0.8006(3) 0.4057(5) 0.39500(15)
H9_2 H 0.7719 0.3949 0.4057
C16_2 C 0.8448(3) 0.3912(6) 0.40866(15)
H10_2 H 0.8454 0.3704 0.4289
C17_2 C 0.8843(3) 0.4359(5) 0.36612(15)
H11_2 H 0.9135 0.4470 0.3559
C18_2 C 0.8430(3) 0.4517(5) 0.35126(14)
H12_2 H 0.8436 0.4734 0.3311
C19_2 C 0.9281(3) 0.3709(5) 0.47841(15)
H13_2 H 0.9226 0.3044 0.4761
C20_3 C 0.9176(3) 0.4128(5) 0.50541(15)
H14_3 H 0.9054 0.3758 0.5215
C21_2 C 0.9250(2) 0.5098(5) 0.50876(14)
C22_3 C 0.9448(3) 0.5593(5) 0.48532(14)
H15_3 H 0.9519 0.6253 0.4873
C23_3 C 0.9545(3) 0.5124(5) 0.45878(14)
H16_3 H 0.9677 0.5473 0.4425
C24_2 C 0.9104(2) 0.5604(4) 0.53661(13)
C25_2 C 0.8718(2) 0.5608(5) 0.58028(13)
C26_2 C 0.9052(2) 0.6957(4) 0.56314(13)
C27_2 C 0.9540(3) 0.9398(5) 0.55087(15)
H17_2 H 0.9686 0.9750 0.5352
C28_2 C 0.9392(3) 0.8483(5) 0.54492(15)
H18_2 H 0.9429 0.8217 0.5255
C29_2 C 0.9188(2) 0.7957(5) 0.56778(14)
C30_2 C 0.9118(3) 0.8409(5) 0.59490(15)
H19_2 H 0.8963 0.8081 0.6108
C31_2 C 0.9269(3) 0.9324(5) 0.59885(16)
H20_2 H 0.9216 0.9622 0.6176
C32_2 C 0.8467(2) 0.5067(5) 0.60474(14)
C33_3 C 0.8462(3) 0.4100(5) 0.60442(18)
H21_3 H 0.8615 0.3758 0.5888
C34_3 C 0.8231(3) 0.3615(5) 0.62730(16)
H22_3 H 0.8235 0.2936 0.6272
C35_3 C 0.8016(3) 0.4991(5) 0.64950(16)
H23_2 H 0.7855 0.5317 0.6652
C36_2 C 0.8252(3) 0.5528(5) 0.62806(17)
H24_2 H 0.8265 0.6205 0.6296
Zn4_2 Zn 0.76185(3) 0.32645(6) 0.67919(2)
N14_2 N 0.6996(2) 0.5939(4) 0.14918(11)
N8_3 N 0.5510(2) 0.0180(4) 0.07739(12)
N10_3 N 0.5782(2) 0.3472(4) 0.03897(11)
N11_3 N 0.6217(2) 0.3468(4) 0.08458(12)
N12_3 N 0.6133(2) 0.4904(4) 0.05721(11)
C20_4 C 0.5824(3) 0.5872(5) 0.00541(15)
H14_4 H 0.5946 0.6242 0.0215
C21_3 C 0.5750(2) 0.4902(5) 0.00876(14)
C24_3 C 0.5896(2) 0.4396(4) 0.03661(13)
C25_3 C 0.6282(2) 0.4392(5) 0.08028(13)
C26_3 C 0.5948(2) 0.3043(4) 0.06314(13)
C27_3 C 0.5460(3) 0.0602(5) 0.05087(15)
H17_3 H 0.5314 0.0250 0.0352
C28_3 C 0.5608(3) 0.1517(5) 0.04492(15)
H18_3 H 0.5571 0.1783 0.0255
C29_3 C 0.5812(2) 0.2043(5) 0.06778(14)
C30_3 C 0.5882(3) 0.1591(5) 0.09490(15)
H19_3 H 0.6037 0.1919 0.1108
C31_3 C 0.5731(3) 0.0676(5) 0.09885(16)
H20_3 H 0.5784 0.0378 0.1176
C32_3 C 0.6533(2) 0.4933(5) 0.10474(14)
C33_4 C 0.6538(3) 0.5900(5) 0.10442(18)
H21_4 H 0.6385 0.6242 0.0888
C34_4 C 0.6769(3) 0.6385(5) 0.12730(16)
H22_4 H 0.6765 0.7064 0.1272
C35_4 C 0.6984(3) 0.5009(5) 0.14950(16)
H23_3 H 0.7145 0.4683 0.1652
C36_3 C 0.6748(3) 0.4472(5) 0.12806(17)
H24_3 H 0.6735 0.3795 0.1296
I1_4 I 0.80152(2) 0.16410(4) 0.68441(2)
I2_4 I 0.67404(2) 0.32782(6) 0.66543(2)
I5_3 I 0.55804(3) 0.81918(4) 0.91657(2)
I6_2 I 0.48538(2) 0.55536(5) 0.88359(2)
Zn3_3 Zn 0.54998(3) 0.63820(7) 0.91311(2)
N1_4 N 0.7709(2) 0.3997(4) 0.71840(11)
N2_3 N 0.6141(2) 0.5949(4) 0.89460(11)
N4_3 N 0.74257(19) 0.5243(3) 0.82067(10)
N5_3 N 0.8260(2) 0.5196(3) 0.81911(11)
N6_3 N 0.78645(19) 0.5624(3) 0.86392(11)
N7_3 N 0.55419(19) 0.5805(4) 0.95542(11)
C1_4 C 0.8129(3) 0.3978(6) 0.73279(15)
H1_4 H 0.8394 0.3693 0.7231
C2_4 C 0.8190(3) 0.4354(5) 0.76097(15)
H2_4 H 0.8494 0.4344 0.7703
C3_4 C 0.7799(2) 0.4748(4) 0.77542(13)
C4_4 C 0.7376(2) 0.4778(5) 0.76095(14)
H3_3 H 0.7106 0.5052 0.7704
C5_4 C 0.7338(2) 0.4407(4) 0.73215(14)
H4_4 H 0.7041 0.4444 0.7220
C6_3 C 0.7842(2) 0.5097(4) 0.80707(13)
C7_3 C 0.8257(2) 0.5465(4) 0.84794(13)
C8_3 C 0.7457(2) 0.5491(4) 0.84945(13)
C9_3 C 0.8719(2) 0.5585(4) 0.86323(14)
C10_3 C 0.9145(3) 0.5483(5) 0.84859(16)
H5_3 H 0.9152 0.5319 0.8280
C11_3 C 0.9565(3) 0.5622(6) 0.86408(16)
H6_3 H 0.9856 0.5551 0.8535
C12_3 C 0.9168(2) 0.5928(5) 0.90722(16)
H7_3 H 0.9173 0.6075 0.9280
C13_3 C 0.8737(3) 0.5811(5) 0.89372(14)
H8_3 H 0.8451 0.5881 0.9049
C14_3 C 0.7003(2) 0.5640(4) 0.86555(12)
C15_3 C 0.6994(3) 0.5943(5) 0.89500(15)
H9_3 H 0.7281 0.6051 0.9057
C16_3 C 0.6552(3) 0.6088(6) 0.90866(15)
H10_3 H 0.6546 0.6296 0.9289
C17_3 C 0.6157(3) 0.5641(5) 0.86612(15)
H11_3 H 0.5865 0.5530 0.8559
C18_3 C 0.6570(3) 0.5483(5) 0.85126(14)
H12_3 H 0.6564 0.5266 0.8311
C19_3 C 0.5719(3) 0.6291(5) 0.97841(15)
H13_3 H 0.5774 0.6956 0.9761
C22_4 C 0.5552(3) 0.4407(5) 0.98532(14)
H15_4 H 0.5481 0.3747 0.9873
C23_4 C 0.5455(3) 0.4876(5) 0.95878(14)
H16_4 H 0.5323 0.4527 0.9425
Zn5 Zn 0.97724(3) 0.11471(6) 0.58628(2)
I3_2 I 0.92567(3) 0.19357(5) 0.62518(2)
I4_2 I 0.99551(2) 0.19552(4) 0.53638(2)
I3_3 I 0.07433(3) 0.69357(5) 0.87482(2)
I4_3 I 0.00449(2) 0.69552(4) 0.96362(2)
Zn2_2 Zn 0.02276(3) 0.61471(6) 0.91372(2)
N8_4 N 0.0510(2) 0.4820(4) 0.92261(12)
N10_4 N 0.0782(2) 0.1528(4) 0.96103(11)
N11_4 N 0.1217(2) 0.1532(4) 0.91542(12)
N12_4 N 0.1133(2) 0.0096(4) 0.94279(11)
C21_4 C 0.0750(2) 0.0098(5) 0.99124(14)
C24_4 C 0.0896(2) 0.0604(4) 0.96339(13)
C25_4 C 0.1282(2) 0.0608(5) 0.91972(13)
C26_4 C 0.0948(2) 0.1957(4) 0.93686(13)
C27_4 C 0.0460(3) 0.4398(5) 0.94913(15)
H17_4 H 0.0314 0.4750 0.9648
C28_4 C 0.0608(3) 0.3483(5) 0.95508(15)
H18_4 H 0.0571 0.3217 0.9745
C29_4 C 0.0812(2) 0.2957(5) 0.93222(14)
C30_4 C 0.0882(3) 0.3409(5) 0.90510(15)
H19_4 H 0.1037 0.3081 0.8892
C31_4 C 0.0731(3) 0.4324(5) 0.90115(16)
H20_4 H 0.0784 0.4622 0.8824
C32_4 C 0.1533(2) 0.0067(5) 0.89526(14)
H23_4 H 0.2145 0.0317 0.8348
C36_4 C 0.1748(3) 0.0528(5) 0.87194(17)
H24_4 H 0.1735 0.1205 0.8704
I5_4 I 0.05804(3) 0.68082(4) 0.08343(2)
Zn3_4 Zn 0.04998(3) 0.86180(7) 0.08689(2)
N2_4 N 0.1141(2) 0.9051(4) 0.10540(11)
N3_2 N 0.4586(2) 0.9151(4) 0.10711(12)
N4_4 N 0.24257(19) 0.9757(3) 0.17933(10)
N5_4 N 0.3260(2) 0.9804(3) 0.18089(11)
N6_4 N 0.28645(19) 0.9376(3) 0.13608(11)
N7_4 N 0.05419(19) 0.9195(4) 0.04458(11)
H3_4 H 0.2106 0.9948 0.2296
C6_4 C 0.2842(2) 0.9903(4) 0.19293(13)
C7_4 C 0.3257(2) 0.9535(4) 0.15206(13)
C8_4 C 0.2457(2) 0.9509(4) 0.15055(13)
C9_4 C 0.3719(2) 0.9415(4) 0.13677(14)
C10_4 C 0.4145(3) 0.9517(5) 0.15141(16)
H5_4 H 0.4152 0.9681 0.1720
C11_4 C 0.4565(3) 0.9378(6) 0.13592(16)
H6_4 H 0.4856 0.9449 0.1465
C12_4 C 0.4168(2) 0.9072(5) 0.09278(16)
H7_4 H 0.4173 0.8925 0.0720
C13_4 C 0.3737(3) 0.9189(5) 0.10628(14)
H8_4 H 0.3451 0.9119 0.0951
C14_4 C 0.2003(2) 0.9360(4) 0.13445(12)
C15_4 C 0.1994(3) 0.9057(5) 0.10500(15)
H9_4 H 0.2281 0.8949 0.0943
C16_4 C 0.1552(3) 0.8912(6) 0.09134(15)
H10_4 H 0.1546 0.8704 0.0711
C17_4 C 0.1157(3) 0.9359(5) 0.13388(15)
H11_4 H 0.0865 0.9470 0.1441
C18_4 C 0.1570(3) 0.9517(5) 0.14874(14)
H12_4 H 0.1564 0.9734 0.1689
C19_4 C 0.0719(3) 0.8709(5) 0.02159(15)
H13_4 H 0.0774 0.8044 0.0239
Zn5_2 Zn 0.52276(3) 0.88529(6) 0.08628(2)
I3_4 I 0.57433(3) 0.80643(5) 0.12518(2)
I4_4 I 0.50449(2) 0.80448(4) 0.03638(2)
I6_3 I 0.98538(2) 0.94464(5) 0.11641(2)
I6_4 I 0.01462(2) 0.44464(5) 0.38359(2)
Zn5_3 Zn 0.02276(3) 0.88529(6) 0.41372(2)
I3_5 I 0.07433(3) 0.80643(5) 0.37482(2)
I4_5 I 0.00449(2) 0.80448(4) 0.46362(2)
I1_5 I 0.80152(2) 0.33590(4) 0.18441(2)
I2_5 I 0.67404(2) 0.17218(6) 0.16543(2)
I3_6 I 0.57433(3) 0.69357(5) 0.62518(2)
I4_6 I 0.50449(2) 0.69552(4) 0.53638(2)
Zn1_3 Zn 0.76185(3) 0.17355(6) 0.17919(2)
Zn2_3 Zn 0.52276(3) 0.61471(6) 0.58628(2)
N1_5 N 0.7709(2) 0.1003(4) 0.21840(11)
N8_5 N 0.5510(2) 0.4820(4) 0.57739(12)
N10_5 N 0.5782(2) 0.1528(4) 0.53897(11)
N11_5 N 0.6217(2) 0.1532(4) 0.58458(12)
N12_5 N 0.6133(2) 0.0096(4) 0.55721(11)
C1_5 C 0.8129(3) 0.1022(6) 0.23279(15)
H1_5 H 0.8394 0.1307 0.2231
C2_5 C 0.8190(3) 0.0646(5) 0.26097(15)
H2_5 H 0.8494 0.0656 0.2703
C3_5 C 0.7799(2) 0.0252(4) 0.27542(13)
C4_5 C 0.7376(2) 0.0222(5) 0.26095(14)
C5_5 C 0.7338(2) 0.0593(4) 0.23215(14)
H4_5 H 0.7041 0.0556 0.2220
C21_5 C 0.5750(2) 0.0098(5) 0.50876(14)
C22_5 C 0.5552(3) 0.0593(5) 0.48532(14)
H15_5 H 0.5481 0.1253 0.4873
C23_5 C 0.5455(3) 0.0124(5) 0.45878(14)
H16_5 H 0.5323 0.0473 0.4425
C24_5 C 0.5896(2) 0.0604(4) 0.53661(13)
C25_5 C 0.6282(2) 0.0608(5) 0.58028(13)
C26_5 C 0.5948(2) 0.1957(4) 0.56314(13)
C27_5 C 0.5460(3) 0.4398(5) 0.55087(15)
H17_5 H 0.5314 0.4750 0.5352
C28_5 C 0.5608(3) 0.3483(5) 0.54492(15)
H18_5 H 0.5571 0.3217 0.5255
C29_5 C 0.5812(2) 0.2957(5) 0.56778(14)
C30_5 C 0.5882(3) 0.3409(5) 0.59490(15)
H19_5 H 0.6037 0.3081 0.6108
C31_5 C 0.5731(3) 0.4324(5) 0.59885(16)
H20_5 H 0.5784 0.4622 0.6176
C32_5 C 0.6533(2) 0.0067(5) 0.60474(14)
H23_5 H 0.7145 0.0317 0.6652
C36_5 C 0.6748(3) 0.0528(5) 0.62806(17)
H24_5 H 0.6735 0.1205 0.6296
N13_3 N 0.4586(2) 0.5849(4) 0.60711(12)
N14_3 N 0.8004(2) 0.0939(4) 0.14918(11)
N13_4 N 0.0414(2) 0.4151(4) 0.10711(12)
C20_5 C 0.9176(3) 0.0872(5) 0.00541(15)
H14_5 H 0.9054 0.1242 0.0215
C33_5 C 0.8462(3) 0.0900(5) 0.10442(18)
H21_5 H 0.8615 0.1242 0.0888
C34_5 C 0.8231(3) 0.1385(5) 0.12730(16)
H22_5 H 0.8235 0.2064 0.1272
C35_5 C 0.8016(3) 0.0009(5) 0.14950(16)
I1_6 I 0.30152(2) 0.16410(4) 0.81559(2)
I2_6 I 0.17404(2) 0.32782(6) 0.83457(2)
I5_5 I 0.05804(3) 0.81918(4) 0.58343(2)
Zn1_4 Zn 0.26185(3) 0.32645(6) 0.82081(2)
Zn3_5 Zn 0.04998(3) 0.63820(7) 0.58689(2)
N1_6 N 0.2709(2) 0.3997(4) 0.78160(11)
N2_5 N 0.1141(2) 0.5949(4) 0.60540(11)
N4_5 N 0.24257(19) 0.5243(3) 0.67933(10)
N5_5 N 0.3260(2) 0.5196(3) 0.68089(11)
N6_5 N 0.28645(19) 0.5624(3) 0.63608(11)
N7_5 N 0.05419(19) 0.5805(4) 0.54458(11)
N8_6 N 0.0510(2) 0.0180(4) 0.42261(12)
N9_3 N 0.1996(2) 0.5939(4) 0.35082(11)
N10_6 N 0.0782(2) 0.3472(4) 0.46103(11)
N11_6 N 0.1217(2) 0.3468(4) 0.41542(12)
N12_6 N 0.1133(2) 0.4904(4) 0.44279(11)
C1_6 C 0.3129(3) 0.3978(6) 0.76721(15)
H1_6 H 0.3394 0.3693 0.7769
C2_6 C 0.3190(3) 0.4354(5) 0.73903(15)
H2_6 H 0.3494 0.4344 0.7297
C3_6 C 0.2799(2) 0.4748(4) 0.72458(13)
C4_6 C 0.2376(2) 0.4778(5) 0.73905(14)
H3_5 H 0.2106 0.5052 0.7296
C5_6 C 0.2338(2) 0.4407(4) 0.76785(14)
H4_6 H 0.2041 0.4444 0.7780
C6_5 C 0.2842(2) 0.5097(4) 0.69293(13)
C7_5 C 0.3257(2) 0.5465(4) 0.65206(13)
C8_5 C 0.2457(2) 0.5491(4) 0.65055(13)
C9_5 C 0.3719(2) 0.5585(4) 0.63677(14)
C10_5 C 0.4145(3) 0.5483(5) 0.65141(16)
H5_5 H 0.4152 0.5319 0.6720
C11_5 C 0.4565(3) 0.5622(6) 0.63592(16)
H6_5 H 0.4856 0.5551 0.6465
C12_5 C 0.4168(2) 0.5928(5) 0.59278(16)
H7_5 H 0.4173 0.6075 0.5720
C13_5 C 0.3737(3) 0.5811(5) 0.60628(14)
H8_5 H 0.3451 0.5881 0.5951
C14_5 C 0.2003(2) 0.5640(4) 0.63445(12)
C15_5 C 0.1994(3) 0.5943(5) 0.60500(15)
H9_5 H 0.2281 0.6051 0.5943
C16_5 C 0.1552(3) 0.6088(6) 0.59134(15)
H10_5 H 0.1546 0.6296 0.5711
C17_5 C 0.1157(3) 0.5641(5) 0.63388(15)
H11_5 H 0.0865 0.5530 0.6441
C18_5 C 0.1570(3) 0.5483(5) 0.64874(14)
H12_5 H 0.1564 0.5266 0.6689
C19_5 C 0.0719(3) 0.6291(5) 0.52159(15)
H13_5 H 0.0774 0.6956 0.5239
C20_6 C 0.0824(3) 0.5872(5) 0.49459(15)
H14_6 H 0.0946 0.6242 0.4785
C21_6 C 0.0750(2) 0.4902(5) 0.49124(14)
C22_6 C 0.0552(3) 0.4407(5) 0.51468(14)
H15_6 H 0.0481 0.3747 0.5127
C23_6 C 0.0455(3) 0.4876(5) 0.54122(14)
H16_6 H 0.0323 0.4527 0.5575
C24_6 C 0.0896(2) 0.4396(4) 0.46339(13)
C25_6 C 0.1282(2) 0.4392(5) 0.41972(13)
C26_6 C 0.0948(2) 0.3043(4) 0.43686(13)
C27_6 C 0.0460(3) 0.0602(5) 0.44913(15)
H17_6 H 0.0314 0.0250 0.4648
C28_6 C 0.0608(3) 0.1517(5) 0.45508(15)
H18_6 H 0.0571 0.1783 0.4745
C29_6 C 0.0812(2) 0.2043(5) 0.43222(14)
C30_6 C 0.0882(3) 0.1591(5) 0.40510(15)
H19_6 H 0.1037 0.1919 0.3892
C31_6 C 0.0731(3) 0.0676(5) 0.40115(16)
H20_6 H 0.0784 0.0378 0.3824
C32_6 C 0.1533(2) 0.4933(5) 0.39526(14)
C33_6 C 0.1538(3) 0.5900(5) 0.39558(18)
H21_6 H 0.1385 0.6242 0.4112
C34_6 C 0.1769(3) 0.6385(5) 0.37270(16)
H22_6 H 0.1765 0.7064 0.3728
C35_6 C 0.1984(3) 0.5009(5) 0.35050(16)
H23_6 H 0.2145 0.4683 0.3348
C36_6 C 0.1748(3) 0.4472(5) 0.37194(17)
H24_6 H 0.1735 0.3795 0.3704
Zn4_3 Zn 0.23815(3) 0.67355(6) 0.32081(2)
N14_4 N 0.3004(2) 0.4061(4) 0.85082(11)
I1_7 I 0.19848(2) 0.83590(4) 0.31559(2)
I2_7 I 0.32596(2) 0.67218(6) 0.33457(2)
I5_6 I 0.44196(3) 0.18082(4) 0.08343(2)
I6_5 I 0.51462(2) 0.44464(5) 0.11641(2)
Zn3_6 Zn 0.45002(3) 0.36180(7) 0.08689(2)
N1_7 N 0.2291(2) 0.6003(4) 0.28160(11)
N2_6 N 0.3859(2) 0.4051(4) 0.10540(11)
N4_6 N 0.25743(19) 0.4757(3) 0.17933(10)
N5_6 N 0.1740(2) 0.4804(3) 0.18089(11)
N6_6 N 0.21355(19) 0.4376(3) 0.13608(11)
N7_6 N 0.44581(19) 0.4195(4) 0.04458(11)
C1_7 C 0.1871(3) 0.6022(6) 0.26721(15)
H1_7 H 0.1606 0.6307 0.2769
C2_7 C 0.1810(3) 0.5646(5) 0.23903(15)
H2_7 H 0.1506 0.5656 0.2297
C3_7 C 0.2201(2) 0.5252(4) 0.22458(13)
C4_7 C 0.2624(2) 0.5222(5) 0.23905(14)
H3_6 H 0.2894 0.4948 0.2296
C5_7 C 0.2662(2) 0.5593(4) 0.26785(14)
H4_7 H 0.2959 0.5556 0.2780
C6_6 C 0.2158(2) 0.4903(4) 0.19293(13)
C7_6 C 0.1743(2) 0.4535(4) 0.15206(13)
C8_6 C 0.2543(2) 0.4509(4) 0.15055(13)
C9_6 C 0.1281(2) 0.4415(4) 0.13677(14)
C10_6 C 0.0855(3) 0.4517(5) 0.15141(16)
H5_6 H 0.0848 0.4681 0.1720
C11_6 C 0.0435(3) 0.4378(6) 0.13592(16)
H6_6 H 0.0144 0.4449 0.1465
C12_6 C 0.0832(2) 0.4072(5) 0.09278(16)
H7_6 H 0.0827 0.3925 0.0720
C13_6 C 0.1263(3) 0.4189(5) 0.10628(14)
H8_6 H 0.1549 0.4119 0.0951
C14_6 C 0.2997(2) 0.4360(4) 0.13445(12)
C15_6 C 0.3006(3) 0.4057(5) 0.10500(15)
H9_6 H 0.2719 0.3949 0.0943
C16_6 C 0.3448(3) 0.3912(6) 0.09134(15)
H10_6 H 0.3454 0.3704 0.0711
C17_6 C 0.3843(3) 0.4359(5) 0.13388(15)
H11_6 H 0.4135 0.4470 0.1441
C18_6 C 0.3430(3) 0.4517(5) 0.14874(14)
H12_6 H 0.3436 0.4734 0.1689
C19_6 C 0.4281(3) 0.3709(5) 0.02159(15)
H13_6 H 0.4226 0.3044 0.0239
C22_7 C 0.4448(3) 0.5593(5) 0.01468(14)
H15_7 H 0.4519 0.6253 0.0127
C23_7 C 0.4545(3) 0.5124(5) 0.04122(14)
H16_7 H 0.4677 0.5473 0.0575
N8_7 N 0.4490(2) 0.9820(4) 0.92261(12)
N10_7 N 0.4218(2) 0.6528(4) 0.96103(11)
N11_7 N 0.3783(2) 0.6532(4) 0.91542(12)
N12_7 N 0.3867(2) 0.5096(4) 0.94279(11)
C20_7 C 0.4176(3) 0.4128(5) 0.99459(15)
H14_7 H 0.4054 0.3758 0.9785
C21_7 C 0.4250(2) 0.5098(5) 0.99124(14)
C24_7 C 0.4104(2) 0.5604(4) 0.96339(13)
C25_7 C 0.3718(2) 0.5608(5) 0.91972(13)
C26_7 C 0.4052(2) 0.6957(4) 0.93686(13)
C27_7 C 0.4540(3) 0.9398(5) 0.94913(15)
H17_7 H 0.4686 0.9750 0.9648
C28_7 C 0.4392(3) 0.8483(5) 0.95508(15)
H18_7 H 0.4429 0.8217 0.9745
C29_7 C 0.4188(2) 0.7957(5) 0.93222(14)
C30_7 C 0.4118(3) 0.8409(5) 0.90510(15)
H19_7 H 0.3963 0.8081 0.8892
C31_7 C 0.4269(3) 0.9324(5) 0.90115(16)
H20_7 H 0.4216 0.9622 0.8824
C32_7 C 0.3467(2) 0.5067(5) 0.89526(14)
C33_7 C 0.3462(3) 0.4100(5) 0.89558(18)
H21_7 H 0.3615 0.3758 0.9112
C34_7 C 0.3231(3) 0.3615(5) 0.87270(16)
H22_7 H 0.3235 0.2936 0.8728
C35_7 C 0.3016(3) 0.4991(5) 0.85050(16)
H23_7 H 0.2855 0.5317 0.8348
C36_7 C 0.3252(3) 0.5528(5) 0.87194(17)
H24_7 H 0.3265 0.6205 0.8704
I5_7 I 0.55804(3) 0.68082(4) 0.41657(2)
I6_6 I 0.48538(2) 0.94464(5) 0.38359(2)
Zn3_7 Zn 0.54998(3) 0.86180(7) 0.41311(2)
N2_7 N 0.6141(2) 0.9051(4) 0.39460(11)
N3_3 N 0.9586(2) 0.9151(4) 0.39289(12)
N4_7 N 0.74257(19) 0.9757(3) 0.32067(10)
N5_7 N 0.8260(2) 0.9804(3) 0.31911(11)
N6_7 N 0.78645(19) 0.9376(3) 0.36392(11)
N7_7 N 0.55419(19) 0.9195(4) 0.45542(11)
N9_4 N 0.6996(2) 0.9061(4) 0.64918(11)
H3_7 H 0.7106 0.9948 0.2704
C6_7 C 0.7842(2) 0.9903(4) 0.30707(13)
C7_7 C 0.8257(2) 0.9535(4) 0.34794(13)
C8_7 C 0.7457(2) 0.9509(4) 0.34945(13)
C9_7 C 0.8719(2) 0.9415(4) 0.36323(14)
C10_7 C 0.9145(3) 0.9517(5) 0.34859(16)
H5_7 H 0.9152 0.9681 0.3280
C11_7 C 0.9565(3) 0.9378(6) 0.36408(16)
H6_7 H 0.9856 0.9449 0.3535
C12_7 C 0.9168(2) 0.9072(5) 0.40722(16)
H7_7 H 0.9173 0.8925 0.4280
C13_7 C 0.8737(3) 0.9189(5) 0.39372(14)
H8_7 H 0.8451 0.9119 0.4049
C14_7 C 0.7003(2) 0.9360(4) 0.36555(12)
C15_7 C 0.6994(3) 0.9057(5) 0.39500(15)
H9_7 H 0.7281 0.8949 0.4057
C16_7 C 0.6552(3) 0.8912(6) 0.40866(15)
H10_7 H 0.6546 0.8704 0.4289
C17_7 C 0.6157(3) 0.9359(5) 0.36612(15)
H11_7 H 0.5865 0.9470 0.3559
C18_7 C 0.6570(3) 0.9517(5) 0.35126(14)
H12_7 H 0.6564 0.9734 0.3311
C19_7 C 0.5719(3) 0.8709(5) 0.47841(15)
H13_7 H 0.5774 0.8044 0.4761
C20_8 C 0.5824(3) 0.9128(5) 0.50541(15)
H14_8 H 0.5946 0.8758 0.5215
C33_8 C 0.6538(3) 0.9100(5) 0.60442(18)
H21_8 H 0.6385 0.8758 0.5888
C34_8 C 0.6769(3) 0.8615(5) 0.62730(16)
H22_8 H 0.6765 0.7936 0.6272
C35_8 C 0.6984(3) 0.9991(5) 0.64950(16)
Zn4_4 Zn 0.73815(3) 0.82645(6) 0.67919(2)
I1_8 I 0.69848(2) 0.66410(4) 0.68441(2)
I2_8 I 0.82596(2) 0.82782(6) 0.66543(2)
N1_8 N 0.7291(2) 0.8997(4) 0.71840(11)
C1_8 C 0.6871(3) 0.8978(6) 0.73279(15)
H1_8 H 0.6606 0.8693 0.7231
C2_8 C 0.6810(3) 0.9354(5) 0.76097(15)
H2_8 H 0.6506 0.9344 0.7703
C3_8 C 0.7201(2) 0.9748(4) 0.77542(13)
C4_8 C 0.7624(2) 0.9778(5) 0.76095(14)
C5_8 C 0.7662(2) 0.9407(4) 0.73215(14)
H4_8 H 0.7959 0.9444 0.7220
C22_8 C 0.9448(3) 0.9407(5) 0.98532(14)
H15_8 H 0.9519 0.8747 0.9873
C23_8 C 0.9545(3) 0.9876(5) 0.95878(14)
H16_8 H 0.9677 0.9527 0.9425
I6_7 I 0.01462(2) 0.05536(5) 0.88359(2)
I5_8 I 0.94196(3) 0.31918(4) 0.91657(2)
Zn3_8 Zn 0.95002(3) 0.13820(7) 0.91311(2)
N2_8 N 0.8859(2) 0.0949(4) 0.89460(11)
N3_4 N 0.5414(2) 0.0849(4) 0.89289(12)
N4_8 N 0.75743(19) 0.0243(3) 0.82067(10)
N5_8 N 0.6740(2) 0.0196(3) 0.81911(11)
N6_8 N 0.71355(19) 0.0624(3) 0.86392(11)
N7_8 N 0.94581(19) 0.0805(4) 0.95542(11)
H3_8 H 0.7894 0.0052 0.7704
C6_8 C 0.7158(2) 0.0097(4) 0.80707(13)
C7_8 C 0.6743(2) 0.0465(4) 0.84794(13)
C8_8 C 0.7543(2) 0.0491(4) 0.84945(13)
C9_8 C 0.6281(2) 0.0585(4) 0.86323(14)
C10_8 C 0.5855(3) 0.0483(5) 0.84859(16)
H5_8 H 0.5848 0.0319 0.8280
C11_8 C 0.5435(3) 0.0622(6) 0.86408(16)
H6_8 H 0.5144 0.0551 0.8535
C12_8 C 0.5832(2) 0.0928(5) 0.90722(16)
H7_8 H 0.5827 0.1075 0.9280
C13_8 C 0.6263(3) 0.0811(5) 0.89372(14)
H8_8 H 0.6549 0.0881 0.9049
C14_8 C 0.7997(2) 0.0640(4) 0.86555(12)
C15_8 C 0.8006(3) 0.0943(5) 0.89500(15)
H9_8 H 0.7719 0.1051 0.9057
C16_8 C 0.8448(3) 0.1088(6) 0.90866(15)
H10_8 H 0.8454 0.1296 0.9289
C17_8 C 0.8843(3) 0.0641(5) 0.86612(15)
H11_8 H 0.9135 0.0530 0.8559
C18_8 C 0.8430(3) 0.0483(5) 0.85126(14)
H12_8 H 0.8436 0.0266 0.8311
C19_8 C 0.9281(3) 0.1291(5) 0.97841(15)
H13_8 H 0.9226 0.1956 0.9761
Zn5_4 Zn 0.47724(3) 0.11471(6) 0.91372(2)
I3_7 I 0.42567(3) 0.19357(5) 0.87482(2)
I4_7 I 0.49551(2) 0.19552(4) 0.96362(2)
I3_8 I 0.92567(3) 0.30643(5) 0.12518(2)
I4_8 I 0.99551(2) 0.30448(4) 0.03638(2)
Zn2_4 Zn 0.97724(3) 0.38529(6) 0.08628(2)
N8_8 N 0.9490(2) 0.5180(4) 0.07739(12)
N10_8 N 0.9218(2) 0.8472(4) 0.03897(11)
N11_8 N 0.8783(2) 0.8468(4) 0.08458(12)
N12_8 N 0.8867(2) 0.9904(4) 0.05721(11)
C21_8 C 0.9250(2) 0.9902(5) 0.00876(14)
C24_8 C 0.9104(2) 0.9396(4) 0.03661(13)
C25_8 C 0.8718(2) 0.9392(5) 0.08028(13)
C26_8 C 0.9052(2) 0.8043(4) 0.06314(13)
C27_8 C 0.9540(3) 0.5602(5) 0.05087(15)
H17_8 H 0.9686 0.5250 0.0352
C28_8 C 0.9392(3) 0.6517(5) 0.04492(15)
H18_8 H 0.9429 0.6783 0.0255
C29_8 C 0.9188(2) 0.7043(5) 0.06778(14)
C30_8 C 0.9118(3) 0.6591(5) 0.09490(15)
H19_8 H 0.8963 0.6919 0.1108
C31_8 C 0.9269(3) 0.5676(5) 0.09885(16)
H20_8 H 0.9216 0.5378 0.1176
C32_8 C 0.8467(2) 0.9933(5) 0.10474(14)
H23_8 H 0.7855 0.9683 0.1652
C36_8 C 0.8252(3) 0.9472(5) 0.12806(17)
H24_8 H 0.8265 0.8795 0.1296
I6_8 I 0.98538(2) 0.55536(5) 0.61641(2)
loop_
_geom_bond_atom_site_label_1
_geom_bond_atom_site_label_2
_geom_bond_site_symmetry_1
_geom_bond_site_symmetry_2
I5 Zn3 1_555 1_555
I6 Zn3 1_555 1_555
Zn3 N2 1_555 1_555
N2 C16 1_555 1_555
N3 C11 1_555 1_555
N4 C6 1_555 1_555
N5 C6 1_555 1_555
N6 C7 1_555 1_555
N7 Zn3 1_555 1_555
N9 C34 1_555 1_555
C7 N5 1_555 1_555
C8 N4 1_555 1_555
C9 C7 1_555 1_555
C10 C9 1_555 1_555
H5 C10 1_555 1_555
C11 C10 1_555 1_555
H6 C11 1_555 1_555
C12 N3 1_555 1_555
H7 C12 1_555 1_555
C13 C9 1_555 1_555
H8 C13 1_555 1_555
C14 C8 1_555 1_555
C15 C14 1_555 1_555
H9 C15 1_555 1_555
C16 C15 1_555 1_555
H10 C16 1_555 1_555
C17 N2 1_555 1_555
H11 C17 1_555 1_555
C18 C14 1_555 1_555
H12 C18 1_555 1_555
C19 N7 1_555 1_555
H13 C19 1_555 1_555
C20 C19 1_555 1_555
H14 C20 1_555 1_555
H21 C33 1_555 1_555
C34 C33 1_555 1_555
H22 C34 1_555 1_555
C35 N9 1_555 1_555
Zn4 N9 1_555 1_555
N6 C8 1_555 1_555
C12 C13 1_555 1_555
C17 C18 1_555 1_555
I1 Zn4 1_555 1_555
I2 Zn4 1_555 1_555
Zn4 N1 1_555 1_555
N1 C1 1_555 1_555
C1 H1 1_555 1_555
C2 C1 1_555 1_555
H2 C2 1_555 1_555
C3 C2 1_555 1_555
C4 C3 1_555 1_555
C5 N1 1_555 1_555
H4 C5 1_555 1_555
H15 C22 1_555 1_555
H16 C23 1_555 1_555
C4 C5 1_555 1_555
C22 C23 1_555 1_555
I1_2 Zn1 1_555 1_555
I2_2 Zn1 1_555 1_555
I3 Zn2 1_555 1_555
I4 Zn2 1_555 1_555
Zn1 N1_2 1_555 1_555
Zn2 N8 1_555 1_555
N1_2 C1_2 1_555 1_555
N8 C27 1_555 1_555
N10 C24 1_555 1_555
N11 C25 1_555 1_555
N12 C24 1_555 1_555
C1_2 H1_2 1_555 1_555
C2_2 C1_2 1_555 1_555
H2_2 C2_2 1_555 1_555
C3_2 C2_2 1_555 1_555
C4_2 C3_2 1_555 1_555
C5_2 N1_2 1_555 1_555
H4_2 C5_2 1_555 1_555
C22_2 C21 1_555 1_555
H15_2 C22_2 1_555 1_555
H16_2 C23_2 1_555 1_555
C24 C21 1_555 1_555
C25 N12 1_555 1_555
C26 N10 1_555 1_555
C27 H17 1_555 1_555
C28 C27 1_555 1_555
H18 C28 1_555 1_555
C29 C26 1_555 1_555
C30 C29 1_555 1_555
H19 C30 1_555 1_555
C31 N8 1_555 1_555
H20 C31 1_555 1_555
C32 C25 1_555 1_555
C36 C32 1_555 1_555
H24 C36 1_555 1_555
N13 Zn2 1_555 1_555
N14 Zn1 1_555 1_555
N11 C26 1_555 1_555
C4_2 C5_2 1_555 1_555
C22_2 C23_2 1_555 1_555
C28 C29 1_555 1_555
C30 C31 1_555 1_555
N14 C34_2 1_555 1_555
H14_2 C20_2 1_555 1_555
H21_2 C33_2 1_555 1_555
C34_2 C33_2 1_555 1_555
H22_2 C34_2 1_555 1_555
C35_2 N14 1_555 1_555
I1_3 Zn1_2 1_555 1_555
I2_3 Zn1_2 1_555 1_555
I5_2 Zn3_2 1_555 1_555
Zn1_2 N1_3 1_555 1_555
Zn3_2 N2_2 1_555 1_555
N1_3 C1_3 1_555 1_555
N2_2 C16_2 1_555 1_555
N13 C11_2 1_555 1_555
N4_2 C6_2 1_555 1_555
N5_2 C6_2 1_555 1_555
N6_2 C7_2 1_555 1_555
N7_2 Zn3_2 1_555 1_555
N8_2 C27_2 1_555 1_555
N9_2 C34_3 1_555 1_555
N10_2 C24_2 1_555 1_555
N11_2 C25_2 1_555 1_555
N12_2 C24_2 1_555 1_555
C1_3 H1_3 1_555 1_555
C2_3 C1_3 1_555 1_555
H2_3 C2_3 1_555 1_555
C3_3 C2_3 1_555 1_555
C4_3 C3_3 1_555 1_555
H3_2 C4_3 1_555 1_555
C5_3 N1_3 1_555 1_555
H4_3 C5_3 1_555 1_555
C6_2 C3_3 1_555 1_555
C7_2 N5_2 1_555 1_555
C8_2 N4_2 1_555 1_555
C9_2 C7_2 1_555 1_555
C10_2 C9_2 1_555 1_555
H5_2 C10_2 1_555 1_555
C11_2 C10_2 1_555 1_555
H6_2 C11_2 1_555 1_555
C12_2 N13 1_555 1_555
H7_2 C12_2 1_555 1_555
C13_2 C9_2 1_555 1_555
H8_2 C13_2 1_555 1_555
C14_2 C8_2 1_555 1_555
C15_2 C14_2 1_555 1_555
H9_2 C15_2 1_555 1_555
C16_2 C15_2 1_555 1_555
H10_2 C16_2 1_555 1_555
C17_2 N2_2 1_555 1_555
H11_2 C17_2 1_555 1_555
C18_2 C14_2 1_555 1_555
H12_2 C18_2 1_555 1_555
C19_2 N7_2 1_555 1_555
H13_2 C19_2 1_555 1_555
C20_3 C19_2 1_555 1_555
H14_3 C20_3 1_555 1_555
C21_2 C20_3 1_555 1_555
C22_3 C21_2 1_555 1_555
H15_3 C22_3 1_555 1_555
C23_3 N7_2 1_555 1_555
H16_3 C23_3 1_555 1_555
C24_2 C21_2 1_555 1_555
C25_2 N12_2 1_555 1_555
C26_2 N10_2 1_555 1_555
C27_2 H17_2 1_555 1_555
C28_2 C27_2 1_555 1_555
H18_2 C28_2 1_555 1_555
C29_2 C26_2 1_555 1_555
C30_2 C29_2 1_555 1_555
H19_2 C30_2 1_555 1_555
C31_2 N8_2 1_555 1_555
H20_2 C31_2 1_555 1_555
C32_2 C25_2 1_555 1_555
C33_3 C32_2 1_555 1_555
H21_3 C33_3 1_555 1_555
C34_3 C33_3 1_555 1_555
H22_3 C34_3 1_555 1_555
C35_3 N9_2 1_555 1_555
H23_2 C35_3 1_555 1_555
C36_2 C32_2 1_555 1_555
H24_2 C36_2 1_555 1_555
Zn4_2 N9_2 1_555 1_555
N14_2 Zn1_2 1_555 1_555
N6_2 C8_2 1_555 1_555
N11_2 C26_2 1_555 1_555
C4_3 C5_3 1_555 1_555
C12_2 C13_2 1_555 1_555
C17_2 C18_2 1_555 1_555
C22_3 C23_3 1_555 1_555
C28_2 C29_2 1_555 1_555
C30_2 C31_2 1_555 1_555
C35_3 C36_2 1_555 1_555
N8_3 C27_3 1_555 1_555
N14_2 C34_4 1_555 1_555
N10_3 C24_3 1_555 1_555
N11_3 C25_3 1_555 1_555
N12_3 C24_3 1_555 1_555
H14_4 C20_4 1_555 1_555
C21_3 C20_4 1_555 1_555
C24_3 C21_3 1_555 1_555
C25_3 N12_3 1_555 1_555
C26_3 N10_3 1_555 1_555
C27_3 H17_3 1_555 1_555
C28_3 C27_3 1_555 1_555
H18_3 C28_3 1_555 1_555
C29_3 C26_3 1_555 1_555
C30_3 C29_3 1_555 1_555
H19_3 C30_3 1_555 1_555
C31_3 N8_3 1_555 1_555
H20_3 C31_3 1_555 1_555
C32_3 C25_3 1_555 1_555
C33_4 C32_3 1_555 1_555
H21_4 C33_4 1_555 1_555
C34_4 C33_4 1_555 1_555
H22_4 C34_4 1_555 1_555
C35_4 N14_2 1_555 1_555
H23_3 C35_4 1_555 1_555
C36_3 C32_3 1_555 1_555
H24_3 C36_3 1_555 1_555
N11_3 C26_3 1_555 1_555
C28_3 C29_3 1_555 1_555
C30_3 C31_3 1_555 1_555
C35_4 C36_3 1_555 1_555
I1_4 Zn4_2 1_555 1_555
I2_4 Zn4_2 1_555 1_555
I5_3 Zn3_3 1_555 1_555
I6_2 Zn3_3 1_555 1_555
Zn4_2 N1_4 1_555 1_555
Zn3_3 N2_3 1_555 1_555
N1_4 C1_4 1_555 1_555
N2_3 C16_3 1_555 1_555
N13_2 C11_3 1_555 1_555
N4_3 C6_3 1_555 1_555
N5_3 C6_3 1_555 1_555
N6_3 C7_3 1_555 1_555
N7_3 Zn3_3 1_555 1_555
C1_4 H1_4 1_555 1_555
C2_4 C1_4 1_555 1_555
H2_4 C2_4 1_555 1_555
C3_4 C2_4 1_555 1_555
C4_4 C3_4 1_555 1_555
H3_3 C4_4 1_555 1_555
C5_4 N1_4 1_555 1_555
H4_4 C5_4 1_555 1_555
C6_3 C3_4 1_555 1_555
C7_3 N5_3 1_555 1_555
C8_3 N4_3 1_555 1_555
C9_3 C7_3 1_555 1_555
C10_3 C9_3 1_555 1_555
H5_3 C10_3 1_555 1_555
C11_3 C10_3 1_555 1_555
H6_3 C11_3 1_555 1_555
C12_3 N13_2 1_555 1_555
H7_3 C12_3 1_555 1_555
C13_3 C9_3 1_555 1_555
H8_3 C13_3 1_555 1_555
C14_3 C8_3 1_555 1_555
C15_3 C14_3 1_555 1_555
H9_3 C15_3 1_555 1_555
C16_3 C15_3 1_555 1_555
H10_3 C16_3 1_555 1_555
C17_3 N2_3 1_555 1_555
H11_3 C17_3 1_555 1_555
C18_3 C14_3 1_555 1_555
H12_3 C18_3 1_555 1_555
C19_3 N7_3 1_555 1_555
H13_3 C19_3 1_555 1_555
H15_4 C22_4 1_555 1_555
C23_4 N7_3 1_555 1_555
H16_4 C23_4 1_555 1_555
N6_3 C8_3 1_555 1_555
C4_4 C5_4 1_555 1_555
C12_3 C13_3 1_555 1_555
C17_3 C18_3 1_555 1_555
C22_4 C23_4 1_555 1_555
I3_2 Zn5 1_555 1_555
I4_2 Zn5 1_555 1_555
I3_3 Zn2_2 1_555 1_555
I4_3 Zn2_2 1_555 1_555
Zn2_2 N8_4 1_555 1_555
N8_4 C27_4 1_555 1_555
N10_4 C24_4 1_555 1_555
N11_4 C25_4 1_555 1_555
N12_4 C24_4 1_555 1_555
C24_4 C21_4 1_555 1_555
C25_4 N12_4 1_555 1_555
C26_4 N10_4 1_555 1_555
C27_4 H17_4 1_555 1_555
C28_4 C27_4 1_555 1_555
H18_4 C28_4 1_555 1_555
C29_4 C26_4 1_555 1_555
C30_4 C29_4 1_555 1_555
H19_4 C30_4 1_555 1_555
C31_4 N8_4 1_555 1_555
H20_4 C31_4 1_555 1_555
C32_4 C25_4 1_555 1_555
C36_4 C32_4 1_555 1_555
H24_4 C36_4 1_555 1_555
N11_4 C26_4 1_555 1_555
C28_4 C29_4 1_555 1_555
C30_4 C31_4 1_555 1_555
I5_4 Zn3_4 1_555 1_555
Zn3_4 N2_4 1_555 1_555
N2_4 C16_4 1_555 1_555
N3_2 C11_4 1_555 1_555
N4_4 C6_4 1_555 1_555
N5_4 C6_4 1_555 1_555
N6_4 C7_4 1_555 1_555
N7_4 Zn3_4 1_555 1_555
C7_4 N5_4 1_555 1_555
C8_4 N4_4 1_555 1_555
C9_4 C7_4 1_555 1_555
C10_4 C9_4 1_555 1_555
H5_4 C10_4 1_555 1_555
C11_4 C10_4 1_555 1_555
H6_4 C11_4 1_555 1_555
C12_4 N3_2 1_555 1_555
H7_4 C12_4 1_555 1_555
C13_4 C9_4 1_555 1_555
H8_4 C13_4 1_555 1_555
C14_4 C8_4 1_555 1_555
C15_4 C14_4 1_555 1_555
H9_4 C15_4 1_555 1_555
C16_4 C15_4 1_555 1_555
H10_4 C16_4 1_555 1_555
C17_4 N2_4 1_555 1_555
H11_4 C17_4 1_555 1_555
C18_4 C14_4 1_555 1_555
H12_4 C18_4 1_555 1_555
C19_4 N7_4 1_555 1_555
H13_4 C19_4 1_555 1_555
Zn5_2 N3_2 1_555 1_555
N6_4 C8_4 1_555 1_555
C12_4 C13_4 1_555 1_555
C17_4 C18_4 1_555 1_555
I3_4 Zn5_2 1_555 1_555
I4_4 Zn5_2 1_555 1_555
I3_5 Zn5_3 1_555 1_555
I4_5 Zn5_3 1_555 1_555
I1_5 Zn1_3 1_555 1_555
I2_5 Zn1_3 1_555 1_555
I3_6 Zn2_3 1_555 1_555
I4_6 Zn2_3 1_555 1_555
Zn1_3 N1_5 1_555 1_555
Zn2_3 N8_5 1_555 1_555
N1_5 C1_5 1_555 1_555
N8_5 C27_5 1_555 1_555
N10_5 C24_5 1_555 1_555
N11_5 C25_5 1_555 1_555
N12_5 C24_5 1_555 1_555
C1_5 H1_5 1_555 1_555
C2_5 C1_5 1_555 1_555
H2_5 C2_5 1_555 1_555
C3_5 C2_5 1_555 1_555
C4_5 C3_5 1_555 1_555
C5_5 N1_5 1_555 1_555
H4_5 C5_5 1_555 1_555
C22_5 C21_5 1_555 1_555
H15_5 C22_5 1_555 1_555
H16_5 C23_5 1_555 1_555
C24_5 C21_5 1_555 1_555
C25_5 N12_5 1_555 1_555
C26_5 N10_5 1_555 1_555
C27_5 H17_5 1_555 1_555
C28_5 C27_5 1_555 1_555
H18_5 C28_5 1_555 1_555
C29_5 C26_5 1_555 1_555
C30_5 C29_5 1_555 1_555
H19_5 C30_5 1_555 1_555
C31_5 N8_5 1_555 1_555
H20_5 C31_5 1_555 1_555
C32_5 C25_5 1_555 1_555
C36_5 C32_5 1_555 1_555
H24_5 C36_5 1_555 1_555
N13_3 Zn2_3 1_555 1_555
N14_3 Zn1_3 1_555 1_555
N11_5 C26_5 1_555 1_555
C4_5 C5_5 1_555 1_555
C22_5 C23_5 1_555 1_555
C28_5 C29_5 1_555 1_555
C30_5 C31_5 1_555 1_555
N14_3 C34_5 1_555 1_555
H14_5 C20_5 1_555 1_555
H21_5 C33_5 1_555 1_555
C34_5 C33_5 1_555 1_555
H22_5 C34_5 1_555 1_555
C35_5 N14_3 1_555 1_555
I1_6 Zn1_4 1_555 1_555
I2_6 Zn1_4 1_555 1_555
I5_5 Zn3_5 1_555 1_555
Zn1_4 N1_6 1_555 1_555
Zn3_5 N2_5 1_555 1_555
N1_6 C1_6 1_555 1_555
N2_5 C16_5 1_555 1_555
N13_3 C11_5 1_555 1_555
N4_5 C6_5 1_555 1_555
N5_5 C6_5 1_555 1_555
N6_5 C7_5 1_555 1_555
N7_5 Zn3_5 1_555 1_555
N8_6 C27_6 1_555 1_555
N9_3 C34_6 1_555 1_555
N10_6 C24_6 1_555 1_555
N11_6 C25_6 1_555 1_555
N12_6 C24_6 1_555 1_555
C1_6 H1_6 1_555 1_555
C2_6 C1_6 1_555 1_555
H2_6 C2_6 1_555 1_555
C3_6 C2_6 1_555 1_555
C4_6 C3_6 1_555 1_555
H3_5 C4_6 1_555 1_555
C5_6 N1_6 1_555 1_555
H4_6 C5_6 1_555 1_555
C6_5 C3_6 1_555 1_555
C7_5 N5_5 1_555 1_555
C8_5 N4_5 1_555 1_555
C9_5 C7_5 1_555 1_555
C10_5 C9_5 1_555 1_555
H5_5 C10_5 1_555 1_555
C11_5 C10_5 1_555 1_555
H6_5 C11_5 1_555 1_555
C12_5 N13_3 1_555 1_555
H7_5 C12_5 1_555 1_555
C13_5 C9_5 1_555 1_555
H8_5 C13_5 1_555 1_555
C14_5 C8_5 1_555 1_555
C15_5 C14_5 1_555 1_555
H9_5 C15_5 1_555 1_555
C16_5 C15_5 1_555 1_555
H10_5 C16_5 1_555 1_555
C17_5 N2_5 1_555 1_555
H11_5 C17_5 1_555 1_555
C18_5 C14_5 1_555 1_555
H12_5 C18_5 1_555 1_555
C19_5 N7_5 1_555 1_555
H13_5 C19_5 1_555 1_555
C20_6 C19_5 1_555 1_555
H14_6 C20_6 1_555 1_555
C21_6 C20_6 1_555 1_555
C22_6 C21_6 1_555 1_555
H15_6 C22_6 1_555 1_555
C23_6 N7_5 1_555 1_555
H16_6 C23_6 1_555 1_555
C24_6 C21_6 1_555 1_555
C25_6 N12_6 1_555 1_555
C26_6 N10_6 1_555 1_555
C27_6 H17_6 1_555 1_555
C28_6 C27_6 1_555 1_555
H18_6 C28_6 1_555 1_555
C29_6 C26_6 1_555 1_555
C30_6 C29_6 1_555 1_555
H19_6 C30_6 1_555 1_555
C31_6 N8_6 1_555 1_555
H20_6 C31_6 1_555 1_555
C32_6 C25_6 1_555 1_555
C33_6 C32_6 1_555 1_555
H21_6 C33_6 1_555 1_555
C34_6 C33_6 1_555 1_555
H22_6 C34_6 1_555 1_555
C35_6 N9_3 1_555 1_555
H23_6 C35_6 1_555 1_555
C36_6 C32_6 1_555 1_555
H24_6 C36_6 1_555 1_555
Zn4_3 N9_3 1_555 1_555
N14_4 Zn1_4 1_555 1_555
N6_5 C8_5 1_555 1_555
N11_6 C26_6 1_555 1_555
C4_6 C5_6 1_555 1_555
C12_5 C13_5 1_555 1_555
C17_5 C18_5 1_555 1_555
C22_6 C23_6 1_555 1_555
C28_6 C29_6 1_555 1_555
C30_6 C31_6 1_555 1_555
C35_6 C36_6 1_555 1_555
I1_7 Zn4_3 1_555 1_555
I2_7 Zn4_3 1_555 1_555
I5_6 Zn3_6 1_555 1_555
I6_5 Zn3_6 1_555 1_555
Zn4_3 N1_7 1_555 1_555
Zn3_6 N2_6 1_555 1_555
N1_7 C1_7 1_555 1_555
N2_6 C16_6 1_555 1_555
N13_4 C11_6 1_555 1_555
N4_6 C6_6 1_555 1_555
N5_6 C6_6 1_555 1_555
N6_6 C7_6 1_555 1_555
N7_6 Zn3_6 1_555 1_555
C1_7 H1_7 1_555 1_555
C2_7 C1_7 1_555 1_555
H2_7 C2_7 1_555 1_555
C3_7 C2_7 1_555 1_555
C4_7 C3_7 1_555 1_555
H3_6 C4_7 1_555 1_555
C5_7 N1_7 1_555 1_555
H4_7 C5_7 1_555 1_555
C6_6 C3_7 1_555 1_555
C7_6 N5_6 1_555 1_555
C8_6 N4_6 1_555 1_555
C9_6 C7_6 1_555 1_555
C10_6 C9_6 1_555 1_555
H5_6 C10_6 1_555 1_555
C11_6 C10_6 1_555 1_555
H6_6 C11_6 1_555 1_555
C12_6 N13_4 1_555 1_555
H7_6 C12_6 1_555 1_555
C13_6 C9_6 1_555 1_555
H8_6 C13_6 1_555 1_555
C14_6 C8_6 1_555 1_555
C15_6 C14_6 1_555 1_555
H9_6 C15_6 1_555 1_555
C16_6 C15_6 1_555 1_555
H10_6 C16_6 1_555 1_555
C17_6 N2_6 1_555 1_555
H11_6 C17_6 1_555 1_555
C18_6 C14_6 1_555 1_555
H12_6 C18_6 1_555 1_555
C19_6 N7_6 1_555 1_555
H13_6 C19_6 1_555 1_555
H15_7 C22_7 1_555 1_555
C23_7 N7_6 1_555 1_555
H16_7 C23_7 1_555 1_555
N6_6 C8_6 1_555 1_555
C4_7 C5_7 1_555 1_555
C12_6 C13_6 1_555 1_555
C17_6 C18_6 1_555 1_555
C22_7 C23_7 1_555 1_555
N8_7 C27_7 1_555 1_555
N14_4 C34_7 1_555 1_555
N10_7 C24_7 1_555 1_555
N11_7 C25_7 1_555 1_555
N12_7 C24_7 1_555 1_555
H14_7 C20_7 1_555 1_555
C21_7 C20_7 1_555 1_555
C24_7 C21_7 1_555 1_555
C25_7 N12_7 1_555 1_555
C26_7 N10_7 1_555 1_555
C27_7 H17_7 1_555 1_555
C28_7 C27_7 1_555 1_555
H18_7 C28_7 1_555 1_555
C29_7 C26_7 1_555 1_555
C30_7 C29_7 1_555 1_555
H19_7 C30_7 1_555 1_555
C31_7 N8_7 1_555 1_555
H20_7 C31_7 1_555 1_555
C32_7 C25_7 1_555 1_555
C33_7 C32_7 1_555 1_555
H21_7 C33_7 1_555 1_555
C34_7 C33_7 1_555 1_555
H22_7 C34_7 1_555 1_555
C35_7 N14_4 1_555 1_555
H23_7 C35_7 1_555 1_555
C36_7 C32_7 1_555 1_555
H24_7 C36_7 1_555 1_555
N11_7 C26_7 1_555 1_555
C28_7 C29_7 1_555 1_555
C30_7 C31_7 1_555 1_555
C35_7 C36_7 1_555 1_555
I5_7 Zn3_7 1_555 1_555
I6_6 Zn3_7 1_555 1_555
Zn3_7 N2_7 1_555 1_555
N2_7 C16_7 1_555 1_555
N3_3 C11_7 1_555 1_555
N4_7 C6_7 1_555 1_555
N5_7 C6_7 1_555 1_555
N6_7 C7_7 1_555 1_555
N7_7 Zn3_7 1_555 1_555
N9_4 C34_8 1_555 1_555
C7_7 N5_7 1_555 1_555
C8_7 N4_7 1_555 1_555
C9_7 C7_7 1_555 1_555
C10_7 C9_7 1_555 1_555
H5_7 C10_7 1_555 1_555
C11_7 C10_7 1_555 1_555
H6_7 C11_7 1_555 1_555
C12_7 N3_3 1_555 1_555
H7_7 C12_7 1_555 1_555
C13_7 C9_7 1_555 1_555
H8_7 C13_7 1_555 1_555
C14_7 C8_7 1_555 1_555
C15_7 C14_7 1_555 1_555
H9_7 C15_7 1_555 1_555
C16_7 C15_7 1_555 1_555
H10_7 C16_7 1_555 1_555
C17_7 N2_7 1_555 1_555
H11_7 C17_7 1_555 1_555
C18_7 C14_7 1_555 1_555
H12_7 C18_7 1_555 1_555
C19_7 N7_7 1_555 1_555
H13_7 C19_7 1_555 1_555
C20_8 C19_7 1_555 1_555
H14_8 C20_8 1_555 1_555
H21_8 C33_8 1_555 1_555
C34_8 C33_8 1_555 1_555
H22_8 C34_8 1_555 1_555
C35_8 N9_4 1_555 1_555
Zn4_4 N9_4 1_555 1_555
N6_7 C8_7 1_555 1_555
C12_7 C13_7 1_555 1_555
C17_7 C18_7 1_555 1_555
I1_8 Zn4_4 1_555 1_555
I2_8 Zn4_4 1_555 1_555
Zn4_4 N1_8 1_555 1_555
N1_8 C1_8 1_555 1_555
C1_8 H1_8 1_555 1_555
C2_8 C1_8 1_555 1_555
H2_8 C2_8 1_555 1_555
C3_8 C2_8 1_555 1_555
C4_8 C3_8 1_555 1_555
C5_8 N1_8 1_555 1_555
H4_8 C5_8 1_555 1_555
H15_8 C22_8 1_555 1_555
H16_8 C23_8 1_555 1_555
C4_8 C5_8 1_555 1_555
C22_8 C23_8 1_555 1_555
I5_8 Zn3_8 1_555 1_555
Zn3_8 N2_8 1_555 1_555
N2_8 C16_8 1_555 1_555
N3_4 C11_8 1_555 1_555
N4_8 C6_8 1_555 1_555
N5_8 C6_8 1_555 1_555
N6_8 C7_8 1_555 1_555
N7_8 Zn3_8 1_555 1_555
C7_8 N5_8 1_555 1_555
C8_8 N4_8 1_555 1_555
C9_8 C7_8 1_555 1_555
C10_8 C9_8 1_555 1_555
H5_8 C10_8 1_555 1_555
C11_8 C10_8 1_555 1_555
H6_8 C11_8 1_555 1_555
C12_8 N3_4 1_555 1_555
H7_8 C12_8 1_555 1_555
C13_8 C9_8 1_555 1_555
H8_8 C13_8 1_555 1_555
C14_8 C8_8 1_555 1_555
C15_8 C14_8 1_555 1_555
H9_8 C15_8 1_555 1_555
C16_8 C15_8 1_555 1_555
H10_8 C16_8 1_555 1_555
C17_8 N2_8 1_555 1_555
H11_8 C17_8 1_555 1_555
C18_8 C14_8 1_555 1_555
H12_8 C18_8 1_555 1_555
C19_8 N7_8 1_555 1_555
H13_8 C19_8 1_555 1_555
Zn5_4 N3_4 1_555 1_555
N6_8 C8_8 1_555 1_555
C12_8 C13_8 1_555 1_555
C17_8 C18_8 1_555 1_555
I3_7 Zn5_4 1_555 1_555
I4_7 Zn5_4 1_555 1_555
I3_8 Zn2_4 1_555 1_555
I4_8 Zn2_4 1_555 1_555
Zn2_4 N8_8 1_555 1_555
N8_8 C27_8 1_555 1_555
N10_8 C24_8 1_555 1_555
N11_8 C25_8 1_555 1_555
N12_8 C24_8 1_555 1_555
C24_8 C21_8 1_555 1_555
C25_8 N12_8 1_555 1_555
C26_8 N10_8 1_555 1_555
C27_8 H17_8 1_555 1_555
C28_8 C27_8 1_555 1_555
H18_8 C28_8 1_555 1_555
C29_8 C26_8 1_555 1_555
C30_8 C29_8 1_555 1_555
H19_8 C30_8 1_555 1_555
C31_8 N8_8 1_555 1_555
H20_8 C31_8 1_555 1_555
C32_8 C25_8 1_555 1_555
C36_8 C32_8 1_555 1_555
H24_8 C36_8 1_555 1_555
N11_8 C26_8 1_555 1_555
C28_8 C29_8 1_555 1_555
C30_8 C31_8 1_555 1_555

#END
