
###############################################################################
#
# This file contains modified crystal structure data generated from the
# MOF subset of the Cambridge Structural Database (CSD) v543 
# hosted by the Cambridge Crystallographic Data Centre (CCDC).
#
# This work is licensed under the Creative Commons
# Attribution-NonCommercial-ShareAlike 4.0 International License.
# To view a copy of this license, visit
# http://creativecommons.org/licenses/by-nc-sa/4.0/
# or send a letter to
# Creative Commons, PO Box 1866, Mountain View, CA 94042, USA.
#
# CIF created using the CSD Python API on 29 September 2022
# The structure has been converted into the P1 space group
# The structure has a 3D framework
# The original CSD entry DAMYOI is in the monoclinic crystal system
# The framework has been calculated to contain at least 10.0% void space
# The void calculation uses a probe of radius 1.32A, grid spacing 0.4
# H atom positions have been added when not included in the experimental data
#
###############################################################################

data_DAMYOI
_chemical_formula_moiety         '(C256 H200 O82 Tm10)n'
_symmetry_cell_setting           triclinic
_symmetry_space_group_name_H-M   'P 1'
_symmetry_Int_Tables_number      1
_space_group_name_Hall           'P 1'
loop_
_symmetry_equiv_pos_site_id
_symmetry_equiv_pos_as_xyz
1 x,y,z
_cell_length_a                   30.4920(8)
_cell_length_b                   15.9861(7)
_cell_length_c                   25.7022(13)
_cell_angle_alpha                90
_cell_angle_beta                 89.991(3)
_cell_angle_gamma                90
_cell_volume                     12528.5
loop_
_atom_site_label
_atom_site_type_symbol
_atom_site_fract_x
_atom_site_fract_y
_atom_site_fract_z
Tm7 Tm 0.00043(9) 0.79194(9) 0.75111(12)
Tm5 Tm 0.99989(7) 0.09772(6) 0.06366(11)
Tm9 Tm 0.99970(8) 0.06909(6) 0.43751(11)
Tm1 Tm 0.49989(7) 0.59772(6) 0.06366(11)
Tm2 Tm 0.50043(9) 0.70806(9) 0.25111(12)
Tm3 Tm 0.49970(8) 0.56909(6) 0.43751(11)
O1 O 0.5145(12) 0.753(2) 0.0540(12)
O2 O 0.5030(7) 0.5668(10) 0.2374(6)
O3 O 0.5253(8) 0.8406(15) 0.2275(9)
O4 O 0.4754(8) 0.8227(16) 0.3012(9)
O5 O 0.5056(13) 0.715(2) 0.4395(12)
O6 O 0.4472(6) 0.6982(8) 0.1987(6)
O7 O 0.4574(6) 0.6425(8) 0.1232(7)
C1 C 0.4334(5) 0.6787(5) 0.1550(5)
C2 C 0.3865(5) 0.7006(8) 0.1418(7)
C3 C 0.3590(6) 0.7405(10) 0.1756(8)
H1 H 0.3693 0.7553 0.2084
C4 C 0.3151(6) 0.7598(12) 0.1617(8)
H2 H 0.2969 0.7870 0.1854
C5 C 0.2995(6) 0.7391(11) 0.1144(8)
C6 C 0.3258(6) 0.6997(11) 0.0803(9)
H3 H 0.3152 0.6850 0.0476
C7 C 0.3698(6) 0.6805(10) 0.0942(8)
H4 H 0.3876 0.6535 0.0701
C8 C 0.2527(6) 0.7626(14) 0.1036(11)
H5 H 0.2398 0.7324 0.0767
O8 O 0.5490(5) 0.7206(8) 0.1837(5)
O9 O 0.5555(5) 0.6210(7) 0.1217(5)
C9 C 0.5684(4) 0.6787(6) 0.1502(3)
C10 C 0.6160(4) 0.7043(9) 0.1442(5)
C11 C 0.6333(6) 0.7674(10) 0.1736(7)
H6 H 0.6158 0.7950 0.1978
C12 C 0.6780(6) 0.7909(11) 0.1677(7)
H7 H 0.6898 0.8336 0.1878
C13 C 0.7030(6) 0.7507(10) 0.1324(7)
C14 C 0.6871(6) 0.6884(11) 0.1027(7)
H8 H 0.7049 0.6615 0.0785
C15 C 0.6424(5) 0.6649(11) 0.1090(6)
H9 H 0.6310 0.6218 0.0889
C16 C 0.7499(6) 0.7781(14) 0.1280(9)
H10 H 0.7570 0.8204 0.1514
O10 O 0.0408(6) 0.9784(9) 0.0633(7)
O11 O 0.0455(6) 0.8764(10) 0.0054(5)
C17 C 0.0595(4) 0.9181(7) 0.0427(4)
C18 C 0.1035(4) 0.8920(10) 0.0645(6)
C19 C 0.1214(6) 0.9344(12) 0.1055(7)
H11 H 0.1070 0.9797 0.1205
C20 C 0.1629(6) 0.9073(13) 0.1244(8)
H12 H 0.1756 0.9354 0.1523
C21 C 0.1843(6) 0.8421(11) 0.1031(8)
C22 C 0.1666(6) 0.8002(13) 0.0628(8)
H13 H 0.1814 0.7552 0.0480
C23 C 0.1252(6) 0.8258(12) 0.0431(8)
H14 H 0.1128 0.7972 0.0153
C24 C 0.2280(7) 0.8150(15) 0.1241(10)
H15 H 0.2374 0.8395 0.1550
H16 H 0.6090 0.6947 0.0044
O14 O 0.5549(6) 0.6771(10) 0.3039(5)
O15 O 0.5505(6) 0.5934(9) 0.3713(6)
C33 C 0.5702(4) 0.6447(6) 0.3438(4)
C34 C 0.6160(4) 0.6740(9) 0.3564(6)
C35 C 0.6378(5) 0.7307(11) 0.3261(8)
H21 H 0.6239 0.7523 0.2968
C36 C 0.6810(6) 0.7577(13) 0.3381(8)
H22 H 0.6957 0.7961 0.3173
C37 C 0.6997(6) 0.7253(11) 0.3811(8)
C38 C 0.6792(5) 0.6694(12) 0.4117(8)
H23 H 0.6934 0.6483 0.4410
C39 C 0.6361(5) 0.6424(11) 0.3995(7)
H24 H 0.6217 0.6038 0.4206
C40 C 0.7453(6) 0.7508(15) 0.3966(10)
H25 H 0.7491 0.7501 0.4325
O18 O 0.9607(5) 0.9456(8) 0.4295(6)
O19 O 0.9539(5) 0.8630(9) 0.5001(5)
C49 C 0.9425(4) 0.8929(6) 0.4576(4)
C50 C 0.8995(4) 0.8609(8) 0.4359(6)
C51 C 0.8845(5) 0.8903(11) 0.3894(7)
H31 H 0.9004 0.9299 0.3709
C52 C 0.8440(5) 0.8596(12) 0.3696(8)
H32 H 0.8334 0.8791 0.3380
C53 C 0.8213(5) 0.8024(11) 0.3968(7)
C54 C 0.8366(6) 0.7737(12) 0.4425(8)
H33 H 0.8205 0.7339 0.4606
C55 C 0.8768(5) 0.8026(10) 0.4638(7)
H34 H 0.8872 0.7826 0.4954
C56 C 0.7788(6) 0.7724(15) 0.3736(10)
H35 H 0.7778 0.7698 0.3375
O20 O 0.9544(6) 0.9140(10) 0.0010(5)
O21 O 0.9537(6) 0.9889(9) 0.0755(7)
C57 C 0.9400(4) 0.9364(7) 0.0440(4)
C58 C 0.8986(4) 0.8926(10) 0.0618(8)
C59 C 0.8810(6) 0.8337(13) 0.0296(9)
C60 C 0.8420(7) 0.7921(14) 0.0454(10)
H37 H 0.8301 0.7518 0.0235
C61 C 0.8216(7) 0.8082(13) 0.0907(9)
C62 C 0.8389(7) 0.8663(14) 0.1225(10)
H38 H 0.8253 0.8786 0.1540
C63 C 0.8779(6) 0.9091(13) 0.1078(9)
H39 H 0.8896 0.9491 0.1301
C64 C 0.7808(7) 0.7581(17) 0.1010(12)
H40 H 0.7791 0.7061 0.0849
Tm6 Tm 0.99989(7) 0.90228(6) 0.56366(11)
O22 O 0.5408(6) 0.4784(9) 0.0633(7)
O23 O 0.5455(6) 0.6236(10) 0.5054(5)
O24 O 0.5556(6) 0.4797(9) 0.4200(6)
O25 O 0.4521(7) 0.6876(10) 0.3125(6)
O26 O 0.4507(7) 0.6149(9) 0.3857(7)
O27 O 0.4607(5) 0.4456(8) 0.4295(6)
O28 O 0.4539(5) 0.6370(9) 0.0001(5)
O29 O 0.4544(6) 0.5860(10) 0.5010(5)
O30 O 0.4537(6) 0.4889(9) 0.0755(7)
H41 H 0.486349 0.817218 0.337423
H42 H 0.48651 0.875608 0.285834
H43 H 0.526367 0.775408 0.0871671
H44 H 0.536143 0.76218 0.0256984
H45 H 0.496767 0.73828 0.40525
H46 H 0.486114 0.737667 0.467062
H47 H 0.51793 0.851359 0.190468
H48 H 0.510979 0.8834 0.249759
H49 H 0.533415 0.546458 0.242924
H50 H 0.482941 0.538297 0.262144
O12 O 0.5463(6) 0.5975(10) 0.9925(5)
O13 O 0.5556(6) 0.5203(9) 0.9200(6)
C25 C 0.5657(4) 0.5740(6) 0.9528(4)
C26 C 0.6087(4) 0.6186(10) 0.9430(7)
C27 C 0.6248(6) 0.6793(12) 0.9750(8)
C28 C 0.6654(6) 0.7193(14) 0.9643(9)
H17 H 0.6755 0.7605 0.9869
C29 C 0.6898(7) 0.6995(12) 0.9223(8)
C30 C 0.6747(7) 0.6397(13) 0.8901(9)
H18 H 0.6909 0.6247 0.8608
C31 C 0.6340(6) 0.5998(13) 0.9008(8)
H19 H 0.6242 0.5588 0.8779
C32 C 0.7323(7) 0.7453(16) 0.9144(11)
H20 H 0.7392 0.7933 0.9331
O16 O 0.9521(7) 0.8124(10) 0.8125(6)
O17 O 0.9507(7) 0.8851(9) 0.8857(7)
C41 C 0.9343(5) 0.8379(6) 0.8529(5)
C42 C 0.8880(5) 0.8076(9) 0.8621(8)
C43 C 0.8692(7) 0.7554(12) 0.8264(9)
H26 H 0.8848 0.7389 0.7971
C44 C 0.8257(7) 0.7264(14) 0.8343(9)
H27 H 0.8127 0.6910 0.8101
C45 C 0.8033(7) 0.7502(12) 0.8769(9)
C46 C 0.8211(7) 0.8016(13) 0.9127(9)
H28 H 0.8052 0.8176 0.9419
C47 C 0.8646(7) 0.8309(13) 0.9049(8)
H29 H 0.8773 0.8664 0.9293
C48 C 0.7576(7) 0.7156(16) 0.8814(11)
H30 H 0.7485 0.6725 0.8597
H36 H 0.8942 0.8210 0.9979
Tm8 Tm 0.49970(8) 0.43091(6) 0.93751(11)
Tm11 Tm 0.99970(8) 0.93091(6) 0.93751(11)
Tm7_2 Tm 0.00043(9) 0.20806(9) 0.25111(12)
O19_2 O 0.9539(5) 0.1370(9) 0.0001(5)
O23_2 O 0.5455(6) 0.3764(10) 0.0054(5)
O29_2 O 0.4544(6) 0.4140(10) 0.0010(5)
Tm1_2 Tm 0.49989(7) 0.40228(6) 0.56366(11)
Tm2_2 Tm 0.50043(9) 0.29194(9) 0.75111(12)
O1_2 O 0.5145(12) 0.247(2) 0.5540(12)
O2_2 O 0.5030(7) 0.4332(10) 0.7374(6)
O3_2 O 0.5253(8) 0.1594(15) 0.7275(9)
O4_2 O 0.4754(8) 0.1773(16) 0.8012(9)
O5_2 O 0.5056(13) 0.285(2) 0.9395(12)
O6_2 O 0.4472(6) 0.3018(8) 0.6987(6)
O7_2 O 0.4574(6) 0.3575(8) 0.6232(7)
C1_2 C 0.4334(5) 0.3213(5) 0.6550(5)
C2_2 C 0.3865(5) 0.2994(8) 0.6418(7)
C3_2 C 0.3590(6) 0.2595(10) 0.6756(8)
H1_2 H 0.3693 0.2447 0.7084
C4_2 C 0.3151(6) 0.2402(12) 0.6617(8)
H2_2 H 0.2969 0.2130 0.6854
C5_2 C 0.2995(6) 0.2609(11) 0.6144(8)
C6_2 C 0.3258(6) 0.3003(11) 0.5803(9)
H3_2 H 0.3152 0.3150 0.5476
C7_2 C 0.3698(6) 0.3195(10) 0.5942(8)
H4_2 H 0.3876 0.3465 0.5701
C8_2 C 0.2527(6) 0.2374(14) 0.6036(11)
H5_2 H 0.2398 0.2676 0.5767
O8_2 O 0.5490(5) 0.2794(8) 0.6837(5)
O9_2 O 0.5555(5) 0.3790(7) 0.6217(5)
C9_2 C 0.5684(4) 0.3213(6) 0.6502(3)
C10_2 C 0.6160(4) 0.2957(9) 0.6442(5)
C11_2 C 0.6333(6) 0.2326(10) 0.6736(7)
H6_2 H 0.6158 0.2050 0.6978
C12_2 C 0.6780(6) 0.2091(11) 0.6677(7)
H7_2 H 0.6898 0.1664 0.6878
C13_2 C 0.7030(6) 0.2493(10) 0.6324(7)
C14_2 C 0.6871(6) 0.3116(11) 0.6027(7)
H8_2 H 0.7049 0.3385 0.5785
C15_2 C 0.6424(5) 0.3351(11) 0.6090(6)
H9_2 H 0.6310 0.3782 0.5889
C16_2 C 0.7499(6) 0.2219(14) 0.6280(9)
H10_2 H 0.7570 0.1796 0.6514
O10_2 O 0.0408(6) 0.0216(9) 0.5633(7)
O11_2 O 0.0455(6) 0.1236(10) 0.5054(5)
C17_2 C 0.0595(4) 0.0819(7) 0.5427(4)
C18_2 C 0.1035(4) 0.1080(10) 0.5645(6)
C19_2 C 0.1214(6) 0.0656(12) 0.6055(7)
H11_2 H 0.1070 0.0203 0.6205
C20_2 C 0.1629(6) 0.0927(13) 0.6244(8)
H12_2 H 0.1756 0.0646 0.6523
C21_2 C 0.1843(6) 0.1579(11) 0.6031(8)
C22_2 C 0.1666(6) 0.1998(13) 0.5628(8)
H13_2 H 0.1814 0.2448 0.5480
C23_2 C 0.1252(6) 0.1742(12) 0.5431(8)
H14_2 H 0.1128 0.2028 0.5153
C24_2 C 0.2280(7) 0.1850(15) 0.6241(10)
H15_2 H 0.2374 0.1605 0.6550
O12_2 O 0.5463(6) 0.4025(10) 0.4925(5)
C25_2 C 0.5657(4) 0.4260(6) 0.4528(4)
C26_2 C 0.6087(4) 0.3814(10) 0.4430(7)
C27_2 C 0.6248(6) 0.3207(12) 0.4750(8)
H16_2 H 0.6090 0.3053 0.5044
C28_2 C 0.6654(6) 0.2807(14) 0.4643(9)
H17_2 H 0.6755 0.2395 0.4869
C29_2 C 0.6898(7) 0.3005(12) 0.4223(8)
C30_2 C 0.6747(7) 0.3603(13) 0.3901(9)
H18_2 H 0.6909 0.3753 0.3608
C31_2 C 0.6340(6) 0.4002(13) 0.4008(8)
H19_2 H 0.6242 0.4412 0.3779
C32_2 C 0.7323(7) 0.2547(16) 0.4144(11)
H20_2 H 0.7392 0.2067 0.4331
O14_2 O 0.5549(6) 0.3229(10) 0.8039(5)
O15_2 O 0.5505(6) 0.4066(9) 0.8713(6)
C33_2 C 0.5702(4) 0.3553(6) 0.8438(4)
C34_2 C 0.6160(4) 0.3260(9) 0.8564(6)
C35_2 C 0.6378(5) 0.2693(11) 0.8261(8)
H21_2 H 0.6239 0.2477 0.7968
C36_2 C 0.6810(6) 0.2423(13) 0.8381(8)
H22_2 H 0.6957 0.2039 0.8173
C37_2 C 0.6997(6) 0.2747(11) 0.8811(8)
C38_2 C 0.6792(5) 0.3306(12) 0.9117(8)
H23_2 H 0.6934 0.3517 0.9410
C39_2 C 0.6361(5) 0.3576(11) 0.8995(7)
H24_2 H 0.6217 0.3962 0.9206
C40_2 C 0.7453(6) 0.2492(15) 0.8966(10)
H25_2 H 0.7491 0.2499 0.9325
O16_2 O 0.9521(7) 0.1876(10) 0.3125(6)
O17_2 O 0.9507(7) 0.1149(9) 0.3857(7)
C41_2 C 0.9343(5) 0.1621(6) 0.3529(5)
C42_2 C 0.8880(5) 0.1924(9) 0.3621(8)
C43_2 C 0.8692(7) 0.2446(12) 0.3264(9)
H26_2 H 0.8848 0.2611 0.2971
C44_2 C 0.8257(7) 0.2736(14) 0.3343(9)
H27_2 H 0.8127 0.3090 0.3101
C45_2 C 0.8033(7) 0.2498(12) 0.3769(9)
C46_2 C 0.8211(7) 0.1984(13) 0.4127(9)
H28_2 H 0.8052 0.1824 0.4419
C47_2 C 0.8646(7) 0.1691(13) 0.4049(8)
H29_2 H 0.8773 0.1336 0.4293
C48_2 C 0.7576(7) 0.2844(16) 0.3814(11)
H30_2 H 0.7485 0.3275 0.3597
O18_2 O 0.9607(5) 0.0544(8) 0.9295(6)
C49_2 C 0.9425(4) 0.1071(6) 0.9576(4)
C50_2 C 0.8995(4) 0.1391(8) 0.9359(6)
C51_2 C 0.8845(5) 0.1097(11) 0.8894(7)
H31_2 H 0.9004 0.0701 0.8709
C52_2 C 0.8440(5) 0.1404(12) 0.8696(8)
H32_2 H 0.8334 0.1209 0.8380
C53_2 C 0.8213(5) 0.1976(11) 0.8968(7)
C54_2 C 0.8366(6) 0.2263(12) 0.9425(8)
H33_2 H 0.8205 0.2661 0.9606
C55_2 C 0.8768(5) 0.1974(10) 0.9638(7)
H34_2 H 0.8872 0.2174 0.9954
C56_2 C 0.7788(6) 0.2276(15) 0.8736(10)
H35_2 H 0.7778 0.2302 0.8375
O20_2 O 0.9544(6) 0.0860(10) 0.5010(5)
O21_2 O 0.9537(6) 0.0111(9) 0.5755(7)
C57_2 C 0.9400(4) 0.0636(7) 0.5440(4)
C58_2 C 0.8986(4) 0.1074(10) 0.5618(8)
C59_2 C 0.8810(6) 0.1663(13) 0.5296(9)
H36_2 H 0.8942 0.1790 0.4979
C60_2 C 0.8420(7) 0.2079(14) 0.5454(10)
H37_2 H 0.8301 0.2482 0.5235
C61_2 C 0.8216(7) 0.1918(13) 0.5907(9)
C62_2 C 0.8389(7) 0.1337(14) 0.6225(10)
H38_2 H 0.8253 0.1214 0.6540
C63_2 C 0.8779(6) 0.0909(13) 0.6078(9)
H39_2 H 0.8896 0.0509 0.6301
C64_2 C 0.7808(7) 0.2419(17) 0.6010(12)
H40_2 H 0.7791 0.2939 0.5849
O22_2 O 0.5408(6) 0.5216(9) 0.5633(7)
O25_2 O 0.4521(7) 0.3124(10) 0.8125(6)
O26_2 O 0.4507(7) 0.3851(9) 0.8857(7)
O27_2 O 0.4607(5) 0.5544(8) 0.9295(6)
O28_2 O 0.4539(5) 0.3630(9) 0.5001(5)
O30_2 O 0.4537(6) 0.5111(9) 0.5755(7)
H41_2 H 0.486349 0.182782 0.837423
H42_2 H 0.48651 0.124392 0.785834
H43_2 H 0.526367 0.224592 0.587167
H44_2 H 0.536143 0.23782 0.525698
H45_2 H 0.496767 0.26172 0.90525
H46_2 H 0.486114 0.262333 0.967062
H47_2 H 0.51793 0.148641 0.690468
H48_2 H 0.510979 0.1166 0.749759
H49_2 H 0.533415 0.453542 0.742924
H50_2 H 0.482941 0.461703 0.762144
O1_3 O 0.0145(12) 0.253(2) 0.0540(12)
O2_3 O 0.0030(7) 0.0668(10) 0.2374(6)
O3_3 O 0.0253(8) 0.3406(15) 0.2275(9)
O5_3 O 0.0056(13) 0.215(2) 0.4395(12)
O8_3 O 0.0490(5) 0.2206(8) 0.1837(5)
O9_3 O 0.0555(5) 0.1210(7) 0.1217(5)
C9_3 C 0.0684(4) 0.1787(6) 0.1502(3)
C10_3 C 0.1160(4) 0.2043(9) 0.1442(5)
C11_3 C 0.1333(6) 0.2674(10) 0.1736(7)
H6_3 H 0.1158 0.2950 0.1978
C12_3 C 0.1780(6) 0.2909(11) 0.1677(7)
H7_3 H 0.1898 0.3336 0.1878
C13_3 C 0.2030(6) 0.2507(10) 0.1324(7)
C14_3 C 0.1871(6) 0.1884(11) 0.1027(7)
H8_3 H 0.2049 0.1615 0.0785
C15_3 C 0.1424(5) 0.1649(11) 0.1090(6)
H9_3 H 0.1310 0.1218 0.0889
C16_3 C 0.2499(6) 0.2781(14) 0.1280(9)
H10_3 H 0.2570 0.3204 0.1514
H16_3 H 0.1090 0.1947 0.0044
O14_3 O 0.0549(6) 0.1771(10) 0.3039(5)
O15_3 O 0.0505(6) 0.0934(9) 0.3713(6)
C33_3 C 0.0702(4) 0.1447(6) 0.3438(4)
C34_3 C 0.1160(4) 0.1740(9) 0.3564(6)
C35_3 C 0.1378(5) 0.2307(11) 0.3261(8)
H21_3 H 0.1239 0.2523 0.2968
C36_3 C 0.1810(6) 0.2577(13) 0.3381(8)
H22_3 H 0.1957 0.2961 0.3173
C37_3 C 0.1997(6) 0.2253(11) 0.3811(8)
C38_3 C 0.1792(5) 0.1694(12) 0.4117(8)
H23_3 H 0.1934 0.1483 0.4410
C39_3 C 0.1361(5) 0.1424(11) 0.3995(7)
H24_3 H 0.1217 0.1038 0.4206
C40_3 C 0.2453(6) 0.2508(15) 0.3966(10)
H25_3 H 0.2491 0.2501 0.4325
C49_3 C 0.4425(4) 0.3929(6) 0.4576(4)
C50_3 C 0.3995(4) 0.3609(8) 0.4359(6)
C51_3 C 0.3845(5) 0.3903(11) 0.3894(7)
H31_3 H 0.4004 0.4299 0.3709
C52_3 C 0.3440(5) 0.3596(12) 0.3696(8)
H32_3 H 0.3334 0.3791 0.3380
C53_3 C 0.3213(5) 0.3024(11) 0.3968(7)
C54_3 C 0.3366(6) 0.2737(12) 0.4425(8)
H33_3 H 0.3205 0.2339 0.4606
C55_3 C 0.3768(5) 0.3026(10) 0.4638(7)
H34_3 H 0.3872 0.2826 0.4954
C56_3 C 0.2788(6) 0.2724(15) 0.3736(10)
H35_3 H 0.2778 0.2698 0.3375
C57_3 C 0.4400(4) 0.4364(7) 0.0440(4)
C58_3 C 0.3986(4) 0.3926(10) 0.0618(8)
C59_3 C 0.3810(6) 0.3337(13) 0.0296(9)
C60_3 C 0.3420(7) 0.2921(14) 0.0454(10)
H37_3 H 0.3301 0.2518 0.0235
C61_3 C 0.3216(7) 0.3082(13) 0.0907(9)
C62_3 C 0.3389(7) 0.3663(14) 0.1225(10)
H38_3 H 0.3253 0.3786 0.1540
C63_3 C 0.3779(6) 0.4091(13) 0.1078(9)
H39_3 H 0.3896 0.4491 0.1301
C64_3 C 0.2808(7) 0.2581(17) 0.1010(12)
H40_3 H 0.2791 0.2061 0.0849
H43_3 H 0.0263668 0.275408 0.0871671
H44_3 H 0.0361434 0.26218 0.0256984
H47_3 H 0.0179305 0.351359 0.190468
H48_3 H 0.0109791 0.3834 0.249759
H49_3 H 0.033415 0.0464576 0.242924
O12_3 O 0.0463(6) 0.0975(10) 0.9925(5)
O13_2 O 0.0556(6) 0.0203(9) 0.9200(6)
C25_3 C 0.0657(4) 0.0740(6) 0.9528(4)
C26_3 C 0.1087(4) 0.1186(10) 0.9430(7)
C27_3 C 0.1248(6) 0.1793(12) 0.9750(8)
C28_3 C 0.1654(6) 0.2193(14) 0.9643(9)
H17_3 H 0.1755 0.2605 0.9869
C29_3 C 0.1898(7) 0.1995(12) 0.9223(8)
C30_3 C 0.1747(7) 0.1397(13) 0.8901(9)
H18_3 H 0.1909 0.1247 0.8608
C31_3 C 0.1340(6) 0.0998(13) 0.9008(8)
H19_3 H 0.1242 0.0588 0.8779
C32_3 C 0.2323(7) 0.2453(16) 0.9144(11)
H20_3 H 0.2392 0.2933 0.9331
C41_3 C 0.4343(5) 0.3379(6) 0.8529(5)
C42_3 C 0.3880(5) 0.3076(9) 0.8621(8)
C43_3 C 0.3692(7) 0.2554(12) 0.8264(9)
H26_3 H 0.3848 0.2389 0.7971
C44_3 C 0.3257(7) 0.2264(14) 0.8343(9)
H27_3 H 0.3127 0.1910 0.8101
C45_3 C 0.3033(7) 0.2502(12) 0.8769(9)
C46_3 C 0.3211(7) 0.3016(13) 0.9127(9)
H28_3 H 0.3052 0.3176 0.9419
C47_3 C 0.3646(7) 0.3309(13) 0.9049(8)
H29_3 H 0.3773 0.3664 0.9293
C48_3 C 0.2576(7) 0.2156(16) 0.8814(11)
H30_3 H 0.2485 0.1725 0.8597
H36_3 H 0.3942 0.3210 0.9979
O24_2 O 0.0556(6) 0.9797(9) 0.4200(6)
O4_3 O 0.9754(8) 0.3227(16) 0.3012(9)
O6_3 O 0.9472(6) 0.1982(8) 0.1987(6)
O7_3 O 0.9574(6) 0.1425(8) 0.1232(7)
C1_3 C 0.9334(5) 0.1787(5) 0.1550(5)
C2_3 C 0.8865(5) 0.2006(8) 0.1418(7)
C3_3 C 0.8590(6) 0.2405(10) 0.1756(8)
H1_3 H 0.8693 0.2553 0.2084
C4_3 C 0.8151(6) 0.2598(12) 0.1617(8)
H2_3 H 0.7969 0.2870 0.1854
C5_3 C 0.7995(6) 0.2391(11) 0.1144(8)
C6_3 C 0.8258(6) 0.1997(11) 0.0803(9)
H3_3 H 0.8152 0.1850 0.0476
C7_3 C 0.8698(6) 0.1805(10) 0.0942(8)
H4_3 H 0.8876 0.1535 0.0701
C8_3 C 0.7527(6) 0.2626(14) 0.1036(11)
H5_3 H 0.7398 0.2324 0.0767
C17_3 C 0.5595(4) 0.4181(7) 0.0427(4)
C18_3 C 0.6035(4) 0.3920(10) 0.0645(6)
C19_3 C 0.6214(6) 0.4344(12) 0.1055(7)
H11_3 H 0.6070 0.4797 0.1205
C20_3 C 0.6629(6) 0.4073(13) 0.1244(8)
H12_3 H 0.6756 0.4354 0.1523
C21_3 C 0.6843(6) 0.3421(11) 0.1031(8)
C22_3 C 0.6666(6) 0.3002(13) 0.0628(8)
H13_3 H 0.6814 0.2552 0.0480
C23_3 C 0.6252(6) 0.3258(12) 0.0431(8)
H14_3 H 0.6128 0.2972 0.0153
C24_3 C 0.7280(7) 0.3150(15) 0.1241(10)
H15_3 H 0.7374 0.3395 0.1550
H41_3 H 0.986349 0.317218 0.337423
H42_3 H 0.98651 0.375608 0.285834
H45_3 H 0.996767 0.23828 0.40525
H46_3 H 0.986114 0.237667 0.467062
H50_3 H 0.982941 0.0382972 0.262144
O1_4 O 0.0145(12) 0.747(2) 0.5540(12)
O2_4 O 0.0030(7) 0.9332(10) 0.7374(6)
O3_4 O 0.0253(8) 0.6594(15) 0.7275(9)
O5_4 O 0.0056(13) 0.785(2) 0.9395(12)
O8_4 O 0.0490(5) 0.7794(8) 0.6837(5)
O9_4 O 0.0555(5) 0.8790(7) 0.6217(5)
C9_4 C 0.0684(4) 0.8213(6) 0.6502(3)
C10_4 C 0.1160(4) 0.7957(9) 0.6442(5)
C11_4 C 0.1333(6) 0.7326(10) 0.6736(7)
H6_4 H 0.1158 0.7050 0.6978
C12_4 C 0.1780(6) 0.7091(11) 0.6677(7)
H7_4 H 0.1898 0.6664 0.6878
C13_4 C 0.2030(6) 0.7493(10) 0.6324(7)
C14_4 C 0.1871(6) 0.8116(11) 0.6027(7)
H8_4 H 0.2049 0.8385 0.5785
C15_4 C 0.1424(5) 0.8351(11) 0.6090(6)
H9_4 H 0.1310 0.8782 0.5889
C16_4 C 0.2499(6) 0.7219(14) 0.6280(9)
H10_4 H 0.2570 0.6796 0.6514
O12_4 O 0.0463(6) 0.9025(10) 0.4925(5)
C25_4 C 0.0657(4) 0.9260(6) 0.4528(4)
C26_4 C 0.1087(4) 0.8814(10) 0.4430(7)
C27_4 C 0.1248(6) 0.8207(12) 0.4750(8)
H16_4 H 0.1090 0.8053 0.5044
C28_4 C 0.1654(6) 0.7807(14) 0.4643(9)
H17_4 H 0.1755 0.7395 0.4869
C29_4 C 0.1898(7) 0.8005(12) 0.4223(8)
C30_4 C 0.1747(7) 0.8603(13) 0.3901(9)
H18_4 H 0.1909 0.8753 0.3608
C31_4 C 0.1340(6) 0.9002(13) 0.4008(8)
H19_4 H 0.1242 0.9412 0.3779
C32_4 C 0.2323(7) 0.7547(16) 0.4144(11)
H20_4 H 0.2392 0.7067 0.4331
O14_4 O 0.0549(6) 0.8229(10) 0.8039(5)
O15_4 O 0.0505(6) 0.9066(9) 0.8713(6)
C33_4 C 0.0702(4) 0.8553(6) 0.8438(4)
C34_4 C 0.1160(4) 0.8260(9) 0.8564(6)
C35_4 C 0.1378(5) 0.7693(11) 0.8261(8)
H21_4 H 0.1239 0.7477 0.7968
C36_4 C 0.1810(6) 0.7423(13) 0.8381(8)
H22_4 H 0.1957 0.7039 0.8173
C37_4 C 0.1997(6) 0.7747(11) 0.8811(8)
C38_4 C 0.1792(5) 0.8306(12) 0.9117(8)
H23_4 H 0.1934 0.8517 0.9410
C39_4 C 0.1361(5) 0.8576(11) 0.8995(7)
H24_4 H 0.1217 0.8962 0.9206
C40_4 C 0.2453(6) 0.7492(15) 0.8966(10)
H25_4 H 0.2491 0.7499 0.9325
C41_4 C 0.4343(5) 0.6621(6) 0.3529(5)
C42_4 C 0.3880(5) 0.6924(9) 0.3621(8)
C43_4 C 0.3692(7) 0.7446(12) 0.3264(9)
H26_4 H 0.3848 0.7611 0.2971
C44_4 C 0.3257(7) 0.7736(14) 0.3343(9)
H27_4 H 0.3127 0.8090 0.3101
C45_4 C 0.3033(7) 0.7498(12) 0.3769(9)
C46_4 C 0.3211(7) 0.6984(13) 0.4127(9)
H28_4 H 0.3052 0.6824 0.4419
C47_4 C 0.3646(7) 0.6691(13) 0.4049(8)
H29_4 H 0.3773 0.6336 0.4293
C48_4 C 0.2576(7) 0.7844(16) 0.3814(11)
H30_4 H 0.2485 0.8275 0.3597
C49_4 C 0.4425(4) 0.6071(6) 0.9576(4)
C50_4 C 0.3995(4) 0.6391(8) 0.9359(6)
C51_4 C 0.3845(5) 0.6097(11) 0.8894(7)
H31_4 H 0.4004 0.5701 0.8709
C52_4 C 0.3440(5) 0.6404(12) 0.8696(8)
H32_4 H 0.3334 0.6209 0.8380
C53_4 C 0.3213(5) 0.6976(11) 0.8968(7)
C54_4 C 0.3366(6) 0.7263(12) 0.9425(8)
H33_4 H 0.3205 0.7661 0.9606
C55_4 C 0.3768(5) 0.6974(10) 0.9638(7)
H34_4 H 0.3872 0.7174 0.9954
C56_4 C 0.2788(6) 0.7276(15) 0.8736(10)
H35_4 H 0.2778 0.7302 0.8375
C57_4 C 0.4400(4) 0.5636(7) 0.5440(4)
C58_4 C 0.3986(4) 0.6074(10) 0.5618(8)
C59_4 C 0.3810(6) 0.6663(13) 0.5296(9)
H36_4 H 0.3942 0.6790 0.4979
C60_4 C 0.3420(7) 0.7079(14) 0.5454(10)
H37_4 H 0.3301 0.7482 0.5235
C61_4 C 0.3216(7) 0.6918(13) 0.5907(9)
C62_4 C 0.3389(7) 0.6337(14) 0.6225(10)
H38_4 H 0.3253 0.6214 0.6540
C63_4 C 0.3779(6) 0.5909(13) 0.6078(9)
H39_4 H 0.3896 0.5509 0.6301
C64_4 C 0.2808(7) 0.7419(17) 0.6010(12)
H40_4 H 0.2791 0.7939 0.5849
H43_4 H 0.0263668 0.724592 0.587167
H44_4 H 0.0361434 0.73782 0.525698
H47_4 H 0.0179305 0.648641 0.690468
H48_4 H 0.0109791 0.6166 0.749759
H49_4 H 0.033415 0.953542 0.742924
O4_4 O 0.9754(8) 0.6773(16) 0.8012(9)
O6_4 O 0.9472(6) 0.8018(8) 0.6987(6)
O7_4 O 0.9574(6) 0.8575(8) 0.6232(7)
C1_4 C 0.9334(5) 0.8213(5) 0.6550(5)
C2_4 C 0.8865(5) 0.7994(8) 0.6418(7)
C3_4 C 0.8590(6) 0.7595(10) 0.6756(8)
H1_4 H 0.8693 0.7447 0.7084
C4_4 C 0.8151(6) 0.7402(12) 0.6617(8)
H2_4 H 0.7969 0.7130 0.6854
C5_4 C 0.7995(6) 0.7609(11) 0.6144(8)
C6_4 C 0.8258(6) 0.8003(11) 0.5803(9)
H3_4 H 0.8152 0.8150 0.5476
C7_4 C 0.8698(6) 0.8195(10) 0.5942(8)
H4_4 H 0.8876 0.8465 0.5701
C8_4 C 0.7527(6) 0.7374(14) 0.6036(11)
H5_4 H 0.7398 0.7676 0.5767
C17_4 C 0.5595(4) 0.5819(7) 0.5427(4)
C18_4 C 0.6035(4) 0.6080(10) 0.5645(6)
C19_4 C 0.6214(6) 0.5656(12) 0.6055(7)
H11_4 H 0.6070 0.5203 0.6205
C20_4 C 0.6629(6) 0.5927(13) 0.6244(8)
H12_4 H 0.6756 0.5646 0.6523
C21_4 C 0.6843(6) 0.6579(11) 0.6031(8)
C22_4 C 0.6666(6) 0.6998(13) 0.5628(8)
H13_4 H 0.6814 0.7448 0.5480
C23_4 C 0.6252(6) 0.6742(12) 0.5431(8)
H14_4 H 0.6128 0.7028 0.5153
C24_4 C 0.7280(7) 0.6850(15) 0.6241(10)
H15_4 H 0.7374 0.6605 0.6550
H41_4 H 0.986349 0.682782 0.837423
H42_4 H 0.98651 0.624392 0.785834
H45_4 H 0.996767 0.76172 0.90525
H46_4 H 0.986114 0.762333 0.967062
H50_4 H 0.982941 0.961703 0.762144
loop_
_geom_bond_atom_site_label_1
_geom_bond_atom_site_label_2
_geom_bond_site_symmetry_1
_geom_bond_site_symmetry_2
Tm1 O1 1_555 1_555
Tm2 O2 1_555 1_555
Tm3 O5 1_555 1_555
O3 Tm2 1_555 1_555
O4 Tm2 1_555 1_555
O6 Tm2 1_555 1_555
O7 Tm1 1_555 1_555
C1 O6 1_555 1_555
C2 C1 1_555 1_555
C3 C2 1_555 1_555
H1 C3 1_555 1_555
C4 C3 1_555 1_555
H2 C4 1_555 1_555
C5 C4 1_555 1_555
C6 C5 1_555 1_555
H3 C6 1_555 1_555
C7 C2 1_555 1_555
H4 C7 1_555 1_555
C8 C5 1_555 1_555
H5 C8 1_555 1_555
O8 Tm2 1_555 1_555
O9 Tm1 1_555 1_555
C9 O8 1_555 1_555
C10 C9 1_555 1_555
C11 C10 1_555 1_555
H6 C11 1_555 1_555
C12 C11 1_555 1_555
H7 C12 1_555 1_555
C13 C12 1_555 1_555
C14 C13 1_555 1_555
H8 C14 1_555 1_555
C15 C10 1_555 1_555
H9 C15 1_555 1_555
C16 C13 1_555 1_555
H10 C16 1_555 1_555
O10 C17 1_555 1_555
O11 C17 1_555 1_555
C17 C18 1_555 1_555
C18 C19 1_555 1_555
C19 H11 1_555 1_555
C20 C19 1_555 1_555
H12 C20 1_555 1_555
C21 C20 1_555 1_555
C22 C21 1_555 1_555
H13 C22 1_555 1_555
C23 C18 1_555 1_555
H14 C23 1_555 1_555
C24 C8 1_555 1_555
H15 C24 1_555 1_555
O14 Tm2 1_555 1_555
O15 Tm3 1_555 1_555
C33 O14 1_555 1_555
C34 C33 1_555 1_555
C35 C34 1_555 1_555
H21 C35 1_555 1_555
C36 C35 1_555 1_555
H22 C36 1_555 1_555
C37 C36 1_555 1_555
C38 C37 1_555 1_555
H23 C38 1_555 1_555
C39 C34 1_555 1_555
H24 C39 1_555 1_555
C40 C37 1_555 1_555
H25 C40 1_555 1_555
O18 C49 1_555 1_555
O19 C49 1_555 1_555
C49 C50 1_555 1_555
C50 C51 1_555 1_555
C51 H31 1_555 1_555
C52 C51 1_555 1_555
H32 C52 1_555 1_555
C53 C52 1_555 1_555
C54 C53 1_555 1_555
H33 C54 1_555 1_555
C55 C50 1_555 1_555
H34 C55 1_555 1_555
C56 C40 1_555 1_555
H35 C56 1_555 1_555
O20 C57 1_555 1_555
O21 C57 1_555 1_555
C57 C58 1_555 1_555
C58 C59 1_555 1_555
C60 C59 1_555 1_555
H37 C60 1_555 1_555
C61 C60 1_555 1_555
C62 C61 1_555 1_555
H38 C62 1_555 1_555
C63 C58 1_555 1_555
H39 C63 1_555 1_555
C64 C16 1_555 1_555
H40 C64 1_555 1_555
Tm6 O19 1_555 1_555
O22 Tm1 1_555 1_555
O23 Tm3 1_555 1_555
O24 Tm3 1_555 1_555
O25 Tm2 1_555 1_555
O26 Tm3 1_555 1_555
O27 Tm3 1_555 1_555
O28 Tm1 1_555 1_555
O29 Tm3 1_555 1_555
O30 Tm1 1_555 1_555
O7 C1 1_555 1_555
C6 C7 1_555 1_555
O9 C9 1_555 1_555
C14 C15 1_555 1_555
C21 C24 1_555 1_555
C22 C23 1_555 1_555
O15 C33 1_555 1_555
C38 C39 1_555 1_555
C53 C56 1_555 1_555
C54 C55 1_555 1_555
C61 C64 1_555 1_555
C62 C63 1_555 1_555
O4 H41 1_555 1_555
O4 H42 1_555 1_555
O1 H43 1_555 1_555
O1 H44 1_555 1_555
O5 H45 1_555 1_555
O5 H46 1_555 1_555
O3 H47 1_555 1_555
O3 H48 1_555 1_555
O2 H49 1_555 1_555
O2 H50 1_555 1_555
O13 C25 1_555 1_555
C25 O12 1_555 1_555
C26 C25 1_555 1_555
C27 C26 1_555 1_555
C28 C27 1_555 1_555
H17 C28 1_555 1_555
C29 C28 1_555 1_555
C30 C29 1_555 1_555
H18 C30 1_555 1_555
C31 C26 1_555 1_555
H19 C31 1_555 1_555
C32 C29 1_555 1_555
H20 C32 1_555 1_555
O16 C41 1_555 1_555
O17 C41 1_555 1_555
C41 C42 1_555 1_555
C42 C43 1_555 1_555
C43 H26 1_555 1_555
C44 C43 1_555 1_555
H27 C44 1_555 1_555
C45 C44 1_555 1_555
C46 C45 1_555 1_555
H28 C46 1_555 1_555
C47 C42 1_555 1_555
H29 C47 1_555 1_555
C48 C32 1_555 1_555
H30 C48 1_555 1_555
Tm8 O13 1_555 1_555
Tm11 O17 1_555 1_555
C30 C31 1_555 1_555
C45 C48 1_555 1_555
C46 C47 1_555 1_555
Tm5 O19_2 1_555 1_555
Tm1_2 O1_2 1_555 1_555
Tm2_2 O2_2 1_555 1_555
Tm8 O5_2 1_555 1_555
O3_2 Tm2_2 1_555 1_555
O4_2 Tm2_2 1_555 1_555
O6_2 Tm2_2 1_555 1_555
O7_2 Tm1_2 1_555 1_555
C1_2 O6_2 1_555 1_555
C2_2 C1_2 1_555 1_555
C3_2 C2_2 1_555 1_555
H1_2 C3_2 1_555 1_555
C4_2 C3_2 1_555 1_555
H2_2 C4_2 1_555 1_555
C5_2 C4_2 1_555 1_555
C6_2 C5_2 1_555 1_555
H3_2 C6_2 1_555 1_555
C7_2 C2_2 1_555 1_555
H4_2 C7_2 1_555 1_555
C8_2 C5_2 1_555 1_555
H5_2 C8_2 1_555 1_555
O8_2 Tm2_2 1_555 1_555
O9_2 Tm1_2 1_555 1_555
C9_2 O8_2 1_555 1_555
C10_2 C9_2 1_555 1_555
C11_2 C10_2 1_555 1_555
H6_2 C11_2 1_555 1_555
C12_2 C11_2 1_555 1_555
H7_2 C12_2 1_555 1_555
C13_2 C12_2 1_555 1_555
C14_2 C13_2 1_555 1_555
H8_2 C14_2 1_555 1_555
C15_2 C10_2 1_555 1_555
H9_2 C15_2 1_555 1_555
C16_2 C13_2 1_555 1_555
H10_2 C16_2 1_555 1_555
O10_2 C17_2 1_555 1_555
O11_2 C17_2 1_555 1_555
C17_2 C18_2 1_555 1_555
C18_2 C19_2 1_555 1_555
C19_2 H11_2 1_555 1_555
C20_2 C19_2 1_555 1_555
H12_2 C20_2 1_555 1_555
C21_2 C20_2 1_555 1_555
C22_2 C21_2 1_555 1_555
H13_2 C22_2 1_555 1_555
C23_2 C18_2 1_555 1_555
H14_2 C23_2 1_555 1_555
C24_2 C8_2 1_555 1_555
H15_2 C24_2 1_555 1_555
O12_2 Tm1_2 1_555 1_555
O24 C25_2 1_555 1_555
C25_2 O12_2 1_555 1_555
C26_2 C25_2 1_555 1_555
C27_2 C26_2 1_555 1_555
H16_2 C27_2 1_555 1_555
C28_2 C27_2 1_555 1_555
H17_2 C28_2 1_555 1_555
C29_2 C28_2 1_555 1_555
C30_2 C29_2 1_555 1_555
H18_2 C30_2 1_555 1_555
C31_2 C26_2 1_555 1_555
H19_2 C31_2 1_555 1_555
C32_2 C29_2 1_555 1_555
H20_2 C32_2 1_555 1_555
O14_2 Tm2_2 1_555 1_555
O15_2 Tm8 1_555 1_555
C33_2 O14_2 1_555 1_555
C34_2 C33_2 1_555 1_555
C35_2 C34_2 1_555 1_555
H21_2 C35_2 1_555 1_555
C36_2 C35_2 1_555 1_555
H22_2 C36_2 1_555 1_555
C37_2 C36_2 1_555 1_555
C38_2 C37_2 1_555 1_555
H23_2 C38_2 1_555 1_555
C39_2 C34_2 1_555 1_555
H24_2 C39_2 1_555 1_555
C40_2 C37_2 1_555 1_555
H25_2 C40_2 1_555 1_555
O16_2 C41_2 1_555 1_555
O17_2 C41_2 1_555 1_555
C41_2 C42_2 1_555 1_555
C42_2 C43_2 1_555 1_555
C43_2 H26_2 1_555 1_555
C44_2 C43_2 1_555 1_555
H27_2 C44_2 1_555 1_555
C45_2 C44_2 1_555 1_555
C46_2 C45_2 1_555 1_555
H28_2 C46_2 1_555 1_555
C47_2 C42_2 1_555 1_555
H29_2 C47_2 1_555 1_555
C48_2 C32_2 1_555 1_555
H30_2 C48_2 1_555 1_555
O18_2 C49_2 1_555 1_555
C49_2 C50_2 1_555 1_555
C50_2 C51_2 1_555 1_555
C51_2 H31_2 1_555 1_555
C52_2 C51_2 1_555 1_555
H32_2 C52_2 1_555 1_555
C53_2 C52_2 1_555 1_555
C54_2 C53_2 1_555 1_555
H33_2 C54_2 1_555 1_555
C55_2 C50_2 1_555 1_555
H34_2 C55_2 1_555 1_555
C56_2 C40_2 1_555 1_555
H35_2 C56_2 1_555 1_555
O20_2 C57_2 1_555 1_555
O21_2 C57_2 1_555 1_555
C57_2 C58_2 1_555 1_555
C58_2 C59_2 1_555 1_555
C59_2 H36_2 1_555 1_555
C60_2 C59_2 1_555 1_555
H37_2 C60_2 1_555 1_555
C61_2 C60_2 1_555 1_555
C62_2 C61_2 1_555 1_555
H38_2 C62_2 1_555 1_555
C63_2 C58_2 1_555 1_555
H39_2 C63_2 1_555 1_555
C64_2 C16_2 1_555 1_555
H40_2 C64_2 1_555 1_555
Tm9 O17_2 1_555 1_555
O22_2 Tm1_2 1_555 1_555
O25_2 Tm2_2 1_555 1_555
O26_2 Tm8 1_555 1_555
O27_2 Tm8 1_555 1_555
O28_2 Tm1_2 1_555 1_555
O30_2 Tm1_2 1_555 1_555
O7_2 C1_2 1_555 1_555
C6_2 C7_2 1_555 1_555
O9_2 C9_2 1_555 1_555
C14_2 C15_2 1_555 1_555
C21_2 C24_2 1_555 1_555
C22_2 C23_2 1_555 1_555
C30_2 C31_2 1_555 1_555
O15_2 C33_2 1_555 1_555
C38_2 C39_2 1_555 1_555
C45_2 C48_2 1_555 1_555
C46_2 C47_2 1_555 1_555
C53_2 C56_2 1_555 1_555
C54_2 C55_2 1_555 1_555
O20_2 Tm9 1_555 1_555
C61_2 C64_2 1_555 1_555
C62_2 C63_2 1_555 1_555
O4_2 H41_2 1_555 1_555
O4_2 H42_2 1_555 1_555
O1_2 H43_2 1_555 1_555
O1_2 H44_2 1_555 1_555
O5_2 H45_2 1_555 1_555
O5_2 H46_2 1_555 1_555
O3_2 H47_2 1_555 1_555
O3_2 H48_2 1_555 1_555
O2_2 H49_2 1_555 1_555
O2_2 H50_2 1_555 1_555
Tm7_2 O2_3 1_555 1_555
O3_3 Tm7_2 1_555 1_555
O8_3 Tm7_2 1_555 1_555
C9_3 O8_3 1_555 1_555
C10_3 C9_3 1_555 1_555
C11_3 C10_3 1_555 1_555
H6_3 C11_3 1_555 1_555
C12_3 C11_3 1_555 1_555
H7_3 C12_3 1_555 1_555
C13_3 C12_3 1_555 1_555
C14_3 C13_3 1_555 1_555
H8_3 C14_3 1_555 1_555
C15_3 C10_3 1_555 1_555
H9_3 C15_3 1_555 1_555
C16_3 C13_3 1_555 1_555
H10_3 C16_3 1_555 1_555
O14_3 Tm7_2 1_555 1_555
C33_3 O14_3 1_555 1_555
C34_3 C33_3 1_555 1_555
C35_3 C34_3 1_555 1_555
H21_3 C35_3 1_555 1_555
C36_3 C35_3 1_555 1_555
H22_3 C36_3 1_555 1_555
C37_3 C36_3 1_555 1_555
C38_3 C37_3 1_555 1_555
H23_3 C38_3 1_555 1_555
C39_3 C34_3 1_555 1_555
H24_3 C39_3 1_555 1_555
C40_3 C37_3 1_555 1_555
H25_3 C40_3 1_555 1_555
O27 C49_3 1_555 1_555
O28_2 C49_3 1_555 1_555
C49_3 C50_3 1_555 1_555
C50_3 C51_3 1_555 1_555
C51_3 H31_3 1_555 1_555
C52_3 C51_3 1_555 1_555
H32_3 C52_3 1_555 1_555
C53_3 C52_3 1_555 1_555
C54_3 C53_3 1_555 1_555
H33_3 C54_3 1_555 1_555
C55_3 C50_3 1_555 1_555
H34_3 C55_3 1_555 1_555
C56_3 C40_3 1_555 1_555
H35_3 C56_3 1_555 1_555
O29_2 C57_3 1_555 1_555
O30 C57_3 1_555 1_555
C57_3 C58_3 1_555 1_555
C58_3 C59_3 1_555 1_555
C60_3 C59_3 1_555 1_555
H37_3 C60_3 1_555 1_555
C61_3 C60_3 1_555 1_555
C62_3 C61_3 1_555 1_555
H38_3 C62_3 1_555 1_555
C63_3 C58_3 1_555 1_555
H39_3 C63_3 1_555 1_555
C64_3 C16_3 1_555 1_555
H40_3 C64_3 1_555 1_555
O9_3 C9_3 1_555 1_555
C14_3 C15_3 1_555 1_555
O15_3 C33_3 1_555 1_555
C38_3 C39_3 1_555 1_555
C53_3 C56_3 1_555 1_555
C54_3 C55_3 1_555 1_555
C61_3 C64_3 1_555 1_555
C62_3 C63_3 1_555 1_555
O1_3 H43_3 1_555 1_555
O1_3 H44_3 1_555 1_555
O3_3 H47_3 1_555 1_555
O3_3 H48_3 1_555 1_555
O2_3 H49_3 1_555 1_555
O13_2 C25_3 1_555 1_555
C25_3 O12_3 1_555 1_555
C26_3 C25_3 1_555 1_555
C27_3 C26_3 1_555 1_555
C28_3 C27_3 1_555 1_555
H17_3 C28_3 1_555 1_555
C29_3 C28_3 1_555 1_555
C30_3 C29_3 1_555 1_555
H18_3 C30_3 1_555 1_555
C31_3 C26_3 1_555 1_555
H19_3 C31_3 1_555 1_555
C32_3 C29_3 1_555 1_555
H20_3 C32_3 1_555 1_555
O25_2 C41_3 1_555 1_555
O26_2 C41_3 1_555 1_555
C41_3 C42_3 1_555 1_555
C42_3 C43_3 1_555 1_555
C43_3 H26_3 1_555 1_555
C44_3 C43_3 1_555 1_555
H27_3 C44_3 1_555 1_555
C45_3 C44_3 1_555 1_555
C46_3 C45_3 1_555 1_555
H28_3 C46_3 1_555 1_555
C47_3 C42_3 1_555 1_555
H29_3 C47_3 1_555 1_555
C48_3 C32_3 1_555 1_555
H30_3 C48_3 1_555 1_555
C30_3 C31_3 1_555 1_555
C45_3 C48_3 1_555 1_555
C46_3 C47_3 1_555 1_555
O7_3 Tm5 1_555 1_555
C1_3 O6_3 1_555 1_555
C2_3 C1_3 1_555 1_555
C3_3 C2_3 1_555 1_555
H1_3 C3_3 1_555 1_555
C4_3 C3_3 1_555 1_555
H2_3 C4_3 1_555 1_555
C5_3 C4_3 1_555 1_555
C6_3 C5_3 1_555 1_555
H3_3 C6_3 1_555 1_555
C7_3 C2_3 1_555 1_555
H4_3 C7_3 1_555 1_555
C8_3 C5_3 1_555 1_555
H5_3 C8_3 1_555 1_555
O22 C17_3 1_555 1_555
O23_2 C17_3 1_555 1_555
C17_3 C18_3 1_555 1_555
C18_3 C19_3 1_555 1_555
C19_3 H11_3 1_555 1_555
C20_3 C19_3 1_555 1_555
H12_3 C20_3 1_555 1_555
C21_3 C20_3 1_555 1_555
C22_3 C21_3 1_555 1_555
H13_3 C22_3 1_555 1_555
C23_3 C18_3 1_555 1_555
H14_3 C23_3 1_555 1_555
C24_3 C8_3 1_555 1_555
H15_3 C24_3 1_555 1_555
O7_3 C1_3 1_555 1_555
C6_3 C7_3 1_555 1_555
C21_3 C24_3 1_555 1_555
C22_3 C23_3 1_555 1_555
O4_3 H41_3 1_555 1_555
O4_3 H42_3 1_555 1_555
Tm7 O2_4 1_555 1_555
O3_4 Tm7 1_555 1_555
O8_4 Tm7 1_555 1_555
C9_4 O8_4 1_555 1_555
C10_4 C9_4 1_555 1_555
C11_4 C10_4 1_555 1_555
H6_4 C11_4 1_555 1_555
C12_4 C11_4 1_555 1_555
H7_4 C12_4 1_555 1_555
C13_4 C12_4 1_555 1_555
C14_4 C13_4 1_555 1_555
H8_4 C14_4 1_555 1_555
C15_4 C10_4 1_555 1_555
H9_4 C15_4 1_555 1_555
C16_4 C13_4 1_555 1_555
H10_4 C16_4 1_555 1_555
O24_2 C25_4 1_555 1_555
C25_4 O12_4 1_555 1_555
C26_4 C25_4 1_555 1_555
C27_4 C26_4 1_555 1_555
H16_4 C27_4 1_555 1_555
C28_4 C27_4 1_555 1_555
H17_4 C28_4 1_555 1_555
C29_4 C28_4 1_555 1_555
C30_4 C29_4 1_555 1_555
H18_4 C30_4 1_555 1_555
C31_4 C26_4 1_555 1_555
H19_4 C31_4 1_555 1_555
C32_4 C29_4 1_555 1_555
H20_4 C32_4 1_555 1_555
O14_4 Tm7 1_555 1_555
C33_4 O14_4 1_555 1_555
C34_4 C33_4 1_555 1_555
C35_4 C34_4 1_555 1_555
H21_4 C35_4 1_555 1_555
C36_4 C35_4 1_555 1_555
H22_4 C36_4 1_555 1_555
C37_4 C36_4 1_555 1_555
C38_4 C37_4 1_555 1_555
H23_4 C38_4 1_555 1_555
C39_4 C34_4 1_555 1_555
H24_4 C39_4 1_555 1_555
C40_4 C37_4 1_555 1_555
H25_4 C40_4 1_555 1_555
O25 C41_4 1_555 1_555
O26 C41_4 1_555 1_555
C41_4 C42_4 1_555 1_555
C42_4 C43_4 1_555 1_555
C43_4 H26_4 1_555 1_555
C44_4 C43_4 1_555 1_555
H27_4 C44_4 1_555 1_555
C45_4 C44_4 1_555 1_555
C46_4 C45_4 1_555 1_555
H28_4 C46_4 1_555 1_555
C47_4 C42_4 1_555 1_555
H29_4 C47_4 1_555 1_555
C48_4 C32_4 1_555 1_555
H30_4 C48_4 1_555 1_555
O27_2 C49_4 1_555 1_555
C49_4 C50_4 1_555 1_555
C50_4 C51_4 1_555 1_555
C51_4 H31_4 1_555 1_555
C52_4 C51_4 1_555 1_555
H32_4 C52_4 1_555 1_555
C53_4 C52_4 1_555 1_555
C54_4 C53_4 1_555 1_555
H33_4 C54_4 1_555 1_555
C55_4 C50_4 1_555 1_555
H34_4 C55_4 1_555 1_555
C56_4 C40_4 1_555 1_555
H35_4 C56_4 1_555 1_555
O29 C57_4 1_555 1_555
O30_2 C57_4 1_555 1_555
C57_4 C58_4 1_555 1_555
C58_4 C59_4 1_555 1_555
C59_4 H36_4 1_555 1_555
C60_4 C59_4 1_555 1_555
H37_4 C60_4 1_555 1_555
C61_4 C60_4 1_555 1_555
C62_4 C61_4 1_555 1_555
H38_4 C62_4 1_555 1_555
C63_4 C58_4 1_555 1_555
H39_4 C63_4 1_555 1_555
C64_4 C16_4 1_555 1_555
H40_4 C64_4 1_555 1_555
O9_4 C9_4 1_555 1_555
C14_4 C15_4 1_555 1_555
C30_4 C31_4 1_555 1_555
O15_4 C33_4 1_555 1_555
C38_4 C39_4 1_555 1_555
C45_4 C48_4 1_555 1_555
C46_4 C47_4 1_555 1_555
C53_4 C56_4 1_555 1_555
C54_4 C55_4 1_555 1_555
C61_4 C64_4 1_555 1_555
C62_4 C63_4 1_555 1_555
O1_4 H43_4 1_555 1_555
O1_4 H44_4 1_555 1_555
O3_4 H47_4 1_555 1_555
O3_4 H48_4 1_555 1_555
O2_4 H49_4 1_555 1_555
O7_4 Tm6 1_555 1_555
C1_4 O6_4 1_555 1_555
C2_4 C1_4 1_555 1_555
C3_4 C2_4 1_555 1_555
H1_4 C3_4 1_555 1_555
C4_4 C3_4 1_555 1_555
H2_4 C4_4 1_555 1_555
C5_4 C4_4 1_555 1_555
C6_4 C5_4 1_555 1_555
H3_4 C6_4 1_555 1_555
C7_4 C2_4 1_555 1_555
H4_4 C7_4 1_555 1_555
C8_4 C5_4 1_555 1_555
H5_4 C8_4 1_555 1_555
O22_2 C17_4 1_555 1_555
O23 C17_4 1_555 1_555
C17_4 C18_4 1_555 1_555
C18_4 C19_4 1_555 1_555
C19_4 H11_4 1_555 1_555
C20_4 C19_4 1_555 1_555
H12_4 C20_4 1_555 1_555
C21_4 C20_4 1_555 1_555
C22_4 C21_4 1_555 1_555
H13_4 C22_4 1_555 1_555
C23_4 C18_4 1_555 1_555
H14_4 C23_4 1_555 1_555
C24_4 C8_4 1_555 1_555
H15_4 C24_4 1_555 1_555
O7_4 C1_4 1_555 1_555
C6_4 C7_4 1_555 1_555
C21_4 C24_4 1_555 1_555
C22_4 C23_4 1_555 1_555
O4_4 H41_4 1_555 1_555
O4_4 H42_4 1_555 1_555

#END
