
###############################################################################
#
# This file contains modified crystal structure data generated from the
# MOF subset of the Cambridge Structural Database (CSD) v543 
# hosted by the Cambridge Crystallographic Data Centre (CCDC).
#
# This work is licensed under the Creative Commons
# Attribution-NonCommercial-ShareAlike 4.0 International License.
# To view a copy of this license, visit
# http://creativecommons.org/licenses/by-nc-sa/4.0/
# or send a letter to
# Creative Commons, PO Box 1866, Mountain View, CA 94042, USA.
#
# CIF created using the CSD Python API on 29 September 2022
# The structure has been converted into the P1 space group
# The structure has a 3D framework
# The original CSD entry DAMYUO is in the monoclinic crystal system
# The framework has been calculated to contain at least 10.0% void space
# The void calculation uses a probe of radius 1.32A, grid spacing 0.4
# H atom positions have been added when not included in the experimental data
#
###############################################################################

data_DAMYUO
_chemical_formula_moiety         '(C256 H200 Er10 O84)n'
_symmetry_cell_setting           triclinic
_symmetry_space_group_name_H-M   'P 1'
_symmetry_Int_Tables_number      1
_space_group_name_Hall           'P 1'
loop_
_symmetry_equiv_pos_site_id
_symmetry_equiv_pos_as_xyz
1 x,y,z
_cell_length_a                   30.6196(11)
_cell_length_b                   16.0904(9)
_cell_length_c                   25.8822(17)
_cell_angle_alpha                90
_cell_angle_beta                 90.008(4)
_cell_angle_gamma                90
_cell_volume                     12751.7
loop_
_atom_site_label
_atom_site_type_symbol
_atom_site_fract_x
_atom_site_fract_y
_atom_site_fract_z
Er5 Er 0.99945(10) 0.08923(7) 0.06281(12)
Er9 Er 0.99900(10) 0.07758(7) 0.43718(12)
Er1 Er 0.49945(10) 0.58923(7) 0.06281(12)
Er2 Er 0.49910(11) 0.71497(7) 0.25029(14)
Er3 Er 0.49900(10) 0.57758(7) 0.43718(12)
O1 O 0.5194(10) 0.7357(19) 0.0491(11)
O2 O 0.5012(7) 0.5733(10) 0.2407(7)
O3 O 0.5294(8) 0.8461(14) 0.2284(10)
O4 O 0.4777(8) 0.8339(15) 0.2990(9)
O5 O 0.5122(11) 0.7277(18) 0.4446(11)
O6 O 0.4489(7) 0.7032(9) 0.1967(7)
O7 O 0.4564(7) 0.6512(9) 0.1185(7)
C1 C 0.4346(6) 0.6834(5) 0.1536(6)
C2 C 0.3867(6) 0.6988(8) 0.1409(8)
C3 C 0.3591(7) 0.7344(12) 0.1765(9)
H1 H 0.3696 0.7497 0.2088
C4 C 0.3144(8) 0.7479(14) 0.1637(10)
H2 H 0.2959 0.7718 0.1880
C5 C 0.2983(7) 0.7266(13) 0.1166(10)
C6 C 0.3261(7) 0.6916(13) 0.0819(10)
H3 H 0.3153 0.6767 0.0496
C7 C 0.3710(7) 0.6767(12) 0.0930(9)
H4 H 0.3893 0.6527 0.0684
C8 C 0.2516(8) 0.7420(17) 0.1045(14)
H5 H 0.2376 0.7003 0.0859
O8 O 0.5476(6) 0.7125(9) 0.1844(5)
O9 O 0.5545(6) 0.6142(8) 0.1235(5)
C9 C 0.5675(4) 0.6719(6) 0.1512(3)
C10 C 0.6150(5) 0.6973(9) 0.1441(6)
C11 C 0.6309(6) 0.7614(11) 0.1740(7)
H6 H 0.6128 0.7877 0.1977
C12 C 0.6752(6) 0.7872(12) 0.1686(8)
H7 H 0.6867 0.8300 0.1885
C13 C 0.7001(6) 0.7466(11) 0.1331(7)
C14 C 0.6848(6) 0.6836(12) 0.1032(8)
H8 H 0.7031 0.6580 0.0793
C15 C 0.6406(6) 0.6570(11) 0.1084(7)
H9 H 0.6295 0.6139 0.0883
C16 C 0.7456(6) 0.7781(16) 0.1304(10)
H10 H 0.7477 0.8229 0.1530
O10 O 0.0443(7) 0.9810(10) 0.0740(7)
O11 O 0.0428(7) 0.8877(12) 0.0098(6)
C17 C 0.0590(4) 0.9229(7) 0.0478(4)
C18 C 0.1033(5) 0.8880(12) 0.0634(8)
C19 C 0.1247(8) 0.9222(16) 0.1050(10)
H11 H 0.1117 0.9659 0.1228
C20 C 0.1663(8) 0.8925(17) 0.1215(11)
H12 H 0.1801 0.9164 0.1498
C21 C 0.1856(8) 0.8289(16) 0.0956(11)
C22 C 0.1644(8) 0.7953(17) 0.0545(11)
H13 H 0.1777 0.7517 0.0368
C23 C 0.1228(8) 0.8237(15) 0.0371(10)
H14 H 0.1092 0.7993 0.0088
C24 C 0.2289(9) 0.802(2) 0.1156(14)
H15 H 0.2407 0.8371 0.1407
H16 H 0.6068 0.6837 0.0060
O14 O 0.5529(5) 0.6755(9) 0.3054(5)
O15 O 0.5542(6) 0.5992(8) 0.3751(6)
C33 C 0.5711(4) 0.6492(6) 0.3448(4)
C34 C 0.6168(4) 0.6821(8) 0.3551(6)
C35 C 0.6387(6) 0.7377(11) 0.3241(7)
H21 H 0.6251 0.7578 0.2945
C36 C 0.6817(6) 0.7654(12) 0.3364(8)
H22 H 0.6961 0.8030 0.3151
C37 C 0.7012(6) 0.7358(11) 0.3798(7)
C38 C 0.6798(5) 0.6809(11) 0.4106(8)
H23 H 0.6936 0.6614 0.4403
C39 C 0.6368(5) 0.6524(10) 0.3989(7)
H24 H 0.6227 0.6147 0.4204
C40 C 0.7458(6) 0.7616(15) 0.3956(10)
H25 H 0.7504 0.7593 0.4311
O18 O 0.9582(5) 0.9568(8) 0.4323(6)
O19 O 0.9525(5) 0.8718(9) 0.4990(5)
C49 C 0.9396(4) 0.9022(6) 0.4578(4)
C50 C 0.8968(4) 0.8706(9) 0.4354(6)
C51 C 0.8827(6) 0.9046(11) 0.3895(7)
H31 H 0.8987 0.9456 0.3727
C52 C 0.8425(6) 0.8745(12) 0.3689(8)
H32 H 0.8318 0.8961 0.3381
C53 C 0.8198(6) 0.8145(12) 0.3943(8)
C54 C 0.8343(6) 0.7814(12) 0.4394(8)
H33 H 0.8181 0.7404 0.4559
C55 C 0.8744(5) 0.8097(11) 0.4614(8)
H34 H 0.8848 0.7877 0.4923
C56 C 0.7782(6) 0.7857(15) 0.3710(10)
H35 H 0.7762 0.7857 0.3351
O20 O 0.9540(6) 0.9023(11) 0.0025(5)
O21 O 0.9526(6) 0.9865(9) 0.0723(7)
C57 C 0.9393(4) 0.9304(7) 0.0436(4)
C58 C 0.8974(4) 0.8886(11) 0.0620(8)
C59 C 0.8798(6) 0.8254(13) 0.0330(9)
H36 H 0.8929 0.8076 0.0025
C60 C 0.8406(7) 0.7881(15) 0.0516(10)
H37 H 0.8280 0.7452 0.0326
C61 C 0.8208(7) 0.8131(15) 0.0959(10)
C62 C 0.8387(7) 0.8756(15) 0.1241(10)
H38 H 0.8254 0.8931 0.1545
C63 C 0.8780(7) 0.9147(14) 0.1071(9)
H39 H 0.8904 0.9574 0.1263
C64 C 0.7801(7) 0.7694(19) 0.1112(13)
H40 H 0.7831 0.7137 0.1022
Er6 Er 0.99945(10) 0.91077(7) 0.56281(12)
O22 O 0.5443(7) 0.4810(10) 0.0740(7)
O23 O 0.5428(7) 0.6123(12) 0.5098(6)
O24 O 0.5517(6) 0.4783(9) 0.4192(6)
O25 O 0.4464(8) 0.6914(10) 0.3055(7)
O26 O 0.4533(7) 0.6301(9) 0.3821(7)
O27 O 0.4582(5) 0.4568(8) 0.4323(6)
O29 O 0.4540(6) 0.5977(11) 0.5025(5)
O30 O 0.4526(6) 0.4865(9) 0.0723(7)
H41 H 0.506187 0.754846 0.410886
H42 H 0.492643 0.75142 0.471415
H43 H 0.527347 0.854575 0.190475
H44 H 0.513007 0.890751 0.246433
H45 H 0.530737 0.759518 0.0818557
H46 H 0.542288 0.739325 0.0220171
H47 H 0.53 0.552092 0.252423
H48 H 0.477686 0.547647 0.261763
H49 H 0.491385 0.831607 0.333756
H50 H 0.487378 0.88506 0.280855
O12 O 0.5466(7) 0.5933(10) 0.9948(5)
O13 O 0.5517(6) 0.5217(9) 0.9192(6)
C25 C 0.5631(4) 0.5715(6) 0.9532(4)
C26 C 0.6060(4) 0.6150(10) 0.9411(8)
C27 C 0.6221(7) 0.6720(12) 0.9758(9)
C28 C 0.6624(7) 0.7130(14) 0.9651(9)
H17 H 0.6732 0.7514 0.9887
C29 C 0.6854(7) 0.6972(14) 0.9212(9)
C30 C 0.6694(7) 0.6409(14) 0.8870(9)
H18 H 0.6850 0.6296 0.8569
C31 C 0.6291(7) 0.5989(13) 0.8965(9)
H19 H 0.6185 0.5607 0.8727
C32 C 0.7269(7) 0.7437(17) 0.9143(12)
H20 H 0.7304 0.7943 0.9311
O16 O 0.9464(8) 0.8086(10) 0.8055(7)
O17 O 0.9533(7) 0.8699(9) 0.8821(7)
C41 C 0.9334(5) 0.8299(6) 0.8487(6)
C42 C 0.8870(5) 0.8023(9) 0.8610(9)
C43 C 0.8649(7) 0.7576(13) 0.8240(10)
H26 H 0.8786 0.7454 0.7929
C44 C 0.8213(7) 0.7295(15) 0.8325(11)
H27 H 0.8067 0.6995 0.8072
C45 C 0.8014(7) 0.7471(15) 0.8781(10)
C46 C 0.8234(8) 0.7912(15) 0.9146(11)
H28 H 0.8095 0.8028 0.9458
C47 C 0.8670(7) 0.8203(13) 0.9073(10)
H29 H 0.8813 0.8503 0.9328
C48 C 0.7561(8) 0.7179(19) 0.8875(13)
H30 H 0.7488 0.6703 0.8691
Er7 Er 0.99910(11) 0.78503(7) 0.75029(14)
Er8 Er 0.49900(10) 0.42242(7) 0.93718(12)
Er11 Er 0.99900(10) 0.92242(7) 0.93718(12)
O28 O 0.4525(5) 0.6282(9) 0.9990(5)
O23_2 O 0.5428(7) 0.3877(12) 0.0098(6)
O29_2 O 0.4540(6) 0.4023(11) 0.0025(5)
Er1_2 Er 0.49945(10) 0.41077(7) 0.56281(12)
Er2_2 Er 0.49910(11) 0.28503(7) 0.75029(14)
O1_2 O 0.5194(10) 0.2643(19) 0.5491(11)
O2_2 O 0.5012(7) 0.4267(10) 0.7407(7)
O3_2 O 0.5294(8) 0.1539(14) 0.7284(10)
O4_2 O 0.4777(8) 0.1661(15) 0.7990(9)
O5_2 O 0.5122(11) 0.2723(18) 0.9446(11)
O6_2 O 0.4489(7) 0.2968(9) 0.6967(7)
O7_2 O 0.4564(7) 0.3488(9) 0.6185(7)
C1_2 C 0.4346(6) 0.3166(5) 0.6536(6)
C2_2 C 0.3867(6) 0.3012(8) 0.6409(8)
C3_2 C 0.3591(7) 0.2656(12) 0.6765(9)
H1_2 H 0.3696 0.2503 0.7088
C4_2 C 0.3144(8) 0.2521(14) 0.6637(10)
H2_2 H 0.2959 0.2282 0.6880
C5_2 C 0.2983(7) 0.2734(13) 0.6166(10)
C6_2 C 0.3261(7) 0.3084(13) 0.5819(10)
H3_2 H 0.3153 0.3233 0.5496
C7_2 C 0.3710(7) 0.3233(12) 0.5930(9)
H4_2 H 0.3893 0.3473 0.5684
C8_2 C 0.2516(8) 0.2580(17) 0.6045(14)
H5_2 H 0.2376 0.2997 0.5859
O8_2 O 0.5476(6) 0.2875(9) 0.6844(5)
O9_2 O 0.5545(6) 0.3858(8) 0.6235(5)
C9_2 C 0.5675(4) 0.3281(6) 0.6512(3)
C10_2 C 0.6150(5) 0.3027(9) 0.6441(6)
C11_2 C 0.6309(6) 0.2386(11) 0.6740(7)
H6_2 H 0.6128 0.2123 0.6977
C12_2 C 0.6752(6) 0.2128(12) 0.6686(8)
H7_2 H 0.6867 0.1700 0.6885
C13_2 C 0.7001(6) 0.2534(11) 0.6331(7)
C14_2 C 0.6848(6) 0.3164(12) 0.6032(8)
H8_2 H 0.7031 0.3420 0.5793
C15_2 C 0.6406(6) 0.3430(11) 0.6084(7)
H9_2 H 0.6295 0.3861 0.5883
C16_2 C 0.7456(6) 0.2219(16) 0.6304(10)
H10_2 H 0.7477 0.1771 0.6530
O10_2 O 0.0443(7) 0.0190(10) 0.5740(7)
O11_2 O 0.0428(7) 0.1123(12) 0.5098(6)
C17_2 C 0.0590(4) 0.0771(7) 0.5478(4)
C18_2 C 0.1033(5) 0.1120(12) 0.5634(8)
C19_2 C 0.1247(8) 0.0778(16) 0.6050(10)
H11_2 H 0.1117 0.0341 0.6228
C20_2 C 0.1663(8) 0.1075(17) 0.6215(11)
H12_2 H 0.1801 0.0836 0.6498
C21_2 C 0.1856(8) 0.1711(16) 0.5956(11)
C22_2 C 0.1644(8) 0.2047(17) 0.5545(11)
H13_2 H 0.1777 0.2483 0.5368
C23_2 C 0.1228(8) 0.1763(15) 0.5371(10)
H14_2 H 0.1092 0.2007 0.5088
C24_2 C 0.2289(9) 0.198(2) 0.6156(14)
H15_2 H 0.2407 0.1629 0.6407
O12_2 O 0.5466(7) 0.4067(10) 0.4948(5)
C25_2 C 0.5631(4) 0.4285(6) 0.4532(4)
C26_2 C 0.6060(4) 0.3850(10) 0.4411(8)
C27_2 C 0.6221(7) 0.3280(12) 0.4758(9)
H16_2 H 0.6068 0.3163 0.5060
C28_2 C 0.6624(7) 0.2870(14) 0.4651(9)
H17_2 H 0.6732 0.2486 0.4887
C29_2 C 0.6854(7) 0.3028(14) 0.4212(9)
C30_2 C 0.6694(7) 0.3591(14) 0.3870(9)
H18_2 H 0.6850 0.3704 0.3569
C31_2 C 0.6291(7) 0.4011(13) 0.3965(9)
H19_2 H 0.6185 0.4393 0.3727
C32_2 C 0.7269(7) 0.2563(17) 0.4143(12)
H20_2 H 0.7304 0.2057 0.4311
O14_2 O 0.5529(5) 0.3245(9) 0.8054(5)
O15_2 O 0.5542(6) 0.4008(8) 0.8751(6)
C33_2 C 0.5711(4) 0.3508(6) 0.8448(4)
C34_2 C 0.6168(4) 0.3179(8) 0.8551(6)
C35_2 C 0.6387(6) 0.2623(11) 0.8241(7)
H21_2 H 0.6251 0.2422 0.7945
C36_2 C 0.6817(6) 0.2346(12) 0.8364(8)
H22_2 H 0.6961 0.1970 0.8151
C37_2 C 0.7012(6) 0.2642(11) 0.8798(7)
C38_2 C 0.6798(5) 0.3191(11) 0.9106(8)
H23_2 H 0.6936 0.3386 0.9403
C39_2 C 0.6368(5) 0.3476(10) 0.8989(7)
H24_2 H 0.6227 0.3853 0.9204
C40_2 C 0.7458(6) 0.2384(15) 0.8956(10)
H25_2 H 0.7504 0.2407 0.9311
O16_2 O 0.9464(8) 0.1914(10) 0.3055(7)
O17_2 O 0.9533(7) 0.1301(9) 0.3821(7)
C41_2 C 0.9334(5) 0.1701(6) 0.3487(6)
C42_2 C 0.8870(5) 0.1977(9) 0.3610(9)
C43_2 C 0.8649(7) 0.2424(13) 0.3240(10)
H26_2 H 0.8786 0.2546 0.2929
C44_2 C 0.8213(7) 0.2705(15) 0.3325(11)
H27_2 H 0.8067 0.3005 0.3072
C45_2 C 0.8014(7) 0.2529(15) 0.3781(10)
C46_2 C 0.8234(8) 0.2088(15) 0.4146(11)
H28_2 H 0.8095 0.1972 0.4458
C47_2 C 0.8670(7) 0.1797(13) 0.4073(10)
H29_2 H 0.8813 0.1497 0.4328
C48_2 C 0.7561(8) 0.2821(19) 0.3875(13)
H30_2 H 0.7488 0.3297 0.3691
O18_2 O 0.9582(5) 0.0432(8) 0.9323(6)
O19_2 O 0.9525(5) 0.1282(9) 0.9990(5)
C49_2 C 0.9396(4) 0.0978(6) 0.9578(4)
C50_2 C 0.8968(4) 0.1294(9) 0.9354(6)
C51_2 C 0.8827(6) 0.0954(11) 0.8895(7)
H31_2 H 0.8987 0.0544 0.8727
C52_2 C 0.8425(6) 0.1255(12) 0.8689(8)
H32_2 H 0.8318 0.1039 0.8381
C53_2 C 0.8198(6) 0.1855(12) 0.8943(8)
C54_2 C 0.8343(6) 0.2186(12) 0.9394(8)
H33_2 H 0.8181 0.2596 0.9559
C55_2 C 0.8744(5) 0.1903(11) 0.9614(8)
H34_2 H 0.8848 0.2123 0.9923
C56_2 C 0.7782(6) 0.2143(15) 0.8710(10)
H35_2 H 0.7762 0.2143 0.8351
O20_2 O 0.9540(6) 0.0977(11) 0.5025(5)
O21_2 O 0.9526(6) 0.0135(9) 0.5723(7)
C57_2 C 0.9393(4) 0.0696(7) 0.5436(4)
C58_2 C 0.8974(4) 0.1114(11) 0.5620(8)
C59_2 C 0.8798(6) 0.1746(13) 0.5330(9)
H36_2 H 0.8929 0.1924 0.5025
C60_2 C 0.8406(7) 0.2119(15) 0.5516(10)
H37_2 H 0.8280 0.2548 0.5326
C61_2 C 0.8208(7) 0.1869(15) 0.5959(10)
C62_2 C 0.8387(7) 0.1244(15) 0.6241(10)
H38_2 H 0.8254 0.1069 0.6545
C63_2 C 0.8780(7) 0.0853(14) 0.6071(9)
H39_2 H 0.8904 0.0426 0.6263
C64_2 C 0.7801(7) 0.2306(19) 0.6112(13)
H40_2 H 0.7831 0.2863 0.6022
Er7_2 Er 0.99910(11) 0.21497(7) 0.25029(14)
O22_2 O 0.5443(7) 0.5190(10) 0.5740(7)
O25_2 O 0.4464(8) 0.3086(10) 0.8055(7)
O26_2 O 0.4533(7) 0.3699(9) 0.8821(7)
O27_2 O 0.4582(5) 0.5432(8) 0.9323(6)
O28_2 O 0.4525(5) 0.3718(9) 0.4990(5)
O30_2 O 0.4526(6) 0.5135(9) 0.5723(7)
H41_2 H 0.506187 0.245154 0.910886
H42_2 H 0.492643 0.24858 0.971415
H43_2 H 0.527347 0.145425 0.690475
H44_2 H 0.513007 0.109249 0.746433
H45_2 H 0.530737 0.240482 0.581856
H46_2 H 0.542288 0.260675 0.522017
H47_2 H 0.53 0.447908 0.752423
H48_2 H 0.477686 0.452353 0.761763
H49_2 H 0.491385 0.168393 0.833756
H50_2 H 0.487378 0.11494 0.780855
O1_3 O 0.0194(10) 0.2357(19) 0.0491(11)
O2_3 O 0.0012(7) 0.0733(10) 0.2407(7)
O3_3 O 0.0294(8) 0.3461(14) 0.2284(10)
O5_3 O 0.0122(11) 0.2277(18) 0.4446(11)
O8_3 O 0.0476(6) 0.2125(9) 0.1844(5)
O9_3 O 0.0545(6) 0.1142(8) 0.1235(5)
C9_3 C 0.0675(4) 0.1719(6) 0.1512(3)
C10_3 C 0.1150(5) 0.1973(9) 0.1441(6)
C11_3 C 0.1309(6) 0.2614(11) 0.1740(7)
H6_3 H 0.1128 0.2877 0.1977
C12_3 C 0.1752(6) 0.2872(12) 0.1686(8)
H7_3 H 0.1867 0.3300 0.1885
C13_3 C 0.2001(6) 0.2466(11) 0.1331(7)
C14_3 C 0.1848(6) 0.1836(12) 0.1032(8)
H8_3 H 0.2031 0.1580 0.0793
C15_3 C 0.1406(6) 0.1570(11) 0.1084(7)
H9_3 H 0.1295 0.1139 0.0883
C16_3 C 0.2456(6) 0.2781(16) 0.1304(10)
H10_3 H 0.2477 0.3229 0.1530
H16_3 H 0.1068 0.1837 0.0060
O14_3 O 0.0529(5) 0.1755(9) 0.3054(5)
O15_3 O 0.0542(6) 0.0992(8) 0.3751(6)
C33_3 C 0.0711(4) 0.1492(6) 0.3448(4)
C34_3 C 0.1168(4) 0.1821(8) 0.3551(6)
C35_3 C 0.1387(6) 0.2377(11) 0.3241(7)
H21_3 H 0.1251 0.2578 0.2945
C36_3 C 0.1817(6) 0.2654(12) 0.3364(8)
H22_3 H 0.1961 0.3030 0.3151
C37_3 C 0.2012(6) 0.2358(11) 0.3798(7)
C38_3 C 0.1798(5) 0.1809(11) 0.4106(8)
H23_3 H 0.1936 0.1614 0.4403
C39_3 C 0.1368(5) 0.1524(10) 0.3989(7)
H24_3 H 0.1227 0.1147 0.4204
C40_3 C 0.2458(6) 0.2616(15) 0.3956(10)
H25_3 H 0.2504 0.2593 0.4311
C49_3 C 0.4396(4) 0.4022(6) 0.4578(4)
C50_3 C 0.3968(4) 0.3706(9) 0.4354(6)
C51_3 C 0.3827(6) 0.4046(11) 0.3895(7)
H31_3 H 0.3987 0.4456 0.3727
C52_3 C 0.3425(6) 0.3745(12) 0.3689(8)
H32_3 H 0.3318 0.3961 0.3381
C53_3 C 0.3198(6) 0.3145(12) 0.3943(8)
C54_3 C 0.3343(6) 0.2814(12) 0.4394(8)
H33_3 H 0.3181 0.2404 0.4559
C55_3 C 0.3744(5) 0.3097(11) 0.4614(8)
H34_3 H 0.3848 0.2877 0.4923
C56_3 C 0.2782(6) 0.2857(15) 0.3710(10)
H35_3 H 0.2762 0.2857 0.3351
C57_3 C 0.4393(4) 0.4304(7) 0.0436(4)
C58_3 C 0.3974(4) 0.3886(11) 0.0620(8)
C59_3 C 0.3798(6) 0.3254(13) 0.0330(9)
H36_3 H 0.3929 0.3076 0.0025
C60_3 C 0.3406(7) 0.2881(15) 0.0516(10)
H37_3 H 0.3280 0.2452 0.0326
C61_3 C 0.3208(7) 0.3131(15) 0.0959(10)
C62_3 C 0.3387(7) 0.3756(15) 0.1241(10)
H38_3 H 0.3254 0.3931 0.1545
C63_3 C 0.3780(7) 0.4147(14) 0.1071(9)
H39_3 H 0.3904 0.4574 0.1263
C64_3 C 0.2801(7) 0.2694(19) 0.1112(13)
H40_3 H 0.2831 0.2137 0.1022
H41_3 H 0.00618672 0.254846 0.410886
H43_3 H 0.0273467 0.354575 0.190475
H44_3 H 0.0130066 0.390751 0.246433
H45_3 H 0.0307372 0.259518 0.0818557
H46_3 H 0.0422882 0.239325 0.0220171
H47_3 H 0.0299995 0.0520925 0.252423
O12_3 O 0.0466(7) 0.0933(10) 0.9948(5)
O13_2 O 0.0517(6) 0.0217(9) 0.9192(6)
C25_3 C 0.0631(4) 0.0715(6) 0.9532(4)
C26_3 C 0.1060(4) 0.1150(10) 0.9411(8)
C27_3 C 0.1221(7) 0.1720(12) 0.9758(9)
C28_3 C 0.1624(7) 0.2130(14) 0.9651(9)
H17_3 H 0.1732 0.2514 0.9887
C29_3 C 0.1854(7) 0.1972(14) 0.9212(9)
C30_3 C 0.1694(7) 0.1409(14) 0.8870(9)
H18_3 H 0.1850 0.1296 0.8569
C31_3 C 0.1291(7) 0.0989(13) 0.8965(9)
H19_3 H 0.1185 0.0607 0.8727
C32_3 C 0.2269(7) 0.2437(17) 0.9143(12)
H20_3 H 0.2304 0.2943 0.9311
C41_3 C 0.4334(5) 0.3299(6) 0.8487(6)
C42_3 C 0.3870(5) 0.3023(9) 0.8610(9)
C43_3 C 0.3649(7) 0.2576(13) 0.8240(10)
H26_3 H 0.3786 0.2454 0.7929
C44_3 C 0.3213(7) 0.2295(15) 0.8325(11)
H27_3 H 0.3067 0.1995 0.8072
C45_3 C 0.3014(7) 0.2471(15) 0.8781(10)
C46_3 C 0.3234(8) 0.2912(15) 0.9146(11)
H28_3 H 0.3095 0.3028 0.9458
C47_3 C 0.3670(7) 0.3203(13) 0.9073(10)
H29_3 H 0.3813 0.3503 0.9328
C48_3 C 0.2561(8) 0.2179(19) 0.8875(13)
H30_3 H 0.2488 0.1703 0.8691
O24_2 O 0.0517(6) 0.9783(9) 0.4192(6)
O4_3 O 0.9777(8) 0.3339(15) 0.2990(9)
O6_3 O 0.9489(7) 0.2032(9) 0.1967(7)
O7_3 O 0.9564(7) 0.1512(9) 0.1185(7)
C1_3 C 0.9346(6) 0.1834(5) 0.1536(6)
C2_3 C 0.8867(6) 0.1988(8) 0.1409(8)
C3_3 C 0.8591(7) 0.2344(12) 0.1765(9)
H1_3 H 0.8696 0.2497 0.2088
C4_3 C 0.8144(8) 0.2479(14) 0.1637(10)
H2_3 H 0.7959 0.2718 0.1880
C5_3 C 0.7983(7) 0.2266(13) 0.1166(10)
C6_3 C 0.8261(7) 0.1916(13) 0.0819(10)
H3_3 H 0.8153 0.1767 0.0496
C7_3 C 0.8710(7) 0.1767(12) 0.0930(9)
H4_3 H 0.8893 0.1527 0.0684
C8_3 C 0.7516(8) 0.2420(17) 0.1045(14)
H5_3 H 0.7376 0.2003 0.0859
C17_3 C 0.5590(4) 0.4229(7) 0.0478(4)
C18_3 C 0.6033(5) 0.3880(12) 0.0634(8)
C19_3 C 0.6247(8) 0.4222(16) 0.1050(10)
H11_3 H 0.6117 0.4659 0.1228
C20_3 C 0.6663(8) 0.3925(17) 0.1215(11)
H12_3 H 0.6801 0.4164 0.1498
C21_3 C 0.6856(8) 0.3289(16) 0.0956(11)
C22_3 C 0.6644(8) 0.2953(17) 0.0545(11)
H13_3 H 0.6777 0.2517 0.0368
C23_3 C 0.6228(8) 0.3237(15) 0.0371(10)
H14_3 H 0.6092 0.2993 0.0088
C24_3 C 0.7289(9) 0.302(2) 0.1156(14)
H15_3 H 0.7407 0.3371 0.1407
H42_3 H 0.992643 0.25142 0.471415
H48_3 H 0.977686 0.0476468 0.261763
H49_3 H 0.991385 0.331607 0.333756
H50_3 H 0.987378 0.38506 0.280855
O1_4 O 0.0194(10) 0.7643(19) 0.5491(11)
O2_4 O 0.0012(7) 0.9267(10) 0.7407(7)
O3_4 O 0.0294(8) 0.6539(14) 0.7284(10)
O5_4 O 0.0122(11) 0.7723(18) 0.9446(11)
O8_4 O 0.0476(6) 0.7875(9) 0.6844(5)
O9_4 O 0.0545(6) 0.8858(8) 0.6235(5)
C9_4 C 0.0675(4) 0.8281(6) 0.6512(3)
C10_4 C 0.1150(5) 0.8027(9) 0.6441(6)
C11_4 C 0.1309(6) 0.7386(11) 0.6740(7)
H6_4 H 0.1128 0.7123 0.6977
C12_4 C 0.1752(6) 0.7128(12) 0.6686(8)
H7_4 H 0.1867 0.6700 0.6885
C13_4 C 0.2001(6) 0.7534(11) 0.6331(7)
C14_4 C 0.1848(6) 0.8164(12) 0.6032(8)
H8_4 H 0.2031 0.8420 0.5793
C15_4 C 0.1406(6) 0.8430(11) 0.6084(7)
H9_4 H 0.1295 0.8861 0.5883
C16_4 C 0.2456(6) 0.7219(16) 0.6304(10)
H10_4 H 0.2477 0.6771 0.6530
O12_4 O 0.0466(7) 0.9067(10) 0.4948(5)
C25_4 C 0.0631(4) 0.9285(6) 0.4532(4)
C26_4 C 0.1060(4) 0.8850(10) 0.4411(8)
C27_4 C 0.1221(7) 0.8280(12) 0.4758(9)
H16_4 H 0.1068 0.8163 0.5060
C28_4 C 0.1624(7) 0.7870(14) 0.4651(9)
H17_4 H 0.1732 0.7486 0.4887
C29_4 C 0.1854(7) 0.8028(14) 0.4212(9)
C30_4 C 0.1694(7) 0.8591(14) 0.3870(9)
H18_4 H 0.1850 0.8704 0.3569
C31_4 C 0.1291(7) 0.9011(13) 0.3965(9)
H19_4 H 0.1185 0.9393 0.3727
C32_4 C 0.2269(7) 0.7563(17) 0.4143(12)
H20_4 H 0.2304 0.7057 0.4311
O14_4 O 0.0529(5) 0.8245(9) 0.8054(5)
O15_4 O 0.0542(6) 0.9008(8) 0.8751(6)
C33_4 C 0.0711(4) 0.8508(6) 0.8448(4)
C34_4 C 0.1168(4) 0.8179(8) 0.8551(6)
C35_4 C 0.1387(6) 0.7623(11) 0.8241(7)
H21_4 H 0.1251 0.7422 0.7945
C36_4 C 0.1817(6) 0.7346(12) 0.8364(8)
H22_4 H 0.1961 0.6970 0.8151
C37_4 C 0.2012(6) 0.7642(11) 0.8798(7)
C38_4 C 0.1798(5) 0.8191(11) 0.9106(8)
H23_4 H 0.1936 0.8386 0.9403
C39_4 C 0.1368(5) 0.8476(10) 0.8989(7)
H24_4 H 0.1227 0.8853 0.9204
C40_4 C 0.2458(6) 0.7384(15) 0.8956(10)
H25_4 H 0.2504 0.7407 0.9311
C41_4 C 0.4334(5) 0.6701(6) 0.3487(6)
C42_4 C 0.3870(5) 0.6977(9) 0.3610(9)
C43_4 C 0.3649(7) 0.7424(13) 0.3240(10)
H26_4 H 0.3786 0.7546 0.2929
C44_4 C 0.3213(7) 0.7705(15) 0.3325(11)
H27_4 H 0.3067 0.8005 0.3072
C45_4 C 0.3014(7) 0.7529(15) 0.3781(10)
C46_4 C 0.3234(8) 0.7088(15) 0.4146(11)
H28_4 H 0.3095 0.6972 0.4458
C47_4 C 0.3670(7) 0.6797(13) 0.4073(10)
H29_4 H 0.3813 0.6497 0.4328
C48_4 C 0.2561(8) 0.7821(19) 0.3875(13)
H30_4 H 0.2488 0.8297 0.3691
C49_4 C 0.4396(4) 0.5978(6) 0.9578(4)
C50_4 C 0.3968(4) 0.6294(9) 0.9354(6)
C51_4 C 0.3827(6) 0.5954(11) 0.8895(7)
H31_4 H 0.3987 0.5544 0.8727
C52_4 C 0.3425(6) 0.6255(12) 0.8689(8)
H32_4 H 0.3318 0.6039 0.8381
C53_4 C 0.3198(6) 0.6855(12) 0.8943(8)
C54_4 C 0.3343(6) 0.7186(12) 0.9394(8)
H33_4 H 0.3181 0.7596 0.9559
C55_4 C 0.3744(5) 0.6903(11) 0.9614(8)
H34_4 H 0.3848 0.7123 0.9923
C56_4 C 0.2782(6) 0.7143(15) 0.8710(10)
H35_4 H 0.2762 0.7143 0.8351
C57_4 C 0.4393(4) 0.5696(7) 0.5436(4)
C58_4 C 0.3974(4) 0.6114(11) 0.5620(8)
C59_4 C 0.3798(6) 0.6746(13) 0.5330(9)
H36_4 H 0.3929 0.6924 0.5025
C60_4 C 0.3406(7) 0.7119(15) 0.5516(10)
H37_4 H 0.3280 0.7548 0.5326
C61_4 C 0.3208(7) 0.6869(15) 0.5959(10)
C62_4 C 0.3387(7) 0.6244(15) 0.6241(10)
H38_4 H 0.3254 0.6069 0.6545
C63_4 C 0.3780(7) 0.5853(14) 0.6071(9)
H39_4 H 0.3904 0.5426 0.6263
C64_4 C 0.2801(7) 0.7306(19) 0.6112(13)
H40_4 H 0.2831 0.7863 0.6022
H41_4 H 0.00618672 0.745154 0.910886
H43_4 H 0.0273467 0.645425 0.690475
H44_4 H 0.0130066 0.609249 0.746433
H45_4 H 0.0307372 0.740482 0.581856
H46_4 H 0.0422882 0.760675 0.522017
H47_4 H 0.0299995 0.947908 0.752423
O4_4 O 0.9777(8) 0.6661(15) 0.7990(9)
O6_4 O 0.9489(7) 0.7968(9) 0.6967(7)
O7_4 O 0.9564(7) 0.8488(9) 0.6185(7)
C1_4 C 0.9346(6) 0.8166(5) 0.6536(6)
C2_4 C 0.8867(6) 0.8012(8) 0.6409(8)
C3_4 C 0.8591(7) 0.7656(12) 0.6765(9)
H1_4 H 0.8696 0.7503 0.7088
C4_4 C 0.8144(8) 0.7521(14) 0.6637(10)
H2_4 H 0.7959 0.7282 0.6880
C5_4 C 0.7983(7) 0.7734(13) 0.6166(10)
C6_4 C 0.8261(7) 0.8084(13) 0.5819(10)
H3_4 H 0.8153 0.8233 0.5496
C7_4 C 0.8710(7) 0.8233(12) 0.5930(9)
H4_4 H 0.8893 0.8473 0.5684
C8_4 C 0.7516(8) 0.7580(17) 0.6045(14)
H5_4 H 0.7376 0.7997 0.5859
C17_4 C 0.5590(4) 0.5771(7) 0.5478(4)
C18_4 C 0.6033(5) 0.6120(12) 0.5634(8)
C19_4 C 0.6247(8) 0.5778(16) 0.6050(10)
H11_4 H 0.6117 0.5341 0.6228
C20_4 C 0.6663(8) 0.6075(17) 0.6215(11)
H12_4 H 0.6801 0.5836 0.6498
C21_4 C 0.6856(8) 0.6711(16) 0.5956(11)
C22_4 C 0.6644(8) 0.7047(17) 0.5545(11)
H13_4 H 0.6777 0.7483 0.5368
C23_4 C 0.6228(8) 0.6763(15) 0.5371(10)
H14_4 H 0.6092 0.7007 0.5088
C24_4 C 0.7289(9) 0.698(2) 0.6156(14)
H15_4 H 0.7407 0.6629 0.6407
H42_4 H 0.992643 0.74858 0.971415
H48_4 H 0.977686 0.952353 0.761763
H49_4 H 0.991385 0.668393 0.833756
H50_4 H 0.987378 0.61494 0.780855
loop_
_geom_bond_atom_site_label_1
_geom_bond_atom_site_label_2
_geom_bond_site_symmetry_1
_geom_bond_site_symmetry_2
Er1 O1 1_555 1_555
Er2 O2 1_555 1_555
Er3 O5 1_555 1_555
O3 Er2 1_555 1_555
O4 Er2 1_555 1_555
O6 Er2 1_555 1_555
O7 Er1 1_555 1_555
C1 O6 1_555 1_555
C2 C1 1_555 1_555
C3 C2 1_555 1_555
H1 C3 1_555 1_555
C4 C3 1_555 1_555
H2 C4 1_555 1_555
C5 C4 1_555 1_555
C6 C5 1_555 1_555
H3 C6 1_555 1_555
C7 C2 1_555 1_555
H4 C7 1_555 1_555
C8 C5 1_555 1_555
H5 C8 1_555 1_555
O8 Er2 1_555 1_555
O9 Er1 1_555 1_555
C9 O8 1_555 1_555
C10 C9 1_555 1_555
C11 C10 1_555 1_555
H6 C11 1_555 1_555
C12 C11 1_555 1_555
H7 C12 1_555 1_555
C13 C12 1_555 1_555
C14 C13 1_555 1_555
H8 C14 1_555 1_555
C15 C10 1_555 1_555
H9 C15 1_555 1_555
C16 C13 1_555 1_555
H10 C16 1_555 1_555
O10 C17 1_555 1_555
O11 C17 1_555 1_555
C17 C18 1_555 1_555
C18 C19 1_555 1_555
C19 H11 1_555 1_555
C20 C19 1_555 1_555
H12 C20 1_555 1_555
C21 C20 1_555 1_555
C22 C21 1_555 1_555
H13 C22 1_555 1_555
C23 C18 1_555 1_555
H14 C23 1_555 1_555
C24 C8 1_555 1_555
H15 C24 1_555 1_555
O14 Er2 1_555 1_555
O15 Er3 1_555 1_555
C33 O14 1_555 1_555
C34 C33 1_555 1_555
C35 C34 1_555 1_555
H21 C35 1_555 1_555
C36 C35 1_555 1_555
H22 C36 1_555 1_555
C37 C36 1_555 1_555
C38 C37 1_555 1_555
H23 C38 1_555 1_555
C39 C34 1_555 1_555
H24 C39 1_555 1_555
C40 C37 1_555 1_555
H25 C40 1_555 1_555
O18 C49 1_555 1_555
O19 C49 1_555 1_555
C49 C50 1_555 1_555
C50 C51 1_555 1_555
C51 H31 1_555 1_555
C52 C51 1_555 1_555
H32 C52 1_555 1_555
C53 C52 1_555 1_555
C54 C53 1_555 1_555
H33 C54 1_555 1_555
C55 C50 1_555 1_555
H34 C55 1_555 1_555
C56 C40 1_555 1_555
H35 C56 1_555 1_555
O20 C57 1_555 1_555
O21 C57 1_555 1_555
C57 C58 1_555 1_555
C58 C59 1_555 1_555
C59 H36 1_555 1_555
C60 C59 1_555 1_555
H37 C60 1_555 1_555
C61 C60 1_555 1_555
C62 C61 1_555 1_555
H38 C62 1_555 1_555
C63 C58 1_555 1_555
H39 C63 1_555 1_555
C64 C16 1_555 1_555
H40 C64 1_555 1_555
Er6 O19 1_555 1_555
O22 Er1 1_555 1_555
O23 Er3 1_555 1_555
O24 Er3 1_555 1_555
O25 Er2 1_555 1_555
O26 Er3 1_555 1_555
O27 Er3 1_555 1_555
O29 Er3 1_555 1_555
O30 Er1 1_555 1_555
O7 C1 1_555 1_555
C6 C7 1_555 1_555
O9 C9 1_555 1_555
C14 C15 1_555 1_555
C21 C24 1_555 1_555
C22 C23 1_555 1_555
O15 C33 1_555 1_555
C38 C39 1_555 1_555
C53 C56 1_555 1_555
C54 C55 1_555 1_555
C61 C64 1_555 1_555
C62 C63 1_555 1_555
O5 H41 1_555 1_555
O5 H42 1_555 1_555
O3 H43 1_555 1_555
O3 H44 1_555 1_555
O1 H45 1_555 1_555
O1 H46 1_555 1_555
O2 H47 1_555 1_555
O2 H48 1_555 1_555
O4 H49 1_555 1_555
O4 H50 1_555 1_555
O13 C25 1_555 1_555
C25 O12 1_555 1_555
C26 C25 1_555 1_555
C27 C26 1_555 1_555
C28 C27 1_555 1_555
H17 C28 1_555 1_555
C29 C28 1_555 1_555
C30 C29 1_555 1_555
H18 C30 1_555 1_555
C31 C26 1_555 1_555
H19 C31 1_555 1_555
C32 C29 1_555 1_555
H20 C32 1_555 1_555
O16 C41 1_555 1_555
O17 C41 1_555 1_555
C41 C42 1_555 1_555
C42 C43 1_555 1_555
C43 H26 1_555 1_555
C44 C43 1_555 1_555
H27 C44 1_555 1_555
C45 C44 1_555 1_555
C46 C45 1_555 1_555
H28 C46 1_555 1_555
C47 C42 1_555 1_555
H29 C47 1_555 1_555
C48 C32 1_555 1_555
H30 C48 1_555 1_555
Er7 O16 1_555 1_555
Er8 O13 1_555 1_555
Er11 O17 1_555 1_555
C30 C31 1_555 1_555
C45 C48 1_555 1_555
C46 C47 1_555 1_555
Er1_2 O1_2 1_555 1_555
Er2_2 O2_2 1_555 1_555
Er8 O5_2 1_555 1_555
O3_2 Er2_2 1_555 1_555
O4_2 Er2_2 1_555 1_555
O6_2 Er2_2 1_555 1_555
O7_2 Er1_2 1_555 1_555
C1_2 O6_2 1_555 1_555
C2_2 C1_2 1_555 1_555
C3_2 C2_2 1_555 1_555
H1_2 C3_2 1_555 1_555
C4_2 C3_2 1_555 1_555
H2_2 C4_2 1_555 1_555
C5_2 C4_2 1_555 1_555
C6_2 C5_2 1_555 1_555
H3_2 C6_2 1_555 1_555
C7_2 C2_2 1_555 1_555
H4_2 C7_2 1_555 1_555
C8_2 C5_2 1_555 1_555
H5_2 C8_2 1_555 1_555
O8_2 Er2_2 1_555 1_555
O9_2 Er1_2 1_555 1_555
C9_2 O8_2 1_555 1_555
C10_2 C9_2 1_555 1_555
C11_2 C10_2 1_555 1_555
H6_2 C11_2 1_555 1_555
C12_2 C11_2 1_555 1_555
H7_2 C12_2 1_555 1_555
C13_2 C12_2 1_555 1_555
C14_2 C13_2 1_555 1_555
H8_2 C14_2 1_555 1_555
C15_2 C10_2 1_555 1_555
H9_2 C15_2 1_555 1_555
C16_2 C13_2 1_555 1_555
H10_2 C16_2 1_555 1_555
O10_2 C17_2 1_555 1_555
O11_2 C17_2 1_555 1_555
C17_2 C18_2 1_555 1_555
C18_2 C19_2 1_555 1_555
C19_2 H11_2 1_555 1_555
C20_2 C19_2 1_555 1_555
H12_2 C20_2 1_555 1_555
C21_2 C20_2 1_555 1_555
C22_2 C21_2 1_555 1_555
H13_2 C22_2 1_555 1_555
C23_2 C18_2 1_555 1_555
H14_2 C23_2 1_555 1_555
C24_2 C8_2 1_555 1_555
H15_2 C24_2 1_555 1_555
O12_2 Er1_2 1_555 1_555
O24 C25_2 1_555 1_555
C25_2 O12_2 1_555 1_555
C26_2 C25_2 1_555 1_555
C27_2 C26_2 1_555 1_555
H16_2 C27_2 1_555 1_555
C28_2 C27_2 1_555 1_555
H17_2 C28_2 1_555 1_555
C29_2 C28_2 1_555 1_555
C30_2 C29_2 1_555 1_555
H18_2 C30_2 1_555 1_555
C31_2 C26_2 1_555 1_555
H19_2 C31_2 1_555 1_555
C32_2 C29_2 1_555 1_555
H20_2 C32_2 1_555 1_555
O14_2 Er2_2 1_555 1_555
O15_2 Er8 1_555 1_555
C33_2 O14_2 1_555 1_555
C34_2 C33_2 1_555 1_555
C35_2 C34_2 1_555 1_555
H21_2 C35_2 1_555 1_555
C36_2 C35_2 1_555 1_555
H22_2 C36_2 1_555 1_555
C37_2 C36_2 1_555 1_555
C38_2 C37_2 1_555 1_555
H23_2 C38_2 1_555 1_555
C39_2 C34_2 1_555 1_555
H24_2 C39_2 1_555 1_555
C40_2 C37_2 1_555 1_555
H25_2 C40_2 1_555 1_555
O16_2 C41_2 1_555 1_555
O17_2 C41_2 1_555 1_555
C41_2 C42_2 1_555 1_555
C42_2 C43_2 1_555 1_555
C43_2 H26_2 1_555 1_555
C44_2 C43_2 1_555 1_555
H27_2 C44_2 1_555 1_555
C45_2 C44_2 1_555 1_555
C46_2 C45_2 1_555 1_555
H28_2 C46_2 1_555 1_555
C47_2 C42_2 1_555 1_555
H29_2 C47_2 1_555 1_555
C48_2 C32_2 1_555 1_555
H30_2 C48_2 1_555 1_555
O18_2 C49_2 1_555 1_555
O19_2 C49_2 1_555 1_555
C49_2 C50_2 1_555 1_555
C50_2 C51_2 1_555 1_555
C51_2 H31_2 1_555 1_555
C52_2 C51_2 1_555 1_555
H32_2 C52_2 1_555 1_555
C53_2 C52_2 1_555 1_555
C54_2 C53_2 1_555 1_555
H33_2 C54_2 1_555 1_555
C55_2 C50_2 1_555 1_555
H34_2 C55_2 1_555 1_555
C56_2 C40_2 1_555 1_555
H35_2 C56_2 1_555 1_555
O20_2 C57_2 1_555 1_555
O21_2 C57_2 1_555 1_555
C57_2 C58_2 1_555 1_555
C58_2 C59_2 1_555 1_555
C59_2 H36_2 1_555 1_555
C60_2 C59_2 1_555 1_555
H37_2 C60_2 1_555 1_555
C61_2 C60_2 1_555 1_555
C62_2 C61_2 1_555 1_555
H38_2 C62_2 1_555 1_555
C63_2 C58_2 1_555 1_555
H39_2 C63_2 1_555 1_555
C64_2 C16_2 1_555 1_555
H40_2 C64_2 1_555 1_555
Er7_2 O16_2 1_555 1_555
Er9 O17_2 1_555 1_555
O22_2 Er1_2 1_555 1_555
O25_2 Er2_2 1_555 1_555
O26_2 Er8 1_555 1_555
O27_2 Er8 1_555 1_555
O28_2 Er1_2 1_555 1_555
O30_2 Er1_2 1_555 1_555
O7_2 C1_2 1_555 1_555
C6_2 C7_2 1_555 1_555
O9_2 C9_2 1_555 1_555
C14_2 C15_2 1_555 1_555
C21_2 C24_2 1_555 1_555
C22_2 C23_2 1_555 1_555
C30_2 C31_2 1_555 1_555
O15_2 C33_2 1_555 1_555
C38_2 C39_2 1_555 1_555
C45_2 C48_2 1_555 1_555
C46_2 C47_2 1_555 1_555
C53_2 C56_2 1_555 1_555
C54_2 C55_2 1_555 1_555
O20_2 Er9 1_555 1_555
C61_2 C64_2 1_555 1_555
C62_2 C63_2 1_555 1_555
O5_2 H41_2 1_555 1_555
O5_2 H42_2 1_555 1_555
O3_2 H43_2 1_555 1_555
O3_2 H44_2 1_555 1_555
O1_2 H45_2 1_555 1_555
O1_2 H46_2 1_555 1_555
O2_2 H47_2 1_555 1_555
O2_2 H48_2 1_555 1_555
O4_2 H49_2 1_555 1_555
O4_2 H50_2 1_555 1_555
C9_3 O8_3 1_555 1_555
C10_3 C9_3 1_555 1_555
C11_3 C10_3 1_555 1_555
H6_3 C11_3 1_555 1_555
C12_3 C11_3 1_555 1_555
H7_3 C12_3 1_555 1_555
C13_3 C12_3 1_555 1_555
C14_3 C13_3 1_555 1_555
H8_3 C14_3 1_555 1_555
C15_3 C10_3 1_555 1_555
H9_3 C15_3 1_555 1_555
C16_3 C13_3 1_555 1_555
H10_3 C16_3 1_555 1_555
C33_3 O14_3 1_555 1_555
C34_3 C33_3 1_555 1_555
C35_3 C34_3 1_555 1_555
H21_3 C35_3 1_555 1_555
C36_3 C35_3 1_555 1_555
H22_3 C36_3 1_555 1_555
C37_3 C36_3 1_555 1_555
C38_3 C37_3 1_555 1_555
H23_3 C38_3 1_555 1_555
C39_3 C34_3 1_555 1_555
H24_3 C39_3 1_555 1_555
C40_3 C37_3 1_555 1_555
H25_3 C40_3 1_555 1_555
O27 C49_3 1_555 1_555
O28_2 C49_3 1_555 1_555
C49_3 C50_3 1_555 1_555
C50_3 C51_3 1_555 1_555
C51_3 H31_3 1_555 1_555
C52_3 C51_3 1_555 1_555
H32_3 C52_3 1_555 1_555
C53_3 C52_3 1_555 1_555
C54_3 C53_3 1_555 1_555
H33_3 C54_3 1_555 1_555
C55_3 C50_3 1_555 1_555
H34_3 C55_3 1_555 1_555
C56_3 C40_3 1_555 1_555
H35_3 C56_3 1_555 1_555
O29_2 C57_3 1_555 1_555
O30 C57_3 1_555 1_555
C57_3 C58_3 1_555 1_555
C58_3 C59_3 1_555 1_555
C59_3 H36_3 1_555 1_555
C60_3 C59_3 1_555 1_555
H37_3 C60_3 1_555 1_555
C61_3 C60_3 1_555 1_555
C62_3 C61_3 1_555 1_555
H38_3 C62_3 1_555 1_555
C63_3 C58_3 1_555 1_555
H39_3 C63_3 1_555 1_555
C64_3 C16_3 1_555 1_555
H40_3 C64_3 1_555 1_555
O9_3 C9_3 1_555 1_555
C14_3 C15_3 1_555 1_555
O15_3 C33_3 1_555 1_555
C38_3 C39_3 1_555 1_555
C53_3 C56_3 1_555 1_555
C54_3 C55_3 1_555 1_555
C61_3 C64_3 1_555 1_555
C62_3 C63_3 1_555 1_555
O5_3 H41_3 1_555 1_555
O3_3 H43_3 1_555 1_555
O3_3 H44_3 1_555 1_555
O1_3 H45_3 1_555 1_555
O1_3 H46_3 1_555 1_555
O2_3 H47_3 1_555 1_555
O13_2 C25_3 1_555 1_555
C25_3 O12_3 1_555 1_555
C26_3 C25_3 1_555 1_555
C27_3 C26_3 1_555 1_555
C28_3 C27_3 1_555 1_555
H17_3 C28_3 1_555 1_555
C29_3 C28_3 1_555 1_555
C30_3 C29_3 1_555 1_555
H18_3 C30_3 1_555 1_555
C31_3 C26_3 1_555 1_555
H19_3 C31_3 1_555 1_555
C32_3 C29_3 1_555 1_555
H20_3 C32_3 1_555 1_555
O25_2 C41_3 1_555 1_555
O26_2 C41_3 1_555 1_555
C41_3 C42_3 1_555 1_555
C42_3 C43_3 1_555 1_555
C43_3 H26_3 1_555 1_555
C44_3 C43_3 1_555 1_555
H27_3 C44_3 1_555 1_555
C45_3 C44_3 1_555 1_555
C46_3 C45_3 1_555 1_555
H28_3 C46_3 1_555 1_555
C47_3 C42_3 1_555 1_555
H29_3 C47_3 1_555 1_555
C48_3 C32_3 1_555 1_555
H30_3 C48_3 1_555 1_555
C30_3 C31_3 1_555 1_555
C45_3 C48_3 1_555 1_555
C46_3 C47_3 1_555 1_555
O4_3 Er7_2 1_555 1_555
O6_3 Er7_2 1_555 1_555
O7_3 Er5 1_555 1_555
C1_3 O6_3 1_555 1_555
C2_3 C1_3 1_555 1_555
C3_3 C2_3 1_555 1_555
H1_3 C3_3 1_555 1_555
C4_3 C3_3 1_555 1_555
H2_3 C4_3 1_555 1_555
C5_3 C4_3 1_555 1_555
C6_3 C5_3 1_555 1_555
H3_3 C6_3 1_555 1_555
C7_3 C2_3 1_555 1_555
H4_3 C7_3 1_555 1_555
C8_3 C5_3 1_555 1_555
H5_3 C8_3 1_555 1_555
O22 C17_3 1_555 1_555
O23_2 C17_3 1_555 1_555
C17_3 C18_3 1_555 1_555
C18_3 C19_3 1_555 1_555
C19_3 H11_3 1_555 1_555
C20_3 C19_3 1_555 1_555
H12_3 C20_3 1_555 1_555
C21_3 C20_3 1_555 1_555
C22_3 C21_3 1_555 1_555
H13_3 C22_3 1_555 1_555
C23_3 C18_3 1_555 1_555
H14_3 C23_3 1_555 1_555
C24_3 C8_3 1_555 1_555
H15_3 C24_3 1_555 1_555
O7_3 C1_3 1_555 1_555
C6_3 C7_3 1_555 1_555
C21_3 C24_3 1_555 1_555
C22_3 C23_3 1_555 1_555
O4_3 H49_3 1_555 1_555
O4_3 H50_3 1_555 1_555
C9_4 O8_4 1_555 1_555
C10_4 C9_4 1_555 1_555
C11_4 C10_4 1_555 1_555
H6_4 C11_4 1_555 1_555
C12_4 C11_4 1_555 1_555
H7_4 C12_4 1_555 1_555
C13_4 C12_4 1_555 1_555
C14_4 C13_4 1_555 1_555
H8_4 C14_4 1_555 1_555
C15_4 C10_4 1_555 1_555
H9_4 C15_4 1_555 1_555
C16_4 C13_4 1_555 1_555
H10_4 C16_4 1_555 1_555
O24_2 C25_4 1_555 1_555
C25_4 O12_4 1_555 1_555
C26_4 C25_4 1_555 1_555
C27_4 C26_4 1_555 1_555
H16_4 C27_4 1_555 1_555
C28_4 C27_4 1_555 1_555
H17_4 C28_4 1_555 1_555
C29_4 C28_4 1_555 1_555
C30_4 C29_4 1_555 1_555
H18_4 C30_4 1_555 1_555
C31_4 C26_4 1_555 1_555
H19_4 C31_4 1_555 1_555
C32_4 C29_4 1_555 1_555
H20_4 C32_4 1_555 1_555
C33_4 O14_4 1_555 1_555
C34_4 C33_4 1_555 1_555
C35_4 C34_4 1_555 1_555
H21_4 C35_4 1_555 1_555
C36_4 C35_4 1_555 1_555
H22_4 C36_4 1_555 1_555
C37_4 C36_4 1_555 1_555
C38_4 C37_4 1_555 1_555
H23_4 C38_4 1_555 1_555
C39_4 C34_4 1_555 1_555
H24_4 C39_4 1_555 1_555
C40_4 C37_4 1_555 1_555
H25_4 C40_4 1_555 1_555
O25 C41_4 1_555 1_555
O26 C41_4 1_555 1_555
C41_4 C42_4 1_555 1_555
C42_4 C43_4 1_555 1_555
C43_4 H26_4 1_555 1_555
C44_4 C43_4 1_555 1_555
H27_4 C44_4 1_555 1_555
C45_4 C44_4 1_555 1_555
C46_4 C45_4 1_555 1_555
H28_4 C46_4 1_555 1_555
C47_4 C42_4 1_555 1_555
H29_4 C47_4 1_555 1_555
C48_4 C32_4 1_555 1_555
H30_4 C48_4 1_555 1_555
O27_2 C49_4 1_555 1_555
O28 C49_4 1_555 1_555
C49_4 C50_4 1_555 1_555
C50_4 C51_4 1_555 1_555
C51_4 H31_4 1_555 1_555
C52_4 C51_4 1_555 1_555
H32_4 C52_4 1_555 1_555
C53_4 C52_4 1_555 1_555
C54_4 C53_4 1_555 1_555
H33_4 C54_4 1_555 1_555
C55_4 C50_4 1_555 1_555
H34_4 C55_4 1_555 1_555
C56_4 C40_4 1_555 1_555
H35_4 C56_4 1_555 1_555
O29 C57_4 1_555 1_555
O30_2 C57_4 1_555 1_555
C57_4 C58_4 1_555 1_555
C58_4 C59_4 1_555 1_555
C59_4 H36_4 1_555 1_555
C60_4 C59_4 1_555 1_555
H37_4 C60_4 1_555 1_555
C61_4 C60_4 1_555 1_555
C62_4 C61_4 1_555 1_555
H38_4 C62_4 1_555 1_555
C63_4 C58_4 1_555 1_555
H39_4 C63_4 1_555 1_555
C64_4 C16_4 1_555 1_555
H40_4 C64_4 1_555 1_555
O9_4 C9_4 1_555 1_555
C14_4 C15_4 1_555 1_555
C30_4 C31_4 1_555 1_555
O15_4 C33_4 1_555 1_555
C38_4 C39_4 1_555 1_555
C45_4 C48_4 1_555 1_555
C46_4 C47_4 1_555 1_555
C53_4 C56_4 1_555 1_555
C54_4 C55_4 1_555 1_555
C61_4 C64_4 1_555 1_555
C62_4 C63_4 1_555 1_555
O5_4 H41_4 1_555 1_555
O3_4 H43_4 1_555 1_555
O3_4 H44_4 1_555 1_555
O1_4 H45_4 1_555 1_555
O1_4 H46_4 1_555 1_555
O2_4 H47_4 1_555 1_555
O4_4 Er7 1_555 1_555
O6_4 Er7 1_555 1_555
O7_4 Er6 1_555 1_555
C1_4 O6_4 1_555 1_555
C2_4 C1_4 1_555 1_555
C3_4 C2_4 1_555 1_555
H1_4 C3_4 1_555 1_555
C4_4 C3_4 1_555 1_555
H2_4 C4_4 1_555 1_555
C5_4 C4_4 1_555 1_555
C6_4 C5_4 1_555 1_555
H3_4 C6_4 1_555 1_555
C7_4 C2_4 1_555 1_555
H4_4 C7_4 1_555 1_555
C8_4 C5_4 1_555 1_555
H5_4 C8_4 1_555 1_555
O22_2 C17_4 1_555 1_555
O23 C17_4 1_555 1_555
C17_4 C18_4 1_555 1_555
C18_4 C19_4 1_555 1_555
C19_4 H11_4 1_555 1_555
C20_4 C19_4 1_555 1_555
H12_4 C20_4 1_555 1_555
C21_4 C20_4 1_555 1_555
C22_4 C21_4 1_555 1_555
H13_4 C22_4 1_555 1_555
C23_4 C18_4 1_555 1_555
H14_4 C23_4 1_555 1_555
C24_4 C8_4 1_555 1_555
H15_4 C24_4 1_555 1_555
O7_4 C1_4 1_555 1_555
C6_4 C7_4 1_555 1_555
C21_4 C24_4 1_555 1_555
C22_4 C23_4 1_555 1_555
O4_4 H49_4 1_555 1_555
O4_4 H50_4 1_555 1_555

#END
