
###############################################################################
#
# This file contains modified crystal structure data generated from the
# MOF subset of the Cambridge Structural Database (CSD) v543 
# hosted by the Cambridge Crystallographic Data Centre (CCDC).
#
# This work is licensed under the Creative Commons
# Attribution-NonCommercial-ShareAlike 4.0 International License.
# To view a copy of this license, visit
# http://creativecommons.org/licenses/by-nc-sa/4.0/
# or send a letter to
# Creative Commons, PO Box 1866, Mountain View, CA 94042, USA.
#
# CIF created using the CSD Python API on 29 September 2022
# The structure has been converted into the P1 space group
# The structure has a 3D framework
# The original CSD entry DANFUW is in the orthorhombic crystal system
# The framework has been calculated to contain at least 10.0% void space
# The void calculation uses a probe of radius 1.32A, grid spacing 0.4
#
###############################################################################

data_DANFUW
_chemical_formula_moiety         '(C464 H304 N48 Ni16 O96)n'
_symmetry_cell_setting           triclinic
_symmetry_space_group_name_H-M   'P 1'
_symmetry_Int_Tables_number      1
_space_group_name_Hall           'P 1'
loop_
_symmetry_equiv_pos_site_id
_symmetry_equiv_pos_as_xyz
1 x,y,z
_cell_length_a                   19.6025(10)
_cell_length_b                   23.5274(12)
_cell_length_c                   25.9223(13)
_cell_angle_alpha                90
_cell_angle_beta                 90
_cell_angle_gamma                90
_cell_volume                     11955.3
loop_
_atom_site_label
_atom_site_type_symbol
_atom_site_fract_x
_atom_site_fract_y
_atom_site_fract_z
Ni1 Ni 0.316200(14) 0.335239(11) 0.200277(11)
O2 O 0.33343(8) 0.28267(7) 0.26286(6)
H1 H 0.3263 0.2469 0.2651
H2 H 0.3739 0.2899 0.2743
O4 O 0.21078(8) 0.32640(6) 0.21488(6)
O5 O 0.26743(7) 0.39625(6) 0.25100(6)
O6 O 0.08408(8) 0.51714(6) 0.33438(6)
C18 C 0.00671(15) 0.57880(10) 0.37650(10)
H14 H 0.0202 0.6083 0.3536
C19 C 0.03429(12) 0.52532(10) 0.37167(9)
C20 C 0.01469(12) 0.48269(10) 0.40476(9)
H15 H 0.0345 0.4460 0.4019
C22 C 0.08361(11) 0.46515(9) 0.30855(8)
C23 C 0.02333(11) 0.43650(10) 0.29869(8)
C24 C 0.02470(11) 0.38543(9) 0.27268(8)
C25 C 0.08635(11) 0.36432(9) 0.25450(8)
H18 H 0.0873 0.3297 0.2356
C26 C 0.14627(10) 0.39340(9) 0.26378(8)
C27 C 0.14536(11) 0.44426(9) 0.29154(8)
H19 H 0.1865 0.4641 0.2986
C29 C 0.21202(11) 0.37107(9) 0.24262(9)
O7 O 0.41264(7) 0.36338(7) 0.20286(6)
N4 N 0.29177(10) 0.39229(8) 0.14062(7)
N5 N 0.32922(10) 0.26792(8) 0.15007(8)
O1 O 0.95578(10) 0.31981(9) 0.22792(9)
O3 O 0.91264(7) 0.36338(7) 0.29714(6)
C1 C 0.75765(15) 0.38041(11) 0.60693(11)
H3 H 0.7713 0.3419 0.6033
C2 C 0.78994(15) 0.42040(11) 0.57724(11)
H4 H 0.8247 0.4093 0.5537
C3 C 0.77167(11) 0.47712(10) 0.58164(8)
C4 C 0.71856(13) 0.48933(10) 0.61505(9)
H5 H 0.7028 0.5273 0.6186
C5 C 0.68881(12) 0.44656(10) 0.64296(10)
H6 H 0.6522 0.4561 0.6653
C6 C 0.80991(11) 0.52319(10) 0.55507(9)
C7 C 0.85011(12) 0.51393(10) 0.51165(8)
H7 H 0.8506 0.4775 0.4959
C8 C 0.88944(12) 0.55750(10) 0.49122(8)
C9 C 0.88591(13) 0.61023(10) 0.51543(9)
H8 H 0.9117 0.6415 0.5028
C10 C 0.84396(12) 0.61651(10) 0.55844(9)
C11 C 0.83971(13) 0.67070(9) 0.58831(10)
C12 C 0.88967(16) 0.71140(13) 0.58899(13)
H9 H 0.9293 0.7068 0.5683
C13 C 0.88261(16) 0.75924(12) 0.61968(13)
H10 H 0.9177 0.7871 0.6189
C14 C 0.78123(14) 0.72810(11) 0.64936(11)
H11 H 0.7421 0.7334 0.6704
C15 C 0.78487(15) 0.67994(11) 0.62008(11)
H12 H 0.7492 0.6527 0.6217
C16 C 0.93782(12) 0.54675(9) 0.44826(8)
C17 C 0.95938(15) 0.58953(10) 0.41470(10)
H13 H 0.9411 0.6267 0.4182
C21 C 0.96656(12) 0.49327(10) 0.44191(8)
H16 H 0.9525 0.4632 0.4639
H17 H 0.9811 0.4520 0.3098
C28 C 0.95942(11) 0.35351(10) 0.26491(9)
N1 N 0.70823(10) 0.39229(8) 0.64062(7)
N2 N 0.80604(10) 0.57420(8) 0.57758(7)
N3 N 0.82922(10) 0.76792(8) 0.65007(8)
Ni2 Ni 0.816200(14) 0.835239(11) 0.700277(11)
Ni3 Ni 0.816200(14) 0.335239(11) 0.299723(11)
Ni4 Ni 0.683800(14) 0.335239(11) 0.700277(11)
H5_2 H 0.2972 0.0273 0.8814
C6_2 C 0.19009(11) 0.02319(10) 0.94493(9)
C7_2 C 0.14989(12) 0.01393(10) 0.98835(8)
C9_2 C 0.11409(13) 0.11023(10) 0.98457(9)
H8_2 H 0.0883 0.1415 0.9972
C10_2 C 0.15604(12) 0.11651(10) 0.94156(9)
C11_2 C 0.16029(13) 0.17070(9) 0.91169(10)
C12_2 C 0.11033(16) 0.21140(13) 0.91101(13)
H9_2 H 0.0707 0.2068 0.9317
C13_2 C 0.11739(16) 0.25924(12) 0.88032(13)
H10_2 H 0.0823 0.2871 0.8811
C14_2 C 0.21877(14) 0.22810(11) 0.85064(11)
H11_2 H 0.2579 0.2334 0.8296
C15_2 C 0.21513(15) 0.17994(11) 0.87992(11)
H12_2 H 0.2508 0.1527 0.8783
N2_2 N 0.19396(10) 0.07420(8) 0.92242(7)
N3_2 N 0.17078(10) 0.26792(8) 0.84993(8)
Ni2_2 Ni 0.183800(14) 0.335239(11) 0.799723(11)
O1_2 O 0.04422(10) 0.81981(9) 0.27208(9)
O3_2 O 0.08736(7) 0.86338(7) 0.20286(6)
H7_2 H 0.1494 0.9775 0.0041
C21_2 C 0.03344(12) 0.99327(10) 0.05809(8)
H16_2 H 0.0475 0.9632 0.0361
H17_2 H 0.0189 0.9520 0.1902
C28_2 C 0.04058(11) 0.85351(10) 0.23509(9)
Ni3_2 Ni 0.183800(14) 0.835239(11) 0.200277(11)
C1_2 C 0.24235(15) 0.88041(11) 0.89307(11)
H3_2 H 0.2287 0.8419 0.8967
C2_2 C 0.21006(15) 0.92040(11) 0.92276(11)
H4_2 H 0.1753 0.9093 0.9463
C3_2 C 0.22833(11) 0.97712(10) 0.91836(8)
C4_2 C 0.28144(13) 0.98933(10) 0.88495(9)
C5_2 C 0.31119(12) 0.94656(10) 0.85704(10)
H6_2 H 0.3478 0.9561 0.8347
N1_2 N 0.29177(10) 0.89229(8) 0.85938(7)
Ni4_2 Ni 0.316200(14) 0.835239(11) 0.799723(11)
Ni1_2 Ni 0.683800(14) 0.835239(11) 0.299723(11)
O2_2 O 0.66657(8) 0.78267(7) 0.23714(6)
H1_2 H 0.6737 0.7469 0.2349
H2_2 H 0.6261 0.7899 0.2257
O4_2 O 0.78922(8) 0.82640(6) 0.28512(6)
O5_2 O 0.73257(7) 0.89625(6) 0.24900(6)
C20_2 C 0.98531(12) 0.98269(10) 0.09524(9)
H15_2 H 0.9655 0.9460 0.0981
C22_2 C 0.91639(11) 0.96515(9) 0.19145(8)
C23_2 C 0.97667(11) 0.93650(10) 0.20131(8)
C24_2 C 0.97530(11) 0.88543(9) 0.22732(8)
C25_2 C 0.91365(11) 0.86432(9) 0.24550(8)
H18_2 H 0.9127 0.8297 0.2644
C26_2 C 0.85373(10) 0.89340(9) 0.23622(8)
C27_2 C 0.85464(11) 0.94426(9) 0.20846(8)
H19_2 H 0.8135 0.9641 0.2014
C29_2 C 0.78798(11) 0.87107(9) 0.25738(9)
O7_2 O 0.58736(7) 0.86338(7) 0.29714(6)
N4_2 N 0.70823(10) 0.89229(8) 0.35938(7)
N5_2 N 0.67078(10) 0.76792(8) 0.34993(8)
H5_3 H 0.2028 0.0273 0.1186
C6_3 C 0.30991(11) 0.02319(10) 0.05507(9)
C7_3 C 0.35011(12) 0.01393(10) 0.01165(8)
C9_3 C 0.38591(13) 0.11023(10) 0.01543(9)
H8_3 H 0.4117 0.1415 0.0028
C10_3 C 0.34396(12) 0.11651(10) 0.05844(9)
C11_3 C 0.33971(13) 0.17070(9) 0.08831(10)
C12_3 C 0.38967(16) 0.21140(13) 0.08899(13)
H9_3 H 0.4293 0.2068 0.0683
C13_3 C 0.38261(16) 0.25924(12) 0.11968(13)
H10_3 H 0.4177 0.2871 0.1189
C14_3 C 0.28123(14) 0.22810(11) 0.14936(11)
H11_3 H 0.2421 0.2334 0.1704
C15_3 C 0.28487(15) 0.17994(11) 0.12008(11)
H12_3 H 0.2492 0.1527 0.1217
N2_3 N 0.30604(10) 0.07420(8) 0.07758(7)
C1_3 C 0.25765(15) 0.88041(11) 0.10693(11)
H3_3 H 0.2713 0.8419 0.1033
C2_3 C 0.28994(15) 0.92040(11) 0.07724(11)
H4_3 H 0.3247 0.9093 0.0537
C3_3 C 0.27167(11) 0.97712(10) 0.08164(8)
C4_3 C 0.21856(13) 0.98933(10) 0.11505(9)
C5_3 C 0.18881(12) 0.94656(10) 0.14296(10)
H6_3 H 0.1522 0.9561 0.1653
N1_3 N 0.20823(10) 0.89229(8) 0.14062(7)
O1_3 O 0.45578(10) 0.81981(9) 0.72792(9)
O2_3 O 0.83343(8) 0.78267(7) 0.76286(6)
H1_3 H 0.8263 0.7469 0.7651
H2_3 H 0.8739 0.7899 0.7743
O3_3 O 0.41264(7) 0.86338(7) 0.79714(6)
O4_3 O 0.71078(8) 0.82640(6) 0.71488(6)
O5_3 O 0.76743(7) 0.89625(6) 0.75100(6)
H7_3 H 0.3506 0.9775 0.9959
C20_3 C 0.51469(12) 0.98269(10) 0.90476(9)
H15_3 H 0.5345 0.9460 0.9019
C21_3 C 0.46656(12) 0.99327(10) 0.94191(8)
H16_3 H 0.4525 0.9632 0.9639
C22_3 C 0.58361(11) 0.96515(9) 0.80855(8)
C23_3 C 0.52333(11) 0.93650(10) 0.79869(8)
H17_3 H 0.4811 0.9520 0.8098
C24_3 C 0.52470(11) 0.88543(9) 0.77268(8)
C25_3 C 0.58635(11) 0.86432(9) 0.75450(8)
H18_3 H 0.5873 0.8297 0.7356
C26_3 C 0.64627(10) 0.89340(9) 0.76378(8)
C27_3 C 0.64536(11) 0.94426(9) 0.79154(8)
H19_3 H 0.6865 0.9641 0.7986
C28_3 C 0.45942(11) 0.85351(10) 0.76491(9)
C29_3 C 0.71202(11) 0.87107(9) 0.74262(9)
O7_3 O 0.91264(7) 0.86338(7) 0.70286(6)
N4_3 N 0.79177(10) 0.89229(8) 0.64062(7)
O1_4 O 0.54422(10) 0.31981(9) 0.77208(9)
O2_4 O 0.16657(8) 0.28267(7) 0.73714(6)
H1_4 H 0.1737 0.2469 0.7349
H2_4 H 0.1261 0.2899 0.7257
O3_4 O 0.58736(7) 0.36338(7) 0.70286(6)
O4_4 O 0.28922(8) 0.32640(6) 0.78512(6)
O5_4 O 0.23257(7) 0.39625(6) 0.74900(6)
O6_2 O 0.41592(8) 0.51714(6) 0.66562(6)
C1_4 C 0.74235(15) 0.38041(11) 0.39307(11)
H3_4 H 0.7287 0.3419 0.3967
C2_4 C 0.71006(15) 0.42040(11) 0.42276(11)
H4_4 H 0.6753 0.4093 0.4463
C3_4 C 0.72833(11) 0.47712(10) 0.41836(8)
C4_4 C 0.78144(13) 0.48933(10) 0.38495(9)
H5_4 H 0.7972 0.5273 0.3814
C5_4 C 0.81119(12) 0.44656(10) 0.35704(10)
H6_4 H 0.8478 0.4561 0.3347
C6_4 C 0.69009(11) 0.52319(10) 0.44493(9)
C7_4 C 0.64989(12) 0.51393(10) 0.48835(8)
H7_4 H 0.6494 0.4775 0.5041
C8_2 C 0.61056(12) 0.55750(10) 0.50878(8)
C9_4 C 0.61409(13) 0.61023(10) 0.48457(9)
H8_4 H 0.5883 0.6415 0.4972
C10_4 C 0.65604(12) 0.61651(10) 0.44156(9)
C11_4 C 0.66029(13) 0.67070(9) 0.41169(10)
C12_4 C 0.61033(16) 0.71140(13) 0.41101(13)
H9_4 H 0.5707 0.7068 0.4317
C13_4 C 0.61739(16) 0.75924(12) 0.38032(13)
H10_4 H 0.5823 0.7871 0.3811
C14_4 C 0.71877(14) 0.72810(11) 0.35064(11)
H11_4 H 0.7579 0.7334 0.3296
C15_4 C 0.71513(15) 0.67994(11) 0.37992(11)
H12_4 H 0.7508 0.6527 0.3783
C16_2 C 0.56218(12) 0.54675(9) 0.55174(8)
C17_2 C 0.54062(15) 0.58953(10) 0.58530(10)
H13_2 H 0.5589 0.6267 0.5818
C18_2 C 0.49329(15) 0.57880(10) 0.62350(10)
H14_2 H 0.4798 0.6083 0.6464
C19_2 C 0.46571(12) 0.52532(10) 0.62833(9)
C20_4 C 0.48531(12) 0.48269(10) 0.59524(9)
H15_4 H 0.4655 0.4460 0.5981
C21_4 C 0.53344(12) 0.49327(10) 0.55809(8)
H16_4 H 0.5475 0.4632 0.5361
C22_4 C 0.41639(11) 0.46515(9) 0.69145(8)
C23_4 C 0.47667(11) 0.43650(10) 0.70131(8)
H17_4 H 0.5189 0.4520 0.6902
C24_4 C 0.47530(11) 0.38543(9) 0.72732(8)
C25_4 C 0.41365(11) 0.36432(9) 0.74550(8)
H18_4 H 0.4127 0.3297 0.7644
C26_4 C 0.35373(10) 0.39340(9) 0.73622(8)
C27_4 C 0.35464(11) 0.44426(9) 0.70846(8)
H19_4 H 0.3135 0.4641 0.7014
C28_4 C 0.54058(11) 0.35351(10) 0.73509(9)
C29_4 C 0.28798(11) 0.37107(9) 0.75738(9)
N1_4 N 0.79177(10) 0.39229(8) 0.35938(7)
N2_4 N 0.69396(10) 0.57420(8) 0.42242(7)
O7_4 O 0.08736(7) 0.36338(7) 0.79714(6)
N4_4 N 0.20823(10) 0.39229(8) 0.85938(7)
O1_5 O 0.45578(10) 0.31981(9) 0.27208(9)
O2_5 O 0.83343(8) 0.28267(7) 0.23714(6)
H1_5 H 0.8263 0.2469 0.2349
H2_5 H 0.8739 0.2899 0.2257
O4_5 O 0.71078(8) 0.32640(6) 0.28512(6)
O5_5 O 0.76743(7) 0.39625(6) 0.24900(6)
O6_3 O 0.58408(8) 0.51714(6) 0.16562(6)
H7_5 H 0.3506 0.4775 0.0041
C8_3 C 0.38944(12) 0.55750(10) 0.00878(8)
C16_3 C 0.43782(12) 0.54675(9) 0.05174(8)
C17_3 C 0.45938(15) 0.58953(10) 0.08530(10)
H13_3 H 0.4411 0.6267 0.0818
C18_3 C 0.50671(15) 0.57880(10) 0.12350(10)
H14_3 H 0.5202 0.6083 0.1464
C19_3 C 0.53429(12) 0.52532(10) 0.12833(9)
C20_5 C 0.51469(12) 0.48269(10) 0.09524(9)
H15_5 H 0.5345 0.4460 0.0981
C21_5 C 0.46656(12) 0.49327(10) 0.05809(8)
H16_5 H 0.4525 0.4632 0.0361
C22_5 C 0.58361(11) 0.46515(9) 0.19145(8)
C23_5 C 0.52333(11) 0.43650(10) 0.20131(8)
H17_5 H 0.4811 0.4520 0.1902
C24_5 C 0.52470(11) 0.38543(9) 0.22732(8)
C25_5 C 0.58635(11) 0.36432(9) 0.24550(8)
H18_5 H 0.5873 0.3297 0.2644
C26_5 C 0.64627(10) 0.39340(9) 0.23622(8)
C27_5 C 0.64536(11) 0.44426(9) 0.20846(8)
H19_5 H 0.6865 0.4641 0.2014
C28_5 C 0.45942(11) 0.35351(10) 0.23509(9)
C29_5 C 0.71202(11) 0.37107(9) 0.25738(9)
N5_3 N 0.82922(10) 0.26792(8) 0.34993(8)
C1_5 C 0.25765(15) 0.38041(11) 0.89307(11)
H3_5 H 0.2713 0.3419 0.8967
C2_5 C 0.28994(15) 0.42040(11) 0.92276(11)
H4_5 H 0.3247 0.4093 0.9463
C3_5 C 0.27167(11) 0.47712(10) 0.91836(8)
C4_5 C 0.21856(13) 0.48933(10) 0.88495(9)
H5_5 H 0.2028 0.5273 0.8814
C5_5 C 0.18881(12) 0.44656(10) 0.85704(10)
H6_5 H 0.1522 0.4561 0.8347
C6_5 C 0.30991(11) 0.52319(10) 0.94493(9)
C7_5 C 0.35011(12) 0.51393(10) 0.98835(8)
C9_5 C 0.38591(13) 0.61023(10) 0.98457(9)
H8_5 H 0.4117 0.6415 0.9972
C10_5 C 0.34396(12) 0.61651(10) 0.94156(9)
C11_5 C 0.33971(13) 0.67070(9) 0.91169(10)
C12_5 C 0.38967(16) 0.71140(13) 0.91101(13)
H9_5 H 0.4293 0.7068 0.9317
C13_5 C 0.38261(16) 0.75924(12) 0.88032(13)
H10_5 H 0.4177 0.7871 0.8811
C14_5 C 0.28123(14) 0.72810(11) 0.85064(11)
H11_5 H 0.2421 0.7334 0.8296
C15_5 C 0.28487(15) 0.67994(11) 0.87992(11)
H12_5 H 0.2492 0.6527 0.8783
N2_5 N 0.30604(10) 0.57420(8) 0.92242(7)
N3_3 N 0.32922(10) 0.76792(8) 0.84993(8)
O6_4 O 0.41592(8) 0.01714(6) 0.33438(6)
H5_6 H 0.7972 0.0273 0.6186
C6_6 C 0.69009(11) 0.02319(10) 0.55507(9)
C7_6 C 0.64989(12) 0.01393(10) 0.51165(8)
C8_4 C 0.61056(12) 0.05750(10) 0.49122(8)
C9_6 C 0.61409(13) 0.11023(10) 0.51543(9)
H8_6 H 0.5883 0.1415 0.5028
C10_6 C 0.65604(12) 0.11651(10) 0.55844(9)
C11_6 C 0.66029(13) 0.17070(9) 0.58831(10)
C12_6 C 0.61033(16) 0.21140(13) 0.58899(13)
H9_6 H 0.5707 0.2068 0.5683
C13_6 C 0.61739(16) 0.25924(12) 0.61968(13)
H10_6 H 0.5823 0.2871 0.6189
C14_6 C 0.71877(14) 0.22810(11) 0.64936(11)
H11_6 H 0.7579 0.2334 0.6704
C15_6 C 0.71513(15) 0.17994(11) 0.62008(11)
H12_6 H 0.7508 0.1527 0.6217
C16_4 C 0.56218(12) 0.04675(9) 0.44826(8)
C17_4 C 0.54062(15) 0.08953(10) 0.41470(10)
H13_4 H 0.5589 0.1267 0.4182
C18_4 C 0.49329(15) 0.07880(10) 0.37650(10)
H14_4 H 0.4798 0.1083 0.3536
C19_4 C 0.46571(12) 0.02532(10) 0.37167(9)
N2_6 N 0.69396(10) 0.07420(8) 0.57758(7)
N3_4 N 0.67078(10) 0.26792(8) 0.65007(8)
O1_6 O 0.54422(10) 0.81981(9) 0.22792(9)
O2_6 O 0.16657(8) 0.78267(7) 0.26286(6)
H1_6 H 0.1737 0.7469 0.2651
H2_6 H 0.1261 0.7899 0.2743
O4_6 O 0.28922(8) 0.82640(6) 0.21488(6)
O5_6 O 0.23257(7) 0.89625(6) 0.25100(6)
C1_6 C 0.74235(15) 0.88041(11) 0.60693(11)
H3_6 H 0.7287 0.8419 0.6033
C2_6 C 0.71006(15) 0.92040(11) 0.57724(11)
H4_6 H 0.6753 0.9093 0.5537
C3_6 C 0.72833(11) 0.97712(10) 0.58164(8)
C4_6 C 0.78144(13) 0.98933(10) 0.61505(9)
C5_6 C 0.81119(12) 0.94656(10) 0.64296(10)
H6_6 H 0.8478 0.9561 0.6653
H7_6 H 0.6494 0.9775 0.4959
C20_6 C 0.48531(12) 0.98269(10) 0.40476(9)
H15_6 H 0.4655 0.9460 0.4019
C21_6 C 0.53344(12) 0.99327(10) 0.44191(8)
H16_6 H 0.5475 0.9632 0.4639
C22_6 C 0.41639(11) 0.96515(9) 0.30855(8)
C23_6 C 0.47667(11) 0.93650(10) 0.29869(8)
H17_6 H 0.5189 0.9520 0.3098
C24_6 C 0.47530(11) 0.88543(9) 0.27268(8)
C25_6 C 0.41365(11) 0.86432(9) 0.25450(8)
H18_6 H 0.4127 0.8297 0.2356
C26_6 C 0.35373(10) 0.89340(9) 0.26378(8)
C27_6 C 0.35464(11) 0.94426(9) 0.29154(8)
H19_6 H 0.3135 0.9641 0.2986
C28_6 C 0.54058(11) 0.85351(10) 0.26491(9)
C29_6 C 0.28798(11) 0.87107(9) 0.24262(9)
N5_4 N 0.17078(10) 0.76792(8) 0.15007(8)
O2_7 O 0.33343(8) 0.78267(7) 0.73714(6)
H1_7 H 0.3263 0.7469 0.7349
H2_7 H 0.3739 0.7899 0.7257
O4_7 O 0.21078(8) 0.82640(6) 0.78512(6)
O5_7 O 0.26743(7) 0.89625(6) 0.74900(6)
C20_7 C 0.01469(12) 0.98269(10) 0.59524(9)
H15_7 H 0.0345 0.9460 0.5981
C22_7 C 0.08361(11) 0.96515(9) 0.69145(8)
C23_7 C 0.02333(11) 0.93650(10) 0.70131(8)
C24_7 C 0.02470(11) 0.88543(9) 0.72732(8)
C25_7 C 0.08635(11) 0.86432(9) 0.74550(8)
H18_7 H 0.0873 0.8297 0.7644
C26_7 C 0.14627(10) 0.89340(9) 0.73622(8)
C27_7 C 0.14536(11) 0.94426(9) 0.70846(8)
H19_7 H 0.1865 0.9641 0.7014
C29_7 C 0.21202(11) 0.87107(9) 0.75738(9)
H5_7 H 0.7028 0.0273 0.3814
C6_7 C 0.80991(11) 0.02319(10) 0.44493(9)
C7_7 C 0.85011(12) 0.01393(10) 0.48835(8)
C8_5 C 0.88944(12) 0.05750(10) 0.50878(8)
C9_7 C 0.88591(13) 0.11023(10) 0.48457(9)
H8_7 H 0.9117 0.1415 0.4972
C10_7 C 0.84396(12) 0.11651(10) 0.44156(9)
C11_7 C 0.83971(13) 0.17070(9) 0.41169(10)
C12_7 C 0.88967(16) 0.21140(13) 0.41101(13)
H9_7 H 0.9293 0.2068 0.4317
C13_7 C 0.88261(16) 0.25924(12) 0.38032(13)
H10_7 H 0.9177 0.2871 0.3811
C14_7 C 0.78123(14) 0.22810(11) 0.35064(11)
H11_7 H 0.7421 0.2334 0.3296
C15_7 C 0.78487(15) 0.17994(11) 0.37992(11)
H12_7 H 0.7492 0.1527 0.3783
C16_5 C 0.93782(12) 0.04675(9) 0.55174(8)
C17_5 C 0.95938(15) 0.08953(10) 0.58530(10)
H13_5 H 0.9411 0.1267 0.5818
N2_7 N 0.80604(10) 0.07420(8) 0.42242(7)
O1_7 O 0.95578(10) 0.81981(9) 0.77208(9)
C1_7 C 0.75765(15) 0.88041(11) 0.39307(11)
H3_7 H 0.7713 0.8419 0.3967
C2_7 C 0.78994(15) 0.92040(11) 0.42276(11)
H4_7 H 0.8247 0.9093 0.4463
C3_7 C 0.77167(11) 0.97712(10) 0.41836(8)
C4_7 C 0.71856(13) 0.98933(10) 0.38495(9)
C5_7 C 0.68881(12) 0.94656(10) 0.35704(10)
H6_7 H 0.6522 0.9561 0.3347
H7_7 H 0.8506 0.9775 0.5041
C21_7 C 0.96656(12) 0.99327(10) 0.55809(8)
H16_7 H 0.9525 0.9632 0.5361
H17_7 H 0.9811 0.9520 0.6902
C28_7 C 0.95942(11) 0.85351(10) 0.73509(9)
C1_8 C 0.24235(15) 0.38041(11) 0.10693(11)
H3_8 H 0.2287 0.3419 0.1033
C2_8 C 0.21006(15) 0.42040(11) 0.07724(11)
H4_8 H 0.1753 0.4093 0.0537
C3_8 C 0.22833(11) 0.47712(10) 0.08164(8)
C4_8 C 0.28144(13) 0.48933(10) 0.11505(9)
H5_8 H 0.2972 0.5273 0.1186
C5_8 C 0.31119(12) 0.44656(10) 0.14296(10)
H6_8 H 0.3478 0.4561 0.1653
C6_8 C 0.19009(11) 0.52319(10) 0.05507(9)
C7_8 C 0.14989(12) 0.51393(10) 0.01165(8)
C9_8 C 0.11409(13) 0.61023(10) 0.01543(9)
H8_8 H 0.0883 0.6415 0.0028
C10_8 C 0.15604(12) 0.61651(10) 0.05844(9)
C11_8 C 0.16029(13) 0.67070(9) 0.08831(10)
C12_8 C 0.11033(16) 0.71140(13) 0.08899(13)
H9_8 H 0.0707 0.7068 0.0683
C13_8 C 0.11739(16) 0.75924(12) 0.11968(13)
H10_8 H 0.0823 0.7871 0.1189
C14_8 C 0.21877(14) 0.72810(11) 0.14936(11)
H11_8 H 0.2579 0.7334 0.1704
C15_8 C 0.21513(15) 0.67994(11) 0.12008(11)
H12_8 H 0.2508 0.6527 0.1217
N2_8 N 0.19396(10) 0.57420(8) 0.07758(7)
O1_8 O 0.04422(10) 0.31981(9) 0.72792(9)
H7_8 H 0.1494 0.4775 0.9959
C8_6 C 0.11056(12) 0.55750(10) 0.99122(8)
C16_6 C 0.06218(12) 0.54675(9) 0.94826(8)
C17_6 C 0.04062(15) 0.58953(10) 0.91470(10)
H13_6 H 0.0589 0.6267 0.9182
C21_8 C 0.03344(12) 0.49327(10) 0.94191(8)
H16_8 H 0.0475 0.4632 0.9639
H17_8 H 0.0189 0.4520 0.8098
C28_8 C 0.04058(11) 0.35351(10) 0.76491(9)
O2_8 O 0.66657(8) 0.28267(7) 0.76286(6)
H1_8 H 0.6737 0.2469 0.7651
H2_8 H 0.6261 0.2899 0.7743
O4_8 O 0.78922(8) 0.32640(6) 0.71488(6)
O5_8 O 0.73257(7) 0.39625(6) 0.75100(6)
O6_5 O 0.91592(8) 0.51714(6) 0.83438(6)
C18_5 C 0.99329(15) 0.57880(10) 0.87650(10)
H14_5 H 0.9798 0.6083 0.8536
C19_5 C 0.96571(12) 0.52532(10) 0.87167(9)
C20_8 C 0.98531(12) 0.48269(10) 0.90476(9)
H15_8 H 0.9655 0.4460 0.9019
C22_8 C 0.91639(11) 0.46515(9) 0.80855(8)
C23_8 C 0.97667(11) 0.43650(10) 0.79869(8)
C24_8 C 0.97530(11) 0.38543(9) 0.77268(8)
C25_8 C 0.91365(11) 0.36432(9) 0.75450(8)
H18_8 H 0.9127 0.3297 0.7356
C26_8 C 0.85373(10) 0.39340(9) 0.76378(8)
C27_8 C 0.85464(11) 0.44426(9) 0.79154(8)
H19_8 H 0.8135 0.4641 0.7986
C29_8 C 0.78798(11) 0.37107(9) 0.74262(9)
C1_9 C 0.74235(15) 0.61959(11) 0.10693(11)
H3_9 H 0.7287 0.6581 0.1033
C2_9 C 0.71006(15) 0.57960(11) 0.07724(11)
H4_9 H 0.6753 0.5907 0.0537
C3_9 C 0.72833(11) 0.52288(10) 0.08164(8)
C4_9 C 0.78144(13) 0.51067(10) 0.11505(9)
H5_9 H 0.7972 0.4727 0.1186
C5_9 C 0.81119(12) 0.55344(10) 0.14296(10)
H6_9 H 0.8478 0.5439 0.1653
C6_9 C 0.69009(11) 0.47681(10) 0.05507(9)
C7_9 C 0.64989(12) 0.48607(10) 0.01165(8)
C9_9 C 0.61409(13) 0.38977(10) 0.01543(9)
H8_9 H 0.5883 0.3585 0.0028
C10_9 C 0.65604(12) 0.38349(10) 0.05844(9)
C11_9 C 0.66029(13) 0.32930(9) 0.08831(10)
C12_9 C 0.61033(16) 0.28860(13) 0.08899(13)
H9_9 H 0.5707 0.2932 0.0683
C13_9 C 0.61739(16) 0.24076(12) 0.11968(13)
H10_9 H 0.5823 0.2129 0.1189
C14_9 C 0.71877(14) 0.27190(11) 0.14936(11)
H11_9 H 0.7579 0.2666 0.1704
C15_9 C 0.71513(15) 0.32006(11) 0.12008(11)
H12_9 H 0.7508 0.3473 0.1217
N1_5 N 0.79177(10) 0.60771(8) 0.14062(7)
N2_9 N 0.69396(10) 0.42580(8) 0.07758(7)
N3_5 N 0.67078(10) 0.23208(8) 0.15007(8)
Ni2_3 Ni 0.683800(14) 0.164761(11) 0.200277(11)
Ni4_3 Ni 0.816200(14) 0.664761(11) 0.200277(11)
Ni1_3 Ni 0.183800(14) 0.664761(11) 0.700277(11)
O1_9 O 0.54422(10) 0.68019(9) 0.72792(9)
O2_9 O 0.16657(8) 0.71733(7) 0.76286(6)
H1_9 H 0.1737 0.7531 0.7651
H2_9 H 0.1261 0.7101 0.7743
O3_5 O 0.58736(7) 0.63662(7) 0.79714(6)
O4_9 O 0.28922(8) 0.67360(6) 0.71488(6)
O5_9 O 0.23257(7) 0.60375(6) 0.75100(6)
O6_6 O 0.41592(8) 0.48286(6) 0.83438(6)
H7_9 H 0.6494 0.5225 0.9959
C8_7 C 0.61056(12) 0.44250(10) 0.99122(8)
C16_7 C 0.56218(12) 0.45325(9) 0.94826(8)
C17_7 C 0.54062(15) 0.41047(10) 0.91470(10)
H13_7 H 0.5589 0.3733 0.9182
C18_6 C 0.49329(15) 0.42120(10) 0.87650(10)
H14_6 H 0.4798 0.3917 0.8536
C19_6 C 0.46571(12) 0.47468(10) 0.87167(9)
C20_9 C 0.48531(12) 0.51731(10) 0.90476(9)
H15_9 H 0.4655 0.5540 0.9019
C21_9 C 0.53344(12) 0.50673(10) 0.94191(8)
H16_9 H 0.5475 0.5368 0.9639
C22_9 C 0.41639(11) 0.53485(9) 0.80855(8)
C23_9 C 0.47667(11) 0.56350(10) 0.79869(8)
H17_9 H 0.5189 0.5480 0.8098
C24_9 C 0.47530(11) 0.61457(9) 0.77268(8)
C25_9 C 0.41365(11) 0.63568(9) 0.75450(8)
H18_9 H 0.4127 0.6703 0.7356
C26_9 C 0.35373(10) 0.60660(9) 0.76378(8)
C27_9 C 0.35464(11) 0.55574(9) 0.79154(8)
H19_9 H 0.3135 0.5359 0.7986
C28_9 C 0.54058(11) 0.64649(10) 0.76491(9)
C29_9 C 0.28798(11) 0.62893(9) 0.74262(9)
Ni3_3 Ni 0.683800(14) 0.664761(11) 0.799723(11)
O7_5 O 0.08736(7) 0.63662(7) 0.70286(6)
N4_5 N 0.20823(10) 0.60771(8) 0.64062(7)
N5_5 N 0.17078(10) 0.73208(8) 0.65007(8)
Ni1_4 Ni 0.816200(14) 0.164761(11) 0.799723(11)
O1_10 O 0.45578(10) 0.18019(9) 0.77208(9)
O2_10 O 0.83343(8) 0.21733(7) 0.73714(6)
H1_10 H 0.8263 0.2531 0.7349
H2_10 H 0.8739 0.2101 0.7257
O3_6 O 0.41264(7) 0.13662(7) 0.70286(6)
O4_10 O 0.71078(8) 0.17360(6) 0.78512(6)
O5_10 O 0.76743(7) 0.10375(6) 0.74900(6)
C1_10 C 0.25765(15) 0.11959(11) 0.39307(11)
H3_10 H 0.2713 0.1581 0.3967
C2_10 C 0.28994(15) 0.07960(11) 0.42276(11)
H4_10 H 0.3247 0.0907 0.4463
C3_10 C 0.27167(11) 0.02288(10) 0.41836(8)
C4_10 C 0.21856(13) 0.01067(10) 0.38495(9)
C5_10 C 0.18881(12) 0.05344(10) 0.35704(10)
H6_10 H 0.1522 0.0439 0.3347
H7_10 H 0.3506 0.0225 0.5041
C20_10 C 0.51469(12) 0.01731(10) 0.59524(9)
H15_10 H 0.5345 0.0540 0.5981
C21_10 C 0.46656(12) 0.00673(10) 0.55809(8)
H16_10 H 0.4525 0.0368 0.5361
C22_10 C 0.58361(11) 0.03485(9) 0.69145(8)
C23_10 C 0.52333(11) 0.06350(10) 0.70131(8)
H17_10 H 0.4811 0.0480 0.6902
C24_10 C 0.52470(11) 0.11457(9) 0.72732(8)
C25_10 C 0.58635(11) 0.13568(9) 0.74550(8)
H18_10 H 0.5873 0.1703 0.7644
C26_10 C 0.64627(10) 0.10660(9) 0.73622(8)
C27_10 C 0.64536(11) 0.05574(9) 0.70846(8)
H19_10 H 0.6865 0.0359 0.7014
C28_10 C 0.45942(11) 0.14649(10) 0.73509(9)
C29_10 C 0.71202(11) 0.12893(9) 0.75738(9)
N1_6 N 0.20823(10) 0.10771(8) 0.35938(7)
Ni3_4 Ni 0.316200(14) 0.164761(11) 0.700277(11)
Ni4_4 Ni 0.183800(14) 0.164761(11) 0.299723(11)
O7_6 O 0.91264(7) 0.13662(7) 0.79714(6)
N4_6 N 0.79177(10) 0.10771(8) 0.85938(7)
N5_6 N 0.82922(10) 0.23208(8) 0.84993(8)
O6_7 O 0.58408(8) 0.98286(6) 0.66562(6)
H5_10 H 0.2028 0.9727 0.3814
C6_10 C 0.30991(11) 0.97681(10) 0.44493(9)
C7_10 C 0.35011(12) 0.98607(10) 0.48835(8)
C8_8 C 0.38944(12) 0.94250(10) 0.50878(8)
C9_10 C 0.38591(13) 0.88977(10) 0.48457(9)
H8_10 H 0.4117 0.8585 0.4972
C10_10 C 0.34396(12) 0.88349(10) 0.44156(9)
C11_10 C 0.33971(13) 0.82930(9) 0.41169(10)
C12_10 C 0.38967(16) 0.78860(13) 0.41101(13)
H9_10 H 0.4293 0.7932 0.4317
C13_10 C 0.38261(16) 0.74076(12) 0.38032(13)
H10_10 H 0.4177 0.7129 0.3811
C14_10 C 0.28123(14) 0.77190(11) 0.35064(11)
H11_10 H 0.2421 0.7666 0.3296
C15_10 C 0.28487(15) 0.82006(11) 0.37992(11)
H12_10 H 0.2492 0.8473 0.3783
C16_8 C 0.43782(12) 0.95325(9) 0.55174(8)
C17_8 C 0.45938(15) 0.91047(10) 0.58530(10)
H13_8 H 0.4411 0.8733 0.5818
C18_7 C 0.50671(15) 0.92120(10) 0.62350(10)
H14_7 H 0.5202 0.8917 0.6464
C19_7 C 0.53429(12) 0.97468(10) 0.62833(9)
N2_10 N 0.30604(10) 0.92580(8) 0.42242(7)
N3_6 N 0.32922(10) 0.73208(8) 0.34993(8)
Ni2_4 Ni 0.316200(14) 0.664761(11) 0.299723(11)
O1_11 O 0.04422(10) 0.18019(9) 0.22792(9)
O3_7 O 0.08736(7) 0.13662(7) 0.29714(6)
C1_11 C 0.24235(15) 0.11959(11) 0.60693(11)
H3_11 H 0.2287 0.1581 0.6033
C2_11 C 0.21006(15) 0.07960(11) 0.57724(11)
H4_11 H 0.1753 0.0907 0.5537
C3_11 C 0.22833(11) 0.02288(10) 0.58164(8)
C4_11 C 0.28144(13) 0.01067(10) 0.61505(9)
C5_11 C 0.31119(12) 0.05344(10) 0.64296(10)
H6_11 H 0.3478 0.0439 0.6653
H7_11 H 0.1494 0.0225 0.4959
C21_11 C 0.03344(12) 0.00673(10) 0.44191(8)
H16_11 H 0.0475 0.0368 0.4639
H17_11 H 0.0189 0.0480 0.3098
C28_11 C 0.04058(11) 0.14649(10) 0.26491(9)
N1_7 N 0.29177(10) 0.10771(8) 0.64062(7)
H5_11 H 0.2972 0.9727 0.6186
C6_11 C 0.19009(11) 0.97681(10) 0.55507(9)
C7_11 C 0.14989(12) 0.98607(10) 0.51165(8)
C8_9 C 0.11056(12) 0.94250(10) 0.49122(8)
C9_11 C 0.11409(13) 0.88977(10) 0.51543(9)
H8_11 H 0.0883 0.8585 0.5028
C10_11 C 0.15604(12) 0.88349(10) 0.55844(9)
C11_11 C 0.16029(13) 0.82930(9) 0.58831(10)
C12_11 C 0.11033(16) 0.78860(13) 0.58899(13)
H9_11 H 0.0707 0.7932 0.5683
C13_11 C 0.11739(16) 0.74076(12) 0.61968(13)
H10_11 H 0.0823 0.7129 0.6189
C14_11 C 0.21877(14) 0.77190(11) 0.64936(11)
H11_11 H 0.2579 0.7666 0.6704
C15_11 C 0.21513(15) 0.82006(11) 0.62008(11)
H12_11 H 0.2508 0.8473 0.6217
C16_9 C 0.06218(12) 0.95325(9) 0.44826(8)
C17_9 C 0.04062(15) 0.91047(10) 0.41470(10)
H13_9 H 0.0589 0.8733 0.4182
N2_11 N 0.19396(10) 0.92580(8) 0.57758(7)
O2_11 O 0.66657(8) 0.21733(7) 0.26286(6)
H1_11 H 0.6737 0.2531 0.2651
H2_11 H 0.6261 0.2101 0.2743
O4_11 O 0.78922(8) 0.17360(6) 0.21488(6)
O5_11 O 0.73257(7) 0.10375(6) 0.25100(6)
C20_11 C 0.98531(12) 0.01731(10) 0.40476(9)
H15_11 H 0.9655 0.0540 0.4019
C22_11 C 0.91639(11) 0.03485(9) 0.30855(8)
C23_11 C 0.97667(11) 0.06350(10) 0.29869(8)
C24_11 C 0.97530(11) 0.11457(9) 0.27268(8)
C25_11 C 0.91365(11) 0.13568(9) 0.25450(8)
H18_11 H 0.9127 0.1703 0.2356
C26_11 C 0.85373(10) 0.10660(9) 0.26378(8)
C27_11 C 0.85464(11) 0.05574(9) 0.29154(8)
H19_11 H 0.8135 0.0359 0.2986
C29_11 C 0.78798(11) 0.12893(9) 0.24262(9)
O7_7 O 0.58736(7) 0.13662(7) 0.20286(6)
N4_7 N 0.70823(10) 0.10771(8) 0.14062(7)
O2_12 O 0.33343(8) 0.71733(7) 0.23714(6)
H1_12 H 0.3263 0.7531 0.2349
H2_12 H 0.3739 0.7101 0.2257
O4_12 O 0.21078(8) 0.67360(6) 0.28512(6)
O5_12 O 0.26743(7) 0.60375(6) 0.24900(6)
O6_8 O 0.08408(8) 0.48286(6) 0.16562(6)
C18_8 C 0.00671(15) 0.42120(10) 0.12350(10)
H14_8 H 0.0202 0.3917 0.1464
C19_8 C 0.03429(12) 0.47468(10) 0.12833(9)
C20_12 C 0.01469(12) 0.51731(10) 0.09524(9)
H15_12 H 0.0345 0.5540 0.0981
C22_12 C 0.08361(11) 0.53485(9) 0.19145(8)
C23_12 C 0.02333(11) 0.56350(10) 0.20131(8)
C24_12 C 0.02470(11) 0.61457(9) 0.22732(8)
C25_12 C 0.08635(11) 0.63568(9) 0.24550(8)
H18_12 H 0.0873 0.6703 0.2644
C26_12 C 0.14627(10) 0.60660(9) 0.23622(8)
C27_12 C 0.14536(11) 0.55574(9) 0.20846(8)
H19_12 H 0.1865 0.5359 0.2014
C29_12 C 0.21202(11) 0.62893(9) 0.25738(9)
O7_8 O 0.41264(7) 0.63662(7) 0.29714(6)
N4_8 N 0.29177(10) 0.60771(8) 0.35938(7)
O1_12 O 0.95578(10) 0.68019(9) 0.27208(9)
O3_8 O 0.91264(7) 0.63662(7) 0.20286(6)
H7_12 H 0.8506 0.5225 0.0041
C8_10 C 0.88944(12) 0.44250(10) 0.00878(8)
C16_10 C 0.93782(12) 0.45325(9) 0.05174(8)
C17_10 C 0.95938(15) 0.41047(10) 0.08530(10)
H13_10 H 0.9411 0.3733 0.0818
C21_12 C 0.96656(12) 0.50673(10) 0.05809(8)
H16_12 H 0.9525 0.5368 0.0361
H17_12 H 0.9811 0.5480 0.1902
C28_12 C 0.95942(11) 0.64649(10) 0.23509(9)
C1_12 C 0.75765(15) 0.61959(11) 0.89307(11)
H3_12 H 0.7713 0.6581 0.8967
C2_12 C 0.78994(15) 0.57960(11) 0.92276(11)
H4_12 H 0.8247 0.5907 0.9463
C3_12 C 0.77167(11) 0.52288(10) 0.91836(8)
C4_12 C 0.71856(13) 0.51067(10) 0.88495(9)
H5_12 H 0.7028 0.4727 0.8814
C5_12 C 0.68881(12) 0.55344(10) 0.85704(10)
H6_12 H 0.6522 0.5439 0.8347
C6_12 C 0.80991(11) 0.47681(10) 0.94493(9)
C7_12 C 0.85011(12) 0.48607(10) 0.98835(8)
C9_12 C 0.88591(13) 0.38977(10) 0.98457(9)
H8_12 H 0.9117 0.3585 0.9972
C10_12 C 0.84396(12) 0.38349(10) 0.94156(9)
C11_12 C 0.83971(13) 0.32930(9) 0.91169(10)
C12_12 C 0.88967(16) 0.28860(13) 0.91101(13)
H9_12 H 0.9293 0.2932 0.9317
C13_12 C 0.88261(16) 0.24076(12) 0.88032(13)
H10_12 H 0.9177 0.2129 0.8811
C14_12 C 0.78123(14) 0.27190(11) 0.85064(11)
H11_12 H 0.7421 0.2666 0.8296
C15_12 C 0.78487(15) 0.32006(11) 0.87992(11)
H12_12 H 0.7492 0.3473 0.8783
N1_8 N 0.70823(10) 0.60771(8) 0.85938(7)
N2_12 N 0.80604(10) 0.42580(8) 0.92242(7)
O1_13 O 0.04422(10) 0.68019(9) 0.77208(9)
C1_13 C 0.24235(15) 0.61959(11) 0.39307(11)
H3_13 H 0.2287 0.6581 0.3967
C2_13 C 0.21006(15) 0.57960(11) 0.42276(11)
H4_13 H 0.1753 0.5907 0.4463
C3_13 C 0.22833(11) 0.52288(10) 0.41836(8)
C4_13 C 0.28144(13) 0.51067(10) 0.38495(9)
H5_13 H 0.2972 0.4727 0.3814
C5_13 C 0.31119(12) 0.55344(10) 0.35704(10)
H6_13 H 0.3478 0.5439 0.3347
C6_13 C 0.19009(11) 0.47681(10) 0.44493(9)
C7_13 C 0.14989(12) 0.48607(10) 0.48835(8)
H7_13 H 0.1494 0.5225 0.5041
C8_11 C 0.11056(12) 0.44250(10) 0.50878(8)
C9_13 C 0.11409(13) 0.38977(10) 0.48457(9)
H8_13 H 0.0883 0.3585 0.4972
C10_13 C 0.15604(12) 0.38349(10) 0.44156(9)
C11_13 C 0.16029(13) 0.32930(9) 0.41169(10)
C12_13 C 0.11033(16) 0.28860(13) 0.41101(13)
H9_13 H 0.0707 0.2932 0.4317
C13_13 C 0.11739(16) 0.24076(12) 0.38032(13)
H10_13 H 0.0823 0.2129 0.3811
C14_13 C 0.21877(14) 0.27190(11) 0.35064(11)
H11_13 H 0.2579 0.2666 0.3296
C15_13 C 0.21513(15) 0.32006(11) 0.37992(11)
H12_13 H 0.2508 0.3473 0.3783
C16_11 C 0.06218(12) 0.45325(9) 0.55174(8)
C17_11 C 0.04062(15) 0.41047(10) 0.58530(10)
H13_11 H 0.0589 0.3733 0.5818
C21_13 C 0.03344(12) 0.50673(10) 0.55809(8)
H16_13 H 0.0475 0.5368 0.5361
H17_13 H 0.0189 0.5480 0.6902
C28_13 C 0.04058(11) 0.64649(10) 0.73509(9)
N2_13 N 0.19396(10) 0.42580(8) 0.42242(7)
N3_7 N 0.17078(10) 0.23208(8) 0.34993(8)
O2_13 O 0.66657(8) 0.71733(7) 0.73714(6)
H1_13 H 0.6737 0.7531 0.7349
H2_13 H 0.6261 0.7101 0.7257
O4_13 O 0.78922(8) 0.67360(6) 0.78512(6)
O5_13 O 0.73257(7) 0.60375(6) 0.74900(6)
O6_9 O 0.91592(8) 0.48286(6) 0.66562(6)
C18_9 C 0.99329(15) 0.42120(10) 0.62350(10)
H14_9 H 0.9798 0.3917 0.6464
C19_9 C 0.96571(12) 0.47468(10) 0.62833(9)
C20_13 C 0.98531(12) 0.51731(10) 0.59524(9)
H15_13 H 0.9655 0.5540 0.5981
C22_13 C 0.91639(11) 0.53485(9) 0.69145(8)
C23_13 C 0.97667(11) 0.56350(10) 0.70131(8)
C24_13 C 0.97530(11) 0.61457(9) 0.72732(8)
C25_13 C 0.91365(11) 0.63568(9) 0.74550(8)
H18_13 H 0.9127 0.6703 0.7644
C26_13 C 0.85373(10) 0.60660(9) 0.73622(8)
C27_13 C 0.85464(11) 0.55574(9) 0.70846(8)
H19_13 H 0.8135 0.5359 0.7014
C29_13 C 0.78798(11) 0.62893(9) 0.75738(9)
N5_7 N 0.67078(10) 0.73208(8) 0.84993(8)
O2_14 O 0.33343(8) 0.21733(7) 0.76286(6)
H1_14 H 0.3263 0.2531 0.7651
H2_14 H 0.3739 0.2101 0.7743
O4_14 O 0.21078(8) 0.17360(6) 0.71488(6)
O5_14 O 0.26743(7) 0.10375(6) 0.75100(6)
C20_14 C 0.01469(12) 0.01731(10) 0.90476(9)
H15_14 H 0.0345 0.0540 0.9019
C22_14 C 0.08361(11) 0.03485(9) 0.80855(8)
C23_14 C 0.02333(11) 0.06350(10) 0.79869(8)
C24_14 C 0.02470(11) 0.11457(9) 0.77268(8)
C25_14 C 0.08635(11) 0.13568(9) 0.75450(8)
H18_14 H 0.0873 0.1703 0.7356
C26_14 C 0.14627(10) 0.10660(9) 0.76378(8)
C27_14 C 0.14536(11) 0.05574(9) 0.79154(8)
H19_14 H 0.1865 0.0359 0.7986
C29_14 C 0.21202(11) 0.12893(9) 0.74262(9)
N5_8 N 0.32922(10) 0.23208(8) 0.65007(8)
C1_14 C 0.75765(15) 0.11959(11) 0.10693(11)
H3_14 H 0.7713 0.1581 0.1033
C2_14 C 0.78994(15) 0.07960(11) 0.07724(11)
H4_14 H 0.8247 0.0907 0.0537
C3_14 C 0.77167(11) 0.02288(10) 0.08164(8)
C4_14 C 0.71856(13) 0.01067(10) 0.11505(9)
C5_14 C 0.68881(12) 0.05344(10) 0.14296(10)
H6_14 H 0.6522 0.0439 0.1653
O1_14 O 0.95578(10) 0.18019(9) 0.72792(9)
H7_14 H 0.8506 0.0225 0.9959
C21_14 C 0.96656(12) 0.00673(10) 0.94191(8)
H16_14 H 0.9525 0.0368 0.9639
H17_14 H 0.9811 0.0480 0.8098
C28_14 C 0.95942(11) 0.14649(10) 0.76491(9)
H5_14 H 0.7028 0.9727 0.1186
C6_14 C 0.80991(11) 0.97681(10) 0.05507(9)
C7_14 C 0.85011(12) 0.98607(10) 0.01165(8)
C9_14 C 0.88591(13) 0.88977(10) 0.01543(9)
H8_14 H 0.9117 0.8585 0.0028
C10_14 C 0.84396(12) 0.88349(10) 0.05844(9)
C11_14 C 0.83971(13) 0.82930(9) 0.08831(10)
C12_14 C 0.88967(16) 0.78860(13) 0.08899(13)
H9_14 H 0.9293 0.7932 0.0683
C13_14 C 0.88261(16) 0.74076(12) 0.11968(13)
H10_14 H 0.9177 0.7129 0.1189
C14_14 C 0.78123(14) 0.77190(11) 0.14936(11)
H11_14 H 0.7421 0.7666 0.1704
C15_14 C 0.78487(15) 0.82006(11) 0.12008(11)
H12_14 H 0.7492 0.8473 0.1217
N2_14 N 0.80604(10) 0.92580(8) 0.07758(7)
N3_8 N 0.82922(10) 0.73208(8) 0.15007(8)
O1_15 O 0.54422(10) 0.18019(9) 0.27208(9)
O2_15 O 0.16657(8) 0.21733(7) 0.23714(6)
H1_15 H 0.1737 0.2531 0.2349
H2_15 H 0.1261 0.2101 0.2257
O4_15 O 0.28922(8) 0.17360(6) 0.28512(6)
O5_15 O 0.23257(7) 0.10375(6) 0.24900(6)
H7_15 H 0.6494 0.0225 0.0041
C20_15 C 0.48531(12) 0.01731(10) 0.09524(9)
H15_15 H 0.4655 0.0540 0.0981
C21_15 C 0.53344(12) 0.00673(10) 0.05809(8)
H16_15 H 0.5475 0.0368 0.0361
C22_15 C 0.41639(11) 0.03485(9) 0.19145(8)
C23_15 C 0.47667(11) 0.06350(10) 0.20131(8)
H17_15 H 0.5189 0.0480 0.1902
C24_15 C 0.47530(11) 0.11457(9) 0.22732(8)
C25_15 C 0.41365(11) 0.13568(9) 0.24550(8)
H18_15 H 0.4127 0.1703 0.2644
C26_15 C 0.35373(10) 0.10660(9) 0.23622(8)
C27_15 C 0.35464(11) 0.05574(9) 0.20846(8)
H19_15 H 0.3135 0.0359 0.2014
C28_15 C 0.54058(11) 0.14649(10) 0.23509(9)
C29_15 C 0.28798(11) 0.12893(9) 0.25738(9)
C1_15 C 0.74235(15) 0.11959(11) 0.89307(11)
H3_15 H 0.7287 0.1581 0.8967
C2_15 C 0.71006(15) 0.07960(11) 0.92276(11)
H4_15 H 0.6753 0.0907 0.9463
C3_15 C 0.72833(11) 0.02288(10) 0.91836(8)
C4_15 C 0.78144(13) 0.01067(10) 0.88495(9)
C5_15 C 0.81119(12) 0.05344(10) 0.85704(10)
H6_15 H 0.8478 0.0439 0.8347
H5_15 H 0.7972 0.9727 0.8814
C6_15 C 0.69009(11) 0.97681(10) 0.94493(9)
C7_15 C 0.64989(12) 0.98607(10) 0.98835(8)
C9_15 C 0.61409(13) 0.88977(10) 0.98457(9)
H8_15 H 0.5883 0.8585 0.9972
C10_15 C 0.65604(12) 0.88349(10) 0.94156(9)
C11_15 C 0.66029(13) 0.82930(9) 0.91169(10)
C12_15 C 0.61033(16) 0.78860(13) 0.91101(13)
H9_15 H 0.5707 0.7932 0.9317
C13_15 C 0.61739(16) 0.74076(12) 0.88032(13)
H10_15 H 0.5823 0.7129 0.8811
C14_15 C 0.71877(14) 0.77190(11) 0.85064(11)
H11_15 H 0.7579 0.7666 0.8296
C15_15 C 0.71513(15) 0.82006(11) 0.87992(11)
H12_15 H 0.7508 0.8473 0.8783
N2_15 N 0.69396(10) 0.92580(8) 0.92242(7)
O1_16 O 0.45578(10) 0.68019(9) 0.22792(9)
O2_16 O 0.83343(8) 0.71733(7) 0.26286(6)
H1_16 H 0.8263 0.7531 0.2651
H2_16 H 0.8739 0.7101 0.2743
O4_16 O 0.71078(8) 0.67360(6) 0.21488(6)
O5_16 O 0.76743(7) 0.60375(6) 0.25100(6)
O6_10 O 0.58408(8) 0.48286(6) 0.33438(6)
C1_16 C 0.25765(15) 0.61959(11) 0.60693(11)
H3_16 H 0.2713 0.6581 0.6033
C2_16 C 0.28994(15) 0.57960(11) 0.57724(11)
H4_16 H 0.3247 0.5907 0.5537
C3_16 C 0.27167(11) 0.52288(10) 0.58164(8)
C4_16 C 0.21856(13) 0.51067(10) 0.61505(9)
H5_16 H 0.2028 0.4727 0.6186
C5_16 C 0.18881(12) 0.55344(10) 0.64296(10)
H6_16 H 0.1522 0.5439 0.6653
C6_16 C 0.30991(11) 0.47681(10) 0.55507(9)
C7_16 C 0.35011(12) 0.48607(10) 0.51165(8)
H7_16 H 0.3506 0.5225 0.4959
C8_12 C 0.38944(12) 0.44250(10) 0.49122(8)
C9_16 C 0.38591(13) 0.38977(10) 0.51543(9)
H8_16 H 0.4117 0.3585 0.5028
C10_16 C 0.34396(12) 0.38349(10) 0.55844(9)
C11_16 C 0.33971(13) 0.32930(9) 0.58831(10)
C12_16 C 0.38967(16) 0.28860(13) 0.58899(13)
H9_16 H 0.4293 0.2932 0.5683
C13_16 C 0.38261(16) 0.24076(12) 0.61968(13)
H10_16 H 0.4177 0.2129 0.6189
C14_16 C 0.28123(14) 0.27190(11) 0.64936(11)
H11_16 H 0.2421 0.2666 0.6704
C15_16 C 0.28487(15) 0.32006(11) 0.62008(11)
H12_16 H 0.2492 0.3473 0.6217
C16_12 C 0.43782(12) 0.45325(9) 0.44826(8)
C17_12 C 0.45938(15) 0.41047(10) 0.41470(10)
H13_12 H 0.4411 0.3733 0.4182
C18_10 C 0.50671(15) 0.42120(10) 0.37650(10)
H14_10 H 0.5202 0.3917 0.3536
C19_10 C 0.53429(12) 0.47468(10) 0.37167(9)
C20_16 C 0.51469(12) 0.51731(10) 0.40476(9)
H15_16 H 0.5345 0.5540 0.4019
C21_16 C 0.46656(12) 0.50673(10) 0.44191(8)
H16_16 H 0.4525 0.5368 0.4639
C22_16 C 0.58361(11) 0.53485(9) 0.30855(8)
C23_16 C 0.52333(11) 0.56350(10) 0.29869(8)
H17_16 H 0.4811 0.5480 0.3098
C24_16 C 0.52470(11) 0.61457(9) 0.27268(8)
C25_16 C 0.58635(11) 0.63568(9) 0.25450(8)
H18_16 H 0.5873 0.6703 0.2356
C26_16 C 0.64627(10) 0.60660(9) 0.26378(8)
C27_16 C 0.64536(11) 0.55574(9) 0.29154(8)
H19_16 H 0.6865 0.5359 0.2986
C28_16 C 0.45942(11) 0.64649(10) 0.26491(9)
C29_16 C 0.71202(11) 0.62893(9) 0.24262(9)
N2_16 N 0.30604(10) 0.42580(8) 0.57758(7)
C8_13 C 0.11056(12) 0.05750(10) 0.00878(8)
C16_13 C 0.06218(12) 0.04675(9) 0.05174(8)
C17_13 C 0.04062(15) 0.08953(10) 0.08530(10)
H13_13 H 0.0589 0.1267 0.0818
O6_11 O 0.91592(8) 0.01714(6) 0.16562(6)
C18_11 C 0.99329(15) 0.07880(10) 0.12350(10)
H14_11 H 0.9798 0.1083 0.1464
C19_11 C 0.96571(12) 0.02532(10) 0.12833(9)
O6_12 O 0.58408(8) 0.01714(6) 0.83438(6)
C8_14 C 0.38944(12) 0.05750(10) 0.99122(8)
C16_14 C 0.43782(12) 0.04675(9) 0.94826(8)
C17_14 C 0.45938(15) 0.08953(10) 0.91470(10)
H13_14 H 0.4411 0.1267 0.9182
C18_12 C 0.50671(15) 0.07880(10) 0.87650(10)
H14_12 H 0.5202 0.1083 0.8536
C19_12 C 0.53429(12) 0.02532(10) 0.87167(9)
O6_13 O 0.91592(8) 0.98286(6) 0.33438(6)
C18_13 C 0.99329(15) 0.92120(10) 0.37650(10)
H14_13 H 0.9798 0.8917 0.3536
C19_13 C 0.96571(12) 0.97468(10) 0.37167(9)
O6_14 O 0.08408(8) 0.98286(6) 0.83438(6)
C18_14 C 0.00671(15) 0.92120(10) 0.87650(10)
H14_14 H 0.0202 0.8917 0.8536
C19_14 C 0.03429(12) 0.97468(10) 0.87167(9)
C8_15 C 0.88944(12) 0.94250(10) 0.99122(8)
C16_15 C 0.93782(12) 0.95325(9) 0.94826(8)
C17_15 C 0.95938(15) 0.91047(10) 0.91470(10)
H13_15 H 0.9411 0.8733 0.9182
O6_15 O 0.41592(8) 0.98286(6) 0.16562(6)
C8_16 C 0.61056(12) 0.94250(10) 0.00878(8)
C16_16 C 0.56218(12) 0.95325(9) 0.05174(8)
C17_16 C 0.54062(15) 0.91047(10) 0.08530(10)
H13_16 H 0.5589 0.8733 0.0818
C18_15 C 0.49329(15) 0.92120(10) 0.12350(10)
H14_15 H 0.4798 0.8917 0.1464
C19_15 C 0.46571(12) 0.97468(10) 0.12833(9)
O6_16 O 0.08408(8) 0.01714(6) 0.66562(6)
C18_16 C 0.00671(15) 0.07880(10) 0.62350(10)
H14_16 H 0.0202 0.1083 0.6464
C19_16 C 0.03429(12) 0.02532(10) 0.62833(9)
loop_
_geom_bond_atom_site_label_1
_geom_bond_atom_site_label_2
_geom_bond_site_symmetry_1
_geom_bond_site_symmetry_2
Ni1 O2 1_555 1_555
O2 H1 1_555 1_555
H2 O2 1_555 1_555
O4 Ni1 1_555 1_555
O5 Ni1 1_555 1_555
O6 C19 1_555 1_555
H14 C18 1_555 1_555
C19 C18 1_555 1_555
C20 C19 1_555 1_555
H15 C20 1_555 1_555
C22 O6 1_555 1_555
C23 C22 1_555 1_555
C24 C23 1_555 1_555
C25 C24 1_555 1_555
H18 C25 1_555 1_555
C26 C25 1_555 1_555
C27 C22 1_555 1_555
H19 C27 1_555 1_555
C29 O4 1_555 1_555
O7 Ni1 1_555 1_555
N4 Ni1 1_555 1_555
N5 Ni1 1_555 1_555
O5 C29 1_555 1_555
C26 C27 1_555 1_555
C26 C29 1_555 1_555
O1 C28 1_555 1_555
O3 C28 1_555 1_555
C1 H3 1_555 1_555
C2 C1 1_555 1_555
H4 C2 1_555 1_555
C3 C2 1_555 1_555
C4 C3 1_555 1_555
H5 C4 1_555 1_555
C5 C4 1_555 1_555
H6 C5 1_555 1_555
C6 C3 1_555 1_555
C7 C6 1_555 1_555
H7 C7 1_555 1_555
C8 C7 1_555 1_555
C9 C8 1_555 1_555
H8 C9 1_555 1_555
C10 C9 1_555 1_555
C11 C10 1_555 1_555
C12 C11 1_555 1_555
H9 C12 1_555 1_555
C13 C12 1_555 1_555
H10 C13 1_555 1_555
C14 H11 1_555 1_555
C15 C11 1_555 1_555
H12 C15 1_555 1_555
C16 C8 1_555 1_555
C17 C16 1_555 1_555
H13 C17 1_555 1_555
C21 C16 1_555 1_555
H16 C21 1_555 1_555
N1 C1 1_555 1_555
N2 C6 1_555 1_555
N3 C13 1_555 1_555
Ni2 N3 1_555 1_555
Ni3 O3 1_555 1_555
Ni4 N1 1_555 1_555
C5 N1 1_555 1_555
C10 N2 1_555 1_555
C14 C15 1_555 1_555
C14 N3 1_555 1_555
C7_2 C6_2 1_555 1_555
H8_2 C9_2 1_555 1_555
C10_2 C9_2 1_555 1_555
C11_2 C10_2 1_555 1_555
C12_2 C11_2 1_555 1_555
H9_2 C12_2 1_555 1_555
C13_2 C12_2 1_555 1_555
H10_2 C13_2 1_555 1_555
C14_2 H11_2 1_555 1_555
C15_2 C11_2 1_555 1_555
H12_2 C15_2 1_555 1_555
N2_2 C6_2 1_555 1_555
N3_2 C13_2 1_555 1_555
Ni2_2 N3_2 1_555 1_555
C10_2 N2_2 1_555 1_555
C14_2 C15_2 1_555 1_555
C14_2 N3_2 1_555 1_555
O1_2 C28_2 1_555 1_555
O3_2 C28_2 1_555 1_555
H16_2 C21_2 1_555 1_555
Ni3_2 O3_2 1_555 1_555
C1_2 H3_2 1_555 1_555
C2_2 C1_2 1_555 1_555
H4_2 C2_2 1_555 1_555
C3_2 C2_2 1_555 1_555
C4_2 C3_2 1_555 1_555
C5_2 C4_2 1_555 1_555
H6_2 C5_2 1_555 1_555
N1_2 C1_2 1_555 1_555
Ni4_2 N1_2 1_555 1_555
C5_2 N1_2 1_555 1_555
Ni1_2 O2_2 1_555 1_555
O2_2 H1_2 1_555 1_555
H2_2 O2_2 1_555 1_555
O4_2 Ni1_2 1_555 1_555
O5_2 Ni1_2 1_555 1_555
H15_2 C20_2 1_555 1_555
C23_2 C22_2 1_555 1_555
C24_2 C23_2 1_555 1_555
C25_2 C24_2 1_555 1_555
H18_2 C25_2 1_555 1_555
C26_2 C25_2 1_555 1_555
C27_2 C22_2 1_555 1_555
H19_2 C27_2 1_555 1_555
C29_2 O4_2 1_555 1_555
O7_2 Ni1_2 1_555 1_555
N4_2 Ni1_2 1_555 1_555
N5_2 Ni1_2 1_555 1_555
O5_2 C29_2 1_555 1_555
C26_2 C27_2 1_555 1_555
C26_2 C29_2 1_555 1_555
C7_3 C6_3 1_555 1_555
H8_3 C9_3 1_555 1_555
C10_3 C9_3 1_555 1_555
C11_3 C10_3 1_555 1_555
C12_3 C11_3 1_555 1_555
H9_3 C12_3 1_555 1_555
C13_3 C12_3 1_555 1_555
H10_3 C13_3 1_555 1_555
C14_3 H11_3 1_555 1_555
C15_3 C11_3 1_555 1_555
H12_3 C15_3 1_555 1_555
N2_3 C6_3 1_555 1_555
N5 C13_3 1_555 1_555
C10_3 N2_3 1_555 1_555
C14_3 C15_3 1_555 1_555
C14_3 N5 1_555 1_555
C1_3 H3_3 1_555 1_555
C2_3 C1_3 1_555 1_555
H4_3 C2_3 1_555 1_555
C3_3 C2_3 1_555 1_555
C4_3 C3_3 1_555 1_555
C5_3 C4_3 1_555 1_555
H6_3 C5_3 1_555 1_555
N1_3 C1_3 1_555 1_555
Ni3_2 N1_3 1_555 1_555
C5_3 N1_3 1_555 1_555
Ni2 O2_3 1_555 1_555
O1_3 C28_3 1_555 1_555
O2_3 H1_3 1_555 1_555
H2_3 O2_3 1_555 1_555
O3_3 C28_3 1_555 1_555
O4_3 Ni2 1_555 1_555
O5_3 Ni2 1_555 1_555
H15_3 C20_3 1_555 1_555
H16_3 C21_3 1_555 1_555
C23_3 C22_3 1_555 1_555
H17_3 C23_3 1_555 1_555
C24_3 C23_3 1_555 1_555
C25_3 C24_3 1_555 1_555
H18_3 C25_3 1_555 1_555
C26_3 C25_3 1_555 1_555
C27_3 C22_3 1_555 1_555
H19_3 C27_3 1_555 1_555
C28_3 C24_3 1_555 1_555
C29_3 O4_3 1_555 1_555
Ni4_2 O3_3 1_555 1_555
O7_3 Ni2 1_555 1_555
N4_3 Ni2 1_555 1_555
O5_3 C29_3 1_555 1_555
C20_3 C21_3 1_555 1_555
C26_3 C27_3 1_555 1_555
C26_3 C29_3 1_555 1_555
Ni2_2 O2_4 1_555 1_555
O1_4 C28_4 1_555 1_555
O2_4 H1_4 1_555 1_555
H2_4 O2_4 1_555 1_555
O3_4 C28_4 1_555 1_555
O4_4 Ni2_2 1_555 1_555
O5_4 Ni2_2 1_555 1_555
O6_2 C19_2 1_555 1_555
C1_4 H3_4 1_555 1_555
C2_4 C1_4 1_555 1_555
H4_4 C2_4 1_555 1_555
C3_4 C2_4 1_555 1_555
C4_4 C3_4 1_555 1_555
H5_4 C4_4 1_555 1_555
C5_4 C4_4 1_555 1_555
H6_4 C5_4 1_555 1_555
C6_4 C3_4 1_555 1_555
C7_4 C6_4 1_555 1_555
H7_4 C7_4 1_555 1_555
C8_2 C7_4 1_555 1_555
C9_4 C8_2 1_555 1_555
H8_4 C9_4 1_555 1_555
C10_4 C9_4 1_555 1_555
C11_4 C10_4 1_555 1_555
C12_4 C11_4 1_555 1_555
H9_4 C12_4 1_555 1_555
C13_4 C12_4 1_555 1_555
H10_4 C13_4 1_555 1_555
C14_4 H11_4 1_555 1_555
C15_4 C11_4 1_555 1_555
H12_4 C15_4 1_555 1_555
C16_2 C8_2 1_555 1_555
C17_2 C16_2 1_555 1_555
H13_2 C17_2 1_555 1_555
C18_2 C17_2 1_555 1_555
H14_2 C18_2 1_555 1_555
C19_2 C18_2 1_555 1_555
C20_4 C19_2 1_555 1_555
H15_4 C20_4 1_555 1_555
C21_4 C16_2 1_555 1_555
H16_4 C21_4 1_555 1_555
C22_4 O6_2 1_555 1_555
C23_4 C22_4 1_555 1_555
H17_4 C23_4 1_555 1_555
C24_4 C23_4 1_555 1_555
C25_4 C24_4 1_555 1_555
H18_4 C25_4 1_555 1_555
C26_4 C25_4 1_555 1_555
C27_4 C22_4 1_555 1_555
H19_4 C27_4 1_555 1_555
C28_4 C24_4 1_555 1_555
C29_4 O4_4 1_555 1_555
N1_4 C1_4 1_555 1_555
N2_4 C6_4 1_555 1_555
N5_2 C13_4 1_555 1_555
Ni4 O3_4 1_555 1_555
Ni3 N1_4 1_555 1_555
O7_4 Ni2_2 1_555 1_555
N4_4 Ni2_2 1_555 1_555
O5_4 C29_4 1_555 1_555
C5_4 N1_4 1_555 1_555
C10_4 N2_4 1_555 1_555
C14_4 C15_4 1_555 1_555
C14_4 N5_2 1_555 1_555
C20_4 C21_4 1_555 1_555
C26_4 C27_4 1_555 1_555
C26_4 C29_4 1_555 1_555
Ni3 O2_5 1_555 1_555
O1_5 C28_5 1_555 1_555
O2_5 H1_5 1_555 1_555
H2_5 O2_5 1_555 1_555
O7 C28_5 1_555 1_555
O4_5 Ni3 1_555 1_555
O5_5 Ni3 1_555 1_555
O6_3 C19_3 1_555 1_555
C16_3 C8_3 1_555 1_555
C17_3 C16_3 1_555 1_555
H13_3 C17_3 1_555 1_555
C18_3 C17_3 1_555 1_555
H14_3 C18_3 1_555 1_555
C19_3 C18_3 1_555 1_555
C20_5 C19_3 1_555 1_555
H15_5 C20_5 1_555 1_555
C21_5 C16_3 1_555 1_555
H16_5 C21_5 1_555 1_555
C22_5 O6_3 1_555 1_555
C23_5 C22_5 1_555 1_555
H17_5 C23_5 1_555 1_555
C24_5 C23_5 1_555 1_555
C25_5 C24_5 1_555 1_555
H18_5 C25_5 1_555 1_555
C26_5 C25_5 1_555 1_555
C27_5 C22_5 1_555 1_555
H19_5 C27_5 1_555 1_555
C28_5 C24_5 1_555 1_555
C29_5 O4_5 1_555 1_555
N5_3 Ni3 1_555 1_555
O5_5 C29_5 1_555 1_555
C20_5 C21_5 1_555 1_555
C26_5 C27_5 1_555 1_555
C26_5 C29_5 1_555 1_555
C1_5 H3_5 1_555 1_555
C2_5 C1_5 1_555 1_555
H4_5 C2_5 1_555 1_555
C3_5 C2_5 1_555 1_555
C4_5 C3_5 1_555 1_555
H5_5 C4_5 1_555 1_555
C5_5 C4_5 1_555 1_555
H6_5 C5_5 1_555 1_555
C6_5 C3_5 1_555 1_555
C7_5 C6_5 1_555 1_555
H8_5 C9_5 1_555 1_555
C10_5 C9_5 1_555 1_555
C11_5 C10_5 1_555 1_555
C12_5 C11_5 1_555 1_555
H9_5 C12_5 1_555 1_555
C13_5 C12_5 1_555 1_555
H10_5 C13_5 1_555 1_555
C14_5 H11_5 1_555 1_555
C15_5 C11_5 1_555 1_555
H12_5 C15_5 1_555 1_555
N4_4 C1_5 1_555 1_555
N2_5 C6_5 1_555 1_555
N3_3 C13_5 1_555 1_555
Ni4_2 N3_3 1_555 1_555
C5_5 N4_4 1_555 1_555
C10_5 N2_5 1_555 1_555
C14_5 C15_5 1_555 1_555
C14_5 N3_3 1_555 1_555
O6_4 C19_4 1_555 1_555
C7_6 C6_6 1_555 1_555
C8_4 C7_6 1_555 1_555
C9_6 C8_4 1_555 1_555
H8_6 C9_6 1_555 1_555
C10_6 C9_6 1_555 1_555
C11_6 C10_6 1_555 1_555
C12_6 C11_6 1_555 1_555
H9_6 C12_6 1_555 1_555
C13_6 C12_6 1_555 1_555
H10_6 C13_6 1_555 1_555
C14_6 H11_6 1_555 1_555
C15_6 C11_6 1_555 1_555
H12_6 C15_6 1_555 1_555
C16_4 C8_4 1_555 1_555
C17_4 C16_4 1_555 1_555
H13_4 C17_4 1_555 1_555
C18_4 C17_4 1_555 1_555
H14_4 C18_4 1_555 1_555
C19_4 C18_4 1_555 1_555
N2_6 C6_6 1_555 1_555
N3_4 C13_6 1_555 1_555
Ni4 N3_4 1_555 1_555
C10_6 N2_6 1_555 1_555
C14_6 C15_6 1_555 1_555
C14_6 N3_4 1_555 1_555
Ni3_2 O2_6 1_555 1_555
O1_6 C28_6 1_555 1_555
O2_6 H1_6 1_555 1_555
H2_6 O2_6 1_555 1_555
O7_2 C28_6 1_555 1_555
O4_6 Ni3_2 1_555 1_555
O5_6 Ni3_2 1_555 1_555
C1_6 H3_6 1_555 1_555
C2_6 C1_6 1_555 1_555
H4_6 C2_6 1_555 1_555
C3_6 C2_6 1_555 1_555
C4_6 C3_6 1_555 1_555
C5_6 C4_6 1_555 1_555
H6_6 C5_6 1_555 1_555
H15_6 C20_6 1_555 1_555
H16_6 C21_6 1_555 1_555
C23_6 C22_6 1_555 1_555
H17_6 C23_6 1_555 1_555
C24_6 C23_6 1_555 1_555
C25_6 C24_6 1_555 1_555
H18_6 C25_6 1_555 1_555
C26_6 C25_6 1_555 1_555
C27_6 C22_6 1_555 1_555
H19_6 C27_6 1_555 1_555
C28_6 C24_6 1_555 1_555
C29_6 O4_6 1_555 1_555
N4_3 C1_6 1_555 1_555
N5_4 Ni3_2 1_555 1_555
O5_6 C29_6 1_555 1_555
C5_6 N4_3 1_555 1_555
C20_6 C21_6 1_555 1_555
C26_6 C27_6 1_555 1_555
C26_6 C29_6 1_555 1_555
Ni4_2 O2_7 1_555 1_555
O2_7 H1_7 1_555 1_555
H2_7 O2_7 1_555 1_555
O4_7 Ni4_2 1_555 1_555
O5_7 Ni4_2 1_555 1_555
H15_7 C20_7 1_555 1_555
C23_7 C22_7 1_555 1_555
C24_7 C23_7 1_555 1_555
C25_7 C24_7 1_555 1_555
H18_7 C25_7 1_555 1_555
C26_7 C25_7 1_555 1_555
C27_7 C22_7 1_555 1_555
H19_7 C27_7 1_555 1_555
C29_7 O4_7 1_555 1_555
O5_7 C29_7 1_555 1_555
C26_7 C27_7 1_555 1_555
C26_7 C29_7 1_555 1_555
C7_7 C6_7 1_555 1_555
C8_5 C7_7 1_555 1_555
C9_7 C8_5 1_555 1_555
H8_7 C9_7 1_555 1_555
C10_7 C9_7 1_555 1_555
C11_7 C10_7 1_555 1_555
C12_7 C11_7 1_555 1_555
H9_7 C12_7 1_555 1_555
C13_7 C12_7 1_555 1_555
H10_7 C13_7 1_555 1_555
C14_7 H11_7 1_555 1_555
C15_7 C11_7 1_555 1_555
H12_7 C15_7 1_555 1_555
C16_5 C8_5 1_555 1_555
C17_5 C16_5 1_555 1_555
H13_5 C17_5 1_555 1_555
N2_7 C6_7 1_555 1_555
N5_3 C13_7 1_555 1_555
C10_7 N2_7 1_555 1_555
C14_7 C15_7 1_555 1_555
C14_7 N5_3 1_555 1_555
O1_7 C28_7 1_555 1_555
O7_3 C28_7 1_555 1_555
C1_7 H3_7 1_555 1_555
C2_7 C1_7 1_555 1_555
H4_7 C2_7 1_555 1_555
C3_7 C2_7 1_555 1_555
C4_7 C3_7 1_555 1_555
C5_7 C4_7 1_555 1_555
H6_7 C5_7 1_555 1_555
H16_7 C21_7 1_555 1_555
N4_2 C1_7 1_555 1_555
C5_7 N4_2 1_555 1_555
C1_8 H3_8 1_555 1_555
C2_8 C1_8 1_555 1_555
H4_8 C2_8 1_555 1_555
C3_8 C2_8 1_555 1_555
C4_8 C3_8 1_555 1_555
H5_8 C4_8 1_555 1_555
C5_8 C4_8 1_555 1_555
H6_8 C5_8 1_555 1_555
C6_8 C3_8 1_555 1_555
C7_8 C6_8 1_555 1_555
H8_8 C9_8 1_555 1_555
C10_8 C9_8 1_555 1_555
C11_8 C10_8 1_555 1_555
C12_8 C11_8 1_555 1_555
H9_8 C12_8 1_555 1_555
C13_8 C12_8 1_555 1_555
H10_8 C13_8 1_555 1_555
C14_8 H11_8 1_555 1_555
C15_8 C11_8 1_555 1_555
H12_8 C15_8 1_555 1_555
N4 C1_8 1_555 1_555
N2_8 C6_8 1_555 1_555
N5_4 C13_8 1_555 1_555
C5_8 N4 1_555 1_555
C10_8 N2_8 1_555 1_555
C14_8 C15_8 1_555 1_555
C14_8 N5_4 1_555 1_555
O1_8 C28_8 1_555 1_555
O7_4 C28_8 1_555 1_555
C16_6 C8_6 1_555 1_555
C17_6 C16_6 1_555 1_555
H13_6 C17_6 1_555 1_555
C21_8 C16_6 1_555 1_555
H16_8 C21_8 1_555 1_555
Ni4 O2_8 1_555 1_555
O2_8 H1_8 1_555 1_555
H2_8 O2_8 1_555 1_555
O4_8 Ni4 1_555 1_555
O5_8 Ni4 1_555 1_555
O6_5 C19_5 1_555 1_555
H14_5 C18_5 1_555 1_555
C19_5 C18_5 1_555 1_555
C20_8 C19_5 1_555 1_555
H15_8 C20_8 1_555 1_555
C22_8 O6_5 1_555 1_555
C23_8 C22_8 1_555 1_555
C24_8 C23_8 1_555 1_555
C25_8 C24_8 1_555 1_555
H18_8 C25_8 1_555 1_555
C26_8 C25_8 1_555 1_555
C27_8 C22_8 1_555 1_555
H19_8 C27_8 1_555 1_555
C29_8 O4_8 1_555 1_555
O5_8 C29_8 1_555 1_555
C26_8 C27_8 1_555 1_555
C26_8 C29_8 1_555 1_555
C1_9 H3_9 1_555 1_555
C2_9 C1_9 1_555 1_555
H4_9 C2_9 1_555 1_555
C3_9 C2_9 1_555 1_555
C4_9 C3_9 1_555 1_555
H5_9 C4_9 1_555 1_555
C5_9 C4_9 1_555 1_555
H6_9 C5_9 1_555 1_555
C6_9 C3_9 1_555 1_555
C7_9 C6_9 1_555 1_555
H8_9 C9_9 1_555 1_555
C10_9 C9_9 1_555 1_555
C11_9 C10_9 1_555 1_555
C12_9 C11_9 1_555 1_555
H9_9 C12_9 1_555 1_555
C13_9 C12_9 1_555 1_555
H10_9 C13_9 1_555 1_555
C14_9 H11_9 1_555 1_555
C15_9 C11_9 1_555 1_555
H12_9 C15_9 1_555 1_555
N1_5 C1_9 1_555 1_555
N2_9 C6_9 1_555 1_555
N3_5 C13_9 1_555 1_555
Ni2_3 N3_5 1_555 1_555
Ni4_3 N1_5 1_555 1_555
C5_9 N1_5 1_555 1_555
C10_9 N2_9 1_555 1_555
C14_9 C15_9 1_555 1_555
C14_9 N3_5 1_555 1_555
Ni1_3 O2_9 1_555 1_555
O1_9 C28_9 1_555 1_555
O2_9 H1_9 1_555 1_555
H2_9 O2_9 1_555 1_555
O3_5 C28_9 1_555 1_555
O4_9 Ni1_3 1_555 1_555
O5_9 Ni1_3 1_555 1_555
O6_6 C19_6 1_555 1_555
C16_7 C8_7 1_555 1_555
C17_7 C16_7 1_555 1_555
H13_7 C17_7 1_555 1_555
C18_6 C17_7 1_555 1_555
H14_6 C18_6 1_555 1_555
C19_6 C18_6 1_555 1_555
C20_9 C19_6 1_555 1_555
H15_9 C20_9 1_555 1_555
C21_9 C16_7 1_555 1_555
H16_9 C21_9 1_555 1_555
C22_9 O6_6 1_555 1_555
C23_9 C22_9 1_555 1_555
H17_9 C23_9 1_555 1_555
C24_9 C23_9 1_555 1_555
C25_9 C24_9 1_555 1_555
H18_9 C25_9 1_555 1_555
C26_9 C25_9 1_555 1_555
C27_9 C22_9 1_555 1_555
H19_9 C27_9 1_555 1_555
C28_9 C24_9 1_555 1_555
C29_9 O4_9 1_555 1_555
Ni3_3 O3_5 1_555 1_555
O7_5 Ni1_3 1_555 1_555
N4_5 Ni1_3 1_555 1_555
N5_5 Ni1_3 1_555 1_555
O5_9 C29_9 1_555 1_555
C20_9 C21_9 1_555 1_555
C26_9 C27_9 1_555 1_555
C26_9 C29_9 1_555 1_555
Ni1_4 O2_10 1_555 1_555
O1_10 C28_10 1_555 1_555
O2_10 H1_10 1_555 1_555
H2_10 O2_10 1_555 1_555
O3_6 C28_10 1_555 1_555
O4_10 Ni1_4 1_555 1_555
O5_10 Ni1_4 1_555 1_555
C1_10 H3_10 1_555 1_555
C2_10 C1_10 1_555 1_555
H4_10 C2_10 1_555 1_555
C3_10 C2_10 1_555 1_555
C4_10 C3_10 1_555 1_555
C5_10 C4_10 1_555 1_555
H6_10 C5_10 1_555 1_555
H15_10 C20_10 1_555 1_555
H16_10 C21_10 1_555 1_555
C23_10 C22_10 1_555 1_555
H17_10 C23_10 1_555 1_555
C24_10 C23_10 1_555 1_555
C25_10 C24_10 1_555 1_555
H18_10 C25_10 1_555 1_555
C26_10 C25_10 1_555 1_555
C27_10 C22_10 1_555 1_555
H19_10 C27_10 1_555 1_555
C28_10 C24_10 1_555 1_555
C29_10 O4_10 1_555 1_555
N1_6 C1_10 1_555 1_555
Ni3_4 O3_6 1_555 1_555
Ni4_4 N1_6 1_555 1_555
O7_6 Ni1_4 1_555 1_555
N4_6 Ni1_4 1_555 1_555
N5_6 Ni1_4 1_555 1_555
O5_10 C29_10 1_555 1_555
C5_10 N1_6 1_555 1_555
C20_10 C21_10 1_555 1_555
C26_10 C27_10 1_555 1_555
C26_10 C29_10 1_555 1_555
O6_7 C19_7 1_555 1_555
C7_10 C6_10 1_555 1_555
C8_8 C7_10 1_555 1_555
C9_10 C8_8 1_555 1_555
H8_10 C9_10 1_555 1_555
C10_10 C9_10 1_555 1_555
C11_10 C10_10 1_555 1_555
C12_10 C11_10 1_555 1_555
H9_10 C12_10 1_555 1_555
C13_10 C12_10 1_555 1_555
H10_10 C13_10 1_555 1_555
C14_10 H11_10 1_555 1_555
C15_10 C11_10 1_555 1_555
H12_10 C15_10 1_555 1_555
C16_8 C8_8 1_555 1_555
C17_8 C16_8 1_555 1_555
H13_8 C17_8 1_555 1_555
C18_7 C17_8 1_555 1_555
H14_7 C18_7 1_555 1_555
C19_7 C18_7 1_555 1_555
N2_10 C6_10 1_555 1_555
N3_6 C13_10 1_555 1_555
Ni2_4 N3_6 1_555 1_555
C10_10 N2_10 1_555 1_555
C14_10 C15_10 1_555 1_555
C14_10 N3_6 1_555 1_555
O1_11 C28_11 1_555 1_555
O3_7 C28_11 1_555 1_555
C1_11 H3_11 1_555 1_555
C2_11 C1_11 1_555 1_555
H4_11 C2_11 1_555 1_555
C3_11 C2_11 1_555 1_555
C4_11 C3_11 1_555 1_555
C5_11 C4_11 1_555 1_555
H6_11 C5_11 1_555 1_555
H16_11 C21_11 1_555 1_555
N1_7 C1_11 1_555 1_555
Ni4_4 O3_7 1_555 1_555
Ni3_4 N1_7 1_555 1_555
C5_11 N1_7 1_555 1_555
C7_11 C6_11 1_555 1_555
C8_9 C7_11 1_555 1_555
C9_11 C8_9 1_555 1_555
H8_11 C9_11 1_555 1_555
C10_11 C9_11 1_555 1_555
C11_11 C10_11 1_555 1_555
C12_11 C11_11 1_555 1_555
H9_11 C12_11 1_555 1_555
C13_11 C12_11 1_555 1_555
H10_11 C13_11 1_555 1_555
C14_11 H11_11 1_555 1_555
C15_11 C11_11 1_555 1_555
H12_11 C15_11 1_555 1_555
C16_9 C8_9 1_555 1_555
C17_9 C16_9 1_555 1_555
H13_9 C17_9 1_555 1_555
N2_11 C6_11 1_555 1_555
N5_5 C13_11 1_555 1_555
C10_11 N2_11 1_555 1_555
C14_11 C15_11 1_555 1_555
C14_11 N5_5 1_555 1_555
Ni2_3 O2_11 1_555 1_555
O2_11 H1_11 1_555 1_555
H2_11 O2_11 1_555 1_555
O4_11 Ni2_3 1_555 1_555
O5_11 Ni2_3 1_555 1_555
H15_11 C20_11 1_555 1_555
C23_11 C22_11 1_555 1_555
C24_11 C23_11 1_555 1_555
C25_11 C24_11 1_555 1_555
H18_11 C25_11 1_555 1_555
C26_11 C25_11 1_555 1_555
C27_11 C22_11 1_555 1_555
H19_11 C27_11 1_555 1_555
C29_11 O4_11 1_555 1_555
O7_7 Ni2_3 1_555 1_555
N4_7 Ni2_3 1_555 1_555
O5_11 C29_11 1_555 1_555
C26_11 C27_11 1_555 1_555
C26_11 C29_11 1_555 1_555
Ni2_4 O2_12 1_555 1_555
O2_12 H1_12 1_555 1_555
H2_12 O2_12 1_555 1_555
O4_12 Ni2_4 1_555 1_555
O5_12 Ni2_4 1_555 1_555
O6_8 C19_8 1_555 1_555
H14_8 C18_8 1_555 1_555
C19_8 C18_8 1_555 1_555
C20_12 C19_8 1_555 1_555
H15_12 C20_12 1_555 1_555
C22_12 O6_8 1_555 1_555
C23_12 C22_12 1_555 1_555
C24_12 C23_12 1_555 1_555
C25_12 C24_12 1_555 1_555
H18_12 C25_12 1_555 1_555
C26_12 C25_12 1_555 1_555
C27_12 C22_12 1_555 1_555
H19_12 C27_12 1_555 1_555
C29_12 O4_12 1_555 1_555
O7_8 Ni2_4 1_555 1_555
N4_8 Ni2_4 1_555 1_555
O5_12 C29_12 1_555 1_555
C26_12 C27_12 1_555 1_555
C26_12 C29_12 1_555 1_555
O1_12 C28_12 1_555 1_555
O3_8 C28_12 1_555 1_555
C16_10 C8_10 1_555 1_555
C17_10 C16_10 1_555 1_555
H13_10 C17_10 1_555 1_555
C21_12 C16_10 1_555 1_555
H16_12 C21_12 1_555 1_555
Ni4_3 O3_8 1_555 1_555
C1_12 H3_12 1_555 1_555
C2_12 C1_12 1_555 1_555
H4_12 C2_12 1_555 1_555
C3_12 C2_12 1_555 1_555
C4_12 C3_12 1_555 1_555
H5_12 C4_12 1_555 1_555
C5_12 C4_12 1_555 1_555
H6_12 C5_12 1_555 1_555
C6_12 C3_12 1_555 1_555
C7_12 C6_12 1_555 1_555
H8_12 C9_12 1_555 1_555
C10_12 C9_12 1_555 1_555
C11_12 C10_12 1_555 1_555
C12_12 C11_12 1_555 1_555
H9_12 C12_12 1_555 1_555
C13_12 C12_12 1_555 1_555
H10_12 C13_12 1_555 1_555
C14_12 H11_12 1_555 1_555
C15_12 C11_12 1_555 1_555
H12_12 C15_12 1_555 1_555
N1_8 C1_12 1_555 1_555
N2_12 C6_12 1_555 1_555
N5_6 C13_12 1_555 1_555
Ni3_3 N1_8 1_555 1_555
C5_12 N1_8 1_555 1_555
C10_12 N2_12 1_555 1_555
C14_12 C15_12 1_555 1_555
C14_12 N5_6 1_555 1_555
O1_13 C28_13 1_555 1_555
O7_5 C28_13 1_555 1_555
C1_13 H3_13 1_555 1_555
C2_13 C1_13 1_555 1_555
H4_13 C2_13 1_555 1_555
C3_13 C2_13 1_555 1_555
C4_13 C3_13 1_555 1_555
H5_13 C4_13 1_555 1_555
C5_13 C4_13 1_555 1_555
H6_13 C5_13 1_555 1_555
C6_13 C3_13 1_555 1_555
C7_13 C6_13 1_555 1_555
H7_13 C7_13 1_555 1_555
C8_11 C7_13 1_555 1_555
C9_13 C8_11 1_555 1_555
H8_13 C9_13 1_555 1_555
C10_13 C9_13 1_555 1_555
C11_13 C10_13 1_555 1_555
C12_13 C11_13 1_555 1_555
H9_13 C12_13 1_555 1_555
C13_13 C12_13 1_555 1_555
H10_13 C13_13 1_555 1_555
C14_13 H11_13 1_555 1_555
C15_13 C11_13 1_555 1_555
H12_13 C15_13 1_555 1_555
C16_11 C8_11 1_555 1_555
C17_11 C16_11 1_555 1_555
H13_11 C17_11 1_555 1_555
C21_13 C16_11 1_555 1_555
H16_13 C21_13 1_555 1_555
N4_8 C1_13 1_555 1_555
N2_13 C6_13 1_555 1_555
N3_7 C13_13 1_555 1_555
Ni4_4 N3_7 1_555 1_555
C5_13 N4_8 1_555 1_555
C10_13 N2_13 1_555 1_555
C14_13 C15_13 1_555 1_555
C14_13 N3_7 1_555 1_555
Ni3_3 O2_13 1_555 1_555
O2_13 H1_13 1_555 1_555
H2_13 O2_13 1_555 1_555
O4_13 Ni3_3 1_555 1_555
O5_13 Ni3_3 1_555 1_555
O6_9 C19_9 1_555 1_555
H14_9 C18_9 1_555 1_555
C19_9 C18_9 1_555 1_555
C20_13 C19_9 1_555 1_555
H15_13 C20_13 1_555 1_555
C22_13 O6_9 1_555 1_555
C23_13 C22_13 1_555 1_555
C24_13 C23_13 1_555 1_555
C25_13 C24_13 1_555 1_555
H18_13 C25_13 1_555 1_555
C26_13 C25_13 1_555 1_555
C27_13 C22_13 1_555 1_555
H19_13 C27_13 1_555 1_555
C29_13 O4_13 1_555 1_555
N5_7 Ni3_3 1_555 1_555
O5_13 C29_13 1_555 1_555
C26_13 C27_13 1_555 1_555
C26_13 C29_13 1_555 1_555
Ni3_4 O2_14 1_555 1_555
O2_14 H1_14 1_555 1_555
H2_14 O2_14 1_555 1_555
O4_14 Ni3_4 1_555 1_555
O5_14 Ni3_4 1_555 1_555
H15_14 C20_14 1_555 1_555
C23_14 C22_14 1_555 1_555
C24_14 C23_14 1_555 1_555
C25_14 C24_14 1_555 1_555
H18_14 C25_14 1_555 1_555
C26_14 C25_14 1_555 1_555
C27_14 C22_14 1_555 1_555
H19_14 C27_14 1_555 1_555
C29_14 O4_14 1_555 1_555
N5_8 Ni3_4 1_555 1_555
O5_14 C29_14 1_555 1_555
C26_14 C27_14 1_555 1_555
C26_14 C29_14 1_555 1_555
C1_14 H3_14 1_555 1_555
C2_14 C1_14 1_555 1_555
H4_14 C2_14 1_555 1_555
C3_14 C2_14 1_555 1_555
C4_14 C3_14 1_555 1_555
C5_14 C4_14 1_555 1_555
H6_14 C5_14 1_555 1_555
N4_7 C1_14 1_555 1_555
C5_14 N4_7 1_555 1_555
O1_14 C28_14 1_555 1_555
O7_6 C28_14 1_555 1_555
H16_14 C21_14 1_555 1_555
C7_14 C6_14 1_555 1_555
H8_14 C9_14 1_555 1_555
C10_14 C9_14 1_555 1_555
C11_14 C10_14 1_555 1_555
C12_14 C11_14 1_555 1_555
H9_14 C12_14 1_555 1_555
C13_14 C12_14 1_555 1_555
H10_14 C13_14 1_555 1_555
C14_14 H11_14 1_555 1_555
C15_14 C11_14 1_555 1_555
H12_14 C15_14 1_555 1_555
N2_14 C6_14 1_555 1_555
N3_8 C13_14 1_555 1_555
Ni4_3 N3_8 1_555 1_555
C10_14 N2_14 1_555 1_555
C14_14 C15_14 1_555 1_555
C14_14 N3_8 1_555 1_555
Ni4_4 O2_15 1_555 1_555
O1_15 C28_15 1_555 1_555
O2_15 H1_15 1_555 1_555
H2_15 O2_15 1_555 1_555
O7_7 C28_15 1_555 1_555
O4_15 Ni4_4 1_555 1_555
O5_15 Ni4_4 1_555 1_555
H15_15 C20_15 1_555 1_555
H16_15 C21_15 1_555 1_555
C23_15 C22_15 1_555 1_555
H17_15 C23_15 1_555 1_555
C24_15 C23_15 1_555 1_555
C25_15 C24_15 1_555 1_555
H18_15 C25_15 1_555 1_555
C26_15 C25_15 1_555 1_555
C27_15 C22_15 1_555 1_555
H19_15 C27_15 1_555 1_555
C28_15 C24_15 1_555 1_555
C29_15 O4_15 1_555 1_555
O5_15 C29_15 1_555 1_555
C20_15 C21_15 1_555 1_555
C26_15 C27_15 1_555 1_555
C26_15 C29_15 1_555 1_555
C1_15 H3_15 1_555 1_555
C2_15 C1_15 1_555 1_555
H4_15 C2_15 1_555 1_555
C3_15 C2_15 1_555 1_555
C4_15 C3_15 1_555 1_555
C5_15 C4_15 1_555 1_555
H6_15 C5_15 1_555 1_555
N4_6 C1_15 1_555 1_555
C5_15 N4_6 1_555 1_555
C7_15 C6_15 1_555 1_555
H8_15 C9_15 1_555 1_555
C10_15 C9_15 1_555 1_555
C11_15 C10_15 1_555 1_555
C12_15 C11_15 1_555 1_555
H9_15 C12_15 1_555 1_555
C13_15 C12_15 1_555 1_555
H10_15 C13_15 1_555 1_555
C14_15 H11_15 1_555 1_555
C15_15 C11_15 1_555 1_555
H12_15 C15_15 1_555 1_555
N2_15 C6_15 1_555 1_555
N5_7 C13_15 1_555 1_555
C10_15 N2_15 1_555 1_555
C14_15 C15_15 1_555 1_555
C14_15 N5_7 1_555 1_555
Ni4_3 O2_16 1_555 1_555
O1_16 C28_16 1_555 1_555
O2_16 H1_16 1_555 1_555
H2_16 O2_16 1_555 1_555
O7_8 C28_16 1_555 1_555
O4_16 Ni4_3 1_555 1_555
O5_16 Ni4_3 1_555 1_555
O6_10 C19_10 1_555 1_555
C1_16 H3_16 1_555 1_555
C2_16 C1_16 1_555 1_555
H4_16 C2_16 1_555 1_555
C3_16 C2_16 1_555 1_555
C4_16 C3_16 1_555 1_555
H5_16 C4_16 1_555 1_555
C5_16 C4_16 1_555 1_555
H6_16 C5_16 1_555 1_555
C6_16 C3_16 1_555 1_555
C7_16 C6_16 1_555 1_555
H7_16 C7_16 1_555 1_555
C8_12 C7_16 1_555 1_555
C9_16 C8_12 1_555 1_555
H8_16 C9_16 1_555 1_555
C10_16 C9_16 1_555 1_555
C11_16 C10_16 1_555 1_555
C12_16 C11_16 1_555 1_555
H9_16 C12_16 1_555 1_555
C13_16 C12_16 1_555 1_555
H10_16 C13_16 1_555 1_555
C14_16 H11_16 1_555 1_555
C15_16 C11_16 1_555 1_555
H12_16 C15_16 1_555 1_555
C16_12 C8_12 1_555 1_555
C17_12 C16_12 1_555 1_555
H13_12 C17_12 1_555 1_555
C18_10 C17_12 1_555 1_555
H14_10 C18_10 1_555 1_555
C19_10 C18_10 1_555 1_555
C20_16 C19_10 1_555 1_555
H15_16 C20_16 1_555 1_555
C21_16 C16_12 1_555 1_555
H16_16 C21_16 1_555 1_555
C22_16 O6_10 1_555 1_555
C23_16 C22_16 1_555 1_555
H17_16 C23_16 1_555 1_555
C24_16 C23_16 1_555 1_555
C25_16 C24_16 1_555 1_555
H18_16 C25_16 1_555 1_555
C26_16 C25_16 1_555 1_555
C27_16 C22_16 1_555 1_555
H19_16 C27_16 1_555 1_555
C28_16 C24_16 1_555 1_555
C29_16 O4_16 1_555 1_555
N4_5 C1_16 1_555 1_555
N2_16 C6_16 1_555 1_555
N5_8 C13_16 1_555 1_555
O5_16 C29_16 1_555 1_555
C5_16 N4_5 1_555 1_555
C10_16 N2_16 1_555 1_555
C14_16 C15_16 1_555 1_555
C14_16 N5_8 1_555 1_555
C20_16 C21_16 1_555 1_555
C26_16 C27_16 1_555 1_555
C26_16 C29_16 1_555 1_555
C16_13 C8_13 1_555 1_555
C17_13 C16_13 1_555 1_555
H13_13 C17_13 1_555 1_555
O6_11 C19_11 1_555 1_555
H14_11 C18_11 1_555 1_555
C19_11 C18_11 1_555 1_555
O6_12 C19_12 1_555 1_555
C16_14 C8_14 1_555 1_555
C17_14 C16_14 1_555 1_555
H13_14 C17_14 1_555 1_555
C18_12 C17_14 1_555 1_555
H14_12 C18_12 1_555 1_555
C19_12 C18_12 1_555 1_555
O6_13 C19_13 1_555 1_555
H14_13 C18_13 1_555 1_555
C19_13 C18_13 1_555 1_555
O6_14 C19_14 1_555 1_555
H14_14 C18_14 1_555 1_555
C19_14 C18_14 1_555 1_555
C16_15 C8_15 1_555 1_555
C17_15 C16_15 1_555 1_555
H13_15 C17_15 1_555 1_555
O6_15 C19_15 1_555 1_555
C16_16 C8_16 1_555 1_555
C17_16 C16_16 1_555 1_555
H13_16 C17_16 1_555 1_555
C18_15 C17_16 1_555 1_555
H14_15 C18_15 1_555 1_555
C19_15 C18_15 1_555 1_555
O6_16 C19_16 1_555 1_555
H14_16 C18_16 1_555 1_555
C19_16 C18_16 1_555 1_555

#END
