
###############################################################################
#
# This file contains modified crystal structure data generated from the
# MOF subset of the Cambridge Structural Database (CSD) v543 
# hosted by the Cambridge Crystallographic Data Centre (CCDC).
#
# This work is licensed under the Creative Commons
# Attribution-NonCommercial-ShareAlike 4.0 International License.
# To view a copy of this license, visit
# http://creativecommons.org/licenses/by-nc-sa/4.0/
# or send a letter to
# Creative Commons, PO Box 1866, Mountain View, CA 94042, USA.
#
# CIF created using the CSD Python API on 29 September 2022
# The structure has been converted into the P1 space group
# The structure has a 3D framework
# The original CSD entry DANROC is in the rhombohedral crystal system
# The original CSD entry DANROC is in a Sohncke space group
# The framework has been calculated to contain at least 10.0% void space
# The void calculation uses a probe of radius 1.32A, grid spacing 0.4
# H atom positions have been added when not included in the experimental data
# Generated hydrogen atom positions removed from atoms on special positions
#
###############################################################################

data_DANROC
_chemical_formula_moiety         '(C405 H387 Cu27 N54 O115)n'
_symmetry_cell_setting           triclinic
_symmetry_space_group_name_H-M   'P 1'
_symmetry_Int_Tables_number      1
_space_group_name_Hall           'P 1'
loop_
_symmetry_equiv_pos_site_id
_symmetry_equiv_pos_as_xyz
1 x,y,z
_cell_length_a                   22.535(3)
_cell_length_b                   22.535(3)
_cell_length_c                   29.635(6)
_cell_angle_alpha                90
_cell_angle_beta                 90
_cell_angle_gamma                120
_cell_volume                     13033.2
loop_
_atom_site_label
_atom_site_type_symbol
_atom_site_fract_x
_atom_site_fract_y
_atom_site_fract_z
Cu1 Cu 0.25903(3) 0.45235(3) 0.72259(2)
Cu2 Cu 0.21070(4) 0.44087(4) 0.87353(3)
Cu3 Cu 0.22002(5) 0.06155(4) 0.64952(4)
C1 C 0.3451(3) 0.4150(3) 0.6800(3)
C2 C 0.4049(4) 0.4025(4) 0.6738(4)
H1 H 0.4411 0.4408 0.6575
H2 H 0.4227 0.4006 0.7033
C3 C 0.3853(4) 0.3369(3) 0.6485(3)
H3 H 0.3655 0.3385 0.6195
C4 C 0.3318(4) 0.2738(4) 0.6744(3)
H4 H 0.3531 0.2684 0.7013
H5 H 0.2954 0.2820 0.6840
C5 C 0.3004(3) 0.2074(4) 0.6478(3)
C6 C 0.4480(4) 0.3277(4) 0.6393(4)
H6 H 0.4706 0.3298 0.6676
H7 H 0.4325 0.2830 0.6260
C7 C 0.4985(4) 0.3824(4) 0.6078(3)
C8 C 0.2922(3) 0.5405(3) 0.65078(18)
C9 C 0.3407(3) 0.6056(3) 0.62509(18)
H8 H 0.3305 0.5986 0.5931
H9 H 0.3875 0.6159 0.6294
C10 C 0.3333 0.6667 0.6417(3)
H10 H 0.3333 0.6667 0.6748
C11 C 0.2907(3) 0.5376(3) 0.81826(19)
C12 C 0.3396(3) 0.6058(3) 0.79741(19)
H11 H 0.3326 0.6022 0.7650
H12 H 0.3860 0.6154 0.8030
C13 C 0.3333 0.6667 0.8143(3)
H13 H 0.3333 0.6667 0.8474
C14 C 0.1292(3) 0.0657(3) 0.7073(2)
C15 C 0.0640(3) 0.0647(3) 0.7213(2)
H14 H 0.0643 0.1049 0.7094
H15 H 0.0623 0.0664 0.7540
C16 C 0.0000 0.0000 0.7042(3)
H16 H 0.0000 0.0000 0.6711
C17 C 0.2052(4) 0.3059(3) 0.7505(3)
H17 H 0.2501 0.3151 0.7479
C18 C 0.1545(4) 0.2403(3) 0.7617(3)
H18 H 0.1654 0.2061 0.7666
C19 C 0.0888(4) 0.2264(4) 0.7654(3)
H19 H 0.0542 0.1824 0.7728
C20 C 0.0733(4) 0.2781(4) 0.7583(3)
H20 H 0.0283 0.2692 0.7601
C21 C 0.1268(3) 0.3437(3) 0.7483(2)
C22 C 0.1176(3) 0.4040(3) 0.7430(2)
C23 C 0.0580(4) 0.4024(4) 0.7519(3)
H21 H 0.0197 0.3624 0.7619
C24 C 0.0559(4) 0.4635(4) 0.7457(3)
H22 H 0.0154 0.4639 0.7509
C25 C 0.1132(4) 0.5217(4) 0.7321(3)
H23 H 0.1129 0.5626 0.7288
C26 C 0.1715(3) 0.5184(3) 0.7234(2)
H24 H 0.2105 0.5576 0.7134
C27 C 0.1694(6) 0.2933(4) 0.8803(4)
H25 H 0.2160 0.3089 0.8826
C28 C 0.1229(7) 0.2222(5) 0.8826(5)
H26 H 0.1378 0.1906 0.8854
C29 C 0.0547(7) 0.2023(6) 0.8806(5)
H27 H 0.0222 0.1563 0.8843
C30 C 0.0340(6) 0.2470(6) 0.8734(3)
C31 C 0.0824(5) 0.3163(6) 0.8704(3)
C32 C 0.0671(4) 0.3714(6) 0.8661(3)
C35 C 0.0485(9) 0.4861(11) 0.8619(6)
H31 H 0.0429 0.5243 0.8616
C36 C 0.1126(6) 0.4898(8) 0.8630(4)
H32 H 0.1515 0.5330 0.8618
C37 C 0.3613(5) 0.0782(6) 0.6510(4)
H33 H 0.3778 0.1248 0.6548
C38 C 0.4081(6) 0.0544(7) 0.6490(4)
H34 H 0.4548 0.0844 0.6525
N1 N 0.1918(3) 0.3567(2) 0.74313(18)
N2 N 0.1742(3) 0.4611(3) 0.72879(17)
N3 N 0.1488(4) 0.3389(4) 0.8751(3)
N4 N 0.1213(4) 0.4367(5) 0.8657(3)
N5 N 0.2936(4) 0.0357(4) 0.6476(3)
O1 O 0.3356(2) 0.4338(2) 0.71905(18)
O2 O 0.3084(3) 0.4075(3) 0.6478(2)
O3 O 0.2826(3) 0.1543(3) 0.6689(2)
O4 O 0.2918(4) 0.2081(4) 0.6063(3)
O5 O 0.5531(3) 0.4310(3) 0.6226(3)
O6 O 0.4829(3) 0.3772(3) 0.5657(2)
O7 O 0.3121(2) 0.53886(19) 0.69144(13)
O8 O 0.2380(2) 0.4952(2) 0.63400(15)
O9 O 0.2765(2) 0.4829(2) 0.79824(15)
O10 O 0.2653(3) 0.5373(2) 0.85677(15)
O11 O 0.1399(3) 0.0686(2) 0.66488(17)
O12 O 0.1676(3) 0.0620(3) 0.73585(19)
O13 O 0.2070(6) 0.0835(6) 0.5738(3)
C47 C 0.4595(3) 0.7517(4) 0.65078(18)
C48 C 0.3944(3) 0.7351(4) 0.62509(18)
H41 H 0.4014 0.7319 0.5931
H42 H 0.3841 0.7716 0.6294
O14 O 0.46114(19) 0.77324(28) 0.69144(13)
O15 O 0.5048(2) 0.7428(3) 0.63400(15)
C49 C 0.2483(4) 0.7078(3) 0.65078(18)
C50 C 0.2649(4) 0.6593(3) 0.62509(18)
H43 H 0.2681 0.6695 0.5931
H44 H 0.2284 0.6125 0.6294
O16 O 0.22676(28) 0.6879(2) 0.69144(13)
O17 O 0.2572(3) 0.7620(2) 0.63400(15)
C51 C 0.4624(3) 0.7531(4) 0.81826(19)
C52 C 0.3942(3) 0.7338(4) 0.79741(19)
H45 H 0.3978 0.7304 0.7650
H46 H 0.3846 0.7706 0.8030
O18 O 0.5171(2) 0.7936(3) 0.79824(15)
O19 O 0.4627(2) 0.7280(4) 0.85677(15)
C53 C 0.2469(4) 0.7093(3) 0.81826(19)
C54 C 0.2662(4) 0.6604(3) 0.79741(19)
H47 H 0.2696 0.6674 0.7650
H48 H 0.2294 0.6140 0.8030
O20 O 0.2064(3) 0.7235(2) 0.79824(15)
O21 O 0.2720(4) 0.7347(3) 0.85677(15)
C78 C 0.0136(7) 0.3971(9) 0.6418(4)
H70 H 0.0298 0.4439 0.6390
C79 C 0.0588(6) 0.3731(8) 0.6388(3)
H71 H 0.1055 0.4028 0.6349
C80 C 0.0317(4) 0.3026(6) 0.6417(3)
C81 C 0.0740(4) 0.2705(6) 0.6359(3)
C82 C 0.1440(5) 0.3055(8) 0.6293(3)
H72 H 0.1684 0.3532 0.6303
C83 C 0.1782(4) 0.2690(7) 0.6210(3)
H73 H 0.2254 0.2920 0.6163
C84 C 0.1406(5) 0.1986(8) 0.6200(3)
H74 H 0.1616 0.1728 0.6143
C85 C 0.0698(4) 0.1666(6) 0.6277(3)
H75 H 0.0444 0.1190 0.6273
N10 N 0.0376(3) 0.2013(5) 0.6353(2)
Cu8 Cu 0.56350(6) 0.45597(4) 0.54020(3)
C113 C 0.4572(7) 0.4973(6) 0.5470(4)
H99 H 0.4262 0.4507 0.5493
C114 C 0.4326(9) 0.5438(7) 0.5493(5)
H100 H 0.3861 0.5289 0.5521
C115 C 0.4809(9) 0.6120(7) 0.5473(5)
H101 H 0.4674 0.6445 0.5510
C116 C 0.5463(8) 0.6327(6) 0.5401(3)
H102 H 0.5780 0.6792 0.5372
C117 C 0.5672(8) 0.5843(5) 0.5371(3)
C118 C 0.6376(7) 0.5996(4) 0.5328(3)
C119 C 0.6973(12) 0.6694(6) 0.5298(5)
H103 H 0.6908 0.7070 0.5295
C120 C 0.7565(15) 0.6784(9) 0.5278(6)
H104 H 0.7933 0.7229 0.5257
C121 C 0.7709(14) 0.6182(9) 0.5286(6)
H105 H 0.8147 0.6238 0.5283
C122 C 0.7105(10) 0.5541(6) 0.5297(4)
H106 H 0.7148 0.5152 0.5285
N15 N 0.5234(6) 0.5179(4) 0.5418(3)
N16 N 0.6487(6) 0.5454(4) 0.5324(3)
Cu9 Cu 0.55913(4) 0.76983(6) 0.87353(3)
C123 C 0.7067(4) 0.8761(7) 0.8803(4)
H107 H 0.6911 0.9071 0.8826
C124 C 0.7778(5) 0.9007(9) 0.8826(5)
H108 H 0.8094 0.9472 0.8854
C125 C 0.7977(6) 0.8524(9) 0.8806(5)
H109 H 0.8437 0.8659 0.8843
C126 C 0.7530(6) 0.7870(8) 0.8734(3)
H110 H 0.7678 0.7553 0.8705
C127 C 0.6837(6) 0.7661(8) 0.8704(3)
C128 C 0.6286(6) 0.6957(7) 0.8661(3)
C129 C 0.6387(10) 0.6360(12) 0.8631(5)
H111 H 0.6828 0.6425 0.8628
C130 C 0.5885(12) 0.5768(15) 0.8611(6)
H112 H 0.5962 0.5400 0.8590
C131 C 0.5139(11) 0.5624(14) 0.8619(6)
H113 H 0.4757 0.5186 0.8616
C132 C 0.5102(8) 0.6228(10) 0.8630(4)
H114 H 0.4670 0.6185 0.8618
N17 N 0.6611(4) 0.8099(6) 0.8751(3)
N18 N 0.5633(5) 0.6846(6) 0.8657(3)
Cu10 Cu 0.54765(3) 0.80668(4) 0.72259(2)
Cu11 Cu 0.19332(4) 0.74097(3) 0.72259(2)
Cu12 Cu 0.23017(6) 0.78930(4) 0.87353(3)
O40 O 0.2357(3) 0.4554(4) 0.9559(3)
O41 O 0.5446(4) 0.7802(3) 0.9559(3)
O42 O 0.2895(3) 0.4390(4) 0.8990(2)
O43 O 0.5610(4) 0.8504(3) 0.8990(2)
O48 O 0.5397(3) 0.3902(2) 0.46491(15)
O49 O 0.6053(4) 0.4014(3) 0.52344(15)
C16_2 C 0.0000 1.0000 0.7042(3)
H16_2 H 0.0000 1.0000 0.6711
C39 C 0.3835(6) 0.9864(7) 0.6418(4)
H35 H 0.4141 0.9702 0.6390
C40 C 0.3143(5) 0.9412(6) 0.6388(3)
H36 H 0.2973 0.8945 0.6349
C41 C 0.2709(5) 0.9683(4) 0.6417(3)
C42 C 0.1965(5) 0.9260(4) 0.6359(3)
C43 C 0.1615(6) 0.8560(5) 0.6293(3)
H37 H 0.1848 0.8316 0.6303
C44 C 0.0908(6) 0.8218(4) 0.6210(3)
H38 H 0.0666 0.7746 0.6163
C45 C 0.0580(6) 0.8594(5) 0.6200(3)
H39 H 0.0112 0.8384 0.6143
C46 C 0.0968(4) 0.9302(4) 0.6277(3)
H40 H 0.0746 0.9556 0.6273
N6 N 0.1637(4) 0.9624(3) 0.6353(2)
C58 C 0.0007(4) 0.9360(3) 0.7213(2)
H51 H 0.0406 0.9357 0.7094
H52 H 0.0041 0.9377 0.7540
C86 C 0.0699(4) 0.6549(3) 0.6800(3)
C93 C 0.1007(5) 0.7948(4) 0.7505(3)
H83 H 0.0650 0.7499 0.7479
C94 C 0.0858(5) 0.8455(4) 0.7617(3)
H84 H 0.0407 0.8346 0.7666
C95 C 0.1376(6) 0.9112(4) 0.7654(3)
H85 H 0.1282 0.9458 0.7728
C96 C 0.2048(6) 0.9267(4) 0.7583(3)
H86 H 0.2409 0.9717 0.7601
C97 C 0.2169(4) 0.8732(3) 0.7483(2)
C98 C 0.2864(4) 0.8824(3) 0.7430(2)
C99 C 0.3444(6) 0.9420(4) 0.7519(3)
H87 H 0.3427 0.9803 0.7619
C100 C 0.4076(6) 0.9441(4) 0.7457(3)
H88 H 0.4485 0.9846 0.7509
C101 C 0.4085(6) 0.8868(4) 0.7321(3)
H89 H 0.4497 0.8871 0.7288
C102 C 0.3469(4) 0.8285(3) 0.7234(2)
H90 H 0.3471 0.7895 0.7134
N11 N 0.1649(4) 0.8082(3) 0.74313(18)
N12 N 0.2869(4) 0.8258(3) 0.72879(17)
O33 O 0.0982(3) 0.6644(2) 0.71905(18)
O34 O 0.0991(4) 0.6916(3) 0.6478(2)
C16_3 C 1.0000 0.0000 0.7042(3)
H16_3 H 1.0000 0.0000 0.6711
H28 H 0.9875 0.2322 0.8705
C33 C 0.9973(6) 0.3613(10) 0.8631(5)
H29 H 0.9597 0.3172 0.8628
C34 C 0.9883(9) 0.4115(12) 0.8611(6)
H30 H 0.9438 0.4038 0.8590
C55 C 0.9343(3) 0.0635(4) 0.7073(2)
O22 O 0.9314(2) 0.0713(4) 0.66488(17)
O23 O 0.9380(3) 0.1056(4) 0.73585(19)
Cu5 Cu 0.93845(4) 0.15847(6) 0.64952(4)
C60 C 0.5975(4) 0.0024(6) 0.6738(4)
H53 H 0.5592 0.0003 0.6575
H54 H 0.5994 0.0221 0.7033
C61 C 0.6631(3) 0.0484(5) 0.6485(3)
H55 H 0.6615 0.0270 0.6195
C62 C 0.7262(4) 0.0580(6) 0.6744(3)
H56 H 0.7316 0.0847 0.7013
H57 H 0.7180 0.0134 0.6840
C63 C 0.7926(4) 0.0930(5) 0.6478(3)
C64 C 0.6723(4) 0.1203(6) 0.6393(4)
H58 H 0.6702 0.1408 0.6676
H59 H 0.7170 0.1495 0.6260
C65 C 0.6176(4) 0.1161(6) 0.6078(3)
C76 C 0.9218(6) 0.2831(8) 0.6510(4)
H68 H 0.8752 0.2530 0.6548
C77 C 0.9456(7) 0.3537(9) 0.6490(4)
H69 H 0.9156 0.3704 0.6525
N9 N 0.9643(4) 0.2579(6) 0.6476(3)
O28 O 0.8457(3) 0.1283(4) 0.6689(2)
O29 O 0.7919(4) 0.0837(6) 0.6063(3)
O30 O 0.5690(3) 0.1221(4) 0.6226(3)
O31 O 0.6228(3) 0.1057(4) 0.5657(2)
O32 O 0.9165(6) 0.1235(8) 0.5738(3)
Cu13 Cu 0.54403(4) 0.10754(4) 0.54020(3)
C16_4 C 1.0000 1.0000 0.7042(3)
H16_4 H 1.0000 1.0000 0.6711
C56 C 0.9353(3) 0.9993(4) 0.7213(2)
H49 H 0.8951 0.9594 0.7094
H50 H 0.9336 0.9959 0.7540
C57 C 0.9365(4) 0.8708(3) 0.7073(2)
O24 O 0.9287(4) 0.8601(3) 0.66488(17)
O25 O 0.8944(4) 0.8324(3) 0.73585(19)
C59 C 0.5850(3) 0.9301(4) 0.6800(3)
C66 C 0.6941(3) 0.8993(5) 0.7505(3)
H60 H 0.6849 0.9350 0.7479
C67 C 0.7597(3) 0.9142(5) 0.7617(3)
H61 H 0.7939 0.9593 0.7666
C68 C 0.7736(4) 0.8624(6) 0.7654(3)
H62 H 0.8176 0.8718 0.7728
C69 C 0.7219(4) 0.7952(6) 0.7583(3)
H63 H 0.7308 0.7591 0.7601
C70 C 0.6563(3) 0.7831(4) 0.7483(2)
C71 C 0.5960(3) 0.7136(4) 0.7430(2)
C72 C 0.5976(4) 0.6556(6) 0.7519(3)
H64 H 0.6376 0.6573 0.7619
C73 C 0.5365(4) 0.5924(6) 0.7457(3)
H65 H 0.5361 0.5515 0.7509
C74 C 0.4783(4) 0.5915(6) 0.7321(3)
H66 H 0.4374 0.5503 0.7288
C75 C 0.4816(3) 0.6531(4) 0.7234(2)
H67 H 0.4424 0.6529 0.7134
N7 N 0.6433(2) 0.8351(4) 0.74313(18)
N8 N 0.5389(3) 0.7131(4) 0.72879(17)
O26 O 0.5662(2) 0.9018(3) 0.71905(18)
O27 O 0.5925(3) 0.9009(4) 0.6478(2)
Cu7 Cu 0.84153(6) 0.77998(5) 0.64952(4)
C87 C 0.9976(6) 0.5951(4) 0.6738(4)
H76 H 0.9997 0.5589 0.6575
H77 H 0.9779 0.5773 0.7033
C88 C 0.9516(5) 0.6147(4) 0.6485(3)
H78 H 0.9730 0.6345 0.6195
C89 C 0.9420(6) 0.6682(4) 0.6744(3)
H79 H 0.9153 0.6469 0.7013
H80 H 0.9866 0.7046 0.6840
C90 C 0.9070(5) 0.6996(3) 0.6478(3)
C91 C 0.8797(6) 0.5520(4) 0.6393(4)
H81 H 0.8592 0.5294 0.6676
H82 H 0.8505 0.5675 0.6260
C92 C 0.8839(6) 0.5015(4) 0.6078(3)
C103 C 0.7169(8) 0.6387(5) 0.6510(4)
H91 H 0.7470 0.6222 0.6548
C104 C 0.6463(9) 0.5919(6) 0.6490(4)
H92 H 0.6296 0.5452 0.6525
C105 C 0.6029(9) 0.6165(6) 0.6418(4)
H93 H 0.5561 0.5859 0.6390
C106 C 0.6269(8) 0.6857(5) 0.6388(3)
H94 H 0.5972 0.7027 0.6349
C107 C 0.6974(6) 0.7291(5) 0.6417(3)
C108 C 0.7295(6) 0.8035(5) 0.6359(3)
C109 C 0.6945(8) 0.8385(6) 0.6293(3)
H95 H 0.6468 0.8152 0.6303
C110 C 0.7310(7) 0.9092(6) 0.6210(3)
H96 H 0.7080 0.9334 0.6163
C111 C 0.8014(8) 0.9420(6) 0.6200(3)
H97 H 0.8272 0.9888 0.6143
C112 C 0.8334(6) 0.9032(4) 0.6277(3)
H98 H 0.8810 0.9254 0.6273
N13 N 0.7421(6) 0.7064(4) 0.6476(3)
N14 N 0.7987(5) 0.8363(4) 0.6353(2)
O35 O 0.8717(4) 0.7174(3) 0.6689(2)
O36 O 0.9163(6) 0.7082(4) 0.6063(3)
O37 O 0.8779(4) 0.4469(3) 0.6226(3)
O38 O 0.8943(4) 0.5171(3) 0.5657(2)
O39 O 0.8765(8) 0.7930(6) 0.5738(3)
Cu14 Cu 0.89246(4) 0.43650(6) 0.54020(3)
C118_2 C 0.4004(4) 0.0381(8) 0.5328(3)
C119_2 C 0.3306(6) 0.0280(13) 0.5298(5)
C120_2 C 0.3216(9) 0.0782(17) 0.5278(6)
H104_2 H 0.2771 0.0705 0.5257
C121_2 C 0.3818(9) 0.1528(17) 0.5286(6)
H105_2 H 0.3762 0.1910 0.5283
C122_2 C 0.4459(6) 0.1565(12) 0.5297(4)
H106_2 H 0.4848 0.1997 0.5285
N15_2 N 0.4821(4) 0.0056(7) 0.5418(3)
N16_2 N 0.4546(4) 0.1034(7) 0.5324(3)
H110_2 H 0.2447 0.0125 0.8705
C129_2 C 0.3640(12) 0.0027(16) 0.8631(5)
H111_2 H 0.3575 0.0403 0.8628
C130_2 C 0.4232(15) 0.0117(19) 0.8611(6)
H112_2 H 0.4600 0.0562 0.8590
O48_2 O 0.6098(2) 0.1496(4) 0.46491(15)
O49_2 O 0.5986(3) 0.2040(5) 0.52344(15)
C113_2 C 0.5027(6) 0.9600(9) 0.5470(4)
H99_2 H 0.5493 0.9756 0.5493
C114_2 C 0.4562(7) 0.8889(11) 0.5493(5)
H100_2 H 0.4711 0.8573 0.5521
C115_2 C 0.3880(7) 0.8690(11) 0.5473(5)
H101_2 H 0.3555 0.8230 0.5510
C116_2 C 0.3673(6) 0.9137(10) 0.5401(3)
H102_2 H 0.3208 0.8989 0.5372
C117_2 C 0.4157(5) 0.9830(9) 0.5371(3)
H103_2 H 0.2930 0.9839 0.5295
C123_2 C 0.1239(7) 0.8306(8) 0.8803(4)
H107_2 H 0.0929 0.7840 0.8826
C124_2 C 0.0993(9) 0.8771(10) 0.8826(5)
H108_2 H 0.0528 0.8622 0.8854
C125_2 C 0.1476(9) 0.9453(11) 0.8806(5)
H109_2 H 0.1341 0.9778 0.8843
C126_2 C 0.2130(8) 0.9660(10) 0.8734(3)
C127_2 C 0.2339(8) 0.9176(10) 0.8704(3)
C128_2 C 0.3043(7) 0.9329(9) 0.8661(3)
C131_2 C 0.4376(14) 0.9515(18) 0.8619(6)
H113_2 H 0.4814 0.9571 0.8616
C132_2 C 0.3772(10) 0.8874(13) 0.8630(4)
H114_2 H 0.3815 0.8485 0.8618
N17_2 N 0.1901(6) 0.8512(7) 0.8751(3)
N18_2 N 0.3154(6) 0.8787(8) 0.8657(3)
O41_2 O 0.2198(3) 0.7643(5) 0.9559(3)
O43_2 O 0.1496(3) 0.7105(5) 0.8990(2)
C113_3 C 0.0400(9) 0.5428(7) 0.5470(4)
H99_3 H 0.0244 0.5738 0.5493
C114_3 C 0.1111(11) 0.5674(9) 0.5493(5)
H100_3 H 0.1427 0.6139 0.5521
C115_3 C 0.1310(11) 0.5191(9) 0.5473(5)
H101_3 H 0.1770 0.5326 0.5510
C116_3 C 0.0863(10) 0.4537(8) 0.5401(3)
H102_3 H 0.1011 0.4220 0.5372
C117_3 C 0.0170(9) 0.4328(8) 0.5371(3)
H103_3 H 0.0161 0.3092 0.5295
C118_3 C 0.9619(8) 0.3624(7) 0.5328(3)
C119_3 C 0.9720(13) 0.3027(12) 0.5298(5)
C120_3 C 0.9218(17) 0.2435(15) 0.5278(6)
H104_3 H 0.9295 0.2067 0.5257
C121_3 C 0.8472(17) 0.2291(14) 0.5286(6)
H105_3 H 0.8090 0.1853 0.5283
C122_3 C 0.8435(12) 0.2895(10) 0.5297(4)
H106_3 H 0.8003 0.2852 0.5285
N15_3 N 0.9944(7) 0.4766(6) 0.5418(3)
N16_3 N 0.8966(7) 0.3513(6) 0.5324(3)
O48_3 O 0.8504(4) 0.4603(3) 0.46491(15)
O49_3 O 0.7960(5) 0.3947(4) 0.52344(15)
H10_2 H -0.0000 0.0000 0.0081
C13_2 C -0.0000 0.0000 0.1476(3)
H13_2 H -0.0000 0.0000 0.1807
O14_2 O 0.12781(19) 0.10657(28) 0.02477(13)
C51_2 C 0.1291(3) 0.0864(4) 0.15159(19)
C52_2 C 0.0609(3) 0.0671(4) 0.13074(19)
H45_2 H 0.0645 0.0637 0.0983
H46_2 H 0.0513 0.1039 0.1363
O18_2 O 0.1838(2) 0.1269(3) 0.13157(15)
O19_2 O 0.1294(2) 0.0613(4) 0.19010(15)
Cu9_2 Cu 0.22580(4) 0.10316(6) 0.20686(3)
C123_3 C 0.3734(4) 0.2094(7) 0.2136(4)
H107_3 H 0.3578 0.2404 0.2159
C124_3 C 0.4445(5) 0.2340(9) 0.2159(5)
H108_3 H 0.4761 0.2805 0.2187
C125_3 C 0.4644(6) 0.1857(9) 0.2139(5)
H109_3 H 0.5104 0.1992 0.2176
C126_3 C 0.4197(6) 0.1203(8) 0.2067(3)
H110_3 H 0.4345 0.0886 0.2038
C127_3 C 0.3504(6) 0.0994(8) 0.2037(3)
C128_3 C 0.2953(6) 0.0290(7) 0.1994(3)
N17_3 N 0.3278(4) 0.1432(6) 0.2084(3)
N18_3 N 0.2300(5) 0.0179(6) 0.1990(3)
Cu10_2 Cu 0.21432(3) 0.14001(4) 0.05592(2)
O41_3 O 0.2112(4) 0.1136(3) 0.2893(3)
O43_3 O 0.2276(4) 0.1838(3) 0.2324(2)
C10_2 C -0.0000 0.0000 0.9750(3)
C47_2 C 0.1262(3) 0.0850(4) 0.98411(18)
C48_2 C 0.0611(3) 0.0684(4) 0.95842(18)
H41_2 H 0.0681 0.0652 0.9264
H42_2 H 0.0508 0.1049 0.9627
O15_2 O 0.1715(2) 0.0761(3) 0.96733(15)
C1_2 C 0.0118(3) 0.7483(3) 0.0133(3)
C2_2 C 0.0716(4) 0.7358(4) 0.0071(4)
H2_2 H 0.0894 0.7339 0.0366
H4_2 H 0.0198 0.6017 0.0346
H6_2 H 0.1373 0.6631 0.0009
H10_3 H -0.0000 1.0000 0.0081
C12_2 C 0.0063(3) 0.9391(3) 0.13074(19)
H12_2 H 0.0527 0.9487 0.1363
C13_3 C -0.0000 1.0000 0.1476(3)
H13_3 H -0.0000 1.0000 0.1807
O1_2 O 0.0023(2) 0.7671(2) 0.05238(18)
C99_2 C 0.0111(6) 0.2753(4) 0.0852(3)
H87_2 H 0.0094 0.3136 0.0952
C100_2 C 0.0743(6) 0.2774(4) 0.0790(3)
H88_2 H 0.1152 0.3179 0.0842
C101_2 C 0.0752(6) 0.2201(4) 0.0654(3)
H89_2 H 0.1164 0.2204 0.0621
C102_2 C 0.0136(4) 0.1618(3) 0.0567(2)
H90_2 H 0.0138 0.1228 0.0467
C129_3 C 0.3054(10) 0.9693(12) 0.1964(5)
H111_3 H 0.3495 0.9758 0.1961
C130_3 C 0.2552(12) 0.9101(15) 0.1944(6)
H112_3 H 0.2629 0.8733 0.1923
C131_3 C 0.1806(11) 0.8957(14) 0.1952(6)
H113_3 H 0.1424 0.8519 0.1949
C132_3 C 0.1769(8) 0.9561(10) 0.1963(4)
H114_3 H 0.1337 0.9518 0.1951
H1_2 H 0.1078 0.7741 0.9908
C3_2 C 0.0520(4) 0.6702(3) 0.9818(3)
H3_2 H 0.0322 0.6718 0.9528
C6_2 C 0.1147(4) 0.6610(4) 0.9726(4)
H7_2 H 0.0992 0.6163 0.9593
C7_2 C 0.1652(4) 0.7157(4) 0.9411(3)
C9_2 C 0.0074(3) 0.9389(3) 0.95842(18)
H9_2 H 0.0542 0.9492 0.9627
C10_3 C -0.0000 1.0000 0.9750(3)
C37_2 C 0.0280(5) 0.4115(6) 0.9843(4)
H33_2 H 0.0445 0.4581 0.9881
C38_2 C 0.0748(6) 0.3877(7) 0.9823(4)
H34_2 H 0.1215 0.4177 0.9858
C39_2 C 0.0502(6) 0.3197(7) 0.9751(4)
H35_2 H 0.0808 0.3035 0.9723
H10_4 H 1.0000 0.0000 0.0081
C13_4 C 1.0000 0.0000 0.1476(3)
H13_4 H 1.0000 0.0000 0.1807
O16_2 O 0.89343(28) 0.0212(2) 0.02477(13)
C53_2 C 0.9136(4) 0.0426(3) 0.15159(19)
H47_2 H 0.9363 0.0007 0.0983
O20_2 O 0.8731(3) 0.0568(2) 0.13157(15)
O21_2 O 0.9387(4) 0.0680(3) 0.19010(15)
Cu11_2 Cu 0.85999(4) 0.07430(3) 0.05592(2)
Cu12_2 Cu 0.89684(6) 0.12263(4) 0.20686(3)
C10_4 C 1.0000 0.0000 0.9750(3)
C49_2 C 0.9150(4) 0.0411(3) 0.98411(18)
H43_2 H 0.9348 0.0028 0.9264
O17_2 O 0.9239(3) 0.0953(2) 0.96733(15)
Cu1_2 Cu 0.92570(3) 0.78568(3) 0.05592(2)
Cu2_2 Cu 0.87737(4) 0.77420(4) 0.20686(3)
C4_2 C 0.9985(4) 0.6071(4) 0.0077(3)
H5_2 H 0.9621 0.6153 0.0173
H10_5 H 1.0000 1.0000 0.0081
C11_2 C 0.9574(3) 0.8709(3) 0.15159(19)
H11_2 H 0.9993 0.9355 0.0983
C13_5 C 1.0000 1.0000 0.1476(3)
H13_5 H 1.0000 1.0000 0.1807
C14_2 C 0.7959(3) 0.3990(3) 0.0406(2)
C15_2 C 0.7307(3) 0.3980(3) 0.0546(2)
H14_2 H 0.7310 0.4382 0.0427
H15_2 H 0.7290 0.3997 0.0873
C16_5 C 0.6667 0.3333 0.0375(3)
H16_5 H 0.6667 0.3333 0.0044
C17_2 C 0.8719(4) 0.6392(3) 0.0838(3)
H17_2 H 0.9168 0.6484 0.0812
C18_2 C 0.8212(4) 0.5736(3) 0.0950(3)
H18_2 H 0.8321 0.5394 0.0999
C19_2 C 0.7555(4) 0.5597(4) 0.0987(3)
H19_2 H 0.7209 0.5157 0.1061
C20_2 C 0.7400(4) 0.6114(4) 0.0916(3)
H20_2 H 0.6950 0.6025 0.0934
C21_2 C 0.7935(3) 0.6770(3) 0.0816(2)
C22_2 C 0.7843(3) 0.7373(3) 0.0763(2)
C23_2 C 0.7247(4) 0.7357(4) 0.0852(3)
H21_2 H 0.6864 0.6957 0.0952
C24_2 C 0.7226(4) 0.7968(4) 0.0790(3)
H22_2 H 0.6821 0.7972 0.0842
C25_2 C 0.7799(4) 0.8550(4) 0.0654(3)
H23_2 H 0.7796 0.8959 0.0621
C26_2 C 0.8382(3) 0.8517(3) 0.0567(2)
H24_2 H 0.8772 0.8909 0.0467
C27_2 C 0.8361(6) 0.6266(4) 0.2136(4)
H25_2 H 0.8827 0.6422 0.2159
C28_2 C 0.7896(7) 0.5555(5) 0.2159(5)
H26_2 H 0.8045 0.5239 0.2187
C29_2 C 0.7214(7) 0.5356(6) 0.2139(5)
H27_2 H 0.6889 0.4896 0.2176
C30_2 C 0.7007(6) 0.5803(6) 0.2067(3)
H28_2 H 0.6542 0.5655 0.2038
C31_2 C 0.7491(5) 0.6496(6) 0.2037(3)
C32_2 C 0.7338(4) 0.7047(6) 0.1994(3)
C33_2 C 0.6640(6) 0.6946(10) 0.1964(5)
H29_2 H 0.6264 0.6505 0.1961
C34_2 C 0.6550(9) 0.7448(12) 0.1944(6)
H30_2 H 0.6105 0.7371 0.1923
C35_2 C 0.7152(9) 0.8194(11) 0.1952(6)
H31_2 H 0.7096 0.8576 0.1949
C36_2 C 0.7793(6) 0.8231(8) 0.1963(4)
H32_2 H 0.8182 0.8663 0.1951
N1_2 N 0.8585(3) 0.6900(2) 0.07646(18)
N2_2 N 0.8409(3) 0.7944(3) 0.06212(17)
N3_2 N 0.8155(4) 0.6722(4) 0.2084(3)
N4_2 N 0.7880(4) 0.7700(5) 0.1990(3)
O3_2 O 0.9493(3) 0.4876(3) 0.0022(2)
O7_2 O 0.9788(2) 0.87219(19) 0.02477(13)
O9_2 O 0.9432(2) 0.8162(2) 0.13157(15)
O10_2 O 0.9320(3) 0.8706(2) 0.19010(15)
O12_2 O 0.8343(3) 0.3953(3) 0.06918(19)
C54_2 C 0.9329(4) 0.9937(3) 0.13074(19)
H48_2 H 0.8961 0.9473 0.1363
C55_2 C 0.6010(3) 0.3968(4) 0.0406(2)
C56_2 C 0.6020(3) 0.3326(4) 0.0546(2)
H49_2 H 0.5618 0.2927 0.0427
H50_2 H 0.6003 0.3292 0.0873
O23_2 O 0.6047(3) 0.4389(4) 0.06918(19)
C57_2 C 0.6032(4) 0.2041(3) 0.0406(2)
C58_2 C 0.6674(4) 0.2693(3) 0.0546(2)
H51_2 H 0.7073 0.2690 0.0427
H52_2 H 0.6708 0.2710 0.0873
O25_2 O 0.5611(4) 0.1657(3) 0.06918(19)
C59_2 C 0.2517(3) 0.2634(4) 0.0133(3)
C60_2 C 0.2642(4) 0.3357(6) 0.0071(4)
H54_2 H 0.2661 0.3554 0.0366
C62_2 C 0.3929(4) 0.3913(6) 0.0077(3)
H56_2 H 0.3983 0.4180 0.0346
H57_2 H 0.3847 0.3467 0.0173
H58_2 H 0.3369 0.4741 0.0009
C66_2 C 0.3608(3) 0.2326(5) 0.0838(3)
H60_2 H 0.3516 0.2683 0.0812
C67_2 C 0.4264(3) 0.2475(5) 0.0950(3)
H61_2 H 0.4606 0.2926 0.0999
C68_2 C 0.4403(4) 0.1957(6) 0.0987(3)
H62_2 H 0.4843 0.2051 0.1061
C69_2 C 0.3886(4) 0.1285(6) 0.0916(3)
H63_2 H 0.3975 0.0924 0.0934
C70_2 C 0.3230(3) 0.1164(4) 0.0816(2)
C71_2 C 0.2627(3) 0.0469(4) 0.0763(2)
N7_2 N 0.3100(2) 0.1684(4) 0.07646(18)
N8_2 N 0.2056(3) 0.0464(4) 0.06212(17)
O26_2 O 0.2329(2) 0.2351(3) 0.05238(18)
O28_2 O 0.5124(3) 0.4616(4) 0.0022(2)
C89_2 C 0.6087(6) 0.0015(4) 0.0077(3)
H80_2 H 0.6533 0.0379 0.0173
C93_2 C 0.7674(5) 0.1281(4) 0.0838(3)
H83_2 H 0.7317 0.0832 0.0812
C94_2 C 0.7525(5) 0.1788(4) 0.0950(3)
H84_2 H 0.7074 0.1679 0.0999
C95_2 C 0.8043(6) 0.2445(4) 0.0987(3)
H85_2 H 0.7949 0.2791 0.1061
C96_2 C 0.8715(6) 0.2600(4) 0.0916(3)
H86_2 H 0.9076 0.3050 0.0934
C97_2 C 0.8836(4) 0.2065(3) 0.0816(2)
C98_2 C 0.9531(4) 0.2157(3) 0.0763(2)
N11_2 N 0.8316(4) 0.1415(3) 0.07646(18)
N12_2 N 0.9536(4) 0.1591(3) 0.06212(17)
O35_2 O 0.5384(4) 0.0507(3) 0.0022(2)
O40_2 O 0.9023(3) 0.7888(4) 0.2893(3)
O42_2 O 0.9561(3) 0.7724(4) 0.2324(2)
Cu3_2 Cu 0.88669(5) 0.39488(4) 0.98285(4)
C5_2 C 0.9671(3) 0.5407(4) 0.9811(3)
C8_2 C 0.9589(3) 0.8738(3) 0.98411(18)
H8_2 H 0.9972 0.9319 0.9264
C10_5 C 1.0000 1.0000 0.9750(3)
C40_2 C 0.9810(5) 0.2745(6) 0.9721(3)
H36_2 H 0.9640 0.2278 0.9682
C41_2 C 0.9376(5) 0.3016(4) 0.9750(3)
C42_2 C 0.8632(5) 0.2593(4) 0.9692(3)
C43_2 C 0.8282(6) 0.1893(5) 0.9626(3)
H37_2 H 0.8515 0.1649 0.9636
C44_2 C 0.7575(6) 0.1551(4) 0.9543(3)
H38_2 H 0.7333 0.1079 0.9496
C45_2 C 0.7247(6) 0.1927(5) 0.9533(3)
H39_2 H 0.6779 0.1717 0.9476
C46_2 C 0.7635(4) 0.2635(4) 0.9610(3)
H40_2 H 0.7413 0.2889 0.9606
N5_2 N 0.9603(4) 0.3690(4) 0.9809(3)
N6_2 N 0.8304(4) 0.2957(3) 0.9686(2)
O2_2 O 0.9751(3) 0.7408(3) 0.9811(2)
O4_2 O 0.9585(4) 0.5414(4) 0.9396(3)
O8_2 O 0.9047(2) 0.8285(2) 0.96733(15)
O11_2 O 0.8066(3) 0.4019(2) 0.99821(17)
O13_2 O 0.8737(6) 0.4168(6) 0.9071(3)
C50_2 C 0.9316(4) 0.9926(3) 0.95842(18)
H44_2 H 0.8951 0.9458 0.9627
O22_2 O 0.5981(2) 0.4046(4) 0.99821(17)
O24_2 O 0.5954(4) 0.1934(3) 0.99821(17)
Cu5_2 Cu 0.60512(4) 0.49180(6) 0.98285(4)
H53_2 H 0.2259 0.3336 0.9908
C61_2 C 0.3298(3) 0.3817(5) 0.9818(3)
H55_2 H 0.3282 0.3603 0.9528
C63_2 C 0.4593(4) 0.4263(5) 0.9811(3)
C64_2 C 0.3390(4) 0.4536(6) 0.9726(4)
H59_2 H 0.3837 0.4828 0.9593
C65_2 C 0.2843(4) 0.4494(6) 0.9411(3)
C76_2 C 0.5885(6) 0.6164(8) 0.9843(4)
H68_2 H 0.5419 0.5863 0.9881
C77_2 C 0.6123(7) 0.6870(9) 0.9823(4)
H69_2 H 0.5823 0.7037 0.9858
C78_2 C 0.6803(7) 0.7304(9) 0.9751(4)
H70_2 H 0.6965 0.7772 0.9723
C79_2 C 0.7255(6) 0.7064(8) 0.9721(3)
H71_2 H 0.7722 0.7361 0.9682
C80_2 C 0.6984(4) 0.6359(6) 0.9750(3)
C81_2 C 0.7407(4) 0.6038(6) 0.9692(3)
C82_2 C 0.8107(5) 0.6388(8) 0.9626(3)
H72_2 H 0.8351 0.6865 0.9636
C83_2 C 0.8449(4) 0.6023(7) 0.9543(3)
H73_2 H 0.8921 0.6253 0.9496
C84_2 C 0.8073(5) 0.5319(8) 0.9533(3)
H74_2 H 0.8283 0.5061 0.9476
C85_2 C 0.7365(4) 0.4999(6) 0.9610(3)
H75_2 H 0.7111 0.4523 0.9606
N9_2 N 0.6310(4) 0.5912(6) 0.9809(3)
N10_2 N 0.7043(3) 0.5346(5) 0.9686(2)
O27_2 O 0.2592(3) 0.2342(4) 0.9811(2)
O29_2 O 0.4586(4) 0.4170(6) 0.9396(3)
O32_2 O 0.5832(6) 0.4568(8) 0.9071(3)
Cu7_2 Cu 0.50820(6) 0.11331(5) 0.98285(4)
C90_2 C 0.5737(5) 0.0329(3) 0.9811(3)
C106_2 C 0.2936(8) 0.0190(5) 0.9721(3)
H94_2 H 0.2639 0.0360 0.9682
C107_2 C 0.3641(6) 0.0624(5) 0.9750(3)
C108_2 C 0.3962(6) 0.1368(5) 0.9692(3)
C109_2 C 0.3612(8) 0.1718(6) 0.9626(3)
H95_2 H 0.3135 0.1485 0.9636
C110_2 C 0.3977(7) 0.2425(6) 0.9543(3)
H96_2 H 0.3747 0.2667 0.9496
C111_2 C 0.4681(8) 0.2753(6) 0.9533(3)
H97_2 H 0.4939 0.3221 0.9476
C112_2 C 0.5001(6) 0.2365(4) 0.9610(3)
H98_2 H 0.5477 0.2587 0.9606
N13_2 N 0.4088(6) 0.0397(4) 0.9809(3)
N14_2 N 0.4654(5) 0.1696(4) 0.9686(2)
O34_2 O 0.7658(4) 0.0249(3) 0.9811(2)
O36_2 O 0.5830(6) 0.0415(4) 0.9396(3)
O39_2 O 0.5432(8) 0.1263(6) 0.9071(3)
C72_2 C 0.2643(4) 0.9889(6) 0.0852(3)
H64_2 H 0.3043 0.9906 0.0952
C73_2 C 0.2032(4) 0.9257(6) 0.0790(3)
H65_2 H 0.2028 0.8848 0.0842
C74_2 C 0.1450(4) 0.9248(6) 0.0654(3)
H66_2 H 0.1041 0.8836 0.0621
C75_2 C 0.1483(3) 0.9864(4) 0.0567(2)
H67_2 H 0.1091 0.9862 0.0467
C86_2 C 0.7366(4) 0.9882(3) 0.0133(3)
C87_2 C 0.6643(6) 0.9284(4) 0.0071(4)
H77_2 H 0.6446 0.9106 0.0366
H79_2 H 0.5820 0.9802 0.0346
H81_2 H 0.5259 0.8627 0.0009
O33_2 O 0.7649(3) 0.9977(2) 0.05238(18)
H76_2 H 0.6664 0.8922 0.9908
C88_2 C 0.6183(5) 0.9480(4) 0.9818(3)
H78_2 H 0.6397 0.9678 0.9528
C91_2 C 0.5464(6) 0.8853(4) 0.9726(4)
H82_2 H 0.5172 0.9008 0.9593
C92_2 C 0.5506(6) 0.8348(4) 0.9411(3)
C103_2 C 0.3836(8) 0.9720(5) 0.9843(4)
H91_2 H 0.4137 0.9555 0.9881
C104_2 C 0.3130(9) 0.9252(6) 0.9823(4)
H92_2 H 0.2963 0.8785 0.9858
C105_2 C 0.2696(9) 0.9498(6) 0.9751(4)
H93_2 H 0.2228 0.9192 0.9723
C129_4 C 0.0307(12) 0.3360(16) 0.1964(5)
H111_4 H 0.0242 0.3736 0.1961
C130_4 C 0.0899(15) 0.3450(19) 0.1944(6)
H112_4 H 0.1267 0.3895 0.1923
C131_4 C 0.1043(14) 0.2848(18) 0.1952(6)
H113_4 H 0.1481 0.2904 0.1949
C132_4 C 0.0439(10) 0.2207(13) 0.1963(4)
H114_4 H 0.0482 0.1818 0.1951
C123_4 C 0.7906(7) 0.1639(8) 0.2136(4)
H107_4 H 0.7596 0.1173 0.2159
C124_4 C 0.7660(9) 0.2104(10) 0.2159(5)
H108_4 H 0.7195 0.1955 0.2187
C125_4 C 0.8143(9) 0.2786(11) 0.2139(5)
H109_4 H 0.8008 0.3111 0.2176
C126_4 C 0.8797(8) 0.2993(10) 0.2067(3)
H110_4 H 0.9114 0.3458 0.2038
C127_4 C 0.9006(8) 0.2509(10) 0.2037(3)
C128_4 C 0.9710(7) 0.2662(9) 0.1994(3)
N17_4 N 0.8568(6) 0.1845(7) 0.2084(3)
N18_4 N 0.9821(6) 0.2120(8) 0.1990(3)
O41_4 O 0.8864(3) 0.0977(5) 0.2893(3)
O43_4 O 0.8162(3) 0.0439(5) 0.2324(2)
Cu1_3 Cu 0.59236(3) 0.11902(3) 0.38926(2)
C1_3 C 0.6784(3) 0.0817(3) 0.3467(3)
C2_3 C 0.7382(4) 0.0692(4) 0.3405(4)
H1_3 H 0.7744 0.1075 0.3242
H2_3 H 0.7560 0.0673 0.3700
C3_3 C 0.7186(4) 0.0036(3) 0.3152(3)
H3_3 H 0.6988 0.0052 0.2862
C7_3 C 0.8318(4) 0.0491(4) 0.2745(3)
C8_3 C 0.6255(3) 0.2072(3) 0.31745(18)
C9_3 C 0.6740(3) 0.2723(3) 0.29176(18)
H8_3 H 0.6638 0.2653 0.2598
H9_3 H 0.7208 0.2826 0.2961
C10_6 C 0.6666 0.3334 0.3084(3)
H10_6 H 0.6666 0.3334 0.3415
C11_3 C 0.6240(3) 0.2043(3) 0.48493(19)
C12_3 C 0.6729(3) 0.2725(3) 0.46408(19)
H11_3 H 0.6659 0.2689 0.4317
H12_3 H 0.7193 0.2821 0.4697
C13_6 C 0.6666 0.3334 0.4810(3)
H13_6 H 0.6666 0.3334 0.5141
C21_3 C 0.4601(3) 0.0104(3) 0.4150(2)
C22_3 C 0.4509(3) 0.0707(3) 0.4097(2)
C23_3 C 0.3913(4) 0.0691(4) 0.4186(3)
H21_3 H 0.3530 0.0291 0.4286
C24_3 C 0.3892(4) 0.1302(4) 0.4124(3)
H22_3 H 0.3487 0.1306 0.4176
C25_3 C 0.4465(4) 0.1884(4) 0.3988(3)
H23_3 H 0.4462 0.2293 0.3955
C26_3 C 0.5048(3) 0.1851(3) 0.3901(2)
H24_3 H 0.5438 0.2243 0.3801
N1_3 N 0.5251(3) 0.0234(2) 0.40980(18)
N2_3 N 0.5075(3) 0.1278(3) 0.39546(17)
O1_3 O 0.6689(2) 0.1005(2) 0.38572(18)
O2_3 O 0.6417(3) 0.0742(3) 0.3145(2)
O7_3 O 0.6454(2) 0.20553(19) 0.35811(13)
O8_3 O 0.5713(2) 0.1619(2) 0.30067(15)
C47_3 C 0.7928(3) 0.4184(4) 0.31745(18)
C48_3 C 0.7277(3) 0.4018(4) 0.29176(18)
H41_3 H 0.7347 0.3986 0.2598
H42_3 H 0.7174 0.4383 0.2961
O14_3 O 0.79447(19) 0.43991(28) 0.35811(13)
O15_3 O 0.8381(2) 0.4095(3) 0.30067(15)
C49_3 C 0.5816(4) 0.3745(3) 0.31745(18)
C50_3 C 0.5982(4) 0.3260(3) 0.29176(18)
H43_3 H 0.6014 0.3362 0.2598
H44_3 H 0.5617 0.2792 0.2961
O16_3 O 0.56009(28) 0.3546(2) 0.35811(13)
O17_3 O 0.5905(3) 0.4287(2) 0.30067(15)
C51_3 C 0.7957(3) 0.4198(4) 0.48493(19)
C52_3 C 0.7275(3) 0.4005(4) 0.46408(19)
H45_3 H 0.7311 0.3971 0.4317
H46_3 H 0.7179 0.4373 0.4697
C53_3 C 0.5802(4) 0.3760(3) 0.48493(19)
C54_3 C 0.5995(4) 0.3271(3) 0.46408(19)
H47_3 H 0.6029 0.3341 0.4317
H48_3 H 0.5627 0.2807 0.4697
C77_3 C 0.2789(7) 0.0204(9) 0.3157(4)
H69_3 H 0.2489 0.0371 0.3192
C78_3 C 0.3469(7) 0.0638(9) 0.3085(4)
H70_3 H 0.3631 0.1106 0.3057
C79_3 C 0.3921(6) 0.0398(8) 0.3055(3)
H71_3 H 0.4388 0.0695 0.3016
H72_3 H 0.5017 0.0199 0.2970
Cu10_3 Cu 0.88098(3) 0.47335(4) 0.38926(2)
Cu11_3 Cu 0.52665(4) 0.40764(3) 0.38926(2)
Cu3_3 Cu 0.55335(5) 0.72822(4) 0.31619(4)
C4_3 C 0.6651(4) 0.9405(4) 0.3411(3)
H4_3 H 0.6864 0.9351 0.3680
H5_3 H 0.6287 0.9487 0.3507
C5_3 C 0.6337(3) 0.8741(4) 0.3145(3)
C6_3 C 0.7813(4) 0.9944(4) 0.3060(4)
H6_3 H 0.8039 0.9965 0.3343
H7_3 H 0.7658 0.9497 0.2927
C14_3 C 0.4625(3) 0.7324(3) 0.3740(2)
C15_3 C 0.3973(3) 0.7314(3) 0.3880(2)
H14_3 H 0.3976 0.7716 0.3761
H15_3 H 0.3956 0.7331 0.4207
C16_6 C 0.3333 0.6667 0.3709(3)
H16_6 H 0.3333 0.6667 0.3378
C17_3 C 0.5385(4) 0.9726(3) 0.4172(3)
H17_3 H 0.5834 0.9818 0.4146
C18_3 C 0.4878(4) 0.9070(3) 0.4284(3)
H18_3 H 0.4987 0.8728 0.4333
C19_3 C 0.4221(4) 0.8931(4) 0.4321(3)
H19_3 H 0.3875 0.8491 0.4395
C20_3 C 0.4066(4) 0.9448(4) 0.4250(3)
H20_3 H 0.3616 0.9359 0.4268
C37_3 C 0.6946(5) 0.7449(6) 0.3177(4)
H33_3 H 0.7111 0.7915 0.3215
C38_3 C 0.7414(6) 0.7211(7) 0.3157(4)
H34_3 H 0.7881 0.7511 0.3192
C39_3 C 0.7168(6) 0.6531(7) 0.3085(4)
H35_3 H 0.7474 0.6369 0.3057
C40_3 C 0.6476(5) 0.6079(6) 0.3055(3)
H36_3 H 0.6306 0.5612 0.3016
C41_3 C 0.6042(5) 0.6350(4) 0.3084(3)
C42_3 C 0.5298(5) 0.5927(4) 0.3026(3)
C43_3 C 0.4948(6) 0.5227(5) 0.2960(3)
H37_3 H 0.5181 0.4983 0.2970
C44_3 C 0.4241(6) 0.4885(4) 0.2877(3)
H38_3 H 0.3999 0.4413 0.2830
C45_3 C 0.3913(6) 0.5261(5) 0.2867(3)
H39_3 H 0.3445 0.5051 0.2810
C46_3 C 0.4301(4) 0.5969(4) 0.2944(3)
H40_3 H 0.4079 0.6223 0.2940
N5_3 N 0.6269(4) 0.7024(4) 0.3143(3)
N6_3 N 0.4970(4) 0.6291(3) 0.3020(2)
O3_3 O 0.6159(3) 0.8210(3) 0.3356(2)
O4_3 O 0.6251(4) 0.8748(4) 0.2730(3)
O11_3 O 0.4732(3) 0.7353(2) 0.33155(17)
O12_3 O 0.5009(3) 0.7287(3) 0.40252(19)
O13_3 O 0.5403(6) 0.7502(6) 0.2405(3)
C55_3 C 0.2676(3) 0.7302(4) 0.3740(2)
C56_3 C 0.2686(3) 0.6660(4) 0.3880(2)
H49_3 H 0.2284 0.6261 0.3761
H50_3 H 0.2669 0.6626 0.4207
O22_3 O 0.2647(2) 0.7380(4) 0.33155(17)
O23_3 O 0.2713(3) 0.7723(4) 0.40252(19)
C57_3 C 0.2698(4) 0.5375(3) 0.3740(2)
C58_3 C 0.3340(4) 0.6027(3) 0.3880(2)
H51_3 H 0.3739 0.6024 0.3761
H52_3 H 0.3374 0.6044 0.4207
O24_3 O 0.2620(4) 0.5268(3) 0.33155(17)
O25_3 O 0.2277(4) 0.4991(3) 0.40252(19)
Cu5_3 Cu 0.27178(4) 0.82514(6) 0.31619(4)
C62_3 C 0.0595(4) 0.7247(6) 0.3411(3)
H56_3 H 0.0649 0.7514 0.3680
H57_3 H 0.0513 0.6801 0.3507
C63_3 C 0.1259(4) 0.7597(5) 0.3145(3)
C64_3 C 0.0056(4) 0.7870(6) 0.3060(4)
H58_3 H 0.0035 0.8075 0.3343
H59_3 H 0.0503 0.8162 0.2927
C66_3 C 0.0274(3) 0.5660(5) 0.4172(3)
H60_3 H 0.0182 0.6017 0.4146
C67_3 C 0.0930(3) 0.5809(5) 0.4284(3)
H61_3 H 0.1272 0.6260 0.4333
C68_3 C 0.1069(4) 0.5291(6) 0.4321(3)
H62_3 H 0.1509 0.5385 0.4395
C69_3 C 0.0552(4) 0.4619(6) 0.4250(3)
H63_3 H 0.0641 0.4258 0.4268
C76_3 C 0.2551(6) 0.9498(8) 0.3177(4)
H68_3 H 0.2085 0.9197 0.3215
C80_3 C 0.3650(4) 0.9693(6) 0.3084(3)
C81_3 C 0.4073(4) 0.9372(6) 0.3026(3)
C82_3 C 0.4773(5) 0.9722(8) 0.2960(3)
C83_3 C 0.5115(4) 0.9357(7) 0.2877(3)
H73_3 H 0.5587 0.9587 0.2830
C84_3 C 0.4739(5) 0.8653(8) 0.2867(3)
H74_3 H 0.4949 0.8395 0.2810
C85_3 C 0.4031(4) 0.8333(6) 0.2944(3)
H75_3 H 0.3777 0.7857 0.2940
N9_3 N 0.2976(4) 0.9246(6) 0.3143(3)
N10_3 N 0.3709(3) 0.8680(5) 0.3020(2)
O28_3 O 0.1790(3) 0.7950(4) 0.3356(2)
O29_3 O 0.1252(4) 0.7504(6) 0.2730(3)
O32_3 O 0.2498(6) 0.7902(8) 0.2405(3)
Cu7_3 Cu 0.17486(6) 0.44665(5) 0.31619(4)
C86_3 C 0.4032(4) 0.3216(3) 0.3467(3)
C87_3 C 0.3309(6) 0.2618(4) 0.3405(4)
H76_3 H 0.3330 0.2256 0.3242
H77_3 H 0.3112 0.2440 0.3700
C88_3 C 0.2849(5) 0.2814(4) 0.3152(3)
H78_3 H 0.3063 0.3012 0.2862
C89_3 C 0.2753(6) 0.3349(4) 0.3411(3)
H79_3 H 0.2486 0.3136 0.3680
H80_3 H 0.3199 0.3713 0.3507
C90_3 C 0.2403(5) 0.3663(3) 0.3145(3)
C91_3 C 0.2130(6) 0.2187(4) 0.3060(4)
H81_3 H 0.1925 0.1961 0.3343
H82_3 H 0.1838 0.2342 0.2927
C92_3 C 0.2172(6) 0.1682(4) 0.2745(3)
C93_3 C 0.4340(5) 0.4615(4) 0.4172(3)
H83_3 H 0.3983 0.4166 0.4146
C94_3 C 0.4191(5) 0.5122(4) 0.4284(3)
H84_3 H 0.3740 0.5013 0.4333
C95_3 C 0.4709(6) 0.5779(4) 0.4321(3)
H85_3 H 0.4615 0.6125 0.4395
C96_3 C 0.5381(6) 0.5934(4) 0.4250(3)
H86_3 H 0.5742 0.6384 0.4268
C97_3 C 0.5502(4) 0.5399(3) 0.4150(2)
C98_3 C 0.6197(4) 0.5491(3) 0.4097(2)
C99_3 C 0.6777(6) 0.6087(4) 0.4186(3)
H87_3 H 0.6760 0.6470 0.4286
C100_3 C 0.7409(6) 0.6108(4) 0.4124(3)
H88_3 H 0.7818 0.6513 0.4176
C101_3 C 0.7418(6) 0.5535(4) 0.3988(3)
H89_3 H 0.7830 0.5538 0.3955
C102_3 C 0.6802(4) 0.4952(3) 0.3901(2)
H90_3 H 0.6804 0.4562 0.3801
C103_3 C 0.0502(8) 0.3054(5) 0.3177(4)
H91_3 H 0.0803 0.2889 0.3215
C107_3 C 0.0307(6) 0.3958(5) 0.3084(3)
C108_3 C 0.0628(6) 0.4702(5) 0.3026(3)
C109_3 C 0.0278(8) 0.5052(6) 0.2960(3)
C110_3 C 0.0643(7) 0.5759(6) 0.2877(3)
H96_3 H 0.0413 0.6001 0.2830
C111_3 C 0.1347(8) 0.6087(6) 0.2867(3)
H97_3 H 0.1605 0.6555 0.2810
C112_3 C 0.1667(6) 0.5699(4) 0.2944(3)
H98_3 H 0.2143 0.5921 0.2940
N11_3 N 0.4982(4) 0.4749(3) 0.40980(18)
N12_3 N 0.6202(4) 0.4925(3) 0.39546(17)
N13_3 N 0.0754(6) 0.3731(4) 0.3143(3)
N14_3 N 0.1320(5) 0.5030(4) 0.3020(2)
O33_3 O 0.4315(3) 0.3311(2) 0.38572(18)
O34_3 O 0.4324(4) 0.3583(3) 0.3145(2)
O35_3 O 0.2050(4) 0.3841(3) 0.3356(2)
O36_3 O 0.2496(6) 0.3749(4) 0.2730(3)
O39_3 O 0.2098(8) 0.4597(6) 0.2405(3)
C59_3 C 0.9183(3) 0.5968(4) 0.3467(3)
C60_3 C 0.9308(4) 0.6691(6) 0.3405(4)
H53_3 H 0.8925 0.6670 0.3242
H54_3 H 0.9327 0.6888 0.3700
C61_3 C 0.9964(3) 0.7151(5) 0.3152(3)
H55_3 H 0.9948 0.6937 0.2862
C65_3 C 0.9509(4) 0.7828(6) 0.2745(3)
C70_3 C 0.9896(3) 0.4498(4) 0.4150(2)
C71_3 C 0.9293(3) 0.3803(4) 0.4097(2)
C72_3 C 0.9309(4) 0.3223(6) 0.4186(3)
H64_3 H 0.9709 0.3240 0.4286
C73_3 C 0.8698(4) 0.2591(6) 0.4124(3)
H65_3 H 0.8694 0.2182 0.4176
C74_3 C 0.8116(4) 0.2582(6) 0.3988(3)
H66_3 H 0.7707 0.2170 0.3955
C75_3 C 0.8149(3) 0.3198(4) 0.3901(2)
H67_3 H 0.7757 0.3196 0.3801
N7_3 N 0.9766(2) 0.5018(4) 0.40980(18)
N8_3 N 0.8722(3) 0.3798(4) 0.39546(17)
O26_3 O 0.8995(2) 0.5685(3) 0.38572(18)
O27_3 O 0.9258(3) 0.5676(4) 0.3145(2)
C104_3 C 0.9796(9) 0.2586(6) 0.3157(4)
H92_3 H 0.9629 0.2119 0.3192
C105_3 C 0.9362(9) 0.2832(6) 0.3085(4)
H93_3 H 0.8894 0.2526 0.3057
C106_3 C 0.9602(8) 0.3524(5) 0.3055(3)
H94_3 H 0.9305 0.3694 0.3016
H95_3 H 0.9801 0.4819 0.2970
loop_
_geom_bond_atom_site_label_1
_geom_bond_atom_site_label_2
_geom_bond_site_symmetry_1
_geom_bond_site_symmetry_2
Cu1 N1 1_555 1_555
Cu2 N3 1_555 1_555
Cu3 N5 1_555 1_555
C1 C2 1_555 1_555
C2 H1 1_555 1_555
H2 C2 1_555 1_555
C3 C2 1_555 1_555
H3 C3 1_555 1_555
C4 C3 1_555 1_555
H4 C4 1_555 1_555
H5 C4 1_555 1_555
C5 C4 1_555 1_555
C6 C3 1_555 1_555
H6 C6 1_555 1_555
H7 C6 1_555 1_555
C7 C6 1_555 1_555
C8 C9 1_555 1_555
C9 H8 1_555 1_555
H9 C9 1_555 1_555
C10 C9 1_555 1_555
H10 C10 1_555 1_555
C11 C12 1_555 1_555
C12 H11 1_555 1_555
H12 C12 1_555 1_555
C13 C12 1_555 1_555
H13 C13 1_555 1_555
C14 C15 1_555 1_555
C15 H14 1_555 1_555
H15 C15 1_555 1_555
C16 C15 1_555 1_555
H16 C16 1_555 1_555
C17 H17 1_555 1_555
C18 C17 1_555 1_555
H18 C18 1_555 1_555
C19 C18 1_555 1_555
H19 C19 1_555 1_555
C20 C19 1_555 1_555
H20 C20 1_555 1_555
C21 C20 1_555 1_555
C22 C21 1_555 1_555
C23 C22 1_555 1_555
H21 C23 1_555 1_555
C24 C23 1_555 1_555
H22 C24 1_555 1_555
C25 C24 1_555 1_555
H23 C25 1_555 1_555
C26 C25 1_555 1_555
H24 C26 1_555 1_555
C27 H25 1_555 1_555
C28 C27 1_555 1_555
H26 C28 1_555 1_555
C29 C28 1_555 1_555
H27 C29 1_555 1_555
C30 C29 1_555 1_555
C31 C30 1_555 1_555
C32 C31 1_555 1_555
H31 C35 1_555 1_555
C36 C35 1_555 1_555
H32 C36 1_555 1_555
C37 H33 1_555 1_555
C38 C37 1_555 1_555
H34 C38 1_555 1_555
N1 C17 1_555 1_555
N2 Cu1 1_555 1_555
N3 C27 1_555 1_555
N4 Cu2 1_555 1_555
N5 C37 1_555 1_555
O1 Cu1 1_555 1_555
O2 C1 1_555 1_555
O3 Cu3 1_555 1_555
O4 C5 1_555 1_555
O5 C7 1_555 1_555
O6 C7 1_555 1_555
O7 Cu1 1_555 1_555
O8 C8 1_555 1_555
O9 Cu1 1_555 1_555
O10 Cu2 1_555 1_555
O11 Cu3 1_555 1_555
O12 C14 1_555 1_555
O13 Cu3 1_555 1_555
C47 C48 1_555 1_555
C48 C10 1_555 1_555
H41 C48 1_555 1_555
H42 C48 1_555 1_555
O14 C47 1_555 1_555
O15 C47 1_555 1_555
C49 C50 1_555 1_555
C50 C10 1_555 1_555
H43 C50 1_555 1_555
H44 C50 1_555 1_555
O16 C49 1_555 1_555
O17 C49 1_555 1_555
C51 C52 1_555 1_555
C52 C13 1_555 1_555
H45 C52 1_555 1_555
H46 C52 1_555 1_555
O18 C51 1_555 1_555
O19 C51 1_555 1_555
C53 C54 1_555 1_555
C54 C13 1_555 1_555
H47 C54 1_555 1_555
H48 C54 1_555 1_555
O20 C53 1_555 1_555
O21 C53 1_555 1_555
H70 C78 1_555 1_555
C79 C78 1_555 1_555
H71 C79 1_555 1_555
C80 C79 1_555 1_555
C81 C80 1_555 1_555
C82 C81 1_555 1_555
H72 C82 1_555 1_555
C83 C82 1_555 1_555
H73 C83 1_555 1_555
C84 C83 1_555 1_555
H74 C84 1_555 1_555
C85 C84 1_555 1_555
H75 C85 1_555 1_555
Cu8 O5 1_555 1_555
C113 H99 1_555 1_555
C114 C113 1_555 1_555
H100 C114 1_555 1_555
C115 C114 1_555 1_555
H101 C115 1_555 1_555
C116 C115 1_555 1_555
H102 C116 1_555 1_555
C117 C116 1_555 1_555
C118 C117 1_555 1_555
C119 C118 1_555 1_555
H103 C119 1_555 1_555
C120 C119 1_555 1_555
H104 C120 1_555 1_555
C121 C120 1_555 1_555
H105 C121 1_555 1_555
C122 C121 1_555 1_555
H106 C122 1_555 1_555
N15 Cu8 1_555 1_555
N16 Cu8 1_555 1_555
Cu9 O18 1_555 1_555
C123 H107 1_555 1_555
C124 C123 1_555 1_555
H108 C124 1_555 1_555
C125 C124 1_555 1_555
H109 C125 1_555 1_555
C126 C125 1_555 1_555
H110 C126 1_555 1_555
C127 C126 1_555 1_555
C128 C127 1_555 1_555
C129 C128 1_555 1_555
H111 C129 1_555 1_555
C130 C129 1_555 1_555
H112 C130 1_555 1_555
C131 C130 1_555 1_555
H113 C131 1_555 1_555
C132 C131 1_555 1_555
H114 C132 1_555 1_555
N17 Cu9 1_555 1_555
N18 Cu9 1_555 1_555
Cu10 O14 1_555 1_555
Cu11 O16 1_555 1_555
Cu12 O20 1_555 1_555
O40 Cu2 1_555 1_555
O41 Cu9 1_555 1_555
O42 Cu2 1_555 1_555
O43 Cu9 1_555 1_555
O48 Cu8 1_555 1_555
O49 Cu8 1_555 1_555
Cu2 O9 1_555 1_555
C1 O1 1_555 1_555
C5 O3 1_555 1_555
C8 O7 1_555 1_555
C11 O9 1_555 1_555
C11 O10 1_555 1_555
C14 O11 1_555 1_555
C21 N1 1_555 1_555
C22 N2 1_555 1_555
C26 N2 1_555 1_555
C31 N3 1_555 1_555
C32 N4 1_555 1_555
C36 N4 1_555 1_555
O6 Cu8 1_555 1_555
O18 Cu10 1_555 1_555
O19 Cu9 1_555 1_555
O20 Cu11 1_555 1_555
O21 Cu12 1_555 1_555
C81 N10 1_555 1_555
C85 N10 1_555 1_555
C113 N15 1_555 1_555
C117 N15 1_555 1_555
C118 N16 1_555 1_555
C122 N16 1_555 1_555
C123 N17 1_555 1_555
C127 N17 1_555 1_555
C128 N18 1_555 1_555
C132 N18 1_555 1_555
H16_2 C16_2 1_555 1_555
H35 C39 1_555 1_555
C40 C39 1_555 1_555
H36 C40 1_555 1_555
C41 C40 1_555 1_555
C42 C41 1_555 1_555
C43 C42 1_555 1_555
H37 C43 1_555 1_555
C44 C43 1_555 1_555
H38 C44 1_555 1_555
C45 C44 1_555 1_555
H39 C45 1_555 1_555
C46 C45 1_555 1_555
H40 C46 1_555 1_555
C58 C16_2 1_555 1_555
H51 C58 1_555 1_555
H52 C58 1_555 1_555
Cu11 N11 1_555 1_555
C93 H83 1_555 1_555
C94 C93 1_555 1_555
H84 C94 1_555 1_555
C95 C94 1_555 1_555
H85 C95 1_555 1_555
C96 C95 1_555 1_555
H86 C96 1_555 1_555
C97 C96 1_555 1_555
C98 C97 1_555 1_555
C99 C98 1_555 1_555
H87 C99 1_555 1_555
C100 C99 1_555 1_555
H88 C100 1_555 1_555
C101 C100 1_555 1_555
H89 C101 1_555 1_555
C102 C101 1_555 1_555
H90 C102 1_555 1_555
N11 C93 1_555 1_555
N12 Cu11 1_555 1_555
O33 Cu11 1_555 1_555
O34 C86 1_555 1_555
C42 N6 1_555 1_555
C46 N6 1_555 1_555
C86 O33 1_555 1_555
C97 N11 1_555 1_555
C98 N12 1_555 1_555
C102 N12 1_555 1_555
H16_3 C16_3 1_555 1_555
H29 C33 1_555 1_555
C34 C33 1_555 1_555
H30 C34 1_555 1_555
O22 C55 1_555 1_555
O23 C55 1_555 1_555
Cu5 O22 1_555 1_555
C60 H53 1_555 1_555
H54 C60 1_555 1_555
C61 C60 1_555 1_555
H55 C61 1_555 1_555
C62 C61 1_555 1_555
H56 C62 1_555 1_555
H57 C62 1_555 1_555
C63 C62 1_555 1_555
C64 C61 1_555 1_555
H58 C64 1_555 1_555
H59 C64 1_555 1_555
C65 C64 1_555 1_555
C76 H68 1_555 1_555
C77 C76 1_555 1_555
H69 C77 1_555 1_555
N9 Cu5 1_555 1_555
O28 Cu5 1_555 1_555
O29 C63 1_555 1_555
O30 C65 1_555 1_555
O31 C65 1_555 1_555
O32 Cu5 1_555 1_555
Cu13 O30 1_555 1_555
C63 O28 1_555 1_555
C76 N9 1_555 1_555
O31 Cu13 1_555 1_555
H16_4 C16_4 1_555 1_555
C56 C16_4 1_555 1_555
H49 C56 1_555 1_555
H50 C56 1_555 1_555
O24 C57 1_555 1_555
O25 C57 1_555 1_555
Cu10 N7 1_555 1_555
C66 H60 1_555 1_555
C67 C66 1_555 1_555
H61 C67 1_555 1_555
C68 C67 1_555 1_555
H62 C68 1_555 1_555
C69 C68 1_555 1_555
H63 C69 1_555 1_555
C70 C69 1_555 1_555
C71 C70 1_555 1_555
C72 C71 1_555 1_555
H64 C72 1_555 1_555
C73 C72 1_555 1_555
H65 C73 1_555 1_555
C74 C73 1_555 1_555
H66 C74 1_555 1_555
C75 C74 1_555 1_555
H67 C75 1_555 1_555
N7 C66 1_555 1_555
N8 Cu10 1_555 1_555
O26 Cu10 1_555 1_555
O27 C59 1_555 1_555
Cu7 O24 1_555 1_555
C87 H76 1_555 1_555
H77 C87 1_555 1_555
C88 C87 1_555 1_555
H78 C88 1_555 1_555
C89 C88 1_555 1_555
H79 C89 1_555 1_555
H80 C89 1_555 1_555
C90 C89 1_555 1_555
C91 C88 1_555 1_555
H81 C91 1_555 1_555
H82 C91 1_555 1_555
C92 C91 1_555 1_555
C103 H91 1_555 1_555
C104 C103 1_555 1_555
H92 C104 1_555 1_555
C105 C104 1_555 1_555
H93 C105 1_555 1_555
C106 C105 1_555 1_555
H94 C106 1_555 1_555
C107 C106 1_555 1_555
C108 C107 1_555 1_555
C109 C108 1_555 1_555
H95 C109 1_555 1_555
C110 C109 1_555 1_555
H96 C110 1_555 1_555
C111 C110 1_555 1_555
H97 C111 1_555 1_555
C112 C111 1_555 1_555
H98 C112 1_555 1_555
N13 Cu7 1_555 1_555
N14 Cu7 1_555 1_555
O35 Cu7 1_555 1_555
O36 C90 1_555 1_555
O37 C92 1_555 1_555
O38 C92 1_555 1_555
O39 Cu7 1_555 1_555
Cu14 O37 1_555 1_555
C59 O26 1_555 1_555
C70 N7 1_555 1_555
C71 N8 1_555 1_555
C75 N8 1_555 1_555
C90 O35 1_555 1_555
C103 N13 1_555 1_555
C107 N13 1_555 1_555
C108 N14 1_555 1_555
C112 N14 1_555 1_555
O38 Cu14 1_555 1_555
C119_2 C118_2 1_555 1_555
C120_2 C119_2 1_555 1_555
H104_2 C120_2 1_555 1_555
C121_2 C120_2 1_555 1_555
H105_2 C121_2 1_555 1_555
C122_2 C121_2 1_555 1_555
H106_2 C122_2 1_555 1_555
N15_2 Cu13 1_555 1_555
N16_2 Cu13 1_555 1_555
H111_2 C129_2 1_555 1_555
C130_2 C129_2 1_555 1_555
H112_2 C130_2 1_555 1_555
O48_2 Cu13 1_555 1_555
O49_2 Cu13 1_555 1_555
C118_2 N16_2 1_555 1_555
C122_2 N16_2 1_555 1_555
C113_2 H99_2 1_555 1_555
C114_2 C113_2 1_555 1_555
H100_2 C114_2 1_555 1_555
C115_2 C114_2 1_555 1_555
H101_2 C115_2 1_555 1_555
C116_2 C115_2 1_555 1_555
H102_2 C116_2 1_555 1_555
C117_2 C116_2 1_555 1_555
C123_2 H107_2 1_555 1_555
C124_2 C123_2 1_555 1_555
H108_2 C124_2 1_555 1_555
C125_2 C124_2 1_555 1_555
H109_2 C125_2 1_555 1_555
C126_2 C125_2 1_555 1_555
C127_2 C126_2 1_555 1_555
C128_2 C127_2 1_555 1_555
H113_2 C131_2 1_555 1_555
C132_2 C131_2 1_555 1_555
H114_2 C132_2 1_555 1_555
N17_2 Cu12 1_555 1_555
N18_2 Cu12 1_555 1_555
O41_2 Cu12 1_555 1_555
O43_2 Cu12 1_555 1_555
C123_2 N17_2 1_555 1_555
C127_2 N17_2 1_555 1_555
C128_2 N18_2 1_555 1_555
C132_2 N18_2 1_555 1_555
C113_3 H99_3 1_555 1_555
C114_3 C113_3 1_555 1_555
H100_3 C114_3 1_555 1_555
C115_3 C114_3 1_555 1_555
H101_3 C115_3 1_555 1_555
C116_3 C115_3 1_555 1_555
H102_3 C116_3 1_555 1_555
C117_3 C116_3 1_555 1_555
C119_3 C118_3 1_555 1_555
C120_3 C119_3 1_555 1_555
H104_3 C120_3 1_555 1_555
C121_3 C120_3 1_555 1_555
H105_3 C121_3 1_555 1_555
C122_3 C121_3 1_555 1_555
H106_3 C122_3 1_555 1_555
N15_3 Cu14 1_555 1_555
N16_3 Cu14 1_555 1_555
O48_3 Cu14 1_555 1_555
O49_3 Cu14 1_555 1_555
C118_3 N16_3 1_555 1_555
C122_3 N16_3 1_555 1_555
H13_2 C13_2 1_555 1_555
C51_2 C52_2 1_555 1_555
C52_2 C13_2 1_555 1_555
H45_2 C52_2 1_555 1_555
H46_2 C52_2 1_555 1_555
O18_2 C51_2 1_555 1_555
O19_2 C51_2 1_555 1_555
Cu9_2 O18_2 1_555 1_555
C123_3 H107_3 1_555 1_555
C124_3 C123_3 1_555 1_555
H108_3 C124_3 1_555 1_555
C125_3 C124_3 1_555 1_555
H109_3 C125_3 1_555 1_555
C126_3 C125_3 1_555 1_555
H110_3 C126_3 1_555 1_555
C127_3 C126_3 1_555 1_555
C128_3 C127_3 1_555 1_555
N17_3 Cu9_2 1_555 1_555
N18_3 Cu9_2 1_555 1_555
Cu10_2 O14_2 1_555 1_555
O41_3 Cu9_2 1_555 1_555
O43_3 Cu9_2 1_555 1_555
O18_2 Cu10_2 1_555 1_555
O19_2 Cu9_2 1_555 1_555
C123_3 N17_3 1_555 1_555
C127_3 N17_3 1_555 1_555
C128_3 N18_3 1_555 1_555
C47_2 C48_2 1_555 1_555
C48_2 C10_2 1_555 1_555
H41_2 C48_2 1_555 1_555
H42_2 C48_2 1_555 1_555
O15_2 C47_2 1_555 1_555
C1_2 C2_2 1_555 1_555
H2_2 C2_2 1_555 1_555
H12_2 C12_2 1_555 1_555
C13_3 C12_2 1_555 1_555
H13_3 C13_3 1_555 1_555
H87_2 C99_2 1_555 1_555
C100_2 C99_2 1_555 1_555
H88_2 C100_2 1_555 1_555
C101_2 C100_2 1_555 1_555
H89_2 C101_2 1_555 1_555
C102_2 C101_2 1_555 1_555
H90_2 C102_2 1_555 1_555
H111_3 C129_3 1_555 1_555
C130_3 C129_3 1_555 1_555
H112_3 C130_3 1_555 1_555
C131_3 C130_3 1_555 1_555
H113_3 C131_3 1_555 1_555
C132_3 C131_3 1_555 1_555
H114_3 C132_3 1_555 1_555
C1_2 O1_2 1_555 1_555
H3_2 C3_2 1_555 1_555
C6_2 C3_2 1_555 1_555
H7_2 C6_2 1_555 1_555
C7_2 C6_2 1_555 1_555
H9_2 C9_2 1_555 1_555
C10_3 C9_2 1_555 1_555
C37_2 H33_2 1_555 1_555
C38_2 C37_2 1_555 1_555
H34_2 C38_2 1_555 1_555
C39_2 C38_2 1_555 1_555
H35_2 C39_2 1_555 1_555
O41_2 C7_2 1_555 1_555
O43_2 C7_2 1_555 1_555
H13_4 C13_4 1_555 1_555
O20_2 C53_2 1_555 1_555
O21_2 C53_2 1_555 1_555
Cu11_2 O16_2 1_555 1_555
Cu12_2 O20_2 1_555 1_555
O20_2 Cu11_2 1_555 1_555
O21_2 Cu12_2 1_555 1_555
O17_2 C49_2 1_555 1_555
Cu1_2 N1_2 1_555 1_555
Cu2_2 N3_2 1_555 1_555
H5_2 C4_2 1_555 1_555
H13_5 C13_5 1_555 1_555
C14_2 C15_2 1_555 1_555
C15_2 H14_2 1_555 1_555
H15_2 C15_2 1_555 1_555
C16_5 C15_2 1_555 1_555
H16_5 C16_5 1_555 1_555
C17_2 H17_2 1_555 1_555
C18_2 C17_2 1_555 1_555
H18_2 C18_2 1_555 1_555
C19_2 C18_2 1_555 1_555
H19_2 C19_2 1_555 1_555
C20_2 C19_2 1_555 1_555
H20_2 C20_2 1_555 1_555
C21_2 C20_2 1_555 1_555
C22_2 C21_2 1_555 1_555
C23_2 C22_2 1_555 1_555
H21_2 C23_2 1_555 1_555
C24_2 C23_2 1_555 1_555
H22_2 C24_2 1_555 1_555
C25_2 C24_2 1_555 1_555
H23_2 C25_2 1_555 1_555
C26_2 C25_2 1_555 1_555
H24_2 C26_2 1_555 1_555
C27_2 H25_2 1_555 1_555
C28_2 C27_2 1_555 1_555
H26_2 C28_2 1_555 1_555
C29_2 C28_2 1_555 1_555
H27_2 C29_2 1_555 1_555
C30_2 C29_2 1_555 1_555
H28_2 C30_2 1_555 1_555
C31_2 C30_2 1_555 1_555
C32_2 C31_2 1_555 1_555
C33_2 C32_2 1_555 1_555
H29_2 C33_2 1_555 1_555
C34_2 C33_2 1_555 1_555
H30_2 C34_2 1_555 1_555
C35_2 C34_2 1_555 1_555
H31_2 C35_2 1_555 1_555
C36_2 C35_2 1_555 1_555
H32_2 C36_2 1_555 1_555
N1_2 C17_2 1_555 1_555
N2_2 Cu1_2 1_555 1_555
N3_2 C27_2 1_555 1_555
N4_2 Cu2_2 1_555 1_555
O7_2 Cu1_2 1_555 1_555
O9_2 Cu1_2 1_555 1_555
O10_2 Cu2_2 1_555 1_555
O12_2 C14_2 1_555 1_555
C54_2 C13_5 1_555 1_555
H48_2 C54_2 1_555 1_555
C55_2 C56_2 1_555 1_555
C56_2 C16_5 1_555 1_555
H49_2 C56_2 1_555 1_555
H50_2 C56_2 1_555 1_555
O23_2 C55_2 1_555 1_555
C57_2 C58_2 1_555 1_555
C58_2 C16_5 1_555 1_555
H51_2 C58_2 1_555 1_555
H52_2 C58_2 1_555 1_555
O25_2 C57_2 1_555 1_555
Cu10_2 N7_2 1_555 1_555
C59_2 C60_2 1_555 1_555
H54_2 C60_2 1_555 1_555
H56_2 C62_2 1_555 1_555
H57_2 C62_2 1_555 1_555
C66_2 H60_2 1_555 1_555
C67_2 C66_2 1_555 1_555
H61_2 C67_2 1_555 1_555
C68_2 C67_2 1_555 1_555
H62_2 C68_2 1_555 1_555
C69_2 C68_2 1_555 1_555
H63_2 C69_2 1_555 1_555
C70_2 C69_2 1_555 1_555
C71_2 C70_2 1_555 1_555
N7_2 C66_2 1_555 1_555
N8_2 Cu10_2 1_555 1_555
O26_2 Cu10_2 1_555 1_555
Cu11_2 N11_2 1_555 1_555
H80_2 C89_2 1_555 1_555
C93_2 H83_2 1_555 1_555
C94_2 C93_2 1_555 1_555
H84_2 C94_2 1_555 1_555
C95_2 C94_2 1_555 1_555
H85_2 C95_2 1_555 1_555
C96_2 C95_2 1_555 1_555
H86_2 C96_2 1_555 1_555
C97_2 C96_2 1_555 1_555
C98_2 C97_2 1_555 1_555
N11_2 C93_2 1_555 1_555
N12_2 Cu11_2 1_555 1_555
O40_2 Cu2_2 1_555 1_555
O42_2 Cu2_2 1_555 1_555
Cu2_2 O9_2 1_555 1_555
C11_2 O9_2 1_555 1_555
C11_2 O10_2 1_555 1_555
C21_2 N1_2 1_555 1_555
C22_2 N2_2 1_555 1_555
C26_2 N2_2 1_555 1_555
C31_2 N3_2 1_555 1_555
C32_2 N4_2 1_555 1_555
C36_2 N4_2 1_555 1_555
C59_2 O26_2 1_555 1_555
C70_2 N7_2 1_555 1_555
C71_2 N8_2 1_555 1_555
C97_2 N11_2 1_555 1_555
C98_2 N12_2 1_555 1_555
Cu3_2 N5_2 1_555 1_555
H36_2 C40_2 1_555 1_555
C41_2 C40_2 1_555 1_555
C42_2 C41_2 1_555 1_555
C43_2 C42_2 1_555 1_555
H37_2 C43_2 1_555 1_555
C44_2 C43_2 1_555 1_555
H38_2 C44_2 1_555 1_555
C45_2 C44_2 1_555 1_555
H39_2 C45_2 1_555 1_555
C46_2 C45_2 1_555 1_555
H40_2 C46_2 1_555 1_555
N6_2 Cu3_2 1_555 1_555
O4_2 C5_2 1_555 1_555
O8_2 C8_2 1_555 1_555
O11_2 Cu3_2 1_555 1_555
O13_2 Cu3_2 1_555 1_555
C50_2 C10_5 1_555 1_555
H44_2 C50_2 1_555 1_555
Cu5_2 O22_2 1_555 1_555
H55_2 C61_2 1_555 1_555
C64_2 C61_2 1_555 1_555
H59_2 C64_2 1_555 1_555
C65_2 C64_2 1_555 1_555
C76_2 H68_2 1_555 1_555
C77_2 C76_2 1_555 1_555
H69_2 C77_2 1_555 1_555
C78_2 C77_2 1_555 1_555
H70_2 C78_2 1_555 1_555
C79_2 C78_2 1_555 1_555
H71_2 C79_2 1_555 1_555
C80_2 C79_2 1_555 1_555
C81_2 C80_2 1_555 1_555
C82_2 C81_2 1_555 1_555
H72_2 C82_2 1_555 1_555
C83_2 C82_2 1_555 1_555
H73_2 C83_2 1_555 1_555
C84_2 C83_2 1_555 1_555
H74_2 C84_2 1_555 1_555
C85_2 C84_2 1_555 1_555
H75_2 C85_2 1_555 1_555
N9_2 Cu5_2 1_555 1_555
N10_2 Cu5_2 1_555 1_555
O29_2 C63_2 1_555 1_555
O40 C65_2 1_555 1_555
O42 C65_2 1_555 1_555
O32_2 Cu5_2 1_555 1_555
Cu7_2 O24_2 1_555 1_555
H94_2 C106_2 1_555 1_555
C107_2 C106_2 1_555 1_555
C108_2 C107_2 1_555 1_555
C109_2 C108_2 1_555 1_555
H95_2 C109_2 1_555 1_555
C110_2 C109_2 1_555 1_555
H96_2 C110_2 1_555 1_555
C111_2 C110_2 1_555 1_555
H97_2 C111_2 1_555 1_555
C112_2 C111_2 1_555 1_555
H98_2 C112_2 1_555 1_555
N13_2 Cu7_2 1_555 1_555
N14_2 Cu7_2 1_555 1_555
O36_2 C90_2 1_555 1_555
O39_2 Cu7_2 1_555 1_555
C41_2 N5_2 1_555 1_555
C42_2 N6_2 1_555 1_555
C46_2 N6_2 1_555 1_555
C76_2 N9_2 1_555 1_555
C80_2 N9_2 1_555 1_555
C81_2 N10_2 1_555 1_555
C85_2 N10_2 1_555 1_555
C107_2 N13_2 1_555 1_555
C108_2 N14_2 1_555 1_555
C112_2 N14_2 1_555 1_555
H64_2 C72_2 1_555 1_555
C73_2 C72_2 1_555 1_555
H65_2 C73_2 1_555 1_555
C74_2 C73_2 1_555 1_555
H66_2 C74_2 1_555 1_555
C75_2 C74_2 1_555 1_555
H67_2 C75_2 1_555 1_555
C86_2 C87_2 1_555 1_555
H77_2 C87_2 1_555 1_555
C86_2 O33_2 1_555 1_555
H78_2 C88_2 1_555 1_555
C91_2 C88_2 1_555 1_555
H82_2 C91_2 1_555 1_555
C92_2 C91_2 1_555 1_555
C103_2 H91_2 1_555 1_555
C104_2 C103_2 1_555 1_555
H92_2 C104_2 1_555 1_555
C105_2 C104_2 1_555 1_555
H93_2 C105_2 1_555 1_555
O41 C92_2 1_555 1_555
O43 C92_2 1_555 1_555
H111_4 C129_4 1_555 1_555
C130_4 C129_4 1_555 1_555
H112_4 C130_4 1_555 1_555
C131_4 C130_4 1_555 1_555
H113_4 C131_4 1_555 1_555
C132_4 C131_4 1_555 1_555
H114_4 C132_4 1_555 1_555
C123_4 H107_4 1_555 1_555
C124_4 C123_4 1_555 1_555
H108_4 C124_4 1_555 1_555
C125_4 C124_4 1_555 1_555
H109_4 C125_4 1_555 1_555
C126_4 C125_4 1_555 1_555
H110_4 C126_4 1_555 1_555
C127_4 C126_4 1_555 1_555
C128_4 C127_4 1_555 1_555
N17_4 Cu12_2 1_555 1_555
N18_4 Cu12_2 1_555 1_555
O41_4 Cu12_2 1_555 1_555
O43_4 Cu12_2 1_555 1_555
C123_4 N17_4 1_555 1_555
C127_4 N17_4 1_555 1_555
C128_4 N18_4 1_555 1_555
Cu1_3 N1_3 1_555 1_555
C1_3 C2_3 1_555 1_555
C2_3 H1_3 1_555 1_555
H2_3 C2_3 1_555 1_555
C3_3 C2_3 1_555 1_555
H3_3 C3_3 1_555 1_555
C8_3 C9_3 1_555 1_555
C9_3 H8_3 1_555 1_555
H9_3 C9_3 1_555 1_555
C10_6 C9_3 1_555 1_555
H10_6 C10_6 1_555 1_555
C11_3 C12_3 1_555 1_555
C12_3 H11_3 1_555 1_555
H12_3 C12_3 1_555 1_555
C13_6 C12_3 1_555 1_555
H13_6 C13_6 1_555 1_555
C22_3 C21_3 1_555 1_555
C23_3 C22_3 1_555 1_555
H21_3 C23_3 1_555 1_555
C24_3 C23_3 1_555 1_555
H22_3 C24_3 1_555 1_555
C25_3 C24_3 1_555 1_555
H23_3 C25_3 1_555 1_555
C26_3 C25_3 1_555 1_555
H24_3 C26_3 1_555 1_555
N2_3 Cu1_3 1_555 1_555
O1_3 Cu1_3 1_555 1_555
O2_3 C1_3 1_555 1_555
O41_4 C7_3 1_555 1_555
O43_4 C7_3 1_555 1_555
O7_3 Cu1_3 1_555 1_555
O8_3 C8_3 1_555 1_555
O48_2 Cu1_3 1_555 1_555
C47_3 C48_3 1_555 1_555
C48_3 C10_6 1_555 1_555
H41_3 C48_3 1_555 1_555
H42_3 C48_3 1_555 1_555
O14_3 C47_3 1_555 1_555
O15_3 C47_3 1_555 1_555
C49_3 C50_3 1_555 1_555
C50_3 C10_6 1_555 1_555
H43_3 C50_3 1_555 1_555
H44_3 C50_3 1_555 1_555
O16_3 C49_3 1_555 1_555
O17_3 C49_3 1_555 1_555
C51_3 C52_3 1_555 1_555
C52_3 C13_6 1_555 1_555
H45_3 C52_3 1_555 1_555
H46_3 C52_3 1_555 1_555
O48_3 C51_3 1_555 1_555
O49_3 C51_3 1_555 1_555
C53_3 C54_3 1_555 1_555
C54_3 C13_6 1_555 1_555
H47_3 C54_3 1_555 1_555
H48_3 C54_3 1_555 1_555
O48 C53_3 1_555 1_555
O49 C53_3 1_555 1_555
H69_3 C77_3 1_555 1_555
C78_3 C77_3 1_555 1_555
H70_3 C78_3 1_555 1_555
C79_3 C78_3 1_555 1_555
H71_3 C79_3 1_555 1_555
Cu10_3 O14_3 1_555 1_555
Cu11_3 O16_3 1_555 1_555
C1_3 O1_3 1_555 1_555
C8_3 O7_3 1_555 1_555
C11_3 O48_2 1_555 1_555
C11_3 O49_2 1_555 1_555
C21_3 N1_3 1_555 1_555
C22_3 N2_3 1_555 1_555
C26_3 N2_3 1_555 1_555
O48_3 Cu10_3 1_555 1_555
O48 Cu11_3 1_555 1_555
Cu3_3 N5_3 1_555 1_555
H4_3 C4_3 1_555 1_555
H5_3 C4_3 1_555 1_555
C5_3 C4_3 1_555 1_555
H6_3 C6_3 1_555 1_555
H7_3 C6_3 1_555 1_555
C14_3 C15_3 1_555 1_555
C15_3 H14_3 1_555 1_555
H15_3 C15_3 1_555 1_555
C16_6 C15_3 1_555 1_555
H16_6 C16_6 1_555 1_555
C17_3 H17_3 1_555 1_555
C18_3 C17_3 1_555 1_555
H18_3 C18_3 1_555 1_555
C19_3 C18_3 1_555 1_555
H19_3 C19_3 1_555 1_555
C20_3 C19_3 1_555 1_555
H20_3 C20_3 1_555 1_555
C37_3 H33_3 1_555 1_555
C38_3 C37_3 1_555 1_555
H34_3 C38_3 1_555 1_555
C39_3 C38_3 1_555 1_555
H35_3 C39_3 1_555 1_555
C40_3 C39_3 1_555 1_555
H36_3 C40_3 1_555 1_555
C41_3 C40_3 1_555 1_555
C42_3 C41_3 1_555 1_555
C43_3 C42_3 1_555 1_555
H37_3 C43_3 1_555 1_555
C44_3 C43_3 1_555 1_555
H38_3 C44_3 1_555 1_555
C45_3 C44_3 1_555 1_555
H39_3 C45_3 1_555 1_555
C46_3 C45_3 1_555 1_555
H40_3 C46_3 1_555 1_555
N5_3 C37_3 1_555 1_555
N6_3 Cu3_3 1_555 1_555
O3_3 Cu3_3 1_555 1_555
O4_3 C5_3 1_555 1_555
O11_3 Cu3_3 1_555 1_555
O12_3 C14_3 1_555 1_555
O13_3 Cu3_3 1_555 1_555
C55_3 C56_3 1_555 1_555
C56_3 C16_6 1_555 1_555
H49_3 C56_3 1_555 1_555
H50_3 C56_3 1_555 1_555
O22_3 C55_3 1_555 1_555
O23_3 C55_3 1_555 1_555
C57_3 C58_3 1_555 1_555
C58_3 C16_6 1_555 1_555
H51_3 C58_3 1_555 1_555
H52_3 C58_3 1_555 1_555
O24_3 C57_3 1_555 1_555
O25_3 C57_3 1_555 1_555
Cu5_3 O22_3 1_555 1_555
H56_3 C62_3 1_555 1_555
H57_3 C62_3 1_555 1_555
C63_3 C62_3 1_555 1_555
H58_3 C64_3 1_555 1_555
H59_3 C64_3 1_555 1_555
C66_3 H60_3 1_555 1_555
C67_3 C66_3 1_555 1_555
H61_3 C67_3 1_555 1_555
C68_3 C67_3 1_555 1_555
H62_3 C68_3 1_555 1_555
C69_3 C68_3 1_555 1_555
H63_3 C69_3 1_555 1_555
C76_3 H68_3 1_555 1_555
C81_3 C80_3 1_555 1_555
C82_3 C81_3 1_555 1_555
C83_3 C82_3 1_555 1_555
H73_3 C83_3 1_555 1_555
C84_3 C83_3 1_555 1_555
H74_3 C84_3 1_555 1_555
C85_3 C84_3 1_555 1_555
H75_3 C85_3 1_555 1_555
N9_3 Cu5_3 1_555 1_555
N10_3 Cu5_3 1_555 1_555
O28_3 Cu5_3 1_555 1_555
O29_3 C63_3 1_555 1_555
O32_3 Cu5_3 1_555 1_555
Cu11_3 N11_3 1_555 1_555
Cu7_3 O24_3 1_555 1_555
C86_3 C87_3 1_555 1_555
C87_3 H76_3 1_555 1_555
H77_3 C87_3 1_555 1_555
C88_3 C87_3 1_555 1_555
H78_3 C88_3 1_555 1_555
C89_3 C88_3 1_555 1_555
H79_3 C89_3 1_555 1_555
H80_3 C89_3 1_555 1_555
C90_3 C89_3 1_555 1_555
C91_3 C88_3 1_555 1_555
H81_3 C91_3 1_555 1_555
H82_3 C91_3 1_555 1_555
C92_3 C91_3 1_555 1_555
C93_3 H83_3 1_555 1_555
C94_3 C93_3 1_555 1_555
H84_3 C94_3 1_555 1_555
C95_3 C94_3 1_555 1_555
H85_3 C95_3 1_555 1_555
C96_3 C95_3 1_555 1_555
H86_3 C96_3 1_555 1_555
C97_3 C96_3 1_555 1_555
C98_3 C97_3 1_555 1_555
C99_3 C98_3 1_555 1_555
H87_3 C99_3 1_555 1_555
C100_3 C99_3 1_555 1_555
H88_3 C100_3 1_555 1_555
C101_3 C100_3 1_555 1_555
H89_3 C101_3 1_555 1_555
C102_3 C101_3 1_555 1_555
H90_3 C102_3 1_555 1_555
C103_3 H91_3 1_555 1_555
C108_3 C107_3 1_555 1_555
C109_3 C108_3 1_555 1_555
C110_3 C109_3 1_555 1_555
H96_3 C110_3 1_555 1_555
C111_3 C110_3 1_555 1_555
H97_3 C111_3 1_555 1_555
C112_3 C111_3 1_555 1_555
H98_3 C112_3 1_555 1_555
N11_3 C93_3 1_555 1_555
N12_3 Cu11_3 1_555 1_555
N13_3 Cu7_3 1_555 1_555
N14_3 Cu7_3 1_555 1_555
O33_3 Cu11_3 1_555 1_555
O34_3 C86_3 1_555 1_555
O35_3 Cu7_3 1_555 1_555
O36_3 C90_3 1_555 1_555
O41_3 C92_3 1_555 1_555
O43_3 C92_3 1_555 1_555
O39_3 Cu7_3 1_555 1_555
C5_3 O3_3 1_555 1_555
C14_3 O11_3 1_555 1_555
C41_3 N5_3 1_555 1_555
C42_3 N6_3 1_555 1_555
C46_3 N6_3 1_555 1_555
C63_3 O28_3 1_555 1_555
C76_3 N9_3 1_555 1_555
C80_3 N9_3 1_555 1_555
C81_3 N10_3 1_555 1_555
C85_3 N10_3 1_555 1_555
C86_3 O33_3 1_555 1_555
C90_3 O35_3 1_555 1_555
C97_3 N11_3 1_555 1_555
C98_3 N12_3 1_555 1_555
C102_3 N12_3 1_555 1_555
C103_3 N13_3 1_555 1_555
C107_3 N13_3 1_555 1_555
C108_3 N14_3 1_555 1_555
C112_3 N14_3 1_555 1_555
Cu10_3 N7_3 1_555 1_555
C59_3 C60_3 1_555 1_555
C60_3 H53_3 1_555 1_555
H54_3 C60_3 1_555 1_555
C61_3 C60_3 1_555 1_555
H55_3 C61_3 1_555 1_555
C71_3 C70_3 1_555 1_555
C72_3 C71_3 1_555 1_555
H64_3 C72_3 1_555 1_555
C73_3 C72_3 1_555 1_555
H65_3 C73_3 1_555 1_555
C74_3 C73_3 1_555 1_555
H66_3 C74_3 1_555 1_555
C75_3 C74_3 1_555 1_555
H67_3 C75_3 1_555 1_555
N8_3 Cu10_3 1_555 1_555
O26_3 Cu10_3 1_555 1_555
O27_3 C59_3 1_555 1_555
O40_2 C65_3 1_555 1_555
O42_2 C65_3 1_555 1_555
H92_3 C104_3 1_555 1_555
C105_3 C104_3 1_555 1_555
H93_3 C105_3 1_555 1_555
C106_3 C105_3 1_555 1_555
H94_3 C106_3 1_555 1_555
C59_3 O26_3 1_555 1_555
C70_3 N7_3 1_555 1_555
C71_3 N8_3 1_555 1_555
C75_3 N8_3 1_555 1_555

#END
