
###############################################################################
#
# This file contains modified crystal structure data generated from the
# MOF subset of the Cambridge Structural Database (CSD) v543 
# hosted by the Cambridge Crystallographic Data Centre (CCDC).
#
# This work is licensed under the Creative Commons
# Attribution-NonCommercial-ShareAlike 4.0 International License.
# To view a copy of this license, visit
# http://creativecommons.org/licenses/by-nc-sa/4.0/
# or send a letter to
# Creative Commons, PO Box 1866, Mountain View, CA 94042, USA.
#
# CIF created using the CSD Python API on 29 September 2022
# The structure has been converted into the P1 space group
# The structure has a 3D framework
# The original CSD entry DANZID is in the tetragonal crystal system
# The framework has been calculated to contain at least 10.0% void space
# The void calculation uses a probe of radius 1.32A, grid spacing 0.4
# The framework is charged, counterions have been retained in the structure
# H atom positions have been added when not included in the experimental data
# Generated hydrogen atom positions removed from atoms on special positions
#
###############################################################################

data_DANZID
_chemical_formula_moiety         '(C208 H152 Cd14 Cl7 Cu10 N16 O50)n'
_symmetry_cell_setting           triclinic
_symmetry_space_group_name_H-M   'P 1'
_symmetry_Int_Tables_number      1
_space_group_name_Hall           'P 1'
loop_
_symmetry_equiv_pos_site_id
_symmetry_equiv_pos_as_xyz
1 x,y,z
_cell_length_a                   29.2846(9)
_cell_length_b                   29.2846(9)
_cell_length_c                   9.9941(4)
_cell_angle_alpha                90
_cell_angle_beta                 90
_cell_angle_gamma                90
_cell_volume                     8570.82
loop_
_atom_site_label
_atom_site_type_symbol
_atom_site_fract_x
_atom_site_fract_y
_atom_site_fract_z
Cu1 Cu 0.2500 0.2500 0.3548(3)
N1 N 0.2570(2) 0.3171(2) 0.3595(8)
N2 N 0.0861(3) 0.4498(3) 0.4059(10)
C1 C 0.1249(3) 0.3992(3) 0.2689(11)
H1 H 0.1320 0.3884 0.1839
C2 C 0.1448(4) 0.3794(4) 0.3780(12)
C3 C 0.2237(3) 0.3492(3) 0.3622(11)
C4 C 0.2415(3) 0.3950(3) 0.3687(11)
H2 H 0.2253 0.4223 0.3750
C5 C 0.1780(3) 0.3412(3) 0.3657(10)
C6 C 0.0526(3) 0.4886(3) 0.4319(11)
H3 H 0.0496 0.4932 0.5266
H4 H 0.0234 0.4809 0.3947
H5 H 0.0637 0.5160 0.3910
C7 C 0.2861(3) 0.3891(4) 0.3637(11)
H6 H 0.3077 0.4124 0.3613
C8 C 0.2963(3) 0.3418(3) 0.3627(10)
C9 C 0.1344(4) 0.3945(4) 0.4985(14)
H7 H 0.1468 0.3796 0.5723
C10 C 0.0941(3) 0.4353(4) 0.2825(12)
H8 H 0.0799 0.4485 0.2088
C11 C 0.1049(4) 0.4328(4) 0.5211(13)
H9 H 0.0991 0.4449 0.6055
N3 N 0.1829(2) 0.2570(2) 0.3595(8)
N4 N 0.2430(2) 0.1829(2) 0.3595(8)
N5 N 0.3171(2) 0.2430(2) 0.3595(8)
N6 N 0.0502(3) 0.0861(3) 0.4059(10)
N7 N 0.4139(3) 0.0502(3) 0.4059(10)
N8 N 0.4498(3) 0.4139(3) 0.4059(10)
C12 C 0.1008(3) 0.1249(3) 0.2689(11)
C13 C 0.3751(3) 0.1008(3) 0.2689(11)
C14 C 0.3992(3) 0.3751(3) 0.2689(11)
H10 H 0.1116 0.1320 0.1839
H11 H 0.3680 0.1116 0.1839
H12 H 0.3884 0.3680 0.1839
C15 C 0.1206(4) 0.1448(4) 0.3780(12)
C16 C 0.3552(4) 0.1206(4) 0.3780(12)
C17 C 0.3794(4) 0.3552(4) 0.3780(12)
C18 C 0.1508(3) 0.2237(3) 0.3622(11)
C19 C 0.2763(3) 0.1508(3) 0.3622(11)
C20 C 0.3492(3) 0.2763(3) 0.3622(11)
C21 C 0.3950(3) 0.2585(3) 0.3687(11)
C22 C 0.2585(3) 0.1050(3) 0.3687(11)
C23 C 0.1050(3) 0.2415(3) 0.3687(11)
H13 H 0.4223 0.2747 0.3750
H14 H 0.2747 0.0777 0.3750
H15 H 0.0777 0.2253 0.3750
C24 C 0.1588(3) 0.1780(3) 0.3657(10)
C25 C 0.3220(3) 0.1588(3) 0.3657(10)
C26 C 0.3412(3) 0.3220(3) 0.3657(10)
C27 C 0.0114(3) 0.0526(3) 0.4319(11)
C28 C 0.4474(3) 0.0114(3) 0.4319(11)
C29 C 0.4886(3) 0.4474(3) 0.4319(11)
H16 H 0.0068 0.0496 0.5266
H17 H 0.4504 0.0068 0.5266
H18 H 0.4932 0.4504 0.5266
H19 H 0.0191 0.0234 0.3947
H20 H 0.4766 0.0191 0.3947
H21 H 0.4809 0.4766 0.3947
H24 H 0.5160 0.4363 0.3910
C30 C 0.3891(4) 0.2139(3) 0.3637(11)
C31 C 0.2139(3) 0.1109(4) 0.3637(11)
C32 C 0.1109(4) 0.2861(3) 0.3637(11)
H25 H 0.4124 0.1923 0.3613
H26 H 0.1923 0.0876 0.3613
H27 H 0.0876 0.3077 0.3613
C33 C 0.1582(3) 0.2963(3) 0.3627(10)
C34 C 0.2037(3) 0.1582(3) 0.3627(10)
C35 C 0.3418(3) 0.2037(3) 0.3627(10)
C36 C 0.1055(4) 0.1344(4) 0.4985(14)
C37 C 0.3656(4) 0.1055(4) 0.4985(14)
C38 C 0.3945(4) 0.3656(4) 0.4985(14)
H28 H 0.1204 0.1468 0.5723
H29 H 0.3532 0.1204 0.5723
H30 H 0.3796 0.3532 0.5723
C39 C 0.0647(4) 0.0941(3) 0.2825(12)
C40 C 0.4059(3) 0.0647(4) 0.2825(12)
C41 C 0.4353(4) 0.4059(3) 0.2825(12)
H31 H 0.0515 0.0799 0.2088
H32 H 0.4201 0.0515 0.2088
H33 H 0.4485 0.4201 0.2088
C42 C 0.0672(4) 0.1049(4) 0.5211(13)
C43 C 0.3951(4) 0.0672(4) 0.5211(13)
C44 C 0.4328(4) 0.3951(4) 0.5211(13)
H34 H 0.0551 0.0991 0.6055
H35 H 0.4009 0.0551 0.6055
H36 H 0.4449 0.4009 0.6055
H23 H 0.4363 0.9840 0.3910
H22 H 0.9840 0.0637 0.3910
H22_2 H 0.0160 0.9363 0.6090
H23_2 H 0.5637 0.0160 0.6090
Cu1_2 Cu 0.7500 0.7500 0.6452(3)
N1_2 N 0.7430(2) 0.6829(2) 0.6405(8)
N2_2 N 0.9139(3) 0.5502(3) 0.5941(10)
C1_2 C 0.8751(3) 0.6008(3) 0.7311(11)
H1_2 H 0.8680 0.6116 0.8161
C2_2 C 0.8552(4) 0.6206(4) 0.6220(12)
C3_2 C 0.7763(3) 0.6508(3) 0.6378(11)
C4_2 C 0.7585(3) 0.6050(3) 0.6313(11)
H2_2 H 0.7747 0.5777 0.6250
C5_2 C 0.8220(3) 0.6588(3) 0.6343(10)
C6_2 C 0.9474(3) 0.5114(3) 0.5681(11)
H3_2 H 0.9504 0.5068 0.4734
H4_2 H 0.9766 0.5191 0.6053
H5_2 H 0.9363 0.4840 0.6090
C7_2 C 0.7139(3) 0.6109(4) 0.6363(11)
H6_2 H 0.6923 0.5876 0.6387
C8_2 C 0.7037(3) 0.6582(3) 0.6373(10)
C9_2 C 0.8656(4) 0.6055(4) 0.5015(14)
H7_2 H 0.8532 0.6204 0.4277
C10_2 C 0.9059(3) 0.5647(4) 0.7175(12)
H8_2 H 0.9201 0.5515 0.7912
C11_2 C 0.8951(4) 0.5672(4) 0.4789(13)
H9_2 H 0.9009 0.5551 0.3945
N3_2 N 0.8171(2) 0.7430(2) 0.6405(8)
N4_2 N 0.7570(2) 0.8171(2) 0.6405(8)
N5_2 N 0.6829(2) 0.7570(2) 0.6405(8)
N6_2 N 0.9498(3) 0.9139(3) 0.5941(10)
N7_2 N 0.5861(3) 0.9498(3) 0.5941(10)
N8_2 N 0.5502(3) 0.5861(3) 0.5941(10)
C12_2 C 0.8992(3) 0.8751(3) 0.7311(11)
C13_2 C 0.6249(3) 0.8992(3) 0.7311(11)
C14_2 C 0.6008(3) 0.6249(3) 0.7311(11)
H10_2 H 0.8884 0.8680 0.8161
H11_2 H 0.6320 0.8884 0.8161
H12_2 H 0.6116 0.6320 0.8161
C15_2 C 0.8794(4) 0.8552(4) 0.6220(12)
C16_2 C 0.6448(4) 0.8794(4) 0.6220(12)
C17_2 C 0.6206(4) 0.6448(4) 0.6220(12)
C18_2 C 0.8492(3) 0.7763(3) 0.6378(11)
C19_2 C 0.7237(3) 0.8492(3) 0.6378(11)
C20_2 C 0.6508(3) 0.7237(3) 0.6378(11)
C21_2 C 0.6050(3) 0.7415(3) 0.6313(11)
C22_2 C 0.7415(3) 0.8950(3) 0.6313(11)
C23_2 C 0.8950(3) 0.7585(3) 0.6313(11)
H13_2 H 0.5777 0.7253 0.6250
H14_2 H 0.7253 0.9223 0.6250
H15_2 H 0.9223 0.7747 0.6250
C24_2 C 0.8412(3) 0.8220(3) 0.6343(10)
C25_2 C 0.6780(3) 0.8412(3) 0.6343(10)
C26_2 C 0.6588(3) 0.6780(3) 0.6343(10)
C27_2 C 0.9886(3) 0.9474(3) 0.5681(11)
C28_2 C 0.5526(3) 0.9886(3) 0.5681(11)
C29_2 C 0.5114(3) 0.5526(3) 0.5681(11)
H16_2 H 0.9932 0.9504 0.4734
H17_2 H 0.5496 0.9932 0.4734
H18_2 H 0.5068 0.5496 0.4734
H19_2 H 0.9809 0.9766 0.6053
H20_2 H 0.5234 0.9809 0.6053
H21_2 H 0.5191 0.5234 0.6053
H24_2 H 0.4840 0.5637 0.6090
C30_2 C 0.6109(4) 0.7861(3) 0.6363(11)
C31_2 C 0.7861(3) 0.8891(4) 0.6363(11)
C32_2 C 0.8891(4) 0.7139(3) 0.6363(11)
H25_2 H 0.5876 0.8077 0.6387
H26_2 H 0.8077 0.9124 0.6387
H27_2 H 0.9124 0.6923 0.6387
C33_2 C 0.8418(3) 0.7037(3) 0.6373(10)
C34_2 C 0.7963(3) 0.8418(3) 0.6373(10)
C35_2 C 0.6582(3) 0.7963(3) 0.6373(10)
C36_2 C 0.8945(4) 0.8656(4) 0.5015(14)
C37_2 C 0.6344(4) 0.8945(4) 0.5015(14)
C38_2 C 0.6055(4) 0.6344(4) 0.5015(14)
H28_2 H 0.8796 0.8532 0.4277
H29_2 H 0.6468 0.8796 0.4277
H30_2 H 0.6204 0.6468 0.4277
C39_2 C 0.9353(4) 0.9059(3) 0.7175(12)
C40_2 C 0.5941(3) 0.9353(4) 0.7175(12)
C41_2 C 0.5647(4) 0.5941(3) 0.7175(12)
H31_2 H 0.9485 0.9201 0.7912
H32_2 H 0.5799 0.9485 0.7912
H33_2 H 0.5515 0.5799 0.7912
C42_2 C 0.9328(4) 0.8951(4) 0.4789(13)
C43_2 C 0.6049(4) 0.9328(4) 0.4789(13)
C44_2 C 0.5672(4) 0.6049(4) 0.4789(13)
H34_2 H 0.9449 0.9009 0.3945
H35_2 H 0.5991 0.9449 0.3945
H36_2 H 0.5551 0.5991 0.3945
Cd4 Cd 0.0000 0.0000 0.0000
Cd4_2 Cd 0.0000 0.0000 1.0000
Cl5 Cl 0.0388(7) 0.0463(4) 0.8101(14)
O41 O 0.1404(8) 0.0604(8) 0.786(2)
Cd1 Cd 0.0000 0.5000 0.0000
Cu2 Cu 0.00710(4) 0.59791(4) 0.21312(12)
O1 O 0.06977(18) 0.5177(2) 0.0879(6)
O3 O 0.4038(2) 0.5051(2) 0.5921(6)
O4 O 0.4336(2) 0.4960(2) 0.1100(6)
O5 O 0.07321(19) 0.5815(2) 0.2090(6)
O6 O 0.3347(3) 0.5133(3) 0.6641(8)
C45 C 0.2980(3) 0.5163(3) 0.3995(9)
H37 H 0.2775 0.5206 0.4693
C46 C 0.3748(3) 0.5071(3) 0.3232(8)
H38 H 0.4059 0.5060 0.3414
C47 C 0.3598(3) 0.5054(3) 0.1926(8)
C48 C 0.3140(3) 0.5098(3) 0.1666(9)
H39 H 0.3037 0.5089 0.0787
C49 C 0.3436(3) 0.5105(3) 0.4285(9)
C50 C 0.2092(3) 0.4987(3) 0.1428(9)
H40 H 0.2251 0.4762 0.0967
C51 C 0.1401(3) 0.5389(3) 0.1854(9)
C52 C 0.2318(3) 0.5247(3) 0.2422(9)
C53 C 0.3935(3) 0.5020(3) 0.0806(10)
C54 C 0.3636(4) 0.5106(3) 0.5703(10)
C55 C 0.0887(3) 0.5451(3) 0.1555(9)
C56 C 0.2822(3) 0.5157(3) 0.2718(10)
C57 C 0.1640(3) 0.5066(3) 0.1140(9)
H41 H 0.1497 0.4902 0.0464
C58 C 0.1621(3) 0.5633(3) 0.2868(10)
H42 H 0.1466 0.5856 0.3348
C59 C 0.2075(3) 0.5538(3) 0.3149(9)
H43 H 0.2213 0.5684 0.3870
Cd3 Cd 0.5000 0.5000 0.0000
Cd4_3 Cd 0.0000 1.0000 0.0000
Cu7 Cu 0.40209(4) 0.50710(4) 0.78688(12)
O13 O 0.00770(19) 0.6231(2) 0.0361(6)
O20 O 0.0051(2) 0.5962(2) 0.4079(6)
O24 O 0.0040(2) 0.4336(2) 0.1100(6)
O27 O 0.0664(2) 0.0040(2) 0.1100(6)
O35 O 0.0133(3) 0.6653(3) 0.3359(8)
C75 C 0.0013(3) 0.2092(3) 0.1428(9)
H53 H 0.0238 0.2251 0.0967
H56 H 0.0098 0.1497 0.0464
Cd1_2 Cd 0.0000 0.5000 1.0000
O2 O 0.3769(2) 0.50770(19) 0.9639(6)
Cd3_2 Cd 0.5000 0.5000 1.0000
Cd4_4 Cd 0.0000 1.0000 1.0000
Cu5 Cu 0.09791(4) 0.99290(4) 0.78688(12)
Cl2 Cl 0.0463(4) 0.4612(7) 0.8101(14)
O9 O 0.0177(2) 0.93023(18) 0.9121(6)
O16 O 0.1231(2) 0.99230(19) 0.9639(6)
O23 O 0.0962(2) 0.9949(2) 0.5921(6)
O30 O 0.0815(2) 0.92679(19) 0.7910(6)
O38 O 0.1653(3) 0.9867(3) 0.6641(8)
C61 C 0.0163(3) 0.7020(3) 0.6005(9)
H45 H 0.0206 0.7225 0.5307
C64 C 0.0071(3) 0.6252(3) 0.6768(8)
H48 H 0.0060 0.5941 0.6586
C67 C 0.0054(3) 0.6402(3) 0.8074(8)
C70 C 0.0098(3) 0.6860(3) 0.8334(9)
H51 H 0.0089 0.6963 0.9213
C73 C 0.0105(3) 0.6564(3) 0.5715(9)
C79 C 0.0389(3) 0.8599(3) 0.8146(9)
C82 C 0.0247(3) 0.7682(3) 0.7578(9)
C85 C 0.0020(3) 0.6065(3) 0.9194(10)
C88 C 0.0106(3) 0.6364(4) 0.4297(10)
C91 C 0.0451(3) 0.9113(3) 0.8445(9)
C94 C 0.0157(3) 0.7178(3) 0.7282(10)
C97 C 0.0066(3) 0.8360(3) 0.8860(9)
C100 C 0.0633(3) 0.8379(3) 0.7132(10)
H60 H 0.0856 0.8534 0.6652
C103 C 0.0538(3) 0.7925(3) 0.6851(9)
H63 H 0.0684 0.7787 0.6130
O39 O 0.0604(8) 0.3596(8) 0.786(2)
Cd4_5 Cd 1.0000 0.0000 0.0000
Cd4_6 Cd 1.0000 0.0000 1.0000
Cd1_3 Cd 1.0000 0.5000 0.0000
Cl1 Cl 0.9537(4) 0.5388(7) 0.1899(14)
O7 O 0.9396(8) 0.6404(8) 0.214(2)
Cd4_7 Cd 1.0000 1.0000 0.0000
Cu4 Cu 0.90209(4) 0.00710(4) 0.21312(12)
Cu8 Cu 0.99290(4) 0.40209(4) 0.78688(12)
Cu10 Cu 0.59791(4) 0.49290(4) 0.21312(12)
O8 O 0.9823(2) 0.06977(18) 0.0879(6)
O14 O 0.6231(2) 0.49230(19) 0.0361(6)
O15 O 0.8769(2) 0.00770(19) 0.0361(6)
O17 O 0.9949(2) 0.4038(2) 0.5921(6)
O22 O 0.9038(2) 0.0051(2) 0.4079(6)
O29 O 0.9185(2) 0.07321(19) 0.2090(6)
O32 O 0.9867(3) 0.3347(3) 0.6641(8)
O37 O 0.8347(3) 0.0133(3) 0.3359(8)
C60 C 0.9837(3) 0.2980(3) 0.3995(9)
H44 H 0.9794 0.2775 0.4693
C63 C 0.9929(3) 0.3748(3) 0.3232(8)
H47 H 0.9940 0.4059 0.3414
C66 C 0.9946(3) 0.3598(3) 0.1926(8)
C69 C 0.9902(3) 0.3140(3) 0.1666(9)
H50 H 0.9911 0.3037 0.0787
C72 C 0.9895(3) 0.3436(3) 0.4285(9)
C78 C 0.9611(3) 0.1401(3) 0.1854(9)
C81 C 0.9753(3) 0.2318(3) 0.2422(9)
C84 C 0.9980(3) 0.3935(3) 0.0806(10)
C87 C 0.9894(3) 0.3636(4) 0.5703(10)
C90 C 0.9549(3) 0.0887(3) 0.1555(9)
C93 C 0.9843(3) 0.2822(3) 0.2718(10)
C96 C 0.9934(3) 0.1640(3) 0.1140(9)
C99 C 0.9367(3) 0.1621(3) 0.2868(10)
H59 H 0.9144 0.1466 0.3348
C102 C 0.9462(3) 0.2075(3) 0.3149(9)
H62 H 0.9316 0.2213 0.3870
Cd1_4 Cd 1.0000 0.5000 1.0000
Cd4_8 Cd 1.0000 1.0000 1.0000
O10 O 0.93023(18) 0.4823(2) 0.9121(6)
O12 O 0.99230(19) 0.3769(2) 0.9639(6)
O19 O 0.5962(2) 0.4949(2) 0.4079(6)
O25 O 0.9960(2) 0.5664(2) 0.8900(6)
O26 O 0.5664(2) 0.5040(2) 0.8900(6)
O31 O 0.92679(19) 0.4185(2) 0.7910(6)
O34 O 0.6653(3) 0.4867(3) 0.3359(8)
C62 C 0.7020(3) 0.4837(3) 0.6005(9)
H46 H 0.7225 0.4794 0.5307
C65 C 0.6252(3) 0.4929(3) 0.6768(8)
H49 H 0.5941 0.4940 0.6586
C68 C 0.6402(3) 0.4946(3) 0.8074(8)
C71 C 0.6860(3) 0.4902(3) 0.8334(9)
H52 H 0.6963 0.4911 0.9213
C74 C 0.6564(3) 0.4895(3) 0.5715(9)
C76 C 0.9987(3) 0.7908(3) 0.8572(9)
C77 C 0.7908(3) 0.5013(3) 0.8572(9)
H54 H 0.9762 0.7749 0.9033
H55 H 0.7749 0.5238 0.9033
C80 C 0.8599(3) 0.4611(3) 0.8146(9)
C83 C 0.7682(3) 0.4753(3) 0.7578(9)
C86 C 0.6065(3) 0.4980(3) 0.9194(10)
C89 C 0.6364(4) 0.4894(3) 0.4297(10)
C92 C 0.9113(3) 0.4549(3) 0.8445(9)
C95 C 0.7178(3) 0.4843(3) 0.7282(10)
C98 C 0.8360(3) 0.4934(3) 0.8860(9)
H57 H 0.9902 0.8503 0.9536
H58 H 0.8503 0.5098 0.9536
C101 C 0.8379(3) 0.4367(3) 0.7132(10)
H61 H 0.8534 0.4144 0.6652
C104 C 0.7925(3) 0.4462(3) 0.6851(9)
H64 H 0.7787 0.4316 0.6130
Cl3 Cl 0.9612(7) 0.9537(4) 0.1899(14)
O40 O 0.8596(8) 0.9396(8) 0.214(2)
O28 O 0.9336(2) 0.9960(2) 0.8900(6)
Cd1_5 Cd 0.5000 0.0000 0.0000
C50_2 C 0.2908(3) 0.0013(3) 0.1428(9)
H40_2 H 0.2749 0.0238 0.0967
H41_2 H 0.3503 0.0098 0.0464
Cu8_2 Cu 0.50710(4) 0.09791(4) 0.78688(12)
Cl3_2 Cl 0.5388(7) 0.5463(4) 0.1899(14)
O8_2 O 0.5177(2) 0.43023(18) 0.0879(6)
O17_2 O 0.5051(2) 0.0962(2) 0.5921(6)
O24_2 O 0.4960(2) 0.0664(2) 0.1100(6)
O29_2 O 0.5815(2) 0.42679(19) 0.2090(6)
O32_2 O 0.5133(3) 0.1653(3) 0.6641(8)
C60_2 C 0.5163(3) 0.2020(3) 0.3995(9)
H44_2 H 0.5206 0.2225 0.4693
C63_2 C 0.5071(3) 0.1252(3) 0.3232(8)
H47_2 H 0.5060 0.0941 0.3414
C66_2 C 0.5054(3) 0.1402(3) 0.1926(8)
C69_2 C 0.5098(3) 0.1860(3) 0.1666(9)
H50_2 H 0.5089 0.1963 0.0787
C72_2 C 0.5105(3) 0.1564(3) 0.4285(9)
C75_2 C 0.4987(3) 0.2908(3) 0.1428(9)
H53_2 H 0.4762 0.2749 0.0967
C78_2 C 0.5389(3) 0.3599(3) 0.1854(9)
C81_2 C 0.5247(3) 0.2682(3) 0.2422(9)
C84_2 C 0.5020(3) 0.1065(3) 0.0806(10)
C87_2 C 0.5106(3) 0.1364(4) 0.5703(10)
C90_2 C 0.5451(3) 0.4113(3) 0.1555(9)
C93_2 C 0.5157(3) 0.2178(3) 0.2718(10)
C96_2 C 0.5066(3) 0.3360(3) 0.1140(9)
H56_2 H 0.4902 0.3503 0.0464
C99_2 C 0.5633(3) 0.3379(3) 0.2868(10)
H59_2 H 0.5856 0.3534 0.3348
C102_2 C 0.5538(3) 0.2925(3) 0.3149(9)
H62_2 H 0.5684 0.2787 0.3870
O40_2 O 0.6404(8) 0.5604(8) 0.214(2)
Cd1_6 Cd 0.5000 0.0000 1.0000
Cl2_2 Cl 0.4537(4) 0.0388(7) 0.8101(14)
Cl4 Cl 0.4612(7) 0.4537(4) 0.8101(14)
O10_2 O 0.56977(18) 0.0177(2) 0.9121(6)
O11 O 0.4823(2) 0.56977(18) 0.9121(6)
O12_2 O 0.50770(19) 0.1231(2) 0.9639(6)
O31_2 O 0.57321(19) 0.0815(2) 0.7910(6)
C62_2 C 0.7980(3) 0.0163(3) 0.6005(9)
H46_2 H 0.7775 0.0206 0.5307
C65_2 C 0.8748(3) 0.0071(3) 0.6768(8)
H49_2 H 0.9059 0.0060 0.6586
C68_2 C 0.8598(3) 0.0054(3) 0.8074(8)
C71_2 C 0.8140(3) 0.0098(3) 0.8334(9)
H52_2 H 0.8037 0.0089 0.9213
C74_2 C 0.8436(3) 0.0105(3) 0.5715(9)
C80_2 C 0.6401(3) 0.0389(3) 0.8146(9)
C83_2 C 0.7318(3) 0.0247(3) 0.7578(9)
C86_2 C 0.8935(3) 0.0020(3) 0.9194(10)
C89_2 C 0.8636(4) 0.0106(3) 0.4297(10)
C92_2 C 0.5887(3) 0.0451(3) 0.8445(9)
C95_2 C 0.7822(3) 0.0157(3) 0.7282(10)
C98_2 C 0.6640(3) 0.0066(3) 0.8860(9)
C101_2 C 0.6621(3) 0.0633(3) 0.7132(10)
H61_2 H 0.6466 0.0856 0.6652
C104_2 C 0.7075(3) 0.0538(3) 0.6851(9)
H64_2 H 0.7213 0.0684 0.6130
O39_2 O 0.4396(8) 0.1404(8) 0.786(2)
Cd1_7 Cd 0.5000 1.0000 0.0000
Cu2_2 Cu 0.49290(4) 0.90209(4) 0.21312(12)
Cl1_2 Cl 0.5463(4) 0.9612(7) 0.1899(14)
O1_2 O 0.43023(18) 0.9823(2) 0.0879(6)
O5_2 O 0.42679(19) 0.9185(2) 0.2090(6)
C45_2 C 0.2020(3) 0.9837(3) 0.3995(9)
H37_2 H 0.2225 0.9794 0.4693
C46_2 C 0.1252(3) 0.9929(3) 0.3232(8)
H38_2 H 0.0941 0.9940 0.3414
C47_2 C 0.1402(3) 0.9946(3) 0.1926(8)
C48_2 C 0.1860(3) 0.9902(3) 0.1666(9)
H39_2 H 0.1963 0.9911 0.0787
C49_2 C 0.1564(3) 0.9895(3) 0.4285(9)
C51_2 C 0.3599(3) 0.9611(3) 0.1854(9)
C52_2 C 0.2682(3) 0.9753(3) 0.2422(9)
C53_2 C 0.1065(3) 0.9980(3) 0.0806(10)
C54_2 C 0.1364(4) 0.9894(3) 0.5703(10)
C55_2 C 0.4113(3) 0.9549(3) 0.1555(9)
C56_2 C 0.2178(3) 0.9843(3) 0.2718(10)
C57_2 C 0.3360(3) 0.9934(3) 0.1140(9)
C58_2 C 0.3379(3) 0.9367(3) 0.2868(10)
H42_2 H 0.3534 0.9144 0.3348
C59_2 C 0.2925(3) 0.9462(3) 0.3149(9)
H43_2 H 0.2787 0.9316 0.3870
O7_2 O 0.5604(8) 0.8596(8) 0.214(2)
O13_2 O 0.49230(19) 0.8769(2) 0.0361(6)
O20_2 O 0.4949(2) 0.9038(2) 0.4079(6)
O35_2 O 0.4867(3) 0.8347(3) 0.3359(8)
Cd1_8 Cd 0.5000 1.0000 1.0000
O25_2 O 0.5040(2) 0.9336(2) 0.8900(6)
O30_2 O 0.4185(2) 0.57321(19) 0.7910(6)
C61_2 C 0.4837(3) 0.7980(3) 0.6005(9)
H45_2 H 0.4794 0.7775 0.5307
C64_2 C 0.4929(3) 0.8748(3) 0.6768(8)
H48_2 H 0.4940 0.9059 0.6586
C67_2 C 0.4946(3) 0.8598(3) 0.8074(8)
C70_2 C 0.4902(3) 0.8140(3) 0.8334(9)
H51_2 H 0.4911 0.8037 0.9213
C73_2 C 0.4895(3) 0.8436(3) 0.5715(9)
C76_2 C 0.5013(3) 0.7092(3) 0.8572(9)
C77_2 C 0.7092(3) 0.9987(3) 0.8572(9)
H54_2 H 0.5238 0.7251 0.9033
H55_2 H 0.7251 0.9762 0.9033
C79_2 C 0.4611(3) 0.6401(3) 0.8146(9)
C82_2 C 0.4753(3) 0.7318(3) 0.7578(9)
C85_2 C 0.4980(3) 0.8935(3) 0.9194(10)
C88_2 C 0.4894(3) 0.8636(4) 0.4297(10)
C91_2 C 0.4549(3) 0.5887(3) 0.8445(9)
C94_2 C 0.4843(3) 0.7822(3) 0.7282(10)
C97_2 C 0.4934(3) 0.6640(3) 0.8860(9)
H57_2 H 0.5098 0.6497 0.9536
H58_2 H 0.6497 0.9902 0.9536
C100_2 C 0.4367(3) 0.6621(3) 0.7132(10)
H60_2 H 0.4144 0.6466 0.6652
C103_2 C 0.4462(3) 0.7075(3) 0.6851(9)
H63_2 H 0.4316 0.7213 0.6130
O41_2 O 0.3596(8) 0.4396(8) 0.786(2)
loop_
_geom_bond_atom_site_label_1
_geom_bond_atom_site_label_2
_geom_bond_site_symmetry_1
_geom_bond_site_symmetry_2
Cu1 N1 1_555 1_555
N1 C3 1_555 1_555
N2 C6 1_555 1_555
C1 H1 1_555 1_555
C2 C1 1_555 1_555
C3 C4 1_555 1_555
C4 H2 1_555 1_555
C5 C2 1_555 1_555
C6 H3 1_555 1_555
H4 C6 1_555 1_555
H5 C6 1_555 1_555
C7 C4 1_555 1_555
H6 C7 1_555 1_555
C8 N1 1_555 1_555
C9 C2 1_555 1_555
H7 C9 1_555 1_555
C10 N2 1_555 1_555
H8 C10 1_555 1_555
C11 N2 1_555 1_555
H9 C11 1_555 1_555
N3 Cu1 1_555 1_555
N4 Cu1 1_555 1_555
N5 Cu1 1_555 1_555
N6 C27 1_555 1_555
N7 C28 1_555 1_555
N8 C29 1_555 1_555
C12 H10 1_555 1_555
C13 H11 1_555 1_555
C14 H12 1_555 1_555
C15 C12 1_555 1_555
C16 C13 1_555 1_555
C17 C14 1_555 1_555
C18 N3 1_555 1_555
C19 N4 1_555 1_555
C20 N5 1_555 1_555
C21 C20 1_555 1_555
C22 C19 1_555 1_555
C23 C18 1_555 1_555
H13 C21 1_555 1_555
H14 C22 1_555 1_555
H15 C23 1_555 1_555
C24 C15 1_555 1_555
C25 C16 1_555 1_555
C26 C8 1_555 1_555
C27 H16 1_555 1_555
C28 H17 1_555 1_555
C29 H18 1_555 1_555
H19 C27 1_555 1_555
H20 C28 1_555 1_555
H21 C29 1_555 1_555
H24 C29 1_555 1_555
C30 C21 1_555 1_555
C31 C22 1_555 1_555
C32 C23 1_555 1_555
H25 C30 1_555 1_555
H26 C31 1_555 1_555
H27 C32 1_555 1_555
C33 C5 1_555 1_555
C34 N4 1_555 1_555
C35 N5 1_555 1_555
C36 C15 1_555 1_555
C37 C16 1_555 1_555
C38 C17 1_555 1_555
H28 C36 1_555 1_555
H29 C37 1_555 1_555
H30 C38 1_555 1_555
C39 N6 1_555 1_555
C40 N7 1_555 1_555
C41 N8 1_555 1_555
H31 C39 1_555 1_555
H32 C40 1_555 1_555
H33 C41 1_555 1_555
C42 N6 1_555 1_555
C43 N7 1_555 1_555
C44 N8 1_555 1_555
H34 C42 1_555 1_555
H35 C43 1_555 1_555
H36 C44 1_555 1_555
C1 C10 1_555 1_555
C3 C5 1_555 1_555
C7 C8 1_555 1_555
C9 C11 1_555 1_555
N3 C33 1_555 1_555
C12 C39 1_555 1_555
C13 C40 1_555 1_555
C14 C41 1_555 1_555
C17 C26 1_555 1_555
C18 C24 1_555 1_555
C19 C25 1_555 1_555
C20 C26 1_555 1_555
C24 C34 1_555 1_555
C25 C35 1_555 1_555
C30 C35 1_555 1_555
C31 C34 1_555 1_555
C32 C33 1_555 1_555
C36 C42 1_555 1_555
C37 C43 1_555 1_555
C38 C44 1_555 1_555
Cu1_2 N1_2 1_555 1_555
N1_2 C3_2 1_555 1_555
N2_2 C6_2 1_555 1_555
C1_2 H1_2 1_555 1_555
C2_2 C1_2 1_555 1_555
C3_2 C4_2 1_555 1_555
C4_2 H2_2 1_555 1_555
C5_2 C2_2 1_555 1_555
C6_2 H3_2 1_555 1_555
H4_2 C6_2 1_555 1_555
H5_2 C6_2 1_555 1_555
C7_2 C4_2 1_555 1_555
H6_2 C7_2 1_555 1_555
C8_2 N1_2 1_555 1_555
C9_2 C2_2 1_555 1_555
H7_2 C9_2 1_555 1_555
C10_2 N2_2 1_555 1_555
H8_2 C10_2 1_555 1_555
C11_2 N2_2 1_555 1_555
H9_2 C11_2 1_555 1_555
N3_2 Cu1_2 1_555 1_555
N4_2 Cu1_2 1_555 1_555
N5_2 Cu1_2 1_555 1_555
N6_2 C27_2 1_555 1_555
N7_2 C28_2 1_555 1_555
N8_2 C29_2 1_555 1_555
C12_2 H10_2 1_555 1_555
C13_2 H11_2 1_555 1_555
C14_2 H12_2 1_555 1_555
C15_2 C12_2 1_555 1_555
C16_2 C13_2 1_555 1_555
C17_2 C14_2 1_555 1_555
C18_2 N3_2 1_555 1_555
C19_2 N4_2 1_555 1_555
C20_2 N5_2 1_555 1_555
C21_2 C20_2 1_555 1_555
C22_2 C19_2 1_555 1_555
C23_2 C18_2 1_555 1_555
H13_2 C21_2 1_555 1_555
H14_2 C22_2 1_555 1_555
H15_2 C23_2 1_555 1_555
C24_2 C15_2 1_555 1_555
C25_2 C16_2 1_555 1_555
C26_2 C8_2 1_555 1_555
C27_2 H16_2 1_555 1_555
C28_2 H17_2 1_555 1_555
C29_2 H18_2 1_555 1_555
H19_2 C27_2 1_555 1_555
H20_2 C28_2 1_555 1_555
H21_2 C29_2 1_555 1_555
H24_2 C29_2 1_555 1_555
C30_2 C21_2 1_555 1_555
C31_2 C22_2 1_555 1_555
C32_2 C23_2 1_555 1_555
H25_2 C30_2 1_555 1_555
H26_2 C31_2 1_555 1_555
H27_2 C32_2 1_555 1_555
C33_2 C5_2 1_555 1_555
C34_2 N4_2 1_555 1_555
C35_2 N5_2 1_555 1_555
C36_2 C15_2 1_555 1_555
C37_2 C16_2 1_555 1_555
C38_2 C17_2 1_555 1_555
H28_2 C36_2 1_555 1_555
H29_2 C37_2 1_555 1_555
H30_2 C38_2 1_555 1_555
C39_2 N6_2 1_555 1_555
C40_2 N7_2 1_555 1_555
C41_2 N8_2 1_555 1_555
H31_2 C39_2 1_555 1_555
H32_2 C40_2 1_555 1_555
H33_2 C41_2 1_555 1_555
C42_2 N6_2 1_555 1_555
C43_2 N7_2 1_555 1_555
C44_2 N8_2 1_555 1_555
H34_2 C42_2 1_555 1_555
H35_2 C43_2 1_555 1_555
H36_2 C44_2 1_555 1_555
C1_2 C10_2 1_555 1_555
C3_2 C5_2 1_555 1_555
C7_2 C8_2 1_555 1_555
C9_2 C11_2 1_555 1_555
N3_2 C33_2 1_555 1_555
C12_2 C39_2 1_555 1_555
C13_2 C40_2 1_555 1_555
C14_2 C41_2 1_555 1_555
C17_2 C26_2 1_555 1_555
C18_2 C24_2 1_555 1_555
C19_2 C25_2 1_555 1_555
C20_2 C26_2 1_555 1_555
C24_2 C34_2 1_555 1_555
C25_2 C35_2 1_555 1_555
C30_2 C35_2 1_555 1_555
C31_2 C34_2 1_555 1_555
C32_2 C33_2 1_555 1_555
C36_2 C42_2 1_555 1_555
C37_2 C43_2 1_555 1_555
C38_2 C44_2 1_555 1_555
Cd4_2 Cl5 1_555 1_555
O1 Cd1 1_555 1_555
O3 C54 1_555 1_555
O4 C53 1_555 1_555
O5 Cu2 1_555 1_555
O6 C54 1_555 1_555
C45 H37 1_555 1_555
C46 H38 1_555 1_555
C47 C46 1_555 1_555
C48 C47 1_555 1_555
H39 C48 1_555 1_555
C49 C45 1_555 1_555
C50 H40 1_555 1_555
C51 C55 1_555 1_555
C52 C50 1_555 1_555
C53 C47 1_555 1_555
C54 C49 1_555 1_555
C55 O1 1_555 1_555
C56 C45 1_555 1_555
C57 C50 1_555 1_555
H41 C57 1_555 1_555
C58 C51 1_555 1_555
H42 C58 1_555 1_555
C59 C52 1_555 1_555
H43 C59 1_555 1_555
Cd3 O4 1_555 1_555
Cu7 O3 1_555 1_555
O13 Cu2 1_555 1_555
O20 Cu2 1_555 1_555
O24 Cd1 1_555 1_555
O27 Cd4 1_555 1_555
O35 Cu2 1_555 1_555
C75 H53 1_555 1_555
O5 C55 1_555 1_555
O6 Cu7 1_555 1_555
C46 C49 1_555 1_555
C48 C56 1_555 1_555
C51 C57 1_555 1_555
C52 C56 1_555 1_555
C58 C59 1_555 1_555
Cu7 O2 1_555 1_555
Cl2 Cd1_2 1_555 1_555
O9 Cd4_4 1_555 1_555
O16 Cu5 1_555 1_555
O20 C88 1_555 1_555
O23 Cu5 1_555 1_555
O30 Cu5 1_555 1_555
O38 Cu5 1_555 1_555
C61 H45 1_555 1_555
C64 H48 1_555 1_555
C67 C64 1_555 1_555
C70 C67 1_555 1_555
H51 C70 1_555 1_555
C73 C61 1_555 1_555
C79 C91 1_555 1_555
C88 O35 1_555 1_555
C91 O9 1_555 1_555
C94 C61 1_555 1_555
C100 C79 1_555 1_555
H60 C100 1_555 1_555
C103 C82 1_555 1_555
H63 C103 1_555 1_555
O30 C91 1_555 1_555
C64 C73 1_555 1_555
C67 C85 1_555 1_555
C70 C94 1_555 1_555
C73 C88 1_555 1_555
C79 C97 1_555 1_555
C82 C94 1_555 1_555
C100 C103 1_555 1_555
Cd1_3 Cl1 1_555 1_555
Cu8 O17 1_555 1_555
Cu10 O14 1_555 1_555
O8 Cd4_5 1_555 1_555
O15 Cu4 1_555 1_555
O17 C87 1_555 1_555
O22 Cu4 1_555 1_555
O29 Cu4 1_555 1_555
O32 Cu8 1_555 1_555
O37 Cu4 1_555 1_555
C60 H44 1_555 1_555
C63 H47 1_555 1_555
C66 C63 1_555 1_555
C69 C66 1_555 1_555
H50 C69 1_555 1_555
C72 C60 1_555 1_555
C78 C90 1_555 1_555
C87 O32 1_555 1_555
C90 O8 1_555 1_555
C93 C60 1_555 1_555
C99 C78 1_555 1_555
H59 C99 1_555 1_555
C102 C81 1_555 1_555
H62 C102 1_555 1_555
O29 C90 1_555 1_555
C63 C72 1_555 1_555
C66 C84 1_555 1_555
C69 C93 1_555 1_555
C72 C87 1_555 1_555
C78 C96 1_555 1_555
C81 C93 1_555 1_555
C99 C102 1_555 1_555
Cd3_2 O26 1_555 1_555
Cu10 O19 1_555 1_555
O10 Cd1_4 1_555 1_555
O12 Cu8 1_555 1_555
O19 C89 1_555 1_555
O25 Cd1_4 1_555 1_555
O26 C86 1_555 1_555
O31 Cu8 1_555 1_555
O34 Cu10 1_555 1_555
C62 H46 1_555 1_555
C65 H49 1_555 1_555
C68 C65 1_555 1_555
C71 C68 1_555 1_555
H52 C71 1_555 1_555
C74 C62 1_555 1_555
C76 H54 1_555 1_555
C77 H55 1_555 1_555
C80 C92 1_555 1_555
C83 C77 1_555 1_555
C86 C68 1_555 1_555
C89 O34 1_555 1_555
C92 O10 1_555 1_555
C95 C62 1_555 1_555
C98 C77 1_555 1_555
H58 C98 1_555 1_555
C101 C80 1_555 1_555
H61 C101 1_555 1_555
C104 C83 1_555 1_555
H64 C104 1_555 1_555
O31 C92 1_555 1_555
C65 C74 1_555 1_555
C71 C95 1_555 1_555
C74 C89 1_555 1_555
C80 C98 1_555 1_555
C83 C95 1_555 1_555
C101 C104 1_555 1_555
Cd4_7 Cl3 1_555 1_555
O28 Cd4_8 1_555 1_555
C50_2 H40_2 1_555 1_555
Cd3 Cl3_2 1_555 1_555
Cu10 Cl3_2 1_555 1_555
Cu8_2 O17_2 1_555 1_555
O8_2 Cd3 1_555 1_555
O17_2 C87_2 1_555 1_555
O24_2 Cd1_5 1_555 1_555
O29_2 Cu10 1_555 1_555
O32_2 Cu8_2 1_555 1_555
C60_2 H44_2 1_555 1_555
C63_2 H47_2 1_555 1_555
C66_2 C63_2 1_555 1_555
C69_2 C66_2 1_555 1_555
H50_2 C69_2 1_555 1_555
C72_2 C60_2 1_555 1_555
C75_2 H53_2 1_555 1_555
C78_2 C90_2 1_555 1_555
C81_2 C75_2 1_555 1_555
C87_2 O32_2 1_555 1_555
C90_2 O8_2 1_555 1_555
C93_2 C60_2 1_555 1_555
C96_2 C75_2 1_555 1_555
H56_2 C96_2 1_555 1_555
C99_2 C78_2 1_555 1_555
H59_2 C99_2 1_555 1_555
C102_2 C81_2 1_555 1_555
H62_2 C102_2 1_555 1_555
O40_2 Cu10 1_555 1_555
O24_2 C84_2 1_555 1_555
O29_2 C90_2 1_555 1_555
C63_2 C72_2 1_555 1_555
C66_2 C84_2 1_555 1_555
C69_2 C93_2 1_555 1_555
C72_2 C87_2 1_555 1_555
C78_2 C96_2 1_555 1_555
C81_2 C93_2 1_555 1_555
C99_2 C102_2 1_555 1_555
Cu8_2 Cl2_2 1_555 1_555
Cu7 Cl4 1_555 1_555
Cl2_2 Cd1_6 1_555 1_555
Cl4 Cd3_2 1_555 1_555
O10_2 Cd1_6 1_555 1_555
O11 Cd3_2 1_555 1_555
O12_2 Cu8_2 1_555 1_555
O22 C89_2 1_555 1_555
O31_2 Cu8_2 1_555 1_555
C62_2 H46_2 1_555 1_555
C65_2 H49_2 1_555 1_555
C68_2 C65_2 1_555 1_555
C71_2 C68_2 1_555 1_555
H52_2 C71_2 1_555 1_555
C74_2 C62_2 1_555 1_555
C80_2 C92_2 1_555 1_555
C86_2 C68_2 1_555 1_555
C89_2 O37 1_555 1_555
C92_2 O10_2 1_555 1_555
C95_2 C62_2 1_555 1_555
C101_2 C80_2 1_555 1_555
H61_2 C101_2 1_555 1_555
C104_2 C83_2 1_555 1_555
H64_2 C104_2 1_555 1_555
O39_2 Cu8_2 1_555 1_555
O31_2 C92_2 1_555 1_555
C65_2 C74_2 1_555 1_555
C71_2 C95_2 1_555 1_555
C74_2 C89_2 1_555 1_555
C80_2 C98_2 1_555 1_555
C83_2 C95_2 1_555 1_555
C101_2 C104_2 1_555 1_555
Cd1_7 Cl1_2 1_555 1_555
Cu2_2 Cl1_2 1_555 1_555
O1_2 Cd1_7 1_555 1_555
O23 C54_2 1_555 1_555
O5_2 Cu2_2 1_555 1_555
O38 C54_2 1_555 1_555
C45_2 H37_2 1_555 1_555
C46_2 H38_2 1_555 1_555
C47_2 C46_2 1_555 1_555
C48_2 C47_2 1_555 1_555
H39_2 C48_2 1_555 1_555
C49_2 C45_2 1_555 1_555
C51_2 C55_2 1_555 1_555
C53_2 C47_2 1_555 1_555
C54_2 C49_2 1_555 1_555
C55_2 O1_2 1_555 1_555
C56_2 C45_2 1_555 1_555
C58_2 C51_2 1_555 1_555
H42_2 C58_2 1_555 1_555
C59_2 C52_2 1_555 1_555
H43_2 C59_2 1_555 1_555
O7_2 Cu2_2 1_555 1_555
O13_2 Cu2_2 1_555 1_555
O20_2 Cu2_2 1_555 1_555
O35_2 Cu2_2 1_555 1_555
O5_2 C55_2 1_555 1_555
C46_2 C49_2 1_555 1_555
C48_2 C56_2 1_555 1_555
C51_2 C57_2 1_555 1_555
C52_2 C56_2 1_555 1_555
C58_2 C59_2 1_555 1_555
O20_2 C88_2 1_555 1_555
O25_2 Cd1_8 1_555 1_555
O30_2 Cu7 1_555 1_555
C61_2 H45_2 1_555 1_555
C64_2 H48_2 1_555 1_555
C67_2 C64_2 1_555 1_555
C70_2 C67_2 1_555 1_555
H51_2 C70_2 1_555 1_555
C73_2 C61_2 1_555 1_555
C76_2 H54_2 1_555 1_555
C77_2 H55_2 1_555 1_555
C79_2 C91_2 1_555 1_555
C82_2 C76_2 1_555 1_555
C88_2 O35_2 1_555 1_555
C91_2 O11 1_555 1_555
C94_2 C61_2 1_555 1_555
C97_2 C76_2 1_555 1_555
H57_2 C97_2 1_555 1_555
C100_2 C79_2 1_555 1_555
H60_2 C100_2 1_555 1_555
C103_2 C82_2 1_555 1_555
H63_2 C103_2 1_555 1_555
O41_2 Cu7 1_555 1_555
O25_2 C85_2 1_555 1_555
O30_2 C91_2 1_555 1_555
C64_2 C73_2 1_555 1_555
C67_2 C85_2 1_555 1_555
C70_2 C94_2 1_555 1_555
C73_2 C88_2 1_555 1_555
C79_2 C97_2 1_555 1_555
C82_2 C94_2 1_555 1_555
C100_2 C103_2 1_555 1_555

#END
