
###############################################################################
#
# This file contains modified crystal structure data generated from the
# MOF subset of the Cambridge Structural Database (CSD) v543 
# hosted by the Cambridge Crystallographic Data Centre (CCDC).
#
# This work is licensed under the Creative Commons
# Attribution-NonCommercial-ShareAlike 4.0 International License.
# To view a copy of this license, visit
# http://creativecommons.org/licenses/by-nc-sa/4.0/
# or send a letter to
# Creative Commons, PO Box 1866, Mountain View, CA 94042, USA.
#
# CIF created using the CSD Python API on 29 September 2022
# The structure has been converted into the P1 space group
# The structure has a 3D framework
# The original CSD entry DANZEZ is in the tetragonal crystal system
# The framework has been calculated to contain at least 10.0% void space
# The void calculation uses a probe of radius 1.32A, grid spacing 0.4
# The framework is charged, counterions have been retained in the structure
# H atom positions have been added when not included in the experimental data
# Generated hydrogen atom positions removed from atoms on special positions
#
###############################################################################

data_DANZEZ
_chemical_formula_moiety         '(C216 H184 Cl14 Mn20 N16 O50 5-)n'
_symmetry_cell_setting           triclinic
_symmetry_space_group_name_H-M   'P 1'
_symmetry_Int_Tables_number      1
_space_group_name_Hall           'P 1'
loop_
_symmetry_equiv_pos_site_id
_symmetry_equiv_pos_as_xyz
1 x,y,z
_cell_length_a                   28.5050(17)
_cell_length_b                   28.5050(17)
_cell_length_c                   10.3718(7)
_cell_angle_alpha                90
_cell_angle_beta                 90
_cell_angle_gamma                90
_cell_volume                     8427.45
loop_
_atom_site_label
_atom_site_type_symbol
_atom_site_fract_x
_atom_site_fract_y
_atom_site_fract_z
Mn6 Mn -0.0000 0.5000 0.0000
Mn6_2 Mn -0.0000 0.5000 1.0000
Mn5 Mn 0.5000 -0.0000 0.0000
Mn5_2 Mn 0.5000 -0.0000 1.0000
Mn9 Mn 0.40171(2) 0.00938(2) 0.76724(6)
Cl4 Cl 0.48056(4) 0.04370(4) 0.79107(11)
O33 O 0.40795(10) 0.00811(11) 0.5518(3)
O38 O 0.37175(11) 0.00380(13) 0.9518(3)
O41 O 0.3721(2) 0.08086(17) 0.7582(5)
C64 C 0.3273(6) 0.0934(6) 0.727(2)
H34 H 0.3061 0.0843 0.7970
H37 H 0.3258 0.1275 0.7148
H40 H 0.3180 0.0776 0.6473
Mn1 Mn 0.5000 0.5000 0.0000
Mn2 Mn 0.50938(2) 0.59829(2) 0.23276(6)
Cl1 Cl 0.54370(4) 0.51944(4) 0.20893(11)
O1 O 0.48432(11) 0.43251(10) 0.0833(3)
O2 O 0.52486(11) 0.06469(11) 0.0777(3)
O3 O 0.58145(11) 0.06410(12) 0.2247(3)
O4 O 0.51207(14) 0.33997(11) 0.6332(3)
O5 O 0.49189(11) 0.40795(10) 0.5518(3)
C1 C 0.49345(15) 0.39024(14) 0.0601(4)
C2 C 0.50172(15) 0.35868(15) 0.1747(4)
C3 C 0.50888(15) 0.31094(15) 0.1559(4)
H1 H 0.5088 0.2987 0.0707
C4 C 0.51614(15) 0.28055(15) 0.2595(4)
C5 C 0.52447(16) 0.22998(15) 0.2355(4)
C6 C 0.51080(15) 0.16012(17) 0.1096(5)
H2 H 0.4952 0.1449 0.0403
C7 C 0.55564(15) 0.20459(17) 0.3115(4)
H3 H 0.5709 0.2197 0.3815
C8 C 0.51592(15) 0.29881(14) 0.3830(4)
H4 H 0.5209 0.2787 0.4546
C9 C 0.50842(15) 0.34677(14) 0.4032(4)
C10 C 0.50257(15) 0.37675(14) 0.2993(4)
H5 H 0.4992 0.4095 0.3130
C11 C 0.50451(15) 0.36656(15) 0.5381(4)
C12 C 0.55028(14) 0.08381(15) 0.1612(4)
C13 C 0.54225(15) 0.13524(16) 0.1849(4)
C14 C 0.56473(16) 0.15805(17) 0.2874(5)
H6 H 0.5862 0.1414 0.3402
C15 C 0.50200(16) 0.20694(15) 0.1348(5)
H7 H 0.4803 0.2236 0.0825
O7 O 0.58086(17) 0.6279(2) 0.2418(5)
C16 C 0.5934(6) 0.6727(6) 0.273(2)
H8 H 0.5843 0.6939 0.2030
H9 H 0.6275 0.6742 0.2852
H10 H 0.5776 0.6820 0.3527
Mn5_3 Mn 0.5000 1.0000 0.0000
Mn6_3 Mn 1.0000 0.5000 0.0000
Mn10 Mn 0.49062(2) 0.40171(2) 0.76724(6)
Mn11 Mn 0.09829(2) 0.49062(2) 0.76724(6)
Mn15 Mn 0.90171(2) 0.50938(2) 0.23276(6)
O8 O 0.06749(10) 0.48432(11) 0.0833(3)
O11 O 0.43251(10) 0.01568(11) 0.0833(3)
O13 O 0.43531(11) 0.52486(11) 0.0777(3)
O17 O 0.43590(12) 0.58145(11) 0.2247(3)
O20 O 0.16003(11) 0.51207(14) 0.6332(3)
O23 O 0.48793(14) 0.66003(11) 0.3668(3)
O25 O 0.66003(11) 0.01207(14) 0.3668(3)
O27 O 0.09205(10) 0.49189(11) 0.5518(3)
O30 O 0.50811(11) 0.59205(10) 0.4482(3)
O35 O 0.50380(13) 0.62825(11) 0.0482(3)
O36 O 0.87175(11) 0.50380(13) 0.0482(3)
C17 C 0.10976(14) 0.49345(15) 0.0601(4)
C20 C 0.14132(15) 0.50172(15) 0.1747(4)
C23 C 0.18906(15) 0.50888(15) 0.1559(4)
H11 H 0.2013 0.5088 0.0707
C26 C 0.21945(15) 0.51614(15) 0.2595(4)
C29 C 0.27002(15) 0.52447(16) 0.2355(4)
C32 C 0.33988(17) 0.51080(15) 0.1096(5)
H14 H 0.3551 0.4952 0.0403
C35 C 0.29541(17) 0.55564(15) 0.3115(4)
H17 H 0.2803 0.5709 0.3815
C38 C 0.20119(14) 0.51592(15) 0.3830(4)
H20 H 0.2213 0.5209 0.4546
C41 C 0.15323(14) 0.50842(15) 0.4032(4)
C44 C 0.12325(14) 0.50257(15) 0.2993(4)
H23 H 0.0905 0.4992 0.3130
C47 C 0.13344(15) 0.50451(15) 0.5381(4)
C50 C 0.41619(15) 0.55028(14) 0.1612(4)
C53 C 0.36476(16) 0.54225(15) 0.1849(4)
C56 C 0.34195(17) 0.56473(16) 0.2874(5)
H26 H 0.3586 0.5862 0.3402
C59 C 0.29306(15) 0.50200(16) 0.1348(5)
H29 H 0.2764 0.4803 0.0825
Mn1_2 Mn 0.5000 0.5000 1.0000
O6 O 0.49620(13) 0.37175(11) 0.9518(3)
Mn5_4 Mn 0.5000 1.0000 1.0000
Mn6_4 Mn 1.0000 0.5000 1.0000
Cl2 Cl 0.45630(4) 0.48056(4) 0.79107(11)
O9 O 0.51568(11) 0.56749(10) 0.9167(3)
O10 O 0.93251(10) 0.51568(11) 0.9167(3)
O14 O 0.47514(11) 0.93531(11) 0.9223(3)
O15 O 0.56469(11) 0.47514(11) 0.9223(3)
O18 O 0.41855(11) 0.93590(12) 0.7753(3)
O19 O 0.56410(12) 0.41855(11) 0.7753(3)
O22 O 0.83997(11) 0.48793(14) 0.3668(3)
O26 O 0.33997(11) 0.98793(14) 0.6332(3)
O29 O 0.90795(10) 0.50811(11) 0.4482(3)
O34 O 0.12825(11) 0.49620(13) 0.9518(3)
C18 C 0.50655(15) 0.60976(14) 0.9399(4)
C19 C 0.89024(14) 0.50655(15) 0.9399(4)
C21 C 0.49828(15) 0.64132(15) 0.8253(4)
C22 C 0.85868(15) 0.49828(15) 0.8253(4)
C24 C 0.49112(15) 0.68906(15) 0.8441(4)
C25 C 0.81094(15) 0.49112(15) 0.8441(4)
H12 H 0.4912 0.7013 0.9293
H13 H 0.7987 0.4912 0.9293
C27 C 0.48386(15) 0.71945(15) 0.7405(4)
C28 C 0.78055(15) 0.48386(15) 0.7405(4)
C30 C 0.47553(16) 0.77002(15) 0.7645(4)
C31 C 0.72998(15) 0.47553(16) 0.7645(4)
C33 C 0.48920(15) 0.83988(17) 0.8904(5)
C34 C 0.66012(17) 0.48920(15) 0.8904(5)
H15 H 0.5048 0.8551 0.9597
H16 H 0.6449 0.5048 0.9597
C36 C 0.44436(15) 0.79541(17) 0.6885(4)
C37 C 0.70459(17) 0.44436(15) 0.6885(4)
H18 H 0.4291 0.7803 0.6185
H19 H 0.7197 0.4291 0.6185
C39 C 0.48408(15) 0.70119(14) 0.6170(4)
C40 C 0.79881(14) 0.48408(15) 0.6170(4)
H21 H 0.4791 0.7213 0.5454
H22 H 0.7787 0.4791 0.5454
C42 C 0.49158(15) 0.65323(14) 0.5968(4)
C43 C 0.84677(14) 0.49158(15) 0.5968(4)
C45 C 0.49743(15) 0.62325(14) 0.7007(4)
C46 C 0.87675(14) 0.49743(15) 0.7007(4)
H24 H 0.5008 0.5905 0.6870
H25 H 0.9095 0.5008 0.6870
C48 C 0.49549(15) 0.63344(15) 0.4619(4)
C49 C 0.86656(15) 0.49549(15) 0.4619(4)
C51 C 0.44972(14) 0.91619(15) 0.8388(4)
C52 C 0.58381(15) 0.44972(14) 0.8388(4)
C54 C 0.45775(15) 0.86476(16) 0.8151(4)
C55 C 0.63524(16) 0.45775(15) 0.8151(4)
C57 C 0.43527(16) 0.84195(17) 0.7126(5)
C58 C 0.65805(17) 0.43527(16) 0.7126(5)
H27 H 0.4138 0.8586 0.6598
H28 H 0.6414 0.4138 0.6598
C60 C 0.49800(16) 0.79306(15) 0.8652(5)
C61 C 0.70694(15) 0.49800(16) 0.8652(5)
H30 H 0.5197 0.7764 0.9175
H31 H 0.7236 0.5197 0.9175
O39 O 0.41914(17) 0.3721(2) 0.7582(5)
C62 C 0.4066(6) 0.3273(6) 0.727(2)
H32 H 0.4157 0.3061 0.7970
H35 H 0.3725 0.3258 0.7148
H38 H 0.4224 0.3180 0.6473
Mn8 Mn 0.59829(2) 0.99062(2) 0.23276(6)
Cl3 Cl 0.51944(4) 0.95630(4) 0.20893(11)
O32 O 0.59205(10) 0.99189(11) 0.4482(3)
O37 O 0.62825(11) 0.99620(13) 0.0482(3)
O40 O 0.6279(2) 0.91914(17) 0.2418(5)
C63 C 0.6727(6) 0.9066(6) 0.273(2)
H33 H 0.6939 0.9157 0.2030
H36 H 0.6742 0.8725 0.2852
H39 H 0.6820 0.9224 0.3527
O12 O 0.56749(10) 0.98432(11) 0.9167(3)
Mn6_5 Mn 0.0000 -0.0000 0.0000
Mn6_6 Mn 0.0000 -0.0000 1.0000
Mn6_7 Mn 0.0000 1.0000 0.0000
Mn11_2 Mn 0.00938(2) 0.09829(2) 0.76724(6)
O8_2 O 0.01568(11) 0.06749(10) 0.0833(3)
O27_2 O 0.00811(11) 0.09205(10) 0.5518(3)
C17_2 C 0.00655(15) 0.10976(14) 0.0601(4)
H14_2 H 0.0048 0.3551 0.0403
H23_2 H 0.0008 0.0905 0.3130
H29_2 H 0.0197 0.2764 0.0825
Mn6_8 Mn 0.0000 1.0000 1.0000
Cl2_2 Cl 0.01944(4) 0.45630(4) 0.79107(11)
O15_2 O 0.02486(11) 0.56469(11) 0.9223(3)
O19_2 O 0.08145(11) 0.56410(12) 0.7753(3)
O22_2 O 0.01207(14) 0.83997(11) 0.3668(3)
O34_2 O 0.00380(13) 0.12825(11) 0.9518(3)
C22_2 C 0.00172(15) 0.85868(15) 0.8253(4)
C25_2 C 0.00888(15) 0.81094(15) 0.8441(4)
H13_2 H 0.0088 0.7987 0.9293
C28_2 C 0.01614(15) 0.78055(15) 0.7405(4)
C31_2 C 0.02447(16) 0.72998(15) 0.7645(4)
C34_2 C 0.01080(15) 0.66012(17) 0.8904(5)
C37_2 C 0.05564(15) 0.70459(17) 0.6885(4)
H19_2 H 0.0709 0.7197 0.6185
C40_2 C 0.01592(15) 0.79881(14) 0.6170(4)
H22_2 H 0.0209 0.7787 0.5454
C43_2 C 0.00842(15) 0.84677(14) 0.5968(4)
C46_2 C 0.00257(15) 0.87675(14) 0.7007(4)
C49_2 C 0.00451(15) 0.86656(15) 0.4619(4)
C52_2 C 0.05028(14) 0.58381(15) 0.8388(4)
C55_2 C 0.04225(15) 0.63524(16) 0.8151(4)
C58_2 C 0.06473(16) 0.65805(17) 0.7126(5)
H28_2 H 0.0862 0.6414 0.6598
C61_2 C 0.00200(16) 0.70694(15) 0.8652(5)
O39_2 O 0.1279(2) 0.41914(17) 0.7582(5)
C62_2 C 0.1727(6) 0.4066(6) 0.727(2)
H32_2 H 0.1939 0.4157 0.7970
H35_2 H 0.1742 0.3725 0.7148
H38_2 H 0.1820 0.4224 0.6473
Mn6_9 Mn 1.0000 -0.0000 0.0000
Mn6_10 Mn 1.0000 -0.0000 1.0000
Cl1_2 Cl 0.98056(4) 0.54370(4) 0.20893(11)
O7_2 O 0.8721(2) 0.58086(17) 0.2418(5)
C16_2 C 0.8273(6) 0.5934(6) 0.273(2)
H8_2 H 0.8061 0.5843 0.2030
H9_2 H 0.8258 0.6275 0.2852
H10_2 H 0.8180 0.5776 0.3527
Mn6_11 Mn 1.0000 1.0000 0.0000
Mn15_2 Mn 0.99062(2) 0.90171(2) 0.23276(6)
O13_2 O 0.97514(11) 0.43531(11) 0.0777(3)
O17_2 O 0.91855(11) 0.43590(12) 0.2247(3)
O20_2 O 0.98793(14) 0.16003(11) 0.6332(3)
O36_2 O 0.99620(13) 0.87175(11) 0.0482(3)
C20_2 C 0.99828(15) 0.14132(15) 0.1747(4)
C23_2 C 0.99112(15) 0.18906(15) 0.1559(4)
H11_2 H 0.9912 0.2013 0.0707
C26_2 C 0.98386(15) 0.21945(15) 0.2595(4)
C29_2 C 0.97553(16) 0.27002(15) 0.2355(4)
C32_2 C 0.98920(15) 0.33988(17) 0.1096(5)
C35_2 C 0.94436(15) 0.29541(17) 0.3115(4)
H17_2 H 0.9291 0.2803 0.3815
C38_2 C 0.98408(15) 0.20119(14) 0.3830(4)
H20_2 H 0.9791 0.2213 0.4546
C41_2 C 0.99158(15) 0.15323(14) 0.4032(4)
C44_2 C 0.99743(15) 0.12325(14) 0.2993(4)
C47_2 C 0.99549(15) 0.13344(15) 0.5381(4)
C50_2 C 0.94972(14) 0.41619(15) 0.1612(4)
C53_2 C 0.95775(15) 0.36476(16) 0.1849(4)
C56_2 C 0.93527(16) 0.34195(17) 0.2874(5)
H26_2 H 0.9138 0.3586 0.3402
C59_2 C 0.99800(16) 0.29306(15) 0.1348(5)
Mn6_12 Mn 1.0000 1.0000 1.0000
O10_2 O 0.98432(11) 0.93251(10) 0.9167(3)
O29_2 O 0.99189(11) 0.90795(10) 0.4482(3)
C19_2 C 0.99345(15) 0.89024(14) 0.9399(4)
H16_2 H 0.9952 0.6449 0.9597
H25_2 H 0.9992 0.9095 0.6870
H31_2 H 0.9803 0.7236 0.9175
Cl4_2 Cl 0.04370(4) 0.01944(4) 0.79107(11)
O41_2 O 0.08086(17) 0.1279(2) 0.7582(5)
C64_2 C 0.0934(6) 0.1727(6) 0.727(2)
H34_2 H 0.0843 0.1939 0.7970
H37_2 H 0.1275 0.1742 0.7148
H40_2 H 0.0776 0.1820 0.6473
C1_2 C 0.39024(14) 0.00655(15) 0.0601(4)
H2_2 H 0.1449 0.0048 0.0403
H5_2 H 0.4095 0.0008 0.3130
H7_2 H 0.2236 0.0197 0.0825
O14_2 O 0.93531(11) 0.02486(11) 0.9223(3)
O18_2 O 0.93590(12) 0.08145(11) 0.7753(3)
C21_2 C 0.64132(15) 0.00172(15) 0.8253(4)
C24_2 C 0.68906(15) 0.00888(15) 0.8441(4)
H12_2 H 0.7013 0.0088 0.9293
C27_2 C 0.71945(15) 0.01614(15) 0.7405(4)
C30_2 C 0.77002(15) 0.02447(16) 0.7645(4)
C33_2 C 0.83988(17) 0.01080(15) 0.8904(5)
C36_2 C 0.79541(17) 0.05564(15) 0.6885(4)
H18_2 H 0.7803 0.0709 0.6185
C39_2 C 0.70119(14) 0.01592(15) 0.6170(4)
H21_2 H 0.7213 0.0209 0.5454
C42_2 C 0.65323(14) 0.00842(15) 0.5968(4)
C45_2 C 0.62325(14) 0.00257(15) 0.7007(4)
C48_2 C 0.63344(15) 0.00451(15) 0.4619(4)
C51_2 C 0.91619(15) 0.05028(14) 0.8388(4)
C54_2 C 0.86476(16) 0.04225(15) 0.8151(4)
C57_2 C 0.84195(17) 0.06473(16) 0.7126(5)
H27_2 H 0.8586 0.0862 0.6598
C60_2 C 0.79306(15) 0.00200(16) 0.8652(5)
O2_2 O 0.06469(11) 0.97514(11) 0.0777(3)
O3_2 O 0.06410(12) 0.91855(11) 0.2247(3)
C2_2 C 0.35868(15) 0.99828(15) 0.1747(4)
C3_2 C 0.31094(15) 0.99112(15) 0.1559(4)
H1_2 H 0.2987 0.9912 0.0707
C4_2 C 0.28055(15) 0.98386(15) 0.2595(4)
C5_2 C 0.22998(15) 0.97553(16) 0.2355(4)
C6_2 C 0.16012(17) 0.98920(15) 0.1096(5)
C7_2 C 0.20459(17) 0.94436(15) 0.3115(4)
H3_2 H 0.2197 0.9291 0.3815
C8_2 C 0.29881(14) 0.98408(15) 0.3830(4)
H4_2 H 0.2787 0.9791 0.4546
C9_2 C 0.34677(14) 0.99158(15) 0.4032(4)
C10_2 C 0.37675(14) 0.99743(15) 0.2993(4)
C11_2 C 0.36656(15) 0.99549(15) 0.5381(4)
C12_2 C 0.08381(15) 0.94972(14) 0.1612(4)
C13_2 C 0.13524(16) 0.95775(15) 0.1849(4)
C14_2 C 0.15805(17) 0.93527(16) 0.2874(5)
H6_2 H 0.1414 0.9138 0.3402
C15_2 C 0.20694(15) 0.99800(16) 0.1348(5)
C18_2 C 0.60976(14) 0.99345(15) 0.9399(4)
H15_2 H 0.8551 0.9952 0.9597
H24_2 H 0.5905 0.9992 0.6870
H30_2 H 0.7764 0.9803 0.9175
Cl3_2 Cl 0.95630(4) 0.98056(4) 0.20893(11)
O40_2 O 0.91914(17) 0.8721(2) 0.2418(5)
C63_2 C 0.9066(6) 0.8273(6) 0.273(2)
H33_2 H 0.9157 0.8061 0.2030
H36_2 H 0.8725 0.8258 0.2852
H39_2 H 0.9224 0.8180 0.3527
Mn17 Mn 0.2500 0.2500 0.36363(17)
O42 O 0.2500 0.2500 0.1491(10)
O43 O 0.2500 0.2500 0.5781(8)
N1 N 0.31976(14) 0.26130(14) 0.3656(5)
N2 N 0.46473(15) 0.09123(13) 0.4264(5)
C65 C 0.35436(18) 0.22813(19) 0.3698(6)
C66 C 0.34743(18) 0.17991(18) 0.3703(6)
C67 C 0.34201(18) 0.30390(19) 0.3671(6)
C68 C 0.39908(19) 0.2503(2) 0.3715(7)
H41 H 0.4288 0.2352 0.3727
C69 C 0.39135(18) 0.29666(18) 0.3712(7)
H42 H 0.4147 0.3205 0.3732
C70 C 0.38961(17) 0.14942(17) 0.3876(6)
C71 C 0.4131(2) 0.1487(2) 0.5068(6)
H43 H 0.4031 0.1687 0.5747
C72 C 0.4503(2) 0.1194(2) 0.5248(6)
H44 H 0.4660 0.1185 0.6055
C73 C 0.44391(19) 0.0925(2) 0.3116(7)
H45 H 0.4555 0.0734 0.2436
C74 C 0.40633(18) 0.1206(2) 0.2901(7)
H46 H 0.3914 0.1206 0.2082
C75 C 0.50451(19) 0.05976(18) 0.4491(6)
H47 H 0.5048 0.0351 0.3834
H48 H 0.5016 0.0455 0.5347
H49 H 0.5338 0.0776 0.4445
N3 N 0.26130(14) 0.18024(14) 0.3656(5)
N4 N 0.18024(14) 0.23870(14) 0.3656(5)
N5 N 0.23870(14) 0.31976(14) 0.3656(5)
N6 N 0.09123(13) 0.03527(15) 0.4264(5)
N7 N 0.03527(15) 0.40877(13) 0.4264(5)
N8 N 0.40877(13) 0.46473(15) 0.4264(5)
C76 C 0.22813(19) 0.14564(18) 0.3698(6)
C77 C 0.14564(18) 0.27187(19) 0.3698(6)
C78 C 0.27187(19) 0.35436(18) 0.3698(6)
C79 C 0.17991(18) 0.15257(18) 0.3703(6)
C80 C 0.15257(18) 0.32009(18) 0.3703(6)
C81 C 0.32009(18) 0.34743(18) 0.3703(6)
C82 C 0.30390(19) 0.15799(18) 0.3671(6)
C83 C 0.15799(18) 0.19610(19) 0.3671(6)
C84 C 0.19610(19) 0.34201(18) 0.3671(6)
C85 C 0.2497(2) 0.39908(19) 0.3715(7)
C86 C 0.10092(19) 0.2497(2) 0.3715(7)
C87 C 0.2503(2) 0.10092(19) 0.3715(7)
H50 H 0.2648 0.4288 0.3727
H51 H 0.0712 0.2648 0.3727
H52 H 0.2352 0.0712 0.3727
C88 C 0.20334(18) 0.39135(18) 0.3712(7)
C89 C 0.10865(18) 0.20334(18) 0.3712(7)
C90 C 0.29666(18) 0.10865(18) 0.3712(7)
H53 H 0.1795 0.4147 0.3732
H54 H 0.0853 0.1795 0.3732
H55 H 0.3205 0.0853 0.3732
C91 C 0.14942(17) 0.11039(17) 0.3876(6)
C92 C 0.11039(17) 0.35058(17) 0.3876(6)
C93 C 0.35058(17) 0.38961(17) 0.3876(6)
C94 C 0.1487(2) 0.0869(2) 0.5068(6)
C95 C 0.0869(2) 0.3513(2) 0.5068(6)
C96 C 0.3513(2) 0.4131(2) 0.5068(6)
H56 H 0.1687 0.0969 0.5747
H57 H 0.0969 0.3313 0.5747
H58 H 0.3313 0.4031 0.5747
C97 C 0.1194(2) 0.0497(2) 0.5248(6)
C98 C 0.0497(2) 0.3806(2) 0.5248(6)
C99 C 0.3806(2) 0.4503(2) 0.5248(6)
H59 H 0.1185 0.0340 0.6055
H60 H 0.0340 0.3815 0.6055
H61 H 0.3815 0.4660 0.6055
C100 C 0.0925(2) 0.05609(19) 0.3116(7)
C101 C 0.05609(19) 0.4075(2) 0.3116(7)
C102 C 0.4075(2) 0.44391(19) 0.3116(7)
H62 H 0.0734 0.0445 0.2436
H63 H 0.0445 0.4266 0.2436
H64 H 0.4266 0.4555 0.2436
C103 C 0.1206(2) 0.09367(18) 0.2901(7)
C104 C 0.09367(18) 0.3794(2) 0.2901(7)
C105 C 0.3794(2) 0.40633(18) 0.2901(7)
H65 H 0.1206 0.1086 0.2082
H66 H 0.1086 0.3794 0.2082
H67 H 0.3794 0.3914 0.2082
C108 C 0.44024(18) 0.50451(19) 0.4491(6)
H70 H 0.4649 0.5048 0.3834
H73 H 0.4545 0.5016 0.5347
H76 H 0.4224 0.5338 0.4445
C106 C 0.05976(18) 0.99549(19) 0.4491(6)
H68 H 0.0351 0.9952 0.3834
H71 H 0.0455 0.9984 0.5347
H74 H 0.0776 0.9662 0.4445
C107 C 0.99549(19) 0.44024(18) 0.4491(6)
H69 H 0.9952 0.4649 0.3834
H72 H 0.9984 0.4545 0.5347
H75 H 0.9662 0.4224 0.4445
C107_2 C 0.00451(19) 0.55976(18) 0.5509(6)
H69_2 H 0.0048 0.5351 0.6166
H72_2 H 0.0016 0.5455 0.4653
H75_2 H 0.0338 0.5776 0.5555
C106_2 C 0.94024(18) 0.00451(19) 0.5509(6)
H68_2 H 0.9649 0.0048 0.6166
H71_2 H 0.9545 0.0016 0.4653
H74_2 H 0.9224 0.0338 0.5555
Mn17_2 Mn 0.7500 0.7500 0.63637(17)
O42_2 O 0.7500 0.7500 0.8509(10)
O43_2 O 0.7500 0.7500 0.4219(8)
N1_2 N 0.68024(14) 0.73870(14) 0.6344(5)
N2_2 N 0.53527(15) 0.90877(13) 0.5736(5)
C65_2 C 0.64564(18) 0.77187(19) 0.6302(6)
C66_2 C 0.65257(18) 0.82009(18) 0.6297(6)
C67_2 C 0.65799(18) 0.69610(19) 0.6329(6)
C68_2 C 0.60092(19) 0.7497(2) 0.6285(7)
H41_2 H 0.5712 0.7648 0.6273
C69_2 C 0.60865(18) 0.70334(18) 0.6288(7)
H42_2 H 0.5853 0.6795 0.6268
C70_2 C 0.61039(17) 0.85058(17) 0.6124(6)
C71_2 C 0.5869(2) 0.8513(2) 0.4932(6)
H43_2 H 0.5969 0.8313 0.4253
C72_2 C 0.5497(2) 0.8806(2) 0.4752(6)
H44_2 H 0.5340 0.8815 0.3945
C73_2 C 0.55609(19) 0.9075(2) 0.6884(7)
H45_2 H 0.5445 0.9266 0.7564
C74_2 C 0.59367(18) 0.8794(2) 0.7099(7)
H46_2 H 0.6086 0.8794 0.7918
C75_2 C 0.49549(19) 0.94024(18) 0.5509(6)
H47_2 H 0.4952 0.9649 0.6166
H48_2 H 0.4984 0.9545 0.4653
H49_2 H 0.4662 0.9224 0.5555
N3_2 N 0.73870(14) 0.81976(14) 0.6344(5)
N4_2 N 0.81976(14) 0.76130(14) 0.6344(5)
N5_2 N 0.76130(14) 0.68024(14) 0.6344(5)
N6_2 N 0.90877(13) 0.96473(15) 0.5736(5)
N7_2 N 0.96473(15) 0.59123(13) 0.5736(5)
N8_2 N 0.59123(13) 0.53527(15) 0.5736(5)
C76_2 C 0.77187(19) 0.85436(18) 0.6302(6)
C77_2 C 0.85436(18) 0.72813(19) 0.6302(6)
C78_2 C 0.72813(19) 0.64564(18) 0.6302(6)
C79_2 C 0.82009(18) 0.84743(18) 0.6297(6)
C80_2 C 0.84743(18) 0.67991(18) 0.6297(6)
C81_2 C 0.67991(18) 0.65257(18) 0.6297(6)
C82_2 C 0.69610(19) 0.84201(18) 0.6329(6)
C83_2 C 0.84201(18) 0.80390(19) 0.6329(6)
C84_2 C 0.80390(19) 0.65799(18) 0.6329(6)
C85_2 C 0.7503(2) 0.60092(19) 0.6285(7)
C86_2 C 0.89908(19) 0.7503(2) 0.6285(7)
C87_2 C 0.7497(2) 0.89908(19) 0.6285(7)
H50_2 H 0.7352 0.5712 0.6273
H51_2 H 0.9288 0.7352 0.6273
H52_2 H 0.7648 0.9288 0.6273
C88_2 C 0.79666(18) 0.60865(18) 0.6288(7)
C89_2 C 0.89135(18) 0.79666(18) 0.6288(7)
C90_2 C 0.70334(18) 0.89135(18) 0.6288(7)
H53_2 H 0.8205 0.5853 0.6268
H54_2 H 0.9147 0.8205 0.6268
H55_2 H 0.6795 0.9147 0.6268
C91_2 C 0.85058(17) 0.88961(17) 0.6124(6)
C92_2 C 0.88961(17) 0.64942(17) 0.6124(6)
C93_2 C 0.64942(17) 0.61039(17) 0.6124(6)
C94_2 C 0.8513(2) 0.9131(2) 0.4932(6)
C95_2 C 0.9131(2) 0.6487(2) 0.4932(6)
C96_2 C 0.6487(2) 0.5869(2) 0.4932(6)
H56_2 H 0.8313 0.9031 0.4253
H57_2 H 0.9031 0.6687 0.4253
H58_2 H 0.6687 0.5969 0.4253
C97_2 C 0.8806(2) 0.9503(2) 0.4752(6)
C98_2 C 0.9503(2) 0.6194(2) 0.4752(6)
C99_2 C 0.6194(2) 0.5497(2) 0.4752(6)
H59_2 H 0.8815 0.9660 0.3945
H60_2 H 0.9660 0.6185 0.3945
H61_2 H 0.6185 0.5340 0.3945
C100_2 C 0.9075(2) 0.94391(19) 0.6884(7)
C101_2 C 0.94391(19) 0.5925(2) 0.6884(7)
C102_2 C 0.5925(2) 0.55609(19) 0.6884(7)
H62_2 H 0.9266 0.9555 0.7564
H63_2 H 0.9555 0.5734 0.7564
H64_2 H 0.5734 0.5445 0.7564
C103_2 C 0.8794(2) 0.90633(18) 0.7099(7)
C104_2 C 0.90633(18) 0.6206(2) 0.7099(7)
C105_2 C 0.6206(2) 0.59367(18) 0.7099(7)
H65_2 H 0.8794 0.8914 0.7918
H66_2 H 0.8914 0.6206 0.7918
H67_2 H 0.6206 0.6086 0.7918
C108_2 C 0.55976(18) 0.49549(19) 0.5509(6)
H70_2 H 0.5351 0.4952 0.6166
H73_2 H 0.5455 0.4984 0.4653
H76_2 H 0.5776 0.4662 0.5555
Cl6 Cl 0.6346(4) 0.7693(4) 0.0966(11)
Cl6_2 Cl 0.7307(4) 0.6346(4) 0.0966(11)
Cl6_3 Cl 0.7693(4) 0.8654(4) 0.0966(11)
Cl6_4 Cl 0.8654(4) 0.7307(4) 0.0966(11)
Cl6_5 Cl 0.3654(4) 0.2307(4) 0.9034(11)
Cl6_6 Cl 0.2693(4) 0.3654(4) 0.9034(11)
Cl6_7 Cl 0.2307(4) 0.1346(4) 0.9034(11)
Cl6_8 Cl 0.1346(4) 0.2693(4) 0.9034(11)
loop_
_geom_bond_atom_site_label_1
_geom_bond_atom_site_label_2
_geom_bond_site_symmetry_1
_geom_bond_site_symmetry_2
Mn5_2 Cl4 1_555 1_555
Mn9 Cl4 1_555 1_555
O33 Mn9 1_555 1_555
O38 Mn9 1_555 1_555
O41 Mn9 1_555 1_555
C64 O41 1_555 1_555
H34 C64 1_555 1_555
H37 C64 1_555 1_555
H40 C64 1_555 1_555
Mn1 Cl1 1_555 1_555
Mn2 Cl1 1_555 1_555
O1 Mn1 1_555 1_555
O2 C12 1_555 1_555
O3 C12 1_555 1_555
O4 C11 1_555 1_555
O5 C11 1_555 1_555
C1 O1 1_555 1_555
C2 C1 1_555 1_555
C3 C2 1_555 1_555
H1 C3 1_555 1_555
C4 C3 1_555 1_555
C5 C4 1_555 1_555
C6 H2 1_555 1_555
C7 C5 1_555 1_555
H3 C7 1_555 1_555
C8 C4 1_555 1_555
H4 C8 1_555 1_555
C9 C8 1_555 1_555
C10 C2 1_555 1_555
H5 C10 1_555 1_555
C11 C9 1_555 1_555
C12 C13 1_555 1_555
C13 C6 1_555 1_555
C14 C7 1_555 1_555
H6 C14 1_555 1_555
C15 C5 1_555 1_555
H7 C15 1_555 1_555
O7 Mn2 1_555 1_555
C16 O7 1_555 1_555
H8 C16 1_555 1_555
H9 C16 1_555 1_555
H10 C16 1_555 1_555
Mn6 O8 1_555 1_555
Mn5 O2 1_555 1_555
Mn10 O4 1_555 1_555
Mn11 O20 1_555 1_555
Mn15 O36 1_555 1_555
O8 C17 1_555 1_555
O11 Mn5 1_555 1_555
O13 Mn1 1_555 1_555
O17 Mn2 1_555 1_555
O20 C47 1_555 1_555
O23 Mn2 1_555 1_555
O27 Mn11 1_555 1_555
O30 Mn2 1_555 1_555
O35 Mn2 1_555 1_555
C17 C20 1_555 1_555
C20 C23 1_555 1_555
C23 H11 1_555 1_555
C26 C23 1_555 1_555
C29 C26 1_555 1_555
C32 H14 1_555 1_555
C35 C29 1_555 1_555
H17 C35 1_555 1_555
C38 C26 1_555 1_555
H20 C38 1_555 1_555
C41 C38 1_555 1_555
C44 C20 1_555 1_555
H23 C44 1_555 1_555
C47 O27 1_555 1_555
C50 O13 1_555 1_555
C53 C32 1_555 1_555
C56 C35 1_555 1_555
H26 C56 1_555 1_555
C59 C29 1_555 1_555
H29 C59 1_555 1_555
O5 Mn10 1_555 1_555
C6 C15 1_555 1_555
C9 C10 1_555 1_555
C13 C14 1_555 1_555
O17 C50 1_555 1_555
C32 C59 1_555 1_555
C41 C44 1_555 1_555
C41 C47 1_555 1_555
C50 C53 1_555 1_555
C53 C56 1_555 1_555
Mn6_4 O10 1_555 1_555
Mn10 O6 1_555 1_555
Mn11 O34 1_555 1_555
Mn15 O22 1_555 1_555
Cl2 Mn1_2 1_555 1_555
O9 Mn1_2 1_555 1_555
O10 C19 1_555 1_555
O14 Mn5_4 1_555 1_555
O15 Mn1_2 1_555 1_555
O19 Mn10 1_555 1_555
O23 C48 1_555 1_555
O22 C49 1_555 1_555
O29 Mn15 1_555 1_555
C18 O9 1_555 1_555
C19 C22 1_555 1_555
C21 C18 1_555 1_555
C22 C25 1_555 1_555
C24 C21 1_555 1_555
C25 H13 1_555 1_555
H12 C24 1_555 1_555
C27 C24 1_555 1_555
C28 C25 1_555 1_555
C30 C27 1_555 1_555
C31 C28 1_555 1_555
C33 H15 1_555 1_555
C34 H16 1_555 1_555
C36 C30 1_555 1_555
C37 C31 1_555 1_555
H18 C36 1_555 1_555
H19 C37 1_555 1_555
C39 C27 1_555 1_555
C40 C28 1_555 1_555
H21 C39 1_555 1_555
H22 C40 1_555 1_555
C42 C39 1_555 1_555
C43 C40 1_555 1_555
C45 C21 1_555 1_555
C46 C22 1_555 1_555
H24 C45 1_555 1_555
H25 C46 1_555 1_555
C48 O30 1_555 1_555
C49 O29 1_555 1_555
C51 O14 1_555 1_555
C52 O15 1_555 1_555
C54 C33 1_555 1_555
C55 C34 1_555 1_555
C57 C36 1_555 1_555
C58 C37 1_555 1_555
H27 C57 1_555 1_555
H28 C58 1_555 1_555
C60 C30 1_555 1_555
C61 C31 1_555 1_555
H30 C60 1_555 1_555
H31 C61 1_555 1_555
O39 Mn10 1_555 1_555
C62 O39 1_555 1_555
H32 C62 1_555 1_555
H35 C62 1_555 1_555
H38 C62 1_555 1_555
Mn10 Cl2 1_555 1_555
O18 C51 1_555 1_555
O19 C52 1_555 1_555
C33 C60 1_555 1_555
C34 C61 1_555 1_555
C42 C45 1_555 1_555
C42 C48 1_555 1_555
C43 C46 1_555 1_555
C43 C49 1_555 1_555
C51 C54 1_555 1_555
C52 C55 1_555 1_555
C54 C57 1_555 1_555
C55 C58 1_555 1_555
Cl3 Mn5_3 1_555 1_555
O32 Mn8 1_555 1_555
O37 Mn8 1_555 1_555
O40 Mn8 1_555 1_555
C63 O40 1_555 1_555
H33 C63 1_555 1_555
H36 C63 1_555 1_555
H39 C63 1_555 1_555
Mn8 Cl3 1_555 1_555
O12 Mn5_4 1_555 1_555
Mn6_5 O8_2 1_555 1_555
O8_2 C17_2 1_555 1_555
O27_2 Mn11_2 1_555 1_555
Mn11_2 O34_2 1_555 1_555
Cl2_2 Mn6_2 1_555 1_555
O15_2 Mn6_2 1_555 1_555
O19_2 Mn11 1_555 1_555
O22_2 C49_2 1_555 1_555
C22_2 C25_2 1_555 1_555
C25_2 H13_2 1_555 1_555
C28_2 C25_2 1_555 1_555
C31_2 C28_2 1_555 1_555
C37_2 C31_2 1_555 1_555
H19_2 C37_2 1_555 1_555
C40_2 C28_2 1_555 1_555
H22_2 C40_2 1_555 1_555
C43_2 C40_2 1_555 1_555
C46_2 C22_2 1_555 1_555
C52_2 O15_2 1_555 1_555
C55_2 C34_2 1_555 1_555
C58_2 C37_2 1_555 1_555
H28_2 C58_2 1_555 1_555
C61_2 C31_2 1_555 1_555
O39_2 Mn11 1_555 1_555
C62_2 O39_2 1_555 1_555
H32_2 C62_2 1_555 1_555
H35_2 C62_2 1_555 1_555
H38_2 C62_2 1_555 1_555
Mn11 Cl2_2 1_555 1_555
O19_2 C52_2 1_555 1_555
C34_2 C61_2 1_555 1_555
C43_2 C46_2 1_555 1_555
C43_2 C49_2 1_555 1_555
C52_2 C55_2 1_555 1_555
C55_2 C58_2 1_555 1_555
Mn6_3 Cl1_2 1_555 1_555
Mn15 Cl1_2 1_555 1_555
O7_2 Mn15 1_555 1_555
C16_2 O7_2 1_555 1_555
H8_2 C16_2 1_555 1_555
H9_2 C16_2 1_555 1_555
H10_2 C16_2 1_555 1_555
Mn15_2 O36_2 1_555 1_555
O13_2 Mn6_3 1_555 1_555
O17_2 Mn15 1_555 1_555
O20_2 C47_2 1_555 1_555
C20_2 C23_2 1_555 1_555
C23_2 H11_2 1_555 1_555
C26_2 C23_2 1_555 1_555
C29_2 C26_2 1_555 1_555
C35_2 C29_2 1_555 1_555
H17_2 C35_2 1_555 1_555
C38_2 C26_2 1_555 1_555
H20_2 C38_2 1_555 1_555
C41_2 C38_2 1_555 1_555
C44_2 C20_2 1_555 1_555
C50_2 O13_2 1_555 1_555
C53_2 C32_2 1_555 1_555
C56_2 C35_2 1_555 1_555
H26_2 C56_2 1_555 1_555
C59_2 C29_2 1_555 1_555
O17_2 C50_2 1_555 1_555
C32_2 C59_2 1_555 1_555
C41_2 C44_2 1_555 1_555
C41_2 C47_2 1_555 1_555
C50_2 C53_2 1_555 1_555
C53_2 C56_2 1_555 1_555
Mn6_12 O10_2 1_555 1_555
O10_2 C19_2 1_555 1_555
O29_2 Mn15_2 1_555 1_555
Mn6_6 Cl4_2 1_555 1_555
Mn11_2 Cl4_2 1_555 1_555
O41_2 Mn11_2 1_555 1_555
C64_2 O41_2 1_555 1_555
H34_2 C64_2 1_555 1_555
H37_2 C64_2 1_555 1_555
H40_2 C64_2 1_555 1_555
C1_2 O11 1_555 1_555
O14_2 Mn6_10 1_555 1_555
O25 C48_2 1_555 1_555
C24_2 C21_2 1_555 1_555
H12_2 C24_2 1_555 1_555
C27_2 C24_2 1_555 1_555
C30_2 C27_2 1_555 1_555
C36_2 C30_2 1_555 1_555
H18_2 C36_2 1_555 1_555
C39_2 C27_2 1_555 1_555
H21_2 C39_2 1_555 1_555
C42_2 C39_2 1_555 1_555
C45_2 C21_2 1_555 1_555
C51_2 O14_2 1_555 1_555
C54_2 C33_2 1_555 1_555
C57_2 C36_2 1_555 1_555
H27_2 C57_2 1_555 1_555
C60_2 C30_2 1_555 1_555
O18_2 C51_2 1_555 1_555
C33_2 C60_2 1_555 1_555
C42_2 C45_2 1_555 1_555
C42_2 C48_2 1_555 1_555
C51_2 C54_2 1_555 1_555
C54_2 C57_2 1_555 1_555
O2_2 C12_2 1_555 1_555
O3_2 C12_2 1_555 1_555
O26 C11_2 1_555 1_555
C3_2 C2_2 1_555 1_555
H1_2 C3_2 1_555 1_555
C4_2 C3_2 1_555 1_555
C5_2 C4_2 1_555 1_555
C7_2 C5_2 1_555 1_555
H3_2 C7_2 1_555 1_555
C8_2 C4_2 1_555 1_555
H4_2 C8_2 1_555 1_555
C9_2 C8_2 1_555 1_555
C10_2 C2_2 1_555 1_555
C11_2 C9_2 1_555 1_555
C12_2 C13_2 1_555 1_555
C13_2 C6_2 1_555 1_555
C14_2 C7_2 1_555 1_555
H6_2 C14_2 1_555 1_555
C15_2 C5_2 1_555 1_555
Mn6_7 O2_2 1_555 1_555
C6_2 C15_2 1_555 1_555
C9_2 C10_2 1_555 1_555
C13_2 C14_2 1_555 1_555
C18_2 O12 1_555 1_555
Cl3_2 Mn6_11 1_555 1_555
O40_2 Mn15_2 1_555 1_555
C63_2 O40_2 1_555 1_555
H33_2 C63_2 1_555 1_555
H36_2 C63_2 1_555 1_555
H39_2 C63_2 1_555 1_555
Mn15_2 Cl3_2 1_555 1_555
Mn17 O42 1_555 1_555
O43 Mn17 1_555 1_555
N1 Mn17 1_555 1_555
N2 C72 1_555 1_555
C65 N1 1_555 1_555
C66 C65 1_555 1_555
C67 N1 1_555 1_555
C68 C65 1_555 1_555
H41 C68 1_555 1_555
C69 C67 1_555 1_555
H42 C69 1_555 1_555
C70 C66 1_555 1_555
C71 C70 1_555 1_555
H43 C71 1_555 1_555
C72 C71 1_555 1_555
H44 C72 1_555 1_555
C73 N2 1_555 1_555
H45 C73 1_555 1_555
C74 C70 1_555 1_555
H46 C74 1_555 1_555
C75 N2 1_555 1_555
H47 C75 1_555 1_555
H48 C75 1_555 1_555
H49 C75 1_555 1_555
N3 Mn17 1_555 1_555
N4 Mn17 1_555 1_555
N5 Mn17 1_555 1_555
N6 C97 1_555 1_555
N7 C98 1_555 1_555
N8 C99 1_555 1_555
C76 N3 1_555 1_555
C77 N4 1_555 1_555
C78 N5 1_555 1_555
C79 C76 1_555 1_555
C80 C77 1_555 1_555
C81 C67 1_555 1_555
C82 C66 1_555 1_555
C83 N4 1_555 1_555
C84 N5 1_555 1_555
C85 C78 1_555 1_555
C86 C77 1_555 1_555
C87 C76 1_555 1_555
H50 C85 1_555 1_555
H51 C86 1_555 1_555
H52 C87 1_555 1_555
C88 C84 1_555 1_555
C89 C83 1_555 1_555
C90 C82 1_555 1_555
H53 C88 1_555 1_555
H54 C89 1_555 1_555
H55 C90 1_555 1_555
C91 C79 1_555 1_555
C92 C80 1_555 1_555
C93 C81 1_555 1_555
C94 C91 1_555 1_555
C95 C92 1_555 1_555
C96 C93 1_555 1_555
H56 C94 1_555 1_555
H57 C95 1_555 1_555
H58 C96 1_555 1_555
C97 C94 1_555 1_555
C98 C95 1_555 1_555
C99 C96 1_555 1_555
H59 C97 1_555 1_555
H60 C98 1_555 1_555
H61 C99 1_555 1_555
C100 N6 1_555 1_555
C101 N7 1_555 1_555
C102 N8 1_555 1_555
H62 C100 1_555 1_555
H63 C101 1_555 1_555
H64 C102 1_555 1_555
C103 C91 1_555 1_555
C104 C92 1_555 1_555
C105 C93 1_555 1_555
H65 C103 1_555 1_555
H66 C104 1_555 1_555
H67 C105 1_555 1_555
C108 N8 1_555 1_555
H70 C108 1_555 1_555
H73 C108 1_555 1_555
H76 C108 1_555 1_555
C68 C69 1_555 1_555
C73 C74 1_555 1_555
N3 C82 1_555 1_555
C78 C81 1_555 1_555
C79 C83 1_555 1_555
C80 C84 1_555 1_555
C85 C88 1_555 1_555
C86 C89 1_555 1_555
C87 C90 1_555 1_555
C100 C103 1_555 1_555
C101 C104 1_555 1_555
C102 C105 1_555 1_555
H68 C106 1_555 1_555
H71 C106 1_555 1_555
H74 C106 1_555 1_555
H69 C107 1_555 1_555
H72 C107 1_555 1_555
H75 C107 1_555 1_555
H69_2 C107_2 1_555 1_555
H72_2 C107_2 1_555 1_555
H75_2 C107_2 1_555 1_555
H68_2 C106_2 1_555 1_555
H71_2 C106_2 1_555 1_555
H74_2 C106_2 1_555 1_555
Mn17_2 O42_2 1_555 1_555
O43_2 Mn17_2 1_555 1_555
N1_2 Mn17_2 1_555 1_555
N2_2 C72_2 1_555 1_555
C65_2 N1_2 1_555 1_555
C66_2 C65_2 1_555 1_555
C67_2 N1_2 1_555 1_555
C68_2 C65_2 1_555 1_555
H41_2 C68_2 1_555 1_555
C69_2 C67_2 1_555 1_555
H42_2 C69_2 1_555 1_555
C70_2 C66_2 1_555 1_555
C71_2 C70_2 1_555 1_555
H43_2 C71_2 1_555 1_555
C72_2 C71_2 1_555 1_555
H44_2 C72_2 1_555 1_555
C73_2 N2_2 1_555 1_555
H45_2 C73_2 1_555 1_555
C74_2 C70_2 1_555 1_555
H46_2 C74_2 1_555 1_555
C75_2 N2_2 1_555 1_555
H47_2 C75_2 1_555 1_555
H48_2 C75_2 1_555 1_555
H49_2 C75_2 1_555 1_555
N3_2 Mn17_2 1_555 1_555
N4_2 Mn17_2 1_555 1_555
N5_2 Mn17_2 1_555 1_555
N6_2 C97_2 1_555 1_555
N7_2 C98_2 1_555 1_555
N8_2 C99_2 1_555 1_555
C76_2 N3_2 1_555 1_555
C77_2 N4_2 1_555 1_555
C78_2 N5_2 1_555 1_555
C79_2 C76_2 1_555 1_555
C80_2 C77_2 1_555 1_555
C81_2 C67_2 1_555 1_555
C82_2 C66_2 1_555 1_555
C83_2 N4_2 1_555 1_555
C84_2 N5_2 1_555 1_555
C85_2 C78_2 1_555 1_555
C86_2 C77_2 1_555 1_555
C87_2 C76_2 1_555 1_555
H50_2 C85_2 1_555 1_555
H51_2 C86_2 1_555 1_555
H52_2 C87_2 1_555 1_555
C88_2 C84_2 1_555 1_555
C89_2 C83_2 1_555 1_555
C90_2 C82_2 1_555 1_555
H53_2 C88_2 1_555 1_555
H54_2 C89_2 1_555 1_555
H55_2 C90_2 1_555 1_555
C91_2 C79_2 1_555 1_555
C92_2 C80_2 1_555 1_555
C93_2 C81_2 1_555 1_555
C94_2 C91_2 1_555 1_555
C95_2 C92_2 1_555 1_555
C96_2 C93_2 1_555 1_555
H56_2 C94_2 1_555 1_555
H57_2 C95_2 1_555 1_555
H58_2 C96_2 1_555 1_555
C97_2 C94_2 1_555 1_555
C98_2 C95_2 1_555 1_555
C99_2 C96_2 1_555 1_555
H59_2 C97_2 1_555 1_555
H60_2 C98_2 1_555 1_555
H61_2 C99_2 1_555 1_555
C100_2 N6_2 1_555 1_555
C101_2 N7_2 1_555 1_555
C102_2 N8_2 1_555 1_555
H62_2 C100_2 1_555 1_555
H63_2 C101_2 1_555 1_555
H64_2 C102_2 1_555 1_555
C103_2 C91_2 1_555 1_555
C104_2 C92_2 1_555 1_555
C105_2 C93_2 1_555 1_555
H65_2 C103_2 1_555 1_555
H66_2 C104_2 1_555 1_555
H67_2 C105_2 1_555 1_555
C108_2 N8_2 1_555 1_555
H70_2 C108_2 1_555 1_555
H73_2 C108_2 1_555 1_555
H76_2 C108_2 1_555 1_555
C68_2 C69_2 1_555 1_555
C73_2 C74_2 1_555 1_555
N3_2 C82_2 1_555 1_555
C78_2 C81_2 1_555 1_555
C79_2 C83_2 1_555 1_555
C80_2 C84_2 1_555 1_555
C85_2 C88_2 1_555 1_555
C86_2 C89_2 1_555 1_555
C87_2 C90_2 1_555 1_555
C100_2 C103_2 1_555 1_555
C101_2 C104_2 1_555 1_555
C102_2 C105_2 1_555 1_555

#END
