
###############################################################################
#
# This file contains modified crystal structure data generated from the
# MOF subset of the Cambridge Structural Database (CSD) v543 
# hosted by the Cambridge Crystallographic Data Centre (CCDC).
#
# This work is licensed under the Creative Commons
# Attribution-NonCommercial-ShareAlike 4.0 International License.
# To view a copy of this license, visit
# http://creativecommons.org/licenses/by-nc-sa/4.0/
# or send a letter to
# Creative Commons, PO Box 1866, Mountain View, CA 94042, USA.
#
# CIF created using the CSD Python API on 29 September 2022
# The structure has been converted into the P1 space group
# The structure has a 3D framework
# The original CSD entry DANZAV is in the tetragonal crystal system
# The framework has been calculated to contain at least 10.0% void space
# The void calculation uses a probe of radius 1.32A, grid spacing 0.4
# The framework is charged, counterions have been retained in the structure
# H atom positions have been added when not included in the experimental data
# Generated hydrogen atom positions removed from atoms on special positions
#
###############################################################################

data_DANZAV
_chemical_formula_moiety         '(C208 H168 Cd22 Cl8 N16 O46)n'
_symmetry_cell_setting           triclinic
_symmetry_space_group_name_H-M   'P 1'
_symmetry_Int_Tables_number      1
_space_group_name_Hall           'P 1'
loop_
_symmetry_equiv_pos_site_id
_symmetry_equiv_pos_as_xyz
1 x,y,z
_cell_length_a                   28.9318(4)
_cell_length_b                   28.9318(4)
_cell_length_c                   10.3646(3)
_cell_angle_alpha                90
_cell_angle_beta                 90
_cell_angle_gamma                90
_cell_volume                     8675.68
loop_
_atom_site_label
_atom_site_type_symbol
_atom_site_fract_x
_atom_site_fract_y
_atom_site_fract_z
Cd15 Cd 0.0000 0.0000 0.0000
Cd15_2 Cd -0.0000 -0.0000 1.0000
Cd15_3 Cd 0.0000 1.0000 0.0000
Cd15_4 Cd -0.0000 1.0000 1.0000
Cd2 Cd 0.5000 0.0000 0.0000
C6 C 0.2934(2) 0.0015(3) 0.1505(8)
H3 H 0.2774 0.0247 0.1032
H4 H 0.3552 0.0127 0.0642
H6 H 0.0926 0.0026 0.3059
C15 C 0.1142(2) 0.0071(2) 0.0548(7)
O4 O 0.07312(15) 0.01886(17) 0.0710(5)
O7 O 0.09061(18) 0.00905(16) 0.5446(5)
Cd4 Cd 0.594506(16) 0.511580(16) 0.23176(5)
Cd7 Cd 0.094506(16) 0.011580(16) 0.76824(5)
Cd10 Cd 0.488420(16) 0.094506(16) 0.76824(5)
Cd13 Cd 0.5000 0.5000 0.0000
Cd15_5 Cd 1.0000 0.0000 0.0000
Cl4 Cl 0.51083(7) 0.54006(6) 0.22063(19)
C17 C 0.5488(2) 0.4138(2) 0.1611(7)
C20 C 0.5407(2) 0.3632(2) 0.1897(7)
C23 C 0.5661(3) 0.3402(2) 0.2827(7)
H9 H 0.5895 0.3563 0.3290
C26 C 0.5578(3) 0.2941(3) 0.3089(8)
H12 H 0.5756 0.2788 0.3730
C29 C 0.5237(2) 0.2698(2) 0.2426(7)
C32 C 0.4985(3) 0.2934(2) 0.1505(8)
H15 H 0.4753 0.2774 0.1032
C35 C 0.5060(3) 0.3396(2) 0.1255(8)
H18 H 0.4873 0.3552 0.0642
C38 C 0.5162(2) 0.2196(2) 0.2640(7)
C41 C 0.5084(2) 0.1907(2) 0.1580(7)
H21 H 0.5081 0.2037 0.0738
C44 C 0.5013(2) 0.1439(2) 0.1723(7)
C47 C 0.5013(2) 0.1250(2) 0.2952(7)
H24 H 0.4974 0.0926 0.3059
C50 C 0.5071(2) 0.1529(2) 0.4027(7)
C53 C 0.5148(2) 0.2005(2) 0.3851(7)
H27 H 0.5192 0.2198 0.4583
C56 C 0.5015(2) 0.1330(2) 0.5356(7)
C59 C 0.4929(2) 0.1142(2) 0.0548(7)
O9 O 0.57955(18) 0.43390(16) 0.2233(5)
O12 O 0.52217(18) 0.43161(17) 0.0789(5)
O18 O 0.63390(16) 0.50116(18) 0.0519(5)
O21 O 0.48114(17) 0.07312(15) 0.0710(5)
O23 O 0.42688(15) 0.48114(17) 0.0710(5)
O26 O 0.6148(2) 0.5906(2) 0.2094(7)
O29 O 0.50660(17) 0.1588(2) 0.6320(5)
O33 O 0.6588(2) 0.49340(17) 0.3680(5)
O36 O 0.49095(16) 0.09061(18) 0.5446(5)
O40 O 0.59061(18) 0.50905(16) 0.4554(5)
Cd2_2 Cd 0.5000 -0.0000 1.0000
Cl1 Cl 0.45994(6) 0.01083(7) 0.77937(19)
O3 O 0.13390(16) 0.00116(18) 0.9481(5)
O5 O 0.4094(2) 0.1148(2) 0.7906(7)
Cd12 Cd 0.405494(16) 0.488420(16) 0.76824(5)
Cd13_2 Cd 0.5000 0.5000 1.0000
Cd15_6 Cd 1.0000 -0.0000 1.0000
Cl3 Cl 0.48917(7) 0.45994(6) 0.77937(19)
C16 C 0.5862(2) 0.0488(2) 0.8389(7)
C19 C 0.6368(2) 0.0407(2) 0.8103(7)
C22 C 0.6598(2) 0.0661(3) 0.7173(7)
H8 H 0.6437 0.0895 0.6710
C25 C 0.7059(3) 0.0578(3) 0.6911(8)
H11 H 0.7212 0.0756 0.6270
C28 C 0.7302(2) 0.0237(2) 0.7574(7)
C34 C 0.6604(2) 0.0060(3) 0.8745(8)
C37 C 0.7804(2) 0.0162(2) 0.7360(7)
C40 C 0.8093(2) 0.0084(2) 0.8420(7)
H20 H 0.7963 0.0081 0.9262
C43 C 0.8561(2) 0.0013(2) 0.8277(7)
C46 C 0.8750(2) 0.0013(2) 0.7048(7)
C49 C 0.8471(2) 0.0071(2) 0.5973(7)
C52 C 0.7995(2) 0.0148(2) 0.6149(7)
H26 H 0.7802 0.0192 0.5417
C55 C 0.8670(2) 0.0015(2) 0.4644(7)
O8 O 0.56610(16) 0.07955(18) 0.7767(5)
O11 O 0.56839(17) 0.02217(18) 0.9211(5)
O14 O 0.47783(18) 0.56839(17) 0.9211(5)
O16 O 0.49884(18) 0.13390(16) 0.9481(5)
O24 O 0.57312(15) 0.51886(17) 0.9290(5)
O28 O 0.8412(2) 0.00660(17) 0.3680(5)
Cd2_3 Cd 0.5000 1.0000 0.0000
C1 C 0.4138(2) 0.9512(2) 0.1611(7)
C2 C 0.3632(2) 0.9593(2) 0.1897(7)
C3 C 0.3402(2) 0.9339(3) 0.2827(7)
H1 H 0.3563 0.9105 0.3290
C4 C 0.2941(3) 0.9422(3) 0.3089(8)
H2 H 0.2788 0.9244 0.3730
C5 C 0.2698(2) 0.9763(2) 0.2426(7)
C7 C 0.3396(2) 0.9940(3) 0.1255(8)
C8 C 0.2196(2) 0.9838(2) 0.2640(7)
C9 C 0.1907(2) 0.9916(2) 0.1580(7)
H5 H 0.2037 0.9919 0.0738
C10 C 0.1439(2) 0.9987(2) 0.1723(7)
C11 C 0.1250(2) 0.9987(2) 0.2952(7)
C12 C 0.1529(2) 0.9929(2) 0.4027(7)
C13 C 0.2005(2) 0.9852(2) 0.3851(7)
H7 H 0.2198 0.9808 0.4583
C14 C 0.1330(2) 0.9985(2) 0.5356(7)
O1 O 0.43390(16) 0.92045(18) 0.2233(5)
O2 O 0.43161(17) 0.97783(18) 0.0789(5)
O6 O 0.1588(2) 0.99340(17) 0.6320(5)
Cd3 Cd 0.511580(16) 0.905494(16) 0.23176(5)
Cd8 Cd 0.905494(16) 0.988420(16) 0.23176(5)
Cd15_7 Cd 1.0000 1.0000 0.0000
Cl2 Cl 0.54006(6) 0.98917(7) 0.22063(19)
O15 O 0.86610(16) 0.99884(18) 0.0519(5)
O17 O 0.50116(18) 0.86610(16) 0.0519(5)
O25 O 0.5906(2) 0.8852(2) 0.2094(7)
O32 O 0.49340(17) 0.8412(2) 0.3680(5)
O39 O 0.50905(16) 0.90939(18) 0.4554(5)
Cd2_4 Cd 0.5000 1.0000 1.0000
Cd15_8 Cd 1.0000 1.0000 1.0000
C18 C 0.4512(2) 0.5862(2) 0.8389(7)
C21 C 0.4593(2) 0.6368(2) 0.8103(7)
C24 C 0.4339(3) 0.6598(2) 0.7173(7)
H10 H 0.4105 0.6437 0.6710
C27 C 0.4422(3) 0.7059(3) 0.6911(8)
H13 H 0.4244 0.7212 0.6270
C30 C 0.4763(2) 0.7302(2) 0.7574(7)
C31 C 0.7066(2) 0.9985(3) 0.8495(8)
C33 C 0.5015(3) 0.7066(2) 0.8495(8)
H14 H 0.7226 0.9753 0.8968
H16 H 0.5247 0.7226 0.8968
C36 C 0.4940(3) 0.6604(2) 0.8745(8)
H17 H 0.6448 0.9873 0.9358
H19 H 0.5127 0.6448 0.9358
C39 C 0.4838(2) 0.7804(2) 0.7360(7)
C42 C 0.4916(2) 0.8093(2) 0.8420(7)
H22 H 0.4919 0.7963 0.9262
C45 C 0.4987(2) 0.8561(2) 0.8277(7)
C48 C 0.4987(2) 0.8750(2) 0.7048(7)
H23 H 0.9074 0.9974 0.6941
H25 H 0.5026 0.9074 0.6941
C51 C 0.4929(2) 0.8471(2) 0.5973(7)
C54 C 0.4852(2) 0.7995(2) 0.6149(7)
H28 H 0.4808 0.7802 0.5417
C57 C 0.4985(2) 0.8670(2) 0.4644(7)
C58 C 0.8858(2) 0.9929(2) 0.9452(7)
C60 C 0.5071(2) 0.8858(2) 0.9452(7)
O10 O 0.42045(18) 0.56610(16) 0.7767(5)
O19 O 0.36610(16) 0.49884(18) 0.9481(5)
O20 O 0.92688(15) 0.98114(17) 0.9290(5)
O22 O 0.51886(17) 0.92688(15) 0.9290(5)
O27 O 0.3852(2) 0.4094(2) 0.7906(7)
O34 O 0.3412(2) 0.50660(17) 0.6320(5)
O35 O 0.90939(18) 0.99095(16) 0.4554(5)
O41 O 0.40939(18) 0.49095(16) 0.5446(5)
Cd16 Cd 0.0000 0.5000 0.0000
Cd5 Cd 0.011580(16) 0.405494(16) 0.76824(5)
Cd16_2 Cd -0.0000 0.5000 1.0000
Cl5 Cl 0.04006(6) 0.48917(7) 0.77937(19)
O19_2 O 0.00116(18) 0.36610(16) 0.9481(5)
O27_2 O 0.0906(2) 0.3852(2) 0.7906(7)
O41_2 O 0.00905(16) 0.40939(18) 0.5446(5)
Cd16_3 Cd 1.0000 0.5000 0.0000
C17_2 C 0.0862(2) 0.5488(2) 0.1611(7)
C20_2 C 0.1368(2) 0.5407(2) 0.1897(7)
C23_2 C 0.1598(2) 0.5661(3) 0.2827(7)
H9_2 H 0.1437 0.5895 0.3290
C26_2 C 0.2059(3) 0.5578(3) 0.3089(8)
H12_2 H 0.2212 0.5756 0.3730
C29_2 C 0.2302(2) 0.5237(2) 0.2426(7)
C32_2 C 0.2066(2) 0.4985(3) 0.1505(8)
H15_2 H 0.2226 0.4753 0.1032
C35_2 C 0.1604(2) 0.5060(3) 0.1255(8)
H18_2 H 0.1448 0.4873 0.0642
C38_2 C 0.2804(2) 0.5162(2) 0.2640(7)
C41_2 C 0.3093(2) 0.5084(2) 0.1580(7)
H21_2 H 0.2963 0.5081 0.0738
C44_2 C 0.3561(2) 0.5013(2) 0.1723(7)
C47_2 C 0.3750(2) 0.5013(2) 0.2952(7)
H24_2 H 0.4074 0.4974 0.3059
C50_2 C 0.3471(2) 0.5071(2) 0.4027(7)
C53_2 C 0.2995(2) 0.5148(2) 0.3851(7)
H27_2 H 0.2802 0.5192 0.4583
C56_2 C 0.3670(2) 0.5015(2) 0.5356(7)
C59_2 C 0.3858(2) 0.4929(2) 0.0548(7)
O9_2 O 0.06610(16) 0.57955(18) 0.2233(5)
O12_2 O 0.06839(17) 0.52217(18) 0.0789(5)
O23_2 O 0.01886(17) 0.42688(15) 0.0710(5)
O33_2 O 0.00660(17) 0.6588(2) 0.3680(5)
Cd16_4 Cd 1.0000 0.5000 1.0000
C18_2 C 0.9138(2) 0.4512(2) 0.8389(7)
C21_2 C 0.8632(2) 0.4593(2) 0.8103(7)
C24_2 C 0.8402(2) 0.4339(3) 0.7173(7)
H10_2 H 0.8563 0.4105 0.6710
C27_2 C 0.7941(3) 0.4422(3) 0.6911(8)
H13_2 H 0.7788 0.4244 0.6270
C30_2 C 0.7698(2) 0.4763(2) 0.7574(7)
C33_2 C 0.7934(2) 0.5015(3) 0.8495(8)
H16_2 H 0.7774 0.5247 0.8968
C36_2 C 0.8396(2) 0.4940(3) 0.8745(8)
H19_2 H 0.8552 0.5127 0.9358
C39_2 C 0.7196(2) 0.4838(2) 0.7360(7)
C42_2 C 0.6907(2) 0.4916(2) 0.8420(7)
H22_2 H 0.7037 0.4919 0.9262
C45_2 C 0.6439(2) 0.4987(2) 0.8277(7)
C48_2 C 0.6250(2) 0.4987(2) 0.7048(7)
H25_2 H 0.5926 0.5026 0.6941
C51_2 C 0.6529(2) 0.4929(2) 0.5973(7)
C54_2 C 0.7005(2) 0.4852(2) 0.6149(7)
H28_2 H 0.7198 0.4808 0.5417
C57_2 C 0.6330(2) 0.4985(2) 0.4644(7)
C60_2 C 0.6142(2) 0.5071(2) 0.9452(7)
O10_2 O 0.93390(16) 0.42045(18) 0.7767(5)
O13 O 0.93161(17) 0.47783(18) 0.9211(5)
O34_2 O 0.99340(17) 0.3412(2) 0.6320(5)
Cd4_2 Cd 0.988420(16) 0.594506(16) 0.23176(5)
Cl4_2 Cl 0.95994(6) 0.51083(7) 0.22063(19)
O18_2 O 0.99884(18) 0.63390(16) 0.0519(5)
O26_2 O 0.9094(2) 0.6148(2) 0.2094(7)
O40_2 O 0.99095(16) 0.59061(18) 0.4554(5)
O24_2 O 0.98114(17) 0.57312(15) 0.9290(5)
Cl5_2 Cl 0.01083(7) 0.04006(6) 0.77937(19)
O27_3 O 0.1148(2) 0.0906(2) 0.7906(7)
C32_3 C 0.0015(3) 0.2066(2) 0.1505(8)
H15_3 H 0.0247 0.2226 0.1032
H18_3 H 0.0127 0.1448 0.0642
H24_3 H 0.0026 0.4074 0.3059
C59_3 C 0.0071(2) 0.3858(2) 0.0548(7)
C18_3 C 0.0488(2) 0.9138(2) 0.8389(7)
C21_3 C 0.0407(2) 0.8632(2) 0.8103(7)
C24_3 C 0.0661(3) 0.8402(2) 0.7173(7)
H10_3 H 0.0895 0.8563 0.6710
C27_3 C 0.0578(3) 0.7941(3) 0.6911(8)
H13_3 H 0.0756 0.7788 0.6270
C30_3 C 0.0237(2) 0.7698(2) 0.7574(7)
C36_3 C 0.0060(3) 0.8396(2) 0.8745(8)
C39_3 C 0.0162(2) 0.7196(2) 0.7360(7)
C42_3 C 0.0084(2) 0.6907(2) 0.8420(7)
H22_3 H 0.0081 0.7037 0.9262
C45_3 C 0.0013(2) 0.6439(2) 0.8277(7)
C48_3 C 0.0013(2) 0.6250(2) 0.7048(7)
C51_3 C 0.0071(2) 0.6529(2) 0.5973(7)
C54_3 C 0.0148(2) 0.7005(2) 0.6149(7)
H28_3 H 0.0192 0.7198 0.5417
C57_3 C 0.0015(2) 0.6330(2) 0.4644(7)
O10_3 O 0.07955(18) 0.93390(16) 0.7767(5)
O13_2 O 0.02217(18) 0.93161(17) 0.9211(5)
C17_3 C 0.9512(2) 0.0862(2) 0.1611(7)
C20_3 C 0.9593(2) 0.1368(2) 0.1897(7)
C23_3 C 0.9339(3) 0.1598(2) 0.2827(7)
H9_3 H 0.9105 0.1437 0.3290
C26_3 C 0.9422(3) 0.2059(3) 0.3089(8)
H12_3 H 0.9244 0.2212 0.3730
C29_3 C 0.9763(2) 0.2302(2) 0.2426(7)
C35_3 C 0.9940(3) 0.1604(2) 0.1255(8)
C38_3 C 0.9838(2) 0.2804(2) 0.2640(7)
C41_3 C 0.9916(2) 0.3093(2) 0.1580(7)
H21_3 H 0.9919 0.2963 0.0738
C44_3 C 0.9987(2) 0.3561(2) 0.1723(7)
C47_3 C 0.9987(2) 0.3750(2) 0.2952(7)
C50_3 C 0.9929(2) 0.3471(2) 0.4027(7)
C53_3 C 0.9852(2) 0.2995(2) 0.3851(7)
H27_3 H 0.9808 0.2802 0.4583
C56_3 C 0.9985(2) 0.3670(2) 0.5356(7)
O9_3 O 0.92045(18) 0.06610(16) 0.2233(5)
O12_3 O 0.97783(18) 0.06839(17) 0.0789(5)
C33_3 C 0.9985(3) 0.7934(2) 0.8495(8)
H16_3 H 0.9753 0.7774 0.8968
H19_3 H 0.9873 0.8552 0.9358
H25_3 H 0.9974 0.5926 0.6941
C60_3 C 0.9929(2) 0.6142(2) 0.9452(7)
Cl4_3 Cl 0.98917(7) 0.95994(6) 0.22063(19)
O26_3 O 0.8852(2) 0.9094(2) 0.2094(7)
Cd17 Cd 0.2500 0.2500 0.25983(11)
Cl6 Cl 0.2500 0.2500 0.0227(5)
C61 C 0.2271(3) 0.3546(2) 0.3539(8)
C62 C 0.2487(3) 0.3990(2) 0.3698(9)
H29 H 0.2334 0.4279 0.3783
C63 C 0.2951(2) 0.3918(2) 0.3703(9)
H30 H 0.3183 0.4147 0.3808
C64 C 0.3026(2) 0.3431(2) 0.3520(9)
C65 C 0.1793(2) 0.3456(2) 0.3567(8)
C66 C 0.1180(3) 0.4460(3) 0.5106(9)
H31 H 0.1170 0.4613 0.5917
C67 C 0.1473(3) 0.4095(3) 0.4924(8)
H32 H 0.1672 0.3999 0.5602
C68 C 0.1480(2) 0.3864(2) 0.3744(8)
C69 C 0.1197(3) 0.4018(3) 0.2779(8)
H33 H 0.1195 0.3868 0.1963
C70 C 0.0910(2) 0.4395(3) 0.3001(8)
H34 H 0.0716 0.4506 0.2330
C71 C 0.0586(3) 0.4994(3) 0.4377(8)
H35 H 0.0340 0.4992 0.3728
H36 H 0.0757 0.5286 0.4322
H37 H 0.0450 0.4964 0.5239
N1 N 0.26076(19) 0.32173(19) 0.3413(7)
N2 N 0.0906(2) 0.4602(2) 0.4139(7)
C72 C 0.3546(2) 0.2729(3) 0.3539(8)
C73 C 0.2729(3) 0.1454(2) 0.3539(8)
C74 C 0.1454(2) 0.2271(3) 0.3539(8)
C75 C 0.3990(2) 0.2513(3) 0.3698(9)
C76 C 0.2513(3) 0.1010(2) 0.3698(9)
C77 C 0.1010(2) 0.2487(3) 0.3698(9)
H38 H 0.4279 0.2666 0.3783
H39 H 0.2666 0.0721 0.3783
H40 H 0.0721 0.2334 0.3783
C78 C 0.3918(2) 0.2049(2) 0.3703(9)
C79 C 0.2049(2) 0.1082(2) 0.3703(9)
C80 C 0.1082(2) 0.2951(2) 0.3703(9)
H41 H 0.4147 0.1817 0.3808
H42 H 0.1817 0.0853 0.3808
H43 H 0.0853 0.3183 0.3808
C81 C 0.3431(2) 0.1974(2) 0.3520(9)
C82 C 0.1974(2) 0.1569(2) 0.3520(9)
C83 C 0.1569(2) 0.3026(2) 0.3520(9)
C84 C 0.3456(2) 0.3207(2) 0.3567(8)
C85 C 0.3207(2) 0.1544(2) 0.3567(8)
C86 C 0.1544(2) 0.1793(2) 0.3567(8)
C87 C 0.0540(3) 0.1180(3) 0.5106(9)
C88 C 0.3820(3) 0.0540(3) 0.5106(9)
C89 C 0.4460(3) 0.3820(3) 0.5106(9)
H44 H 0.0387 0.1170 0.5917
H45 H 0.3830 0.0387 0.5917
H46 H 0.4613 0.3830 0.5917
C90 C 0.0905(3) 0.1473(3) 0.4924(8)
C91 C 0.3527(3) 0.0905(3) 0.4924(8)
C92 C 0.4095(3) 0.3527(3) 0.4924(8)
H47 H 0.1001 0.1672 0.5602
H48 H 0.3328 0.1001 0.5602
H49 H 0.3999 0.3328 0.5602
C93 C 0.1136(2) 0.1480(2) 0.3744(8)
C94 C 0.3520(2) 0.1136(2) 0.3744(8)
C95 C 0.3864(2) 0.3520(2) 0.3744(8)
C96 C 0.0982(3) 0.1197(3) 0.2779(8)
C97 C 0.3803(3) 0.0982(3) 0.2779(8)
C98 C 0.4018(3) 0.3803(3) 0.2779(8)
H50 H 0.1132 0.1195 0.1963
H51 H 0.3805 0.1132 0.1963
H52 H 0.3868 0.3805 0.1963
C99 C 0.0605(3) 0.0910(2) 0.3001(8)
C100 C 0.4090(2) 0.0605(3) 0.3001(8)
C101 C 0.4395(3) 0.4090(2) 0.3001(8)
H53 H 0.0494 0.0716 0.2330
H54 H 0.4284 0.0494 0.2330
H55 H 0.4506 0.4284 0.2330
C102 C 0.0006(3) 0.0586(3) 0.4377(8)
C103 C 0.4414(3) 0.0006(3) 0.4377(8)
C104 C 0.4994(3) 0.4414(3) 0.4377(8)
H56 H 0.0008 0.0340 0.3728
H57 H 0.4660 0.0008 0.3728
H58 H 0.4992 0.4660 0.3728
H61 H 0.5286 0.4243 0.4322
H62 H 0.0036 0.0450 0.5239
H63 H 0.4550 0.0036 0.5239
H64 H 0.4964 0.4550 0.5239
N3 N 0.17827(19) 0.26076(19) 0.3413(7)
N4 N 0.23924(19) 0.17827(19) 0.3413(7)
N5 N 0.32173(19) 0.23924(19) 0.3413(7)
N6 N 0.0398(2) 0.0906(2) 0.4139(7)
N7 N 0.4094(2) 0.0398(2) 0.4139(7)
N8 N 0.4602(2) 0.4094(2) 0.4139(7)
H60 H 0.4243 0.9714 0.4322
H59 H 0.9714 0.0757 0.4322
H59_2 H 0.0286 0.9243 0.5678
H60_2 H 0.5757 0.0286 0.5678
Cd17_2 Cd 0.7500 0.7500 0.74017(11)
Cl6_2 Cl 0.7500 0.7500 0.9773(5)
C61_2 C 0.7729(3) 0.6454(2) 0.6461(8)
C62_2 C 0.7513(3) 0.6010(2) 0.6302(9)
H29_2 H 0.7666 0.5721 0.6217
C63_2 C 0.7049(2) 0.6082(2) 0.6297(9)
H30_2 H 0.6817 0.5853 0.6192
C64_2 C 0.6974(2) 0.6569(2) 0.6480(9)
C65_2 C 0.8207(2) 0.6544(2) 0.6433(8)
C66_2 C 0.8820(3) 0.5540(3) 0.4894(9)
H31_2 H 0.8830 0.5387 0.4083
C67_2 C 0.8527(3) 0.5905(3) 0.5076(8)
H32_2 H 0.8328 0.6001 0.4398
C68_2 C 0.8520(2) 0.6136(2) 0.6256(8)
C69_2 C 0.8803(3) 0.5982(3) 0.7221(8)
H33_2 H 0.8805 0.6132 0.8037
C70_2 C 0.9090(2) 0.5605(3) 0.6999(8)
H34_2 H 0.9284 0.5494 0.7670
C71_2 C 0.9414(3) 0.5006(3) 0.5623(8)
H35_2 H 0.9660 0.5008 0.6272
H36_2 H 0.9243 0.4714 0.5678
H37_2 H 0.9550 0.5036 0.4761
N1_2 N 0.73924(19) 0.67827(19) 0.6587(7)
N2_2 N 0.9094(2) 0.5398(2) 0.5861(7)
C72_2 C 0.6454(2) 0.7271(3) 0.6461(8)
C73_2 C 0.7271(3) 0.8546(2) 0.6461(8)
C74_2 C 0.8546(2) 0.7729(3) 0.6461(8)
C75_2 C 0.6010(2) 0.7487(3) 0.6302(9)
C76_2 C 0.7487(3) 0.8990(2) 0.6302(9)
C77_2 C 0.8990(2) 0.7513(3) 0.6302(9)
H38_2 H 0.5721 0.7334 0.6217
H39_2 H 0.7334 0.9279 0.6217
H40_2 H 0.9279 0.7666 0.6217
C78_2 C 0.6082(2) 0.7951(2) 0.6297(9)
C79_2 C 0.7951(2) 0.8918(2) 0.6297(9)
C80_2 C 0.8918(2) 0.7049(2) 0.6297(9)
H41_2 H 0.5853 0.8183 0.6192
H42_2 H 0.8183 0.9147 0.6192
H43_2 H 0.9147 0.6817 0.6192
C81_2 C 0.6569(2) 0.8026(2) 0.6480(9)
C82_2 C 0.8026(2) 0.8431(2) 0.6480(9)
C83_2 C 0.8431(2) 0.6974(2) 0.6480(9)
C84_2 C 0.6544(2) 0.6793(2) 0.6433(8)
C85_2 C 0.6793(2) 0.8456(2) 0.6433(8)
C86_2 C 0.8456(2) 0.8207(2) 0.6433(8)
C87_2 C 0.9460(3) 0.8820(3) 0.4894(9)
C88_2 C 0.6180(3) 0.9460(3) 0.4894(9)
C89_2 C 0.5540(3) 0.6180(3) 0.4894(9)
H44_2 H 0.9613 0.8830 0.4083
H45_2 H 0.6170 0.9613 0.4083
H46_2 H 0.5387 0.6170 0.4083
C90_2 C 0.9095(3) 0.8527(3) 0.5076(8)
C91_2 C 0.6473(3) 0.9095(3) 0.5076(8)
C92_2 C 0.5905(3) 0.6473(3) 0.5076(8)
H47_2 H 0.8999 0.8328 0.4398
H48_2 H 0.6672 0.8999 0.4398
H49_2 H 0.6001 0.6672 0.4398
C93_2 C 0.8864(2) 0.8520(2) 0.6256(8)
C94_2 C 0.6480(2) 0.8864(2) 0.6256(8)
C95_2 C 0.6136(2) 0.6480(2) 0.6256(8)
C96_2 C 0.9018(3) 0.8803(3) 0.7221(8)
C97_2 C 0.6197(3) 0.9018(3) 0.7221(8)
C98_2 C 0.5982(3) 0.6197(3) 0.7221(8)
H50_2 H 0.8868 0.8805 0.8037
H51_2 H 0.6195 0.8868 0.8037
H52_2 H 0.6132 0.6195 0.8037
C99_2 C 0.9395(3) 0.9090(2) 0.6999(8)
C100_2 C 0.5910(2) 0.9395(3) 0.6999(8)
C101_2 C 0.5605(3) 0.5910(2) 0.6999(8)
H53_2 H 0.9506 0.9284 0.7670
H54_2 H 0.5716 0.9506 0.7670
H55_2 H 0.5494 0.5716 0.7670
C102_2 C 0.9994(3) 0.9414(3) 0.5623(8)
C103_2 C 0.5586(3) 0.9994(3) 0.5623(8)
C104_2 C 0.5006(3) 0.5586(3) 0.5623(8)
H56_2 H 0.9992 0.9660 0.6272
H57_2 H 0.5340 0.9992 0.6272
H58_2 H 0.5008 0.5340 0.6272
H61_2 H 0.4714 0.5757 0.5678
H62_2 H 0.9964 0.9550 0.4761
H63_2 H 0.5450 0.9964 0.4761
H64_2 H 0.5036 0.5450 0.4761
N3_2 N 0.82173(19) 0.73924(19) 0.6587(7)
N4_2 N 0.76076(19) 0.82173(19) 0.6587(7)
N5_2 N 0.67827(19) 0.76076(19) 0.6587(7)
N6_2 N 0.9602(2) 0.9094(2) 0.5861(7)
N7_2 N 0.5906(2) 0.9602(2) 0.5861(7)
N8_2 N 0.5398(2) 0.5906(2) 0.5861(7)
loop_
_geom_bond_atom_site_label_1
_geom_bond_atom_site_label_2
_geom_bond_site_symmetry_1
_geom_bond_site_symmetry_2
H3 C6 1_555 1_555
O4 C15 1_555 1_555
Cd4 Cl4 1_555 1_555
Cd10 O29 1_555 1_555
Cd15 O4 1_555 1_555
Cl4 Cd13 1_555 1_555
C17 C20 1_555 1_555
C20 C23 1_555 1_555
C23 H9 1_555 1_555
C26 C23 1_555 1_555
H12 C26 1_555 1_555
C29 C26 1_555 1_555
C32 C29 1_555 1_555
H15 C32 1_555 1_555
C35 C20 1_555 1_555
H18 C35 1_555 1_555
C38 C29 1_555 1_555
C41 C38 1_555 1_555
H21 C41 1_555 1_555
C44 C41 1_555 1_555
C47 C44 1_555 1_555
H24 C47 1_555 1_555
C50 C47 1_555 1_555
C53 C38 1_555 1_555
H27 C53 1_555 1_555
C56 C50 1_555 1_555
C59 C44 1_555 1_555
O9 Cd4 1_555 1_555
O12 Cd13 1_555 1_555
O18 Cd4 1_555 1_555
O21 Cd2 1_555 1_555
O23 Cd13 1_555 1_555
O26 Cd4 1_555 1_555
O29 C56 1_555 1_555
O33 Cd4 1_555 1_555
O36 Cd10 1_555 1_555
O40 Cd4 1_555 1_555
O7 Cd7 1_555 1_555
C17 O9 1_555 1_555
C17 O12 1_555 1_555
C32 C35 1_555 1_555
C50 C53 1_555 1_555
C56 O36 1_555 1_555
C59 O21 1_555 1_555
Cd10 Cl1 1_555 1_555
Cd2_2 Cl1 1_555 1_555
O5 Cd10 1_555 1_555
Cd7 O3 1_555 1_555
Cd12 Cl3 1_555 1_555
Cd13_2 Cl3 1_555 1_555
C16 C19 1_555 1_555
C19 C22 1_555 1_555
C22 H8 1_555 1_555
C25 C22 1_555 1_555
H11 C25 1_555 1_555
C28 C25 1_555 1_555
C34 C19 1_555 1_555
C37 C28 1_555 1_555
C40 C37 1_555 1_555
H20 C40 1_555 1_555
C43 C40 1_555 1_555
C46 C43 1_555 1_555
C49 C46 1_555 1_555
C52 C37 1_555 1_555
H26 C52 1_555 1_555
C55 C49 1_555 1_555
O8 Cd10 1_555 1_555
O11 Cd2_2 1_555 1_555
O14 Cd13_2 1_555 1_555
O16 Cd10 1_555 1_555
O24 Cd13_2 1_555 1_555
O28 C55 1_555 1_555
C16 O8 1_555 1_555
C16 O11 1_555 1_555
C49 C52 1_555 1_555
C1 C2 1_555 1_555
C2 C3 1_555 1_555
C3 H1 1_555 1_555
C4 C3 1_555 1_555
H2 C4 1_555 1_555
C5 C4 1_555 1_555
C7 C2 1_555 1_555
C8 C5 1_555 1_555
C9 C8 1_555 1_555
H5 C9 1_555 1_555
C10 C9 1_555 1_555
C11 C10 1_555 1_555
C12 C11 1_555 1_555
C13 C8 1_555 1_555
H7 C13 1_555 1_555
C14 C12 1_555 1_555
O1 C1 1_555 1_555
O2 Cd2_3 1_555 1_555
O6 C14 1_555 1_555
Cd3 O1 1_555 1_555
Cd8 O15 1_555 1_555
Cl2 Cd2_3 1_555 1_555
O17 Cd3 1_555 1_555
O25 Cd3 1_555 1_555
O32 Cd3 1_555 1_555
O39 Cd3 1_555 1_555
C1 O2 1_555 1_555
C12 C13 1_555 1_555
Cd3 Cl2 1_555 1_555
Cd15_8 O20 1_555 1_555
C18 C21 1_555 1_555
C21 C24 1_555 1_555
C24 H10 1_555 1_555
C27 C24 1_555 1_555
H13 C27 1_555 1_555
C30 C27 1_555 1_555
C33 C30 1_555 1_555
H14 C31 1_555 1_555
H16 C33 1_555 1_555
C36 C21 1_555 1_555
H19 C36 1_555 1_555
C39 C30 1_555 1_555
C42 C39 1_555 1_555
H22 C42 1_555 1_555
C45 C42 1_555 1_555
C48 C45 1_555 1_555
H25 C48 1_555 1_555
C51 C48 1_555 1_555
C54 C39 1_555 1_555
H28 C54 1_555 1_555
C57 C51 1_555 1_555
C60 C45 1_555 1_555
O10 Cd12 1_555 1_555
O19 Cd12 1_555 1_555
O20 C58 1_555 1_555
O22 Cd2_4 1_555 1_555
O27 Cd12 1_555 1_555
O32 C57 1_555 1_555
O34 Cd12 1_555 1_555
O35 Cd8 1_555 1_555
O41 Cd12 1_555 1_555
C18 O10 1_555 1_555
C18 O14 1_555 1_555
C33 C36 1_555 1_555
C51 C54 1_555 1_555
C57 O39 1_555 1_555
C60 O22 1_555 1_555
Cd5 Cl5 1_555 1_555
Cd16_2 Cl5 1_555 1_555
O19_2 Cd5 1_555 1_555
O27_2 Cd5 1_555 1_555
O41_2 Cd5 1_555 1_555
C17_2 C20_2 1_555 1_555
C20_2 C23_2 1_555 1_555
C23_2 H9_2 1_555 1_555
C26_2 C23_2 1_555 1_555
H12_2 C26_2 1_555 1_555
C29_2 C26_2 1_555 1_555
C32_2 C29_2 1_555 1_555
H15_2 C32_2 1_555 1_555
C35_2 C20_2 1_555 1_555
H18_2 C35_2 1_555 1_555
C38_2 C29_2 1_555 1_555
C41_2 C38_2 1_555 1_555
H21_2 C41_2 1_555 1_555
C44_2 C41_2 1_555 1_555
C47_2 C44_2 1_555 1_555
H24_2 C47_2 1_555 1_555
C50_2 C47_2 1_555 1_555
C53_2 C38_2 1_555 1_555
H27_2 C53_2 1_555 1_555
C56_2 C50_2 1_555 1_555
C59_2 C44_2 1_555 1_555
O12_2 Cd16 1_555 1_555
O23_2 Cd16 1_555 1_555
O34 C56_2 1_555 1_555
C17_2 O9_2 1_555 1_555
C17_2 O12_2 1_555 1_555
C32_2 C35_2 1_555 1_555
C50_2 C53_2 1_555 1_555
C56_2 O41 1_555 1_555
C59_2 O23 1_555 1_555
C18_2 C21_2 1_555 1_555
C21_2 C24_2 1_555 1_555
C24_2 H10_2 1_555 1_555
C27_2 C24_2 1_555 1_555
H13_2 C27_2 1_555 1_555
C30_2 C27_2 1_555 1_555
C33_2 C30_2 1_555 1_555
H16_2 C33_2 1_555 1_555
C36_2 C21_2 1_555 1_555
H19_2 C36_2 1_555 1_555
C39_2 C30_2 1_555 1_555
C42_2 C39_2 1_555 1_555
H22_2 C42_2 1_555 1_555
C45_2 C42_2 1_555 1_555
C48_2 C45_2 1_555 1_555
H25_2 C48_2 1_555 1_555
C51_2 C48_2 1_555 1_555
C54_2 C39_2 1_555 1_555
H28_2 C54_2 1_555 1_555
C57_2 C51_2 1_555 1_555
C60_2 C45_2 1_555 1_555
O13 Cd16_4 1_555 1_555
O33 C57_2 1_555 1_555
C18_2 O10_2 1_555 1_555
C18_2 O13 1_555 1_555
C33_2 C36_2 1_555 1_555
C51_2 C54_2 1_555 1_555
C57_2 O40 1_555 1_555
C60_2 O24 1_555 1_555
Cd4_2 Cl4_2 1_555 1_555
Cl4_2 Cd16_3 1_555 1_555
O18_2 Cd4_2 1_555 1_555
O26_2 Cd4_2 1_555 1_555
O40_2 Cd4_2 1_555 1_555
O24_2 Cd16_4 1_555 1_555
Cd7 Cl5_2 1_555 1_555
Cd15_2 Cl5_2 1_555 1_555
O27_3 Cd7 1_555 1_555
H15_3 C32_3 1_555 1_555
C59_3 O23_2 1_555 1_555
C18_3 C21_3 1_555 1_555
C21_3 C24_3 1_555 1_555
C24_3 H10_3 1_555 1_555
C27_3 C24_3 1_555 1_555
H13_3 C27_3 1_555 1_555
C30_3 C27_3 1_555 1_555
C36_3 C21_3 1_555 1_555
C39_3 C30_3 1_555 1_555
C42_3 C39_3 1_555 1_555
H22_3 C42_3 1_555 1_555
C45_3 C42_3 1_555 1_555
C48_3 C45_3 1_555 1_555
C51_3 C48_3 1_555 1_555
C54_3 C39_3 1_555 1_555
H28_3 C54_3 1_555 1_555
C57_3 C51_3 1_555 1_555
O13_2 Cd15_4 1_555 1_555
O33_2 C57_3 1_555 1_555
C18_3 O10_3 1_555 1_555
C18_3 O13_2 1_555 1_555
C51_3 C54_3 1_555 1_555
C17_3 C20_3 1_555 1_555
C20_3 C23_3 1_555 1_555
C23_3 H9_3 1_555 1_555
C26_3 C23_3 1_555 1_555
H12_3 C26_3 1_555 1_555
C29_3 C26_3 1_555 1_555
C35_3 C20_3 1_555 1_555
C38_3 C29_3 1_555 1_555
C41_3 C38_3 1_555 1_555
H21_3 C41_3 1_555 1_555
C44_3 C41_3 1_555 1_555
C47_3 C44_3 1_555 1_555
C50_3 C47_3 1_555 1_555
C53_3 C38_3 1_555 1_555
H27_3 C53_3 1_555 1_555
C56_3 C50_3 1_555 1_555
O12_3 Cd15_5 1_555 1_555
O34_2 C56_3 1_555 1_555
C17_3 O9_3 1_555 1_555
C17_3 O12_3 1_555 1_555
C50_3 C53_3 1_555 1_555
H16_3 C33_3 1_555 1_555
C60_3 O24_2 1_555 1_555
Cd8 Cl4_3 1_555 1_555
Cl4_3 Cd15_7 1_555 1_555
O26_3 Cd8 1_555 1_555
Cd17 Cl6 1_555 1_555
C61 C62 1_555 1_555
C62 H29 1_555 1_555
C63 C62 1_555 1_555
H30 C63 1_555 1_555
C64 C63 1_555 1_555
C65 C61 1_555 1_555
C66 H31 1_555 1_555
C67 C66 1_555 1_555
H32 C67 1_555 1_555
C68 C65 1_555 1_555
C69 C68 1_555 1_555
H33 C69 1_555 1_555
C70 C69 1_555 1_555
H34 C70 1_555 1_555
C71 H35 1_555 1_555
H36 C71 1_555 1_555
H37 C71 1_555 1_555
N1 Cd17 1_555 1_555
N2 C66 1_555 1_555
C72 C75 1_555 1_555
C73 C76 1_555 1_555
C74 C77 1_555 1_555
C75 H38 1_555 1_555
C76 H39 1_555 1_555
C77 H40 1_555 1_555
C78 C75 1_555 1_555
C79 C76 1_555 1_555
C80 C77 1_555 1_555
H41 C78 1_555 1_555
H42 C79 1_555 1_555
H43 C80 1_555 1_555
C81 C78 1_555 1_555
C82 C79 1_555 1_555
C83 C65 1_555 1_555
C84 C64 1_555 1_555
C85 C73 1_555 1_555
C86 C74 1_555 1_555
C87 H44 1_555 1_555
C88 H45 1_555 1_555
C89 H46 1_555 1_555
C90 C87 1_555 1_555
C91 C88 1_555 1_555
C92 C89 1_555 1_555
H47 C90 1_555 1_555
H48 C91 1_555 1_555
H49 C92 1_555 1_555
C93 C86 1_555 1_555
C94 C85 1_555 1_555
C95 C84 1_555 1_555
C96 C93 1_555 1_555
C97 C94 1_555 1_555
C98 C95 1_555 1_555
H50 C96 1_555 1_555
H51 C97 1_555 1_555
H52 C98 1_555 1_555
C99 C96 1_555 1_555
C100 C97 1_555 1_555
C101 C98 1_555 1_555
H53 C99 1_555 1_555
H54 C100 1_555 1_555
H55 C101 1_555 1_555
C102 H56 1_555 1_555
C103 H57 1_555 1_555
C104 H58 1_555 1_555
H61 C104 1_555 1_555
H62 C102 1_555 1_555
H63 C103 1_555 1_555
H64 C104 1_555 1_555
N3 Cd17 1_555 1_555
N4 Cd17 1_555 1_555
N5 Cd17 1_555 1_555
N6 C87 1_555 1_555
N7 C88 1_555 1_555
N8 C89 1_555 1_555
C61 N1 1_555 1_555
C64 N1 1_555 1_555
C67 C68 1_555 1_555
C70 N2 1_555 1_555
C71 N2 1_555 1_555
C72 C84 1_555 1_555
C72 N5 1_555 1_555
C73 N4 1_555 1_555
C74 N3 1_555 1_555
C80 C83 1_555 1_555
C81 C85 1_555 1_555
C81 N5 1_555 1_555
C82 C86 1_555 1_555
C82 N4 1_555 1_555
C83 N3 1_555 1_555
C90 C93 1_555 1_555
C91 C94 1_555 1_555
C92 C95 1_555 1_555
C99 N6 1_555 1_555
C100 N7 1_555 1_555
C101 N8 1_555 1_555
C102 N6 1_555 1_555
C103 N7 1_555 1_555
C104 N8 1_555 1_555
Cd17_2 Cl6_2 1_555 1_555
C61_2 C62_2 1_555 1_555
C62_2 H29_2 1_555 1_555
C63_2 C62_2 1_555 1_555
H30_2 C63_2 1_555 1_555
C64_2 C63_2 1_555 1_555
C65_2 C61_2 1_555 1_555
C66_2 H31_2 1_555 1_555
C67_2 C66_2 1_555 1_555
H32_2 C67_2 1_555 1_555
C68_2 C65_2 1_555 1_555
C69_2 C68_2 1_555 1_555
H33_2 C69_2 1_555 1_555
C70_2 C69_2 1_555 1_555
H34_2 C70_2 1_555 1_555
C71_2 H35_2 1_555 1_555
H36_2 C71_2 1_555 1_555
H37_2 C71_2 1_555 1_555
N1_2 Cd17_2 1_555 1_555
N2_2 C66_2 1_555 1_555
C72_2 C75_2 1_555 1_555
C73_2 C76_2 1_555 1_555
C74_2 C77_2 1_555 1_555
C75_2 H38_2 1_555 1_555
C76_2 H39_2 1_555 1_555
C77_2 H40_2 1_555 1_555
C78_2 C75_2 1_555 1_555
C79_2 C76_2 1_555 1_555
C80_2 C77_2 1_555 1_555
H41_2 C78_2 1_555 1_555
H42_2 C79_2 1_555 1_555
H43_2 C80_2 1_555 1_555
C81_2 C78_2 1_555 1_555
C82_2 C79_2 1_555 1_555
C83_2 C65_2 1_555 1_555
C84_2 C64_2 1_555 1_555
C85_2 C73_2 1_555 1_555
C86_2 C74_2 1_555 1_555
C87_2 H44_2 1_555 1_555
C88_2 H45_2 1_555 1_555
C89_2 H46_2 1_555 1_555
C90_2 C87_2 1_555 1_555
C91_2 C88_2 1_555 1_555
C92_2 C89_2 1_555 1_555
H47_2 C90_2 1_555 1_555
H48_2 C91_2 1_555 1_555
H49_2 C92_2 1_555 1_555
C93_2 C86_2 1_555 1_555
C94_2 C85_2 1_555 1_555
C95_2 C84_2 1_555 1_555
C96_2 C93_2 1_555 1_555
C97_2 C94_2 1_555 1_555
C98_2 C95_2 1_555 1_555
H50_2 C96_2 1_555 1_555
H51_2 C97_2 1_555 1_555
H52_2 C98_2 1_555 1_555
C99_2 C96_2 1_555 1_555
C100_2 C97_2 1_555 1_555
C101_2 C98_2 1_555 1_555
H53_2 C99_2 1_555 1_555
H54_2 C100_2 1_555 1_555
H55_2 C101_2 1_555 1_555
C102_2 H56_2 1_555 1_555
C103_2 H57_2 1_555 1_555
C104_2 H58_2 1_555 1_555
H61_2 C104_2 1_555 1_555
H62_2 C102_2 1_555 1_555
H63_2 C103_2 1_555 1_555
H64_2 C104_2 1_555 1_555
N3_2 Cd17_2 1_555 1_555
N4_2 Cd17_2 1_555 1_555
N5_2 Cd17_2 1_555 1_555
N6_2 C87_2 1_555 1_555
N7_2 C88_2 1_555 1_555
N8_2 C89_2 1_555 1_555
C61_2 N1_2 1_555 1_555
C64_2 N1_2 1_555 1_555
C67_2 C68_2 1_555 1_555
C70_2 N2_2 1_555 1_555
C71_2 N2_2 1_555 1_555
C72_2 C84_2 1_555 1_555
C72_2 N5_2 1_555 1_555
C73_2 N4_2 1_555 1_555
C74_2 N3_2 1_555 1_555
C80_2 C83_2 1_555 1_555
C81_2 C85_2 1_555 1_555
C81_2 N5_2 1_555 1_555
C82_2 C86_2 1_555 1_555
C82_2 N4_2 1_555 1_555
C83_2 N3_2 1_555 1_555
C90_2 C93_2 1_555 1_555
C91_2 C94_2 1_555 1_555
C92_2 C95_2 1_555 1_555
C99_2 N6_2 1_555 1_555
C100_2 N7_2 1_555 1_555
C101_2 N8_2 1_555 1_555
C102_2 N6_2 1_555 1_555
C103_2 N7_2 1_555 1_555
C104_2 N8_2 1_555 1_555

#END
