
###############################################################################
#
# This file contains modified crystal structure data generated from the
# MOF subset of the Cambridge Structural Database (CSD) v543 
# hosted by the Cambridge Crystallographic Data Centre (CCDC).
#
# This work is licensed under the Creative Commons
# Attribution-NonCommercial-ShareAlike 4.0 International License.
# To view a copy of this license, visit
# http://creativecommons.org/licenses/by-nc-sa/4.0/
# or send a letter to
# Creative Commons, PO Box 1866, Mountain View, CA 94042, USA.
#
# CIF created using the CSD Python API on 29 September 2022
# The structure has been converted into the P1 space group
# The structure has a 3D framework
# The original CSD entry DAPHOU is in the rhombohedral crystal system
# The framework has been calculated to contain at least 10.0% void space
# The void calculation uses a probe of radius 1.32A, grid spacing 0.4
#
###############################################################################

data_DAPHOU
_chemical_formula_moiety         '(C576 H360 N72 O352 Zn72)n'
_symmetry_cell_setting           triclinic
_symmetry_space_group_name_H-M   'P 1'
_symmetry_Int_Tables_number      1
_space_group_name_Hall           'P 1'
loop_
_symmetry_equiv_pos_site_id
_symmetry_equiv_pos_as_xyz
1 x,y,z
_cell_length_a                   38.569(9)
_cell_length_b                   38.569(9)
_cell_length_c                   28.647(9)
_cell_angle_alpha                90
_cell_angle_beta                 90
_cell_angle_gamma                120
_cell_volume                     36905.1
loop_
_atom_site_label
_atom_site_type_symbol
_atom_site_fract_x
_atom_site_fract_y
_atom_site_fract_z
Zn4 Zn 0.01533(2) 0.25878(2) 0.46014(3)
C16 C 0.0161(2) 0.3839(3) 0.2012(3)
H10 H 0.0042 0.1322 0.2734
C31 C 0.0317(2) 0.1223(2) 0.1949(4)
O7 O 0.02151(18) 0.3998(2) 0.1601(2)
O8 O 0.04045(17) 0.38387(19) 0.2257(2)
O13 O 0.05776(17) 0.14798(18) 0.2193(2)
O14 O 0.03725(19) 0.11451(19) 0.1527(3)
O20 O 0.03586(19) 0.2740(2) 0.39568(18)
H19 H 0.0193 0.2728 0.3728
H20 H 0.0617 0.2822 0.3892
Zn5 Zn 0.09128(2) 0.14406(3) 0.12004(3)
Zn8 Zn 0.11633(2) 0.18832(3) 0.21059(3)
Zn11 Zn 0.10058(2) 0.40358(3) 0.21643(3)
Zn13 Zn 0.07455(2) 0.42322(3) 0.12681(3)
O23 O 0.04496(27) 0.31182(18) 0.4934(2)
O24 O 0.01009(25) 0.29288(17) 0.5590(2)
O25 O 0.05338(16) 0.24338(24) 0.4903(2)
O26 O 0.01670(15) 0.22154(23) 0.5543(2)
Zn1 Zn 0.71944(2) 0.24205(2) 0.45337(3)
Zn2 Zn 0.73865(2) 0.21700(2) 0.54392(3)
Zn3 Zn 0.96966(2) 0.23275(2) 0.54976(3)
C1 C 0.8418(2) 0.2618(2) 0.4562(3)
C2 C 0.8498(3) 0.2786(4) 0.4123(3)
H1 H 0.8304 0.2826 0.3966
C3 C 0.8853(3) 0.2894(3) 0.3914(3)
C4 C 0.9142(2) 0.2842(3) 0.4131(3)
H2 H 0.9387 0.2915 0.3976
C5 C 0.9074(2) 0.2680(3) 0.4585(3)
C6 C 0.8701(2) 0.2570(3) 0.4796(3)
H3 H 0.8646 0.2462 0.5102
C7 C 0.8023(3) 0.2491(3) 0.4772(3)
C8 C 0.9367(2) 0.2596(3) 0.4817(3)
C9 C 0.9293(3) 0.3383(4) 0.2854(4)
C10 C 0.9014(3) 0.3449(3) 0.2636(3)
H4 H 0.8764 0.3368 0.2781
C11 C 0.9101(2) 0.3639(3) 0.2189(3)
C12 C 0.9461(2) 0.3749(3) 0.1993(3)
H5 H 0.9516 0.3864 0.1690
C13 C 0.9756(3) 0.3700(3) 0.2222(3)
C14 C 0.9664(3) 0.3511(3) 0.2646(3)
H6 H 0.9856 0.3467 0.2802
C15 C 0.8799(2) 0.3708(2) 0.1967(2)
C17 C 0.9195(2) 0.1369(2) 0.4487(3)
C18 C 0.9276(3) 0.1275(3) 0.4070(4)
H7 H 0.9520 0.1458 0.3922
C19 C 0.9014(3) 0.0916(3) 0.3839(4)
C20 C 0.8644(3) 0.0666(3) 0.4019(3)
H8 H 0.8445 0.0448 0.3844
C21 C 0.8566(2) 0.0746(2) 0.4478(3)
C22 C 0.8835(3) 0.1086(2) 0.4711(3)
H9 H 0.8780 0.1132 0.5021
C23 C 0.9474(3) 0.1745(2) 0.4716(3)
C24 C 0.8173(2) 0.0453(2) 0.4691(3)
C25 C 0.9834(3) 0.1100(3) 0.2572(3)
C26 C 0.9909(3) 0.0994(2) 0.2140(3)
C27 C 0.9591(3) 0.0655(2) 0.1904(3)
H11 H 0.9635 0.0581 0.1603
C28 C 0.9237(3) 0.0446(3) 0.2108(3)
C29 C 0.9150(3) 0.0536(3) 0.2546(4)
H12 H 0.8897 0.0372 0.2689
C30 C 0.9452(3) 0.0883(3) 0.2771(3)
C32 C 0.8888(2) 0.0054(2) 0.1875(3)
N1 N 0.8909(2) 0.3081(3) 0.3454(3)
N2 N 0.9250(3) 0.3205(3) 0.3289(3)
N3 N 0.9079(3) 0.0803(3) 0.3395(3)
N4 N 0.9412(3) 0.1009(3) 0.3206(3)
O1 O 0.77624(19) 0.2503(2) 0.4522(2)
O2 O 0.79418(18) 0.2337(2) 0.5186(2)
O3 O 0.96583(16) 0.2658(2) 0.4566(2)
O4 O 0.93062(17) 0.2477(2) 0.52313(19)
O5 O 0.85124(16) 0.36628(18) 0.22137(19)
O6 O 0.88721(16) 0.38497(18) 0.1564(2)
O9 O 0.97697(16) 0.20169(18) 0.44746(19)
O10 O 0.93818(17) 0.18077(18) 0.5125(2)
O11 O 0.81000(18) 0.05338(16) 0.5097(2)
O12 O 0.79516(18) 0.01670(15) 0.4457(2)
O17 O 0.7154(2) 0.2560(2) 0.38763(17)
H13 H 0.7309 0.2540 0.3655
H14 H 0.6982 0.2644 0.3799
O18 O 0.7434(2) 0.2036(2) 0.60928(19)
H15 H 0.7288 0.2066 0.6318
H16 H 0.7600 0.1944 0.6166
O19 O 0.94674(17) 0.21480(19) 0.61260(16)
H17 H 0.9604 0.2097 0.6344
H18 H 0.9226 0.2118 0.6195
Zn7 Zn 0.81072(3) 0.38611(2) 0.21330(3)
Zn10 Zn 0.85498(3) 0.40532(2) 0.12275(3)
Zn14 Zn 0.75655(3) 0.01533(2) 0.53986(3)
O21 O 0.69961(18) 0.18171(24) 0.44530(19)
O22 O 0.71830(18) 0.16443(24) 0.5103(2)
O27 O 0.75689(25) 0.27557(17) 0.5526(2)
O28 O 0.74393(27) 0.29608(19) 0.4860(3)
O29 O 0.66687(19) 0.22962(25) 0.4806(2)
O30 O 0.68082(18) 0.20730(24) 0.5464(2)
O15 O 0.89609(16) 0.99980(19) 0.1473(2)
O16 O 0.85982(16) 0.98585(18) 0.2131(2)
Zn6 Zn 0.85594(3) 0.94723(2) 0.12004(3)
Zn9 Zn 0.81168(3) 0.92802(2) 0.21059(3)
Zn12 Zn 0.73691(3) 0.96966(2) 0.45024(3)
O15_2 O 0.00020(19) 0.89629(25) 0.1473(2)
O16_2 O 0.01415(18) 0.87397(24) 0.2131(2)
Zn6_2 Zn 0.05277(2) 0.90872(4) 0.12004(3)
Zn9_2 Zn 0.07198(2) 0.88367(4) 0.21059(3)
Zn12_2 Zn 0.03034(2) 0.76725(4) 0.45024(3)
Zn1_2 Zn 0.75795(2) 0.47739(3) 0.45337(3)
Zn2_2 Zn 0.78300(2) 0.52165(3) 0.54392(3)
Zn3_2 Zn 0.76725(2) 0.73691(3) 0.54976(3)
Zn4_2 Zn 0.74122(2) 0.75655(3) 0.46014(3)
C1_2 C 0.7382(2) 0.5800(3) 0.4562(3)
C2_2 C 0.7214(4) 0.5712(5) 0.4123(3)
H1_2 H 0.7174 0.5478 0.3966
C3_2 C 0.7106(3) 0.5959(4) 0.3914(3)
C4_2 C 0.7158(3) 0.6300(4) 0.4131(3)
H2_2 H 0.7085 0.6472 0.3976
C5_2 C 0.7320(3) 0.6394(4) 0.4585(3)
C6_2 C 0.7430(3) 0.6131(4) 0.4796(3)
H3_2 H 0.7538 0.6184 0.5102
C7_2 C 0.7509(3) 0.5532(4) 0.4772(3)
C8_2 C 0.7404(3) 0.6771(4) 0.4817(3)
C9_2 C 0.6617(4) 0.5910(5) 0.2854(4)
C10_2 C 0.6551(3) 0.5565(4) 0.2636(3)
H4_2 H 0.6632 0.5396 0.2781
C11_2 C 0.6361(3) 0.5462(4) 0.2189(3)
C12_2 C 0.6251(3) 0.5712(4) 0.1993(3)
H5_2 H 0.6136 0.5652 0.1690
C13_2 C 0.6300(3) 0.6056(4) 0.2222(3)
C14_2 C 0.6489(3) 0.6153(4) 0.2646(3)
H6_2 H 0.6533 0.6389 0.2802
C15_2 C 0.6292(2) 0.5091(3) 0.1967(2)
C16_2 C 0.6161(3) 0.6322(4) 0.2012(3)
C17_2 C 0.8631(2) 0.7826(3) 0.4487(3)
C18_2 C 0.8725(3) 0.8001(4) 0.4070(4)
H7_2 H 0.8542 0.8062 0.3922
C19_2 C 0.9084(3) 0.8098(4) 0.3839(4)
C20_2 C 0.9334(3) 0.7978(4) 0.4019(3)
H8_2 H 0.9552 0.7997 0.3844
C21_2 C 0.9254(2) 0.7820(3) 0.4478(3)
C22_2 C 0.8914(2) 0.7749(4) 0.4711(3)
H9_2 H 0.8868 0.7648 0.5021
C23_2 C 0.8255(2) 0.7729(4) 0.4716(3)
C24_2 C 0.9547(2) 0.7720(3) 0.4691(3)
C25_2 C 0.8900(3) 0.8734(4) 0.2572(3)
H10_2 H 0.8678 0.8720 0.2734
C26_2 C 0.9006(2) 0.8915(4) 0.2140(3)
C27_2 C 0.9345(2) 0.8936(4) 0.1904(3)
H11_2 H 0.9419 0.9054 0.1603
C28_2 C 0.9554(3) 0.8791(4) 0.2108(3)
C29_2 C 0.9464(3) 0.8614(4) 0.2546(4)
H12_2 H 0.9628 0.8525 0.2689
C30_2 C 0.9117(3) 0.8569(4) 0.2771(3)
C31_2 C 0.8777(2) 0.9094(3) 0.1949(4)
C32_2 C 0.9946(2) 0.8834(3) 0.1875(3)
N1_2 N 0.6919(3) 0.5828(4) 0.3454(3)
N2_2 N 0.6795(3) 0.6045(4) 0.3289(3)
N3_2 N 0.9197(3) 0.8276(4) 0.3395(3)
N4_2 N 0.8991(3) 0.8403(4) 0.3206(3)
O1_2 O 0.7497(2) 0.52594(28) 0.4522(2)
O2_2 O 0.7663(2) 0.56048(27) 0.5186(2)
O3_2 O 0.7342(2) 0.70003(26) 0.4566(2)
O4_2 O 0.7523(2) 0.68292(26) 0.52313(19)
O5_2 O 0.63372(18) 0.48496(24) 0.22137(19)
O6_2 O 0.61503(18) 0.50224(24) 0.1564(2)
O7_2 O 0.6002(2) 0.62171(27) 0.1601(2)
O8_2 O 0.61613(19) 0.65658(25) 0.2257(2)
O9_2 O 0.79831(18) 0.77528(24) 0.44746(19)
O10_2 O 0.81923(18) 0.75741(25) 0.5125(2)
O11_2 O 0.94662(16) 0.75662(24) 0.5097(2)
O12_2 O 0.98330(15) 0.77846(23) 0.4457(2)
O13_2 O 0.85202(18) 0.90978(25) 0.2193(2)
O14_2 O 0.88549(19) 0.92274(27) 0.1527(3)
O17_2 O 0.7440(2) 0.4594(3) 0.38763(17)
H13_2 H 0.7460 0.4769 0.3655
H14_2 H 0.7356 0.4338 0.3799
O18_2 O 0.7964(2) 0.5398(3) 0.60928(19)
H15_2 H 0.7934 0.5222 0.6318
H16_2 H 0.8056 0.5656 0.6166
O19_2 O 0.78520(19) 0.73194(25) 0.61260(16)
H17_2 H 0.7903 0.7507 0.6344
H18_2 H 0.7882 0.7108 0.6195
O20_2 O 0.7260(2) 0.76186(28) 0.39568(18)
H19_2 H 0.7272 0.7465 0.3728
H20_2 H 0.7178 0.7795 0.3892
Zn7_2 Zn 0.61389(2) 0.42462(4) 0.21330(3)
Zn10_2 Zn 0.59468(2) 0.44967(4) 0.12275(3)
Zn11_2 Zn 0.59642(3) 0.69701(4) 0.21643(3)
Zn13_2 Zn 0.57678(3) 0.65134(4) 0.12681(3)
Zn14_2 Zn 0.98467(2) 0.74122(4) 0.53986(3)
O21_2 O 0.81829(24) 0.51791(30) 0.44530(19)
O22_2 O 0.83557(24) 0.55388(30) 0.5103(2)
O23_2 O 0.68818(18) 0.73313(32) 0.4934(2)
O24_2 O 0.70712(17) 0.71720(30) 0.5590(2)
O25_2 O 0.75662(24) 0.81000(29) 0.4903(2)
O26_2 O 0.77846(23) 0.79516(27) 0.5543(2)
O27_2 O 0.72443(17) 0.48131(30) 0.5526(2)
O28_2 O 0.70392(19) 0.44784(33) 0.4860(3)
O29_2 O 0.77038(25) 0.43724(31) 0.4806(2)
O30_2 O 0.79270(24) 0.47351(30) 0.5464(2)
Zn1_3 Zn 0.52261(3) 0.28056(2) 0.45337(3)
Zn2_3 Zn 0.47835(3) 0.26135(2) 0.54392(3)
Zn3_3 Zn 0.26309(3) 0.03034(2) 0.54976(3)
C1_3 C 0.4200(3) 0.1582(2) 0.4562(3)
C2_3 C 0.4288(5) 0.1502(3) 0.4123(3)
H1_3 H 0.4522 0.1696 0.3966
C3_3 C 0.4041(4) 0.1147(3) 0.3914(3)
C4_3 C 0.3700(4) 0.0858(2) 0.4131(3)
H2_3 H 0.3528 0.0613 0.3976
C5_3 C 0.3606(4) 0.0926(2) 0.4585(3)
C6_3 C 0.3869(4) 0.1299(2) 0.4796(3)
H3_3 H 0.3816 0.1354 0.5102
C7_3 C 0.4468(4) 0.1977(3) 0.4772(3)
C8_3 C 0.3229(4) 0.0633(2) 0.4817(3)
C9_3 C 0.4090(5) 0.0707(3) 0.2854(4)
C10_3 C 0.4435(4) 0.0986(3) 0.2636(3)
H4_3 H 0.4604 0.1236 0.2781
C11_3 C 0.4538(4) 0.0899(2) 0.2189(3)
C12_3 C 0.4288(4) 0.0539(2) 0.1993(3)
H5_3 H 0.4348 0.0484 0.1690
C13_3 C 0.3944(4) 0.0244(3) 0.2222(3)
C14_3 C 0.3847(4) 0.0336(3) 0.2646(3)
H6_3 H 0.3611 0.0144 0.2802
C15_3 C 0.4909(3) 0.1201(2) 0.1967(2)
C17_3 C 0.2174(3) 0.0805(2) 0.4487(3)
C18_3 C 0.1999(4) 0.0724(3) 0.4070(4)
H7_3 H 0.1938 0.0480 0.3922
C19_3 C 0.1902(4) 0.0986(3) 0.3839(4)
C20_3 C 0.2022(4) 0.1356(3) 0.4019(3)
H8_3 H 0.2003 0.1555 0.3844
C21_3 C 0.2180(3) 0.1434(2) 0.4478(3)
C22_3 C 0.2251(4) 0.1165(3) 0.4711(3)
H9_3 H 0.2352 0.1220 0.5021
C23_3 C 0.2271(4) 0.0526(3) 0.4716(3)
C24_3 C 0.2280(3) 0.1827(2) 0.4691(3)
C25_3 C 0.1266(4) 0.0166(3) 0.2572(3)
C26_3 C 0.1085(4) 0.0091(3) 0.2140(3)
C27_3 C 0.1064(4) 0.0409(3) 0.1904(3)
H11_3 H 0.0946 0.0365 0.1603
C28_3 C 0.1209(4) 0.0763(3) 0.2108(3)
C29_3 C 0.1386(4) 0.0850(3) 0.2546(4)
H12_3 H 0.1475 0.1103 0.2689
C30_3 C 0.1431(4) 0.0548(3) 0.2771(3)
C32_3 C 0.1166(3) 0.1112(2) 0.1875(3)
N1_3 N 0.4172(4) 0.1091(2) 0.3454(3)
N2_3 N 0.3955(4) 0.0750(3) 0.3289(3)
N3_3 N 0.1724(4) 0.0921(3) 0.3395(3)
N4_3 N 0.1597(4) 0.0588(3) 0.3206(3)
O1_3 O 0.47406(28) 0.22376(19) 0.4522(2)
O2_3 O 0.43952(27) 0.20582(18) 0.5186(2)
O3_3 O 0.29997(26) 0.03417(16) 0.4566(2)
O4_3 O 0.31708(26) 0.06938(17) 0.52313(19)
O5_3 O 0.51504(24) 0.14876(16) 0.22137(19)
O6_3 O 0.49776(24) 0.11279(16) 0.1564(2)
O9_3 O 0.22472(24) 0.02303(16) 0.44746(19)
O10_3 O 0.24259(25) 0.06182(17) 0.5125(2)
O11_3 O 0.24338(24) 0.19000(18) 0.5097(2)
O12_3 O 0.22154(23) 0.20484(18) 0.4457(2)
O15_3 O 0.10371(25) 0.10391(16) 0.1473(2)
O16_3 O 0.12603(24) 0.14018(16) 0.2131(2)
O17_3 O 0.5406(3) 0.2846(2) 0.38763(17)
H13_3 H 0.5231 0.2691 0.3655
H14_3 H 0.5662 0.3018 0.3799
O18_3 O 0.4602(3) 0.2566(2) 0.60928(19)
H15_3 H 0.4778 0.2712 0.6318
H16_3 H 0.4344 0.2400 0.6166
O19_3 O 0.26806(25) 0.05326(17) 0.61260(16)
H17_3 H 0.2493 0.0396 0.6344
H18_3 H 0.2892 0.0774 0.6195
Zn7_3 Zn 0.57538(4) 0.18928(3) 0.21330(3)
Zn10_3 Zn 0.55033(4) 0.14502(3) 0.12275(3)
Zn12_3 Zn 0.23275(4) 0.26309(3) 0.45024(3)
Zn14_3 Zn 0.25878(4) 0.24345(3) 0.53986(3)
O21_3 O 0.48209(30) 0.30039(18) 0.44530(19)
O22_3 O 0.44612(30) 0.28170(18) 0.5103(2)
O27_3 O 0.51869(30) 0.24311(25) 0.5526(2)
O28_3 O 0.55216(33) 0.25607(27) 0.4860(3)
O29_3 O 0.56276(31) 0.33313(19) 0.4806(2)
O30_3 O 0.52649(30) 0.31918(18) 0.5464(2)
Zn4_3 Zn 0.24345(3) 0.98467(2) 0.46014(3)
C16_3 C 0.3678(4) 0.9839(2) 0.2012(3)
H10_3 H 0.1280 0.9958 0.2734
C31_3 C 0.0906(3) 0.9683(2) 0.1949(4)
O7_3 O 0.37829(27) 0.97849(18) 0.1601(2)
O8_3 O 0.34342(25) 0.95955(17) 0.2257(2)
O13_3 O 0.09022(25) 0.94224(17) 0.2193(2)
O14_3 O 0.07726(27) 0.96275(19) 0.1527(3)
O20_3 O 0.23814(28) 0.96414(19) 0.39568(18)
H19_3 H 0.2535 0.9807 0.3728
H20_3 H 0.2205 0.9383 0.3892
Zn11_3 Zn 0.30299(4) 0.89942(2) 0.21643(3)
Zn13_3 Zn 0.34866(4) 0.92545(2) 0.12681(3)
O23_3 O 0.26687(32) 0.95504(27) 0.4934(2)
O24_3 O 0.28280(30) 0.98991(25) 0.5590(2)
O25_3 O 0.19000(29) 0.94662(16) 0.4903(2)
O26_3 O 0.20484(27) 0.98330(15) 0.5543(2)
Zn1_4 Zn 0.38611(2) 0.57538(2) 0.78670(3)
Zn2_4 Zn 0.40532(2) 0.55033(2) 0.87725(3)
Zn3_4 Zn 0.63633(2) 0.56608(2) 0.88309(3)
Zn4_4 Zn 0.68200(2) 0.59211(2) 0.79347(3)
C1_4 C 0.5085(2) 0.5951(2) 0.7895(3)
C2_4 C 0.5165(3) 0.6119(4) 0.7456(3)
H1_4 H 0.4971 0.6159 0.7299
C3_4 C 0.5520(3) 0.6227(3) 0.7247(3)
C4_4 C 0.5809(2) 0.6175(3) 0.7464(3)
H2_4 H 0.6054 0.6248 0.7309
C5_4 C 0.5741(2) 0.6013(3) 0.7918(3)
C6_4 C 0.5368(2) 0.5903(3) 0.8129(3)
H3_4 H 0.5313 0.5795 0.8435
C7_4 C 0.4690(3) 0.5824(3) 0.8105(3)
C8_4 C 0.6034(2) 0.5929(3) 0.8150(3)
C9_4 C 0.5960(3) 0.6716(4) 0.6187(4)
C10_4 C 0.5681(3) 0.6782(3) 0.5969(3)
H4_4 H 0.5431 0.6701 0.6114
C11_4 C 0.5768(2) 0.6972(3) 0.5522(3)
C12_4 C 0.6128(2) 0.7082(3) 0.5326(3)
H5_4 H 0.6183 0.7197 0.5023
C13_4 C 0.6423(3) 0.7033(3) 0.5555(3)
C14_4 C 0.6331(3) 0.6844(3) 0.5979(3)
H6_4 H 0.6523 0.6800 0.6135
C15_4 C 0.5466(2) 0.7041(2) 0.5300(2)
C16_4 C 0.6828(2) 0.7172(3) 0.5345(3)
C17_4 C 0.5862(2) 0.4702(2) 0.7820(3)
C18_4 C 0.5943(3) 0.4608(3) 0.7403(4)
H7_4 H 0.6187 0.4791 0.7255
C19_4 C 0.5681(3) 0.4249(3) 0.7172(4)
C20_4 C 0.5311(3) 0.3999(3) 0.7352(3)
H8_4 H 0.5112 0.3781 0.7177
C21_4 C 0.5233(2) 0.4079(2) 0.7811(3)
C22_4 C 0.5502(3) 0.4419(2) 0.8044(3)
H9_4 H 0.5447 0.4465 0.8354
C23_4 C 0.6141(3) 0.5078(2) 0.8049(3)
C24_4 C 0.4840(2) 0.3786(2) 0.8024(3)
C25_4 C 0.6501(3) 0.4433(3) 0.5905(3)
H10_4 H 0.6709 0.4655 0.6067
C26_4 C 0.6576(3) 0.4327(2) 0.5473(3)
C27_4 C 0.6258(3) 0.3988(2) 0.5237(3)
H11_4 H 0.6302 0.3914 0.4936
C28_4 C 0.5904(3) 0.3779(3) 0.5441(3)
C29_4 C 0.5817(3) 0.3869(3) 0.5879(4)
H12_4 H 0.5564 0.3705 0.6022
C30_4 C 0.6119(3) 0.4216(3) 0.6104(3)
C31_4 C 0.6984(2) 0.4556(2) 0.5282(4)
C32_4 C 0.5555(2) 0.3387(2) 0.5208(3)
N1_4 N 0.5576(2) 0.6414(3) 0.6787(3)
N2_4 N 0.5917(3) 0.6538(3) 0.6622(3)
N3_4 N 0.5746(3) 0.4136(3) 0.6728(3)
N4_4 N 0.6079(3) 0.4342(3) 0.6539(3)
O1_4 O 0.44291(19) 0.5836(2) 0.7855(2)
O2_4 O 0.46085(18) 0.5670(2) 0.8519(2)
O3_4 O 0.63250(16) 0.5991(2) 0.7899(2)
O4_4 O 0.59729(17) 0.5810(2) 0.85646(19)
O5_4 O 0.51791(16) 0.69961(18) 0.55470(19)
O6_4 O 0.55388(16) 0.71830(18) 0.4897(2)
O9_4 O 0.64364(16) 0.53502(18) 0.78079(19)
O10_4 O 0.60485(17) 0.51410(18) 0.8458(2)
O11_4 O 0.47667(18) 0.38671(16) 0.8430(2)
O12_4 O 0.46183(18) 0.35003(15) 0.7790(2)
O17_4 O 0.3821(2) 0.5893(2) 0.72096(17)
H13_4 H 0.3976 0.5873 0.6988
H14_4 H 0.3649 0.5977 0.7132
O18_4 O 0.4101(2) 0.5369(2) 0.94261(19)
H15_4 H 0.3955 0.5399 0.9651
H16_4 H 0.4267 0.5277 0.9499
O19_4 O 0.61341(17) 0.54813(19) 0.94593(16)
H17_4 H 0.6271 0.5430 0.9677
H18_4 H 0.5893 0.5451 0.9528
O20_4 O 0.70253(19) 0.6073(2) 0.72901(18)
H19_4 H 0.6860 0.6061 0.7061
H20_4 H 0.7284 0.6155 0.7225
Zn7_4 Zn 0.47739(3) 0.71944(2) 0.54663(3)
Zn10_4 Zn 0.52165(3) 0.73865(2) 0.45608(3)
Zn12_4 Zn 0.40358(3) 0.30299(2) 0.78357(3)
Zn14_4 Zn 0.42322(3) 0.34866(2) 0.87319(3)
O21_4 O 0.36628(18) 0.51504(24) 0.77863(19)
O22_4 O 0.38497(18) 0.49776(24) 0.8436(2)
O23_4 O 0.71162(27) 0.64516(18) 0.8268(2)
O24_4 O 0.67675(25) 0.62622(17) 0.8924(2)
O25_4 O 0.72005(16) 0.57671(24) 0.8236(2)
O26_4 O 0.68337(15) 0.55487(23) 0.8876(2)
O27_4 O 0.42355(25) 0.60891(17) 0.8860(2)
O28_4 O 0.41059(27) 0.62942(19) 0.8194(3)
O29_4 O 0.33353(19) 0.56296(25) 0.8140(2)
O30_4 O 0.34748(18) 0.54064(24) 0.8798(2)
Zn3_5 Zn 0.43392(2) 0.07024(3) 0.88309(3)
Zn4_5 Zn 0.40789(2) 0.08988(3) 0.79347(3)
C8_5 C 0.4071(3) 0.0104(4) 0.8150(3)
C17_5 C 0.5298(2) 0.1159(3) 0.7820(3)
C18_5 C 0.5392(3) 0.1334(4) 0.7403(4)
H7_5 H 0.5209 0.1395 0.7255
C19_5 C 0.5751(3) 0.1431(4) 0.7172(4)
C20_5 C 0.6001(3) 0.1311(4) 0.7352(3)
H8_5 H 0.6219 0.1330 0.7177
C21_5 C 0.5921(2) 0.1153(3) 0.7811(3)
C22_5 C 0.5581(2) 0.1082(4) 0.8044(3)
H9_5 H 0.5535 0.0981 0.8354
C23_5 C 0.4922(2) 0.1062(4) 0.8049(3)
C24_5 C 0.6214(2) 0.1053(3) 0.8024(3)
C25_5 C 0.5567(3) 0.2067(4) 0.5905(3)
H10_5 H 0.5345 0.2053 0.6067
C26_5 C 0.5673(2) 0.2248(4) 0.5473(3)
C27_5 C 0.6012(2) 0.2269(4) 0.5237(3)
H11_5 H 0.6086 0.2387 0.4936
C28_5 C 0.6221(3) 0.2124(4) 0.5441(3)
C29_5 C 0.6131(3) 0.1947(4) 0.5879(4)
H12_5 H 0.6295 0.1858 0.6022
C30_5 C 0.5784(3) 0.1902(4) 0.6104(3)
C31_5 C 0.5444(2) 0.2427(3) 0.5282(4)
C32_5 C 0.6613(2) 0.2167(3) 0.5208(3)
N3_5 N 0.5864(3) 0.1609(4) 0.6728(3)
N4_5 N 0.5658(3) 0.1736(4) 0.6539(3)
O3_5 O 0.4009(2) 0.03336(26) 0.7899(2)
O4_5 O 0.4190(2) 0.01625(26) 0.85646(19)
O9_5 O 0.46498(18) 0.10861(24) 0.78079(19)
O10_5 O 0.48590(18) 0.09074(25) 0.8458(2)
O11_5 O 0.61329(16) 0.08995(24) 0.8430(2)
O12_5 O 0.64997(15) 0.11179(23) 0.7790(2)
O19_5 O 0.45187(19) 0.06527(25) 0.94593(16)
H17_5 H 0.4570 0.0840 0.9677
H18_5 H 0.4549 0.0441 0.9528
O20_5 O 0.3927(2) 0.09519(28) 0.72901(18)
H19_5 H 0.3939 0.0798 0.7061
H20_5 H 0.3845 0.1128 0.7225
Zn12_5 Zn 0.69701(2) 0.10058(4) 0.78357(3)
Zn14_5 Zn 0.65134(2) 0.07455(4) 0.87319(3)
O23_5 O 0.35484(18) 0.06647(32) 0.8268(2)
O24_5 O 0.37378(17) 0.05054(30) 0.8924(2)
O25_5 O 0.42329(24) 0.14333(29) 0.8236(2)
O26_5 O 0.44513(23) 0.12849(27) 0.8876(2)
Zn1_5 Zn 0.42462(2) 0.81072(3) 0.78670(3)
Zn2_5 Zn 0.44967(2) 0.85498(3) 0.87725(3)
C1_5 C 0.4049(2) 0.9133(3) 0.7895(3)
C2_5 C 0.3881(4) 0.9045(5) 0.7456(3)
H1_5 H 0.3841 0.8811 0.7299
C3_5 C 0.3773(3) 0.9292(4) 0.7247(3)
C4_5 C 0.3825(3) 0.9633(4) 0.7464(3)
H2_5 H 0.3752 0.9805 0.7309
C5_5 C 0.3987(3) 0.9727(4) 0.7918(3)
C6_5 C 0.4097(3) 0.9464(4) 0.8129(3)
H3_5 H 0.4205 0.9517 0.8435
C7_5 C 0.4176(3) 0.8865(4) 0.8105(3)
C9_5 C 0.3284(4) 0.9243(5) 0.6187(4)
C10_5 C 0.3218(3) 0.8898(4) 0.5969(3)
H4_5 H 0.3299 0.8729 0.6114
C11_5 C 0.3028(3) 0.8795(4) 0.5522(3)
C12_5 C 0.2918(3) 0.9045(4) 0.5326(3)
H5_5 H 0.2803 0.8985 0.5023
C13_5 C 0.2967(3) 0.9389(4) 0.5555(3)
C14_5 C 0.3156(3) 0.9486(4) 0.5979(3)
H6_5 H 0.3200 0.9722 0.6135
C15_5 C 0.2959(2) 0.8424(3) 0.5300(2)
C16_5 C 0.2828(3) 0.9655(4) 0.5345(3)
N1_5 N 0.3586(3) 0.9161(4) 0.6787(3)
N2_5 N 0.3462(3) 0.9378(4) 0.6622(3)
O1_5 O 0.4164(2) 0.85927(28) 0.7855(2)
O2_5 O 0.4330(2) 0.89381(27) 0.8519(2)
O5_5 O 0.30039(18) 0.81829(24) 0.55470(19)
O6_5 O 0.28170(18) 0.83557(24) 0.4897(2)
O17_5 O 0.4107(2) 0.7927(3) 0.72096(17)
H13_5 H 0.4127 0.8102 0.6988
H14_5 H 0.4023 0.7671 0.7132
O18_5 O 0.4631(2) 0.8731(3) 0.94261(19)
H15_5 H 0.4601 0.8555 0.9651
H16_5 H 0.4723 0.8989 0.9499
Zn7_5 Zn 0.28056(2) 0.75795(4) 0.54663(3)
Zn10_5 Zn 0.26135(2) 0.78300(4) 0.45608(3)
O21_5 O 0.48496(24) 0.85124(30) 0.77863(19)
O22_5 O 0.50224(24) 0.88721(30) 0.8436(2)
O27_5 O 0.39109(17) 0.81465(30) 0.8860(2)
O28_5 O 0.37058(19) 0.78118(33) 0.8194(3)
O29_5 O 0.43704(25) 0.77058(31) 0.8140(2)
O30_5 O 0.45936(24) 0.80685(30) 0.8798(2)
Zn1_6 Zn 0.18928(3) 0.61389(2) 0.78670(3)
Zn2_6 Zn 0.14502(3) 0.59468(2) 0.87725(3)
C1_6 C 0.0867(3) 0.4915(2) 0.7895(3)
C2_6 C 0.0955(5) 0.4835(3) 0.7456(3)
H1_6 H 0.1189 0.5029 0.7299
C3_6 C 0.0708(4) 0.4480(3) 0.7247(3)
C4_6 C 0.0367(4) 0.4191(2) 0.7464(3)
H2_6 H 0.0195 0.3946 0.7309
C5_6 C 0.0273(4) 0.4259(2) 0.7918(3)
C6_6 C 0.0536(4) 0.4632(2) 0.8129(3)
H3_6 H 0.0483 0.4687 0.8435
C7_6 C 0.1135(4) 0.5310(3) 0.8105(3)
C9_6 C 0.0757(5) 0.4040(3) 0.6187(4)
C10_6 C 0.1102(4) 0.4319(3) 0.5969(3)
H4_6 H 0.1271 0.4569 0.6114
C11_6 C 0.1205(4) 0.4232(2) 0.5522(3)
C12_6 C 0.0955(4) 0.3872(2) 0.5326(3)
H5_6 H 0.1015 0.3817 0.5023
C13_6 C 0.0611(4) 0.3577(3) 0.5555(3)
C14_6 C 0.0514(4) 0.3669(3) 0.5979(3)
H6_6 H 0.0278 0.3477 0.6135
C15_6 C 0.1576(3) 0.4534(2) 0.5300(2)
C16_6 C 0.0345(4) 0.3172(2) 0.5345(3)
N1_6 N 0.0839(4) 0.4424(2) 0.6787(3)
N2_6 N 0.0622(4) 0.4083(3) 0.6622(3)
O1_6 O 0.14073(28) 0.55709(19) 0.7855(2)
O2_6 O 0.10619(27) 0.53915(18) 0.8519(2)
O5_6 O 0.18171(24) 0.48209(16) 0.55470(19)
O6_6 O 0.16443(24) 0.44612(16) 0.4897(2)
O17_6 O 0.2073(3) 0.6179(2) 0.72096(17)
H13_6 H 0.1898 0.6024 0.6988
H14_6 H 0.2329 0.6351 0.7132
O18_6 O 0.1269(3) 0.5899(2) 0.94261(19)
H15_6 H 0.1445 0.6045 0.9651
H16_6 H 0.1011 0.5733 0.9499
Zn7_6 Zn 0.24205(4) 0.52261(3) 0.54663(3)
Zn10_6 Zn 0.21700(4) 0.47835(3) 0.45608(3)
O21_6 O 0.14876(30) 0.63372(18) 0.77863(19)
O22_6 O 0.11279(30) 0.61503(18) 0.8436(2)
O27_6 O 0.18535(30) 0.57645(25) 0.8860(2)
O28_6 O 0.21882(33) 0.58941(27) 0.8194(3)
O29_6 O 0.22942(31) 0.66647(19) 0.8140(2)
O30_6 O 0.19315(30) 0.65252(18) 0.8798(2)
Zn3_6 Zn 0.92976(3) 0.36367(2) 0.88309(3)
Zn4_6 Zn 0.91012(3) 0.31800(2) 0.79347(3)
C8_6 C 0.9896(4) 0.3966(2) 0.8150(3)
C17_6 C 0.8841(3) 0.4138(2) 0.7820(3)
C18_6 C 0.8666(4) 0.4057(3) 0.7403(4)
H7_6 H 0.8605 0.3813 0.7255
C19_6 C 0.8569(4) 0.4319(3) 0.7172(4)
C20_6 C 0.8689(4) 0.4689(3) 0.7352(3)
H8_6 H 0.8670 0.4888 0.7177
C21_6 C 0.8847(3) 0.4767(2) 0.7811(3)
C22_6 C 0.8918(4) 0.4498(3) 0.8044(3)
H9_6 H 0.9019 0.4553 0.8354
C23_6 C 0.8938(4) 0.3859(3) 0.8049(3)
C24_6 C 0.8947(3) 0.5160(2) 0.8024(3)
C25_6 C 0.7933(4) 0.3499(3) 0.5905(3)
H10_6 H 0.7947 0.3291 0.6067
C26_6 C 0.7752(4) 0.3424(3) 0.5473(3)
C27_6 C 0.7731(4) 0.3742(3) 0.5237(3)
H11_6 H 0.7613 0.3698 0.4936
C28_6 C 0.7876(4) 0.4096(3) 0.5441(3)
C29_6 C 0.8053(4) 0.4183(3) 0.5879(4)
H12_6 H 0.8142 0.4436 0.6022
C30_6 C 0.8098(4) 0.3881(3) 0.6104(3)
C31_6 C 0.7573(3) 0.3016(2) 0.5282(4)
C32_6 C 0.7833(3) 0.4445(2) 0.5208(3)
N3_6 N 0.8391(4) 0.4254(3) 0.6728(3)
N4_6 N 0.8264(4) 0.3921(3) 0.6539(3)
O3_6 O 0.96664(26) 0.36750(16) 0.7899(2)
O4_6 O 0.98375(26) 0.40271(17) 0.85646(19)
O9_6 O 0.89139(24) 0.35636(16) 0.78079(19)
O10_6 O 0.90926(25) 0.39515(17) 0.8458(2)
O11_6 O 0.91005(24) 0.52333(18) 0.8430(2)
O12_6 O 0.88821(23) 0.53817(18) 0.7790(2)
O19_6 O 0.93473(25) 0.38659(17) 0.94593(16)
H17_6 H 0.9160 0.3729 0.9677
H18_6 H 0.9559 0.4107 0.9528
O20_6 O 0.90481(28) 0.29747(19) 0.72901(18)
H19_6 H 0.9202 0.3140 0.7061
H20_6 H 0.8872 0.2716 0.7225
Zn12_6 Zn 0.89942(4) 0.59642(3) 0.78357(3)
Zn14_6 Zn 0.92545(4) 0.57678(3) 0.87319(3)
O23_6 O 0.93353(32) 0.28838(27) 0.8268(2)
O24_6 O 0.94946(30) 0.32325(25) 0.8924(2)
O25_6 O 0.85667(29) 0.27995(16) 0.8236(2)
O26_6 O 0.87151(27) 0.31663(15) 0.8876(2)
C9_7 C 0.2626(3) 0.0050(4) 0.9521(4)
C10_7 C 0.2347(3) 0.0116(3) 0.9303(3)
H4_7 H 0.2097 0.0035 0.9448
C11_7 C 0.2434(2) 0.0306(3) 0.8856(3)
C12_7 C 0.2794(2) 0.0416(3) 0.8660(3)
H5_7 H 0.2849 0.0531 0.8357
C13_7 C 0.3089(3) 0.0367(3) 0.8889(3)
C14_7 C 0.2997(3) 0.0178(3) 0.9313(3)
H6_7 H 0.3189 0.0134 0.9469
C15_7 C 0.2132(2) 0.0375(2) 0.8634(2)
C16_7 C 0.3494(2) 0.0506(3) 0.8679(3)
O5_7 O 0.18457(16) 0.03295(18) 0.88804(19)
O6_7 O 0.22054(16) 0.05164(18) 0.8231(2)
Zn7_7 Zn 0.14406(3) 0.05277(2) 0.87996(3)
Zn10_7 Zn 0.18832(3) 0.07198(2) 0.78941(3)
C1_7 C 0.1751(2) 0.9285(2) 0.1229(3)
C2_7 C 0.1831(3) 0.9453(4) 0.0790(3)
H1_7 H 0.1637 0.9493 0.0633
C3_7 C 0.2186(3) 0.9561(3) 0.0581(3)
C4_7 C 0.2475(2) 0.9509(3) 0.0798(3)
H2_7 H 0.2720 0.9582 0.0643
C5_7 C 0.2407(2) 0.9347(3) 0.1252(3)
C6_7 C 0.2034(2) 0.9237(3) 0.1463(3)
H3_7 H 0.1979 0.9129 0.1769
C7_7 C 0.1356(3) 0.9158(3) 0.1439(3)
C8_7 C 0.2700(2) 0.9263(3) 0.1484(3)
C17_7 C 0.2528(2) 0.8036(2) 0.1154(3)
C18_7 C 0.2609(3) 0.7942(3) 0.0737(4)
H7_7 H 0.2853 0.8125 0.0589
C19_7 C 0.2347(3) 0.7583(3) 0.0506(4)
C20_7 C 0.1977(3) 0.7333(3) 0.0686(3)
H8_7 H 0.1778 0.7115 0.0511
C21_7 C 0.1899(2) 0.7413(2) 0.1145(3)
C22_7 C 0.2168(3) 0.7753(2) 0.1378(3)
H9_7 H 0.2113 0.7799 0.1688
C23_7 C 0.2807(3) 0.8412(2) 0.1383(3)
C24_7 C 0.1506(2) 0.7120(2) 0.1358(3)
N1_7 N 0.2242(2) 0.9748(3) 0.0121(3)
N3_7 N 0.2412(3) 0.7470(3) 0.0062(3)
O1_7 O 0.10957(19) 0.9170(2) 0.1189(2)
O2_7 O 0.12751(18) 0.9004(2) 0.1853(2)
O3_7 O 0.29916(16) 0.9325(2) 0.1233(2)
O4_7 O 0.26395(17) 0.9144(2) 0.18980(19)
O9_7 O 0.31030(16) 0.86836(18) 0.11413(19)
O10_7 O 0.27151(17) 0.84744(18) 0.1792(2)
O11_7 O 0.14333(18) 0.72005(16) 0.1764(2)
O12_7 O 0.12849(18) 0.68337(15) 0.1124(2)
O17_7 O 0.0487(2) 0.9227(2) 0.05430(17)
H13_7 H 0.0642 0.9207 0.0322
H14_7 H 0.0315 0.9311 0.0466
O18_7 O 0.0767(2) 0.8703(2) 0.27595(19)
H15_7 H 0.0621 0.8733 0.2985
H16_7 H 0.0933 0.8611 0.2833
O19_7 O 0.28007(17) 0.88147(19) 0.27927(16)
H17_7 H 0.2937 0.8764 0.3011
H18_7 H 0.2559 0.8785 0.2862
O20_7 O 0.36919(19) 0.9407(2) 0.06235(18)
H19_7 H 0.3526 0.9395 0.0395
H20_7 H 0.3950 0.9489 0.0559
Zn12_7 Zn 0.07024(3) 0.63633(2) 0.11691(3)
Zn14_7 Zn 0.08988(3) 0.68200(2) 0.20653(3)
O21_7 O 0.03295(18) 0.84837(24) 0.11196(19)
O22_7 O 0.05164(18) 0.83109(24) 0.1769(2)
O25_7 O 0.38671(16) 0.91005(24) 0.1570(2)
O26_7 O 0.35003(15) 0.88821(23) 0.2210(2)
C25_7 C 0.3167(3) 0.7767(3) 0.9239(3)
H10_7 H 0.3375 0.7989 0.9401
C26_7 C 0.3242(3) 0.7661(2) 0.8807(3)
C27_7 C 0.2924(3) 0.7322(2) 0.8571(3)
H11_7 H 0.2968 0.7248 0.8270
C28_7 C 0.2570(3) 0.7113(3) 0.8775(3)
C29_7 C 0.2483(3) 0.7203(3) 0.9213(4)
H12_7 H 0.2230 0.7039 0.9356
C30_7 C 0.2785(3) 0.7550(3) 0.9438(3)
C31_7 C 0.3650(2) 0.7890(2) 0.8616(4)
C32_7 C 0.2221(2) 0.6721(2) 0.8542(3)
N2_7 N 0.2583(3) 0.9872(3) 0.9956(3)
N4_7 N 0.2745(3) 0.7676(3) 0.9873(3)
C1_8 C 0.0715(2) 0.2467(3) 0.1229(3)
C2_8 C 0.0547(4) 0.2379(5) 0.0790(3)
H1_8 H 0.0507 0.2145 0.0633
C3_8 C 0.0439(3) 0.2626(4) 0.0581(3)
C4_8 C 0.0491(3) 0.2967(4) 0.0798(3)
H2_8 H 0.0418 0.3139 0.0643
C5_8 C 0.0653(3) 0.3061(4) 0.1252(3)
C6_8 C 0.0763(3) 0.2798(4) 0.1463(3)
H3_8 H 0.0871 0.2851 0.1769
C7_8 C 0.0842(3) 0.2199(4) 0.1439(3)
C8_8 C 0.0737(3) 0.3438(4) 0.1484(3)
C17_8 C 0.1964(2) 0.4493(3) 0.1154(3)
C18_8 C 0.2058(3) 0.4668(4) 0.0737(4)
H7_8 H 0.1875 0.4729 0.0589
C19_8 C 0.2417(3) 0.4765(4) 0.0506(4)
C20_8 C 0.2667(3) 0.4645(4) 0.0686(3)
H8_8 H 0.2885 0.4664 0.0511
C21_8 C 0.2587(2) 0.4487(3) 0.1145(3)
C22_8 C 0.2247(2) 0.4416(4) 0.1378(3)
H9_8 H 0.2201 0.4315 0.1688
C23_8 C 0.1588(2) 0.4396(4) 0.1383(3)
C24_8 C 0.2880(2) 0.4387(3) 0.1358(3)
N1_8 N 0.0252(3) 0.2495(4) 0.0121(3)
N3_8 N 0.2530(3) 0.4943(4) 0.0062(3)
O1_8 O 0.0830(2) 0.19261(28) 0.1189(2)
O2_8 O 0.0996(2) 0.22715(27) 0.1853(2)
O3_8 O 0.0675(2) 0.36670(26) 0.1233(2)
O4_8 O 0.0856(2) 0.34959(26) 0.18980(19)
O9_8 O 0.13164(18) 0.44195(24) 0.11413(19)
O10_8 O 0.15256(18) 0.42408(25) 0.1792(2)
O11_8 O 0.27995(16) 0.42329(24) 0.1764(2)
O12_8 O 0.31663(15) 0.44513(23) 0.1124(2)
O17_8 O 0.0773(2) 0.1261(3) 0.05430(17)
H13_8 H 0.0793 0.1436 0.0322
H14_8 H 0.0689 0.1005 0.0466
O18_8 O 0.1297(2) 0.2065(3) 0.27595(19)
H15_8 H 0.1267 0.1889 0.2985
H16_8 H 0.1389 0.2323 0.2833
O19_8 O 0.11853(19) 0.39861(25) 0.27927(16)
H17_8 H 0.1236 0.4174 0.3011
H18_8 H 0.1215 0.3775 0.2862
O20_8 O 0.0593(2) 0.42853(28) 0.06235(18)
H19_8 H 0.0605 0.4132 0.0395
H20_8 H 0.0511 0.4462 0.0559
Zn12_8 Zn 0.36367(2) 0.43392(4) 0.11691(3)
Zn14_8 Zn 0.31800(2) 0.40789(4) 0.20653(3)
O21_8 O 0.15163(24) 0.18457(30) 0.11196(19)
O22_8 O 0.16891(24) 0.22054(30) 0.1769(2)
O25_8 O 0.08995(24) 0.47667(29) 0.1570(2)
O26_8 O 0.11179(23) 0.46183(27) 0.2210(2)
C25_8 C 0.2233(3) 0.5401(4) 0.9239(3)
H10_8 H 0.2011 0.5387 0.9401
C26_8 C 0.2339(2) 0.5582(4) 0.8807(3)
C27_8 C 0.2678(2) 0.5603(4) 0.8571(3)
H11_8 H 0.2752 0.5721 0.8270
C28_8 C 0.2887(3) 0.5458(4) 0.8775(3)
C29_8 C 0.2797(3) 0.5281(4) 0.9213(4)
H12_8 H 0.2961 0.5192 0.9356
C30_8 C 0.2450(3) 0.5236(4) 0.9438(3)
C31_8 C 0.2110(2) 0.5761(3) 0.8616(4)
C32_8 C 0.3279(2) 0.5501(3) 0.8542(3)
N2_8 N 0.0128(3) 0.2712(4) 0.9956(3)
N4_8 N 0.2324(3) 0.5070(4) 0.9873(3)
C9_8 C 0.9950(4) 0.2577(5) 0.9521(4)
C10_8 C 0.9884(3) 0.2232(4) 0.9303(3)
H4_8 H 0.9965 0.2063 0.9448
C11_8 C 0.9694(3) 0.2129(4) 0.8856(3)
C12_8 C 0.9584(3) 0.2379(4) 0.8660(3)
H5_8 H 0.9469 0.2319 0.8357
C13_8 C 0.9633(3) 0.2723(4) 0.8889(3)
C14_8 C 0.9822(3) 0.2820(4) 0.9313(3)
H6_8 H 0.9866 0.3056 0.9469
C15_8 C 0.9625(2) 0.1758(3) 0.8634(2)
C16_8 C 0.9494(3) 0.2989(4) 0.8679(3)
O5_8 O 0.96705(18) 0.15163(24) 0.88804(19)
O6_8 O 0.94836(18) 0.16891(24) 0.8231(2)
Zn7_8 Zn 0.94723(2) 0.09128(4) 0.87996(3)
Zn10_8 Zn 0.92802(2) 0.11633(4) 0.78941(3)
C1_9 C 0.7533(3) 0.8249(2) 0.1229(3)
C2_9 C 0.7621(5) 0.8169(3) 0.0790(3)
H1_9 H 0.7855 0.8363 0.0633
C3_9 C 0.7374(4) 0.7814(3) 0.0581(3)
C4_9 C 0.7033(4) 0.7525(2) 0.0798(3)
H2_9 H 0.6861 0.7280 0.0643
C5_9 C 0.6939(4) 0.7593(2) 0.1252(3)
C6_9 C 0.7202(4) 0.7966(2) 0.1463(3)
H3_9 H 0.7149 0.8021 0.1769
C7_9 C 0.7801(4) 0.8644(3) 0.1439(3)
C8_9 C 0.6562(4) 0.7300(2) 0.1484(3)
C17_9 C 0.5507(3) 0.7472(2) 0.1154(3)
C18_9 C 0.5332(4) 0.7391(3) 0.0737(4)
H7_9 H 0.5271 0.7147 0.0589
C19_9 C 0.5235(4) 0.7653(3) 0.0506(4)
C20_9 C 0.5355(4) 0.8023(3) 0.0686(3)
H8_9 H 0.5336 0.8222 0.0511
C21_9 C 0.5513(3) 0.8101(2) 0.1145(3)
C22_9 C 0.5584(4) 0.7832(3) 0.1378(3)
H9_9 H 0.5685 0.7887 0.1688
C23_9 C 0.5604(4) 0.7193(3) 0.1383(3)
C24_9 C 0.5613(3) 0.8494(2) 0.1358(3)
N1_9 N 0.7505(4) 0.7758(2) 0.0121(3)
N3_9 N 0.5057(4) 0.7588(3) 0.0062(3)
O1_9 O 0.80739(28) 0.89043(19) 0.1189(2)
O2_9 O 0.77285(27) 0.87249(18) 0.1853(2)
O3_9 O 0.63330(26) 0.70084(16) 0.1233(2)
O4_9 O 0.65041(26) 0.73605(17) 0.18980(19)
O9_9 O 0.55805(24) 0.68970(16) 0.11413(19)
O10_9 O 0.57592(25) 0.72849(17) 0.1792(2)
O11_9 O 0.57671(24) 0.85667(18) 0.1764(2)
O12_9 O 0.55487(23) 0.87151(18) 0.1124(2)
O17_9 O 0.8739(3) 0.9513(2) 0.05430(17)
H13_9 H 0.8564 0.9358 0.0322
H14_9 H 0.8995 0.9685 0.0466
O18_9 O 0.7935(3) 0.9233(2) 0.27595(19)
H15_9 H 0.8111 0.9379 0.2985
H16_9 H 0.7677 0.9067 0.2833
O19_9 O 0.60139(25) 0.71993(17) 0.27927(16)
H17_9 H 0.5826 0.7063 0.3011
H18_9 H 0.6225 0.7441 0.2862
O20_9 O 0.57147(28) 0.63081(19) 0.06235(18)
H19_9 H 0.5868 0.6474 0.0395
H20_9 H 0.5538 0.6050 0.0559
Zn12_9 Zn 0.56608(4) 0.92976(3) 0.11691(3)
Zn14_9 Zn 0.59211(4) 0.91012(3) 0.20653(3)
O21_9 O 0.81543(30) 0.96705(18) 0.11196(19)
O22_9 O 0.77946(30) 0.94836(18) 0.1769(2)
O25_9 O 0.52333(29) 0.61329(16) 0.1570(2)
O26_9 O 0.53817(27) 0.64997(15) 0.2210(2)
C9_9 C 0.7423(5) 0.7374(3) 0.9521(4)
C10_9 C 0.7768(4) 0.7653(3) 0.9303(3)
H4_9 H 0.7937 0.7903 0.9448
C11_9 C 0.7871(4) 0.7566(2) 0.8856(3)
C12_9 C 0.7621(4) 0.7206(2) 0.8660(3)
H5_9 H 0.7681 0.7151 0.8357
C13_9 C 0.7277(4) 0.6911(3) 0.8889(3)
C14_9 C 0.7180(4) 0.7003(3) 0.9313(3)
H6_9 H 0.6944 0.6811 0.9469
C15_9 C 0.8242(3) 0.7868(2) 0.8634(2)
C16_9 C 0.7011(4) 0.6506(2) 0.8679(3)
C25_9 C 0.4599(4) 0.6833(3) 0.9239(3)
H10_9 H 0.4613 0.6625 0.9401
C26_9 C 0.4418(4) 0.6758(3) 0.8807(3)
C27_9 C 0.4397(4) 0.7076(3) 0.8571(3)
H11_9 H 0.4279 0.7032 0.8270
C28_9 C 0.4542(4) 0.7430(3) 0.8775(3)
C29_9 C 0.4719(4) 0.7517(3) 0.9213(4)
H12_9 H 0.4808 0.7770 0.9356
C30_9 C 0.4764(4) 0.7215(3) 0.9438(3)
C31_9 C 0.4239(3) 0.6350(2) 0.8616(4)
C32_9 C 0.4499(3) 0.7779(2) 0.8542(3)
N2_9 N 0.7288(4) 0.7417(3) 0.9956(3)
N4_9 N 0.4930(4) 0.7255(3) 0.9873(3)
O5_9 O 0.84837(24) 0.81543(16) 0.88804(19)
O6_9 O 0.83109(24) 0.77946(16) 0.8231(2)
Zn7_9 Zn 0.90872(4) 0.85594(3) 0.87996(3)
Zn10_9 Zn 0.88367(4) 0.81168(3) 0.78941(3)
O15_4 O 0.10391(16) 0.00020(19) 0.8527(2)
O16_4 O 0.14018(16) 0.01415(18) 0.7869(2)
C1_10 C 0.1582(2) 0.7382(2) 0.5438(3)
C2_10 C 0.1502(3) 0.7214(4) 0.5877(3)
H1_10 H 0.1696 0.7174 0.6034
C3_10 C 0.1147(3) 0.7106(3) 0.6086(3)
C4_10 C 0.0858(2) 0.7158(3) 0.5869(3)
H2_10 H 0.0613 0.7085 0.6024
C5_10 C 0.0926(2) 0.7320(3) 0.5415(3)
C6_10 C 0.1299(2) 0.7430(3) 0.5204(3)
H3_10 H 0.1354 0.7538 0.4898
C7_10 C 0.1977(3) 0.7509(3) 0.5228(3)
C8_10 C 0.0633(2) 0.7404(3) 0.5183(3)
C9_10 C 0.0707(3) 0.6617(4) 0.7146(4)
C10_10 C 0.0986(3) 0.6551(3) 0.7364(3)
H4_10 H 0.1236 0.6632 0.7219
C11_10 C 0.0899(2) 0.6361(3) 0.7811(3)
C12_10 C 0.0539(2) 0.6251(3) 0.8007(3)
H5_10 H 0.0484 0.6136 0.8310
C13_10 C 0.0244(3) 0.6300(3) 0.7778(3)
C14_10 C 0.0336(3) 0.6489(3) 0.7354(3)
H6_10 H 0.0144 0.6533 0.7198
C15_10 C 0.1201(2) 0.6292(2) 0.8033(2)
C17_10 C 0.0805(2) 0.8631(2) 0.5513(3)
C18_10 C 0.0724(3) 0.8725(3) 0.5930(4)
H7_10 H 0.0480 0.8542 0.6078
C19_10 C 0.0986(3) 0.9084(3) 0.6161(4)
C20_10 C 0.1356(3) 0.9334(3) 0.5981(3)
H8_10 H 0.1555 0.9552 0.6156
C21_10 C 0.1434(2) 0.9254(2) 0.5522(3)
C22_10 C 0.1165(3) 0.8914(2) 0.5289(3)
H9_10 H 0.1220 0.8868 0.4979
C23_10 C 0.0526(3) 0.8255(2) 0.5284(3)
C24_10 C 0.1827(2) 0.9547(2) 0.5309(3)
C25_10 C 0.0166(3) 0.8900(3) 0.7428(3)
C26_10 C 0.0091(3) 0.9006(2) 0.7860(3)
C27_10 C 0.0409(3) 0.9345(2) 0.8096(3)
H11_10 H 0.0365 0.9419 0.8397
C28_10 C 0.0763(3) 0.9554(3) 0.7892(3)
C29_10 C 0.0850(3) 0.9464(3) 0.7454(4)
H12_10 H 0.1103 0.9628 0.7311
C30_10 C 0.0548(3) 0.9117(3) 0.7229(3)
C32_10 C 0.1112(2) 0.9946(2) 0.8125(3)
N1_10 N 0.1091(2) 0.6919(3) 0.6546(3)
N2_10 N 0.0750(3) 0.6795(3) 0.6711(3)
N3_10 N 0.0921(3) 0.9197(3) 0.6605(3)
N4_10 N 0.0588(3) 0.8991(3) 0.6794(3)
O1_10 O 0.22376(19) 0.7497(2) 0.5478(2)
O2_10 O 0.20582(18) 0.7663(2) 0.4814(2)
O3_10 O 0.03417(16) 0.7342(2) 0.5434(2)
O4_10 O 0.06938(17) 0.7523(2) 0.47687(19)
O9_10 O 0.02303(16) 0.79831(18) 0.55254(19)
O10_10 O 0.06182(17) 0.81923(18) 0.4875(2)
O17_10 O 0.2846(2) 0.7440(2) 0.61237(17)
H13_10 H 0.2691 0.7460 0.6345
H14_10 H 0.3018 0.7356 0.6201
O18_10 O 0.2566(2) 0.7964(2) 0.39072(19)
H15_10 H 0.2712 0.7934 0.3682
H16_10 H 0.2400 0.8056 0.3834
O19_10 O 0.05326(17) 0.78520(19) 0.38740(16)
H17_10 H 0.0396 0.7903 0.3656
H18_10 H 0.0774 0.7882 0.3805
O27_7 O 0.24311(25) 0.72443(17) 0.4474(2)
O28_7 O 0.25607(27) 0.70392(19) 0.5140(3)
O29_7 O 0.33313(19) 0.77038(25) 0.5194(2)
O30_7 O 0.31918(18) 0.79270(24) 0.4536(2)
C16_10 C 0.9839(2) 0.6161(3) 0.7988(3)
H10_10 H 0.9958 0.8678 0.7266
C31_10 C 0.9683(2) 0.8777(2) 0.8051(4)
O7_4 O 0.97849(18) 0.6002(2) 0.8399(2)
O8_4 O 0.95955(17) 0.61613(19) 0.7743(2)
O13_4 O 0.94224(17) 0.85202(18) 0.7807(2)
O14_4 O 0.96275(19) 0.88549(19) 0.8473(3)
O20_10 O 0.96414(19) 0.7260(2) 0.60432(18)
H19_10 H 0.9807 0.7272 0.6272
H20_10 H 0.9383 0.7178 0.6108
O23_7 O 0.95504(27) 0.68818(18) 0.5066(2)
O24_7 O 0.98991(25) 0.70712(17) 0.4410(2)
C1_11 C 0.2618(2) 0.4200(3) 0.5438(3)
C2_11 C 0.2786(4) 0.4288(5) 0.5877(3)
H1_11 H 0.2826 0.4522 0.6034
C3_11 C 0.2894(3) 0.4041(4) 0.6086(3)
C4_11 C 0.2842(3) 0.3700(4) 0.5869(3)
H2_11 H 0.2915 0.3528 0.6024
C5_11 C 0.2680(3) 0.3606(4) 0.5415(3)
C6_11 C 0.2570(3) 0.3869(4) 0.5204(3)
H3_11 H 0.2462 0.3816 0.4898
C7_11 C 0.2491(3) 0.4468(4) 0.5228(3)
C8_11 C 0.2596(3) 0.3229(4) 0.5183(3)
C9_11 C 0.3383(4) 0.4090(5) 0.7146(4)
C10_11 C 0.3449(3) 0.4435(4) 0.7364(3)
H4_11 H 0.3368 0.4604 0.7219
C11_11 C 0.3639(3) 0.4538(4) 0.7811(3)
C12_11 C 0.3749(3) 0.4288(4) 0.8007(3)
H5_11 H 0.3864 0.4348 0.8310
C13_11 C 0.3700(3) 0.3944(4) 0.7778(3)
C14_11 C 0.3511(3) 0.3847(4) 0.7354(3)
H6_11 H 0.3467 0.3611 0.7198
C15_11 C 0.3708(2) 0.4909(3) 0.8033(2)
C16_11 C 0.3839(3) 0.3678(4) 0.7988(3)
C17_11 C 0.1369(2) 0.2174(3) 0.5513(3)
C18_11 C 0.1275(3) 0.1999(4) 0.5930(4)
H7_11 H 0.1458 0.1938 0.6078
C19_11 C 0.0916(3) 0.1902(4) 0.6161(4)
C20_11 C 0.0666(3) 0.2022(4) 0.5981(3)
H8_11 H 0.0448 0.2003 0.6156
C21_11 C 0.0746(2) 0.2180(3) 0.5522(3)
C22_11 C 0.1086(2) 0.2251(4) 0.5289(3)
H9_11 H 0.1132 0.2352 0.4979
C23_11 C 0.1745(2) 0.2271(4) 0.5284(3)
C24_11 C 0.0453(2) 0.2280(3) 0.5309(3)
C25_11 C 0.1100(3) 0.1266(4) 0.7428(3)
H10_11 H 0.1322 0.1280 0.7266
C26_11 C 0.0994(2) 0.1085(4) 0.7860(3)
C27_11 C 0.0655(2) 0.1064(4) 0.8096(3)
H11_11 H 0.0581 0.0946 0.8397
C28_11 C 0.0446(3) 0.1209(4) 0.7892(3)
C29_11 C 0.0536(3) 0.1386(4) 0.7454(4)
H12_11 H 0.0372 0.1475 0.7311
C30_11 C 0.0883(3) 0.1431(4) 0.7229(3)
C31_11 C 0.1223(2) 0.0906(3) 0.8051(4)
C32_11 C 0.0054(2) 0.1166(3) 0.8125(3)
N1_11 N 0.3081(3) 0.4172(4) 0.6546(3)
N2_11 N 0.3205(3) 0.3955(4) 0.6711(3)
N3_11 N 0.0803(3) 0.1724(4) 0.6605(3)
N4_11 N 0.1009(3) 0.1597(4) 0.6794(3)
O1_11 O 0.2503(2) 0.47406(28) 0.5478(2)
O2_11 O 0.2337(2) 0.43952(27) 0.4814(2)
O3_11 O 0.2658(2) 0.29997(26) 0.5434(2)
O4_11 O 0.2477(2) 0.31708(26) 0.47687(19)
O7_5 O 0.3998(2) 0.37829(27) 0.8399(2)
O8_5 O 0.38387(19) 0.34342(25) 0.7743(2)
O9_11 O 0.20169(18) 0.22472(24) 0.55254(19)
O10_11 O 0.18077(18) 0.24259(25) 0.4875(2)
O13_5 O 0.14798(18) 0.09022(25) 0.7807(2)
O14_5 O 0.11451(19) 0.07726(27) 0.8473(3)
O17_11 O 0.2560(2) 0.5406(3) 0.61237(17)
H13_11 H 0.2540 0.5231 0.6345
H14_11 H 0.2644 0.5662 0.6201
O18_11 O 0.2036(2) 0.4602(3) 0.39072(19)
H15_11 H 0.2066 0.4778 0.3682
H16_11 H 0.1944 0.4344 0.3834
O19_11 O 0.21480(19) 0.26806(25) 0.38740(16)
H17_11 H 0.2097 0.2493 0.3656
H18_11 H 0.2118 0.2892 0.3805
O20_11 O 0.2740(2) 0.23814(28) 0.60432(18)
H19_11 H 0.2728 0.2535 0.6272
H20_11 H 0.2822 0.2205 0.6108
O23_8 O 0.31182(18) 0.26687(32) 0.5066(2)
O24_8 O 0.29288(17) 0.28280(30) 0.4410(2)
O27_8 O 0.27557(17) 0.51869(30) 0.4474(2)
O28_8 O 0.29608(19) 0.55216(33) 0.5140(3)
O29_8 O 0.22962(25) 0.56276(31) 0.5194(2)
O30_8 O 0.20730(24) 0.52649(30) 0.4536(2)
O15_5 O 0.99980(19) 0.10371(25) 0.8527(2)
O16_5 O 0.98585(18) 0.12603(24) 0.7869(2)
C16_12 C 0.6322(4) 0.0161(2) 0.7988(3)
H10_12 H 0.8720 0.0042 0.7266
C31_12 C 0.9094(3) 0.0317(2) 0.8051(4)
O7_6 O 0.62171(27) 0.02151(18) 0.8399(2)
O8_6 O 0.65658(25) 0.04045(17) 0.7743(2)
O13_6 O 0.90978(25) 0.05776(17) 0.7807(2)
O14_6 O 0.92274(27) 0.03725(19) 0.8473(3)
O20_12 O 0.76186(28) 0.03586(19) 0.60432(18)
H19_12 H 0.7465 0.0193 0.6272
H20_12 H 0.7795 0.0617 0.6108
O23_9 O 0.73313(32) 0.04496(27) 0.5066(2)
O24_9 O 0.71720(30) 0.01009(25) 0.4410(2)
C1_12 C 0.5800(3) 0.8418(2) 0.5438(3)
C2_12 C 0.5712(5) 0.8498(3) 0.5877(3)
H1_12 H 0.5478 0.8304 0.6034
C3_12 C 0.5959(4) 0.8853(3) 0.6086(3)
C4_12 C 0.6300(4) 0.9142(2) 0.5869(3)
H2_12 H 0.6472 0.9387 0.6024
C5_12 C 0.6394(4) 0.9074(2) 0.5415(3)
C6_12 C 0.6131(4) 0.8701(2) 0.5204(3)
H3_12 H 0.6184 0.8646 0.4898
C7_12 C 0.5532(4) 0.8023(3) 0.5228(3)
C8_12 C 0.6771(4) 0.9367(2) 0.5183(3)
C9_12 C 0.5910(5) 0.9293(3) 0.7146(4)
C10_12 C 0.5565(4) 0.9014(3) 0.7364(3)
H4_12 H 0.5396 0.8764 0.7219
C11_12 C 0.5462(4) 0.9101(2) 0.7811(3)
C12_12 C 0.5712(4) 0.9461(2) 0.8007(3)
H5_12 H 0.5652 0.9516 0.8310
C13_12 C 0.6056(4) 0.9756(3) 0.7778(3)
C14_12 C 0.6153(4) 0.9664(3) 0.7354(3)
H6_12 H 0.6389 0.9856 0.7198
C15_12 C 0.5091(3) 0.8799(2) 0.8033(2)
C17_12 C 0.7826(3) 0.9195(2) 0.5513(3)
C18_12 C 0.8001(4) 0.9276(3) 0.5930(4)
H7_12 H 0.8062 0.9520 0.6078
C19_12 C 0.8098(4) 0.9014(3) 0.6161(4)
C20_12 C 0.7978(4) 0.8644(3) 0.5981(3)
H8_12 H 0.7997 0.8445 0.6156
C21_12 C 0.7820(3) 0.8566(2) 0.5522(3)
C22_12 C 0.7749(4) 0.8835(3) 0.5289(3)
H9_12 H 0.7648 0.8780 0.4979
C23_12 C 0.7729(4) 0.9474(3) 0.5284(3)
C24_12 C 0.7720(3) 0.8173(2) 0.5309(3)
C25_12 C 0.8734(4) 0.9834(3) 0.7428(3)
C26_12 C 0.8915(4) 0.9909(3) 0.7860(3)
C27_12 C 0.8936(4) 0.9591(3) 0.8096(3)
H11_12 H 0.9054 0.9635 0.8397
C28_12 C 0.8791(4) 0.9237(3) 0.7892(3)
C29_12 C 0.8614(4) 0.9150(3) 0.7454(4)
H12_12 H 0.8525 0.8897 0.7311
C30_12 C 0.8569(4) 0.9452(3) 0.7229(3)
C32_12 C 0.8834(3) 0.8888(2) 0.8125(3)
N1_12 N 0.5828(4) 0.8909(2) 0.6546(3)
N2_12 N 0.6045(4) 0.9250(3) 0.6711(3)
N3_12 N 0.8276(4) 0.9079(3) 0.6605(3)
N4_12 N 0.8403(4) 0.9412(3) 0.6794(3)
O1_12 O 0.52594(28) 0.77624(19) 0.5478(2)
O2_12 O 0.56048(27) 0.79418(18) 0.4814(2)
O3_12 O 0.70003(26) 0.96583(16) 0.5434(2)
O4_12 O 0.68292(26) 0.93062(17) 0.47687(19)
O9_12 O 0.77528(24) 0.97697(16) 0.55254(19)
O10_12 O 0.75741(25) 0.93818(17) 0.4875(2)
O15_6 O 0.89629(25) 0.89609(16) 0.8527(2)
O16_6 O 0.87397(24) 0.85982(16) 0.7869(2)
O17_12 O 0.4594(3) 0.7154(2) 0.61237(17)
H13_12 H 0.4769 0.7309 0.6345
H14_12 H 0.4338 0.6982 0.6201
O18_12 O 0.5398(3) 0.7434(2) 0.39072(19)
H15_12 H 0.5222 0.7288 0.3682
H16_12 H 0.5656 0.7600 0.3834
O19_12 O 0.73194(25) 0.94674(17) 0.38740(16)
H17_12 H 0.7507 0.9604 0.3656
H18_12 H 0.7108 0.9226 0.3805
O27_9 O 0.48131(30) 0.75689(25) 0.4474(2)
O28_9 O 0.44784(33) 0.74393(27) 0.5140(3)
O29_9 O 0.43724(31) 0.66687(19) 0.5194(2)
O30_9 O 0.47351(30) 0.68082(18) 0.4536(2)
C1_13 C 0.4915(2) 0.4049(2) 0.2105(3)
C2_13 C 0.4835(3) 0.3881(4) 0.2544(3)
H1_13 H 0.5029 0.3841 0.2701
C3_13 C 0.4480(3) 0.3773(3) 0.2753(3)
C4_13 C 0.4191(2) 0.3825(3) 0.2536(3)
H2_13 H 0.3946 0.3752 0.2691
C5_13 C 0.4259(2) 0.3987(3) 0.2082(3)
C6_13 C 0.4632(2) 0.4097(3) 0.1871(3)
H3_13 H 0.4687 0.4205 0.1565
C7_13 C 0.5310(3) 0.4176(3) 0.1895(3)
C8_13 C 0.3966(2) 0.4071(3) 0.1850(3)
C9_13 C 0.4040(3) 0.3284(4) 0.3813(4)
C10_13 C 0.4319(3) 0.3218(3) 0.4031(3)
H4_13 H 0.4569 0.3299 0.3886
C11_13 C 0.4232(2) 0.3028(3) 0.4478(3)
C12_13 C 0.3872(2) 0.2918(3) 0.4674(3)
H5_13 H 0.3817 0.2803 0.4977
C13_13 C 0.3577(3) 0.2967(3) 0.4445(3)
C14_13 C 0.3669(3) 0.3156(3) 0.4021(3)
H6_13 H 0.3477 0.3200 0.3865
C15_13 C 0.4534(2) 0.2959(2) 0.4700(2)
C16_13 C 0.3172(2) 0.2828(3) 0.4655(3)
C17_13 C 0.4138(2) 0.5298(2) 0.2180(3)
C18_13 C 0.4057(3) 0.5392(3) 0.2597(4)
H7_13 H 0.3813 0.5209 0.2745
C19_13 C 0.4319(3) 0.5751(3) 0.2828(4)
C20_13 C 0.4689(3) 0.6001(3) 0.2648(3)
H8_13 H 0.4888 0.6219 0.2823
C21_13 C 0.4767(2) 0.5921(2) 0.2189(3)
C22_13 C 0.4498(3) 0.5581(2) 0.1956(3)
H9_13 H 0.4553 0.5535 0.1646
C23_13 C 0.3859(3) 0.4922(2) 0.1951(3)
C24_13 C 0.5160(2) 0.6214(2) 0.1976(3)
C25_13 C 0.3499(3) 0.5567(3) 0.4095(3)
H10_13 H 0.3291 0.5345 0.3933
C26_13 C 0.3424(3) 0.5673(2) 0.4527(3)
C27_13 C 0.3742(3) 0.6012(2) 0.4763(3)
H11_13 H 0.3698 0.6086 0.5064
C28_13 C 0.4096(3) 0.6221(3) 0.4559(3)
C29_13 C 0.4183(3) 0.6131(3) 0.4121(4)
H12_13 H 0.4436 0.6295 0.3978
C30_13 C 0.3881(3) 0.5784(3) 0.3896(3)
C31_13 C 0.3016(2) 0.5444(2) 0.4718(4)
C32_13 C 0.4445(2) 0.6613(2) 0.4792(3)
N1_13 N 0.4424(2) 0.3586(3) 0.3213(3)
N2_13 N 0.4083(3) 0.3462(3) 0.3378(3)
N3_13 N 0.4254(3) 0.5864(3) 0.3272(3)
N4_13 N 0.3921(3) 0.5658(3) 0.3461(3)
O1_13 O 0.55709(19) 0.4164(2) 0.2145(2)
O2_13 O 0.53915(18) 0.4330(2) 0.1481(2)
O3_13 O 0.36750(16) 0.4009(2) 0.2101(2)
O4_13 O 0.40271(17) 0.4190(2) 0.14354(19)
O9_13 O 0.35636(16) 0.46498(18) 0.21921(19)
O10_13 O 0.39515(17) 0.48590(18) 0.1542(2)
O17_13 O 0.6179(2) 0.4107(2) 0.27904(17)
H13_13 H 0.6024 0.4127 0.3012
H14_13 H 0.6351 0.4023 0.2868
O18_13 O 0.5899(2) 0.4631(2) 0.05739(19)
H15_13 H 0.6045 0.4601 0.0349
H16_13 H 0.5733 0.4723 0.0501
O19_13 O 0.38659(17) 0.45187(19) 0.05407(16)
H17_13 H 0.3729 0.4570 0.0323
H18_13 H 0.4107 0.4549 0.0472
O20_13 O 0.29747(19) 0.3927(2) 0.27099(18)
H19_13 H 0.3140 0.3939 0.2939
H20_13 H 0.2716 0.3845 0.2775
O23_10 O 0.28838(27) 0.35484(18) 0.1732(2)
O24_10 O 0.32325(25) 0.37378(17) 0.1076(2)
O27_10 O 0.57645(25) 0.39109(17) 0.1140(2)
O28_10 O 0.58941(27) 0.37058(19) 0.1806(3)
O29_10 O 0.66647(19) 0.43704(25) 0.1860(2)
O30_10 O 0.65252(18) 0.45936(24) 0.1202(2)
C1_14 C 0.5951(2) 0.0867(3) 0.2105(3)
C2_14 C 0.6119(4) 0.0955(5) 0.2544(3)
H1_14 H 0.6159 0.1189 0.2701
C3_14 C 0.6227(3) 0.0708(4) 0.2753(3)
C4_14 C 0.6175(3) 0.0367(4) 0.2536(3)
H2_14 H 0.6248 0.0195 0.2691
C5_14 C 0.6013(3) 0.0273(4) 0.2082(3)
C6_14 C 0.5903(3) 0.0536(4) 0.1871(3)
H3_14 H 0.5795 0.0483 0.1565
C7_14 C 0.5824(3) 0.1135(4) 0.1895(3)
C9_14 C 0.6716(4) 0.0757(5) 0.3813(4)
C10_14 C 0.6782(3) 0.1102(4) 0.4031(3)
H4_14 H 0.6701 0.1271 0.3886
C11_14 C 0.6972(3) 0.1205(4) 0.4478(3)
C12_14 C 0.7082(3) 0.0955(4) 0.4674(3)
H5_14 H 0.7197 0.1015 0.4977
C13_14 C 0.7033(3) 0.0611(4) 0.4445(3)
C14_14 C 0.6844(3) 0.0514(4) 0.4021(3)
H6_14 H 0.6800 0.0278 0.3865
C15_14 C 0.7041(2) 0.1576(3) 0.4700(2)
C16_14 C 0.7172(3) 0.0345(4) 0.4655(3)
N1_14 N 0.6414(3) 0.0839(4) 0.3213(3)
N2_14 N 0.6538(3) 0.0622(4) 0.3378(3)
O1_14 O 0.5836(2) 0.14073(28) 0.2145(2)
O2_14 O 0.5670(2) 0.10619(27) 0.1481(2)
O17_14 O 0.5893(2) 0.2073(3) 0.27904(17)
H13_14 H 0.5873 0.1898 0.3012
H14_14 H 0.5977 0.2329 0.2868
O18_14 O 0.5369(2) 0.1269(3) 0.05739(19)
H15_14 H 0.5399 0.1445 0.0349
H16_14 H 0.5277 0.1011 0.0501
O27_11 O 0.60891(17) 0.18535(30) 0.1140(2)
O28_11 O 0.62942(19) 0.21882(33) 0.1806(3)
O29_11 O 0.56296(25) 0.22942(31) 0.1860(2)
O30_11 O 0.54064(24) 0.19315(30) 0.1202(2)
C8_14 C 0.5929(3) 0.9896(4) 0.1850(3)
C17_14 C 0.4702(2) 0.8841(3) 0.2180(3)
C18_14 C 0.4608(3) 0.8666(4) 0.2597(4)
H7_14 H 0.4791 0.8605 0.2745
C19_14 C 0.4249(3) 0.8569(4) 0.2828(4)
C20_14 C 0.3999(3) 0.8689(4) 0.2648(3)
H8_14 H 0.3781 0.8670 0.2823
C21_14 C 0.4079(2) 0.8847(3) 0.2189(3)
C22_14 C 0.4419(2) 0.8918(4) 0.1956(3)
H9_14 H 0.4465 0.9019 0.1646
C23_14 C 0.5078(2) 0.8938(4) 0.1951(3)
C24_14 C 0.3786(2) 0.8947(3) 0.1976(3)
C25_14 C 0.4433(3) 0.7933(4) 0.4095(3)
H10_14 H 0.4655 0.7947 0.3933
C26_14 C 0.4327(2) 0.7752(4) 0.4527(3)
C27_14 C 0.3988(2) 0.7731(4) 0.4763(3)
H11_14 H 0.3914 0.7613 0.5064
C28_14 C 0.3779(3) 0.7876(4) 0.4559(3)
C29_14 C 0.3869(3) 0.8053(4) 0.4121(4)
H12_14 H 0.3705 0.8142 0.3978
C30_14 C 0.4216(3) 0.8098(4) 0.3896(3)
C31_14 C 0.4556(2) 0.7573(3) 0.4718(4)
C32_14 C 0.3387(2) 0.7833(3) 0.4792(3)
N3_14 N 0.4136(3) 0.8391(4) 0.3272(3)
N4_14 N 0.4342(3) 0.8264(4) 0.3461(3)
O3_14 O 0.5991(2) 0.96664(26) 0.2101(2)
O4_14 O 0.5810(2) 0.98375(26) 0.14354(19)
O9_14 O 0.53502(18) 0.89139(24) 0.21921(19)
O10_14 O 0.51410(18) 0.90926(25) 0.1542(2)
O19_14 O 0.54813(19) 0.93473(25) 0.05407(16)
H17_14 H 0.5430 0.9160 0.0323
H18_14 H 0.5451 0.9559 0.0472
O20_14 O 0.6073(2) 0.90481(28) 0.27099(18)
H19_14 H 0.6061 0.9202 0.2939
H20_14 H 0.6155 0.8872 0.2775
O23_11 O 0.64516(18) 0.93353(32) 0.1732(2)
O24_11 O 0.62622(17) 0.94946(30) 0.1076(2)
C8_15 C 0.0104(4) 0.6034(2) 0.1850(3)
C17_15 C 0.1159(3) 0.5862(2) 0.2180(3)
C18_15 C 0.1334(4) 0.5943(3) 0.2597(4)
H7_15 H 0.1395 0.6187 0.2745
C19_15 C 0.1431(4) 0.5681(3) 0.2828(4)
C20_15 C 0.1311(4) 0.5311(3) 0.2648(3)
H8_15 H 0.1330 0.5112 0.2823
C21_15 C 0.1153(3) 0.5233(2) 0.2189(3)
C22_15 C 0.1082(4) 0.5502(3) 0.1956(3)
H9_15 H 0.0981 0.5447 0.1646
C23_15 C 0.1062(4) 0.6141(3) 0.1951(3)
C24_15 C 0.1053(3) 0.4840(2) 0.1976(3)
C25_15 C 0.2067(4) 0.6501(3) 0.4095(3)
H10_15 H 0.2053 0.6709 0.3933
C26_15 C 0.2248(4) 0.6576(3) 0.4527(3)
C27_15 C 0.2269(4) 0.6258(3) 0.4763(3)
H11_15 H 0.2387 0.6302 0.5064
C28_15 C 0.2124(4) 0.5904(3) 0.4559(3)
C29_15 C 0.1947(4) 0.5817(3) 0.4121(4)
H12_15 H 0.1858 0.5564 0.3978
C30_15 C 0.1902(4) 0.6119(3) 0.3896(3)
C31_15 C 0.2427(3) 0.6984(2) 0.4718(4)
C32_15 C 0.2167(3) 0.5555(2) 0.4792(3)
N3_15 N 0.1609(4) 0.5746(3) 0.3272(3)
N4_15 N 0.1736(4) 0.6079(3) 0.3461(3)
O3_15 O 0.03336(26) 0.63250(16) 0.2101(2)
O4_15 O 0.01625(26) 0.59729(17) 0.14354(19)
O9_15 O 0.10861(24) 0.64364(16) 0.21921(19)
O10_15 O 0.09074(25) 0.60485(17) 0.1542(2)
O19_15 O 0.06527(25) 0.61341(17) 0.05407(16)
H17_15 H 0.0840 0.6271 0.0323
H18_15 H 0.0441 0.5893 0.0472
O20_15 O 0.09519(28) 0.70253(19) 0.27099(18)
H19_15 H 0.0798 0.6860 0.2939
H20_15 H 0.1128 0.7284 0.2775
O23_12 O 0.06647(32) 0.71162(27) 0.1732(2)
O24_12 O 0.05054(30) 0.67675(25) 0.1076(2)
C1_15 C 0.9133(3) 0.5085(2) 0.2105(3)
C2_15 C 0.9045(5) 0.5165(3) 0.2544(3)
H1_15 H 0.8811 0.4971 0.2701
C3_15 C 0.9292(4) 0.5520(3) 0.2753(3)
C4_15 C 0.9633(4) 0.5809(2) 0.2536(3)
H2_15 H 0.9805 0.6054 0.2691
C5_15 C 0.9727(4) 0.5741(2) 0.2082(3)
C6_15 C 0.9464(4) 0.5368(2) 0.1871(3)
H3_15 H 0.9517 0.5313 0.1565
C7_15 C 0.8865(4) 0.4690(3) 0.1895(3)
C9_15 C 0.9243(5) 0.5960(3) 0.3813(4)
C10_15 C 0.8898(4) 0.5681(3) 0.4031(3)
H4_15 H 0.8729 0.5431 0.3886
C11_15 C 0.8795(4) 0.5768(2) 0.4478(3)
C12_15 C 0.9045(4) 0.6128(2) 0.4674(3)
H5_15 H 0.8985 0.6183 0.4977
C13_15 C 0.9389(4) 0.6423(3) 0.4445(3)
C14_15 C 0.9486(4) 0.6331(3) 0.4021(3)
H6_15 H 0.9722 0.6523 0.3865
C15_15 C 0.8424(3) 0.5466(2) 0.4700(2)
C16_15 C 0.9655(4) 0.6828(2) 0.4655(3)
N1_15 N 0.9161(4) 0.5576(2) 0.3213(3)
N2_15 N 0.9378(4) 0.5917(3) 0.3378(3)
O1_15 O 0.85927(28) 0.44291(19) 0.2145(2)
O2_15 O 0.89381(27) 0.46085(18) 0.1481(2)
O17_15 O 0.7927(3) 0.3821(2) 0.27904(17)
H13_15 H 0.8102 0.3976 0.3012
H14_15 H 0.7671 0.3649 0.2868
O18_15 O 0.8731(3) 0.4101(2) 0.05739(19)
H15_15 H 0.8555 0.3955 0.0349
H16_15 H 0.8989 0.4267 0.0501
O27_12 O 0.81465(30) 0.42355(25) 0.1140(2)
O28_12 O 0.78118(33) 0.41059(27) 0.1806(3)
O29_12 O 0.77058(31) 0.33353(19) 0.1860(2)
O30_12 O 0.80685(30) 0.34748(18) 0.1202(2)
C25_16 C 0.6833(3) 0.2233(3) 0.0761(3)
H10_16 H 0.6625 0.2011 0.0599
C26_16 C 0.6758(3) 0.2339(2) 0.1193(3)
C27_16 C 0.7076(3) 0.2678(2) 0.1429(3)
H11_16 H 0.7032 0.2752 0.1730
C28_16 C 0.7430(3) 0.2887(3) 0.1225(3)
C29_16 C 0.7517(3) 0.2797(3) 0.0787(4)
H12_16 H 0.7770 0.2961 0.0644
C30_16 C 0.7215(3) 0.2450(3) 0.0562(3)
C31_16 C 0.6350(2) 0.2110(2) 0.1384(4)
C32_16 C 0.7779(2) 0.3279(2) 0.1458(3)
N2_16 N 0.7417(3) 0.0128(3) 0.0044(3)
N4_16 N 0.7255(3) 0.2324(3) 0.0127(3)
C1_16 C 0.8249(2) 0.0715(2) 0.8771(3)
C2_16 C 0.8169(3) 0.0547(4) 0.9210(3)
H1_16 H 0.8363 0.0507 0.9367
C3_16 C 0.7814(3) 0.0439(3) 0.9419(3)
C4_16 C 0.7525(2) 0.0491(3) 0.9202(3)
H2_16 H 0.7280 0.0418 0.9357
C5_16 C 0.7593(2) 0.0653(3) 0.8748(3)
C6_16 C 0.7966(2) 0.0763(3) 0.8537(3)
H3_16 H 0.8021 0.0871 0.8231
C7_16 C 0.8644(3) 0.0842(3) 0.8561(3)
C8_16 C 0.7300(2) 0.0737(3) 0.8516(3)
C17_16 C 0.7472(2) 0.1964(2) 0.8846(3)
C18_16 C 0.7391(3) 0.2058(3) 0.9263(4)
H7_16 H 0.7147 0.1875 0.9411
C19_16 C 0.7653(3) 0.2417(3) 0.9494(4)
C20_16 C 0.8023(3) 0.2667(3) 0.9314(3)
H8_16 H 0.8222 0.2885 0.9489
C21_16 C 0.8101(2) 0.2587(2) 0.8855(3)
C22_16 C 0.7832(3) 0.2247(2) 0.8622(3)
H9_16 H 0.7887 0.2201 0.8312
C23_16 C 0.7193(3) 0.1588(2) 0.8617(3)
C24_16 C 0.8494(2) 0.2880(2) 0.8642(3)
N1_16 N 0.7758(2) 0.0252(3) 0.9879(3)
N3_16 N 0.7588(3) 0.2530(3) 0.9938(3)
O1_16 O 0.89043(19) 0.0830(2) 0.8811(2)
O2_16 O 0.87249(18) 0.0996(2) 0.8147(2)
O3_16 O 0.70084(16) 0.0675(2) 0.8767(2)
O4_16 O 0.73605(17) 0.0856(2) 0.81020(19)
O9_16 O 0.68970(16) 0.13164(18) 0.88587(19)
O10_16 O 0.72849(17) 0.15256(18) 0.8208(2)
O17_16 O 0.9513(2) 0.0773(2) 0.94570(17)
H13_16 H 0.9358 0.0793 0.9678
H14_16 H 0.9685 0.0689 0.9534
O18_16 O 0.9233(2) 0.1297(2) 0.72405(19)
H15_16 H 0.9379 0.1267 0.7015
H16_16 H 0.9067 0.1389 0.7167
O19_16 O 0.71993(17) 0.11853(19) 0.72073(16)
H17_16 H 0.7063 0.1236 0.6989
H18_16 H 0.7441 0.1215 0.7138
O20_16 O 0.63081(19) 0.0593(2) 0.93765(18)
H19_16 H 0.6474 0.0605 0.9605
H20_16 H 0.6050 0.0511 0.9441
C9_16 C 0.7374(3) 0.9950(4) 0.0479(4)
C10_16 C 0.7653(3) 0.9884(3) 0.0697(3)
H4_16 H 0.7903 0.9965 0.0552
C11_16 C 0.7566(2) 0.9694(3) 0.1144(3)
C12_16 C 0.7206(2) 0.9584(3) 0.1340(3)
H5_16 H 0.7151 0.9469 0.1643
C13_16 C 0.6911(3) 0.9633(3) 0.1111(3)
C14_16 C 0.7003(3) 0.9822(3) 0.0687(3)
H6_16 H 0.6811 0.9866 0.0531
C15_16 C 0.7868(2) 0.9625(2) 0.1366(2)
C16_16 C 0.6506(2) 0.9494(3) 0.1321(3)
C9_17 C 0.0050(4) 0.7423(5) 0.0479(4)
C10_17 C 0.0116(3) 0.7768(4) 0.0697(3)
H4_17 H 0.0035 0.7937 0.0552
C11_17 C 0.0306(3) 0.7871(4) 0.1144(3)
C12_17 C 0.0416(3) 0.7621(4) 0.1340(3)
H5_17 H 0.0531 0.7681 0.1643
C13_17 C 0.0367(3) 0.7277(4) 0.1111(3)
C14_17 C 0.0178(3) 0.7180(4) 0.0687(3)
H6_17 H 0.0134 0.6944 0.0531
C15_17 C 0.0375(2) 0.8242(3) 0.1366(2)
C16_17 C 0.0506(3) 0.7011(4) 0.1321(3)
C25_17 C 0.7767(3) 0.4599(4) 0.0761(3)
H10_17 H 0.7989 0.4613 0.0599
C26_17 C 0.7661(2) 0.4418(4) 0.1193(3)
C27_17 C 0.7322(2) 0.4397(4) 0.1429(3)
H11_17 H 0.7248 0.4279 0.1730
C28_17 C 0.7113(3) 0.4542(4) 0.1225(3)
C29_17 C 0.7203(3) 0.4719(4) 0.0787(4)
H12_17 H 0.7039 0.4808 0.0644
C30_17 C 0.7550(3) 0.4764(4) 0.0562(3)
C31_17 C 0.7890(2) 0.4239(3) 0.1384(4)
C32_17 C 0.6721(2) 0.4499(3) 0.1458(3)
N2_17 N 0.9872(3) 0.7288(4) 0.0044(3)
N4_17 N 0.7676(3) 0.4930(4) 0.0127(3)
C1_17 C 0.9285(2) 0.7533(3) 0.8771(3)
C2_17 C 0.9453(4) 0.7621(5) 0.9210(3)
H1_17 H 0.9493 0.7855 0.9367
C3_17 C 0.9561(3) 0.7374(4) 0.9419(3)
C4_17 C 0.9509(3) 0.7033(4) 0.9202(3)
H2_17 H 0.9582 0.6861 0.9357
C5_17 C 0.9347(3) 0.6939(4) 0.8748(3)
C6_17 C 0.9237(3) 0.7202(4) 0.8537(3)
H3_17 H 0.9129 0.7149 0.8231
C7_17 C 0.9158(3) 0.7801(4) 0.8561(3)
C8_17 C 0.9263(3) 0.6562(4) 0.8516(3)
C17_17 C 0.8036(2) 0.5507(3) 0.8846(3)
C18_17 C 0.7942(3) 0.5332(4) 0.9263(4)
H7_17 H 0.8125 0.5271 0.9411
C19_17 C 0.7583(3) 0.5235(4) 0.9494(4)
C20_17 C 0.7333(3) 0.5355(4) 0.9314(3)
H8_17 H 0.7115 0.5336 0.9489
C21_17 C 0.7413(2) 0.5513(3) 0.8855(3)
C22_17 C 0.7753(2) 0.5584(4) 0.8622(3)
H9_17 H 0.7799 0.5685 0.8312
C23_17 C 0.8412(2) 0.5604(4) 0.8617(3)
C24_17 C 0.7120(2) 0.5613(3) 0.8642(3)
N1_17 N 0.9748(3) 0.7505(4) 0.9879(3)
N3_17 N 0.7470(3) 0.5057(4) 0.9938(3)
O1_17 O 0.9170(2) 0.80739(28) 0.8811(2)
O2_17 O 0.9004(2) 0.77285(27) 0.8147(2)
O3_17 O 0.9325(2) 0.63330(26) 0.8767(2)
O4_17 O 0.9144(2) 0.65041(26) 0.81020(19)
O9_17 O 0.86836(18) 0.55805(24) 0.88587(19)
O10_17 O 0.84744(18) 0.57592(25) 0.8208(2)
O17_17 O 0.9227(2) 0.8739(3) 0.94570(17)
H13_17 H 0.9207 0.8564 0.9678
H14_17 H 0.9311 0.8995 0.9534
O18_17 O 0.8703(2) 0.7935(3) 0.72405(19)
H15_17 H 0.8733 0.8111 0.7015
H16_17 H 0.8611 0.7677 0.7167
O19_17 O 0.88147(19) 0.60139(25) 0.72073(16)
H17_17 H 0.8764 0.5826 0.6989
H18_17 H 0.8785 0.6225 0.7138
O20_17 O 0.9407(2) 0.57147(28) 0.93765(18)
H19_17 H 0.9395 0.5868 0.9605
H20_17 H 0.9489 0.5538 0.9441
C9_18 C 0.2577(5) 0.2626(3) 0.0479(4)
C10_18 C 0.2232(4) 0.2347(3) 0.0697(3)
H4_18 H 0.2063 0.2097 0.0552
C11_18 C 0.2129(4) 0.2434(2) 0.1144(3)
C12_18 C 0.2379(4) 0.2794(2) 0.1340(3)
H5_18 H 0.2319 0.2849 0.1643
C13_18 C 0.2723(4) 0.3089(3) 0.1111(3)
C14_18 C 0.2820(4) 0.2997(3) 0.0687(3)
H6_18 H 0.3056 0.3189 0.0531
C15_18 C 0.1758(3) 0.2132(2) 0.1366(2)
C16_18 C 0.2989(4) 0.3494(2) 0.1321(3)
C25_18 C 0.5401(4) 0.3167(3) 0.0761(3)
H10_18 H 0.5387 0.3375 0.0599
C26_18 C 0.5582(4) 0.3242(3) 0.1193(3)
C27_18 C 0.5603(4) 0.2924(3) 0.1429(3)
H11_18 H 0.5721 0.2968 0.1730
C28_18 C 0.5458(4) 0.2570(3) 0.1225(3)
C29_18 C 0.5281(4) 0.2483(3) 0.0787(4)
H12_18 H 0.5192 0.2230 0.0644
C30_18 C 0.5236(4) 0.2785(3) 0.0562(3)
C31_18 C 0.5761(3) 0.3650(2) 0.1384(4)
C32_18 C 0.5501(3) 0.2221(2) 0.1458(3)
N2_18 N 0.2712(4) 0.2583(3) 0.0044(3)
N4_18 N 0.5070(4) 0.2745(3) 0.0127(3)
C1_18 C 0.2467(3) 0.1751(2) 0.8771(3)
C2_18 C 0.2379(5) 0.1831(3) 0.9210(3)
H1_18 H 0.2145 0.1637 0.9367
C3_18 C 0.2626(4) 0.2186(3) 0.9419(3)
C4_18 C 0.2967(4) 0.2475(2) 0.9202(3)
H2_18 H 0.3139 0.2720 0.9357
C5_18 C 0.3061(4) 0.2407(2) 0.8748(3)
C6_18 C 0.2798(4) 0.2034(2) 0.8537(3)
H3_18 H 0.2851 0.1979 0.8231
C7_18 C 0.2199(4) 0.1356(3) 0.8561(3)
C8_18 C 0.3438(4) 0.2700(2) 0.8516(3)
C17_18 C 0.4493(3) 0.2528(2) 0.8846(3)
C18_18 C 0.4668(4) 0.2609(3) 0.9263(4)
H7_18 H 0.4729 0.2853 0.9411
C19_18 C 0.4765(4) 0.2347(3) 0.9494(4)
C20_18 C 0.4645(4) 0.1977(3) 0.9314(3)
H8_18 H 0.4664 0.1778 0.9489
C21_18 C 0.4487(3) 0.1899(2) 0.8855(3)
C22_18 C 0.4416(4) 0.2168(3) 0.8622(3)
H9_18 H 0.4315 0.2113 0.8312
C23_18 C 0.4396(4) 0.2807(3) 0.8617(3)
C24_18 C 0.4387(3) 0.1506(2) 0.8642(3)
N1_18 N 0.2495(4) 0.2242(2) 0.9879(3)
N3_18 N 0.4943(4) 0.2412(3) 0.9938(3)
O1_18 O 0.19261(28) 0.10957(19) 0.8811(2)
O2_18 O 0.22715(27) 0.12751(18) 0.8147(2)
O3_18 O 0.36670(26) 0.29916(16) 0.8767(2)
O4_18 O 0.34959(26) 0.26395(17) 0.81020(19)
O9_18 O 0.44195(24) 0.31030(16) 0.88587(19)
O10_18 O 0.42408(25) 0.27151(17) 0.8208(2)
O17_18 O 0.1261(3) 0.0487(2) 0.94570(17)
H13_18 H 0.1436 0.0642 0.9678
H14_18 H 0.1005 0.0315 0.9534
O18_18 O 0.2065(3) 0.0767(2) 0.72405(19)
H15_18 H 0.1889 0.0621 0.7015
H16_18 H 0.2323 0.0933 0.7167
O19_18 O 0.39861(25) 0.28007(17) 0.72073(16)
H17_18 H 0.4174 0.2937 0.6989
H18_18 H 0.3775 0.2559 0.7138
O20_18 O 0.42853(28) 0.36919(19) 0.93765(18)
H19_18 H 0.4132 0.3526 0.9605
H20_18 H 0.4462 0.3950 0.9441
loop_
_geom_bond_atom_site_label_1
_geom_bond_atom_site_label_2
_geom_bond_site_symmetry_1
_geom_bond_site_symmetry_2
O7 C16 1_555 1_555
O8 C16 1_555 1_555
O13 C31 1_555 1_555
O14 C31 1_555 1_555
O20 Zn4 1_555 1_555
H19 O20 1_555 1_555
H20 O20 1_555 1_555
Zn5 O14 1_555 1_555
Zn8 O13 1_555 1_555
Zn11 O8 1_555 1_555
Zn13 O7 1_555 1_555
O23 Zn4 1_555 1_555
O25 Zn4 1_555 1_555
Zn1 O1 1_555 1_555
Zn2 O2 1_555 1_555
Zn3 O4 1_555 1_555
C1 C2 1_555 1_555
C2 H1 1_555 1_555
C3 C2 1_555 1_555
C4 C3 1_555 1_555
H2 C4 1_555 1_555
C5 C4 1_555 1_555
C6 C1 1_555 1_555
H3 C6 1_555 1_555
C7 C1 1_555 1_555
C8 C5 1_555 1_555
C9 C10 1_555 1_555
C10 H4 1_555 1_555
C11 C10 1_555 1_555
C12 C11 1_555 1_555
H5 C12 1_555 1_555
C13 C12 1_555 1_555
C14 C9 1_555 1_555
H6 C14 1_555 1_555
C15 C11 1_555 1_555
C17 C18 1_555 1_555
C18 H7 1_555 1_555
C19 C18 1_555 1_555
C20 C19 1_555 1_555
H8 C20 1_555 1_555
C21 C20 1_555 1_555
C22 C17 1_555 1_555
H9 C22 1_555 1_555
C23 C17 1_555 1_555
C24 C21 1_555 1_555
C26 C25 1_555 1_555
C27 C26 1_555 1_555
H11 C27 1_555 1_555
C28 C27 1_555 1_555
C29 C28 1_555 1_555
H12 C29 1_555 1_555
C30 C25 1_555 1_555
C32 C28 1_555 1_555
N1 C3 1_555 1_555
N2 C9 1_555 1_555
N3 C19 1_555 1_555
N4 C30 1_555 1_555
O1 C7 1_555 1_555
O2 C7 1_555 1_555
O3 C8 1_555 1_555
O4 C8 1_555 1_555
O5 C15 1_555 1_555
O6 C15 1_555 1_555
O10 Zn3 1_555 1_555
O11 C24 1_555 1_555
O12 C24 1_555 1_555
O17 Zn1 1_555 1_555
H13 O17 1_555 1_555
H14 O17 1_555 1_555
O18 Zn2 1_555 1_555
H15 O18 1_555 1_555
H16 O18 1_555 1_555
O19 Zn3 1_555 1_555
H17 O19 1_555 1_555
H18 O19 1_555 1_555
Zn7 O5 1_555 1_555
Zn10 O6 1_555 1_555
Zn14 O11 1_555 1_555
O21 Zn1 1_555 1_555
O22 Zn2 1_555 1_555
O27 Zn2 1_555 1_555
O28 Zn1 1_555 1_555
O29 Zn1 1_555 1_555
O30 Zn2 1_555 1_555
C5 C6 1_555 1_555
C13 C14 1_555 1_555
C21 C22 1_555 1_555
C23 O9 1_555 1_555
C23 O10 1_555 1_555
C29 C30 1_555 1_555
N1 N2 1_555 1_555
N3 N4 1_555 1_555
Zn6 O15 1_555 1_555
Zn9 O16 1_555 1_555
Zn6_2 O15_2 1_555 1_555
Zn9_2 O16_2 1_555 1_555
Zn1_2 O1_2 1_555 1_555
Zn2_2 O2_2 1_555 1_555
Zn3_2 O4_2 1_555 1_555
Zn4_2 O3_2 1_555 1_555
C1_2 C2_2 1_555 1_555
C2_2 H1_2 1_555 1_555
C3_2 C2_2 1_555 1_555
C4_2 C3_2 1_555 1_555
H2_2 C4_2 1_555 1_555
C5_2 C4_2 1_555 1_555
C6_2 C1_2 1_555 1_555
H3_2 C6_2 1_555 1_555
C7_2 C1_2 1_555 1_555
C8_2 C5_2 1_555 1_555
C9_2 C10_2 1_555 1_555
C10_2 H4_2 1_555 1_555
C11_2 C10_2 1_555 1_555
C12_2 C11_2 1_555 1_555
H5_2 C12_2 1_555 1_555
C13_2 C12_2 1_555 1_555
C14_2 C9_2 1_555 1_555
H6_2 C14_2 1_555 1_555
C15_2 C11_2 1_555 1_555
C16_2 C13_2 1_555 1_555
C17_2 C18_2 1_555 1_555
C18_2 H7_2 1_555 1_555
C19_2 C18_2 1_555 1_555
C20_2 C19_2 1_555 1_555
H8_2 C20_2 1_555 1_555
C21_2 C20_2 1_555 1_555
C22_2 C17_2 1_555 1_555
H9_2 C22_2 1_555 1_555
C23_2 C17_2 1_555 1_555
C24_2 C21_2 1_555 1_555
C25_2 H10_2 1_555 1_555
C26_2 C25_2 1_555 1_555
C27_2 C26_2 1_555 1_555
H11_2 C27_2 1_555 1_555
C28_2 C27_2 1_555 1_555
C29_2 C28_2 1_555 1_555
H12_2 C29_2 1_555 1_555
C30_2 C25_2 1_555 1_555
C31_2 C26_2 1_555 1_555
C32_2 C28_2 1_555 1_555
N1_2 C3_2 1_555 1_555
N2_2 C9_2 1_555 1_555
N3_2 C19_2 1_555 1_555
N4_2 C30_2 1_555 1_555
O1_2 C7_2 1_555 1_555
O2_2 C7_2 1_555 1_555
O3_2 C8_2 1_555 1_555
O4_2 C8_2 1_555 1_555
O5_2 C15_2 1_555 1_555
O6_2 C15_2 1_555 1_555
O7_2 C16_2 1_555 1_555
O8_2 C16_2 1_555 1_555
O9_2 Zn4_2 1_555 1_555
O10_2 Zn3_2 1_555 1_555
O11_2 C24_2 1_555 1_555
O12_2 C24_2 1_555 1_555
O13_2 C31_2 1_555 1_555
O14_2 C31_2 1_555 1_555
O17_2 Zn1_2 1_555 1_555
H13_2 O17_2 1_555 1_555
H14_2 O17_2 1_555 1_555
O18_2 Zn2_2 1_555 1_555
H15_2 O18_2 1_555 1_555
H16_2 O18_2 1_555 1_555
O19_2 Zn3_2 1_555 1_555
H17_2 O19_2 1_555 1_555
H18_2 O19_2 1_555 1_555
O20_2 Zn4_2 1_555 1_555
H19_2 O20_2 1_555 1_555
H20_2 O20_2 1_555 1_555
Zn6 O14_2 1_555 1_555
Zn7_2 O5_2 1_555 1_555
Zn9 O13_2 1_555 1_555
Zn10_2 O6_2 1_555 1_555
Zn11_2 O8_2 1_555 1_555
Zn13_2 O7_2 1_555 1_555
Zn14_2 O11_2 1_555 1_555
O21_2 Zn1_2 1_555 1_555
O22_2 Zn2_2 1_555 1_555
O23_2 Zn4_2 1_555 1_555
O24_2 Zn3_2 1_555 1_555
O25_2 Zn4_2 1_555 1_555
O26_2 Zn3_2 1_555 1_555
O27_2 Zn2_2 1_555 1_555
O28_2 Zn1_2 1_555 1_555
O29_2 Zn1_2 1_555 1_555
O30_2 Zn2_2 1_555 1_555
C5_2 C6_2 1_555 1_555
C13_2 C14_2 1_555 1_555
C21_2 C22_2 1_555 1_555
C23_2 O9_2 1_555 1_555
C23_2 O10_2 1_555 1_555
C29_2 C30_2 1_555 1_555
N1_2 N2_2 1_555 1_555
N3_2 N4_2 1_555 1_555
Zn1_3 O1_3 1_555 1_555
Zn2_3 O2_3 1_555 1_555
Zn3_3 O4_3 1_555 1_555
C1_3 C2_3 1_555 1_555
C2_3 H1_3 1_555 1_555
C3_3 C2_3 1_555 1_555
C4_3 C3_3 1_555 1_555
H2_3 C4_3 1_555 1_555
C5_3 C4_3 1_555 1_555
C6_3 C1_3 1_555 1_555
H3_3 C6_3 1_555 1_555
C7_3 C1_3 1_555 1_555
C8_3 C5_3 1_555 1_555
C9_3 C10_3 1_555 1_555
C10_3 H4_3 1_555 1_555
C11_3 C10_3 1_555 1_555
C12_3 C11_3 1_555 1_555
H5_3 C12_3 1_555 1_555
C13_3 C12_3 1_555 1_555
C14_3 C9_3 1_555 1_555
H6_3 C14_3 1_555 1_555
C15_3 C11_3 1_555 1_555
C17_3 C18_3 1_555 1_555
C18_3 H7_3 1_555 1_555
C19_3 C18_3 1_555 1_555
C20_3 C19_3 1_555 1_555
H8_3 C20_3 1_555 1_555
C21_3 C20_3 1_555 1_555
C22_3 C17_3 1_555 1_555
H9_3 C22_3 1_555 1_555
C23_3 C17_3 1_555 1_555
C24_3 C21_3 1_555 1_555
C26_3 C25_3 1_555 1_555
C27_3 C26_3 1_555 1_555
H11_3 C27_3 1_555 1_555
C28_3 C27_3 1_555 1_555
C29_3 C28_3 1_555 1_555
H12_3 C29_3 1_555 1_555
C30_3 C25_3 1_555 1_555
C32_3 C28_3 1_555 1_555
N1_3 C3_3 1_555 1_555
N2_3 C9_3 1_555 1_555
N3_3 C19_3 1_555 1_555
N4_3 C30_3 1_555 1_555
O1_3 C7_3 1_555 1_555
O2_3 C7_3 1_555 1_555
O3_3 C8_3 1_555 1_555
O4_3 C8_3 1_555 1_555
O5_3 C15_3 1_555 1_555
O6_3 C15_3 1_555 1_555
O10_3 Zn3_3 1_555 1_555
O11_3 C24_3 1_555 1_555
O12_3 C24_3 1_555 1_555
O15_3 C32_3 1_555 1_555
O16_3 C32_3 1_555 1_555
O17_3 Zn1_3 1_555 1_555
H13_3 O17_3 1_555 1_555
H14_3 O17_3 1_555 1_555
O18_3 Zn2_3 1_555 1_555
H15_3 O18_3 1_555 1_555
H16_3 O18_3 1_555 1_555
O19_3 Zn3_3 1_555 1_555
H17_3 O19_3 1_555 1_555
H18_3 O19_3 1_555 1_555
Zn5 O15_3 1_555 1_555
Zn7_3 O5_3 1_555 1_555
Zn8 O16_3 1_555 1_555
Zn10_3 O6_3 1_555 1_555
Zn12_3 O12_3 1_555 1_555
Zn14_3 O11_3 1_555 1_555
O21_3 Zn1_3 1_555 1_555
O22_3 Zn2_3 1_555 1_555
O27_3 Zn2_3 1_555 1_555
O28_3 Zn1_3 1_555 1_555
O29_3 Zn1_3 1_555 1_555
O30_3 Zn2_3 1_555 1_555
C5_3 C6_3 1_555 1_555
C13_3 C14_3 1_555 1_555
C21_3 C22_3 1_555 1_555
C23_3 O9_3 1_555 1_555
C23_3 O10_3 1_555 1_555
C29_3 C30_3 1_555 1_555
N1_3 N2_3 1_555 1_555
N3_3 N4_3 1_555 1_555
O7_3 C16_3 1_555 1_555
O8_3 C16_3 1_555 1_555
O13_3 C31_3 1_555 1_555
O14_3 C31_3 1_555 1_555
O20_3 Zn4_3 1_555 1_555
H19_3 O20_3 1_555 1_555
H20_3 O20_3 1_555 1_555
Zn6_2 O14_3 1_555 1_555
Zn9_2 O13_3 1_555 1_555
Zn11_3 O8_3 1_555 1_555
Zn13_3 O7_3 1_555 1_555
O23_3 Zn4_3 1_555 1_555
O25_3 Zn4_3 1_555 1_555
Zn1_4 O1_4 1_555 1_555
Zn2_4 O2_4 1_555 1_555
Zn3_4 O4_4 1_555 1_555
Zn4_4 O3_4 1_555 1_555
C1_4 C2_4 1_555 1_555
C2_4 H1_4 1_555 1_555
C3_4 C2_4 1_555 1_555
C4_4 C3_4 1_555 1_555
H2_4 C4_4 1_555 1_555
C5_4 C4_4 1_555 1_555
C6_4 C1_4 1_555 1_555
H3_4 C6_4 1_555 1_555
C7_4 C1_4 1_555 1_555
C8_4 C5_4 1_555 1_555
C9_4 C10_4 1_555 1_555
C10_4 H4_4 1_555 1_555
C11_4 C10_4 1_555 1_555
C12_4 C11_4 1_555 1_555
H5_4 C12_4 1_555 1_555
C13_4 C12_4 1_555 1_555
C14_4 C9_4 1_555 1_555
H6_4 C14_4 1_555 1_555
C15_4 C11_4 1_555 1_555
C16_4 C13_4 1_555 1_555
C17_4 C18_4 1_555 1_555
C18_4 H7_4 1_555 1_555
C19_4 C18_4 1_555 1_555
C20_4 C19_4 1_555 1_555
H8_4 C20_4 1_555 1_555
C21_4 C20_4 1_555 1_555
C22_4 C17_4 1_555 1_555
H9_4 C22_4 1_555 1_555
C23_4 C17_4 1_555 1_555
C24_4 C21_4 1_555 1_555
C25_4 H10_4 1_555 1_555
C26_4 C25_4 1_555 1_555
C27_4 C26_4 1_555 1_555
H11_4 C27_4 1_555 1_555
C28_4 C27_4 1_555 1_555
C29_4 C28_4 1_555 1_555
H12_4 C29_4 1_555 1_555
C30_4 C25_4 1_555 1_555
C31_4 C26_4 1_555 1_555
C32_4 C28_4 1_555 1_555
N1_4 C3_4 1_555 1_555
N2_4 C9_4 1_555 1_555
N3_4 C19_4 1_555 1_555
N4_4 C30_4 1_555 1_555
O1_4 C7_4 1_555 1_555
O2_4 C7_4 1_555 1_555
O3_4 C8_4 1_555 1_555
O4_4 C8_4 1_555 1_555
O5_4 C15_4 1_555 1_555
O6_4 C15_4 1_555 1_555
O23_2 C16_4 1_555 1_555
O24_2 C16_4 1_555 1_555
O9_4 Zn4_4 1_555 1_555
O10_4 Zn3_4 1_555 1_555
O11_4 C24_4 1_555 1_555
O12_4 C24_4 1_555 1_555
O27_2 C31_4 1_555 1_555
O28_2 C31_4 1_555 1_555
O29_3 C32_4 1_555 1_555
O30_3 C32_4 1_555 1_555
O17_4 Zn1_4 1_555 1_555
H13_4 O17_4 1_555 1_555
H14_4 O17_4 1_555 1_555
O18_4 Zn2_4 1_555 1_555
H15_4 O18_4 1_555 1_555
H16_4 O18_4 1_555 1_555
O19_4 Zn3_4 1_555 1_555
H17_4 O19_4 1_555 1_555
H18_4 O19_4 1_555 1_555
O20_4 Zn4_4 1_555 1_555
H19_4 O20_4 1_555 1_555
H20_4 O20_4 1_555 1_555
Zn7_4 O5_4 1_555 1_555
Zn10_4 O6_4 1_555 1_555
Zn12_4 O12_4 1_555 1_555
Zn14_4 O11_4 1_555 1_555
O21_4 Zn1_4 1_555 1_555
O22_4 Zn2_4 1_555 1_555
O23_4 Zn4_4 1_555 1_555
O24_4 Zn3_4 1_555 1_555
O25_4 Zn4_4 1_555 1_555
O26_4 Zn3_4 1_555 1_555
O27_4 Zn2_4 1_555 1_555
O28_4 Zn1_4 1_555 1_555
O29_4 Zn1_4 1_555 1_555
O30_4 Zn2_4 1_555 1_555
C5_4 C6_4 1_555 1_555
C13_4 C14_4 1_555 1_555
C21_4 C22_4 1_555 1_555
C23_4 O9_4 1_555 1_555
C23_4 O10_4 1_555 1_555
C29_4 C30_4 1_555 1_555
N1_4 N2_4 1_555 1_555
N3_4 N4_4 1_555 1_555
Zn3_5 O4_5 1_555 1_555
Zn4_5 O3_5 1_555 1_555
C17_5 C18_5 1_555 1_555
C18_5 H7_5 1_555 1_555
C19_5 C18_5 1_555 1_555
C20_5 C19_5 1_555 1_555
H8_5 C20_5 1_555 1_555
C21_5 C20_5 1_555 1_555
C22_5 C17_5 1_555 1_555
H9_5 C22_5 1_555 1_555
C23_5 C17_5 1_555 1_555
C24_5 C21_5 1_555 1_555
C25_5 H10_5 1_555 1_555
C26_5 C25_5 1_555 1_555
C27_5 C26_5 1_555 1_555
H11_5 C27_5 1_555 1_555
C28_5 C27_5 1_555 1_555
C29_5 C28_5 1_555 1_555
H12_5 C29_5 1_555 1_555
C30_5 C25_5 1_555 1_555
C31_5 C26_5 1_555 1_555
C32_5 C28_5 1_555 1_555
N3_5 C19_5 1_555 1_555
N4_5 C30_5 1_555 1_555
O3_5 C8_5 1_555 1_555
O4_5 C8_5 1_555 1_555
O9_5 Zn4_5 1_555 1_555
O10_5 Zn3_5 1_555 1_555
O11_5 C24_5 1_555 1_555
O12_5 C24_5 1_555 1_555
O27_3 C31_5 1_555 1_555
O28_3 C31_5 1_555 1_555
O29 C32_5 1_555 1_555
O30 C32_5 1_555 1_555
O19_5 Zn3_5 1_555 1_555
H17_5 O19_5 1_555 1_555
H18_5 O19_5 1_555 1_555
O20_5 Zn4_5 1_555 1_555
H19_5 O20_5 1_555 1_555
H20_5 O20_5 1_555 1_555
Zn12_5 O12_5 1_555 1_555
Zn14_5 O11_5 1_555 1_555
O23_5 Zn4_5 1_555 1_555
O24_5 Zn3_5 1_555 1_555
O25_5 Zn4_5 1_555 1_555
O26_5 Zn3_5 1_555 1_555
C21_5 C22_5 1_555 1_555
C23_5 O9_5 1_555 1_555
C23_5 O10_5 1_555 1_555
C29_5 C30_5 1_555 1_555
N3_5 N4_5 1_555 1_555
Zn1_5 O1_5 1_555 1_555
Zn2_5 O2_5 1_555 1_555
C1_5 C2_5 1_555 1_555
C2_5 H1_5 1_555 1_555
C3_5 C2_5 1_555 1_555
C4_5 C3_5 1_555 1_555
H2_5 C4_5 1_555 1_555
C5_5 C4_5 1_555 1_555
C6_5 C1_5 1_555 1_555
H3_5 C6_5 1_555 1_555
C7_5 C1_5 1_555 1_555
C9_5 C10_5 1_555 1_555
C10_5 H4_5 1_555 1_555
C11_5 C10_5 1_555 1_555
C12_5 C11_5 1_555 1_555
H5_5 C12_5 1_555 1_555
C13_5 C12_5 1_555 1_555
C14_5 C9_5 1_555 1_555
H6_5 C14_5 1_555 1_555
C15_5 C11_5 1_555 1_555
C16_5 C13_5 1_555 1_555
N1_5 C3_5 1_555 1_555
N2_5 C9_5 1_555 1_555
O1_5 C7_5 1_555 1_555
O2_5 C7_5 1_555 1_555
O5_5 C15_5 1_555 1_555
O6_5 C15_5 1_555 1_555
O23_3 C16_5 1_555 1_555
O24_3 C16_5 1_555 1_555
O17_5 Zn1_5 1_555 1_555
H13_5 O17_5 1_555 1_555
H14_5 O17_5 1_555 1_555
O18_5 Zn2_5 1_555 1_555
H15_5 O18_5 1_555 1_555
H16_5 O18_5 1_555 1_555
Zn7_5 O5_5 1_555 1_555
Zn10_5 O6_5 1_555 1_555
O21_5 Zn1_5 1_555 1_555
O22_5 Zn2_5 1_555 1_555
O27_5 Zn2_5 1_555 1_555
O28_5 Zn1_5 1_555 1_555
O29_5 Zn1_5 1_555 1_555
O30_5 Zn2_5 1_555 1_555
C5_5 C6_5 1_555 1_555
C13_5 C14_5 1_555 1_555
N1_5 N2_5 1_555 1_555
Zn1_6 O1_6 1_555 1_555
Zn2_6 O2_6 1_555 1_555
C1_6 C2_6 1_555 1_555
C2_6 H1_6 1_555 1_555
C3_6 C2_6 1_555 1_555
C4_6 C3_6 1_555 1_555
H2_6 C4_6 1_555 1_555
C5_6 C4_6 1_555 1_555
C6_6 C1_6 1_555 1_555
H3_6 C6_6 1_555 1_555
C7_6 C1_6 1_555 1_555
C9_6 C10_6 1_555 1_555
C10_6 H4_6 1_555 1_555
C11_6 C10_6 1_555 1_555
C12_6 C11_6 1_555 1_555
H5_6 C12_6 1_555 1_555
C13_6 C12_6 1_555 1_555
C14_6 C9_6 1_555 1_555
H6_6 C14_6 1_555 1_555
C15_6 C11_6 1_555 1_555
C16_6 C13_6 1_555 1_555
N1_6 C3_6 1_555 1_555
N2_6 C9_6 1_555 1_555
O1_6 C7_6 1_555 1_555
O2_6 C7_6 1_555 1_555
O5_6 C15_6 1_555 1_555
O6_6 C15_6 1_555 1_555
O23 C16_6 1_555 1_555
O24 C16_6 1_555 1_555
O17_6 Zn1_6 1_555 1_555
H13_6 O17_6 1_555 1_555
H14_6 O17_6 1_555 1_555
O18_6 Zn2_6 1_555 1_555
H15_6 O18_6 1_555 1_555
H16_6 O18_6 1_555 1_555
Zn7_6 O5_6 1_555 1_555
Zn10_6 O6_6 1_555 1_555
O21_6 Zn1_6 1_555 1_555
O22_6 Zn2_6 1_555 1_555
O27_6 Zn2_6 1_555 1_555
O28_6 Zn1_6 1_555 1_555
O29_6 Zn1_6 1_555 1_555
O30_6 Zn2_6 1_555 1_555
C5_6 C6_6 1_555 1_555
C13_6 C14_6 1_555 1_555
N1_6 N2_6 1_555 1_555
Zn3_6 O4_6 1_555 1_555
Zn4_6 O3_6 1_555 1_555
C17_6 C18_6 1_555 1_555
C18_6 H7_6 1_555 1_555
C19_6 C18_6 1_555 1_555
C20_6 C19_6 1_555 1_555
H8_6 C20_6 1_555 1_555
C21_6 C20_6 1_555 1_555
C22_6 C17_6 1_555 1_555
H9_6 C22_6 1_555 1_555
C23_6 C17_6 1_555 1_555
C24_6 C21_6 1_555 1_555
C25_6 H10_6 1_555 1_555
C26_6 C25_6 1_555 1_555
C27_6 C26_6 1_555 1_555
H11_6 C27_6 1_555 1_555
C28_6 C27_6 1_555 1_555
C29_6 C28_6 1_555 1_555
H12_6 C29_6 1_555 1_555
C30_6 C25_6 1_555 1_555
C31_6 C26_6 1_555 1_555
C32_6 C28_6 1_555 1_555
N3_6 C19_6 1_555 1_555
N4_6 C30_6 1_555 1_555
O3_6 C8_6 1_555 1_555
O4_6 C8_6 1_555 1_555
O9_6 Zn4_6 1_555 1_555
O10_6 Zn3_6 1_555 1_555
O11_6 C24_6 1_555 1_555
O12_6 C24_6 1_555 1_555
O27 C31_6 1_555 1_555
O28 C31_6 1_555 1_555
O29_2 C32_6 1_555 1_555
O30_2 C32_6 1_555 1_555
O19_6 Zn3_6 1_555 1_555
H17_6 O19_6 1_555 1_555
H18_6 O19_6 1_555 1_555
O20_6 Zn4_6 1_555 1_555
H19_6 O20_6 1_555 1_555
H20_6 O20_6 1_555 1_555
Zn12_6 O12_6 1_555 1_555
Zn14_6 O11_6 1_555 1_555
O23_6 Zn4_6 1_555 1_555
O24_6 Zn3_6 1_555 1_555
O25_6 Zn4_6 1_555 1_555
O26_6 Zn3_6 1_555 1_555
C21_6 C22_6 1_555 1_555
C23_6 O9_6 1_555 1_555
C23_6 O10_6 1_555 1_555
C29_6 C30_6 1_555 1_555
N3_6 N4_6 1_555 1_555
C9_7 C10_7 1_555 1_555
C10_7 H4_7 1_555 1_555
C11_7 C10_7 1_555 1_555
C12_7 C11_7 1_555 1_555
H5_7 C12_7 1_555 1_555
C13_7 C12_7 1_555 1_555
C14_7 C9_7 1_555 1_555
H6_7 C14_7 1_555 1_555
C15_7 C11_7 1_555 1_555
C16_7 C13_7 1_555 1_555
O5_7 C15_7 1_555 1_555
O6_7 C15_7 1_555 1_555
O23_5 C16_7 1_555 1_555
O24_5 C16_7 1_555 1_555
Zn7_7 O5_7 1_555 1_555
Zn10_7 O6_7 1_555 1_555
C13_7 C14_7 1_555 1_555
Zn6_2 O1_7 1_555 1_555
Zn9_2 O2_7 1_555 1_555
Zn11_3 O4_7 1_555 1_555
Zn13_3 O3_7 1_555 1_555
C1_7 C2_7 1_555 1_555
C2_7 H1_7 1_555 1_555
C3_7 C2_7 1_555 1_555
C4_7 C3_7 1_555 1_555
H2_7 C4_7 1_555 1_555
C5_7 C4_7 1_555 1_555
C6_7 C1_7 1_555 1_555
H3_7 C6_7 1_555 1_555
C7_7 C1_7 1_555 1_555
C8_7 C5_7 1_555 1_555
C17_7 C18_7 1_555 1_555
C18_7 H7_7 1_555 1_555
C19_7 C18_7 1_555 1_555
C20_7 C19_7 1_555 1_555
H8_7 C20_7 1_555 1_555
C21_7 C20_7 1_555 1_555
C22_7 C17_7 1_555 1_555
H9_7 C22_7 1_555 1_555
C23_7 C17_7 1_555 1_555
C24_7 C21_7 1_555 1_555
N1_7 C3_7 1_555 1_555
N3_7 C19_7 1_555 1_555
O1_7 C7_7 1_555 1_555
O2_7 C7_7 1_555 1_555
O3_7 C8_7 1_555 1_555
O4_7 C8_7 1_555 1_555
O9_7 Zn13_3 1_555 1_555
O10_7 Zn11_3 1_555 1_555
O11_7 C24_7 1_555 1_555
O12_7 C24_7 1_555 1_555
O17_7 Zn6_2 1_555 1_555
H13_7 O17_7 1_555 1_555
H14_7 O17_7 1_555 1_555
O18_7 Zn9_2 1_555 1_555
H15_7 O18_7 1_555 1_555
H16_7 O18_7 1_555 1_555
O19_7 Zn11_3 1_555 1_555
H17_7 O19_7 1_555 1_555
H18_7 O19_7 1_555 1_555
O20_7 Zn13_3 1_555 1_555
H19_7 O20_7 1_555 1_555
H20_7 O20_7 1_555 1_555
Zn12_7 O12_7 1_555 1_555
Zn14_7 O11_7 1_555 1_555
O21_7 Zn6_2 1_555 1_555
O22_7 Zn9_2 1_555 1_555
O25_7 Zn13_3 1_555 1_555
O26_7 Zn11_3 1_555 1_555
C5_7 C6_7 1_555 1_555
C21_7 C22_7 1_555 1_555
C23_7 O9_7 1_555 1_555
C23_7 O10_7 1_555 1_555
C25_7 H10_7 1_555 1_555
C26_7 C25_7 1_555 1_555
C27_7 C26_7 1_555 1_555
H11_7 C27_7 1_555 1_555
C28_7 C27_7 1_555 1_555
C29_7 C28_7 1_555 1_555
H12_7 C29_7 1_555 1_555
C30_7 C25_7 1_555 1_555
C31_7 C26_7 1_555 1_555
C32_7 C28_7 1_555 1_555
N4_7 C30_7 1_555 1_555
O27_5 C31_7 1_555 1_555
O28_5 C31_7 1_555 1_555
O29_6 C32_7 1_555 1_555
O30_6 C32_7 1_555 1_555
C29_7 C30_7 1_555 1_555
Zn5 O1_8 1_555 1_555
Zn8 O2_8 1_555 1_555
Zn11 O4_8 1_555 1_555
Zn13 O3_8 1_555 1_555
C1_8 C2_8 1_555 1_555
C2_8 H1_8 1_555 1_555
C3_8 C2_8 1_555 1_555
C4_8 C3_8 1_555 1_555
H2_8 C4_8 1_555 1_555
C5_8 C4_8 1_555 1_555
C6_8 C1_8 1_555 1_555
H3_8 C6_8 1_555 1_555
C7_8 C1_8 1_555 1_555
C8_8 C5_8 1_555 1_555
C17_8 C18_8 1_555 1_555
C18_8 H7_8 1_555 1_555
C19_8 C18_8 1_555 1_555
C20_8 C19_8 1_555 1_555
H8_8 C20_8 1_555 1_555
C21_8 C20_8 1_555 1_555
C22_8 C17_8 1_555 1_555
H9_8 C22_8 1_555 1_555
C23_8 C17_8 1_555 1_555
C24_8 C21_8 1_555 1_555
N1_8 C3_8 1_555 1_555
N3_8 C19_8 1_555 1_555
O1_8 C7_8 1_555 1_555
O2_8 C7_8 1_555 1_555
O3_8 C8_8 1_555 1_555
O4_8 C8_8 1_555 1_555
O9_8 Zn13 1_555 1_555
O10_8 Zn11 1_555 1_555
O11_8 C24_8 1_555 1_555
O12_8 C24_8 1_555 1_555
O17_8 Zn5 1_555 1_555
H13_8 O17_8 1_555 1_555
H14_8 O17_8 1_555 1_555
O18_8 Zn8 1_555 1_555
H15_8 O18_8 1_555 1_555
H16_8 O18_8 1_555 1_555
O19_8 Zn11 1_555 1_555
H17_8 O19_8 1_555 1_555
H18_8 O19_8 1_555 1_555
O20_8 Zn13 1_555 1_555
H19_8 O20_8 1_555 1_555
H20_8 O20_8 1_555 1_555
Zn12_8 O12_8 1_555 1_555
Zn14_8 O11_8 1_555 1_555
O21_8 Zn5 1_555 1_555
O22_8 Zn8 1_555 1_555
O25_8 Zn13 1_555 1_555
O26_8 Zn11 1_555 1_555
C5_8 C6_8 1_555 1_555
C21_8 C22_8 1_555 1_555
C23_8 O9_8 1_555 1_555
C23_8 O10_8 1_555 1_555
C25_8 H10_8 1_555 1_555
C26_8 C25_8 1_555 1_555
C27_8 C26_8 1_555 1_555
H11_8 C27_8 1_555 1_555
C28_8 C27_8 1_555 1_555
C29_8 C28_8 1_555 1_555
H12_8 C29_8 1_555 1_555
C30_8 C25_8 1_555 1_555
C31_8 C26_8 1_555 1_555
C32_8 C28_8 1_555 1_555
N4_8 C30_8 1_555 1_555
O27_6 C31_8 1_555 1_555
O28_6 C31_8 1_555 1_555
O29_4 C32_8 1_555 1_555
O30_4 C32_8 1_555 1_555
C29_8 C30_8 1_555 1_555
C9_8 C10_8 1_555 1_555
C10_8 H4_8 1_555 1_555
C11_8 C10_8 1_555 1_555
C12_8 C11_8 1_555 1_555
H5_8 C12_8 1_555 1_555
C13_8 C12_8 1_555 1_555
C14_8 C9_8 1_555 1_555
H6_8 C14_8 1_555 1_555
C15_8 C11_8 1_555 1_555
C16_8 C13_8 1_555 1_555
O5_8 C15_8 1_555 1_555
O6_8 C15_8 1_555 1_555
O23_6 C16_8 1_555 1_555
O24_6 C16_8 1_555 1_555
Zn7_8 O5_8 1_555 1_555
Zn10_8 O6_8 1_555 1_555
C13_8 C14_8 1_555 1_555
Zn6 O1_9 1_555 1_555
Zn9 O2_9 1_555 1_555
Zn11_2 O4_9 1_555 1_555
Zn13_2 O3_9 1_555 1_555
C1_9 C2_9 1_555 1_555
C2_9 H1_9 1_555 1_555
C3_9 C2_9 1_555 1_555
C4_9 C3_9 1_555 1_555
H2_9 C4_9 1_555 1_555
C5_9 C4_9 1_555 1_555
C6_9 C1_9 1_555 1_555
H3_9 C6_9 1_555 1_555
C7_9 C1_9 1_555 1_555
C8_9 C5_9 1_555 1_555
C17_9 C18_9 1_555 1_555
C18_9 H7_9 1_555 1_555
C19_9 C18_9 1_555 1_555
C20_9 C19_9 1_555 1_555
H8_9 C20_9 1_555 1_555
C21_9 C20_9 1_555 1_555
C22_9 C17_9 1_555 1_555
H9_9 C22_9 1_555 1_555
C23_9 C17_9 1_555 1_555
C24_9 C21_9 1_555 1_555
N1_9 C3_9 1_555 1_555
N3_9 C19_9 1_555 1_555
O1_9 C7_9 1_555 1_555
O2_9 C7_9 1_555 1_555
O3_9 C8_9 1_555 1_555
O4_9 C8_9 1_555 1_555
O9_9 Zn13_2 1_555 1_555
O10_9 Zn11_2 1_555 1_555
O11_9 C24_9 1_555 1_555
O12_9 C24_9 1_555 1_555
O17_9 Zn6 1_555 1_555
H13_9 O17_9 1_555 1_555
H14_9 O17_9 1_555 1_555
O18_9 Zn9 1_555 1_555
H15_9 O18_9 1_555 1_555
H16_9 O18_9 1_555 1_555
O19_9 Zn11_2 1_555 1_555
H17_9 O19_9 1_555 1_555
H18_9 O19_9 1_555 1_555
O20_9 Zn13_2 1_555 1_555
H19_9 O20_9 1_555 1_555
H20_9 O20_9 1_555 1_555
Zn12_9 O12_9 1_555 1_555
Zn14_9 O11_9 1_555 1_555
O21_9 Zn6 1_555 1_555
O22_9 Zn9 1_555 1_555
O25_9 Zn13_2 1_555 1_555
O26_9 Zn11_2 1_555 1_555
C5_9 C6_9 1_555 1_555
C21_9 C22_9 1_555 1_555
C23_9 O9_9 1_555 1_555
C23_9 O10_9 1_555 1_555
C9_9 C10_9 1_555 1_555
C10_9 H4_9 1_555 1_555
C11_9 C10_9 1_555 1_555
C12_9 C11_9 1_555 1_555
H5_9 C12_9 1_555 1_555
C13_9 C12_9 1_555 1_555
C14_9 C9_9 1_555 1_555
H6_9 C14_9 1_555 1_555
C15_9 C11_9 1_555 1_555
C16_9 C13_9 1_555 1_555
C25_9 H10_9 1_555 1_555
C26_9 C25_9 1_555 1_555
C27_9 C26_9 1_555 1_555
H11_9 C27_9 1_555 1_555
C28_9 C27_9 1_555 1_555
C29_9 C28_9 1_555 1_555
H12_9 C29_9 1_555 1_555
C30_9 C25_9 1_555 1_555
C31_9 C26_9 1_555 1_555
C32_9 C28_9 1_555 1_555
N2_9 C9_9 1_555 1_555
N4_9 C30_9 1_555 1_555
O5_9 C15_9 1_555 1_555
O6_9 C15_9 1_555 1_555
O23_4 C16_9 1_555 1_555
O24_4 C16_9 1_555 1_555
O27_4 C31_9 1_555 1_555
O28_4 C31_9 1_555 1_555
O29_5 C32_9 1_555 1_555
O30_5 C32_9 1_555 1_555
Zn7_9 O5_9 1_555 1_555
Zn10_9 O6_9 1_555 1_555
C13_9 C14_9 1_555 1_555
C29_9 C30_9 1_555 1_555
Zn7_7 O15_4 1_555 1_555
Zn10_7 O16_4 1_555 1_555
Zn7_5 O1_10 1_555 1_555
Zn10_5 O2_10 1_555 1_555
Zn12_2 O4_10 1_555 1_555
C1_10 C2_10 1_555 1_555
C2_10 H1_10 1_555 1_555
C3_10 C2_10 1_555 1_555
C4_10 C3_10 1_555 1_555
H2_10 C4_10 1_555 1_555
C5_10 C4_10 1_555 1_555
C6_10 C1_10 1_555 1_555
H3_10 C6_10 1_555 1_555
C7_10 C1_10 1_555 1_555
C8_10 C5_10 1_555 1_555
C9_10 C10_10 1_555 1_555
C10_10 H4_10 1_555 1_555
C11_10 C10_10 1_555 1_555
C12_10 C11_10 1_555 1_555
H5_10 C12_10 1_555 1_555
C13_10 C12_10 1_555 1_555
C14_10 C9_10 1_555 1_555
H6_10 C14_10 1_555 1_555
C15_10 C11_10 1_555 1_555
C17_10 C18_10 1_555 1_555
C18_10 H7_10 1_555 1_555
C19_10 C18_10 1_555 1_555
C20_10 C19_10 1_555 1_555
H8_10 C20_10 1_555 1_555
C21_10 C20_10 1_555 1_555
C22_10 C17_10 1_555 1_555
H9_10 C22_10 1_555 1_555
C23_10 C17_10 1_555 1_555
C24_10 C21_10 1_555 1_555
C26_10 C25_10 1_555 1_555
C27_10 C26_10 1_555 1_555
H11_10 C27_10 1_555 1_555
C28_10 C27_10 1_555 1_555
C29_10 C28_10 1_555 1_555
H12_10 C29_10 1_555 1_555
C30_10 C25_10 1_555 1_555
C32_10 C28_10 1_555 1_555
N1_10 C3_10 1_555 1_555
N2_10 C9_10 1_555 1_555
N3_10 C19_10 1_555 1_555
N4_10 C30_10 1_555 1_555
O1_10 C7_10 1_555 1_555
O2_10 C7_10 1_555 1_555
O3_10 C8_10 1_555 1_555
O4_10 C8_10 1_555 1_555
O21_6 C15_10 1_555 1_555
O22_6 C15_10 1_555 1_555
O10_10 Zn12_2 1_555 1_555
O25_3 C24_10 1_555 1_555
O26_3 C24_10 1_555 1_555
O17_10 Zn7_5 1_555 1_555
H13_10 O17_10 1_555 1_555
H14_10 O17_10 1_555 1_555
O18_10 Zn10_5 1_555 1_555
H15_10 O18_10 1_555 1_555
H16_10 O18_10 1_555 1_555
O19_10 Zn12_2 1_555 1_555
H17_10 O19_10 1_555 1_555
H18_10 O19_10 1_555 1_555
O27_7 Zn10_5 1_555 1_555
O28_7 Zn7_5 1_555 1_555
O29_7 Zn7_5 1_555 1_555
O30_7 Zn10_5 1_555 1_555
C5_10 C6_10 1_555 1_555
C13_10 C14_10 1_555 1_555
C21_10 C22_10 1_555 1_555
C23_10 O9_10 1_555 1_555
C23_10 O10_10 1_555 1_555
C29_10 C30_10 1_555 1_555
N1_10 N2_10 1_555 1_555
N3_10 N4_10 1_555 1_555
O7_4 C16_10 1_555 1_555
O8_4 C16_10 1_555 1_555
O13_4 C31_10 1_555 1_555
O14_4 C31_10 1_555 1_555
O20_10 Zn14_2 1_555 1_555
H19_10 O20_10 1_555 1_555
H20_10 O20_10 1_555 1_555
Zn7_9 O14_4 1_555 1_555
Zn10_9 O13_4 1_555 1_555
Zn12_6 O8_4 1_555 1_555
Zn14_6 O7_4 1_555 1_555
O23_7 Zn14_2 1_555 1_555
Zn7_6 O1_11 1_555 1_555
Zn10_6 O2_11 1_555 1_555
Zn12_3 O4_11 1_555 1_555
Zn14_3 O3_11 1_555 1_555
C1_11 C2_11 1_555 1_555
C2_11 H1_11 1_555 1_555
C3_11 C2_11 1_555 1_555
C4_11 C3_11 1_555 1_555
H2_11 C4_11 1_555 1_555
C5_11 C4_11 1_555 1_555
C6_11 C1_11 1_555 1_555
H3_11 C6_11 1_555 1_555
C7_11 C1_11 1_555 1_555
C8_11 C5_11 1_555 1_555
C9_11 C10_11 1_555 1_555
C10_11 H4_11 1_555 1_555
C11_11 C10_11 1_555 1_555
C12_11 C11_11 1_555 1_555
H5_11 C12_11 1_555 1_555
C13_11 C12_11 1_555 1_555
C14_11 C9_11 1_555 1_555
H6_11 C14_11 1_555 1_555
C15_11 C11_11 1_555 1_555
C16_11 C13_11 1_555 1_555
C17_11 C18_11 1_555 1_555
C18_11 H7_11 1_555 1_555
C19_11 C18_11 1_555 1_555
C20_11 C19_11 1_555 1_555
H8_11 C20_11 1_555 1_555
C21_11 C20_11 1_555 1_555
C22_11 C17_11 1_555 1_555
H9_11 C22_11 1_555 1_555
C23_11 C17_11 1_555 1_555
C24_11 C21_11 1_555 1_555
C25_11 H10_11 1_555 1_555
C26_11 C25_11 1_555 1_555
C27_11 C26_11 1_555 1_555
H11_11 C27_11 1_555 1_555
C28_11 C27_11 1_555 1_555
C29_11 C28_11 1_555 1_555
H12_11 C29_11 1_555 1_555
C30_11 C25_11 1_555 1_555
C31_11 C26_11 1_555 1_555
C32_11 C28_11 1_555 1_555
N1_11 C3_11 1_555 1_555
N2_11 C9_11 1_555 1_555
N3_11 C19_11 1_555 1_555
N4_11 C30_11 1_555 1_555
O1_11 C7_11 1_555 1_555
O2_11 C7_11 1_555 1_555
O3_11 C8_11 1_555 1_555
O4_11 C8_11 1_555 1_555
O21_4 C15_11 1_555 1_555
O22_4 C15_11 1_555 1_555
O7_5 C16_11 1_555 1_555
O8_5 C16_11 1_555 1_555
O9_11 Zn14_3 1_555 1_555
O10_11 Zn12_3 1_555 1_555
O25 C24_11 1_555 1_555
O26 C24_11 1_555 1_555
O13_5 C31_11 1_555 1_555
O14_5 C31_11 1_555 1_555
O17_11 Zn7_6 1_555 1_555
H13_11 O17_11 1_555 1_555
H14_11 O17_11 1_555 1_555
O18_11 Zn10_6 1_555 1_555
H15_11 O18_11 1_555 1_555
H16_11 O18_11 1_555 1_555
O19_11 Zn12_3 1_555 1_555
H17_11 O19_11 1_555 1_555
H18_11 O19_11 1_555 1_555
O20_11 Zn14_3 1_555 1_555
H19_11 O20_11 1_555 1_555
H20_11 O20_11 1_555 1_555
Zn7_7 O14_5 1_555 1_555
Zn10_7 O13_5 1_555 1_555
Zn12_4 O8_5 1_555 1_555
Zn14_4 O7_5 1_555 1_555
O23_8 Zn14_3 1_555 1_555
O24_8 Zn12_3 1_555 1_555
O27_8 Zn10_6 1_555 1_555
O28_8 Zn7_6 1_555 1_555
O29_8 Zn7_6 1_555 1_555
O30_8 Zn10_6 1_555 1_555
C5_11 C6_11 1_555 1_555
C13_11 C14_11 1_555 1_555
C21_11 C22_11 1_555 1_555
C23_11 O9_11 1_555 1_555
C23_11 O10_11 1_555 1_555
C29_11 C30_11 1_555 1_555
N1_11 N2_11 1_555 1_555
N3_11 N4_11 1_555 1_555
Zn7_8 O15_5 1_555 1_555
Zn10_8 O16_5 1_555 1_555
O7_6 C16_12 1_555 1_555
O8_6 C16_12 1_555 1_555
O13_6 C31_12 1_555 1_555
O14_6 C31_12 1_555 1_555
O20_12 Zn14 1_555 1_555
H19_12 O20_12 1_555 1_555
H20_12 O20_12 1_555 1_555
Zn7_8 O14_6 1_555 1_555
Zn10_8 O13_6 1_555 1_555
Zn12_5 O8_6 1_555 1_555
Zn14_5 O7_6 1_555 1_555
O23_9 Zn14 1_555 1_555
Zn7_4 O1_12 1_555 1_555
Zn10_4 O2_12 1_555 1_555
Zn12 O4_12 1_555 1_555
C1_12 C2_12 1_555 1_555
C2_12 H1_12 1_555 1_555
C3_12 C2_12 1_555 1_555
C4_12 C3_12 1_555 1_555
H2_12 C4_12 1_555 1_555
C5_12 C4_12 1_555 1_555
C6_12 C1_12 1_555 1_555
H3_12 C6_12 1_555 1_555
C7_12 C1_12 1_555 1_555
C8_12 C5_12 1_555 1_555
C9_12 C10_12 1_555 1_555
C10_12 H4_12 1_555 1_555
C11_12 C10_12 1_555 1_555
C12_12 C11_12 1_555 1_555
H5_12 C12_12 1_555 1_555
C13_12 C12_12 1_555 1_555
C14_12 C9_12 1_555 1_555
H6_12 C14_12 1_555 1_555
C15_12 C11_12 1_555 1_555
C17_12 C18_12 1_555 1_555
C18_12 H7_12 1_555 1_555
C19_12 C18_12 1_555 1_555
C20_12 C19_12 1_555 1_555
H8_12 C20_12 1_555 1_555
C21_12 C20_12 1_555 1_555
C22_12 C17_12 1_555 1_555
H9_12 C22_12 1_555 1_555
C23_12 C17_12 1_555 1_555
C24_12 C21_12 1_555 1_555
C26_12 C25_12 1_555 1_555
C27_12 C26_12 1_555 1_555
H11_12 C27_12 1_555 1_555
C28_12 C27_12 1_555 1_555
C29_12 C28_12 1_555 1_555
H12_12 C29_12 1_555 1_555
C30_12 C25_12 1_555 1_555
C32_12 C28_12 1_555 1_555
N1_12 C3_12 1_555 1_555
N2_12 C9_12 1_555 1_555
N3_12 C19_12 1_555 1_555
N4_12 C30_12 1_555 1_555
O1_12 C7_12 1_555 1_555
O2_12 C7_12 1_555 1_555
O3_12 C8_12 1_555 1_555
O4_12 C8_12 1_555 1_555
O21_5 C15_12 1_555 1_555
O22_5 C15_12 1_555 1_555
O10_12 Zn12 1_555 1_555
O25_2 C24_12 1_555 1_555
O26_2 C24_12 1_555 1_555
O15_6 C32_12 1_555 1_555
O16_6 C32_12 1_555 1_555
O17_12 Zn7_4 1_555 1_555
H13_12 O17_12 1_555 1_555
H14_12 O17_12 1_555 1_555
O18_12 Zn10_4 1_555 1_555
H15_12 O18_12 1_555 1_555
H16_12 O18_12 1_555 1_555
O19_12 Zn12 1_555 1_555
H17_12 O19_12 1_555 1_555
H18_12 O19_12 1_555 1_555
Zn7_9 O15_6 1_555 1_555
Zn10_9 O16_6 1_555 1_555
O27_9 Zn10_4 1_555 1_555
O28_9 Zn7_4 1_555 1_555
O29_9 Zn7_4 1_555 1_555
O30_9 Zn10_4 1_555 1_555
C5_12 C6_12 1_555 1_555
C13_12 C14_12 1_555 1_555
C21_12 C22_12 1_555 1_555
C23_12 O9_12 1_555 1_555
C23_12 O10_12 1_555 1_555
C29_12 C30_12 1_555 1_555
N1_12 N2_12 1_555 1_555
N3_12 N4_12 1_555 1_555
Zn7_2 O1_13 1_555 1_555
Zn10_2 O2_13 1_555 1_555
Zn12_8 O4_13 1_555 1_555
Zn14_8 O3_13 1_555 1_555
C1_13 C2_13 1_555 1_555
C2_13 H1_13 1_555 1_555
C3_13 C2_13 1_555 1_555
C4_13 C3_13 1_555 1_555
H2_13 C4_13 1_555 1_555
C5_13 C4_13 1_555 1_555
C6_13 C1_13 1_555 1_555
H3_13 C6_13 1_555 1_555
C7_13 C1_13 1_555 1_555
C8_13 C5_13 1_555 1_555
C9_13 C10_13 1_555 1_555
C10_13 H4_13 1_555 1_555
C11_13 C10_13 1_555 1_555
C12_13 C11_13 1_555 1_555
H5_13 C12_13 1_555 1_555
C13_13 C12_13 1_555 1_555
C14_13 C9_13 1_555 1_555
H6_13 C14_13 1_555 1_555
C15_13 C11_13 1_555 1_555
C16_13 C13_13 1_555 1_555
C17_13 C18_13 1_555 1_555
C18_13 H7_13 1_555 1_555
C19_13 C18_13 1_555 1_555
C20_13 C19_13 1_555 1_555
H8_13 C20_13 1_555 1_555
C21_13 C20_13 1_555 1_555
C22_13 C17_13 1_555 1_555
H9_13 C22_13 1_555 1_555
C23_13 C17_13 1_555 1_555
C24_13 C21_13 1_555 1_555
C25_13 H10_13 1_555 1_555
C26_13 C25_13 1_555 1_555
C27_13 C26_13 1_555 1_555
H11_13 C27_13 1_555 1_555
C28_13 C27_13 1_555 1_555
C29_13 C28_13 1_555 1_555
H12_13 C29_13 1_555 1_555
C30_13 C25_13 1_555 1_555
C31_13 C26_13 1_555 1_555
C32_13 C28_13 1_555 1_555
N1_13 C3_13 1_555 1_555
N2_13 C9_13 1_555 1_555
N3_13 C19_13 1_555 1_555
N4_13 C30_13 1_555 1_555
O1_13 C7_13 1_555 1_555
O2_13 C7_13 1_555 1_555
O3_13 C8_13 1_555 1_555
O4_13 C8_13 1_555 1_555
O21_3 C15_13 1_555 1_555
O22_3 C15_13 1_555 1_555
O23_8 C16_13 1_555 1_555
O24_8 C16_13 1_555 1_555
O9_13 Zn14_8 1_555 1_555
O10_13 Zn12_8 1_555 1_555
O25_9 C24_13 1_555 1_555
O26_9 C24_13 1_555 1_555
O27_8 C31_13 1_555 1_555
O28_8 C31_13 1_555 1_555
O29_9 C32_13 1_555 1_555
O30_9 C32_13 1_555 1_555
O17_13 Zn7_2 1_555 1_555
H13_13 O17_13 1_555 1_555
H14_13 O17_13 1_555 1_555
O18_13 Zn10_2 1_555 1_555
H15_13 O18_13 1_555 1_555
H16_13 O18_13 1_555 1_555
O19_13 Zn12_8 1_555 1_555
H17_13 O19_13 1_555 1_555
H18_13 O19_13 1_555 1_555
O20_13 Zn14_8 1_555 1_555
H19_13 O20_13 1_555 1_555
H20_13 O20_13 1_555 1_555
O23_10 Zn14_8 1_555 1_555
O24_10 Zn12_8 1_555 1_555
O27_10 Zn10_2 1_555 1_555
O28_10 Zn7_2 1_555 1_555
O29_10 Zn7_2 1_555 1_555
O30_10 Zn10_2 1_555 1_555
C5_13 C6_13 1_555 1_555
C13_13 C14_13 1_555 1_555
C21_13 C22_13 1_555 1_555
C23_13 O9_13 1_555 1_555
C23_13 O10_13 1_555 1_555
C29_13 C30_13 1_555 1_555
N1_13 N2_13 1_555 1_555
N3_13 N4_13 1_555 1_555
Zn7_3 O1_14 1_555 1_555
Zn10_3 O2_14 1_555 1_555
C1_14 C2_14 1_555 1_555
C2_14 H1_14 1_555 1_555
C3_14 C2_14 1_555 1_555
C4_14 C3_14 1_555 1_555
H2_14 C4_14 1_555 1_555
C5_14 C4_14 1_555 1_555
C6_14 C1_14 1_555 1_555
H3_14 C6_14 1_555 1_555
C7_14 C1_14 1_555 1_555
C9_14 C10_14 1_555 1_555
C10_14 H4_14 1_555 1_555
C11_14 C10_14 1_555 1_555
C12_14 C11_14 1_555 1_555
H5_14 C12_14 1_555 1_555
C13_14 C12_14 1_555 1_555
C14_14 C9_14 1_555 1_555
H6_14 C14_14 1_555 1_555
C15_14 C11_14 1_555 1_555
C16_14 C13_14 1_555 1_555
N1_14 C3_14 1_555 1_555
N2_14 C9_14 1_555 1_555
O1_14 C7_14 1_555 1_555
O2_14 C7_14 1_555 1_555
O21 C15_14 1_555 1_555
O22 C15_14 1_555 1_555
O23_9 C16_14 1_555 1_555
O24_9 C16_14 1_555 1_555
O17_14 Zn7_3 1_555 1_555
H13_14 O17_14 1_555 1_555
H14_14 O17_14 1_555 1_555
O18_14 Zn10_3 1_555 1_555
H15_14 O18_14 1_555 1_555
H16_14 O18_14 1_555 1_555
O27_11 Zn10_3 1_555 1_555
O28_11 Zn7_3 1_555 1_555
O29_11 Zn7_3 1_555 1_555
O30_11 Zn10_3 1_555 1_555
C5_14 C6_14 1_555 1_555
C13_14 C14_14 1_555 1_555
N1_14 N2_14 1_555 1_555
Zn12_9 O4_14 1_555 1_555
Zn14_9 O3_14 1_555 1_555
C17_14 C18_14 1_555 1_555
C18_14 H7_14 1_555 1_555
C19_14 C18_14 1_555 1_555
C20_14 C19_14 1_555 1_555
H8_14 C20_14 1_555 1_555
C21_14 C20_14 1_555 1_555
C22_14 C17_14 1_555 1_555
H9_14 C22_14 1_555 1_555
C23_14 C17_14 1_555 1_555
C24_14 C21_14 1_555 1_555
C25_14 H10_14 1_555 1_555
C26_14 C25_14 1_555 1_555
C27_14 C26_14 1_555 1_555
H11_14 C27_14 1_555 1_555
C28_14 C27_14 1_555 1_555
C29_14 C28_14 1_555 1_555
H12_14 C29_14 1_555 1_555
C30_14 C25_14 1_555 1_555
C31_14 C26_14 1_555 1_555
C32_14 C28_14 1_555 1_555
N3_14 C19_14 1_555 1_555
N4_14 C30_14 1_555 1_555
O3_14 C8_14 1_555 1_555
O4_14 C8_14 1_555 1_555
O9_14 Zn14_9 1_555 1_555
O10_14 Zn12_9 1_555 1_555
O25_7 C24_14 1_555 1_555
O26_7 C24_14 1_555 1_555
O27_9 C31_14 1_555 1_555
O28_9 C31_14 1_555 1_555
O29_7 C32_14 1_555 1_555
O30_7 C32_14 1_555 1_555
O19_14 Zn12_9 1_555 1_555
H17_14 O19_14 1_555 1_555
H18_14 O19_14 1_555 1_555
O20_14 Zn14_9 1_555 1_555
H19_14 O20_14 1_555 1_555
H20_14 O20_14 1_555 1_555
O23_11 Zn14_9 1_555 1_555
O24_11 Zn12_9 1_555 1_555
C21_14 C22_14 1_555 1_555
C23_14 O9_14 1_555 1_555
C23_14 O10_14 1_555 1_555
C29_14 C30_14 1_555 1_555
N3_14 N4_14 1_555 1_555
Zn12_7 O4_15 1_555 1_555
Zn14_7 O3_15 1_555 1_555
C17_15 C18_15 1_555 1_555
C18_15 H7_15 1_555 1_555
C19_15 C18_15 1_555 1_555
C20_15 C19_15 1_555 1_555
H8_15 C20_15 1_555 1_555
C21_15 C20_15 1_555 1_555
C22_15 C17_15 1_555 1_555
H9_15 C22_15 1_555 1_555
C23_15 C17_15 1_555 1_555
C24_15 C21_15 1_555 1_555
C25_15 H10_15 1_555 1_555
C26_15 C25_15 1_555 1_555
C27_15 C26_15 1_555 1_555
H11_15 C27_15 1_555 1_555
C28_15 C27_15 1_555 1_555
C29_15 C28_15 1_555 1_555
H12_15 C29_15 1_555 1_555
C30_15 C25_15 1_555 1_555
C31_15 C26_15 1_555 1_555
C32_15 C28_15 1_555 1_555
N3_15 C19_15 1_555 1_555
N4_15 C30_15 1_555 1_555
O3_15 C8_15 1_555 1_555
O4_15 C8_15 1_555 1_555
O9_15 Zn14_7 1_555 1_555
O10_15 Zn12_7 1_555 1_555
O25_8 C24_15 1_555 1_555
O26_8 C24_15 1_555 1_555
O27_7 C31_15 1_555 1_555
O28_7 C31_15 1_555 1_555
O29_8 C32_15 1_555 1_555
O30_8 C32_15 1_555 1_555
O19_15 Zn12_7 1_555 1_555
H17_15 O19_15 1_555 1_555
H18_15 O19_15 1_555 1_555
O20_15 Zn14_7 1_555 1_555
H19_15 O20_15 1_555 1_555
H20_15 O20_15 1_555 1_555
O23_12 Zn14_7 1_555 1_555
O24_12 Zn12_7 1_555 1_555
C21_15 C22_15 1_555 1_555
C23_15 O9_15 1_555 1_555
C23_15 O10_15 1_555 1_555
C29_15 C30_15 1_555 1_555
N3_15 N4_15 1_555 1_555
Zn7 O1_15 1_555 1_555
Zn10 O2_15 1_555 1_555
C1_15 C2_15 1_555 1_555
C2_15 H1_15 1_555 1_555
C3_15 C2_15 1_555 1_555
C4_15 C3_15 1_555 1_555
H2_15 C4_15 1_555 1_555
C5_15 C4_15 1_555 1_555
C6_15 C1_15 1_555 1_555
H3_15 C6_15 1_555 1_555
C7_15 C1_15 1_555 1_555
C9_15 C10_15 1_555 1_555
C10_15 H4_15 1_555 1_555
C11_15 C10_15 1_555 1_555
C12_15 C11_15 1_555 1_555
H5_15 C12_15 1_555 1_555
C13_15 C12_15 1_555 1_555
C14_15 C9_15 1_555 1_555
H6_15 C14_15 1_555 1_555
C15_15 C11_15 1_555 1_555
C16_15 C13_15 1_555 1_555
N1_15 C3_15 1_555 1_555
N2_15 C9_15 1_555 1_555
O1_15 C7_15 1_555 1_555
O2_15 C7_15 1_555 1_555
O21_2 C15_15 1_555 1_555
O22_2 C15_15 1_555 1_555
O23_7 C16_15 1_555 1_555
O24_7 C16_15 1_555 1_555
O17_15 Zn7 1_555 1_555
H13_15 O17_15 1_555 1_555
H14_15 O17_15 1_555 1_555
O18_15 Zn10 1_555 1_555
H15_15 O18_15 1_555 1_555
H16_15 O18_15 1_555 1_555
O27_12 Zn10 1_555 1_555
O28_12 Zn7 1_555 1_555
O29_12 Zn7 1_555 1_555
O30_12 Zn10 1_555 1_555
C5_15 C6_15 1_555 1_555
C13_15 C14_15 1_555 1_555
N1_15 N2_15 1_555 1_555
C25_16 H10_16 1_555 1_555
C26_16 C25_16 1_555 1_555
C27_16 C26_16 1_555 1_555
H11_16 C27_16 1_555 1_555
C28_16 C27_16 1_555 1_555
C29_16 C28_16 1_555 1_555
H12_16 C29_16 1_555 1_555
C30_16 C25_16 1_555 1_555
C31_16 C26_16 1_555 1_555
C32_16 C28_16 1_555 1_555
N4_16 C30_16 1_555 1_555
O27_11 C31_16 1_555 1_555
O28_11 C31_16 1_555 1_555
O29_12 C32_16 1_555 1_555
O30_12 C32_16 1_555 1_555
C29_16 C30_16 1_555 1_555
Zn7_8 O1_16 1_555 1_555
Zn10_8 O2_16 1_555 1_555
Zn12_5 O4_16 1_555 1_555
Zn14_5 O3_16 1_555 1_555
C1_16 C2_16 1_555 1_555
C2_16 H1_16 1_555 1_555
C3_16 C2_16 1_555 1_555
C4_16 C3_16 1_555 1_555
H2_16 C4_16 1_555 1_555
C5_16 C4_16 1_555 1_555
C6_16 C1_16 1_555 1_555
H3_16 C6_16 1_555 1_555
C7_16 C1_16 1_555 1_555
C8_16 C5_16 1_555 1_555
C17_16 C18_16 1_555 1_555
C18_16 H7_16 1_555 1_555
C19_16 C18_16 1_555 1_555
C20_16 C19_16 1_555 1_555
H8_16 C20_16 1_555 1_555
C21_16 C20_16 1_555 1_555
C22_16 C17_16 1_555 1_555
H9_16 C22_16 1_555 1_555
C23_16 C17_16 1_555 1_555
C24_16 C21_16 1_555 1_555
N1_16 C3_16 1_555 1_555
N3_16 C19_16 1_555 1_555
O1_16 C7_16 1_555 1_555
O2_16 C7_16 1_555 1_555
O3_16 C8_16 1_555 1_555
O4_16 C8_16 1_555 1_555
O9_16 Zn14_5 1_555 1_555
O10_16 Zn12_5 1_555 1_555
O25_6 C24_16 1_555 1_555
O26_6 C24_16 1_555 1_555
O17_16 Zn7_8 1_555 1_555
H13_16 O17_16 1_555 1_555
H14_16 O17_16 1_555 1_555
O18_16 Zn10_8 1_555 1_555
H15_16 O18_16 1_555 1_555
H16_16 O18_16 1_555 1_555
O19_16 Zn12_5 1_555 1_555
H17_16 O19_16 1_555 1_555
H18_16 O19_16 1_555 1_555
O20_16 Zn14_5 1_555 1_555
H19_16 O20_16 1_555 1_555
H20_16 O20_16 1_555 1_555
C5_16 C6_16 1_555 1_555
C21_16 C22_16 1_555 1_555
C23_16 O9_16 1_555 1_555
C23_16 O10_16 1_555 1_555
C9_16 C10_16 1_555 1_555
C10_16 H4_16 1_555 1_555
C11_16 C10_16 1_555 1_555
C12_16 C11_16 1_555 1_555
H5_16 C12_16 1_555 1_555
C13_16 C12_16 1_555 1_555
C14_16 C9_16 1_555 1_555
H6_16 C14_16 1_555 1_555
C15_16 C11_16 1_555 1_555
C16_16 C13_16 1_555 1_555
O21_9 C15_16 1_555 1_555
O22_9 C15_16 1_555 1_555
O23_11 C16_16 1_555 1_555
O24_11 C16_16 1_555 1_555
C13_16 C14_16 1_555 1_555
C9_17 C10_17 1_555 1_555
C10_17 H4_17 1_555 1_555
C11_17 C10_17 1_555 1_555
C12_17 C11_17 1_555 1_555
H5_17 C12_17 1_555 1_555
C13_17 C12_17 1_555 1_555
C14_17 C9_17 1_555 1_555
H6_17 C14_17 1_555 1_555
C15_17 C11_17 1_555 1_555
C16_17 C13_17 1_555 1_555
O21_7 C15_17 1_555 1_555
O22_7 C15_17 1_555 1_555
O23_12 C16_17 1_555 1_555
O24_12 C16_17 1_555 1_555
C13_17 C14_17 1_555 1_555
C25_17 H10_17 1_555 1_555
C26_17 C25_17 1_555 1_555
C27_17 C26_17 1_555 1_555
H11_17 C27_17 1_555 1_555
C28_17 C27_17 1_555 1_555
C29_17 C28_17 1_555 1_555
H12_17 C29_17 1_555 1_555
C30_17 C25_17 1_555 1_555
C31_17 C26_17 1_555 1_555
C32_17 C28_17 1_555 1_555
N4_17 C30_17 1_555 1_555
O27_12 C31_17 1_555 1_555
O28_12 C31_17 1_555 1_555
O29_10 C32_17 1_555 1_555
O30_10 C32_17 1_555 1_555
C29_17 C30_17 1_555 1_555
Zn7_9 O1_17 1_555 1_555
Zn10_9 O2_17 1_555 1_555
Zn12_6 O4_17 1_555 1_555
Zn14_6 O3_17 1_555 1_555
C1_17 C2_17 1_555 1_555
C2_17 H1_17 1_555 1_555
C3_17 C2_17 1_555 1_555
C4_17 C3_17 1_555 1_555
H2_17 C4_17 1_555 1_555
C5_17 C4_17 1_555 1_555
C6_17 C1_17 1_555 1_555
H3_17 C6_17 1_555 1_555
C7_17 C1_17 1_555 1_555
C8_17 C5_17 1_555 1_555
C17_17 C18_17 1_555 1_555
C18_17 H7_17 1_555 1_555
C19_17 C18_17 1_555 1_555
C20_17 C19_17 1_555 1_555
H8_17 C20_17 1_555 1_555
C21_17 C20_17 1_555 1_555
C22_17 C17_17 1_555 1_555
H9_17 C22_17 1_555 1_555
C23_17 C17_17 1_555 1_555
C24_17 C21_17 1_555 1_555
N1_17 C3_17 1_555 1_555
N3_17 C19_17 1_555 1_555
O1_17 C7_17 1_555 1_555
O2_17 C7_17 1_555 1_555
O3_17 C8_17 1_555 1_555
O4_17 C8_17 1_555 1_555
O9_17 Zn14_6 1_555 1_555
O10_17 Zn12_6 1_555 1_555
O25_4 C24_17 1_555 1_555
O26_4 C24_17 1_555 1_555
O17_17 Zn7_9 1_555 1_555
H13_17 O17_17 1_555 1_555
H14_17 O17_17 1_555 1_555
O18_17 Zn10_9 1_555 1_555
H15_17 O18_17 1_555 1_555
H16_17 O18_17 1_555 1_555
O19_17 Zn12_6 1_555 1_555
H17_17 O19_17 1_555 1_555
H18_17 O19_17 1_555 1_555
O20_17 Zn14_6 1_555 1_555
H19_17 O20_17 1_555 1_555
H20_17 O20_17 1_555 1_555
C5_17 C6_17 1_555 1_555
C21_17 C22_17 1_555 1_555
C23_17 O9_17 1_555 1_555
C23_17 O10_17 1_555 1_555
C9_18 C10_18 1_555 1_555
C10_18 H4_18 1_555 1_555
C11_18 C10_18 1_555 1_555
C12_18 C11_18 1_555 1_555
H5_18 C12_18 1_555 1_555
C13_18 C12_18 1_555 1_555
C14_18 C9_18 1_555 1_555
H6_18 C14_18 1_555 1_555
C15_18 C11_18 1_555 1_555
C16_18 C13_18 1_555 1_555
C25_18 H10_18 1_555 1_555
C26_18 C25_18 1_555 1_555
C27_18 C26_18 1_555 1_555
H11_18 C27_18 1_555 1_555
C28_18 C27_18 1_555 1_555
C29_18 C28_18 1_555 1_555
H12_18 C29_18 1_555 1_555
C30_18 C25_18 1_555 1_555
C31_18 C26_18 1_555 1_555
C32_18 C28_18 1_555 1_555
N2_18 C9_18 1_555 1_555
N4_18 C30_18 1_555 1_555
O21_8 C15_18 1_555 1_555
O22_8 C15_18 1_555 1_555
O23_10 C16_18 1_555 1_555
O24_10 C16_18 1_555 1_555
O27_10 C31_18 1_555 1_555
O28_10 C31_18 1_555 1_555
O29_11 C32_18 1_555 1_555
O30_11 C32_18 1_555 1_555
C13_18 C14_18 1_555 1_555
C29_18 C30_18 1_555 1_555
Zn7_7 O1_18 1_555 1_555
Zn10_7 O2_18 1_555 1_555
Zn12_4 O4_18 1_555 1_555
Zn14_4 O3_18 1_555 1_555
C1_18 C2_18 1_555 1_555
C2_18 H1_18 1_555 1_555
C3_18 C2_18 1_555 1_555
C4_18 C3_18 1_555 1_555
H2_18 C4_18 1_555 1_555
C5_18 C4_18 1_555 1_555
C6_18 C1_18 1_555 1_555
H3_18 C6_18 1_555 1_555
C7_18 C1_18 1_555 1_555
C8_18 C5_18 1_555 1_555
C17_18 C18_18 1_555 1_555
C18_18 H7_18 1_555 1_555
C19_18 C18_18 1_555 1_555
C20_18 C19_18 1_555 1_555
H8_18 C20_18 1_555 1_555
C21_18 C20_18 1_555 1_555
C22_18 C17_18 1_555 1_555
H9_18 C22_18 1_555 1_555
C23_18 C17_18 1_555 1_555
C24_18 C21_18 1_555 1_555
N1_18 C3_18 1_555 1_555
N3_18 C19_18 1_555 1_555
O1_18 C7_18 1_555 1_555
O2_18 C7_18 1_555 1_555
O3_18 C8_18 1_555 1_555
O4_18 C8_18 1_555 1_555
O9_18 Zn14_4 1_555 1_555
O10_18 Zn12_4 1_555 1_555
O25_5 C24_18 1_555 1_555
O26_5 C24_18 1_555 1_555
O17_18 Zn7_7 1_555 1_555
H13_18 O17_18 1_555 1_555
H14_18 O17_18 1_555 1_555
O18_18 Zn10_7 1_555 1_555
H15_18 O18_18 1_555 1_555
H16_18 O18_18 1_555 1_555
O19_18 Zn12_4 1_555 1_555
H17_18 O19_18 1_555 1_555
H18_18 O19_18 1_555 1_555
O20_18 Zn14_4 1_555 1_555
H19_18 O20_18 1_555 1_555
H20_18 O20_18 1_555 1_555
C5_18 C6_18 1_555 1_555
C21_18 C22_18 1_555 1_555
C23_18 O9_18 1_555 1_555
C23_18 O10_18 1_555 1_555

#END
