
###############################################################################
#
# This file contains modified crystal structure data generated from the
# MOF subset of the Cambridge Structural Database (CSD) v543 
# hosted by the Cambridge Crystallographic Data Centre (CCDC).
#
# This work is licensed under the Creative Commons
# Attribution-NonCommercial-ShareAlike 4.0 International License.
# To view a copy of this license, visit
# http://creativecommons.org/licenses/by-nc-sa/4.0/
# or send a letter to
# Creative Commons, PO Box 1866, Mountain View, CA 94042, USA.
#
# CIF created using the CSD Python API on 29 September 2022
# The structure has been converted into the P1 space group
# The structure has a 3D framework
# The original CSD entry DAPVAV is in the monoclinic crystal system
# The framework has been calculated to contain at least 10.0% void space
# The void calculation uses a probe of radius 1.32A, grid spacing 0.4
# The framework is charged, counterions have been retained in the structure
#
###############################################################################

data_DAPVAV
_chemical_formula_moiety         '(C184 H128 N24 O64 S32 Zn16 8-)n'
_symmetry_cell_setting           triclinic
_symmetry_space_group_name_H-M   'P 1'
_symmetry_Int_Tables_number      1
_space_group_name_Hall           'P 1'
loop_
_symmetry_equiv_pos_site_id
_symmetry_equiv_pos_as_xyz
1 x,y,z
_cell_length_a                   14.3455(5)
_cell_length_b                   27.8054(11)
_cell_length_c                   27.7080(11)
_cell_angle_alpha                90
_cell_angle_beta                 90.205(2)
_cell_angle_gamma                90
_cell_volume                     11052.2
loop_
_atom_site_label
_atom_site_type_symbol
_atom_site_fract_x
_atom_site_fract_y
_atom_site_fract_z
Zn1 Zn 0.24142(7) 0.29927(3) 0.45305(4)
Zn2 Zn 0.64705(6) 0.25370(3) 0.49648(4)
S1 S 0.0926(2) 0.47526(10) 0.4702(2)
S2 S 0.11224(18) 0.58646(9) 0.48250(19)
S3 S 0.0950(3) 0.2854(3) 0.27592(13)
S4 S 0.1126(2) 0.2681(3) 0.16421(12)
O1 O 0.2632(5) 0.3680(2) 0.4678(3)
O2 O 0.1144(7) 0.3751(3) 0.4598(6)
O3 O 0.3205(4) 0.6748(2) 0.4988(4)
O4 O 0.1683(4) 0.6814(2) 0.4934(4)
O5 O 0.2635(6) 0.2876(3) 0.3851(2)
O6 O 0.1168(9) 0.2958(6) 0.3759(4)
O7 O 0.3203(5) 0.2580(3) 0.0748(2)
O8 O 0.1708(5) 0.2504(3) 0.0688(2)
N1 N 0.3582(4) 0.2700(2) 0.4808(2)
N2 N 0.3650(5) 0.2346(3) 0.5149(2)
N3 N 0.5074(4) 0.2541(2) 0.4960(3)
C1 C 0.1899(8) 0.3912(4) 0.4672(5)
C2 C 0.2010(7) 0.4446(4) 0.4740(5)
C3 C 0.2713(7) 0.4738(3) 0.4811(5)
C4 C 0.2453(8) 0.5231(3) 0.4843(5)
C5 C 0.1500(8) 0.5282(4) 0.4792(5)
C6 C 0.2904(7) 0.5709(3) 0.4898(6)
C7 C 0.2283(7) 0.6052(3) 0.4901(4)
C8 C 0.3717(10) 0.4601(5) 0.4823(7)
H1 H 0.3784 0.4258 0.4799
H2 H 0.3964 0.4750 0.4538
H3 H 0.4050 0.4715 0.5101
C9 C 0.3889(7) 0.5765(4) 0.4957(7)
H4 H 0.4191 0.5449 0.4940
H5 H 0.4132 0.5972 0.4701
H6 H 0.4019 0.5912 0.5272
C10 C 0.2405(6) 0.6586(2) 0.4944(3)
C11 C 0.1941(9) 0.2878(7) 0.3600(4)
C12 C 0.2035(9) 0.2794(7) 0.3077(4)
C13 C 0.2737(8) 0.2742(6) 0.2776(4)
C14 C 0.2444(8) 0.2704(5) 0.2270(3)
C15 C 0.1527(9) 0.2686(9) 0.2219(4)
C16 C 0.2903(7) 0.2661(7) 0.1816(4)
C17 C 0.2277(6) 0.2604(5) 0.1442(3)
C18 C 0.3794(12) 0.2689(9) 0.2892(7)
H7 H 0.4143 0.2656 0.2590
H8 H 0.4012 0.2974 0.3066
H9 H 0.3894 0.2402 0.3091
C19 C 0.3901(8) 0.2621(7) 0.1721(5)
H10 H 0.4003 0.2597 0.1372
H11 H 0.4222 0.2907 0.1846
H12 H 0.4149 0.2334 0.1881
C20 C 0.2402(6) 0.2565(3) 0.0910(3)
C21 C 0.4694(6) 0.3205(4) 0.4345(4)
H13 H 0.5372 0.3235 0.4313
H14 H 0.4420 0.3126 0.4031
H15 H 0.4436 0.3510 0.4461
C22 C 0.4467(5) 0.2803(3) 0.4708(3)
C23 C 0.4536(6) 0.2255(3) 0.5217(4)
H16 H 0.4764 0.2011 0.5426
Zn3 Zn 0.25858(7) 0.20073(3) 0.54695(4)
Zn4 Zn 0.35295(6) 0.25370(3) 0.00352(4)
Zn5 Zn 0.14705(6) 0.75370(3) 0.49648(4)
Zn6 Zn 0.35295(6) 0.74630(3) 0.50352(4)
O9 O 0.6795(4) 0.3252(2) 0.5012(4)
O10 O 0.6683(4) 0.1814(2) 0.4934(4)
O11 O 0.6797(5) 0.2580(3) 0.4252(2)
O12 O 0.6708(5) 0.2496(3) 0.5688(2)
N4 N 0.1350(5) 0.2654(3) 0.4851(2)
Zn7 Zn 0.14705(6) 0.24630(3) 0.99648(4)
Zn1_2 Zn 0.75858(7) 0.29927(3) 0.04695(4)
S1_2 S 0.9074(2) 0.47526(10) 0.0298(2)
S2_2 S 0.88776(18) 0.58646(9) 0.01750(19)
S3_2 S 0.9050(3) 0.2854(3) 0.22408(13)
S4_2 S 0.8874(2) 0.2681(3) 0.33579(12)
O1_2 O 0.7368(5) 0.3680(2) 0.0322(3)
O2_2 O 0.8856(7) 0.3751(3) 0.0402(6)
O3_2 O 0.6795(4) 0.6748(2) 0.0012(4)
O4_2 O 0.8317(4) 0.6814(2) 0.0066(4)
O5_2 O 0.7365(6) 0.2876(3) 0.1149(2)
O6_2 O 0.8832(9) 0.2958(6) 0.1241(4)
O8_2 O 0.8292(5) 0.2504(3) 0.4312(2)
N1_2 N 0.6418(4) 0.2700(2) 0.0192(2)
N3_2 N 0.4926(4) 0.2541(2) 0.0040(3)
C1_2 C 0.8101(8) 0.3912(4) 0.0328(5)
C2_2 C 0.7990(7) 0.4446(4) 0.0260(5)
C3_2 C 0.7287(7) 0.4738(3) 0.0189(5)
C4_2 C 0.7547(8) 0.5231(3) 0.0157(5)
C5_2 C 0.8500(8) 0.5282(4) 0.0208(5)
C6_2 C 0.7096(7) 0.5709(3) 0.0102(6)
C7_2 C 0.7717(7) 0.6052(3) 0.0099(4)
C8_2 C 0.6283(10) 0.4601(5) 0.0177(7)
H1_2 H 0.6216 0.4258 0.0201
H2_2 H 0.6036 0.4750 0.0462
C9_2 C 0.6111(7) 0.5765(4) 0.0043(7)
H4_2 H 0.5809 0.5449 0.0060
H5_2 H 0.5868 0.5972 0.0299
C10_2 C 0.7595(6) 0.6586(2) 0.0056(3)
C11_2 C 0.8059(9) 0.2878(7) 0.1400(4)
C12_2 C 0.7965(9) 0.2794(7) 0.1923(4)
C13_2 C 0.7263(8) 0.2742(6) 0.2224(4)
C14_2 C 0.7556(8) 0.2704(5) 0.2730(3)
C15_2 C 0.8473(9) 0.2686(9) 0.2781(4)
C16_2 C 0.7097(7) 0.2661(7) 0.3184(4)
C17_2 C 0.7723(6) 0.2604(5) 0.3558(3)
C18_2 C 0.6206(12) 0.2689(9) 0.2108(7)
H7_2 H 0.5857 0.2656 0.2410
H8_2 H 0.5988 0.2974 0.1934
H9_2 H 0.6106 0.2402 0.1909
C19_2 C 0.6099(8) 0.2621(7) 0.3279(5)
H10_2 H 0.5997 0.2597 0.3628
H11_2 H 0.5778 0.2907 0.3154
H12_2 H 0.5851 0.2334 0.3119
C20_2 C 0.7598(6) 0.2565(3) 0.4090(3)
C21_2 C 0.5306(6) 0.3205(4) 0.0655(4)
H13_2 H 0.4628 0.3235 0.0687
H14_2 H 0.5580 0.3126 0.0969
H15_2 H 0.5564 0.3510 0.0539
C22_2 C 0.5533(5) 0.2803(3) 0.0292(3)
Zn5_2 Zn 0.85295(6) 0.75370(3) 0.00352(4)
Zn7_2 Zn 0.85295(6) 0.24630(3) 0.50352(4)
O10_2 O 0.3317(4) 0.1814(2) 0.0066(4)
N4_2 N 0.8650(5) 0.2654(3) 0.0149(2)
N2_2 N 0.6350(5) 0.2346(3) 0.9851(2)
H3_2 H 0.5950 0.4715 0.9899
H6_2 H 0.5981 0.5912 0.9728
C23_2 C 0.5464(6) 0.2255(3) 0.9783(4)
H16_2 H 0.5236 0.2011 0.9574
Zn3_2 Zn 0.74142(7) 0.20073(3) 0.95305(4)
Zn6_2 Zn 0.64705(6) 0.74630(3) 0.99648(4)
O9_2 O 0.3205(4) 0.3252(2) 0.9988(4)
O12_2 O 0.3292(5) 0.2496(3) 0.9312(2)
N3_3 N 0.0074(4) 0.7541(2) 0.4960(3)
H13_3 H 0.0372 0.8235 0.4313
O9_3 O 0.1795(4) 0.8252(2) 0.5012(4)
O11_2 O 0.1797(5) 0.7580(3) 0.4252(2)
O12_3 O 0.1708(5) 0.7496(3) 0.5688(2)
S2_3 S 0.61224(18) 0.08646(9) 0.48250(19)
O3_3 O 0.8205(4) 0.1748(2) 0.4988(4)
C4_3 C 0.7453(8) 0.0231(3) 0.4843(5)
C5_3 C 0.6500(8) 0.0282(4) 0.4792(5)
C6_3 C 0.7904(7) 0.0709(3) 0.4898(6)
C7_3 C 0.7283(7) 0.1052(3) 0.4901(4)
C9_3 C 0.8889(7) 0.0765(4) 0.4957(7)
H4_3 H 0.9191 0.0449 0.4940
H5_3 H 0.9132 0.0972 0.4701
H6_3 H 0.9019 0.0912 0.5272
C10_3 C 0.7405(6) 0.1586(2) 0.4944(3)
Zn1_3 Zn 0.74142(7) 0.79927(3) 0.45305(4)
S1_3 S 0.5926(2) 0.97526(10) 0.4702(2)
S3_3 S 0.5950(3) 0.7854(3) 0.27592(13)
S4_3 S 0.6126(2) 0.7681(3) 0.16421(12)
O1_3 O 0.7632(5) 0.8680(2) 0.4678(3)
O2_3 O 0.6144(7) 0.8751(3) 0.4598(6)
O5_3 O 0.7635(6) 0.7876(3) 0.3851(2)
O6_3 O 0.6168(9) 0.7958(6) 0.3759(4)
O7_2 O 0.8203(5) 0.7580(3) 0.0748(2)
O8_3 O 0.6708(5) 0.7504(3) 0.0688(2)
N1_3 N 0.8582(4) 0.7700(2) 0.4808(2)
N2_3 N 0.8650(5) 0.7346(3) 0.5149(2)
C1_3 C 0.6899(8) 0.8912(4) 0.4672(5)
C2_3 C 0.7010(7) 0.9446(4) 0.4740(5)
C3_3 C 0.7713(7) 0.9738(3) 0.4811(5)
C8_3 C 0.8717(10) 0.9601(5) 0.4823(7)
H1_3 H 0.8784 0.9258 0.4799
H2_3 H 0.8964 0.9750 0.4538
H3_3 H 0.9050 0.9715 0.5101
C11_3 C 0.6941(9) 0.7878(7) 0.3600(4)
C12_3 C 0.7035(9) 0.7794(7) 0.3077(4)
C13_3 C 0.7737(8) 0.7742(6) 0.2776(4)
C14_3 C 0.7444(8) 0.7704(5) 0.2270(3)
C15_3 C 0.6527(9) 0.7686(9) 0.2219(4)
C16_3 C 0.7903(7) 0.7661(7) 0.1816(4)
C17_3 C 0.7277(6) 0.7604(5) 0.1442(3)
C18_3 C 0.8794(12) 0.7689(9) 0.2892(7)
H7_3 H 0.9143 0.7656 0.2590
H8_3 H 0.9012 0.7974 0.3066
H9_3 H 0.8894 0.7402 0.3091
C19_3 C 0.8901(8) 0.7621(7) 0.1721(5)
H10_3 H 0.9003 0.7597 0.1372
H11_3 H 0.9222 0.7907 0.1846
H12_3 H 0.9149 0.7334 0.1881
C20_3 C 0.7402(6) 0.7565(3) 0.0910(3)
C21_3 C 0.9694(6) 0.8205(4) 0.4345(4)
H14_3 H 0.9420 0.8126 0.4031
H15_3 H 0.9436 0.8510 0.4461
C22_3 C 0.9467(5) 0.7803(3) 0.4708(3)
C23_3 C 0.9536(6) 0.7255(3) 0.5217(4)
H16_3 H 0.9764 0.7011 0.5426
Zn3_3 Zn 0.75858(7) 0.70073(3) 0.54695(4)
N4_3 N 0.6350(5) 0.7654(3) 0.4851(2)
S2_4 S 0.38776(18) 0.08646(9) 0.01750(19)
O3_4 O 0.1795(4) 0.1748(2) 0.0012(4)
C4_4 C 0.2547(8) 0.0231(3) 0.0157(5)
C5_4 C 0.3500(8) 0.0282(4) 0.0208(5)
C6_4 C 0.2096(7) 0.0709(3) 0.0102(6)
C7_4 C 0.2717(7) 0.1052(3) 0.0099(4)
C9_4 C 0.1111(7) 0.0765(4) 0.0043(7)
H4_4 H 0.0809 0.0449 0.0060
H5_4 H 0.0868 0.0972 0.0299
C10_4 C 0.2595(6) 0.1586(2) 0.0056(3)
H6_4 H 0.0981 0.0912 0.9728
Zn1_4 Zn 0.25858(7) 0.79927(3) 0.04695(4)
S1_4 S 0.4074(2) 0.97526(10) 0.0298(2)
S3_4 S 0.4050(3) 0.7854(3) 0.22408(13)
S4_4 S 0.3874(2) 0.7681(3) 0.33579(12)
O1_4 O 0.2368(5) 0.8680(2) 0.0322(3)
O2_4 O 0.3856(7) 0.8751(3) 0.0402(6)
O5_4 O 0.2365(6) 0.7876(3) 0.1149(2)
O6_4 O 0.3832(9) 0.7958(6) 0.1241(4)
O8_4 O 0.3292(5) 0.7504(3) 0.4312(2)
N1_4 N 0.1418(4) 0.7700(2) 0.0192(2)
C1_4 C 0.3101(8) 0.8912(4) 0.0328(5)
C2_4 C 0.2990(7) 0.9446(4) 0.0260(5)
C3_4 C 0.2287(7) 0.9738(3) 0.0189(5)
C8_4 C 0.1283(10) 0.9601(5) 0.0177(7)
H1_4 H 0.1216 0.9258 0.0201
H2_4 H 0.1036 0.9750 0.0462
C11_4 C 0.3059(9) 0.7878(7) 0.1400(4)
C12_4 C 0.2965(9) 0.7794(7) 0.1923(4)
C13_4 C 0.2263(8) 0.7742(6) 0.2224(4)
C14_4 C 0.2556(8) 0.7704(5) 0.2730(3)
C15_4 C 0.3473(9) 0.7686(9) 0.2781(4)
C16_4 C 0.2097(7) 0.7661(7) 0.3184(4)
C17_4 C 0.2723(6) 0.7604(5) 0.3558(3)
C18_4 C 0.1206(12) 0.7689(9) 0.2108(7)
H7_4 H 0.0857 0.7656 0.2410
H8_4 H 0.0988 0.7974 0.1934
H9_4 H 0.1106 0.7402 0.1909
C19_4 C 0.1099(8) 0.7621(7) 0.3279(5)
H10_4 H 0.0997 0.7597 0.3628
H11_4 H 0.0778 0.7907 0.3154
H12_4 H 0.0851 0.7334 0.3119
C20_4 C 0.2598(6) 0.7565(3) 0.4090(3)
C21_4 C 0.0306(6) 0.8205(4) 0.0655(4)
H14_4 H 0.0580 0.8126 0.0969
H15_4 H 0.0564 0.8510 0.0539
C22_4 C 0.0533(5) 0.7803(3) 0.0292(3)
N4_4 N 0.3650(5) 0.7654(3) 0.0149(2)
N2_4 N 0.1350(5) 0.7346(3) 0.9851(2)
H3_4 H 0.0950 0.9715 0.9899
C23_4 C 0.0464(6) 0.7255(3) 0.9783(4)
H16_4 H 0.0236 0.7011 0.9574
Zn3_4 Zn 0.24142(7) 0.70073(3) 0.95305(4)
N3_4 N 0.9926(4) 0.7541(2) 0.0040(3)
H13_4 H 0.9628 0.8235 0.0687
O9_4 O 0.8205(4) 0.8252(2) 0.9988(4)
O12_4 O 0.8292(5) 0.7496(3) 0.9312(2)
S1_5 S 0.9074(2) 0.52474(10) 0.5298(2)
S2_5 S 0.88776(18) 0.41354(9) 0.51750(19)
S3_5 S 0.9050(3) 0.7146(3) 0.72408(13)
S4_5 S 0.8874(2) 0.7319(3) 0.83579(12)
O1_5 O 0.7368(5) 0.6320(2) 0.5322(3)
O2_5 O 0.8856(7) 0.6249(3) 0.5402(6)
O4_3 O 0.8317(4) 0.3186(2) 0.5066(4)
O5_5 O 0.7365(6) 0.7124(3) 0.6149(2)
O6_5 O 0.8832(9) 0.7042(6) 0.6241(4)
O7_3 O 0.6797(5) 0.7420(3) 0.9252(2)
N1_5 N 0.6418(4) 0.7300(2) 0.5192(2)
N3_5 N 0.4926(4) 0.7459(2) 0.5040(3)
C1_5 C 0.8101(8) 0.6088(4) 0.5328(5)
C2_5 C 0.7990(7) 0.5554(4) 0.5260(5)
C3_5 C 0.7287(7) 0.5262(3) 0.5189(5)
C4_5 C 0.7547(8) 0.4769(3) 0.5157(5)
C5_5 C 0.8500(8) 0.4718(4) 0.5208(5)
C6_5 C 0.7096(7) 0.4291(3) 0.5102(6)
C7_5 C 0.7717(7) 0.3948(3) 0.5099(4)
C8_5 C 0.6283(10) 0.5399(5) 0.5177(7)
H1_5 H 0.6216 0.5742 0.5201
H2_5 H 0.6036 0.5250 0.5462
H3_5 H 0.5950 0.5285 0.4899
C9_5 C 0.6111(7) 0.4235(4) 0.5043(7)
H4_5 H 0.5809 0.4551 0.5060
H5_5 H 0.5868 0.4028 0.5299
H6_5 H 0.5981 0.4088 0.4728
C10_5 C 0.7595(6) 0.3414(2) 0.5056(3)
C11_5 C 0.8059(9) 0.7122(7) 0.6400(4)
C12_5 C 0.7965(9) 0.7206(7) 0.6923(4)
C13_5 C 0.7263(8) 0.7258(6) 0.7224(4)
C14_5 C 0.7556(8) 0.7296(5) 0.7730(3)
C15_5 C 0.8473(9) 0.7314(9) 0.7781(4)
C16_5 C 0.7097(7) 0.7339(7) 0.8184(4)
C17_5 C 0.7723(6) 0.7396(5) 0.8558(3)
C18_5 C 0.6206(12) 0.7311(9) 0.7108(7)
H7_5 H 0.5857 0.7344 0.7410
H8_5 H 0.5988 0.7026 0.6934
H9_5 H 0.6106 0.7598 0.6909
C19_5 C 0.6099(8) 0.7379(7) 0.8279(5)
H10_5 H 0.5997 0.7403 0.8628
H11_5 H 0.5778 0.7093 0.8154
H12_5 H 0.5851 0.7666 0.8119
C20_5 C 0.7598(6) 0.7435(3) 0.9090(3)
C21_5 C 0.5306(6) 0.6795(4) 0.5655(4)
H13_5 H 0.4628 0.6765 0.5687
H14_5 H 0.5580 0.6874 0.5969
H15_5 H 0.5564 0.6490 0.5539
C22_5 C 0.5533(5) 0.7197(3) 0.5292(3)
C23_5 C 0.5464(6) 0.7745(3) 0.4783(4)
H16_5 H 0.5236 0.7989 0.4574
O10_3 O 0.3317(4) 0.8186(2) 0.5066(4)
O11_3 O 0.3203(5) 0.7420(3) 0.5748(2)
H3_6 H 0.4050 0.5285 0.0101
H6_6 H 0.4019 0.4088 0.0272
C23_6 C 0.4536(6) 0.7745(3) 0.0217(4)
H16_6 H 0.4764 0.7989 0.0426
S1_6 S 0.0926(2) 0.52474(10) 0.9702(2)
S2_6 S 0.11224(18) 0.41354(9) 0.98250(19)
S3_6 S 0.0950(3) 0.7146(3) 0.77592(13)
S4_6 S 0.1126(2) 0.7319(3) 0.66421(12)
O1_6 O 0.2632(5) 0.6320(2) 0.9678(3)
O2_6 O 0.1144(7) 0.6249(3) 0.9598(6)
O4_4 O 0.1683(4) 0.3186(2) 0.9934(4)
O5_6 O 0.2635(6) 0.7124(3) 0.8851(2)
O6_6 O 0.1168(9) 0.7042(6) 0.8759(4)
N1_6 N 0.3582(4) 0.7300(2) 0.9808(2)
N3_6 N 0.5074(4) 0.7459(2) 0.9960(3)
C1_6 C 0.1899(8) 0.6088(4) 0.9672(5)
C2_6 C 0.2010(7) 0.5554(4) 0.9740(5)
C3_6 C 0.2713(7) 0.5262(3) 0.9811(5)
C4_6 C 0.2453(8) 0.4769(3) 0.9843(5)
C5_6 C 0.1500(8) 0.4718(4) 0.9792(5)
C6_6 C 0.2904(7) 0.4291(3) 0.9898(6)
C7_6 C 0.2283(7) 0.3948(3) 0.9901(4)
C8_6 C 0.3717(10) 0.5399(5) 0.9823(7)
H1_6 H 0.3784 0.5742 0.9799
H2_6 H 0.3964 0.5250 0.9538
C9_6 C 0.3889(7) 0.4235(4) 0.9957(7)
H4_6 H 0.4191 0.4551 0.9940
H5_6 H 0.4132 0.4028 0.9701
C10_6 C 0.2405(6) 0.3414(2) 0.9944(3)
C11_6 C 0.1941(9) 0.7122(7) 0.8600(4)
C12_6 C 0.2035(9) 0.7206(7) 0.8077(4)
C13_6 C 0.2737(8) 0.7258(6) 0.7776(4)
C14_6 C 0.2444(8) 0.7296(5) 0.7270(3)
C15_6 C 0.1527(9) 0.7314(9) 0.7219(4)
C16_6 C 0.2903(7) 0.7339(7) 0.6816(4)
C17_6 C 0.2277(6) 0.7396(5) 0.6442(3)
C18_6 C 0.3794(12) 0.7311(9) 0.7892(7)
H7_6 H 0.4143 0.7344 0.7590
H8_6 H 0.4012 0.7026 0.8066
H9_6 H 0.3894 0.7598 0.8091
C19_6 C 0.3901(8) 0.7379(7) 0.6721(5)
H10_6 H 0.4003 0.7403 0.6372
H11_6 H 0.4222 0.7093 0.6846
H12_6 H 0.4149 0.7666 0.6881
C20_6 C 0.2402(6) 0.7435(3) 0.5910(3)
C21_6 C 0.4694(6) 0.6795(4) 0.9345(4)
H13_6 H 0.5372 0.6765 0.9313
H14_6 H 0.4420 0.6874 0.9031
H15_6 H 0.4436 0.6490 0.9461
C22_6 C 0.4467(5) 0.7197(3) 0.9708(3)
O10_4 O 0.6683(4) 0.8186(2) 0.9934(4)
S1_7 S 0.4074(2) 0.02474(10) 0.5298(2)
S3_7 S 0.4050(3) 0.2146(3) 0.72408(13)
S4_7 S 0.3874(2) 0.2319(3) 0.83579(12)
O1_7 O 0.2368(5) 0.1320(2) 0.5322(3)
O2_7 O 0.3856(7) 0.1249(3) 0.5402(6)
O5_7 O 0.2365(6) 0.2124(3) 0.6149(2)
O6_7 O 0.3832(9) 0.2042(6) 0.6241(4)
O7_4 O 0.1797(5) 0.2420(3) 0.9252(2)
N1_7 N 0.1418(4) 0.2300(2) 0.5192(2)
C1_7 C 0.3101(8) 0.1088(4) 0.5328(5)
C2_7 C 0.2990(7) 0.0554(4) 0.5260(5)
C3_7 C 0.2287(7) 0.0262(3) 0.5189(5)
C8_7 C 0.1283(10) 0.0399(5) 0.5177(7)
H1_7 H 0.1216 0.0742 0.5201
H2_7 H 0.1036 0.0250 0.5462
H3_7 H 0.0950 0.0285 0.4899
C11_7 C 0.3059(9) 0.2122(7) 0.6400(4)
C12_7 C 0.2965(9) 0.2206(7) 0.6923(4)
C13_7 C 0.2263(8) 0.2258(6) 0.7224(4)
C14_7 C 0.2556(8) 0.2296(5) 0.7730(3)
C15_7 C 0.3473(9) 0.2314(9) 0.7781(4)
C16_7 C 0.2097(7) 0.2339(7) 0.8184(4)
C17_7 C 0.2723(6) 0.2396(5) 0.8558(3)
C18_7 C 0.1206(12) 0.2311(9) 0.7108(7)
H7_7 H 0.0857 0.2344 0.7410
H8_7 H 0.0988 0.2026 0.6934
H9_7 H 0.1106 0.2598 0.6909
C19_7 C 0.1099(8) 0.2379(7) 0.8279(5)
H10_7 H 0.0997 0.2403 0.8628
H11_7 H 0.0778 0.2093 0.8154
H12_7 H 0.0851 0.2666 0.8119
C20_7 C 0.2598(6) 0.2435(3) 0.9090(3)
C21_7 C 0.0306(6) 0.1795(4) 0.5655(4)
H14_7 H 0.0580 0.1874 0.5969
H15_7 H 0.0564 0.1490 0.5539
C22_7 C 0.0533(5) 0.2197(3) 0.5292(3)
C23_7 C 0.0464(6) 0.2745(3) 0.4783(4)
H16_7 H 0.0236 0.2989 0.4574
S2_7 S 0.38776(18) 0.91354(9) 0.51750(19)
C4_7 C 0.2547(8) 0.9769(3) 0.5157(5)
C5_7 C 0.3500(8) 0.9718(4) 0.5208(5)
C6_7 C 0.2096(7) 0.9291(3) 0.5102(6)
C7_7 C 0.2717(7) 0.8948(3) 0.5099(4)
C9_7 C 0.1111(7) 0.9235(4) 0.5043(7)
H4_7 H 0.0809 0.9551 0.5060
H5_7 H 0.0868 0.9028 0.5299
H6_7 H 0.0981 0.9088 0.4728
C10_7 C 0.2595(6) 0.8414(2) 0.5056(3)
N3_7 N 0.9926(4) 0.2459(2) 0.5040(3)
H13_7 H 0.9628 0.1765 0.5687
O11_4 O 0.8203(5) 0.2420(3) 0.5748(2)
N3_8 N 0.0074(4) 0.2459(2) 0.9960(3)
H13_8 H 0.0372 0.1765 0.9313
H3_8 H 0.9050 0.0285 0.0101
C23_8 C 0.9536(6) 0.2745(3) 0.0217(4)
H16_8 H 0.9764 0.2989 0.0426
S1_8 S 0.5926(2) 0.02474(10) 0.9702(2)
S3_8 S 0.5950(3) 0.2146(3) 0.77592(13)
S4_8 S 0.6126(2) 0.2319(3) 0.66421(12)
O1_8 O 0.7632(5) 0.1320(2) 0.9678(3)
O2_8 O 0.6144(7) 0.1249(3) 0.9598(6)
O5_8 O 0.7635(6) 0.2124(3) 0.8851(2)
O6_8 O 0.6168(9) 0.2042(6) 0.8759(4)
N1_8 N 0.8582(4) 0.2300(2) 0.9808(2)
C1_8 C 0.6899(8) 0.1088(4) 0.9672(5)
C2_8 C 0.7010(7) 0.0554(4) 0.9740(5)
C3_8 C 0.7713(7) 0.0262(3) 0.9811(5)
C8_8 C 0.8717(10) 0.0399(5) 0.9823(7)
H1_8 H 0.8784 0.0742 0.9799
H2_8 H 0.8964 0.0250 0.9538
C11_8 C 0.6941(9) 0.2122(7) 0.8600(4)
C12_8 C 0.7035(9) 0.2206(7) 0.8077(4)
C13_8 C 0.7737(8) 0.2258(6) 0.7776(4)
C14_8 C 0.7444(8) 0.2296(5) 0.7270(3)
C15_8 C 0.6527(9) 0.2314(9) 0.7219(4)
C16_8 C 0.7903(7) 0.2339(7) 0.6816(4)
C17_8 C 0.7277(6) 0.2396(5) 0.6442(3)
C18_8 C 0.8794(12) 0.2311(9) 0.7892(7)
H7_8 H 0.9143 0.2344 0.7590
H8_8 H 0.9012 0.2026 0.8066
H9_8 H 0.8894 0.2598 0.8091
C19_8 C 0.8901(8) 0.2379(7) 0.6721(5)
H10_8 H 0.9003 0.2403 0.6372
H11_8 H 0.9222 0.2093 0.6846
H12_8 H 0.9149 0.2666 0.6881
C20_8 C 0.7402(6) 0.2435(3) 0.5910(3)
C21_8 C 0.9694(6) 0.1795(4) 0.9345(4)
H14_8 H 0.9420 0.1874 0.9031
H15_8 H 0.9436 0.1490 0.9461
C22_8 C 0.9467(5) 0.2197(3) 0.9708(3)
H6_8 H 0.9019 0.9088 0.0272
S2_8 S 0.61224(18) 0.91354(9) 0.98250(19)
C4_8 C 0.7453(8) 0.9769(3) 0.9843(5)
C5_8 C 0.6500(8) 0.9718(4) 0.9792(5)
C6_8 C 0.7904(7) 0.9291(3) 0.9898(6)
C7_8 C 0.7283(7) 0.8948(3) 0.9901(4)
C9_8 C 0.8889(7) 0.9235(4) 0.9957(7)
H4_8 H 0.9191 0.9551 0.9940
H5_8 H 0.9132 0.9028 0.9701
C10_8 C 0.7405(6) 0.8414(2) 0.9944(3)
loop_
_geom_bond_atom_site_label_1
_geom_bond_atom_site_label_2
_geom_bond_site_symmetry_1
_geom_bond_site_symmetry_2
Zn1 O1 1_555 1_555
Zn2 N3 1_555 1_555
S1 C2 1_555 1_555
S2 C5 1_555 1_555
S3 C12 1_555 1_555
S4 C15 1_555 1_555
O1 C1 1_555 1_555
O2 C1 1_555 1_555
O3 C10 1_555 1_555
O4 C10 1_555 1_555
O5 Zn1 1_555 1_555
O6 C11 1_555 1_555
O7 C20 1_555 1_555
O8 C20 1_555 1_555
N1 Zn1 1_555 1_555
N2 N1 1_555 1_555
N3 C22 1_555 1_555
C1 C2 1_555 1_555
C2 C3 1_555 1_555
C3 C4 1_555 1_555
C4 C5 1_555 1_555
C5 S1 1_555 1_555
C6 C4 1_555 1_555
C7 S2 1_555 1_555
C8 C3 1_555 1_555
H1 C8 1_555 1_555
H2 C8 1_555 1_555
H3 C8 1_555 1_555
C9 C6 1_555 1_555
H4 C9 1_555 1_555
H5 C9 1_555 1_555
H6 C9 1_555 1_555
C10 C7 1_555 1_555
C11 O5 1_555 1_555
C12 C11 1_555 1_555
C13 C12 1_555 1_555
C14 C13 1_555 1_555
C15 S3 1_555 1_555
C16 C14 1_555 1_555
C17 S4 1_555 1_555
C18 C13 1_555 1_555
H7 C18 1_555 1_555
H8 C18 1_555 1_555
H9 C18 1_555 1_555
C19 C16 1_555 1_555
H10 C19 1_555 1_555
H11 C19 1_555 1_555
H12 C19 1_555 1_555
C20 C17 1_555 1_555
C21 H13 1_555 1_555
H14 C21 1_555 1_555
H15 C21 1_555 1_555
C22 N1 1_555 1_555
C23 N2 1_555 1_555
H16 C23 1_555 1_555
Zn3 N2 1_555 1_555
Zn4 O7 1_555 1_555
Zn5 O4 1_555 1_555
Zn6 O3 1_555 1_555
O9 Zn2 1_555 1_555
O10 Zn2 1_555 1_555
O11 Zn2 1_555 1_555
O12 Zn2 1_555 1_555
N4 Zn1 1_555 1_555
N3 C23 1_555 1_555
C6 C7 1_555 1_555
C14 C15 1_555 1_555
C16 C17 1_555 1_555
C21 C22 1_555 1_555
Zn1_2 O1_2 1_555 1_555
Zn4 N3_2 1_555 1_555
S1_2 C2_2 1_555 1_555
S2_2 C5_2 1_555 1_555
S3_2 C12_2 1_555 1_555
S4_2 C15_2 1_555 1_555
O1_2 C1_2 1_555 1_555
O2_2 C1_2 1_555 1_555
O3_2 C10_2 1_555 1_555
O4_2 C10_2 1_555 1_555
O5_2 Zn1_2 1_555 1_555
O6_2 C11_2 1_555 1_555
O11 C20_2 1_555 1_555
O8_2 C20_2 1_555 1_555
N1_2 Zn1_2 1_555 1_555
N3_2 C22_2 1_555 1_555
C1_2 C2_2 1_555 1_555
C2_2 C3_2 1_555 1_555
C3_2 C4_2 1_555 1_555
C4_2 C5_2 1_555 1_555
C5_2 S1_2 1_555 1_555
C6_2 C4_2 1_555 1_555
C7_2 S2_2 1_555 1_555
C8_2 C3_2 1_555 1_555
H1_2 C8_2 1_555 1_555
H2_2 C8_2 1_555 1_555
C9_2 C6_2 1_555 1_555
H4_2 C9_2 1_555 1_555
H5_2 C9_2 1_555 1_555
C10_2 C7_2 1_555 1_555
C11_2 O5_2 1_555 1_555
C12_2 C11_2 1_555 1_555
C13_2 C12_2 1_555 1_555
C14_2 C13_2 1_555 1_555
C15_2 S3_2 1_555 1_555
C16_2 C14_2 1_555 1_555
C17_2 S4_2 1_555 1_555
C18_2 C13_2 1_555 1_555
H7_2 C18_2 1_555 1_555
H8_2 C18_2 1_555 1_555
H9_2 C18_2 1_555 1_555
C19_2 C16_2 1_555 1_555
H10_2 C19_2 1_555 1_555
H11_2 C19_2 1_555 1_555
H12_2 C19_2 1_555 1_555
C20_2 C17_2 1_555 1_555
C21_2 H13_2 1_555 1_555
H14_2 C21_2 1_555 1_555
H15_2 C21_2 1_555 1_555
C22_2 N1_2 1_555 1_555
Zn5_2 O4_2 1_555 1_555
Zn7_2 O8_2 1_555 1_555
O10_2 Zn4 1_555 1_555
N4_2 Zn1_2 1_555 1_555
C6_2 C7_2 1_555 1_555
C14_2 C15_2 1_555 1_555
C16_2 C17_2 1_555 1_555
C21_2 C22_2 1_555 1_555
C23_2 N2_2 1_555 1_555
H16_2 C23_2 1_555 1_555
Zn3_2 N2_2 1_555 1_555
Zn5 N3_3 1_555 1_555
O9_3 Zn5 1_555 1_555
O11_2 Zn5 1_555 1_555
O12_3 Zn5 1_555 1_555
S2_3 C5_3 1_555 1_555
O3_3 C10_3 1_555 1_555
O10 C10_3 1_555 1_555
C4_3 C5_3 1_555 1_555
C6_3 C4_3 1_555 1_555
C7_3 S2_3 1_555 1_555
C9_3 C6_3 1_555 1_555
H4_3 C9_3 1_555 1_555
H5_3 C9_3 1_555 1_555
H6_3 C9_3 1_555 1_555
C10_3 C7_3 1_555 1_555
Zn7_2 O3_3 1_555 1_555
C6_3 C7_3 1_555 1_555
Zn1_3 O1_3 1_555 1_555
S1_3 C2_3 1_555 1_555
S3_3 C12_3 1_555 1_555
S4_3 C15_3 1_555 1_555
O1_3 C1_3 1_555 1_555
O2_3 C1_3 1_555 1_555
O5_3 Zn1_3 1_555 1_555
O6_3 C11_3 1_555 1_555
O7_2 C20_3 1_555 1_555
O8_3 C20_3 1_555 1_555
N1_3 Zn1_3 1_555 1_555
N2_3 N1_3 1_555 1_555
C1_3 C2_3 1_555 1_555
C2_3 C3_3 1_555 1_555
C8_3 C3_3 1_555 1_555
H1_3 C8_3 1_555 1_555
H2_3 C8_3 1_555 1_555
H3_3 C8_3 1_555 1_555
C11_3 O5_3 1_555 1_555
C12_3 C11_3 1_555 1_555
C13_3 C12_3 1_555 1_555
C14_3 C13_3 1_555 1_555
C15_3 S3_3 1_555 1_555
C16_3 C14_3 1_555 1_555
C17_3 S4_3 1_555 1_555
C18_3 C13_3 1_555 1_555
H7_3 C18_3 1_555 1_555
H8_3 C18_3 1_555 1_555
H9_3 C18_3 1_555 1_555
C19_3 C16_3 1_555 1_555
H10_3 C19_3 1_555 1_555
H11_3 C19_3 1_555 1_555
H12_3 C19_3 1_555 1_555
C20_3 C17_3 1_555 1_555
H14_3 C21_3 1_555 1_555
H15_3 C21_3 1_555 1_555
C22_3 N1_3 1_555 1_555
C23_3 N2_3 1_555 1_555
H16_3 C23_3 1_555 1_555
Zn3_3 N2_3 1_555 1_555
Zn5_2 O7_2 1_555 1_555
N4_3 Zn1_3 1_555 1_555
C14_3 C15_3 1_555 1_555
C16_3 C17_3 1_555 1_555
C21_3 C22_3 1_555 1_555
S2_4 C5_4 1_555 1_555
O3_4 C10_4 1_555 1_555
O10_2 C10_4 1_555 1_555
C4_4 C5_4 1_555 1_555
C6_4 C4_4 1_555 1_555
C7_4 S2_4 1_555 1_555
C9_4 C6_4 1_555 1_555
H4_4 C9_4 1_555 1_555
H5_4 C9_4 1_555 1_555
C10_4 C7_4 1_555 1_555
C6_4 C7_4 1_555 1_555
Zn1_4 O1_4 1_555 1_555
S1_4 C2_4 1_555 1_555
S3_4 C12_4 1_555 1_555
S4_4 C15_4 1_555 1_555
O1_4 C1_4 1_555 1_555
O2_4 C1_4 1_555 1_555
O5_4 Zn1_4 1_555 1_555
O6_4 C11_4 1_555 1_555
O11_2 C20_4 1_555 1_555
O8_4 C20_4 1_555 1_555
N1_4 Zn1_4 1_555 1_555
C1_4 C2_4 1_555 1_555
C2_4 C3_4 1_555 1_555
C8_4 C3_4 1_555 1_555
H1_4 C8_4 1_555 1_555
H2_4 C8_4 1_555 1_555
C11_4 O5_4 1_555 1_555
C12_4 C11_4 1_555 1_555
C13_4 C12_4 1_555 1_555
C14_4 C13_4 1_555 1_555
C15_4 S3_4 1_555 1_555
C16_4 C14_4 1_555 1_555
C17_4 S4_4 1_555 1_555
C18_4 C13_4 1_555 1_555
H7_4 C18_4 1_555 1_555
H8_4 C18_4 1_555 1_555
H9_4 C18_4 1_555 1_555
C19_4 C16_4 1_555 1_555
H10_4 C19_4 1_555 1_555
H11_4 C19_4 1_555 1_555
H12_4 C19_4 1_555 1_555
C20_4 C17_4 1_555 1_555
H14_4 C21_4 1_555 1_555
H15_4 C21_4 1_555 1_555
C22_4 N1_4 1_555 1_555
Zn6 O8_4 1_555 1_555
N4_4 Zn1_4 1_555 1_555
C14_4 C15_4 1_555 1_555
C16_4 C17_4 1_555 1_555
C21_4 C22_4 1_555 1_555
C23_4 N2_4 1_555 1_555
H16_4 C23_4 1_555 1_555
Zn3_4 N2_4 1_555 1_555
Zn5_2 N3_4 1_555 1_555
Zn3_3 O1_5 1_555 1_555
Zn6 N3_5 1_555 1_555
S1_5 C2_5 1_555 1_555
S2_5 C5_5 1_555 1_555
S3_5 C12_5 1_555 1_555
S4_5 C15_5 1_555 1_555
O1_5 C1_5 1_555 1_555
O2_5 C1_5 1_555 1_555
O9 C10_5 1_555 1_555
O4_3 C10_5 1_555 1_555
O5_5 Zn3_3 1_555 1_555
O6_5 C11_5 1_555 1_555
O7_3 C20_5 1_555 1_555
O12_4 C20_5 1_555 1_555
N1_5 Zn3_3 1_555 1_555
N4_3 N1_5 1_555 1_555
N3_5 C22_5 1_555 1_555
C1_5 C2_5 1_555 1_555
C2_5 C3_5 1_555 1_555
C3_5 C4_5 1_555 1_555
C4_5 C5_5 1_555 1_555
C5_5 S1_5 1_555 1_555
C6_5 C4_5 1_555 1_555
C7_5 S2_5 1_555 1_555
C8_5 C3_5 1_555 1_555
H1_5 C8_5 1_555 1_555
H2_5 C8_5 1_555 1_555
H3_5 C8_5 1_555 1_555
C9_5 C6_5 1_555 1_555
H4_5 C9_5 1_555 1_555
H5_5 C9_5 1_555 1_555
H6_5 C9_5 1_555 1_555
C10_5 C7_5 1_555 1_555
C11_5 O5_5 1_555 1_555
C12_5 C11_5 1_555 1_555
C13_5 C12_5 1_555 1_555
C14_5 C13_5 1_555 1_555
C15_5 S3_5 1_555 1_555
C16_5 C14_5 1_555 1_555
C17_5 S4_5 1_555 1_555
C18_5 C13_5 1_555 1_555
H7_5 C18_5 1_555 1_555
H8_5 C18_5 1_555 1_555
H9_5 C18_5 1_555 1_555
C19_5 C16_5 1_555 1_555
H10_5 C19_5 1_555 1_555
H11_5 C19_5 1_555 1_555
H12_5 C19_5 1_555 1_555
C20_5 C17_5 1_555 1_555
C21_5 H13_5 1_555 1_555
H14_5 C21_5 1_555 1_555
H15_5 C21_5 1_555 1_555
C22_5 N1_5 1_555 1_555
C23_5 N4_3 1_555 1_555
H16_5 C23_5 1_555 1_555
Zn6_2 O7_3 1_555 1_555
Zn7_2 O4_3 1_555 1_555
O10_3 Zn6 1_555 1_555
O11_3 Zn6 1_555 1_555
N3_5 C23_5 1_555 1_555
C6_5 C7_5 1_555 1_555
C14_5 C15_5 1_555 1_555
C16_5 C17_5 1_555 1_555
C21_5 C22_5 1_555 1_555
C23_6 N4_4 1_555 1_555
H16_6 C23_6 1_555 1_555
Zn3_4 O1_6 1_555 1_555
Zn6_2 N3_6 1_555 1_555
S1_6 C2_6 1_555 1_555
S2_6 C5_6 1_555 1_555
S3_6 C12_6 1_555 1_555
S4_6 C15_6 1_555 1_555
O1_6 C1_6 1_555 1_555
O2_6 C1_6 1_555 1_555
O9_2 C10_6 1_555 1_555
O4_4 C10_6 1_555 1_555
O5_6 Zn3_4 1_555 1_555
O6_6 C11_6 1_555 1_555
O11_3 C20_6 1_555 1_555
O12_3 C20_6 1_555 1_555
N1_6 Zn3_4 1_555 1_555
N3_6 C22_6 1_555 1_555
C1_6 C2_6 1_555 1_555
C2_6 C3_6 1_555 1_555
C3_6 C4_6 1_555 1_555
C4_6 C5_6 1_555 1_555
C5_6 S1_6 1_555 1_555
C6_6 C4_6 1_555 1_555
C7_6 S2_6 1_555 1_555
C8_6 C3_6 1_555 1_555
H1_6 C8_6 1_555 1_555
H2_6 C8_6 1_555 1_555
C9_6 C6_6 1_555 1_555
H4_6 C9_6 1_555 1_555
H5_6 C9_6 1_555 1_555
C10_6 C7_6 1_555 1_555
C11_6 O5_6 1_555 1_555
C12_6 C11_6 1_555 1_555
C13_6 C12_6 1_555 1_555
C14_6 C13_6 1_555 1_555
C15_6 S3_6 1_555 1_555
C16_6 C14_6 1_555 1_555
C17_6 S4_6 1_555 1_555
C18_6 C13_6 1_555 1_555
H7_6 C18_6 1_555 1_555
H8_6 C18_6 1_555 1_555
H9_6 C18_6 1_555 1_555
C19_6 C16_6 1_555 1_555
H10_6 C19_6 1_555 1_555
H11_6 C19_6 1_555 1_555
H12_6 C19_6 1_555 1_555
C20_6 C17_6 1_555 1_555
C21_6 H13_6 1_555 1_555
H14_6 C21_6 1_555 1_555
H15_6 C21_6 1_555 1_555
C22_6 N1_6 1_555 1_555
Zn7 O4_4 1_555 1_555
O10_4 Zn6_2 1_555 1_555
C6_6 C7_6 1_555 1_555
C14_6 C15_6 1_555 1_555
C16_6 C17_6 1_555 1_555
C21_6 C22_6 1_555 1_555
Zn3 O1_7 1_555 1_555
S1_7 C2_7 1_555 1_555
S3_7 C12_7 1_555 1_555
S4_7 C15_7 1_555 1_555
O1_7 C1_7 1_555 1_555
O2_7 C1_7 1_555 1_555
O5_7 Zn3 1_555 1_555
O6_7 C11_7 1_555 1_555
O7_4 C20_7 1_555 1_555
O12_2 C20_7 1_555 1_555
N1_7 Zn3 1_555 1_555
N4 N1_7 1_555 1_555
C1_7 C2_7 1_555 1_555
C2_7 C3_7 1_555 1_555
C8_7 C3_7 1_555 1_555
H1_7 C8_7 1_555 1_555
H2_7 C8_7 1_555 1_555
H3_7 C8_7 1_555 1_555
C11_7 O5_7 1_555 1_555
C12_7 C11_7 1_555 1_555
C13_7 C12_7 1_555 1_555
C14_7 C13_7 1_555 1_555
C15_7 S3_7 1_555 1_555
C16_7 C14_7 1_555 1_555
C17_7 S4_7 1_555 1_555
C18_7 C13_7 1_555 1_555
H7_7 C18_7 1_555 1_555
H8_7 C18_7 1_555 1_555
H9_7 C18_7 1_555 1_555
C19_7 C16_7 1_555 1_555
H10_7 C19_7 1_555 1_555
H11_7 C19_7 1_555 1_555
H12_7 C19_7 1_555 1_555
C20_7 C17_7 1_555 1_555
H14_7 C21_7 1_555 1_555
H15_7 C21_7 1_555 1_555
C22_7 N1_7 1_555 1_555
C23_7 N4 1_555 1_555
H16_7 C23_7 1_555 1_555
Zn7 O7_4 1_555 1_555
C14_7 C15_7 1_555 1_555
C16_7 C17_7 1_555 1_555
C21_7 C22_7 1_555 1_555
S2_7 C5_7 1_555 1_555
O9_3 C10_7 1_555 1_555
O10_3 C10_7 1_555 1_555
C4_7 C5_7 1_555 1_555
C6_7 C4_7 1_555 1_555
C7_7 S2_7 1_555 1_555
C9_7 C6_7 1_555 1_555
H4_7 C9_7 1_555 1_555
H5_7 C9_7 1_555 1_555
H6_7 C9_7 1_555 1_555
C10_7 C7_7 1_555 1_555
C6_7 C7_7 1_555 1_555
Zn7_2 N3_7 1_555 1_555
O11_4 Zn7_2 1_555 1_555
Zn7 N3_8 1_555 1_555
C23_8 N4_2 1_555 1_555
H16_8 C23_8 1_555 1_555
Zn3_2 O1_8 1_555 1_555
S1_8 C2_8 1_555 1_555
S3_8 C12_8 1_555 1_555
S4_8 C15_8 1_555 1_555
O1_8 C1_8 1_555 1_555
O2_8 C1_8 1_555 1_555
O5_8 Zn3_2 1_555 1_555
O6_8 C11_8 1_555 1_555
O11_4 C20_8 1_555 1_555
O12 C20_8 1_555 1_555
N1_8 Zn3_2 1_555 1_555
C1_8 C2_8 1_555 1_555
C2_8 C3_8 1_555 1_555
C8_8 C3_8 1_555 1_555
H1_8 C8_8 1_555 1_555
H2_8 C8_8 1_555 1_555
C11_8 O5_8 1_555 1_555
C12_8 C11_8 1_555 1_555
C13_8 C12_8 1_555 1_555
C14_8 C13_8 1_555 1_555
C15_8 S3_8 1_555 1_555
C16_8 C14_8 1_555 1_555
C17_8 S4_8 1_555 1_555
C18_8 C13_8 1_555 1_555
H7_8 C18_8 1_555 1_555
H8_8 C18_8 1_555 1_555
H9_8 C18_8 1_555 1_555
C19_8 C16_8 1_555 1_555
H10_8 C19_8 1_555 1_555
H11_8 C19_8 1_555 1_555
H12_8 C19_8 1_555 1_555
C20_8 C17_8 1_555 1_555
H14_8 C21_8 1_555 1_555
H15_8 C21_8 1_555 1_555
C22_8 N1_8 1_555 1_555
C14_8 C15_8 1_555 1_555
C16_8 C17_8 1_555 1_555
C21_8 C22_8 1_555 1_555
S2_8 C5_8 1_555 1_555
O9_4 C10_8 1_555 1_555
O10_4 C10_8 1_555 1_555
C4_8 C5_8 1_555 1_555
C6_8 C4_8 1_555 1_555
C7_8 S2_8 1_555 1_555
C9_8 C6_8 1_555 1_555
H4_8 C9_8 1_555 1_555
H5_8 C9_8 1_555 1_555
C10_8 C7_8 1_555 1_555
C6_8 C7_8 1_555 1_555

#END
