
###############################################################################
#
# This file contains modified crystal structure data generated from the
# MOF subset of the Cambridge Structural Database (CSD) v543 
# hosted by the Cambridge Crystallographic Data Centre (CCDC).
#
# This work is licensed under the Creative Commons
# Attribution-NonCommercial-ShareAlike 4.0 International License.
# To view a copy of this license, visit
# http://creativecommons.org/licenses/by-nc-sa/4.0/
# or send a letter to
# Creative Commons, PO Box 1866, Mountain View, CA 94042, USA.
#
# CIF created using the CSD Python API on 29 September 2022
# The structure has been converted into the P1 space group
# The structure has a 3D framework
# The original CSD entry DAPYAW is in the monoclinic crystal system
# The framework has been calculated to contain at least 10.0% void space
# The void calculation uses a probe of radius 1.32A, grid spacing 0.4
# The framework is charged, counterions have been retained in the structure
# H atom positions have been added when not included in the experimental data
# Generated hydrogen atom positions removed from atoms on special positions
#
###############################################################################

data_DAPYAW
_chemical_formula_moiety         '(C432 H288 Cd22 O112 8-)n'
_symmetry_cell_setting           triclinic
_symmetry_space_group_name_H-M   'P 1'
_symmetry_Int_Tables_number      1
_space_group_name_Hall           'P 1'
loop_
_symmetry_equiv_pos_site_id
_symmetry_equiv_pos_as_xyz
1 x,y,z
_cell_length_a                   35.859(7)
_cell_length_b                   17.020(3)
_cell_length_c                   27.824(6)
_cell_angle_alpha                90
_cell_angle_beta                 122.73(3)
_cell_angle_gamma                90
_cell_volume                     14285.4
loop_
_atom_site_label
_atom_site_type_symbol
_atom_site_fract_x
_atom_site_fract_y
_atom_site_fract_z
Cd10 Cd 0.362570(15) 0.79917(3) 0.047930(17)
Cd14 Cd 0.482140(18) 0.82254(3) 0.12953(2)
O29 O 0.47269(17) 0.7409(3) 0.0513(2)
O32 O 0.42465(14) 0.7254(2) 0.07774(17)
H51 H 0.3695 0.6200 0.0201
C106 C 0.4383(2) 0.7107(4) 0.0438(3)
Cd3 Cd 0.2500 0.2500 0.5000
O5 O 0.34484(19) 0.0961(3) 0.5772(2)
O6 O 0.27452(18) 0.1260(3) 0.5094(2)
O13 O 0.11730(19) 0.2487(4) 0.3587(2)
O14 O 0.17849(16) 0.2089(3) 0.43571(19)
C16 C 0.2895(2) 0.0055(3) 0.5620(3)
H10 H 0.2248 0.0218 0.5048
C26 C 0.3034(3) 0.0816(4) 0.5482(3)
C31 C 0.2448(2) 0.0406(4) 0.2596(3)
H17 H 0.2661 0.0638 0.2939
C32 C 0.2001(2) 0.0487(4) 0.2401(3)
C33 C 0.1691(2) 0.0125(4) 0.1900(3)
H18 H 0.1394 0.0147 0.1782
C46 C 0.1868(3) 0.0895(5) 0.2760(3)
C47 C 0.1500(3) 0.1342(5) 0.2528(3)
H27 H 0.1318 0.1379 0.2132
C48 C 0.1384(2) 0.1748(5) 0.2859(3)
H28 H 0.1134 0.2070 0.2687
C49 C 0.1643(2) 0.1673(5) 0.3456(3)
C50 C 0.2010(3) 0.1201(4) 0.3693(3)
H29 H 0.2181 0.1141 0.4087
C51 C 0.2133(3) 0.0813(4) 0.3368(3)
H30 H 0.2386 0.0500 0.3540
C54 C 0.1527(3) 0.2110(5) 0.3811(3)
Cd5 Cd 0.362570(15) 0.20083(3) 0.547930(17)
Cd8 Cd 0.137430(15) 0.29917(3) 0.452070(17)
O23 O 0.22548(18) 0.3740(3) 0.4906(2)
O24 O 0.32779(15) 0.2103(3) 0.45511(17)
O26 O 0.17221(15) 0.7103(3) 0.04489(17)
O27 O 0.26471(15) 0.2722(3) 0.43252(18)
O28 O 0.23529(15) 0.2278(3) 0.56748(18)
O35 O 0.0446(2) 0.6014(5) 0.7129(3)
O38 O 0.0389(2) 0.6194(4) 0.6294(3)
O41 O 0.38270(19) 0.2513(4) 0.6413(2)
O44 O 0.32151(16) 0.2911(3) 0.56429(19)
C55 C 0.2010(3) 0.3128(4) 0.0893(3)
C56 C 0.2160(3) 0.2523(4) 0.0712(3)
H31 H 0.2063 0.2489 0.0328
C57 C 0.2459(3) 0.1949(4) 0.1098(3)
C58 C 0.2594(3) 0.2008(4) 0.1671(3)
H32 H 0.2790 0.1638 0.1932
C59 C 0.2442(3) 0.2605(4) 0.1861(3)
C60 C 0.2149(2) 0.3173(4) 0.1467(3)
H33 H 0.2048 0.3580 0.1591
C61 C 0.1703(3) 0.3725(4) 0.0476(3)
C65 C 0.1444(3) 0.5066(4) 0.0241(3)
H36 H 0.1478 0.5591 0.0350
C66 C 0.1729(2) 0.4514(4) 0.0623(3)
H37 H 0.1946 0.4672 0.0991
C67 C 0.2605(2) 0.1288(4) 0.0905(3)
C68 C 0.3058(2) 0.1109(4) 0.1183(3)
H38 H 0.3267 0.1433 0.1474
C69 C 0.3197(3) 0.0453(4) 0.1026(3)
H39 H 0.3498 0.0357 0.1199
C71 C 0.2451(3) 0.0117(4) 0.0336(3)
C72 C 0.2296(2) 0.0782(4) 0.0469(3)
H41 H 0.1994 0.0890 0.0273
C73 C 0.2567(2) 0.2615(3) 0.2467(2)
C74 C 0.2995(2) 0.2376(4) 0.2910(3)
H42 H 0.3209 0.2256 0.2829
C75 C 0.3096(2) 0.2322(4) 0.3465(3)
H43 H 0.3377 0.2153 0.3751
C76 C 0.2795(2) 0.2509(3) 0.3604(2)
C77 C 0.2377(2) 0.2773(4) 0.3176(3)
H44 H 0.2171 0.2920 0.3265
C78 C 0.2267(2) 0.2816(3) 0.2612(2)
H45 H 0.1985 0.2983 0.2328
C81 C 0.2917(2) 0.2437(4) 0.4219(3)
C82 C 0.3193(2) 0.5277(4) 0.8438(3)
C83 C 0.2749(2) 0.5339(3) 0.8235(3)
H46 H 0.2665 0.5606 0.8454
C84 C 0.2418(2) 0.5017(4) 0.7713(3)
C85 C 0.2552(2) 0.4594(4) 0.7404(3)
H47 H 0.2339 0.4362 0.7061
C86 C 0.2999(2) 0.4513(4) 0.7599(3)
C87 C 0.3309(2) 0.4875(4) 0.8100(3)
H48 H 0.3606 0.4853 0.8218
C88 C 0.3529(2) 0.5680(4) 0.8982(3)
C89 C 0.3894(2) 0.6047(4) 0.9028(3)
H49 H 0.3944 0.6001 0.8735
C90 C 0.4182(2) 0.6481(4) 0.9514(3)
H50 H 0.4428 0.6723 0.9549
C91 C 0.41009(19) 0.6553(3) 0.9950(2)
C92 C 0.3743(2) 0.6170(4) 0.9904(3)
C93 C 0.34561(19) 0.5743(3) 0.9418(2)
H52 H 0.3212 0.5496 0.9385
C94 C 0.1938(2) 0.5167(4) 0.7491(3)
C95 C 0.1799(2) 0.5377(4) 0.7841(3)
H53 H 0.2001 0.5355 0.8234
C96 C 0.1368(2) 0.5624(4) 0.7638(3)
H54 H 0.1283 0.5765 0.7888
C97 C 0.1063(2) 0.5655(4) 0.7041(3)
C98 C 0.1193(2) 0.5445(4) 0.6683(3)
H55 H 0.0988 0.5466 0.6290
C99 C 0.1618(3) 0.5201(4) 0.6883(3)
H56 H 0.1699 0.5060 0.6628
C100 C 0.3132(3) 0.4105(5) 0.7240(3)
C101 C 0.3500(3) 0.3658(5) 0.7472(3)
H57 H 0.3682 0.3621 0.7868
C102 C 0.3616(2) 0.3252(5) 0.7141(3)
H58 H 0.3866 0.2930 0.7313
C103 C 0.3357(2) 0.3327(5) 0.6544(3)
C104 C 0.2990(3) 0.3799(4) 0.6307(3)
H59 H 0.2819 0.3859 0.5913
C105 C 0.2867(3) 0.4187(4) 0.6632(3)
H60 H 0.2614 0.4500 0.6460
C107 C 0.0598(2) 0.5980(5) 0.6805(4)
C108 C 0.3473(3) 0.2890(5) 0.6189(3)
Cd4 Cd 0.137430(15) 0.70083(3) 0.952070(17)
Cd11 Cd 0.017860(18) 0.67746(3) 0.87047(2)
O15 O 0.08179(19) 0.6140(3) 0.9420(2)
O16 O 0.0414(2) 0.6752(4) 0.8074(2)
O17 O 0.0482(2) 0.5217(3) 0.8803(3)
O21 O 0.15516(19) 0.5961(3) 0.9228(2)
O31 O 0.02731(17) 0.7591(3) 0.9487(2)
O34 O 0.07535(14) 0.7746(2) 0.92226(17)
O43 O 0.11730(19) 0.7513(4) 0.8587(2)
O46 O 0.17849(16) 0.7911(3) 0.93571(19)
C62 C 0.1365(3) 0.3500(4) 0.9927(3)
H34 H 0.1333 0.2974 0.9822
C63 C 0.1073(3) 0.4061(4) 0.9533(3)
H35 H 0.0856 0.3910 0.9163
C64 C 0.1112(3) 0.4853(4) 0.9700(3)
C79 C 0.0786(3) 0.5430(5) 0.9277(4)
Cd16 Cd 0.2500 0.7500 0.0000
Cd2 Cd 0.017860(18) 0.32254(3) 0.37047(2)
O1 O 0.08179(19) 0.3860(3) 0.4420(2)
O2 O 0.0414(2) 0.3248(4) 0.3074(2)
O3 O 0.0482(2) 0.4783(3) 0.3803(3)
O7 O 0.32779(15) 0.7897(3) 0.95511(17)
O8 O 0.26471(15) 0.7278(3) 0.93252(18)
O11 O 0.4554(2) 0.8986(5) 0.2871(3)
O12 O 0.4611(2) 0.8806(4) 0.3706(3)
C1 C 0.2010(3) 0.6872(4) 0.5893(3)
C2 C 0.2160(3) 0.7477(4) 0.5712(3)
H1 H 0.2063 0.7511 0.5328
C3 C 0.2459(3) 0.8051(4) 0.6098(3)
C4 C 0.2594(3) 0.7992(4) 0.6671(3)
H2 H 0.2790 0.8362 0.6932
C5 C 0.2442(3) 0.7395(4) 0.6861(3)
C6 C 0.2149(2) 0.6827(4) 0.6467(3)
H3 H 0.2048 0.6420 0.6591
C7 C 0.1703(3) 0.6275(4) 0.5476(3)
C8 C 0.1365(3) 0.6500(4) 0.4927(3)
H4 H 0.1333 0.7026 0.4822
C9 C 0.1073(3) 0.5939(4) 0.4533(3)
H5 H 0.0856 0.6090 0.4163
C10 C 0.1112(3) 0.5147(4) 0.4700(3)
C11 C 0.1444(3) 0.4934(4) 0.5241(3)
H6 H 0.1478 0.4409 0.5350
C12 C 0.1729(2) 0.5486(4) 0.5623(3)
H7 H 0.1946 0.5328 0.5991
C13 C 0.2605(2) 0.8712(4) 0.5905(3)
C14 C 0.3058(2) 0.8891(4) 0.6183(3)
H8 H 0.3267 0.8567 0.6474
C15 C 0.3197(3) 0.9547(4) 0.6026(3)
H9 H 0.3498 0.9643 0.6199
C17 C 0.2451(3) 0.9883(4) 0.5336(3)
C18 C 0.2296(2) 0.9218(4) 0.5469(3)
H11 H 0.1994 0.9110 0.5273
C19 C 0.2567(2) 0.7385(3) 0.7467(2)
C20 C 0.2995(2) 0.7624(4) 0.7910(3)
H12 H 0.3209 0.7744 0.7829
C21 C 0.3096(2) 0.7678(4) 0.8465(3)
H13 H 0.3377 0.7847 0.8751
C22 C 0.2795(2) 0.7491(3) 0.8604(2)
C23 C 0.2377(2) 0.7227(4) 0.8176(3)
H14 H 0.2171 0.7080 0.8265
C24 C 0.2267(2) 0.7184(3) 0.7612(2)
H15 H 0.1985 0.7017 0.7328
C25 C 0.0786(3) 0.4570(5) 0.4277(4)
C27 C 0.2917(2) 0.7563(4) 0.9219(3)
C28 C 0.1807(2) 0.9723(4) 0.1562(3)
C29 C 0.2251(2) 0.9661(3) 0.1765(3)
H16 H 0.2335 0.9394 0.1546
C30 C 0.2582(2) 0.9983(4) 0.2287(3)
C34 C 0.1471(2) 0.9320(4) 0.1018(3)
C35 C 0.1106(2) 0.8953(4) 0.0972(3)
H19 H 0.1056 0.8999 0.1265
C36 C 0.0818(2) 0.8519(4) 0.0486(3)
H20 H 0.0572 0.8277 0.0451
C37 C 0.08991(19) 0.8447(3) 0.0050(2)
C38 C 0.1257(2) 0.8830(4) 0.0096(3)
C39 C 0.15439(19) 0.9257(3) 0.0582(2)
H22 H 0.1788 0.9504 0.0615
C40 C 0.3062(2) 0.9833(4) 0.2509(3)
C41 C 0.3201(2) 0.9623(4) 0.2159(3)
H23 H 0.2999 0.9645 0.1766
C42 C 0.3632(2) 0.9376(4) 0.2362(3)
H24 H 0.3717 0.9235 0.2112
C43 C 0.3937(2) 0.9345(4) 0.2959(3)
C44 C 0.3807(2) 0.9555(4) 0.3317(3)
H25 H 0.4012 0.9534 0.3710
C45 C 0.3382(3) 0.9799(4) 0.3117(3)
H26 H 0.3301 0.9940 0.3372
C53 C 0.4402(2) 0.9020(5) 0.3195(4)
Cd13 Cd 0.517860(18) 0.82254(3) 0.37047(2)
Cd16_2 Cd 0.2500 0.7500 1.0000
O19 O 0.34484(19) 0.9039(3) 0.0772(2)
O20 O 0.15516(19) 0.4039(3) 0.4228(2)
O22 O 0.27452(18) 0.8740(3) 0.0094(2)
O25 O 0.17221(15) 0.2897(3) 0.54489(17)
O30 O 0.02731(17) 0.2409(3) 0.4487(2)
O33 O 0.07535(14) 0.2254(2) 0.42226(17)
C70 C 0.2895(2) 0.9945(3) 0.0620(3)
H40 H 0.2248 0.9782 0.0048
C80 C 0.3034(3) 0.9184(4) 0.0482(3)
H21 H 0.1305 0.8800 0.9799
C52 C 0.0617(2) 0.7893(4) 0.9562(3)
Cd15 Cd 0.982140(18) 0.67746(3) 0.62953(2)
O18 O 0.9746(2) 0.7830(5) 0.8151(3)
O37 O 0.9554(2) 0.6014(5) 0.7871(3)
O40 O 0.9611(2) 0.6194(4) 0.8706(3)
O4 O 0.9746(2) 0.2170(5) 0.3151(3)
O36 O 0.9554(2) 0.3986(5) 0.2871(3)
O39 O 0.9611(2) 0.3806(4) 0.3706(3)
O18_2 O 0.0254(2) 0.7830(5) 0.6849(3)
O4_2 O 0.0254(2) 0.2170(5) 0.1849(3)
O36_2 O 0.0446(2) 0.3986(5) 0.2129(3)
O39_2 O 0.0389(2) 0.3806(4) 0.1294(3)
Cd3_2 Cd 0.7500 0.2500 0.0000
O13_2 O 0.88270(19) 0.2487(4) 0.1413(2)
O14_2 O 0.82151(16) 0.2089(3) 0.06429(19)
C31_2 C 0.7552(2) 0.0406(4) 0.2404(3)
H17_2 H 0.7339 0.0638 0.2061
C32_2 C 0.7999(2) 0.0487(4) 0.2599(3)
C33_2 C 0.8309(2) 0.0125(4) 0.3100(3)
H18_2 H 0.8606 0.0147 0.3218
C46_2 C 0.8132(3) 0.0895(5) 0.2240(3)
C47_2 C 0.8500(3) 0.1342(5) 0.2472(3)
H27_2 H 0.8682 0.1379 0.2868
C48_2 C 0.8616(2) 0.1748(5) 0.2141(3)
H28_2 H 0.8866 0.2070 0.2313
C49_2 C 0.8357(2) 0.1673(5) 0.1544(3)
C50_2 C 0.7990(3) 0.1201(4) 0.1307(3)
H29_2 H 0.7819 0.1141 0.0913
C51_2 C 0.7867(3) 0.0813(4) 0.1632(3)
H30_2 H 0.7614 0.0500 0.1460
C54_2 C 0.8473(3) 0.2110(5) 0.1189(3)
Cd4_2 Cd 0.862570(15) 0.70083(3) 0.547930(17)
Cd8_2 Cd 0.862570(15) 0.29917(3) 0.047930(17)
O15_2 O 0.91821(19) 0.6140(3) 0.5580(2)
O16_2 O 0.9586(2) 0.6752(4) 0.6926(2)
O17_2 O 0.9518(2) 0.5217(3) 0.6197(3)
O21_2 O 0.84484(19) 0.5961(3) 0.5772(2)
O23_2 O 0.77452(18) 0.3740(3) 0.0094(2)
O24_2 O 0.67221(15) 0.2103(3) 0.04489(17)
O26_2 O 0.82779(15) 0.7103(3) 0.45511(17)
O27_2 O 0.73529(15) 0.2722(3) 0.06748(18)
O31_2 O 0.97269(17) 0.7591(3) 0.5513(2)
O34_2 O 0.92465(14) 0.7746(2) 0.57774(17)
O43_2 O 0.88270(19) 0.7513(4) 0.6413(2)
O46_2 O 0.82151(16) 0.7911(3) 0.56429(19)
C55_2 C 0.7990(3) 0.3128(4) 0.4107(3)
C56_2 C 0.7840(3) 0.2523(4) 0.4288(3)
H31_2 H 0.7937 0.2489 0.4672
C57_2 C 0.7541(3) 0.1949(4) 0.3902(3)
C58_2 C 0.7406(3) 0.2008(4) 0.3329(3)
H32_2 H 0.7210 0.1638 0.3068
C59_2 C 0.7558(3) 0.2605(4) 0.3139(3)
C60_2 C 0.7851(2) 0.3173(4) 0.3533(3)
H33_2 H 0.7952 0.3580 0.3409
C61_2 C 0.8297(3) 0.3725(4) 0.4524(3)
C62_2 C 0.8635(3) 0.3500(4) 0.5073(3)
H34_2 H 0.8667 0.2974 0.5178
C63_2 C 0.8927(3) 0.4061(4) 0.5467(3)
H35_2 H 0.9144 0.3910 0.5837
C64_2 C 0.8888(3) 0.4853(4) 0.5300(3)
C65_2 C 0.8556(3) 0.5066(4) 0.4759(3)
H36_2 H 0.8522 0.5591 0.4650
C66_2 C 0.8271(2) 0.4514(4) 0.4377(3)
H37_2 H 0.8054 0.4672 0.4009
C67_2 C 0.7395(2) 0.1288(4) 0.4095(3)
C68_2 C 0.6942(2) 0.1109(4) 0.3817(3)
H38_2 H 0.6733 0.1433 0.3526
C69_2 C 0.6803(3) 0.0453(4) 0.3974(3)
H39_2 H 0.6502 0.0357 0.3801
C71_2 C 0.7549(3) 0.0117(4) 0.4664(3)
C72_2 C 0.7704(2) 0.0782(4) 0.4531(3)
H41_2 H 0.8006 0.0890 0.4727
C73_2 C 0.7433(2) 0.2615(3) 0.2533(2)
C74_2 C 0.7005(2) 0.2376(4) 0.2090(3)
H42_2 H 0.6791 0.2256 0.2171
C75_2 C 0.6904(2) 0.2322(4) 0.1535(3)
H43_2 H 0.6623 0.2153 0.1249
C76_2 C 0.7205(2) 0.2509(3) 0.1396(2)
C77_2 C 0.7623(2) 0.2773(4) 0.1824(3)
H44_2 H 0.7829 0.2920 0.1735
C78_2 C 0.7733(2) 0.2816(3) 0.2388(2)
H45_2 H 0.8015 0.2983 0.2672
C79_2 C 0.9214(3) 0.5430(5) 0.5723(4)
C81_2 C 0.7083(2) 0.2437(4) 0.0781(3)
Cd3_3 Cd 0.7500 0.2500 1.0000
O5_2 O 0.65516(19) 0.0961(3) 0.9228(2)
O6_2 O 0.72548(18) 0.1260(3) 0.9906(2)
C16_2 C 0.7105(2) 0.0055(3) 0.9380(3)
H10_2 H 0.7752 0.0218 0.9952
C26_2 C 0.6966(3) 0.0816(4) 0.9518(3)
Cd5_2 Cd 0.637430(15) 0.20083(3) 0.952070(17)
Cd10_2 Cd 0.637430(15) 0.79917(3) 0.452070(17)
O28_2 O 0.76471(15) 0.2278(3) 0.93252(18)
O29_2 O 0.52731(17) 0.7409(3) 0.4487(2)
O32_2 O 0.57535(14) 0.7254(2) 0.42226(17)
O41_2 O 0.61730(19) 0.2513(4) 0.8587(2)
O44_2 O 0.67849(16) 0.2911(3) 0.93571(19)
C82_2 C 0.6807(2) 0.5277(4) 0.6562(3)
C83_2 C 0.7251(2) 0.5339(3) 0.6765(3)
H46_2 H 0.7335 0.5606 0.6546
C84_2 C 0.7582(2) 0.5017(4) 0.7287(3)
C85_2 C 0.7448(2) 0.4594(4) 0.7596(3)
H47_2 H 0.7661 0.4362 0.7939
C86_2 C 0.7001(2) 0.4513(4) 0.7401(3)
C87_2 C 0.6691(2) 0.4875(4) 0.6900(3)
H48_2 H 0.6394 0.4853 0.6782
C88_2 C 0.6471(2) 0.5680(4) 0.6018(3)
C89_2 C 0.6106(2) 0.6047(4) 0.5972(3)
H49_2 H 0.6056 0.6001 0.6265
C90_2 C 0.5818(2) 0.6481(4) 0.5486(3)
H50_2 H 0.5572 0.6723 0.5451
C91_2 C 0.58991(19) 0.6553(3) 0.5050(2)
C92_2 C 0.6257(2) 0.6170(4) 0.5096(3)
H51_2 H 0.6305 0.6200 0.4799
C93_2 C 0.65439(19) 0.5743(3) 0.5582(2)
H52_2 H 0.6788 0.5496 0.5615
C94_2 C 0.8062(2) 0.5167(4) 0.7509(3)
C95_2 C 0.8201(2) 0.5377(4) 0.7159(3)
H53_2 H 0.7999 0.5355 0.6766
C96_2 C 0.8632(2) 0.5624(4) 0.7362(3)
H54_2 H 0.8717 0.5765 0.7112
C97_2 C 0.8937(2) 0.5655(4) 0.7959(3)
C98_2 C 0.8807(2) 0.5445(4) 0.8317(3)
H55_2 H 0.9012 0.5466 0.8710
C99_2 C 0.8382(3) 0.5201(4) 0.8117(3)
H56_2 H 0.8301 0.5060 0.8372
C100_2 C 0.6868(3) 0.4105(5) 0.7760(3)
C101_2 C 0.6500(3) 0.3658(5) 0.7528(3)
H57_2 H 0.6318 0.3621 0.7132
C102_2 C 0.6384(2) 0.3252(5) 0.7859(3)
H58_2 H 0.6134 0.2930 0.7687
C103_2 C 0.6643(2) 0.3327(5) 0.8456(3)
C104_2 C 0.7010(3) 0.3799(4) 0.8693(3)
H59_2 H 0.7181 0.3859 0.9087
C105_2 C 0.7133(3) 0.4187(4) 0.8368(3)
H60_2 H 0.7386 0.4500 0.8540
C106_2 C 0.5617(2) 0.7107(4) 0.4562(3)
C107_2 C 0.9402(2) 0.5980(5) 0.8195(4)
C108_2 C 0.6527(3) 0.2890(5) 0.8811(3)
Cd2_2 Cd 0.982140(18) 0.32254(3) 0.12953(2)
O1_2 O 0.91821(19) 0.3860(3) 0.0580(2)
O2_2 O 0.9586(2) 0.3248(4) 0.1926(2)
O3_2 O 0.9518(2) 0.4783(3) 0.1197(3)
O11_2 O 0.5446(2) 0.8986(5) 0.2129(3)
O12_2 O 0.5389(2) 0.8806(4) 0.1294(3)
C8_2 C 0.8635(3) 0.6500(4) 0.0073(3)
H4_2 H 0.8667 0.7026 0.0178
C9_2 C 0.8927(3) 0.5939(4) 0.0467(3)
H5_2 H 0.9144 0.6090 0.0837
C10_2 C 0.8888(3) 0.5147(4) 0.0300(3)
C25_2 C 0.9214(3) 0.4570(5) 0.0723(4)
C28_2 C 0.8193(2) 0.9723(4) 0.3438(3)
C29_2 C 0.7749(2) 0.9661(3) 0.3235(3)
H16_2 H 0.7665 0.9394 0.3454
C30_2 C 0.7418(2) 0.9983(4) 0.2713(3)
C34_2 C 0.8529(2) 0.9320(4) 0.3982(3)
C35_2 C 0.8894(2) 0.8953(4) 0.4028(3)
H19_2 H 0.8944 0.8999 0.3735
C36_2 C 0.9182(2) 0.8519(4) 0.4514(3)
H20_2 H 0.9428 0.8277 0.4549
C37_2 C 0.91009(19) 0.8447(3) 0.4950(2)
C38_2 C 0.8743(2) 0.8830(4) 0.4904(3)
H21_2 H 0.8695 0.8800 0.5201
C39_2 C 0.84561(19) 0.9257(3) 0.4418(2)
H22_2 H 0.8212 0.9504 0.4385
C40_2 C 0.6938(2) 0.9833(4) 0.2491(3)
C41_2 C 0.6799(2) 0.9623(4) 0.2841(3)
H23_2 H 0.7001 0.9645 0.3234
C42_2 C 0.6368(2) 0.9376(4) 0.2638(3)
H24_2 H 0.6283 0.9235 0.2888
C43_2 C 0.6063(2) 0.9345(4) 0.2041(3)
C44_2 C 0.6193(2) 0.9555(4) 0.1683(3)
H25_2 H 0.5988 0.9534 0.1290
C45_2 C 0.6618(3) 0.9799(4) 0.1883(3)
H26_2 H 0.6699 0.9940 0.1628
C52_2 C 0.9383(2) 0.7893(4) 0.5438(3)
C53_2 C 0.5598(2) 0.9020(5) 0.1805(4)
Cd17 Cd 0.7500 0.7500 0.5000
O19_2 O 0.65516(19) 0.9039(3) 0.4228(2)
O20_2 O 0.84484(19) 0.4039(3) 0.0772(2)
O22_2 O 0.72548(18) 0.8740(3) 0.4906(2)
O30_2 O 0.97269(17) 0.2409(3) 0.0513(2)
O33_2 O 0.92465(14) 0.2254(2) 0.07774(17)
C70_2 C 0.7105(2) 0.9945(3) 0.4380(3)
H40_2 H 0.7752 0.9782 0.4952
C80_2 C 0.6966(3) 0.9184(4) 0.4518(3)
O7_2 O 0.67221(15) 0.7897(3) 0.54489(17)
O8_2 O 0.73529(15) 0.7278(3) 0.56748(18)
C1_2 C 0.7990(3) 0.6872(4) 0.9107(3)
C2_2 C 0.7840(3) 0.7477(4) 0.9288(3)
H1_2 H 0.7937 0.7511 0.9672
C3_2 C 0.7541(3) 0.8051(4) 0.8902(3)
C4_2 C 0.7406(3) 0.7992(4) 0.8329(3)
H2_2 H 0.7210 0.8362 0.8068
C5_2 C 0.7558(3) 0.7395(4) 0.8139(3)
C6_2 C 0.7851(2) 0.6827(4) 0.8533(3)
H3_2 H 0.7952 0.6420 0.8409
C7_2 C 0.8297(3) 0.6275(4) 0.9524(3)
C11_2 C 0.8556(3) 0.4934(4) 0.9759(3)
H6_2 H 0.8522 0.4409 0.9650
C12_2 C 0.8271(2) 0.5486(4) 0.9377(3)
H7_2 H 0.8054 0.5328 0.9009
C13_2 C 0.7395(2) 0.8712(4) 0.9095(3)
C14_2 C 0.6942(2) 0.8891(4) 0.8817(3)
H8_2 H 0.6733 0.8567 0.8526
C15_2 C 0.6803(3) 0.9547(4) 0.8974(3)
H9_2 H 0.6502 0.9643 0.8801
C17_2 C 0.7549(3) 0.9883(4) 0.9664(3)
C18_2 C 0.7704(2) 0.9218(4) 0.9531(3)
H11_2 H 0.8006 0.9110 0.9727
C19_2 C 0.7433(2) 0.7385(3) 0.7533(2)
C20_2 C 0.7005(2) 0.7624(4) 0.7090(3)
H12_2 H 0.6791 0.7744 0.7171
C21_2 C 0.6904(2) 0.7678(4) 0.6535(3)
H13_2 H 0.6623 0.7847 0.6249
C22_2 C 0.7205(2) 0.7491(3) 0.6396(2)
C23_2 C 0.7623(2) 0.7227(4) 0.6824(3)
H14_2 H 0.7829 0.7080 0.6735
C24_2 C 0.7733(2) 0.7184(3) 0.7388(2)
H15_2 H 0.8015 0.7017 0.7672
C27_2 C 0.7083(2) 0.7563(4) 0.5781(3)
O25_2 O 0.82779(15) 0.2897(3) 0.95511(17)
H51_3 H 0.8695 0.1200 0.0201
C106_3 C 0.9383(2) 0.2107(4) 0.0438(3)
Cd15_2 Cd 0.482140(18) 0.17746(3) 0.62953(2)
O35_2 O 0.5446(2) 0.1014(5) 0.7129(3)
O38_2 O 0.5389(2) 0.1194(4) 0.6294(3)
C65_3 C 0.6444(3) 0.0066(4) 0.0241(3)
H36_3 H 0.6478 0.0591 0.0350
C82_3 C 0.8193(2) 0.0277(4) 0.8438(3)
C83_3 C 0.7749(2) 0.0339(3) 0.8235(3)
H46_3 H 0.7665 0.0606 0.8454
C84_3 C 0.7418(2) 0.0017(4) 0.7713(3)
C88_3 C 0.8529(2) 0.0680(4) 0.8982(3)
C89_3 C 0.8894(2) 0.1047(4) 0.9028(3)
H49_3 H 0.8944 0.1001 0.8735
C90_3 C 0.9182(2) 0.1481(4) 0.9514(3)
H50_3 H 0.9428 0.1723 0.9549
C91_3 C 0.91009(19) 0.1553(3) 0.9950(2)
C92_3 C 0.8743(2) 0.1170(4) 0.9904(3)
C93_3 C 0.84561(19) 0.0743(3) 0.9418(2)
H52_3 H 0.8212 0.0496 0.9385
C94_3 C 0.6938(2) 0.0167(4) 0.7491(3)
C95_3 C 0.6799(2) 0.0377(4) 0.7841(3)
H53_3 H 0.7001 0.0355 0.8234
C96_3 C 0.6368(2) 0.0624(4) 0.7638(3)
H54_3 H 0.6283 0.0765 0.7888
C97_3 C 0.6063(2) 0.0655(4) 0.7041(3)
C98_3 C 0.6193(2) 0.0445(4) 0.6683(3)
H55_3 H 0.5988 0.0466 0.6290
C99_3 C 0.6618(3) 0.0201(4) 0.6883(3)
H56_3 H 0.6699 0.0060 0.6628
C107_3 C 0.5598(2) 0.0980(5) 0.6805(4)
Cd11_2 Cd 0.517860(18) 0.17746(3) 0.87047(2)
O15_3 O 0.58179(19) 0.1140(3) 0.9420(2)
O16_3 O 0.5414(2) 0.1752(4) 0.8074(2)
O17_3 O 0.5482(2) 0.0217(3) 0.8803(3)
O18_3 O 0.4746(2) 0.2830(5) 0.8151(3)
O31_3 O 0.52731(17) 0.2591(3) 0.9487(2)
O34_3 O 0.57535(14) 0.2746(2) 0.92226(17)
O37_2 O 0.4554(2) 0.1014(5) 0.7871(3)
O40_2 O 0.4611(2) 0.1194(4) 0.8706(3)
C79_3 C 0.5786(3) 0.0430(5) 0.9277(4)
O6_3 O 0.77452(18) 0.6260(3) 0.5094(2)
O13_3 O 0.61730(19) 0.7487(4) 0.3587(2)
O14_3 O 0.67849(16) 0.7089(3) 0.43571(19)
C1_3 C 0.7010(3) 0.1872(4) 0.5893(3)
C2_3 C 0.7160(3) 0.2477(4) 0.5712(3)
H1_3 H 0.7063 0.2511 0.5328
C3_3 C 0.7459(3) 0.3051(4) 0.6098(3)
C4_3 C 0.7594(3) 0.2992(4) 0.6671(3)
H2_3 H 0.7790 0.3362 0.6932
C5_3 C 0.7442(3) 0.2395(4) 0.6861(3)
C6_3 C 0.7149(2) 0.1827(4) 0.6467(3)
H3_3 H 0.7048 0.1420 0.6591
C7_3 C 0.6703(3) 0.1275(4) 0.5476(3)
C8_3 C 0.6365(3) 0.1500(4) 0.4927(3)
H4_3 H 0.6333 0.2026 0.4822
C9_3 C 0.6073(3) 0.0939(4) 0.4533(3)
H5_3 H 0.5856 0.1090 0.4163
C10_3 C 0.6112(3) 0.0147(4) 0.4700(3)
C12_3 C 0.6729(2) 0.0486(4) 0.5623(3)
H7_3 H 0.6946 0.0328 0.5991
C13_3 C 0.7605(2) 0.3712(4) 0.5905(3)
C14_3 C 0.8058(2) 0.3891(4) 0.6183(3)
H8_3 H 0.8267 0.3567 0.6474
C15_3 C 0.8197(3) 0.4547(4) 0.6026(3)
H9_3 H 0.8498 0.4643 0.6199
C16_3 C 0.7895(2) 0.5055(3) 0.5620(3)
C17_3 C 0.7451(3) 0.4883(4) 0.5336(3)
H10_3 H 0.7248 0.5218 0.5048
C18_3 C 0.7296(2) 0.4218(4) 0.5469(3)
H11_3 H 0.6994 0.4110 0.5273
C19_3 C 0.7567(2) 0.2385(3) 0.7467(2)
C20_3 C 0.7995(2) 0.2624(4) 0.7910(3)
H12_3 H 0.8209 0.2744 0.7829
C21_3 C 0.8096(2) 0.2678(4) 0.8465(3)
H13_3 H 0.8377 0.2847 0.8751
C22_3 C 0.7795(2) 0.2491(3) 0.8604(2)
C23_3 C 0.7377(2) 0.2227(4) 0.8176(3)
H14_3 H 0.7171 0.2080 0.8265
C24_3 C 0.7267(2) 0.2184(3) 0.7612(2)
H15_3 H 0.6985 0.2017 0.7328
C26_3 C 0.8034(3) 0.5816(4) 0.5482(3)
C27_3 C 0.7917(2) 0.2563(4) 0.9219(3)
C28_3 C 0.6807(2) 0.4723(4) 0.1562(3)
C29_3 C 0.7251(2) 0.4661(3) 0.1765(3)
H16_3 H 0.7335 0.4394 0.1546
C30_3 C 0.7582(2) 0.4983(4) 0.2287(3)
C31_3 C 0.7448(2) 0.5406(4) 0.2596(3)
H17_3 H 0.7661 0.5638 0.2939
C32_3 C 0.7001(2) 0.5487(4) 0.2401(3)
C33_3 C 0.6691(2) 0.5125(4) 0.1900(3)
H18_3 H 0.6394 0.5147 0.1782
C34_3 C 0.6471(2) 0.4320(4) 0.1018(3)
C35_3 C 0.6106(2) 0.3953(4) 0.0972(3)
H19_3 H 0.6056 0.3999 0.1265
C36_3 C 0.5818(2) 0.3519(4) 0.0486(3)
H20_3 H 0.5572 0.3277 0.0451
C37_3 C 0.58991(19) 0.3447(3) 0.0050(2)
C38_3 C 0.6257(2) 0.3830(4) 0.0096(3)
C39_3 C 0.65439(19) 0.4257(3) 0.0582(2)
H22_3 H 0.6788 0.4504 0.0615
C40_3 C 0.8062(2) 0.4833(4) 0.2509(3)
C41_3 C 0.8201(2) 0.4623(4) 0.2159(3)
H23_3 H 0.7999 0.4645 0.1766
C42_3 C 0.8632(2) 0.4376(4) 0.2362(3)
H24_3 H 0.8717 0.4235 0.2112
C43_3 C 0.8937(2) 0.4345(4) 0.2959(3)
C44_3 C 0.8807(2) 0.4555(4) 0.3317(3)
H25_3 H 0.9012 0.4534 0.3710
C45_3 C 0.8382(3) 0.4799(4) 0.3117(3)
H26_3 H 0.8301 0.4940 0.3372
C46_3 C 0.6868(3) 0.5895(5) 0.2760(3)
C47_3 C 0.6500(3) 0.6342(5) 0.2528(3)
H27_3 H 0.6318 0.6379 0.2132
C48_3 C 0.6384(2) 0.6748(5) 0.2859(3)
H28_3 H 0.6134 0.7070 0.2687
C49_3 C 0.6643(2) 0.6673(5) 0.3456(3)
C50_3 C 0.7010(3) 0.6201(4) 0.3693(3)
H29_3 H 0.7181 0.6141 0.4087
C51_3 C 0.7133(3) 0.5813(4) 0.3368(3)
H30_3 H 0.7386 0.5500 0.3540
C53_3 C 0.9402(2) 0.4020(5) 0.3195(4)
C54_3 C 0.6527(3) 0.7110(5) 0.3811(3)
O27_3 O 0.76471(15) 0.7722(3) 0.43252(18)
C55_3 C 0.7010(3) 0.8128(4) 0.0893(3)
C56_3 C 0.7160(3) 0.7523(4) 0.0712(3)
H31_3 H 0.7063 0.7489 0.0328
C57_3 C 0.7459(3) 0.6949(4) 0.1098(3)
C58_3 C 0.7594(3) 0.7008(4) 0.1671(3)
H32_3 H 0.7790 0.6638 0.1932
C59_3 C 0.7442(3) 0.7605(4) 0.1861(3)
C60_3 C 0.7149(2) 0.8173(4) 0.1467(3)
H33_3 H 0.7048 0.8580 0.1591
C61_3 C 0.6703(3) 0.8725(4) 0.0476(3)
C66_3 C 0.6729(2) 0.9514(4) 0.0623(3)
H37_3 H 0.6946 0.9672 0.0991
C67_3 C 0.7605(2) 0.6288(4) 0.0905(3)
C68_3 C 0.8058(2) 0.6109(4) 0.1183(3)
H38_3 H 0.8267 0.6433 0.1474
C69_3 C 0.8197(3) 0.5453(4) 0.1026(3)
H39_3 H 0.8498 0.5357 0.1199
C70_3 C 0.7895(2) 0.4945(3) 0.0620(3)
C71_3 C 0.7451(3) 0.5117(4) 0.0336(3)
H40_3 H 0.7248 0.4782 0.0048
C72_3 C 0.7296(2) 0.5782(4) 0.0469(3)
H41_3 H 0.6994 0.5890 0.0273
C73_3 C 0.7567(2) 0.7615(3) 0.2467(2)
C74_3 C 0.7995(2) 0.7376(4) 0.2910(3)
H42_3 H 0.8209 0.7256 0.2829
C75_3 C 0.8096(2) 0.7322(4) 0.3465(3)
H43_3 H 0.8377 0.7153 0.3751
C76_3 C 0.7795(2) 0.7509(3) 0.3604(2)
C77_3 C 0.7377(2) 0.7773(4) 0.3176(3)
H44_3 H 0.7171 0.7920 0.3265
C78_3 C 0.7267(2) 0.7816(3) 0.2612(2)
H45_3 H 0.6985 0.7983 0.2328
C80_3 C 0.8034(3) 0.4184(4) 0.0482(3)
C81_3 C 0.7917(2) 0.7437(4) 0.4219(3)
C85_3 C 0.7552(2) 0.9594(4) 0.7404(3)
H47_3 H 0.7339 0.9362 0.7061
C86_3 C 0.7999(2) 0.9513(4) 0.7599(3)
C87_3 C 0.8309(2) 0.9875(4) 0.8100(3)
H48_3 H 0.8606 0.9853 0.8218
C100_3 C 0.8132(3) 0.9105(5) 0.7240(3)
C101_3 C 0.8500(3) 0.8658(5) 0.7472(3)
H57_3 H 0.8682 0.8621 0.7868
C102_3 C 0.8616(2) 0.8252(5) 0.7141(3)
H58_3 H 0.8866 0.7930 0.7313
C103_3 C 0.8357(2) 0.8327(5) 0.6544(3)
C104_3 C 0.7990(3) 0.8799(4) 0.6307(3)
H59_3 H 0.7819 0.8859 0.5913
C105_3 C 0.7867(3) 0.9187(4) 0.6632(3)
H60_3 H 0.7614 0.9500 0.6460
C108_3 C 0.8473(3) 0.7890(5) 0.6189(3)
H21_3 H 0.6305 0.3800 0.9799
C52_3 C 0.5617(2) 0.2893(4) 0.9562(3)
C62_3 C 0.6365(3) 0.8500(4) 0.9927(3)
H34_3 H 0.6333 0.7974 0.9822
C63_3 C 0.6073(3) 0.9061(4) 0.9533(3)
H35_3 H 0.5856 0.8910 0.9163
C64_3 C 0.6112(3) 0.9853(4) 0.9700(3)
O1_3 O 0.58179(19) 0.8860(3) 0.4420(2)
O2_3 O 0.5414(2) 0.8248(4) 0.3074(2)
O3_3 O 0.5482(2) 0.9783(3) 0.3803(3)
O4_3 O 0.4746(2) 0.7170(5) 0.3151(3)
C11_3 C 0.6444(3) 0.9934(4) 0.5241(3)
H6_3 H 0.6478 0.9409 0.5350
C25_3 C 0.5786(3) 0.9570(5) 0.4277(4)
O15_4 O 0.41821(19) 0.1140(3) 0.5580(2)
O16_4 O 0.4586(2) 0.1752(4) 0.6926(2)
O17_4 O 0.4518(2) 0.0217(3) 0.6197(3)
O18_4 O 0.5254(2) 0.2830(5) 0.6849(3)
O31_4 O 0.47269(17) 0.2591(3) 0.5513(2)
O34_4 O 0.42465(14) 0.2746(2) 0.57774(17)
C65_4 C 0.3556(3) 0.0066(4) 0.4759(3)
H36_4 H 0.3522 0.0591 0.4650
C79_4 C 0.4214(3) 0.0430(5) 0.5723(4)
C82_4 C 0.1807(2) 0.0277(4) 0.6562(3)
C83_4 C 0.2251(2) 0.0339(3) 0.6765(3)
H46_4 H 0.2335 0.0606 0.6546
C84_4 C 0.2582(2) 0.0017(4) 0.7287(3)
C88_4 C 0.1471(2) 0.0680(4) 0.6018(3)
C89_4 C 0.1106(2) 0.1047(4) 0.5972(3)
H49_4 H 0.1056 0.1001 0.6265
C90_4 C 0.0818(2) 0.1481(4) 0.5486(3)
H50_4 H 0.0572 0.1723 0.5451
C91_4 C 0.08991(19) 0.1553(3) 0.5050(2)
C92_4 C 0.1257(2) 0.1170(4) 0.5096(3)
H51_4 H 0.1305 0.1200 0.4799
C93_4 C 0.15439(19) 0.0743(3) 0.5582(2)
H52_4 H 0.1788 0.0496 0.5615
C94_4 C 0.3062(2) 0.0167(4) 0.7509(3)
C95_4 C 0.3201(2) 0.0377(4) 0.7159(3)
H53_4 H 0.2999 0.0355 0.6766
C96_4 C 0.3632(2) 0.0624(4) 0.7362(3)
H54_4 H 0.3717 0.0765 0.7112
C97_4 C 0.3937(2) 0.0655(4) 0.7959(3)
C98_4 C 0.3807(2) 0.0445(4) 0.8317(3)
H55_4 H 0.4012 0.0466 0.8710
C99_4 C 0.3382(3) 0.0201(4) 0.8117(3)
H56_4 H 0.3301 0.0060 0.8372
C106_4 C 0.0617(2) 0.2107(4) 0.4562(3)
C107_4 C 0.4402(2) 0.0980(5) 0.8195(4)
O13_4 O 0.38270(19) 0.7487(4) 0.1413(2)
O14_4 O 0.32151(16) 0.7089(3) 0.06429(19)
C8_4 C 0.3635(3) 0.1500(4) 0.0073(3)
H4_4 H 0.3667 0.2026 0.0178
C9_4 C 0.3927(3) 0.0939(4) 0.0467(3)
H5_4 H 0.4144 0.1090 0.0837
C10_4 C 0.3888(3) 0.0147(4) 0.0300(3)
C28_4 C 0.3193(2) 0.4723(4) 0.3438(3)
C29_4 C 0.2749(2) 0.4661(3) 0.3235(3)
H16_4 H 0.2665 0.4394 0.3454
C30_4 C 0.2418(2) 0.4983(4) 0.2713(3)
C31_4 C 0.2552(2) 0.5406(4) 0.2404(3)
H17_4 H 0.2339 0.5638 0.2061
C32_4 C 0.2999(2) 0.5487(4) 0.2599(3)
C33_4 C 0.3309(2) 0.5125(4) 0.3100(3)
H18_4 H 0.3606 0.5147 0.3218
C34_4 C 0.3529(2) 0.4320(4) 0.3982(3)
C35_4 C 0.3894(2) 0.3953(4) 0.4028(3)
H19_4 H 0.3944 0.3999 0.3735
C36_4 C 0.4182(2) 0.3519(4) 0.4514(3)
H20_4 H 0.4428 0.3277 0.4549
C37_4 C 0.41009(19) 0.3447(3) 0.4950(2)
C38_4 C 0.3743(2) 0.3830(4) 0.4904(3)
H21_4 H 0.3695 0.3800 0.5201
C39_4 C 0.34561(19) 0.4257(3) 0.4418(2)
H22_4 H 0.3212 0.4504 0.4385
C40_4 C 0.1938(2) 0.4833(4) 0.2491(3)
C41_4 C 0.1799(2) 0.4623(4) 0.2841(3)
H23_4 H 0.2001 0.4645 0.3234
C42_4 C 0.1368(2) 0.4376(4) 0.2638(3)
H24_4 H 0.1283 0.4235 0.2888
C43_4 C 0.1063(2) 0.4345(4) 0.2041(3)
C44_4 C 0.1193(2) 0.4555(4) 0.1683(3)
H25_4 H 0.0988 0.4534 0.1290
C45_4 C 0.1618(3) 0.4799(4) 0.1883(3)
H26_4 H 0.1699 0.4940 0.1628
C46_4 C 0.3132(3) 0.5895(5) 0.2240(3)
C47_4 C 0.3500(3) 0.6342(5) 0.2472(3)
H27_4 H 0.3682 0.6379 0.2868
C48_4 C 0.3616(2) 0.6748(5) 0.2141(3)
H28_4 H 0.3866 0.7070 0.2313
C49_4 C 0.3357(2) 0.6673(5) 0.1544(3)
C50_4 C 0.2990(3) 0.6201(4) 0.1307(3)
H29_4 H 0.2819 0.6141 0.0913
C51_4 C 0.2867(3) 0.5813(4) 0.1632(3)
H30_4 H 0.2614 0.5500 0.1460
C52_4 C 0.4383(2) 0.2893(4) 0.5438(3)
C53_4 C 0.0598(2) 0.4020(5) 0.1805(4)
C54_4 C 0.3473(3) 0.7110(5) 0.1189(3)
O27_4 O 0.23529(15) 0.7722(3) 0.06748(18)
C55_4 C 0.2990(3) 0.8128(4) 0.4107(3)
C56_4 C 0.2840(3) 0.7523(4) 0.4288(3)
H31_4 H 0.2937 0.7489 0.4672
C57_4 C 0.2541(3) 0.6949(4) 0.3902(3)
C58_4 C 0.2406(3) 0.7008(4) 0.3329(3)
H32_4 H 0.2210 0.6638 0.3068
C59_4 C 0.2558(3) 0.7605(4) 0.3139(3)
C60_4 C 0.2851(2) 0.8173(4) 0.3533(3)
H33_4 H 0.2952 0.8580 0.3409
C61_4 C 0.3297(3) 0.8725(4) 0.4524(3)
C62_4 C 0.3635(3) 0.8500(4) 0.5073(3)
H34_4 H 0.3667 0.7974 0.5178
C63_4 C 0.3927(3) 0.9061(4) 0.5467(3)
H35_4 H 0.4144 0.8910 0.5837
C64_4 C 0.3888(3) 0.9853(4) 0.5300(3)
C66_4 C 0.3271(2) 0.9514(4) 0.4377(3)
H37_4 H 0.3054 0.9672 0.4009
C67_4 C 0.2395(2) 0.6288(4) 0.4095(3)
C68_4 C 0.1942(2) 0.6109(4) 0.3817(3)
H38_4 H 0.1733 0.6433 0.3526
C69_4 C 0.1803(3) 0.5453(4) 0.3974(3)
H39_4 H 0.1502 0.5357 0.3801
C70_4 C 0.2105(2) 0.4945(3) 0.4380(3)
C71_4 C 0.2549(3) 0.5117(4) 0.4664(3)
H40_4 H 0.2752 0.4782 0.4952
C72_4 C 0.2704(2) 0.5782(4) 0.4531(3)
H41_4 H 0.3006 0.5890 0.4727
C73_4 C 0.2433(2) 0.7615(3) 0.2533(2)
C74_4 C 0.2005(2) 0.7376(4) 0.2090(3)
H42_4 H 0.1791 0.7256 0.2171
C75_4 C 0.1904(2) 0.7322(4) 0.1535(3)
H43_4 H 0.1623 0.7153 0.1249
C76_4 C 0.2205(2) 0.7509(3) 0.1396(2)
C77_4 C 0.2623(2) 0.7773(4) 0.1824(3)
H44_4 H 0.2829 0.7920 0.1735
C78_4 C 0.2733(2) 0.7816(3) 0.2388(2)
H45_4 H 0.3015 0.7983 0.2672
C80_4 C 0.1966(3) 0.4184(4) 0.4518(3)
C81_4 C 0.2083(2) 0.7437(4) 0.0781(3)
O6_4 O 0.22548(18) 0.6260(3) 0.9906(2)
C1_4 C 0.2990(3) 0.1872(4) 0.9107(3)
C2_4 C 0.2840(3) 0.2477(4) 0.9288(3)
H1_4 H 0.2937 0.2511 0.9672
C3_4 C 0.2541(3) 0.3051(4) 0.8902(3)
C4_4 C 0.2406(3) 0.2992(4) 0.8329(3)
H2_4 H 0.2210 0.3362 0.8068
C5_4 C 0.2558(3) 0.2395(4) 0.8139(3)
C6_4 C 0.2851(2) 0.1827(4) 0.8533(3)
H3_4 H 0.2952 0.1420 0.8409
C7_4 C 0.3297(3) 0.1275(4) 0.9524(3)
C12_4 C 0.3271(2) 0.0486(4) 0.9377(3)
H7_4 H 0.3054 0.0328 0.9009
C13_4 C 0.2395(2) 0.3712(4) 0.9095(3)
C14_4 C 0.1942(2) 0.3891(4) 0.8817(3)
H8_4 H 0.1733 0.3567 0.8526
C15_4 C 0.1803(3) 0.4547(4) 0.8974(3)
H9_4 H 0.1502 0.4643 0.8801
C16_4 C 0.2105(2) 0.5055(3) 0.9380(3)
C17_4 C 0.2549(3) 0.4883(4) 0.9664(3)
H10_4 H 0.2752 0.5218 0.9952
C18_4 C 0.2704(2) 0.4218(4) 0.9531(3)
H11_4 H 0.3006 0.4110 0.9727
C19_4 C 0.2433(2) 0.2385(3) 0.7533(2)
C20_4 C 0.2005(2) 0.2624(4) 0.7090(3)
H12_4 H 0.1791 0.2744 0.7171
C21_4 C 0.1904(2) 0.2678(4) 0.6535(3)
H13_4 H 0.1623 0.2847 0.6249
C22_4 C 0.2205(2) 0.2491(3) 0.6396(2)
C23_4 C 0.2623(2) 0.2227(4) 0.6824(3)
H14_4 H 0.2829 0.2080 0.6735
C24_4 C 0.2733(2) 0.2184(3) 0.7388(2)
H15_4 H 0.3015 0.2017 0.7672
C26_4 C 0.1966(3) 0.5816(4) 0.9518(3)
C27_4 C 0.2083(2) 0.2563(4) 0.5781(3)
C85_4 C 0.2448(2) 0.9594(4) 0.7596(3)
H47_4 H 0.2661 0.9362 0.7939
C86_4 C 0.2001(2) 0.9513(4) 0.7401(3)
C87_4 C 0.1691(2) 0.9875(4) 0.6900(3)
H48_4 H 0.1394 0.9853 0.6782
C100_4 C 0.1868(3) 0.9105(5) 0.7760(3)
C101_4 C 0.1500(3) 0.8658(5) 0.7528(3)
H57_4 H 0.1318 0.8621 0.7132
C102_4 C 0.1384(2) 0.8252(5) 0.7859(3)
H58_4 H 0.1134 0.7930 0.7687
C103_4 C 0.1643(2) 0.8327(5) 0.8456(3)
C104_4 C 0.2010(3) 0.8799(4) 0.8693(3)
H59_4 H 0.2181 0.8859 0.9087
C105_4 C 0.2133(3) 0.9187(4) 0.8368(3)
H60_4 H 0.2386 0.9500 0.8540
C108_4 C 0.1527(3) 0.7890(5) 0.8811(3)
O1_4 O 0.41821(19) 0.8860(3) 0.0580(2)
O2_4 O 0.4586(2) 0.8248(4) 0.1926(2)
O3_4 O 0.4518(2) 0.9783(3) 0.1197(3)
O4_4 O 0.5254(2) 0.7170(5) 0.1849(3)
C25_4 C 0.4214(3) 0.9570(5) 0.0723(4)
C11_4 C 0.3556(3) 0.9934(4) 0.9759(3)
H6_4 H 0.3522 0.9409 0.9650
loop_
_geom_bond_atom_site_label_1
_geom_bond_atom_site_label_2
_geom_bond_site_symmetry_1
_geom_bond_site_symmetry_2
Cd10 O32 1_555 1_555
Cd14 O29 1_555 1_555
O29 C106 1_555 1_555
O32 Cd14 1_555 1_555
C106 O32 1_555 1_555
Cd3 O6 1_555 1_555
O5 C26 1_555 1_555
O6 C26 1_555 1_555
O13 C54 1_555 1_555
O14 Cd3 1_555 1_555
C26 C16 1_555 1_555
H17 C31 1_555 1_555
C32 C31 1_555 1_555
H18 C33 1_555 1_555
C46 C32 1_555 1_555
C47 C46 1_555 1_555
H27 C47 1_555 1_555
C48 C47 1_555 1_555
H28 C48 1_555 1_555
C49 C48 1_555 1_555
C50 C49 1_555 1_555
H29 C50 1_555 1_555
C51 C46 1_555 1_555
H30 C51 1_555 1_555
C54 O14 1_555 1_555
Cd5 O5 1_555 1_555
Cd8 O13 1_555 1_555
O23 Cd3 1_555 1_555
O24 Cd5 1_555 1_555
O27 Cd3 1_555 1_555
O28 Cd3 1_555 1_555
O35 C107 1_555 1_555
O41 Cd5 1_555 1_555
O44 Cd3 1_555 1_555
C55 C56 1_555 1_555
C56 H31 1_555 1_555
C57 C56 1_555 1_555
C58 C57 1_555 1_555
H32 C58 1_555 1_555
C59 C58 1_555 1_555
C60 C55 1_555 1_555
H33 C60 1_555 1_555
C61 C55 1_555 1_555
H36 C65 1_555 1_555
C66 C61 1_555 1_555
H37 C66 1_555 1_555
C67 C57 1_555 1_555
C68 C67 1_555 1_555
H38 C68 1_555 1_555
C69 C68 1_555 1_555
H39 C69 1_555 1_555
C72 C67 1_555 1_555
H41 C72 1_555 1_555
C73 C59 1_555 1_555
C74 C73 1_555 1_555
H42 C74 1_555 1_555
C75 C74 1_555 1_555
H43 C75 1_555 1_555
C76 C75 1_555 1_555
C77 C76 1_555 1_555
H44 C77 1_555 1_555
C78 C73 1_555 1_555
H45 C78 1_555 1_555
C81 O24 1_555 1_555
C82 C83 1_555 1_555
C83 H46 1_555 1_555
C84 C83 1_555 1_555
C85 C84 1_555 1_555
H47 C85 1_555 1_555
C86 C85 1_555 1_555
C87 C82 1_555 1_555
H48 C87 1_555 1_555
C88 C82 1_555 1_555
C89 C88 1_555 1_555
H49 C89 1_555 1_555
C90 C89 1_555 1_555
H50 C90 1_555 1_555
C91 C90 1_555 1_555
C92 C91 1_555 1_555
C93 C88 1_555 1_555
H52 C93 1_555 1_555
C94 C84 1_555 1_555
C95 C94 1_555 1_555
H53 C95 1_555 1_555
C96 C95 1_555 1_555
H54 C96 1_555 1_555
C97 C96 1_555 1_555
C98 C97 1_555 1_555
H55 C98 1_555 1_555
C99 C94 1_555 1_555
H56 C99 1_555 1_555
C100 C86 1_555 1_555
C101 C100 1_555 1_555
H57 C101 1_555 1_555
C102 C101 1_555 1_555
H58 C102 1_555 1_555
C103 C102 1_555 1_555
C104 C103 1_555 1_555
H59 C104 1_555 1_555
C105 C100 1_555 1_555
H60 C105 1_555 1_555
C107 O38 1_555 1_555
C108 O41 1_555 1_555
O14 Cd8 1_555 1_555
C32 C33 1_555 1_555
C49 C54 1_555 1_555
C50 C51 1_555 1_555
Cd5 O44 1_555 1_555
O27 C81 1_555 1_555
O44 C108 1_555 1_555
C59 C60 1_555 1_555
C65 C66 1_555 1_555
C71 C72 1_555 1_555
C76 C81 1_555 1_555
C77 C78 1_555 1_555
C86 C87 1_555 1_555
C92 C93 1_555 1_555
C97 C107 1_555 1_555
C98 C99 1_555 1_555
C103 C108 1_555 1_555
C104 C105 1_555 1_555
Cd4 O15 1_555 1_555
Cd11 O15 1_555 1_555
O15 C79 1_555 1_555
O16 Cd11 1_555 1_555
O17 C79 1_555 1_555
O21 Cd4 1_555 1_555
O31 Cd11 1_555 1_555
O34 Cd4 1_555 1_555
O43 Cd4 1_555 1_555
O46 Cd4 1_555 1_555
H34 C62 1_555 1_555
C63 C62 1_555 1_555
H35 C63 1_555 1_555
C64 C63 1_555 1_555
C79 C64 1_555 1_555
Cd11 O34 1_555 1_555
Cd8 O1 1_555 1_555
Cd2 O1 1_555 1_555
O1 C25 1_555 1_555
O2 Cd2 1_555 1_555
O3 C25 1_555 1_555
O7 C27 1_555 1_555
O8 C27 1_555 1_555
O11 C53 1_555 1_555
O12 C53 1_555 1_555
C1 C2 1_555 1_555
C2 H1 1_555 1_555
C3 C2 1_555 1_555
C4 C3 1_555 1_555
H2 C4 1_555 1_555
C5 C4 1_555 1_555
C6 C1 1_555 1_555
H3 C6 1_555 1_555
C7 C1 1_555 1_555
C8 C7 1_555 1_555
H4 C8 1_555 1_555
C9 C8 1_555 1_555
H5 C9 1_555 1_555
C10 C9 1_555 1_555
C11 C10 1_555 1_555
H6 C11 1_555 1_555
C12 C7 1_555 1_555
H7 C12 1_555 1_555
C13 C3 1_555 1_555
C14 C13 1_555 1_555
H8 C14 1_555 1_555
C15 C14 1_555 1_555
H9 C15 1_555 1_555
C18 C13 1_555 1_555
H11 C18 1_555 1_555
C19 C5 1_555 1_555
C20 C19 1_555 1_555
H12 C20 1_555 1_555
C21 C20 1_555 1_555
H13 C21 1_555 1_555
C22 C21 1_555 1_555
C23 C22 1_555 1_555
H14 C23 1_555 1_555
C24 C19 1_555 1_555
H15 C24 1_555 1_555
C25 C10 1_555 1_555
C27 C22 1_555 1_555
C28 C29 1_555 1_555
C29 H16 1_555 1_555
C30 C29 1_555 1_555
C34 C28 1_555 1_555
C35 C34 1_555 1_555
H19 C35 1_555 1_555
C36 C35 1_555 1_555
H20 C36 1_555 1_555
C37 C36 1_555 1_555
C38 C37 1_555 1_555
C39 C34 1_555 1_555
H22 C39 1_555 1_555
C40 C30 1_555 1_555
C41 C40 1_555 1_555
H23 C41 1_555 1_555
C42 C41 1_555 1_555
H24 C42 1_555 1_555
C43 C42 1_555 1_555
C44 C43 1_555 1_555
H25 C44 1_555 1_555
C45 C40 1_555 1_555
H26 C45 1_555 1_555
C53 C43 1_555 1_555
Cd10 O19 1_555 1_555
Cd13 O11 1_555 1_555
Cd16_2 O8 1_555 1_555
Cd16 O22 1_555 1_555
O19 C80 1_555 1_555
O20 Cd8 1_555 1_555
O22 C80 1_555 1_555
O25 Cd8 1_555 1_555
O30 Cd2 1_555 1_555
O33 Cd8 1_555 1_555
C80 C70 1_555 1_555
Cd2 O33 1_555 1_555
O12 Cd13 1_555 1_555
C5 C6 1_555 1_555
C11 C12 1_555 1_555
C17 C18 1_555 1_555
C23 C24 1_555 1_555
C38 C39 1_555 1_555
C44 C45 1_555 1_555
O31 C52 1_555 1_555
O34 C52 1_555 1_555
O13_2 C54_2 1_555 1_555
O14_2 Cd3_2 1_555 1_555
H17_2 C31_2 1_555 1_555
C32_2 C31_2 1_555 1_555
H18_2 C33_2 1_555 1_555
C46_2 C32_2 1_555 1_555
C47_2 C46_2 1_555 1_555
H27_2 C47_2 1_555 1_555
C48_2 C47_2 1_555 1_555
H28_2 C48_2 1_555 1_555
C49_2 C48_2 1_555 1_555
C50_2 C49_2 1_555 1_555
H29_2 C50_2 1_555 1_555
C51_2 C46_2 1_555 1_555
H30_2 C51_2 1_555 1_555
C54_2 O14_2 1_555 1_555
Cd4_2 O15_2 1_555 1_555
Cd8_2 O13_2 1_555 1_555
Cd15 O15_2 1_555 1_555
O15_2 C79_2 1_555 1_555
O16_2 Cd15 1_555 1_555
O17_2 C79_2 1_555 1_555
O21_2 Cd4_2 1_555 1_555
O23_2 Cd3_2 1_555 1_555
O26_2 Cd4_2 1_555 1_555
O27_2 Cd3_2 1_555 1_555
O31_2 Cd15 1_555 1_555
O34_2 Cd4_2 1_555 1_555
O43_2 Cd4_2 1_555 1_555
O46_2 Cd4_2 1_555 1_555
C55_2 C56_2 1_555 1_555
C56_2 H31_2 1_555 1_555
C57_2 C56_2 1_555 1_555
C58_2 C57_2 1_555 1_555
H32_2 C58_2 1_555 1_555
C59_2 C58_2 1_555 1_555
C60_2 C55_2 1_555 1_555
H33_2 C60_2 1_555 1_555
C61_2 C55_2 1_555 1_555
C62_2 C61_2 1_555 1_555
H34_2 C62_2 1_555 1_555
C63_2 C62_2 1_555 1_555
H35_2 C63_2 1_555 1_555
C64_2 C63_2 1_555 1_555
C65_2 C64_2 1_555 1_555
H36_2 C65_2 1_555 1_555
C66_2 C61_2 1_555 1_555
H37_2 C66_2 1_555 1_555
C67_2 C57_2 1_555 1_555
C68_2 C67_2 1_555 1_555
H38_2 C68_2 1_555 1_555
C69_2 C68_2 1_555 1_555
H39_2 C69_2 1_555 1_555
C72_2 C67_2 1_555 1_555
H41_2 C72_2 1_555 1_555
C73_2 C59_2 1_555 1_555
C74_2 C73_2 1_555 1_555
H42_2 C74_2 1_555 1_555
C75_2 C74_2 1_555 1_555
H43_2 C75_2 1_555 1_555
C76_2 C75_2 1_555 1_555
C77_2 C76_2 1_555 1_555
H44_2 C77_2 1_555 1_555
C78_2 C73_2 1_555 1_555
H45_2 C78_2 1_555 1_555
C79_2 C64_2 1_555 1_555
C81_2 O24_2 1_555 1_555
O14_2 Cd8_2 1_555 1_555
C32_2 C33_2 1_555 1_555
C49_2 C54_2 1_555 1_555
C50_2 C51_2 1_555 1_555
Cd15 O34_2 1_555 1_555
O27_2 C81_2 1_555 1_555
C59_2 C60_2 1_555 1_555
C65_2 C66_2 1_555 1_555
C71_2 C72_2 1_555 1_555
C76_2 C81_2 1_555 1_555
C77_2 C78_2 1_555 1_555
Cd3_3 O6_2 1_555 1_555
O5_2 C26_2 1_555 1_555
O6_2 C26_2 1_555 1_555
C26_2 C16_2 1_555 1_555
Cd5_2 O5_2 1_555 1_555
Cd10_2 O32_2 1_555 1_555
Cd13 O29_2 1_555 1_555
O28_2 Cd3_3 1_555 1_555
O29_2 C106_2 1_555 1_555
O32_2 Cd13 1_555 1_555
O37 C107_2 1_555 1_555
O41_2 Cd5_2 1_555 1_555
O44_2 Cd3_3 1_555 1_555
C82_2 C83_2 1_555 1_555
C83_2 H46_2 1_555 1_555
C84_2 C83_2 1_555 1_555
C85_2 C84_2 1_555 1_555
H47_2 C85_2 1_555 1_555
C86_2 C85_2 1_555 1_555
C87_2 C82_2 1_555 1_555
H48_2 C87_2 1_555 1_555
C88_2 C82_2 1_555 1_555
C89_2 C88_2 1_555 1_555
H49_2 C89_2 1_555 1_555
C90_2 C89_2 1_555 1_555
H50_2 C90_2 1_555 1_555
C91_2 C90_2 1_555 1_555
C92_2 C91_2 1_555 1_555
H51_2 C92_2 1_555 1_555
C93_2 C88_2 1_555 1_555
H52_2 C93_2 1_555 1_555
C94_2 C84_2 1_555 1_555
C95_2 C94_2 1_555 1_555
H53_2 C95_2 1_555 1_555
C96_2 C95_2 1_555 1_555
H54_2 C96_2 1_555 1_555
C97_2 C96_2 1_555 1_555
C98_2 C97_2 1_555 1_555
H55_2 C98_2 1_555 1_555
C99_2 C94_2 1_555 1_555
H56_2 C99_2 1_555 1_555
C100_2 C86_2 1_555 1_555
C101_2 C100_2 1_555 1_555
H57_2 C101_2 1_555 1_555
C102_2 C101_2 1_555 1_555
H58_2 C102_2 1_555 1_555
C103_2 C102_2 1_555 1_555
C104_2 C103_2 1_555 1_555
H59_2 C104_2 1_555 1_555
C105_2 C100_2 1_555 1_555
H60_2 C105_2 1_555 1_555
C106_2 O32_2 1_555 1_555
C107_2 O40 1_555 1_555
C108_2 O41_2 1_555 1_555
Cd5_2 O44_2 1_555 1_555
O44_2 C108_2 1_555 1_555
C86_2 C87_2 1_555 1_555
C91_2 C106_2 1_555 1_555
C92_2 C93_2 1_555 1_555
C97_2 C107_2 1_555 1_555
C98_2 C99_2 1_555 1_555
C103_2 C108_2 1_555 1_555
C104_2 C105_2 1_555 1_555
Cd8_2 O1_2 1_555 1_555
Cd2_2 O1_2 1_555 1_555
O1_2 C25_2 1_555 1_555
O2_2 Cd2_2 1_555 1_555
O3_2 C25_2 1_555 1_555
O31_2 C52_2 1_555 1_555
O34_2 C52_2 1_555 1_555
O11_2 C53_2 1_555 1_555
O12_2 C53_2 1_555 1_555
H4_2 C8_2 1_555 1_555
C9_2 C8_2 1_555 1_555
H5_2 C9_2 1_555 1_555
C10_2 C9_2 1_555 1_555
C25_2 C10_2 1_555 1_555
C28_2 C29_2 1_555 1_555
C29_2 H16_2 1_555 1_555
C30_2 C29_2 1_555 1_555
C34_2 C28_2 1_555 1_555
C35_2 C34_2 1_555 1_555
H19_2 C35_2 1_555 1_555
C36_2 C35_2 1_555 1_555
H20_2 C36_2 1_555 1_555
C37_2 C36_2 1_555 1_555
C38_2 C37_2 1_555 1_555
H21_2 C38_2 1_555 1_555
C39_2 C34_2 1_555 1_555
H22_2 C39_2 1_555 1_555
C40_2 C30_2 1_555 1_555
C41_2 C40_2 1_555 1_555
H23_2 C41_2 1_555 1_555
C42_2 C41_2 1_555 1_555
H24_2 C42_2 1_555 1_555
C43_2 C42_2 1_555 1_555
C44_2 C43_2 1_555 1_555
H25_2 C44_2 1_555 1_555
C45_2 C40_2 1_555 1_555
H26_2 C45_2 1_555 1_555
C52_2 C37_2 1_555 1_555
C53_2 C43_2 1_555 1_555
Cd10_2 O19_2 1_555 1_555
Cd14 O11_2 1_555 1_555
Cd17 O22_2 1_555 1_555
O19_2 C80_2 1_555 1_555
O20_2 Cd8_2 1_555 1_555
O22_2 C80_2 1_555 1_555
O30_2 Cd2_2 1_555 1_555
O33_2 Cd8_2 1_555 1_555
C80_2 C70_2 1_555 1_555
Cd2_2 O33_2 1_555 1_555
O12_2 Cd14 1_555 1_555
C38_2 C39_2 1_555 1_555
C44_2 C45_2 1_555 1_555
O7_2 C27_2 1_555 1_555
O8_2 C27_2 1_555 1_555
C1_2 C2_2 1_555 1_555
C2_2 H1_2 1_555 1_555
C3_2 C2_2 1_555 1_555
C4_2 C3_2 1_555 1_555
H2_2 C4_2 1_555 1_555
C5_2 C4_2 1_555 1_555
C6_2 C1_2 1_555 1_555
H3_2 C6_2 1_555 1_555
C7_2 C1_2 1_555 1_555
H6_2 C11_2 1_555 1_555
C12_2 C7_2 1_555 1_555
H7_2 C12_2 1_555 1_555
C13_2 C3_2 1_555 1_555
C14_2 C13_2 1_555 1_555
H8_2 C14_2 1_555 1_555
C15_2 C14_2 1_555 1_555
H9_2 C15_2 1_555 1_555
C18_2 C13_2 1_555 1_555
H11_2 C18_2 1_555 1_555
C19_2 C5_2 1_555 1_555
C20_2 C19_2 1_555 1_555
H12_2 C20_2 1_555 1_555
C21_2 C20_2 1_555 1_555
H13_2 C21_2 1_555 1_555
C22_2 C21_2 1_555 1_555
C23_2 C22_2 1_555 1_555
H14_2 C23_2 1_555 1_555
C24_2 C19_2 1_555 1_555
H15_2 C24_2 1_555 1_555
C27_2 C22_2 1_555 1_555
Cd10_2 O7_2 1_555 1_555
Cd17 O8_2 1_555 1_555
C5_2 C6_2 1_555 1_555
C11_2 C12_2 1_555 1_555
C17_2 C18_2 1_555 1_555
C23_2 C24_2 1_555 1_555
O30_2 C106_3 1_555 1_555
C106_3 O33_2 1_555 1_555
Cd15_2 O35_2 1_555 1_555
O35_2 C107_3 1_555 1_555
O38_2 Cd15_2 1_555 1_555
H36_3 C65_3 1_555 1_555
C82_3 C83_3 1_555 1_555
C83_3 H46_3 1_555 1_555
C84_3 C83_3 1_555 1_555
C88_3 C82_3 1_555 1_555
C89_3 C88_3 1_555 1_555
H49_3 C89_3 1_555 1_555
C90_3 C89_3 1_555 1_555
H50_3 C90_3 1_555 1_555
C91_3 C90_3 1_555 1_555
C92_3 C91_3 1_555 1_555
C93_3 C88_3 1_555 1_555
H52_3 C93_3 1_555 1_555
C94_3 C84_3 1_555 1_555
C95_3 C94_3 1_555 1_555
H53_3 C95_3 1_555 1_555
C96_3 C95_3 1_555 1_555
H54_3 C96_3 1_555 1_555
C97_3 C96_3 1_555 1_555
C98_3 C97_3 1_555 1_555
H55_3 C98_3 1_555 1_555
C99_3 C94_3 1_555 1_555
H56_3 C99_3 1_555 1_555
C107_3 O38_2 1_555 1_555
C92_3 C93_3 1_555 1_555
C97_3 C107_3 1_555 1_555
C98_3 C99_3 1_555 1_555
Cd5_2 O15_3 1_555 1_555
Cd11_2 O15_3 1_555 1_555
O15_3 C79_3 1_555 1_555
O16_3 Cd11_2 1_555 1_555
O17_3 C79_3 1_555 1_555
O18_3 Cd11_2 1_555 1_555
O31_3 Cd11_2 1_555 1_555
O34_3 Cd5_2 1_555 1_555
O37_2 Cd11_2 1_555 1_555
O40_2 Cd11_2 1_555 1_555
Cd11_2 O34_3 1_555 1_555
Cd17 O6_3 1_555 1_555
O21_2 C26_3 1_555 1_555
O6_3 C26_3 1_555 1_555
O25_2 C27_3 1_555 1_555
O28_2 C27_3 1_555 1_555
O36 C53_3 1_555 1_555
O39 C53_3 1_555 1_555
O13_3 C54_3 1_555 1_555
O14_3 Cd17 1_555 1_555
C1_3 C2_3 1_555 1_555
C2_3 H1_3 1_555 1_555
C3_3 C2_3 1_555 1_555
C4_3 C3_3 1_555 1_555
H2_3 C4_3 1_555 1_555
C5_3 C4_3 1_555 1_555
C6_3 C1_3 1_555 1_555
H3_3 C6_3 1_555 1_555
C7_3 C1_3 1_555 1_555
C8_3 C7_3 1_555 1_555
H4_3 C8_3 1_555 1_555
C9_3 C8_3 1_555 1_555
H5_3 C9_3 1_555 1_555
C10_3 C9_3 1_555 1_555
C12_3 C7_3 1_555 1_555
H7_3 C12_3 1_555 1_555
C13_3 C3_3 1_555 1_555
C14_3 C13_3 1_555 1_555
H8_3 C14_3 1_555 1_555
C15_3 C14_3 1_555 1_555
H9_3 C15_3 1_555 1_555
C16_3 C15_3 1_555 1_555
C17_3 C16_3 1_555 1_555
H10_3 C17_3 1_555 1_555
C18_3 C13_3 1_555 1_555
H11_3 C18_3 1_555 1_555
C19_3 C5_3 1_555 1_555
C20_3 C19_3 1_555 1_555
H12_3 C20_3 1_555 1_555
C21_3 C20_3 1_555 1_555
H13_3 C21_3 1_555 1_555
C22_3 C21_3 1_555 1_555
C23_3 C22_3 1_555 1_555
H14_3 C23_3 1_555 1_555
C24_3 C19_3 1_555 1_555
H15_3 C24_3 1_555 1_555
C26_3 C16_3 1_555 1_555
C27_3 C22_3 1_555 1_555
C28_3 C29_3 1_555 1_555
C29_3 H16_3 1_555 1_555
C30_3 C29_3 1_555 1_555
C31_3 C30_3 1_555 1_555
H17_3 C31_3 1_555 1_555
C32_3 C31_3 1_555 1_555
C33_3 C28_3 1_555 1_555
H18_3 C33_3 1_555 1_555
C34_3 C28_3 1_555 1_555
C35_3 C34_3 1_555 1_555
H19_3 C35_3 1_555 1_555
C36_3 C35_3 1_555 1_555
H20_3 C36_3 1_555 1_555
C37_3 C36_3 1_555 1_555
C38_3 C37_3 1_555 1_555
C39_3 C34_3 1_555 1_555
H22_3 C39_3 1_555 1_555
C40_3 C30_3 1_555 1_555
C41_3 C40_3 1_555 1_555
H23_3 C41_3 1_555 1_555
C42_3 C41_3 1_555 1_555
H24_3 C42_3 1_555 1_555
C43_3 C42_3 1_555 1_555
C44_3 C43_3 1_555 1_555
H25_3 C44_3 1_555 1_555
C45_3 C40_3 1_555 1_555
H26_3 C45_3 1_555 1_555
C46_3 C32_3 1_555 1_555
C47_3 C46_3 1_555 1_555
H27_3 C47_3 1_555 1_555
C48_3 C47_3 1_555 1_555
H28_3 C48_3 1_555 1_555
C49_3 C48_3 1_555 1_555
C50_3 C49_3 1_555 1_555
H29_3 C50_3 1_555 1_555
C51_3 C46_3 1_555 1_555
H30_3 C51_3 1_555 1_555
C53_3 C43_3 1_555 1_555
C54_3 O14_3 1_555 1_555
Cd10_2 O13_3 1_555 1_555
O20_2 C80_3 1_555 1_555
O23_2 C80_3 1_555 1_555
O27_3 Cd17 1_555 1_555
O46_2 Cd17 1_555 1_555
C55_3 C56_3 1_555 1_555
C56_3 H31_3 1_555 1_555
C57_3 C56_3 1_555 1_555
C58_3 C57_3 1_555 1_555
H32_3 C58_3 1_555 1_555
C59_3 C58_3 1_555 1_555
C60_3 C55_3 1_555 1_555
H33_3 C60_3 1_555 1_555
C61_3 C55_3 1_555 1_555
C66_3 C61_3 1_555 1_555
H37_3 C66_3 1_555 1_555
C67_3 C57_3 1_555 1_555
C68_3 C67_3 1_555 1_555
H38_3 C68_3 1_555 1_555
C69_3 C68_3 1_555 1_555
H39_3 C69_3 1_555 1_555
C70_3 C69_3 1_555 1_555
C71_3 C70_3 1_555 1_555
H40_3 C71_3 1_555 1_555
C72_3 C67_3 1_555 1_555
H41_3 C72_3 1_555 1_555
C73_3 C59_3 1_555 1_555
C74_3 C73_3 1_555 1_555
H42_3 C74_3 1_555 1_555
C75_3 C74_3 1_555 1_555
H43_3 C75_3 1_555 1_555
C76_3 C75_3 1_555 1_555
C77_3 C76_3 1_555 1_555
H44_3 C77_3 1_555 1_555
C78_3 C73_3 1_555 1_555
H45_3 C78_3 1_555 1_555
C80_3 C70_3 1_555 1_555
C81_3 O26_2 1_555 1_555
H47_3 C85_3 1_555 1_555
C86_3 C85_3 1_555 1_555
H48_3 C87_3 1_555 1_555
C100_3 C86_3 1_555 1_555
C101_3 C100_3 1_555 1_555
H57_3 C101_3 1_555 1_555
C102_3 C101_3 1_555 1_555
H58_3 C102_3 1_555 1_555
C103_3 C102_3 1_555 1_555
C104_3 C103_3 1_555 1_555
H59_3 C104_3 1_555 1_555
C105_3 C100_3 1_555 1_555
H60_3 C105_3 1_555 1_555
C108_3 O43_2 1_555 1_555
O14_3 Cd10_2 1_555 1_555
C5_3 C6_3 1_555 1_555
C17_3 C18_3 1_555 1_555
C23_3 C24_3 1_555 1_555
C32_3 C33_3 1_555 1_555
C38_3 C39_3 1_555 1_555
C44_3 C45_3 1_555 1_555
C49_3 C54_3 1_555 1_555
C50_3 C51_3 1_555 1_555
O27_3 C81_3 1_555 1_555
O46_2 C108_3 1_555 1_555
C59_3 C60_3 1_555 1_555
C71_3 C72_3 1_555 1_555
C76_3 C81_3 1_555 1_555
C77_3 C78_3 1_555 1_555
C86_3 C87_3 1_555 1_555
C103_3 C108_3 1_555 1_555
C104_3 C105_3 1_555 1_555
O31_3 C52_3 1_555 1_555
O34_3 C52_3 1_555 1_555
H34_3 C62_3 1_555 1_555
C63_3 C62_3 1_555 1_555
H35_3 C63_3 1_555 1_555
C64_3 C63_3 1_555 1_555
Cd10_2 O1_3 1_555 1_555
Cd13 O1_3 1_555 1_555
O1_3 C25_3 1_555 1_555
O2_3 Cd13 1_555 1_555
O3_3 C25_3 1_555 1_555
O4_3 Cd13 1_555 1_555
H6_3 C11_3 1_555 1_555
Cd5 O15_4 1_555 1_555
Cd15_2 O15_4 1_555 1_555
O15_4 C79_4 1_555 1_555
O16_4 Cd15_2 1_555 1_555
O17_4 C79_4 1_555 1_555
O18_4 Cd15_2 1_555 1_555
O31_4 Cd15_2 1_555 1_555
O34_4 Cd5 1_555 1_555
H36_4 C65_4 1_555 1_555
Cd15_2 O34_4 1_555 1_555
O30 C106_4 1_555 1_555
O37_2 C107_4 1_555 1_555
C82_4 C83_4 1_555 1_555
C83_4 H46_4 1_555 1_555
C84_4 C83_4 1_555 1_555
C88_4 C82_4 1_555 1_555
C89_4 C88_4 1_555 1_555
H49_4 C89_4 1_555 1_555
C90_4 C89_4 1_555 1_555
H50_4 C90_4 1_555 1_555
C91_4 C90_4 1_555 1_555
C92_4 C91_4 1_555 1_555
H51_4 C92_4 1_555 1_555
C93_4 C88_4 1_555 1_555
H52_4 C93_4 1_555 1_555
C94_4 C84_4 1_555 1_555
C95_4 C94_4 1_555 1_555
H53_4 C95_4 1_555 1_555
C96_4 C95_4 1_555 1_555
H54_4 C96_4 1_555 1_555
C97_4 C96_4 1_555 1_555
C98_4 C97_4 1_555 1_555
H55_4 C98_4 1_555 1_555
C99_4 C94_4 1_555 1_555
H56_4 C99_4 1_555 1_555
C106_4 O33 1_555 1_555
C107_4 O40_2 1_555 1_555
C91_4 C106_4 1_555 1_555
C92_4 C93_4 1_555 1_555
C97_4 C107_4 1_555 1_555
C98_4 C99_4 1_555 1_555
O31_4 C52_4 1_555 1_555
O34_4 C52_4 1_555 1_555
O36_2 C53_4 1_555 1_555
O39_2 C53_4 1_555 1_555
O13_4 C54_4 1_555 1_555
O14_4 Cd16 1_555 1_555
H4_4 C8_4 1_555 1_555
C9_4 C8_4 1_555 1_555
H5_4 C9_4 1_555 1_555
C10_4 C9_4 1_555 1_555
C28_4 C29_4 1_555 1_555
C29_4 H16_4 1_555 1_555
C30_4 C29_4 1_555 1_555
C31_4 C30_4 1_555 1_555
H17_4 C31_4 1_555 1_555
C32_4 C31_4 1_555 1_555
C33_4 C28_4 1_555 1_555
H18_4 C33_4 1_555 1_555
C34_4 C28_4 1_555 1_555
C35_4 C34_4 1_555 1_555
H19_4 C35_4 1_555 1_555
C36_4 C35_4 1_555 1_555
H20_4 C36_4 1_555 1_555
C37_4 C36_4 1_555 1_555
C38_4 C37_4 1_555 1_555
H21_4 C38_4 1_555 1_555
C39_4 C34_4 1_555 1_555
H22_4 C39_4 1_555 1_555
C40_4 C30_4 1_555 1_555
C41_4 C40_4 1_555 1_555
H23_4 C41_4 1_555 1_555
C42_4 C41_4 1_555 1_555
H24_4 C42_4 1_555 1_555
C43_4 C42_4 1_555 1_555
C44_4 C43_4 1_555 1_555
H25_4 C44_4 1_555 1_555
C45_4 C40_4 1_555 1_555
H26_4 C45_4 1_555 1_555
C46_4 C32_4 1_555 1_555
C47_4 C46_4 1_555 1_555
H27_4 C47_4 1_555 1_555
C48_4 C47_4 1_555 1_555
H28_4 C48_4 1_555 1_555
C49_4 C48_4 1_555 1_555
C50_4 C49_4 1_555 1_555
H29_4 C50_4 1_555 1_555
C51_4 C46_4 1_555 1_555
H30_4 C51_4 1_555 1_555
C52_4 C37_4 1_555 1_555
C53_4 C43_4 1_555 1_555
C54_4 O14_4 1_555 1_555
Cd10 O13_4 1_555 1_555
O20 C80_4 1_555 1_555
O23 C80_4 1_555 1_555
O27_4 Cd16 1_555 1_555
C55_4 C56_4 1_555 1_555
C56_4 H31_4 1_555 1_555
C57_4 C56_4 1_555 1_555
C58_4 C57_4 1_555 1_555
H32_4 C58_4 1_555 1_555
C59_4 C58_4 1_555 1_555
C60_4 C55_4 1_555 1_555
H33_4 C60_4 1_555 1_555
C61_4 C55_4 1_555 1_555
C62_4 C61_4 1_555 1_555
H34_4 C62_4 1_555 1_555
C63_4 C62_4 1_555 1_555
H35_4 C63_4 1_555 1_555
C64_4 C63_4 1_555 1_555
C66_4 C61_4 1_555 1_555
H37_4 C66_4 1_555 1_555
C67_4 C57_4 1_555 1_555
C68_4 C67_4 1_555 1_555
H38_4 C68_4 1_555 1_555
C69_4 C68_4 1_555 1_555
H39_4 C69_4 1_555 1_555
C70_4 C69_4 1_555 1_555
C71_4 C70_4 1_555 1_555
H40_4 C71_4 1_555 1_555
C72_4 C67_4 1_555 1_555
H41_4 C72_4 1_555 1_555
C73_4 C59_4 1_555 1_555
C74_4 C73_4 1_555 1_555
H42_4 C74_4 1_555 1_555
C75_4 C74_4 1_555 1_555
H43_4 C75_4 1_555 1_555
C76_4 C75_4 1_555 1_555
C77_4 C76_4 1_555 1_555
H44_4 C77_4 1_555 1_555
C78_4 C73_4 1_555 1_555
H45_4 C78_4 1_555 1_555
C80_4 C70_4 1_555 1_555
C81_4 O26 1_555 1_555
O14_4 Cd10 1_555 1_555
C32_4 C33_4 1_555 1_555
C38_4 C39_4 1_555 1_555
C44_4 C45_4 1_555 1_555
C49_4 C54_4 1_555 1_555
C50_4 C51_4 1_555 1_555
O27_4 C81_4 1_555 1_555
C59_4 C60_4 1_555 1_555
C71_4 C72_4 1_555 1_555
C76_4 C81_4 1_555 1_555
C77_4 C78_4 1_555 1_555
Cd16_2 O6_4 1_555 1_555
O21 C26_4 1_555 1_555
O6_4 C26_4 1_555 1_555
O25 C27_4 1_555 1_555
O28 C27_4 1_555 1_555
C1_4 C2_4 1_555 1_555
C2_4 H1_4 1_555 1_555
C3_4 C2_4 1_555 1_555
C4_4 C3_4 1_555 1_555
H2_4 C4_4 1_555 1_555
C5_4 C4_4 1_555 1_555
C6_4 C1_4 1_555 1_555
H3_4 C6_4 1_555 1_555
C7_4 C1_4 1_555 1_555
C12_4 C7_4 1_555 1_555
H7_4 C12_4 1_555 1_555
C13_4 C3_4 1_555 1_555
C14_4 C13_4 1_555 1_555
H8_4 C14_4 1_555 1_555
C15_4 C14_4 1_555 1_555
H9_4 C15_4 1_555 1_555
C16_4 C15_4 1_555 1_555
C17_4 C16_4 1_555 1_555
H10_4 C17_4 1_555 1_555
C18_4 C13_4 1_555 1_555
H11_4 C18_4 1_555 1_555
C19_4 C5_4 1_555 1_555
C20_4 C19_4 1_555 1_555
H12_4 C20_4 1_555 1_555
C21_4 C20_4 1_555 1_555
H13_4 C21_4 1_555 1_555
C22_4 C21_4 1_555 1_555
C23_4 C22_4 1_555 1_555
H14_4 C23_4 1_555 1_555
C24_4 C19_4 1_555 1_555
H15_4 C24_4 1_555 1_555
C26_4 C16_4 1_555 1_555
C27_4 C22_4 1_555 1_555
O46 Cd16_2 1_555 1_555
H47_4 C85_4 1_555 1_555
C86_4 C85_4 1_555 1_555
H48_4 C87_4 1_555 1_555
C100_4 C86_4 1_555 1_555
C101_4 C100_4 1_555 1_555
H57_4 C101_4 1_555 1_555
C102_4 C101_4 1_555 1_555
H58_4 C102_4 1_555 1_555
C103_4 C102_4 1_555 1_555
C104_4 C103_4 1_555 1_555
H59_4 C104_4 1_555 1_555
C105_4 C100_4 1_555 1_555
H60_4 C105_4 1_555 1_555
C108_4 O43 1_555 1_555
C5_4 C6_4 1_555 1_555
C17_4 C18_4 1_555 1_555
C23_4 C24_4 1_555 1_555
O46 C108_4 1_555 1_555
C86_4 C87_4 1_555 1_555
C103_4 C108_4 1_555 1_555
C104_4 C105_4 1_555 1_555
Cd10 O1_4 1_555 1_555
Cd14 O1_4 1_555 1_555
O1_4 C25_4 1_555 1_555
O2_4 Cd14 1_555 1_555
O3_4 C25_4 1_555 1_555
O4_4 Cd14 1_555 1_555
H6_4 C11_4 1_555 1_555

#END
