
###############################################################################
#
# This file contains modified crystal structure data generated from the
# MOF subset of the Cambridge Structural Database (CSD) v543 
# hosted by the Cambridge Crystallographic Data Centre (CCDC).
#
# This work is licensed under the Creative Commons
# Attribution-NonCommercial-ShareAlike 4.0 International License.
# To view a copy of this license, visit
# http://creativecommons.org/licenses/by-nc-sa/4.0/
# or send a letter to
# Creative Commons, PO Box 1866, Mountain View, CA 94042, USA.
#
# CIF created using the CSD Python API on 29 September 2022
# The structure has been converted into the P1 space group
# The structure has a 3D framework
# The original CSD entry DAQMAM is in the rhombohedral crystal system
# The framework has been calculated to contain at least 10.0% void space
# The void calculation uses a probe of radius 1.32A, grid spacing 0.4
#
###############################################################################

data_DAQMAM
_chemical_formula_moiety         '(C486 H396 Br36 N54 O18 Zn18)n'
_symmetry_cell_setting           triclinic
_symmetry_space_group_name_H-M   'P 1'
_symmetry_Int_Tables_number      1
_space_group_name_Hall           'P 1'
loop_
_symmetry_equiv_pos_site_id
_symmetry_equiv_pos_as_xyz
1 x,y,z
_cell_length_a                   35.9593(6)
_cell_length_b                   35.9593(6)
_cell_length_c                   25.1227(3)
_cell_angle_alpha                90
_cell_angle_beta                 90
_cell_angle_gamma                120
_cell_volume                     28133.2
loop_
_atom_site_label
_atom_site_type_symbol
_atom_site_fract_x
_atom_site_fract_y
_atom_site_fract_z
N4 N 0.62959(13) 0.63484(13) 0.28670(11)
N5 N 0.50364(12) 0.49787(12) 0.22540(11)
N6 N 0.36789(13) 0.37587(12) 0.29436(11)
O2 O 0.50985(12) 0.56843(12) 0.06195(11)
C28 C 0.63810(16) 0.62799(17) 0.23707(15)
C29 C 0.60860(16) 0.59390(17) 0.20786(14)
C30 C 0.56968(16) 0.56532(16) 0.22864(14)
C31 C 0.56172(18) 0.57236(17) 0.28132(15)
C32 C 0.59212(18) 0.60748(18) 0.30759(14)
C33 C 0.53516(17) 0.52974(17) 0.19784(15)
C34 C 0.53553(16) 0.53150(16) 0.14195(14)
C35 C 0.50326(17) 0.49800(17) 0.11455(14)
C36 C 0.47086(16) 0.46401(15) 0.14282(14)
C37 C 0.47240(17) 0.46535(16) 0.19874(14)
C38 C 0.40090(18) 0.41095(19) 0.31474(16)
C39 C 0.43471(19) 0.43816(19) 0.28591(16)
C40 C 0.43677(16) 0.43215(15) 0.23168(14)
C41 C 0.40267(17) 0.39609(17) 0.21091(15)
C42 C 0.36918(17) 0.36840(17) 0.24232(15)
C43 C 0.49604(16) 0.46407(17) 0.02545(15)
C44 C 0.50179(16) 0.49937(17) 0.05478(15)
C45 C 0.50547(15) 0.53520(16) 0.02995(15)
C46 C 0.5067(3) 0.6032(2) 0.0387(2)
C47 C 0.5102(2) 0.6323(2) 0.0822(2)
C48 C 0.5529(2) 0.6538(2) 0.1068(3)
C49 C 0.5552(3) 0.6802(3) 0.1552(3)
C50 C 0.5641(3) 0.6722(3) 0.2044(3)
C51 C 0.5729(4) 0.6981(4) 0.2470(3)
C52 C 0.5668(3) 0.7312(3) 0.2439(4)
C53 C 0.5573(7) 0.7397(5) 0.1962(6)
C54 C 0.5517(5) 0.7160(4) 0.1522(5)
H23 H 0.6649 0.6472 0.2220
H24 H 0.6152 0.5894 0.1736
H25 H 0.5361 0.5535 0.2980
H26 H 0.5862 0.6120 0.3423
H27 H 0.5578 0.5546 0.1240
H28 H 0.4481 0.4412 0.1250
H29 H 0.4004 0.4166 0.3507
H30 H 0.4570 0.4616 0.3024
H31 H 0.4025 0.3903 0.1754
H32 H 0.3466 0.3437 0.2269
H33 H 0.4937 0.4402 0.0421
H34 H 0.5295 0.6185 0.0130
H35 H 0.4791 0.5925 0.0211
H36 H 0.4908 0.6159 0.1108
H37 H 0.5036 0.6537 0.0685
H38 H 0.5723 0.6737 0.0804
H39 H 0.5612 0.6329 0.1162
H40 H 0.5645 0.6470 0.2100
H41 H 0.5828 0.6922 0.2783
H42 H 0.5698 0.7482 0.2732
H43 H 0.5547 0.7641 0.1926
H44 H 0.5463 0.7244 0.1193
Zn2 Zn 0.67138(2) 0.69003(2) 0.326868(19)
Br3 Br 0.717953(18) 0.737421(17) 0.261085(17)
Br4 Br 0.62910(2) 0.70363(2) 0.386059(19)
Zn3 Zn 0.31468(3) 0.33805(2) 0.339799(19)
N7 N 0.70920(12) 0.67465(18) 0.37231(11)
Zn2_2 Zn 0.00471(2) 0.35670(2) 0.993535(19)
Br3_2 Br 0.051286(18) 0.404088(17) 0.927752(17)
Zn4 Zn 0.01865(3) 0.32862(2) 0.326868(19)
N8 N 0.95746(12) 0.65869(18) 0.96103(11)
N5_2 N 0.50213(12) 0.00577(17) 0.22540(11)
C28_2 C 0.37201(17) 0.01011(23) 0.23707(15)
C29_2 C 0.40610(17) 0.01470(23) 0.20786(14)
C30_2 C 0.43468(16) 0.00436(23) 0.22864(14)
C33_2 C 0.47026(17) 0.00542(24) 0.19784(15)
C34_2 C 0.46850(16) 0.00403(23) 0.14195(14)
C35_2 C 0.50200(17) 0.00526(24) 0.11455(14)
C36_2 C 0.53599(15) 0.00685(22) 0.14282(14)
C37_2 C 0.53465(16) 0.00705(23) 0.19874(14)
C40_2 C 0.56785(15) 0.00462(22) 0.23168(14)
C41_2 C 0.60391(17) 0.00658(24) 0.21091(15)
C42_2 C 0.63160(17) 0.00078(24) 0.24232(15)
C43_2 C 0.53593(17) 0.03197(23) 0.02545(15)
C44_2 C 0.50063(17) 0.00242(23) 0.05478(15)
H23_2 H 0.3528 0.0177 0.2220
H24_2 H 0.4106 0.0258 0.1736
H27_2 H 0.4454 0.0032 0.1240
H28_2 H 0.5588 0.0069 0.1250
H31_2 H 0.6097 0.0122 0.1754
H32_2 H 0.6563 0.0029 0.2269
H33_2 H 0.5598 0.0535 0.0421
N7_2 N 0.32535(18) 0.03456(22) 0.37231(11)
Zn1 Zn 0.02336(2) 0.68532(3) 0.339799(19)
Br1 Br 0.070754(17) 0.686135(25) 0.405582(17)
Br2 Br 0.03696(2) 0.74120(3) 0.280608(19)
C22 C 0.0135(3) 0.7917(4) 0.5115(3)
C23 C 0.0055(3) 0.7748(4) 0.4623(3)
C24 C 0.0314(4) 0.7919(6) 0.4197(3)
C25 C 0.0645(3) 0.8311(4) 0.4228(4)
C26 C 0.0730(5) 0.8491(9) 0.4705(6)
C27 C 0.0493(4) 0.8310(6) 0.5145(5)
H16 H 0.0070 0.7681 0.5863
H19 H 0.0255 0.7761 0.3884
H20 H 0.0815 0.8451 0.3935
H21 H 0.0974 0.8761 0.4741
H22 H 0.0577 0.8448 0.5474
N8_2 N 0.00798(18) 0.63211(22) 0.29436(11)
N1 N 0.96817(13) 0.67192(18) 0.37997(11)
N2 N 0.83120(12) 0.66090(17) 0.44127(11)
O1 O 0.90176(12) 0.72525(17) 0.60472(11)
C1 C 0.96132(17) 0.65656(23) 0.42960(15)
C2 C 0.92723(17) 0.65197(23) 0.45881(14)
C3 C 0.89865(16) 0.66231(23) 0.43803(14)
C4 C 0.90569(17) 0.67731(25) 0.38535(15)
C5 C 0.94081(18) 0.68203(25) 0.35908(14)
C6 C 0.86307(17) 0.66125(24) 0.46883(15)
C7 C 0.86483(16) 0.66264(23) 0.52472(14)
C8 C 0.83133(17) 0.66141(24) 0.55212(14)
C9 C 0.79734(15) 0.65982(22) 0.52385(14)
C10 C 0.79868(16) 0.65962(23) 0.46793(14)
C11 C 0.74428(19) 0.67672(26) 0.35193(16)
C12 C 0.77149(19) 0.67012(27) 0.38076(16)
C13 C 0.76548(15) 0.66205(22) 0.43499(14)
C14 C 0.72942(17) 0.66009(24) 0.45576(15)
C15 C 0.70173(17) 0.66589(24) 0.42435(15)
C16 C 0.79740(17) 0.63470(23) 0.64122(15)
C17 C 0.83270(17) 0.66425(23) 0.61189(15)
C18 C 0.86853(16) 0.69640(22) 0.63672(15)
C19 C 0.9365(2) 0.7632(4) 0.6280(2)
C20 C 0.9656(2) 0.7888(3) 0.5845(2)
C21 C 0.9871(2) 0.7676(3) 0.5599(3)
H1 H 0.9805 0.6490 0.4447
H2 H 0.9227 0.6409 0.4931
H3 H 0.8868 0.6841 0.3687
H4 H 0.9453 0.6925 0.3244
H5 H 0.8879 0.6635 0.5427
H6 H 0.7745 0.6598 0.5417
H7 H 0.7499 0.6829 0.3160
H8 H 0.7949 0.6713 0.3643
H9 H 0.7236 0.6545 0.4913
H10 H 0.6770 0.6638 0.4398
H11 H 0.7735 0.6132 0.6246
H12 H 0.9518 0.7557 0.6537
H13 H 0.9258 0.7801 0.6456
H14 H 0.9492 0.7918 0.5559
H15 H 0.9870 0.8168 0.5982
H17 H 0.9662 0.7384 0.5505
H18 H 0.9803 0.7492 0.4567
N4_2 N 0.69849(13) 0.66142(18) 0.95337(11)
N5_3 N 0.83546(12) 0.67244(17) 0.89207(11)
O2_2 O 0.76490(12) 0.60809(17) 0.72862(11)
C28_3 C 0.70534(17) 0.67678(23) 0.90374(15)
C29_3 C 0.73943(17) 0.68137(23) 0.87453(14)
C30_3 C 0.76801(16) 0.67103(23) 0.89531(14)
C31_2 C 0.76097(17) 0.65603(25) 0.94799(15)
C32_2 C 0.72585(18) 0.65131(25) 0.97426(14)
C33_3 C 0.80359(17) 0.67209(24) 0.86451(15)
C34_3 C 0.80183(16) 0.67070(23) 0.80862(14)
C35_3 C 0.83533(17) 0.67193(24) 0.78122(14)
C36_3 C 0.86932(15) 0.67352(22) 0.80949(14)
C37_3 C 0.86798(16) 0.67372(23) 0.86541(14)
C38_2 C 0.92238(19) 0.65662(26) 0.98141(16)
C39_2 C 0.89517(19) 0.66322(27) 0.95258(16)
C40_3 C 0.90118(15) 0.67129(22) 0.89835(14)
C41_3 C 0.93724(17) 0.67325(24) 0.87758(15)
C42_3 C 0.96493(17) 0.66745(24) 0.90899(15)
C43_3 C 0.86926(17) 0.69864(23) 0.69212(15)
C44_3 C 0.83396(17) 0.66909(23) 0.72145(15)
C45_2 C 0.79813(16) 0.63694(22) 0.69662(15)
C46_2 C 0.7301(2) 0.5702(4) 0.7054(2)
C47_2 C 0.7010(2) 0.5446(3) 0.7489(2)
C48_2 C 0.6795(2) 0.5658(3) 0.7735(3)
C49_2 C 0.6531(3) 0.5417(4) 0.8219(3)
C50_2 C 0.6611(3) 0.5586(4) 0.8711(3)
C51_2 C 0.6352(4) 0.5415(6) 0.9137(3)
C52_2 C 0.6021(3) 0.5023(4) 0.9106(4)
C53_2 C 0.5936(5) 0.4843(9) 0.8629(6)
C54_2 C 0.6173(4) 0.5024(6) 0.8189(5)
H23_3 H 0.6861 0.6844 0.8887
H24_3 H 0.7439 0.6925 0.8403
H25_2 H 0.7798 0.6493 0.9647
H27_3 H 0.7787 0.6699 0.7907
H28_3 H 0.8921 0.6736 0.7917
H30_2 H 0.8717 0.6621 0.9691
H31_3 H 0.9430 0.6789 0.8421
H32_3 H 0.9896 0.6696 0.8936
H33_3 H 0.8931 0.7202 0.7088
H34_2 H 0.7148 0.5777 0.6797
H35_2 H 0.7408 0.5533 0.6878
H36_2 H 0.7174 0.5416 0.7775
H37_2 H 0.6796 0.5166 0.7352
H38_2 H 0.6596 0.5653 0.7471
H39_2 H 0.7004 0.5950 0.7829
H40_2 H 0.6863 0.5842 0.8767
H41_2 H 0.6411 0.5573 0.9450
H42_2 H 0.5851 0.4883 0.9399
H43_2 H 0.5692 0.4573 0.8593
H44_2 H 0.6089 0.4886 0.7860
Zn2_3 Zn 0.64330(2) 0.64802(3) 0.993535(19)
Br3_3 Br 0.595912(17) 0.647199(25) 0.927752(17)
Br2_2 Br 0.37030(2) 0.40786(3) 0.947274(19)
H4_2 H 0.2787 0.3591 0.9910
H7_2 H 0.0833 0.3495 0.9826
N8_3 N 0.34131(18) 0.29878(22) 0.96103(11)
N4_3 N 0.00525(18) 0.37041(13) 0.28670(11)
O2_3 O 0.05858(17) 0.49015(12) 0.06195(11)
C31_3 C 0.01064(25) 0.43828(18) 0.28132(15)
C32_3 C 0.01536(25) 0.40788(18) 0.30759(14)
C38_3 C 0.01005(26) 0.59910(18) 0.31474(16)
C39_3 C 0.00345(27) 0.56529(19) 0.28591(16)
C45_3 C 0.02973(22) 0.49453(15) 0.02995(15)
C46_3 C 0.0965(4) 0.4933(3) 0.0387(2)
C47_3 C 0.1221(3) 0.4898(2) 0.0822(2)
C48_3 C 0.1009(3) 0.4471(2) 0.1068(3)
C49_3 C 0.1250(4) 0.4448(3) 0.1552(3)
C50_3 C 0.1081(4) 0.4359(3) 0.2044(3)
C51_3 C 0.1252(6) 0.4271(4) 0.2470(3)
C52_3 C 0.1644(4) 0.4332(3) 0.2439(4)
C53_3 C 0.1824(9) 0.4427(7) 0.1962(6)
C54_3 C 0.1643(6) 0.4483(5) 0.1522(5)
H25_3 H 0.0174 0.4639 0.2980
H26_2 H 0.0258 0.4138 0.3423
H29_2 H 0.0162 0.5996 0.3507
H30_3 H 0.0046 0.5430 0.3024
H34_3 H 0.0890 0.4705 0.0130
H35_3 H 0.1134 0.5209 0.0211
H36_3 H 0.1251 0.5092 0.1108
H37_3 H 0.1501 0.4964 0.0685
H38_3 H 0.1014 0.4277 0.0804
H39_3 H 0.0717 0.4388 0.1162
H40_3 H 0.0825 0.4355 0.2100
H41_3 H 0.1094 0.4172 0.2783
H42_3 H 0.1784 0.4302 0.2732
H43_3 H 0.2094 0.4453 0.1926
H44_3 H 0.1781 0.4537 0.1193
Br3_4 Br 0.019468(25) 0.282047(18) 0.261085(17)
Br4_2 Br 0.07453(3) 0.37090(2) 0.386059(19)
Br1_2 Br 0.313865(25) 0.384620(18) 0.405582(17)
Br2_3 Br 0.25880(3) 0.29577(2) 0.280608(19)
N1_2 N 0.32808(18) 0.29626(13) 0.37997(11)
N2_2 N 0.33910(17) 0.17031(12) 0.44127(11)
O1_2 O 0.27475(17) 0.17652(12) 0.60472(11)
C1_2 C 0.34344(23) 0.30477(16) 0.42960(15)
C2_2 C 0.34803(23) 0.27527(16) 0.45881(14)
C3_2 C 0.33769(23) 0.23635(16) 0.43803(14)
C4_2 C 0.32269(25) 0.22839(18) 0.38535(15)
C5_2 C 0.31797(25) 0.25879(18) 0.35908(14)
C6_2 C 0.33875(24) 0.20183(17) 0.46883(15)
C7_2 C 0.33736(23) 0.20220(16) 0.52472(14)
C8_2 C 0.33859(24) 0.16993(17) 0.55212(14)
C9_2 C 0.34018(22) 0.13753(16) 0.52385(14)
C10_2 C 0.34038(23) 0.13907(17) 0.46793(14)
C11_2 C 0.32328(26) 0.06757(18) 0.35193(16)
C12_2 C 0.32988(27) 0.10138(19) 0.38076(16)
C13_2 C 0.33795(22) 0.10344(16) 0.43499(14)
C14_2 C 0.33991(24) 0.06934(17) 0.45576(15)
C15_2 C 0.33411(24) 0.03585(17) 0.42435(15)
C16_2 C 0.36530(23) 0.16271(16) 0.64122(15)
C17_2 C 0.33575(23) 0.16846(16) 0.61189(15)
C18_2 C 0.30360(22) 0.17214(15) 0.63672(15)
C19_2 C 0.2368(4) 0.1734(3) 0.6280(2)
C20_2 C 0.2112(3) 0.1769(2) 0.5845(2)
C21_2 C 0.2324(3) 0.2196(2) 0.5599(3)
C22_2 C 0.2083(4) 0.2219(3) 0.5115(3)
C23_2 C 0.2252(4) 0.2308(3) 0.4623(3)
C24_2 C 0.2081(6) 0.2396(4) 0.4197(3)
C25_2 C 0.1689(4) 0.2335(3) 0.4228(4)
C26_2 C 0.1509(9) 0.2240(7) 0.4705(6)
C27_2 C 0.1690(6) 0.2184(5) 0.5145(5)
H1_2 H 0.3510 0.3316 0.4447
H2_2 H 0.3591 0.2819 0.4931
H3_2 H 0.3159 0.2028 0.3687
H4_3 H 0.3075 0.2529 0.3244
H5_2 H 0.3365 0.2245 0.5427
H6_2 H 0.3402 0.1148 0.5417
H7_3 H 0.3171 0.0671 0.3160
H8_2 H 0.3287 0.1237 0.3643
H9_2 H 0.3455 0.0692 0.4913
H10_2 H 0.3362 0.0133 0.4398
H11_2 H 0.3868 0.1604 0.6246
H12_2 H 0.2443 0.1962 0.6537
H13_2 H 0.2199 0.1458 0.6456
H14_2 H 0.2082 0.1575 0.5559
H15_2 H 0.1832 0.1703 0.5982
H16_2 H 0.2319 0.2390 0.5863
H17_2 H 0.2616 0.2279 0.5505
H18_2 H 0.2508 0.2312 0.4567
H19_2 H 0.2239 0.2495 0.3884
H20_2 H 0.1549 0.2365 0.3935
H21_2 H 0.1239 0.2214 0.4741
H22_2 H 0.1552 0.2130 0.5474
N4_4 N 0.33858(18) 0.03708(13) 0.95337(11)
N5_4 N 0.32756(17) 0.16303(12) 0.89207(11)
O2_4 O 0.39191(17) 0.15682(12) 0.72862(11)
C28_4 C 0.32322(23) 0.02857(16) 0.90374(15)
C29_4 C 0.31863(23) 0.05807(16) 0.87453(14)
C30_4 C 0.32897(23) 0.09699(16) 0.89531(14)
C31_4 C 0.34397(25) 0.10495(18) 0.94799(15)
C32_4 C 0.34869(25) 0.07455(18) 0.97426(14)
C33_4 C 0.32791(24) 0.13151(17) 0.86451(15)
C34_4 C 0.32930(23) 0.13114(16) 0.80862(14)
C35_4 C 0.32807(24) 0.16341(17) 0.78122(14)
C36_4 C 0.32648(22) 0.19581(16) 0.80949(14)
C37_4 C 0.32628(23) 0.19427(17) 0.86541(14)
C38_4 C 0.34338(26) 0.26577(18) 0.98141(16)
C39_4 C 0.33678(27) 0.23196(19) 0.95258(16)
C40_4 C 0.32871(22) 0.22990(16) 0.89835(14)
C41_4 C 0.32675(24) 0.26400(17) 0.87758(15)
C42_4 C 0.33255(24) 0.29749(17) 0.90899(15)
C43_4 C 0.30136(23) 0.17063(16) 0.69212(15)
C44_4 C 0.33091(23) 0.16488(16) 0.72145(15)
C45_4 C 0.36306(22) 0.16120(15) 0.69662(15)
C46_4 C 0.4298(4) 0.1600(3) 0.7054(2)
C47_4 C 0.4554(3) 0.1565(2) 0.7489(2)
C48_4 C 0.4342(3) 0.1138(2) 0.7735(3)
C49_4 C 0.4583(4) 0.1115(3) 0.8219(3)
C50_4 C 0.4414(4) 0.1026(3) 0.8711(3)
C51_4 C 0.4585(6) 0.0938(4) 0.9137(3)
C52_4 C 0.4977(4) 0.0999(3) 0.9106(4)
C53_4 C 0.5157(9) 0.1094(7) 0.8629(6)
C54_4 C 0.4976(6) 0.1150(5) 0.8189(5)
H23_4 H 0.3156 0.0018 0.8887
H24_4 H 0.3075 0.0515 0.8403
H25_4 H 0.3507 0.1306 0.9647
H27_4 H 0.3301 0.1089 0.7907
H28_4 H 0.3264 0.2186 0.7917
H30_4 H 0.3379 0.2097 0.9691
H31_4 H 0.3211 0.2642 0.8421
H32_4 H 0.3304 0.3201 0.8936
H33_4 H 0.2798 0.1730 0.7088
H34_4 H 0.4223 0.1372 0.6797
H35_4 H 0.4467 0.1876 0.6878
H36_4 H 0.4584 0.1759 0.7775
H37_4 H 0.4834 0.1631 0.7352
H38_4 H 0.4347 0.0944 0.7471
H39_4 H 0.4050 0.1055 0.7829
H40_4 H 0.4158 0.1022 0.8767
H41_4 H 0.4427 0.0839 0.9450
H42_4 H 0.5117 0.0969 0.9399
H43_4 H 0.5427 0.1120 0.8593
H44_4 H 0.5114 0.1204 0.7860
Br2_4 Br 0.59214(3) 0.96243(2) 0.947274(19)
H4_4 H 0.6409 0.9195 0.9910
H7_4 H 0.6505 0.7337 0.9826
Zn1_2 Zn 0.32862(2) 0.30997(2) 0.673132(19)
Br1_3 Br 0.282047(18) 0.262579(17) 0.738915(17)
Br2_5 Br 0.37090(2) 0.29637(2) 0.613941(19)
N1_3 N 0.37041(13) 0.36516(13) 0.71330(11)
N2_3 N 0.49636(12) 0.50213(12) 0.77460(11)
N3 N 0.63211(13) 0.62413(12) 0.70564(11)
O1_3 O 0.49015(12) 0.43157(12) 0.93805(11)
C1_3 C 0.36190(16) 0.37201(17) 0.76293(15)
C2_3 C 0.39140(16) 0.40610(17) 0.79214(14)
C3_3 C 0.43032(16) 0.43468(16) 0.77136(14)
C4_3 C 0.43828(18) 0.42764(17) 0.71868(15)
C5_3 C 0.40788(18) 0.39252(18) 0.69241(14)
C6_3 C 0.46484(17) 0.47026(17) 0.80216(15)
C7_3 C 0.46447(16) 0.46850(16) 0.85805(14)
C8_3 C 0.49674(17) 0.50200(17) 0.88545(14)
C9_3 C 0.52914(16) 0.53599(15) 0.85718(14)
C10_3 C 0.52760(17) 0.53465(16) 0.80126(14)
C11_3 C 0.59910(18) 0.58905(19) 0.68526(16)
C12_3 C 0.56529(19) 0.56184(19) 0.71409(16)
C13_3 C 0.56323(16) 0.56785(15) 0.76832(14)
C14_3 C 0.59733(17) 0.60391(17) 0.78909(15)
C15_3 C 0.63082(17) 0.63160(17) 0.75768(15)
C16_3 C 0.50396(16) 0.53593(17) 0.97455(15)
C17_3 C 0.49821(16) 0.50063(17) 0.94522(15)
C18_3 C 0.49453(15) 0.46480(16) 0.97005(15)
C19_3 C 0.4933(3) 0.3968(2) 0.9613(2)
C20_3 C 0.4898(2) 0.3677(2) 0.9178(2)
C21_3 C 0.4471(2) 0.3462(2) 0.8932(3)
C22_3 C 0.4448(3) 0.3198(3) 0.8448(3)
C23_3 C 0.4359(3) 0.3278(3) 0.7956(3)
C24_3 C 0.4271(4) 0.3019(4) 0.7530(3)
C25_3 C 0.4332(3) 0.2688(3) 0.7561(4)
C26_3 C 0.4427(7) 0.2603(5) 0.8038(6)
C27_3 C 0.4483(5) 0.2840(4) 0.8478(5)
H1_3 H 0.3351 0.3528 0.7780
H2_3 H 0.3848 0.4106 0.8264
H3_3 H 0.4639 0.4465 0.7020
H4_5 H 0.4138 0.3880 0.6577
H5_3 H 0.4422 0.4454 0.8760
H6_3 H 0.5519 0.5588 0.8750
H7_5 H 0.5996 0.5834 0.6493
H8_3 H 0.5430 0.5384 0.6976
H9_3 H 0.5975 0.6097 0.8246
H10_3 H 0.6534 0.6563 0.7731
H11_3 H 0.5063 0.5598 0.9579
H12_3 H 0.4705 0.3815 0.9870
H13_3 H 0.5209 0.4075 0.9789
H14_3 H 0.5092 0.3841 0.8892
H15_3 H 0.4964 0.3463 0.9315
H16_3 H 0.4277 0.3263 0.9196
H17_3 H 0.4388 0.3671 0.8838
H18_3 H 0.4355 0.3530 0.7900
H19_3 H 0.4172 0.3078 0.7217
H20_3 H 0.4302 0.2518 0.7268
H21_3 H 0.4453 0.2359 0.8074
H22_3 H 0.4537 0.2756 0.8807
Zn4_2 Zn 0.68532(3) 0.66195(2) 0.660201(19)
N8_4 N 0.29080(12) 0.32535(18) 0.62769(11)
N7_3 N 0.04254(12) 0.34131(18) 0.03897(11)
Zn1_3 Zn 0.99529(2) 0.64330(2) 0.006465(19)
Br1_4 Br 0.948714(18) 0.595912(17) 0.072248(17)
Zn3_2 Zn 0.98135(3) 0.67138(2) 0.673132(19)
N2_4 N 0.49787(12) 0.99423(17) 0.77460(11)
C1_4 C 0.62799(17) 0.98989(23) 0.76293(15)
C2_4 C 0.59390(17) 0.98530(23) 0.79214(14)
C3_4 C 0.56532(16) 0.99564(23) 0.77136(14)
C6_4 C 0.52974(17) 0.99458(24) 0.80216(15)
C7_4 C 0.53150(16) 0.99597(23) 0.85805(14)
C8_4 C 0.49800(17) 0.99474(24) 0.88545(14)
C9_4 C 0.46401(15) 0.99315(22) 0.85718(14)
C10_4 C 0.46535(16) 0.99295(23) 0.80126(14)
C13_4 C 0.43215(15) 0.99538(22) 0.76832(14)
C14_4 C 0.39609(17) 0.99342(24) 0.78909(15)
C15_4 C 0.36840(17) 0.99922(24) 0.75768(15)
C16_4 C 0.46407(17) 0.96803(23) 0.97455(15)
C17_4 C 0.49937(17) 0.99758(23) 0.94522(15)
H1_4 H 0.6472 0.9823 0.7780
H2_4 H 0.5894 0.9742 0.8264
H5_4 H 0.5546 0.9968 0.8760
H6_4 H 0.4412 0.9931 0.8750
H9_4 H 0.3903 0.9878 0.8246
H10_4 H 0.3437 0.9971 0.7731
H11_4 H 0.4402 0.9465 0.9579
N8_5 N 0.67465(18) 0.96544(22) 0.62769(11)
H26_3 H 0.7213 0.6409 0.0090
H29_3 H 0.9167 0.6505 0.0174
Br4_3 Br 0.62970(2) 0.59214(3) 0.052726(19)
N7_4 N 0.65869(18) 0.70122(22) 0.03897(11)
Zn1_4 Zn 0.35670(2) 0.35198(3) 0.006465(19)
Br1_5 Br 0.404088(17) 0.352801(25) 0.072248(17)
N1_4 N 0.30151(13) 0.33858(18) 0.04663(11)
N2_5 N 0.16454(12) 0.32756(17) 0.10793(11)
O1_4 O 0.23510(12) 0.39191(17) 0.27138(11)
C1_5 C 0.29466(17) 0.32322(23) 0.09626(15)
C2_5 C 0.26057(17) 0.31863(23) 0.12547(14)
C3_5 C 0.23199(16) 0.32897(23) 0.10469(14)
C4_4 C 0.23903(17) 0.34397(25) 0.05201(15)
C5_4 C 0.27415(18) 0.34869(25) 0.02574(14)
C6_5 C 0.19641(17) 0.32791(24) 0.13549(15)
C7_5 C 0.19817(16) 0.32930(23) 0.19138(14)
C8_5 C 0.16467(17) 0.32807(24) 0.21878(14)
C9_5 C 0.13068(15) 0.32648(22) 0.19051(14)
C10_5 C 0.13202(16) 0.32628(23) 0.13459(14)
C11_4 C 0.07762(19) 0.34338(26) 0.01859(16)
C12_4 C 0.10483(19) 0.33678(27) 0.04742(16)
C13_5 C 0.09882(15) 0.32871(22) 0.10165(14)
C14_5 C 0.06276(17) 0.32675(24) 0.12242(15)
C15_5 C 0.03507(17) 0.33255(24) 0.09101(15)
C16_5 C 0.13074(17) 0.30136(23) 0.30788(15)
C17_5 C 0.16604(17) 0.33091(23) 0.27855(15)
C18_4 C 0.20187(16) 0.36306(22) 0.30338(15)
C19_4 C 0.2699(2) 0.4298(4) 0.2946(2)
C20_4 C 0.2990(2) 0.4554(3) 0.2511(2)
C21_4 C 0.3205(2) 0.4342(3) 0.2265(3)
C22_4 C 0.3469(3) 0.4583(4) 0.1781(3)
C23_4 C 0.3389(3) 0.4414(4) 0.1289(3)
C24_4 C 0.3648(4) 0.4585(6) 0.0863(3)
C25_4 C 0.3979(3) 0.4977(4) 0.0894(4)
C26_4 C 0.4064(5) 0.5157(9) 0.1371(6)
C27_4 C 0.3827(4) 0.4976(6) 0.1811(5)
H1_5 H 0.3139 0.3156 0.1113
H2_5 H 0.2561 0.3075 0.1597
H3_4 H 0.2202 0.3507 0.0353
H5_5 H 0.2213 0.3301 0.2093
H6_5 H 0.1079 0.3264 0.2083
H8_4 H 0.1283 0.3379 0.0309
H9_5 H 0.0570 0.3211 0.1579
H10_5 H 0.0104 0.3304 0.1064
H11_5 H 0.1069 0.2798 0.2912
H12_4 H 0.2852 0.4223 0.3203
H13_4 H 0.2592 0.4467 0.3122
H14_4 H 0.2826 0.4584 0.2225
H15_4 H 0.3204 0.4834 0.2648
H16_4 H 0.3404 0.4347 0.2529
H17_4 H 0.2996 0.4050 0.2171
H18_4 H 0.3137 0.4158 0.1233
H19_4 H 0.3589 0.4427 0.0550
H20_4 H 0.4149 0.5117 0.0601
H21_4 H 0.4308 0.5427 0.1407
H22_4 H 0.3911 0.5114 0.2140
N4_5 N 0.03183(13) 0.32808(18) 0.62003(11)
N5_5 N 0.16880(12) 0.33910(17) 0.55873(11)
O2_5 O 0.09824(12) 0.27475(17) 0.39528(11)
C28_5 C 0.03868(17) 0.34344(23) 0.57040(15)
C29_5 C 0.07277(17) 0.34803(23) 0.54119(14)
C30_5 C 0.10135(16) 0.33769(23) 0.56197(14)
C31_5 C 0.09431(17) 0.32269(25) 0.61465(15)
C32_5 C 0.05919(18) 0.31797(25) 0.64092(14)
C33_5 C 0.13693(17) 0.33875(24) 0.53117(15)
C34_5 C 0.13517(16) 0.33736(23) 0.47528(14)
C35_5 C 0.16867(17) 0.33859(24) 0.44788(14)
C36_5 C 0.20266(15) 0.34018(22) 0.47615(14)
C37_5 C 0.20132(16) 0.34038(23) 0.53207(14)
C38_5 C 0.25572(19) 0.32328(26) 0.64807(16)
C39_5 C 0.22851(19) 0.32988(27) 0.61924(16)
C40_5 C 0.23452(15) 0.33795(22) 0.56501(14)
C41_5 C 0.27058(17) 0.33991(24) 0.54424(15)
C42_5 C 0.29827(17) 0.33411(24) 0.57565(15)
C43_5 C 0.20260(17) 0.36530(23) 0.35878(15)
C44_5 C 0.16730(17) 0.33575(23) 0.38811(15)
C45_5 C 0.13147(16) 0.30360(22) 0.36328(15)
C46_5 C 0.0635(2) 0.2368(4) 0.3720(2)
C47_5 C 0.0344(2) 0.2112(3) 0.4155(2)
C48_5 C 0.0129(2) 0.2324(3) 0.4401(3)
H23_5 H 0.0195 0.3510 0.5553
H24_5 H 0.0773 0.3591 0.5069
H25_5 H 0.1132 0.3159 0.6313
H26_4 H 0.0547 0.3075 0.6756
H27_5 H 0.1121 0.3365 0.4573
H28_5 H 0.2255 0.3402 0.4583
H29_4 H 0.2501 0.3171 0.6840
H30_5 H 0.2051 0.3287 0.6357
H31_5 H 0.2764 0.3455 0.5087
H32_5 H 0.3230 0.3362 0.5602
H33_5 H 0.2265 0.3868 0.3754
H34_5 H 0.0482 0.2443 0.3463
H35_5 H 0.0742 0.2199 0.3544
H36_5 H 0.0508 0.2082 0.4441
H37_5 H 0.0130 0.1832 0.4018
H39_5 H 0.0338 0.2616 0.4495
H40_5 H 0.0197 0.2508 0.5433
C49_5 C 0.9865(3) 0.2083(4) 0.4885(3)
C50_5 C 0.9945(3) 0.2252(4) 0.5377(3)
C51_5 C 0.9686(4) 0.2081(6) 0.5803(3)
C52_5 C 0.9355(3) 0.1689(4) 0.5772(4)
C53_5 C 0.9270(5) 0.1509(9) 0.5295(6)
C54_5 C 0.9507(4) 0.1690(6) 0.4855(5)
H38_5 H 0.9930 0.2319 0.4137
H41_5 H 0.9745 0.2239 0.6116
H42_5 H 0.9185 0.1549 0.6065
H43_5 H 0.9026 0.1239 0.5259
H44_5 H 0.9423 0.1552 0.4526
Zn2_4 Zn 0.97664(2) 0.31468(3) 0.660201(19)
Br3_5 Br 0.929246(17) 0.313865(25) 0.594418(17)
Br4_4 Br 0.96304(2) 0.25880(3) 0.719392(19)
N7_5 N 0.99202(18) 0.36789(22) 0.70564(11)
Br1_6 Br 0.980532(25) 0.717953(18) 0.738915(17)
Br2_6 Br 0.92547(3) 0.62910(2) 0.613941(19)
N1_5 N 0.99475(18) 0.62959(13) 0.71330(11)
O1_5 O 0.94142(17) 0.50985(12) 0.93805(11)
C4_5 C 0.98936(25) 0.56172(18) 0.71868(15)
C5_5 C 0.98464(25) 0.59212(18) 0.69241(14)
C11_5 C 0.98995(26) 0.40090(18) 0.68526(16)
C12_5 C 0.99655(27) 0.43471(19) 0.71409(16)
C18_5 C 0.97027(22) 0.50547(15) 0.97005(15)
C19_5 C 0.9035(4) 0.5067(3) 0.9613(2)
C20_5 C 0.8779(3) 0.5102(2) 0.9178(2)
C21_5 C 0.8991(3) 0.5529(2) 0.8932(3)
C22_5 C 0.8750(4) 0.5552(3) 0.8448(3)
C23_5 C 0.8919(4) 0.5641(3) 0.7956(3)
C24_5 C 0.8748(6) 0.5729(4) 0.7530(3)
C25_5 C 0.8356(4) 0.5668(3) 0.7561(4)
C26_5 C 0.8176(9) 0.5573(7) 0.8038(6)
C27_5 C 0.8357(6) 0.5517(5) 0.8478(5)
H3_5 H 0.9826 0.5361 0.7020
H4_6 H 0.9742 0.5862 0.6577
H7_6 H 0.9838 0.4004 0.6493
H8_5 H 0.9954 0.4570 0.6976
H12_5 H 0.9110 0.5295 0.9870
H13_5 H 0.8866 0.4791 0.9789
H14_5 H 0.8749 0.4908 0.8892
H15_5 H 0.8499 0.5036 0.9315
H16_5 H 0.8986 0.5723 0.9196
H17_5 H 0.9283 0.5612 0.8838
H18_5 H 0.9175 0.5645 0.7900
H19_5 H 0.8906 0.5828 0.7217
H20_5 H 0.8216 0.5698 0.7268
H21_5 H 0.7906 0.5547 0.8074
H22_5 H 0.8219 0.5463 0.8807
H26_5 H 0.3591 0.0805 0.0090
H29_5 H 0.3495 0.2663 0.0174
Br4_5 Br 0.40786(3) 0.03757(2) 0.052726(19)
N1_6 N 0.66142(18) 0.96292(13) 0.04663(11)
N2_6 N 0.67244(17) 0.83697(12) 0.10793(11)
O1_6 O 0.60809(17) 0.84318(12) 0.27138(11)
C1_6 C 0.67678(23) 0.97143(16) 0.09626(15)
C2_6 C 0.68137(23) 0.94193(16) 0.12547(14)
C3_6 C 0.67103(23) 0.90301(16) 0.10469(14)
C4_6 C 0.65603(25) 0.89505(18) 0.05201(15)
C5_6 C 0.65131(25) 0.92545(18) 0.02574(14)
C6_6 C 0.67209(24) 0.86849(17) 0.13549(15)
C7_6 C 0.67070(23) 0.86886(16) 0.19138(14)
C8_6 C 0.67193(24) 0.83659(17) 0.21878(14)
C9_6 C 0.67352(22) 0.80419(16) 0.19051(14)
C10_6 C 0.67372(23) 0.80573(17) 0.13459(14)
C11_6 C 0.65662(26) 0.73423(18) 0.01859(16)
C12_6 C 0.66322(27) 0.76804(19) 0.04742(16)
C13_6 C 0.67129(22) 0.77010(16) 0.10165(14)
C14_6 C 0.67325(24) 0.73600(17) 0.12242(15)
C15_6 C 0.66745(24) 0.70251(17) 0.09101(15)
C16_6 C 0.69864(23) 0.82937(16) 0.30788(15)
C17_6 C 0.66909(23) 0.83512(16) 0.27855(15)
C18_6 C 0.63694(22) 0.83880(15) 0.30338(15)
C19_6 C 0.5702(4) 0.8400(3) 0.2946(2)
C20_6 C 0.5446(3) 0.8435(2) 0.2511(2)
C21_6 C 0.5658(3) 0.8862(2) 0.2265(3)
C22_6 C 0.5417(4) 0.8885(3) 0.1781(3)
C23_6 C 0.5586(4) 0.8974(3) 0.1289(3)
C24_6 C 0.5415(6) 0.9062(4) 0.0863(3)
C25_6 C 0.5023(4) 0.9001(3) 0.0894(4)
C26_6 C 0.4843(9) 0.8906(7) 0.1371(6)
C27_6 C 0.5024(6) 0.8850(5) 0.1811(5)
H1_6 H 0.6844 0.9982 0.1113
H2_6 H 0.6925 0.9485 0.1597
H3_6 H 0.6493 0.8694 0.0353
H5_6 H 0.6699 0.8911 0.2093
H6_6 H 0.6736 0.7814 0.2083
H8_6 H 0.6621 0.7903 0.0309
H9_6 H 0.6789 0.7358 0.1579
H10_6 H 0.6696 0.6799 0.1064
H11_6 H 0.7202 0.8270 0.2912
H12_6 H 0.5777 0.8628 0.3203
H13_6 H 0.5533 0.8124 0.3122
H14_6 H 0.5416 0.8241 0.2225
H15_6 H 0.5166 0.8369 0.2648
H16_6 H 0.5653 0.9056 0.2529
H17_6 H 0.5950 0.8945 0.2171
H18_6 H 0.5842 0.8978 0.1233
H19_6 H 0.5573 0.9161 0.0550
H20_6 H 0.4883 0.9031 0.0601
H21_6 H 0.4573 0.8880 0.1407
H22_6 H 0.4886 0.8796 0.2140
N4_6 N 0.67192(18) 0.70374(13) 0.62003(11)
N5_6 N 0.66090(17) 0.82969(12) 0.55873(11)
O2_6 O 0.72525(17) 0.82348(12) 0.39528(11)
C28_6 C 0.65656(23) 0.69523(16) 0.57040(15)
C29_6 C 0.65197(23) 0.72473(16) 0.54119(14)
C30_6 C 0.66231(23) 0.76365(16) 0.56197(14)
C31_6 C 0.67731(25) 0.77161(18) 0.61465(15)
C32_6 C 0.68203(25) 0.74121(18) 0.64092(14)
C33_6 C 0.66125(24) 0.79817(17) 0.53117(15)
C34_6 C 0.66264(23) 0.79780(16) 0.47528(14)
C35_6 C 0.66141(24) 0.83007(17) 0.44788(14)
C36_6 C 0.65982(22) 0.86247(16) 0.47615(14)
C37_6 C 0.65962(23) 0.86093(17) 0.53207(14)
C38_6 C 0.67672(26) 0.93243(18) 0.64807(16)
C39_6 C 0.67012(27) 0.89862(19) 0.61924(16)
C40_6 C 0.66205(22) 0.89656(16) 0.56501(14)
C41_6 C 0.66009(24) 0.93066(17) 0.54424(15)
C42_6 C 0.66589(24) 0.96415(17) 0.57565(15)
C43_6 C 0.63470(23) 0.83729(16) 0.35878(15)
C44_6 C 0.66425(23) 0.83154(16) 0.38811(15)
C45_6 C 0.69640(22) 0.82786(15) 0.36328(15)
C46_6 C 0.7632(4) 0.8266(3) 0.3720(2)
C47_6 C 0.7888(3) 0.8231(2) 0.4155(2)
C48_6 C 0.7676(3) 0.7804(2) 0.4401(3)
C49_6 C 0.7917(4) 0.7781(3) 0.4885(3)
C50_6 C 0.7748(4) 0.7692(3) 0.5377(3)
C51_6 C 0.7919(6) 0.7604(4) 0.5803(3)
C52_6 C 0.8311(4) 0.7665(3) 0.5772(4)
C53_6 C 0.8491(9) 0.7760(7) 0.5295(6)
C54_6 C 0.8310(6) 0.7816(5) 0.4855(5)
H23_6 H 0.6490 0.6684 0.5553
H24_6 H 0.6409 0.7181 0.5069
H25_6 H 0.6841 0.7972 0.6313
H26_6 H 0.6925 0.7471 0.6756
H27_6 H 0.6635 0.7755 0.4573
H28_6 H 0.6598 0.8852 0.4583
H29_6 H 0.6829 0.9329 0.6840
H30_6 H 0.6713 0.8763 0.6357
H31_6 H 0.6545 0.9308 0.5087
H32_6 H 0.6638 0.9867 0.5602
H33_6 H 0.6132 0.8396 0.3754
H34_6 H 0.7557 0.8038 0.3463
H35_6 H 0.7801 0.8542 0.3544
H36_6 H 0.7918 0.8425 0.4441
H37_6 H 0.8168 0.8297 0.4018
H38_6 H 0.7681 0.7610 0.4137
H39_6 H 0.7384 0.7721 0.4495
H40_6 H 0.7492 0.7688 0.5433
H41_6 H 0.7761 0.7505 0.6116
H42_6 H 0.8451 0.7635 0.6065
H43_6 H 0.8761 0.7786 0.5259
H44_6 H 0.8448 0.7870 0.4526
Br3_6 Br 0.686135(25) 0.615380(18) 0.594418(17)
Br4_6 Br 0.74120(3) 0.70423(2) 0.719392(19)
H26_7 H 0.9195 0.2787 0.0090
H29_7 H 0.7337 0.0833 0.0174
Br4_7 Br 0.96243(2) 0.37030(2) 0.052726(19)
Zn3_3 Zn 0.64802(3) 0.00471(2) 0.006465(19)
C49_7 C 0.2219(3) 0.0135(3) 0.4885(3)
C50_7 C 0.2308(3) 0.0055(3) 0.5377(3)
C51_7 C 0.2396(4) 0.0314(4) 0.5803(3)
C52_7 C 0.2335(3) 0.0645(3) 0.5772(4)
C53_7 C 0.2240(7) 0.0730(5) 0.5295(6)
C54_7 C 0.2184(5) 0.0493(4) 0.4855(5)
H38_7 H 0.2390 0.0070 0.4137
H41_7 H 0.2495 0.0255 0.6116
H42_7 H 0.2365 0.0815 0.6065
H43_7 H 0.2214 0.0974 0.5259
H44_7 H 0.2130 0.0577 0.4526
Zn2_5 Zn 0.33805(2) 0.02336(2) 0.660201(19)
Br3_7 Br 0.384620(18) 0.070754(17) 0.594418(17)
Br4_8 Br 0.29577(2) 0.03696(2) 0.719392(19)
N7_6 N 0.37587(12) 0.00798(18) 0.70564(11)
Zn1_5 Zn 0.69003(2) 0.01865(3) 0.673132(19)
Br1_7 Br 0.737421(17) 0.019468(25) 0.738915(17)
Br2_7 Br 0.70363(2) 0.07453(3) 0.613941(19)
N1_7 N 0.63484(13) 0.00525(18) 0.71330(11)
O1_7 O 0.56843(12) 0.05858(17) 0.93805(11)
C4_7 C 0.57236(17) 0.01064(25) 0.71868(15)
C5_7 C 0.60748(18) 0.01536(25) 0.69241(14)
C11_7 C 0.41095(19) 0.01005(26) 0.68526(16)
C12_7 C 0.43816(19) 0.00345(27) 0.71409(16)
C18_7 C 0.53520(16) 0.02973(22) 0.97005(15)
C19_7 C 0.6032(2) 0.0965(4) 0.9613(2)
C20_7 C 0.6323(2) 0.1221(3) 0.9178(2)
C21_7 C 0.6538(2) 0.1009(3) 0.8932(3)
C22_7 C 0.6802(3) 0.1250(4) 0.8448(3)
C23_7 C 0.6722(3) 0.1081(4) 0.7956(3)
C24_7 C 0.6981(4) 0.1252(6) 0.7530(3)
C25_7 C 0.7312(3) 0.1644(4) 0.7561(4)
C26_7 C 0.7397(5) 0.1824(9) 0.8038(6)
C27_7 C 0.7160(4) 0.1643(6) 0.8478(5)
H3_7 H 0.5535 0.0174 0.7020
H4_7 H 0.6120 0.0258 0.6577
H7_7 H 0.4166 0.0162 0.6493
H8_7 H 0.4616 0.0046 0.6976
H12_7 H 0.6185 0.0890 0.9870
H13_7 H 0.5925 0.1134 0.9789
H14_7 H 0.6159 0.1251 0.8892
H15_7 H 0.6537 0.1501 0.9315
H16_7 H 0.6737 0.1014 0.9196
H17_7 H 0.6329 0.0717 0.8838
H18_7 H 0.6470 0.0825 0.7900
H19_7 H 0.6922 0.1094 0.7217
H20_7 H 0.7482 0.1784 0.7268
H21_7 H 0.7641 0.2094 0.8074
H22_7 H 0.7244 0.1781 0.8807
Br1_8 Br 0.647199(25) 0.051286(18) 0.072248(17)
N1_8 N 0.70374(13) 0.03183(13) 0.37997(11)
N2_7 N 0.82969(12) 0.16880(12) 0.44127(11)
N3_2 N 0.96544(13) 0.29080(12) 0.37231(11)
O1_8 O 0.82348(12) 0.09824(12) 0.60472(11)
C1_7 C 0.69523(16) 0.03868(17) 0.42960(15)
C2_7 C 0.72473(16) 0.07277(17) 0.45881(14)
C3_7 C 0.76365(16) 0.10135(16) 0.43803(14)
C4_8 C 0.77161(18) 0.09431(17) 0.38535(15)
C5_8 C 0.74121(18) 0.05919(18) 0.35908(14)
C6_7 C 0.79817(17) 0.13693(17) 0.46883(15)
C7_7 C 0.79780(16) 0.13517(16) 0.52472(14)
C8_7 C 0.83007(17) 0.16867(17) 0.55212(14)
C9_7 C 0.86247(16) 0.20266(15) 0.52385(14)
C10_7 C 0.86093(17) 0.20132(16) 0.46793(14)
C11_8 C 0.93243(18) 0.25572(19) 0.35193(16)
C12_8 C 0.89862(19) 0.22851(19) 0.38076(16)
C13_7 C 0.89656(16) 0.23452(15) 0.43499(14)
C14_7 C 0.93066(17) 0.27058(17) 0.45576(15)
C15_7 C 0.96415(17) 0.29827(17) 0.42435(15)
C16_7 C 0.83729(16) 0.20260(17) 0.64122(15)
C17_7 C 0.83154(16) 0.16730(17) 0.61189(15)
C18_8 C 0.82786(15) 0.13147(16) 0.63672(15)
C19_8 C 0.8266(3) 0.0635(2) 0.6280(2)
C20_8 C 0.8231(2) 0.0344(2) 0.5845(2)
C21_8 C 0.7804(2) 0.0129(2) 0.5599(3)
H1_7 H 0.6684 0.0195 0.4447
H2_7 H 0.7181 0.0773 0.4931
H3_8 H 0.7972 0.1132 0.3687
H4_8 H 0.7471 0.0547 0.3244
H5_7 H 0.7755 0.1121 0.5427
H6_7 H 0.8852 0.2255 0.5417
H7_8 H 0.9329 0.2501 0.3160
H8_8 H 0.8763 0.2051 0.3643
H9_7 H 0.9308 0.2764 0.4913
H10_7 H 0.9867 0.3230 0.4398
H11_7 H 0.8396 0.2265 0.6246
H12_8 H 0.8038 0.0482 0.6537
H13_8 H 0.8542 0.0742 0.6456
H14_8 H 0.8425 0.0508 0.5559
H15_8 H 0.8297 0.0130 0.5982
H17_8 H 0.7721 0.0338 0.5505
H18_8 H 0.7688 0.0197 0.4567
N4_7 N 0.96292(13) 0.30151(13) 0.95337(11)
N5_7 N 0.83697(12) 0.16454(12) 0.89207(11)
N6_2 N 0.70122(13) 0.04254(12) 0.96103(11)
O2_7 O 0.84318(12) 0.23510(12) 0.72862(11)
C28_7 C 0.97143(16) 0.29466(17) 0.90374(15)
C29_7 C 0.94193(16) 0.26057(17) 0.87453(14)
C30_7 C 0.90301(16) 0.23199(16) 0.89531(14)
C31_7 C 0.89505(18) 0.23903(17) 0.94799(15)
C32_7 C 0.92545(18) 0.27415(18) 0.97426(14)
C33_7 C 0.86849(17) 0.19641(17) 0.86451(15)
C34_7 C 0.86886(16) 0.19817(16) 0.80862(14)
C35_7 C 0.83659(17) 0.16467(17) 0.78122(14)
C36_7 C 0.80419(16) 0.13068(15) 0.80949(14)
C37_7 C 0.80573(17) 0.13202(16) 0.86541(14)
C38_7 C 0.73423(18) 0.07762(19) 0.98141(16)
C39_7 C 0.76804(19) 0.10483(19) 0.95258(16)
C40_7 C 0.77010(16) 0.09882(15) 0.89835(14)
C41_7 C 0.73600(17) 0.06276(17) 0.87758(15)
C42_7 C 0.70251(17) 0.03507(17) 0.90899(15)
C43_7 C 0.82937(16) 0.13074(17) 0.69212(15)
C44_7 C 0.83512(16) 0.16604(17) 0.72145(15)
C45_7 C 0.83880(15) 0.20187(16) 0.69662(15)
C46_7 C 0.8400(3) 0.2699(2) 0.7054(2)
C47_7 C 0.8435(2) 0.2990(2) 0.7489(2)
C48_7 C 0.8862(2) 0.3205(2) 0.7735(3)
C49_8 C 0.8885(3) 0.3469(3) 0.8219(3)
C50_8 C 0.8974(3) 0.3389(3) 0.8711(3)
C51_8 C 0.9062(4) 0.3648(4) 0.9137(3)
C52_8 C 0.9001(3) 0.3979(3) 0.9106(4)
C53_8 C 0.8906(7) 0.4064(5) 0.8629(6)
C54_8 C 0.8850(5) 0.3827(4) 0.8189(5)
H23_7 H 0.9982 0.3139 0.8887
H24_7 H 0.9485 0.2561 0.8403
H25_7 H 0.8694 0.2202 0.9647
H27_7 H 0.8911 0.2213 0.7907
H28_7 H 0.7814 0.1079 0.7917
H30_7 H 0.7903 0.1283 0.9691
H31_7 H 0.7358 0.0570 0.8421
H32_7 H 0.6799 0.0104 0.8936
H33_7 H 0.8270 0.1069 0.7088
H34_7 H 0.8628 0.2852 0.6797
H35_7 H 0.8124 0.2592 0.6878
H36_7 H 0.8241 0.2826 0.7775
H37_7 H 0.8369 0.3204 0.7352
H38_8 H 0.9056 0.3404 0.7471
H39_7 H 0.8945 0.2996 0.7829
H40_7 H 0.8978 0.3137 0.8767
H41_8 H 0.9161 0.3589 0.9450
H42_8 H 0.9031 0.4149 0.9399
H43_8 H 0.8880 0.4308 0.8593
H44_8 H 0.8796 0.3911 0.7860
N5_8 N 0.99423(17) 0.49636(12) 0.22540(11)
C28_8 C 0.98989(23) 0.36190(16) 0.23707(15)
C29_8 C 0.98530(23) 0.39140(16) 0.20786(14)
C30_8 C 0.99564(23) 0.43032(16) 0.22864(14)
C33_8 C 0.99458(24) 0.46484(17) 0.19784(15)
C34_8 C 0.99597(23) 0.46447(16) 0.14195(14)
C35_8 C 0.99474(24) 0.49674(17) 0.11455(14)
C36_8 C 0.99315(22) 0.52914(16) 0.14282(14)
C37_8 C 0.99295(23) 0.52760(17) 0.19874(14)
C40_8 C 0.99538(22) 0.56323(16) 0.23168(14)
C41_8 C 0.99342(24) 0.59733(17) 0.21091(15)
C42_8 C 0.99922(24) 0.63082(17) 0.24232(15)
C43_8 C 0.96803(23) 0.50396(16) 0.02545(15)
C44_8 C 0.99758(23) 0.49821(16) 0.05478(15)
H23_8 H 0.9823 0.3351 0.2220
H24_8 H 0.9742 0.3848 0.1736
H27_8 H 0.9968 0.4422 0.1240
H28_8 H 0.9931 0.5519 0.1250
H31_8 H 0.9878 0.5975 0.1754
H32_8 H 0.9971 0.6534 0.2269
H33_8 H 0.9465 0.5063 0.0421
Zn1_6 Zn 0.66195(2) 0.97664(2) 0.339799(19)
Br1_9 Br 0.615380(18) 0.929246(17) 0.405582(17)
Br2_8 Br 0.70423(2) 0.96304(2) 0.280608(19)
C22_8 C 0.7781(3) 0.9865(3) 0.5115(3)
C23_8 C 0.7692(3) 0.9945(3) 0.4623(3)
C24_8 C 0.7604(4) 0.9686(4) 0.4197(3)
C25_8 C 0.7665(3) 0.9355(3) 0.4228(4)
C26_8 C 0.7760(7) 0.9270(5) 0.4705(6)
C27_8 C 0.7816(5) 0.9507(4) 0.5145(5)
H16_8 H 0.7610 0.9930 0.5863
H19_8 H 0.7505 0.9745 0.3884
H20_8 H 0.7635 0.9185 0.3935
H21_8 H 0.7786 0.9026 0.4741
H22_8 H 0.7870 0.9423 0.5474
N8_6 N 0.62413(12) 0.99202(18) 0.29436(11)
Br2_9 Br 0.03757(2) 0.62970(2) 0.947274(19)
H4_9 H 0.0805 0.7213 0.9910
H7_9 H 0.2663 0.9167 0.9826
Zn4_3 Zn 0.35198(3) 0.99529(2) 0.993535(19)
N4_8 N 0.36516(13) 0.99475(18) 0.28670(11)
O2_8 O 0.43157(12) 0.94142(17) 0.06195(11)
C31_8 C 0.42764(17) 0.98936(25) 0.28132(15)
C32_8 C 0.39252(18) 0.98464(25) 0.30759(14)
C38_8 C 0.58905(19) 0.98995(26) 0.31474(16)
C39_8 C 0.56184(19) 0.99655(27) 0.28591(16)
C45_8 C 0.46480(16) 0.97027(22) 0.02995(15)
C46_8 C 0.3968(2) 0.9035(4) 0.0387(2)
C47_8 C 0.3677(2) 0.8779(3) 0.0822(2)
C48_8 C 0.3462(2) 0.8991(3) 0.1068(3)
C49_9 C 0.3198(3) 0.8750(4) 0.1552(3)
C50_9 C 0.3278(3) 0.8919(4) 0.2044(3)
C51_9 C 0.3019(4) 0.8748(6) 0.2470(3)
C52_9 C 0.2688(3) 0.8356(4) 0.2439(4)
C53_9 C 0.2603(5) 0.8176(9) 0.1962(6)
C54_9 C 0.2840(4) 0.8357(6) 0.1522(5)
H25_8 H 0.4465 0.9826 0.2980
H26_8 H 0.3880 0.9742 0.3423
H29_8 H 0.5834 0.9838 0.3507
H30_8 H 0.5384 0.9954 0.3024
H34_8 H 0.3815 0.9110 0.0130
H35_8 H 0.4075 0.8866 0.0211
H36_8 H 0.3841 0.8749 0.1108
H37_8 H 0.3463 0.8499 0.0685
H38_9 H 0.3263 0.8986 0.0804
H39_8 H 0.3671 0.9283 0.1162
H40_8 H 0.3530 0.9175 0.2100
H41_9 H 0.3078 0.8906 0.2783
H42_9 H 0.2518 0.8216 0.2732
H43_9 H 0.2359 0.7906 0.1926
H44_9 H 0.2756 0.8219 0.1193
Zn2_6 Zn 0.30997(2) 0.98135(3) 0.326868(19)
Br3_8 Br 0.262579(17) 0.980532(25) 0.261085(17)
Br4_9 Br 0.29637(2) 0.92547(3) 0.386059(19)
Br3_9 Br 0.352801(25) 0.948714(18) 0.927752(17)
N1_9 N 0.03708(13) 0.69849(13) 0.04663(11)
N2_8 N 0.16303(12) 0.83546(12) 0.10793(11)
N3_3 N 0.29878(13) 0.95746(12) 0.03897(11)
O1_9 O 0.15682(12) 0.76490(12) 0.27138(11)
C1_8 C 0.02857(16) 0.70534(17) 0.09626(15)
C2_8 C 0.05807(16) 0.73943(17) 0.12547(14)
C3_8 C 0.09699(16) 0.76801(16) 0.10469(14)
C4_9 C 0.10495(18) 0.76097(17) 0.05201(15)
C5_9 C 0.07455(18) 0.72585(18) 0.02574(14)
C6_8 C 0.13151(17) 0.80359(17) 0.13549(15)
C7_8 C 0.13114(16) 0.80183(16) 0.19138(14)
C8_8 C 0.16341(17) 0.83533(17) 0.21878(14)
C9_8 C 0.19581(16) 0.86932(15) 0.19051(14)
C10_8 C 0.19427(17) 0.86798(16) 0.13459(14)
C11_9 C 0.26577(18) 0.92238(19) 0.01859(16)
C12_9 C 0.23196(19) 0.89517(19) 0.04742(16)
C13_8 C 0.22990(16) 0.90118(15) 0.10165(14)
C14_8 C 0.26400(17) 0.93724(17) 0.12242(15)
C15_8 C 0.29749(17) 0.96493(17) 0.09101(15)
C16_8 C 0.17063(16) 0.86926(17) 0.30788(15)
C17_8 C 0.16488(16) 0.83396(17) 0.27855(15)
C18_9 C 0.16120(15) 0.79813(16) 0.30338(15)
C19_9 C 0.1600(3) 0.7301(2) 0.2946(2)
C20_9 C 0.1565(2) 0.7010(2) 0.2511(2)
C21_9 C 0.1138(2) 0.6795(2) 0.2265(3)
C22_9 C 0.1115(3) 0.6531(3) 0.1781(3)
C23_9 C 0.1026(3) 0.6611(3) 0.1289(3)
C24_9 C 0.0938(4) 0.6352(4) 0.0863(3)
C25_9 C 0.0999(3) 0.6021(3) 0.0894(4)
C26_9 C 0.1094(7) 0.5936(5) 0.1371(6)
C27_9 C 0.1150(5) 0.6173(4) 0.1811(5)
H1_8 H 0.0018 0.6861 0.1113
H2_8 H 0.0515 0.7439 0.1597
H3_9 H 0.1306 0.7798 0.0353
H5_8 H 0.1089 0.7787 0.2093
H6_8 H 0.2186 0.8921 0.2083
H8_9 H 0.2097 0.8717 0.0309
H9_8 H 0.2642 0.9430 0.1579
H10_8 H 0.3201 0.9896 0.1064
H11_8 H 0.1730 0.8931 0.2912
H12_9 H 0.1372 0.7148 0.3203
H13_9 H 0.1876 0.7408 0.3122
H14_9 H 0.1759 0.7174 0.2225
H15_9 H 0.1631 0.6796 0.2648
H16_9 H 0.0944 0.6596 0.2529
H17_9 H 0.1055 0.7004 0.2171
H18_9 H 0.1022 0.6863 0.1233
H19_9 H 0.0839 0.6411 0.0550
H20_9 H 0.0969 0.5851 0.0601
H21_9 H 0.1120 0.5692 0.1407
H22_9 H 0.1204 0.6089 0.2140
N4_9 N 0.29626(13) 0.96817(13) 0.62003(11)
N5_9 N 0.17031(12) 0.83120(12) 0.55873(11)
N6_3 N 0.03456(13) 0.70920(12) 0.62769(11)
O2_9 O 0.17652(12) 0.90176(12) 0.39528(11)
C28_9 C 0.30477(16) 0.96132(17) 0.57040(15)
C29_9 C 0.27527(16) 0.92723(17) 0.54119(14)
C30_9 C 0.23635(16) 0.89865(16) 0.56197(14)
C31_9 C 0.22839(18) 0.90569(17) 0.61465(15)
C32_9 C 0.25879(18) 0.94081(18) 0.64092(14)
C33_9 C 0.20183(17) 0.86307(17) 0.53117(15)
C34_9 C 0.20220(16) 0.86483(16) 0.47528(14)
C35_9 C 0.16993(17) 0.83133(17) 0.44788(14)
C36_9 C 0.13753(16) 0.79734(15) 0.47615(14)
C37_9 C 0.13907(17) 0.79868(16) 0.53207(14)
C38_9 C 0.06757(18) 0.74428(19) 0.64807(16)
C39_9 C 0.10138(19) 0.77149(19) 0.61924(16)
C40_9 C 0.10344(16) 0.76548(15) 0.56501(14)
C41_9 C 0.06934(17) 0.72942(17) 0.54424(15)
C42_9 C 0.03585(17) 0.70173(17) 0.57565(15)
C43_9 C 0.16271(16) 0.79740(17) 0.35878(15)
C44_9 C 0.16846(16) 0.83270(17) 0.38811(15)
C45_9 C 0.17214(15) 0.86853(16) 0.36328(15)
C46_9 C 0.1734(3) 0.9365(2) 0.3720(2)
C47_9 C 0.1769(2) 0.9656(2) 0.4155(2)
C48_9 C 0.2196(2) 0.9871(2) 0.4401(3)
H23_9 H 0.3316 0.9805 0.5553
H24_9 H 0.2819 0.9227 0.5069
H25_9 H 0.2028 0.8868 0.6313
H26_9 H 0.2529 0.9453 0.6756
H27_9 H 0.2245 0.8879 0.4573
H28_9 H 0.1148 0.7745 0.4583
H29_9 H 0.0671 0.7499 0.6840
H30_9 H 0.1237 0.7949 0.6357
H31_9 H 0.0692 0.7236 0.5087
H32_9 H 0.0133 0.6770 0.5602
H33_9 H 0.1604 0.7735 0.3754
H34_9 H 0.1962 0.9518 0.3463
H35_9 H 0.1458 0.9258 0.3544
H36_9 H 0.1575 0.9492 0.4441
H37_9 H 0.1703 0.9870 0.4018
H39_9 H 0.2279 0.9662 0.4495
H40_9 H 0.2312 0.9803 0.5433
N2_9 N 0.00577(17) 0.50364(12) 0.77460(11)
C1_9 C 0.01011(23) 0.63810(16) 0.76293(15)
C2_9 C 0.01470(23) 0.60860(16) 0.79214(14)
C3_9 C 0.00436(23) 0.56968(16) 0.77136(14)
C6_9 C 0.00542(24) 0.53516(17) 0.80216(15)
C7_9 C 0.00403(23) 0.53553(16) 0.85805(14)
C8_9 C 0.00526(24) 0.50326(17) 0.88545(14)
C9_9 C 0.00685(22) 0.47086(16) 0.85718(14)
C10_9 C 0.00705(23) 0.47240(17) 0.80126(14)
C13_9 C 0.00462(22) 0.43677(16) 0.76832(14)
C14_9 C 0.00658(24) 0.40267(17) 0.78909(15)
C15_9 C 0.00078(24) 0.36918(17) 0.75768(15)
C16_9 C 0.03197(23) 0.49604(16) 0.97455(15)
C17_9 C 0.00242(23) 0.50179(16) 0.94522(15)
H1_9 H 0.0177 0.6649 0.7780
H2_9 H 0.0258 0.6152 0.8264
H5_9 H 0.0032 0.5578 0.8760
H6_9 H 0.0069 0.4481 0.8750
H9_9 H 0.0122 0.4025 0.8246
H10_9 H 0.0029 0.3466 0.7731
H11_9 H 0.0535 0.4937 0.9579
loop_
_geom_bond_atom_site_label_1
_geom_bond_atom_site_label_2
_geom_bond_site_symmetry_1
_geom_bond_site_symmetry_2
N4 C28 1_555 1_555
N5 C33 1_555 1_555
N6 C38 1_555 1_555
O2 C45 1_555 1_555
C28 C29 1_555 1_555
C29 C30 1_555 1_555
C30 C31 1_555 1_555
C31 C32 1_555 1_555
C32 N4 1_555 1_555
C33 C30 1_555 1_555
C34 C33 1_555 1_555
C35 C34 1_555 1_555
C36 C35 1_555 1_555
C37 N5 1_555 1_555
C38 C39 1_555 1_555
C39 C40 1_555 1_555
C40 C37 1_555 1_555
C41 C40 1_555 1_555
C42 N6 1_555 1_555
C44 C35 1_555 1_555
C46 O2 1_555 1_555
C47 C46 1_555 1_555
C48 C47 1_555 1_555
C49 C48 1_555 1_555
C50 C49 1_555 1_555
C51 C50 1_555 1_555
C52 C51 1_555 1_555
C53 C52 1_555 1_555
C54 C49 1_555 1_555
H23 C28 1_555 1_555
H24 C29 1_555 1_555
H25 C31 1_555 1_555
H26 C32 1_555 1_555
H27 C34 1_555 1_555
H28 C36 1_555 1_555
H29 C38 1_555 1_555
H30 C39 1_555 1_555
H31 C41 1_555 1_555
H32 C42 1_555 1_555
H33 C43 1_555 1_555
H34 C46 1_555 1_555
H35 C46 1_555 1_555
H36 C47 1_555 1_555
H37 C47 1_555 1_555
H38 C48 1_555 1_555
H39 C48 1_555 1_555
H40 C50 1_555 1_555
H41 C51 1_555 1_555
H42 C52 1_555 1_555
H43 C53 1_555 1_555
H44 C54 1_555 1_555
Zn2 N4 1_555 1_555
Br3 Zn2 1_555 1_555
Br4 Zn2 1_555 1_555
Zn3 N6 1_555 1_555
N7 Zn2 1_555 1_555
C36 C37 1_555 1_555
C41 C42 1_555 1_555
C43 C44 1_555 1_555
C44 C45 1_555 1_555
C53 C54 1_555 1_555
Br3_2 Zn2_2 1_555 1_555
N5_2 C33_2 1_555 1_555
C28_2 C29_2 1_555 1_555
C29_2 C30_2 1_555 1_555
C33_2 C30_2 1_555 1_555
C34_2 C33_2 1_555 1_555
C35_2 C34_2 1_555 1_555
C36_2 C35_2 1_555 1_555
C37_2 N5_2 1_555 1_555
C40_2 C37_2 1_555 1_555
C41_2 C40_2 1_555 1_555
C44_2 C35_2 1_555 1_555
H23_2 C28_2 1_555 1_555
H24_2 C29_2 1_555 1_555
H27_2 C34_2 1_555 1_555
H28_2 C36_2 1_555 1_555
H31_2 C41_2 1_555 1_555
H32_2 C42_2 1_555 1_555
H33_2 C43_2 1_555 1_555
C36_2 C37_2 1_555 1_555
C41_2 C42_2 1_555 1_555
C43_2 C44_2 1_555 1_555
Zn1 Br1 1_555 1_555
Br2 Zn1 1_555 1_555
C23 C22 1_555 1_555
C24 C23 1_555 1_555
C25 C24 1_555 1_555
C26 C25 1_555 1_555
C27 C22 1_555 1_555
H19 C24 1_555 1_555
H20 C25 1_555 1_555
H21 C26 1_555 1_555
H22 C27 1_555 1_555
N8_2 Zn1 1_555 1_555
C26 C27 1_555 1_555
N2 C6 1_555 1_555
N7 C11 1_555 1_555
O1 C18 1_555 1_555
C1 N1 1_555 1_555
C2 C1 1_555 1_555
C3 C2 1_555 1_555
C4 C3 1_555 1_555
C5 N1 1_555 1_555
C6 C3 1_555 1_555
C7 C6 1_555 1_555
C8 C7 1_555 1_555
C9 C8 1_555 1_555
C10 N2 1_555 1_555
C11 C12 1_555 1_555
C12 C13 1_555 1_555
C13 C10 1_555 1_555
C14 C13 1_555 1_555
C15 N7 1_555 1_555
C16 C17 1_555 1_555
C17 C8 1_555 1_555
C18 C17 1_555 1_555
C19 O1 1_555 1_555
C20 C19 1_555 1_555
C21 C20 1_555 1_555
H1 C1 1_555 1_555
H2 C2 1_555 1_555
H3 C4 1_555 1_555
H4 C5 1_555 1_555
H5 C7 1_555 1_555
H6 C9 1_555 1_555
H7 C11 1_555 1_555
H8 C12 1_555 1_555
H9 C14 1_555 1_555
H10 C15 1_555 1_555
H11 C16 1_555 1_555
H12 C19 1_555 1_555
H13 C19 1_555 1_555
H14 C20 1_555 1_555
H15 C20 1_555 1_555
H17 C21 1_555 1_555
N4_2 C28_3 1_555 1_555
N5_3 C33_3 1_555 1_555
N8 C38_2 1_555 1_555
O2_2 C45_2 1_555 1_555
C28_3 C29_3 1_555 1_555
C29_3 C30_3 1_555 1_555
C30_3 C31_2 1_555 1_555
C31_2 C32_2 1_555 1_555
C32_2 N4_2 1_555 1_555
C33_3 C30_3 1_555 1_555
C34_3 C33_3 1_555 1_555
C35_3 C34_3 1_555 1_555
C36_3 C35_3 1_555 1_555
C37_3 N5_3 1_555 1_555
C38_2 C39_2 1_555 1_555
C39_2 C40_3 1_555 1_555
C40_3 C37_3 1_555 1_555
C41_3 C40_3 1_555 1_555
C42_3 N8 1_555 1_555
C43_3 C18 1_555 1_555
C44_3 C35_3 1_555 1_555
C45_2 C16 1_555 1_555
C46_2 O2_2 1_555 1_555
C47_2 C46_2 1_555 1_555
C48_2 C47_2 1_555 1_555
C49_2 C48_2 1_555 1_555
C50_2 C49_2 1_555 1_555
C51_2 C50_2 1_555 1_555
C52_2 C51_2 1_555 1_555
C53_2 C52_2 1_555 1_555
C54_2 C49_2 1_555 1_555
H23_3 C28_3 1_555 1_555
H24_3 C29_3 1_555 1_555
H25_2 C31_2 1_555 1_555
H27_3 C34_3 1_555 1_555
H28_3 C36_3 1_555 1_555
H30_2 C39_2 1_555 1_555
H31_3 C41_3 1_555 1_555
H32_3 C42_3 1_555 1_555
H33_3 C43_3 1_555 1_555
H34_2 C46_2 1_555 1_555
H35_2 C46_2 1_555 1_555
H36_2 C47_2 1_555 1_555
H37_2 C47_2 1_555 1_555
H38_2 C48_2 1_555 1_555
H39_2 C48_2 1_555 1_555
H40_2 C50_2 1_555 1_555
H41_2 C51_2 1_555 1_555
H42_2 C52_2 1_555 1_555
H43_2 C53_2 1_555 1_555
H44_2 C54_2 1_555 1_555
Zn2_3 N4_2 1_555 1_555
Br3_3 Zn2_3 1_555 1_555
C4 C5 1_555 1_555
C9 C10 1_555 1_555
C14 C15 1_555 1_555
C36_3 C37_3 1_555 1_555
C41_3 C42_3 1_555 1_555
C43_3 C44_3 1_555 1_555
C44_3 C45_2 1_555 1_555
C53_2 C54_2 1_555 1_555
N8_2 C38_3 1_555 1_555
O2_3 C45_3 1_555 1_555
C31_3 C32_3 1_555 1_555
C32_3 N4_3 1_555 1_555
C38_3 C39_3 1_555 1_555
C46_3 O2_3 1_555 1_555
C47_3 C46_3 1_555 1_555
C48_3 C47_3 1_555 1_555
C49_3 C48_3 1_555 1_555
C50_3 C49_3 1_555 1_555
C51_3 C50_3 1_555 1_555
C52_3 C51_3 1_555 1_555
C53_3 C52_3 1_555 1_555
C54_3 C49_3 1_555 1_555
H25_3 C31_3 1_555 1_555
H26_2 C32_3 1_555 1_555
H29_2 C38_3 1_555 1_555
H30_3 C39_3 1_555 1_555
H34_3 C46_3 1_555 1_555
H35_3 C46_3 1_555 1_555
H36_3 C47_3 1_555 1_555
H37_3 C47_3 1_555 1_555
H38_3 C48_3 1_555 1_555
H39_3 C48_3 1_555 1_555
H40_3 C50_3 1_555 1_555
H41_3 C51_3 1_555 1_555
H42_3 C52_3 1_555 1_555
H43_3 C53_3 1_555 1_555
H44_3 C54_3 1_555 1_555
Zn4 N4_3 1_555 1_555
Br3_4 Zn4 1_555 1_555
Br4_2 Zn4 1_555 1_555
C53_3 C54_3 1_555 1_555
Zn3 Br1_2 1_555 1_555
Br2_3 Zn3 1_555 1_555
N1_2 Zn3 1_555 1_555
N2_2 C6_2 1_555 1_555
N7_2 C11_2 1_555 1_555
O1_2 C18_2 1_555 1_555
C1_2 N1_2 1_555 1_555
C2_2 C1_2 1_555 1_555
C3_2 C2_2 1_555 1_555
C4_2 C3_2 1_555 1_555
C5_2 N1_2 1_555 1_555
C6_2 C3_2 1_555 1_555
C7_2 C6_2 1_555 1_555
C8_2 C7_2 1_555 1_555
C9_2 C8_2 1_555 1_555
C10_2 N2_2 1_555 1_555
C11_2 C12_2 1_555 1_555
C12_2 C13_2 1_555 1_555
C13_2 C10_2 1_555 1_555
C14_2 C13_2 1_555 1_555
C15_2 N7_2 1_555 1_555
C16_2 C17_2 1_555 1_555
C17_2 C8_2 1_555 1_555
C18_2 C17_2 1_555 1_555
C19_2 O1_2 1_555 1_555
C20_2 C19_2 1_555 1_555
C21_2 C20_2 1_555 1_555
C22_2 C21_2 1_555 1_555
C23_2 C22_2 1_555 1_555
C24_2 C23_2 1_555 1_555
C25_2 C24_2 1_555 1_555
C26_2 C25_2 1_555 1_555
C27_2 C22_2 1_555 1_555
H1_2 C1_2 1_555 1_555
H2_2 C2_2 1_555 1_555
H3_2 C4_2 1_555 1_555
H4_3 C5_2 1_555 1_555
H5_2 C7_2 1_555 1_555
H6_2 C9_2 1_555 1_555
H7_3 C11_2 1_555 1_555
H8_2 C12_2 1_555 1_555
H9_2 C14_2 1_555 1_555
H10_2 C15_2 1_555 1_555
H11_2 C16_2 1_555 1_555
H12_2 C19_2 1_555 1_555
H13_2 C19_2 1_555 1_555
H14_2 C20_2 1_555 1_555
H15_2 C20_2 1_555 1_555
H16_2 C21_2 1_555 1_555
H17_2 C21_2 1_555 1_555
H18_2 C23_2 1_555 1_555
H19_2 C24_2 1_555 1_555
H20_2 C25_2 1_555 1_555
H21_2 C26_2 1_555 1_555
H22_2 C27_2 1_555 1_555
N4_4 C28_4 1_555 1_555
N5_4 C33_4 1_555 1_555
N8_3 C38_4 1_555 1_555
O2_4 C45_4 1_555 1_555
C28_4 C29_4 1_555 1_555
C29_4 C30_4 1_555 1_555
C30_4 C31_4 1_555 1_555
C31_4 C32_4 1_555 1_555
C32_4 N4_4 1_555 1_555
C33_4 C30_4 1_555 1_555
C34_4 C33_4 1_555 1_555
C35_4 C34_4 1_555 1_555
C36_4 C35_4 1_555 1_555
C37_4 N5_4 1_555 1_555
C38_4 C39_4 1_555 1_555
C39_4 C40_4 1_555 1_555
C40_4 C37_4 1_555 1_555
C41_4 C40_4 1_555 1_555
C42_4 N8_3 1_555 1_555
C43_4 C18_2 1_555 1_555
C44_4 C35_4 1_555 1_555
C45_4 C16_2 1_555 1_555
C46_4 O2_4 1_555 1_555
C47_4 C46_4 1_555 1_555
C48_4 C47_4 1_555 1_555
C49_4 C48_4 1_555 1_555
C50_4 C49_4 1_555 1_555
C51_4 C50_4 1_555 1_555
C52_4 C51_4 1_555 1_555
C53_4 C52_4 1_555 1_555
C54_4 C49_4 1_555 1_555
H23_4 C28_4 1_555 1_555
H24_4 C29_4 1_555 1_555
H25_4 C31_4 1_555 1_555
H27_4 C34_4 1_555 1_555
H28_4 C36_4 1_555 1_555
H30_4 C39_4 1_555 1_555
H31_4 C41_4 1_555 1_555
H32_4 C42_4 1_555 1_555
H33_4 C43_4 1_555 1_555
H34_4 C46_4 1_555 1_555
H35_4 C46_4 1_555 1_555
H36_4 C47_4 1_555 1_555
H37_4 C47_4 1_555 1_555
H38_4 C48_4 1_555 1_555
H39_4 C48_4 1_555 1_555
H40_4 C50_4 1_555 1_555
H41_4 C51_4 1_555 1_555
H42_4 C52_4 1_555 1_555
H43_4 C53_4 1_555 1_555
H44_4 C54_4 1_555 1_555
C4_2 C5_2 1_555 1_555
C9_2 C10_2 1_555 1_555
C14_2 C15_2 1_555 1_555
C26_2 C27_2 1_555 1_555
C36_4 C37_4 1_555 1_555
C41_4 C42_4 1_555 1_555
C43_4 C44_4 1_555 1_555
C44_4 C45_4 1_555 1_555
C53_4 C54_4 1_555 1_555
Zn1_2 Br1_3 1_555 1_555
Br2_5 Zn1_2 1_555 1_555
N1_3 Zn1_2 1_555 1_555
N2_3 C6_3 1_555 1_555
N3 C11_3 1_555 1_555
O1_3 C18_3 1_555 1_555
C1_3 N1_3 1_555 1_555
C2_3 C1_3 1_555 1_555
C3_3 C2_3 1_555 1_555
C4_3 C3_3 1_555 1_555
C5_3 N1_3 1_555 1_555
C6_3 C3_3 1_555 1_555
C7_3 C6_3 1_555 1_555
C8_3 C7_3 1_555 1_555
C9_3 C8_3 1_555 1_555
C10_3 N2_3 1_555 1_555
C11_3 C12_3 1_555 1_555
C12_3 C13_3 1_555 1_555
C13_3 C10_3 1_555 1_555
C14_3 C13_3 1_555 1_555
C15_3 N3 1_555 1_555
C16_3 C17_3 1_555 1_555
C17_3 C8_3 1_555 1_555
C18_3 C17_3 1_555 1_555
C19_3 O1_3 1_555 1_555
C20_3 C19_3 1_555 1_555
C21_3 C20_3 1_555 1_555
C22_3 C21_3 1_555 1_555
C23_3 C22_3 1_555 1_555
C24_3 C23_3 1_555 1_555
C25_3 C24_3 1_555 1_555
C26_3 C25_3 1_555 1_555
C27_3 C22_3 1_555 1_555
H1_3 C1_3 1_555 1_555
H2_3 C2_3 1_555 1_555
H3_3 C4_3 1_555 1_555
H4_5 C5_3 1_555 1_555
H5_3 C7_3 1_555 1_555
H6_3 C9_3 1_555 1_555
H7_5 C11_3 1_555 1_555
H8_3 C12_3 1_555 1_555
H9_3 C14_3 1_555 1_555
H10_3 C15_3 1_555 1_555
H11_3 C16_3 1_555 1_555
H12_3 C19_3 1_555 1_555
H13_3 C19_3 1_555 1_555
H14_3 C20_3 1_555 1_555
H15_3 C20_3 1_555 1_555
H16_3 C21_3 1_555 1_555
H17_3 C21_3 1_555 1_555
H18_3 C23_3 1_555 1_555
H19_3 C24_3 1_555 1_555
H20_3 C25_3 1_555 1_555
H21_3 C26_3 1_555 1_555
H22_3 C27_3 1_555 1_555
Zn4_2 N3 1_555 1_555
N8_4 Zn1_2 1_555 1_555
C4_3 C5_3 1_555 1_555
C9_3 C10_3 1_555 1_555
C14_3 C15_3 1_555 1_555
C26_3 C27_3 1_555 1_555
Zn1_3 Br1_4 1_555 1_555
N2_4 C6_4 1_555 1_555
C2_4 C1_4 1_555 1_555
C3_4 C2_4 1_555 1_555
C6_4 C3_4 1_555 1_555
C7_4 C6_4 1_555 1_555
C8_4 C7_4 1_555 1_555
C9_4 C8_4 1_555 1_555
C10_4 N2_4 1_555 1_555
C13_4 C10_4 1_555 1_555
C14_4 C13_4 1_555 1_555
C16_4 C17_4 1_555 1_555
C17_4 C8_4 1_555 1_555
H1_4 C1_4 1_555 1_555
H2_4 C2_4 1_555 1_555
H5_4 C7_4 1_555 1_555
H6_4 C9_4 1_555 1_555
H9_4 C14_4 1_555 1_555
H10_4 C15_4 1_555 1_555
H11_4 C16_4 1_555 1_555
C9_4 C10_4 1_555 1_555
C14_4 C15_4 1_555 1_555
Zn1_4 Br1_5 1_555 1_555
N1_4 Zn1_4 1_555 1_555
N2_5 C6_5 1_555 1_555
N7_3 C11_4 1_555 1_555
O1_4 C18_4 1_555 1_555
C1_5 N1_4 1_555 1_555
C2_5 C1_5 1_555 1_555
C3_5 C2_5 1_555 1_555
C4_4 C3_5 1_555 1_555
C5_4 N1_4 1_555 1_555
C6_5 C3_5 1_555 1_555
C7_5 C6_5 1_555 1_555
C8_5 C7_5 1_555 1_555
C9_5 C8_5 1_555 1_555
C10_5 N2_5 1_555 1_555
C11_4 C12_4 1_555 1_555
C12_4 C13_5 1_555 1_555
C13_5 C10_5 1_555 1_555
C14_5 C13_5 1_555 1_555
C15_5 N7_3 1_555 1_555
C16_5 C17_5 1_555 1_555
C17_5 C8_5 1_555 1_555
C18_4 C17_5 1_555 1_555
C19_4 O1_4 1_555 1_555
C20_4 C19_4 1_555 1_555
C21_4 C20_4 1_555 1_555
C22_4 C21_4 1_555 1_555
C23_4 C22_4 1_555 1_555
C24_4 C23_4 1_555 1_555
C25_4 C24_4 1_555 1_555
C26_4 C25_4 1_555 1_555
C27_4 C22_4 1_555 1_555
H1_5 C1_5 1_555 1_555
H2_5 C2_5 1_555 1_555
H3_4 C4_4 1_555 1_555
H5_5 C7_5 1_555 1_555
H6_5 C9_5 1_555 1_555
H8_4 C12_4 1_555 1_555
H9_5 C14_5 1_555 1_555
H10_5 C15_5 1_555 1_555
H11_5 C16_5 1_555 1_555
H12_4 C19_4 1_555 1_555
H13_4 C19_4 1_555 1_555
H14_4 C20_4 1_555 1_555
H15_4 C20_4 1_555 1_555
H16_4 C21_4 1_555 1_555
H17_4 C21_4 1_555 1_555
H18_4 C23_4 1_555 1_555
H19_4 C24_4 1_555 1_555
H20_4 C25_4 1_555 1_555
H21_4 C26_4 1_555 1_555
H22_4 C27_4 1_555 1_555
N4_5 C28_5 1_555 1_555
N5_5 C33_5 1_555 1_555
N8_4 C38_5 1_555 1_555
O2_5 C45_5 1_555 1_555
C28_5 C29_5 1_555 1_555
C29_5 C30_5 1_555 1_555
C30_5 C31_5 1_555 1_555
C31_5 C32_5 1_555 1_555
C32_5 N4_5 1_555 1_555
C33_5 C30_5 1_555 1_555
C34_5 C33_5 1_555 1_555
C35_5 C34_5 1_555 1_555
C36_5 C35_5 1_555 1_555
C37_5 N5_5 1_555 1_555
C38_5 C39_5 1_555 1_555
C39_5 C40_5 1_555 1_555
C40_5 C37_5 1_555 1_555
C41_5 C40_5 1_555 1_555
C42_5 N8_4 1_555 1_555
C43_5 C18_4 1_555 1_555
C44_5 C35_5 1_555 1_555
C45_5 C16_5 1_555 1_555
C46_5 O2_5 1_555 1_555
C47_5 C46_5 1_555 1_555
C48_5 C47_5 1_555 1_555
H23_5 C28_5 1_555 1_555
H24_5 C29_5 1_555 1_555
H25_5 C31_5 1_555 1_555
H26_4 C32_5 1_555 1_555
H27_5 C34_5 1_555 1_555
H28_5 C36_5 1_555 1_555
H29_4 C38_5 1_555 1_555
H30_5 C39_5 1_555 1_555
H31_5 C41_5 1_555 1_555
H32_5 C42_5 1_555 1_555
H33_5 C43_5 1_555 1_555
H34_5 C46_5 1_555 1_555
H35_5 C46_5 1_555 1_555
H36_5 C47_5 1_555 1_555
H37_5 C47_5 1_555 1_555
H39_5 C48_5 1_555 1_555
C4_4 C5_4 1_555 1_555
C9_5 C10_5 1_555 1_555
C14_5 C15_5 1_555 1_555
C26_4 C27_4 1_555 1_555
C36_5 C37_5 1_555 1_555
C41_5 C42_5 1_555 1_555
C43_5 C44_5 1_555 1_555
C44_5 C45_5 1_555 1_555
C50_5 C49_5 1_555 1_555
C51_5 C50_5 1_555 1_555
C52_5 C51_5 1_555 1_555
C53_5 C52_5 1_555 1_555
C54_5 C49_5 1_555 1_555
H41_5 C51_5 1_555 1_555
H42_5 C52_5 1_555 1_555
H43_5 C53_5 1_555 1_555
H44_5 C54_5 1_555 1_555
Br3_5 Zn2_4 1_555 1_555
Br4_4 Zn2_4 1_555 1_555
N7_5 Zn2_4 1_555 1_555
C53_5 C54_5 1_555 1_555
Zn3_2 Br1_6 1_555 1_555
Br2_6 Zn3_2 1_555 1_555
N1_5 Zn3_2 1_555 1_555
N7_5 C11_5 1_555 1_555
O1_5 C18_5 1_555 1_555
C5_5 N1_5 1_555 1_555
C11_5 C12_5 1_555 1_555
C19_5 O1_5 1_555 1_555
C20_5 C19_5 1_555 1_555
C21_5 C20_5 1_555 1_555
C22_5 C21_5 1_555 1_555
C23_5 C22_5 1_555 1_555
C24_5 C23_5 1_555 1_555
C25_5 C24_5 1_555 1_555
C26_5 C25_5 1_555 1_555
C27_5 C22_5 1_555 1_555
H3_5 C4_5 1_555 1_555
H4_6 C5_5 1_555 1_555
H7_6 C11_5 1_555 1_555
H8_5 C12_5 1_555 1_555
H12_5 C19_5 1_555 1_555
H13_5 C19_5 1_555 1_555
H14_5 C20_5 1_555 1_555
H15_5 C20_5 1_555 1_555
H16_5 C21_5 1_555 1_555
H17_5 C21_5 1_555 1_555
H18_5 C23_5 1_555 1_555
H19_5 C24_5 1_555 1_555
H20_5 C25_5 1_555 1_555
H21_5 C26_5 1_555 1_555
H22_5 C27_5 1_555 1_555
C4_5 C5_5 1_555 1_555
C26_5 C27_5 1_555 1_555
N2_6 C6_6 1_555 1_555
N7_4 C11_6 1_555 1_555
O1_6 C18_6 1_555 1_555
C1_6 N1_6 1_555 1_555
C2_6 C1_6 1_555 1_555
C3_6 C2_6 1_555 1_555
C4_6 C3_6 1_555 1_555
C5_6 N1_6 1_555 1_555
C6_6 C3_6 1_555 1_555
C7_6 C6_6 1_555 1_555
C8_6 C7_6 1_555 1_555
C9_6 C8_6 1_555 1_555
C10_6 N2_6 1_555 1_555
C11_6 C12_6 1_555 1_555
C12_6 C13_6 1_555 1_555
C13_6 C10_6 1_555 1_555
C14_6 C13_6 1_555 1_555
C15_6 N7_4 1_555 1_555
C16_6 C17_6 1_555 1_555
C17_6 C8_6 1_555 1_555
C18_6 C17_6 1_555 1_555
C19_6 O1_6 1_555 1_555
C20_6 C19_6 1_555 1_555
C21_6 C20_6 1_555 1_555
C22_6 C21_6 1_555 1_555
C23_6 C22_6 1_555 1_555
C24_6 C23_6 1_555 1_555
C25_6 C24_6 1_555 1_555
C26_6 C25_6 1_555 1_555
C27_6 C22_6 1_555 1_555
H1_6 C1_6 1_555 1_555
H2_6 C2_6 1_555 1_555
H3_6 C4_6 1_555 1_555
H5_6 C7_6 1_555 1_555
H6_6 C9_6 1_555 1_555
H8_6 C12_6 1_555 1_555
H9_6 C14_6 1_555 1_555
H10_6 C15_6 1_555 1_555
H11_6 C16_6 1_555 1_555
H12_6 C19_6 1_555 1_555
H13_6 C19_6 1_555 1_555
H14_6 C20_6 1_555 1_555
H15_6 C20_6 1_555 1_555
H16_6 C21_6 1_555 1_555
H17_6 C21_6 1_555 1_555
H18_6 C23_6 1_555 1_555
H19_6 C24_6 1_555 1_555
H20_6 C25_6 1_555 1_555
H21_6 C26_6 1_555 1_555
H22_6 C27_6 1_555 1_555
N4_6 C28_6 1_555 1_555
N5_6 C33_6 1_555 1_555
N8_5 C38_6 1_555 1_555
O2_6 C45_6 1_555 1_555
C28_6 C29_6 1_555 1_555
C29_6 C30_6 1_555 1_555
C30_6 C31_6 1_555 1_555
C31_6 C32_6 1_555 1_555
C32_6 N4_6 1_555 1_555
C33_6 C30_6 1_555 1_555
C34_6 C33_6 1_555 1_555
C35_6 C34_6 1_555 1_555
C36_6 C35_6 1_555 1_555
C37_6 N5_6 1_555 1_555
C38_6 C39_6 1_555 1_555
C39_6 C40_6 1_555 1_555
C40_6 C37_6 1_555 1_555
C41_6 C40_6 1_555 1_555
C42_6 N8_5 1_555 1_555
C43_6 C18_6 1_555 1_555
C44_6 C35_6 1_555 1_555
C45_6 C16_6 1_555 1_555
C46_6 O2_6 1_555 1_555
C47_6 C46_6 1_555 1_555
C48_6 C47_6 1_555 1_555
C49_6 C48_6 1_555 1_555
C50_6 C49_6 1_555 1_555
C51_6 C50_6 1_555 1_555
C52_6 C51_6 1_555 1_555
C53_6 C52_6 1_555 1_555
C54_6 C49_6 1_555 1_555
H23_6 C28_6 1_555 1_555
H24_6 C29_6 1_555 1_555
H25_6 C31_6 1_555 1_555
H26_6 C32_6 1_555 1_555
H27_6 C34_6 1_555 1_555
H28_6 C36_6 1_555 1_555
H29_6 C38_6 1_555 1_555
H30_6 C39_6 1_555 1_555
H31_6 C41_6 1_555 1_555
H32_6 C42_6 1_555 1_555
H33_6 C43_6 1_555 1_555
H34_6 C46_6 1_555 1_555
H35_6 C46_6 1_555 1_555
H36_6 C47_6 1_555 1_555
H37_6 C47_6 1_555 1_555
H38_6 C48_6 1_555 1_555
H39_6 C48_6 1_555 1_555
H40_6 C50_6 1_555 1_555
H41_6 C51_6 1_555 1_555
H42_6 C52_6 1_555 1_555
H43_6 C53_6 1_555 1_555
H44_6 C54_6 1_555 1_555
Zn4_2 N4_6 1_555 1_555
Br3_6 Zn4_2 1_555 1_555
Br4_6 Zn4_2 1_555 1_555
C4_6 C5_6 1_555 1_555
C9_6 C10_6 1_555 1_555
C14_6 C15_6 1_555 1_555
C26_6 C27_6 1_555 1_555
C36_6 C37_6 1_555 1_555
C41_6 C42_6 1_555 1_555
C43_6 C44_6 1_555 1_555
C44_6 C45_6 1_555 1_555
C53_6 C54_6 1_555 1_555
C50_7 C49_7 1_555 1_555
C51_7 C50_7 1_555 1_555
C52_7 C51_7 1_555 1_555
C53_7 C52_7 1_555 1_555
C54_7 C49_7 1_555 1_555
H41_7 C51_7 1_555 1_555
H42_7 C52_7 1_555 1_555
H43_7 C53_7 1_555 1_555
H44_7 C54_7 1_555 1_555
Br3_7 Zn2_5 1_555 1_555
Br4_8 Zn2_5 1_555 1_555
N7_6 Zn2_5 1_555 1_555
C53_7 C54_7 1_555 1_555
Zn1_5 Br1_7 1_555 1_555
Br2_7 Zn1_5 1_555 1_555
N1_7 Zn1_5 1_555 1_555
N7_6 C11_7 1_555 1_555
O1_7 C18_7 1_555 1_555
C5_7 N1_7 1_555 1_555
C11_7 C12_7 1_555 1_555
C19_7 O1_7 1_555 1_555
C20_7 C19_7 1_555 1_555
C21_7 C20_7 1_555 1_555
C22_7 C21_7 1_555 1_555
C23_7 C22_7 1_555 1_555
C24_7 C23_7 1_555 1_555
C25_7 C24_7 1_555 1_555
C26_7 C25_7 1_555 1_555
C27_7 C22_7 1_555 1_555
H3_7 C4_7 1_555 1_555
H4_7 C5_7 1_555 1_555
H7_7 C11_7 1_555 1_555
H8_7 C12_7 1_555 1_555
H12_7 C19_7 1_555 1_555
H13_7 C19_7 1_555 1_555
H14_7 C20_7 1_555 1_555
H15_7 C20_7 1_555 1_555
H16_7 C21_7 1_555 1_555
H17_7 C21_7 1_555 1_555
H18_7 C23_7 1_555 1_555
H19_7 C24_7 1_555 1_555
H20_7 C25_7 1_555 1_555
H21_7 C26_7 1_555 1_555
H22_7 C27_7 1_555 1_555
C4_7 C5_7 1_555 1_555
C26_7 C27_7 1_555 1_555
Zn3_3 Br1_8 1_555 1_555
N2_7 C6_7 1_555 1_555
N3_2 C11_8 1_555 1_555
O1_8 C18_8 1_555 1_555
C1_7 N1_8 1_555 1_555
C2_7 C1_7 1_555 1_555
C3_7 C2_7 1_555 1_555
C4_8 C3_7 1_555 1_555
C5_8 N1_8 1_555 1_555
C6_7 C3_7 1_555 1_555
C7_7 C6_7 1_555 1_555
C8_7 C7_7 1_555 1_555
C9_7 C8_7 1_555 1_555
C10_7 N2_7 1_555 1_555
C11_8 C12_8 1_555 1_555
C12_8 C13_7 1_555 1_555
C13_7 C10_7 1_555 1_555
C14_7 C13_7 1_555 1_555
C15_7 N3_2 1_555 1_555
C16_7 C17_7 1_555 1_555
C17_7 C8_7 1_555 1_555
C18_8 C17_7 1_555 1_555
C19_8 O1_8 1_555 1_555
C20_8 C19_8 1_555 1_555
C21_8 C20_8 1_555 1_555
H1_7 C1_7 1_555 1_555
H2_7 C2_7 1_555 1_555
H3_8 C4_8 1_555 1_555
H4_8 C5_8 1_555 1_555
H5_7 C7_7 1_555 1_555
H6_7 C9_7 1_555 1_555
H7_8 C11_8 1_555 1_555
H8_8 C12_8 1_555 1_555
H9_7 C14_7 1_555 1_555
H10_7 C15_7 1_555 1_555
H11_7 C16_7 1_555 1_555
H12_8 C19_8 1_555 1_555
H13_8 C19_8 1_555 1_555
H14_8 C20_8 1_555 1_555
H15_8 C20_8 1_555 1_555
H17_8 C21_8 1_555 1_555
N4_7 C28_7 1_555 1_555
N5_7 C33_7 1_555 1_555
N6_2 C38_7 1_555 1_555
O2_7 C45_7 1_555 1_555
C28_7 C29_7 1_555 1_555
C29_7 C30_7 1_555 1_555
C30_7 C31_7 1_555 1_555
C31_7 C32_7 1_555 1_555
C32_7 N4_7 1_555 1_555
C33_7 C30_7 1_555 1_555
C34_7 C33_7 1_555 1_555
C35_7 C34_7 1_555 1_555
C36_7 C35_7 1_555 1_555
C37_7 N5_7 1_555 1_555
C38_7 C39_7 1_555 1_555
C39_7 C40_7 1_555 1_555
C40_7 C37_7 1_555 1_555
C41_7 C40_7 1_555 1_555
C42_7 N6_2 1_555 1_555
C43_7 C18_8 1_555 1_555
C44_7 C35_7 1_555 1_555
C45_7 C16_7 1_555 1_555
C46_7 O2_7 1_555 1_555
C47_7 C46_7 1_555 1_555
C48_7 C47_7 1_555 1_555
C49_8 C48_7 1_555 1_555
C50_8 C49_8 1_555 1_555
C51_8 C50_8 1_555 1_555
C52_8 C51_8 1_555 1_555
C53_8 C52_8 1_555 1_555
C54_8 C49_8 1_555 1_555
H23_7 C28_7 1_555 1_555
H24_7 C29_7 1_555 1_555
H25_7 C31_7 1_555 1_555
H27_7 C34_7 1_555 1_555
H28_7 C36_7 1_555 1_555
H30_7 C39_7 1_555 1_555
H31_7 C41_7 1_555 1_555
H32_7 C42_7 1_555 1_555
H33_7 C43_7 1_555 1_555
H34_7 C46_7 1_555 1_555
H35_7 C46_7 1_555 1_555
H36_7 C47_7 1_555 1_555
H37_7 C47_7 1_555 1_555
H38_8 C48_7 1_555 1_555
H39_7 C48_7 1_555 1_555
H40_7 C50_8 1_555 1_555
H41_8 C51_8 1_555 1_555
H42_8 C52_8 1_555 1_555
H43_8 C53_8 1_555 1_555
H44_8 C54_8 1_555 1_555
C4_8 C5_8 1_555 1_555
C9_7 C10_7 1_555 1_555
C14_7 C15_7 1_555 1_555
C36_7 C37_7 1_555 1_555
C41_7 C42_7 1_555 1_555
C43_7 C44_7 1_555 1_555
C44_7 C45_7 1_555 1_555
C53_8 C54_8 1_555 1_555
N5_8 C33_8 1_555 1_555
C28_8 C29_8 1_555 1_555
C29_8 C30_8 1_555 1_555
C33_8 C30_8 1_555 1_555
C34_8 C33_8 1_555 1_555
C35_8 C34_8 1_555 1_555
C36_8 C35_8 1_555 1_555
C37_8 N5_8 1_555 1_555
C40_8 C37_8 1_555 1_555
C41_8 C40_8 1_555 1_555
C44_8 C35_8 1_555 1_555
H23_8 C28_8 1_555 1_555
H24_8 C29_8 1_555 1_555
H27_8 C34_8 1_555 1_555
H28_8 C36_8 1_555 1_555
H31_8 C41_8 1_555 1_555
H32_8 C42_8 1_555 1_555
H33_8 C43_8 1_555 1_555
C36_8 C37_8 1_555 1_555
C41_8 C42_8 1_555 1_555
C43_8 C44_8 1_555 1_555
Zn1_6 Br1_9 1_555 1_555
Br2_8 Zn1_6 1_555 1_555
C23_8 C22_8 1_555 1_555
C24_8 C23_8 1_555 1_555
C25_8 C24_8 1_555 1_555
C26_8 C25_8 1_555 1_555
C27_8 C22_8 1_555 1_555
H19_8 C24_8 1_555 1_555
H20_8 C25_8 1_555 1_555
H21_8 C26_8 1_555 1_555
H22_8 C27_8 1_555 1_555
N8_6 Zn1_6 1_555 1_555
C26_8 C27_8 1_555 1_555
N8_6 C38_8 1_555 1_555
O2_8 C45_8 1_555 1_555
C31_8 C32_8 1_555 1_555
C32_8 N4_8 1_555 1_555
C38_8 C39_8 1_555 1_555
C46_8 O2_8 1_555 1_555
C47_8 C46_8 1_555 1_555
C48_8 C47_8 1_555 1_555
C49_9 C48_8 1_555 1_555
C50_9 C49_9 1_555 1_555
C51_9 C50_9 1_555 1_555
C52_9 C51_9 1_555 1_555
C53_9 C52_9 1_555 1_555
C54_9 C49_9 1_555 1_555
H25_8 C31_8 1_555 1_555
H26_8 C32_8 1_555 1_555
H29_8 C38_8 1_555 1_555
H30_8 C39_8 1_555 1_555
H34_8 C46_8 1_555 1_555
H35_8 C46_8 1_555 1_555
H36_8 C47_8 1_555 1_555
H37_8 C47_8 1_555 1_555
H38_9 C48_8 1_555 1_555
H39_8 C48_8 1_555 1_555
H40_8 C50_9 1_555 1_555
H41_9 C51_9 1_555 1_555
H42_9 C52_9 1_555 1_555
H43_9 C53_9 1_555 1_555
H44_9 C54_9 1_555 1_555
Zn2_6 N4_8 1_555 1_555
Br3_8 Zn2_6 1_555 1_555
Br4_9 Zn2_6 1_555 1_555
C53_9 C54_9 1_555 1_555
Br3_9 Zn4_3 1_555 1_555
N2_8 C6_8 1_555 1_555
N3_3 C11_9 1_555 1_555
O1_9 C18_9 1_555 1_555
C1_8 N1_9 1_555 1_555
C2_8 C1_8 1_555 1_555
C3_8 C2_8 1_555 1_555
C4_9 C3_8 1_555 1_555
C5_9 N1_9 1_555 1_555
C6_8 C3_8 1_555 1_555
C7_8 C6_8 1_555 1_555
C8_8 C7_8 1_555 1_555
C9_8 C8_8 1_555 1_555
C10_8 N2_8 1_555 1_555
C11_9 C12_9 1_555 1_555
C12_9 C13_8 1_555 1_555
C13_8 C10_8 1_555 1_555
C14_8 C13_8 1_555 1_555
C15_8 N3_3 1_555 1_555
C16_8 C17_8 1_555 1_555
C17_8 C8_8 1_555 1_555
C18_9 C17_8 1_555 1_555
C19_9 O1_9 1_555 1_555
C20_9 C19_9 1_555 1_555
C21_9 C20_9 1_555 1_555
C22_9 C21_9 1_555 1_555
C23_9 C22_9 1_555 1_555
C24_9 C23_9 1_555 1_555
C25_9 C24_9 1_555 1_555
C26_9 C25_9 1_555 1_555
C27_9 C22_9 1_555 1_555
H1_8 C1_8 1_555 1_555
H2_8 C2_8 1_555 1_555
H3_9 C4_9 1_555 1_555
H5_8 C7_8 1_555 1_555
H6_8 C9_8 1_555 1_555
H8_9 C12_9 1_555 1_555
H9_8 C14_8 1_555 1_555
H10_8 C15_8 1_555 1_555
H11_8 C16_8 1_555 1_555
H12_9 C19_9 1_555 1_555
H13_9 C19_9 1_555 1_555
H14_9 C20_9 1_555 1_555
H15_9 C20_9 1_555 1_555
H16_9 C21_9 1_555 1_555
H17_9 C21_9 1_555 1_555
H18_9 C23_9 1_555 1_555
H19_9 C24_9 1_555 1_555
H20_9 C25_9 1_555 1_555
H21_9 C26_9 1_555 1_555
H22_9 C27_9 1_555 1_555
N4_9 C28_9 1_555 1_555
N5_9 C33_9 1_555 1_555
N6_3 C38_9 1_555 1_555
O2_9 C45_9 1_555 1_555
C28_9 C29_9 1_555 1_555
C29_9 C30_9 1_555 1_555
C30_9 C31_9 1_555 1_555
C31_9 C32_9 1_555 1_555
C32_9 N4_9 1_555 1_555
C33_9 C30_9 1_555 1_555
C34_9 C33_9 1_555 1_555
C35_9 C34_9 1_555 1_555
C36_9 C35_9 1_555 1_555
C37_9 N5_9 1_555 1_555
C38_9 C39_9 1_555 1_555
C39_9 C40_9 1_555 1_555
C40_9 C37_9 1_555 1_555
C41_9 C40_9 1_555 1_555
C42_9 N6_3 1_555 1_555
C43_9 C18_9 1_555 1_555
C44_9 C35_9 1_555 1_555
C45_9 C16_8 1_555 1_555
C46_9 O2_9 1_555 1_555
C47_9 C46_9 1_555 1_555
C48_9 C47_9 1_555 1_555
H23_9 C28_9 1_555 1_555
H24_9 C29_9 1_555 1_555
H25_9 C31_9 1_555 1_555
H26_9 C32_9 1_555 1_555
H27_9 C34_9 1_555 1_555
H28_9 C36_9 1_555 1_555
H29_9 C38_9 1_555 1_555
H30_9 C39_9 1_555 1_555
H31_9 C41_9 1_555 1_555
H32_9 C42_9 1_555 1_555
H33_9 C43_9 1_555 1_555
H34_9 C46_9 1_555 1_555
H35_9 C46_9 1_555 1_555
H36_9 C47_9 1_555 1_555
H37_9 C47_9 1_555 1_555
H39_9 C48_9 1_555 1_555
C4_9 C5_9 1_555 1_555
C9_8 C10_8 1_555 1_555
C14_8 C15_8 1_555 1_555
C26_9 C27_9 1_555 1_555
C36_9 C37_9 1_555 1_555
C41_9 C42_9 1_555 1_555
C43_9 C44_9 1_555 1_555
C44_9 C45_9 1_555 1_555
N2_9 C6_9 1_555 1_555
C2_9 C1_9 1_555 1_555
C3_9 C2_9 1_555 1_555
C6_9 C3_9 1_555 1_555
C7_9 C6_9 1_555 1_555
C8_9 C7_9 1_555 1_555
C9_9 C8_9 1_555 1_555
C10_9 N2_9 1_555 1_555
C13_9 C10_9 1_555 1_555
C14_9 C13_9 1_555 1_555
C16_9 C17_9 1_555 1_555
C17_9 C8_9 1_555 1_555
H1_9 C1_9 1_555 1_555
H2_9 C2_9 1_555 1_555
H5_9 C7_9 1_555 1_555
H6_9 C9_9 1_555 1_555
H9_9 C14_9 1_555 1_555
H10_9 C15_9 1_555 1_555
H11_9 C16_9 1_555 1_555
C9_9 C10_9 1_555 1_555
C14_9 C15_9 1_555 1_555

#END
