
###############################################################################
#
# This file contains modified crystal structure data generated from the
# MOF subset of the Cambridge Structural Database (CSD) v543 
# hosted by the Cambridge Crystallographic Data Centre (CCDC).
#
# This work is licensed under the Creative Commons
# Attribution-NonCommercial-ShareAlike 4.0 International License.
# To view a copy of this license, visit
# http://creativecommons.org/licenses/by-nc-sa/4.0/
# or send a letter to
# Creative Commons, PO Box 1866, Mountain View, CA 94042, USA.
#
# CIF created using the CSD Python API on 29 September 2022
# The structure has been converted into the P1 space group
# The structure has a 3D framework
# The original CSD entry DAQRET01 is in the monoclinic crystal system
# The framework has been calculated to contain at least 10.0% void space
# The void calculation uses a probe of radius 1.32A, grid spacing 0.4
# H atom positions have been added when not included in the experimental data
#
###############################################################################

data_DAQRET01
_chemical_formula_moiety         '(C48 H56 Eu8 O62)n'
_symmetry_cell_setting           triclinic
_symmetry_space_group_name_H-M   'P 1'
_symmetry_Int_Tables_number      1
_space_group_name_Hall           'P 1'
loop_
_symmetry_equiv_pos_site_id
_symmetry_equiv_pos_as_xyz
1 x,y,z
_cell_length_a                   9.4983(19)
_cell_length_b                   14.764(3)
_cell_length_c                   14.825(3)
_cell_angle_alpha                90
_cell_angle_beta                 91.57(3)
_cell_angle_gamma                90
_cell_volume                     2078.17
loop_
_atom_site_label
_atom_site_type_symbol
_atom_site_fract_x
_atom_site_fract_y
_atom_site_fract_z
O8 O 0.1488(4) 0.0150(3) 0.2839(2)
Eu4 Eu 0.02672(2) 0.163791(16) 0.245889(15)
Eu5 Eu 0.68929(2) 0.846112(16) 0.093803(15)
Eu2 Eu 0.18929(2) 0.653888(16) 0.593803(15)
O1 O 0.2119(4) 0.8530(3) 0.8248(2)
O2 O 0.2167(4) 0.7775(3) 0.6987(2)
O3 O 0.7060(4) 0.8725(3) 0.9324(2)
O4 O 0.7347(4) 0.8193(3) 0.7931(2)
O5 O 0.0907(4) 0.7813(3) 0.5218(2)
O15 O 0.2147(4) 0.4952(3) 0.5601(3)
O16 O 0.1911(4) 0.5736(3) 0.7379(2)
C1 C 0.2818(5) 0.8148(4) 0.7653(3)
C2 C 0.4350(5) 0.8136(4) 0.7715(3)
H1 H 0.4851 0.7982 0.7207
C3 C 0.5039(5) 0.8334(4) 0.8460(4)
H2 H 0.4509 0.8434 0.8969
C4 C 0.6594(5) 0.8414(3) 0.8573(3)
C7 C 0.0520(6) 0.9104(4) 0.3851(4)
H4 H 0.1282 0.8711 0.3816
C8 C 0.0388(6) 0.9856(4) 0.3188(3)
Eu3 Eu 0.97328(2) 0.836209(16) 0.754111(15)
O17 O 0.2060(4) 0.6275(3) 0.4324(2)
O19 O 0.0790(4) 0.9759(3) 0.6951(2)
O21 O 0.4343(4) 0.6130(3) 0.6323(2)
O22 O 0.4130(4) 0.7294(3) 0.5420(2)
H7 H 0.111828 0.59533 0.774464
H8 H 0.180614 0.507582 0.726816
H9 H 0.00164193 0.749864 0.9305
H11 H 0.0275699 0.982014 0.886213
H13 H 0.15866 0.458984 0.602677
H14 H 0.180423 0.483368 0.497323
O7 O 0.9210(4) 0.0241(3) 0.3049(2)
O6 O 0.9122(4) 0.8440(3) 0.5938(3)
O11 O 0.9610(3) 0.6841(2) 0.6867(2)
O12 O 0.9422(4) 0.6049(3) 0.5622(2)
O13 O 0.9850(4) 0.7207(3) 0.8708(2)
O14 O 0.9673(4) 0.9276(3) 0.8929(2)
C5 C 0.9891(6) 0.8353(3) 0.5263(3)
C6 C 0.9607(6) 0.8972(4) 0.4484(3)
H3 H 0.8749 0.9276 0.4446
C9 C 0.4880(5) 0.6712(4) 0.5818(3)
C10 C 0.6421(5) 0.6720(4) 0.5701(4)
H5 H 0.6772 0.6921 0.5157
C11 C 0.7312(5) 0.6450(4) 0.6344(4)
H6 H 0.6939 0.6246 0.6881
C12 C 0.8853(5) 0.6449(3) 0.6274(3)
O20 O 0.8512(4) 0.9850(3) 0.7161(2)
H10 H 0.894772 0.686734 0.870947
H12 H 0.868948 0.946733 0.903651
O9 O 0.0657(4) 0.1130(3) 0.8677(2)
O10 O 0.0870(4) 0.2294(3) 0.9580(2)
C9_2 C 0.0120(5) 0.1712(4) 0.9182(3)
Eu6 Eu 0.31071(2) 0.153888(16) 0.906197(15)
O7_2 O 0.5790(4) 0.5241(3) 0.1951(2)
O8_2 O 0.3512(4) 0.5150(3) 0.2161(2)
C6_2 C 0.5393(6) 0.3972(4) 0.0516(3)
H3_2 H 0.6251 0.4276 0.0554
C7_2 C 0.4480(6) 0.4104(4) 0.1149(4)
H4_2 H 0.3718 0.3711 0.1184
C8_2 C 0.4612(6) 0.4856(4) 0.1812(3)
Eu4_2 Eu 0.47328(2) 0.663791(16) 0.254111(15)
O17_2 O 0.2940(4) 0.1275(3) 0.0676(2)
Eu1 Eu 0.52672(2) 0.336209(16) 0.745889(15)
O1_2 O 0.2881(4) 0.3530(3) 0.6752(2)
O2_2 O 0.2833(4) 0.2775(3) 0.8013(2)
O5_2 O 0.4093(4) 0.2813(3) 0.9782(2)
O6_2 O 0.5878(4) 0.3440(3) 0.9062(3)
O11_2 O 0.5390(3) 0.1841(2) 0.8133(2)
O12_2 O 0.5578(4) 0.1049(3) 0.9378(2)
O13_2 O 0.5150(4) 0.2207(3) 0.6292(2)
O14_2 O 0.5327(4) 0.4276(3) 0.6071(2)
O16_2 O 0.3089(4) 0.0736(3) 0.7621(2)
C1_2 C 0.2182(5) 0.3148(4) 0.7347(3)
C2_2 C 0.0650(5) 0.3136(4) 0.7285(3)
H1_2 H 0.0149 0.2982 0.7793
H2_2 H 0.0491 0.3434 0.6031
C5_2 C 0.5109(6) 0.3353(3) 0.9737(3)
C10_2 C 0.8579(5) 0.1720(4) 0.9299(4)
H5_2 H 0.8228 0.1921 0.9843
C11_2 C 0.7688(5) 0.1450(4) 0.8656(4)
H6_2 H 0.8061 0.1246 0.8119
C12_2 C 0.6147(5) 0.1449(3) 0.8726(3)
O18 O 0.7653(4) 0.3193(3) 0.7069(2)
O19_2 O 0.4210(4) 0.4759(3) 0.8049(2)
O20_2 O 0.6488(4) 0.4850(3) 0.7839(2)
H7_2 H 0.388172 0.0953295 0.725536
H8_2 H 0.319386 0.00758183 0.773184
H9_2 H 0.498358 0.249864 0.5695
H10_2 H 0.605228 0.186734 0.629053
H11_2 H 0.47243 0.482014 0.613787
H12_2 H 0.631052 0.446733 0.596349
O3_2 O 0.7940(4) 0.3725(3) 0.5676(2)
C3_2 C 0.9961(5) 0.3334(4) 0.6540(4)
C4_2 C 0.8406(5) 0.3414(3) 0.6427(3)
Eu5_2 Eu 0.81071(2) 0.346112(16) 0.406197(15)
O6_3 O 0.0878(4) 0.1560(3) 0.4062(3)
O9_2 O 0.5657(4) 0.3870(3) 0.3677(2)
O10_2 O 0.5870(4) 0.2706(3) 0.4580(2)
O11_3 O 0.0390(3) 0.3159(2) 0.3133(2)
O12_3 O 0.0578(4) 0.3951(3) 0.4378(2)
O13_3 O 0.0150(4) 0.2793(3) 0.1292(2)
O14_3 O 0.0327(4) 0.0724(3) 0.1071(2)
C5_3 C 0.0109(6) 0.1647(3) 0.4737(3)
C6_3 C 0.0393(6) 0.1028(4) 0.5516(3)
H3_3 H 0.1251 0.0724 0.5554
C9_3 C 0.5120(5) 0.3288(4) 0.4182(3)
C10_3 C 0.3579(5) 0.3280(4) 0.4299(4)
H5_3 H 0.3228 0.3079 0.4843
C11_3 C 0.2688(5) 0.3550(4) 0.3656(4)
H6_3 H 0.3061 0.3754 0.3119
C12_3 C 0.1147(5) 0.3551(3) 0.3726(3)
O18_2 O 0.2653(4) 0.1807(3) 0.2069(2)
H10_3 H 0.105228 0.313266 0.129053
H12_3 H 0.131052 0.053267 0.0963485
O1_3 O 0.7881(4) 0.1470(3) 0.1752(2)
O2_3 O 0.7833(4) 0.2225(3) 0.3013(2)
O5_3 O 0.9093(4) 0.2187(3) 0.4782(2)
O15_2 O 0.7853(4) 0.5048(3) 0.4399(3)
O16_3 O 0.8089(4) 0.4264(3) 0.2621(2)
C1_3 C 0.7182(5) 0.1852(4) 0.2347(3)
C2_3 C 0.5650(5) 0.1864(4) 0.2285(3)
H1_3 H 0.5149 0.2018 0.2793
C3_3 C 0.4961(5) 0.1666(4) 0.1540(4)
H2_3 H 0.5491 0.1566 0.1031
C4_3 C 0.3406(5) 0.1586(3) 0.1427(3)
C7_3 C 0.9480(6) 0.0896(4) 0.6149(4)
H4_3 H 0.8718 0.1289 0.6184
C8_3 C 0.9612(6) 0.0144(4) 0.6812(3)
H7_3 H 0.888172 0.40467 0.225536
H8_3 H 0.819386 0.492418 0.273184
H9_3 H 0.998358 0.250136 0.0694995
H11_3 H 0.97243 0.017986 0.113787
H13_2 H 0.84134 0.541016 0.397323
H14_2 H 0.819577 0.516632 0.502677
O4_2 O 0.2347(4) 0.6807(3) 0.2931(2)
C3_4 C 0.0039(5) 0.6666(4) 0.3460(4)
C4_4 C 0.1594(5) 0.6586(3) 0.3573(3)
O1_4 O 0.7119(4) 0.6470(3) 0.3248(2)
O2_4 O 0.7167(4) 0.7225(3) 0.1987(2)
O5_4 O 0.5907(4) 0.7187(3) 0.0218(2)
O6_4 O 0.4122(4) 0.6560(3) 0.0938(3)
O11_4 O 0.4610(3) 0.8159(2) 0.1867(2)
O12_4 O 0.4422(4) 0.8951(3) 0.0622(2)
O13_4 O 0.4850(4) 0.7793(3) 0.3708(2)
O14_4 O 0.4673(4) 0.5724(3) 0.3929(2)
O16_4 O 0.6911(4) 0.9264(3) 0.2379(2)
C1_4 C 0.7818(5) 0.6852(4) 0.2653(3)
C2_4 C 0.9350(5) 0.6864(4) 0.2715(3)
H1_4 H 0.9851 0.7018 0.2207
H2_4 H 0.9509 0.6566 0.3969
C5_4 C 0.4891(6) 0.6647(3) 0.0263(3)
C10_4 C 0.1421(5) 0.8280(4) 0.0701(4)
H5_4 H 0.1772 0.8079 0.0157
C11_4 C 0.2312(5) 0.8550(4) 0.1344(4)
H6_4 H 0.1939 0.8754 0.1881
C12_4 C 0.3853(5) 0.8551(3) 0.1274(3)
O21_2 O 0.9343(4) 0.8870(3) 0.1323(2)
O22_2 O 0.9130(4) 0.7706(3) 0.0420(2)
H7_4 H 0.611828 0.90467 0.274464
H8_4 H 0.680614 0.992418 0.226816
H9_4 H 0.501642 0.750136 0.4305
H10_4 H 0.394772 0.813266 0.370947
H11_4 H 0.52757 0.517986 0.386213
H12_4 H 0.368948 0.553267 0.403651
C6_4 C 0.4607(6) 0.6028(4) 0.9484(3)
H3_4 H 0.3749 0.5724 0.9446
C7_4 C 0.5520(6) 0.5896(4) 0.8851(4)
H4_4 H 0.6282 0.6289 0.8816
C8_4 C 0.5388(6) 0.5144(4) 0.8188(3)
C9_4 C 0.9880(5) 0.8288(4) 0.0818(3)
H14_3 H 0.319577 0.983368 0.00267678
O15_3 O 0.2853(4) 0.9952(3) 0.9399(3)
H13_3 H 0.34134 0.958984 0.897323
O15_4 O 0.7147(4) 0.0048(3) 0.0601(3)
H13_4 H 0.65866 0.0410157 0.102677
H14_4 H 0.680423 0.0166321 0.997323
loop_
_geom_bond_atom_site_label_1
_geom_bond_atom_site_label_2
_geom_bond_site_symmetry_1
_geom_bond_site_symmetry_2
O8 Eu4 1_555 1_555
Eu2 O2 1_555 1_555
O1 C1 1_555 1_555
O3 C4 1_555 1_555
O4 C4 1_555 1_555
O5 Eu2 1_555 1_555
O15 Eu2 1_555 1_555
O16 Eu2 1_555 1_555
C1 O2 1_555 1_555
C2 C1 1_555 1_555
H1 C2 1_555 1_555
C3 C2 1_555 1_555
H2 C3 1_555 1_555
C4 C3 1_555 1_555
H4 C7 1_555 1_555
C8 C7 1_555 1_555
Eu3 O4 1_555 1_555
O17 Eu2 1_555 1_555
O21 Eu2 1_555 1_555
O22 Eu2 1_555 1_555
O16 H7 1_555 1_555
O16 H8 1_555 1_555
O15 H13 1_555 1_555
O15 H14 1_555 1_555
O6 Eu3 1_555 1_555
O21 C9 1_555 1_555
O22 C9 1_555 1_555
O11 Eu3 1_555 1_555
O13 Eu3 1_555 1_555
O14 Eu3 1_555 1_555
C6 C5 1_555 1_555
H3 C6 1_555 1_555
C9 C10 1_555 1_555
C10 H5 1_555 1_555
C11 C10 1_555 1_555
H6 C11 1_555 1_555
C12 O11 1_555 1_555
O20 Eu3 1_555 1_555
O6 C5 1_555 1_555
O12 C12 1_555 1_555
C11 C12 1_555 1_555
O13 H10 1_555 1_555
O14 H12 1_555 1_555
O9 C9_2 1_555 1_555
O10 C9_2 1_555 1_555
Eu6 O9 1_555 1_555
O10 Eu6 1_555 1_555
O7_2 C8_2 1_555 1_555
O8_2 C8_2 1_555 1_555
H3_2 C6_2 1_555 1_555
C7_2 C6_2 1_555 1_555
H4_2 C7_2 1_555 1_555
C8_2 C7_2 1_555 1_555
Eu4_2 O7_2 1_555 1_555
O8_2 Eu4_2 1_555 1_555
Eu1 O1_2 1_555 1_555
Eu6 O2_2 1_555 1_555
O1_2 C1_2 1_555 1_555
O2_2 Eu1 1_555 1_555
O5_2 Eu6 1_555 1_555
O6_2 Eu1 1_555 1_555
O11_2 Eu1 1_555 1_555
O12_2 Eu6 1_555 1_555
O13_2 Eu1 1_555 1_555
O14_2 Eu1 1_555 1_555
O16_2 Eu6 1_555 1_555
C1_2 O2_2 1_555 1_555
C2_2 C1_2 1_555 1_555
H1_2 C2_2 1_555 1_555
C5_2 O5_2 1_555 1_555
C10_2 H5_2 1_555 1_555
C11_2 C10_2 1_555 1_555
H6_2 C11_2 1_555 1_555
C12_2 O11_2 1_555 1_555
O18 Eu1 1_555 1_555
O19_2 Eu1 1_555 1_555
O20_2 Eu1 1_555 1_555
Eu6 O11_2 1_555 1_555
O6_2 C5_2 1_555 1_555
O12_2 C12_2 1_555 1_555
C11_2 C12_2 1_555 1_555
O16_2 H7_2 1_555 1_555
O16_2 H8_2 1_555 1_555
O13_2 H9_2 1_555 1_555
O13_2 H10_2 1_555 1_555
O14_2 H11_2 1_555 1_555
O14_2 H12_2 1_555 1_555
O3_2 C4_2 1_555 1_555
O18 C4_2 1_555 1_555
C4_2 C3_2 1_555 1_555
Eu5_2 O3_2 1_555 1_555
O6_3 Eu4 1_555 1_555
O9_2 C9_3 1_555 1_555
O10_2 C9_3 1_555 1_555
O11_3 Eu4 1_555 1_555
O13_3 Eu4 1_555 1_555
O14_3 Eu4 1_555 1_555
C6_3 C5_3 1_555 1_555
H3_3 C6_3 1_555 1_555
C9_3 C10_3 1_555 1_555
C10_3 H5_3 1_555 1_555
C11_3 C10_3 1_555 1_555
H6_3 C11_3 1_555 1_555
C12_3 O11_3 1_555 1_555
Eu5_2 O9_2 1_555 1_555
O18_2 Eu4 1_555 1_555
O6_3 C5_3 1_555 1_555
O10_2 Eu5_2 1_555 1_555
O12_3 C12_3 1_555 1_555
C11_3 C12_3 1_555 1_555
O13_3 H10_3 1_555 1_555
O14_3 H12_3 1_555 1_555
Eu5_2 O2_3 1_555 1_555
O1_3 C1_3 1_555 1_555
O17_2 C4_3 1_555 1_555
O18_2 C4_3 1_555 1_555
O5_3 Eu5_2 1_555 1_555
O15_2 Eu5_2 1_555 1_555
O16_3 Eu5_2 1_555 1_555
C1_3 O2_3 1_555 1_555
C2_3 C1_3 1_555 1_555
H1_3 C2_3 1_555 1_555
C3_3 C2_3 1_555 1_555
H2_3 C3_3 1_555 1_555
C4_3 C3_3 1_555 1_555
H4_3 C7_3 1_555 1_555
C8_3 C7_3 1_555 1_555
O16_3 H7_3 1_555 1_555
O16_3 H8_3 1_555 1_555
O15_2 H13_2 1_555 1_555
O15_2 H14_2 1_555 1_555
O17 C4_4 1_555 1_555
O4_2 C4_4 1_555 1_555
C4_4 C3_4 1_555 1_555
Eu4_2 O4_2 1_555 1_555
Eu4_2 O1_4 1_555 1_555
Eu5 O2_4 1_555 1_555
O1_4 C1_4 1_555 1_555
O2_4 Eu4_2 1_555 1_555
O5_4 Eu5 1_555 1_555
O6_4 Eu4_2 1_555 1_555
O11_4 Eu4_2 1_555 1_555
O12_4 Eu5 1_555 1_555
O13_4 Eu4_2 1_555 1_555
O14_4 Eu4_2 1_555 1_555
O16_4 Eu5 1_555 1_555
C1_4 O2_4 1_555 1_555
C2_4 C1_4 1_555 1_555
H1_4 C2_4 1_555 1_555
C5_4 O5_4 1_555 1_555
C10_4 H5_4 1_555 1_555
C11_4 C10_4 1_555 1_555
H6_4 C11_4 1_555 1_555
C12_4 O11_4 1_555 1_555
O21_2 Eu5 1_555 1_555
O22_2 Eu5 1_555 1_555
Eu5 O11_4 1_555 1_555
O6_4 C5_4 1_555 1_555
O12_4 C12_4 1_555 1_555
C11_4 C12_4 1_555 1_555
O16_4 H7_4 1_555 1_555
O16_4 H8_4 1_555 1_555
O13_4 H9_4 1_555 1_555
O13_4 H10_4 1_555 1_555
O14_4 H11_4 1_555 1_555
O14_4 H12_4 1_555 1_555
O19_2 C8_4 1_555 1_555
O20_2 C8_4 1_555 1_555
H3_4 C6_4 1_555 1_555
C7_4 C6_4 1_555 1_555
H4_4 C7_4 1_555 1_555
C8_4 C7_4 1_555 1_555
O21_2 C9_4 1_555 1_555
O22_2 C9_4 1_555 1_555
O15_3 H13_3 1_555 1_555
O15_4 H13_4 1_555 1_555

#END
