
###############################################################################
#
# This file contains modified crystal structure data generated from the
# MOF subset of the Cambridge Structural Database (CSD) v543 
# hosted by the Cambridge Crystallographic Data Centre (CCDC).
#
# This work is licensed under the Creative Commons
# Attribution-NonCommercial-ShareAlike 4.0 International License.
# To view a copy of this license, visit
# http://creativecommons.org/licenses/by-nc-sa/4.0/
# or send a letter to
# Creative Commons, PO Box 1866, Mountain View, CA 94042, USA.
#
# CIF created using the CSD Python API on 29 September 2022
# The structure has been converted into the P1 space group
# The structure has a 3D framework
# The original CSD entry DAQRET is in the monoclinic crystal system
# The framework has been calculated to contain at least 10.0% void space
# The void calculation uses a probe of radius 1.32A, grid spacing 0.4
#
###############################################################################

data_DAQRET
_chemical_formula_moiety         '(C48 H56 Eu8 O60)n'
_symmetry_cell_setting           triclinic
_symmetry_space_group_name_H-M   'P 1'
_symmetry_Int_Tables_number      1
_space_group_name_Hall           'P 1'
loop_
_symmetry_equiv_pos_site_id
_symmetry_equiv_pos_as_xyz
1 x,y,z
_cell_length_a                   9.475(3)
_cell_length_b                   14.700(5)
_cell_length_c                   14.810(4)
_cell_angle_alpha                90
_cell_angle_beta                 91.250(5)
_cell_angle_gamma                90
_cell_volume                     2062.28
loop_
_atom_site_label
_atom_site_type_symbol
_atom_site_fract_x
_atom_site_fract_y
_atom_site_fract_z
Eu5 Eu 0.18903(3) 0.84569(3) 0.09350(2)
O3 O 0.2347(5) 0.8202(4) 0.7931(3)
O4 O 0.2047(5) 0.8720(4) 0.9320(3)
C3 C 0.0035(8) 0.8333(6) 0.8464(5)
C4 C 0.1584(7) 0.8402(5) 0.8570(5)
Eu3 Eu 0.47294(3) 0.83625(3) 0.75451(2)
O7 O 0.6494(5) 0.0146(4) 0.2825(3)
O8 O 0.4220(5) 0.0237(4) 0.3048(3)
Eu4 Eu 0.52706(3) 0.16375(3) 0.24549(2)
Eu2 Eu 0.68903(3) 0.65431(3) 0.59350(2)
O1 O 0.7111(5) 0.8535(4) 0.8251(3)
O2 O 0.7169(5) 0.7773(4) 0.6990(3)
O5 O 0.4107(5) 0.8466(4) 0.5934(3)
O6 O 0.5915(6) 0.7824(4) 0.5222(3)
O9 O 0.4609(5) 0.6854(3) 0.6854(3)
O10 O 0.4407(5) 0.6058(4) 0.5607(3)
O13 O 0.4676(5) 0.9278(4) 0.8924(3)
H1 H 0.5373 0.9268 0.9296
H2 H 0.3960 0.9605 0.9032
O14 O 0.4820(6) 0.7207(4) 0.8702(3)
H3 H 0.5219 0.6701 0.8599
H4 H 0.4456 0.7305 0.9212
O15 O 0.6888(5) 0.5737(4) 0.7361(3)
H5 H 0.6498 0.5973 0.7816
H6 H 0.7279 0.5218 0.7406
O16 O 0.7136(6) 0.4960(4) 0.5597(3)
H7 H 0.6643 0.4570 0.5873
H8 H 0.7715 0.4789 0.5202
C1 C 0.7797(7) 0.8145(5) 0.7660(5)
C2 C 0.9366(8) 0.8132(5) 0.7719(5)
H9 H 0.9875 0.7978 0.7212
H10 H 0.9498 0.8441 0.8971
C5 C 0.4905(8) 0.8374(6) 0.5268(5)
C6 C 0.4607(8) 0.8972(6) 0.4490(5)
H11 H 0.3737 0.9263 0.4445
C7 C 0.5538(9) 0.9107(5) 0.3856(5)
H12 H 0.6312 0.8720 0.3827
C8 C 0.5399(9) 0.9857(6) 0.3183(5)
C9 C 0.3839(7) 0.6455(5) 0.6259(5)
C10 C 0.2302(7) 0.6452(5) 0.6342(5)
H13 H 0.1926 0.6252 0.6882
C11 C 0.1423(7) 0.6718(6) 0.5695(5)
H14 H 0.1779 0.6913 0.5148
O18 O 0.7047(5) 0.6280(4) 0.4320(3)
O19 O 0.3506(5) 0.9854(4) 0.7175(3)
O20 O 0.5780(5) 0.9763(4) 0.6952(3)
O21 O 0.9348(5) 0.6131(4) 0.6328(3)
O22 O 0.9116(5) 0.7295(4) 0.5414(3)
C12 C 0.9888(7) 0.6712(6) 0.5819(5)
O8_2 O 0.0780(5) 0.5237(4) 0.1952(3)
C6_2 C 0.0393(8) 0.3972(6) 0.0510(5)
H11_2 H 0.1263 0.4263 0.0555
Eu1 Eu 0.02706(3) 0.33625(3) 0.74549(2)
O5_2 O 0.0893(5) 0.3466(4) 0.9066(3)
O9_2 O 0.0391(5) 0.1854(3) 0.8146(3)
O10_2 O 0.0593(5) 0.1058(4) 0.9393(3)
O11 O 0.5652(5) 0.1131(4) 0.8672(3)
O12 O 0.5884(5) 0.2295(4) 0.9586(3)
O13_2 O 0.0324(5) 0.4278(4) 0.6076(3)
H2_2 H 0.1040 0.4605 0.5968
O14_2 O 0.0180(6) 0.2207(4) 0.6298(3)
H4_2 H 0.0544 0.2305 0.5788
C5_2 C 0.0095(8) 0.3374(6) 0.9732(5)
C9_2 C 0.1161(7) 0.1455(5) 0.8741(5)
C10_2 C 0.2698(7) 0.1452(5) 0.8658(5)
H13_2 H 0.3074 0.1252 0.8118
C11_2 C 0.3577(7) 0.1718(6) 0.9305(5)
H14_2 H 0.3221 0.1913 0.9852
C12_2 C 0.5112(7) 0.1712(6) 0.9181(5)
Eu6 Eu 0.81097(3) 0.15431(3) 0.90650(2)
O17 O 0.2653(5) 0.3202(4) 0.7069(3)
O19_2 O 0.1494(5) 0.4854(4) 0.7825(3)
O7_2 O 0.8506(5) 0.5146(4) 0.2175(3)
C7_2 C 0.9462(9) 0.4107(5) 0.1144(5)
H12_2 H 0.8688 0.3720 0.1173
C8_2 C 0.9601(9) 0.4857(6) 0.1817(5)
Eu4_2 Eu 0.97294(3) 0.66375(3) 0.25451(2)
O18_2 O 0.7953(5) 0.1280(4) 0.0680(3)
O1_2 O 0.7889(5) 0.3535(4) 0.6749(3)
O2_2 O 0.7831(5) 0.2773(4) 0.8010(3)
O4_2 O 0.2953(5) 0.3720(4) 0.5680(3)
O6_2 O 0.9085(6) 0.2824(4) 0.9778(3)
H1_2 H 0.9627 0.4268 0.5704
H3_2 H 0.9781 0.1701 0.6401
O15_2 O 0.8112(5) 0.0737(4) 0.7639(3)
H5_2 H 0.8502 0.0973 0.7184
H6_2 H 0.7721 0.0218 0.7594
C1_2 C 0.7203(7) 0.3145(5) 0.7340(5)
C2_2 C 0.5634(8) 0.3132(5) 0.7281(5)
H9_2 H 0.5125 0.2978 0.7788
C3_2 C 0.4965(8) 0.3333(6) 0.6536(5)
H10_2 H 0.5502 0.3441 0.6029
C4_2 C 0.3416(7) 0.3402(5) 0.6430(5)
Eu5_2 Eu 0.31097(3) 0.34569(3) 0.40650(2)
O20_2 O 0.9220(5) 0.4763(4) 0.8048(3)
O11_2 O 0.0652(5) 0.3869(4) 0.3672(3)
O12_2 O 0.0884(5) 0.2705(4) 0.4586(3)
C12_3 C 0.0112(7) 0.3288(6) 0.4181(5)
O1_3 O 0.2889(5) 0.1465(4) 0.1749(3)
O2_3 O 0.2831(5) 0.2227(4) 0.3010(3)
O5_3 O 0.5893(5) 0.1534(4) 0.4066(3)
O6_3 O 0.4085(6) 0.2176(4) 0.4778(3)
O9_3 O 0.5391(5) 0.3146(3) 0.3146(3)
O10_3 O 0.5593(5) 0.3942(4) 0.4393(3)
O13_3 O 0.5324(5) 0.0722(4) 0.1076(3)
H1_3 H 0.4627 0.0732 0.0704
H2_3 H 0.6040 0.0395 0.0968
O14_3 O 0.5180(6) 0.2793(4) 0.1298(3)
H3_3 H 0.4781 0.3299 0.1401
H4_3 H 0.5544 0.2695 0.0788
O15_3 O 0.3112(5) 0.4263(4) 0.2639(3)
H5_3 H 0.3502 0.4027 0.2184
H6_3 H 0.2721 0.4782 0.2594
O16_2 O 0.2864(6) 0.5040(4) 0.4403(3)
H7_2 H 0.3357 0.5430 0.4127
H8_2 H 0.2285 0.5211 0.4798
C1_3 C 0.2203(7) 0.1855(5) 0.2340(5)
C2_3 C 0.0634(8) 0.1868(5) 0.2281(5)
H9_3 H 0.0125 0.2022 0.2788
H10_3 H 0.0502 0.1559 0.1029
C5_3 C 0.5095(8) 0.1626(6) 0.4732(5)
C6_3 C 0.5393(8) 0.1028(6) 0.5510(5)
H11_3 H 0.6263 0.0737 0.5555
C7_3 C 0.4462(9) 0.0893(5) 0.6144(5)
H12_3 H 0.3688 0.1280 0.6173
C8_3 C 0.4601(9) 0.0143(6) 0.6817(5)
C9_3 C 0.6161(7) 0.3545(5) 0.3741(5)
C10_3 C 0.7698(7) 0.3548(5) 0.3658(5)
H13_3 H 0.8074 0.3748 0.3118
C11_3 C 0.8577(7) 0.3282(6) 0.4305(5)
H14_3 H 0.8221 0.3087 0.4852
O17_2 O 0.7653(5) 0.1798(4) 0.2069(3)
C3_3 C 0.9965(8) 0.1667(6) 0.1536(5)
C4_3 C 0.8416(7) 0.1598(5) 0.1430(5)
O1_4 O 0.2111(5) 0.6465(4) 0.3251(3)
O2_4 O 0.2169(5) 0.7227(4) 0.1990(3)
O3_2 O 0.7347(5) 0.6798(4) 0.2931(3)
O6_4 O 0.0915(6) 0.7176(4) 0.0222(3)
H1_4 H 0.0373 0.5732 0.4296
H3_4 H 0.0219 0.8299 0.3599
O15_4 O 0.1888(5) 0.9263(4) 0.2361(3)
H5_4 H 0.1498 0.9027 0.2816
H6_4 H 0.2279 0.9782 0.2406
C1_4 C 0.2797(7) 0.6855(5) 0.2660(5)
C2_4 C 0.4366(8) 0.6868(5) 0.2719(5)
H9_4 H 0.4875 0.7022 0.2212
C3_4 C 0.5035(8) 0.6667(6) 0.3464(5)
H10_4 H 0.4498 0.6559 0.3971
C4_4 C 0.6584(7) 0.6598(5) 0.3570(5)
O21_2 O 0.4348(5) 0.8869(4) 0.1328(3)
O22_2 O 0.4116(5) 0.7705(4) 0.0414(3)
C7_4 C 0.0538(9) 0.5893(5) 0.8856(5)
H12_4 H 0.1312 0.6280 0.8827
C8_4 C 0.0399(9) 0.5143(6) 0.8183(5)
O5_4 O 0.9107(5) 0.6534(4) 0.0934(3)
O9_4 O 0.9609(5) 0.8146(3) 0.1854(3)
O10_4 O 0.9407(5) 0.8942(4) 0.0607(3)
O13_4 O 0.9676(5) 0.5722(4) 0.3924(3)
H2_4 H 0.8960 0.5395 0.4032
O14_4 O 0.9820(6) 0.7793(4) 0.3702(3)
H4_4 H 0.9456 0.7695 0.4212
C5_4 C 0.9905(8) 0.6626(6) 0.0268(5)
C9_4 C 0.8839(7) 0.8545(5) 0.1259(5)
C10_4 C 0.7302(7) 0.8548(5) 0.1342(5)
H13_4 H 0.6926 0.8748 0.1882
C11_4 C 0.6423(7) 0.8282(6) 0.0695(5)
H14_4 H 0.6779 0.8087 0.0148
C12_4 C 0.4888(7) 0.8288(6) 0.0819(5)
C6_4 C 0.9607(8) 0.6028(6) 0.9490(5)
H11_4 H 0.8737 0.5737 0.9445
O16_3 O 0.7864(6) 0.9960(4) 0.9403(3)
H7_3 H 0.8357 0.9570 0.9127
H8_3 H 0.7285 0.9789 0.9798
O16_4 O 0.2136(6) 0.0040(4) 0.0597(3)
H7_4 H 0.1643 0.0430 0.0873
H8_4 H 0.2715 0.0211 0.0202
loop_
_geom_bond_atom_site_label_1
_geom_bond_atom_site_label_2
_geom_bond_site_symmetry_1
_geom_bond_site_symmetry_2
O3 C4 1_555 1_555
O4 C4 1_555 1_555
C4 C3 1_555 1_555
Eu3 O3 1_555 1_555
Eu4 O7 1_555 1_555
O8 Eu4 1_555 1_555
Eu3 O1 1_555 1_555
Eu2 O2 1_555 1_555
O1 C1 1_555 1_555
O2 Eu3 1_555 1_555
O5 Eu3 1_555 1_555
O6 Eu2 1_555 1_555
O9 Eu3 1_555 1_555
O10 Eu2 1_555 1_555
O13 Eu3 1_555 1_555
H1 O13 1_555 1_555
H2 O13 1_555 1_555
O14 Eu3 1_555 1_555
H3 O14 1_555 1_555
H4 O14 1_555 1_555
O15 Eu2 1_555 1_555
H5 O15 1_555 1_555
H6 O15 1_555 1_555
O16 Eu2 1_555 1_555
H7 O16 1_555 1_555
H8 O16 1_555 1_555
C1 O2 1_555 1_555
C2 C1 1_555 1_555
H9 C2 1_555 1_555
C5 O5 1_555 1_555
C6 C5 1_555 1_555
H11 C6 1_555 1_555
C7 C6 1_555 1_555
H12 C7 1_555 1_555
C8 C7 1_555 1_555
C9 O9 1_555 1_555
C10 C9 1_555 1_555
H13 C10 1_555 1_555
C11 C10 1_555 1_555
H14 C11 1_555 1_555
O18 Eu2 1_555 1_555
O19 Eu3 1_555 1_555
O20 Eu3 1_555 1_555
O21 Eu2 1_555 1_555
O22 Eu2 1_555 1_555
Eu2 O9 1_555 1_555
O6 C5 1_555 1_555
O10 C9 1_555 1_555
O21 C12 1_555 1_555
O22 C12 1_555 1_555
H11_2 C6_2 1_555 1_555
O5_2 Eu1 1_555 1_555
O9_2 Eu1 1_555 1_555
O11 C12_2 1_555 1_555
O12 C12_2 1_555 1_555
O13_2 Eu1 1_555 1_555
H2_2 O13_2 1_555 1_555
O14_2 Eu1 1_555 1_555
H4_2 O14_2 1_555 1_555
C5_2 O5_2 1_555 1_555
C9_2 O9_2 1_555 1_555
C10_2 C9_2 1_555 1_555
H13_2 C10_2 1_555 1_555
C11_2 C10_2 1_555 1_555
H14_2 C11_2 1_555 1_555
C12_2 C11_2 1_555 1_555
Eu6 O11 1_555 1_555
O17 Eu1 1_555 1_555
O19_2 Eu1 1_555 1_555
O10_2 C9_2 1_555 1_555
O12 Eu6 1_555 1_555
O7_2 C8_2 1_555 1_555
H12_2 C7_2 1_555 1_555
C8_2 C7_2 1_555 1_555
Eu4_2 O7_2 1_555 1_555
Eu6 O2_2 1_555 1_555
O1_2 C1_2 1_555 1_555
O17 C4_2 1_555 1_555
O4_2 C4_2 1_555 1_555
O6_2 Eu6 1_555 1_555
O15_2 Eu6 1_555 1_555
H5_2 O15_2 1_555 1_555
H6_2 O15_2 1_555 1_555
C1_2 O2_2 1_555 1_555
C2_2 C1_2 1_555 1_555
H9_2 C2_2 1_555 1_555
C3_2 C2_2 1_555 1_555
H10_2 C3_2 1_555 1_555
C4_2 C3_2 1_555 1_555
Eu5_2 O4_2 1_555 1_555
O11_2 C12_3 1_555 1_555
O12_2 C12_3 1_555 1_555
Eu5_2 O11_2 1_555 1_555
O12_2 Eu5_2 1_555 1_555
Eu4 O1_3 1_555 1_555
Eu5_2 O2_3 1_555 1_555
O1_3 C1_3 1_555 1_555
O2_3 Eu4 1_555 1_555
O5_3 Eu4 1_555 1_555
O6_3 Eu5_2 1_555 1_555
O9_3 Eu4 1_555 1_555
O10_3 Eu5_2 1_555 1_555
O13_3 Eu4 1_555 1_555
H1_3 O13_3 1_555 1_555
H2_3 O13_3 1_555 1_555
O14_3 Eu4 1_555 1_555
H3_3 O14_3 1_555 1_555
H4_3 O14_3 1_555 1_555
O15_3 Eu5_2 1_555 1_555
H5_3 O15_3 1_555 1_555
H6_3 O15_3 1_555 1_555
O16_2 Eu5_2 1_555 1_555
H7_2 O16_2 1_555 1_555
H8_2 O16_2 1_555 1_555
C1_3 O2_3 1_555 1_555
C2_3 C1_3 1_555 1_555
H9_3 C2_3 1_555 1_555
C5_3 O5_3 1_555 1_555
C6_3 C5_3 1_555 1_555
H11_3 C6_3 1_555 1_555
C7_3 C6_3 1_555 1_555
H12_3 C7_3 1_555 1_555
C8_3 C7_3 1_555 1_555
C9_3 O9_3 1_555 1_555
C10_3 C9_3 1_555 1_555
H13_3 C10_3 1_555 1_555
C11_3 C10_3 1_555 1_555
H14_3 C11_3 1_555 1_555
O17_2 Eu4 1_555 1_555
Eu5_2 O9_3 1_555 1_555
O6_3 C5_3 1_555 1_555
O10_3 C9_3 1_555 1_555
O17_2 C4_3 1_555 1_555
O18_2 C4_3 1_555 1_555
C4_3 C3_3 1_555 1_555
Eu5 O2_4 1_555 1_555
O1_4 C1_4 1_555 1_555
O3_2 C4_4 1_555 1_555
O18 C4_4 1_555 1_555
O6_4 Eu5 1_555 1_555
O15_4 Eu5 1_555 1_555
H5_4 O15_4 1_555 1_555
H6_4 O15_4 1_555 1_555
C1_4 O2_4 1_555 1_555
C2_4 C1_4 1_555 1_555
H9_4 C2_4 1_555 1_555
C3_4 C2_4 1_555 1_555
H10_4 C3_4 1_555 1_555
C4_4 C3_4 1_555 1_555
Eu4_2 O3_2 1_555 1_555
O21_2 Eu5 1_555 1_555
O22_2 Eu5 1_555 1_555
O19_2 C8_4 1_555 1_555
H12_4 C7_4 1_555 1_555
C8_4 C7_4 1_555 1_555
O5_4 Eu4_2 1_555 1_555
O9_4 Eu4_2 1_555 1_555
O21_2 C12_4 1_555 1_555
O22_2 C12_4 1_555 1_555
O13_4 Eu4_2 1_555 1_555
H2_4 O13_4 1_555 1_555
O14_4 Eu4_2 1_555 1_555
H4_4 O14_4 1_555 1_555
C5_4 O5_4 1_555 1_555
C9_4 O9_4 1_555 1_555
C10_4 C9_4 1_555 1_555
H13_4 C10_4 1_555 1_555
C11_4 C10_4 1_555 1_555
H14_4 C11_4 1_555 1_555
C12_4 C11_4 1_555 1_555
O10_4 C9_4 1_555 1_555
H11_4 C6_4 1_555 1_555
H7_3 O16_3 1_555 1_555
H8_3 O16_3 1_555 1_555
H7_4 O16_4 1_555 1_555
H8_4 O16_4 1_555 1_555

#END
