
###############################################################################
#
# This file contains modified crystal structure data generated from the
# MOF subset of the Cambridge Structural Database (CSD) v543 
# hosted by the Cambridge Crystallographic Data Centre (CCDC).
#
# This work is licensed under the Creative Commons
# Attribution-NonCommercial-ShareAlike 4.0 International License.
# To view a copy of this license, visit
# http://creativecommons.org/licenses/by-nc-sa/4.0/
# or send a letter to
# Creative Commons, PO Box 1866, Mountain View, CA 94042, USA.
#
# CIF created using the CSD Python API on 29 September 2022
# The structure has been converted into the P1 space group
# The structure has a 3D framework
# The original CSD entry DARCOQ is in the monoclinic crystal system
# The framework has been calculated to contain at least 10.0% void space
# The void calculation uses a probe of radius 1.32A, grid spacing 0.4
# The framework is charged, counterions have been retained in the structure
#
###############################################################################

data_DARCOQ
_chemical_formula_moiety         '(C86 H50 O32 P4 Y4 3-)n'
_symmetry_cell_setting           triclinic
_symmetry_space_group_name_H-M   'P 1'
_symmetry_Int_Tables_number      1
_space_group_name_Hall           'P 1'
loop_
_symmetry_equiv_pos_site_id
_symmetry_equiv_pos_as_xyz
1 x,y,z
_cell_length_a                   14.539(4)
_cell_length_b                   10.546(3)
_cell_length_c                   23.378(6)
_cell_angle_alpha                90
_cell_angle_beta                 107.231(5)
_cell_angle_gamma                90
_cell_volume                     3423.63
loop_
_atom_site_label
_atom_site_type_symbol
_atom_site_fract_x
_atom_site_fract_y
_atom_site_fract_z
Y1 Y 0.34575(2) 0.43290(3) 0.272358(16)
C4 C 0.0509(3) 0.5337(4) 0.18553(19)
C5 C 0.0250(3) 0.6580(4) 0.1783(2)
H3 H 0.0721 0.7206 0.1866
C7 C 0.1561(3) 0.4935(4) 0.21195(18)
C22 C 0.5000 0.6582(6) 0.2500
H13 H 0.5000 0.7464 0.2500
O1 O 0.1776(2) 0.3822(3) 0.22738(15)
O2 O 0.2197(2) 0.5809(3) 0.21883(15)
O8 O 0.4306(2) 0.6123(3) 0.26159(17)
Y7 Y 0.65425(2) 0.43290(3) 0.227642(16)
C33 C 0.3057(3) 0.0517(4) 0.32795(19)
C34 C 0.2841(4) 0.0276(4) 0.3806(2)
H20 H 0.2765 0.0939 0.4051
C36 C 0.3195(3) 0.1854(4) 0.31035(19)
O11 O 0.3434(2) 0.2060(3) 0.26337(13)
O13 O 0.3084(2) 0.2787(3) 0.34245(14)
O16 O 0.4964(2) 0.3803(4) 0.32658(13)
O19 O 0.3539(2) 0.3992(3) 0.17744(13)
O22 O 0.3259(2) 0.5519(3) 0.35009(12)
O24 O 0.5694(2) 0.6123(3) 0.23841(17)
Y8 Y 0.65425(2) 0.56710(3) 0.727642(16)
Y9 Y 0.34575(2) 0.56710(3) 0.772358(16)
C23 C 0.1426(3) 0.6020(4) 0.35413(17)
C24 C 0.1165(3) 0.4754(4) 0.3477(2)
H14 H 0.1642 0.4136 0.3571
C25 C 0.0188(3) 0.4382(4) 0.3269(2)
H15 H 0.0016 0.3531 0.3218
C28 C 0.0709(3) 0.6917(4) 0.3414(2)
H17 H 0.0874 0.7771 0.3462
C30 C 0.2813(3) 0.8012(4) 0.35952(17)
C31 C 0.2983(4) 0.8294(4) 0.3057(2)
H18 H 0.3021 0.7641 0.2798
C32 C 0.3097(4) 0.9536(4) 0.2901(2)
H19 H 0.3201 0.9710 0.2535
C35 C 0.2738(4) 0.9016(4) 0.3966(2)
H21 H 0.2617 0.8846 0.4327
C37 C 0.3093(3) 0.6278(4) 0.45833(17)
C38 C 0.2464(3) 0.6212(6) 0.4925(2)
H22 H 0.1804 0.6200 0.4738
C39 C 0.2813(3) 0.6165(7) 0.5541(2)
H23 H 0.2380 0.6129 0.5764
C40 C 0.3785(3) 0.6170(4) 0.58328(17)
C41 C 0.4417(3) 0.6251(6) 0.5490(2)
H24 H 0.5077 0.6263 0.5678
C42 C 0.4075(3) 0.6314(6) 0.4874(2)
H25 H 0.4507 0.6382 0.4651
C43 C 0.4154(3) 0.6132(4) 0.64936(17)
O15 O 0.5036(2) 0.6197(4) 0.67342(13)
O18 O 0.3539(2) 0.6008(3) 0.67744(13)
P2 P 0.26829(7) 0.63919(9) 0.37779(4)
C11 C 0.6943(3) 0.0517(4) 0.17205(19)
C12 C 0.7159(4) 0.0276(4) 0.1194(2)
H7 H 0.7235 0.0939 0.0949
C14 C 0.6805(3) 0.1854(4) 0.18965(19)
O3 O 0.6566(2) 0.2060(3) 0.23663(13)
O4 O 0.6916(2) 0.2787(3) 0.15755(14)
C1 C 0.8574(3) 0.6020(4) 0.14587(17)
C2 C 0.8835(3) 0.4754(4) 0.1523(2)
H1 H 0.8358 0.4136 0.1429
C3 C 0.9812(3) 0.4382(4) 0.1731(2)
H2 H 0.9984 0.3531 0.1782
C6 C 0.9291(3) 0.6917(4) 0.1586(2)
H4 H 0.9126 0.7771 0.1538
C8 C 0.7187(3) 0.8012(4) 0.14048(17)
C9 C 0.7017(4) 0.8294(4) 0.1943(2)
H5 H 0.6979 0.7641 0.2202
C10 C 0.6903(4) 0.9536(4) 0.2099(2)
H6 H 0.6799 0.9710 0.2465
C13 C 0.7262(4) 0.9016(4) 0.1034(2)
H8 H 0.7383 0.8846 0.0673
C15 C 0.6907(3) 0.6278(4) 0.04167(17)
C16 C 0.7536(3) 0.6212(6) 0.0075(2)
H9 H 0.8196 0.6200 0.0262
C20 C 0.5925(3) 0.6314(6) 0.0126(2)
H12 H 0.5493 0.6382 0.0349
O7 O 0.6741(2) 0.5519(3) 0.14991(12)
P1 P 0.73171(7) 0.63919(9) 0.12221(4)
C17 C 0.7187(3) 0.6165(7) 0.9459(2)
H10 H 0.7620 0.6129 0.9236
C18 C 0.6215(3) 0.6170(4) 0.91672(17)
C19 C 0.5583(3) 0.6251(6) 0.9510(2)
H11 H 0.4923 0.6263 0.9322
C21 C 0.5846(3) 0.6132(4) 0.85064(17)
O5 O 0.4964(2) 0.6197(4) 0.82658(13)
O6 O 0.6461(2) 0.6008(3) 0.82256(13)
C26 C 0.9491(3) 0.5337(4) 0.31447(19)
C27 C 0.9750(3) 0.6580(4) 0.3217(2)
H16 H 0.9279 0.7206 0.3134
C29 C 0.8439(3) 0.4935(4) 0.28805(18)
O9 O 0.8224(2) 0.3822(3) 0.27262(15)
O10 O 0.7803(2) 0.5809(3) 0.28117(15)
O17 O 0.5036(2) 0.3803(4) 0.17342(13)
O20 O 0.6461(2) 0.3992(3) 0.32256(13)
C26_2 C 0.0509(3) 0.4663(4) 0.68553(19)
C27_2 C 0.0250(3) 0.3420(4) 0.6783(2)
H16_2 H 0.0721 0.2794 0.6866
C29_2 C 0.1561(3) 0.5065(4) 0.71195(18)
O9_2 O 0.1776(2) 0.6178(3) 0.72738(15)
O10_2 O 0.2197(2) 0.4191(3) 0.71883(15)
O12 O 0.3434(2) 0.7940(3) 0.76337(13)
O14 O 0.3084(2) 0.7213(3) 0.84245(14)
O23 O 0.3259(2) 0.4481(3) 0.85009(12)
O25 O 0.4306(2) 0.3877(3) 0.76159(17)
C17_2 C 0.2813(3) 0.3835(7) 0.0541(2)
H10_2 H 0.2380 0.3871 0.0764
C18_2 C 0.3785(3) 0.3830(4) 0.08328(17)
C19_2 C 0.4417(3) 0.3749(6) 0.0490(2)
H11_2 H 0.5077 0.3737 0.0678
C21_2 C 0.4154(3) 0.3868(4) 0.14936(17)
C1_2 C 0.1426(3) 0.3980(4) 0.85413(17)
C2_2 C 0.1165(3) 0.5246(4) 0.8477(2)
H1_2 H 0.1642 0.5864 0.8571
C3_2 C 0.0188(3) 0.5618(4) 0.8269(2)
H2_2 H 0.0016 0.6469 0.8218
C6_2 C 0.0709(3) 0.3083(4) 0.8414(2)
H4_2 H 0.0874 0.2229 0.8462
C8_2 C 0.2813(3) 0.1988(4) 0.85952(17)
C9_2 C 0.2983(4) 0.1706(4) 0.8057(2)
H5_2 H 0.3021 0.2359 0.7798
C10_2 C 0.3097(4) 0.0464(4) 0.7901(2)
H6_2 H 0.3201 0.0290 0.7535
C13_2 C 0.2738(4) 0.0984(4) 0.8966(2)
H8_2 H 0.2617 0.1154 0.9327
C15_2 C 0.3093(3) 0.3722(4) 0.95833(17)
C16_2 C 0.2464(3) 0.3788(6) 0.9925(2)
H9_2 H 0.1804 0.3800 0.9738
C20_2 C 0.4075(3) 0.3686(6) 0.9874(2)
H12_2 H 0.4507 0.3618 0.9651
P1_2 P 0.26829(7) 0.36081(9) 0.87779(4)
C11_2 C 0.3057(3) 0.9483(4) 0.82795(19)
C12_2 C 0.2841(4) 0.9724(4) 0.8806(2)
H7_2 H 0.2765 0.9061 0.9051
C14_2 C 0.3195(3) 0.8146(4) 0.81035(19)
C23_2 C 0.8574(3) 0.3980(4) 0.64587(17)
C24_2 C 0.8835(3) 0.5246(4) 0.6523(2)
H14_2 H 0.8358 0.5864 0.6429
C25_2 C 0.9812(3) 0.5618(4) 0.6731(2)
H15_2 H 0.9984 0.6469 0.6782
C28_2 C 0.9291(3) 0.3083(4) 0.6586(2)
H17_2 H 0.9126 0.2229 0.6538
C30_2 C 0.7187(3) 0.1988(4) 0.64048(17)
C31_2 C 0.7017(4) 0.1706(4) 0.6943(2)
H18_2 H 0.6979 0.2359 0.7202
C32_2 C 0.6903(4) 0.0464(4) 0.7099(2)
H19_2 H 0.6799 0.0290 0.7465
C35_2 C 0.7262(4) 0.0984(4) 0.6034(2)
H21_2 H 0.7383 0.1154 0.5673
C37_2 C 0.6907(3) 0.3722(4) 0.54167(17)
C38_2 C 0.7536(3) 0.3788(6) 0.5075(2)
H22_2 H 0.8196 0.3800 0.5262
C39_2 C 0.7187(3) 0.3835(7) 0.4459(2)
H23_2 H 0.7620 0.3871 0.4236
C40_2 C 0.6215(3) 0.3830(4) 0.41672(17)
C41_2 C 0.5583(3) 0.3749(6) 0.4510(2)
H24_2 H 0.4923 0.3737 0.4322
C42_2 C 0.5925(3) 0.3686(6) 0.5126(2)
H25_2 H 0.5493 0.3618 0.5349
C43_2 C 0.5846(3) 0.3868(4) 0.35064(17)
O21 O 0.6741(2) 0.4481(3) 0.64991(12)
P2_2 P 0.73171(7) 0.36081(9) 0.62221(4)
C4_2 C 0.9491(3) 0.4663(4) 0.81447(19)
C5_2 C 0.9750(3) 0.3420(4) 0.8217(2)
H3_2 H 0.9279 0.2794 0.8134
C7_2 C 0.8439(3) 0.5065(4) 0.78805(18)
C22_2 C 0.5000 0.3418(6) 0.7500
H13_2 H 0.5000 0.2536 0.7500
O1_2 O 0.8224(2) 0.6178(3) 0.77262(15)
O2_2 O 0.7803(2) 0.4191(3) 0.78117(15)
O8_2 O 0.5694(2) 0.3877(3) 0.73841(17)
C33_2 C 0.6943(3) 0.9483(4) 0.67205(19)
C34_2 C 0.7159(4) 0.9724(4) 0.6194(2)
H20_2 H 0.7235 0.9061 0.5949
C36_2 C 0.6805(3) 0.8146(4) 0.68965(19)
O11_2 O 0.6566(2) 0.7940(3) 0.73663(13)
O13_2 O 0.6916(2) 0.7213(3) 0.65755(14)
loop_
_geom_bond_atom_site_label_1
_geom_bond_atom_site_label_2
_geom_bond_site_symmetry_1
_geom_bond_site_symmetry_2
Y1 O1 1_555 1_555
C5 C4 1_555 1_555
H3 C5 1_555 1_555
C7 C4 1_555 1_555
C22 H13 1_555 1_555
O1 C7 1_555 1_555
O2 Y1 1_555 1_555
O8 Y1 1_555 1_555
Y7 O24 1_555 1_555
C34 C33 1_555 1_555
H20 C34 1_555 1_555
C36 C33 1_555 1_555
O11 Y1 1_555 1_555
O13 Y1 1_555 1_555
O16 Y1 1_555 1_555
O19 Y1 1_555 1_555
O22 Y1 1_555 1_555
O24 C22 1_555 1_555
C7 O2 1_555 1_555
C22 O8 1_555 1_555
C36 O11 1_555 1_555
C36 O13 1_555 1_555
Y8 O15 1_555 1_555
Y9 O18 1_555 1_555
C23 C24 1_555 1_555
C24 H14 1_555 1_555
C25 C24 1_555 1_555
H15 C25 1_555 1_555
C28 C23 1_555 1_555
H17 C28 1_555 1_555
C30 C31 1_555 1_555
C31 H18 1_555 1_555
C32 C31 1_555 1_555
H19 C32 1_555 1_555
C35 C30 1_555 1_555
H21 C35 1_555 1_555
C37 C38 1_555 1_555
C38 H22 1_555 1_555
C39 C38 1_555 1_555
H23 C39 1_555 1_555
C40 C39 1_555 1_555
C41 C40 1_555 1_555
H24 C41 1_555 1_555
C42 C37 1_555 1_555
H25 C42 1_555 1_555
C43 C40 1_555 1_555
O15 C43 1_555 1_555
O18 C43 1_555 1_555
O22 P2 1_555 1_555
P2 C23 1_555 1_555
C30 P2 1_555 1_555
C37 P2 1_555 1_555
C41 C42 1_555 1_555
C12 C11 1_555 1_555
H7 C12 1_555 1_555
C14 C11 1_555 1_555
O3 C14 1_555 1_555
O4 C14 1_555 1_555
Y7 O3 1_555 1_555
O4 Y7 1_555 1_555
C1 C2 1_555 1_555
C2 H1 1_555 1_555
C3 C2 1_555 1_555
H2 C3 1_555 1_555
C6 C1 1_555 1_555
H4 C6 1_555 1_555
C8 C9 1_555 1_555
C9 H5 1_555 1_555
C10 C9 1_555 1_555
H6 C10 1_555 1_555
C13 C8 1_555 1_555
H8 C13 1_555 1_555
C15 C16 1_555 1_555
C16 H9 1_555 1_555
C20 C15 1_555 1_555
H12 C20 1_555 1_555
O7 P1 1_555 1_555
P1 C1 1_555 1_555
Y7 O7 1_555 1_555
C8 P1 1_555 1_555
C15 P1 1_555 1_555
H10 C17 1_555 1_555
C18 C17 1_555 1_555
C19 C18 1_555 1_555
H11 C19 1_555 1_555
C21 C18 1_555 1_555
O5 C21 1_555 1_555
O6 C21 1_555 1_555
Y9 O5 1_555 1_555
Y8 O6 1_555 1_555
Y7 O9 1_555 1_555
C27 C26 1_555 1_555
H16 C27 1_555 1_555
C29 C26 1_555 1_555
O9 C29 1_555 1_555
O10 Y7 1_555 1_555
O17 Y7 1_555 1_555
O20 Y7 1_555 1_555
C29 O10 1_555 1_555
Y9 O9_2 1_555 1_555
C27_2 C26_2 1_555 1_555
H16_2 C27_2 1_555 1_555
C29_2 C26_2 1_555 1_555
O9_2 C29_2 1_555 1_555
O10_2 Y9 1_555 1_555
O12 Y9 1_555 1_555
O14 Y9 1_555 1_555
O23 Y9 1_555 1_555
O25 Y9 1_555 1_555
C29_2 O10_2 1_555 1_555
H10_2 C17_2 1_555 1_555
C18_2 C17_2 1_555 1_555
C19_2 C18_2 1_555 1_555
H11_2 C19_2 1_555 1_555
C21_2 C18_2 1_555 1_555
O17 C21_2 1_555 1_555
O19 C21_2 1_555 1_555
C1_2 C2_2 1_555 1_555
C2_2 H1_2 1_555 1_555
C3_2 C2_2 1_555 1_555
H2_2 C3_2 1_555 1_555
C6_2 C1_2 1_555 1_555
H4_2 C6_2 1_555 1_555
C8_2 C9_2 1_555 1_555
C9_2 H5_2 1_555 1_555
C10_2 C9_2 1_555 1_555
H6_2 C10_2 1_555 1_555
C13_2 C8_2 1_555 1_555
H8_2 C13_2 1_555 1_555
C15_2 C16_2 1_555 1_555
C16_2 H9_2 1_555 1_555
C20_2 C15_2 1_555 1_555
H12_2 C20_2 1_555 1_555
O23 P1_2 1_555 1_555
P1_2 C1_2 1_555 1_555
C8_2 P1_2 1_555 1_555
C15_2 P1_2 1_555 1_555
C12_2 C11_2 1_555 1_555
H7_2 C12_2 1_555 1_555
C14_2 C11_2 1_555 1_555
O12 C14_2 1_555 1_555
O14 C14_2 1_555 1_555
Y8 O21 1_555 1_555
C23_2 C24_2 1_555 1_555
C24_2 H14_2 1_555 1_555
C25_2 C24_2 1_555 1_555
H15_2 C25_2 1_555 1_555
C28_2 C23_2 1_555 1_555
H17_2 C28_2 1_555 1_555
C30_2 C31_2 1_555 1_555
C31_2 H18_2 1_555 1_555
C32_2 C31_2 1_555 1_555
H19_2 C32_2 1_555 1_555
C35_2 C30_2 1_555 1_555
H21_2 C35_2 1_555 1_555
C37_2 C38_2 1_555 1_555
C38_2 H22_2 1_555 1_555
C39_2 C38_2 1_555 1_555
H23_2 C39_2 1_555 1_555
C40_2 C39_2 1_555 1_555
C41_2 C40_2 1_555 1_555
H24_2 C41_2 1_555 1_555
C42_2 C37_2 1_555 1_555
H25_2 C42_2 1_555 1_555
C43_2 C40_2 1_555 1_555
O16 C43_2 1_555 1_555
O20 C43_2 1_555 1_555
O21 P2_2 1_555 1_555
P2_2 C23_2 1_555 1_555
C30_2 P2_2 1_555 1_555
C37_2 P2_2 1_555 1_555
C41_2 C42_2 1_555 1_555
Y8 O1_2 1_555 1_555
C5_2 C4_2 1_555 1_555
H3_2 C5_2 1_555 1_555
C7_2 C4_2 1_555 1_555
C22_2 H13_2 1_555 1_555
O1_2 C7_2 1_555 1_555
O2_2 Y8 1_555 1_555
O8_2 Y8 1_555 1_555
C34_2 C33_2 1_555 1_555
H20_2 C34_2 1_555 1_555
C36_2 C33_2 1_555 1_555
O11_2 Y8 1_555 1_555
O13_2 Y8 1_555 1_555
O25 C22_2 1_555 1_555
C7_2 O2_2 1_555 1_555
C22_2 O8_2 1_555 1_555
C36_2 O11_2 1_555 1_555
C36_2 O13_2 1_555 1_555

#END
