
###############################################################################
#
# This file contains modified crystal structure data generated from the
# MOF subset of the Cambridge Structural Database (CSD) v543 
# hosted by the Cambridge Crystallographic Data Centre (CCDC).
#
# This work is licensed under the Creative Commons
# Attribution-NonCommercial-ShareAlike 4.0 International License.
# To view a copy of this license, visit
# http://creativecommons.org/licenses/by-nc-sa/4.0/
# or send a letter to
# Creative Commons, PO Box 1866, Mountain View, CA 94042, USA.
#
# CIF created using the CSD Python API on 29 September 2022
# The structure has been converted into the P1 space group
# The structure has a 3D framework
# The original CSD entry DARCUW is in the monoclinic crystal system
# The framework has been calculated to contain at least 10.0% void space
# The void calculation uses a probe of radius 1.32A, grid spacing 0.4
# The framework is charged, counterions have been retained in the structure
#
###############################################################################

data_DARCUW
_chemical_formula_moiety         '(C88 H52 O32 P4 Yb4 2-)n'
_symmetry_cell_setting           triclinic
_symmetry_space_group_name_H-M   'P 1'
_symmetry_Int_Tables_number      1
_space_group_name_Hall           'P 1'
loop_
_symmetry_equiv_pos_site_id
_symmetry_equiv_pos_as_xyz
1 x,y,z
_cell_length_a                   14.3832(11)
_cell_length_b                   10.4548(5)
_cell_length_c                   23.3057(18)
_cell_angle_alpha                90
_cell_angle_beta                 107.348(4)
_cell_angle_gamma                90
_cell_volume                     3345.14
loop_
_atom_site_label
_atom_site_type_symbol
_atom_site_fract_x
_atom_site_fract_y
_atom_site_fract_z
Yb1 Yb 0.152077(17) 0.06783(2) 0.227507(11)
C1 C 0.1892(4) 0.1258(6) 0.5429(3)
C2 C 0.2539(5) 0.1153(10) 0.5094(3)
H1 H 0.3204 0.1129 0.5291
C3 C 0.2218(6) 0.1083(10) 0.4476(3)
H2 H 0.2665 0.0991 0.4261
C4 C 0.1229(4) 0.1148(6) 0.4174(3)
C5 C 0.0570(5) 0.1242(8) 0.4500(3)
C6 C 0.0901(5) 0.1277(8) 0.5121(3)
H4 H 0.0453 0.1314 0.5337
C7 C 0.0883(5) 0.1121(6) 0.3499(3)
C8 C 0.2144(4) 0.2992(6) 0.6416(3)
C9 C 0.2217(6) 0.4001(7) 0.6024(3)
H5 H 0.2362 0.3823 0.5669
C10 C 0.2070(6) 0.5255(6) 0.6174(3)
H6 H 0.2068 0.5916 0.5908
C11 C 0.1925(5) 0.5515(6) 0.6730(3)
C12 C 0.1891(6) 0.4519(7) 0.7121(3)
H7 H 0.1798 0.4696 0.7491
C13 C 0.1994(5) 0.3279(6) 0.6960(3)
H8 H 0.1962 0.2619 0.7221
C14 C 0.1757(5) 0.6866(6) 0.6889(3)
C15 C 0.3552(4) 0.0952(6) 0.6477(3)
C18 C 0.5523(4) 0.0243(6) 0.6877(3)
C19 C 0.5255(5) 0.1549(6) 0.6809(3)
H11 H 0.5736 0.2175 0.6895
C20 C 0.4292(5) 0.1901(6) 0.6616(3)
H12 H 0.4124 0.2763 0.6576
O1 O 0.1521(3) 0.1022(5) 0.3233(2)
O3 O 0.1863(3) 0.7788(4) 0.6573(2)
O4 O 0.1524(3) 0.7053(5) 0.7372(2)
O6 O 0.7207(3) 0.0785(4) 0.7202(2)
O7 O 0.1686(3) 0.0484(4) 0.6494(2)
P1 P 0.22810(10) 0.13540(14) 0.62284(6)
Yb3 Yb 0.152077(17) 0.93217(2) 0.727507(11)
H16 H 0.0095 0.1280 0.0698
O10 O 0.0011(3) 0.1203(5) 0.1762(2)
O12 O 0.1863(3) 0.2212(4) 0.1573(2)
O15 O 0.1524(3) 0.2947(5) 0.2372(2)
O18 O 0.3209(3) 0.1212(5) 0.2707(2)
C16 C 0.3825(4) 0.9674(6) 0.6531(3)
H9 H 0.3350 0.9040 0.6435
C17 C 0.4794(6) 0.9338(6) 0.6726(3)
H10 H 0.4961 0.8476 0.6757
C21 C 0.6570(5) 0.9904(7) 0.7133(3)
C22 C -0.0000 0.8456(13) 0.2500
H13 H -0.0000 0.7566 0.2500
O5 O 0.6791(3) 0.8788(5) 0.7293(2)
O8 O 0.0718(3) 0.8908(5) 0.2409(2)
Yb4 Yb 0.847923(17) 0.93217(2) 0.772493(11)
O21 O 0.2793(3) 0.9215(4) 0.2798(2)
O24 O 0.1686(3) 0.9516(4) 0.1494(2)
H3 H 0.9905 0.1280 0.4302
O2 O 0.9989(3) 0.1203(5) 0.3238(2)
Yb2 Yb 0.847923(17) 0.06783(2) 0.272493(11)
C25 C 0.7782(6) 0.1083(10) 0.0524(3)
H15 H 0.7335 0.0991 0.0739
C26 C 0.8771(4) 0.1148(6) 0.0826(3)
C27 C 0.9430(5) 0.1242(8) 0.0500(3)
C29 C 0.9117(5) 0.1121(6) 0.1501(3)
O9 O 0.8479(3) 0.1022(5) 0.1767(2)
O13 O 0.8137(3) 0.2212(4) 0.3427(2)
O16 O 0.8476(3) 0.2947(5) 0.2628(2)
O19 O 0.6791(3) 0.1212(5) 0.2293(2)
C23 C 0.8108(4) 0.1258(6) 0.9571(3)
C24 C 0.7461(5) 0.1153(10) 0.9906(3)
H14 H 0.6796 0.1129 0.9709
C28 C 0.9099(5) 0.1277(8) 0.9879(3)
H17 H 0.9547 0.1314 0.9663
C30 C 0.7856(4) 0.2992(6) 0.8584(3)
C31 C 0.7783(6) 0.4001(7) 0.8976(3)
H18 H 0.7638 0.3823 0.9331
C32 C 0.7930(6) 0.5255(6) 0.8826(3)
H19 H 0.7932 0.5916 0.9092
C33 C 0.8075(5) 0.5515(6) 0.8270(3)
C34 C 0.8109(6) 0.4519(7) 0.7879(3)
H20 H 0.8202 0.4696 0.7509
C35 C 0.8006(5) 0.3279(6) 0.8040(3)
H21 H 0.8038 0.2619 0.7779
C36 C 0.8243(5) 0.6866(6) 0.8111(3)
C37 C 0.6448(4) 0.0952(6) 0.8523(3)
C40 C 0.4477(4) 0.0243(6) 0.8123(3)
C41 C 0.4745(5) 0.1549(6) 0.8191(3)
H24 H 0.4264 0.2175 0.8105
C42 C 0.5708(5) 0.1901(6) 0.8384(3)
H25 H 0.5876 0.2763 0.8424
O11 O 0.8137(3) 0.7788(4) 0.8427(2)
O14 O 0.8476(3) 0.7053(5) 0.7628(2)
O20 O 0.2793(3) 0.0785(4) 0.7798(2)
O23 O 0.8314(3) 0.0484(4) 0.8506(2)
P2 P 0.77190(10) 0.13540(14) 0.87716(6)
C22_2 C 1.0000 0.8456(13) 0.2500
H13_2 H 1.0000 0.7566 0.2500
O22 O 0.7207(3) 0.9215(4) 0.2202(2)
O25 O 0.8314(3) 0.9516(4) 0.3506(2)
O26 O 0.9282(3) 0.8908(5) 0.2591(2)
C38 C 0.6175(4) 0.9674(6) 0.8469(3)
H22 H 0.6650 0.9040 0.8565
C39 C 0.5206(6) 0.9338(6) 0.8274(3)
H23 H 0.5039 0.8476 0.8243
C43 C 0.3430(5) 0.9904(7) 0.7867(3)
O17 O 0.3209(3) 0.8788(5) 0.7707(2)
C38_2 C 0.3825(4) 0.0326(6) 0.1531(3)
H22_2 H 0.3350 0.0960 0.1435
C39_2 C 0.4794(6) 0.0662(6) 0.1726(3)
H23_2 H 0.4961 0.1524 0.1757
C43_2 C 0.6570(5) 0.0096(7) 0.2133(3)
C22_3 C 0.0000 0.1544(13) 0.7500
H13_3 H 0.0000 0.2434 0.7500
O26_2 O 0.0718(3) 0.1092(5) 0.7409(2)
C23_2 C 0.1892(4) 0.8742(6) 0.0429(3)
C24_2 C 0.2539(5) 0.8847(10) 0.0094(3)
H14_2 H 0.3204 0.8871 0.0291
C28_2 C 0.0901(5) 0.8723(8) 0.0121(3)
H17_2 H 0.0453 0.8686 0.0337
C30_2 C 0.2144(4) 0.7008(6) 0.1416(3)
C31_2 C 0.2217(6) 0.5999(7) 0.1024(3)
H18_2 H 0.2362 0.6177 0.0669
C32_2 C 0.2070(6) 0.4745(6) 0.1174(3)
H19_2 H 0.2068 0.4084 0.0908
C33_2 C 0.1925(5) 0.4485(6) 0.1730(3)
C34_2 C 0.1891(6) 0.5481(7) 0.2121(3)
H20_2 H 0.1798 0.5304 0.2491
C35_2 C 0.1994(5) 0.6721(6) 0.1960(3)
H21_2 H 0.1962 0.7381 0.2221
C36_2 C 0.1757(5) 0.3134(6) 0.1889(3)
C37_2 C 0.3552(4) 0.9048(6) 0.1477(3)
C40_2 C 0.5523(4) 0.9757(6) 0.1877(3)
C41_2 C 0.5255(5) 0.8451(6) 0.1809(3)
H24_2 H 0.5736 0.7825 0.1895
C42_2 C 0.4292(5) 0.8099(6) 0.1616(3)
H25_2 H 0.4124 0.7237 0.1576
P2_2 P 0.22810(10) 0.86460(14) 0.12284(6)
H3_2 H 0.0095 0.8720 0.5698
O2_2 O 0.0011(3) 0.8797(5) 0.6762(2)
C25_2 C 0.2218(6) 0.8917(10) 0.9476(3)
H15_2 H 0.2665 0.9009 0.9261
C26_2 C 0.1229(4) 0.8852(6) 0.9174(3)
C27_2 C 0.0570(5) 0.8758(8) 0.9500(3)
C29_2 C 0.0883(5) 0.8879(6) 0.8499(3)
O9_2 O 0.1521(3) 0.8978(5) 0.8233(2)
C16_2 C 0.6175(4) 0.0326(6) 0.3469(3)
H9_2 H 0.6650 0.0960 0.3565
C17_2 C 0.5206(6) 0.0662(6) 0.3274(3)
H10_2 H 0.5039 0.1524 0.3243
C21_2 C 0.3430(5) 0.0096(7) 0.2867(3)
C22_4 C 1.0000 0.1544(13) 0.7500
H13_4 H 1.0000 0.2434 0.7500
O8_2 O 0.9282(3) 0.1092(5) 0.7591(2)
C1_2 C 0.8108(4) 0.8742(6) 0.4571(3)
C2_2 C 0.7461(5) 0.8847(10) 0.4906(3)
H1_2 H 0.6796 0.8871 0.4709
C3_2 C 0.7782(6) 0.8917(10) 0.5524(3)
H2_2 H 0.7335 0.9009 0.5739
C4_2 C 0.8771(4) 0.8852(6) 0.5826(3)
C5_2 C 0.9430(5) 0.8758(8) 0.5500(3)
C6_2 C 0.9099(5) 0.8723(8) 0.4879(3)
H4_2 H 0.9547 0.8686 0.4663
C7_2 C 0.9117(5) 0.8879(6) 0.6501(3)
C8_2 C 0.7856(4) 0.7008(6) 0.3584(3)
C9_2 C 0.7783(6) 0.5999(7) 0.3976(3)
H5_2 H 0.7638 0.6177 0.4331
C10_2 C 0.7930(6) 0.4745(6) 0.3826(3)
H6_2 H 0.7932 0.4084 0.4092
C11_2 C 0.8075(5) 0.4485(6) 0.3270(3)
C12_2 C 0.8109(6) 0.5481(7) 0.2879(3)
H7_2 H 0.8202 0.5304 0.2509
C13_2 C 0.8006(5) 0.6721(6) 0.3040(3)
H8_2 H 0.8038 0.7381 0.2779
C14_2 C 0.8243(5) 0.3134(6) 0.3111(3)
C15_2 C 0.6448(4) 0.9048(6) 0.3523(3)
C18_2 C 0.4477(4) 0.9757(6) 0.3123(3)
C19_2 C 0.4745(5) 0.8451(6) 0.3191(3)
H11_2 H 0.4264 0.7825 0.3105
C20_2 C 0.5708(5) 0.8099(6) 0.3384(3)
H12_2 H 0.5876 0.7237 0.3424
O1_2 O 0.8479(3) 0.8978(5) 0.6767(2)
P1_2 P 0.77190(10) 0.86460(14) 0.37716(6)
H16_2 H 0.9905 0.8720 0.9302
O10_2 O 0.9989(3) 0.8797(5) 0.8238(2)
loop_
_geom_bond_atom_site_label_1
_geom_bond_atom_site_label_2
_geom_bond_site_symmetry_1
_geom_bond_site_symmetry_2
Yb1 O1 1_555 1_555
C1 C2 1_555 1_555
C2 H1 1_555 1_555
C3 C2 1_555 1_555
H2 C3 1_555 1_555
C4 C3 1_555 1_555
C5 C4 1_555 1_555
C6 C1 1_555 1_555
H4 C6 1_555 1_555
C7 C4 1_555 1_555
C8 C9 1_555 1_555
C9 H5 1_555 1_555
C10 C9 1_555 1_555
H6 C10 1_555 1_555
C11 C10 1_555 1_555
C12 C11 1_555 1_555
H7 C12 1_555 1_555
C13 C8 1_555 1_555
H8 C13 1_555 1_555
C14 C11 1_555 1_555
C19 C18 1_555 1_555
H11 C19 1_555 1_555
C20 C15 1_555 1_555
H12 C20 1_555 1_555
O1 C7 1_555 1_555
O3 C14 1_555 1_555
O4 C14 1_555 1_555
O7 P1 1_555 1_555
P1 C1 1_555 1_555
Yb3 O3 1_555 1_555
O10 Yb1 1_555 1_555
O12 Yb1 1_555 1_555
O15 Yb1 1_555 1_555
O18 Yb1 1_555 1_555
C5 C6 1_555 1_555
C8 P1 1_555 1_555
C12 C13 1_555 1_555
C15 P1 1_555 1_555
C19 C20 1_555 1_555
O4 Yb3 1_555 1_555
C16 H9 1_555 1_555
C17 C16 1_555 1_555
H10 C17 1_555 1_555
C22 H13 1_555 1_555
O5 C21 1_555 1_555
Yb4 O5 1_555 1_555
C22 O8 1_555 1_555
Yb2 O2 1_555 1_555
H15 C25 1_555 1_555
C26 C25 1_555 1_555
C27 C26 1_555 1_555
C29 C26 1_555 1_555
O9 Yb2 1_555 1_555
O13 Yb2 1_555 1_555
O16 Yb2 1_555 1_555
O19 Yb2 1_555 1_555
C29 O9 1_555 1_555
Yb4 O11 1_555 1_555
C23 C24 1_555 1_555
C24 H14 1_555 1_555
C28 C23 1_555 1_555
H17 C28 1_555 1_555
C30 C31 1_555 1_555
C31 H18 1_555 1_555
C32 C31 1_555 1_555
H19 C32 1_555 1_555
C33 C32 1_555 1_555
C34 C33 1_555 1_555
H20 C34 1_555 1_555
C35 C30 1_555 1_555
H21 C35 1_555 1_555
C36 C33 1_555 1_555
C41 C40 1_555 1_555
H24 C41 1_555 1_555
C42 C37 1_555 1_555
H25 C42 1_555 1_555
O11 C36 1_555 1_555
O14 Yb4 1_555 1_555
O23 P2 1_555 1_555
P2 C23 1_555 1_555
C30 P2 1_555 1_555
C34 C35 1_555 1_555
C36 O14 1_555 1_555
C37 P2 1_555 1_555
C41 C42 1_555 1_555
C22_2 H13_2 1_555 1_555
O26 C22_2 1_555 1_555
Yb3 O17 1_555 1_555
C38 H22 1_555 1_555
C39 C38 1_555 1_555
H23 C39 1_555 1_555
O17 C43 1_555 1_555
C38_2 H22_2 1_555 1_555
C39_2 C38_2 1_555 1_555
H23_2 C39_2 1_555 1_555
O19 C43_2 1_555 1_555
C22_3 H13_3 1_555 1_555
O26_2 C22_3 1_555 1_555
C23_2 C24_2 1_555 1_555
C24_2 H14_2 1_555 1_555
C28_2 C23_2 1_555 1_555
H17_2 C28_2 1_555 1_555
C30_2 C31_2 1_555 1_555
C31_2 H18_2 1_555 1_555
C32_2 C31_2 1_555 1_555
H19_2 C32_2 1_555 1_555
C33_2 C32_2 1_555 1_555
C34_2 C33_2 1_555 1_555
H20_2 C34_2 1_555 1_555
C35_2 C30_2 1_555 1_555
H21_2 C35_2 1_555 1_555
C36_2 C33_2 1_555 1_555
C41_2 C40_2 1_555 1_555
H24_2 C41_2 1_555 1_555
C42_2 C37_2 1_555 1_555
H25_2 C42_2 1_555 1_555
O12 C36_2 1_555 1_555
O24 P2_2 1_555 1_555
P2_2 C23_2 1_555 1_555
C30_2 P2_2 1_555 1_555
C34_2 C35_2 1_555 1_555
C36_2 O15 1_555 1_555
C37_2 P2_2 1_555 1_555
C41_2 C42_2 1_555 1_555
Yb3 O2_2 1_555 1_555
H15_2 C25_2 1_555 1_555
C26_2 C25_2 1_555 1_555
C27_2 C26_2 1_555 1_555
C29_2 C26_2 1_555 1_555
O9_2 Yb3 1_555 1_555
C29_2 O9_2 1_555 1_555
C16_2 H9_2 1_555 1_555
C17_2 C16_2 1_555 1_555
H10_2 C17_2 1_555 1_555
C22_4 H13_4 1_555 1_555
O18 C21_2 1_555 1_555
C22_4 O8_2 1_555 1_555
Yb4 O1_2 1_555 1_555
C1_2 C2_2 1_555 1_555
C2_2 H1_2 1_555 1_555
C3_2 C2_2 1_555 1_555
H2_2 C3_2 1_555 1_555
C4_2 C3_2 1_555 1_555
C5_2 C4_2 1_555 1_555
C6_2 C1_2 1_555 1_555
H4_2 C6_2 1_555 1_555
C7_2 C4_2 1_555 1_555
C8_2 C9_2 1_555 1_555
C9_2 H5_2 1_555 1_555
C10_2 C9_2 1_555 1_555
H6_2 C10_2 1_555 1_555
C11_2 C10_2 1_555 1_555
C12_2 C11_2 1_555 1_555
H7_2 C12_2 1_555 1_555
C13_2 C8_2 1_555 1_555
H8_2 C13_2 1_555 1_555
C14_2 C11_2 1_555 1_555
C19_2 C18_2 1_555 1_555
H11_2 C19_2 1_555 1_555
C20_2 C15_2 1_555 1_555
H12_2 C20_2 1_555 1_555
O1_2 C7_2 1_555 1_555
O13 C14_2 1_555 1_555
O16 C14_2 1_555 1_555
O25 P1_2 1_555 1_555
P1_2 C1_2 1_555 1_555
O10_2 Yb4 1_555 1_555
C5_2 C6_2 1_555 1_555
C8_2 P1_2 1_555 1_555
C12_2 C13_2 1_555 1_555
C15_2 P1_2 1_555 1_555
C19_2 C20_2 1_555 1_555

#END
