
###############################################################################
#
# This file contains modified crystal structure data generated from the
# MOF subset of the Cambridge Structural Database (CSD) v543 
# hosted by the Cambridge Crystallographic Data Centre (CCDC).
#
# This work is licensed under the Creative Commons
# Attribution-NonCommercial-ShareAlike 4.0 International License.
# To view a copy of this license, visit
# http://creativecommons.org/licenses/by-nc-sa/4.0/
# or send a letter to
# Creative Commons, PO Box 1866, Mountain View, CA 94042, USA.
#
# CIF created using the CSD Python API on 29 September 2022
# The structure has been converted into the P1 space group
# The structure has a 3D framework
# The original CSD entry DARDOR is in the monoclinic crystal system
# The framework has been calculated to contain at least 10.0% void space
# The void calculation uses a probe of radius 1.32A, grid spacing 0.4
# The framework is charged, counterions have been retained in the structure
#
###############################################################################

data_DARDOR
_chemical_formula_moiety         '(C86 H50 Gd4 O32 P4 3-)n'
_symmetry_cell_setting           triclinic
_symmetry_space_group_name_H-M   'P 1'
_symmetry_Int_Tables_number      1
_space_group_name_Hall           'P 1'
loop_
_symmetry_equiv_pos_site_id
_symmetry_equiv_pos_as_xyz
1 x,y,z
_cell_length_a                   14.528(3)
_cell_length_b                   10.497(2)
_cell_length_c                   23.674(8)
_cell_angle_alpha                90
_cell_angle_beta                 107.97(3)
_cell_angle_gamma                90
_cell_volume                     3434.18
loop_
_atom_site_label
_atom_site_type_symbol
_atom_site_fract_x
_atom_site_fract_y
_atom_site_fract_z
Gd1 Gd 0.349541(12) 0.419977(17) 0.774088(7)
C4 C 0.0485(3) 0.5148(4) 0.68850(16)
C5 C 0.0225(3) 0.6417(4) 0.68272(18)
H3 H 0.0704 0.7040 0.6930
C7 C 0.1525(3) 0.4806(4) 0.71465(16)
C22 C 0.5000 0.6484(7) 0.7500
H13 H 0.5000 0.7370 0.7500
O1 O 0.17597(19) 0.3659(3) 0.73152(12)
O2 O 0.21666(18) 0.5647(2) 0.72167(12)
O8 O 0.4273(2) 0.6029(3) 0.75687(14)
Gd7 Gd 0.650459(12) 0.419977(17) 0.725912(7)
C32 C 0.2999(4) 0.0106(4) 0.8855(2)
H19 H 0.2997 0.0768 0.9116
C33 C 0.3141(3) 0.0367(4) 0.83082(18)
C36 C 0.3285(3) 0.1700(3) 0.81359(17)
O11 O 0.3210(2) 0.2627(3) 0.84588(12)
O13 O 0.34888(19) 0.1899(2) 0.76564(12)
O16 O 0.50722(19) 0.3720(3) 0.82411(12)
O19 O 0.3397(2) 0.3810(3) 0.67465(12)
O22 O 0.33158(18) 0.5367(2) 0.85380(11)
O24 O 0.5727(2) 0.6029(3) 0.74313(14)
Gd8 Gd 0.650459(12) 0.580023(17) 0.225912(7)
Gd9 Gd 0.349541(12) 0.580023(17) 0.274088(7)
C39 C 0.4380(3) 0.6256(4) 0.05153(17)
H23 H 0.5036 0.6331 0.0720
C40 C 0.3715(3) 0.6152(3) 0.08265(15)
C41 C 0.2745(3) 0.6021(5) 0.05187(18)
H24 H 0.2299 0.5931 0.0725
C43 C 0.4039(3) 0.6200(3) 0.14942(16)
O15 O 0.49278(19) 0.6280(3) 0.17589(12)
O18 O 0.3397(2) 0.6190(3) 0.17465(12)
C23 C 0.1460(3) 0.5841(4) 0.85350(16)
C24 C 0.1195(3) 0.4552(4) 0.84838(17)
H14 H 0.1668 0.3924 0.8590
C25 C 0.0235(3) 0.4221(4) 0.82760(18)
H15 H 0.0063 0.3364 0.8242
C28 C 0.0744(3) 0.6782(4) 0.83829(17)
H17 H 0.0913 0.7640 0.8421
C30 C 0.2863(3) 0.7871(3) 0.86206(16)
C31 C 0.2861(4) 0.8850(4) 0.9009(2)
H18 H 0.2768 0.8674 0.9372
C34 C 0.3130(3) 0.9369(3) 0.79194(19)
H20 H 0.3215 0.9539 0.7553
C35 C 0.2996(3) 0.8129(4) 0.80727(18)
H21 H 0.2993 0.7467 0.7811
C37 C 0.3090(3) 0.6145(3) 0.95890(16)
C38 C 0.4071(3) 0.6249(4) 0.99050(18)
H22 H 0.4522 0.6315 0.9700
C42 C 0.2432(3) 0.6020(5) 0.99044(18)
H25 H 0.1776 0.5936 0.9701
P2 P 0.27241(7) 0.62307(9) 0.87964(4)
C10 C 0.7001(4) 0.0106(4) 0.6145(2)
H6 H 0.7003 0.0768 0.5884
C11 C 0.6859(3) 0.0367(4) 0.66918(18)
C14 C 0.6715(3) 0.1700(3) 0.68641(17)
O3 O 0.6790(2) 0.2627(3) 0.65412(12)
O4 O 0.65112(19) 0.1899(2) 0.73436(12)
C1 C 0.8540(3) 0.5841(4) 0.64650(16)
C2 C 0.8805(3) 0.4552(4) 0.65162(17)
H1 H 0.8332 0.3924 0.6410
C3 C 0.9765(3) 0.4221(4) 0.67240(18)
H2 H 0.9937 0.3364 0.6758
C6 C 0.9256(3) 0.6782(4) 0.66171(17)
H4 H 0.9087 0.7640 0.6579
C8 C 0.7137(3) 0.7871(3) 0.63794(16)
C9 C 0.7139(4) 0.8850(4) 0.5991(2)
H5 H 0.7232 0.8674 0.5628
C12 C 0.6870(3) 0.9369(3) 0.70806(19)
H7 H 0.6785 0.9539 0.7447
C13 C 0.7004(3) 0.8129(4) 0.69273(18)
H8 H 0.7007 0.7467 0.7189
C15 C 0.6910(3) 0.6145(3) 0.54110(16)
C16 C 0.5929(3) 0.6249(4) 0.50950(18)
H9 H 0.5478 0.6315 0.5300
C17 C 0.5620(3) 0.6256(4) 0.44847(17)
H10 H 0.4964 0.6331 0.4280
C18 C 0.6285(3) 0.6152(3) 0.41735(15)
C19 C 0.7255(3) 0.6021(5) 0.44813(18)
H11 H 0.7701 0.5931 0.4275
C20 C 0.7568(3) 0.6020(5) 0.50956(18)
H12 H 0.8224 0.5936 0.5299
C21 C 0.5961(3) 0.6200(3) 0.35058(16)
O5 O 0.50722(19) 0.6280(3) 0.32411(12)
O6 O 0.6603(2) 0.6190(3) 0.32535(12)
O7 O 0.66842(18) 0.5367(2) 0.64620(11)
P1 P 0.72759(7) 0.62307(9) 0.62036(4)
C26 C 0.9515(3) 0.5148(4) 0.81150(16)
C27 C 0.9775(3) 0.6417(4) 0.81728(18)
H16 H 0.9296 0.7040 0.8070
C29 C 0.8475(3) 0.4806(4) 0.78535(16)
O9 O 0.82403(19) 0.3659(3) 0.76848(12)
O10 O 0.78334(18) 0.5647(2) 0.77833(12)
O17 O 0.49278(19) 0.3720(3) 0.67589(12)
O20 O 0.6603(2) 0.3810(3) 0.82535(12)
C26_2 C 0.0485(3) 0.4852(4) 0.18850(16)
C27_2 C 0.0225(3) 0.3583(4) 0.18272(18)
H16_2 H 0.0704 0.2960 0.1930
C29_2 C 0.1525(3) 0.5194(4) 0.21465(16)
O9_2 O 0.17597(19) 0.6341(3) 0.23152(12)
O10_2 O 0.21666(18) 0.4353(2) 0.22167(12)
O12 O 0.3210(2) 0.7373(3) 0.34588(12)
O14 O 0.34888(19) 0.8101(2) 0.26564(12)
O23 O 0.33158(18) 0.4633(2) 0.35380(11)
O25 O 0.4273(2) 0.3971(3) 0.25687(14)
C1_2 C 0.1460(3) 0.4159(4) 0.35350(16)
C2_2 C 0.1195(3) 0.5448(4) 0.34838(17)
H1_2 H 0.1668 0.6076 0.3590
C3_2 C 0.0235(3) 0.5779(4) 0.32760(18)
H2_2 H 0.0063 0.6636 0.3242
C6_2 C 0.0744(3) 0.3218(4) 0.33829(17)
H4_2 H 0.0913 0.2360 0.3421
C8_2 C 0.2863(3) 0.2129(3) 0.36206(16)
C9_2 C 0.2861(4) 0.1150(4) 0.4009(2)
H5_2 H 0.2768 0.1326 0.4372
C12_2 C 0.3130(3) 0.0631(3) 0.29194(19)
H7_2 H 0.3215 0.0461 0.2553
C13_2 C 0.2996(3) 0.1871(4) 0.30727(18)
H8_2 H 0.2993 0.2533 0.2811
C15_2 C 0.3090(3) 0.3855(3) 0.45890(16)
C16_2 C 0.4071(3) 0.3751(4) 0.49050(18)
H9_2 H 0.4522 0.3685 0.4700
C17_2 C 0.4380(3) 0.3744(4) 0.55153(17)
H10_2 H 0.5036 0.3669 0.5720
C18_2 C 0.3715(3) 0.3848(3) 0.58265(15)
C19_2 C 0.2745(3) 0.3979(5) 0.55187(18)
H11_2 H 0.2299 0.4069 0.5725
C20_2 C 0.2432(3) 0.3980(5) 0.49044(18)
H12_2 H 0.1776 0.4064 0.4701
C21_2 C 0.4039(3) 0.3800(3) 0.64942(16)
P1_2 P 0.27241(7) 0.37693(9) 0.37964(4)
C10_2 C 0.2999(4) 0.9894(4) 0.3855(2)
H6_2 H 0.2997 0.9232 0.4116
C11_2 C 0.3141(3) 0.9633(4) 0.33082(18)
C14_2 C 0.3285(3) 0.8300(3) 0.31359(17)
C23_2 C 0.8540(3) 0.4159(4) 0.14650(16)
C24_2 C 0.8805(3) 0.5448(4) 0.15162(17)
H14_2 H 0.8332 0.6076 0.1410
C25_2 C 0.9765(3) 0.5779(4) 0.17240(18)
H15_2 H 0.9937 0.6636 0.1758
C28_2 C 0.9256(3) 0.3218(4) 0.16171(17)
H17_2 H 0.9087 0.2360 0.1579
C30_2 C 0.7137(3) 0.2129(3) 0.13794(16)
C31_2 C 0.7139(4) 0.1150(4) 0.0991(2)
H18_2 H 0.7232 0.1326 0.0628
C34_2 C 0.6870(3) 0.0631(3) 0.20806(19)
H20_2 H 0.6785 0.0461 0.2447
C35_2 C 0.7004(3) 0.1871(4) 0.19273(18)
H21_2 H 0.7007 0.2533 0.2189
C37_2 C 0.6910(3) 0.3855(3) 0.04110(16)
C38_2 C 0.5929(3) 0.3751(4) 0.00950(18)
H22_2 H 0.5478 0.3685 0.0300
C42_2 C 0.7568(3) 0.3980(5) 0.00956(18)
H25_2 H 0.8224 0.4064 0.0299
O21 O 0.66842(18) 0.4633(2) 0.14620(11)
P2_2 P 0.72759(7) 0.37693(9) 0.12036(4)
C39_2 C 0.5620(3) 0.3744(4) 0.94847(17)
H23_2 H 0.4964 0.3669 0.9280
C40_2 C 0.6285(3) 0.3848(3) 0.91735(15)
C41_2 C 0.7255(3) 0.3979(5) 0.94813(18)
H24_2 H 0.7701 0.4069 0.9275
C43_2 C 0.5961(3) 0.3800(3) 0.85058(16)
C4_2 C 0.9515(3) 0.4852(4) 0.31150(16)
C5_2 C 0.9775(3) 0.3583(4) 0.31728(18)
H3_2 H 0.9296 0.2960 0.3070
C7_2 C 0.8475(3) 0.5194(4) 0.28535(16)
C22_2 C 0.5000 0.3516(7) 0.2500
H13_2 H 0.5000 0.2630 0.2500
O1_2 O 0.82403(19) 0.6341(3) 0.26848(12)
O2_2 O 0.78334(18) 0.4353(2) 0.27833(12)
O8_2 O 0.5727(2) 0.3971(3) 0.24313(14)
C32_2 C 0.7001(4) 0.9894(4) 0.1145(2)
H19_2 H 0.7003 0.9232 0.0884
C33_2 C 0.6859(3) 0.9633(4) 0.16918(18)
C36_2 C 0.6715(3) 0.8300(3) 0.18641(17)
O11_2 O 0.6790(2) 0.7373(3) 0.15412(12)
O13_2 O 0.65112(19) 0.8101(2) 0.23436(12)
loop_
_geom_bond_atom_site_label_1
_geom_bond_atom_site_label_2
_geom_bond_site_symmetry_1
_geom_bond_site_symmetry_2
Gd1 O1 1_555 1_555
C5 C4 1_555 1_555
H3 C5 1_555 1_555
C7 C4 1_555 1_555
C22 H13 1_555 1_555
O1 C7 1_555 1_555
O2 Gd1 1_555 1_555
O8 Gd1 1_555 1_555
Gd7 O24 1_555 1_555
H19 C32 1_555 1_555
C33 C32 1_555 1_555
C36 C33 1_555 1_555
O11 Gd1 1_555 1_555
O13 Gd1 1_555 1_555
O16 Gd1 1_555 1_555
O19 Gd1 1_555 1_555
O22 Gd1 1_555 1_555
O24 C22 1_555 1_555
C7 O2 1_555 1_555
C22 O8 1_555 1_555
C36 O11 1_555 1_555
C36 O13 1_555 1_555
Gd8 O15 1_555 1_555
Gd9 O18 1_555 1_555
H23 C39 1_555 1_555
C40 C39 1_555 1_555
C41 C40 1_555 1_555
H24 C41 1_555 1_555
C43 C40 1_555 1_555
O15 C43 1_555 1_555
O18 C43 1_555 1_555
C23 C24 1_555 1_555
C24 H14 1_555 1_555
C25 C24 1_555 1_555
H15 C25 1_555 1_555
C28 C23 1_555 1_555
H17 C28 1_555 1_555
C30 C31 1_555 1_555
C31 H18 1_555 1_555
H20 C34 1_555 1_555
C35 C30 1_555 1_555
H21 C35 1_555 1_555
C37 C38 1_555 1_555
C38 H22 1_555 1_555
C42 C37 1_555 1_555
H25 C42 1_555 1_555
O22 P2 1_555 1_555
P2 C23 1_555 1_555
C30 P2 1_555 1_555
C34 C35 1_555 1_555
C37 P2 1_555 1_555
H6 C10 1_555 1_555
C11 C10 1_555 1_555
C14 C11 1_555 1_555
O3 C14 1_555 1_555
O4 C14 1_555 1_555
Gd7 O3 1_555 1_555
O4 Gd7 1_555 1_555
C1 C2 1_555 1_555
C2 H1 1_555 1_555
C3 C2 1_555 1_555
H2 C3 1_555 1_555
C6 C1 1_555 1_555
H4 C6 1_555 1_555
C8 C9 1_555 1_555
C9 H5 1_555 1_555
H7 C12 1_555 1_555
C13 C8 1_555 1_555
H8 C13 1_555 1_555
C15 C16 1_555 1_555
C16 H9 1_555 1_555
C17 C16 1_555 1_555
H10 C17 1_555 1_555
C18 C17 1_555 1_555
C19 C18 1_555 1_555
H11 C19 1_555 1_555
C20 C15 1_555 1_555
H12 C20 1_555 1_555
C21 C18 1_555 1_555
O5 C21 1_555 1_555
O6 C21 1_555 1_555
O7 P1 1_555 1_555
P1 C1 1_555 1_555
Gd9 O5 1_555 1_555
Gd8 O6 1_555 1_555
Gd7 O7 1_555 1_555
C8 P1 1_555 1_555
C12 C13 1_555 1_555
C15 P1 1_555 1_555
C19 C20 1_555 1_555
Gd7 O9 1_555 1_555
C27 C26 1_555 1_555
H16 C27 1_555 1_555
C29 C26 1_555 1_555
O9 C29 1_555 1_555
O10 Gd7 1_555 1_555
O17 Gd7 1_555 1_555
O20 Gd7 1_555 1_555
C29 O10 1_555 1_555
Gd9 O9_2 1_555 1_555
C27_2 C26_2 1_555 1_555
H16_2 C27_2 1_555 1_555
C29_2 C26_2 1_555 1_555
O9_2 C29_2 1_555 1_555
O10_2 Gd9 1_555 1_555
O12 Gd9 1_555 1_555
O14 Gd9 1_555 1_555
O23 Gd9 1_555 1_555
O25 Gd9 1_555 1_555
C29_2 O10_2 1_555 1_555
C1_2 C2_2 1_555 1_555
C2_2 H1_2 1_555 1_555
C3_2 C2_2 1_555 1_555
H2_2 C3_2 1_555 1_555
C6_2 C1_2 1_555 1_555
H4_2 C6_2 1_555 1_555
C8_2 C9_2 1_555 1_555
C9_2 H5_2 1_555 1_555
H7_2 C12_2 1_555 1_555
C13_2 C8_2 1_555 1_555
H8_2 C13_2 1_555 1_555
C15_2 C16_2 1_555 1_555
C16_2 H9_2 1_555 1_555
C17_2 C16_2 1_555 1_555
H10_2 C17_2 1_555 1_555
C18_2 C17_2 1_555 1_555
C19_2 C18_2 1_555 1_555
H11_2 C19_2 1_555 1_555
C20_2 C15_2 1_555 1_555
H12_2 C20_2 1_555 1_555
C21_2 C18_2 1_555 1_555
O17 C21_2 1_555 1_555
O19 C21_2 1_555 1_555
O23 P1_2 1_555 1_555
P1_2 C1_2 1_555 1_555
C8_2 P1_2 1_555 1_555
C12_2 C13_2 1_555 1_555
C15_2 P1_2 1_555 1_555
C19_2 C20_2 1_555 1_555
H6_2 C10_2 1_555 1_555
C11_2 C10_2 1_555 1_555
C14_2 C11_2 1_555 1_555
O12 C14_2 1_555 1_555
O14 C14_2 1_555 1_555
Gd8 O21 1_555 1_555
C23_2 C24_2 1_555 1_555
C24_2 H14_2 1_555 1_555
C25_2 C24_2 1_555 1_555
H15_2 C25_2 1_555 1_555
C28_2 C23_2 1_555 1_555
H17_2 C28_2 1_555 1_555
C30_2 C31_2 1_555 1_555
C31_2 H18_2 1_555 1_555
H20_2 C34_2 1_555 1_555
C35_2 C30_2 1_555 1_555
H21_2 C35_2 1_555 1_555
C37_2 C38_2 1_555 1_555
C38_2 H22_2 1_555 1_555
C42_2 C37_2 1_555 1_555
H25_2 C42_2 1_555 1_555
O21 P2_2 1_555 1_555
P2_2 C23_2 1_555 1_555
C30_2 P2_2 1_555 1_555
C34_2 C35_2 1_555 1_555
C37_2 P2_2 1_555 1_555
H23_2 C39_2 1_555 1_555
C40_2 C39_2 1_555 1_555
C41_2 C40_2 1_555 1_555
H24_2 C41_2 1_555 1_555
C43_2 C40_2 1_555 1_555
O16 C43_2 1_555 1_555
O20 C43_2 1_555 1_555
Gd8 O1_2 1_555 1_555
C5_2 C4_2 1_555 1_555
H3_2 C5_2 1_555 1_555
C7_2 C4_2 1_555 1_555
C22_2 H13_2 1_555 1_555
O1_2 C7_2 1_555 1_555
O2_2 Gd8 1_555 1_555
O8_2 Gd8 1_555 1_555
H19_2 C32_2 1_555 1_555
C33_2 C32_2 1_555 1_555
C36_2 C33_2 1_555 1_555
O11_2 Gd8 1_555 1_555
O13_2 Gd8 1_555 1_555
O25 C22_2 1_555 1_555
C7_2 O2_2 1_555 1_555
C22_2 O8_2 1_555 1_555
C36_2 O11_2 1_555 1_555
C36_2 O13_2 1_555 1_555

#END
