
###############################################################################
#
# This file contains modified crystal structure data generated from the
# MOF subset of the Cambridge Structural Database (CSD) v543 
# hosted by the Cambridge Crystallographic Data Centre (CCDC).
#
# This work is licensed under the Creative Commons
# Attribution-NonCommercial-ShareAlike 4.0 International License.
# To view a copy of this license, visit
# http://creativecommons.org/licenses/by-nc-sa/4.0/
# or send a letter to
# Creative Commons, PO Box 1866, Mountain View, CA 94042, USA.
#
# CIF created using the CSD Python API on 29 September 2022
# The structure has been converted into the P1 space group
# The structure has a 3D framework
# The original CSD entry DARDUX is in the monoclinic crystal system
# The framework has been calculated to contain at least 10.0% void space
# The void calculation uses a probe of radius 1.32A, grid spacing 0.4
# The framework is charged, counterions have been retained in the structure
#
###############################################################################

data_DARDUX
_chemical_formula_moiety         '(C88 H52 O28 P4 Tb4 2-)n'
_symmetry_cell_setting           triclinic
_symmetry_space_group_name_H-M   'P 1'
_symmetry_Int_Tables_number      1
_space_group_name_Hall           'P 1'
loop_
_symmetry_equiv_pos_site_id
_symmetry_equiv_pos_as_xyz
1 x,y,z
_cell_length_a                   14.617(4)
_cell_length_b                   10.572(3)
_cell_length_c                   23.548(7)
_cell_angle_alpha                90
_cell_angle_beta                 107.787(4)
_cell_angle_gamma                90
_cell_volume                     3464.95
loop_
_atom_site_label
_atom_site_type_symbol
_atom_site_fract_x
_atom_site_fract_y
_atom_site_fract_z
Tb2 Tb 0.153943(11) 0.568541(16) 0.227971(7)
Tb8 Tb 0.846057(11) 0.568541(16) 0.272029(7)
C23 C 0.2165(3) 0.1994(3) 0.14093(16)
C24 C 0.2000(4) 0.1727(4) 0.19461(19)
H14 H 0.1965 0.2384 0.2201
C25 C 0.1887(4) 0.0495(4) 0.2104(2)
H15 H 0.1780 0.0324 0.2466
C28 C 0.2220(4) 0.0999(4) 0.1030(2)
H17 H 0.2328 0.1164 0.0668
C30 C 0.3560(3) 0.4001(3) 0.14651(16)
C31 C 0.4277(3) 0.3099(4) 0.1597(2)
H18 H 0.4110 0.2248 0.1551
C32 C 0.5229(3) 0.3427(4) 0.1793(2)
H19 H 0.5698 0.2801 0.1878
C33 C 0.5493(3) 0.4687(4) 0.18643(17)
C34 C 0.4776(3) 0.5605(4) 0.1732(3)
H20 H 0.4946 0.6455 0.1780
C35 C 0.3826(3) 0.5275(4) 0.1533(2)
H21 H 0.3357 0.5901 0.1442
C36 C 0.6532(3) 0.5055(4) 0.21188(18)
C37 C 0.1903(3) 0.3716(4) 0.04207(15)
C38 C 0.2540(3) 0.3751(6) 0.00923(19)
H22 H 0.3199 0.3736 0.0283
C42 C 0.0930(3) 0.3724(6) 0.01211(18)
H25 H 0.0495 0.3697 0.0338
O9 O 0.1723(2) 0.4490(2) 0.14847(12)
O11 O 0.1563(2) 0.7979(3) 0.23703(13)
O13 O 0.1897(2) 0.7262(3) 0.15782(14)
O14 O 0.7172(2) 0.4218(3) 0.22001(15)
O16 O 0.2828(2) 0.4218(3) 0.27999(15)
O17 O 0.6757(2) 0.6181(3) 0.22689(14)
O19 O 0.3243(2) 0.6181(3) 0.27311(14)
O22 O 0.1492(2) 0.6043(3) 0.32427(12)
O25 O 0.0014(2) 0.6227(3) 0.17385(13)
O27 O 0.0703(2) 0.3884(3) 0.24082(16)
P2 P 0.22991(6) 0.36158(9) 0.12210(4)
Tb9 Tb 0.153943(11) 0.431459(16) 0.727971(7)
C39 C 0.2189(3) 0.3810(6) 0.94775(19)
H23 H 0.2622 0.3846 0.9259
C40 C 0.1229(3) 0.3818(4) 0.91807(15)
C41 C 0.0588(3) 0.3772(6) 0.95057(19)
C43 C 0.0875(3) 0.3856(4) 0.85106(15)
O20 O 0.1492(2) 0.3957(3) 0.82427(12)
C22 C -0.0000 0.3426(7) 0.2500
H13 H -0.0000 0.2546 0.2500
C26 C 0.1933(3) 0.9509(4) 0.17254(19)
C27 C 0.2114(5) 0.9776(4) 0.1196(2)
H16 H 0.2165 0.9115 0.0947
C29 C 0.1792(3) 0.8165(4) 0.18988(18)
Tb10 Tb 0.846057(11) 0.431459(16) 0.772029(7)
H24 H 0.9930 0.3774 0.9312
O23 O 0.9986(2) 0.3773(3) 0.82615(13)
C22_2 C 1.0000 0.3426(7) 0.2500
H13_2 H 1.0000 0.2546 0.2500
O26 O 0.9297(2) 0.3884(3) 0.25918(16)
H24_2 H 0.0070 0.3774 0.5688
O23_2 O 0.0014(2) 0.3773(3) 0.67385(13)
C23_2 C 0.7835(3) 0.1994(3) 0.35907(16)
C24_2 C 0.8000(4) 0.1727(4) 0.30539(19)
H14_2 H 0.8035 0.2384 0.2799
C25_2 C 0.8113(4) 0.0495(4) 0.2896(2)
H15_2 H 0.8220 0.0324 0.2534
C28_2 C 0.7780(4) 0.0999(4) 0.3970(2)
H17_2 H 0.7672 0.1164 0.4332
C30_2 C 0.6440(3) 0.4001(3) 0.35349(16)
C31_2 C 0.5723(3) 0.3099(4) 0.3403(2)
H18_2 H 0.5890 0.2248 0.3449
C32_2 C 0.4771(3) 0.3427(4) 0.3207(2)
H19_2 H 0.4302 0.2801 0.3122
C33_2 C 0.4507(3) 0.4687(4) 0.31357(17)
C34_2 C 0.5224(3) 0.5605(4) 0.3268(3)
H20_2 H 0.5054 0.6455 0.3220
C35_2 C 0.6174(3) 0.5275(4) 0.3467(2)
H21_2 H 0.6643 0.5901 0.3558
C36_2 C 0.3468(3) 0.5055(4) 0.28812(18)
C37_2 C 0.8097(3) 0.3716(4) 0.45793(15)
C38_2 C 0.7460(3) 0.3751(6) 0.49077(19)
H22_2 H 0.6801 0.3736 0.4717
C39_2 C 0.7811(3) 0.3810(6) 0.55225(19)
H23_2 H 0.7378 0.3846 0.5741
C40_2 C 0.8771(3) 0.3818(4) 0.58193(15)
C41_2 C 0.9412(3) 0.3772(6) 0.54943(19)
C42_2 C 0.9070(3) 0.3724(6) 0.48789(18)
H25_2 H 0.9505 0.3697 0.4662
C43_2 C 0.9125(3) 0.3856(4) 0.64894(15)
O9_2 O 0.8277(2) 0.4490(2) 0.35153(12)
O11_2 O 0.8437(2) 0.7979(3) 0.26297(13)
O13_2 O 0.8103(2) 0.7262(3) 0.34218(14)
O20_2 O 0.8508(2) 0.3957(3) 0.67573(12)
O22_2 O 0.8508(2) 0.6043(3) 0.17573(12)
O25_2 O 0.9986(2) 0.6227(3) 0.32615(13)
P2_2 P 0.77009(6) 0.36158(9) 0.37790(4)
C26_2 C 0.8067(3) 0.9509(4) 0.32746(19)
C27_2 C 0.7886(5) 0.9776(4) 0.3804(2)
H16_2 H 0.7835 0.9115 0.4053
C29_2 C 0.8208(3) 0.8165(4) 0.31012(18)
H11 H 0.0070 0.6226 0.0688
C22_3 C 0.0000 0.6574(7) 0.7500
H13_3 H 0.0000 0.7454 0.7500
O26_2 O 0.0703(2) 0.6116(3) 0.74082(16)
C4 C 0.8067(3) 0.0491(4) 0.82746(19)
C5 C 0.7886(5) 0.0224(4) 0.8804(2)
H3 H 0.7835 0.0885 0.9053
C7 C 0.8208(3) 0.1835(4) 0.81012(18)
O2 O 0.8437(2) 0.2021(3) 0.76297(13)
O3 O 0.8103(2) 0.2738(3) 0.84218(14)
C17 C 0.7811(3) 0.6190(6) 0.05225(19)
H10 H 0.7378 0.6154 0.0741
C18 C 0.8771(3) 0.6182(4) 0.08193(15)
C19 C 0.9412(3) 0.6228(6) 0.04943(19)
C21 C 0.9125(3) 0.6144(4) 0.14894(15)
C1 C 0.7835(3) 0.8006(3) 0.85907(16)
C2 C 0.8000(4) 0.8273(4) 0.80539(19)
H1 H 0.8035 0.7616 0.7799
C3 C 0.8113(4) 0.9505(4) 0.7896(2)
H2 H 0.8220 0.9676 0.7534
C6 C 0.7780(4) 0.9001(4) 0.8970(2)
H4 H 0.7672 0.8836 0.9332
C8 C 0.6440(3) 0.5999(3) 0.85349(16)
C9 C 0.5723(3) 0.6901(4) 0.8403(2)
H5 H 0.5890 0.7752 0.8449
C10 C 0.4771(3) 0.6573(4) 0.8207(2)
H6 H 0.4302 0.7199 0.8122
C11 C 0.4507(3) 0.5313(4) 0.81357(17)
C12 C 0.5224(3) 0.4395(4) 0.8268(3)
H7 H 0.5054 0.3545 0.8220
C13 C 0.6174(3) 0.4725(4) 0.8467(2)
H8 H 0.6643 0.4099 0.8558
C14 C 0.3468(3) 0.4945(4) 0.78812(18)
C15 C 0.8097(3) 0.6284(4) 0.95793(15)
C16 C 0.7460(3) 0.6249(6) 0.99077(19)
H9 H 0.6801 0.6264 0.9717
C20 C 0.9070(3) 0.6276(6) 0.98789(18)
H12 H 0.9505 0.6303 0.9662
C22_4 C 1.0000 0.6574(7) 0.7500
H13_4 H 1.0000 0.7454 0.7500
O1 O 0.8277(2) 0.5510(2) 0.85153(12)
O4 O 0.2828(2) 0.5782(3) 0.77999(15)
O5 O 0.3243(2) 0.3819(3) 0.77311(14)
O8 O 0.9297(2) 0.6116(3) 0.75918(16)
P1 P 0.77009(6) 0.63842(9) 0.87790(4)
O15 O 0.7172(2) 0.5782(3) 0.72001(15)
O18 O 0.6757(2) 0.3819(3) 0.72689(14)
C4_2 C 0.1933(3) 0.0491(4) 0.67254(19)
C5_2 C 0.2114(5) 0.0224(4) 0.6196(2)
H3_2 H 0.2165 0.0885 0.5947
C7_2 C 0.1792(3) 0.1835(4) 0.68988(18)
O2_2 O 0.1563(2) 0.2021(3) 0.73703(13)
O3_2 O 0.1897(2) 0.2738(3) 0.65782(14)
C1_2 C 0.2165(3) 0.8006(3) 0.64093(16)
C2_2 C 0.2000(4) 0.8273(4) 0.69461(19)
H1_2 H 0.1965 0.7616 0.7201
C3_2 C 0.1887(4) 0.9505(4) 0.7104(2)
H2_2 H 0.1780 0.9676 0.7466
C6_2 C 0.2220(4) 0.9001(4) 0.6030(2)
H4_2 H 0.2328 0.8836 0.5668
C8_2 C 0.3560(3) 0.5999(3) 0.64651(16)
C9_2 C 0.4277(3) 0.6901(4) 0.6597(2)
H5_2 H 0.4110 0.7752 0.6551
C10_2 C 0.5229(3) 0.6573(4) 0.6793(2)
H6_2 H 0.5698 0.7199 0.6878
C11_2 C 0.5493(3) 0.5313(4) 0.68643(17)
C12_2 C 0.4776(3) 0.4395(4) 0.6732(3)
H7_2 H 0.4946 0.3545 0.6780
C13_2 C 0.3826(3) 0.4725(4) 0.6533(2)
H8_2 H 0.3357 0.4099 0.6442
C14_2 C 0.6532(3) 0.4945(4) 0.71188(18)
C15_2 C 0.1903(3) 0.6284(4) 0.54207(15)
C16_2 C 0.2540(3) 0.6249(6) 0.50923(19)
H9_2 H 0.3199 0.6264 0.5283
C17_2 C 0.2189(3) 0.6190(6) 0.44775(19)
H10_2 H 0.2622 0.6154 0.4259
C18_2 C 0.1229(3) 0.6182(4) 0.41807(15)
C19_2 C 0.0588(3) 0.6228(6) 0.45057(19)
C20_2 C 0.0930(3) 0.6276(6) 0.51211(18)
H12_2 H 0.0495 0.6303 0.5338
C21_2 C 0.0875(3) 0.6144(4) 0.35106(15)
O1_2 O 0.1723(2) 0.5510(2) 0.64847(12)
P1_2 P 0.22991(6) 0.63842(9) 0.62210(4)
H11_2 H 0.9930 0.6226 0.4312
loop_
_geom_bond_atom_site_label_1
_geom_bond_atom_site_label_2
_geom_bond_site_symmetry_1
_geom_bond_site_symmetry_2
Tb2 O9 1_555 1_555
Tb8 O14 1_555 1_555
C23 C24 1_555 1_555
C24 H14 1_555 1_555
C25 C24 1_555 1_555
H15 C25 1_555 1_555
C28 C23 1_555 1_555
H17 C28 1_555 1_555
C30 C31 1_555 1_555
C31 H18 1_555 1_555
C32 C31 1_555 1_555
H19 C32 1_555 1_555
C33 C32 1_555 1_555
C34 C33 1_555 1_555
H20 C34 1_555 1_555
C35 C30 1_555 1_555
H21 C35 1_555 1_555
C36 C33 1_555 1_555
C37 C38 1_555 1_555
C38 H22 1_555 1_555
C42 C37 1_555 1_555
H25 C42 1_555 1_555
O9 P2 1_555 1_555
O11 Tb2 1_555 1_555
O13 Tb2 1_555 1_555
O14 C36 1_555 1_555
O16 Tb2 1_555 1_555
O17 Tb8 1_555 1_555
O19 Tb2 1_555 1_555
O22 Tb2 1_555 1_555
O25 Tb2 1_555 1_555
O27 Tb2 1_555 1_555
P2 C23 1_555 1_555
C30 P2 1_555 1_555
C34 C35 1_555 1_555
C36 O17 1_555 1_555
C37 P2 1_555 1_555
Tb9 O20 1_555 1_555
H23 C39 1_555 1_555
C40 C39 1_555 1_555
C41 C40 1_555 1_555
C43 C40 1_555 1_555
O20 C43 1_555 1_555
C22 H13 1_555 1_555
C27 C26 1_555 1_555
H16 C27 1_555 1_555
C29 C26 1_555 1_555
C22 O27 1_555 1_555
C29 O11 1_555 1_555
C29 O13 1_555 1_555
Tb10 O23 1_555 1_555
C22_2 H13_2 1_555 1_555
Tb8 O26 1_555 1_555
O26 C22_2 1_555 1_555
Tb9 O23_2 1_555 1_555
Tb8 O9_2 1_555 1_555
Tb10 O20_2 1_555 1_555
C23_2 C24_2 1_555 1_555
C24_2 H14_2 1_555 1_555
C25_2 C24_2 1_555 1_555
H15_2 C25_2 1_555 1_555
C28_2 C23_2 1_555 1_555
H17_2 C28_2 1_555 1_555
C30_2 C31_2 1_555 1_555
C31_2 H18_2 1_555 1_555
C32_2 C31_2 1_555 1_555
H19_2 C32_2 1_555 1_555
C33_2 C32_2 1_555 1_555
C34_2 C33_2 1_555 1_555
H20_2 C34_2 1_555 1_555
C35_2 C30_2 1_555 1_555
H21_2 C35_2 1_555 1_555
C36_2 C33_2 1_555 1_555
C37_2 C38_2 1_555 1_555
C38_2 H22_2 1_555 1_555
C39_2 C38_2 1_555 1_555
H23_2 C39_2 1_555 1_555
C40_2 C39_2 1_555 1_555
C41_2 C40_2 1_555 1_555
C42_2 C37_2 1_555 1_555
H25_2 C42_2 1_555 1_555
C43_2 C40_2 1_555 1_555
O9_2 P2_2 1_555 1_555
O11_2 Tb8 1_555 1_555
O13_2 Tb8 1_555 1_555
O16 C36_2 1_555 1_555
O20_2 C43_2 1_555 1_555
O22_2 Tb8 1_555 1_555
O25_2 Tb8 1_555 1_555
P2_2 C23_2 1_555 1_555
C30_2 P2_2 1_555 1_555
C34_2 C35_2 1_555 1_555
C36_2 O19 1_555 1_555
C37_2 P2_2 1_555 1_555
C41_2 C42_2 1_555 1_555
C27_2 C26_2 1_555 1_555
H16_2 C27_2 1_555 1_555
C29_2 C26_2 1_555 1_555
C29_2 O11_2 1_555 1_555
C29_2 O13_2 1_555 1_555
C22_3 H13_3 1_555 1_555
Tb9 O26_2 1_555 1_555
O26_2 C22_3 1_555 1_555
C5 C4 1_555 1_555
H3 C5 1_555 1_555
C7 C4 1_555 1_555
O2 C7 1_555 1_555
O3 C7 1_555 1_555
Tb10 O2 1_555 1_555
O3 Tb10 1_555 1_555
H10 C17 1_555 1_555
C18 C17 1_555 1_555
C19 C18 1_555 1_555
C21 C18 1_555 1_555
O22_2 C21 1_555 1_555
Tb10 O1 1_555 1_555
C1 C2 1_555 1_555
C2 H1 1_555 1_555
C3 C2 1_555 1_555
H2 C3 1_555 1_555
C6 C1 1_555 1_555
H4 C6 1_555 1_555
C8 C9 1_555 1_555
C9 H5 1_555 1_555
C10 C9 1_555 1_555
H6 C10 1_555 1_555
C11 C10 1_555 1_555
C12 C11 1_555 1_555
H7 C12 1_555 1_555
C13 C8 1_555 1_555
H8 C13 1_555 1_555
C14 C11 1_555 1_555
C15 C16 1_555 1_555
C16 H9 1_555 1_555
C20 C15 1_555 1_555
H12 C20 1_555 1_555
C22_4 H13_4 1_555 1_555
O1 P1 1_555 1_555
O4 C14 1_555 1_555
O5 C14 1_555 1_555
O8 Tb10 1_555 1_555
P1 C1 1_555 1_555
Tb9 O4 1_555 1_555
O15 Tb10 1_555 1_555
O18 Tb10 1_555 1_555
C8 P1 1_555 1_555
C12 C13 1_555 1_555
C15 P1 1_555 1_555
C22_4 O8 1_555 1_555
O5 Tb9 1_555 1_555
C5_2 C4_2 1_555 1_555
H3_2 C5_2 1_555 1_555
C7_2 C4_2 1_555 1_555
O2_2 C7_2 1_555 1_555
O3_2 C7_2 1_555 1_555
Tb9 O2_2 1_555 1_555
O3_2 Tb9 1_555 1_555
Tb9 O1_2 1_555 1_555
C1_2 C2_2 1_555 1_555
C2_2 H1_2 1_555 1_555
C3_2 C2_2 1_555 1_555
H2_2 C3_2 1_555 1_555
C6_2 C1_2 1_555 1_555
H4_2 C6_2 1_555 1_555
C8_2 C9_2 1_555 1_555
C9_2 H5_2 1_555 1_555
C10_2 C9_2 1_555 1_555
H6_2 C10_2 1_555 1_555
C11_2 C10_2 1_555 1_555
C12_2 C11_2 1_555 1_555
H7_2 C12_2 1_555 1_555
C13_2 C8_2 1_555 1_555
H8_2 C13_2 1_555 1_555
C14_2 C11_2 1_555 1_555
C15_2 C16_2 1_555 1_555
C16_2 H9_2 1_555 1_555
C17_2 C16_2 1_555 1_555
H10_2 C17_2 1_555 1_555
C18_2 C17_2 1_555 1_555
C19_2 C18_2 1_555 1_555
C20_2 C15_2 1_555 1_555
H12_2 C20_2 1_555 1_555
C21_2 C18_2 1_555 1_555
O1_2 P1_2 1_555 1_555
O15 C14_2 1_555 1_555
O18 C14_2 1_555 1_555
O22 C21_2 1_555 1_555
P1_2 C1_2 1_555 1_555
C8_2 P1_2 1_555 1_555
C12_2 C13_2 1_555 1_555
C15_2 P1_2 1_555 1_555
C19_2 C20_2 1_555 1_555

#END
