
###############################################################################
#
# This file contains modified crystal structure data generated from the
# MOF subset of the Cambridge Structural Database (CSD) v543 
# hosted by the Cambridge Crystallographic Data Centre (CCDC).
#
# This work is licensed under the Creative Commons
# Attribution-NonCommercial-ShareAlike 4.0 International License.
# To view a copy of this license, visit
# http://creativecommons.org/licenses/by-nc-sa/4.0/
# or send a letter to
# Creative Commons, PO Box 1866, Mountain View, CA 94042, USA.
#
# CIF created using the CSD Python API on 29 September 2022
# The structure has been converted into the P1 space group
# The structure has a 3D framework
# The original CSD entry DARDEH is in the monoclinic crystal system
# The framework has been calculated to contain at least 10.0% void space
# The void calculation uses a probe of radius 1.32A, grid spacing 0.4
# The framework is charged, counterions have been retained in the structure
#
###############################################################################

data_DARDEH
_chemical_formula_moiety         '(C86 H50 O32 P4 2-)n'
_symmetry_cell_setting           triclinic
_symmetry_space_group_name_H-M   'P 1'
_symmetry_Int_Tables_number      1
_space_group_name_Hall           'P 1'
loop_
_symmetry_equiv_pos_site_id
_symmetry_equiv_pos_as_xyz
1 x,y,z
_cell_length_a                   14.664(3)
_cell_length_b                   10.603(2)
_cell_length_c                   23.698(4)
_cell_angle_alpha                90
_cell_angle_beta                 108.058(10)
_cell_angle_gamma                90
_cell_volume                     3503.13
loop_
_atom_site_label
_atom_site_type_symbol
_atom_site_fract_x
_atom_site_fract_y
_atom_site_fract_z
C10 C 0.4389(6) 0.1237(11) 0.0499(4)
H6 H 0.5045 0.1244 0.0697
C11 C 0.3750(5) 0.1188(7) 0.0815(3)
C12 C 0.2786(6) 0.1202(12) 0.0513(4)
H7 H 0.2348 0.1197 0.0725
C14 C 0.4094(5) 0.1183(7) 0.1482(3)
O4 O 0.4972(4) 0.1242(7) 0.1736(2)
O5 O 0.3477(4) 0.1099(6) 0.1742(2)
Sm4 Sm 0.65345(2) 0.07247(3) 0.227717(14)
Sm5 Sm 0.34655(2) 0.07247(3) 0.272283(14)
C1 C 0.2846(5) 0.2971(6) 0.8596(3)
C2 C 0.2990(8) 0.3229(7) 0.8059(4)
H1 H 0.3009 0.2573 0.7802
C3 C 0.3107(8) 0.4453(8) 0.7902(4)
H2 H 0.3203 0.4618 0.7539
C4 C 0.3082(6) 0.5438(7) 0.8277(3)
C5 C 0.2914(9) 0.5189(8) 0.8816(4)
H3 H 0.2884 0.5848 0.9069
C6 C 0.2793(9) 0.3953(8) 0.8973(4)
H4 H 0.2676 0.3783 0.9329
C7 C 0.3216(6) 0.6766(7) 0.8107(3)
C8 C 0.3087(5) 0.1285(6) 0.9579(3)
C9 C 0.4061(6) 0.1274(11) 0.9885(4)
H5 H 0.4501 0.1293 0.9675
C13 C 0.2454(6) 0.1224(12) 0.9903(4)
H8 H 0.1797 0.1197 0.9708
C15 C 0.1447(5) 0.0962(6) 0.8535(3)
C20 C 0.0741(6) 0.1865(8) 0.8403(4)
H12 H 0.0910 0.2712 0.8454
C22 C 0.5000 0.1525(12) 0.7500
H13 H 0.5000 0.2402 0.7500
O1 O 0.3275(4) 0.0476(4) 0.8524(2)
O2 O 0.3430(4) 0.6950(6) 0.7632(3)
O3 O 0.3127(5) 0.7672(5) 0.8426(3)
O8 O 0.4303(4) 0.1090(6) 0.7585(3)
P1 P 0.27038(12) 0.13450(16) 0.87837(7)
Sm3 Sm 0.34655(2) 0.92753(3) 0.772283(14)
O21 O 0.2146(4) 0.0750(5) 0.7200(3)
O26 O 0.5697(4) 0.1090(6) 0.7415(3)
C16 C 0.1191(5) 0.9693(7) 0.8467(4)
H9 H 0.1665 0.9075 0.8560
C17 C 0.0245(6) 0.9354(7) 0.8265(4)
H10 H 0.0078 0.8506 0.8215
Sm7 Sm 0.65345(2) 0.92753(3) 0.727717(14)
O15 O 0.5028(4) 0.8758(7) 0.8264(2)
O18 O 0.3477(4) 0.8901(6) 0.6742(2)
O24 O 0.1735(4) 0.8788(6) 0.7265(3)
C18 C 0.9526(5) 0.0278(7) 0.8133(3)
C19 C 0.9779(6) 0.1532(7) 0.8195(4)
H11 H 0.9308 0.2153 0.8097
O6 O 0.7854(4) 0.0750(5) 0.7800(3)
C21 C 0.8491(5) 0.9912(8) 0.7884(3)
O7 O 0.8265(4) 0.8788(6) 0.7735(3)
C18_2 C 0.0474(5) 0.0278(7) 0.6867(3)
C19_2 C 0.0221(6) 0.1532(7) 0.6805(4)
H11_2 H 0.0692 0.2153 0.6903
C21_2 C 0.1509(5) 0.9912(8) 0.7116(3)
C1_2 C 0.7154(5) 0.2971(6) 0.6404(3)
C2_2 C 0.7010(8) 0.3229(7) 0.6941(4)
H1_2 H 0.6991 0.2573 0.7198
C3_2 C 0.6893(8) 0.4453(8) 0.7098(4)
H2_2 H 0.6797 0.4618 0.7461
C4_2 C 0.6918(6) 0.5438(7) 0.6723(3)
C5_2 C 0.7086(9) 0.5189(8) 0.6184(4)
H3_2 H 0.7116 0.5848 0.5931
C6_2 C 0.7207(9) 0.3953(8) 0.6027(4)
H4_2 H 0.7324 0.3783 0.5671
C7_2 C 0.6784(6) 0.6766(7) 0.6893(3)
C8_2 C 0.6913(5) 0.1285(6) 0.5421(3)
C9_2 C 0.5939(6) 0.1274(11) 0.5115(4)
H5_2 H 0.5499 0.1293 0.5325
C10_2 C 0.5611(6) 0.1237(11) 0.4501(4)
H6_2 H 0.4955 0.1244 0.4303
C11_2 C 0.6250(5) 0.1188(7) 0.4185(3)
C12_2 C 0.7214(6) 0.1202(12) 0.4487(4)
H7_2 H 0.7652 0.1197 0.4275
C13_2 C 0.7546(6) 0.1224(12) 0.5097(4)
H8_2 H 0.8203 0.1197 0.5292
C14_2 C 0.5906(5) 0.1183(7) 0.3518(3)
C15_2 C 0.8553(5) 0.0962(6) 0.6465(3)
C20_2 C 0.9259(6) 0.1865(8) 0.6597(4)
H12_2 H 0.9090 0.2712 0.6546
O1_2 O 0.6725(4) 0.0476(4) 0.6476(2)
O2_2 O 0.6570(4) 0.6950(6) 0.7368(3)
O3_2 O 0.6873(5) 0.7672(5) 0.6574(3)
O4_2 O 0.5028(4) 0.1242(7) 0.3264(2)
O5_2 O 0.6523(4) 0.1099(6) 0.3258(2)
P1_2 P 0.72962(12) 0.13450(16) 0.62163(7)
C16_2 C 0.8809(5) 0.9693(7) 0.6533(4)
H9_2 H 0.8335 0.9075 0.6440
C17_2 C 0.9755(6) 0.9354(7) 0.6735(4)
H10_2 H 0.9922 0.8506 0.6785
O15_2 O 0.4972(4) 0.8758(7) 0.6736(2)
O18_2 O 0.6523(4) 0.8901(6) 0.8258(2)
C43 C 0.1509(5) 0.0088(8) 0.2116(3)
O23 O 0.1735(4) 0.1212(6) 0.2265(3)
C40 C 0.0474(5) 0.9722(7) 0.1867(3)
C41 C 0.0221(6) 0.8468(7) 0.1805(4)
H24 H 0.0692 0.7847 0.1903
O20 O 0.2146(4) 0.9250(5) 0.2200(3)
C38 C 0.8809(5) 0.0307(7) 0.1533(4)
H22 H 0.8335 0.0925 0.1440
C39 C 0.9755(6) 0.0646(7) 0.1735(4)
H23 H 0.9922 0.1494 0.1785
O11 O 0.6570(4) 0.3050(6) 0.2368(3)
O13 O 0.6873(5) 0.2328(5) 0.1574(3)
O25 O 0.8265(4) 0.1212(6) 0.2735(3)
C23 C 0.7154(5) 0.7029(6) 0.1404(3)
C24 C 0.7010(8) 0.6771(7) 0.1941(4)
H14 H 0.6991 0.7427 0.2198
C25 C 0.6893(8) 0.5547(8) 0.2098(4)
H15 H 0.6797 0.5382 0.2461
C26 C 0.6918(6) 0.4562(7) 0.1723(3)
C27 C 0.7086(9) 0.4811(8) 0.1184(4)
H16 H 0.7116 0.4152 0.0931
C28 C 0.7207(9) 0.6047(8) 0.1027(4)
H17 H 0.7324 0.6217 0.0671
C29 C 0.6784(6) 0.3234(7) 0.1893(3)
C30 C 0.6913(5) 0.8715(6) 0.0421(3)
C31 C 0.5939(6) 0.8726(11) 0.0115(4)
H18 H 0.5499 0.8707 0.0325
C35 C 0.7546(6) 0.8776(12) 0.0097(4)
H21 H 0.8203 0.8803 0.0292
C37 C 0.8553(5) 0.9038(6) 0.1465(3)
C42 C 0.9259(6) 0.8135(8) 0.1597(4)
H25 H 0.9090 0.7288 0.1546
O9 O 0.6725(4) 0.9524(4) 0.1476(2)
O22 O 0.7854(4) 0.9250(5) 0.2800(3)
O27 O 0.5697(4) 0.8910(6) 0.2415(3)
P2 P 0.72962(12) 0.86550(16) 0.12163(7)
C32 C 0.5611(6) 0.8763(11) 0.9501(4)
H19 H 0.4955 0.8756 0.9303
C33 C 0.6250(5) 0.8812(7) 0.9185(3)
C34 C 0.7214(6) 0.8798(12) 0.9487(4)
H20 H 0.7652 0.8803 0.9275
C36 C 0.5906(5) 0.8817(7) 0.8518(3)
C22_2 C 0.5000 0.8475(12) 0.2500
H13_2 H 0.5000 0.7598 0.2500
O26_2 O 0.4303(4) 0.8910(6) 0.2585(3)
C38_2 C 0.1191(5) 0.0307(7) 0.3467(4)
H22_2 H 0.1665 0.0925 0.3560
C39_2 C 0.0245(6) 0.0646(7) 0.3265(4)
H23_2 H 0.0078 0.1494 0.3215
O11_2 O 0.3430(4) 0.3050(6) 0.2632(3)
O13_2 O 0.3127(5) 0.2328(5) 0.3426(3)
C23_2 C 0.2846(5) 0.7029(6) 0.3596(3)
C24_2 C 0.2990(8) 0.6771(7) 0.3059(4)
H14_2 H 0.3009 0.7427 0.2802
C25_2 C 0.3107(8) 0.5547(8) 0.2902(4)
H15_2 H 0.3203 0.5382 0.2539
C26_2 C 0.3082(6) 0.4562(7) 0.3277(3)
C27_2 C 0.2914(9) 0.4811(8) 0.3816(4)
H16_2 H 0.2884 0.4152 0.4069
C28_2 C 0.2793(9) 0.6047(8) 0.3973(4)
H17_2 H 0.2676 0.6217 0.4329
C29_2 C 0.3216(6) 0.3234(7) 0.3107(3)
C30_2 C 0.3087(5) 0.8715(6) 0.4579(3)
C31_2 C 0.4061(6) 0.8726(11) 0.4885(4)
H18_2 H 0.4501 0.8707 0.4675
C32_2 C 0.4389(6) 0.8763(11) 0.5499(4)
H19_2 H 0.5045 0.8756 0.5697
C33_2 C 0.3750(5) 0.8812(7) 0.5815(3)
C34_2 C 0.2786(6) 0.8798(12) 0.5513(4)
H20_2 H 0.2348 0.8803 0.5725
C35_2 C 0.2454(6) 0.8776(12) 0.4903(4)
H21_2 H 0.1797 0.8803 0.4708
C36_2 C 0.4094(5) 0.8817(7) 0.6482(3)
C37_2 C 0.1447(5) 0.9038(6) 0.3535(3)
C42_2 C 0.0741(6) 0.8135(8) 0.3403(4)
H25_2 H 0.0910 0.7288 0.3454
O9_2 O 0.3275(4) 0.9524(4) 0.3524(2)
P2_2 P 0.27038(12) 0.86550(16) 0.37837(7)
C43_2 C 0.8491(5) 0.0088(8) 0.2884(3)
C40_2 C 0.9526(5) 0.9722(7) 0.3133(3)
C41_2 C 0.9779(6) 0.8468(7) 0.3195(4)
H24_2 H 0.9308 0.7847 0.3097
loop_
_geom_bond_atom_site_label_1
_geom_bond_atom_site_label_2
_geom_bond_site_symmetry_1
_geom_bond_site_symmetry_2
H6 C10 1_555 1_555
C11 C10 1_555 1_555
C12 C11 1_555 1_555
H7 C12 1_555 1_555
C14 C11 1_555 1_555
O4 C14 1_555 1_555
O5 C14 1_555 1_555
Sm4 O4 1_555 1_555
Sm5 O5 1_555 1_555
C1 C2 1_555 1_555
C2 H1 1_555 1_555
C3 C2 1_555 1_555
H2 C3 1_555 1_555
C4 C3 1_555 1_555
C5 C4 1_555 1_555
H3 C5 1_555 1_555
C6 C1 1_555 1_555
H4 C6 1_555 1_555
C7 C4 1_555 1_555
C8 C9 1_555 1_555
C9 H5 1_555 1_555
C13 C8 1_555 1_555
H8 C13 1_555 1_555
C20 C15 1_555 1_555
H12 C20 1_555 1_555
C22 H13 1_555 1_555
O1 P1 1_555 1_555
O2 C7 1_555 1_555
O3 C7 1_555 1_555
P1 C1 1_555 1_555
Sm3 O2 1_555 1_555
O26 C22 1_555 1_555
C5 C6 1_555 1_555
C8 P1 1_555 1_555
C15 P1 1_555 1_555
C22 O8 1_555 1_555
O3 Sm3 1_555 1_555
C16 H9 1_555 1_555
C17 C16 1_555 1_555
H10 C17 1_555 1_555
O15 Sm3 1_555 1_555
O18 Sm3 1_555 1_555
O24 Sm3 1_555 1_555
C19 C18 1_555 1_555
H11 C19 1_555 1_555
O7 C21 1_555 1_555
O7 Sm7 1_555 1_555
C19_2 C18_2 1_555 1_555
H11_2 C19_2 1_555 1_555
O24 C21_2 1_555 1_555
C1_2 C2_2 1_555 1_555
C2_2 H1_2 1_555 1_555
C3_2 C2_2 1_555 1_555
H2_2 C3_2 1_555 1_555
C4_2 C3_2 1_555 1_555
C5_2 C4_2 1_555 1_555
H3_2 C5_2 1_555 1_555
C6_2 C1_2 1_555 1_555
H4_2 C6_2 1_555 1_555
C7_2 C4_2 1_555 1_555
C8_2 C9_2 1_555 1_555
C9_2 H5_2 1_555 1_555
C10_2 C9_2 1_555 1_555
H6_2 C10_2 1_555 1_555
C11_2 C10_2 1_555 1_555
C12_2 C11_2 1_555 1_555
H7_2 C12_2 1_555 1_555
C13_2 C8_2 1_555 1_555
H8_2 C13_2 1_555 1_555
C14_2 C11_2 1_555 1_555
C20_2 C15_2 1_555 1_555
H12_2 C20_2 1_555 1_555
O1_2 P1_2 1_555 1_555
O2_2 C7_2 1_555 1_555
O3_2 C7_2 1_555 1_555
O4_2 C14_2 1_555 1_555
O5_2 C14_2 1_555 1_555
P1_2 C1_2 1_555 1_555
Sm7 O2_2 1_555 1_555
Sm5 O4_2 1_555 1_555
Sm4 O5_2 1_555 1_555
C5_2 C6_2 1_555 1_555
C8_2 P1_2 1_555 1_555
C12_2 C13_2 1_555 1_555
C15_2 P1_2 1_555 1_555
O3_2 Sm7 1_555 1_555
C16_2 H9_2 1_555 1_555
C17_2 C16_2 1_555 1_555
H10_2 C17_2 1_555 1_555
O15_2 Sm7 1_555 1_555
O18_2 Sm7 1_555 1_555
O23 Sm5 1_555 1_555
C43 O23 1_555 1_555
C41 C40 1_555 1_555
H24 C41 1_555 1_555
C38 H22 1_555 1_555
C39 C38 1_555 1_555
H23 C39 1_555 1_555
O11 Sm4 1_555 1_555
O13 Sm4 1_555 1_555
O25 Sm4 1_555 1_555
C23 C24 1_555 1_555
C24 H14 1_555 1_555
C25 C24 1_555 1_555
H15 C25 1_555 1_555
C26 C25 1_555 1_555
C27 C26 1_555 1_555
H16 C27 1_555 1_555
C28 C23 1_555 1_555
H17 C28 1_555 1_555
C29 C26 1_555 1_555
C30 C31 1_555 1_555
C31 H18 1_555 1_555
C35 C30 1_555 1_555
H21 C35 1_555 1_555
C42 C37 1_555 1_555
H25 C42 1_555 1_555
O9 P2 1_555 1_555
P2 C23 1_555 1_555
C27 C28 1_555 1_555
C29 O11 1_555 1_555
C29 O13 1_555 1_555
C30 P2 1_555 1_555
C37 P2 1_555 1_555
H19 C32 1_555 1_555
C33 C32 1_555 1_555
C34 C33 1_555 1_555
H20 C34 1_555 1_555
C36 C33 1_555 1_555
O15 C36 1_555 1_555
O18_2 C36 1_555 1_555
C22_2 H13_2 1_555 1_555
O26_2 C22_2 1_555 1_555
C22_2 O27 1_555 1_555
C38_2 H22_2 1_555 1_555
C39_2 C38_2 1_555 1_555
H23_2 C39_2 1_555 1_555
O11_2 Sm5 1_555 1_555
O13_2 Sm5 1_555 1_555
C23_2 C24_2 1_555 1_555
C24_2 H14_2 1_555 1_555
C25_2 C24_2 1_555 1_555
H15_2 C25_2 1_555 1_555
C26_2 C25_2 1_555 1_555
C27_2 C26_2 1_555 1_555
H16_2 C27_2 1_555 1_555
C28_2 C23_2 1_555 1_555
H17_2 C28_2 1_555 1_555
C29_2 C26_2 1_555 1_555
C30_2 C31_2 1_555 1_555
C31_2 H18_2 1_555 1_555
C32_2 C31_2 1_555 1_555
H19_2 C32_2 1_555 1_555
C33_2 C32_2 1_555 1_555
C34_2 C33_2 1_555 1_555
H20_2 C34_2 1_555 1_555
C35_2 C30_2 1_555 1_555
H21_2 C35_2 1_555 1_555
C36_2 C33_2 1_555 1_555
C42_2 C37_2 1_555 1_555
H25_2 C42_2 1_555 1_555
O9_2 P2_2 1_555 1_555
O15_2 C36_2 1_555 1_555
O18 C36_2 1_555 1_555
P2_2 C23_2 1_555 1_555
C27_2 C28_2 1_555 1_555
C29_2 O11_2 1_555 1_555
C29_2 O13_2 1_555 1_555
C30_2 P2_2 1_555 1_555
C34_2 C35_2 1_555 1_555
C37_2 P2_2 1_555 1_555
C43_2 O25 1_555 1_555
C41_2 C40_2 1_555 1_555
H24_2 C41_2 1_555 1_555

#END
