
###############################################################################
#
# This file contains modified crystal structure data generated from the
# MOF subset of the Cambridge Structural Database (CSD) v543 
# hosted by the Cambridge Crystallographic Data Centre (CCDC).
#
# This work is licensed under the Creative Commons
# Attribution-NonCommercial-ShareAlike 4.0 International License.
# To view a copy of this license, visit
# http://creativecommons.org/licenses/by-nc-sa/4.0/
# or send a letter to
# Creative Commons, PO Box 1866, Mountain View, CA 94042, USA.
#
# CIF created using the CSD Python API on 29 September 2022
# The structure has been converted into the P1 space group
# The structure has a 3D framework
# The original CSD entry DARDIL is in the monoclinic crystal system
# The framework has been calculated to contain at least 10.0% void space
# The void calculation uses a probe of radius 1.32A, grid spacing 0.4
# The framework is charged, counterions have been retained in the structure
#
###############################################################################

data_DARDIL
_chemical_formula_moiety         '(C86 H50 Eu4 O32 P4 3-)n'
_symmetry_cell_setting           triclinic
_symmetry_space_group_name_H-M   'P 1'
_symmetry_Int_Tables_number      1
_space_group_name_Hall           'P 1'
loop_
_symmetry_equiv_pos_site_id
_symmetry_equiv_pos_as_xyz
1 x,y,z
_cell_length_a                   14.617(3)
_cell_length_b                   10.572(2)
_cell_length_c                   23.548(5)
_cell_angle_alpha                90
_cell_angle_beta                 107.79(3)
_cell_angle_gamma                90
_cell_volume                     3464.89
loop_
_atom_site_label
_atom_site_type_symbol
_atom_site_fract_x
_atom_site_fract_y
_atom_site_fract_z
Eu1 Eu 0.346842(12) 0.430896(18) 0.273731(7)
C4 C 0.0485(3) 0.5295(4) 0.18687(16)
C5 C 0.0233(3) 0.6566(4) 0.1802(2)
H3 H 0.0706 0.7187 0.1894
C7 C 0.1526(3) 0.4930(4) 0.21284(16)
C22 C 0.5000 0.6561(8) 0.2500
H13 H 0.5000 0.7441 0.2500
O1 O 0.1745(2) 0.3811(3) 0.22827(13)
O2 O 0.21655(19) 0.5773(3) 0.21948(13)
O8 O 0.4293(2) 0.6139(3) 0.26034(17)
Eu7 Eu 0.653158(12) 0.430896(18) 0.226269(7)
C33 C 0.3083(3) 0.0477(4) 0.32913(17)
C34 C 0.2942(4) 0.0206(4) 0.3832(2)
H20 H 0.2925 0.0861 0.4093
C36 C 0.3221(3) 0.1817(4) 0.31262(18)
O11 O 0.3428(2) 0.1994(3) 0.26452(12)
O13 O 0.3147(2) 0.2725(3) 0.34512(13)
O16 O 0.5025(2) 0.3780(4) 0.32562(12)
O19 O 0.3488(2) 0.3955(3) 0.17612(12)
O22 O 0.32705(18) 0.5511(2) 0.35303(11)
O24 O 0.5707(2) 0.6139(3) 0.23966(17)
Eu8 Eu 0.653158(12) 0.569104(18) 0.726269(7)
Eu9 Eu 0.346842(12) 0.569104(18) 0.773731(7)
C23 C 0.1440(3) 0.5984(3) 0.35377(16)
C24 C 0.1184(3) 0.4727(4) 0.34789(18)
H14 H 0.1659 0.4111 0.3588
C25 C 0.0251(3) 0.4371(3) 0.32648(18)
H15 H 0.0094 0.3518 0.3205
C28 C 0.0732(3) 0.6906(4) 0.3402(2)
H17 H 0.0903 0.7756 0.3448
C30 C 0.2830(3) 0.7990(3) 0.36078(15)
C31 C 0.2936(4) 0.8263(4) 0.30579(19)
H18 H 0.2915 0.7615 0.2788
C32 C 0.3071(4) 0.9497(4) 0.2908(2)
H19 H 0.3156 0.9666 0.2539
C35 C 0.2826(4) 0.8964(4) 0.3992(2)
H21 H 0.2745 0.8793 0.4361
C37 C 0.3082(2) 0.6275(3) 0.45903(14)
C38 C 0.2450(3) 0.6190(5) 0.49116(18)
H22 H 0.1793 0.6166 0.4716
C39 C 0.2785(3) 0.6138(5) 0.55293(17)
H23 H 0.2350 0.6078 0.5745
C40 C 0.3744(3) 0.6174(4) 0.58231(15)
C41 C 0.4386(3) 0.6253(5) 0.55036(18)
H24 H 0.5042 0.6277 0.5700
C42 C 0.4049(3) 0.6296(5) 0.48855(17)
H25 H 0.4484 0.6340 0.4669
C43 C 0.4093(3) 0.6138(4) 0.64887(15)
O15 O 0.4975(2) 0.6220(4) 0.67438(12)
O18 O 0.3488(2) 0.6045(3) 0.67612(12)
P2 P 0.26944(7) 0.63767(9) 0.37915(4)
C11 C 0.6917(3) 0.0477(4) 0.17087(17)
C12 C 0.7058(4) 0.0206(4) 0.1168(2)
H7 H 0.7075 0.0861 0.0907
C14 C 0.6779(3) 0.1817(4) 0.18738(18)
O3 O 0.6572(2) 0.1994(3) 0.23548(12)
O4 O 0.6853(2) 0.2725(3) 0.15488(13)
C1 C 0.8560(3) 0.5984(3) 0.14623(16)
C2 C 0.8816(3) 0.4727(4) 0.15211(18)
H1 H 0.8341 0.4111 0.1412
C3 C 0.9749(3) 0.4371(3) 0.17352(18)
H2 H 0.9906 0.3518 0.1795
C6 C 0.9268(3) 0.6906(4) 0.1598(2)
H4 H 0.9097 0.7756 0.1552
C8 C 0.7170(3) 0.7990(3) 0.13922(15)
C9 C 0.7064(4) 0.8263(4) 0.19421(19)
H5 H 0.7085 0.7615 0.2212
C10 C 0.6929(4) 0.9497(4) 0.2092(2)
H6 H 0.6844 0.9666 0.2461
C13 C 0.7174(4) 0.8964(4) 0.1008(2)
H8 H 0.7255 0.8793 0.0639
C15 C 0.6918(2) 0.6275(3) 0.04097(14)
C16 C 0.7550(3) 0.6190(5) 0.00884(18)
H9 H 0.8207 0.6166 0.0284
C20 C 0.5951(3) 0.6296(5) 0.01145(17)
H12 H 0.5516 0.6340 0.0331
O7 O 0.67295(18) 0.5511(2) 0.14697(11)
P1 P 0.73056(7) 0.63767(9) 0.12085(4)
C17 C 0.7215(3) 0.6138(5) 0.94707(17)
H10 H 0.7650 0.6078 0.9255
C18 C 0.6256(3) 0.6174(4) 0.91769(15)
C19 C 0.5614(3) 0.6253(5) 0.94964(18)
H11 H 0.4958 0.6277 0.9300
C21 C 0.5907(3) 0.6138(4) 0.85113(15)
O5 O 0.5025(2) 0.6220(4) 0.82562(12)
O6 O 0.6512(2) 0.6045(3) 0.82388(12)
C26 C 0.9515(3) 0.5295(4) 0.31313(16)
C27 C 0.9767(3) 0.6566(4) 0.3198(2)
H16 H 0.9294 0.7187 0.3106
C29 C 0.8474(3) 0.4930(4) 0.28716(16)
O9 O 0.8255(2) 0.3811(3) 0.27173(13)
O10 O 0.78345(19) 0.5773(3) 0.28052(13)
O17 O 0.4975(2) 0.3780(4) 0.17438(12)
O20 O 0.6512(2) 0.3955(3) 0.32388(12)
C26_2 C 0.0485(3) 0.4705(4) 0.68687(16)
C27_2 C 0.0233(3) 0.3434(4) 0.6802(2)
H16_2 H 0.0706 0.2813 0.6894
C29_2 C 0.1526(3) 0.5070(4) 0.71284(16)
O9_2 O 0.1745(2) 0.6189(3) 0.72827(13)
O10_2 O 0.21655(19) 0.4227(3) 0.71948(13)
O12 O 0.3428(2) 0.8006(3) 0.76452(12)
O14 O 0.3147(2) 0.7275(3) 0.84512(13)
O23 O 0.32705(18) 0.4489(2) 0.85303(11)
O25 O 0.4293(2) 0.3861(3) 0.76034(17)
C17_2 C 0.2785(3) 0.3862(5) 0.05293(17)
H10_2 H 0.2350 0.3922 0.0745
C18_2 C 0.3744(3) 0.3826(4) 0.08231(15)
C19_2 C 0.4386(3) 0.3747(5) 0.05036(18)
H11_2 H 0.5042 0.3723 0.0700
C21_2 C 0.4093(3) 0.3862(4) 0.14887(15)
C1_2 C 0.1440(3) 0.4016(3) 0.85377(16)
C2_2 C 0.1184(3) 0.5273(4) 0.84789(18)
H1_2 H 0.1659 0.5889 0.8588
C3_2 C 0.0251(3) 0.5629(3) 0.82648(18)
H2_2 H 0.0094 0.6482 0.8205
C6_2 C 0.0732(3) 0.3094(4) 0.8402(2)
H4_2 H 0.0903 0.2244 0.8448
C8_2 C 0.2830(3) 0.2010(3) 0.86078(15)
C9_2 C 0.2936(4) 0.1737(4) 0.80579(19)
H5_2 H 0.2915 0.2385 0.7788
C10_2 C 0.3071(4) 0.0503(4) 0.7908(2)
H6_2 H 0.3156 0.0334 0.7539
C13_2 C 0.2826(4) 0.1036(4) 0.8992(2)
H8_2 H 0.2745 0.1207 0.9361
C15_2 C 0.3082(2) 0.3725(3) 0.95903(14)
C16_2 C 0.2450(3) 0.3810(5) 0.99116(18)
H9_2 H 0.1793 0.3834 0.9716
C20_2 C 0.4049(3) 0.3704(5) 0.98855(17)
H12_2 H 0.4484 0.3660 0.9669
P1_2 P 0.26944(7) 0.36233(9) 0.87915(4)
C11_2 C 0.3083(3) 0.9523(4) 0.82913(17)
C12_2 C 0.2942(4) 0.9794(4) 0.8832(2)
H7_2 H 0.2925 0.9139 0.9093
C14_2 C 0.3221(3) 0.8183(4) 0.81262(18)
C23_2 C 0.8560(3) 0.4016(3) 0.64623(16)
C24_2 C 0.8816(3) 0.5273(4) 0.65211(18)
H14_2 H 0.8341 0.5889 0.6412
C25_2 C 0.9749(3) 0.5629(3) 0.67352(18)
H15_2 H 0.9906 0.6482 0.6795
C28_2 C 0.9268(3) 0.3094(4) 0.6598(2)
H17_2 H 0.9097 0.2244 0.6552
C30_2 C 0.7170(3) 0.2010(3) 0.63922(15)
C31_2 C 0.7064(4) 0.1737(4) 0.69421(19)
H18_2 H 0.7085 0.2385 0.7212
C32_2 C 0.6929(4) 0.0503(4) 0.7092(2)
H19_2 H 0.6844 0.0334 0.7461
C35_2 C 0.7174(4) 0.1036(4) 0.6008(2)
H21_2 H 0.7255 0.1207 0.5639
C37_2 C 0.6918(2) 0.3725(3) 0.54097(14)
C38_2 C 0.7550(3) 0.3810(5) 0.50884(18)
H22_2 H 0.8207 0.3834 0.5284
C39_2 C 0.7215(3) 0.3862(5) 0.44707(17)
H23_2 H 0.7650 0.3922 0.4255
C40_2 C 0.6256(3) 0.3826(4) 0.41769(15)
C41_2 C 0.5614(3) 0.3747(5) 0.44964(18)
H24_2 H 0.4958 0.3723 0.4300
C42_2 C 0.5951(3) 0.3704(5) 0.51145(17)
H25_2 H 0.5516 0.3660 0.5331
C43_2 C 0.5907(3) 0.3862(4) 0.35113(15)
O21 O 0.67295(18) 0.4489(2) 0.64697(11)
P2_2 P 0.73056(7) 0.36233(9) 0.62085(4)
C4_2 C 0.9515(3) 0.4705(4) 0.81313(16)
C5_2 C 0.9767(3) 0.3434(4) 0.8198(2)
H3_2 H 0.9294 0.2813 0.8106
C7_2 C 0.8474(3) 0.5070(4) 0.78716(16)
C22_2 C 0.5000 0.3439(8) 0.7500
H13_2 H 0.5000 0.2559 0.7500
O1_2 O 0.8255(2) 0.6189(3) 0.77173(13)
O2_2 O 0.78345(19) 0.4227(3) 0.78052(13)
O8_2 O 0.5707(2) 0.3861(3) 0.73966(17)
C33_2 C 0.6917(3) 0.9523(4) 0.67087(17)
C34_2 C 0.7058(4) 0.9794(4) 0.6168(2)
H20_2 H 0.7075 0.9139 0.5907
C36_2 C 0.6779(3) 0.8183(4) 0.68738(18)
O11_2 O 0.6572(2) 0.8006(3) 0.73548(12)
O13_2 O 0.6853(2) 0.7275(3) 0.65488(13)
loop_
_geom_bond_atom_site_label_1
_geom_bond_atom_site_label_2
_geom_bond_site_symmetry_1
_geom_bond_site_symmetry_2
Eu1 O1 1_555 1_555
C5 C4 1_555 1_555
H3 C5 1_555 1_555
C7 C4 1_555 1_555
C22 H13 1_555 1_555
O1 C7 1_555 1_555
O2 Eu1 1_555 1_555
O8 Eu1 1_555 1_555
Eu7 O24 1_555 1_555
C34 C33 1_555 1_555
H20 C34 1_555 1_555
C36 C33 1_555 1_555
O11 Eu1 1_555 1_555
O13 Eu1 1_555 1_555
O16 Eu1 1_555 1_555
O19 Eu1 1_555 1_555
O22 Eu1 1_555 1_555
O24 C22 1_555 1_555
C7 O2 1_555 1_555
C22 O8 1_555 1_555
C36 O11 1_555 1_555
C36 O13 1_555 1_555
Eu8 O15 1_555 1_555
Eu9 O18 1_555 1_555
C23 C24 1_555 1_555
C24 H14 1_555 1_555
C25 C24 1_555 1_555
H15 C25 1_555 1_555
C28 C23 1_555 1_555
H17 C28 1_555 1_555
C30 C31 1_555 1_555
C31 H18 1_555 1_555
C32 C31 1_555 1_555
H19 C32 1_555 1_555
C35 C30 1_555 1_555
H21 C35 1_555 1_555
C37 C38 1_555 1_555
C38 H22 1_555 1_555
C39 C38 1_555 1_555
H23 C39 1_555 1_555
C40 C39 1_555 1_555
C41 C40 1_555 1_555
H24 C41 1_555 1_555
C42 C37 1_555 1_555
H25 C42 1_555 1_555
C43 C40 1_555 1_555
O15 C43 1_555 1_555
O18 C43 1_555 1_555
O22 P2 1_555 1_555
P2 C23 1_555 1_555
C30 P2 1_555 1_555
C37 P2 1_555 1_555
C41 C42 1_555 1_555
C12 C11 1_555 1_555
H7 C12 1_555 1_555
C14 C11 1_555 1_555
O3 C14 1_555 1_555
O4 C14 1_555 1_555
Eu7 O3 1_555 1_555
O4 Eu7 1_555 1_555
C1 C2 1_555 1_555
C2 H1 1_555 1_555
C3 C2 1_555 1_555
H2 C3 1_555 1_555
C6 C1 1_555 1_555
H4 C6 1_555 1_555
C8 C9 1_555 1_555
C9 H5 1_555 1_555
C10 C9 1_555 1_555
H6 C10 1_555 1_555
C13 C8 1_555 1_555
H8 C13 1_555 1_555
C15 C16 1_555 1_555
C16 H9 1_555 1_555
C20 C15 1_555 1_555
H12 C20 1_555 1_555
O7 P1 1_555 1_555
P1 C1 1_555 1_555
Eu7 O7 1_555 1_555
C8 P1 1_555 1_555
C15 P1 1_555 1_555
H10 C17 1_555 1_555
C18 C17 1_555 1_555
C19 C18 1_555 1_555
H11 C19 1_555 1_555
C21 C18 1_555 1_555
O5 C21 1_555 1_555
O6 C21 1_555 1_555
Eu9 O5 1_555 1_555
Eu8 O6 1_555 1_555
Eu7 O9 1_555 1_555
C27 C26 1_555 1_555
H16 C27 1_555 1_555
C29 C26 1_555 1_555
O9 C29 1_555 1_555
O10 Eu7 1_555 1_555
O17 Eu7 1_555 1_555
O20 Eu7 1_555 1_555
C29 O10 1_555 1_555
Eu9 O9_2 1_555 1_555
C27_2 C26_2 1_555 1_555
H16_2 C27_2 1_555 1_555
C29_2 C26_2 1_555 1_555
O9_2 C29_2 1_555 1_555
O10_2 Eu9 1_555 1_555
O12 Eu9 1_555 1_555
O14 Eu9 1_555 1_555
O23 Eu9 1_555 1_555
O25 Eu9 1_555 1_555
C29_2 O10_2 1_555 1_555
H10_2 C17_2 1_555 1_555
C18_2 C17_2 1_555 1_555
C19_2 C18_2 1_555 1_555
H11_2 C19_2 1_555 1_555
C21_2 C18_2 1_555 1_555
O17 C21_2 1_555 1_555
O19 C21_2 1_555 1_555
C1_2 C2_2 1_555 1_555
C2_2 H1_2 1_555 1_555
C3_2 C2_2 1_555 1_555
H2_2 C3_2 1_555 1_555
C6_2 C1_2 1_555 1_555
H4_2 C6_2 1_555 1_555
C8_2 C9_2 1_555 1_555
C9_2 H5_2 1_555 1_555
C10_2 C9_2 1_555 1_555
H6_2 C10_2 1_555 1_555
C13_2 C8_2 1_555 1_555
H8_2 C13_2 1_555 1_555
C15_2 C16_2 1_555 1_555
C16_2 H9_2 1_555 1_555
C20_2 C15_2 1_555 1_555
H12_2 C20_2 1_555 1_555
O23 P1_2 1_555 1_555
P1_2 C1_2 1_555 1_555
C8_2 P1_2 1_555 1_555
C15_2 P1_2 1_555 1_555
C12_2 C11_2 1_555 1_555
H7_2 C12_2 1_555 1_555
C14_2 C11_2 1_555 1_555
O12 C14_2 1_555 1_555
O14 C14_2 1_555 1_555
Eu8 O21 1_555 1_555
C23_2 C24_2 1_555 1_555
C24_2 H14_2 1_555 1_555
C25_2 C24_2 1_555 1_555
H15_2 C25_2 1_555 1_555
C28_2 C23_2 1_555 1_555
H17_2 C28_2 1_555 1_555
C30_2 C31_2 1_555 1_555
C31_2 H18_2 1_555 1_555
C32_2 C31_2 1_555 1_555
H19_2 C32_2 1_555 1_555
C35_2 C30_2 1_555 1_555
H21_2 C35_2 1_555 1_555
C37_2 C38_2 1_555 1_555
C38_2 H22_2 1_555 1_555
C39_2 C38_2 1_555 1_555
H23_2 C39_2 1_555 1_555
C40_2 C39_2 1_555 1_555
C41_2 C40_2 1_555 1_555
H24_2 C41_2 1_555 1_555
C42_2 C37_2 1_555 1_555
H25_2 C42_2 1_555 1_555
C43_2 C40_2 1_555 1_555
O16 C43_2 1_555 1_555
O20 C43_2 1_555 1_555
O21 P2_2 1_555 1_555
P2_2 C23_2 1_555 1_555
C30_2 P2_2 1_555 1_555
C37_2 P2_2 1_555 1_555
C41_2 C42_2 1_555 1_555
Eu8 O1_2 1_555 1_555
C5_2 C4_2 1_555 1_555
H3_2 C5_2 1_555 1_555
C7_2 C4_2 1_555 1_555
C22_2 H13_2 1_555 1_555
O1_2 C7_2 1_555 1_555
O2_2 Eu8 1_555 1_555
O8_2 Eu8 1_555 1_555
C34_2 C33_2 1_555 1_555
H20_2 C34_2 1_555 1_555
C36_2 C33_2 1_555 1_555
O11_2 Eu8 1_555 1_555
O13_2 Eu8 1_555 1_555
O25 C22_2 1_555 1_555
C7_2 O2_2 1_555 1_555
C22_2 O8_2 1_555 1_555
C36_2 O11_2 1_555 1_555
C36_2 O13_2 1_555 1_555

#END
