
###############################################################################
#
# This file contains modified crystal structure data generated from the
# MOF subset of the Cambridge Structural Database (CSD) v543 
# hosted by the Cambridge Crystallographic Data Centre (CCDC).
#
# This work is licensed under the Creative Commons
# Attribution-NonCommercial-ShareAlike 4.0 International License.
# To view a copy of this license, visit
# http://creativecommons.org/licenses/by-nc-sa/4.0/
# or send a letter to
# Creative Commons, PO Box 1866, Mountain View, CA 94042, USA.
#
# CIF created using the CSD Python API on 29 September 2022
# The structure has been converted into the P1 space group
# The structure has a 3D framework
# The original CSD entry DARDAD is in the monoclinic crystal system
# The framework has been calculated to contain at least 10.0% void space
# The void calculation uses a probe of radius 1.32A, grid spacing 0.4
# The framework is charged, counterions have been retained in the structure
#
###############################################################################

data_DARDAD
_chemical_formula_moiety         '(C88 H52 O28 P4 2-)n'
_symmetry_cell_setting           triclinic
_symmetry_space_group_name_H-M   'P 1'
_symmetry_Int_Tables_number      1
_space_group_name_Hall           'P 1'
loop_
_symmetry_equiv_pos_site_id
_symmetry_equiv_pos_as_xyz
1 x,y,z
_cell_length_a                   14.4262(11)
_cell_length_b                   10.4932(5)
_cell_length_c                   23.2269(18)
_cell_angle_alpha                90
_cell_angle_beta                 107.052(4)
_cell_angle_gamma                90
_cell_volume                     3361.45
loop_
_atom_site_label
_atom_site_type_symbol
_atom_site_fract_x
_atom_site_fract_y
_atom_site_fract_z
Lu2 Lu 0.153365(11) 0.066027(16) 0.227224(7)
Lu8 Lu 0.846635(11) 0.066027(16) 0.272776(7)
C23 C 0.4820(4) 0.0602(4) 0.1723(3)
H14 H 0.4995 0.1458 0.1761
O11 O 0.1553(2) 0.2923(3) 0.23701(15)
O15 O 0.6801(2) 0.1160(4) 0.22931(16)
O17 O 0.3199(2) 0.1160(4) 0.27069(16)
O20 O 0.0048(2) 0.1207(4) 0.17480(15)
O22 O 0.1891(3) 0.2200(3) 0.15676(16)
O25 O 0.1455(2) 0.0987(3) 0.32123(14)
C25 C 0.6577(3) 0.0041(5) 0.2122(2)
C36 C 0.3861(3) 0.0283(4) 0.1526(2)
H19 H 0.3392 0.0920 0.1436
P2 P 0.23118(7) 0.86155(10) 0.12253(5)
O9 O 0.1737(2) 0.9486(3) 0.15047(14)
O12 O 0.7219(2) 0.9206(3) 0.21973(17)
O14 O 0.2781(2) 0.9206(3) 0.28027(17)
C24 C 0.2176(3) 0.6980(4) 0.14105(19)
O27 O 0.0689(2) 0.8884(3) 0.23742(18)
C26 C 0.3580(3) 0.8991(4) 0.14596(19)
C27 C 0.1905(3) 0.8717(4) 0.04190(19)
C28 C 0.1936(4) 0.4464(4) 0.1722(2)
C29 C 0.1786(3) 0.3104(4) 0.1890(2)
C30 C 0.5535(3) 0.9682(5) 0.1867(2)
C32 C 0.5266(3) 0.8417(5) 0.1788(2)
H15 H 0.5741 0.7788 0.1869
C33 C 0.2018(4) 0.6681(5) 0.1957(2)
H16 H 0.1988 0.7332 0.2223
C34 C 0.1909(5) 0.5459(5) 0.2108(3)
H17 H 0.1814 0.5282 0.2479
C35 C 0.4300(3) 0.8073(5) 0.1592(2)
H18 H 0.4131 0.7215 0.1547
C38 C 0.2111(5) 0.4737(5) 0.1184(3)
H21 H 0.2148 0.4077 0.0925
C39 C 0.2542(3) 0.8812(6) 0.0079(2)
H22 H 0.3207 0.8833 0.0265
C40 C 0.2233(5) 0.5991(5) 0.1024(3)
H23 H 0.2353 0.6166 0.0659
C42 C 0.0918(3) 0.8711(6) 0.0128(2)
H25 H 0.0481 0.8672 0.0352
Lu10 Lu 0.153365(11) 0.933973(16) 0.727224(7)
O23 O 0.1455(2) 0.9013(3) 0.82123(14)
C31 C 0.0847(3) 0.8889(4) 0.84926(18)
C37 C 0.2185(4) 0.8877(7) 0.9459(2)
H20 H 0.2619 0.8938 0.9233
C41 C 0.0578(3) 0.8763(6) 0.9507(2)
C43 C 0.1212(3) 0.8852(4) 0.91686(18)
C22 C -0.0000 0.8445(8) 0.2500
H13 H -0.0000 0.7558 0.2500
Lu9 Lu 0.846635(11) 0.933973(16) 0.772776(7)
O18 O 0.9952(2) 0.8793(4) 0.82520(15)
H24 H 0.9914 0.8737 0.9317
C22_2 C 1.0000 0.8445(8) 0.2500
H13_2 H 1.0000 0.7558 0.2500
O26 O 0.9311(2) 0.8884(3) 0.26258(18)
O18_2 O 0.0048(2) 0.8793(4) 0.67480(15)
H24_2 H 0.0086 0.8737 0.5683
C23_2 C 0.5180(4) 0.0602(4) 0.3277(3)
H14_2 H 0.5005 0.1458 0.3239
O11_2 O 0.8447(2) 0.2923(3) 0.26299(15)
O20_2 O 0.9952(2) 0.1207(4) 0.32520(15)
O22_2 O 0.8109(3) 0.2200(3) 0.34324(16)
O25_2 O 0.8545(2) 0.0987(3) 0.17877(14)
C25_2 C 0.3423(3) 0.0041(5) 0.2878(2)
C36_2 C 0.6139(3) 0.0283(4) 0.3474(2)
H19_2 H 0.6608 0.0920 0.3564
P2_2 P 0.76882(7) 0.86155(10) 0.37747(5)
O9_2 O 0.8263(2) 0.9486(3) 0.34953(14)
O23_2 O 0.8545(2) 0.9013(3) 0.67877(14)
C24_2 C 0.7824(3) 0.6980(4) 0.35895(19)
C26_2 C 0.6420(3) 0.8991(4) 0.35404(19)
C27_2 C 0.8095(3) 0.8717(4) 0.45810(19)
C28_2 C 0.8064(4) 0.4464(4) 0.3278(2)
C29_2 C 0.8214(3) 0.3104(4) 0.3110(2)
C30_2 C 0.4465(3) 0.9682(5) 0.3133(2)
C31_2 C 0.9153(3) 0.8889(4) 0.65074(18)
C32_2 C 0.4734(3) 0.8417(5) 0.3212(2)
H15_2 H 0.4259 0.7788 0.3131
C33_2 C 0.7982(4) 0.6681(5) 0.3043(2)
H16_2 H 0.8012 0.7332 0.2777
C34_2 C 0.8091(5) 0.5459(5) 0.2892(3)
H17_2 H 0.8186 0.5282 0.2521
C35_2 C 0.5700(3) 0.8073(5) 0.3408(2)
H18_2 H 0.5869 0.7215 0.3453
C37_2 C 0.7815(4) 0.8877(7) 0.5541(2)
H20_2 H 0.7381 0.8938 0.5767
C38_2 C 0.7889(5) 0.4737(5) 0.3816(3)
H21_2 H 0.7852 0.4077 0.4075
C39_2 C 0.7458(3) 0.8812(6) 0.4921(2)
H22_2 H 0.6793 0.8833 0.4735
C40_2 C 0.7767(5) 0.5991(5) 0.3976(3)
H23_2 H 0.7647 0.6166 0.4341
C41_2 C 0.9422(3) 0.8763(6) 0.5493(2)
C42_2 C 0.9082(3) 0.8711(6) 0.4872(2)
H25_2 H 0.9519 0.8672 0.4648
C43_2 C 0.8788(3) 0.8852(4) 0.58314(18)
H11 H 0.0086 0.1263 0.0683
C22_3 C 0.0000 0.1555(8) 0.7500
H13_3 H 0.0000 0.2442 0.7500
O26_2 O 0.0689(2) 0.1116(3) 0.73742(18)
C9 C 0.9153(3) 0.1111(4) 0.15074(18)
C15 C 0.7815(4) 0.1123(7) 0.0541(2)
H7 H 0.7381 0.1062 0.0767
C19 C 0.9422(3) 0.1237(6) 0.0493(2)
C21 C 0.8788(3) 0.1148(4) 0.08314(18)
P1 P 0.76882(7) 0.13845(10) 0.87747(5)
O1 O 0.8263(2) 0.0514(3) 0.84953(14)
O2 O 0.8447(2) 0.7077(3) 0.76299(15)
O3 O 0.2781(2) 0.0794(3) 0.78027(17)
O6 O 0.8109(3) 0.7800(3) 0.84324(16)
C2 C 0.7824(3) 0.3020(4) 0.85895(19)
O8 O 0.9311(2) 0.1116(3) 0.76258(18)
C4 C 0.6420(3) 0.1009(4) 0.85404(19)
C5 C 0.8095(3) 0.1283(4) 0.95810(19)
C6 C 0.8064(4) 0.5536(4) 0.8278(2)
C7 C 0.8214(3) 0.6896(4) 0.8110(2)
C8 C 0.4465(3) 0.0318(5) 0.8133(2)
C10 C 0.4734(3) 0.1583(5) 0.8212(2)
H2 H 0.4259 0.2212 0.8131
C11 C 0.7982(4) 0.3319(5) 0.8043(2)
H3 H 0.8012 0.2668 0.7777
C12 C 0.8091(5) 0.4541(5) 0.7892(3)
H4 H 0.8186 0.4718 0.7521
C13 C 0.5700(3) 0.1927(5) 0.8408(2)
H5 H 0.5869 0.2785 0.8453
C16 C 0.7889(5) 0.5263(5) 0.8816(3)
H8 H 0.7852 0.5923 0.9075
C17 C 0.7458(3) 0.1188(6) 0.9921(2)
H9 H 0.6793 0.1167 0.9735
C18 C 0.7767(5) 0.4009(5) 0.8976(3)
H10 H 0.7647 0.3834 0.9341
C20 C 0.9082(3) 0.1289(6) 0.9872(2)
H12 H 0.9519 0.1328 0.9648
C22_4 C 1.0000 0.1555(8) 0.7500
H13_4 H 1.0000 0.2442 0.7500
O13 O 0.7219(2) 0.0794(3) 0.71973(17)
C1 C 0.5180(4) 0.9398(4) 0.8277(3)
H1 H 0.5005 0.8542 0.8239
O4 O 0.3199(2) 0.8840(4) 0.77069(16)
C3 C 0.3423(3) 0.9959(5) 0.7878(2)
C14 C 0.6139(3) 0.9717(4) 0.8474(2)
H6 H 0.6608 0.9080 0.8564
O16 O 0.6801(2) 0.8840(4) 0.72931(16)
P1_2 P 0.23118(7) 0.13845(10) 0.62253(5)
O1_2 O 0.1737(2) 0.0514(3) 0.65047(14)
O2_2 O 0.1553(2) 0.7077(3) 0.73701(15)
O6_2 O 0.1891(3) 0.7800(3) 0.65676(16)
C2_2 C 0.2176(3) 0.3020(4) 0.64105(19)
C4_2 C 0.3580(3) 0.1009(4) 0.64596(19)
C5_2 C 0.1905(3) 0.1283(4) 0.54190(19)
C6_2 C 0.1936(4) 0.5536(4) 0.6722(2)
C7_2 C 0.1786(3) 0.6896(4) 0.6890(2)
C8_2 C 0.5535(3) 0.0318(5) 0.6867(2)
C9_2 C 0.0847(3) 0.1111(4) 0.34926(18)
C10_2 C 0.5266(3) 0.1583(5) 0.6788(2)
H2_2 H 0.5741 0.2212 0.6869
C11_2 C 0.2018(4) 0.3319(5) 0.6957(2)
H3_2 H 0.1988 0.2668 0.7223
C12_2 C 0.1909(5) 0.4541(5) 0.7108(3)
H4_2 H 0.1814 0.4718 0.7479
C13_2 C 0.4300(3) 0.1927(5) 0.6592(2)
H5_2 H 0.4131 0.2785 0.6547
C15_2 C 0.2185(4) 0.1123(7) 0.4459(2)
H7_2 H 0.2619 0.1062 0.4233
C16_2 C 0.2111(5) 0.5263(5) 0.6184(3)
H8_2 H 0.2148 0.5923 0.5925
C17_2 C 0.2542(3) 0.1188(6) 0.5079(2)
H9_2 H 0.3207 0.1167 0.5265
C18_2 C 0.2233(5) 0.4009(5) 0.6024(3)
H10_2 H 0.2353 0.3834 0.5659
C19_2 C 0.0578(3) 0.1237(6) 0.4507(2)
C20_2 C 0.0918(3) 0.1289(6) 0.5128(2)
H12_2 H 0.0481 0.1328 0.5352
C21_2 C 0.1212(3) 0.1148(4) 0.41686(18)
C1_2 C 0.4820(4) 0.9398(4) 0.6723(3)
H1_2 H 0.4995 0.8542 0.6761
C3_2 C 0.6577(3) 0.9959(5) 0.7122(2)
C14_2 C 0.3861(3) 0.9717(4) 0.6526(2)
H6_2 H 0.3392 0.9080 0.6436
H11_2 H 0.9914 0.1263 0.4317
loop_
_geom_bond_atom_site_label_1
_geom_bond_atom_site_label_2
_geom_bond_site_symmetry_1
_geom_bond_site_symmetry_2
C23 H14 1_555 1_555
O11 Lu2 1_555 1_555
O15 Lu8 1_555 1_555
O17 Lu2 1_555 1_555
O20 Lu2 1_555 1_555
O22 Lu2 1_555 1_555
O25 Lu2 1_555 1_555
C25 O15 1_555 1_555
C36 C23 1_555 1_555
H19 C36 1_555 1_555
P2 O9 1_555 1_555
C24 P2 1_555 1_555
C26 P2 1_555 1_555
C27 P2 1_555 1_555
C28 C29 1_555 1_555
C29 O11 1_555 1_555
C32 C30 1_555 1_555
H15 C32 1_555 1_555
C33 C24 1_555 1_555
H16 C33 1_555 1_555
C34 C28 1_555 1_555
H17 C34 1_555 1_555
C35 C26 1_555 1_555
H18 C35 1_555 1_555
C38 C28 1_555 1_555
H21 C38 1_555 1_555
C39 C27 1_555 1_555
H22 C39 1_555 1_555
C40 C24 1_555 1_555
H23 C40 1_555 1_555
C42 C27 1_555 1_555
H25 C42 1_555 1_555
O22 C29 1_555 1_555
C32 C35 1_555 1_555
C33 C34 1_555 1_555
C38 C40 1_555 1_555
Lu10 O23 1_555 1_555
O23 C31 1_555 1_555
C31 C43 1_555 1_555
C37 H20 1_555 1_555
C43 C37 1_555 1_555
C41 C43 1_555 1_555
C22 O27 1_555 1_555
H13 C22 1_555 1_555
Lu9 O18 1_555 1_555
H13_2 C22_2 1_555 1_555
O26 C22_2 1_555 1_555
Lu10 O18_2 1_555 1_555
C23_2 H14_2 1_555 1_555
O11_2 Lu8 1_555 1_555
O20_2 Lu8 1_555 1_555
O22_2 Lu8 1_555 1_555
O25_2 Lu8 1_555 1_555
C25_2 O17 1_555 1_555
C36_2 C23_2 1_555 1_555
H19_2 C36_2 1_555 1_555
Lu9 O23_2 1_555 1_555
P2_2 O9_2 1_555 1_555
O23_2 C31_2 1_555 1_555
C24_2 P2_2 1_555 1_555
C26_2 P2_2 1_555 1_555
C27_2 P2_2 1_555 1_555
C28_2 C29_2 1_555 1_555
C29_2 O11_2 1_555 1_555
C31_2 C43_2 1_555 1_555
C32_2 C30_2 1_555 1_555
H15_2 C32_2 1_555 1_555
C33_2 C24_2 1_555 1_555
H16_2 C33_2 1_555 1_555
C34_2 C28_2 1_555 1_555
H17_2 C34_2 1_555 1_555
C35_2 C26_2 1_555 1_555
H18_2 C35_2 1_555 1_555
C37_2 H20_2 1_555 1_555
C38_2 C28_2 1_555 1_555
H21_2 C38_2 1_555 1_555
C39_2 C27_2 1_555 1_555
H22_2 C39_2 1_555 1_555
C40_2 C24_2 1_555 1_555
H23_2 C40_2 1_555 1_555
C42_2 C27_2 1_555 1_555
H25_2 C42_2 1_555 1_555
C43_2 C37_2 1_555 1_555
O22_2 C29_2 1_555 1_555
C32_2 C35_2 1_555 1_555
C33_2 C34_2 1_555 1_555
C37_2 C39_2 1_555 1_555
C38_2 C40_2 1_555 1_555
C41_2 C42_2 1_555 1_555
C41_2 C43_2 1_555 1_555
H13_3 C22_3 1_555 1_555
O26_2 C22_3 1_555 1_555
O25_2 C9 1_555 1_555
C9 C21 1_555 1_555
C15 H7 1_555 1_555
C21 C15 1_555 1_555
C19 C21 1_555 1_555
P1 O1 1_555 1_555
O2 C7 1_555 1_555
O6 C7 1_555 1_555
C2 P1 1_555 1_555
C4 P1 1_555 1_555
C5 P1 1_555 1_555
C6 C7 1_555 1_555
C10 C8 1_555 1_555
H2 C10 1_555 1_555
C11 C2 1_555 1_555
H3 C11 1_555 1_555
C12 C6 1_555 1_555
H4 C12 1_555 1_555
C13 C4 1_555 1_555
H5 C13 1_555 1_555
C16 C6 1_555 1_555
H8 C16 1_555 1_555
C17 C5 1_555 1_555
H9 C17 1_555 1_555
C18 C2 1_555 1_555
H10 C18 1_555 1_555
C20 C5 1_555 1_555
H12 C20 1_555 1_555
C22_4 O8 1_555 1_555
H13_4 C22_4 1_555 1_555
Lu9 O2 1_555 1_555
O6 Lu9 1_555 1_555
C10 C13 1_555 1_555
C11 C12 1_555 1_555
C16 C18 1_555 1_555
C1 H1 1_555 1_555
O4 C3 1_555 1_555
C14 C1 1_555 1_555
H6 C14 1_555 1_555
O16 Lu9 1_555 1_555
O4 Lu10 1_555 1_555
P1_2 O1_2 1_555 1_555
O2_2 C7_2 1_555 1_555
O6_2 C7_2 1_555 1_555
O25 C9_2 1_555 1_555
C2_2 P1_2 1_555 1_555
C4_2 P1_2 1_555 1_555
C5_2 P1_2 1_555 1_555
C6_2 C7_2 1_555 1_555
C9_2 C21_2 1_555 1_555
C10_2 C8_2 1_555 1_555
H2_2 C10_2 1_555 1_555
C11_2 C2_2 1_555 1_555
H3_2 C11_2 1_555 1_555
C12_2 C6_2 1_555 1_555
H4_2 C12_2 1_555 1_555
C13_2 C4_2 1_555 1_555
H5_2 C13_2 1_555 1_555
C15_2 H7_2 1_555 1_555
C16_2 C6_2 1_555 1_555
H8_2 C16_2 1_555 1_555
C17_2 C5_2 1_555 1_555
H9_2 C17_2 1_555 1_555
C18_2 C2_2 1_555 1_555
H10_2 C18_2 1_555 1_555
C20_2 C5_2 1_555 1_555
H12_2 C20_2 1_555 1_555
C21_2 C15_2 1_555 1_555
Lu10 O2_2 1_555 1_555
O6_2 Lu10 1_555 1_555
C10_2 C13_2 1_555 1_555
C11_2 C12_2 1_555 1_555
C15_2 C17_2 1_555 1_555
C16_2 C18_2 1_555 1_555
C19_2 C20_2 1_555 1_555
C19_2 C21_2 1_555 1_555
C1_2 H1_2 1_555 1_555
O16 C3_2 1_555 1_555
C14_2 C1_2 1_555 1_555
H6_2 C14_2 1_555 1_555

#END
