
###############################################################################
#
# This file contains modified crystal structure data generated from the
# MOF subset of the Cambridge Structural Database (CSD) v543 
# hosted by the Cambridge Crystallographic Data Centre (CCDC).
#
# This work is licensed under the Creative Commons
# Attribution-NonCommercial-ShareAlike 4.0 International License.
# To view a copy of this license, visit
# http://creativecommons.org/licenses/by-nc-sa/4.0/
# or send a letter to
# Creative Commons, PO Box 1866, Mountain View, CA 94042, USA.
#
# CIF created using the CSD Python API on 29 September 2022
# The structure has been converted into the P1 space group
# The structure has a 3D framework
# The original CSD entry DARFOT is in the monoclinic crystal system
# The framework has been calculated to contain at least 10.0% void space
# The void calculation uses a probe of radius 1.32A, grid spacing 0.4
# The framework is charged, counterions have been retained in the structure
#
###############################################################################

data_DARFOT
_chemical_formula_moiety         '(C88 H52 O32 P4 Tm4 2-)n'
_symmetry_cell_setting           triclinic
_symmetry_space_group_name_H-M   'P 1'
_symmetry_Int_Tables_number      1
_space_group_name_Hall           'P 1'
loop_
_symmetry_equiv_pos_site_id
_symmetry_equiv_pos_as_xyz
1 x,y,z
_cell_length_a                   14.4014(11)
_cell_length_b                   10.4577(5)
_cell_length_c                   23.3524(18)
_cell_angle_alpha                90
_cell_angle_beta                 107.371(4)
_cell_angle_gamma                90
_cell_volume                     3356.6
loop_
_atom_site_label
_atom_site_type_symbol
_atom_site_fract_x
_atom_site_fract_y
_atom_site_fract_z
Tm1 Tm 0.15190(2) 0.06939(3) 0.227156(12)
C1 C 0.1902(5) 0.1250(7) 0.5425(3)
C2 C 0.2550(5) 0.1140(9) 0.5090(3)
H1 H 0.3214 0.1101 0.5285
C3 C 0.2222(6) 0.1089(10) 0.4476(3)
H2 H 0.2666 0.1007 0.4259
C4 C 0.1243(5) 0.1158(6) 0.4176(3)
C5 C 0.0579(5) 0.1266(9) 0.4495(3)
C6 C 0.0904(5) 0.1278(8) 0.5114(3)
H4 H 0.0454 0.1305 0.5329
C7 C 0.0901(5) 0.1116(6) 0.3500(3)
C8 C 0.2151(5) 0.2987(6) 0.6411(3)
C9 C 0.2193(7) 0.3974(7) 0.6018(3)
H5 H 0.2311 0.3796 0.5656
C10 C 0.2056(7) 0.5227(7) 0.6174(3)
H6 H 0.2068 0.5885 0.5909
C11 C 0.1903(5) 0.5512(7) 0.6715(3)
C12 C 0.1877(6) 0.4500(7) 0.7115(3)
H7 H 0.1769 0.4671 0.7481
C13 C 0.2014(6) 0.3265(7) 0.6955(3)
H8 H 0.2015 0.2603 0.7222
C14 C 0.1742(5) 0.6867(6) 0.6896(3)
C15 C 0.3552(5) 0.0956(7) 0.6470(3)
C18 C 0.5506(5) 0.0260(7) 0.6875(3)
C19 C 0.5251(5) 0.1549(7) 0.6817(3)
H11 H 0.5729 0.2178 0.6919
C20 C 0.4272(5) 0.1881(6) 0.6605(3)
H12 H 0.4099 0.2740 0.6554
O1 O 0.1534(4) 0.1027(5) 0.3238(2)
O3 O 0.1852(4) 0.7777(4) 0.6564(2)
O4 O 0.1527(4) 0.7032(5) 0.7378(2)
O6 O 0.7199(4) 0.0758(5) 0.7204(2)
O7 O 0.1680(4) 0.0491(4) 0.6488(2)
P1 P 0.22846(12) 0.13362(16) 0.62249(7)
Tm3 Tm 0.15190(2) 0.93061(3) 0.727156(12)
H16 H 0.0083 0.1330 0.0706
O10 O 0.0005(3) 0.1233(5) 0.1756(2)
O12 O 0.1852(4) 0.2223(4) 0.1564(2)
O15 O 0.1527(4) 0.2968(5) 0.2378(2)
O18 O 0.3209(4) 0.1228(5) 0.2697(2)
C16 C 0.3814(5) 0.9654(7) 0.6522(3)
H9 H 0.3339 0.9023 0.6413
C17 C 0.4828(6) 0.9311(6) 0.6746(4)
H10 H 0.5015 0.8458 0.6801
C21 C 0.6564(4) 0.9908(7) 0.7121(3)
C22 C -0.0000 0.8438(13) 0.2500
H13 H -0.0000 0.7548 0.2500
O5 O 0.6791(4) 0.8772(5) 0.7303(2)
O8 O 0.0716(4) 0.8906(5) 0.2411(3)
Tm4 Tm 0.84810(2) 0.93061(3) 0.772844(12)
O21 O 0.2801(4) 0.9242(5) 0.2796(2)
O24 O 0.1680(4) 0.9509(4) 0.1488(2)
H3 H 0.9917 0.1330 0.4294
O2 O 0.9995(3) 0.1233(5) 0.3244(2)
Tm2 Tm 0.84810(2) 0.06939(3) 0.272844(12)
C25 C 0.7778(6) 0.1089(10) 0.0524(3)
H15 H 0.7334 0.1007 0.0741
C26 C 0.8757(5) 0.1158(6) 0.0824(3)
C27 C 0.9421(5) 0.1266(9) 0.0505(3)
C29 C 0.9099(5) 0.1116(6) 0.1500(3)
O9 O 0.8466(4) 0.1027(5) 0.1762(2)
O13 O 0.8148(4) 0.2223(4) 0.3436(2)
O16 O 0.8473(4) 0.2968(5) 0.2622(2)
O19 O 0.6791(4) 0.1228(5) 0.2303(2)
C23 C 0.8098(5) 0.1250(7) 0.9575(3)
C24 C 0.7450(5) 0.1140(9) 0.9910(3)
H14 H 0.6786 0.1101 0.9715
C28 C 0.9096(5) 0.1278(8) 0.9886(3)
H17 H 0.9546 0.1305 0.9671
C30 C 0.7849(5) 0.2987(6) 0.8589(3)
C31 C 0.7807(7) 0.3974(7) 0.8982(3)
H18 H 0.7689 0.3796 0.9344
C32 C 0.7944(7) 0.5227(7) 0.8826(3)
H19 H 0.7932 0.5885 0.9091
C33 C 0.8097(5) 0.5512(7) 0.8285(3)
C34 C 0.8123(6) 0.4500(7) 0.7885(3)
H20 H 0.8231 0.4671 0.7519
C35 C 0.7986(6) 0.3265(7) 0.8045(3)
H21 H 0.7985 0.2603 0.7778
C36 C 0.8258(5) 0.6867(6) 0.8104(3)
C37 C 0.6448(5) 0.0956(7) 0.8530(3)
C40 C 0.4494(5) 0.0260(7) 0.8125(3)
C41 C 0.4749(5) 0.1549(7) 0.8183(3)
H24 H 0.4271 0.2178 0.8081
C42 C 0.5728(5) 0.1881(6) 0.8395(3)
H25 H 0.5901 0.2740 0.8446
O11 O 0.8148(4) 0.7777(4) 0.8436(2)
O14 O 0.8473(4) 0.7032(5) 0.7622(2)
O20 O 0.2801(4) 0.0758(5) 0.7796(2)
O23 O 0.8320(4) 0.0491(4) 0.8512(2)
P2 P 0.77154(12) 0.13362(16) 0.87751(7)
C22_2 C 1.0000 0.8438(13) 0.2500
H13_2 H 1.0000 0.7548 0.2500
O22 O 0.7199(4) 0.9242(5) 0.2204(2)
O25 O 0.8320(4) 0.9509(4) 0.3512(2)
O26 O 0.9284(4) 0.8906(5) 0.2589(3)
C38 C 0.6186(5) 0.9654(7) 0.8478(3)
H22 H 0.6661 0.9023 0.8587
C39 C 0.5172(6) 0.9311(6) 0.8254(4)
H23 H 0.4985 0.8458 0.8199
C43 C 0.3436(4) 0.9908(7) 0.7879(3)
O17 O 0.3209(4) 0.8772(5) 0.7697(2)
C38_2 C 0.3814(5) 0.0346(7) 0.1522(3)
H22_2 H 0.3339 0.0977 0.1413
C39_2 C 0.4828(6) 0.0689(6) 0.1746(4)
H23_2 H 0.5015 0.1542 0.1801
C43_2 C 0.6564(4) 0.0092(7) 0.2121(3)
C22_3 C -0.0000 0.1562(13) 0.7500
H13_3 H -0.0000 0.2452 0.7500
O26_2 O 0.0716(4) 0.1094(5) 0.7411(3)
C23_2 C 0.1902(5) 0.8750(7) 0.0425(3)
C24_2 C 0.2550(5) 0.8860(9) 0.0090(3)
H14_2 H 0.3214 0.8899 0.0285
C28_2 C 0.0904(5) 0.8722(8) 0.0114(3)
H17_2 H 0.0454 0.8695 0.0329
C30_2 C 0.2151(5) 0.7013(6) 0.1411(3)
C31_2 C 0.2193(7) 0.6026(7) 0.1018(3)
H18_2 H 0.2311 0.6204 0.0656
C32_2 C 0.2056(7) 0.4773(7) 0.1174(3)
H19_2 H 0.2068 0.4115 0.0909
C33_2 C 0.1903(5) 0.4488(7) 0.1715(3)
C34_2 C 0.1877(6) 0.5500(7) 0.2115(3)
H20_2 H 0.1769 0.5329 0.2481
C35_2 C 0.2014(6) 0.6735(7) 0.1955(3)
H21_2 H 0.2015 0.7397 0.2222
C36_2 C 0.1742(5) 0.3133(6) 0.1896(3)
C37_2 C 0.3552(5) 0.9044(7) 0.1470(3)
C40_2 C 0.5506(5) 0.9740(7) 0.1875(3)
C41_2 C 0.5251(5) 0.8451(7) 0.1817(3)
H24_2 H 0.5729 0.7822 0.1919
C42_2 C 0.4272(5) 0.8119(6) 0.1605(3)
H25_2 H 0.4099 0.7260 0.1554
P2_2 P 0.22846(12) 0.86638(16) 0.12249(7)
H3_2 H 0.0083 0.8670 0.5706
O2_2 O 0.0005(3) 0.8767(5) 0.6756(2)
C25_2 C 0.2222(6) 0.8911(10) 0.9476(3)
H15_2 H 0.2666 0.8993 0.9259
C26_2 C 0.1243(5) 0.8842(6) 0.9176(3)
C27_2 C 0.0579(5) 0.8734(9) 0.9495(3)
C29_2 C 0.0901(5) 0.8884(6) 0.8500(3)
O9_2 O 0.1534(4) 0.8973(5) 0.8238(2)
C16_2 C 0.6186(5) 0.0346(7) 0.3478(3)
H9_2 H 0.6661 0.0977 0.3587
C17_2 C 0.5172(6) 0.0689(6) 0.3254(4)
H10_2 H 0.4985 0.1542 0.3199
C21_2 C 0.3436(4) 0.0092(7) 0.2879(3)
C22_4 C 1.0000 0.1562(13) 0.7500
H13_4 H 1.0000 0.2452 0.7500
O8_2 O 0.9284(4) 0.1094(5) 0.7589(3)
C1_2 C 0.8098(5) 0.8750(7) 0.4575(3)
C2_2 C 0.7450(5) 0.8860(9) 0.4910(3)
H1_2 H 0.6786 0.8899 0.4715
C3_2 C 0.7778(6) 0.8911(10) 0.5524(3)
H2_2 H 0.7334 0.8993 0.5741
C4_2 C 0.8757(5) 0.8842(6) 0.5824(3)
C5_2 C 0.9421(5) 0.8734(9) 0.5505(3)
C6_2 C 0.9096(5) 0.8722(8) 0.4886(3)
H4_2 H 0.9546 0.8695 0.4671
C7_2 C 0.9099(5) 0.8884(6) 0.6500(3)
C8_2 C 0.7849(5) 0.7013(6) 0.3589(3)
C9_2 C 0.7807(7) 0.6026(7) 0.3982(3)
H5_2 H 0.7689 0.6204 0.4344
C10_2 C 0.7944(7) 0.4773(7) 0.3826(3)
H6_2 H 0.7932 0.4115 0.4091
C11_2 C 0.8097(5) 0.4488(7) 0.3285(3)
C12_2 C 0.8123(6) 0.5500(7) 0.2885(3)
H7_2 H 0.8231 0.5329 0.2519
C13_2 C 0.7986(6) 0.6735(7) 0.3045(3)
H8_2 H 0.7985 0.7397 0.2778
C14_2 C 0.8258(5) 0.3133(6) 0.3104(3)
C15_2 C 0.6448(5) 0.9044(7) 0.3530(3)
C18_2 C 0.4494(5) 0.9740(7) 0.3125(3)
C19_2 C 0.4749(5) 0.8451(7) 0.3183(3)
H11_2 H 0.4271 0.7822 0.3081
C20_2 C 0.5728(5) 0.8119(6) 0.3395(3)
H12_2 H 0.5901 0.7260 0.3446
O1_2 O 0.8466(4) 0.8973(5) 0.6762(2)
P1_2 P 0.77154(12) 0.86638(16) 0.37751(7)
H16_2 H 0.9917 0.8670 0.9294
O10_2 O 0.9995(3) 0.8767(5) 0.8244(2)
loop_
_geom_bond_atom_site_label_1
_geom_bond_atom_site_label_2
_geom_bond_site_symmetry_1
_geom_bond_site_symmetry_2
Tm1 O1 1_555 1_555
C1 C2 1_555 1_555
C2 H1 1_555 1_555
C3 C2 1_555 1_555
H2 C3 1_555 1_555
C4 C3 1_555 1_555
C5 C4 1_555 1_555
C6 C1 1_555 1_555
H4 C6 1_555 1_555
C7 C4 1_555 1_555
C8 C9 1_555 1_555
C9 H5 1_555 1_555
C10 C9 1_555 1_555
H6 C10 1_555 1_555
C11 C10 1_555 1_555
C12 C11 1_555 1_555
H7 C12 1_555 1_555
C13 C8 1_555 1_555
H8 C13 1_555 1_555
C14 C11 1_555 1_555
C19 C18 1_555 1_555
H11 C19 1_555 1_555
C20 C15 1_555 1_555
H12 C20 1_555 1_555
O1 C7 1_555 1_555
O3 C14 1_555 1_555
O4 C14 1_555 1_555
O7 P1 1_555 1_555
P1 C1 1_555 1_555
Tm3 O3 1_555 1_555
O10 Tm1 1_555 1_555
O12 Tm1 1_555 1_555
O15 Tm1 1_555 1_555
O18 Tm1 1_555 1_555
C5 C6 1_555 1_555
C8 P1 1_555 1_555
C12 C13 1_555 1_555
C15 P1 1_555 1_555
C19 C20 1_555 1_555
O4 Tm3 1_555 1_555
C16 H9 1_555 1_555
C17 C16 1_555 1_555
H10 C17 1_555 1_555
C22 H13 1_555 1_555
O5 C21 1_555 1_555
Tm4 O5 1_555 1_555
C22 O8 1_555 1_555
Tm2 O2 1_555 1_555
H15 C25 1_555 1_555
C26 C25 1_555 1_555
C27 C26 1_555 1_555
C29 C26 1_555 1_555
O9 Tm2 1_555 1_555
O13 Tm2 1_555 1_555
O16 Tm2 1_555 1_555
O19 Tm2 1_555 1_555
C29 O9 1_555 1_555
Tm4 O11 1_555 1_555
C23 C24 1_555 1_555
C24 H14 1_555 1_555
C28 C23 1_555 1_555
H17 C28 1_555 1_555
C30 C31 1_555 1_555
C31 H18 1_555 1_555
C32 C31 1_555 1_555
H19 C32 1_555 1_555
C33 C32 1_555 1_555
C34 C33 1_555 1_555
H20 C34 1_555 1_555
C35 C30 1_555 1_555
H21 C35 1_555 1_555
C36 C33 1_555 1_555
C41 C40 1_555 1_555
H24 C41 1_555 1_555
C42 C37 1_555 1_555
H25 C42 1_555 1_555
O11 C36 1_555 1_555
O14 Tm4 1_555 1_555
O23 P2 1_555 1_555
P2 C23 1_555 1_555
C30 P2 1_555 1_555
C34 C35 1_555 1_555
C36 O14 1_555 1_555
C37 P2 1_555 1_555
C41 C42 1_555 1_555
C22_2 H13_2 1_555 1_555
O26 C22_2 1_555 1_555
Tm3 O17 1_555 1_555
C38 H22 1_555 1_555
C39 C38 1_555 1_555
H23 C39 1_555 1_555
O17 C43 1_555 1_555
C38_2 H22_2 1_555 1_555
C39_2 C38_2 1_555 1_555
H23_2 C39_2 1_555 1_555
O19 C43_2 1_555 1_555
C22_3 H13_3 1_555 1_555
O26_2 C22_3 1_555 1_555
C23_2 C24_2 1_555 1_555
C24_2 H14_2 1_555 1_555
C28_2 C23_2 1_555 1_555
H17_2 C28_2 1_555 1_555
C30_2 C31_2 1_555 1_555
C31_2 H18_2 1_555 1_555
C32_2 C31_2 1_555 1_555
H19_2 C32_2 1_555 1_555
C33_2 C32_2 1_555 1_555
C34_2 C33_2 1_555 1_555
H20_2 C34_2 1_555 1_555
C35_2 C30_2 1_555 1_555
H21_2 C35_2 1_555 1_555
C36_2 C33_2 1_555 1_555
C41_2 C40_2 1_555 1_555
H24_2 C41_2 1_555 1_555
C42_2 C37_2 1_555 1_555
H25_2 C42_2 1_555 1_555
O12 C36_2 1_555 1_555
O24 P2_2 1_555 1_555
P2_2 C23_2 1_555 1_555
C30_2 P2_2 1_555 1_555
C34_2 C35_2 1_555 1_555
C36_2 O15 1_555 1_555
C37_2 P2_2 1_555 1_555
C41_2 C42_2 1_555 1_555
Tm3 O2_2 1_555 1_555
H15_2 C25_2 1_555 1_555
C26_2 C25_2 1_555 1_555
C27_2 C26_2 1_555 1_555
C29_2 C26_2 1_555 1_555
O9_2 Tm3 1_555 1_555
C29_2 O9_2 1_555 1_555
C16_2 H9_2 1_555 1_555
C17_2 C16_2 1_555 1_555
H10_2 C17_2 1_555 1_555
C22_4 H13_4 1_555 1_555
O18 C21_2 1_555 1_555
C22_4 O8_2 1_555 1_555
Tm4 O1_2 1_555 1_555
C1_2 C2_2 1_555 1_555
C2_2 H1_2 1_555 1_555
C3_2 C2_2 1_555 1_555
H2_2 C3_2 1_555 1_555
C4_2 C3_2 1_555 1_555
C5_2 C4_2 1_555 1_555
C6_2 C1_2 1_555 1_555
H4_2 C6_2 1_555 1_555
C7_2 C4_2 1_555 1_555
C8_2 C9_2 1_555 1_555
C9_2 H5_2 1_555 1_555
C10_2 C9_2 1_555 1_555
H6_2 C10_2 1_555 1_555
C11_2 C10_2 1_555 1_555
C12_2 C11_2 1_555 1_555
H7_2 C12_2 1_555 1_555
C13_2 C8_2 1_555 1_555
H8_2 C13_2 1_555 1_555
C14_2 C11_2 1_555 1_555
C19_2 C18_2 1_555 1_555
H11_2 C19_2 1_555 1_555
C20_2 C15_2 1_555 1_555
H12_2 C20_2 1_555 1_555
O1_2 C7_2 1_555 1_555
O13 C14_2 1_555 1_555
O16 C14_2 1_555 1_555
O25 P1_2 1_555 1_555
P1_2 C1_2 1_555 1_555
O10_2 Tm4 1_555 1_555
C5_2 C6_2 1_555 1_555
C8_2 P1_2 1_555 1_555
C12_2 C13_2 1_555 1_555
C15_2 P1_2 1_555 1_555
C19_2 C20_2 1_555 1_555

#END
