
###############################################################################
#
# This file contains modified crystal structure data generated from the
# MOF subset of the Cambridge Structural Database (CSD) v543 
# hosted by the Cambridge Crystallographic Data Centre (CCDC).
#
# This work is licensed under the Creative Commons
# Attribution-NonCommercial-ShareAlike 4.0 International License.
# To view a copy of this license, visit
# http://creativecommons.org/licenses/by-nc-sa/4.0/
# or send a letter to
# Creative Commons, PO Box 1866, Mountain View, CA 94042, USA.
#
# CIF created using the CSD Python API on 29 September 2022
# The structure has been converted into the P1 space group
# The structure has a 3D framework
# The original CSD entry DARFAF is in the monoclinic crystal system
# The framework has been calculated to contain at least 10.0% void space
# The void calculation uses a probe of radius 1.32A, grid spacing 0.4
# The framework is charged, counterions have been retained in the structure
#
###############################################################################

data_DARFAF
_chemical_formula_moiety         '(C88 H52 Dy4 O28 P4 2-)n'
_symmetry_cell_setting           triclinic
_symmetry_space_group_name_H-M   'P 1'
_symmetry_Int_Tables_number      1
_space_group_name_Hall           'P 1'
loop_
_symmetry_equiv_pos_site_id
_symmetry_equiv_pos_as_xyz
1 x,y,z
_cell_length_a                   14.617(4)
_cell_length_b                   10.572(3)
_cell_length_c                   23.548(7)
_cell_angle_alpha                90
_cell_angle_beta                 107.787(4)
_cell_angle_gamma                90
_cell_volume                     3464.95
loop_
_atom_site_label
_atom_site_type_symbol
_atom_site_fract_x
_atom_site_fract_y
_atom_site_fract_z
Dy1 Dy 0.153820(10) 0.569341(16) 0.227761(6)
C1 C 0.4786(3) 0.5617(4) 0.1731(2)
H1 H 0.4956 0.6467 0.1779
P1 P 0.23027(6) 0.36290(8) 0.12234(3)
O3 O 0.17301(19) 0.4504(2) 0.14903(11)
C4 C 0.2169(2) 0.1992(3) 0.14093(14)
C5 C 0.1906(2) 0.3723(3) 0.04192(14)
C6 C 0.3570(3) 0.4014(4) 0.14658(15)
C7 C 0.6540(2) 0.5062(4) 0.21161(16)
C8 C 0.5499(2) 0.4701(4) 0.18639(16)
C10 C 0.5241(3) 0.3441(4) 0.1792(2)
H2 H 0.5715 0.2821 0.1874
C11 C 0.3834(3) 0.5290(4) 0.15318(18)
H3 H 0.3364 0.5916 0.1440
C12 C 0.4283(3) 0.3095(4) 0.15972(19)
H4 H 0.4115 0.2243 0.1554
C13 C 0.1894(4) 0.0503(4) 0.2105(2)
H5 H 0.1790 0.0335 0.2468
C14 C 0.2540(3) 0.3785(6) 0.00877(17)
H6 H 0.3198 0.3794 0.0280
C16 C 0.0927(3) 0.3723(6) 0.01220(16)
H8 H 0.0492 0.3698 0.0339
O4 O 0.71822(19) 0.4228(3) 0.21955(14)
O5 O 0.6764(2) 0.6191(3) 0.22716(14)
C20 C 0.2006(4) 0.1731(4) 0.19476(19)
H11 H 0.1973 0.2389 0.2203
C21 C 0.2234(4) 0.1010(4) 0.1035(2)
H12 H 0.2358 0.1182 0.0679
O7 O 0.0698(2) 0.3909(3) 0.23984(15)
C22 C -0.0000 0.3462(7) 0.2500
H13 H -0.0000 0.2582 0.2500
H22 H 0.0065 0.3749 0.5688
O16 O 0.00233(19) 0.3775(3) 0.67400(12)
Dy6 Dy 0.846180(10) 0.569341(16) 0.272239(6)
Dy10 Dy 0.153820(10) 0.430659(16) 0.727761(6)
O17 O 0.15637(19) 0.7995(3) 0.23732(12)
O19 O 0.1894(2) 0.7258(3) 0.15756(12)
O22 O 0.28178(19) 0.4228(3) 0.28045(14)
O24 O 0.3236(2) 0.6191(3) 0.27284(14)
O26 O 0.1482(2) 0.6042(3) 0.32334(11)
O27 O 0.00233(19) 0.6225(3) 0.17400(12)
C9 C 0.1227(2) 0.3816(3) 0.91790(14)
C15 C 0.2201(3) 0.3833(6) 0.94740(18)
H7 H 0.2634 0.3878 0.9256
O6 O 0.1482(2) 0.3958(3) 0.82334(11)
C17 C 0.0869(3) 0.3861(4) 0.85058(15)
C18 C 0.0593(3) 0.3761(5) 0.95059(17)
C2 C 0.1797(3) 0.8158(4) 0.18957(17)
C3 C 0.1934(3) 0.9514(4) 0.17277(18)
C19 C 0.2112(4) 0.9769(4) 0.1191(2)
H10 H 0.2150 0.9109 0.0938
C22_2 C 1.0000 0.3462(7) 0.2500
H13_2 H 1.0000 0.2582 0.2500
O9 O 0.9302(2) 0.3909(3) 0.26016(15)
C23 C 0.5214(3) 0.5617(4) 0.3269(2)
H14 H 0.5044 0.6467 0.3221
P2 P 0.76973(6) 0.36290(8) 0.37766(3)
O12 O 0.82699(19) 0.4504(2) 0.35097(11)
C26 C 0.7831(2) 0.1992(3) 0.35907(14)
C27 C 0.8094(2) 0.3723(3) 0.45808(14)
C28 C 0.6430(3) 0.4014(4) 0.35342(15)
C29 C 0.3460(2) 0.5062(4) 0.28839(16)
C30 C 0.4501(2) 0.4701(4) 0.31361(16)
C31 C 0.8773(2) 0.3816(3) 0.58210(14)
C32 C 0.4759(3) 0.3441(4) 0.3208(2)
H15 H 0.4285 0.2821 0.3126
C33 C 0.6166(3) 0.5290(4) 0.34682(18)
H16 H 0.6636 0.5916 0.3560
C34 C 0.5717(3) 0.3095(4) 0.34028(19)
H17 H 0.5885 0.2243 0.3446
C35 C 0.8106(4) 0.0503(4) 0.2895(2)
H18 H 0.8210 0.0335 0.2532
C36 C 0.7460(3) 0.3785(6) 0.49123(17)
H19 H 0.6802 0.3794 0.4720
C37 C 0.7799(3) 0.3833(6) 0.55260(18)
H20 H 0.7366 0.3878 0.5744
C38 C 0.9073(3) 0.3723(6) 0.48780(16)
H21 H 0.9508 0.3698 0.4661
O15 O 0.8518(2) 0.3958(3) 0.67666(11)
C39 C 0.9131(3) 0.3861(4) 0.64942(15)
C40 C 0.9407(3) 0.3761(5) 0.54941(17)
C42 C 0.7994(4) 0.1731(4) 0.30524(19)
H24 H 0.8027 0.2389 0.2797
C43 C 0.7766(4) 0.1010(4) 0.3965(2)
H25 H 0.7642 0.1182 0.4321
Dy8 Dy 0.846180(10) 0.430659(16) 0.772239(6)
O18 O 0.84363(19) 0.7995(3) 0.26268(12)
O20 O 0.8106(2) 0.7258(3) 0.34244(12)
O25 O 0.8518(2) 0.6042(3) 0.17666(11)
O28 O 0.99767(19) 0.6225(3) 0.32600(12)
H9 H 0.9935 0.3749 0.9312
O8 O 0.99767(19) 0.3775(3) 0.82600(12)
C24 C 0.8203(3) 0.8158(4) 0.31043(17)
C25 C 0.8066(3) 0.9514(4) 0.32723(18)
C41 C 0.7888(4) 0.9769(4) 0.3809(2)
H23 H 0.7850 0.9109 0.4062
O10 O 0.15637(19) 0.2005(3) 0.73732(12)
O11 O 0.1894(2) 0.2742(3) 0.65756(12)
C24_2 C 0.1797(3) 0.1842(4) 0.68957(17)
C25_2 C 0.1934(3) 0.0486(4) 0.67277(18)
C41_2 C 0.2112(4) 0.0231(4) 0.6191(2)
H23_2 H 0.2150 0.0891 0.5938
H9_2 H 0.0065 0.6251 0.0688
C22_3 C 0.0000 0.6538(7) 0.7500
H13_3 H 0.0000 0.7418 0.7500
O9_2 O 0.0698(2) 0.6091(3) 0.73984(15)
C23_2 C 0.4786(3) 0.4383(4) 0.6731(2)
H14_2 H 0.4956 0.3533 0.6779
P2_2 P 0.23027(6) 0.63710(8) 0.62234(3)
O12_2 O 0.17301(19) 0.5496(2) 0.64903(11)
C26_2 C 0.2169(2) 0.8008(3) 0.64093(14)
C27_2 C 0.1906(2) 0.6277(3) 0.54192(14)
C28_2 C 0.3570(3) 0.5986(4) 0.64658(15)
C29_2 C 0.6540(2) 0.4938(4) 0.71161(16)
C30_2 C 0.5499(2) 0.5299(4) 0.68639(16)
C31_2 C 0.1227(2) 0.6184(3) 0.41790(14)
C32_2 C 0.5241(3) 0.6559(4) 0.6792(2)
H15_2 H 0.5715 0.7179 0.6874
C33_2 C 0.3834(3) 0.4710(4) 0.65318(18)
H16_2 H 0.3364 0.4084 0.6440
C34_2 C 0.4283(3) 0.6905(4) 0.65972(19)
H17_2 H 0.4115 0.7757 0.6554
C35_2 C 0.1894(4) 0.9497(4) 0.7105(2)
H18_2 H 0.1790 0.9665 0.7468
C36_2 C 0.2540(3) 0.6215(6) 0.50877(17)
H19_2 H 0.3198 0.6206 0.5280
C37_2 C 0.2201(3) 0.6167(6) 0.44740(18)
H20_2 H 0.2634 0.6122 0.4256
C38_2 C 0.0927(3) 0.6277(6) 0.51220(16)
H21_2 H 0.0492 0.6302 0.5339
O13 O 0.71822(19) 0.5772(3) 0.71955(14)
O14 O 0.6764(2) 0.3809(3) 0.72716(14)
C39_2 C 0.0869(3) 0.6139(4) 0.35058(15)
C40_2 C 0.0593(3) 0.6239(5) 0.45059(17)
C42_2 C 0.2006(4) 0.8269(4) 0.69476(19)
H24_2 H 0.1973 0.7611 0.7203
C43_2 C 0.2234(4) 0.8990(4) 0.6035(2)
H25_2 H 0.2358 0.8818 0.5679
O21 O 0.28178(19) 0.5772(3) 0.78045(14)
O23 O 0.3236(2) 0.3809(3) 0.77284(14)
O1 O 0.84363(19) 0.2005(3) 0.76268(12)
O2 O 0.8106(2) 0.2742(3) 0.84244(12)
C2_2 C 0.8203(3) 0.1842(4) 0.81043(17)
C3_2 C 0.8066(3) 0.0486(4) 0.82723(18)
C19_2 C 0.7888(4) 0.0231(4) 0.8809(2)
H10_2 H 0.7850 0.0891 0.9062
C9_2 C 0.8773(2) 0.6184(3) 0.08210(14)
C15_2 C 0.7799(3) 0.6167(6) 0.05260(18)
H7_2 H 0.7366 0.6122 0.0744
C17_2 C 0.9131(3) 0.6139(4) 0.14942(15)
C18_2 C 0.9407(3) 0.6239(5) 0.04941(17)
C1_2 C 0.5214(3) 0.4383(4) 0.8269(2)
H1_2 H 0.5044 0.3533 0.8221
P1_2 P 0.76973(6) 0.63710(8) 0.87766(3)
O3_2 O 0.82699(19) 0.5496(2) 0.85097(11)
C4_2 C 0.7831(2) 0.8008(3) 0.85907(14)
C5_2 C 0.8094(2) 0.6277(3) 0.95808(14)
C6_2 C 0.6430(3) 0.5986(4) 0.85342(15)
C7_2 C 0.3460(2) 0.4938(4) 0.78839(16)
C8_2 C 0.4501(2) 0.5299(4) 0.81361(16)
C10_2 C 0.4759(3) 0.6559(4) 0.8208(2)
H2_2 H 0.4285 0.7179 0.8126
C11_2 C 0.6166(3) 0.4710(4) 0.84682(18)
H3_2 H 0.6636 0.4084 0.8560
C12_2 C 0.5717(3) 0.6905(4) 0.84028(19)
H4_2 H 0.5885 0.7757 0.8446
C13_2 C 0.8106(4) 0.9497(4) 0.7895(2)
H5_2 H 0.8210 0.9665 0.7532
C14_2 C 0.7460(3) 0.6215(6) 0.99123(17)
H6_2 H 0.6802 0.6206 0.9720
C16_2 C 0.9073(3) 0.6277(6) 0.98780(16)
H8_2 H 0.9508 0.6302 0.9661
C20_2 C 0.7994(4) 0.8269(4) 0.80524(19)
H11_2 H 0.8027 0.7611 0.7797
C21_2 C 0.7766(4) 0.8990(4) 0.8965(2)
H12_2 H 0.7642 0.8818 0.9321
O7_2 O 0.9302(2) 0.6091(3) 0.76016(15)
C22_4 C 1.0000 0.6538(7) 0.7500
H13_4 H 1.0000 0.7418 0.7500
H22_2 H 0.9935 0.6251 0.4312
loop_
_geom_bond_atom_site_label_1
_geom_bond_atom_site_label_2
_geom_bond_site_symmetry_1
_geom_bond_site_symmetry_2
Dy1 O3 1_555 1_555
C1 H1 1_555 1_555
P1 O3 1_555 1_555
C4 P1 1_555 1_555
C5 P1 1_555 1_555
C6 P1 1_555 1_555
C7 C8 1_555 1_555
C8 C1 1_555 1_555
C10 C8 1_555 1_555
H2 C10 1_555 1_555
C11 C1 1_555 1_555
H3 C11 1_555 1_555
C12 C6 1_555 1_555
H4 C12 1_555 1_555
C13 H5 1_555 1_555
C14 C5 1_555 1_555
H6 C14 1_555 1_555
C16 C5 1_555 1_555
H8 C16 1_555 1_555
O4 C7 1_555 1_555
O5 C7 1_555 1_555
C20 C4 1_555 1_555
H11 C20 1_555 1_555
C21 C4 1_555 1_555
H12 C21 1_555 1_555
O7 Dy1 1_555 1_555
C22 O7 1_555 1_555
H13 C22 1_555 1_555
Dy6 O4 1_555 1_555
Dy10 O16 1_555 1_555
O17 Dy1 1_555 1_555
O19 Dy1 1_555 1_555
O22 Dy1 1_555 1_555
O24 Dy1 1_555 1_555
O26 Dy1 1_555 1_555
O27 Dy1 1_555 1_555
C6 C11 1_555 1_555
C10 C12 1_555 1_555
C13 C20 1_555 1_555
O5 Dy6 1_555 1_555
C9 C15 1_555 1_555
H7 C15 1_555 1_555
O6 C17 1_555 1_555
C17 C9 1_555 1_555
C18 C9 1_555 1_555
Dy10 O6 1_555 1_555
O17 C2 1_555 1_555
O19 C2 1_555 1_555
C2 C3 1_555 1_555
C19 C3 1_555 1_555
H10 C19 1_555 1_555
H13_2 C22_2 1_555 1_555
O9 C22_2 1_555 1_555
Dy6 O9 1_555 1_555
C23 H14 1_555 1_555
P2 O12 1_555 1_555
O12 Dy6 1_555 1_555
C26 P2 1_555 1_555
C27 P2 1_555 1_555
C28 P2 1_555 1_555
C29 C30 1_555 1_555
C30 C23 1_555 1_555
C31 C37 1_555 1_555
C32 C30 1_555 1_555
H15 C32 1_555 1_555
C33 C23 1_555 1_555
H16 C33 1_555 1_555
C34 C28 1_555 1_555
H17 C34 1_555 1_555
C35 H18 1_555 1_555
C36 C27 1_555 1_555
H19 C36 1_555 1_555
C37 C36 1_555 1_555
H20 C37 1_555 1_555
C38 C27 1_555 1_555
H21 C38 1_555 1_555
O22 C29 1_555 1_555
O24 C29 1_555 1_555
O15 C39 1_555 1_555
C39 C31 1_555 1_555
C40 C31 1_555 1_555
C42 C26 1_555 1_555
H24 C42 1_555 1_555
C43 C26 1_555 1_555
H25 C43 1_555 1_555
Dy8 O15 1_555 1_555
O18 Dy6 1_555 1_555
O20 Dy6 1_555 1_555
O25 Dy6 1_555 1_555
O28 Dy6 1_555 1_555
C28 C33 1_555 1_555
C32 C34 1_555 1_555
C35 C42 1_555 1_555
C38 C40 1_555 1_555
Dy8 O8 1_555 1_555
O18 C24 1_555 1_555
O20 C24 1_555 1_555
C24 C25 1_555 1_555
C41 C25 1_555 1_555
H23 C41 1_555 1_555
O10 C24_2 1_555 1_555
O11 C24_2 1_555 1_555
C24_2 C25_2 1_555 1_555
C41_2 C25_2 1_555 1_555
H23_2 C41_2 1_555 1_555
Dy10 O10 1_555 1_555
O11 Dy10 1_555 1_555
H13_3 C22_3 1_555 1_555
O9_2 C22_3 1_555 1_555
Dy10 O9_2 1_555 1_555
C23_2 H14_2 1_555 1_555
P2_2 O12_2 1_555 1_555
O12_2 Dy10 1_555 1_555
C26_2 P2_2 1_555 1_555
C27_2 P2_2 1_555 1_555
C28_2 P2_2 1_555 1_555
C29_2 C30_2 1_555 1_555
C30_2 C23_2 1_555 1_555
C31_2 C37_2 1_555 1_555
C32_2 C30_2 1_555 1_555
H15_2 C32_2 1_555 1_555
C33_2 C23_2 1_555 1_555
H16_2 C33_2 1_555 1_555
C34_2 C28_2 1_555 1_555
H17_2 C34_2 1_555 1_555
C35_2 H18_2 1_555 1_555
C36_2 C27_2 1_555 1_555
H19_2 C36_2 1_555 1_555
C37_2 C36_2 1_555 1_555
H20_2 C37_2 1_555 1_555
C38_2 C27_2 1_555 1_555
H21_2 C38_2 1_555 1_555
O13 C29_2 1_555 1_555
O14 C29_2 1_555 1_555
O26 C39_2 1_555 1_555
C39_2 C31_2 1_555 1_555
C40_2 C31_2 1_555 1_555
C42_2 C26_2 1_555 1_555
H24_2 C42_2 1_555 1_555
C43_2 C26_2 1_555 1_555
H25_2 C43_2 1_555 1_555
Dy8 O13 1_555 1_555
O21 Dy10 1_555 1_555
O23 Dy10 1_555 1_555
C28_2 C33_2 1_555 1_555
C32_2 C34_2 1_555 1_555
C35_2 C42_2 1_555 1_555
C38_2 C40_2 1_555 1_555
O14 Dy8 1_555 1_555
O1 C2_2 1_555 1_555
O2 C2_2 1_555 1_555
C2_2 C3_2 1_555 1_555
C19_2 C3_2 1_555 1_555
H10_2 C19_2 1_555 1_555
Dy8 O1 1_555 1_555
O2 Dy8 1_555 1_555
C9_2 C15_2 1_555 1_555
H7_2 C15_2 1_555 1_555
O25 C17_2 1_555 1_555
C17_2 C9_2 1_555 1_555
C18_2 C9_2 1_555 1_555
Dy8 O3_2 1_555 1_555
C1_2 H1_2 1_555 1_555
P1_2 O3_2 1_555 1_555
C4_2 P1_2 1_555 1_555
C5_2 P1_2 1_555 1_555
C6_2 P1_2 1_555 1_555
C7_2 C8_2 1_555 1_555
C8_2 C1_2 1_555 1_555
C10_2 C8_2 1_555 1_555
H2_2 C10_2 1_555 1_555
C11_2 C1_2 1_555 1_555
H3_2 C11_2 1_555 1_555
C12_2 C6_2 1_555 1_555
H4_2 C12_2 1_555 1_555
C13_2 H5_2 1_555 1_555
C14_2 C5_2 1_555 1_555
H6_2 C14_2 1_555 1_555
C16_2 C5_2 1_555 1_555
H8_2 C16_2 1_555 1_555
O21 C7_2 1_555 1_555
O23 C7_2 1_555 1_555
C20_2 C4_2 1_555 1_555
H11_2 C20_2 1_555 1_555
C21_2 C4_2 1_555 1_555
H12_2 C21_2 1_555 1_555
O7_2 Dy8 1_555 1_555
C22_4 O7_2 1_555 1_555
H13_4 C22_4 1_555 1_555
C6_2 C11_2 1_555 1_555
C10_2 C12_2 1_555 1_555
C13_2 C20_2 1_555 1_555

#END
