
###############################################################################
#
# This file contains modified crystal structure data generated from the
# MOF subset of the Cambridge Structural Database (CSD) v543 
# hosted by the Cambridge Crystallographic Data Centre (CCDC).
#
# This work is licensed under the Creative Commons
# Attribution-NonCommercial-ShareAlike 4.0 International License.
# To view a copy of this license, visit
# http://creativecommons.org/licenses/by-nc-sa/4.0/
# or send a letter to
# Creative Commons, PO Box 1866, Mountain View, CA 94042, USA.
#
# CIF created using the CSD Python API on 29 September 2022
# The structure has been converted into the P1 space group
# The structure has a 3D framework
# The original CSD entry DARFIN is in the monoclinic crystal system
# The framework has been calculated to contain at least 10.0% void space
# The void calculation uses a probe of radius 1.32A, grid spacing 0.4
# The framework is charged, counterions have been retained in the structure
#
###############################################################################

data_DARFIN
_chemical_formula_moiety         '(C88 H52 Er4 O32 P4 2-)n'
_symmetry_cell_setting           triclinic
_symmetry_space_group_name_H-M   'P 1'
_symmetry_Int_Tables_number      1
_space_group_name_Hall           'P 1'
loop_
_symmetry_equiv_pos_site_id
_symmetry_equiv_pos_as_xyz
1 x,y,z
_cell_length_a                   14.4248(11)
_cell_length_b                   10.4553(5)
_cell_length_c                   23.4323(18)
_cell_angle_alpha                90
_cell_angle_beta                 107.501(4)
_cell_angle_gamma                90
_cell_volume                     3370.38
loop_
_atom_site_label
_atom_site_type_symbol
_atom_site_fract_x
_atom_site_fract_y
_atom_site_fract_z
Er1 Er 0.15145(2) 0.07550(3) 0.226347(13)
C1 C 0.1901(5) 0.1203(7) 0.5418(3)
C2 C 0.2561(6) 0.1063(10) 0.5093(4)
H1 H 0.3221 0.0975 0.5292
C3 C 0.2232(6) 0.1057(9) 0.4478(3)
H2 H 0.2678 0.0983 0.4264
C4 C 0.1261(5) 0.1157(7) 0.4174(3)
C5 C 0.0595(6) 0.1249(9) 0.4492(4)
C6 C 0.0912(5) 0.1279(9) 0.5101(3)
H4 H 0.0461 0.1352 0.5312
C7 C 0.0913(6) 0.1174(8) 0.3501(3)
C8 C 0.2157(5) 0.2905(7) 0.6409(3)
C9 C 0.2189(8) 0.3914(9) 0.6002(4)
H5 H 0.2309 0.3737 0.5642
C10 C 0.2035(8) 0.5177(9) 0.6159(4)
H6 H 0.2022 0.5839 0.5892
C11 C 0.1901(6) 0.5441(7) 0.6707(3)
C12 C 0.1857(6) 0.4436(8) 0.7094(3)
H7 H 0.1736 0.4610 0.7455
C13 C 0.1992(6) 0.3190(8) 0.6942(3)
H8 H 0.1970 0.2532 0.7205
C14 C 0.1737(6) 0.6786(7) 0.6881(3)
C15 C 0.3563(6) 0.0899(8) 0.6467(3)
C18 C 0.5500(5) 0.0163(7) 0.6874(3)
C19 C 0.5237(5) 0.1491(8) 0.6807(3)
H11 H 0.5716 0.2119 0.6895
C20 C 0.4286(5) 0.1822(8) 0.6616(3)
H12 H 0.4115 0.2682 0.6585
O1 O 0.1548(4) 0.1102(6) 0.3236(2)
O2 O 0.0011(4) 0.1279(6) 0.3247(2)
O3 O 0.1828(4) 0.7703(5) 0.6553(2)
O4 O 0.1503(3) 0.6975(5) 0.7355(2)
O6 O 0.7195(4) 0.0697(5) 0.7218(3)
O7 O 0.1715(4) 0.0424(5) 0.6482(2)
P1 P 0.22846(12) 0.12770(18) 0.62165(7)
Er3 Er 0.15145(2) 0.92450(3) 0.726347(13)
H16 H 0.0066 0.1291 0.0709
O12 O 0.1828(4) 0.2297(5) 0.1553(2)
O15 O 0.1503(3) 0.3025(5) 0.2355(2)
O18 O 0.3218(3) 0.1313(6) 0.2687(2)
C16 C 0.3830(5) 0.9567(7) 0.6527(3)
H9 H 0.3358 0.8931 0.6438
C17 C 0.4822(6) 0.9257(7) 0.6722(4)
H10 H 0.5009 0.8402 0.6745
C21 C 0.6544(5) 0.9824(8) 0.7134(3)
C22 C 0.0000 0.8469(11) 0.2500
H13 H 0.0000 0.7579 0.2500
O5 O 0.6782(3) 0.8687(6) 0.7313(2)
O8 O 0.0708(4) 0.8946(5) 0.2411(3)
Er4 Er 0.84855(2) 0.92450(3) 0.773653(13)
O21 O 0.2805(4) 0.9303(5) 0.2782(3)
O24 O 0.1715(4) 0.9576(5) 0.1482(2)
H3 H 0.9934 0.1291 0.4291
Er2 Er 0.84855(2) 0.07550(3) 0.273653(13)
C25 C 0.7768(6) 0.1057(9) 0.0522(3)
H15 H 0.7322 0.0983 0.0736
C26 C 0.8739(5) 0.1157(7) 0.0826(3)
C27 C 0.9405(6) 0.1249(9) 0.0508(4)
C29 C 0.9087(6) 0.1174(8) 0.1499(3)
O9 O 0.8452(4) 0.1102(6) 0.1764(2)
O10 O 0.9989(4) 0.1279(6) 0.1753(2)
O13 O 0.8172(4) 0.2297(5) 0.3447(2)
O16 O 0.8497(3) 0.3025(5) 0.2645(2)
O19 O 0.6782(3) 0.1313(6) 0.2313(2)
C23 C 0.8099(5) 0.1203(7) 0.9582(3)
C24 C 0.7439(6) 0.1063(10) 0.9907(4)
H14 H 0.6779 0.0975 0.9708
C28 C 0.9088(5) 0.1279(9) 0.9899(3)
H17 H 0.9539 0.1352 0.9688
C30 C 0.7843(5) 0.2905(7) 0.8591(3)
C31 C 0.7811(8) 0.3914(9) 0.8998(4)
H18 H 0.7691 0.3737 0.9358
C32 C 0.7965(8) 0.5177(9) 0.8841(4)
H19 H 0.7978 0.5839 0.9108
C33 C 0.8099(6) 0.5441(7) 0.8293(3)
C34 C 0.8143(6) 0.4436(8) 0.7906(3)
H20 H 0.8264 0.4610 0.7545
C35 C 0.8008(6) 0.3190(8) 0.8058(3)
H21 H 0.8030 0.2532 0.7795
C36 C 0.8263(6) 0.6786(7) 0.8119(3)
C37 C 0.6437(6) 0.0899(8) 0.8533(3)
C40 C 0.4500(5) 0.0163(7) 0.8126(3)
C41 C 0.4763(5) 0.1491(8) 0.8193(3)
H24 H 0.4284 0.2119 0.8105
C42 C 0.5714(5) 0.1822(8) 0.8384(3)
H25 H 0.5885 0.2682 0.8415
O11 O 0.8172(4) 0.7703(5) 0.8447(2)
O14 O 0.8497(3) 0.6975(5) 0.7645(2)
O20 O 0.2805(4) 0.0697(5) 0.7782(3)
O23 O 0.8285(4) 0.0424(5) 0.8518(2)
P2 P 0.77154(12) 0.12770(18) 0.87835(7)
C22_2 C 1.0000 0.8469(11) 0.2500
H13_2 H 1.0000 0.7579 0.2500
O22 O 0.7195(4) 0.9303(5) 0.2218(3)
O25 O 0.8285(4) 0.9576(5) 0.3518(2)
O26 O 0.9292(4) 0.8946(5) 0.2589(3)
C38 C 0.6170(5) 0.9567(7) 0.8473(3)
H22 H 0.6642 0.8931 0.8562
C39 C 0.5178(6) 0.9257(7) 0.8278(4)
H23 H 0.4991 0.8402 0.8255
C43 C 0.3456(5) 0.9824(8) 0.7866(3)
O17 O 0.3218(3) 0.8687(6) 0.7687(2)
C38_2 C 0.3830(5) 0.0433(7) 0.1527(3)
H22_2 H 0.3358 0.1069 0.1438
C39_2 C 0.4822(6) 0.0743(7) 0.1722(4)
H23_2 H 0.5009 0.1598 0.1745
C43_2 C 0.6544(5) 0.0176(8) 0.2134(3)
C22_3 C 0.0000 0.1531(11) 0.7500
H13_3 H 0.0000 0.2421 0.7500
O26_2 O 0.0708(4) 0.1054(5) 0.7411(3)
C23_2 C 0.1901(5) 0.8797(7) 0.0418(3)
C24_2 C 0.2561(6) 0.8937(10) 0.0093(4)
H14_2 H 0.3221 0.9025 0.0292
C28_2 C 0.0912(5) 0.8721(9) 0.0101(3)
H17_2 H 0.0461 0.8648 0.0312
C30_2 C 0.2157(5) 0.7095(7) 0.1409(3)
C31_2 C 0.2189(8) 0.6086(9) 0.1002(4)
H18_2 H 0.2309 0.6263 0.0642
C32_2 C 0.2035(8) 0.4823(9) 0.1159(4)
H19_2 H 0.2022 0.4161 0.0892
C33_2 C 0.1901(6) 0.4559(7) 0.1707(3)
C34_2 C 0.1857(6) 0.5564(8) 0.2094(3)
H20_2 H 0.1736 0.5390 0.2455
C35_2 C 0.1992(6) 0.6810(8) 0.1942(3)
H21_2 H 0.1970 0.7468 0.2205
C36_2 C 0.1737(6) 0.3214(7) 0.1881(3)
C37_2 C 0.3563(6) 0.9101(8) 0.1467(3)
C40_2 C 0.5500(5) 0.9837(7) 0.1874(3)
C41_2 C 0.5237(5) 0.8509(8) 0.1807(3)
H24_2 H 0.5716 0.7881 0.1895
C42_2 C 0.4286(5) 0.8178(8) 0.1616(3)
H25_2 H 0.4115 0.7318 0.1585
P2_2 P 0.22846(12) 0.87230(18) 0.12165(7)
H3_2 H 0.0066 0.8709 0.5709
C25_2 C 0.2232(6) 0.8943(9) 0.9478(3)
H15_2 H 0.2678 0.9017 0.9264
C26_2 C 0.1261(5) 0.8843(7) 0.9174(3)
C27_2 C 0.0595(6) 0.8751(9) 0.9492(4)
C29_2 C 0.0913(6) 0.8826(8) 0.8501(3)
O9_2 O 0.1548(4) 0.8898(6) 0.8236(2)
O10_2 O 0.0011(4) 0.8721(6) 0.8247(2)
C16_2 C 0.6170(5) 0.0433(7) 0.3473(3)
H9_2 H 0.6642 0.1069 0.3562
C17_2 C 0.5178(6) 0.0743(7) 0.3278(4)
H10_2 H 0.4991 0.1598 0.3255
C21_2 C 0.3456(5) 0.0176(8) 0.2866(3)
C22_4 C 1.0000 0.1531(11) 0.7500
H13_4 H 1.0000 0.2421 0.7500
O8_2 O 0.9292(4) 0.1054(5) 0.7589(3)
C1_2 C 0.8099(5) 0.8797(7) 0.4582(3)
C2_2 C 0.7439(6) 0.8937(10) 0.4907(4)
H1_2 H 0.6779 0.9025 0.4708
C3_2 C 0.7768(6) 0.8943(9) 0.5522(3)
H2_2 H 0.7322 0.9017 0.5736
C4_2 C 0.8739(5) 0.8843(7) 0.5826(3)
C5_2 C 0.9405(6) 0.8751(9) 0.5508(4)
C6_2 C 0.9088(5) 0.8721(9) 0.4899(3)
H4_2 H 0.9539 0.8648 0.4688
C7_2 C 0.9087(6) 0.8826(8) 0.6499(3)
C8_2 C 0.7843(5) 0.7095(7) 0.3591(3)
C9_2 C 0.7811(8) 0.6086(9) 0.3998(4)
H5_2 H 0.7691 0.6263 0.4358
C10_2 C 0.7965(8) 0.4823(9) 0.3841(4)
H6_2 H 0.7978 0.4161 0.4108
C11_2 C 0.8099(6) 0.4559(7) 0.3293(3)
C12_2 C 0.8143(6) 0.5564(8) 0.2906(3)
H7_2 H 0.8264 0.5390 0.2545
C13_2 C 0.8008(6) 0.6810(8) 0.3058(3)
H8_2 H 0.8030 0.7468 0.2795
C14_2 C 0.8263(6) 0.3214(7) 0.3119(3)
C15_2 C 0.6437(6) 0.9101(8) 0.3533(3)
C18_2 C 0.4500(5) 0.9837(7) 0.3126(3)
C19_2 C 0.4763(5) 0.8509(8) 0.3193(3)
H11_2 H 0.4284 0.7881 0.3105
C20_2 C 0.5714(5) 0.8178(8) 0.3384(3)
H12_2 H 0.5885 0.7318 0.3415
O1_2 O 0.8452(4) 0.8898(6) 0.6764(2)
O2_2 O 0.9989(4) 0.8721(6) 0.6753(2)
P1_2 P 0.77154(12) 0.87230(18) 0.37835(7)
H16_2 H 0.9934 0.8709 0.9291
loop_
_geom_bond_atom_site_label_1
_geom_bond_atom_site_label_2
_geom_bond_site_symmetry_1
_geom_bond_site_symmetry_2
Er1 O1 1_555 1_555
C1 C2 1_555 1_555
C2 H1 1_555 1_555
C3 C2 1_555 1_555
H2 C3 1_555 1_555
C4 C3 1_555 1_555
C5 C4 1_555 1_555
C6 C1 1_555 1_555
H4 C6 1_555 1_555
C7 C4 1_555 1_555
C8 C9 1_555 1_555
C9 H5 1_555 1_555
C10 C9 1_555 1_555
H6 C10 1_555 1_555
C11 C10 1_555 1_555
C12 C11 1_555 1_555
H7 C12 1_555 1_555
C13 C8 1_555 1_555
H8 C13 1_555 1_555
C14 C11 1_555 1_555
C19 C18 1_555 1_555
H11 C19 1_555 1_555
C20 C15 1_555 1_555
H12 C20 1_555 1_555
O1 C7 1_555 1_555
O2 C7 1_555 1_555
O3 C14 1_555 1_555
O4 C14 1_555 1_555
O7 P1 1_555 1_555
P1 C1 1_555 1_555
Er3 O3 1_555 1_555
O12 Er1 1_555 1_555
O15 Er1 1_555 1_555
O18 Er1 1_555 1_555
C5 C6 1_555 1_555
C8 P1 1_555 1_555
C12 C13 1_555 1_555
C15 P1 1_555 1_555
C19 C20 1_555 1_555
O4 Er3 1_555 1_555
C16 H9 1_555 1_555
C17 C16 1_555 1_555
H10 C17 1_555 1_555
C22 H13 1_555 1_555
O5 C21 1_555 1_555
Er4 O5 1_555 1_555
C22 O8 1_555 1_555
H15 C25 1_555 1_555
C26 C25 1_555 1_555
C27 C26 1_555 1_555
C29 C26 1_555 1_555
O9 Er2 1_555 1_555
O13 Er2 1_555 1_555
O16 Er2 1_555 1_555
O19 Er2 1_555 1_555
C29 O9 1_555 1_555
C29 O10 1_555 1_555
Er4 O11 1_555 1_555
C23 C24 1_555 1_555
C24 H14 1_555 1_555
C28 C23 1_555 1_555
H17 C28 1_555 1_555
C30 C31 1_555 1_555
C31 H18 1_555 1_555
C32 C31 1_555 1_555
H19 C32 1_555 1_555
C33 C32 1_555 1_555
C34 C33 1_555 1_555
H20 C34 1_555 1_555
C35 C30 1_555 1_555
H21 C35 1_555 1_555
C36 C33 1_555 1_555
C41 C40 1_555 1_555
H24 C41 1_555 1_555
C42 C37 1_555 1_555
H25 C42 1_555 1_555
O11 C36 1_555 1_555
O14 Er4 1_555 1_555
O23 P2 1_555 1_555
P2 C23 1_555 1_555
C30 P2 1_555 1_555
C34 C35 1_555 1_555
C36 O14 1_555 1_555
C37 P2 1_555 1_555
C41 C42 1_555 1_555
C22_2 H13_2 1_555 1_555
O26 C22_2 1_555 1_555
Er3 O17 1_555 1_555
C38 H22 1_555 1_555
C39 C38 1_555 1_555
H23 C39 1_555 1_555
O17 C43 1_555 1_555
C38_2 H22_2 1_555 1_555
C39_2 C38_2 1_555 1_555
H23_2 C39_2 1_555 1_555
O19 C43_2 1_555 1_555
C22_3 H13_3 1_555 1_555
O26_2 C22_3 1_555 1_555
C23_2 C24_2 1_555 1_555
C24_2 H14_2 1_555 1_555
C28_2 C23_2 1_555 1_555
H17_2 C28_2 1_555 1_555
C30_2 C31_2 1_555 1_555
C31_2 H18_2 1_555 1_555
C32_2 C31_2 1_555 1_555
H19_2 C32_2 1_555 1_555
C33_2 C32_2 1_555 1_555
C34_2 C33_2 1_555 1_555
H20_2 C34_2 1_555 1_555
C35_2 C30_2 1_555 1_555
H21_2 C35_2 1_555 1_555
C36_2 C33_2 1_555 1_555
C41_2 C40_2 1_555 1_555
H24_2 C41_2 1_555 1_555
C42_2 C37_2 1_555 1_555
H25_2 C42_2 1_555 1_555
O12 C36_2 1_555 1_555
O24 P2_2 1_555 1_555
P2_2 C23_2 1_555 1_555
C30_2 P2_2 1_555 1_555
C34_2 C35_2 1_555 1_555
C36_2 O15 1_555 1_555
C37_2 P2_2 1_555 1_555
C41_2 C42_2 1_555 1_555
H15_2 C25_2 1_555 1_555
C26_2 C25_2 1_555 1_555
C27_2 C26_2 1_555 1_555
C29_2 C26_2 1_555 1_555
O9_2 Er3 1_555 1_555
C29_2 O9_2 1_555 1_555
C29_2 O10_2 1_555 1_555
C16_2 H9_2 1_555 1_555
C17_2 C16_2 1_555 1_555
H10_2 C17_2 1_555 1_555
C22_4 H13_4 1_555 1_555
O18 C21_2 1_555 1_555
C22_4 O8_2 1_555 1_555
Er4 O1_2 1_555 1_555
C1_2 C2_2 1_555 1_555
C2_2 H1_2 1_555 1_555
C3_2 C2_2 1_555 1_555
H2_2 C3_2 1_555 1_555
C4_2 C3_2 1_555 1_555
C5_2 C4_2 1_555 1_555
C6_2 C1_2 1_555 1_555
H4_2 C6_2 1_555 1_555
C7_2 C4_2 1_555 1_555
C8_2 C9_2 1_555 1_555
C9_2 H5_2 1_555 1_555
C10_2 C9_2 1_555 1_555
H6_2 C10_2 1_555 1_555
C11_2 C10_2 1_555 1_555
C12_2 C11_2 1_555 1_555
H7_2 C12_2 1_555 1_555
C13_2 C8_2 1_555 1_555
H8_2 C13_2 1_555 1_555
C14_2 C11_2 1_555 1_555
C19_2 C18_2 1_555 1_555
H11_2 C19_2 1_555 1_555
C20_2 C15_2 1_555 1_555
H12_2 C20_2 1_555 1_555
O1_2 C7_2 1_555 1_555
O2_2 C7_2 1_555 1_555
O13 C14_2 1_555 1_555
O16 C14_2 1_555 1_555
O25 P1_2 1_555 1_555
P1_2 C1_2 1_555 1_555
C5_2 C6_2 1_555 1_555
C8_2 P1_2 1_555 1_555
C12_2 C13_2 1_555 1_555
C15_2 P1_2 1_555 1_555
C19_2 C20_2 1_555 1_555

#END
