
###############################################################################
#
# This file contains modified crystal structure data generated from the
# MOF subset of the Cambridge Structural Database (CSD) v543 
# hosted by the Cambridge Crystallographic Data Centre (CCDC).
#
# This work is licensed under the Creative Commons
# Attribution-NonCommercial-ShareAlike 4.0 International License.
# To view a copy of this license, visit
# http://creativecommons.org/licenses/by-nc-sa/4.0/
# or send a letter to
# Creative Commons, PO Box 1866, Mountain View, CA 94042, USA.
#
# CIF created using the CSD Python API on 29 September 2022
# The structure has been converted into the P1 space group
# The structure has a 3D framework
# The original CSD entry DARFEJ is in the monoclinic crystal system
# The framework has been calculated to contain at least 10.0% void space
# The void calculation uses a probe of radius 1.32A, grid spacing 0.4
# The framework is charged, counterions have been retained in the structure
#
###############################################################################

data_DARFEJ
_chemical_formula_moiety         '(C88 H52 Ho4 O32 P4 2-)n'
_symmetry_cell_setting           triclinic
_symmetry_space_group_name_H-M   'P 1'
_symmetry_Int_Tables_number      1
_space_group_name_Hall           'P 1'
loop_
_symmetry_equiv_pos_site_id
_symmetry_equiv_pos_as_xyz
1 x,y,z
_cell_length_a                   14.4523(11)
_cell_length_b                   10.4767(5)
_cell_length_c                   23.4337(18)
_cell_angle_alpha                90
_cell_angle_beta                 107.577(4)
_cell_angle_gamma                90
_cell_volume                     3382.5
loop_
_atom_site_label
_atom_site_type_symbol
_atom_site_fract_x
_atom_site_fract_y
_atom_site_fract_z
Ho1 Ho 0.152355(11) 0.069929(16) 0.226991(7)
C1 C 0.1895(3) 0.1254(4) 0.54154(15)
C2 C 0.2556(3) 0.1184(6) 0.50952(19)
H1 H 0.3218 0.1171 0.5295
C3 C 0.2224(3) 0.1134(6) 0.44739(19)
H2 H 0.2668 0.1073 0.4259
C4 C 0.1246(3) 0.1173(4) 0.41731(16)
C5 C 0.0597(3) 0.1239(5) 0.44945(18)
C6 C 0.0913(3) 0.1278(5) 0.51147(18)
H4 H 0.0466 0.1319 0.5328
C7 C 0.0906(3) 0.1131(4) 0.35008(16)
C8 C 0.2150(3) 0.2988(4) 0.64047(16)
C9 C 0.2197(4) 0.3972(4) 0.6019(2)
H5 H 0.2313 0.3796 0.5658
C10 C 0.2069(4) 0.5232(4) 0.6179(2)
H6 H 0.2089 0.5898 0.5920
C11 C 0.1911(3) 0.5489(4) 0.67224(18)
C12 C 0.1889(3) 0.4490(4) 0.7107(2)
H7 H 0.1792 0.4663 0.7474
C13 C 0.2009(3) 0.3245(4) 0.69527(19)
H8 H 0.1995 0.2582 0.7214
C14 C 0.1759(3) 0.6828(4) 0.68899(17)
C15 C 0.3556(3) 0.0958(4) 0.64689(16)
C18 C 0.5500(3) 0.0259(4) 0.68722(17)
C19 C 0.5244(3) 0.1533(4) 0.68102(19)
H11 H 0.5723 0.2159 0.6905
C20 C 0.4275(3) 0.1878(4) 0.66063(19)
H12 H 0.4107 0.2737 0.6561
O1 O 0.1540(2) 0.1042(3) 0.32381(12)
O2 O 0.00102(19) 0.1203(3) 0.32444(13)
O3 O 0.1853(2) 0.7752(3) 0.65679(13)
O4 O 0.15280(19) 0.7017(3) 0.73667(12)
O6 O 0.7189(2) 0.0749(3) 0.72090(13)
O7 O 0.1694(2) 0.0477(3) 0.64817(11)
P1 P 0.22868(7) 0.13468(9) 0.62187(4)
Ho3 Ho 0.152355(11) 0.930071(16) 0.726991(7)
H16 H 0.0065 0.1259 0.0706
O12 O 0.1853(2) 0.2248(3) 0.15679(13)
O15 O 0.15280(19) 0.2983(3) 0.23667(12)
O18 O 0.3225(2) 0.1235(3) 0.27069(13)
C16 C 0.3816(3) 0.9663(4) 0.65260(18)
H9 H 0.3338 0.9037 0.6424
C17 C 0.4777(3) 0.9319(4) 0.67327(19)
H10 H 0.4948 0.8461 0.6780
C21 C 0.6544(3) 0.9901(4) 0.71314(17)
C22 C -0.0000 0.8411(8) 0.2500
H13 H -0.0000 0.7524 0.2500
O5 O 0.6775(2) 0.8765(3) 0.72931(13)
O8 O 0.0719(2) 0.8888(3) 0.24111(15)
Ho4 Ho 0.847645(11) 0.930071(16) 0.773009(7)
O21 O 0.2811(2) 0.9251(3) 0.27910(13)
O24 O 0.1694(2) 0.9523(3) 0.14817(11)
H3 H 0.9935 0.1259 0.4294
Ho2 Ho 0.847645(11) 0.069929(16) 0.273009(7)
C25 C 0.7776(3) 0.1134(6) 0.05261(19)
H15 H 0.7332 0.1073 0.0741
C26 C 0.8754(3) 0.1173(4) 0.08269(16)
C27 C 0.9403(3) 0.1239(5) 0.05055(18)
C29 C 0.9094(3) 0.1131(4) 0.14992(16)
O9 O 0.8460(2) 0.1042(3) 0.17619(12)
O10 O 0.99898(19) 0.1203(3) 0.17556(13)
O13 O 0.8147(2) 0.2248(3) 0.34321(13)
O16 O 0.84720(19) 0.2983(3) 0.26333(12)
O19 O 0.6775(2) 0.1235(3) 0.22931(13)
C23 C 0.8105(3) 0.1254(4) 0.95846(15)
C24 C 0.7444(3) 0.1184(6) 0.99048(19)
H14 H 0.6782 0.1171 0.9705
C28 C 0.9087(3) 0.1278(5) 0.98853(18)
H17 H 0.9534 0.1319 0.9672
C30 C 0.7850(3) 0.2988(4) 0.85953(16)
C31 C 0.7803(4) 0.3972(4) 0.8981(2)
H18 H 0.7687 0.3796 0.9342
C32 C 0.7931(4) 0.5232(4) 0.8821(2)
H19 H 0.7911 0.5898 0.9080
C33 C 0.8089(3) 0.5489(4) 0.82776(18)
C34 C 0.8111(3) 0.4490(4) 0.7893(2)
H20 H 0.8208 0.4663 0.7526
C35 C 0.7991(3) 0.3245(4) 0.80473(19)
H21 H 0.8005 0.2582 0.7786
C36 C 0.8241(3) 0.6828(4) 0.81101(17)
C37 C 0.6444(3) 0.0958(4) 0.85311(16)
C40 C 0.4500(3) 0.0259(4) 0.81278(17)
C41 C 0.4756(3) 0.1533(4) 0.81898(19)
H24 H 0.4277 0.2159 0.8095
C42 C 0.5725(3) 0.1878(4) 0.83937(19)
H25 H 0.5893 0.2737 0.8439
O11 O 0.8147(2) 0.7752(3) 0.84321(13)
O14 O 0.84720(19) 0.7017(3) 0.76333(12)
O20 O 0.2811(2) 0.0749(3) 0.77910(13)
O23 O 0.8306(2) 0.0477(3) 0.85183(11)
P2 P 0.77132(7) 0.13468(9) 0.87813(4)
C22_2 C 1.0000 0.8411(8) 0.2500
H13_2 H 1.0000 0.7524 0.2500
O22 O 0.7189(2) 0.9251(3) 0.22090(13)
O25 O 0.8306(2) 0.9523(3) 0.35183(11)
O26 O 0.9281(2) 0.8888(3) 0.25889(15)
C38 C 0.6184(3) 0.9663(4) 0.84740(18)
H22 H 0.6662 0.9037 0.8576
C39 C 0.5223(3) 0.9319(4) 0.82673(19)
H23 H 0.5052 0.8461 0.8220
C43 C 0.3456(3) 0.9901(4) 0.78686(17)
O17 O 0.3225(2) 0.8765(3) 0.77069(13)
C38_2 C 0.3816(3) 0.0337(4) 0.15260(18)
H22_2 H 0.3338 0.0963 0.1424
C39_2 C 0.4777(3) 0.0681(4) 0.17327(19)
H23_2 H 0.4948 0.1539 0.1780
C43_2 C 0.6544(3) 0.0099(4) 0.21314(17)
C22_3 C 0.0000 0.1589(8) 0.7500
H13_3 H 0.0000 0.2476 0.7500
O26_2 O 0.0719(2) 0.1112(3) 0.74111(15)
C23_2 C 0.1895(3) 0.8746(4) 0.04154(15)
C24_2 C 0.2556(3) 0.8816(6) 0.00952(19)
H14_2 H 0.3218 0.8829 0.0295
C28_2 C 0.0913(3) 0.8722(5) 0.01147(18)
H17_2 H 0.0466 0.8681 0.0328
C30_2 C 0.2150(3) 0.7012(4) 0.14047(16)
C31_2 C 0.2197(4) 0.6028(4) 0.1019(2)
H18_2 H 0.2313 0.6204 0.0658
C32_2 C 0.2069(4) 0.4768(4) 0.1179(2)
H19_2 H 0.2089 0.4102 0.0920
C33_2 C 0.1911(3) 0.4511(4) 0.17224(18)
C34_2 C 0.1889(3) 0.5510(4) 0.2107(2)
H20_2 H 0.1792 0.5337 0.2474
C35_2 C 0.2009(3) 0.6755(4) 0.19527(19)
H21_2 H 0.1995 0.7418 0.2214
C36_2 C 0.1759(3) 0.3172(4) 0.18899(17)
C37_2 C 0.3556(3) 0.9042(4) 0.14689(16)
C40_2 C 0.5500(3) 0.9741(4) 0.18722(17)
C41_2 C 0.5244(3) 0.8467(4) 0.18102(19)
H24_2 H 0.5723 0.7841 0.1905
C42_2 C 0.4275(3) 0.8122(4) 0.16063(19)
H25_2 H 0.4107 0.7263 0.1561
P2_2 P 0.22868(7) 0.86532(9) 0.12187(4)
H3_2 H 0.0065 0.8741 0.5706
C25_2 C 0.2224(3) 0.8866(6) 0.94739(19)
H15_2 H 0.2668 0.8927 0.9259
C26_2 C 0.1246(3) 0.8827(4) 0.91731(16)
C27_2 C 0.0597(3) 0.8761(5) 0.94945(18)
C29_2 C 0.0906(3) 0.8869(4) 0.85008(16)
O9_2 O 0.1540(2) 0.8958(3) 0.82381(12)
O10_2 O 0.00102(19) 0.8797(3) 0.82444(13)
C16_2 C 0.6184(3) 0.0337(4) 0.34740(18)
H9_2 H 0.6662 0.0963 0.3576
C17_2 C 0.5223(3) 0.0681(4) 0.32673(19)
H10_2 H 0.5052 0.1539 0.3220
C21_2 C 0.3456(3) 0.0099(4) 0.28686(17)
C22_4 C 1.0000 0.1589(8) 0.7500
H13_4 H 1.0000 0.2476 0.7500
O8_2 O 0.9281(2) 0.1112(3) 0.75889(15)
C1_2 C 0.8105(3) 0.8746(4) 0.45846(15)
C2_2 C 0.7444(3) 0.8816(6) 0.49048(19)
H1_2 H 0.6782 0.8829 0.4705
C3_2 C 0.7776(3) 0.8866(6) 0.55261(19)
H2_2 H 0.7332 0.8927 0.5741
C4_2 C 0.8754(3) 0.8827(4) 0.58269(16)
C5_2 C 0.9403(3) 0.8761(5) 0.55055(18)
C6_2 C 0.9087(3) 0.8722(5) 0.48853(18)
H4_2 H 0.9534 0.8681 0.4672
C7_2 C 0.9094(3) 0.8869(4) 0.64992(16)
C8_2 C 0.7850(3) 0.7012(4) 0.35953(16)
C9_2 C 0.7803(4) 0.6028(4) 0.3981(2)
H5_2 H 0.7687 0.6204 0.4342
C10_2 C 0.7931(4) 0.4768(4) 0.3821(2)
H6_2 H 0.7911 0.4102 0.4080
C11_2 C 0.8089(3) 0.4511(4) 0.32776(18)
C12_2 C 0.8111(3) 0.5510(4) 0.2893(2)
H7_2 H 0.8208 0.5337 0.2526
C13_2 C 0.7991(3) 0.6755(4) 0.30473(19)
H8_2 H 0.8005 0.7418 0.2786
C14_2 C 0.8241(3) 0.3172(4) 0.31101(17)
C15_2 C 0.6444(3) 0.9042(4) 0.35311(16)
C18_2 C 0.4500(3) 0.9741(4) 0.31278(17)
C19_2 C 0.4756(3) 0.8467(4) 0.31898(19)
H11_2 H 0.4277 0.7841 0.3095
C20_2 C 0.5725(3) 0.8122(4) 0.33937(19)
H12_2 H 0.5893 0.7263 0.3439
O1_2 O 0.8460(2) 0.8958(3) 0.67619(12)
O2_2 O 0.99898(19) 0.8797(3) 0.67556(13)
P1_2 P 0.77132(7) 0.86532(9) 0.37813(4)
H16_2 H 0.9935 0.8741 0.9294
loop_
_geom_bond_atom_site_label_1
_geom_bond_atom_site_label_2
_geom_bond_site_symmetry_1
_geom_bond_site_symmetry_2
Ho1 O1 1_555 1_555
C1 C2 1_555 1_555
C2 H1 1_555 1_555
C3 C2 1_555 1_555
H2 C3 1_555 1_555
C4 C3 1_555 1_555
C5 C4 1_555 1_555
C6 C1 1_555 1_555
H4 C6 1_555 1_555
C7 C4 1_555 1_555
C8 C9 1_555 1_555
C9 H5 1_555 1_555
C10 C9 1_555 1_555
H6 C10 1_555 1_555
C11 C10 1_555 1_555
C12 C11 1_555 1_555
H7 C12 1_555 1_555
C13 C8 1_555 1_555
H8 C13 1_555 1_555
C14 C11 1_555 1_555
C19 C18 1_555 1_555
H11 C19 1_555 1_555
C20 C15 1_555 1_555
H12 C20 1_555 1_555
O1 C7 1_555 1_555
O2 C7 1_555 1_555
O3 C14 1_555 1_555
O4 C14 1_555 1_555
O7 P1 1_555 1_555
P1 C1 1_555 1_555
Ho3 O3 1_555 1_555
O12 Ho1 1_555 1_555
O15 Ho1 1_555 1_555
O18 Ho1 1_555 1_555
C5 C6 1_555 1_555
C8 P1 1_555 1_555
C12 C13 1_555 1_555
C15 P1 1_555 1_555
C19 C20 1_555 1_555
O4 Ho3 1_555 1_555
C16 H9 1_555 1_555
C17 C16 1_555 1_555
H10 C17 1_555 1_555
C22 H13 1_555 1_555
O5 C21 1_555 1_555
Ho4 O5 1_555 1_555
C22 O8 1_555 1_555
H15 C25 1_555 1_555
C26 C25 1_555 1_555
C27 C26 1_555 1_555
C29 C26 1_555 1_555
O9 Ho2 1_555 1_555
O13 Ho2 1_555 1_555
O16 Ho2 1_555 1_555
O19 Ho2 1_555 1_555
C29 O9 1_555 1_555
C29 O10 1_555 1_555
Ho4 O11 1_555 1_555
C23 C24 1_555 1_555
C24 H14 1_555 1_555
C28 C23 1_555 1_555
H17 C28 1_555 1_555
C30 C31 1_555 1_555
C31 H18 1_555 1_555
C32 C31 1_555 1_555
H19 C32 1_555 1_555
C33 C32 1_555 1_555
C34 C33 1_555 1_555
H20 C34 1_555 1_555
C35 C30 1_555 1_555
H21 C35 1_555 1_555
C36 C33 1_555 1_555
C41 C40 1_555 1_555
H24 C41 1_555 1_555
C42 C37 1_555 1_555
H25 C42 1_555 1_555
O11 C36 1_555 1_555
O14 Ho4 1_555 1_555
O23 P2 1_555 1_555
P2 C23 1_555 1_555
C30 P2 1_555 1_555
C34 C35 1_555 1_555
C36 O14 1_555 1_555
C37 P2 1_555 1_555
C41 C42 1_555 1_555
C22_2 H13_2 1_555 1_555
O26 C22_2 1_555 1_555
Ho3 O17 1_555 1_555
C38 H22 1_555 1_555
C39 C38 1_555 1_555
H23 C39 1_555 1_555
O17 C43 1_555 1_555
C38_2 H22_2 1_555 1_555
C39_2 C38_2 1_555 1_555
H23_2 C39_2 1_555 1_555
O19 C43_2 1_555 1_555
C22_3 H13_3 1_555 1_555
O26_2 C22_3 1_555 1_555
C23_2 C24_2 1_555 1_555
C24_2 H14_2 1_555 1_555
C28_2 C23_2 1_555 1_555
H17_2 C28_2 1_555 1_555
C30_2 C31_2 1_555 1_555
C31_2 H18_2 1_555 1_555
C32_2 C31_2 1_555 1_555
H19_2 C32_2 1_555 1_555
C33_2 C32_2 1_555 1_555
C34_2 C33_2 1_555 1_555
H20_2 C34_2 1_555 1_555
C35_2 C30_2 1_555 1_555
H21_2 C35_2 1_555 1_555
C36_2 C33_2 1_555 1_555
C41_2 C40_2 1_555 1_555
H24_2 C41_2 1_555 1_555
C42_2 C37_2 1_555 1_555
H25_2 C42_2 1_555 1_555
O12 C36_2 1_555 1_555
O24 P2_2 1_555 1_555
P2_2 C23_2 1_555 1_555
C30_2 P2_2 1_555 1_555
C34_2 C35_2 1_555 1_555
C36_2 O15 1_555 1_555
C37_2 P2_2 1_555 1_555
C41_2 C42_2 1_555 1_555
H15_2 C25_2 1_555 1_555
C26_2 C25_2 1_555 1_555
C27_2 C26_2 1_555 1_555
C29_2 C26_2 1_555 1_555
O9_2 Ho3 1_555 1_555
C29_2 O9_2 1_555 1_555
C29_2 O10_2 1_555 1_555
C16_2 H9_2 1_555 1_555
C17_2 C16_2 1_555 1_555
H10_2 C17_2 1_555 1_555
C22_4 H13_4 1_555 1_555
O18 C21_2 1_555 1_555
C22_4 O8_2 1_555 1_555
Ho4 O1_2 1_555 1_555
C1_2 C2_2 1_555 1_555
C2_2 H1_2 1_555 1_555
C3_2 C2_2 1_555 1_555
H2_2 C3_2 1_555 1_555
C4_2 C3_2 1_555 1_555
C5_2 C4_2 1_555 1_555
C6_2 C1_2 1_555 1_555
H4_2 C6_2 1_555 1_555
C7_2 C4_2 1_555 1_555
C8_2 C9_2 1_555 1_555
C9_2 H5_2 1_555 1_555
C10_2 C9_2 1_555 1_555
H6_2 C10_2 1_555 1_555
C11_2 C10_2 1_555 1_555
C12_2 C11_2 1_555 1_555
H7_2 C12_2 1_555 1_555
C13_2 C8_2 1_555 1_555
H8_2 C13_2 1_555 1_555
C14_2 C11_2 1_555 1_555
C19_2 C18_2 1_555 1_555
H11_2 C19_2 1_555 1_555
C20_2 C15_2 1_555 1_555
H12_2 C20_2 1_555 1_555
O1_2 C7_2 1_555 1_555
O2_2 C7_2 1_555 1_555
O13 C14_2 1_555 1_555
O16 C14_2 1_555 1_555
O25 P1_2 1_555 1_555
P1_2 C1_2 1_555 1_555
C5_2 C6_2 1_555 1_555
C8_2 P1_2 1_555 1_555
C12_2 C13_2 1_555 1_555
C15_2 P1_2 1_555 1_555
C19_2 C20_2 1_555 1_555

#END
