
###############################################################################
#
# This file contains modified crystal structure data generated from the
# MOF subset of the Cambridge Structural Database (CSD) v543 
# hosted by the Cambridge Crystallographic Data Centre (CCDC).
#
# This work is licensed under the Creative Commons
# Attribution-NonCommercial-ShareAlike 4.0 International License.
# To view a copy of this license, visit
# http://creativecommons.org/licenses/by-nc-sa/4.0/
# or send a letter to
# Creative Commons, PO Box 1866, Mountain View, CA 94042, USA.
#
# CIF created using the CSD Python API on 29 September 2022
# The structure has been converted into the P1 space group
# The structure has a 3D framework
# The original CSD entry DARQOF is in the monoclinic crystal system
# The framework has been calculated to contain at least 10.0% void space
# The void calculation uses a probe of radius 1.32A, grid spacing 0.4
#
###############################################################################

data_DARQOF
_chemical_formula_moiety         '(C204 H176 N32 O70 Zn16)n'
_symmetry_cell_setting           triclinic
_symmetry_space_group_name_H-M   'P 1'
_symmetry_Int_Tables_number      1
_space_group_name_Hall           'P 1'
loop_
_symmetry_equiv_pos_site_id
_symmetry_equiv_pos_as_xyz
1 x,y,z
_cell_length_a                   15.977(4)
_cell_length_b                   29.903(8)
_cell_length_c                   21.397(6)
_cell_angle_alpha                90
_cell_angle_beta                 96.578(15)
_cell_angle_gamma                90
_cell_volume                     10155.3
loop_
_atom_site_label
_atom_site_type_symbol
_atom_site_fract_x
_atom_site_fract_y
_atom_site_fract_z
O7 O 0.2520(2) 0.30296(13) 0.85769(19)
O8 O 0.5705(2) 0.74832(12) 0.12939(16)
O9 O 0.5357(2) 0.80817(12) 0.06961(18)
O14 O 0.1439(2) 0.26199(12) 0.87949(18)
O17 O 0.2122(3) 0.75170(18) 0.2910(3)
O18 O 0.0156(3) 0.46714(16) 0.6937(3)
N3 N 0.2286(4) 0.8113(2) 0.2278(3)
H2 H 0.2059 0.8367 0.2171
N6 N 0.1147(3) 0.8073(2) 0.2806(3)
H4 H 0.1039 0.8322 0.2612
C3 C 0.0089(4) 0.37401(19) 0.7274(3)
C4 C 0.4289(4) 0.7612(2) 0.1930(3)
H9 H 0.4665 0.7387 0.2073
C12 C 0.0567(4) 0.7936(2) 0.3198(3)
C13 C 0.4477(3) 0.78721(18) 0.1448(3)
C14 C 0.5234(3) 0.78045(17) 0.1126(2)
C18 C 0.3935(4) 0.8222(2) 0.1257(3)
H16 H 0.4052 0.8407 0.0929
C21 C 0.0678(4) 0.7592(2) 0.3627(4)
H18 H 0.1173 0.7427 0.3661
C22 C 0.3570(4) 0.7663(2) 0.2218(3)
H19 H 0.3452 0.7472 0.2539
C25 C 0.1884(4) 0.7859(2) 0.2686(4)
C28 C 0.0369(4) 0.3073(2) 0.7880(4)
H22 H 0.0176 0.2803 0.8025
C29 C 0.3026(4) 0.8006(2) 0.2017(3)
C36 C 0.1193(3) 0.31996(17) 0.8056(3)
C39 C 0.1767(3) 0.29304(16) 0.8508(2)
C41 C 0.3227(4) 0.8295(3) 0.1550(4)
H29 H 0.2882 0.8538 0.1435
C43 C 0.1466(4) 0.3590(2) 0.7816(4)
H31 H 0.2020 0.3681 0.7929
C46 C 0.0075(4) 0.7492(2) 0.4001(3)
H33 H 0.0157 0.7253 0.4280
C51 C 0.0941(4) 0.3852(2) 0.7411(4)
H44 H 0.1154 0.4104 0.7229
Zn7 Zn 0.34710(3) 0.28320(2) 0.91814(2)
Zn8 Zn 0.65290(3) 0.71680(2) 0.08186(2)
Zn9 Zn 0.62840(3) 0.81186(2) 0.01914(2)
Zn10 Zn 0.19038(3) 0.22732(2) 0.95373(3)
O15 O 0.4106(2) 0.33818(11) 0.94117(17)
C2 C 0.4996(4) 0.41289(17) 0.9975(2)
H8 H 0.5126 0.4042 0.9580
C38 C 0.3910(3) 0.35173(15) 0.9938(2)
Zn3 Zn 0.37160(3) 0.18814(2) 0.98086(2)
O1 O 0.30674(18) 0.24199(9) 0.97712(13)
O11 O 0.3028(2) 0.13891(12) 0.9407(2)
O13 O 0.1716(2) 0.16481(11) 0.92748(18)
C5 C 0.2212(5) 0.0112(2) 0.8979(5)
C8 C 0.1126(4) 0.08148(19) 0.8820(3)
H12 H 0.0761 0.1057 0.8759
C10 C 0.1379(4) 0.0037(2) 0.8727(4)
C17 C 0.2475(4) 0.0522(2) 0.9162(4)
H15 H 0.3023 0.0561 0.9352
C30 C 0.0830(4) 0.0394(2) 0.8652(4)
H23 H 0.0270 0.0352 0.8492
C32 C 0.2252(4) 0.13393(16) 0.9270(2)
C45 C 0.1946(3) 0.08885(17) 0.9074(3)
H38 H 0.5823 0.2620 0.9934
H40 H 0.5758 0.3133 0.9779
O21 O 0.4295(2) 0.25168(12) 0.87061(16)
O22 O 0.4643(2) 0.19183(12) 0.93039(18)
O15_2 O 0.5894(2) 0.66182(11) 0.05883(17)
C2_2 C 0.5004(4) 0.58711(17) 0.0025(2)
H8_2 H 0.4874 0.5958 0.0420
C38_2 C 0.6090(3) 0.64827(15) 0.0062(2)
O7_2 O 0.7480(2) 0.69704(13) 0.14231(19)
O14_2 O 0.8561(2) 0.73801(12) 0.12051(18)
O17_2 O 0.7878(3) 0.24830(18) 0.7090(3)
O18_2 O 0.9844(3) 0.53286(16) 0.3063(3)
N3_2 N 0.7714(4) 0.1887(2) 0.7722(3)
H2_2 H 0.7941 0.1633 0.7829
N6_2 N 0.8853(3) 0.1927(2) 0.7194(3)
H4_2 H 0.8961 0.1678 0.7388
C3_2 C 0.9911(4) 0.62599(19) 0.2726(3)
C4_2 C 0.5711(4) 0.2388(2) 0.8070(3)
H9_2 H 0.5335 0.2613 0.7927
C12_2 C 0.9433(4) 0.2064(2) 0.6802(3)
C13_2 C 0.5523(3) 0.21279(18) 0.8552(3)
C14_2 C 0.4766(3) 0.21955(17) 0.8874(2)
C18_2 C 0.6065(4) 0.1778(2) 0.8743(3)
H16_2 H 0.5948 0.1593 0.9071
C21_2 C 0.9322(4) 0.2408(2) 0.6373(4)
H18_2 H 0.8827 0.2573 0.6339
C22_2 C 0.6430(4) 0.2337(2) 0.7782(3)
H19_2 H 0.6548 0.2528 0.7461
C25_2 C 0.8116(4) 0.2141(2) 0.7314(4)
C28_2 C 0.9631(4) 0.6927(2) 0.2120(4)
H22_2 H 0.9824 0.7197 0.1975
C29_2 C 0.6974(4) 0.1994(2) 0.7983(3)
C36_2 C 0.8807(3) 0.68004(17) 0.1944(3)
C39_2 C 0.8233(3) 0.70696(16) 0.1492(2)
C41_2 C 0.6773(4) 0.1705(3) 0.8450(4)
H29_2 H 0.7118 0.1462 0.8565
C43_2 C 0.8534(4) 0.6410(2) 0.2184(4)
H31_2 H 0.7980 0.6319 0.2071
C46_2 C 0.9925(4) 0.2508(2) 0.5999(3)
H33_2 H 0.9843 0.2747 0.5720
C51_2 C 0.9059(4) 0.6148(2) 0.2589(4)
H44_2 H 0.8846 0.5896 0.2771
Zn10_2 Zn 0.80962(3) 0.77268(2) 0.04627(3)
O1_2 O 0.69326(18) 0.75801(9) 0.02288(13)
O11_2 O 0.6972(2) 0.86109(12) 0.0593(2)
O13_2 O 0.8284(2) 0.83519(11) 0.07252(18)
C5_2 C 0.7788(5) 0.9888(2) 0.1021(5)
C8_2 C 0.8874(4) 0.91852(19) 0.1180(3)
H12_2 H 0.9239 0.8943 0.1241
C10_2 C 0.8621(4) 0.9963(2) 0.1273(4)
C17_2 C 0.7525(4) 0.9478(2) 0.0838(4)
H15_2 H 0.6977 0.9439 0.0648
C30_2 C 0.9170(4) 0.9606(2) 0.1348(4)
H23_2 H 0.9730 0.9648 0.1508
C32_2 C 0.7748(4) 0.86607(16) 0.0730(2)
C45_2 C 0.8054(3) 0.91115(17) 0.0926(3)
H38_2 H 0.4177 0.7380 0.0066
H40_2 H 0.4242 0.6867 0.0221
Zn1 Zn 0.67394(3) 0.77017(2) 0.43655(2)
Zn2 Zn 0.65290(3) 0.78320(2) 0.58186(2)
Zn3_2 Zn 0.62840(3) 0.68814(2) 0.51914(2)
Zn4 Zn 0.80962(3) 0.72732(2) 0.54627(3)
O1_3 O 0.69326(18) 0.74199(9) 0.52288(13)
O2 O 0.7987(2) 0.78230(12) 0.42704(19)
O3 O 0.6452(3) 0.80233(14) 0.34941(18)
O4 O 0.6688(3) 0.71030(12) 0.38509(17)
O5 O 0.3337(2) 0.33408(11) 0.02091(18)
O6 O 0.5404(2) 0.76613(13) 0.4451(2)
O10 O 0.5963(2) 0.66283(12) 0.43681(16)
O11_3 O 0.6972(2) 0.63891(12) 0.5593(2)
O12 O 0.8869(2) 0.73587(14) 0.48362(19)
O13_3 O 0.8284(2) 0.66481(11) 0.57252(18)
O16 O 0.5043(4) 0.50787(18) 0.2037(2)
N1 N 0.5944(3) 0.56013(15) 0.1753(2)
H1 H 0.6224 0.5686 0.1454
N2 N 0.6909(4) 0.81792(19) 0.2563(2)
N4 N 0.8849(3) 0.45898(16) 0.6420(4)
H3 H 0.8501 0.4388 0.6267
N5 N 0.4144(4) 0.8003(2) 0.4307(3)
N7 N 0.5666(3) 0.49918(16) 0.1135(2)
H5 H 0.6070 0.5093 0.0942
N8 N 0.9497(3) 0.39963(17) 0.6899(3)
H6 H 0.9055 0.3859 0.6731
C1 C 0.4249(4) 0.40274(19) 0.0851(3)
H7 H 0.3856 0.3869 0.1053
C5_3 C 0.7788(5) 0.5112(2) 0.6021(5)
H10 H 0.7410 0.4874 0.5979
C6 C 0.6244(4) 0.63127(18) 0.2228(3)
H11 H 0.6362 0.6415 0.1837
C7 C 0.5236(4) 0.46152(17) 0.0868(3)
C8_3 C 0.8874(4) 0.58148(19) 0.6180(3)
H12_3 H 0.9239 0.6057 0.6241
C9 C 0.9828(4) 0.3337(2) 0.7496(4)
H13 H 0.9277 0.3243 0.7384
C10_3 C 0.8621(4) 0.5037(2) 0.6273(4)
C11 C 0.5512(4) 0.5214(2) 0.1666(3)
C15 C 0.6902(4) 0.7953(2) 0.3079(3)
H14 H 0.7274 0.7714 0.3139
C16 C 0.8682(4) 0.76368(17) 0.4384(3)
C17_3 C 0.7525(4) 0.5522(2) 0.5838(4)
H15_3 H 0.6977 0.5561 0.5648
C19 C 0.9545(4) 0.4443(2) 0.6771(4)
C20 C 0.6332(4) 0.65946(18) 0.2738(2)
H17 H 0.6521 0.6885 0.2688
C23 C 0.5868(5) 0.60307(19) 0.3377(3)
H20 H 0.5724 0.5933 0.3763
C24 C 0.9342(3) 0.77365(18) 0.3974(3)
C26 C 0.5983(4) 0.58842(19) 0.2295(3)
C27 C 0.4655(4) 0.4376(2) 0.1161(3)
H21 H 0.4543 0.4451 0.1565
C30_3 C 0.9170(4) 0.5394(2) 0.6348(4)
H23_3 H 0.9730 0.5352 0.6508
C31 C 0.4387(4) 0.38957(16) 0.0256(2)
C32_3 C 0.7748(4) 0.63393(16) 0.5730(2)
C33 C 0.5792(5) 0.5740(2) 0.2871(3)
H24 H 0.5612 0.5448 0.2921
C34 C 0.6283(3) 0.67545(16) 0.3887(2)
C35 C 0.6309(7) 0.8527(3) 0.2412(4)
H25 H 0.5851 0.8493 0.2661
H26 H 0.6099 0.8509 0.1974
H27 H 0.6574 0.8812 0.2498
C37 C 0.4879(4) 0.7889(2) 0.4120(3)
H28 H 0.5004 0.7983 0.3727
C40 C 0.6149(3) 0.64596(17) 0.3322(2)
C42 C 0.5403(4) 0.44830(18) 0.0269(3)
H30 H 0.5799 0.4639 0.0068
C44 C 0.9220(4) 0.8078(2) 0.3536(3)
H32 H 0.8719 0.8240 0.3497
C45_3 C 0.8054(3) 0.58885(17) 0.5926(3)
C47 C 0.9829(4) 0.8179(2) 0.3161(3)
H34 H 0.9747 0.8415 0.2877
C48 C 0.3547(6) 0.8281(4) 0.3909(6)
H35 H 0.3795 0.8371 0.3541
H36 H 0.3412 0.8542 0.4140
H37 H 0.3043 0.8114 0.3786
C49 C 0.3969(6) 0.7912(4) 0.4942(6)
H38_3 H 0.4177 0.7620 0.5066
H39 H 0.3372 0.7923 0.4960
H40_3 H 0.4242 0.8133 0.5221
C50 C 0.7480(6) 0.8077(3) 0.2111(3)
H41 H 0.7876 0.8317 0.2097
H42 H 0.7168 0.8039 0.1704
H43 H 0.7777 0.7805 0.2231
Zn5 Zn 0.32606(3) 0.27017(2) 0.06345(2)
O19 O 0.6663(2) 0.83408(11) 0.47909(18)
O20 O 0.7480(2) 0.80296(13) 0.64231(19)
O21_2 O 0.5705(2) 0.75168(12) 0.62939(16)
O22_2 O 0.5357(2) 0.69183(12) 0.56961(18)
O23 O 0.8561(2) 0.76199(12) 0.62051(18)
O24 O 0.5894(2) 0.83818(11) 0.55883(17)
O2_2 O 0.2013(2) 0.28230(12) 0.07296(19)
O3_2 O 0.3548(3) 0.30233(14) 0.15059(18)
O4_2 O 0.3312(3) 0.21030(12) 0.11491(17)
O6_2 O 0.4596(2) 0.26613(13) 0.0549(2)
O10_2 O 0.4037(2) 0.16283(12) 0.06319(16)
O12_2 O 0.1131(2) 0.23587(14) 0.01638(19)
O16_2 O 0.4957(4) 0.00787(18) 0.2963(2)
N1_2 N 0.4056(3) 0.06013(15) 0.3247(2)
H1_2 H 0.3776 0.0686 0.3546
N2_2 N 0.3091(4) 0.31792(19) 0.2437(2)
N5_2 N 0.5856(4) 0.3003(2) 0.0693(3)
H5_2 H 0.3930 0.0093 0.4058
C6_2 C 0.3756(4) 0.13127(18) 0.2772(3)
H11_2 H 0.3638 0.1415 0.3163
C11_2 C 0.4488(4) 0.0214(2) 0.3334(3)
C15_2 C 0.3098(4) 0.2953(2) 0.1921(3)
H14_2 H 0.2726 0.2714 0.1861
C16_2 C 0.1318(4) 0.26368(17) 0.0616(3)
C20_2 C 0.3668(4) 0.15946(18) 0.2262(2)
H17_2 H 0.3479 0.1885 0.2312
C23_2 C 0.4132(5) 0.10307(19) 0.1623(3)
H20_2 H 0.4276 0.0933 0.1237
C24_2 C 0.0658(3) 0.27365(18) 0.1026(3)
C26_2 C 0.4017(4) 0.08842(19) 0.2705(3)
C33_2 C 0.4208(5) 0.0740(2) 0.2129(3)
H24_2 H 0.4388 0.0448 0.2079
C34_2 C 0.3717(3) 0.17545(16) 0.1113(2)
C35_2 C 0.3691(7) 0.3527(3) 0.2588(4)
H25_2 H 0.4149 0.3493 0.2339
H26_2 H 0.3901 0.3509 0.3026
H27_2 H 0.3426 0.3812 0.2502
C37_2 C 0.5121(4) 0.2889(2) 0.0880(3)
H28_2 H 0.4996 0.2983 0.1273
C40_2 C 0.3851(3) 0.14596(17) 0.1678(2)
C44_2 C 0.0780(4) 0.3078(2) 0.1464(3)
H32_2 H 0.1281 0.3240 0.1503
C47_2 C 0.0171(4) 0.3179(2) 0.1839(3)
H34_2 H 0.0253 0.3415 0.2123
C48_2 C 0.6453(6) 0.3281(4) 0.1091(6)
H35_2 H 0.6205 0.3371 0.1459
H36_2 H 0.6588 0.3542 0.0860
H37_2 H 0.6957 0.3114 0.1214
C49_2 C 0.6031(6) 0.2912(4) 0.0058(6)
H39_2 H 0.6628 0.2923 0.0040
C50_2 C 0.2520(6) 0.3077(3) 0.2889(3)
H41_2 H 0.2124 0.3317 0.2903
H42_2 H 0.2832 0.3039 0.3296
H43_2 H 0.2223 0.2805 0.2769
N7_2 N 0.4334(3) 0.99918(16) 0.3865(2)
C1_2 C 0.5751(4) 0.90274(19) 0.4149(3)
H7_2 H 0.6144 0.8869 0.3947
C2_3 C 0.5004(4) 0.91289(17) 0.5025(2)
H8_3 H 0.4874 0.9042 0.5420
C7_2 C 0.4764(4) 0.96152(17) 0.4132(3)
C27_2 C 0.5345(4) 0.9376(2) 0.3839(3)
H21_2 H 0.5457 0.9451 0.3435
C31_2 C 0.5613(4) 0.88957(16) 0.4744(2)
C38_3 C 0.6090(3) 0.85173(15) 0.5062(2)
C42_2 C 0.4597(4) 0.94830(18) 0.4731(3)
H30_2 H 0.4201 0.9639 0.4932
O18_3 O 0.9844(3) 0.96714(16) 0.8063(3)
C3_3 C 0.9911(4) 0.87401(19) 0.7726(3)
C28_3 C 0.9631(4) 0.8073(2) 0.7120(4)
H22_3 H 0.9824 0.7803 0.6975
C36_3 C 0.8807(3) 0.81996(17) 0.6944(3)
C39_3 C 0.8233(3) 0.79304(16) 0.6492(2)
C43_3 C 0.8534(4) 0.8590(2) 0.7184(4)
H31_3 H 0.7980 0.8681 0.7071
C51_3 C 0.9059(4) 0.8852(2) 0.7589(4)
H44_3 H 0.8846 0.9104 0.7771
O17_3 O 0.2122(3) 0.74830(18) 0.7910(3)
N3_3 N 0.2286(4) 0.6887(2) 0.7278(3)
H2_3 H 0.2059 0.6633 0.7171
N6_3 N 0.1147(3) 0.6927(2) 0.7806(3)
H4_3 H 0.1039 0.6678 0.7612
C4_3 C 0.4289(4) 0.7388(2) 0.6930(3)
H9_3 H 0.4665 0.7613 0.7073
C12_3 C 0.0567(4) 0.7064(2) 0.8198(3)
C13_3 C 0.4477(3) 0.71279(18) 0.6448(3)
C14_3 C 0.5234(3) 0.71955(17) 0.6126(2)
C18_3 C 0.3935(4) 0.6778(2) 0.6257(3)
H16_3 H 0.4052 0.6593 0.5929
C21_3 C 0.0678(4) 0.7408(2) 0.8627(4)
H18_3 H 0.1173 0.7573 0.8661
C22_3 C 0.3570(4) 0.7337(2) 0.7218(3)
H19_3 H 0.3452 0.7528 0.7539
C25_3 C 0.1884(4) 0.7141(2) 0.7686(4)
C29_3 C 0.3026(4) 0.6994(2) 0.7017(3)
C41_3 C 0.3227(4) 0.6705(3) 0.6550(4)
H29_3 H 0.2882 0.6462 0.6435
C46_3 C 0.0075(4) 0.7508(2) 0.9001(3)
H33_3 H 0.0157 0.7747 0.9280
N4_2 N 0.1151(3) 0.95898(16) 0.8580(4)
H3_2 H 0.1499 0.9388 0.8733
N8_2 N 0.0503(3) 0.89963(17) 0.8101(3)
H6_2 H 0.0945 0.8859 0.8269
H10_2 H 0.2590 0.9874 0.9021
C9_2 C 0.0172(4) 0.8337(2) 0.7504(4)
H13_2 H 0.0723 0.8243 0.7616
C19_2 C 0.0455(4) 0.9443(2) 0.8229(4)
O8_2 O 0.4295(2) 0.24832(12) 0.37061(16)
O9_2 O 0.4643(2) 0.30817(12) 0.43039(18)
O17_4 O 0.7878(3) 0.25170(18) 0.2090(3)
N3_4 N 0.7714(4) 0.3113(2) 0.2722(3)
H2_4 H 0.7941 0.3367 0.2829
N6_4 N 0.8853(3) 0.3073(2) 0.2194(3)
H4_4 H 0.8961 0.3322 0.2388
C4_4 C 0.5711(4) 0.2612(2) 0.3070(3)
H9_4 H 0.5335 0.2387 0.2927
C12_4 C 0.9433(4) 0.2936(2) 0.1802(3)
C13_4 C 0.5523(3) 0.28721(18) 0.3552(3)
C14_4 C 0.4766(3) 0.28045(17) 0.3874(2)
C18_4 C 0.6065(4) 0.3222(2) 0.3743(3)
H16_4 H 0.5948 0.3407 0.4071
C21_4 C 0.9322(4) 0.2592(2) 0.1373(4)
H18_4 H 0.8827 0.2427 0.1339
C22_4 C 0.6430(4) 0.2663(2) 0.2782(3)
H19_4 H 0.6548 0.2472 0.2461
C25_4 C 0.8116(4) 0.2859(2) 0.2314(4)
C29_4 C 0.6974(4) 0.3006(2) 0.2983(3)
C41_4 C 0.6773(4) 0.3295(3) 0.3450(4)
H29_4 H 0.7118 0.3538 0.3565
C46_4 C 0.9925(4) 0.2492(2) 0.0999(3)
H33_4 H 0.9843 0.2253 0.0720
Zn8_2 Zn 0.34710(3) 0.21680(2) 0.41814(2)
Zn9_2 Zn 0.37160(3) 0.31186(2) 0.48086(2)
Zn1_2 Zn 0.32606(3) 0.22983(2) 0.56345(2)
Zn4_2 Zn 0.19038(3) 0.27268(2) 0.45373(3)
O1_4 O 0.30674(18) 0.25801(9) 0.47712(13)
O2_3 O 0.2013(2) 0.21770(12) 0.57296(19)
O3_3 O 0.3548(3) 0.19767(14) 0.65059(18)
O4_3 O 0.3312(3) 0.28970(12) 0.61491(17)
O5_2 O 0.6663(2) 0.66592(11) 0.97909(18)
O6_3 O 0.4596(2) 0.23387(13) 0.5549(2)
O10_3 O 0.4037(2) 0.33717(12) 0.56319(16)
O11_4 O 0.3028(2) 0.36109(12) 0.4407(2)
O12_3 O 0.1131(2) 0.26413(14) 0.51638(19)
O13_4 O 0.1716(2) 0.33519(11) 0.42748(18)
O16_3 O 0.4957(4) 0.49213(18) 0.7963(2)
N1_3 N 0.4056(3) 0.43987(15) 0.8247(2)
H1_3 H 0.3776 0.4314 0.8546
N2_3 N 0.3091(4) 0.18208(19) 0.7437(2)
N4_3 N 0.1151(3) 0.54102(16) 0.3580(4)
H3_3 H 0.1499 0.5612 0.3733
N5_3 N 0.5856(4) 0.1997(2) 0.5693(3)
N7_3 N 0.4334(3) 0.50082(16) 0.8865(2)
H5_3 H 0.3930 0.4907 0.9058
N8_3 N 0.0503(3) 0.60037(17) 0.3101(3)
H6_3 H 0.0945 0.6141 0.3269
C1_3 C 0.5751(4) 0.59726(19) 0.9149(3)
H7_3 H 0.6144 0.6131 0.8947
C5_4 C 0.2212(5) 0.4888(2) 0.3979(5)
H10_3 H 0.2590 0.5126 0.4021
C6_3 C 0.3756(4) 0.36873(18) 0.7772(3)
H11_3 H 0.3638 0.3585 0.8163
C7_3 C 0.4764(4) 0.53848(17) 0.9132(3)
C8_4 C 0.1126(4) 0.41852(19) 0.3820(3)
H12_4 H 0.0761 0.3943 0.3759
C9_3 C 0.0172(4) 0.6663(2) 0.2504(4)
H13_3 H 0.0723 0.6757 0.2616
C10_4 C 0.1379(4) 0.4963(2) 0.3727(4)
C11_3 C 0.4488(4) 0.4786(2) 0.8334(3)
C15_3 C 0.3098(4) 0.2047(2) 0.6921(3)
H14_3 H 0.2726 0.2286 0.6861
C16_3 C 0.1318(4) 0.23632(17) 0.5616(3)
C17_4 C 0.2475(4) 0.4478(2) 0.4162(4)
H15_4 H 0.3023 0.4439 0.4352
C19_3 C 0.0455(4) 0.5557(2) 0.3229(4)
C20_3 C 0.3668(4) 0.34054(18) 0.7262(2)
H17_3 H 0.3479 0.3115 0.7312
C23_3 C 0.4132(5) 0.39693(19) 0.6623(3)
H20_3 H 0.4276 0.4067 0.6237
C24_3 C 0.0658(3) 0.22635(18) 0.6026(3)
C26_3 C 0.4017(4) 0.41158(19) 0.7705(3)
C27_3 C 0.5345(4) 0.5624(2) 0.8839(3)
H21_3 H 0.5457 0.5549 0.8435
C30_4 C 0.0830(4) 0.4606(2) 0.3652(4)
H23_4 H 0.0270 0.4648 0.3492
C31_3 C 0.5613(4) 0.61043(16) 0.9744(2)
C32_4 C 0.2252(4) 0.36607(16) 0.4270(2)
C33_3 C 0.4208(5) 0.4260(2) 0.7129(3)
H24_3 H 0.4388 0.4552 0.7079
C34_3 C 0.3717(3) 0.32455(16) 0.6113(2)
C35_3 C 0.3691(7) 0.1473(3) 0.7588(4)
H25_3 H 0.4149 0.1507 0.7339
H26_3 H 0.3901 0.1491 0.8026
H27_3 H 0.3426 0.1188 0.7502
C37_3 C 0.5121(4) 0.2111(2) 0.5880(3)
H28_3 H 0.4996 0.2017 0.6273
C40_3 C 0.3851(3) 0.35404(17) 0.6678(2)
C42_3 C 0.4597(4) 0.55170(18) 0.9731(3)
H30_3 H 0.4201 0.5361 0.9932
C44_3 C 0.0780(4) 0.1922(2) 0.6464(3)
H32_3 H 0.1281 0.1760 0.6503
C45_4 C 0.1946(3) 0.41115(17) 0.4074(3)
C47_3 C 0.0171(4) 0.1821(2) 0.6839(3)
H34_3 H 0.0253 0.1585 0.7123
C48_3 C 0.6453(6) 0.1719(4) 0.6091(6)
H35_3 H 0.6205 0.1629 0.6459
H36_3 H 0.6588 0.1458 0.5860
H37_3 H 0.6957 0.1886 0.6214
C49_3 C 0.6031(6) 0.2088(4) 0.5058(6)
H38_4 H 0.5823 0.2380 0.4934
H39_3 H 0.6628 0.2077 0.5040
H40_4 H 0.5758 0.1867 0.4779
C50_3 C 0.2520(6) 0.1923(3) 0.7889(3)
H41_3 H 0.2124 0.1683 0.7903
H42_3 H 0.2832 0.1961 0.8296
H43_3 H 0.2223 0.2195 0.7769
Zn5_2 Zn 0.67394(3) 0.72983(2) 0.93655(2)
O19_2 O 0.3337(2) 0.16592(11) 0.52091(18)
O20_2 O 0.2520(2) 0.19704(13) 0.35769(19)
O23_2 O 0.1439(2) 0.23801(12) 0.37949(18)
O24_2 O 0.4106(2) 0.16182(11) 0.44117(17)
O18_4 O 0.0156(3) 0.03286(16) 0.1937(3)
C3_4 C 0.0089(4) 0.12599(19) 0.2274(3)
C28_4 C 0.0369(4) 0.1927(2) 0.2880(4)
H22_4 H 0.0176 0.2197 0.3025
C36_4 C 0.1193(3) 0.18004(17) 0.3056(3)
C39_4 C 0.1767(3) 0.20696(16) 0.3508(2)
C43_4 C 0.1466(4) 0.1410(2) 0.2816(4)
H31_4 H 0.2020 0.1319 0.2929
C51_4 C 0.0941(4) 0.1148(2) 0.2411(4)
H44_4 H 0.1154 0.0896 0.2229
N7_4 N 0.5666(3) 0.00082(16) 0.6135(2)
C1_4 C 0.4249(4) 0.09726(19) 0.5851(3)
H7_4 H 0.3856 0.1131 0.6053
C2_4 C 0.4996(4) 0.08711(17) 0.4975(2)
H8_4 H 0.5126 0.0958 0.4580
C7_4 C 0.5236(4) 0.03848(17) 0.5868(3)
C27_4 C 0.4655(4) 0.0624(2) 0.6161(3)
H21_4 H 0.4543 0.0549 0.6565
C31_4 C 0.4387(4) 0.11043(16) 0.5256(2)
C38_4 C 0.3910(3) 0.14827(15) 0.4938(2)
C42_4 C 0.5403(4) 0.05170(18) 0.5269(3)
H30_4 H 0.5799 0.0361 0.5068
O2_4 O 0.7987(2) 0.71770(12) 0.92704(19)
O3_4 O 0.6452(3) 0.69767(14) 0.84941(18)
O4_4 O 0.6688(3) 0.78970(12) 0.88509(17)
O6_4 O 0.5404(2) 0.73387(13) 0.9451(2)
O10_4 O 0.5963(2) 0.83717(12) 0.93681(16)
O12_4 O 0.8869(2) 0.76413(14) 0.98362(19)
O16_4 O 0.5043(4) 0.99213(18) 0.7037(2)
N1_4 N 0.5944(3) 0.93987(15) 0.6753(2)
H1_4 H 0.6224 0.9314 0.6454
N2_4 N 0.6909(4) 0.68208(19) 0.7563(2)
N5_4 N 0.4144(4) 0.6997(2) 0.9307(3)
H5_4 H 0.6070 0.9907 0.5942
C6_4 C 0.6244(4) 0.86873(18) 0.7228(3)
H11_4 H 0.6362 0.8585 0.6837
C11_4 C 0.5512(4) 0.9786(2) 0.6666(3)
C15_4 C 0.6902(4) 0.7047(2) 0.8079(3)
H14_4 H 0.7274 0.7286 0.8139
C16_4 C 0.8682(4) 0.73632(17) 0.9384(3)
C20_4 C 0.6332(4) 0.84054(18) 0.7738(2)
H17_4 H 0.6521 0.8115 0.7688
C23_4 C 0.5868(5) 0.89693(19) 0.8377(3)
H20_4 H 0.5724 0.9067 0.8763
C24_4 C 0.9342(3) 0.72635(18) 0.8974(3)
C26_4 C 0.5983(4) 0.91158(19) 0.7295(3)
C33_4 C 0.5792(5) 0.9260(2) 0.7871(3)
H24_4 H 0.5612 0.9552 0.7921
C34_4 C 0.6283(3) 0.82455(16) 0.8887(2)
C35_4 C 0.6309(7) 0.6473(3) 0.7412(4)
H25_4 H 0.5851 0.6507 0.7661
H26_4 H 0.6099 0.6491 0.6974
H27_4 H 0.6574 0.6188 0.7498
C37_4 C 0.4879(4) 0.7111(2) 0.9120(3)
H28_4 H 0.5004 0.7017 0.8727
C40_4 C 0.6149(3) 0.85404(17) 0.8322(2)
C44_4 C 0.9220(4) 0.6922(2) 0.8536(3)
H32_4 H 0.8719 0.6760 0.8497
C47_4 C 0.9829(4) 0.6821(2) 0.8161(3)
H34_4 H 0.9747 0.6585 0.7877
C48_4 C 0.3547(6) 0.6719(4) 0.8909(6)
H35_4 H 0.3795 0.6629 0.8541
H36_4 H 0.3412 0.6458 0.9140
H37_4 H 0.3043 0.6886 0.8786
C49_4 C 0.3969(6) 0.7088(4) 0.9942(6)
H39_4 H 0.3372 0.7077 0.9960
C50_4 C 0.7480(6) 0.6923(3) 0.7111(3)
H41_4 H 0.7876 0.6683 0.7097
H42_4 H 0.7168 0.6961 0.6704
H43_4 H 0.7777 0.7195 0.7231
N4_4 N 0.8849(3) 0.04102(16) 0.1420(4)
H3_4 H 0.8501 0.0612 0.1267
N8_4 N 0.9497(3) 0.10037(17) 0.1899(3)
H6_4 H 0.9055 0.1141 0.1731
H10_4 H 0.7410 0.0126 0.0979
C9_4 C 0.9828(4) 0.1663(2) 0.2496(4)
H13_4 H 0.9277 0.1757 0.2384
C19_4 C 0.9545(4) 0.0557(2) 0.1771(4)
loop_
_geom_bond_atom_site_label_1
_geom_bond_atom_site_label_2
_geom_bond_site_symmetry_1
_geom_bond_site_symmetry_2
O7 C39 1_555 1_555
O8 C14 1_555 1_555
O9 C14 1_555 1_555
O14 C39 1_555 1_555
O17 C25 1_555 1_555
N3 H2 1_555 1_555
N6 H4 1_555 1_555
C4 H9 1_555 1_555
C12 N6 1_555 1_555
C13 C4 1_555 1_555
C14 C13 1_555 1_555
C18 C13 1_555 1_555
H16 C18 1_555 1_555
C21 C12 1_555 1_555
H18 C21 1_555 1_555
C22 C4 1_555 1_555
H19 C22 1_555 1_555
C25 N3 1_555 1_555
H22 C28 1_555 1_555
C29 N3 1_555 1_555
C36 C28 1_555 1_555
C39 C36 1_555 1_555
C41 C18 1_555 1_555
H29 C41 1_555 1_555
C43 C36 1_555 1_555
H31 C43 1_555 1_555
C46 C21 1_555 1_555
H33 C46 1_555 1_555
C51 C3 1_555 1_555
H44 C51 1_555 1_555
Zn7 O7 1_555 1_555
Zn8 O8 1_555 1_555
Zn9 O9 1_555 1_555
Zn10 O14 1_555 1_555
N6 C25 1_555 1_555
C22 C29 1_555 1_555
C29 C41 1_555 1_555
C43 C51 1_555 1_555
O15 C38 1_555 1_555
C2 H8 1_555 1_555
Zn7 O15 1_555 1_555
Zn7 O1 1_555 1_555
Zn3 O1 1_555 1_555
Zn10 O1 1_555 1_555
O11 Zn3 1_555 1_555
O13 Zn10 1_555 1_555
C8 H12 1_555 1_555
C17 C5 1_555 1_555
H15 C17 1_555 1_555
C30 C8 1_555 1_555
H23 C30 1_555 1_555
C32 O11 1_555 1_555
C45 C8 1_555 1_555
O21 Zn7 1_555 1_555
O22 Zn3 1_555 1_555
O13 C32 1_555 1_555
C5 C10 1_555 1_555
C10 C30 1_555 1_555
C17 C45 1_555 1_555
C32 C45 1_555 1_555
O15_2 C38_2 1_555 1_555
C2_2 H8_2 1_555 1_555
Zn8 O15_2 1_555 1_555
O7_2 C39_2 1_555 1_555
O21 C14_2 1_555 1_555
O22 C14_2 1_555 1_555
O14_2 C39_2 1_555 1_555
O17_2 C25_2 1_555 1_555
N3_2 H2_2 1_555 1_555
N6_2 H4_2 1_555 1_555
C4_2 H9_2 1_555 1_555
C12_2 N6_2 1_555 1_555
C13_2 C4_2 1_555 1_555
C14_2 C13_2 1_555 1_555
C18_2 C13_2 1_555 1_555
H16_2 C18_2 1_555 1_555
C21_2 C12_2 1_555 1_555
H18_2 C21_2 1_555 1_555
C22_2 C4_2 1_555 1_555
H19_2 C22_2 1_555 1_555
C25_2 N3_2 1_555 1_555
H22_2 C28_2 1_555 1_555
C29_2 N3_2 1_555 1_555
C36_2 C28_2 1_555 1_555
C39_2 C36_2 1_555 1_555
C41_2 C18_2 1_555 1_555
H29_2 C41_2 1_555 1_555
C43_2 C36_2 1_555 1_555
H31_2 C43_2 1_555 1_555
C46_2 C21_2 1_555 1_555
H33_2 C46_2 1_555 1_555
C51_2 C3_2 1_555 1_555
H44_2 C51_2 1_555 1_555
Zn8 O7_2 1_555 1_555
Zn10_2 O14_2 1_555 1_555
N6_2 C25_2 1_555 1_555
C22_2 C29_2 1_555 1_555
C29_2 C41_2 1_555 1_555
C43_2 C51_2 1_555 1_555
Zn8 O1_2 1_555 1_555
Zn9 O1_2 1_555 1_555
Zn10_2 O1_2 1_555 1_555
O11_2 Zn9 1_555 1_555
O13_2 Zn10_2 1_555 1_555
C8_2 H12_2 1_555 1_555
C17_2 C5_2 1_555 1_555
H15_2 C17_2 1_555 1_555
C30_2 C8_2 1_555 1_555
H23_2 C30_2 1_555 1_555
C32_2 O11_2 1_555 1_555
C45_2 C8_2 1_555 1_555
O13_2 C32_2 1_555 1_555
C5_2 C10_2 1_555 1_555
C10_2 C30_2 1_555 1_555
C17_2 C45_2 1_555 1_555
C32_2 C45_2 1_555 1_555
Zn1 O1_3 1_555 1_555
Zn2 O1_3 1_555 1_555
Zn3_2 O1_3 1_555 1_555
Zn4 O1_3 1_555 1_555
O2 Zn1 1_555 1_555
O3 Zn1 1_555 1_555
O4 Zn1 1_555 1_555
O6 Zn1 1_555 1_555
O10 Zn3_2 1_555 1_555
O11_3 Zn3_2 1_555 1_555
O12 Zn4 1_555 1_555
O13_3 Zn4 1_555 1_555
O16 C11 1_555 1_555
N1 H1 1_555 1_555
N2 C15 1_555 1_555
N4 H3 1_555 1_555
N5 C37 1_555 1_555
N7 H5 1_555 1_555
N8 H6 1_555 1_555
C1 H7 1_555 1_555
C5_3 H10 1_555 1_555
C6 H11 1_555 1_555
C7 N7 1_555 1_555
C8_3 H12_3 1_555 1_555
H13 C9 1_555 1_555
C10_3 N4 1_555 1_555
C11 N1 1_555 1_555
C15 O3 1_555 1_555
H14 C15 1_555 1_555
C16 O2 1_555 1_555
C17_3 C5_3 1_555 1_555
H15_3 C17_3 1_555 1_555
C19 N4 1_555 1_555
C20 C6 1_555 1_555
H17 C20 1_555 1_555
C23 H20 1_555 1_555
C24 C16 1_555 1_555
C26 N1 1_555 1_555
C27 C1 1_555 1_555
H21 C27 1_555 1_555
C30_3 C8_3 1_555 1_555
H23_3 C30_3 1_555 1_555
C31 C1 1_555 1_555
C32_3 O11_3 1_555 1_555
C33 C23 1_555 1_555
H24 C33 1_555 1_555
C34 O4 1_555 1_555
C35 N2 1_555 1_555
H25 C35 1_555 1_555
H26 C35 1_555 1_555
H27 C35 1_555 1_555
C37 O6 1_555 1_555
H28 C37 1_555 1_555
C40 C20 1_555 1_555
H30 C42 1_555 1_555
C44 C24 1_555 1_555
H32 C44 1_555 1_555
C45_3 C8_3 1_555 1_555
H34 C47 1_555 1_555
C48 N5 1_555 1_555
H35 C48 1_555 1_555
H36 C48 1_555 1_555
H37 C48 1_555 1_555
C49 N5 1_555 1_555
H38_3 C49 1_555 1_555
H39 C49 1_555 1_555
H40_3 C49 1_555 1_555
C50 N2 1_555 1_555
H41 C50 1_555 1_555
H42 C50 1_555 1_555
H43 C50 1_555 1_555
Zn5 O5 1_555 1_555
O19 Zn1 1_555 1_555
O20 Zn2 1_555 1_555
O21_2 Zn2 1_555 1_555
O22_2 Zn3_2 1_555 1_555
O23 Zn4 1_555 1_555
O24 Zn2 1_555 1_555
O10 C34 1_555 1_555
O12 C16 1_555 1_555
O13_3 C32_3 1_555 1_555
N7 C11 1_555 1_555
N8 C19 1_555 1_555
C5_3 C10_3 1_555 1_555
C6 C26 1_555 1_555
C7 C27 1_555 1_555
C7 C42 1_555 1_555
C10_3 C30_3 1_555 1_555
C17_3 C45_3 1_555 1_555
C23 C40 1_555 1_555
C26 C33 1_555 1_555
C32_3 C45_3 1_555 1_555
C34 C40 1_555 1_555
C44 C47 1_555 1_555
O2_2 Zn5 1_555 1_555
O3_2 Zn5 1_555 1_555
O4_2 Zn5 1_555 1_555
O6_2 Zn5 1_555 1_555
O16_2 C11_2 1_555 1_555
N1_2 H1_2 1_555 1_555
N2_2 C15_2 1_555 1_555
N5_2 C37_2 1_555 1_555
C6_2 H11_2 1_555 1_555
C11_2 N1_2 1_555 1_555
C15_2 O3_2 1_555 1_555
H14_2 C15_2 1_555 1_555
C16_2 O2_2 1_555 1_555
C20_2 C6_2 1_555 1_555
H17_2 C20_2 1_555 1_555
C23_2 H20_2 1_555 1_555
C24_2 C16_2 1_555 1_555
C26_2 N1_2 1_555 1_555
C33_2 C23_2 1_555 1_555
H24_2 C33_2 1_555 1_555
C34_2 O4_2 1_555 1_555
C35_2 N2_2 1_555 1_555
H25_2 C35_2 1_555 1_555
H26_2 C35_2 1_555 1_555
H27_2 C35_2 1_555 1_555
C37_2 O6_2 1_555 1_555
H28_2 C37_2 1_555 1_555
C40_2 C20_2 1_555 1_555
C44_2 C24_2 1_555 1_555
H32_2 C44_2 1_555 1_555
H34_2 C47_2 1_555 1_555
C48_2 N5_2 1_555 1_555
H35_2 C48_2 1_555 1_555
H36_2 C48_2 1_555 1_555
H37_2 C48_2 1_555 1_555
C49_2 N5_2 1_555 1_555
H39_2 C49_2 1_555 1_555
C50_2 N2_2 1_555 1_555
H41_2 C50_2 1_555 1_555
H42_2 C50_2 1_555 1_555
H43_2 C50_2 1_555 1_555
O10_2 C34_2 1_555 1_555
O12_2 C16_2 1_555 1_555
C6_2 C26_2 1_555 1_555
C23_2 C40_2 1_555 1_555
C26_2 C33_2 1_555 1_555
C34_2 C40_2 1_555 1_555
C44_2 C47_2 1_555 1_555
O19 C38_3 1_555 1_555
O24 C38_3 1_555 1_555
C1_2 H7_2 1_555 1_555
C2_3 H8_3 1_555 1_555
C7_2 N7_2 1_555 1_555
C27_2 C1_2 1_555 1_555
H21_2 C27_2 1_555 1_555
C31_2 C1_2 1_555 1_555
C38_3 C31_2 1_555 1_555
C42_2 C2_3 1_555 1_555
H30_2 C42_2 1_555 1_555
C2_3 C31_2 1_555 1_555
C7_2 C27_2 1_555 1_555
C7_2 C42_2 1_555 1_555
O20 C39_3 1_555 1_555
O23 C39_3 1_555 1_555
H22_3 C28_3 1_555 1_555
C36_3 C28_3 1_555 1_555
C39_3 C36_3 1_555 1_555
C43_3 C36_3 1_555 1_555
H31_3 C43_3 1_555 1_555
C51_3 C3_3 1_555 1_555
H44_3 C51_3 1_555 1_555
C43_3 C51_3 1_555 1_555
O21_2 C14_3 1_555 1_555
O22_2 C14_3 1_555 1_555
O17_3 C25_3 1_555 1_555
N3_3 H2_3 1_555 1_555
N6_3 H4_3 1_555 1_555
C4_3 H9_3 1_555 1_555
C12_3 N6_3 1_555 1_555
C13_3 C4_3 1_555 1_555
C14_3 C13_3 1_555 1_555
C18_3 C13_3 1_555 1_555
H16_3 C18_3 1_555 1_555
C21_3 C12_3 1_555 1_555
H18_3 C21_3 1_555 1_555
C22_3 C4_3 1_555 1_555
H19_3 C22_3 1_555 1_555
C25_3 N3_3 1_555 1_555
C29_3 N3_3 1_555 1_555
C41_3 C18_3 1_555 1_555
H29_3 C41_3 1_555 1_555
C46_3 C21_3 1_555 1_555
H33_3 C46_3 1_555 1_555
N6_3 C25_3 1_555 1_555
C22_3 C29_3 1_555 1_555
C29_3 C41_3 1_555 1_555
N4_2 H3_2 1_555 1_555
N8_2 H6_2 1_555 1_555
H13_2 C9_2 1_555 1_555
C19_2 N4_2 1_555 1_555
N8_2 C19_2 1_555 1_555
O8_2 C14_4 1_555 1_555
O9_2 C14_4 1_555 1_555
O17_4 C25_4 1_555 1_555
N3_4 H2_4 1_555 1_555
N6_4 H4_4 1_555 1_555
C4_4 H9_4 1_555 1_555
C12_4 N6_4 1_555 1_555
C13_4 C4_4 1_555 1_555
C14_4 C13_4 1_555 1_555
C18_4 C13_4 1_555 1_555
H16_4 C18_4 1_555 1_555
C21_4 C12_4 1_555 1_555
H18_4 C21_4 1_555 1_555
C22_4 C4_4 1_555 1_555
H19_4 C22_4 1_555 1_555
C25_4 N3_4 1_555 1_555
C29_4 N3_4 1_555 1_555
C41_4 C18_4 1_555 1_555
H29_4 C41_4 1_555 1_555
C46_4 C21_4 1_555 1_555
H33_4 C46_4 1_555 1_555
Zn8_2 O8_2 1_555 1_555
Zn9_2 O9_2 1_555 1_555
N6_4 C25_4 1_555 1_555
C22_4 C29_4 1_555 1_555
C29_4 C41_4 1_555 1_555
Zn1_2 O1_4 1_555 1_555
Zn8_2 O1_4 1_555 1_555
Zn9_2 O1_4 1_555 1_555
Zn4_2 O1_4 1_555 1_555
O2_3 Zn1_2 1_555 1_555
O3_3 Zn1_2 1_555 1_555
O4_3 Zn1_2 1_555 1_555
O6_3 Zn1_2 1_555 1_555
O10_3 Zn9_2 1_555 1_555
O11_4 Zn9_2 1_555 1_555
O12_3 Zn4_2 1_555 1_555
O13_4 Zn4_2 1_555 1_555
O16_3 C11_3 1_555 1_555
N1_3 H1_3 1_555 1_555
N2_3 C15_3 1_555 1_555
N4_3 H3_3 1_555 1_555
N5_3 C37_3 1_555 1_555
N7_3 H5_3 1_555 1_555
N8_3 H6_3 1_555 1_555
C1_3 H7_3 1_555 1_555
C5_4 H10_3 1_555 1_555
C6_3 H11_3 1_555 1_555
C7_3 N7_3 1_555 1_555
C8_4 H12_4 1_555 1_555
H13_3 C9_3 1_555 1_555
C10_4 N4_3 1_555 1_555
C11_3 N1_3 1_555 1_555
C15_3 O3_3 1_555 1_555
H14_3 C15_3 1_555 1_555
C16_3 O2_3 1_555 1_555
C17_4 C5_4 1_555 1_555
H15_4 C17_4 1_555 1_555
C19_3 N4_3 1_555 1_555
C20_3 C6_3 1_555 1_555
H17_3 C20_3 1_555 1_555
C23_3 H20_3 1_555 1_555
C24_3 C16_3 1_555 1_555
C26_3 N1_3 1_555 1_555
C27_3 C1_3 1_555 1_555
H21_3 C27_3 1_555 1_555
C30_4 C8_4 1_555 1_555
H23_4 C30_4 1_555 1_555
C31_3 C1_3 1_555 1_555
C32_4 O11_4 1_555 1_555
C33_3 C23_3 1_555 1_555
H24_3 C33_3 1_555 1_555
C34_3 O4_3 1_555 1_555
C35_3 N2_3 1_555 1_555
H25_3 C35_3 1_555 1_555
H26_3 C35_3 1_555 1_555
H27_3 C35_3 1_555 1_555
C37_3 O6_3 1_555 1_555
H28_3 C37_3 1_555 1_555
C40_3 C20_3 1_555 1_555
H30_3 C42_3 1_555 1_555
C44_3 C24_3 1_555 1_555
H32_3 C44_3 1_555 1_555
C45_4 C8_4 1_555 1_555
H34_3 C47_3 1_555 1_555
C48_3 N5_3 1_555 1_555
H35_3 C48_3 1_555 1_555
H36_3 C48_3 1_555 1_555
H37_3 C48_3 1_555 1_555
C49_3 N5_3 1_555 1_555
H38_4 C49_3 1_555 1_555
H39_3 C49_3 1_555 1_555
H40_4 C49_3 1_555 1_555
C50_3 N2_3 1_555 1_555
H41_3 C50_3 1_555 1_555
H42_3 C50_3 1_555 1_555
H43_3 C50_3 1_555 1_555
Zn5_2 O5_2 1_555 1_555
O19_2 Zn1_2 1_555 1_555
O20_2 Zn8_2 1_555 1_555
O23_2 Zn4_2 1_555 1_555
O24_2 Zn8_2 1_555 1_555
O10_3 C34_3 1_555 1_555
O12_3 C16_3 1_555 1_555
O13_4 C32_4 1_555 1_555
N7_3 C11_3 1_555 1_555
N8_3 C19_3 1_555 1_555
C5_4 C10_4 1_555 1_555
C6_3 C26_3 1_555 1_555
C7_3 C27_3 1_555 1_555
C7_3 C42_3 1_555 1_555
C10_4 C30_4 1_555 1_555
C17_4 C45_4 1_555 1_555
C23_3 C40_3 1_555 1_555
C26_3 C33_3 1_555 1_555
C32_4 C45_4 1_555 1_555
C34_3 C40_3 1_555 1_555
C44_3 C47_3 1_555 1_555
O20_2 C39_4 1_555 1_555
O23_2 C39_4 1_555 1_555
H22_4 C28_4 1_555 1_555
C36_4 C28_4 1_555 1_555
C39_4 C36_4 1_555 1_555
C43_4 C36_4 1_555 1_555
H31_4 C43_4 1_555 1_555
C51_4 C3_4 1_555 1_555
H44_4 C51_4 1_555 1_555
C43_4 C51_4 1_555 1_555
O19_2 C38_4 1_555 1_555
O24_2 C38_4 1_555 1_555
C1_4 H7_4 1_555 1_555
C2_4 H8_4 1_555 1_555
C7_4 N7_4 1_555 1_555
C27_4 C1_4 1_555 1_555
H21_4 C27_4 1_555 1_555
C31_4 C1_4 1_555 1_555
C38_4 C31_4 1_555 1_555
C42_4 C2_4 1_555 1_555
H30_4 C42_4 1_555 1_555
C2_4 C31_4 1_555 1_555
C7_4 C27_4 1_555 1_555
C7_4 C42_4 1_555 1_555
O2_4 Zn5_2 1_555 1_555
O3_4 Zn5_2 1_555 1_555
O4_4 Zn5_2 1_555 1_555
O6_4 Zn5_2 1_555 1_555
O16_4 C11_4 1_555 1_555
N1_4 H1_4 1_555 1_555
N2_4 C15_4 1_555 1_555
N5_4 C37_4 1_555 1_555
C6_4 H11_4 1_555 1_555
C11_4 N1_4 1_555 1_555
C15_4 O3_4 1_555 1_555
H14_4 C15_4 1_555 1_555
C16_4 O2_4 1_555 1_555
C20_4 C6_4 1_555 1_555
H17_4 C20_4 1_555 1_555
C23_4 H20_4 1_555 1_555
C24_4 C16_4 1_555 1_555
C26_4 N1_4 1_555 1_555
C33_4 C23_4 1_555 1_555
H24_4 C33_4 1_555 1_555
C34_4 O4_4 1_555 1_555
C35_4 N2_4 1_555 1_555
H25_4 C35_4 1_555 1_555
H26_4 C35_4 1_555 1_555
H27_4 C35_4 1_555 1_555
C37_4 O6_4 1_555 1_555
H28_4 C37_4 1_555 1_555
C40_4 C20_4 1_555 1_555
C44_4 C24_4 1_555 1_555
H32_4 C44_4 1_555 1_555
H34_4 C47_4 1_555 1_555
C48_4 N5_4 1_555 1_555
H35_4 C48_4 1_555 1_555
H36_4 C48_4 1_555 1_555
H37_4 C48_4 1_555 1_555
C49_4 N5_4 1_555 1_555
H39_4 C49_4 1_555 1_555
C50_4 N2_4 1_555 1_555
H41_4 C50_4 1_555 1_555
H42_4 C50_4 1_555 1_555
H43_4 C50_4 1_555 1_555
O10_4 C34_4 1_555 1_555
O12_4 C16_4 1_555 1_555
C6_4 C26_4 1_555 1_555
C23_4 C40_4 1_555 1_555
C26_4 C33_4 1_555 1_555
C34_4 C40_4 1_555 1_555
C44_4 C47_4 1_555 1_555
N4_4 H3_4 1_555 1_555
N8_4 H6_4 1_555 1_555
H13_4 C9_4 1_555 1_555
C19_4 N4_4 1_555 1_555
N8_4 C19_4 1_555 1_555

#END
