
###############################################################################
#
# This file contains modified crystal structure data generated from the
# MOF subset of the Cambridge Structural Database (CSD) v543 
# hosted by the Cambridge Crystallographic Data Centre (CCDC).
#
# This work is licensed under the Creative Commons
# Attribution-NonCommercial-ShareAlike 4.0 International License.
# To view a copy of this license, visit
# http://creativecommons.org/licenses/by-nc-sa/4.0/
# or send a letter to
# Creative Commons, PO Box 1866, Mountain View, CA 94042, USA.
#
# CIF created using the CSD Python API on 29 September 2022
# The structure has been converted into the P1 space group
# The structure has a 3D framework
# The original CSD entry DARVAW is in the monoclinic crystal system
# The framework has been calculated to contain at least 10.0% void space
# The void calculation uses a probe of radius 1.32A, grid spacing 0.4
#
###############################################################################

data_DARVAW
_chemical_formula_moiety         '(C16 H16 Co4 N14 O15)n'
_symmetry_cell_setting           triclinic
_symmetry_space_group_name_H-M   'P 1'
_symmetry_Int_Tables_number      1
_space_group_name_Hall           'P 1'
loop_
_symmetry_equiv_pos_site_id
_symmetry_equiv_pos_as_xyz
1 x,y,z
_cell_length_a                   9.1332(9)
_cell_length_b                   13.8397(12)
_cell_length_c                   9.0847(8)
_cell_angle_alpha                90
_cell_angle_beta                 117.392(5)
_cell_angle_gamma                90
_cell_volume                     1019.56
loop_
_atom_site_label
_atom_site_type_symbol
_atom_site_fract_x
_atom_site_fract_y
_atom_site_fract_z
Co1 Co 0.27759(15) 0.59584(9) 0.22192(13)
O1 O 0.0208(7) 0.6087(4) 0.1064(6)
O3 O 0.5261(7) 0.5555(4) 0.3408(6)
O4 O 0.7120(7) 0.4844(4) 0.5727(6)
C2 C 0.5707(10) 0.5114(6) 0.4762(9)
N1 N 0.3131(9) 0.7236(5) 0.3579(8)
N2 N 0.4320(10) 0.7894(5) 0.3835(9)
H1 H 0.4958 0.7895 0.3346
N3 N 0.3173(8) 0.8321(5) 0.5394(8)
C3 C 0.2480(10) 0.7522(6) 0.4535(9)
H2 H 0.1603 0.7192 0.4605
C4 C 0.4371(11) 0.8542(5) 0.4950(9)
N4 N 0.542(2) 0.9266(11) 0.540(2)
H3 H 0.6103 0.9329 0.4968
H4 H 0.5443 0.9688 0.6136
O6 O 0.2063(7) 0.4670(4) 0.0763(6)
O7 O 0.4739(7) 0.4445(4) 0.6592(6)
O8 O 0.2880(7) 0.5156(4) 0.4273(6)
C6 C 0.4293(10) 0.4886(6) 0.5238(9)
Co4 Co 0.72241(15) 0.40416(9) 0.77808(13)
Co5 Co 0.27759(15) 0.90416(9) 0.72192(13)
N10 N 0.3173(8) 0.6679(5) 0.0394(8)
O2 O 0.7937(7) 0.5330(4) 0.9237(6)
O5 O 0.9792(7) 0.3913(4) 0.8936(6)
N5 N 0.6869(9) 0.2764(5) 0.6421(8)
N6 N 0.5680(10) 0.2106(5) 0.6165(9)
H5 H 0.5042 0.2105 0.6654
N7 N 0.6827(8) 0.1679(5) 0.4606(8)
C7 C 0.7520(10) 0.2478(6) 0.5465(9)
H6 H 0.8397 0.2808 0.5395
C8 C 0.5629(11) 0.1458(5) 0.5050(9)
N8 N 0.458(2) 0.0734(11) 0.460(2)
H7 H 0.3897 0.0671 0.5032
H8 H 0.4557 0.0312 0.3864
Co3 Co 0.72241(15) 0.09584(9) 0.27808(13)
N9 N 0.6827(8) 0.3321(5) 0.9606(8)
N8_2 N 0.542(2) 0.5734(11) 0.040(2)
H8_2 H 0.5443 0.5312 0.1136
O5_2 O 0.0208(7) 0.8913(4) 0.6064(6)
N5_2 N 0.3131(9) 0.7764(5) 0.8579(8)
N6_2 N 0.4320(10) 0.7106(5) 0.8835(9)
H5_2 H 0.4958 0.7105 0.8346
C7_2 C 0.2480(10) 0.7478(6) 0.9535(9)
H6_2 H 0.1603 0.7808 0.9605
C8_2 C 0.4371(11) 0.6458(5) 0.9950(9)
H7_2 H 0.6103 0.5671 0.9968
O9 O 0.5261(7) 0.9445(4) 0.8408(6)
O10 O 0.2880(7) 0.9844(4) 0.9273(6)
O1_2 O 0.9792(7) 0.1087(4) 0.3936(6)
O3_2 O 0.4739(7) 0.0555(4) 0.1592(6)
C2_2 C 0.4293(10) 0.0114(6) 0.0238(9)
N1_2 N 0.6869(9) 0.2236(5) 0.1421(8)
N2_2 N 0.5680(10) 0.2894(5) 0.1165(9)
H1_2 H 0.5042 0.2895 0.1654
C3_2 C 0.7520(10) 0.2522(6) 0.0465(9)
H2_2 H 0.8397 0.2192 0.0395
C4_2 C 0.5629(11) 0.3542(5) 0.0050(9)
H3_2 H 0.3897 0.4329 0.0032
O8_2 O 0.7120(7) 0.0156(4) 0.0727(6)
N4_2 N 0.458(2) 0.4266(11) 0.960(2)
H4_2 H 0.4557 0.4688 0.8864
C6_2 C 0.5707(10) 0.9886(6) 0.9762(9)
C5 C 0.0545(10) 0.4601(5) 0.9910(9)
C1 C 0.9455(10) 0.5399(5) 0.0090(9)
O2_2 O 0.2063(7) 0.0330(4) 0.5763(6)
C1_2 C 0.0545(10) 0.0399(5) 0.4910(9)
O6_2 O 0.7937(7) 0.9670(4) 0.4237(6)
C5_2 C 0.9455(10) 0.9601(5) 0.5090(9)
loop_
_geom_bond_atom_site_label_1
_geom_bond_atom_site_label_2
_geom_bond_site_symmetry_1
_geom_bond_site_symmetry_2
Co1 O1 1_555 1_555
O3 Co1 1_555 1_555
O4 C2 1_555 1_555
C2 O3 1_555 1_555
N1 Co1 1_555 1_555
N2 N1 1_555 1_555
H1 N2 1_555 1_555
N3 C3 1_555 1_555
C3 N1 1_555 1_555
H2 C3 1_555 1_555
C4 N2 1_555 1_555
N4 C4 1_555 1_555
H3 N4 1_555 1_555
H4 N4 1_555 1_555
O6 Co1 1_555 1_555
O7 C6 1_555 1_555
O8 Co1 1_555 1_555
C6 C2 1_555 1_555
Co4 O4 1_555 1_555
Co5 N3 1_555 1_555
N10 Co1 1_555 1_555
N3 C4 1_555 1_555
O7 Co4 1_555 1_555
O8 C6 1_555 1_555
Co4 O2 1_555 1_555
N5 Co4 1_555 1_555
N6 N5 1_555 1_555
H5 N6 1_555 1_555
N7 C7 1_555 1_555
C7 N5 1_555 1_555
H6 C7 1_555 1_555
C8 N6 1_555 1_555
N8 C8 1_555 1_555
H7 N8 1_555 1_555
H8 N8 1_555 1_555
Co3 N7 1_555 1_555
N9 Co4 1_555 1_555
O5 Co4 1_555 1_555
N7 C8 1_555 1_555
H8_2 N8_2 1_555 1_555
N5_2 Co5 1_555 1_555
N6_2 N5_2 1_555 1_555
H5_2 N6_2 1_555 1_555
C7_2 N5_2 1_555 1_555
H6_2 C7_2 1_555 1_555
C8_2 N6_2 1_555 1_555
O9 Co5 1_555 1_555
O10 Co5 1_555 1_555
O5_2 Co5 1_555 1_555
Co3 O1_2 1_555 1_555
O3_2 Co3 1_555 1_555
C2_2 O3_2 1_555 1_555
N1_2 Co3 1_555 1_555
N2_2 N1_2 1_555 1_555
H1_2 N2_2 1_555 1_555
C3_2 N1_2 1_555 1_555
H2_2 C3_2 1_555 1_555
C4_2 N2_2 1_555 1_555
O8_2 Co3 1_555 1_555
H4_2 N4_2 1_555 1_555
O9 C6_2 1_555 1_555
O2_2 C1_2 1_555 1_555
C5_2 O6_2 1_555 1_555

#END
