
###############################################################################
#
# This file contains modified crystal structure data generated from the
# MOF subset of the Cambridge Structural Database (CSD) v543 
# hosted by the Cambridge Crystallographic Data Centre (CCDC).
#
# This work is licensed under the Creative Commons
# Attribution-NonCommercial-ShareAlike 4.0 International License.
# To view a copy of this license, visit
# http://creativecommons.org/licenses/by-nc-sa/4.0/
# or send a letter to
# Creative Commons, PO Box 1866, Mountain View, CA 94042, USA.
#
# CIF created using the CSD Python API on 29 September 2022
# The structure has been converted into the P1 space group
# The structure has a 3D framework
# The original CSD entry DASHAK is in the monoclinic crystal system
# The framework has been calculated to contain at least 10.0% void space
# The void calculation uses a probe of radius 1.32A, grid spacing 0.4
# The framework is charged, counterions have been retained in the structure
#
###############################################################################

data_DASHAK
_chemical_formula_moiety         '(C224 H128 Ag10 F24 N44 O40 S8 Sn6 2+)n'
_symmetry_cell_setting           triclinic
_symmetry_space_group_name_H-M   'P 1'
_symmetry_Int_Tables_number      1
_space_group_name_Hall           'P 1'
loop_
_symmetry_equiv_pos_site_id
_symmetry_equiv_pos_as_xyz
1 x,y,z
_cell_length_a                   17.616(3)
_cell_length_b                   24.301(4)
_cell_length_c                   19.874(4)
_cell_angle_alpha                90
_cell_angle_beta                 108.578(3)
_cell_angle_gamma                90
_cell_volume                     8064.46
loop_
_atom_site_label
_atom_site_type_symbol
_atom_site_fract_x
_atom_site_fract_y
_atom_site_fract_z
C34 C 0.0032(4) 0.2171(3) 0.0007(3)
C35 C 0.0667(5) 0.1966(4) 0.0538(4)
C36 C 0.0630(5) 0.1948(4) 0.1217(4)
H17 H 0.1062(5) 0.1792(4) 0.1575(4)
H20 H 0.1125(5) 0.1839(4) 0.0440(4)
Ag4 Ag 0.0 0.20202(4) 0.250
Ag1 Ag 0.0 0.63454(4) 0.750
N3 N 0.0001(5) 0.2144(2) 0.3604(3)
N4 N 0.0 0.5378(3) 0.750
C2 C 0.0027(6) 0.0742(3) 0.6237(4)
C3 C 0.0031(6) 0.1150(3) 0.5756(4)
C9 C 0.0605(6) 0.2350(4) 0.4126(5)
C10 C 0.0600(5) 0.2386(4) 0.4809(4)
C15 C 0.0 0.4228(3) 0.750
C18 C 0.0 0.0716(5) 0.750
C19 C 0.0 0.0138(4) 0.750
Sn1 Sn 0.0 0.21797(2) 0.750
C28 C 0.0 0.3615(5) 0.750
H2 H 0.1058(6) 0.2477(4) 0.4021(5)
H3 H 0.1027(5) 0.2557(4) 0.5156(4)
H5 H 0.0049(6) 0.0360(3) 0.6168(4)
H6 H 0.0060(6) 0.1095(3) 0.5297(4)
N7 N 0.0041(3) 0.1569(2) 0.8245(3)
N8 N 0.0051(3) 0.27860(19) 0.8247(3)
C29 C 0.0019(5) 0.1014(3) 0.8133(3)
C32 C 0.0016(4) 0.1665(3) 0.8928(3)
C33 C 0.0041(4) 0.2177(3) 0.9251(3)
C39 C 0.0062(4) 0.2697(3) 0.8936(3)
C40 C 0.0091(5) 0.3212(3) 0.9278(4)
C41 C 0.0083(5) 0.3621(3) 0.8795(3)
C42 C 0.0060(4) 0.3346(3) 0.8138(3)
C43 C 0.0679(5) 0.4510(3) 0.7846(4)
C44 C 0.0653(5) 0.5085(3) 0.7832(6)
H23 H 0.0112(5) 0.3266(3) 0.9752(4)
H24 H 0.0091(5) 0.4002(3) 0.8875(3)
H25 H 0.1155(5) 0.4323(3) 0.8088(4)
H26 H 0.1125(5) 0.5278(3) 0.8071(6)
H27 H 0.1108(6) 0.0033(4) 0.8193(6)
O5 O 0.1219(3) 0.21689(18) 0.7673(3)
N12 N 0.0 0.1033(4) 0.250
N13 N 0.1061(4) 0.6585(3) 0.7210(4)
N5 N 0.0 0.8967(4) 0.750
C45 C 0.0649(6) 0.9848(4) 0.7908(6)
C46 C 0.0620(7) 0.9274(3) 0.7897(6)
H28 H 0.1070(7) 0.9085(3) 0.8190(6)
Ag5 Ag 0.0 0.79798(4) 0.750
N9 N 0.9999(5) 0.2144(2) 0.1396(3)
C37 C 0.9395(6) 0.2350(4) 0.0874(5)
C38 C 0.9400(5) 0.2386(4) 0.0191(4)
H18 H 0.8942(6) 0.2477(4) 0.0979(5)
Ag4_2 Ag 1.0 0.20202(4) 0.250
Ag1_2 Ag 1.0 0.63454(4) 0.750
O1 O 0.8781(3) 0.21689(18) 0.7327(3)
O2 O 0.8231(4) 0.2020(3) 0.6162(3)
N1 N 0.9959(3) 0.1569(2) 0.6755(3)
N2 N 0.9949(3) 0.27860(19) 0.6753(3)
N4_2 N 1.0 0.5378(3) 0.750
N6 N 0.6061(4) 0.1585(3) 0.7210(4)
C1 C 0.9981(5) 0.1014(3) 0.6867(3)
C4 C 0.9984(4) 0.1665(3) 0.6072(3)
C5 C 0.9959(4) 0.2177(3) 0.5749(3)
C6 C 0.9968(4) 0.2171(3) 0.4993(3)
C7 C 0.9333(5) 0.1966(4) 0.4462(4)
C8 C 0.9370(5) 0.1948(4) 0.3783(4)
C11 C 0.9938(4) 0.2697(3) 0.6064(3)
C12 C 0.9909(5) 0.3212(3) 0.5722(4)
C13 C 0.9917(5) 0.3621(3) 0.6205(3)
C14 C 0.9940(4) 0.3346(3) 0.6862(3)
C15_2 C 1.0 0.4228(3) 0.750
C16 C 0.9321(5) 0.4510(3) 0.7154(4)
C17 C 0.9347(5) 0.5085(3) 0.7168(6)
C18_2 C 1.0 0.0716(5) 0.750
C19_2 C 1.0 0.0138(4) 0.750
C22 C 0.8198(4) 0.2031(3) 0.6759(5)
C23 C 0.7450(4) 0.1876(3) 0.6915(4)
C24 C 0.6733(4) 0.1804(4) 0.6378(4)
C25 C 0.6050(4) 0.1650(4) 0.6545(5)
C26 C 0.6759(5) 0.1649(4) 0.7724(5)
C27 C 0.7455(5) 0.1788(4) 0.7598(5)
Sn1_2 Sn 1.0 0.21797(2) 0.750
C28_2 C 1.0 0.3615(5) 0.750
H1 H 0.8938(5) 0.1792(4) 0.3425(4)
H4 H 0.8875(5) 0.1839(4) 0.4560(4)
H7 H 0.9888(5) 0.3266(3) 0.5248(4)
H8 H 0.9909(5) 0.4002(3) 0.6125(3)
H9 H 0.8845(5) 0.4323(3) 0.6912(4)
H10 H 0.8875(5) 0.5278(3) 0.6929(6)
H11 H 0.8892(6) 0.0033(4) 0.6807(6)
H13 H 0.6704(4) 0.1858(4) 0.5902(4)
H14 H 0.5569(4) 0.1590(4) 0.6174(5)
H15 H 0.6774(5) 0.1596(4) 0.8196(5)
H16 H 0.7934(5) 0.1824(4) 0.7978(5)
C30 C 0.9973(6) 0.0742(3) 0.8763(4)
C31 C 0.9969(6) 0.1150(3) 0.9244(4)
H19 H 0.8973(5) 0.2557(4) 0.9844(4)
H21 H 0.9951(6) 0.0360(3) 0.8832(4)
H22 H 0.9940(6) 0.1095(3) 0.9703(4)
O3 O 0.6219(3) 0.71689(18) 0.7673(3)
O4 O 0.6769(4) 0.7020(3) 0.8838(3)
N10 N 0.8939(4) 0.6585(3) 0.7790(4)
C47 C 0.6802(4) 0.7031(3) 0.8241(5)
C48 C 0.7550(4) 0.6876(3) 0.8085(4)
C49 C 0.8267(4) 0.6804(4) 0.8622(4)
C50 C 0.8950(4) 0.6650(4) 0.8455(5)
C51 C 0.8241(5) 0.6649(4) 0.7276(5)
C52 C 0.7545(5) 0.6788(4) 0.7402(5)
H29 H 0.8296(4) 0.6858(4) 0.9098(4)
H30 H 0.9431(4) 0.6590(4) 0.8826(5)
H31 H 0.8226(5) 0.6596(4) 0.6804(5)
H32 H 0.7066(5) 0.6824(4) 0.7022(5)
Ag3 Ag 0.5 0.13454(4) 0.750
N12_2 N 1.0 0.1033(4) 0.250
Sn2 Sn 0.5 0.71797(2) 0.750
N5_2 N 1.0 0.8967(4) 0.750
C20 C 0.9351(6) 0.9848(4) 0.7092(6)
C21 C 0.9380(7) 0.9274(3) 0.7103(6)
H12 H 0.8930(7) 0.9085(3) 0.6810(6)
Ag5_2 Ag 1.0 0.79798(4) 0.750
O2_2 O 0.1769(4) 0.2020(3) 0.8838(3)
N6_2 N 0.3939(4) 0.1585(3) 0.7790(4)
C22_2 C 0.1802(4) 0.2031(3) 0.8241(5)
C23_2 C 0.2550(4) 0.1876(3) 0.8085(4)
C24_2 C 0.3267(4) 0.1804(4) 0.8622(4)
C25_2 C 0.3950(4) 0.1650(4) 0.8455(5)
C26_2 C 0.3241(5) 0.1649(4) 0.7276(5)
C27_2 C 0.2545(5) 0.1788(4) 0.7402(5)
H13_2 H 0.3296(4) 0.1858(4) 0.9098(4)
H14_2 H 0.4431(4) 0.1590(4) 0.8826(5)
H15_2 H 0.3226(5) 0.1596(4) 0.6804(5)
H16_2 H 0.2066(5) 0.1824(4) 0.7022(5)
O3_2 O 0.3781(3) 0.71689(18) 0.7327(3)
O4_2 O 0.3231(4) 0.7020(3) 0.6162(3)
C47_2 C 0.3198(4) 0.7031(3) 0.6759(5)
C48_2 C 0.2450(4) 0.6876(3) 0.6915(4)
C49_2 C 0.1733(4) 0.6804(4) 0.6378(4)
C50_2 C 0.1050(4) 0.6650(4) 0.6545(5)
C51_2 C 0.1759(5) 0.6649(4) 0.7724(5)
C52_2 C 0.2455(5) 0.6788(4) 0.7598(5)
H29_2 H 0.1704(4) 0.6858(4) 0.5902(4)
H30_2 H 0.0569(4) 0.6590(4) 0.6174(5)
H31_2 H 0.1774(5) 0.6596(4) 0.8196(5)
H32_2 H 0.2934(5) 0.6824(4) 0.7978(5)
N4_3 N 0.5 0.0378(3) 0.750
C17_2 C 0.4347(5) 0.0085(3) 0.7168(6)
H10_2 H 0.3875(5) 0.0278(3) 0.6929(6)
C44_2 C 0.5653(5) 0.0085(3) 0.7832(6)
H26_2 H 0.6125(5) 0.0278(3) 0.8071(6)
N9_2 N 0.4999(5) 0.7144(2) 0.1396(3)
C34_2 C 0.5032(4) 0.7171(3) 0.0007(3)
C35_2 C 0.5667(5) 0.6966(4) 0.0538(4)
C36_2 C 0.5630(5) 0.6948(4) 0.1217(4)
C37_2 C 0.4395(6) 0.7350(4) 0.0874(5)
C38_2 C 0.4400(5) 0.7386(4) 0.0191(4)
H17_2 H 0.6062(5) 0.6792(4) 0.1575(4)
H18_2 H 0.3942(6) 0.7477(4) 0.0979(5)
H20_2 H 0.6125(5) 0.6839(4) 0.0440(4)
Ag4_3 Ag 0.5 0.70202(4) 0.250
N1_2 N 0.4959(3) 0.6569(2) 0.6755(3)
N2_2 N 0.4949(3) 0.77860(19) 0.6753(3)
N3_2 N 0.5001(5) 0.7144(2) 0.3604(3)
N5_3 N 0.5 0.3967(4) 0.750
C1_2 C 0.4981(5) 0.6014(3) 0.6867(3)
C2_2 C 0.5027(6) 0.5742(3) 0.6237(4)
C3_2 C 0.5031(6) 0.6150(3) 0.5756(4)
C4_2 C 0.4984(4) 0.6665(3) 0.6072(3)
C5_2 C 0.4959(4) 0.7177(3) 0.5749(3)
C6_2 C 0.4968(4) 0.7171(3) 0.4993(3)
C7_2 C 0.4333(5) 0.6966(4) 0.4462(4)
C8_2 C 0.4370(5) 0.6948(4) 0.3783(4)
C9_2 C 0.5605(6) 0.7350(4) 0.4126(5)
C10_2 C 0.5600(5) 0.7386(4) 0.4809(4)
C11_2 C 0.4938(4) 0.7697(3) 0.6064(3)
C12_2 C 0.4909(5) 0.8212(3) 0.5722(4)
C13_2 C 0.4917(5) 0.8621(3) 0.6205(3)
C14_2 C 0.4940(4) 0.8346(3) 0.6862(3)
C15_3 C 0.5 0.9228(3) 0.750
C16_2 C 0.4321(5) 0.9510(3) 0.7154(4)
C18_3 C 0.5 0.5716(5) 0.750
C19_3 C 0.5 0.5138(4) 0.750
C20_2 C 0.4351(6) 0.4848(4) 0.7092(6)
C21_2 C 0.4380(7) 0.4274(3) 0.7103(6)
C28_3 C 0.5 0.8615(5) 0.750
H1_2 H 0.3938(5) 0.6792(4) 0.3425(4)
H2_2 H 0.6058(6) 0.7477(4) 0.4021(5)
H3_2 H 0.6027(5) 0.7557(4) 0.5156(4)
H4_2 H 0.3875(5) 0.6839(4) 0.4560(4)
H5_2 H 0.5049(6) 0.5360(3) 0.6168(4)
H6_2 H 0.5060(6) 0.6095(3) 0.5297(4)
H7_2 H 0.4888(5) 0.8266(3) 0.5248(4)
H8_2 H 0.4909(5) 0.9002(3) 0.6125(3)
H9_2 H 0.3845(5) 0.9323(3) 0.6912(4)
H11_2 H 0.3892(6) 0.5033(4) 0.6807(6)
H12_2 H 0.3930(7) 0.4085(3) 0.6810(6)
N7_2 N 0.5041(3) 0.6569(2) 0.8245(3)
N8_2 N 0.5051(3) 0.77860(19) 0.8247(3)
C29_2 C 0.5019(5) 0.6014(3) 0.8133(3)
C30_2 C 0.4973(6) 0.5742(3) 0.8763(4)
C31_2 C 0.4969(6) 0.6150(3) 0.9244(4)
C32_2 C 0.5016(4) 0.6665(3) 0.8928(3)
C33_2 C 0.5041(4) 0.7177(3) 0.9251(3)
C39_2 C 0.5062(4) 0.7697(3) 0.8936(3)
C40_2 C 0.5091(5) 0.8212(3) 0.9278(4)
C41_2 C 0.5083(5) 0.8621(3) 0.8795(3)
C42_2 C 0.5060(4) 0.8346(3) 0.8138(3)
C43_2 C 0.5679(5) 0.9510(3) 0.7846(4)
C45_2 C 0.5649(6) 0.4848(4) 0.7908(6)
C46_2 C 0.5620(7) 0.4274(3) 0.7897(6)
H19_2 H 0.3973(5) 0.7557(4) 0.9844(4)
H21_2 H 0.4951(6) 0.5360(3) 0.8832(4)
H22_2 H 0.4940(6) 0.6095(3) 0.9703(4)
H23_2 H 0.5112(5) 0.8266(3) 0.9752(4)
H24_2 H 0.5091(5) 0.9002(3) 0.8875(3)
H25_2 H 0.6155(5) 0.9323(3) 0.8088(4)
H27_2 H 0.6108(6) 0.5033(4) 0.8193(6)
H28_2 H 0.6070(7) 0.4085(3) 0.8190(6)
Ag5_3 Ag 0.5 0.29798(4) 0.750
N12_3 N 0.5 0.6033(4) 0.250
C20_3 C 0.0649(6) 0.0152(4) 0.2908(6)
C21_3 C 0.0620(7) 0.0726(3) 0.2897(6)
H12_3 H 0.1070(7) 0.0915(3) 0.3190(6)
Ag1_3 Ag -0.0 0.36546(4) 0.250
O1_2 O 0.1219(3) 0.78311(18) 0.2673(3)
O2_3 O 0.1769(4) 0.7980(3) 0.3838(3)
N1_3 N 0.0041(3) 0.8431(2) 0.3245(3)
N2_3 N 0.0051(3) 0.72140(19) 0.3247(3)
N4_4 N -0.0 0.4622(3) 0.250
N6_3 N 0.3939(4) 0.8415(3) 0.2790(4)
C1_3 C 0.0019(5) 0.8986(3) 0.3133(3)
C4_3 C 0.0016(4) 0.8335(3) 0.3928(3)
C5_3 C 0.0041(4) 0.7823(3) 0.4251(3)
C6_3 C 0.0032(4) 0.7829(3) 0.5007(3)
C7_3 C 0.0667(5) 0.8034(4) 0.5538(4)
C8_3 C 0.0630(5) 0.8052(4) 0.6217(4)
C11_3 C 0.0062(4) 0.7303(3) 0.3936(3)
C12_3 C 0.0091(5) 0.6788(3) 0.4278(4)
C13_3 C 0.0083(5) 0.6379(3) 0.3795(3)
C14_3 C 0.0060(4) 0.6654(3) 0.3138(3)
C15_4 C -0.0 0.5772(3) 0.250
C16_3 C 0.0679(5) 0.5490(3) 0.2846(4)
C17_3 C 0.0653(5) 0.4915(3) 0.2832(6)
C18_4 C -0.0 0.9284(5) 0.250
C19_4 C 0.0 0.9862(4) 0.250
C22_3 C 0.1802(4) 0.7969(3) 0.3241(5)
C23_3 C 0.2550(4) 0.8124(3) 0.3085(4)
C24_3 C 0.3267(4) 0.8196(4) 0.3622(4)
C25_3 C 0.3950(4) 0.8350(4) 0.3455(5)
C26_3 C 0.3241(5) 0.8351(4) 0.2276(5)
C27_3 C 0.2545(5) 0.8212(4) 0.2402(5)
Sn1_3 Sn -0.0 0.78203(2) 0.250
C28_4 C -0.0 0.6385(5) 0.250
H1_3 H 0.1062(5) 0.8208(4) 0.6575(4)
H4_3 H 0.1125(5) 0.8161(4) 0.5440(4)
H7_3 H 0.0112(5) 0.6734(3) 0.4752(4)
H8_3 H 0.0091(5) 0.5998(3) 0.3875(3)
H9_3 H 0.1155(5) 0.5677(3) 0.3088(4)
H10_3 H 0.1125(5) 0.4722(3) 0.3071(6)
H11_3 H 0.1108(6) 0.9967(4) 0.3193(6)
H13_3 H 0.3296(4) 0.8142(4) 0.4098(4)
H14_3 H 0.4431(4) 0.8410(4) 0.3826(5)
H15_3 H 0.3226(5) 0.8404(4) 0.1804(5)
H16_3 H 0.2066(5) 0.8176(4) 0.2022(5)
C30_3 C 0.0027(6) 0.9258(3) 0.1237(4)
C31_3 C 0.0031(6) 0.8850(3) 0.0756(4)
H19_3 H 0.1027(5) 0.7443(4) 0.0156(4)
H21_3 H 0.0049(6) 0.9640(3) 0.1168(4)
H22_3 H 0.0060(6) 0.8905(3) 0.0297(4)
O3_3 O 0.3781(3) 0.28311(18) 0.2327(3)
O4_3 O 0.3231(4) 0.2980(3) 0.1162(3)
N10_2 N 0.1061(4) 0.3415(3) 0.2210(4)
C47_3 C 0.3198(4) 0.2969(3) 0.1759(5)
C48_3 C 0.2450(4) 0.3124(3) 0.1915(4)
C49_3 C 0.1733(4) 0.3196(4) 0.1378(4)
C50_3 C 0.1050(4) 0.3350(4) 0.1545(5)
C51_3 C 0.1759(5) 0.3351(4) 0.2724(5)
C52_3 C 0.2455(5) 0.3212(4) 0.2598(5)
H29_3 H 0.1704(4) 0.3142(4) 0.0902(4)
H30_3 H 0.0569(4) 0.3410(4) 0.1174(5)
H31_3 H 0.1774(5) 0.3404(4) 0.3196(5)
H32_3 H 0.2934(5) 0.3176(4) 0.2978(5)
Ag3_2 Ag 0.5 0.86546(4) 0.250
N11 N 0.0001(5) 0.7856(2) 0.8604(3)
Sn2_2 Sn 0.5 0.28203(2) 0.250
C37_3 C 0.0605(6) 0.7650(4) 0.9126(5)
C38_3 C 0.0600(5) 0.7614(4) 0.9809(4)
H18_3 H 0.1058(6) 0.7523(4) 0.9021(5)
C45_3 C 0.9351(6) 0.0152(4) 0.2092(6)
C46_3 C 0.9380(7) 0.0726(3) 0.2103(6)
H28_3 H 0.8930(7) 0.0915(3) 0.1810(6)
Ag1_4 Ag 1.0 0.36546(4) 0.250
N3_3 N 0.9999(5) 0.7856(2) 0.6396(3)
N4_5 N 1.0 0.4622(3) 0.250
C2_3 C 0.9973(6) 0.9258(3) 0.3763(4)
C3_3 C 0.9969(6) 0.8850(3) 0.4244(4)
C9_3 C 0.9395(6) 0.7650(4) 0.5874(5)
C10_3 C 0.9400(5) 0.7614(4) 0.5191(4)
C15_5 C 1.0 0.5772(3) 0.250
C18_5 C 1.0 0.9284(5) 0.250
C19_5 C 1.0 0.9862(4) 0.250
Sn1_4 Sn 1.0 0.78203(2) 0.250
C28_5 C 1.0 0.6385(5) 0.250
H2_3 H 0.8942(6) 0.7523(4) 0.5979(5)
H3_3 H 0.8973(5) 0.7443(4) 0.4844(4)
H5_3 H 0.9951(6) 0.9640(3) 0.3832(4)
H6_3 H 0.9940(6) 0.8905(3) 0.4703(4)
N7_3 N 0.9959(3) 0.8431(2) 0.1755(3)
N8_3 N 0.9949(3) 0.72140(19) 0.1753(3)
C29_3 C 0.9981(5) 0.8986(3) 0.1867(3)
C32_3 C 0.9984(4) 0.8335(3) 0.1072(3)
C33_3 C 0.9959(4) 0.7823(3) 0.0749(3)
C39_3 C 0.9938(4) 0.7303(3) 0.1064(3)
C40_3 C 0.9909(5) 0.6788(3) 0.0722(4)
C41_3 C 0.9917(5) 0.6379(3) 0.1205(3)
C42_3 C 0.9940(4) 0.6654(3) 0.1862(3)
C43_3 C 0.9321(5) 0.5490(3) 0.2154(4)
C44_3 C 0.9347(5) 0.4915(3) 0.2168(6)
H23_3 H 0.9888(5) 0.6734(3) 0.0248(4)
H24_3 H 0.9909(5) 0.5998(3) 0.1125(3)
H25_3 H 0.8845(5) 0.5677(3) 0.1912(4)
H26_3 H 0.8875(5) 0.4722(3) 0.1929(6)
H27_3 H 0.8892(6) 0.9967(4) 0.1807(6)
O5_2 O 0.8781(3) 0.78311(18) 0.2327(3)
N13_2 N 0.8939(4) 0.3415(3) 0.2790(4)
C34_3 C 0.9968(4) 0.7829(3) 0.9993(3)
C35_3 C 0.9333(5) 0.8034(4) 0.9462(4)
C36_3 C 0.9370(5) 0.8052(4) 0.8783(4)
H17_3 H 0.8938(5) 0.8208(4) 0.8425(4)
H20_3 H 0.8875(5) 0.8161(4) 0.9560(4)
O2_4 O 0.8231(4) 0.7980(3) 0.1162(3)
N6_4 N 0.6061(4) 0.8415(3) 0.2210(4)
C22_4 C 0.8198(4) 0.7969(3) 0.1759(5)
C23_4 C 0.7450(4) 0.8124(3) 0.1915(4)
C24_4 C 0.6733(4) 0.8196(4) 0.1378(4)
C25_4 C 0.6050(4) 0.8350(4) 0.1545(5)
C26_4 C 0.6759(5) 0.8351(4) 0.2724(5)
C27_4 C 0.7455(5) 0.8212(4) 0.2598(5)
H13_4 H 0.6704(4) 0.8142(4) 0.0902(4)
H14_4 H 0.5569(4) 0.8410(4) 0.1174(5)
H15_4 H 0.6774(5) 0.8404(4) 0.3196(5)
H16_4 H 0.7934(5) 0.8176(4) 0.2978(5)
O3_4 O 0.6219(3) 0.28311(18) 0.2673(3)
O4_4 O 0.6769(4) 0.2980(3) 0.3838(3)
C47_4 C 0.6802(4) 0.2969(3) 0.3241(5)
C48_4 C 0.7550(4) 0.3124(3) 0.3085(4)
C49_4 C 0.8267(4) 0.3196(4) 0.3622(4)
C50_4 C 0.8950(4) 0.3350(4) 0.3455(5)
C51_4 C 0.8241(5) 0.3351(4) 0.2276(5)
C52_4 C 0.7545(5) 0.3212(4) 0.2402(5)
H29_4 H 0.8296(4) 0.3142(4) 0.4098(4)
H30_4 H 0.9431(4) 0.3410(4) 0.3826(5)
H31_4 H 0.8226(5) 0.3404(4) 0.1804(5)
H32_4 H 0.7066(5) 0.3176(4) 0.2022(5)
N1_4 N 0.5041(3) 0.3431(2) 0.3245(3)
N2_4 N 0.5051(3) 0.22140(19) 0.3247(3)
N3_4 N 0.4999(5) 0.2856(2) 0.6396(3)
C1_4 C 0.5019(5) 0.3986(3) 0.3133(3)
C2_4 C 0.4973(6) 0.4258(3) 0.3763(4)
C3_4 C 0.4969(6) 0.3850(3) 0.4244(4)
C4_4 C 0.5016(4) 0.3335(3) 0.3928(3)
C5_4 C 0.5041(4) 0.2823(3) 0.4251(3)
C6_4 C 0.5032(4) 0.2829(3) 0.5007(3)
C7_4 C 0.5667(5) 0.3034(4) 0.5538(4)
C8_4 C 0.5630(5) 0.3052(4) 0.6217(4)
C9_4 C 0.4395(6) 0.2650(4) 0.5874(5)
C10_4 C 0.4400(5) 0.2614(4) 0.5191(4)
C11_4 C 0.5062(4) 0.2303(3) 0.3936(3)
C12_4 C 0.5091(5) 0.1788(3) 0.4278(4)
C13_4 C 0.5083(5) 0.1379(3) 0.3795(3)
C14_4 C 0.5060(4) 0.1654(3) 0.3138(3)
C15_6 C 0.5 0.0772(3) 0.250
C16_4 C 0.5679(5) 0.0490(3) 0.2846(4)
C18_6 C 0.5 0.4284(5) 0.250
C19_6 C 0.5 0.4862(4) 0.250
C20_4 C 0.5649(6) 0.5152(4) 0.2908(6)
C21_4 C 0.5620(7) 0.5726(3) 0.2897(6)
C28_6 C 0.5 0.1385(5) 0.250
H1_4 H 0.6062(5) 0.3208(4) 0.6575(4)
H2_4 H 0.3942(6) 0.2523(4) 0.5979(5)
H3_4 H 0.3973(5) 0.2443(4) 0.4844(4)
H4_4 H 0.6125(5) 0.3161(4) 0.5440(4)
H5_4 H 0.4951(6) 0.4640(3) 0.3832(4)
H6_4 H 0.4940(6) 0.3905(3) 0.4703(4)
H7_4 H 0.5112(5) 0.1734(3) 0.4752(4)
H8_4 H 0.5091(5) 0.0998(3) 0.3875(3)
H9_4 H 0.6155(5) 0.0677(3) 0.3088(4)
H11_4 H 0.6108(6) 0.4967(4) 0.3193(6)
H12_4 H 0.6070(7) 0.5915(3) 0.3190(6)
N7_4 N 0.4959(3) 0.3431(2) 0.1755(3)
N8_4 N 0.4949(3) 0.22140(19) 0.1753(3)
C29_4 C 0.4981(5) 0.3986(3) 0.1867(3)
C30_4 C 0.5027(6) 0.4258(3) 0.1237(4)
C31_4 C 0.5031(6) 0.3850(3) 0.0756(4)
C32_4 C 0.4984(4) 0.3335(3) 0.1072(3)
C33_4 C 0.4959(4) 0.2823(3) 0.0749(3)
C39_4 C 0.4938(4) 0.2303(3) 0.1064(3)
C40_4 C 0.4909(5) 0.1788(3) 0.0722(4)
C41_4 C 0.4917(5) 0.1379(3) 0.1205(3)
C42_4 C 0.4940(4) 0.1654(3) 0.1862(3)
C43_4 C 0.4321(5) 0.0490(3) 0.2154(4)
C45_4 C 0.4351(6) 0.5152(4) 0.2092(6)
C46_4 C 0.4380(7) 0.5726(3) 0.2103(6)
H19_4 H 0.6027(5) 0.2443(4) 0.0156(4)
H21_4 H 0.5049(6) 0.4640(3) 0.1168(4)
H22_4 H 0.5060(6) 0.3905(3) 0.0297(4)
H23_4 H 0.4888(5) 0.1734(3) 0.0248(4)
H24_4 H 0.4909(5) 0.0998(3) 0.1125(3)
H25_4 H 0.3845(5) 0.0677(3) 0.1912(4)
H27_4 H 0.3892(6) 0.4967(4) 0.1807(6)
H28_4 H 0.3930(7) 0.5915(3) 0.1810(6)
N11_2 N 0.5001(5) 0.2856(2) 0.8604(3)
C34_4 C 0.4968(4) 0.2829(3) 0.9993(3)
C35_4 C 0.4333(5) 0.3034(4) 0.9462(4)
C36_4 C 0.4370(5) 0.3052(4) 0.8783(4)
C37_4 C 0.5605(6) 0.2650(4) 0.9126(5)
C38_4 C 0.5600(5) 0.2614(4) 0.9809(4)
H17_4 H 0.3938(5) 0.3208(4) 0.8425(4)
H18_4 H 0.6058(6) 0.2523(4) 0.9021(5)
H20_4 H 0.3875(5) 0.3161(4) 0.9560(4)
N4_6 N 0.5 0.9622(3) 0.250
C17_4 C 0.5653(5) 0.9915(3) 0.2832(6)
H10_4 H 0.6125(5) 0.9722(3) 0.3071(6)
C44_4 C 0.4347(5) 0.9915(3) 0.2168(6)
H26_4 H 0.3875(5) 0.9722(3) 0.1929(6)
S1 S 0.1377(2) 0.40250(16) 0.45902(15)
O6 O 0.1014(5) 0.3723(4) 0.3966(4)
O7 O 0.1088(8) 0.3923(5) 0.5149(5)
O8 O 0.1523(8) 0.4602(5) 0.4492(5)
F1 F 0.2324(7) 0.3187(6) 0.5032(8)
F2 F 0.2758(6) 0.3760(7) 0.4453(7)
F3 F 0.2817(8) 0.3958(7) 0.5485(6)
C53 C 0.2371(12) 0.3734(11) 0.4928(10)
S1_2 S 0.8623(2) 0.40250(16) 0.04098(15)
O6_2 O 0.8986(5) 0.3723(4) 0.1034(4)
O8_2 O 0.8477(8) 0.4602(5) 0.0508(5)
F2_2 F 0.7242(6) 0.3760(7) 0.0547(7)
C53_2 C 0.7629(12) 0.3734(11) 0.0072(10)
O7_2 O 0.8912(8) 0.3923(5) 0.9851(5)
F1_2 F 0.7676(7) 0.3187(6) 0.9968(8)
F3_2 F 0.7183(8) 0.3958(7) 0.9515(6)
S1_3 S 0.6377(2) 0.90250(16) 0.45902(15)
O6_3 O 0.6014(5) 0.8723(4) 0.3966(4)
O7_3 O 0.6088(8) 0.8923(5) 0.5149(5)
O8_3 O 0.6523(8) 0.9602(5) 0.4492(5)
F1_3 F 0.7324(7) 0.8187(6) 0.5032(8)
F2_3 F 0.7758(6) 0.8760(7) 0.4453(7)
F3_3 F 0.7817(8) 0.8958(7) 0.5485(6)
C53_3 C 0.7371(12) 0.8734(11) 0.4928(10)
S1_4 S 0.3623(2) 0.90250(16) 0.04098(15)
O6_4 O 0.3986(5) 0.8723(4) 0.1034(4)
O8_4 O 0.3477(8) 0.9602(5) 0.0508(5)
F2_4 F 0.2242(6) 0.8760(7) 0.0547(7)
C53_4 C 0.2629(12) 0.8734(11) 0.0072(10)
O7_4 O 0.3912(8) 0.8923(5) 0.9851(5)
F1_4 F 0.2676(7) 0.8187(6) 0.9968(8)
F3_4 F 0.2183(8) 0.8958(7) 0.9515(6)
S1_5 S 0.8623(2) 0.59750(16) 0.54098(15)
O6_5 O 0.8986(5) 0.6277(4) 0.6034(4)
O7_5 O 0.8912(8) 0.6077(5) 0.4851(5)
O8_5 O 0.8477(8) 0.5398(5) 0.5508(5)
F1_5 F 0.7676(7) 0.6813(6) 0.4968(8)
F2_5 F 0.7242(6) 0.6240(7) 0.5547(7)
F3_5 F 0.7183(8) 0.6042(7) 0.4515(6)
C53_5 C 0.7629(12) 0.6266(11) 0.5072(10)
O7_6 O 0.1088(8) 0.6077(5) 0.0149(5)
F1_6 F 0.2324(7) 0.6813(6) 0.0032(8)
F3_6 F 0.2817(8) 0.6042(7) 0.0485(6)
S1_6 S 0.1377(2) 0.59750(16) 0.95902(15)
O6_6 O 0.1014(5) 0.6277(4) 0.8966(4)
O8_6 O 0.1523(8) 0.5398(5) 0.9492(5)
F2_6 F 0.2758(6) 0.6240(7) 0.9453(7)
C53_6 C 0.2371(12) 0.6266(11) 0.9928(10)
S1_7 S 0.3623(2) 0.09750(16) 0.54098(15)
O6_7 O 0.3986(5) 0.1277(4) 0.6034(4)
O7_7 O 0.3912(8) 0.1077(5) 0.4851(5)
O8_7 O 0.3477(8) 0.0398(5) 0.5508(5)
F1_7 F 0.2676(7) 0.1813(6) 0.4968(8)
F2_7 F 0.2242(6) 0.1240(7) 0.5547(7)
F3_7 F 0.2183(8) 0.1042(7) 0.4515(6)
C53_7 C 0.2629(12) 0.1266(11) 0.5072(10)
O7_8 O 0.6088(8) 0.1077(5) 0.0149(5)
F1_8 F 0.7324(7) 0.1813(6) 0.0032(8)
F3_8 F 0.7817(8) 0.1042(7) 0.0485(6)
S1_8 S 0.6377(2) 0.09750(16) 0.95902(15)
O6_8 O 0.6014(5) 0.1277(4) 0.8966(4)
O8_8 O 0.6523(8) 0.0398(5) 0.9492(5)
F2_8 F 0.7758(6) 0.1240(7) 0.9453(7)
C53_8 C 0.7371(12) 0.1266(11) 0.9928(10)
loop_
_geom_bond_atom_site_label_1
_geom_bond_atom_site_label_2
_geom_bond_site_symmetry_1
_geom_bond_site_symmetry_2
C35 C34 1_555 1_555
C36 C35 1_555 1_555
H17 C36 1_555 1_555
H20 C35 1_555 1_555
Ag1 N4 1_555 1_555
Ag4 N3 1_555 1_555
C2 C3 1_555 1_555
C9 N3 1_555 1_555
C19 C18 1_555 1_555
H2 C9 1_555 1_555
H3 C10 1_555 1_555
H5 C2 1_555 1_555
H6 C3 1_555 1_555
N7 Sn1 1_555 1_555
N8 Sn1 1_555 1_555
C29 C18 1_555 1_555
C32 N7 1_555 1_555
C33 C32 1_555 1_555
C39 N8 1_555 1_555
C40 C39 1_555 1_555
C41 C40 1_555 1_555
C42 C28 1_555 1_555
C43 C15 1_555 1_555
C44 N4 1_555 1_555
H23 C40 1_555 1_555
H24 C41 1_555 1_555
H25 C43 1_555 1_555
H26 C44 1_555 1_555
O5 Sn1 1_555 1_555
N12 Ag4 1_555 1_555
N13 Ag1 1_555 1_555
C9 C10 1_555 1_555
C15 C28 1_555 1_555
N7 C29 1_555 1_555
N8 C42 1_555 1_555
C33 C39 1_555 1_555
C41 C42 1_555 1_555
C43 C44 1_555 1_555
C46 N5 1_555 1_555
H28 C46 1_555 1_555
Ag5 N5 1_555 1_555
C45 C46 1_555 1_555
C37 N9 1_555 1_555
H18 C37 1_555 1_555
Ag4_2 N9 1_555 1_555
C37 C38 1_555 1_555
Ag1_2 N4_2 1_555 1_555
O1 C22 1_555 1_555
O2 C22 1_555 1_555
N1 C1 1_555 1_555
N2 C11 1_555 1_555
N4_2 C17 1_555 1_555
N6 C25 1_555 1_555
C4 N1 1_555 1_555
C5 C4 1_555 1_555
C6 C5 1_555 1_555
C7 C6 1_555 1_555
C8 C7 1_555 1_555
C11 C5 1_555 1_555
C12 C11 1_555 1_555
C13 C12 1_555 1_555
C14 N2 1_555 1_555
C15_2 C16 1_555 1_555
C16 C17 1_555 1_555
C17 H10 1_555 1_555
C18_2 C1 1_555 1_555
C19_2 C18_2 1_555 1_555
C22 C23 1_555 1_555
C23 C24 1_555 1_555
C24 C25 1_555 1_555
C25 H14 1_555 1_555
C26 N6 1_555 1_555
C27 C23 1_555 1_555
Sn1_2 O1 1_555 1_555
C28_2 C14 1_555 1_555
H1 C8 1_555 1_555
H4 C7 1_555 1_555
H7 C12 1_555 1_555
H8 C13 1_555 1_555
H9 C16 1_555 1_555
H13 C24 1_555 1_555
H15 C26 1_555 1_555
H16 C27 1_555 1_555
C31 C30 1_555 1_555
H21 C30 1_555 1_555
H22 C31 1_555 1_555
O3 C47 1_555 1_555
O4 C47 1_555 1_555
N10 Ag1_2 1_555 1_555
C47 C48 1_555 1_555
C48 C49 1_555 1_555
C49 C50 1_555 1_555
C50 N10 1_555 1_555
C51 N10 1_555 1_555
C52 C48 1_555 1_555
H29 C49 1_555 1_555
H30 C50 1_555 1_555
H31 C51 1_555 1_555
H32 C52 1_555 1_555
Ag3 N6 1_555 1_555
N12_2 Ag4_2 1_555 1_555
Sn2 O3 1_555 1_555
N1 Sn1_2 1_555 1_555
N2 Sn1_2 1_555 1_555
C13 C14 1_555 1_555
C15_2 C28_2 1_555 1_555
C26 C27 1_555 1_555
C51 C52 1_555 1_555
N5_2 C21 1_555 1_555
C21 C20 1_555 1_555
H12 C21 1_555 1_555
Ag5_2 N5_2 1_555 1_555
O5 C22_2 1_555 1_555
O2_2 C22_2 1_555 1_555
N6_2 C25_2 1_555 1_555
C22_2 C23_2 1_555 1_555
C23_2 C24_2 1_555 1_555
C24_2 C25_2 1_555 1_555
C25_2 H14_2 1_555 1_555
C26_2 N6_2 1_555 1_555
C27_2 C23_2 1_555 1_555
H13_2 C24_2 1_555 1_555
H15_2 C26_2 1_555 1_555
H16_2 C27_2 1_555 1_555
O3_2 C47_2 1_555 1_555
O4_2 C47_2 1_555 1_555
C47_2 C48_2 1_555 1_555
C48_2 C49_2 1_555 1_555
C49_2 C50_2 1_555 1_555
C50_2 N13 1_555 1_555
C51_2 N13 1_555 1_555
C52_2 C48_2 1_555 1_555
H29_2 C49_2 1_555 1_555
H30_2 C50_2 1_555 1_555
H31_2 C51_2 1_555 1_555
H32_2 C52_2 1_555 1_555
Ag3 N6_2 1_555 1_555
Sn2 O3_2 1_555 1_555
C26_2 C27_2 1_555 1_555
C51_2 C52_2 1_555 1_555
Ag3 N4_3 1_555 1_555
N4_3 C17_2 1_555 1_555
C17_2 H10_2 1_555 1_555
C44_2 N4_3 1_555 1_555
H26_2 C44_2 1_555 1_555
N9_2 C36_2 1_555 1_555
C35_2 C34_2 1_555 1_555
C36_2 C35_2 1_555 1_555
C37_2 N9_2 1_555 1_555
C38_2 C34_2 1_555 1_555
H17_2 C36_2 1_555 1_555
H18_2 C37_2 1_555 1_555
H20_2 C35_2 1_555 1_555
Ag4_3 N9_2 1_555 1_555
C37_2 C38_2 1_555 1_555
Ag4_3 N3_2 1_555 1_555
N1_2 C1_2 1_555 1_555
N2_2 C11_2 1_555 1_555
N3_2 C8_2 1_555 1_555
N5_3 C21_2 1_555 1_555
C1_2 C2_2 1_555 1_555
C2_2 C3_2 1_555 1_555
C3_2 C4_2 1_555 1_555
C4_2 N1_2 1_555 1_555
C5_2 C4_2 1_555 1_555
C6_2 C5_2 1_555 1_555
C7_2 C6_2 1_555 1_555
C8_2 C7_2 1_555 1_555
C9_2 N3_2 1_555 1_555
C10_2 C6_2 1_555 1_555
C11_2 C5_2 1_555 1_555
C12_2 C11_2 1_555 1_555
C13_2 C12_2 1_555 1_555
C14_2 N2_2 1_555 1_555
C15_3 C16_2 1_555 1_555
C18_3 C1_2 1_555 1_555
C19_3 C18_3 1_555 1_555
C20_2 C19_3 1_555 1_555
C21_2 C20_2 1_555 1_555
C28_3 C14_2 1_555 1_555
H1_2 C8_2 1_555 1_555
H2_2 C9_2 1_555 1_555
H3_2 C10_2 1_555 1_555
H4_2 C7_2 1_555 1_555
H5_2 C2_2 1_555 1_555
H6_2 C3_2 1_555 1_555
H7_2 C12_2 1_555 1_555
H8_2 C13_2 1_555 1_555
H9_2 C16_2 1_555 1_555
H11_2 C20_2 1_555 1_555
H12_2 C21_2 1_555 1_555
N7_2 Sn2 1_555 1_555
N8_2 Sn2 1_555 1_555
C29_2 C18_3 1_555 1_555
C30_2 C29_2 1_555 1_555
C31_2 C30_2 1_555 1_555
C32_2 N7_2 1_555 1_555
C33_2 C32_2 1_555 1_555
C39_2 N8_2 1_555 1_555
C40_2 C39_2 1_555 1_555
C41_2 C40_2 1_555 1_555
C42_2 C28_3 1_555 1_555
C43_2 C15_3 1_555 1_555
C45_2 C19_3 1_555 1_555
C46_2 N5_3 1_555 1_555
H21_2 C30_2 1_555 1_555
H22_2 C31_2 1_555 1_555
H23_2 C40_2 1_555 1_555
H24_2 C41_2 1_555 1_555
H25_2 C43_2 1_555 1_555
H27_2 C45_2 1_555 1_555
H28_2 C46_2 1_555 1_555
Ag5_3 N5_3 1_555 1_555
N12_3 Ag4_3 1_555 1_555
N1_2 Sn2 1_555 1_555
N2_2 Sn2 1_555 1_555
C9_2 C10_2 1_555 1_555
C13_2 C14_2 1_555 1_555
C15_3 C28_3 1_555 1_555
N7_2 C29_2 1_555 1_555
N8_2 C42_2 1_555 1_555
C31_2 C32_2 1_555 1_555
C33_2 C39_2 1_555 1_555
C41_2 C42_2 1_555 1_555
C45_2 C46_2 1_555 1_555
N12 C21_3 1_555 1_555
C21_3 C20_3 1_555 1_555
H12_3 C21_3 1_555 1_555
Ag1_3 N4_4 1_555 1_555
O1_2 C22_3 1_555 1_555
O2_3 C22_3 1_555 1_555
N1_3 C1_3 1_555 1_555
N2_3 C11_3 1_555 1_555
N4_4 C17_3 1_555 1_555
N6_3 C25_3 1_555 1_555
C4_3 N1_3 1_555 1_555
C5_3 C4_3 1_555 1_555
C6_3 C5_3 1_555 1_555
C7_3 C6_3 1_555 1_555
C8_3 C7_3 1_555 1_555
C11_3 C5_3 1_555 1_555
C12_3 C11_3 1_555 1_555
C13_3 C12_3 1_555 1_555
C14_3 N2_3 1_555 1_555
C15_4 C16_3 1_555 1_555
C16_3 C17_3 1_555 1_555
C17_3 H10_3 1_555 1_555
C18_4 C1_3 1_555 1_555
C19_4 C18_4 1_555 1_555
C22_3 C23_3 1_555 1_555
C23_3 C24_3 1_555 1_555
C24_3 C25_3 1_555 1_555
C25_3 H14_3 1_555 1_555
C26_3 N6_3 1_555 1_555
C27_3 C23_3 1_555 1_555
Sn1_3 O1_2 1_555 1_555
C28_4 C14_3 1_555 1_555
H1_3 C8_3 1_555 1_555
H4_3 C7_3 1_555 1_555
H7_3 C12_3 1_555 1_555
H8_3 C13_3 1_555 1_555
H9_3 C16_3 1_555 1_555
H13_3 C24_3 1_555 1_555
H15_3 C26_3 1_555 1_555
H16_3 C27_3 1_555 1_555
C31_3 C30_3 1_555 1_555
H21_3 C30_3 1_555 1_555
H22_3 C31_3 1_555 1_555
O3_3 C47_3 1_555 1_555
O4_3 C47_3 1_555 1_555
N10_2 Ag1_3 1_555 1_555
C47_3 C48_3 1_555 1_555
C48_3 C49_3 1_555 1_555
C49_3 C50_3 1_555 1_555
C50_3 N10_2 1_555 1_555
C51_3 N10_2 1_555 1_555
C52_3 C48_3 1_555 1_555
H29_3 C49_3 1_555 1_555
H30_3 C50_3 1_555 1_555
H31_3 C51_3 1_555 1_555
H32_3 C52_3 1_555 1_555
Ag3_2 N6_3 1_555 1_555
N11 Ag5 1_555 1_555
Sn2_2 O3_3 1_555 1_555
N1_3 Sn1_3 1_555 1_555
N2_3 Sn1_3 1_555 1_555
C13_3 C14_3 1_555 1_555
C15_4 C28_4 1_555 1_555
C26_3 C27_3 1_555 1_555
C51_3 C52_3 1_555 1_555
C37_3 N11 1_555 1_555
H18_3 C37_3 1_555 1_555
C37_3 C38_3 1_555 1_555
C46_3 N12_2 1_555 1_555
H28_3 C46_3 1_555 1_555
C45_3 C46_3 1_555 1_555
Ag1_4 N4_5 1_555 1_555
Ag5_2 N3_3 1_555 1_555
C2_3 C3_3 1_555 1_555
C9_3 N3_3 1_555 1_555
C19_5 C18_5 1_555 1_555
H2_3 C9_3 1_555 1_555
H3_3 C10_3 1_555 1_555
H5_3 C2_3 1_555 1_555
H6_3 C3_3 1_555 1_555
N7_3 Sn1_4 1_555 1_555
N8_3 Sn1_4 1_555 1_555
C29_3 C18_5 1_555 1_555
C32_3 N7_3 1_555 1_555
C33_3 C32_3 1_555 1_555
C39_3 N8_3 1_555 1_555
C40_3 C39_3 1_555 1_555
C41_3 C40_3 1_555 1_555
C42_3 C28_5 1_555 1_555
C43_3 C15_5 1_555 1_555
C44_3 N4_5 1_555 1_555
H23_3 C40_3 1_555 1_555
H24_3 C41_3 1_555 1_555
H25_3 C43_3 1_555 1_555
H26_3 C44_3 1_555 1_555
O5_2 Sn1_4 1_555 1_555
N13_2 Ag1_4 1_555 1_555
C9_3 C10_3 1_555 1_555
C15_5 C28_5 1_555 1_555
N7_3 C29_3 1_555 1_555
N8_3 C42_3 1_555 1_555
C33_3 C39_3 1_555 1_555
C41_3 C42_3 1_555 1_555
C43_3 C44_3 1_555 1_555
C35_3 C34_3 1_555 1_555
C36_3 C35_3 1_555 1_555
H17_3 C36_3 1_555 1_555
H20_3 C35_3 1_555 1_555
O5_2 C22_4 1_555 1_555
O2_4 C22_4 1_555 1_555
N6_4 C25_4 1_555 1_555
C22_4 C23_4 1_555 1_555
C23_4 C24_4 1_555 1_555
C24_4 C25_4 1_555 1_555
C25_4 H14_4 1_555 1_555
C26_4 N6_4 1_555 1_555
C27_4 C23_4 1_555 1_555
H13_4 C24_4 1_555 1_555
H15_4 C26_4 1_555 1_555
H16_4 C27_4 1_555 1_555
O3_4 C47_4 1_555 1_555
O4_4 C47_4 1_555 1_555
C47_4 C48_4 1_555 1_555
C48_4 C49_4 1_555 1_555
C49_4 C50_4 1_555 1_555
C50_4 N13_2 1_555 1_555
C51_4 N13_2 1_555 1_555
C52_4 C48_4 1_555 1_555
H29_4 C49_4 1_555 1_555
H30_4 C50_4 1_555 1_555
H31_4 C51_4 1_555 1_555
H32_4 C52_4 1_555 1_555
Ag3_2 N6_4 1_555 1_555
Sn2_2 O3_4 1_555 1_555
C26_4 C27_4 1_555 1_555
C51_4 C52_4 1_555 1_555
Ag5_3 N3_4 1_555 1_555
N1_4 C1_4 1_555 1_555
N2_4 C11_4 1_555 1_555
N3_4 C8_4 1_555 1_555
N12_3 C21_4 1_555 1_555
C1_4 C2_4 1_555 1_555
C2_4 C3_4 1_555 1_555
C3_4 C4_4 1_555 1_555
C4_4 N1_4 1_555 1_555
C5_4 C4_4 1_555 1_555
C6_4 C5_4 1_555 1_555
C7_4 C6_4 1_555 1_555
C8_4 C7_4 1_555 1_555
C9_4 N3_4 1_555 1_555
C10_4 C6_4 1_555 1_555
C11_4 C5_4 1_555 1_555
C12_4 C11_4 1_555 1_555
C13_4 C12_4 1_555 1_555
C14_4 N2_4 1_555 1_555
C15_6 C16_4 1_555 1_555
C18_6 C1_4 1_555 1_555
C19_6 C18_6 1_555 1_555
C20_4 C19_6 1_555 1_555
C21_4 C20_4 1_555 1_555
C28_6 C14_4 1_555 1_555
H1_4 C8_4 1_555 1_555
H2_4 C9_4 1_555 1_555
H3_4 C10_4 1_555 1_555
H4_4 C7_4 1_555 1_555
H5_4 C2_4 1_555 1_555
H6_4 C3_4 1_555 1_555
H7_4 C12_4 1_555 1_555
H8_4 C13_4 1_555 1_555
H9_4 C16_4 1_555 1_555
H11_4 C20_4 1_555 1_555
H12_4 C21_4 1_555 1_555
N7_4 Sn2_2 1_555 1_555
N8_4 Sn2_2 1_555 1_555
C29_4 C18_6 1_555 1_555
C30_4 C29_4 1_555 1_555
C31_4 C30_4 1_555 1_555
C32_4 N7_4 1_555 1_555
C33_4 C32_4 1_555 1_555
C39_4 N8_4 1_555 1_555
C40_4 C39_4 1_555 1_555
C41_4 C40_4 1_555 1_555
C42_4 C28_6 1_555 1_555
C43_4 C15_6 1_555 1_555
C45_4 C19_6 1_555 1_555
C46_4 N12_3 1_555 1_555
H21_4 C30_4 1_555 1_555
H22_4 C31_4 1_555 1_555
H23_4 C40_4 1_555 1_555
H24_4 C41_4 1_555 1_555
H25_4 C43_4 1_555 1_555
H27_4 C45_4 1_555 1_555
H28_4 C46_4 1_555 1_555
N11_2 Ag5_3 1_555 1_555
N1_4 Sn2_2 1_555 1_555
N2_4 Sn2_2 1_555 1_555
C9_4 C10_4 1_555 1_555
C13_4 C14_4 1_555 1_555
C15_6 C28_6 1_555 1_555
N7_4 C29_4 1_555 1_555
N8_4 C42_4 1_555 1_555
C31_4 C32_4 1_555 1_555
C33_4 C39_4 1_555 1_555
C41_4 C42_4 1_555 1_555
C45_4 C46_4 1_555 1_555
N11_2 C36_4 1_555 1_555
C35_4 C34_4 1_555 1_555
C36_4 C35_4 1_555 1_555
C37_4 N11_2 1_555 1_555
C38_4 C34_4 1_555 1_555
H17_4 C36_4 1_555 1_555
H18_4 C37_4 1_555 1_555
H20_4 C35_4 1_555 1_555
C37_4 C38_4 1_555 1_555
Ag3_2 N4_6 1_555 1_555
N4_6 C17_4 1_555 1_555
C17_4 H10_4 1_555 1_555
C44_4 N4_6 1_555 1_555
H26_4 C44_4 1_555 1_555
S1 O6 1_555 1_555
O7 S1 1_555 1_555
O8 S1 1_555 1_555
F1 C53 1_555 1_555
F2 C53 1_555 1_555
F3 C53 1_555 1_555
C53 S1 1_555 1_555
S1_2 O6_2 1_555 1_555
O8_2 S1_2 1_555 1_555
F2_2 C53_2 1_555 1_555
C53_2 S1_2 1_555 1_555
S1_3 O6_3 1_555 1_555
O7_3 S1_3 1_555 1_555
O8_3 S1_3 1_555 1_555
F1_3 C53_3 1_555 1_555
F2_3 C53_3 1_555 1_555
F3_3 C53_3 1_555 1_555
C53_3 S1_3 1_555 1_555
S1_4 O6_4 1_555 1_555
O8_4 S1_4 1_555 1_555
F2_4 C53_4 1_555 1_555
C53_4 S1_4 1_555 1_555
S1_5 O6_5 1_555 1_555
O7_5 S1_5 1_555 1_555
O8_5 S1_5 1_555 1_555
F1_5 C53_5 1_555 1_555
F2_5 C53_5 1_555 1_555
F3_5 C53_5 1_555 1_555
C53_5 S1_5 1_555 1_555
S1_6 O6_6 1_555 1_555
O8_6 S1_6 1_555 1_555
F2_6 C53_6 1_555 1_555
C53_6 S1_6 1_555 1_555
S1_7 O6_7 1_555 1_555
O7_7 S1_7 1_555 1_555
O8_7 S1_7 1_555 1_555
F1_7 C53_7 1_555 1_555
F2_7 C53_7 1_555 1_555
F3_7 C53_7 1_555 1_555
C53_7 S1_7 1_555 1_555
S1_8 O6_8 1_555 1_555
O8_8 S1_8 1_555 1_555
F2_8 C53_8 1_555 1_555
C53_8 S1_8 1_555 1_555

#END
