
###############################################################################
#
# This file contains modified crystal structure data generated from the
# MOF subset of the Cambridge Structural Database (CSD) v543 
# hosted by the Cambridge Crystallographic Data Centre (CCDC).
#
# This work is licensed under the Creative Commons
# Attribution-NonCommercial-ShareAlike 4.0 International License.
# To view a copy of this license, visit
# http://creativecommons.org/licenses/by-nc-sa/4.0/
# or send a letter to
# Creative Commons, PO Box 1866, Mountain View, CA 94042, USA.
#
# CIF created using the CSD Python API on 29 September 2022
# The structure has been converted into the P1 space group
# The structure has a 3D framework
# The original CSD entry DASTEY02 is in the monoclinic crystal system
# The framework has been calculated to contain at least 10.0% void space
# The void calculation uses a probe of radius 1.32A, grid spacing 0.4
# The framework is charged, counterions have been retained in the structure
#
###############################################################################

data_DASTEY02
_chemical_formula_moiety         '(C56 H48 N4 O40 Zn5)n'
_symmetry_cell_setting           triclinic
_symmetry_space_group_name_H-M   'P 1'
_symmetry_Int_Tables_number      1
_space_group_name_Hall           'P 1'
loop_
_symmetry_equiv_pos_site_id
_symmetry_equiv_pos_as_xyz
1 x,y,z
_cell_length_a                   9.426(5)
_cell_length_b                   15.424(5)
_cell_length_c                   17.359(5)
_cell_angle_alpha                90
_cell_angle_beta                 92.474(5)
_cell_angle_gamma                90
_cell_volume                     2521.41
loop_
_atom_site_label
_atom_site_type_symbol
_atom_site_fract_x
_atom_site_fract_y
_atom_site_fract_z
C5 C 0.1658(5) 0.0107(3) 0.1135(3)
C6 C 0.2900(5) 0.0662(4) 0.1362(3)
O3 O 0.0360(3) 0.0451(3) 0.1260(2)
O4 O 0.2721(5) 0.1370(4) 0.1657(4)
O5 O 0.4116(3) 0.0328(2) 0.12245(18)
Zn1 Zn 0.56336(5) 0.11449(4) 0.15741(3)
O13 O 0.7590(4) 0.0772(3) 0.1389(2)
O21 O 0.5614(5) 0.2261(3) 0.1032(2)
O26 O 0.5713(4) 0.1425(3) 0.26668(19)
Zn8 Zn 0.5000 0.0000 0.0000
Zn8_2 Zn 0.5000 0.0000 1.0000
C3 C 0.0046(6) 0.9140(4) 0.0728(3)
C4 C 0.1528(6) 0.9317(4) 0.0807(3)
H2 H 0.2279 0.8951 0.0658
Zn8_3 Zn 0.5000 1.0000 0.0000
Zn8_4 Zn 0.5000 1.0000 1.0000
C1 C 0.7856(5) 0.0071(4) 0.1056(3)
C19 C 0.5650(6) 0.2233(3) 0.0288(3)
C21 C 0.6153(11) 0.3871(4) 0.0236(4)
H7 H 0.6269 0.4016 0.0767
C14 C 0.0614(5) 0.0156(4) 0.8992(3)
H5 H 0.0390 0.1369 0.9480
C20 C 0.5864(6) 0.3080(4) 0.9930(3)
C22 C 0.6249(9) 0.4437(4) 0.9595(4)
H8 H 0.6421 0.5044 0.9616
C23 C 0.6053(6) 0.3963(3) 0.8960(3)
C24 C 0.5954(6) 0.4202(4) 0.8131(3)
O11 O 0.3015(4) 0.0441(3) 0.9231(3)
O23 O 0.5549(4) 0.1565(2) 0.9894(2)
O24 O 0.5782(4) 0.3118(2) 0.91506(19)
O25 O 0.5713(4) 0.3575(3) 0.76668(19)
O28 O 0.6094(6) 0.4975(3) 0.7952(3)
Zn7 Zn 0.56336(5) 0.38551(4) 0.65741(3)
C2 C 0.9386(5) 0.9844(4) 0.1008(3)
H1 H 0.9610 0.8631 0.0520
C8 C 0.4136(6) 0.6920(4) 0.0070(3)
C10 C 0.3751(9) 0.5563(4) 0.0405(4)
H4 H 0.3579 0.4956 0.0384
C11 C 0.3947(6) 0.6037(3) 0.1040(3)
C12 C 0.4046(6) 0.5798(4) 0.1869(3)
O1 O 0.6985(4) 0.9559(3) 0.0769(3)
O7 O 0.4451(4) 0.8435(2) 0.0106(2)
O8 O 0.4218(4) 0.6882(2) 0.08494(19)
O9 O 0.4287(4) 0.6425(3) 0.23332(19)
O10 O 0.3906(6) 0.5025(3) 0.2048(3)
Zn6 Zn 0.43664(5) 0.61449(4) 0.34259(3)
C7 C 0.4350(6) 0.7767(3) 0.9712(3)
C9 C 0.3847(11) 0.6129(4) 0.9764(4)
H3 H 0.3731 0.5984 0.9233
O6 O 0.4386(5) 0.7739(3) 0.8968(2)
C13 C 0.2144(5) 0.9929(4) 0.8944(3)
O12 O 0.2410(4) 0.9228(3) 0.8611(2)
O19 O 0.5884(3) 0.9672(2) 0.87755(18)
Zn5 Zn 0.43664(5) 0.88551(4) 0.84259(3)
C15 C 0.9954(6) 0.0860(4) 0.9272(3)
C16 C 0.8472(6) 0.0683(4) 0.9193(3)
H6 H 0.7721 0.1049 0.9342
C17 C 0.8342(5) 0.9893(3) 0.8865(3)
C18 C 0.7100(5) 0.9338(4) 0.8638(3)
O15 O 0.9640(3) 0.9549(3) 0.8740(2)
O16 O 0.7279(5) 0.8630(4) 0.8343(4)
O27 O 0.4287(4) 0.8575(3) 0.73332(19)
C15_2 C 0.0046(6) 0.5860(4) 0.5728(3)
C16_2 C 0.1528(6) 0.5683(4) 0.5807(3)
H6_2 H 0.2279 0.6049 0.5658
C17_2 C 0.1658(5) 0.4893(3) 0.6135(3)
C18_2 C 0.2900(5) 0.4338(4) 0.6362(3)
O14 O 0.7590(4) 0.4228(3) 0.6389(2)
O15_2 O 0.0360(3) 0.4549(3) 0.6260(2)
O16_2 O 0.2721(5) 0.3630(4) 0.6657(4)
O17 O 0.4116(3) 0.4672(2) 0.62245(18)
O22 O 0.5614(5) 0.2739(3) 0.6032(2)
Zn9 Zn 0.5000 0.5000 0.5000
C1_2 C 0.2144(5) 0.5071(4) 0.3944(3)
C2_2 C 0.0614(5) 0.4844(4) 0.3992(3)
H1_2 H 0.0390 0.3631 0.4480
C7_2 C 0.5650(6) 0.2767(3) 0.5288(3)
C8_2 C 0.5864(6) 0.1920(4) 0.4930(3)
C9_2 C 0.6153(11) 0.1129(4) 0.5236(4)
H3_2 H 0.6269 0.0984 0.5767
C10_2 C 0.6249(9) 0.0563(4) 0.4595(4)
C11_2 C 0.6053(6) 0.1037(3) 0.3960(3)
C12_2 C 0.5954(6) 0.0798(4) 0.3131(3)
O1_2 O 0.3015(4) 0.4559(3) 0.4231(3)
O2 O 0.2410(4) 0.5772(3) 0.3611(2)
O7_2 O 0.5549(4) 0.3435(2) 0.4894(2)
O8_2 O 0.5782(4) 0.1882(2) 0.41506(19)
O10_2 O 0.6094(6) 0.0025(3) 0.2952(3)
C13_2 C 0.7856(5) 0.4929(4) 0.6056(3)
C14_2 C 0.9386(5) 0.5156(4) 0.6008(3)
H5_2 H 0.9610 0.6369 0.5520
C19_2 C 0.4350(6) 0.7233(3) 0.4712(3)
C20_2 C 0.4136(6) 0.8080(4) 0.5070(3)
C21_2 C 0.3847(11) 0.8871(4) 0.4764(4)
H7_2 H 0.3731 0.9016 0.4233
C22_2 C 0.3751(9) 0.9437(4) 0.5405(4)
C23_2 C 0.3947(6) 0.8963(3) 0.6040(3)
C24_2 C 0.4046(6) 0.9202(4) 0.6869(3)
O11_2 O 0.6985(4) 0.5441(3) 0.5769(3)
O18 O 0.5884(3) 0.5328(2) 0.37755(18)
O20 O 0.4386(5) 0.7261(3) 0.3968(2)
O23_2 O 0.4451(4) 0.6565(2) 0.5106(2)
O24_2 O 0.4218(4) 0.8118(2) 0.58494(19)
O28_2 O 0.3906(6) 0.9975(3) 0.7048(3)
C3_2 C 0.9954(6) 0.4140(4) 0.4272(3)
C4_2 C 0.8472(6) 0.4317(4) 0.4193(3)
H2_2 H 0.7721 0.3951 0.4342
C5_2 C 0.8342(5) 0.5107(3) 0.3865(3)
C6_2 C 0.7100(5) 0.5662(4) 0.3638(3)
O3_2 O 0.9640(3) 0.5451(3) 0.3740(2)
O4_2 O 0.7279(5) 0.6370(4) 0.3343(4)
H8_2 H 0.3579 0.0044 0.5384
H4_2 H 0.6421 0.9956 0.4616
C25 C 0.6543(9) 0.8101(5) 0.2036(5)
H9 H 0.7344 0.8298 0.1740
H10 H 0.6369 0.7484 0.1934
H11 H 0.6765 0.8186 0.2588
C26 C 0.4062(9) 0.8485(4) 0.2302(4)
H12 H 0.3328 0.8138 0.2028
H13 H 0.3672 0.9054 0.2429
H14 H 0.4377 0.8187 0.2777
N1 N 0.5276(8) 0.8599(5) 0.1807(4)
H15 H 0.5512 0.9178 0.1802
H16 H 0.4996 0.8446 0.1312
C25_2 C 0.3457(9) 0.3101(5) 0.2964(5)
H9_2 H 0.2656 0.3298 0.3260
H10_2 H 0.3631 0.2484 0.3066
H11_2 H 0.3235 0.3186 0.2412
C26_2 C 0.5938(9) 0.3485(4) 0.2698(4)
H12_2 H 0.6672 0.3138 0.2972
H13_2 H 0.6328 0.4054 0.2571
H14_2 H 0.5623 0.3187 0.2223
N1_2 N 0.4724(8) 0.3599(5) 0.3193(4)
H15_2 H 0.4488 0.4178 0.3198
H16_2 H 0.5004 0.3446 0.3688
C25_3 C 0.3457(9) 0.1899(5) 0.7964(5)
H9_3 H 0.2656 0.1702 0.8260
H10_3 H 0.3631 0.2516 0.8066
H11_3 H 0.3235 0.1814 0.7412
C26_3 C 0.5938(9) 0.1515(4) 0.7698(4)
H12_3 H 0.6672 0.1862 0.7972
H13_3 H 0.6328 0.0946 0.7571
H14_3 H 0.5623 0.1813 0.7223
N1_3 N 0.4724(8) 0.1401(5) 0.8193(4)
H15_3 H 0.4488 0.0822 0.8198
H16_3 H 0.5004 0.1554 0.8688
C25_4 C 0.6543(9) 0.6899(5) 0.7036(5)
H9_4 H 0.7344 0.6702 0.6740
H10_4 H 0.6369 0.7516 0.6934
H11_4 H 0.6765 0.6814 0.7588
C26_4 C 0.4062(9) 0.6515(4) 0.7302(4)
H12_4 H 0.3328 0.6862 0.7028
H13_4 H 0.3672 0.5946 0.7429
H14_4 H 0.4377 0.6813 0.7777
N1_4 N 0.5276(8) 0.6401(5) 0.6807(4)
H15_4 H 0.5512 0.5822 0.6802
H16_4 H 0.4996 0.6554 0.6312
loop_
_geom_bond_atom_site_label_1
_geom_bond_atom_site_label_2
_geom_bond_site_symmetry_1
_geom_bond_site_symmetry_2
C6 C5 1_555 1_555
O4 C6 1_555 1_555
O5 C6 1_555 1_555
Zn1 O5 1_555 1_555
O13 Zn1 1_555 1_555
O21 Zn1 1_555 1_555
O26 Zn1 1_555 1_555
Zn8 O5 1_555 1_555
C5 O3 1_555 1_555
C4 C3 1_555 1_555
H2 C4 1_555 1_555
O13 C1 1_555 1_555
C21 H7 1_555 1_555
O21 C19 1_555 1_555
H8 C22 1_555 1_555
C23 C22 1_555 1_555
C24 C23 1_555 1_555
O11 Zn8_2 1_555 1_555
O23 Zn8_2 1_555 1_555
O24 C20 1_555 1_555
O25 C24 1_555 1_555
O28 C24 1_555 1_555
Zn7 O25 1_555 1_555
C23 O24 1_555 1_555
H4 C10 1_555 1_555
C11 C10 1_555 1_555
C12 C11 1_555 1_555
O8 C8 1_555 1_555
O9 C12 1_555 1_555
O10 C12 1_555 1_555
Zn8_3 O1 1_555 1_555
Zn6 O9 1_555 1_555
C11 O8 1_555 1_555
O7 Zn8_3 1_555 1_555
C9 H3 1_555 1_555
O6 C7 1_555 1_555
O12 C13 1_555 1_555
O19 Zn8_4 1_555 1_555
Zn5 O6 1_555 1_555
O12 Zn5 1_555 1_555
O19 Zn5 1_555 1_555
C16 C15 1_555 1_555
H6 C16 1_555 1_555
C18 C17 1_555 1_555
O16 C18 1_555 1_555
O19 C18 1_555 1_555
O27 Zn5 1_555 1_555
C17 O15 1_555 1_555
C16_2 C15_2 1_555 1_555
H6_2 C16_2 1_555 1_555
C17_2 C16_2 1_555 1_555
C18_2 C17_2 1_555 1_555
O14 Zn7 1_555 1_555
O16_2 C18_2 1_555 1_555
O17 C18_2 1_555 1_555
O22 Zn7 1_555 1_555
Zn7 O17 1_555 1_555
Zn9 O17 1_555 1_555
C17_2 O15_2 1_555 1_555
C1_2 C2_2 1_555 1_555
C7_2 C8_2 1_555 1_555
C8_2 C9_2 1_555 1_555
C9_2 H3_2 1_555 1_555
C10_2 C9_2 1_555 1_555
C11_2 C10_2 1_555 1_555
C12_2 C11_2 1_555 1_555
O1_2 C1_2 1_555 1_555
O2 C1_2 1_555 1_555
O22 C7_2 1_555 1_555
O7_2 C7_2 1_555 1_555
O8_2 C8_2 1_555 1_555
O26 C12_2 1_555 1_555
O10_2 C12_2 1_555 1_555
Zn9 O1_2 1_555 1_555
C13_2 C14_2 1_555 1_555
C19_2 C20_2 1_555 1_555
C20_2 C21_2 1_555 1_555
C21_2 H7_2 1_555 1_555
C22_2 C21_2 1_555 1_555
C23_2 C22_2 1_555 1_555
C24_2 C23_2 1_555 1_555
O11_2 Zn9 1_555 1_555
O14 C13_2 1_555 1_555
O18 Zn9 1_555 1_555
O20 C19_2 1_555 1_555
O23_2 Zn9 1_555 1_555
O24_2 C20_2 1_555 1_555
O27 C24_2 1_555 1_555
O28_2 C24_2 1_555 1_555
Zn6 O2 1_555 1_555
C11_2 O8_2 1_555 1_555
O7_2 Zn9 1_555 1_555
C13_2 O11_2 1_555 1_555
C19_2 O23_2 1_555 1_555
C23_2 O24_2 1_555 1_555
O18 Zn6 1_555 1_555
O20 Zn6 1_555 1_555
C4_2 C3_2 1_555 1_555
H2_2 C4_2 1_555 1_555
C5_2 C4_2 1_555 1_555
C6_2 C5_2 1_555 1_555
O4_2 C6_2 1_555 1_555
O18 C6_2 1_555 1_555
C5_2 O3_2 1_555 1_555
C25 H9 1_555 1_555
H10 C25 1_555 1_555
H11 C25 1_555 1_555
C26 H12 1_555 1_555
H13 C26 1_555 1_555
H14 C26 1_555 1_555
N1 C25 1_555 1_555
H15 N1 1_555 1_555
H16 N1 1_555 1_555
C26 N1 1_555 1_555
C25_2 H9_2 1_555 1_555
H10_2 C25_2 1_555 1_555
H11_2 C25_2 1_555 1_555
C26_2 H12_2 1_555 1_555
H13_2 C26_2 1_555 1_555
H14_2 C26_2 1_555 1_555
N1_2 C25_2 1_555 1_555
H15_2 N1_2 1_555 1_555
H16_2 N1_2 1_555 1_555
C26_2 N1_2 1_555 1_555
C25_3 H9_3 1_555 1_555
H10_3 C25_3 1_555 1_555
H11_3 C25_3 1_555 1_555
C26_3 H12_3 1_555 1_555
H13_3 C26_3 1_555 1_555
H14_3 C26_3 1_555 1_555
N1_3 C25_3 1_555 1_555
H15_3 N1_3 1_555 1_555
H16_3 N1_3 1_555 1_555
C26_3 N1_3 1_555 1_555
C25_4 H9_4 1_555 1_555
H10_4 C25_4 1_555 1_555
H11_4 C25_4 1_555 1_555
C26_4 H12_4 1_555 1_555
H13_4 C26_4 1_555 1_555
H14_4 C26_4 1_555 1_555
N1_4 C25_4 1_555 1_555
H15_4 N1_4 1_555 1_555
H16_4 N1_4 1_555 1_555
C26_4 N1_4 1_555 1_555

#END
