
###############################################################################
#
# This file contains modified crystal structure data generated from the
# MOF subset of the Cambridge Structural Database (CSD) v543 
# hosted by the Cambridge Crystallographic Data Centre (CCDC).
#
# This work is licensed under the Creative Commons
# Attribution-NonCommercial-ShareAlike 4.0 International License.
# To view a copy of this license, visit
# http://creativecommons.org/licenses/by-nc-sa/4.0/
# or send a letter to
# Creative Commons, PO Box 1866, Mountain View, CA 94042, USA.
#
# CIF created using the CSD Python API on 29 September 2022
# The structure has been converted into the P1 space group
# The structure has a 3D framework
# The original CSD entry DASTEY01 is in the triclinic crystal system
# The framework has been calculated to contain at least 10.0% void space
# The void calculation uses a probe of radius 1.32A, grid spacing 0.4
# The framework is charged, counterions have been retained in the structure
#
###############################################################################

data_DASTEY01
_chemical_formula_moiety         '(C56 H48 N4 O39 Zn6 1-)n'
_symmetry_cell_setting           triclinic
_symmetry_space_group_name_H-M   'P 1'
_symmetry_Int_Tables_number      1
_space_group_name_Hall           'P 1'
loop_
_symmetry_equiv_pos_site_id
_symmetry_equiv_pos_as_xyz
1 x,y,z
_cell_length_a                   12.7693(10)
_cell_length_b                   12.7842(9)
_cell_length_c                   14.7758(11)
_cell_angle_alpha                85.019(2)
_cell_angle_beta                 65.8700(10)
_cell_angle_gamma                89.613(2)
_cell_volume                     2191.9
loop_
_atom_site_label
_atom_site_type_symbol
_atom_site_fract_x
_atom_site_fract_y
_atom_site_fract_z
O29 O 0.20070(12) 0.10081(11) 0.58041(11)
Zn15 Zn -0.0000 0.0000 0.5000
O24 O 0.00256(14) 0.93356(12) 0.75174(11)
O25 O 0.05449(10) 0.89824(10) 0.59349(9)
O32 O 0.04310(13) 0.13244(11) 0.55036(11)
O39 O 0.28388(12) 0.90323(12) 0.42396(10)
O50 O 0.25154(15) 0.83810(17) 0.65376(13)
O53 O 0.3862(2) 0.95238(19) 0.5674(2)
Zn7 Zn 0.215161(17) 0.951268(16) 0.559002(15)
Zn15_2 Zn 0.0000 1.0000 0.5000
O41 O 0.15857(11) 0.99704(11) 0.38292(10)
Zn15_3 Zn 1.0000 0.0000 0.5000
C1 C 0.26509(15) 0.37997(15) 0.06895(14)
C2 C 0.19927(16) 0.33185(15) 0.17113(14)
C3 C 0.18196(19) 0.36203(17) 0.26181(15)
H1 H 0.2132 0.4215 0.2747
C4 C 0.10655(19) 0.28451(17) 0.33314(15)
H2 H 0.0786 0.2833 0.4021
C5 C 0.08348(15) 0.21286(15) 0.28099(13)
C6 C 0.00599(15) 0.11849(14) 0.31046(13)
O2 O 0.32040(11) 0.46396(11) 0.05710(11)
O3 O 0.13998(11) 0.23971(11) 0.18111(10)
Zn3 Zn 0.5000 0.5000 0.0000
C37 C 0.23266(15) 0.92884(15) 0.36805(13)
C38 C 0.26304(16) 0.87381(15) 0.27742(14)
C39 C 0.22118(19) 0.87889(18) 0.20644(17)
H13 H 0.1639 0.9221 0.2028
C40 C 0.2823(2) 0.80492(19) 0.13857(17)
H14 H 0.2733 0.7902 0.0816
C41 C 0.35676(17) 0.76001(15) 0.17403(15)
C42 C 0.44546(16) 0.68053(15) 0.13587(14)
C43 C 0.54878(15) 0.39410(14) 0.17412(13)
C44 C 0.52619(16) 0.29550(15) 0.23987(14)
C45 C 0.43505(19) 0.22692(18) 0.2822(2)
H15 H 0.3668 0.2297 0.2736
C46 C 0.4650(2) 0.1499(2) 0.3422(2)
H16 H 0.4196 0.0929 0.3818
C47 C 0.57221(18) 0.17583(17) 0.33039(16)
C48 C 0.6502(2) 0.12656(19) 0.37215(18)
O21 O 0.74266(14) 0.66660(13) 0.00054(11)
O36 O 0.72685(13) 0.65104(12) 0.21579(12)
O42 O 0.34674(12) 0.80096(11) 0.25892(10)
O43 O 0.50574(13) 0.66093(12) 0.18524(11)
O44 O 0.45375(13) 0.64227(11) 0.05877(11)
O45 O 0.63771(12) 0.44619(10) 0.16413(11)
O46 O 0.48029(11) 0.41760(11) 0.13619(10)
O47 O 0.61143(11) 0.26531(11) 0.26919(10)
O48 O 0.74846(15) 0.16190(17) 0.34624(13)
O51 O 0.6138(2) 0.04762(19) 0.4326(2)
Zn5 Zn 0.656214(18) 0.597279(16) 0.132753(15)
Zn12 Zn 0.784839(17) 0.048732(16) 0.440998(15)
C7 C 0.11435(17) 0.15325(14) 0.58422(13)
C8 C 0.09417(18) 0.25005(15) 0.63611(15)
C9 C 0.0090(2) 0.31970(18) 0.6573(2)
C10 C 0.0288(2) 0.39057(19) 0.7186(2)
C11 C 0.12451(19) 0.35936(16) 0.72974(16)
C12 C 0.18340(18) 0.39754(16) 0.78920(16)
C13 C 0.76734(15) 0.07116(15) 0.63195(13)
C14 C 0.73696(16) 0.12619(15) 0.72258(14)
C15 C 0.77882(19) 0.12111(18) 0.79356(17)
H5 H 0.8361 0.0779 0.7972
C16 C 0.7177(2) 0.19508(19) 0.86143(17)
H6 H 0.7267 0.2098 0.9184
C17 C 0.64324(17) 0.23999(15) 0.82597(15)
C18 C 0.55454(16) 0.31947(15) 0.86413(14)
C19 C 0.45122(15) 0.60590(14) 0.82588(13)
C20 C 0.47381(16) 0.70450(15) 0.76013(14)
C21 C 0.56495(19) 0.77308(18) 0.7178(2)
H7 H 0.6332 0.7703 0.7264
C22 C 0.5350(2) 0.8501(2) 0.6578(2)
H8 H 0.5804 0.9071 0.6182
C23 C 0.42779(18) 0.82417(17) 0.66961(16)
C24 C 0.3498(2) 0.87344(19) 0.62785(18)
O1 O 0.25734(14) 0.33340(13) 0.99946(11)
O8 O 0.16679(12) 0.27278(11) 0.67955(11)
O9 O 0.14176(15) 0.47030(15) 0.84009(15)
O10 O 0.27315(13) 0.34896(12) 0.78421(12)
O11 O 0.71612(12) 0.09677(12) 0.57604(10)
O12 O 0.84143(11) 0.00296(11) 0.61708(10)
O13 O 0.65326(12) 0.19904(11) 0.74108(10)
O14 O 0.49426(13) 0.33907(12) 0.81476(11)
O15 O 0.54625(13) 0.35773(11) 0.94123(11)
O16 O 0.36229(12) 0.55381(10) 0.83587(11)
O17 O 0.51971(11) 0.58240(11) 0.86381(10)
O18 O 0.38857(11) 0.73469(11) 0.73081(10)
Zn1 Zn 0.343786(18) 0.402721(16) 0.867247(15)
Zn3_2 Zn 0.5000 0.5000 1.0000
C25 C 0.73491(15) 0.62003(15) 0.93105(14)
C26 C 0.80073(16) 0.66815(15) 0.82887(14)
C27 C 0.81804(19) 0.63797(17) 0.73819(15)
H9 H 0.7868 0.5785 0.7253
C28 C 0.89345(19) 0.71549(17) 0.66686(15)
H10 H 0.9214 0.7167 0.5979
C29 C 0.91652(15) 0.78714(15) 0.71901(13)
C30 C 0.99401(15) 0.88151(14) 0.68954(13)
O22 O 0.67960(11) 0.53604(11) 0.94290(11)
O23 O 0.86002(11) 0.76029(11) 0.81889(10)
O26 O 0.94551(10) 0.10176(10) 0.40651(9)
Zn15_4 Zn 1.0000 1.0000 0.5000
H11 H 0.0503 0.6789 0.3639
H12 H 0.0156 0.5528 0.2544
O31 O 0.95690(13) 0.86756(11) 0.44964(11)
O4 O 0.99744(14) 0.06644(12) 0.24826(11)
H3 H 0.9497 0.3211 0.6361
H4 H 0.9844 0.4472 0.7456
C31 C 0.88565(17) 0.84675(14) 0.41578(13)
C32 C 0.90583(18) 0.74995(15) 0.36389(15)
C33 C 0.9910(2) 0.68030(18) 0.3427(2)
C34 C 0.9712(2) 0.60943(19) 0.2814(2)
C35 C 0.87549(19) 0.64064(16) 0.27026(16)
C36 C 0.81660(18) 0.60246(16) 0.21080(16)
O28 O 0.79930(12) 0.89919(11) 0.41959(11)
O33 O 0.83321(12) 0.72722(11) 0.32045(11)
O34 O 0.85824(15) 0.52970(15) 0.15991(15)
C50 C 0.1231(3) 0.6288(2) 0.0089(2)
H20 H 0.0874 0.6827 0.0519
H21 H 0.1909 0.6071 0.0174
H22 H 0.0705 0.5697 0.0255
C49 C 0.0560(3) 0.6919(2) 0.8789(3)
H17 H 0.0108 0.6285 0.8903
H18 H 0.0835 0.7180 0.8100
H19 H 0.0096 0.7436 0.9196
N1 N 0.15442(15) 0.66977(14) 0.90468(15)
H23 H 0.1984 0.6228 0.8647
H24 H 0.1971 0.7294 0.8922
C49_2 C 0.9440(3) 0.3081(2) 0.1211(3)
H17_2 H 0.9892 0.3715 0.1097
H18_2 H 0.9165 0.2820 0.1900
H19_2 H 0.9904 0.2564 0.0804
N1_2 N 0.84558(15) 0.33023(14) 0.09532(15)
H23_2 H 0.8016 0.3772 0.1353
H24_2 H 0.8029 0.2706 0.1078
C50_2 C 0.8769(3) 0.3712(2) 0.9911(2)
H20_2 H 0.9126 0.3173 0.9481
H21_2 H 0.8091 0.3929 0.9826
H22_2 H 0.9295 0.4303 0.9745
C51 C 0.4731(5) 0.2555(4) 0.5804(4)
H25 H 0.4169 0.3086 0.5905
H26 H 0.5197 0.2546 0.5104
H27 H 0.5209 0.2706 0.6140
C52 C 0.4047(4) 0.1200(4) 0.7193(4)
H28 H 0.4767 0.1292 0.7241
H29 H 0.3816 0.0470 0.7331
H30 H 0.3475 0.1599 0.7667
N2 N 0.4171(5) 0.1566(4) 0.6189(4)
H31 H 0.4563 0.1087 0.5775
H32 H 0.3467 0.1593 0.6188
C51_2 C 0.5269(5) 0.7445(4) 0.4196(4)
H25_2 H 0.5831 0.6914 0.4095
H26_2 H 0.4803 0.7454 0.4896
H27_2 H 0.4791 0.7294 0.3860
C52_2 C 0.5953(4) 0.8800(4) 0.2807(4)
H28_2 H 0.5233 0.8708 0.2759
H29_2 H 0.6184 0.9530 0.2669
H30_2 H 0.6525 0.8401 0.2333
N2_2 N 0.5829(5) 0.8434(4) 0.3811(4)
H31_2 H 0.5437 0.8913 0.4225
H32_2 H 0.6533 0.8407 0.3812
loop_
_geom_bond_atom_site_label_1
_geom_bond_atom_site_label_2
_geom_bond_site_symmetry_1
_geom_bond_site_symmetry_2
O32 Zn15 1_555 1_555
O39 Zn7 1_555 1_555
O50 Zn7 1_555 1_555
O53 Zn7 1_555 1_555
Zn7 O25 1_555 1_555
Zn15_2 O25 1_555 1_555
O41 Zn15_2 1_555 1_555
C1 C2 1_555 1_555
C2 C3 1_555 1_555
C3 H1 1_555 1_555
C4 C3 1_555 1_555
H2 C4 1_555 1_555
C5 C4 1_555 1_555
C6 C5 1_555 1_555
O2 C1 1_555 1_555
O3 C2 1_555 1_555
Zn3 O2 1_555 1_555
C37 C38 1_555 1_555
C38 C39 1_555 1_555
C39 H13 1_555 1_555
C40 C39 1_555 1_555
H14 C40 1_555 1_555
C41 C40 1_555 1_555
C42 C41 1_555 1_555
C43 C44 1_555 1_555
C44 C45 1_555 1_555
C45 H15 1_555 1_555
C46 C45 1_555 1_555
H16 C46 1_555 1_555
C47 C46 1_555 1_555
C48 C47 1_555 1_555
O36 Zn5 1_555 1_555
O39 C37 1_555 1_555
O41 C37 1_555 1_555
O42 C38 1_555 1_555
O43 C42 1_555 1_555
O44 Zn3 1_555 1_555
O45 C43 1_555 1_555
O46 Zn3 1_555 1_555
O47 C44 1_555 1_555
O48 C48 1_555 1_555
O51 C48 1_555 1_555
Zn5 O21 1_555 1_555
Zn12 O48 1_555 1_555
C5 O3 1_555 1_555
C41 O42 1_555 1_555
C42 O44 1_555 1_555
C43 O46 1_555 1_555
C47 O47 1_555 1_555
O43 Zn5 1_555 1_555
O45 Zn5 1_555 1_555
O51 Zn12 1_555 1_555
C7 C8 1_555 1_555
C8 C9 1_555 1_555
C10 C9 1_555 1_555
C11 C10 1_555 1_555
C12 C11 1_555 1_555
C13 C14 1_555 1_555
C14 C15 1_555 1_555
C15 H5 1_555 1_555
C16 C15 1_555 1_555
H6 C16 1_555 1_555
C17 C16 1_555 1_555
C18 C17 1_555 1_555
C19 C20 1_555 1_555
C20 C21 1_555 1_555
C21 H7 1_555 1_555
C22 C21 1_555 1_555
H8 C22 1_555 1_555
C23 C22 1_555 1_555
C24 C23 1_555 1_555
O29 C7 1_555 1_555
O32 C7 1_555 1_555
O8 C8 1_555 1_555
O9 C12 1_555 1_555
O10 C12 1_555 1_555
O11 C13 1_555 1_555
O12 C13 1_555 1_555
O13 C14 1_555 1_555
O14 C18 1_555 1_555
O15 C18 1_555 1_555
O16 C19 1_555 1_555
O17 C19 1_555 1_555
O18 C20 1_555 1_555
O50 C24 1_555 1_555
O53 C24 1_555 1_555
Zn1 O1 1_555 1_555
Zn15_3 O12 1_555 1_555
C25 C26 1_555 1_555
C26 C27 1_555 1_555
C27 H9 1_555 1_555
C28 C27 1_555 1_555
H10 C28 1_555 1_555
C29 C28 1_555 1_555
C30 C29 1_555 1_555
O22 Zn3_2 1_555 1_555
O23 C26 1_555 1_555
O26 Zn15_3 1_555 1_555
Zn12 O11 1_555 1_555
C11 O8 1_555 1_555
C17 O13 1_555 1_555
C23 O18 1_555 1_555
O10 Zn1 1_555 1_555
O14 Zn1 1_555 1_555
O15 Zn3_2 1_555 1_555
O16 Zn1 1_555 1_555
O17 Zn3_2 1_555 1_555
C25 O22 1_555 1_555
C29 O23 1_555 1_555
O26 Zn12 1_555 1_555
O31 Zn15_4 1_555 1_555
C31 C32 1_555 1_555
C32 C33 1_555 1_555
C34 C33 1_555 1_555
C35 C34 1_555 1_555
C36 C35 1_555 1_555
O31 C31 1_555 1_555
O33 C32 1_555 1_555
O34 C36 1_555 1_555
O36 C36 1_555 1_555
C31 O28 1_555 1_555
C35 O33 1_555 1_555
C50 H20 1_555 1_555
H21 C50 1_555 1_555
H22 C50 1_555 1_555
C49 H17 1_555 1_555
H18 C49 1_555 1_555
H19 C49 1_555 1_555
N1 C49 1_555 1_555
H23 N1 1_555 1_555
H24 N1 1_555 1_555
C49_2 H17_2 1_555 1_555
H18_2 C49_2 1_555 1_555
H19_2 C49_2 1_555 1_555
N1_2 C49_2 1_555 1_555
H23_2 N1_2 1_555 1_555
H24_2 N1_2 1_555 1_555
C50_2 H20_2 1_555 1_555
H21_2 C50_2 1_555 1_555
H22_2 C50_2 1_555 1_555
C51 H25 1_555 1_555
H26 C51 1_555 1_555
H27 C51 1_555 1_555
C52 H28 1_555 1_555
H29 C52 1_555 1_555
H30 C52 1_555 1_555
N2 C51 1_555 1_555
H31 N2 1_555 1_555
H32 N2 1_555 1_555
C52 N2 1_555 1_555
C51_2 H25_2 1_555 1_555
H26_2 C51_2 1_555 1_555
H27_2 C51_2 1_555 1_555
C52_2 H28_2 1_555 1_555
H29_2 C52_2 1_555 1_555
H30_2 C52_2 1_555 1_555
N2_2 C51_2 1_555 1_555
H31_2 N2_2 1_555 1_555
H32_2 N2_2 1_555 1_555
C52_2 N2_2 1_555 1_555

#END
