
###############################################################################
#
# This file contains modified crystal structure data generated from the
# MOF subset of the Cambridge Structural Database (CSD) v543 
# hosted by the Cambridge Crystallographic Data Centre (CCDC).
#
# This work is licensed under the Creative Commons
# Attribution-NonCommercial-ShareAlike 4.0 International License.
# To view a copy of this license, visit
# http://creativecommons.org/licenses/by-nc-sa/4.0/
# or send a letter to
# Creative Commons, PO Box 1866, Mountain View, CA 94042, USA.
#
# CIF created using the CSD Python API on 29 September 2022
# The structure has been converted into the P1 space group
# The structure has a 3D framework
# The original CSD entry DATHAJ is in the orthorhombic crystal system
# The framework has been calculated to contain at least 10.0% void space
# The void calculation uses a probe of radius 1.32A, grid spacing 0.4
#
###############################################################################

data_DATHAJ
_chemical_formula_moiety         '(C84 H108 N16 Nd10 O90)n'
_symmetry_cell_setting           triclinic
_symmetry_space_group_name_H-M   'P 1'
_symmetry_Int_Tables_number      1
_space_group_name_Hall           'P 1'
loop_
_symmetry_equiv_pos_site_id
_symmetry_equiv_pos_as_xyz
1 x,y,z
_cell_length_a                   13.0079(10)
_cell_length_b                   22.5014(18)
_cell_length_c                   12.6096(10)
_cell_angle_alpha                90
_cell_angle_beta                 90
_cell_angle_gamma                90
_cell_volume                     3690.78
loop_
_atom_site_label
_atom_site_type_symbol
_atom_site_fract_x
_atom_site_fract_y
_atom_site_fract_z
O17 O 0.21144(18) 0.03963(11) 0.16493(18)
O20 O 0.00872(17) 0.00116(10) 0.11002(19)
O30 O 0.1024(2) 0.11428(12) 0.0236(2)
H15 H 0.0405 0.1070 0.0065
H16 H 0.1069 0.1258 0.0877
Nd3 Nd 0.160974(13) 0.007320(8) 0.988578(14)
O24 O 0.09650(18) 0.06451(11) 0.81909(19)
N4 N 0.3203(2) 0.05105(13) 0.8975(2)
Nd2 Nd 0.291844(19) 0.7500 0.16345(2)
O5 O 0.15345(18) 0.68688(11) 0.0791(2)
O6 O 0.10752(18) 0.59771(11) 0.01605(19)
O7 O 0.29853(18) 0.55784(11) 0.0519(2)
O8 O 0.34537(18) 0.64769(10) 0.1087(2)
O9 O 0.4807(3) 0.7500 0.1586(3)
O10 O 0.6427(3) 0.7500 0.2128(3)
O11 O 0.1024(2) 0.38572(12) 0.0236(2)
H1 H 0.0405 0.3930 0.0065
H2 H 0.1069 0.3742 0.0877
O12 O 0.3318(3) 0.68357(14) 0.3167(2)
H3 H 0.3490 0.6471 0.3146
H4 H 0.3278 0.6961 0.3801
C6 C 0.4078(3) 0.37744(18) 0.0234(3)
H7 H 0.4410 0.3397 0.0090
H8 H 0.3406 0.3694 0.0535
C7 C 0.4724(4) 0.4129(2) 0.1032(3)
H9 H 0.5356 0.4257 0.0693
H10 H 0.4347 0.4482 0.1244
C8 C 0.4983(4) 0.3767(3) 0.2009(4)
H11 H 0.4371 0.3703 0.2418
H12 H 0.5478 0.3977 0.2430
H13 H 0.5264 0.3391 0.1797
C9 C 0.1707(3) 0.63435(15) 0.0548(3)
C10 C 0.2812(3) 0.61070(15) 0.0738(3)
C11 C 0.5477(4) 0.7500 0.2274(5)
H14 H 0.5253 0.7500 0.2975
Nd6 Nd 0.339026(13) 0.507320(8) 0.488578(14)
Nd8 Nd 0.791844(19) 0.7500 0.33655(2)
O14 O 0.28253(18) 0.45524(11) 0.32505(19)
O16 O 0.21144(18) 0.46037(11) 0.16493(18)
O18 O 0.00872(17) 0.49884(10) 0.11002(19)
O25 O 0.15345(18) 0.81312(11) 0.0791(2)
O26 O 0.10752(18) 0.90229(11) 0.01605(19)
O27 O 0.29853(18) 0.94216(11) 0.0519(2)
O28 O 0.34537(18) 0.85231(10) 0.1087(2)
O29 O 0.1427(3) 0.7500 0.2872(3)
O31 O 0.3318(3) 0.81643(14) 0.3167(2)
H17 H 0.3490 0.8529 0.3146
H18 H 0.3278 0.8039 0.3801
N3 N 0.1797(2) 0.55105(13) 0.3975(2)
N5 N 0.0322(2) 0.58869(13) 0.3464(2)
C12 C 0.1536(2) 0.52599(15) 0.3010(3)
C13 C 0.0604(3) 0.54895(15) 0.2682(3)
C14 C 0.1042(2) 0.58863(16) 0.4224(3)
C15 C 0.2207(2) 0.47742(15) 0.2587(3)
C17 C 0.0922(3) 0.62256(18) 0.5234(3)
H21 H 0.0590 0.6603 0.5090
H22 H 0.1594 0.6306 0.5535
C18 C 0.0276(4) 0.5871(2) 0.6032(3)
H24 H 0.0653 0.5518 0.6244
C19 C 0.0017(4) 0.6233(3) 0.7009(4)
H25 H 0.0629 0.6297 0.7418
C20 C 0.1707(3) 0.86565(15) 0.0548(3)
C21 C 0.2812(3) 0.88930(15) 0.0738(3)
Nd1 Nd 0.160974(13) 0.492680(8) 0.988578(14)
O1 O 0.21747(18) 0.54476(11) 0.82505(19)
O2 O 0.28856(18) 0.53963(11) 0.66493(18)
O3 O 0.49128(17) 0.50116(10) 0.61002(19)
O4 O 0.59650(18) 0.43549(11) 0.68091(19)
O13 O 0.3353(3) 0.7500 0.9672(3)
H5 H 0.3161 0.7203 0.9306
N1 N 0.3203(2) 0.44895(13) 0.8975(2)
N2 N 0.4678(2) 0.41131(13) 0.8464(2)
H6 H 0.5226 0.3900 0.8463
C1 C 0.3464(2) 0.47401(15) 0.8010(3)
C2 C 0.4396(3) 0.45105(15) 0.7682(3)
C3 C 0.3958(2) 0.41137(16) 0.9224(3)
C4 C 0.2793(2) 0.52258(15) 0.7587(3)
C5 C 0.5127(2) 0.46286(15) 0.6817(3)
Nd5 Nd 0.660974(13) 0.492680(8) 0.511422(14)
O15 O 0.21747(18) 0.95524(11) 0.82505(19)
O23 O 0.09650(18) 0.43549(11) 0.81909(19)
H19 H 0.3161 0.7797 0.9306
Nd7 Nd 0.839026(13) 0.507320(8) 0.011422(14)
O22 O 0.90350(18) 0.56451(11) 0.18091(19)
H20 H 0.9774 0.6100 0.3463
C16 C 0.9873(2) 0.53714(15) 0.1817(3)
H23 H 0.9644 0.5743 0.5693
H26 H 0.9522 0.6023 0.7430
H27 H 0.9736 0.6609 0.6797
O19 O 0.99128(17) 0.50116(10) 0.88998(19)
O21 O 0.99128(17) 0.99884(10) 0.88998(19)
Nd2_2 Nd 0.208156(19) 0.2500 0.66345(2)
O5_2 O 0.34655(18) 0.31312(11) 0.5791(2)
O6_2 O 0.39248(18) 0.40229(11) 0.51605(19)
O7_2 O 0.20147(18) 0.44216(11) 0.5519(2)
O8_2 O 0.15463(18) 0.35231(10) 0.6087(2)
O9_2 O 0.0193(3) 0.2500 0.6586(3)
O11_2 O 0.3976(2) 0.61428(12) 0.5236(2)
H1_2 H 0.4595 0.6070 0.5065
H2_2 H 0.3931 0.6258 0.5877
O12_2 O 0.1682(3) 0.31643(14) 0.8167(2)
H3_2 H 0.1510 0.3529 0.8146
H4_2 H 0.1722 0.3039 0.8801
O13_2 O 0.1647(3) 0.2500 0.4672(3)
H5_2 H 0.1839 0.2797 0.4306
C9_2 C 0.3293(3) 0.36565(15) 0.5548(3)
C10_2 C 0.2188(3) 0.38930(15) 0.5738(3)
O15_2 O 0.28253(18) 0.04476(11) 0.32505(19)
O19_2 O 0.50872(17) 0.49884(10) 0.38998(19)
O21_2 O 0.50872(17) 0.00116(10) 0.38998(19)
O23_2 O 0.40350(18) 0.56451(11) 0.31909(19)
O25_2 O 0.34655(18) 0.18688(11) 0.5791(2)
O26_2 O 0.39248(18) 0.09771(11) 0.51605(19)
O27_2 O 0.20147(18) 0.05784(11) 0.5519(2)
O28_2 O 0.15463(18) 0.14769(10) 0.6087(2)
O29_2 O 0.3573(3) 0.2500 0.7872(3)
O31_2 O 0.1682(3) 0.18357(14) 0.8167(2)
H17_2 H 0.1510 0.1471 0.8146
H18_2 H 0.1722 0.1961 0.8801
H19_2 H 0.1839 0.2203 0.4306
C20_2 C 0.3293(3) 0.13435(15) 0.5548(3)
C21_2 C 0.2188(3) 0.11070(15) 0.5738(3)
Nd3_2 Nd 0.339026(13) 0.992680(8) 0.488578(14)
O17_2 O 0.28856(18) 0.96037(11) 0.66493(18)
O20_2 O 0.49128(17) 0.99884(10) 0.61002(19)
O24_2 O 0.40350(18) 0.93549(11) 0.31909(19)
O30_2 O 0.3976(2) 0.88572(12) 0.5236(2)
H15_2 H 0.4595 0.8930 0.5065
H16_2 H 0.3931 0.8742 0.5877
N4_2 N 0.1797(2) 0.94895(13) 0.3975(2)
O10_2 O 0.8573(3) 0.2500 0.7128(3)
C11_2 C 0.9523(4) 0.2500 0.7274(5)
H14_2 H 0.9747 0.2500 0.7975
Nd8_2 Nd 0.708156(19) 0.2500 0.83655(2)
H20_2 H 0.0226 0.1100 0.6537
C16_2 C 0.0127(2) 0.03714(15) 0.8183(3)
H23_2 H 0.0356 0.0743 0.4307
H26_2 H 0.0478 0.1023 0.2570
H27_2 H 0.0264 0.1609 0.3203
O1_2 O 0.78253(18) 0.04476(11) 0.17495(19)
O2_2 O 0.71144(18) 0.03963(11) 0.33507(18)
O13_3 O 0.6647(3) 0.2500 0.0328(3)
H5_3 H 0.6839 0.2203 0.0694
C4_2 C 0.7207(2) 0.02258(15) 0.2413(3)
Nd4 Nd 0.660974(13) 0.007320(8) 0.511422(14)
O15_3 O 0.78253(18) 0.45524(11) 0.17495(19)
H19_3 H 0.6839 0.2797 0.0694
N4_3 N 0.6797(2) 0.55105(13) 0.1025(2)
O5_3 O 0.84655(18) 0.18688(11) 0.9209(2)
O6_3 O 0.89248(18) 0.09771(11) 0.98395(19)
O7_3 O 0.70147(18) 0.05784(11) 0.9481(2)
O8_3 O 0.65463(18) 0.14769(10) 0.8913(2)
O9_3 O 0.5193(3) 0.2500 0.8414(3)
O12_3 O 0.6682(3) 0.18357(14) 0.6833(2)
H3_3 H 0.6510 0.1471 0.6854
H4_3 H 0.6722 0.1961 0.6199
C9_3 C 0.8293(3) 0.13435(15) 0.9452(3)
C10_3 C 0.7188(3) 0.11070(15) 0.9262(3)
C11_3 C 0.4523(4) 0.2500 0.7726(5)
H14_3 H 0.4747 0.2500 0.7025
O17_3 O 0.78856(18) 0.53963(11) 0.83507(18)
O25_3 O 0.84655(18) 0.31312(11) 0.9209(2)
O26_3 O 0.89248(18) 0.40229(11) 0.98395(19)
O27_3 O 0.70147(18) 0.44216(11) 0.9481(2)
O28_3 O 0.65463(18) 0.35231(10) 0.8913(2)
O30_3 O 0.8976(2) 0.61428(12) 0.9764(2)
H15_3 H 0.9595 0.6070 0.9935
H16_3 H 0.8931 0.6258 0.9123
O31_3 O 0.6682(3) 0.31643(14) 0.6833(2)
H17_3 H 0.6510 0.3529 0.6854
H18_3 H 0.6722 0.3039 0.6199
N3_2 N 0.8203(2) 0.05105(13) 0.6025(2)
N5_2 N 0.9678(2) 0.08869(13) 0.6536(2)
C12_2 C 0.8464(2) 0.02599(15) 0.6990(3)
C13_2 C 0.9396(3) 0.04895(15) 0.7318(3)
C14_2 C 0.8958(2) 0.08863(16) 0.5776(3)
C17_2 C 0.9078(3) 0.12256(18) 0.4766(3)
H21_2 H 0.9410 0.1603 0.4910
H22_2 H 0.8406 0.1306 0.4465
C18_2 C 0.9724(4) 0.0871(2) 0.3968(3)
H24_2 H 0.9347 0.0518 0.3756
C19_2 C 0.9983(4) 0.1233(3) 0.2991(4)
H25_2 H 0.9371 0.1297 0.2582
C20_3 C 0.8293(3) 0.36565(15) 0.9452(3)
C21_3 C 0.7188(3) 0.38930(15) 0.9262(3)
Nd1_2 Nd 0.839026(13) 0.992680(8) 0.011422(14)
N1_2 N 0.6797(2) 0.94895(13) 0.1025(2)
N2_2 N 0.5322(2) 0.91131(13) 0.1536(2)
H6_2 H 0.4774 0.8900 0.1537
C1_2 C 0.6536(2) 0.97401(15) 0.1990(3)
C2_2 C 0.5604(3) 0.95105(15) 0.2318(3)
C3_2 C 0.6042(2) 0.91137(16) 0.0776(3)
C5_2 C 0.4873(2) 0.96286(15) 0.3183(3)
O23_3 O 0.90350(18) 0.93549(11) 0.18091(19)
O11_3 O 0.8976(2) 0.88572(12) 0.9764(2)
H1_3 H 0.9595 0.8930 0.9935
H2_3 H 0.8931 0.8742 0.9123
C6_2 C 0.5922(3) 0.87744(18) 0.9766(3)
H7_2 H 0.5590 0.8397 0.9910
H8_2 H 0.6594 0.8694 0.9465
C7_2 C 0.5276(4) 0.9129(2) 0.8968(3)
H9_2 H 0.4644 0.9257 0.9307
H10_2 H 0.5653 0.9482 0.8756
C8_2 C 0.5017(4) 0.8767(3) 0.7991(4)
H11_2 H 0.5629 0.8703 0.7582
H12_2 H 0.4522 0.8977 0.7570
H13_2 H 0.4736 0.8391 0.8203
O14_2 O 0.71747(18) 0.95524(11) 0.67495(19)
O16_2 O 0.78856(18) 0.96037(11) 0.83507(18)
C15_2 C 0.7793(2) 0.97742(15) 0.7413(3)
C11_4 C 0.0477(4) 0.7500 0.2726(5)
H14_4 H 0.0253 0.7500 0.2025
O11_4 O 0.6024(2) 0.11428(12) 0.4764(2)
H1_4 H 0.5405 0.1070 0.4935
H2_4 H 0.6069 0.1258 0.4123
O23_4 O 0.59650(18) 0.06451(11) 0.68091(19)
O5_4 O 0.65345(18) 0.81312(11) 0.4209(2)
O6_4 O 0.60752(18) 0.90229(11) 0.48395(19)
O7_4 O 0.79853(18) 0.94216(11) 0.4481(2)
O8_4 O 0.84537(18) 0.85231(10) 0.3913(2)
O9_4 O 0.9807(3) 0.7500 0.3414(3)
O12_4 O 0.8318(3) 0.81643(14) 0.1833(2)
H3_4 H 0.8490 0.8529 0.1854
H4_4 H 0.8278 0.8039 0.1199
O13_4 O 0.8353(3) 0.7500 0.5328(3)
H5_4 H 0.8161 0.7797 0.5694
C9_4 C 0.6707(3) 0.86565(15) 0.4452(3)
C10_4 C 0.7812(3) 0.88930(15) 0.4262(3)
O15_4 O 0.71747(18) 0.54476(11) 0.67495(19)
O17_4 O 0.71144(18) 0.46037(11) 0.33507(18)
O25_4 O 0.65345(18) 0.68688(11) 0.4209(2)
O26_4 O 0.60752(18) 0.59771(11) 0.48395(19)
O27_4 O 0.79853(18) 0.55784(11) 0.4481(2)
O28_4 O 0.84537(18) 0.64769(10) 0.3913(2)
O30_4 O 0.6024(2) 0.38572(12) 0.4764(2)
H15_4 H 0.5405 0.3930 0.4935
H16_4 H 0.6069 0.3742 0.4123
O31_4 O 0.8318(3) 0.68357(14) 0.1833(2)
H17_4 H 0.8490 0.6471 0.1854
H18_4 H 0.8278 0.6961 0.1199
H19_4 H 0.8161 0.7203 0.5694
N4_4 N 0.8203(2) 0.44895(13) 0.6025(2)
C20_4 C 0.6707(3) 0.63435(15) 0.4452(3)
C21_4 C 0.7812(3) 0.61070(15) 0.4262(3)
H20_3 H 0.0226 0.3900 0.6537
C16_3 C 0.0127(2) 0.46286(15) 0.8183(3)
H23_3 H 0.0356 0.4257 0.4307
H26_3 H 0.0478 0.3977 0.2570
H27_3 H 0.0264 0.3391 0.3203
N2_3 N 0.5322(2) 0.58869(13) 0.1536(2)
H6_3 H 0.4774 0.6100 0.1537
C1_3 C 0.6536(2) 0.52599(15) 0.1990(3)
C2_3 C 0.5604(3) 0.54895(15) 0.2318(3)
C3_3 C 0.6042(2) 0.58863(16) 0.0776(3)
C4_3 C 0.7207(2) 0.47742(15) 0.2413(3)
C5_3 C 0.4873(2) 0.53714(15) 0.3183(3)
C6_3 C 0.5922(3) 0.62256(18) 0.9766(3)
H7_3 H 0.5590 0.6603 0.9910
H8_3 H 0.6594 0.6306 0.9465
C7_3 C 0.5276(4) 0.5871(2) 0.8968(3)
H9_3 H 0.4644 0.5743 0.9307
H10_3 H 0.5653 0.5518 0.8756
C8_3 C 0.5017(4) 0.6233(3) 0.7991(4)
H11_3 H 0.5629 0.6297 0.7582
H12_3 H 0.4522 0.6023 0.7570
H13_3 H 0.4736 0.6609 0.8203
N5_3 N 0.9678(2) 0.41131(13) 0.6536(2)
C12_3 C 0.8464(2) 0.47401(15) 0.6990(3)
C13_3 C 0.9396(3) 0.45105(15) 0.7318(3)
C14_3 C 0.8958(2) 0.41137(16) 0.5776(3)
C15_3 C 0.7793(2) 0.52258(15) 0.7413(3)
C17_3 C 0.9078(3) 0.37744(18) 0.4766(3)
H21_3 H 0.9410 0.3397 0.4910
H22_3 H 0.8406 0.3694 0.4465
C18_3 C 0.9724(4) 0.4129(2) 0.3968(3)
H24_3 H 0.9347 0.4482 0.3756
C19_3 C 0.9983(4) 0.3767(3) 0.2991(4)
H25_3 H 0.9371 0.3703 0.2582
C6_4 C 0.4078(3) 0.12256(18) 0.0234(3)
H7_4 H 0.4410 0.1603 0.0090
H8_4 H 0.3406 0.1306 0.0535
C7_4 C 0.4724(4) 0.0871(2) 0.1032(3)
H9_4 H 0.5356 0.0743 0.0693
H10_4 H 0.4347 0.0518 0.1244
C8_4 C 0.4983(4) 0.1233(3) 0.2009(4)
H11_4 H 0.4371 0.1297 0.2418
H12_4 H 0.5478 0.1023 0.2430
H13_4 H 0.5264 0.1609 0.1797
C15_4 C 0.2207(2) 0.02258(15) 0.2587(3)
N2_4 N 0.4678(2) 0.08869(13) 0.8464(2)
H6_4 H 0.5226 0.1100 0.8463
C1_4 C 0.3464(2) 0.02599(15) 0.8010(3)
C2_4 C 0.4396(3) 0.04895(15) 0.7682(3)
C3_4 C 0.3958(2) 0.08863(16) 0.9224(3)
C5_4 C 0.5127(2) 0.03714(15) 0.6817(3)
N5_4 N 0.0322(2) 0.91131(13) 0.3464(2)
C12_4 C 0.1536(2) 0.97401(15) 0.3010(3)
C13_4 C 0.0604(3) 0.95105(15) 0.2682(3)
C14_4 C 0.1042(2) 0.91137(16) 0.4224(3)
C17_4 C 0.0922(3) 0.87744(18) 0.5234(3)
H21_4 H 0.0590 0.8397 0.5090
H22_4 H 0.1594 0.8694 0.5535
C18_4 C 0.0276(4) 0.9129(2) 0.6032(3)
H24_4 H 0.0653 0.9482 0.6244
C19_4 C 0.0017(4) 0.8767(3) 0.7009(4)
H25_4 H 0.0629 0.8703 0.7418
C4_4 C 0.2793(2) 0.97742(15) 0.7587(3)
H20_4 H 0.9774 0.8900 0.3463
C16_4 C 0.9873(2) 0.96286(15) 0.1817(3)
H23_4 H 0.9644 0.9257 0.5693
H26_4 H 0.9522 0.8977 0.7430
H27_4 H 0.9736 0.8391 0.6797
loop_
_geom_bond_atom_site_label_1
_geom_bond_atom_site_label_2
_geom_bond_site_symmetry_1
_geom_bond_site_symmetry_2
H15 O30 1_555 1_555
H16 O30 1_555 1_555
O24 Nd3 1_555 1_555
N4 Nd3 1_555 1_555
Nd2 O5 1_555 1_555
O5 C9 1_555 1_555
O8 Nd2 1_555 1_555
O9 Nd2 1_555 1_555
O10 C11 1_555 1_555
H1 O11 1_555 1_555
H2 O11 1_555 1_555
O12 Nd2 1_555 1_555
H3 O12 1_555 1_555
H4 O12 1_555 1_555
H7 C6 1_555 1_555
H8 C6 1_555 1_555
C7 C6 1_555 1_555
H9 C7 1_555 1_555
H10 C7 1_555 1_555
C8 C7 1_555 1_555
H11 C8 1_555 1_555
H12 C8 1_555 1_555
H13 C8 1_555 1_555
C9 O6 1_555 1_555
C10 O7 1_555 1_555
C11 O9 1_555 1_555
H14 C11 1_555 1_555
Nd6 O14 1_555 1_555
Nd8 O10 1_555 1_555
O14 C15 1_555 1_555
O25 Nd2 1_555 1_555
O28 Nd2 1_555 1_555
O29 Nd2 1_555 1_555
O31 Nd2 1_555 1_555
H17 O31 1_555 1_555
H18 O31 1_555 1_555
N3 Nd6 1_555 1_555
C12 N3 1_555 1_555
C13 N5 1_555 1_555
C14 N3 1_555 1_555
C15 O16 1_555 1_555
C17 C14 1_555 1_555
H21 C17 1_555 1_555
H22 C17 1_555 1_555
C18 C17 1_555 1_555
H24 C18 1_555 1_555
C19 C18 1_555 1_555
H25 C19 1_555 1_555
C20 O25 1_555 1_555
C21 O27 1_555 1_555
O8 C10 1_555 1_555
C9 C10 1_555 1_555
O26 C20 1_555 1_555
O28 C21 1_555 1_555
N5 C14 1_555 1_555
C12 C13 1_555 1_555
C12 C15 1_555 1_555
C20 C21 1_555 1_555
Nd1 O1 1_555 1_555
O1 C4 1_555 1_555
O2 C4 1_555 1_555
O3 C5 1_555 1_555
O4 C5 1_555 1_555
H5 O13 1_555 1_555
N1 Nd1 1_555 1_555
N2 H6 1_555 1_555
C1 N1 1_555 1_555
C2 N2 1_555 1_555
C3 N1 1_555 1_555
C4 C1 1_555 1_555
C5 C2 1_555 1_555
Nd6 O2 1_555 1_555
Nd5 O3 1_555 1_555
O23 Nd1 1_555 1_555
H19 O13 1_555 1_555
O3 Nd6 1_555 1_555
O4 Nd5 1_555 1_555
N2 C3 1_555 1_555
C1 C2 1_555 1_555
O22 Nd7 1_555 1_555
O22 C16 1_555 1_555
Nd2_2 O5_2 1_555 1_555
O5_2 C9_2 1_555 1_555
O6_2 Nd6 1_555 1_555
O7_2 Nd6 1_555 1_555
O8_2 Nd2_2 1_555 1_555
O9_2 Nd2_2 1_555 1_555
O11_2 Nd6 1_555 1_555
H1_2 O11_2 1_555 1_555
H2_2 O11_2 1_555 1_555
O12_2 Nd2_2 1_555 1_555
H3_2 O12_2 1_555 1_555
H4_2 O12_2 1_555 1_555
O13_2 Nd2_2 1_555 1_555
H5_2 O13_2 1_555 1_555
C9_2 O6_2 1_555 1_555
C10_2 O7_2 1_555 1_555
O19_2 Nd6 1_555 1_555
O23_2 Nd6 1_555 1_555
O25_2 Nd2_2 1_555 1_555
O28_2 Nd2_2 1_555 1_555
O29_2 Nd2_2 1_555 1_555
O31_2 Nd2_2 1_555 1_555
H17_2 O31_2 1_555 1_555
H18_2 O31_2 1_555 1_555
H19_2 O13_2 1_555 1_555
C20_2 O25_2 1_555 1_555
C21_2 O27_2 1_555 1_555
O8_2 C10_2 1_555 1_555
C9_2 C10_2 1_555 1_555
Nd5 O19_2 1_555 1_555
O26_2 C20_2 1_555 1_555
O28_2 C21_2 1_555 1_555
C20_2 C21_2 1_555 1_555
O17_2 Nd3_2 1_555 1_555
O20_2 Nd3_2 1_555 1_555
O24_2 Nd3_2 1_555 1_555
O30_2 Nd3_2 1_555 1_555
H15_2 O30_2 1_555 1_555
H16_2 O30_2 1_555 1_555
N4_2 Nd3_2 1_555 1_555
O10_2 C11_2 1_555 1_555
H14_2 C11_2 1_555 1_555
Nd8_2 O10_2 1_555 1_555
O24 C16_2 1_555 1_555
O1_2 C4_2 1_555 1_555
O2_2 C4_2 1_555 1_555
H5_3 O13_3 1_555 1_555
Nd7 O15_3 1_555 1_555
Nd4 O2_2 1_555 1_555
H19_3 O13_3 1_555 1_555
N4_3 Nd7 1_555 1_555
O21_2 Nd4 1_555 1_555
Nd8_2 O5_3 1_555 1_555
O5_3 C9_3 1_555 1_555
O8_3 Nd8_2 1_555 1_555
O9_3 Nd8_2 1_555 1_555
O29_2 C11_3 1_555 1_555
O12_3 Nd8_2 1_555 1_555
H3_3 O12_3 1_555 1_555
H4_3 O12_3 1_555 1_555
C9_3 O6_3 1_555 1_555
C10_3 O7_3 1_555 1_555
C11_3 O9_3 1_555 1_555
H14_3 C11_3 1_555 1_555
O25_3 Nd8_2 1_555 1_555
O28_3 Nd8_2 1_555 1_555
H15_3 O30_3 1_555 1_555
H16_3 O30_3 1_555 1_555
O31_3 Nd8_2 1_555 1_555
H17_3 O31_3 1_555 1_555
H18_3 O31_3 1_555 1_555
N3_2 Nd4 1_555 1_555
C12_2 N3_2 1_555 1_555
C13_2 N5_2 1_555 1_555
C14_2 N3_2 1_555 1_555
C17_2 C14_2 1_555 1_555
H21_2 C17_2 1_555 1_555
H22_2 C17_2 1_555 1_555
C18_2 C17_2 1_555 1_555
H24_2 C18_2 1_555 1_555
C19_2 C18_2 1_555 1_555
H25_2 C19_2 1_555 1_555
C20_3 O25_3 1_555 1_555
C21_3 O27_3 1_555 1_555
O8_3 C10_3 1_555 1_555
C9_3 C10_3 1_555 1_555
O26_3 C20_3 1_555 1_555
O28_3 C21_3 1_555 1_555
N5_2 C14_2 1_555 1_555
C12_2 C13_2 1_555 1_555
C20_3 C21_3 1_555 1_555
O24_2 C5_2 1_555 1_555
N1_2 Nd1_2 1_555 1_555
N2_2 H6_2 1_555 1_555
C1_2 N1_2 1_555 1_555
C2_2 N2_2 1_555 1_555
C3_2 N1_2 1_555 1_555
C5_2 C2_2 1_555 1_555
O23_3 Nd1_2 1_555 1_555
N2_2 C3_2 1_555 1_555
C1_2 C2_2 1_555 1_555
H1_3 O11_3 1_555 1_555
H2_3 O11_3 1_555 1_555
H7_2 C6_2 1_555 1_555
H8_2 C6_2 1_555 1_555
C7_2 C6_2 1_555 1_555
H9_2 C7_2 1_555 1_555
H10_2 C7_2 1_555 1_555
C8_2 C7_2 1_555 1_555
H11_2 C8_2 1_555 1_555
H12_2 C8_2 1_555 1_555
H13_2 C8_2 1_555 1_555
O14_2 C15_2 1_555 1_555
C15_2 O16_2 1_555 1_555
O29 C11_4 1_555 1_555
H14_4 C11_4 1_555 1_555
O11_4 Nd4 1_555 1_555
H1_4 O11_4 1_555 1_555
H2_4 O11_4 1_555 1_555
O23_4 Nd4 1_555 1_555
Nd8 O5_4 1_555 1_555
O5_4 C9_4 1_555 1_555
O8_4 Nd8 1_555 1_555
O9_4 Nd8 1_555 1_555
O12_4 Nd8 1_555 1_555
H3_4 O12_4 1_555 1_555
H4_4 O12_4 1_555 1_555
O13_4 Nd8 1_555 1_555
H5_4 O13_4 1_555 1_555
C9_4 O6_4 1_555 1_555
C10_4 O7_4 1_555 1_555
Nd5 O15_4 1_555 1_555
O17_4 Nd5 1_555 1_555
O25_4 Nd8 1_555 1_555
O26_4 Nd5 1_555 1_555
O27_4 Nd5 1_555 1_555
O28_4 Nd8 1_555 1_555
O30_4 Nd5 1_555 1_555
H15_4 O30_4 1_555 1_555
H16_4 O30_4 1_555 1_555
O31_4 Nd8 1_555 1_555
H17_4 O31_4 1_555 1_555
H18_4 O31_4 1_555 1_555
H19_4 O13_4 1_555 1_555
N4_4 Nd5 1_555 1_555
C20_4 O25_4 1_555 1_555
C21_4 O27_4 1_555 1_555
O8_4 C10_4 1_555 1_555
C9_4 C10_4 1_555 1_555
O26_4 C20_4 1_555 1_555
O28_4 C21_4 1_555 1_555
C20_4 C21_4 1_555 1_555
O23 C16_3 1_555 1_555
O15_3 C4_3 1_555 1_555
O17_4 C4_3 1_555 1_555
O19_2 C5_3 1_555 1_555
O23_2 C5_3 1_555 1_555
N2_3 H6_3 1_555 1_555
C1_3 N4_3 1_555 1_555
C2_3 N2_3 1_555 1_555
C3_3 N4_3 1_555 1_555
C4_3 C1_3 1_555 1_555
C5_3 C2_3 1_555 1_555
N2_3 C3_3 1_555 1_555
C1_3 C2_3 1_555 1_555
H7_3 C6_3 1_555 1_555
H8_3 C6_3 1_555 1_555
C7_3 C6_3 1_555 1_555
H9_3 C7_3 1_555 1_555
H10_3 C7_3 1_555 1_555
C8_3 C7_3 1_555 1_555
H11_3 C8_3 1_555 1_555
H12_3 C8_3 1_555 1_555
H13_3 C8_3 1_555 1_555
O15_4 C15_3 1_555 1_555
C12_3 N4_4 1_555 1_555
C13_3 N5_3 1_555 1_555
C14_3 N4_4 1_555 1_555
C15_3 O17_3 1_555 1_555
C17_3 C14_3 1_555 1_555
H21_3 C17_3 1_555 1_555
H22_3 C17_3 1_555 1_555
C18_3 C17_3 1_555 1_555
H24_3 C18_3 1_555 1_555
C19_3 C18_3 1_555 1_555
H25_3 C19_3 1_555 1_555
N5_3 C14_3 1_555 1_555
C12_3 C13_3 1_555 1_555
C12_3 C15_3 1_555 1_555
H7_4 C6_4 1_555 1_555
H8_4 C6_4 1_555 1_555
C7_4 C6_4 1_555 1_555
H9_4 C7_4 1_555 1_555
H10_4 C7_4 1_555 1_555
C8_4 C7_4 1_555 1_555
H11_4 C8_4 1_555 1_555
H12_4 C8_4 1_555 1_555
H13_4 C8_4 1_555 1_555
O15_2 C15_4 1_555 1_555
C15_4 O17 1_555 1_555
O23_4 C5_4 1_555 1_555
N2_4 H6_4 1_555 1_555
C1_4 N4 1_555 1_555
C2_4 N2_4 1_555 1_555
C3_4 N4 1_555 1_555
C5_4 C2_4 1_555 1_555
N2_4 C3_4 1_555 1_555
C1_4 C2_4 1_555 1_555
C12_4 N4_2 1_555 1_555
C13_4 N5_4 1_555 1_555
C14_4 N4_2 1_555 1_555
C17_4 C14_4 1_555 1_555
H21_4 C17_4 1_555 1_555
H22_4 C17_4 1_555 1_555
C18_4 C17_4 1_555 1_555
H24_4 C18_4 1_555 1_555
C19_4 C18_4 1_555 1_555
H25_4 C19_4 1_555 1_555
N5_4 C14_4 1_555 1_555
C12_4 C13_4 1_555 1_555
O15 C4_4 1_555 1_555
O17_2 C4_4 1_555 1_555
O23_3 C16_4 1_555 1_555

#END
