
###############################################################################
#
# This file contains modified crystal structure data generated from the
# MOF subset of the Cambridge Structural Database (CSD) v543 
# hosted by the Cambridge Crystallographic Data Centre (CCDC).
#
# This work is licensed under the Creative Commons
# Attribution-NonCommercial-ShareAlike 4.0 International License.
# To view a copy of this license, visit
# http://creativecommons.org/licenses/by-nc-sa/4.0/
# or send a letter to
# Creative Commons, PO Box 1866, Mountain View, CA 94042, USA.
#
# CIF created using the CSD Python API on 29 September 2022
# The structure has been converted into the P1 space group
# The structure has a 3D framework
# The original CSD entry DATMET is in the hexagonal crystal system
# The original CSD entry DATMET is in a Sohncke space group
# The framework has been calculated to contain at least 10.0% void space
# The void calculation uses a probe of radius 1.32A, grid spacing 0.4
#
###############################################################################

data_DATMET
_chemical_formula_moiety         '(C72 H96 Ca2 Cu12 N12 O37)n'
_symmetry_cell_setting           triclinic
_symmetry_space_group_name_H-M   'P 1'
_symmetry_Int_Tables_number      1
_space_group_name_Hall           'P 1'
loop_
_symmetry_equiv_pos_site_id
_symmetry_equiv_pos_as_xyz
1 x,y,z
_cell_length_a                   17.783(3)
_cell_length_b                   17.783(3)
_cell_length_c                   12.889(2)
_cell_angle_alpha                90
_cell_angle_beta                 90
_cell_angle_gamma                120
_cell_volume                     3529.88
loop_
_atom_site_label
_atom_site_type_symbol
_atom_site_fract_x
_atom_site_fract_y
_atom_site_fract_z
O6 O 0.2928(18) 0.4951(26) 0.0895(18)
O7 O 0.0177(17) 0.571(2) 0.014(2)
N2 N 0.098(2) 0.503(3) 0.105(4)
C2 C 0.017(3) 0.479(3) 0.142(4)
C4 C 0.237(3) 0.515(5) 0.075(6)
C5 C 0.141(3) 0.449(2) 0.122(3)
H1 H 0.1517 0.4541 0.1983
C6 C 0.105(2) 0.353(2) 0.101(3)
H2 H 0.0456 0.3227 0.1332
C8 C 0.156(4) 0.313(4) 0.155(5)
H6 H 0.1275 0.2507 0.1388
H7 H 0.1559 0.3207 0.2301
H8 H 0.2156 0.3420 0.1292
O5 O 0.2341(18) 0.559(2) 0.997(2)
C7 C 0.091(3) 0.332(3) 0.988(3)
H3 H 0.0603 0.3597 0.9581
H4 H 0.0569 0.2694 0.9789
H5 H 0.1476 0.3547 0.9542
Cu8 Cu 0.1373(3) 0.5803(3) 0.9952(2)
Cu10 Cu 0.4197(3) 0.5570(4) 0.9952(2)
Ca4 Ca 0.3333 0.6667 0.8642(18)
Cu1 Cu 0.8632(3) 0.4171(3) 0.2343(2)
Cu2 Cu 0.8627(3) 0.4197(3) 0.4952(2)
Ca1 Ca 0.6667 0.3333 0.3642(18)
O1 O 0.8235(8) 0.3578(8) 0.363(3)
O2 O 0.9741(18) 0.4182(18) 0.219(3)
O3 O 0.7611(16) 0.4394(15) 0.232(2)
O4 O 0.712(3) 0.516(4) 0.149(3)
N1 N 0.9059(19) 0.509(2) 0.127(2)
C1 C 0.978(3) 0.527(3) 0.088(4)
C3 C 0.7676(19) 0.4925(19) 0.160(2)
C9 C 0.843(2) 0.533(3) 0.086(2)
H9 H 0.8700 0.5972 0.0891
Cu3 Cu 0.5829(3) 0.4461(4) 0.2343(2)
Cu4 Cu 0.5803(3) 0.4430(4) 0.4952(2)
O8 O 0.6422(8) 0.4657(11) 0.363(3)
O9 O 0.5818(18) 0.5559(25) 0.219(3)
O10 O 0.5606(15) 0.3217(22) 0.232(2)
O11 O 0.484(4) 0.196(5) 0.149(3)
O13 O 0.5049(26) 0.7977(32) 0.0895(18)
O14 O 0.429(2) 0.4467(26) 0.014(2)
N3 N 0.491(2) 0.3969(28) 0.127(2)
N4 N 0.497(3) 0.595(4) 0.105(4)
C13 C 0.473(3) 0.451(4) 0.088(4)
C14 C 0.521(3) 0.538(4) 0.142(4)
C15 C 0.5075(19) 0.2751(27) 0.160(2)
C16 C 0.485(5) 0.722(6) 0.075(6)
C17 C 0.551(2) 0.692(4) 0.122(3)
H17 H 0.5459 0.6976 0.1983
C18 C 0.647(2) 0.752(3) 0.101(3)
H18 H 0.6773 0.7229 0.1332
C20 C 0.687(4) 0.843(6) 0.155(5)
H22 H 0.7493 0.8768 0.1388
H23 H 0.6793 0.8352 0.2301
H24 H 0.6580 0.8736 0.1292
C21 C 0.467(3) 0.310(4) 0.086(2)
H25 H 0.4028 0.2728 0.0891
Cu5 Cu 0.5539(4) 0.1368(3) 0.2343(2)
Cu6 Cu 0.5570(4) 0.1373(3) 0.4952(2)
O15 O 0.5343(11) 0.1765(8) 0.363(3)
O16 O 0.4441(25) 0.0259(18) 0.219(3)
O17 O 0.6783(22) 0.2389(16) 0.232(2)
O18 O 0.804(5) 0.288(3) 0.149(3)
N5 N 0.6031(28) 0.0941(19) 0.127(2)
C25 C 0.549(4) 0.022(3) 0.088(4)
C27 C 0.7249(27) 0.2324(19) 0.160(2)
C33 C 0.690(4) 0.157(2) 0.086(2)
H41 H 0.7272 0.1300 0.0891
O22 O 0.7659(18) 0.441(2) 0.497(2)
O23 O 0.559(2) 0.3249(27) 0.497(2)
O24 O 0.6751(27) 0.2341(18) 0.497(2)
O25 O 0.7072(18) 0.5049(26) 0.5895(18)
O26 O 0.4951(26) 0.2023(32) 0.5895(18)
O27 O 0.7977(32) 0.2928(18) 0.5895(18)
O28 O 0.9823(17) 0.429(2) 0.514(2)
O29 O 0.571(2) 0.5533(26) 0.514(2)
O30 O 0.4467(26) 0.0177(17) 0.514(2)
N7 N 0.902(2) 0.497(3) 0.605(4)
N8 N 0.503(3) 0.405(4) 0.605(4)
N9 N 0.595(4) 0.098(2) 0.605(4)
C10 C 0.8030 0.5016 0.9755
H10 H 0.7432 0.4564 0.9973
C11 C 0.826(6) 0.442(5) 0.911(6)
H11 H 0.8301 0.4005 0.9576
H12 H 0.8825 0.4779 0.8769
H13 H 0.7815 0.4109 0.8589
C12 C 0.780(5) 0.572(5) 0.929(7)
H14 H 0.7322 0.5435 0.8789
H15 H 0.8309 0.6186 0.8947
H16 H 0.7617 0.5963 0.9858
O12 O 0.441(2) 0.6751(27) 0.997(2)
C19 C 0.668(3) 0.759(4) 0.988(3)
H19 H 0.6403 0.7006 0.9581
H20 H 0.7306 0.7875 0.9789
H21 H 0.6453 0.7929 0.9542
C22 C 0.4984 0.3014 0.9755
H26 H 0.5436 0.2868 0.9973
C23 C 0.558(5) 0.384(8) 0.911(6)
H27 H 0.5995 0.4296 0.9576
H28 H 0.5221 0.4046 0.8769
H29 H 0.5891 0.3706 0.8589
C24 C 0.428(5) 0.208(7) 0.929(7)
H30 H 0.4565 0.1887 0.8789
H31 H 0.3814 0.2123 0.8947
H32 H 0.4037 0.1654 0.9858
C34 C 0.6986 0.1970 0.9755
H42 H 0.7132 0.2568 0.9973
C35 C 0.616(8) 0.174(6) 0.911(6)
H43 H 0.5704 0.1699 0.9576
H44 H 0.5954 0.1175 0.8769
H45 H 0.6294 0.2185 0.8589
C36 C 0.792(7) 0.220(5) 0.929(7)
H46 H 0.8113 0.2678 0.8789
H47 H 0.7877 0.1691 0.8947
H48 H 0.8346 0.2383 0.9858
Cu12 Cu 0.4430(4) 0.8627(3) 0.9952(2)
O20 O 0.2023(32) 0.7072(18) 0.0895(18)
O21 O 0.5533(26) 0.9823(17) 0.014(2)
N6 N 0.405(4) 0.902(2) 0.105(4)
C26 C 0.462(4) 0.983(3) 0.142(4)
C28 C 0.278(6) 0.763(3) 0.075(6)
C29 C 0.308(4) 0.859(3) 0.122(3)
H33 H 0.3024 0.8483 0.1983
C30 C 0.248(3) 0.895(2) 0.101(3)
H34 H 0.2771 0.9544 0.1332
C32 C 0.157(6) 0.844(4) 0.155(5)
H38 H 0.1232 0.8725 0.1388
H39 H 0.1648 0.8441 0.2301
H40 H 0.1264 0.7844 0.1292
O19 O 0.3249(27) 0.7659(18) 0.997(2)
C31 C 0.241(4) 0.909(3) 0.988(3)
H35 H 0.2994 0.9397 0.9581
H36 H 0.2125 0.9431 0.9789
H37 H 0.2071 0.8524 0.9542
C26_2 C 0.538(4) 0.017(3) 0.642(4)
C28_2 C 0.722(6) 0.237(3) 0.575(6)
C29_2 C 0.692(4) 0.141(3) 0.622(3)
H33_2 H 0.6976 0.1517 0.6983
C30_2 C 0.752(3) 0.105(2) 0.601(3)
H34_2 H 0.7229 0.0456 0.6332
C31_2 C 0.759(4) 0.091(3) 0.488(3)
H35_2 H 0.7006 0.0603 0.4581
H36_2 H 0.7875 0.0569 0.4789
H37_2 H 0.7929 0.1476 0.4542
C32_2 C 0.843(6) 0.156(4) 0.655(5)
H38_2 H 0.8768 0.1275 0.6388
H39_2 H 0.8352 0.1559 0.7301
H40_2 H 0.8736 0.2156 0.6292
Cu1_2 Cu 0.1368(3) 0.5829(3) 0.7343(2)
O1_2 O 0.1765(8) 0.6422(8) 0.863(3)
O2_2 O 0.0259(18) 0.5818(18) 0.719(3)
O3_2 O 0.2389(16) 0.5606(15) 0.732(2)
O4_2 O 0.288(3) 0.484(4) 0.649(3)
N1_2 N 0.0941(19) 0.491(2) 0.627(2)
C1_2 C 0.022(3) 0.473(3) 0.588(4)
C3_2 C 0.2324(19) 0.5075(19) 0.660(2)
C9_2 C 0.157(2) 0.467(3) 0.586(2)
H9_2 H 0.1300 0.4028 0.5891
C10_2 C 0.1970 0.4984 0.4755
H10_2 H 0.2568 0.5436 0.4973
C11_2 C 0.174(6) 0.558(5) 0.411(6)
H11_2 H 0.1699 0.5995 0.4576
H12_2 H 0.1175 0.5221 0.3769
H13_2 H 0.2185 0.5891 0.3589
C12_2 C 0.220(5) 0.428(5) 0.429(7)
H14_2 H 0.2678 0.4565 0.3789
H15_2 H 0.1691 0.3814 0.3947
H16_2 H 0.2383 0.4037 0.4858
Cu3_2 Cu 0.4171(3) 0.5539(4) 0.7343(2)
O8_2 O 0.3578(8) 0.5343(11) 0.863(3)
O9_2 O 0.4182(18) 0.4441(25) 0.719(3)
O10_2 O 0.4394(15) 0.6783(22) 0.732(2)
O11_2 O 0.516(4) 0.804(5) 0.649(3)
N3_2 N 0.509(2) 0.6031(28) 0.627(2)
C13_2 C 0.527(3) 0.549(4) 0.588(4)
C14_2 C 0.479(3) 0.462(4) 0.642(4)
C15_2 C 0.4925(19) 0.7249(27) 0.660(2)
C16_2 C 0.515(5) 0.278(6) 0.575(6)
C17_2 C 0.449(2) 0.308(4) 0.622(3)
H17_2 H 0.4541 0.3024 0.6983
C18_2 C 0.353(2) 0.248(3) 0.601(3)
H18_2 H 0.3227 0.2771 0.6332
C19_2 C 0.332(3) 0.241(4) 0.488(3)
H19_2 H 0.3597 0.2994 0.4581
H20_2 H 0.2694 0.2125 0.4789
H21_2 H 0.3547 0.2071 0.4542
C20_2 C 0.313(4) 0.157(6) 0.655(5)
H22_2 H 0.2507 0.1232 0.6388
H23_2 H 0.3207 0.1648 0.7301
H24_2 H 0.3420 0.1264 0.6292
C21_2 C 0.533(3) 0.690(4) 0.586(2)
H25_2 H 0.5972 0.7272 0.5891
C22_2 C 0.5016 0.6986 0.4755
H26_2 H 0.4564 0.7132 0.4973
C23_2 C 0.442(5) 0.616(8) 0.411(6)
H27_2 H 0.4005 0.5704 0.4576
H28_2 H 0.4779 0.5954 0.3769
H29_2 H 0.4109 0.6294 0.3589
C24_2 C 0.572(5) 0.792(7) 0.429(7)
H30_2 H 0.5435 0.8113 0.3789
H31_2 H 0.6186 0.7877 0.3947
H32_2 H 0.5963 0.8346 0.4858
Cu5_2 Cu 0.4461(4) 0.8632(3) 0.7343(2)
O15_2 O 0.4657(11) 0.8235(8) 0.863(3)
O16_2 O 0.5559(25) 0.9741(18) 0.719(3)
O17_2 O 0.3217(22) 0.7611(16) 0.732(2)
O18_2 O 0.196(5) 0.712(3) 0.649(3)
N5_2 N 0.3969(28) 0.9059(19) 0.627(2)
C25_2 C 0.451(4) 0.978(3) 0.588(4)
C27_2 C 0.2751(27) 0.7676(19) 0.660(2)
C33_2 C 0.310(4) 0.843(2) 0.586(2)
H41_2 H 0.2728 0.8700 0.5891
C34_2 C 0.3014 0.8030 0.4755
H42_2 H 0.2868 0.7432 0.4973
C35_2 C 0.384(8) 0.826(6) 0.411(6)
H43_2 H 0.4296 0.8301 0.4576
H44_2 H 0.4046 0.8825 0.3769
H45_2 H 0.3706 0.7815 0.3589
C36_2 C 0.208(7) 0.780(5) 0.429(7)
H46_2 H 0.1887 0.7322 0.3789
H47_2 H 0.2123 0.8309 0.3947
H48_2 H 0.1654 0.7617 0.4858
C2_2 C 0.983(3) 0.521(3) 0.642(4)
C4_2 C 0.763(3) 0.485(5) 0.575(6)
C5_2 C 0.859(3) 0.551(2) 0.622(3)
H1_2 H 0.8483 0.5459 0.6983
C6_2 C 0.895(2) 0.647(2) 0.601(3)
H2_2 H 0.9544 0.6773 0.6332
C7_2 C 0.909(3) 0.668(3) 0.488(3)
H3_2 H 0.9397 0.6403 0.4581
H4_2 H 0.9431 0.7306 0.4789
H5_2 H 0.8524 0.6453 0.4542
C8_2 C 0.844(4) 0.687(4) 0.655(5)
H6_2 H 0.8725 0.7493 0.6388
H7_2 H 0.8441 0.6793 0.7301
H8_2 H 0.7844 0.6580 0.6292
loop_
_geom_bond_atom_site_label_1
_geom_bond_atom_site_label_2
_geom_bond_site_symmetry_1
_geom_bond_site_symmetry_2
O6 C4 1_555 1_555
N2 C2 1_555 1_555
C4 C5 1_555 1_555
C5 N2 1_555 1_555
H1 C5 1_555 1_555
C6 C5 1_555 1_555
H2 C6 1_555 1_555
C8 C6 1_555 1_555
H6 C8 1_555 1_555
H7 C8 1_555 1_555
H8 C8 1_555 1_555
H3 C7 1_555 1_555
H4 C7 1_555 1_555
H5 C7 1_555 1_555
Cu8 O5 1_555 1_555
Ca4 O5 1_555 1_555
Cu1 O1 1_555 1_555
Cu2 O1 1_555 1_555
Ca1 O1 1_555 1_555
O2 Cu1 1_555 1_555
O3 Cu1 1_555 1_555
O4 C3 1_555 1_555
N1 Cu1 1_555 1_555
C1 N1 1_555 1_555
C3 O3 1_555 1_555
C9 N1 1_555 1_555
H9 C9 1_555 1_555
Cu3 O4 1_555 1_555
Cu4 O8 1_555 1_555
O8 Ca1 1_555 1_555
O9 Cu3 1_555 1_555
O10 Ca1 1_555 1_555
O11 C15 1_555 1_555
O13 C16 1_555 1_555
O14 C13 1_555 1_555
N3 Cu3 1_555 1_555
N4 C14 1_555 1_555
C13 N3 1_555 1_555
C14 O9 1_555 1_555
C15 O10 1_555 1_555
C16 C17 1_555 1_555
C17 N4 1_555 1_555
H17 C17 1_555 1_555
C18 C17 1_555 1_555
H18 C18 1_555 1_555
C20 C18 1_555 1_555
H22 C20 1_555 1_555
H23 C20 1_555 1_555
H24 C20 1_555 1_555
C21 N3 1_555 1_555
H25 C21 1_555 1_555
Cu5 O11 1_555 1_555
Cu6 O15 1_555 1_555
O15 Ca1 1_555 1_555
O16 Cu5 1_555 1_555
O17 Ca1 1_555 1_555
O18 Cu1 1_555 1_555
N5 Cu5 1_555 1_555
C25 N5 1_555 1_555
C27 O17 1_555 1_555
C33 N5 1_555 1_555
H41 C33 1_555 1_555
O22 Cu2 1_555 1_555
O23 Ca1 1_555 1_555
O24 Ca1 1_555 1_555
O25 Cu4 1_555 1_555
O26 Cu6 1_555 1_555
O27 Cu2 1_555 1_555
O28 Cu2 1_555 1_555
O29 Cu4 1_555 1_555
O30 Cu6 1_555 1_555
N7 Cu2 1_555 1_555
N8 Cu4 1_555 1_555
N9 Cu6 1_555 1_555
Ca1 O3 1_555 1_555
Ca1 O22 1_555 1_555
C3 C9 1_555 1_555
Cu3 O8 1_555 1_555
Cu3 O10 1_555 1_555
Cu4 O23 1_555 1_555
C13 C14 1_555 1_555
C15 C21 1_555 1_555
Cu5 O15 1_555 1_555
Cu5 O17 1_555 1_555
Cu6 O24 1_555 1_555
O18 C27 1_555 1_555
C27 C33 1_555 1_555
H10 C10 1_555 1_555
C11 C10 1_555 1_555
H11 C11 1_555 1_555
H12 C11 1_555 1_555
H13 C11 1_555 1_555
C12 C10 1_555 1_555
H14 C12 1_555 1_555
H15 C12 1_555 1_555
H16 C12 1_555 1_555
H19 C19 1_555 1_555
H20 C19 1_555 1_555
H21 C19 1_555 1_555
H26 C22 1_555 1_555
C23 C22 1_555 1_555
H27 C23 1_555 1_555
H28 C23 1_555 1_555
H29 C23 1_555 1_555
C24 C22 1_555 1_555
H30 C24 1_555 1_555
H31 C24 1_555 1_555
H32 C24 1_555 1_555
H42 C34 1_555 1_555
C35 C34 1_555 1_555
H43 C35 1_555 1_555
H44 C35 1_555 1_555
H45 C35 1_555 1_555
C36 C34 1_555 1_555
H46 C36 1_555 1_555
H47 C36 1_555 1_555
H48 C36 1_555 1_555
Cu10 O12 1_555 1_555
Ca4 O12 1_555 1_555
O20 C28 1_555 1_555
N6 C26 1_555 1_555
C28 C29 1_555 1_555
C29 N6 1_555 1_555
H33 C29 1_555 1_555
C30 C29 1_555 1_555
H34 C30 1_555 1_555
C32 C30 1_555 1_555
H38 C32 1_555 1_555
H39 C32 1_555 1_555
H40 C32 1_555 1_555
H35 C31 1_555 1_555
H36 C31 1_555 1_555
H37 C31 1_555 1_555
Cu12 O19 1_555 1_555
Ca4 O19 1_555 1_555
O24 C28_2 1_555 1_555
O27 C28_2 1_555 1_555
N9 C26_2 1_555 1_555
C28_2 C29_2 1_555 1_555
C29_2 N9 1_555 1_555
H33_2 C29_2 1_555 1_555
C30_2 C29_2 1_555 1_555
H34_2 C30_2 1_555 1_555
C31_2 C30_2 1_555 1_555
H35_2 C31_2 1_555 1_555
H36_2 C31_2 1_555 1_555
H37_2 C31_2 1_555 1_555
C32_2 C30_2 1_555 1_555
H38_2 C32_2 1_555 1_555
H39_2 C32_2 1_555 1_555
H40_2 C32_2 1_555 1_555
Cu1_2 O1_2 1_555 1_555
Cu8 O1_2 1_555 1_555
Ca4 O1_2 1_555 1_555
O2_2 Cu1_2 1_555 1_555
O3_2 Cu1_2 1_555 1_555
O4_2 C3_2 1_555 1_555
N1_2 Cu1_2 1_555 1_555
C1_2 N1_2 1_555 1_555
C3_2 O3_2 1_555 1_555
C9_2 N1_2 1_555 1_555
H9_2 C9_2 1_555 1_555
C10_2 C9_2 1_555 1_555
H10_2 C10_2 1_555 1_555
C11_2 C10_2 1_555 1_555
H11_2 C11_2 1_555 1_555
H12_2 C11_2 1_555 1_555
H13_2 C11_2 1_555 1_555
C12_2 C10_2 1_555 1_555
H14_2 C12_2 1_555 1_555
H15_2 C12_2 1_555 1_555
H16_2 C12_2 1_555 1_555
Cu3_2 O4_2 1_555 1_555
Cu10 O8_2 1_555 1_555
O8_2 Ca4 1_555 1_555
O9_2 Cu3_2 1_555 1_555
O10_2 Ca4 1_555 1_555
O11_2 C15_2 1_555 1_555
O23 C16_2 1_555 1_555
O26 C16_2 1_555 1_555
O29 C13_2 1_555 1_555
N3_2 Cu3_2 1_555 1_555
N8 C14_2 1_555 1_555
C13_2 N3_2 1_555 1_555
C14_2 O9_2 1_555 1_555
C15_2 O10_2 1_555 1_555
C16_2 C17_2 1_555 1_555
C17_2 N8 1_555 1_555
H17_2 C17_2 1_555 1_555
C18_2 C17_2 1_555 1_555
H18_2 C18_2 1_555 1_555
C19_2 C18_2 1_555 1_555
H19_2 C19_2 1_555 1_555
H20_2 C19_2 1_555 1_555
H21_2 C19_2 1_555 1_555
C20_2 C18_2 1_555 1_555
H22_2 C20_2 1_555 1_555
H23_2 C20_2 1_555 1_555
H24_2 C20_2 1_555 1_555
C21_2 N3_2 1_555 1_555
H25_2 C21_2 1_555 1_555
C22_2 C21_2 1_555 1_555
H26_2 C22_2 1_555 1_555
C23_2 C22_2 1_555 1_555
H27_2 C23_2 1_555 1_555
H28_2 C23_2 1_555 1_555
H29_2 C23_2 1_555 1_555
C24_2 C22_2 1_555 1_555
H30_2 C24_2 1_555 1_555
H31_2 C24_2 1_555 1_555
H32_2 C24_2 1_555 1_555
Cu5_2 O11_2 1_555 1_555
Cu12 O15_2 1_555 1_555
O15_2 Ca4 1_555 1_555
O16_2 Cu5_2 1_555 1_555
O17_2 Ca4 1_555 1_555
O18_2 Cu1_2 1_555 1_555
N5_2 Cu5_2 1_555 1_555
C25_2 N5_2 1_555 1_555
C27_2 O17_2 1_555 1_555
C33_2 N5_2 1_555 1_555
H41_2 C33_2 1_555 1_555
C34_2 C33_2 1_555 1_555
H42_2 C34_2 1_555 1_555
C35_2 C34_2 1_555 1_555
H43_2 C35_2 1_555 1_555
H44_2 C35_2 1_555 1_555
H45_2 C35_2 1_555 1_555
C36_2 C34_2 1_555 1_555
H46_2 C36_2 1_555 1_555
H47_2 C36_2 1_555 1_555
H48_2 C36_2 1_555 1_555
Ca4 O3_2 1_555 1_555
C3_2 C9_2 1_555 1_555
Cu3_2 O8_2 1_555 1_555
Cu3_2 O10_2 1_555 1_555
C13_2 C14_2 1_555 1_555
C15_2 C21_2 1_555 1_555
Cu5_2 O15_2 1_555 1_555
Cu5_2 O17_2 1_555 1_555
O18_2 C27_2 1_555 1_555
C27_2 C33_2 1_555 1_555
O22 C4_2 1_555 1_555
O25 C4_2 1_555 1_555
N7 C2_2 1_555 1_555
C4_2 C5_2 1_555 1_555
C5_2 N7 1_555 1_555
H1_2 C5_2 1_555 1_555
C6_2 C5_2 1_555 1_555
H2_2 C6_2 1_555 1_555
C7_2 C6_2 1_555 1_555
H3_2 C7_2 1_555 1_555
H4_2 C7_2 1_555 1_555
H5_2 C7_2 1_555 1_555
C8_2 C6_2 1_555 1_555
H6_2 C8_2 1_555 1_555
H7_2 C8_2 1_555 1_555
H8_2 C8_2 1_555 1_555

#END
