
###############################################################################
#
# This file contains modified crystal structure data generated from the
# MOF subset of the Cambridge Structural Database (CSD) v543 
# hosted by the Cambridge Crystallographic Data Centre (CCDC).
#
# This work is licensed under the Creative Commons
# Attribution-NonCommercial-ShareAlike 4.0 International License.
# To view a copy of this license, visit
# http://creativecommons.org/licenses/by-nc-sa/4.0/
# or send a letter to
# Creative Commons, PO Box 1866, Mountain View, CA 94042, USA.
#
# CIF created using the CSD Python API on 29 September 2022
# The structure has been converted into the P1 space group
# The structure has a 3D framework
# The original CSD entry DAWBIO is in the orthorhombic crystal system
# The original CSD entry DAWBIO is in a Sohncke space group
# The framework has been calculated to contain at least 10.0% void space
# The void calculation uses a probe of radius 1.32A, grid spacing 0.4
#
###############################################################################

data_DAWBIO
_chemical_formula_moiety         '(C36 H28 Co4 N8 O16)n'
_symmetry_cell_setting           triclinic
_symmetry_space_group_name_H-M   'P 1'
_symmetry_Int_Tables_number      1
_space_group_name_Hall           'P 1'
loop_
_symmetry_equiv_pos_site_id
_symmetry_equiv_pos_as_xyz
1 x,y,z
_cell_length_a                   26.282(5)
_cell_length_b                   6.620(5)
_cell_length_c                   7.667(5)
_cell_angle_alpha                90
_cell_angle_beta                 90
_cell_angle_gamma                90
_cell_volume                     1333.96
loop_
_atom_site_label
_atom_site_type_symbol
_atom_site_fract_x
_atom_site_fract_y
_atom_site_fract_z
H1 H 0.8517 0.0276 0.5883
H4 H 0.6051 0.0334 0.6171
O2 O 0.79343(18) 0.1382(7) 0.7207(6)
Co1 Co 0.71664(3) 0.01416(12) 0.74929(11)
O10 O 0.68336(18) 0.1590(8) 0.9537(6)
O12 O 0.68460(19) 0.2327(8) 0.5795(6)
O4 O 0.81664(18) 0.6590(8) 0.0463(6)
O11 O 0.18336(18) 0.3410(8) 0.0463(6)
Co4 Co 0.78336(3) 0.51416(12) 0.25071(11)
Co6 Co 0.21664(3) 0.48584(12) 0.25071(11)
C1 C 0.7916(3) 0.8501(11) 0.5164(9)
C2 C 0.8218(3) 0.9722(11) 0.6477(9)
C3 C 0.8403(3) 0.8404(12) 0.7978(9)
H2 H 0.8649 0.9171 0.8648
H3 H 0.8579 0.7248 0.7490
C4 C 0.7994(3) 0.7630(12) 0.9226(10)
C5 C 0.6060(3) 0.9023(13) 0.6606(12)
C6 C 0.5623(3) 0.7857(13) 0.6499(13)
H5 H 0.5328 0.8374 0.6000
C7 C 0.5635(3) 0.5917(12) 0.7149(11)
C8 C 0.6084(3) 0.5147(12) 0.7794(8)
H6 H 0.6110 0.3814 0.8166
C9 C 0.6497(3) 0.6458(11) 0.7862(8)
H7 H 0.6798 0.5961 0.8338
N1 N 0.6500(2) 0.8345(9) 0.7310(8)
N2 N 0.5208(2) 0.4579(10) 0.7129(9)
O1 O 0.74359(18) 0.8740(8) 0.5202(6)
O3 O 0.75304(19) 0.7962(8) 0.8990(7)
O5 O 0.81540(19) 0.7327(8) 0.4205(6)
C10 C 0.2084(3) 0.1499(11) 0.5164(9)
C11 C 0.1782(3) 0.0278(11) 0.6477(9)
C12 C 0.1597(3) 0.1596(12) 0.7978(9)
H9 H 0.1351 0.0829 0.8648
H10 H 0.1421 0.2752 0.7490
C13 C 0.2006(3) 0.2370(12) 0.9226(10)
C14 C 0.3940(3) 0.0977(13) 0.6606(12)
C15 C 0.4377(3) 0.2143(13) 0.6499(13)
H12 H 0.4672 0.1626 0.6000
C16 C 0.4365(3) 0.4083(12) 0.7149(11)
C17 C 0.3916(3) 0.4853(12) 0.7794(8)
H13 H 0.3890 0.6186 0.8166
C18 C 0.3503(3) 0.3542(11) 0.7862(8)
H14 H 0.3202 0.4039 0.8338
N3 N 0.3500(2) 0.1655(9) 0.7310(8)
N4 N 0.4792(2) 0.5421(10) 0.7129(9)
O6 O 0.25641(18) 0.1260(8) 0.5202(6)
O8 O 0.24696(19) 0.2038(8) 0.8990(7)
O14 O 0.18460(19) 0.2673(8) 0.4205(6)
H8 H 0.1483 0.9724 0.5883
H11 H 0.3949 0.9666 0.6171
O7 O 0.20657(18) 0.8618(7) 0.7207(6)
O9 O 0.31664(18) 0.8410(8) 0.9537(6)
O13 O 0.31540(19) 0.7673(8) 0.5795(6)
Co2 Co 0.28336(3) 0.98584(12) 0.74929(11)
C1_2 C 0.2916(3) 0.6499(11) 0.4836(9)
C2_2 C 0.3218(3) 0.5278(11) 0.3523(9)
H1_2 H 0.3517 0.4724 0.4117
C3_2 C 0.3403(3) 0.6596(12) 0.2022(9)
H2_2 H 0.3649 0.5829 0.1352
H3_2 H 0.3579 0.7752 0.2510
C4_2 C 0.2994(3) 0.7370(12) 0.0774(10)
C5_2 C 0.1060(3) 0.5977(13) 0.3394(12)
H4_2 H 0.1051 0.4666 0.3829
C6_2 C 0.0623(3) 0.7143(13) 0.3501(13)
H5_2 H 0.0328 0.6626 0.4000
C7_2 C 0.0635(3) 0.9083(12) 0.2851(11)
C8_2 C 0.1084(3) 0.9853(12) 0.2206(8)
C9_2 C 0.1497(3) 0.8542(11) 0.2138(8)
H7_2 H 0.1798 0.9039 0.1662
N1_2 N 0.1500(2) 0.6655(9) 0.2690(8)
O1_2 O 0.24359(18) 0.6260(8) 0.4798(6)
O2_2 O 0.29343(18) 0.3618(7) 0.2793(6)
O3_2 O 0.25304(19) 0.7038(8) 0.1010(7)
C10_2 C 0.7084(3) 0.3501(11) 0.4836(9)
C11_2 C 0.6782(3) 0.4722(11) 0.3523(9)
H8_2 H 0.6483 0.5276 0.4117
C12_2 C 0.6597(3) 0.3404(12) 0.2022(9)
H9_2 H 0.6351 0.4171 0.1352
H10_2 H 0.6421 0.2248 0.2510
C13_2 C 0.7006(3) 0.2630(12) 0.0774(10)
C14_2 C 0.8940(3) 0.4023(13) 0.3394(12)
H11_2 H 0.8949 0.5334 0.3829
C15_2 C 0.9377(3) 0.2857(13) 0.3501(13)
H12_2 H 0.9672 0.3374 0.4000
C16_2 C 0.9365(3) 0.0917(12) 0.2851(11)
C17_2 C 0.8916(3) 0.0147(12) 0.2206(8)
C18_2 C 0.8503(3) 0.1458(11) 0.2138(8)
H14_2 H 0.8202 0.0961 0.1662
N3_2 N 0.8500(2) 0.3345(9) 0.2690(8)
O6_2 O 0.75641(18) 0.3740(8) 0.4798(6)
O7_2 O 0.70657(18) 0.6382(7) 0.2793(6)
O8_2 O 0.74696(19) 0.2962(8) 0.1010(7)
H6_2 H 0.1110 0.1186 0.1834
N2_2 N 0.0208(2) 0.0421(10) 0.2871(9)
H13_2 H 0.8890 0.8814 0.1834
N4_2 N 0.9792(2) 0.9579(10) 0.2871(9)
loop_
_geom_bond_atom_site_label_1
_geom_bond_atom_site_label_2
_geom_bond_site_symmetry_1
_geom_bond_site_symmetry_2
O10 Co1 1_555 1_555
O12 Co1 1_555 1_555
O2 Co1 1_555 1_555
Co4 O4 1_555 1_555
Co6 O11 1_555 1_555
C1 C2 1_555 1_555
C3 C2 1_555 1_555
H2 C3 1_555 1_555
H3 C3 1_555 1_555
C4 C3 1_555 1_555
C6 C5 1_555 1_555
H5 C6 1_555 1_555
C7 C6 1_555 1_555
C8 C7 1_555 1_555
H6 C8 1_555 1_555
C9 C8 1_555 1_555
H7 C9 1_555 1_555
N1 C5 1_555 1_555
N2 C7 1_555 1_555
O1 C1 1_555 1_555
O3 C4 1_555 1_555
O5 C1 1_555 1_555
C10 C11 1_555 1_555
C12 C11 1_555 1_555
H9 C12 1_555 1_555
H10 C12 1_555 1_555
C13 C12 1_555 1_555
C15 C14 1_555 1_555
H12 C15 1_555 1_555
C16 C15 1_555 1_555
C17 C16 1_555 1_555
H13 C17 1_555 1_555
C18 C17 1_555 1_555
H14 C18 1_555 1_555
N3 C14 1_555 1_555
N4 N2 1_555 1_555
O6 C10 1_555 1_555
O8 C13 1_555 1_555
O14 C10 1_555 1_555
Co4 O5 1_555 1_555
Co6 O14 1_555 1_555
C9 N1 1_555 1_555
C16 N4 1_555 1_555
C18 N3 1_555 1_555
O9 Co2 1_555 1_555
O13 Co2 1_555 1_555
O7 Co2 1_555 1_555
C1_2 C2_2 1_555 1_555
C2_2 H1_2 1_555 1_555
C3_2 C2_2 1_555 1_555
H2_2 C3_2 1_555 1_555
H3_2 C3_2 1_555 1_555
C4_2 C3_2 1_555 1_555
C5_2 H4_2 1_555 1_555
C6_2 C5_2 1_555 1_555
H5_2 C6_2 1_555 1_555
C7_2 C6_2 1_555 1_555
C8_2 C7_2 1_555 1_555
C9_2 C8_2 1_555 1_555
H7_2 C9_2 1_555 1_555
N1_2 C5_2 1_555 1_555
O1_2 C1_2 1_555 1_555
O2_2 C2_2 1_555 1_555
O3_2 C4_2 1_555 1_555
O13 C1_2 1_555 1_555
Co6 N1_2 1_555 1_555
C9_2 N1_2 1_555 1_555
O1_2 Co6 1_555 1_555
O2_2 Co6 1_555 1_555
O3_2 Co6 1_555 1_555
C10_2 C11_2 1_555 1_555
C11_2 H8_2 1_555 1_555
C12_2 C11_2 1_555 1_555
H9_2 C12_2 1_555 1_555
H10_2 C12_2 1_555 1_555
C13_2 C12_2 1_555 1_555
C14_2 H11_2 1_555 1_555
C15_2 C14_2 1_555 1_555
H12_2 C15_2 1_555 1_555
C16_2 C15_2 1_555 1_555
C17_2 C16_2 1_555 1_555
C18_2 C17_2 1_555 1_555
H14_2 C18_2 1_555 1_555
N3_2 C14_2 1_555 1_555
O6_2 C10_2 1_555 1_555
O7_2 C11_2 1_555 1_555
O8_2 C13_2 1_555 1_555
O12 C10_2 1_555 1_555
Co4 N3_2 1_555 1_555
C18_2 N3_2 1_555 1_555
O6_2 Co4 1_555 1_555
O7_2 Co4 1_555 1_555
O8_2 Co4 1_555 1_555

#END
