
###############################################################################
#
# This file contains modified crystal structure data generated from the
# MOF subset of the Cambridge Structural Database (CSD) v543 
# hosted by the Cambridge Crystallographic Data Centre (CCDC).
#
# This work is licensed under the Creative Commons
# Attribution-NonCommercial-ShareAlike 4.0 International License.
# To view a copy of this license, visit
# http://creativecommons.org/licenses/by-nc-sa/4.0/
# or send a letter to
# Creative Commons, PO Box 1866, Mountain View, CA 94042, USA.
#
# CIF created using the CSD Python API on 29 September 2022
# The structure has been converted into the P1 space group
# The structure has a 3D framework
# The original CSD entry DAWBUA is in the orthorhombic crystal system
# The original CSD entry DAWBUA is in a Sohncke space group
# The framework has been calculated to contain at least 10.0% void space
# The void calculation uses a probe of radius 1.32A, grid spacing 0.4
#
###############################################################################

data_DAWBUA
_chemical_formula_moiety         '(C40 H32 Co4 N4 O16)n'
_symmetry_cell_setting           triclinic
_symmetry_space_group_name_H-M   'P 1'
_symmetry_Int_Tables_number      1
_space_group_name_Hall           'P 1'
loop_
_symmetry_equiv_pos_site_id
_symmetry_equiv_pos_as_xyz
1 x,y,z
_cell_length_a                   27.1331(9)
_cell_length_b                   6.7002(2)
_cell_length_c                   7.6817(3)
_cell_angle_alpha                90
_cell_angle_beta                 90
_cell_angle_gamma                90
_cell_volume                     1396.51
loop_
_atom_site_label
_atom_site_type_symbol
_atom_site_fract_x
_atom_site_fract_y
_atom_site_fract_z
Co1 Co 0.28258(3) 0.00413(15) 0.75034(12)
O2 O 0.20800(19) 0.1242(8) 0.7816(7)
H2 H 0.1513 0.0104 0.9096
H7 H 0.3893 0.0318 0.8833
O6 O 0.3130(2) 0.2223(9) 0.9219(7)
O12 O 0.3139(2) 0.1584(9) 0.5511(7)
O1 O 0.1870(2) 0.7223(9) 0.0781(7)
Co2 Co 0.21742(3) 0.50413(15) 0.24966(12)
Co5 Co 0.78258(3) 0.49587(15) 0.24966(12)
O8 O 0.8130(2) 0.2777(9) 0.0781(7)
O3 O 0.2564(2) 0.8565(9) 0.9755(7)
O4 O 0.2479(2) 0.7897(9) 0.6002(7)
O5 O 0.1861(2) 0.6584(9) 0.4489(7)
N1 N 0.3481(2) 0.8305(9) 0.7683(9)
C1 C 0.3894(3) 0.5160(13) 0.7253(10)
H1 H 0.3874 0.3837 0.6895
C2 C 0.1805(3) 0.9578(12) 0.8497(9)
C3 C 0.2028(3) 0.7532(13) 0.5749(11)
C4 C 0.4330(3) 0.5939(13) 0.7854(14)
C5 C 0.4334(4) 0.7941(15) 0.8428(19)
H3 H 0.4624 0.8521 0.8834
C6 C 0.1629(3) 0.8297(13) 0.6976(10)
H4 H 0.1454 0.7156 0.7443
H5 H 0.1395 0.9071 0.6299
C7 C 0.3481(3) 0.6407(12) 0.7193(10)
H6 H 0.3187 0.5870 0.6783
C8 C 0.2099(3) 0.8334(12) 0.9796(10)
C9 C 0.3896(3) 0.9034(16) 0.8373(15)
C10 C 0.4771(3) 0.4684(16) 0.7845(13)
H8 H 0.4722 0.3310 0.7838
O10 O 0.7436(2) 0.1435(9) 0.9755(7)
O11 O 0.7521(2) 0.2103(9) 0.6002(7)
O14 O 0.8139(2) 0.3416(9) 0.4489(7)
N2 N 0.6519(2) 0.1695(9) 0.7683(9)
C11 C 0.6106(3) 0.4840(13) 0.7253(10)
H9 H 0.6126 0.6163 0.6895
C12 C 0.8195(3) 0.0422(12) 0.8497(9)
C13 C 0.7972(3) 0.2468(13) 0.5749(11)
C14 C 0.5670(3) 0.4061(13) 0.7854(14)
C15 C 0.5666(4) 0.2059(15) 0.8428(19)
H11 H 0.5376 0.1479 0.8834
C16 C 0.8371(3) 0.1703(13) 0.6976(10)
H12 H 0.8546 0.2844 0.7443
H13 H 0.8605 0.0929 0.6299
C17 C 0.6519(3) 0.3593(12) 0.7193(10)
H14 H 0.6813 0.4130 0.6783
C18 C 0.7901(3) 0.1666(12) 0.9796(10)
C19 C 0.6104(3) 0.0966(16) 0.8373(15)
C20 C 0.5229(3) 0.5316(16) 0.7845(13)
H16 H 0.5278 0.6690 0.7838
Co3 Co 0.71742(3) 0.99587(15) 0.75034(12)
O7 O 0.6870(2) 0.7777(9) 0.9219(7)
O9 O 0.79200(19) 0.8758(8) 0.7816(7)
O13 O 0.6861(2) 0.8416(9) 0.5511(7)
H10 H 0.8487 0.9896 0.9096
H15 H 0.6107 0.9682 0.8833
O9_2 O 0.29200(19) 0.6242(8) 0.2184(7)
O10_2 O 0.2436(2) 0.3565(9) 0.0245(7)
O11_2 O 0.2521(2) 0.2897(9) 0.3998(7)
N2_2 N 0.1519(2) 0.3305(9) 0.2317(9)
C11_2 C 0.1106(3) 0.0160(13) 0.2747(10)
C12_2 C 0.3195(3) 0.4578(12) 0.1503(9)
H10_2 H 0.3487 0.5104 0.0904
C13_2 C 0.2972(3) 0.2532(13) 0.4251(11)
C14_2 C 0.0670(3) 0.0939(13) 0.2146(14)
C15_2 C 0.0666(4) 0.2941(15) 0.1572(19)
H11_2 H 0.0376 0.3521 0.1166
C16_2 C 0.3371(3) 0.3297(13) 0.3024(10)
H12_2 H 0.3546 0.2156 0.2557
H13_2 H 0.3605 0.4071 0.3701
C17_2 C 0.1519(3) 0.1407(12) 0.2807(10)
H14_2 H 0.1813 0.0870 0.3217
C18_2 C 0.2901(3) 0.3334(12) 0.0204(10)
C19_2 C 0.1104(3) 0.4034(16) 0.1627(15)
H15_2 H 0.1107 0.5318 0.1167
O2_2 O 0.70800(19) 0.3758(8) 0.2184(7)
O3_2 O 0.7564(2) 0.6435(9) 0.0245(7)
O4_2 O 0.7479(2) 0.7103(9) 0.3998(7)
N1_2 N 0.8481(2) 0.6695(9) 0.2317(9)
C1_2 C 0.8894(3) 0.9840(13) 0.2747(10)
C2_2 C 0.6805(3) 0.5422(12) 0.1503(9)
H2_2 H 0.6513 0.4896 0.0904
C3_2 C 0.7028(3) 0.7468(13) 0.4251(11)
C4_2 C 0.9330(3) 0.9061(13) 0.2146(14)
C5_2 C 0.9334(4) 0.7059(15) 0.1572(19)
H3_2 H 0.9624 0.6479 0.1166
C6_2 C 0.6629(3) 0.6703(13) 0.3024(10)
H4_2 H 0.6454 0.7844 0.2557
H5_2 H 0.6395 0.5929 0.3701
C7_2 C 0.8481(3) 0.8593(12) 0.2807(10)
H6_2 H 0.8187 0.9130 0.3217
C8_2 C 0.7099(3) 0.6666(12) 0.0204(10)
C9_2 C 0.8896(3) 0.5966(16) 0.1627(15)
H7_2 H 0.8893 0.4682 0.1167
H9_2 H 0.1126 0.8837 0.3105
C20_2 C 0.0229(3) 0.9684(16) 0.2155(13)
H16_2 H 0.0278 0.8310 0.2162
H1_2 H 0.8874 0.1163 0.3105
C10_2 C 0.9771(3) 0.0316(16) 0.2155(13)
H8_2 H 0.9722 0.1690 0.2162
loop_
_geom_bond_atom_site_label_1
_geom_bond_atom_site_label_2
_geom_bond_site_symmetry_1
_geom_bond_site_symmetry_2
Co1 O2 1_555 1_555
O6 Co1 1_555 1_555
O12 Co1 1_555 1_555
Co2 O1 1_555 1_555
Co5 O8 1_555 1_555
O5 C3 1_555 1_555
C1 H1 1_555 1_555
C3 O4 1_555 1_555
C4 C1 1_555 1_555
C5 C4 1_555 1_555
H3 C5 1_555 1_555
C6 C2 1_555 1_555
H4 C6 1_555 1_555
H5 C6 1_555 1_555
C7 N1 1_555 1_555
H6 C7 1_555 1_555
C8 O3 1_555 1_555
C9 N1 1_555 1_555
C10 C4 1_555 1_555
H8 C10 1_555 1_555
Co2 O5 1_555 1_555
Co5 O14 1_555 1_555
O14 C13 1_555 1_555
C11 H9 1_555 1_555
C13 O11 1_555 1_555
C14 C11 1_555 1_555
C15 C14 1_555 1_555
H11 C15 1_555 1_555
C16 C12 1_555 1_555
H12 C16 1_555 1_555
H13 C16 1_555 1_555
C17 N2 1_555 1_555
H14 C17 1_555 1_555
C18 O10 1_555 1_555
C19 N2 1_555 1_555
C20 C10 1_555 1_555
H16 C20 1_555 1_555
C1 C7 1_555 1_555
C2 C8 1_555 1_555
C3 C6 1_555 1_555
C5 C9 1_555 1_555
C11 C17 1_555 1_555
C12 C18 1_555 1_555
C13 C16 1_555 1_555
C14 C20 1_555 1_555
C15 C19 1_555 1_555
Co3 O7 1_555 1_555
O9 Co3 1_555 1_555
O13 Co3 1_555 1_555
O9_2 Co2 1_555 1_555
O10_2 Co2 1_555 1_555
O11_2 Co2 1_555 1_555
O12 C13_2 1_555 1_555
N2_2 Co2 1_555 1_555
C12_2 O9_2 1_555 1_555
H10_2 C12_2 1_555 1_555
C13_2 O11_2 1_555 1_555
C14_2 C11_2 1_555 1_555
C15_2 C14_2 1_555 1_555
H11_2 C15_2 1_555 1_555
C16_2 C12_2 1_555 1_555
H12_2 C16_2 1_555 1_555
H13_2 C16_2 1_555 1_555
C17_2 N2_2 1_555 1_555
H14_2 C17_2 1_555 1_555
C18_2 O10_2 1_555 1_555
C19_2 N2_2 1_555 1_555
H15_2 C19_2 1_555 1_555
C11_2 C17_2 1_555 1_555
C12_2 C18_2 1_555 1_555
C13_2 C16_2 1_555 1_555
C15_2 C19_2 1_555 1_555
Co5 O2_2 1_555 1_555
O2_2 C2_2 1_555 1_555
O3_2 Co5 1_555 1_555
O4_2 Co5 1_555 1_555
O13 C3_2 1_555 1_555
N1_2 Co5 1_555 1_555
C2_2 H2_2 1_555 1_555
C3_2 O4_2 1_555 1_555
C4_2 C1_2 1_555 1_555
C5_2 C4_2 1_555 1_555
H3_2 C5_2 1_555 1_555
C6_2 C2_2 1_555 1_555
H4_2 C6_2 1_555 1_555
H5_2 C6_2 1_555 1_555
C7_2 N1_2 1_555 1_555
H6_2 C7_2 1_555 1_555
C8_2 O3_2 1_555 1_555
C9_2 N1_2 1_555 1_555
H7_2 C9_2 1_555 1_555
C1_2 C7_2 1_555 1_555
C2_2 C8_2 1_555 1_555
C3_2 C6_2 1_555 1_555
C5_2 C9_2 1_555 1_555
H16_2 C20_2 1_555 1_555
H8_2 C10_2 1_555 1_555

#END
