
###############################################################################
#
# This file contains modified crystal structure data generated from the
# MOF subset of the Cambridge Structural Database (CSD) v543 
# hosted by the Cambridge Crystallographic Data Centre (CCDC).
#
# This work is licensed under the Creative Commons
# Attribution-NonCommercial-ShareAlike 4.0 International License.
# To view a copy of this license, visit
# http://creativecommons.org/licenses/by-nc-sa/4.0/
# or send a letter to
# Creative Commons, PO Box 1866, Mountain View, CA 94042, USA.
#
# CIF created using the CSD Python API on 29 September 2022
# The structure has been converted into the P1 space group
# The structure has a 3D framework
# The original CSD entry DAWBOU is in the orthorhombic crystal system
# The original CSD entry DAWBOU is in a Sohncke space group
# The framework has been calculated to contain at least 10.0% void space
# The void calculation uses a probe of radius 1.32A, grid spacing 0.4
#
###############################################################################

data_DAWBOU
_chemical_formula_moiety         '(C36 H28 N8 Ni4 O16)n'
_symmetry_cell_setting           triclinic
_symmetry_space_group_name_H-M   'P 1'
_symmetry_Int_Tables_number      1
_space_group_name_Hall           'P 1'
loop_
_symmetry_equiv_pos_site_id
_symmetry_equiv_pos_as_xyz
1 x,y,z
_cell_length_a                   26.1792(15)
_cell_length_b                   6.6400(4)
_cell_length_c                   7.6702(5)
_cell_angle_alpha                90
_cell_angle_beta                 90
_cell_angle_gamma                90
_cell_volume                     1333.31
loop_
_atom_site_label
_atom_site_type_symbol
_atom_site_fract_x
_atom_site_fract_y
_atom_site_fract_z
Ni2 Ni 0.71677(2) 0.00194(11) 0.24640(9)
O7 O 0.68583(15) 0.2169(6) 0.0780(5)
O11 O 0.68504(14) 0.1540(7) 0.4457(5)
O14 O 0.79219(14) 0.1206(6) 0.2184(5)
H9 H 0.8513 0.0108 0.0913
H13 H 0.6056 0.0371 0.1343
O2 O 0.24867(15) 0.2066(7) 0.4047(5)
O3 O 0.18504(14) 0.3460(7) 0.5543(5)
O4 O 0.25776(15) 0.1500(7) 0.0277(5)
N1 N 0.34983(16) 0.1698(7) 0.2345(7)
C1 C 0.3911(2) 0.4853(10) 0.2766(7)
H1 H 0.3889 0.6192 0.3112
C2 C 0.1789(2) 0.0430(9) 0.1510(7)
C3 C 0.1614(2) 0.1705(10) 0.3024(7)
H3 H 0.1368 0.0930 0.3691
H4 H 0.1435 0.2867 0.2558
C4 C 0.2095(2) 0.1699(9) 0.0218(7)
N2 N 0.47900(19) 0.5437(8) 0.2188(8)
C5 C 0.2022(2) 0.2460(9) 0.4274(7)
C6 C 0.3489(2) 0.3623(9) 0.2826(8)
H5 H 0.3182 0.4162 0.3222
C7 C 0.4358(2) 0.4090(9) 0.2200(9)
C8 C 0.3935(2) 0.0957(12) 0.1728(11)
C9 C 0.4381(2) 0.2108(11) 0.1640(14)
H7 H 0.4684 0.1561 0.1219
Ni4 Ni 0.78323(2) 0.50194(11) 0.75360(9)
Ni6 Ni 0.21677(2) 0.49806(11) 0.75360(9)
O9 O 0.75133(15) 0.7934(7) 0.4047(5)
O10 O 0.81496(14) 0.6540(7) 0.5543(5)
O13 O 0.74224(15) 0.8500(7) 0.0277(5)
N3 N 0.65017(16) 0.8302(7) 0.2345(7)
C10 C 0.6089(2) 0.5147(10) 0.2766(7)
H8 H 0.6111 0.3808 0.3112
C11 C 0.8211(2) 0.9570(9) 0.1510(7)
C12 C 0.8386(2) 0.8295(10) 0.3024(7)
H10 H 0.8632 0.9070 0.3691
H11 H 0.8565 0.7133 0.2558
C13 C 0.7905(2) 0.8301(9) 0.0218(7)
N4 N 0.52100(19) 0.4563(8) 0.2188(8)
C14 C 0.7978(2) 0.7540(9) 0.4274(7)
C15 C 0.6511(2) 0.6377(9) 0.2826(8)
H12 H 0.6818 0.5838 0.3222
C16 C 0.5642(2) 0.5910(9) 0.2200(9)
C17 C 0.6065(2) 0.9043(12) 0.1728(11)
C18 C 0.5619(2) 0.7892(11) 0.1640(14)
H14 H 0.5316 0.8439 0.1219
O1 O 0.18583(15) 0.2831(6) 0.9220(5)
O6 O 0.81417(15) 0.7169(6) 0.9220(5)
Ni1 Ni 0.28323(2) 0.99806(11) 0.24640(9)
O5 O 0.20781(14) 0.8794(6) 0.2184(5)
H2 H 0.1487 0.9892 0.0913
H6 H 0.3944 0.9629 0.1343
O8 O 0.31417(15) 0.7831(6) 0.0780(5)
O12 O 0.31496(14) 0.8460(7) 0.4457(5)
O9_2 O 0.25133(15) 0.7066(7) 0.5953(5)
O13_2 O 0.24224(15) 0.6500(7) 0.9723(5)
N3_2 N 0.15017(16) 0.6698(7) 0.7655(7)
C10_2 C 0.1089(2) 0.9853(10) 0.7234(7)
O14_2 O 0.29219(14) 0.3794(6) 0.7816(5)
C11_2 C 0.3211(2) 0.5430(9) 0.8490(7)
H9_2 H 0.3513 0.4892 0.9087
C12_2 C 0.3386(2) 0.6705(10) 0.6976(7)
H10_2 H 0.3632 0.5930 0.6309
H11_2 H 0.3565 0.7867 0.7442
C13_2 C 0.2905(2) 0.6699(9) 0.9782(7)
C14_2 C 0.2978(2) 0.7460(9) 0.5726(7)
C15_2 C 0.1511(2) 0.8623(9) 0.7174(8)
H12_2 H 0.1818 0.9162 0.6778
C16_2 C 0.0642(2) 0.9090(9) 0.7800(9)
C17_2 C 0.1065(2) 0.5957(12) 0.8272(11)
H13_2 H 0.1056 0.4629 0.8657
C18_2 C 0.0619(2) 0.7108(11) 0.8360(14)
H14_2 H 0.0316 0.6561 0.8781
O2_2 O 0.74867(15) 0.2934(7) 0.5953(5)
O4_2 O 0.75776(15) 0.3500(7) 0.9723(5)
N1_2 N 0.84983(16) 0.3302(7) 0.7655(7)
C1_2 C 0.8911(2) 0.0147(10) 0.7234(7)
O5_2 O 0.70781(14) 0.6206(6) 0.7816(5)
C2_2 C 0.6789(2) 0.4570(9) 0.8490(7)
H2_2 H 0.6487 0.5108 0.9087
C3_2 C 0.6614(2) 0.3295(10) 0.6976(7)
H3_2 H 0.6368 0.4070 0.6309
H4_2 H 0.6435 0.2133 0.7442
C4_2 C 0.7095(2) 0.3301(9) 0.9782(7)
C5_2 C 0.7022(2) 0.2540(9) 0.5726(7)
C6_2 C 0.8489(2) 0.1377(9) 0.7174(8)
H5_2 H 0.8182 0.0838 0.6778
C7_2 C 0.9358(2) 0.0910(9) 0.7800(9)
C8_2 C 0.8935(2) 0.4043(12) 0.8272(11)
H6_2 H 0.8944 0.5371 0.8657
C9_2 C 0.9381(2) 0.2892(11) 0.8360(14)
H7_2 H 0.9684 0.3439 0.8781
H8_2 H 0.1111 0.1192 0.6888
N4_2 N 0.02100(19) 0.0437(8) 0.7812(8)
H1_2 H 0.8889 0.8808 0.6888
N2_2 N 0.97900(19) 0.9563(8) 0.7812(8)
loop_
_geom_bond_atom_site_label_1
_geom_bond_atom_site_label_2
_geom_bond_site_symmetry_1
_geom_bond_site_symmetry_2
Ni2 O7 1_555 1_555
O11 Ni2 1_555 1_555
O14 Ni2 1_555 1_555
O2 C5 1_555 1_555
O3 C5 1_555 1_555
C1 H1 1_555 1_555
C3 C2 1_555 1_555
H3 C3 1_555 1_555
H4 C3 1_555 1_555
C4 O4 1_555 1_555
N2 C7 1_555 1_555
C5 C3 1_555 1_555
C6 N1 1_555 1_555
H5 C6 1_555 1_555
C7 C1 1_555 1_555
C8 N1 1_555 1_555
C9 C7 1_555 1_555
H7 C9 1_555 1_555
Ni4 O10 1_555 1_555
Ni6 O3 1_555 1_555
O10 C14 1_555 1_555
C10 H8 1_555 1_555
C12 C11 1_555 1_555
H10 C12 1_555 1_555
H11 C12 1_555 1_555
C13 O13 1_555 1_555
N4 N2 1_555 1_555
C14 O9 1_555 1_555
C15 N3 1_555 1_555
H12 C15 1_555 1_555
C16 C10 1_555 1_555
C17 N3 1_555 1_555
C18 C16 1_555 1_555
H14 C18 1_555 1_555
C1 C6 1_555 1_555
C2 C4 1_555 1_555
C8 C9 1_555 1_555
C10 C15 1_555 1_555
C11 C13 1_555 1_555
C12 C14 1_555 1_555
N4 C16 1_555 1_555
C17 C18 1_555 1_555
Ni4 O6 1_555 1_555
Ni6 O1 1_555 1_555
O5 Ni1 1_555 1_555
O8 Ni1 1_555 1_555
O12 Ni1 1_555 1_555
O9_2 Ni6 1_555 1_555
O12 C14_2 1_555 1_555
O13_2 Ni6 1_555 1_555
N3_2 Ni6 1_555 1_555
O14_2 Ni6 1_555 1_555
C11_2 O14_2 1_555 1_555
H9_2 C11_2 1_555 1_555
C12_2 C11_2 1_555 1_555
H10_2 C12_2 1_555 1_555
H11_2 C12_2 1_555 1_555
C13_2 O13_2 1_555 1_555
C14_2 O9_2 1_555 1_555
C15_2 N3_2 1_555 1_555
H12_2 C15_2 1_555 1_555
C16_2 C10_2 1_555 1_555
C17_2 N3_2 1_555 1_555
H13_2 C17_2 1_555 1_555
C18_2 C16_2 1_555 1_555
H14_2 C18_2 1_555 1_555
C10_2 C15_2 1_555 1_555
C11_2 C13_2 1_555 1_555
C12_2 C14_2 1_555 1_555
C17_2 C18_2 1_555 1_555
Ni4 O2_2 1_555 1_555
O2_2 C5_2 1_555 1_555
O11 C5_2 1_555 1_555
O4_2 Ni4 1_555 1_555
N1_2 Ni4 1_555 1_555
O5_2 Ni4 1_555 1_555
C2_2 O5_2 1_555 1_555
H2_2 C2_2 1_555 1_555
C3_2 C2_2 1_555 1_555
H3_2 C3_2 1_555 1_555
H4_2 C3_2 1_555 1_555
C4_2 O4_2 1_555 1_555
C5_2 C3_2 1_555 1_555
C6_2 N1_2 1_555 1_555
H5_2 C6_2 1_555 1_555
C7_2 C1_2 1_555 1_555
C8_2 N1_2 1_555 1_555
H6_2 C8_2 1_555 1_555
C9_2 C7_2 1_555 1_555
H7_2 C9_2 1_555 1_555
C1_2 C6_2 1_555 1_555
C2_2 C4_2 1_555 1_555
C8_2 C9_2 1_555 1_555

#END
