
###############################################################################
#
# This file contains modified crystal structure data generated from the
# MOF subset of the Cambridge Structural Database (CSD) v543 
# hosted by the Cambridge Crystallographic Data Centre (CCDC).
#
# This work is licensed under the Creative Commons
# Attribution-NonCommercial-ShareAlike 4.0 International License.
# To view a copy of this license, visit
# http://creativecommons.org/licenses/by-nc-sa/4.0/
# or send a letter to
# Creative Commons, PO Box 1866, Mountain View, CA 94042, USA.
#
# CIF created using the CSD Python API on 29 September 2022
# The structure has been converted into the P1 space group
# The structure has a 3D framework
# The original CSD entry DAWCOV is in the monoclinic crystal system
# The framework has been calculated to contain at least 10.0% void space
# The void calculation uses a probe of radius 1.32A, grid spacing 0.4
#
###############################################################################

data_DAWCOV
_chemical_formula_moiety         '(C176 H120 Mn14 O50)n'
_symmetry_cell_setting           triclinic
_symmetry_space_group_name_H-M   'P 1'
_symmetry_Int_Tables_number      1
_space_group_name_Hall           'P 1'
loop_
_symmetry_equiv_pos_site_id
_symmetry_equiv_pos_as_xyz
1 x,y,z
_cell_length_a                   29.722(6)
_cell_length_b                   13.552(2)
_cell_length_c                   18.680(4)
_cell_angle_alpha                90
_cell_angle_beta                 124.540(6)
_cell_angle_gamma                90
_cell_volume                     6197.88
loop_
_atom_site_label
_atom_site_type_symbol
_atom_site_fract_x
_atom_site_fract_y
_atom_site_fract_z
Mn5 Mn -0.0000 0.54414(4) 0.7500
Mn11 Mn 0.035394(14) 0.55305(3) 0.60204(2)
O12 O 0.55510(7) 0.02386(15) 0.51157(13)
O19 O 0.43495(7) 0.08850(14) 0.34069(13)
O20 O 0.56505(7) 0.08850(14) 0.15931(13)
O22 O 0.44309(7) 0.06467(15) 0.23115(12)
O23 O 0.55691(7) 0.06467(15) 0.26885(12)
O14 O 0.44490(7) 0.02386(15) 0.98843(13)
C1 C 0.41429(11) 0.8130(2) 0.2567(2)
C2 C 0.38281(11) 0.7229(2) 0.21083(19)
C3 C 0.34231(12) 0.6900(2) 0.2174(2)
H1 H 0.3333 0.7252 0.2504
C4 C 0.31436(11) 0.6050(2) 0.1756(2)
H2 H 0.2867 0.5837 0.1811
C5 C 0.32599(9) 0.5509(2) 0.12651(17)
C6 C 0.36767(12) 0.5824(3) 0.1218(2)
H3 H 0.3777 0.5458 0.0908
C7 C 0.39535(13) 0.6691(3) 0.1631(2)
H4 H 0.4231 0.6907 0.1579
C8 C 0.29580(9) 0.45686(19) 0.07883(18)
H5 H 0.2949 0.4549 0.0255
C9 C 0.23599(10) 0.46238(19) 0.05015(17)
C13 C 0.16104(10) 0.4234(2) 0.06083(17)
H8 H 0.1474 0.3887 0.0875
C14 C 0.21522(10) 0.4095(2) 0.08812(17)
H9 H 0.2372 0.3645 0.1320
C16 C 0.32711(9) 0.3657(2) 0.13122(18)
C17 C 0.33368(12) 0.2901(2) 0.0891(2)
H10 H 0.3166 0.2938 0.0293
C18 C 0.36516(12) 0.2086(2) 0.1337(2)
H11 H 0.3693 0.1589 0.1034
C19 C 0.39066(10) 0.1996(2) 0.22218(17)
C20 C 0.38253(11) 0.2734(2) 0.26355(18)
H12 H 0.3977 0.2682 0.3227
C21 C 0.35185(11) 0.3562(2) 0.21827(19)
H13 H 0.3481 0.4065 0.2484
C22 C 0.42569(10) 0.1112(2) 0.26776(19)
Mn1 Mn 0.5000 0.95586(4) 0.2500
Mn2 Mn 0.464606(14) 0.94695(3) 0.39796(2)
O1 O 0.44940(7) 0.84197(16) 0.24488(14)
O2 O 0.40450(8) 0.85513(16) 0.30509(14)
O3 O 0.05510(7) 0.47614(15) 0.01157(13)
O7 O 0.50547(8) 0.81696(15) 0.48363(13)
H14 H 0.5069 0.8236 0.5301
H15 H 0.5378 0.8113 0.4967
C23 C 0.58571(11) 0.8130(2) 0.2433(2)
C24 C 0.61719(11) 0.7229(2) 0.28917(19)
C25 C 0.65769(12) 0.6900(2) 0.2826(2)
H16 H 0.6667 0.7252 0.2496
C26 C 0.68564(11) 0.6050(2) 0.3244(2)
H17 H 0.7133 0.5837 0.3189
C27 C 0.67401(9) 0.5509(2) 0.37349(17)
C28 C 0.63233(12) 0.5824(3) 0.3782(2)
H18 H 0.6223 0.5458 0.4092
C29 C 0.60465(13) 0.6691(3) 0.3369(2)
H19 H 0.5769 0.6907 0.3421
C30 C 0.70420(9) 0.45686(19) 0.42117(18)
H20 H 0.7051 0.4549 0.4745
C31 C 0.76401(10) 0.46238(19) 0.44985(17)
C32 C 0.79815(10) 0.5267(2) 0.51590(18)
H21 H 0.7846 0.5629 0.5421
C33 C 0.85152(10) 0.5389(2) 0.54417(17)
H22 H 0.8739 0.5817 0.5899
C34 C 0.87203(10) 0.4882(2) 0.50523(16)
C35 C 0.83896(10) 0.4234(2) 0.43917(17)
H23 H 0.8526 0.3887 0.4125
C36 C 0.78478(10) 0.4095(2) 0.41188(17)
H24 H 0.7628 0.3645 0.3680
C37 C 0.92977(10) 0.5028(2) 0.53523(18)
C38 C 0.67289(9) 0.3657(2) 0.36878(18)
C39 C 0.66632(12) 0.2901(2) 0.4109(2)
H25 H 0.6834 0.2938 0.4707
C40 C 0.63484(12) 0.2086(2) 0.3663(2)
H26 H 0.6307 0.1589 0.3966
C41 C 0.60934(10) 0.1996(2) 0.27782(17)
C42 C 0.61747(11) 0.2734(2) 0.23645(18)
H27 H 0.6023 0.2682 0.1773
C43 C 0.64815(11) 0.3562(2) 0.28173(19)
H28 H 0.6519 0.4065 0.2516
C44 C 0.57431(10) 0.1112(2) 0.23224(19)
Mn5_2 Mn 1.0000 0.54414(4) 0.7500
Mn6 Mn 0.535394(14) 0.94695(3) 0.10204(2)
Mn7 Mn 0.035394(14) 0.44695(3) 0.10204(2)
Mn10 Mn 0.964606(14) 0.44695(3) 0.39796(2)
O8 O 0.55060(7) 0.84197(16) 0.25512(14)
O9 O 0.59550(8) 0.85513(16) 0.19491(14)
O10 O 0.94490(7) 0.47614(15) 0.48843(13)
O11 O 0.44490(7) 0.97614(15) 0.48843(13)
O13 O 0.55510(7) 0.97614(15) 0.01157(13)
O15 O 0.96271(6) 0.54422(14) 0.60744(11)
O16 O 0.46271(6) 0.95578(14) 0.10744(11)
O17 O 0.53729(6) 0.95578(14) 0.39256(11)
O24 O 0.49453(8) 0.81696(15) 0.01637(13)
H30 H 0.4622 0.8113 0.0033
C10 C 0.20185(10) 0.5267(2) 0.98410(18)
H6 H 0.2154 0.5629 0.9579
C11 C 0.14848(10) 0.5389(2) 0.95583(17)
H7 H 0.1261 0.5817 0.9101
C12 C 0.12797(10) 0.4882(2) 0.99477(16)
C15 C 0.07023(10) 0.5028(2) 0.96477(18)
O4 O 0.03729(6) 0.54422(14) 0.89256(11)
H29 H 0.4931 0.8236 0.9699
Mn8 Mn 0.964606(14) 0.55305(3) 0.89796(2)
Mn1_2 Mn 0.0000 0.45586(4) 0.2500
O7_2 O 0.00547(8) 0.31696(15) 0.48363(13)
H14_2 H 0.0069 0.3236 0.5301
H15_2 H 0.0378 0.3113 0.4967
C23_2 C 0.08571(11) 0.3130(2) 0.2433(2)
C24_2 C 0.11719(11) 0.2229(2) 0.28917(19)
C25_2 C 0.15769(12) 0.1900(2) 0.2826(2)
H16_2 H 0.1667 0.2252 0.2496
C26_2 C 0.18564(11) 0.1050(2) 0.3244(2)
H17_2 H 0.2133 0.0837 0.3189
C27_2 C 0.17401(9) 0.0509(2) 0.37349(17)
C28_2 C 0.13233(12) 0.0824(3) 0.3782(2)
H18_2 H 0.1223 0.0458 0.4092
C29_2 C 0.10465(13) 0.1691(3) 0.3369(2)
H19_2 H 0.0769 0.1907 0.3421
C32_2 C 0.29815(10) 0.0267(2) 0.51590(18)
H21_2 H 0.2846 0.0629 0.5421
C33_2 C 0.35152(10) 0.0389(2) 0.54417(17)
H22_2 H 0.3739 0.0817 0.5899
C37_2 C 0.42977(10) 0.0028(2) 0.53523(18)
Mn5_3 Mn 0.5000 0.04414(4) 0.7500
Mn11_2 Mn 0.535394(14) 0.05305(3) 0.60204(2)
O8_2 O 0.05060(7) 0.34197(16) 0.25512(14)
O9_2 O 0.09550(8) 0.35513(16) 0.19491(14)
O12_2 O 0.05510(7) 0.52386(15) 0.51157(13)
O15_2 O 0.46271(6) 0.04422(14) 0.60744(11)
O17_2 O 0.03729(6) 0.45578(14) 0.39256(11)
O20_2 O 0.06505(7) 0.58850(14) 0.15931(13)
O23_2 O 0.05691(7) 0.56467(15) 0.26885(12)
C30_2 C 0.20420(9) 0.95686(19) 0.42117(18)
H20_2 H 0.2051 0.9549 0.4745
C31_2 C 0.26401(10) 0.96238(19) 0.44985(17)
C34_2 C 0.37203(10) 0.9882(2) 0.50523(16)
C35_2 C 0.33896(10) 0.9234(2) 0.43917(17)
H23_2 H 0.3526 0.8887 0.4125
C36_2 C 0.28478(10) 0.9095(2) 0.41188(17)
H24_2 H 0.2628 0.8645 0.3680
C38_2 C 0.17289(9) 0.8657(2) 0.36878(18)
C39_2 C 0.16632(12) 0.7901(2) 0.4109(2)
H25_2 H 0.1834 0.7938 0.4707
C40_2 C 0.13484(12) 0.7086(2) 0.3663(2)
H26_2 H 0.1307 0.6589 0.3966
C41_2 C 0.10934(10) 0.6996(2) 0.27782(17)
C42_2 C 0.11747(11) 0.7734(2) 0.23645(18)
H27_2 H 0.1023 0.7682 0.1773
C43_2 C 0.14815(11) 0.8562(2) 0.28173(19)
H28_2 H 0.1519 0.9065 0.2516
C44_2 C 0.07431(10) 0.6112(2) 0.23224(19)
C1_2 C 0.91429(11) 0.3130(2) 0.2567(2)
C2_2 C 0.88281(11) 0.2229(2) 0.21083(19)
C3_2 C 0.84231(12) 0.1900(2) 0.2174(2)
H1_2 H 0.8333 0.2252 0.2504
C4_2 C 0.81436(11) 0.1050(2) 0.1756(2)
H2_2 H 0.7867 0.0837 0.1811
C5_2 C 0.82599(9) 0.0509(2) 0.12651(17)
C6_2 C 0.86767(12) 0.0824(3) 0.1218(2)
H3_2 H 0.8777 0.0458 0.0908
C7_2 C 0.89535(13) 0.1691(3) 0.1631(2)
H4_2 H 0.9231 0.1907 0.1579
Mn1_3 Mn 1.0000 0.45586(4) 0.2500
O1_2 O 0.94940(7) 0.34197(16) 0.24488(14)
O2_2 O 0.90450(8) 0.35513(16) 0.30509(14)
O16_2 O 0.96271(6) 0.45578(14) 0.10744(11)
O19_2 O 0.93495(7) 0.58850(14) 0.34069(13)
O22_2 O 0.94309(7) 0.56467(15) 0.23115(12)
O24_2 O 0.99453(8) 0.31696(15) 0.01637(13)
H30_2 H 0.9622 0.3113 0.0033
C10_2 C 0.70185(10) 0.0267(2) 0.98410(18)
H6_2 H 0.7154 0.0629 0.9579
C11_2 C 0.64848(10) 0.0389(2) 0.95583(17)
H7_2 H 0.6261 0.0817 0.9101
C15_2 C 0.57023(10) 0.0028(2) 0.96477(18)
O4_2 O 0.53729(6) 0.04422(14) 0.89256(11)
Mn8_2 Mn 0.464606(14) 0.05305(3) 0.89796(2)
O14_2 O 0.94490(7) 0.52386(15) 0.98843(13)
H29_2 H 0.9931 0.3236 0.9699
C8_2 C 0.79580(9) 0.95686(19) 0.07883(18)
H5_2 H 0.7949 0.9549 0.0255
C9_2 C 0.73599(10) 0.96238(19) 0.05015(17)
C13_2 C 0.66104(10) 0.9234(2) 0.06083(17)
H8_2 H 0.6474 0.8887 0.0875
C14_2 C 0.71522(10) 0.9095(2) 0.08812(17)
H9_2 H 0.7372 0.8645 0.1320
C16_2 C 0.82711(9) 0.8657(2) 0.13122(18)
C17_2 C 0.83368(12) 0.7901(2) 0.0891(2)
H10_2 H 0.8166 0.7938 0.0293
C18_2 C 0.86516(12) 0.7086(2) 0.1337(2)
H11_2 H 0.8693 0.6589 0.1034
C19_2 C 0.89066(10) 0.6996(2) 0.22218(17)
C20_2 C 0.88253(11) 0.7734(2) 0.26355(18)
H12_2 H 0.8977 0.7682 0.3227
C21_2 C 0.85185(11) 0.8562(2) 0.21827(19)
H13_2 H 0.8481 0.9065 0.2484
C22_2 C 0.92569(10) 0.6112(2) 0.26776(19)
C10_3 C 0.79815(10) 0.4733(2) 0.01590(18)
H6_3 H 0.7846 0.4371 0.0421
C11_3 C 0.85152(10) 0.4611(2) 0.04417(17)
H7_3 H 0.8739 0.4183 0.0899
C12_2 C 0.87203(10) 0.5118(2) 0.00523(16)
C15_3 C 0.92977(10) 0.4972(2) 0.03523(18)
H29_3 H 0.5069 0.1764 0.0301
C1_3 C 0.58571(11) 0.1870(2) 0.7433(2)
C2_3 C 0.61719(11) 0.2771(2) 0.78917(19)
C3_3 C 0.65769(12) 0.3100(2) 0.7826(2)
H1_3 H 0.6667 0.2748 0.7496
C4_3 C 0.68564(11) 0.3950(2) 0.8244(2)
H2_3 H 0.7133 0.4163 0.8189
C5_3 C 0.67401(9) 0.4491(2) 0.87349(17)
C6_3 C 0.63233(12) 0.4176(3) 0.8782(2)
H3_3 H 0.6223 0.4542 0.9092
C7_3 C 0.60465(13) 0.3309(3) 0.8369(2)
H4_3 H 0.5769 0.3093 0.8421
C8_3 C 0.70420(9) 0.54314(19) 0.92117(18)
H5_3 H 0.7051 0.5451 0.9745
C9_3 C 0.76401(10) 0.53762(19) 0.94985(17)
C13_3 C 0.83896(10) 0.5766(2) 0.93917(17)
H8_3 H 0.8526 0.6113 0.9125
C14_3 C 0.78478(10) 0.5905(2) 0.91188(17)
H9_3 H 0.7628 0.6355 0.8680
C16_3 C 0.67289(9) 0.6343(2) 0.86878(18)
C17_3 C 0.66632(12) 0.7099(2) 0.9109(2)
H10_3 H 0.6834 0.7062 0.9707
C18_3 C 0.63484(12) 0.7914(2) 0.8663(2)
H11_3 H 0.6307 0.8411 0.8966
C19_3 C 0.60934(10) 0.8004(2) 0.77782(17)
C20_3 C 0.61747(11) 0.7266(2) 0.73645(18)
H12_3 H 0.6023 0.7318 0.6773
C21_3 C 0.64815(11) 0.6438(2) 0.78173(19)
H13_3 H 0.6519 0.5935 0.7516
C22_3 C 0.57431(10) 0.8888(2) 0.73224(19)
O1_3 O 0.55060(7) 0.15803(16) 0.75512(14)
O2_3 O 0.59550(8) 0.14487(16) 0.69491(14)
O5 O 0.56505(7) 0.91150(14) 0.65931(13)
O6 O 0.55691(7) 0.93533(15) 0.76885(12)
O7_3 O 0.49453(8) 0.18304(15) 0.51637(13)
H14_3 H 0.4931 0.1764 0.4699
H15_3 H 0.4622 0.1887 0.5033
C23_3 C 0.41429(11) 0.1870(2) 0.7567(2)
C24_3 C 0.38281(11) 0.2771(2) 0.71083(19)
C25_3 C 0.34231(12) 0.3100(2) 0.7174(2)
H16_3 H 0.3333 0.2748 0.7504
C26_3 C 0.31436(11) 0.3950(2) 0.6756(2)
H17_3 H 0.2867 0.4163 0.6811
C27_3 C 0.32599(9) 0.4491(2) 0.62651(17)
C28_3 C 0.36767(12) 0.4176(3) 0.6218(2)
H18_3 H 0.3777 0.4542 0.5908
C29_3 C 0.39535(13) 0.3309(3) 0.6631(2)
H19_3 H 0.4231 0.3093 0.6579
C30_3 C 0.29580(9) 0.54314(19) 0.57883(18)
H20_3 H 0.2949 0.5451 0.5255
C31_3 C 0.23599(10) 0.53762(19) 0.55015(17)
C32_3 C 0.20185(10) 0.4733(2) 0.48410(18)
H21_3 H 0.2154 0.4371 0.4579
C33_3 C 0.14848(10) 0.4611(2) 0.45583(17)
H22_3 H 0.1261 0.4183 0.4101
C34_3 C 0.12797(10) 0.5118(2) 0.49477(16)
C35_3 C 0.16104(10) 0.5766(2) 0.56083(17)
H23_3 H 0.1474 0.6113 0.5875
C36_3 C 0.21522(10) 0.5905(2) 0.58812(17)
H24_3 H 0.2372 0.6355 0.6320
C37_3 C 0.07023(10) 0.4972(2) 0.46477(18)
C38_3 C 0.32711(9) 0.6343(2) 0.63122(18)
C39_3 C 0.33368(12) 0.7099(2) 0.5891(2)
H25_3 H 0.3166 0.7062 0.5293
C40_3 C 0.36516(12) 0.7914(2) 0.6337(2)
H26_3 H 0.3693 0.8411 0.6034
C41_3 C 0.39066(10) 0.8004(2) 0.72218(17)
C42_3 C 0.38253(11) 0.7266(2) 0.76355(18)
H27_3 H 0.3977 0.7318 0.8227
C43_3 C 0.35185(11) 0.6438(2) 0.71827(19)
H28_3 H 0.3481 0.5935 0.7484
C44_3 C 0.42569(10) 0.8888(2) 0.76776(19)
O8_3 O 0.44940(7) 0.15803(16) 0.74488(14)
O9_3 O 0.40450(8) 0.14487(16) 0.80509(14)
O18 O 0.43495(7) 0.91150(14) 0.84069(13)
O21 O 0.44309(7) 0.93533(15) 0.73115(12)
O24_3 O 0.50547(8) 0.18304(15) 0.98363(13)
H30_3 H 0.5378 0.1887 0.9967
C8_4 C 0.20420(9) 0.04314(19) 0.92117(18)
H5_4 H 0.2051 0.0451 0.9745
C9_4 C 0.26401(10) 0.03762(19) 0.94985(17)
C13_4 C 0.33896(10) 0.0766(2) 0.93917(17)
H8_4 H 0.3526 0.1113 0.9125
C14_4 C 0.28478(10) 0.0905(2) 0.91188(17)
H9_4 H 0.2628 0.1355 0.8680
C16_4 C 0.17289(9) 0.1343(2) 0.86878(18)
C17_4 C 0.16632(12) 0.2099(2) 0.9109(2)
H10_4 H 0.1834 0.2062 0.9707
C18_4 C 0.13484(12) 0.2914(2) 0.8663(2)
H11_4 H 0.1307 0.3411 0.8966
C19_4 C 0.10934(10) 0.3004(2) 0.77782(17)
C20_4 C 0.11747(11) 0.2266(2) 0.73645(18)
H12_4 H 0.1023 0.2318 0.6773
C21_4 C 0.14815(11) 0.1438(2) 0.78173(19)
H13_4 H 0.1519 0.0935 0.7516
C22_4 C 0.07431(10) 0.3888(2) 0.73224(19)
O5_2 O 0.06505(7) 0.41150(14) 0.65931(13)
O6_2 O 0.05691(7) 0.43533(15) 0.76885(12)
C10_4 C 0.29815(10) 0.9733(2) 0.01590(18)
H6_4 H 0.2846 0.9371 0.0421
C11_4 C 0.35152(10) 0.9611(2) 0.04417(17)
H7_4 H 0.3739 0.9183 0.0899
C15_4 C 0.42977(10) 0.9972(2) 0.03523(18)
H29_4 H 0.0069 0.6764 0.0301
C1_4 C 0.08571(11) 0.6870(2) 0.7433(2)
C2_4 C 0.11719(11) 0.7771(2) 0.78917(19)
C3_4 C 0.15769(12) 0.8100(2) 0.7826(2)
H1_4 H 0.1667 0.7748 0.7496
C4_4 C 0.18564(11) 0.8950(2) 0.8244(2)
H2_4 H 0.2133 0.9163 0.8189
C5_4 C 0.17401(9) 0.9491(2) 0.87349(17)
C6_4 C 0.13233(12) 0.9176(3) 0.8782(2)
H3_4 H 0.1223 0.9542 0.9092
C7_4 C 0.10465(13) 0.8309(3) 0.8369(2)
H4_4 H 0.0769 0.8093 0.8421
O1_4 O 0.05060(7) 0.65803(16) 0.75512(14)
O2_4 O 0.09550(8) 0.64487(16) 0.69491(14)
O24_4 O 0.00547(8) 0.68304(15) 0.98363(13)
H30_4 H 0.0378 0.6887 0.9967
C30_4 C 0.79580(9) 0.04314(19) 0.57883(18)
H20_4 H 0.7949 0.0451 0.5255
C31_4 C 0.73599(10) 0.03762(19) 0.55015(17)
C34_4 C 0.62797(10) 0.0118(2) 0.49477(16)
C35_4 C 0.66104(10) 0.0766(2) 0.56083(17)
H23_4 H 0.6474 0.1113 0.5875
C36_4 C 0.71522(10) 0.0905(2) 0.58812(17)
H24_4 H 0.7372 0.1355 0.6320
C38_4 C 0.82711(9) 0.1343(2) 0.63122(18)
C39_4 C 0.83368(12) 0.2099(2) 0.5891(2)
H25_4 H 0.8166 0.2062 0.5293
C40_4 C 0.86516(12) 0.2914(2) 0.6337(2)
H26_4 H 0.8693 0.3411 0.6034
C41_4 C 0.89066(10) 0.3004(2) 0.72218(17)
C42_4 C 0.88253(11) 0.2266(2) 0.76355(18)
H27_4 H 0.8977 0.2318 0.8227
C43_4 C 0.85185(11) 0.1438(2) 0.71827(19)
H28_4 H 0.8481 0.0935 0.7484
C44_4 C 0.92569(10) 0.3888(2) 0.76776(19)
O18_2 O 0.93495(7) 0.41150(14) 0.84069(13)
O21_2 O 0.94309(7) 0.43533(15) 0.73115(12)
O7_4 O 0.99453(8) 0.68304(15) 0.51637(13)
H14_4 H 0.9931 0.6764 0.4699
H15_4 H 0.9622 0.6887 0.5033
C23_4 C 0.91429(11) 0.6870(2) 0.7567(2)
C24_4 C 0.88281(11) 0.7771(2) 0.71083(19)
C25_4 C 0.84231(12) 0.8100(2) 0.7174(2)
H16_4 H 0.8333 0.7748 0.7504
C26_4 C 0.81436(11) 0.8950(2) 0.6756(2)
H17_4 H 0.7867 0.9163 0.6811
C27_4 C 0.82599(9) 0.9491(2) 0.62651(17)
C28_4 C 0.86767(12) 0.9176(3) 0.6218(2)
H18_4 H 0.8777 0.9542 0.5908
C29_4 C 0.89535(13) 0.8309(3) 0.6631(2)
H19_4 H 0.9231 0.8093 0.6579
C32_4 C 0.70185(10) 0.9733(2) 0.48410(18)
H21_4 H 0.7154 0.9371 0.4579
C33_4 C 0.64848(10) 0.9611(2) 0.45583(17)
H22_4 H 0.6261 0.9183 0.4101
C37_4 C 0.57023(10) 0.9972(2) 0.46477(18)
O8_4 O 0.94940(7) 0.65803(16) 0.74488(14)
O9_4 O 0.90450(8) 0.64487(16) 0.80509(14)
C12_3 C 0.62797(10) 0.9882(2) 0.99477(16)
C12_4 C 0.37203(10) 0.0118(2) 0.00523(16)
loop_
_geom_bond_atom_site_label_1
_geom_bond_atom_site_label_2
_geom_bond_site_symmetry_1
_geom_bond_site_symmetry_2
C1 C2 1_555 1_555
C2 C3 1_555 1_555
C3 H1 1_555 1_555
C4 C3 1_555 1_555
H2 C4 1_555 1_555
C5 C4 1_555 1_555
C6 C5 1_555 1_555
H3 C6 1_555 1_555
C7 C2 1_555 1_555
H4 C7 1_555 1_555
C8 C5 1_555 1_555
H5 C8 1_555 1_555
C9 C8 1_555 1_555
H8 C13 1_555 1_555
C14 C9 1_555 1_555
H9 C14 1_555 1_555
C16 C8 1_555 1_555
C17 C16 1_555 1_555
H10 C17 1_555 1_555
C18 C17 1_555 1_555
H11 C18 1_555 1_555
C19 C18 1_555 1_555
C20 C19 1_555 1_555
H12 C20 1_555 1_555
C21 C16 1_555 1_555
H13 C21 1_555 1_555
C22 C19 1_555 1_555
Mn1 O1 1_555 1_555
Mn2 O2 1_555 1_555
O1 C1 1_555 1_555
O2 C1 1_555 1_555
O19 C22 1_555 1_555
O22 C22 1_555 1_555
O7 Mn2 1_555 1_555
H14 O7 1_555 1_555
H15 O7 1_555 1_555
C23 C24 1_555 1_555
C24 C25 1_555 1_555
C25 H16 1_555 1_555
C26 C25 1_555 1_555
H17 C26 1_555 1_555
C27 C26 1_555 1_555
C28 C27 1_555 1_555
H18 C28 1_555 1_555
C29 C24 1_555 1_555
H19 C29 1_555 1_555
C30 C27 1_555 1_555
H20 C30 1_555 1_555
C31 C30 1_555 1_555
C32 C31 1_555 1_555
H21 C32 1_555 1_555
C33 C32 1_555 1_555
H22 C33 1_555 1_555
C34 C33 1_555 1_555
C35 C34 1_555 1_555
H23 C35 1_555 1_555
C36 C31 1_555 1_555
H24 C36 1_555 1_555
C37 C34 1_555 1_555
C38 C30 1_555 1_555
C39 C38 1_555 1_555
H25 C39 1_555 1_555
C40 C39 1_555 1_555
H26 C40 1_555 1_555
C41 C40 1_555 1_555
C42 C41 1_555 1_555
H27 C42 1_555 1_555
C43 C38 1_555 1_555
H28 C43 1_555 1_555
C44 C41 1_555 1_555
Mn5_2 O15 1_555 1_555
Mn6 O9 1_555 1_555
Mn7 O3 1_555 1_555
Mn10 O10 1_555 1_555
O8 Mn1 1_555 1_555
O9 C23 1_555 1_555
O10 C37 1_555 1_555
O11 Mn2 1_555 1_555
O13 Mn6 1_555 1_555
O15 C37 1_555 1_555
O16 Mn1 1_555 1_555
O17 Mn1 1_555 1_555
O20 C44 1_555 1_555
O23 C44 1_555 1_555
O24 Mn6 1_555 1_555
H30 O24 1_555 1_555
C6 C7 1_555 1_555
C13 C14 1_555 1_555
C20 C21 1_555 1_555
Mn2 O17 1_555 1_555
C23 O8 1_555 1_555
C28 C29 1_555 1_555
C35 C36 1_555 1_555
C42 C43 1_555 1_555
Mn6 O16 1_555 1_555
H6 C10 1_555 1_555
C11 C10 1_555 1_555
H7 C11 1_555 1_555
C12 C11 1_555 1_555
C15 C12 1_555 1_555
O4 C15 1_555 1_555
Mn5 O4 1_555 1_555
H14_2 O7_2 1_555 1_555
H15_2 O7_2 1_555 1_555
C23_2 C24_2 1_555 1_555
C24_2 C25_2 1_555 1_555
C25_2 H16_2 1_555 1_555
C26_2 C25_2 1_555 1_555
H17_2 C26_2 1_555 1_555
C27_2 C26_2 1_555 1_555
C28_2 C27_2 1_555 1_555
H18_2 C28_2 1_555 1_555
C29_2 C24_2 1_555 1_555
H19_2 C29_2 1_555 1_555
H21_2 C32_2 1_555 1_555
C33_2 C32_2 1_555 1_555
H22_2 C33_2 1_555 1_555
Mn5_3 O15_2 1_555 1_555
Mn7 O9_2 1_555 1_555
O8_2 Mn1_2 1_555 1_555
O9_2 C23_2 1_555 1_555
O15_2 C37_2 1_555 1_555
O17_2 Mn1_2 1_555 1_555
O20_2 Mn7 1_555 1_555
O23_2 Mn1_2 1_555 1_555
C23_2 O8_2 1_555 1_555
C28_2 C29_2 1_555 1_555
Mn11_2 O15_2 1_555 1_555
H20_2 C30_2 1_555 1_555
C31_2 C30_2 1_555 1_555
C35_2 C34_2 1_555 1_555
H23_2 C35_2 1_555 1_555
C36_2 C31_2 1_555 1_555
H24_2 C36_2 1_555 1_555
C38_2 C30_2 1_555 1_555
C39_2 C38_2 1_555 1_555
H25_2 C39_2 1_555 1_555
C40_2 C39_2 1_555 1_555
H26_2 C40_2 1_555 1_555
C41_2 C40_2 1_555 1_555
C42_2 C41_2 1_555 1_555
H27_2 C42_2 1_555 1_555
C43_2 C38_2 1_555 1_555
H28_2 C43_2 1_555 1_555
C44_2 C41_2 1_555 1_555
O20_2 C44_2 1_555 1_555
O23_2 C44_2 1_555 1_555
C35_2 C36_2 1_555 1_555
C42_2 C43_2 1_555 1_555
C1_2 C2_2 1_555 1_555
C2_2 C3_2 1_555 1_555
C3_2 H1_2 1_555 1_555
C4_2 C3_2 1_555 1_555
H2_2 C4_2 1_555 1_555
C5_2 C4_2 1_555 1_555
C6_2 C5_2 1_555 1_555
H3_2 C6_2 1_555 1_555
C7_2 C2_2 1_555 1_555
H4_2 C7_2 1_555 1_555
Mn1_3 O1_2 1_555 1_555
Mn10 O2_2 1_555 1_555
O1_2 C1_2 1_555 1_555
O2_2 C1_2 1_555 1_555
O16_2 Mn1_3 1_555 1_555
O19_2 Mn10 1_555 1_555
O22_2 Mn1_3 1_555 1_555
H30_2 O24_2 1_555 1_555
C6_2 C7_2 1_555 1_555
H6_2 C10_2 1_555 1_555
C11_2 C10_2 1_555 1_555
H7_2 C11_2 1_555 1_555
O4_2 C15_2 1_555 1_555
Mn5_3 O4_2 1_555 1_555
O4_2 Mn8_2 1_555 1_555
H5_2 C8_2 1_555 1_555
C9_2 C8_2 1_555 1_555
H8_2 C13_2 1_555 1_555
C14_2 C9_2 1_555 1_555
H9_2 C14_2 1_555 1_555
C16_2 C8_2 1_555 1_555
C17_2 C16_2 1_555 1_555
H10_2 C17_2 1_555 1_555
C18_2 C17_2 1_555 1_555
H11_2 C18_2 1_555 1_555
C19_2 C18_2 1_555 1_555
C20_2 C19_2 1_555 1_555
H12_2 C20_2 1_555 1_555
C21_2 C16_2 1_555 1_555
H13_2 C21_2 1_555 1_555
C22_2 C19_2 1_555 1_555
O19_2 C22_2 1_555 1_555
O22_2 C22_2 1_555 1_555
C13_2 C14_2 1_555 1_555
C20_2 C21_2 1_555 1_555
H6_3 C10_3 1_555 1_555
C11_3 C10_3 1_555 1_555
H7_3 C11_3 1_555 1_555
C12_2 C11_3 1_555 1_555
C15_3 C12_2 1_555 1_555
O16_2 C15_3 1_555 1_555
C1_3 C2_3 1_555 1_555
C2_3 C3_3 1_555 1_555
C3_3 H1_3 1_555 1_555
C4_3 C3_3 1_555 1_555
H2_3 C4_3 1_555 1_555
C5_3 C4_3 1_555 1_555
C6_3 C5_3 1_555 1_555
H3_3 C6_3 1_555 1_555
C7_3 C2_3 1_555 1_555
H4_3 C7_3 1_555 1_555
C8_3 C5_3 1_555 1_555
H5_3 C8_3 1_555 1_555
C9_3 C8_3 1_555 1_555
H8_3 C13_3 1_555 1_555
C14_3 C9_3 1_555 1_555
H9_3 C14_3 1_555 1_555
C16_3 C8_3 1_555 1_555
C17_3 C16_3 1_555 1_555
H10_3 C17_3 1_555 1_555
C18_3 C17_3 1_555 1_555
H11_3 C18_3 1_555 1_555
C19_3 C18_3 1_555 1_555
C20_3 C19_3 1_555 1_555
H12_3 C20_3 1_555 1_555
C21_3 C16_3 1_555 1_555
H13_3 C21_3 1_555 1_555
C22_3 C19_3 1_555 1_555
Mn5_3 O1_3 1_555 1_555
Mn11_2 O2_3 1_555 1_555
O1_3 C1_3 1_555 1_555
O2_3 C1_3 1_555 1_555
O5 C22_3 1_555 1_555
O6 C22_3 1_555 1_555
O7_3 Mn11_2 1_555 1_555
H14_3 O7_3 1_555 1_555
H15_3 O7_3 1_555 1_555
C23_3 C24_3 1_555 1_555
C24_3 C25_3 1_555 1_555
C25_3 H16_3 1_555 1_555
C26_3 C25_3 1_555 1_555
H17_3 C26_3 1_555 1_555
C27_3 C26_3 1_555 1_555
C28_3 C27_3 1_555 1_555
H18_3 C28_3 1_555 1_555
C29_3 C24_3 1_555 1_555
H19_3 C29_3 1_555 1_555
C30_3 C27_3 1_555 1_555
H20_3 C30_3 1_555 1_555
C31_3 C30_3 1_555 1_555
C32_3 C31_3 1_555 1_555
H21_3 C32_3 1_555 1_555
C33_3 C32_3 1_555 1_555
H22_3 C33_3 1_555 1_555
C34_3 C33_3 1_555 1_555
C35_3 C34_3 1_555 1_555
H23_3 C35_3 1_555 1_555
C36_3 C31_3 1_555 1_555
H24_3 C36_3 1_555 1_555
C37_3 C34_3 1_555 1_555
C38_3 C30_3 1_555 1_555
C39_3 C38_3 1_555 1_555
H25_3 C39_3 1_555 1_555
C40_3 C39_3 1_555 1_555
H26_3 C40_3 1_555 1_555
C41_3 C40_3 1_555 1_555
C42_3 C41_3 1_555 1_555
H27_3 C42_3 1_555 1_555
C43_3 C38_3 1_555 1_555
H28_3 C43_3 1_555 1_555
C44_3 C41_3 1_555 1_555
Mn8_2 O9_3 1_555 1_555
Mn8 O14_2 1_555 1_555
Mn11 O12_2 1_555 1_555
O8_3 Mn5_3 1_555 1_555
O9_3 C23_3 1_555 1_555
O12_2 C37_3 1_555 1_555
O12 Mn11_2 1_555 1_555
O14 Mn8_2 1_555 1_555
O17_2 C37_3 1_555 1_555
O18 C44_3 1_555 1_555
O21 C44_3 1_555 1_555
O24_3 Mn8_2 1_555 1_555
H30_3 O24_3 1_555 1_555
C6_3 C7_3 1_555 1_555
C13_3 C14_3 1_555 1_555
C20_3 C21_3 1_555 1_555
C23_3 O8_3 1_555 1_555
C28_3 C29_3 1_555 1_555
C35_3 C36_3 1_555 1_555
C42_3 C43_3 1_555 1_555
H5_4 C8_4 1_555 1_555
C9_4 C8_4 1_555 1_555
H8_4 C13_4 1_555 1_555
C14_4 C9_4 1_555 1_555
H9_4 C14_4 1_555 1_555
C16_4 C8_4 1_555 1_555
C17_4 C16_4 1_555 1_555
H10_4 C17_4 1_555 1_555
C18_4 C17_4 1_555 1_555
H11_4 C18_4 1_555 1_555
C19_4 C18_4 1_555 1_555
C20_4 C19_4 1_555 1_555
H12_4 C20_4 1_555 1_555
C21_4 C16_4 1_555 1_555
H13_4 C21_4 1_555 1_555
C22_4 C19_4 1_555 1_555
O5_2 C22_4 1_555 1_555
O6_2 C22_4 1_555 1_555
Mn5 O6_2 1_555 1_555
Mn11 O5_2 1_555 1_555
C13_4 C14_4 1_555 1_555
C20_4 C21_4 1_555 1_555
H6_4 C10_4 1_555 1_555
C11_4 C10_4 1_555 1_555
H7_4 C11_4 1_555 1_555
O16 C15_4 1_555 1_555
C1_4 C2_4 1_555 1_555
C2_4 C3_4 1_555 1_555
C3_4 H1_4 1_555 1_555
C4_4 C3_4 1_555 1_555
H2_4 C4_4 1_555 1_555
C5_4 C4_4 1_555 1_555
C6_4 C5_4 1_555 1_555
H3_4 C6_4 1_555 1_555
C7_4 C2_4 1_555 1_555
H4_4 C7_4 1_555 1_555
Mn5 O1_4 1_555 1_555
Mn11 O2_4 1_555 1_555
O1_4 C1_4 1_555 1_555
O2_4 C1_4 1_555 1_555
H30_4 O24_4 1_555 1_555
C6_4 C7_4 1_555 1_555
H20_4 C30_4 1_555 1_555
C31_4 C30_4 1_555 1_555
C35_4 C34_4 1_555 1_555
H23_4 C35_4 1_555 1_555
C36_4 C31_4 1_555 1_555
H24_4 C36_4 1_555 1_555
C38_4 C30_4 1_555 1_555
C39_4 C38_4 1_555 1_555
H25_4 C39_4 1_555 1_555
C40_4 C39_4 1_555 1_555
H26_4 C40_4 1_555 1_555
C41_4 C40_4 1_555 1_555
C42_4 C41_4 1_555 1_555
H27_4 C42_4 1_555 1_555
C43_4 C38_4 1_555 1_555
H28_4 C43_4 1_555 1_555
C44_4 C41_4 1_555 1_555
Mn8 O18_2 1_555 1_555
O18_2 C44_4 1_555 1_555
O21_2 C44_4 1_555 1_555
C35_4 C36_4 1_555 1_555
C42_4 C43_4 1_555 1_555
Mn5_2 O21_2 1_555 1_555
H14_4 O7_4 1_555 1_555
H15_4 O7_4 1_555 1_555
C23_4 C24_4 1_555 1_555
C24_4 C25_4 1_555 1_555
C25_4 H16_4 1_555 1_555
C26_4 C25_4 1_555 1_555
H17_4 C26_4 1_555 1_555
C27_4 C26_4 1_555 1_555
C28_4 C27_4 1_555 1_555
H18_4 C28_4 1_555 1_555
C29_4 C24_4 1_555 1_555
H19_4 C29_4 1_555 1_555
H21_4 C32_4 1_555 1_555
C33_4 C32_4 1_555 1_555
H22_4 C33_4 1_555 1_555
Mn8 O9_4 1_555 1_555
O8_4 Mn5_2 1_555 1_555
O9_4 C23_4 1_555 1_555
O17 C37_4 1_555 1_555
C23_4 O8_4 1_555 1_555
C28_4 C29_4 1_555 1_555

#END
