
###############################################################################
#
# This file contains modified crystal structure data generated from the
# MOF subset of the Cambridge Structural Database (CSD) v543 
# hosted by the Cambridge Crystallographic Data Centre (CCDC).
#
# This work is licensed under the Creative Commons
# Attribution-NonCommercial-ShareAlike 4.0 International License.
# To view a copy of this license, visit
# http://creativecommons.org/licenses/by-nc-sa/4.0/
# or send a letter to
# Creative Commons, PO Box 1866, Mountain View, CA 94042, USA.
#
# CIF created using the CSD Python API on 29 September 2022
# The structure has been converted into the P1 space group
# The structure has a 3D framework
# The original CSD entry DAWCIP is in the orthorhombic crystal system
# The framework has been calculated to contain at least 10.0% void space
# The void calculation uses a probe of radius 1.32A, grid spacing 0.4
#
###############################################################################

data_DAWCIP
_chemical_formula_moiety         '(C352 H240 O116 Zn28)n'
_symmetry_cell_setting           triclinic
_symmetry_space_group_name_H-M   'P 1'
_symmetry_Int_Tables_number      1
_space_group_name_Hall           'P 1'
loop_
_symmetry_equiv_pos_site_id
_symmetry_equiv_pos_as_xyz
1 x,y,z
_cell_length_a                   33.291(7)
_cell_length_b                   24.518(5)
_cell_length_c                   16.748(4)
_cell_angle_alpha                90
_cell_angle_beta                 90
_cell_angle_gamma                90
_cell_volume                     13670.2
loop_
_atom_site_label
_atom_site_type_symbol
_atom_site_fract_x
_atom_site_fract_y
_atom_site_fract_z
C11 C 0.14939(10) 0.03684(10) 0.17263(17)
H7 H 0.1629 0.0603 0.2071
C12 C 0.13208(11) 0.05698(8) 0.10311(19)
C13 C 0.11196(10) 0.02192(11) 0.05159(16)
H8 H 0.1004 0.0354 0.0051
C18 C 0.09478(15) 0.27803(18) 0.2133(2)
C19 C 0.08559(9) 0.30101(13) 0.29264(13)
C20 C 0.05075(8) 0.33156(14) 0.30228(14)
H12 H 0.0333 0.3364 0.2595
C21 C 0.04201(8) 0.35494(13) 0.37587(17)
H13 H 0.0187 0.3754 0.3823
C22 C 0.06809(9) 0.34776(12) 0.43981(13)
C23 C 0.10293(8) 0.31721(13) 0.43018(14)
H14 H 0.1204 0.3124 0.4730
C24 C 0.11168(8) 0.29383(13) 0.35659(17)
H15 H 0.1350 0.2734 0.3501
C25 C 0.05713(15) 0.37782(16) 0.5185(3)
H16 H 0.0279 0.3755 0.5247
C26 C 0.07567(14) 0.35176(17) 0.5910(3)
C27 C 0.11309(17) 0.3680(2) 0.6202(3)
H17 H 0.1277 0.3941 0.5924
C28 C 0.05558(17) 0.31053(18) 0.6305(3)
H18 H 0.0308 0.2985 0.6117
C33 C 0.12311(17) 0.2828(2) 0.8075(3)
C34 C 0.10813(15) 0.30491(18) 0.7292(3)
C35 C 0.12896(18) 0.3461(2) 0.6898(3)
H21 H 0.1533 0.3588 0.7099
C36 C 0.07201(17) 0.2875(2) 0.6969(3)
H22 H 0.0585 0.2589 0.7215
C37 C 0.13401(16) 0.11677(19) 0.0820(3)
C38 C 0.09132(16) 0.60957(19) 0.4993(3)
C39 C 0.08422(15) 0.55042(18) 0.5051(3)
C40 C 0.10920(16) 0.51352(18) 0.4669(3)
H23 H 0.1319 0.5256 0.4397
C41 C 0.09991(17) 0.45798(19) 0.4696(3)
H24 H 0.1160 0.4334 0.4418
C42 C 0.06801(14) 0.43892(19) 0.5116(3)
C43 C 0.04304(16) 0.4758(2) 0.5496(3)
H25 H 0.0206 0.4635 0.5774
C44 C 0.05151(16) 0.53111(19) 0.5462(3)
H26 H 0.0347 0.5556 0.5723
O1 O 0.15369(10) 0.14768(12) 0.1274(2)
O4 O 0.12759(10) 0.62244(13) 0.4812(2)
O5 O 0.06433(9) 0.64137(12) 0.5190(2)
O6 O 0.06864(10) 0.28219(13) 0.15982(19)
O7 O 0.12839(11) 0.25612(13) 0.20189(18)
O10 O 0.10706(10) 0.23930(14) 0.8311(2)
O11 O 0.15029(11) 0.30831(14) 0.8418(2)
O12 O 0.12079(8) 0.25041(11) 0.01159(16)
O13 O 0.11469(11) 0.13261(14) 0.0262(2)
Zn1 Zn 0.150730(15) 0.224650(19) 0.10263(3)
O19 O 0.20568(9) 0.25439(14) 0.1044(2)
O20 O 0.20523(9) 0.31279(13) 0.0029(2)
Zn6 Zn 0.070380(15) 0.71959(2) 0.54382(3)
Zn7 Zn 0.070380(15) 0.28041(2) 0.04382(3)
Zn8 Zn 0.152290(16) 0.69441(2) 0.45673(3)
Zn9 Zn 0.152290(16) 0.30559(2) 0.95673(3)
Zn11 Zn 0.113700(17) 0.19073(2) 0.93186(3)
O16 O 0.12759(10) 0.37756(13) 0.9812(2)
C2 C 0.01627(7) 0.81573(13) 0.06919(18)
C3 C 0.01739(7) 0.84661(14) 0.13876(18)
C4 C 0.05363(8) 0.86789(14) 0.16572(16)
H2 H 0.0544 0.8886 0.2123
C5 C 0.08876(6) 0.85830(13) 0.12311(19)
C6 C 0.08764(7) 0.82742(13) 0.05354(18)
H3 H 0.1111 0.8210 0.0250
C7 C 0.05140(9) 0.80613(13) 0.02658(16)
C8 C 0.12607(12) 0.88594(17) 0.1589(3)
H5 H 0.1253 0.8817 0.2171
C9 C 0.12647(10) 0.94656(8) 0.13912(19)
C10 C 0.14659(10) 0.98163(11) 0.19064(16)
H6 H 0.1582 0.9681 0.2372
C14 C 0.10916(9) 0.96671(10) 0.06960(17)
H9 H 0.0957 0.9432 0.0351
C15 C 0.16477(13) 0.85843(17) 0.1271(3)
C16 C 0.18680(15) 0.8769(2) 0.0611(3)
H10 H 0.1771 0.9061 0.0315
C17 C 0.18079(15) 0.8154(2) 0.1703(4)
H11 H 0.1673 0.8021 0.2150
C29 C 0.27881(14) 0.79150(19) 0.0630(3)
C30 C 0.23923(14) 0.81233(19) 0.0833(3)
C31 C 0.22085(17) 0.8540(2) 0.0401(3)
C32 C 0.21744(16) 0.7916(2) 0.1469(3)
H20 H 0.2272 0.7615 0.1745
O8 O 0.29432(9) 0.75439(14) 0.1044(2)
O9 O 0.29477(9) 0.81279(13) 0.0029(2)
Zn5 Zn 0.349270(15) 0.724650(19) 0.10263(3)
H4 H 0.0506 0.7855 0.9800
H19 H 0.2334 0.8662 0.9938
Zn10 Zn 0.347710(16) 0.80559(2) 0.95673(3)
C1 C 0.97766(15) 0.79348(18) 0.0405(3)
H1 H 0.9939 0.8530 0.1673
O2 O 0.94665(10) 0.81641(13) 0.0687(2)
O14 O 0.81606(11) 0.80980(14) 0.0756(2)
H27 H 0.8055 0.7826 0.0400
H28 H 0.8079 0.8017 0.1292
O15 O 0.88022(11) 0.87684(15) 0.1395(2)
H29 H 0.8540 0.8921 0.1314
H30 H 0.9002 0.9033 0.1253
Zn4 Zn 0.886300(17) 0.80927(2) 0.06814(3)
O21 O 0.89294(10) 0.76070(14) 0.1689(2)
O3 O 0.97793(9) 0.75481(13) 0.9931(2)
Zn2 Zn 0.929620(15) 0.71959(2) 0.95618(3)
O17 O 0.93567(9) 0.64137(12) 0.9810(2)
O18 O 0.93136(10) 0.71781(13) 0.84018(19)
O23 O 0.87921(8) 0.74959(11) 0.98841(16)
O24 O 0.88531(11) 0.86739(14) 0.9738(2)
C25_2 C 0.44287(15) 0.12218(16) 0.0185(3)
H16_2 H 0.4721 0.1245 0.0247
C26_2 C 0.42433(14) 0.14824(17) 0.0910(3)
C27_2 C 0.38691(17) 0.1320(2) 0.1202(3)
H17_2 H 0.3723 0.1059 0.0924
C28_2 C 0.44442(17) 0.18947(18) 0.1305(3)
H18_2 H 0.4692 0.2015 0.1117
C33_2 C 0.37689(17) 0.2172(2) 0.3075(3)
C34_2 C 0.39187(15) 0.19509(18) 0.2292(3)
C35_2 C 0.37104(18) 0.1539(2) 0.1898(3)
H21_2 H 0.3467 0.1412 0.2099
C36_2 C 0.42799(17) 0.2125(2) 0.1969(3)
H22_2 H 0.4415 0.2411 0.2215
C42_2 C 0.43199(14) 0.06108(19) 0.0116(3)
C43_2 C 0.45696(16) 0.0242(2) 0.0496(3)
H25_2 H 0.4794 0.0365 0.0774
O10_2 O 0.39294(10) 0.26070(14) 0.3311(2)
O11_2 O 0.34971(11) 0.19169(14) 0.3418(2)
Zn9_2 Zn 0.347710(16) 0.19441(2) 0.45673(3)
Zn11_2 Zn 0.386300(17) 0.30927(2) 0.43186(3)
C1_2 C 0.52234(15) 0.70652(18) 0.5405(3)
C2_2 C 0.48373(7) 0.68427(13) 0.56919(18)
C3_2 C 0.48261(7) 0.65339(14) 0.63876(18)
H1_2 H 0.5061 0.6470 0.6673
C4_2 C 0.44637(8) 0.63211(14) 0.66572(16)
H2_2 H 0.4456 0.6114 0.7123
C5_2 C 0.41124(6) 0.64170(13) 0.62311(19)
C6_2 C 0.41236(7) 0.67258(13) 0.55354(18)
H3_2 H 0.3889 0.6790 0.5250
C7_2 C 0.44860(9) 0.69387(13) 0.52658(16)
H4_2 H 0.4494 0.7145 0.4800
C8_2 C 0.37393(12) 0.61406(17) 0.6589(3)
H5_2 H 0.3747 0.6183 0.7171
C9_2 C 0.37353(10) 0.55344(8) 0.63912(19)
C10_2 C 0.35341(10) 0.51837(11) 0.69064(16)
H6_2 H 0.3418 0.5319 0.7372
C11_2 C 0.35061(10) 0.46316(10) 0.67263(17)
H7_2 H 0.3371 0.4397 0.7071
C12_2 C 0.36792(11) 0.44302(8) 0.60311(19)
C13_2 C 0.38804(10) 0.47808(11) 0.55159(16)
H8_2 H 0.3996 0.4646 0.5051
C14_2 C 0.39084(9) 0.53329(10) 0.56960(17)
H9_2 H 0.4043 0.5568 0.5351
C15_2 C 0.33523(13) 0.64157(17) 0.6271(3)
C16_2 C 0.31320(15) 0.6231(2) 0.5611(3)
H10_2 H 0.3229 0.5939 0.5315
C17_2 C 0.31921(15) 0.6846(2) 0.6703(4)
H11_2 H 0.3327 0.6979 0.7150
C18_2 C 0.40522(15) 0.22197(18) 0.7133(2)
C19_2 C 0.41441(9) 0.19899(13) 0.79264(13)
C20_2 C 0.44925(8) 0.16844(14) 0.80228(14)
H12_2 H 0.4667 0.1636 0.7595
C21_2 C 0.45799(8) 0.14506(13) 0.87587(17)
H13_2 H 0.4813 0.1246 0.8823
C22_2 C 0.43191(9) 0.15224(12) 0.93981(13)
C23_2 C 0.39707(8) 0.18279(13) 0.93018(14)
H14_2 H 0.3796 0.1876 0.9730
C24_2 C 0.38832(8) 0.20617(13) 0.85659(17)
H15_2 H 0.3650 0.2266 0.8501
C29_2 C 0.22119(14) 0.70850(19) 0.5630(3)
C30_2 C 0.26077(14) 0.68767(19) 0.5833(3)
C31_2 C 0.27915(17) 0.6460(2) 0.5401(3)
H19_2 H 0.2666 0.6338 0.4938
C32_2 C 0.28256(16) 0.7084(2) 0.6469(3)
H20_2 H 0.2728 0.7385 0.6745
C37_2 C 0.36599(16) 0.38323(19) 0.5820(3)
C41_2 C 0.40009(17) 0.04202(19) 0.9696(3)
H24_2 H 0.3840 0.0666 0.9418
O1_2 O 0.34631(10) 0.35232(12) 0.6274(2)
O2_2 O 0.55335(10) 0.68359(13) 0.5687(2)
O3_2 O 0.52207(9) 0.74519(13) 0.4931(2)
O6_2 O 0.43136(10) 0.21781(13) 0.65982(19)
O7_2 O 0.37161(11) 0.24388(13) 0.70189(18)
O8_2 O 0.20568(9) 0.74561(14) 0.6044(2)
O9_2 O 0.20523(9) 0.68721(13) 0.5029(2)
O12_2 O 0.37921(8) 0.24959(11) 0.51159(16)
O13_2 O 0.38531(11) 0.36739(14) 0.5262(2)
O14_2 O 0.68394(11) 0.69020(14) 0.5756(2)
H27_2 H 0.6945 0.7174 0.5400
H28_2 H 0.6921 0.6983 0.6292
O15_2 O 0.61978(11) 0.62316(15) 0.6395(2)
H29_2 H 0.6460 0.6079 0.6314
H30_2 H 0.5998 0.5967 0.6253
Zn1_2 Zn 0.349270(15) 0.275350(19) 0.60263(3)
Zn2_2 Zn 0.570380(15) 0.78041(2) 0.45618(3)
Zn4_2 Zn 0.613700(17) 0.69073(2) 0.56814(3)
O16_2 O 0.37241(10) 0.12244(13) 0.4812(2)
O17_2 O 0.56433(9) 0.85863(12) 0.4810(2)
O18_2 O 0.56864(10) 0.78219(13) 0.34018(19)
O19_2 O 0.29432(9) 0.24561(14) 0.6044(2)
O20_2 O 0.29477(9) 0.18721(13) 0.5029(2)
O21_2 O 0.60706(10) 0.73930(14) 0.6689(2)
O23_2 O 0.62079(8) 0.75041(11) 0.48841(16)
O24_2 O 0.61469(11) 0.63261(14) 0.4738(2)
Zn5_2 Zn 0.150730(15) 0.775350(19) 0.60263(3)
Zn7_2 Zn 0.429620(15) 0.21959(2) 0.54382(3)
C39_2 C 0.41578(15) 0.94958(18) 0.0051(3)
C44_2 C 0.44849(16) 0.96889(19) 0.0462(3)
H26_2 H 0.4653 0.9444 0.0723
O5_2 O 0.43567(9) 0.85863(12) 0.0190(2)
Zn6_2 Zn 0.429620(15) 0.78041(2) 0.04382(3)
C38_2 C 0.40868(16) 0.89043(19) 0.9993(3)
C40_2 C 0.39080(16) 0.98648(18) 0.9669(3)
H23_2 H 0.3681 0.9744 0.9397
O4_2 O 0.37241(10) 0.87756(13) 0.9812(2)
C1_3 C 0.02234(15) 0.79348(18) 0.4595(3)
H1_3 H 0.0061 0.8530 0.3327
O2_3 O 0.05335(10) 0.81641(13) 0.4313(2)
O3_3 O 0.02207(9) 0.75481(13) 0.5069(2)
O14_3 O 0.18394(11) 0.80980(14) 0.4244(2)
H27_3 H 0.1945 0.7826 0.4600
H28_3 H 0.1921 0.8017 0.3708
O15_3 O 0.11978(11) 0.87684(15) 0.3605(2)
H29_3 H 0.1460 0.8921 0.3686
H30_3 H 0.0998 0.9033 0.3747
Zn4_3 Zn 0.113700(17) 0.80927(2) 0.43186(3)
O18_3 O 0.06864(10) 0.71781(13) 0.65982(19)
O21_3 O 0.10706(10) 0.76070(14) 0.3311(2)
O23_3 O 0.12079(8) 0.74959(11) 0.51159(16)
O24_3 O 0.11469(11) 0.86739(14) 0.5262(2)
C11_3 C 0.85061(10) 0.03684(10) 0.32737(17)
H7_3 H 0.8371 0.0603 0.2929
C12_3 C 0.86792(11) 0.05698(8) 0.39689(19)
C13_3 C 0.88804(10) 0.02192(11) 0.44841(16)
H8_3 H 0.8996 0.0354 0.4949
C18_3 C 0.90522(15) 0.27803(18) 0.2867(2)
C19_3 C 0.91441(9) 0.30101(13) 0.20736(13)
C20_3 C 0.94925(8) 0.33156(14) 0.19772(14)
H12_3 H 0.9667 0.3364 0.2405
C21_3 C 0.95799(8) 0.35494(13) 0.12413(17)
H13_3 H 0.9813 0.3754 0.1177
C22_3 C 0.93191(9) 0.34776(12) 0.06019(13)
C23_3 C 0.89707(8) 0.31721(13) 0.06982(14)
H14_3 H 0.8796 0.3124 0.0270
C24_3 C 0.88832(8) 0.29383(13) 0.14341(17)
H15_3 H 0.8650 0.2734 0.1499
C37_3 C 0.86599(16) 0.11677(19) 0.4180(3)
C38_3 C 0.90868(16) 0.60957(19) 0.0007(3)
C40_3 C 0.89080(16) 0.51352(18) 0.0331(3)
H23_3 H 0.8681 0.5256 0.0603
C41_3 C 0.90009(17) 0.45798(19) 0.0304(3)
H24_3 H 0.8840 0.4334 0.0582
O1_3 O 0.84631(10) 0.14768(12) 0.3726(2)
O4_3 O 0.87241(10) 0.62244(13) 0.0188(2)
O6_3 O 0.93136(10) 0.28219(13) 0.34018(19)
O7_3 O 0.87161(11) 0.25612(13) 0.29811(18)
O12_3 O 0.87921(8) 0.25041(11) 0.48841(16)
O13_3 O 0.88531(11) 0.13261(14) 0.4738(2)
Zn1_3 Zn 0.849270(15) 0.224650(19) 0.39737(3)
Zn3 Zn 0.847710(16) 0.30559(2) 0.54327(3)
O16_3 O 0.87241(10) 0.37756(13) 0.5188(2)
O19_3 O 0.79432(9) 0.25439(14) 0.3956(2)
O20_3 O 0.79477(9) 0.31279(13) 0.4971(2)
O22 O 0.84971(11) 0.30831(14) 0.6582(2)
Zn7_3 Zn 0.929620(15) 0.28041(2) 0.45618(3)
Zn8_2 Zn 0.847710(16) 0.69441(2) 0.04327(3)
Zn12 Zn 0.886300(17) 0.19073(2) 0.56814(3)
C25_3 C 0.94287(15) 0.37782(16) 0.9815(3)
H16_3 H 0.9721 0.3755 0.9753
C26_3 C 0.92433(14) 0.35176(17) 0.9090(3)
C27_3 C 0.88691(17) 0.3680(2) 0.8798(3)
H17_3 H 0.8723 0.3941 0.9076
C28_3 C 0.94442(17) 0.31053(18) 0.8695(3)
H18_3 H 0.9692 0.2985 0.8883
C33_3 C 0.87689(17) 0.2828(2) 0.6925(3)
C34_3 C 0.89187(15) 0.30491(18) 0.7708(3)
C35_3 C 0.87104(18) 0.3461(2) 0.8102(3)
H21_3 H 0.8467 0.3588 0.7901
C36_3 C 0.92799(17) 0.2875(2) 0.8031(3)
H22_3 H 0.9415 0.2589 0.7785
C39_3 C 0.91578(15) 0.55042(18) 0.9949(3)
C42_3 C 0.93199(14) 0.43892(19) 0.9884(3)
C43_3 C 0.95696(16) 0.4758(2) 0.9504(3)
H25_3 H 0.9794 0.4635 0.9226
C44_3 C 0.94849(16) 0.53111(19) 0.9538(3)
H26_3 H 0.9653 0.5556 0.9277
O10_3 O 0.89294(10) 0.23930(14) 0.6689(2)
C2_3 C 0.98373(7) 0.81573(13) 0.43081(18)
C3_3 C 0.98261(7) 0.84661(14) 0.36124(18)
C4_3 C 0.94637(8) 0.86789(14) 0.33428(16)
H2_3 H 0.9456 0.8886 0.2877
C5_3 C 0.91124(6) 0.85830(13) 0.37689(19)
C6_3 C 0.91236(7) 0.82742(13) 0.44646(18)
H3_3 H 0.8889 0.8210 0.4750
C7_3 C 0.94860(9) 0.80613(13) 0.47342(16)
H4_3 H 0.9494 0.7855 0.5200
C8_3 C 0.87393(12) 0.88594(17) 0.3411(3)
H5_3 H 0.8747 0.8817 0.2829
C9_3 C 0.87353(10) 0.94656(8) 0.36088(19)
C10_3 C 0.85341(10) 0.98163(11) 0.30936(16)
H6_3 H 0.8418 0.9681 0.2628
C14_3 C 0.89084(9) 0.96671(10) 0.43040(17)
H9_3 H 0.9043 0.9432 0.4649
C15_3 C 0.83523(13) 0.85843(17) 0.3729(3)
C16_3 C 0.81320(15) 0.8769(2) 0.4389(3)
H10_3 H 0.8229 0.9061 0.4685
C17_3 C 0.81921(15) 0.8154(2) 0.3297(4)
H11_3 H 0.8327 0.8021 0.2850
C29_3 C 0.72119(14) 0.79150(19) 0.4370(3)
C30_3 C 0.76077(14) 0.81233(19) 0.4167(3)
C31_3 C 0.77915(17) 0.8540(2) 0.4599(3)
H19_3 H 0.7666 0.8662 0.5062
C32_3 C 0.78256(16) 0.7916(2) 0.3531(3)
H20_3 H 0.7728 0.7615 0.3255
O8_3 O 0.70568(9) 0.75439(14) 0.3956(2)
O9_3 O 0.70523(9) 0.81279(13) 0.4971(2)
Zn5_3 Zn 0.650730(15) 0.724650(19) 0.39737(3)
Zn10_2 Zn 0.652290(16) 0.80559(2) 0.54327(3)
H4_4 H 0.5506 0.7145 0.0200
H19_4 H 0.7334 0.6338 0.0062
O3_4 O 0.47793(9) 0.74519(13) 0.0069(2)
Zn3_2 Zn 0.652290(16) 0.19441(2) 0.04327(3)
O16_4 O 0.62759(10) 0.12244(13) 0.0188(2)
O18_4 O 0.43136(10) 0.78219(13) 0.15982(19)
O22_2 O 0.65029(11) 0.19169(14) 0.1582(2)
O23_4 O 0.37921(8) 0.75041(11) 0.01159(16)
O24_4 O 0.38531(11) 0.63261(14) 0.0262(2)
Zn12_2 Zn 0.613700(17) 0.30927(2) 0.06814(3)
C1_4 C 0.47766(15) 0.70652(18) 0.9595(3)
C2_4 C 0.51627(7) 0.68427(13) 0.93081(18)
C3_4 C 0.51739(7) 0.65339(14) 0.86124(18)
H1_4 H 0.4939 0.6470 0.8327
C4_4 C 0.55363(8) 0.63211(14) 0.83428(16)
H2_4 H 0.5544 0.6114 0.7877
C5_4 C 0.58876(6) 0.64170(13) 0.87689(19)
C6_4 C 0.58764(7) 0.67258(13) 0.94646(18)
H3_4 H 0.6111 0.6790 0.9750
C7_4 C 0.55140(9) 0.69387(13) 0.97342(16)
C8_4 C 0.62607(12) 0.61406(17) 0.8411(3)
H5_4 H 0.6253 0.6183 0.7829
C9_4 C 0.62647(10) 0.55344(8) 0.86088(19)
C10_4 C 0.64659(10) 0.51837(11) 0.80936(16)
H6_4 H 0.6582 0.5319 0.7628
C11_4 C 0.64939(10) 0.46316(10) 0.82737(17)
H7_4 H 0.6629 0.4397 0.7929
C12_4 C 0.63208(11) 0.44302(8) 0.89689(19)
C13_4 C 0.61196(10) 0.47808(11) 0.94841(16)
H8_4 H 0.6004 0.4646 0.9949
C14_4 C 0.60916(9) 0.53329(10) 0.93040(17)
H9_4 H 0.5957 0.5568 0.9649
C15_4 C 0.66477(13) 0.64157(17) 0.8729(3)
C16_4 C 0.68680(15) 0.6231(2) 0.9389(3)
H10_4 H 0.6771 0.5939 0.9685
C17_4 C 0.68079(15) 0.6846(2) 0.8297(4)
H11_4 H 0.6673 0.6979 0.7850
C18_4 C 0.59478(15) 0.22197(18) 0.7867(2)
C19_4 C 0.58559(9) 0.19899(13) 0.70736(13)
C20_4 C 0.55075(8) 0.16844(14) 0.69772(14)
H12_4 H 0.5333 0.1636 0.7405
C21_4 C 0.54201(8) 0.14506(13) 0.62413(17)
H13_4 H 0.5187 0.1246 0.6177
C22_4 C 0.56809(9) 0.15224(12) 0.56019(13)
C23_4 C 0.60293(8) 0.18279(13) 0.56982(14)
H14_4 H 0.6204 0.1876 0.5270
C24_4 C 0.61168(8) 0.20617(13) 0.64341(17)
H15_4 H 0.6350 0.2266 0.6499
C25_4 C 0.55713(15) 0.12218(16) 0.4815(3)
H16_4 H 0.5279 0.1245 0.4753
C26_4 C 0.57567(14) 0.14824(17) 0.4090(3)
C27_4 C 0.61309(17) 0.1320(2) 0.3798(3)
H17_4 H 0.6277 0.1059 0.4076
C28_4 C 0.55558(17) 0.18947(18) 0.3695(3)
H18_4 H 0.5308 0.2015 0.3883
C29_4 C 0.77881(14) 0.70850(19) 0.9370(3)
C30_4 C 0.73923(14) 0.68767(19) 0.9167(3)
C31_4 C 0.72085(17) 0.6460(2) 0.9599(3)
C32_4 C 0.71744(16) 0.7084(2) 0.8531(3)
H20_4 H 0.7272 0.7385 0.8255
C33_4 C 0.62311(17) 0.2172(2) 0.1925(3)
C34_4 C 0.60813(15) 0.19509(18) 0.2708(3)
C35_4 C 0.62896(18) 0.1539(2) 0.3102(3)
H21_4 H 0.6533 0.1412 0.2901
C36_4 C 0.57201(17) 0.2125(2) 0.3031(3)
H22_4 H 0.5585 0.2411 0.2785
C37_4 C 0.63401(16) 0.38323(19) 0.9180(3)
C41_4 C 0.59991(17) 0.04202(19) 0.5304(3)
H24_4 H 0.6160 0.0666 0.5582
C42_4 C 0.56801(14) 0.06108(19) 0.4884(3)
C43_4 C 0.54304(16) 0.0242(2) 0.4504(3)
H25_4 H 0.5206 0.0365 0.4226
O1_4 O 0.65369(10) 0.35232(12) 0.8726(2)
O2_4 O 0.44665(10) 0.68359(13) 0.9313(2)
O6_4 O 0.56864(10) 0.21781(13) 0.84018(19)
O7_4 O 0.62839(11) 0.24388(13) 0.79811(18)
O8_4 O 0.79432(9) 0.74561(14) 0.8956(2)
O9_4 O 0.79477(9) 0.68721(13) 0.9971(2)
O10_4 O 0.60706(10) 0.26070(14) 0.1689(2)
O12_4 O 0.62079(8) 0.24959(11) 0.98841(16)
O13_4 O 0.61469(11) 0.36739(14) 0.9738(2)
O14_4 O 0.31606(11) 0.69020(14) 0.9244(2)
H27_4 H 0.3055 0.7174 0.9600
H28_4 H 0.3079 0.6983 0.8708
O15_4 O 0.38022(11) 0.62316(15) 0.8605(2)
H29_4 H 0.3540 0.6079 0.8686
H30_4 H 0.4002 0.5967 0.8747
Zn1_4 Zn 0.650730(15) 0.275350(19) 0.89737(3)
Zn4_4 Zn 0.386300(17) 0.69073(2) 0.93186(3)
O19_4 O 0.70568(9) 0.24561(14) 0.8956(2)
O20_4 O 0.70523(9) 0.18721(13) 0.9971(2)
O21_4 O 0.39294(10) 0.73930(14) 0.8311(2)
Zn5_4 Zn 0.849270(15) 0.775350(19) 0.89737(3)
Zn7_4 Zn 0.570380(15) 0.21959(2) 0.95618(3)
C38_4 C 0.59132(16) 0.89043(19) 0.5007(3)
C39_4 C 0.58422(15) 0.94958(18) 0.4949(3)
C40_4 C 0.60920(16) 0.98648(18) 0.5331(3)
H23_4 H 0.6319 0.9744 0.5603
C44_4 C 0.55151(16) 0.96889(19) 0.4538(3)
H26_4 H 0.5347 0.9444 0.4277
O4_4 O 0.62759(10) 0.87756(13) 0.5188(2)
O3_5 O 0.02207(9) 0.24519(13) 0.0069(2)
O17_3 O 0.06433(9) 0.35863(12) 0.0190(2)
C1_5 C 0.02234(15) 0.20652(18) 0.9595(3)
H1_5 H 0.0061 0.1470 0.8327
O2_5 O 0.05335(10) 0.18359(13) 0.9313(2)
O14_5 O 0.18394(11) 0.19020(14) 0.9244(2)
H27_5 H 0.1945 0.2174 0.9600
H28_5 H 0.1921 0.1983 0.8708
O15_5 O 0.11978(11) 0.12316(15) 0.8605(2)
H29_5 H 0.1460 0.1079 0.8686
H30_5 H 0.0998 0.0967 0.8747
H4_5 H 0.9494 0.2145 0.0200
H19_5 H 0.7666 0.1338 0.0062
C2_5 C 0.98373(7) 0.18427(13) 0.93081(18)
C3_5 C 0.98261(7) 0.15339(14) 0.86124(18)
C4_5 C 0.94637(8) 0.13211(14) 0.83428(16)
H2_5 H 0.9456 0.1114 0.7877
C5_5 C 0.91124(6) 0.14170(13) 0.87689(19)
C6_5 C 0.91236(7) 0.17258(13) 0.94646(18)
H3_5 H 0.8889 0.1790 0.9750
C7_5 C 0.94860(9) 0.19387(13) 0.97342(16)
C8_5 C 0.87393(12) 0.11406(17) 0.8411(3)
H5_5 H 0.8747 0.1183 0.7829
C9_5 C 0.87353(10) 0.05344(8) 0.86088(19)
C10_5 C 0.85341(10) 0.01837(11) 0.80936(16)
H6_5 H 0.8418 0.0319 0.7628
C14_5 C 0.89084(9) 0.03329(10) 0.93040(17)
H9_5 H 0.9043 0.0568 0.9649
C15_5 C 0.83523(13) 0.14157(17) 0.8729(3)
C16_5 C 0.81320(15) 0.1231(2) 0.9389(3)
H10_5 H 0.8229 0.0939 0.9685
C17_5 C 0.81921(15) 0.1846(2) 0.8297(4)
H11_5 H 0.8327 0.1979 0.7850
C29_5 C 0.72119(14) 0.20850(19) 0.9370(3)
C30_5 C 0.76077(14) 0.18767(19) 0.9167(3)
C31_5 C 0.77915(17) 0.1460(2) 0.9599(3)
C32_5 C 0.78256(16) 0.2084(2) 0.8531(3)
H20_5 H 0.7728 0.2385 0.8255
O22_3 O 0.84971(11) 0.69169(14) 0.1582(2)
C11_5 C 0.85061(10) 0.96316(10) 0.82737(17)
H7_5 H 0.8371 0.9397 0.7929
C12_5 C 0.86792(11) 0.94302(8) 0.89689(19)
C13_5 C 0.88804(10) 0.97808(11) 0.94841(16)
H8_5 H 0.8996 0.9646 0.9949
C18_5 C 0.90522(15) 0.72197(18) 0.7867(2)
C19_5 C 0.91441(9) 0.69899(13) 0.70736(13)
C20_5 C 0.94925(8) 0.66844(14) 0.69772(14)
H12_5 H 0.9667 0.6636 0.7405
C21_5 C 0.95799(8) 0.64506(13) 0.62413(17)
H13_5 H 0.9813 0.6246 0.6177
C22_5 C 0.93191(9) 0.65224(12) 0.56019(13)
C23_5 C 0.89707(8) 0.68279(13) 0.56982(14)
H14_5 H 0.8796 0.6876 0.5270
C24_5 C 0.88832(8) 0.70617(13) 0.64341(17)
H15_5 H 0.8650 0.7266 0.6499
C25_5 C 0.94287(15) 0.62218(16) 0.4815(3)
H16_5 H 0.9721 0.6245 0.4753
C26_5 C 0.92433(14) 0.64824(17) 0.4090(3)
C27_5 C 0.88691(17) 0.6320(2) 0.3798(3)
H17_5 H 0.8723 0.6059 0.4076
C28_5 C 0.94442(17) 0.68947(18) 0.3695(3)
H18_5 H 0.9692 0.7015 0.3883
C33_5 C 0.87689(17) 0.7172(2) 0.1925(3)
C34_5 C 0.89187(15) 0.69509(18) 0.2708(3)
C35_5 C 0.87104(18) 0.6539(2) 0.3102(3)
H21_5 H 0.8467 0.6412 0.2901
C36_5 C 0.92799(17) 0.7125(2) 0.3031(3)
H22_5 H 0.9415 0.7411 0.2785
C37_5 C 0.86599(16) 0.88323(19) 0.9180(3)
C38_5 C 0.90868(16) 0.39043(19) 0.5007(3)
C39_5 C 0.91578(15) 0.44958(18) 0.4949(3)
C40_5 C 0.89080(16) 0.48648(18) 0.5331(3)
H23_5 H 0.8681 0.4744 0.5603
C41_5 C 0.90009(17) 0.54202(19) 0.5304(3)
H24_5 H 0.8840 0.5666 0.5582
C42_5 C 0.93199(14) 0.56108(19) 0.4884(3)
C43_5 C 0.95696(16) 0.5242(2) 0.4504(3)
H25_5 H 0.9794 0.5365 0.4226
C44_5 C 0.94849(16) 0.46889(19) 0.4538(3)
H26_5 H 0.9653 0.4444 0.4277
O1_5 O 0.84631(10) 0.85232(12) 0.8726(2)
O5_3 O 0.93567(9) 0.35863(12) 0.4810(2)
O7_5 O 0.87161(11) 0.74388(13) 0.79811(18)
C38_6 C 0.59132(16) 0.10957(19) 0.0007(3)
C40_6 C 0.60920(16) 0.01352(18) 0.0331(3)
H23_6 H 0.6319 0.0256 0.0603
C39_6 C 0.58422(15) 0.05042(18) 0.9949(3)
C44_6 C 0.55151(16) 0.03111(19) 0.9538(3)
H26_6 H 0.5347 0.0556 0.9277
O5_4 O 0.56433(9) 0.14137(12) 0.9810(2)
C1_6 C 0.47766(15) 0.29348(18) 0.4595(3)
C2_6 C 0.51627(7) 0.31573(13) 0.43081(18)
C3_6 C 0.51739(7) 0.34661(14) 0.36124(18)
H1_6 H 0.4939 0.3530 0.3327
C4_6 C 0.55363(8) 0.36789(14) 0.33428(16)
H2_6 H 0.5544 0.3886 0.2877
C5_6 C 0.58876(6) 0.35830(13) 0.37689(19)
C6_6 C 0.58764(7) 0.32742(13) 0.44646(18)
H3_6 H 0.6111 0.3210 0.4750
C7_6 C 0.55140(9) 0.30613(13) 0.47342(16)
H4_6 H 0.5506 0.2855 0.5200
C8_6 C 0.62607(12) 0.38594(17) 0.3411(3)
H5_6 H 0.6253 0.3817 0.2829
C9_6 C 0.62647(10) 0.44656(8) 0.36088(19)
C10_6 C 0.64659(10) 0.48163(11) 0.30936(16)
H6_6 H 0.6582 0.4681 0.2628
C11_6 C 0.64939(10) 0.53684(10) 0.32737(17)
H7_6 H 0.6629 0.5603 0.2929
C12_6 C 0.63208(11) 0.55698(8) 0.39689(19)
C13_6 C 0.61196(10) 0.52192(11) 0.44841(16)
H8_6 H 0.6004 0.5354 0.4949
C14_6 C 0.60916(9) 0.46671(10) 0.43040(17)
H9_6 H 0.5957 0.4432 0.4649
C15_6 C 0.66477(13) 0.35843(17) 0.3729(3)
C16_6 C 0.68680(15) 0.3769(2) 0.4389(3)
H10_6 H 0.6771 0.4061 0.4685
C17_6 C 0.68079(15) 0.3154(2) 0.3297(4)
H11_6 H 0.6673 0.3021 0.2850
C18_6 C 0.59478(15) 0.77803(18) 0.2867(2)
C19_6 C 0.58559(9) 0.80101(13) 0.20736(13)
C20_6 C 0.55075(8) 0.83156(14) 0.19772(14)
H12_6 H 0.5333 0.8364 0.2405
C21_6 C 0.54201(8) 0.85494(13) 0.12413(17)
H13_6 H 0.5187 0.8754 0.1177
C22_6 C 0.56809(9) 0.84776(12) 0.06019(13)
C23_6 C 0.60293(8) 0.81721(13) 0.06982(14)
H14_6 H 0.6204 0.8124 0.0270
C24_6 C 0.61168(8) 0.79383(13) 0.14341(17)
H15_6 H 0.6350 0.7734 0.1499
C29_6 C 0.77881(14) 0.29150(19) 0.4370(3)
C30_6 C 0.73923(14) 0.31233(19) 0.4167(3)
C31_6 C 0.72085(17) 0.3540(2) 0.4599(3)
H19_6 H 0.7334 0.3662 0.5062
C32_6 C 0.71744(16) 0.2916(2) 0.3531(3)
H20_6 H 0.7272 0.2615 0.3255
C37_6 C 0.63401(16) 0.61677(19) 0.4180(3)
C41_6 C 0.59991(17) 0.95798(19) 0.0304(3)
H24_6 H 0.6160 0.9334 0.0582
O1_6 O 0.65369(10) 0.64768(12) 0.3726(2)
O2_6 O 0.44665(10) 0.31641(13) 0.4313(2)
O3_6 O 0.47793(9) 0.25481(13) 0.5069(2)
O7_6 O 0.62839(11) 0.75612(13) 0.29811(18)
O14_6 O 0.31606(11) 0.30980(14) 0.4244(2)
H27_6 H 0.3055 0.2826 0.4600
H28_6 H 0.3079 0.3017 0.3708
O15_6 O 0.38022(11) 0.37684(15) 0.3605(2)
H29_6 H 0.3540 0.3921 0.3686
H30_6 H 0.4002 0.4033 0.3747
O17_4 O 0.43567(9) 0.14137(12) 0.5190(2)
O22_4 O 0.65029(11) 0.80831(14) 0.6582(2)
C25_6 C 0.55713(15) 0.87782(16) 0.9815(3)
H16_6 H 0.5279 0.8755 0.9753
C26_6 C 0.57567(14) 0.85176(17) 0.9090(3)
C27_6 C 0.61309(17) 0.8680(2) 0.8798(3)
H17_6 H 0.6277 0.8941 0.9076
C28_6 C 0.55558(17) 0.81053(18) 0.8695(3)
H18_6 H 0.5308 0.7985 0.8883
C33_6 C 0.62311(17) 0.7828(2) 0.6925(3)
C34_6 C 0.60813(15) 0.80491(18) 0.7708(3)
C35_6 C 0.62896(18) 0.8461(2) 0.8102(3)
H21_6 H 0.6533 0.8588 0.7901
C36_6 C 0.57201(17) 0.7875(2) 0.8031(3)
H22_6 H 0.5585 0.7589 0.7785
C42_6 C 0.56801(14) 0.93892(19) 0.9884(3)
C43_6 C 0.54304(16) 0.9758(2) 0.9504(3)
H25_6 H 0.5206 0.9635 0.9226
C2_7 C 0.01627(7) 0.18427(13) 0.56919(18)
C3_7 C 0.01739(7) 0.15339(14) 0.63876(18)
C4_7 C 0.05363(8) 0.13211(14) 0.66572(16)
H2_7 H 0.0544 0.1114 0.7123
C5_7 C 0.08876(6) 0.14170(13) 0.62311(19)
C6_7 C 0.08764(7) 0.17258(13) 0.55354(18)
H3_7 H 0.1111 0.1790 0.5250
C7_7 C 0.05140(9) 0.19387(13) 0.52658(16)
H4_7 H 0.0506 0.2145 0.4800
C8_7 C 0.12607(12) 0.11406(17) 0.6589(3)
H5_7 H 0.1253 0.1183 0.7171
C9_7 C 0.12647(10) 0.05344(8) 0.63912(19)
C10_7 C 0.14659(10) 0.01837(11) 0.69064(16)
H6_7 H 0.1582 0.0319 0.7372
C14_7 C 0.10916(9) 0.03329(10) 0.56960(17)
H9_7 H 0.0957 0.0568 0.5351
C15_7 C 0.16477(13) 0.14157(17) 0.6271(3)
C16_7 C 0.18680(15) 0.1231(2) 0.5611(3)
H10_7 H 0.1771 0.0939 0.5315
C17_7 C 0.18079(15) 0.1846(2) 0.6703(4)
H11_7 H 0.1673 0.1979 0.7150
C29_7 C 0.27881(14) 0.20850(19) 0.5630(3)
C30_7 C 0.23923(14) 0.18767(19) 0.5833(3)
C31_7 C 0.22085(17) 0.1460(2) 0.5401(3)
H19_7 H 0.2334 0.1338 0.4938
C32_7 C 0.21744(16) 0.2084(2) 0.6469(3)
H20_7 H 0.2272 0.2385 0.6745
C25_7 C 0.05713(15) 0.62218(16) 0.0185(3)
H16_7 H 0.0279 0.6245 0.0247
C26_7 C 0.07567(14) 0.64824(17) 0.0910(3)
C27_7 C 0.11309(17) 0.6320(2) 0.1202(3)
H17_7 H 0.1277 0.6059 0.0924
C28_7 C 0.05558(17) 0.68947(18) 0.1305(3)
H18_7 H 0.0308 0.7015 0.1117
C33_7 C 0.12311(17) 0.7172(2) 0.3075(3)
C34_7 C 0.10813(15) 0.69509(18) 0.2292(3)
C35_7 C 0.12896(18) 0.6539(2) 0.1898(3)
H21_7 H 0.1533 0.6412 0.2099
C36_7 C 0.07201(17) 0.7125(2) 0.1969(3)
H22_7 H 0.0585 0.7411 0.2215
C39_7 C 0.08422(15) 0.44958(18) 0.0051(3)
C42_7 C 0.06801(14) 0.56108(19) 0.0116(3)
C43_7 C 0.04304(16) 0.5242(2) 0.0496(3)
H25_7 H 0.0206 0.5365 0.0774
C44_7 C 0.05151(16) 0.46889(19) 0.0462(3)
H26_7 H 0.0347 0.4444 0.0723
O11_3 O 0.15029(11) 0.69169(14) 0.3418(2)
C11_7 C 0.14939(10) 0.96316(10) 0.67263(17)
H7_7 H 0.1629 0.9397 0.7071
C12_7 C 0.13208(11) 0.94302(8) 0.60311(19)
C13_7 C 0.11196(10) 0.97808(11) 0.55159(16)
H8_7 H 0.1004 0.9646 0.5051
C18_7 C 0.09478(15) 0.72197(18) 0.7133(2)
C19_7 C 0.08559(9) 0.69899(13) 0.79264(13)
C20_7 C 0.05075(8) 0.66844(14) 0.80228(14)
H12_7 H 0.0333 0.6636 0.7595
C21_7 C 0.04201(8) 0.64506(13) 0.87587(17)
H13_7 H 0.0187 0.6246 0.8823
C22_7 C 0.06809(9) 0.65224(12) 0.93981(13)
C23_7 C 0.10293(8) 0.68279(13) 0.93018(14)
H14_7 H 0.1204 0.6876 0.9730
C24_7 C 0.11168(8) 0.70617(13) 0.85659(17)
H15_7 H 0.1350 0.7266 0.8501
C37_7 C 0.13401(16) 0.88323(19) 0.5820(3)
C38_7 C 0.09132(16) 0.39043(19) 0.9993(3)
C40_7 C 0.10920(16) 0.48648(18) 0.9669(3)
H23_7 H 0.1319 0.4744 0.9397
C41_7 C 0.09991(17) 0.54202(19) 0.9696(3)
H24_7 H 0.1160 0.5666 0.9418
O1_7 O 0.15369(10) 0.85232(12) 0.6274(2)
O7_7 O 0.12839(11) 0.74388(13) 0.70189(18)
C1_7 C 0.97766(15) 0.20652(18) 0.5405(3)
H1_7 H 0.9939 0.1470 0.6673
O2_7 O 0.94665(10) 0.18359(13) 0.5687(2)
O3_7 O 0.97793(9) 0.24519(13) 0.4931(2)
O14_7 O 0.81606(11) 0.19020(14) 0.5756(2)
H27_7 H 0.8055 0.2174 0.5400
H28_7 H 0.8079 0.1983 0.6292
O15_7 O 0.88022(11) 0.12316(15) 0.6395(2)
H29_7 H 0.8540 0.1079 0.6314
H30_7 H 0.9002 0.0967 0.6253
C38_8 C 0.40868(16) 0.10957(19) 0.4993(3)
C39_8 C 0.41578(15) 0.05042(18) 0.5051(3)
C40_8 C 0.39080(16) 0.01352(18) 0.4669(3)
H23_8 H 0.3681 0.0256 0.4397
C44_8 C 0.44849(16) 0.03111(19) 0.5462(3)
H26_8 H 0.4653 0.0556 0.5723
C1_8 C 0.52234(15) 0.29348(18) 0.0405(3)
C2_8 C 0.48373(7) 0.31573(13) 0.06919(18)
C3_8 C 0.48261(7) 0.34661(14) 0.13876(18)
H1_8 H 0.5061 0.3530 0.1673
C4_8 C 0.44637(8) 0.36789(14) 0.16572(16)
H2_8 H 0.4456 0.3886 0.2123
C5_8 C 0.41124(6) 0.35830(13) 0.12311(19)
C6_8 C 0.41236(7) 0.32742(13) 0.05354(18)
H3_8 H 0.3889 0.3210 0.0250
C7_8 C 0.44860(9) 0.30613(13) 0.02658(16)
C8_8 C 0.37393(12) 0.38594(17) 0.1589(3)
H5_8 H 0.3747 0.3817 0.2171
C9_8 C 0.37353(10) 0.44656(8) 0.13912(19)
C10_8 C 0.35341(10) 0.48163(11) 0.19064(16)
H6_8 H 0.3418 0.4681 0.2372
C11_8 C 0.35061(10) 0.53684(10) 0.17263(17)
H7_8 H 0.3371 0.5603 0.2071
C12_8 C 0.36792(11) 0.55698(8) 0.10311(19)
C13_8 C 0.38804(10) 0.52192(11) 0.05159(16)
H8_8 H 0.3996 0.5354 0.0051
C14_8 C 0.39084(9) 0.46671(10) 0.06960(17)
H9_8 H 0.4043 0.4432 0.0351
C15_8 C 0.33523(13) 0.35843(17) 0.1271(3)
C16_8 C 0.31320(15) 0.3769(2) 0.0611(3)
H10_8 H 0.3229 0.4061 0.0315
C17_8 C 0.31921(15) 0.3154(2) 0.1703(4)
H11_8 H 0.3327 0.3021 0.2150
C18_8 C 0.40522(15) 0.77803(18) 0.2133(2)
C19_8 C 0.41441(9) 0.80101(13) 0.29264(13)
C20_8 C 0.44925(8) 0.83156(14) 0.30228(14)
H12_8 H 0.4667 0.8364 0.2595
C21_8 C 0.45799(8) 0.85494(13) 0.37587(17)
H13_8 H 0.4813 0.8754 0.3823
C22_8 C 0.43191(9) 0.84776(12) 0.43981(13)
C23_8 C 0.39707(8) 0.81721(13) 0.43018(14)
H14_8 H 0.3796 0.8124 0.4730
C24_8 C 0.38832(8) 0.79383(13) 0.35659(17)
H15_8 H 0.3650 0.7734 0.3501
C25_8 C 0.44287(15) 0.87782(16) 0.5185(3)
H16_8 H 0.4721 0.8755 0.5247
C26_8 C 0.42433(14) 0.85176(17) 0.5910(3)
C27_8 C 0.38691(17) 0.8680(2) 0.6202(3)
H17_8 H 0.3723 0.8941 0.5924
C28_8 C 0.44442(17) 0.81053(18) 0.6305(3)
H18_8 H 0.4692 0.7985 0.6117
C29_8 C 0.22119(14) 0.29150(19) 0.0630(3)
C30_8 C 0.26077(14) 0.31233(19) 0.0833(3)
C31_8 C 0.27915(17) 0.3540(2) 0.0401(3)
C32_8 C 0.28256(16) 0.2916(2) 0.1469(3)
H20_8 H 0.2728 0.2615 0.1745
C33_8 C 0.37689(17) 0.7828(2) 0.8075(3)
C34_8 C 0.39187(15) 0.80491(18) 0.7292(3)
C35_8 C 0.37104(18) 0.8461(2) 0.6898(3)
H21_8 H 0.3467 0.8588 0.7099
C36_8 C 0.42799(17) 0.7875(2) 0.6969(3)
H22_8 H 0.4415 0.7589 0.7215
C37_8 C 0.36599(16) 0.61677(19) 0.0820(3)
C41_8 C 0.40009(17) 0.95798(19) 0.4696(3)
H24_8 H 0.3840 0.9334 0.4418
C42_8 C 0.43199(14) 0.93892(19) 0.5116(3)
C43_8 C 0.45696(16) 0.9758(2) 0.5496(3)
H25_8 H 0.4794 0.9635 0.5774
O1_8 O 0.34631(10) 0.64768(12) 0.1274(2)
O2_8 O 0.55335(10) 0.31641(13) 0.0687(2)
O7_8 O 0.37161(11) 0.75612(13) 0.20189(18)
O11_4 O 0.34971(11) 0.80831(14) 0.8418(2)
O14_8 O 0.68394(11) 0.30980(14) 0.0756(2)
H27_8 H 0.6945 0.2826 0.0400
H28_8 H 0.6921 0.3017 0.1292
O15_8 O 0.61978(11) 0.37684(15) 0.1395(2)
H29_8 H 0.6460 0.3921 0.1314
H30_8 H 0.5998 0.4033 0.1253
H4_8 H 0.4494 0.2855 0.9800
H19_8 H 0.2666 0.3662 0.9938
O3_8 O 0.52207(9) 0.25481(13) 0.9931(2)
loop_
_geom_bond_atom_site_label_1
_geom_bond_atom_site_label_2
_geom_bond_site_symmetry_1
_geom_bond_site_symmetry_2
H7 C11 1_555 1_555
C12 C11 1_555 1_555
C13 C12 1_555 1_555
H8 C13 1_555 1_555
C18 C19 1_555 1_555
C19 C20 1_555 1_555
C20 H12 1_555 1_555
C21 C20 1_555 1_555
H13 C21 1_555 1_555
C22 C21 1_555 1_555
C23 C22 1_555 1_555
H14 C23 1_555 1_555
C24 C19 1_555 1_555
H15 C24 1_555 1_555
C25 C22 1_555 1_555
H16 C25 1_555 1_555
C26 C25 1_555 1_555
C27 C26 1_555 1_555
H17 C27 1_555 1_555
C28 C26 1_555 1_555
H18 C28 1_555 1_555
C33 C34 1_555 1_555
C34 C35 1_555 1_555
C35 C27 1_555 1_555
H21 C35 1_555 1_555
C36 C28 1_555 1_555
H22 C36 1_555 1_555
C37 C12 1_555 1_555
C38 C39 1_555 1_555
C39 C40 1_555 1_555
C40 H23 1_555 1_555
C41 C40 1_555 1_555
H24 C41 1_555 1_555
C42 C25 1_555 1_555
C43 C42 1_555 1_555
H25 C43 1_555 1_555
C44 C39 1_555 1_555
H26 C44 1_555 1_555
O1 C37 1_555 1_555
O4 C38 1_555 1_555
O5 C38 1_555 1_555
O6 C18 1_555 1_555
O7 C18 1_555 1_555
O10 C33 1_555 1_555
O11 C33 1_555 1_555
O12 Zn1 1_555 1_555
O13 C37 1_555 1_555
Zn1 O1 1_555 1_555
O19 Zn1 1_555 1_555
Zn6 O5 1_555 1_555
Zn7 O6 1_555 1_555
Zn8 O4 1_555 1_555
Zn9 O11 1_555 1_555
Zn11 O10 1_555 1_555
C23 C24 1_555 1_555
C34 C36 1_555 1_555
C41 C42 1_555 1_555
C43 C44 1_555 1_555
O7 Zn1 1_555 1_555
O12 Zn7 1_555 1_555
O16 Zn9 1_555 1_555
C2 C3 1_555 1_555
C4 C3 1_555 1_555
H2 C4 1_555 1_555
C5 C4 1_555 1_555
C6 C5 1_555 1_555
H3 C6 1_555 1_555
C7 C2 1_555 1_555
C8 C5 1_555 1_555
H5 C8 1_555 1_555
C9 C8 1_555 1_555
C10 C9 1_555 1_555
H6 C10 1_555 1_555
C14 C9 1_555 1_555
H9 C14 1_555 1_555
C15 C8 1_555 1_555
C16 C15 1_555 1_555
H10 C16 1_555 1_555
C17 C15 1_555 1_555
H11 C17 1_555 1_555
C29 C30 1_555 1_555
C30 C31 1_555 1_555
C31 C16 1_555 1_555
C32 C17 1_555 1_555
H20 C32 1_555 1_555
O8 C29 1_555 1_555
O9 C29 1_555 1_555
Zn5 O8 1_555 1_555
C6 C7 1_555 1_555
C30 C32 1_555 1_555
O2 C1 1_555 1_555
O14 H27 1_555 1_555
H28 O14 1_555 1_555
O15 H29 1_555 1_555
H30 O15 1_555 1_555
Zn4 O2 1_555 1_555
O21 Zn4 1_555 1_555
O14 Zn4 1_555 1_555
O15 Zn4 1_555 1_555
Zn2 O3 1_555 1_555
O17 Zn2 1_555 1_555
O18 Zn2 1_555 1_555
O23 Zn2 1_555 1_555
H16_2 C25_2 1_555 1_555
C26_2 C25_2 1_555 1_555
C27_2 C26_2 1_555 1_555
H17_2 C27_2 1_555 1_555
C28_2 C26_2 1_555 1_555
H18_2 C28_2 1_555 1_555
C33_2 C34_2 1_555 1_555
C34_2 C35_2 1_555 1_555
C35_2 C27_2 1_555 1_555
H21_2 C35_2 1_555 1_555
C36_2 C28_2 1_555 1_555
H22_2 C36_2 1_555 1_555
C42_2 C25_2 1_555 1_555
C43_2 C42_2 1_555 1_555
H25_2 C43_2 1_555 1_555
O10_2 C33_2 1_555 1_555
O11_2 C33_2 1_555 1_555
Zn9_2 O11_2 1_555 1_555
Zn11_2 O10_2 1_555 1_555
C34_2 C36_2 1_555 1_555
C1_2 C2_2 1_555 1_555
C2_2 C3_2 1_555 1_555
C3_2 H1_2 1_555 1_555
C4_2 C3_2 1_555 1_555
H2_2 C4_2 1_555 1_555
C5_2 C4_2 1_555 1_555
C6_2 C5_2 1_555 1_555
H3_2 C6_2 1_555 1_555
C7_2 C2_2 1_555 1_555
H4_2 C7_2 1_555 1_555
C8_2 C5_2 1_555 1_555
H5_2 C8_2 1_555 1_555
C9_2 C8_2 1_555 1_555
C10_2 C9_2 1_555 1_555
H6_2 C10_2 1_555 1_555
C11_2 C10_2 1_555 1_555
H7_2 C11_2 1_555 1_555
C12_2 C11_2 1_555 1_555
C13_2 C12_2 1_555 1_555
H8_2 C13_2 1_555 1_555
C14_2 C9_2 1_555 1_555
H9_2 C14_2 1_555 1_555
C15_2 C8_2 1_555 1_555
C16_2 C15_2 1_555 1_555
H10_2 C16_2 1_555 1_555
C17_2 C15_2 1_555 1_555
H11_2 C17_2 1_555 1_555
C18_2 C19_2 1_555 1_555
C19_2 C20_2 1_555 1_555
C20_2 H12_2 1_555 1_555
C21_2 C20_2 1_555 1_555
H13_2 C21_2 1_555 1_555
C22_2 C21_2 1_555 1_555
C23_2 C22_2 1_555 1_555
H14_2 C23_2 1_555 1_555
C24_2 C19_2 1_555 1_555
H15_2 C24_2 1_555 1_555
C29_2 C30_2 1_555 1_555
C30_2 C31_2 1_555 1_555
C31_2 C16_2 1_555 1_555
H19_2 C31_2 1_555 1_555
C32_2 C17_2 1_555 1_555
H20_2 C32_2 1_555 1_555
C37_2 C12_2 1_555 1_555
H24_2 C41_2 1_555 1_555
O1_2 C37_2 1_555 1_555
O2_2 C1_2 1_555 1_555
O3_2 C1_2 1_555 1_555
O6_2 C18_2 1_555 1_555
O7_2 C18_2 1_555 1_555
O8_2 C29_2 1_555 1_555
O9_2 C29_2 1_555 1_555
O12_2 Zn1_2 1_555 1_555
O13_2 C37_2 1_555 1_555
O14_2 H27_2 1_555 1_555
H28_2 O14_2 1_555 1_555
O15_2 H29_2 1_555 1_555
H30_2 O15_2 1_555 1_555
Zn1_2 O1_2 1_555 1_555
Zn2_2 O3_2 1_555 1_555
Zn9_2 O12_2 1_555 1_555
Zn4_2 O2_2 1_555 1_555
O16_2 Zn9_2 1_555 1_555
O17_2 Zn2_2 1_555 1_555
O18_2 Zn2_2 1_555 1_555
O19_2 Zn1_2 1_555 1_555
O20_2 Zn9_2 1_555 1_555
O21_2 Zn4_2 1_555 1_555
O23_2 Zn2_2 1_555 1_555
O24_2 Zn4_2 1_555 1_555
Zn5_2 O8_2 1_555 1_555
Zn7_2 O6_2 1_555 1_555
Zn8 O9_2 1_555 1_555
Zn11_2 O12_2 1_555 1_555
C6_2 C7_2 1_555 1_555
C13_2 C14_2 1_555 1_555
C23_2 C24_2 1_555 1_555
C30_2 C32_2 1_555 1_555
O7_2 Zn1_2 1_555 1_555
O12_2 Zn7_2 1_555 1_555
O13_2 Zn11_2 1_555 1_555
O14_2 Zn4_2 1_555 1_555
O15_2 Zn4_2 1_555 1_555
Zn4_2 O23_2 1_555 1_555
C44_2 C39_2 1_555 1_555
H26_2 C44_2 1_555 1_555
Zn6_2 O5_2 1_555 1_555
C40_2 H23_2 1_555 1_555
O4_2 C38_2 1_555 1_555
Zn10 O4_2 1_555 1_555
O2_3 C1_3 1_555 1_555
O3_3 C1_3 1_555 1_555
O14_3 H27_3 1_555 1_555
H28_3 O14_3 1_555 1_555
O15_3 H29_3 1_555 1_555
H30_3 O15_3 1_555 1_555
Zn6 O3_3 1_555 1_555
Zn4_3 O2_3 1_555 1_555
O18_3 Zn6 1_555 1_555
O21_3 Zn4_3 1_555 1_555
O23_3 Zn6 1_555 1_555
O24_3 Zn4_3 1_555 1_555
O14_3 Zn4_3 1_555 1_555
O15_3 Zn4_3 1_555 1_555
Zn4_3 O23_3 1_555 1_555
H7_3 C11_3 1_555 1_555
C12_3 C11_3 1_555 1_555
C13_3 C12_3 1_555 1_555
H8_3 C13_3 1_555 1_555
C18_3 C19_3 1_555 1_555
C19_3 C20_3 1_555 1_555
C20_3 H12_3 1_555 1_555
C21_3 C20_3 1_555 1_555
H13_3 C21_3 1_555 1_555
C22_3 C21_3 1_555 1_555
C23_3 C22_3 1_555 1_555
H14_3 C23_3 1_555 1_555
C24_3 C19_3 1_555 1_555
H15_3 C24_3 1_555 1_555
C37_3 C12_3 1_555 1_555
C40_3 H23_3 1_555 1_555
C41_3 C40_3 1_555 1_555
H24_3 C41_3 1_555 1_555
O1_3 C37_3 1_555 1_555
O4_3 C38_3 1_555 1_555
O6_3 C18_3 1_555 1_555
O7_3 C18_3 1_555 1_555
O12_3 Zn1_3 1_555 1_555
O13_3 C37_3 1_555 1_555
Zn1_3 O1_3 1_555 1_555
Zn3 O12_3 1_555 1_555
O16_3 Zn3 1_555 1_555
O19_3 Zn1_3 1_555 1_555
O20_3 Zn3 1_555 1_555
O22 Zn3 1_555 1_555
Zn7_3 O6_3 1_555 1_555
Zn8_2 O4_3 1_555 1_555
Zn12 O12_3 1_555 1_555
C23_3 C24_3 1_555 1_555
O7_3 Zn1_3 1_555 1_555
O12_3 Zn7_3 1_555 1_555
O13_3 Zn12 1_555 1_555
H16_3 C25_3 1_555 1_555
C26_3 C25_3 1_555 1_555
C27_3 C26_3 1_555 1_555
H17_3 C27_3 1_555 1_555
C28_3 C26_3 1_555 1_555
H18_3 C28_3 1_555 1_555
C33_3 C34_3 1_555 1_555
C34_3 C35_3 1_555 1_555
C35_3 C27_3 1_555 1_555
H21_3 C35_3 1_555 1_555
C36_3 C28_3 1_555 1_555
H22_3 C36_3 1_555 1_555
C42_3 C25_3 1_555 1_555
C43_3 C42_3 1_555 1_555
H25_3 C43_3 1_555 1_555
C44_3 C39_3 1_555 1_555
H26_3 C44_3 1_555 1_555
O10_3 C33_3 1_555 1_555
O22 C33_3 1_555 1_555
Zn12 O10_3 1_555 1_555
C34_3 C36_3 1_555 1_555
C43_3 C44_3 1_555 1_555
C2_3 C3_3 1_555 1_555
C4_3 C3_3 1_555 1_555
H2_3 C4_3 1_555 1_555
C5_3 C4_3 1_555 1_555
C6_3 C5_3 1_555 1_555
H3_3 C6_3 1_555 1_555
C7_3 C2_3 1_555 1_555
H4_3 C7_3 1_555 1_555
C8_3 C5_3 1_555 1_555
H5_3 C8_3 1_555 1_555
C9_3 C8_3 1_555 1_555
C10_3 C9_3 1_555 1_555
H6_3 C10_3 1_555 1_555
C14_3 C9_3 1_555 1_555
H9_3 C14_3 1_555 1_555
C15_3 C8_3 1_555 1_555
C16_3 C15_3 1_555 1_555
H10_3 C16_3 1_555 1_555
C17_3 C15_3 1_555 1_555
H11_3 C17_3 1_555 1_555
C29_3 C30_3 1_555 1_555
C30_3 C31_3 1_555 1_555
C31_3 C16_3 1_555 1_555
H19_3 C31_3 1_555 1_555
C32_3 C17_3 1_555 1_555
H20_3 C32_3 1_555 1_555
O8_3 C29_3 1_555 1_555
O9_3 C29_3 1_555 1_555
Zn5_3 O8_3 1_555 1_555
Zn10_2 O9_3 1_555 1_555
C6_3 C7_3 1_555 1_555
C30_3 C32_3 1_555 1_555
Zn6_2 O3_4 1_555 1_555
O16_4 Zn3_2 1_555 1_555
O18_4 Zn6_2 1_555 1_555
O22_2 Zn3_2 1_555 1_555
O23_4 Zn6_2 1_555 1_555
C1_4 C2_4 1_555 1_555
C2_4 C3_4 1_555 1_555
C3_4 H1_4 1_555 1_555
C4_4 C3_4 1_555 1_555
H2_4 C4_4 1_555 1_555
C5_4 C4_4 1_555 1_555
C6_4 C5_4 1_555 1_555
H3_4 C6_4 1_555 1_555
C7_4 C2_4 1_555 1_555
C8_4 C5_4 1_555 1_555
H5_4 C8_4 1_555 1_555
C9_4 C8_4 1_555 1_555
C10_4 C9_4 1_555 1_555
H6_4 C10_4 1_555 1_555
C11_4 C10_4 1_555 1_555
H7_4 C11_4 1_555 1_555
C12_4 C11_4 1_555 1_555
C13_4 C12_4 1_555 1_555
H8_4 C13_4 1_555 1_555
C14_4 C9_4 1_555 1_555
H9_4 C14_4 1_555 1_555
C15_4 C8_4 1_555 1_555
C16_4 C15_4 1_555 1_555
H10_4 C16_4 1_555 1_555
C17_4 C15_4 1_555 1_555
H11_4 C17_4 1_555 1_555
C18_4 C19_4 1_555 1_555
C19_4 C20_4 1_555 1_555
C20_4 H12_4 1_555 1_555
C21_4 C20_4 1_555 1_555
H13_4 C21_4 1_555 1_555
C22_4 C21_4 1_555 1_555
C23_4 C22_4 1_555 1_555
H14_4 C23_4 1_555 1_555
C24_4 C19_4 1_555 1_555
H15_4 C24_4 1_555 1_555
C25_4 C22_4 1_555 1_555
H16_4 C25_4 1_555 1_555
C26_4 C25_4 1_555 1_555
C27_4 C26_4 1_555 1_555
H17_4 C27_4 1_555 1_555
C28_4 C26_4 1_555 1_555
H18_4 C28_4 1_555 1_555
C29_4 C30_4 1_555 1_555
C30_4 C31_4 1_555 1_555
C31_4 C16_4 1_555 1_555
C32_4 C17_4 1_555 1_555
H20_4 C32_4 1_555 1_555
C33_4 C34_4 1_555 1_555
C34_4 C35_4 1_555 1_555
C35_4 C27_4 1_555 1_555
H21_4 C35_4 1_555 1_555
C36_4 C28_4 1_555 1_555
H22_4 C36_4 1_555 1_555
C37_4 C12_4 1_555 1_555
H24_4 C41_4 1_555 1_555
C42_4 C25_4 1_555 1_555
C43_4 C42_4 1_555 1_555
H25_4 C43_4 1_555 1_555
O1_4 C37_4 1_555 1_555
O2_4 C1_4 1_555 1_555
O6_4 C18_4 1_555 1_555
O7_4 C18_4 1_555 1_555
O8_4 C29_4 1_555 1_555
O9_4 C29_4 1_555 1_555
O10_4 C33_4 1_555 1_555
O22_2 C33_4 1_555 1_555
O12_4 Zn1_4 1_555 1_555
O13_4 C37_4 1_555 1_555
O14_4 H27_4 1_555 1_555
H28_4 O14_4 1_555 1_555
O15_4 H29_4 1_555 1_555
H30_4 O15_4 1_555 1_555
Zn1_4 O1_4 1_555 1_555
Zn4_4 O2_4 1_555 1_555
O19_4 Zn1_4 1_555 1_555
O21_4 Zn4_4 1_555 1_555
Zn5_4 O8_4 1_555 1_555
Zn7_4 O6_4 1_555 1_555
Zn12_2 O10_4 1_555 1_555
C6_4 C7_4 1_555 1_555
C13_4 C14_4 1_555 1_555
C23_4 C24_4 1_555 1_555
C30_4 C32_4 1_555 1_555
C34_4 C36_4 1_555 1_555
C41_4 C42_4 1_555 1_555
O7_4 Zn1_4 1_555 1_555
O12_4 Zn7_4 1_555 1_555
O14_4 Zn4_4 1_555 1_555
O15_4 Zn4_4 1_555 1_555
C38_4 C39_4 1_555 1_555
C39_4 C40_4 1_555 1_555
C40_4 H23_4 1_555 1_555
C44_4 C39_4 1_555 1_555
H26_4 C44_4 1_555 1_555
O4_4 C38_4 1_555 1_555
O17_2 C38_4 1_555 1_555
Zn10_2 O4_4 1_555 1_555
Zn7 O3_5 1_555 1_555
O17_3 Zn7 1_555 1_555
O2_5 C1_5 1_555 1_555
O14_5 H27_5 1_555 1_555
H28_5 O14_5 1_555 1_555
O15_5 H29_5 1_555 1_555
H30_5 O15_5 1_555 1_555
Zn11 O2_5 1_555 1_555
O14_5 Zn11 1_555 1_555
O15_5 Zn11 1_555 1_555
C2_5 C3_5 1_555 1_555
C4_5 C3_5 1_555 1_555
H2_5 C4_5 1_555 1_555
C5_5 C4_5 1_555 1_555
C6_5 C5_5 1_555 1_555
H3_5 C6_5 1_555 1_555
C7_5 C2_5 1_555 1_555
C8_5 C5_5 1_555 1_555
H5_5 C8_5 1_555 1_555
C9_5 C8_5 1_555 1_555
C10_5 C9_5 1_555 1_555
H6_5 C10_5 1_555 1_555
C14_5 C9_5 1_555 1_555
H9_5 C14_5 1_555 1_555
C15_5 C8_5 1_555 1_555
C16_5 C15_5 1_555 1_555
H10_5 C16_5 1_555 1_555
C17_5 C15_5 1_555 1_555
H11_5 C17_5 1_555 1_555
C29_5 C30_5 1_555 1_555
C30_5 C31_5 1_555 1_555
C31_5 C16_5 1_555 1_555
C32_5 C17_5 1_555 1_555
H20_5 C32_5 1_555 1_555
O19_4 C29_5 1_555 1_555
O20_4 C29_5 1_555 1_555
C6_5 C7_5 1_555 1_555
C30_5 C32_5 1_555 1_555
O22_3 Zn8_2 1_555 1_555
H7_5 C11_5 1_555 1_555
C12_5 C11_5 1_555 1_555
C13_5 C12_5 1_555 1_555
H8_5 C13_5 1_555 1_555
C18_5 C19_5 1_555 1_555
C19_5 C20_5 1_555 1_555
C20_5 H12_5 1_555 1_555
C21_5 C20_5 1_555 1_555
H13_5 C21_5 1_555 1_555
C22_5 C21_5 1_555 1_555
C23_5 C22_5 1_555 1_555
H14_5 C23_5 1_555 1_555
C24_5 C19_5 1_555 1_555
H15_5 C24_5 1_555 1_555
C25_5 C22_5 1_555 1_555
H16_5 C25_5 1_555 1_555
C26_5 C25_5 1_555 1_555
C27_5 C26_5 1_555 1_555
H17_5 C27_5 1_555 1_555
C28_5 C26_5 1_555 1_555
H18_5 C28_5 1_555 1_555
C33_5 C34_5 1_555 1_555
C34_5 C35_5 1_555 1_555
C35_5 C27_5 1_555 1_555
H21_5 C35_5 1_555 1_555
C36_5 C28_5 1_555 1_555
H22_5 C36_5 1_555 1_555
C37_5 C12_5 1_555 1_555
C38_5 C39_5 1_555 1_555
C39_5 C40_5 1_555 1_555
C40_5 H23_5 1_555 1_555
C41_5 C40_5 1_555 1_555
H24_5 C41_5 1_555 1_555
C42_5 C25_5 1_555 1_555
C43_5 C42_5 1_555 1_555
H25_5 C43_5 1_555 1_555
C44_5 C39_5 1_555 1_555
H26_5 C44_5 1_555 1_555
O1_5 C37_5 1_555 1_555
O16_3 C38_5 1_555 1_555
O5_3 C38_5 1_555 1_555
O18 C18_5 1_555 1_555
O7_5 C18_5 1_555 1_555
O21 C33_5 1_555 1_555
O22_3 C33_5 1_555 1_555
O23 Zn5_4 1_555 1_555
O24 C37_5 1_555 1_555
Zn5_4 O1_5 1_555 1_555
Zn7_3 O5_3 1_555 1_555
C23_5 C24_5 1_555 1_555
C34_5 C36_5 1_555 1_555
C41_5 C42_5 1_555 1_555
C43_5 C44_5 1_555 1_555
O7_5 Zn5_4 1_555 1_555
C40_6 H23_6 1_555 1_555
O16_4 C38_6 1_555 1_555
C44_6 C39_6 1_555 1_555
H26_6 C44_6 1_555 1_555
Zn7_4 O5_4 1_555 1_555
C1_6 C2_6 1_555 1_555
C2_6 C3_6 1_555 1_555
C3_6 H1_6 1_555 1_555
C4_6 C3_6 1_555 1_555
H2_6 C4_6 1_555 1_555
C5_6 C4_6 1_555 1_555
C6_6 C5_6 1_555 1_555
H3_6 C6_6 1_555 1_555
C7_6 C2_6 1_555 1_555
H4_6 C7_6 1_555 1_555
C8_6 C5_6 1_555 1_555
H5_6 C8_6 1_555 1_555
C9_6 C8_6 1_555 1_555
C10_6 C9_6 1_555 1_555
H6_6 C10_6 1_555 1_555
C11_6 C10_6 1_555 1_555
H7_6 C11_6 1_555 1_555
C12_6 C11_6 1_555 1_555
C13_6 C12_6 1_555 1_555
H8_6 C13_6 1_555 1_555
C14_6 C9_6 1_555 1_555
H9_6 C14_6 1_555 1_555
C15_6 C8_6 1_555 1_555
C16_6 C15_6 1_555 1_555
H10_6 C16_6 1_555 1_555
C17_6 C15_6 1_555 1_555
H11_6 C17_6 1_555 1_555
C18_6 C19_6 1_555 1_555
C19_6 C20_6 1_555 1_555
C20_6 H12_6 1_555 1_555
C21_6 C20_6 1_555 1_555
H13_6 C21_6 1_555 1_555
C22_6 C21_6 1_555 1_555
C23_6 C22_6 1_555 1_555
H14_6 C23_6 1_555 1_555
C24_6 C19_6 1_555 1_555
H15_6 C24_6 1_555 1_555
C29_6 C30_6 1_555 1_555
C30_6 C31_6 1_555 1_555
C31_6 C16_6 1_555 1_555
H19_6 C31_6 1_555 1_555
C32_6 C17_6 1_555 1_555
H20_6 C32_6 1_555 1_555
C37_6 C12_6 1_555 1_555
H24_6 C41_6 1_555 1_555
O1_6 C37_6 1_555 1_555
O2_6 C1_6 1_555 1_555
O3_6 C1_6 1_555 1_555
O18_2 C18_6 1_555 1_555
O7_6 C18_6 1_555 1_555
O19_3 C29_6 1_555 1_555
O20_3 C29_6 1_555 1_555
O23_2 Zn5_3 1_555 1_555
O24_2 C37_6 1_555 1_555
O14_6 H27_6 1_555 1_555
H28_6 O14_6 1_555 1_555
O15_6 H29_6 1_555 1_555
H30_6 O15_6 1_555 1_555
Zn5_3 O1_6 1_555 1_555
Zn7_2 O3_6 1_555 1_555
Zn10_2 O23_2 1_555 1_555
Zn11_2 O2_6 1_555 1_555
O17_4 Zn7_2 1_555 1_555
O22_4 Zn10_2 1_555 1_555
C6_6 C7_6 1_555 1_555
C13_6 C14_6 1_555 1_555
C23_6 C24_6 1_555 1_555
C30_6 C32_6 1_555 1_555
O7_6 Zn5_3 1_555 1_555
O14_6 Zn11_2 1_555 1_555
O15_6 Zn11_2 1_555 1_555
H16_6 C25_6 1_555 1_555
C26_6 C25_6 1_555 1_555
C27_6 C26_6 1_555 1_555
H17_6 C27_6 1_555 1_555
C28_6 C26_6 1_555 1_555
H18_6 C28_6 1_555 1_555
C33_6 C34_6 1_555 1_555
C34_6 C35_6 1_555 1_555
C35_6 C27_6 1_555 1_555
H21_6 C35_6 1_555 1_555
C36_6 C28_6 1_555 1_555
H22_6 C36_6 1_555 1_555
C42_6 C25_6 1_555 1_555
C43_6 C42_6 1_555 1_555
H25_6 C43_6 1_555 1_555
O21_2 C33_6 1_555 1_555
O22_4 C33_6 1_555 1_555
C34_6 C36_6 1_555 1_555
C2_7 C3_7 1_555 1_555
C4_7 C3_7 1_555 1_555
H2_7 C4_7 1_555 1_555
C5_7 C4_7 1_555 1_555
C6_7 C5_7 1_555 1_555
H3_7 C6_7 1_555 1_555
C7_7 C2_7 1_555 1_555
H4_7 C7_7 1_555 1_555
C8_7 C5_7 1_555 1_555
H5_7 C8_7 1_555 1_555
C9_7 C8_7 1_555 1_555
C10_7 C9_7 1_555 1_555
H6_7 C10_7 1_555 1_555
C14_7 C9_7 1_555 1_555
H9_7 C14_7 1_555 1_555
C15_7 C8_7 1_555 1_555
C16_7 C15_7 1_555 1_555
H10_7 C16_7 1_555 1_555
C17_7 C15_7 1_555 1_555
H11_7 C17_7 1_555 1_555
C29_7 C30_7 1_555 1_555
C30_7 C31_7 1_555 1_555
C31_7 C16_7 1_555 1_555
H19_7 C31_7 1_555 1_555
C32_7 C17_7 1_555 1_555
H20_7 C32_7 1_555 1_555
O19_2 C29_7 1_555 1_555
O20_2 C29_7 1_555 1_555
C6_7 C7_7 1_555 1_555
C30_7 C32_7 1_555 1_555
H16_7 C25_7 1_555 1_555
C26_7 C25_7 1_555 1_555
C27_7 C26_7 1_555 1_555
H17_7 C27_7 1_555 1_555
C28_7 C26_7 1_555 1_555
H18_7 C28_7 1_555 1_555
C33_7 C34_7 1_555 1_555
C34_7 C35_7 1_555 1_555
C35_7 C27_7 1_555 1_555
H21_7 C35_7 1_555 1_555
C36_7 C28_7 1_555 1_555
H22_7 C36_7 1_555 1_555
C42_7 C25_7 1_555 1_555
C43_7 C42_7 1_555 1_555
H25_7 C43_7 1_555 1_555
C44_7 C39_7 1_555 1_555
H26_7 C44_7 1_555 1_555
O21_3 C33_7 1_555 1_555
O11_3 C33_7 1_555 1_555
Zn8 O11_3 1_555 1_555
C34_7 C36_7 1_555 1_555
C43_7 C44_7 1_555 1_555
H7_7 C11_7 1_555 1_555
C12_7 C11_7 1_555 1_555
C13_7 C12_7 1_555 1_555
H8_7 C13_7 1_555 1_555
C18_7 C19_7 1_555 1_555
C19_7 C20_7 1_555 1_555
C20_7 H12_7 1_555 1_555
C21_7 C20_7 1_555 1_555
H13_7 C21_7 1_555 1_555
C22_7 C21_7 1_555 1_555
C23_7 C22_7 1_555 1_555
H14_7 C23_7 1_555 1_555
C24_7 C19_7 1_555 1_555
H15_7 C24_7 1_555 1_555
C37_7 C12_7 1_555 1_555
C40_7 H23_7 1_555 1_555
C41_7 C40_7 1_555 1_555
H24_7 C41_7 1_555 1_555
O1_7 C37_7 1_555 1_555
O16 C38_7 1_555 1_555
O18_3 C18_7 1_555 1_555
O7_7 C18_7 1_555 1_555
O23_3 Zn5_2 1_555 1_555
O24_3 C37_7 1_555 1_555
Zn5_2 O1_7 1_555 1_555
Zn8 O23_3 1_555 1_555
C23_7 C24_7 1_555 1_555
O7_7 Zn5_2 1_555 1_555
O2_7 C1_7 1_555 1_555
O3_7 C1_7 1_555 1_555
O14_7 H27_7 1_555 1_555
H28_7 O14_7 1_555 1_555
O15_7 H29_7 1_555 1_555
H30_7 O15_7 1_555 1_555
Zn7_3 O3_7 1_555 1_555
Zn12 O2_7 1_555 1_555
O14_7 Zn12 1_555 1_555
O15_7 Zn12 1_555 1_555
C38_8 C39_8 1_555 1_555
C39_8 C40_8 1_555 1_555
C40_8 H23_8 1_555 1_555
C44_8 C39_8 1_555 1_555
H26_8 C44_8 1_555 1_555
O16_2 C38_8 1_555 1_555
O17_4 C38_8 1_555 1_555
C1_8 C2_8 1_555 1_555
C2_8 C3_8 1_555 1_555
C3_8 H1_8 1_555 1_555
C4_8 C3_8 1_555 1_555
H2_8 C4_8 1_555 1_555
C5_8 C4_8 1_555 1_555
C6_8 C5_8 1_555 1_555
H3_8 C6_8 1_555 1_555
C7_8 C2_8 1_555 1_555
C8_8 C5_8 1_555 1_555
H5_8 C8_8 1_555 1_555
C9_8 C8_8 1_555 1_555
C10_8 C9_8 1_555 1_555
H6_8 C10_8 1_555 1_555
C11_8 C10_8 1_555 1_555
H7_8 C11_8 1_555 1_555
C12_8 C11_8 1_555 1_555
C13_8 C12_8 1_555 1_555
H8_8 C13_8 1_555 1_555
C14_8 C9_8 1_555 1_555
H9_8 C14_8 1_555 1_555
C15_8 C8_8 1_555 1_555
C16_8 C15_8 1_555 1_555
H10_8 C16_8 1_555 1_555
C17_8 C15_8 1_555 1_555
H11_8 C17_8 1_555 1_555
C18_8 C19_8 1_555 1_555
C19_8 C20_8 1_555 1_555
C20_8 H12_8 1_555 1_555
C21_8 C20_8 1_555 1_555
H13_8 C21_8 1_555 1_555
C22_8 C21_8 1_555 1_555
C23_8 C22_8 1_555 1_555
H14_8 C23_8 1_555 1_555
C24_8 C19_8 1_555 1_555
H15_8 C24_8 1_555 1_555
C25_8 C22_8 1_555 1_555
H16_8 C25_8 1_555 1_555
C26_8 C25_8 1_555 1_555
C27_8 C26_8 1_555 1_555
H17_8 C27_8 1_555 1_555
C28_8 C26_8 1_555 1_555
H18_8 C28_8 1_555 1_555
C29_8 C30_8 1_555 1_555
C30_8 C31_8 1_555 1_555
C31_8 C16_8 1_555 1_555
C32_8 C17_8 1_555 1_555
H20_8 C32_8 1_555 1_555
C33_8 C34_8 1_555 1_555
C34_8 C35_8 1_555 1_555
C35_8 C27_8 1_555 1_555
H21_8 C35_8 1_555 1_555
C36_8 C28_8 1_555 1_555
H22_8 C36_8 1_555 1_555
C37_8 C12_8 1_555 1_555
H24_8 C41_8 1_555 1_555
C42_8 C25_8 1_555 1_555
C43_8 C42_8 1_555 1_555
H25_8 C43_8 1_555 1_555
O1_8 C37_8 1_555 1_555
O2_8 C1_8 1_555 1_555
O18_4 C18_8 1_555 1_555
O7_8 C18_8 1_555 1_555
O19 C29_8 1_555 1_555
O20 C29_8 1_555 1_555
O21_4 C33_8 1_555 1_555
O11_4 C33_8 1_555 1_555
O23_4 Zn5 1_555 1_555
O24_4 C37_8 1_555 1_555
O14_8 H27_8 1_555 1_555
H28_8 O14_8 1_555 1_555
O15_8 H29_8 1_555 1_555
H30_8 O15_8 1_555 1_555
Zn5 O1_8 1_555 1_555
Zn12_2 O2_8 1_555 1_555
Zn10 O11_4 1_555 1_555
C6_8 C7_8 1_555 1_555
C13_8 C14_8 1_555 1_555
C23_8 C24_8 1_555 1_555
C30_8 C32_8 1_555 1_555
C34_8 C36_8 1_555 1_555
C41_8 C42_8 1_555 1_555
O7_8 Zn5 1_555 1_555
O14_8 Zn12_2 1_555 1_555
O15_8 Zn12_2 1_555 1_555
Zn7_4 O3_8 1_555 1_555

#END
