
###############################################################################
#
# This file contains modified crystal structure data generated from the
# MOF subset of the Cambridge Structural Database (CSD) v543 
# hosted by the Cambridge Crystallographic Data Centre (CCDC).
#
# This work is licensed under the Creative Commons
# Attribution-NonCommercial-ShareAlike 4.0 International License.
# To view a copy of this license, visit
# http://creativecommons.org/licenses/by-nc-sa/4.0/
# or send a letter to
# Creative Commons, PO Box 1866, Mountain View, CA 94042, USA.
#
# CIF created using the CSD Python API on 29 September 2022
# The structure has been converted into the P1 space group
# The structure has a 3D framework
# The original CSD entry DAWCAH is in the orthorhombic crystal system
# The original CSD entry DAWCAH is in a Sohncke space group
# The framework has been calculated to contain at least 10.0% void space
# The void calculation uses a probe of radius 1.32A, grid spacing 0.4
#
###############################################################################

data_DAWCAH
_chemical_formula_moiety         '(C40 H32 N4 Ni4 O18)n'
_symmetry_cell_setting           triclinic
_symmetry_space_group_name_H-M   'P 1'
_symmetry_Int_Tables_number      1
_space_group_name_Hall           'P 1'
loop_
_symmetry_equiv_pos_site_id
_symmetry_equiv_pos_as_xyz
1 x,y,z
_cell_length_a                   26.9967(9)
_cell_length_b                   6.6856(2)
_cell_length_c                   7.6377(3)
_cell_angle_alpha                90
_cell_angle_beta                 90
_cell_angle_gamma                90
_cell_volume                     1378.52
loop_
_atom_site_label
_atom_site_type_symbol
_atom_site_fract_x
_atom_site_fract_y
_atom_site_fract_z
H3 H 0.6135 0.1116 0.1963
C8 C 0.5233(4) 0.0319(16) 0.2869(17)
H6 H 0.5283 0.1695 0.2881
Ni2 Ni 0.28242(3) 0.49965(17) 0.25396(13)
Ni6 Ni 0.78242(3) 0.00035(17) 0.74604(13)
O6 O 0.2094(2) 0.6176(8) 0.2807(8)
O7 O 0.2487(2) 0.2911(10) 0.0957(8)
O8 O 0.1880(2) 0.2158(10) 0.5800(8)
O9 O 0.3120(2) 0.7158(10) 0.4200(8)
O11 O 0.2576(2) 0.3494(10) 0.4741(8)
O13 O 0.3128(2) 0.6508(11) 0.0517(8)
N2 N 0.3464(2) 0.3295(11) 0.2669(10)
C11 C 0.4322(4) 0.0957(16) 0.2852(16)
C12 C 0.4323(4) 0.2951(18) 0.340(2)
H9 H 0.4613 0.3539 0.3810
C13 C 0.1809(3) 0.4547(12) 0.3459(12)
H10 H 0.1514 0.5076 0.4049
C14 C 0.3885(3) 0.0222(14) 0.2288(13)
C15 C 0.3898(4) 0.4017(17) 0.3321(19)
H12 H 0.3902 0.5323 0.3739
C16 C 0.3469(4) 0.1392(14) 0.2181(11)
H13 H 0.3179 0.0827 0.1748
C17 C 0.2039(3) 0.2526(14) 0.0733(12)
C19 C 0.1649(3) 0.3283(15) 0.1968(11)
H15 H 0.1411 0.4042 0.1289
H16 H 0.1476 0.2132 0.2442
C20 C 0.2112(3) 0.3268(12) 0.4792(10)
O12 O 0.1872(2) 0.1508(11) 0.9483(8)
Ni1 Ni 0.71758(3) 0.50035(17) 0.25396(13)
O1 O 0.7906(2) 0.3824(8) 0.2807(8)
O2 O 0.7513(2) 0.7089(10) 0.0957(8)
O3 O 0.8120(2) 0.7842(10) 0.5800(8)
O4 O 0.7424(2) 0.6506(10) 0.4741(8)
N1 N 0.6536(2) 0.6705(11) 0.2669(10)
C1 C 0.5678(4) 0.9043(16) 0.2852(16)
C2 C 0.5677(4) 0.7049(18) 0.340(2)
H1 H 0.5387 0.6461 0.3810
C3 C 0.8191(3) 0.5453(12) 0.3459(12)
H2 H 0.8486 0.4924 0.4049
C4 C 0.6115(3) 0.9778(14) 0.2288(13)
C5 C 0.6102(4) 0.5983(17) 0.3321(19)
H4 H 0.6098 0.4677 0.3739
C6 C 0.6531(4) 0.8608(14) 0.2181(11)
H5 H 0.6821 0.9173 0.1748
C7 C 0.7961(3) 0.7474(14) 0.0733(12)
C9 C 0.8351(3) 0.6717(15) 0.1968(11)
H7 H 0.8589 0.5958 0.1289
H8 H 0.8524 0.7868 0.2442
C10 C 0.7888(3) 0.6732(12) 0.4792(10)
Ni4 Ni 0.21758(3) 0.99965(17) 0.74604(13)
O10 O 0.6880(2) 0.2842(10) 0.4200(8)
O14 O 0.6872(2) 0.3492(11) 0.0517(8)
H11 H 0.3865 0.8884 0.1963
C18 C 0.4767(4) 0.9681(16) 0.2869(17)
H14 H 0.4717 0.8305 0.2881
O5 O 0.8128(2) 0.8492(11) 0.9483(8)
O1_2 O 0.2906(2) 0.1176(8) 0.7193(8)
H2_2 H 0.3486 0.0076 0.5951
H4_2 H 0.1098 0.0323 0.6261
O2_2 O 0.2513(2) 0.7911(10) 0.9043(8)
O4_2 O 0.2424(2) 0.8494(10) 0.5259(8)
N1_2 N 0.1536(2) 0.8295(11) 0.7331(10)
C1_2 C 0.0678(4) 0.5957(16) 0.7148(16)
C2_2 C 0.0677(4) 0.7951(18) 0.660(2)
H1_2 H 0.0387 0.8539 0.6190
C3_2 C 0.3191(3) 0.9547(12) 0.6541(12)
C4_2 C 0.1115(3) 0.5222(14) 0.7712(13)
H3_2 H 0.1135 0.3884 0.8037
C5_2 C 0.1102(4) 0.9017(17) 0.6679(19)
C6_2 C 0.1531(4) 0.6392(14) 0.7819(11)
H5_2 H 0.1821 0.5827 0.8252
C7_2 C 0.2961(3) 0.7526(14) 0.9267(12)
C8_2 C 0.0233(4) 0.4681(16) 0.7131(17)
H6_2 H 0.0283 0.3305 0.7119
C9_2 C 0.3351(3) 0.8283(15) 0.8032(11)
H7_2 H 0.3589 0.9042 0.8711
H8_2 H 0.3524 0.7132 0.7558
C10_2 C 0.2888(3) 0.8268(12) 0.5208(10)
O7_2 O 0.7487(2) 0.2089(10) 0.9043(8)
O11_2 O 0.7576(2) 0.1506(10) 0.5259(8)
N2_2 N 0.8464(2) 0.1705(11) 0.7331(10)
C11_2 C 0.9322(4) 0.4043(16) 0.7148(16)
C12_2 C 0.9323(4) 0.2049(18) 0.660(2)
H9_2 H 0.9613 0.1461 0.6190
C13_2 C 0.6809(3) 0.0453(12) 0.6541(12)
C14_2 C 0.8885(3) 0.4778(14) 0.7712(13)
H11_2 H 0.8865 0.6116 0.8037
C15_2 C 0.8898(4) 0.0983(17) 0.6679(19)
C16_2 C 0.8469(4) 0.3608(14) 0.7819(11)
H13_2 H 0.8179 0.4173 0.8252
C17_2 C 0.7039(3) 0.2474(14) 0.9267(12)
C18_2 C 0.9767(4) 0.5319(16) 0.7131(17)
H14_2 H 0.9717 0.6695 0.7119
C19_2 C 0.6649(3) 0.1717(15) 0.8032(11)
H15_2 H 0.6411 0.0958 0.8711
H16_2 H 0.6476 0.2868 0.7558
C20_2 C 0.7112(3) 0.1732(12) 0.5208(10)
O6_2 O 0.7094(2) 0.8824(8) 0.7193(8)
H10_2 H 0.6514 0.9924 0.5951
H12_2 H 0.8902 0.9677 0.6261
loop_
_geom_bond_atom_site_label_1
_geom_bond_atom_site_label_2
_geom_bond_site_symmetry_1
_geom_bond_site_symmetry_2
H6 C8 1_555 1_555
Ni2 O6 1_555 1_555
O6 C13 1_555 1_555
O7 Ni2 1_555 1_555
O8 C20 1_555 1_555
O9 Ni2 1_555 1_555
O11 Ni2 1_555 1_555
O13 Ni2 1_555 1_555
N2 Ni2 1_555 1_555
C11 C12 1_555 1_555
C12 H9 1_555 1_555
C13 H10 1_555 1_555
C14 C11 1_555 1_555
C15 N2 1_555 1_555
H12 C15 1_555 1_555
C16 N2 1_555 1_555
H13 C16 1_555 1_555
C17 O7 1_555 1_555
C19 C13 1_555 1_555
H15 C19 1_555 1_555
H16 C19 1_555 1_555
C20 O11 1_555 1_555
C12 C15 1_555 1_555
C13 C20 1_555 1_555
C14 C16 1_555 1_555
C17 C19 1_555 1_555
Ni1 O1 1_555 1_555
O1 C3 1_555 1_555
O2 Ni1 1_555 1_555
O3 C10 1_555 1_555
O4 Ni1 1_555 1_555
N1 Ni1 1_555 1_555
C1 C2 1_555 1_555
C2 H1 1_555 1_555
C3 H2 1_555 1_555
C4 C1 1_555 1_555
C5 N1 1_555 1_555
H4 C5 1_555 1_555
C6 N1 1_555 1_555
H5 C6 1_555 1_555
C7 O2 1_555 1_555
C9 C3 1_555 1_555
H7 C9 1_555 1_555
H8 C9 1_555 1_555
C10 O4 1_555 1_555
O10 Ni1 1_555 1_555
O14 Ni1 1_555 1_555
H14 C18 1_555 1_555
C2 C5 1_555 1_555
C3 C10 1_555 1_555
C4 C6 1_555 1_555
C7 C9 1_555 1_555
O2_2 Ni4 1_555 1_555
O9 C10_2 1_555 1_555
O4_2 Ni4 1_555 1_555
N1_2 Ni4 1_555 1_555
C1_2 C2_2 1_555 1_555
C2_2 H1_2 1_555 1_555
C4_2 C1_2 1_555 1_555
H3_2 C4_2 1_555 1_555
C5_2 N1_2 1_555 1_555
C6_2 N1_2 1_555 1_555
H5_2 C6_2 1_555 1_555
C7_2 O2_2 1_555 1_555
C8_2 C1_2 1_555 1_555
H6_2 C8_2 1_555 1_555
C9_2 C3_2 1_555 1_555
H7_2 C9_2 1_555 1_555
H8_2 C9_2 1_555 1_555
C10_2 O4_2 1_555 1_555
C2_2 C5_2 1_555 1_555
C3_2 C10_2 1_555 1_555
C4_2 C6_2 1_555 1_555
C7_2 C9_2 1_555 1_555
O7_2 Ni6 1_555 1_555
O10 C20_2 1_555 1_555
O11_2 Ni6 1_555 1_555
N2_2 Ni6 1_555 1_555
C11_2 C12_2 1_555 1_555
C12_2 H9_2 1_555 1_555
C14_2 C11_2 1_555 1_555
H11_2 C14_2 1_555 1_555
C15_2 N2_2 1_555 1_555
C16_2 N2_2 1_555 1_555
H13_2 C16_2 1_555 1_555
C17_2 O7_2 1_555 1_555
H14_2 C18_2 1_555 1_555
C19_2 C13_2 1_555 1_555
H15_2 C19_2 1_555 1_555
H16_2 C19_2 1_555 1_555
C20_2 O11_2 1_555 1_555
C11_2 C18_2 1_555 1_555
C12_2 C15_2 1_555 1_555
C13_2 C20_2 1_555 1_555
C14_2 C16_2 1_555 1_555
C17_2 C19_2 1_555 1_555

#END
