
###############################################################################
#
# This file contains modified crystal structure data generated from the
# MOF subset of the Cambridge Structural Database (CSD) v543 
# hosted by the Cambridge Crystallographic Data Centre (CCDC).
#
# This work is licensed under the Creative Commons
# Attribution-NonCommercial-ShareAlike 4.0 International License.
# To view a copy of this license, visit
# http://creativecommons.org/licenses/by-nc-sa/4.0/
# or send a letter to
# Creative Commons, PO Box 1866, Mountain View, CA 94042, USA.
#
# CIF created using the CSD Python API on 29 September 2022
# The structure has been converted into the P1 space group
# The structure has a 3D framework
# The original CSD entry DAWDAI is in the monoclinic crystal system
# The framework has been calculated to contain at least 10.0% void space
# The void calculation uses a probe of radius 1.32A, grid spacing 0.4
#
###############################################################################

data_DAWDAI
_chemical_formula_moiety         '(C108 H68 Cd7 N4 O24)n'
_symmetry_cell_setting           triclinic
_symmetry_space_group_name_H-M   'P 1'
_symmetry_Int_Tables_number      1
_space_group_name_Hall           'P 1'
loop_
_symmetry_equiv_pos_site_id
_symmetry_equiv_pos_as_xyz
1 x,y,z
_cell_length_a                   13.3185(13)
_cell_length_b                   9.4298(9)
_cell_length_c                   25.8321(19)
_cell_angle_alpha                90
_cell_angle_beta                 116.342(4)
_cell_angle_gamma                90
_cell_volume                     2907.39
loop_
_atom_site_label
_atom_site_type_symbol
_atom_site_fract_x
_atom_site_fract_y
_atom_site_fract_z
Cd5 Cd 0.07287(2) 0.34797(3) 0.045410(12)
Cd11 Cd -0.0000 0.0000 0.0000
O15 O 0.1017(3) 0.5844(4) 0.04030(15)
O18 O 0.1021(3) 0.7932(3) 0.00498(14)
C26 C 0.0317(7) 0.7300(8) 0.8144(3)
H16 H 0.0584 0.8104 0.8037
C27 C 0.0252(5) 0.7269(6) 0.8659(3)
H17 H 0.0493 0.8060 0.8897
C50 C 0.0443(6) 0.5041(6) 0.6502(3)
H31 H 0.0717 0.4253 0.6389
C51 C 0.0370(6) 0.4976(7) 0.7021(3)
H32 H 0.0565 0.4145 0.7237
C52 C 0.0016(5) 0.6124(6) 0.7218(2)
Cd7 Cd 0.07287(2) 0.65203(3) 0.545410(12)
Cd11_2 Cd 0.0000 0.0000 1.0000
Cd13 Cd 0.0000 0.0000 0.5000
N2 N 0.0145(4) 0.6151(5) 0.61635(19)
Cd11_3 Cd -0.0000 1.0000 0.0000
Cd11_4 Cd 0.0000 1.0000 1.0000
Cd13_2 Cd 0.0000 1.0000 0.5000
Cd11_5 Cd 1.0000 0.0000 0.0000
O25 O 0.8596(3) 0.6854(4) 0.01675(16)
C4 C 0.3896(4) 0.0340(7) 0.7650(3)
H2 H 0.4572 0.0160 0.7971
C5 C 0.3340(4) 0.1548(5) 0.76269(19)
C6 C 0.2363(5) 0.1793(6) 0.7146(2)
H3 H 0.1967 0.2623 0.7120
C7 C 0.1949(5) 0.0840(6) 0.6695(2)
H4 H 0.1287 0.1036 0.6368
C8 C 0.3704(3) 0.2626(5) 0.81133(19)
H5 H 0.3495 0.3558 0.7928
C9 C 0.3047(4) 0.2448(5) 0.84663(19)
C10 C 0.2649(5) 0.1172(6) 0.8543(3)
H6 H 0.2761 0.0366 0.8368
C11 C 0.2075(5) 0.1059(6) 0.8881(3)
H7 H 0.1795 0.0183 0.8920
C12 C 0.1918(4) 0.2206(5) 0.9154(2)
C13 C 0.2309(5) 0.3493(6) 0.9070(3)
H8 H 0.2197 0.4296 0.9247
C14 C 0.2857(5) 0.3619(6) 0.8736(3)
H9 H 0.3109 0.4506 0.8687
C15 C 0.1335(4) 0.2092(5) 0.95321(19)
C16 C 0.4966(4) 0.2688(5) 0.85014(18)
C17 C 0.5581(4) 0.3738(6) 0.8416(2)
H10 H 0.5231 0.4377 0.8114
C18 C 0.6722(4) 0.3866(6) 0.8771(2)
H11 H 0.7128 0.4601 0.8714
C19 C 0.7258(3) 0.2887(5) 0.92149(18)
C20 C 0.6643(4) 0.1820(5) 0.9295(2)
H12 H 0.6993 0.1159 0.9587
C21 C 0.5506(4) 0.1718(5) 0.8943(2)
H13 H 0.5098 0.0991 0.9003
C22 C 0.8476(3) 0.3037(4) 0.96045(17)
C23 C 0.9557(6) 0.5041(6) 0.8498(3)
H14 H 0.9283 0.4253 0.8611
C24 C 0.9630(6) 0.4976(7) 0.7979(3)
H15 H 0.9435 0.4145 0.7763
C25 C 0.9984(5) 0.6124(6) 0.7782(2)
Cd1 Cd 0.92713(2) 0.65203(3) 0.954590(12)
N1 N 0.9855(4) 0.6151(5) 0.88365(19)
O3 O 0.8983(3) 0.4156(4) 0.95970(15)
O4 O 0.8979(3) 0.2068(3) 0.99502(14)
O5 O 0.0822(3) 0.0962(4) 0.95129(16)
O6 O 0.1404(3) 0.3146(4) 0.98325(16)
C31 C 0.6104(4) 0.0340(7) 0.7350(3)
H19 H 0.5428 0.0160 0.7029
C32 C 0.6660(4) 0.1548(5) 0.73731(19)
C33 C 0.7637(5) 0.1793(6) 0.7854(2)
H20 H 0.8033 0.2623 0.7880
C34 C 0.8051(5) 0.0840(6) 0.8305(2)
H21 H 0.8713 0.1036 0.8632
C35 C 0.6296(3) 0.2626(5) 0.68867(19)
H22 H 0.6505 0.3558 0.7072
C36 C 0.6953(4) 0.2448(5) 0.65337(19)
C37 C 0.7351(5) 0.1172(6) 0.6457(3)
H23 H 0.7239 0.0366 0.6632
C38 C 0.7925(5) 0.1059(6) 0.6119(3)
H24 H 0.8205 0.0183 0.6080
C39 C 0.8082(4) 0.2206(5) 0.5846(2)
C40 C 0.7691(5) 0.3493(6) 0.5930(3)
H25 H 0.7803 0.4296 0.5753
C41 C 0.7143(5) 0.3619(6) 0.6264(3)
H26 H 0.6891 0.4506 0.6313
C42 C 0.8665(4) 0.2092(5) 0.54679(19)
C43 C 0.5034(4) 0.2688(5) 0.64986(18)
C44 C 0.4419(4) 0.3738(6) 0.6584(2)
H27 H 0.4769 0.4377 0.6886
C45 C 0.3278(4) 0.3866(6) 0.6229(2)
H28 H 0.2872 0.4601 0.6286
C46 C 0.2742(3) 0.2887(5) 0.57851(18)
C47 C 0.3357(4) 0.1820(5) 0.5705(2)
H29 H 0.3007 0.1159 0.5413
C48 C 0.4494(4) 0.1718(5) 0.6057(2)
H30 H 0.4902 0.0991 0.5997
C49 C 0.1524(3) 0.3037(4) 0.53955(17)
C53 C 0.9683(7) 0.7300(8) 0.6856(3)
H33 H 0.9416 0.8104 0.6963
C54 C 0.9748(5) 0.7269(6) 0.6341(3)
H34 H 0.9507 0.8060 0.6103
Cd10 Cd 0.92713(2) 0.34797(3) 0.454590(12)
Cd11_6 Cd 1.0000 0.0000 1.0000
Cd13_3 Cd 1.0000 0.0000 0.5000
O8 O 0.8839(3) 0.8866(4) 0.91917(13)
O10 O 0.1161(3) 0.8866(4) 0.58083(13)
O12 O 0.7564(3) 0.7319(4) 0.86868(16)
O13 O 0.2436(3) 0.7319(4) 0.63132(16)
O14 O 0.1017(3) 0.4156(4) 0.54030(15)
O17 O 0.1021(3) 0.2068(3) 0.50498(14)
O21 O 0.9178(3) 0.0962(4) 0.54871(16)
O24 O 0.8596(3) 0.3146(4) 0.51675(16)
O26 O 0.1404(3) 0.6854(4) 0.48325(16)
Cd11_7 Cd 1.0000 1.0000 0.0000
C1 C 0.2032(4) 0.8530(5) 0.62559(19)
C2 C 0.2516(4) 0.9596(5) 0.67307(19)
C3 C 0.3483(4) 0.9362(7) 0.7205(2)
H1 H 0.3879 0.8529 0.7235
C28 C 0.7968(4) 0.8530(5) 0.87441(19)
C29 C 0.7484(4) 0.9596(5) 0.82693(19)
C30 C 0.6517(4) 0.9362(7) 0.7795(2)
H18 H 0.6121 0.8529 0.7765
Cd11_8 Cd 1.0000 1.0000 1.0000
Cd13_4 Cd 1.0000 1.0000 0.5000
O23 O 0.0822(3) 0.9038(4) 0.45129(16)
O9 O 0.8839(3) 0.1134(4) 0.41917(13)
O16 O 0.8983(3) 0.5844(4) 0.45970(15)
O20 O 0.8979(3) 0.7932(3) 0.49502(14)
O9_2 O 0.1161(3) 0.1134(4) 0.08083(13)
O23_2 O 0.9178(3) 0.9038(4) 0.04871(16)
C1_2 C 0.7968(4) 0.1470(5) 0.37441(19)
C2_2 C 0.7484(4) 0.0404(5) 0.32693(19)
C3_2 C 0.6517(4) 0.0638(7) 0.2795(2)
H1_2 H 0.6121 0.1471 0.2765
O2 O 0.7564(3) 0.2681(4) 0.36868(16)
C28_2 C 0.2032(4) 0.1470(5) 0.12559(19)
C29_2 C 0.2516(4) 0.0404(5) 0.17307(19)
C30_2 C 0.3483(4) 0.0638(7) 0.2205(2)
H18_2 H 0.3879 0.1471 0.2235
O11 O 0.2436(3) 0.2681(4) 0.13132(16)
C4_2 C 0.6104(4) 0.9660(7) 0.2350(3)
H2_2 H 0.5428 0.9840 0.2029
C5_2 C 0.6660(4) 0.8452(5) 0.23731(19)
C6_2 C 0.7637(5) 0.8207(6) 0.2854(2)
H3_2 H 0.8033 0.7377 0.2880
C7_2 C 0.8051(5) 0.9160(6) 0.3305(2)
H4_2 H 0.8713 0.8964 0.3632
C8_2 C 0.6296(3) 0.7374(5) 0.18867(19)
H5_2 H 0.6505 0.6442 0.2072
C9_2 C 0.6953(4) 0.7552(5) 0.15337(19)
C10_2 C 0.7351(5) 0.8828(6) 0.1457(3)
H6_2 H 0.7239 0.9634 0.1632
C11_2 C 0.7925(5) 0.8941(6) 0.1119(3)
H7_2 H 0.8205 0.9817 0.1080
C12_2 C 0.8082(4) 0.7794(5) 0.0846(2)
C13_2 C 0.7691(5) 0.6507(6) 0.0930(3)
H8_2 H 0.7803 0.5704 0.0753
C14_2 C 0.7143(5) 0.6381(6) 0.1264(3)
H9_2 H 0.6891 0.5494 0.1313
C15_2 C 0.8665(4) 0.7908(5) 0.04679(19)
C16_2 C 0.5034(4) 0.7312(5) 0.14986(18)
C17_2 C 0.4419(4) 0.6262(6) 0.1584(2)
H10_2 H 0.4769 0.5623 0.1886
C18_2 C 0.3278(4) 0.6134(6) 0.1229(2)
H11_2 H 0.2872 0.5399 0.1286
C19_2 C 0.2742(3) 0.7113(5) 0.07851(18)
C20_2 C 0.3357(4) 0.8180(5) 0.0705(2)
H12_2 H 0.3007 0.8841 0.0413
C21_2 C 0.4494(4) 0.8282(5) 0.1057(2)
H13_2 H 0.4902 0.9009 0.0997
C22_2 C 0.1524(3) 0.6963(4) 0.03955(17)
C23_2 C 0.0443(6) 0.4959(6) 0.1502(3)
H14_2 H 0.0717 0.5747 0.1389
C24_2 C 0.0370(6) 0.5024(7) 0.2021(3)
H15_2 H 0.0565 0.5855 0.2237
C25_2 C 0.0016(5) 0.3876(6) 0.2218(2)
N1_2 N 0.0145(4) 0.3849(5) 0.11635(19)
C31_2 C 0.3896(4) 0.9660(7) 0.2650(3)
H19_2 H 0.4572 0.9840 0.2971
C32_2 C 0.3340(4) 0.8452(5) 0.26269(19)
C33_2 C 0.2363(5) 0.8207(6) 0.2146(2)
H20_2 H 0.1967 0.7377 0.2120
C34_2 C 0.1949(5) 0.9160(6) 0.1695(2)
H21_2 H 0.1287 0.8964 0.1368
C35_2 C 0.3704(3) 0.7374(5) 0.31133(19)
H22_2 H 0.3495 0.6442 0.2928
C36_2 C 0.3047(4) 0.7552(5) 0.34663(19)
C37_2 C 0.2649(5) 0.8828(6) 0.3543(3)
H23_2 H 0.2761 0.9634 0.3368
C38_2 C 0.2075(5) 0.8941(6) 0.3881(3)
H24_2 H 0.1795 0.9817 0.3920
C39_2 C 0.1918(4) 0.7794(5) 0.4154(2)
C40_2 C 0.2309(5) 0.6507(6) 0.4070(3)
H25_2 H 0.2197 0.5704 0.4247
C41_2 C 0.2857(5) 0.6381(6) 0.3736(3)
H26_2 H 0.3109 0.5494 0.3687
C42_2 C 0.1335(4) 0.7908(5) 0.45321(19)
C43_2 C 0.4966(4) 0.7312(5) 0.35014(18)
C44_2 C 0.5581(4) 0.6262(6) 0.3416(2)
H27_2 H 0.5231 0.5623 0.3114
C45_2 C 0.6722(4) 0.6134(6) 0.3771(2)
H28_2 H 0.7128 0.5399 0.3714
C46_2 C 0.7258(3) 0.7113(5) 0.42149(18)
C47_2 C 0.6643(4) 0.8180(5) 0.4295(2)
H29_2 H 0.6993 0.8841 0.4587
C48_2 C 0.5506(4) 0.8282(5) 0.3943(2)
H30_2 H 0.5098 0.9009 0.4003
C49_2 C 0.8476(3) 0.6963(4) 0.46045(17)
C53_2 C 0.0317(7) 0.2700(8) 0.3144(3)
H33_2 H 0.0584 0.1896 0.3037
C54_2 C 0.0252(5) 0.2731(6) 0.3659(3)
H34_2 H 0.0493 0.1940 0.3897
N3 N 0.9855(4) 0.3849(5) 0.38365(19)
C26_2 C 0.9683(7) 0.2700(8) 0.1856(3)
H16_2 H 0.9416 0.1896 0.1963
C27_2 C 0.9748(5) 0.2731(6) 0.1341(3)
H17_2 H 0.9507 0.1940 0.1103
C50_2 C 0.9557(6) 0.4959(6) 0.3498(3)
H31_2 H 0.9283 0.5747 0.3611
C51_2 C 0.9630(6) 0.5024(7) 0.2979(3)
H32_2 H 0.9435 0.5855 0.2763
C52_2 C 0.9984(5) 0.3876(6) 0.2782(2)
loop_
_geom_bond_atom_site_label_1
_geom_bond_atom_site_label_2
_geom_bond_site_symmetry_1
_geom_bond_site_symmetry_2
Cd5 O15 1_555 1_555
H16 C26 1_555 1_555
C27 C26 1_555 1_555
H17 C27 1_555 1_555
C50 H31 1_555 1_555
C51 C50 1_555 1_555
H32 C51 1_555 1_555
Cd7 N2 1_555 1_555
N2 C50 1_555 1_555
C51 C52 1_555 1_555
H2 C4 1_555 1_555
C5 C4 1_555 1_555
C6 C5 1_555 1_555
H3 C6 1_555 1_555
H4 C7 1_555 1_555
C8 C5 1_555 1_555
H5 C8 1_555 1_555
C9 C8 1_555 1_555
C10 C9 1_555 1_555
H6 C10 1_555 1_555
C11 C10 1_555 1_555
H7 C11 1_555 1_555
C12 C11 1_555 1_555
C13 C12 1_555 1_555
H8 C13 1_555 1_555
C14 C9 1_555 1_555
H9 C14 1_555 1_555
C15 C12 1_555 1_555
C16 C8 1_555 1_555
C17 C16 1_555 1_555
H10 C17 1_555 1_555
C18 C17 1_555 1_555
H11 C18 1_555 1_555
C19 C18 1_555 1_555
C20 C19 1_555 1_555
H12 C20 1_555 1_555
C21 C16 1_555 1_555
H13 C21 1_555 1_555
C22 C19 1_555 1_555
C23 H14 1_555 1_555
C24 C23 1_555 1_555
H15 C24 1_555 1_555
C25 C24 1_555 1_555
Cd1 N1 1_555 1_555
N1 C23 1_555 1_555
O3 C22 1_555 1_555
O4 C22 1_555 1_555
O5 C15 1_555 1_555
O6 C15 1_555 1_555
H19 C31 1_555 1_555
C32 C31 1_555 1_555
C33 C32 1_555 1_555
H20 C33 1_555 1_555
H21 C34 1_555 1_555
C35 C32 1_555 1_555
H22 C35 1_555 1_555
C36 C35 1_555 1_555
C37 C36 1_555 1_555
H23 C37 1_555 1_555
C38 C37 1_555 1_555
H24 C38 1_555 1_555
C39 C38 1_555 1_555
C40 C39 1_555 1_555
H25 C40 1_555 1_555
C41 C36 1_555 1_555
H26 C41 1_555 1_555
C42 C39 1_555 1_555
C43 C35 1_555 1_555
C44 C43 1_555 1_555
H27 C44 1_555 1_555
C45 C44 1_555 1_555
H28 C45 1_555 1_555
C46 C45 1_555 1_555
C47 C46 1_555 1_555
H29 C47 1_555 1_555
C48 C43 1_555 1_555
H30 C48 1_555 1_555
C49 C46 1_555 1_555
H33 C53 1_555 1_555
C54 C53 1_555 1_555
H34 C54 1_555 1_555
Cd10 O24 1_555 1_555
Cd11_6 O4 1_555 1_555
Cd11_2 O5 1_555 1_555
Cd13_3 O21 1_555 1_555
O8 Cd1 1_555 1_555
O10 Cd7 1_555 1_555
O12 Cd1 1_555 1_555
O13 Cd7 1_555 1_555
O14 C49 1_555 1_555
O17 Cd13 1_555 1_555
O21 C42 1_555 1_555
O24 C42 1_555 1_555
O26 Cd7 1_555 1_555
C6 C7 1_555 1_555
C13 C14 1_555 1_555
C20 C21 1_555 1_555
Cd1 O3 1_555 1_555
C33 C34 1_555 1_555
C40 C41 1_555 1_555
C47 C48 1_555 1_555
C49 O17 1_555 1_555
Cd7 O14 1_555 1_555
C1 C2 1_555 1_555
C2 C3 1_555 1_555
C3 H1 1_555 1_555
Cd13_2 O10 1_555 1_555
O10 C1 1_555 1_555
O13 C1 1_555 1_555
C28 C29 1_555 1_555
C29 C30 1_555 1_555
C30 H18 1_555 1_555
O8 C28 1_555 1_555
O12 C28 1_555 1_555
O23 Cd13_2 1_555 1_555
Cd11_8 O8 1_555 1_555
Cd10 O9 1_555 1_555
O9 Cd13_3 1_555 1_555
Cd10 O16 1_555 1_555
O20 Cd13_4 1_555 1_555
Cd5 O9_2 1_555 1_555
O9_2 Cd11 1_555 1_555
O18 Cd11_3 1_555 1_555
O23_2 Cd11_7 1_555 1_555
C1_2 C2_2 1_555 1_555
C2_2 C3_2 1_555 1_555
C3_2 H1_2 1_555 1_555
O9 C1_2 1_555 1_555
O2 C1_2 1_555 1_555
C28_2 C29_2 1_555 1_555
C29_2 C30_2 1_555 1_555
C30_2 H18_2 1_555 1_555
O9_2 C28_2 1_555 1_555
O11 C28_2 1_555 1_555
O2 Cd10 1_555 1_555
Cd5 O11 1_555 1_555
H2_2 C4_2 1_555 1_555
C5_2 C4_2 1_555 1_555
C6_2 C5_2 1_555 1_555
H3_2 C6_2 1_555 1_555
H4_2 C7_2 1_555 1_555
C8_2 C5_2 1_555 1_555
H5_2 C8_2 1_555 1_555
C9_2 C8_2 1_555 1_555
C10_2 C9_2 1_555 1_555
H6_2 C10_2 1_555 1_555
C11_2 C10_2 1_555 1_555
H7_2 C11_2 1_555 1_555
C12_2 C11_2 1_555 1_555
C13_2 C12_2 1_555 1_555
H8_2 C13_2 1_555 1_555
C14_2 C9_2 1_555 1_555
H9_2 C14_2 1_555 1_555
C15_2 C12_2 1_555 1_555
C16_2 C8_2 1_555 1_555
C17_2 C16_2 1_555 1_555
H10_2 C17_2 1_555 1_555
C18_2 C17_2 1_555 1_555
H11_2 C18_2 1_555 1_555
C19_2 C18_2 1_555 1_555
C20_2 C19_2 1_555 1_555
H12_2 C20_2 1_555 1_555
C21_2 C16_2 1_555 1_555
H13_2 C21_2 1_555 1_555
C22_2 C19_2 1_555 1_555
C23_2 H14_2 1_555 1_555
C24_2 C23_2 1_555 1_555
H15_2 C24_2 1_555 1_555
C25_2 C24_2 1_555 1_555
Cd5 N1_2 1_555 1_555
N1_2 C23_2 1_555 1_555
O15 C22_2 1_555 1_555
O18 C22_2 1_555 1_555
O23_2 C15_2 1_555 1_555
O25 C15_2 1_555 1_555
H19_2 C31_2 1_555 1_555
C32_2 C31_2 1_555 1_555
C33_2 C32_2 1_555 1_555
H20_2 C33_2 1_555 1_555
H21_2 C34_2 1_555 1_555
C35_2 C32_2 1_555 1_555
H22_2 C35_2 1_555 1_555
C36_2 C35_2 1_555 1_555
C37_2 C36_2 1_555 1_555
H23_2 C37_2 1_555 1_555
C38_2 C37_2 1_555 1_555
H24_2 C38_2 1_555 1_555
C39_2 C38_2 1_555 1_555
C40_2 C39_2 1_555 1_555
H25_2 C40_2 1_555 1_555
C41_2 C36_2 1_555 1_555
H26_2 C41_2 1_555 1_555
C42_2 C39_2 1_555 1_555
C43_2 C35_2 1_555 1_555
C44_2 C43_2 1_555 1_555
H27_2 C44_2 1_555 1_555
C45_2 C44_2 1_555 1_555
H28_2 C45_2 1_555 1_555
C46_2 C45_2 1_555 1_555
C47_2 C46_2 1_555 1_555
H29_2 C47_2 1_555 1_555
C48_2 C43_2 1_555 1_555
H30_2 C48_2 1_555 1_555
C49_2 C46_2 1_555 1_555
H33_2 C53_2 1_555 1_555
C54_2 C53_2 1_555 1_555
H34_2 C54_2 1_555 1_555
Cd10 N3 1_555 1_555
O16 C49_2 1_555 1_555
O23 C42_2 1_555 1_555
O26 C42_2 1_555 1_555
C6_2 C7_2 1_555 1_555
C13_2 C14_2 1_555 1_555
C20_2 C21_2 1_555 1_555
C33_2 C34_2 1_555 1_555
C40_2 C41_2 1_555 1_555
C47_2 C48_2 1_555 1_555
C49_2 O20 1_555 1_555
H16_2 C26_2 1_555 1_555
C27_2 C26_2 1_555 1_555
H17_2 C27_2 1_555 1_555
C50_2 H31_2 1_555 1_555
C51_2 C50_2 1_555 1_555
H32_2 C51_2 1_555 1_555
N3 C50_2 1_555 1_555
C51_2 C52_2 1_555 1_555

#END
