
###############################################################################
#
# This file contains modified crystal structure data generated from the
# MOF subset of the Cambridge Structural Database (CSD) v543 
# hosted by the Cambridge Crystallographic Data Centre (CCDC).
#
# This work is licensed under the Creative Commons
# Attribution-NonCommercial-ShareAlike 4.0 International License.
# To view a copy of this license, visit
# http://creativecommons.org/licenses/by-nc-sa/4.0/
# or send a letter to
# Creative Commons, PO Box 1866, Mountain View, CA 94042, USA.
#
# CIF created using the CSD Python API on 29 September 2022
# The structure has been converted into the P1 space group
# The structure has a 3D framework
# The original CSD entry DAWMIB is in the rhombohedral crystal system
# The original CSD entry DAWMIB is in a Sohncke space group
# The framework has been calculated to contain at least 10.0% void space
# The void calculation uses a probe of radius 1.32A, grid spacing 0.4
#
###############################################################################

data_DAWMIB
_chemical_formula_moiety         '(C306 H270 B18 Cu6 Fe11 N54 O114)n'
_symmetry_cell_setting           triclinic
_symmetry_space_group_name_H-M   'P 1'
_symmetry_Int_Tables_number      1
_space_group_name_Hall           'P 1'
loop_
_symmetry_equiv_pos_site_id
_symmetry_equiv_pos_as_xyz
1 x,y,z
_cell_length_a                   18.4899(2)
_cell_length_b                   18.4899(2)
_cell_length_c                   49.4945(12)
_cell_angle_alpha                90
_cell_angle_beta                 90
_cell_angle_gamma                120
_cell_volume                     14654
loop_
_atom_site_label
_atom_site_type_symbol
_atom_site_fract_x
_atom_site_fract_y
_atom_site_fract_z
Fe1 Fe 0.4917(2) 0.4917(2) 0.5000
Cu1 Cu 0.61871(13) 0.79645(15) 0.31165(4)
O1 O 0.2845(7) 0.4384(7) 0.3312(2)
O2 O 0.6363(7) 0.7294(8) 0.3672(2)
O3 O 0.2397(7) 0.3588(7) 0.3680(2)
O4 O 0.5516(6) 0.6938(7) 0.3307(2)
O5 O 0.4663(9) 0.5743(8) 0.4547(2)
N1 N 0.5087(10) 0.5681(8) 0.5290(3)
N2 N 0.4787(9) 0.5753(10) 0.4820(3)
N3 N 0.4107(11) 0.4135(11) 0.4759(3)
O6 O 0.5225(11) 0.5561(9) 0.5546(2)
C1 C 0.5117(6) 0.6026(6) 0.36818(19)
C2 C 0.5229(6) 0.5890(6) 0.39508(19)
H1 H 0.5719 0.6262 0.4040
C3 C 0.4610(7) 0.5199(7) 0.40863(14)
C4 C 0.3878(6) 0.4643(7) 0.3953(2)
H2 H 0.3464 0.4181 0.4044
C5 C 0.3766(6) 0.4780(7) 0.36839(19)
C6 C 0.4385(7) 0.5471(7) 0.35483(14)
H3 H 0.4310 0.5563 0.3368
C7 C 0.5680(12) 0.6818(11) 0.3530(3)
O7 O 0.4139(10) 0.4273(10) 0.4496(3)
C8 C 0.5021(11) 0.6320(12) 0.5229(4)
C9 C 0.3439(14) 0.3488(12) 0.4869(4)
C10 C 0.5112(13) 0.6983(11) 0.5439(4)
H4 H 0.4706 0.6708 0.5582
H5 H 0.5664 0.7233 0.5520
C11 C 0.2712(11) 0.2838(10) 0.4697(3)
H6 H 0.2443 0.3103 0.4604
H7 H 0.2924 0.2612 0.4562
C12 C 0.2989(11) 0.4186(9) 0.3558(4)
C13 C 0.4885(8) 0.6407(11) 0.4949(4)
B1 B 0.4770(17) 0.5117(15) 0.4403(3)
C14 C 0.4880(14) 0.7135(11) 0.4824(4)
H8 H 0.4329 0.6971 0.4754
H9 H 0.5277 0.7354 0.4676
C15 C 0.4996(16) 0.7638(14) 0.5324(4)
H10 H 0.4429 0.7505 0.5364
H11 H 0.5365 0.8151 0.5419
C16 C 0.208(2) 0.214(2) 0.4874(6)
H12 H 0.1555 0.2119 0.4843
H13 H 0.2025 0.1629 0.4798
C17 C 0.5125(18) 0.7802(13) 0.5047(4)
H14 H 0.5719 0.8185 0.5025
H15 H 0.4849 0.8114 0.5001
O8 O 0.4384(7) 0.2845(7) 0.6688(2)
O9 O 0.7294(8) 0.6363(7) 0.6328(2)
O10 O 0.3588(7) 0.2397(7) 0.6320(2)
O11 O 0.6938(7) 0.5516(6) 0.6693(2)
O12 O 0.5743(8) 0.4663(9) 0.5453(2)
N4 N 0.5681(8) 0.5087(10) 0.4710(3)
N5 N 0.5753(10) 0.4787(9) 0.5180(3)
N6 N 0.4135(11) 0.4107(11) 0.5241(3)
O13 O 0.5561(9) 0.5225(11) 0.4454(2)
C18 C 0.6026(6) 0.5117(6) 0.63182(19)
C19 C 0.5890(6) 0.5229(6) 0.60492(19)
H16 H 0.6262 0.5719 0.5960
C20 C 0.5199(7) 0.4610(7) 0.59137(14)
C21 C 0.4643(7) 0.3878(6) 0.6047(2)
H17 H 0.4181 0.3464 0.5956
C22 C 0.4780(7) 0.3766(6) 0.63161(19)
C23 C 0.5471(7) 0.4385(7) 0.64517(14)
H18 H 0.5563 0.4310 0.6632
C24 C 0.6818(11) 0.5680(12) 0.6470(3)
O14 O 0.4273(10) 0.4139(10) 0.5504(3)
C25 C 0.6320(12) 0.5021(11) 0.4771(4)
C26 C 0.3488(12) 0.3439(14) 0.5131(4)
C27 C 0.6983(11) 0.5112(13) 0.4561(4)
H19 H 0.6708 0.4706 0.4418
H20 H 0.7233 0.5664 0.4480
C28 C 0.2838(10) 0.2712(11) 0.5303(3)
H21 H 0.3103 0.2443 0.5396
H22 H 0.2612 0.2924 0.5438
C29 C 0.4186(9) 0.2989(11) 0.6442(4)
C30 C 0.6407(11) 0.4885(8) 0.5051(4)
B2 B 0.5117(15) 0.4770(17) 0.5597(3)
C31 C 0.7135(11) 0.4880(14) 0.5176(4)
H23 H 0.6971 0.4329 0.5246
H24 H 0.7354 0.5277 0.5324
C32 C 0.7638(14) 0.4996(16) 0.4676(4)
H25 H 0.7505 0.4429 0.4636
H26 H 0.8151 0.5365 0.4581
C33 C 0.214(2) 0.208(2) 0.5126(6)
H27 H 0.2119 0.1555 0.5157
H28 H 0.1629 0.2025 0.5202
C34 C 0.7802(13) 0.5125(18) 0.4953(4)
H29 H 0.8185 0.5719 0.4975
H30 H 0.8114 0.4849 0.4999
Cu2 Cu 0.71462(13) 0.84441(20) 0.35502(4)
Cu3 Cu 0.17774(20) 0.38129(13) 0.31165(4)
Cu4 Cu 0.79645(15) 0.61871(13) 0.68835(4)
Cu5 Cu 0.38129(13) 0.17774(20) 0.68835(4)
Cu6 Cu 0.28538(13) 0.12978(15) 0.64498(4)
Cu7 Cu 0.84441(20) 0.71462(13) 0.64498(4)
Cu8 Cu 0.12978(15) 0.28538(13) 0.35502(4)
O15 O 0.5616(7) 0.8461(10) 0.3312(2)
O16 O 0.7717(7) 0.9512(7) 0.3355(2)
O17 O 0.6970(7) 0.7598(11) 0.2995(2)
O18 O 0.6412(7) 0.8809(10) 0.3680(2)
O19 O 0.6921(7) 0.9064(7) 0.2987(2)
O20 O 0.7817(6) 0.8089(9) 0.3360(2)
Fe1_2 Fe 0.5083(2) 0.0000(3) 0.5000
H7_2 H 0.7388 0.0312 0.4562
H13_2 H 0.8371 0.0396 0.4798
O8_2 O 0.7155(7) 0.1539(10) 0.6688(2)
O9_2 O 0.3637(7) 0.0931(11) 0.6328(2)
O10_2 O 0.7603(7) 0.1191(10) 0.6320(2)
O11_2 O 0.4484(6) 0.1422(9) 0.6693(2)
O12_2 O 0.5337(9) 0.1080(12) 0.5453(2)
N4_2 N 0.4913(10) 0.0594(13) 0.4710(3)
N5_2 N 0.5213(9) 0.0966(13) 0.5180(3)
N6_2 N 0.5893(11) 0.0028(16) 0.5241(3)
O13_2 O 0.4775(11) 0.0336(14) 0.4454(2)
C18_2 C 0.4883(6) 0.0909(8) 0.63182(19)
C19_2 C 0.4771(6) 0.0661(8) 0.60492(19)
H16_2 H 0.4281 0.0543 0.5960
C20_2 C 0.5390(7) 0.0589(10) 0.59137(14)
C21_2 C 0.6122(6) 0.0765(9) 0.6047(2)
H17_2 H 0.6536 0.0717 0.5956
C22_2 C 0.6234(6) 0.1014(9) 0.63161(19)
C23_2 C 0.5615(7) 0.1086(10) 0.64517(14)
H18_2 H 0.5690 0.1253 0.6632
C24_2 C 0.4320(12) 0.1138(16) 0.6470(3)
O14_2 O 0.5861(10) 0.0134(14) 0.5504(3)
C25_2 C 0.4979(11) 0.1299(16) 0.4771(4)
C26_2 C 0.6561(14) 0.0049(18) 0.5131(4)
C27_2 C 0.4888(13) 0.1871(17) 0.4561(4)
H19_2 H 0.5294 0.2002 0.4418
H20_2 H 0.4336 0.1569 0.4480
C28_2 C 0.7288(11) 0.0126(15) 0.5303(3)
H21_2 H 0.7557 0.0660 0.5396
C29_2 C 0.7011(11) 0.1197(14) 0.6442(4)
C30_2 C 0.5115(8) 0.1522(14) 0.5051(4)
B2_2 B 0.5230(17) 0.0347(23) 0.5597(3)
C31_2 C 0.5120(14) 0.2255(18) 0.5176(4)
H23_2 H 0.5671 0.2642 0.5246
H24_2 H 0.4723 0.2077 0.5324
C32_2 C 0.5004(16) 0.2642(21) 0.4676(4)
H25_2 H 0.5571 0.3076 0.4636
H26_2 H 0.4635 0.2786 0.4581
C33_2 C 0.792(2) 0.006(3) 0.5126(6)
H27_2 H 0.8445 0.0564 0.5157
C34_2 C 0.4875(18) 0.2677(22) 0.4953(4)
H29_2 H 0.4281 0.2466 0.4975
H30_2 H 0.5151 0.3265 0.4999
Cu5_2 Cu 0.82226(20) 0.20355(24) 0.68835(4)
Cu6_2 Cu 0.87022(15) 0.15559(20) 0.64498(4)
Fe1_3 Fe 0.5083(2) 1.0000(3) 0.5000
Cu1_2 Cu 0.20355(15) 0.82226(20) 0.31165(4)
O2_2 O 0.2706(8) 0.9069(11) 0.3672(2)
O4_2 O 0.3062(7) 0.8578(9) 0.3307(2)
O5_2 O 0.4257(8) 0.8920(12) 0.4547(2)
N1_2 N 0.4319(8) 0.9406(13) 0.5290(3)
N2_2 N 0.4247(10) 0.9034(13) 0.4820(3)
N3_2 N 0.5865(11) 0.9972(16) 0.4759(3)
O6_2 O 0.4439(9) 0.9664(14) 0.5546(2)
C1_2 C 0.3974(6) 0.9091(8) 0.36818(19)
C2_2 C 0.4110(6) 0.9339(8) 0.39508(19)
H1_2 H 0.3738 0.9457 0.4040
C3_2 C 0.4801(7) 0.9411(10) 0.40863(14)
C4_2 C 0.5357(7) 0.9235(9) 0.3953(2)
H2_2 H 0.5819 0.9283 0.4044
C5_2 C 0.5220(7) 0.8986(9) 0.36839(19)
C6_2 C 0.4529(7) 0.8914(10) 0.35483(14)
H3_2 H 0.4437 0.8747 0.3368
C7_2 C 0.3182(11) 0.8862(16) 0.3530(3)
O7_2 O 0.5727(10) 0.9866(14) 0.4496(3)
C8_2 C 0.3680(12) 0.8701(16) 0.5229(4)
C9_2 C 0.6512(12) 0.9951(18) 0.4869(4)
C10_2 C 0.3017(11) 0.8129(17) 0.5439(4)
H4_2 H 0.3292 0.7998 0.5582
H5_2 H 0.2767 0.8431 0.5520
C11_2 C 0.7162(10) 0.9874(15) 0.4697(3)
H6_2 H 0.6897 0.9340 0.4604
C12_2 C 0.5814(9) 0.8803(14) 0.3558(4)
C13_2 C 0.3593(11) 0.8478(14) 0.4949(4)
B1_2 B 0.4883(15) 0.9653(23) 0.4403(3)
C14_2 C 0.2865(11) 0.7745(18) 0.4824(4)
H8_2 H 0.3029 0.7358 0.4754
H9_2 H 0.2646 0.7923 0.4676
C15_2 C 0.2362(14) 0.7358(21) 0.5324(4)
H10_2 H 0.2495 0.6924 0.5364
H11_2 H 0.1849 0.7214 0.5419
C16_2 C 0.786(2) 0.994(3) 0.4874(6)
H12_2 H 0.7881 0.9436 0.4843
C17_2 C 0.2198(13) 0.7323(22) 0.5047(4)
H14_2 H 0.1815 0.7534 0.5025
H15_2 H 0.1886 0.6735 0.5001
H22_2 H 0.7076 0.9688 0.5438
H28_2 H 0.7975 0.9604 0.5202
Cu2_2 Cu 0.15559(20) 0.87022(24) 0.35502(4)
O15_2 O 0.1539(10) 0.7155(12) 0.3312(2)
O16_2 O 0.0488(7) 0.8206(10) 0.3355(2)
O17_2 O 0.2402(11) 0.9373(13) 0.2995(2)
O18_2 O 0.1191(10) 0.7603(12) 0.3680(2)
O19_2 O 0.0936(7) 0.7858(10) 0.2987(2)
O20_2 O 0.1911(9) 0.9729(11) 0.3360(2)
Fe1_4 Fe -0.0000(3) 0.5083(2) 0.5000
O2_3 O 0.0931(11) 0.3637(7) 0.3672(2)
O4_3 O 0.1422(9) 0.4484(6) 0.3307(2)
O5_3 O 0.1080(12) 0.5337(9) 0.4547(2)
N1_3 N 0.0594(13) 0.4913(10) 0.5290(3)
N2_3 N 0.0966(13) 0.5213(9) 0.4820(3)
N3_3 N 0.0028(16) 0.5893(11) 0.4759(3)
O6_3 O 0.0336(14) 0.4775(11) 0.5546(2)
C1_3 C 0.0909(8) 0.4883(6) 0.36818(19)
C2_3 C 0.0661(8) 0.4771(6) 0.39508(19)
H1_3 H 0.0543 0.4281 0.4040
C3_3 C 0.0589(10) 0.5390(7) 0.40863(14)
C4_3 C 0.0765(9) 0.6122(6) 0.3953(2)
H2_3 H 0.0717 0.6536 0.4044
C5_3 C 0.1014(9) 0.6234(6) 0.36839(19)
C6_3 C 0.1086(10) 0.5615(7) 0.35483(14)
H3_3 H 0.1253 0.5690 0.3368
C7_3 C 0.1138(16) 0.4320(12) 0.3530(3)
O7_3 O 0.0134(14) 0.5861(10) 0.4496(3)
C8_3 C 0.1299(16) 0.4979(11) 0.5229(4)
C9_3 C 0.0049(18) 0.6561(14) 0.4869(4)
C10_3 C 0.1871(17) 0.4888(13) 0.5439(4)
H4_3 H 0.2002 0.5294 0.5582
H5_3 H 0.1569 0.4336 0.5520
C11_3 C 0.0126(15) 0.7288(11) 0.4697(3)
H6_3 H 0.0660 0.7557 0.4604
C12_3 C 0.1197(14) 0.7011(11) 0.3558(4)
C13_3 C 0.1522(14) 0.5115(8) 0.4949(4)
B1_3 B 0.0347(23) 0.5230(17) 0.4403(3)
C14_3 C 0.2255(18) 0.5120(14) 0.4824(4)
H8_3 H 0.2642 0.5671 0.4754
H9_3 H 0.2077 0.4723 0.4676
C15_3 C 0.2642(21) 0.5004(16) 0.5324(4)
H10_3 H 0.3076 0.5571 0.5364
H11_3 H 0.2786 0.4635 0.5419
C16_3 C 0.006(3) 0.792(2) 0.4874(6)
H12_3 H 0.0564 0.8445 0.4843
C17_3 C 0.2677(22) 0.4875(18) 0.5047(4)
H14_3 H 0.2466 0.4281 0.5025
H15_3 H 0.3265 0.5151 0.5001
H22_3 H 0.0312 0.7388 0.5438
H28_3 H 0.0396 0.8371 0.5202
O16_3 O 0.1794(10) 0.2283(7) 0.3355(2)
O17_3 O 0.0627(13) 0.3030(7) 0.2995(2)
O19_3 O 0.2142(10) 0.3079(7) 0.2987(2)
O20_3 O 0.0271(11) 0.2183(6) 0.3360(2)
Fe1_5 Fe 1.0000(3) 0.5083(2) 0.5000
H7_3 H 0.9688 0.7076 0.4562
H13_3 H 0.9604 0.7975 0.4798
O8_3 O 0.8461(10) 0.5616(7) 0.6688(2)
O9_3 O 0.9069(11) 0.2706(8) 0.6328(2)
O10_3 O 0.8809(10) 0.6412(7) 0.6320(2)
O11_3 O 0.8578(9) 0.3062(7) 0.6693(2)
O12_3 O 0.8920(12) 0.4257(8) 0.5453(2)
N4_3 N 0.9406(13) 0.4319(8) 0.4710(3)
N5_3 N 0.9034(13) 0.4247(10) 0.5180(3)
N6_3 N 0.9972(16) 0.5865(11) 0.5241(3)
O13_3 O 0.9664(14) 0.4439(9) 0.4454(2)
C18_3 C 0.9091(8) 0.3974(6) 0.63182(19)
C19_3 C 0.9339(8) 0.4110(6) 0.60492(19)
H16_3 H 0.9457 0.3738 0.5960
C20_3 C 0.9411(10) 0.4801(7) 0.59137(14)
C21_3 C 0.9235(9) 0.5357(7) 0.6047(2)
H17_3 H 0.9283 0.5819 0.5956
C22_3 C 0.8986(9) 0.5220(7) 0.63161(19)
C23_3 C 0.8914(10) 0.4529(7) 0.64517(14)
H18_3 H 0.8747 0.4437 0.6632
C24_3 C 0.8862(16) 0.3182(11) 0.6470(3)
O14_3 O 0.9866(14) 0.5727(10) 0.5504(3)
C25_3 C 0.8701(16) 0.3680(12) 0.4771(4)
C26_3 C 0.9951(18) 0.6512(12) 0.5131(4)
C27_3 C 0.8129(17) 0.3017(11) 0.4561(4)
H19_3 H 0.7998 0.3292 0.4418
H20_3 H 0.8431 0.2767 0.4480
C28_3 C 0.9874(15) 0.7162(10) 0.5303(3)
H21_3 H 0.9340 0.6897 0.5396
C29_3 C 0.8803(14) 0.5814(9) 0.6442(4)
C30_3 C 0.8478(14) 0.3593(11) 0.5051(4)
B2_3 B 0.9653(23) 0.4883(15) 0.5597(3)
C31_3 C 0.7745(18) 0.2865(11) 0.5176(4)
H23_3 H 0.7358 0.3029 0.5246
H24_3 H 0.7923 0.2646 0.5324
C32_3 C 0.7358(21) 0.2362(14) 0.4676(4)
H25_3 H 0.6924 0.2495 0.4636
H26_3 H 0.7214 0.1849 0.4581
C33_3 C 0.994(3) 0.786(2) 0.5126(6)
H27_3 H 0.9436 0.7881 0.5157
C34_3 C 0.7323(22) 0.2198(13) 0.4953(4)
H29_3 H 0.7534 0.1815 0.4975
H30_3 H 0.6735 0.1886 0.4999
O16_4 O 0.9512(7) 0.7717(7) 0.6645(2)
O17_4 O 0.7598(11) 0.6970(7) 0.7005(2)
O19_4 O 0.9064(7) 0.6921(7) 0.7013(2)
O20_4 O 0.8089(9) 0.7817(6) 0.6640(2)
O16_5 O 0.8206(10) 0.0488(7) 0.6645(2)
O17_5 O 0.9373(13) 0.2402(11) 0.7005(2)
O19_5 O 0.7858(10) 0.0936(7) 0.7013(2)
O20_5 O 0.9729(11) 0.1911(9) 0.6640(2)
O16_6 O 0.2283(7) 0.1794(10) 0.6645(2)
O17_6 O 0.3030(7) 0.0627(13) 0.7005(2)
O19_6 O 0.3079(7) 0.2142(10) 0.7013(2)
O20_6 O 0.2183(6) 0.0271(11) 0.6640(2)
C7_4 C 0.2347(12) 0.0151(11) 0.6863(3)
C10_4 C 0.1779(13) 0.0316(11) 0.8772(4)
H4_4 H 0.1373 0.0041 0.8915
H5_4 H 0.2331 0.0566 0.8853
C14_4 C 0.1547(14) 0.0468(11) 0.8157(4)
H8_4 H 0.0996 0.0304 0.8087
H9_4 H 0.1944 0.0687 0.8009
C15_4 C 0.1663(16) 0.0971(14) 0.8657(4)
H10_4 H 0.1096 0.0838 0.8697
H11_4 H 0.2032 0.1484 0.8752
C17_4 C 0.1792(18) 0.1135(13) 0.8380(4)
H14_4 H 0.2386 0.1518 0.8358
H15_4 H 0.1516 0.1447 0.8334
Cu7_2 Cu 0.51107(20) 0.04796(13) 0.97832(4)
O8_4 O 0.1051(7) 0.6178(7) 0.0021(2)
O11_4 O 0.3605(7) 0.8849(6) 0.0026(2)
Cu4_2 Cu 0.46312(15) 0.95204(13) 0.02168(4)
Cu5_3 Cu 0.04796(13) 0.51107(20) 0.02168(4)
Fe1_6 Fe 0.1584(2) 0.8250(2) 0.8333
O5_4 O 0.1330(9) 0.9076(8) 0.7880(2)
N1_4 N 0.1754(10) 0.9014(8) 0.8623(3)
N2_4 N 0.1454(9) 0.9086(10) 0.8153(3)
N3_4 N 0.0774(11) 0.7468(11) 0.8092(3)
O6_4 O 0.1892(11) 0.8894(9) 0.8879(2)
C1_4 C 0.1784(6) 0.9359(6) 0.70151(19)
C2_4 C 0.1896(6) 0.9223(6) 0.72841(19)
H1_4 H 0.2386 0.9595 0.7373
C3_4 C 0.1277(7) 0.8532(7) 0.74196(14)
C4_4 C 0.0545(6) 0.7976(7) 0.7286(2)
H2_4 H 0.0131 0.7514 0.7377
C5_4 C 0.0433(6) 0.8113(7) 0.70172(19)
C6_4 C 0.1052(7) 0.8804(7) 0.68816(14)
H3_4 H 0.0977 0.8896 0.6701
O7_4 O 0.0806(10) 0.7606(10) 0.7829(3)
C8_4 C 0.1688(11) 0.9653(12) 0.8562(4)
C9_4 C 0.0106(14) 0.6821(12) 0.8202(4)
C13_4 C 0.1552(8) 0.9740(11) 0.8282(4)
B1_4 B 0.1437(17) 0.8450(15) 0.7736(3)
O9_4 O 0.3961(8) 0.9696(7) 0.9661(2)
O10_4 O 0.0255(7) 0.5730(7) 0.9653(2)
O12_4 O 0.2410(8) 0.7996(9) 0.8786(2)
N4_4 N 0.2348(8) 0.8420(10) 0.8043(3)
N5_4 N 0.2420(10) 0.8120(9) 0.8513(3)
N6_4 N 0.0802(11) 0.7440(11) 0.8574(3)
O13_4 O 0.2228(9) 0.8558(11) 0.7787(2)
C18_4 C 0.2693(6) 0.8450(6) 0.96515(19)
C19_4 C 0.2557(6) 0.8562(6) 0.93825(19)
H16_4 H 0.2929 0.9052 0.9293
C20_4 C 0.1866(7) 0.7943(7) 0.92470(14)
C21_4 C 0.1310(7) 0.7211(6) 0.9380(2)
H17_4 H 0.0848 0.6797 0.9289
C22_4 C 0.1447(7) 0.7099(6) 0.96494(19)
C23_4 C 0.2138(7) 0.7718(7) 0.97850(14)
H18_4 H 0.2230 0.7643 0.9965
C24_4 C 0.3485(11) 0.9013(12) 0.9803(3)
O14_4 O 0.0940(10) 0.7472(10) 0.8837(3)
C25_4 C 0.2987(12) 0.8354(11) 0.8104(4)
C26_4 C 0.0155(12) 0.6772(14) 0.8464(4)
C27_4 C 0.3650(11) 0.8445(13) 0.7894(4)
H19_4 H 0.3375 0.8039 0.7751
H20_4 H 0.3900 0.8997 0.7813
C29_4 C 0.0853(9) 0.6322(11) 0.9775(4)
C30_4 C 0.3074(11) 0.8218(8) 0.8384(4)
B2_4 B 0.1784(15) 0.8103(17) 0.8930(3)
C31_4 C 0.3802(11) 0.8213(14) 0.8509(4)
H23_4 H 0.3638 0.7662 0.8579
H24_4 H 0.4021 0.8610 0.8657
C32_4 C 0.4305(14) 0.8329(16) 0.8009(4)
H25_4 H 0.4172 0.7762 0.7969
H26_4 H 0.4818 0.8698 0.7914
C34_4 C 0.4469(13) 0.8458(18) 0.8286(4)
H29_4 H 0.4852 0.9052 0.8308
H30_4 H 0.4781 0.8182 0.8332
C11_4 C 0.9379(11) 0.6171(10) 0.8030(3)
H6_4 H 0.9110 0.6436 0.7937
H7_4 H 0.9591 0.5945 0.7895
C12_4 C 0.9656(11) 0.7519(9) 0.6891(4)
C16_4 C 0.875(2) 0.547(2) 0.8207(6)
H12_4 H 0.8222 0.5452 0.8176
H13_4 H 0.8692 0.4962 0.8131
C28_4 C 0.9505(10) 0.6045(11) 0.8636(3)
H21_4 H 0.9770 0.5776 0.8729
H22_4 H 0.9279 0.6257 0.8771
C33_4 C 0.881(2) 0.541(2) 0.8459(6)
H27_4 H 0.8786 0.4888 0.8490
H28_4 H 0.8296 0.5358 0.8535
Cu6_3 Cu 0.95204(13) 0.46312(15) 0.97832(4)
O8_5 O 0.3822(7) 0.4872(10) 0.0021(2)
O11_5 O 0.1151(6) 0.4755(9) 0.0026(2)
Cu5_4 Cu 0.48893(20) 0.53688(24) 0.02168(4)
Fe1_7 Fe 0.1750(2) 0.3333(3) 0.8333
O5_5 O 0.0924(8) 0.2253(12) 0.7880(2)
N1_5 N 0.0986(8) 0.2739(13) 0.8623(3)
N2_5 N 0.0914(10) 0.2367(13) 0.8153(3)
N3_5 N 0.2532(11) 0.3305(16) 0.8092(3)
O6_5 O 0.1106(9) 0.2997(14) 0.8879(2)
C1_5 C 0.0641(6) 0.2424(8) 0.70151(19)
C2_5 C 0.0777(6) 0.2672(8) 0.72841(19)
H1_5 H 0.0405 0.2790 0.7373
C3_5 C 0.1468(7) 0.2744(10) 0.74196(14)
C4_5 C 0.2024(7) 0.2568(9) 0.7286(2)
H2_5 H 0.2486 0.2616 0.7377
C5_5 C 0.1887(7) 0.2319(9) 0.70172(19)
C6_5 C 0.1196(7) 0.2247(10) 0.68816(14)
H3_5 H 0.1104 0.2080 0.6701
O7_5 O 0.2394(10) 0.3199(14) 0.7829(3)
C8_5 C 0.0347(12) 0.2034(16) 0.8562(4)
C9_5 C 0.3179(12) 0.3284(18) 0.8202(4)
C11_5 C 0.3829(10) 0.3207(15) 0.8030(3)
H6_5 H 0.3564 0.2673 0.7937
H7_5 H 0.4055 0.3645 0.7895
C12_5 C 0.2481(9) 0.2136(14) 0.6891(4)
C13_5 C 0.0260(11) 0.1811(14) 0.8282(4)
B1_5 B 0.1550(15) 0.2986(23) 0.7736(3)
C16_5 C 0.453(2) 0.327(3) 0.8207(6)
H12_5 H 0.4548 0.2769 0.8176
H13_5 H 0.5038 0.3729 0.8131
O9_5 O 0.0304(7) 0.4264(11) 0.9661(2)
O10_5 O 0.4270(7) 0.4524(10) 0.9653(2)
O12_5 O 0.2004(9) 0.4413(12) 0.8786(2)
N4_5 N 0.1580(10) 0.3927(13) 0.8043(3)
N5_5 N 0.1880(9) 0.4299(13) 0.8513(3)
N6_5 N 0.2560(11) 0.3361(16) 0.8574(3)
O13_5 O 0.1442(11) 0.3669(14) 0.7787(2)
C18_5 C 0.1550(6) 0.4242(8) 0.96515(19)
C19_5 C 0.1438(6) 0.3994(8) 0.93825(19)
H16_5 H 0.0948 0.3876 0.9293
C20_5 C 0.2057(7) 0.3922(10) 0.92470(14)
C21_5 C 0.2789(6) 0.4098(9) 0.9380(2)
H17_5 H 0.3203 0.4050 0.9289
C22_5 C 0.2901(6) 0.4347(9) 0.96494(19)
C23_5 C 0.2282(7) 0.4419(10) 0.97850(14)
H18_5 H 0.2357 0.4586 0.9965
C24_5 C 0.0987(12) 0.4471(16) 0.9803(3)
O14_5 O 0.2528(10) 0.3467(14) 0.8837(3)
C25_5 C 0.1646(11) 0.4632(16) 0.8104(4)
C26_5 C 0.3228(14) 0.3382(18) 0.8464(4)
C27_5 C 0.1555(13) 0.5204(17) 0.7894(4)
H19_5 H 0.1961 0.5335 0.7751
H20_5 H 0.1003 0.4902 0.7813
C28_5 C 0.3955(11) 0.3459(15) 0.8636(3)
H21_5 H 0.4224 0.3993 0.8729
H22_5 H 0.3743 0.3021 0.8771
C29_5 C 0.3678(11) 0.4530(14) 0.9775(4)
C30_5 C 0.1782(8) 0.4855(14) 0.8384(4)
B2_5 B 0.1897(17) 0.3680(23) 0.8930(3)
C31_5 C 0.1787(14) 0.5588(18) 0.8509(4)
H23_5 H 0.2338 0.5975 0.8579
H24_5 H 0.1390 0.5410 0.8657
C32_5 C 0.1671(16) 0.5975(21) 0.8009(4)
H25_5 H 0.2238 0.6409 0.7969
H26_5 H 0.1302 0.6119 0.7914
C33_5 C 0.459(2) 0.339(3) 0.8459(6)
H27_5 H 0.5112 0.3897 0.8490
H28_5 H 0.4642 0.2937 0.8535
C34_5 C 0.1542(18) 0.6010(22) 0.8286(4)
H29_5 H 0.0948 0.5799 0.8308
H30_5 H 0.1818 0.6598 0.8332
Cu6_4 Cu 0.53688(15) 0.48893(20) 0.97832(4)
C7_5 C 0.9849(11) 0.2195(16) 0.6863(3)
C10_5 C 0.9684(11) 0.1462(17) 0.8772(4)
H4_5 H 0.9959 0.1331 0.8915
H5_5 H 0.9434 0.1764 0.8853
C14_5 C 0.9532(11) 0.1078(18) 0.8157(4)
H8_5 H 0.9696 0.0691 0.8087
H9_5 H 0.9313 0.1256 0.8009
C15_5 C 0.9029(14) 0.0691(21) 0.8657(4)
H10_5 H 0.9162 0.0257 0.8697
H11_5 H 0.8516 0.0547 0.8752
C17_5 C 0.8865(13) 0.0656(22) 0.8380(4)
H14_5 H 0.8482 0.0867 0.8358
H15_5 H 0.8553 0.0068 0.8334
C11_6 C 0.6793(15) 0.0621(11) 0.8030(3)
H6_6 H 0.7327 0.0890 0.7937
H7_6 H 0.6355 0.0409 0.7895
C12_6 C 0.7864(14) 0.0344(11) 0.6891(4)
C16_6 C 0.673(3) 0.125(2) 0.8207(6)
H12_6 H 0.7231 0.1778 0.8176
H13_6 H 0.6271 0.1308 0.8131
C28_6 C 0.6541(15) 0.0495(10) 0.8636(3)
H21_6 H 0.6007 0.0230 0.8729
H22_6 H 0.6979 0.0721 0.8771
C33_6 C 0.661(3) 0.119(2) 0.8459(6)
H27_6 H 0.6103 0.1214 0.8490
H28_6 H 0.7063 0.1704 0.8535
O8_6 O 0.5128(10) 0.8949(7) 0.0021(2)
O11_6 O 0.5245(9) 0.6395(7) 0.0026(2)
Fe1_8 Fe 0.6667(3) 0.8416(2) 0.8333
O5_6 O 0.7747(12) 0.8670(9) 0.7880(2)
N1_6 N 0.7261(13) 0.8246(10) 0.8623(3)
N2_6 N 0.7633(13) 0.8546(9) 0.8153(3)
N3_6 N 0.6695(16) 0.9226(11) 0.8092(3)
O6_6 O 0.7003(14) 0.8108(11) 0.8879(2)
C1_6 C 0.7576(8) 0.8216(6) 0.70151(19)
C2_6 C 0.7328(8) 0.8104(6) 0.72841(19)
H1_6 H 0.7210 0.7614 0.7373
C3_6 C 0.7256(10) 0.8723(7) 0.74196(14)
C4_6 C 0.7432(9) 0.9455(6) 0.7286(2)
H2_6 H 0.7384 0.9869 0.7377
C5_6 C 0.7681(9) 0.9567(6) 0.70172(19)
C6_6 C 0.7753(10) 0.8948(7) 0.68816(14)
H3_6 H 0.7920 0.9023 0.6701
C7_6 C 0.7805(16) 0.7653(12) 0.6863(3)
O7_6 O 0.6801(14) 0.9194(10) 0.7829(3)
C8_6 C 0.7966(16) 0.8312(11) 0.8562(4)
C9_6 C 0.6716(18) 0.9894(14) 0.8202(4)
C10_6 C 0.8538(17) 0.8221(13) 0.8772(4)
H4_6 H 0.8669 0.8627 0.8915
H5_6 H 0.8236 0.7669 0.8853
C13_6 C 0.8189(14) 0.8448(8) 0.8282(4)
B1_6 B 0.7014(23) 0.8563(17) 0.7736(3)
C14_6 C 0.8922(18) 0.8453(14) 0.8157(4)
H8_6 H 0.9309 0.9004 0.8087
H9_6 H 0.8744 0.8056 0.8009
C15_6 C 0.9309(21) 0.8337(16) 0.8657(4)
H10_6 H 0.9743 0.8904 0.8697
H11_6 H 0.9453 0.7968 0.8752
C17_6 C 0.9344(22) 0.8208(18) 0.8380(4)
H14_6 H 0.9133 0.7614 0.8358
H15_6 H 0.9932 0.8484 0.8334
O9_6 O 0.5736(11) 0.6039(8) 0.9661(2)
O10_6 O 0.5476(10) 0.9745(7) 0.9653(2)
O12_6 O 0.5587(12) 0.7590(8) 0.8786(2)
N4_6 N 0.6073(13) 0.7652(8) 0.8043(3)
N5_6 N 0.5701(13) 0.7580(10) 0.8513(3)
N6_6 N 0.6639(16) 0.9198(11) 0.8574(3)
O13_6 O 0.6331(14) 0.7772(9) 0.7787(2)
C18_6 C 0.5758(8) 0.7307(6) 0.96515(19)
C19_6 C 0.6006(8) 0.7443(6) 0.93825(19)
H16_6 H 0.6124 0.7071 0.9293
C20_6 C 0.6078(10) 0.8134(7) 0.92470(14)
C21_6 C 0.5902(9) 0.8690(7) 0.9380(2)
H17_6 H 0.5950 0.9152 0.9289
C22_6 C 0.5653(9) 0.8553(7) 0.96494(19)
C23_6 C 0.5581(10) 0.7862(7) 0.97850(14)
H18_6 H 0.5414 0.7770 0.9965
C24_6 C 0.5529(16) 0.6515(11) 0.9803(3)
O14_6 O 0.6533(14) 0.9060(10) 0.8837(3)
C25_6 C 0.5368(16) 0.7013(12) 0.8104(4)
C26_6 C 0.6618(18) 0.9845(12) 0.8464(4)
C27_6 C 0.4796(17) 0.6350(11) 0.7894(4)
H19_6 H 0.4665 0.6625 0.7751
H20_6 H 0.5098 0.6100 0.7813
C29_6 C 0.5470(14) 0.9147(9) 0.9775(4)
C30_6 C 0.5145(14) 0.6926(11) 0.8384(4)
B2_6 B 0.6320(23) 0.8216(15) 0.8930(3)
C31_6 C 0.4412(18) 0.6198(11) 0.8509(4)
H23_6 H 0.4025 0.6362 0.8579
H24_6 H 0.4590 0.5979 0.8657
C32_6 C 0.4025(21) 0.5695(14) 0.8009(4)
H25_6 H 0.3591 0.5828 0.7969
H26_6 H 0.3881 0.5182 0.7914
C34_6 C 0.3990(22) 0.5531(13) 0.8286(4)
H29_6 H 0.4201 0.5148 0.8308
H30_6 H 0.3402 0.5219 0.8332
O17_7 O 0.4264(11) 0.0304(7) 0.0339(2)
O19_7 O 0.5730(7) 0.0255(7) 0.0347(2)
O16_7 O 0.6178(7) 0.1051(7) 0.9979(2)
O20_7 O 0.4755(9) 0.1151(6) 0.9974(2)
O17_8 O 0.6039(13) 0.5736(11) 0.0339(2)
O19_8 O 0.4524(10) 0.4270(7) 0.0347(2)
O16_8 O 0.4872(10) 0.3822(7) 0.9979(2)
O20_8 O 0.6395(11) 0.5245(9) 0.9974(2)
O17_9 O 0.9696(7) 0.3961(13) 0.0339(2)
O19_9 O 0.9745(7) 0.5476(10) 0.0347(2)
O16_9 O 0.8949(7) 0.5128(10) 0.9979(2)
O20_9 O 0.8849(6) 0.3605(11) 0.9974(2)
C24_7 C 0.0151(11) 0.2347(12) 0.3137(3)
C27_7 C 0.0316(11) 0.1779(13) 0.1228(4)
H19_7 H 0.0041 0.1373 0.1085
H20_7 H 0.0566 0.2331 0.1147
C31_7 C 0.0468(11) 0.1547(14) 0.1843(4)
H23_7 H 0.0304 0.0996 0.1913
H24_7 H 0.0687 0.1944 0.1991
C32_7 C 0.0971(14) 0.1663(16) 0.1343(4)
H25_7 H 0.0838 0.1096 0.1303
H26_7 H 0.1484 0.2032 0.1248
C34_7 C 0.1135(13) 0.1792(18) 0.1620(4)
H29_7 H 0.1518 0.2386 0.1642
H30_7 H 0.1447 0.1516 0.1666
Fe1_9 Fe 0.8250(2) 0.1584(2) 0.1667
O5_7 O 0.7996(9) 0.2410(8) 0.1214(2)
N1_7 N 0.8420(10) 0.2348(8) 0.1957(3)
N2_7 N 0.8120(9) 0.2420(10) 0.1487(3)
N3_7 N 0.7440(11) 0.0802(11) 0.1426(3)
O6_7 O 0.8558(11) 0.2228(9) 0.2213(2)
C1_7 C 0.8450(6) 0.2693(6) 0.03485(19)
C2_7 C 0.8562(6) 0.2557(6) 0.06175(19)
H1_7 H 0.9052 0.2929 0.0707
C3_7 C 0.7943(7) 0.1866(7) 0.07530(14)
C4_7 C 0.7211(6) 0.1310(7) 0.0620(2)
H2_7 H 0.6797 0.0848 0.0711
C5_7 C 0.7099(6) 0.1447(7) 0.03506(19)
C6_7 C 0.7718(7) 0.2138(7) 0.02150(14)
H3_7 H 0.7643 0.2230 0.0035
C7_7 C 0.9013(12) 0.3485(11) 0.0197(3)
O7_7 O 0.7472(10) 0.0940(10) 0.1163(3)
C8_7 C 0.8354(11) 0.2987(12) 0.1896(4)
C9_7 C 0.6772(14) 0.0155(12) 0.1536(4)
C10_7 C 0.8445(13) 0.3650(11) 0.2106(4)
H4_7 H 0.8039 0.3375 0.2249
H5_7 H 0.8997 0.3900 0.2187
C12_7 C 0.6322(11) 0.0853(9) 0.0225(4)
C13_7 C 0.8218(8) 0.3074(11) 0.1616(4)
B1_7 B 0.8103(17) 0.1784(15) 0.1070(3)
C14_7 C 0.8213(14) 0.3802(11) 0.1491(4)
H8_7 H 0.7662 0.3638 0.1421
H9_7 H 0.8610 0.4021 0.1343
C15_7 C 0.8329(16) 0.4305(14) 0.1991(4)
H10_7 H 0.7762 0.4172 0.2031
H11_7 H 0.8698 0.4818 0.2086
C17_7 C 0.8458(18) 0.4469(13) 0.1714(4)
H14_7 H 0.9052 0.4852 0.1692
H15_7 H 0.8182 0.4781 0.1668
O12_7 O 0.9076(8) 0.1330(9) 0.2120(2)
N4_7 N 0.9014(8) 0.1754(10) 0.1377(3)
N5_7 N 0.9086(10) 0.1454(9) 0.1847(3)
N6_7 N 0.7468(11) 0.0774(11) 0.1908(3)
O13_7 O 0.8894(9) 0.1892(11) 0.1121(2)
C18_7 C 0.9359(6) 0.1784(6) 0.29849(19)
C19_7 C 0.9223(6) 0.1896(6) 0.27159(19)
H16_7 H 0.9595 0.2386 0.2627
C20_7 C 0.8532(7) 0.1277(7) 0.25804(14)
C21_7 C 0.7976(7) 0.0545(6) 0.2714(2)
H17_7 H 0.7514 0.0131 0.2623
C22_7 C 0.8113(7) 0.0433(6) 0.29828(19)
C23_7 C 0.8804(7) 0.1052(7) 0.31184(14)
H18_7 H 0.8896 0.0977 0.3299
O14_7 O 0.7606(10) 0.0806(10) 0.2171(3)
C25_7 C 0.9653(12) 0.1688(11) 0.1438(4)
C26_7 C 0.6821(12) 0.0106(14) 0.1798(4)
C30_7 C 0.9740(11) 0.1552(8) 0.1718(4)
B2_7 B 0.8450(15) 0.1437(17) 0.2264(3)
C11_7 C 0.6045(11) 0.9505(10) 0.1364(3)
H6_7 H 0.5776 0.9770 0.1271
H7_7 H 0.6257 0.9279 0.1229
C16_7 C 0.541(2) 0.881(2) 0.1541(6)
H12_7 H 0.4888 0.8786 0.1510
H13_7 H 0.5358 0.8296 0.1465
C28_7 C 0.6171(10) 0.9379(11) 0.1970(3)
H21_7 H 0.6436 0.9110 0.2063
H22_7 H 0.5945 0.9591 0.2105
C29_7 C 0.7519(9) 0.9656(11) 0.3109(4)
C33_7 C 0.547(2) 0.875(2) 0.1793(6)
H27_7 H 0.5452 0.8222 0.1824
H28_7 H 0.4962 0.8692 0.1869
C11_8 C 0.0495(10) 0.6541(15) 0.1364(3)
H6_8 H 0.0230 0.6007 0.1271
H7_8 H 0.0721 0.6979 0.1229
C16_8 C 0.119(2) 0.661(3) 0.1541(6)
H12_8 H 0.1214 0.6103 0.1510
H13_8 H 0.1704 0.7063 0.1465
C28_8 C 0.0621(11) 0.6793(15) 0.1970(3)
H21_8 H 0.0890 0.7327 0.2063
H22_8 H 0.0409 0.6355 0.2105
C29_8 C 0.0344(11) 0.7864(14) 0.3109(4)
C33_8 C 0.125(2) 0.673(3) 0.1793(6)
H27_8 H 0.1778 0.7231 0.1824
H28_8 H 0.1308 0.6271 0.1869
Fe1_10 Fe 0.8416(2) 0.6667(3) 0.1667
O5_8 O 0.7590(8) 0.5587(12) 0.1214(2)
N1_8 N 0.7652(8) 0.6073(13) 0.1957(3)
N2_8 N 0.7580(10) 0.5701(13) 0.1487(3)
N3_8 N 0.9198(11) 0.6639(16) 0.1426(3)
O6_8 O 0.7772(9) 0.6331(14) 0.2213(2)
C1_8 C 0.7307(6) 0.5758(8) 0.03485(19)
C2_8 C 0.7443(6) 0.6006(8) 0.06175(19)
H1_8 H 0.7071 0.6124 0.0707
C3_8 C 0.8134(7) 0.6078(10) 0.07530(14)
C4_8 C 0.8690(7) 0.5902(9) 0.0620(2)
H2_8 H 0.9152 0.5950 0.0711
C5_8 C 0.8553(7) 0.5653(9) 0.03506(19)
C6_8 C 0.7862(7) 0.5581(10) 0.02150(14)
H3_8 H 0.7770 0.5414 0.0035
C7_8 C 0.6515(11) 0.5529(16) 0.0197(3)
O7_8 O 0.9060(10) 0.6533(14) 0.1163(3)
C8_8 C 0.7013(12) 0.5368(16) 0.1896(4)
C9_8 C 0.9845(12) 0.6618(18) 0.1536(4)
C10_8 C 0.6350(11) 0.4796(17) 0.2106(4)
H4_8 H 0.6625 0.4665 0.2249
H5_8 H 0.6100 0.5098 0.2187
C12_8 C 0.9147(9) 0.5470(14) 0.0225(4)
C13_8 C 0.6926(11) 0.5145(14) 0.1616(4)
B1_8 B 0.8216(15) 0.6320(23) 0.1070(3)
C14_8 C 0.6198(11) 0.4412(18) 0.1491(4)
H8_8 H 0.6362 0.4025 0.1421
H9_8 H 0.5979 0.4590 0.1343
C15_8 C 0.5695(14) 0.4025(21) 0.1991(4)
H10_8 H 0.5828 0.3591 0.2031
H11_8 H 0.5182 0.3881 0.2086
C17_8 C 0.5531(13) 0.3990(22) 0.1714(4)
H14_8 H 0.5148 0.4201 0.1692
H15_8 H 0.5219 0.3402 0.1668
O12_8 O 0.8670(9) 0.7747(12) 0.2120(2)
N4_8 N 0.8246(10) 0.7261(13) 0.1377(3)
N5_8 N 0.8546(9) 0.7633(13) 0.1847(3)
N6_8 N 0.9226(11) 0.6695(16) 0.1908(3)
O13_8 O 0.8108(11) 0.7003(14) 0.1121(2)
C18_8 C 0.8216(6) 0.7576(8) 0.29849(19)
C19_8 C 0.8104(6) 0.7328(8) 0.27159(19)
H16_8 H 0.7614 0.7210 0.2627
C20_8 C 0.8723(7) 0.7256(10) 0.25804(14)
C21_8 C 0.9455(6) 0.7432(9) 0.2714(2)
H17_8 H 0.9869 0.7384 0.2623
C22_8 C 0.9567(6) 0.7681(9) 0.29828(19)
C23_8 C 0.8948(7) 0.7753(10) 0.31184(14)
H18_8 H 0.9023 0.7920 0.3299
C24_8 C 0.7653(12) 0.7805(16) 0.3137(3)
O14_8 O 0.9194(10) 0.6801(14) 0.2171(3)
C25_8 C 0.8312(11) 0.7966(16) 0.1438(4)
C26_8 C 0.9894(14) 0.6716(18) 0.1798(4)
C27_8 C 0.8221(13) 0.8538(17) 0.1228(4)
H19_8 H 0.8627 0.8669 0.1085
H20_8 H 0.7669 0.8236 0.1147
C30_8 C 0.8448(8) 0.8189(14) 0.1718(4)
B2_8 B 0.8563(17) 0.7014(23) 0.2264(3)
C31_8 C 0.8453(14) 0.8922(18) 0.1843(4)
H23_8 H 0.9004 0.9309 0.1913
H24_8 H 0.8056 0.8744 0.1991
C32_8 C 0.8337(16) 0.9309(21) 0.1343(4)
H25_8 H 0.8904 0.9743 0.1303
H26_8 H 0.7968 0.9453 0.1248
C34_8 C 0.8208(18) 0.9344(22) 0.1620(4)
H29_8 H 0.7614 0.9133 0.1642
H30_8 H 0.8484 0.9932 0.1666
Fe1_11 Fe 0.3333(3) 0.1750(2) 0.1667
O5_9 O 0.4413(12) 0.2004(9) 0.1214(2)
N1_9 N 0.3927(13) 0.1580(10) 0.1957(3)
N2_9 N 0.4299(13) 0.1880(9) 0.1487(3)
N3_9 N 0.3361(16) 0.2560(11) 0.1426(3)
O6_9 O 0.3669(14) 0.1442(11) 0.2213(2)
C1_9 C 0.4242(8) 0.1550(6) 0.03485(19)
C2_9 C 0.3994(8) 0.1438(6) 0.06175(19)
H1_9 H 0.3876 0.0948 0.0707
C3_9 C 0.3922(10) 0.2057(7) 0.07530(14)
C4_9 C 0.4098(9) 0.2789(6) 0.0620(2)
H2_9 H 0.4050 0.3203 0.0711
C5_9 C 0.4347(9) 0.2901(6) 0.03506(19)
C6_9 C 0.4419(10) 0.2282(7) 0.02150(14)
H3_9 H 0.4586 0.2357 0.0035
C7_9 C 0.4471(16) 0.0987(12) 0.0197(3)
O7_9 O 0.3467(14) 0.2528(10) 0.1163(3)
C8_9 C 0.4632(16) 0.1646(11) 0.1896(4)
C9_9 C 0.3382(18) 0.3228(14) 0.1536(4)
C10_9 C 0.5204(17) 0.1555(13) 0.2106(4)
H4_9 H 0.5335 0.1961 0.2249
H5_9 H 0.4902 0.1003 0.2187
C11_9 C 0.3459(15) 0.3955(11) 0.1364(3)
H6_9 H 0.3993 0.4224 0.1271
H7_9 H 0.3021 0.3743 0.1229
C12_9 C 0.4530(14) 0.3678(11) 0.0225(4)
C13_9 C 0.4855(14) 0.1782(8) 0.1616(4)
B1_9 B 0.3680(23) 0.1897(17) 0.1070(3)
C14_9 C 0.5588(18) 0.1787(14) 0.1491(4)
H8_9 H 0.5975 0.2338 0.1421
H9_9 H 0.5410 0.1390 0.1343
C15_9 C 0.5975(21) 0.1671(16) 0.1991(4)
H10_9 H 0.6409 0.2238 0.2031
H11_9 H 0.6119 0.1302 0.2086
C16_9 C 0.339(3) 0.459(2) 0.1541(6)
H12_9 H 0.3897 0.5112 0.1510
H13_9 H 0.2937 0.4642 0.1465
C17_9 C 0.6010(22) 0.1542(18) 0.1714(4)
H14_9 H 0.5799 0.0948 0.1692
H15_9 H 0.6598 0.1818 0.1668
O12_9 O 0.2253(12) 0.0924(8) 0.2120(2)
N4_9 N 0.2739(13) 0.0986(8) 0.1377(3)
N5_9 N 0.2367(13) 0.0914(10) 0.1847(3)
N6_9 N 0.3305(16) 0.2532(11) 0.1908(3)
O13_9 O 0.2997(14) 0.1106(9) 0.1121(2)
C18_9 C 0.2424(8) 0.0641(6) 0.29849(19)
C19_9 C 0.2672(8) 0.0777(6) 0.27159(19)
H16_9 H 0.2790 0.0405 0.2627
C20_9 C 0.2744(10) 0.1468(7) 0.25804(14)
C21_9 C 0.2568(9) 0.2024(7) 0.2714(2)
H17_9 H 0.2616 0.2486 0.2623
C22_9 C 0.2319(9) 0.1887(7) 0.29828(19)
C23_9 C 0.2247(10) 0.1196(7) 0.31184(14)
H18_9 H 0.2080 0.1104 0.3299
O14_9 O 0.3199(14) 0.2394(10) 0.2171(3)
C25_9 C 0.2034(16) 0.0347(12) 0.1438(4)
C26_9 C 0.3284(18) 0.3179(12) 0.1798(4)
C28_9 C 0.3207(15) 0.3829(10) 0.1970(3)
H21_9 H 0.2673 0.3564 0.2063
H22_9 H 0.3645 0.4055 0.2105
C29_9 C 0.2136(14) 0.2481(9) 0.3109(4)
C30_9 C 0.1811(14) 0.0260(11) 0.1718(4)
B2_9 B 0.2986(23) 0.1550(15) 0.2264(3)
C33_9 C 0.327(3) 0.453(2) 0.1793(6)
H27_9 H 0.2769 0.4548 0.1824
H28_9 H 0.3729 0.5038 0.1869
C24_9 C 0.2195(16) 0.9849(11) 0.3137(3)
C27_9 C 0.1462(17) 0.9684(11) 0.1228(4)
H19_9 H 0.1331 0.9959 0.1085
H20_9 H 0.1764 0.9434 0.1147
C31_9 C 0.1078(18) 0.9532(11) 0.1843(4)
H23_9 H 0.0691 0.9696 0.1913
H24_9 H 0.1256 0.9313 0.1991
C32_9 C 0.0691(21) 0.9029(14) 0.1343(4)
H25_9 H 0.0257 0.9162 0.1303
H26_9 H 0.0547 0.8516 0.1248
C34_9 C 0.0656(22) 0.8865(13) 0.1620(4)
H29_9 H 0.0867 0.8482 0.1642
H30_9 H 0.0068 0.8553 0.1666
loop_
_geom_bond_atom_site_label_1
_geom_bond_atom_site_label_2
_geom_bond_site_symmetry_1
_geom_bond_site_symmetry_2
Fe1 N1 1_555 1_555
Cu1 O4 1_555 1_555
O1 C12 1_555 1_555
O2 C7 1_555 1_555
O3 C12 1_555 1_555
O4 C7 1_555 1_555
O5 N2 1_555 1_555
N1 O6 1_555 1_555
N2 Fe1 1_555 1_555
N3 Fe1 1_555 1_555
O6 B2 1_555 1_555
C1 C2 1_555 1_555
C2 H1 1_555 1_555
C3 C2 1_555 1_555
C4 C3 1_555 1_555
H2 C4 1_555 1_555
C5 C4 1_555 1_555
C6 C1 1_555 1_555
H3 C6 1_555 1_555
C7 C1 1_555 1_555
O7 N3 1_555 1_555
C8 N1 1_555 1_555
C9 N3 1_555 1_555
C10 C8 1_555 1_555
H4 C10 1_555 1_555
H5 C10 1_555 1_555
C11 C9 1_555 1_555
H6 C11 1_555 1_555
H7 C11 1_555 1_555
C12 C5 1_555 1_555
C13 N2 1_555 1_555
B1 O5 1_555 1_555
C14 C13 1_555 1_555
H8 C14 1_555 1_555
H9 C14 1_555 1_555
C15 C10 1_555 1_555
H10 C15 1_555 1_555
H11 C15 1_555 1_555
C16 C11 1_555 1_555
H12 C16 1_555 1_555
H13 C16 1_555 1_555
C17 C14 1_555 1_555
H14 C17 1_555 1_555
H15 C17 1_555 1_555
O8 C29 1_555 1_555
O9 C24 1_555 1_555
O10 C29 1_555 1_555
O11 C24 1_555 1_555
O12 N5 1_555 1_555
N4 Fe1 1_555 1_555
N5 Fe1 1_555 1_555
N6 Fe1 1_555 1_555
O13 B1 1_555 1_555
C18 C19 1_555 1_555
C19 H16 1_555 1_555
C20 C19 1_555 1_555
C21 C20 1_555 1_555
H17 C21 1_555 1_555
C22 C21 1_555 1_555
C23 C18 1_555 1_555
H18 C23 1_555 1_555
C24 C18 1_555 1_555
O14 N6 1_555 1_555
C25 N4 1_555 1_555
C26 C9 1_555 1_555
C27 C25 1_555 1_555
H19 C27 1_555 1_555
H20 C27 1_555 1_555
C28 C26 1_555 1_555
H21 C28 1_555 1_555
H22 C28 1_555 1_555
C29 C22 1_555 1_555
C30 N5 1_555 1_555
B2 O12 1_555 1_555
C31 C30 1_555 1_555
H23 C31 1_555 1_555
H24 C31 1_555 1_555
C32 C27 1_555 1_555
H25 C32 1_555 1_555
H26 C32 1_555 1_555
C33 C16 1_555 1_555
H27 C33 1_555 1_555
H28 C33 1_555 1_555
C34 C31 1_555 1_555
H29 C34 1_555 1_555
H30 C34 1_555 1_555
Cu2 Cu1 1_555 1_555
Cu3 O1 1_555 1_555
Cu4 O11 1_555 1_555
Cu5 O8 1_555 1_555
Cu6 O10 1_555 1_555
Cu7 O9 1_555 1_555
Cu8 O3 1_555 1_555
O15 Cu1 1_555 1_555
O16 Cu2 1_555 1_555
O17 Cu1 1_555 1_555
O18 Cu2 1_555 1_555
O19 Cu1 1_555 1_555
O20 Cu2 1_555 1_555
O2 Cu2 1_555 1_555
C3 B1 1_555 1_555
C5 C6 1_555 1_555
O7 B1 1_555 1_555
C8 C13 1_555 1_555
C15 C17 1_555 1_555
N4 O13 1_555 1_555
N6 C26 1_555 1_555
C20 B2 1_555 1_555
C22 C23 1_555 1_555
O14 B2 1_555 1_555
C25 C30 1_555 1_555
C28 C33 1_555 1_555
C32 C34 1_555 1_555
Cu3 Cu8 1_555 1_555
Cu4 Cu7 1_555 1_555
Cu5 Cu6 1_555 1_555
O8_2 C29_2 1_555 1_555
O9_2 C24_2 1_555 1_555
O10_2 C29_2 1_555 1_555
O11_2 C24_2 1_555 1_555
O12_2 N5_2 1_555 1_555
N4_2 Fe1_2 1_555 1_555
N5_2 Fe1_2 1_555 1_555
N6_2 Fe1_2 1_555 1_555
C18_2 C19_2 1_555 1_555
C19_2 H16_2 1_555 1_555
C20_2 C19_2 1_555 1_555
C21_2 C20_2 1_555 1_555
H17_2 C21_2 1_555 1_555
C22_2 C21_2 1_555 1_555
C23_2 C18_2 1_555 1_555
H18_2 C23_2 1_555 1_555
C24_2 C18_2 1_555 1_555
O14_2 N6_2 1_555 1_555
C25_2 N4_2 1_555 1_555
C27_2 C25_2 1_555 1_555
H19_2 C27_2 1_555 1_555
H20_2 C27_2 1_555 1_555
C28_2 C26_2 1_555 1_555
H21_2 C28_2 1_555 1_555
C29_2 C22_2 1_555 1_555
C30_2 N5_2 1_555 1_555
B2_2 O12_2 1_555 1_555
C31_2 C30_2 1_555 1_555
H23_2 C31_2 1_555 1_555
H24_2 C31_2 1_555 1_555
C32_2 C27_2 1_555 1_555
H25_2 C32_2 1_555 1_555
H26_2 C32_2 1_555 1_555
H27_2 C33_2 1_555 1_555
C34_2 C31_2 1_555 1_555
H29_2 C34_2 1_555 1_555
H30_2 C34_2 1_555 1_555
Cu5 O11_2 1_555 1_555
Cu5_2 O8_2 1_555 1_555
Cu6_2 O10_2 1_555 1_555
Cu6 O9_2 1_555 1_555
N4_2 O13_2 1_555 1_555
N6_2 C26_2 1_555 1_555
C20_2 B2_2 1_555 1_555
C22_2 C23_2 1_555 1_555
O14_2 B2_2 1_555 1_555
C25_2 C30_2 1_555 1_555
C28_2 C33_2 1_555 1_555
C32_2 C34_2 1_555 1_555
Cu5_2 Cu6_2 1_555 1_555
Fe1_3 N1_2 1_555 1_555
Cu1_2 O4_2 1_555 1_555
O15 C12_2 1_555 1_555
O2_2 C7_2 1_555 1_555
O18 C12_2 1_555 1_555
O4_2 C7_2 1_555 1_555
O5_2 N2_2 1_555 1_555
N1_2 O6_2 1_555 1_555
N2_2 Fe1_3 1_555 1_555
N3_2 Fe1_3 1_555 1_555
C1_2 C2_2 1_555 1_555
C2_2 H1_2 1_555 1_555
C3_2 C2_2 1_555 1_555
C4_2 C3_2 1_555 1_555
H2_2 C4_2 1_555 1_555
C5_2 C4_2 1_555 1_555
C6_2 C1_2 1_555 1_555
H3_2 C6_2 1_555 1_555
C7_2 C1_2 1_555 1_555
O7_2 N3_2 1_555 1_555
C8_2 N1_2 1_555 1_555
C9_2 N3_2 1_555 1_555
C10_2 C8_2 1_555 1_555
H4_2 C10_2 1_555 1_555
H5_2 C10_2 1_555 1_555
C11_2 C9_2 1_555 1_555
H6_2 C11_2 1_555 1_555
C12_2 C5_2 1_555 1_555
C13_2 N2_2 1_555 1_555
B1_2 O5_2 1_555 1_555
C14_2 C13_2 1_555 1_555
H8_2 C14_2 1_555 1_555
H9_2 C14_2 1_555 1_555
C15_2 C10_2 1_555 1_555
H10_2 C15_2 1_555 1_555
H11_2 C15_2 1_555 1_555
C16_2 C11_2 1_555 1_555
H12_2 C16_2 1_555 1_555
C17_2 C14_2 1_555 1_555
H14_2 C17_2 1_555 1_555
H15_2 C17_2 1_555 1_555
Cu2_2 Cu1_2 1_555 1_555
O15_2 Cu1_2 1_555 1_555
O16_2 Cu2_2 1_555 1_555
O17_2 Cu1_2 1_555 1_555
O18_2 Cu2_2 1_555 1_555
O19_2 Cu1_2 1_555 1_555
O20_2 Cu2_2 1_555 1_555
O2_2 Cu2_2 1_555 1_555
C3_2 B1_2 1_555 1_555
C5_2 C6_2 1_555 1_555
O7_2 B1_2 1_555 1_555
C8_2 C13_2 1_555 1_555
C15_2 C17_2 1_555 1_555
Fe1_4 N1_3 1_555 1_555
Cu3 O4_3 1_555 1_555
O15_2 C12_3 1_555 1_555
O2_3 C7_3 1_555 1_555
O18_2 C12_3 1_555 1_555
O4_3 C7_3 1_555 1_555
O5_3 N2_3 1_555 1_555
N1_3 O6_3 1_555 1_555
N2_3 Fe1_4 1_555 1_555
N3_3 Fe1_4 1_555 1_555
C1_3 C2_3 1_555 1_555
C2_3 H1_3 1_555 1_555
C3_3 C2_3 1_555 1_555
C4_3 C3_3 1_555 1_555
H2_3 C4_3 1_555 1_555
C5_3 C4_3 1_555 1_555
C6_3 C1_3 1_555 1_555
H3_3 C6_3 1_555 1_555
C7_3 C1_3 1_555 1_555
O7_3 N3_3 1_555 1_555
C8_3 N1_3 1_555 1_555
C9_3 N3_3 1_555 1_555
C10_3 C8_3 1_555 1_555
H4_3 C10_3 1_555 1_555
H5_3 C10_3 1_555 1_555
C11_3 C9_3 1_555 1_555
H6_3 C11_3 1_555 1_555
C12_3 C5_3 1_555 1_555
C13_3 N2_3 1_555 1_555
B1_3 O5_3 1_555 1_555
C14_3 C13_3 1_555 1_555
H8_3 C14_3 1_555 1_555
H9_3 C14_3 1_555 1_555
C15_3 C10_3 1_555 1_555
H10_3 C15_3 1_555 1_555
H11_3 C15_3 1_555 1_555
C16_3 C11_3 1_555 1_555
H12_3 C16_3 1_555 1_555
C17_3 C14_3 1_555 1_555
H14_3 C17_3 1_555 1_555
H15_3 C17_3 1_555 1_555
O16_3 Cu8 1_555 1_555
O17_3 Cu3 1_555 1_555
O19_3 Cu3 1_555 1_555
O20_3 Cu8 1_555 1_555
O2_3 Cu8 1_555 1_555
C3_3 B1_3 1_555 1_555
C5_3 C6_3 1_555 1_555
O7_3 B1_3 1_555 1_555
C8_3 C13_3 1_555 1_555
C15_3 C17_3 1_555 1_555
O8_3 C29_3 1_555 1_555
O9_3 C24_3 1_555 1_555
O10_3 C29_3 1_555 1_555
O11_3 C24_3 1_555 1_555
O12_3 N5_3 1_555 1_555
N4_3 Fe1_5 1_555 1_555
N5_3 Fe1_5 1_555 1_555
N6_3 Fe1_5 1_555 1_555
C18_3 C19_3 1_555 1_555
C19_3 H16_3 1_555 1_555
C20_3 C19_3 1_555 1_555
C21_3 C20_3 1_555 1_555
H17_3 C21_3 1_555 1_555
C22_3 C21_3 1_555 1_555
C23_3 C18_3 1_555 1_555
H18_3 C23_3 1_555 1_555
C24_3 C18_3 1_555 1_555
O14_3 N6_3 1_555 1_555
C25_3 N4_3 1_555 1_555
C27_3 C25_3 1_555 1_555
H19_3 C27_3 1_555 1_555
H20_3 C27_3 1_555 1_555
C28_3 C26_3 1_555 1_555
H21_3 C28_3 1_555 1_555
C29_3 C22_3 1_555 1_555
C30_3 N5_3 1_555 1_555
B2_3 O12_3 1_555 1_555
C31_3 C30_3 1_555 1_555
H23_3 C31_3 1_555 1_555
H24_3 C31_3 1_555 1_555
C32_3 C27_3 1_555 1_555
H25_3 C32_3 1_555 1_555
H26_3 C32_3 1_555 1_555
H27_3 C33_3 1_555 1_555
C34_3 C31_3 1_555 1_555
H29_3 C34_3 1_555 1_555
H30_3 C34_3 1_555 1_555
Cu5_2 O11_3 1_555 1_555
Cu4 O8_3 1_555 1_555
Cu7 O10_3 1_555 1_555
Cu6_2 O9_3 1_555 1_555
N4_3 O13_3 1_555 1_555
N6_3 C26_3 1_555 1_555
C20_3 B2_3 1_555 1_555
C22_3 C23_3 1_555 1_555
O14_3 B2_3 1_555 1_555
C25_3 C30_3 1_555 1_555
C28_3 C33_3 1_555 1_555
C32_3 C34_3 1_555 1_555
O16_4 Cu7 1_555 1_555
O17_4 Cu4 1_555 1_555
O19_4 Cu4 1_555 1_555
O20_4 Cu7 1_555 1_555
O16_5 Cu6_2 1_555 1_555
O17_5 Cu5_2 1_555 1_555
O19_5 Cu5_2 1_555 1_555
O20_5 Cu6_2 1_555 1_555
O16_6 Cu6 1_555 1_555
O17_6 Cu5 1_555 1_555
O19_6 Cu5 1_555 1_555
O20_6 Cu6 1_555 1_555
O17_6 C7_4 1_555 1_555
O20_6 C7_4 1_555 1_555
H4_4 C10_4 1_555 1_555
H5_4 C10_4 1_555 1_555
H8_4 C14_4 1_555 1_555
H9_4 C14_4 1_555 1_555
C15_4 C10_4 1_555 1_555
H10_4 C15_4 1_555 1_555
H11_4 C15_4 1_555 1_555
C17_4 C14_4 1_555 1_555
H14_4 C17_4 1_555 1_555
H15_4 C17_4 1_555 1_555
C15_4 C17_4 1_555 1_555
Cu4_2 O11_4 1_555 1_555
Cu5_3 O8_4 1_555 1_555
Fe1_6 N1_4 1_555 1_555
O5_4 N2_4 1_555 1_555
N1_4 O6_4 1_555 1_555
N2_4 Fe1_6 1_555 1_555
N3_4 Fe1_6 1_555 1_555
O6_4 B2_4 1_555 1_555
C1_4 C2_4 1_555 1_555
C2_4 H1_4 1_555 1_555
C3_4 C2_4 1_555 1_555
C4_4 C3_4 1_555 1_555
H2_4 C4_4 1_555 1_555
C5_4 C4_4 1_555 1_555
C6_4 C1_4 1_555 1_555
H3_4 C6_4 1_555 1_555
O7_4 N3_4 1_555 1_555
C8_4 N1_4 1_555 1_555
C9_4 N3_4 1_555 1_555
C13_4 N2_4 1_555 1_555
B1_4 O5_4 1_555 1_555
O9_4 C24_4 1_555 1_555
O10_4 C29_4 1_555 1_555
O12_4 N5_4 1_555 1_555
N4_4 Fe1_6 1_555 1_555
N5_4 Fe1_6 1_555 1_555
N6_4 Fe1_6 1_555 1_555
O13_4 B1_4 1_555 1_555
C18_4 C19_4 1_555 1_555
C19_4 H16_4 1_555 1_555
C20_4 C19_4 1_555 1_555
C21_4 C20_4 1_555 1_555
H17_4 C21_4 1_555 1_555
C22_4 C21_4 1_555 1_555
C23_4 C18_4 1_555 1_555
H18_4 C23_4 1_555 1_555
C24_4 C18_4 1_555 1_555
O14_4 N6_4 1_555 1_555
C25_4 N4_4 1_555 1_555
C26_4 C9_4 1_555 1_555
C27_4 C25_4 1_555 1_555
H19_4 C27_4 1_555 1_555
H20_4 C27_4 1_555 1_555
C29_4 C22_4 1_555 1_555
C30_4 N5_4 1_555 1_555
B2_4 O12_4 1_555 1_555
C31_4 C30_4 1_555 1_555
H23_4 C31_4 1_555 1_555
H24_4 C31_4 1_555 1_555
C32_4 C27_4 1_555 1_555
H25_4 C32_4 1_555 1_555
H26_4 C32_4 1_555 1_555
C34_4 C31_4 1_555 1_555
H29_4 C34_4 1_555 1_555
H30_4 C34_4 1_555 1_555
C3_4 B1_4 1_555 1_555
C5_4 C6_4 1_555 1_555
O7_4 B1_4 1_555 1_555
C8_4 C13_4 1_555 1_555
N4_4 O13_4 1_555 1_555
N6_4 C26_4 1_555 1_555
C20_4 B2_4 1_555 1_555
C22_4 C23_4 1_555 1_555
O14_4 B2_4 1_555 1_555
C25_4 C30_4 1_555 1_555
C32_4 C34_4 1_555 1_555
O16_4 C12_4 1_555 1_555
O19_4 C12_4 1_555 1_555
H6_4 C11_4 1_555 1_555
H7_4 C11_4 1_555 1_555
C16_4 C11_4 1_555 1_555
H12_4 C16_4 1_555 1_555
H13_4 C16_4 1_555 1_555
H21_4 C28_4 1_555 1_555
H22_4 C28_4 1_555 1_555
C33_4 C16_4 1_555 1_555
H27_4 C33_4 1_555 1_555
H28_4 C33_4 1_555 1_555
C28_4 C33_4 1_555 1_555
Cu5_3 O11_5 1_555 1_555
Cu5_4 O8_5 1_555 1_555
Fe1_7 N1_5 1_555 1_555
O16_6 C12_5 1_555 1_555
O19_6 C12_5 1_555 1_555
O5_5 N2_5 1_555 1_555
N1_5 O6_5 1_555 1_555
N2_5 Fe1_7 1_555 1_555
N3_5 Fe1_7 1_555 1_555
O6_5 B2_5 1_555 1_555
C1_5 C2_5 1_555 1_555
C2_5 H1_5 1_555 1_555
C3_5 C2_5 1_555 1_555
C4_5 C3_5 1_555 1_555
H2_5 C4_5 1_555 1_555
C5_5 C4_5 1_555 1_555
C6_5 C1_5 1_555 1_555
H3_5 C6_5 1_555 1_555
O7_5 N3_5 1_555 1_555
C8_5 N1_5 1_555 1_555
C9_5 N3_5 1_555 1_555
C11_5 C9_5 1_555 1_555
H6_5 C11_5 1_555 1_555
H7_5 C11_5 1_555 1_555
C12_5 C5_5 1_555 1_555
C13_5 N2_5 1_555 1_555
B1_5 O5_5 1_555 1_555
C16_5 C11_5 1_555 1_555
H12_5 C16_5 1_555 1_555
H13_5 C16_5 1_555 1_555
O9_5 C24_5 1_555 1_555
O10_5 C29_5 1_555 1_555
O12_5 N5_5 1_555 1_555
N4_5 Fe1_7 1_555 1_555
N5_5 Fe1_7 1_555 1_555
N6_5 Fe1_7 1_555 1_555
O13_5 B1_5 1_555 1_555
C18_5 C19_5 1_555 1_555
C19_5 H16_5 1_555 1_555
C20_5 C19_5 1_555 1_555
C21_5 C20_5 1_555 1_555
H17_5 C21_5 1_555 1_555
C22_5 C21_5 1_555 1_555
C23_5 C18_5 1_555 1_555
H18_5 C23_5 1_555 1_555
C24_5 C18_5 1_555 1_555
O14_5 N6_5 1_555 1_555
C25_5 N4_5 1_555 1_555
C26_5 C9_5 1_555 1_555
C27_5 C25_5 1_555 1_555
H19_5 C27_5 1_555 1_555
H20_5 C27_5 1_555 1_555
C28_5 C26_5 1_555 1_555
H21_5 C28_5 1_555 1_555
H22_5 C28_5 1_555 1_555
C29_5 C22_5 1_555 1_555
C30_5 N5_5 1_555 1_555
B2_5 O12_5 1_555 1_555
C31_5 C30_5 1_555 1_555
H23_5 C31_5 1_555 1_555
H24_5 C31_5 1_555 1_555
C32_5 C27_5 1_555 1_555
H25_5 C32_5 1_555 1_555
H26_5 C32_5 1_555 1_555
C33_5 C16_5 1_555 1_555
H27_5 C33_5 1_555 1_555
H28_5 C33_5 1_555 1_555
C34_5 C31_5 1_555 1_555
H29_5 C34_5 1_555 1_555
H30_5 C34_5 1_555 1_555
Cu6_4 O10_5 1_555 1_555
C3_5 B1_5 1_555 1_555
C5_5 C6_5 1_555 1_555
O7_5 B1_5 1_555 1_555
C8_5 C13_5 1_555 1_555
N4_5 O13_5 1_555 1_555
N6_5 C26_5 1_555 1_555
C20_5 B2_5 1_555 1_555
C22_5 C23_5 1_555 1_555
O14_5 B2_5 1_555 1_555
C25_5 C30_5 1_555 1_555
C28_5 C33_5 1_555 1_555
C32_5 C34_5 1_555 1_555
O17_5 C7_5 1_555 1_555
O20_5 C7_5 1_555 1_555
H4_5 C10_5 1_555 1_555
H5_5 C10_5 1_555 1_555
H8_5 C14_5 1_555 1_555
H9_5 C14_5 1_555 1_555
C15_5 C10_5 1_555 1_555
H10_5 C15_5 1_555 1_555
H11_5 C15_5 1_555 1_555
C17_5 C14_5 1_555 1_555
H14_5 C17_5 1_555 1_555
H15_5 C17_5 1_555 1_555
C15_5 C17_5 1_555 1_555
O16_5 C12_6 1_555 1_555
O19_5 C12_6 1_555 1_555
H6_6 C11_6 1_555 1_555
H7_6 C11_6 1_555 1_555
C16_6 C11_6 1_555 1_555
H12_6 C16_6 1_555 1_555
H13_6 C16_6 1_555 1_555
H21_6 C28_6 1_555 1_555
H22_6 C28_6 1_555 1_555
C33_6 C16_6 1_555 1_555
H27_6 C33_6 1_555 1_555
H28_6 C33_6 1_555 1_555
C28_6 C33_6 1_555 1_555
Cu5_4 O11_6 1_555 1_555
Cu4_2 O8_6 1_555 1_555
Fe1_8 N1_6 1_555 1_555
O17_4 C7_6 1_555 1_555
O20_4 C7_6 1_555 1_555
O5_6 N2_6 1_555 1_555
N1_6 O6_6 1_555 1_555
N2_6 Fe1_8 1_555 1_555
N3_6 Fe1_8 1_555 1_555
O6_6 B2_6 1_555 1_555
C1_6 C2_6 1_555 1_555
C2_6 H1_6 1_555 1_555
C3_6 C2_6 1_555 1_555
C4_6 C3_6 1_555 1_555
H2_6 C4_6 1_555 1_555
C5_6 C4_6 1_555 1_555
C6_6 C1_6 1_555 1_555
H3_6 C6_6 1_555 1_555
C7_6 C1_6 1_555 1_555
O7_6 N3_6 1_555 1_555
C8_6 N1_6 1_555 1_555
C9_6 N3_6 1_555 1_555
C10_6 C8_6 1_555 1_555
H4_6 C10_6 1_555 1_555
H5_6 C10_6 1_555 1_555
C13_6 N2_6 1_555 1_555
B1_6 O5_6 1_555 1_555
C14_6 C13_6 1_555 1_555
H8_6 C14_6 1_555 1_555
H9_6 C14_6 1_555 1_555
C15_6 C10_6 1_555 1_555
H10_6 C15_6 1_555 1_555
H11_6 C15_6 1_555 1_555
C17_6 C14_6 1_555 1_555
H14_6 C17_6 1_555 1_555
H15_6 C17_6 1_555 1_555
O9_6 C24_6 1_555 1_555
O10_6 C29_6 1_555 1_555
O12_6 N5_6 1_555 1_555
N4_6 Fe1_8 1_555 1_555
N5_6 Fe1_8 1_555 1_555
N6_6 Fe1_8 1_555 1_555
O13_6 B1_6 1_555 1_555
C18_6 C19_6 1_555 1_555
C19_6 H16_6 1_555 1_555
C20_6 C19_6 1_555 1_555
C21_6 C20_6 1_555 1_555
H17_6 C21_6 1_555 1_555
C22_6 C21_6 1_555 1_555
C23_6 C18_6 1_555 1_555
H18_6 C23_6 1_555 1_555
C24_6 C18_6 1_555 1_555
O14_6 N6_6 1_555 1_555
C25_6 N4_6 1_555 1_555
C26_6 C9_6 1_555 1_555
C27_6 C25_6 1_555 1_555
H19_6 C27_6 1_555 1_555
H20_6 C27_6 1_555 1_555
C29_6 C22_6 1_555 1_555
C30_6 N5_6 1_555 1_555
B2_6 O12_6 1_555 1_555
C31_6 C30_6 1_555 1_555
H23_6 C31_6 1_555 1_555
H24_6 C31_6 1_555 1_555
C32_6 C27_6 1_555 1_555
H25_6 C32_6 1_555 1_555
H26_6 C32_6 1_555 1_555
C34_6 C31_6 1_555 1_555
H29_6 C34_6 1_555 1_555
H30_6 C34_6 1_555 1_555
Cu6_4 O9_6 1_555 1_555
C3_6 B1_6 1_555 1_555
C5_6 C6_6 1_555 1_555
O7_6 B1_6 1_555 1_555
C8_6 C13_6 1_555 1_555
C15_6 C17_6 1_555 1_555
N4_6 O13_6 1_555 1_555
N6_6 C26_6 1_555 1_555
C20_6 B2_6 1_555 1_555
C22_6 C23_6 1_555 1_555
O14_6 B2_6 1_555 1_555
C25_6 C30_6 1_555 1_555
C32_6 C34_6 1_555 1_555
O16_7 Cu7_2 1_555 1_555
O20_7 Cu7_2 1_555 1_555
O17_8 Cu5_4 1_555 1_555
O19_8 Cu5_4 1_555 1_555
O16_8 Cu6_4 1_555 1_555
O20_8 Cu6_4 1_555 1_555
O16_9 Cu6_3 1_555 1_555
O20_9 Cu6_3 1_555 1_555
O17_3 C24_7 1_555 1_555
O20_3 C24_7 1_555 1_555
H19_7 C27_7 1_555 1_555
H20_7 C27_7 1_555 1_555
H23_7 C31_7 1_555 1_555
H24_7 C31_7 1_555 1_555
C32_7 C27_7 1_555 1_555
H25_7 C32_7 1_555 1_555
H26_7 C32_7 1_555 1_555
C34_7 C31_7 1_555 1_555
H29_7 C34_7 1_555 1_555
H30_7 C34_7 1_555 1_555
C32_7 C34_7 1_555 1_555
Fe1_9 N1_7 1_555 1_555
O17_9 C7_7 1_555 1_555
O19_7 C12_7 1_555 1_555
O5_7 N2_7 1_555 1_555
N1_7 O6_7 1_555 1_555
N2_7 Fe1_9 1_555 1_555
N3_7 Fe1_9 1_555 1_555
O6_7 B2_7 1_555 1_555
C1_7 C2_7 1_555 1_555
C2_7 H1_7 1_555 1_555
C3_7 C2_7 1_555 1_555
C4_7 C3_7 1_555 1_555
H2_7 C4_7 1_555 1_555
C5_7 C4_7 1_555 1_555
C6_7 C1_7 1_555 1_555
H3_7 C6_7 1_555 1_555
C7_7 C1_7 1_555 1_555
O7_7 N3_7 1_555 1_555
C8_7 N1_7 1_555 1_555
C9_7 N3_7 1_555 1_555
C10_7 C8_7 1_555 1_555
H4_7 C10_7 1_555 1_555
H5_7 C10_7 1_555 1_555
C12_7 C5_7 1_555 1_555
C13_7 N2_7 1_555 1_555
B1_7 O5_7 1_555 1_555
C14_7 C13_7 1_555 1_555
H8_7 C14_7 1_555 1_555
H9_7 C14_7 1_555 1_555
C15_7 C10_7 1_555 1_555
H10_7 C15_7 1_555 1_555
H11_7 C15_7 1_555 1_555
C17_7 C14_7 1_555 1_555
H14_7 C17_7 1_555 1_555
H15_7 C17_7 1_555 1_555
O12_7 N5_7 1_555 1_555
N4_7 Fe1_9 1_555 1_555
N5_7 Fe1_9 1_555 1_555
N6_7 Fe1_9 1_555 1_555
O13_7 B1_7 1_555 1_555
C18_7 C19_7 1_555 1_555
C19_7 H16_7 1_555 1_555
C20_7 C19_7 1_555 1_555
C21_7 C20_7 1_555 1_555
H17_7 C21_7 1_555 1_555
C22_7 C21_7 1_555 1_555
C23_7 C18_7 1_555 1_555
H18_7 C23_7 1_555 1_555
O14_7 N6_7 1_555 1_555
C25_7 N4_7 1_555 1_555
C26_7 C9_7 1_555 1_555
C30_7 N5_7 1_555 1_555
B2_7 O12_7 1_555 1_555
C3_7 B1_7 1_555 1_555
C5_7 C6_7 1_555 1_555
O7_7 B1_7 1_555 1_555
C8_7 C13_7 1_555 1_555
C15_7 C17_7 1_555 1_555
N4_7 O13_7 1_555 1_555
N6_7 C26_7 1_555 1_555
C20_7 B2_7 1_555 1_555
C22_7 C23_7 1_555 1_555
O14_7 B2_7 1_555 1_555
C25_7 C30_7 1_555 1_555
H6_7 C11_7 1_555 1_555
H7_7 C11_7 1_555 1_555
C16_7 C11_7 1_555 1_555
H12_7 C16_7 1_555 1_555
H13_7 C16_7 1_555 1_555
O16 C29_7 1_555 1_555
O19 C29_7 1_555 1_555
H21_7 C28_7 1_555 1_555
H22_7 C28_7 1_555 1_555
C33_7 C16_7 1_555 1_555
H27_7 C33_7 1_555 1_555
H28_7 C33_7 1_555 1_555
C28_7 C33_7 1_555 1_555
H6_8 C11_8 1_555 1_555
H7_8 C11_8 1_555 1_555
C16_8 C11_8 1_555 1_555
H12_8 C16_8 1_555 1_555
H13_8 C16_8 1_555 1_555
O16_2 C29_8 1_555 1_555
O19_2 C29_8 1_555 1_555
H21_8 C28_8 1_555 1_555
H22_8 C28_8 1_555 1_555
C33_8 C16_8 1_555 1_555
H27_8 C33_8 1_555 1_555
H28_8 C33_8 1_555 1_555
C28_8 C33_8 1_555 1_555
Fe1_10 N1_8 1_555 1_555
O17_8 C7_8 1_555 1_555
O19_9 C12_8 1_555 1_555
O5_8 N2_8 1_555 1_555
N1_8 O6_8 1_555 1_555
N2_8 Fe1_10 1_555 1_555
N3_8 Fe1_10 1_555 1_555
O6_8 B2_8 1_555 1_555
C1_8 C2_8 1_555 1_555
C2_8 H1_8 1_555 1_555
C3_8 C2_8 1_555 1_555
C4_8 C3_8 1_555 1_555
H2_8 C4_8 1_555 1_555
C5_8 C4_8 1_555 1_555
C6_8 C1_8 1_555 1_555
H3_8 C6_8 1_555 1_555
C7_8 C1_8 1_555 1_555
O7_8 N3_8 1_555 1_555
C8_8 N1_8 1_555 1_555
C9_8 N3_8 1_555 1_555
C10_8 C8_8 1_555 1_555
H4_8 C10_8 1_555 1_555
H5_8 C10_8 1_555 1_555
C12_8 C5_8 1_555 1_555
C13_8 N2_8 1_555 1_555
B1_8 O5_8 1_555 1_555
C14_8 C13_8 1_555 1_555
H8_8 C14_8 1_555 1_555
H9_8 C14_8 1_555 1_555
C15_8 C10_8 1_555 1_555
H10_8 C15_8 1_555 1_555
H11_8 C15_8 1_555 1_555
C17_8 C14_8 1_555 1_555
H14_8 C17_8 1_555 1_555
H15_8 C17_8 1_555 1_555
O17 C24_8 1_555 1_555
O20 C24_8 1_555 1_555
O12_8 N5_8 1_555 1_555
N4_8 Fe1_10 1_555 1_555
N5_8 Fe1_10 1_555 1_555
N6_8 Fe1_10 1_555 1_555
O13_8 B1_8 1_555 1_555
C18_8 C19_8 1_555 1_555
C19_8 H16_8 1_555 1_555
C20_8 C19_8 1_555 1_555
C21_8 C20_8 1_555 1_555
H17_8 C21_8 1_555 1_555
C22_8 C21_8 1_555 1_555
C23_8 C18_8 1_555 1_555
H18_8 C23_8 1_555 1_555
C24_8 C18_8 1_555 1_555
O14_8 N6_8 1_555 1_555
C25_8 N4_8 1_555 1_555
C26_8 C9_8 1_555 1_555
C27_8 C25_8 1_555 1_555
H19_8 C27_8 1_555 1_555
H20_8 C27_8 1_555 1_555
C30_8 N5_8 1_555 1_555
B2_8 O12_8 1_555 1_555
C31_8 C30_8 1_555 1_555
H23_8 C31_8 1_555 1_555
H24_8 C31_8 1_555 1_555
C32_8 C27_8 1_555 1_555
H25_8 C32_8 1_555 1_555
H26_8 C32_8 1_555 1_555
C34_8 C31_8 1_555 1_555
H29_8 C34_8 1_555 1_555
H30_8 C34_8 1_555 1_555
C3_8 B1_8 1_555 1_555
C5_8 C6_8 1_555 1_555
O7_8 B1_8 1_555 1_555
C8_8 C13_8 1_555 1_555
C15_8 C17_8 1_555 1_555
N4_8 O13_8 1_555 1_555
N6_8 C26_8 1_555 1_555
C20_8 B2_8 1_555 1_555
C22_8 C23_8 1_555 1_555
O14_8 B2_8 1_555 1_555
C25_8 C30_8 1_555 1_555
C32_8 C34_8 1_555 1_555
Fe1_11 N1_9 1_555 1_555
O17_7 C7_9 1_555 1_555
O19_8 C12_9 1_555 1_555
O5_9 N2_9 1_555 1_555
N1_9 O6_9 1_555 1_555
N2_9 Fe1_11 1_555 1_555
N3_9 Fe1_11 1_555 1_555
O6_9 B2_9 1_555 1_555
C1_9 C2_9 1_555 1_555
C2_9 H1_9 1_555 1_555
C3_9 C2_9 1_555 1_555
C4_9 C3_9 1_555 1_555
H2_9 C4_9 1_555 1_555
C5_9 C4_9 1_555 1_555
C6_9 C1_9 1_555 1_555
H3_9 C6_9 1_555 1_555
C7_9 C1_9 1_555 1_555
O7_9 N3_9 1_555 1_555
C8_9 N1_9 1_555 1_555
C9_9 N3_9 1_555 1_555
C10_9 C8_9 1_555 1_555
H4_9 C10_9 1_555 1_555
H5_9 C10_9 1_555 1_555
C11_9 C9_9 1_555 1_555
H6_9 C11_9 1_555 1_555
H7_9 C11_9 1_555 1_555
C12_9 C5_9 1_555 1_555
C13_9 N2_9 1_555 1_555
B1_9 O5_9 1_555 1_555
C14_9 C13_9 1_555 1_555
H8_9 C14_9 1_555 1_555
H9_9 C14_9 1_555 1_555
C15_9 C10_9 1_555 1_555
H10_9 C15_9 1_555 1_555
H11_9 C15_9 1_555 1_555
C16_9 C11_9 1_555 1_555
H12_9 C16_9 1_555 1_555
H13_9 C16_9 1_555 1_555
C17_9 C14_9 1_555 1_555
H14_9 C17_9 1_555 1_555
H15_9 C17_9 1_555 1_555
O16_3 C29_9 1_555 1_555
O19_3 C29_9 1_555 1_555
O12_9 N5_9 1_555 1_555
N4_9 Fe1_11 1_555 1_555
N5_9 Fe1_11 1_555 1_555
N6_9 Fe1_11 1_555 1_555
O13_9 B1_9 1_555 1_555
C18_9 C19_9 1_555 1_555
C19_9 H16_9 1_555 1_555
C20_9 C19_9 1_555 1_555
C21_9 C20_9 1_555 1_555
H17_9 C21_9 1_555 1_555
C22_9 C21_9 1_555 1_555
C23_9 C18_9 1_555 1_555
H18_9 C23_9 1_555 1_555
O14_9 N6_9 1_555 1_555
C25_9 N4_9 1_555 1_555
C26_9 C9_9 1_555 1_555
C28_9 C26_9 1_555 1_555
H21_9 C28_9 1_555 1_555
H22_9 C28_9 1_555 1_555
C29_9 C22_9 1_555 1_555
C30_9 N5_9 1_555 1_555
B2_9 O12_9 1_555 1_555
C33_9 C16_9 1_555 1_555
H27_9 C33_9 1_555 1_555
H28_9 C33_9 1_555 1_555
C3_9 B1_9 1_555 1_555
C5_9 C6_9 1_555 1_555
O7_9 B1_9 1_555 1_555
C8_9 C13_9 1_555 1_555
C15_9 C17_9 1_555 1_555
N4_9 O13_9 1_555 1_555
N6_9 C26_9 1_555 1_555
C20_9 B2_9 1_555 1_555
C22_9 C23_9 1_555 1_555
O14_9 B2_9 1_555 1_555
C25_9 C30_9 1_555 1_555
C28_9 C33_9 1_555 1_555
O17_2 C24_9 1_555 1_555
O20_2 C24_9 1_555 1_555
H19_9 C27_9 1_555 1_555
H20_9 C27_9 1_555 1_555
H23_9 C31_9 1_555 1_555
H24_9 C31_9 1_555 1_555
C32_9 C27_9 1_555 1_555
H25_9 C32_9 1_555 1_555
H26_9 C32_9 1_555 1_555
C34_9 C31_9 1_555 1_555
H29_9 C34_9 1_555 1_555
H30_9 C34_9 1_555 1_555
C32_9 C34_9 1_555 1_555

#END
