
###############################################################################
#
# This file contains modified crystal structure data generated from the
# MOF subset of the Cambridge Structural Database (CSD) v543 
# hosted by the Cambridge Crystallographic Data Centre (CCDC).
#
# This work is licensed under the Creative Commons
# Attribution-NonCommercial-ShareAlike 4.0 International License.
# To view a copy of this license, visit
# http://creativecommons.org/licenses/by-nc-sa/4.0/
# or send a letter to
# Creative Commons, PO Box 1866, Mountain View, CA 94042, USA.
#
# CIF created using the CSD Python API on 29 September 2022
# The structure has been converted into the P1 space group
# The structure has a 3D framework
# The original CSD entry DAWWEF is in the tetragonal crystal system
# The original CSD entry DAWWEF is in a Sohncke space group
# The framework has been calculated to contain at least 10.0% void space
# The void calculation uses a probe of radius 1.32A, grid spacing 0.4
# H atom positions have been added when not included in the experimental data
# Generated hydrogen atom positions removed from atoms on special positions
#
###############################################################################

data_DAWWEF
_chemical_formula_moiety         '(C64 H80 Co13 N40 O48)n'
_symmetry_cell_setting           triclinic
_symmetry_space_group_name_H-M   'P 1'
_symmetry_Int_Tables_number      1
_space_group_name_Hall           'P 1'
loop_
_symmetry_equiv_pos_site_id
_symmetry_equiv_pos_as_xyz
1 x,y,z
_cell_length_a                   12.5879(18)
_cell_length_b                   12.5879(18)
_cell_length_c                   25.090(5)
_cell_angle_alpha                90
_cell_angle_beta                 90
_cell_angle_gamma                90
_cell_volume                     3975.64
loop_
_atom_site_label
_atom_site_type_symbol
_atom_site_fract_x
_atom_site_fract_y
_atom_site_fract_z
Co1 Co 0.32282(6) 0.74949(7) 0.12457(3)
Co2 Co 0.56919(7) 0.43081(7) 0.2500
O1 O 0.3397(3) 0.6046(4) 0.16802(17)
N1 N 0.6613(4) 0.7423(4) 0.13595(18)
O2 O 0.8061(3) 0.6126(4) 0.17447(18)
O3 O 0.4550(4) 0.4872(4) 0.1975(2)
N2 N 0.4853(3) 0.7372(4) 0.13206(17)
O4 O 0.6920(4) 0.5183(5) 0.2209(2)
C1 C 0.4342(4) 0.5756(5) 0.1778(2)
N4 N 0.5914(4) 0.8412(4) 0.02518(19)
C2 C 0.5191(4) 0.6507(5) 0.1614(2)
C3 C 0.5722(4) 0.7885(5) 0.1172(2)
C4 C 0.7120(5) 0.5912(5) 0.1891(2)
N5 N 0.5290(6) 0.7644(6) 0.0031(3)
C5 C 0.6273(4) 0.6562(5) 0.1644(2)
C7 C 0.5722(5) 0.8785(5) 0.0789(2)
H2 H 0.5042 0.9147 0.0804
H3 H 0.6270 0.9290 0.0888
O5 O 0.3417(4) 0.6600(5) 0.0493(2)
O6 O 0.6171(7) 0.3137(6) 0.1934(3)
Co3 Co 0.25051(7) 0.67718(6) 0.37543(3)
Co4 Co 0.82282(6) 0.75051(7) 0.12543(3)
Co6 Co 0.24949(7) 0.17718(6) 0.37457(3)
Co7 Co 0.17718(6) 0.24949(7) 0.62543(3)
O7 O 0.3954(4) 0.6603(3) 0.33198(17)
N6 N 0.2577(4) 0.3387(4) 0.36405(18)
N7 N 0.1613(4) 0.7577(4) 0.11405(18)
N8 N 0.2423(4) 0.8387(4) 0.38595(18)
O8 O 0.3874(4) 0.1939(3) 0.32553(18)
O9 O 0.3061(3) 0.8874(4) 0.07553(18)
O10 O 0.1126(4) 0.6939(3) 0.42447(18)
O11 O 0.5128(4) 0.5450(4) 0.3025(2)
N9 N 0.2628(4) 0.5147(3) 0.36794(17)
N10 N 0.1878(4) 0.3427(4) 0.5544(2)
N11 N 0.3122(4) 0.8427(4) 0.1956(2)
N12 N 0.1573(4) 0.6878(4) 0.3044(2)
O12 O 0.4817(5) 0.3080(4) 0.2791(2)
C9 C 0.4244(5) 0.5658(4) 0.3222(2)
N13 N 0.1588(4) 0.4086(4) 0.47482(19)
C10 C 0.3493(5) 0.4809(4) 0.3386(2)
C11 C 0.2115(5) 0.4278(4) 0.3828(2)
C12 C 0.4088(5) 0.2880(5) 0.3109(2)
N14 N 0.2356(6) 0.4710(6) 0.4969(3)
C13 C 0.3438(5) 0.3727(4) 0.3356(2)
C14 C 0.2500(7) 0.4274(7) 0.5444(3)
H5 H 0.2991 0.4532 0.5688
C15 C 0.1215(5) 0.4278(5) 0.4211(2)
H6 H 0.0853 0.4958 0.4196
H7 H 0.0710 0.3730 0.4112
C16 C 0.1311(5) 0.3325(5) 0.5095(2)
H8 H 0.0802 0.2804 0.5033
O13 O 0.3400(5) 0.6583(4) 0.4507(2)
O14 O 0.6863(6) 0.3829(7) 0.3066(3)
H9 H 0.393975 0.715535 0.453611
H10 H 0.290238 0.662797 0.481327
H13 H 0.284465 0.606025 0.0463887
H14 H 0.337203 0.709762 0.0186734
N3 N 0.6573(4) 0.8122(4) 0.9456(2)
C6 C 0.5726(7) 0.7500(7) 0.9556(3)
H1 H 0.5468 0.7009 0.9312
C8 C 0.6675(5) 0.8689(5) 0.9905(2)
H4 H 0.7196 0.9198 0.9967
Co5 Co 0.75051(7) 0.82282(6) 0.87457(3)
N10_2 N 0.8122(4) 0.6573(4) 0.0544(2)
C14_2 C 0.7500(7) 0.5726(7) 0.0444(3)
H5_2 H 0.7009 0.5468 0.0688
C16_2 C 0.8689(5) 0.6675(5) 0.0095(2)
H8_2 H 0.9198 0.7196 0.0033
Co1_2 Co 0.67718(6) 0.25051(7) 0.62457(3)
Co2_2 Co 0.43081(7) 0.56919(7) 0.7500
O1_2 O 0.6603(3) 0.3954(4) 0.66802(17)
N1_2 N 0.3387(4) 0.2577(4) 0.63595(18)
O2_2 O 0.1939(3) 0.3874(4) 0.67447(18)
O3_2 O 0.5450(4) 0.5128(4) 0.6975(2)
N2_2 N 0.5147(3) 0.2628(4) 0.63206(17)
N3_2 N 0.3427(4) 0.1878(4) 0.4456(2)
O4_2 O 0.3080(4) 0.4817(5) 0.7209(2)
C1_2 C 0.5658(4) 0.4244(5) 0.6778(2)
N4_2 N 0.4086(4) 0.1588(4) 0.52518(19)
C2_2 C 0.4809(4) 0.3493(5) 0.6614(2)
C3_2 C 0.4278(4) 0.2115(5) 0.6172(2)
C4_2 C 0.2880(5) 0.4088(5) 0.6891(2)
N5_2 N 0.4710(6) 0.2356(6) 0.5031(3)
C5_2 C 0.3727(4) 0.3438(5) 0.6644(2)
C6_2 C 0.4274(7) 0.2500(7) 0.4556(3)
H1_2 H 0.4532 0.2991 0.4312
C7_2 C 0.4278(5) 0.1215(5) 0.5789(2)
H2_2 H 0.4958 0.0853 0.5804
H3_2 H 0.3730 0.0710 0.5888
C8_2 C 0.3325(5) 0.1311(5) 0.4905(2)
H4_2 H 0.2804 0.0802 0.4967
O5_2 O 0.6583(4) 0.3400(5) 0.5493(2)
O6_2 O 0.3829(7) 0.6863(6) 0.6934(3)
Co3_2 Co 0.74949(7) 0.32282(6) 0.87543(3)
O7_2 O 0.6046(4) 0.3397(3) 0.83198(17)
N6_2 N 0.7423(4) 0.6613(4) 0.86405(18)
N7_2 N 0.8387(4) 0.2423(4) 0.61405(18)
N8_2 N 0.7577(4) 0.1613(4) 0.88595(18)
O8_2 O 0.6126(4) 0.8061(3) 0.82553(18)
O9_2 O 0.6939(3) 0.1126(4) 0.57553(18)
O10_2 O 0.8874(4) 0.3061(3) 0.92447(18)
O11_2 O 0.4872(4) 0.4550(4) 0.8025(2)
N9_2 N 0.7372(4) 0.4853(3) 0.86794(17)
N11_2 N 0.6878(4) 0.1573(4) 0.6956(2)
N12_2 N 0.8427(4) 0.3122(4) 0.8044(2)
O12_2 O 0.5183(5) 0.6920(4) 0.7791(2)
C9_2 C 0.5756(5) 0.4342(4) 0.8222(2)
N13_2 N 0.8412(4) 0.5914(4) 0.97482(19)
C10_2 C 0.6507(5) 0.5191(4) 0.8386(2)
C11_2 C 0.7885(5) 0.5722(4) 0.8828(2)
C12_2 C 0.5912(5) 0.7120(5) 0.8109(2)
N14_2 N 0.7644(6) 0.5290(6) 0.9969(3)
C13_2 C 0.6562(5) 0.6273(4) 0.8356(2)
C15_2 C 0.8785(5) 0.5722(5) 0.9211(2)
H6_2 H 0.9147 0.5042 0.9196
H7_2 H 0.9290 0.6270 0.9112
O13_2 O 0.6600(5) 0.3417(4) 0.9507(2)
O14_2 O 0.3137(6) 0.6171(7) 0.8066(3)
H9_2 H 0.606025 0.284465 0.953611
H10_2 H 0.709762 0.337203 0.981327
H13_2 H 0.715535 0.393975 0.546389
H14_2 H 0.662797 0.290238 0.518673
O12_3 O 0.1920(4) 0.9817(5) 0.0291(2)
N13_3 N 0.0914(4) 0.6588(4) 0.22482(19)
C10_3 C 0.0191(4) 0.8493(5) 0.0886(2)
C11_3 C 0.0722(4) 0.7115(5) 0.1328(2)
C12_3 C 0.2120(5) 0.9088(5) 0.0609(2)
N14_3 N 0.0290(6) 0.7356(6) 0.2469(3)
C13_3 C 0.1273(4) 0.8438(5) 0.0856(2)
C14_3 C 0.0726(7) 0.7500(7) 0.2944(3)
H5_3 H 0.0468 0.7991 0.3188
C15_3 C 0.0722(5) 0.6215(5) 0.1711(2)
H6_3 H 0.0042 0.5853 0.1696
H7_3 H 0.1270 0.5710 0.1612
C16_3 C 0.1675(5) 0.6311(5) 0.2595(2)
H8_3 H 0.2196 0.5802 0.2533
O4_3 O 0.9817(5) 0.1920(4) 0.9709(2)
N4_3 N 0.6588(4) 0.0914(4) 0.77518(19)
C2_3 C 0.8493(5) 0.0191(4) 0.9114(2)
C3_3 C 0.7115(5) 0.0722(4) 0.8672(2)
C4_3 C 0.9088(5) 0.2120(5) 0.9391(2)
N5_3 N 0.7356(6) 0.0290(6) 0.7531(3)
C5_3 C 0.8438(5) 0.1273(4) 0.9144(2)
C6_3 C 0.7500(7) 0.0726(7) 0.7056(3)
H1_3 H 0.7991 0.0468 0.6812
C7_3 C 0.6215(5) 0.0722(5) 0.8289(2)
H2_3 H 0.5853 0.0042 0.8304
H3_3 H 0.5710 0.1270 0.8388
C8_3 C 0.6311(5) 0.1675(5) 0.7405(2)
H4_3 H 0.5802 0.2196 0.7467
O7_3 O 0.8397(3) 0.8954(4) 0.08198(17)
N9_3 N 0.9853(3) 0.7628(4) 0.11794(17)
C9_3 C 0.9342(4) 0.9244(5) 0.0722(2)
O13_3 O 0.8417(4) 0.8400(5) 0.2007(2)
H9_3 H 0.784465 0.893975 0.203611
H10_3 H 0.837203 0.790238 0.231327
O1_3 O 0.8954(4) 0.8397(3) 0.91802(17)
N2_3 N 0.7628(4) 0.9853(3) 0.88206(17)
C1_3 C 0.9244(5) 0.9342(4) 0.9278(2)
O5_3 O 0.8400(5) 0.8417(4) 0.7993(2)
H13_3 H 0.893975 0.784465 0.796389
H14_3 H 0.790238 0.837203 0.768673
O1_4 O 0.1046(4) 0.1603(3) 0.41802(17)
N2_4 N 0.2372(4) 0.0147(3) 0.38206(17)
C1_4 C 0.0756(5) 0.0658(4) 0.4278(2)
O5_4 O 0.1600(5) 0.1583(4) 0.2993(2)
O7_4 O 0.1603(3) 0.1046(4) 0.58198(17)
N9_4 N 0.0147(3) 0.2372(4) 0.61794(17)
C9_4 C 0.0658(4) 0.0756(5) 0.5722(2)
O13_4 O 0.1583(4) 0.1600(5) 0.7007(2)
H9_4 H 0.215535 0.106025 0.703611
H10_4 H 0.162797 0.209762 0.731327
H13_4 H 0.106025 0.215535 0.296389
H14_4 H 0.209762 0.162797 0.268673
O4_4 O 0.0183(5) 0.8080(4) 0.4709(2)
N4_4 N 0.3412(4) 0.9086(4) 0.27518(19)
C2_4 C 0.1507(5) 0.9809(4) 0.4114(2)
C3_4 C 0.2885(5) 0.9278(4) 0.3672(2)
C4_4 C 0.0912(5) 0.7880(5) 0.4391(2)
N5_4 N 0.2644(6) 0.9710(6) 0.2531(3)
C5_4 C 0.1562(5) 0.8727(4) 0.4144(2)
C6_4 C 0.2500(7) 0.9274(7) 0.2056(3)
H1_4 H 0.2009 0.9532 0.1812
C7_4 C 0.3785(5) 0.9278(5) 0.3289(2)
H2_4 H 0.4147 0.9958 0.3304
H3_4 H 0.4290 0.8730 0.3388
C8_4 C 0.3689(5) 0.8325(5) 0.2405(2)
H4_4 H 0.4198 0.7804 0.2467
O11_3 O 0.0450(4) 0.9872(4) 0.5525(2)
O3_3 O 0.9872(4) 0.0450(4) 0.4475(2)
O12_4 O 0.8080(4) 0.0183(5) 0.5291(2)
N13_4 N 0.9086(4) 0.3412(4) 0.72482(19)
C10_4 C 0.9809(4) 0.1507(5) 0.5886(2)
C11_4 C 0.9278(4) 0.2885(5) 0.6328(2)
C12_4 C 0.7880(5) 0.0912(5) 0.5609(2)
N14_4 N 0.9710(6) 0.2644(6) 0.7469(3)
C13_4 C 0.8727(4) 0.1562(5) 0.5856(2)
C14_4 C 0.9274(7) 0.2500(7) 0.7944(3)
H5_4 H 0.9532 0.2009 0.8188
C15_4 C 0.9278(5) 0.3785(5) 0.6711(2)
H6_4 H 0.9958 0.4147 0.6696
H7_4 H 0.8730 0.4290 0.6612
C16_4 C 0.8325(5) 0.3689(5) 0.7595(2)
H8_4 H 0.7804 0.4198 0.7533
Co2_3 Co 0.06919(7) 0.06919(7) 0.0000
O14_3 O 0.1171(7) 0.1863(6) 0.0566(3)
Co2_4 Co 0.06919(7) 0.06919(7) 1.0000
O6_3 O 0.1863(6) 0.1171(7) 0.9434(3)
O3_4 O 0.0128(4) 0.9550(4) 0.9475(2)
O11_4 O 0.9550(4) 0.0128(4) 0.0525(2)
Co2_5 Co 0.93081(7) 0.93081(7) 0.5000
O6_4 O 0.8137(6) 0.8829(7) 0.4434(3)
O14_4 O 0.8829(7) 0.8137(6) 0.5566(3)
loop_
_geom_bond_atom_site_label_1
_geom_bond_atom_site_label_2
_geom_bond_site_symmetry_1
_geom_bond_site_symmetry_2
Co1 O1 1_555 1_555
Co2 O3 1_555 1_555
O1 C1 1_555 1_555
N1 C3 1_555 1_555
O2 C4 1_555 1_555
O3 C1 1_555 1_555
N2 Co1 1_555 1_555
O4 Co2 1_555 1_555
C1 C2 1_555 1_555
N4 N5 1_555 1_555
C2 N2 1_555 1_555
C3 N2 1_555 1_555
C4 O4 1_555 1_555
C5 N1 1_555 1_555
C7 N4 1_555 1_555
H2 C7 1_555 1_555
H3 C7 1_555 1_555
O5 Co1 1_555 1_555
O6 Co2 1_555 1_555
Co3 O7 1_555 1_555
Co4 N1 1_555 1_555
Co6 N6 1_555 1_555
Co7 N10 1_555 1_555
O7 C9 1_555 1_555
N6 C11 1_555 1_555
N7 Co1 1_555 1_555
N8 Co3 1_555 1_555
O8 Co6 1_555 1_555
O9 Co1 1_555 1_555
O10 Co3 1_555 1_555
O11 Co2 1_555 1_555
N9 Co3 1_555 1_555
N10 C14 1_555 1_555
N11 Co1 1_555 1_555
N12 Co3 1_555 1_555
O12 Co2 1_555 1_555
C9 O11 1_555 1_555
N13 N14 1_555 1_555
C10 N9 1_555 1_555
C11 N9 1_555 1_555
C12 O8 1_555 1_555
N14 C14 1_555 1_555
C13 N6 1_555 1_555
C14 H5 1_555 1_555
C15 N13 1_555 1_555
H6 C15 1_555 1_555
H7 C15 1_555 1_555
C16 N10 1_555 1_555
H8 C16 1_555 1_555
O13 Co3 1_555 1_555
O14 Co2 1_555 1_555
O2 Co4 1_555 1_555
C2 C5 1_555 1_555
C3 C7 1_555 1_555
C4 C5 1_555 1_555
O12 C12 1_555 1_555
C9 C10 1_555 1_555
N13 C16 1_555 1_555
C10 C13 1_555 1_555
C11 C15 1_555 1_555
C12 C13 1_555 1_555
O13 H9 1_555 1_555
O13 H10 1_555 1_555
O5 H13 1_555 1_555
O5 H14 1_555 1_555
N3 C6 1_555 1_555
C6 H1 1_555 1_555
C8 N3 1_555 1_555
H4 C8 1_555 1_555
Co5 N3 1_555 1_555
Co4 N10_2 1_555 1_555
N10_2 C14_2 1_555 1_555
C14_2 H5_2 1_555 1_555
C16_2 N10_2 1_555 1_555
H8_2 C16_2 1_555 1_555
Co1_2 O1_2 1_555 1_555
Co2_2 O3_2 1_555 1_555
O1_2 C1_2 1_555 1_555
N1_2 C3_2 1_555 1_555
O2_2 C4_2 1_555 1_555
O3_2 C1_2 1_555 1_555
N2_2 Co1_2 1_555 1_555
N3_2 C6_2 1_555 1_555
O4_2 Co2_2 1_555 1_555
C1_2 C2_2 1_555 1_555
N4_2 N5_2 1_555 1_555
C2_2 N2_2 1_555 1_555
C3_2 N2_2 1_555 1_555
C4_2 O4_2 1_555 1_555
N5_2 C6_2 1_555 1_555
C5_2 N1_2 1_555 1_555
C6_2 H1_2 1_555 1_555
C7_2 N4_2 1_555 1_555
H2_2 C7_2 1_555 1_555
H3_2 C7_2 1_555 1_555
C8_2 N3_2 1_555 1_555
H4_2 C8_2 1_555 1_555
O5_2 Co1_2 1_555 1_555
O6_2 Co2_2 1_555 1_555
Co3_2 O7_2 1_555 1_555
Co7 N1_2 1_555 1_555
Co6 N3_2 1_555 1_555
Co5 N6_2 1_555 1_555
O7_2 C9_2 1_555 1_555
N6_2 C11_2 1_555 1_555
N7_2 Co1_2 1_555 1_555
N8_2 Co3_2 1_555 1_555
O8_2 Co5 1_555 1_555
O9_2 Co1_2 1_555 1_555
O10_2 Co3_2 1_555 1_555
O11_2 Co2_2 1_555 1_555
N9_2 Co3_2 1_555 1_555
N11_2 Co1_2 1_555 1_555
N12_2 Co3_2 1_555 1_555
O12_2 Co2_2 1_555 1_555
C9_2 O11_2 1_555 1_555
N13_2 N14_2 1_555 1_555
C10_2 N9_2 1_555 1_555
C11_2 N9_2 1_555 1_555
C12_2 O8_2 1_555 1_555
C13_2 N6_2 1_555 1_555
C15_2 N13_2 1_555 1_555
H6_2 C15_2 1_555 1_555
H7_2 C15_2 1_555 1_555
O13_2 Co3_2 1_555 1_555
O14_2 Co2_2 1_555 1_555
O2_2 Co7 1_555 1_555
N4_2 C8_2 1_555 1_555
C2_2 C5_2 1_555 1_555
C3_2 C7_2 1_555 1_555
C4_2 C5_2 1_555 1_555
O12_2 C12_2 1_555 1_555
C9_2 C10_2 1_555 1_555
C10_2 C13_2 1_555 1_555
C11_2 C15_2 1_555 1_555
C12_2 C13_2 1_555 1_555
O13_2 H9_2 1_555 1_555
O13_2 H10_2 1_555 1_555
O5_2 H13_2 1_555 1_555
O5_2 H14_2 1_555 1_555
N7 C11_3 1_555 1_555
N12 C14_3 1_555 1_555
N13_3 N14_3 1_555 1_555
C12_3 O9 1_555 1_555
N14_3 C14_3 1_555 1_555
C13_3 N7 1_555 1_555
C14_3 H5_3 1_555 1_555
C15_3 N13_3 1_555 1_555
H6_3 C15_3 1_555 1_555
H7_3 C15_3 1_555 1_555
C16_3 N12 1_555 1_555
H8_3 C16_3 1_555 1_555
O12_3 C12_3 1_555 1_555
N13_3 C16_3 1_555 1_555
C10_3 C13_3 1_555 1_555
C11_3 C15_3 1_555 1_555
C12_3 C13_3 1_555 1_555
N8_2 C3_3 1_555 1_555
O10_2 C4_3 1_555 1_555
N11_2 C6_3 1_555 1_555
N4_3 N5_3 1_555 1_555
C4_3 O4_3 1_555 1_555
N5_3 C6_3 1_555 1_555
C5_3 N8_2 1_555 1_555
C6_3 H1_3 1_555 1_555
C7_3 N4_3 1_555 1_555
H2_3 C7_3 1_555 1_555
H3_3 C7_3 1_555 1_555
C8_3 N11_2 1_555 1_555
H4_3 C8_3 1_555 1_555
N4_3 C8_3 1_555 1_555
C2_3 C5_3 1_555 1_555
C3_3 C7_3 1_555 1_555
C4_3 C5_3 1_555 1_555
Co4 O7_3 1_555 1_555
O7_3 C9_3 1_555 1_555
N9_3 Co4 1_555 1_555
O13_3 Co4 1_555 1_555
O13_3 H9_3 1_555 1_555
O13_3 H10_3 1_555 1_555
Co5 O1_3 1_555 1_555
O1_3 C1_3 1_555 1_555
N2_3 Co5 1_555 1_555
O5_3 Co5 1_555 1_555
O5_3 H13_3 1_555 1_555
O5_3 H14_3 1_555 1_555
Co6 O1_4 1_555 1_555
O1_4 C1_4 1_555 1_555
N2_4 Co6 1_555 1_555
O5_4 Co6 1_555 1_555
Co7 O7_4 1_555 1_555
O7_4 C9_4 1_555 1_555
N9_4 Co7 1_555 1_555
O13_4 Co7 1_555 1_555
O13_4 H9_4 1_555 1_555
O13_4 H10_4 1_555 1_555
O5_4 H13_4 1_555 1_555
O5_4 H14_4 1_555 1_555
N8 C3_4 1_555 1_555
O10 C4_4 1_555 1_555
N11 C6_4 1_555 1_555
N4_4 N5_4 1_555 1_555
C4_4 O4_4 1_555 1_555
N5_4 C6_4 1_555 1_555
C5_4 N8 1_555 1_555
C6_4 H1_4 1_555 1_555
C7_4 N4_4 1_555 1_555
H2_4 C7_4 1_555 1_555
H3_4 C7_4 1_555 1_555
C8_4 N11 1_555 1_555
H4_4 C8_4 1_555 1_555
N4_4 C8_4 1_555 1_555
C2_4 C5_4 1_555 1_555
C3_4 C7_4 1_555 1_555
C4_4 C5_4 1_555 1_555
N7_2 C11_4 1_555 1_555
N12_2 C14_4 1_555 1_555
N13_4 N14_4 1_555 1_555
C12_4 O9_2 1_555 1_555
N14_4 C14_4 1_555 1_555
C13_4 N7_2 1_555 1_555
C14_4 H5_4 1_555 1_555
C15_4 N13_4 1_555 1_555
H6_4 C15_4 1_555 1_555
H7_4 C15_4 1_555 1_555
C16_4 N12_2 1_555 1_555
H8_4 C16_4 1_555 1_555
O12_4 C12_4 1_555 1_555
N13_4 C16_4 1_555 1_555
C10_4 C13_4 1_555 1_555
C11_4 C15_4 1_555 1_555
C12_4 C13_4 1_555 1_555
O14_3 Co2_3 1_555 1_555
O6_3 Co2_4 1_555 1_555
O6_4 Co2_5 1_555 1_555
O14_4 Co2_5 1_555 1_555

#END
