
###############################################################################
#
# This file contains modified crystal structure data generated from the
# MOF subset of the Cambridge Structural Database (CSD) v543 
# hosted by the Cambridge Crystallographic Data Centre (CCDC).
#
# This work is licensed under the Creative Commons
# Attribution-NonCommercial-ShareAlike 4.0 International License.
# To view a copy of this license, visit
# http://creativecommons.org/licenses/by-nc-sa/4.0/
# or send a letter to
# Creative Commons, PO Box 1866, Mountain View, CA 94042, USA.
#
# CIF created using the CSD Python API on 29 September 2022
# The structure has been converted into the P1 space group
# The structure has a 3D framework
# The original CSD entry DAXFEQ is in the rhombohedral crystal system
# The framework has been calculated to contain at least 10.0% void space
# The void calculation uses a probe of radius 1.32A, grid spacing 0.4
# The framework is charged, counterions have been retained in the structure
#
###############################################################################

data_DAXFEQ
_chemical_formula_moiety         '(C396 H468 Mg66 N108 O270 12+)n'
_symmetry_cell_setting           triclinic
_symmetry_space_group_name_H-M   'P 1'
_symmetry_Int_Tables_number      1
_space_group_name_Hall           'P 1'
loop_
_symmetry_equiv_pos_site_id
_symmetry_equiv_pos_as_xyz
1 x,y,z
_cell_length_a                   19.642(5)
_cell_length_b                   19.642(5)
_cell_length_c                   49.236(15)
_cell_angle_alpha                90
_cell_angle_beta                 90
_cell_angle_gamma                120
_cell_volume                     16450.7
loop_
_atom_site_label
_atom_site_type_symbol
_atom_site_fract_x
_atom_site_fract_y
_atom_site_fract_z
Mg14 Mg 0.28460(10) 0.02437(11) 0.07179(4)
C27 C 0.1159(4) 0.7035(5) 0.00256(12)
C28 C 0.1621(4) 0.7281(6) 0.02910(12)
H27 H 0.1492 0.6814 0.0396
H28 H 0.2178 0.7542 0.0250
C29 C 0.1473(4) 0.7777(6) 0.04474(14)
C30 C 0.0703(4) 0.7594(6) 0.05115(16)
H29 H 0.0293 0.7111 0.0454
C31 C 0.0499(4) 0.8105(6) 0.06612(14)
C32 C 0.1107(4) 0.8778(6) 0.07534(15)
H31 H 0.0991 0.9110 0.0853
C33 C 0.2064(4) 0.8516(6) 0.05617(13)
H32 H 0.2589 0.8667 0.0533
N7 N 0.0522(3) 0.6314(4) 0.00055(9)
N9 N 0.1896(3) 0.9019(4) 0.07124(10)
O28 O 0.0651(3) 0.5465(5) 0.05243(12)
H47 H 0.1004 0.5482 0.0629
H48 H 0.0449 0.5705 0.0594
H4 H 0.7994 0.0020 0.0691
Mg4 Mg 0.52711(11) 0.00993(13) 0.01874(4)
O12 O 0.6156(3) 0.0814(4) 0.04510(14)
H19 H 0.6413 0.1041 0.0593
H20 H 0.6439 0.0977 0.0316
O15 O 0.4723(3) 0.0730(3) 0.02751(11)
H25 H 0.4507 0.0972 0.0212
H26 H 0.4745 0.0772 0.0447
H30 H 0.9980 0.7974 0.0691
Mg7 Mg 0.99007(13) 0.51718(17) 0.01874(4)
O27 O 0.9186(4) 0.5342(5) 0.04510(14)
H45 H 0.8959 0.5372 0.0593
H46 H 0.9023 0.5462 0.0316
O30 O 0.9270(3) 0.3993(4) 0.02751(11)
H51 H 0.9028 0.3535 0.0212
H52 H 0.9228 0.3973 0.0447
C49 C 0.2965(5) 0.4124(3) 0.00256(12)
C50 C 0.2719(6) 0.4340(4) 0.02910(12)
H53 H 0.3186 0.4678 0.0396
H54 H 0.2458 0.4636 0.0250
C51 C 0.2223(6) 0.3696(4) 0.04474(14)
C52 C 0.2406(6) 0.3109(4) 0.05115(16)
H55 H 0.2889 0.3182 0.0454
C53 C 0.1895(6) 0.2394(4) 0.06612(14)
H56 H 0.2026 0.2006 0.0691
C54 C 0.1222(6) 0.2329(4) 0.07534(15)
H57 H 0.0890 0.1881 0.0853
C55 C 0.1484(6) 0.3548(4) 0.05617(13)
H58 H 0.1333 0.3922 0.0533
Mg10 Mg 0.48282(17) 0.47289(11) 0.01874(4)
N13 N 0.3686(4) 0.4208(2) 0.00055(9)
N15 N 0.0981(4) 0.2877(3) 0.07124(10)
O42 O 0.4658(5) 0.3844(3) 0.04510(14)
H71 H 0.4628 0.3587 0.0593
H72 H 0.4538 0.3561 0.0316
O43 O 0.4535(5) 0.5186(4) 0.05243(12)
H73 H 0.4518 0.5522 0.0629
H74 H 0.4295 0.4744 0.0594
O45 O 0.6007(4) 0.5277(3) 0.02751(11)
H77 H 0.6465 0.5493 0.0212
H78 H 0.6027 0.5255 0.0447
C1 C 0.6071(3) 0.0485(4) 0.96675(12)
C12 C 0.6273(3) 0.1774(3) 0.87589(12)
C13 C 0.6736(3) 0.1874(3) 0.85170(10)
C14 C 0.7019(3) 0.1402(3) 0.83954(11)
C15 C 0.6991(3) 0.0666(3) 0.84563(11)
C16 C 0.7397(3) 0.2478(3) 0.81572(9)
C17 C 0.7747(4) 0.3076(3) 0.79364(12)
H7 H 0.7386 0.3263 0.7892
H8 H 0.7812 0.2830 0.7775
C18 C 0.8542(4) 0.3778(3) 0.80147(14)
C19 C 0.9036(4) 0.3808(4) 0.82064(16)
H9 H 0.8883 0.3353 0.8307
C20 C 0.9756(5) 0.4453(5) 0.8268(2)
C21 C 0.9913(4) 0.5120(4) 0.80869(19)
C22 C 0.8826(4) 0.4477(4) 0.78619(16)
H12 H 0.8516 0.4474 0.7719
Mg1 Mg 0.80001(10) 0.12391(10) 0.79727(3)
Mg2 Mg 0.64230(11) 0.04873(10) 0.90512(4)
Mg3 Mg 0.6667 0.3333 0.85592(6)
N4 N 0.6955(2) 0.2528(2) 0.83593(8)
N5 N 0.7450(3) 0.1814(2) 0.81635(9)
N6 N 0.9507(4) 0.5146(4) 0.79058(17)
O1 O 0.5852(2) 0.0805(2) 0.98569(9)
O2 O 0.6304(2) 0.0801(2) 0.94391(8)
O5 O 0.6143(2) 0.23417(18) 0.88112(7)
O6 O 0.6035(2) 0.1193(2) 0.89156(8)
O7 O 0.6578(2) 0.02456(19) 0.86459(8)
O8 O 0.7353(2) 0.04798(19) 0.82922(8)
O9 O 0.7036(3) 0.0600(3) 0.77047(9)
H13 H 0.6650 0.0209 0.7639
H14 H 0.7188 0.0988 0.7599
O10 O 0.8397(3) 0.0505(2) 0.78378(12)
H15 H 0.8643 0.0309 0.7763
H16 H 0.8017 0.0156 0.7927
C23 C 0.9515(4) 0.5586(5) 0.96675(12)
C34 C 0.8226(3) 0.4499(4) 0.87589(12)
C35 C 0.8126(3) 0.4862(4) 0.85170(10)
C36 C 0.8598(3) 0.5617(4) 0.83954(11)
C37 C 0.9334(3) 0.6325(4) 0.84563(11)
C38 C 0.7522(3) 0.4919(4) 0.81572(9)
C39 C 0.6924(3) 0.4671(5) 0.79364(12)
H33 H 0.6737 0.4123 0.7892
H34 H 0.7170 0.4982 0.7775
C40 C 0.6222(3) 0.4764(5) 0.80147(14)
C41 C 0.6192(4) 0.5228(6) 0.82064(16)
H35 H 0.6647 0.5530 0.8307
C42 C 0.5547(5) 0.5303(7) 0.8268(2)
H36 H 0.5532 0.5625 0.8404
C43 C 0.4880(4) 0.4793(6) 0.80869(19)
H37 H 0.4419 0.4807 0.8116
C44 C 0.5523(4) 0.4349(6) 0.78619(16)
H38 H 0.5526 0.4042 0.7719
Mg5 Mg 0.87609(10) 0.67610(14) 0.79727(3)
Mg6 Mg 0.95127(10) 0.59357(15) 0.90512(4)
N10 N 0.7472(2) 0.4427(3) 0.83593(8)
N11 N 0.8186(2) 0.5636(4) 0.81635(9)
N12 N 0.4854(4) 0.4361(6) 0.79058(17)
O16 O 0.9195(2) 0.5047(3) 0.98569(9)
O17 O 0.9199(2) 0.5503(3) 0.94391(8)
O20 O 0.76583(18) 0.38013(27) 0.88112(7)
O21 O 0.8807(2) 0.4842(3) 0.89156(8)
O22 O 0.97544(19) 0.63324(28) 0.86459(8)
O23 O 0.95202(19) 0.68732(28) 0.82922(8)
O24 O 0.9400(3) 0.6436(4) 0.77047(9)
H39 H 0.9791 0.6441 0.7639
H40 H 0.9012 0.6200 0.7599
O25 O 0.9495(2) 0.7892(4) 0.78378(12)
H41 H 0.9691 0.8334 0.7763
H42 H 0.9844 0.7861 0.7927
C45 C 0.4414(5) 0.3929(3) 0.96675(12)
C46 C 0.3682(4) 0.3920(3) 0.97477(11)
C47 C 0.2981(4) 0.3733(3) 0.96190(11)
C48 C 0.2601(4) 0.3356(3) 0.93652(11)
C56 C 0.5501(4) 0.3727(3) 0.87589(12)
C57 C 0.5138(4) 0.3264(3) 0.85170(10)
C58 C 0.4383(4) 0.2981(3) 0.83954(11)
C59 C 0.3675(4) 0.3009(3) 0.84563(11)
C60 C 0.5081(4) 0.2603(3) 0.81572(9)
C61 C 0.5329(5) 0.2253(4) 0.79364(12)
H59 H 0.5877 0.2614 0.7892
H60 H 0.5018 0.2188 0.7775
C62 C 0.5236(5) 0.1458(4) 0.80147(14)
C63 C 0.4772(6) 0.0964(4) 0.82064(16)
H61 H 0.4470 0.1117 0.8307
C64 C 0.4697(7) 0.0244(5) 0.8268(2)
C65 C 0.5207(6) 0.0087(4) 0.80869(19)
C66 C 0.5651(6) 0.1174(4) 0.78619(16)
H64 H 0.5958 0.1484 0.7719
Mg8 Mg 0.32390(14) 0.19999(10) 0.79727(3)
Mg9 Mg 0.40643(15) 0.35770(11) 0.90512(4)
N14 N 0.2522(4) 0.3849(2) 0.98108(10)
N16 N 0.5573(3) 0.3045(2) 0.83593(8)
N17 N 0.4364(4) 0.2550(3) 0.81635(9)
N18 N 0.5639(6) 0.0493(4) 0.79058(17)
O31 O 0.4953(3) 0.4148(2) 0.98569(9)
O32 O 0.4497(3) 0.3696(2) 0.94391(8)
O33 O 0.2976(3) 0.3235(2) 0.91753(8)
O34 O 0.1887(3) 0.3175(2) 0.93335(8)
O35 O 0.61987(27) 0.3857(2) 0.88112(7)
O36 O 0.5158(3) 0.3965(2) 0.89156(8)
O37 O 0.36676(28) 0.3422(2) 0.86459(8)
O38 O 0.31268(28) 0.2647(2) 0.82922(8)
O39 O 0.3564(4) 0.2964(3) 0.77047(9)
H65 H 0.3559 0.3350 0.7639
H66 H 0.3800 0.2812 0.7599
O40 O 0.2108(4) 0.1603(3) 0.78378(12)
H67 H 0.1666 0.1357 0.7763
H68 H 0.2139 0.1983 0.7927
O41 O 0.4319(4) 0.4743(3) 0.90463(12)
H69 H 0.4368 0.5115 0.8948
H70 H 0.4182 0.4785 0.9203
O44 O 0.5111(4) 0.5758(3) 0.99771(13)
H75 H 0.5560 0.6162 0.9954
H76 H 0.4768 0.5834 0.9907
Mg13 Mg 0.13334(10) 0.34277(14) 0.96394(3)
N19 N 0.7994(3) 0.7182(2) 0.81441(10)
N20 N 0.9189(4) 0.2006(3) 0.81441(10)
N21 N 0.2818(2) 0.0811(4) 0.81441(10)
N22 N 0.8563(3) 0.6210(3) 0.90457(10)
N23 N 0.7648(4) 0.1437(3) 0.90457(10)
N24 N 0.3790(3) 0.2352(4) 0.90457(10)
O46 O 0.7955(2) 0.6508(2) 0.76668(8)
O47 O 0.8554(3) 0.2045(2) 0.76668(8)
O48 O 0.3492(2) 0.1446(3) 0.76668(8)
C5 C 0.5876(3) 0.8841(4) 0.00256(12)
C6 C 0.5660(4) 0.8379(4) 0.02910(12)
H1 H 0.5322 0.8508 0.0396
H2 H 0.5364 0.7822 0.0250
C7 C 0.6304(4) 0.8527(4) 0.04474(14)
C8 C 0.6891(4) 0.9297(4) 0.05115(16)
H3 H 0.6818 0.9707 0.0454
C9 C 0.7606(4) 0.9501(4) 0.06612(14)
C10 C 0.7671(4) 0.8893(4) 0.07534(15)
H5 H 0.8119 0.9009 0.0853
C11 C 0.6452(4) 0.7936(4) 0.05617(13)
H6 H 0.6078 0.7411 0.0533
N1 N 0.5792(2) 0.9478(3) 0.00055(9)
N3 N 0.7123(3) 0.8104(3) 0.07124(10)
O13 O 0.4814(4) 0.9349(3) 0.05243(12)
H21 H 0.4478 0.8996 0.0629
H22 H 0.5256 0.9551 0.0594
Mg15 Mg 0.73976(15) 0.71540(10) 0.07179(4)
Mg16 Mg 0.97563(11) 0.26024(15) 0.07179(4)
C2 C 0.0238(3) 0.3920(3) 0.47477(11)
C3 C 0.0752(3) 0.3733(3) 0.46190(11)
C4 C 0.0755(3) 0.3356(3) 0.43652(11)
C5_2 C 0.1159(4) 0.4124(3) 0.50256(12)
C6_2 C 0.1621(4) 0.4340(4) 0.52910(12)
H1_2 H 0.1492 0.4678 0.5396
H2_2 H 0.2178 0.4636 0.5250
C7_2 C 0.1473(4) 0.3696(4) 0.54474(14)
C8_2 C 0.0703(4) 0.3109(4) 0.55115(16)
H3_2 H 0.0293 0.3182 0.5454
C9_2 C 0.0499(4) 0.2394(4) 0.56612(14)
C10_2 C 0.1107(4) 0.2329(4) 0.57534(15)
H5_2 H 0.0991 0.1881 0.5853
C11_2 C 0.2064(4) 0.3548(4) 0.55617(13)
H6_2 H 0.2589 0.3922 0.5533
N1_2 N 0.0522(3) 0.4208(2) 0.50055(9)
N2 N 0.1327(3) 0.3849(2) 0.48108(10)
N3_2 N 0.1896(3) 0.2877(3) 0.57124(10)
O3 O 0.0259(2) 0.3235(2) 0.41753(8)
O4 O 0.1288(2) 0.3175(2) 0.43335(8)
O11 O 0.0424(3) 0.4743(3) 0.40463(12)
H17 H 0.0747 0.5115 0.3948
H18 H 0.0603 0.4785 0.4203
O13_2 O 0.0651(3) 0.5186(4) 0.55243(12)
H21_2 H 0.1004 0.5522 0.5629
H22_2 H 0.0449 0.4744 0.5594
O14 O 0.0647(3) 0.5758(3) 0.49771(13)
H23 H 0.0602 0.6162 0.4954
H24 H 0.1066 0.5834 0.4907
H62 H 0.0093 0.5625 0.3404
H63 H 0.0388 0.4807 0.3116
Mg12 Mg 0.20942(10) 0.34277(14) 0.46394(3)
Mg15_2 Mg 0.28460(10) 0.26024(15) 0.57179(4)
Mg16_2 Mg 0.73976(15) 0.02437(11) 0.57179(4)
C1_2 C 0.9515(4) 0.3929(3) 0.46675(12)
H4_2 H 0.9980 0.2006 0.5691
C12_2 C 0.8226(3) 0.3727(3) 0.37589(12)
C13_2 C 0.8126(3) 0.3264(3) 0.35170(10)
C14_2 C 0.8598(3) 0.2981(3) 0.33954(11)
C15_2 C 0.9334(3) 0.3009(3) 0.34563(11)
C16_2 C 0.7522(3) 0.2603(3) 0.31572(9)
C17_2 C 0.6924(3) 0.2253(4) 0.29364(12)
H7_2 H 0.6737 0.2614 0.2892
H8_2 H 0.7170 0.2188 0.2775
C18_2 C 0.6222(3) 0.1458(4) 0.30147(14)
C19_2 C 0.6192(4) 0.0964(4) 0.32064(16)
H9_2 H 0.6647 0.1117 0.3307
C20_2 C 0.5547(5) 0.0244(5) 0.3268(2)
C21_2 C 0.4880(4) 0.0087(4) 0.30869(19)
C22_2 C 0.5523(4) 0.1174(4) 0.28619(16)
H12_2 H 0.5526 0.1484 0.2719
Mg1_2 Mg 0.87609(10) 0.19999(10) 0.29727(3)
Mg2_2 Mg 0.95127(10) 0.35770(11) 0.40512(4)
Mg3_2 Mg 0.6667 0.3333 0.35592(6)
Mg4_2 Mg 0.99007(13) 0.47289(11) 0.51874(4)
N4_2 N 0.7472(2) 0.3045(2) 0.33593(8)
N5_2 N 0.8186(2) 0.2550(3) 0.31635(9)
N6_2 N 0.4854(4) 0.0493(4) 0.29058(17)
O1_2 O 0.9195(2) 0.4148(2) 0.48569(9)
O2_2 O 0.9199(2) 0.3696(2) 0.44391(8)
O5_2 O 0.76583(18) 0.3857(2) 0.38112(7)
O6_2 O 0.8807(2) 0.3965(2) 0.39156(8)
O7_2 O 0.97544(19) 0.3422(2) 0.36459(8)
O8_2 O 0.95202(19) 0.2647(2) 0.32922(8)
O9_2 O 0.9400(3) 0.2964(3) 0.27047(9)
H13_2 H 0.9791 0.3350 0.2639
H14_2 H 0.9012 0.2812 0.2599
O10_2 O 0.9495(2) 0.1603(3) 0.28378(12)
H15_2 H 0.9691 0.1357 0.2763
H16_2 H 0.9844 0.1983 0.2927
O12_2 O 0.9186(4) 0.3844(3) 0.54510(14)
H19_2 H 0.8959 0.3587 0.5593
H20_2 H 0.9023 0.3561 0.5316
O15_2 O 0.9270(3) 0.5277(3) 0.52751(11)
H25_2 H 0.9028 0.5493 0.5212
H26_2 H 0.9228 0.5255 0.5447
C23_2 C 0.4414(5) 0.0485(4) 0.46675(12)
H30_2 H 0.2026 0.0020 0.5691
C34_2 C 0.5501(4) 0.1774(3) 0.37589(12)
C35_2 C 0.5138(4) 0.1874(3) 0.35170(10)
C36_2 C 0.4383(4) 0.1402(3) 0.33954(11)
C37_2 C 0.3675(4) 0.0666(3) 0.34563(11)
C38_2 C 0.5081(4) 0.2478(3) 0.31572(9)
C39_2 C 0.5329(5) 0.3076(3) 0.29364(12)
H33_2 H 0.5877 0.3263 0.2892
H34_2 H 0.5018 0.2830 0.2775
C40_2 C 0.5236(5) 0.3778(3) 0.30147(14)
C41_2 C 0.4772(6) 0.3808(4) 0.32064(16)
H35_2 H 0.4470 0.3353 0.3307
C42_2 C 0.4697(7) 0.4453(5) 0.3268(2)
H36_2 H 0.4375 0.4468 0.3404
C43_2 C 0.5207(6) 0.5120(4) 0.30869(19)
H37_2 H 0.5193 0.5581 0.3116
C44_2 C 0.5651(6) 0.4477(4) 0.28619(16)
H38_2 H 0.5958 0.4474 0.2719
Mg5_2 Mg 0.32390(14) 0.12391(10) 0.29727(3)
Mg6_2 Mg 0.40643(15) 0.04873(10) 0.40512(4)
Mg7_2 Mg 0.48282(17) 0.00993(13) 0.51874(4)
N10_2 N 0.5573(3) 0.2528(2) 0.33593(8)
N11_2 N 0.4364(4) 0.1814(2) 0.31635(9)
N12_2 N 0.5639(6) 0.5146(4) 0.29058(17)
O16_2 O 0.4953(3) 0.0805(2) 0.48569(9)
O17_2 O 0.4497(3) 0.0801(2) 0.44391(8)
O20_2 O 0.61987(27) 0.23417(18) 0.38112(7)
O21_2 O 0.5158(3) 0.1193(2) 0.39156(8)
O22_2 O 0.36676(28) 0.02456(19) 0.36459(8)
O23_2 O 0.31268(28) 0.04798(19) 0.32922(8)
O24_2 O 0.3564(4) 0.0600(3) 0.27047(9)
H39_2 H 0.3559 0.0209 0.2639
H40_2 H 0.3800 0.0988 0.2599
O25_2 O 0.2108(4) 0.0505(2) 0.28378(12)
H41_2 H 0.1666 0.0309 0.2763
H42_2 H 0.2139 0.0156 0.2927
O27_2 O 0.4658(5) 0.0814(4) 0.54510(14)
H45_2 H 0.4628 0.1041 0.5593
H46_2 H 0.4538 0.0977 0.5316
O30_2 O 0.6007(4) 0.0730(3) 0.52751(11)
H51_2 H 0.6465 0.0972 0.5212
H52_2 H 0.6027 0.0772 0.5447
C45_2 C 0.6071(3) 0.5586(5) 0.46675(12)
C46_2 C 0.6080(3) 0.6318(4) 0.47477(11)
C47_2 C 0.6267(3) 0.7019(4) 0.46190(11)
C48_2 C 0.6644(3) 0.7399(4) 0.43652(11)
C49_2 C 0.5876(3) 0.7035(5) 0.50256(12)
C50_2 C 0.5660(4) 0.7281(6) 0.52910(12)
H53_2 H 0.5322 0.6814 0.5396
H54_2 H 0.5364 0.7542 0.5250
C51_2 C 0.6304(4) 0.7777(6) 0.54474(14)
C52_2 C 0.6891(4) 0.7594(6) 0.55115(16)
H55_2 H 0.6818 0.7111 0.5454
C53_2 C 0.7606(4) 0.8105(6) 0.56612(14)
H56_2 H 0.7994 0.7974 0.5691
C54_2 C 0.7671(4) 0.8778(6) 0.57534(15)
H57_2 H 0.8119 0.9110 0.5853
C55_2 C 0.6452(4) 0.8516(6) 0.55617(13)
H58_2 H 0.6078 0.8667 0.5533
C56_2 C 0.6273(3) 0.4499(4) 0.37589(12)
C57_2 C 0.6736(3) 0.4862(4) 0.35170(10)
C58_2 C 0.7019(3) 0.5617(4) 0.33954(11)
C59_2 C 0.6991(3) 0.6325(4) 0.34563(11)
C60_2 C 0.7397(3) 0.4919(4) 0.31572(9)
C61_2 C 0.7747(4) 0.4671(5) 0.29364(12)
H59_2 H 0.7386 0.4123 0.2892
H60_2 H 0.7812 0.4982 0.2775
C62_2 C 0.8542(4) 0.4764(5) 0.30147(14)
C63_2 C 0.9036(4) 0.5228(6) 0.32064(16)
H61_2 H 0.8883 0.5530 0.3307
C64_2 C 0.9756(5) 0.5303(7) 0.3268(2)
C65_2 C 0.9913(4) 0.4793(6) 0.30869(19)
C66_2 C 0.8826(4) 0.4349(6) 0.28619(16)
H64_2 H 0.8516 0.4042 0.2719
Mg8_2 Mg 0.80001(10) 0.67610(14) 0.29727(3)
Mg9_2 Mg 0.64230(11) 0.59357(15) 0.40512(4)
Mg10_2 Mg 0.52711(11) 0.51718(17) 0.51874(4)
N13_2 N 0.5792(2) 0.6314(4) 0.50055(9)
N14_2 N 0.6151(2) 0.7478(4) 0.48108(10)
N15_2 N 0.7123(3) 0.9019(4) 0.57124(10)
N16_2 N 0.6955(2) 0.4427(3) 0.33593(8)
N17_2 N 0.7450(3) 0.5636(4) 0.31635(9)
N18_2 N 0.9507(4) 0.4361(6) 0.29058(17)
O31_2 O 0.5852(2) 0.5047(3) 0.48569(9)
O32_2 O 0.6304(2) 0.5503(3) 0.44391(8)
O33_2 O 0.6765(2) 0.7024(3) 0.41753(8)
O34_2 O 0.6825(2) 0.8113(3) 0.43335(8)
O35_2 O 0.6143(2) 0.38013(27) 0.38112(7)
O36_2 O 0.6035(2) 0.4842(3) 0.39156(8)
O37_2 O 0.6578(2) 0.63324(28) 0.36459(8)
O38_2 O 0.7353(2) 0.68732(28) 0.32922(8)
O39_2 O 0.7036(3) 0.6436(4) 0.27047(9)
H65_2 H 0.6650 0.6441 0.2639
H66_2 H 0.7188 0.6200 0.2599
O40_2 O 0.8397(3) 0.7892(4) 0.28378(12)
H67_2 H 0.8643 0.8334 0.2763
H68_2 H 0.8017 0.7861 0.2927
O41_2 O 0.5257(3) 0.5681(4) 0.40463(12)
H69_2 H 0.4885 0.5632 0.3948
H70_2 H 0.5215 0.5818 0.4203
O42_2 O 0.6156(3) 0.5342(5) 0.54510(14)
H71_2 H 0.6413 0.5372 0.5593
H72_2 H 0.6439 0.5462 0.5316
O43_2 O 0.4814(4) 0.5465(5) 0.55243(12)
H73_2 H 0.4478 0.5482 0.5629
H74_2 H 0.5256 0.5705 0.5594
O44_2 O 0.4242(3) 0.4889(4) 0.49771(13)
H75_2 H 0.3838 0.4440 0.4954
H76_2 H 0.4166 0.5232 0.4907
O45_2 O 0.4723(3) 0.3993(4) 0.52751(11)
H77_2 H 0.4507 0.3535 0.5212
H78_2 H 0.4745 0.3973 0.5447
Mg13_2 Mg 0.65723(14) 0.86666(10) 0.46394(3)
N19_2 N 0.2818(2) 0.2006(3) 0.31441(10)
N20_2 N 0.7994(3) 0.0811(4) 0.31441(10)
N21_2 N 0.9189(4) 0.7182(2) 0.31441(10)
N22_2 N 0.3790(3) 0.1437(3) 0.40457(10)
N23_2 N 0.8563(3) 0.2352(4) 0.40457(10)
N24_2 N 0.7648(4) 0.6210(3) 0.40457(10)
O46_2 O 0.3492(2) 0.2045(2) 0.26668(8)
O47_2 O 0.7955(2) 0.1446(3) 0.26668(8)
O48_2 O 0.8554(3) 0.6508(2) 0.26668(8)
H10 H 0.5532 0.9907 0.3404
H11 H 0.4419 0.9612 0.3116
C24 C 0.3682(4) 0.9762(3) 0.47477(11)
C25 C 0.2981(4) 0.9248(3) 0.46190(11)
C26 C 0.2601(4) 0.9245(3) 0.43652(11)
C27_2 C 0.2965(5) 0.8841(4) 0.50256(12)
C28_2 C 0.2719(6) 0.8379(4) 0.52910(12)
H27_2 H 0.3186 0.8508 0.5396
H28_2 H 0.2458 0.7822 0.5250
C29_2 C 0.2223(6) 0.8527(4) 0.54474(14)
C30_2 C 0.2406(6) 0.9297(4) 0.55115(16)
H29_2 H 0.2889 0.9707 0.5454
C31_2 C 0.1895(6) 0.9501(4) 0.56612(14)
C32_2 C 0.1222(6) 0.8893(4) 0.57534(15)
H31_2 H 0.0890 0.9009 0.5853
C33_2 C 0.1484(6) 0.7936(4) 0.55617(13)
H32_2 H 0.1333 0.7411 0.5533
N7_2 N 0.3686(4) 0.9478(3) 0.50055(9)
N8 N 0.2522(4) 0.8673(3) 0.48108(10)
N9_2 N 0.0981(4) 0.8104(3) 0.57124(10)
O18 O 0.2976(3) 0.9741(2) 0.41753(8)
O19 O 0.1887(3) 0.8712(2) 0.43335(8)
O26 O 0.4319(4) 0.9576(3) 0.40463(12)
H43 H 0.4368 0.9253 0.3948
H44 H 0.4182 0.9397 0.4203
O28_2 O 0.4535(5) 0.9349(3) 0.55243(12)
H47_2 H 0.4518 0.8996 0.5629
H48_2 H 0.4295 0.9551 0.5594
O29 O 0.5111(4) 0.9353(3) 0.49771(13)
H49 H 0.5560 0.9398 0.4954
H50 H 0.4768 0.8934 0.4907
Mg11 Mg 0.13334(10) 0.79058(10) 0.46394(3)
Mg14_2 Mg 0.97563(11) 0.71540(10) 0.57179(4)
C25_2 C 0.7419(3) 0.0352(4) 0.29523(11)
C26_2 C 0.7422(3) 0.0732(4) 0.26985(11)
C27_3 C 0.7826(4) 0.0368(5) 0.33589(12)
C28_3 C 0.8288(4) 0.0614(6) 0.36243(12)
H27_3 H 0.8159 0.0147 0.3729
H28_3 H 0.8845 0.0875 0.3583
C29_3 C 0.8140(4) 0.1110(6) 0.37807(14)
C30_3 C 0.7370(4) 0.0927(6) 0.38448(16)
H29_3 H 0.6960 0.0444 0.3787
C31_3 C 0.7166(4) 0.1438(6) 0.39945(14)
H30_3 H 0.6647 0.1307 0.4024
C32_3 C 0.7774(4) 0.2111(6) 0.40867(15)
H31_3 H 0.7658 0.2443 0.4186
C33_3 C 0.8731(4) 0.1849(6) 0.38950(13)
H32_3 H 0.9256 0.2000 0.3866
Mg5_3 Mg 0.54276(10) 0.00943(14) 0.13060(3)
O18_2 O 0.6926(2) 0.0357(3) 0.25086(8)
O23_3 O 0.61869(19) 0.02065(28) 0.16255(8)
O25_3 O 0.6162(2) 0.1225(4) 0.11711(12)
H41_3 H 0.6358 0.1667 0.1096
H42_3 H 0.6511 0.1194 0.1260
N19_3 N 0.4660(3) 0.0516(2) 0.14775(10)
C1_3 C 0.2738(3) 0.3818(4) 0.30008(12)
C2_2 C 0.2747(3) 0.3095(3) 0.30810(11)
C3_2 C 0.2934(3) 0.2581(3) 0.29523(11)
C4_2 C 0.3311(3) 0.2578(3) 0.26985(11)
C5_3 C 0.2543(3) 0.2174(4) 0.33589(12)
C6_3 C 0.2327(4) 0.1712(4) 0.36243(12)
H1_3 H 0.1989 0.1841 0.3729
H2_3 H 0.2031 0.1155 0.3583
C7_3 C 0.2971(4) 0.1860(4) 0.37807(14)
C8_3 C 0.3558(4) 0.2630(4) 0.38448(16)
H3_3 H 0.3485 0.3040 0.3787
C9_3 C 0.4273(4) 0.2834(4) 0.39945(14)
H4_3 H 0.4661 0.3353 0.4024
C10_3 C 0.4338(4) 0.2226(4) 0.40867(15)
H5_3 H 0.4786 0.2342 0.4186
C11_3 C 0.3119(4) 0.1269(4) 0.38950(13)
H6_3 H 0.2745 0.0744 0.3866
C12_3 C 0.2940(3) 0.5107(3) 0.20922(12)
C13_3 C 0.3403(3) 0.5207(3) 0.18503(10)
C14_3 C 0.3686(3) 0.4735(3) 0.17287(11)
C15_3 C 0.3658(3) 0.3999(3) 0.17896(11)
C16_3 C 0.4064(3) 0.5811(3) 0.14905(9)
C17_3 C 0.4414(4) 0.6409(3) 0.12697(12)
H7_3 H 0.4053 0.6596 0.1225
H8_3 H 0.4479 0.6163 0.1108
C18_3 C 0.5209(4) 0.7111(3) 0.13480(14)
C19_3 C 0.5703(4) 0.7141(4) 0.15397(16)
H9_3 H 0.5550 0.6686 0.1640
C20_3 C 0.6423(5) 0.7786(5) 0.1601(2)
H10_2 H 0.6760 0.7801 0.1737
C21_3 C 0.6580(4) 0.8453(4) 0.14202(19)
H11_2 H 0.7055 0.8914 0.1449
C22_3 C 0.5493(4) 0.7810(4) 0.11952(16)
H12_3 H 0.5183 0.7807 0.1052
Mg1_3 Mg 0.46668(10) 0.45724(10) 0.13060(3)
Mg2_3 Mg 0.30897(11) 0.38206(10) 0.23845(4)
Mg3_3 Mg 0.3334 0.6666 0.18925(6)
Mg4_3 Mg 0.19378(11) 0.34326(13) 0.35207(4)
N1_3 N 0.2459(2) 0.2811(3) 0.33388(9)
N4_3 N 0.3622(2) 0.5861(2) 0.16926(8)
N5_3 N 0.4117(3) 0.5147(2) 0.14968(9)
N6_3 N 0.6174(4) 0.8479(4) 0.12391(17)
O1_3 O 0.2519(2) 0.4138(2) 0.31902(9)
O2_3 O 0.2971(2) 0.4134(2) 0.27724(8)
O3_2 O 0.3432(2) 0.3074(2) 0.25086(8)
O5_3 O 0.2810(2) 0.56750(18) 0.21445(7)
O6_3 O 0.2702(2) 0.4526(2) 0.22489(8)
O7_3 O 0.3245(2) 0.35789(19) 0.19792(8)
O8_3 O 0.4020(2) 0.38131(19) 0.16255(8)
O9_3 O 0.3703(3) 0.3933(3) 0.10380(9)
H13_3 H 0.3317 0.3542 0.0972
H14_3 H 0.3855 0.4321 0.0932
O10_3 O 0.5064(3) 0.3838(2) 0.11711(12)
H15_3 H 0.5310 0.3642 0.1096
H16_3 H 0.4684 0.3489 0.1260
O11_2 O 0.1924(3) 0.2909(3) 0.23796(12)
H17_2 H 0.1552 0.2586 0.2281
H18_2 H 0.1882 0.2730 0.2536
O12_3 O 0.2823(3) 0.4147(4) 0.37843(14)
H19_3 H 0.3080 0.4374 0.3926
H20_3 H 0.3106 0.4310 0.3649
O13_3 O 0.1481(4) 0.2682(3) 0.38576(12)
H21_3 H 0.1145 0.2329 0.3962
H22_3 H 0.1923 0.2884 0.3927
O14_2 O 0.0909(3) 0.2686(3) 0.33104(13)
H23_2 H 0.0505 0.2731 0.3287
H24_2 H 0.0833 0.2267 0.3240
O15_3 O 0.1390(3) 0.4063(3) 0.36084(11)
H25_3 H 0.1174 0.4305 0.3545
H26_3 H 0.1412 0.4105 0.3780
C23_3 C 0.6182(4) 0.8919(5) 0.30008(12)
C24_2 C 0.6905(3) 0.9651(4) 0.30810(11)
C34_3 C 0.4893(3) 0.7832(4) 0.20922(12)
C35_3 C 0.4793(3) 0.8195(4) 0.18503(10)
C36_3 C 0.5265(3) 0.8950(4) 0.17287(11)
C37_3 C 0.6001(3) 0.9658(4) 0.17896(11)
C38_3 C 0.4189(3) 0.8252(4) 0.14905(9)
C39_3 C 0.3591(3) 0.8004(5) 0.12697(12)
H33_3 H 0.3404 0.7456 0.1225
H34_3 H 0.3837 0.8315 0.1108
C40_3 C 0.2889(3) 0.8097(5) 0.13480(14)
C41_3 C 0.2859(4) 0.8561(6) 0.15397(16)
H35_3 H 0.3314 0.8863 0.1640
C42_3 C 0.2214(5) 0.8636(7) 0.1601(2)
H36_3 H 0.2199 0.8958 0.1737
C43_3 C 0.1547(4) 0.8126(6) 0.14202(19)
H37_3 H 0.1086 0.8140 0.1449
C44_3 C 0.2190(4) 0.7682(6) 0.11952(16)
H38_3 H 0.2193 0.7375 0.1052
Mg6_3 Mg 0.61794(10) 0.92690(15) 0.23845(4)
Mg7_3 Mg 0.65674(13) 0.85051(17) 0.35207(4)
N7_3 N 0.7189(3) 0.9647(4) 0.33388(9)
N10_3 N 0.4139(2) 0.7760(3) 0.16926(8)
N11_3 N 0.4853(2) 0.8969(4) 0.14968(9)
N12_3 N 0.1521(4) 0.7694(6) 0.12391(17)
O16_3 O 0.5862(2) 0.8380(3) 0.31902(9)
O17_3 O 0.5866(2) 0.8836(3) 0.27724(8)
O20_3 O 0.43250(18) 0.71346(27) 0.21445(7)
O21_3 O 0.5474(2) 0.8175(3) 0.22489(8)
O22_3 O 0.64211(19) 0.96657(28) 0.19792(8)
O24_3 O 0.6067(3) 0.9769(4) 0.10380(9)
H39_3 H 0.6458 0.9774 0.0972
H40_3 H 0.5679 0.9533 0.0932
O26_2 O 0.7091(3) 0.9014(4) 0.23796(12)
H43_2 H 0.7414 0.8965 0.2281
H44_2 H 0.7270 0.9151 0.2536
O27_3 O 0.5853(4) 0.8675(5) 0.37843(14)
H45_3 H 0.5626 0.8705 0.3926
H46_3 H 0.5690 0.8795 0.3649
O28_3 O 0.7318(3) 0.8798(5) 0.38576(12)
H47_3 H 0.7671 0.8815 0.3962
H48_3 H 0.7116 0.9038 0.3927
O29_2 O 0.7314(3) 0.8222(4) 0.33104(13)
H49_2 H 0.7269 0.7773 0.3287
H50_2 H 0.7733 0.8565 0.3240
O30_3 O 0.5937(3) 0.7326(4) 0.36084(11)
H51_3 H 0.5695 0.6868 0.3545
H52_3 H 0.5895 0.7306 0.3780
C45_3 C 0.1081(5) 0.7262(3) 0.30008(12)
C46_3 C 0.0349(4) 0.7253(3) 0.30810(11)
C56_3 C 0.2168(4) 0.7060(3) 0.20922(12)
C57_3 C 0.1805(4) 0.6597(3) 0.18503(10)
C58_3 C 0.1050(4) 0.6314(3) 0.17287(11)
C59_3 C 0.0342(4) 0.6342(3) 0.17896(11)
C60_3 C 0.1748(4) 0.5936(3) 0.14905(9)
C61_3 C 0.1996(5) 0.5586(4) 0.12697(12)
H59_3 H 0.2544 0.5947 0.1225
H60_3 H 0.1685 0.5521 0.1108
C62_3 C 0.1903(5) 0.4791(4) 0.13480(14)
C63_3 C 0.1439(6) 0.4297(4) 0.15397(16)
H61_3 H 0.1137 0.4450 0.1640
C64_3 C 0.1364(7) 0.3577(5) 0.1601(2)
H62_2 H 0.1042 0.3240 0.1737
C65_3 C 0.1874(6) 0.3420(4) 0.14202(19)
H63_2 H 0.1860 0.2945 0.1449
C66_3 C 0.2318(6) 0.4507(4) 0.11952(16)
H64_3 H 0.2625 0.4817 0.1052
Mg9_3 Mg 0.07310(15) 0.69103(11) 0.23845(4)
Mg10_3 Mg 0.14949(17) 0.80622(11) 0.35207(4)
N13_3 N 0.0353(4) 0.7541(2) 0.33388(9)
N16_3 N 0.2240(3) 0.6378(2) 0.16926(8)
N17_3 N 0.1031(4) 0.5883(3) 0.14968(9)
N18_3 N 0.2306(6) 0.3826(4) 0.12391(17)
O31_3 O 0.1620(3) 0.7481(2) 0.31902(9)
O32_3 O 0.1164(3) 0.7029(2) 0.27724(8)
O35_3 O 0.28654(27) 0.7190(2) 0.21445(7)
O36_3 O 0.1825(3) 0.7298(2) 0.22489(8)
O37_3 O 0.03343(28) 0.6755(2) 0.19792(8)
O39_3 O 0.0231(4) 0.6297(3) 0.10380(9)
H65_3 H 0.0226 0.6683 0.0972
H66_3 H 0.0467 0.6145 0.0932
O41_3 O 0.0986(4) 0.8076(3) 0.23796(12)
H69_3 H 0.1035 0.8448 0.2281
H70_3 H 0.0849 0.8118 0.2536
O42_3 O 0.1325(5) 0.7177(3) 0.37843(14)
H71_3 H 0.1295 0.6920 0.3926
H72_3 H 0.1205 0.6894 0.3649
O43_3 O 0.1202(5) 0.8519(4) 0.38576(12)
H73_3 H 0.1185 0.8855 0.3962
H74_3 H 0.0962 0.8077 0.3927
O44_3 O 0.1778(4) 0.9091(3) 0.33104(13)
H75_3 H 0.2227 0.9495 0.3287
H76_3 H 0.1435 0.9167 0.3240
O45_3 O 0.2674(4) 0.8610(3) 0.36084(11)
H77_3 H 0.3132 0.8826 0.3545
H78_3 H 0.2694 0.8588 0.3780
N20_3 N 0.5855(4) 0.5340(3) 0.14775(10)
N22_3 N 0.5229(3) 0.9544(3) 0.23791(10)
N23_3 N 0.4314(4) 0.4771(3) 0.23791(10)
N24_3 N 0.0456(3) 0.5686(4) 0.23791(10)
O46_3 O 0.4621(2) 0.9842(2) 0.10002(8)
O47_3 O 0.5220(3) 0.5379(2) 0.10002(8)
O48_3 O 0.0158(2) 0.4780(3) 0.10002(8)
C47_3 C 0.9648(4) 0.7066(3) 0.29523(11)
C48_3 C 0.9268(4) 0.6689(3) 0.26985(11)
C49_3 C 0.9632(5) 0.7457(3) 0.33589(12)
C50_3 C 0.9386(6) 0.7673(4) 0.36243(12)
H53_3 H 0.9853 0.8011 0.3729
H54_3 H 0.9125 0.7969 0.3583
C51_3 C 0.8890(6) 0.7029(4) 0.37807(14)
C52_3 C 0.9073(6) 0.6442(4) 0.38448(16)
H55_3 H 0.9556 0.6515 0.3787
C53_3 C 0.8562(6) 0.5727(4) 0.39945(14)
H56_3 H 0.8693 0.5339 0.4024
C54_3 C 0.7889(6) 0.5662(4) 0.40867(15)
H57_3 H 0.7557 0.5214 0.4186
C55_3 C 0.8151(6) 0.6881(4) 0.38950(13)
H58_3 H 0.8000 0.7255 0.3866
Mg8_3 Mg 0.99057(14) 0.53332(10) 0.13060(3)
O33_3 O 0.9643(3) 0.6568(2) 0.25086(8)
O38_3 O 0.97935(28) 0.5980(2) 0.16255(8)
O40_3 O 0.8775(4) 0.4936(3) 0.11711(12)
H67_3 H 0.8333 0.4690 0.1096
H68_3 H 0.8806 0.5316 0.1260
N21_3 N 0.9484(2) 0.4145(4) 0.14775(10)
C47_4 C 0.2934(3) 0.0352(4) 0.79523(11)
C48_4 C 0.3311(3) 0.0732(4) 0.76985(11)
C49_4 C 0.2543(3) 0.0368(5) 0.83589(12)
C50_4 C 0.2327(4) 0.0614(6) 0.86243(12)
H53_4 H 0.1989 0.0147 0.8729
H54_4 H 0.2031 0.0875 0.8583
C51_4 C 0.2971(4) 0.1110(6) 0.87807(14)
C52_4 C 0.3558(4) 0.0927(6) 0.88448(16)
H55_4 H 0.3485 0.0444 0.8787
C53_4 C 0.4273(4) 0.1438(6) 0.89945(14)
H56_4 H 0.4661 0.1307 0.9024
C54_4 C 0.4338(4) 0.2111(6) 0.90867(15)
H57_4 H 0.4786 0.2443 0.9186
C55_4 C 0.3119(4) 0.1849(6) 0.88950(13)
H58_4 H 0.2745 0.2000 0.8866
Mg8_4 Mg 0.46668(10) 0.00943(14) 0.63060(3)
O33_4 O 0.3432(2) 0.0357(3) 0.75086(8)
O38_4 O 0.4020(2) 0.02065(28) 0.66255(8)
O40_4 O 0.5064(3) 0.1225(4) 0.61711(12)
H67_4 H 0.5310 0.1667 0.6096
H68_4 H 0.4684 0.1194 0.6260
N21_4 N 0.5855(4) 0.0516(2) 0.64775(10)
C1_4 C 0.6182(4) 0.7262(3) 0.80008(12)
C2_3 C 0.6905(3) 0.7253(3) 0.80810(11)
C3_3 C 0.7419(3) 0.7066(3) 0.79523(11)
C4_3 C 0.7422(3) 0.6689(3) 0.76985(11)
C5_4 C 0.7826(4) 0.7457(3) 0.83589(12)
C6_4 C 0.8288(4) 0.7673(4) 0.86243(12)
H1_4 H 0.8159 0.8011 0.8729
H2_4 H 0.8845 0.7969 0.8583
C7_4 C 0.8140(4) 0.7029(4) 0.87807(14)
C8_4 C 0.7370(4) 0.6442(4) 0.88448(16)
H3_4 H 0.6960 0.6515 0.8787
C9_4 C 0.7166(4) 0.5727(4) 0.89945(14)
H4_4 H 0.6647 0.5339 0.9024
C10_4 C 0.7774(4) 0.5662(4) 0.90867(15)
H5_4 H 0.7658 0.5214 0.9186
C11_4 C 0.8731(4) 0.6881(4) 0.88950(13)
H6_4 H 0.9256 0.7255 0.8866
C12_4 C 0.4893(3) 0.7060(3) 0.70922(12)
C13_4 C 0.4793(3) 0.6597(3) 0.68503(10)
C14_4 C 0.5265(3) 0.6314(3) 0.67287(11)
C15_4 C 0.6001(3) 0.6342(3) 0.67896(11)
C16_4 C 0.4189(3) 0.5936(3) 0.64905(9)
C17_4 C 0.3591(3) 0.5586(4) 0.62697(12)
H7_4 H 0.3404 0.5947 0.6225
H8_4 H 0.3837 0.5521 0.6108
C18_4 C 0.2889(3) 0.4791(4) 0.63480(14)
C19_4 C 0.2859(4) 0.4297(4) 0.65397(16)
H9_4 H 0.3314 0.4450 0.6640
C20_4 C 0.2214(5) 0.3577(5) 0.6601(2)
H10_3 H 0.2199 0.3240 0.6737
C21_4 C 0.1547(4) 0.3420(4) 0.64202(19)
H11_3 H 0.1086 0.2945 0.6449
C22_4 C 0.2190(4) 0.4507(4) 0.61952(16)
H12_4 H 0.2193 0.4817 0.6052
Mg1_4 Mg 0.54276(10) 0.53332(10) 0.63060(3)
Mg2_4 Mg 0.61794(10) 0.69103(11) 0.73845(4)
Mg3_4 Mg 0.3334 0.6666 0.68925(6)
Mg4_4 Mg 0.65674(13) 0.80622(11) 0.85207(4)
N1_4 N 0.7189(3) 0.7541(2) 0.83388(9)
N4_4 N 0.4139(2) 0.6378(2) 0.66926(8)
N5_4 N 0.4853(2) 0.5883(3) 0.64968(9)
N6_4 N 0.1521(4) 0.3826(4) 0.62391(17)
O1_4 O 0.5862(2) 0.7481(2) 0.81902(9)
O2_4 O 0.5866(2) 0.7029(2) 0.77724(8)
O3_3 O 0.6926(2) 0.6568(2) 0.75086(8)
O5_4 O 0.43250(18) 0.7190(2) 0.71445(7)
O6_4 O 0.5474(2) 0.7298(2) 0.72489(8)
O7_4 O 0.64211(19) 0.6755(2) 0.69792(8)
O8_4 O 0.61869(19) 0.5980(2) 0.66255(8)
O9_4 O 0.6067(3) 0.6297(3) 0.60380(9)
H13_4 H 0.6458 0.6683 0.5972
H14_4 H 0.5679 0.6145 0.5932
O10_4 O 0.6162(2) 0.4936(3) 0.61711(12)
H15_4 H 0.6358 0.4690 0.6096
H16_4 H 0.6511 0.5316 0.6260
O11_3 O 0.7091(3) 0.8076(3) 0.73796(12)
H17_3 H 0.7414 0.8448 0.7281
H18_3 H 0.7270 0.8118 0.7536
O12_4 O 0.5853(4) 0.7177(3) 0.87843(14)
H19_4 H 0.5626 0.6920 0.8926
H20_4 H 0.5690 0.6894 0.8649
O13_4 O 0.7318(3) 0.8519(4) 0.88576(12)
H21_4 H 0.7671 0.8855 0.8962
H22_4 H 0.7116 0.8077 0.8927
O14_3 O 0.7314(3) 0.9091(3) 0.83104(13)
H23_3 H 0.7269 0.9495 0.8287
H24_3 H 0.7733 0.9167 0.8240
O15_4 O 0.5937(3) 0.8610(3) 0.86084(11)
H25_4 H 0.5695 0.8826 0.8545
H26_4 H 0.5895 0.8588 0.8780
C23_4 C 0.1081(5) 0.3818(4) 0.80008(12)
C24_3 C 0.0349(4) 0.3095(3) 0.80810(11)
C34_4 C 0.2168(4) 0.5107(3) 0.70922(12)
C35_4 C 0.1805(4) 0.5207(3) 0.68503(10)
C36_4 C 0.1050(4) 0.4735(3) 0.67287(11)
C37_4 C 0.0342(4) 0.3999(3) 0.67896(11)
C38_4 C 0.1748(4) 0.5811(3) 0.64905(9)
C39_4 C 0.1996(5) 0.6409(3) 0.62697(12)
H33_4 H 0.2544 0.6596 0.6225
H34_4 H 0.1685 0.6163 0.6108
C40_4 C 0.1903(5) 0.7111(3) 0.63480(14)
C41_4 C 0.1439(6) 0.7141(4) 0.65397(16)
H35_4 H 0.1137 0.6686 0.6640
C42_4 C 0.1364(7) 0.7786(5) 0.6601(2)
H36_4 H 0.1042 0.7801 0.6737
C43_4 C 0.1874(6) 0.8453(4) 0.64202(19)
H37_4 H 0.1860 0.8914 0.6449
C44_4 C 0.2318(6) 0.7810(4) 0.61952(16)
H38_4 H 0.2625 0.7807 0.6052
Mg6_4 Mg 0.07310(15) 0.38206(10) 0.73845(4)
Mg7_4 Mg 0.14949(17) 0.34326(13) 0.85207(4)
N7_4 N 0.0353(4) 0.2811(3) 0.83388(9)
N10_4 N 0.2240(3) 0.5861(2) 0.66926(8)
N11_4 N 0.1031(4) 0.5147(2) 0.64968(9)
N12_4 N 0.2306(6) 0.8479(4) 0.62391(17)
O16_4 O 0.1620(3) 0.4138(2) 0.81902(9)
O17_4 O 0.1164(3) 0.4134(2) 0.77724(8)
O20_4 O 0.28654(27) 0.56750(18) 0.71445(7)
O21_4 O 0.1825(3) 0.4526(2) 0.72489(8)
O22_4 O 0.03343(28) 0.35789(19) 0.69792(8)
O24_4 O 0.0231(4) 0.3933(3) 0.60380(9)
H39_4 H 0.0226 0.3542 0.5972
H40_4 H 0.0467 0.4321 0.5932
O26_3 O 0.0986(4) 0.2909(3) 0.73796(12)
H43_3 H 0.1035 0.2586 0.7281
H44_3 H 0.0849 0.2730 0.7536
O27_4 O 0.1325(5) 0.4147(4) 0.87843(14)
H45_4 H 0.1295 0.4374 0.8926
H46_4 H 0.1205 0.4310 0.8649
O28_4 O 0.1202(5) 0.2682(3) 0.88576(12)
H47_4 H 0.1185 0.2329 0.8962
H48_4 H 0.0962 0.2884 0.8927
O29_3 O 0.1778(4) 0.2686(3) 0.83104(13)
H49_3 H 0.2227 0.2731 0.8287
H50_3 H 0.1435 0.2267 0.8240
O30_4 O 0.2674(4) 0.4063(3) 0.86084(11)
H51_4 H 0.3132 0.4305 0.8545
H52_4 H 0.2694 0.4105 0.8780
C45_4 C 0.2738(3) 0.8919(5) 0.80008(12)
C46_4 C 0.2747(3) 0.9651(4) 0.80810(11)
C56_4 C 0.2940(3) 0.7832(4) 0.70922(12)
C57_4 C 0.3403(3) 0.8195(4) 0.68503(10)
C58_4 C 0.3686(3) 0.8950(4) 0.67287(11)
C59_4 C 0.3658(3) 0.9658(4) 0.67896(11)
C60_4 C 0.4064(3) 0.8252(4) 0.64905(9)
C61_4 C 0.4414(4) 0.8004(5) 0.62697(12)
H59_4 H 0.4053 0.7456 0.6225
H60_4 H 0.4479 0.8315 0.6108
C62_4 C 0.5209(4) 0.8097(5) 0.63480(14)
C63_4 C 0.5703(4) 0.8561(6) 0.65397(16)
H61_4 H 0.5550 0.8863 0.6640
C64_4 C 0.6423(5) 0.8636(7) 0.6601(2)
H62_3 H 0.6760 0.8958 0.6737
C65_4 C 0.6580(4) 0.8126(6) 0.64202(19)
H63_3 H 0.7055 0.8140 0.6449
C66_4 C 0.5493(4) 0.7682(6) 0.61952(16)
H64_4 H 0.5183 0.7375 0.6052
Mg9_4 Mg 0.30897(11) 0.92690(15) 0.73845(4)
Mg10_4 Mg 0.19378(11) 0.85051(17) 0.85207(4)
N13_4 N 0.2459(2) 0.9647(4) 0.83388(9)
N16_4 N 0.3622(2) 0.7760(3) 0.66926(8)
N17_4 N 0.4117(3) 0.8969(4) 0.64968(9)
N18_4 N 0.6174(4) 0.7694(6) 0.62391(17)
O31_4 O 0.2519(2) 0.8380(3) 0.81902(9)
O32_4 O 0.2971(2) 0.8836(3) 0.77724(8)
O35_4 O 0.2810(2) 0.71346(27) 0.71445(7)
O36_4 O 0.2702(2) 0.8175(3) 0.72489(8)
O37_4 O 0.3245(2) 0.96657(28) 0.69792(8)
O39_4 O 0.3703(3) 0.9769(4) 0.60380(9)
H65_4 H 0.3317 0.9774 0.5972
H66_4 H 0.3855 0.9533 0.5932
O41_4 O 0.1924(3) 0.9014(4) 0.73796(12)
H69_4 H 0.1552 0.8965 0.7281
H70_4 H 0.1882 0.9151 0.7536
O42_4 O 0.2823(3) 0.8675(5) 0.87843(14)
H71_4 H 0.3080 0.8705 0.8926
H72_4 H 0.3106 0.8795 0.8649
O43_4 O 0.1481(4) 0.8798(5) 0.88576(12)
H73_4 H 0.1145 0.8815 0.8962
H74_4 H 0.1923 0.9038 0.8927
O44_4 O 0.0909(3) 0.8222(4) 0.83104(13)
H75_4 H 0.0505 0.7773 0.8287
H76_4 H 0.0833 0.8565 0.8240
O45_4 O 0.1390(3) 0.7326(4) 0.86084(11)
H77_4 H 0.1174 0.6868 0.8545
H78_4 H 0.1412 0.7306 0.8780
N20_4 N 0.4660(3) 0.4145(4) 0.64775(10)
N22_4 N 0.0456(3) 0.4771(3) 0.73791(10)
N23_4 N 0.5229(3) 0.5686(4) 0.73791(10)
N24_4 N 0.4314(4) 0.9544(3) 0.73791(10)
O46_4 O 0.0158(2) 0.5379(2) 0.60002(8)
O47_4 O 0.4621(2) 0.4780(3) 0.60002(8)
O48_4 O 0.5220(3) 0.9842(2) 0.60002(8)
C25_3 C 0.9648(4) 0.2581(3) 0.79523(11)
C26_3 C 0.9268(4) 0.2578(3) 0.76985(11)
C27_4 C 0.9632(5) 0.2174(4) 0.83589(12)
C28_4 C 0.9386(6) 0.1712(4) 0.86243(12)
H27_4 H 0.9853 0.1841 0.8729
H28_4 H 0.9125 0.1155 0.8583
C29_4 C 0.8890(6) 0.1860(4) 0.87807(14)
C30_4 C 0.9073(6) 0.2630(4) 0.88448(16)
H29_4 H 0.9556 0.3040 0.8787
C31_4 C 0.8562(6) 0.2834(4) 0.89945(14)
H30_4 H 0.8693 0.3353 0.9024
C32_4 C 0.7889(6) 0.2226(4) 0.90867(15)
H31_4 H 0.7557 0.2342 0.9186
C33_4 C 0.8151(6) 0.1269(4) 0.88950(13)
H32_4 H 0.8000 0.0744 0.8866
Mg5_4 Mg 0.99057(14) 0.45724(10) 0.63060(3)
O18_3 O 0.9643(3) 0.3074(2) 0.75086(8)
O23_4 O 0.97935(28) 0.38131(19) 0.66255(8)
O25_4 O 0.8775(4) 0.3838(2) 0.61711(12)
H41_4 H 0.8333 0.3642 0.6096
H42_4 H 0.8806 0.3489 0.6260
N19_4 N 0.9484(2) 0.5340(3) 0.64775(10)
C18_5 C 0.1875(4) 0.0445(3) 0.46814(14)
C19_5 C 0.2369(4) 0.0475(4) 0.48731(16)
H9_5 H 0.2216 0.0020 0.4974
C20_5 C 0.3089(5) 0.1120(5) 0.4935(2)
H10_4 H 0.3426 0.1135 0.5071
C21_5 C 0.3246(4) 0.1787(4) 0.47536(19)
H11_4 H 0.3721 0.2248 0.4783
C22_5 C 0.2159(4) 0.1144(4) 0.45286(16)
H12_5 H 0.1849 0.1141 0.4386
Mg3_5 Mg 0.0000 -0.0000 0.52259(6)
N6_5 N 0.2840(4) 0.1813(4) 0.45725(17)
C23_5 C 0.2848(4) 0.2253(5) 0.63342(12)
C24_4 C 0.3571(3) 0.2985(4) 0.64144(11)
C25_4 C 0.4085(3) 0.3686(4) 0.62857(11)
C26_4 C 0.4088(3) 0.4066(4) 0.60319(11)
C27_5 C 0.4492(4) 0.3702(5) 0.66923(12)
C28_5 C 0.4954(4) 0.3948(6) 0.69577(12)
H27_5 H 0.4825 0.3481 0.7063
H28_5 H 0.5511 0.4209 0.6917
C29_5 C 0.4806(4) 0.4444(6) 0.71141(14)
C30_5 C 0.4036(4) 0.4261(6) 0.71782(16)
H29_5 H 0.3626 0.3778 0.7121
C31_5 C 0.3832(4) 0.4772(6) 0.73279(14)
H30_5 H 0.3313 0.4641 0.7358
C32_5 C 0.4440(4) 0.5445(6) 0.74201(15)
H31_5 H 0.4324 0.5777 0.7520
C33_5 C 0.5397(4) 0.5183(6) 0.72284(13)
H32_5 H 0.5922 0.5334 0.7200
C34_5 C 0.1559(3) 0.1166(4) 0.54256(12)
C35_5 C 0.1459(3) 0.1529(4) 0.51837(10)
C36_5 C 0.1931(3) 0.2284(4) 0.50621(11)
C37_5 C 0.2667(3) 0.2992(4) 0.51230(11)
C38_5 C 0.0855(3) 0.1586(4) 0.48239(9)
C39_5 C 0.0257(3) 0.1338(5) 0.46031(12)
H33_5 H 0.0070 0.0790 0.4559
H34_5 H 0.0503 0.1649 0.4442
Mg7_5 Mg 0.32340(13) 0.18385(17) 0.68541(4)
N7_5 N 0.3855(3) 0.2981(4) 0.66722(9)
N10_5 N 0.0805(2) 0.1094(3) 0.50260(8)
N11_5 N 0.1519(2) 0.2303(4) 0.48302(9)
O16_5 O 0.2528(2) 0.1714(3) 0.65236(9)
O17_5 O 0.2532(2) 0.2170(3) 0.61058(8)
O18_4 O 0.3592(2) 0.3691(3) 0.58420(8)
O20_5 O 0.09916(18) 0.04680(27) 0.54779(7)
O21_5 O 0.2140(2) 0.1509(3) 0.55823(8)
O22_5 O 0.30877(19) 0.29991(28) 0.53126(8)
O23_5 O 0.28535(19) 0.35399(28) 0.49589(8)
O24_5 O 0.2733(3) 0.3103(4) 0.43714(9)
H39_5 H 0.3124 0.3108 0.4306
H40_5 H 0.2345 0.2867 0.4266
O25_5 O 0.2828(2) 0.4559(4) 0.45045(12)
H41_5 H 0.3024 0.5001 0.4430
H42_5 H 0.3177 0.4528 0.4594
O26_4 O 0.3757(3) 0.2348(4) 0.57130(12)
H43_4 H 0.4080 0.2299 0.5615
H44_4 H 0.3936 0.2485 0.5870
O27_5 O 0.2519(4) 0.2009(5) 0.71177(14)
H45_5 H 0.2292 0.2039 0.7260
H46_5 H 0.2356 0.2129 0.6983
O28_5 O 0.3984(3) 0.2132(5) 0.71910(12)
H47_5 H 0.4337 0.2149 0.7296
H48_5 H 0.3782 0.2372 0.7261
O29_4 O 0.3980(3) 0.1556(4) 0.66438(13)
H49_4 H 0.3935 0.1107 0.6621
H50_4 H 0.4399 0.1899 0.6574
O30_5 O 0.2603(3) 0.0660(4) 0.69418(11)
H51_5 H 0.2361 0.0202 0.6879
H52_5 H 0.2561 0.0640 0.7114
C8_5 C 0.0224(4) 0.5964(4) 0.71782(16)
H3_5 H 0.0151 0.6374 0.7121
C9_5 C 0.0939(4) 0.6168(4) 0.73279(14)
H4_5 H 0.1327 0.6687 0.7358
C10_5 C 0.1004(4) 0.5560(4) 0.74201(15)
H5_5 H 0.1452 0.5676 0.7520
C13_5 C 0.0069(3) 0.8541(3) 0.51837(10)
C14_5 C 0.0352(3) 0.8069(3) 0.50621(11)
C15_5 C 0.0324(3) 0.7333(3) 0.51230(11)
C16_5 C 0.0730(3) 0.9145(3) 0.48239(9)
C17_5 C 0.1080(4) 0.9743(3) 0.46031(12)
H7_5 H 0.0719 0.9930 0.4559
H8_5 H 0.1145 0.9497 0.4442
Mg3_6 Mg 0.0000 1.0000 0.52259(6)
N4_5 N 0.0288(2) 0.9195(2) 0.50260(8)
N5_5 N 0.0783(3) 0.8481(2) 0.48302(9)
O3_4 O 0.0098(2) 0.6408(2) 0.58420(8)
O8_5 O 0.0686(2) 0.71465(19) 0.49589(8)
O9_5 O 0.0369(3) 0.7267(3) 0.43714(9)
H14_5 H 0.0521 0.7655 0.4266
O10_5 O 0.1730(3) 0.7172(2) 0.45045(12)
H15_5 H 0.1976 0.6976 0.4430
H16_5 H 0.1350 0.6823 0.4594
Mg3_7 Mg 1.0000 -0.0000 0.52259(6)
C40_5 C 0.9555(3) 0.1431(5) 0.46814(14)
C41_5 C 0.9525(4) 0.1895(6) 0.48731(16)
H35_5 H 0.9980 0.2197 0.4974
C42_5 C 0.8880(5) 0.1970(7) 0.4935(2)
H36_5 H 0.8865 0.2292 0.5071
C43_5 C 0.8213(4) 0.1460(6) 0.47536(19)
H37_5 H 0.7752 0.1474 0.4783
C44_5 C 0.8856(4) 0.1016(6) 0.45286(16)
H38_5 H 0.8859 0.0709 0.4386
N12_5 N 0.8187(4) 0.1028(6) 0.45725(17)
C45_5 C 0.7747(5) 0.0596(3) 0.63342(12)
C46_5 C 0.7015(4) 0.0587(3) 0.64144(11)
C47_5 C 0.6314(4) 0.0400(3) 0.62857(11)
C48_5 C 0.5934(4) 0.0023(3) 0.60319(11)
C49_5 C 0.6298(5) 0.0791(3) 0.66923(12)
C50_5 C 0.6052(6) 0.1007(4) 0.69577(12)
H53_5 H 0.6519 0.1345 0.7063
H54_5 H 0.5791 0.1303 0.6917
C51_5 C 0.5556(6) 0.0363(4) 0.71141(14)
C55_5 C 0.4817(6) 0.0215(4) 0.72284(13)
H58_5 H 0.4666 0.0589 0.7200
C56_5 C 0.8834(4) 0.0394(3) 0.54256(12)
Mg10_5 Mg 0.81615(17) 0.13956(11) 0.68541(4)
N13_5 N 0.7019(4) 0.0875(2) 0.66722(9)
O31_5 O 0.8286(3) 0.0815(2) 0.65236(9)
O32_5 O 0.7830(3) 0.0363(2) 0.61058(8)
O35_5 O 0.95320(27) 0.0524(2) 0.54779(7)
O36_5 O 0.8491(3) 0.0632(2) 0.55823(8)
O37_5 O 0.70009(28) 0.0089(2) 0.53126(8)
H65_5 H 0.6892 0.0017 0.4306
O41_5 O 0.7652(4) 0.1410(3) 0.57130(12)
H69_5 H 0.7701 0.1782 0.5615
H70_5 H 0.7515 0.1452 0.5870
O42_5 O 0.7991(5) 0.0511(3) 0.71177(14)
H71_5 H 0.7961 0.0254 0.7260
H72_5 H 0.7871 0.0228 0.6983
O43_5 O 0.7868(5) 0.1853(4) 0.71910(12)
H73_5 H 0.7851 0.2189 0.7296
H74_5 H 0.7628 0.1411 0.7261
O44_5 O 0.8444(4) 0.2425(3) 0.66438(13)
H75_5 H 0.8893 0.2829 0.6621
H76_5 H 0.8101 0.2501 0.6574
O45_5 O 0.9340(4) 0.1944(3) 0.69418(11)
H77_5 H 0.9798 0.2160 0.6879
H78_5 H 0.9360 0.1922 0.7114
C1_5 C 0.9404(3) 0.7152(4) 0.63342(12)
C2_4 C 0.9413(3) 0.6429(3) 0.64144(11)
C3_4 C 0.9600(3) 0.5915(3) 0.62857(11)
C4_4 C 0.9977(3) 0.5912(3) 0.60319(11)
C5_5 C 0.9209(3) 0.5508(4) 0.66923(12)
C6_5 C 0.8993(4) 0.5046(4) 0.69577(12)
H1_5 H 0.8655 0.5175 0.7063
H2_5 H 0.8697 0.4489 0.6917
C7_5 C 0.9637(4) 0.5194(4) 0.71141(14)
C11_5 C 0.9785(4) 0.4603(4) 0.72284(13)
H6_5 H 0.9411 0.4078 0.7200
C12_5 C 0.9606(3) 0.8441(3) 0.54256(12)
Mg3_8 Mg 1.0000 1.0000 0.52259(6)
Mg4_5 Mg 0.86044(11) 0.67660(13) 0.68541(4)
N1_5 N 0.9125(2) 0.6145(3) 0.66722(9)
O1_5 O 0.9185(2) 0.7472(2) 0.65236(9)
O2_5 O 0.9637(2) 0.7468(2) 0.61058(8)
O5_5 O 0.9476(2) 0.90084(18) 0.54779(7)
O6_5 O 0.9368(2) 0.7860(2) 0.55823(8)
O7_5 O 0.9911(2) 0.69123(19) 0.53126(8)
H13_5 H 0.9983 0.6876 0.4306
O11_4 O 0.8590(3) 0.6243(3) 0.57130(12)
H17_4 H 0.8218 0.5920 0.5615
H18_4 H 0.8548 0.6064 0.5870
O12_5 O 0.9489(3) 0.7481(4) 0.71177(14)
H19_5 H 0.9746 0.7708 0.7260
H20_5 H 0.9772 0.7644 0.6983
O13_5 O 0.8147(4) 0.6016(3) 0.71910(12)
H21_5 H 0.7811 0.5663 0.7296
H22_5 H 0.8589 0.6218 0.7261
O14_4 O 0.7575(3) 0.6020(3) 0.66438(13)
H23_4 H 0.7171 0.6065 0.6621
H24_4 H 0.7499 0.5601 0.6574
O15_5 O 0.8056(3) 0.7397(3) 0.69418(11)
H25_5 H 0.7840 0.7639 0.6879
H26_5 H 0.8078 0.7439 0.7114
C52_5 C 0.5739(6) 0.9776(4) 0.71782(16)
H55_5 H 0.6222 0.9849 0.7121
C53_5 C 0.5228(6) 0.9061(4) 0.73279(14)
H56_5 H 0.5359 0.8673 0.7358
C54_5 C 0.4555(6) 0.8996(4) 0.74201(15)
H57_5 H 0.4223 0.8548 0.7520
C57_5 C 0.8471(4) 0.9931(3) 0.51837(10)
C58_5 C 0.7716(4) 0.9648(3) 0.50621(11)
C59_5 C 0.7008(4) 0.9676(3) 0.51230(11)
C60_5 C 0.8414(4) 0.9270(3) 0.48239(9)
C61_5 C 0.8662(5) 0.8920(4) 0.46031(12)
H59_5 H 0.9210 0.9281 0.4559
H60_5 H 0.8351 0.8855 0.4442
C62_5 C 0.8569(5) 0.8125(4) 0.46814(14)
C63_5 C 0.8105(6) 0.7631(4) 0.48731(16)
H61_5 H 0.7803 0.7784 0.4974
C64_5 C 0.8030(7) 0.6911(5) 0.4935(2)
H62_4 H 0.7708 0.6574 0.5071
C65_5 C 0.8540(6) 0.6754(4) 0.47536(19)
H63_4 H 0.8526 0.6279 0.4783
C66_5 C 0.8984(6) 0.7841(4) 0.45286(16)
H64_5 H 0.9291 0.8151 0.4386
N16_5 N 0.8906(3) 0.9712(2) 0.50260(8)
N17_5 N 0.7697(4) 0.9217(3) 0.48302(9)
N18_5 N 0.8972(6) 0.7160(4) 0.45725(17)
O33_5 O 0.6309(3) 0.9902(2) 0.58420(8)
O38_5 O 0.64601(28) 0.9314(2) 0.49589(8)
O39_5 O 0.6897(4) 0.9631(3) 0.43714(9)
H66_5 H 0.7133 0.9479 0.4266
O40_5 O 0.5441(4) 0.8270(3) 0.45045(12)
H67_5 H 0.4999 0.8024 0.4430
H68_5 H 0.5472 0.8650 0.4594
C1_6 C 0.2848(4) 0.0596(3) 0.13342(12)
C2_5 C 0.3571(3) 0.0587(3) 0.14144(11)
C3_5 C 0.4085(3) 0.0400(3) 0.12857(11)
C4_5 C 0.4088(3) 0.0023(3) 0.10319(11)
C5_6 C 0.4492(4) 0.0791(3) 0.16923(12)
C6_6 C 0.4954(4) 0.1007(4) 0.19577(12)
H1_6 H 0.4825 0.1345 0.2063
H2_6 H 0.5511 0.1303 0.1917
C7_6 C 0.4806(4) 0.0363(4) 0.21141(14)
C11_6 C 0.5397(4) 0.0215(4) 0.22284(13)
H6_6 H 0.5922 0.0589 0.2200
C12_6 C 0.1559(3) 0.0394(3) 0.04256(12)
Mg3_9 Mg 0.0000 -0.0000 0.02259(6)
Mg4_6 Mg 0.32340(13) 0.13956(11) 0.18541(4)
N1_6 N 0.3855(3) 0.0875(2) 0.16722(9)
O1_6 O 0.2528(2) 0.0815(2) 0.15236(9)
O2_6 O 0.2532(2) 0.0363(2) 0.11058(8)
O5_6 O 0.09916(18) 0.0524(2) 0.04779(7)
O6_6 O 0.2140(2) 0.0632(2) 0.05823(8)
O7_6 O 0.30877(19) 0.0089(2) 0.03126(8)
O11_5 O 0.3757(3) 0.1410(3) 0.07130(12)
H17_5 H 0.4080 0.1782 0.0615
H18_5 H 0.3936 0.1452 0.0870
O12_6 O 0.2519(4) 0.0511(3) 0.21177(14)
H19_6 H 0.2292 0.0254 0.2260
H20_6 H 0.2356 0.0228 0.1983
O13_6 O 0.3984(3) 0.1853(4) 0.21910(12)
H21_6 H 0.4337 0.2189 0.2296
H22_6 H 0.3782 0.1411 0.2261
O14_5 O 0.3980(3) 0.2425(3) 0.16438(13)
H23_5 H 0.3935 0.2829 0.1621
H24_5 H 0.4399 0.2501 0.1574
O15_6 O 0.2603(3) 0.1944(3) 0.19418(11)
H25_6 H 0.2361 0.2160 0.1879
H26_6 H 0.2561 0.1922 0.2114
C52_6 C 0.0224(4) 0.4261(6) 0.21782(16)
H55_6 H 0.0151 0.3778 0.2121
C53_6 C 0.0939(4) 0.4772(6) 0.23279(14)
H56_6 H 0.1327 0.4641 0.2358
C54_6 C 0.1004(4) 0.5445(6) 0.24201(15)
H57_6 H 0.1452 0.5777 0.2520
C57_6 C 0.0069(3) 0.1529(4) 0.01837(10)
C58_6 C 0.0352(3) 0.2284(4) 0.00621(11)
C59_6 C 0.0324(3) 0.2992(4) 0.01230(11)
H62_5 H 0.3426 0.2292 0.0071
N16_6 N 0.0288(2) 0.1094(3) 0.00260(8)
O33_6 O 0.0098(2) 0.3691(3) 0.08420(8)
H13_6 H 0.3124 0.0017 0.9306
C60_6 C 0.0730(3) 0.1586(4) 0.98239(9)
C61_6 C 0.1080(4) 0.1338(5) 0.96031(12)
H59_6 H 0.0719 0.0790 0.9559
H60_6 H 0.1145 0.1649 0.9442
C62_6 C 0.1875(4) 0.1431(5) 0.96814(14)
C63_6 C 0.2369(4) 0.1895(6) 0.98731(16)
H61_6 H 0.2216 0.2197 0.9974
C64_6 C 0.3089(5) 0.1970(7) 0.9935(2)
C65_6 C 0.3246(4) 0.1460(6) 0.97536(19)
H63_5 H 0.3721 0.1474 0.9783
C66_6 C 0.2159(4) 0.1016(6) 0.95286(16)
H64_6 H 0.1849 0.0709 0.9386
N17_6 N 0.0783(3) 0.2303(4) 0.98302(9)
N18_6 N 0.2840(4) 0.1028(6) 0.95725(17)
O38_6 O 0.0686(2) 0.35399(28) 0.99589(8)
O39_6 O 0.0369(3) 0.3103(4) 0.93714(9)
H66_6 H 0.0521 0.2867 0.9266
O40_6 O 0.1730(3) 0.4559(4) 0.95045(12)
H67_6 H 0.1976 0.5001 0.9430
H68_6 H 0.1350 0.4528 0.9594
C8_6 C 0.4036(4) 0.9776(4) 0.21782(16)
H3_6 H 0.3626 0.9849 0.2121
C9_6 C 0.3832(4) 0.9061(4) 0.23279(14)
H4_6 H 0.3313 0.8673 0.2358
C10_6 C 0.4440(4) 0.8996(4) 0.24201(15)
H5_6 H 0.4324 0.8548 0.2520
C13_6 C 0.1459(3) 0.9931(3) 0.01837(10)
C14_6 C 0.1931(3) 0.9648(3) 0.00621(11)
C15_6 C 0.2667(3) 0.9676(3) 0.01230(11)
Mg3_10 Mg 0.0000 1.0000 0.02259(6)
N4_6 N 0.0805(2) 0.9712(2) 0.00260(8)
O3_5 O 0.3592(2) 0.9902(2) 0.08420(8)
Mg3_11 Mg 1.0000 -0.0000 0.02259(6)
H36_6 H 0.7708 0.1135 0.0071
C45_6 C 0.9404(3) 0.2253(5) 0.13342(12)
C46_6 C 0.9413(3) 0.2985(4) 0.14144(11)
C47_6 C 0.9600(3) 0.3686(4) 0.12857(11)
C48_6 C 0.9977(3) 0.4066(4) 0.10319(11)
C49_6 C 0.9209(3) 0.3702(5) 0.16923(12)
C50_6 C 0.8993(4) 0.3948(6) 0.19577(12)
H53_6 H 0.8655 0.3481 0.2063
H54_6 H 0.8697 0.4209 0.1917
C51_6 C 0.9637(4) 0.4444(6) 0.21141(14)
C55_6 C 0.9785(4) 0.5183(6) 0.22284(13)
H58_6 H 0.9411 0.5334 0.2200
C56_6 C 0.9606(3) 0.1166(4) 0.04256(12)
Mg10_6 Mg 0.86044(11) 0.18385(17) 0.18541(4)
N13_6 N 0.9125(2) 0.2981(4) 0.16722(9)
O31_6 O 0.9185(2) 0.1714(3) 0.15236(9)
O32_6 O 0.9637(2) 0.2170(3) 0.11058(8)
O35_6 O 0.9476(2) 0.04680(27) 0.04779(7)
O36_6 O 0.9368(2) 0.1509(3) 0.05823(8)
O37_6 O 0.9911(2) 0.29991(28) 0.03126(8)
O41_6 O 0.8590(3) 0.2348(4) 0.07130(12)
H69_6 H 0.8218 0.2299 0.0615
H70_6 H 0.8548 0.2485 0.0870
O42_6 O 0.9489(3) 0.2009(5) 0.21177(14)
H71_6 H 0.9746 0.2039 0.2260
H72_6 H 0.9772 0.2129 0.1983
O43_6 O 0.8147(4) 0.2132(5) 0.21910(12)
H73_6 H 0.7811 0.2149 0.2296
H74_6 H 0.8589 0.2372 0.2261
O44_6 O 0.7575(3) 0.1556(4) 0.16438(13)
H75_6 H 0.7171 0.1107 0.1621
H76_6 H 0.7499 0.1899 0.1574
O45_6 O 0.8056(3) 0.0660(4) 0.19418(11)
H77_6 H 0.7840 0.0202 0.1879
H78_6 H 0.8078 0.0640 0.2114
H10_5 H 0.8865 0.6574 0.0071
Mg3_12 Mg 1.0000 1.0000 0.02259(6)
C23_6 C 0.7747(5) 0.7152(4) 0.13342(12)
C24_5 C 0.7015(4) 0.6429(3) 0.14144(11)
C25_5 C 0.6314(4) 0.5915(3) 0.12857(11)
C26_5 C 0.5934(4) 0.5912(3) 0.10319(11)
C27_6 C 0.6298(5) 0.5508(4) 0.16923(12)
C28_6 C 0.6052(6) 0.5046(4) 0.19577(12)
H27_6 H 0.6519 0.5175 0.2063
H28_6 H 0.5791 0.4489 0.1917
C29_6 C 0.5556(6) 0.5194(4) 0.21141(14)
C30_6 C 0.5739(6) 0.5964(4) 0.21782(16)
H29_6 H 0.6222 0.6374 0.2121
C31_6 C 0.5228(6) 0.6168(4) 0.23279(14)
H30_6 H 0.5359 0.6687 0.2358
C32_6 C 0.4555(6) 0.5560(4) 0.24201(15)
H31_6 H 0.4223 0.5676 0.2520
C33_6 C 0.4817(6) 0.4603(4) 0.22284(13)
H32_6 H 0.4666 0.4078 0.2200
C34_6 C 0.8834(4) 0.8441(3) 0.04256(12)
C35_6 C 0.8471(4) 0.8541(3) 0.01837(10)
C36_6 C 0.7716(4) 0.8069(3) 0.00621(11)
C37_6 C 0.7008(4) 0.7333(3) 0.01230(11)
Mg7_6 Mg 0.81615(17) 0.67660(13) 0.18541(4)
N7_6 N 0.7019(4) 0.6145(3) 0.16722(9)
N10_6 N 0.8906(3) 0.9195(2) 0.00260(8)
O16_6 O 0.8286(3) 0.7472(2) 0.15236(9)
O17_6 O 0.7830(3) 0.7468(2) 0.11058(8)
O18_5 O 0.6309(3) 0.6408(2) 0.08420(8)
O20_6 O 0.95320(27) 0.90084(18) 0.04779(7)
O21_6 O 0.8491(3) 0.7860(2) 0.05823(8)
O22_6 O 0.70009(28) 0.69123(19) 0.03126(8)
O26_5 O 0.7652(4) 0.6243(3) 0.07130(12)
H43_5 H 0.7701 0.5920 0.0615
H44_5 H 0.7515 0.6064 0.0870
O27_6 O 0.7991(5) 0.7481(4) 0.21177(14)
H45_6 H 0.7961 0.7708 0.2260
H46_6 H 0.7871 0.7644 0.1983
O28_6 O 0.7868(5) 0.6016(3) 0.21910(12)
H47_6 H 0.7851 0.5663 0.2296
H48_6 H 0.7628 0.6218 0.2261
O29_5 O 0.8444(4) 0.6020(3) 0.16438(13)
H49_5 H 0.8893 0.6065 0.1621
H50_5 H 0.8101 0.5601 0.1574
O30_6 O 0.9340(4) 0.7397(3) 0.19418(11)
H51_6 H 0.9798 0.7639 0.1879
H52_6 H 0.9360 0.7439 0.2114
H10_6 H 0.0093 0.4468 0.8404
H11_5 H 0.0388 0.5581 0.8116
C24_6 C 0.0238(3) 0.6318(4) 0.97477(11)
C25_6 C 0.0752(3) 0.7019(4) 0.96190(11)
C26_6 C 0.0755(3) 0.7399(4) 0.93652(11)
N8_2 N 0.1327(3) 0.7478(4) 0.98108(10)
O18_6 O 0.0259(2) 0.7024(3) 0.91753(8)
O19_2 O 0.1288(2) 0.8113(3) 0.93335(8)
O26_6 O 0.0424(3) 0.5681(4) 0.90463(12)
H43_6 H 0.0747 0.5632 0.8948
H44_6 H 0.0603 0.5818 0.9203
O29_6 O 0.0647(3) 0.4889(4) 0.99771(13)
H49_6 H 0.0602 0.4440 0.9954
H50_6 H 0.1066 0.5232 0.9907
Mg11_2 Mg 0.20942(10) 0.86666(10) 0.96394(3)
C16_6 C 0.0855(3) 0.9270(3) 0.98239(9)
C17_6 C 0.0257(3) 0.8920(4) 0.96031(12)
H7_6 H 0.0070 0.9281 0.9559
H8_6 H 0.0503 0.8855 0.9442
N5_6 N 0.1519(2) 0.9217(3) 0.98302(9)
O8_6 O 0.28535(19) 0.9314(2) 0.99589(8)
O9_6 O 0.2733(3) 0.9631(3) 0.93714(9)
H14_6 H 0.2345 0.9479 0.9266
O10_6 O 0.2828(2) 0.8270(3) 0.95045(12)
H15_6 H 0.3024 0.8024 0.9430
H16_6 H 0.3177 0.8650 0.9594
C2_6 C 0.6080(3) 0.9762(3) 0.97477(11)
C3_6 C 0.6267(3) 0.9248(3) 0.96190(11)
C4_6 C 0.6644(3) 0.9245(3) 0.93652(11)
N2_2 N 0.6151(2) 0.8673(3) 0.98108(10)
O3_6 O 0.6765(2) 0.9741(2) 0.91753(8)
O4_2 O 0.6825(2) 0.8712(2) 0.93335(8)
O11_6 O 0.5257(3) 0.9576(3) 0.90463(12)
H17_6 H 0.4885 0.9253 0.8948
H18_6 H 0.5215 0.9397 0.9203
O14_6 O 0.4242(3) 0.9353(3) 0.99771(13)
H23_6 H 0.3838 0.9398 0.9954
H24_6 H 0.4166 0.8934 0.9907
H62_6 H 0.4375 0.9907 0.8404
H63_6 H 0.5193 0.9612 0.8116
Mg12_2 Mg 0.65723(14) 0.79058(10) 0.96394(3)
C18_6 C 0.9555(3) 0.8125(4) 0.96814(14)
C19_6 C 0.9525(4) 0.7631(4) 0.98731(16)
H9_6 H 0.9980 0.7784 0.9974
C20_6 C 0.8880(5) 0.6911(5) 0.9935(2)
C21_6 C 0.8213(4) 0.6754(4) 0.97536(19)
H11_6 H 0.7752 0.6279 0.9783
C22_6 C 0.8856(4) 0.7841(4) 0.95286(16)
H12_6 H 0.8859 0.8151 0.9386
N6_6 N 0.8187(4) 0.7160(4) 0.95725(17)
C38_6 C 0.8414(4) 0.9145(3) 0.98239(9)
C39_6 C 0.8662(5) 0.9743(3) 0.96031(12)
H33_6 H 0.9210 0.9930 0.9559
H34_6 H 0.8351 0.9497 0.9442
N11_6 N 0.7697(4) 0.8481(2) 0.98302(9)
O23_6 O 0.64601(28) 0.71465(19) 0.99589(8)
O24_6 O 0.6897(4) 0.7267(3) 0.93714(9)
H39_6 H 0.6892 0.6876 0.9306
H40_6 H 0.7133 0.7655 0.9266
O25_6 O 0.5441(4) 0.7172(2) 0.95045(12)
H41_6 H 0.4999 0.6976 0.9430
H42_6 H 0.5472 0.6823 0.9594
C40_6 C 0.8569(5) 0.0445(3) 0.96814(14)
C41_6 C 0.8105(6) 0.0475(4) 0.98731(16)
H35_6 H 0.7803 0.0020 0.9974
C42_6 C 0.8030(7) 0.1120(5) 0.9935(2)
C43_6 C 0.8540(6) 0.1787(4) 0.97536(19)
H37_6 H 0.8526 0.2248 0.9783
C44_6 C 0.8984(6) 0.1144(4) 0.95286(16)
H38_6 H 0.9291 0.1141 0.9386
N12_6 N 0.8972(6) 0.1813(4) 0.95725(17)
H65_6 H 0.9983 0.3108 0.9306
loop_
_geom_bond_atom_site_label_1
_geom_bond_atom_site_label_2
_geom_bond_site_symmetry_1
_geom_bond_site_symmetry_2
C27 C28 1_555 1_555
C28 H27 1_555 1_555
H28 C28 1_555 1_555
C29 C28 1_555 1_555
C30 C29 1_555 1_555
H29 C30 1_555 1_555
C31 C30 1_555 1_555
C32 C31 1_555 1_555
H31 C32 1_555 1_555
C33 C29 1_555 1_555
H32 C33 1_555 1_555
N9 C32 1_555 1_555
H47 O28 1_555 1_555
H48 O28 1_555 1_555
C27 N7 1_555 1_555
C33 N9 1_555 1_555
O12 Mg4 1_555 1_555
H19 O12 1_555 1_555
H20 O12 1_555 1_555
O15 Mg4 1_555 1_555
H25 O15 1_555 1_555
H26 O15 1_555 1_555
O27 Mg7 1_555 1_555
H45 O27 1_555 1_555
H46 O27 1_555 1_555
O30 Mg7 1_555 1_555
H51 O30 1_555 1_555
H52 O30 1_555 1_555
C49 C50 1_555 1_555
C50 H53 1_555 1_555
H54 C50 1_555 1_555
C51 C50 1_555 1_555
C52 C51 1_555 1_555
H55 C52 1_555 1_555
C53 C52 1_555 1_555
H56 C53 1_555 1_555
C54 C53 1_555 1_555
H57 C54 1_555 1_555
C55 C51 1_555 1_555
H58 C55 1_555 1_555
Mg10 N13 1_555 1_555
N15 C54 1_555 1_555
O42 Mg10 1_555 1_555
H71 O42 1_555 1_555
H72 O42 1_555 1_555
O43 Mg10 1_555 1_555
H73 O43 1_555 1_555
H74 O43 1_555 1_555
O45 Mg10 1_555 1_555
H77 O45 1_555 1_555
H78 O45 1_555 1_555
C49 N13 1_555 1_555
C55 N15 1_555 1_555
C12 C13 1_555 1_555
C13 C14 1_555 1_555
C14 C15 1_555 1_555
C15 O7 1_555 1_555
C16 C17 1_555 1_555
C17 H7 1_555 1_555
H8 C17 1_555 1_555
C18 C17 1_555 1_555
C19 C18 1_555 1_555
H9 C19 1_555 1_555
C20 C19 1_555 1_555
C21 C20 1_555 1_555
C22 C18 1_555 1_555
H12 C22 1_555 1_555
Mg1 N5 1_555 1_555
Mg2 O2 1_555 1_555
Mg3 N4 1_555 1_555
N4 C13 1_555 1_555
N5 C14 1_555 1_555
N6 C21 1_555 1_555
O1 C1 1_555 1_555
O2 C1 1_555 1_555
O5 C12 1_555 1_555
O6 C12 1_555 1_555
O7 Mg2 1_555 1_555
O8 C15 1_555 1_555
O9 Mg1 1_555 1_555
H13 O9 1_555 1_555
H14 O9 1_555 1_555
O10 Mg1 1_555 1_555
H15 O10 1_555 1_555
H16 O10 1_555 1_555
C34 C35 1_555 1_555
C35 C36 1_555 1_555
C36 C37 1_555 1_555
C37 O22 1_555 1_555
C38 C39 1_555 1_555
C39 H33 1_555 1_555
H34 C39 1_555 1_555
C40 C39 1_555 1_555
C41 C40 1_555 1_555
H35 C41 1_555 1_555
C42 C41 1_555 1_555
H36 C42 1_555 1_555
C43 C42 1_555 1_555
H37 C43 1_555 1_555
C44 C40 1_555 1_555
H38 C44 1_555 1_555
Mg5 N11 1_555 1_555
Mg6 O17 1_555 1_555
N10 Mg3 1_555 1_555
N11 C36 1_555 1_555
N12 C43 1_555 1_555
O16 C23 1_555 1_555
O17 C23 1_555 1_555
O20 Mg3 1_555 1_555
O21 C34 1_555 1_555
O22 Mg6 1_555 1_555
O23 C37 1_555 1_555
O24 Mg5 1_555 1_555
H39 O24 1_555 1_555
H40 O24 1_555 1_555
O25 Mg5 1_555 1_555
H41 O25 1_555 1_555
H42 O25 1_555 1_555
C45 C46 1_555 1_555
C46 C47 1_555 1_555
C47 C48 1_555 1_555
C48 O33 1_555 1_555
C56 C57 1_555 1_555
C57 C58 1_555 1_555
C58 C59 1_555 1_555
C59 O37 1_555 1_555
C60 C61 1_555 1_555
C61 H59 1_555 1_555
H60 C61 1_555 1_555
C62 C61 1_555 1_555
C63 C62 1_555 1_555
H61 C63 1_555 1_555
C64 C63 1_555 1_555
C65 C64 1_555 1_555
C66 C62 1_555 1_555
H64 C66 1_555 1_555
Mg8 N17 1_555 1_555
Mg9 O32 1_555 1_555
N14 C47 1_555 1_555
N16 Mg3 1_555 1_555
N17 C58 1_555 1_555
N18 C65 1_555 1_555
O31 C45 1_555 1_555
O32 C45 1_555 1_555
O33 Mg9 1_555 1_555
O34 C48 1_555 1_555
O35 Mg3 1_555 1_555
O36 C56 1_555 1_555
O37 Mg9 1_555 1_555
O38 C59 1_555 1_555
O39 Mg8 1_555 1_555
H65 O39 1_555 1_555
H66 O39 1_555 1_555
O40 Mg8 1_555 1_555
H67 O40 1_555 1_555
H68 O40 1_555 1_555
O41 Mg9 1_555 1_555
H69 O41 1_555 1_555
H70 O41 1_555 1_555
H75 O44 1_555 1_555
H76 O44 1_555 1_555
Mg13 N14 1_555 1_555
N19 Mg5 1_555 1_555
N20 Mg1 1_555 1_555
N21 Mg8 1_555 1_555
N22 Mg6 1_555 1_555
N23 Mg2 1_555 1_555
N24 Mg9 1_555 1_555
O46 Mg5 1_555 1_555
O47 Mg1 1_555 1_555
O48 Mg8 1_555 1_555
C16 N4 1_555 1_555
C16 N5 1_555 1_555
C22 N6 1_555 1_555
Mg1 O8 1_555 1_555
Mg2 O6 1_555 1_555
Mg3 O5 1_555 1_555
C34 O20 1_555 1_555
C35 N10 1_555 1_555
C38 N10 1_555 1_555
C38 N11 1_555 1_555
C44 N12 1_555 1_555
Mg5 O23 1_555 1_555
Mg6 O21 1_555 1_555
C56 O35 1_555 1_555
C57 N16 1_555 1_555
C60 N16 1_555 1_555
C60 N17 1_555 1_555
C66 N18 1_555 1_555
Mg8 O38 1_555 1_555
Mg9 O36 1_555 1_555
O34 Mg13 1_555 1_555
C5 C6 1_555 1_555
C6 H1 1_555 1_555
H2 C6 1_555 1_555
C7 C6 1_555 1_555
C8 C7 1_555 1_555
H3 C8 1_555 1_555
C9 C8 1_555 1_555
C10 C9 1_555 1_555
H5 C10 1_555 1_555
C11 C7 1_555 1_555
H6 C11 1_555 1_555
N3 C10 1_555 1_555
H21 O13 1_555 1_555
H22 O13 1_555 1_555
Mg15 N3 1_555 1_555
C5 N1 1_555 1_555
C11 N3 1_555 1_555
C2 C3 1_555 1_555
C3 C4 1_555 1_555
C4 O3 1_555 1_555
C5_2 C6_2 1_555 1_555
C6_2 H1_2 1_555 1_555
H2_2 C6_2 1_555 1_555
C7_2 C6_2 1_555 1_555
C8_2 C7_2 1_555 1_555
H3_2 C8_2 1_555 1_555
C9_2 C8_2 1_555 1_555
C10_2 C9_2 1_555 1_555
H5_2 C10_2 1_555 1_555
C11_2 C7_2 1_555 1_555
H6_2 C11_2 1_555 1_555
N1_2 C2 1_555 1_555
N2 C3 1_555 1_555
N3_2 C10_2 1_555 1_555
O4 C4 1_555 1_555
H17 O11 1_555 1_555
H18 O11 1_555 1_555
H21_2 O13_2 1_555 1_555
H22_2 O13_2 1_555 1_555
H23 O14 1_555 1_555
H24 O14 1_555 1_555
Mg12 N2 1_555 1_555
Mg15_2 N3_2 1_555 1_555
C5_2 N1_2 1_555 1_555
C5_2 N2 1_555 1_555
C11_2 N3_2 1_555 1_555
O4 Mg12 1_555 1_555
C12_2 C13_2 1_555 1_555
C13_2 C14_2 1_555 1_555
C14_2 C15_2 1_555 1_555
C15_2 O7_2 1_555 1_555
C16_2 C17_2 1_555 1_555
C17_2 H7_2 1_555 1_555
H8_2 C17_2 1_555 1_555
C18_2 C17_2 1_555 1_555
C19_2 C18_2 1_555 1_555
H9_2 C19_2 1_555 1_555
C20_2 C19_2 1_555 1_555
C21_2 C20_2 1_555 1_555
C22_2 C18_2 1_555 1_555
H12_2 C22_2 1_555 1_555
Mg1_2 N5_2 1_555 1_555
Mg2_2 O2_2 1_555 1_555
Mg3_2 N4_2 1_555 1_555
N4_2 C13_2 1_555 1_555
N5_2 C14_2 1_555 1_555
N6_2 C21_2 1_555 1_555
O1_2 C1_2 1_555 1_555
O2_2 C1_2 1_555 1_555
O5_2 C12_2 1_555 1_555
O6_2 C12_2 1_555 1_555
O7_2 Mg2_2 1_555 1_555
O8_2 C15_2 1_555 1_555
O9_2 Mg1_2 1_555 1_555
H13_2 O9_2 1_555 1_555
H14_2 O9_2 1_555 1_555
O10_2 Mg1_2 1_555 1_555
H15_2 O10_2 1_555 1_555
H16_2 O10_2 1_555 1_555
O12_2 Mg4_2 1_555 1_555
H19_2 O12_2 1_555 1_555
H20_2 O12_2 1_555 1_555
O15_2 Mg4_2 1_555 1_555
H25_2 O15_2 1_555 1_555
H26_2 O15_2 1_555 1_555
C34_2 C35_2 1_555 1_555
C35_2 C36_2 1_555 1_555
C36_2 C37_2 1_555 1_555
C37_2 O22_2 1_555 1_555
C38_2 C39_2 1_555 1_555
C39_2 H33_2 1_555 1_555
H34_2 C39_2 1_555 1_555
C40_2 C39_2 1_555 1_555
C41_2 C40_2 1_555 1_555
H35_2 C41_2 1_555 1_555
C42_2 C41_2 1_555 1_555
H36_2 C42_2 1_555 1_555
C43_2 C42_2 1_555 1_555
H37_2 C43_2 1_555 1_555
C44_2 C40_2 1_555 1_555
H38_2 C44_2 1_555 1_555
Mg5_2 N11_2 1_555 1_555
Mg6_2 O17_2 1_555 1_555
N10_2 Mg3_2 1_555 1_555
N11_2 C36_2 1_555 1_555
N12_2 C43_2 1_555 1_555
O16_2 C23_2 1_555 1_555
O17_2 C23_2 1_555 1_555
O20_2 Mg3_2 1_555 1_555
O21_2 C34_2 1_555 1_555
O22_2 Mg6_2 1_555 1_555
O23_2 C37_2 1_555 1_555
O24_2 Mg5_2 1_555 1_555
H39_2 O24_2 1_555 1_555
H40_2 O24_2 1_555 1_555
O25_2 Mg5_2 1_555 1_555
H41_2 O25_2 1_555 1_555
H42_2 O25_2 1_555 1_555
O27_2 Mg7_2 1_555 1_555
H45_2 O27_2 1_555 1_555
H46_2 O27_2 1_555 1_555
O30_2 Mg7_2 1_555 1_555
H51_2 O30_2 1_555 1_555
H52_2 O30_2 1_555 1_555
C45_2 C46_2 1_555 1_555
C46_2 C47_2 1_555 1_555
C47_2 C48_2 1_555 1_555
C48_2 O33_2 1_555 1_555
C49_2 C50_2 1_555 1_555
C50_2 H53_2 1_555 1_555
H54_2 C50_2 1_555 1_555
C51_2 C50_2 1_555 1_555
C52_2 C51_2 1_555 1_555
H55_2 C52_2 1_555 1_555
C53_2 C52_2 1_555 1_555
H56_2 C53_2 1_555 1_555
C54_2 C53_2 1_555 1_555
H57_2 C54_2 1_555 1_555
C55_2 C51_2 1_555 1_555
H58_2 C55_2 1_555 1_555
C56_2 C57_2 1_555 1_555
C57_2 C58_2 1_555 1_555
C58_2 C59_2 1_555 1_555
C59_2 O37_2 1_555 1_555
C60_2 C61_2 1_555 1_555
C61_2 H59_2 1_555 1_555
H60_2 C61_2 1_555 1_555
C62_2 C61_2 1_555 1_555
C63_2 C62_2 1_555 1_555
H61_2 C63_2 1_555 1_555
C64_2 C63_2 1_555 1_555
C65_2 C64_2 1_555 1_555
C66_2 C62_2 1_555 1_555
H64_2 C66_2 1_555 1_555
Mg8_2 N17_2 1_555 1_555
Mg9_2 O32_2 1_555 1_555
Mg10_2 N13_2 1_555 1_555
N13_2 C46_2 1_555 1_555
N14_2 C47_2 1_555 1_555
N15_2 C54_2 1_555 1_555
N16_2 Mg3_2 1_555 1_555
N17_2 C58_2 1_555 1_555
N18_2 C65_2 1_555 1_555
O31_2 C45_2 1_555 1_555
O32_2 C45_2 1_555 1_555
O33_2 Mg9_2 1_555 1_555
O34_2 C48_2 1_555 1_555
O35_2 Mg3_2 1_555 1_555
O36_2 C56_2 1_555 1_555
O37_2 Mg9_2 1_555 1_555
O38_2 C59_2 1_555 1_555
O39_2 Mg8_2 1_555 1_555
H65_2 O39_2 1_555 1_555
H66_2 O39_2 1_555 1_555
O40_2 Mg8_2 1_555 1_555
H67_2 O40_2 1_555 1_555
H68_2 O40_2 1_555 1_555
O41_2 Mg9_2 1_555 1_555
H69_2 O41_2 1_555 1_555
H70_2 O41_2 1_555 1_555
O42_2 Mg10_2 1_555 1_555
H71_2 O42_2 1_555 1_555
H72_2 O42_2 1_555 1_555
O43_2 Mg10_2 1_555 1_555
H73_2 O43_2 1_555 1_555
H74_2 O43_2 1_555 1_555
O44_2 Mg10_2 1_555 1_555
H75_2 O44_2 1_555 1_555
H76_2 O44_2 1_555 1_555
O45_2 Mg10_2 1_555 1_555
H77_2 O45_2 1_555 1_555
H78_2 O45_2 1_555 1_555
Mg13_2 N14_2 1_555 1_555
N19_2 Mg5_2 1_555 1_555
N20_2 Mg1_2 1_555 1_555
N21_2 Mg8_2 1_555 1_555
N22_2 Mg6_2 1_555 1_555
N23_2 Mg2_2 1_555 1_555
N24_2 Mg9_2 1_555 1_555
O46_2 Mg5_2 1_555 1_555
O47_2 Mg1_2 1_555 1_555
O48_2 Mg8_2 1_555 1_555
C16_2 N4_2 1_555 1_555
C16_2 N5_2 1_555 1_555
C22_2 N6_2 1_555 1_555
Mg1_2 O8_2 1_555 1_555
Mg2_2 O6_2 1_555 1_555
Mg3_2 O5_2 1_555 1_555
Mg4_2 O1_2 1_555 1_555
C34_2 O20_2 1_555 1_555
C35_2 N10_2 1_555 1_555
C38_2 N10_2 1_555 1_555
C38_2 N11_2 1_555 1_555
C44_2 N12_2 1_555 1_555
Mg5_2 O23_2 1_555 1_555
Mg6_2 O21_2 1_555 1_555
Mg7_2 O16_2 1_555 1_555
C49_2 N13_2 1_555 1_555
C49_2 N14_2 1_555 1_555
C55_2 N15_2 1_555 1_555
C56_2 O35_2 1_555 1_555
C57_2 N16_2 1_555 1_555
C60_2 N16_2 1_555 1_555
C60_2 N17_2 1_555 1_555
C66_2 N18_2 1_555 1_555
Mg8_2 O38_2 1_555 1_555
Mg9_2 O36_2 1_555 1_555
Mg10_2 O31_2 1_555 1_555
O34_2 Mg13_2 1_555 1_555
C24 C25 1_555 1_555
C25 C26 1_555 1_555
C26 O18 1_555 1_555
C27_2 C28_2 1_555 1_555
C28_2 H27_2 1_555 1_555
H28_2 C28_2 1_555 1_555
C29_2 C28_2 1_555 1_555
C30_2 C29_2 1_555 1_555
H29_2 C30_2 1_555 1_555
C31_2 C30_2 1_555 1_555
C32_2 C31_2 1_555 1_555
H31_2 C32_2 1_555 1_555
C33_2 C29_2 1_555 1_555
H32_2 C33_2 1_555 1_555
N7_2 C24 1_555 1_555
N8 C25 1_555 1_555
N9_2 C32_2 1_555 1_555
O19 C26 1_555 1_555
H43 O26 1_555 1_555
H44 O26 1_555 1_555
H47_2 O28_2 1_555 1_555
H48_2 O28_2 1_555 1_555
H49 O29 1_555 1_555
H50 O29 1_555 1_555
Mg11 N8 1_555 1_555
C27_2 N7_2 1_555 1_555
C27_2 N8 1_555 1_555
C33_2 N9_2 1_555 1_555
O19 Mg11 1_555 1_555
C25_2 C26_2 1_555 1_555
C26_2 O18_2 1_555 1_555
C27_3 C28_3 1_555 1_555
C28_3 H27_3 1_555 1_555
H28_3 C28_3 1_555 1_555
C29_3 C28_3 1_555 1_555
C30_3 C29_3 1_555 1_555
H29_3 C30_3 1_555 1_555
C31_3 C30_3 1_555 1_555
H30_3 C31_3 1_555 1_555
C32_3 C31_3 1_555 1_555
H31_3 C32_3 1_555 1_555
C33_3 C29_3 1_555 1_555
H32_3 C33_3 1_555 1_555
N20_2 C25_2 1_555 1_555
N23_2 C32_3 1_555 1_555
O47_2 C26_2 1_555 1_555
O25_3 Mg5_3 1_555 1_555
H41_3 O25_3 1_555 1_555
H42_3 O25_3 1_555 1_555
N19_3 Mg5_3 1_555 1_555
C27_3 N20_2 1_555 1_555
C33_3 N23_2 1_555 1_555
Mg5_3 O23_3 1_555 1_555
C1_3 C2_2 1_555 1_555
C2_2 C3_2 1_555 1_555
C3_2 C4_2 1_555 1_555
C4_2 O3_2 1_555 1_555
C5_3 C6_3 1_555 1_555
C6_3 H1_3 1_555 1_555
H2_3 C6_3 1_555 1_555
C7_3 C6_3 1_555 1_555
C8_3 C7_3 1_555 1_555
H3_3 C8_3 1_555 1_555
C9_3 C8_3 1_555 1_555
H4_3 C9_3 1_555 1_555
C10_3 C9_3 1_555 1_555
H5_3 C10_3 1_555 1_555
C11_3 C7_3 1_555 1_555
H6_3 C11_3 1_555 1_555
C12_3 C13_3 1_555 1_555
C13_3 C14_3 1_555 1_555
C14_3 C15_3 1_555 1_555
C15_3 O7_3 1_555 1_555
C16_3 C17_3 1_555 1_555
C17_3 H7_3 1_555 1_555
H8_3 C17_3 1_555 1_555
C18_3 C17_3 1_555 1_555
C19_3 C18_3 1_555 1_555
H9_3 C19_3 1_555 1_555
C20_3 C19_3 1_555 1_555
H10_2 C20_3 1_555 1_555
C21_3 C20_3 1_555 1_555
H11_2 C21_3 1_555 1_555
C22_3 C18_3 1_555 1_555
H12_3 C22_3 1_555 1_555
Mg1_3 N5_3 1_555 1_555
Mg2_3 O2_3 1_555 1_555
Mg3_3 N4_3 1_555 1_555
Mg4_3 N1_3 1_555 1_555
N1_3 C2_2 1_555 1_555
N19_2 C3_2 1_555 1_555
N22_2 C10_3 1_555 1_555
N4_3 C13_3 1_555 1_555
N5_3 C14_3 1_555 1_555
N6_3 C21_3 1_555 1_555
O1_3 C1_3 1_555 1_555
O2_3 C1_3 1_555 1_555
O3_2 Mg2_3 1_555 1_555
O46_2 C4_2 1_555 1_555
O5_3 C12_3 1_555 1_555
O6_3 C12_3 1_555 1_555
O7_3 Mg2_3 1_555 1_555
O8_3 C15_3 1_555 1_555
O9_3 Mg1_3 1_555 1_555
H13_3 O9_3 1_555 1_555
H14_3 O9_3 1_555 1_555
O10_3 Mg1_3 1_555 1_555
H15_3 O10_3 1_555 1_555
H16_3 O10_3 1_555 1_555
O11_2 Mg2_3 1_555 1_555
H17_2 O11_2 1_555 1_555
H18_2 O11_2 1_555 1_555
O12_3 Mg4_3 1_555 1_555
H19_3 O12_3 1_555 1_555
H20_3 O12_3 1_555 1_555
O13_3 Mg4_3 1_555 1_555
H21_3 O13_3 1_555 1_555
H22_3 O13_3 1_555 1_555
O14_2 Mg4_3 1_555 1_555
H23_2 O14_2 1_555 1_555
H24_2 O14_2 1_555 1_555
O15_3 Mg4_3 1_555 1_555
H25_3 O15_3 1_555 1_555
H26_3 O15_3 1_555 1_555
C23_3 C24_2 1_555 1_555
C34_3 C35_3 1_555 1_555
C35_3 C36_3 1_555 1_555
C36_3 C37_3 1_555 1_555
C37_3 O22_3 1_555 1_555
C38_3 C39_3 1_555 1_555
C39_3 H33_3 1_555 1_555
H34_3 C39_3 1_555 1_555
C40_3 C39_3 1_555 1_555
C41_3 C40_3 1_555 1_555
H35_3 C41_3 1_555 1_555
C42_3 C41_3 1_555 1_555
H36_3 C42_3 1_555 1_555
C43_3 C42_3 1_555 1_555
H37_3 C43_3 1_555 1_555
C44_3 C40_3 1_555 1_555
H38_3 C44_3 1_555 1_555
Mg6_3 O17_3 1_555 1_555
Mg7_3 N7_3 1_555 1_555
N7_3 C24_2 1_555 1_555
N10_3 Mg3_3 1_555 1_555
N11_3 C36_3 1_555 1_555
N12_3 C43_3 1_555 1_555
O16_3 C23_3 1_555 1_555
O17_3 C23_3 1_555 1_555
O20_3 Mg3_3 1_555 1_555
O21_3 C34_3 1_555 1_555
O22_3 Mg6_3 1_555 1_555
H39_3 O24_3 1_555 1_555
H40_3 O24_3 1_555 1_555
O26_2 Mg6_3 1_555 1_555
H43_2 O26_2 1_555 1_555
H44_2 O26_2 1_555 1_555
O27_3 Mg7_3 1_555 1_555
H45_3 O27_3 1_555 1_555
H46_3 O27_3 1_555 1_555
O28_3 Mg7_3 1_555 1_555
H47_3 O28_3 1_555 1_555
H48_3 O28_3 1_555 1_555
O29_2 Mg7_3 1_555 1_555
H49_2 O29_2 1_555 1_555
H50_2 O29_2 1_555 1_555
O30_3 Mg7_3 1_555 1_555
H51_3 O30_3 1_555 1_555
H52_3 O30_3 1_555 1_555
C45_3 C46_3 1_555 1_555
C56_3 C57_3 1_555 1_555
C57_3 C58_3 1_555 1_555
C58_3 C59_3 1_555 1_555
C59_3 O37_3 1_555 1_555
C60_3 C61_3 1_555 1_555
C61_3 H59_3 1_555 1_555
H60_3 C61_3 1_555 1_555
C62_3 C61_3 1_555 1_555
C63_3 C62_3 1_555 1_555
H61_3 C63_3 1_555 1_555
C64_3 C63_3 1_555 1_555
H62_2 C64_3 1_555 1_555
C65_3 C64_3 1_555 1_555
H63_2 C65_3 1_555 1_555
C66_3 C62_3 1_555 1_555
H64_3 C66_3 1_555 1_555
Mg9_3 O32_3 1_555 1_555
Mg10_3 N13_3 1_555 1_555
N13_3 C46_3 1_555 1_555
N16_3 Mg3_3 1_555 1_555
N17_3 C58_3 1_555 1_555
N18_3 C65_3 1_555 1_555
O31_3 C45_3 1_555 1_555
O32_3 C45_3 1_555 1_555
O35_3 Mg3_3 1_555 1_555
O36_3 C56_3 1_555 1_555
O37_3 Mg9_3 1_555 1_555
H65_3 O39_3 1_555 1_555
H66_3 O39_3 1_555 1_555
O41_3 Mg9_3 1_555 1_555
H69_3 O41_3 1_555 1_555
H70_3 O41_3 1_555 1_555
O42_3 Mg10_3 1_555 1_555
H71_3 O42_3 1_555 1_555
H72_3 O42_3 1_555 1_555
O43_3 Mg10_3 1_555 1_555
H73_3 O43_3 1_555 1_555
H74_3 O43_3 1_555 1_555
O44_3 Mg10_3 1_555 1_555
H75_3 O44_3 1_555 1_555
H76_3 O44_3 1_555 1_555
O45_3 Mg10_3 1_555 1_555
H77_3 O45_3 1_555 1_555
H78_3 O45_3 1_555 1_555
N20_3 Mg1_3 1_555 1_555
N22_3 Mg6_3 1_555 1_555
N23_3 Mg2_3 1_555 1_555
N24_3 Mg9_3 1_555 1_555
O47_3 Mg1_3 1_555 1_555
C5_3 N1_3 1_555 1_555
C5_3 N19_2 1_555 1_555
C11_3 N22_2 1_555 1_555
C16_3 N4_3 1_555 1_555
C16_3 N5_3 1_555 1_555
C22_3 N6_3 1_555 1_555
Mg1_3 O8_3 1_555 1_555
Mg2_3 O6_3 1_555 1_555
Mg3_3 O5_3 1_555 1_555
Mg4_3 O1_3 1_555 1_555
C34_3 O20_3 1_555 1_555
C35_3 N10_3 1_555 1_555
C38_3 N10_3 1_555 1_555
C38_3 N11_3 1_555 1_555
C44_3 N12_3 1_555 1_555
Mg6_3 O21_3 1_555 1_555
Mg7_3 O16_3 1_555 1_555
C56_3 O35_3 1_555 1_555
C57_3 N16_3 1_555 1_555
C60_3 N16_3 1_555 1_555
C60_3 N17_3 1_555 1_555
C66_3 N18_3 1_555 1_555
Mg9_3 O36_3 1_555 1_555
Mg10_3 O31_3 1_555 1_555
C47_3 C48_3 1_555 1_555
C48_3 O33_3 1_555 1_555
C49_3 C50_3 1_555 1_555
C50_3 H53_3 1_555 1_555
H54_3 C50_3 1_555 1_555
C51_3 C50_3 1_555 1_555
C52_3 C51_3 1_555 1_555
H55_3 C52_3 1_555 1_555
C53_3 C52_3 1_555 1_555
H56_3 C53_3 1_555 1_555
C54_3 C53_3 1_555 1_555
H57_3 C54_3 1_555 1_555
C55_3 C51_3 1_555 1_555
H58_3 C55_3 1_555 1_555
N21_2 C47_3 1_555 1_555
N24_2 C54_3 1_555 1_555
O48_2 C48_3 1_555 1_555
O40_3 Mg8_3 1_555 1_555
H67_3 O40_3 1_555 1_555
H68_3 O40_3 1_555 1_555
N21_3 Mg8_3 1_555 1_555
C49_3 N21_2 1_555 1_555
C55_3 N24_2 1_555 1_555
Mg8_3 O38_3 1_555 1_555
C47_4 C48_4 1_555 1_555
C48_4 O33_4 1_555 1_555
C49_4 C50_4 1_555 1_555
C50_4 H53_4 1_555 1_555
H54_4 C50_4 1_555 1_555
C51_4 C50_4 1_555 1_555
C52_4 C51_4 1_555 1_555
H55_4 C52_4 1_555 1_555
C53_4 C52_4 1_555 1_555
H56_4 C53_4 1_555 1_555
C54_4 C53_4 1_555 1_555
H57_4 C54_4 1_555 1_555
C55_4 C51_4 1_555 1_555
H58_4 C55_4 1_555 1_555
N21 C47_4 1_555 1_555
N24 C54_4 1_555 1_555
O48 C48_4 1_555 1_555
O40_4 Mg8_4 1_555 1_555
H67_4 O40_4 1_555 1_555
H68_4 O40_4 1_555 1_555
N21_4 Mg8_4 1_555 1_555
C49_4 N21 1_555 1_555
C55_4 N24 1_555 1_555
Mg8_4 O38_4 1_555 1_555
C1_4 C2_3 1_555 1_555
C2_3 C3_3 1_555 1_555
C3_3 C4_3 1_555 1_555
C4_3 O3_3 1_555 1_555
C5_4 C6_4 1_555 1_555
C6_4 H1_4 1_555 1_555
H2_4 C6_4 1_555 1_555
C7_4 C6_4 1_555 1_555
C8_4 C7_4 1_555 1_555
H3_4 C8_4 1_555 1_555
C9_4 C8_4 1_555 1_555
H4_4 C9_4 1_555 1_555
C10_4 C9_4 1_555 1_555
H5_4 C10_4 1_555 1_555
C11_4 C7_4 1_555 1_555
H6_4 C11_4 1_555 1_555
C12_4 C13_4 1_555 1_555
C13_4 C14_4 1_555 1_555
C14_4 C15_4 1_555 1_555
C15_4 O7_4 1_555 1_555
C16_4 C17_4 1_555 1_555
C17_4 H7_4 1_555 1_555
H8_4 C17_4 1_555 1_555
C18_4 C17_4 1_555 1_555
C19_4 C18_4 1_555 1_555
H9_4 C19_4 1_555 1_555
C20_4 C19_4 1_555 1_555
H10_3 C20_4 1_555 1_555
C21_4 C20_4 1_555 1_555
H11_3 C21_4 1_555 1_555
C22_4 C18_4 1_555 1_555
H12_4 C22_4 1_555 1_555
Mg1_4 N5_4 1_555 1_555
Mg2_4 O2_4 1_555 1_555
Mg3_4 N4_4 1_555 1_555
Mg4_4 N1_4 1_555 1_555
N1_4 C2_3 1_555 1_555
N19 C3_3 1_555 1_555
N22 C10_4 1_555 1_555
N4_4 C13_4 1_555 1_555
N5_4 C14_4 1_555 1_555
N6_4 C21_4 1_555 1_555
O1_4 C1_4 1_555 1_555
O2_4 C1_4 1_555 1_555
O3_3 Mg2_4 1_555 1_555
O46 C4_3 1_555 1_555
O5_4 C12_4 1_555 1_555
O6_4 C12_4 1_555 1_555
O7_4 Mg2_4 1_555 1_555
O8_4 C15_4 1_555 1_555
O9_4 Mg1_4 1_555 1_555
H13_4 O9_4 1_555 1_555
H14_4 O9_4 1_555 1_555
O10_4 Mg1_4 1_555 1_555
H15_4 O10_4 1_555 1_555
H16_4 O10_4 1_555 1_555
O11_3 Mg2_4 1_555 1_555
H17_3 O11_3 1_555 1_555
H18_3 O11_3 1_555 1_555
O12_4 Mg4_4 1_555 1_555
H19_4 O12_4 1_555 1_555
H20_4 O12_4 1_555 1_555
O13_4 Mg4_4 1_555 1_555
H21_4 O13_4 1_555 1_555
H22_4 O13_4 1_555 1_555
O14_3 Mg4_4 1_555 1_555
H23_3 O14_3 1_555 1_555
H24_3 O14_3 1_555 1_555
O15_4 Mg4_4 1_555 1_555
H25_4 O15_4 1_555 1_555
H26_4 O15_4 1_555 1_555
C23_4 C24_3 1_555 1_555
C34_4 C35_4 1_555 1_555
C35_4 C36_4 1_555 1_555
C36_4 C37_4 1_555 1_555
C37_4 O22_4 1_555 1_555
C38_4 C39_4 1_555 1_555
C39_4 H33_4 1_555 1_555
H34_4 C39_4 1_555 1_555
C40_4 C39_4 1_555 1_555
C41_4 C40_4 1_555 1_555
H35_4 C41_4 1_555 1_555
C42_4 C41_4 1_555 1_555
H36_4 C42_4 1_555 1_555
C43_4 C42_4 1_555 1_555
H37_4 C43_4 1_555 1_555
C44_4 C40_4 1_555 1_555
H38_4 C44_4 1_555 1_555
Mg6_4 O17_4 1_555 1_555
Mg7_4 N7_4 1_555 1_555
N7_4 C24_3 1_555 1_555
N10_4 Mg3_4 1_555 1_555
N11_4 C36_4 1_555 1_555
N12_4 C43_4 1_555 1_555
O16_4 C23_4 1_555 1_555
O17_4 C23_4 1_555 1_555
O20_4 Mg3_4 1_555 1_555
O21_4 C34_4 1_555 1_555
O22_4 Mg6_4 1_555 1_555
H39_4 O24_4 1_555 1_555
H40_4 O24_4 1_555 1_555
O26_3 Mg6_4 1_555 1_555
H43_3 O26_3 1_555 1_555
H44_3 O26_3 1_555 1_555
O27_4 Mg7_4 1_555 1_555
H45_4 O27_4 1_555 1_555
H46_4 O27_4 1_555 1_555
O28_4 Mg7_4 1_555 1_555
H47_4 O28_4 1_555 1_555
H48_4 O28_4 1_555 1_555
O29_3 Mg7_4 1_555 1_555
H49_3 O29_3 1_555 1_555
H50_3 O29_3 1_555 1_555
O30_4 Mg7_4 1_555 1_555
H51_4 O30_4 1_555 1_555
H52_4 O30_4 1_555 1_555
C45_4 C46_4 1_555 1_555
C56_4 C57_4 1_555 1_555
C57_4 C58_4 1_555 1_555
C58_4 C59_4 1_555 1_555
C59_4 O37_4 1_555 1_555
C60_4 C61_4 1_555 1_555
C61_4 H59_4 1_555 1_555
H60_4 C61_4 1_555 1_555
C62_4 C61_4 1_555 1_555
C63_4 C62_4 1_555 1_555
H61_4 C63_4 1_555 1_555
C64_4 C63_4 1_555 1_555
H62_3 C64_4 1_555 1_555
C65_4 C64_4 1_555 1_555
H63_3 C65_4 1_555 1_555
C66_4 C62_4 1_555 1_555
H64_4 C66_4 1_555 1_555
Mg9_4 O32_4 1_555 1_555
Mg10_4 N13_4 1_555 1_555
N13_4 C46_4 1_555 1_555
N16_4 Mg3_4 1_555 1_555
N17_4 C58_4 1_555 1_555
N18_4 C65_4 1_555 1_555
O31_4 C45_4 1_555 1_555
O32_4 C45_4 1_555 1_555
O35_4 Mg3_4 1_555 1_555
O36_4 C56_4 1_555 1_555
O37_4 Mg9_4 1_555 1_555
H65_4 O39_4 1_555 1_555
H66_4 O39_4 1_555 1_555
O41_4 Mg9_4 1_555 1_555
H69_4 O41_4 1_555 1_555
H70_4 O41_4 1_555 1_555
O42_4 Mg10_4 1_555 1_555
H71_4 O42_4 1_555 1_555
H72_4 O42_4 1_555 1_555
O43_4 Mg10_4 1_555 1_555
H73_4 O43_4 1_555 1_555
H74_4 O43_4 1_555 1_555
O44_4 Mg10_4 1_555 1_555
H75_4 O44_4 1_555 1_555
H76_4 O44_4 1_555 1_555
O45_4 Mg10_4 1_555 1_555
H77_4 O45_4 1_555 1_555
H78_4 O45_4 1_555 1_555
N20_4 Mg1_4 1_555 1_555
N22_4 Mg6_4 1_555 1_555
N23_4 Mg2_4 1_555 1_555
N24_4 Mg9_4 1_555 1_555
O47_4 Mg1_4 1_555 1_555
C5_4 N1_4 1_555 1_555
C5_4 N19 1_555 1_555
C11_4 N22 1_555 1_555
C16_4 N4_4 1_555 1_555
C16_4 N5_4 1_555 1_555
C22_4 N6_4 1_555 1_555
Mg1_4 O8_4 1_555 1_555
Mg2_4 O6_4 1_555 1_555
Mg3_4 O5_4 1_555 1_555
Mg4_4 O1_4 1_555 1_555
C34_4 O20_4 1_555 1_555
C35_4 N10_4 1_555 1_555
C38_4 N10_4 1_555 1_555
C38_4 N11_4 1_555 1_555
C44_4 N12_4 1_555 1_555
Mg6_4 O21_4 1_555 1_555
Mg7_4 O16_4 1_555 1_555
C56_4 O35_4 1_555 1_555
C57_4 N16_4 1_555 1_555
C60_4 N16_4 1_555 1_555
C60_4 N17_4 1_555 1_555
C66_4 N18_4 1_555 1_555
Mg9_4 O36_4 1_555 1_555
Mg10_4 O31_4 1_555 1_555
C25_3 C26_3 1_555 1_555
C26_3 O18_3 1_555 1_555
C27_4 C28_4 1_555 1_555
C28_4 H27_4 1_555 1_555
H28_4 C28_4 1_555 1_555
C29_4 C28_4 1_555 1_555
C30_4 C29_4 1_555 1_555
H29_4 C30_4 1_555 1_555
C31_4 C30_4 1_555 1_555
H30_4 C31_4 1_555 1_555
C32_4 C31_4 1_555 1_555
H31_4 C32_4 1_555 1_555
C33_4 C29_4 1_555 1_555
H32_4 C33_4 1_555 1_555
N20 C25_3 1_555 1_555
N23 C32_4 1_555 1_555
O47 C26_3 1_555 1_555
O25_4 Mg5_4 1_555 1_555
H41_4 O25_4 1_555 1_555
H42_4 O25_4 1_555 1_555
N19_4 Mg5_4 1_555 1_555
C27_4 N20 1_555 1_555
C33_4 N23 1_555 1_555
Mg5_4 O23_4 1_555 1_555
C19_5 C18_5 1_555 1_555
H9_5 C19_5 1_555 1_555
C20_5 C19_5 1_555 1_555
H10_4 C20_5 1_555 1_555
C21_5 C20_5 1_555 1_555
H11_4 C21_5 1_555 1_555
C22_5 C18_5 1_555 1_555
H12_5 C22_5 1_555 1_555
N6_5 C21_5 1_555 1_555
C23_5 C24_4 1_555 1_555
C24_4 C25_4 1_555 1_555
C25_4 C26_4 1_555 1_555
C26_4 O18_4 1_555 1_555
C27_5 C28_5 1_555 1_555
C28_5 H27_5 1_555 1_555
H28_5 C28_5 1_555 1_555
C29_5 C28_5 1_555 1_555
C30_5 C29_5 1_555 1_555
H29_5 C30_5 1_555 1_555
C31_5 C30_5 1_555 1_555
H30_5 C31_5 1_555 1_555
C32_5 C31_5 1_555 1_555
H31_5 C32_5 1_555 1_555
C33_5 C29_5 1_555 1_555
H32_5 C33_5 1_555 1_555
C34_5 C35_5 1_555 1_555
C35_5 C36_5 1_555 1_555
C36_5 C37_5 1_555 1_555
C37_5 O22_5 1_555 1_555
C38_5 C39_5 1_555 1_555
C39_5 H33_5 1_555 1_555
H34_5 C39_5 1_555 1_555
Mg12 N11_5 1_555 1_555
Mg15_2 O17_5 1_555 1_555
Mg7_5 N7_5 1_555 1_555
N7_5 C24_4 1_555 1_555
N20_4 C25_4 1_555 1_555
N23_4 C32_5 1_555 1_555
N10_5 Mg3_5 1_555 1_555
N11_5 C36_5 1_555 1_555
O16_5 C23_5 1_555 1_555
O17_5 C23_5 1_555 1_555
O18_4 Mg15_2 1_555 1_555
O47_4 C26_4 1_555 1_555
O20_5 Mg3_5 1_555 1_555
O21_5 C34_5 1_555 1_555
O22_5 Mg15_2 1_555 1_555
O23_5 C37_5 1_555 1_555
O24_5 Mg12 1_555 1_555
H39_5 O24_5 1_555 1_555
H40_5 O24_5 1_555 1_555
O25_5 Mg12 1_555 1_555
H41_5 O25_5 1_555 1_555
H42_5 O25_5 1_555 1_555
O26_4 Mg15_2 1_555 1_555
H43_4 O26_4 1_555 1_555
H44_4 O26_4 1_555 1_555
O27_5 Mg7_5 1_555 1_555
H45_5 O27_5 1_555 1_555
H46_5 O27_5 1_555 1_555
O28_5 Mg7_5 1_555 1_555
H47_5 O28_5 1_555 1_555
H48_5 O28_5 1_555 1_555
O29_4 Mg7_5 1_555 1_555
H49_4 O29_4 1_555 1_555
H50_4 O29_4 1_555 1_555
O30_5 Mg7_5 1_555 1_555
H51_5 O30_5 1_555 1_555
H52_5 O30_5 1_555 1_555
C22_5 N6_5 1_555 1_555
C27_5 N7_5 1_555 1_555
C27_5 N20_4 1_555 1_555
C33_5 N23_4 1_555 1_555
C34_5 O20_5 1_555 1_555
C35_5 N10_5 1_555 1_555
C38_5 N10_5 1_555 1_555
C38_5 N11_5 1_555 1_555
Mg12 O23_5 1_555 1_555
Mg15_2 O21_5 1_555 1_555
Mg7_5 O16_5 1_555 1_555
H3_5 C8_5 1_555 1_555
C9_5 C8_5 1_555 1_555
H4_5 C9_5 1_555 1_555
C10_5 C9_5 1_555 1_555
H5_5 C10_5 1_555 1_555
C13_5 C14_5 1_555 1_555
C14_5 C15_5 1_555 1_555
C16_5 C17_5 1_555 1_555
C17_5 H7_5 1_555 1_555
H8_5 C17_5 1_555 1_555
Mg11 N5_5 1_555 1_555
Mg3_6 N4_5 1_555 1_555
N22_4 C10_5 1_555 1_555
N4_5 C13_5 1_555 1_555
N5_5 C14_5 1_555 1_555
O8_5 C15_5 1_555 1_555
O9_5 Mg11 1_555 1_555
H14_5 O9_5 1_555 1_555
O10_5 Mg11 1_555 1_555
H15_5 O10_5 1_555 1_555
H16_5 O10_5 1_555 1_555
C16_5 N4_5 1_555 1_555
C16_5 N5_5 1_555 1_555
Mg11 O8_5 1_555 1_555
C41_5 C40_5 1_555 1_555
H35_5 C41_5 1_555 1_555
C42_5 C41_5 1_555 1_555
H36_5 C42_5 1_555 1_555
C43_5 C42_5 1_555 1_555
H37_5 C43_5 1_555 1_555
C44_5 C40_5 1_555 1_555
H38_5 C44_5 1_555 1_555
N12_5 C43_5 1_555 1_555
C45_5 C46_5 1_555 1_555
C46_5 C47_5 1_555 1_555
C47_5 C48_5 1_555 1_555
C49_5 C50_5 1_555 1_555
C50_5 H53_5 1_555 1_555
H54_5 C50_5 1_555 1_555
C51_5 C50_5 1_555 1_555
C55_5 C51_5 1_555 1_555
H58_5 C55_5 1_555 1_555
Mg16_2 O32_5 1_555 1_555
Mg10_5 N13_5 1_555 1_555
N13_5 C46_5 1_555 1_555
N21_4 C47_5 1_555 1_555
O31_5 C45_5 1_555 1_555
O32_5 C45_5 1_555 1_555
O35_5 Mg3_7 1_555 1_555
O36_5 C56_5 1_555 1_555
O37_5 Mg16_2 1_555 1_555
O41_5 Mg16_2 1_555 1_555
H69_5 O41_5 1_555 1_555
H70_5 O41_5 1_555 1_555
O42_5 Mg10_5 1_555 1_555
H71_5 O42_5 1_555 1_555
H72_5 O42_5 1_555 1_555
O43_5 Mg10_5 1_555 1_555
H73_5 O43_5 1_555 1_555
H74_5 O43_5 1_555 1_555
O44_5 Mg10_5 1_555 1_555
H75_5 O44_5 1_555 1_555
H76_5 O44_5 1_555 1_555
O45_5 Mg10_5 1_555 1_555
H77_5 O45_5 1_555 1_555
H78_5 O45_5 1_555 1_555
C44_5 N12_5 1_555 1_555
C49_5 N13_5 1_555 1_555
C49_5 N21_4 1_555 1_555
C56_5 O35_5 1_555 1_555
Mg16_2 O36_5 1_555 1_555
Mg10_5 O31_5 1_555 1_555
C1_5 C2_4 1_555 1_555
C2_4 C3_4 1_555 1_555
C3_4 C4_4 1_555 1_555
C5_5 C6_5 1_555 1_555
C6_5 H1_5 1_555 1_555
H2_5 C6_5 1_555 1_555
C7_5 C6_5 1_555 1_555
C11_5 C7_5 1_555 1_555
H6_5 C11_5 1_555 1_555
Mg14_2 O2_5 1_555 1_555
Mg4_5 N1_5 1_555 1_555
N1_5 C2_4 1_555 1_555
N19_4 C3_4 1_555 1_555
O1_5 C1_5 1_555 1_555
O2_5 C1_5 1_555 1_555
O5_5 C12_5 1_555 1_555
O6_5 C12_5 1_555 1_555
O7_5 Mg14_2 1_555 1_555
O11_4 Mg14_2 1_555 1_555
H17_4 O11_4 1_555 1_555
H18_4 O11_4 1_555 1_555
O12_5 Mg4_5 1_555 1_555
H19_5 O12_5 1_555 1_555
H20_5 O12_5 1_555 1_555
O13_5 Mg4_5 1_555 1_555
H21_5 O13_5 1_555 1_555
H22_5 O13_5 1_555 1_555
O14_4 Mg4_5 1_555 1_555
H23_4 O14_4 1_555 1_555
H24_4 O14_4 1_555 1_555
O15_5 Mg4_5 1_555 1_555
H25_5 O15_5 1_555 1_555
H26_5 O15_5 1_555 1_555
H55_5 C52_5 1_555 1_555
C53_5 C52_5 1_555 1_555
H56_5 C53_5 1_555 1_555
C54_5 C53_5 1_555 1_555
H57_5 C54_5 1_555 1_555
C57_5 C58_5 1_555 1_555
C58_5 C59_5 1_555 1_555
C60_5 C61_5 1_555 1_555
C61_5 H59_5 1_555 1_555
H60_5 C61_5 1_555 1_555
C62_5 C61_5 1_555 1_555
C63_5 C62_5 1_555 1_555
H61_5 C63_5 1_555 1_555
C64_5 C63_5 1_555 1_555
H62_4 C64_5 1_555 1_555
C65_5 C64_5 1_555 1_555
H63_4 C65_5 1_555 1_555
C66_5 C62_5 1_555 1_555
H64_5 C66_5 1_555 1_555
Mg13_2 N17_5 1_555 1_555
N24_4 C54_5 1_555 1_555
N16_5 Mg3_8 1_555 1_555
N17_5 C58_5 1_555 1_555
N18_5 C65_5 1_555 1_555
O38_5 C59_5 1_555 1_555
O39_5 Mg13_2 1_555 1_555
H66_5 O39_5 1_555 1_555
O40_5 Mg13_2 1_555 1_555
H67_5 O40_5 1_555 1_555
H68_5 O40_5 1_555 1_555
C5_5 N1_5 1_555 1_555
C5_5 N19_4 1_555 1_555
Mg14_2 O6_5 1_555 1_555
Mg3_8 O5_5 1_555 1_555
Mg4_5 O1_5 1_555 1_555
C57_5 N16_5 1_555 1_555
C60_5 N16_5 1_555 1_555
C60_5 N17_5 1_555 1_555
C66_5 N18_5 1_555 1_555
Mg13_2 O38_5 1_555 1_555
C1_6 C2_5 1_555 1_555
C2_5 C3_5 1_555 1_555
C3_5 C4_5 1_555 1_555
C5_6 C6_6 1_555 1_555
C6_6 H1_6 1_555 1_555
H2_6 C6_6 1_555 1_555
C7_6 C6_6 1_555 1_555
C11_6 C7_6 1_555 1_555
H6_6 C11_6 1_555 1_555
Mg14 O2_6 1_555 1_555
Mg4_6 N1_6 1_555 1_555
N1_6 C2_5 1_555 1_555
N19_3 C3_5 1_555 1_555
O1_6 C1_6 1_555 1_555
O2_6 C1_6 1_555 1_555
O5_6 C12_6 1_555 1_555
O6_6 C12_6 1_555 1_555
O7_6 Mg14 1_555 1_555
O11_5 Mg14 1_555 1_555
H17_5 O11_5 1_555 1_555
H18_5 O11_5 1_555 1_555
O12_6 Mg4_6 1_555 1_555
H19_6 O12_6 1_555 1_555
H20_6 O12_6 1_555 1_555
O13_6 Mg4_6 1_555 1_555
H21_6 O13_6 1_555 1_555
H22_6 O13_6 1_555 1_555
O14_5 Mg4_6 1_555 1_555
H23_5 O14_5 1_555 1_555
H24_5 O14_5 1_555 1_555
O15_6 Mg4_6 1_555 1_555
H25_6 O15_6 1_555 1_555
H26_6 O15_6 1_555 1_555
H55_6 C52_6 1_555 1_555
C53_6 C52_6 1_555 1_555
H56_6 C53_6 1_555 1_555
C54_6 C53_6 1_555 1_555
H57_6 C54_6 1_555 1_555
C57_6 C58_6 1_555 1_555
C58_6 C59_6 1_555 1_555
N24_3 C54_6 1_555 1_555
N16_6 Mg3_9 1_555 1_555
C5_6 N1_6 1_555 1_555
C5_6 N19_3 1_555 1_555
Mg14 O6_6 1_555 1_555
Mg3_9 O5_6 1_555 1_555
Mg4_6 O1_6 1_555 1_555
C57_6 N16_6 1_555 1_555
C60_6 C61_6 1_555 1_555
C61_6 H59_6 1_555 1_555
H60_6 C61_6 1_555 1_555
C62_6 C61_6 1_555 1_555
C63_6 C62_6 1_555 1_555
H61_6 C63_6 1_555 1_555
C64_6 C63_6 1_555 1_555
C65_6 C64_6 1_555 1_555
H63_5 C65_6 1_555 1_555
C66_6 C62_6 1_555 1_555
H64_6 C66_6 1_555 1_555
Mg13 N17_6 1_555 1_555
N18_6 C65_6 1_555 1_555
O39_6 Mg13 1_555 1_555
H66_6 O39_6 1_555 1_555
O40_6 Mg13 1_555 1_555
H67_6 O40_6 1_555 1_555
H68_6 O40_6 1_555 1_555
C60_6 N17_6 1_555 1_555
C66_6 N18_6 1_555 1_555
Mg13 O38_6 1_555 1_555
H3_6 C8_6 1_555 1_555
C9_6 C8_6 1_555 1_555
H4_6 C9_6 1_555 1_555
C10_6 C9_6 1_555 1_555
H5_6 C10_6 1_555 1_555
C13_6 C14_6 1_555 1_555
C14_6 C15_6 1_555 1_555
Mg3_10 N4_6 1_555 1_555
N22_3 C10_6 1_555 1_555
N4_6 C13_6 1_555 1_555
C45_6 C46_6 1_555 1_555
C46_6 C47_6 1_555 1_555
C47_6 C48_6 1_555 1_555
C49_6 C50_6 1_555 1_555
C50_6 H53_6 1_555 1_555
H54_6 C50_6 1_555 1_555
C51_6 C50_6 1_555 1_555
C55_6 C51_6 1_555 1_555
H58_6 C55_6 1_555 1_555
Mg16 O32_6 1_555 1_555
Mg10_6 N13_6 1_555 1_555
N13_6 C46_6 1_555 1_555
N21_3 C47_6 1_555 1_555
O31_6 C45_6 1_555 1_555
O32_6 C45_6 1_555 1_555
O35_6 Mg3_11 1_555 1_555
O36_6 C56_6 1_555 1_555
O37_6 Mg16 1_555 1_555
O41_6 Mg16 1_555 1_555
H69_6 O41_6 1_555 1_555
H70_6 O41_6 1_555 1_555
O42_6 Mg10_6 1_555 1_555
H71_6 O42_6 1_555 1_555
H72_6 O42_6 1_555 1_555
O43_6 Mg10_6 1_555 1_555
H73_6 O43_6 1_555 1_555
H74_6 O43_6 1_555 1_555
O44_6 Mg10_6 1_555 1_555
H75_6 O44_6 1_555 1_555
H76_6 O44_6 1_555 1_555
O45_6 Mg10_6 1_555 1_555
H77_6 O45_6 1_555 1_555
H78_6 O45_6 1_555 1_555
C49_6 N13_6 1_555 1_555
C49_6 N21_3 1_555 1_555
C56_6 O35_6 1_555 1_555
Mg16 O36_6 1_555 1_555
Mg10_6 O31_6 1_555 1_555
C23_6 C24_5 1_555 1_555
C24_5 C25_5 1_555 1_555
C25_5 C26_5 1_555 1_555
C26_5 O18_5 1_555 1_555
C27_6 C28_6 1_555 1_555
C28_6 H27_6 1_555 1_555
H28_6 C28_6 1_555 1_555
C29_6 C28_6 1_555 1_555
C30_6 C29_6 1_555 1_555
H29_6 C30_6 1_555 1_555
C31_6 C30_6 1_555 1_555
H30_6 C31_6 1_555 1_555
C32_6 C31_6 1_555 1_555
H31_6 C32_6 1_555 1_555
C33_6 C29_6 1_555 1_555
H32_6 C33_6 1_555 1_555
C34_6 C35_6 1_555 1_555
C35_6 C36_6 1_555 1_555
C36_6 C37_6 1_555 1_555
C37_6 O22_6 1_555 1_555
Mg15 O17_6 1_555 1_555
Mg7_6 N7_6 1_555 1_555
N7_6 C24_5 1_555 1_555
N20_3 C25_5 1_555 1_555
N23_3 C32_6 1_555 1_555
N10_6 Mg3_12 1_555 1_555
O16_6 C23_6 1_555 1_555
O17_6 C23_6 1_555 1_555
O18_5 Mg15 1_555 1_555
O47_3 C26_5 1_555 1_555
O20_6 Mg3_12 1_555 1_555
O21_6 C34_6 1_555 1_555
O22_6 Mg15 1_555 1_555
O26_5 Mg15 1_555 1_555
H43_5 O26_5 1_555 1_555
H44_5 O26_5 1_555 1_555
O27_6 Mg7_6 1_555 1_555
H45_6 O27_6 1_555 1_555
H46_6 O27_6 1_555 1_555
O28_6 Mg7_6 1_555 1_555
H47_6 O28_6 1_555 1_555
H48_6 O28_6 1_555 1_555
O29_5 Mg7_6 1_555 1_555
H49_5 O29_5 1_555 1_555
H50_5 O29_5 1_555 1_555
O30_6 Mg7_6 1_555 1_555
H51_6 O30_6 1_555 1_555
H52_6 O30_6 1_555 1_555
C27_6 N7_6 1_555 1_555
C27_6 N20_3 1_555 1_555
C33_6 N23_3 1_555 1_555
C34_6 O20_6 1_555 1_555
C35_6 N10_6 1_555 1_555
Mg15 O21_6 1_555 1_555
Mg7_6 O16_6 1_555 1_555
C24_6 C25_6 1_555 1_555
C25_6 C26_6 1_555 1_555
C26_6 O18_6 1_555 1_555
N8_2 C25_6 1_555 1_555
O19_2 C26_6 1_555 1_555
H43_6 O26_6 1_555 1_555
H44_6 O26_6 1_555 1_555
H49_6 O29_6 1_555 1_555
H50_6 O29_6 1_555 1_555
Mg11_2 N8_2 1_555 1_555
O19_2 Mg11_2 1_555 1_555
C16_6 C17_6 1_555 1_555
C17_6 H7_6 1_555 1_555
H8_6 C17_6 1_555 1_555
Mg11_2 N5_6 1_555 1_555
O9_6 Mg11_2 1_555 1_555
H14_6 O9_6 1_555 1_555
O10_6 Mg11_2 1_555 1_555
H15_6 O10_6 1_555 1_555
H16_6 O10_6 1_555 1_555
C16_6 N5_6 1_555 1_555
Mg11_2 O8_6 1_555 1_555
C2_6 C3_6 1_555 1_555
C3_6 C4_6 1_555 1_555
C4_6 O3_6 1_555 1_555
N2_2 C3_6 1_555 1_555
O4_2 C4_6 1_555 1_555
H17_6 O11_6 1_555 1_555
H18_6 O11_6 1_555 1_555
H23_6 O14_6 1_555 1_555
H24_6 O14_6 1_555 1_555
Mg12_2 N2_2 1_555 1_555
O4_2 Mg12_2 1_555 1_555
C19_6 C18_6 1_555 1_555
H9_6 C19_6 1_555 1_555
C20_6 C19_6 1_555 1_555
C21_6 C20_6 1_555 1_555
H11_6 C21_6 1_555 1_555
C22_6 C18_6 1_555 1_555
H12_6 C22_6 1_555 1_555
N6_6 C21_6 1_555 1_555
C38_6 C39_6 1_555 1_555
C39_6 H33_6 1_555 1_555
H34_6 C39_6 1_555 1_555
Mg12_2 N11_6 1_555 1_555
O24_6 Mg12_2 1_555 1_555
H39_6 O24_6 1_555 1_555
H40_6 O24_6 1_555 1_555
O25_6 Mg12_2 1_555 1_555
H41_6 O25_6 1_555 1_555
H42_6 O25_6 1_555 1_555
C22_6 N6_6 1_555 1_555
C38_6 N11_6 1_555 1_555
Mg12_2 O23_6 1_555 1_555
C41_6 C40_6 1_555 1_555
H35_6 C41_6 1_555 1_555
C42_6 C41_6 1_555 1_555
C43_6 C42_6 1_555 1_555
H37_6 C43_6 1_555 1_555
C44_6 C40_6 1_555 1_555
H38_6 C44_6 1_555 1_555
N12_6 C43_6 1_555 1_555
C44_6 N12_6 1_555 1_555

#END
