
###############################################################################
#
# This file contains modified crystal structure data generated from the
# MOF subset of the Cambridge Structural Database (CSD) v543 
# hosted by the Cambridge Crystallographic Data Centre (CCDC).
#
# This work is licensed under the Creative Commons
# Attribution-NonCommercial-ShareAlike 4.0 International License.
# To view a copy of this license, visit
# http://creativecommons.org/licenses/by-nc-sa/4.0/
# or send a letter to
# Creative Commons, PO Box 1866, Mountain View, CA 94042, USA.
#
# CIF created using the CSD Python API on 29 September 2022
# The structure has been converted into the P1 space group
# The structure has a 3D framework
# The original CSD entry DAXGES is in the monoclinic crystal system
# The framework has been calculated to contain at least 10.0% void space
# The void calculation uses a probe of radius 1.32A, grid spacing 0.4
#
###############################################################################

data_DAXGES
_chemical_formula_moiety         '(C176 H184 N16 O68 Tb8)n'
_symmetry_cell_setting           triclinic
_symmetry_space_group_name_H-M   'P 1'
_symmetry_Int_Tables_number      1
_space_group_name_Hall           'P 1'
loop_
_symmetry_equiv_pos_site_id
_symmetry_equiv_pos_as_xyz
1 x,y,z
_cell_length_a                   28.5361(13)
_cell_length_b                   14.0708(6)
_cell_length_c                   13.6753(6)
_cell_angle_alpha                90
_cell_angle_beta                 100.445(2)
_cell_angle_gamma                90
_cell_volume                     5400
loop_
_atom_site_label
_atom_site_type_symbol
_atom_site_fract_x
_atom_site_fract_y
_atom_site_fract_z
Tb4 Tb 0.31735(2) 0.78797(2) 0.04317(2)
Tb1 Tb 0.31735(2) 0.21203(2) 0.54317(2)
O1 O 0.30072(9) 0.7383(2) 0.8756(2)
O2 O 0.26944(10) 0.34728(19) 0.5418(2)
O3 O 0.20575(10) 0.4313(2) 0.5516(2)
O4 O 0.22914(10) 0.6696(2) 0.8356(2)
O5 O 0.60746(11) 0.8177(2) 0.5011(3)
O6 O 0.61906(10) 0.6649(2) 0.4903(2)
O7 O 0.39926(10) 0.5914(2) 0.6439(2)
O8 O 0.35762(15) 0.2821(3) 0.6927(3)
C1 C 0.24980(14) 0.4201(3) 0.5713(3)
C2 C 0.59456(14) 0.7328(3) 0.5097(3)
C3 C 0.27180(14) 0.6818(3) 0.8266(3)
O9 O 0.35522(13) 0.0783(3) 0.6453(3)
C4 C 0.28020(14) 0.4955(3) 0.6289(3)
C5 C 0.26140(14) 0.5534(3) 0.6951(3)
H1 H 0.229343 0.545327 0.703685
C6 C 0.54843(14) 0.7168(3) 0.5457(3)
C7 C 0.28973(13) 0.6228(3) 0.7483(3)
C8 C 0.32690(14) 0.5077(3) 0.6154(3)
H2 H 0.340110 0.466476 0.572487
C9 C 0.46533(14) 0.6891(3) 0.6237(3)
C10 C 0.35419(14) 0.5809(3) 0.6652(3)
C11 C 0.52230(18) 0.7922(4) 0.5689(5)
H3 H 0.532553 0.854968 0.558269
C12 C 0.42223(15) 0.6796(3) 0.6712(3)
H4 H 0.431803 0.682971 0.744403
H5 H 0.399901 0.732509 0.649459
C13 C 0.48117(19) 0.7789(4) 0.6076(5)
H6 H 0.463710 0.832558 0.623295
C14 C 0.33610(13) 0.6371(3) 0.7330(3)
H7 H 0.355310 0.685284 0.768804
C15 C 0.53174(15) 0.6272(3) 0.5571(3)
H8 H 0.548544 0.574055 0.537967
C16 C 0.49042(15) 0.6124(4) 0.5962(3)
H9 H 0.479495 0.549531 0.603944
N1 N 0.3795(2) 0.3796(4) 0.8228(4)
N2 N 0.3841(2) 0.0144(4) 0.8080(5)
C17 C 0.3488(3) 0.3229(6) 0.7620(5)
H10 H 0.317742 0.315459 0.776613
C18 C 0.3677(3) 0.0852(6) 0.7440(6)
H11 H 0.364807 0.146203 0.772166
C19 C 0.4002(3) 0.0316(7) 0.9129(6)
H12 H 0.434853 0.024373 0.929090
H14 H 0.391397 0.096252 0.929156
C20 C 0.3637(4) 0.4292(7) 0.8996(6)
H15 H 0.329388 0.419194 0.894931
H16 H 0.370109 0.497131 0.893574
H17 H 0.380601 0.405821 0.963907
C21 C 0.4262(3) 0.3974(8) 0.8066(7)
H18 H 0.449218 0.368575 0.860236
H19 H 0.431578 0.466131 0.805517
H20 H 0.430085 0.369831 0.742765
Tb2 Tb 0.18265(2) 0.71203(2) 0.95683(2)
Tb3 Tb 0.68265(2) 0.78797(2) 0.45683(2)
Tb5 Tb 0.18265(2) 0.28797(2) 0.45683(2)
O10 O 0.30072(9) 0.2617(2) 0.3756(2)
O11 O 0.23056(10) 0.15272(19) 0.4582(2)
O12 O 0.29425(10) 0.0687(2) 0.4484(2)
O13 O 0.27086(10) 0.1696(2) 0.6644(2)
O14 O 0.39254(11) 0.1823(2) 0.4989(3)
O15 O 0.38094(10) 0.3351(2) 0.5097(2)
O6_2 O 0.38094(10) 0.6649(2) 0.0097(2)
Tb5_2 Tb 0.81735(2) 0.28797(2) 0.04317(2)
O10_2 O 0.69928(9) 0.2617(2) 0.1244(2)
O11_2 O 0.76944(10) 0.15272(19) 0.0418(2)
O12_2 O 0.70575(10) 0.0687(2) 0.0516(2)
O14_2 O 0.60746(11) 0.1823(2) 0.0011(3)
Tb1_2 Tb 0.68265(2) 0.21203(2) 0.95683(2)
O1_2 O 0.69928(9) 0.7383(2) 0.6244(2)
O2_2 O 0.73056(10) 0.34728(19) 0.9582(2)
O3_2 O 0.79425(10) 0.4313(2) 0.9484(2)
O4_2 O 0.77086(10) 0.6696(2) 0.6644(2)
O5_2 O 0.39254(11) 0.8177(2) 0.9989(3)
O7_2 O 0.60074(10) 0.5914(2) 0.8561(2)
O8_2 O 0.64238(15) 0.2821(3) 0.8073(3)
C1_2 C 0.75020(14) 0.4201(3) 0.9287(3)
C2_2 C 0.40544(14) 0.7328(3) 0.9903(3)
C3_2 C 0.72820(14) 0.6818(3) 0.6734(3)
O9_2 O 0.64478(13) 0.0783(3) 0.8547(3)
C4_2 C 0.71980(14) 0.4955(3) 0.8711(3)
C5_2 C 0.73860(14) 0.5534(3) 0.8049(3)
H1_2 H 0.770657 0.545327 0.796315
C6_2 C 0.45157(14) 0.7168(3) 0.9543(3)
C7_2 C 0.71027(13) 0.6228(3) 0.7517(3)
C8_2 C 0.67310(14) 0.5077(3) 0.8846(3)
H2_2 H 0.659890 0.466476 0.927513
C9_2 C 0.53467(14) 0.6891(3) 0.8763(3)
C10_2 C 0.64581(14) 0.5809(3) 0.8348(3)
C11_2 C 0.47770(18) 0.7922(4) 0.9311(5)
H3_2 H 0.467447 0.854968 0.941731
C12_2 C 0.57777(15) 0.6796(3) 0.8288(3)
H4_2 H 0.568197 0.682971 0.755597
H5_2 H 0.600099 0.732509 0.850541
C13_2 C 0.51883(19) 0.7789(4) 0.8924(5)
H6_2 H 0.536290 0.832558 0.876705
C14_2 C 0.66390(13) 0.6371(3) 0.7670(3)
H7_2 H 0.644690 0.685284 0.731196
C15_2 C 0.46826(15) 0.6272(3) 0.9429(3)
H8_2 H 0.451456 0.574055 0.962033
C16_2 C 0.50958(15) 0.6124(4) 0.9038(3)
H9_2 H 0.520505 0.549531 0.896056
N1_2 N 0.6205(2) 0.3796(4) 0.6772(4)
N2_2 N 0.6159(2) 0.0144(4) 0.6920(5)
C17_2 C 0.6512(3) 0.3229(6) 0.7380(5)
H10_2 H 0.682258 0.315459 0.723387
C18_2 C 0.6323(3) 0.0852(6) 0.7560(6)
H11_2 H 0.635193 0.146203 0.727834
C19_2 C 0.5998(3) 0.0316(7) 0.5871(6)
H12_2 H 0.565147 0.024373 0.570910
H14_2 H 0.608603 0.096252 0.570844
C20_2 C 0.6363(4) 0.4292(7) 0.6004(6)
H15_2 H 0.670612 0.419194 0.605069
H16_2 H 0.629891 0.497131 0.606426
H17_2 H 0.619399 0.405821 0.536093
C21_2 C 0.5738(3) 0.3974(8) 0.6934(7)
H18_2 H 0.550782 0.368575 0.639764
H19_2 H 0.568422 0.466131 0.694483
H20_2 H 0.569915 0.369831 0.757235
Tb2_2 Tb 0.81735(2) 0.71203(2) 0.54317(2)
O13_2 O 0.72914(10) 0.1696(2) 0.8356(2)
O15_2 O 0.61906(10) 0.3351(2) 0.9903(2)
O5_3 O 0.10746(11) 0.3177(2) 0.5011(3)
O6_3 O 0.11906(10) 0.1649(2) 0.4903(2)
C2_3 C 0.09456(14) 0.2328(3) 0.5097(3)
C6_3 C 0.04843(14) 0.2168(3) 0.5457(3)
C11_3 C 0.02230(18) 0.2922(4) 0.5689(5)
H3_3 H 0.032553 0.354968 0.558269
C15_3 C 0.03174(15) 0.1272(3) 0.5571(3)
H8_3 H 0.048544 0.074055 0.537967
O1_3 O 0.80072(9) 0.2383(2) 0.8756(2)
O7_3 O 0.89926(10) 0.0914(2) 0.6439(2)
C3_3 C 0.77180(14) 0.1818(3) 0.8266(3)
C5_3 C 0.76140(14) 0.0534(3) 0.6951(3)
H1_3 H 0.729343 0.045327 0.703685
C7_3 C 0.78973(13) 0.1228(3) 0.7483(3)
C8_3 C 0.82690(14) 0.0077(3) 0.6154(3)
C9_3 C 0.96533(14) 0.1891(3) 0.6237(3)
C10_3 C 0.85419(14) 0.0809(3) 0.6652(3)
C12_3 C 0.92223(15) 0.1796(3) 0.6712(3)
H4_3 H 0.931803 0.182971 0.744403
H5_3 H 0.899901 0.232509 0.649459
C13_3 C 0.98117(19) 0.2789(4) 0.6076(5)
H6_3 H 0.963710 0.332558 0.623295
C14_3 C 0.83610(13) 0.1371(3) 0.7330(3)
H7_3 H 0.855310 0.185284 0.768804
C16_3 C 0.99042(15) 0.1124(4) 0.5962(3)
H9_3 H 0.979495 0.049531 0.603944
O2_3 O 0.76944(10) 0.84728(19) 0.5418(2)
O3_3 O 0.70575(10) 0.9313(2) 0.5516(2)
O8_3 O 0.85762(15) 0.7821(3) 0.6927(3)
C1_3 C 0.74980(14) 0.9201(3) 0.5713(3)
O9_3 O 0.85522(13) 0.5783(3) 0.6453(3)
C4_3 C 0.78020(14) 0.9955(3) 0.6289(3)
H2_3 H 0.840110 0.966476 0.572487
N1_3 N 0.8795(2) 0.8796(4) 0.8228(4)
N2_3 N 0.8841(2) 0.5144(4) 0.8080(5)
C17_3 C 0.8488(3) 0.8229(6) 0.7620(5)
H10_3 H 0.817742 0.815459 0.776613
C18_3 C 0.8677(3) 0.5852(6) 0.7440(6)
H11_3 H 0.864807 0.646203 0.772166
C19_3 C 0.9002(3) 0.5316(7) 0.9129(6)
H12_3 H 0.934853 0.524373 0.929090
H13 H 0.885107 0.485788 0.951467
H14_3 H 0.891397 0.596252 0.929156
C20_3 C 0.8637(4) 0.9292(7) 0.8996(6)
H15_3 H 0.829388 0.919194 0.894931
H16_3 H 0.870109 0.997131 0.893574
H17_3 H 0.880601 0.905821 0.963907
C21_3 C 0.9262(3) 0.8974(8) 0.8066(7)
H18_3 H 0.949218 0.868575 0.860236
H19_3 H 0.931578 0.966131 0.805517
H20_3 H 0.930085 0.869831 0.742765
C22 C 0.8812(7) 0.4169(8) 0.7615(9)
H21 H 0.863809 0.420687 0.692876
H22 H 0.864501 0.373677 0.799688
H23 H 0.913467 0.392884 0.761580
O10_3 O 0.80072(9) 0.7617(2) 0.3756(2)
O11_3 O 0.73056(10) 0.65272(19) 0.4582(2)
O12_3 O 0.79425(10) 0.5687(2) 0.4484(2)
O14_3 O 0.89254(11) 0.6823(2) 0.4989(3)
O15_3 O 0.88094(10) 0.8351(2) 0.5097(2)
O1_4 O 0.19928(9) 0.2383(2) 0.6244(2)
O7_4 O 0.10074(10) 0.0914(2) 0.8561(2)
C3_4 C 0.22820(14) 0.1818(3) 0.6734(3)
C5_4 C 0.23860(14) 0.0534(3) 0.8049(3)
H1_4 H 0.270657 0.045327 0.796315
C7_4 C 0.21027(13) 0.1228(3) 0.7517(3)
C8_4 C 0.17310(14) 0.0077(3) 0.8846(3)
C9_4 C 0.03467(14) 0.1891(3) 0.8763(3)
C10_4 C 0.14581(14) 0.0809(3) 0.8348(3)
C12_4 C 0.07777(15) 0.1796(3) 0.8288(3)
H4_4 H 0.068197 0.182971 0.755597
H5_4 H 0.100099 0.232509 0.850541
C13_4 C 0.01883(19) 0.2789(4) 0.8924(5)
H6_4 H 0.036290 0.332558 0.876705
C14_4 C 0.16390(13) 0.1371(3) 0.7670(3)
H7_4 H 0.144690 0.185284 0.731196
C16_4 C 0.00958(15) 0.1124(4) 0.9038(3)
H9_4 H 0.020505 0.049531 0.896056
O10_4 O 0.19928(9) 0.7617(2) 0.1244(2)
O11_4 O 0.26944(10) 0.65272(19) 0.0418(2)
O12_4 O 0.20575(10) 0.5687(2) 0.0516(2)
O14_4 O 0.10746(11) 0.6823(2) 0.0011(3)
O2_4 O 0.23056(10) 0.84728(19) 0.9582(2)
O3_4 O 0.29425(10) 0.9313(2) 0.9484(2)
O8_4 O 0.14238(15) 0.7821(3) 0.8073(3)
C1_4 C 0.25020(14) 0.9201(3) 0.9287(3)
O9_4 O 0.14478(13) 0.5783(3) 0.8547(3)
C4_4 C 0.21980(14) 0.9955(3) 0.8711(3)
H2_4 H 0.159890 0.966476 0.927513
N1_4 N 0.1205(2) 0.8796(4) 0.6772(4)
N2_4 N 0.1159(2) 0.5144(4) 0.6920(5)
C17_4 C 0.1512(3) 0.8229(6) 0.7380(5)
H10_4 H 0.182258 0.815459 0.723387
C18_4 C 0.1323(3) 0.5852(6) 0.7560(6)
H11_4 H 0.135193 0.646203 0.727834
C19_4 C 0.0998(3) 0.5316(7) 0.5871(6)
H12_4 H 0.065147 0.524373 0.570910
H13_2 H 0.114893 0.485788 0.548533
H14_4 H 0.108603 0.596252 0.570844
C20_4 C 0.1363(4) 0.9292(7) 0.6004(6)
H15_4 H 0.170612 0.919194 0.605069
H16_4 H 0.129891 0.997131 0.606426
H17_4 H 0.119399 0.905821 0.536093
C21_4 C 0.0738(3) 0.8974(8) 0.6934(7)
H18_4 H 0.050782 0.868575 0.639764
H19_4 H 0.068422 0.966131 0.694483
H20_4 H 0.069915 0.869831 0.757235
C22_2 C 0.1188(7) 0.4169(8) 0.7385(9)
H21_2 H 0.136191 0.420687 0.807124
H22_2 H 0.135499 0.373677 0.700312
H23_2 H 0.086533 0.392884 0.738420
O15_4 O 0.11906(10) 0.8351(2) 0.9903(2)
O6_4 O 0.88094(10) 0.1649(2) 0.0097(2)
O5_4 O 0.89254(11) 0.3177(2) 0.9989(3)
C2_4 C 0.90544(14) 0.2328(3) 0.9903(3)
C6_4 C 0.95157(14) 0.2168(3) 0.9543(3)
C11_4 C 0.97770(18) 0.2922(4) 0.9311(5)
H3_4 H 0.967447 0.354968 0.941731
C15_4 C 0.96826(15) 0.1272(3) 0.9429(3)
H8_4 H 0.951456 0.074055 0.962033
O4_3 O 0.77086(10) 0.3304(2) 0.1644(2)
O7_5 O 0.60074(10) 0.4086(2) 0.3561(2)
O8_5 O 0.64238(15) 0.7179(3) 0.3073(3)
C1_5 C 0.75020(14) 0.5799(3) 0.4287(3)
C2_5 C 0.40544(14) 0.2672(3) 0.4903(3)
C3_5 C 0.72820(14) 0.3182(3) 0.1734(3)
O9_5 O 0.64478(13) 0.9217(3) 0.3547(3)
C4_5 C 0.71980(14) 0.5045(3) 0.3711(3)
C5_5 C 0.73860(14) 0.4466(3) 0.3049(3)
H1_5 H 0.770657 0.454673 0.296315
C6_5 C 0.45157(14) 0.2832(3) 0.4543(3)
C7_5 C 0.71027(13) 0.3772(3) 0.2517(3)
C8_5 C 0.67310(14) 0.4923(3) 0.3846(3)
H2_5 H 0.659890 0.533524 0.427513
C9_5 C 0.53467(14) 0.3109(3) 0.3763(3)
C10_5 C 0.64581(14) 0.4191(3) 0.3348(3)
C11_5 C 0.47770(18) 0.2078(4) 0.4311(5)
H3_5 H 0.467447 0.145032 0.441731
C12_5 C 0.57777(15) 0.3204(3) 0.3288(3)
H4_5 H 0.568197 0.317029 0.255597
H5_5 H 0.600099 0.267491 0.350541
C13_5 C 0.51883(19) 0.2211(4) 0.3924(5)
H6_5 H 0.536290 0.167442 0.376705
C14_5 C 0.66390(13) 0.3629(3) 0.2670(3)
H7_5 H 0.644690 0.314716 0.231196
C15_5 C 0.46826(15) 0.3728(3) 0.4429(3)
H8_5 H 0.451456 0.425945 0.462033
C16_5 C 0.50958(15) 0.3876(4) 0.4038(3)
H9_5 H 0.520505 0.450469 0.396056
N1_5 N 0.6205(2) 0.6204(4) 0.1772(4)
N2_5 N 0.6159(2) 0.9856(4) 0.1920(5)
C17_5 C 0.6512(3) 0.6771(6) 0.2380(5)
H10_5 H 0.682258 0.684541 0.223387
C18_5 C 0.6323(3) 0.9148(6) 0.2560(6)
H11_5 H 0.635193 0.853797 0.227834
C19_5 C 0.5998(3) 0.9684(7) 0.0871(6)
H12_5 H 0.565147 0.975627 0.070910
H14_5 H 0.608603 0.903748 0.070844
C20_5 C 0.6363(4) 0.5708(7) 0.1004(6)
H15_5 H 0.670612 0.580806 0.105069
H16_5 H 0.629891 0.502869 0.106426
H17_5 H 0.619399 0.594179 0.036093
C21_5 C 0.5738(3) 0.6026(8) 0.1934(7)
H18_5 H 0.550782 0.631425 0.139764
H19_5 H 0.568422 0.533869 0.194483
H20_5 H 0.569915 0.630169 0.257235
O13_3 O 0.72914(10) 0.8304(2) 0.3356(2)
O4_4 O 0.22914(10) 0.3304(2) 0.3356(2)
O7_6 O 0.39926(10) 0.4086(2) 0.1439(2)
O8_6 O 0.35762(15) 0.7179(3) 0.1927(3)
C1_6 C 0.24980(14) 0.5799(3) 0.0713(3)
C2_6 C 0.59456(14) 0.2672(3) 0.0097(3)
C3_6 C 0.27180(14) 0.3182(3) 0.3266(3)
O9_6 O 0.35522(13) 0.9217(3) 0.1453(3)
C4_6 C 0.28020(14) 0.5045(3) 0.1289(3)
C5_6 C 0.26140(14) 0.4466(3) 0.1951(3)
H1_6 H 0.229343 0.454673 0.203685
C6_6 C 0.54843(14) 0.2832(3) 0.0457(3)
C7_6 C 0.28973(13) 0.3772(3) 0.2483(3)
C8_6 C 0.32690(14) 0.4923(3) 0.1154(3)
H2_6 H 0.340110 0.533524 0.072487
C9_6 C 0.46533(14) 0.3109(3) 0.1237(3)
C10_6 C 0.35419(14) 0.4191(3) 0.1652(3)
C11_6 C 0.52230(18) 0.2078(4) 0.0689(5)
H3_6 H 0.532553 0.145032 0.058269
C12_6 C 0.42223(15) 0.3204(3) 0.1712(3)
H4_6 H 0.431803 0.317029 0.244403
H5_6 H 0.399901 0.267491 0.149459
C13_6 C 0.48117(19) 0.2211(4) 0.1076(5)
H6_6 H 0.463710 0.167442 0.123295
C14_6 C 0.33610(13) 0.3629(3) 0.2330(3)
H7_6 H 0.355310 0.314716 0.268804
C15_6 C 0.53174(15) 0.3728(3) 0.0571(3)
H8_6 H 0.548544 0.425945 0.037967
C16_6 C 0.49042(15) 0.3876(4) 0.0962(3)
H9_6 H 0.479495 0.450469 0.103944
N1_6 N 0.3795(2) 0.6204(4) 0.3228(4)
N2_6 N 0.3841(2) 0.9856(4) 0.3080(5)
C17_6 C 0.3488(3) 0.6771(6) 0.2620(5)
H10_6 H 0.317742 0.684541 0.276613
C18_6 C 0.3677(3) 0.9148(6) 0.2440(6)
H11_6 H 0.364807 0.853797 0.272166
C19_6 C 0.4002(3) 0.9684(7) 0.4129(6)
H12_6 H 0.434853 0.975627 0.429090
H14_6 H 0.391397 0.903748 0.429156
C20_6 C 0.3637(4) 0.5708(7) 0.3996(6)
H15_6 H 0.329388 0.580806 0.394931
H16_6 H 0.370109 0.502869 0.393574
H17_6 H 0.380601 0.594179 0.463907
C21_6 C 0.4262(3) 0.6026(8) 0.3066(7)
H18_6 H 0.449218 0.631425 0.360236
H19_6 H 0.431578 0.533869 0.305517
H20_6 H 0.430085 0.630169 0.242765
O13_4 O 0.27086(10) 0.8304(2) 0.1644(2)
O8_7 O 0.14238(15) 0.2179(3) 0.3073(3)
C1_7 C 0.25020(14) 0.0799(3) 0.4287(3)
O9_7 O 0.14478(13) 0.4217(3) 0.3547(3)
C4_7 C 0.21980(14) 0.0045(3) 0.3711(3)
H2_7 H 0.159890 0.033524 0.427513
N1_7 N 0.1205(2) 0.1204(4) 0.1772(4)
N2_7 N 0.1159(2) 0.4856(4) 0.1920(5)
C17_7 C 0.1512(3) 0.1771(6) 0.2380(5)
H10_7 H 0.182258 0.184541 0.223387
C18_7 C 0.1323(3) 0.4148(6) 0.2560(6)
H11_7 H 0.135193 0.353797 0.227834
C19_7 C 0.0998(3) 0.4684(7) 0.0871(6)
H12_7 H 0.065147 0.475627 0.070910
H13_3 H 0.114893 0.514212 0.048533
H14_7 H 0.108603 0.403748 0.070844
C20_7 C 0.1363(4) 0.0708(7) 0.1004(6)
H15_7 H 0.170612 0.080806 0.105069
H16_7 H 0.129891 0.002869 0.106426
H17_7 H 0.119399 0.094179 0.036093
C21_7 C 0.0738(3) 0.1026(8) 0.1934(7)
H18_7 H 0.050782 0.131425 0.139764
H19_7 H 0.068422 0.033869 0.194483
H20_7 H 0.069915 0.130169 0.257235
C22_3 C 0.1188(7) 0.5831(8) 0.2385(9)
H21_3 H 0.136191 0.579313 0.307124
H22_3 H 0.135499 0.626323 0.200312
H23_3 H 0.086533 0.607116 0.238420
O7_7 O 0.10074(10) 0.9086(2) 0.3561(2)
C3_7 C 0.22820(14) 0.8182(3) 0.1734(3)
C5_7 C 0.23860(14) 0.9466(3) 0.3049(3)
H1_7 H 0.270657 0.954673 0.296315
C7_7 C 0.21027(13) 0.8772(3) 0.2517(3)
C8_7 C 0.17310(14) 0.9923(3) 0.3846(3)
C9_7 C 0.03467(14) 0.8109(3) 0.3763(3)
C10_7 C 0.14581(14) 0.9191(3) 0.3348(3)
C12_7 C 0.07777(15) 0.8204(3) 0.3288(3)
H4_7 H 0.068197 0.817029 0.255597
H5_7 H 0.100099 0.767491 0.350541
C13_7 C 0.01883(19) 0.7211(4) 0.3924(5)
H6_7 H 0.036290 0.667442 0.376705
C14_7 C 0.16390(13) 0.8629(3) 0.2670(3)
H7_7 H 0.144690 0.814716 0.231196
C16_7 C 0.00958(15) 0.8876(4) 0.4038(3)
H9_7 H 0.020505 0.950469 0.396056
C2_7 C 0.90544(14) 0.7672(3) 0.4903(3)
C6_7 C 0.95157(14) 0.7832(3) 0.4543(3)
C11_7 C 0.97770(18) 0.7078(4) 0.4311(5)
H3_7 H 0.967447 0.645032 0.441731
C15_7 C 0.96826(15) 0.8728(3) 0.4429(3)
H8_7 H 0.951456 0.925945 0.462033
C2_8 C 0.09456(14) 0.7672(3) 0.0097(3)
C6_8 C 0.04843(14) 0.7832(3) 0.0457(3)
C11_8 C 0.02230(18) 0.7078(4) 0.0689(5)
H3_8 H 0.032553 0.645032 0.058269
C15_8 C 0.03174(15) 0.8728(3) 0.0571(3)
H8_8 H 0.048544 0.925945 0.037967
O8_8 O 0.85762(15) 0.2179(3) 0.1927(3)
C1_8 C 0.74980(14) 0.0799(3) 0.0713(3)
O9_8 O 0.85522(13) 0.4217(3) 0.1453(3)
C4_8 C 0.78020(14) 0.0045(3) 0.1289(3)
H2_8 H 0.840110 0.033524 0.072487
N1_8 N 0.8795(2) 0.1204(4) 0.3228(4)
N2_8 N 0.8841(2) 0.4856(4) 0.3080(5)
C17_8 C 0.8488(3) 0.1771(6) 0.2620(5)
H10_8 H 0.817742 0.184541 0.276613
C18_8 C 0.8677(3) 0.4148(6) 0.2440(6)
H11_8 H 0.864807 0.353797 0.272166
C19_8 C 0.9002(3) 0.4684(7) 0.4129(6)
H12_8 H 0.934853 0.475627 0.429090
H13_4 H 0.885107 0.514212 0.451467
H14_8 H 0.891397 0.403748 0.429156
C20_8 C 0.8637(4) 0.0708(7) 0.3996(6)
H15_8 H 0.829388 0.080806 0.394931
H16_8 H 0.870109 0.002869 0.393574
H17_8 H 0.880601 0.094179 0.463907
C21_8 C 0.9262(3) 0.1026(8) 0.3066(7)
H18_8 H 0.949218 0.131425 0.360236
H19_8 H 0.931578 0.033869 0.305517
H20_8 H 0.930085 0.130169 0.242765
C22_4 C 0.8812(7) 0.5831(8) 0.2615(9)
H21_4 H 0.863809 0.579313 0.192876
H22_4 H 0.864501 0.626323 0.299688
H23_4 H 0.913467 0.607116 0.261580
O7_8 O 0.89926(10) 0.9086(2) 0.1439(2)
C3_8 C 0.77180(14) 0.8182(3) 0.3266(3)
C5_8 C 0.76140(14) 0.9466(3) 0.1951(3)
H1_8 H 0.729343 0.954673 0.203685
C7_8 C 0.78973(13) 0.8772(3) 0.2483(3)
C8_8 C 0.82690(14) 0.9923(3) 0.1154(3)
C9_8 C 0.96533(14) 0.8109(3) 0.1237(3)
C10_8 C 0.85419(14) 0.9191(3) 0.1652(3)
C12_8 C 0.92223(15) 0.8204(3) 0.1712(3)
H4_8 H 0.931803 0.817029 0.244403
H5_8 H 0.899901 0.767491 0.149459
C13_8 C 0.98117(19) 0.7211(4) 0.1076(5)
H6_8 H 0.963710 0.667442 0.123295
C14_8 C 0.83610(13) 0.8629(3) 0.2330(3)
H7_8 H 0.855310 0.814716 0.268804
C16_8 C 0.99042(15) 0.8876(4) 0.0962(3)
H9_8 H 0.979495 0.950469 0.103944
H13_5 H 0.385107 0.985788 0.951467
C22_5 C 0.3812(7) 0.9169(8) 0.7615(9)
H21_5 H 0.363809 0.920687 0.692876
H22_5 H 0.364501 0.873677 0.799688
H23_5 H 0.413467 0.892884 0.761580
H13_6 H 0.614893 0.985788 0.548533
C22_6 C 0.6188(7) 0.9169(8) 0.7385(9)
H21_6 H 0.636191 0.920687 0.807124
H22_6 H 0.635499 0.873677 0.700312
H23_6 H 0.586533 0.892884 0.738420
H13_7 H 0.614893 0.014212 0.048533
C22_7 C 0.6188(7) 0.0831(8) 0.2385(9)
H21_7 H 0.636191 0.079313 0.307124
H22_7 H 0.635499 0.126323 0.200312
H23_7 H 0.586533 0.107116 0.238420
H13_8 H 0.385107 0.014212 0.451467
C22_8 C 0.3812(7) 0.0831(8) 0.2615(9)
H21_8 H 0.363809 0.079313 0.192876
H22_8 H 0.364501 0.126323 0.299688
H23_8 H 0.413467 0.107116 0.261580
loop_
_geom_bond_atom_site_label_1
_geom_bond_atom_site_label_2
_geom_bond_site_symmetry_1
_geom_bond_site_symmetry_2
Tb1 O2 1_555 1_555
O1 C3 1_555 1_555
O2 C1 1_555 1_555
O3 C1 1_555 1_555
O4 C3 1_555 1_555
O5 C2 1_555 1_555
O6 C2 1_555 1_555
O7 C10 1_555 1_555
O8 Tb1 1_555 1_555
C1 C4 1_555 1_555
C2 C6 1_555 1_555
C3 C7 1_555 1_555
O9 Tb1 1_555 1_555
C4 C5 1_555 1_555
C5 H1 1_555 1_555
C6 C11 1_555 1_555
C7 C5 1_555 1_555
C8 C4 1_555 1_555
H2 C8 1_555 1_555
C9 C12 1_555 1_555
C10 C8 1_555 1_555
C11 H3 1_555 1_555
C12 O7 1_555 1_555
H4 C12 1_555 1_555
H5 C12 1_555 1_555
C13 C9 1_555 1_555
H6 C13 1_555 1_555
C14 C7 1_555 1_555
H7 C14 1_555 1_555
C15 C6 1_555 1_555
H8 C15 1_555 1_555
C16 C9 1_555 1_555
H9 C16 1_555 1_555
N1 C17 1_555 1_555
N2 C18 1_555 1_555
C17 O8 1_555 1_555
H10 C17 1_555 1_555
C18 O9 1_555 1_555
H11 C18 1_555 1_555
C19 N2 1_555 1_555
H12 C19 1_555 1_555
H14 C19 1_555 1_555
C20 N1 1_555 1_555
H15 C20 1_555 1_555
H16 C20 1_555 1_555
H17 C20 1_555 1_555
C21 N1 1_555 1_555
H18 C21 1_555 1_555
H19 C21 1_555 1_555
H20 C21 1_555 1_555
Tb2 O4 1_555 1_555
Tb3 O5 1_555 1_555
Tb5 O2 1_555 1_555
O10 Tb1 1_555 1_555
O11 Tb1 1_555 1_555
O12 Tb1 1_555 1_555
O13 Tb1 1_555 1_555
O14 Tb1 1_555 1_555
O15 Tb1 1_555 1_555
O3 Tb5 1_555 1_555
O6 Tb3 1_555 1_555
C10 C14 1_555 1_555
C11 C13 1_555 1_555
C15 C16 1_555 1_555
Tb5 O11 1_555 1_555
O6_2 Tb4 1_555 1_555
Tb5_2 O11_2 1_555 1_555
Tb1_2 O2_2 1_555 1_555
O1_2 C3_2 1_555 1_555
O2_2 C1_2 1_555 1_555
O3_2 C1_2 1_555 1_555
O4_2 C3_2 1_555 1_555
O5_2 C2_2 1_555 1_555
O7_2 C10_2 1_555 1_555
O8_2 Tb1_2 1_555 1_555
C1_2 C4_2 1_555 1_555
C2_2 C6_2 1_555 1_555
C3_2 C7_2 1_555 1_555
O9_2 Tb1_2 1_555 1_555
C4_2 C5_2 1_555 1_555
C5_2 H1_2 1_555 1_555
C6_2 C11_2 1_555 1_555
C7_2 C5_2 1_555 1_555
C8_2 C4_2 1_555 1_555
H2_2 C8_2 1_555 1_555
C9_2 C12_2 1_555 1_555
C10_2 C8_2 1_555 1_555
C11_2 H3_2 1_555 1_555
C12_2 O7_2 1_555 1_555
H4_2 C12_2 1_555 1_555
H5_2 C12_2 1_555 1_555
C13_2 C9_2 1_555 1_555
H6_2 C13_2 1_555 1_555
C14_2 C7_2 1_555 1_555
H7_2 C14_2 1_555 1_555
C15_2 C6_2 1_555 1_555
H8_2 C15_2 1_555 1_555
C16_2 C9_2 1_555 1_555
H9_2 C16_2 1_555 1_555
N1_2 C17_2 1_555 1_555
N2_2 C18_2 1_555 1_555
C17_2 O8_2 1_555 1_555
H10_2 C17_2 1_555 1_555
C18_2 O9_2 1_555 1_555
H11_2 C18_2 1_555 1_555
C19_2 N2_2 1_555 1_555
H12_2 C19_2 1_555 1_555
H14_2 C19_2 1_555 1_555
C20_2 N1_2 1_555 1_555
H15_2 C20_2 1_555 1_555
H16_2 C20_2 1_555 1_555
H17_2 C20_2 1_555 1_555
C21_2 N1_2 1_555 1_555
H18_2 C21_2 1_555 1_555
H19_2 C21_2 1_555 1_555
H20_2 C21_2 1_555 1_555
Tb2_2 O4_2 1_555 1_555
Tb3 O1_2 1_555 1_555
O13_2 Tb1_2 1_555 1_555
O15_2 Tb1_2 1_555 1_555
C10_2 C14_2 1_555 1_555
C11_2 C13_2 1_555 1_555
C15_2 C16_2 1_555 1_555
O5_3 C2_3 1_555 1_555
O6_3 C2_3 1_555 1_555
C2_3 C6_3 1_555 1_555
C6_3 C11_3 1_555 1_555
C11_3 H3_3 1_555 1_555
C15_3 C6_3 1_555 1_555
H8_3 C15_3 1_555 1_555
Tb5 O5_3 1_555 1_555
O6_3 Tb5 1_555 1_555
O1_3 C3_3 1_555 1_555
O13_2 C3_3 1_555 1_555
O7_3 C10_3 1_555 1_555
C3_3 C7_3 1_555 1_555
C5_3 H1_3 1_555 1_555
C7_3 C5_3 1_555 1_555
C9_3 C12_3 1_555 1_555
C10_3 C8_3 1_555 1_555
C12_3 O7_3 1_555 1_555
H4_3 C12_3 1_555 1_555
H5_3 C12_3 1_555 1_555
C13_3 C9_3 1_555 1_555
H6_3 C13_3 1_555 1_555
C14_3 C7_3 1_555 1_555
H7_3 C14_3 1_555 1_555
C16_3 C9_3 1_555 1_555
H9_3 C16_3 1_555 1_555
C10_3 C14_3 1_555 1_555
Tb2_2 O2_3 1_555 1_555
O2_3 C1_3 1_555 1_555
O3_3 C1_3 1_555 1_555
O8_3 Tb2_2 1_555 1_555
C1_3 C4_3 1_555 1_555
O9_3 Tb2_2 1_555 1_555
N1_3 C17_3 1_555 1_555
N2_3 C18_3 1_555 1_555
C17_3 O8_3 1_555 1_555
H10_3 C17_3 1_555 1_555
C18_3 O9_3 1_555 1_555
H11_3 C18_3 1_555 1_555
C19_3 N2_3 1_555 1_555
H12_3 C19_3 1_555 1_555
H13 C19_3 1_555 1_555
H14_3 C19_3 1_555 1_555
C20_3 N1_3 1_555 1_555
H15_3 C20_3 1_555 1_555
H16_3 C20_3 1_555 1_555
H17_3 C20_3 1_555 1_555
C21_3 N1_3 1_555 1_555
H18_3 C21_3 1_555 1_555
H19_3 C21_3 1_555 1_555
H20_3 C21_3 1_555 1_555
C22 N2_3 1_555 1_555
H21 C22 1_555 1_555
H22 C22 1_555 1_555
H23 C22 1_555 1_555
Tb3 O2_3 1_555 1_555
O10_3 Tb2_2 1_555 1_555
O11_3 Tb2_2 1_555 1_555
O12_3 Tb2_2 1_555 1_555
O14_3 Tb2_2 1_555 1_555
O15_3 Tb2_2 1_555 1_555
O3_3 Tb3 1_555 1_555
Tb3 O11_3 1_555 1_555
O1_4 C3_4 1_555 1_555
O13 C3_4 1_555 1_555
O7_4 C10_4 1_555 1_555
C3_4 C7_4 1_555 1_555
C5_4 H1_4 1_555 1_555
C7_4 C5_4 1_555 1_555
C9_4 C12_4 1_555 1_555
C10_4 C8_4 1_555 1_555
C12_4 O7_4 1_555 1_555
H4_4 C12_4 1_555 1_555
H5_4 C12_4 1_555 1_555
C13_4 C9_4 1_555 1_555
H6_4 C13_4 1_555 1_555
C14_4 C7_4 1_555 1_555
H7_4 C14_4 1_555 1_555
C16_4 C9_4 1_555 1_555
H9_4 C16_4 1_555 1_555
Tb5 O1_4 1_555 1_555
C10_4 C14_4 1_555 1_555
Tb4 O11_4 1_555 1_555
Tb2 O2_4 1_555 1_555
O2_4 C1_4 1_555 1_555
O3_4 C1_4 1_555 1_555
O8_4 Tb2 1_555 1_555
C1_4 C4_4 1_555 1_555
O9_4 Tb2 1_555 1_555
N1_4 C17_4 1_555 1_555
N2_4 C18_4 1_555 1_555
C17_4 O8_4 1_555 1_555
H10_4 C17_4 1_555 1_555
C18_4 O9_4 1_555 1_555
H11_4 C18_4 1_555 1_555
C19_4 N2_4 1_555 1_555
H12_4 C19_4 1_555 1_555
H13_2 C19_4 1_555 1_555
H14_4 C19_4 1_555 1_555
C20_4 N1_4 1_555 1_555
H15_4 C20_4 1_555 1_555
H16_4 C20_4 1_555 1_555
H17_4 C20_4 1_555 1_555
C21_4 N1_4 1_555 1_555
H18_4 C21_4 1_555 1_555
H19_4 C21_4 1_555 1_555
H20_4 C21_4 1_555 1_555
C22_2 N2_4 1_555 1_555
H21_2 C22_2 1_555 1_555
H22_2 C22_2 1_555 1_555
H23_2 C22_2 1_555 1_555
O15_4 Tb2 1_555 1_555
O6_4 Tb5_2 1_555 1_555
O5_4 C2_4 1_555 1_555
C2_4 C6_4 1_555 1_555
C6_4 C11_4 1_555 1_555
C11_4 H3_4 1_555 1_555
C15_4 C6_4 1_555 1_555
H8_4 C15_4 1_555 1_555
O10_2 C3_5 1_555 1_555
O11_3 C1_5 1_555 1_555
O12_3 C1_5 1_555 1_555
O4_3 C3_5 1_555 1_555
O14 C2_5 1_555 1_555
O15 C2_5 1_555 1_555
O7_5 C10_5 1_555 1_555
O8_5 Tb3 1_555 1_555
C1_5 C4_5 1_555 1_555
C2_5 C6_5 1_555 1_555
C3_5 C7_5 1_555 1_555
O9_5 Tb3 1_555 1_555
C4_5 C5_5 1_555 1_555
C5_5 H1_5 1_555 1_555
C6_5 C11_5 1_555 1_555
C7_5 C5_5 1_555 1_555
C8_5 C4_5 1_555 1_555
H2_5 C8_5 1_555 1_555
C9_5 C12_5 1_555 1_555
C10_5 C8_5 1_555 1_555
C11_5 H3_5 1_555 1_555
C12_5 O7_5 1_555 1_555
H4_5 C12_5 1_555 1_555
H5_5 C12_5 1_555 1_555
C13_5 C9_5 1_555 1_555
H6_5 C13_5 1_555 1_555
C14_5 C7_5 1_555 1_555
H7_5 C14_5 1_555 1_555
C15_5 C6_5 1_555 1_555
H8_5 C15_5 1_555 1_555
C16_5 C9_5 1_555 1_555
H9_5 C16_5 1_555 1_555
N1_5 C17_5 1_555 1_555
N2_5 C18_5 1_555 1_555
C17_5 O8_5 1_555 1_555
H10_5 C17_5 1_555 1_555
C18_5 O9_5 1_555 1_555
H11_5 C18_5 1_555 1_555
C19_5 N2_5 1_555 1_555
H12_5 C19_5 1_555 1_555
H14_5 C19_5 1_555 1_555
C20_5 N1_5 1_555 1_555
H15_5 C20_5 1_555 1_555
H16_5 C20_5 1_555 1_555
H17_5 C20_5 1_555 1_555
C21_5 N1_5 1_555 1_555
H18_5 C21_5 1_555 1_555
H19_5 C21_5 1_555 1_555
H20_5 C21_5 1_555 1_555
Tb5_2 O4_3 1_555 1_555
O13_3 Tb3 1_555 1_555
C10_5 C14_5 1_555 1_555
C11_5 C13_5 1_555 1_555
C15_5 C16_5 1_555 1_555
O10 C3_6 1_555 1_555
O11_4 C1_6 1_555 1_555
O12_4 C1_6 1_555 1_555
O4_4 C3_6 1_555 1_555
O14_2 C2_6 1_555 1_555
O7_6 C10_6 1_555 1_555
O8_6 Tb4 1_555 1_555
C1_6 C4_6 1_555 1_555
C2_6 C6_6 1_555 1_555
C3_6 C7_6 1_555 1_555
O9_6 Tb4 1_555 1_555
C4_6 C5_6 1_555 1_555
C5_6 H1_6 1_555 1_555
C6_6 C11_6 1_555 1_555
C7_6 C5_6 1_555 1_555
C8_6 C4_6 1_555 1_555
H2_6 C8_6 1_555 1_555
C9_6 C12_6 1_555 1_555
C10_6 C8_6 1_555 1_555
C11_6 H3_6 1_555 1_555
C12_6 O7_6 1_555 1_555
H4_6 C12_6 1_555 1_555
H5_6 C12_6 1_555 1_555
C13_6 C9_6 1_555 1_555
H6_6 C13_6 1_555 1_555
C14_6 C7_6 1_555 1_555
H7_6 C14_6 1_555 1_555
C15_6 C6_6 1_555 1_555
H8_6 C15_6 1_555 1_555
C16_6 C9_6 1_555 1_555
H9_6 C16_6 1_555 1_555
N1_6 C17_6 1_555 1_555
N2_6 C18_6 1_555 1_555
C17_6 O8_6 1_555 1_555
H10_6 C17_6 1_555 1_555
C18_6 O9_6 1_555 1_555
H11_6 C18_6 1_555 1_555
C19_6 N2_6 1_555 1_555
H12_6 C19_6 1_555 1_555
H14_6 C19_6 1_555 1_555
C20_6 N1_6 1_555 1_555
H15_6 C20_6 1_555 1_555
H16_6 C20_6 1_555 1_555
H17_6 C20_6 1_555 1_555
C21_6 N1_6 1_555 1_555
H18_6 C21_6 1_555 1_555
H19_6 C21_6 1_555 1_555
H20_6 C21_6 1_555 1_555
Tb5 O4_4 1_555 1_555
O13_4 Tb4 1_555 1_555
C10_6 C14_6 1_555 1_555
C11_6 C13_6 1_555 1_555
C15_6 C16_6 1_555 1_555
O11 C1_7 1_555 1_555
O12 C1_7 1_555 1_555
O8_7 Tb5 1_555 1_555
C1_7 C4_7 1_555 1_555
O9_7 Tb5 1_555 1_555
N1_7 C17_7 1_555 1_555
N2_7 C18_7 1_555 1_555
C17_7 O8_7 1_555 1_555
H10_7 C17_7 1_555 1_555
C18_7 O9_7 1_555 1_555
H11_7 C18_7 1_555 1_555
C19_7 N2_7 1_555 1_555
H12_7 C19_7 1_555 1_555
H13_3 C19_7 1_555 1_555
H14_7 C19_7 1_555 1_555
C20_7 N1_7 1_555 1_555
H15_7 C20_7 1_555 1_555
H16_7 C20_7 1_555 1_555
H17_7 C20_7 1_555 1_555
C21_7 N1_7 1_555 1_555
H18_7 C21_7 1_555 1_555
H19_7 C21_7 1_555 1_555
H20_7 C21_7 1_555 1_555
C22_3 N2_7 1_555 1_555
H21_3 C22_3 1_555 1_555
H22_3 C22_3 1_555 1_555
H23_3 C22_3 1_555 1_555
O10_4 C3_7 1_555 1_555
O13_4 C3_7 1_555 1_555
O7_7 C10_7 1_555 1_555
C3_7 C7_7 1_555 1_555
C5_7 H1_7 1_555 1_555
C7_7 C5_7 1_555 1_555
C9_7 C12_7 1_555 1_555
C10_7 C8_7 1_555 1_555
C12_7 O7_7 1_555 1_555
H4_7 C12_7 1_555 1_555
H5_7 C12_7 1_555 1_555
C13_7 C9_7 1_555 1_555
H6_7 C13_7 1_555 1_555
C14_7 C7_7 1_555 1_555
H7_7 C14_7 1_555 1_555
C16_7 C9_7 1_555 1_555
H9_7 C16_7 1_555 1_555
C10_7 C14_7 1_555 1_555
O14_3 C2_7 1_555 1_555
O15_3 C2_7 1_555 1_555
C2_7 C6_7 1_555 1_555
C6_7 C11_7 1_555 1_555
C11_7 H3_7 1_555 1_555
C15_7 C6_7 1_555 1_555
H8_7 C15_7 1_555 1_555
O14_4 C2_8 1_555 1_555
C2_8 C6_8 1_555 1_555
C6_8 C11_8 1_555 1_555
C11_8 H3_8 1_555 1_555
C15_8 C6_8 1_555 1_555
H8_8 C15_8 1_555 1_555
O11_2 C1_8 1_555 1_555
O12_2 C1_8 1_555 1_555
O8_8 Tb5_2 1_555 1_555
C1_8 C4_8 1_555 1_555
O9_8 Tb5_2 1_555 1_555
N1_8 C17_8 1_555 1_555
N2_8 C18_8 1_555 1_555
C17_8 O8_8 1_555 1_555
H10_8 C17_8 1_555 1_555
C18_8 O9_8 1_555 1_555
H11_8 C18_8 1_555 1_555
C19_8 N2_8 1_555 1_555
H12_8 C19_8 1_555 1_555
H13_4 C19_8 1_555 1_555
H14_8 C19_8 1_555 1_555
C20_8 N1_8 1_555 1_555
H15_8 C20_8 1_555 1_555
H16_8 C20_8 1_555 1_555
H17_8 C20_8 1_555 1_555
C21_8 N1_8 1_555 1_555
H18_8 C21_8 1_555 1_555
H19_8 C21_8 1_555 1_555
H20_8 C21_8 1_555 1_555
C22_4 N2_8 1_555 1_555
H21_4 C22_4 1_555 1_555
H22_4 C22_4 1_555 1_555
H23_4 C22_4 1_555 1_555
O10_3 C3_8 1_555 1_555
O13_3 C3_8 1_555 1_555
O7_8 C10_8 1_555 1_555
C3_8 C7_8 1_555 1_555
C5_8 H1_8 1_555 1_555
C7_8 C5_8 1_555 1_555
C9_8 C12_8 1_555 1_555
C10_8 C8_8 1_555 1_555
C12_8 O7_8 1_555 1_555
H4_8 C12_8 1_555 1_555
H5_8 C12_8 1_555 1_555
C13_8 C9_8 1_555 1_555
H6_8 C13_8 1_555 1_555
C14_8 C7_8 1_555 1_555
H7_8 C14_8 1_555 1_555
C16_8 C9_8 1_555 1_555
H9_8 C16_8 1_555 1_555
C10_8 C14_8 1_555 1_555
H21_5 C22_5 1_555 1_555
H22_5 C22_5 1_555 1_555
H23_5 C22_5 1_555 1_555
H21_6 C22_6 1_555 1_555
H22_6 C22_6 1_555 1_555
H23_6 C22_6 1_555 1_555
H21_7 C22_7 1_555 1_555
H22_7 C22_7 1_555 1_555
H23_7 C22_7 1_555 1_555
H21_8 C22_8 1_555 1_555
H22_8 C22_8 1_555 1_555
H23_8 C22_8 1_555 1_555

#END
