
###############################################################################
#
# This file contains modified crystal structure data generated from the
# MOF subset of the Cambridge Structural Database (CSD) v543 
# hosted by the Cambridge Crystallographic Data Centre (CCDC).
#
# This work is licensed under the Creative Commons
# Attribution-NonCommercial-ShareAlike 4.0 International License.
# To view a copy of this license, visit
# http://creativecommons.org/licenses/by-nc-sa/4.0/
# or send a letter to
# Creative Commons, PO Box 1866, Mountain View, CA 94042, USA.
#
# CIF created using the CSD Python API on 29 September 2022
# The structure has been converted into the P1 space group
# The structure has a 3D framework
# The original CSD entry DAXGAO is in the monoclinic crystal system
# The framework has been calculated to contain at least 10.0% void space
# The void calculation uses a probe of radius 1.32A, grid spacing 0.4
#
###############################################################################

data_DAXGAO
_chemical_formula_moiety         '(C176 H184 Gd8 N16 O64)n'
_symmetry_cell_setting           triclinic
_symmetry_space_group_name_H-M   'P 1'
_symmetry_Int_Tables_number      1
_space_group_name_Hall           'P 1'
loop_
_symmetry_equiv_pos_site_id
_symmetry_equiv_pos_as_xyz
1 x,y,z
_cell_length_a                   28.5100(10)
_cell_length_b                   14.0477(5)
_cell_length_c                   13.6898(5)
_cell_angle_alpha                90
_cell_angle_beta                 100.6870(10)
_cell_angle_gamma                90
_cell_volume                     5387.66
loop_
_atom_site_label
_atom_site_type_symbol
_atom_site_fract_x
_atom_site_fract_y
_atom_site_fract_z
H16 H 0.611382 0.017570 0.045567
C22 C 0.6171(6) 0.0827(10) 0.2347(11)
H21 H 0.586152 0.097705 0.252436
H22 H 0.624295 0.129623 0.186545
H23 H 0.642009 0.084663 0.294494
Gd1 Gd 0.68235(2) 0.78766(2) 0.45613(2)
O1 O 0.69938(11) 0.2605(2) 0.1255(2)
O2 O 0.73124(12) 0.6518(2) 0.4604(3)
O3 O 0.79464(12) 0.5674(3) 0.4494(3)
O4 O 0.77129(12) 0.3289(3) 0.1668(3)
O5 O 0.39371(14) 0.1812(3) 0.5010(4)
O6 O 0.38109(12) 0.3345(3) 0.5097(3)
O7 O 0.60010(12) 0.4096(3) 0.3544(3)
O8 O 0.64162(18) 0.7165(4) 0.3059(3)
C1 C 0.72836(17) 0.3175(4) 0.1754(4)
O9 O 0.64439(16) 0.9212(4) 0.3529(4)
C2 C 0.40611(18) 0.2666(4) 0.4917(4)
C3 C 0.75081(18) 0.5782(3) 0.4301(4)
C4 C 0.71992(17) 0.5039(3) 0.3720(4)
C5 C 0.73863(17) 0.4452(3) 0.3065(4)
H1 H 0.770951 0.452234 0.299276
C6 C 0.45188(17) 0.2835(4) 0.4551(4)
C7 C 0.71027(16) 0.3767(3) 0.2521(4)
C8 C 0.66374(17) 0.3638(4) 0.2667(4)
H2 H 0.644322 0.315993 0.230307
C9 C 0.67302(18) 0.4922(4) 0.3840(4)
H3 H 0.659777 0.533618 0.426565
C10 C 0.4784(2) 0.2080(4) 0.4325(6)
H4 H 0.468533 0.144967 0.443649
C11 C 0.64552(17) 0.4198(4) 0.3336(4)
C12 C 0.53445(16) 0.3117(4) 0.3758(4)
C13 C 0.57746(17) 0.3217(4) 0.3281(4)
H5 H 0.600038 0.269025 0.350014
H6 H 0.567667 0.317822 0.254910
C14 C 0.5195(2) 0.2220(4) 0.3935(5)
H7 H 0.537450 0.168603 0.378913
C15 C 0.46841(18) 0.3744(4) 0.4429(4)
H8 H 0.451649 0.427843 0.461594
C16 C 0.50947(18) 0.3879(4) 0.4035(4)
H9 H 0.520487 0.450706 0.395566
N1 N 0.6205(3) 0.6180(5) 0.1747(5)
N2 N 0.6152(3) 0.9845(5) 0.1893(6)
C17 C 0.6509(3) 0.6759(7) 0.2362(6)
H10 H 0.681960 0.684479 0.222026
C18 C 0.6316(3) 0.9147(7) 0.2543(8)
H11 H 0.634447 0.853490 0.226498
C19 C 0.6369(4) 0.5684(8) 0.0960(7)
H12 H 0.618753 0.589774 0.031846
H13 H 0.632325 0.499841 0.103252
H14 H 0.670887 0.581801 0.099052
C20 C 0.5984(4) 0.9683(8) 0.0838(7)
H15 H 0.609076 0.905572 0.065542
H17 H 0.563470 0.970992 0.069107
C21 C 0.5729(4) 0.6016(9) 0.1912(7)
H18 H 0.569082 0.630894 0.254291
H19 H 0.567092 0.532967 0.193928
H20 H 0.549877 0.629807 0.136784
Gd2 Gd 0.81765(2) 0.28766(2) 0.04387(2)
Gd3 Gd 0.31765(2) 0.21234(2) 0.54387(2)
Gd5 Gd 0.81765(2) 0.71234(2) 0.54387(2)
O10 O 0.69938(11) 0.7395(2) 0.6255(2)
O11 O 0.76876(12) 0.8482(2) 0.5396(3)
O12 O 0.70536(12) 0.9326(3) 0.5506(3)
O13 O 0.72871(12) 0.8289(3) 0.3332(3)
O14 O 0.60629(14) 0.8188(3) 0.4990(4)
O15 O 0.61891(12) 0.6655(3) 0.4903(3)
Gd4 Gd 0.68235(2) 0.21234(2) 0.95613(2)
Gd1_2 Gd 0.31765(2) 0.78766(2) 0.04387(2)
O1_2 O 0.30062(11) 0.2605(2) 0.3745(2)
O2_2 O 0.26876(12) 0.6518(2) 0.0396(3)
O3_2 O 0.20536(12) 0.5674(3) 0.0506(3)
O4_2 O 0.22871(12) 0.3289(3) 0.3332(3)
O7_2 O 0.39990(12) 0.4096(3) 0.1456(3)
O8_2 O 0.35838(18) 0.7165(4) 0.1941(3)
C1_2 C 0.27164(17) 0.3175(4) 0.3246(4)
O9_2 O 0.35561(16) 0.9212(4) 0.1471(4)
C2_2 C 0.59389(18) 0.2666(4) 0.0083(4)
C3_2 C 0.24919(18) 0.5782(3) 0.0699(4)
C4_2 C 0.28008(17) 0.5039(3) 0.1280(4)
C5_2 C 0.26137(17) 0.4452(3) 0.1935(4)
H1_2 H 0.229049 0.452234 0.200724
C6_2 C 0.54812(17) 0.2835(4) 0.0449(4)
C7_2 C 0.28973(16) 0.3767(3) 0.2479(4)
C8_2 C 0.33626(17) 0.3638(4) 0.2333(4)
H2_2 H 0.355678 0.315993 0.269693
C9_2 C 0.32698(18) 0.4922(4) 0.1160(4)
H3_2 H 0.340223 0.533618 0.073435
C10_2 C 0.5216(2) 0.2080(4) 0.0675(6)
H4_2 H 0.531467 0.144967 0.056351
C11_2 C 0.35448(17) 0.4198(4) 0.1664(4)
C12_2 C 0.46555(16) 0.3117(4) 0.1242(4)
C13_2 C 0.42254(17) 0.3217(4) 0.1719(4)
H5_2 H 0.399962 0.269025 0.149986
H6_2 H 0.432333 0.317822 0.245090
C14_2 C 0.4805(2) 0.2220(4) 0.1065(5)
H7_2 H 0.462550 0.168603 0.121087
C15_2 C 0.53159(18) 0.3744(4) 0.0571(4)
H8_2 H 0.548351 0.427843 0.038406
C16_2 C 0.49053(18) 0.3879(4) 0.0965(4)
H9_2 H 0.479513 0.450706 0.104434
N1_2 N 0.3795(3) 0.6180(5) 0.3253(5)
N2_2 N 0.3848(3) 0.9845(5) 0.3107(6)
C17_2 C 0.3491(3) 0.6759(7) 0.2638(6)
H10_2 H 0.318040 0.684479 0.277974
C18_2 C 0.3684(3) 0.9147(7) 0.2457(8)
H11_2 H 0.365553 0.853490 0.273502
C19_2 C 0.3631(4) 0.5684(8) 0.4040(7)
H12_2 H 0.381247 0.589774 0.468154
H13_2 H 0.367675 0.499841 0.396748
H14_2 H 0.329113 0.581801 0.400948
C20_2 C 0.4016(4) 0.9683(8) 0.4162(7)
H15_2 H 0.390924 0.905572 0.434458
H17_2 H 0.436530 0.970992 0.430893
C21_2 C 0.4271(4) 0.6016(9) 0.3088(7)
H18_2 H 0.430918 0.630894 0.245709
H19_2 H 0.432908 0.532967 0.306072
H20_2 H 0.450123 0.629807 0.363216
Gd2_2 Gd 0.18235(2) 0.28766(2) 0.45613(2)
O13_2 O 0.27129(12) 0.8289(3) 0.1668(3)
O14_2 O 0.39371(14) 0.8188(3) 0.0010(4)
O15_2 O 0.38109(12) 0.6655(3) 0.0097(3)
O5_2 O 0.60629(14) 0.1812(3) 0.9990(4)
O6_2 O 0.61891(12) 0.3345(3) 0.9903(3)
Gd5_2 Gd 0.18235(2) 0.71234(2) 0.95613(2)
O10_2 O 0.30062(11) 0.7395(2) 0.8745(2)
O11_2 O 0.23124(12) 0.8482(2) 0.9604(3)
O12_2 O 0.29464(12) 0.9326(3) 0.9494(3)
O2_3 O 0.23124(12) 0.1518(2) 0.4604(3)
O3_3 O 0.29464(12) 0.0674(3) 0.4494(3)
O8_3 O 0.14162(18) 0.2165(4) 0.3059(3)
O9_3 O 0.14439(16) 0.4212(4) 0.3529(4)
C3_3 C 0.25081(18) 0.0782(3) 0.4301(4)
C4_3 C 0.21992(17) 0.0039(3) 0.3720(4)
H3_3 H 0.159777 0.033618 0.426565
N1_3 N 0.1205(3) 0.1180(5) 0.1747(5)
N2_3 N 0.1152(3) 0.4845(5) 0.1893(6)
C17_3 C 0.1509(3) 0.1759(7) 0.2362(6)
H10_3 H 0.181960 0.184479 0.222026
C18_3 C 0.1316(3) 0.4147(7) 0.2543(8)
H11_3 H 0.134447 0.353490 0.226498
C19_3 C 0.1369(4) 0.0684(8) 0.0960(7)
H12_3 H 0.118753 0.089774 0.031846
H14_3 H 0.170887 0.081801 0.099052
C20_3 C 0.0984(4) 0.4683(8) 0.0838(7)
H15_3 H 0.109076 0.405572 0.065542
H16_2 H 0.111382 0.517570 0.045567
H17_3 H 0.063470 0.470992 0.069107
C21_3 C 0.0729(4) 0.1016(9) 0.1912(7)
H18_3 H 0.069082 0.130894 0.254291
H19_3 H 0.067092 0.032967 0.193928
H20_3 H 0.049877 0.129807 0.136784
C22_2 C 0.1171(6) 0.5827(10) 0.2347(11)
H21_2 H 0.086152 0.597705 0.252436
H22_2 H 0.124295 0.629623 0.186545
H23_2 H 0.142009 0.584663 0.294494
O10_3 O 0.19938(11) 0.2395(2) 0.6255(2)
O11_3 O 0.26876(12) 0.3482(2) 0.5396(3)
O12_3 O 0.20536(12) 0.4326(3) 0.5506(3)
O14_3 O 0.10629(14) 0.3188(3) 0.4990(4)
O15_3 O 0.11891(12) 0.1655(3) 0.4903(3)
O1_3 O 0.19938(11) 0.7605(2) 0.1255(2)
O7_3 O 0.10010(12) 0.9096(3) 0.3544(3)
C1_3 C 0.22836(17) 0.8175(4) 0.1754(4)
C5_3 C 0.23863(17) 0.9452(3) 0.3065(4)
H1_3 H 0.270951 0.952234 0.299276
C7_3 C 0.21027(16) 0.8767(3) 0.2521(4)
C8_3 C 0.16374(17) 0.8638(4) 0.2667(4)
H2_3 H 0.144322 0.815993 0.230307
C9_3 C 0.17302(18) 0.9922(4) 0.3840(4)
C11_3 C 0.14552(17) 0.9198(4) 0.3336(4)
C12_3 C 0.03445(16) 0.8117(4) 0.3758(4)
C13_3 C 0.07746(17) 0.8217(4) 0.3281(4)
H5_3 H 0.100038 0.769025 0.350014
H6_3 H 0.067667 0.817822 0.254910
C14_3 C 0.0195(2) 0.7220(4) 0.3935(5)
H7_3 H 0.037450 0.668603 0.378913
C16_3 C 0.00947(18) 0.8879(4) 0.4035(4)
H9_3 H 0.020487 0.950706 0.395566
H13_3 H 0.132325 0.999841 0.103252
O5_3 O 0.89371(14) 0.6812(3) 0.5010(4)
O6_3 O 0.88109(12) 0.8345(3) 0.5097(3)
C2_3 C 0.90611(18) 0.7666(4) 0.4917(4)
C6_3 C 0.95188(17) 0.7835(4) 0.4551(4)
C10_3 C 0.9784(2) 0.7080(4) 0.4325(6)
H4_3 H 0.968533 0.644967 0.443649
C15_3 C 0.96841(18) 0.8744(4) 0.4429(4)
H8_3 H 0.951649 0.927843 0.461594
O5_4 O 0.10629(14) 0.6812(3) 0.9990(4)
O6_4 O 0.11891(12) 0.8345(3) 0.9903(3)
O2_4 O 0.76876(12) 0.1518(2) 0.0396(3)
O3_4 O 0.70536(12) 0.0674(3) 0.0506(3)
O8_4 O 0.85838(18) 0.2165(4) 0.1941(3)
O9_4 O 0.85561(16) 0.4212(4) 0.1471(4)
C3_4 C 0.74919(18) 0.0782(3) 0.0699(4)
C4_4 C 0.78008(17) 0.0039(3) 0.1280(4)
H3_4 H 0.840223 0.033618 0.073435
N1_4 N 0.8795(3) 0.1180(5) 0.3253(5)
N2_4 N 0.8848(3) 0.4845(5) 0.3107(6)
C17_4 C 0.8491(3) 0.1759(7) 0.2638(6)
H10_4 H 0.818040 0.184479 0.277974
C18_4 C 0.8684(3) 0.4147(7) 0.2457(8)
H11_4 H 0.865553 0.353490 0.273502
C19_4 C 0.8631(4) 0.0684(8) 0.4040(7)
H12_4 H 0.881247 0.089774 0.468154
H14_4 H 0.829113 0.081801 0.400948
C20_4 C 0.9016(4) 0.4683(8) 0.4162(7)
H15_4 H 0.890924 0.405572 0.434458
H16_3 H 0.888618 0.517570 0.454433
H17_4 H 0.936530 0.470992 0.430893
C21_4 C 0.9271(4) 0.1016(9) 0.3088(7)
H18_4 H 0.930918 0.130894 0.245709
H19_4 H 0.932908 0.032967 0.306072
H20_4 H 0.950123 0.129807 0.363216
C22_3 C 0.8829(6) 0.5827(10) 0.2653(11)
H21_3 H 0.913848 0.597705 0.247564
H22_3 H 0.875705 0.629623 0.313455
H23_3 H 0.857991 0.584663 0.205506
O14_4 O 0.89371(14) 0.3188(3) 0.0010(4)
O15_4 O 0.88109(12) 0.1655(3) 0.0097(3)
O10_4 O 0.80062(11) 0.2395(2) 0.8745(2)
O11_4 O 0.73124(12) 0.3482(2) 0.9604(3)
O12_4 O 0.79464(12) 0.4326(3) 0.9494(3)
O1_4 O 0.80062(11) 0.7605(2) 0.3745(2)
O7_4 O 0.89990(12) 0.9096(3) 0.1456(3)
C1_4 C 0.77164(17) 0.8175(4) 0.3246(4)
C5_4 C 0.76137(17) 0.9452(3) 0.1935(4)
H1_4 H 0.729049 0.952234 0.200724
C7_4 C 0.78973(16) 0.8767(3) 0.2479(4)
C8_4 C 0.83626(17) 0.8638(4) 0.2333(4)
H2_4 H 0.855678 0.815993 0.269693
C9_4 C 0.82698(18) 0.9922(4) 0.1160(4)
C11_4 C 0.85448(17) 0.9198(4) 0.1664(4)
C12_4 C 0.96555(16) 0.8117(4) 0.1242(4)
C13_4 C 0.92254(17) 0.8217(4) 0.1719(4)
H5_4 H 0.899962 0.769025 0.149986
H6_4 H 0.932333 0.817822 0.245090
C14_4 C 0.9805(2) 0.7220(4) 0.1065(5)
H7_4 H 0.962550 0.668603 0.121087
C16_4 C 0.99053(18) 0.8879(4) 0.0965(4)
H9_4 H 0.979513 0.950706 0.104434
H13_4 H 0.867675 0.999841 0.396748
O4_3 O 0.22871(12) 0.6711(3) 0.8332(3)
O7_5 O 0.39990(12) 0.5904(3) 0.6456(3)
O8_5 O 0.35838(18) 0.2835(4) 0.6941(3)
C1_5 C 0.27164(17) 0.6825(4) 0.8246(4)
O9_5 O 0.35561(16) 0.0788(4) 0.6471(4)
C2_4 C 0.59389(18) 0.7334(4) 0.5083(4)
C3_5 C 0.24919(18) 0.4218(3) 0.5699(4)
C4_5 C 0.28008(17) 0.4961(3) 0.6280(4)
C5_5 C 0.26137(17) 0.5548(3) 0.6935(4)
H1_5 H 0.229049 0.547766 0.700724
C6_4 C 0.54812(17) 0.7165(4) 0.5449(4)
C7_5 C 0.28973(16) 0.6233(3) 0.7479(4)
C8_5 C 0.33626(17) 0.6362(4) 0.7333(4)
H2_5 H 0.355678 0.684007 0.769693
C9_5 C 0.32698(18) 0.5078(4) 0.6160(4)
H3_5 H 0.340223 0.466382 0.573435
C10_4 C 0.5216(2) 0.7920(4) 0.5675(6)
H4_4 H 0.531467 0.855033 0.556351
C11_5 C 0.35448(17) 0.5802(4) 0.6664(4)
C12_5 C 0.46555(16) 0.6883(4) 0.6242(4)
C13_5 C 0.42254(17) 0.6783(4) 0.6719(4)
H5_5 H 0.399962 0.730975 0.649986
H6_5 H 0.432333 0.682178 0.745090
C14_5 C 0.4805(2) 0.7780(4) 0.6065(5)
H7_5 H 0.462550 0.831397 0.621087
C15_4 C 0.53159(18) 0.6256(4) 0.5571(4)
H8_4 H 0.548351 0.572157 0.538406
C16_5 C 0.49053(18) 0.6121(4) 0.5965(4)
H9_5 H 0.479513 0.549294 0.604434
N1_5 N 0.3795(3) 0.3820(5) 0.8253(5)
N2_5 N 0.3848(3) 0.0155(5) 0.8107(6)
C17_5 C 0.3491(3) 0.3241(7) 0.7638(6)
H10_5 H 0.318040 0.315521 0.777974
C18_5 C 0.3684(3) 0.0853(7) 0.7457(8)
H11_5 H 0.365553 0.146510 0.773502
C19_5 C 0.3631(4) 0.4316(8) 0.9040(7)
H12_5 H 0.381247 0.410226 0.968154
H13_5 H 0.367675 0.500159 0.896748
H14_5 H 0.329113 0.418199 0.900948
C20_5 C 0.4016(4) 0.0317(8) 0.9162(7)
H15_5 H 0.390924 0.094428 0.934458
H17_5 H 0.436530 0.029008 0.930893
C21_5 C 0.4271(4) 0.3984(9) 0.8088(7)
H18_5 H 0.430918 0.369106 0.745709
H19_5 H 0.432908 0.467033 0.806072
H20_5 H 0.450123 0.370193 0.863216
O13_3 O 0.27129(12) 0.1711(3) 0.6668(3)
O4_4 O 0.77129(12) 0.6711(3) 0.6668(3)
O7_6 O 0.60010(12) 0.5904(3) 0.8544(3)
O8_6 O 0.64162(18) 0.2835(4) 0.8059(3)
C1_6 C 0.72836(17) 0.6825(4) 0.6754(4)
O9_6 O 0.64439(16) 0.0788(4) 0.8529(4)
C2_5 C 0.40611(18) 0.7334(4) 0.9917(4)
C3_6 C 0.75081(18) 0.4218(3) 0.9301(4)
C4_6 C 0.71992(17) 0.4961(3) 0.8720(4)
C5_6 C 0.73863(17) 0.5548(3) 0.8065(4)
H1_6 H 0.770951 0.547766 0.799276
C6_5 C 0.45188(17) 0.7165(4) 0.9551(4)
C7_6 C 0.71027(16) 0.6233(3) 0.7521(4)
C8_6 C 0.66374(17) 0.6362(4) 0.7667(4)
H2_6 H 0.644322 0.684007 0.730307
C9_6 C 0.67302(18) 0.5078(4) 0.8840(4)
H3_6 H 0.659777 0.466382 0.926565
C10_5 C 0.4784(2) 0.7920(4) 0.9325(6)
H4_5 H 0.468533 0.855033 0.943649
C11_6 C 0.64552(17) 0.5802(4) 0.8336(4)
C12_6 C 0.53445(16) 0.6883(4) 0.8758(4)
C13_6 C 0.57746(17) 0.6783(4) 0.8281(4)
H5_6 H 0.600038 0.730975 0.850014
H6_6 H 0.567667 0.682178 0.754910
C14_6 C 0.5195(2) 0.7780(4) 0.8935(5)
H7_6 H 0.537450 0.831397 0.878913
C15_5 C 0.46841(18) 0.6256(4) 0.9429(4)
H8_5 H 0.451649 0.572157 0.961594
C16_6 C 0.50947(18) 0.6121(4) 0.9035(4)
H9_6 H 0.520487 0.549294 0.895566
N1_6 N 0.6205(3) 0.3820(5) 0.6747(5)
N2_6 N 0.6152(3) 0.0155(5) 0.6893(6)
C17_6 C 0.6509(3) 0.3241(7) 0.7362(6)
H10_6 H 0.681960 0.315521 0.722026
C18_6 C 0.6316(3) 0.0853(7) 0.7543(8)
H11_6 H 0.634447 0.146510 0.726498
C19_6 C 0.6369(4) 0.4316(8) 0.5960(7)
H12_6 H 0.618753 0.410226 0.531846
H13_6 H 0.632325 0.500159 0.603252
H14_6 H 0.670887 0.418199 0.599052
C20_6 C 0.5984(4) 0.0317(8) 0.5838(7)
H15_6 H 0.609076 0.094428 0.565542
H17_6 H 0.563470 0.029008 0.569107
C21_6 C 0.5729(4) 0.3984(9) 0.6912(7)
H18_6 H 0.569082 0.369106 0.754291
H19_6 H 0.567092 0.467033 0.693928
H20_6 H 0.549877 0.370193 0.636784
O13_4 O 0.72871(12) 0.1711(3) 0.8332(3)
C2_6 C 0.09389(18) 0.2334(4) 0.5083(4)
C6_6 C 0.04812(17) 0.2165(4) 0.5449(4)
C10_6 C 0.0216(2) 0.2920(4) 0.5675(6)
H4_6 H 0.031467 0.355033 0.556351
C15_6 C 0.03159(18) 0.1256(4) 0.5571(4)
H8_6 H 0.048351 0.072157 0.538406
O7_7 O 0.89990(12) 0.0904(3) 0.6456(3)
C1_7 C 0.77164(17) 0.1825(4) 0.8246(4)
C5_7 C 0.76137(17) 0.0548(3) 0.6935(4)
H1_7 H 0.729049 0.047766 0.700724
C7_7 C 0.78973(16) 0.1233(3) 0.7479(4)
C8_7 C 0.83626(17) 0.1362(4) 0.7333(4)
H2_7 H 0.855678 0.184007 0.769693
C9_7 C 0.82698(18) 0.0078(4) 0.6160(4)
C11_7 C 0.85448(17) 0.0802(4) 0.6664(4)
C12_7 C 0.96555(16) 0.1883(4) 0.6242(4)
C13_7 C 0.92254(17) 0.1783(4) 0.6719(4)
H5_7 H 0.899962 0.230975 0.649986
H6_7 H 0.932333 0.182178 0.745090
C14_7 C 0.9805(2) 0.2780(4) 0.6065(5)
H7_7 H 0.962550 0.331397 0.621087
C16_7 C 0.99053(18) 0.1121(4) 0.5965(4)
H9_7 H 0.979513 0.049294 0.604434
H13_7 H 0.867675 0.000159 0.896748
O8_7 O 0.85838(18) 0.7835(4) 0.6941(3)
O9_7 O 0.85561(16) 0.5788(4) 0.6471(4)
C3_7 C 0.74919(18) 0.9218(3) 0.5699(4)
C4_7 C 0.78008(17) 0.9961(3) 0.6280(4)
H3_7 H 0.840223 0.966382 0.573435
N1_7 N 0.8795(3) 0.8820(5) 0.8253(5)
N2_7 N 0.8848(3) 0.5155(5) 0.8107(6)
C17_7 C 0.8491(3) 0.8241(7) 0.7638(6)
H10_7 H 0.818040 0.815521 0.777974
C18_7 C 0.8684(3) 0.5853(7) 0.7457(8)
H11_7 H 0.865553 0.646510 0.773502
C19_7 C 0.8631(4) 0.9316(8) 0.9040(7)
H12_7 H 0.881247 0.910226 0.968154
H14_7 H 0.829113 0.918199 0.900948
C20_7 C 0.9016(4) 0.5317(8) 0.9162(7)
H15_7 H 0.890924 0.594428 0.934458
H16_4 H 0.888618 0.482430 0.954433
H17_7 H 0.936530 0.529008 0.930893
C21_7 C 0.9271(4) 0.8984(9) 0.8088(7)
H18_7 H 0.930918 0.869106 0.745709
H19_7 H 0.932908 0.967033 0.806072
H20_7 H 0.950123 0.870193 0.863216
C22_4 C 0.8829(6) 0.4173(10) 0.7653(11)
H21_4 H 0.913848 0.402295 0.747564
H22_4 H 0.875705 0.370377 0.813455
H23_4 H 0.857991 0.415337 0.705506
O7_8 O 0.10010(12) 0.0904(3) 0.8544(3)
C1_8 C 0.22836(17) 0.1825(4) 0.6754(4)
C5_8 C 0.23863(17) 0.0548(3) 0.8065(4)
H1_8 H 0.270951 0.047766 0.799276
C7_8 C 0.21027(16) 0.1233(3) 0.7521(4)
C8_8 C 0.16374(17) 0.1362(4) 0.7667(4)
H2_8 H 0.144322 0.184007 0.730307
C9_8 C 0.17302(18) 0.0078(4) 0.8840(4)
C11_8 C 0.14552(17) 0.0802(4) 0.8336(4)
C12_8 C 0.03445(16) 0.1883(4) 0.8758(4)
C13_8 C 0.07746(17) 0.1783(4) 0.8281(4)
H5_8 H 0.100038 0.230975 0.850014
H6_8 H 0.067667 0.182178 0.754910
C14_8 C 0.0195(2) 0.2780(4) 0.8935(5)
H7_8 H 0.037450 0.331397 0.878913
C16_8 C 0.00947(18) 0.1121(4) 0.9035(4)
H9_8 H 0.020487 0.049294 0.895566
H13_8 H 0.132325 0.000159 0.603252
O8_8 O 0.14162(18) 0.7835(4) 0.8059(3)
O9_8 O 0.14439(16) 0.5788(4) 0.8529(4)
C3_8 C 0.25081(18) 0.9218(3) 0.9301(4)
C4_8 C 0.21992(17) 0.9961(3) 0.8720(4)
H3_8 H 0.159777 0.966382 0.926565
N1_8 N 0.1205(3) 0.8820(5) 0.6747(5)
N2_8 N 0.1152(3) 0.5155(5) 0.6893(6)
C17_8 C 0.1509(3) 0.8241(7) 0.7362(6)
H10_8 H 0.181960 0.815521 0.722026
C18_8 C 0.1316(3) 0.5853(7) 0.7543(8)
H11_8 H 0.134447 0.646510 0.726498
C19_8 C 0.1369(4) 0.9316(8) 0.5960(7)
H12_8 H 0.118753 0.910226 0.531846
H14_8 H 0.170887 0.918199 0.599052
C20_8 C 0.0984(4) 0.5317(8) 0.5838(7)
H15_8 H 0.109076 0.594428 0.565542
H16_5 H 0.111382 0.482430 0.545567
H17_8 H 0.063470 0.529008 0.569107
C21_8 C 0.0729(4) 0.8984(9) 0.6912(7)
H18_8 H 0.069082 0.869106 0.754291
H19_8 H 0.067092 0.967033 0.693928
H20_8 H 0.049877 0.870193 0.636784
C22_5 C 0.1171(6) 0.4173(10) 0.7347(11)
H21_5 H 0.086152 0.402295 0.752436
H22_5 H 0.124295 0.370377 0.686545
H23_5 H 0.142009 0.415337 0.794494
H16_6 H 0.388618 0.017570 0.454433
C22_6 C 0.3829(6) 0.0827(10) 0.2653(11)
H21_6 H 0.413848 0.097705 0.247564
H22_6 H 0.375705 0.129623 0.313455
H23_6 H 0.357991 0.084663 0.205506
C2_7 C 0.09389(18) 0.7666(4) 0.0083(4)
C6_7 C 0.04812(17) 0.7835(4) 0.0449(4)
C10_7 C 0.0216(2) 0.7080(4) 0.0675(6)
H4_7 H 0.031467 0.644967 0.056351
C15_7 C 0.03159(18) 0.8744(4) 0.0571(4)
H8_7 H 0.048351 0.927843 0.038406
H16_7 H 0.388618 0.982430 0.954433
C22_7 C 0.3829(6) 0.9173(10) 0.7653(11)
H21_7 H 0.413848 0.902295 0.747564
H22_7 H 0.375705 0.870377 0.813455
H23_7 H 0.357991 0.915337 0.705506
H16_8 H 0.611382 0.982430 0.545567
C22_8 C 0.6171(6) 0.9173(10) 0.7347(11)
H21_8 H 0.586152 0.902295 0.752436
H22_8 H 0.624295 0.870377 0.686545
H23_8 H 0.642009 0.915337 0.794494
C2_8 C 0.90611(18) 0.2334(4) 0.9917(4)
C6_8 C 0.95188(17) 0.2165(4) 0.9551(4)
C10_8 C 0.9784(2) 0.2920(4) 0.9325(6)
H4_8 H 0.968533 0.355033 0.943649
C15_8 C 0.96841(18) 0.1256(4) 0.9429(4)
H8_8 H 0.951649 0.072157 0.961594
loop_
_geom_bond_atom_site_label_1
_geom_bond_atom_site_label_2
_geom_bond_site_symmetry_1
_geom_bond_site_symmetry_2
H21 C22 1_555 1_555
H22 C22 1_555 1_555
H23 C22 1_555 1_555
Gd1 O2 1_555 1_555
O1 C1 1_555 1_555
O2 C3 1_555 1_555
O3 C3 1_555 1_555
O4 C1 1_555 1_555
O5 C2 1_555 1_555
O6 C2 1_555 1_555
O7 C11 1_555 1_555
O8 Gd1 1_555 1_555
C1 C7 1_555 1_555
O9 Gd1 1_555 1_555
C2 C6 1_555 1_555
C3 C4 1_555 1_555
C4 C5 1_555 1_555
C5 H1 1_555 1_555
C6 C10 1_555 1_555
C7 C5 1_555 1_555
C8 C7 1_555 1_555
H2 C8 1_555 1_555
C9 C4 1_555 1_555
H3 C9 1_555 1_555
C10 H4 1_555 1_555
C11 C8 1_555 1_555
C12 C13 1_555 1_555
C13 O7 1_555 1_555
H5 C13 1_555 1_555
H6 C13 1_555 1_555
C14 C10 1_555 1_555
H7 C14 1_555 1_555
C15 C6 1_555 1_555
H8 C15 1_555 1_555
C16 C12 1_555 1_555
H9 C16 1_555 1_555
N1 C17 1_555 1_555
N2 C18 1_555 1_555
C17 O8 1_555 1_555
H10 C17 1_555 1_555
C18 O9 1_555 1_555
H11 C18 1_555 1_555
C19 N1 1_555 1_555
H12 C19 1_555 1_555
H13 C19 1_555 1_555
H14 C19 1_555 1_555
C20 N2 1_555 1_555
H15 C20 1_555 1_555
H17 C20 1_555 1_555
C21 N1 1_555 1_555
H18 C21 1_555 1_555
H19 C21 1_555 1_555
H20 C21 1_555 1_555
Gd2 O4 1_555 1_555
Gd3 O5 1_555 1_555
Gd5 O2 1_555 1_555
O10 Gd1 1_555 1_555
O11 Gd1 1_555 1_555
O12 Gd1 1_555 1_555
O13 Gd1 1_555 1_555
O14 Gd1 1_555 1_555
O15 Gd1 1_555 1_555
O3 Gd5 1_555 1_555
O6 Gd3 1_555 1_555
C9 C11 1_555 1_555
C12 C14 1_555 1_555
C15 C16 1_555 1_555
Gd5 O11 1_555 1_555
Gd1_2 O2_2 1_555 1_555
O1_2 C1_2 1_555 1_555
O2_2 C3_2 1_555 1_555
O3_2 C3_2 1_555 1_555
O4_2 C1_2 1_555 1_555
O7_2 C11_2 1_555 1_555
O8_2 Gd1_2 1_555 1_555
C1_2 C7_2 1_555 1_555
O9_2 Gd1_2 1_555 1_555
C2_2 C6_2 1_555 1_555
C3_2 C4_2 1_555 1_555
C4_2 C5_2 1_555 1_555
C5_2 H1_2 1_555 1_555
C6_2 C10_2 1_555 1_555
C7_2 C5_2 1_555 1_555
C8_2 C7_2 1_555 1_555
H2_2 C8_2 1_555 1_555
C9_2 C4_2 1_555 1_555
H3_2 C9_2 1_555 1_555
C10_2 H4_2 1_555 1_555
C11_2 C8_2 1_555 1_555
C12_2 C13_2 1_555 1_555
C13_2 O7_2 1_555 1_555
H5_2 C13_2 1_555 1_555
H6_2 C13_2 1_555 1_555
C14_2 C10_2 1_555 1_555
H7_2 C14_2 1_555 1_555
C15_2 C6_2 1_555 1_555
H8_2 C15_2 1_555 1_555
C16_2 C12_2 1_555 1_555
H9_2 C16_2 1_555 1_555
N1_2 C17_2 1_555 1_555
N2_2 C18_2 1_555 1_555
C17_2 O8_2 1_555 1_555
H10_2 C17_2 1_555 1_555
C18_2 O9_2 1_555 1_555
H11_2 C18_2 1_555 1_555
C19_2 N1_2 1_555 1_555
H12_2 C19_2 1_555 1_555
H13_2 C19_2 1_555 1_555
H14_2 C19_2 1_555 1_555
C20_2 N2_2 1_555 1_555
H15_2 C20_2 1_555 1_555
H17_2 C20_2 1_555 1_555
C21_2 N1_2 1_555 1_555
H18_2 C21_2 1_555 1_555
H19_2 C21_2 1_555 1_555
H20_2 C21_2 1_555 1_555
Gd2_2 O4_2 1_555 1_555
Gd3 O1_2 1_555 1_555
O13_2 Gd1_2 1_555 1_555
O14_2 Gd1_2 1_555 1_555
O15_2 Gd1_2 1_555 1_555
C9_2 C11_2 1_555 1_555
C12_2 C14_2 1_555 1_555
C15_2 C16_2 1_555 1_555
Gd4 O5_2 1_555 1_555
O6_2 Gd4 1_555 1_555
Gd5_2 O11_2 1_555 1_555
Gd2_2 O2_3 1_555 1_555
O2_3 C3_3 1_555 1_555
O3_3 C3_3 1_555 1_555
O8_3 Gd2_2 1_555 1_555
O9_3 Gd2_2 1_555 1_555
C3_3 C4_3 1_555 1_555
N1_3 C17_3 1_555 1_555
N2_3 C18_3 1_555 1_555
C17_3 O8_3 1_555 1_555
H10_3 C17_3 1_555 1_555
C18_3 O9_3 1_555 1_555
H11_3 C18_3 1_555 1_555
C19_3 N1_3 1_555 1_555
H12_3 C19_3 1_555 1_555
H14_3 C19_3 1_555 1_555
C20_3 N2_3 1_555 1_555
H15_3 C20_3 1_555 1_555
H16_2 C20_3 1_555 1_555
H17_3 C20_3 1_555 1_555
C21_3 N1_3 1_555 1_555
H18_3 C21_3 1_555 1_555
H19_3 C21_3 1_555 1_555
H20_3 C21_3 1_555 1_555
C22_2 N2_3 1_555 1_555
H21_2 C22_2 1_555 1_555
H22_2 C22_2 1_555 1_555
H23_2 C22_2 1_555 1_555
Gd3 O2_3 1_555 1_555
O10_3 Gd2_2 1_555 1_555
O11_3 Gd2_2 1_555 1_555
O12_3 Gd2_2 1_555 1_555
O14_3 Gd2_2 1_555 1_555
O15_3 Gd2_2 1_555 1_555
O3_3 Gd3 1_555 1_555
Gd3 O11_3 1_555 1_555
O1_3 C1_3 1_555 1_555
O13_2 C1_3 1_555 1_555
O7_3 C11_3 1_555 1_555
C1_3 C7_3 1_555 1_555
C5_3 H1_3 1_555 1_555
C7_3 C5_3 1_555 1_555
C8_3 C7_3 1_555 1_555
H2_3 C8_3 1_555 1_555
C11_3 C8_3 1_555 1_555
C12_3 C13_3 1_555 1_555
C13_3 O7_3 1_555 1_555
H5_3 C13_3 1_555 1_555
H6_3 C13_3 1_555 1_555
H7_3 C14_3 1_555 1_555
C16_3 C12_3 1_555 1_555
H9_3 C16_3 1_555 1_555
C9_3 C11_3 1_555 1_555
C12_3 C14_3 1_555 1_555
O5_3 C2_3 1_555 1_555
O6_3 C2_3 1_555 1_555
C2_3 C6_3 1_555 1_555
C6_3 C10_3 1_555 1_555
C10_3 H4_3 1_555 1_555
C15_3 C6_3 1_555 1_555
H8_3 C15_3 1_555 1_555
Gd5 O5_3 1_555 1_555
O6_3 Gd5 1_555 1_555
Gd5_2 O5_4 1_555 1_555
O6_4 Gd5_2 1_555 1_555
Gd2 O2_4 1_555 1_555
O2_4 C3_4 1_555 1_555
O3_4 C3_4 1_555 1_555
O8_4 Gd2 1_555 1_555
O9_4 Gd2 1_555 1_555
C3_4 C4_4 1_555 1_555
N1_4 C17_4 1_555 1_555
N2_4 C18_4 1_555 1_555
C17_4 O8_4 1_555 1_555
H10_4 C17_4 1_555 1_555
C18_4 O9_4 1_555 1_555
H11_4 C18_4 1_555 1_555
C19_4 N1_4 1_555 1_555
H12_4 C19_4 1_555 1_555
H14_4 C19_4 1_555 1_555
C20_4 N2_4 1_555 1_555
H15_4 C20_4 1_555 1_555
H16_3 C20_4 1_555 1_555
H17_4 C20_4 1_555 1_555
C21_4 N1_4 1_555 1_555
H18_4 C21_4 1_555 1_555
H19_4 C21_4 1_555 1_555
H20_4 C21_4 1_555 1_555
C22_3 N2_4 1_555 1_555
H21_3 C22_3 1_555 1_555
H22_3 C22_3 1_555 1_555
H23_3 C22_3 1_555 1_555
O14_4 Gd2 1_555 1_555
O15_4 Gd2 1_555 1_555
Gd4 O11_4 1_555 1_555
O1_4 C1_4 1_555 1_555
O13 C1_4 1_555 1_555
O7_4 C11_4 1_555 1_555
C1_4 C7_4 1_555 1_555
C5_4 H1_4 1_555 1_555
C7_4 C5_4 1_555 1_555
C8_4 C7_4 1_555 1_555
H2_4 C8_4 1_555 1_555
C11_4 C8_4 1_555 1_555
C12_4 C13_4 1_555 1_555
C13_4 O7_4 1_555 1_555
H5_4 C13_4 1_555 1_555
H6_4 C13_4 1_555 1_555
H7_4 C14_4 1_555 1_555
C16_4 C12_4 1_555 1_555
H9_4 C16_4 1_555 1_555
Gd5 O1_4 1_555 1_555
C9_4 C11_4 1_555 1_555
C12_4 C14_4 1_555 1_555
O10_2 C1_5 1_555 1_555
O11_3 C3_5 1_555 1_555
O12_3 C3_5 1_555 1_555
O4_3 C1_5 1_555 1_555
O14 C2_4 1_555 1_555
O15 C2_4 1_555 1_555
O7_5 C11_5 1_555 1_555
O8_5 Gd3 1_555 1_555
C1_5 C7_5 1_555 1_555
O9_5 Gd3 1_555 1_555
C2_4 C6_4 1_555 1_555
C3_5 C4_5 1_555 1_555
C4_5 C5_5 1_555 1_555
C5_5 H1_5 1_555 1_555
C6_4 C10_4 1_555 1_555
C7_5 C5_5 1_555 1_555
C8_5 C7_5 1_555 1_555
H2_5 C8_5 1_555 1_555
C9_5 C4_5 1_555 1_555
H3_5 C9_5 1_555 1_555
C10_4 H4_4 1_555 1_555
C11_5 C8_5 1_555 1_555
C12_5 C13_5 1_555 1_555
C13_5 O7_5 1_555 1_555
H5_5 C13_5 1_555 1_555
H6_5 C13_5 1_555 1_555
C14_5 C10_4 1_555 1_555
H7_5 C14_5 1_555 1_555
C15_4 C6_4 1_555 1_555
H8_4 C15_4 1_555 1_555
C16_5 C12_5 1_555 1_555
H9_5 C16_5 1_555 1_555
N1_5 C17_5 1_555 1_555
N2_5 C18_5 1_555 1_555
C17_5 O8_5 1_555 1_555
H10_5 C17_5 1_555 1_555
C18_5 O9_5 1_555 1_555
H11_5 C18_5 1_555 1_555
C19_5 N1_5 1_555 1_555
H12_5 C19_5 1_555 1_555
H13_5 C19_5 1_555 1_555
H14_5 C19_5 1_555 1_555
C20_5 N2_5 1_555 1_555
H15_5 C20_5 1_555 1_555
H17_5 C20_5 1_555 1_555
C21_5 N1_5 1_555 1_555
H18_5 C21_5 1_555 1_555
H19_5 C21_5 1_555 1_555
H20_5 C21_5 1_555 1_555
Gd5_2 O4_3 1_555 1_555
O13_3 Gd3 1_555 1_555
C9_5 C11_5 1_555 1_555
C12_5 C14_5 1_555 1_555
C15_4 C16_5 1_555 1_555
O10 C1_6 1_555 1_555
O11_4 C3_6 1_555 1_555
O12_4 C3_6 1_555 1_555
O4_4 C1_6 1_555 1_555
O7_6 C11_6 1_555 1_555
O8_6 Gd4 1_555 1_555
C1_6 C7_6 1_555 1_555
O9_6 Gd4 1_555 1_555
C2_5 C6_5 1_555 1_555
C3_6 C4_6 1_555 1_555
C4_6 C5_6 1_555 1_555
C5_6 H1_6 1_555 1_555
C6_5 C10_5 1_555 1_555
C7_6 C5_6 1_555 1_555
C8_6 C7_6 1_555 1_555
H2_6 C8_6 1_555 1_555
C9_6 C4_6 1_555 1_555
H3_6 C9_6 1_555 1_555
C10_5 H4_5 1_555 1_555
C11_6 C8_6 1_555 1_555
C12_6 C13_6 1_555 1_555
C13_6 O7_6 1_555 1_555
H5_6 C13_6 1_555 1_555
H6_6 C13_6 1_555 1_555
C14_6 C10_5 1_555 1_555
H7_6 C14_6 1_555 1_555
C15_5 C6_5 1_555 1_555
H8_5 C15_5 1_555 1_555
C16_6 C12_6 1_555 1_555
H9_6 C16_6 1_555 1_555
N1_6 C17_6 1_555 1_555
N2_6 C18_6 1_555 1_555
C17_6 O8_6 1_555 1_555
H10_6 C17_6 1_555 1_555
C18_6 O9_6 1_555 1_555
H11_6 C18_6 1_555 1_555
C19_6 N1_6 1_555 1_555
H12_6 C19_6 1_555 1_555
H13_6 C19_6 1_555 1_555
H14_6 C19_6 1_555 1_555
C20_6 N2_6 1_555 1_555
H15_6 C20_6 1_555 1_555
H17_6 C20_6 1_555 1_555
C21_6 N1_6 1_555 1_555
H18_6 C21_6 1_555 1_555
H19_6 C21_6 1_555 1_555
H20_6 C21_6 1_555 1_555
Gd5 O4_4 1_555 1_555
O13_4 Gd4 1_555 1_555
C9_6 C11_6 1_555 1_555
C12_6 C14_6 1_555 1_555
C15_5 C16_6 1_555 1_555
O14_3 C2_6 1_555 1_555
O15_3 C2_6 1_555 1_555
C2_6 C6_6 1_555 1_555
C6_6 C10_6 1_555 1_555
C10_6 H4_6 1_555 1_555
C15_6 C6_6 1_555 1_555
H8_6 C15_6 1_555 1_555
O10_4 C1_7 1_555 1_555
O13_4 C1_7 1_555 1_555
O7_7 C11_7 1_555 1_555
C1_7 C7_7 1_555 1_555
C5_7 H1_7 1_555 1_555
C7_7 C5_7 1_555 1_555
C8_7 C7_7 1_555 1_555
H2_7 C8_7 1_555 1_555
C11_7 C8_7 1_555 1_555
C12_7 C13_7 1_555 1_555
C13_7 O7_7 1_555 1_555
H5_7 C13_7 1_555 1_555
H6_7 C13_7 1_555 1_555
H7_7 C14_7 1_555 1_555
C16_7 C12_7 1_555 1_555
H9_7 C16_7 1_555 1_555
C9_7 C11_7 1_555 1_555
C12_7 C14_7 1_555 1_555
O11 C3_7 1_555 1_555
O12 C3_7 1_555 1_555
O8_7 Gd5 1_555 1_555
O9_7 Gd5 1_555 1_555
C3_7 C4_7 1_555 1_555
N1_7 C17_7 1_555 1_555
N2_7 C18_7 1_555 1_555
C17_7 O8_7 1_555 1_555
H10_7 C17_7 1_555 1_555
C18_7 O9_7 1_555 1_555
H11_7 C18_7 1_555 1_555
C19_7 N1_7 1_555 1_555
H12_7 C19_7 1_555 1_555
H14_7 C19_7 1_555 1_555
C20_7 N2_7 1_555 1_555
H15_7 C20_7 1_555 1_555
H16_4 C20_7 1_555 1_555
H17_7 C20_7 1_555 1_555
C21_7 N1_7 1_555 1_555
H18_7 C21_7 1_555 1_555
H19_7 C21_7 1_555 1_555
H20_7 C21_7 1_555 1_555
C22_4 N2_7 1_555 1_555
H21_4 C22_4 1_555 1_555
H22_4 C22_4 1_555 1_555
H23_4 C22_4 1_555 1_555
O10_3 C1_8 1_555 1_555
O13_3 C1_8 1_555 1_555
O7_8 C11_8 1_555 1_555
C1_8 C7_8 1_555 1_555
C5_8 H1_8 1_555 1_555
C7_8 C5_8 1_555 1_555
C8_8 C7_8 1_555 1_555
H2_8 C8_8 1_555 1_555
C11_8 C8_8 1_555 1_555
C12_8 C13_8 1_555 1_555
C13_8 O7_8 1_555 1_555
H5_8 C13_8 1_555 1_555
H6_8 C13_8 1_555 1_555
H7_8 C14_8 1_555 1_555
C16_8 C12_8 1_555 1_555
H9_8 C16_8 1_555 1_555
C9_8 C11_8 1_555 1_555
C12_8 C14_8 1_555 1_555
O11_2 C3_8 1_555 1_555
O12_2 C3_8 1_555 1_555
O8_8 Gd5_2 1_555 1_555
O9_8 Gd5_2 1_555 1_555
C3_8 C4_8 1_555 1_555
N1_8 C17_8 1_555 1_555
N2_8 C18_8 1_555 1_555
C17_8 O8_8 1_555 1_555
H10_8 C17_8 1_555 1_555
C18_8 O9_8 1_555 1_555
H11_8 C18_8 1_555 1_555
C19_8 N1_8 1_555 1_555
H12_8 C19_8 1_555 1_555
H14_8 C19_8 1_555 1_555
C20_8 N2_8 1_555 1_555
H15_8 C20_8 1_555 1_555
H16_5 C20_8 1_555 1_555
H17_8 C20_8 1_555 1_555
C21_8 N1_8 1_555 1_555
H18_8 C21_8 1_555 1_555
H19_8 C21_8 1_555 1_555
H20_8 C21_8 1_555 1_555
C22_5 N2_8 1_555 1_555
H21_5 C22_5 1_555 1_555
H22_5 C22_5 1_555 1_555
H23_5 C22_5 1_555 1_555
H21_6 C22_6 1_555 1_555
H22_6 C22_6 1_555 1_555
H23_6 C22_6 1_555 1_555
C2_7 C6_7 1_555 1_555
C6_7 C10_7 1_555 1_555
C10_7 H4_7 1_555 1_555
C15_7 C6_7 1_555 1_555
H8_7 C15_7 1_555 1_555
H21_7 C22_7 1_555 1_555
H22_7 C22_7 1_555 1_555
H23_7 C22_7 1_555 1_555
H21_8 C22_8 1_555 1_555
H22_8 C22_8 1_555 1_555
H23_8 C22_8 1_555 1_555
C2_8 C6_8 1_555 1_555
C6_8 C10_8 1_555 1_555
C10_8 H4_8 1_555 1_555
C15_8 C6_8 1_555 1_555
H8_8 C15_8 1_555 1_555

#END
