
###############################################################################
#
# This file contains modified crystal structure data generated from the
# MOF subset of the Cambridge Structural Database (CSD) v543 
# hosted by the Cambridge Crystallographic Data Centre (CCDC).
#
# This work is licensed under the Creative Commons
# Attribution-NonCommercial-ShareAlike 4.0 International License.
# To view a copy of this license, visit
# http://creativecommons.org/licenses/by-nc-sa/4.0/
# or send a letter to
# Creative Commons, PO Box 1866, Mountain View, CA 94042, USA.
#
# CIF created using the CSD Python API on 29 September 2022
# The structure has been converted into the P1 space group
# The structure has a 3D framework
# The original CSD entry DAXGIW is in the monoclinic crystal system
# The framework has been calculated to contain at least 10.0% void space
# The void calculation uses a probe of radius 1.32A, grid spacing 0.4
#
###############################################################################

data_DAXGIW
_chemical_formula_moiety         '(C176 H184 Dy8 N16 O68)n'
_symmetry_cell_setting           triclinic
_symmetry_space_group_name_H-M   'P 1'
_symmetry_Int_Tables_number      1
_space_group_name_Hall           'P 1'
loop_
_symmetry_equiv_pos_site_id
_symmetry_equiv_pos_as_xyz
1 x,y,z
_cell_length_a                   28.5161(9)
_cell_length_b                   14.0369(4)
_cell_length_c                   13.6387(4)
_cell_angle_alpha                90
_cell_angle_beta                 100.4370(10)
_cell_angle_gamma                90
_cell_volume                     5368.94
loop_
_atom_site_label
_atom_site_type_symbol
_atom_site_fract_x
_atom_site_fract_y
_atom_site_fract_z
H16 H 0.387652 0.018852 0.951822
C22 C 0.3776(9) 0.0836(8) 0.7565(10)
H21 H 0.408695 0.107431 0.746543
H22 H 0.363682 0.128496 0.798277
H23 H 0.356352 0.077315 0.691740
Dy4 Dy 0.31716(2) 0.21162(2) 0.04308(2)
Dy1 Dy 0.31716(2) 0.78838(2) 0.54308(2)
O1 O 0.30056(9) 0.2612(2) 0.87588(19)
O2 O 0.26999(10) 0.65345(19) 0.5421(2)
O3 O 0.60807(11) 0.1822(2) 0.5012(3)
O4 O 0.22921(10) 0.3312(2) 0.8366(2)
O5 O 0.20607(10) 0.5690(2) 0.5508(2)
O6 O 0.61948(10) 0.3351(2) 0.4907(2)
O7 O 0.39946(10) 0.4079(2) 0.6439(2)
O8 O 0.35755(15) 0.7189(3) 0.6921(3)
C1 C 0.59505(14) 0.2671(4) 0.5098(3)
C2 C 0.27182(13) 0.3180(3) 0.8269(3)
C3 C 0.25008(14) 0.5798(3) 0.5706(3)
O9 O 0.35490(13) 0.9218(3) 0.6444(3)
C4 C 0.26156(13) 0.4467(3) 0.6953(3)
H1 H 0.229479 0.454862 0.703857
C5 C 0.54882(14) 0.2833(3) 0.5461(3)
C6 C 0.28045(13) 0.5045(3) 0.6288(3)
C7 C 0.35436(13) 0.4188(3) 0.6652(3)
C8 C 0.28985(13) 0.3772(3) 0.7487(3)
C9 C 0.46568(13) 0.3099(3) 0.6233(3)
C10 C 0.32720(14) 0.4918(3) 0.6149(3)
H2 H 0.340406 0.532709 0.571550
C11 C 0.52258(18) 0.2071(4) 0.5685(5)
H3 H 0.532756 0.144243 0.557432
C12 C 0.33629(13) 0.3622(3) 0.7331(3)
H4 H 0.355413 0.313576 0.768771
C13 C 0.48127(18) 0.2209(4) 0.6072(5)
H5 H 0.463660 0.167232 0.622646
C14 C 0.42237(13) 0.3199(3) 0.6710(3)
H6 H 0.399995 0.266895 0.649177
H7 H 0.431922 0.316458 0.744377
C15 C 0.49047(15) 0.3867(4) 0.5959(3)
H8 H 0.479275 0.449602 0.603330
C16 C 0.53198(14) 0.3724(4) 0.5571(3)
H9 H 0.548733 0.425889 0.538163
N1 N 0.3797(2) 0.6203(5) 0.8228(4)
N2 N 0.3839(2) 0.9859(5) 0.8080(5)
C17 C 0.3486(3) 0.6777(6) 0.7620(5)
H10 H 0.317529 0.685184 0.776878
C18 C 0.3671(3) 0.9153(6) 0.7441(6)
H11 H 0.363515 0.854554 0.772613
C19 C 0.3636(4) 0.5710(7) 0.9003(7)
H12 H 0.379582 0.596357 0.964729
H13 H 0.370998 0.503108 0.896315
H14 H 0.329072 0.579338 0.893883
C20 C 0.3998(3) 0.9685(7) 0.9133(6)
H15 H 0.387743 0.906664 0.930971
H17 H 0.434713 0.968320 0.928424
C21 C 0.4262(4) 0.6038(8) 0.8068(7)
H18 H 0.430190 0.632452 0.743238
H19 H 0.431948 0.535040 0.804762
H20 H 0.449113 0.632389 0.861104
Dy2 Dy 0.18284(2) 0.28838(2) 0.95692(2)
Dy3 Dy 0.68284(2) 0.21162(2) 0.45692(2)
Dy5 Dy 0.18284(2) 0.71162(2) 0.45692(2)
O10 O 0.30056(9) 0.7388(2) 0.37588(19)
O11 O 0.23001(10) 0.84655(19) 0.4579(2)
O12 O 0.39193(11) 0.8178(2) 0.4988(3)
O13 O 0.27079(10) 0.8312(2) 0.6634(2)
O14 O 0.29393(10) 0.9310(2) 0.4492(2)
O15 O 0.38052(10) 0.6649(2) 0.5093(2)
O6_2 O 0.38052(10) 0.3351(2) 0.0093(2)
Dy5_2 Dy 0.81716(2) 0.71162(2) 0.04308(2)
O10_2 O 0.69944(9) 0.7388(2) 0.12412(19)
O11_2 O 0.76999(10) 0.84655(19) 0.0421(2)
O12_2 O 0.60807(11) 0.8178(2) 0.0012(3)
O14_2 O 0.70607(10) 0.9310(2) 0.0508(2)
Dy1_2 Dy 0.68284(2) 0.78838(2) 0.95692(2)
O1_2 O 0.69944(9) 0.2612(2) 0.62412(19)
O2_2 O 0.73001(10) 0.65345(19) 0.9579(2)
O3_2 O 0.39193(11) 0.1822(2) 0.9988(3)
O4_2 O 0.77079(10) 0.3312(2) 0.6634(2)
O5_2 O 0.79393(10) 0.5690(2) 0.9492(2)
O7_2 O 0.60054(10) 0.4079(2) 0.8561(2)
O8_2 O 0.64245(15) 0.7189(3) 0.8079(3)
C1_2 C 0.40495(14) 0.2671(4) 0.9902(3)
C2_2 C 0.72818(13) 0.3180(3) 0.6731(3)
C3_2 C 0.74992(14) 0.5798(3) 0.9294(3)
O9_2 O 0.64510(13) 0.9218(3) 0.8556(3)
C4_2 C 0.73844(13) 0.4467(3) 0.8047(3)
H1_2 H 0.770521 0.454862 0.796143
C5_2 C 0.45118(14) 0.2833(3) 0.9539(3)
C6_2 C 0.71955(13) 0.5045(3) 0.8712(3)
C7_2 C 0.64564(13) 0.4188(3) 0.8348(3)
C8_2 C 0.71015(13) 0.3772(3) 0.7513(3)
C9_2 C 0.53432(13) 0.3099(3) 0.8767(3)
C10_2 C 0.67280(14) 0.4918(3) 0.8851(3)
H2_2 H 0.659594 0.532709 0.928450
C11_2 C 0.47742(18) 0.2071(4) 0.9315(5)
H3_2 H 0.467244 0.144243 0.942568
C12_2 C 0.66371(13) 0.3622(3) 0.7669(3)
H4_2 H 0.644587 0.313576 0.731229
C13_2 C 0.51873(18) 0.2209(4) 0.8928(5)
H5_2 H 0.536340 0.167232 0.877354
C14_2 C 0.57763(13) 0.3199(3) 0.8290(3)
H6_2 H 0.600005 0.266895 0.850823
H7_2 H 0.568078 0.316458 0.755623
C15_2 C 0.50953(15) 0.3867(4) 0.9041(3)
H8_2 H 0.520725 0.449602 0.896670
C16_2 C 0.46802(14) 0.3724(4) 0.9429(3)
H9_2 H 0.451267 0.425889 0.961837
N1_2 N 0.6203(2) 0.6203(5) 0.6772(4)
N2_2 N 0.6161(2) 0.9859(5) 0.6920(5)
C17_2 C 0.6514(3) 0.6777(6) 0.7380(5)
H10_2 H 0.682471 0.685184 0.723122
C18_2 C 0.6329(3) 0.9153(6) 0.7559(6)
H11_2 H 0.636485 0.854554 0.727387
C19_2 C 0.6364(4) 0.5710(7) 0.5997(7)
H12_2 H 0.620418 0.596357 0.535271
H13_2 H 0.629002 0.503108 0.603685
H14_2 H 0.670928 0.579338 0.606117
C20_2 C 0.6002(3) 0.9685(7) 0.5867(6)
H15_2 H 0.612257 0.906664 0.569029
H17_2 H 0.565287 0.968320 0.571576
C21_2 C 0.5738(4) 0.6038(8) 0.6932(7)
H18_2 H 0.569810 0.632452 0.756762
H19_2 H 0.568052 0.535040 0.695238
H20_2 H 0.550887 0.632389 0.638896
Dy2_2 Dy 0.81716(2) 0.28838(2) 0.54308(2)
O13_2 O 0.72921(10) 0.8312(2) 0.8366(2)
O15_2 O 0.61948(10) 0.6649(2) 0.9907(2)
O3_3 O 0.10807(11) 0.6822(2) 0.5012(3)
O6_3 O 0.11948(10) 0.8351(2) 0.4907(2)
C1_3 C 0.09505(14) 0.7671(4) 0.5098(3)
C5_3 C 0.04882(14) 0.7833(3) 0.5461(3)
C11_3 C 0.02258(18) 0.7071(4) 0.5685(5)
H3_3 H 0.032756 0.644243 0.557432
C16_3 C 0.03198(14) 0.8724(4) 0.5571(3)
H9_3 H 0.048733 0.925889 0.538163
O2_3 O 0.76999(10) 0.15345(19) 0.5421(2)
O5_3 O 0.70607(10) 0.0690(2) 0.5508(2)
O8_3 O 0.85755(15) 0.2189(3) 0.6921(3)
C3_3 C 0.75008(14) 0.0798(3) 0.5706(3)
O9_3 O 0.85490(13) 0.4218(3) 0.6444(3)
C6_3 C 0.78045(13) 0.0045(3) 0.6288(3)
H2_3 H 0.840406 0.032709 0.571550
N1_3 N 0.8797(2) 0.1203(5) 0.8228(4)
N2_3 N 0.8839(2) 0.4859(5) 0.8080(5)
C17_3 C 0.8486(3) 0.1777(6) 0.7620(5)
H10_3 H 0.817529 0.185184 0.776878
C18_3 C 0.8671(3) 0.4153(6) 0.7441(6)
H11_3 H 0.863515 0.354554 0.772613
C19_3 C 0.8636(4) 0.0710(7) 0.9003(7)
H12_3 H 0.879582 0.096357 0.964729
H13_3 H 0.870998 0.003108 0.896315
H14_3 H 0.829072 0.079338 0.893883
C20_3 C 0.8998(3) 0.4685(7) 0.9133(6)
H15_3 H 0.887743 0.406664 0.930971
H16_2 H 0.887652 0.518852 0.951822
H17_3 H 0.934713 0.468320 0.928424
C21_3 C 0.9262(4) 0.1038(8) 0.8068(7)
H18_3 H 0.930190 0.132452 0.743238
H19_3 H 0.931948 0.035040 0.804762
H20_3 H 0.949113 0.132389 0.861104
C22_2 C 0.8776(9) 0.5836(8) 0.7565(10)
H21_2 H 0.908695 0.607431 0.746543
H22_2 H 0.863682 0.628496 0.798277
H23_2 H 0.856352 0.577315 0.691740
O10_3 O 0.80056(9) 0.2388(2) 0.37588(19)
O11_3 O 0.73001(10) 0.34655(19) 0.4579(2)
O12_3 O 0.89193(11) 0.3178(2) 0.4988(3)
O14_3 O 0.79393(10) 0.4310(2) 0.4492(2)
O15_3 O 0.88052(10) 0.1649(2) 0.5093(2)
O1_3 O 0.80056(9) 0.7612(2) 0.87588(19)
O7_3 O 0.89946(10) 0.9079(2) 0.6439(2)
C2_3 C 0.77182(13) 0.8180(3) 0.8269(3)
C4_3 C 0.76156(13) 0.9467(3) 0.6953(3)
H1_3 H 0.729479 0.954862 0.703857
C7_3 C 0.85436(13) 0.9188(3) 0.6652(3)
C8_3 C 0.78985(13) 0.8772(3) 0.7487(3)
C9_3 C 0.96568(13) 0.8099(3) 0.6233(3)
C10_3 C 0.82720(14) 0.9918(3) 0.6149(3)
C12_3 C 0.83629(13) 0.8622(3) 0.7331(3)
H4_3 H 0.855413 0.813576 0.768771
C13_3 C 0.98127(18) 0.7209(4) 0.6072(5)
H5_3 H 0.963660 0.667232 0.622646
C14_3 C 0.92237(13) 0.8199(3) 0.6710(3)
H6_3 H 0.899995 0.766895 0.649177
H7_3 H 0.931922 0.816458 0.744377
C15_3 C 0.99047(15) 0.8867(4) 0.5959(3)
H8_3 H 0.979275 0.949602 0.603330
O10_4 O 0.19944(9) 0.2388(2) 0.12412(19)
O11_4 O 0.26999(10) 0.34655(19) 0.0421(2)
O12_4 O 0.10807(11) 0.3178(2) 0.0012(3)
O14_4 O 0.20607(10) 0.4310(2) 0.0508(2)
O2_4 O 0.23001(10) 0.15345(19) 0.9579(2)
O5_4 O 0.29393(10) 0.0690(2) 0.9492(2)
O8_4 O 0.14245(15) 0.2189(3) 0.8079(3)
C3_4 C 0.24992(14) 0.0798(3) 0.9294(3)
O9_4 O 0.14510(13) 0.4218(3) 0.8556(3)
C6_4 C 0.21955(13) 0.0045(3) 0.8712(3)
H2_4 H 0.159594 0.032709 0.928450
N1_4 N 0.1203(2) 0.1203(5) 0.6772(4)
N2_4 N 0.1161(2) 0.4859(5) 0.6920(5)
C17_4 C 0.1514(3) 0.1777(6) 0.7380(5)
H10_4 H 0.182471 0.185184 0.723122
C18_4 C 0.1329(3) 0.4153(6) 0.7559(6)
H11_4 H 0.136485 0.354554 0.727387
C19_4 C 0.1364(4) 0.0710(7) 0.5997(7)
H12_4 H 0.120418 0.096357 0.535271
H13_4 H 0.129002 0.003108 0.603685
H14_4 H 0.170928 0.079338 0.606117
C20_4 C 0.1002(3) 0.4685(7) 0.5867(6)
H15_4 H 0.112257 0.406664 0.569029
H16_3 H 0.112348 0.518852 0.548178
H17_4 H 0.065287 0.468320 0.571576
C21_4 C 0.0738(4) 0.1038(8) 0.6932(7)
H18_4 H 0.069810 0.132452 0.756762
H19_4 H 0.068052 0.035040 0.695238
H20_4 H 0.050887 0.132389 0.638896
C22_3 C 0.1224(9) 0.5836(8) 0.7435(10)
H21_3 H 0.091305 0.607431 0.753457
H22_3 H 0.136318 0.628496 0.701723
H23_3 H 0.143648 0.577315 0.808260
O15_4 O 0.11948(10) 0.1649(2) 0.9907(2)
O1_4 O 0.19944(9) 0.7612(2) 0.62412(19)
O7_4 O 0.10054(10) 0.9079(2) 0.8561(2)
C2_4 C 0.22818(13) 0.8180(3) 0.6731(3)
C4_4 C 0.23844(13) 0.9467(3) 0.8047(3)
H1_4 H 0.270521 0.954862 0.796143
C7_4 C 0.14564(13) 0.9188(3) 0.8348(3)
C8_4 C 0.21015(13) 0.8772(3) 0.7513(3)
C9_4 C 0.03432(13) 0.8099(3) 0.8767(3)
C10_4 C 0.17280(14) 0.9918(3) 0.8851(3)
C12_4 C 0.16371(13) 0.8622(3) 0.7669(3)
H4_4 H 0.144587 0.813576 0.731229
C13_4 C 0.01873(18) 0.7209(4) 0.8928(5)
H5_4 H 0.036340 0.667232 0.877354
C14_4 C 0.07763(13) 0.8199(3) 0.8290(3)
H6_4 H 0.100005 0.766895 0.850823
H7_4 H 0.068078 0.816458 0.755623
C15_4 C 0.00953(15) 0.8867(4) 0.9041(3)
H8_4 H 0.020725 0.949602 0.896670
O6_4 O 0.88052(10) 0.8351(2) 0.0093(2)
O3_4 O 0.89193(11) 0.6822(2) 0.9988(3)
C1_4 C 0.90495(14) 0.7671(4) 0.9902(3)
C5_4 C 0.95118(14) 0.7833(3) 0.9539(3)
C11_4 C 0.97742(18) 0.7071(4) 0.9315(5)
H3_4 H 0.967244 0.644243 0.942568
C16_4 C 0.96802(14) 0.8724(4) 0.9429(3)
H9_4 H 0.951267 0.925889 0.961837
O4_3 O 0.77079(10) 0.6688(2) 0.1634(2)
O7_5 O 0.60054(10) 0.5921(2) 0.3561(2)
O8_5 O 0.64245(15) 0.2811(3) 0.3079(3)
C1_5 C 0.40495(14) 0.7329(4) 0.4902(3)
C2_5 C 0.72818(13) 0.6820(3) 0.1731(3)
C3_5 C 0.74992(14) 0.4202(3) 0.4294(3)
O9_5 O 0.64510(13) 0.0782(3) 0.3556(3)
C4_5 C 0.73844(13) 0.5533(3) 0.3047(3)
H1_5 H 0.770521 0.545138 0.296143
C5_5 C 0.45118(14) 0.7167(3) 0.4539(3)
C6_5 C 0.71955(13) 0.4955(3) 0.3712(3)
C7_5 C 0.64564(13) 0.5812(3) 0.3348(3)
C8_5 C 0.71015(13) 0.6228(3) 0.2513(3)
C9_5 C 0.53432(13) 0.6901(3) 0.3767(3)
C10_5 C 0.67280(14) 0.5082(3) 0.3851(3)
H2_5 H 0.659594 0.467291 0.428450
C11_5 C 0.47742(18) 0.7929(4) 0.4315(5)
H3_5 H 0.467244 0.855757 0.442568
C12_5 C 0.66371(13) 0.6378(3) 0.2669(3)
H4_5 H 0.644587 0.686424 0.231229
C13_5 C 0.51873(18) 0.7791(4) 0.3928(5)
H5_5 H 0.536340 0.832768 0.377354
C14_5 C 0.57763(13) 0.6801(3) 0.3290(3)
H6_5 H 0.600005 0.733105 0.350823
H7_5 H 0.568078 0.683542 0.255623
C15_5 C 0.50953(15) 0.6133(4) 0.4041(3)
H8_5 H 0.520725 0.550398 0.396670
C16_5 C 0.46802(14) 0.6276(4) 0.4429(3)
H9_5 H 0.451267 0.574111 0.461837
N1_5 N 0.6203(2) 0.3797(5) 0.1772(4)
N2_5 N 0.6161(2) 0.0141(5) 0.1920(5)
C17_5 C 0.6514(3) 0.3223(6) 0.2380(5)
H10_5 H 0.682471 0.314816 0.223122
C18_5 C 0.6329(3) 0.0847(6) 0.2559(6)
H11_5 H 0.636485 0.145446 0.227387
C19_5 C 0.6364(4) 0.4290(7) 0.0997(7)
H12_5 H 0.620418 0.403643 0.035271
H13_5 H 0.629002 0.496892 0.103685
H14_5 H 0.670928 0.420662 0.106117
C20_5 C 0.6002(3) 0.0315(7) 0.0867(6)
H15_5 H 0.612257 0.093336 0.069029
H17_5 H 0.565287 0.031680 0.071576
C21_5 C 0.5738(4) 0.3962(8) 0.1932(7)
H18_5 H 0.569810 0.367548 0.256762
H19_5 H 0.568052 0.464960 0.195238
H20_5 H 0.550887 0.367611 0.138896
O13_3 O 0.72921(10) 0.1688(2) 0.3366(2)
O4_4 O 0.22921(10) 0.6688(2) 0.3366(2)
O7_6 O 0.39946(10) 0.5921(2) 0.1439(2)
O8_6 O 0.35755(15) 0.2811(3) 0.1921(3)
C1_6 C 0.59505(14) 0.7329(4) 0.0098(3)
C2_6 C 0.27182(13) 0.6820(3) 0.3269(3)
C3_6 C 0.25008(14) 0.4202(3) 0.0706(3)
O9_6 O 0.35490(13) 0.0782(3) 0.1444(3)
C4_6 C 0.26156(13) 0.5533(3) 0.1953(3)
H1_6 H 0.229479 0.545138 0.203857
C5_6 C 0.54882(14) 0.7167(3) 0.0461(3)
C6_6 C 0.28045(13) 0.4955(3) 0.1288(3)
C7_6 C 0.35436(13) 0.5812(3) 0.1652(3)
C8_6 C 0.28985(13) 0.6228(3) 0.2487(3)
C9_6 C 0.46568(13) 0.6901(3) 0.1233(3)
C10_6 C 0.32720(14) 0.5082(3) 0.1149(3)
H2_6 H 0.340406 0.467291 0.071550
C11_6 C 0.52258(18) 0.7929(4) 0.0685(5)
H3_6 H 0.532756 0.855757 0.057432
C12_6 C 0.33629(13) 0.6378(3) 0.2331(3)
H4_6 H 0.355413 0.686424 0.268771
C13_6 C 0.48127(18) 0.7791(4) 0.1072(5)
H5_6 H 0.463660 0.832768 0.122646
C14_6 C 0.42237(13) 0.6801(3) 0.1710(3)
H6_6 H 0.399995 0.733105 0.149177
H7_6 H 0.431922 0.683542 0.244377
C15_6 C 0.49047(15) 0.6133(4) 0.0959(3)
H8_6 H 0.479275 0.550398 0.103330
C16_6 C 0.53198(14) 0.6276(4) 0.0571(3)
H9_6 H 0.548733 0.574111 0.038163
N1_6 N 0.3797(2) 0.3797(5) 0.3228(4)
N2_6 N 0.3839(2) 0.0141(5) 0.3080(5)
C17_6 C 0.3486(3) 0.3223(6) 0.2620(5)
H10_6 H 0.317529 0.314816 0.276878
C18_6 C 0.3671(3) 0.0847(6) 0.2441(6)
H11_6 H 0.363515 0.145446 0.272613
C19_6 C 0.3636(4) 0.4290(7) 0.4003(7)
H12_6 H 0.379582 0.403643 0.464729
H13_6 H 0.370998 0.496892 0.396315
H14_6 H 0.329072 0.420662 0.393883
C20_6 C 0.3998(3) 0.0315(7) 0.4133(6)
H15_6 H 0.387743 0.093336 0.430971
H17_6 H 0.434713 0.031680 0.428424
C21_6 C 0.4262(4) 0.3962(8) 0.3068(7)
H18_6 H 0.430190 0.367548 0.243238
H19_6 H 0.431948 0.464960 0.304762
H20_6 H 0.449113 0.367611 0.361104
O13_4 O 0.27079(10) 0.1688(2) 0.1634(2)
O7_7 O 0.10054(10) 0.0921(2) 0.3561(2)
C2_7 C 0.22818(13) 0.1820(3) 0.1731(3)
C4_7 C 0.23844(13) 0.0533(3) 0.3047(3)
H1_7 H 0.270521 0.045138 0.296143
C7_7 C 0.14564(13) 0.0812(3) 0.3348(3)
C8_7 C 0.21015(13) 0.1228(3) 0.2513(3)
C9_7 C 0.03432(13) 0.1901(3) 0.3767(3)
C10_7 C 0.17280(14) 0.0082(3) 0.3851(3)
C12_7 C 0.16371(13) 0.1378(3) 0.2669(3)
H4_7 H 0.144587 0.186424 0.231229
C13_7 C 0.01873(18) 0.2791(4) 0.3928(5)
H5_7 H 0.036340 0.332768 0.377354
C14_7 C 0.07763(13) 0.1801(3) 0.3290(3)
H6_7 H 0.100005 0.233105 0.350823
H7_7 H 0.068078 0.183542 0.255623
C15_7 C 0.00953(15) 0.1133(4) 0.4041(3)
H8_7 H 0.020725 0.050398 0.396670
O8_7 O 0.14245(15) 0.7811(3) 0.3079(3)
C3_7 C 0.24992(14) 0.9202(3) 0.4294(3)
O9_7 O 0.14510(13) 0.5782(3) 0.3556(3)
C6_7 C 0.21955(13) 0.9955(3) 0.3712(3)
H2_7 H 0.159594 0.967291 0.428450
N1_7 N 0.1203(2) 0.8797(5) 0.1772(4)
N2_7 N 0.1161(2) 0.5141(5) 0.1920(5)
C17_7 C 0.1514(3) 0.8223(6) 0.2380(5)
H10_7 H 0.182471 0.814816 0.223122
C18_7 C 0.1329(3) 0.5847(6) 0.2559(6)
H11_7 H 0.136485 0.645446 0.227387
C19_7 C 0.1364(4) 0.9290(7) 0.0997(7)
H12_7 H 0.120418 0.903643 0.035271
H13_7 H 0.129002 0.996892 0.103685
H14_7 H 0.170928 0.920662 0.106117
C20_7 C 0.1002(3) 0.5315(7) 0.0867(6)
H15_7 H 0.112257 0.593336 0.069029
H16_4 H 0.112348 0.481148 0.048178
H17_7 H 0.065287 0.531680 0.071576
C21_7 C 0.0738(4) 0.8962(8) 0.1932(7)
H18_7 H 0.069810 0.867548 0.256762
H19_7 H 0.068052 0.964960 0.195238
H20_7 H 0.050887 0.867611 0.138896
C22_4 C 0.1224(9) 0.4164(8) 0.2435(10)
H21_4 H 0.091305 0.392569 0.253457
H22_4 H 0.136318 0.371504 0.201723
H23_4 H 0.143648 0.422685 0.308260
C1_7 C 0.90495(14) 0.2329(4) 0.4902(3)
C5_7 C 0.95118(14) 0.2167(3) 0.4539(3)
C11_7 C 0.97742(18) 0.2929(4) 0.4315(5)
H3_7 H 0.967244 0.355757 0.442568
C16_7 C 0.96802(14) 0.1276(4) 0.4429(3)
H9_7 H 0.951267 0.074111 0.461837
C1_8 C 0.09505(14) 0.2329(4) 0.0098(3)
C5_8 C 0.04882(14) 0.2167(3) 0.0461(3)
C11_8 C 0.02258(18) 0.2929(4) 0.0685(5)
H3_8 H 0.032756 0.355757 0.057432
C16_8 C 0.03198(14) 0.1276(4) 0.0571(3)
H9_8 H 0.048733 0.074111 0.038163
O7_8 O 0.89946(10) 0.0921(2) 0.1439(2)
C2_8 C 0.77182(13) 0.1820(3) 0.3269(3)
C4_8 C 0.76156(13) 0.0533(3) 0.1953(3)
H1_8 H 0.729479 0.045138 0.203857
C7_8 C 0.85436(13) 0.0812(3) 0.1652(3)
C8_8 C 0.78985(13) 0.1228(3) 0.2487(3)
C9_8 C 0.96568(13) 0.1901(3) 0.1233(3)
C10_8 C 0.82720(14) 0.0082(3) 0.1149(3)
C12_8 C 0.83629(13) 0.1378(3) 0.2331(3)
H4_8 H 0.855413 0.186424 0.268771
C13_8 C 0.98127(18) 0.2791(4) 0.1072(5)
H5_8 H 0.963660 0.332768 0.122646
C14_8 C 0.92237(13) 0.1801(3) 0.1710(3)
H6_8 H 0.899995 0.233105 0.149177
H7_8 H 0.931922 0.183542 0.244377
C15_8 C 0.99047(15) 0.1133(4) 0.0959(3)
H8_8 H 0.979275 0.050398 0.103330
O8_8 O 0.85755(15) 0.7811(3) 0.1921(3)
C3_8 C 0.75008(14) 0.9202(3) 0.0706(3)
O9_8 O 0.85490(13) 0.5782(3) 0.1444(3)
C6_8 C 0.78045(13) 0.9955(3) 0.1288(3)
H2_8 H 0.840406 0.967291 0.071550
N1_8 N 0.8797(2) 0.8797(5) 0.3228(4)
N2_8 N 0.8839(2) 0.5141(5) 0.3080(5)
C17_8 C 0.8486(3) 0.8223(6) 0.2620(5)
H10_8 H 0.817529 0.814816 0.276878
C18_8 C 0.8671(3) 0.5847(6) 0.2441(6)
H11_8 H 0.863515 0.645446 0.272613
C19_8 C 0.8636(4) 0.9290(7) 0.4003(7)
H12_8 H 0.879582 0.903643 0.464729
H13_8 H 0.870998 0.996892 0.396315
H14_8 H 0.829072 0.920662 0.393883
C20_8 C 0.8998(3) 0.5315(7) 0.4133(6)
H15_8 H 0.887743 0.593336 0.430971
H16_5 H 0.887652 0.481148 0.451822
H17_8 H 0.934713 0.531680 0.428424
C21_8 C 0.9262(4) 0.8962(8) 0.3068(7)
H18_8 H 0.930190 0.867548 0.243238
H19_8 H 0.931948 0.964960 0.304762
H20_8 H 0.949113 0.867611 0.361104
C22_5 C 0.8776(9) 0.4164(8) 0.2565(10)
H21_5 H 0.908695 0.392569 0.246543
H22_5 H 0.863682 0.371504 0.298277
H23_5 H 0.856352 0.422685 0.191740
H16_6 H 0.612348 0.018852 0.548178
C22_6 C 0.6224(9) 0.0836(8) 0.7435(10)
H21_6 H 0.591305 0.107431 0.753457
H22_6 H 0.636318 0.128496 0.701723
H23_6 H 0.643648 0.077315 0.808260
H16_7 H 0.612348 0.981148 0.048178
C22_7 C 0.6224(9) 0.9164(8) 0.2435(10)
H21_7 H 0.591305 0.892569 0.253457
H22_7 H 0.636318 0.871504 0.201723
H23_7 H 0.643648 0.922685 0.308260
H16_8 H 0.387652 0.981148 0.451822
C22_8 C 0.3776(9) 0.9164(8) 0.2565(10)
H21_8 H 0.408695 0.892569 0.246543
H22_8 H 0.363682 0.871504 0.298277
H23_8 H 0.356352 0.922685 0.191740
loop_
_geom_bond_atom_site_label_1
_geom_bond_atom_site_label_2
_geom_bond_site_symmetry_1
_geom_bond_site_symmetry_2
H21 C22 1_555 1_555
H22 C22 1_555 1_555
H23 C22 1_555 1_555
Dy1 O2 1_555 1_555
O1 C2 1_555 1_555
O2 C3 1_555 1_555
O3 C1 1_555 1_555
O4 C2 1_555 1_555
O5 C3 1_555 1_555
O6 C1 1_555 1_555
O7 C7 1_555 1_555
O8 Dy1 1_555 1_555
C1 C5 1_555 1_555
C2 C8 1_555 1_555
C3 C6 1_555 1_555
O9 Dy1 1_555 1_555
C4 H1 1_555 1_555
C5 C11 1_555 1_555
C6 C4 1_555 1_555
C7 C10 1_555 1_555
C8 C4 1_555 1_555
C9 C13 1_555 1_555
C10 C6 1_555 1_555
H2 C10 1_555 1_555
C11 H3 1_555 1_555
C12 C7 1_555 1_555
H4 C12 1_555 1_555
C13 C11 1_555 1_555
H5 C13 1_555 1_555
C14 O7 1_555 1_555
H6 C14 1_555 1_555
H7 C14 1_555 1_555
C15 C9 1_555 1_555
H8 C15 1_555 1_555
C16 C5 1_555 1_555
H9 C16 1_555 1_555
N1 C17 1_555 1_555
N2 C18 1_555 1_555
C17 O8 1_555 1_555
H10 C17 1_555 1_555
C18 O9 1_555 1_555
H11 C18 1_555 1_555
C19 N1 1_555 1_555
H12 C19 1_555 1_555
H13 C19 1_555 1_555
H14 C19 1_555 1_555
C20 N2 1_555 1_555
H15 C20 1_555 1_555
H17 C20 1_555 1_555
C21 N1 1_555 1_555
H18 C21 1_555 1_555
H19 C21 1_555 1_555
H20 C21 1_555 1_555
Dy2 O4 1_555 1_555
Dy3 O3 1_555 1_555
Dy5 O2 1_555 1_555
O10 Dy1 1_555 1_555
O11 Dy1 1_555 1_555
O12 Dy1 1_555 1_555
O13 Dy1 1_555 1_555
O14 Dy1 1_555 1_555
O15 Dy1 1_555 1_555
O5 Dy5 1_555 1_555
O6 Dy3 1_555 1_555
C8 C12 1_555 1_555
C9 C14 1_555 1_555
C15 C16 1_555 1_555
Dy5 O11 1_555 1_555
O6_2 Dy4 1_555 1_555
Dy5_2 O11_2 1_555 1_555
Dy1_2 O2_2 1_555 1_555
O1_2 C2_2 1_555 1_555
O2_2 C3_2 1_555 1_555
O3_2 C1_2 1_555 1_555
O4_2 C2_2 1_555 1_555
O5_2 C3_2 1_555 1_555
O7_2 C7_2 1_555 1_555
O8_2 Dy1_2 1_555 1_555
C1_2 C5_2 1_555 1_555
C2_2 C8_2 1_555 1_555
C3_2 C6_2 1_555 1_555
O9_2 Dy1_2 1_555 1_555
C4_2 H1_2 1_555 1_555
C5_2 C11_2 1_555 1_555
C6_2 C4_2 1_555 1_555
C7_2 C10_2 1_555 1_555
C8_2 C4_2 1_555 1_555
C9_2 C13_2 1_555 1_555
C10_2 C6_2 1_555 1_555
H2_2 C10_2 1_555 1_555
C11_2 H3_2 1_555 1_555
C12_2 C7_2 1_555 1_555
H4_2 C12_2 1_555 1_555
C13_2 C11_2 1_555 1_555
H5_2 C13_2 1_555 1_555
C14_2 O7_2 1_555 1_555
H6_2 C14_2 1_555 1_555
H7_2 C14_2 1_555 1_555
C15_2 C9_2 1_555 1_555
H8_2 C15_2 1_555 1_555
C16_2 C5_2 1_555 1_555
H9_2 C16_2 1_555 1_555
N1_2 C17_2 1_555 1_555
N2_2 C18_2 1_555 1_555
C17_2 O8_2 1_555 1_555
H10_2 C17_2 1_555 1_555
C18_2 O9_2 1_555 1_555
H11_2 C18_2 1_555 1_555
C19_2 N1_2 1_555 1_555
H12_2 C19_2 1_555 1_555
H13_2 C19_2 1_555 1_555
H14_2 C19_2 1_555 1_555
C20_2 N2_2 1_555 1_555
H15_2 C20_2 1_555 1_555
H17_2 C20_2 1_555 1_555
C21_2 N1_2 1_555 1_555
H18_2 C21_2 1_555 1_555
H19_2 C21_2 1_555 1_555
H20_2 C21_2 1_555 1_555
Dy2_2 O4_2 1_555 1_555
Dy3 O1_2 1_555 1_555
O13_2 Dy1_2 1_555 1_555
O15_2 Dy1_2 1_555 1_555
C8_2 C12_2 1_555 1_555
C9_2 C14_2 1_555 1_555
C15_2 C16_2 1_555 1_555
O3_3 C1_3 1_555 1_555
O6_3 C1_3 1_555 1_555
C1_3 C5_3 1_555 1_555
C5_3 C11_3 1_555 1_555
C11_3 H3_3 1_555 1_555
C16_3 C5_3 1_555 1_555
H9_3 C16_3 1_555 1_555
Dy5 O3_3 1_555 1_555
O6_3 Dy5 1_555 1_555
Dy2_2 O2_3 1_555 1_555
O2_3 C3_3 1_555 1_555
O5_3 C3_3 1_555 1_555
O8_3 Dy2_2 1_555 1_555
C3_3 C6_3 1_555 1_555
O9_3 Dy2_2 1_555 1_555
N1_3 C17_3 1_555 1_555
N2_3 C18_3 1_555 1_555
C17_3 O8_3 1_555 1_555
H10_3 C17_3 1_555 1_555
C18_3 O9_3 1_555 1_555
H11_3 C18_3 1_555 1_555
C19_3 N1_3 1_555 1_555
H12_3 C19_3 1_555 1_555
H13_3 C19_3 1_555 1_555
H14_3 C19_3 1_555 1_555
C20_3 N2_3 1_555 1_555
H15_3 C20_3 1_555 1_555
H16_2 C20_3 1_555 1_555
H17_3 C20_3 1_555 1_555
C21_3 N1_3 1_555 1_555
H18_3 C21_3 1_555 1_555
H19_3 C21_3 1_555 1_555
H20_3 C21_3 1_555 1_555
C22_2 N2_3 1_555 1_555
H21_2 C22_2 1_555 1_555
H22_2 C22_2 1_555 1_555
H23_2 C22_2 1_555 1_555
Dy3 O2_3 1_555 1_555
O10_3 Dy2_2 1_555 1_555
O11_3 Dy2_2 1_555 1_555
O12_3 Dy2_2 1_555 1_555
O14_3 Dy2_2 1_555 1_555
O15_3 Dy2_2 1_555 1_555
O5_3 Dy3 1_555 1_555
Dy3 O11_3 1_555 1_555
O1_3 C2_3 1_555 1_555
O13_2 C2_3 1_555 1_555
O7_3 C7_3 1_555 1_555
C2_3 C8_3 1_555 1_555
C4_3 H1_3 1_555 1_555
C7_3 C10_3 1_555 1_555
C8_3 C4_3 1_555 1_555
C9_3 C13_3 1_555 1_555
C12_3 C7_3 1_555 1_555
H4_3 C12_3 1_555 1_555
H5_3 C13_3 1_555 1_555
C14_3 O7_3 1_555 1_555
H6_3 C14_3 1_555 1_555
H7_3 C14_3 1_555 1_555
C15_3 C9_3 1_555 1_555
H8_3 C15_3 1_555 1_555
C8_3 C12_3 1_555 1_555
C9_3 C14_3 1_555 1_555
Dy4 O11_4 1_555 1_555
Dy2 O2_4 1_555 1_555
O2_4 C3_4 1_555 1_555
O5_4 C3_4 1_555 1_555
O8_4 Dy2 1_555 1_555
C3_4 C6_4 1_555 1_555
O9_4 Dy2 1_555 1_555
N1_4 C17_4 1_555 1_555
N2_4 C18_4 1_555 1_555
C17_4 O8_4 1_555 1_555
H10_4 C17_4 1_555 1_555
C18_4 O9_4 1_555 1_555
H11_4 C18_4 1_555 1_555
C19_4 N1_4 1_555 1_555
H12_4 C19_4 1_555 1_555
H13_4 C19_4 1_555 1_555
H14_4 C19_4 1_555 1_555
C20_4 N2_4 1_555 1_555
H15_4 C20_4 1_555 1_555
H16_3 C20_4 1_555 1_555
H17_4 C20_4 1_555 1_555
C21_4 N1_4 1_555 1_555
H18_4 C21_4 1_555 1_555
H19_4 C21_4 1_555 1_555
H20_4 C21_4 1_555 1_555
C22_3 N2_4 1_555 1_555
H21_3 C22_3 1_555 1_555
H22_3 C22_3 1_555 1_555
H23_3 C22_3 1_555 1_555
O15_4 Dy2 1_555 1_555
O1_4 C2_4 1_555 1_555
O13 C2_4 1_555 1_555
O7_4 C7_4 1_555 1_555
C2_4 C8_4 1_555 1_555
C4_4 H1_4 1_555 1_555
C7_4 C10_4 1_555 1_555
C8_4 C4_4 1_555 1_555
C9_4 C13_4 1_555 1_555
C12_4 C7_4 1_555 1_555
H4_4 C12_4 1_555 1_555
H5_4 C13_4 1_555 1_555
C14_4 O7_4 1_555 1_555
H6_4 C14_4 1_555 1_555
H7_4 C14_4 1_555 1_555
C15_4 C9_4 1_555 1_555
H8_4 C15_4 1_555 1_555
Dy5 O1_4 1_555 1_555
C8_4 C12_4 1_555 1_555
C9_4 C14_4 1_555 1_555
O6_4 Dy5_2 1_555 1_555
O3_4 C1_4 1_555 1_555
C1_4 C5_4 1_555 1_555
C5_4 C11_4 1_555 1_555
C11_4 H3_4 1_555 1_555
C16_4 C5_4 1_555 1_555
H9_4 C16_4 1_555 1_555
O10_2 C2_5 1_555 1_555
O11_3 C3_5 1_555 1_555
O12 C1_5 1_555 1_555
O4_3 C2_5 1_555 1_555
O14_3 C3_5 1_555 1_555
O15 C1_5 1_555 1_555
O7_5 C7_5 1_555 1_555
O8_5 Dy3 1_555 1_555
C1_5 C5_5 1_555 1_555
C2_5 C8_5 1_555 1_555
C3_5 C6_5 1_555 1_555
O9_5 Dy3 1_555 1_555
C4_5 H1_5 1_555 1_555
C5_5 C11_5 1_555 1_555
C6_5 C4_5 1_555 1_555
C7_5 C10_5 1_555 1_555
C8_5 C4_5 1_555 1_555
C9_5 C13_5 1_555 1_555
C10_5 C6_5 1_555 1_555
H2_5 C10_5 1_555 1_555
C11_5 H3_5 1_555 1_555
C12_5 C7_5 1_555 1_555
H4_5 C12_5 1_555 1_555
C13_5 C11_5 1_555 1_555
H5_5 C13_5 1_555 1_555
C14_5 O7_5 1_555 1_555
H6_5 C14_5 1_555 1_555
H7_5 C14_5 1_555 1_555
C15_5 C9_5 1_555 1_555
H8_5 C15_5 1_555 1_555
C16_5 C5_5 1_555 1_555
H9_5 C16_5 1_555 1_555
N1_5 C17_5 1_555 1_555
N2_5 C18_5 1_555 1_555
C17_5 O8_5 1_555 1_555
H10_5 C17_5 1_555 1_555
C18_5 O9_5 1_555 1_555
H11_5 C18_5 1_555 1_555
C19_5 N1_5 1_555 1_555
H12_5 C19_5 1_555 1_555
H13_5 C19_5 1_555 1_555
H14_5 C19_5 1_555 1_555
C20_5 N2_5 1_555 1_555
H15_5 C20_5 1_555 1_555
H17_5 C20_5 1_555 1_555
C21_5 N1_5 1_555 1_555
H18_5 C21_5 1_555 1_555
H19_5 C21_5 1_555 1_555
H20_5 C21_5 1_555 1_555
Dy5_2 O4_3 1_555 1_555
O13_3 Dy3 1_555 1_555
C8_5 C12_5 1_555 1_555
C9_5 C14_5 1_555 1_555
C15_5 C16_5 1_555 1_555
O10 C2_6 1_555 1_555
O11_4 C3_6 1_555 1_555
O12_2 C1_6 1_555 1_555
O4_4 C2_6 1_555 1_555
O14_4 C3_6 1_555 1_555
O7_6 C7_6 1_555 1_555
O8_6 Dy4 1_555 1_555
C1_6 C5_6 1_555 1_555
C2_6 C8_6 1_555 1_555
C3_6 C6_6 1_555 1_555
O9_6 Dy4 1_555 1_555
C4_6 H1_6 1_555 1_555
C5_6 C11_6 1_555 1_555
C6_6 C4_6 1_555 1_555
C7_6 C10_6 1_555 1_555
C8_6 C4_6 1_555 1_555
C9_6 C13_6 1_555 1_555
C10_6 C6_6 1_555 1_555
H2_6 C10_6 1_555 1_555
C11_6 H3_6 1_555 1_555
C12_6 C7_6 1_555 1_555
H4_6 C12_6 1_555 1_555
C13_6 C11_6 1_555 1_555
H5_6 C13_6 1_555 1_555
C14_6 O7_6 1_555 1_555
H6_6 C14_6 1_555 1_555
H7_6 C14_6 1_555 1_555
C15_6 C9_6 1_555 1_555
H8_6 C15_6 1_555 1_555
C16_6 C5_6 1_555 1_555
H9_6 C16_6 1_555 1_555
N1_6 C17_6 1_555 1_555
N2_6 C18_6 1_555 1_555
C17_6 O8_6 1_555 1_555
H10_6 C17_6 1_555 1_555
C18_6 O9_6 1_555 1_555
H11_6 C18_6 1_555 1_555
C19_6 N1_6 1_555 1_555
H12_6 C19_6 1_555 1_555
H13_6 C19_6 1_555 1_555
H14_6 C19_6 1_555 1_555
C20_6 N2_6 1_555 1_555
H15_6 C20_6 1_555 1_555
H17_6 C20_6 1_555 1_555
C21_6 N1_6 1_555 1_555
H18_6 C21_6 1_555 1_555
H19_6 C21_6 1_555 1_555
H20_6 C21_6 1_555 1_555
Dy5 O4_4 1_555 1_555
O13_4 Dy4 1_555 1_555
C8_6 C12_6 1_555 1_555
C9_6 C14_6 1_555 1_555
C15_6 C16_6 1_555 1_555
O10_4 C2_7 1_555 1_555
O13_4 C2_7 1_555 1_555
O7_7 C7_7 1_555 1_555
C2_7 C8_7 1_555 1_555
C4_7 H1_7 1_555 1_555
C7_7 C10_7 1_555 1_555
C8_7 C4_7 1_555 1_555
C9_7 C13_7 1_555 1_555
C12_7 C7_7 1_555 1_555
H4_7 C12_7 1_555 1_555
H5_7 C13_7 1_555 1_555
C14_7 O7_7 1_555 1_555
H6_7 C14_7 1_555 1_555
H7_7 C14_7 1_555 1_555
C15_7 C9_7 1_555 1_555
H8_7 C15_7 1_555 1_555
C8_7 C12_7 1_555 1_555
C9_7 C14_7 1_555 1_555
O11 C3_7 1_555 1_555
O14 C3_7 1_555 1_555
O8_7 Dy5 1_555 1_555
C3_7 C6_7 1_555 1_555
O9_7 Dy5 1_555 1_555
N1_7 C17_7 1_555 1_555
N2_7 C18_7 1_555 1_555
C17_7 O8_7 1_555 1_555
H10_7 C17_7 1_555 1_555
C18_7 O9_7 1_555 1_555
H11_7 C18_7 1_555 1_555
C19_7 N1_7 1_555 1_555
H12_7 C19_7 1_555 1_555
H13_7 C19_7 1_555 1_555
H14_7 C19_7 1_555 1_555
C20_7 N2_7 1_555 1_555
H15_7 C20_7 1_555 1_555
H16_4 C20_7 1_555 1_555
H17_7 C20_7 1_555 1_555
C21_7 N1_7 1_555 1_555
H18_7 C21_7 1_555 1_555
H19_7 C21_7 1_555 1_555
H20_7 C21_7 1_555 1_555
C22_4 N2_7 1_555 1_555
H21_4 C22_4 1_555 1_555
H22_4 C22_4 1_555 1_555
H23_4 C22_4 1_555 1_555
O12_3 C1_7 1_555 1_555
O15_3 C1_7 1_555 1_555
C1_7 C5_7 1_555 1_555
C5_7 C11_7 1_555 1_555
C11_7 H3_7 1_555 1_555
C16_7 C5_7 1_555 1_555
H9_7 C16_7 1_555 1_555
O12_4 C1_8 1_555 1_555
C1_8 C5_8 1_555 1_555
C5_8 C11_8 1_555 1_555
C11_8 H3_8 1_555 1_555
C16_8 C5_8 1_555 1_555
H9_8 C16_8 1_555 1_555
O10_3 C2_8 1_555 1_555
O13_3 C2_8 1_555 1_555
O7_8 C7_8 1_555 1_555
C2_8 C8_8 1_555 1_555
C4_8 H1_8 1_555 1_555
C7_8 C10_8 1_555 1_555
C8_8 C4_8 1_555 1_555
C9_8 C13_8 1_555 1_555
C12_8 C7_8 1_555 1_555
H4_8 C12_8 1_555 1_555
H5_8 C13_8 1_555 1_555
C14_8 O7_8 1_555 1_555
H6_8 C14_8 1_555 1_555
H7_8 C14_8 1_555 1_555
C15_8 C9_8 1_555 1_555
H8_8 C15_8 1_555 1_555
C8_8 C12_8 1_555 1_555
C9_8 C14_8 1_555 1_555
O11_2 C3_8 1_555 1_555
O14_2 C3_8 1_555 1_555
O8_8 Dy5_2 1_555 1_555
C3_8 C6_8 1_555 1_555
O9_8 Dy5_2 1_555 1_555
N1_8 C17_8 1_555 1_555
N2_8 C18_8 1_555 1_555
C17_8 O8_8 1_555 1_555
H10_8 C17_8 1_555 1_555
C18_8 O9_8 1_555 1_555
H11_8 C18_8 1_555 1_555
C19_8 N1_8 1_555 1_555
H12_8 C19_8 1_555 1_555
H13_8 C19_8 1_555 1_555
H14_8 C19_8 1_555 1_555
C20_8 N2_8 1_555 1_555
H15_8 C20_8 1_555 1_555
H16_5 C20_8 1_555 1_555
H17_8 C20_8 1_555 1_555
C21_8 N1_8 1_555 1_555
H18_8 C21_8 1_555 1_555
H19_8 C21_8 1_555 1_555
H20_8 C21_8 1_555 1_555
C22_5 N2_8 1_555 1_555
H21_5 C22_5 1_555 1_555
H22_5 C22_5 1_555 1_555
H23_5 C22_5 1_555 1_555
H21_6 C22_6 1_555 1_555
H22_6 C22_6 1_555 1_555
H23_6 C22_6 1_555 1_555
H21_7 C22_7 1_555 1_555
H22_7 C22_7 1_555 1_555
H23_7 C22_7 1_555 1_555
H21_8 C22_8 1_555 1_555
H22_8 C22_8 1_555 1_555
H23_8 C22_8 1_555 1_555

#END
