
###############################################################################
#
# This file contains modified crystal structure data generated from the
# MOF subset of the Cambridge Structural Database (CSD) v543 
# hosted by the Cambridge Crystallographic Data Centre (CCDC).
#
# This work is licensed under the Creative Commons
# Attribution-NonCommercial-ShareAlike 4.0 International License.
# To view a copy of this license, visit
# http://creativecommons.org/licenses/by-nc-sa/4.0/
# or send a letter to
# Creative Commons, PO Box 1866, Mountain View, CA 94042, USA.
#
# CIF created using the CSD Python API on 29 September 2022
# The structure has been converted into the P1 space group
# The structure has a 3D framework
# The original CSD entry DAXKOE is in the monoclinic crystal system
# The framework has been calculated to contain at least 10.0% void space
# The void calculation uses a probe of radius 1.32A, grid spacing 0.4
# The framework is charged, counterions have been retained in the structure
#
###############################################################################

data_DAXKOE
_chemical_formula_moiety         '(C48 H16 In3 N16 O32 4-)n'
_symmetry_cell_setting           triclinic
_symmetry_space_group_name_H-M   'P 1'
_symmetry_Int_Tables_number      1
_space_group_name_Hall           'P 1'
loop_
_symmetry_equiv_pos_site_id
_symmetry_equiv_pos_as_xyz
1 x,y,z
_cell_length_a                   10.828(1)
_cell_length_b                   17.088(1)
_cell_length_c                   11.467(1)
_cell_angle_alpha                90
_cell_angle_beta                 106.84(1)
_cell_angle_gamma                90
_cell_volume                     2030.74
loop_
_atom_site_label
_atom_site_type_symbol
_atom_site_fract_x
_atom_site_fract_y
_atom_site_fract_z
In2 In 0.0000 0.63697(2) 0.2500
C8 C 0.0995(4) 0.5506(2) 0.0351(3)
H4 H 0.1688 0.5851 0.0577
N5 N 0.0016(3) 0.55767(19) 0.0835(3)
In1 In 0.0000 0.36303(2) 0.7500
N4 N 0.1486(3) 0.2893(2) 0.9191(3)
N6 N 0.0016(3) 0.44233(19) 0.5835(3)
C9 C 0.0976(4) 0.4913(2) 0.9506(3)
O6 O 0.1211(3) 0.28762(17) 0.6786(2)
C12 C 0.2035(4) 0.4810(2) 0.8910(3)
O8 O 0.1820(3) 0.43211(17) 0.8054(2)
O10 O 0.3034(3) 0.5199(2) 0.9313(3)
C2 C 0.0995(4) 0.4494(2) 0.5351(3)
H2 H 0.1688 0.4149 0.5577
C3 C 0.0976(4) 0.5087(2) 0.4506(3)
C4 C 0.2366(4) 0.2499(2) 0.8804(4)
C5 C 0.2171(4) 0.2489(3) 0.7439(4)
O2 O 0.2911(4) 0.2105(2) 0.7046(3)
C6 C 0.2035(4) 0.5190(2) 0.3910(3)
O3 O 0.1820(3) 0.56789(17) 0.3054(2)
O4 O 0.3034(3) 0.4801(2) 0.4313(3)
C7 C 0.3381(4) 0.2106(3) 0.9614(4)
H3 H 0.3976 0.1838 0.9320
In1_2 In 0.5000 0.86303(2) 0.7500
N1 N 0.3514(3) 0.7893(2) 0.5809(3)
C1 C 0.3381(4) 0.7894(3) 0.4614(4)
H1 H 0.3976 0.8162 0.4320
C2_2 C 0.4005(4) 0.9494(2) 0.9649(3)
H2_2 H 0.3312 0.9149 0.9423
N2 N 0.4984(3) 0.94233(19) 0.9165(3)
C4_2 C 0.2634(4) 0.7499(2) 0.6196(4)
C5_2 C 0.2829(4) 0.7489(3) 0.7561(4)
O1 O 0.3789(3) 0.78762(17) 0.8214(2)
O2_2 O 0.2089(4) 0.7105(2) 0.7954(3)
N3 N 0.1486(3) 0.7107(2) 0.4191(3)
N4_2 N 0.6486(3) 0.7893(2) 0.9191(3)
C7_2 C 0.1619(4) 0.7106(3) 0.5386(4)
H3_2 H 0.1024 0.6838 0.5680
N6_2 N 0.5016(3) 0.94233(19) 0.5835(3)
C9_2 C 0.5976(4) 0.9913(2) 0.9506(3)
C10 C 0.2366(4) 0.7501(2) 0.3804(4)
C11 C 0.2171(4) 0.7511(3) 0.2439(4)
O5 O 0.1211(3) 0.71238(17) 0.1786(2)
O6_2 O 0.6211(3) 0.78762(17) 0.6786(2)
O7 O 0.2911(4) 0.7895(2) 0.2046(3)
C12_2 C 0.7035(4) 0.9810(2) 0.8910(3)
O8_2 O 0.6820(3) 0.93211(17) 0.8054(2)
O9 O 0.3180(3) 0.93211(17) 0.6946(2)
C2_3 C 0.5995(4) 0.9494(2) 0.5351(3)
H2_3 H 0.6688 0.9149 0.5577
C4_3 C 0.7366(4) 0.7499(2) 0.8804(4)
C5_3 C 0.7171(4) 0.7489(3) 0.7439(4)
O2_3 O 0.7911(4) 0.7105(2) 0.7046(3)
O4_2 O 0.8034(3) 0.9801(2) 0.4313(3)
C7_3 C 0.8381(4) 0.7106(3) 0.9614(4)
H3_3 H 0.8976 0.6838 0.9320
C9_3 C 0.4024(4) 0.9913(2) 0.5494(3)
C12_3 C 0.2965(4) 0.9810(2) 0.6090(3)
C3_2 C 0.9024(4) 0.5087(2) 0.0494(3)
C6_2 C 0.7965(4) 0.5190(2) 0.1090(3)
O3_2 O 0.8180(3) 0.56789(17) 0.1946(2)
O4_3 O 0.6966(3) 0.4801(2) 0.0687(3)
In2_2 In 1.0000 0.63697(2) 0.2500
In1_3 In 1.0000 0.36303(2) 0.7500
N1_2 N 0.8514(3) 0.2893(2) 0.5809(3)
C1_2 C 0.8381(4) 0.2894(3) 0.4614(4)
H1_2 H 0.8976 0.3162 0.4320
C2_4 C 0.9005(4) 0.4494(2) 0.9649(3)
H2_4 H 0.8312 0.4149 0.9423
N2_2 N 0.9984(3) 0.44233(19) 0.9165(3)
C4_4 C 0.7634(4) 0.2499(2) 0.6196(4)
C5_4 C 0.7829(4) 0.2489(3) 0.7561(4)
O1_2 O 0.8789(3) 0.28762(17) 0.8214(2)
O2_4 O 0.7089(4) 0.2105(2) 0.7954(3)
In3 In 0.5000 0.13697(2) 0.2500
N3_2 N 0.6486(3) 0.2107(2) 0.4191(3)
C7_4 C 0.6619(4) 0.2106(3) 0.5386(4)
H3_4 H 0.6024 0.1838 0.5680
C10_2 C 0.7366(4) 0.2501(2) 0.3804(4)
C11_2 C 0.7171(4) 0.2511(3) 0.2439(4)
O5_2 O 0.6211(3) 0.21238(17) 0.1786(2)
O7_2 O 0.7911(4) 0.2895(2) 0.2046(3)
O9_2 O 0.8180(3) 0.43211(17) 0.6946(2)
C1_3 C 0.1619(4) 0.2894(3) 0.0386(4)
H1_3 H 0.1024 0.3162 0.0680
N3_3 N 0.3514(3) 0.2107(2) 0.0809(3)
C10_3 C 0.2634(4) 0.2501(2) 0.1196(4)
C11_3 C 0.2829(4) 0.2511(3) 0.2561(4)
O5_3 O 0.3789(3) 0.21238(17) 0.3214(2)
O7_3 O 0.2089(4) 0.2895(2) 0.2954(3)
C8_2 C 0.9005(4) 0.5506(2) 0.4649(3)
H4_2 H 0.8312 0.5851 0.4423
N5_2 N 0.9984(3) 0.55767(19) 0.4165(3)
C9_4 C 0.9024(4) 0.4913(2) 0.5494(3)
C12_4 C 0.7965(4) 0.4810(2) 0.6090(3)
O10_2 O 0.6966(3) 0.5199(2) 0.5687(3)
C3_3 C 0.4024(4) 0.0087(2) 0.0494(3)
C6_3 C 0.2965(4) 0.0190(2) 0.1090(3)
O3_3 O 0.3180(3) 0.06789(17) 0.1946(2)
C8_3 C 0.5995(4) 0.0506(2) 0.0351(3)
H4_3 H 0.6688 0.0851 0.0577
N5_3 N 0.5016(3) 0.05767(19) 0.0835(3)
C3_4 C 0.5976(4) 0.0087(2) 0.4506(3)
C6_4 C 0.7035(4) 0.0190(2) 0.3910(3)
O3_4 O 0.6820(3) 0.06789(17) 0.3054(2)
C8_4 C 0.4005(4) 0.0506(2) 0.4649(3)
H4_4 H 0.3312 0.0851 0.4423
N5_4 N 0.4984(3) 0.05767(19) 0.4165(3)
O10_3 O 0.1966(3) 0.0199(2) 0.5687(3)
C1_4 C 0.6619(4) 0.7894(3) 0.0386(4)
H1_4 H 0.6024 0.8162 0.0680
N3_4 N 0.8514(3) 0.7107(2) 0.0809(3)
C10_4 C 0.7634(4) 0.7501(2) 0.1196(4)
C11_4 C 0.7829(4) 0.7511(3) 0.2561(4)
O5_4 O 0.8789(3) 0.71238(17) 0.3214(2)
O7_4 O 0.7089(4) 0.7895(2) 0.2954(3)
O10_4 O 0.8034(3) 0.0199(2) 0.9313(3)
O4_4 O 0.1966(3) 0.9801(2) 0.0687(3)
loop_
_geom_bond_atom_site_label_1
_geom_bond_atom_site_label_2
_geom_bond_site_symmetry_1
_geom_bond_site_symmetry_2
C8 H4 1_555 1_555
In2 N5 1_555 1_555
C8 N5 1_555 1_555
N4 In1 1_555 1_555
N6 In1 1_555 1_555
O6 In1 1_555 1_555
C12 C9 1_555 1_555
O8 In1 1_555 1_555
O10 C12 1_555 1_555
C12 O8 1_555 1_555
C2 H2 1_555 1_555
C3 C2 1_555 1_555
C4 N4 1_555 1_555
C5 C4 1_555 1_555
O2 C5 1_555 1_555
C6 C3 1_555 1_555
O3 C6 1_555 1_555
O4 C6 1_555 1_555
In2 O3 1_555 1_555
C7 C4 1_555 1_555
H3 C7 1_555 1_555
C2 N6 1_555 1_555
C5 O6 1_555 1_555
In1_2 N1 1_555 1_555
N1 C1 1_555 1_555
C1 H1 1_555 1_555
C2_2 H2_2 1_555 1_555
N2 In1_2 1_555 1_555
C4_2 N1 1_555 1_555
C5_2 C4_2 1_555 1_555
O1 In1_2 1_555 1_555
O2_2 C5_2 1_555 1_555
In2 N3 1_555 1_555
N3 C7_2 1_555 1_555
N4_2 In1_2 1_555 1_555
C7_2 C4_2 1_555 1_555
H3_2 C7_2 1_555 1_555
N6_2 In1_2 1_555 1_555
C9_2 N2 1_555 1_555
C10 C1 1_555 1_555
C11 C10 1_555 1_555
O5 In2 1_555 1_555
O6_2 In1_2 1_555 1_555
O7 C11 1_555 1_555
C12_2 C9_2 1_555 1_555
O8_2 In1_2 1_555 1_555
O9 In1_2 1_555 1_555
C2_2 N2 1_555 1_555
C5_2 O1 1_555 1_555
N3 C10 1_555 1_555
C11 O5 1_555 1_555
C12_2 O8_2 1_555 1_555
C2_3 H2_3 1_555 1_555
C4_3 N4_2 1_555 1_555
C5_3 C4_3 1_555 1_555
O2_3 C5_3 1_555 1_555
C7_3 C4_3 1_555 1_555
H3_3 C7_3 1_555 1_555
C9_3 N6_2 1_555 1_555
C12_3 C9_3 1_555 1_555
C2_3 N6_2 1_555 1_555
C5_3 O6_2 1_555 1_555
C12_3 O9 1_555 1_555
C6_2 C3_2 1_555 1_555
O3_2 C6_2 1_555 1_555
O4_3 C6_2 1_555 1_555
In2_2 O3_2 1_555 1_555
In1_3 N1_2 1_555 1_555
N1_2 C1_2 1_555 1_555
C1_2 H1_2 1_555 1_555
C2_4 H2_4 1_555 1_555
N2_2 In1_3 1_555 1_555
C4_4 N1_2 1_555 1_555
C5_4 C4_4 1_555 1_555
O1_2 In1_3 1_555 1_555
O2_4 C5_4 1_555 1_555
In3 N3_2 1_555 1_555
N3_2 C7_4 1_555 1_555
C7_4 C4_4 1_555 1_555
H3_4 C7_4 1_555 1_555
C10_2 C1_2 1_555 1_555
C11_2 C10_2 1_555 1_555
O5_2 In3 1_555 1_555
O7_2 C11_2 1_555 1_555
O9_2 In1_3 1_555 1_555
C2_4 N2_2 1_555 1_555
C5_4 O1_2 1_555 1_555
N3_2 C10_2 1_555 1_555
C11_2 O5_2 1_555 1_555
C1_3 H1_3 1_555 1_555
In3 N3_3 1_555 1_555
C10_3 C1_3 1_555 1_555
C11_3 C10_3 1_555 1_555
O5_3 In3 1_555 1_555
O7_3 C11_3 1_555 1_555
N3_3 C10_3 1_555 1_555
C11_3 O5_3 1_555 1_555
C8_2 H4_2 1_555 1_555
C12_4 C9_4 1_555 1_555
O10_2 C12_4 1_555 1_555
In2_2 N5_2 1_555 1_555
C8_2 N5_2 1_555 1_555
C8_2 C9_4 1_555 1_555
C12_4 O9_2 1_555 1_555
C6_3 C3_3 1_555 1_555
O3_3 C6_3 1_555 1_555
In3 O3_3 1_555 1_555
C8_3 H4_3 1_555 1_555
N5_3 C3_3 1_555 1_555
In3 N5_3 1_555 1_555
C8_3 N5_3 1_555 1_555
C6_4 C3_4 1_555 1_555
O3_4 C6_4 1_555 1_555
In3 O3_4 1_555 1_555
C8_4 H4_4 1_555 1_555
N5_4 C3_4 1_555 1_555
In3 N5_4 1_555 1_555
C8_4 N5_4 1_555 1_555
C1_4 H1_4 1_555 1_555
In2_2 N3_4 1_555 1_555
C10_4 C1_4 1_555 1_555
C11_4 C10_4 1_555 1_555
O5_4 In2_2 1_555 1_555
O7_4 C11_4 1_555 1_555
N3_4 C10_4 1_555 1_555
C11_4 O5_4 1_555 1_555

#END
