
###############################################################################
#
# This file contains modified crystal structure data generated from the
# MOF subset of the Cambridge Structural Database (CSD) v543 
# hosted by the Cambridge Crystallographic Data Centre (CCDC).
#
# This work is licensed under the Creative Commons
# Attribution-NonCommercial-ShareAlike 4.0 International License.
# To view a copy of this license, visit
# http://creativecommons.org/licenses/by-nc-sa/4.0/
# or send a letter to
# Creative Commons, PO Box 1866, Mountain View, CA 94042, USA.
#
# CIF created using the CSD Python API on 29 September 2022
# The structure has been converted into the P1 space group
# The structure has a 3D framework
# The original CSD entry DAXLEX is in the orthorhombic crystal system
# The framework has been calculated to contain at least 10.0% void space
# The void calculation uses a probe of radius 1.32A, grid spacing 0.4
# H atom positions have been added when not included in the experimental data
#
###############################################################################

data_DAXLEX
_chemical_formula_moiety         '(C144 H112 Cd8 N24 O50)n'
_symmetry_cell_setting           triclinic
_symmetry_space_group_name_H-M   'P 1'
_symmetry_Int_Tables_number      1
_space_group_name_Hall           'P 1'
loop_
_symmetry_equiv_pos_site_id
_symmetry_equiv_pos_as_xyz
1 x,y,z
_cell_length_a                   25.123(3)
_cell_length_b                   12.4642(16)
_cell_length_c                   15.3354(19)
_cell_angle_alpha                90
_cell_angle_beta                 90
_cell_angle_gamma                90
_cell_volume                     4802.1
loop_
_atom_site_label
_atom_site_type_symbol
_atom_site_fract_x
_atom_site_fract_y
_atom_site_fract_z
C9 C 0.1469(3) 0.0406(6) 0.1655(5)
H5 H 0.1124 0.0619 0.1790
C10 C 0.1888(3) 0.1043(6) 0.1883(5)
H6 H 0.1826 0.1699 0.2152
N3 N 0.2394(2) 0.0726(4) 0.1720(4)
O6 O 0.2798(2) 0.1332(5) 0.1933(4)
H27 H 0.300187 0.152264 0.140034
O1 O 0.2935(2) 0.0025(3) 0.9743(3)
Cd4 Cd 0.264922(14) 0.16975(3) 0.92466(5)
C1 C 0.3779(3) 0.9614(6) 0.0194(5)
C2 C 0.4123(3) 0.9230(7) 0.0808(5)
H2 H 0.4481 0.9134 0.0677
C3 C 0.3928(3) 0.8983(7) 0.1634(5)
H3 H 0.4155 0.8708 0.2058
C4 C 0.3397(3) 0.9150(5) 0.1820(5)
C5 C 0.3069(2) 0.9539(5) 0.1191(4)
C6 C 0.2496(2) 0.9785(5) 0.1325(4)
C7 C 0.2071(3) 0.9114(5) 0.1041(5)
C8 C 0.1554(3) 0.9441(6) 0.1221(5)
H4 H 0.1267 0.9018 0.1053
C11 C 0.3178(4) 0.8829(6) 0.2711(4)
C12 C 0.2184(3) 0.8115(5) 0.0533(4)
N2 N 0.3266(2) 0.9743(4) 0.0384(3)
O2 O 0.3454(3) 0.8258(5) 0.3192(4)
O3 O 0.2725(2) 0.9102(5) 0.2912(3)
O4 O 0.26539(19) 0.7783(4) 0.0490(3)
O5 O 0.1800(2) 0.7697(4) 0.0144(3)
C25 C 0.6221(3) 0.0386(6) 0.0194(5)
C26 C 0.5877(3) 0.0770(7) 0.0808(5)
H20 H 0.5519 0.0866 0.0677
C27 C 0.6072(3) 0.1017(7) 0.1634(5)
H21 H 0.5845 0.1292 0.2058
C28 C 0.6603(3) 0.0850(5) 0.1820(5)
C29 C 0.6931(2) 0.0461(5) 0.1191(4)
C30 C 0.7504(2) 0.0215(5) 0.1325(4)
C31 C 0.7929(3) 0.0886(5) 0.1041(5)
C32 C 0.8446(3) 0.0559(6) 0.1221(5)
H22 H 0.8733 0.0982 0.1053
C35 C 0.6822(4) 0.1171(6) 0.2711(4)
C36 C 0.7816(3) 0.1885(5) 0.0533(4)
N5 N 0.6734(2) 0.0257(4) 0.0384(3)
O9 O 0.6546(3) 0.1742(5) 0.3192(4)
O10 O 0.7275(2) 0.0898(5) 0.2912(3)
O11 O 0.73461(19) 0.2217(4) 0.0490(3)
O12 O 0.8200(2) 0.2303(4) 0.0144(3)
Cd5 Cd 0.735078(14) 0.16975(3) 0.42466(5)
Cd6 Cd 0.264922(14) 0.83025(3) 0.42466(5)
H1 H 0.3904 0.9786 0.9641
C13 C 0.3609(3) 0.6605(6) 0.9630(5)
H7 H 0.3538 0.7287 0.9848
C14 C 0.4126(3) 0.6228(7) 0.9643(5)
H8 H 0.4400 0.6660 0.9851
C15 C 0.4235(2) 0.5191(5) 0.9342(7)
C16 C 0.3819(2) 0.4589(6) 0.9035(4)
H9 H 0.3874 0.3893 0.8836
C17 C 0.3323(3) 0.5033(6) 0.9027(4)
H10 H 0.3046 0.4621 0.8807
C18 C 0.4780(2) 0.4722(6) 0.9379(7)
H11 H 0.4809 0.3979 0.9403
Cd1 Cd 0.235078(14) 0.66975(3) 0.92466(5)
N1 N 0.32077(17) 0.6018(4) 0.9313(5)
O7 O 0.2725(2) 0.8221(4) 0.8600(4)
H12 H 0.2803 0.8727 0.8919
H13 H 0.2766 0.8347 0.8045
C19 C 0.6391(3) 0.3395(6) 0.9630(5)
H14 H 0.6462 0.2713 0.9848
C20 C 0.5874(3) 0.3772(7) 0.9643(5)
H15 H 0.5600 0.3340 0.9851
C21 C 0.5765(2) 0.4809(5) 0.9342(7)
C22 C 0.6181(2) 0.5411(6) 0.9035(4)
H16 H 0.6126 0.6107 0.8836
C23 C 0.6677(3) 0.4967(6) 0.9027(4)
H17 H 0.6954 0.5379 0.8807
C24 C 0.5220(2) 0.5278(6) 0.9379(7)
H18 H 0.5191 0.6021 0.9403
N4 N 0.67923(17) 0.3982(4) 0.9313(5)
H19 H 0.6096 0.0214 0.9641
Cd2 Cd 0.764922(14) 0.33025(3) 0.92466(5)
O14 O 0.7275(2) 0.1779(4) 0.8600(4)
H25 H 0.7197 0.1273 0.8919
H26 H 0.7234 0.1653 0.8045
O15 O 0.7935(2) 0.4975(3) 0.9743(3)
O16 O 0.2065(2) 0.5025(3) 0.9743(3)
O17 O 0.8454(3) 0.3258(5) 0.8192(4)
O18 O 0.1546(3) 0.6742(5) 0.8192(4)
O19 O 0.7725(2) 0.4102(5) 0.7912(3)
O20 O 0.2275(2) 0.5898(5) 0.7912(3)
O8 O 0.7065(2) 0.9975(3) 0.9743(3)
Cd3 Cd 0.735078(14) 0.83025(3) 0.92466(5)
C25_2 C 0.1221(3) 0.4614(6) 0.0194(5)
C26_2 C 0.0877(3) 0.4230(7) 0.0808(5)
H20_2 H 0.0519 0.4134 0.0677
C27_2 C 0.1072(3) 0.3983(7) 0.1634(5)
H21_2 H 0.0845 0.3708 0.2058
C28_2 C 0.1603(3) 0.4150(5) 0.1820(5)
C29_2 C 0.1931(2) 0.4539(5) 0.1191(4)
C30_2 C 0.2504(2) 0.4785(5) 0.1325(4)
C31_2 C 0.2929(3) 0.4114(5) 0.1041(5)
C32_2 C 0.3446(3) 0.4441(6) 0.1221(5)
H22_2 H 0.3733 0.4018 0.1053
C33 C 0.3531(3) 0.5406(6) 0.1655(5)
H23 H 0.3876 0.5619 0.1790
C34 C 0.3112(3) 0.6043(6) 0.1883(5)
H24 H 0.3174 0.6699 0.2152
C35_2 C 0.1822(4) 0.3829(6) 0.2711(4)
C36_2 C 0.2816(3) 0.3115(5) 0.0533(4)
N5_2 N 0.1734(2) 0.4743(4) 0.0384(3)
N6 N 0.2606(2) 0.5726(4) 0.1720(4)
O9_2 O 0.1546(3) 0.3258(5) 0.3192(4)
O10_2 O 0.2275(2) 0.4102(5) 0.2912(3)
O11_2 O 0.23461(19) 0.2783(4) 0.0490(3)
O12_2 O 0.3200(2) 0.2697(4) 0.0144(3)
O13 O 0.2202(2) 0.6332(5) 0.1933(4)
Cd5_2 Cd 0.235078(14) 0.33025(3) 0.42466(5)
H28 H 0.199813 0.652264 0.140034
C19_2 C 0.1391(3) 0.1605(6) 0.9630(5)
H14_2 H 0.1462 0.2287 0.9848
C20_2 C 0.0874(3) 0.1228(7) 0.9643(5)
H15_2 H 0.0600 0.1660 0.9851
C21_2 C 0.0765(2) 0.0191(5) 0.9342(7)
C23_2 C 0.1677(3) 0.0033(6) 0.9027(4)
N4_2 N 0.17923(17) 0.1018(4) 0.9313(5)
H19_2 H 0.1096 0.4786 0.9641
O14_2 O 0.2275(2) 0.3221(4) 0.8600(4)
H25_2 H 0.2197 0.3727 0.8919
H26_2 H 0.2234 0.3347 0.8045
O17_2 O 0.3454(3) 0.1742(5) 0.8192(4)
O19_2 O 0.2725(2) 0.0898(5) 0.7912(3)
C1_2 C 0.8779(3) 0.5386(6) 0.0194(5)
C2_2 C 0.9123(3) 0.5770(7) 0.0808(5)
H2_2 H 0.9481 0.5866 0.0677
C3_2 C 0.8928(3) 0.6017(7) 0.1634(5)
H3_2 H 0.9155 0.6292 0.2058
C4_2 C 0.8397(3) 0.5850(5) 0.1820(5)
C5_2 C 0.8069(2) 0.5461(5) 0.1191(4)
C6_2 C 0.7496(2) 0.5215(5) 0.1325(4)
C7_2 C 0.7071(3) 0.5886(5) 0.1041(5)
C8_2 C 0.6554(3) 0.5559(6) 0.1221(5)
H4_2 H 0.6267 0.5982 0.1053
C9_2 C 0.6469(3) 0.4594(6) 0.1655(5)
H5_2 H 0.6124 0.4381 0.1790
C10_2 C 0.6888(3) 0.3957(6) 0.1883(5)
H6_2 H 0.6826 0.3301 0.2152
C11_2 C 0.8178(4) 0.6171(6) 0.2711(4)
C12_2 C 0.7184(3) 0.6885(5) 0.0533(4)
N2_2 N 0.8266(2) 0.5257(4) 0.0384(3)
N3_2 N 0.7394(2) 0.4274(4) 0.1720(4)
O2_2 O 0.8454(3) 0.6742(5) 0.3192(4)
O3_2 O 0.7725(2) 0.5898(5) 0.2912(3)
O4_2 O 0.76539(19) 0.7217(4) 0.0490(3)
O5_2 O 0.6800(2) 0.7303(4) 0.0144(3)
O6_2 O 0.7798(2) 0.3668(5) 0.1933(4)
Cd6_2 Cd 0.764922(14) 0.66975(3) 0.42466(5)
H27_2 H 0.800187 0.347736 0.140034
H1_2 H 0.8904 0.5214 0.9641
C13_2 C 0.8609(3) 0.8395(6) 0.9630(5)
H7_2 H 0.8538 0.7713 0.9848
C14_2 C 0.9126(3) 0.8772(7) 0.9643(5)
H8_2 H 0.9400 0.8340 0.9851
C15_2 C 0.9235(2) 0.9809(5) 0.9342(7)
C17_2 C 0.8323(3) 0.9967(6) 0.9027(4)
N1_2 N 0.82077(17) 0.8982(4) 0.9313(5)
O7_2 O 0.7725(2) 0.6779(4) 0.8600(4)
H12_2 H 0.7803 0.6273 0.8919
H13_2 H 0.7766 0.6653 0.8045
O18_2 O 0.6546(3) 0.8258(5) 0.8192(4)
O20_2 O 0.7275(2) 0.9102(5) 0.7912(3)
C19_3 C 0.1391(3) 0.8395(6) 0.4630(5)
H14_3 H 0.1462 0.7713 0.4848
C20_3 C 0.0874(3) 0.8772(7) 0.4643(5)
H15_3 H 0.0600 0.8340 0.4851
C21_3 C 0.0765(2) 0.9809(5) 0.4342(7)
C23_3 C 0.1677(3) 0.9967(6) 0.4027(4)
N4_3 N 0.17923(17) 0.8982(4) 0.4313(5)
C25_3 C 0.1221(3) 0.5386(6) 0.5194(5)
H19_3 H 0.1096 0.5214 0.4641
C26_3 C 0.0877(3) 0.5770(7) 0.5808(5)
H20_3 H 0.0519 0.5866 0.5677
C27_3 C 0.1072(3) 0.6017(7) 0.6634(5)
H21_3 H 0.0845 0.6292 0.7058
C28_3 C 0.1603(3) 0.5850(5) 0.6820(5)
C29_3 C 0.1931(2) 0.5461(5) 0.6191(4)
C30_3 C 0.2504(2) 0.5215(5) 0.6325(4)
C31_3 C 0.2929(3) 0.5886(5) 0.6041(5)
C32_3 C 0.3446(3) 0.5559(6) 0.6221(5)
H22_3 H 0.3733 0.5982 0.6053
C33_2 C 0.3531(3) 0.4594(6) 0.6655(5)
H23_2 H 0.3876 0.4381 0.6790
C34_2 C 0.3112(3) 0.3957(6) 0.6883(5)
H24_2 H 0.3174 0.3301 0.7152
C35_3 C 0.1822(4) 0.6171(6) 0.7711(4)
C36_3 C 0.2816(3) 0.6885(5) 0.5533(4)
N5_3 N 0.1734(2) 0.5257(4) 0.5384(3)
N6_2 N 0.2606(2) 0.4274(4) 0.6720(4)
O8_2 O 0.2065(2) 0.4975(3) 0.4743(3)
O11_3 O 0.23461(19) 0.7217(4) 0.5490(3)
O12_3 O 0.3200(2) 0.7303(4) 0.5144(3)
O13_2 O 0.2202(2) 0.3668(5) 0.6933(4)
O14_3 O 0.2275(2) 0.6779(4) 0.3600(4)
H25_3 H 0.2197 0.6273 0.3919
H26_3 H 0.2234 0.6653 0.3045
O15_2 O 0.2935(2) 0.9975(3) 0.4743(3)
H28_2 H 0.199813 0.347736 0.640034
C1_3 C 0.8779(3) 0.4614(6) 0.5194(5)
H1_3 H 0.8904 0.4786 0.4641
C2_3 C 0.9123(3) 0.4230(7) 0.5808(5)
H2_3 H 0.9481 0.4134 0.5677
C3_3 C 0.8928(3) 0.3983(7) 0.6634(5)
H3_3 H 0.9155 0.3708 0.7058
C4_3 C 0.8397(3) 0.4150(5) 0.6820(5)
C5_3 C 0.8069(2) 0.4539(5) 0.6191(4)
C6_3 C 0.7496(2) 0.4785(5) 0.6325(4)
C7_3 C 0.7071(3) 0.4114(5) 0.6041(5)
C8_3 C 0.6554(3) 0.4441(6) 0.6221(5)
H4_3 H 0.6267 0.4018 0.6053
C9_3 C 0.6469(3) 0.5406(6) 0.6655(5)
H5_3 H 0.6124 0.5619 0.6790
C10_3 C 0.6888(3) 0.6043(6) 0.6883(5)
H6_3 H 0.6826 0.6699 0.7152
C11_3 C 0.8178(4) 0.3829(6) 0.7711(4)
C12_3 C 0.7184(3) 0.3115(5) 0.5533(4)
C13_3 C 0.8609(3) 0.1605(6) 0.4630(5)
H7_3 H 0.8538 0.2287 0.4848
C14_3 C 0.9126(3) 0.1228(7) 0.4643(5)
H8_3 H 0.9400 0.1660 0.4851
C15_3 C 0.9235(2) 0.0191(5) 0.4342(7)
C17_3 C 0.8323(3) 0.0033(6) 0.4027(4)
N1_3 N 0.82077(17) 0.1018(4) 0.4313(5)
N2_3 N 0.8266(2) 0.4743(4) 0.5384(3)
N3_3 N 0.7394(2) 0.5726(4) 0.6720(4)
O1_2 O 0.7935(2) 0.5025(3) 0.4743(3)
O4_3 O 0.76539(19) 0.2783(4) 0.5490(3)
O5_3 O 0.6800(2) 0.2697(4) 0.5144(3)
O6_3 O 0.7798(2) 0.6332(5) 0.6933(4)
O7_3 O 0.7725(2) 0.3221(4) 0.3600(4)
H12_3 H 0.7803 0.3727 0.3919
H13_3 H 0.7766 0.3347 0.3045
O16_2 O 0.7065(2) 0.0025(3) 0.4743(3)
H27_3 H 0.800187 0.652264 0.640034
C33_3 C 0.8531(3) 0.0406(6) 0.6655(5)
H23_3 H 0.8876 0.0619 0.6790
C34_3 C 0.8112(3) 0.1043(6) 0.6883(5)
H24_3 H 0.8174 0.1699 0.7152
N6_3 N 0.7606(2) 0.0726(4) 0.6720(4)
O13_3 O 0.7202(2) 0.1332(5) 0.6933(4)
H28_3 H 0.699813 0.152264 0.640034
C1_4 C 0.3779(3) 0.0386(6) 0.5194(5)
H1_4 H 0.3904 0.0214 0.4641
C2_4 C 0.4123(3) 0.0770(7) 0.5808(5)
H2_4 H 0.4481 0.0866 0.5677
C3_4 C 0.3928(3) 0.1017(7) 0.6634(5)
H3_4 H 0.4155 0.1292 0.7058
C4_4 C 0.3397(3) 0.0850(5) 0.6820(5)
C5_4 C 0.3069(2) 0.0461(5) 0.6191(4)
C6_4 C 0.2496(2) 0.0215(5) 0.6325(4)
C7_4 C 0.2071(3) 0.0886(5) 0.6041(5)
C8_4 C 0.1554(3) 0.0559(6) 0.6221(5)
H4_4 H 0.1267 0.0982 0.6053
C11_4 C 0.3178(4) 0.1171(6) 0.7711(4)
C12_4 C 0.2184(3) 0.1885(5) 0.5533(4)
C13_4 C 0.3609(3) 0.3395(6) 0.4630(5)
H7_4 H 0.3538 0.2713 0.4848
C14_4 C 0.4126(3) 0.3772(7) 0.4643(5)
H8_4 H 0.4400 0.3340 0.4851
C15_4 C 0.4235(2) 0.4809(5) 0.4342(7)
C16_2 C 0.3819(2) 0.5411(6) 0.4035(4)
H9_2 H 0.3874 0.6107 0.3836
C17_4 C 0.3323(3) 0.4967(6) 0.4027(4)
H10_2 H 0.3046 0.5379 0.3807
C18_2 C 0.4780(2) 0.5278(6) 0.4379(7)
H11_2 H 0.4809 0.6021 0.4403
N1_4 N 0.32077(17) 0.3982(4) 0.4313(5)
N2_4 N 0.3266(2) 0.0257(4) 0.5384(3)
O4_4 O 0.26539(19) 0.2217(4) 0.5490(3)
O5_4 O 0.1800(2) 0.2303(4) 0.5144(3)
O7_4 O 0.2725(2) 0.1779(4) 0.3600(4)
H12_4 H 0.2803 0.1273 0.3919
H13_4 H 0.2766 0.1653 0.3045
C19_4 C 0.6391(3) 0.6605(6) 0.4630(5)
H14_4 H 0.6462 0.7287 0.4848
C20_4 C 0.5874(3) 0.6228(7) 0.4643(5)
H15_4 H 0.5600 0.6660 0.4851
C21_4 C 0.5765(2) 0.5191(5) 0.4342(7)
C22_2 C 0.6181(2) 0.4589(6) 0.4035(4)
H16_2 H 0.6126 0.3893 0.3836
C23_4 C 0.6677(3) 0.5033(6) 0.4027(4)
H17_2 H 0.6954 0.4621 0.3807
C24_2 C 0.5220(2) 0.4722(6) 0.4379(7)
H18_2 H 0.5191 0.3979 0.4403
N4_4 N 0.67923(17) 0.6018(4) 0.4313(5)
C25_4 C 0.6221(3) 0.9614(6) 0.5194(5)
H19_4 H 0.6096 0.9786 0.4641
C26_4 C 0.5877(3) 0.9230(7) 0.5808(5)
H20_4 H 0.5519 0.9134 0.5677
C27_4 C 0.6072(3) 0.8983(7) 0.6634(5)
H21_4 H 0.5845 0.8708 0.7058
C28_4 C 0.6603(3) 0.9150(5) 0.6820(5)
C29_4 C 0.6931(2) 0.9539(5) 0.6191(4)
C30_4 C 0.7504(2) 0.9785(5) 0.6325(4)
C31_4 C 0.7929(3) 0.9114(5) 0.6041(5)
C32_4 C 0.8446(3) 0.9441(6) 0.6221(5)
H22_4 H 0.8733 0.9018 0.6053
C35_4 C 0.6822(4) 0.8829(6) 0.7711(4)
C36_4 C 0.7816(3) 0.8115(5) 0.5533(4)
N5_4 N 0.6734(2) 0.9743(4) 0.5384(3)
O11_4 O 0.73461(19) 0.7783(4) 0.5490(3)
O12_4 O 0.8200(2) 0.7697(4) 0.5144(3)
O14_4 O 0.7275(2) 0.8221(4) 0.3600(4)
H25_4 H 0.7197 0.8727 0.3919
H26_4 H 0.7234 0.8347 0.3045
C9_4 C 0.1469(3) 0.9594(6) 0.6655(5)
H5_4 H 0.1124 0.9381 0.6790
C10_4 C 0.1888(3) 0.8957(6) 0.6883(5)
H6_4 H 0.1826 0.8301 0.7152
N3_4 N 0.2394(2) 0.9274(4) 0.6720(4)
O6_4 O 0.2798(2) 0.8668(5) 0.6933(4)
H27_4 H 0.300187 0.847736 0.640034
C33_4 C 0.8531(3) 0.9594(6) 0.1655(5)
H23_4 H 0.8876 0.9381 0.1790
C34_4 C 0.8112(3) 0.8957(6) 0.1883(5)
H24_4 H 0.8174 0.8301 0.2152
N6_4 N 0.7606(2) 0.9274(4) 0.1720(4)
O13_4 O 0.7202(2) 0.8668(5) 0.1933(4)
H28_4 H 0.699813 0.847736 0.140034
C22_3 C 0.1181(2) 0.9589(6) 0.9035(4)
H16_3 H 0.1126 0.8893 0.8836
H17_3 H 0.1954 0.9621 0.8807
C24_3 C 0.0220(2) 0.9722(6) 0.9379(7)
H18_3 H 0.0191 0.8979 0.9403
C16_3 C 0.8819(2) 0.0411(6) 0.9035(4)
H9_3 H 0.8874 0.1107 0.8836
H10_3 H 0.8046 0.0379 0.8807
C18_3 C 0.9780(2) 0.0278(6) 0.9379(7)
H11_3 H 0.9809 0.1021 0.9403
C22_4 C 0.1181(2) 0.0411(6) 0.4035(4)
H16_4 H 0.1126 0.1107 0.3836
H17_4 H 0.1954 0.0379 0.3807
C24_4 C 0.0220(2) 0.0278(6) 0.4379(7)
H18_4 H 0.0191 0.1021 0.4403
C16_4 C 0.8819(2) 0.9589(6) 0.4035(4)
H9_4 H 0.8874 0.8893 0.3836
H10_4 H 0.8046 0.9621 0.3807
C18_4 C 0.9780(2) 0.9722(6) 0.4379(7)
H11_4 H 0.9809 0.8979 0.4403
loop_
_geom_bond_atom_site_label_1
_geom_bond_atom_site_label_2
_geom_bond_site_symmetry_1
_geom_bond_site_symmetry_2
H5 C9 1_555 1_555
C10 C9 1_555 1_555
H6 C10 1_555 1_555
O6 N3 1_555 1_555
C10 N3 1_555 1_555
O6 H27 1_555 1_555
Cd4 O1 1_555 1_555
C2 C1 1_555 1_555
H2 C2 1_555 1_555
C3 C2 1_555 1_555
H3 C3 1_555 1_555
C4 C3 1_555 1_555
C5 C4 1_555 1_555
C6 C5 1_555 1_555
C7 C6 1_555 1_555
C8 C7 1_555 1_555
H4 C8 1_555 1_555
C11 C4 1_555 1_555
C12 C7 1_555 1_555
N2 C1 1_555 1_555
O2 C11 1_555 1_555
O3 C11 1_555 1_555
O4 C12 1_555 1_555
O5 C12 1_555 1_555
C26 C25 1_555 1_555
H20 C26 1_555 1_555
C27 C26 1_555 1_555
H21 C27 1_555 1_555
C28 C27 1_555 1_555
C29 C28 1_555 1_555
C30 C29 1_555 1_555
C31 C30 1_555 1_555
C32 C31 1_555 1_555
H22 C32 1_555 1_555
C35 C28 1_555 1_555
C36 C31 1_555 1_555
N5 C25 1_555 1_555
O9 C35 1_555 1_555
O10 C35 1_555 1_555
O11 C36 1_555 1_555
O12 C36 1_555 1_555
Cd5 O9 1_555 1_555
Cd6 O2 1_555 1_555
C5 N2 1_555 1_555
O3 Cd6 1_555 1_555
C29 N5 1_555 1_555
O10 Cd5 1_555 1_555
C13 H7 1_555 1_555
C14 C13 1_555 1_555
H8 C14 1_555 1_555
C15 C14 1_555 1_555
C16 C15 1_555 1_555
H9 C16 1_555 1_555
C17 C16 1_555 1_555
H10 C17 1_555 1_555
C18 C15 1_555 1_555
H11 C18 1_555 1_555
Cd1 N1 1_555 1_555
N1 C13 1_555 1_555
O7 Cd1 1_555 1_555
H12 O7 1_555 1_555
H13 O7 1_555 1_555
C19 H14 1_555 1_555
C20 C19 1_555 1_555
H15 C20 1_555 1_555
C21 C20 1_555 1_555
C22 C21 1_555 1_555
H16 C22 1_555 1_555
C23 C22 1_555 1_555
H17 C23 1_555 1_555
C24 C18 1_555 1_555
H18 C24 1_555 1_555
N4 C19 1_555 1_555
Cd2 N4 1_555 1_555
O14 Cd2 1_555 1_555
H25 O14 1_555 1_555
H26 O14 1_555 1_555
O15 Cd2 1_555 1_555
O16 Cd1 1_555 1_555
O17 Cd2 1_555 1_555
O18 Cd1 1_555 1_555
O19 Cd2 1_555 1_555
O20 Cd1 1_555 1_555
C17 N1 1_555 1_555
C21 C24 1_555 1_555
C23 N4 1_555 1_555
Cd3 O8 1_555 1_555
C26_2 C25_2 1_555 1_555
H20_2 C26_2 1_555 1_555
C27_2 C26_2 1_555 1_555
H21_2 C27_2 1_555 1_555
C28_2 C27_2 1_555 1_555
C29_2 C28_2 1_555 1_555
C30_2 C29_2 1_555 1_555
C31_2 C30_2 1_555 1_555
C32_2 C31_2 1_555 1_555
H22_2 C32_2 1_555 1_555
C33 C32_2 1_555 1_555
H23 C33 1_555 1_555
C34 C33 1_555 1_555
H24 C34 1_555 1_555
C35_2 C28_2 1_555 1_555
C36_2 C31_2 1_555 1_555
N5_2 C25_2 1_555 1_555
N6 C30_2 1_555 1_555
O9_2 C35_2 1_555 1_555
O10_2 C35_2 1_555 1_555
O11_2 C36_2 1_555 1_555
O12_2 C36_2 1_555 1_555
O13 N6 1_555 1_555
Cd5_2 O9_2 1_555 1_555
C29_2 N5_2 1_555 1_555
C34 N6 1_555 1_555
O10_2 Cd5_2 1_555 1_555
O13 H28 1_555 1_555
C19_2 H14_2 1_555 1_555
C20_2 C19_2 1_555 1_555
H15_2 C20_2 1_555 1_555
C21_2 C20_2 1_555 1_555
N4_2 C19_2 1_555 1_555
Cd4 N4_2 1_555 1_555
O14_2 Cd4 1_555 1_555
H25_2 O14_2 1_555 1_555
H26_2 O14_2 1_555 1_555
O17_2 Cd4 1_555 1_555
O19_2 Cd4 1_555 1_555
C23_2 N4_2 1_555 1_555
C2_2 C1_2 1_555 1_555
H2_2 C2_2 1_555 1_555
C3_2 C2_2 1_555 1_555
H3_2 C3_2 1_555 1_555
C4_2 C3_2 1_555 1_555
C5_2 C4_2 1_555 1_555
C6_2 C5_2 1_555 1_555
C7_2 C6_2 1_555 1_555
C8_2 C7_2 1_555 1_555
H4_2 C8_2 1_555 1_555
C9_2 C8_2 1_555 1_555
H5_2 C9_2 1_555 1_555
C10_2 C9_2 1_555 1_555
H6_2 C10_2 1_555 1_555
C11_2 C4_2 1_555 1_555
C12_2 C7_2 1_555 1_555
N2_2 C1_2 1_555 1_555
N3_2 C6_2 1_555 1_555
O2_2 C11_2 1_555 1_555
O3_2 C11_2 1_555 1_555
O4_2 C12_2 1_555 1_555
O5_2 C12_2 1_555 1_555
O6_2 N3_2 1_555 1_555
Cd6_2 O2_2 1_555 1_555
C5_2 N2_2 1_555 1_555
C10_2 N3_2 1_555 1_555
O3_2 Cd6_2 1_555 1_555
O6_2 H27_2 1_555 1_555
C13_2 H7_2 1_555 1_555
C14_2 C13_2 1_555 1_555
H8_2 C14_2 1_555 1_555
C15_2 C14_2 1_555 1_555
Cd3 N1_2 1_555 1_555
N1_2 C13_2 1_555 1_555
O7_2 Cd3 1_555 1_555
H12_2 O7_2 1_555 1_555
H13_2 O7_2 1_555 1_555
O18_2 Cd3 1_555 1_555
O20_2 Cd3 1_555 1_555
C17_2 N1_2 1_555 1_555
C19_3 H14_3 1_555 1_555
C20_3 C19_3 1_555 1_555
H15_3 C20_3 1_555 1_555
C21_3 C20_3 1_555 1_555
N4_3 C19_3 1_555 1_555
C25_3 H19_3 1_555 1_555
C26_3 C25_3 1_555 1_555
H20_3 C26_3 1_555 1_555
C27_3 C26_3 1_555 1_555
H21_3 C27_3 1_555 1_555
C28_3 C27_3 1_555 1_555
C29_3 C28_3 1_555 1_555
C30_3 C29_3 1_555 1_555
C31_3 C30_3 1_555 1_555
C32_3 C31_3 1_555 1_555
H22_3 C32_3 1_555 1_555
C33_2 C32_3 1_555 1_555
H23_2 C33_2 1_555 1_555
C34_2 C33_2 1_555 1_555
H24_2 C34_2 1_555 1_555
C35_3 C28_3 1_555 1_555
C36_3 C31_3 1_555 1_555
Cd6 N4_3 1_555 1_555
N5_3 C25_3 1_555 1_555
N6_2 C30_3 1_555 1_555
O8_2 N5_3 1_555 1_555
O18 C35_3 1_555 1_555
O20 C35_3 1_555 1_555
O11_3 C36_3 1_555 1_555
O12_3 C36_3 1_555 1_555
O13_2 N6_2 1_555 1_555
O14_3 Cd6 1_555 1_555
H25_3 O14_3 1_555 1_555
H26_3 O14_3 1_555 1_555
Cd5_2 O8_2 1_555 1_555
O15_2 Cd6 1_555 1_555
C23_3 N4_3 1_555 1_555
C29_3 N5_3 1_555 1_555
C34_2 N6_2 1_555 1_555
Cd6 O11_3 1_555 1_555
Cd6 O12_3 1_555 1_555
O13_2 H28_2 1_555 1_555
C1_3 H1_3 1_555 1_555
C2_3 C1_3 1_555 1_555
H2_3 C2_3 1_555 1_555
C3_3 C2_3 1_555 1_555
H3_3 C3_3 1_555 1_555
C4_3 C3_3 1_555 1_555
C5_3 C4_3 1_555 1_555
C6_3 C5_3 1_555 1_555
C7_3 C6_3 1_555 1_555
C8_3 C7_3 1_555 1_555
H4_3 C8_3 1_555 1_555
C9_3 C8_3 1_555 1_555
H5_3 C9_3 1_555 1_555
C10_3 C9_3 1_555 1_555
H6_3 C10_3 1_555 1_555
C11_3 C4_3 1_555 1_555
C12_3 C7_3 1_555 1_555
C13_3 H7_3 1_555 1_555
C14_3 C13_3 1_555 1_555
H8_3 C14_3 1_555 1_555
C15_3 C14_3 1_555 1_555
Cd5 N1_3 1_555 1_555
N1_3 C13_3 1_555 1_555
N2_3 C1_3 1_555 1_555
N3_3 C6_3 1_555 1_555
O1_2 N2_3 1_555 1_555
O17 C11_3 1_555 1_555
O19 C11_3 1_555 1_555
O4_3 C12_3 1_555 1_555
O5_3 C12_3 1_555 1_555
O6_3 N3_3 1_555 1_555
O7_3 Cd5 1_555 1_555
H12_3 O7_3 1_555 1_555
H13_3 O7_3 1_555 1_555
Cd6_2 O1_2 1_555 1_555
O16_2 Cd5 1_555 1_555
C5_3 N2_3 1_555 1_555
C10_3 N3_3 1_555 1_555
C17_3 N1_3 1_555 1_555
Cd5 O4_3 1_555 1_555
Cd5 O5_3 1_555 1_555
O6_3 H27_3 1_555 1_555
H23_3 C33_3 1_555 1_555
C34_3 C33_3 1_555 1_555
H24_3 C34_3 1_555 1_555
O13_3 N6_3 1_555 1_555
C34_3 N6_3 1_555 1_555
O13_3 H28_3 1_555 1_555
C1_4 H1_4 1_555 1_555
C2_4 C1_4 1_555 1_555
H2_4 C2_4 1_555 1_555
C3_4 C2_4 1_555 1_555
H3_4 C3_4 1_555 1_555
C4_4 C3_4 1_555 1_555
C5_4 C4_4 1_555 1_555
C6_4 C5_4 1_555 1_555
C7_4 C6_4 1_555 1_555
C8_4 C7_4 1_555 1_555
H4_4 C8_4 1_555 1_555
C11_4 C4_4 1_555 1_555
C12_4 C7_4 1_555 1_555
C13_4 H7_4 1_555 1_555
C14_4 C13_4 1_555 1_555
H8_4 C14_4 1_555 1_555
C15_4 C14_4 1_555 1_555
C16_2 C15_4 1_555 1_555
H9_2 C16_2 1_555 1_555
C17_4 C16_2 1_555 1_555
H10_2 C17_4 1_555 1_555
C18_2 C15_4 1_555 1_555
H11_2 C18_2 1_555 1_555
Cd5_2 N1_4 1_555 1_555
N1_4 C13_4 1_555 1_555
N2_4 C1_4 1_555 1_555
O17_2 C11_4 1_555 1_555
O19_2 C11_4 1_555 1_555
O4_4 C12_4 1_555 1_555
O5_4 C12_4 1_555 1_555
O7_4 Cd5_2 1_555 1_555
H12_4 O7_4 1_555 1_555
H13_4 O7_4 1_555 1_555
C19_4 H14_4 1_555 1_555
C20_4 C19_4 1_555 1_555
H15_4 C20_4 1_555 1_555
C21_4 C20_4 1_555 1_555
C22_2 C21_4 1_555 1_555
H16_2 C22_2 1_555 1_555
C23_4 C22_2 1_555 1_555
H17_2 C23_4 1_555 1_555
C24_2 C18_2 1_555 1_555
H18_2 C24_2 1_555 1_555
N4_4 C19_4 1_555 1_555
C25_4 H19_4 1_555 1_555
C26_4 C25_4 1_555 1_555
H20_4 C26_4 1_555 1_555
C27_4 C26_4 1_555 1_555
H21_4 C27_4 1_555 1_555
C28_4 C27_4 1_555 1_555
C29_4 C28_4 1_555 1_555
C30_4 C29_4 1_555 1_555
C31_4 C30_4 1_555 1_555
C32_4 C31_4 1_555 1_555
H22_4 C32_4 1_555 1_555
C35_4 C28_4 1_555 1_555
C36_4 C31_4 1_555 1_555
Cd6_2 N4_4 1_555 1_555
N5_4 C25_4 1_555 1_555
O18_2 C35_4 1_555 1_555
O20_2 C35_4 1_555 1_555
O11_4 C36_4 1_555 1_555
O12_4 C36_4 1_555 1_555
O14_4 Cd6_2 1_555 1_555
H25_4 O14_4 1_555 1_555
H26_4 O14_4 1_555 1_555
C5_4 N2_4 1_555 1_555
C17_4 N1_4 1_555 1_555
Cd5_2 O4_4 1_555 1_555
Cd5_2 O5_4 1_555 1_555
C21_4 C24_2 1_555 1_555
C23_4 N4_4 1_555 1_555
C29_4 N5_4 1_555 1_555
Cd6_2 O11_4 1_555 1_555
Cd6_2 O12_4 1_555 1_555
H5_4 C9_4 1_555 1_555
C10_4 C9_4 1_555 1_555
H6_4 C10_4 1_555 1_555
O6_4 N3_4 1_555 1_555
C10_4 N3_4 1_555 1_555
O6_4 H27_4 1_555 1_555
H23_4 C33_4 1_555 1_555
C34_4 C33_4 1_555 1_555
H24_4 C34_4 1_555 1_555
O13_4 N6_4 1_555 1_555
C34_4 N6_4 1_555 1_555
O13_4 H28_4 1_555 1_555
H16_3 C22_3 1_555 1_555
H18_3 C24_3 1_555 1_555
H9_3 C16_3 1_555 1_555
H11_3 C18_3 1_555 1_555
H16_4 C22_4 1_555 1_555
H18_4 C24_4 1_555 1_555
H9_4 C16_4 1_555 1_555
H11_4 C18_4 1_555 1_555

#END
