
###############################################################################
#
# This file contains modified crystal structure data generated from the
# MOF subset of the Cambridge Structural Database (CSD) v543 
# hosted by the Cambridge Crystallographic Data Centre (CCDC).
#
# This work is licensed under the Creative Commons
# Attribution-NonCommercial-ShareAlike 4.0 International License.
# To view a copy of this license, visit
# http://creativecommons.org/licenses/by-nc-sa/4.0/
# or send a letter to
# Creative Commons, PO Box 1866, Mountain View, CA 94042, USA.
#
# CIF created using the CSD Python API on 29 September 2022
# The structure has been converted into the P1 space group
# The structure has a 3D framework
# The original CSD entry DAXNEZ is in the orthorhombic crystal system
# The framework has been calculated to contain at least 10.0% void space
# The void calculation uses a probe of radius 1.32A, grid spacing 0.4
# H atom positions have been added when not included in the experimental data
#
###############################################################################

data_DAXNEZ
_chemical_formula_moiety         '(C144 H120 Cd8 N24 O54)n'
_symmetry_cell_setting           triclinic
_symmetry_space_group_name_H-M   'P 1'
_symmetry_Int_Tables_number      1
_space_group_name_Hall           'P 1'
loop_
_symmetry_equiv_pos_site_id
_symmetry_equiv_pos_as_xyz
1 x,y,z
_cell_length_a                   24.706(3)
_cell_length_b                   12.4848(16)
_cell_length_c                   15.4204(19)
_cell_angle_alpha                90
_cell_angle_beta                 90
_cell_angle_gamma                90
_cell_volume                     4756.41
loop_
_atom_site_label
_atom_site_type_symbol
_atom_site_fract_x
_atom_site_fract_y
_atom_site_fract_z
H8 H 0.013960 0.102153 0.974354
H16 H 0.088797 0.048195 0.913771
C19 C 0.0094(3) 0.9503(7) 0.0047(6)
C21 C 0.0842(3) 0.8223(7) 0.0141(6)
H15 H 0.061436 0.775637 0.043790
H17 H 0.150573 0.731377 0.019807
O14 O 0.2463(2) 0.7040(4) 0.0697(3)
O15 O 0.3320(2) 0.7271(5) 0.0338(3)
O16 O 0.2779(3) 0.9778(4) 0.0031(3)
C25 C 0.2947(3) 0.6774(5) 0.0742(4)
C26 C 0.3084(3) 0.5810(6) 0.1261(4)
C27 C 0.2675(3) 0.5131(6) 0.1558(5)
C28 C 0.3616(4) 0.5514(7) 0.1422(5)
N5 N 0.2792(3) 0.4235(5) 0.2007(4)
C29 C 0.2081(4) 0.5336(6) 0.1439(4)
H21 H 0.389900 0.593176 0.121204
C30 C 0.3727(4) 0.4600(7) 0.1893(5)
O17 O 0.2379(3) 0.3610(6) 0.2198(4)
C31 C 0.3307(4) 0.3971(7) 0.2157(6)
N6 N 0.1881(3) 0.5017(5) 0.0678(4)
C32 C 0.1734(4) 0.5739(6) 0.2064(5)
H22 H 0.408174 0.441630 0.202812
H23 H 0.338201 0.333716 0.245138
O18 O 0.2221(3) 0.4778(4) 0.0031(3)
C33 C 0.1352(4) 0.5025(8) 0.0482(6)
C34 C 0.1946(4) 0.6133(6) 0.2929(5)
C35 C 0.1189(4) 0.5791(7) 0.1896(5)
C36 C 0.0999(4) 0.5402(8) 0.1099(7)
O19 O 0.1632(3) 0.6647(5) 0.3405(4)
O20 O 0.2429(2) 0.5931(5) 0.3114(3)
H25 H 0.095164 0.607832 0.230226
H26 H 0.062902 0.539980 0.098691
Cd6 Cd 0.23654(2) 0.68812(4) 0.44501(3)
H28 H 0.220141 0.336836 0.165445
C20 C 0.0656(3) 0.9196(6) 0.9833(5)
C22 C 0.1007(3) 0.9835(7) 0.9367(5)
C23 C 0.1380(3) 0.7968(6) 0.9992(6)
C24 C 0.1547(3) 0.9505(7) 0.9239(6)
N4 N 0.1731(3) 0.8600(5) 0.9570(4)
H18 H 0.177822 0.993429 0.891391
Cd4 Cd 0.26346(2) 0.81188(4) 0.94501(3)
O11 O 0.3368(3) 0.8353(5) 0.8405(4)
O12 O 0.2571(2) 0.9069(5) 0.8114(3)
O13 O 0.2374(3) 0.6500(4) 0.8870(5)
H19 H 0.226982 0.659417 0.834765
H20 H 0.215522 0.612257 0.916345
Cd5 Cd 0.23654(2) 0.31188(4) 0.94501(3)
H24 H 0.122842 0.478368 0.994737
Cd1 Cd 0.73654(2) 0.18812(4) 0.05499(3)
O1 O 0.6632(3) 0.1647(5) 0.1595(4)
O2 O 0.7429(2) 0.0931(5) 0.1886(3)
O3 O 0.7626(3) 0.3500(4) 0.1130(5)
N1 N 0.8269(3) 0.1400(5) 0.0430(4)
H1 H 0.773018 0.340583 0.165235
H2 H 0.784478 0.387743 0.083655
C1 C 0.8620(3) 0.2032(6) 0.0008(6)
C2 C 0.8453(3) 0.0495(7) 0.0761(6)
C5 C 0.8993(3) 0.0165(7) 0.0633(5)
H4 H 0.822178 0.006571 0.108609
C7 C 0.9344(3) 0.0804(6) 0.0167(5)
H11 H 0.877158 0.521632 0.005263
Cd2 Cd 0.76346(2) 0.68812(4) 0.05499(3)
O4 O 0.7537(2) 0.2960(4) 0.9303(3)
O5 O 0.6680(2) 0.2729(5) 0.9662(3)
O6 O 0.7221(3) 0.0222(4) 0.9969(3)
C3 C 0.7053(3) 0.3226(5) 0.9258(4)
H3 H 0.849427 0.268623 0.980193
C4 C 0.9158(3) 0.1777(7) 0.9859(6)
C6 C 0.6916(3) 0.4190(6) 0.8739(4)
H5 H 0.938564 0.224363 0.956210
C8 C 0.7325(3) 0.4869(6) 0.8442(5)
C9 C 0.6384(4) 0.4486(7) 0.8578(5)
C10 C 0.9906(3) 0.0497(7) 0.9953(6)
N2 N 0.7208(3) 0.5765(5) 0.7993(4)
C11 C 0.7919(4) 0.4664(6) 0.8561(4)
H7 H 0.610100 0.406824 0.878796
C12 C 0.6273(4) 0.5400(7) 0.8107(5)
O7 O 0.7621(3) 0.6390(6) 0.7802(4)
C13 C 0.6693(4) 0.6029(7) 0.7843(6)
N3 N 0.8119(3) 0.4983(5) 0.9322(4)
C14 C 0.8266(4) 0.4261(6) 0.7936(5)
H9 H 0.591826 0.558370 0.797188
H10 H 0.661799 0.666284 0.754862
C15 C 0.8648(4) 0.4975(8) 0.9518(6)
C16 C 0.8054(4) 0.3867(6) 0.7071(5)
C17 C 0.8811(4) 0.4209(7) 0.8104(5)
C18 C 0.9001(4) 0.4598(8) 0.8901(7)
H12 H 0.904836 0.392168 0.769774
H13 H 0.937098 0.460020 0.901309
O8 O 0.7779(3) 0.5222(4) 0.9969(3)
O9 O 0.8368(3) 0.3353(5) 0.6595(4)
O10 O 0.7571(2) 0.4069(5) 0.6886(3)
Cd3 Cd 0.76346(2) 0.31188(4) 0.55499(3)
H27 H 0.78854 0.598647 0.744355
N5_2 N 0.2208(3) 0.0765(5) 0.7007(4)
C30_2 C 0.1273(4) 0.0400(7) 0.6893(5)
O17_2 O 0.2621(3) 0.1390(6) 0.7198(4)
C31_2 C 0.1693(4) 0.1029(7) 0.7157(6)
H22_2 H 0.091826 0.058370 0.702812
H23_2 H 0.161799 0.166284 0.745138
O18_2 O 0.2779(3) 0.0222(4) 0.5031(3)
Cd5_2 Cd 0.26346(2) 0.18812(4) 0.44501(3)
H24_2 H 0.377158 0.021632 0.494737
H28_2 H 0.279859 0.163164 0.665445
O3_2 O 0.7374(3) 0.1500(4) 0.6130(5)
N1_2 N 0.6731(3) 0.3600(5) 0.5430(4)
O4_2 O 0.7463(2) 0.2040(4) 0.4303(3)
O5_2 O 0.8320(2) 0.2271(5) 0.4662(3)
O6_2 O 0.7779(3) 0.4778(4) 0.4969(3)
H1_2 H 0.726982 0.159417 0.665235
H2_2 H 0.715522 0.112257 0.583655
C1_2 C 0.6380(3) 0.2968(6) 0.5008(6)
C2_2 C 0.6547(3) 0.4505(7) 0.5761(6)
C3_2 C 0.7947(3) 0.1774(5) 0.4258(4)
H3_2 H 0.650573 0.231377 0.480193
C4_2 C 0.5842(3) 0.3223(7) 0.4859(6)
C5_2 C 0.6007(3) 0.4835(7) 0.5633(5)
H4_2 H 0.677822 0.493429 0.608609
C6_2 C 0.8084(3) 0.0810(6) 0.3739(4)
H5_2 H 0.561436 0.275637 0.456210
C7_2 C 0.5656(3) 0.4196(6) 0.5167(5)
H6 H 0.588797 0.548195 0.586229
C8_2 C 0.7675(3) 0.0131(6) 0.3442(5)
C9_2 C 0.8616(4) 0.0514(7) 0.3578(5)
C10_2 C 0.5094(3) 0.4503(7) 0.4953(6)
C11_2 C 0.7081(4) 0.0336(6) 0.3561(4)
H7_2 H 0.889900 0.093176 0.378796
H8_2 H 0.486040 0.397847 0.474354
N3_2 N 0.6881(3) 0.0017(5) 0.4322(4)
C14_2 C 0.6734(4) 0.0739(6) 0.2936(5)
C15_2 C 0.6352(4) 0.0025(8) 0.4518(6)
C16_2 C 0.6946(4) 0.1133(6) 0.2071(5)
C17_2 C 0.6189(4) 0.0791(7) 0.3104(5)
C18_2 C 0.5999(4) 0.0402(8) 0.3901(7)
H12_2 H 0.595164 0.107832 0.269774
H13_2 H 0.562902 0.039980 0.401309
C19_2 C 0.4906(3) 0.5497(7) 0.5047(6)
C20_2 C 0.4344(3) 0.5804(6) 0.4833(5)
H14 H 0.513960 0.602153 0.525646
C21_2 C 0.4158(3) 0.6777(7) 0.5141(6)
C22_2 C 0.3993(3) 0.5165(7) 0.4367(5)
C23_2 C 0.3620(3) 0.7032(6) 0.4992(6)
H15_2 H 0.438564 0.724363 0.543790
H16_2 H 0.411203 0.451805 0.413771
C24_2 C 0.3453(3) 0.5495(7) 0.4239(6)
N4_2 N 0.3269(3) 0.6400(5) 0.4570(4)
H17_2 H 0.349427 0.768623 0.519807
H18_2 H 0.322178 0.506571 0.391391
O13_2 O 0.2626(3) 0.8500(4) 0.3870(5)
O14_2 O 0.2537(2) 0.7960(4) 0.5697(3)
O15_2 O 0.1680(2) 0.7729(5) 0.5338(3)
O16_2 O 0.2221(3) 0.5222(4) 0.5031(3)
H19_2 H 0.273018 0.840583 0.334765
H20_2 H 0.284478 0.887743 0.416345
C25_2 C 0.2053(3) 0.8226(5) 0.5742(4)
C26_2 C 0.1916(3) 0.9190(6) 0.6261(4)
C27_2 C 0.2325(3) 0.9869(6) 0.6558(5)
C28_2 C 0.1384(4) 0.9486(7) 0.6422(5)
C29_2 C 0.2919(4) 0.9664(6) 0.6439(4)
H21_2 H 0.110100 0.906824 0.621204
N6_2 N 0.3119(3) 0.9983(5) 0.5678(4)
C32_2 C 0.3266(4) 0.9261(6) 0.7064(5)
C33_2 C 0.3648(4) 0.9975(8) 0.5482(6)
C34_2 C 0.3054(4) 0.8867(6) 0.7929(5)
C35_2 C 0.3811(4) 0.9209(7) 0.6896(5)
C36_2 C 0.4001(4) 0.9598(8) 0.6099(7)
H25_2 H 0.404836 0.892168 0.730226
H26_2 H 0.437098 0.960020 0.598691
N2_2 N 0.7792(3) 0.9235(5) 0.2993(4)
C12_2 C 0.8727(4) 0.9600(7) 0.3107(5)
O7_2 O 0.7379(3) 0.8610(6) 0.2802(4)
C13_2 C 0.8307(4) 0.8971(7) 0.2843(6)
H9_2 H 0.908174 0.941630 0.297188
H10_2 H 0.838201 0.833716 0.254862
H11_2 H 0.622842 0.978368 0.505263
O8_2 O 0.7221(3) 0.9778(4) 0.4969(3)
Cd2_2 Cd 0.73654(2) 0.81188(4) 0.55499(3)
H27_2 H 0.71146 0.901353 0.244355
O1_2 O 0.3368(3) 0.1647(5) 0.3405(4)
O2_2 O 0.2571(2) 0.0931(5) 0.3114(3)
O3_3 O 0.2374(3) 0.3500(4) 0.3870(5)
N1_3 N 0.1731(3) 0.1400(5) 0.4570(4)
O4_3 O 0.2463(2) 0.2960(4) 0.5697(3)
O5_3 O 0.3320(2) 0.2729(5) 0.5338(3)
H1_3 H 0.226982 0.340583 0.334765
H2_3 H 0.215522 0.387743 0.416345
C1_3 C 0.1380(3) 0.2032(6) 0.4992(6)
C2_3 C 0.1547(3) 0.0495(7) 0.4239(6)
C3_3 C 0.2947(3) 0.3226(5) 0.5742(4)
H3_3 H 0.150573 0.268623 0.519807
C4_3 C 0.0842(3) 0.1777(7) 0.5141(6)
C5_3 C 0.1007(3) 0.0165(7) 0.4367(5)
H4_3 H 0.177822 0.006571 0.391391
C6_3 C 0.3084(3) 0.4190(6) 0.6261(4)
H5_3 H 0.061436 0.224363 0.543790
C7_3 C 0.0656(3) 0.0804(6) 0.4833(5)
C8_3 C 0.2675(3) 0.4869(6) 0.6558(5)
C9_3 C 0.3616(4) 0.4486(7) 0.6422(5)
C10_3 C 0.0094(3) 0.0497(7) 0.5047(6)
N2_3 N 0.2792(3) 0.5765(5) 0.7007(4)
C11_3 C 0.2081(4) 0.4664(6) 0.6439(4)
H7_3 H 0.389900 0.406824 0.621204
C12_3 C 0.3727(4) 0.5400(7) 0.6893(5)
O7_3 O 0.2379(3) 0.6390(6) 0.7198(4)
C13_3 C 0.3307(4) 0.6029(7) 0.7157(6)
N3_3 N 0.1881(3) 0.4983(5) 0.5678(4)
C14_3 C 0.1734(4) 0.4261(6) 0.7064(5)
H9_3 H 0.408174 0.558370 0.702812
H10_3 H 0.338201 0.666284 0.745138
C15_3 C 0.1352(4) 0.4975(8) 0.5482(6)
C16_3 C 0.1946(4) 0.3867(6) 0.7929(5)
C17_3 C 0.1189(4) 0.4209(7) 0.6896(5)
C18_3 C 0.0999(4) 0.4598(8) 0.6099(7)
H11_3 H 0.122842 0.521632 0.494737
H12_3 H 0.095164 0.392168 0.730226
H13_3 H 0.062902 0.460020 0.598691
O9_2 O 0.1632(3) 0.3353(5) 0.8405(4)
O10_2 O 0.2429(2) 0.4069(5) 0.8114(3)
H27_3 H 0.21146 0.598647 0.755645
C19_3 C 0.9906(3) 0.9503(7) 0.4953(6)
C20_3 C 0.9344(3) 0.9196(6) 0.5167(5)
C21_3 C 0.9158(3) 0.8223(7) 0.4859(6)
C22_3 C 0.8993(3) 0.9835(7) 0.5633(5)
C23_3 C 0.8620(3) 0.7968(6) 0.5008(6)
H15_3 H 0.938564 0.775637 0.456210
C24_3 C 0.8453(3) 0.9505(7) 0.5761(6)
N4_3 N 0.8269(3) 0.8600(5) 0.5430(4)
H17_3 H 0.849427 0.731377 0.480193
H18_3 H 0.822178 0.993429 0.608609
O11_2 O 0.6632(3) 0.8353(5) 0.6595(4)
O12_2 O 0.7429(2) 0.9069(5) 0.6886(3)
O13_3 O 0.7626(3) 0.6500(4) 0.6130(5)
O14_3 O 0.7537(2) 0.7040(4) 0.4303(3)
O15_3 O 0.6680(2) 0.7271(5) 0.4662(3)
H19_3 H 0.773018 0.659417 0.665235
H20_3 H 0.784478 0.612257 0.583655
C25_3 C 0.7053(3) 0.6774(5) 0.4258(4)
C26_3 C 0.6916(3) 0.5810(6) 0.3739(4)
C27_3 C 0.7325(3) 0.5131(6) 0.3442(5)
C28_3 C 0.6384(4) 0.5514(7) 0.3578(5)
N5_3 N 0.7208(3) 0.4235(5) 0.2993(4)
C29_3 C 0.7919(4) 0.5336(6) 0.3561(4)
H21_3 H 0.610100 0.593176 0.378796
C30_3 C 0.6273(4) 0.4600(7) 0.3107(5)
O17_3 O 0.7621(3) 0.3610(6) 0.2802(4)
C31_3 C 0.6693(4) 0.3971(7) 0.2843(6)
N6_3 N 0.8119(3) 0.5017(5) 0.4322(4)
C32_3 C 0.8266(4) 0.5739(6) 0.2936(5)
H22_3 H 0.591826 0.441630 0.297188
H23_3 H 0.661799 0.333716 0.254862
C33_3 C 0.8648(4) 0.5025(8) 0.4518(6)
C34_3 C 0.8054(4) 0.6133(6) 0.2071(5)
C35_3 C 0.8811(4) 0.5791(7) 0.3104(5)
C36_3 C 0.9001(4) 0.5402(8) 0.3901(7)
H24_3 H 0.877158 0.478368 0.505263
O19_2 O 0.8368(3) 0.6647(5) 0.1595(4)
O20_2 O 0.7571(2) 0.5931(5) 0.1886(3)
H25_3 H 0.904836 0.607832 0.269774
H26_3 H 0.937098 0.539980 0.401309
H28_3 H 0.779859 0.336836 0.334555
H24_4 H 0.622842 0.021632 0.005263
N5_4 N 0.7792(3) 0.0765(5) 0.7993(4)
C30_4 C 0.8727(4) 0.0400(7) 0.8107(5)
O17_4 O 0.7379(3) 0.1390(6) 0.7802(4)
C31_4 C 0.8307(4) 0.1029(7) 0.7843(6)
H22_4 H 0.908174 0.058370 0.797188
H23_4 H 0.838201 0.166284 0.754862
H28_4 H 0.720141 0.163164 0.834555
O4_4 O 0.2537(2) 0.2040(4) 0.0697(3)
O5_4 O 0.1680(2) 0.2271(5) 0.0338(3)
C3_4 C 0.2053(3) 0.1774(5) 0.0742(4)
H3_4 H 0.349427 0.231377 0.019807
C4_4 C 0.4158(3) 0.3223(7) 0.0141(6)
C6_4 C 0.1916(3) 0.0810(6) 0.1261(4)
H5_4 H 0.438564 0.275637 0.043790
C8_4 C 0.2325(3) 0.0131(6) 0.1558(5)
C9_4 C 0.1384(4) 0.0514(7) 0.1422(5)
C10_4 C 0.4906(3) 0.4503(7) 0.0047(6)
C11_4 C 0.2919(4) 0.0336(6) 0.1439(4)
H7_4 H 0.110100 0.093176 0.121204
H8_3 H 0.513960 0.397847 0.025646
N3_4 N 0.3119(3) 0.0017(5) 0.0678(4)
C14_4 C 0.3266(4) 0.0739(6) 0.2064(5)
C15_4 C 0.3648(4) 0.0025(8) 0.0482(6)
C16_4 C 0.3054(4) 0.1133(6) 0.2929(5)
C17_4 C 0.3811(4) 0.0791(7) 0.1896(5)
C18_4 C 0.4001(4) 0.0402(8) 0.1099(7)
H12_4 H 0.404836 0.107832 0.230226
H13_4 H 0.437098 0.039980 0.098691
C20_4 C 0.5656(3) 0.5804(6) 0.0167(5)
C22_4 C 0.6007(3) 0.5165(7) 0.0633(5)
C23_4 C 0.6380(3) 0.7032(6) 0.0008(6)
H16_3 H 0.588797 0.451805 0.086229
C24_4 C 0.6547(3) 0.5495(7) 0.0761(6)
N4_4 N 0.6731(3) 0.6400(5) 0.0430(4)
H18_4 H 0.677822 0.506571 0.108609
O13_4 O 0.7374(3) 0.8500(4) 0.1130(5)
H19_4 H 0.726982 0.840583 0.165235
H20_4 H 0.715522 0.887743 0.083655
O3_4 O 0.2626(3) 0.1500(4) 0.8870(5)
N1_4 N 0.3269(3) 0.3600(5) 0.9570(4)
H1_4 H 0.273018 0.159417 0.834765
H2_4 H 0.284478 0.112257 0.916345
C1_4 C 0.3620(3) 0.2968(6) 0.9992(6)
C2_4 C 0.3453(3) 0.4505(7) 0.9239(6)
C5_4 C 0.3993(3) 0.4835(7) 0.9367(5)
H4_4 H 0.322178 0.493429 0.891391
C7_4 C 0.4344(3) 0.4196(6) 0.9833(5)
H6_2 H 0.411203 0.548195 0.913771
C19_4 C 0.5094(3) 0.5497(7) 0.9953(6)
H14_2 H 0.486040 0.602153 0.974354
C21_4 C 0.5842(3) 0.6777(7) 0.9859(6)
H15_4 H 0.561436 0.724363 0.956210
H17_4 H 0.650573 0.768623 0.980193
O14_4 O 0.7463(2) 0.7960(4) 0.9303(3)
O15_4 O 0.8320(2) 0.7729(5) 0.9662(3)
C25_4 C 0.7947(3) 0.8226(5) 0.9258(4)
C26_4 C 0.8084(3) 0.9190(6) 0.8739(4)
C27_4 C 0.7675(3) 0.9869(6) 0.8442(5)
C28_4 C 0.8616(4) 0.9486(7) 0.8578(5)
C29_4 C 0.7081(4) 0.9664(6) 0.8561(4)
H21_4 H 0.889900 0.906824 0.878796
N6_4 N 0.6881(3) 0.9983(5) 0.9322(4)
C32_4 C 0.6734(4) 0.9261(6) 0.7936(5)
C33_4 C 0.6352(4) 0.9975(8) 0.9518(6)
C34_4 C 0.6946(4) 0.8867(6) 0.7071(5)
C35_4 C 0.6189(4) 0.9209(7) 0.8104(5)
C36_4 C 0.5999(4) 0.9598(8) 0.8901(7)
H25_4 H 0.595164 0.892168 0.769774
H26_4 H 0.562902 0.960020 0.901309
N2_4 N 0.2208(3) 0.9235(5) 0.2007(4)
C12_4 C 0.1273(4) 0.9600(7) 0.1893(5)
O7_4 O 0.2621(3) 0.8610(6) 0.2198(4)
C13_4 C 0.1693(4) 0.8971(7) 0.2157(6)
H9_4 H 0.091826 0.941630 0.202812
H10_4 H 0.161799 0.833716 0.245138
H27_4 H 0.28854 0.901353 0.255645
H11_4 H 0.377158 0.978368 0.994737
H27_5 H 0.21146 0.401353 0.255645
H28_5 H 0.779859 0.663164 0.834555
H27_6 H 0.28854 0.0986469 0.755645
H28_6 H 0.720141 0.836836 0.334555
H28_7 H 0.220141 0.663164 0.665445
H27_7 H 0.78854 0.401353 0.244355
H27_8 H 0.71146 0.0986469 0.744355
H28_8 H 0.279859 0.836836 0.165445
H6_3 H 0.911203 0.951805 0.086229
H14_3 H 0.986040 0.897847 0.025646
H6_4 H 0.088797 0.951805 0.413771
H14_4 H 0.013960 0.897847 0.474354
H8_4 H 0.986040 0.102153 0.525646
H16_4 H 0.911203 0.048195 0.586229
loop_
_geom_bond_atom_site_label_1
_geom_bond_atom_site_label_2
_geom_bond_site_symmetry_1
_geom_bond_site_symmetry_2
H15 C21 1_555 1_555
C25 O14 1_555 1_555
C26 C25 1_555 1_555
C27 C26 1_555 1_555
C28 C26 1_555 1_555
N5 C27 1_555 1_555
C29 C27 1_555 1_555
H21 C28 1_555 1_555
C30 C28 1_555 1_555
O17 N5 1_555 1_555
C31 N5 1_555 1_555
N6 C29 1_555 1_555
C32 C29 1_555 1_555
H22 C30 1_555 1_555
H23 C31 1_555 1_555
O18 N6 1_555 1_555
C33 N6 1_555 1_555
C34 C32 1_555 1_555
C35 C32 1_555 1_555
C36 C33 1_555 1_555
O19 C34 1_555 1_555
O20 C34 1_555 1_555
H25 C35 1_555 1_555
H26 C36 1_555 1_555
Cd6 O19 1_555 1_555
O15 C25 1_555 1_555
C30 C31 1_555 1_555
C35 C36 1_555 1_555
O20 Cd6 1_555 1_555
O17 H28 1_555 1_555
C22 C20 1_555 1_555
C24 C22 1_555 1_555
N4 C23 1_555 1_555
H18 C24 1_555 1_555
Cd4 N4 1_555 1_555
O11 Cd4 1_555 1_555
O12 Cd4 1_555 1_555
O13 Cd4 1_555 1_555
H19 O13 1_555 1_555
H20 O13 1_555 1_555
C24 N4 1_555 1_555
Cd1 O1 1_555 1_555
O2 Cd1 1_555 1_555
O3 Cd1 1_555 1_555
N1 Cd1 1_555 1_555
H1 O3 1_555 1_555
H2 O3 1_555 1_555
C1 N1 1_555 1_555
C2 N1 1_555 1_555
C5 C2 1_555 1_555
H4 C2 1_555 1_555
C5 C7 1_555 1_555
C3 O4 1_555 1_555
C6 C3 1_555 1_555
H5 C4 1_555 1_555
C8 C6 1_555 1_555
C9 C6 1_555 1_555
N2 C8 1_555 1_555
C11 C8 1_555 1_555
H7 C9 1_555 1_555
C12 C9 1_555 1_555
O7 N2 1_555 1_555
C13 N2 1_555 1_555
N3 C11 1_555 1_555
C14 C11 1_555 1_555
H9 C12 1_555 1_555
H10 C13 1_555 1_555
C15 N3 1_555 1_555
C16 C14 1_555 1_555
C17 C14 1_555 1_555
C18 C15 1_555 1_555
H12 C17 1_555 1_555
H13 C18 1_555 1_555
O8 N3 1_555 1_555
O9 C16 1_555 1_555
O10 C16 1_555 1_555
Cd3 O9 1_555 1_555
O5 C3 1_555 1_555
C12 C13 1_555 1_555
C17 C18 1_555 1_555
O10 Cd3 1_555 1_555
O7 H27 1_555 1_555
O17_2 N5_2 1_555 1_555
C31_2 N5_2 1_555 1_555
H22_2 C30_2 1_555 1_555
H23_2 C31_2 1_555 1_555
Cd5_2 O18_2 1_555 1_555
C30_2 C31_2 1_555 1_555
O17_2 H28_2 1_555 1_555
O3_2 Cd3 1_555 1_555
N1_2 Cd3 1_555 1_555
O4_2 Cd3 1_555 1_555
O5_2 Cd3 1_555 1_555
O6_2 Cd3 1_555 1_555
H1_2 O3_2 1_555 1_555
H2_2 O3_2 1_555 1_555
C1_2 N1_2 1_555 1_555
C2_2 N1_2 1_555 1_555
C3_2 O4_2 1_555 1_555
H3_2 C1_2 1_555 1_555
C4_2 C1_2 1_555 1_555
C5_2 C2_2 1_555 1_555
H4_2 C2_2 1_555 1_555
C6_2 C3_2 1_555 1_555
H5_2 C4_2 1_555 1_555
C7_2 C4_2 1_555 1_555
H6 C5_2 1_555 1_555
C8_2 C6_2 1_555 1_555
C9_2 C6_2 1_555 1_555
C10_2 C7_2 1_555 1_555
C11_2 C8_2 1_555 1_555
H7_2 C9_2 1_555 1_555
H8_2 C10_2 1_555 1_555
N3_2 C11_2 1_555 1_555
C14_2 C11_2 1_555 1_555
C15_2 N3_2 1_555 1_555
C16_2 C14_2 1_555 1_555
C17_2 C14_2 1_555 1_555
C18_2 C15_2 1_555 1_555
H12_2 C17_2 1_555 1_555
H13_2 C18_2 1_555 1_555
C19_2 C10_2 1_555 1_555
C20_2 C19_2 1_555 1_555
H14 C19_2 1_555 1_555
C21_2 C20_2 1_555 1_555
C22_2 C20_2 1_555 1_555
O1 C16_2 1_555 1_555
O2 C16_2 1_555 1_555
C23_2 C21_2 1_555 1_555
H15_2 C21_2 1_555 1_555
H16_2 C22_2 1_555 1_555
C24_2 C22_2 1_555 1_555
N4_2 C23_2 1_555 1_555
H17_2 C23_2 1_555 1_555
H18_2 C24_2 1_555 1_555
Cd6 N4_2 1_555 1_555
O13_2 Cd6 1_555 1_555
O14_2 Cd6 1_555 1_555
O15_2 Cd6 1_555 1_555
O16_2 Cd6 1_555 1_555
H19_2 O13_2 1_555 1_555
H20_2 O13_2 1_555 1_555
C25_2 O14_2 1_555 1_555
C26_2 C25_2 1_555 1_555
C27_2 C26_2 1_555 1_555
C28_2 C26_2 1_555 1_555
C29_2 C27_2 1_555 1_555
H21_2 C28_2 1_555 1_555
N6_2 C29_2 1_555 1_555
C32_2 C29_2 1_555 1_555
C33_2 N6_2 1_555 1_555
C34_2 C32_2 1_555 1_555
C35_2 C32_2 1_555 1_555
C36_2 C33_2 1_555 1_555
O11 C34_2 1_555 1_555
O12 C34_2 1_555 1_555
H25_2 C35_2 1_555 1_555
H26_2 C36_2 1_555 1_555
O5_2 C3_2 1_555 1_555
C5_2 C7_2 1_555 1_555
C17_2 C18_2 1_555 1_555
C24_2 N4_2 1_555 1_555
O15_2 C25_2 1_555 1_555
C35_2 C36_2 1_555 1_555
O7_2 N2_2 1_555 1_555
C13_2 N2_2 1_555 1_555
H9_2 C12_2 1_555 1_555
H10_2 C13_2 1_555 1_555
Cd2_2 O8_2 1_555 1_555
C12_2 C13_2 1_555 1_555
O7_2 H27_2 1_555 1_555
Cd5_2 O1_2 1_555 1_555
O2_2 Cd5_2 1_555 1_555
O3_3 Cd5_2 1_555 1_555
N1_3 Cd5_2 1_555 1_555
O4_3 Cd5_2 1_555 1_555
O5_3 Cd5_2 1_555 1_555
H1_3 O3_3 1_555 1_555
H2_3 O3_3 1_555 1_555
C1_3 N1_3 1_555 1_555
C2_3 N1_3 1_555 1_555
C3_3 O4_3 1_555 1_555
H3_3 C1_3 1_555 1_555
C4_3 C1_3 1_555 1_555
C5_3 C2_3 1_555 1_555
H4_3 C2_3 1_555 1_555
C6_3 C3_3 1_555 1_555
H5_3 C4_3 1_555 1_555
C7_3 C4_3 1_555 1_555
C8_3 C6_3 1_555 1_555
C9_3 C6_3 1_555 1_555
C10_3 C7_3 1_555 1_555
N2_3 C8_3 1_555 1_555
C11_3 C8_3 1_555 1_555
H7_3 C9_3 1_555 1_555
C12_3 C9_3 1_555 1_555
O7_3 N2_3 1_555 1_555
C13_3 N2_3 1_555 1_555
N3_3 C11_3 1_555 1_555
C14_3 C11_3 1_555 1_555
H9_3 C12_3 1_555 1_555
H10_3 C13_3 1_555 1_555
C15_3 N3_3 1_555 1_555
C16_3 C14_3 1_555 1_555
C17_3 C14_3 1_555 1_555
C18_3 C15_3 1_555 1_555
H11_3 C15_3 1_555 1_555
H12_3 C17_3 1_555 1_555
H13_3 C18_3 1_555 1_555
O16_2 N3_3 1_555 1_555
O9_2 C16_3 1_555 1_555
O10_2 C16_3 1_555 1_555
Cd5 O9_2 1_555 1_555
O5_3 C3_3 1_555 1_555
C5_3 C7_3 1_555 1_555
C12_3 C13_3 1_555 1_555
C17_3 C18_3 1_555 1_555
O10_2 Cd5 1_555 1_555
O7_3 H27_3 1_555 1_555
C20_3 C19_3 1_555 1_555
C21_3 C20_3 1_555 1_555
C22_3 C20_3 1_555 1_555
C23_3 C21_3 1_555 1_555
H15_3 C21_3 1_555 1_555
C24_3 C22_3 1_555 1_555
N4_3 C23_3 1_555 1_555
H17_3 C23_3 1_555 1_555
H18_3 C24_3 1_555 1_555
Cd2_2 N4_3 1_555 1_555
O11_2 Cd2_2 1_555 1_555
O12_2 Cd2_2 1_555 1_555
O13_3 Cd2_2 1_555 1_555
O14_3 Cd2_2 1_555 1_555
O15_3 Cd2_2 1_555 1_555
H19_3 O13_3 1_555 1_555
H20_3 O13_3 1_555 1_555
C25_3 O14_3 1_555 1_555
C26_3 C25_3 1_555 1_555
C27_3 C26_3 1_555 1_555
C28_3 C26_3 1_555 1_555
N5_3 C27_3 1_555 1_555
C29_3 C27_3 1_555 1_555
H21_3 C28_3 1_555 1_555
C30_3 C28_3 1_555 1_555
O17_3 N5_3 1_555 1_555
C31_3 N5_3 1_555 1_555
N6_3 C29_3 1_555 1_555
C32_3 C29_3 1_555 1_555
H22_3 C30_3 1_555 1_555
H23_3 C31_3 1_555 1_555
O6_2 N6_3 1_555 1_555
C33_3 N6_3 1_555 1_555
C34_3 C32_3 1_555 1_555
C35_3 C32_3 1_555 1_555
C36_3 C33_3 1_555 1_555
H24_3 C33_3 1_555 1_555
O19_2 C34_3 1_555 1_555
O20_2 C34_3 1_555 1_555
H25_3 C35_3 1_555 1_555
H26_3 C36_3 1_555 1_555
Cd2 O19_2 1_555 1_555
C24_3 N4_3 1_555 1_555
O15_3 C25_3 1_555 1_555
C30_3 C31_3 1_555 1_555
C35_3 C36_3 1_555 1_555
O20_2 Cd2 1_555 1_555
O17_3 H28_3 1_555 1_555
O17_4 N5_4 1_555 1_555
C31_4 N5_4 1_555 1_555
H22_4 C30_4 1_555 1_555
H23_4 C31_4 1_555 1_555
C30_4 C31_4 1_555 1_555
O17_4 H28_4 1_555 1_555
C3_4 O4_4 1_555 1_555
C6_4 C3_4 1_555 1_555
H5_4 C4_4 1_555 1_555
C8_4 C6_4 1_555 1_555
C9_4 C6_4 1_555 1_555
C11_4 C8_4 1_555 1_555
H7_4 C9_4 1_555 1_555
H8_3 C10_4 1_555 1_555
N3_4 C11_4 1_555 1_555
C14_4 C11_4 1_555 1_555
C15_4 N3_4 1_555 1_555
C16_4 C14_4 1_555 1_555
C17_4 C14_4 1_555 1_555
C18_4 C15_4 1_555 1_555
H12_4 C17_4 1_555 1_555
H13_4 C18_4 1_555 1_555
C22_4 C20_4 1_555 1_555
O1_2 C16_4 1_555 1_555
O2_2 C16_4 1_555 1_555
H16_3 C22_4 1_555 1_555
C24_4 C22_4 1_555 1_555
N4_4 C23_4 1_555 1_555
H18_4 C24_4 1_555 1_555
Cd2 N4_4 1_555 1_555
O13_4 Cd2 1_555 1_555
H19_4 O13_4 1_555 1_555
H20_4 O13_4 1_555 1_555
O5_4 C3_4 1_555 1_555
C17_4 C18_4 1_555 1_555
C24_4 N4_4 1_555 1_555
O3_4 Cd5 1_555 1_555
N1_4 Cd5 1_555 1_555
H1_4 O3_4 1_555 1_555
H2_4 O3_4 1_555 1_555
C1_4 N1_4 1_555 1_555
C2_4 N1_4 1_555 1_555
C5_4 C2_4 1_555 1_555
H4_4 C2_4 1_555 1_555
H6_2 C5_4 1_555 1_555
H14_2 C19_4 1_555 1_555
H15_4 C21_4 1_555 1_555
C25_4 O14_4 1_555 1_555
C26_4 C25_4 1_555 1_555
C27_4 C26_4 1_555 1_555
C28_4 C26_4 1_555 1_555
C29_4 C27_4 1_555 1_555
H21_4 C28_4 1_555 1_555
N6_4 C29_4 1_555 1_555
C32_4 C29_4 1_555 1_555
C33_4 N6_4 1_555 1_555
C34_4 C32_4 1_555 1_555
C35_4 C32_4 1_555 1_555
C36_4 C33_4 1_555 1_555
O11_2 C34_4 1_555 1_555
O12_2 C34_4 1_555 1_555
H25_4 C35_4 1_555 1_555
H26_4 C36_4 1_555 1_555
C5_4 C7_4 1_555 1_555
O15_4 C25_4 1_555 1_555
C35_4 C36_4 1_555 1_555
O7_4 N2_4 1_555 1_555
C13_4 N2_4 1_555 1_555
H9_4 C12_4 1_555 1_555
H10_4 C13_4 1_555 1_555
C12_4 C13_4 1_555 1_555
O7_4 H27_4 1_555 1_555
O17 H27_5 1_555 1_555
O7 H28_5 1_555 1_555
O17_2 H27_6 1_555 1_555
O7_2 H28_6 1_555 1_555
O7_3 H28_7 1_555 1_555
O17_3 H27_7 1_555 1_555
O17_4 H27_8 1_555 1_555
O7_4 H28_8 1_555 1_555

#END
