
###############################################################################
#
# This file contains modified crystal structure data generated from the
# MOF subset of the Cambridge Structural Database (CSD) v543 
# hosted by the Cambridge Crystallographic Data Centre (CCDC).
#
# This work is licensed under the Creative Commons
# Attribution-NonCommercial-ShareAlike 4.0 International License.
# To view a copy of this license, visit
# http://creativecommons.org/licenses/by-nc-sa/4.0/
# or send a letter to
# Creative Commons, PO Box 1866, Mountain View, CA 94042, USA.
#
# CIF created using the CSD Python API on 29 September 2022
# The structure has been converted into the P1 space group
# The structure has a 3D framework
# The original CSD entry DAXNIA01 is in the rhombohedral crystal system
# The framework has been calculated to contain at least 10.0% void space
# The void calculation uses a probe of radius 1.32A, grid spacing 0.4
# The framework is charged, counterions have been retained in the structure
#
###############################################################################

data_DAXNIA01
_chemical_formula_moiety         '(C22 H22 O32 Zn9 3-)n'
_symmetry_cell_setting           triclinic
_symmetry_space_group_name_H-M   'P 1'
_symmetry_Int_Tables_number      1
_space_group_name_Hall           'P 1'
loop_
_symmetry_equiv_pos_site_id
_symmetry_equiv_pos_as_xyz
1 x,y,z
_cell_length_a                   8.1924(8)
_cell_length_b                   8.1924(8)
_cell_length_c                   22.277(2)
_cell_angle_alpha                90
_cell_angle_beta                 90
_cell_angle_gamma                120
_cell_volume                     1294.82
loop_
_atom_site_label
_atom_site_type_symbol
_atom_site_fract_x
_atom_site_fract_y
_atom_site_fract_z
Zn1 Zn 0.0000 0.0000 0.0000
C1 C 0.1236(4) 0.3333 0.0833
H1 H 0.226(4) 0.3333 0.0833
Zn2 Zn 0.3333 0.6667 0.1667
O2 O 0.1168(3) 0.4581(2) 0.11284(7)
O5 O 0.2165(3) 0.0079(2) 0.05383(7)
Zn1_2 Zn 0.0000 0.0000 1.0000
O8 O 0.2086(2) 0.2165(3) 0.94617(7)
Zn1_3 Zn 0.0000 1.0000 0.0000
O6 O 0.3412(2) 0.8832(3) 0.11284(7)
C3 C 0.2097(4) 0.8764(4) 0.0833
H3 H 0.1073(40) 0.774(4) 0.0833
Zn1_4 Zn 0.0000 1.0000 1.0000
O7 O 0.0079(2) 0.7914(2) 0.94617(7)
Zn1_5 Zn 1.0000 0.0000 0.0000
O1 O 0.9921(2) 0.2086(2) 0.05383(7)
Zn1_6 Zn 1.0000 0.0000 1.0000
Zn1_7 Zn 1.0000 1.0000 0.0000
O3 O 0.7914(2) 0.7835(3) 0.05383(7)
O4 O 0.5419(2) 0.6588(2) 0.11284(7)
C2 C 0.6667 0.7903(4) 0.0833
H2 H 0.6667 0.8927(40) 0.0833
Zn1_8 Zn 1.0000 1.0000 1.0000
O9 O 0.7835(3) 0.9921(2) 0.94617(7)
Zn1_9 Zn 0.0000 0.0000 0.5000
C1_2 C 0.3333 0.1236(4) 0.4167
H1_2 H 0.3333 0.226(4) 0.4167
Zn2_2 Zn 0.6667 0.3333 0.3333
O2_2 O 0.4581(2) 0.1168(3) 0.38716(7)
O5_2 O 0.0079(2) 0.2165(3) 0.44617(7)
O8_2 O 0.2165(3) 0.2086(2) 0.55383(7)
Zn1_10 Zn 0.0000 1.0000 0.5000
O1_2 O 0.2086(2) 0.9921(2) 0.44617(7)
Zn1_11 Zn 1.0000 0.0000 0.5000
O6_2 O 0.8832(3) 0.3412(2) 0.38716(7)
O7_2 O 0.7914(2) 0.0079(2) 0.55383(7)
C3_2 C 0.8764(4) 0.2097(4) 0.4167
H3_2 H 0.774(4) 0.1073(40) 0.4167
Zn1_12 Zn 1.0000 1.0000 0.5000
O3_2 O 0.7835(3) 0.7914(2) 0.44617(7)
O4_2 O 0.6588(2) 0.5419(2) 0.38716(7)
O9_2 O 0.9921(2) 0.7835(3) 0.55383(7)
C2_2 C 0.7903(4) 0.6667 0.4167
H2_2 H 0.8927(40) 0.6667 0.4167
O7_3 O 0.6746(2) 0.1247(2) 0.27950(7)
O8_3 O 0.8753(2) 0.5498(3) 0.27950(7)
O9_3 O 0.4502(3) 0.3254(2) 0.27950(7)
C1_3 C -0.0000 0.4569(4) 0.7500
H1_3 H -0.0000 0.559(4) 0.7500
Zn2_3 Zn 0.3333 0.6667 0.6667
O2_3 O 0.1247(2) 0.4502(3) 0.72050(7)
Zn1_13 Zn 0.6667 0.3333 0.8333
O1_3 O 0.8753(2) 0.3254(2) 0.77950(7)
C1_4 C 1.0000 0.4569(4) 0.7500
H1_4 H 1.0000 0.559(4) 0.7500
O3_3 O 0.4502(3) 0.1247(2) 0.77950(7)
O5_3 O 0.6746(2) 0.5498(3) 0.77950(7)
O6_3 O 0.5498(3) 0.6746(2) 0.72050(7)
O7_4 O 0.4581(2) 0.3412(2) 0.88716(7)
O8_4 O 0.8832(3) 0.5419(2) 0.88716(7)
O9_4 O 0.6588(2) 0.1168(3) 0.88716(7)
C2_3 C 0.4570(4) 0.0000 0.7500
C3_3 C 0.5431(4) 0.5430(4) 0.7500
H2_3 H 0.5594(40) 0.0000 0.7500
H3_3 H 0.441(4) 0.4406(40) 0.7500
O4_3 O 0.3254(2) 0.8753(2) 0.72050(7)
C2_4 C 0.4570(4) 1.0000 0.7500
H2_4 H 0.5594(40) 1.0000 0.7500
O7_5 O 0.3412(2) 0.4581(2) 0.61284(7)
O8_5 O 0.5419(2) 0.8832(3) 0.61284(7)
O9_5 O 0.1168(3) 0.6588(2) 0.61284(7)
O7_6 O 0.1247(2) 0.6746(2) 0.22050(7)
O8_6 O 0.5498(3) 0.8753(2) 0.22050(7)
O9_6 O 0.3254(2) 0.4502(3) 0.22050(7)
C2_5 C 0.3333 0.2097(4) 0.9167
H2_5 H 0.3333 0.1073(40) 0.9167
C3_4 C 0.7903(4) 0.1236(4) 0.9167
H3_4 H 0.8927(40) 0.226(4) 0.9167
C1_5 C 0.8764(4) 0.6667 0.9167
H1_5 H 0.774(4) 0.6667 0.9167
C2_6 C 0.2097(4) 0.3333 0.5833
H2_6 H 0.1073(40) 0.3333 0.5833
C3_5 C 0.1236(4) 0.7903(4) 0.5833
H3_5 H 0.226(4) 0.8927(40) 0.5833
C1_6 C 0.6667 0.8764(4) 0.5833
H1_6 H 0.6667 0.774(4) 0.5833
C2_7 C 0.5430(4) -0.0000 0.2500
H2_7 H 0.4406(40) -0.0000 0.2500
C1_7 C 0.0000 0.5431(4) 0.2500
H1_7 H 0.0000 0.441(4) 0.2500
C2_8 C 0.5430(4) 1.0000 0.2500
C3_6 C 0.4569(4) 0.4570(4) 0.2500
H2_8 H 0.4406(40) 1.0000 0.2500
H3_6 H 0.559(4) 0.5594(40) 0.2500
C1_8 C 1.0000 0.5431(4) 0.2500
H1_8 H 1.0000 0.441(4) 0.2500
loop_
_geom_bond_atom_site_label_1
_geom_bond_atom_site_label_2
_geom_bond_site_symmetry_1
_geom_bond_site_symmetry_2
C1 H1 1_555 1_555
Zn2 O2 1_555 1_555
O2 C1 1_555 1_555
O5 Zn1 1_555 1_555
O8 Zn1_2 1_555 1_555
Zn2 O6 1_555 1_555
O6 C3 1_555 1_555
H3 C3 1_555 1_555
O7 Zn1_4 1_555 1_555
Zn1_5 O1 1_555 1_555
Zn2 O4 1_555 1_555
O3 Zn1_7 1_555 1_555
O4 C2 1_555 1_555
C2 O3 1_555 1_555
H2 C2 1_555 1_555
O9 Zn1_8 1_555 1_555
C1_2 H1_2 1_555 1_555
Zn2_2 O2_2 1_555 1_555
O2_2 C1_2 1_555 1_555
O5_2 Zn1_9 1_555 1_555
O8_2 Zn1_9 1_555 1_555
Zn1_10 O1_2 1_555 1_555
Zn2_2 O6_2 1_555 1_555
O6_2 C3_2 1_555 1_555
O7_2 Zn1_11 1_555 1_555
H3_2 C3_2 1_555 1_555
Zn2_2 O4_2 1_555 1_555
O3_2 Zn1_12 1_555 1_555
O4_2 C2_2 1_555 1_555
O9_2 Zn1_12 1_555 1_555
C2_2 O3_2 1_555 1_555
H2_2 C2_2 1_555 1_555
O7_3 Zn2_2 1_555 1_555
O8_3 Zn2_2 1_555 1_555
O9_3 Zn2_2 1_555 1_555
C1_3 H1_3 1_555 1_555
Zn2_3 O2_3 1_555 1_555
O2_3 C1_3 1_555 1_555
Zn1_13 O1_3 1_555 1_555
O1_3 C1_4 1_555 1_555
C1_4 H1_4 1_555 1_555
Zn2_3 O6_3 1_555 1_555
O3_3 Zn1_13 1_555 1_555
O5_3 Zn1_13 1_555 1_555
O6_3 C3_3 1_555 1_555
O7_4 Zn1_13 1_555 1_555
O8_4 Zn1_13 1_555 1_555
O9_4 Zn1_13 1_555 1_555
C2_3 O3_3 1_555 1_555
C3_3 O5_3 1_555 1_555
H2_3 C2_3 1_555 1_555
H3_3 C3_3 1_555 1_555
Zn2_3 O4_3 1_555 1_555
O4_3 C2_4 1_555 1_555
H2_4 C2_4 1_555 1_555
O7_5 Zn2_3 1_555 1_555
O8_5 Zn2_3 1_555 1_555
O9_5 Zn2_3 1_555 1_555
O7_6 Zn2 1_555 1_555
O8_6 Zn2 1_555 1_555
O9_6 Zn2 1_555 1_555
O7_4 C2_5 1_555 1_555
C2_5 O8 1_555 1_555
H2_5 C2_5 1_555 1_555
O9_4 C3_4 1_555 1_555
H3_4 C3_4 1_555 1_555
C1_5 H1_5 1_555 1_555
O8_4 C1_5 1_555 1_555
O7_5 C2_6 1_555 1_555
C2_6 O8_2 1_555 1_555
H2_6 C2_6 1_555 1_555
O9_5 C3_5 1_555 1_555
H3_5 C3_5 1_555 1_555
C1_6 H1_6 1_555 1_555
O8_5 C1_6 1_555 1_555
O7_3 C2_7 1_555 1_555
H2_7 C2_7 1_555 1_555
O7_6 C1_7 1_555 1_555
C1_7 H1_7 1_555 1_555
O9_3 C3_6 1_555 1_555
C2_8 O8_6 1_555 1_555
C3_6 O9_6 1_555 1_555
H2_8 C2_8 1_555 1_555
H3_6 C3_6 1_555 1_555
C1_8 H1_8 1_555 1_555
O8_3 C1_8 1_555 1_555

#END
