
###############################################################################
#
# This file contains modified crystal structure data generated from the
# MOF subset of the Cambridge Structural Database (CSD) v543 
# hosted by the Cambridge Crystallographic Data Centre (CCDC).
#
# This work is licensed under the Creative Commons
# Attribution-NonCommercial-ShareAlike 4.0 International License.
# To view a copy of this license, visit
# http://creativecommons.org/licenses/by-nc-sa/4.0/
# or send a letter to
# Creative Commons, PO Box 1866, Mountain View, CA 94042, USA.
#
# CIF created using the CSD Python API on 29 September 2022
# The structure has been converted into the P1 space group
# The structure has a 3D framework
# The original CSD entry DAXNIA04 is in the rhombohedral crystal system
# The framework has been calculated to contain at least 10.0% void space
# The void calculation uses a probe of radius 1.32A, grid spacing 0.4
# The framework is charged, counterions have been retained in the structure
# H atom positions have been added when not included in the experimental data
#
###############################################################################

data_DAXNIA04
_chemical_formula_moiety         '(C22 H22 O30 Zn7 3-)n'
_symmetry_cell_setting           triclinic
_symmetry_space_group_name_H-M   'P 1'
_symmetry_Int_Tables_number      1
_space_group_name_Hall           'P 1'
loop_
_symmetry_equiv_pos_site_id
_symmetry_equiv_pos_as_xyz
1 x,y,z
_cell_length_a                   8.1895(16)
_cell_length_b                   8.1895(16)
_cell_length_c                   22.262(5)
_cell_angle_alpha                90
_cell_angle_beta                 90
_cell_angle_gamma                120
_cell_volume                     1293.03
loop_
_atom_site_label
_atom_site_type_symbol
_atom_site_fract_x
_atom_site_fract_y
_atom_site_fract_z
C2 C 0.5425(2) -0.0000(3) 0.2500
O4 O 0.67555(17) 0.12528(24) 0.27960(6)
Zn4 Zn 0.6666 0.3333 0.3333
H3 H 0.409525 -2.22045e-16 0.25
C1 C 0.4575(2) 0.4575(2) 0.2500
O1 O 0.32445(17) 0.44973(17) 0.22040(6)
Zn1 Zn 0.3333 0.6667 0.1667
O2 O 0.44973(17) 0.32445(17) 0.27960(6)
C2_2 C 0.5425(2) 1.0000(3) 0.2500
O3 O 0.55027(17) 0.87472(24) 0.22040(6)
C3 C -0.0000(3) 0.5425(2) 0.2500
O5 O 0.12528(24) 0.67555(17) 0.22040(6)
O7 O 0.34222(17) 0.88360(17) 0.11293(6)
O8 O 0.11640(17) 0.45861(24) 0.11293(6)
O9 O 0.54139(24) 0.65778(17) 0.11293(6)
H1 H 4.09895e-20 0.409525 0.25
H2 H 0.590475 0.590475 0.25
H3_2 H 0.409525 1 0.25
C3_2 C 1.0000(3) 0.5425(2) 0.2500
O6 O 0.87472(24) 0.55027(17) 0.27960(6)
H1_2 H 1 0.409525 0.25
O7_2 O 0.45861(24) 0.11640(17) 0.38707(6)
O8_2 O 0.65778(29) 0.54139(24) 0.38707(6)
O9_2 O 0.88360(29) 0.34222(17) 0.38707(6)
Zn1_2 Zn -0.0000 0.0000 0.5000
C2_3 C 0.2092(2) 0.3333(3) 0.5833
O3_2 O 0.21694(17) 0.20805(24) 0.55373(6)
O4_2 O 0.34222(17) 0.45861(24) 0.61293(6)
O7_3 O 0.00888(17) 0.21694(17) 0.44627(6)
Zn4_2 Zn 0.3333 0.6666 0.6666
H3_3 H 0.0761915 0.333333 0.583333
C1_2 C 0.1242(2) 0.7908(2) 0.5833
Zn1_3 Zn -0.0000 1.0000 0.5000
O2_2 O 0.11640(17) 0.65778(17) 0.61293(6)
O9_3 O 0.20805(24) 0.99112(17) 0.44627(6)
H2_2 H 0.257142 0.923808 0.583333
Zn1_4 Zn 1.0000 0.0000 0.5000
O5_2 O 0.79195(24) 0.00888(17) 0.55373(6)
O1_2 O 0.99112(17) 0.78306(17) 0.55373(6)
Zn1_5 Zn 1.0000 1.0000 0.5000
C3_3 C 0.6667(3) 0.8758(2) 0.5833
O6_2 O 0.54139(24) 0.88360(17) 0.61293(6)
O8_3 O 0.78306(17) 0.79195(24) 0.44627(6)
H1_3 H 0.666667 0.742858 0.583333
O7_4 O 0.12528(24) 0.44973(17) 0.72040(6)
O8_4 O 0.32445(29) 0.87472(24) 0.72040(6)
O9_4 O 0.55027(29) 0.67555(17) 0.72040(6)
Zn4_3 Zn -0.0001 -0.0000 -0.0000
Zn4_4 Zn -0.0001 -0.0000 1.0000
Zn4_5 Zn -0.0001 1.0000 -0.0000
O4_3 O 0.00888(17) 0.79195(24) 0.94627(6)
Zn4_6 Zn -0.0001 1.0000 1.0000
Zn4_7 Zn 0.9999 -0.0000 -0.0000
Zn4_8 Zn 0.9999 -0.0000 1.0000
Zn4_9 Zn 0.9999 1.0000 -0.0000
C1_3 C 0.7908(2) 0.1242(2) 0.9167
O1_3 O 0.65778(17) 0.11640(17) 0.88707(6)
Zn1_6 Zn 0.6666 0.3334 0.8334
C2_4 C 0.8758(2) 0.6667(3) 0.9167
O3_3 O 0.88360(17) 0.54139(24) 0.88707(6)
C3_4 C 0.3333(3) 0.2092(2) 0.9167
O5_3 O 0.45861(24) 0.34222(17) 0.88707(6)
O6_3 O 0.20805(24) 0.21694(17) 0.94627(6)
O7_5 O 0.67555(17) 0.55027(17) 0.77960(6)
O8_5 O 0.44973(17) 0.12528(24) 0.77960(6)
O9_5 O 0.87472(24) 0.32445(17) 0.77960(6)
Zn4_10 Zn 0.9999 1.0000 1.0000
H1_4 H 0.333333 0.0761915 0.916667
H2_3 H 0.923808 0.257142 0.916667
H3_4 H 0.742858 0.666667 0.916667
O2_3 O 0.78306(17) 0.99112(17) 0.94627(6)
O9_6 O 0.21694(29) 0.00888(17) 0.05373(6)
O8_6 O 0.99112(29) 0.20805(24) 0.05373(6)
O7_6 O 0.79195(24) 0.78306(17) 0.05373(6)
C3_5 C 0.0000(3) 0.4575(2) 0.7500
H1_5 H -2.76326e-17 0.590475 0.75
C1_4 C 0.5425(2) 0.5425(2) 0.7500
C2_5 C 0.4575(2) 0.0000(3) 0.7500
C3_6 C 1.0000(3) 0.4575(2) 0.7500
H1_6 H 1 0.590475 0.75
H2_4 H 0.409525 0.409525 0.75
H3_5 H 0.590475 2.22045e-16 0.75
C2_6 C 0.4575(2) 1.0000(3) 0.7500
H3_6 H 0.590475 1 0.75
C3_7 C 0.3333(3) 0.1242(2) 0.4167
H1_7 H 0.333333 0.257142 0.416667
C1_5 C 0.8758(2) 0.2092(2) 0.4167
H2_5 H 0.742858 0.0761915 0.416667
C2_7 C 0.7908(2) 0.6667(3) 0.4167
H3_7 H 0.923808 0.666667 0.416667
C1_6 C 0.2092(2) 0.8758(2) 0.0833
C2_8 C 0.1242(2) 0.3333(3) 0.0833
C3_8 C 0.6667(3) 0.7908(2) 0.0833
H1_8 H 0.666667 0.923808 0.0833333
H2_6 H 0.0761915 0.742858 0.0833333
H3_8 H 0.257142 0.333333 0.0833333
loop_
_geom_bond_atom_site_label_1
_geom_bond_atom_site_label_2
_geom_bond_site_symmetry_1
_geom_bond_site_symmetry_2
O4 C2 1_555 1_555
Zn4 O4 1_555 1_555
C2 H3 1_555 1_555
C1 O1 1_555 1_555
O1 Zn1 1_555 1_555
Zn1 O3 1_555 1_555
O2 C1 1_555 1_555
C2_2 O3 1_555 1_555
C3 O5 1_555 1_555
O5 Zn1 1_555 1_555
O7 Zn1 1_555 1_555
O8 Zn1 1_555 1_555
O9 Zn1 1_555 1_555
Zn4 O2 1_555 1_555
C3 H1 1_555 1_555
C1 H2 1_555 1_555
C2_2 H3_2 1_555 1_555
O6 C3_2 1_555 1_555
Zn4 O6 1_555 1_555
C3_2 H1_2 1_555 1_555
O7_2 Zn4 1_555 1_555
O8_2 Zn4 1_555 1_555
O9_2 Zn4 1_555 1_555
Zn1_2 O3_2 1_555 1_555
C2_3 O3_2 1_555 1_555
O4_2 C2_3 1_555 1_555
O7_3 Zn1_2 1_555 1_555
Zn4_2 O4_2 1_555 1_555
C2_3 H3_3 1_555 1_555
O2_2 C1_2 1_555 1_555
O9_3 Zn1_3 1_555 1_555
Zn4_2 O2_2 1_555 1_555
C1_2 H2_2 1_555 1_555
O5_2 Zn1_4 1_555 1_555
O1_2 Zn1_5 1_555 1_555
O6_2 C3_3 1_555 1_555
O8_3 Zn1_5 1_555 1_555
Zn4_2 O6_2 1_555 1_555
C3_3 H1_3 1_555 1_555
O7_4 Zn4_2 1_555 1_555
O8_4 Zn4_2 1_555 1_555
O9_4 Zn4_2 1_555 1_555
Zn4_6 O4_3 1_555 1_555
C1_3 O1_3 1_555 1_555
O1_3 Zn1_6 1_555 1_555
Zn1_6 O3_3 1_555 1_555
C2_4 O3_3 1_555 1_555
C3_4 O5_3 1_555 1_555
O5_3 Zn1_6 1_555 1_555
O6_3 C3_4 1_555 1_555
O7_5 Zn1_6 1_555 1_555
O8_5 Zn1_6 1_555 1_555
O9_5 Zn1_6 1_555 1_555
Zn4_4 O6_3 1_555 1_555
C3_4 H1_4 1_555 1_555
C1_3 H2_3 1_555 1_555
C2_4 H3_4 1_555 1_555
Zn4_10 O2_3 1_555 1_555
O9_6 Zn4_3 1_555 1_555
O8_6 Zn4_7 1_555 1_555
O7_6 Zn4_9 1_555 1_555
O7_4 C3_5 1_555 1_555
C3_5 H1_5 1_555 1_555
C1_4 O7_5 1_555 1_555
O9_4 C1_4 1_555 1_555
C2_5 O8_5 1_555 1_555
C3_6 O9_5 1_555 1_555
C3_6 H1_6 1_555 1_555
C1_4 H2_4 1_555 1_555
C2_5 H3_5 1_555 1_555
O8_4 C2_6 1_555 1_555
C2_6 H3_6 1_555 1_555
O7_2 C3_7 1_555 1_555
C3_7 H1_7 1_555 1_555
O9_2 C1_5 1_555 1_555
C1_5 H2_5 1_555 1_555
C2_7 O8_3 1_555 1_555
O8_2 C2_7 1_555 1_555
C2_7 H3_7 1_555 1_555
C1_6 O7 1_555 1_555
C2_8 O8 1_555 1_555
C3_8 O9 1_555 1_555
O7_6 C3_8 1_555 1_555
C3_8 H1_8 1_555 1_555
C1_6 H2_6 1_555 1_555
C2_8 H3_8 1_555 1_555

#END
