
###############################################################################
#
# This file contains modified crystal structure data generated from the
# MOF subset of the Cambridge Structural Database (CSD) v543 
# hosted by the Cambridge Crystallographic Data Centre (CCDC).
#
# This work is licensed under the Creative Commons
# Attribution-NonCommercial-ShareAlike 4.0 International License.
# To view a copy of this license, visit
# http://creativecommons.org/licenses/by-nc-sa/4.0/
# or send a letter to
# Creative Commons, PO Box 1866, Mountain View, CA 94042, USA.
#
# CIF created using the CSD Python API on 29 September 2022
# The structure has been converted into the P1 space group
# The structure has a 3D framework
# The original CSD entry DAXNIA02 is in the rhombohedral crystal system
# The framework has been calculated to contain at least 10.0% void space
# The void calculation uses a probe of radius 1.32A, grid spacing 0.4
# The framework is charged, counterions have been retained in the structure
#
###############################################################################

data_DAXNIA02
_chemical_formula_moiety         '(C22 H22 O30 Zn7 3-)n'
_symmetry_cell_setting           triclinic
_symmetry_space_group_name_H-M   'P 1'
_symmetry_Int_Tables_number      1
_space_group_name_Hall           'P 1'
loop_
_symmetry_equiv_pos_site_id
_symmetry_equiv_pos_as_xyz
1 x,y,z
_cell_length_a                   8.1983(11)
_cell_length_b                   8.1983(11)
_cell_length_c                   22.216(4)
_cell_angle_alpha                90
_cell_angle_beta                 90
_cell_angle_gamma                120
_cell_volume                     1293.14
loop_
_atom_site_label
_atom_site_type_symbol
_atom_site_fract_x
_atom_site_fract_y
_atom_site_fract_z
C1 C -0.0000 0.4557(6) 0.2500
H1 H -0.0000 0.5703 0.2500
Zn2 Zn 0.3333 0.6666 0.1667
O2 O 0.1251(3) 0.4494(5) 0.22045(11)
Zn1 Zn 0.6667 0.3333 0.3333
C1_2 C 1.0000 0.4557(6) 0.2500
H1_2 H 1.0000 0.5703 0.2500
O1 O 0.8749(3) 0.3243(4) 0.27955(11)
C2 C 0.5443(6) 0.5443(6) 0.2500
C3 C 0.4557(6) -0.0000 0.2500
H2 H 0.4297 0.4297 0.2500
H3 H 0.5703 -0.0000 0.2500
O3 O 0.6757(4) 0.5506(5) 0.27955(11)
O4 O 0.5506(5) 0.6757(4) 0.22045(11)
O5 O 0.4494(5) 0.1251(3) 0.27955(11)
O7 O 0.4584(3) 0.3424(4) 0.38712(11)
O8 O 0.6576(4) 0.1161(5) 0.38712(11)
O9 O 0.8839(5) 0.5416(3) 0.38712(11)
C3_2 C 0.4557(6) 1.0000 0.2500
H3_2 H 0.5703 1.0000 0.2500
O6 O 0.3243(4) 0.8749(3) 0.22045(11)
O7_2 O 0.3424(4) 0.4584(3) 0.11288(11)
O8_2 O 0.1161(5) 0.6576(4) 0.11288(11)
O9_2 O 0.5416(3) 0.8839(5) 0.11288(11)
Zn2_2 Zn -0.0000 -0.0001 0.5000
Zn2_3 Zn -0.0000 0.9999 0.5000
Zn2_4 Zn 1.0000 -0.0001 0.5000
O4_2 O 0.2173(5) 0.0090(4) 0.55378(11)
Zn1_2 Zn 0.3334 0.6666 0.6666
C1_3 C 0.6667 0.7890(6) 0.5833
H1_3 H 0.6667 0.9036 0.5833
O1_2 O 0.5416(3) 0.6576(4) 0.61288(11)
Zn2_5 Zn 1.0000 0.9999 0.5000
C2_2 C 0.2110(6) 0.8776(6) 0.5833
C3_3 C 0.1224(6) 0.3333 0.5833
H2_2 H 0.0964 0.7630 0.5833
H3_3 H 0.2370 0.3333 0.5833
O2_2 O 0.7918(3) 0.7827(5) 0.55378(11)
O3_2 O 0.3424(4) 0.8839(5) 0.61288(11)
O5_2 O 0.1161(5) 0.4584(3) 0.61288(11)
O7_3 O 0.1251(3) 0.6757(4) 0.72045(11)
O8_3 O 0.3243(4) 0.4494(5) 0.72045(11)
O9_3 O 0.5506(5) 0.8749(3) 0.72045(11)
O6_2 O 0.9910(4) 0.2082(3) 0.55378(11)
O9_4 O 0.2082(3) 0.2173(5) 0.44622(11)
O7_4 O 0.0090(4) 0.7918(3) 0.44622(11)
O8_4 O 0.7827(5) 0.9910(4) 0.44622(11)
Zn1_3 Zn 0.0000 -0.0000 -0.0000
O9_5 O 0.2173(5) 0.2082(3) 0.05378(11)
Zn1_4 Zn 0.0000 -0.0000 1.0000
C1_4 C 0.3333 0.1224(6) 0.9167
H1_4 H 0.3333 0.2370 0.9167
Zn2_6 Zn 0.6666 0.3333 0.8334
O2_3 O 0.4584(3) 0.1161(5) 0.88712(11)
O3_3 O 0.0090(4) 0.2173(5) 0.94622(11)
Zn1_5 Zn 0.0000 1.0000 -0.0000
Zn1_6 Zn 0.0000 1.0000 1.0000
O1_3 O 0.2082(3) 0.9910(4) 0.94622(11)
Zn1_7 Zn 1.0000 -0.0000 -0.0000
O7_5 O 0.7918(3) 0.0090(4) 0.05378(11)
Zn1_8 Zn 1.0000 -0.0000 1.0000
C2_3 C 0.8776(6) 0.2110(6) 0.9167
H2_3 H 0.7630 0.0964 0.9167
O4_3 O 0.8839(5) 0.3424(4) 0.88712(11)
Zn1_9 Zn 1.0000 1.0000 -0.0000
O8_5 O 0.9910(4) 0.7827(5) 0.05378(11)
Zn1_10 Zn 1.0000 1.0000 1.0000
C3_4 C 0.7890(6) 0.6667 0.9167
H3_4 H 0.9036 0.6667 0.9167
O5_3 O 0.7827(5) 0.7918(3) 0.94622(11)
O6_3 O 0.6576(4) 0.5416(3) 0.88712(11)
O7_6 O 0.6757(4) 0.1251(3) 0.77955(11)
O8_6 O 0.4494(5) 0.3243(4) 0.77955(11)
O9_6 O 0.8749(3) 0.5506(5) 0.77955(11)
C3_5 C 0.5443(6) -0.0000 0.7500
H3_5 H 0.4297 -0.0000 0.7500
C1_5 C 0.0000 0.5443(6) 0.7500
H1_5 H 0.0000 0.4297 0.7500
C2_4 C 0.4557(6) 0.4557(6) 0.7500
C3_6 C 0.5443(6) 1.0000 0.7500
H2_4 H 0.5703 0.5703 0.7500
H3_6 H 0.4297 1.0000 0.7500
C1_6 C 1.0000 0.5443(6) 0.7500
H1_6 H 1.0000 0.4297 0.7500
C1_7 C 0.3333 0.2110(6) 0.4167
H1_7 H 0.3333 0.0964 0.4167
C2_5 C 0.7890(6) 0.1224(6) 0.4167
C3_7 C 0.8776(6) 0.6667 0.4167
H2_5 H 0.9036 0.2370 0.4167
H3_7 H 0.7630 0.6667 0.4167
C3_8 C 0.2110(6) 0.3333 0.0833
H3_8 H 0.0964 0.3333 0.0833
C2_6 C 0.1224(6) 0.7890(6) 0.0833
H2_6 H 0.2370 0.9036 0.0833
C1_8 C 0.6667 0.8776(6) 0.0833
H1_8 H 0.6667 0.7630 0.0833
loop_
_geom_bond_atom_site_label_1
_geom_bond_atom_site_label_2
_geom_bond_site_symmetry_1
_geom_bond_site_symmetry_2
C1 H1 1_555 1_555
Zn2 O2 1_555 1_555
O2 C1 1_555 1_555
Zn1 O1 1_555 1_555
C1_2 H1_2 1_555 1_555
O1 C1_2 1_555 1_555
Zn2 O4 1_555 1_555
C2 H2 1_555 1_555
C3 H3 1_555 1_555
O3 Zn1 1_555 1_555
O4 C2 1_555 1_555
O5 Zn1 1_555 1_555
O7 Zn1 1_555 1_555
O8 Zn1 1_555 1_555
O9 Zn1 1_555 1_555
C2 O3 1_555 1_555
C3 O5 1_555 1_555
Zn2 O6 1_555 1_555
C3_2 H3_2 1_555 1_555
O6 C3_2 1_555 1_555
O7_2 Zn2 1_555 1_555
O8_2 Zn2 1_555 1_555
O9_2 Zn2 1_555 1_555
Zn2_2 O4_2 1_555 1_555
Zn1_2 O1_2 1_555 1_555
C1_3 H1_3 1_555 1_555
O1_2 C1_3 1_555 1_555
Zn2_5 O2_2 1_555 1_555
C2_2 H2_2 1_555 1_555
C3_3 H3_3 1_555 1_555
O2_2 C1_3 1_555 1_555
O3_2 Zn1_2 1_555 1_555
O5_2 Zn1_2 1_555 1_555
O7_3 Zn1_2 1_555 1_555
O8_3 Zn1_2 1_555 1_555
O9_3 Zn1_2 1_555 1_555
C2_2 O3_2 1_555 1_555
C3_3 O5_2 1_555 1_555
Zn2_4 O6_2 1_555 1_555
O9_4 Zn2_2 1_555 1_555
O7_4 Zn2_3 1_555 1_555
O8_4 Zn2_5 1_555 1_555
O9_5 Zn1_3 1_555 1_555
C1_4 H1_4 1_555 1_555
Zn2_6 O2_3 1_555 1_555
O2_3 C1_4 1_555 1_555
O3_3 Zn1_4 1_555 1_555
Zn1_6 O1_3 1_555 1_555
O7_5 Zn1_7 1_555 1_555
Zn2_6 O4_3 1_555 1_555
C2_3 H2_3 1_555 1_555
O4_3 C2_3 1_555 1_555
O8_5 Zn1_9 1_555 1_555
Zn2_6 O6_3 1_555 1_555
C3_4 H3_4 1_555 1_555
O5_3 Zn1_10 1_555 1_555
O6_3 C3_4 1_555 1_555
C3_4 O5_3 1_555 1_555
O7_6 Zn2_6 1_555 1_555
O8_6 Zn2_6 1_555 1_555
O9_6 Zn2_6 1_555 1_555
C3_5 H3_5 1_555 1_555
O7_6 C3_5 1_555 1_555
C1_5 H1_5 1_555 1_555
O7_3 C1_5 1_555 1_555
C2_4 H2_4 1_555 1_555
C3_6 H3_6 1_555 1_555
O8_6 C2_4 1_555 1_555
C2_4 O8_3 1_555 1_555
C3_6 O9_3 1_555 1_555
C1_6 H1_6 1_555 1_555
O9_6 C1_6 1_555 1_555
C1_7 H1_7 1_555 1_555
O7 C1_7 1_555 1_555
C2_5 H2_5 1_555 1_555
C3_7 H3_7 1_555 1_555
O9_4 C1_7 1_555 1_555
C2_5 O8 1_555 1_555
C3_7 O9 1_555 1_555
C3_8 H3_8 1_555 1_555
O7_2 C3_8 1_555 1_555
C3_8 O9_5 1_555 1_555
C2_6 H2_6 1_555 1_555
O8_2 C2_6 1_555 1_555
C1_8 H1_8 1_555 1_555
O9_2 C1_8 1_555 1_555

#END
