
###############################################################################
#
# This file contains modified crystal structure data generated from the
# MOF subset of the Cambridge Structural Database (CSD) v543 
# hosted by the Cambridge Crystallographic Data Centre (CCDC).
#
# This work is licensed under the Creative Commons
# Attribution-NonCommercial-ShareAlike 4.0 International License.
# To view a copy of this license, visit
# http://creativecommons.org/licenses/by-nc-sa/4.0/
# or send a letter to
# Creative Commons, PO Box 1866, Mountain View, CA 94042, USA.
#
# CIF created using the CSD Python API on 29 September 2022
# The structure has been converted into the P1 space group
# The structure has a 3D framework
# The original CSD entry DAYYIN is in the monoclinic crystal system
# The framework has been calculated to contain at least 10.0% void space
# The void calculation uses a probe of radius 1.32A, grid spacing 0.4
#
###############################################################################

data_DAYYIN
_chemical_formula_moiety         '(C120 H120 Co18 N80)n'
_symmetry_cell_setting           triclinic
_symmetry_space_group_name_H-M   'P 1'
_symmetry_Int_Tables_number      1
_space_group_name_Hall           'P 1'
loop_
_symmetry_equiv_pos_site_id
_symmetry_equiv_pos_as_xyz
1 x,y,z
_cell_length_a                   24.3302(11)
_cell_length_b                   9.5623(5)
_cell_length_c                   24.6111(16)
_cell_angle_alpha                90
_cell_angle_beta                 91.542(5)
_cell_angle_gamma                90
_cell_volume                     5723.76
loop_
_atom_site_label
_atom_site_type_symbol
_atom_site_fract_x
_atom_site_fract_y
_atom_site_fract_z
Co2 Co 0.01477(4) 0.23587(11) 0.77837(5)
Co3 Co 0.23582(4) 0.44928(11) 0.81975(4)
Co5 Co 0.03405(4) 0.73013(11) 0.63781(5)
C7 C 0.0189(3) 0.4832(8) 0.7041(3)
H7 H 0.0487 0.4446 0.6866
N7 N 0.0413(2) 0.1051(5) 0.7215(2)
C11 C 0.0871(3) 0.0136(7) 0.6544(3)
H11 H 0.1122 0.0018 0.6269
C12 C 0.0817(3) 0.1304(8) 0.6844(3)
H12 H 0.1015 0.2129 0.6808
N9 N 0.0812(2) 0.2701(6) 0.8256(3)
C13 C 0.1182(3) 0.3670(7) 0.8125(3)
H13 H 0.1106 0.4388 0.7880
N10 N 0.1669(2) 0.3514(6) 0.8378(2)
C14 C 0.1604(3) 0.2330(9) 0.8690(4)
H14 H 0.1873 0.1922 0.8914
C15 C 0.1076(3) 0.1858(9) 0.8615(3)
H15 H 0.0925 0.1083 0.8783
N11 N 0.2715(2) 0.3266(5) 0.7657(2)
C16 C 0.2519(2) 0.2018(6) 0.7513(3)
H16 H 0.2200 0.1641 0.7654
N12 N 0.2822(2) 0.1353(5) 0.7148(2)
C17 C 0.3248(2) 0.2276(7) 0.7061(3)
H17 H 0.3535 0.2122 0.6827
C18 C 0.3185(3) 0.3419(7) 0.7363(3)
H18 H 0.3418 0.4190 0.7373
N22 N 0.0498(2) 0.9139(6) 0.6706(2)
N23 N 0.2178(2) 0.6353(5) 0.7852(2)
N24 N 0.27690(19) 0.4956(6) 0.8877(2)
N25 N 0.1014(2) 0.6234(6) 0.6190(2)
C10 C 0.0234(3) 0.9748(7) 0.7115(3)
Co7 Co 0.26418(4) 0.94928(11) 0.68025(4)
Co4 Co 0.65915(4) 0.18243(11) 0.01726(4)
N13 N 0.72310(19) 0.5044(6) 0.1123(2)
C19 C 0.7126(2) 0.3729(7) 0.0976(3)
H19 H 0.7232 0.2963 0.1186
N14 N 0.68588(19) 0.3608(5) 0.0503(2)
C20 C 0.6776(3) 0.4951(8) 0.0326(3)
H20 H 0.6587 0.5211 0.0008
C21 C 0.7015(3) 0.5838(8) 0.0693(3)
H21 H 0.7032 0.6807 0.0662
N15 N 0.6479(2) 0.0430(6) 0.0769(2)
C24 C 0.6784(3) 0.0009(7) 0.1220(3)
H24 H 0.7126 0.0360 0.1331
C30 C 0.5459(3) 0.3025(8) 0.0092(3)
H30 H 0.5496 0.3426 0.0435
Co8 Co 0.76418(4) 0.55072(11) 0.18025(4)
Co1 Co 0.78397(4) 0.04199(12) 0.81698(5)
N1 N 0.7401(2) 0.1759(6) 0.7715(3)
C1 C 0.7538(3) 0.2974(8) 0.7507(3)
H1 H 0.7881 0.3378 0.7568
N2 N 0.7150(2) 0.3572(6) 0.7205(2)
C2 C 0.6715(3) 0.2713(9) 0.7232(4)
H2 H 0.6371 0.2860 0.7070
C3 C 0.6870(3) 0.1574(9) 0.7542(4)
H3 H 0.6650 0.0810 0.7620
N3 N 0.8618(2) 0.1043(6) 0.8297(3)
C4 C 0.9004(3) 0.1280(8) 0.7940(3)
H4 H 0.8941 0.1185 0.7568
N4 N 0.9491(2) 0.1668(6) 0.8155(2)
C5 C 0.9397(3) 0.1654(11) 0.8696(4)
H5 H 0.9653 0.1873 0.8970
C6 C 0.8879(4) 0.1276(12) 0.8769(4)
H6 H 0.8719 0.1187 0.9107
N5 N 0.9933(2) 0.4178(6) 0.7437(2)
N6 N 0.9983(2) 0.6089(6) 0.6914(2)
C8 C 0.9549(3) 0.6243(9) 0.7253(4)
H8 H 0.9318 0.7016 0.7269
C9 C 0.9515(3) 0.5062(8) 0.7565(3)
H9 H 0.9250 0.4890 0.7821
N17 N 0.7051(2) 0.0839(6) 0.9641(2)
C25 C 0.7193(3) 0.1214(7) 0.9154(3)
H25 H 0.7085 0.2057 0.8997
N18 N 0.7499(2) 0.0307(6) 0.8907(2)
N19 N 0.5854(2) 0.2283(6) 0.9857(2)
C28 C 0.5638(3) 0.1965(7) 0.9379(3)
H28 H 0.5825 0.1441 0.9125
N20 N 0.5130(2) 0.2448(6) 0.9284(3)
C29 C 0.5008(3) 0.3120(8) 0.9774(3)
H29 H 0.4678 0.3546 0.9860
Co6 Co 0.71603(4) 0.54199(12) 0.68302(5)
Co11 Co 0.46595(4) 0.23013(11) 0.86219(5)
N26 N 0.9870(2) 0.7448(6) 0.5716(3)
C22 C 0.6026(3) 0.9658(7) 0.0772(3)
H22 H 0.5745 0.9731 0.0510
N16 N 0.6014(2) 0.8766(6) 0.1190(2)
C23 C 0.6500(3) 0.8991(7) 0.1473(3)
H23 H 0.6615 0.8521 0.1787
H27 H 0.7287 0.9047 0.0047
Co10 Co 0.53405(4) 0.76987(11) 0.13781(5)
H10 H 0.9958 0.9314 0.7308
C26 C 0.7568(4) 0.9223(9) 0.9270(4)
H26 H 0.7763 0.8401 0.9212
C27 C 0.7299(4) 0.9574(10) 0.9730(4)
N21 N 0.7850(2) 0.8572(6) 0.7795(2)
H29_2 H 0.0322 0.8546 0.5140
N6_2 N 0.5017(2) 0.1089(6) 0.8086(2)
C8_2 C 0.5451(3) 0.1243(9) 0.7747(4)
H8_2 H 0.5682 0.2016 0.7731
C9_2 C 0.5485(3) 0.0062(8) 0.7435(3)
N13_2 N 0.77690(19) 0.0044(6) 0.3877(2)
H20_2 H 0.8413 0.0211 0.4992
C21_2 C 0.7985(3) 0.0838(8) 0.4307(3)
H21_2 H 0.7968 0.1807 0.4338
Co8_2 Co 0.73582(4) 0.05072(11) 0.31975(4)
N22_2 N 0.4502(2) 0.4139(6) 0.8294(2)
N25_2 N 0.3986(2) 0.1234(6) 0.8810(2)
Co2_2 Co 0.48523(4) 0.73587(11) 0.72163(5)
Co4_2 Co 0.84085(4) 0.68243(11) 0.48274(4)
N1_2 N 0.7599(2) 0.6759(6) 0.7285(3)
C1_2 C 0.7462(3) 0.7974(8) 0.7493(3)
H1_2 H 0.7119 0.8378 0.7432
C2_2 C 0.8285(3) 0.7713(9) 0.7768(4)
H2_2 H 0.8629 0.7860 0.7930
C3_2 C 0.8130(3) 0.6574(9) 0.7458(4)
H3_2 H 0.8350 0.5810 0.7380
N3_2 N 0.6382(2) 0.6043(6) 0.6703(3)
C4_2 C 0.5996(3) 0.6280(8) 0.7060(3)
H4_2 H 0.6059 0.6185 0.7432
N4_2 N 0.5509(2) 0.6668(6) 0.6845(2)
C5_2 C 0.5603(3) 0.6654(11) 0.6304(4)
H5_2 H 0.5347 0.6873 0.6030
C6_2 C 0.6121(4) 0.6276(12) 0.6231(4)
H6_2 H 0.6281 0.6187 0.5893
N5_2 N 0.5067(2) 0.9178(6) 0.7563(2)
C7_2 C 0.4811(3) 0.9832(8) 0.7959(3)
H7_2 H 0.4513 0.9446 0.8134
H9_2 H 0.5750 0.9890 0.7179
N7_2 N 0.4587(2) 0.6051(5) 0.7785(2)
C10_2 C 0.4766(3) 0.4748(7) 0.7885(3)
H10_2 H 0.5042 0.4314 0.7692
C11_2 C 0.4129(3) 0.5136(7) 0.8456(3)
H11_2 H 0.3878 0.5018 0.8731
C12_2 C 0.4183(3) 0.6304(8) 0.8156(3)
H12_2 H 0.3985 0.7129 0.8192
N9_2 N 0.4188(2) 0.7701(6) 0.6744(3)
C13_2 C 0.3818(3) 0.8670(7) 0.6875(3)
H13_2 H 0.3894 0.9388 0.7120
N10_2 N 0.3331(2) 0.8514(6) 0.6622(2)
C14_2 C 0.3396(3) 0.7330(9) 0.6310(4)
H14_2 H 0.3127 0.6922 0.6086
C15_2 C 0.3924(3) 0.6858(9) 0.6385(3)
H15_2 H 0.4075 0.6083 0.6217
N11_2 N 0.2285(2) 0.8266(5) 0.7343(2)
C16_2 C 0.2481(2) 0.7018(6) 0.7487(3)
H16_2 H 0.2800 0.6641 0.7346
C17_2 C 0.1752(2) 0.7276(7) 0.7939(3)
H17_2 H 0.1465 0.7122 0.8173
C18_2 C 0.1815(3) 0.8419(7) 0.7637(3)
H18_2 H 0.1582 0.9190 0.7627
C19_2 C 0.7874(2) 0.8729(7) 0.4024(3)
H19_2 H 0.7768 0.7963 0.3814
N14_2 N 0.81412(19) 0.8608(5) 0.4497(2)
C20_2 C 0.8224(3) 0.9951(8) 0.4674(3)
N15_2 N 0.8521(2) 0.5430(6) 0.4231(2)
C22_2 C 0.8974(3) 0.4658(7) 0.4228(3)
H22_2 H 0.9255 0.4731 0.4490
N16_2 N 0.8986(2) 0.3766(6) 0.3810(2)
C23_2 C 0.8500(3) 0.3991(7) 0.3527(3)
H23_2 H 0.8385 0.3521 0.3213
C24_2 C 0.8216(3) 0.5009(7) 0.3780(3)
H24_2 H 0.7874 0.5360 0.3669
N17_2 N 0.7949(2) 0.5839(6) 0.5359(2)
C25_2 C 0.7807(3) 0.6214(7) 0.5846(3)
H25_2 H 0.7915 0.7057 0.6003
N18_2 N 0.7501(2) 0.5307(6) 0.6093(2)
C26_2 C 0.7432(4) 0.4223(9) 0.5730(4)
H26_2 H 0.7237 0.3401 0.5788
C27_2 C 0.7701(4) 0.4574(10) 0.5270(4)
H27_2 H 0.7713 0.4047 0.4953
N19_2 N 0.9146(2) 0.7283(6) 0.5143(2)
C28_2 C 0.9362(3) 0.6965(7) 0.5621(3)
H28_2 H 0.9175 0.6441 0.5875
C29_2 C 0.9992(3) 0.8120(8) 0.5226(3)
C30_2 C 0.9541(3) 0.8025(8) 0.4908(3)
H30_2 H 0.9504 0.8426 0.4565
Co10_2 Co 0.96595(4) 0.26987(11) 0.36219(5)
N24_2 N 0.22310(19) 0.9956(6) 0.6123(2)
H10_3 H 0.0042 0.0686 0.2692
C26_3 C 0.2432(4) 0.0777(9) 0.0730(4)
H26_3 H 0.2237 0.1599 0.0788
C27_3 C 0.2701(4) 0.0426(10) 0.0270(4)
N21_2 N 0.2150(2) 0.1428(6) 0.2205(2)
C22_3 C 0.3974(3) 0.0342(7) 0.9228(3)
H22_3 H 0.4255 0.0269 0.9490
C23_3 C 0.3500(3) 0.1009(7) 0.8527(3)
H23_3 H 0.3385 0.1479 0.8213
H27_3 H 0.2713 0.0953 0.9953
Co1_2 Co 0.21603(4) 0.95801(12) 0.18302(5)
N1_3 N 0.2599(2) 0.8241(6) 0.2285(3)
C1_3 C 0.2462(3) 0.7026(8) 0.2493(3)
H1_3 H 0.2119 0.6622 0.2432
N2_2 N 0.2850(2) 0.6428(6) 0.2795(2)
C2_3 C 0.3285(3) 0.7287(9) 0.2768(4)
H2_3 H 0.3629 0.7140 0.2930
C3_3 C 0.3130(3) 0.8426(9) 0.2458(4)
H3_3 H 0.3350 0.9190 0.2380
N3_3 N 0.1382(2) 0.8957(6) 0.1703(3)
C4_3 C 0.0996(3) 0.8720(8) 0.2060(3)
H4_3 H 0.1059 0.8815 0.2432
N4_3 N 0.0509(2) 0.8332(6) 0.1845(2)
C5_3 C 0.0603(3) 0.8346(11) 0.1304(4)
H5_3 H 0.0347 0.8127 0.1030
C6_3 C 0.1121(4) 0.8724(12) 0.1231(4)
H6_3 H 0.1281 0.8813 0.0893
N5_3 N 0.0067(2) 0.5822(6) 0.2563(2)
N6_3 N 0.0017(2) 0.3911(6) 0.3086(2)
C8_3 C 0.0451(3) 0.3757(9) 0.2747(4)
H8_3 H 0.0682 0.2984 0.2731
C9_3 C 0.0485(3) 0.4938(8) 0.2435(3)
H9_3 H 0.0750 0.5110 0.2179
N17_3 N 0.2949(2) 0.9161(6) 0.0359(2)
C25_3 C 0.2807(3) 0.8786(7) 0.0846(3)
H25_3 H 0.2915 0.7943 0.1003
N18_3 N 0.2501(2) 0.9693(6) 0.1093(2)
N19_3 N 0.4146(2) 0.7717(6) 0.0143(2)
C28_3 C 0.4362(3) 0.8035(7) 0.0621(3)
H28_3 H 0.4175 0.8559 0.0875
N20_2 N 0.4870(2) 0.7552(6) 0.0716(3)
C29_3 C 0.4992(3) 0.6880(8) 0.0226(3)
H29_3 H 0.5322 0.6454 0.0140
Co6_2 Co 0.28397(4) 0.45801(12) 0.31698(5)
N26_2 N 0.0130(2) 0.2552(6) 0.4284(3)
Co4_3 Co 0.34085(4) 0.81757(11) 0.98274(4)
C19_3 C 0.2874(2) 0.6271(7) 0.9024(3)
H19_3 H 0.2768 0.7037 0.8814
N14_3 N 0.31412(19) 0.6392(5) 0.9497(2)
C20_3 C 0.3224(3) 0.5049(8) 0.9674(3)
H20_3 H 0.3413 0.4789 0.9992
C21_3 C 0.2985(3) 0.4162(8) 0.9307(3)
H21_3 H 0.2968 0.3193 0.9338
N15_3 N 0.3521(2) 0.9570(6) 0.9231(2)
C24_3 C 0.3216(3) 0.9991(7) 0.8780(3)
H24_3 H 0.2874 0.9640 0.8669
C30_3 C 0.4541(3) 0.6975(8) 0.9908(3)
H30_3 H 0.4504 0.6574 0.9565
C10_3 C 0.9766(3) 0.0252(7) 0.2885(3)
N8 N 0.9502(2) 0.0861(6) 0.3294(2)
Co2_3 Co 0.98523(4) 0.76413(11) 0.22163(5)
C7_3 C 0.9811(3) 0.5168(8) 0.2959(3)
H7_3 H 0.9513 0.5554 0.3134
N7_3 N 0.9587(2) 0.8949(5) 0.2785(2)
C11_3 C 0.9129(3) 0.9864(7) 0.3456(3)
H11_3 H 0.8878 0.9982 0.3731
C12_3 C 0.9183(3) 0.8696(8) 0.3156(3)
H12_3 H 0.8985 0.7871 0.3192
N9_3 N 0.9188(2) 0.7299(6) 0.1744(3)
C13_3 C 0.8818(3) 0.6330(7) 0.1875(3)
H13_3 H 0.8894 0.5612 0.2120
N10_3 N 0.8331(2) 0.6486(6) 0.1622(2)
C14_3 C 0.8396(3) 0.7670(9) 0.1310(4)
H14_3 H 0.8127 0.8078 0.1086
C15_3 C 0.8924(3) 0.8142(9) 0.1385(3)
H15_3 H 0.9075 0.8917 0.1217
N11_3 N 0.7285(2) 0.6734(5) 0.2343(2)
C16_3 C 0.7481(2) 0.7982(6) 0.2487(3)
H16_3 H 0.7800 0.8359 0.2346
N12_2 N 0.7178(2) 0.8647(5) 0.2852(2)
C17_3 C 0.6752(2) 0.7724(7) 0.2939(3)
H17_3 H 0.6465 0.7878 0.3173
C18_3 C 0.6815(3) 0.6581(7) 0.2637(3)
H18_3 H 0.6582 0.5810 0.2627
N23_2 N 0.7822(2) 0.3647(5) 0.2148(2)
Co2_4 Co 0.51477(4) 0.26413(11) 0.27837(5)
Co4_4 Co 0.15915(4) 0.31757(11) 0.51726(4)
N1_4 N 0.2401(2) 0.3241(6) 0.2715(3)
C1_4 C 0.2538(3) 0.2026(8) 0.2507(3)
H1_4 H 0.2881 0.1622 0.2568
C2_4 C 0.1715(3) 0.2287(9) 0.2232(4)
H2_4 H 0.1371 0.2140 0.2070
C3_4 C 0.1870(3) 0.3426(9) 0.2542(4)
H3_4 H 0.1650 0.4190 0.2620
N3_4 N 0.3618(2) 0.3957(6) 0.3297(3)
C4_4 C 0.4004(3) 0.3720(8) 0.2940(3)
H4_4 H 0.3941 0.3815 0.2568
N4_4 N 0.4491(2) 0.3332(6) 0.3155(2)
C5_4 C 0.4397(3) 0.3346(11) 0.3696(4)
H5_4 H 0.4653 0.3127 0.3970
C6_4 C 0.3879(4) 0.3724(12) 0.3769(4)
H6_4 H 0.3719 0.3813 0.4107
N5_4 N 0.4933(2) 0.0822(6) 0.2437(2)
C7_4 C 0.5189(3) 0.0168(8) 0.2041(3)
H7_4 H 0.5487 0.0554 0.1866
H9_4 H 0.4250 0.0110 0.2821
N7_4 N 0.5413(2) 0.3949(5) 0.2215(2)
C10_4 C 0.5234(3) 0.5252(7) 0.2115(3)
H10_4 H 0.4958 0.5686 0.2308
N8_2 N 0.5498(2) 0.5861(6) 0.1706(2)
C11_4 C 0.5871(3) 0.4864(7) 0.1544(3)
H11_4 H 0.6122 0.4982 0.1269
C12_4 C 0.5817(3) 0.3696(8) 0.1844(3)
H12_4 H 0.6015 0.2871 0.1808
N9_4 N 0.5812(2) 0.2299(6) 0.3256(3)
C13_4 C 0.6182(3) 0.1330(7) 0.3125(3)
H13_4 H 0.6106 0.0612 0.2880
N10_4 N 0.6669(2) 0.1486(6) 0.3378(2)
C14_4 C 0.6604(3) 0.2670(9) 0.3690(4)
H14_4 H 0.6873 0.3078 0.3914
C15_4 C 0.6076(3) 0.3142(9) 0.3615(3)
H15_4 H 0.5925 0.3917 0.3783
N11_4 N 0.7715(2) 0.1734(5) 0.2657(2)
C16_4 C 0.7519(2) 0.2982(6) 0.2513(3)
H16_4 H 0.7200 0.3359 0.2654
C17_4 C 0.8248(2) 0.2724(7) 0.2061(3)
H17_4 H 0.8535 0.2878 0.1827
C18_4 C 0.8185(3) 0.1581(7) 0.2363(3)
H18_4 H 0.8418 0.0810 0.2373
C19_4 C 0.2126(2) 0.1271(7) 0.5976(3)
H19_4 H 0.2232 0.2037 0.6186
N14_4 N 0.18588(19) 0.1392(5) 0.5503(2)
C20_4 C 0.1776(3) 0.0049(8) 0.5326(3)
N15_4 N 0.1479(2) 0.4570(6) 0.5769(2)
C22_4 C 0.1026(3) 0.5342(7) 0.5772(3)
H22_4 H 0.0745 0.5269 0.5510
C23_4 C 0.1500(3) 0.6009(7) 0.6473(3)
H23_4 H 0.1615 0.6479 0.6787
C24_4 C 0.1784(3) 0.4991(7) 0.6220(3)
H24_4 H 0.2126 0.4640 0.6331
N17_4 N 0.2051(2) 0.4161(6) 0.4641(2)
C25_4 C 0.2193(3) 0.3786(7) 0.4154(3)
H25_4 H 0.2085 0.2943 0.3997
N18_4 N 0.2499(2) 0.4693(6) 0.3907(2)
C26_4 C 0.2568(4) 0.5777(9) 0.4270(4)
H26_4 H 0.2763 0.6599 0.4212
C27_4 C 0.2299(4) 0.5426(10) 0.4730(4)
H27_4 H 0.2287 0.5953 0.5047
N19_4 N 0.0854(2) 0.2717(6) 0.4857(2)
C28_4 C 0.0638(3) 0.3035(7) 0.4379(3)
H28_4 H 0.0825 0.3559 0.4125
C29_4 C 0.0008(3) 0.1880(8) 0.4774(3)
C30_4 C 0.0459(3) 0.1975(8) 0.5092(3)
H30_4 H 0.0496 0.1574 0.5435
N6_4 N 0.4983(2) 0.8911(6) 0.1914(2)
C8_4 C 0.4549(3) 0.8757(9) 0.2253(4)
H8_4 H 0.4318 0.7984 0.2269
C9_4 C 0.4515(3) 0.9938(8) 0.2565(3)
H20_4 H 0.1587 0.9789 0.5008
C21_4 C 0.2015(3) 0.9162(8) 0.5693(3)
H21_4 H 0.2032 0.8193 0.5662
H29_4 H 0.9678 0.1454 0.4860
loop_
_geom_bond_atom_site_label_1
_geom_bond_atom_site_label_2
_geom_bond_site_symmetry_1
_geom_bond_site_symmetry_2
Co3 N10 1_555 1_555
H7 C7 1_555 1_555
N7 Co2 1_555 1_555
H11 C11 1_555 1_555
C12 N7 1_555 1_555
H12 C12 1_555 1_555
N9 Co2 1_555 1_555
C13 N9 1_555 1_555
H13 C13 1_555 1_555
N10 C13 1_555 1_555
C14 N10 1_555 1_555
H14 C14 1_555 1_555
C15 N9 1_555 1_555
H15 C15 1_555 1_555
N11 Co3 1_555 1_555
C16 N11 1_555 1_555
H16 C16 1_555 1_555
N12 C16 1_555 1_555
C17 N12 1_555 1_555
H17 C17 1_555 1_555
C18 N11 1_555 1_555
H18 C18 1_555 1_555
N22 Co5 1_555 1_555
N23 Co3 1_555 1_555
N24 Co3 1_555 1_555
N25 Co5 1_555 1_555
C11 C12 1_555 1_555
C14 C15 1_555 1_555
C17 C18 1_555 1_555
N22 C10 1_555 1_555
Co4 N14 1_555 1_555
N13 C19 1_555 1_555
C19 H19 1_555 1_555
N14 C19 1_555 1_555
C20 N14 1_555 1_555
H20 C20 1_555 1_555
C21 N13 1_555 1_555
H21 C21 1_555 1_555
N15 Co4 1_555 1_555
C24 N15 1_555 1_555
H24 C24 1_555 1_555
H30 C30 1_555 1_555
Co8 N13 1_555 1_555
C20 C21 1_555 1_555
Co1 N1 1_555 1_555
N1 C1 1_555 1_555
C1 H1 1_555 1_555
N2 C1 1_555 1_555
C2 N2 1_555 1_555
H2 C2 1_555 1_555
C3 N1 1_555 1_555
H3 C3 1_555 1_555
N3 Co1 1_555 1_555
C4 N3 1_555 1_555
H4 C4 1_555 1_555
N4 C4 1_555 1_555
C5 N4 1_555 1_555
H5 C5 1_555 1_555
C6 N3 1_555 1_555
H6 C6 1_555 1_555
C8 N6 1_555 1_555
H8 C8 1_555 1_555
C9 N5 1_555 1_555
H9 C9 1_555 1_555
C25 N17 1_555 1_555
H25 C25 1_555 1_555
N18 Co1 1_555 1_555
C28 N19 1_555 1_555
H28 C28 1_555 1_555
N20 C28 1_555 1_555
C29 N20 1_555 1_555
H29 C29 1_555 1_555
Co6 N2 1_555 1_555
Co11 N20 1_555 1_555
C2 C3 1_555 1_555
C5 C6 1_555 1_555
C8 C9 1_555 1_555
C25 N18 1_555 1_555
H22 C22 1_555 1_555
N16 C22 1_555 1_555
C23 N16 1_555 1_555
H23 C23 1_555 1_555
Co10 N16 1_555 1_555
H26 C26 1_555 1_555
C26 C27 1_555 1_555
Co11 N6_2 1_555 1_555
C8_2 N6_2 1_555 1_555
H8_2 C8_2 1_555 1_555
C21_2 N13_2 1_555 1_555
H21_2 C21_2 1_555 1_555
Co8_2 N13_2 1_555 1_555
N22_2 Co11 1_555 1_555
N25_2 Co11 1_555 1_555
C8_2 C9_2 1_555 1_555
Co6 N1_2 1_555 1_555
Co2_2 N4_2 1_555 1_555
Co7 N10_2 1_555 1_555
Co4_2 N14_2 1_555 1_555
N1_2 C1_2 1_555 1_555
C1_2 H1_2 1_555 1_555
N21 C1_2 1_555 1_555
C2_2 N21 1_555 1_555
H2_2 C2_2 1_555 1_555
C3_2 N1_2 1_555 1_555
H3_2 C3_2 1_555 1_555
N3_2 Co6 1_555 1_555
C4_2 N3_2 1_555 1_555
H4_2 C4_2 1_555 1_555
N4_2 C4_2 1_555 1_555
C5_2 N4_2 1_555 1_555
H5_2 C5_2 1_555 1_555
C6_2 N3_2 1_555 1_555
H6_2 C6_2 1_555 1_555
N5_2 Co2_2 1_555 1_555
C7_2 N5_2 1_555 1_555
H7_2 C7_2 1_555 1_555
N7_2 Co2_2 1_555 1_555
C10_2 N7_2 1_555 1_555
H10_2 C10_2 1_555 1_555
N22_2 C10_2 1_555 1_555
C11_2 N22_2 1_555 1_555
H11_2 C11_2 1_555 1_555
C12_2 N7_2 1_555 1_555
H12_2 C12_2 1_555 1_555
N9_2 Co2_2 1_555 1_555
C13_2 N9_2 1_555 1_555
H13_2 C13_2 1_555 1_555
N10_2 C13_2 1_555 1_555
C14_2 N10_2 1_555 1_555
H14_2 C14_2 1_555 1_555
C15_2 N9_2 1_555 1_555
H15_2 C15_2 1_555 1_555
N11_2 Co7 1_555 1_555
C16_2 N11_2 1_555 1_555
H16_2 C16_2 1_555 1_555
N23 C16_2 1_555 1_555
C17_2 N23 1_555 1_555
H17_2 C17_2 1_555 1_555
C18_2 N11_2 1_555 1_555
H18_2 C18_2 1_555 1_555
C19_2 H19_2 1_555 1_555
N14_2 C19_2 1_555 1_555
C20_2 N14_2 1_555 1_555
N15_2 Co4_2 1_555 1_555
C22_2 N15_2 1_555 1_555
H22_2 C22_2 1_555 1_555
N16_2 C22_2 1_555 1_555
C23_2 N16_2 1_555 1_555
H23_2 C23_2 1_555 1_555
C24_2 N15_2 1_555 1_555
H24_2 C24_2 1_555 1_555
N17_2 Co4_2 1_555 1_555
C25_2 N17_2 1_555 1_555
H25_2 C25_2 1_555 1_555
N18_2 Co6 1_555 1_555
C26_2 N18_2 1_555 1_555
H26_2 C26_2 1_555 1_555
C27_2 N17_2 1_555 1_555
H27_2 C27_2 1_555 1_555
N19_2 Co4_2 1_555 1_555
C28_2 N19_2 1_555 1_555
H28_2 C28_2 1_555 1_555
N26 C28_2 1_555 1_555
C29_2 N26 1_555 1_555
C30_2 N19_2 1_555 1_555
H30_2 C30_2 1_555 1_555
Co10_2 N16_2 1_555 1_555
N24_2 Co7 1_555 1_555
C2_2 C3_2 1_555 1_555
C5_2 C6_2 1_555 1_555
C11_2 C12_2 1_555 1_555
C14_2 C15_2 1_555 1_555
C17_2 C18_2 1_555 1_555
C23_2 C24_2 1_555 1_555
C25_2 N18_2 1_555 1_555
C26_2 C27_2 1_555 1_555
C29_2 C30_2 1_555 1_555
H26_3 C26_3 1_555 1_555
C26_3 C27_3 1_555 1_555
H22_3 C22_3 1_555 1_555
N25_2 C22_3 1_555 1_555
C23_3 N25_2 1_555 1_555
H23_3 C23_3 1_555 1_555
Co1_2 N1_3 1_555 1_555
N1_3 C1_3 1_555 1_555
C1_3 H1_3 1_555 1_555
N2_2 C1_3 1_555 1_555
C2_3 N2_2 1_555 1_555
H2_3 C2_3 1_555 1_555
C3_3 N1_3 1_555 1_555
H3_3 C3_3 1_555 1_555
N3_3 Co1_2 1_555 1_555
C4_3 N3_3 1_555 1_555
H4_3 C4_3 1_555 1_555
N4_3 C4_3 1_555 1_555
C5_3 N4_3 1_555 1_555
H5_3 C5_3 1_555 1_555
C6_3 N3_3 1_555 1_555
H6_3 C6_3 1_555 1_555
C8_3 N6_3 1_555 1_555
H8_3 C8_3 1_555 1_555
C9_3 N5_3 1_555 1_555
H9_3 C9_3 1_555 1_555
C25_3 N17_3 1_555 1_555
H25_3 C25_3 1_555 1_555
N18_3 Co1_2 1_555 1_555
C28_3 N19_3 1_555 1_555
H28_3 C28_3 1_555 1_555
N20_2 C28_3 1_555 1_555
C29_3 N20_2 1_555 1_555
H29_3 C29_3 1_555 1_555
Co6_2 N2_2 1_555 1_555
Co10 N20_2 1_555 1_555
C2_3 C3_3 1_555 1_555
C5_3 C6_3 1_555 1_555
C8_3 C9_3 1_555 1_555
C25_3 N18_3 1_555 1_555
Co4_3 N14_3 1_555 1_555
N24 C19_3 1_555 1_555
C19_3 H19_3 1_555 1_555
N14_3 C19_3 1_555 1_555
C20_3 N14_3 1_555 1_555
H20_3 C20_3 1_555 1_555
C21_3 N24 1_555 1_555
H21_3 C21_3 1_555 1_555
N15_3 Co4_3 1_555 1_555
C24_3 N15_3 1_555 1_555
H24_3 C24_3 1_555 1_555
H30_3 C30_3 1_555 1_555
C20_3 C21_3 1_555 1_555
N8 C10_3 1_555 1_555
Co10_2 N8 1_555 1_555
Co8 N10_3 1_555 1_555
H7_3 C7_3 1_555 1_555
N7_3 Co2_3 1_555 1_555
H11_3 C11_3 1_555 1_555
C12_3 N7_3 1_555 1_555
H12_3 C12_3 1_555 1_555
N9_3 Co2_3 1_555 1_555
C13_3 N9_3 1_555 1_555
H13_3 C13_3 1_555 1_555
N10_3 C13_3 1_555 1_555
C14_3 N10_3 1_555 1_555
H14_3 C14_3 1_555 1_555
C15_3 N9_3 1_555 1_555
H15_3 C15_3 1_555 1_555
N11_3 Co8 1_555 1_555
C16_3 N11_3 1_555 1_555
H16_3 C16_3 1_555 1_555
N12_2 C16_3 1_555 1_555
C17_3 N12_2 1_555 1_555
H17_3 C17_3 1_555 1_555
C18_3 N11_3 1_555 1_555
H18_3 C18_3 1_555 1_555
N23_2 Co8 1_555 1_555
C11_3 C12_3 1_555 1_555
C14_3 C15_3 1_555 1_555
C17_3 C18_3 1_555 1_555
Co6_2 N1_4 1_555 1_555
Co2_4 N4_4 1_555 1_555
Co8_2 N10_4 1_555 1_555
Co4_4 N14_4 1_555 1_555
N1_4 C1_4 1_555 1_555
C1_4 H1_4 1_555 1_555
N21_2 C1_4 1_555 1_555
C2_4 N21_2 1_555 1_555
H2_4 C2_4 1_555 1_555
C3_4 N1_4 1_555 1_555
H3_4 C3_4 1_555 1_555
N3_4 Co6_2 1_555 1_555
C4_4 N3_4 1_555 1_555
H4_4 C4_4 1_555 1_555
N4_4 C4_4 1_555 1_555
C5_4 N4_4 1_555 1_555
H5_4 C5_4 1_555 1_555
C6_4 N3_4 1_555 1_555
H6_4 C6_4 1_555 1_555
N5_4 Co2_4 1_555 1_555
C7_4 N5_4 1_555 1_555
H7_4 C7_4 1_555 1_555
N7_4 Co2_4 1_555 1_555
C10_4 N7_4 1_555 1_555
H10_4 C10_4 1_555 1_555
N8_2 C10_4 1_555 1_555
C11_4 N8_2 1_555 1_555
H11_4 C11_4 1_555 1_555
C12_4 N7_4 1_555 1_555
H12_4 C12_4 1_555 1_555
N9_4 Co2_4 1_555 1_555
C13_4 N9_4 1_555 1_555
H13_4 C13_4 1_555 1_555
N10_4 C13_4 1_555 1_555
C14_4 N10_4 1_555 1_555
H14_4 C14_4 1_555 1_555
C15_4 N9_4 1_555 1_555
H15_4 C15_4 1_555 1_555
N11_4 Co8_2 1_555 1_555
C16_4 N11_4 1_555 1_555
H16_4 C16_4 1_555 1_555
N23_2 C16_4 1_555 1_555
C17_4 N23_2 1_555 1_555
H17_4 C17_4 1_555 1_555
C18_4 N11_4 1_555 1_555
H18_4 C18_4 1_555 1_555
C19_4 H19_4 1_555 1_555
N14_4 C19_4 1_555 1_555
C20_4 N14_4 1_555 1_555
N15_4 Co4_4 1_555 1_555
C22_4 N15_4 1_555 1_555
H22_4 C22_4 1_555 1_555
N25 C22_4 1_555 1_555
C23_4 N25 1_555 1_555
H23_4 C23_4 1_555 1_555
C24_4 N15_4 1_555 1_555
H24_4 C24_4 1_555 1_555
N17_4 Co4_4 1_555 1_555
C25_4 N17_4 1_555 1_555
H25_4 C25_4 1_555 1_555
N18_4 Co6_2 1_555 1_555
C26_4 N18_4 1_555 1_555
H26_4 C26_4 1_555 1_555
C27_4 N17_4 1_555 1_555
H27_4 C27_4 1_555 1_555
N19_4 Co4_4 1_555 1_555
C28_4 N19_4 1_555 1_555
H28_4 C28_4 1_555 1_555
N26_2 C28_4 1_555 1_555
C29_4 N26_2 1_555 1_555
C30_4 N19_4 1_555 1_555
H30_4 C30_4 1_555 1_555
Co10 N8_2 1_555 1_555
C2_4 C3_4 1_555 1_555
C5_4 C6_4 1_555 1_555
C11_4 C12_4 1_555 1_555
C14_4 C15_4 1_555 1_555
C17_4 C18_4 1_555 1_555
C23_4 C24_4 1_555 1_555
C25_4 N18_4 1_555 1_555
C26_4 C27_4 1_555 1_555
C29_4 C30_4 1_555 1_555
Co10 N6_4 1_555 1_555
C8_4 N6_4 1_555 1_555
H8_4 C8_4 1_555 1_555
C21_4 N24_2 1_555 1_555
H21_4 C21_4 1_555 1_555
C8_4 C9_4 1_555 1_555

#END
