
###############################################################################
#
# This file contains modified crystal structure data generated from the
# MOF subset of the Cambridge Structural Database (CSD) v543 
# hosted by the Cambridge Crystallographic Data Centre (CCDC).
#
# This work is licensed under the Creative Commons
# Attribution-NonCommercial-ShareAlike 4.0 International License.
# To view a copy of this license, visit
# http://creativecommons.org/licenses/by-nc-sa/4.0/
# or send a letter to
# Creative Commons, PO Box 1866, Mountain View, CA 94042, USA.
#
# CIF created using the CSD Python API on 29 September 2022
# The structure has been converted into the P1 space group
# The structure has a 3D framework
# The original CSD entry DAZKEX is in the tetragonal crystal system
# The framework has been calculated to contain at least 10.0% void space
# The void calculation uses a probe of radius 1.32A, grid spacing 0.4
# H atom positions have been added when not included in the experimental data
#
###############################################################################

data_DAZKEX
_chemical_formula_moiety         '(C224 H128 Al21 O96)n'
_symmetry_cell_setting           triclinic
_symmetry_space_group_name_H-M   'P 1'
_symmetry_Int_Tables_number      1
_space_group_name_Hall           'P 1'
loop_
_symmetry_equiv_pos_site_id
_symmetry_equiv_pos_as_xyz
1 x,y,z
_cell_length_a                   13.10349(66)
_cell_length_b                   13.10349(66)
_cell_length_c                   51.7576(40)
_cell_angle_alpha                90
_cell_angle_beta                 90
_cell_angle_gamma                90
_cell_volume                     8886.85
loop_
_atom_site_label
_atom_site_type_symbol
_atom_site_fract_x
_atom_site_fract_y
_atom_site_fract_z
_atom_site_U_iso_or_equiv
_atom_site_thermal_displace_type
Al2 Al 0.500 0 0.12807(34) 0.0182 Uiso
C17 C 0.371605 0.001587 0.052343 0.0260 Uiso
C18 C 0.356992 0.018007 0.025887 0.0260 Uiso
Al3 Al 0.750 0.000 0.375 0.0182 Uiso
Al6 Al 0.5 0.000 0.37193(34) 0.0182 Uiso
O13 O 0.4278(17) 0.1270(16) 0.12812(66) 0.0626 Uiso
O14 O 0.59956(96) 0.0430(13) 0.10570(22) 0.0626 Uiso
O15 O 0.6040(14) 0.0346(14) 0.15028(29) 0.0626 Uiso
H4 H 0.351317 0.0956628 0.0185309 . .
H10 H 0.377015 0.0664617 0.0654221 . .
Al1 Al 0.500 0.750 0.125 0.0182 Uiso
Al2_2 Al 0.500 1 0.12807(34) 0.0182 Uiso
O1 O 0.5722(17) 0.8730(16) 0.12812(66) 0.0626 Uiso
O2 O 0.5637(10) 0.7079(12) 0.15652(36) 0.0626 Uiso
O3 O 0.59956(96) 0.5430(13) 0.14430(22) 0.0626 Uiso
O4 O 0.5346(14) 0.8960(14) 0.34972(29) 0.0626 Uiso
O5 O 0.7156(15) 0.8982(18) 0.34978(38) 0.0626 Uiso
O6 O 0.6728(18) 0.54000(96) 0.26957(29) 0.0626 Uiso
C1 C 0.591663 0.616060 0.160585 0.0260 Uiso
C2 C 0.620645 0.598351 0.187850 0.0260 Uiso
C3 C 0.628395 0.498413 0.197657 0.0260 Uiso
C4 C 0.643008 0.481993 0.224113 0.0260 Uiso
C5 C 0.650415 0.564557 0.241244 0.0260 Uiso
C6 C 0.648716 0.664781 0.231197 0.0260 Uiso
C7 C 0.632281 0.681315 0.204857 0.0260 Uiso
C8 C 0.651098 0.623903 0.288532 0.0260 Uiso
C9 C 0.730593 0.647430 0.305529 0.0260 Uiso
C10 C 0.721101 0.728383 0.322941 0.0260 Uiso
C11 C 0.630736 0.786854 0.323979 0.0260 Uiso
C12 C 0.549166 0.760563 0.307522 0.0260 Uiso
C13 C 0.558872 0.679075 0.290119 0.0260 Uiso
C14 C 0.624507 0.876773 0.341416 0.0260 Uiso
O7 O 0.4278(17) 0.6270(16) 0.12188(66) 0.0626 Uiso
O8 O 0.4363(10) 0.7921(12) 0.09348(36) 0.0626 Uiso
O9 O 0.40044(96) 0.9570(13) 0.10570(22) 0.0626 Uiso
C15 C 0.408337 0.883940 0.089415 0.0260 Uiso
C16 C 0.379355 0.901649 0.062150 0.0260 Uiso
C19 C 0.349585 0.935443 0.008756 0.0260 Uiso
C20 C 0.351284 0.835219 0.018803 0.0260 Uiso
C21 C 0.367719 0.818685 0.045143 0.0260 Uiso
Al3_2 Al 0.750 1.000 0.375 0.0182 Uiso
Al5 Al 0.500 0.5 0.12193(34) 0.0182 Uiso
Al6_2 Al 0.5 1.000 0.37193(34) 0.0182 Uiso
O16 O 0.3960(14) 0.9654(14) 0.15028(29) 0.0626 Uiso
O17 O 0.6018(18) 0.7156(15) 0.09978(38) 0.0626 Uiso
O18 O 0.3982(18) 0.7844(15) 0.15022(38) 0.0626 Uiso
H6 H 0.371552 0.741017 0.0525665 . .
H7 H 0.339716 0.77047 0.0059421 . .
H8 H 0.622985 0.433538 0.184578 . .
H9 H 0.800406 0.60236 0.305199 . .
H11 H 0.494875 0.658297 0.277769 . .
H12 H 0.660284 0.72953 0.244058 . .
H13 H 0.784144 0.746559 0.335855 . .
H14 H 0.648683 0.404337 0.231469 . .
H15 H 0.628448 0.758983 0.197433 . .
H16 H 0.478227 0.803744 0.308322 . .
O10 O 0.4654(14) 0.6040(14) 0.90028(29) 0.0626 Uiso
O11 O 0.2844(15) 0.6018(18) 0.90022(38) 0.0626 Uiso
O12 O 0.3272(18) 0.96000(96) 0.98043(29) 0.0626 Uiso
C22 C 0.348902 0.876097 0.961468 0.0260 Uiso
C23 C 0.269407 0.852570 0.944471 0.0260 Uiso
C24 C 0.278899 0.771617 0.927059 0.0260 Uiso
C25 C 0.369264 0.713146 0.926021 0.0260 Uiso
C26 C 0.450834 0.739437 0.942478 0.0260 Uiso
C27 C 0.441128 0.820925 0.959881 0.0260 Uiso
C28 C 0.375493 0.623227 0.908584 0.0260 Uiso
Al4 Al 0.250 0.500 0.875 0.0182 Uiso
Al7 Al 0.5 0.500 0.87807(34) 0.0182 Uiso
H1 H 0.521773 0.696256 0.941678 . .
H2 H 0.199594 0.89764 0.944801 . .
H3 H 0.505125 0.841703 0.972231 . .
H5 H 0.215856 0.753441 0.914145 . .
O13_2 O 0.5722(17) 0.3730(16) 0.12188(66) 0.0626 Uiso
O14_2 O 0.40044(96) 0.4570(13) 0.14430(22) 0.0626 Uiso
O15_2 O 0.3960(14) 0.4654(14) 0.09972(29) 0.0626 Uiso
O16_2 O 0.6040(14) 0.5346(14) 0.09972(29) 0.0626 Uiso
Al4_2 Al 0.250 0.000 0.375 0.0182 Uiso
Al5_2 Al 0.000 0.0 0.62193(34) 0.0182 Uiso
Al7_2 Al 0.0 0.000 0.37807(34) 0.0182 Uiso
Al1_2 Al -0.000 0.750 0.625 0.0182 Uiso
Al2_3 Al 0.000 0.5 0.62807(34) 0.0182 Uiso
O7_2 O 0.0722(17) 0.8730(16) 0.62188(66) 0.0626 Uiso
O8_2 O 0.0637(10) 0.7079(12) 0.59348(36) 0.0626 Uiso
O9_2 O 0.09956(96) 0.5430(13) 0.60570(22) 0.0626 Uiso
O10_2 O 0.0346(14) 0.8960(14) 0.40028(29) 0.0626 Uiso
O11_2 O 0.2156(15) 0.8982(18) 0.40022(38) 0.0626 Uiso
O12_2 O 0.1728(18) 0.54000(96) 0.48043(29) 0.0626 Uiso
C15_2 C 0.091663 0.616060 0.589415 0.0260 Uiso
C16_2 C 0.120645 0.598351 0.562150 0.0260 Uiso
C17_2 C 0.128395 0.498413 0.552343 0.0260 Uiso
C18_2 C 0.143008 0.481993 0.525887 0.0260 Uiso
C19_2 C 0.150415 0.564557 0.508756 0.0260 Uiso
C20_2 C 0.148716 0.664781 0.518803 0.0260 Uiso
C21_2 C 0.132281 0.681315 0.545143 0.0260 Uiso
C22_2 C 0.151098 0.623903 0.461468 0.0260 Uiso
C23_2 C 0.230593 0.647430 0.444471 0.0260 Uiso
C24_2 C 0.221101 0.728383 0.427059 0.0260 Uiso
C25_2 C 0.130736 0.786854 0.426021 0.0260 Uiso
C26_2 C 0.049166 0.760563 0.442478 0.0260 Uiso
C27_2 C 0.058872 0.679075 0.459881 0.0260 Uiso
C28_2 C 0.124507 0.876773 0.408584 0.0260 Uiso
Al4_3 Al 0.250 1.000 0.375 0.0182 Uiso
Al5_3 Al 0.000 1.0 0.62193(34) 0.0182 Uiso
Al6_3 Al 0.0 0.500 0.87193(34) 0.0182 Uiso
Al7_3 Al 0.0 1.000 0.37807(34) 0.0182 Uiso
O13_3 O 0.0722(17) 0.3730(16) 0.62812(66) 0.0626 Uiso
O16_3 O 0.1040(14) 0.5346(14) 0.65028(29) 0.0626 Uiso
O18_2 O 0.1018(18) 0.7156(15) 0.65022(38) 0.0626 Uiso
H2_2 H 0.300406 0.60236 0.444801 . .
H4_2 H 0.148683 0.404337 0.518531 . .
H5_2 H 0.284144 0.746559 0.414145 . .
H6_2 H 0.128448 0.758983 0.552567 . .
H7_2 H 0.160284 0.72953 0.505942 . .
H10_2 H 0.122985 0.433538 0.565422 . .
H11_2 H 0.00512493 0.841703 0.777769 . .
H16_2 H 0.0217725 0.696256 0.808322 . .
C3_2 C 0.871605 0.001587 0.697657 0.0260 Uiso
C4_2 C 0.856992 0.018007 0.724113 0.0260 Uiso
Al5_4 Al 1.000 0.0 0.62193(34) 0.0182 Uiso
Al7_4 Al 1.0 0.000 0.37807(34) 0.0182 Uiso
H8_2 H 0.877015 0.0664617 0.684578 . .
H14_2 H 0.851317 0.0956628 0.731469 . .
Al1_3 Al 1.000 0.750 0.625 0.0182 Uiso
Al2_4 Al 1.000 0.5 0.62807(34) 0.0182 Uiso
O1_2 O 0.9278(17) 0.6270(16) 0.62812(66) 0.0626 Uiso
O2_2 O 0.9363(10) 0.7921(12) 0.65652(36) 0.0626 Uiso
O3_2 O 0.90044(96) 0.9570(13) 0.64430(22) 0.0626 Uiso
O4_2 O 0.9654(14) 0.6040(14) 0.84972(29) 0.0626 Uiso
O5_2 O 0.7844(15) 0.6018(18) 0.84978(38) 0.0626 Uiso
O6_2 O 0.8272(18) 0.96000(96) 0.76957(29) 0.0626 Uiso
C1_2 C 0.908337 0.883940 0.660585 0.0260 Uiso
C2_2 C 0.879355 0.901649 0.687850 0.0260 Uiso
C5_2 C 0.849585 0.935443 0.741244 0.0260 Uiso
C6_2 C 0.851284 0.835219 0.731197 0.0260 Uiso
C7_2 C 0.867719 0.818685 0.704857 0.0260 Uiso
C8_2 C 0.848902 0.876097 0.788532 0.0260 Uiso
C9_2 C 0.769407 0.852570 0.805529 0.0260 Uiso
C10_2 C 0.778899 0.771617 0.822941 0.0260 Uiso
C11_2 C 0.869264 0.713146 0.823979 0.0260 Uiso
C12_2 C 0.950834 0.739437 0.807522 0.0260 Uiso
C13_2 C 0.941128 0.820925 0.790119 0.0260 Uiso
C14_2 C 0.875493 0.623227 0.841416 0.0260 Uiso
Al3_3 Al 0.750 0.500 0.875 0.0182 Uiso
Al5_5 Al 1.000 1.0 0.62193(34) 0.0182 Uiso
Al6_4 Al 1.0 0.500 0.87193(34) 0.0182 Uiso
Al7_5 Al 1.0 1.000 0.37807(34) 0.0182 Uiso
O14_3 O 0.90044(96) 0.4570(13) 0.60570(22) 0.0626 Uiso
O15_3 O 0.8960(14) 0.4654(14) 0.65028(29) 0.0626 Uiso
O17_2 O 0.8982(18) 0.7844(15) 0.59978(38) 0.0626 Uiso
H1_2 H 0.978227 0.803744 0.441678 . .
H3_2 H 0.994875 0.658297 0.472231 . .
H9_2 H 0.699594 0.89764 0.805199 . .
H12_2 H 0.839716 0.77047 0.744058 . .
H13_2 H 0.715856 0.753441 0.835855 . .
H15_2 H 0.871552 0.741017 0.697433 . .
O1_3 O 0.1270(16) 0.0722(17) 0.37812(66) 0.0626 Uiso
O2_3 O 0.2921(12) 0.0637(10) 0.40652(36) 0.0626 Uiso
O3_3 O 0.4570(13) 0.09956(96) 0.39430(22) 0.0626 Uiso
O4_3 O 0.1040(14) 0.0346(14) 0.59972(29) 0.0626 Uiso
O5_3 O 0.1018(18) 0.2156(15) 0.59978(38) 0.0626 Uiso
O6_3 O 0.46000(96) 0.1728(18) 0.51957(29) 0.0626 Uiso
C1_3 C 0.383940 0.091663 0.410585 0.0260 Uiso
C2_3 C 0.401649 0.120645 0.437850 0.0260 Uiso
C3_3 C 0.501587 0.128395 0.447657 0.0260 Uiso
C4_3 C 0.518007 0.143008 0.474113 0.0260 Uiso
C5_3 C 0.435443 0.150415 0.491244 0.0260 Uiso
C6_3 C 0.335219 0.148716 0.481197 0.0260 Uiso
C7_3 C 0.318685 0.132281 0.454857 0.0260 Uiso
C8_3 C 0.376097 0.151098 0.538532 0.0260 Uiso
C9_3 C 0.352570 0.230593 0.555529 0.0260 Uiso
C10_3 C 0.271617 0.221101 0.572941 0.0260 Uiso
C11_3 C 0.213146 0.130736 0.573979 0.0260 Uiso
C12_3 C 0.239437 0.049166 0.557522 0.0260 Uiso
C13_3 C 0.320925 0.058872 0.540119 0.0260 Uiso
C14_3 C 0.123227 0.124507 0.591416 0.0260 Uiso
Al3_4 Al -0.000 0.250 0.625 0.0182 Uiso
O17_3 O 0.2844(15) 0.1018(18) 0.34978(38) 0.0626 Uiso
H1_3 H 0.303744 0.0217725 0.191678 . .
H3_3 H 0.158297 0.00512493 0.222231 . .
H8_3 H 0.566462 0.122985 0.434578 . .
H9_3 H 0.39764 0.300406 0.555199 . .
H12_3 H 0.27047 0.160284 0.494058 . .
H13_3 H 0.253441 0.284144 0.585855 . .
H14_3 H 0.595663 0.148683 0.481469 . .
H15_3 H 0.241017 0.128448 0.447433 . .
O7_3 O 0.3730(16) 0.9278(17) 0.37188(66) 0.0626 Uiso
O8_3 O 0.2079(12) 0.9363(10) 0.34348(36) 0.0626 Uiso
O9_3 O 0.0430(13) 0.90044(96) 0.35570(22) 0.0626 Uiso
O12_3 O 0.04000(96) 0.8272(18) 0.23043(29) 0.0626 Uiso
C15_3 C 0.116060 0.908337 0.339415 0.0260 Uiso
C16_3 C 0.098351 0.879355 0.312150 0.0260 Uiso
C19_3 C 0.064557 0.849585 0.258756 0.0260 Uiso
C20_3 C 0.164781 0.851284 0.268803 0.0260 Uiso
C21_3 C 0.181315 0.867719 0.295143 0.0260 Uiso
C22_3 C 0.123903 0.848902 0.211468 0.0260 Uiso
C23_3 C 0.147430 0.769407 0.194471 0.0260 Uiso
C24_3 C 0.228383 0.778899 0.177059 0.0260 Uiso
C25_3 C 0.286854 0.869264 0.176021 0.0260 Uiso
C26_3 C 0.260563 0.950834 0.192478 0.0260 Uiso
C27_3 C 0.179075 0.941128 0.209881 0.0260 Uiso
C28_3 C 0.376773 0.875493 0.158584 0.0260 Uiso
H2_3 H 0.10236 0.699594 0.194801 . .
H5_3 H 0.246559 0.715856 0.164145 . .
H6_3 H 0.258983 0.871552 0.302567 . .
H7_3 H 0.22953 0.839716 0.255942 . .
H11_3 H 0.341703 0.994875 0.527769 . .
H16_3 H 0.196256 0.978227 0.558322 . .
Al3_5 Al 1.000 0.250 0.625 0.0182 Uiso
O14_4 O 0.9570(13) 0.09956(96) 0.35570(22) 0.0626 Uiso
O15_4 O 0.9654(14) 0.1040(14) 0.40028(29) 0.0626 Uiso
C17_3 C 0.998413 0.871605 0.302343 0.0260 Uiso
C18_3 C 0.981993 0.856992 0.275887 0.0260 Uiso
O13_4 O 0.8730(16) 0.9278(17) 0.37812(66) 0.0626 Uiso
H4_3 H 0.904337 0.851317 0.268531 . .
H10_3 H 0.933538 0.877015 0.315422 . .
C3_4 C 0.001587 0.128395 0.302343 0.0260 Uiso
C4_4 C 0.018007 0.143008 0.275887 0.0260 Uiso
H8_4 H 0.0664617 0.122985 0.315422 . .
H14_4 H 0.0956628 0.148683 0.268531 . .
O1_4 O 0.6270(16) 0.0722(17) 0.37188(66) 0.0626 Uiso
O2_4 O 0.7921(12) 0.0637(10) 0.34348(36) 0.0626 Uiso
O5_4 O 0.6018(18) 0.2156(15) 0.15022(38) 0.0626 Uiso
O6_4 O 0.96000(96) 0.1728(18) 0.23043(29) 0.0626 Uiso
C1_4 C 0.883940 0.091663 0.339415 0.0260 Uiso
C2_4 C 0.901649 0.120645 0.312150 0.0260 Uiso
C5_4 C 0.935443 0.150415 0.258756 0.0260 Uiso
C6_4 C 0.835219 0.148716 0.268803 0.0260 Uiso
C7_4 C 0.818685 0.132281 0.295143 0.0260 Uiso
C8_4 C 0.876097 0.151098 0.211468 0.0260 Uiso
C9_4 C 0.852570 0.230593 0.194471 0.0260 Uiso
C10_4 C 0.771617 0.221101 0.177059 0.0260 Uiso
C11_4 C 0.713146 0.130736 0.176021 0.0260 Uiso
C12_4 C 0.739437 0.049166 0.192478 0.0260 Uiso
C13_4 C 0.820925 0.058872 0.209881 0.0260 Uiso
C14_4 C 0.623227 0.124507 0.158584 0.0260 Uiso
Al3_6 Al 0.500 0.250 0.125 0.0182 Uiso
O15_5 O 0.4654(14) 0.1040(14) 0.34972(29) 0.0626 Uiso
O17_4 O 0.7844(15) 0.1018(18) 0.40022(38) 0.0626 Uiso
H1_4 H 0.803744 0.0217725 0.558322 . .
H3_4 H 0.658297 0.00512493 0.527769 . .
H9_4 H 0.89764 0.300406 0.194801 . .
H12_4 H 0.77047 0.160284 0.255942 . .
H13_4 H 0.753441 0.284144 0.164145 . .
H15_4 H 0.741017 0.128448 0.302567 . .
O8_4 O 0.7079(12) 0.9363(10) 0.40652(36) 0.0626 Uiso
O9_4 O 0.5430(13) 0.90044(96) 0.39430(22) 0.0626 Uiso
O10_3 O 0.8960(14) 0.9654(14) 0.59972(29) 0.0626 Uiso
O12_4 O 0.54000(96) 0.8272(18) 0.51957(29) 0.0626 Uiso
C15_4 C 0.616060 0.908337 0.410585 0.0260 Uiso
C16_4 C 0.598351 0.879355 0.437850 0.0260 Uiso
C17_4 C 0.498413 0.871605 0.447657 0.0260 Uiso
C18_4 C 0.481993 0.856992 0.474113 0.0260 Uiso
C19_4 C 0.564557 0.849585 0.491244 0.0260 Uiso
C20_4 C 0.664781 0.851284 0.481197 0.0260 Uiso
C21_4 C 0.681315 0.867719 0.454857 0.0260 Uiso
C22_4 C 0.623903 0.848902 0.538532 0.0260 Uiso
C23_4 C 0.647430 0.769407 0.555529 0.0260 Uiso
C24_4 C 0.728383 0.778899 0.572941 0.0260 Uiso
C25_4 C 0.786854 0.869264 0.573979 0.0260 Uiso
C26_4 C 0.760563 0.950834 0.557522 0.0260 Uiso
C27_4 C 0.679075 0.941128 0.540119 0.0260 Uiso
C28_4 C 0.876773 0.875493 0.591416 0.0260 Uiso
H2_4 H 0.60236 0.699594 0.555199 . .
H4_4 H 0.404337 0.851317 0.481469 . .
H5_4 H 0.746559 0.715856 0.585855 . .
H6_4 H 0.758983 0.871552 0.447433 . .
H7_4 H 0.72953 0.839716 0.494058 . .
H10_4 H 0.433538 0.877015 0.434578 . .
H11_4 H 0.841703 0.994875 0.222231 . .
H16_4 H 0.696256 0.978227 0.191678 . .
C17_5 C 0.001587 0.628395 0.947657 0.0260 Uiso
C18_5 C 0.018007 0.643008 0.974113 0.0260 Uiso
O13_5 O 0.1270(16) 0.5722(17) 0.87188(66) 0.0626 Uiso
O14_5 O 0.0430(13) 0.40044(96) 0.89430(22) 0.0626 Uiso
O15_6 O 0.0346(14) 0.3960(14) 0.84972(29) 0.0626 Uiso
H4_5 H 0.0956628 0.648683 0.981469 . .
H10_5 H 0.0664617 0.622985 0.934578 . .
O12_5 O 0.96000(96) 0.6728(18) 0.01957(29) 0.0626 Uiso
C22_5 C 0.876097 0.651098 0.038532 0.0260 Uiso
C23_5 C 0.852570 0.730593 0.055529 0.0260 Uiso
C24_5 C 0.771617 0.721101 0.072941 0.0260 Uiso
C25_5 C 0.713146 0.630736 0.073979 0.0260 Uiso
C26_5 C 0.739437 0.549166 0.057522 0.0260 Uiso
C27_5 C 0.820925 0.558872 0.040119 0.0260 Uiso
C28_5 C 0.623227 0.624507 0.091416 0.0260 Uiso
H1_5 H 0.696256 0.478227 0.0583219 . .
H2_5 H 0.89764 0.800406 0.0551994 . .
H3_5 H 0.841703 0.494875 0.0277692 . .
H5_5 H 0.753441 0.784144 0.0858554 . .
O1_5 O 0.8730(16) 0.4278(17) 0.87188(66) 0.0626 Uiso
O2_5 O 0.7079(12) 0.4363(10) 0.84348(36) 0.0626 Uiso
O3_4 O 0.5430(13) 0.40044(96) 0.85570(22) 0.0626 Uiso
O5_5 O 0.8982(18) 0.2844(15) 0.65022(38) 0.0626 Uiso
O6_5 O 0.54000(96) 0.3272(18) 0.73043(29) 0.0626 Uiso
C1_5 C 0.616060 0.408337 0.839415 0.0260 Uiso
C2_5 C 0.598351 0.379355 0.812150 0.0260 Uiso
C3_5 C 0.498413 0.371605 0.802343 0.0260 Uiso
C4_5 C 0.481993 0.356992 0.775887 0.0260 Uiso
C5_5 C 0.564557 0.349585 0.758756 0.0260 Uiso
C6_5 C 0.664781 0.351284 0.768803 0.0260 Uiso
C7_5 C 0.681315 0.367719 0.795143 0.0260 Uiso
C8_5 C 0.623903 0.348902 0.711468 0.0260 Uiso
C9_5 C 0.647430 0.269407 0.694471 0.0260 Uiso
C10_5 C 0.728383 0.278899 0.677059 0.0260 Uiso
C11_5 C 0.786854 0.369264 0.676021 0.0260 Uiso
C12_5 C 0.760563 0.450834 0.692478 0.0260 Uiso
C13_5 C 0.679075 0.441128 0.709881 0.0260 Uiso
C14_5 C 0.876773 0.375493 0.658584 0.0260 Uiso
O7_4 O 0.6270(16) 0.5722(17) 0.87812(66) 0.0626 Uiso
O8_5 O 0.7921(12) 0.5637(10) 0.90652(36) 0.0626 Uiso
O9_5 O 0.9570(13) 0.59956(96) 0.89430(22) 0.0626 Uiso
C15_5 C 0.883940 0.591663 0.910585 0.0260 Uiso
C16_5 C 0.901649 0.620645 0.937850 0.0260 Uiso
C19_5 C 0.935443 0.650415 0.991244 0.0260 Uiso
C20_5 C 0.835219 0.648716 0.981197 0.0260 Uiso
C21_5 C 0.818685 0.632281 0.954857 0.0260 Uiso
O17_5 O 0.7156(15) 0.3982(18) 0.90022(38) 0.0626 Uiso
H6_5 H 0.741017 0.628448 0.947433 . .
H7_5 H 0.77047 0.660284 0.994058 . .
H8_5 H 0.433538 0.377015 0.815422 . .
H9_5 H 0.60236 0.199594 0.694801 . .
H11_5 H 0.658297 0.505125 0.722231 . .
H12_5 H 0.72953 0.339716 0.755942 . .
H13_5 H 0.746559 0.215856 0.664145 . .
H14_5 H 0.404337 0.351317 0.768531 . .
H15_5 H 0.758983 0.371552 0.802567 . .
H16_5 H 0.803744 0.521773 0.691678 . .
O5_6 O 0.3982(18) 0.2844(15) 0.09978(38) 0.0626 Uiso
O6_6 O 0.04000(96) 0.3272(18) 0.01957(29) 0.0626 Uiso
C8_6 C 0.123903 0.348902 0.038532 0.0260 Uiso
C9_6 C 0.147430 0.269407 0.055529 0.0260 Uiso
C10_6 C 0.228383 0.278899 0.072941 0.0260 Uiso
C11_6 C 0.286854 0.369264 0.073979 0.0260 Uiso
C12_6 C 0.260563 0.450834 0.057522 0.0260 Uiso
C13_6 C 0.179075 0.441128 0.040119 0.0260 Uiso
C14_6 C 0.376773 0.375493 0.091416 0.0260 Uiso
H9_6 H 0.10236 0.199594 0.0551994 . .
H11_6 H 0.158297 0.505125 0.0277692 . .
H13_6 H 0.246559 0.215856 0.0858554 . .
H16_6 H 0.303744 0.521773 0.0583219 . .
O1_6 O 0.3730(16) 0.4278(17) 0.87812(66) 0.0626 Uiso
O2_6 O 0.2079(12) 0.4363(10) 0.90652(36) 0.0626 Uiso
C1_6 C 0.116060 0.408337 0.910585 0.0260 Uiso
C2_6 C 0.098351 0.379355 0.937850 0.0260 Uiso
C5_6 C 0.064557 0.349585 0.991244 0.0260 Uiso
C6_6 C 0.164781 0.351284 0.981197 0.0260 Uiso
C7_6 C 0.181315 0.367719 0.954857 0.0260 Uiso
O8_6 O 0.2921(12) 0.5637(10) 0.84348(36) 0.0626 Uiso
O9_6 O 0.4570(13) 0.59956(96) 0.85570(22) 0.0626 Uiso
O12_6 O 0.46000(96) 0.6728(18) 0.73043(29) 0.0626 Uiso
C15_6 C 0.383940 0.591663 0.839415 0.0260 Uiso
C16_6 C 0.401649 0.620645 0.812150 0.0260 Uiso
C17_6 C 0.501587 0.628395 0.802343 0.0260 Uiso
C18_6 C 0.518007 0.643008 0.775887 0.0260 Uiso
C19_6 C 0.435443 0.650415 0.758756 0.0260 Uiso
C20_6 C 0.335219 0.648716 0.768803 0.0260 Uiso
C21_6 C 0.318685 0.632281 0.795143 0.0260 Uiso
C22_6 C 0.376097 0.651098 0.711468 0.0260 Uiso
C23_6 C 0.352570 0.730593 0.694471 0.0260 Uiso
C24_6 C 0.271617 0.721101 0.677059 0.0260 Uiso
C25_6 C 0.213146 0.630736 0.676021 0.0260 Uiso
C26_6 C 0.239437 0.549166 0.692478 0.0260 Uiso
C27_6 C 0.320925 0.558872 0.709881 0.0260 Uiso
C28_6 C 0.123227 0.624507 0.658584 0.0260 Uiso
O15_7 O 0.5346(14) 0.3960(14) 0.90028(29) 0.0626 Uiso
O17_6 O 0.2156(15) 0.3982(18) 0.84978(38) 0.0626 Uiso
H1_6 H 0.196256 0.478227 0.691678 . .
H2_6 H 0.39764 0.800406 0.694801 . .
H3_6 H 0.341703 0.494875 0.722231 . .
H4_6 H 0.595663 0.648683 0.768531 . .
H5_6 H 0.253441 0.784144 0.664145 . .
H6_6 H 0.241017 0.628448 0.802567 . .
H7_6 H 0.27047 0.660284 0.755942 . .
H10_6 H 0.566462 0.622985 0.815422 . .
H12_6 H 0.22953 0.339716 0.994058 . .
H15_6 H 0.258983 0.371552 0.947433 . .
C3_6 C 0.998413 0.371605 0.947657 0.0260 Uiso
C4_6 C 0.981993 0.356992 0.974113 0.0260 Uiso
H8_6 H 0.933538 0.377015 0.934578 . .
H14_6 H 0.904337 0.351317 0.981469 . .
O14_6 O 0.09956(96) 0.0430(13) 0.64430(22) 0.0626 Uiso
O13_6 O 0.9278(17) 0.1270(16) 0.62188(66) 0.0626 Uiso
O8_7 O 0.0637(10) 0.2079(12) 0.65652(36) 0.0626 Uiso
O12_7 O 0.1728(18) 0.04000(96) 0.76957(29) 0.0626 Uiso
C15_7 C 0.091663 0.116060 0.660585 0.0260 Uiso
C16_7 C 0.120645 0.098351 0.687850 0.0260 Uiso
C19_7 C 0.150415 0.064557 0.741244 0.0260 Uiso
C20_7 C 0.148716 0.164781 0.731197 0.0260 Uiso
C21_7 C 0.132281 0.181315 0.704857 0.0260 Uiso
C22_7 C 0.151098 0.123903 0.788532 0.0260 Uiso
C23_7 C 0.230593 0.147430 0.805529 0.0260 Uiso
C24_7 C 0.221101 0.228383 0.822941 0.0260 Uiso
C25_7 C 0.130736 0.286854 0.823979 0.0260 Uiso
C26_7 C 0.049166 0.260563 0.807522 0.0260 Uiso
C27_7 C 0.058872 0.179075 0.790119 0.0260 Uiso
C28_7 C 0.124507 0.376773 0.841416 0.0260 Uiso
H2_7 H 0.300406 0.10236 0.805199 . .
H5_7 H 0.284144 0.246559 0.835855 . .
H6_7 H 0.128448 0.258983 0.697433 . .
H7_7 H 0.160284 0.22953 0.744058 . .
H11_7 H 0.00512493 0.341703 0.472231 . .
H16_7 H 0.0217725 0.196256 0.441678 . .
C17_7 C 0.128395 0.998413 0.697657 0.0260 Uiso
C18_7 C 0.143008 0.981993 0.724113 0.0260 Uiso
H4_7 H 0.148683 0.904337 0.731469 . .
H10_7 H 0.122985 0.933538 0.684578 . .
O2_7 O 0.9363(10) 0.2921(12) 0.59348(36) 0.0626 Uiso
O6_7 O 0.8272(18) 0.46000(96) 0.48043(29) 0.0626 Uiso
C1_7 C 0.908337 0.383940 0.589415 0.0260 Uiso
C2_7 C 0.879355 0.401649 0.562150 0.0260 Uiso
C3_7 C 0.871605 0.501587 0.552343 0.0260 Uiso
C4_7 C 0.856992 0.518007 0.525887 0.0260 Uiso
C5_7 C 0.849585 0.435443 0.508756 0.0260 Uiso
C6_7 C 0.851284 0.335219 0.518803 0.0260 Uiso
C7_7 C 0.867719 0.318685 0.545143 0.0260 Uiso
C8_7 C 0.848902 0.376097 0.461468 0.0260 Uiso
C9_7 C 0.769407 0.352570 0.444471 0.0260 Uiso
C10_7 C 0.778899 0.271617 0.427059 0.0260 Uiso
C11_7 C 0.869264 0.213146 0.426021 0.0260 Uiso
C12_7 C 0.950834 0.239437 0.442478 0.0260 Uiso
C13_7 C 0.941128 0.320925 0.459881 0.0260 Uiso
C14_7 C 0.875493 0.123227 0.408584 0.0260 Uiso
H1_7 H 0.978227 0.303744 0.808322 . .
H3_7 H 0.994875 0.158297 0.777769 . .
H8_7 H 0.877015 0.566462 0.565422 . .
H9_7 H 0.699594 0.39764 0.444801 . .
H12_7 H 0.839716 0.27047 0.505942 . .
H13_7 H 0.715856 0.253441 0.414145 . .
H14_7 H 0.851317 0.595663 0.518531 . .
H15_7 H 0.871552 0.241017 0.552567 . .
O2_8 O 0.4363(10) 0.2921(12) 0.15652(36) 0.0626 Uiso
O6_8 O 0.3272(18) 0.46000(96) 0.26957(29) 0.0626 Uiso
C1_8 C 0.408337 0.383940 0.160585 0.0260 Uiso
C2_8 C 0.379355 0.401649 0.187850 0.0260 Uiso
C3_8 C 0.371605 0.501587 0.197657 0.0260 Uiso
C4_8 C 0.356992 0.518007 0.224113 0.0260 Uiso
C5_8 C 0.349585 0.435443 0.241244 0.0260 Uiso
C6_8 C 0.351284 0.335219 0.231197 0.0260 Uiso
C7_8 C 0.367719 0.318685 0.204857 0.0260 Uiso
C8_8 C 0.348902 0.376097 0.288532 0.0260 Uiso
C9_8 C 0.269407 0.352570 0.305529 0.0260 Uiso
C10_8 C 0.278899 0.271617 0.322941 0.0260 Uiso
C11_8 C 0.369264 0.213146 0.323979 0.0260 Uiso
C12_8 C 0.450834 0.239437 0.307522 0.0260 Uiso
C13_8 C 0.441128 0.320925 0.290119 0.0260 Uiso
C14_8 C 0.375493 0.123227 0.341416 0.0260 Uiso
O8_8 O 0.5637(10) 0.2079(12) 0.09348(36) 0.0626 Uiso
C15_8 C 0.591663 0.116060 0.089415 0.0260 Uiso
C16_8 C 0.620645 0.098351 0.062150 0.0260 Uiso
C19_8 C 0.650415 0.064557 0.008756 0.0260 Uiso
C20_8 C 0.648716 0.164781 0.018803 0.0260 Uiso
C21_8 C 0.632281 0.181315 0.045143 0.0260 Uiso
H6_8 H 0.628448 0.258983 0.0525665 . .
H7_8 H 0.660284 0.22953 0.0059421 . .
H8_8 H 0.377015 0.566462 0.184578 . .
H9_8 H 0.199594 0.39764 0.305199 . .
H11_8 H 0.505125 0.341703 0.277769 . .
H12_8 H 0.339716 0.27047 0.244058 . .
H13_8 H 0.215856 0.253441 0.335855 . .
H14_8 H 0.351317 0.595663 0.231469 . .
H15_8 H 0.371552 0.241017 0.197433 . .
H16_8 H 0.521773 0.196256 0.308322 . .
O12_8 O 0.6728(18) 0.04000(96) 0.98043(29) 0.0626 Uiso
C22_8 C 0.651098 0.123903 0.961468 0.0260 Uiso
C23_8 C 0.730593 0.147430 0.944471 0.0260 Uiso
C24_8 C 0.721101 0.228383 0.927059 0.0260 Uiso
C25_8 C 0.630736 0.286854 0.926021 0.0260 Uiso
C26_8 C 0.549166 0.260563 0.942478 0.0260 Uiso
C27_8 C 0.558872 0.179075 0.959881 0.0260 Uiso
C28_8 C 0.624507 0.376773 0.908584 0.0260 Uiso
H1_8 H 0.478227 0.303744 0.941678 . .
H2_8 H 0.800406 0.10236 0.944801 . .
H3_8 H 0.494875 0.158297 0.972231 . .
H5_8 H 0.784144 0.246559 0.914145 . .
C17_8 C 0.628395 0.998413 0.052343 0.0260 Uiso
C18_8 C 0.643008 0.981993 0.025887 0.0260 Uiso
H4_8 H 0.648683 0.904337 0.0185309 . .
H10_8 H 0.622985 0.933538 0.0654221 . .
loop_
_geom_bond_atom_site_label_1
_geom_bond_atom_site_label_2
_geom_bond_site_symmetry_1
_geom_bond_site_symmetry_2
C18 C17 1_555 1_555
O13 Al2 1_555 1_555
O14 Al2 1_555 1_555
O15 Al2 1_555 1_555
C18 H4 1_555 1_555
C17 H10 1_555 1_555
Al1 O1 1_555 1_555
Al2_2 O1 1_555 1_555
O2 Al1 1_555 1_555
O3 C1 1_555 1_555
O4 C14 1_555 1_555
O5 C14 1_555 1_555
O6 C5 1_555 1_555
C1 O2 1_555 1_555
C2 C1 1_555 1_555
C3 C2 1_555 1_555
C4 C3 1_555 1_555
C5 C4 1_555 1_555
C6 C5 1_555 1_555
C7 C2 1_555 1_555
C8 O6 1_555 1_555
C9 C8 1_555 1_555
C10 C9 1_555 1_555
C11 C10 1_555 1_555
C12 C11 1_555 1_555
C13 C8 1_555 1_555
C14 C11 1_555 1_555
O7 Al1 1_555 1_555
O8 Al1 1_555 1_555
O9 Al2_2 1_555 1_555
C15 O8 1_555 1_555
C16 C15 1_555 1_555
C20 C19 1_555 1_555
C21 C16 1_555 1_555
Al3_2 O5 1_555 1_555
Al5 O3 1_555 1_555
Al6_2 O4 1_555 1_555
O16 Al2_2 1_555 1_555
O17 Al1 1_555 1_555
O18 Al1 1_555 1_555
C6 C7 1_555 1_555
C12 C13 1_555 1_555
O7 Al5 1_555 1_555
O9 C15 1_555 1_555
C20 C21 1_555 1_555
C21 H6 1_555 1_555
C20 H7 1_555 1_555
C3 H8 1_555 1_555
C9 H9 1_555 1_555
C13 H11 1_555 1_555
C6 H12 1_555 1_555
C10 H13 1_555 1_555
C4 H14 1_555 1_555
C7 H15 1_555 1_555
C12 H16 1_555 1_555
O10 C28 1_555 1_555
O11 C28 1_555 1_555
C22 O12 1_555 1_555
C23 C22 1_555 1_555
C24 C23 1_555 1_555
C25 C24 1_555 1_555
C26 C25 1_555 1_555
C27 C22 1_555 1_555
C28 C25 1_555 1_555
Al4 O11 1_555 1_555
Al7 O10 1_555 1_555
C26 C27 1_555 1_555
C26 H1 1_555 1_555
C23 H2 1_555 1_555
C27 H3 1_555 1_555
C24 H5 1_555 1_555
O13_2 Al5 1_555 1_555
O14_2 Al5 1_555 1_555
O15_2 Al5 1_555 1_555
O16_2 Al5 1_555 1_555
O7_2 Al1_2 1_555 1_555
O8_2 Al1_2 1_555 1_555
O9_2 Al2_3 1_555 1_555
O10_2 C28_2 1_555 1_555
O11_2 C28_2 1_555 1_555
O12_2 C19_2 1_555 1_555
C15_2 O8_2 1_555 1_555
C16_2 C15_2 1_555 1_555
C17_2 C16_2 1_555 1_555
C18_2 C17_2 1_555 1_555
C19_2 C18_2 1_555 1_555
C20_2 C19_2 1_555 1_555
C21_2 C16_2 1_555 1_555
C22_2 O12_2 1_555 1_555
C23_2 C22_2 1_555 1_555
C24_2 C23_2 1_555 1_555
C25_2 C24_2 1_555 1_555
C26_2 C25_2 1_555 1_555
C27_2 C22_2 1_555 1_555
C28_2 C25_2 1_555 1_555
Al4_3 O11_2 1_555 1_555
Al7_3 O10_2 1_555 1_555
O13_3 Al2_3 1_555 1_555
O16_3 Al2_3 1_555 1_555
O18_2 Al1_2 1_555 1_555
O7_2 Al5_3 1_555 1_555
O9_2 C15_2 1_555 1_555
C20_2 C21_2 1_555 1_555
C26_2 C27_2 1_555 1_555
C23_2 H2_2 1_555 1_555
C18_2 H4_2 1_555 1_555
C24_2 H5_2 1_555 1_555
C21_2 H6_2 1_555 1_555
C20_2 H7_2 1_555 1_555
C17_2 H10_2 1_555 1_555
C4_2 C3_2 1_555 1_555
C3_2 H8_2 1_555 1_555
C4_2 H14_2 1_555 1_555
Al1_3 O1_2 1_555 1_555
Al2_4 O1_2 1_555 1_555
O2_2 Al1_3 1_555 1_555
O3_2 C1_2 1_555 1_555
O4_2 C14_2 1_555 1_555
O5_2 C14_2 1_555 1_555
O6_2 C5_2 1_555 1_555
C1_2 O2_2 1_555 1_555
C2_2 C1_2 1_555 1_555
C6_2 C5_2 1_555 1_555
C7_2 C2_2 1_555 1_555
C8_2 O6_2 1_555 1_555
C9_2 C8_2 1_555 1_555
C10_2 C9_2 1_555 1_555
C11_2 C10_2 1_555 1_555
C12_2 C11_2 1_555 1_555
C13_2 C8_2 1_555 1_555
C14_2 C11_2 1_555 1_555
Al3_3 O5_2 1_555 1_555
Al5_5 O3_2 1_555 1_555
Al6_4 O4_2 1_555 1_555
O14_3 Al2_4 1_555 1_555
O15_3 Al2_4 1_555 1_555
O17_2 Al1_3 1_555 1_555
C6_2 C7_2 1_555 1_555
C12_2 C13_2 1_555 1_555
C9_2 H9_2 1_555 1_555
C6_2 H12_2 1_555 1_555
C10_2 H13_2 1_555 1_555
C7_2 H15_2 1_555 1_555
Al4_2 O1_3 1_555 1_555
Al7_2 O1_3 1_555 1_555
O2_3 Al4_2 1_555 1_555
O3_3 C1_3 1_555 1_555
O4_3 C14_3 1_555 1_555
O5_3 C14_3 1_555 1_555
O6_3 C5_3 1_555 1_555
C1_3 O2_3 1_555 1_555
C2_3 C1_3 1_555 1_555
C3_3 C2_3 1_555 1_555
C4_3 C3_3 1_555 1_555
C5_3 C4_3 1_555 1_555
C6_3 C5_3 1_555 1_555
C7_3 C2_3 1_555 1_555
C8_3 O6_3 1_555 1_555
C9_3 C8_3 1_555 1_555
C10_3 C9_3 1_555 1_555
C11_3 C10_3 1_555 1_555
C12_3 C11_3 1_555 1_555
C13_3 C8_3 1_555 1_555
C14_3 C11_3 1_555 1_555
Al3_4 O5_3 1_555 1_555
Al6 O3_3 1_555 1_555
Al5_2 O4_3 1_555 1_555
O17_3 Al4_2 1_555 1_555
C6_3 C7_3 1_555 1_555
C12_3 C13_3 1_555 1_555
C3_3 H8_3 1_555 1_555
C9_3 H9_3 1_555 1_555
C6_3 H12_3 1_555 1_555
C10_3 H13_3 1_555 1_555
C4_3 H14_3 1_555 1_555
C7_3 H15_3 1_555 1_555
O7_3 Al4_3 1_555 1_555
O8_3 Al4_3 1_555 1_555
O9_3 Al7_3 1_555 1_555
O16 C28_3 1_555 1_555
O18 C28_3 1_555 1_555
O12_3 C19_3 1_555 1_555
C15_3 O8_3 1_555 1_555
C16_3 C15_3 1_555 1_555
C20_3 C19_3 1_555 1_555
C21_3 C16_3 1_555 1_555
C22_3 O12_3 1_555 1_555
C23_3 C22_3 1_555 1_555
C24_3 C23_3 1_555 1_555
C25_3 C24_3 1_555 1_555
C26_3 C25_3 1_555 1_555
C27_3 C22_3 1_555 1_555
C28_3 C25_3 1_555 1_555
O7_3 Al6_2 1_555 1_555
O9_3 C15_3 1_555 1_555
C20_3 C21_3 1_555 1_555
C26_3 C27_3 1_555 1_555
C23_3 H2_3 1_555 1_555
C24_3 H5_3 1_555 1_555
C21_3 H6_3 1_555 1_555
C20_3 H7_3 1_555 1_555
O14_4 Al7_4 1_555 1_555
O15_4 Al7_4 1_555 1_555
C18_3 C17_3 1_555 1_555
O13_4 Al7_5 1_555 1_555
C18_3 H4_3 1_555 1_555
C17_3 H10_3 1_555 1_555
C4_4 C3_4 1_555 1_555
C3_4 H8_4 1_555 1_555
C4_4 H14_4 1_555 1_555
Al3 O1_4 1_555 1_555
Al6 O1_4 1_555 1_555
O2_4 Al3 1_555 1_555
O14_4 C1_4 1_555 1_555
O15 C14_4 1_555 1_555
O5_4 C14_4 1_555 1_555
O6_4 C5_4 1_555 1_555
C1_4 O2_4 1_555 1_555
C2_4 C1_4 1_555 1_555
C6_4 C5_4 1_555 1_555
C7_4 C2_4 1_555 1_555
C8_4 O6_4 1_555 1_555
C9_4 C8_4 1_555 1_555
C10_4 C9_4 1_555 1_555
C11_4 C10_4 1_555 1_555
C12_4 C11_4 1_555 1_555
C13_4 C8_4 1_555 1_555
C14_4 C11_4 1_555 1_555
Al3_6 O5_4 1_555 1_555
O15_5 Al6 1_555 1_555
O17_4 Al3 1_555 1_555
C6_4 C7_4 1_555 1_555
C12_4 C13_4 1_555 1_555
C9_4 H9_4 1_555 1_555
C6_4 H12_4 1_555 1_555
C10_4 H13_4 1_555 1_555
C7_4 H15_4 1_555 1_555
O13_4 Al3_2 1_555 1_555
O8_4 Al3_2 1_555 1_555
O9_4 Al6_2 1_555 1_555
O10_3 C28_4 1_555 1_555
O17_2 C28_4 1_555 1_555
O12_4 C19_4 1_555 1_555
C15_4 O8_4 1_555 1_555
C16_4 C15_4 1_555 1_555
C17_4 C16_4 1_555 1_555
C18_4 C17_4 1_555 1_555
C19_4 C18_4 1_555 1_555
C20_4 C19_4 1_555 1_555
C21_4 C16_4 1_555 1_555
C22_4 O12_4 1_555 1_555
C23_4 C22_4 1_555 1_555
C24_4 C23_4 1_555 1_555
C25_4 C24_4 1_555 1_555
C26_4 C25_4 1_555 1_555
C27_4 C22_4 1_555 1_555
C28_4 C25_4 1_555 1_555
Al5_5 O10_3 1_555 1_555
O9_4 C15_4 1_555 1_555
C20_4 C21_4 1_555 1_555
C26_4 C27_4 1_555 1_555
C23_4 H2_4 1_555 1_555
C18_4 H4_4 1_555 1_555
C24_4 H5_4 1_555 1_555
C21_4 H6_4 1_555 1_555
C20_4 H7_4 1_555 1_555
C17_4 H10_4 1_555 1_555
C18_5 C17_5 1_555 1_555
O13_5 Al6_3 1_555 1_555
O14_5 Al6_3 1_555 1_555
O15_6 Al6_3 1_555 1_555
C18_5 H4_5 1_555 1_555
C17_5 H10_5 1_555 1_555
O16_2 C28_5 1_555 1_555
O17 C28_5 1_555 1_555
C22_5 O12_5 1_555 1_555
C23_5 C22_5 1_555 1_555
C24_5 C23_5 1_555 1_555
C25_5 C24_5 1_555 1_555
C26_5 C25_5 1_555 1_555
C27_5 C22_5 1_555 1_555
C28_5 C25_5 1_555 1_555
C26_5 C27_5 1_555 1_555
C26_5 H1_5 1_555 1_555
C23_5 H2_5 1_555 1_555
C27_5 H3_5 1_555 1_555
C24_5 H5_5 1_555 1_555
Al3_3 O1_5 1_555 1_555
Al6_4 O1_5 1_555 1_555
O2_5 Al3_3 1_555 1_555
O3_4 C1_5 1_555 1_555
O15_3 C14_5 1_555 1_555
O5_5 C14_5 1_555 1_555
O6_5 C5_5 1_555 1_555
C1_5 O2_5 1_555 1_555
C2_5 C1_5 1_555 1_555
C3_5 C2_5 1_555 1_555
C4_5 C3_5 1_555 1_555
C5_5 C4_5 1_555 1_555
C6_5 C5_5 1_555 1_555
C7_5 C2_5 1_555 1_555
C8_5 O6_5 1_555 1_555
C9_5 C8_5 1_555 1_555
C10_5 C9_5 1_555 1_555
C11_5 C10_5 1_555 1_555
C12_5 C11_5 1_555 1_555
C13_5 C8_5 1_555 1_555
C14_5 C11_5 1_555 1_555
O7_4 Al3_3 1_555 1_555
O8_5 Al3_3 1_555 1_555
O9_5 Al6_4 1_555 1_555
C15_5 O8_5 1_555 1_555
C16_5 C15_5 1_555 1_555
C20_5 C19_5 1_555 1_555
C21_5 C16_5 1_555 1_555
Al3_5 O5_5 1_555 1_555
Al7 O3_4 1_555 1_555
O17_5 Al3_3 1_555 1_555
C6_5 C7_5 1_555 1_555
C12_5 C13_5 1_555 1_555
O7_4 Al7 1_555 1_555
O9_5 C15_5 1_555 1_555
C20_5 C21_5 1_555 1_555
C21_5 H6_5 1_555 1_555
C20_5 H7_5 1_555 1_555
C3_5 H8_5 1_555 1_555
C9_5 H9_5 1_555 1_555
C13_5 H11_5 1_555 1_555
C6_5 H12_5 1_555 1_555
C10_5 H13_5 1_555 1_555
C4_5 H14_5 1_555 1_555
C7_5 H15_5 1_555 1_555
C12_5 H16_5 1_555 1_555
O15_2 C14_6 1_555 1_555
O5_6 C14_6 1_555 1_555
C8_6 O6_6 1_555 1_555
C9_6 C8_6 1_555 1_555
C10_6 C9_6 1_555 1_555
C11_6 C10_6 1_555 1_555
C12_6 C11_6 1_555 1_555
C13_6 C8_6 1_555 1_555
C14_6 C11_6 1_555 1_555
Al3_6 O5_6 1_555 1_555
C12_6 C13_6 1_555 1_555
C9_6 H9_6 1_555 1_555
C13_6 H11_6 1_555 1_555
C10_6 H13_6 1_555 1_555
C12_6 H16_6 1_555 1_555
Al4 O1_6 1_555 1_555
Al7 O1_6 1_555 1_555
O2_6 Al4 1_555 1_555
O14_5 C1_6 1_555 1_555
C1_6 O2_6 1_555 1_555
C2_6 C1_6 1_555 1_555
C6_6 C5_6 1_555 1_555
C7_6 C2_6 1_555 1_555
O13_5 Al4 1_555 1_555
O8_6 Al4 1_555 1_555
O9_6 Al7 1_555 1_555
O16_3 C28_6 1_555 1_555
O18_2 C28_6 1_555 1_555
O12_6 C19_6 1_555 1_555
C15_6 O8_6 1_555 1_555
C16_6 C15_6 1_555 1_555
C17_6 C16_6 1_555 1_555
C18_6 C17_6 1_555 1_555
C19_6 C18_6 1_555 1_555
C20_6 C19_6 1_555 1_555
C21_6 C16_6 1_555 1_555
C22_6 O12_6 1_555 1_555
C23_6 C22_6 1_555 1_555
C24_6 C23_6 1_555 1_555
C25_6 C24_6 1_555 1_555
C26_6 C25_6 1_555 1_555
C27_6 C22_6 1_555 1_555
C28_6 C25_6 1_555 1_555
O15_7 Al7 1_555 1_555
O17_6 Al4 1_555 1_555
C6_6 C7_6 1_555 1_555
O9_6 C15_6 1_555 1_555
C20_6 C21_6 1_555 1_555
C26_6 C27_6 1_555 1_555
C26_6 H1_6 1_555 1_555
C23_6 H2_6 1_555 1_555
C27_6 H3_6 1_555 1_555
C18_6 H4_6 1_555 1_555
C24_6 H5_6 1_555 1_555
C21_6 H6_6 1_555 1_555
C20_6 H7_6 1_555 1_555
C17_6 H10_6 1_555 1_555
C6_6 H12_6 1_555 1_555
C7_6 H15_6 1_555 1_555
C4_6 C3_6 1_555 1_555
C3_6 H8_6 1_555 1_555
C4_6 H14_6 1_555 1_555
O14_6 Al5_2 1_555 1_555
O13_6 Al5_4 1_555 1_555
O13_3 Al3_4 1_555 1_555
O8_7 Al3_4 1_555 1_555
O15_6 C28_7 1_555 1_555
O17_6 C28_7 1_555 1_555
O12_7 C19_7 1_555 1_555
C15_7 O8_7 1_555 1_555
C16_7 C15_7 1_555 1_555
C20_7 C19_7 1_555 1_555
C21_7 C16_7 1_555 1_555
C22_7 O12_7 1_555 1_555
C23_7 C22_7 1_555 1_555
C24_7 C23_7 1_555 1_555
C25_7 C24_7 1_555 1_555
C26_7 C25_7 1_555 1_555
C27_7 C22_7 1_555 1_555
C28_7 C25_7 1_555 1_555
O14_6 C15_7 1_555 1_555
C20_7 C21_7 1_555 1_555
C26_7 C27_7 1_555 1_555
C23_7 H2_7 1_555 1_555
C24_7 H5_7 1_555 1_555
C21_7 H6_7 1_555 1_555
C20_7 H7_7 1_555 1_555
C18_7 C17_7 1_555 1_555
C18_7 H4_7 1_555 1_555
C17_7 H10_7 1_555 1_555
Al3_5 O13_6 1_555 1_555
O2_7 Al3_5 1_555 1_555
O14_3 C1_7 1_555 1_555
O15_4 C14_7 1_555 1_555
O17_4 C14_7 1_555 1_555
O6_7 C5_7 1_555 1_555
C1_7 O2_7 1_555 1_555
C2_7 C1_7 1_555 1_555
C3_7 C2_7 1_555 1_555
C4_7 C3_7 1_555 1_555
C5_7 C4_7 1_555 1_555
C6_7 C5_7 1_555 1_555
C7_7 C2_7 1_555 1_555
C8_7 O6_7 1_555 1_555
C9_7 C8_7 1_555 1_555
C10_7 C9_7 1_555 1_555
C11_7 C10_7 1_555 1_555
C12_7 C11_7 1_555 1_555
C13_7 C8_7 1_555 1_555
C14_7 C11_7 1_555 1_555
C6_7 C7_7 1_555 1_555
C12_7 C13_7 1_555 1_555
C3_7 H8_7 1_555 1_555
C9_7 H9_7 1_555 1_555
C6_7 H12_7 1_555 1_555
C10_7 H13_7 1_555 1_555
C4_7 H14_7 1_555 1_555
C7_7 H15_7 1_555 1_555
Al3_6 O13 1_555 1_555
O2_8 Al3_6 1_555 1_555
O14_2 C1_8 1_555 1_555
O15_5 C14_8 1_555 1_555
O17_3 C14_8 1_555 1_555
O6_8 C5_8 1_555 1_555
C1_8 O2_8 1_555 1_555
C2_8 C1_8 1_555 1_555
C3_8 C2_8 1_555 1_555
C4_8 C3_8 1_555 1_555
C5_8 C4_8 1_555 1_555
C6_8 C5_8 1_555 1_555
C7_8 C2_8 1_555 1_555
C8_8 O6_8 1_555 1_555
C9_8 C8_8 1_555 1_555
C10_8 C9_8 1_555 1_555
C11_8 C10_8 1_555 1_555
C12_8 C11_8 1_555 1_555
C13_8 C8_8 1_555 1_555
C14_8 C11_8 1_555 1_555
O13_2 Al3_6 1_555 1_555
O8_8 Al3_6 1_555 1_555
C15_8 O8_8 1_555 1_555
C16_8 C15_8 1_555 1_555
C20_8 C19_8 1_555 1_555
C21_8 C16_8 1_555 1_555
C6_8 C7_8 1_555 1_555
C12_8 C13_8 1_555 1_555
O14 C15_8 1_555 1_555
C20_8 C21_8 1_555 1_555
C21_8 H6_8 1_555 1_555
C20_8 H7_8 1_555 1_555
C3_8 H8_8 1_555 1_555
C9_8 H9_8 1_555 1_555
C13_8 H11_8 1_555 1_555
C6_8 H12_8 1_555 1_555
C10_8 H13_8 1_555 1_555
C4_8 H14_8 1_555 1_555
C7_8 H15_8 1_555 1_555
C12_8 H16_8 1_555 1_555
O15_7 C28_8 1_555 1_555
O17_5 C28_8 1_555 1_555
C22_8 O12_8 1_555 1_555
C23_8 C22_8 1_555 1_555
C24_8 C23_8 1_555 1_555
C25_8 C24_8 1_555 1_555
C26_8 C25_8 1_555 1_555
C27_8 C22_8 1_555 1_555
C28_8 C25_8 1_555 1_555
C26_8 C27_8 1_555 1_555
C26_8 H1_8 1_555 1_555
C23_8 H2_8 1_555 1_555
C27_8 H3_8 1_555 1_555
C24_8 H5_8 1_555 1_555
C18_8 C17_8 1_555 1_555
C18_8 H4_8 1_555 1_555
C17_8 H10_8 1_555 1_555

#END
