
###############################################################################
#
# This file contains modified crystal structure data generated from the
# MOF subset of the Cambridge Structural Database (CSD) v543 
# hosted by the Cambridge Crystallographic Data Centre (CCDC).
#
# This work is licensed under the Creative Commons
# Attribution-NonCommercial-ShareAlike 4.0 International License.
# To view a copy of this license, visit
# http://creativecommons.org/licenses/by-nc-sa/4.0/
# or send a letter to
# Creative Commons, PO Box 1866, Mountain View, CA 94042, USA.
#
# CIF created using the CSD Python API on 29 September 2022
# The structure has been converted into the P1 space group
# The structure has a 3D framework
# The original CSD entry DAZMID is in the tetragonal crystal system
# The original CSD entry DAZMID is in a Sohncke space group
# The framework has been calculated to contain at least 10.0% void space
# The void calculation uses a probe of radius 1.32A, grid spacing 0.4
#
###############################################################################

data_DAZMID
_chemical_formula_moiety         '(C240 H128 Al22 O96)n'
_symmetry_cell_setting           triclinic
_symmetry_space_group_name_H-M   'P 1'
_symmetry_Int_Tables_number      1
_space_group_name_Hall           'P 1'
loop_
_symmetry_equiv_pos_site_id
_symmetry_equiv_pos_as_xyz
1 x,y,z
_cell_length_a                   17.2528(7)
_cell_length_b                   17.2528(7)
_cell_length_c                   23.8643(11)
_cell_angle_alpha                90
_cell_angle_beta                 90
_cell_angle_gamma                90
_cell_volume                     7103.43
loop_
_atom_site_label
_atom_site_type_symbol
_atom_site_fract_x
_atom_site_fract_y
_atom_site_fract_z
Al4 Al 0.32233(10) 0.32233(10) 0.0000
Al6 Al 0.5000 0.24722(13) 0.0000
Al2 Al 0.74722(13) 0.0000 0.5000
O7 O 0.3456(2) 0.2982(3) 0.92341(17)
O8 O 0.4635(3) 0.2435(3) 0.92496(18)
O9 O 0.6659(2) 0.0681(2) 0.5206(2)
O10 O 0.7170(2) 0.1866(2) 0.52112(17)
O11 O 0.8221(2) 0.0727(2) 0.51887(16)
O12 O 0.3424(5) 0.2578(6) 0.6353(3)
C16 C 0.4047(6) 0.2511(9) 0.6607(4)
C17 C 0.4081(5) 0.2601(5) 0.7213(3)
C18 C 0.3475(5) 0.2925(5) 0.7497(3)
H9 H 0.3058 0.3121 0.7294
C19 C 0.3457(4) 0.2970(4) 0.8064(3)
H10 H 0.3040 0.3207 0.8242
C20 C 0.4054(4) 0.2668(4) 0.8378(3)
C21 C 0.4672(5) 0.2337(5) 0.8106(3)
H11 H 0.5084 0.2132 0.8310
C22 C 0.4676(5) 0.2311(7) 0.7525(4)
H12 H 0.5097 0.2088 0.7342
C23 C 0.4036(4) 0.2702(4) 0.8999(3)
C24 C 0.5294(5) 0.1252(6) 0.5687(4)
H13 H 0.5273 0.0768 0.5516
C25 C 0.4656(5) 0.1513(6) 0.5968(4)
H14 H 0.4184 0.1255 0.5944
C26 C 0.4738(5) 0.2176(7) 0.6289(3)
C27 C 0.5397(6) 0.2597(6) 0.6253(4)
H15 H 0.5435 0.3063 0.6446
C28 C 0.6009(5) 0.2349(5) 0.5936(4)
H16 H 0.6456 0.2649 0.5920
C29 C 0.5978(4) 0.1681(4) 0.5646(3)
C30 C 0.6649(4) 0.1386(4) 0.5332(2)
Al3 Al 0.82233(10) 0.17767(10) 0.5000
Al4_2 Al 0.32233(10) 0.32233(10) 1.0000
Al6_2 Al 0.5000 0.24722(13) 1.0000
O16 O 0.7435(3) 0.0365(3) 0.42496(18)
Al1 Al 0.82233(10) 0.82233(10) 0.5000
Al2_2 Al 0.74722(13) 1.0000 0.5000
O1 O 0.3456(2) 0.7018(3) 0.07659(17)
O2 O 0.4635(3) 0.7565(3) 0.07504(18)
O3 O 0.6659(2) 0.9319(2) 0.4794(2)
O4 O 0.7170(2) 0.8134(2) 0.47888(17)
O5 O 0.8221(2) 0.9273(2) 0.48113(16)
O6 O 0.3424(5) 0.7422(6) 0.3647(3)
C1 C 0.4047(6) 0.7489(9) 0.3393(4)
C2 C 0.4081(5) 0.7399(5) 0.2787(3)
C3 C 0.3475(5) 0.7075(5) 0.2503(3)
H1 H 0.3058 0.6879 0.2706
C4 C 0.3457(4) 0.7030(4) 0.1936(3)
H2 H 0.3040 0.6793 0.1758
C5 C 0.4054(4) 0.7332(4) 0.1622(3)
C6 C 0.4672(5) 0.7663(5) 0.1894(3)
H3 H 0.5084 0.7868 0.1690
C7 C 0.4676(5) 0.7689(7) 0.2475(4)
H4 H 0.5097 0.7912 0.2658
C8 C 0.4036(4) 0.7298(4) 0.1001(3)
C9 C 0.5294(5) 0.8748(6) 0.4313(4)
H5 H 0.5273 0.9232 0.4484
C10 C 0.4656(5) 0.8487(6) 0.4032(4)
H6 H 0.4184 0.8745 0.4056
C11 C 0.4738(5) 0.7824(7) 0.3711(3)
C12 C 0.5397(6) 0.7403(6) 0.3747(4)
H7 H 0.5435 0.6937 0.3554
C13 C 0.6009(5) 0.7651(5) 0.4064(4)
H8 H 0.6456 0.7351 0.4080
C14 C 0.5978(4) 0.8319(4) 0.4354(3)
C15 C 0.6649(4) 0.8614(4) 0.4668(2)
Al5 Al 0.32233(10) 0.67767(10) 0.0000
Al7 Al 0.5000 0.75278(13) 0.0000
O13 O 0.7982(3) 0.8456(2) 0.57659(17)
O14 O 0.8456(2) 0.7982(3) 0.42341(17)
O15 O 0.7435(3) 0.9635(3) 0.57504(18)
O17 O 0.8134(2) 0.7170(2) 0.52112(17)
O18 O 0.9273(2) 0.8221(2) 0.51887(16)
Al5_2 Al 0.32233(10) 0.67767(10) 1.0000
Al7_2 Al 0.5000 0.75278(13) 1.0000
Al1_2 Al 0.17767(10) 0.82233(10) 0.5000
Al2_3 Al 0.0000 0.74722(13) 0.5000
O1_2 O 0.2982(3) 0.3456(2) 0.07659(17)
O2_2 O 0.2435(3) 0.4635(3) 0.07504(18)
O3_2 O 0.0681(2) 0.6659(2) 0.4794(2)
O4_2 O 0.1866(2) 0.7170(2) 0.47888(17)
O5_2 O 0.0727(2) 0.8221(2) 0.48113(16)
O6_2 O 0.2578(6) 0.3424(5) 0.3647(3)
C1_2 C 0.2511(9) 0.4047(6) 0.3393(4)
C2_2 C 0.2601(5) 0.4081(5) 0.2787(3)
C3_2 C 0.2925(5) 0.3475(5) 0.2503(3)
H1_2 H 0.3121 0.3058 0.2706
C4_2 C 0.2970(4) 0.3457(4) 0.1936(3)
H2_2 H 0.3207 0.3040 0.1758
C5_2 C 0.2668(4) 0.4054(4) 0.1622(3)
C6_2 C 0.2337(5) 0.4672(5) 0.1894(3)
H3_2 H 0.2132 0.5084 0.1690
C7_2 C 0.2311(7) 0.4676(5) 0.2475(4)
H4_2 H 0.2088 0.5097 0.2658
C8_2 C 0.2702(4) 0.4036(4) 0.1001(3)
C9_2 C 0.1252(6) 0.5294(5) 0.4313(4)
H5_2 H 0.0768 0.5273 0.4484
C10_2 C 0.1513(6) 0.4656(5) 0.4032(4)
H6_2 H 0.1255 0.4184 0.4056
C11_2 C 0.2176(7) 0.4738(5) 0.3711(3)
C12_2 C 0.2597(6) 0.5397(6) 0.3747(4)
H7_2 H 0.3063 0.5435 0.3554
C13_2 C 0.2349(5) 0.6009(5) 0.4064(4)
H8_2 H 0.2649 0.6456 0.4080
C14_2 C 0.1681(4) 0.5978(4) 0.4354(3)
C15_2 C 0.1386(4) 0.6649(4) 0.4668(2)
Al7_3 Al 0.24722(13) 0.5000 0.0000
O13_2 O 0.1544(2) 0.7982(3) 0.57659(17)
O14_2 O 0.2018(3) 0.8456(2) 0.42341(17)
O15_2 O 0.0365(3) 0.7435(3) 0.57504(18)
O17_2 O 0.2830(2) 0.8134(2) 0.52112(17)
O18_2 O 0.1779(2) 0.9273(2) 0.51887(16)
Al7_4 Al 0.24722(13) 0.5000 1.0000
Al4_3 Al 0.67767(10) 0.32233(10) 0.0000
Al6_3 Al 0.75278(13) 0.5000 0.0000
Al2_4 Al 1.0000 0.74722(13) 0.5000
O7_2 O 0.7018(3) 0.3456(2) 0.92341(17)
O8_2 O 0.7565(3) 0.4635(3) 0.92496(18)
O9_2 O 0.9319(2) 0.6659(2) 0.5206(2)
O12_2 O 0.7422(6) 0.3424(5) 0.6353(3)
C16_2 C 0.7489(9) 0.4047(6) 0.6607(4)
C17_2 C 0.7399(5) 0.4081(5) 0.7213(3)
C18_2 C 0.7075(5) 0.3475(5) 0.7497(3)
H9_2 H 0.6879 0.3058 0.7294
C19_2 C 0.7030(4) 0.3457(4) 0.8064(3)
H10_2 H 0.6793 0.3040 0.8242
C20_2 C 0.7332(4) 0.4054(4) 0.8378(3)
C21_2 C 0.7663(5) 0.4672(5) 0.8106(3)
H11_2 H 0.7868 0.5084 0.8310
C22_2 C 0.7689(7) 0.4676(5) 0.7525(4)
H12_2 H 0.7912 0.5097 0.7342
C23_2 C 0.7298(4) 0.4036(4) 0.8999(3)
C24_2 C 0.8748(6) 0.5294(5) 0.5687(4)
H13_2 H 0.9232 0.5273 0.5516
C25_2 C 0.8487(6) 0.4656(5) 0.5968(4)
H14_2 H 0.8745 0.4184 0.5944
C26_2 C 0.7824(7) 0.4738(5) 0.6289(3)
C27_2 C 0.7403(6) 0.5397(6) 0.6253(4)
H15_2 H 0.6937 0.5435 0.6446
C28_2 C 0.7651(5) 0.6009(5) 0.5936(4)
H16_2 H 0.7351 0.6456 0.5920
C29_2 C 0.8319(4) 0.5978(4) 0.5646(3)
C30_2 C 0.8614(4) 0.6649(4) 0.5332(2)
Al4_4 Al 0.67767(10) 0.32233(10) 1.0000
Al6_4 Al 0.75278(13) 0.5000 1.0000
O16_2 O 0.9635(3) 0.7435(3) 0.42496(18)
Al2_5 Al 0.0000 0.25278(13) 0.5000
O7_3 O 0.2982(3) 0.6544(2) 0.92341(17)
O8_3 O 0.2435(3) 0.5365(3) 0.92496(18)
O9_3 O 0.0681(2) 0.3341(2) 0.5206(2)
O10_2 O 0.1866(2) 0.2830(2) 0.52112(17)
O11_2 O 0.0727(2) 0.1779(2) 0.51887(16)
O12_3 O 0.2578(6) 0.6576(5) 0.6353(3)
C16_3 C 0.2511(9) 0.5953(6) 0.6607(4)
C17_3 C 0.2601(5) 0.5919(5) 0.7213(3)
C18_3 C 0.2925(5) 0.6525(5) 0.7497(3)
H9_3 H 0.3121 0.6942 0.7294
C19_3 C 0.2970(4) 0.6543(4) 0.8064(3)
H10_3 H 0.3207 0.6960 0.8242
C20_3 C 0.2668(4) 0.5946(4) 0.8378(3)
C21_3 C 0.2337(5) 0.5328(5) 0.8106(3)
H11_3 H 0.2132 0.4916 0.8310
C22_3 C 0.2311(7) 0.5324(5) 0.7525(4)
H12_3 H 0.2088 0.4903 0.7342
C23_3 C 0.2702(4) 0.5964(4) 0.8999(3)
C24_3 C 0.1252(6) 0.4706(5) 0.5687(4)
H13_3 H 0.0768 0.4727 0.5516
C25_3 C 0.1513(6) 0.5344(5) 0.5968(4)
H14_3 H 0.1255 0.5816 0.5944
C26_3 C 0.2176(7) 0.5262(5) 0.6289(3)
C27_3 C 0.2597(6) 0.4603(6) 0.6253(4)
H15_3 H 0.3063 0.4565 0.6446
C28_3 C 0.2349(5) 0.3991(5) 0.5936(4)
H16_3 H 0.2649 0.3544 0.5920
C29_3 C 0.1681(4) 0.4022(4) 0.5646(3)
C30_3 C 0.1386(4) 0.3351(4) 0.5332(2)
Al3_2 Al 0.17767(10) 0.17767(10) 0.5000
O16_3 O 0.0365(3) 0.2565(3) 0.42496(18)
Al2_6 Al 1.0000 0.25278(13) 0.5000
O1_3 O 0.7018(3) 0.6544(2) 0.07659(17)
O2_3 O 0.7565(3) 0.5365(3) 0.07504(18)
O3_3 O 0.9319(2) 0.3341(2) 0.4794(2)
O4_3 O 0.8134(2) 0.2830(2) 0.47888(17)
O5_3 O 0.9273(2) 0.1779(2) 0.48113(16)
O6_3 O 0.7422(6) 0.6576(5) 0.3647(3)
C1_3 C 0.7489(9) 0.5953(6) 0.3393(4)
C2_3 C 0.7399(5) 0.5919(5) 0.2787(3)
C3_3 C 0.7075(5) 0.6525(5) 0.2503(3)
H1_3 H 0.6879 0.6942 0.2706
C4_3 C 0.7030(4) 0.6543(4) 0.1936(3)
H2_3 H 0.6793 0.6960 0.1758
C5_3 C 0.7332(4) 0.5946(4) 0.1622(3)
C6_3 C 0.7663(5) 0.5328(5) 0.1894(3)
H3_3 H 0.7868 0.4916 0.1690
C7_3 C 0.7689(7) 0.5324(5) 0.2475(4)
H4_3 H 0.7912 0.4903 0.2658
C8_3 C 0.7298(4) 0.5964(4) 0.1001(3)
C9_3 C 0.8748(6) 0.4706(5) 0.4313(4)
H5_3 H 0.9232 0.4727 0.4484
C10_3 C 0.8487(6) 0.5344(5) 0.4032(4)
H6_3 H 0.8745 0.5816 0.4056
C11_3 C 0.7824(7) 0.5262(5) 0.3711(3)
C12_3 C 0.7403(6) 0.4603(6) 0.3747(4)
H7_3 H 0.6937 0.4565 0.3554
C13_3 C 0.7651(5) 0.3991(5) 0.4064(4)
H8_3 H 0.7351 0.3544 0.4080
C14_3 C 0.8319(4) 0.4022(4) 0.4354(3)
C15_3 C 0.8614(4) 0.3351(4) 0.4668(2)
Al5_3 Al 0.67767(10) 0.67767(10) 0.0000
O13_3 O 0.8456(2) 0.2018(3) 0.57659(17)
O14_3 O 0.7982(3) 0.1544(2) 0.42341(17)
O15_3 O 0.9635(3) 0.2565(3) 0.57504(18)
Al5_4 Al 0.67767(10) 0.67767(10) 1.0000
Al2_7 Al 0.25278(13) -0.0000 0.5000
O7_4 O 0.6544(2) 0.2982(3) 0.07659(17)
O8_4 O 0.5365(3) 0.2435(3) 0.07504(18)
O9_4 O 0.3341(2) 0.0681(2) 0.4794(2)
O10_3 O 0.2830(2) 0.1866(2) 0.47888(17)
O11_3 O 0.1779(2) 0.0727(2) 0.48113(16)
O12_4 O 0.6576(5) 0.2578(6) 0.3647(3)
C16_4 C 0.5953(6) 0.2511(9) 0.3393(4)
C17_4 C 0.5919(5) 0.2601(5) 0.2787(3)
C18_4 C 0.6525(5) 0.2925(5) 0.2503(3)
H9_4 H 0.6942 0.3121 0.2706
C19_4 C 0.6543(4) 0.2970(4) 0.1936(3)
H10_4 H 0.6960 0.3207 0.1758
C20_4 C 0.5946(4) 0.2668(4) 0.1622(3)
C21_4 C 0.5328(5) 0.2337(5) 0.1894(3)
H11_4 H 0.4916 0.2132 0.1690
C22_4 C 0.5324(5) 0.2311(7) 0.2475(4)
H12_4 H 0.4903 0.2088 0.2658
C23_4 C 0.5964(4) 0.2702(4) 0.1001(3)
C24_4 C 0.4706(5) 0.1252(6) 0.4313(4)
H13_4 H 0.4727 0.0768 0.4484
C25_4 C 0.5344(5) 0.1513(6) 0.4032(4)
H14_4 H 0.5816 0.1255 0.4056
C26_4 C 0.5262(5) 0.2176(7) 0.3711(3)
C27_4 C 0.4603(6) 0.2597(6) 0.3747(4)
H15_4 H 0.4565 0.3063 0.3554
C28_4 C 0.3991(5) 0.2349(5) 0.4064(4)
H16_4 H 0.3544 0.2649 0.4080
C29_4 C 0.4022(4) 0.1681(4) 0.4354(3)
C30_4 C 0.3351(4) 0.1386(4) 0.4668(2)
O16_4 O 0.2565(3) 0.0365(3) 0.57504(18)
Al2_8 Al 0.25278(13) 1.0000 0.5000
O1_4 O 0.6544(2) 0.7018(3) 0.92341(17)
O2_4 O 0.5365(3) 0.7565(3) 0.92496(18)
O3_4 O 0.3341(2) 0.9319(2) 0.5206(2)
O6_4 O 0.6576(5) 0.7422(6) 0.6353(3)
C1_4 C 0.5953(6) 0.7489(9) 0.6607(4)
C2_4 C 0.5919(5) 0.7399(5) 0.7213(3)
C3_4 C 0.6525(5) 0.7075(5) 0.7497(3)
H1_4 H 0.6942 0.6879 0.7294
C4_4 C 0.6543(4) 0.7030(4) 0.8064(3)
H2_4 H 0.6960 0.6793 0.8242
C5_4 C 0.5946(4) 0.7332(4) 0.8378(3)
C6_4 C 0.5328(5) 0.7663(5) 0.8106(3)
H3_4 H 0.4916 0.7868 0.8310
C7_4 C 0.5324(5) 0.7689(7) 0.7525(4)
H4_4 H 0.4903 0.7912 0.7342
C8_4 C 0.5964(4) 0.7298(4) 0.8999(3)
C9_4 C 0.4706(5) 0.8748(6) 0.5687(4)
H5_4 H 0.4727 0.9232 0.5516
C10_4 C 0.5344(5) 0.8487(6) 0.5968(4)
H6_4 H 0.5816 0.8745 0.5944
C11_4 C 0.5262(5) 0.7824(7) 0.6289(3)
C12_4 C 0.4603(6) 0.7403(6) 0.6253(4)
H7_4 H 0.4565 0.6937 0.6446
C13_4 C 0.3991(5) 0.7651(5) 0.5936(4)
H8_4 H 0.3544 0.7351 0.5920
C14_4 C 0.4022(4) 0.8319(4) 0.5646(3)
C15_4 C 0.3351(4) 0.8614(4) 0.5332(2)
O15_4 O 0.2565(3) 0.9635(3) 0.42496(18)
O13_4 O 0.2018(3) 0.1544(2) 0.57659(17)
O14_4 O 0.1544(2) 0.2018(3) 0.42341(17)
O9_5 O 0.1659(2) 0.5681(2) 0.0206(2)
O10_4 O 0.2170(2) 0.6866(2) 0.02112(17)
O11_4 O 0.3221(2) 0.5727(2) 0.01887(16)
H11_5 H 0.0084 0.7132 0.3310
H12_5 H 0.0097 0.7088 0.2342
C24_5 C 0.0294(5) 0.6252(6) 0.0687(4)
H13_5 H 0.0273 0.5768 0.0516
C27_5 C 0.0397(6) 0.7597(6) 0.1253(4)
H15_5 H 0.0435 0.8063 0.1446
C28_5 C 0.1009(5) 0.7349(5) 0.0936(4)
H16_5 H 0.1456 0.7649 0.0920
C29_5 C 0.0978(4) 0.6681(4) 0.0646(3)
C30_5 C 0.1649(4) 0.6386(4) 0.0332(2)
O17_3 O 0.3134(2) 0.2170(2) 0.02112(17)
O18_3 O 0.4273(2) 0.3221(2) 0.01887(16)
O3_5 O 0.1659(2) 0.4319(2) 0.9794(2)
O4_4 O 0.2170(2) 0.3134(2) 0.97888(17)
O5_4 O 0.3221(2) 0.4273(2) 0.98113(16)
H3_5 H 0.0084 0.2868 0.6690
H4_5 H 0.0097 0.2912 0.7658
C9_5 C 0.0294(5) 0.3748(6) 0.9313(4)
H5_5 H 0.0273 0.4232 0.9484
C12_5 C 0.0397(6) 0.2403(6) 0.8747(4)
H7_5 H 0.0435 0.1937 0.8554
C13_5 C 0.1009(5) 0.2651(5) 0.9064(4)
H8_5 H 0.1456 0.2351 0.9080
C14_5 C 0.0978(4) 0.3319(4) 0.9354(3)
C15_5 C 0.1649(4) 0.3614(4) 0.9668(2)
O12_5 O 0.8424(5) 0.7578(6) 0.1353(3)
C16_5 C 0.9047(6) 0.7511(9) 0.1607(4)
C17_5 C 0.9081(5) 0.7601(5) 0.2213(3)
C18_5 C 0.8475(5) 0.7925(5) 0.2497(3)
H9_5 H 0.8058 0.8121 0.2294
C19_5 C 0.8457(4) 0.7970(4) 0.3064(3)
H10_5 H 0.8040 0.8207 0.3242
C20_5 C 0.9054(4) 0.7668(4) 0.3378(3)
C21_5 C 0.9672(5) 0.7337(5) 0.3106(3)
C22_5 C 0.9676(5) 0.7311(7) 0.2525(4)
C23_5 C 0.9036(4) 0.7702(4) 0.3999(3)
C25_5 C 0.9656(5) 0.6513(6) 0.0968(4)
H14_5 H 0.9184 0.6255 0.0944
C26_5 C 0.9738(5) 0.7176(7) 0.1289(3)
O6_5 O 0.8424(5) 0.2422(6) 0.8647(3)
C1_5 C 0.9047(6) 0.2489(9) 0.8393(4)
C2_5 C 0.9081(5) 0.2399(5) 0.7787(3)
C3_5 C 0.8475(5) 0.2075(5) 0.7503(3)
H1_5 H 0.8058 0.1879 0.7706
C4_5 C 0.8457(4) 0.2030(4) 0.6936(3)
H2_5 H 0.8040 0.1793 0.6758
C5_5 C 0.9054(4) 0.2332(4) 0.6622(3)
C6_5 C 0.9672(5) 0.2663(5) 0.6894(3)
C7_5 C 0.9676(5) 0.2689(7) 0.7475(4)
C8_5 C 0.9036(4) 0.2298(4) 0.6001(3)
C10_5 C 0.9656(5) 0.3487(6) 0.9032(4)
H6_5 H 0.9184 0.3745 0.9056
C11_5 C 0.9738(5) 0.2824(7) 0.8711(3)
O9_6 O 0.4319(2) 0.1659(2) 0.0206(2)
H11_6 H 0.2868 0.0084 0.3310
H12_6 H 0.2912 0.0097 0.2342
C24_6 C 0.3748(6) 0.0294(5) 0.0687(4)
H13_6 H 0.4232 0.0273 0.0516
C27_6 C 0.2403(6) 0.0397(6) 0.1253(4)
H15_6 H 0.1937 0.0435 0.1446
C28_6 C 0.2651(5) 0.1009(5) 0.0936(4)
H16_6 H 0.2351 0.1456 0.0920
C29_6 C 0.3319(4) 0.0978(4) 0.0646(3)
C30_6 C 0.3614(4) 0.1649(4) 0.0332(2)
O17_4 O 0.7830(2) 0.3134(2) 0.02112(17)
O18_4 O 0.6779(2) 0.4273(2) 0.01887(16)
O3_6 O 0.5681(2) 0.1659(2) 0.9794(2)
O4_5 O 0.6866(2) 0.2170(2) 0.97888(17)
O5_5 O 0.5727(2) 0.3221(2) 0.98113(16)
H3_6 H 0.7132 0.0084 0.6690
H4_6 H 0.7088 0.0097 0.7658
C9_6 C 0.6252(6) 0.0294(5) 0.9313(4)
H5_6 H 0.5768 0.0273 0.9484
C12_6 C 0.7597(6) 0.0397(6) 0.8747(4)
H7_6 H 0.8063 0.0435 0.8554
C13_6 C 0.7349(5) 0.1009(5) 0.9064(4)
H8_6 H 0.7649 0.1456 0.9080
C14_6 C 0.6681(4) 0.0978(4) 0.9354(3)
C15_6 C 0.6386(4) 0.1649(4) 0.9668(2)
O12_6 O 0.2422(6) 0.8424(5) 0.1353(3)
C16_6 C 0.2489(9) 0.9047(6) 0.1607(4)
C17_6 C 0.2399(5) 0.9081(5) 0.2213(3)
C18_6 C 0.2075(5) 0.8475(5) 0.2497(3)
H9_6 H 0.1879 0.8058 0.2294
C19_6 C 0.2030(4) 0.8457(4) 0.3064(3)
H10_6 H 0.1793 0.8040 0.3242
C20_6 C 0.2332(4) 0.9054(4) 0.3378(3)
C21_6 C 0.2663(5) 0.9672(5) 0.3106(3)
C22_6 C 0.2689(7) 0.9676(5) 0.2525(4)
C23_6 C 0.2298(4) 0.9036(4) 0.3999(3)
C25_6 C 0.3487(6) 0.9656(5) 0.0968(4)
H14_6 H 0.3745 0.9184 0.0944
C26_6 C 0.2824(7) 0.9738(5) 0.1289(3)
O6_6 O 0.7578(6) 0.8424(5) 0.8647(3)
C1_6 C 0.7511(9) 0.9047(6) 0.8393(4)
C2_6 C 0.7601(5) 0.9081(5) 0.7787(3)
C3_6 C 0.7925(5) 0.8475(5) 0.7503(3)
H1_6 H 0.8121 0.8058 0.7706
C4_6 C 0.7970(4) 0.8457(4) 0.6936(3)
H2_6 H 0.8207 0.8040 0.6758
C5_6 C 0.7668(4) 0.9054(4) 0.6622(3)
C6_6 C 0.7337(5) 0.9672(5) 0.6894(3)
C7_6 C 0.7311(7) 0.9676(5) 0.7475(4)
C8_6 C 0.7702(4) 0.9036(4) 0.6001(3)
C10_6 C 0.6513(6) 0.9656(5) 0.9032(4)
H6_6 H 0.6255 0.9184 0.9056
C11_6 C 0.7176(7) 0.9738(5) 0.8711(3)
O12_7 O 0.7578(6) 0.1576(5) 0.1353(3)
C16_7 C 0.7511(9) 0.0953(6) 0.1607(4)
C17_7 C 0.7601(5) 0.0919(5) 0.2213(3)
C18_7 C 0.7925(5) 0.1525(5) 0.2497(3)
H9_7 H 0.8121 0.1942 0.2294
C19_7 C 0.7970(4) 0.1543(4) 0.3064(3)
H10_7 H 0.8207 0.1960 0.3242
C20_7 C 0.7668(4) 0.0946(4) 0.3378(3)
C21_7 C 0.7337(5) 0.0328(5) 0.3106(3)
C22_7 C 0.7311(7) 0.0324(5) 0.2525(4)
C23_7 C 0.7702(4) 0.0964(4) 0.3999(3)
C25_7 C 0.6513(6) 0.0344(5) 0.0968(4)
H14_7 H 0.6255 0.0816 0.0944
C26_7 C 0.7176(7) 0.0262(5) 0.1289(3)
O6_7 O 0.2422(6) 0.1576(5) 0.8647(3)
C1_7 C 0.2489(9) 0.0953(6) 0.8393(4)
C2_7 C 0.2399(5) 0.0919(5) 0.7787(3)
C3_7 C 0.2075(5) 0.1525(5) 0.7503(3)
H1_7 H 0.1879 0.1942 0.7706
C4_7 C 0.2030(4) 0.1543(4) 0.6936(3)
H2_7 H 0.1793 0.1960 0.6758
C5_7 C 0.2332(4) 0.0946(4) 0.6622(3)
C6_7 C 0.2663(5) 0.0328(5) 0.6894(3)
C7_7 C 0.2689(7) 0.0324(5) 0.7475(4)
C8_7 C 0.2298(4) 0.0964(4) 0.6001(3)
C10_7 C 0.3487(6) 0.0344(5) 0.9032(4)
H6_7 H 0.3745 0.0816 0.9056
C11_7 C 0.2824(7) 0.0262(5) 0.8711(3)
O9_7 O 0.5681(2) 0.8341(2) 0.0206(2)
O10_5 O 0.6866(2) 0.7830(2) 0.02112(17)
O11_5 O 0.5727(2) 0.6779(2) 0.01887(16)
H11_7 H 0.7132 0.9916 0.3310
H12_7 H 0.7088 0.9903 0.2342
C24_7 C 0.6252(6) 0.9706(5) 0.0687(4)
H13_7 H 0.5768 0.9727 0.0516
C27_7 C 0.7597(6) 0.9603(6) 0.1253(4)
H15_7 H 0.8063 0.9565 0.1446
C28_7 C 0.7349(5) 0.8991(5) 0.0936(4)
H16_7 H 0.7649 0.8544 0.0920
C29_7 C 0.6681(4) 0.9022(4) 0.0646(3)
C30_7 C 0.6386(4) 0.8351(4) 0.0332(2)
O3_7 O 0.4319(2) 0.8341(2) 0.9794(2)
O4_6 O 0.3134(2) 0.7830(2) 0.97888(17)
O5_6 O 0.4273(2) 0.6779(2) 0.98113(16)
H3_7 H 0.2868 0.9916 0.6690
H4_7 H 0.2912 0.9903 0.7658
C9_7 C 0.3748(6) 0.9706(5) 0.9313(4)
H5_7 H 0.4232 0.9727 0.9484
C12_7 C 0.2403(6) 0.9603(6) 0.8747(4)
H7_7 H 0.1937 0.9565 0.8554
C13_7 C 0.2651(5) 0.8991(5) 0.9064(4)
H8_7 H 0.2351 0.8544 0.9080
C14_7 C 0.3319(4) 0.9022(4) 0.9354(3)
C15_7 C 0.3614(4) 0.8351(4) 0.9668(2)
O6_8 O 0.1576(5) 0.2422(6) 0.1353(3)
C1_8 C 0.0953(6) 0.2489(9) 0.1607(4)
C2_8 C 0.0919(5) 0.2399(5) 0.2213(3)
C3_8 C 0.1525(5) 0.2075(5) 0.2497(3)
H1_8 H 0.1942 0.1879 0.2294
C4_8 C 0.1543(4) 0.2030(4) 0.3064(3)
H2_8 H 0.1960 0.1793 0.3242
C5_8 C 0.0946(4) 0.2332(4) 0.3378(3)
C6_8 C 0.0328(5) 0.2663(5) 0.3106(3)
C7_8 C 0.0324(5) 0.2689(7) 0.2525(4)
C8_8 C 0.0964(4) 0.2298(4) 0.3999(3)
C10_8 C 0.0344(5) 0.3487(6) 0.0968(4)
H6_8 H 0.0816 0.3745 0.0944
C11_8 C 0.0262(5) 0.2824(7) 0.1289(3)
O12_8 O 0.1576(5) 0.7578(6) 0.8647(3)
C16_8 C 0.0953(6) 0.7511(9) 0.8393(4)
C17_8 C 0.0919(5) 0.7601(5) 0.7787(3)
C18_8 C 0.1525(5) 0.7925(5) 0.7503(3)
H9_8 H 0.1942 0.8121 0.7706
C19_8 C 0.1543(4) 0.7970(4) 0.6936(3)
H10_8 H 0.1960 0.8207 0.6758
C20_8 C 0.0946(4) 0.7668(4) 0.6622(3)
C21_8 C 0.0328(5) 0.7337(5) 0.6894(3)
C22_8 C 0.0324(5) 0.7311(7) 0.7475(4)
C23_8 C 0.0964(4) 0.7702(4) 0.6001(3)
C25_8 C 0.0344(5) 0.6513(6) 0.9032(4)
H14_8 H 0.0816 0.6255 0.9056
C26_8 C 0.0262(5) 0.7176(7) 0.8711(3)
O3_8 O 0.8341(2) 0.4319(2) 0.0206(2)
H3_8 H 0.9916 0.2868 0.3310
H4_8 H 0.9903 0.2912 0.2342
C9_8 C 0.9706(5) 0.3748(6) 0.0687(4)
H5_8 H 0.9727 0.4232 0.0516
C12_8 C 0.9603(6) 0.2403(6) 0.1253(4)
H7_8 H 0.9565 0.1937 0.1446
C13_8 C 0.8991(5) 0.2651(5) 0.0936(4)
H8_8 H 0.8544 0.2351 0.0920
C14_8 C 0.9022(4) 0.3319(4) 0.0646(3)
C15_8 C 0.8351(4) 0.3614(4) 0.0332(2)
O9_8 O 0.8341(2) 0.5681(2) 0.9794(2)
O10_6 O 0.7830(2) 0.6866(2) 0.97888(17)
O11_6 O 0.6779(2) 0.5727(2) 0.98113(16)
H11_8 H 0.9916 0.7132 0.6690
H12_8 H 0.9903 0.7088 0.7658
C24_8 C 0.9706(5) 0.6252(6) 0.9313(4)
H13_8 H 0.9727 0.5768 0.9484
C27_8 C 0.9603(6) 0.7597(6) 0.8747(4)
H15_8 H 0.9565 0.8063 0.8554
C28_8 C 0.8991(5) 0.7349(5) 0.9064(4)
H16_8 H 0.8544 0.7649 0.9080
C29_8 C 0.9022(4) 0.6681(4) 0.9354(3)
C30_8 C 0.8351(4) 0.6386(4) 0.9668(2)
loop_
_geom_bond_atom_site_label_1
_geom_bond_atom_site_label_2
_geom_bond_site_symmetry_1
_geom_bond_site_symmetry_2
O7 C23 1_555 1_555
O8 C23 1_555 1_555
O9 Al2 1_555 1_555
O10 C30 1_555 1_555
O11 Al2 1_555 1_555
O12 C16 1_555 1_555
C16 C17 1_555 1_555
C17 C18 1_555 1_555
C18 H9 1_555 1_555
C19 C18 1_555 1_555
H10 C19 1_555 1_555
C20 C19 1_555 1_555
C21 C20 1_555 1_555
H11 C21 1_555 1_555
C22 C17 1_555 1_555
H12 C22 1_555 1_555
C23 C20 1_555 1_555
C24 H13 1_555 1_555
C25 C24 1_555 1_555
H14 C25 1_555 1_555
C26 C16 1_555 1_555
C27 C26 1_555 1_555
H15 C27 1_555 1_555
C28 C27 1_555 1_555
H16 C28 1_555 1_555
C29 C24 1_555 1_555
C30 O9 1_555 1_555
Al3 O10 1_555 1_555
Al4_2 O7 1_555 1_555
Al6_2 O8 1_555 1_555
O16 Al2 1_555 1_555
O11 Al3 1_555 1_555
C21 C22 1_555 1_555
C25 C26 1_555 1_555
C28 C29 1_555 1_555
C29 C30 1_555 1_555
Al1 O4 1_555 1_555
Al2_2 O3 1_555 1_555
O1 C8 1_555 1_555
O2 C8 1_555 1_555
O3 C15 1_555 1_555
O4 C15 1_555 1_555
O5 Al1 1_555 1_555
O6 C1 1_555 1_555
C1 C2 1_555 1_555
C2 C3 1_555 1_555
C3 H1 1_555 1_555
C4 C3 1_555 1_555
H2 C4 1_555 1_555
C5 C4 1_555 1_555
C6 C5 1_555 1_555
H3 C6 1_555 1_555
C7 C2 1_555 1_555
H4 C7 1_555 1_555
C8 C5 1_555 1_555
C9 H5 1_555 1_555
C10 C9 1_555 1_555
H6 C10 1_555 1_555
C11 C1 1_555 1_555
C12 C11 1_555 1_555
H7 C12 1_555 1_555
C13 C12 1_555 1_555
H8 C13 1_555 1_555
C14 C9 1_555 1_555
C15 C14 1_555 1_555
Al5 O1 1_555 1_555
Al7 O2 1_555 1_555
O13 Al1 1_555 1_555
O14 Al1 1_555 1_555
O15 Al2_2 1_555 1_555
O17 Al1 1_555 1_555
O18 Al1 1_555 1_555
Al2_2 O5 1_555 1_555
C6 C7 1_555 1_555
C10 C11 1_555 1_555
C13 C14 1_555 1_555
Al1_2 O4_2 1_555 1_555
Al2_3 O3_2 1_555 1_555
O1_2 C8_2 1_555 1_555
O2_2 C8_2 1_555 1_555
O3_2 C15_2 1_555 1_555
O4_2 C15_2 1_555 1_555
O5_2 Al1_2 1_555 1_555
O6_2 C1_2 1_555 1_555
C1_2 C2_2 1_555 1_555
C2_2 C3_2 1_555 1_555
C3_2 H1_2 1_555 1_555
C4_2 C3_2 1_555 1_555
H2_2 C4_2 1_555 1_555
C5_2 C4_2 1_555 1_555
C6_2 C5_2 1_555 1_555
H3_2 C6_2 1_555 1_555
C7_2 C2_2 1_555 1_555
H4_2 C7_2 1_555 1_555
C8_2 C5_2 1_555 1_555
C9_2 H5_2 1_555 1_555
C10_2 C9_2 1_555 1_555
H6_2 C10_2 1_555 1_555
C11_2 C1_2 1_555 1_555
C12_2 C11_2 1_555 1_555
H7_2 C12_2 1_555 1_555
C13_2 C12_2 1_555 1_555
H8_2 C13_2 1_555 1_555
C14_2 C9_2 1_555 1_555
C15_2 C14_2 1_555 1_555
Al4 O1_2 1_555 1_555
Al7_3 O2_2 1_555 1_555
O13_2 Al1_2 1_555 1_555
O14_2 Al1_2 1_555 1_555
O15_2 Al2_3 1_555 1_555
O17_2 Al1_2 1_555 1_555
O18_2 Al1_2 1_555 1_555
Al2_3 O5_2 1_555 1_555
C6_2 C7_2 1_555 1_555
C10_2 C11_2 1_555 1_555
C13_2 C14_2 1_555 1_555
O7_2 C23_2 1_555 1_555
O8_2 C23_2 1_555 1_555
O9_2 Al2_4 1_555 1_555
O17 C30_2 1_555 1_555
O18 Al2_4 1_555 1_555
O12_2 C16_2 1_555 1_555
C16_2 C17_2 1_555 1_555
C17_2 C18_2 1_555 1_555
C18_2 H9_2 1_555 1_555
C19_2 C18_2 1_555 1_555
H10_2 C19_2 1_555 1_555
C20_2 C19_2 1_555 1_555
C21_2 C20_2 1_555 1_555
H11_2 C21_2 1_555 1_555
C22_2 C17_2 1_555 1_555
H12_2 C22_2 1_555 1_555
C23_2 C20_2 1_555 1_555
C24_2 H13_2 1_555 1_555
C25_2 C24_2 1_555 1_555
H14_2 C25_2 1_555 1_555
C26_2 C16_2 1_555 1_555
C27_2 C26_2 1_555 1_555
H15_2 C27_2 1_555 1_555
C28_2 C27_2 1_555 1_555
H16_2 C28_2 1_555 1_555
C29_2 C24_2 1_555 1_555
C30_2 O9_2 1_555 1_555
Al4_4 O7_2 1_555 1_555
Al6_4 O8_2 1_555 1_555
O16_2 Al2_4 1_555 1_555
C21_2 C22_2 1_555 1_555
C25_2 C26_2 1_555 1_555
C28_2 C29_2 1_555 1_555
C29_2 C30_2 1_555 1_555
O7_3 C23_3 1_555 1_555
O8_3 C23_3 1_555 1_555
O9_3 Al2_5 1_555 1_555
O10_2 C30_3 1_555 1_555
O11_2 Al2_5 1_555 1_555
O12_3 C16_3 1_555 1_555
C16_3 C17_3 1_555 1_555
C17_3 C18_3 1_555 1_555
C18_3 H9_3 1_555 1_555
C19_3 C18_3 1_555 1_555
H10_3 C19_3 1_555 1_555
C20_3 C19_3 1_555 1_555
C21_3 C20_3 1_555 1_555
H11_3 C21_3 1_555 1_555
C22_3 C17_3 1_555 1_555
H12_3 C22_3 1_555 1_555
C23_3 C20_3 1_555 1_555
C24_3 H13_3 1_555 1_555
C25_3 C24_3 1_555 1_555
H14_3 C25_3 1_555 1_555
C26_3 C16_3 1_555 1_555
C27_3 C26_3 1_555 1_555
H15_3 C27_3 1_555 1_555
C28_3 C27_3 1_555 1_555
H16_3 C28_3 1_555 1_555
C29_3 C24_3 1_555 1_555
C30_3 O9_3 1_555 1_555
Al3_2 O10_2 1_555 1_555
Al5_2 O7_3 1_555 1_555
Al7_4 O8_3 1_555 1_555
O16_3 Al2_5 1_555 1_555
O11_2 Al3_2 1_555 1_555
C21_3 C22_3 1_555 1_555
C25_3 C26_3 1_555 1_555
C28_3 C29_3 1_555 1_555
C29_3 C30_3 1_555 1_555
Al3 O4_3 1_555 1_555
Al2_6 O3_3 1_555 1_555
O1_3 C8_3 1_555 1_555
O2_3 C8_3 1_555 1_555
O3_3 C15_3 1_555 1_555
O4_3 C15_3 1_555 1_555
O5_3 Al3 1_555 1_555
O6_3 C1_3 1_555 1_555
C1_3 C2_3 1_555 1_555
C2_3 C3_3 1_555 1_555
C3_3 H1_3 1_555 1_555
C4_3 C3_3 1_555 1_555
H2_3 C4_3 1_555 1_555
C5_3 C4_3 1_555 1_555
C6_3 C5_3 1_555 1_555
H3_3 C6_3 1_555 1_555
C7_3 C2_3 1_555 1_555
H4_3 C7_3 1_555 1_555
C8_3 C5_3 1_555 1_555
C9_3 H5_3 1_555 1_555
C10_3 C9_3 1_555 1_555
H6_3 C10_3 1_555 1_555
C11_3 C1_3 1_555 1_555
C12_3 C11_3 1_555 1_555
H7_3 C12_3 1_555 1_555
C13_3 C12_3 1_555 1_555
H8_3 C13_3 1_555 1_555
C14_3 C9_3 1_555 1_555
C15_3 C14_3 1_555 1_555
Al5_3 O1_3 1_555 1_555
Al6_3 O2_3 1_555 1_555
O13_3 Al3 1_555 1_555
O14_3 Al3 1_555 1_555
O15_3 Al2_6 1_555 1_555
Al2_6 O5_3 1_555 1_555
C6_3 C7_3 1_555 1_555
C10_3 C11_3 1_555 1_555
C13_3 C14_3 1_555 1_555
O7_4 C23_4 1_555 1_555
O8_4 C23_4 1_555 1_555
O9_4 Al2_7 1_555 1_555
O10_3 C30_4 1_555 1_555
O11_3 Al2_7 1_555 1_555
O12_4 C16_4 1_555 1_555
C16_4 C17_4 1_555 1_555
C17_4 C18_4 1_555 1_555
C18_4 H9_4 1_555 1_555
C19_4 C18_4 1_555 1_555
H10_4 C19_4 1_555 1_555
C20_4 C19_4 1_555 1_555
C21_4 C20_4 1_555 1_555
H11_4 C21_4 1_555 1_555
C22_4 C17_4 1_555 1_555
H12_4 C22_4 1_555 1_555
C23_4 C20_4 1_555 1_555
C24_4 H13_4 1_555 1_555
C25_4 C24_4 1_555 1_555
H14_4 C25_4 1_555 1_555
C26_4 C16_4 1_555 1_555
C27_4 C26_4 1_555 1_555
H15_4 C27_4 1_555 1_555
C28_4 C27_4 1_555 1_555
H16_4 C28_4 1_555 1_555
C29_4 C24_4 1_555 1_555
C30_4 O9_4 1_555 1_555
Al3_2 O10_3 1_555 1_555
Al4_3 O7_4 1_555 1_555
Al6 O8_4 1_555 1_555
O16_4 Al2_7 1_555 1_555
O11_3 Al3_2 1_555 1_555
C21_4 C22_4 1_555 1_555
C25_4 C26_4 1_555 1_555
C28_4 C29_4 1_555 1_555
C29_4 C30_4 1_555 1_555
Al2_8 O3_4 1_555 1_555
O1_4 C8_4 1_555 1_555
O2_4 C8_4 1_555 1_555
O3_4 C15_4 1_555 1_555
O17_2 C15_4 1_555 1_555
O6_4 C1_4 1_555 1_555
C1_4 C2_4 1_555 1_555
C2_4 C3_4 1_555 1_555
C3_4 H1_4 1_555 1_555
C4_4 C3_4 1_555 1_555
H2_4 C4_4 1_555 1_555
C5_4 C4_4 1_555 1_555
C6_4 C5_4 1_555 1_555
H3_4 C6_4 1_555 1_555
C7_4 C2_4 1_555 1_555
H4_4 C7_4 1_555 1_555
C8_4 C5_4 1_555 1_555
C9_4 H5_4 1_555 1_555
C10_4 C9_4 1_555 1_555
H6_4 C10_4 1_555 1_555
C11_4 C1_4 1_555 1_555
C12_4 C11_4 1_555 1_555
H7_4 C12_4 1_555 1_555
C13_4 C12_4 1_555 1_555
H8_4 C13_4 1_555 1_555
C14_4 C9_4 1_555 1_555
C15_4 C14_4 1_555 1_555
Al5_4 O1_4 1_555 1_555
Al7_2 O2_4 1_555 1_555
O15_4 Al2_8 1_555 1_555
Al2_8 O18_2 1_555 1_555
C6_4 C7_4 1_555 1_555
C10_4 C11_4 1_555 1_555
C13_4 C14_4 1_555 1_555
O13_4 Al3_2 1_555 1_555
O14_4 Al3_2 1_555 1_555
O9_5 Al7_3 1_555 1_555
O10_4 C30_5 1_555 1_555
O11_4 Al7_3 1_555 1_555
C24_5 H13_5 1_555 1_555
H15_5 C27_5 1_555 1_555
C28_5 C27_5 1_555 1_555
H16_5 C28_5 1_555 1_555
C29_5 C24_5 1_555 1_555
C30_5 O9_5 1_555 1_555
Al5 O10_4 1_555 1_555
O17_3 Al4 1_555 1_555
O18_3 Al4 1_555 1_555
O11_4 Al5 1_555 1_555
C28_5 C29_5 1_555 1_555
C29_5 C30_5 1_555 1_555
Al4_2 O4_4 1_555 1_555
Al7_4 O3_5 1_555 1_555
O3_5 C15_5 1_555 1_555
O4_4 C15_5 1_555 1_555
O5_4 Al4_2 1_555 1_555
C9_5 H5_5 1_555 1_555
H7_5 C12_5 1_555 1_555
C13_5 C12_5 1_555 1_555
H8_5 C13_5 1_555 1_555
C14_5 C9_5 1_555 1_555
C15_5 C14_5 1_555 1_555
Al7_4 O5_4 1_555 1_555
C13_5 C14_5 1_555 1_555
O14 C23_5 1_555 1_555
O16_2 C23_5 1_555 1_555
O12_5 C16_5 1_555 1_555
C16_5 C17_5 1_555 1_555
C17_5 C18_5 1_555 1_555
C18_5 H9_5 1_555 1_555
C19_5 C18_5 1_555 1_555
H10_5 C19_5 1_555 1_555
C20_5 C19_5 1_555 1_555
C21_5 C20_5 1_555 1_555
C22_5 C17_5 1_555 1_555
C23_5 C20_5 1_555 1_555
H14_5 C25_5 1_555 1_555
C26_5 C16_5 1_555 1_555
C21_5 C22_5 1_555 1_555
C25_5 C26_5 1_555 1_555
O13_3 C8_5 1_555 1_555
O15_3 C8_5 1_555 1_555
O6_5 C1_5 1_555 1_555
C1_5 C2_5 1_555 1_555
C2_5 C3_5 1_555 1_555
C3_5 H1_5 1_555 1_555
C4_5 C3_5 1_555 1_555
H2_5 C4_5 1_555 1_555
C5_5 C4_5 1_555 1_555
C6_5 C5_5 1_555 1_555
C7_5 C2_5 1_555 1_555
C8_5 C5_5 1_555 1_555
H6_5 C10_5 1_555 1_555
C11_5 C1_5 1_555 1_555
C6_5 C7_5 1_555 1_555
C10_5 C11_5 1_555 1_555
O9_6 Al6 1_555 1_555
O17_3 C30_6 1_555 1_555
O18_3 Al6 1_555 1_555
C24_6 H13_6 1_555 1_555
H15_6 C27_6 1_555 1_555
C28_6 C27_6 1_555 1_555
H16_6 C28_6 1_555 1_555
C29_6 C24_6 1_555 1_555
C30_6 O9_6 1_555 1_555
O17_4 Al4_3 1_555 1_555
O18_4 Al4_3 1_555 1_555
C28_6 C29_6 1_555 1_555
C29_6 C30_6 1_555 1_555
Al4_4 O4_5 1_555 1_555
Al6_2 O3_6 1_555 1_555
O3_6 C15_6 1_555 1_555
O4_5 C15_6 1_555 1_555
O5_5 Al4_4 1_555 1_555
C9_6 H5_6 1_555 1_555
H7_6 C12_6 1_555 1_555
C13_6 C12_6 1_555 1_555
H8_6 C13_6 1_555 1_555
C14_6 C9_6 1_555 1_555
C15_6 C14_6 1_555 1_555
Al6_2 O5_5 1_555 1_555
C13_6 C14_6 1_555 1_555
O14_2 C23_6 1_555 1_555
O15_4 C23_6 1_555 1_555
O12_6 C16_6 1_555 1_555
C16_6 C17_6 1_555 1_555
C17_6 C18_6 1_555 1_555
C18_6 H9_6 1_555 1_555
C19_6 C18_6 1_555 1_555
H10_6 C19_6 1_555 1_555
C20_6 C19_6 1_555 1_555
C21_6 C20_6 1_555 1_555
C22_6 C17_6 1_555 1_555
C23_6 C20_6 1_555 1_555
H14_6 C25_6 1_555 1_555
C26_6 C16_6 1_555 1_555
C21_6 C22_6 1_555 1_555
C25_6 C26_6 1_555 1_555
O13 C8_6 1_555 1_555
O15 C8_6 1_555 1_555
O6_6 C1_6 1_555 1_555
C1_6 C2_6 1_555 1_555
C2_6 C3_6 1_555 1_555
C3_6 H1_6 1_555 1_555
C4_6 C3_6 1_555 1_555
H2_6 C4_6 1_555 1_555
C5_6 C4_6 1_555 1_555
C6_6 C5_6 1_555 1_555
C7_6 C2_6 1_555 1_555
C8_6 C5_6 1_555 1_555
H6_6 C10_6 1_555 1_555
C11_6 C1_6 1_555 1_555
C6_6 C7_6 1_555 1_555
C10_6 C11_6 1_555 1_555
O14_3 C23_7 1_555 1_555
O16 C23_7 1_555 1_555
O12_7 C16_7 1_555 1_555
C16_7 C17_7 1_555 1_555
C17_7 C18_7 1_555 1_555
C18_7 H9_7 1_555 1_555
C19_7 C18_7 1_555 1_555
H10_7 C19_7 1_555 1_555
C20_7 C19_7 1_555 1_555
C21_7 C20_7 1_555 1_555
C22_7 C17_7 1_555 1_555
C23_7 C20_7 1_555 1_555
H14_7 C25_7 1_555 1_555
C26_7 C16_7 1_555 1_555
C21_7 C22_7 1_555 1_555
C25_7 C26_7 1_555 1_555
O13_4 C8_7 1_555 1_555
O16_4 C8_7 1_555 1_555
O6_7 C1_7 1_555 1_555
C1_7 C2_7 1_555 1_555
C2_7 C3_7 1_555 1_555
C3_7 H1_7 1_555 1_555
C4_7 C3_7 1_555 1_555
H2_7 C4_7 1_555 1_555
C5_7 C4_7 1_555 1_555
C6_7 C5_7 1_555 1_555
C7_7 C2_7 1_555 1_555
C8_7 C5_7 1_555 1_555
H6_7 C10_7 1_555 1_555
C11_7 C1_7 1_555 1_555
C6_7 C7_7 1_555 1_555
C10_7 C11_7 1_555 1_555
O9_7 Al7 1_555 1_555
O10_5 C30_7 1_555 1_555
O11_5 Al7 1_555 1_555
C24_7 H13_7 1_555 1_555
H15_7 C27_7 1_555 1_555
C28_7 C27_7 1_555 1_555
H16_7 C28_7 1_555 1_555
C29_7 C24_7 1_555 1_555
C30_7 O9_7 1_555 1_555
Al5_3 O10_5 1_555 1_555
O11_5 Al5_3 1_555 1_555
C28_7 C29_7 1_555 1_555
C29_7 C30_7 1_555 1_555
Al5_2 O4_6 1_555 1_555
Al7_2 O3_7 1_555 1_555
O3_7 C15_7 1_555 1_555
O4_6 C15_7 1_555 1_555
O5_6 Al5_2 1_555 1_555
C9_7 H5_7 1_555 1_555
H7_7 C12_7 1_555 1_555
C13_7 C12_7 1_555 1_555
H8_7 C13_7 1_555 1_555
C14_7 C9_7 1_555 1_555
C15_7 C14_7 1_555 1_555
Al7_2 O5_6 1_555 1_555
C13_7 C14_7 1_555 1_555
O14_4 C8_8 1_555 1_555
O16_3 C8_8 1_555 1_555
O6_8 C1_8 1_555 1_555
C1_8 C2_8 1_555 1_555
C2_8 C3_8 1_555 1_555
C3_8 H1_8 1_555 1_555
C4_8 C3_8 1_555 1_555
H2_8 C4_8 1_555 1_555
C5_8 C4_8 1_555 1_555
C6_8 C5_8 1_555 1_555
C7_8 C2_8 1_555 1_555
C8_8 C5_8 1_555 1_555
H6_8 C10_8 1_555 1_555
C11_8 C1_8 1_555 1_555
C6_8 C7_8 1_555 1_555
C10_8 C11_8 1_555 1_555
O13_2 C23_8 1_555 1_555
O15_2 C23_8 1_555 1_555
O12_8 C16_8 1_555 1_555
C16_8 C17_8 1_555 1_555
C17_8 C18_8 1_555 1_555
C18_8 H9_8 1_555 1_555
C19_8 C18_8 1_555 1_555
H10_8 C19_8 1_555 1_555
C20_8 C19_8 1_555 1_555
C21_8 C20_8 1_555 1_555
C22_8 C17_8 1_555 1_555
C23_8 C20_8 1_555 1_555
H14_8 C25_8 1_555 1_555
C26_8 C16_8 1_555 1_555
C21_8 C22_8 1_555 1_555
C25_8 C26_8 1_555 1_555
Al6_3 O3_8 1_555 1_555
O3_8 C15_8 1_555 1_555
O17_4 C15_8 1_555 1_555
C9_8 H5_8 1_555 1_555
H7_8 C12_8 1_555 1_555
C13_8 C12_8 1_555 1_555
H8_8 C13_8 1_555 1_555
C14_8 C9_8 1_555 1_555
C15_8 C14_8 1_555 1_555
Al6_3 O18_4 1_555 1_555
C13_8 C14_8 1_555 1_555
O9_8 Al6_4 1_555 1_555
O10_6 C30_8 1_555 1_555
O11_6 Al6_4 1_555 1_555
C24_8 H13_8 1_555 1_555
H15_8 C27_8 1_555 1_555
C28_8 C27_8 1_555 1_555
H16_8 C28_8 1_555 1_555
C29_8 C24_8 1_555 1_555
C30_8 O9_8 1_555 1_555
Al5_4 O10_6 1_555 1_555
O11_6 Al5_4 1_555 1_555
C28_8 C29_8 1_555 1_555
C29_8 C30_8 1_555 1_555

#END
