
###############################################################################
#
# This file contains modified crystal structure data generated from the
# MOF subset of the Cambridge Structural Database (CSD) v543 
# hosted by the Cambridge Crystallographic Data Centre (CCDC).
#
# This work is licensed under the Creative Commons
# Attribution-NonCommercial-ShareAlike 4.0 International License.
# To view a copy of this license, visit
# http://creativecommons.org/licenses/by-nc-sa/4.0/
# or send a letter to
# Creative Commons, PO Box 1866, Mountain View, CA 94042, USA.
#
# CIF created using the CSD Python API on 29 September 2022
# The structure has been converted into the P1 space group
# The structure has a 3D framework
# The original CSD entry DAZMEA is in the orthorhombic crystal system
# The framework has been calculated to contain at least 10.0% void space
# The void calculation uses a probe of radius 1.32A, grid spacing 0.4
#
###############################################################################

data_DAZMEA
_chemical_formula_moiety         '(C248 H160 Cd16 N16 O69)n'
_symmetry_cell_setting           triclinic
_symmetry_space_group_name_H-M   'P 1'
_symmetry_Int_Tables_number      1
_space_group_name_Hall           'P 1'
loop_
_symmetry_equiv_pos_site_id
_symmetry_equiv_pos_as_xyz
1 x,y,z
_cell_length_a                   32.093(5)
_cell_length_b                   13.271(2)
_cell_length_c                   17.601(3)
_cell_angle_alpha                90
_cell_angle_beta                 90
_cell_angle_gamma                90
_cell_volume                     7496.38
loop_
_atom_site_label
_atom_site_type_symbol
_atom_site_fract_x
_atom_site_fract_y
_atom_site_fract_z
O4 O 0.2215(2) 0.1499(5) 0.3650(4)
O5 O 0.1976(2) 0.2600(5) 0.2811(4)
O6 O 0.2062(2) 0.1614(5) 0.0100(4)
C5 C 0.2011(3) 0.1159(7) 0.1635(5)
H3 H 0.202967 0.183002 0.148734
C7 C 0.1976(3) 0.0425(7) 0.1092(5)
C9 C 0.2076(3) 0.1692(7) 0.2973(5)
C11 C 0.2018(3) 0.0916(7) 0.2411(5)
C13 C 0.2002(3) 0.0712(7) 0.0280(5)
C36 C 0.0364(4) 0.0269(10) 0.1999(8)
H22 H 0.036678 0.041451 0.251553
C42 C 0.0016(4) 0.0256(10) 0.0784(7)
C43 C 0.0034(4) 0.0531(10) 0.1562(7)
Cd4 Cd 0.29254(3) 0.14101(5) 0.38208(4)
O18 O 0.3660(3) 0.1586(6) 0.3947(5)
C57 C 0.2983(3) 0.0103(7) 0.0231(5)
C60 C 0.3034(3) 0.0846(7) 0.0768(5)
H36 H 0.307034 0.151370 0.062221
C61 C 0.3031(3) 0.0576(7) 0.1544(5)
H37 H 0.305781 0.107632 0.191051
C62 C 0.3708(6) 0.2454(10) 0.4248(9)
H38 H 0.351417 0.291939 0.402520
H39 H 0.398725 0.268547 0.415975
H40 H 0.365835 0.241058 0.478481
Cd8 Cd 0.20746(3) 0.35899(5) 0.38208(4)
O22 O 0.3024(2) 0.2400(5) 0.2811(4)
O23 O 0.2938(2) 0.1614(5) 0.5100(4)
O25 O 0.3023(2) 0.0060(5) 0.4753(4)
O7 O 0.1977(2) 0.0060(5) 0.9753(4)
H35 H 0.297357 0.027497 0.971940
Cd11 Cd 0.20746(3) 0.14101(5) 0.88208(4)
O1 O 0.1982(2) 0.7580(5) 0.0040(4)
O3 O 0.2010(2) 0.5035(5) 0.3092(4)
O8 O 0.2061(2) 0.6614(5) 0.2762(4)
O9 O 0.1340(3) 0.3414(6) 0.3947(5)
C1 C 0.1979(3) 0.9902(7) 0.2628(5)
H1 H 0.198893 0.972016 0.313820
C2 C 0.2055(3) 0.5901(7) 0.0444(5)
C3 C 0.2054(3) 0.6139(8) 0.1207(5)
H2 H 0.208400 0.680948 0.135165
C4 C 0.2011(3) 0.5404(7) 0.1769(5)
C6 C 0.1926(3) 0.9176(7) 0.2071(5)
H4 H 0.189221 0.850533 0.221182
C10 C 0.1922(3) 0.9430(7) 0.1314(5)
H5 H 0.188385 0.893261 0.094841
C12 C 0.2017(3) 0.4897(7) 0.0231(5)
C14 C 0.2029(3) 0.5696(7) 0.2579(5)
C17 C 0.1966(3) 0.4154(7) 0.0768(5)
H7 H 0.192966 0.348630 0.062221
C19 C 0.1969(3) 0.4424(7) 0.1544(5)
H9 H 0.194219 0.392368 0.191051
C23 C 0.0355(4) 0.9732(10) 0.0448(7)
C26 C 0.0702(4) 0.9467(10) 0.0898(7)
H14 H 0.092295 0.910274 0.069415
C29 C 0.0705(4) 0.9766(10) 0.1651(8)
H16 H 0.094039 0.963294 0.194219
C31 C 0.1292(6) 0.2546(10) 0.4248(9)
H18 H 0.148583 0.208061 0.402520
H19 H 0.101275 0.231453 0.415975
H20 H 0.134165 0.258942 0.478481
O10 O 0.3018(2) 0.7420(5) 0.0040(4)
O12 O 0.2990(2) 0.9965(5) 0.3092(4)
O13 O 0.2785(2) 0.3501(5) 0.3650(4)
O15 O 0.2938(2) 0.3386(5) 0.0100(4)
O17 O 0.2939(2) 0.8386(5) 0.2762(4)
C46 C 0.3021(3) 0.5098(7) 0.2628(5)
H30 H 0.301107 0.527984 0.313820
C47 C 0.2945(3) 0.9099(7) 0.0444(5)
C48 C 0.2946(3) 0.8861(8) 0.1207(5)
H31 H 0.291600 0.819052 0.135165
C49 C 0.2989(3) 0.9596(7) 0.1769(5)
C50 C 0.2989(3) 0.3841(7) 0.1635(5)
H32 H 0.297033 0.316998 0.148734
C51 C 0.3074(3) 0.5824(7) 0.2071(5)
H33 H 0.310779 0.649467 0.221182
C52 C 0.3024(3) 0.4575(7) 0.1092(5)
C54 C 0.2924(3) 0.3308(7) 0.2973(5)
C55 C 0.3078(3) 0.5570(7) 0.1314(5)
H34 H 0.311615 0.606739 0.094841
C56 C 0.2982(3) 0.4084(7) 0.2411(5)
C58 C 0.2998(3) 0.4288(7) 0.0280(5)
C59 C 0.2971(3) 0.9304(7) 0.2579(5)
Cd6 Cd 0.29428(2) 0.85864(4) 0.40343(3)
Cd7 Cd 0.20572(2) 0.64136(4) 0.40343(3)
O24 O 0.2062(2) 0.3386(5) 0.5100(4)
O26 O 0.1977(2) 0.4940(5) 0.4753(4)
Cd1 Cd 0.20572(2) 0.85864(4) 0.90343(3)
O2 O 0.2230(2) 0.6499(5) 0.9200(4)
N1 N 0.1322(3) 0.8547(7) 0.9001(5)
N2 N 0.0675(3) 0.8919(8) 0.9350(6)
C8 C 0.2094(3) 0.6679(7) 0.9832(5)
H6 H 0.202643 0.472503 0.971940
C15 C 0.0671(4) 0.7928(9) 0.9156(7)
C16 C 0.1078(4) 0.7677(9) 0.8943(6)
C18 C 0.1066(4) 0.9252(9) 0.9253(6)
H8 H 0.114843 0.991065 0.935396
C20 C 0.0338(4) 0.9478(10) 0.9671(7)
C22 C 0.1193(4) 0.6738(8) 0.8706(6)
H11 H 0.146564 0.659928 0.856073
C24 C 0.0357(4) 0.7212(9) 0.9155(7)
H12 H 0.008738 0.735768 0.931673
C25 C 0.0472(4) 0.6248(10) 0.8893(7)
H13 H 0.026642 0.575671 0.885006
H15 H 0.018366 0.910312 0.822511
C30 C 0.0886(4) 0.5995(10) 0.8691(7)
H17 H 0.095223 0.533969 0.854907
Cd3 Cd 0.29428(2) 0.64136(4) 0.90343(3)
O11 O 0.2770(2) 0.8501(5) 0.9200(4)
O16 O 0.3023(2) 0.4940(5) 0.9753(4)
C53 C 0.2906(3) 0.8321(7) 0.9832(5)
Cd10 Cd 0.29254(3) 0.35899(5) 0.88208(4)
O19 O 0.2990(2) 0.5035(5) 0.8092(4)
O20 O 0.2010(2) 0.9965(5) 0.8092(4)
O27 O 0.2939(2) 0.6614(5) 0.7762(4)
O28 O 0.2061(2) 0.8386(5) 0.7762(4)
N5 N 0.3678(3) 0.6453(7) 0.9001(5)
N3 N 0.8678(3) 0.1453(7) 0.0999(5)
N4 N 0.9325(3) 0.1081(8) 0.0650(6)
C32 C 0.9329(4) 0.2072(9) 0.0844(7)
C33 C 0.8922(4) 0.2323(9) 0.1057(6)
C34 C 0.8934(4) 0.0748(9) 0.0747(6)
H21 H 0.885157 0.008935 0.064604
C35 C 0.9662(4) 0.0522(10) 0.0329(7)
C37 C 0.8807(4) 0.3262(8) 0.1294(6)
H23 H 0.853436 0.340072 0.143927
C39 C 0.9643(4) 0.2788(9) 0.0845(7)
H24 H 0.991262 0.264232 0.068327
C40 C 0.9528(4) 0.3752(10) 0.1107(7)
H25 H 0.973358 0.424329 0.114994
H27 H 0.981634 0.089688 0.177489
C45 C 0.9114(4) 0.4005(10) 0.1309(7)
H29 H 0.904777 0.466031 0.145093
Cd5 Cd 0.79428(2) 0.14136(4) 0.09657(3)
C38 C 0.9645(4) 0.0268(10) 0.9552(7)
C41 C 0.9298(4) 0.0533(10) 0.9102(7)
H26 H 0.907705 0.089726 0.930585
C44 C 0.9295(4) 0.0234(10) 0.8349(8)
H28 H 0.905961 0.036706 0.805781
C21 C 0.9636(4) 0.9731(10) 0.8001(8)
H10 H 0.963322 0.958549 0.748447
C27 C 0.9984(4) 0.9744(10) 0.9216(7)
C28 C 0.9966(4) 0.9469(10) 0.8438(7)
C23_2 C 0.4645(4) 0.5268(10) 0.0448(7)
C26_2 C 0.4298(4) 0.5533(10) 0.0898(7)
H14_2 H 0.407705 0.589726 0.069415
C29_2 C 0.4295(4) 0.5234(10) 0.1651(8)
H16_2 H 0.405961 0.536706 0.194219
N3_2 N 0.6322(3) 0.3547(7) 0.0999(5)
N4_2 N 0.5675(3) 0.3919(8) 0.0650(6)
C32_2 C 0.5671(4) 0.2928(9) 0.0844(7)
C33_2 C 0.6078(4) 0.2677(9) 0.1057(6)
C34_2 C 0.6066(4) 0.4252(9) 0.0747(6)
H21_2 H 0.614843 0.491065 0.064604
C35_2 C 0.5338(4) 0.4478(10) 0.0329(7)
C36_2 C 0.4636(4) 0.4731(10) 0.1999(8)
H22_2 H 0.463322 0.458549 0.251553
C37_2 C 0.6193(4) 0.1738(8) 0.1294(6)
H23_2 H 0.646564 0.159928 0.143927
C39_2 C 0.5357(4) 0.2212(9) 0.0845(7)
H24_2 H 0.508738 0.235768 0.068327
C40_2 C 0.5472(4) 0.1248(10) 0.1107(7)
H25_2 H 0.526642 0.075671 0.114994
C42_2 C 0.4984(4) 0.4744(10) 0.0784(7)
C43_2 C 0.4966(4) 0.4469(10) 0.1562(7)
H27_2 H 0.518366 0.410312 0.177489
C45_2 C 0.5886(4) 0.0995(10) 0.1309(7)
H29_2 H 0.595223 0.033969 0.145093
Cd5_2 Cd 0.70572(2) 0.35864(4) 0.09657(3)
N2_2 N 0.4325(3) 0.6081(8) 0.9350(6)
C15_2 C 0.4329(4) 0.7072(9) 0.9156(7)
C16_2 C 0.3922(4) 0.7323(9) 0.8943(6)
C18_2 C 0.3934(4) 0.5748(9) 0.9253(6)
H8_2 H 0.385157 0.508935 0.935396
C20_2 C 0.4662(4) 0.5522(10) 0.9671(7)
C21_2 C 0.5364(4) 0.5269(10) 0.8001(8)
H10_2 H 0.536678 0.541451 0.748447
C22_2 C 0.3807(4) 0.8262(8) 0.8706(6)
H11_2 H 0.353436 0.840072 0.856073
C24_2 C 0.4643(4) 0.7788(9) 0.9155(7)
H12_2 H 0.491262 0.764232 0.931673
C25_2 C 0.4528(4) 0.8752(10) 0.8893(7)
H13_2 H 0.473358 0.924329 0.885006
C27_2 C 0.5016(4) 0.5256(10) 0.9216(7)
C28_2 C 0.5034(4) 0.5531(10) 0.8438(7)
H15_2 H 0.481634 0.589688 0.822511
C30_2 C 0.4114(4) 0.9005(10) 0.8691(7)
H17_2 H 0.404777 0.966031 0.854907
C38_2 C 0.5355(4) 0.4732(10) 0.9552(7)
C41_2 C 0.5702(4) 0.4467(10) 0.9102(7)
H26_2 H 0.592295 0.410274 0.930585
C44_2 C 0.5705(4) 0.4766(10) 0.8349(8)
H28_2 H 0.594039 0.463294 0.805781
Cd1_2 Cd 0.70572(2) 0.14136(4) 0.59657(3)
Cd2 Cd 0.70746(3) 0.64101(5) 0.11792(4)
O1_2 O 0.6982(2) 0.2420(5) 0.4960(4)
O2_2 O 0.7230(2) 0.3501(5) 0.5800(4)
O3_2 O 0.7010(2) 0.4965(5) 0.1908(4)
O8_2 O 0.7061(2) 0.3386(5) 0.2238(4)
O9_2 O 0.6340(3) 0.6586(6) 0.1053(5)
N1_2 N 0.6322(3) 0.1453(7) 0.5999(5)
N2_3 N 0.5675(3) 0.1081(8) 0.5650(6)
C1_2 C 0.6979(3) 0.0098(7) 0.2372(5)
H1_2 H 0.698893 0.027984 0.186180
C2_2 C 0.7055(3) 0.4099(7) 0.4556(5)
C3_2 C 0.7054(3) 0.3861(8) 0.3793(5)
H2_2 H 0.708400 0.319052 0.364835
C4_2 C 0.7011(3) 0.4596(7) 0.3231(5)
C6_2 C 0.6926(3) 0.0824(7) 0.2929(5)
H4_2 H 0.689221 0.149467 0.278818
C8_2 C 0.7094(3) 0.3321(7) 0.5168(5)
C10_2 C 0.6922(3) 0.0570(7) 0.3686(5)
H5_2 H 0.688385 0.106739 0.405159
C12_2 C 0.7017(3) 0.5103(7) 0.4769(5)
H6_2 H 0.702643 0.527497 0.528060
C14_2 C 0.7029(3) 0.4304(7) 0.2421(5)
C15_3 C 0.5671(4) 0.2072(9) 0.5844(7)
C16_3 C 0.6078(4) 0.2323(9) 0.6057(6)
C17_2 C 0.6966(3) 0.5846(7) 0.4232(5)
H7_2 H 0.692966 0.651370 0.437779
C18_3 C 0.6066(4) 0.0748(9) 0.5747(6)
H8_3 H 0.614843 0.008935 0.564604
C19_2 C 0.6969(3) 0.5576(7) 0.3456(5)
H9_2 H 0.694219 0.607632 0.308949
C20_3 C 0.5338(4) 0.0522(10) 0.5329(7)
C21_3 C 0.4636(4) 0.0269(10) 0.6999(8)
H10_3 H 0.463322 0.041451 0.751553
C22_3 C 0.6193(4) 0.3262(8) 0.6294(6)
H11_3 H 0.646564 0.340072 0.643927
C23_3 C 0.5355(4) 0.0268(10) 0.4552(7)
C24_3 C 0.5357(4) 0.2788(9) 0.5845(7)
H12_3 H 0.508738 0.264232 0.568327
C25_3 C 0.5472(4) 0.3752(10) 0.6107(7)
H13_3 H 0.526642 0.424329 0.614994
C26_3 C 0.5702(4) 0.0533(10) 0.4102(7)
H14_3 H 0.592295 0.089726 0.430585
C27_3 C 0.4984(4) 0.0256(10) 0.5784(7)
C28_3 C 0.4966(4) 0.0531(10) 0.6562(7)
H15_3 H 0.518366 0.089688 0.677489
C29_3 C 0.5705(4) 0.0234(10) 0.3349(8)
H16_3 H 0.594039 0.036706 0.305781
C30_3 C 0.5886(4) 0.4005(10) 0.6309(7)
H17_3 H 0.595223 0.466031 0.645093
C31_2 C 0.6292(6) 0.7454(10) 0.0752(9)
H18_2 H 0.648583 0.791939 0.097480
H19_2 H 0.601275 0.768547 0.084025
H20_2 H 0.634165 0.741058 0.021519
Cd3_2 Cd 0.79428(2) 0.35864(4) 0.59657(3)
O10_2 O 0.8018(2) 0.2580(5) 0.4960(4)
O11_2 O 0.7770(2) 0.1499(5) 0.5800(4)
O12_2 O 0.7990(2) 0.0035(5) 0.1908(4)
O13_2 O 0.7785(2) 0.6499(5) 0.1350(4)
O14 O 0.8024(2) 0.7600(5) 0.2189(4)
O15_2 O 0.7938(2) 0.6614(5) 0.4900(4)
O16_2 O 0.8023(2) 0.5060(5) 0.5247(4)
O17_2 O 0.7939(2) 0.1614(5) 0.2238(4)
C46_2 C 0.8021(3) 0.4902(7) 0.2372(5)
H30_2 H 0.801107 0.472016 0.186180
C47_2 C 0.7945(3) 0.0901(7) 0.4556(5)
C48_2 C 0.7946(3) 0.1139(8) 0.3793(5)
H31_2 H 0.791600 0.180948 0.364835
C49_2 C 0.7989(3) 0.0404(7) 0.3231(5)
C50_2 C 0.7989(3) 0.6159(7) 0.3365(5)
H32_2 H 0.797033 0.683002 0.351266
C51_2 C 0.8074(3) 0.4176(7) 0.2929(5)
H33_2 H 0.810779 0.350533 0.278818
C52_2 C 0.8024(3) 0.5425(7) 0.3908(5)
C53_2 C 0.7906(3) 0.1679(7) 0.5168(5)
C54_2 C 0.7924(3) 0.6692(7) 0.2027(5)
C55_2 C 0.8078(3) 0.4430(7) 0.3686(5)
H34_2 H 0.811615 0.393261 0.405159
C56_2 C 0.7982(3) 0.5916(7) 0.2589(5)
C58_2 C 0.7998(3) 0.5712(7) 0.4720(5)
C59_2 C 0.7971(3) 0.0696(7) 0.2421(5)
Cd9 Cd 0.79254(3) 0.85899(5) 0.11792(4)
Cd10_2 Cd 0.79254(3) 0.64101(5) 0.61792(4)
O19_2 O 0.7990(2) 0.4965(5) 0.6908(4)
O20_2 O 0.7010(2) 0.0035(5) 0.6908(4)
O21 O 0.6976(2) 0.7400(5) 0.2189(4)
O26_2 O 0.6977(2) 0.5060(5) 0.0247(4)
O27_2 O 0.7939(2) 0.3386(5) 0.7238(4)
O28_2 O 0.7061(2) 0.1614(5) 0.7238(4)
N5_2 N 0.8678(3) 0.3547(7) 0.5999(5)
O24_2 O 0.7062(2) 0.6614(5) 0.9900(4)
O4_2 O 0.7215(2) 0.8501(5) 0.1350(4)
O6_2 O 0.7062(2) 0.8386(5) 0.4900(4)
O7_2 O 0.6977(2) 0.9940(5) 0.5247(4)
C5_2 C 0.7011(3) 0.8841(7) 0.3365(5)
H3_2 H 0.702967 0.816998 0.351266
C7_2 C 0.6976(3) 0.9575(7) 0.3908(5)
C9_2 C 0.7076(3) 0.8308(7) 0.2027(5)
C11_2 C 0.7018(3) 0.9084(7) 0.2589(5)
C13_2 C 0.7002(3) 0.9288(7) 0.4720(5)
N3_3 N 0.3678(3) 0.8547(7) 0.4001(5)
N4_3 N 0.4325(3) 0.8919(8) 0.4350(6)
C32_3 C 0.4329(4) 0.7928(9) 0.4156(7)
C33_3 C 0.3922(4) 0.7677(9) 0.3943(6)
C34_3 C 0.3934(4) 0.9252(9) 0.4253(6)
H21_3 H 0.385157 0.991065 0.435396
C35_3 C 0.4662(4) 0.9478(10) 0.4671(7)
C36_3 C 0.5364(4) 0.9731(10) 0.3001(8)
H22_3 H 0.536678 0.958549 0.248447
C37_3 C 0.3807(4) 0.6738(8) 0.3706(6)
H23_3 H 0.353436 0.659928 0.356073
C38_3 C 0.4645(4) 0.9732(10) 0.5448(7)
C39_3 C 0.4643(4) 0.7212(9) 0.4155(7)
H24_3 H 0.491262 0.735768 0.431673
C40_3 C 0.4528(4) 0.6248(10) 0.3893(7)
H25_3 H 0.473358 0.575671 0.385006
C41_3 C 0.4298(4) 0.9467(10) 0.5898(7)
H26_3 H 0.407705 0.910274 0.569415
C42_3 C 0.5016(4) 0.9744(10) 0.4216(7)
C43_3 C 0.5034(4) 0.9469(10) 0.3438(7)
H27_3 H 0.481634 0.910312 0.322511
C44_3 C 0.4295(4) 0.9766(10) 0.6651(8)
H28_3 H 0.405961 0.963294 0.694219
C45_3 C 0.4114(4) 0.5995(10) 0.3691(7)
H29_3 H 0.404777 0.533969 0.354907
O18_2 O 0.8660(3) 0.8414(6) 0.1053(5)
C57_2 C 0.7983(3) 0.9897(7) 0.4769(5)
H35_2 H 0.797357 0.972503 0.528060
C60_2 C 0.8034(3) 0.9154(7) 0.4232(5)
H36_2 H 0.807034 0.848630 0.437779
C61_2 C 0.8031(3) 0.9424(7) 0.3456(5)
H37_2 H 0.805781 0.892368 0.308949
C62_2 C 0.8708(6) 0.7546(10) 0.0752(9)
H38_2 H 0.851417 0.708061 0.097480
H39_2 H 0.898725 0.731453 0.084025
H40_2 H 0.865835 0.758942 0.021519
Cd11_2 Cd 0.70746(3) 0.85899(5) 0.61792(4)
O25_2 O 0.8023(2) 0.9940(5) 0.0247(4)
O23_2 O 0.7938(2) 0.8386(5) 0.9900(4)
C21_4 C 0.0364(4) 0.4731(10) 0.6999(8)
H10_4 H 0.036678 0.458549 0.751553
C27_4 C 0.0016(4) 0.4744(10) 0.5784(7)
C28_4 C 0.0034(4) 0.4469(10) 0.6562(7)
N3_4 N 0.1322(3) 0.6453(7) 0.4001(5)
N4_4 N 0.0675(3) 0.6081(8) 0.4350(6)
C32_4 C 0.0671(4) 0.7072(9) 0.4156(7)
C33_4 C 0.1078(4) 0.7323(9) 0.3943(6)
C34_4 C 0.1066(4) 0.5748(9) 0.4253(6)
H21_4 H 0.114843 0.508935 0.435396
C35_4 C 0.0338(4) 0.5522(10) 0.4671(7)
C37_4 C 0.1193(4) 0.8262(8) 0.3706(6)
H23_4 H 0.146564 0.840072 0.356073
C38_4 C 0.0355(4) 0.5268(10) 0.5448(7)
C39_4 C 0.0357(4) 0.7788(9) 0.4155(7)
H24_4 H 0.008738 0.764232 0.431673
C40_4 C 0.0472(4) 0.8752(10) 0.3893(7)
H25_4 H 0.026642 0.924329 0.385006
C41_4 C 0.0702(4) 0.5533(10) 0.5898(7)
H26_4 H 0.092295 0.589726 0.569415
H27_4 H 0.018366 0.589688 0.322511
C44_4 C 0.0705(4) 0.5234(10) 0.6651(8)
H28_4 H 0.094039 0.536706 0.694219
C45_4 C 0.0886(4) 0.9005(10) 0.3691(7)
H29_4 H 0.095223 0.966031 0.354907
N2_4 N 0.9325(3) 0.3919(8) 0.5650(6)
C15_4 C 0.9329(4) 0.2928(9) 0.5844(7)
C16_4 C 0.8922(4) 0.2677(9) 0.6057(6)
C18_4 C 0.8934(4) 0.4252(9) 0.5747(6)
H8_4 H 0.885157 0.491065 0.564604
C20_4 C 0.9662(4) 0.4478(10) 0.5329(7)
C22_4 C 0.8807(4) 0.1738(8) 0.6294(6)
H11_4 H 0.853436 0.159928 0.643927
C23_4 C 0.9645(4) 0.4732(10) 0.4552(7)
C24_4 C 0.9643(4) 0.2212(9) 0.5845(7)
H12_4 H 0.991262 0.235768 0.568327
C25_4 C 0.9528(4) 0.1248(10) 0.6107(7)
H13_4 H 0.973358 0.075671 0.614994
C26_4 C 0.9298(4) 0.4467(10) 0.4102(7)
H14_4 H 0.907705 0.410274 0.430585
H15_4 H 0.981634 0.410312 0.677489
C29_4 C 0.9295(4) 0.4766(10) 0.3349(8)
H16_4 H 0.905961 0.463294 0.305781
C30_4 C 0.9114(4) 0.0995(10) 0.6309(7)
H17_4 H 0.904777 0.033969 0.645093
C36_4 C 0.9636(4) 0.5269(10) 0.3001(8)
H22_4 H 0.963322 0.541451 0.248447
C42_4 C 0.9984(4) 0.5256(10) 0.4216(7)
C43_4 C 0.9966(4) 0.5531(10) 0.3438(7)
O2_3 O 0.7770(2) 0.3501(5) 0.0800(4)
C8_3 C 0.7906(3) 0.3321(7) 0.0168(5)
H6_3 H 0.797357 0.527497 0.028060
O11_3 O 0.7230(2) 0.1499(5) 0.0800(4)
C53_3 C 0.7094(3) 0.1679(7) 0.0168(5)
O1_3 O 0.8018(2) 0.2420(5) 0.9960(4)
O9_3 O 0.8660(3) 0.6586(6) 0.6053(5)
C1_3 C 0.8021(3) 0.0098(7) 0.7372(5)
H1_3 H 0.801107 0.027984 0.686180
C2_3 C 0.7945(3) 0.4099(7) 0.9556(5)
C3_3 C 0.7946(3) 0.3861(8) 0.8793(5)
H2_3 H 0.791600 0.319052 0.864835
C4_3 C 0.7989(3) 0.4596(7) 0.8231(5)
C6_3 C 0.8074(3) 0.0824(7) 0.7929(5)
H4_3 H 0.810779 0.149467 0.778818
C10_3 C 0.8078(3) 0.0570(7) 0.8686(5)
H5_3 H 0.811615 0.106739 0.905159
C12_3 C 0.7983(3) 0.5103(7) 0.9769(5)
C14_3 C 0.7971(3) 0.4304(7) 0.7421(5)
C17_3 C 0.8034(3) 0.5846(7) 0.9232(5)
H7_3 H 0.807034 0.651370 0.937779
C19_3 C 0.8031(3) 0.5576(7) 0.8456(5)
H9_3 H 0.805781 0.607632 0.808949
C31_3 C 0.8708(6) 0.7454(10) 0.5752(9)
H18_3 H 0.851417 0.791939 0.597480
H19_3 H 0.898725 0.768547 0.584025
H20_3 H 0.865835 0.741058 0.521519
O10_3 O 0.6982(2) 0.2580(5) 0.9960(4)
O13_3 O 0.7215(2) 0.6499(5) 0.6350(4)
O14_2 O 0.6976(2) 0.7600(5) 0.7189(4)
C46_3 C 0.6979(3) 0.4902(7) 0.7372(5)
H30_3 H 0.698893 0.472016 0.686180
C47_3 C 0.7055(3) 0.0901(7) 0.9556(5)
C48_3 C 0.7054(3) 0.1139(8) 0.8793(5)
H31_3 H 0.708400 0.180948 0.864835
C49_3 C 0.7011(3) 0.0404(7) 0.8231(5)
C50_3 C 0.7011(3) 0.6159(7) 0.8365(5)
H32_3 H 0.702967 0.683002 0.851266
C51_3 C 0.6926(3) 0.4176(7) 0.7929(5)
H33_3 H 0.689221 0.350533 0.778818
C52_3 C 0.6976(3) 0.5425(7) 0.8908(5)
C54_3 C 0.7076(3) 0.6692(7) 0.7027(5)
C55_3 C 0.6922(3) 0.4430(7) 0.8686(5)
H34_3 H 0.688385 0.393261 0.905159
C56_3 C 0.7018(3) 0.5916(7) 0.7589(5)
C58_3 C 0.7002(3) 0.5712(7) 0.9720(5)
C59_3 C 0.7029(3) 0.0696(7) 0.7421(5)
O21_2 O 0.8024(2) 0.7400(5) 0.7189(4)
H35_3 H 0.702643 0.972503 0.028060
O4_3 O 0.7785(2) 0.8501(5) 0.6350(4)
C5_3 C 0.7989(3) 0.8841(7) 0.8365(5)
H3_3 H 0.797033 0.816998 0.851266
C7_3 C 0.8024(3) 0.9575(7) 0.8908(5)
C9_3 C 0.7924(3) 0.8308(7) 0.7027(5)
C11_3 C 0.7982(3) 0.9084(7) 0.7589(5)
C13_3 C 0.7998(3) 0.9288(7) 0.9720(5)
O18_3 O 0.6340(3) 0.8414(6) 0.6053(5)
C57_3 C 0.7017(3) 0.9897(7) 0.9769(5)
C60_3 C 0.6966(3) 0.9154(7) 0.9232(5)
H36_3 H 0.692966 0.848630 0.937779
C61_3 C 0.6969(3) 0.9424(7) 0.8456(5)
H37_3 H 0.694219 0.892368 0.808949
C62_3 C 0.6292(6) 0.7546(10) 0.5752(9)
H38_3 H 0.648583 0.708061 0.597480
H39_3 H 0.601275 0.731453 0.584025
H40_3 H 0.634165 0.758942 0.521519
O4_4 O 0.2785(2) 0.1499(5) 0.8650(4)
O5_2 O 0.3024(2) 0.2600(5) 0.7811(4)
C5_4 C 0.2989(3) 0.1159(7) 0.6635(5)
H3_4 H 0.297033 0.183002 0.648734
C7_4 C 0.3024(3) 0.0425(7) 0.6092(5)
C9_4 C 0.2924(3) 0.1692(7) 0.7973(5)
C11_4 C 0.2982(3) 0.0916(7) 0.7411(5)
C13_4 C 0.2998(3) 0.0712(7) 0.5280(5)
O18_4 O 0.1340(3) 0.1586(6) 0.8947(5)
C57_4 C 0.2017(3) 0.0103(7) 0.5231(5)
H35_4 H 0.202643 0.027497 0.471940
C60_4 C 0.1966(3) 0.0846(7) 0.5768(5)
H36_4 H 0.192966 0.151370 0.562221
C61_4 C 0.1969(3) 0.0576(7) 0.6544(5)
H37_4 H 0.194219 0.107632 0.691051
C62_4 C 0.1292(6) 0.2454(10) 0.9248(9)
H38_4 H 0.148583 0.291939 0.902520
H39_4 H 0.101275 0.268547 0.915975
H40_4 H 0.134165 0.241058 0.978481
O22_2 O 0.1976(2) 0.2400(5) 0.7811(4)
O1_4 O 0.3018(2) 0.7580(5) 0.5040(4)
O2_4 O 0.2770(2) 0.6499(5) 0.4200(4)
O9_4 O 0.3660(3) 0.3414(6) 0.8947(5)
C1_4 C 0.3021(3) 0.9902(7) 0.7628(5)
H1_4 H 0.301107 0.972016 0.813820
C2_4 C 0.2945(3) 0.5901(7) 0.5444(5)
C3_4 C 0.2946(3) 0.6139(8) 0.6207(5)
H2_4 H 0.291600 0.680948 0.635165
C4_4 C 0.2989(3) 0.5404(7) 0.6769(5)
C6_4 C 0.3074(3) 0.9176(7) 0.7071(5)
H4_4 H 0.310779 0.850533 0.721182
C8_4 C 0.2906(3) 0.6679(7) 0.4832(5)
C10_4 C 0.3078(3) 0.9430(7) 0.6314(5)
H5_4 H 0.311615 0.893261 0.594841
C12_4 C 0.2983(3) 0.4897(7) 0.5231(5)
H6_4 H 0.297357 0.472503 0.471940
C14_4 C 0.2971(3) 0.5696(7) 0.7579(5)
C17_4 C 0.3034(3) 0.4154(7) 0.5768(5)
H7_4 H 0.307034 0.348630 0.562221
C19_4 C 0.3031(3) 0.4424(7) 0.6544(5)
H9_4 H 0.305781 0.392368 0.691051
C31_4 C 0.3708(6) 0.2546(10) 0.9248(9)
H18_4 H 0.351417 0.208061 0.902520
H19_4 H 0.398725 0.231453 0.915975
H20_4 H 0.365835 0.258942 0.978481
O10_4 O 0.1982(2) 0.7420(5) 0.5040(4)
O11_4 O 0.2230(2) 0.8501(5) 0.4200(4)
O13_4 O 0.2215(2) 0.3501(5) 0.8650(4)
C46_4 C 0.1979(3) 0.5098(7) 0.7628(5)
H30_4 H 0.198893 0.527984 0.813820
C47_4 C 0.2055(3) 0.9099(7) 0.5444(5)
C48_4 C 0.2054(3) 0.8861(8) 0.6207(5)
H31_4 H 0.208400 0.819052 0.635165
C49_4 C 0.2011(3) 0.9596(7) 0.6769(5)
C50_4 C 0.2011(3) 0.3841(7) 0.6635(5)
H32_4 H 0.202967 0.316998 0.648734
C51_4 C 0.1926(3) 0.5824(7) 0.7071(5)
H33_4 H 0.189221 0.649467 0.721182
C52_4 C 0.1976(3) 0.4575(7) 0.6092(5)
C53_4 C 0.2094(3) 0.8321(7) 0.4832(5)
C54_4 C 0.2076(3) 0.3308(7) 0.7973(5)
C55_4 C 0.1922(3) 0.5570(7) 0.6314(5)
H34_4 H 0.188385 0.606739 0.594841
C56_4 C 0.2018(3) 0.4084(7) 0.7411(5)
C58_4 C 0.2002(3) 0.4288(7) 0.5280(5)
C59_4 C 0.2029(3) 0.9304(7) 0.7579(5)
loop_
_geom_bond_atom_site_label_1
_geom_bond_atom_site_label_2
_geom_bond_site_symmetry_1
_geom_bond_site_symmetry_2
O4 C9 1_555 1_555
O5 C9 1_555 1_555
O6 C13 1_555 1_555
C5 H3 1_555 1_555
C7 C5 1_555 1_555
C9 C11 1_555 1_555
H22 C36 1_555 1_555
C43 C36 1_555 1_555
Cd4 O4 1_555 1_555
O18 Cd4 1_555 1_555
C60 C57 1_555 1_555
H36 C60 1_555 1_555
H37 C61 1_555 1_555
C62 O18 1_555 1_555
H38 C62 1_555 1_555
H39 C62 1_555 1_555
H40 C62 1_555 1_555
Cd8 O5 1_555 1_555
O22 Cd4 1_555 1_555
O23 Cd4 1_555 1_555
O25 Cd4 1_555 1_555
C5 C11 1_555 1_555
C7 C13 1_555 1_555
C42 C43 1_555 1_555
C60 C61 1_555 1_555
O7 Cd11 1_555 1_555
Cd8 O3 1_555 1_555
O3 C14 1_555 1_555
O8 C14 1_555 1_555
O9 Cd8 1_555 1_555
C1 H1 1_555 1_555
C2 C3 1_555 1_555
C3 H2 1_555 1_555
C4 C3 1_555 1_555
C6 C1 1_555 1_555
H4 C6 1_555 1_555
C10 C6 1_555 1_555
H5 C10 1_555 1_555
C12 C2 1_555 1_555
C14 C4 1_555 1_555
C17 C12 1_555 1_555
H7 C17 1_555 1_555
C19 C4 1_555 1_555
H9 C19 1_555 1_555
C26 C23 1_555 1_555
H14 C26 1_555 1_555
C29 C26 1_555 1_555
H16 C29 1_555 1_555
C31 O9 1_555 1_555
H18 C31 1_555 1_555
H19 C31 1_555 1_555
H20 C31 1_555 1_555
O13 Cd8 1_555 1_555
O22 C54 1_555 1_555
O15 C58 1_555 1_555
O17 C59 1_555 1_555
C46 H30 1_555 1_555
C47 C48 1_555 1_555
C48 H31 1_555 1_555
C49 C48 1_555 1_555
C50 H32 1_555 1_555
C51 C46 1_555 1_555
H33 C51 1_555 1_555
C52 C50 1_555 1_555
C54 O13 1_555 1_555
C55 C51 1_555 1_555
H34 C55 1_555 1_555
C56 C46 1_555 1_555
C59 O12 1_555 1_555
Cd6 O12 1_555 1_555
Cd7 O3 1_555 1_555
O24 Cd8 1_555 1_555
O26 Cd8 1_555 1_555
O8 Cd7 1_555 1_555
C17 C19 1_555 1_555
O17 Cd6 1_555 1_555
C49 C59 1_555 1_555
C50 C56 1_555 1_555
C52 C55 1_555 1_555
C52 C58 1_555 1_555
C54 C56 1_555 1_555
Cd7 O26 1_555 1_555
O2 C8 1_555 1_555
N1 Cd1 1_555 1_555
N2 C15 1_555 1_555
C15 C16 1_555 1_555
C16 N1 1_555 1_555
C18 N1 1_555 1_555
H8 C18 1_555 1_555
C20 N2 1_555 1_555
C22 C16 1_555 1_555
H11 C22 1_555 1_555
C24 C15 1_555 1_555
H12 C24 1_555 1_555
C25 C24 1_555 1_555
H13 C25 1_555 1_555
C30 C22 1_555 1_555
H17 C30 1_555 1_555
Cd3 O2 1_555 1_555
O11 Cd1 1_555 1_555
O16 Cd3 1_555 1_555
O19 Cd3 1_555 1_555
O20 Cd1 1_555 1_555
O27 Cd3 1_555 1_555
O28 Cd1 1_555 1_555
N5 Cd3 1_555 1_555
N2 C18 1_555 1_555
C25 C30 1_555 1_555
O11 C53 1_555 1_555
O16 Cd10 1_555 1_555
Cd10 O19 1_555 1_555
N3 C33 1_555 1_555
N4 C32 1_555 1_555
C32 C33 1_555 1_555
C33 C37 1_555 1_555
C34 N3 1_555 1_555
H21 C34 1_555 1_555
C35 N4 1_555 1_555
C37 H23 1_555 1_555
C39 C32 1_555 1_555
H24 C39 1_555 1_555
C40 C39 1_555 1_555
H25 C40 1_555 1_555
C45 C37 1_555 1_555
H29 C45 1_555 1_555
Cd5 N3 1_555 1_555
N4 C34 1_555 1_555
C40 C45 1_555 1_555
C41 C38 1_555 1_555
H26 C41 1_555 1_555
H28 C44 1_555 1_555
C41 C44 1_555 1_555
C21 H10 1_555 1_555
C28 C21 1_555 1_555
C27 C28 1_555 1_555
C26_2 C23_2 1_555 1_555
H14_2 C26_2 1_555 1_555
C29_2 C26_2 1_555 1_555
H16_2 C29_2 1_555 1_555
N3_2 C33_2 1_555 1_555
N4_2 C32_2 1_555 1_555
C32_2 C33_2 1_555 1_555
C33_2 C37_2 1_555 1_555
C34_2 N3_2 1_555 1_555
H21_2 C34_2 1_555 1_555
C35_2 N4_2 1_555 1_555
C36_2 C29_2 1_555 1_555
H22_2 C36_2 1_555 1_555
C37_2 H23_2 1_555 1_555
C39_2 C32_2 1_555 1_555
H24_2 C39_2 1_555 1_555
C40_2 C39_2 1_555 1_555
H25_2 C40_2 1_555 1_555
C42_2 C23_2 1_555 1_555
C43_2 C36_2 1_555 1_555
H27_2 C43_2 1_555 1_555
C45_2 C37_2 1_555 1_555
H29_2 C45_2 1_555 1_555
Cd5_2 N3_2 1_555 1_555
N4_2 C34_2 1_555 1_555
C35_2 C42_2 1_555 1_555
C40_2 C45_2 1_555 1_555
C42_2 C43_2 1_555 1_555
N2_2 C15_2 1_555 1_555
C15_2 C16_2 1_555 1_555
C16_2 N5 1_555 1_555
C18_2 N5 1_555 1_555
H8_2 C18_2 1_555 1_555
C20_2 N2_2 1_555 1_555
C21_2 H10_2 1_555 1_555
C22_2 C16_2 1_555 1_555
H11_2 C22_2 1_555 1_555
C24_2 C15_2 1_555 1_555
H12_2 C24_2 1_555 1_555
C25_2 C24_2 1_555 1_555
H13_2 C25_2 1_555 1_555
C27_2 C20_2 1_555 1_555
C28_2 C21_2 1_555 1_555
H15_2 C28_2 1_555 1_555
C30_2 C22_2 1_555 1_555
H17_2 C30_2 1_555 1_555
C38_2 C27_2 1_555 1_555
C41_2 C38_2 1_555 1_555
H26_2 C41_2 1_555 1_555
C44_2 C21_2 1_555 1_555
H28_2 C44_2 1_555 1_555
N2_2 C18_2 1_555 1_555
C25_2 C30_2 1_555 1_555
C27_2 C28_2 1_555 1_555
C41_2 C44_2 1_555 1_555
Cd1_2 O1_2 1_555 1_555
Cd2 O3_2 1_555 1_555
O1_2 C8_2 1_555 1_555
O2_2 C8_2 1_555 1_555
O3_2 C14_2 1_555 1_555
O8_2 C14_2 1_555 1_555
O9_2 Cd2 1_555 1_555
N1_2 Cd1_2 1_555 1_555
N2_3 C15_3 1_555 1_555
C1_2 H1_2 1_555 1_555
C2_2 C3_2 1_555 1_555
C3_2 H2_2 1_555 1_555
C4_2 C3_2 1_555 1_555
C6_2 C1_2 1_555 1_555
H4_2 C6_2 1_555 1_555
C8_2 C2_2 1_555 1_555
C10_2 C6_2 1_555 1_555
H5_2 C10_2 1_555 1_555
C12_2 C2_2 1_555 1_555
H6_2 C12_2 1_555 1_555
C14_2 C4_2 1_555 1_555
C15_3 C16_3 1_555 1_555
C16_3 N1_2 1_555 1_555
C17_2 C12_2 1_555 1_555
H7_2 C17_2 1_555 1_555
C18_3 N1_2 1_555 1_555
H8_3 C18_3 1_555 1_555
C19_2 C4_2 1_555 1_555
H9_2 C19_2 1_555 1_555
C20_3 N2_3 1_555 1_555
C21_3 H10_3 1_555 1_555
C22_3 C16_3 1_555 1_555
H11_3 C22_3 1_555 1_555
C23_3 C20_3 1_555 1_555
C24_3 C15_3 1_555 1_555
H12_3 C24_3 1_555 1_555
C25_3 C24_3 1_555 1_555
H13_3 C25_3 1_555 1_555
C26_3 C23_3 1_555 1_555
H14_3 C26_3 1_555 1_555
C27_3 C20_3 1_555 1_555
C28_3 C21_3 1_555 1_555
H15_3 C28_3 1_555 1_555
C29_3 C26_3 1_555 1_555
H16_3 C29_3 1_555 1_555
C30_3 C22_3 1_555 1_555
H17_3 C30_3 1_555 1_555
C31_2 O9_2 1_555 1_555
H18_2 C31_2 1_555 1_555
H19_2 C31_2 1_555 1_555
H20_2 C31_2 1_555 1_555
Cd3_2 O2_2 1_555 1_555
O10_2 Cd3_2 1_555 1_555
O11_2 Cd1_2 1_555 1_555
O13_2 Cd2 1_555 1_555
O14 C54_2 1_555 1_555
O15_2 C58_2 1_555 1_555
O16_2 Cd3_2 1_555 1_555
O17_2 C59_2 1_555 1_555
C46_2 H30_2 1_555 1_555
C47_2 C48_2 1_555 1_555
C48_2 H31_2 1_555 1_555
C49_2 C48_2 1_555 1_555
C50_2 H32_2 1_555 1_555
C51_2 C46_2 1_555 1_555
H33_2 C51_2 1_555 1_555
C52_2 C50_2 1_555 1_555
C53_2 O10_2 1_555 1_555
C54_2 O13_2 1_555 1_555
C55_2 C51_2 1_555 1_555
H34_2 C55_2 1_555 1_555
C56_2 C46_2 1_555 1_555
C58_2 O16_2 1_555 1_555
C59_2 O12_2 1_555 1_555
Cd5 O12_2 1_555 1_555
Cd5_2 O3_2 1_555 1_555
Cd9 O14 1_555 1_555
Cd10_2 O15_2 1_555 1_555
O19_2 Cd3_2 1_555 1_555
O20_2 Cd1_2 1_555 1_555
O21 Cd2 1_555 1_555
O26_2 Cd2 1_555 1_555
O27_2 Cd3_2 1_555 1_555
O28_2 Cd1_2 1_555 1_555
N5_2 Cd3_2 1_555 1_555
O8_2 Cd5_2 1_555 1_555
N2_3 C18_3 1_555 1_555
C17_2 C19_2 1_555 1_555
C25_3 C30_3 1_555 1_555
C27_3 C28_3 1_555 1_555
O11_2 C53_2 1_555 1_555
O16_2 Cd10_2 1_555 1_555
O17_2 Cd5 1_555 1_555
C47_2 C53_2 1_555 1_555
C49_2 C59_2 1_555 1_555
C50_2 C56_2 1_555 1_555
C52_2 C55_2 1_555 1_555
C52_2 C58_2 1_555 1_555
C54_2 C56_2 1_555 1_555
Cd5_2 O26_2 1_555 1_555
Cd10_2 O19_2 1_555 1_555
O4_2 C9_2 1_555 1_555
O21 C9_2 1_555 1_555
O6_2 C13_2 1_555 1_555
C5_2 H3_2 1_555 1_555
C7_2 C5_2 1_555 1_555
C9_2 C11_2 1_555 1_555
C13_2 O7_2 1_555 1_555
N3_3 C33_3 1_555 1_555
N4_3 C32_3 1_555 1_555
C32_3 C33_3 1_555 1_555
C33_3 C37_3 1_555 1_555
C34_3 N3_3 1_555 1_555
H21_3 C34_3 1_555 1_555
C35_3 N4_3 1_555 1_555
H22_3 C36_3 1_555 1_555
C37_3 H23_3 1_555 1_555
C39_3 C32_3 1_555 1_555
H24_3 C39_3 1_555 1_555
C40_3 C39_3 1_555 1_555
H25_3 C40_3 1_555 1_555
C41_3 C38_3 1_555 1_555
H26_3 C41_3 1_555 1_555
C43_3 C36_3 1_555 1_555
H27_3 C43_3 1_555 1_555
H28_3 C44_3 1_555 1_555
C45_3 C37_3 1_555 1_555
H29_3 C45_3 1_555 1_555
Cd9 O4_2 1_555 1_555
O18_2 Cd9 1_555 1_555
H35_2 C57_2 1_555 1_555
C60_2 C57_2 1_555 1_555
H36_2 C60_2 1_555 1_555
H37_2 C61_2 1_555 1_555
C62_2 O18_2 1_555 1_555
H38_2 C62_2 1_555 1_555
H39_2 C62_2 1_555 1_555
H40_2 C62_2 1_555 1_555
Cd6 N3_3 1_555 1_555
Cd11_2 O6_2 1_555 1_555
O25_2 Cd9 1_555 1_555
O7_2 Cd11_2 1_555 1_555
C5_2 C11_2 1_555 1_555
C7_2 C13_2 1_555 1_555
N4_3 C34_3 1_555 1_555
C35_3 C38_3 1_555 1_555
C35_3 C42_3 1_555 1_555
C40_3 C45_3 1_555 1_555
C41_3 C44_3 1_555 1_555
C42_3 C43_3 1_555 1_555
C60_2 C61_2 1_555 1_555
C21_4 H10_4 1_555 1_555
C28_4 C21_4 1_555 1_555
N3_4 C33_4 1_555 1_555
N4_4 C32_4 1_555 1_555
C32_4 C33_4 1_555 1_555
C33_4 C37_4 1_555 1_555
C34_4 N3_4 1_555 1_555
H21_4 C34_4 1_555 1_555
C35_4 N4_4 1_555 1_555
C37_4 H23_4 1_555 1_555
C38_4 C27_4 1_555 1_555
C39_4 C32_4 1_555 1_555
H24_4 C39_4 1_555 1_555
C40_4 C39_4 1_555 1_555
H25_4 C40_4 1_555 1_555
C41_4 C38_4 1_555 1_555
H26_4 C41_4 1_555 1_555
C44_4 C21_4 1_555 1_555
H28_4 C44_4 1_555 1_555
C45_4 C37_4 1_555 1_555
H29_4 C45_4 1_555 1_555
Cd7 N3_4 1_555 1_555
C27_4 C28_4 1_555 1_555
N4_4 C34_4 1_555 1_555
C35_4 C38_4 1_555 1_555
C40_4 C45_4 1_555 1_555
C41_4 C44_4 1_555 1_555
N2_4 C15_4 1_555 1_555
C15_4 C16_4 1_555 1_555
C16_4 N5_2 1_555 1_555
C18_4 N5_2 1_555 1_555
H8_4 C18_4 1_555 1_555
C20_4 N2_4 1_555 1_555
C22_4 C16_4 1_555 1_555
H11_4 C22_4 1_555 1_555
C23_4 C20_4 1_555 1_555
C24_4 C15_4 1_555 1_555
H12_4 C24_4 1_555 1_555
C25_4 C24_4 1_555 1_555
H13_4 C25_4 1_555 1_555
C26_4 C23_4 1_555 1_555
H14_4 C26_4 1_555 1_555
C29_4 C26_4 1_555 1_555
H16_4 C29_4 1_555 1_555
C30_4 C22_4 1_555 1_555
H17_4 C30_4 1_555 1_555
C36_4 C29_4 1_555 1_555
H22_4 C36_4 1_555 1_555
C42_4 C23_4 1_555 1_555
C43_4 C36_4 1_555 1_555
N2_4 C18_4 1_555 1_555
C25_4 C30_4 1_555 1_555
C42_4 C43_4 1_555 1_555
O2_3 C8_3 1_555 1_555
Cd5_2 O2_3 1_555 1_555
O11_3 Cd5 1_555 1_555
O11_3 C53_3 1_555 1_555
O19_2 C14_3 1_555 1_555
O27_2 C14_3 1_555 1_555
O9_3 Cd10_2 1_555 1_555
C1_3 H1_3 1_555 1_555
C2_3 C3_3 1_555 1_555
C3_3 H2_3 1_555 1_555
C4_3 C3_3 1_555 1_555
C6_3 C1_3 1_555 1_555
H4_3 C6_3 1_555 1_555
C10_3 C6_3 1_555 1_555
H5_3 C10_3 1_555 1_555
C12_3 C2_3 1_555 1_555
C14_3 C4_3 1_555 1_555
C17_3 C12_3 1_555 1_555
H7_3 C17_3 1_555 1_555
C19_3 C4_3 1_555 1_555
H9_3 C19_3 1_555 1_555
C31_3 O9_3 1_555 1_555
H18_3 C31_3 1_555 1_555
H19_3 C31_3 1_555 1_555
H20_3 C31_3 1_555 1_555
O13_3 Cd10_2 1_555 1_555
O14_2 C54_3 1_555 1_555
O24_2 C58_3 1_555 1_555
O28_2 C59_3 1_555 1_555
C46_3 H30_3 1_555 1_555
C47_3 C48_3 1_555 1_555
C48_3 H31_3 1_555 1_555
C49_3 C48_3 1_555 1_555
C50_3 H32_3 1_555 1_555
C51_3 C46_3 1_555 1_555
H33_3 C51_3 1_555 1_555
C52_3 C50_3 1_555 1_555
C54_3 O13_3 1_555 1_555
C55_3 C51_3 1_555 1_555
H34_3 C55_3 1_555 1_555
C56_3 C46_3 1_555 1_555
C59_3 O20_2 1_555 1_555
Cd11_2 O14_2 1_555 1_555
O21_2 Cd10_2 1_555 1_555
C17_3 C19_3 1_555 1_555
C49_3 C59_3 1_555 1_555
C50_3 C56_3 1_555 1_555
C52_3 C55_3 1_555 1_555
C52_3 C58_3 1_555 1_555
C54_3 C56_3 1_555 1_555
O4_3 C9_3 1_555 1_555
O21_2 C9_3 1_555 1_555
O23_2 C13_3 1_555 1_555
C5_3 H3_3 1_555 1_555
C7_3 C5_3 1_555 1_555
C9_3 C11_3 1_555 1_555
Cd11_2 O4_3 1_555 1_555
O18_3 Cd11_2 1_555 1_555
C60_3 C57_3 1_555 1_555
H36_3 C60_3 1_555 1_555
H37_3 C61_3 1_555 1_555
C62_3 O18_3 1_555 1_555
H38_3 C62_3 1_555 1_555
H39_3 C62_3 1_555 1_555
H40_3 C62_3 1_555 1_555
C5_3 C11_3 1_555 1_555
C7_3 C13_3 1_555 1_555
C60_3 C61_3 1_555 1_555
O4_4 C9_4 1_555 1_555
O5_2 C9_4 1_555 1_555
O23 C13_4 1_555 1_555
C5_4 H3_4 1_555 1_555
C7_4 C5_4 1_555 1_555
C9_4 C11_4 1_555 1_555
C13_4 O25 1_555 1_555
Cd11 O4_4 1_555 1_555
O18_4 Cd11 1_555 1_555
H35_4 C57_4 1_555 1_555
C60_4 C57_4 1_555 1_555
H36_4 C60_4 1_555 1_555
H37_4 C61_4 1_555 1_555
C62_4 O18_4 1_555 1_555
H38_4 C62_4 1_555 1_555
H39_4 C62_4 1_555 1_555
H40_4 C62_4 1_555 1_555
Cd10 O5_2 1_555 1_555
O22_2 Cd11 1_555 1_555
C5_4 C11_4 1_555 1_555
C7_4 C13_4 1_555 1_555
C60_4 C61_4 1_555 1_555
Cd6 O1_4 1_555 1_555
O1_4 C8_4 1_555 1_555
O2_4 C8_4 1_555 1_555
O19 C14_4 1_555 1_555
O27 C14_4 1_555 1_555
O9_4 Cd10 1_555 1_555
C1_4 H1_4 1_555 1_555
C2_4 C3_4 1_555 1_555
C3_4 H2_4 1_555 1_555
C4_4 C3_4 1_555 1_555
C6_4 C1_4 1_555 1_555
H4_4 C6_4 1_555 1_555
C8_4 C2_4 1_555 1_555
C10_4 C6_4 1_555 1_555
H5_4 C10_4 1_555 1_555
C12_4 C2_4 1_555 1_555
H6_4 C12_4 1_555 1_555
C14_4 C4_4 1_555 1_555
C17_4 C12_4 1_555 1_555
H7_4 C17_4 1_555 1_555
C19_4 C4_4 1_555 1_555
H9_4 C19_4 1_555 1_555
C31_4 O9_4 1_555 1_555
H18_4 C31_4 1_555 1_555
H19_4 C31_4 1_555 1_555
H20_4 C31_4 1_555 1_555
Cd7 O2_4 1_555 1_555
O10_4 Cd7 1_555 1_555
O11_4 Cd6 1_555 1_555
O13_4 Cd10 1_555 1_555
O22_2 C54_4 1_555 1_555
O24 C58_4 1_555 1_555
O28 C59_4 1_555 1_555
C46_4 H30_4 1_555 1_555
C47_4 C48_4 1_555 1_555
C48_4 H31_4 1_555 1_555
C49_4 C48_4 1_555 1_555
C50_4 H32_4 1_555 1_555
C51_4 C46_4 1_555 1_555
H33_4 C51_4 1_555 1_555
C52_4 C50_4 1_555 1_555
C53_4 O10_4 1_555 1_555
C54_4 O13_4 1_555 1_555
C55_4 C51_4 1_555 1_555
H34_4 C55_4 1_555 1_555
C56_4 C46_4 1_555 1_555
C58_4 O26 1_555 1_555
C59_4 O20 1_555 1_555
C17_4 C19_4 1_555 1_555
O11_4 C53_4 1_555 1_555
C47_4 C53_4 1_555 1_555
C49_4 C59_4 1_555 1_555
C50_4 C56_4 1_555 1_555
C52_4 C55_4 1_555 1_555
C52_4 C58_4 1_555 1_555
C54_4 C56_4 1_555 1_555

#END
