
###############################################################################
#
# This file contains modified crystal structure data generated from the
# MOF subset of the Cambridge Structural Database (CSD) v543 
# hosted by the Cambridge Crystallographic Data Centre (CCDC).
#
# This work is licensed under the Creative Commons
# Attribution-NonCommercial-ShareAlike 4.0 International License.
# To view a copy of this license, visit
# http://creativecommons.org/licenses/by-nc-sa/4.0/
# or send a letter to
# Creative Commons, PO Box 1866, Mountain View, CA 94042, USA.
#
# CIF created using the CSD Python API on 29 September 2022
# The structure has been converted into the P1 space group
# The structure has a 3D framework
# The original CSD entry DAZPED is in the tetragonal crystal system
# The framework has been calculated to contain at least 10.0% void space
# The void calculation uses a probe of radius 1.32A, grid spacing 0.4
#
###############################################################################

data_DAZPED
_chemical_formula_moiety         '(C352 H256 Br64 N32 O128 Zn32)n'
_symmetry_cell_setting           triclinic
_symmetry_space_group_name_H-M   'P 1'
_symmetry_Int_Tables_number      1
_space_group_name_Hall           'P 1'
loop_
_symmetry_equiv_pos_site_id
_symmetry_equiv_pos_as_xyz
1 x,y,z
_cell_length_a                   21.75770(10)
_cell_length_b                   21.75770(10)
_cell_length_c                   38.63110(10)
_cell_angle_alpha                90
_cell_angle_beta                 90
_cell_angle_gamma                90
_cell_volume                     18287.9
loop_
_atom_site_label
_atom_site_type_symbol
_atom_site_fract_x
_atom_site_fract_y
_atom_site_fract_z
C3 C 0.02310(13) 0.51286(16) 0.65311(8)
H1 H 0.047995 0.522410 0.671928
C4 C 0.04990(12) 0.49103(14) 0.62294(7)
C5 C 0.01099(14) 0.47623(15) 0.59552(7)
C8 C 0.11885(12) 0.48677(12) 0.62257(7)
O3 O 0.14339(9) 0.47362(10) 0.65119(5)
O4 O 0.14595(9) 0.49792(10) 0.59482(5)
Br2 Br 0.03996(2) 0.44226(3) 0.55344(2)
C17 C 0.02310(13) 0.48714(16) 0.84689(8)
H15 H 0.047995 0.477590 0.828072
C18 C 0.04990(12) 0.50897(14) 0.87706(7)
C19 C 0.01099(14) 0.52377(15) 0.90448(7)
C22 C 0.11885(12) 0.51323(12) 0.87743(7)
O7 O 0.14339(9) 0.52638(10) 0.84881(5)
O8 O 0.14595(9) 0.50208(10) 0.90518(5)
Br4 Br 0.03996(2) 0.55774(3) 0.94656(2)
Zn5 Zn 0.23303(2) 0.51248(2) 0.83623(2)
Zn6 Zn 0.23752(2) 0.48303(2) 0.58623(2)
Zn7 Zn 0.23303(2) 0.48752(2) 0.66377(2)
Zn8 Zn 0.23752(2) 0.51697(2) 0.91377(2)
C1 C 0.92128(12) 0.50669(14) 0.62844(7)
C2 C 0.96004(14) 0.52076(16) 0.65588(8)
C6 C 0.94803(13) 0.48458(16) 0.59827(8)
H2 H 0.923098 0.475139 0.579452
C7 C 0.85222(12) 0.51244(13) 0.62890(7)
C9 C 0.66745(14) 0.5019(2) 0.73016(7)
H3 H 0.646955 0.466139 0.720639
H4 H 0.644924 0.538177 0.722877
C10 C 0.76213(18) 0.55851(15) 0.73293(8)
H5 H 0.740340 0.595909 0.726919
H6 H 0.803694 0.561728 0.724037
C11 C 0.76406(18) 0.44838(15) 0.72767(8)
H7 H 0.806455 0.450461 0.719991
H8 H 0.745111 0.412796 0.716948
N1 N 0.73097(10) 0.50504(11) 0.71679(6)
O1 O 0.82522(9) 0.49808(11) 0.65621(5)
O2 O 0.82781(9) 0.52921(10) 0.60082(5)
Zn1 Zn 0.73303(2) 0.51248(2) 0.66377(2)
Br1 Br 0.93167(2) 0.55434(3) 0.69829(2)
C12 C 0.66745(14) 0.4981(2) 0.76984(7)
H9 H 0.646955 0.533861 0.779361
H10 H 0.644924 0.461823 0.777123
C13 C 0.76213(18) 0.44149(15) 0.76707(8)
H11 H 0.740340 0.404091 0.773081
H12 H 0.803694 0.438272 0.775963
C14 C 0.76406(18) 0.55162(15) 0.77233(8)
H13 H 0.806455 0.549539 0.780009
H14 H 0.745111 0.587204 0.783052
N2 N 0.73097(10) 0.49496(11) 0.78321(6)
C15 C 0.92128(12) 0.49331(14) 0.87156(7)
C16 C 0.96004(14) 0.47924(16) 0.84412(8)
C20 C 0.94803(13) 0.51542(16) 0.90173(8)
H16 H 0.923098 0.524861 0.920548
C21 C 0.85222(12) 0.48756(13) 0.87110(7)
O5 O 0.82522(9) 0.50192(11) 0.84379(5)
O6 O 0.82781(9) 0.47079(10) 0.89918(5)
Zn2 Zn 0.73303(2) 0.48752(2) 0.83623(2)
Br3 Br 0.93167(2) 0.44566(3) 0.80171(2)
O9 O 0.72079(10) 0.57781(9) 0.85082(5)
O10 O 0.72079(10) 0.42219(9) 0.64918(5)
O11 O 0.64339(9) 0.47362(10) 0.84881(5)
O12 O 0.64339(9) 0.52638(10) 0.65119(5)
O13 O 0.74792(10) 0.60405(9) 0.65518(5)
O14 O 0.74792(10) 0.39595(9) 0.84482(5)
Zn3 Zn 0.73752(2) 0.48303(2) 0.91377(2)
Zn4 Zn 0.73752(2) 0.51697(2) 0.58623(2)
C1_2 C 0.57872(12) 0.49331(14) 0.12844(7)
C2_2 C 0.53996(14) 0.47924(16) 0.15588(8)
C3_2 C 0.47690(13) 0.48714(16) 0.15311(8)
H1_2 H 0.452005 0.477590 0.171928
C4_2 C 0.45010(12) 0.50897(14) 0.12294(7)
C5_2 C 0.48901(14) 0.52377(15) 0.09552(7)
C6_2 C 0.55197(13) 0.51542(16) 0.09827(8)
H2_2 H 0.576902 0.524861 0.079452
C7_2 C 0.64778(12) 0.48756(13) 0.12890(7)
C8_2 C 0.38115(12) 0.51323(12) 0.12257(7)
C9_2 C 0.83255(14) 0.4981(2) 0.23016(7)
H3_2 H 0.853045 0.533861 0.220639
H4_2 H 0.855076 0.461823 0.222877
C10_2 C 0.73787(18) 0.44149(15) 0.23293(8)
H5_2 H 0.759660 0.404091 0.226919
H6_2 H 0.696306 0.438272 0.224037
C11_2 C 0.73594(18) 0.55162(15) 0.22767(8)
H7_2 H 0.693545 0.549539 0.219991
H8_2 H 0.754889 0.587204 0.216948
N1_2 N 0.76903(10) 0.49496(11) 0.21679(6)
O1_2 O 0.67478(9) 0.50192(11) 0.15621(5)
O2_2 O 0.67219(9) 0.47079(10) 0.10082(5)
O3_2 O 0.35661(9) 0.52638(10) 0.15119(5)
O4_2 O 0.35405(9) 0.50208(10) 0.09482(5)
Zn1_2 Zn 0.76697(2) 0.48752(2) 0.16377(2)
Br1_2 Br 0.56833(2) 0.44566(3) 0.19829(2)
Br2_2 Br 0.46004(2) 0.55774(3) 0.05344(2)
C12_2 C 0.83255(14) 0.5019(2) 0.26984(7)
H9_2 H 0.853045 0.466139 0.279361
H10_2 H 0.855076 0.538177 0.277123
C13_2 C 0.73787(18) 0.55851(15) 0.26707(8)
H11_2 H 0.759660 0.595909 0.273081
H12_2 H 0.696306 0.561728 0.275963
C14_2 C 0.73594(18) 0.44838(15) 0.27233(8)
H13_2 H 0.693545 0.450461 0.280009
H14_2 H 0.754889 0.412796 0.283052
N2_2 N 0.76903(10) 0.50504(11) 0.28321(6)
C15_2 C 0.57872(12) 0.50669(14) 0.37156(7)
C16_2 C 0.53996(14) 0.52076(16) 0.34412(8)
C17_2 C 0.47690(13) 0.51286(16) 0.34689(8)
H15_2 H 0.452005 0.522410 0.328072
C18_2 C 0.45010(12) 0.49103(14) 0.37706(7)
C19_2 C 0.48901(14) 0.47623(15) 0.40448(7)
C20_2 C 0.55197(13) 0.48458(16) 0.40173(8)
H16_2 H 0.576902 0.475139 0.420548
C21_2 C 0.64778(12) 0.51244(13) 0.37110(7)
C22_2 C 0.38115(12) 0.48677(12) 0.37743(7)
O5_2 O 0.67478(9) 0.49808(11) 0.34379(5)
O6_2 O 0.67219(9) 0.52921(10) 0.39918(5)
O7_2 O 0.35661(9) 0.47362(10) 0.34881(5)
O8_2 O 0.35405(9) 0.49792(10) 0.40518(5)
Zn2_2 Zn 0.76697(2) 0.51248(2) 0.33623(2)
Br3_2 Br 0.56833(2) 0.55434(3) 0.30171(2)
Br4_2 Br 0.46004(2) 0.44226(3) 0.44656(2)
O9_2 O 0.77921(10) 0.42219(9) 0.35082(5)
O10_2 O 0.77921(10) 0.57781(9) 0.14918(5)
O11_2 O 0.85661(9) 0.52638(10) 0.34881(5)
O12_2 O 0.85661(9) 0.47362(10) 0.15119(5)
O13_2 O 0.75208(10) 0.39595(9) 0.15518(5)
O14_2 O 0.75208(10) 0.60405(9) 0.34482(5)
Zn3_2 Zn 0.76248(2) 0.51697(2) 0.41377(2)
Zn4_2 Zn 0.76248(2) 0.48303(2) 0.08623(2)
Zn5_2 Zn 0.26697(2) 0.48752(2) 0.33623(2)
Zn6_2 Zn 0.26248(2) 0.51697(2) 0.08623(2)
Zn7_2 Zn 0.26697(2) 0.51248(2) 0.16377(2)
Zn8_2 Zn 0.26248(2) 0.48303(2) 0.41377(2)
C12_3 C 0.7519(2) 0.41745(14) 0.01984(7)
H9_3 H 0.716139 0.396955 0.029361
H10_3 H 0.788177 0.394924 0.027123
C13_3 C 0.80851(15) 0.51213(18) 0.01707(8)
H11_3 H 0.845909 0.490340 0.023081
H12_3 H 0.811728 0.553694 0.025963
C14_3 C 0.69838(15) 0.51406(18) 0.02233(8)
H13_3 H 0.700461 0.556455 0.030009
H14_3 H 0.662796 0.495111 0.033052
N2_3 N 0.75504(11) 0.48097(10) 0.03321(6)
C15_3 C 0.75669(14) 0.67128(12) 0.12156(7)
C16_3 C 0.77076(16) 0.71004(14) 0.09412(8)
C17_3 C 0.76286(16) 0.77310(13) 0.09689(8)
H15_3 H 0.772410 0.797995 0.078072
C18_3 C 0.74103(14) 0.79990(12) 0.12706(7)
C19_3 C 0.72623(15) 0.76099(14) 0.15448(7)
C20_3 C 0.73458(16) 0.69803(13) 0.15173(8)
H16_3 H 0.725139 0.673098 0.170548
C21_3 C 0.76244(13) 0.60222(12) 0.12110(7)
C22_3 C 0.73677(12) 0.86885(12) 0.12743(7)
O5_3 O 0.74808(11) 0.57522(9) 0.09379(5)
O7_3 O 0.72362(10) 0.89339(9) 0.09881(5)
O8_3 O 0.74792(10) 0.89595(9) 0.15518(5)
Br3_3 Br 0.80434(3) 0.68167(2) 0.05171(2)
Br4_3 Br 0.69226(3) 0.78996(2) 0.19656(2)
O11_3 O 0.77638(10) 0.39339(9) 0.09881(5)
O14_3 O 0.85405(9) 0.49792(10) 0.09482(5)
Zn5_3 Zn 0.73752(2) 0.98303(2) 0.08623(2)
Zn8_3 Zn 0.73303(2) 0.98752(2) 0.16377(2)
C1_3 C 0.74331(14) 0.67128(12) 0.87844(7)
C2_3 C 0.72924(16) 0.71004(14) 0.90588(8)
C3_3 C 0.73714(16) 0.77310(13) 0.90311(8)
H1_3 H 0.727590 0.797995 0.921928
C4_3 C 0.75897(14) 0.79990(12) 0.87294(7)
C5_3 C 0.77377(15) 0.76099(14) 0.84552(7)
C6_3 C 0.76542(16) 0.69803(13) 0.84827(8)
H2_3 H 0.774861 0.673098 0.829452
C7_3 C 0.73756(13) 0.60222(12) 0.87890(7)
C8_3 C 0.76323(12) 0.86885(12) 0.87257(7)
C9_3 C 0.7481(2) 0.41745(14) 0.98016(7)
H3_3 H 0.783861 0.396955 0.970639
H4_3 H 0.711823 0.394924 0.972877
C10_3 C 0.69149(15) 0.51213(18) 0.98293(8)
H5_3 H 0.654091 0.490340 0.976919
H6_3 H 0.688272 0.553694 0.974037
C11_3 C 0.80162(15) 0.51406(18) 0.97767(8)
H7_3 H 0.799539 0.556455 0.969991
H8_3 H 0.837204 0.495111 0.966948
N1_3 N 0.74496(11) 0.48097(10) 0.96679(6)
O1_3 O 0.75192(11) 0.57522(9) 0.90621(5)
O3_3 O 0.77638(10) 0.89339(9) 0.90119(5)
O4_3 O 0.75208(10) 0.89595(9) 0.84482(5)
Br1_3 Br 0.69566(3) 0.68167(2) 0.94829(2)
Br2_3 Br 0.80774(3) 0.78996(2) 0.80344(2)
O12_3 O 0.72362(10) 0.39339(9) 0.90119(5)
O13_3 O 0.64595(9) 0.49792(10) 0.90518(5)
Zn6_3 Zn 0.76697(2) 0.98752(2) 0.83623(2)
Zn7_3 Zn 0.76248(2) 0.98303(2) 0.91377(2)
C1_4 C 0.75669(14) 0.32872(12) 0.37844(7)
C2_4 C 0.77076(16) 0.28996(14) 0.40588(8)
C3_4 C 0.76286(16) 0.22690(13) 0.40311(8)
H1_4 H 0.772410 0.202005 0.421928
C4_4 C 0.74103(14) 0.20010(12) 0.37294(7)
C5_4 C 0.72623(15) 0.23901(14) 0.34552(7)
C6_4 C 0.73458(16) 0.30197(13) 0.34827(8)
H2_4 H 0.725139 0.326902 0.329452
C7_4 C 0.76244(13) 0.39778(12) 0.37890(7)
C8_4 C 0.73677(12) 0.13115(12) 0.37257(7)
C9_4 C 0.7519(2) 0.58255(14) 0.48016(7)
H3_4 H 0.716139 0.603045 0.470639
H4_4 H 0.788177 0.605076 0.472877
C10_4 C 0.80851(15) 0.48787(18) 0.48293(8)
H5_4 H 0.845909 0.509660 0.476919
H6_4 H 0.811728 0.446306 0.474037
C11_4 C 0.69838(15) 0.48594(18) 0.47767(8)
H7_4 H 0.700461 0.443545 0.469991
H8_4 H 0.662796 0.504889 0.466948
N1_4 N 0.75504(11) 0.51903(10) 0.46679(6)
O1_4 O 0.74808(11) 0.42478(9) 0.40621(5)
O3_4 O 0.72362(10) 0.10661(9) 0.40119(5)
O4_4 O 0.74792(10) 0.10405(9) 0.34482(5)
Br1_4 Br 0.80434(3) 0.31833(2) 0.44829(2)
Br2_4 Br 0.69226(3) 0.21004(2) 0.30344(2)
C12_4 C 0.7481(2) 0.58255(14) 0.51984(7)
H9_4 H 0.783861 0.603045 0.529361
H10_4 H 0.711823 0.605076 0.527123
C13_4 C 0.69149(15) 0.48787(18) 0.51707(8)
H11_4 H 0.654091 0.509660 0.523081
H12_4 H 0.688272 0.446306 0.525963
C14_4 C 0.80162(15) 0.48594(18) 0.52233(8)
H13_4 H 0.799539 0.443545 0.530009
H14_4 H 0.837204 0.504889 0.533052
N2_4 N 0.74496(11) 0.51903(10) 0.53321(6)
C15_4 C 0.74331(14) 0.32872(12) 0.62156(7)
C16_4 C 0.72924(16) 0.28996(14) 0.59412(8)
C17_4 C 0.73714(16) 0.22690(13) 0.59689(8)
H15_4 H 0.727590 0.202005 0.578072
C18_4 C 0.75897(14) 0.20010(12) 0.62706(7)
C19_4 C 0.77377(15) 0.23901(14) 0.65448(7)
C20_4 C 0.76542(16) 0.30197(13) 0.65173(8)
H16_4 H 0.774861 0.326902 0.670548
C21_4 C 0.73756(13) 0.39778(12) 0.62110(7)
C22_4 C 0.76323(12) 0.13115(12) 0.62743(7)
O5_4 O 0.75192(11) 0.42478(9) 0.59379(5)
O7_4 O 0.77638(10) 0.10661(9) 0.59881(5)
O8_4 O 0.75208(10) 0.10405(9) 0.65518(5)
Br3_4 Br 0.69566(3) 0.31833(2) 0.55171(2)
Br4_4 Br 0.80774(3) 0.21004(2) 0.69656(2)
O11_4 O 0.72362(10) 0.60661(9) 0.59881(5)
O12_4 O 0.77638(10) 0.60661(9) 0.40119(5)
O13_4 O 0.85405(9) 0.50208(10) 0.40518(5)
O14_4 O 0.64595(9) 0.50208(10) 0.59482(5)
Zn5_4 Zn 0.76248(2) 0.01697(2) 0.58623(2)
Zn6_4 Zn 0.73303(2) 0.01248(2) 0.33623(2)
Zn7_4 Zn 0.73752(2) 0.01697(2) 0.41377(2)
Zn8_4 Zn 0.76697(2) 0.01248(2) 0.66377(2)
C1_5 C 0.42128(12) 0.00669(14) 0.12844(7)
C2_5 C 0.46004(14) 0.02076(16) 0.15588(8)
C3_5 C 0.52310(13) 0.01286(16) 0.15311(8)
H1_5 H 0.547995 0.022410 0.171928
C7_5 C 0.35222(12) 0.01244(13) 0.12890(7)
C9_5 C 0.16745(14) 0.0019(2) 0.23016(7)
H4_5 H 0.144924 0.038177 0.222877
C10_5 C 0.26213(18) 0.05851(15) 0.23293(8)
H5_5 H 0.240340 0.095909 0.226919
H6_5 H 0.303694 0.061728 0.224037
N1_5 N 0.23097(10) 0.00504(11) 0.21679(6)
O2_3 O 0.32781(9) 0.02921(10) 0.10082(5)
Zn1_3 Zn 0.23303(2) 0.01248(2) 0.16377(2)
Br1_5 Br 0.43167(2) 0.05434(3) 0.19829(2)
H9_5 H 0.146955 0.033861 0.279361
C14_5 C 0.26406(18) 0.05162(15) 0.27233(8)
H13_5 H 0.306455 0.049539 0.280009
H14_5 H 0.245111 0.087204 0.283052
C18_5 C 0.54990(12) 0.00897(14) 0.37706(7)
C19_5 C 0.51099(14) 0.02377(15) 0.40448(7)
C20_5 C 0.44803(13) 0.01542(16) 0.40173(8)
H16_5 H 0.423098 0.024861 0.420548
C22_5 C 0.61885(12) 0.01323(12) 0.37743(7)
O5_5 O 0.32522(9) 0.00192(11) 0.34379(5)
O7_5 O 0.64339(9) 0.02638(10) 0.34881(5)
O8_5 O 0.64595(9) 0.00208(10) 0.40518(5)
Br4_5 Br 0.53996(2) 0.05774(3) 0.44656(2)
O9_3 O 0.22079(10) 0.07781(9) 0.35082(5)
O12_5 O 0.14339(9) 0.02638(10) 0.15119(5)
O13_5 O 0.24792(10) 0.10405(9) 0.15518(5)
Zn4_3 Zn 0.23752(2) 0.01697(2) 0.08623(2)
C4_5 C 0.54990(12) 0.99103(14) 0.12294(7)
C5_5 C 0.51099(14) 0.97623(15) 0.09552(7)
C6_5 C 0.44803(13) 0.98458(16) 0.09827(8)
H2_5 H 0.423098 0.975139 0.079452
C8_5 C 0.61885(12) 0.98677(12) 0.12257(7)
H3_5 H 0.146955 0.966139 0.220639
C11_5 C 0.26406(18) 0.94838(15) 0.22767(8)
H7_5 H 0.306455 0.950461 0.219991
H8_5 H 0.245111 0.912796 0.216948
O1_5 O 0.32522(9) 0.99808(11) 0.15621(5)
O3_5 O 0.64339(9) 0.97362(10) 0.15119(5)
O4_5 O 0.64595(9) 0.99792(10) 0.09482(5)
Br2_5 Br 0.53996(2) 0.94226(3) 0.05344(2)
C12_5 C 0.16745(14) 0.9981(2) 0.26984(7)
H10_5 H 0.144924 0.961823 0.277123
C13_5 C 0.26213(18) 0.94149(15) 0.26707(8)
H11_5 H 0.240340 0.904091 0.273081
H12_5 H 0.303694 0.938272 0.275963
N2_5 N 0.23097(10) 0.99496(11) 0.28321(6)
C15_5 C 0.42128(12) 0.99331(14) 0.37156(7)
C16_5 C 0.46004(14) 0.97924(16) 0.34412(8)
C17_5 C 0.52310(13) 0.98714(16) 0.34689(8)
H15_5 H 0.547995 0.977590 0.328072
C21_5 C 0.35222(12) 0.98756(13) 0.37110(7)
O6_3 O 0.32781(9) 0.97079(10) 0.39918(5)
Zn2_3 Zn 0.23303(2) 0.98752(2) 0.33623(2)
Br3_5 Br 0.43167(2) 0.94566(3) 0.30171(2)
O10_3 O 0.22079(10) 0.92219(9) 0.14918(5)
O11_5 O 0.14339(9) 0.97362(10) 0.34881(5)
O14_5 O 0.24792(10) 0.89595(9) 0.34482(5)
Zn3_3 Zn 0.23752(2) 0.98303(2) 0.41377(2)
C6_6 C 0.05197(13) 0.01542(16) 0.59827(8)
H2_6 H 0.076902 0.024861 0.579452
H3_6 H 0.353045 0.033861 0.720639
C11_6 C 0.23594(18) 0.05162(15) 0.72767(8)
H7_6 H 0.193545 0.049539 0.719991
H8_6 H 0.254889 0.087204 0.716948
O1_6 O 0.17478(9) 0.00192(11) 0.65621(5)
C12_6 C 0.33255(14) 0.0019(2) 0.76984(7)
H10_6 H 0.355076 0.038177 0.777123
C13_6 C 0.23787(18) 0.05851(15) 0.76707(8)
H11_6 H 0.259660 0.095909 0.773081
H12_6 H 0.196306 0.061728 0.775963
N2_6 N 0.26903(10) 0.00504(11) 0.78321(6)
C15_6 C 0.07872(12) 0.00669(14) 0.87156(7)
C16_6 C 0.03996(14) 0.02076(16) 0.84412(8)
C21_6 C 0.14778(12) 0.01244(13) 0.87110(7)
O6_4 O 0.17219(9) 0.02921(10) 0.89918(5)
Zn2_4 Zn 0.26697(2) 0.01248(2) 0.83623(2)
Br3_6 Br 0.06833(2) 0.05434(3) 0.80171(2)
O10_4 O 0.27921(10) 0.07781(9) 0.64918(5)
O11_6 O 0.35661(9) 0.02638(10) 0.84881(5)
O14_6 O 0.25208(10) 0.10405(9) 0.84482(5)
Zn3_4 Zn 0.26248(2) 0.01697(2) 0.91377(2)
C1_6 C 0.07872(12) 0.99331(14) 0.62844(7)
C2_6 C 0.03996(14) 0.97924(16) 0.65588(8)
C7_6 C 0.14778(12) 0.98756(13) 0.62890(7)
C9_6 C 0.33255(14) 0.9981(2) 0.73016(7)
H4_6 H 0.355076 0.961823 0.722877
C10_6 C 0.23787(18) 0.94149(15) 0.73293(8)
H5_6 H 0.259660 0.904091 0.726919
H6_6 H 0.196306 0.938272 0.724037
N1_6 N 0.26903(10) 0.99496(11) 0.71679(6)
O2_4 O 0.17219(9) 0.97079(10) 0.60082(5)
Zn1_4 Zn 0.26697(2) 0.98752(2) 0.66377(2)
Br1_6 Br 0.06833(2) 0.94566(3) 0.69829(2)
H9_6 H 0.353045 0.966139 0.779361
C14_6 C 0.23594(18) 0.94838(15) 0.77233(8)
H13_6 H 0.193545 0.950461 0.780009
H14_6 H 0.254889 0.912796 0.783052
C20_6 C 0.05197(13) 0.98458(16) 0.90173(8)
H16_6 H 0.076902 0.975139 0.920548
O5_6 O 0.17478(9) 0.99808(11) 0.84379(5)
O9_4 O 0.27921(10) 0.92219(9) 0.85082(5)
O12_6 O 0.35661(9) 0.97362(10) 0.65119(5)
O13_6 O 0.25208(10) 0.89595(9) 0.65518(5)
Zn4_4 Zn 0.26248(2) 0.98303(2) 0.58623(2)
C4_6 C 0.95010(12) 0.00897(14) 0.62294(7)
C5_6 C 0.98901(14) 0.02377(15) 0.59552(7)
C8_6 C 0.88115(12) 0.01323(12) 0.62257(7)
O3_6 O 0.85661(9) 0.02638(10) 0.65119(5)
O4_6 O 0.85405(9) 0.00208(10) 0.59482(5)
Br2_6 Br 0.96004(2) 0.05774(3) 0.55344(2)
C17_6 C 0.97690(13) 0.01286(16) 0.84689(8)
H15_6 H 0.952005 0.022410 0.828072
C3_6 C 0.97690(13) 0.98714(16) 0.65311(8)
H1_6 H 0.952005 0.977590 0.671928
C18_6 C 0.95010(12) 0.99103(14) 0.87706(7)
C19_6 C 0.98901(14) 0.97623(15) 0.90448(7)
C22_6 C 0.88115(12) 0.98677(12) 0.87743(7)
O7_6 O 0.85661(9) 0.97362(10) 0.84881(5)
O8_6 O 0.85405(9) 0.99792(10) 0.90518(5)
Br4_6 Br 0.96004(2) 0.94226(3) 0.94656(2)
C1_7 C 0.24331(14) 0.17128(12) 0.37844(7)
C2_7 C 0.22924(16) 0.21004(14) 0.40588(8)
C3_7 C 0.23714(16) 0.27310(13) 0.40311(8)
H1_7 H 0.227590 0.297995 0.421928
C4_7 C 0.25897(14) 0.29990(12) 0.37294(7)
C5_7 C 0.27377(15) 0.26099(14) 0.34552(7)
C6_7 C 0.26542(16) 0.19803(13) 0.34827(8)
H2_7 H 0.274861 0.173098 0.329452
C7_7 C 0.23756(13) 0.10222(12) 0.37890(7)
C8_7 C 0.26323(12) 0.36885(12) 0.37257(7)
C10_7 C 0.19149(15) 0.01213(18) 0.48293(8)
H6_7 H 0.188272 0.053694 0.474037
C11_7 C 0.30162(15) 0.01406(18) 0.47767(8)
H7_7 H 0.299539 0.056455 0.469991
O1_7 O 0.25192(11) 0.07522(9) 0.40621(5)
O3_7 O 0.27638(10) 0.39339(9) 0.40119(5)
O4_7 O 0.25208(10) 0.39595(9) 0.34482(5)
Br1_7 Br 0.19566(3) 0.18167(2) 0.44829(2)
Br2_7 Br 0.30774(3) 0.28996(2) 0.30344(2)
C13_7 C 0.30851(15) 0.01213(18) 0.51707(8)
H12_7 H 0.311728 0.053694 0.525963
C14_7 C 0.19838(15) 0.01406(18) 0.52233(8)
H13_7 H 0.200461 0.056455 0.530009
C15_7 C 0.25669(14) 0.17128(12) 0.62156(7)
C16_7 C 0.27076(16) 0.21004(14) 0.59412(8)
C17_7 C 0.26286(16) 0.27310(13) 0.59689(8)
H15_7 H 0.272410 0.297995 0.578072
C18_7 C 0.24103(14) 0.29990(12) 0.62706(7)
C19_7 C 0.22623(15) 0.26099(14) 0.65448(7)
C20_7 C 0.23458(16) 0.19803(13) 0.65173(8)
H16_7 H 0.225139 0.173098 0.670548
C21_7 C 0.26244(13) 0.10222(12) 0.62110(7)
C22_7 C 0.23677(12) 0.36885(12) 0.62743(7)
O5_7 O 0.24808(11) 0.07522(9) 0.59379(5)
O7_7 O 0.22362(10) 0.39339(9) 0.59881(5)
O8_7 O 0.24792(10) 0.39595(9) 0.65518(5)
Br3_7 Br 0.30434(3) 0.18167(2) 0.55171(2)
Br4_7 Br 0.19226(3) 0.28996(2) 0.69656(2)
C9_7 C 0.2481(2) 0.91745(14) 0.48016(7)
H3_7 H 0.283861 0.896955 0.470639
H4_7 H 0.211823 0.894924 0.472877
H5_7 H 0.154091 0.990340 0.476919
H8_7 H 0.337204 0.995111 0.466948
N1_7 N 0.24496(11) 0.98097(10) 0.46679(6)
C12_7 C 0.2519(2) 0.91745(14) 0.51984(7)
H9_7 H 0.216139 0.896955 0.529361
H10_7 H 0.288177 0.894924 0.527123
H11_7 H 0.345909 0.990340 0.523081
H14_7 H 0.162796 0.995111 0.533052
N2_7 N 0.25504(11) 0.98097(10) 0.53321(6)
O11_7 O 0.27638(10) 0.89339(9) 0.59881(5)
O12_7 O 0.22362(10) 0.89339(9) 0.40119(5)
O13_7 O 0.14595(9) 0.99792(10) 0.40518(5)
O14_7 O 0.35405(9) 0.99792(10) 0.59482(5)
C12_8 C 0.2481(2) 0.08255(14) 0.01984(7)
H9_8 H 0.283861 0.103045 0.029361
H10_8 H 0.211823 0.105076 0.027123
H11_8 H 0.154091 0.009660 0.023081
H14_8 H 0.337204 0.004889 0.033052
N2_8 N 0.24496(11) 0.01903(10) 0.03321(6)
O11_8 O 0.22362(10) 0.10661(9) 0.09881(5)
O14_8 O 0.14595(9) 0.00208(10) 0.09482(5)
C9_8 C 0.2519(2) 0.08255(14) 0.98016(7)
H3_8 H 0.216139 0.103045 0.970639
H4_8 H 0.288177 0.105076 0.972877
H5_8 H 0.345909 0.009660 0.976919
H8_8 H 0.162796 0.004889 0.966948
N1_8 N 0.25504(11) 0.01903(10) 0.96679(6)
O12_8 O 0.27638(10) 0.10661(9) 0.90119(5)
O13_8 O 0.35405(9) 0.00208(10) 0.90518(5)
C13_8 C 0.19149(15) 0.98787(18) 0.01707(8)
H12_8 H 0.188272 0.946306 0.025963
C14_8 C 0.30162(15) 0.98594(18) 0.02233(8)
H13_8 H 0.299539 0.943545 0.030009
C15_8 C 0.24331(14) 0.82872(12) 0.12156(7)
C16_8 C 0.22924(16) 0.78996(14) 0.09412(8)
C17_8 C 0.23714(16) 0.72690(13) 0.09689(8)
H15_8 H 0.227590 0.702005 0.078072
C18_8 C 0.25897(14) 0.70010(12) 0.12706(7)
C19_8 C 0.27377(15) 0.73901(14) 0.15448(7)
C20_8 C 0.26542(16) 0.80197(13) 0.15173(8)
H16_8 H 0.274861 0.826902 0.170548
C21_8 C 0.23756(13) 0.89778(12) 0.12110(7)
C22_8 C 0.26323(12) 0.63115(12) 0.12743(7)
O5_8 O 0.25192(11) 0.92478(9) 0.09379(5)
O7_8 O 0.27638(10) 0.60661(9) 0.09881(5)
O8_8 O 0.25208(10) 0.60405(9) 0.15518(5)
Br3_8 Br 0.19566(3) 0.81833(2) 0.05171(2)
Br4_8 Br 0.30774(3) 0.71004(2) 0.19656(2)
C1_8 C 0.25669(14) 0.82872(12) 0.87844(7)
C2_8 C 0.27076(16) 0.78996(14) 0.90588(8)
C3_8 C 0.26286(16) 0.72690(13) 0.90311(8)
H1_8 H 0.272410 0.702005 0.921928
C4_8 C 0.24103(14) 0.70010(12) 0.87294(7)
C5_8 C 0.22623(15) 0.73901(14) 0.84552(7)
C6_8 C 0.23458(16) 0.80197(13) 0.84827(8)
H2_8 H 0.225139 0.826902 0.829452
C7_8 C 0.26244(13) 0.89778(12) 0.87890(7)
C8_8 C 0.23677(12) 0.63115(12) 0.87257(7)
C10_8 C 0.30851(15) 0.98787(18) 0.98293(8)
H6_8 H 0.311728 0.946306 0.974037
C11_8 C 0.19838(15) 0.98594(18) 0.97767(8)
H7_8 H 0.200461 0.943545 0.969991
O1_8 O 0.24808(11) 0.92478(9) 0.90621(5)
O3_8 O 0.22362(10) 0.60661(9) 0.90119(5)
O4_8 O 0.24792(10) 0.60405(9) 0.84482(5)
Br1_8 Br 0.30434(3) 0.81833(2) 0.94829(2)
Br2_8 Br 0.19226(3) 0.71004(2) 0.80344(2)
C1_9 C 0.07872(12) 0.49331(14) 0.37156(7)
C2_9 C 0.03996(14) 0.47924(16) 0.34412(8)
C6_9 C 0.05197(13) 0.51542(16) 0.40173(8)
H2_9 H 0.076902 0.524861 0.420548
C7_9 C 0.14778(12) 0.48756(13) 0.37110(7)
C9_9 C 0.33255(14) 0.4981(2) 0.26984(7)
H3_9 H 0.353045 0.533861 0.279361
H4_9 H 0.355076 0.461823 0.277123
C10_9 C 0.23787(18) 0.44149(15) 0.26707(8)
H5_9 H 0.259660 0.404091 0.273081
H6_9 H 0.196306 0.438272 0.275963
C11_9 C 0.23594(18) 0.55162(15) 0.27233(8)
H7_9 H 0.193545 0.549539 0.280009
H8_9 H 0.254889 0.587204 0.283052
N1_9 N 0.26903(10) 0.49496(11) 0.28321(6)
O1_9 O 0.17478(9) 0.50192(11) 0.34379(5)
O2_5 O 0.17219(9) 0.47079(10) 0.39918(5)
Br1_9 Br 0.06833(2) 0.44566(3) 0.30171(2)
C12_9 C 0.33255(14) 0.5019(2) 0.23016(7)
H9_9 H 0.353045 0.466139 0.220639
H10_9 H 0.355076 0.538177 0.222877
C13_9 C 0.23787(18) 0.55851(15) 0.23293(8)
H11_9 H 0.259660 0.595909 0.226919
H12_9 H 0.196306 0.561728 0.224037
C14_9 C 0.23594(18) 0.44838(15) 0.22767(8)
H13_9 H 0.193545 0.450461 0.219991
H14_9 H 0.254889 0.412796 0.216948
N2_9 N 0.26903(10) 0.50504(11) 0.21679(6)
C15_9 C 0.07872(12) 0.50669(14) 0.12844(7)
C16_9 C 0.03996(14) 0.52076(16) 0.15588(8)
C20_9 C 0.05197(13) 0.48458(16) 0.09827(8)
H16_9 H 0.076902 0.475139 0.079452
C21_9 C 0.14778(12) 0.51244(13) 0.12890(7)
O5_9 O 0.17478(9) 0.49808(11) 0.15621(5)
O6_5 O 0.17219(9) 0.52921(10) 0.10082(5)
Br3_9 Br 0.06833(2) 0.55434(3) 0.19829(2)
O9_5 O 0.27921(10) 0.42219(9) 0.14918(5)
O10_5 O 0.27921(10) 0.57781(9) 0.35082(5)
C3_9 C 0.97690(13) 0.48714(16) 0.34689(8)
H1_9 H 0.952005 0.477590 0.328072
C4_9 C 0.95010(12) 0.50897(14) 0.37706(7)
C5_9 C 0.98901(14) 0.52377(15) 0.40448(7)
C8_9 C 0.88115(12) 0.51323(12) 0.37743(7)
Br2_9 Br 0.96004(2) 0.55774(3) 0.44656(2)
C17_9 C 0.97690(13) 0.51286(16) 0.15311(8)
H15_9 H 0.952005 0.522410 0.171928
C18_9 C 0.95010(12) 0.49103(14) 0.12294(7)
C19_9 C 0.98901(14) 0.47623(15) 0.09552(7)
C22_9 C 0.88115(12) 0.48677(12) 0.12257(7)
Br4_9 Br 0.96004(2) 0.44226(3) 0.05344(2)
C1_10 C 0.42128(12) 0.50669(14) 0.87156(7)
C2_10 C 0.46004(14) 0.52076(16) 0.84412(8)
C3_10 C 0.52310(13) 0.51286(16) 0.84689(8)
H1_10 H 0.547995 0.522410 0.828072
C4_10 C 0.54990(12) 0.49103(14) 0.87706(7)
C5_10 C 0.51099(14) 0.47623(15) 0.90448(7)
C6_10 C 0.44803(13) 0.48458(16) 0.90173(8)
H2_10 H 0.423098 0.475139 0.920548
C7_10 C 0.35222(12) 0.51244(13) 0.87110(7)
C8_10 C 0.61885(12) 0.48677(12) 0.87743(7)
C9_10 C 0.16745(14) 0.5019(2) 0.76984(7)
H3_10 H 0.146955 0.466139 0.779361
H4_10 H 0.144924 0.538177 0.777123
C10_10 C 0.26213(18) 0.55851(15) 0.76707(8)
H5_10 H 0.240340 0.595909 0.773081
H6_10 H 0.303694 0.561728 0.775963
C11_10 C 0.26406(18) 0.44838(15) 0.77233(8)
H7_10 H 0.306455 0.450461 0.780009
H8_10 H 0.245111 0.412796 0.783052
N1_10 N 0.23097(10) 0.50504(11) 0.78321(6)
O1_10 O 0.32522(9) 0.49808(11) 0.84379(5)
O2_6 O 0.32781(9) 0.52921(10) 0.89918(5)
Br1_10 Br 0.43167(2) 0.55434(3) 0.80171(2)
Br2_10 Br 0.53996(2) 0.44226(3) 0.94656(2)
C12_10 C 0.16745(14) 0.4981(2) 0.73016(7)
H9_10 H 0.146955 0.533861 0.720639
H10_10 H 0.144924 0.461823 0.722877
C13_10 C 0.26213(18) 0.44149(15) 0.73293(8)
H11_10 H 0.240340 0.404091 0.726919
H12_10 H 0.303694 0.438272 0.724037
C14_10 C 0.26406(18) 0.55162(15) 0.72767(8)
H13_10 H 0.306455 0.549539 0.719991
H14_10 H 0.245111 0.587204 0.716948
N2_10 N 0.23097(10) 0.49496(11) 0.71679(6)
C15_10 C 0.42128(12) 0.49331(14) 0.62844(7)
C16_10 C 0.46004(14) 0.47924(16) 0.65588(8)
C17_10 C 0.52310(13) 0.48714(16) 0.65311(8)
H15_10 H 0.547995 0.477590 0.671928
C18_10 C 0.54990(12) 0.50897(14) 0.62294(7)
C19_10 C 0.51099(14) 0.52377(15) 0.59552(7)
C20_10 C 0.44803(13) 0.51542(16) 0.59827(8)
H16_10 H 0.423098 0.524861 0.579452
C21_10 C 0.35222(12) 0.48756(13) 0.62890(7)
C22_10 C 0.61885(12) 0.51323(12) 0.62257(7)
O5_10 O 0.32522(9) 0.50192(11) 0.65621(5)
O6_6 O 0.32781(9) 0.47079(10) 0.60082(5)
Br3_10 Br 0.43167(2) 0.44566(3) 0.69829(2)
Br4_10 Br 0.53996(2) 0.55774(3) 0.55344(2)
O9_6 O 0.22079(10) 0.57781(9) 0.64918(5)
O10_6 O 0.22079(10) 0.42219(9) 0.85082(5)
C1_11 C 0.25669(14) 0.32872(12) 0.12156(7)
C2_11 C 0.27076(16) 0.28996(14) 0.09412(8)
C3_11 C 0.26286(16) 0.22690(13) 0.09689(8)
H1_11 H 0.272410 0.202005 0.078072
C4_11 C 0.24103(14) 0.20010(12) 0.12706(7)
C5_11 C 0.22623(15) 0.23901(14) 0.15448(7)
C6_11 C 0.23458(16) 0.30197(13) 0.15173(8)
H2_11 H 0.225139 0.326902 0.170548
C7_11 C 0.26244(13) 0.39778(12) 0.12110(7)
C8_11 C 0.23677(12) 0.13115(12) 0.12743(7)
C9_11 C 0.2519(2) 0.58255(14) 0.01984(7)
H3_11 H 0.216139 0.603045 0.029361
H4_11 H 0.288177 0.605076 0.027123
C10_11 C 0.30851(15) 0.48787(18) 0.01707(8)
H5_11 H 0.345909 0.509660 0.023081
H6_11 H 0.311728 0.446306 0.025963
C11_11 C 0.19838(15) 0.48594(18) 0.02233(8)
H7_11 H 0.200461 0.443545 0.030009
H8_11 H 0.162796 0.504889 0.033052
N1_11 N 0.25504(11) 0.51903(10) 0.03321(6)
O1_11 O 0.24808(11) 0.42478(9) 0.09379(5)
Br1_11 Br 0.30434(3) 0.31833(2) 0.05171(2)
Br2_11 Br 0.19226(3) 0.21004(2) 0.19656(2)
C12_11 C 0.2481(2) 0.58255(14) 0.98016(7)
H9_11 H 0.283861 0.603045 0.970639
H10_11 H 0.211823 0.605076 0.972877
C13_11 C 0.19149(15) 0.48787(18) 0.98293(8)
H11_11 H 0.154091 0.509660 0.976919
H12_11 H 0.188272 0.446306 0.974037
C14_11 C 0.30162(15) 0.48594(18) 0.97767(8)
H13_11 H 0.299539 0.443545 0.969991
H14_11 H 0.337204 0.504889 0.966948
N2_11 N 0.24496(11) 0.51903(10) 0.96679(6)
C15_11 C 0.24331(14) 0.32872(12) 0.87844(7)
C16_11 C 0.22924(16) 0.28996(14) 0.90588(8)
C17_11 C 0.23714(16) 0.22690(13) 0.90311(8)
H15_11 H 0.227590 0.202005 0.921928
C18_11 C 0.25897(14) 0.20010(12) 0.87294(7)
C19_11 C 0.27377(15) 0.23901(14) 0.84552(7)
C20_11 C 0.26542(16) 0.30197(13) 0.84827(8)
H16_11 H 0.274861 0.326902 0.829452
C21_11 C 0.23756(13) 0.39778(12) 0.87890(7)
C22_11 C 0.26323(12) 0.13115(12) 0.87257(7)
O5_11 O 0.25192(11) 0.42478(9) 0.90621(5)
Br3_11 Br 0.19566(3) 0.31833(2) 0.94829(2)
Br4_11 Br 0.30774(3) 0.21004(2) 0.80344(2)
C1_12 C 0.24331(14) 0.67128(12) 0.62156(7)
C2_12 C 0.22924(16) 0.71004(14) 0.59412(8)
C3_12 C 0.23714(16) 0.77310(13) 0.59689(8)
H1_12 H 0.227590 0.797995 0.578072
C4_12 C 0.25897(14) 0.79990(12) 0.62706(7)
C5_12 C 0.27377(15) 0.76099(14) 0.65448(7)
C6_12 C 0.26542(16) 0.69803(13) 0.65173(8)
H2_12 H 0.274861 0.673098 0.670548
C7_12 C 0.23756(13) 0.60222(12) 0.62110(7)
C8_12 C 0.26323(12) 0.86885(12) 0.62743(7)
C9_12 C 0.2481(2) 0.41745(14) 0.51984(7)
H3_12 H 0.283861 0.396955 0.529361
H4_12 H 0.211823 0.394924 0.527123
C10_12 C 0.19149(15) 0.51213(18) 0.51707(8)
H5_12 H 0.154091 0.490340 0.523081
H6_12 H 0.188272 0.553694 0.525963
C11_12 C 0.30162(15) 0.51406(18) 0.52233(8)
H7_12 H 0.299539 0.556455 0.530009
H8_12 H 0.337204 0.495111 0.533052
N1_12 N 0.24496(11) 0.48097(10) 0.53321(6)
O1_12 O 0.25192(11) 0.57522(9) 0.59379(5)
Br1_12 Br 0.19566(3) 0.68167(2) 0.55171(2)
Br2_12 Br 0.30774(3) 0.78996(2) 0.69656(2)
C12_12 C 0.2519(2) 0.41745(14) 0.48016(7)
H9_12 H 0.216139 0.396955 0.470639
H10_12 H 0.288177 0.394924 0.472877
C13_12 C 0.30851(15) 0.51213(18) 0.48293(8)
H11_12 H 0.345909 0.490340 0.476919
H12_12 H 0.311728 0.553694 0.474037
C14_12 C 0.19838(15) 0.51406(18) 0.47767(8)
H13_12 H 0.200461 0.556455 0.469991
H14_12 H 0.162796 0.495111 0.466948
N2_12 N 0.25504(11) 0.48097(10) 0.46679(6)
C15_12 C 0.25669(14) 0.67128(12) 0.37844(7)
C16_12 C 0.27076(16) 0.71004(14) 0.40588(8)
C17_12 C 0.26286(16) 0.77310(13) 0.40311(8)
H15_12 H 0.272410 0.797995 0.421928
C18_12 C 0.24103(14) 0.79990(12) 0.37294(7)
C19_12 C 0.22623(15) 0.76099(14) 0.34552(7)
C20_12 C 0.23458(16) 0.69803(13) 0.34827(8)
H16_12 H 0.225139 0.673098 0.329452
C21_12 C 0.26244(13) 0.60222(12) 0.37890(7)
C22_12 C 0.23677(12) 0.86885(12) 0.37257(7)
O5_12 O 0.24808(11) 0.57522(9) 0.40621(5)
Br3_12 Br 0.30434(3) 0.68167(2) 0.44829(2)
Br4_12 Br 0.19226(3) 0.78996(2) 0.30344(2)
C4_13 C 0.45010(12) 0.00897(14) 0.87706(7)
C5_13 C 0.48901(14) 0.02377(15) 0.90448(7)
C6_13 C 0.55197(13) 0.01542(16) 0.90173(8)
H2_13 H 0.576902 0.024861 0.920548
C8_13 C 0.38115(12) 0.01323(12) 0.87743(7)
H3_13 H 0.853045 0.033861 0.779361
C11_13 C 0.73594(18) 0.05162(15) 0.77233(8)
H7_13 H 0.693545 0.049539 0.780009
H8_13 H 0.754889 0.087204 0.783052
O1_13 O 0.67478(9) 0.00192(11) 0.84379(5)
Br2_13 Br 0.46004(2) 0.05774(3) 0.94656(2)
C12_13 C 0.83255(14) 0.0019(2) 0.73016(7)
H10_13 H 0.855076 0.038177 0.722877
C13_13 C 0.73787(18) 0.05851(15) 0.73293(8)
H11_13 H 0.759660 0.095909 0.726919
H12_13 H 0.696306 0.061728 0.724037
N2_13 N 0.76903(10) 0.00504(11) 0.71679(6)
C15_13 C 0.57872(12) 0.00669(14) 0.62844(7)
C16_13 C 0.53996(14) 0.02076(16) 0.65588(8)
C17_13 C 0.47690(13) 0.01286(16) 0.65311(8)
H15_13 H 0.452005 0.022410 0.671928
C21_13 C 0.64778(12) 0.01244(13) 0.62890(7)
O6_7 O 0.67219(9) 0.02921(10) 0.60082(5)
Br3_13 Br 0.56833(2) 0.05434(3) 0.69829(2)
O10_7 O 0.77921(10) 0.07781(9) 0.85082(5)
C1_13 C 0.57872(12) 0.99331(14) 0.87156(7)
C2_13 C 0.53996(14) 0.97924(16) 0.84412(8)
C3_13 C 0.47690(13) 0.98714(16) 0.84689(8)
H1_13 H 0.452005 0.977590 0.828072
C7_13 C 0.64778(12) 0.98756(13) 0.87110(7)
C9_13 C 0.83255(14) 0.9981(2) 0.76984(7)
H4_13 H 0.855076 0.961823 0.777123
C10_13 C 0.73787(18) 0.94149(15) 0.76707(8)
H5_13 H 0.759660 0.904091 0.773081
H6_13 H 0.696306 0.938272 0.775963
N1_13 N 0.76903(10) 0.99496(11) 0.78321(6)
O2_7 O 0.67219(9) 0.97079(10) 0.89918(5)
Br1_13 Br 0.56833(2) 0.94566(3) 0.80171(2)
H9_13 H 0.853045 0.966139 0.720639
C14_13 C 0.73594(18) 0.94838(15) 0.72767(8)
H13_13 H 0.693545 0.950461 0.719991
H14_13 H 0.754889 0.912796 0.716948
C18_13 C 0.45010(12) 0.99103(14) 0.62294(7)
C19_13 C 0.48901(14) 0.97623(15) 0.59552(7)
C20_13 C 0.55197(13) 0.98458(16) 0.59827(8)
H16_13 H 0.576902 0.975139 0.579452
C22_13 C 0.38115(12) 0.98677(12) 0.62257(7)
O5_13 O 0.67478(9) 0.99808(11) 0.65621(5)
Br4_13 Br 0.46004(2) 0.94226(3) 0.55344(2)
O9_7 O 0.77921(10) 0.92219(9) 0.64918(5)
C3_14 C 0.02310(13) 0.01286(16) 0.34689(8)
H1_14 H 0.047995 0.022410 0.328072
C18_14 C 0.04990(12) 0.00897(14) 0.12294(7)
C19_14 C 0.01099(14) 0.02377(15) 0.09552(7)
C22_14 C 0.11885(12) 0.01323(12) 0.12257(7)
Br4_14 Br 0.03996(2) 0.05774(3) 0.05344(2)
C4_14 C 0.04990(12) 0.99103(14) 0.37706(7)
C5_14 C 0.01099(14) 0.97623(15) 0.40448(7)
C8_14 C 0.11885(12) 0.98677(12) 0.37743(7)
Br2_14 Br 0.03996(2) 0.94226(3) 0.44656(2)
C17_14 C 0.02310(13) 0.98714(16) 0.15311(8)
H15_14 H 0.047995 0.977590 0.171928
C1_14 C 0.92128(12) 0.00669(14) 0.37156(7)
C2_14 C 0.96004(14) 0.02076(16) 0.34412(8)
C7_14 C 0.85222(12) 0.01244(13) 0.37110(7)
C9_14 C 0.66745(14) 0.0019(2) 0.26984(7)
H4_14 H 0.644924 0.038177 0.277123
C10_14 C 0.76213(18) 0.05851(15) 0.26707(8)
H5_14 H 0.740340 0.095909 0.273081
H6_14 H 0.803694 0.061728 0.275963
N1_14 N 0.73097(10) 0.00504(11) 0.28321(6)
O2_8 O 0.82781(9) 0.02921(10) 0.39918(5)
Br1_14 Br 0.93167(2) 0.05434(3) 0.30171(2)
H9_14 H 0.646955 0.033861 0.220639
C14_14 C 0.76406(18) 0.05162(15) 0.22767(8)
H13_14 H 0.806455 0.049539 0.219991
H14_14 H 0.745111 0.087204 0.216948
C20_14 C 0.94803(13) 0.01542(16) 0.09827(8)
H16_14 H 0.923098 0.024861 0.079452
O5_14 O 0.82522(9) 0.00192(11) 0.15621(5)
O9_8 O 0.72079(10) 0.07781(9) 0.14918(5)
C6_14 C 0.94803(13) 0.98458(16) 0.40173(8)
H2_14 H 0.923098 0.975139 0.420548
H3_14 H 0.646955 0.966139 0.279361
C11_14 C 0.76406(18) 0.94838(15) 0.27233(8)
H7_14 H 0.806455 0.950461 0.280009
H8_14 H 0.745111 0.912796 0.283052
O1_14 O 0.82522(9) 0.99808(11) 0.34379(5)
C12_14 C 0.66745(14) 0.9981(2) 0.23016(7)
H10_14 H 0.644924 0.961823 0.222877
C13_14 C 0.76213(18) 0.94149(15) 0.23293(8)
H11_14 H 0.740340 0.904091 0.226919
H12_14 H 0.803694 0.938272 0.224037
N2_14 N 0.73097(10) 0.99496(11) 0.21679(6)
C15_14 C 0.92128(12) 0.99331(14) 0.12844(7)
C16_14 C 0.96004(14) 0.97924(16) 0.15588(8)
C21_14 C 0.85222(12) 0.98756(13) 0.12890(7)
O6_8 O 0.82781(9) 0.97079(10) 0.10082(5)
Br3_14 Br 0.93167(2) 0.94566(3) 0.19829(2)
O10_8 O 0.72079(10) 0.92219(9) 0.35082(5)
C9_15 C 0.7519(2) 0.08255(14) 0.51984(7)
H3_15 H 0.716139 0.103045 0.529361
H4_15 H 0.788177 0.105076 0.527123
H5_15 H 0.845909 0.009660 0.523081
H8_15 H 0.662796 0.004889 0.533052
N1_15 N 0.75504(11) 0.01903(10) 0.53321(6)
C12_15 C 0.7481(2) 0.08255(14) 0.48016(7)
H9_15 H 0.783861 0.103045 0.470639
H10_15 H 0.711823 0.105076 0.472877
H11_15 H 0.654091 0.009660 0.476919
H14_15 H 0.837204 0.004889 0.466948
N2_15 N 0.74496(11) 0.01903(10) 0.46679(6)
C1_15 C 0.75669(14) 0.82872(12) 0.62156(7)
C2_15 C 0.77076(16) 0.78996(14) 0.59412(8)
C3_15 C 0.76286(16) 0.72690(13) 0.59689(8)
H1_15 H 0.772410 0.702005 0.578072
C4_15 C 0.74103(14) 0.70010(12) 0.62706(7)
C5_15 C 0.72623(15) 0.73901(14) 0.65448(7)
C6_15 C 0.73458(16) 0.80197(13) 0.65173(8)
H2_15 H 0.725139 0.826902 0.670548
C7_15 C 0.76244(13) 0.89778(12) 0.62110(7)
C8_15 C 0.73677(12) 0.63115(12) 0.62743(7)
C10_15 C 0.80851(15) 0.98787(18) 0.51707(8)
H6_15 H 0.811728 0.946306 0.525963
C11_15 C 0.69838(15) 0.98594(18) 0.52233(8)
H7_15 H 0.700461 0.943545 0.530009
O1_15 O 0.74808(11) 0.92478(9) 0.59379(5)
Br1_15 Br 0.80434(3) 0.81833(2) 0.55171(2)
Br2_15 Br 0.69226(3) 0.71004(2) 0.69656(2)
C13_15 C 0.69149(15) 0.98787(18) 0.48293(8)
H12_15 H 0.688272 0.946306 0.474037
C14_15 C 0.80162(15) 0.98594(18) 0.47767(8)
H13_15 H 0.799539 0.943545 0.469991
C15_15 C 0.74331(14) 0.82872(12) 0.37844(7)
C16_15 C 0.72924(16) 0.78996(14) 0.40588(8)
C17_15 C 0.73714(16) 0.72690(13) 0.40311(8)
H15_15 H 0.727590 0.702005 0.421928
C18_15 C 0.75897(14) 0.70010(12) 0.37294(7)
C19_15 C 0.77377(15) 0.73901(14) 0.34552(7)
C20_15 C 0.76542(16) 0.80197(13) 0.34827(8)
H16_15 H 0.774861 0.826902 0.329452
C21_15 C 0.73756(13) 0.89778(12) 0.37890(7)
C22_15 C 0.76323(12) 0.63115(12) 0.37257(7)
O5_15 O 0.75192(11) 0.92478(9) 0.40621(5)
Br3_15 Br 0.69566(3) 0.81833(2) 0.44829(2)
Br4_15 Br 0.80774(3) 0.71004(2) 0.30344(2)
C1_16 C 0.74331(14) 0.17128(12) 0.12156(7)
C2_16 C 0.72924(16) 0.21004(14) 0.09412(8)
C3_16 C 0.73714(16) 0.27310(13) 0.09689(8)
H1_16 H 0.727590 0.297995 0.078072
C4_16 C 0.75897(14) 0.29990(12) 0.12706(7)
C5_16 C 0.77377(15) 0.26099(14) 0.15448(7)
C6_16 C 0.76542(16) 0.19803(13) 0.15173(8)
H2_16 H 0.774861 0.173098 0.170548
C7_16 C 0.73756(13) 0.10222(12) 0.12110(7)
C8_16 C 0.76323(12) 0.36885(12) 0.12743(7)
C10_16 C 0.69149(15) 0.01213(18) 0.01707(8)
H6_16 H 0.688272 0.053694 0.025963
C11_16 C 0.80162(15) 0.01406(18) 0.02233(8)
H7_16 H 0.799539 0.056455 0.030009
O1_16 O 0.75192(11) 0.07522(9) 0.09379(5)
Br1_16 Br 0.69566(3) 0.18167(2) 0.05171(2)
Br2_16 Br 0.80774(3) 0.28996(2) 0.19656(2)
C13_16 C 0.80851(15) 0.01213(18) 0.98293(8)
H12_16 H 0.811728 0.053694 0.974037
C14_16 C 0.69838(15) 0.01406(18) 0.97767(8)
H13_16 H 0.700461 0.056455 0.969991
C15_16 C 0.75669(14) 0.17128(12) 0.87844(7)
C16_16 C 0.77076(16) 0.21004(14) 0.90588(8)
C17_16 C 0.76286(16) 0.27310(13) 0.90311(8)
H15_16 H 0.772410 0.297995 0.921928
C18_16 C 0.74103(14) 0.29990(12) 0.87294(7)
C19_16 C 0.72623(15) 0.26099(14) 0.84552(7)
C20_16 C 0.73458(16) 0.19803(13) 0.84827(8)
H16_16 H 0.725139 0.173098 0.829452
C21_16 C 0.76244(13) 0.10222(12) 0.87890(7)
C22_16 C 0.73677(12) 0.36885(12) 0.87257(7)
O5_16 O 0.74808(11) 0.07522(9) 0.90621(5)
Br3_16 Br 0.80434(3) 0.18167(2) 0.94829(2)
Br4_16 Br 0.69226(3) 0.28996(2) 0.80344(2)
C9_16 C 0.7481(2) 0.91745(14) 0.01984(7)
H3_16 H 0.783861 0.896955 0.029361
H4_16 H 0.711823 0.894924 0.027123
H5_16 H 0.654091 0.990340 0.023081
H8_16 H 0.837204 0.995111 0.033052
N1_16 N 0.74496(11) 0.98097(10) 0.03321(6)
C12_16 C 0.7519(2) 0.91745(14) 0.98016(7)
H9_16 H 0.716139 0.896955 0.970639
H10_16 H 0.788177 0.894924 0.972877
H11_16 H 0.845909 0.990340 0.976919
H14_16 H 0.662796 0.995111 0.966948
N2_16 N 0.75504(11) 0.98097(10) 0.96679(6)
loop_
_geom_bond_atom_site_label_1
_geom_bond_atom_site_label_2
_geom_bond_site_symmetry_1
_geom_bond_site_symmetry_2
C3 H1 1_555 1_555
C4 C3 1_555 1_555
C5 C4 1_555 1_555
C8 C4 1_555 1_555
O3 C8 1_555 1_555
O4 C8 1_555 1_555
Br2 C5 1_555 1_555
C17 H15 1_555 1_555
C18 C17 1_555 1_555
C19 C18 1_555 1_555
C22 C18 1_555 1_555
O7 C22 1_555 1_555
O8 C22 1_555 1_555
Br4 C19 1_555 1_555
Zn5 O7 1_555 1_555
Zn6 O4 1_555 1_555
Zn7 O3 1_555 1_555
Zn8 O8 1_555 1_555
C1 C2 1_555 1_555
C6 C1 1_555 1_555
H2 C6 1_555 1_555
C7 C1 1_555 1_555
C9 H3 1_555 1_555
H4 C9 1_555 1_555
C10 H5 1_555 1_555
H6 C10 1_555 1_555
C11 H7 1_555 1_555
H8 C11 1_555 1_555
N1 C9 1_555 1_555
O1 C7 1_555 1_555
O2 C7 1_555 1_555
Zn1 N1 1_555 1_555
Br1 C2 1_555 1_555
C12 C9 1_555 1_555
H9 C12 1_555 1_555
H10 C12 1_555 1_555
C13 C11 1_555 1_555
H11 C13 1_555 1_555
H12 C13 1_555 1_555
C14 C10 1_555 1_555
H13 C14 1_555 1_555
H14 C14 1_555 1_555
N2 C12 1_555 1_555
C15 C16 1_555 1_555
C20 C15 1_555 1_555
H16 C20 1_555 1_555
C21 C15 1_555 1_555
O5 C21 1_555 1_555
O6 C21 1_555 1_555
Zn2 N2 1_555 1_555
Br3 C16 1_555 1_555
O9 Zn2 1_555 1_555
O10 Zn1 1_555 1_555
O11 Zn2 1_555 1_555
O12 Zn1 1_555 1_555
O13 Zn1 1_555 1_555
O14 Zn2 1_555 1_555
Zn3 O6 1_555 1_555
Zn4 O2 1_555 1_555
C10 N1 1_555 1_555
C11 N1 1_555 1_555
O1 Zn1 1_555 1_555
C13 N2 1_555 1_555
C14 N2 1_555 1_555
O5 Zn2 1_555 1_555
C1_2 C2_2 1_555 1_555
C2_2 C3_2 1_555 1_555
C3_2 H1_2 1_555 1_555
C4_2 C3_2 1_555 1_555
C5_2 C4_2 1_555 1_555
C6_2 C1_2 1_555 1_555
H2_2 C6_2 1_555 1_555
C7_2 C1_2 1_555 1_555
C8_2 C4_2 1_555 1_555
C9_2 H3_2 1_555 1_555
H4_2 C9_2 1_555 1_555
C10_2 H5_2 1_555 1_555
H6_2 C10_2 1_555 1_555
C11_2 H7_2 1_555 1_555
H8_2 C11_2 1_555 1_555
N1_2 C9_2 1_555 1_555
O1_2 C7_2 1_555 1_555
O2_2 C7_2 1_555 1_555
O3_2 C8_2 1_555 1_555
O4_2 C8_2 1_555 1_555
Zn1_2 N1_2 1_555 1_555
Br1_2 C2_2 1_555 1_555
Br2_2 C5_2 1_555 1_555
C12_2 C9_2 1_555 1_555
H9_2 C12_2 1_555 1_555
H10_2 C12_2 1_555 1_555
C13_2 C11_2 1_555 1_555
H11_2 C13_2 1_555 1_555
H12_2 C13_2 1_555 1_555
C14_2 C10_2 1_555 1_555
H13_2 C14_2 1_555 1_555
H14_2 C14_2 1_555 1_555
N2_2 C12_2 1_555 1_555
C15_2 C16_2 1_555 1_555
C16_2 C17_2 1_555 1_555
C17_2 H15_2 1_555 1_555
C18_2 C17_2 1_555 1_555
C19_2 C18_2 1_555 1_555
C20_2 C15_2 1_555 1_555
H16_2 C20_2 1_555 1_555
C21_2 C15_2 1_555 1_555
C22_2 C18_2 1_555 1_555
O5_2 C21_2 1_555 1_555
O6_2 C21_2 1_555 1_555
O7_2 C22_2 1_555 1_555
O8_2 C22_2 1_555 1_555
Zn2_2 N2_2 1_555 1_555
Br3_2 C16_2 1_555 1_555
Br4_2 C19_2 1_555 1_555
O9_2 Zn2_2 1_555 1_555
O10_2 Zn1_2 1_555 1_555
O11_2 Zn2_2 1_555 1_555
O12_2 Zn1_2 1_555 1_555
O13_2 Zn1_2 1_555 1_555
O14_2 Zn2_2 1_555 1_555
Zn3_2 O6_2 1_555 1_555
Zn4_2 O2_2 1_555 1_555
Zn5_2 O7_2 1_555 1_555
Zn6_2 O4_2 1_555 1_555
Zn7_2 O3_2 1_555 1_555
Zn8_2 O8_2 1_555 1_555
C5_2 C6_2 1_555 1_555
C10_2 N1_2 1_555 1_555
C11_2 N1_2 1_555 1_555
O1_2 Zn1_2 1_555 1_555
C13_2 N2_2 1_555 1_555
C14_2 N2_2 1_555 1_555
C19_2 C20_2 1_555 1_555
O5_2 Zn2_2 1_555 1_555
H9_3 C12_3 1_555 1_555
H10_3 C12_3 1_555 1_555
H11_3 C13_3 1_555 1_555
H12_3 C13_3 1_555 1_555
H13_3 C14_3 1_555 1_555
H14_3 C14_3 1_555 1_555
N2_3 C12_3 1_555 1_555
C15_3 C16_3 1_555 1_555
C16_3 C17_3 1_555 1_555
C17_3 H15_3 1_555 1_555
C18_3 C17_3 1_555 1_555
C19_3 C18_3 1_555 1_555
C20_3 C15_3 1_555 1_555
H16_3 C20_3 1_555 1_555
C21_3 C15_3 1_555 1_555
C22_3 C18_3 1_555 1_555
O5_3 C21_3 1_555 1_555
O10_2 C21_3 1_555 1_555
O7_3 C22_3 1_555 1_555
O8_3 C22_3 1_555 1_555
Zn4_2 N2_3 1_555 1_555
Br3_3 C16_3 1_555 1_555
Br4_3 C19_3 1_555 1_555
O11_3 Zn4_2 1_555 1_555
O14_3 Zn4_2 1_555 1_555
Zn5_3 O7_3 1_555 1_555
Zn8_3 O8_3 1_555 1_555
C13_3 N2_3 1_555 1_555
C14_3 N2_3 1_555 1_555
C19_3 C20_3 1_555 1_555
O5_3 Zn4_2 1_555 1_555
C1_3 C2_3 1_555 1_555
C2_3 C3_3 1_555 1_555
C3_3 H1_3 1_555 1_555
C4_3 C3_3 1_555 1_555
C5_3 C4_3 1_555 1_555
C6_3 C1_3 1_555 1_555
H2_3 C6_3 1_555 1_555
C7_3 C1_3 1_555 1_555
C8_3 C4_3 1_555 1_555
C9_3 H3_3 1_555 1_555
H4_3 C9_3 1_555 1_555
C10_3 H5_3 1_555 1_555
H6_3 C10_3 1_555 1_555
C11_3 H7_3 1_555 1_555
H8_3 C11_3 1_555 1_555
N1_3 C9_3 1_555 1_555
O1_3 C7_3 1_555 1_555
O9 C7_3 1_555 1_555
O3_3 C8_3 1_555 1_555
O4_3 C8_3 1_555 1_555
Zn3 N1_3 1_555 1_555
Br1_3 C2_3 1_555 1_555
Br2_3 C5_3 1_555 1_555
O12_3 Zn3 1_555 1_555
O13_3 Zn3 1_555 1_555
Zn6_3 O4_3 1_555 1_555
Zn7_3 O3_3 1_555 1_555
C5_3 C6_3 1_555 1_555
C10_3 N1_3 1_555 1_555
C11_3 N1_3 1_555 1_555
O1_3 Zn3 1_555 1_555
C1_4 C2_4 1_555 1_555
C2_4 C3_4 1_555 1_555
C3_4 H1_4 1_555 1_555
C4_4 C3_4 1_555 1_555
C5_4 C4_4 1_555 1_555
C6_4 C1_4 1_555 1_555
H2_4 C6_4 1_555 1_555
C7_4 C1_4 1_555 1_555
C8_4 C4_4 1_555 1_555
C9_4 H3_4 1_555 1_555
H4_4 C9_4 1_555 1_555
C10_4 H5_4 1_555 1_555
H6_4 C10_4 1_555 1_555
C11_4 H7_4 1_555 1_555
H8_4 C11_4 1_555 1_555
N1_4 C9_4 1_555 1_555
O1_4 C7_4 1_555 1_555
O9_2 C7_4 1_555 1_555
O3_4 C8_4 1_555 1_555
O4_4 C8_4 1_555 1_555
Zn3_2 N1_4 1_555 1_555
Br1_4 C2_4 1_555 1_555
Br2_4 C5_4 1_555 1_555
C12_4 C9_4 1_555 1_555
H9_4 C12_4 1_555 1_555
H10_4 C12_4 1_555 1_555
C13_4 C11_4 1_555 1_555
H11_4 C13_4 1_555 1_555
H12_4 C13_4 1_555 1_555
C14_4 C10_4 1_555 1_555
H13_4 C14_4 1_555 1_555
H14_4 C14_4 1_555 1_555
N2_4 C12_4 1_555 1_555
C15_4 C16_4 1_555 1_555
C16_4 C17_4 1_555 1_555
C17_4 H15_4 1_555 1_555
C18_4 C17_4 1_555 1_555
C19_4 C18_4 1_555 1_555
C20_4 C15_4 1_555 1_555
H16_4 C20_4 1_555 1_555
C21_4 C15_4 1_555 1_555
C22_4 C18_4 1_555 1_555
O5_4 C21_4 1_555 1_555
O10 C21_4 1_555 1_555
O7_4 C22_4 1_555 1_555
O8_4 C22_4 1_555 1_555
Zn4 N2_4 1_555 1_555
Br3_4 C16_4 1_555 1_555
Br4_4 C19_4 1_555 1_555
O11_4 Zn4 1_555 1_555
O12_4 Zn3_2 1_555 1_555
O13_4 Zn3_2 1_555 1_555
O14_4 Zn4 1_555 1_555
Zn5_4 O7_4 1_555 1_555
Zn6_4 O4_4 1_555 1_555
Zn7_4 O3_4 1_555 1_555
Zn8_4 O8_4 1_555 1_555
C5_4 C6_4 1_555 1_555
C10_4 N1_4 1_555 1_555
C11_4 N1_4 1_555 1_555
O1_4 Zn3_2 1_555 1_555
C13_4 N2_4 1_555 1_555
C14_4 N2_4 1_555 1_555
C19_4 C20_4 1_555 1_555
O5_4 Zn4 1_555 1_555
C1_5 C2_5 1_555 1_555
C2_5 C3_5 1_555 1_555
C3_5 H1_5 1_555 1_555
C7_5 C1_5 1_555 1_555
H4_5 C9_5 1_555 1_555
C10_5 H5_5 1_555 1_555
H6_5 C10_5 1_555 1_555
N1_5 C9_5 1_555 1_555
O2_3 C7_5 1_555 1_555
Zn1_3 N1_5 1_555 1_555
Br1_5 C2_5 1_555 1_555
C14_5 C10_5 1_555 1_555
H13_5 C14_5 1_555 1_555
H14_5 C14_5 1_555 1_555
C19_5 C18_5 1_555 1_555
H16_5 C20_5 1_555 1_555
C22_5 C18_5 1_555 1_555
O7_5 C22_5 1_555 1_555
O8_5 C22_5 1_555 1_555
Br4_5 C19_5 1_555 1_555
O12_5 Zn1_3 1_555 1_555
O13_5 Zn1_3 1_555 1_555
Zn4_3 O2_3 1_555 1_555
Zn6_4 O7_5 1_555 1_555
Zn7_4 O8_5 1_555 1_555
C10_5 N1_5 1_555 1_555
C19_5 C20_5 1_555 1_555
C5_5 C4_5 1_555 1_555
H2_5 C6_5 1_555 1_555
C8_5 C4_5 1_555 1_555
C11_5 H7_5 1_555 1_555
H8_5 C11_5 1_555 1_555
O3_5 C8_5 1_555 1_555
O4_5 C8_5 1_555 1_555
Br2_5 C5_5 1_555 1_555
H10_5 C12_5 1_555 1_555
C13_5 C11_5 1_555 1_555
H11_5 C13_5 1_555 1_555
H12_5 C13_5 1_555 1_555
N2_5 C12_5 1_555 1_555
C15_5 C16_5 1_555 1_555
C16_5 C17_5 1_555 1_555
C17_5 H15_5 1_555 1_555
C21_5 C15_5 1_555 1_555
O6_3 C21_5 1_555 1_555
Zn2_3 N2_5 1_555 1_555
Br3_5 C16_5 1_555 1_555
O11_5 Zn2_3 1_555 1_555
O14_5 Zn2_3 1_555 1_555
Zn3_3 O6_3 1_555 1_555
Zn5_3 O4_5 1_555 1_555
Zn8_3 O3_5 1_555 1_555
C5_5 C6_5 1_555 1_555
C13_5 N2_5 1_555 1_555
H2_6 C6_6 1_555 1_555
C11_6 H7_6 1_555 1_555
H8_6 C11_6 1_555 1_555
H10_6 C12_6 1_555 1_555
C13_6 C11_6 1_555 1_555
H11_6 C13_6 1_555 1_555
H12_6 C13_6 1_555 1_555
N2_6 C12_6 1_555 1_555
C15_6 C16_6 1_555 1_555
C21_6 C15_6 1_555 1_555
O6_4 C21_6 1_555 1_555
Zn2_4 N2_6 1_555 1_555
Br3_6 C16_6 1_555 1_555
O11_6 Zn2_4 1_555 1_555
O14_6 Zn2_4 1_555 1_555
Zn3_4 O6_4 1_555 1_555
C13_6 N2_6 1_555 1_555
C1_6 C2_6 1_555 1_555
C7_6 C1_6 1_555 1_555
H4_6 C9_6 1_555 1_555
C10_6 H5_6 1_555 1_555
H6_6 C10_6 1_555 1_555
N1_6 C9_6 1_555 1_555
O2_4 C7_6 1_555 1_555
Zn1_4 N1_6 1_555 1_555
Br1_6 C2_6 1_555 1_555
C14_6 C10_6 1_555 1_555
H13_6 C14_6 1_555 1_555
H14_6 C14_6 1_555 1_555
H16_6 C20_6 1_555 1_555
O12_6 Zn1_4 1_555 1_555
O13_6 Zn1_4 1_555 1_555
Zn4_4 O2_4 1_555 1_555
C10_6 N1_6 1_555 1_555
C5_6 C4_6 1_555 1_555
C8_6 C4_6 1_555 1_555
O3_6 C8_6 1_555 1_555
O4_6 C8_6 1_555 1_555
Br2_6 C5_6 1_555 1_555
C17_6 H15_6 1_555 1_555
Zn5_4 O4_6 1_555 1_555
Zn8_4 O3_6 1_555 1_555
C3_6 H1_6 1_555 1_555
C19_6 C18_6 1_555 1_555
C22_6 C18_6 1_555 1_555
O7_6 C22_6 1_555 1_555
O8_6 C22_6 1_555 1_555
Br4_6 C19_6 1_555 1_555
Zn6_3 O7_6 1_555 1_555
Zn7_3 O8_6 1_555 1_555
C1_7 C2_7 1_555 1_555
C2_7 C3_7 1_555 1_555
C3_7 H1_7 1_555 1_555
C4_7 C3_7 1_555 1_555
C5_7 C4_7 1_555 1_555
C6_7 C1_7 1_555 1_555
H2_7 C6_7 1_555 1_555
C7_7 C1_7 1_555 1_555
C8_7 C4_7 1_555 1_555
H6_7 C10_7 1_555 1_555
C11_7 H7_7 1_555 1_555
O1_7 C7_7 1_555 1_555
O9_3 C7_7 1_555 1_555
O3_7 C8_7 1_555 1_555
O4_7 C8_7 1_555 1_555
Br1_7 C2_7 1_555 1_555
Br2_7 C5_7 1_555 1_555
C13_7 C11_7 1_555 1_555
H12_7 C13_7 1_555 1_555
C14_7 C10_7 1_555 1_555
H13_7 C14_7 1_555 1_555
C15_7 C16_7 1_555 1_555
C16_7 C17_7 1_555 1_555
C17_7 H15_7 1_555 1_555
C18_7 C17_7 1_555 1_555
C19_7 C18_7 1_555 1_555
C20_7 C15_7 1_555 1_555
H16_7 C20_7 1_555 1_555
C21_7 C15_7 1_555 1_555
C22_7 C18_7 1_555 1_555
O5_7 C21_7 1_555 1_555
O10_4 C21_7 1_555 1_555
O7_7 C22_7 1_555 1_555
O8_7 C22_7 1_555 1_555
Br3_7 C16_7 1_555 1_555
Br4_7 C19_7 1_555 1_555
Zn6 O7_7 1_555 1_555
Zn5_2 O4_7 1_555 1_555
Zn8_2 O3_7 1_555 1_555
Zn7 O8_7 1_555 1_555
C5_7 C6_7 1_555 1_555
C19_7 C20_7 1_555 1_555
C9_7 H3_7 1_555 1_555
H4_7 C9_7 1_555 1_555
N1_7 C9_7 1_555 1_555
Zn3_3 N1_7 1_555 1_555
C12_7 C9_7 1_555 1_555
H9_7 C12_7 1_555 1_555
H10_7 C12_7 1_555 1_555
N2_7 C12_7 1_555 1_555
Zn4_4 N2_7 1_555 1_555
O11_7 Zn4_4 1_555 1_555
O12_7 Zn3_3 1_555 1_555
O13_7 Zn3_3 1_555 1_555
O14_7 Zn4_4 1_555 1_555
H9_8 C12_8 1_555 1_555
H10_8 C12_8 1_555 1_555
N2_8 C12_8 1_555 1_555
Zn4_3 N2_8 1_555 1_555
O11_8 Zn4_3 1_555 1_555
O14_8 Zn4_3 1_555 1_555
C9_8 H3_8 1_555 1_555
H4_8 C9_8 1_555 1_555
N1_8 C9_8 1_555 1_555
Zn3_4 N1_8 1_555 1_555
O12_8 Zn3_4 1_555 1_555
O13_8 Zn3_4 1_555 1_555
H12_8 C13_8 1_555 1_555
H13_8 C14_8 1_555 1_555
C15_8 C16_8 1_555 1_555
C16_8 C17_8 1_555 1_555
C17_8 H15_8 1_555 1_555
C18_8 C17_8 1_555 1_555
C19_8 C18_8 1_555 1_555
C20_8 C15_8 1_555 1_555
H16_8 C20_8 1_555 1_555
C21_8 C15_8 1_555 1_555
C22_8 C18_8 1_555 1_555
O5_8 C21_8 1_555 1_555
O10_3 C21_8 1_555 1_555
O7_8 C22_8 1_555 1_555
O8_8 C22_8 1_555 1_555
Br3_8 C16_8 1_555 1_555
Br4_8 C19_8 1_555 1_555
Zn6_2 O7_8 1_555 1_555
Zn7_2 O8_8 1_555 1_555
C19_8 C20_8 1_555 1_555
C1_8 C2_8 1_555 1_555
C2_8 C3_8 1_555 1_555
C3_8 H1_8 1_555 1_555
C4_8 C3_8 1_555 1_555
C5_8 C4_8 1_555 1_555
C6_8 C1_8 1_555 1_555
H2_8 C6_8 1_555 1_555
C7_8 C1_8 1_555 1_555
C8_8 C4_8 1_555 1_555
H6_8 C10_8 1_555 1_555
C11_8 H7_8 1_555 1_555
O1_8 C7_8 1_555 1_555
O9_4 C7_8 1_555 1_555
O3_8 C8_8 1_555 1_555
O4_8 C8_8 1_555 1_555
Br1_8 C2_8 1_555 1_555
Br2_8 C5_8 1_555 1_555
Zn5 O4_8 1_555 1_555
Zn8 O3_8 1_555 1_555
C5_8 C6_8 1_555 1_555
C1_9 C2_9 1_555 1_555
C6_9 C1_9 1_555 1_555
H2_9 C6_9 1_555 1_555
C7_9 C1_9 1_555 1_555
C9_9 H3_9 1_555 1_555
H4_9 C9_9 1_555 1_555
C10_9 H5_9 1_555 1_555
H6_9 C10_9 1_555 1_555
C11_9 H7_9 1_555 1_555
H8_9 C11_9 1_555 1_555
N1_9 C9_9 1_555 1_555
O1_9 C7_9 1_555 1_555
O2_5 C7_9 1_555 1_555
Zn5_2 N1_9 1_555 1_555
Br1_9 C2_9 1_555 1_555
C12_9 C9_9 1_555 1_555
H9_9 C12_9 1_555 1_555
H10_9 C12_9 1_555 1_555
C13_9 C11_9 1_555 1_555
H11_9 C13_9 1_555 1_555
H12_9 C13_9 1_555 1_555
C14_9 C10_9 1_555 1_555
H13_9 C14_9 1_555 1_555
H14_9 C14_9 1_555 1_555
N2_9 C12_9 1_555 1_555
C15_9 C16_9 1_555 1_555
C20_9 C15_9 1_555 1_555
H16_9 C20_9 1_555 1_555
C21_9 C15_9 1_555 1_555
O5_9 C21_9 1_555 1_555
O6_5 C21_9 1_555 1_555
Zn7_2 N2_9 1_555 1_555
Br3_9 C16_9 1_555 1_555
O9_5 Zn7_2 1_555 1_555
O10_5 Zn5_2 1_555 1_555
Zn6_2 O6_5 1_555 1_555
Zn8_2 O2_5 1_555 1_555
C10_9 N1_9 1_555 1_555
C11_9 N1_9 1_555 1_555
O1_9 Zn5_2 1_555 1_555
C13_9 N2_9 1_555 1_555
C14_9 N2_9 1_555 1_555
O5_9 Zn7_2 1_555 1_555
C3_9 H1_9 1_555 1_555
C4_9 C3_9 1_555 1_555
C5_9 C4_9 1_555 1_555
C8_9 C4_9 1_555 1_555
O11_2 C8_9 1_555 1_555
O13_4 C8_9 1_555 1_555
Br2_9 C5_9 1_555 1_555
C17_9 H15_9 1_555 1_555
C18_9 C17_9 1_555 1_555
C19_9 C18_9 1_555 1_555
C22_9 C18_9 1_555 1_555
O12_2 C22_9 1_555 1_555
O14_3 C22_9 1_555 1_555
Br4_9 C19_9 1_555 1_555
C1_10 C2_10 1_555 1_555
C2_10 C3_10 1_555 1_555
C3_10 H1_10 1_555 1_555
C4_10 C3_10 1_555 1_555
C5_10 C4_10 1_555 1_555
C6_10 C1_10 1_555 1_555
H2_10 C6_10 1_555 1_555
C7_10 C1_10 1_555 1_555
C8_10 C4_10 1_555 1_555
C9_10 H3_10 1_555 1_555
H4_10 C9_10 1_555 1_555
C10_10 H5_10 1_555 1_555
H6_10 C10_10 1_555 1_555
C11_10 H7_10 1_555 1_555
H8_10 C11_10 1_555 1_555
N1_10 C9_10 1_555 1_555
O1_10 C7_10 1_555 1_555
O2_6 C7_10 1_555 1_555
O11 C8_10 1_555 1_555
O13_3 C8_10 1_555 1_555
Zn5 N1_10 1_555 1_555
Br1_10 C2_10 1_555 1_555
Br2_10 C5_10 1_555 1_555
C12_10 C9_10 1_555 1_555
H9_10 C12_10 1_555 1_555
H10_10 C12_10 1_555 1_555
C13_10 C11_10 1_555 1_555
H11_10 C13_10 1_555 1_555
H12_10 C13_10 1_555 1_555
C14_10 C10_10 1_555 1_555
H13_10 C14_10 1_555 1_555
H14_10 C14_10 1_555 1_555
N2_10 C12_10 1_555 1_555
C15_10 C16_10 1_555 1_555
C16_10 C17_10 1_555 1_555
C17_10 H15_10 1_555 1_555
C18_10 C17_10 1_555 1_555
C19_10 C18_10 1_555 1_555
C20_10 C15_10 1_555 1_555
H16_10 C20_10 1_555 1_555
C21_10 C15_10 1_555 1_555
C22_10 C18_10 1_555 1_555
O5_10 C21_10 1_555 1_555
O6_6 C21_10 1_555 1_555
O12 C22_10 1_555 1_555
O14_4 C22_10 1_555 1_555
Zn7 N2_10 1_555 1_555
Br3_10 C16_10 1_555 1_555
Br4_10 C19_10 1_555 1_555
O9_6 Zn7 1_555 1_555
O10_6 Zn5 1_555 1_555
Zn6 O6_6 1_555 1_555
Zn8 O2_6 1_555 1_555
C5_10 C6_10 1_555 1_555
C10_10 N1_10 1_555 1_555
C11_10 N1_10 1_555 1_555
O1_10 Zn5 1_555 1_555
C13_10 N2_10 1_555 1_555
C14_10 N2_10 1_555 1_555
C19_10 C20_10 1_555 1_555
O5_10 Zn7 1_555 1_555
C1_11 C2_11 1_555 1_555
C2_11 C3_11 1_555 1_555
C3_11 H1_11 1_555 1_555
C4_11 C3_11 1_555 1_555
C5_11 C4_11 1_555 1_555
C6_11 C1_11 1_555 1_555
H2_11 C6_11 1_555 1_555
C7_11 C1_11 1_555 1_555
C8_11 C4_11 1_555 1_555
C9_11 H3_11 1_555 1_555
H4_11 C9_11 1_555 1_555
C10_11 H5_11 1_555 1_555
H6_11 C10_11 1_555 1_555
C11_11 H7_11 1_555 1_555
H8_11 C11_11 1_555 1_555
N1_11 C9_11 1_555 1_555
O1_11 C7_11 1_555 1_555
O9_5 C7_11 1_555 1_555
O11_8 C8_11 1_555 1_555
O13_5 C8_11 1_555 1_555
Zn6_2 N1_11 1_555 1_555
Br1_11 C2_11 1_555 1_555
Br2_11 C5_11 1_555 1_555
C5_11 C6_11 1_555 1_555
C10_11 N1_11 1_555 1_555
C11_11 N1_11 1_555 1_555
O1_11 Zn6_2 1_555 1_555
H9_11 C12_11 1_555 1_555
H10_11 C12_11 1_555 1_555
H11_11 C13_11 1_555 1_555
H12_11 C13_11 1_555 1_555
H13_11 C14_11 1_555 1_555
H14_11 C14_11 1_555 1_555
N2_11 C12_11 1_555 1_555
C15_11 C16_11 1_555 1_555
C16_11 C17_11 1_555 1_555
C17_11 H15_11 1_555 1_555
C18_11 C17_11 1_555 1_555
C19_11 C18_11 1_555 1_555
C20_11 C15_11 1_555 1_555
H16_11 C20_11 1_555 1_555
C21_11 C15_11 1_555 1_555
C22_11 C18_11 1_555 1_555
O5_11 C21_11 1_555 1_555
O10_6 C21_11 1_555 1_555
O12_8 C22_11 1_555 1_555
O14_6 C22_11 1_555 1_555
Zn8 N2_11 1_555 1_555
Br3_11 C16_11 1_555 1_555
Br4_11 C19_11 1_555 1_555
C13_11 N2_11 1_555 1_555
C14_11 N2_11 1_555 1_555
C19_11 C20_11 1_555 1_555
O5_11 Zn8 1_555 1_555
C1_12 C2_12 1_555 1_555
C2_12 C3_12 1_555 1_555
C3_12 H1_12 1_555 1_555
C4_12 C3_12 1_555 1_555
C5_12 C4_12 1_555 1_555
C6_12 C1_12 1_555 1_555
H2_12 C6_12 1_555 1_555
C7_12 C1_12 1_555 1_555
C8_12 C4_12 1_555 1_555
C9_12 H3_12 1_555 1_555
H4_12 C9_12 1_555 1_555
C10_12 H5_12 1_555 1_555
H6_12 C10_12 1_555 1_555
C11_12 H7_12 1_555 1_555
H8_12 C11_12 1_555 1_555
N1_12 C9_12 1_555 1_555
O1_12 C7_12 1_555 1_555
O9_6 C7_12 1_555 1_555
O11_7 C8_12 1_555 1_555
O13_6 C8_12 1_555 1_555
Zn6 N1_12 1_555 1_555
Br1_12 C2_12 1_555 1_555
Br2_12 C5_12 1_555 1_555
C12_12 C9_12 1_555 1_555
H9_12 C12_12 1_555 1_555
H10_12 C12_12 1_555 1_555
C13_12 C11_12 1_555 1_555
H11_12 C13_12 1_555 1_555
H12_12 C13_12 1_555 1_555
C14_12 C10_12 1_555 1_555
H13_12 C14_12 1_555 1_555
H14_12 C14_12 1_555 1_555
N2_12 C12_12 1_555 1_555
C15_12 C16_12 1_555 1_555
C16_12 C17_12 1_555 1_555
C17_12 H15_12 1_555 1_555
C18_12 C17_12 1_555 1_555
C19_12 C18_12 1_555 1_555
C20_12 C15_12 1_555 1_555
H16_12 C20_12 1_555 1_555
C21_12 C15_12 1_555 1_555
C22_12 C18_12 1_555 1_555
O5_12 C21_12 1_555 1_555
O10_5 C21_12 1_555 1_555
O12_7 C22_12 1_555 1_555
O14_5 C22_12 1_555 1_555
Zn8_2 N2_12 1_555 1_555
Br3_12 C16_12 1_555 1_555
Br4_12 C19_12 1_555 1_555
C5_12 C6_12 1_555 1_555
C10_12 N1_12 1_555 1_555
C11_12 N1_12 1_555 1_555
O1_12 Zn6 1_555 1_555
C13_12 N2_12 1_555 1_555
C14_12 N2_12 1_555 1_555
C19_12 C20_12 1_555 1_555
O5_12 Zn8_2 1_555 1_555
C5_13 C4_13 1_555 1_555
H2_13 C6_13 1_555 1_555
C8_13 C4_13 1_555 1_555
C11_13 H7_13 1_555 1_555
H8_13 C11_13 1_555 1_555
O11_6 C8_13 1_555 1_555
O13_8 C8_13 1_555 1_555
Br2_13 C5_13 1_555 1_555
H10_13 C12_13 1_555 1_555
C13_13 C11_13 1_555 1_555
H11_13 C13_13 1_555 1_555
H12_13 C13_13 1_555 1_555
N2_13 C12_13 1_555 1_555
C15_13 C16_13 1_555 1_555
C16_13 C17_13 1_555 1_555
C17_13 H15_13 1_555 1_555
C21_13 C15_13 1_555 1_555
O6_7 C21_13 1_555 1_555
Zn8_4 N2_13 1_555 1_555
Br3_13 C16_13 1_555 1_555
Zn5_4 O6_7 1_555 1_555
C5_13 C6_13 1_555 1_555
C13_13 N2_13 1_555 1_555
C1_13 C2_13 1_555 1_555
C2_13 C3_13 1_555 1_555
C3_13 H1_13 1_555 1_555
C7_13 C1_13 1_555 1_555
H4_13 C9_13 1_555 1_555
C10_13 H5_13 1_555 1_555
H6_13 C10_13 1_555 1_555
N1_13 C9_13 1_555 1_555
O2_7 C7_13 1_555 1_555
Zn6_3 N1_13 1_555 1_555
Br1_13 C2_13 1_555 1_555
C14_13 C10_13 1_555 1_555
H13_13 C14_13 1_555 1_555
H14_13 C14_13 1_555 1_555
C19_13 C18_13 1_555 1_555
H16_13 C20_13 1_555 1_555
C22_13 C18_13 1_555 1_555
O12_6 C22_13 1_555 1_555
O14_7 C22_13 1_555 1_555
Br4_13 C19_13 1_555 1_555
Zn7_3 O2_7 1_555 1_555
C10_13 N1_13 1_555 1_555
C19_13 C20_13 1_555 1_555
C3_14 H1_14 1_555 1_555
C19_14 C18_14 1_555 1_555
C22_14 C18_14 1_555 1_555
O12_5 C22_14 1_555 1_555
O14_8 C22_14 1_555 1_555
Br4_14 C19_14 1_555 1_555
C5_14 C4_14 1_555 1_555
C8_14 C4_14 1_555 1_555
O11_5 C8_14 1_555 1_555
O13_7 C8_14 1_555 1_555
Br2_14 C5_14 1_555 1_555
C17_14 H15_14 1_555 1_555
C1_14 C2_14 1_555 1_555
C7_14 C1_14 1_555 1_555
H4_14 C9_14 1_555 1_555
C10_14 H5_14 1_555 1_555
H6_14 C10_14 1_555 1_555
N1_14 C9_14 1_555 1_555
O2_8 C7_14 1_555 1_555
Zn6_4 N1_14 1_555 1_555
Br1_14 C2_14 1_555 1_555
C14_14 C10_14 1_555 1_555
H13_14 C14_14 1_555 1_555
H14_14 C14_14 1_555 1_555
H16_14 C20_14 1_555 1_555
Zn7_4 O2_8 1_555 1_555
C10_14 N1_14 1_555 1_555
H2_14 C6_14 1_555 1_555
C11_14 H7_14 1_555 1_555
H8_14 C11_14 1_555 1_555
H10_14 C12_14 1_555 1_555
C13_14 C11_14 1_555 1_555
H11_14 C13_14 1_555 1_555
H12_14 C13_14 1_555 1_555
N2_14 C12_14 1_555 1_555
C15_14 C16_14 1_555 1_555
C21_14 C15_14 1_555 1_555
O6_8 C21_14 1_555 1_555
Zn8_3 N2_14 1_555 1_555
Br3_14 C16_14 1_555 1_555
Zn5_3 O6_8 1_555 1_555
C13_14 N2_14 1_555 1_555
C9_15 H3_15 1_555 1_555
H4_15 C9_15 1_555 1_555
N1_15 C9_15 1_555 1_555
Zn5_4 N1_15 1_555 1_555
C12_15 C9_15 1_555 1_555
H9_15 C12_15 1_555 1_555
H10_15 C12_15 1_555 1_555
N2_15 C12_15 1_555 1_555
Zn7_4 N2_15 1_555 1_555
C1_15 C2_15 1_555 1_555
C2_15 C3_15 1_555 1_555
C3_15 H1_15 1_555 1_555
C4_15 C3_15 1_555 1_555
C5_15 C4_15 1_555 1_555
C6_15 C1_15 1_555 1_555
H2_15 C6_15 1_555 1_555
C7_15 C1_15 1_555 1_555
C8_15 C4_15 1_555 1_555
H6_15 C10_15 1_555 1_555
C11_15 H7_15 1_555 1_555
O1_15 C7_15 1_555 1_555
O9_7 C7_15 1_555 1_555
O11_4 C8_15 1_555 1_555
O13 C8_15 1_555 1_555
Br1_15 C2_15 1_555 1_555
Br2_15 C5_15 1_555 1_555
C13_15 C11_15 1_555 1_555
H12_15 C13_15 1_555 1_555
C14_15 C10_15 1_555 1_555
H13_15 C14_15 1_555 1_555
C15_15 C16_15 1_555 1_555
C16_15 C17_15 1_555 1_555
C17_15 H15_15 1_555 1_555
C18_15 C17_15 1_555 1_555
C19_15 C18_15 1_555 1_555
C20_15 C15_15 1_555 1_555
H16_15 C20_15 1_555 1_555
C21_15 C15_15 1_555 1_555
C22_15 C18_15 1_555 1_555
O5_15 C21_15 1_555 1_555
O10_8 C21_15 1_555 1_555
O12_4 C22_15 1_555 1_555
O14_2 C22_15 1_555 1_555
Br3_15 C16_15 1_555 1_555
Br4_15 C19_15 1_555 1_555
C5_15 C6_15 1_555 1_555
C19_15 C20_15 1_555 1_555
C1_16 C2_16 1_555 1_555
C2_16 C3_16 1_555 1_555
C3_16 H1_16 1_555 1_555
C4_16 C3_16 1_555 1_555
C5_16 C4_16 1_555 1_555
C6_16 C1_16 1_555 1_555
H2_16 C6_16 1_555 1_555
C7_16 C1_16 1_555 1_555
C8_16 C4_16 1_555 1_555
H6_16 C10_16 1_555 1_555
C11_16 H7_16 1_555 1_555
O1_16 C7_16 1_555 1_555
O9_8 C7_16 1_555 1_555
O11_3 C8_16 1_555 1_555
O13_2 C8_16 1_555 1_555
Br1_16 C2_16 1_555 1_555
Br2_16 C5_16 1_555 1_555
C5_16 C6_16 1_555 1_555
H12_16 C13_16 1_555 1_555
H13_16 C14_16 1_555 1_555
C15_16 C16_16 1_555 1_555
C16_16 C17_16 1_555 1_555
C17_16 H15_16 1_555 1_555
C18_16 C17_16 1_555 1_555
C19_16 C18_16 1_555 1_555
C20_16 C15_16 1_555 1_555
H16_16 C20_16 1_555 1_555
C21_16 C15_16 1_555 1_555
C22_16 C18_16 1_555 1_555
O5_16 C21_16 1_555 1_555
O10_7 C21_16 1_555 1_555
O12_3 C22_16 1_555 1_555
O14 C22_16 1_555 1_555
Br3_16 C16_16 1_555 1_555
Br4_16 C19_16 1_555 1_555
C19_16 C20_16 1_555 1_555
C9_16 H3_16 1_555 1_555
H4_16 C9_16 1_555 1_555
N1_16 C9_16 1_555 1_555
Zn5_3 N1_16 1_555 1_555
H9_16 C12_16 1_555 1_555
H10_16 C12_16 1_555 1_555
N2_16 C12_16 1_555 1_555
Zn7_3 N2_16 1_555 1_555

#END
