
###############################################################################
#
# This file contains modified crystal structure data generated from the
# MOF subset of the Cambridge Structural Database (CSD) v543 
# hosted by the Cambridge Crystallographic Data Centre (CCDC).
#
# This work is licensed under the Creative Commons
# Attribution-NonCommercial-ShareAlike 4.0 International License.
# To view a copy of this license, visit
# http://creativecommons.org/licenses/by-nc-sa/4.0/
# or send a letter to
# Creative Commons, PO Box 1866, Mountain View, CA 94042, USA.
#
# CIF created using the CSD Python API on 29 September 2022
# The structure has been converted into the P1 space group
# The structure has a 3D framework
# The original CSD entry DEBGIA is in the monoclinic crystal system
# The framework has been calculated to contain at least 10.0% void space
# The void calculation uses a probe of radius 1.32A, grid spacing 0.4
#
###############################################################################

data_DEBGIA
_chemical_formula_moiety         '(C80 H88 N32 O42 S8 Zn8)n'
_symmetry_cell_setting           triclinic
_symmetry_space_group_name_H-M   'P 1'
_symmetry_Int_Tables_number      1
_space_group_name_Hall           'P 1'
loop_
_symmetry_equiv_pos_site_id
_symmetry_equiv_pos_as_xyz
1 x,y,z
_cell_length_a                   15.679(2)
_cell_length_b                   10.101(3)
_cell_length_c                   19.160(3)
_cell_angle_alpha                90
_cell_angle_beta                 96.41(1)
_cell_angle_gamma                90
_cell_volume                     3015.47
loop_
_atom_site_label
_atom_site_type_symbol
_atom_site_fract_x
_atom_site_fract_y
_atom_site_fract_z
_atom_site_U_iso_or_equiv
_atom_site_thermal_displace_type
O1 O 0.1548(2) 0.0364(3) 0.6663(1) 0.0201 Uiso
O2 O 0.1392(2) 0.0304(3) 0.5394(1) 0.0235 Uiso
O9 O 0.2502(2) 0.1554(3) 0.7983(1) 0.0241 Uiso
O10 O 0.1716(2) 0.4302(3) 0.7563(1) 0.0215 Uiso
H17 H 0.2895 0.2078 0.8201 0.0490 Uiso
H18 H 0.2709 0.0798 0.7879 0.0343 Uiso
H19 H 0.1229 0.4581 0.7485 0.0329 Uiso
H20 H 0.1818 0.4268 0.8006 0.0248 Uiso
Zn1 Zn 0.17220(3) 0.22917(5) 0.70727(2) 0.0154 Uiso
N9 N 0.0611(2) 0.1895(3) 0.7606(2) 0.0183 Uiso
N10 N 0.2869(2) 0.2822(3) 0.6621(2) 0.0196 Uiso
O13 O 0.0990(2) 0.3111(3) 0.6225(1) 0.0181 Uiso
S1 S 0.17573(6) 0.96200(10) 0.60382(5) 0.0154 Uiso
S2 S 0.04897(6) 0.43641(9) 0.61565(5) 0.0139 Uiso
O3 O 0.2698(2) 0.9483(3) 0.6062(1) 0.0252 Uiso
O4 O 0.1378(2) 0.8275(3) 0.6077(1) 0.0182 Uiso
O6 O 0.1066(2) 0.5422(3) 0.5948(1) 0.0191 Uiso
O8 O 0.0170(2) 0.4704(3) 0.6822(1) 0.0231 Uiso
O11 O 0.0393(2) 0.8630(3) 0.4588(1) 0.0240 Uiso
N3 N 0.7131(2) 0.7178(3) 0.3379(2) 0.0196 Uiso
N4 N 0.4851(2) 0.6568(4) 0.4291(2) 0.0264 Uiso
N7 N 0.1897(2) 0.6702(3) 0.4798(2) 0.0203 Uiso
N8 N 0.4188(2) 0.6415(4) 0.3869(2) 0.0256 Uiso
C6 C 0.6444(3) 0.6654(5) 0.2987(2) 0.0280 Uiso
C7 C 0.5679(3) 0.6403(5) 0.3251(2) 0.0290 Uiso
C8 C 0.5624(2) 0.6699(4) 0.3952(2) 0.0220 Uiso
C9 C 0.6332(3) 0.7176(5) 0.4370(2) 0.0250 Uiso
C10 C 0.7078(2) 0.7422(4) 0.4067(2) 0.0220 Uiso
C16 C 0.1908(2) 0.6766(4) 0.4104(2) 0.0230 Uiso
C17 C 0.2657(3) 0.6624(5) 0.3785(2) 0.0240 Uiso
C18 C 0.3415(2) 0.6415(4) 0.4213(2) 0.0220 Uiso
C19 C 0.3403(2) 0.6270(5) 0.4932(2) 0.0240 Uiso
C20 C 0.2630(3) 0.6426(5) 0.5205(2) 0.0260 Uiso
H5 H 0.6449 0.6586 0.2415 0.0383 Uiso
H6 H 0.5223 0.5960 0.2926 0.0263 Uiso
H7 H 0.6374 0.7507 0.4908 0.0350 Uiso
H8 H 0.7569 0.7882 0.4411 0.0126 Uiso
H12 H 0.0039 0.8190 0.6675 0.0355 Uiso
H13 H 0.1396 0.7091 0.3826 0.0341 Uiso
H14 H 0.2624 0.6776 0.3307 0.0371 Uiso
H15 H 0.3864 0.5990 0.5255 0.0373 Uiso
H16 H 0.2630 0.6208 0.5740 0.0354 Uiso
H21 H 0.0672 0.9124 0.4755 0.0319 Uiso
H22 H 0.0042 0.8662 0.4412 0.0294 Uiso
Zn2 Zn 0.07026(3) 0.69735(5) 0.52659(2) 0.0164 Uiso
O12 O 0.0220(2) 0.5805(3) 0.4405(1) 0.0183 Uiso
Zn5 Zn 0.82780(3) 0.77083(5) 0.29273(2) 0.0154 Uiso
O7 O 0.9780(2) 0.4195(3) 0.5595(1) 0.0183 Uiso
N1 N 0.4389(2) 0.6895(3) 0.7394(2) 0.0183 Uiso
N2 N 0.6651(2) 0.6797(4) 0.6420(2) 0.0260 Uiso
N5 N 0.9529(2) 0.7261(3) 0.5761(2) 0.0199 Uiso
N6 N 0.7319(2) 0.7094(4) 0.6814(2) 0.0250 Uiso
C1 C 0.5127(2) 0.6547(4) 0.7777(2) 0.0220 Uiso
C2 C 0.5900(2) 0.6463(4) 0.7491(2) 0.0230 Uiso
C3 C 0.5896(2) 0.6761(4) 0.6785(2) 0.0220 Uiso
C4 C 0.5128(3) 0.7069(5) 0.6377(2) 0.0260 Uiso
C5 C 0.4388(2) 0.7152(4) 0.6708(2) 0.0220 Uiso
C11 C 0.8808(2) 0.6693(4) 0.5449(2) 0.0240 Uiso
C12 C 0.8060(2) 0.6608(4) 0.5765(2) 0.0230 Uiso
C13 C 0.8060(2) 0.7133(4) 0.6433(2) 0.0212 Uiso
C14 C 0.8797(3) 0.7721(5) 0.6761(2) 0.0310 Uiso
C15 C 0.9517(3) 0.7759(5) 0.6404(2) 0.0290 Uiso
H1 H 0.5165 0.6410 0.8322 0.0342 Uiso
H2 H 0.6410 0.6149 0.7840 0.0359 Uiso
H3 H 0.5095 0.7349 0.5913 0.0359 Uiso
H4 H 0.3840 0.7508 0.6401 0.0227 Uiso
H9 H 0.8758 0.6232 0.4962 0.0605 Uiso
H10 H 0.7576 0.6015 0.5501 0.0237 Uiso
H11 H 0.8828 0.8111 0.7237 0.0207 Uiso
Zn3 Zn 0.92974(3) 0.30265(5) 0.47341(2) 0.0164 Uiso
Zn4 Zn 0.32780(3) 0.72917(5) 0.79273(2) 0.0154 Uiso
N3_2 N 0.2131(2) 0.7822(3) 0.8379(2) 0.0196 Uiso
C6_2 C 0.1444(3) 0.8346(5) 0.7987(2) 0.0280 Uiso
C7_2 C 0.0679(3) 0.8597(5) 0.8251(2) 0.0290 Uiso
C8_2 C 0.0624(2) 0.8301(4) 0.8952(2) 0.0220 Uiso
C9_2 C 0.1332(3) 0.7824(5) 0.9370(2) 0.0250 Uiso
C10_2 C 0.2078(2) 0.7578(4) 0.9067(2) 0.0220 Uiso
H5_2 H 0.1449 0.8414 0.7415 0.0383 Uiso
H6_2 H 0.0223 0.9040 0.7926 0.0263 Uiso
H7_2 H 0.1374 0.7493 0.9908 0.0350 Uiso
H8_2 H 0.2569 0.7118 0.9411 0.0126 Uiso
S2_2 S 0.54897(6) 0.06359(9) 0.11565(5) 0.0139 Uiso
O5 O 0.5990(2) 0.1889(3) 0.1225(1) 0.0181 Uiso
O7_2 O 0.4780(2) 0.0805(3) 0.0595(1) 0.0183 Uiso
O8_2 O 0.5170(2) 0.0296(3) 0.1822(1) 0.0231 Uiso
Zn6 Zn 0.67220(3) 0.27083(5) 0.20727(2) 0.0154 Uiso
Zn3_2 Zn 0.42974(3) 0.19735(5) 0.97341(2) 0.0164 Uiso
S1_2 S 0.67573(6) 0.53800(10) 0.10382(5) 0.0154 Uiso
O1_2 O 0.6548(2) 0.4636(3) 0.1663(1) 0.0201 Uiso
O2_2 O 0.6392(2) 0.4696(3) 0.0394(1) 0.0235 Uiso
O3_2 O 0.7698(2) 0.5517(3) 0.1062(1) 0.0252 Uiso
O4_2 O 0.6378(2) 0.6725(3) 0.1077(1) 0.0182 Uiso
O6_2 O 0.6066(2) 0.9578(3) 0.0948(1) 0.0191 Uiso
O9_2 O 0.7502(2) 0.3446(3) 0.2983(1) 0.0241 Uiso
O10_2 O 0.6716(2) 0.0698(3) 0.2563(1) 0.0215 Uiso
N2_2 N 0.1651(2) 0.8203(4) 0.1420(2) 0.0260 Uiso
N5_2 N 0.4529(2) 0.7739(3) 0.0761(2) 0.0199 Uiso
N6_2 N 0.2319(2) 0.7906(4) 0.1814(2) 0.0250 Uiso
C1_2 C 0.0127(2) 0.8453(4) 0.2777(2) 0.0220 Uiso
C2_2 C 0.0900(2) 0.8537(4) 0.2491(2) 0.0230 Uiso
C3_2 C 0.0896(2) 0.8239(4) 0.1785(2) 0.0220 Uiso
C4_2 C 0.0128(3) 0.7931(5) 0.1377(2) 0.0260 Uiso
C11_2 C 0.3808(2) 0.8307(4) 0.0449(2) 0.0240 Uiso
C12_2 C 0.3060(2) 0.8392(4) 0.0765(2) 0.0230 Uiso
C13_2 C 0.3060(2) 0.7867(4) 0.1433(2) 0.0212 Uiso
C14_2 C 0.3797(3) 0.7279(5) 0.1761(2) 0.0310 Uiso
C15_2 C 0.4517(3) 0.7241(5) 0.1404(2) 0.0290 Uiso
C20_2 C 0.7630(3) 0.8574(5) 0.0205(2) 0.0260 Uiso
H1_2 H 0.0165 0.8590 0.3322 0.0342 Uiso
H2_2 H 0.1410 0.8851 0.2840 0.0359 Uiso
H3_2 H 0.0095 0.7651 0.0913 0.0359 Uiso
H10_2 H 0.2576 0.8985 0.0501 0.0237 Uiso
H11_2 H 0.3828 0.6889 0.2237 0.0207 Uiso
H12_2 H 0.5039 0.6810 0.1675 0.0355 Uiso
H15_2 H 0.8864 0.9010 0.0255 0.0373 Uiso
H16_2 H 0.7630 0.8792 0.0740 0.0354 Uiso
H17_2 H 0.7895 0.2922 0.3201 0.0490 Uiso
H18_2 H 0.7709 0.4202 0.2879 0.0343 Uiso
H19_2 H 0.6229 0.0419 0.2485 0.0329 Uiso
H20_2 H 0.6818 0.0732 0.3006 0.0248 Uiso
Zn2_2 Zn 0.57026(3) 0.80265(5) 0.02659(2) 0.0164 Uiso
N9_2 N 0.5611(2) 0.3105(3) 0.2606(2) 0.0183 Uiso
N10_2 N 0.7869(2) 0.2178(3) 0.1621(2) 0.0196 Uiso
O11_2 O 0.5393(2) 0.6370(3) 0.9588(1) 0.0240 Uiso
N4_2 N 0.9851(2) 0.8432(4) 0.9291(2) 0.0264 Uiso
N7_2 N 0.6897(2) 0.8298(3) 0.9798(2) 0.0203 Uiso
N8_2 N 0.9188(2) 0.8585(4) 0.8869(2) 0.0256 Uiso
C16_2 C 0.6908(2) 0.8234(4) 0.9104(2) 0.0230 Uiso
C17_2 C 0.7657(3) 0.8376(5) 0.8785(2) 0.0240 Uiso
C18_2 C 0.8415(2) 0.8585(4) 0.9213(2) 0.0220 Uiso
C19_2 C 0.8403(2) 0.8730(5) 0.9932(2) 0.0240 Uiso
H9_2 H 0.3758 0.8768 0.9962 0.0605 Uiso
H13_2 H 0.6396 0.7909 0.8826 0.0341 Uiso
H14_2 H 0.7624 0.8224 0.8307 0.0371 Uiso
H21_2 H 0.5672 0.5876 0.9755 0.0319 Uiso
H22_2 H 0.5042 0.6338 0.9412 0.0294 Uiso
O12_2 O 0.5220(2) 0.9195(3) 0.9405(1) 0.0183 Uiso
N1_2 N 0.9389(2) 0.8105(3) 0.2394(2) 0.0183 Uiso
C5_2 C 0.9388(2) 0.7848(4) 0.1708(2) 0.0220 Uiso
H4_2 H 0.8840 0.7492 0.1401 0.0227 Uiso
N2_3 N 0.3349(2) 0.3203(4) 0.3580(2) 0.0260 Uiso
N5_3 N 0.0471(2) 0.2739(3) 0.4239(2) 0.0199 Uiso
N6_3 N 0.2681(2) 0.2906(4) 0.3186(2) 0.0250 Uiso
C1_3 C 0.4873(2) 0.3453(4) 0.2223(2) 0.0220 Uiso
C2_3 C 0.4100(2) 0.3537(4) 0.2509(2) 0.0230 Uiso
C3_3 C 0.4104(2) 0.3239(4) 0.3215(2) 0.0220 Uiso
C4_3 C 0.4872(3) 0.2931(5) 0.3623(2) 0.0260 Uiso
C5_3 C 0.5612(2) 0.2848(4) 0.3292(2) 0.0220 Uiso
C11_3 C 0.1192(2) 0.3307(4) 0.4551(2) 0.0240 Uiso
C12_3 C 0.1940(2) 0.3392(4) 0.4235(2) 0.0230 Uiso
C13_3 C 0.1940(2) 0.2867(4) 0.3567(2) 0.0212 Uiso
C14_3 C 0.1203(3) 0.2279(5) 0.3239(2) 0.0310 Uiso
C15_3 C 0.0483(3) 0.2241(5) 0.3596(2) 0.0290 Uiso
H1_3 H 0.4835 0.3590 0.1678 0.0342 Uiso
H2_3 H 0.3590 0.3851 0.2160 0.0359 Uiso
H3_3 H 0.4905 0.2651 0.4087 0.0359 Uiso
H4_3 H 0.6160 0.2492 0.3599 0.0227 Uiso
H9_3 H 0.1242 0.3768 0.5038 0.0605 Uiso
H10_3 H 0.2424 0.3985 0.4499 0.0237 Uiso
H11_3 H 0.1172 0.1889 0.2763 0.0207 Uiso
S1_3 S 0.82427(6) 0.03800(10) 0.39618(5) 0.0154 Uiso
S2_3 S 0.95103(6) 0.56359(9) 0.38435(5) 0.0139 Uiso
O3_3 O 0.7302(2) 0.0517(3) 0.3938(1) 0.0252 Uiso
O4_3 O 0.8622(2) 0.1725(3) 0.3923(1) 0.0182 Uiso
O5_2 O 0.9010(2) 0.6889(3) 0.3775(1) 0.0181 Uiso
O6_3 O 0.8934(2) 0.4578(3) 0.4052(1) 0.0191 Uiso
O8_3 O 0.9830(2) 0.5296(3) 0.3178(1) 0.0231 Uiso
O11_3 O 0.9607(2) 0.1370(3) 0.5412(1) 0.0240 Uiso
N4_3 N 0.5149(2) 0.3432(4) 0.5709(2) 0.0264 Uiso
N7_3 N 0.8103(2) 0.3298(3) 0.5202(2) 0.0203 Uiso
N8_3 N 0.5812(2) 0.3585(4) 0.6131(2) 0.0256 Uiso
C6_3 C 0.3556(3) 0.3346(5) 0.7013(2) 0.0280 Uiso
C7_3 C 0.4321(3) 0.3597(5) 0.6749(2) 0.0290 Uiso
C8_3 C 0.4376(2) 0.3301(4) 0.6048(2) 0.0220 Uiso
C9_3 C 0.3668(3) 0.2824(5) 0.5630(2) 0.0250 Uiso
C10_3 C 0.2922(2) 0.2578(4) 0.5933(2) 0.0220 Uiso
C16_3 C 0.8092(2) 0.3234(4) 0.5896(2) 0.0230 Uiso
C17_3 C 0.7343(3) 0.3376(5) 0.6215(2) 0.0240 Uiso
C18_3 C 0.6585(2) 0.3585(4) 0.5787(2) 0.0220 Uiso
C19_3 C 0.6597(2) 0.3730(5) 0.5068(2) 0.0240 Uiso
C20_3 C 0.7370(3) 0.3574(5) 0.4795(2) 0.0260 Uiso
H5_3 H 0.3551 0.3414 0.7585 0.0383 Uiso
H6_3 H 0.4777 0.4040 0.7074 0.0263 Uiso
H7_3 H 0.3626 0.2493 0.5092 0.0350 Uiso
H8_3 H 0.2431 0.2118 0.5589 0.0126 Uiso
H12_3 H 0.9961 0.1810 0.3325 0.0355 Uiso
H13_3 H 0.8604 0.2909 0.6174 0.0341 Uiso
H14_3 H 0.7376 0.3224 0.6693 0.0371 Uiso
H15_3 H 0.6136 0.4010 0.4745 0.0373 Uiso
H16_3 H 0.7370 0.3792 0.4260 0.0354 Uiso
H21_3 H 0.9328 0.0876 0.5245 0.0319 Uiso
H22_3 H 0.9958 0.1338 0.5588 0.0294 Uiso
O1_3 O 0.8452(2) 0.9636(3) 0.3337(1) 0.0201 Uiso
O2_3 O 0.8608(2) 0.9696(3) 0.4606(1) 0.0235 Uiso
O9_3 O 0.7498(2) 0.8446(3) 0.2017(1) 0.0241 Uiso
O10_3 O 0.8284(2) 0.5698(3) 0.2437(1) 0.0215 Uiso
H17_3 H 0.7105 0.7922 0.1799 0.0490 Uiso
H18_3 H 0.7291 0.9202 0.2121 0.0343 Uiso
H19_3 H 0.8771 0.5419 0.2515 0.0329 Uiso
H20_3 H 0.8182 0.5732 0.1994 0.0248 Uiso
C5_4 C 0.0612(2) 0.2152(4) 0.8292(2) 0.0220 Uiso
H4_4 H 0.1160 0.2508 0.8599 0.0227 Uiso
O11_4 O 0.4607(2) 0.3630(3) 0.0412(1) 0.0240 Uiso
N4_4 N 0.0149(2) 0.1568(4) 0.0709(2) 0.0264 Uiso
N7_4 N 0.3103(2) 0.1702(3) 0.0202(2) 0.0203 Uiso
N8_4 N 0.0812(2) 0.1415(4) 0.1131(2) 0.0256 Uiso
C16_4 C 0.3092(2) 0.1766(4) 0.0896(2) 0.0230 Uiso
C17_4 C 0.2343(3) 0.1624(5) 0.1215(2) 0.0240 Uiso
C18_4 C 0.1585(2) 0.1415(4) 0.0787(2) 0.0220 Uiso
C19_4 C 0.1597(2) 0.1270(5) 0.0068(2) 0.0240 Uiso
H9_4 H 0.6242 0.1232 0.0038 0.0605 Uiso
H13_4 H 0.3604 0.2091 0.1174 0.0341 Uiso
H14_4 H 0.2376 0.1776 0.1693 0.0371 Uiso
H21_4 H 0.4328 0.4124 0.0245 0.0319 Uiso
H22_4 H 0.4958 0.3662 0.0588 0.0294 Uiso
S1_4 S 0.32427(6) 0.46200(10) 0.89618(5) 0.0154 Uiso
O1_4 O 0.3452(2) 0.5364(3) 0.8337(1) 0.0201 Uiso
O2_4 O 0.3608(2) 0.5304(3) 0.9606(1) 0.0235 Uiso
O3_4 O 0.2302(2) 0.4483(3) 0.8938(1) 0.0252 Uiso
O4_4 O 0.3622(2) 0.3275(3) 0.8923(1) 0.0182 Uiso
O6_4 O 0.3934(2) 0.0422(3) 0.9052(1) 0.0191 Uiso
O9_4 O 0.2498(2) 0.6554(3) 0.7017(1) 0.0241 Uiso
O10_4 O 0.3284(2) 0.9302(3) 0.7437(1) 0.0215 Uiso
N2_4 N 0.8349(2) 0.1797(4) 0.8580(2) 0.0260 Uiso
N5_4 N 0.5471(2) 0.2261(3) 0.9239(2) 0.0199 Uiso
N6_4 N 0.7681(2) 0.2094(4) 0.8186(2) 0.0250 Uiso
C1_4 C 0.9873(2) 0.1547(4) 0.7223(2) 0.0220 Uiso
C2_4 C 0.9100(2) 0.1463(4) 0.7509(2) 0.0230 Uiso
C3_4 C 0.9104(2) 0.1761(4) 0.8215(2) 0.0220 Uiso
C4_4 C 0.9872(3) 0.2069(5) 0.8623(2) 0.0260 Uiso
C11_4 C 0.6192(2) 0.1693(4) 0.9551(2) 0.0240 Uiso
C12_4 C 0.6940(2) 0.1608(4) 0.9235(2) 0.0230 Uiso
C13_4 C 0.6940(2) 0.2133(4) 0.8567(2) 0.0212 Uiso
C14_4 C 0.6203(3) 0.2721(5) 0.8239(2) 0.0310 Uiso
C15_4 C 0.5483(3) 0.2759(5) 0.8596(2) 0.0290 Uiso
C20_4 C 0.2370(3) 0.1426(5) 0.9795(2) 0.0260 Uiso
H1_4 H 0.9835 0.1410 0.6678 0.0342 Uiso
H2_4 H 0.8590 0.1149 0.7160 0.0359 Uiso
H3_4 H 0.9905 0.2349 0.9087 0.0359 Uiso
H10_4 H 0.7424 0.1015 0.9499 0.0237 Uiso
H11_4 H 0.6172 0.3111 0.7763 0.0207 Uiso
H12_4 H 0.4961 0.3190 0.8325 0.0355 Uiso
H15_4 H 0.1136 0.0990 0.9745 0.0373 Uiso
H16_4 H 0.2370 0.1208 0.9260 0.0354 Uiso
H17_4 H 0.2105 0.7078 0.6799 0.0490 Uiso
H18_4 H 0.2291 0.5798 0.7121 0.0343 Uiso
H19_4 H 0.3771 0.9581 0.7515 0.0329 Uiso
H20_4 H 0.3182 0.9268 0.6994 0.0248 Uiso
O13_2 O 0.4010(2) 0.8111(3) 0.8775(1) 0.0181 Uiso
S2_4 S 0.45103(6) 0.93641(9) 0.88435(5) 0.0139 Uiso
O8_4 O 0.4830(2) 0.9704(3) 0.8178(1) 0.0231 Uiso
C6_4 C 0.8556(3) 0.1654(5) 0.2013(2) 0.0280 Uiso
C7_4 C 0.9321(3) 0.1403(5) 0.1749(2) 0.0290 Uiso
C8_4 C 0.9376(2) 0.1699(4) 0.1048(2) 0.0220 Uiso
C9_4 C 0.8668(3) 0.2176(5) 0.0630(2) 0.0250 Uiso
C10_4 C 0.7922(2) 0.2422(4) 0.0933(2) 0.0220 Uiso
H5_4 H 0.8551 0.1586 0.2585 0.0383 Uiso
H6_4 H 0.9777 0.0960 0.2074 0.0263 Uiso
H7_4 H 0.8626 0.2507 0.0092 0.0350 Uiso
H8_4 H 0.7431 0.2882 0.0589 0.0126 Uiso
loop_
_geom_bond_atom_site_label_1
_geom_bond_atom_site_label_2
_geom_bond_site_symmetry_1
_geom_bond_site_symmetry_2
O1 Zn1 1_555 1_555
O9 H17 1_555 1_555
O10 H19 1_555 1_555
H18 O9 1_555 1_555
H20 O10 1_555 1_555
Zn1 O9 1_555 1_555
N9 Zn1 1_555 1_555
N10 Zn1 1_555 1_555
O13 Zn1 1_555 1_555
O10 Zn1 1_555 1_555
S2 O13 1_555 1_555
O3 S1 1_555 1_555
O4 S1 1_555 1_555
O6 S2 1_555 1_555
O8 S2 1_555 1_555
O11 H21 1_555 1_555
N3 C6 1_555 1_555
N4 N8 1_555 1_555
N7 C16 1_555 1_555
N8 C18 1_555 1_555
C6 C7 1_555 1_555
C7 C8 1_555 1_555
C8 N4 1_555 1_555
C9 C8 1_555 1_555
C10 N3 1_555 1_555
C16 C17 1_555 1_555
C17 C18 1_555 1_555
C18 C19 1_555 1_555
C19 C20 1_555 1_555
C20 N7 1_555 1_555
H5 C6 1_555 1_555
H6 C7 1_555 1_555
H7 C9 1_555 1_555
H8 C10 1_555 1_555
H13 C16 1_555 1_555
H14 C17 1_555 1_555
H15 C19 1_555 1_555
H16 C20 1_555 1_555
H22 O11 1_555 1_555
Zn2 O4 1_555 1_555
O12 Zn2 1_555 1_555
Zn5 N3 1_555 1_555
O6 Zn2 1_555 1_555
O11 Zn2 1_555 1_555
N7 Zn2 1_555 1_555
C9 C10 1_555 1_555
N1 C1 1_555 1_555
N2 N6 1_555 1_555
N5 C11 1_555 1_555
N6 C13 1_555 1_555
C1 C2 1_555 1_555
C2 C3 1_555 1_555
C3 N2 1_555 1_555
C4 C3 1_555 1_555
C5 N1 1_555 1_555
C11 C12 1_555 1_555
C12 C13 1_555 1_555
C13 C14 1_555 1_555
C14 C15 1_555 1_555
C15 N5 1_555 1_555
H1 C1 1_555 1_555
H2 C2 1_555 1_555
H3 C4 1_555 1_555
H4 C5 1_555 1_555
H9 C11 1_555 1_555
H10 C12 1_555 1_555
H11 C14 1_555 1_555
Zn3 O7 1_555 1_555
Zn4 N1 1_555 1_555
C4 C5 1_555 1_555
N3_2 C6_2 1_555 1_555
C6_2 C7_2 1_555 1_555
C7_2 C8_2 1_555 1_555
C9_2 C8_2 1_555 1_555
C10_2 N3_2 1_555 1_555
H5_2 C6_2 1_555 1_555
H6_2 C7_2 1_555 1_555
H7_2 C9_2 1_555 1_555
H8_2 C10_2 1_555 1_555
Zn4 N3_2 1_555 1_555
C9_2 C10_2 1_555 1_555
S2_2 O5 1_555 1_555
O5 Zn6 1_555 1_555
O7_2 S2_2 1_555 1_555
O8_2 S2_2 1_555 1_555
S1_2 O1_2 1_555 1_555
O1_2 Zn6 1_555 1_555
O2_2 S1_2 1_555 1_555
O3_2 S1_2 1_555 1_555
O4_2 S1_2 1_555 1_555
O9_2 H17_2 1_555 1_555
O10_2 H19_2 1_555 1_555
N2_2 N6_2 1_555 1_555
N5_2 C11_2 1_555 1_555
N6_2 C13_2 1_555 1_555
C1_2 C2_2 1_555 1_555
C2_2 C3_2 1_555 1_555
C3_2 N2_2 1_555 1_555
C4_2 C3_2 1_555 1_555
C11_2 C12_2 1_555 1_555
C12_2 C13_2 1_555 1_555
C13_2 C14_2 1_555 1_555
C14_2 C15_2 1_555 1_555
C15_2 N5_2 1_555 1_555
H1_2 C1_2 1_555 1_555
H2_2 C2_2 1_555 1_555
H3_2 C4_2 1_555 1_555
H10_2 C12_2 1_555 1_555
H11_2 C14_2 1_555 1_555
H12_2 C15_2 1_555 1_555
H16_2 C20_2 1_555 1_555
H18_2 O9_2 1_555 1_555
H20_2 O10_2 1_555 1_555
Zn6 O9_2 1_555 1_555
Zn2_2 O4_2 1_555 1_555
N9_2 Zn6 1_555 1_555
N10_2 Zn6 1_555 1_555
O6_2 Zn2_2 1_555 1_555
O10_2 Zn6 1_555 1_555
N5_2 Zn2_2 1_555 1_555
O11_2 H21_2 1_555 1_555
N4_2 N8_2 1_555 1_555
N7_2 C16_2 1_555 1_555
N8_2 C18_2 1_555 1_555
C16_2 C17_2 1_555 1_555
C17_2 C18_2 1_555 1_555
C18_2 C19_2 1_555 1_555
H13_2 C16_2 1_555 1_555
H14_2 C17_2 1_555 1_555
H22_2 O11_2 1_555 1_555
C5_2 N1_2 1_555 1_555
H4_2 C5_2 1_555 1_555
Zn5 N1_2 1_555 1_555
N9_2 C1_3 1_555 1_555
N2_3 N6_3 1_555 1_555
N5_3 C11_3 1_555 1_555
N6_3 C13_3 1_555 1_555
C1_3 C2_3 1_555 1_555
C2_3 C3_3 1_555 1_555
C3_3 N2_3 1_555 1_555
C4_3 C3_3 1_555 1_555
C5_3 N9_2 1_555 1_555
C11_3 C12_3 1_555 1_555
C12_3 C13_3 1_555 1_555
C13_3 C14_3 1_555 1_555
C14_3 C15_3 1_555 1_555
C15_3 N5_3 1_555 1_555
H1_3 C1_3 1_555 1_555
H2_3 C2_3 1_555 1_555
H3_3 C4_3 1_555 1_555
H4_3 C5_3 1_555 1_555
H9_3 C11_3 1_555 1_555
H10_3 C12_3 1_555 1_555
H11_3 C14_3 1_555 1_555
C4_3 C5_3 1_555 1_555
S2_3 O5_2 1_555 1_555
O3_3 S1_3 1_555 1_555
O4_3 S1_3 1_555 1_555
O5_2 Zn5 1_555 1_555
O6_3 S2_3 1_555 1_555
O8_3 S2_3 1_555 1_555
O11_3 H21_3 1_555 1_555
N10 C6_3 1_555 1_555
N4_3 N8_3 1_555 1_555
N7_3 C16_3 1_555 1_555
N8_3 C18_3 1_555 1_555
C6_3 C7_3 1_555 1_555
C7_3 C8_3 1_555 1_555
C8_3 N4_3 1_555 1_555
C9_3 C8_3 1_555 1_555
C10_3 N10 1_555 1_555
C16_3 C17_3 1_555 1_555
C17_3 C18_3 1_555 1_555
C18_3 C19_3 1_555 1_555
C19_3 C20_3 1_555 1_555
C20_3 N7_3 1_555 1_555
H5_3 C6_3 1_555 1_555
H6_3 C7_3 1_555 1_555
H7_3 C9_3 1_555 1_555
H8_3 C10_3 1_555 1_555
H13_3 C16_3 1_555 1_555
H14_3 C17_3 1_555 1_555
H15_3 C19_3 1_555 1_555
H16_3 C20_3 1_555 1_555
H22_3 O11_3 1_555 1_555
Zn3 O4_3 1_555 1_555
O6_3 Zn3 1_555 1_555
O11_3 Zn3 1_555 1_555
N7_3 Zn3 1_555 1_555
C9_3 C10_3 1_555 1_555
O1_3 Zn5 1_555 1_555
O9_3 H17_3 1_555 1_555
O10_3 H19_3 1_555 1_555
H18_3 O9_3 1_555 1_555
H20_3 O10_3 1_555 1_555
Zn5 O9_3 1_555 1_555
O10_3 Zn5 1_555 1_555
C5_4 N9 1_555 1_555
H4_4 C5_4 1_555 1_555
O11_4 H21_4 1_555 1_555
N4_4 N8_4 1_555 1_555
N7_4 C16_4 1_555 1_555
N8_4 C18_4 1_555 1_555
C16_4 C17_4 1_555 1_555
C17_4 C18_4 1_555 1_555
C18_4 C19_4 1_555 1_555
H13_4 C16_4 1_555 1_555
H14_4 C17_4 1_555 1_555
H22_4 O11_4 1_555 1_555
S1_4 O1_4 1_555 1_555
O1_4 Zn4 1_555 1_555
O2_4 S1_4 1_555 1_555
O3_4 S1_4 1_555 1_555
O4_4 S1_4 1_555 1_555
O9_4 H17_4 1_555 1_555
O10_4 H19_4 1_555 1_555
N2_4 N6_4 1_555 1_555
N5_4 C11_4 1_555 1_555
N6_4 C13_4 1_555 1_555
C1_4 C2_4 1_555 1_555
C2_4 C3_4 1_555 1_555
C3_4 N2_4 1_555 1_555
C4_4 C3_4 1_555 1_555
C11_4 C12_4 1_555 1_555
C12_4 C13_4 1_555 1_555
C13_4 C14_4 1_555 1_555
C14_4 C15_4 1_555 1_555
C15_4 N5_4 1_555 1_555
H1_4 C1_4 1_555 1_555
H2_4 C2_4 1_555 1_555
H3_4 C4_4 1_555 1_555
H10_4 C12_4 1_555 1_555
H11_4 C14_4 1_555 1_555
H12_4 C15_4 1_555 1_555
H16_4 C20_4 1_555 1_555
H18_4 O9_4 1_555 1_555
H20_4 O10_4 1_555 1_555
Zn4 O9_4 1_555 1_555
Zn3_2 O4_4 1_555 1_555
O13_2 Zn4 1_555 1_555
O6_4 Zn3_2 1_555 1_555
O10_4 Zn4 1_555 1_555
N5_4 Zn3_2 1_555 1_555
S2_4 O13_2 1_555 1_555
O12_2 S2_4 1_555 1_555
O8_4 S2_4 1_555 1_555
N10_2 C6_4 1_555 1_555
C6_4 C7_4 1_555 1_555
C7_4 C8_4 1_555 1_555
C9_4 C8_4 1_555 1_555
C10_4 N10_2 1_555 1_555
H5_4 C6_4 1_555 1_555
H6_4 C7_4 1_555 1_555
H7_4 C9_4 1_555 1_555
H8_4 C10_4 1_555 1_555
C9_4 C10_4 1_555 1_555

#END
