
###############################################################################
#
# This file contains modified crystal structure data generated from the
# MOF subset of the Cambridge Structural Database (CSD) v543 
# hosted by the Cambridge Crystallographic Data Centre (CCDC).
#
# This work is licensed under the Creative Commons
# Attribution-NonCommercial-ShareAlike 4.0 International License.
# To view a copy of this license, visit
# http://creativecommons.org/licenses/by-nc-sa/4.0/
# or send a letter to
# Creative Commons, PO Box 1866, Mountain View, CA 94042, USA.
#
# CIF created using the CSD Python API on 29 September 2022
# The structure has been converted into the P1 space group
# The structure has a 3D framework
# The original CSD entry DEBNOR is in the monoclinic crystal system
# The framework has been calculated to contain at least 10.0% void space
# The void calculation uses a probe of radius 1.32A, grid spacing 0.4
#
###############################################################################

data_DEBNOR
_chemical_formula_moiety         '(C144 H144 N32 O30 Zn8)n'
_symmetry_cell_setting           triclinic
_symmetry_space_group_name_H-M   'P 1'
_symmetry_Int_Tables_number      1
_space_group_name_Hall           'P 1'
loop_
_symmetry_equiv_pos_site_id
_symmetry_equiv_pos_as_xyz
1 x,y,z
_cell_length_a                   13.0955(2)
_cell_length_b                   14.3912(2)
_cell_length_c                   21.1992(4)
_cell_angle_alpha                90
_cell_angle_beta                 93.4790(10)
_cell_angle_gamma                90
_cell_volume                     3987.84
loop_
_atom_site_label
_atom_site_type_symbol
_atom_site_fract_x
_atom_site_fract_y
_atom_site_fract_z
C32 C 0.01390(18) 0.20835(17) 0.17658(11)
H32 H 0.0532 0.2557 0.1607
C33 C 0.09289(18) 0.07948(17) 0.11676(11)
H33 H 0.1336 0.0318 0.1387
H34 H 0.1391 0.1281 0.1047
C34 C 0.04109(18) 0.03768(16) 0.05748(11)
N8 N 0.02115(14) 0.11865(13) 0.16035(9)
C64 C 0.08337(18) 0.68039(16) 0.30560(11)
H64 H 0.1500 0.6941 0.3204
C69 C 0.02920(17) 0.60738(16) 0.44392(11)
C70 C 0.09585(18) 0.67515(17) 0.46887(11)
H69 H 0.1570 0.6862 0.4501
C71 C 0.07223(17) 0.72632(17) 0.52133(11)
H70 H 0.1172 0.7720 0.5370
C72 C 0.05223(19) 0.55594(17) 0.38456(11)
H71 H 0.0134 0.4985 0.3820
H72 H 0.1244 0.5403 0.3858
N15 N 0.03249(14) 0.72469(13) 0.25886(9)
N16 N 0.02572(14) 0.61318(13) 0.32864(9)
O15 O 0.04135(11) 0.56798(11) 0.81638(7)
Zn7 Zn 0.11877(2) 0.65486(2) 0.76379(2)
Zn8 Zn 0.08680(2) 0.81093(2) 0.19581(2)
C35 C 0.08196(18) 0.95723(17) 0.03182(11)
H35 H 0.1371 0.9279 0.0531
C44 C 0.09607(17) 0.86649(16) 0.77125(11)
H44 H 0.1475 0.8796 0.7442
C45 C 0.04846(17) 0.92997(17) 0.80633(11)
H45 H 0.0604 0.9937 0.8077
C50 C 0.04180(18) 0.92048(16) 0.97529(11)
H50 H 0.0706 0.8672 0.9590
N11 N 0.05642(14) 0.77901(13) 0.78182(9)
Zn1 Zn 0.88123(2) 0.34514(2) 0.23621(2)
Zn2 Zn 0.41320(2) 0.31093(2) 0.30419(2)
C1 C 0.78875(16) 0.35041(16) 0.34611(11)
C2 C 0.73757(17) 0.39509(16) 0.40066(10)
H1 H 0.6990 0.4488 0.3851
H2 H 0.7899 0.4168 0.4315
C3 C 0.66609(17) 0.32981(17) 0.43313(11)
H3 H 0.7045 0.2758 0.4482
H4 H 0.6408 0.3611 0.4696
C4 C 0.57607(16) 0.29790(16) 0.39073(10)
C5 C 0.28214(16) 0.42368(16) 0.22905(11)
C6 C 0.22636(17) 0.51399(17) 0.21294(12)
H5 H 0.2692 0.5517 0.1873
H6 H 0.2173 0.5477 0.2518
C7 C 0.12224(17) 0.50259(16) 0.17783(11)
H7 H 0.0932 0.5637 0.1694
H8 H 0.1316 0.4730 0.1375
C8 C 0.04706(17) 0.44582(16) 0.21329(11)
C9 C 0.31258(18) 0.19819(16) 0.40840(11)
H9 H 0.3735 0.1769 0.4281
C10 C 0.21793(18) 0.17938(16) 0.42714(11)
H10 H 0.2016 0.1434 0.4616
C11 C 0.20471(17) 0.26864(16) 0.34281(11)
H11 H 0.1768 0.3045 0.3096
C12 C 0.06284(17) 0.31592(16) 0.74698(11)
H12 H 0.1154 0.2987 0.7761
C13 C 0.06827(17) 0.38449(17) 0.70400(11)
H13 H 0.1242 0.4225 0.6977
C15 C 0.03995(17) 0.23456(17) 0.39086(11)
H15 H 0.0089 0.1736 0.3932
H16 H 0.0097 0.2658 0.3537
C16 C 0.01800(17) 0.28993(16) 0.44930(11)
C17 C 0.08494(17) 0.35719(16) 0.47416(11)
H17 H 0.1457 0.3687 0.4550
C18 C 0.06211(18) 0.40725(16) 0.52724(11)
H18 H 0.1084 0.4512 0.5438
C23 C 0.72474(18) 0.27829(17) 0.13200(11)
H23 H 0.7676 0.2326 0.1174
C24 C 0.63084(18) 0.29961(16) 0.10605(11)
H24 H 0.5975 0.2718 0.0710
C25 C 0.66647(17) 0.38919(16) 0.18758(11)
H25 H 0.6604 0.4346 0.2183
C26 C 0.49946(17) 0.42193(18) 0.12687(11)
H26 H 0.4927 0.4712 0.1576
H27 H 0.4414 0.3805 0.1292
C27 C 0.50013(17) 0.46327(16) 0.06125(11)
C28 C 0.58751(17) 0.50465(17) 0.03991(11)
H28 H 0.6466 0.5078 0.0664
C29 C 0.41268(17) 0.45881(16) 0.02037(11)
H29 H 0.3538 0.4309 0.0339
C30 C 0.90393(17) 0.13351(16) 0.22875(11)
H30 H 0.8525 0.1204 0.2558
C31 C 0.95154(17) 0.07003(17) 0.19367(11)
H31 H 0.9396 0.0063 0.1923
C36 C 0.95820(18) 0.07952(16) 0.02471(11)
H36 H 0.9294 0.1328 0.0410
N1 N 0.30427(14) 0.25444(13) 0.35512(9)
N2 N 0.15017(14) 0.22426(14) 0.38485(9)
N5 N 0.74698(14) 0.33500(13) 0.18344(9)
N6 N 0.59461(14) 0.37030(13) 0.14174(9)
N7 N 0.94358(14) 0.22099(13) 0.21818(9)
O1 O 0.84239(12) 0.40545(11) 0.31377(7)
O2 O 0.77985(12) 0.26633(11) 0.33451(7)
O3 O 0.53755(11) 0.35732(11) 0.35085(7)
O4 O 0.54145(11) 0.21811(11) 0.39594(7)
O5 O 0.35035(11) 0.42881(11) 0.27523(7)
O6 O 0.26298(12) 0.35144(11) 0.19913(8)
O8 O 0.06904(12) 0.41494(11) 0.26675(7)
N18 N 0.46751(14) 0.22469(13) 0.24114(9)
O17 O 0.95865(11) 0.43202(11) 0.18362(7)
C37 C 0.27526(18) 0.72171(17) 0.86800(11)
H37 H 0.2324 0.7674 0.8826
C38 C 0.36916(18) 0.70039(16) 0.89395(11)
H38 H 0.4025 0.7282 0.9290
C39 C 0.33353(17) 0.61081(16) 0.81242(11)
H39 H 0.3396 0.5654 0.7817
C40 C 0.50054(17) 0.57807(18) 0.87313(11)
H40 H 0.5073 0.5288 0.8424
H41 H 0.5586 0.6195 0.8708
C41 C 0.49987(17) 0.53673(16) 0.93875(11)
C42 C 0.41249(17) 0.49535(17) 0.96009(11)
H42 H 0.3534 0.4922 0.9336
C43 C 0.58732(17) 0.54119(16) 0.97963(11)
H43 H 0.6462 0.5691 0.9661
N9 N 0.25302(14) 0.66500(13) 0.81656(9)
N10 N 0.40539(14) 0.62970(13) 0.85826(9)
C49 C 0.91804(18) 0.04277(17) 0.96818(11)
H49 H 0.8629 0.0721 0.9469
Zn4 Zn 0.58680(2) 0.68907(2) 0.69581(2)
C51 C 0.21125(16) 0.64959(16) 0.65389(11)
C52 C 0.26243(17) 0.60491(16) 0.59934(10)
H51 H 0.3010 0.5512 0.6149
H52 H 0.2101 0.5832 0.5685
C53 C 0.33391(17) 0.67019(17) 0.56687(11)
H53 H 0.2955 0.7242 0.5518
H54 H 0.3592 0.6389 0.5304
C54 C 0.42393(16) 0.70210(16) 0.60927(10)
C55 C 0.71786(16) 0.57632(16) 0.77095(11)
C56 C 0.77364(17) 0.48601(17) 0.78706(12)
H55 H 0.7308 0.4483 0.8127
H56 H 0.7827 0.4523 0.7482
C57 C 0.87776(17) 0.49741(16) 0.82217(11)
H57 H 0.9068 0.4363 0.8306
H58 H 0.8684 0.5270 0.8625
C58 C 0.95294(17) 0.55418(16) 0.78671(11)
C59 C 0.68742(18) 0.80181(16) 0.59160(11)
H59 H 0.6265 0.8231 0.5719
C60 C 0.78207(18) 0.82062(16) 0.57286(11)
H60 H 0.7984 0.8566 0.5384
C61 C 0.79529(17) 0.73136(16) 0.65719(11)
H61 H 0.8232 0.6955 0.6904
C62 C 0.93716(17) 0.68408(16) 0.25302(11)
H62 H 0.8846 0.7013 0.2239
C63 C 0.93173(17) 0.61551(17) 0.29600(11)
H63 H 0.8758 0.5775 0.3023
C65 C 0.96005(17) 0.76544(17) 0.60914(11)
H65 H 0.9911 0.8264 0.6068
H66 H 0.9903 0.7342 0.6463
C66 C 0.98200(17) 0.71007(16) 0.55070(11)
C67 C 0.91506(17) 0.64281(16) 0.52584(11)
H67 H 0.8543 0.6313 0.5450
C68 C 0.93789(18) 0.59275(16) 0.47276(11)
H68 H 0.8916 0.5488 0.4562
N13 N 0.69573(14) 0.74556(13) 0.64488(9)
N14 N 0.84983(14) 0.77574(14) 0.61515(9)
O9 O 0.15761(12) 0.59455(11) 0.68623(7)
O10 O 0.22015(12) 0.73367(11) 0.66549(7)
O11 O 0.46245(11) 0.64268(11) 0.64915(7)
O12 O 0.45855(11) 0.78189(11) 0.60406(7)
O13 O 0.64965(11) 0.57119(11) 0.72477(7)
O14 O 0.73702(12) 0.64856(11) 0.80087(8)
O16 O 0.93096(12) 0.58506(11) 0.73325(7)
N17 N 0.53249(14) 0.77531(13) 0.75886(9)
C14 C 0.91663(18) 0.31961(16) 0.69440(11)
H14 H 0.8500 0.3059 0.6796
C19 C 0.97080(17) 0.39262(16) 0.55608(11)
C20 C 0.90415(18) 0.32485(17) 0.53113(11)
H19 H 0.8430 0.3138 0.5499
C21 C 0.92777(17) 0.27368(17) 0.47867(11)
H20 H 0.8828 0.2280 0.4630
C22 C 0.94777(19) 0.44406(17) 0.61544(11)
H21 H 0.9866 0.5015 0.6180
H22 H 0.8756 0.4597 0.6142
N3 N 0.96751(14) 0.27531(13) 0.74114(9)
N4 N 0.97428(14) 0.38682(13) 0.67136(9)
Zn9 Zn 0.91320(2) 0.18907(2) 0.80419(2)
C6_2 C 0.27364(17) 0.01399(17) 0.28706(12)
H5_2 H 0.2308 0.0517 0.3127
H6_2 H 0.2827 0.0477 0.2482
C7_2 C 0.37776(17) 0.00259(16) 0.32217(11)
H7_2 H 0.4068 0.0637 0.3306
C37_2 C 0.22474(18) 0.22171(17) 0.63200(11)
H37_2 H 0.2676 0.2674 0.6174
C38_2 C 0.13084(18) 0.20039(16) 0.60605(11)
H38_2 H 0.0975 0.2282 0.5710
C39_2 C 0.16647(17) 0.11081(16) 0.68758(11)
H39_2 H 0.1604 0.0654 0.7183
C41_2 C 0.00013(17) 0.03673(16) 0.56125(11)
N9_2 N 0.24698(14) 0.16500(13) 0.68344(9)
N10_2 N 0.09461(14) 0.12970(13) 0.64174(9)
Zn3 Zn 0.38123(2) 0.15486(2) 0.73621(2)
C51_2 C 0.28875(16) 0.14959(16) 0.84611(11)
C52_2 C 0.23757(17) 0.10491(16) 0.90066(10)
H51_2 H 0.1990 0.0512 0.8851
H52_2 H 0.2899 0.0832 0.9315
C53_2 C 0.16609(17) 0.17019(17) 0.93313(11)
H53_2 H 0.2045 0.2242 0.9482
H54_2 H 0.1408 0.1389 0.9696
C54_2 C 0.07607(16) 0.20210(16) 0.89073(10)
O9_2 O 0.34239(12) 0.09455(11) 0.81377(7)
O10_2 O 0.27985(12) 0.23367(11) 0.83451(7)
O11_2 O 0.03755(11) 0.14268(11) 0.85085(7)
O12_2 O 0.04145(11) 0.28189(11) 0.89594(7)
N19 N 0.44358(14) 0.27901(13) 0.71818(9)
O18 O 0.45865(11) 0.06798(11) 0.68362(7)
C5_2 C 0.21786(16) 0.92368(16) 0.27095(11)
H8_2 H 0.3684 0.9730 0.3625
C8_2 C 0.45294(17) 0.94582(16) 0.28671(11)
C9_2 C 0.18742(18) 0.69819(16) 0.09160(11)
H9_2 H 0.1265 0.6769 0.0719
C10_2 C 0.28207(18) 0.67938(16) 0.07286(11)
H10_2 H 0.2984 0.6434 0.0384
C11_2 C 0.29529(17) 0.76864(16) 0.15719(11)
H11_2 H 0.3232 0.8045 0.1904
C15_2 C 0.46005(17) 0.73456(17) 0.10914(11)
H15_2 H 0.4911 0.6736 0.1068
H16_2 H 0.4903 0.7658 0.1463
C16_2 C 0.48200(17) 0.78993(16) 0.05070(11)
C17_2 C 0.41506(17) 0.85719(16) 0.02584(11)
H17_2 H 0.3543 0.8687 0.0450
C21_2 C 0.57223(17) 0.77368(17) 0.02133(11)
H20_2 H 0.6172 0.7280 0.0370
C26_2 C 0.00054(17) 0.92193(18) 0.37313(11)
H26_2 H 0.0073 0.9712 0.3424
H27_2 H 0.0586 0.8805 0.3708
C29_2 C 0.08732(17) 0.95881(16) 0.47963(11)
H29_2 H 0.1462 0.9309 0.4661
N1_2 N 0.19573(14) 0.75444(13) 0.14488(9)
N2_2 N 0.34983(14) 0.72426(14) 0.11515(9)
O5_2 O 0.14965(11) 0.92881(11) 0.22477(7)
O6_2 O 0.23702(12) 0.85144(11) 0.30087(8)
O7 O 0.54135(11) 0.93202(11) 0.31638(7)
O8_2 O 0.43096(12) 0.91494(11) 0.23325(7)
C42_2 C 0.08751(17) 0.99535(17) 0.53991(11)
H42_2 H 0.1466 0.9922 0.5664
Zn5 Zn 0.61877(2) 0.84514(2) 0.26379(2)
C12_2 C 0.43716(17) 0.81592(16) 0.75302(11)
H12_2 H 0.3846 0.7987 0.7239
C13_2 C 0.43173(17) 0.88449(17) 0.79600(11)
H13_2 H 0.3758 0.9225 0.8023
C14_2 C 0.58337(18) 0.81961(16) 0.80560(11)
H14_2 H 0.6500 0.8059 0.8204
C18_2 C 0.43789(18) 0.90725(16) 0.97276(11)
H18_2 H 0.3916 0.9512 0.9562
C19_2 C 0.52920(17) 0.89262(16) 0.94392(11)
C20_2 C 0.59585(18) 0.82485(17) 0.96887(11)
H19_2 H 0.6570 0.8138 0.9501
C22_2 C 0.55223(19) 0.94406(17) 0.88456(11)
H22_2 H 0.6244 0.9597 0.8858
N4_2 N 0.52572(14) 0.88682(13) 0.82864(9)
C62_2 C 0.56284(17) 0.18408(16) 0.24698(11)
H62_2 H 0.6154 0.2013 0.2761
C63_2 C 0.56827(17) 0.11551(17) 0.20400(11)
H63_2 H 0.6242 0.0775 0.1977
C64_2 C 0.41663(18) 0.18039(16) 0.19440(11)
H64_2 H 0.3500 0.1941 0.1796
C68_2 C 0.56211(18) 0.09275(16) 0.02724(11)
H68_2 H 0.6084 0.0488 0.0438
C69_2 C 0.47080(17) 0.10738(16) 0.05608(11)
C70_2 C 0.40415(18) 0.17515(17) 0.03113(11)
H69_2 H 0.3430 0.1862 0.0499
C72_2 C 0.44777(19) 0.05594(17) 0.11544(11)
H72_2 H 0.3756 0.0403 0.1142
N16_2 N 0.47428(14) 0.11318(13) 0.17136(9)
C28_2 C 0.91249(17) 0.00465(17) 0.46009(11)
H28_2 H 0.8534 0.0078 0.4336
C40_2 C 0.99946(17) 0.07807(18) 0.62687(11)
H40_2 H 0.9927 0.0288 0.6576
H41_2 H 0.9414 0.1195 0.6292
C43_2 C 0.91268(17) 0.04119(16) 0.52037(11)
H43_2 H 0.8538 0.0691 0.5339
C55_2 C 0.78214(16) 0.07632(16) 0.72905(11)
H58_2 H 0.6316 0.0270 0.6375
C58_2 C 0.54706(17) 0.05418(16) 0.71329(11)
C59_2 C 0.81258(18) 0.30181(16) 0.90840(11)
H59_2 H 0.8735 0.3231 0.9281
C60_2 C 0.71793(18) 0.32062(16) 0.92714(11)
H60_2 H 0.7016 0.3566 0.9616
C61_2 C 0.70471(17) 0.23136(16) 0.84281(11)
H61_2 H 0.6768 0.1955 0.8096
C65_2 C 0.53995(17) 0.26544(17) 0.89086(11)
H65_2 H 0.5089 0.3264 0.8932
H66_2 H 0.5097 0.2342 0.8537
C66_2 C 0.51800(17) 0.21007(16) 0.94930(11)
C67_2 C 0.58494(17) 0.14281(16) 0.97416(11)
H67_2 H 0.6457 0.1313 0.9550
C71_2 C 0.42777(17) 0.22632(17) 0.97867(11)
H70_2 H 0.3828 0.2720 0.9630
N13_2 N 0.80427(14) 0.24556(13) 0.85512(9)
N14_2 N 0.65017(14) 0.27574(14) 0.88485(9)
O13_2 O 0.85035(11) 0.07119(11) 0.77523(7)
O14_2 O 0.76298(12) 0.14856(11) 0.69913(8)
O16_2 O 0.56904(12) 0.08506(11) 0.76675(7)
C1_2 C 0.71125(16) 0.85041(16) 0.15389(11)
C2_2 C 0.76243(17) 0.89509(16) 0.09934(10)
H1_2 H 0.8010 0.9488 0.1149
H2_2 H 0.7101 0.9168 0.0685
C3_2 C 0.83391(17) 0.82981(17) 0.06687(11)
H3_2 H 0.7955 0.7758 0.0518
H4_2 H 0.8592 0.8611 0.0304
C4_2 C 0.92393(16) 0.79790(16) 0.10927(10)
C23_2 C 0.77526(18) 0.77829(17) 0.36800(11)
H23_2 H 0.7324 0.7326 0.3826
C24_2 C 0.86916(18) 0.79961(16) 0.39395(11)
H24_2 H 0.9025 0.7718 0.4290
C25_2 C 0.83353(17) 0.88919(16) 0.31242(11)
H25_2 H 0.8396 0.9346 0.2817
C27_2 C 0.99987(17) 0.96327(16) 0.43875(11)
C30_2 C 0.59607(17) 0.63351(16) 0.27125(11)
H30_2 H 0.6475 0.6204 0.2442
C31_2 C 0.54846(17) 0.57003(17) 0.30633(11)
H31_2 H 0.5604 0.5063 0.3077
C32_2 C 0.48610(18) 0.70835(17) 0.32342(11)
H32_2 H 0.4468 0.7557 0.3393
C33_2 C 0.40711(18) 0.57948(17) 0.38324(11)
H33_2 H 0.3664 0.5318 0.3613
H34_2 H 0.3609 0.6281 0.3953
C34_2 C 0.45891(18) 0.53768(16) 0.44252(11)
C35_2 C 0.41804(18) 0.45723(17) 0.46818(11)
H35_2 H 0.3629 0.4279 0.4469
C36_2 C 0.54180(18) 0.57952(16) 0.47529(11)
H36_2 H 0.5706 0.6328 0.4590
N5_2 N 0.75302(14) 0.83500(13) 0.31656(9)
N6_2 N 0.90539(14) 0.87030(13) 0.35826(9)
N7_2 N 0.55642(14) 0.72099(13) 0.28182(9)
N8_2 N 0.47885(14) 0.61865(13) 0.33965(9)
O1_2 O 0.65761(12) 0.90545(11) 0.18623(7)
O2_2 O 0.72015(12) 0.76633(11) 0.16549(7)
O3_2 O 0.96245(11) 0.85732(11) 0.14915(7)
O4_2 O 0.95855(11) 0.71811(11) 0.10406(7)
C44_2 C 0.40393(17) 0.36649(16) 0.72875(11)
H44_2 H 0.3525 0.3796 0.7558
C45_2 C 0.45154(17) 0.42997(17) 0.69367(11)
H45_2 H 0.4396 0.4937 0.6923
C46 C 0.51390(18) 0.29165(17) 0.67658(11)
H46 H 0.5532 0.2443 0.6607
C47 C 0.59289(18) 0.42052(17) 0.61676(11)
H47 H 0.6336 0.4682 0.6387
H48 H 0.6391 0.3719 0.6047
C48 C 0.54109(18) 0.46232(16) 0.55748(11)
C49_2 C 0.58196(18) 0.54277(17) 0.53182(11)
H49_2 H 0.6371 0.5721 0.5531
C50_2 C 0.45820(18) 0.42048(16) 0.52471(11)
H50_2 H 0.4294 0.3672 0.5410
N12 N 0.52115(14) 0.38135(13) 0.66035(9)
C56_2 C 0.72636(17) 0.98601(17) 0.71294(12)
H55_2 H 0.7692 0.9483 0.6873
H56_2 H 0.7173 0.9523 0.7518
C57_2 C 0.62224(17) 0.99741(16) 0.67783(11)
H57_2 H 0.5932 0.9363 0.6694
C46_2 C 0.98610(18) 0.79165(17) 0.82342(11)
H46_2 H 0.9468 0.7443 0.8393
C47_2 C 0.90711(18) 0.92052(17) 0.88324(11)
H47_2 H 0.8664 0.9682 0.8613
H48_2 H 0.8609 0.8719 0.8953
C48_2 C 0.95891(18) 0.96232(16) 0.94252(11)
N12_2 N 0.97885(14) 0.88135(13) 0.83965(9)
H21_2 H 0.5134 0.0015 0.8820
H71_2 H 0.4866 0.9985 0.1180
loop_
_geom_bond_atom_site_label_1
_geom_bond_atom_site_label_2
_geom_bond_site_symmetry_1
_geom_bond_site_symmetry_2
C32 H32 1_555 1_555
C33 H33 1_555 1_555
H34 C33 1_555 1_555
C34 C33 1_555 1_555
C32 N8 1_555 1_555
C33 N8 1_555 1_555
C64 H64 1_555 1_555
C70 C69 1_555 1_555
H69 C70 1_555 1_555
H70 C71 1_555 1_555
C72 C69 1_555 1_555
H71 C72 1_555 1_555
H72 C72 1_555 1_555
Zn7 O15 1_555 1_555
Zn8 N15 1_555 1_555
C64 N15 1_555 1_555
C64 N16 1_555 1_555
C70 C71 1_555 1_555
C72 N16 1_555 1_555
H35 C35 1_555 1_555
C44 H44 1_555 1_555
C45 C44 1_555 1_555
H45 C45 1_555 1_555
H50 C50 1_555 1_555
N11 C44 1_555 1_555
Zn7 N11 1_555 1_555
Zn1 N5 1_555 1_555
Zn2 N1 1_555 1_555
C1 C2 1_555 1_555
C2 H1 1_555 1_555
H2 C2 1_555 1_555
C3 C2 1_555 1_555
H3 C3 1_555 1_555
H4 C3 1_555 1_555
C4 C3 1_555 1_555
C5 C6 1_555 1_555
C6 H5 1_555 1_555
H6 C6 1_555 1_555
C7 C6 1_555 1_555
H7 C7 1_555 1_555
H8 C7 1_555 1_555
C8 C7 1_555 1_555
C9 H9 1_555 1_555
C10 C9 1_555 1_555
H10 C10 1_555 1_555
C11 H11 1_555 1_555
C12 H12 1_555 1_555
C13 C12 1_555 1_555
H13 C13 1_555 1_555
C15 H15 1_555 1_555
H16 C15 1_555 1_555
C16 C15 1_555 1_555
C17 C16 1_555 1_555
H17 C17 1_555 1_555
C18 C17 1_555 1_555
H18 C18 1_555 1_555
C23 H23 1_555 1_555
C24 C23 1_555 1_555
H24 C24 1_555 1_555
C25 H25 1_555 1_555
C26 H26 1_555 1_555
H27 C26 1_555 1_555
C27 C26 1_555 1_555
C28 C27 1_555 1_555
H28 C28 1_555 1_555
C29 C27 1_555 1_555
H29 C29 1_555 1_555
C30 H30 1_555 1_555
C31 C30 1_555 1_555
H31 C31 1_555 1_555
H36 C36 1_555 1_555
N1 C9 1_555 1_555
N2 C10 1_555 1_555
N5 C23 1_555 1_555
N6 C24 1_555 1_555
N7 Zn1 1_555 1_555
O1 Zn1 1_555 1_555
O2 C1 1_555 1_555
O3 Zn2 1_555 1_555
O4 C4 1_555 1_555
O5 Zn2 1_555 1_555
O6 C5 1_555 1_555
O8 C8 1_555 1_555
N18 Zn2 1_555 1_555
O17 Zn1 1_555 1_555
C1 O1 1_555 1_555
C4 O3 1_555 1_555
C5 O5 1_555 1_555
C11 N1 1_555 1_555
C11 N2 1_555 1_555
C15 N2 1_555 1_555
C25 N5 1_555 1_555
C25 N6 1_555 1_555
C26 N6 1_555 1_555
C30 N7 1_555 1_555
C37 H37 1_555 1_555
C38 C37 1_555 1_555
H38 C38 1_555 1_555
C39 H39 1_555 1_555
C40 H40 1_555 1_555
H41 C40 1_555 1_555
C41 C40 1_555 1_555
H42 C42 1_555 1_555
H43 C43 1_555 1_555
N9 C37 1_555 1_555
N10 C38 1_555 1_555
H49 C49 1_555 1_555
Zn7 N9 1_555 1_555
Zn4 N13 1_555 1_555
C51 C52 1_555 1_555
C52 H51 1_555 1_555
H52 C52 1_555 1_555
C53 C52 1_555 1_555
H53 C53 1_555 1_555
H54 C53 1_555 1_555
C54 C53 1_555 1_555
C55 C56 1_555 1_555
C56 H55 1_555 1_555
H56 C56 1_555 1_555
C57 C56 1_555 1_555
H57 C57 1_555 1_555
H58 C57 1_555 1_555
C58 C57 1_555 1_555
C59 H59 1_555 1_555
C60 C59 1_555 1_555
H60 C60 1_555 1_555
C61 H61 1_555 1_555
C62 H62 1_555 1_555
C63 C62 1_555 1_555
H63 C63 1_555 1_555
C65 H65 1_555 1_555
H66 C65 1_555 1_555
C66 C65 1_555 1_555
C67 C66 1_555 1_555
H67 C67 1_555 1_555
C68 C67 1_555 1_555
H68 C68 1_555 1_555
N13 C59 1_555 1_555
N14 C60 1_555 1_555
O9 Zn7 1_555 1_555
O10 C51 1_555 1_555
O11 Zn4 1_555 1_555
O12 C54 1_555 1_555
O13 Zn4 1_555 1_555
O14 C55 1_555 1_555
O16 C58 1_555 1_555
N17 Zn4 1_555 1_555
C39 N9 1_555 1_555
C39 N10 1_555 1_555
C40 N10 1_555 1_555
C41 C42 1_555 1_555
C41 C43 1_555 1_555
C51 O9 1_555 1_555
C54 O11 1_555 1_555
C55 O13 1_555 1_555
C61 N13 1_555 1_555
C61 N14 1_555 1_555
C65 N14 1_555 1_555
C14 H14 1_555 1_555
C20 C19 1_555 1_555
H19 C20 1_555 1_555
H20 C21 1_555 1_555
C22 C19 1_555 1_555
H21 C22 1_555 1_555
H22 C22 1_555 1_555
Zn9 N3 1_555 1_555
C14 N3 1_555 1_555
C14 N4 1_555 1_555
C20 C21 1_555 1_555
C22 N4 1_555 1_555
C6_2 H5_2 1_555 1_555
H6_2 C6_2 1_555 1_555
C7_2 C6_2 1_555 1_555
H7_2 C7_2 1_555 1_555
C37_2 H37_2 1_555 1_555
C38_2 C37_2 1_555 1_555
H38_2 C38_2 1_555 1_555
C39_2 H39_2 1_555 1_555
N9_2 C37_2 1_555 1_555
N10_2 C38_2 1_555 1_555
Zn3 N9_2 1_555 1_555
C51_2 C52_2 1_555 1_555
C52_2 H51_2 1_555 1_555
H52_2 C52_2 1_555 1_555
C53_2 C52_2 1_555 1_555
H53_2 C53_2 1_555 1_555
H54_2 C53_2 1_555 1_555
C54_2 C53_2 1_555 1_555
O9_2 Zn3 1_555 1_555
O10_2 C51_2 1_555 1_555
O12_2 C54_2 1_555 1_555
N19 Zn3 1_555 1_555
O18 Zn3 1_555 1_555
C39_2 N9_2 1_555 1_555
C39_2 N10_2 1_555 1_555
C51_2 O9_2 1_555 1_555
C54_2 O11_2 1_555 1_555
Zn8 N1_2 1_555 1_555
C9_2 H9_2 1_555 1_555
C10_2 C9_2 1_555 1_555
H10_2 C10_2 1_555 1_555
C11_2 H11_2 1_555 1_555
C15_2 H15_2 1_555 1_555
H16_2 C15_2 1_555 1_555
C16_2 C15_2 1_555 1_555
C17_2 C16_2 1_555 1_555
H17_2 C17_2 1_555 1_555
C21_2 C16_2 1_555 1_555
H20_2 C21_2 1_555 1_555
C26_2 H26_2 1_555 1_555
H27_2 C26_2 1_555 1_555
H29_2 C29_2 1_555 1_555
N1_2 C9_2 1_555 1_555
N2_2 C10_2 1_555 1_555
O5_2 Zn8 1_555 1_555
O6_2 C5_2 1_555 1_555
O7 C8_2 1_555 1_555
O8_2 C8_2 1_555 1_555
C42_2 C29_2 1_555 1_555
H42_2 C42_2 1_555 1_555
Zn5 O7 1_555 1_555
C5_2 O5_2 1_555 1_555
C11_2 N1_2 1_555 1_555
C11_2 N2_2 1_555 1_555
C15_2 N2_2 1_555 1_555
C12_2 H12_2 1_555 1_555
C13_2 C12_2 1_555 1_555
H13_2 C13_2 1_555 1_555
C14_2 H14_2 1_555 1_555
H18_2 C18_2 1_555 1_555
C19_2 C18_2 1_555 1_555
C20_2 C19_2 1_555 1_555
H19_2 C20_2 1_555 1_555
C22_2 C19_2 1_555 1_555
H22_2 C22_2 1_555 1_555
N17 C12_2 1_555 1_555
N4_2 C13_2 1_555 1_555
C14_2 N17 1_555 1_555
C14_2 N4_2 1_555 1_555
C22_2 N4_2 1_555 1_555
C62_2 H62_2 1_555 1_555
C63_2 C62_2 1_555 1_555
H63_2 C63_2 1_555 1_555
C64_2 H64_2 1_555 1_555
H68_2 C68_2 1_555 1_555
C69_2 C68_2 1_555 1_555
C70_2 C69_2 1_555 1_555
H69_2 C70_2 1_555 1_555
C72_2 C69_2 1_555 1_555
H72_2 C72_2 1_555 1_555
N18 C62_2 1_555 1_555
N16_2 C63_2 1_555 1_555
C64_2 N18 1_555 1_555
C64_2 N16_2 1_555 1_555
C72_2 N16_2 1_555 1_555
H28_2 C28_2 1_555 1_555
C40_2 H40_2 1_555 1_555
H41_2 C40_2 1_555 1_555
C43_2 C28_2 1_555 1_555
H43_2 C43_2 1_555 1_555
Zn9 N13_2 1_555 1_555
C59_2 H59_2 1_555 1_555
C60_2 C59_2 1_555 1_555
H60_2 C60_2 1_555 1_555
C61_2 H61_2 1_555 1_555
C65_2 H65_2 1_555 1_555
H66_2 C65_2 1_555 1_555
C66_2 C65_2 1_555 1_555
C67_2 C66_2 1_555 1_555
H67_2 C67_2 1_555 1_555
C71_2 C66_2 1_555 1_555
H70_2 C71_2 1_555 1_555
N13_2 C59_2 1_555 1_555
N14_2 C60_2 1_555 1_555
O13_2 Zn9 1_555 1_555
O14_2 C55_2 1_555 1_555
O18 C58_2 1_555 1_555
O16_2 C58_2 1_555 1_555
C55_2 O13_2 1_555 1_555
C61_2 N13_2 1_555 1_555
C61_2 N14_2 1_555 1_555
C65_2 N14_2 1_555 1_555
Zn5 N5_2 1_555 1_555
C1_2 C2_2 1_555 1_555
C2_2 H1_2 1_555 1_555
H2_2 C2_2 1_555 1_555
C3_2 C2_2 1_555 1_555
H3_2 C3_2 1_555 1_555
H4_2 C3_2 1_555 1_555
C4_2 C3_2 1_555 1_555
C23_2 H23_2 1_555 1_555
C24_2 C23_2 1_555 1_555
H24_2 C24_2 1_555 1_555
C25_2 H25_2 1_555 1_555
C30_2 H30_2 1_555 1_555
C31_2 C30_2 1_555 1_555
H31_2 C31_2 1_555 1_555
C32_2 H32_2 1_555 1_555
C33_2 H33_2 1_555 1_555
H34_2 C33_2 1_555 1_555
C34_2 C33_2 1_555 1_555
C35_2 C34_2 1_555 1_555
H35_2 C35_2 1_555 1_555
C36_2 C34_2 1_555 1_555
H36_2 C36_2 1_555 1_555
N5_2 C23_2 1_555 1_555
N6_2 C24_2 1_555 1_555
N7_2 Zn5 1_555 1_555
N8_2 C31_2 1_555 1_555
O1_2 Zn5 1_555 1_555
O2_2 C1_2 1_555 1_555
O4_2 C4_2 1_555 1_555
C44_2 H44_2 1_555 1_555
C45_2 C44_2 1_555 1_555
H45_2 C45_2 1_555 1_555
C46 H46 1_555 1_555
C47 H47 1_555 1_555
H48 C47 1_555 1_555
C48 C47 1_555 1_555
C49_2 C36_2 1_555 1_555
H49_2 C49_2 1_555 1_555
C50_2 C35_2 1_555 1_555
H50_2 C50_2 1_555 1_555
N19 C44_2 1_555 1_555
N12 C45_2 1_555 1_555
C56_2 H55_2 1_555 1_555
H56_2 C56_2 1_555 1_555
C57_2 C56_2 1_555 1_555
H57_2 C57_2 1_555 1_555
C1_2 O1_2 1_555 1_555
C4_2 O3_2 1_555 1_555
C25_2 N5_2 1_555 1_555
C25_2 N6_2 1_555 1_555
C30_2 N7_2 1_555 1_555
C32_2 N7_2 1_555 1_555
C32_2 N8_2 1_555 1_555
C33_2 N8_2 1_555 1_555
C46 N19 1_555 1_555
C46 N12 1_555 1_555
C47 N12 1_555 1_555
C48 C49_2 1_555 1_555
C48 C50_2 1_555 1_555
C46_2 H46_2 1_555 1_555
C47_2 H47_2 1_555 1_555
H48_2 C47_2 1_555 1_555
C48_2 C47_2 1_555 1_555
C46_2 N12_2 1_555 1_555
C47_2 N12_2 1_555 1_555

#END
