
###############################################################################
#
# This file contains modified crystal structure data generated from the
# MOF subset of the Cambridge Structural Database (CSD) v543 
# hosted by the Cambridge Crystallographic Data Centre (CCDC).
#
# This work is licensed under the Creative Commons
# Attribution-NonCommercial-ShareAlike 4.0 International License.
# To view a copy of this license, visit
# http://creativecommons.org/licenses/by-nc-sa/4.0/
# or send a letter to
# Creative Commons, PO Box 1866, Mountain View, CA 94042, USA.
#
# CIF created using the CSD Python API on 29 September 2022
# The structure has been converted into the P1 space group
# The structure has a 3D framework
# The original CSD entry DEBWEO is in the hexagonal crystal system
# The original CSD entry DEBWEO is in a Sohncke space group
# The framework has been calculated to contain at least 10.0% void space
# The void calculation uses a probe of radius 1.32A, grid spacing 0.4
#
###############################################################################

data_DEBWEO
_chemical_formula_moiety         '(C180 H120 Cu7 N36 O36 Zn7)n'
_symmetry_cell_setting           triclinic
_symmetry_space_group_name_H-M   'P 1'
_symmetry_Int_Tables_number      1
_space_group_name_Hall           'P 1'
loop_
_symmetry_equiv_pos_site_id
_symmetry_equiv_pos_as_xyz
1 x,y,z
_cell_length_a                   16.314(3)
_cell_length_b                   16.314(3)
_cell_length_c                   25.510(7)
_cell_angle_alpha                90
_cell_angle_beta                 90
_cell_angle_gamma                120
_cell_volume                     5879.79
loop_
_atom_site_label
_atom_site_type_symbol
_atom_site_fract_x
_atom_site_fract_y
_atom_site_fract_z
Zn3 Zn 0.29179(3) 0.58358(5) 0.0000
C19 C 0.0872(7) 0.4469(5) 0.0171(2)
H14 H 0.1055 0.4558 0.0530
Zn3_2 Zn 0.29179(3) 0.58358(5) 1.0000
N6 N 0.1513(4) 0.4929(3) 0.98196(16)
C28 C 0.0328(7) 0.4154(5) 0.9166(2)
H20 H 0.0160 0.4074 0.8806
C31 C 0.1246(6) 0.4774(4) 0.9322(2)
H23 H 0.1709 0.5106 0.9059
Cu1 Cu 0.5000 0.0000 0.0000
N1 N 0.3416(3) 0.4929(3) 0.01804(16)
C3 C 0.3992(4) 0.3656(4) 0.0456(2)
C4 C 0.3826(5) 0.4154(5) 0.0834(2)
H3 H 0.3914 0.4074 0.1194
C5 C 0.3528(4) 0.4774(4) 0.0678(2)
H4 H 0.3397 0.5106 0.0941
N2 N 0.4275(3) 0.2994(3) 0.05664(16)
H5 H 0.4414 0.2755 0.0294
C6 C 0.4360(5) 0.2678(4) 0.1039(2)
O1 O 0.4183(7) 0.2916(6) 0.1438(2)
C7 C 0.4571(4) 0.1886(4) 0.1041(2)
C8 C 0.4684(6) 0.1543(5) 0.1515(2)
H6 H 0.4653 0.1838 0.1829
C9 C 0.4836(6) 0.0813(4) 0.1546(2)
H7 H 0.4885 0.0574 0.1877
N3 N 0.4832(4) 0.0715(4) 0.06211(19)
C10 C 0.4924(4) 0.0406(3) 0.10794(19)
C11 C 0.4667(5) 0.1447(5) 0.0596(2)
H8 H 0.4614 0.1671 0.0262
O2 O 0.2945(3) 0.6292(3) 0.07207(15)
O3 O 0.2384(4) 0.7046(3) 0.0285(2)
C12 C 0.2651(5) 0.6855(4) 0.0690(3)
C13 C 0.2876(2) 0.7124(2) 0.1667
H9 H 0.3212 0.6788 0.1667
C14 C 0.2511(7) 0.7244(6) 0.1204(3)
C15 C 0.2035(10) 0.7732(9) 0.1201(4)
H10 H 0.1790 0.7828 0.0884
C16 C 0.1917(4) 0.8083(4) 0.1667
H11 H 0.1580 0.8420 0.1667
Zn4 Zn 0.41642(5) 0.70821(6) 0.3333
C22 C 0.9923(7) 0.3848(5) 0.0048(2)
H17 H 0.9466 0.3564 0.0319
O7 O 0.3708(3) 0.7055(3) 0.26126(15)
O12 O 0.2954(3) 0.7616(4) 0.3048(2)
C50 C 0.3145(4) 0.7349(5) 0.2643(3)
C54 C 0.2756(6) 0.7489(7) 0.2129(3)
C57 C 0.2268(9) 0.7965(10) 0.2132(4)
H37 H 0.2172 0.8210 0.2449
Cu1_2 Cu 0.5000 -0.0000 1.0000
C1 C 0.3597(5) 0.4469(5) 0.9829(2)
H1 H 0.3503 0.4558 0.9470
C2 C 0.3925(5) 0.3848(5) 0.9952(2)
H2 H 0.4098 0.3564 0.9681
Zn5 Zn 0.29179(6) 0.70821(3) 0.6667
C25 C 0.9664(6) 0.3656(4) 0.9544(2)
N11 N 0.8719(4) 0.2994(3) 0.94336(16)
H26 H 0.8341 0.2755 0.9706
C34 C 0.8318(6) 0.2678(4) 0.8961(2)
O6 O 0.8733(9) 0.2916(6) 0.8562(2)
C37 C 0.7315(6) 0.1886(4) 0.8959(2)
C40 C 0.6859(8) 0.1543(5) 0.8485(2)
H29 H 0.7185 0.1838 0.8171
C43 C 0.5977(7) 0.0813(4) 0.8454(2)
H32 H 0.5689 0.0574 0.8123
N14 N 0.5883(6) 0.0715(4) 0.93789(19)
C46 C 0.5482(5) 0.0406(3) 0.89206(19)
C49 C 0.6780(7) 0.1447(5) 0.9404(2)
H35 H 0.7057 0.1671 0.9738
O8 O 0.3347(4) 0.6292(3) 0.92793(15)
O9 O 0.3347(4) 0.7055(3) 0.73874(15)
O13 O 0.4662(5) 0.7046(3) 0.9715(2)
O14 O 0.4662(5) 0.7616(4) 0.6952(2)
C51 C 0.4204(6) 0.6855(4) 0.9310(3)
C52 C 0.4204(6) 0.7349(5) 0.7357(3)
C53 C 0.4248(3) 0.7124(2) 0.8333
H36 H 0.3576 0.6788 0.8333
C55 C 0.4733(9) 0.7244(6) 0.8796(3)
C56 C 0.4733(9) 0.7489(7) 0.7871(3)
C58 C 0.5697(13) 0.7732(9) 0.8799(4)
C59 C 0.5697(13) 0.7965(10) 0.7868(4)
H38 H 0.6038 0.7828 0.9116
H39 H 0.6038 0.8210 0.7551
C60 C 0.6166(6) 0.8083(4) 0.8333
H40 H 0.6840 0.8420 0.8333
N4 N 0.1513(4) 0.6584(3) 0.68471(16)
C17 C 0.0872(7) 0.6403(5) 0.6496(2)
H12 H 0.1055 0.6497 0.6137
C26 C 0.0328(7) 0.6174(5) 0.7501(2)
H18 H 0.0160 0.6086 0.7861
C29 C 0.1246(6) 0.6472(4) 0.7345(2)
H21 H 0.1709 0.6603 0.7608
N5 N 0.3416(5) 0.8487(4) 0.64863(16)
C18 C 0.3597(9) 0.9128(7) 0.6838(2)
H13 H 0.3503 0.8945 0.7197
C27 C 0.3826(9) 0.9672(7) 0.5833(2)
H19 H 0.3914 0.9840 0.5473
C30 C 0.3528(7) 0.8754(6) 0.5989(2)
H22 H 0.3397 0.8291 0.5726
O11 O 0.2945(5) 0.6653(4) 0.59460(15)
Cu1_3 Cu 1.0000 0.5000 0.3333
C2_2 C 0.6152(5) 0.0077(7) 0.3285(2)
H2_2 H 0.6436 0.0534 0.3014
C3_2 C 0.6344(4) 0.0336(6) 0.3789(2)
N2_2 N 0.7006(3) 0.1281(4) 0.38997(16)
H5_2 H 0.7245 0.1659 0.3627
C6_2 C 0.7322(4) 0.1682(6) 0.4372(2)
O1_2 O 0.7084(6) 0.1267(9) 0.4771(2)
C7_2 C 0.8114(4) 0.2685(6) 0.4374(2)
C8_2 C 0.8457(5) 0.3141(8) 0.4848(2)
H6_2 H 0.8162 0.2815 0.5162
C9_2 C 0.9187(4) 0.4023(7) 0.4879(2)
H7_2 H 0.9426 0.4311 0.5210
N3_2 N 0.9285(4) 0.4117(6) 0.39544(19)
C10_2 C 0.9594(3) 0.4518(5) 0.44127(19)
C11_2 C 0.8553(5) 0.3220(7) 0.3929(2)
H8_2 H 0.8329 0.2943 0.3595
N6_2 N 0.5071(3) 0.6584(5) 0.31529(16)
C19_2 C 0.5531(5) 0.6403(9) 0.3504(2)
H14_2 H 0.5442 0.6497 0.3863
C22_2 C 0.6152(5) 0.6075(9) 0.3381(2)
H17_2 H 0.6436 0.5902 0.3652
C25_2 C 0.6344(4) 0.6008(7) 0.2877(2)
C28_2 C 0.5846(5) 0.6174(9) 0.2499(2)
H20_2 H 0.5926 0.6086 0.2139
C31_2 C 0.5226(4) 0.6472(7) 0.2655(2)
H23_2 H 0.4894 0.6603 0.2392
N11_2 N 0.7006(3) 0.5725(5) 0.27669(16)
H26_2 H 0.7245 0.5586 0.3039
C34_2 C 0.7322(4) 0.5640(7) 0.2294(2)
O6_2 O 0.7084(6) 0.5817(11) 0.1895(2)
C37_2 C 0.8114(4) 0.5429(7) 0.2292(2)
C40_2 C 0.8457(5) 0.5316(9) 0.1818(2)
H29_2 H 0.8162 0.5347 0.1504
C43_2 C 0.9187(4) 0.5164(8) 0.1787(2)
H32_2 H 0.9426 0.5115 0.1456
N14_2 N 0.9285(4) 0.5168(7) 0.27122(19)
C46_2 C 0.9594(3) 0.5076(6) 0.22539(19)
C49_2 C 0.8553(5) 0.5333(9) 0.2737(2)
H35_2 H 0.8329 0.5386 0.3071
N1_2 N 0.5071(3) 0.8487(4) 0.35137(16)
C1_2 C 0.5531(5) 0.9128(7) 0.3162(2)
H1_2 H 0.5442 0.8945 0.2803
C4_2 C 0.5846(5) 0.9672(7) 0.4167(2)
H3_2 H 0.5926 0.9840 0.4527
C5_2 C 0.5226(4) 0.8754(6) 0.4011(2)
H4_2 H 0.4894 0.8291 0.4274
O2_2 O 0.3708(3) 0.6653(4) 0.40540(15)
O3_2 O 0.2954(3) 0.5338(5) 0.3618(2)
C12_2 C 0.3145(4) 0.5796(6) 0.4023(3)
C13_2 C 0.2876(2) 0.5752(3) 0.5000
H9_2 H 0.3212 0.6424 0.5000
C14_2 C 0.2756(6) 0.5267(9) 0.4537(3)
C15_2 C 0.2268(9) 0.4303(13) 0.4534(4)
H10_2 H 0.2172 0.3962 0.4217
C16_2 C 0.1917(4) 0.3834(6) 0.5000
H11_2 H 0.1580 0.3160 0.5000
O12_2 O 0.2384(4) 0.5338(5) 0.6382(2)
C50_2 C 0.2651(5) 0.5796(6) 0.5977(3)
C54_2 C 0.2511(7) 0.5267(9) 0.5463(3)
C57_2 C 0.2035(10) 0.4303(13) 0.5466(4)
H37_2 H 0.1790 0.3962 0.5783
Cu1_4 Cu 0.5000 1.0000 0.0000
Zn6 Zn 0.70821(3) 0.41642(5) 0.0000
N4_2 N 0.6584(3) 0.5071(3) 0.01804(16)
C21 C 0.0077(7) 0.6152(5) 0.0048(2)
H16 H 0.0534 0.6436 0.0319
C23 C 0.6008(4) 0.6344(4) 0.0456(2)
C26_2 C 0.6174(5) 0.5846(5) 0.0834(2)
H18_2 H 0.6086 0.5926 0.1194
C29_2 C 0.6472(4) 0.5226(4) 0.0678(2)
H21_2 H 0.6603 0.4894 0.0941
N9 N 0.5725(3) 0.7006(3) 0.05664(16)
H24 H 0.5586 0.7245 0.0294
C32 C 0.5640(5) 0.7322(4) 0.1039(2)
O4 O 0.5817(7) 0.7084(6) 0.1438(2)
C35 C 0.5429(4) 0.8114(4) 0.1041(2)
C38 C 0.5316(6) 0.8457(5) 0.1515(2)
H27 H 0.5347 0.8162 0.1829
C41 C 0.5164(6) 0.9187(4) 0.1546(2)
H30 H 0.5115 0.9426 0.1877
N12 N 0.5168(4) 0.9285(4) 0.06211(19)
C44 C 0.5076(4) 0.9594(3) 0.10794(19)
C47 C 0.5333(5) 0.8553(5) 0.0596(2)
H33 H 0.5386 0.8329 0.0262
Cu1_5 Cu 0.5000 1.0000 1.0000
Zn6_2 Zn 0.70821(3) 0.41642(5) 1.0000
C17_2 C 0.6403(5) 0.5531(5) 0.9829(2)
H12_2 H 0.6497 0.5442 0.9470
C20 C 0.6075(5) 0.6152(5) 0.9952(2)
H15 H 0.5902 0.6436 0.9681
C24 C 0.0336(6) 0.6344(4) 0.9544(2)
N10 N 0.1281(4) 0.7006(3) 0.94336(16)
H25 H 0.1659 0.7245 0.9706
C33 C 0.1682(6) 0.7322(4) 0.8961(2)
O5 O 0.1267(9) 0.7084(6) 0.8562(2)
C36 C 0.2685(6) 0.8114(4) 0.8959(2)
C39 C 0.3141(8) 0.8457(5) 0.8485(2)
H28 H 0.2815 0.8162 0.8171
C42 C 0.4023(7) 0.9187(4) 0.8454(2)
H31 H 0.4311 0.9426 0.8123
N13 N 0.4117(6) 0.9285(4) 0.93789(19)
C45 C 0.4518(5) 0.9594(3) 0.89206(19)
C48 C 0.3220(7) 0.8553(5) 0.9404(2)
H34 H 0.2943 0.8329 0.9738
C18_2 C 0.9128(7) 0.5531(5) 0.0171(2)
H13_2 H 0.8945 0.5442 0.0530
O10 O 0.7055(3) 0.3708(3) 0.07207(15)
N5_2 N 0.8487(4) 0.5071(3) 0.98196(16)
C27_2 C 0.9672(7) 0.5846(5) 0.9166(2)
H19_2 H 0.9840 0.5926 0.8806
C30_2 C 0.8754(6) 0.5226(4) 0.9322(2)
H22_2 H 0.8291 0.4894 0.9059
O11_2 O 0.6653(4) 0.3708(3) 0.92793(15)
Zn3_3 Zn 0.70821(6) 0.29179(3) 0.6667
N6_3 N 0.6584(5) 0.1513(4) 0.64863(16)
C19_3 C 0.6403(9) 0.0872(7) 0.6838(2)
H14_3 H 0.6497 0.1055 0.7197
C28_3 C 0.6174(9) 0.0328(7) 0.5833(2)
H20_3 H 0.6086 0.0160 0.5473
C31_3 C 0.6472(7) 0.1246(6) 0.5989(2)
H23_3 H 0.6603 0.1709 0.5726
N1_3 N 0.8487(4) 0.3416(3) 0.68471(16)
C1_3 C 0.9128(7) 0.3597(5) 0.6496(2)
H1_3 H 0.8945 0.3503 0.6137
C4_3 C 0.9672(7) 0.3826(5) 0.7501(2)
H3_3 H 0.9840 0.3914 0.7861
C5_3 C 0.8754(6) 0.3528(4) 0.7345(2)
H4_3 H 0.8291 0.3397 0.7608
O2_3 O 0.6653(4) 0.2945(3) 0.73874(15)
O3_3 O 0.5338(5) 0.2384(4) 0.6952(2)
C12_3 C 0.5796(6) 0.2651(5) 0.7357(3)
C13_3 C 0.5752(3) 0.2876(2) 0.8334
H9_3 H 0.6424 0.3212 0.8334
C14_3 C 0.5267(9) 0.2511(7) 0.7871(3)
C15_3 C 0.4303(13) 0.2035(10) 0.7868(4)
H10_3 H 0.3962 0.1790 0.7551
C16_3 C 0.3834(6) 0.1917(4) 0.8334
H11_3 H 0.3160 0.1580 0.8334
Zn5_2 Zn 0.58358(7) 0.29179(6) 0.3333
O8_2 O 0.7055(5) 0.3347(4) 0.59460(15)
O9_2 O 0.6292(5) 0.3347(4) 0.40540(15)
O12_3 O 0.5338(5) 0.2954(3) 0.9715(2)
O13_2 O 0.7616(6) 0.4662(5) 0.6382(2)
O14_2 O 0.7046(6) 0.4662(5) 0.3618(2)
C50_3 C 0.5796(6) 0.3145(4) 0.9310(3)
C51_2 C 0.7349(7) 0.4204(6) 0.5977(3)
C52_2 C 0.6855(8) 0.4204(6) 0.4023(3)
C53_2 C 0.7124(4) 0.4248(3) 0.5000
H36_2 H 0.6788 0.3576 0.5000
C54_3 C 0.5267(9) 0.2756(6) 0.8796(3)
C55_2 C 0.7489(11) 0.4733(9) 0.5463(3)
C56_2 C 0.7244(11) 0.4733(9) 0.4537(3)
C57_3 C 0.4303(13) 0.2268(9) 0.8799(4)
C58_2 C 0.7965(16) 0.5697(13) 0.5466(4)
C59_2 C 0.7732(16) 0.5697(13) 0.4534(4)
H37_3 H 0.3962 0.2172 0.9116
H38_2 H 0.8210 0.6038 0.5783
H39_2 H 0.7828 0.6038 0.4217
C60_2 C 0.8083(7) 0.6166(6) 0.5000
H40_2 H 0.8420 0.6840 0.5000
N4_3 N 0.4929(3) 0.1513(4) 0.35137(16)
C17_3 C 0.4469(5) 0.0872(7) 0.3162(2)
H12_3 H 0.4558 0.1055 0.2803
C26_3 C 0.4154(5) 0.0328(7) 0.4167(2)
H18_3 H 0.4074 0.0160 0.4527
C29_3 C 0.4774(4) 0.1246(6) 0.4011(2)
H21_3 H 0.5106 0.1709 0.4274
Cu1_6 Cu 0.0000 0.5000 0.3333
N5_3 N 0.4929(3) 0.3416(5) 0.31529(16)
C18_3 C 0.4469(5) 0.3597(9) 0.3504(2)
H13_3 H 0.4558 0.3503 0.3863
C20_2 C 0.3848(5) 0.9923(7) 0.3285(2)
C21_2 C 0.3848(5) 0.3925(9) 0.3381(2)
H15_2 H 0.3564 0.9466 0.3014
H16_2 H 0.3564 0.4098 0.3652
C23_2 C 0.3656(4) 0.9664(6) 0.3789(2)
C24_2 C 0.3656(4) 0.3992(7) 0.2877(2)
C27_3 C 0.4154(5) 0.3826(9) 0.2499(2)
H19_3 H 0.4074 0.3914 0.2139
C30_3 C 0.4774(4) 0.3528(7) 0.2655(2)
H22_3 H 0.5106 0.3397 0.2392
N9_2 N 0.2994(3) 0.8719(4) 0.38997(16)
N10_2 N 0.2994(3) 0.4275(5) 0.27669(16)
H24_2 H 0.2755 0.8341 0.3627
H25_2 H 0.2755 0.4414 0.3039
C32_2 C 0.2678(4) 0.8318(6) 0.4372(2)
C33_2 C 0.2678(4) 0.4360(7) 0.2294(2)
O4_2 O 0.2916(6) 0.8733(9) 0.4771(2)
O5_2 O 0.2916(6) 0.4183(11) 0.1895(2)
C35_2 C 0.1886(4) 0.7315(6) 0.4374(2)
C36_2 C 0.1886(4) 0.4571(7) 0.2292(2)
C38_2 C 0.1543(5) 0.6859(8) 0.4848(2)
C39_2 C 0.1543(5) 0.4684(9) 0.1818(2)
H27_2 H 0.1838 0.7185 0.5162
H28_2 H 0.1838 0.4653 0.1504
C41_2 C 0.0813(4) 0.5977(7) 0.4879(2)
C42_2 C 0.0813(4) 0.4836(8) 0.1787(2)
H30_2 H 0.0574 0.5689 0.5210
H31_2 H 0.0574 0.4885 0.1456
N12_2 N 0.0715(4) 0.5883(6) 0.39544(19)
N13_2 N 0.0715(4) 0.4832(7) 0.27122(19)
C44_2 C 0.0406(3) 0.5482(5) 0.44127(19)
C45_2 C 0.0406(3) 0.4924(6) 0.22539(19)
C47_2 C 0.1447(5) 0.6780(7) 0.3929(2)
C48_2 C 0.1447(5) 0.4667(9) 0.2737(2)
H33_2 H 0.1671 0.7057 0.3595
H34_2 H 0.1671 0.4614 0.3071
O11_3 O 0.6292(3) 0.2945(5) 0.26126(15)
O3_4 O 0.7616(4) 0.2954(3) 0.0285(2)
C12_4 C 0.7349(5) 0.3145(4) 0.0690(3)
C13_4 C 0.7124(2) 0.2876(2) 0.1667
H9_4 H 0.6788 0.3212 0.1667
C14_4 C 0.7489(7) 0.2756(6) 0.1204(3)
C15_4 C 0.7965(10) 0.2268(9) 0.1201(4)
H10_4 H 0.8210 0.2172 0.0884
C16_4 C 0.8083(4) 0.1917(4) 0.1667
H11_4 H 0.8420 0.1580 0.1667
O12_4 O 0.7046(3) 0.2384(4) 0.3048(2)
C50_4 C 0.6855(4) 0.2651(5) 0.2643(3)
C54_4 C 0.7244(6) 0.2511(7) 0.2129(3)
C57_4 C 0.7732(9) 0.2035(10) 0.2132(4)
H37_4 H 0.7828 0.1790 0.2449
Cu1_7 Cu 0.5000 0.5000 0.6667
C2_3 C 0.0077(7) 0.3925(5) 0.6619(2)
H2_3 H 0.0534 0.4098 0.6348
C3_3 C 0.0336(6) 0.3992(4) 0.7123(2)
N2_3 N 0.1281(4) 0.4275(3) 0.72331(16)
H5_3 H 0.1659 0.4414 0.6961
C6_3 C 0.1682(6) 0.4360(5) 0.7706(2)
O1_3 O 0.1267(9) 0.4183(7) 0.8105(2)
C7_3 C 0.2685(6) 0.4571(4) 0.7708(2)
C8_3 C 0.3141(8) 0.4684(6) 0.8182(2)
H6_3 H 0.2815 0.4653 0.8496
C9_3 C 0.4023(7) 0.4836(6) 0.8213(2)
H7_3 H 0.4311 0.4885 0.8544
N3_3 N 0.4117(6) 0.4832(4) 0.72878(19)
C10_3 C 0.4518(5) 0.4924(4) 0.77461(19)
C11_3 C 0.3220(7) 0.4667(5) 0.7263(2)
H8_3 H 0.2943 0.4614 0.6929
C20_3 C 0.9923(7) 0.6075(5) 0.6619(2)
C21_3 C 0.3925(9) 0.0077(7) 0.6715(2)
C22_3 C 0.6075(9) 0.9923(7) 0.6715(2)
H15_3 H 0.9466 0.5902 0.6348
H16_3 H 0.4098 0.0534 0.6986
H17_3 H 0.5902 0.9466 0.6986
C23_3 C 0.9664(6) 0.6008(4) 0.7123(2)
C24_3 C 0.3992(7) 0.0336(6) 0.6211(2)
C25_3 C 0.6008(7) 0.9664(6) 0.6211(2)
N9_3 N 0.8719(4) 0.5725(3) 0.72331(16)
N10_3 N 0.4275(5) 0.1281(4) 0.61003(16)
N11_3 N 0.5725(5) 0.8719(4) 0.61003(16)
H24_3 H 0.8341 0.5586 0.6961
H25_3 H 0.4414 0.1659 0.6373
H26_3 H 0.5586 0.8341 0.6373
C32_3 C 0.8318(6) 0.5640(5) 0.7706(2)
C33_3 C 0.4360(7) 0.1682(6) 0.5628(2)
C34_3 C 0.5640(7) 0.8318(6) 0.5628(2)
O4_3 O 0.8733(9) 0.5817(7) 0.8105(2)
O5_3 O 0.4183(11) 0.1267(9) 0.5229(2)
O6_3 O 0.5817(11) 0.8733(9) 0.5229(2)
C35_3 C 0.7315(6) 0.5429(4) 0.7708(2)
C36_3 C 0.4571(7) 0.2685(6) 0.5626(2)
C37_3 C 0.5429(7) 0.7315(6) 0.5626(2)
C38_3 C 0.6859(8) 0.5316(6) 0.8182(2)
C39_3 C 0.4684(9) 0.3141(8) 0.5152(2)
C40_3 C 0.5316(9) 0.6859(8) 0.5152(2)
H27_3 H 0.7185 0.5347 0.8496
H28_3 H 0.4653 0.2815 0.4838
H29_3 H 0.5347 0.7185 0.4838
C41_3 C 0.5977(7) 0.5164(6) 0.8213(2)
C42_3 C 0.4836(8) 0.4023(7) 0.5121(2)
C43_3 C 0.5164(8) 0.5977(7) 0.5121(2)
H30_3 H 0.5689 0.5115 0.8544
H31_3 H 0.4885 0.4311 0.4790
H32_3 H 0.5115 0.5689 0.4790
N12_3 N 0.5883(6) 0.5168(4) 0.72878(19)
N13_3 N 0.4832(7) 0.4117(6) 0.60456(19)
N14_3 N 0.5168(7) 0.5883(6) 0.60456(19)
C44_3 C 0.5482(5) 0.5076(4) 0.77461(19)
C45_3 C 0.4924(6) 0.4518(5) 0.55873(19)
C46_3 C 0.5076(6) 0.5482(5) 0.55873(19)
C47_3 C 0.6780(7) 0.5333(5) 0.7263(2)
C48_3 C 0.4667(9) 0.3220(7) 0.6071(2)
C49_3 C 0.5333(9) 0.6780(7) 0.6071(2)
H33_3 H 0.7057 0.5386 0.6929
H34_3 H 0.4614 0.2943 0.6405
H35_3 H 0.5386 0.7057 0.6405
loop_
_geom_bond_atom_site_label_1
_geom_bond_atom_site_label_2
_geom_bond_site_symmetry_1
_geom_bond_site_symmetry_2
C19 H14 1_555 1_555
Zn3_2 N6 1_555 1_555
H20 C28 1_555 1_555
C31 N6 1_555 1_555
H23 C31 1_555 1_555
C28 C31 1_555 1_555
Zn3 N1 1_555 1_555
Cu1 N3 1_555 1_555
C4 C3 1_555 1_555
H3 C4 1_555 1_555
C5 N1 1_555 1_555
H4 C5 1_555 1_555
N2 C3 1_555 1_555
H5 N2 1_555 1_555
C6 N2 1_555 1_555
O1 C6 1_555 1_555
C7 C6 1_555 1_555
C8 C7 1_555 1_555
H6 C8 1_555 1_555
C9 C8 1_555 1_555
H7 C9 1_555 1_555
N3 C10 1_555 1_555
C10 C9 1_555 1_555
C11 C7 1_555 1_555
H8 C11 1_555 1_555
O2 Zn3 1_555 1_555
O3 C12 1_555 1_555
C12 O2 1_555 1_555
C13 H9 1_555 1_555
C14 C12 1_555 1_555
C15 C14 1_555 1_555
H10 C15 1_555 1_555
C16 C15 1_555 1_555
H11 C16 1_555 1_555
Zn4 O7 1_555 1_555
H17 C22 1_555 1_555
O7 C50 1_555 1_555
O12 C50 1_555 1_555
C50 C54 1_555 1_555
C54 C13 1_555 1_555
C57 C16 1_555 1_555
H37 C57 1_555 1_555
C4 C5 1_555 1_555
N3 C11 1_555 1_555
C13 C14 1_555 1_555
C54 C57 1_555 1_555
C1 H1 1_555 1_555
C2 C1 1_555 1_555
H2 C2 1_555 1_555
Zn5 O9 1_555 1_555
N11 C25 1_555 1_555
H26 N11 1_555 1_555
C34 N11 1_555 1_555
O6 C34 1_555 1_555
C37 C34 1_555 1_555
C40 C37 1_555 1_555
H29 C40 1_555 1_555
C43 C40 1_555 1_555
H32 C43 1_555 1_555
N14 Cu1_2 1_555 1_555
C46 C43 1_555 1_555
C49 C37 1_555 1_555
H35 C49 1_555 1_555
O8 Zn3_2 1_555 1_555
O9 C52 1_555 1_555
O13 C51 1_555 1_555
O14 C52 1_555 1_555
C51 O8 1_555 1_555
C52 C56 1_555 1_555
C53 H36 1_555 1_555
C55 C51 1_555 1_555
C56 C53 1_555 1_555
C58 C55 1_555 1_555
C59 C56 1_555 1_555
H38 C58 1_555 1_555
H39 C59 1_555 1_555
C60 C58 1_555 1_555
H40 C60 1_555 1_555
N14 C46 1_555 1_555
N14 C49 1_555 1_555
C53 C55 1_555 1_555
C59 C60 1_555 1_555
Zn5 N4 1_555 1_555
N4 C17 1_555 1_555
C17 H12 1_555 1_555
H18 C26 1_555 1_555
C29 N4 1_555 1_555
H21 C29 1_555 1_555
C26 C29 1_555 1_555
Zn5 N5 1_555 1_555
N5 C18 1_555 1_555
C18 H13 1_555 1_555
H19 C27 1_555 1_555
C30 N5 1_555 1_555
H22 C30 1_555 1_555
O11 Zn5 1_555 1_555
C27 C30 1_555 1_555
Cu1_3 N3_2 1_555 1_555
H2_2 C2_2 1_555 1_555
C3_2 C2_2 1_555 1_555
N2_2 C3_2 1_555 1_555
H5_2 N2_2 1_555 1_555
C6_2 N2_2 1_555 1_555
O1_2 C6_2 1_555 1_555
C7_2 C6_2 1_555 1_555
C8_2 C7_2 1_555 1_555
H6_2 C8_2 1_555 1_555
C9_2 C8_2 1_555 1_555
H7_2 C9_2 1_555 1_555
N3_2 C10_2 1_555 1_555
C10_2 C9_2 1_555 1_555
C11_2 C7_2 1_555 1_555
H8_2 C11_2 1_555 1_555
Zn4 N6_2 1_555 1_555
N6_2 C19_2 1_555 1_555
C19_2 H14_2 1_555 1_555
C22_2 C19_2 1_555 1_555
H17_2 C22_2 1_555 1_555
C25_2 C22_2 1_555 1_555
C28_2 C25_2 1_555 1_555
H20_2 C28_2 1_555 1_555
C31_2 N6_2 1_555 1_555
H23_2 C31_2 1_555 1_555
N11_2 C25_2 1_555 1_555
H26_2 N11_2 1_555 1_555
C34_2 N11_2 1_555 1_555
O6_2 C34_2 1_555 1_555
C37_2 C34_2 1_555 1_555
C40_2 C37_2 1_555 1_555
H29_2 C40_2 1_555 1_555
C43_2 C40_2 1_555 1_555
H32_2 C43_2 1_555 1_555
N14_2 Cu1_3 1_555 1_555
C46_2 C43_2 1_555 1_555
C49_2 C37_2 1_555 1_555
H35_2 C49_2 1_555 1_555
N3_2 C11_2 1_555 1_555
C28_2 C31_2 1_555 1_555
N14_2 C46_2 1_555 1_555
N14_2 C49_2 1_555 1_555
Zn4 N1_2 1_555 1_555
N1_2 C1_2 1_555 1_555
C1_2 H1_2 1_555 1_555
H3_2 C4_2 1_555 1_555
C5_2 N1_2 1_555 1_555
H4_2 C5_2 1_555 1_555
O2_2 Zn4 1_555 1_555
O3_2 C12_2 1_555 1_555
C12_2 O2_2 1_555 1_555
C13_2 H9_2 1_555 1_555
C14_2 C12_2 1_555 1_555
C15_2 C14_2 1_555 1_555
H10_2 C15_2 1_555 1_555
C16_2 C15_2 1_555 1_555
H11_2 C16_2 1_555 1_555
O11 C50_2 1_555 1_555
O12_2 C50_2 1_555 1_555
C50_2 C54_2 1_555 1_555
C54_2 C13_2 1_555 1_555
C57_2 C16_2 1_555 1_555
H37_2 C57_2 1_555 1_555
C4_2 C5_2 1_555 1_555
C13_2 C14_2 1_555 1_555
C54_2 C57_2 1_555 1_555
Zn6 N4_2 1_555 1_555
H16 C21 1_555 1_555
C26_2 C23 1_555 1_555
H18_2 C26_2 1_555 1_555
C29_2 N4_2 1_555 1_555
H21_2 C29_2 1_555 1_555
N9 C23 1_555 1_555
H24 N9 1_555 1_555
C32 N9 1_555 1_555
O4 C32 1_555 1_555
C35 C32 1_555 1_555
C38 C35 1_555 1_555
H27 C38 1_555 1_555
C41 C38 1_555 1_555
H30 C41 1_555 1_555
N12 Cu1_4 1_555 1_555
C47 C35 1_555 1_555
H33 C47 1_555 1_555
C26_2 C29_2 1_555 1_555
C41 C44 1_555 1_555
N12 C44 1_555 1_555
N12 C47 1_555 1_555
C17_2 H12_2 1_555 1_555
C20 C17_2 1_555 1_555
H15 C20 1_555 1_555
N10 C24 1_555 1_555
H25 N10 1_555 1_555
C33 N10 1_555 1_555
O5 C33 1_555 1_555
C36 C33 1_555 1_555
C39 C36 1_555 1_555
H28 C39 1_555 1_555
C42 C39 1_555 1_555
H31 C42 1_555 1_555
N13 Cu1_5 1_555 1_555
C45 C42 1_555 1_555
C48 C36 1_555 1_555
H34 C48 1_555 1_555
N13 C45 1_555 1_555
N13 C48 1_555 1_555
C18_2 H13_2 1_555 1_555
O10 Zn6 1_555 1_555
Zn6_2 N5_2 1_555 1_555
H19_2 C27_2 1_555 1_555
C30_2 N5_2 1_555 1_555
H22_2 C30_2 1_555 1_555
O11_2 Zn6_2 1_555 1_555
C27_2 C30_2 1_555 1_555
Zn3_3 N6_3 1_555 1_555
N6_3 C19_3 1_555 1_555
C19_3 H14_3 1_555 1_555
H20_3 C28_3 1_555 1_555
C31_3 N6_3 1_555 1_555
H23_3 C31_3 1_555 1_555
C28_3 C31_3 1_555 1_555
Zn3_3 N1_3 1_555 1_555
N1_3 C1_3 1_555 1_555
C1_3 H1_3 1_555 1_555
H3_3 C4_3 1_555 1_555
C5_3 N1_3 1_555 1_555
H4_3 C5_3 1_555 1_555
O2_3 Zn3_3 1_555 1_555
O3_3 C12_3 1_555 1_555
C12_3 O2_3 1_555 1_555
C13_3 H9_3 1_555 1_555
C14_3 C12_3 1_555 1_555
C15_3 C14_3 1_555 1_555
H10_3 C15_3 1_555 1_555
C16_3 C15_3 1_555 1_555
H11_3 C16_3 1_555 1_555
Zn5_2 O9_2 1_555 1_555
O11_2 C50_3 1_555 1_555
O8_2 Zn3_3 1_555 1_555
O9_2 C52_2 1_555 1_555
O12_3 C50_3 1_555 1_555
O13_2 C51_2 1_555 1_555
O14_2 C52_2 1_555 1_555
C50_3 C54_3 1_555 1_555
C51_2 O8_2 1_555 1_555
C52_2 C56_2 1_555 1_555
C53_2 H36_2 1_555 1_555
C54_3 C13_3 1_555 1_555
C55_2 C51_2 1_555 1_555
C56_2 C53_2 1_555 1_555
C57_3 C16_3 1_555 1_555
C58_2 C55_2 1_555 1_555
C59_2 C56_2 1_555 1_555
H37_3 C57_3 1_555 1_555
H38_2 C58_2 1_555 1_555
H39_2 C59_2 1_555 1_555
C60_2 C58_2 1_555 1_555
H40_2 C60_2 1_555 1_555
C4_3 C5_3 1_555 1_555
C13_3 C14_3 1_555 1_555
C53_2 C55_2 1_555 1_555
C54_3 C57_3 1_555 1_555
C59_2 C60_2 1_555 1_555
Zn5_2 N4_3 1_555 1_555
N4_3 C17_3 1_555 1_555
C17_3 H12_3 1_555 1_555
H18_3 C26_3 1_555 1_555
C29_3 N4_3 1_555 1_555
H21_3 C29_3 1_555 1_555
C26_3 C29_3 1_555 1_555
Zn5_2 N5_3 1_555 1_555
N5_3 C18_3 1_555 1_555
C18_3 H13_3 1_555 1_555
C21_2 C18_3 1_555 1_555
H15_2 C20_2 1_555 1_555
H16_2 C21_2 1_555 1_555
C23_2 C20_2 1_555 1_555
C24_2 C21_2 1_555 1_555
C27_3 C24_2 1_555 1_555
H19_3 C27_3 1_555 1_555
C30_3 N5_3 1_555 1_555
H22_3 C30_3 1_555 1_555
N9_2 C23_2 1_555 1_555
N10_2 C24_2 1_555 1_555
H24_2 N9_2 1_555 1_555
H25_2 N10_2 1_555 1_555
C32_2 N9_2 1_555 1_555
C33_2 N10_2 1_555 1_555
O4_2 C32_2 1_555 1_555
O5_2 C33_2 1_555 1_555
C35_2 C32_2 1_555 1_555
C36_2 C33_2 1_555 1_555
C38_2 C35_2 1_555 1_555
C39_2 C36_2 1_555 1_555
H27_2 C38_2 1_555 1_555
H28_2 C39_2 1_555 1_555
C41_2 C38_2 1_555 1_555
C42_2 C39_2 1_555 1_555
H30_2 C41_2 1_555 1_555
H31_2 C42_2 1_555 1_555
N12_2 Cu1_6 1_555 1_555
N13_2 Cu1_6 1_555 1_555
C45_2 C42_2 1_555 1_555
C47_2 C35_2 1_555 1_555
C48_2 C36_2 1_555 1_555
H33_2 C47_2 1_555 1_555
H34_2 C48_2 1_555 1_555
O11_3 Zn5_2 1_555 1_555
C27_3 C30_3 1_555 1_555
C41_2 C44_2 1_555 1_555
N12_2 C44_2 1_555 1_555
N12_2 C47_2 1_555 1_555
N13_2 C45_2 1_555 1_555
N13_2 C48_2 1_555 1_555
O3_4 C12_4 1_555 1_555
C12_4 O10 1_555 1_555
C13_4 H9_4 1_555 1_555
C14_4 C12_4 1_555 1_555
C15_4 C14_4 1_555 1_555
H10_4 C15_4 1_555 1_555
C16_4 C15_4 1_555 1_555
H11_4 C16_4 1_555 1_555
O11_3 C50_4 1_555 1_555
O12_4 C50_4 1_555 1_555
C50_4 C54_4 1_555 1_555
C54_4 C13_4 1_555 1_555
C57_4 C16_4 1_555 1_555
H37_4 C57_4 1_555 1_555
C13_4 C14_4 1_555 1_555
C54_4 C57_4 1_555 1_555
Cu1_7 N3_3 1_555 1_555
H2_3 C2_3 1_555 1_555
C3_3 C2_3 1_555 1_555
N2_3 C3_3 1_555 1_555
H5_3 N2_3 1_555 1_555
C6_3 N2_3 1_555 1_555
O1_3 C6_3 1_555 1_555
C7_3 C6_3 1_555 1_555
C8_3 C7_3 1_555 1_555
H6_3 C8_3 1_555 1_555
C9_3 C8_3 1_555 1_555
H7_3 C9_3 1_555 1_555
N3_3 C10_3 1_555 1_555
C10_3 C9_3 1_555 1_555
C11_3 C7_3 1_555 1_555
H8_3 C11_3 1_555 1_555
H15_3 C20_3 1_555 1_555
H16_3 C21_3 1_555 1_555
H17_3 C22_3 1_555 1_555
C23_3 C20_3 1_555 1_555
C24_3 C21_3 1_555 1_555
C25_3 C22_3 1_555 1_555
N9_3 C23_3 1_555 1_555
N10_3 C24_3 1_555 1_555
N11_3 C25_3 1_555 1_555
H24_3 N9_3 1_555 1_555
H25_3 N10_3 1_555 1_555
H26_3 N11_3 1_555 1_555
C32_3 N9_3 1_555 1_555
C33_3 N10_3 1_555 1_555
C34_3 N11_3 1_555 1_555
O4_3 C32_3 1_555 1_555
O5_3 C33_3 1_555 1_555
O6_3 C34_3 1_555 1_555
C35_3 C32_3 1_555 1_555
C36_3 C33_3 1_555 1_555
C37_3 C34_3 1_555 1_555
C38_3 C35_3 1_555 1_555
C39_3 C36_3 1_555 1_555
C40_3 C37_3 1_555 1_555
H27_3 C38_3 1_555 1_555
H28_3 C39_3 1_555 1_555
H29_3 C40_3 1_555 1_555
C41_3 C38_3 1_555 1_555
C42_3 C39_3 1_555 1_555
C43_3 C40_3 1_555 1_555
H30_3 C41_3 1_555 1_555
H31_3 C42_3 1_555 1_555
H32_3 C43_3 1_555 1_555
N12_3 Cu1_7 1_555 1_555
N13_3 Cu1_7 1_555 1_555
N14_3 Cu1_7 1_555 1_555
C44_3 C10_3 1_555 1_555
C45_3 C42_3 1_555 1_555
C46_3 C43_3 1_555 1_555
C47_3 C35_3 1_555 1_555
C48_3 C36_3 1_555 1_555
C49_3 C37_3 1_555 1_555
H33_3 C47_3 1_555 1_555
H34_3 C48_3 1_555 1_555
H35_3 C49_3 1_555 1_555
N3_3 C11_3 1_555 1_555
C41_3 C44_3 1_555 1_555
N12_3 C44_3 1_555 1_555
N12_3 C47_3 1_555 1_555
N13_3 C45_3 1_555 1_555
N13_3 C48_3 1_555 1_555
N14_3 C46_3 1_555 1_555
N14_3 C49_3 1_555 1_555
C45_3 C46_3 1_555 1_555

#END
