
###############################################################################
#
# This file contains modified crystal structure data generated from the
# MOF subset of the Cambridge Structural Database (CSD) v543 
# hosted by the Cambridge Crystallographic Data Centre (CCDC).
#
# This work is licensed under the Creative Commons
# Attribution-NonCommercial-ShareAlike 4.0 International License.
# To view a copy of this license, visit
# http://creativecommons.org/licenses/by-nc-sa/4.0/
# or send a letter to
# Creative Commons, PO Box 1866, Mountain View, CA 94042, USA.
#
# CIF created using the CSD Python API on 29 September 2022
# The structure has been converted into the P1 space group
# The structure has a 3D framework
# The original CSD entry DECVIT is in the cubic crystal system
# The framework has been calculated to contain at least 10.0% void space
# The void calculation uses a probe of radius 1.32A, grid spacing 0.4
# The framework is charged, counterions have been retained in the structure
#
###############################################################################

data_DECVIT
_chemical_formula_moiety         '(C48 O116 U24 10-)n'
_symmetry_cell_setting           triclinic
_symmetry_space_group_name_H-M   'P 1'
_symmetry_Int_Tables_number      1
_space_group_name_Hall           'P 1'
loop_
_symmetry_equiv_pos_site_id
_symmetry_equiv_pos_as_xyz
1 x,y,z
_cell_length_a                   16.9843(12)
_cell_length_b                   16.9843(12)
_cell_length_c                   16.9843(12)
_cell_angle_alpha                90
_cell_angle_beta                 90
_cell_angle_gamma                90
_cell_volume                     4899.4
loop_
_atom_site_label
_atom_site_type_symbol
_atom_site_fract_x
_atom_site_fract_y
_atom_site_fract_z
O22 O 0.6339(5) 0.0124(5) 0.2519(6)
C10 C 0.5609(8) 0.0066(8) 0.2515(8)
O24 O 0.4876(5) 0.1339(5) 0.2481(6)
C12 C 0.4934(8) 0.0609(8) 0.2485(8)
U5 U 0.37786(4) 0.22144(3) 0.22144(3)
O25 O 0.4216(9) 0.2886(6) 0.2886(6)
O26 O 0.3404(9) 0.1533(7) 0.1533(7)
O27 O 0.3346(6) 0.3346(6) 0.1465(8)
O28 O 0.2566(10) 0.2566(10) 0.2566(10)
U6 U 0.22144(3) 0.22144(3) 0.37786(4)
O29 O 0.2886(6) 0.2886(6) 0.4216(9)
O30 O 0.1533(7) 0.1533(7) 0.3404(9)
O31 O 0.1465(8) 0.3346(6) 0.3346(6)
U7 U 0.22144(3) 0.37786(4) 0.22144(3)
U10 U 0.72144(3) 0.12214(4) 0.27856(3)
O33 O 0.4876(5) 0.2481(6) 0.1339(5)
O36 O 0.2481(6) 0.1339(5) 0.4876(5)
O38 O 0.1339(5) 0.2481(6) 0.4876(5)
O39 O 0.3346(6) 0.1465(8) 0.3346(6)
U1 U 0.62214(4) 0.77856(3) 0.22144(3)
O1 O 0.5784(9) 0.7114(6) 0.2886(6)
O2 O 0.6596(9) 0.8467(7) 0.1533(7)
O3 O 0.5124(5) 0.7519(6) 0.1339(5)
O4 O 0.6654(6) 0.8535(8) 0.3346(6)
O5 O 0.7434(10) 0.7434(10) 0.2566(10)
C1 C 0.5066(8) 0.7515(8) 0.0609(8)
O7 O 0.3661(5) 0.7481(6) 0.0124(5)
C3 C 0.4391(8) 0.7485(8) 0.0066(8)
U3 U 0.77856(3) 0.62214(4) 0.22144(3)
O12 O 0.7114(6) 0.5784(9) 0.2886(6)
O13 O 0.8467(7) 0.6596(9) 0.1533(7)
O14 O 0.7519(6) 0.5124(5) 0.1339(5)
O15 O 0.8535(8) 0.6654(6) 0.3346(6)
C5 C 0.7515(8) 0.5066(8) 0.0609(8)
O17 O 0.7481(6) 0.3661(5) 0.0124(5)
C7 C 0.7485(8) 0.4391(8) 0.0066(8)
O21 O 0.5124(5) 0.8661(5) 0.2481(6)
C9 C 0.5066(8) 0.9391(8) 0.2485(8)
O23 O 0.3661(5) 0.9876(5) 0.2519(6)
C11 C 0.4391(8) 0.9934(8) 0.2515(8)
O32 O 0.6654(6) 0.6654(6) 0.1465(8)
U8 U 0.77856(3) 0.77856(3) 0.37786(4)
U11 U 0.27856(3) 0.87786(4) 0.27856(3)
U12 U 0.27856(3) 0.72144(3) 0.12214(4)
U14 U 0.72144(3) 0.27856(3) 0.12214(4)
O35 O 0.8661(5) 0.5124(5) 0.2481(6)
O6 O 0.6339(5) 0.7481(6) 0.9876(5)
C2 C 0.5609(8) 0.7485(8) 0.9934(8)
O8 O 0.4876(5) 0.7519(6) 0.8661(5)
C4 C 0.4934(8) 0.7515(8) 0.9391(8)
U2 U 0.37786(4) 0.77856(3) 0.77856(3)
O9 O 0.4216(9) 0.7114(6) 0.7114(6)
O10 O 0.3404(9) 0.8467(7) 0.8467(7)
O11 O 0.3346(6) 0.8535(8) 0.6654(6)
O16 O 0.7481(6) 0.6339(5) 0.9876(5)
C6 C 0.7485(8) 0.5609(8) 0.9934(8)
O18 O 0.7519(6) 0.4876(5) 0.8661(5)
C8 C 0.7515(8) 0.4934(8) 0.9391(8)
U4 U 0.77856(3) 0.37786(4) 0.77856(3)
O19 O 0.7114(6) 0.4216(9) 0.7114(6)
O20 O 0.8467(7) 0.3404(9) 0.8467(7)
U9 U 0.22144(3) 0.77856(3) 0.62214(4)
U13 U 0.72144(3) 0.72144(3) 0.87786(4)
O34 O 0.8661(5) 0.4876(5) 0.7519(6)
O37 O 0.4876(5) 0.8661(5) 0.7519(6)
O40 O 0.3346(6) 0.6654(6) 0.8535(8)
O41 O 0.6654(6) 0.3346(6) 0.8535(8)
O42 O 0.8535(8) 0.3346(6) 0.6654(6)
O43 O 0.2566(10) 0.7434(10) 0.7434(10)
O44 O 0.7434(10) 0.2566(10) 0.7434(10)
C1_2 C 0.4934(8) 0.2485(8) 0.0609(8)
O7_2 O 0.6339(5) 0.2519(6) 0.0124(5)
C3_2 C 0.5609(8) 0.2515(8) 0.0066(8)
O12_2 O 0.2886(6) 0.4216(9) 0.2886(6)
O13_2 O 0.1533(7) 0.3404(9) 0.1533(7)
O14_2 O 0.2481(6) 0.4876(5) 0.1339(5)
C5_2 C 0.2485(8) 0.4934(8) 0.0609(8)
O17_2 O 0.2519(6) 0.6339(5) 0.0124(5)
C7_2 C 0.2515(8) 0.5609(8) 0.0066(8)
O35_2 O 0.1339(5) 0.4876(5) 0.2481(6)
O6_2 O 0.3661(5) 0.2519(6) 0.9876(5)
C2_2 C 0.4391(8) 0.2515(8) 0.9934(8)
O8_2 O 0.5124(5) 0.2481(6) 0.8661(5)
C4_2 C 0.5066(8) 0.2485(8) 0.9391(8)
U2_2 U 0.62214(4) 0.22144(3) 0.77856(3)
O9_2 O 0.5784(9) 0.2886(6) 0.7114(6)
O10_2 O 0.6596(9) 0.1533(7) 0.8467(7)
O11_2 O 0.6654(6) 0.1465(8) 0.6654(6)
O16_2 O 0.2519(6) 0.3661(5) 0.9876(5)
C6_2 C 0.2515(8) 0.4391(8) 0.9934(8)
O18_2 O 0.2481(6) 0.5124(5) 0.8661(5)
C8_2 C 0.2485(8) 0.5066(8) 0.9391(8)
U4_2 U 0.22144(3) 0.62214(4) 0.77856(3)
O19_2 O 0.2886(6) 0.5784(9) 0.7114(6)
O20_2 O 0.1533(7) 0.6596(9) 0.8467(7)
U9_2 U 0.77856(3) 0.22144(3) 0.62214(4)
U13_2 U 0.27856(3) 0.27856(3) 0.87786(4)
O34_2 O 0.1339(5) 0.5124(5) 0.7519(6)
O37_2 O 0.5124(5) 0.1339(5) 0.7519(6)
O42_2 O 0.1465(8) 0.6654(6) 0.6654(6)
O29_2 O 0.7114(6) 0.7114(6) 0.4216(9)
O30_2 O 0.8467(7) 0.8467(7) 0.3404(9)
O36_2 O 0.7519(6) 0.8661(5) 0.4876(5)
O38_2 O 0.8661(5) 0.7519(6) 0.4876(5)
O22_2 O 0.3661(5) 0.0124(5) 0.7481(6)
C10_2 C 0.4391(8) 0.0066(8) 0.7485(8)
C12_2 C 0.5066(8) 0.0609(8) 0.7515(8)
O29_3 O 0.7114(6) 0.2886(6) 0.5784(9)
O30_3 O 0.8467(7) 0.1533(7) 0.6596(9)
U10_2 U 0.27856(3) 0.12214(4) 0.72144(3)
O36_3 O 0.7519(6) 0.1339(5) 0.5124(5)
O38_3 O 0.8661(5) 0.2481(6) 0.5124(5)
C9_2 C 0.4934(8) 0.9391(8) 0.7515(8)
O23_2 O 0.6339(5) 0.9876(5) 0.7481(6)
C11_2 C 0.5609(8) 0.9934(8) 0.7485(8)
U11_2 U 0.72144(3) 0.87786(4) 0.72144(3)
O29_4 O 0.2886(6) 0.7114(6) 0.5784(9)
O30_4 O 0.1533(7) 0.8467(7) 0.6596(9)
O36_4 O 0.2481(6) 0.8661(5) 0.5124(5)
O38_4 O 0.1339(5) 0.7519(6) 0.5124(5)
C1_3 C 0.0609(8) 0.5066(8) 0.7515(8)
O7_3 O 0.0124(5) 0.3661(5) 0.7481(6)
C3_3 C 0.0066(8) 0.4391(8) 0.7485(8)
C5_3 C 0.0609(8) 0.7515(8) 0.5066(8)
O17_3 O 0.0124(5) 0.7481(6) 0.3661(5)
C7_3 C 0.0066(8) 0.7485(8) 0.4391(8)
U12_2 U 0.12214(4) 0.27856(3) 0.72144(3)
U14_2 U 0.12214(4) 0.72144(3) 0.27856(3)
O6_3 O 0.9876(5) 0.6339(5) 0.7481(6)
C2_3 C 0.9934(8) 0.5609(8) 0.7485(8)
C4_3 C 0.9391(8) 0.4934(8) 0.7515(8)
O16_3 O 0.9876(5) 0.7481(6) 0.6339(5)
C6_3 C 0.9934(8) 0.7485(8) 0.5609(8)
C8_3 C 0.9391(8) 0.7515(8) 0.4934(8)
U13_3 U 0.87786(4) 0.72144(3) 0.72144(3)
C1_4 C 0.0609(8) 0.4934(8) 0.2485(8)
O7_4 O 0.0124(5) 0.6339(5) 0.2519(6)
C3_4 C 0.0066(8) 0.5609(8) 0.2515(8)
C5_4 C 0.0609(8) 0.2485(8) 0.4934(8)
O17_4 O 0.0124(5) 0.2519(6) 0.6339(5)
C7_4 C 0.0066(8) 0.2515(8) 0.5609(8)
O6_4 O 0.9876(5) 0.3661(5) 0.2519(6)
C2_4 C 0.9934(8) 0.4391(8) 0.2515(8)
C4_4 C 0.9391(8) 0.5066(8) 0.2485(8)
O16_4 O 0.9876(5) 0.2519(6) 0.3661(5)
C6_4 C 0.9934(8) 0.2515(8) 0.4391(8)
C8_4 C 0.9391(8) 0.2485(8) 0.5066(8)
U13_4 U 0.87786(4) 0.27856(3) 0.27856(3)
C1_5 C 0.7515(8) 0.0609(8) 0.5066(8)
O7_5 O 0.7481(6) 0.0124(5) 0.3661(5)
C3_5 C 0.7485(8) 0.0066(8) 0.4391(8)
O6_5 O 0.7481(6) 0.9876(5) 0.6339(5)
C2_5 C 0.7485(8) 0.9934(8) 0.5609(8)
C4_5 C 0.7515(8) 0.9391(8) 0.4934(8)
C1_6 C 0.2485(8) 0.0609(8) 0.4934(8)
O7_6 O 0.2519(6) 0.0124(5) 0.6339(5)
C3_6 C 0.2515(8) 0.0066(8) 0.5609(8)
O6_6 O 0.2519(6) 0.9876(5) 0.3661(5)
C2_6 C 0.2515(8) 0.9934(8) 0.4391(8)
C4_6 C 0.2485(8) 0.9391(8) 0.5066(8)
O1_2 O 0.0784(9) 0.2114(6) 0.7886(6)
O2_2 O 0.1596(9) 0.3467(7) 0.6533(7)
O4_2 O 0.1654(6) 0.3535(8) 0.8346(6)
O5_2 O 0.2434(10) 0.2434(10) 0.7566(10)
O12_3 O 0.2114(6) 0.0784(9) 0.7886(6)
O13_3 O 0.3467(7) 0.1596(9) 0.6533(7)
O15_2 O 0.3535(8) 0.1654(6) 0.8346(6)
O32_2 O 0.1654(6) 0.1654(6) 0.6465(8)
O19_3 O 0.2114(6) 0.9216(9) 0.2114(6)
O20_3 O 0.3467(7) 0.8404(9) 0.3467(7)
O41_2 O 0.1654(6) 0.8346(6) 0.3535(8)
O42_3 O 0.3535(8) 0.8346(6) 0.1654(6)
O44_2 O 0.2434(10) 0.7566(10) 0.2434(10)
O9_3 O 0.9216(9) 0.2114(6) 0.2114(6)
O10_3 O 0.8404(9) 0.3467(7) 0.3467(7)
O11_3 O 0.8346(6) 0.3535(8) 0.1654(6)
O25_2 O 0.9216(9) 0.7886(6) 0.7886(6)
O26_2 O 0.8404(9) 0.6533(7) 0.6533(7)
O27_2 O 0.8346(6) 0.8346(6) 0.6465(8)
O28_2 O 0.7566(10) 0.7566(10) 0.7566(10)
O29_5 O 0.7886(6) 0.7886(6) 0.9216(9)
O30_5 O 0.6533(7) 0.6533(7) 0.8404(9)
O31_2 O 0.6465(8) 0.8346(6) 0.8346(6)
O39_2 O 0.8346(6) 0.6465(8) 0.8346(6)
O40_2 O 0.8346(6) 0.1654(6) 0.3535(8)
O43_2 O 0.7566(10) 0.2434(10) 0.2434(10)
O9_4 O 0.0784(9) 0.7886(6) 0.2114(6)
O10_4 O 0.1596(9) 0.6533(7) 0.3467(7)
O11_4 O 0.1654(6) 0.6465(8) 0.1654(6)
O29_6 O 0.2114(6) 0.2114(6) 0.9216(9)
O30_6 O 0.3467(7) 0.3467(7) 0.8404(9)
O19_4 O 0.7886(6) 0.0784(9) 0.2114(6)
O20_4 O 0.6533(7) 0.1596(9) 0.3467(7)
O42_4 O 0.6465(8) 0.1654(6) 0.1654(6)
O12_4 O 0.7886(6) 0.9216(9) 0.7886(6)
O13_4 O 0.6533(7) 0.8404(9) 0.6533(7)
O29_7 O 0.2114(6) 0.7886(6) 0.0784(9)
O30_7 O 0.3467(7) 0.6533(7) 0.1596(9)
O29_8 O 0.7886(6) 0.2114(6) 0.0784(9)
O30_8 O 0.6533(7) 0.3467(7) 0.1596(9)
loop_
_geom_bond_atom_site_label_1
_geom_bond_atom_site_label_2
_geom_bond_site_symmetry_1
_geom_bond_site_symmetry_2
O22 C10 1_555 1_555
O24 C12 1_555 1_555
C12 C10 1_555 1_555
U5 O24 1_555 1_555
O25 U5 1_555 1_555
O26 U5 1_555 1_555
O27 U5 1_555 1_555
O28 U5 1_555 1_555
U6 O28 1_555 1_555
O29 U6 1_555 1_555
O30 U6 1_555 1_555
O31 U6 1_555 1_555
U7 O27 1_555 1_555
U10 O22 1_555 1_555
O33 U5 1_555 1_555
O36 U6 1_555 1_555
O38 U6 1_555 1_555
O39 U5 1_555 1_555
O28 U7 1_555 1_555
U6 O39 1_555 1_555
O31 U7 1_555 1_555
U1 O1 1_555 1_555
O2 U1 1_555 1_555
O3 U1 1_555 1_555
O4 U1 1_555 1_555
O5 U1 1_555 1_555
C1 O3 1_555 1_555
O7 C3 1_555 1_555
C3 C1 1_555 1_555
U3 O5 1_555 1_555
O12 U3 1_555 1_555
O13 U3 1_555 1_555
O14 U3 1_555 1_555
O15 U3 1_555 1_555
C5 O14 1_555 1_555
O17 C7 1_555 1_555
C7 C5 1_555 1_555
O21 U1 1_555 1_555
C9 O21 1_555 1_555
O23 C11 1_555 1_555
C11 C9 1_555 1_555
O32 U1 1_555 1_555
U8 O4 1_555 1_555
U11 O23 1_555 1_555
U12 O7 1_555 1_555
U14 O17 1_555 1_555
O35 U3 1_555 1_555
O5 U8 1_555 1_555
U3 O32 1_555 1_555
O15 U8 1_555 1_555
O6 C2 1_555 1_555
O8 C4 1_555 1_555
C4 C2 1_555 1_555
U2 O8 1_555 1_555
O9 U2 1_555 1_555
O10 U2 1_555 1_555
O11 U2 1_555 1_555
O16 C6 1_555 1_555
O18 C8 1_555 1_555
C8 C6 1_555 1_555
U4 O18 1_555 1_555
O19 U4 1_555 1_555
O20 U4 1_555 1_555
U9 O11 1_555 1_555
U13 O6 1_555 1_555
O34 U4 1_555 1_555
O37 U2 1_555 1_555
O40 U2 1_555 1_555
O41 U4 1_555 1_555
O42 U4 1_555 1_555
O43 U2 1_555 1_555
O44 U4 1_555 1_555
O16 U13 1_555 1_555
U9 O43 1_555 1_555
C1_2 O33 1_555 1_555
O7_2 C3_2 1_555 1_555
C3_2 C1_2 1_555 1_555
O12_2 U7 1_555 1_555
O13_2 U7 1_555 1_555
O14_2 U7 1_555 1_555
C5_2 O14_2 1_555 1_555
O17_2 C7_2 1_555 1_555
C7_2 C5_2 1_555 1_555
U14 O7_2 1_555 1_555
U12 O17_2 1_555 1_555
O35_2 U7 1_555 1_555
O6_2 C2_2 1_555 1_555
O8_2 C4_2 1_555 1_555
C4_2 C2_2 1_555 1_555
U2_2 O8_2 1_555 1_555
O9_2 U2_2 1_555 1_555
O10_2 U2_2 1_555 1_555
O11_2 U2_2 1_555 1_555
O16_2 C6_2 1_555 1_555
O18_2 C8_2 1_555 1_555
C8_2 C6_2 1_555 1_555
U4_2 O18_2 1_555 1_555
O19_2 U4_2 1_555 1_555
O20_2 U4_2 1_555 1_555
U9_2 O11_2 1_555 1_555
U13_2 O6_2 1_555 1_555
O34_2 U4_2 1_555 1_555
O37_2 U2_2 1_555 1_555
O41 U2_2 1_555 1_555
O40 U4_2 1_555 1_555
O42_2 U4_2 1_555 1_555
O44 U2_2 1_555 1_555
O43 U4_2 1_555 1_555
O16_2 U13_2 1_555 1_555
U9_2 O44 1_555 1_555
O29_2 U8 1_555 1_555
O30_2 U8 1_555 1_555
O36_2 U8 1_555 1_555
O38_2 U8 1_555 1_555
O22_2 C10_2 1_555 1_555
O37_2 C12_2 1_555 1_555
C12_2 C10_2 1_555 1_555
O29_3 U9_2 1_555 1_555
O30_3 U9_2 1_555 1_555
O42 U9_2 1_555 1_555
U10_2 O22_2 1_555 1_555
O36_3 U9_2 1_555 1_555
O38_3 U9_2 1_555 1_555
C9_2 O37 1_555 1_555
O23_2 C11_2 1_555 1_555
C11_2 C9_2 1_555 1_555
U11_2 O23_2 1_555 1_555
O42_2 U9 1_555 1_555
O29_4 U9 1_555 1_555
O30_4 U9 1_555 1_555
O36_4 U9 1_555 1_555
O38_4 U9 1_555 1_555
C1_3 O34_2 1_555 1_555
O7_3 C3_3 1_555 1_555
C3_3 C1_3 1_555 1_555
C5_3 O38_4 1_555 1_555
O17_3 C7_3 1_555 1_555
C7_3 C5_3 1_555 1_555
U12_2 O7_3 1_555 1_555
U14_2 O17_3 1_555 1_555
O6_3 C2_3 1_555 1_555
O34 C4_3 1_555 1_555
C4_3 C2_3 1_555 1_555
O16_3 C6_3 1_555 1_555
O38_2 C8_3 1_555 1_555
C8_3 C6_3 1_555 1_555
U13_3 O6_3 1_555 1_555
O16_3 U13_3 1_555 1_555
C1_4 O35_2 1_555 1_555
O7_4 C3_4 1_555 1_555
C3_4 C1_4 1_555 1_555
C5_4 O38 1_555 1_555
O17_4 C7_4 1_555 1_555
C7_4 C5_4 1_555 1_555
U14_2 O7_4 1_555 1_555
U12_2 O17_4 1_555 1_555
O6_4 C2_4 1_555 1_555
O35 C4_4 1_555 1_555
C4_4 C2_4 1_555 1_555
O16_4 C6_4 1_555 1_555
O38_3 C8_4 1_555 1_555
C8_4 C6_4 1_555 1_555
U13_4 O6_4 1_555 1_555
O16_4 U13_4 1_555 1_555
C1_5 O36_3 1_555 1_555
O7_5 C3_5 1_555 1_555
C3_5 C1_5 1_555 1_555
U10 O7_5 1_555 1_555
O6_5 C2_5 1_555 1_555
O36_2 C4_5 1_555 1_555
C4_5 C2_5 1_555 1_555
U11_2 O6_5 1_555 1_555
C1_6 O36 1_555 1_555
O7_6 C3_6 1_555 1_555
C3_6 C1_6 1_555 1_555
U10_2 O7_6 1_555 1_555
O6_6 C2_6 1_555 1_555
O36_4 C4_6 1_555 1_555
C4_6 C2_6 1_555 1_555
U11 O6_6 1_555 1_555
U12_2 O1_2 1_555 1_555
O2_2 U12_2 1_555 1_555
O4_2 U12_2 1_555 1_555
O5_2 U12_2 1_555 1_555
U10_2 O5_2 1_555 1_555
O12_3 U10_2 1_555 1_555
O13_3 U10_2 1_555 1_555
O15_2 U10_2 1_555 1_555
O32_2 U12_2 1_555 1_555
U13_2 O4_2 1_555 1_555
O5_2 U13_2 1_555 1_555
U10_2 O32_2 1_555 1_555
O15_2 U13_2 1_555 1_555
O19_3 U11 1_555 1_555
O20_3 U11 1_555 1_555
O41_2 U11 1_555 1_555
O42_3 U11 1_555 1_555
O44_2 U11 1_555 1_555
O9_3 U13_4 1_555 1_555
O10_3 U13_4 1_555 1_555
O11_3 U13_4 1_555 1_555
O25_2 U13_3 1_555 1_555
O26_2 U13_3 1_555 1_555
O27_2 U13_3 1_555 1_555
O28_2 U13_3 1_555 1_555
U13 O28_2 1_555 1_555
O29_5 U13 1_555 1_555
O30_5 U13 1_555 1_555
O31_2 U13 1_555 1_555
U11_2 O27_2 1_555 1_555
U14 O11_3 1_555 1_555
O39_2 U13_3 1_555 1_555
O40_2 U13_4 1_555 1_555
O43_2 U13_4 1_555 1_555
O28_2 U11_2 1_555 1_555
U13 O39_2 1_555 1_555
O31_2 U11_2 1_555 1_555
U14 O43_2 1_555 1_555
O9_4 U14_2 1_555 1_555
O10_4 U14_2 1_555 1_555
O11_4 U14_2 1_555 1_555
O29_6 U13_2 1_555 1_555
O30_6 U13_2 1_555 1_555
U12 O11_4 1_555 1_555
O41_2 U14_2 1_555 1_555
O44_2 U14_2 1_555 1_555
U12 O44_2 1_555 1_555
O19_4 U10 1_555 1_555
O20_4 U10 1_555 1_555
O40_2 U10 1_555 1_555
O42_4 U10 1_555 1_555
O43_2 U10 1_555 1_555
O12_4 U11_2 1_555 1_555
O13_4 U11_2 1_555 1_555
O29_7 U12 1_555 1_555
O30_7 U12 1_555 1_555
O42_3 U12 1_555 1_555
O42_4 U14 1_555 1_555
O29_8 U14 1_555 1_555
O30_8 U14 1_555 1_555

#END
