
###############################################################################
#
# This file contains modified crystal structure data generated from the
# MOF subset of the Cambridge Structural Database (CSD) v543 
# hosted by the Cambridge Crystallographic Data Centre (CCDC).
#
# This work is licensed under the Creative Commons
# Attribution-NonCommercial-ShareAlike 4.0 International License.
# To view a copy of this license, visit
# http://creativecommons.org/licenses/by-nc-sa/4.0/
# or send a letter to
# Creative Commons, PO Box 1866, Mountain View, CA 94042, USA.
#
# CIF created using the CSD Python API on 29 September 2022
# The structure has been converted into the P1 space group
# The structure has a 3D framework
# The original CSD entry DECXOB is in the tetragonal crystal system
# The framework has been calculated to contain at least 10.0% void space
# The void calculation uses a probe of radius 1.32A, grid spacing 0.4
#
###############################################################################

data_DECXOB
_chemical_formula_moiety         '(C736 H416 N96 O128 Zn32)n'
_symmetry_cell_setting           triclinic
_symmetry_space_group_name_H-M   'P 1'
_symmetry_Int_Tables_number      1
_space_group_name_Hall           'P 1'
loop_
_symmetry_equiv_pos_site_id
_symmetry_equiv_pos_as_xyz
1 x,y,z
_cell_length_a                   29.5140(5)
_cell_length_b                   29.5140(5)
_cell_length_c                   26.3488(3)
_cell_angle_alpha                90
_cell_angle_beta                 90
_cell_angle_gamma                90
_cell_volume                     22951.8
loop_
_atom_site_label
_atom_site_type_symbol
_atom_site_fract_x
_atom_site_fract_y
_atom_site_fract_z
C3 C 0.02054(12) 0.59457(14) 0.59191(12)
C4 C 0.07036(13) 0.59985(15) 0.57918(12)
O1 O 0.08083(10) 0.60577(16) 0.53463(10)
O2 O 0.09678(7) 0.59662(8) 0.61638(7)
C5 C 0.00707(11) 0.58494(12) 0.64127(10)
H3 H 0.0285 0.5808 0.6667
H4 H 0.0019 0.5622 0.7428
C19 C 0.02236(16) 0.5353(2) 0.83604(15)
H9 H 0.0367 0.5356 0.8046
C20 C 0.04828(19) 0.5275(3) 0.87987(18)
H10 H 0.0794 0.5230 0.8774
C21 C 0.02768(18) 0.52663(18) 0.92575(14)
H11 H 0.0447 0.5227 0.9551
Zn3 Zn 0.16157(2) 0.60964(2) 0.60539(2)
Zn1 Zn 0.85964(2) 0.58843(2) 0.64461(2)
N1 N 0.92943(9) 0.58842(10) 0.61633(9)
C1 C 0.94298(13) 0.59737(15) 0.56874(12)
H1 H 0.9211 0.6016 0.5438
C2 C 0.98758(13) 0.60047(15) 0.55530(11)
H2 H 0.9957 0.6065 0.5219
C6 C 0.96165(11) 0.58164(11) 0.65183(10)
C7 C 0.94382(10) 0.57103(10) 0.70364(9)
C8 C 0.97051(11) 0.56182(11) 0.74542(9)
C9 C 0.94964(11) 0.55186(11) 0.79182(10)
C10 C 0.90284(11) 0.55161(10) 0.79331(9)
H5 H 0.8879 0.5439 0.8232
C11 C 0.87802(10) 0.56276(10) 0.75038(9)
N2 N 0.89861(8) 0.57129(8) 0.70647(7)
C12 C 0.82822(10) 0.56772(10) 0.74873(9)
N3 N 0.81046(9) 0.57476(9) 0.70221(8)
C13 C 0.76579(13) 0.58114(15) 0.69829(12)
H6 H 0.7532 0.5840 0.6661
C14 C 0.73763(13) 0.58366(15) 0.73978(12)
H7 H 0.7067 0.5886 0.7358
C15 C 0.75625(11) 0.57864(11) 0.78756(10)
C16 C 0.72867(11) 0.58660(11) 0.83480(11)
O3 O 0.68627(8) 0.58470(8) 0.83013(7)
O4 O 0.74806(8) 0.59599(9) 0.87418(8)
C17 C 0.80191(11) 0.56959(11) 0.79173(10)
H8 H 0.8148 0.5648 0.8235
C18 C 0.97710(12) 0.54228(12) 0.83832(10)
C22 C 0.98313(18) 0.5314(2) 0.92851(13)
H12 H 0.9688 0.5294 0.9599
C23 C 0.95742(15) 0.53927(18) 0.88474(12)
H13 H 0.9262 0.5425 0.8875
Zn2 Zn 0.66157(2) 0.60964(2) 0.89461(2)
O5 O 0.84662(8) 0.65322(7) 0.63362(7)
O6 O 0.83470(8) 0.56373(8) 0.58013(7)
Zn1_2 Zn 0.64036(2) 0.41157(2) 0.14461(2)
N1_2 N 0.57057(9) 0.41158(10) 0.11633(9)
C1_2 C 0.55702(13) 0.40263(15) 0.06874(12)
H1_2 H 0.5789 0.3984 0.0438
C2_2 C 0.51242(13) 0.39953(15) 0.05530(11)
H2_2 H 0.5043 0.3935 0.0219
C3_2 C 0.47946(12) 0.40543(14) 0.09191(12)
C4_2 C 0.42964(13) 0.40015(15) 0.07918(12)
O1_2 O 0.41917(10) 0.39423(16) 0.03463(10)
O2_2 O 0.40322(7) 0.40338(8) 0.11638(7)
C5_2 C 0.49293(11) 0.41506(12) 0.14127(10)
H3_2 H 0.4715 0.4192 0.1667
C6_2 C 0.53835(11) 0.41836(11) 0.15183(10)
C7_2 C 0.55618(10) 0.42897(10) 0.20364(9)
C8_2 C 0.52949(11) 0.43818(11) 0.24542(9)
H4_2 H 0.4981 0.4378 0.2428
C9_2 C 0.55036(11) 0.44814(11) 0.29182(10)
C10_2 C 0.59716(11) 0.44839(10) 0.29331(9)
H5_2 H 0.6121 0.4561 0.3232
C11_2 C 0.62198(10) 0.43724(10) 0.25038(9)
N2_2 N 0.60139(8) 0.42871(8) 0.20647(7)
C12_2 C 0.67178(10) 0.43228(10) 0.24873(9)
N3_2 N 0.68954(9) 0.42524(9) 0.20221(8)
C13_2 C 0.73421(13) 0.41886(15) 0.19829(12)
H6_2 H 0.7468 0.4160 0.1661
C14_2 C 0.76237(13) 0.41634(15) 0.23978(12)
H7_2 H 0.7933 0.4114 0.2358
C15_2 C 0.74375(11) 0.42136(11) 0.28756(10)
C16_2 C 0.77133(11) 0.41340(11) 0.33480(11)
O3_2 O 0.81373(8) 0.41530(8) 0.33013(7)
O4_2 O 0.75194(8) 0.40401(9) 0.37418(8)
C17_2 C 0.69809(11) 0.43041(11) 0.29173(10)
H8_2 H 0.6852 0.4352 0.3235
C18_2 C 0.52290(12) 0.45772(12) 0.33832(10)
C19_2 C 0.47764(16) 0.4647(2) 0.33604(15)
H9_2 H 0.4633 0.4644 0.3046
C20_2 C 0.45172(19) 0.4725(3) 0.37987(18)
H10_2 H 0.4206 0.4770 0.3774
C21_2 C 0.47232(18) 0.47337(18) 0.42575(14)
H11_2 H 0.4553 0.4773 0.4551
C22_2 C 0.51687(18) 0.4686(2) 0.42851(13)
H12_2 H 0.5312 0.4706 0.4599
C23_2 C 0.54258(15) 0.46073(18) 0.38474(12)
H13_2 H 0.5738 0.4575 0.3875
Zn2_2 Zn 0.83843(2) 0.39036(2) 0.39461(2)
Zn3_2 Zn 0.33843(2) 0.39036(2) 0.10539(2)
O5_2 O 0.65338(8) 0.34678(7) 0.13362(7)
O6_2 O 0.66530(8) 0.43627(8) 0.08013(7)
C9_3 C 0.69814(11) 0.69964(11) 0.04182(10)
C10_3 C 0.69839(10) 0.65284(11) 0.04331(9)
H5_3 H 0.7061 0.6379 0.0732
C11_3 C 0.68724(10) 0.62802(10) 0.00038(9)
C15_3 C 0.67136(11) 0.50625(11) 0.03756(10)
C16_3 C 0.66340(11) 0.47867(11) 0.08480(11)
O4_3 O 0.65401(9) 0.49806(8) 0.12418(8)
C17_3 C 0.68041(11) 0.55191(11) 0.04173(10)
H8_3 H 0.6852 0.5648 0.0735
C18_3 C 0.70772(12) 0.72710(12) 0.08832(10)
C19_3 C 0.7147(2) 0.77236(16) 0.08604(15)
H9_3 H 0.7144 0.7867 0.0546
C20_3 C 0.7225(3) 0.79828(19) 0.12987(18)
H10_3 H 0.7270 0.8294 0.1274
C21_3 C 0.72337(18) 0.77768(18) 0.17575(14)
H11_3 H 0.7273 0.7947 0.2051
C22_3 C 0.7186(2) 0.73313(18) 0.17851(13)
H12_3 H 0.7206 0.7188 0.2099
C23_3 C 0.71073(18) 0.70742(15) 0.13474(12)
H13_3 H 0.7075 0.6762 0.1375
N1_3 N 0.66158(10) 0.67943(9) 0.86633(9)
C1_3 C 0.65263(15) 0.69298(13) 0.81874(12)
H1_3 H 0.6484 0.6711 0.7938
C2_3 C 0.64953(15) 0.73758(13) 0.80530(11)
H2_3 H 0.6435 0.7457 0.7719
C3_3 C 0.65543(14) 0.77054(12) 0.84191(12)
C4_3 C 0.65015(15) 0.82036(13) 0.82918(12)
O1_3 O 0.64423(16) 0.83083(10) 0.78463(10)
O2_3 O 0.65338(8) 0.84678(7) 0.86638(7)
C5_3 C 0.66506(12) 0.75707(11) 0.89127(10)
H3_3 H 0.6692 0.7785 0.9167
C6_3 C 0.66836(11) 0.71165(11) 0.90183(10)
C7_3 C 0.67897(10) 0.69382(10) 0.95364(9)
C8_3 C 0.68818(11) 0.72051(11) 0.99542(9)
H4_3 H 0.6878 0.7519 0.9928
N2_3 N 0.67871(8) 0.64861(8) 0.95647(7)
C12_3 C 0.68228(10) 0.57822(10) 0.99873(9)
N3_3 N 0.67524(9) 0.56046(9) 0.95221(8)
C13_3 C 0.66886(15) 0.51579(13) 0.94829(12)
H6_3 H 0.6660 0.5032 0.9161
C14_3 C 0.66634(15) 0.48763(13) 0.98978(12)
H7_3 H 0.6614 0.4567 0.9858
Zn3_3 Zn 0.64036(2) 0.91157(2) 0.85539(2)
O5_3 O 0.59678(7) 0.59662(8) 0.88362(7)
N1_4 N 0.83842(10) 0.32057(9) 0.36633(9)
C1_4 C 0.84737(15) 0.30702(13) 0.31874(12)
H1_4 H 0.8516 0.3289 0.2938
C2_4 C 0.85047(15) 0.26242(13) 0.30530(11)
H2_4 H 0.8565 0.2543 0.2719
C3_4 C 0.84457(14) 0.22946(12) 0.34191(12)
C4_4 C 0.84985(15) 0.17964(13) 0.32918(12)
O1_4 O 0.85577(16) 0.16917(10) 0.28463(10)
O2_4 O 0.84662(8) 0.15322(7) 0.36638(7)
C5_4 C 0.83494(12) 0.24293(11) 0.39127(10)
H3_4 H 0.8308 0.2215 0.4167
C6_4 C 0.83164(11) 0.28835(11) 0.40183(10)
C7_4 C 0.82103(10) 0.30618(10) 0.45364(9)
C8_4 C 0.81182(11) 0.27949(11) 0.49542(9)
H4_4 H 0.8122 0.2481 0.4928
C9_4 C 0.80186(11) 0.30036(11) 0.54182(10)
C10_4 C 0.80161(10) 0.34716(11) 0.54331(9)
H5_4 H 0.7939 0.3621 0.5732
C11_4 C 0.81276(10) 0.37198(10) 0.50038(9)
N2_4 N 0.82129(8) 0.35139(8) 0.45647(7)
C12_4 C 0.81772(10) 0.42178(10) 0.49873(9)
N3_4 N 0.82476(9) 0.43954(9) 0.45221(8)
C13_4 C 0.83114(15) 0.48421(13) 0.44829(12)
H6_4 H 0.8340 0.4968 0.4161
C14_4 C 0.83366(15) 0.51237(13) 0.48978(12)
H7_4 H 0.8386 0.5433 0.4858
C15_4 C 0.82864(11) 0.49375(11) 0.53756(10)
C16_4 C 0.83660(11) 0.52133(11) 0.58480(11)
O4_4 O 0.84599(9) 0.50194(8) 0.62418(8)
C17_4 C 0.81959(11) 0.44809(11) 0.54173(10)
H8_4 H 0.8148 0.4352 0.5735
C18_4 C 0.79228(12) 0.27290(12) 0.58832(10)
C19_4 C 0.7853(2) 0.22764(16) 0.58604(15)
H9_4 H 0.7856 0.2133 0.5546
C20_4 C 0.7775(3) 0.20172(19) 0.62987(18)
H10_4 H 0.7730 0.1706 0.6274
C21_4 C 0.77663(18) 0.22232(18) 0.67575(14)
H11_4 H 0.7727 0.2053 0.7051
C22_4 C 0.7814(2) 0.26687(18) 0.67851(13)
H12_4 H 0.7794 0.2812 0.7099
C23_4 C 0.78927(18) 0.29258(15) 0.63474(12)
H13_4 H 0.7925 0.3238 0.6375
Zn3_4 Zn 0.85964(2) 0.08843(2) 0.35539(2)
O5_4 O 0.90322(7) 0.40338(8) 0.38362(7)
Zn1_3 Zn 0.35964(2) 0.08843(2) 0.14461(2)
N1_5 N 0.42943(9) 0.08842(10) 0.11633(9)
C1_5 C 0.44298(13) 0.09737(15) 0.06874(12)
H1_5 H 0.4211 0.1016 0.0438
C2_5 C 0.48758(13) 0.10047(15) 0.05530(11)
H2_5 H 0.4957 0.1065 0.0219
C3_5 C 0.52054(12) 0.09457(14) 0.09191(12)
C4_5 C 0.57036(13) 0.09985(15) 0.07918(12)
O1_5 O 0.58083(10) 0.10577(16) 0.03463(10)
O2_5 O 0.59678(7) 0.09662(8) 0.11638(7)
C5_5 C 0.50707(11) 0.08494(12) 0.14127(10)
H3_5 H 0.5285 0.0808 0.1667
C6_5 C 0.46165(11) 0.08164(11) 0.15183(10)
C7_5 C 0.44382(10) 0.07103(10) 0.20364(9)
C8_5 C 0.47051(11) 0.06182(11) 0.24542(9)
H4_5 H 0.5019 0.0622 0.2428
C9_5 C 0.44964(11) 0.05186(11) 0.29182(10)
C10_5 C 0.40284(11) 0.05161(10) 0.29331(9)
H5_5 H 0.3879 0.0439 0.3232
C11_5 C 0.37802(10) 0.06276(10) 0.25038(9)
N2_5 N 0.39861(8) 0.07129(8) 0.20647(7)
C12_5 C 0.32822(10) 0.06772(10) 0.24873(9)
N3_5 N 0.31046(9) 0.07476(9) 0.20221(8)
C13_5 C 0.26579(13) 0.08114(15) 0.19829(12)
H6_5 H 0.2532 0.0840 0.1661
C14_5 C 0.23763(13) 0.08366(15) 0.23978(12)
H7_5 H 0.2067 0.0886 0.2358
C15_5 C 0.25625(11) 0.07864(11) 0.28756(10)
C16_5 C 0.22867(11) 0.08660(11) 0.33480(11)
O3_3 O 0.18627(8) 0.08470(8) 0.33013(7)
O4_5 O 0.24806(8) 0.09599(9) 0.37418(8)
C17_5 C 0.30191(11) 0.06959(11) 0.29173(10)
H8_5 H 0.3148 0.0648 0.3235
C18_5 C 0.47710(12) 0.04228(12) 0.33832(10)
C19_5 C 0.52236(16) 0.0353(2) 0.33604(15)
H9_5 H 0.5367 0.0356 0.3046
C20_5 C 0.54828(19) 0.0275(3) 0.37987(18)
H10_5 H 0.5794 0.0230 0.3774
C21_5 C 0.52768(18) 0.02663(18) 0.42575(14)
H11_5 H 0.5447 0.0227 0.4551
C22_5 C 0.48313(18) 0.0314(2) 0.42851(13)
H12_5 H 0.4688 0.0294 0.4599
C23_5 C 0.45742(15) 0.03927(18) 0.38474(12)
H13_5 H 0.4262 0.0425 0.3875
Zn2_3 Zn 0.16157(2) 0.10964(2) 0.39461(2)
Zn3_5 Zn 0.66157(2) 0.10964(2) 0.10539(2)
O5_5 O 0.34662(8) 0.15322(7) 0.13362(7)
O6_3 O 0.33470(8) 0.06373(8) 0.08013(7)
Zn1_4 Zn 0.14036(2) 0.91157(2) 0.64461(2)
N1_6 N 0.07057(9) 0.91158(10) 0.61633(9)
C1_6 C 0.05702(13) 0.90263(15) 0.56874(12)
H1_6 H 0.0789 0.8984 0.5438
C2_6 C 0.01242(13) 0.89953(15) 0.55530(11)
H2_6 H 0.0043 0.8935 0.5219
C6_6 C 0.03835(11) 0.91836(11) 0.65183(10)
C7_6 C 0.05618(10) 0.92897(10) 0.70364(9)
C8_6 C 0.02949(11) 0.93818(11) 0.74542(9)
C9_6 C 0.05036(11) 0.94814(11) 0.79182(10)
C10_6 C 0.09716(11) 0.94839(10) 0.79331(9)
H5_6 H 0.1121 0.9561 0.8232
C11_6 C 0.12198(10) 0.93724(10) 0.75038(9)
N2_6 N 0.10139(8) 0.92871(8) 0.70647(7)
C12_6 C 0.17178(10) 0.93228(10) 0.74873(9)
N3_6 N 0.18954(9) 0.92524(9) 0.70221(8)
C13_6 C 0.23421(13) 0.91886(15) 0.69829(12)
H6_6 H 0.2468 0.9160 0.6661
C14_6 C 0.26237(13) 0.91634(15) 0.73978(12)
H7_6 H 0.2933 0.9114 0.7358
C15_6 C 0.24375(11) 0.92136(11) 0.78756(10)
C16_6 C 0.27133(11) 0.91340(11) 0.83480(11)
O3_4 O 0.31373(8) 0.91530(8) 0.83013(7)
O4_6 O 0.25194(8) 0.90401(9) 0.87418(8)
C17_6 C 0.19809(11) 0.93041(11) 0.79173(10)
H8_6 H 0.1852 0.9352 0.8235
C18_6 C 0.02290(12) 0.95772(12) 0.83832(10)
C22_6 C 0.01687(18) 0.9686(2) 0.92851(13)
H12_6 H 0.0312 0.9706 0.9599
C23_6 C 0.04258(15) 0.96073(18) 0.88474(12)
H13_6 H 0.0738 0.9575 0.8875
Zn2_4 Zn 0.33843(2) 0.89036(2) 0.89461(2)
O5_6 O 0.15338(8) 0.84678(7) 0.63362(7)
O6_4 O 0.16530(8) 0.93627(8) 0.58013(7)
C3_6 C 0.97946(12) 0.90543(14) 0.59191(12)
C4_6 C 0.92964(13) 0.90015(15) 0.57918(12)
O1_6 O 0.91917(10) 0.89423(16) 0.53463(10)
O2_6 O 0.90322(7) 0.90338(8) 0.61638(7)
C5_6 C 0.99293(11) 0.91506(12) 0.64127(10)
H3_6 H 0.9715 0.9192 0.6667
H4_6 H 0.9981 0.9378 0.7428
C19_6 C 0.97764(16) 0.9647(2) 0.83604(15)
H9_6 H 0.9633 0.9644 0.8046
C20_6 C 0.95172(19) 0.9725(3) 0.87987(18)
H10_6 H 0.9206 0.9770 0.8774
C21_6 C 0.97232(18) 0.97337(18) 0.92575(14)
H11_6 H 0.9553 0.9773 0.9551
Zn3_6 Zn 0.83843(2) 0.89036(2) 0.60539(2)
N1_7 N 0.16158(10) 0.17943(9) 0.36633(9)
C1_7 C 0.15263(15) 0.19298(13) 0.31874(12)
H1_7 H 0.1484 0.1711 0.2938
C2_7 C 0.14953(15) 0.23758(13) 0.30530(11)
H2_7 H 0.1435 0.2457 0.2719
C3_7 C 0.15543(14) 0.27054(12) 0.34191(12)
C4_7 C 0.15015(15) 0.32036(13) 0.32918(12)
O1_7 O 0.14423(16) 0.33083(10) 0.28463(10)
O2_7 O 0.15338(8) 0.34678(7) 0.36638(7)
C5_7 C 0.16506(12) 0.25707(11) 0.39127(10)
H3_7 H 0.1692 0.2785 0.4167
C6_7 C 0.16836(11) 0.21165(11) 0.40183(10)
C7_7 C 0.17897(10) 0.19382(10) 0.45364(9)
C8_7 C 0.18818(11) 0.22051(11) 0.49542(9)
H4_7 H 0.1878 0.2519 0.4928
C9_7 C 0.19814(11) 0.19964(11) 0.54182(10)
C10_7 C 0.19839(10) 0.15284(11) 0.54331(9)
H5_7 H 0.2061 0.1379 0.5732
C11_7 C 0.18724(10) 0.12802(10) 0.50038(9)
N2_7 N 0.17871(8) 0.14861(8) 0.45647(7)
C12_7 C 0.18228(10) 0.07822(10) 0.49873(9)
N3_7 N 0.17524(9) 0.06046(9) 0.45221(8)
C13_7 C 0.16886(15) 0.01579(13) 0.44829(12)
H6_7 H 0.1660 0.0032 0.4161
C15_7 C 0.17136(11) 0.00625(11) 0.53756(10)
C17_7 C 0.18041(11) 0.05191(11) 0.54173(10)
H8_7 H 0.1852 0.0648 0.5735
C18_7 C 0.20772(12) 0.22710(12) 0.58832(10)
C19_7 C 0.2147(2) 0.27236(16) 0.58604(15)
H9_7 H 0.2144 0.2867 0.5546
C20_7 C 0.2225(3) 0.29828(19) 0.62987(18)
H10_7 H 0.2270 0.3294 0.6274
C21_7 C 0.22337(18) 0.27768(18) 0.67575(14)
H11_7 H 0.2273 0.2947 0.7051
C22_7 C 0.2186(2) 0.23313(18) 0.67851(13)
H12_7 H 0.2206 0.2188 0.7099
C23_7 C 0.21073(18) 0.20742(15) 0.63474(12)
H13_7 H 0.2075 0.1762 0.6375
Zn3_7 Zn 0.14036(2) 0.41157(2) 0.35539(2)
O5_7 O 0.09678(7) 0.09662(8) 0.38362(7)
C14_7 C 0.16634(15) 0.98763(13) 0.48978(12)
H7_7 H 0.1614 0.9567 0.4858
C16_7 C 0.16340(11) 0.97867(11) 0.58480(11)
O4_7 O 0.15401(9) 0.99806(8) 0.62418(8)
C16_8 C 0.33660(11) 0.02133(11) 0.08480(11)
O4_8 O 0.34599(9) 0.00194(8) 0.12418(8)
N1_8 N 0.33842(10) 0.82057(9) 0.86633(9)
C1_8 C 0.34737(15) 0.80702(13) 0.81874(12)
H1_8 H 0.3516 0.8289 0.7938
C2_8 C 0.35047(15) 0.76242(13) 0.80530(11)
H2_8 H 0.3565 0.7543 0.7719
C3_8 C 0.34457(14) 0.72946(12) 0.84191(12)
C4_8 C 0.34985(15) 0.67964(13) 0.82918(12)
O1_8 O 0.35577(16) 0.66917(10) 0.78463(10)
O2_8 O 0.34662(8) 0.65322(7) 0.86638(7)
C5_8 C 0.33494(12) 0.74293(11) 0.89127(10)
H3_8 H 0.3308 0.7215 0.9167
C6_8 C 0.33164(11) 0.78835(11) 0.90183(10)
C7_8 C 0.32103(10) 0.80618(10) 0.95364(9)
C8_8 C 0.31182(11) 0.77949(11) 0.99542(9)
H4_8 H 0.3122 0.7481 0.9928
N2_8 N 0.32129(8) 0.85139(8) 0.95647(7)
C12_8 C 0.31772(10) 0.92178(10) 0.99873(9)
N3_8 N 0.32476(9) 0.93954(9) 0.95221(8)
C13_8 C 0.33114(15) 0.98421(13) 0.94829(12)
H6_8 H 0.3340 0.9968 0.9161
Zn3_8 Zn 0.35964(2) 0.58843(2) 0.85539(2)
O5_8 O 0.40322(7) 0.90338(8) 0.88362(7)
N1_9 N 0.07057(9) 0.41158(10) 0.38367(9)
C1_9 C 0.05702(13) 0.40263(15) 0.43126(12)
H1_9 H 0.0789 0.3984 0.4562
C2_9 C 0.01242(13) 0.39953(15) 0.44470(11)
H2_9 H 0.0043 0.3935 0.4781
C6_9 C 0.03835(11) 0.41836(11) 0.34817(10)
C7_9 C 0.05618(10) 0.42897(10) 0.29636(9)
C8_9 C 0.02949(11) 0.43818(11) 0.25458(9)
C9_8 C 0.05036(11) 0.44814(11) 0.20818(10)
C10_8 C 0.09716(11) 0.44839(10) 0.20669(9)
H5_8 H 0.1121 0.4561 0.1768
C11_8 C 0.12198(10) 0.43724(10) 0.24962(9)
N2_9 N 0.10139(8) 0.42871(8) 0.29353(7)
C12_9 C 0.17178(10) 0.43228(10) 0.25127(9)
N3_9 N 0.18954(9) 0.42524(9) 0.29779(8)
C13_9 C 0.23421(13) 0.41886(15) 0.30171(12)
H6_9 H 0.2468 0.4160 0.3339
C14_8 C 0.26237(13) 0.41634(15) 0.26022(12)
H7_8 H 0.2933 0.4114 0.2642
C15_8 C 0.24375(11) 0.42136(11) 0.21244(10)
C16_9 C 0.27133(11) 0.41340(11) 0.16520(11)
O3_5 O 0.31373(8) 0.41530(8) 0.16987(7)
O4_9 O 0.25194(8) 0.40401(9) 0.12582(8)
C17_8 C 0.19809(11) 0.43041(11) 0.20827(10)
H8_8 H 0.1852 0.4352 0.1765
C18_8 C 0.02290(12) 0.45772(12) 0.16168(10)
C22_8 C 0.01687(18) 0.4686(2) 0.07149(13)
H12_8 H 0.0312 0.4706 0.0401
C23_8 C 0.04258(15) 0.46073(18) 0.11526(12)
H13_8 H 0.0738 0.4575 0.1125
O6_5 O 0.16530(8) 0.43627(8) 0.41987(7)
C3_9 C 0.97946(12) 0.40543(14) 0.40809(12)
C4_9 C 0.92964(13) 0.40015(15) 0.42082(12)
O1_9 O 0.91917(10) 0.39423(16) 0.46537(10)
C5_9 C 0.99293(11) 0.41506(12) 0.35873(10)
H3_9 H 0.9715 0.4192 0.3333
H4_9 H 0.9981 0.4378 0.2572
C19_8 C 0.97764(16) 0.4647(2) 0.16396(15)
H9_8 H 0.9633 0.4644 0.1954
C20_8 C 0.95172(19) 0.4725(3) 0.12013(18)
H10_8 H 0.9206 0.4770 0.1226
C21_8 C 0.97232(18) 0.47337(18) 0.07425(14)
H11_8 H 0.9553 0.4773 0.0449
N1_10 N 0.42943(9) 0.58842(10) 0.88367(9)
C1_10 C 0.44298(13) 0.59737(15) 0.93126(12)
H1_10 H 0.4211 0.6016 0.9562
C2_10 C 0.48758(13) 0.60047(15) 0.94470(11)
H2_10 H 0.4957 0.6065 0.9781
C3_10 C 0.52054(12) 0.59457(14) 0.90809(12)
C4_10 C 0.57036(13) 0.59985(15) 0.92082(12)
O1_10 O 0.58083(10) 0.60577(16) 0.96537(10)
C5_10 C 0.50707(11) 0.58494(12) 0.85873(10)
H3_10 H 0.5285 0.5808 0.8333
C6_10 C 0.46165(11) 0.58164(11) 0.84817(10)
C7_10 C 0.44382(10) 0.57103(10) 0.79636(9)
C8_10 C 0.47051(11) 0.56182(11) 0.75458(9)
H4_10 H 0.5019 0.5622 0.7572
C9_9 C 0.44964(11) 0.55186(11) 0.70818(10)
C10_9 C 0.40284(11) 0.55161(10) 0.70669(9)
H5_9 H 0.3879 0.5439 0.6768
C11_9 C 0.37802(10) 0.56276(10) 0.74962(9)
N2_10 N 0.39861(8) 0.57129(8) 0.79353(7)
C12_10 C 0.32822(10) 0.56772(10) 0.75127(9)
N3_10 N 0.31046(9) 0.57476(9) 0.79779(8)
C13_10 C 0.26579(13) 0.58114(15) 0.80171(12)
H6_10 H 0.2532 0.5840 0.8339
C14_9 C 0.23763(13) 0.58366(15) 0.76022(12)
H7_9 H 0.2067 0.5886 0.7642
C15_9 C 0.25625(11) 0.57864(11) 0.71244(10)
C16_10 C 0.22867(11) 0.58660(11) 0.66520(11)
O3_6 O 0.18627(8) 0.58470(8) 0.66987(7)
O4_10 O 0.24806(8) 0.59599(9) 0.62582(8)
C17_9 C 0.30191(11) 0.56959(11) 0.70827(10)
H8_9 H 0.3148 0.5648 0.6765
C18_9 C 0.47710(12) 0.54228(12) 0.66168(10)
C19_9 C 0.52236(16) 0.5353(2) 0.66396(15)
H9_9 H 0.5367 0.5356 0.6954
C20_9 C 0.54828(19) 0.5275(3) 0.62013(18)
H10_9 H 0.5794 0.5230 0.6226
C21_9 C 0.52768(18) 0.52663(18) 0.57425(14)
H11_9 H 0.5447 0.5227 0.5449
C22_9 C 0.48313(18) 0.5314(2) 0.57149(13)
H12_9 H 0.4688 0.5294 0.5401
C23_9 C 0.45742(15) 0.53927(18) 0.61526(12)
H13_9 H 0.4262 0.5425 0.6125
O6_6 O 0.33470(8) 0.56373(8) 0.91987(7)
N1_11 N 0.33842(10) 0.32057(9) 0.13367(9)
C1_11 C 0.34737(15) 0.30702(13) 0.18126(12)
H1_11 H 0.3516 0.3289 0.2062
C2_11 C 0.35047(15) 0.26242(13) 0.19470(11)
H2_11 H 0.3565 0.2543 0.2281
C3_11 C 0.34457(14) 0.22946(12) 0.15809(12)
C4_11 C 0.34985(15) 0.17964(13) 0.17082(12)
O1_11 O 0.35577(16) 0.16917(10) 0.21537(10)
C5_11 C 0.33494(12) 0.24293(11) 0.10873(10)
H3_11 H 0.3308 0.2215 0.0833
C6_11 C 0.33164(11) 0.28835(11) 0.09817(10)
C7_11 C 0.32103(10) 0.30618(10) 0.04636(9)
C8_11 C 0.31182(11) 0.27949(11) 0.00458(9)
H4_11 H 0.3122 0.2481 0.0072
N2_11 N 0.32129(8) 0.35139(8) 0.04353(7)
C12_11 C 0.31772(10) 0.42178(10) 0.00127(9)
N3_11 N 0.32476(9) 0.43954(9) 0.04779(8)
C13_11 C 0.33114(15) 0.48421(13) 0.05171(12)
H6_11 H 0.3340 0.4968 0.0839
C14_10 C 0.33366(15) 0.51237(13) 0.01022(12)
H7_10 H 0.3386 0.5433 0.0142
C9_10 C 0.30186(11) 0.30036(11) 0.95818(10)
C10_10 C 0.30161(10) 0.34716(11) 0.95669(9)
H5_10 H 0.2939 0.3621 0.9268
C11_10 C 0.31276(10) 0.37198(10) 0.99962(9)
C15_10 C 0.32864(11) 0.49375(11) 0.96244(10)
C16_11 C 0.33660(11) 0.52133(11) 0.91520(11)
O4_11 O 0.34599(9) 0.50194(8) 0.87582(8)
C17_10 C 0.31959(11) 0.44809(11) 0.95827(10)
H8_10 H 0.3148 0.4352 0.9265
C18_10 C 0.29228(12) 0.27290(12) 0.91168(10)
C19_10 C 0.2853(2) 0.22764(16) 0.91396(15)
H9_10 H 0.2856 0.2133 0.9454
C20_10 C 0.2775(3) 0.20172(19) 0.87013(18)
H10_10 H 0.2730 0.1706 0.8726
C21_10 C 0.27663(18) 0.22232(18) 0.82425(14)
H11_10 H 0.2727 0.2053 0.7949
C22_10 C 0.2814(2) 0.26687(18) 0.82149(13)
H12_10 H 0.2794 0.2812 0.7901
C23_10 C 0.28927(18) 0.29258(15) 0.86526(12)
H13_10 H 0.2925 0.3238 0.8625
N1_12 N 0.16158(10) 0.67943(9) 0.63367(9)
C1_12 C 0.15263(15) 0.69298(13) 0.68126(12)
H1_12 H 0.1484 0.6711 0.7062
C2_12 C 0.14953(15) 0.73758(13) 0.69470(11)
H2_12 H 0.1435 0.7457 0.7281
C3_12 C 0.15543(14) 0.77054(12) 0.65809(12)
C4_12 C 0.15015(15) 0.82036(13) 0.67082(12)
O1_12 O 0.14423(16) 0.83083(10) 0.71537(10)
C5_12 C 0.16506(12) 0.75707(11) 0.60873(10)
H3_12 H 0.1692 0.7785 0.5833
C6_12 C 0.16836(11) 0.71165(11) 0.59817(10)
C7_12 C 0.17897(10) 0.69382(10) 0.54636(9)
C8_12 C 0.18818(11) 0.72051(11) 0.50458(9)
H4_12 H 0.1878 0.7519 0.5072
C9_11 C 0.19814(11) 0.69964(11) 0.45818(10)
C10_11 C 0.19839(10) 0.65284(11) 0.45669(9)
H5_11 H 0.2061 0.6379 0.4268
C11_11 C 0.18724(10) 0.62802(10) 0.49962(9)
N2_12 N 0.17871(8) 0.64861(8) 0.54353(7)
C12_12 C 0.18228(10) 0.57822(10) 0.50127(9)
N3_12 N 0.17524(9) 0.56046(9) 0.54779(8)
C13_12 C 0.16886(15) 0.51579(13) 0.55171(12)
H6_12 H 0.1660 0.5032 0.5839
C14_11 C 0.16634(15) 0.48763(13) 0.51022(12)
H7_11 H 0.1614 0.4567 0.5142
C15_11 C 0.17136(11) 0.50625(11) 0.46244(10)
C16_12 C 0.16340(11) 0.47867(11) 0.41520(11)
O4_12 O 0.15401(9) 0.49806(8) 0.37582(8)
C17_11 C 0.18041(11) 0.55191(11) 0.45827(10)
H8_11 H 0.1852 0.5648 0.4265
C18_11 C 0.20772(12) 0.72710(12) 0.41168(10)
C19_11 C 0.2147(2) 0.77236(16) 0.41396(15)
H9_11 H 0.2144 0.7867 0.4454
C20_11 C 0.2225(3) 0.79828(19) 0.37013(18)
H10_11 H 0.2270 0.8294 0.3726
C21_11 C 0.22337(18) 0.77768(18) 0.32425(14)
H11_11 H 0.2273 0.7947 0.2949
C22_11 C 0.2186(2) 0.73313(18) 0.32149(13)
H12_11 H 0.2206 0.7188 0.2901
C23_11 C 0.21073(18) 0.70742(15) 0.36526(12)
H13_11 H 0.2075 0.6762 0.3625
N1_13 N 0.57057(9) 0.91158(10) 0.88367(9)
C1_13 C 0.55702(13) 0.90263(15) 0.93126(12)
H1_13 H 0.5789 0.8984 0.9562
C2_13 C 0.51242(13) 0.89953(15) 0.94470(11)
H2_13 H 0.5043 0.8935 0.9781
C3_13 C 0.47946(12) 0.90543(14) 0.90809(12)
C4_13 C 0.42964(13) 0.90015(15) 0.92082(12)
O1_13 O 0.41917(10) 0.89423(16) 0.96537(10)
C5_13 C 0.49293(11) 0.91506(12) 0.85873(10)
H3_13 H 0.4715 0.9192 0.8333
C6_13 C 0.53835(11) 0.91836(11) 0.84817(10)
C7_13 C 0.55618(10) 0.92897(10) 0.79636(9)
C8_13 C 0.52949(11) 0.93818(11) 0.75458(9)
H4_13 H 0.4981 0.9378 0.7572
C9_12 C 0.55036(11) 0.94814(11) 0.70818(10)
C10_12 C 0.59716(11) 0.94839(10) 0.70669(9)
H5_12 H 0.6121 0.9561 0.6768
C11_12 C 0.62198(10) 0.93724(10) 0.74962(9)
N2_13 N 0.60139(8) 0.92871(8) 0.79353(7)
C12_13 C 0.67178(10) 0.93228(10) 0.75127(9)
N3_13 N 0.68954(9) 0.92524(9) 0.79779(8)
C13_13 C 0.73421(13) 0.91886(15) 0.80171(12)
H6_13 H 0.7468 0.9160 0.8339
C14_12 C 0.76237(13) 0.91634(15) 0.76022(12)
H7_12 H 0.7933 0.9114 0.7642
C15_12 C 0.74375(11) 0.92136(11) 0.71244(10)
C16_13 C 0.77133(11) 0.91340(11) 0.66520(11)
O3_7 O 0.81373(8) 0.91530(8) 0.66987(7)
O4_13 O 0.75194(8) 0.90401(9) 0.62582(8)
C17_12 C 0.69809(11) 0.93041(11) 0.70827(10)
H8_12 H 0.6852 0.9352 0.6765
C18_12 C 0.52290(12) 0.95772(12) 0.66168(10)
C19_12 C 0.47764(16) 0.9647(2) 0.66396(15)
H9_12 H 0.4633 0.9644 0.6954
C20_12 C 0.45172(19) 0.9725(3) 0.62013(18)
H10_12 H 0.4206 0.9770 0.6226
C21_12 C 0.47232(18) 0.97337(18) 0.57425(14)
H11_12 H 0.4553 0.9773 0.5449
C22_12 C 0.51687(18) 0.9686(2) 0.57149(13)
H12_12 H 0.5312 0.9706 0.5401
C23_12 C 0.54258(15) 0.96073(18) 0.61526(12)
H13_12 H 0.5738 0.9575 0.6125
O6_7 O 0.66530(8) 0.93627(8) 0.91987(7)
C3_14 C 0.02054(12) 0.09457(14) 0.40809(12)
C4_14 C 0.07036(13) 0.09985(15) 0.42082(12)
O1_14 O 0.08083(10) 0.10577(16) 0.46537(10)
C5_14 C 0.00707(11) 0.08494(12) 0.35873(10)
H3_14 H 0.0285 0.0808 0.3333
H4_14 H 0.0019 0.0622 0.2572
C19_13 C 0.02236(16) 0.0353(2) 0.16396(15)
H9_13 H 0.0367 0.0356 0.1954
C20_13 C 0.04828(19) 0.0275(3) 0.12013(18)
H10_13 H 0.0794 0.0230 0.1226
C21_13 C 0.02768(18) 0.02663(18) 0.07425(14)
H11_13 H 0.0447 0.0227 0.0449
N1_14 N 0.92943(9) 0.08842(10) 0.38367(9)
C1_14 C 0.94298(13) 0.09737(15) 0.43126(12)
H1_14 H 0.9211 0.1016 0.4562
C2_14 C 0.98758(13) 0.10047(15) 0.44470(11)
H2_14 H 0.9957 0.1065 0.4781
C6_14 C 0.96165(11) 0.08164(11) 0.34817(10)
C7_14 C 0.94382(10) 0.07103(10) 0.29636(9)
C8_14 C 0.97051(11) 0.06182(11) 0.25458(9)
C9_13 C 0.94964(11) 0.05186(11) 0.20818(10)
C10_13 C 0.90284(11) 0.05161(10) 0.20669(9)
H5_13 H 0.8879 0.0439 0.1768
C11_13 C 0.87802(10) 0.06276(10) 0.24962(9)
N2_14 N 0.89861(8) 0.07129(8) 0.29353(7)
C12_14 C 0.82822(10) 0.06772(10) 0.25127(9)
N3_14 N 0.81046(9) 0.07476(9) 0.29779(8)
C13_14 C 0.76579(13) 0.08114(15) 0.30171(12)
H6_14 H 0.7532 0.0840 0.3339
C14_13 C 0.73763(13) 0.08366(15) 0.26022(12)
H7_13 H 0.7067 0.0886 0.2642
C15_13 C 0.75625(11) 0.07864(11) 0.21244(10)
C16_14 C 0.72867(11) 0.08660(11) 0.16520(11)
O3_8 O 0.68627(8) 0.08470(8) 0.16987(7)
O4_14 O 0.74806(8) 0.09599(9) 0.12582(8)
C17_13 C 0.80191(11) 0.06959(11) 0.20827(10)
H8_13 H 0.8148 0.0648 0.1765
C18_13 C 0.97710(12) 0.04228(12) 0.16168(10)
C22_13 C 0.98313(18) 0.0314(2) 0.07149(13)
H12_13 H 0.9688 0.0294 0.0401
C23_13 C 0.95742(15) 0.03927(18) 0.11526(12)
H13_13 H 0.9262 0.0425 0.1125
O6_8 O 0.83470(8) 0.06373(8) 0.41987(7)
C14_14 C 0.83366(15) 0.01237(13) 0.51022(12)
H7_14 H 0.8386 0.0433 0.5142
C16_15 C 0.83660(11) 0.02133(11) 0.41520(11)
O4_15 O 0.84599(9) 0.00194(8) 0.37582(8)
N1_15 N 0.83842(10) 0.82057(9) 0.63367(9)
C1_15 C 0.84737(15) 0.80702(13) 0.68126(12)
H1_15 H 0.8516 0.8289 0.7062
C2_15 C 0.85047(15) 0.76242(13) 0.69470(11)
H2_15 H 0.8565 0.7543 0.7281
C3_15 C 0.84457(14) 0.72946(12) 0.65809(12)
C4_15 C 0.84985(15) 0.67964(13) 0.67082(12)
O1_15 O 0.85577(16) 0.66917(10) 0.71537(10)
C5_15 C 0.83494(12) 0.74293(11) 0.60873(10)
H3_15 H 0.8308 0.7215 0.5833
C6_15 C 0.83164(11) 0.78835(11) 0.59817(10)
C7_15 C 0.82103(10) 0.80618(10) 0.54636(9)
C8_15 C 0.81182(11) 0.77949(11) 0.50458(9)
H4_15 H 0.8122 0.7481 0.5072
C9_14 C 0.80186(11) 0.80036(11) 0.45818(10)
C10_14 C 0.80161(10) 0.84716(11) 0.45669(9)
H5_14 H 0.7939 0.8621 0.4268
C11_14 C 0.81276(10) 0.87198(10) 0.49962(9)
N2_15 N 0.82129(8) 0.85139(8) 0.54353(7)
C12_15 C 0.81772(10) 0.92178(10) 0.50127(9)
N3_15 N 0.82476(9) 0.93954(9) 0.54779(8)
C13_15 C 0.83114(15) 0.98421(13) 0.55171(12)
H6_15 H 0.8340 0.9968 0.5839
C15_14 C 0.82864(11) 0.99375(11) 0.46244(10)
C17_14 C 0.81959(11) 0.94809(11) 0.45827(10)
H8_14 H 0.8148 0.9352 0.4265
C18_14 C 0.79228(12) 0.77290(12) 0.41168(10)
C19_14 C 0.7853(2) 0.72764(16) 0.41396(15)
H9_14 H 0.7856 0.7133 0.4454
C20_14 C 0.7775(3) 0.70172(19) 0.37013(18)
H10_14 H 0.7730 0.6706 0.3726
C21_14 C 0.77663(18) 0.72232(18) 0.32425(14)
H11_14 H 0.7727 0.7053 0.2949
C22_14 C 0.7814(2) 0.76687(18) 0.32149(13)
H12_14 H 0.7794 0.7812 0.2901
C23_14 C 0.78927(18) 0.79258(15) 0.36526(12)
H13_14 H 0.7925 0.8238 0.3625
N1_16 N 0.66158(10) 0.17943(9) 0.13367(9)
C1_16 C 0.65263(15) 0.19298(13) 0.18126(12)
H1_16 H 0.6484 0.1711 0.2062
C2_16 C 0.64953(15) 0.23758(13) 0.19470(11)
H2_16 H 0.6435 0.2457 0.2281
C3_16 C 0.65543(14) 0.27054(12) 0.15809(12)
C4_16 C 0.65015(15) 0.32036(13) 0.17082(12)
O1_16 O 0.64423(16) 0.33083(10) 0.21537(10)
C5_16 C 0.66506(12) 0.25707(11) 0.10873(10)
H3_16 H 0.6692 0.2785 0.0833
C6_16 C 0.66836(11) 0.21165(11) 0.09817(10)
C7_16 C 0.67897(10) 0.19382(10) 0.04636(9)
C8_16 C 0.68818(11) 0.22051(11) 0.00458(9)
H4_16 H 0.6878 0.2519 0.0072
N2_16 N 0.67871(8) 0.14861(8) 0.04353(7)
C12_16 C 0.68228(10) 0.07822(10) 0.00127(9)
N3_16 N 0.67524(9) 0.06046(9) 0.04779(8)
C13_16 C 0.66886(15) 0.01579(13) 0.05171(12)
H6_16 H 0.6660 0.0032 0.0839
C16_16 C 0.66340(11) 0.97867(11) 0.91520(11)
O4_16 O 0.65401(9) 0.99806(8) 0.87582(8)
Zn1_5 Zn 0.64036(2) 0.58843(2) 0.35539(2)
N1_17 N 0.57057(9) 0.58842(10) 0.38367(9)
C1_17 C 0.55702(13) 0.59737(15) 0.43126(12)
H1_17 H 0.5789 0.6016 0.4562
C2_17 C 0.51242(13) 0.60047(15) 0.44470(11)
H2_17 H 0.5043 0.6065 0.4781
C3_17 C 0.47946(12) 0.59457(14) 0.40809(12)
C4_17 C 0.42964(13) 0.59985(15) 0.42082(12)
O1_17 O 0.41917(10) 0.60577(16) 0.46537(10)
O2_9 O 0.40322(7) 0.59662(8) 0.38362(7)
C5_17 C 0.49293(11) 0.58494(12) 0.35873(10)
H3_17 H 0.4715 0.5808 0.3333
C6_17 C 0.53835(11) 0.58164(11) 0.34817(10)
C7_17 C 0.55618(10) 0.57103(10) 0.29636(9)
C8_17 C 0.52949(11) 0.56182(11) 0.25458(9)
H4_17 H 0.4981 0.5622 0.2572
C9_15 C 0.55036(11) 0.55186(11) 0.20818(10)
C10_15 C 0.59716(11) 0.55161(10) 0.20669(9)
H5_15 H 0.6121 0.5439 0.1768
C11_15 C 0.62198(10) 0.56276(10) 0.24962(9)
N2_17 N 0.60139(8) 0.57129(8) 0.29353(7)
C12_17 C 0.67178(10) 0.56772(10) 0.25127(9)
N3_17 N 0.68954(9) 0.57476(9) 0.29779(8)
C13_17 C 0.73421(13) 0.58114(15) 0.30171(12)
H6_17 H 0.7468 0.5840 0.3339
C14_15 C 0.76237(13) 0.58366(15) 0.26022(12)
H7_15 H 0.7933 0.5886 0.2642
C15_15 C 0.74375(11) 0.57864(11) 0.21244(10)
C16_17 C 0.77133(11) 0.58660(11) 0.16520(11)
O3_9 O 0.81373(8) 0.58470(8) 0.16987(7)
O4_17 O 0.75194(8) 0.59599(9) 0.12582(8)
C17_15 C 0.69809(11) 0.56959(11) 0.20827(10)
H8_15 H 0.6852 0.5648 0.1765
C18_15 C 0.52290(12) 0.54228(12) 0.16168(10)
C19_15 C 0.47764(16) 0.5353(2) 0.16396(15)
H9_15 H 0.4633 0.5356 0.1954
C20_15 C 0.45172(19) 0.5275(3) 0.12013(18)
H10_15 H 0.4206 0.5230 0.1226
C21_15 C 0.47232(18) 0.52663(18) 0.07425(14)
H11_15 H 0.4553 0.5227 0.0449
C22_15 C 0.51687(18) 0.5314(2) 0.07149(13)
H12_15 H 0.5312 0.5294 0.0401
C23_15 C 0.54258(15) 0.53927(18) 0.11526(12)
H13_15 H 0.5738 0.5425 0.1125
Zn2_5 Zn 0.83843(2) 0.60964(2) 0.10539(2)
Zn3_9 Zn 0.33843(2) 0.60964(2) 0.39461(2)
O5_9 O 0.65338(8) 0.65322(7) 0.36638(7)
O6_9 O 0.66530(8) 0.56373(8) 0.41987(7)
C3_18 C 0.02054(12) 0.40543(14) 0.90809(12)
C4_18 C 0.07036(13) 0.40015(15) 0.92082(12)
O1_18 O 0.08083(10) 0.39423(16) 0.96537(10)
O2_10 O 0.09678(7) 0.40338(8) 0.88362(7)
C5_18 C 0.00707(11) 0.41506(12) 0.85873(10)
H3_18 H 0.0285 0.4192 0.8333
H4_18 H 0.0019 0.4378 0.7572
C19_16 C 0.02236(16) 0.4647(2) 0.66396(15)
H9_16 H 0.0367 0.4644 0.6954
C20_16 C 0.04828(19) 0.4725(3) 0.62013(18)
H10_16 H 0.0794 0.4770 0.6226
C21_16 C 0.02768(18) 0.47337(18) 0.57425(14)
H11_16 H 0.0447 0.4773 0.5449
Zn3_10 Zn 0.16157(2) 0.39036(2) 0.89461(2)
Zn1_6 Zn 0.85964(2) 0.41157(2) 0.85539(2)
N1_18 N 0.92943(9) 0.41158(10) 0.88367(9)
C1_18 C 0.94298(13) 0.40263(15) 0.93126(12)
H1_18 H 0.9211 0.3984 0.9562
C2_18 C 0.98758(13) 0.39953(15) 0.94470(11)
H2_18 H 0.9957 0.3935 0.9781
C6_18 C 0.96165(11) 0.41836(11) 0.84817(10)
C7_18 C 0.94382(10) 0.42897(10) 0.79636(9)
C8_18 C 0.97051(11) 0.43818(11) 0.75458(9)
C9_16 C 0.94964(11) 0.44814(11) 0.70818(10)
C10_16 C 0.90284(11) 0.44839(10) 0.70669(9)
H5_16 H 0.8879 0.4561 0.6768
C11_16 C 0.87802(10) 0.43724(10) 0.74962(9)
N2_18 N 0.89861(8) 0.42871(8) 0.79353(7)
C12_18 C 0.82822(10) 0.43228(10) 0.75127(9)
N3_18 N 0.81046(9) 0.42524(9) 0.79779(8)
C13_18 C 0.76579(13) 0.41886(15) 0.80171(12)
H6_18 H 0.7532 0.4160 0.8339
C14_16 C 0.73763(13) 0.41634(15) 0.76022(12)
H7_16 H 0.7067 0.4114 0.7642
C15_16 C 0.75625(11) 0.42136(11) 0.71244(10)
C16_18 C 0.72867(11) 0.41340(11) 0.66520(11)
O3_10 O 0.68627(8) 0.41530(8) 0.66987(7)
O4_18 O 0.74806(8) 0.40401(9) 0.62582(8)
C17_16 C 0.80191(11) 0.43041(11) 0.70827(10)
H8_16 H 0.8148 0.4352 0.6765
C18_16 C 0.97710(12) 0.45772(12) 0.66168(10)
C22_16 C 0.98313(18) 0.4686(2) 0.57149(13)
H12_16 H 0.9688 0.4706 0.5401
C23_16 C 0.95742(15) 0.46073(18) 0.61526(12)
H13_16 H 0.9262 0.4575 0.6125
Zn2_6 Zn 0.66157(2) 0.39036(2) 0.60539(2)
O5_10 O 0.84662(8) 0.34678(7) 0.86638(7)
O6_10 O 0.83470(8) 0.43627(8) 0.91987(7)
N1_19 N 0.83842(10) 0.67943(9) 0.13367(9)
C1_19 C 0.84737(15) 0.69298(13) 0.18126(12)
H1_19 H 0.8516 0.6711 0.2062
C2_19 C 0.85047(15) 0.73758(13) 0.19470(11)
H2_19 H 0.8565 0.7457 0.2281
C3_19 C 0.84457(14) 0.77054(12) 0.15809(12)
C4_19 C 0.84985(15) 0.82036(13) 0.17082(12)
O1_19 O 0.85577(16) 0.83083(10) 0.21537(10)
O2_11 O 0.84662(8) 0.84678(7) 0.13362(7)
C5_19 C 0.83494(12) 0.75707(11) 0.10873(10)
H3_19 H 0.8308 0.7785 0.0833
C6_19 C 0.83164(11) 0.71165(11) 0.09817(10)
C7_19 C 0.82103(10) 0.69382(10) 0.04636(9)
C8_19 C 0.81182(11) 0.72051(11) 0.00458(9)
H4_19 H 0.8122 0.7519 0.0072
N2_19 N 0.82129(8) 0.64861(8) 0.04353(7)
C12_19 C 0.81772(10) 0.57822(10) 0.00127(9)
N3_19 N 0.82476(9) 0.56046(9) 0.04779(8)
C13_19 C 0.83114(15) 0.51579(13) 0.05171(12)
H6_19 H 0.8340 0.5032 0.0839
C14_17 C 0.83366(15) 0.48763(13) 0.01022(12)
H7_17 H 0.8386 0.4567 0.0142
Zn3_11 Zn 0.85964(2) 0.91157(2) 0.14461(2)
O5_11 O 0.90322(7) 0.59662(8) 0.11638(7)
C9_17 C 0.80186(11) 0.69964(11) 0.95818(10)
C10_17 C 0.80161(10) 0.65284(11) 0.95669(9)
H5_17 H 0.7939 0.6379 0.9268
C11_17 C 0.81276(10) 0.62802(10) 0.99962(9)
C15_17 C 0.82864(11) 0.50625(11) 0.96244(10)
C16_19 C 0.83660(11) 0.47867(11) 0.91520(11)
O4_19 O 0.84599(9) 0.49806(8) 0.87582(8)
C17_17 C 0.81959(11) 0.55191(11) 0.95827(10)
H8_17 H 0.8148 0.5648 0.9265
C18_17 C 0.79228(12) 0.72710(12) 0.91168(10)
C19_17 C 0.7853(2) 0.77236(16) 0.91396(15)
H9_17 H 0.7856 0.7867 0.9454
C20_17 C 0.7775(3) 0.79828(19) 0.87013(18)
H10_17 H 0.7730 0.8294 0.8726
C21_17 C 0.77663(18) 0.77768(18) 0.82425(14)
H11_17 H 0.7727 0.7947 0.7949
C22_17 C 0.7814(2) 0.73313(18) 0.82149(13)
H12_17 H 0.7794 0.7188 0.7901
C23_17 C 0.78927(18) 0.70742(15) 0.86526(12)
H13_17 H 0.7925 0.6762 0.8625
N1_20 N 0.66158(10) 0.32057(9) 0.63367(9)
C1_20 C 0.65263(15) 0.30702(13) 0.68126(12)
H1_20 H 0.6484 0.3289 0.7062
C2_20 C 0.64953(15) 0.26242(13) 0.69470(11)
H2_20 H 0.6435 0.2543 0.7281
C3_20 C 0.65543(14) 0.22946(12) 0.65809(12)
C4_20 C 0.65015(15) 0.17964(13) 0.67082(12)
O1_20 O 0.64423(16) 0.16917(10) 0.71537(10)
O2_12 O 0.65338(8) 0.15322(7) 0.63362(7)
C5_20 C 0.66506(12) 0.24293(11) 0.60873(10)
H3_20 H 0.6692 0.2215 0.5833
C6_20 C 0.66836(11) 0.28835(11) 0.59817(10)
C7_20 C 0.67897(10) 0.30618(10) 0.54636(9)
C8_20 C 0.68818(11) 0.27949(11) 0.50458(9)
H4_20 H 0.6878 0.2481 0.5072
C9_18 C 0.69814(11) 0.30036(11) 0.45818(10)
C10_18 C 0.69839(10) 0.34716(11) 0.45669(9)
H5_18 H 0.7061 0.3621 0.4268
C11_18 C 0.68724(10) 0.37198(10) 0.49962(9)
N2_20 N 0.67871(8) 0.35139(8) 0.54353(7)
C12_20 C 0.68228(10) 0.42178(10) 0.50127(9)
N3_20 N 0.67524(9) 0.43954(9) 0.54779(8)
C13_20 C 0.66886(15) 0.48421(13) 0.55171(12)
H6_20 H 0.6660 0.4968 0.5839
C14_18 C 0.66634(15) 0.51237(13) 0.51022(12)
H7_18 H 0.6614 0.5433 0.5142
C15_18 C 0.67136(11) 0.49375(11) 0.46244(10)
C16_20 C 0.66340(11) 0.52133(11) 0.41520(11)
O4_20 O 0.65401(9) 0.50194(8) 0.37582(8)
C17_18 C 0.68041(11) 0.44809(11) 0.45827(10)
H8_18 H 0.6852 0.4352 0.4265
C18_18 C 0.70772(12) 0.27290(12) 0.41168(10)
C19_18 C 0.7147(2) 0.22764(16) 0.41396(15)
H9_18 H 0.7144 0.2133 0.4454
C20_18 C 0.7225(3) 0.20172(19) 0.37013(18)
H10_18 H 0.7270 0.1706 0.3726
C21_18 C 0.72337(18) 0.22232(18) 0.32425(14)
H11_18 H 0.7273 0.2053 0.2949
C22_18 C 0.7186(2) 0.26687(18) 0.32149(13)
H12_18 H 0.7206 0.2812 0.2901
C23_18 C 0.71073(18) 0.29258(15) 0.36526(12)
H13_18 H 0.7075 0.3238 0.3625
Zn3_12 Zn 0.64036(2) 0.08843(2) 0.64461(2)
O5_12 O 0.59678(7) 0.40338(8) 0.61638(7)
Zn1_7 Zn 0.14036(2) 0.08843(2) 0.85539(2)
N1_21 N 0.07057(9) 0.08842(10) 0.88367(9)
C1_21 C 0.05702(13) 0.09737(15) 0.93126(12)
H1_21 H 0.0789 0.1016 0.9562
C2_21 C 0.01242(13) 0.10047(15) 0.94470(11)
H2_21 H 0.0043 0.1065 0.9781
C6_21 C 0.03835(11) 0.08164(11) 0.84817(10)
C7_21 C 0.05618(10) 0.07103(10) 0.79636(9)
C8_21 C 0.02949(11) 0.06182(11) 0.75458(9)
C9_19 C 0.05036(11) 0.05186(11) 0.70818(10)
C10_19 C 0.09716(11) 0.05161(10) 0.70669(9)
H5_19 H 0.1121 0.0439 0.6768
C11_19 C 0.12198(10) 0.06276(10) 0.74962(9)
N2_21 N 0.10139(8) 0.07129(8) 0.79353(7)
C12_21 C 0.17178(10) 0.06772(10) 0.75127(9)
N3_21 N 0.18954(9) 0.07476(9) 0.79779(8)
C13_21 C 0.23421(13) 0.08114(15) 0.80171(12)
H6_21 H 0.2468 0.0840 0.8339
C14_19 C 0.26237(13) 0.08366(15) 0.76022(12)
H7_19 H 0.2933 0.0886 0.7642
C15_19 C 0.24375(11) 0.07864(11) 0.71244(10)
C16_21 C 0.27133(11) 0.08660(11) 0.66520(11)
O3_11 O 0.31373(8) 0.08470(8) 0.66987(7)
O4_21 O 0.25194(8) 0.09599(9) 0.62582(8)
C17_19 C 0.19809(11) 0.06959(11) 0.70827(10)
H8_19 H 0.1852 0.0648 0.6765
C18_19 C 0.02290(12) 0.04228(12) 0.66168(10)
C22_19 C 0.01687(18) 0.0314(2) 0.57149(13)
H12_19 H 0.0312 0.0294 0.5401
C23_19 C 0.04258(15) 0.03927(18) 0.61526(12)
H13_19 H 0.0738 0.0425 0.6125
Zn2_7 Zn 0.33843(2) 0.10964(2) 0.60539(2)
O5_13 O 0.15338(8) 0.15322(7) 0.86638(7)
O6_11 O 0.16530(8) 0.06373(8) 0.91987(7)
C3_21 C 0.97946(12) 0.09457(14) 0.90809(12)
C4_21 C 0.92964(13) 0.09985(15) 0.92082(12)
O1_21 O 0.91917(10) 0.10577(16) 0.96537(10)
O2_13 O 0.90322(7) 0.09662(8) 0.88362(7)
C5_21 C 0.99293(11) 0.08494(12) 0.85873(10)
H3_21 H 0.9715 0.0808 0.8333
H4_21 H 0.9981 0.0622 0.7572
C19_19 C 0.97764(16) 0.0353(2) 0.66396(15)
H9_19 H 0.9633 0.0356 0.6954
C20_19 C 0.95172(19) 0.0275(3) 0.62013(18)
H10_19 H 0.9206 0.0230 0.6226
C21_19 C 0.97232(18) 0.02663(18) 0.57425(14)
H11_19 H 0.9553 0.0227 0.5449
Zn3_13 Zn 0.83843(2) 0.10964(2) 0.89461(2)
Zn1_8 Zn 0.35964(2) 0.91157(2) 0.35539(2)
N1_22 N 0.42943(9) 0.91158(10) 0.38367(9)
C1_22 C 0.44298(13) 0.90263(15) 0.43126(12)
H1_22 H 0.4211 0.8984 0.4562
C2_22 C 0.48758(13) 0.89953(15) 0.44470(11)
H2_22 H 0.4957 0.8935 0.4781
C3_22 C 0.52054(12) 0.90543(14) 0.40809(12)
C4_22 C 0.57036(13) 0.90015(15) 0.42082(12)
O1_22 O 0.58083(10) 0.89423(16) 0.46537(10)
O2_14 O 0.59678(7) 0.90338(8) 0.38362(7)
C5_22 C 0.50707(11) 0.91506(12) 0.35873(10)
H3_22 H 0.5285 0.9192 0.3333
C6_22 C 0.46165(11) 0.91836(11) 0.34817(10)
C7_22 C 0.44382(10) 0.92897(10) 0.29636(9)
C8_22 C 0.47051(11) 0.93818(11) 0.25458(9)
H4_22 H 0.5019 0.9378 0.2572
C9_20 C 0.44964(11) 0.94814(11) 0.20818(10)
C10_20 C 0.40284(11) 0.94839(10) 0.20669(9)
H5_20 H 0.3879 0.9561 0.1768
C11_20 C 0.37802(10) 0.93724(10) 0.24962(9)
N2_22 N 0.39861(8) 0.92871(8) 0.29353(7)
C12_22 C 0.32822(10) 0.93228(10) 0.25127(9)
N3_22 N 0.31046(9) 0.92524(9) 0.29779(8)
C13_22 C 0.26579(13) 0.91886(15) 0.30171(12)
H6_22 H 0.2532 0.9160 0.3339
C14_20 C 0.23763(13) 0.91634(15) 0.26022(12)
H7_20 H 0.2067 0.9114 0.2642
C15_20 C 0.25625(11) 0.92136(11) 0.21244(10)
C16_22 C 0.22867(11) 0.91340(11) 0.16520(11)
O3_12 O 0.18627(8) 0.91530(8) 0.16987(7)
O4_22 O 0.24806(8) 0.90401(9) 0.12582(8)
C17_20 C 0.30191(11) 0.93041(11) 0.20827(10)
H8_20 H 0.3148 0.9352 0.1765
C18_20 C 0.47710(12) 0.95772(12) 0.16168(10)
C19_20 C 0.52236(16) 0.9647(2) 0.16396(15)
H9_20 H 0.5367 0.9644 0.1954
C20_20 C 0.54828(19) 0.9725(3) 0.12013(18)
H10_20 H 0.5794 0.9770 0.1226
C21_20 C 0.52768(18) 0.97337(18) 0.07425(14)
H11_20 H 0.5447 0.9773 0.0449
C22_20 C 0.48313(18) 0.9686(2) 0.07149(13)
H12_20 H 0.4688 0.9706 0.0401
C23_20 C 0.45742(15) 0.96073(18) 0.11526(12)
H13_20 H 0.4262 0.9575 0.1125
Zn2_8 Zn 0.16157(2) 0.89036(2) 0.10539(2)
Zn3_14 Zn 0.66157(2) 0.89036(2) 0.39461(2)
O5_14 O 0.34662(8) 0.84678(7) 0.36638(7)
O6_12 O 0.33470(8) 0.93627(8) 0.41987(7)
N1_23 N 0.33842(10) 0.17943(9) 0.63367(9)
C1_23 C 0.34737(15) 0.19298(13) 0.68126(12)
H1_23 H 0.3516 0.1711 0.7062
C2_23 C 0.35047(15) 0.23758(13) 0.69470(11)
H2_23 H 0.3565 0.2457 0.7281
C3_23 C 0.34457(14) 0.27054(12) 0.65809(12)
C4_23 C 0.34985(15) 0.32036(13) 0.67082(12)
O1_23 O 0.35577(16) 0.33083(10) 0.71537(10)
O2_15 O 0.34662(8) 0.34678(7) 0.63362(7)
C5_23 C 0.33494(12) 0.25707(11) 0.60873(10)
H3_23 H 0.3308 0.2785 0.5833
C6_23 C 0.33164(11) 0.21165(11) 0.59817(10)
C7_23 C 0.32103(10) 0.19382(10) 0.54636(9)
C8_23 C 0.31182(11) 0.22051(11) 0.50458(9)
H4_23 H 0.3122 0.2519 0.5072
C9_21 C 0.30186(11) 0.19964(11) 0.45818(10)
C10_21 C 0.30161(10) 0.15284(11) 0.45669(9)
H5_21 H 0.2939 0.1379 0.4268
C11_21 C 0.31276(10) 0.12802(10) 0.49962(9)
N2_23 N 0.32129(8) 0.14861(8) 0.54353(7)
C12_23 C 0.31772(10) 0.07822(10) 0.50127(9)
N3_23 N 0.32476(9) 0.06046(9) 0.54779(8)
C13_23 C 0.33114(15) 0.01579(13) 0.55171(12)
H6_23 H 0.3340 0.0032 0.5839
C15_21 C 0.32864(11) 0.00625(11) 0.46244(10)
C17_21 C 0.31959(11) 0.05191(11) 0.45827(10)
H8_21 H 0.3148 0.0648 0.4265
C18_21 C 0.29228(12) 0.22710(12) 0.41168(10)
C19_21 C 0.2853(2) 0.27236(16) 0.41396(15)
H9_21 H 0.2856 0.2867 0.4454
C20_21 C 0.2775(3) 0.29828(19) 0.37013(18)
H10_21 H 0.2730 0.3294 0.3726
C21_21 C 0.27663(18) 0.27768(18) 0.32425(14)
H11_21 H 0.2727 0.2947 0.2949
C22_21 C 0.2814(2) 0.23313(18) 0.32149(13)
H12_21 H 0.2794 0.2188 0.2901
C23_21 C 0.28927(18) 0.20742(15) 0.36526(12)
H13_21 H 0.2925 0.1762 0.3625
Zn3_15 Zn 0.35964(2) 0.41157(2) 0.64461(2)
O5_15 O 0.40322(7) 0.09662(8) 0.61638(7)
C14_21 C 0.33366(15) 0.98763(13) 0.51022(12)
H7_21 H 0.3386 0.9567 0.5142
C16_23 C 0.33660(11) 0.97867(11) 0.41520(11)
O4_23 O 0.34599(9) 0.99806(8) 0.37582(8)
C16_24 C 0.16340(11) 0.02133(11) 0.91520(11)
O4_24 O 0.15401(9) 0.00194(8) 0.87582(8)
N1_24 N 0.16158(10) 0.82057(9) 0.13367(9)
C1_24 C 0.15263(15) 0.80702(13) 0.18126(12)
H1_24 H 0.1484 0.8289 0.2062
C2_24 C 0.14953(15) 0.76242(13) 0.19470(11)
H2_24 H 0.1435 0.7543 0.2281
C3_24 C 0.15543(14) 0.72946(12) 0.15809(12)
C4_24 C 0.15015(15) 0.67964(13) 0.17082(12)
O1_24 O 0.14423(16) 0.66917(10) 0.21537(10)
O2_16 O 0.15338(8) 0.65322(7) 0.13362(7)
C5_24 C 0.16506(12) 0.74293(11) 0.10873(10)
H3_24 H 0.1692 0.7215 0.0833
C6_24 C 0.16836(11) 0.78835(11) 0.09817(10)
C7_24 C 0.17897(10) 0.80618(10) 0.04636(9)
C8_24 C 0.18818(11) 0.77949(11) 0.00458(9)
H4_24 H 0.1878 0.7481 0.0072
N2_24 N 0.17871(8) 0.85139(8) 0.04353(7)
C12_24 C 0.18228(10) 0.92178(10) 0.00127(9)
N3_24 N 0.17524(9) 0.93954(9) 0.04779(8)
C13_24 C 0.16886(15) 0.98421(13) 0.05171(12)
H6_24 H 0.1660 0.9968 0.0839
Zn3_16 Zn 0.14036(2) 0.58843(2) 0.14461(2)
O5_16 O 0.09678(7) 0.90338(8) 0.11638(7)
N1_25 N 0.42943(9) 0.41158(10) 0.61633(9)
C1_25 C 0.44298(13) 0.40263(15) 0.56874(12)
H1_25 H 0.4211 0.3984 0.5438
C2_25 C 0.48758(13) 0.39953(15) 0.55530(11)
H2_25 H 0.4957 0.3935 0.5219
C3_25 C 0.52054(12) 0.40543(14) 0.59191(12)
C4_25 C 0.57036(13) 0.40015(15) 0.57918(12)
O1_25 O 0.58083(10) 0.39423(16) 0.53463(10)
C5_25 C 0.50707(11) 0.41506(12) 0.64127(10)
H3_25 H 0.5285 0.4192 0.6667
C6_25 C 0.46165(11) 0.41836(11) 0.65183(10)
C7_25 C 0.44382(10) 0.42897(10) 0.70364(9)
C8_25 C 0.47051(11) 0.43818(11) 0.74542(9)
H4_25 H 0.5019 0.4378 0.7428
C9_22 C 0.44964(11) 0.44814(11) 0.79182(10)
C10_22 C 0.40284(11) 0.44839(10) 0.79331(9)
H5_22 H 0.3879 0.4561 0.8232
C11_22 C 0.37802(10) 0.43724(10) 0.75038(9)
N2_25 N 0.39861(8) 0.42871(8) 0.70647(7)
C12_25 C 0.32822(10) 0.43228(10) 0.74873(9)
N3_25 N 0.31046(9) 0.42524(9) 0.70221(8)
C13_25 C 0.26579(13) 0.41886(15) 0.69829(12)
H6_25 H 0.2532 0.4160 0.6661
C14_22 C 0.23763(13) 0.41634(15) 0.73978(12)
H7_22 H 0.2067 0.4114 0.7358
C15_22 C 0.25625(11) 0.42136(11) 0.78756(10)
C16_25 C 0.22867(11) 0.41340(11) 0.83480(11)
O3_13 O 0.18627(8) 0.41530(8) 0.83013(7)
O4_25 O 0.24806(8) 0.40401(9) 0.87418(8)
C17_22 C 0.30191(11) 0.43041(11) 0.79173(10)
H8_22 H 0.3148 0.4352 0.8235
C18_22 C 0.47710(12) 0.45772(12) 0.83832(10)
C19_22 C 0.52236(16) 0.4647(2) 0.83604(15)
H9_22 H 0.5367 0.4644 0.8046
C20_22 C 0.54828(19) 0.4725(3) 0.87987(18)
H10_22 H 0.5794 0.4770 0.8774
C21_22 C 0.52768(18) 0.47337(18) 0.92575(14)
H11_22 H 0.5447 0.4773 0.9551
C22_22 C 0.48313(18) 0.4686(2) 0.92851(13)
H12_22 H 0.4688 0.4706 0.9599
C23_22 C 0.45742(15) 0.46073(18) 0.88474(12)
H13_22 H 0.4262 0.4575 0.8875
O6_13 O 0.33470(8) 0.43627(8) 0.58013(7)
N1_26 N 0.07057(9) 0.58842(10) 0.11633(9)
C1_26 C 0.05702(13) 0.59737(15) 0.06874(12)
H1_26 H 0.0789 0.6016 0.0438
C2_26 C 0.01242(13) 0.60047(15) 0.05530(11)
H2_26 H 0.0043 0.6065 0.0219
C6_26 C 0.03835(11) 0.58164(11) 0.15183(10)
C7_26 C 0.05618(10) 0.57103(10) 0.20364(9)
C8_26 C 0.02949(11) 0.56182(11) 0.24542(9)
C9_23 C 0.05036(11) 0.55186(11) 0.29182(10)
C10_23 C 0.09716(11) 0.55161(10) 0.29331(9)
H5_23 H 0.1121 0.5439 0.3232
C11_23 C 0.12198(10) 0.56276(10) 0.25038(9)
N2_26 N 0.10139(8) 0.57129(8) 0.20647(7)
C12_26 C 0.17178(10) 0.56772(10) 0.24873(9)
N3_26 N 0.18954(9) 0.57476(9) 0.20221(8)
C13_26 C 0.23421(13) 0.58114(15) 0.19829(12)
H6_26 H 0.2468 0.5840 0.1661
C14_23 C 0.26237(13) 0.58366(15) 0.23978(12)
H7_23 H 0.2933 0.5886 0.2358
C15_23 C 0.24375(11) 0.57864(11) 0.28756(10)
C16_26 C 0.27133(11) 0.58660(11) 0.33480(11)
O3_14 O 0.31373(8) 0.58470(8) 0.33013(7)
O4_26 O 0.25194(8) 0.59599(9) 0.37418(8)
C17_23 C 0.19809(11) 0.56959(11) 0.29173(10)
H8_23 H 0.1852 0.5648 0.3235
C18_23 C 0.02290(12) 0.54228(12) 0.33832(10)
C22_23 C 0.01687(18) 0.5314(2) 0.42851(13)
H12_23 H 0.0312 0.5294 0.4599
C23_23 C 0.04258(15) 0.53927(18) 0.38474(12)
H13_23 H 0.0738 0.5425 0.3875
O6_14 O 0.16530(8) 0.56373(8) 0.08013(7)
C3_26 C 0.97946(12) 0.59457(14) 0.09191(12)
C4_26 C 0.92964(13) 0.59985(15) 0.07918(12)
O1_26 O 0.91917(10) 0.60577(16) 0.03463(10)
C5_26 C 0.99293(11) 0.58494(12) 0.14127(10)
H3_26 H 0.9715 0.5808 0.1667
H4_26 H 0.9981 0.5622 0.2428
C19_23 C 0.97764(16) 0.5353(2) 0.33604(15)
H9_23 H 0.9633 0.5356 0.3046
C20_23 C 0.95172(19) 0.5275(3) 0.37987(18)
H10_23 H 0.9206 0.5230 0.3774
C21_23 C 0.97232(18) 0.52663(18) 0.42575(14)
H11_23 H 0.9553 0.5227 0.4551
C9_24 C 0.19814(11) 0.30036(11) 0.04182(10)
C10_24 C 0.19839(10) 0.34716(11) 0.04331(9)
H5_24 H 0.2061 0.3621 0.0732
C11_24 C 0.18724(10) 0.37198(10) 0.00038(9)
C15_24 C 0.17136(11) 0.49375(11) 0.03756(10)
C16_27 C 0.16340(11) 0.52133(11) 0.08480(11)
O4_27 O 0.15401(9) 0.50194(8) 0.12418(8)
C17_24 C 0.18041(11) 0.44809(11) 0.04173(10)
H8_24 H 0.1852 0.4352 0.0735
C18_24 C 0.20772(12) 0.27290(12) 0.08832(10)
C19_24 C 0.2147(2) 0.22764(16) 0.08604(15)
H9_24 H 0.2144 0.2133 0.0546
C20_24 C 0.2225(3) 0.20172(19) 0.12987(18)
H10_24 H 0.2270 0.1706 0.1274
C21_24 C 0.22337(18) 0.22232(18) 0.17575(14)
H11_24 H 0.2273 0.2053 0.2051
C22_24 C 0.2186(2) 0.26687(18) 0.17851(13)
H12_24 H 0.2206 0.2812 0.2099
C23_24 C 0.21073(18) 0.29258(15) 0.13474(12)
H13_24 H 0.2075 0.3238 0.1375
N1_27 N 0.16158(10) 0.32057(9) 0.86633(9)
C1_27 C 0.15263(15) 0.30702(13) 0.81874(12)
H1_27 H 0.1484 0.3289 0.7938
C2_27 C 0.14953(15) 0.26242(13) 0.80530(11)
H2_27 H 0.1435 0.2543 0.7719
C3_27 C 0.15543(14) 0.22946(12) 0.84191(12)
C4_27 C 0.15015(15) 0.17964(13) 0.82918(12)
O1_27 O 0.14423(16) 0.16917(10) 0.78463(10)
C5_27 C 0.16506(12) 0.24293(11) 0.89127(10)
H3_27 H 0.1692 0.2215 0.9167
C6_27 C 0.16836(11) 0.28835(11) 0.90183(10)
C7_27 C 0.17897(10) 0.30618(10) 0.95364(9)
C8_27 C 0.18818(11) 0.27949(11) 0.99542(9)
H4_27 H 0.1878 0.2481 0.9928
N2_27 N 0.17871(8) 0.35139(8) 0.95647(7)
C12_27 C 0.18228(10) 0.42178(10) 0.99873(9)
N3_27 N 0.17524(9) 0.43954(9) 0.95221(8)
C13_27 C 0.16886(15) 0.48421(13) 0.94829(12)
H6_27 H 0.1660 0.4968 0.9161
C14_24 C 0.16634(15) 0.51237(13) 0.98978(12)
H7_24 H 0.1614 0.5433 0.9858
N1_28 N 0.33842(10) 0.67943(9) 0.36633(9)
C1_28 C 0.34737(15) 0.69298(13) 0.31874(12)
H1_28 H 0.3516 0.6711 0.2938
C2_28 C 0.35047(15) 0.73758(13) 0.30530(11)
H2_28 H 0.3565 0.7457 0.2719
C3_28 C 0.34457(14) 0.77054(12) 0.34191(12)
C4_28 C 0.34985(15) 0.82036(13) 0.32918(12)
O1_28 O 0.35577(16) 0.83083(10) 0.28463(10)
C5_28 C 0.33494(12) 0.75707(11) 0.39127(10)
H3_28 H 0.3308 0.7785 0.4167
C6_28 C 0.33164(11) 0.71165(11) 0.40183(10)
C7_28 C 0.32103(10) 0.69382(10) 0.45364(9)
C8_28 C 0.31182(11) 0.72051(11) 0.49542(9)
H4_28 H 0.3122 0.7519 0.4928
C9_25 C 0.30186(11) 0.69964(11) 0.54182(10)
C10_25 C 0.30161(10) 0.65284(11) 0.54331(9)
H5_25 H 0.2939 0.6379 0.5732
C11_25 C 0.31276(10) 0.62802(10) 0.50038(9)
N2_28 N 0.32129(8) 0.64861(8) 0.45647(7)
C12_28 C 0.31772(10) 0.57822(10) 0.49873(9)
N3_28 N 0.32476(9) 0.56046(9) 0.45221(8)
C13_28 C 0.33114(15) 0.51579(13) 0.44829(12)
H6_28 H 0.3340 0.5032 0.4161
C14_25 C 0.33366(15) 0.48763(13) 0.48978(12)
H7_25 H 0.3386 0.4567 0.4858
C15_25 C 0.32864(11) 0.50625(11) 0.53756(10)
C16_28 C 0.33660(11) 0.47867(11) 0.58480(11)
O4_28 O 0.34599(9) 0.49806(8) 0.62418(8)
C17_25 C 0.31959(11) 0.55191(11) 0.54173(10)
H8_25 H 0.3148 0.5648 0.5735
C18_25 C 0.29228(12) 0.72710(12) 0.58832(10)
C19_25 C 0.2853(2) 0.77236(16) 0.58604(15)
H9_25 H 0.2856 0.7867 0.5546
C20_25 C 0.2775(3) 0.79828(19) 0.62987(18)
H10_25 H 0.2730 0.8294 0.6274
C21_25 C 0.27663(18) 0.77768(18) 0.67575(14)
H11_25 H 0.2727 0.7947 0.7051
C22_25 C 0.2814(2) 0.73313(18) 0.67851(13)
H12_25 H 0.2794 0.7188 0.7099
C23_25 C 0.28927(18) 0.70742(15) 0.63474(12)
H13_25 H 0.2925 0.6762 0.6375
C3_29 C 0.02054(12) 0.90543(14) 0.09191(12)
C4_29 C 0.07036(13) 0.90015(15) 0.07918(12)
O1_29 O 0.08083(10) 0.89423(16) 0.03463(10)
C5_29 C 0.00707(11) 0.91506(12) 0.14127(10)
H3_29 H 0.0285 0.9192 0.1667
H4_29 H 0.0019 0.9378 0.2428
C19_26 C 0.02236(16) 0.9647(2) 0.33604(15)
H9_26 H 0.0367 0.9644 0.3046
C20_26 C 0.04828(19) 0.9725(3) 0.37987(18)
H10_26 H 0.0794 0.9770 0.3774
C21_26 C 0.02768(18) 0.97337(18) 0.42575(14)
H11_26 H 0.0447 0.9773 0.4551
N1_29 N 0.92943(9) 0.91158(10) 0.11633(9)
C1_29 C 0.94298(13) 0.90263(15) 0.06874(12)
H1_29 H 0.9211 0.8984 0.0438
C2_29 C 0.98758(13) 0.89953(15) 0.05530(11)
H2_29 H 0.9957 0.8935 0.0219
C6_29 C 0.96165(11) 0.91836(11) 0.15183(10)
C7_29 C 0.94382(10) 0.92897(10) 0.20364(9)
C8_29 C 0.97051(11) 0.93818(11) 0.24542(9)
C9_26 C 0.94964(11) 0.94814(11) 0.29182(10)
C10_26 C 0.90284(11) 0.94839(10) 0.29331(9)
H5_26 H 0.8879 0.9561 0.3232
C11_26 C 0.87802(10) 0.93724(10) 0.25038(9)
N2_29 N 0.89861(8) 0.92871(8) 0.20647(7)
C12_29 C 0.82822(10) 0.93228(10) 0.24873(9)
N3_29 N 0.81046(9) 0.92524(9) 0.20221(8)
C13_29 C 0.76579(13) 0.91886(15) 0.19829(12)
H6_29 H 0.7532 0.9160 0.1661
C14_26 C 0.73763(13) 0.91634(15) 0.23978(12)
H7_26 H 0.7067 0.9114 0.2358
C15_26 C 0.75625(11) 0.92136(11) 0.28756(10)
C16_29 C 0.72867(11) 0.91340(11) 0.33480(11)
O3_15 O 0.68627(8) 0.91530(8) 0.33013(7)
O4_29 O 0.74806(8) 0.90401(9) 0.37418(8)
C17_26 C 0.80191(11) 0.93041(11) 0.29173(10)
H8_26 H 0.8148 0.9352 0.3235
C18_26 C 0.97710(12) 0.95772(12) 0.33832(10)
C22_26 C 0.98313(18) 0.9686(2) 0.42851(13)
H12_26 H 0.9688 0.9706 0.4599
C23_26 C 0.95742(15) 0.96073(18) 0.38474(12)
H13_26 H 0.9262 0.9575 0.3875
O6_15 O 0.83470(8) 0.93627(8) 0.08013(7)
N1_30 N 0.57057(9) 0.08842(10) 0.61633(9)
C1_30 C 0.55702(13) 0.09737(15) 0.56874(12)
H1_30 H 0.5789 0.1016 0.5438
C2_30 C 0.51242(13) 0.10047(15) 0.55530(11)
H2_30 H 0.5043 0.1065 0.5219
C3_30 C 0.47946(12) 0.09457(14) 0.59191(12)
C4_30 C 0.42964(13) 0.09985(15) 0.57918(12)
O1_30 O 0.41917(10) 0.10577(16) 0.53463(10)
C5_30 C 0.49293(11) 0.08494(12) 0.64127(10)
H3_30 H 0.4715 0.0808 0.6667
C6_30 C 0.53835(11) 0.08164(11) 0.65183(10)
C7_30 C 0.55618(10) 0.07103(10) 0.70364(9)
C8_30 C 0.52949(11) 0.06182(11) 0.74542(9)
H4_30 H 0.4981 0.0622 0.7428
C9_27 C 0.55036(11) 0.05186(11) 0.79182(10)
C10_27 C 0.59716(11) 0.05161(10) 0.79331(9)
H5_27 H 0.6121 0.0439 0.8232
C11_27 C 0.62198(10) 0.06276(10) 0.75038(9)
N2_30 N 0.60139(8) 0.07129(8) 0.70647(7)
C12_30 C 0.67178(10) 0.06772(10) 0.74873(9)
N3_30 N 0.68954(9) 0.07476(9) 0.70221(8)
C13_30 C 0.73421(13) 0.08114(15) 0.69829(12)
H6_30 H 0.7468 0.0840 0.6661
C14_27 C 0.76237(13) 0.08366(15) 0.73978(12)
H7_27 H 0.7933 0.0886 0.7358
C15_27 C 0.74375(11) 0.07864(11) 0.78756(10)
C16_30 C 0.77133(11) 0.08660(11) 0.83480(11)
O3_16 O 0.81373(8) 0.08470(8) 0.83013(7)
O4_30 O 0.75194(8) 0.09599(9) 0.87418(8)
C17_27 C 0.69809(11) 0.06959(11) 0.79173(10)
H8_27 H 0.6852 0.0648 0.8235
C18_27 C 0.52290(12) 0.04228(12) 0.83832(10)
C19_27 C 0.47764(16) 0.0353(2) 0.83604(15)
H9_27 H 0.4633 0.0356 0.8046
C20_27 C 0.45172(19) 0.0275(3) 0.87987(18)
H10_27 H 0.4206 0.0230 0.8774
C21_27 C 0.47232(18) 0.02663(18) 0.92575(14)
H11_27 H 0.4553 0.0227 0.9551
C22_27 C 0.51687(18) 0.0314(2) 0.92851(13)
H12_27 H 0.5312 0.0294 0.9599
C23_27 C 0.54258(15) 0.03927(18) 0.88474(12)
H13_27 H 0.5738 0.0425 0.8875
O6_16 O 0.66530(8) 0.06373(8) 0.58013(7)
C14_28 C 0.66634(15) 0.01237(13) 0.48978(12)
H7_28 H 0.6614 0.0433 0.4858
C16_31 C 0.66340(11) 0.02133(11) 0.58480(11)
O4_31 O 0.65401(9) 0.00194(8) 0.62418(8)
N1_31 N 0.66158(10) 0.82057(9) 0.36633(9)
C1_31 C 0.65263(15) 0.80702(13) 0.31874(12)
H1_31 H 0.6484 0.8289 0.2938
C2_31 C 0.64953(15) 0.76242(13) 0.30530(11)
H2_31 H 0.6435 0.7543 0.2719
C3_31 C 0.65543(14) 0.72946(12) 0.34191(12)
C4_31 C 0.65015(15) 0.67964(13) 0.32918(12)
O1_31 O 0.64423(16) 0.66917(10) 0.28463(10)
C5_31 C 0.66506(12) 0.74293(11) 0.39127(10)
H3_31 H 0.6692 0.7215 0.4167
C6_31 C 0.66836(11) 0.78835(11) 0.40183(10)
C7_31 C 0.67897(10) 0.80618(10) 0.45364(9)
C8_31 C 0.68818(11) 0.77949(11) 0.49542(9)
H4_31 H 0.6878 0.7481 0.4928
C9_28 C 0.69814(11) 0.80036(11) 0.54182(10)
C10_28 C 0.69839(10) 0.84716(11) 0.54331(9)
H5_28 H 0.7061 0.8621 0.5732
C11_28 C 0.68724(10) 0.87198(10) 0.50038(9)
N2_31 N 0.67871(8) 0.85139(8) 0.45647(7)
C12_31 C 0.68228(10) 0.92178(10) 0.49873(9)
N3_31 N 0.67524(9) 0.93954(9) 0.45221(8)
C13_31 C 0.66886(15) 0.98421(13) 0.44829(12)
H6_31 H 0.6660 0.9968 0.4161
C15_28 C 0.67136(11) 0.99375(11) 0.53756(10)
C17_28 C 0.68041(11) 0.94809(11) 0.54173(10)
H8_28 H 0.6852 0.9352 0.5735
C18_28 C 0.70772(12) 0.77290(12) 0.58832(10)
C19_28 C 0.7147(2) 0.72764(16) 0.58604(15)
H9_28 H 0.7144 0.7133 0.5546
C20_28 C 0.7225(3) 0.70172(19) 0.62987(18)
H10_28 H 0.7270 0.6706 0.6274
C21_28 C 0.72337(18) 0.72232(18) 0.67575(14)
H11_28 H 0.7273 0.7053 0.7051
C22_28 C 0.7186(2) 0.76687(18) 0.67851(13)
H12_28 H 0.7206 0.7812 0.7099
C23_28 C 0.71073(18) 0.79258(15) 0.63474(12)
H13_28 H 0.7075 0.8238 0.6375
N1_32 N 0.83842(10) 0.17943(9) 0.86633(9)
C1_32 C 0.84737(15) 0.19298(13) 0.81874(12)
H1_32 H 0.8516 0.1711 0.7938
C2_32 C 0.85047(15) 0.23758(13) 0.80530(11)
H2_32 H 0.8565 0.2457 0.7719
C3_32 C 0.84457(14) 0.27054(12) 0.84191(12)
C4_32 C 0.84985(15) 0.32036(13) 0.82918(12)
O1_32 O 0.85577(16) 0.33083(10) 0.78463(10)
C5_32 C 0.83494(12) 0.25707(11) 0.89127(10)
H3_32 H 0.8308 0.2785 0.9167
C6_32 C 0.83164(11) 0.21165(11) 0.90183(10)
C7_32 C 0.82103(10) 0.19382(10) 0.95364(9)
C8_32 C 0.81182(11) 0.22051(11) 0.99542(9)
H4_32 H 0.8122 0.2519 0.9928
N2_32 N 0.82129(8) 0.14861(8) 0.95647(7)
C12_32 C 0.81772(10) 0.07822(10) 0.99873(9)
N3_32 N 0.82476(9) 0.06046(9) 0.95221(8)
C13_32 C 0.83114(15) 0.01579(13) 0.94829(12)
H6_32 H 0.8340 0.0032 0.9161
C16_32 C 0.83660(11) 0.97867(11) 0.08480(11)
O4_32 O 0.84599(9) 0.99806(8) 0.12418(8)
C14_29 C 0.33366(15) 0.01237(13) 0.98978(12)
H7_29 H 0.3386 0.0433 0.9858
C9_29 C 0.30186(11) 0.80036(11) 0.04182(10)
C10_29 C 0.30161(10) 0.84716(11) 0.04331(9)
H5_29 H 0.2939 0.8621 0.0732
C11_29 C 0.31276(10) 0.87198(10) 0.00038(9)
C15_29 C 0.32864(11) 0.99375(11) 0.03756(10)
C17_29 C 0.31959(11) 0.94809(11) 0.04173(10)
H8_29 H 0.3148 0.9352 0.0735
C18_29 C 0.29228(12) 0.77290(12) 0.08832(10)
C19_29 C 0.2853(2) 0.72764(16) 0.08604(15)
H9_29 H 0.2856 0.7133 0.0546
C20_29 C 0.2775(3) 0.70172(19) 0.12987(18)
H10_29 H 0.2730 0.6706 0.1274
C21_29 C 0.27663(18) 0.72232(18) 0.17575(14)
H11_29 H 0.2727 0.7053 0.2051
C22_29 C 0.2814(2) 0.76687(18) 0.17851(13)
H12_29 H 0.2794 0.7812 0.2099
C23_29 C 0.28927(18) 0.79258(15) 0.13474(12)
H13_29 H 0.2925 0.8238 0.1375
C14_30 C 0.16634(15) 0.01237(13) 0.01022(12)
H7_30 H 0.1614 0.0433 0.0142
C9_30 C 0.19814(11) 0.80036(11) 0.95818(10)
C10_30 C 0.19839(10) 0.84716(11) 0.95669(9)
H5_30 H 0.2061 0.8621 0.9268
C11_30 C 0.18724(10) 0.87198(10) 0.99962(9)
C15_30 C 0.17136(11) 0.99375(11) 0.96244(10)
C17_30 C 0.18041(11) 0.94809(11) 0.95827(10)
H8_30 H 0.1852 0.9352 0.9265
C18_30 C 0.20772(12) 0.77290(12) 0.91168(10)
C19_30 C 0.2147(2) 0.72764(16) 0.91396(15)
H9_30 H 0.2144 0.7133 0.9454
C20_30 C 0.2225(3) 0.70172(19) 0.87013(18)
H10_30 H 0.2270 0.6706 0.8726
C21_30 C 0.22337(18) 0.72232(18) 0.82425(14)
H11_30 H 0.2273 0.7053 0.7949
C22_30 C 0.2186(2) 0.76687(18) 0.82149(13)
H12_30 H 0.2206 0.7812 0.7901
C23_30 C 0.21073(18) 0.79258(15) 0.86526(12)
H13_30 H 0.2075 0.8238 0.8625
C9_31 C 0.69814(11) 0.19964(11) 0.95818(10)
C10_31 C 0.69839(10) 0.15284(11) 0.95669(9)
H5_31 H 0.7061 0.1379 0.9268
C11_31 C 0.68724(10) 0.12802(10) 0.99962(9)
C15_31 C 0.67136(11) 0.00625(11) 0.96244(10)
C17_31 C 0.68041(11) 0.05191(11) 0.95827(10)
H8_31 H 0.6852 0.0648 0.9265
C18_31 C 0.70772(12) 0.22710(12) 0.91168(10)
C19_31 C 0.7147(2) 0.27236(16) 0.91396(15)
H9_31 H 0.7144 0.2867 0.9454
C20_31 C 0.7225(3) 0.29828(19) 0.87013(18)
H10_31 H 0.7270 0.3294 0.8726
C21_31 C 0.72337(18) 0.27768(18) 0.82425(14)
H11_31 H 0.7273 0.2947 0.7949
C22_31 C 0.7186(2) 0.23313(18) 0.82149(13)
H12_31 H 0.7206 0.2188 0.7901
C23_31 C 0.71073(18) 0.20742(15) 0.86526(12)
H13_31 H 0.7075 0.1762 0.8625
C14_31 C 0.66634(15) 0.98763(13) 0.01022(12)
H7_31 H 0.6614 0.9567 0.0142
C9_32 C 0.80186(11) 0.19964(11) 0.04182(10)
C10_32 C 0.80161(10) 0.15284(11) 0.04331(9)
H5_32 H 0.7939 0.1379 0.0732
C11_32 C 0.81276(10) 0.12802(10) 0.00038(9)
C15_32 C 0.82864(11) 0.00625(11) 0.03756(10)
C17_32 C 0.81959(11) 0.05191(11) 0.04173(10)
H8_32 H 0.8148 0.0648 0.0735
C18_32 C 0.79228(12) 0.22710(12) 0.08832(10)
C19_32 C 0.7853(2) 0.27236(16) 0.08604(15)
H9_32 H 0.7856 0.2867 0.0546
C20_32 C 0.7775(3) 0.29828(19) 0.12987(18)
H10_32 H 0.7730 0.3294 0.1274
C21_32 C 0.77663(18) 0.27768(18) 0.17575(14)
H11_32 H 0.7727 0.2947 0.2051
C22_32 C 0.7814(2) 0.23313(18) 0.17851(13)
H12_32 H 0.7794 0.2188 0.2099
C23_32 C 0.78927(18) 0.20742(15) 0.13474(12)
H13_32 H 0.7925 0.1762 0.1375
C14_32 C 0.83366(15) 0.98763(13) 0.98978(12)
H7_32 H 0.8386 0.9567 0.9858
loop_
_geom_bond_atom_site_label_1
_geom_bond_atom_site_label_2
_geom_bond_site_symmetry_1
_geom_bond_site_symmetry_2
C4 C3 1_555 1_555
O1 C4 1_555 1_555
O2 C4 1_555 1_555
C5 C3 1_555 1_555
H3 C5 1_555 1_555
H9 C19 1_555 1_555
C20 C19 1_555 1_555
H10 C20 1_555 1_555
C21 C20 1_555 1_555
H11 C21 1_555 1_555
Zn3 O2 1_555 1_555
Zn1 N1 1_555 1_555
N1 C1 1_555 1_555
C1 H1 1_555 1_555
C2 C1 1_555 1_555
H2 C2 1_555 1_555
C6 N1 1_555 1_555
C7 C6 1_555 1_555
C8 C7 1_555 1_555
C9 C8 1_555 1_555
C10 C9 1_555 1_555
H5 C10 1_555 1_555
C11 C10 1_555 1_555
N2 Zn1 1_555 1_555
C12 C11 1_555 1_555
N3 Zn1 1_555 1_555
C13 N3 1_555 1_555
H6 C13 1_555 1_555
C14 C13 1_555 1_555
H7 C14 1_555 1_555
C15 C14 1_555 1_555
C16 C15 1_555 1_555
O3 C16 1_555 1_555
O4 C16 1_555 1_555
C17 C12 1_555 1_555
H8 C17 1_555 1_555
C18 C9 1_555 1_555
H12 C22 1_555 1_555
C23 C18 1_555 1_555
H13 C23 1_555 1_555
Zn2 O3 1_555 1_555
O5 Zn1 1_555 1_555
O6 Zn1 1_555 1_555
C7 N2 1_555 1_555
C11 N2 1_555 1_555
C12 N3 1_555 1_555
C15 C17 1_555 1_555
C22 C23 1_555 1_555
Zn1_2 N1_2 1_555 1_555
N1_2 C1_2 1_555 1_555
C1_2 H1_2 1_555 1_555
C2_2 C1_2 1_555 1_555
H2_2 C2_2 1_555 1_555
C3_2 C2_2 1_555 1_555
C4_2 C3_2 1_555 1_555
O1_2 C4_2 1_555 1_555
O2_2 C4_2 1_555 1_555
C5_2 C3_2 1_555 1_555
H3_2 C5_2 1_555 1_555
C6_2 N1_2 1_555 1_555
C7_2 C6_2 1_555 1_555
C8_2 C7_2 1_555 1_555
H4_2 C8_2 1_555 1_555
C9_2 C8_2 1_555 1_555
C10_2 C9_2 1_555 1_555
H5_2 C10_2 1_555 1_555
C11_2 C10_2 1_555 1_555
N2_2 Zn1_2 1_555 1_555
C12_2 C11_2 1_555 1_555
N3_2 Zn1_2 1_555 1_555
C13_2 N3_2 1_555 1_555
H6_2 C13_2 1_555 1_555
C14_2 C13_2 1_555 1_555
H7_2 C14_2 1_555 1_555
C15_2 C14_2 1_555 1_555
C16_2 C15_2 1_555 1_555
O3_2 C16_2 1_555 1_555
O4_2 C16_2 1_555 1_555
C17_2 C12_2 1_555 1_555
H8_2 C17_2 1_555 1_555
C18_2 C9_2 1_555 1_555
C19_2 C18_2 1_555 1_555
H9_2 C19_2 1_555 1_555
C20_2 C19_2 1_555 1_555
H10_2 C20_2 1_555 1_555
C21_2 C20_2 1_555 1_555
H11_2 C21_2 1_555 1_555
C22_2 C21_2 1_555 1_555
H12_2 C22_2 1_555 1_555
C23_2 C18_2 1_555 1_555
H13_2 C23_2 1_555 1_555
Zn2_2 O3_2 1_555 1_555
Zn3_2 O2_2 1_555 1_555
O5_2 Zn1_2 1_555 1_555
O6_2 Zn1_2 1_555 1_555
C5_2 C6_2 1_555 1_555
C7_2 N2_2 1_555 1_555
C11_2 N2_2 1_555 1_555
C12_2 N3_2 1_555 1_555
C15_2 C17_2 1_555 1_555
C22_2 C23_2 1_555 1_555
C10_3 C9_3 1_555 1_555
H5_3 C10_3 1_555 1_555
C11_3 C10_3 1_555 1_555
C16_3 C15_3 1_555 1_555
O6_2 C16_3 1_555 1_555
O4_3 C16_3 1_555 1_555
H8_3 C17_3 1_555 1_555
C18_3 C9_3 1_555 1_555
C19_3 C18_3 1_555 1_555
H9_3 C19_3 1_555 1_555
C20_3 C19_3 1_555 1_555
H10_3 C20_3 1_555 1_555
C21_3 C20_3 1_555 1_555
H11_3 C21_3 1_555 1_555
C22_3 C21_3 1_555 1_555
H12_3 C22_3 1_555 1_555
C23_3 C18_3 1_555 1_555
H13_3 C23_3 1_555 1_555
C15_3 C17_3 1_555 1_555
C22_3 C23_3 1_555 1_555
Zn2 N1_3 1_555 1_555
N1_3 C1_3 1_555 1_555
C1_3 H1_3 1_555 1_555
C2_3 C1_3 1_555 1_555
H2_3 C2_3 1_555 1_555
C3_3 C2_3 1_555 1_555
C4_3 C3_3 1_555 1_555
O1_3 C4_3 1_555 1_555
O2_3 C4_3 1_555 1_555
C5_3 C3_3 1_555 1_555
H3_3 C5_3 1_555 1_555
C6_3 N1_3 1_555 1_555
C7_3 C6_3 1_555 1_555
C8_3 C7_3 1_555 1_555
H4_3 C8_3 1_555 1_555
N2_3 Zn2 1_555 1_555
N3_3 Zn2 1_555 1_555
C13_3 N3_3 1_555 1_555
H6_3 C13_3 1_555 1_555
C14_3 C13_3 1_555 1_555
H7_3 C14_3 1_555 1_555
Zn3_3 O2_3 1_555 1_555
O5_3 Zn2 1_555 1_555
C5_3 C6_3 1_555 1_555
C7_3 N2_3 1_555 1_555
C12_3 N3_3 1_555 1_555
Zn2_2 N1_4 1_555 1_555
N1_4 C1_4 1_555 1_555
C1_4 H1_4 1_555 1_555
C2_4 C1_4 1_555 1_555
H2_4 C2_4 1_555 1_555
C3_4 C2_4 1_555 1_555
C4_4 C3_4 1_555 1_555
O1_4 C4_4 1_555 1_555
O2_4 C4_4 1_555 1_555
C5_4 C3_4 1_555 1_555
H3_4 C5_4 1_555 1_555
C6_4 N1_4 1_555 1_555
C7_4 C6_4 1_555 1_555
C8_4 C7_4 1_555 1_555
H4_4 C8_4 1_555 1_555
C9_4 C8_4 1_555 1_555
C10_4 C9_4 1_555 1_555
H5_4 C10_4 1_555 1_555
C11_4 C10_4 1_555 1_555
N2_4 Zn2_2 1_555 1_555
C12_4 C11_4 1_555 1_555
N3_4 Zn2_2 1_555 1_555
C13_4 N3_4 1_555 1_555
H6_4 C13_4 1_555 1_555
C14_4 C13_4 1_555 1_555
H7_4 C14_4 1_555 1_555
C15_4 C14_4 1_555 1_555
C16_4 C15_4 1_555 1_555
O6 C16_4 1_555 1_555
O4_4 C16_4 1_555 1_555
C17_4 C12_4 1_555 1_555
H8_4 C17_4 1_555 1_555
C18_4 C9_4 1_555 1_555
C19_4 C18_4 1_555 1_555
H9_4 C19_4 1_555 1_555
C20_4 C19_4 1_555 1_555
H10_4 C20_4 1_555 1_555
C21_4 C20_4 1_555 1_555
H11_4 C21_4 1_555 1_555
C22_4 C21_4 1_555 1_555
H12_4 C22_4 1_555 1_555
C23_4 C18_4 1_555 1_555
H13_4 C23_4 1_555 1_555
Zn3_4 O2_4 1_555 1_555
O5_4 Zn2_2 1_555 1_555
C5_4 C6_4 1_555 1_555
C7_4 N2_4 1_555 1_555
C11_4 N2_4 1_555 1_555
C12_4 N3_4 1_555 1_555
C15_4 C17_4 1_555 1_555
C22_4 C23_4 1_555 1_555
Zn1_3 N1_5 1_555 1_555
N1_5 C1_5 1_555 1_555
C1_5 H1_5 1_555 1_555
C2_5 C1_5 1_555 1_555
H2_5 C2_5 1_555 1_555
C3_5 C2_5 1_555 1_555
C4_5 C3_5 1_555 1_555
O1_5 C4_5 1_555 1_555
O2_5 C4_5 1_555 1_555
C5_5 C3_5 1_555 1_555
H3_5 C5_5 1_555 1_555
C6_5 N1_5 1_555 1_555
C7_5 C6_5 1_555 1_555
C8_5 C7_5 1_555 1_555
H4_5 C8_5 1_555 1_555
C9_5 C8_5 1_555 1_555
C10_5 C9_5 1_555 1_555
H5_5 C10_5 1_555 1_555
C11_5 C10_5 1_555 1_555
N2_5 Zn1_3 1_555 1_555
C12_5 C11_5 1_555 1_555
N3_5 Zn1_3 1_555 1_555
C13_5 N3_5 1_555 1_555
H6_5 C13_5 1_555 1_555
C14_5 C13_5 1_555 1_555
H7_5 C14_5 1_555 1_555
C15_5 C14_5 1_555 1_555
C16_5 C15_5 1_555 1_555
O3_3 C16_5 1_555 1_555
O4_5 C16_5 1_555 1_555
C17_5 C12_5 1_555 1_555
H8_5 C17_5 1_555 1_555
C18_5 C9_5 1_555 1_555
C19_5 C18_5 1_555 1_555
H9_5 C19_5 1_555 1_555
C20_5 C19_5 1_555 1_555
H10_5 C20_5 1_555 1_555
C21_5 C20_5 1_555 1_555
H11_5 C21_5 1_555 1_555
C22_5 C21_5 1_555 1_555
H12_5 C22_5 1_555 1_555
C23_5 C18_5 1_555 1_555
H13_5 C23_5 1_555 1_555
Zn2_3 O3_3 1_555 1_555
Zn3_5 O2_5 1_555 1_555
O5_5 Zn1_3 1_555 1_555
O6_3 Zn1_3 1_555 1_555
C5_5 C6_5 1_555 1_555
C7_5 N2_5 1_555 1_555
C11_5 N2_5 1_555 1_555
C12_5 N3_5 1_555 1_555
C15_5 C17_5 1_555 1_555
C22_5 C23_5 1_555 1_555
Zn1_4 N1_6 1_555 1_555
N1_6 C1_6 1_555 1_555
C1_6 H1_6 1_555 1_555
C2_6 C1_6 1_555 1_555
H2_6 C2_6 1_555 1_555
C6_6 N1_6 1_555 1_555
C7_6 C6_6 1_555 1_555
C8_6 C7_6 1_555 1_555
C9_6 C8_6 1_555 1_555
C10_6 C9_6 1_555 1_555
H5_6 C10_6 1_555 1_555
C11_6 C10_6 1_555 1_555
N2_6 Zn1_4 1_555 1_555
C12_6 C11_6 1_555 1_555
N3_6 Zn1_4 1_555 1_555
C13_6 N3_6 1_555 1_555
H6_6 C13_6 1_555 1_555
C14_6 C13_6 1_555 1_555
H7_6 C14_6 1_555 1_555
C15_6 C14_6 1_555 1_555
C16_6 C15_6 1_555 1_555
O3_4 C16_6 1_555 1_555
O4_6 C16_6 1_555 1_555
C17_6 C12_6 1_555 1_555
H8_6 C17_6 1_555 1_555
C18_6 C9_6 1_555 1_555
H12_6 C22_6 1_555 1_555
C23_6 C18_6 1_555 1_555
H13_6 C23_6 1_555 1_555
Zn2_4 O3_4 1_555 1_555
O5_6 Zn1_4 1_555 1_555
O6_4 Zn1_4 1_555 1_555
C7_6 N2_6 1_555 1_555
C11_6 N2_6 1_555 1_555
C12_6 N3_6 1_555 1_555
C15_6 C17_6 1_555 1_555
C22_6 C23_6 1_555 1_555
C4_6 C3_6 1_555 1_555
O1_6 C4_6 1_555 1_555
O2_6 C4_6 1_555 1_555
C5_6 C3_6 1_555 1_555
H3_6 C5_6 1_555 1_555
H9_6 C19_6 1_555 1_555
C20_6 C19_6 1_555 1_555
H10_6 C20_6 1_555 1_555
C21_6 C20_6 1_555 1_555
H11_6 C21_6 1_555 1_555
Zn3_6 O2_6 1_555 1_555
Zn2_3 N1_7 1_555 1_555
N1_7 C1_7 1_555 1_555
C1_7 H1_7 1_555 1_555
C2_7 C1_7 1_555 1_555
H2_7 C2_7 1_555 1_555
C3_7 C2_7 1_555 1_555
C4_7 C3_7 1_555 1_555
O1_7 C4_7 1_555 1_555
O2_7 C4_7 1_555 1_555
C5_7 C3_7 1_555 1_555
H3_7 C5_7 1_555 1_555
C6_7 N1_7 1_555 1_555
C7_7 C6_7 1_555 1_555
C8_7 C7_7 1_555 1_555
H4_7 C8_7 1_555 1_555
C9_7 C8_7 1_555 1_555
C10_7 C9_7 1_555 1_555
H5_7 C10_7 1_555 1_555
C11_7 C10_7 1_555 1_555
N2_7 Zn2_3 1_555 1_555
C12_7 C11_7 1_555 1_555
N3_7 Zn2_3 1_555 1_555
C13_7 N3_7 1_555 1_555
H6_7 C13_7 1_555 1_555
C17_7 C12_7 1_555 1_555
H8_7 C17_7 1_555 1_555
C18_7 C9_7 1_555 1_555
C19_7 C18_7 1_555 1_555
H9_7 C19_7 1_555 1_555
C20_7 C19_7 1_555 1_555
H10_7 C20_7 1_555 1_555
C21_7 C20_7 1_555 1_555
H11_7 C21_7 1_555 1_555
C22_7 C21_7 1_555 1_555
H12_7 C22_7 1_555 1_555
C23_7 C18_7 1_555 1_555
H13_7 C23_7 1_555 1_555
Zn3_7 O2_7 1_555 1_555
O5_7 Zn2_3 1_555 1_555
C5_7 C6_7 1_555 1_555
C7_7 N2_7 1_555 1_555
C11_7 N2_7 1_555 1_555
C12_7 N3_7 1_555 1_555
C15_7 C17_7 1_555 1_555
C22_7 C23_7 1_555 1_555
H7_7 C14_7 1_555 1_555
O6_4 C16_7 1_555 1_555
O4_7 C16_7 1_555 1_555
O6_3 C16_8 1_555 1_555
O4_8 C16_8 1_555 1_555
Zn2_4 N1_8 1_555 1_555
N1_8 C1_8 1_555 1_555
C1_8 H1_8 1_555 1_555
C2_8 C1_8 1_555 1_555
H2_8 C2_8 1_555 1_555
C3_8 C2_8 1_555 1_555
C4_8 C3_8 1_555 1_555
O1_8 C4_8 1_555 1_555
O2_8 C4_8 1_555 1_555
C5_8 C3_8 1_555 1_555
H3_8 C5_8 1_555 1_555
C6_8 N1_8 1_555 1_555
C7_8 C6_8 1_555 1_555
C8_8 C7_8 1_555 1_555
H4_8 C8_8 1_555 1_555
N2_8 Zn2_4 1_555 1_555
N3_8 Zn2_4 1_555 1_555
C13_8 N3_8 1_555 1_555
H6_8 C13_8 1_555 1_555
Zn3_8 O2_8 1_555 1_555
O5_8 Zn2_4 1_555 1_555
C5_8 C6_8 1_555 1_555
C7_8 N2_8 1_555 1_555
C12_8 N3_8 1_555 1_555
Zn3_7 N1_9 1_555 1_555
N1_9 C1_9 1_555 1_555
C1_9 H1_9 1_555 1_555
C2_9 C1_9 1_555 1_555
H2_9 C2_9 1_555 1_555
C6_9 N1_9 1_555 1_555
C7_9 C6_9 1_555 1_555
C8_9 C7_9 1_555 1_555
C9_8 C8_9 1_555 1_555
C10_8 C9_8 1_555 1_555
H5_8 C10_8 1_555 1_555
C11_8 C10_8 1_555 1_555
N2_9 Zn3_7 1_555 1_555
C12_9 C11_8 1_555 1_555
N3_9 Zn3_7 1_555 1_555
C13_9 N3_9 1_555 1_555
H6_9 C13_9 1_555 1_555
C14_8 C13_9 1_555 1_555
H7_8 C14_8 1_555 1_555
C15_8 C14_8 1_555 1_555
C16_9 C15_8 1_555 1_555
O3_5 C16_9 1_555 1_555
O4_9 C16_9 1_555 1_555
C17_8 C12_9 1_555 1_555
H8_8 C17_8 1_555 1_555
C18_8 C9_8 1_555 1_555
H12_8 C22_8 1_555 1_555
C23_8 C18_8 1_555 1_555
H13_8 C23_8 1_555 1_555
Zn3_2 O3_5 1_555 1_555
O6_5 Zn3_7 1_555 1_555
C7_9 N2_9 1_555 1_555
C11_8 N2_9 1_555 1_555
C12_9 N3_9 1_555 1_555
C15_8 C17_8 1_555 1_555
C22_8 C23_8 1_555 1_555
C4_9 C3_9 1_555 1_555
O1_9 C4_9 1_555 1_555
O5_4 C4_9 1_555 1_555
C5_9 C3_9 1_555 1_555
H3_9 C5_9 1_555 1_555
H9_8 C19_8 1_555 1_555
C20_8 C19_8 1_555 1_555
H10_8 C20_8 1_555 1_555
C21_8 C20_8 1_555 1_555
H11_8 C21_8 1_555 1_555
Zn3_8 N1_10 1_555 1_555
N1_10 C1_10 1_555 1_555
C1_10 H1_10 1_555 1_555
C2_10 C1_10 1_555 1_555
H2_10 C2_10 1_555 1_555
C3_10 C2_10 1_555 1_555
C4_10 C3_10 1_555 1_555
O1_10 C4_10 1_555 1_555
O5_3 C4_10 1_555 1_555
C5_10 C3_10 1_555 1_555
H3_10 C5_10 1_555 1_555
C6_10 N1_10 1_555 1_555
C7_10 C6_10 1_555 1_555
C8_10 C7_10 1_555 1_555
H4_10 C8_10 1_555 1_555
C9_9 C8_10 1_555 1_555
C10_9 C9_9 1_555 1_555
H5_9 C10_9 1_555 1_555
C11_9 C10_9 1_555 1_555
N2_10 Zn3_8 1_555 1_555
C12_10 C11_9 1_555 1_555
N3_10 Zn3_8 1_555 1_555
C13_10 N3_10 1_555 1_555
H6_10 C13_10 1_555 1_555
C14_9 C13_10 1_555 1_555
H7_9 C14_9 1_555 1_555
C15_9 C14_9 1_555 1_555
C16_10 C15_9 1_555 1_555
O3_6 C16_10 1_555 1_555
O4_10 C16_10 1_555 1_555
C17_9 C12_10 1_555 1_555
H8_9 C17_9 1_555 1_555
C18_9 C9_9 1_555 1_555
C19_9 C18_9 1_555 1_555
H9_9 C19_9 1_555 1_555
C20_9 C19_9 1_555 1_555
H10_9 C20_9 1_555 1_555
C21_9 C20_9 1_555 1_555
H11_9 C21_9 1_555 1_555
C22_9 C21_9 1_555 1_555
H12_9 C22_9 1_555 1_555
C23_9 C18_9 1_555 1_555
H13_9 C23_9 1_555 1_555
Zn3 O3_6 1_555 1_555
O6_6 Zn3_8 1_555 1_555
C5_10 C6_10 1_555 1_555
C7_10 N2_10 1_555 1_555
C11_9 N2_10 1_555 1_555
C12_10 N3_10 1_555 1_555
C15_9 C17_9 1_555 1_555
C22_9 C23_9 1_555 1_555
Zn3_2 N1_11 1_555 1_555
N1_11 C1_11 1_555 1_555
C1_11 H1_11 1_555 1_555
C2_11 C1_11 1_555 1_555
H2_11 C2_11 1_555 1_555
C3_11 C2_11 1_555 1_555
C4_11 C3_11 1_555 1_555
O1_11 C4_11 1_555 1_555
O5_5 C4_11 1_555 1_555
C5_11 C3_11 1_555 1_555
H3_11 C5_11 1_555 1_555
C6_11 N1_11 1_555 1_555
C7_11 C6_11 1_555 1_555
C8_11 C7_11 1_555 1_555
H4_11 C8_11 1_555 1_555
N2_11 Zn3_2 1_555 1_555
N3_11 Zn3_2 1_555 1_555
C13_11 N3_11 1_555 1_555
H6_11 C13_11 1_555 1_555
C14_10 C13_11 1_555 1_555
H7_10 C14_10 1_555 1_555
C5_11 C6_11 1_555 1_555
C7_11 N2_11 1_555 1_555
C12_11 N3_11 1_555 1_555
C10_10 C9_10 1_555 1_555
H5_10 C10_10 1_555 1_555
C11_10 C10_10 1_555 1_555
C16_11 C15_10 1_555 1_555
O6_6 C16_11 1_555 1_555
O4_11 C16_11 1_555 1_555
H8_10 C17_10 1_555 1_555
C18_10 C9_10 1_555 1_555
C19_10 C18_10 1_555 1_555
H9_10 C19_10 1_555 1_555
C20_10 C19_10 1_555 1_555
H10_10 C20_10 1_555 1_555
C21_10 C20_10 1_555 1_555
H11_10 C21_10 1_555 1_555
C22_10 C21_10 1_555 1_555
H12_10 C22_10 1_555 1_555
C23_10 C18_10 1_555 1_555
H13_10 C23_10 1_555 1_555
C15_10 C17_10 1_555 1_555
C22_10 C23_10 1_555 1_555
Zn3 N1_12 1_555 1_555
N1_12 C1_12 1_555 1_555
C1_12 H1_12 1_555 1_555
C2_12 C1_12 1_555 1_555
H2_12 C2_12 1_555 1_555
C3_12 C2_12 1_555 1_555
C4_12 C3_12 1_555 1_555
O1_12 C4_12 1_555 1_555
O5_6 C4_12 1_555 1_555
C5_12 C3_12 1_555 1_555
H3_12 C5_12 1_555 1_555
C6_12 N1_12 1_555 1_555
C7_12 C6_12 1_555 1_555
C8_12 C7_12 1_555 1_555
H4_12 C8_12 1_555 1_555
C9_11 C8_12 1_555 1_555
C10_11 C9_11 1_555 1_555
H5_11 C10_11 1_555 1_555
C11_11 C10_11 1_555 1_555
N2_12 Zn3 1_555 1_555
C12_12 C11_11 1_555 1_555
N3_12 Zn3 1_555 1_555
C13_12 N3_12 1_555 1_555
H6_12 C13_12 1_555 1_555
C14_11 C13_12 1_555 1_555
H7_11 C14_11 1_555 1_555
C15_11 C14_11 1_555 1_555
C16_12 C15_11 1_555 1_555
O6_5 C16_12 1_555 1_555
O4_12 C16_12 1_555 1_555
C17_11 C12_12 1_555 1_555
H8_11 C17_11 1_555 1_555
C18_11 C9_11 1_555 1_555
C19_11 C18_11 1_555 1_555
H9_11 C19_11 1_555 1_555
C20_11 C19_11 1_555 1_555
H10_11 C20_11 1_555 1_555
C21_11 C20_11 1_555 1_555
H11_11 C21_11 1_555 1_555
C22_11 C21_11 1_555 1_555
H12_11 C22_11 1_555 1_555
C23_11 C18_11 1_555 1_555
H13_11 C23_11 1_555 1_555
C5_12 C6_12 1_555 1_555
C7_12 N2_12 1_555 1_555
C11_11 N2_12 1_555 1_555
C12_12 N3_12 1_555 1_555
C15_11 C17_11 1_555 1_555
C22_11 C23_11 1_555 1_555
Zn3_3 N1_13 1_555 1_555
N1_13 C1_13 1_555 1_555
C1_13 H1_13 1_555 1_555
C2_13 C1_13 1_555 1_555
H2_13 C2_13 1_555 1_555
C3_13 C2_13 1_555 1_555
C4_13 C3_13 1_555 1_555
O1_13 C4_13 1_555 1_555
O5_8 C4_13 1_555 1_555
C5_13 C3_13 1_555 1_555
H3_13 C5_13 1_555 1_555
C6_13 N1_13 1_555 1_555
C7_13 C6_13 1_555 1_555
C8_13 C7_13 1_555 1_555
H4_13 C8_13 1_555 1_555
C9_12 C8_13 1_555 1_555
C10_12 C9_12 1_555 1_555
H5_12 C10_12 1_555 1_555
C11_12 C10_12 1_555 1_555
N2_13 Zn3_3 1_555 1_555
C12_13 C11_12 1_555 1_555
N3_13 Zn3_3 1_555 1_555
C13_13 N3_13 1_555 1_555
H6_13 C13_13 1_555 1_555
C14_12 C13_13 1_555 1_555
H7_12 C14_12 1_555 1_555
C15_12 C14_12 1_555 1_555
C16_13 C15_12 1_555 1_555
O3_7 C16_13 1_555 1_555
O4_13 C16_13 1_555 1_555
C17_12 C12_13 1_555 1_555
H8_12 C17_12 1_555 1_555
C18_12 C9_12 1_555 1_555
C19_12 C18_12 1_555 1_555
H9_12 C19_12 1_555 1_555
C20_12 C19_12 1_555 1_555
H10_12 C20_12 1_555 1_555
C21_12 C20_12 1_555 1_555
H11_12 C21_12 1_555 1_555
C22_12 C21_12 1_555 1_555
H12_12 C22_12 1_555 1_555
C23_12 C18_12 1_555 1_555
H13_12 C23_12 1_555 1_555
Zn3_6 O3_7 1_555 1_555
O6_7 Zn3_3 1_555 1_555
C5_13 C6_13 1_555 1_555
C7_13 N2_13 1_555 1_555
C11_12 N2_13 1_555 1_555
C12_13 N3_13 1_555 1_555
C15_12 C17_12 1_555 1_555
C22_12 C23_12 1_555 1_555
C4_14 C3_14 1_555 1_555
O1_14 C4_14 1_555 1_555
O5_7 C4_14 1_555 1_555
C5_14 C3_14 1_555 1_555
H3_14 C5_14 1_555 1_555
H9_13 C19_13 1_555 1_555
C20_13 C19_13 1_555 1_555
H10_13 C20_13 1_555 1_555
C21_13 C20_13 1_555 1_555
H11_13 C21_13 1_555 1_555
Zn3_4 N1_14 1_555 1_555
N1_14 C1_14 1_555 1_555
C1_14 H1_14 1_555 1_555
C2_14 C1_14 1_555 1_555
H2_14 C2_14 1_555 1_555
C6_14 N1_14 1_555 1_555
C7_14 C6_14 1_555 1_555
C8_14 C7_14 1_555 1_555
C9_13 C8_14 1_555 1_555
C10_13 C9_13 1_555 1_555
H5_13 C10_13 1_555 1_555
C11_13 C10_13 1_555 1_555
N2_14 Zn3_4 1_555 1_555
C12_14 C11_13 1_555 1_555
N3_14 Zn3_4 1_555 1_555
C13_14 N3_14 1_555 1_555
H6_14 C13_14 1_555 1_555
C14_13 C13_14 1_555 1_555
H7_13 C14_13 1_555 1_555
C15_13 C14_13 1_555 1_555
C16_14 C15_13 1_555 1_555
O3_8 C16_14 1_555 1_555
O4_14 C16_14 1_555 1_555
C17_13 C12_14 1_555 1_555
H8_13 C17_13 1_555 1_555
C18_13 C9_13 1_555 1_555
H12_13 C22_13 1_555 1_555
C23_13 C18_13 1_555 1_555
H13_13 C23_13 1_555 1_555
Zn3_5 O3_8 1_555 1_555
O6_8 Zn3_4 1_555 1_555
C7_14 N2_14 1_555 1_555
C11_13 N2_14 1_555 1_555
C12_14 N3_14 1_555 1_555
C15_13 C17_13 1_555 1_555
C22_13 C23_13 1_555 1_555
H7_14 C14_14 1_555 1_555
O6_8 C16_15 1_555 1_555
O4_15 C16_15 1_555 1_555
Zn3_6 N1_15 1_555 1_555
N1_15 C1_15 1_555 1_555
C1_15 H1_15 1_555 1_555
C2_15 C1_15 1_555 1_555
H2_15 C2_15 1_555 1_555
C3_15 C2_15 1_555 1_555
C4_15 C3_15 1_555 1_555
O1_15 C4_15 1_555 1_555
O5 C4_15 1_555 1_555
C5_15 C3_15 1_555 1_555
H3_15 C5_15 1_555 1_555
C6_15 N1_15 1_555 1_555
C7_15 C6_15 1_555 1_555
C8_15 C7_15 1_555 1_555
H4_15 C8_15 1_555 1_555
C9_14 C8_15 1_555 1_555
C10_14 C9_14 1_555 1_555
H5_14 C10_14 1_555 1_555
C11_14 C10_14 1_555 1_555
N2_15 Zn3_6 1_555 1_555
C12_15 C11_14 1_555 1_555
N3_15 Zn3_6 1_555 1_555
C13_15 N3_15 1_555 1_555
H6_15 C13_15 1_555 1_555
C17_14 C12_15 1_555 1_555
H8_14 C17_14 1_555 1_555
C18_14 C9_14 1_555 1_555
C19_14 C18_14 1_555 1_555
H9_14 C19_14 1_555 1_555
C20_14 C19_14 1_555 1_555
H10_14 C20_14 1_555 1_555
C21_14 C20_14 1_555 1_555
H11_14 C21_14 1_555 1_555
C22_14 C21_14 1_555 1_555
H12_14 C22_14 1_555 1_555
C23_14 C18_14 1_555 1_555
H13_14 C23_14 1_555 1_555
C5_15 C6_15 1_555 1_555
C7_15 N2_15 1_555 1_555
C11_14 N2_15 1_555 1_555
C12_15 N3_15 1_555 1_555
C15_14 C17_14 1_555 1_555
C22_14 C23_14 1_555 1_555
Zn3_5 N1_16 1_555 1_555
N1_16 C1_16 1_555 1_555
C1_16 H1_16 1_555 1_555
C2_16 C1_16 1_555 1_555
H2_16 C2_16 1_555 1_555
C3_16 C2_16 1_555 1_555
C4_16 C3_16 1_555 1_555
O1_16 C4_16 1_555 1_555
O5_2 C4_16 1_555 1_555
C5_16 C3_16 1_555 1_555
H3_16 C5_16 1_555 1_555
C6_16 N1_16 1_555 1_555
C7_16 C6_16 1_555 1_555
C8_16 C7_16 1_555 1_555
H4_16 C8_16 1_555 1_555
N2_16 Zn3_5 1_555 1_555
N3_16 Zn3_5 1_555 1_555
C13_16 N3_16 1_555 1_555
H6_16 C13_16 1_555 1_555
C5_16 C6_16 1_555 1_555
C7_16 N2_16 1_555 1_555
C12_16 N3_16 1_555 1_555
O6_7 C16_16 1_555 1_555
O4_16 C16_16 1_555 1_555
Zn1_5 N1_17 1_555 1_555
N1_17 C1_17 1_555 1_555
C1_17 H1_17 1_555 1_555
C2_17 C1_17 1_555 1_555
H2_17 C2_17 1_555 1_555
C3_17 C2_17 1_555 1_555
C4_17 C3_17 1_555 1_555
O1_17 C4_17 1_555 1_555
O2_9 C4_17 1_555 1_555
C5_17 C3_17 1_555 1_555
H3_17 C5_17 1_555 1_555
C6_17 N1_17 1_555 1_555
C7_17 C6_17 1_555 1_555
C8_17 C7_17 1_555 1_555
H4_17 C8_17 1_555 1_555
C9_15 C8_17 1_555 1_555
C10_15 C9_15 1_555 1_555
H5_15 C10_15 1_555 1_555
C11_15 C10_15 1_555 1_555
N2_17 Zn1_5 1_555 1_555
C12_17 C11_15 1_555 1_555
N3_17 Zn1_5 1_555 1_555
C13_17 N3_17 1_555 1_555
H6_17 C13_17 1_555 1_555
C14_15 C13_17 1_555 1_555
H7_15 C14_15 1_555 1_555
C15_15 C14_15 1_555 1_555
C16_17 C15_15 1_555 1_555
O3_9 C16_17 1_555 1_555
O4_17 C16_17 1_555 1_555
C17_15 C12_17 1_555 1_555
H8_15 C17_15 1_555 1_555
C18_15 C9_15 1_555 1_555
C19_15 C18_15 1_555 1_555
H9_15 C19_15 1_555 1_555
C20_15 C19_15 1_555 1_555
H10_15 C20_15 1_555 1_555
C21_15 C20_15 1_555 1_555
H11_15 C21_15 1_555 1_555
C22_15 C21_15 1_555 1_555
H12_15 C22_15 1_555 1_555
C23_15 C18_15 1_555 1_555
H13_15 C23_15 1_555 1_555
Zn2_5 O3_9 1_555 1_555
Zn3_9 O2_9 1_555 1_555
O5_9 Zn1_5 1_555 1_555
O6_9 Zn1_5 1_555 1_555
C5_17 C6_17 1_555 1_555
C7_17 N2_17 1_555 1_555
C11_15 N2_17 1_555 1_555
C12_17 N3_17 1_555 1_555
C15_15 C17_15 1_555 1_555
C22_15 C23_15 1_555 1_555
C4_18 C3_18 1_555 1_555
O1_18 C4_18 1_555 1_555
O2_10 C4_18 1_555 1_555
C5_18 C3_18 1_555 1_555
H3_18 C5_18 1_555 1_555
H9_16 C19_16 1_555 1_555
C20_16 C19_16 1_555 1_555
H10_16 C20_16 1_555 1_555
C21_16 C20_16 1_555 1_555
H11_16 C21_16 1_555 1_555
Zn3_10 O2_10 1_555 1_555
Zn1_6 N1_18 1_555 1_555
N1_18 C1_18 1_555 1_555
C1_18 H1_18 1_555 1_555
C2_18 C1_18 1_555 1_555
H2_18 C2_18 1_555 1_555
C6_18 N1_18 1_555 1_555
C7_18 C6_18 1_555 1_555
C8_18 C7_18 1_555 1_555
C9_16 C8_18 1_555 1_555
C10_16 C9_16 1_555 1_555
H5_16 C10_16 1_555 1_555
C11_16 C10_16 1_555 1_555
N2_18 Zn1_6 1_555 1_555
C12_18 C11_16 1_555 1_555
N3_18 Zn1_6 1_555 1_555
C13_18 N3_18 1_555 1_555
H6_18 C13_18 1_555 1_555
C14_16 C13_18 1_555 1_555
H7_16 C14_16 1_555 1_555
C15_16 C14_16 1_555 1_555
C16_18 C15_16 1_555 1_555
O3_10 C16_18 1_555 1_555
O4_18 C16_18 1_555 1_555
C17_16 C12_18 1_555 1_555
H8_16 C17_16 1_555 1_555
C18_16 C9_16 1_555 1_555
H12_16 C22_16 1_555 1_555
C23_16 C18_16 1_555 1_555
H13_16 C23_16 1_555 1_555
Zn2_6 O3_10 1_555 1_555
O5_10 Zn1_6 1_555 1_555
O6_10 Zn1_6 1_555 1_555
C7_18 N2_18 1_555 1_555
C11_16 N2_18 1_555 1_555
C12_18 N3_18 1_555 1_555
C15_16 C17_16 1_555 1_555
C22_16 C23_16 1_555 1_555
Zn2_5 N1_19 1_555 1_555
N1_19 C1_19 1_555 1_555
C1_19 H1_19 1_555 1_555
C2_19 C1_19 1_555 1_555
H2_19 C2_19 1_555 1_555
C3_19 C2_19 1_555 1_555
C4_19 C3_19 1_555 1_555
O1_19 C4_19 1_555 1_555
O2_11 C4_19 1_555 1_555
C5_19 C3_19 1_555 1_555
H3_19 C5_19 1_555 1_555
C6_19 N1_19 1_555 1_555
C7_19 C6_19 1_555 1_555
C8_19 C7_19 1_555 1_555
H4_19 C8_19 1_555 1_555
N2_19 Zn2_5 1_555 1_555
N3_19 Zn2_5 1_555 1_555
C13_19 N3_19 1_555 1_555
H6_19 C13_19 1_555 1_555
C14_17 C13_19 1_555 1_555
H7_17 C14_17 1_555 1_555
Zn3_11 O2_11 1_555 1_555
O5_11 Zn2_5 1_555 1_555
C5_19 C6_19 1_555 1_555
C7_19 N2_19 1_555 1_555
C12_19 N3_19 1_555 1_555
C10_17 C9_17 1_555 1_555
H5_17 C10_17 1_555 1_555
C11_17 C10_17 1_555 1_555
C16_19 C15_17 1_555 1_555
O6_10 C16_19 1_555 1_555
O4_19 C16_19 1_555 1_555
H8_17 C17_17 1_555 1_555
C18_17 C9_17 1_555 1_555
C19_17 C18_17 1_555 1_555
H9_17 C19_17 1_555 1_555
C20_17 C19_17 1_555 1_555
H10_17 C20_17 1_555 1_555
C21_17 C20_17 1_555 1_555
H11_17 C21_17 1_555 1_555
C22_17 C21_17 1_555 1_555
H12_17 C22_17 1_555 1_555
C23_17 C18_17 1_555 1_555
H13_17 C23_17 1_555 1_555
C15_17 C17_17 1_555 1_555
C22_17 C23_17 1_555 1_555
Zn2_6 N1_20 1_555 1_555
N1_20 C1_20 1_555 1_555
C1_20 H1_20 1_555 1_555
C2_20 C1_20 1_555 1_555
H2_20 C2_20 1_555 1_555
C3_20 C2_20 1_555 1_555
C4_20 C3_20 1_555 1_555
O1_20 C4_20 1_555 1_555
O2_12 C4_20 1_555 1_555
C5_20 C3_20 1_555 1_555
H3_20 C5_20 1_555 1_555
C6_20 N1_20 1_555 1_555
C7_20 C6_20 1_555 1_555
C8_20 C7_20 1_555 1_555
H4_20 C8_20 1_555 1_555
C9_18 C8_20 1_555 1_555
C10_18 C9_18 1_555 1_555
H5_18 C10_18 1_555 1_555
C11_18 C10_18 1_555 1_555
N2_20 Zn2_6 1_555 1_555
C12_20 C11_18 1_555 1_555
N3_20 Zn2_6 1_555 1_555
C13_20 N3_20 1_555 1_555
H6_20 C13_20 1_555 1_555
C14_18 C13_20 1_555 1_555
H7_18 C14_18 1_555 1_555
C15_18 C14_18 1_555 1_555
C16_20 C15_18 1_555 1_555
O6_9 C16_20 1_555 1_555
O4_20 C16_20 1_555 1_555
C17_18 C12_20 1_555 1_555
H8_18 C17_18 1_555 1_555
C18_18 C9_18 1_555 1_555
C19_18 C18_18 1_555 1_555
H9_18 C19_18 1_555 1_555
C20_18 C19_18 1_555 1_555
H10_18 C20_18 1_555 1_555
C21_18 C20_18 1_555 1_555
H11_18 C21_18 1_555 1_555
C22_18 C21_18 1_555 1_555
H12_18 C22_18 1_555 1_555
C23_18 C18_18 1_555 1_555
H13_18 C23_18 1_555 1_555
Zn3_12 O2_12 1_555 1_555
O5_12 Zn2_6 1_555 1_555
C5_20 C6_20 1_555 1_555
C7_20 N2_20 1_555 1_555
C11_18 N2_20 1_555 1_555
C12_20 N3_20 1_555 1_555
C15_18 C17_18 1_555 1_555
C22_18 C23_18 1_555 1_555
Zn1_7 N1_21 1_555 1_555
N1_21 C1_21 1_555 1_555
C1_21 H1_21 1_555 1_555
C2_21 C1_21 1_555 1_555
H2_21 C2_21 1_555 1_555
C6_21 N1_21 1_555 1_555
C7_21 C6_21 1_555 1_555
C8_21 C7_21 1_555 1_555
C9_19 C8_21 1_555 1_555
C10_19 C9_19 1_555 1_555
H5_19 C10_19 1_555 1_555
C11_19 C10_19 1_555 1_555
N2_21 Zn1_7 1_555 1_555
C12_21 C11_19 1_555 1_555
N3_21 Zn1_7 1_555 1_555
C13_21 N3_21 1_555 1_555
H6_21 C13_21 1_555 1_555
C14_19 C13_21 1_555 1_555
H7_19 C14_19 1_555 1_555
C15_19 C14_19 1_555 1_555
C16_21 C15_19 1_555 1_555
O3_11 C16_21 1_555 1_555
O4_21 C16_21 1_555 1_555
C17_19 C12_21 1_555 1_555
H8_19 C17_19 1_555 1_555
C18_19 C9_19 1_555 1_555
H12_19 C22_19 1_555 1_555
C23_19 C18_19 1_555 1_555
H13_19 C23_19 1_555 1_555
Zn2_7 O3_11 1_555 1_555
O5_13 Zn1_7 1_555 1_555
O6_11 Zn1_7 1_555 1_555
C7_21 N2_21 1_555 1_555
C11_19 N2_21 1_555 1_555
C12_21 N3_21 1_555 1_555
C15_19 C17_19 1_555 1_555
C22_19 C23_19 1_555 1_555
C4_21 C3_21 1_555 1_555
O1_21 C4_21 1_555 1_555
O2_13 C4_21 1_555 1_555
C5_21 C3_21 1_555 1_555
H3_21 C5_21 1_555 1_555
H9_19 C19_19 1_555 1_555
C20_19 C19_19 1_555 1_555
H10_19 C20_19 1_555 1_555
C21_19 C20_19 1_555 1_555
H11_19 C21_19 1_555 1_555
Zn3_13 O2_13 1_555 1_555
Zn1_8 N1_22 1_555 1_555
N1_22 C1_22 1_555 1_555
C1_22 H1_22 1_555 1_555
C2_22 C1_22 1_555 1_555
H2_22 C2_22 1_555 1_555
C3_22 C2_22 1_555 1_555
C4_22 C3_22 1_555 1_555
O1_22 C4_22 1_555 1_555
O2_14 C4_22 1_555 1_555
C5_22 C3_22 1_555 1_555
H3_22 C5_22 1_555 1_555
C6_22 N1_22 1_555 1_555
C7_22 C6_22 1_555 1_555
C8_22 C7_22 1_555 1_555
H4_22 C8_22 1_555 1_555
C9_20 C8_22 1_555 1_555
C10_20 C9_20 1_555 1_555
H5_20 C10_20 1_555 1_555
C11_20 C10_20 1_555 1_555
N2_22 Zn1_8 1_555 1_555
C12_22 C11_20 1_555 1_555
N3_22 Zn1_8 1_555 1_555
C13_22 N3_22 1_555 1_555
H6_22 C13_22 1_555 1_555
C14_20 C13_22 1_555 1_555
H7_20 C14_20 1_555 1_555
C15_20 C14_20 1_555 1_555
C16_22 C15_20 1_555 1_555
O3_12 C16_22 1_555 1_555
O4_22 C16_22 1_555 1_555
C17_20 C12_22 1_555 1_555
H8_20 C17_20 1_555 1_555
C18_20 C9_20 1_555 1_555
C19_20 C18_20 1_555 1_555
H9_20 C19_20 1_555 1_555
C20_20 C19_20 1_555 1_555
H10_20 C20_20 1_555 1_555
C21_20 C20_20 1_555 1_555
H11_20 C21_20 1_555 1_555
C22_20 C21_20 1_555 1_555
H12_20 C22_20 1_555 1_555
C23_20 C18_20 1_555 1_555
H13_20 C23_20 1_555 1_555
Zn2_8 O3_12 1_555 1_555
Zn3_14 O2_14 1_555 1_555
O5_14 Zn1_8 1_555 1_555
O6_12 Zn1_8 1_555 1_555
C5_22 C6_22 1_555 1_555
C7_22 N2_22 1_555 1_555
C11_20 N2_22 1_555 1_555
C12_22 N3_22 1_555 1_555
C15_20 C17_20 1_555 1_555
C22_20 C23_20 1_555 1_555
Zn2_7 N1_23 1_555 1_555
N1_23 C1_23 1_555 1_555
C1_23 H1_23 1_555 1_555
C2_23 C1_23 1_555 1_555
H2_23 C2_23 1_555 1_555
C3_23 C2_23 1_555 1_555
C4_23 C3_23 1_555 1_555
O1_23 C4_23 1_555 1_555
O2_15 C4_23 1_555 1_555
C5_23 C3_23 1_555 1_555
H3_23 C5_23 1_555 1_555
C6_23 N1_23 1_555 1_555
C7_23 C6_23 1_555 1_555
C8_23 C7_23 1_555 1_555
H4_23 C8_23 1_555 1_555
C9_21 C8_23 1_555 1_555
C10_21 C9_21 1_555 1_555
H5_21 C10_21 1_555 1_555
C11_21 C10_21 1_555 1_555
N2_23 Zn2_7 1_555 1_555
C12_23 C11_21 1_555 1_555
N3_23 Zn2_7 1_555 1_555
C13_23 N3_23 1_555 1_555
H6_23 C13_23 1_555 1_555
C17_21 C12_23 1_555 1_555
H8_21 C17_21 1_555 1_555
C18_21 C9_21 1_555 1_555
C19_21 C18_21 1_555 1_555
H9_21 C19_21 1_555 1_555
C20_21 C19_21 1_555 1_555
H10_21 C20_21 1_555 1_555
C21_21 C20_21 1_555 1_555
H11_21 C21_21 1_555 1_555
C22_21 C21_21 1_555 1_555
H12_21 C22_21 1_555 1_555
C23_21 C18_21 1_555 1_555
H13_21 C23_21 1_555 1_555
Zn3_15 O2_15 1_555 1_555
O5_15 Zn2_7 1_555 1_555
C5_23 C6_23 1_555 1_555
C7_23 N2_23 1_555 1_555
C11_21 N2_23 1_555 1_555
C12_23 N3_23 1_555 1_555
C15_21 C17_21 1_555 1_555
C22_21 C23_21 1_555 1_555
H7_21 C14_21 1_555 1_555
O6_12 C16_23 1_555 1_555
O4_23 C16_23 1_555 1_555
O6_11 C16_24 1_555 1_555
O4_24 C16_24 1_555 1_555
Zn2_8 N1_24 1_555 1_555
N1_24 C1_24 1_555 1_555
C1_24 H1_24 1_555 1_555
C2_24 C1_24 1_555 1_555
H2_24 C2_24 1_555 1_555
C3_24 C2_24 1_555 1_555
C4_24 C3_24 1_555 1_555
O1_24 C4_24 1_555 1_555
O2_16 C4_24 1_555 1_555
C5_24 C3_24 1_555 1_555
H3_24 C5_24 1_555 1_555
C6_24 N1_24 1_555 1_555
C7_24 C6_24 1_555 1_555
C8_24 C7_24 1_555 1_555
H4_24 C8_24 1_555 1_555
N2_24 Zn2_8 1_555 1_555
N3_24 Zn2_8 1_555 1_555
C13_24 N3_24 1_555 1_555
H6_24 C13_24 1_555 1_555
Zn3_16 O2_16 1_555 1_555
O5_16 Zn2_8 1_555 1_555
C5_24 C6_24 1_555 1_555
C7_24 N2_24 1_555 1_555
C12_24 N3_24 1_555 1_555
Zn3_15 N1_25 1_555 1_555
N1_25 C1_25 1_555 1_555
C1_25 H1_25 1_555 1_555
C2_25 C1_25 1_555 1_555
H2_25 C2_25 1_555 1_555
C3_25 C2_25 1_555 1_555
C4_25 C3_25 1_555 1_555
O1_25 C4_25 1_555 1_555
O5_12 C4_25 1_555 1_555
C5_25 C3_25 1_555 1_555
H3_25 C5_25 1_555 1_555
C6_25 N1_25 1_555 1_555
C7_25 C6_25 1_555 1_555
C8_25 C7_25 1_555 1_555
H4_25 C8_25 1_555 1_555
C9_22 C8_25 1_555 1_555
C10_22 C9_22 1_555 1_555
H5_22 C10_22 1_555 1_555
C11_22 C10_22 1_555 1_555
N2_25 Zn3_15 1_555 1_555
C12_25 C11_22 1_555 1_555
N3_25 Zn3_15 1_555 1_555
C13_25 N3_25 1_555 1_555
H6_25 C13_25 1_555 1_555
C14_22 C13_25 1_555 1_555
H7_22 C14_22 1_555 1_555
C15_22 C14_22 1_555 1_555
C16_25 C15_22 1_555 1_555
O3_13 C16_25 1_555 1_555
O4_25 C16_25 1_555 1_555
C17_22 C12_25 1_555 1_555
H8_22 C17_22 1_555 1_555
C18_22 C9_22 1_555 1_555
C19_22 C18_22 1_555 1_555
H9_22 C19_22 1_555 1_555
C20_22 C19_22 1_555 1_555
H10_22 C20_22 1_555 1_555
C21_22 C20_22 1_555 1_555
H11_22 C21_22 1_555 1_555
C22_22 C21_22 1_555 1_555
H12_22 C22_22 1_555 1_555
C23_22 C18_22 1_555 1_555
H13_22 C23_22 1_555 1_555
Zn3_10 O3_13 1_555 1_555
O6_13 Zn3_15 1_555 1_555
C5_25 C6_25 1_555 1_555
C7_25 N2_25 1_555 1_555
C11_22 N2_25 1_555 1_555
C12_25 N3_25 1_555 1_555
C15_22 C17_22 1_555 1_555
C22_22 C23_22 1_555 1_555
Zn3_16 N1_26 1_555 1_555
N1_26 C1_26 1_555 1_555
C1_26 H1_26 1_555 1_555
C2_26 C1_26 1_555 1_555
H2_26 C2_26 1_555 1_555
C6_26 N1_26 1_555 1_555
C7_26 C6_26 1_555 1_555
C8_26 C7_26 1_555 1_555
C9_23 C8_26 1_555 1_555
C10_23 C9_23 1_555 1_555
H5_23 C10_23 1_555 1_555
C11_23 C10_23 1_555 1_555
N2_26 Zn3_16 1_555 1_555
C12_26 C11_23 1_555 1_555
N3_26 Zn3_16 1_555 1_555
C13_26 N3_26 1_555 1_555
H6_26 C13_26 1_555 1_555
C14_23 C13_26 1_555 1_555
H7_23 C14_23 1_555 1_555
C15_23 C14_23 1_555 1_555
C16_26 C15_23 1_555 1_555
O3_14 C16_26 1_555 1_555
O4_26 C16_26 1_555 1_555
C17_23 C12_26 1_555 1_555
H8_23 C17_23 1_555 1_555
C18_23 C9_23 1_555 1_555
H12_23 C22_23 1_555 1_555
C23_23 C18_23 1_555 1_555
H13_23 C23_23 1_555 1_555
Zn3_9 O3_14 1_555 1_555
O6_14 Zn3_16 1_555 1_555
C7_26 N2_26 1_555 1_555
C11_23 N2_26 1_555 1_555
C12_26 N3_26 1_555 1_555
C15_23 C17_23 1_555 1_555
C22_23 C23_23 1_555 1_555
C4_26 C3_26 1_555 1_555
O1_26 C4_26 1_555 1_555
O5_11 C4_26 1_555 1_555
C5_26 C3_26 1_555 1_555
H3_26 C5_26 1_555 1_555
H9_23 C19_23 1_555 1_555
C20_23 C19_23 1_555 1_555
H10_23 C20_23 1_555 1_555
C21_23 C20_23 1_555 1_555
H11_23 C21_23 1_555 1_555
C10_24 C9_24 1_555 1_555
H5_24 C10_24 1_555 1_555
C11_24 C10_24 1_555 1_555
C16_27 C15_24 1_555 1_555
O6_14 C16_27 1_555 1_555
O4_27 C16_27 1_555 1_555
H8_24 C17_24 1_555 1_555
C18_24 C9_24 1_555 1_555
C19_24 C18_24 1_555 1_555
H9_24 C19_24 1_555 1_555
C20_24 C19_24 1_555 1_555
H10_24 C20_24 1_555 1_555
C21_24 C20_24 1_555 1_555
H11_24 C21_24 1_555 1_555
C22_24 C21_24 1_555 1_555
H12_24 C22_24 1_555 1_555
C23_24 C18_24 1_555 1_555
H13_24 C23_24 1_555 1_555
C15_24 C17_24 1_555 1_555
C22_24 C23_24 1_555 1_555
Zn3_10 N1_27 1_555 1_555
N1_27 C1_27 1_555 1_555
C1_27 H1_27 1_555 1_555
C2_27 C1_27 1_555 1_555
H2_27 C2_27 1_555 1_555
C3_27 C2_27 1_555 1_555
C4_27 C3_27 1_555 1_555
O1_27 C4_27 1_555 1_555
O5_13 C4_27 1_555 1_555
C5_27 C3_27 1_555 1_555
H3_27 C5_27 1_555 1_555
C6_27 N1_27 1_555 1_555
C7_27 C6_27 1_555 1_555
C8_27 C7_27 1_555 1_555
H4_27 C8_27 1_555 1_555
N2_27 Zn3_10 1_555 1_555
N3_27 Zn3_10 1_555 1_555
C13_27 N3_27 1_555 1_555
H6_27 C13_27 1_555 1_555
C14_24 C13_27 1_555 1_555
H7_24 C14_24 1_555 1_555
C5_27 C6_27 1_555 1_555
C7_27 N2_27 1_555 1_555
C12_27 N3_27 1_555 1_555
Zn3_9 N1_28 1_555 1_555
N1_28 C1_28 1_555 1_555
C1_28 H1_28 1_555 1_555
C2_28 C1_28 1_555 1_555
H2_28 C2_28 1_555 1_555
C3_28 C2_28 1_555 1_555
C4_28 C3_28 1_555 1_555
O1_28 C4_28 1_555 1_555
O5_14 C4_28 1_555 1_555
C5_28 C3_28 1_555 1_555
H3_28 C5_28 1_555 1_555
C6_28 N1_28 1_555 1_555
C7_28 C6_28 1_555 1_555
C8_28 C7_28 1_555 1_555
H4_28 C8_28 1_555 1_555
C9_25 C8_28 1_555 1_555
C10_25 C9_25 1_555 1_555
H5_25 C10_25 1_555 1_555
C11_25 C10_25 1_555 1_555
N2_28 Zn3_9 1_555 1_555
C12_28 C11_25 1_555 1_555
N3_28 Zn3_9 1_555 1_555
C13_28 N3_28 1_555 1_555
H6_28 C13_28 1_555 1_555
C14_25 C13_28 1_555 1_555
H7_25 C14_25 1_555 1_555
C15_25 C14_25 1_555 1_555
C16_28 C15_25 1_555 1_555
O6_13 C16_28 1_555 1_555
O4_28 C16_28 1_555 1_555
C17_25 C12_28 1_555 1_555
H8_25 C17_25 1_555 1_555
C18_25 C9_25 1_555 1_555
C19_25 C18_25 1_555 1_555
H9_25 C19_25 1_555 1_555
C20_25 C19_25 1_555 1_555
H10_25 C20_25 1_555 1_555
C21_25 C20_25 1_555 1_555
H11_25 C21_25 1_555 1_555
C22_25 C21_25 1_555 1_555
H12_25 C22_25 1_555 1_555
C23_25 C18_25 1_555 1_555
H13_25 C23_25 1_555 1_555
C5_28 C6_28 1_555 1_555
C7_28 N2_28 1_555 1_555
C11_25 N2_28 1_555 1_555
C12_28 N3_28 1_555 1_555
C15_25 C17_25 1_555 1_555
C22_25 C23_25 1_555 1_555
C4_29 C3_29 1_555 1_555
O1_29 C4_29 1_555 1_555
O5_16 C4_29 1_555 1_555
C5_29 C3_29 1_555 1_555
H3_29 C5_29 1_555 1_555
H9_26 C19_26 1_555 1_555
C20_26 C19_26 1_555 1_555
H10_26 C20_26 1_555 1_555
C21_26 C20_26 1_555 1_555
H11_26 C21_26 1_555 1_555
Zn3_11 N1_29 1_555 1_555
N1_29 C1_29 1_555 1_555
C1_29 H1_29 1_555 1_555
C2_29 C1_29 1_555 1_555
H2_29 C2_29 1_555 1_555
C6_29 N1_29 1_555 1_555
C7_29 C6_29 1_555 1_555
C8_29 C7_29 1_555 1_555
C9_26 C8_29 1_555 1_555
C10_26 C9_26 1_555 1_555
H5_26 C10_26 1_555 1_555
C11_26 C10_26 1_555 1_555
N2_29 Zn3_11 1_555 1_555
C12_29 C11_26 1_555 1_555
N3_29 Zn3_11 1_555 1_555
C13_29 N3_29 1_555 1_555
H6_29 C13_29 1_555 1_555
C14_26 C13_29 1_555 1_555
H7_26 C14_26 1_555 1_555
C15_26 C14_26 1_555 1_555
C16_29 C15_26 1_555 1_555
O3_15 C16_29 1_555 1_555
O4_29 C16_29 1_555 1_555
C17_26 C12_29 1_555 1_555
H8_26 C17_26 1_555 1_555
C18_26 C9_26 1_555 1_555
H12_26 C22_26 1_555 1_555
C23_26 C18_26 1_555 1_555
H13_26 C23_26 1_555 1_555
Zn3_14 O3_15 1_555 1_555
O6_15 Zn3_11 1_555 1_555
C7_29 N2_29 1_555 1_555
C11_26 N2_29 1_555 1_555
C12_29 N3_29 1_555 1_555
C15_26 C17_26 1_555 1_555
C22_26 C23_26 1_555 1_555
Zn3_12 N1_30 1_555 1_555
N1_30 C1_30 1_555 1_555
C1_30 H1_30 1_555 1_555
C2_30 C1_30 1_555 1_555
H2_30 C2_30 1_555 1_555
C3_30 C2_30 1_555 1_555
C4_30 C3_30 1_555 1_555
O1_30 C4_30 1_555 1_555
O5_15 C4_30 1_555 1_555
C5_30 C3_30 1_555 1_555
H3_30 C5_30 1_555 1_555
C6_30 N1_30 1_555 1_555
C7_30 C6_30 1_555 1_555
C8_30 C7_30 1_555 1_555
H4_30 C8_30 1_555 1_555
C9_27 C8_30 1_555 1_555
C10_27 C9_27 1_555 1_555
H5_27 C10_27 1_555 1_555
C11_27 C10_27 1_555 1_555
N2_30 Zn3_12 1_555 1_555
C12_30 C11_27 1_555 1_555
N3_30 Zn3_12 1_555 1_555
C13_30 N3_30 1_555 1_555
H6_30 C13_30 1_555 1_555
C14_27 C13_30 1_555 1_555
H7_27 C14_27 1_555 1_555
C15_27 C14_27 1_555 1_555
C16_30 C15_27 1_555 1_555
O3_16 C16_30 1_555 1_555
O4_30 C16_30 1_555 1_555
C17_27 C12_30 1_555 1_555
H8_27 C17_27 1_555 1_555
C18_27 C9_27 1_555 1_555
C19_27 C18_27 1_555 1_555
H9_27 C19_27 1_555 1_555
C20_27 C19_27 1_555 1_555
H10_27 C20_27 1_555 1_555
C21_27 C20_27 1_555 1_555
H11_27 C21_27 1_555 1_555
C22_27 C21_27 1_555 1_555
H12_27 C22_27 1_555 1_555
C23_27 C18_27 1_555 1_555
H13_27 C23_27 1_555 1_555
Zn3_13 O3_16 1_555 1_555
O6_16 Zn3_12 1_555 1_555
C5_30 C6_30 1_555 1_555
C7_30 N2_30 1_555 1_555
C11_27 N2_30 1_555 1_555
C12_30 N3_30 1_555 1_555
C15_27 C17_27 1_555 1_555
C22_27 C23_27 1_555 1_555
H7_28 C14_28 1_555 1_555
O6_16 C16_31 1_555 1_555
O4_31 C16_31 1_555 1_555
Zn3_14 N1_31 1_555 1_555
N1_31 C1_31 1_555 1_555
C1_31 H1_31 1_555 1_555
C2_31 C1_31 1_555 1_555
H2_31 C2_31 1_555 1_555
C3_31 C2_31 1_555 1_555
C4_31 C3_31 1_555 1_555
O1_31 C4_31 1_555 1_555
O5_9 C4_31 1_555 1_555
C5_31 C3_31 1_555 1_555
H3_31 C5_31 1_555 1_555
C6_31 N1_31 1_555 1_555
C7_31 C6_31 1_555 1_555
C8_31 C7_31 1_555 1_555
H4_31 C8_31 1_555 1_555
C9_28 C8_31 1_555 1_555
C10_28 C9_28 1_555 1_555
H5_28 C10_28 1_555 1_555
C11_28 C10_28 1_555 1_555
N2_31 Zn3_14 1_555 1_555
C12_31 C11_28 1_555 1_555
N3_31 Zn3_14 1_555 1_555
C13_31 N3_31 1_555 1_555
H6_31 C13_31 1_555 1_555
C17_28 C12_31 1_555 1_555
H8_28 C17_28 1_555 1_555
C18_28 C9_28 1_555 1_555
C19_28 C18_28 1_555 1_555
H9_28 C19_28 1_555 1_555
C20_28 C19_28 1_555 1_555
H10_28 C20_28 1_555 1_555
C21_28 C20_28 1_555 1_555
H11_28 C21_28 1_555 1_555
C22_28 C21_28 1_555 1_555
H12_28 C22_28 1_555 1_555
C23_28 C18_28 1_555 1_555
H13_28 C23_28 1_555 1_555
C5_31 C6_31 1_555 1_555
C7_31 N2_31 1_555 1_555
C11_28 N2_31 1_555 1_555
C12_31 N3_31 1_555 1_555
C15_28 C17_28 1_555 1_555
C22_28 C23_28 1_555 1_555
Zn3_13 N1_32 1_555 1_555
N1_32 C1_32 1_555 1_555
C1_32 H1_32 1_555 1_555
C2_32 C1_32 1_555 1_555
H2_32 C2_32 1_555 1_555
C3_32 C2_32 1_555 1_555
C4_32 C3_32 1_555 1_555
O1_32 C4_32 1_555 1_555
O5_10 C4_32 1_555 1_555
C5_32 C3_32 1_555 1_555
H3_32 C5_32 1_555 1_555
C6_32 N1_32 1_555 1_555
C7_32 C6_32 1_555 1_555
C8_32 C7_32 1_555 1_555
H4_32 C8_32 1_555 1_555
N2_32 Zn3_13 1_555 1_555
N3_32 Zn3_13 1_555 1_555
C13_32 N3_32 1_555 1_555
H6_32 C13_32 1_555 1_555
C5_32 C6_32 1_555 1_555
C7_32 N2_32 1_555 1_555
C12_32 N3_32 1_555 1_555
O6_15 C16_32 1_555 1_555
O4_32 C16_32 1_555 1_555
H7_29 C14_29 1_555 1_555
C10_29 C9_29 1_555 1_555
H5_29 C10_29 1_555 1_555
C11_29 C10_29 1_555 1_555
H8_29 C17_29 1_555 1_555
C18_29 C9_29 1_555 1_555
C19_29 C18_29 1_555 1_555
H9_29 C19_29 1_555 1_555
C20_29 C19_29 1_555 1_555
H10_29 C20_29 1_555 1_555
C21_29 C20_29 1_555 1_555
H11_29 C21_29 1_555 1_555
C22_29 C21_29 1_555 1_555
H12_29 C22_29 1_555 1_555
C23_29 C18_29 1_555 1_555
H13_29 C23_29 1_555 1_555
C15_29 C17_29 1_555 1_555
C22_29 C23_29 1_555 1_555
H7_30 C14_30 1_555 1_555
C10_30 C9_30 1_555 1_555
H5_30 C10_30 1_555 1_555
C11_30 C10_30 1_555 1_555
H8_30 C17_30 1_555 1_555
C18_30 C9_30 1_555 1_555
C19_30 C18_30 1_555 1_555
H9_30 C19_30 1_555 1_555
C20_30 C19_30 1_555 1_555
H10_30 C20_30 1_555 1_555
C21_30 C20_30 1_555 1_555
H11_30 C21_30 1_555 1_555
C22_30 C21_30 1_555 1_555
H12_30 C22_30 1_555 1_555
C23_30 C18_30 1_555 1_555
H13_30 C23_30 1_555 1_555
C15_30 C17_30 1_555 1_555
C22_30 C23_30 1_555 1_555
C10_31 C9_31 1_555 1_555
H5_31 C10_31 1_555 1_555
C11_31 C10_31 1_555 1_555
H8_31 C17_31 1_555 1_555
C18_31 C9_31 1_555 1_555
C19_31 C18_31 1_555 1_555
H9_31 C19_31 1_555 1_555
C20_31 C19_31 1_555 1_555
H10_31 C20_31 1_555 1_555
C21_31 C20_31 1_555 1_555
H11_31 C21_31 1_555 1_555
C22_31 C21_31 1_555 1_555
H12_31 C22_31 1_555 1_555
C23_31 C18_31 1_555 1_555
H13_31 C23_31 1_555 1_555
C15_31 C17_31 1_555 1_555
C22_31 C23_31 1_555 1_555
H7_31 C14_31 1_555 1_555
C10_32 C9_32 1_555 1_555
H5_32 C10_32 1_555 1_555
C11_32 C10_32 1_555 1_555
H8_32 C17_32 1_555 1_555
C18_32 C9_32 1_555 1_555
C19_32 C18_32 1_555 1_555
H9_32 C19_32 1_555 1_555
C20_32 C19_32 1_555 1_555
H10_32 C20_32 1_555 1_555
C21_32 C20_32 1_555 1_555
H11_32 C21_32 1_555 1_555
C22_32 C21_32 1_555 1_555
H12_32 C22_32 1_555 1_555
C23_32 C18_32 1_555 1_555
H13_32 C23_32 1_555 1_555
C15_32 C17_32 1_555 1_555
C22_32 C23_32 1_555 1_555
H7_32 C14_32 1_555 1_555

#END
