
###############################################################################
#
# This file contains modified crystal structure data generated from the
# MOF subset of the Cambridge Structural Database (CSD) v543 
# hosted by the Cambridge Crystallographic Data Centre (CCDC).
#
# This work is licensed under the Creative Commons
# Attribution-NonCommercial-ShareAlike 4.0 International License.
# To view a copy of this license, visit
# http://creativecommons.org/licenses/by-nc-sa/4.0/
# or send a letter to
# Creative Commons, PO Box 1866, Mountain View, CA 94042, USA.
#
# CIF created using the CSD Python API on 29 September 2022
# The structure has been converted into the P1 space group
# The structure has a 3D framework
# The original CSD entry DECXUH is in the tetragonal crystal system
# The framework has been calculated to contain at least 10.0% void space
# The void calculation uses a probe of radius 1.32A, grid spacing 0.4
#
###############################################################################

data_DECXUH
_chemical_formula_moiety         '(C768 H480 N96 O128 Zn32)n'
_symmetry_cell_setting           triclinic
_symmetry_space_group_name_H-M   'P 1'
_symmetry_Int_Tables_number      1
_space_group_name_Hall           'P 1'
loop_
_symmetry_equiv_pos_site_id
_symmetry_equiv_pos_as_xyz
1 x,y,z
_cell_length_a                   29.4203(3)
_cell_length_b                   29.4203(3)
_cell_length_c                   26.4081(5)
_cell_angle_alpha                90
_cell_angle_beta                 90
_cell_angle_gamma                90
_cell_volume                     22857.6
loop_
_atom_site_label
_atom_site_type_symbol
_atom_site_fract_x
_atom_site_fract_y
_atom_site_fract_z
Zn1 Zn 0.14377(2) 0.59095(2) 0.64611(2)
N1 N 0.07433(7) 0.59199(8) 0.61757(8)
C1 C 0.06181(10) 0.60224(11) 0.57014(10)
H1 H 0.0842 0.6069 0.5459
C2 C 0.01675(10) 0.60621(12) 0.55598(10)
H2 H 0.0091 0.6136 0.5228
C6 C 0.04160(9) 0.58545(9) 0.65256(9)
C7 C 0.05886(9) 0.57405(8) 0.70400(9)
C8 C 0.03185(9) 0.56622(8) 0.74617(9)
H4 H 0.0004 0.5688 0.7438
C9 C 0.05201(8) 0.55444(8) 0.79206(8)
C10 C 0.09936(9) 0.55112(8) 0.79355(9)
H5 H 0.1139 0.5416 0.8230
C11 C 0.12452(8) 0.56210(8) 0.75069(9)
N2 N 0.10421(7) 0.57246(6) 0.70696(7)
C12 C 0.17514(8) 0.56576(8) 0.74914(9)
N3 N 0.19261(7) 0.57543(8) 0.70319(8)
C13 C 0.23748(10) 0.58141(12) 0.69902(10)
H6 H 0.2498 0.5863 0.6671
C14 C 0.26624(10) 0.58066(12) 0.74043(11)
H7 H 0.2974 0.5848 0.7365
C15 C 0.24755(9) 0.57366(10) 0.78791(10)
C16 C 0.27495(9) 0.58095(9) 0.83546(10)
O3 O 0.31814(6) 0.57906(7) 0.83128(7)
O4 O 0.25489(7) 0.59102(7) 0.87445(7)
C17 C 0.20137(8) 0.56451(9) 0.79187(9)
H8 H 0.1885 0.5576 0.8231
C18 C 0.02341(9) 0.54520(9) 0.83762(9)
C22 C 0.00763(14) 0.54480(13) 0.92690(11)
H12 H 0.0164 0.5514 0.9599
C23 C 0.03670(11) 0.55700(11) 0.88682(10)
C24 C 0.07865(12) 0.58376(14) 0.89888(12)
H13 H 0.1042 0.5636 0.9009
H14 H 0.0748 0.5990 0.9307
H15 H 0.0838 0.6058 0.8727
Zn2 Zn 0.34095(2) 0.60623(2) 0.89611(2)
O5 O 0.15530(6) 0.65621(6) 0.63588(7)
O6 O 0.17094(7) 0.56814(6) 0.58128(7)
C3 C 0.98321(10) 0.59904(10) 0.59154(10)
C4 C 0.93353(10) 0.60290(11) 0.57790(11)
O1 O 0.92279(8) 0.61283(12) 0.53438(9)
O2 O 0.90621(6) 0.59470(6) 0.61412(7)
C5 C 0.99616(9) 0.58868(9) 0.64096(9)
H3 H 0.9743 0.5840 0.6658
C19 C 0.98130(10) 0.52373(10) 0.83034(11)
H9 H 0.9723 0.5164 0.7976
C20 C 0.95283(13) 0.51311(12) 0.87030(13)
H10 H 0.9249 0.4992 0.8645
C21 C 0.96660(14) 0.52348(13) 0.91890(13)
H11 H 0.9481 0.5161 0.9463
Zn3 Zn 0.84095(2) 0.60623(2) 0.60389(2)
Zn1_2 Zn 0.35623(2) 0.40905(2) 0.14611(2)
N1_2 N 0.42567(7) 0.40801(8) 0.11757(8)
C1_2 C 0.43819(10) 0.39776(11) 0.07014(10)
H1_2 H 0.4158 0.3931 0.0459
C2_2 C 0.48325(10) 0.39379(12) 0.05598(10)
H2_2 H 0.4909 0.3864 0.0228
C3_2 C 0.51679(10) 0.40096(10) 0.09154(10)
C4_2 C 0.56647(10) 0.39710(11) 0.07790(11)
O1_2 O 0.57721(8) 0.38717(12) 0.03438(9)
O2_2 O 0.59379(6) 0.40530(6) 0.11412(7)
C5_2 C 0.50384(9) 0.41132(9) 0.14096(9)
H3_2 H 0.5257 0.4160 0.1658
C6_2 C 0.45840(9) 0.41455(9) 0.15256(9)
C7_2 C 0.44114(9) 0.42595(8) 0.20400(9)
C8_2 C 0.46815(9) 0.43378(8) 0.24617(9)
H4_2 H 0.4996 0.4312 0.2438
C9_2 C 0.44799(8) 0.44556(8) 0.29206(8)
C10_2 C 0.40064(9) 0.44888(8) 0.29355(9)
H5_2 H 0.3861 0.4584 0.3230
C11_2 C 0.37548(8) 0.43790(8) 0.25069(9)
N2_2 N 0.39579(7) 0.42754(6) 0.20696(7)
C12_2 C 0.32486(8) 0.43424(8) 0.24914(9)
N3_2 N 0.30739(7) 0.42457(8) 0.20319(8)
C13_2 C 0.26252(10) 0.41859(12) 0.19902(10)
H6_2 H 0.2502 0.4137 0.1671
C14_2 C 0.23376(10) 0.41934(12) 0.24043(11)
H7_2 H 0.2026 0.4152 0.2365
C15_2 C 0.25245(9) 0.42634(10) 0.28791(10)
C16_2 C 0.22505(9) 0.41905(9) 0.33546(10)
O3_2 O 0.18186(6) 0.42094(7) 0.33128(7)
O4_2 O 0.24511(7) 0.40898(7) 0.37445(7)
C17_2 C 0.29863(8) 0.43549(9) 0.29187(9)
H8_2 H 0.3115 0.4424 0.3231
C18_2 C 0.47659(9) 0.45480(9) 0.33762(9)
C19_2 C 0.51870(10) 0.47627(10) 0.33034(11)
H9_2 H 0.5277 0.4836 0.2976
C20_2 C 0.54717(13) 0.48689(12) 0.37030(13)
H10_2 H 0.5751 0.5008 0.3645
C21_2 C 0.53340(14) 0.47652(13) 0.41890(13)
H11_2 H 0.5519 0.4839 0.4463
C22_2 C 0.49237(14) 0.45520(13) 0.42690(11)
H12_2 H 0.4836 0.4486 0.4599
C23_2 C 0.46330(11) 0.44300(11) 0.38682(10)
C24_2 C 0.42135(12) 0.41624(14) 0.39888(12)
H13_2 H 0.3958 0.4364 0.4009
H14_2 H 0.4252 0.4010 0.4307
H15_2 H 0.4162 0.3942 0.3727
Zn2_2 Zn 0.15905(2) 0.39377(2) 0.39611(2)
Zn3_2 Zn 0.65905(2) 0.39377(2) 0.10389(2)
O5_2 O 0.34470(6) 0.34379(6) 0.13588(7)
O6_2 O 0.32906(7) 0.43186(6) 0.08128(7)
C16_3 C 0.66905(9) 0.02495(9) 0.08546(10)
O3_3 O 0.67094(7) 0.06814(6) 0.08128(7)
O4_3 O 0.65898(7) 0.00489(7) 0.12445(7)
Zn2_3 Zn 0.64377(2) 0.09095(2) 0.14611(2)
Zn1_3 Zn 0.65905(2) 0.89377(2) 0.89611(2)
N1_3 N 0.65801(8) 0.82433(7) 0.86757(8)
C1_3 C 0.64776(11) 0.81181(10) 0.82014(10)
H1_3 H 0.6431 0.8342 0.7959
C2_3 C 0.64379(12) 0.76675(10) 0.80598(10)
H2_3 H 0.6364 0.7591 0.7728
C3_3 C 0.65096(10) 0.73321(10) 0.84154(10)
C4_3 C 0.64710(11) 0.68353(10) 0.82790(11)
O1_3 O 0.63717(12) 0.67279(8) 0.78438(9)
O2_3 O 0.65530(6) 0.65621(6) 0.86412(7)
C5_3 C 0.66132(9) 0.74616(9) 0.89096(9)
H3_3 H 0.6660 0.7243 0.9158
C6_3 C 0.66455(9) 0.79160(9) 0.90256(9)
C7_3 C 0.67595(8) 0.80886(9) 0.95400(9)
C8_3 C 0.68378(8) 0.78185(9) 0.99617(9)
H4_3 H 0.6812 0.7504 0.9938
N2_3 N 0.67754(6) 0.85421(7) 0.95696(7)
C12_3 C 0.68424(8) 0.92514(8) 0.99914(9)
N3_3 N 0.67457(8) 0.94261(7) 0.95319(8)
C13_3 C 0.66859(12) 0.98748(10) 0.94902(10)
H6_3 H 0.6637 0.9998 0.9171
Zn3_3 Zn 0.64377(2) 0.59095(2) 0.85389(2)
O5_3 O 0.59379(6) 0.90530(6) 0.88588(7)
O6_3 O 0.68186(6) 0.92094(7) 0.83128(7)
Zn1_4 Zn 0.84095(2) 0.10623(2) 0.39611(2)
N1_4 N 0.84199(8) 0.17567(7) 0.36757(8)
C1_4 C 0.85224(11) 0.18819(10) 0.32014(10)
H1_4 H 0.8569 0.1658 0.2959
C2_4 C 0.85621(12) 0.23325(10) 0.30598(10)
H2_4 H 0.8636 0.2409 0.2728
C3_4 C 0.84904(10) 0.26679(10) 0.34154(10)
C4_4 C 0.85290(11) 0.31647(10) 0.32790(11)
O1_4 O 0.86283(12) 0.32721(8) 0.28438(9)
O2_4 O 0.84470(6) 0.34379(6) 0.36412(7)
C5_4 C 0.83868(9) 0.25384(9) 0.39096(9)
H3_4 H 0.8340 0.2757 0.4158
C6_4 C 0.83545(9) 0.20840(9) 0.40256(9)
C7_4 C 0.82405(8) 0.19114(9) 0.45400(9)
C8_4 C 0.81622(8) 0.21815(9) 0.49617(9)
H4_4 H 0.8188 0.2496 0.4938
C9_3 C 0.80444(8) 0.19799(8) 0.54206(8)
C10_3 C 0.80112(8) 0.15064(9) 0.54355(9)
H5_3 H 0.7916 0.1361 0.5730
C11_3 C 0.81210(8) 0.12548(8) 0.50069(9)
N2_4 N 0.82246(6) 0.14579(7) 0.45696(7)
C12_4 C 0.81576(8) 0.07486(8) 0.49914(9)
N3_4 N 0.82543(8) 0.05739(7) 0.45319(8)
C13_4 C 0.83141(12) 0.01252(10) 0.44902(10)
H6_4 H 0.8363 0.0002 0.4171
C15_3 C 0.82366(10) 0.00245(9) 0.53791(10)
C17_3 C 0.81451(9) 0.04863(8) 0.54187(9)
H8_3 H 0.8076 0.0615 0.5731
C18_3 C 0.79520(9) 0.22659(9) 0.58762(9)
C19_3 C 0.77373(10) 0.26870(10) 0.58034(11)
H9_3 H 0.7664 0.2777 0.5476
C20_3 C 0.76311(12) 0.29717(13) 0.62030(13)
H10_3 H 0.7492 0.3251 0.6145
C21_3 C 0.77348(13) 0.28340(14) 0.66890(13)
H11_3 H 0.7661 0.3019 0.6963
C22_3 C 0.79480(13) 0.24237(14) 0.67690(11)
H12_3 H 0.8014 0.2336 0.7099
C23_3 C 0.80700(11) 0.21330(11) 0.63682(10)
C24_3 C 0.83376(14) 0.17135(12) 0.64888(12)
H13_3 H 0.8136 0.1458 0.6509
H14_3 H 0.8490 0.1752 0.6807
H15_3 H 0.8558 0.1662 0.6227
Zn3_4 Zn 0.85623(2) 0.40905(2) 0.35389(2)
O5_4 O 0.90621(6) 0.09470(6) 0.38588(7)
O6_4 O 0.81814(6) 0.07906(7) 0.33128(7)
C14_3 C 0.83066(12) 0.98376(10) 0.49043(11)
H7_3 H 0.8348 0.9526 0.4865
C16_4 C 0.83095(9) 0.97505(9) 0.58546(10)
O3_4 O 0.82906(7) 0.93186(6) 0.58128(7)
O4_4 O 0.84102(7) 0.99511(7) 0.62445(7)
Zn2_4 Zn 0.85623(2) 0.90905(2) 0.64611(2)
N1_5 N 0.57433(7) 0.09199(8) 0.11757(8)
C1_5 C 0.56181(10) 0.10224(11) 0.07014(10)
H1_5 H 0.5842 0.1069 0.0459
C2_5 C 0.51675(10) 0.10621(12) 0.05598(10)
H2_5 H 0.5091 0.1136 0.0228
C3_5 C 0.48321(10) 0.09904(10) 0.09154(10)
C4_5 C 0.43353(10) 0.10290(11) 0.07790(11)
O1_5 O 0.42279(8) 0.11283(12) 0.03438(9)
O2_5 O 0.40621(6) 0.09470(6) 0.11412(7)
C5_5 C 0.49616(9) 0.08868(9) 0.14096(9)
H3_5 H 0.4743 0.0840 0.1658
C6_5 C 0.54160(9) 0.08545(9) 0.15256(9)
C7_5 C 0.55886(9) 0.07405(8) 0.20400(9)
C8_5 C 0.53185(9) 0.06622(8) 0.24617(9)
H4_5 H 0.5004 0.0688 0.2438
C9_4 C 0.55201(8) 0.05444(8) 0.29206(8)
C10_4 C 0.59936(9) 0.05112(8) 0.29355(9)
H5_4 H 0.6139 0.0416 0.3230
C11_4 C 0.62452(8) 0.06210(8) 0.25069(9)
N2_5 N 0.60421(7) 0.07246(6) 0.20696(7)
C12_5 C 0.67514(8) 0.06576(8) 0.24914(9)
N3_5 N 0.69261(7) 0.07543(8) 0.20319(8)
C13_5 C 0.73748(10) 0.08141(12) 0.19902(10)
H6_5 H 0.7498 0.0863 0.1671
C14_4 C 0.76624(10) 0.08066(12) 0.24043(11)
H7_4 H 0.7974 0.0848 0.2365
C15_4 C 0.74755(9) 0.07366(10) 0.28791(10)
C16_5 C 0.77495(9) 0.08095(9) 0.33546(10)
O4_5 O 0.75489(7) 0.09102(7) 0.37445(7)
C17_4 C 0.70137(8) 0.06451(9) 0.29187(9)
H8_4 H 0.6885 0.0576 0.3231
C18_4 C 0.52341(9) 0.04520(9) 0.33762(9)
C19_4 C 0.48130(10) 0.02373(10) 0.33034(11)
H9_4 H 0.4723 0.0164 0.2976
C20_4 C 0.45283(13) 0.01311(12) 0.37030(13)
C21_4 C 0.46660(14) 0.02348(13) 0.41890(13)
H11_4 H 0.4481 0.0161 0.4463
C22_4 C 0.50763(14) 0.04480(13) 0.42690(11)
H12_4 H 0.5164 0.0514 0.4599
C23_4 C 0.53670(11) 0.05700(11) 0.38682(10)
C24_4 C 0.57865(12) 0.08376(14) 0.39888(12)
H13_4 H 0.6042 0.0636 0.4009
H14_4 H 0.5748 0.0990 0.4307
H15_4 H 0.5838 0.1058 0.3727
Zn3_5 Zn 0.34095(2) 0.10623(2) 0.10389(2)
O5_5 O 0.65530(6) 0.15621(6) 0.13588(7)
C3_6 C 0.01679(10) 0.90096(10) 0.59154(10)
C4_6 C 0.06647(10) 0.89710(11) 0.57790(11)
O1_6 O 0.07721(8) 0.88717(12) 0.53438(9)
O2_6 O 0.09379(6) 0.90530(6) 0.61412(7)
C5_6 C 0.00384(9) 0.91132(9) 0.64096(9)
H3_6 H 0.0257 0.9160 0.6658
C19_5 C 0.01870(10) 0.97627(10) 0.83034(11)
H9_5 H 0.0277 0.9836 0.7976
C20_5 C 0.04717(13) 0.98689(12) 0.87030(13)
C21_5 C 0.03340(14) 0.97652(13) 0.91890(13)
H11_5 H 0.0519 0.9839 0.9463
Zn3_6 Zn 0.15905(2) 0.89377(2) 0.60389(2)
N1_6 N 0.92567(7) 0.90801(8) 0.61757(8)
C1_6 C 0.93819(10) 0.89776(11) 0.57014(10)
H1_6 H 0.9158 0.8931 0.5459
C2_6 C 0.98325(10) 0.89379(12) 0.55598(10)
H2_6 H 0.9909 0.8864 0.5228
C6_6 C 0.95840(9) 0.91455(9) 0.65256(9)
C7_6 C 0.94114(9) 0.92595(8) 0.70400(9)
C8_6 C 0.96815(9) 0.93378(8) 0.74617(9)
H4_6 H 0.9996 0.9312 0.7438
C9_5 C 0.94799(8) 0.94556(8) 0.79206(8)
C10_5 C 0.90064(9) 0.94888(8) 0.79355(9)
H5_5 H 0.8861 0.9584 0.8230
C11_5 C 0.87548(8) 0.93790(8) 0.75069(9)
N2_6 N 0.89579(7) 0.92754(6) 0.70696(7)
C12_6 C 0.82486(8) 0.93424(8) 0.74914(9)
N3_6 N 0.80739(7) 0.92457(8) 0.70319(8)
C13_6 C 0.76252(10) 0.91859(12) 0.69902(10)
H6_6 H 0.7502 0.9137 0.6671
C14_5 C 0.73376(10) 0.91934(12) 0.74043(11)
H7_5 H 0.7026 0.9152 0.7365
C15_5 C 0.75245(9) 0.92634(10) 0.78791(10)
C16_6 C 0.72505(9) 0.91905(9) 0.83546(10)
O4_6 O 0.74511(7) 0.90898(7) 0.87445(7)
C17_5 C 0.79863(8) 0.93549(9) 0.79187(9)
H8_5 H 0.8115 0.9424 0.8231
C18_5 C 0.97659(9) 0.95480(9) 0.83762(9)
C22_5 C 0.99237(14) 0.95520(13) 0.92690(11)
H12_5 H 0.9836 0.9486 0.9599
C23_5 C 0.96330(11) 0.94300(11) 0.88682(10)
C24_5 C 0.92135(12) 0.91624(14) 0.89888(12)
H13_5 H 0.8958 0.9364 0.9009
H14_5 H 0.9252 0.9010 0.9307
H15_5 H 0.9162 0.8942 0.8727
O5_6 O 0.84470(6) 0.84379(6) 0.63588(7)
N1_7 N 0.15801(8) 0.32433(7) 0.36757(8)
C1_7 C 0.14776(11) 0.31181(10) 0.32014(10)
H1_7 H 0.1431 0.3342 0.2959
C2_7 C 0.14379(12) 0.26675(10) 0.30598(10)
H2_7 H 0.1364 0.2591 0.2728
C3_7 C 0.15096(10) 0.23321(10) 0.34154(10)
C4_7 C 0.14710(11) 0.18353(10) 0.32790(11)
O1_7 O 0.13717(12) 0.17279(8) 0.28438(9)
O2_7 O 0.15530(6) 0.15621(6) 0.36412(7)
C5_7 C 0.16132(9) 0.24616(9) 0.39096(9)
H3_7 H 0.1660 0.2243 0.4158
C6_7 C 0.16455(9) 0.29160(9) 0.40256(9)
C7_7 C 0.17595(8) 0.30886(9) 0.45400(9)
C8_7 C 0.18378(8) 0.28185(9) 0.49617(9)
H4_7 H 0.1812 0.2504 0.4938
C9_6 C 0.19556(8) 0.30201(8) 0.54206(8)
C10_6 C 0.19888(8) 0.34936(9) 0.54355(9)
H5_6 H 0.2084 0.3639 0.5730
C11_6 C 0.18790(8) 0.37452(8) 0.50069(9)
N2_7 N 0.17754(6) 0.35421(7) 0.45696(7)
C12_7 C 0.18424(8) 0.42514(8) 0.49914(9)
N3_7 N 0.17457(8) 0.44261(7) 0.45319(8)
C13_7 C 0.16859(12) 0.48748(10) 0.44902(10)
H6_7 H 0.1637 0.4998 0.4171
C14_6 C 0.16934(12) 0.51624(10) 0.49043(11)
H7_6 H 0.1652 0.5474 0.4865
C15_6 C 0.17634(10) 0.49755(9) 0.53791(10)
C16_7 C 0.16905(9) 0.52495(9) 0.58546(10)
O4_7 O 0.15898(7) 0.50489(7) 0.62445(7)
C17_6 C 0.18549(9) 0.45137(8) 0.54187(9)
H8_6 H 0.1924 0.4385 0.5731
C18_6 C 0.20480(9) 0.27341(9) 0.58762(9)
C19_6 C 0.22627(10) 0.23130(10) 0.58034(11)
H9_6 H 0.2336 0.2223 0.5476
C20_6 C 0.23689(12) 0.20283(13) 0.62030(13)
H10_4 H 0.2508 0.1749 0.6145
C21_6 C 0.22652(13) 0.21660(14) 0.66890(13)
H11_6 H 0.2339 0.1981 0.6963
C22_6 C 0.20520(13) 0.25763(14) 0.67690(11)
H12_6 H 0.1986 0.2664 0.7099
C23_6 C 0.19300(11) 0.28670(11) 0.63682(10)
C24_6 C 0.16624(14) 0.32865(12) 0.64888(12)
H13_6 H 0.1864 0.3542 0.6509
H14_6 H 0.1510 0.3248 0.6807
H15_6 H 0.1442 0.3338 0.6227
Zn3_7 Zn 0.14377(2) 0.09095(2) 0.35389(2)
O5_7 O 0.09379(6) 0.40530(6) 0.38588(7)
C9_7 C 0.30444(8) 0.69799(8) 0.04206(8)
C10_7 C 0.30112(8) 0.65064(9) 0.04355(9)
H5_7 H 0.2916 0.6361 0.0730
C11_7 C 0.31210(8) 0.62548(8) 0.00069(9)
C15_7 C 0.32366(10) 0.50245(9) 0.03791(10)
C16_8 C 0.33095(9) 0.47505(9) 0.08546(10)
O4_8 O 0.34102(7) 0.49511(7) 0.12445(7)
C17_7 C 0.31451(9) 0.54863(8) 0.04187(9)
H8_7 H 0.3076 0.5615 0.0731
C18_7 C 0.29520(9) 0.72659(9) 0.08762(9)
C19_7 C 0.27373(10) 0.76870(10) 0.08034(11)
H9_7 H 0.2664 0.7777 0.0476
C20_7 C 0.26311(12) 0.79717(13) 0.12030(13)
H10_5 H 0.2492 0.8251 0.1145
C21_7 C 0.27348(13) 0.78340(14) 0.16890(13)
H11_7 H 0.2661 0.8019 0.1963
C22_7 C 0.29480(13) 0.74237(14) 0.17690(11)
H12_7 H 0.3014 0.7336 0.2099
C23_7 C 0.30700(11) 0.71330(11) 0.13682(10)
C24_7 C 0.33376(14) 0.67135(12) 0.14888(12)
H13_7 H 0.3136 0.6458 0.1509
H14_7 H 0.3490 0.6752 0.1807
H15_7 H 0.3558 0.6662 0.1227
N1_8 N 0.34199(8) 0.67567(7) 0.86757(8)
C1_8 C 0.35224(11) 0.68819(10) 0.82014(10)
H1_8 H 0.3569 0.6658 0.7959
C2_8 C 0.35621(12) 0.73325(10) 0.80598(10)
H2_8 H 0.3636 0.7409 0.7728
C3_8 C 0.34904(10) 0.76679(10) 0.84154(10)
C4_8 C 0.35290(11) 0.81647(10) 0.82790(11)
O1_8 O 0.36283(12) 0.82721(8) 0.78438(9)
O2_8 O 0.34470(6) 0.84379(6) 0.86412(7)
C5_8 C 0.33868(9) 0.75384(9) 0.89096(9)
H3_8 H 0.3340 0.7757 0.9158
C6_8 C 0.33545(9) 0.70840(9) 0.90256(9)
C7_8 C 0.32405(8) 0.69114(9) 0.95400(9)
C8_8 C 0.31622(8) 0.71815(9) 0.99617(9)
H4_8 H 0.3188 0.7496 0.9938
N2_8 N 0.32246(6) 0.64579(7) 0.95696(7)
C12_8 C 0.31576(8) 0.57486(8) 0.99914(9)
N3_8 N 0.32543(8) 0.55739(7) 0.95319(8)
C13_8 C 0.33141(12) 0.51252(10) 0.94902(10)
H6_8 H 0.3363 0.5002 0.9171
C14_7 C 0.33066(12) 0.48376(10) 0.99043(11)
H7_7 H 0.3348 0.4526 0.9865
Zn3_8 Zn 0.35623(2) 0.90905(2) 0.85389(2)
O5_8 O 0.40621(6) 0.59470(6) 0.88588(7)
C3_9 C 0.01679(10) 0.40096(10) 0.40846(10)
C4_9 C 0.06647(10) 0.39710(11) 0.42210(11)
O1_9 O 0.07721(8) 0.38717(12) 0.46562(9)
C5_9 C 0.00384(9) 0.41132(9) 0.35904(9)
H3_9 H 0.0257 0.4160 0.3342
C19_8 C 0.01870(10) 0.47627(10) 0.16966(11)
H9_8 H 0.0277 0.4836 0.2024
C20_8 C 0.04717(13) 0.48689(12) 0.12970(13)
H10_6 H 0.0751 0.5008 0.1355
C21_8 C 0.03340(14) 0.47652(13) 0.08110(13)
H11_8 H 0.0519 0.4839 0.0537
N1_9 N 0.92567(7) 0.40801(8) 0.38243(8)
C1_9 C 0.93819(10) 0.39776(11) 0.42986(10)
H1_9 H 0.9158 0.3931 0.4541
C2_9 C 0.98325(10) 0.39379(12) 0.44402(10)
H2_9 H 0.9909 0.3864 0.4772
C6_9 C 0.95840(9) 0.41455(9) 0.34744(9)
C7_9 C 0.94114(9) 0.42595(8) 0.29600(9)
C8_9 C 0.96815(9) 0.43378(8) 0.25383(9)
H4_9 H 0.9996 0.4312 0.2562
C9_8 C 0.94799(8) 0.44556(8) 0.20794(8)
C10_8 C 0.90064(9) 0.44888(8) 0.20645(9)
H5_8 H 0.8861 0.4584 0.1770
C11_8 C 0.87548(8) 0.43790(8) 0.24931(9)
N2_9 N 0.89579(7) 0.42754(6) 0.29304(7)
C12_9 C 0.82486(8) 0.43424(8) 0.25086(9)
N3_9 N 0.80739(7) 0.42457(8) 0.29681(8)
C13_9 C 0.76252(10) 0.41859(12) 0.30098(10)
H6_9 H 0.7502 0.4137 0.3329
C14_8 C 0.73376(10) 0.41934(12) 0.25957(11)
H7_8 H 0.7026 0.4152 0.2635
C15_8 C 0.75245(9) 0.42634(10) 0.21209(10)
C16_9 C 0.72505(9) 0.41905(9) 0.16454(10)
O3_5 O 0.68186(6) 0.42094(7) 0.16872(7)
O4_9 O 0.74511(7) 0.40898(7) 0.12555(7)
C17_8 C 0.79863(8) 0.43549(9) 0.20813(9)
H8_8 H 0.8115 0.4424 0.1769
C18_8 C 0.97659(9) 0.45480(9) 0.16238(9)
C22_8 C 0.99237(14) 0.45520(13) 0.07310(11)
H12_8 H 0.9836 0.4486 0.0401
C23_8 C 0.96330(11) 0.44300(11) 0.11318(10)
C24_8 C 0.92135(12) 0.41624(14) 0.10112(12)
H13_8 H 0.8958 0.4364 0.0991
H14_8 H 0.9252 0.4010 0.0693
H15_8 H 0.9162 0.3942 0.1273
O6_5 O 0.82906(7) 0.43186(6) 0.41872(7)
N1_10 N 0.57433(7) 0.59199(8) 0.88243(8)
C1_10 C 0.56181(10) 0.60224(11) 0.92986(10)
H1_10 H 0.5842 0.6069 0.9541
C2_10 C 0.51675(10) 0.60621(12) 0.94402(10)
H2_10 H 0.5091 0.6136 0.9772
C3_10 C 0.48321(10) 0.59904(10) 0.90846(10)
C4_10 C 0.43353(10) 0.60290(11) 0.92210(11)
O1_10 O 0.42279(8) 0.61283(12) 0.96562(9)
C5_10 C 0.49616(9) 0.58868(9) 0.85904(9)
H3_10 H 0.4743 0.5840 0.8342
C6_10 C 0.54160(9) 0.58545(9) 0.84744(9)
C7_10 C 0.55886(9) 0.57405(8) 0.79600(9)
C8_10 C 0.53185(9) 0.56622(8) 0.75383(9)
H4_10 H 0.5004 0.5688 0.7562
C9_9 C 0.55201(8) 0.55444(8) 0.70794(8)
C10_9 C 0.59936(9) 0.55112(8) 0.70645(9)
H5_9 H 0.6139 0.5416 0.6770
C11_9 C 0.62452(8) 0.56210(8) 0.74931(9)
N2_10 N 0.60421(7) 0.57246(6) 0.79304(7)
C12_10 C 0.67514(8) 0.56576(8) 0.75086(9)
N3_10 N 0.69261(7) 0.57543(8) 0.79681(8)
C13_10 C 0.73748(10) 0.58141(12) 0.80098(10)
H6_10 H 0.7498 0.5863 0.8329
C14_9 C 0.76624(10) 0.58066(12) 0.75957(11)
H7_9 H 0.7974 0.5848 0.7635
C15_9 C 0.74755(9) 0.57366(10) 0.71209(10)
C16_10 C 0.77495(9) 0.58095(9) 0.66454(10)
O3_6 O 0.81814(6) 0.57906(7) 0.66872(7)
O4_10 O 0.75489(7) 0.59102(7) 0.62555(7)
C17_9 C 0.70137(8) 0.56451(9) 0.70813(9)
H8_9 H 0.6885 0.5576 0.6769
C18_9 C 0.52341(9) 0.54520(9) 0.66238(9)
C19_9 C 0.48130(10) 0.52373(10) 0.66966(11)
H9_9 H 0.4723 0.5164 0.7024
C20_9 C 0.45283(13) 0.51311(12) 0.62970(13)
H10_7 H 0.4249 0.4992 0.6355
C21_9 C 0.46660(14) 0.52348(13) 0.58110(13)
H11_9 H 0.4481 0.5161 0.5537
C22_9 C 0.50763(14) 0.54480(13) 0.57310(11)
H12_9 H 0.5164 0.5514 0.5401
C23_9 C 0.53670(11) 0.55700(11) 0.61318(10)
C24_9 C 0.57865(12) 0.58376(14) 0.60112(12)
H13_9 H 0.6042 0.5636 0.5991
H14_9 H 0.5748 0.5990 0.5693
H15_9 H 0.5838 0.6058 0.6273
O6_6 O 0.67094(7) 0.56814(6) 0.91872(7)
N1_11 N 0.34199(8) 0.17567(7) 0.13243(8)
C1_11 C 0.35224(11) 0.18819(10) 0.17986(10)
H1_11 H 0.3569 0.1658 0.2041
C2_11 C 0.35621(12) 0.23325(10) 0.19402(10)
H2_11 H 0.3636 0.2409 0.2272
C3_11 C 0.34904(10) 0.26679(10) 0.15846(10)
C4_11 C 0.35290(11) 0.31647(10) 0.17210(11)
O1_11 O 0.36283(12) 0.32721(8) 0.21562(9)
C5_11 C 0.33868(9) 0.25384(9) 0.10904(9)
H3_11 H 0.3340 0.2757 0.0842
C6_11 C 0.33545(9) 0.20840(9) 0.09744(9)
C7_11 C 0.32405(8) 0.19114(9) 0.04600(9)
C8_11 C 0.31622(8) 0.21815(9) 0.00383(9)
H4_11 H 0.3188 0.2496 0.0062
N2_11 N 0.32246(6) 0.14579(7) 0.04304(7)
C12_11 C 0.31576(8) 0.07486(8) 0.00086(9)
N3_11 N 0.32543(8) 0.05739(7) 0.04681(8)
C13_11 C 0.33141(12) 0.01252(10) 0.05098(10)
H6_11 H 0.3363 0.0002 0.0829
O6_7 O 0.31814(6) 0.07906(7) 0.16872(7)
C16_11 C 0.33095(9) 0.97505(9) 0.91454(10)
O3_7 O 0.32906(7) 0.93186(6) 0.91872(7)
O4_11 O 0.34102(7) 0.99511(7) 0.87555(7)
C14_10 C 0.16934(12) 0.01624(10) 0.50957(11)
H7_10 H 0.1652 0.0474 0.5135
C16_12 C 0.16905(9) 0.02495(9) 0.41454(10)
O3_8 O 0.17094(7) 0.06814(6) 0.41872(7)
O4_12 O 0.15898(7) 0.00489(7) 0.37555(7)
N1_12 N 0.15801(8) 0.82433(7) 0.63243(8)
C1_12 C 0.14776(11) 0.81181(10) 0.67986(10)
H1_12 H 0.1431 0.8342 0.7041
C2_12 C 0.14379(12) 0.76675(10) 0.69402(10)
H2_12 H 0.1364 0.7591 0.7272
C3_12 C 0.15096(10) 0.73321(10) 0.65846(10)
C4_12 C 0.14710(11) 0.68353(10) 0.67210(11)
O1_12 O 0.13717(12) 0.67279(8) 0.71562(9)
C5_12 C 0.16132(9) 0.74616(9) 0.60904(9)
H3_12 H 0.1660 0.7243 0.5842
C6_12 C 0.16455(9) 0.79160(9) 0.59744(9)
C7_12 C 0.17595(8) 0.80886(9) 0.54600(9)
C8_12 C 0.18378(8) 0.78185(9) 0.50383(9)
H4_12 H 0.1812 0.7504 0.5062
C9_10 C 0.19556(8) 0.80201(8) 0.45794(8)
C10_10 C 0.19888(8) 0.84936(9) 0.45645(9)
H5_10 H 0.2084 0.8639 0.4270
C11_10 C 0.18790(8) 0.87452(8) 0.49931(9)
N2_12 N 0.17754(6) 0.85421(7) 0.54304(7)
C12_12 C 0.18424(8) 0.92514(8) 0.50086(9)
N3_12 N 0.17457(8) 0.94261(7) 0.54681(8)
C13_12 C 0.16859(12) 0.98748(10) 0.55098(10)
H6_12 H 0.1637 0.9998 0.5829
C15_10 C 0.17634(10) 0.99755(9) 0.46209(10)
C17_10 C 0.18549(9) 0.95137(8) 0.45813(9)
H8_10 H 0.1924 0.9385 0.4269
C18_10 C 0.20480(9) 0.77341(9) 0.41238(9)
C19_10 C 0.22627(10) 0.73130(10) 0.41966(11)
H9_10 H 0.2336 0.7223 0.4524
C20_10 C 0.23689(12) 0.70283(13) 0.37970(13)
H10_8 H 0.2508 0.6749 0.3855
C21_10 C 0.22652(13) 0.71660(14) 0.33110(13)
H11_10 H 0.2339 0.6981 0.3037
C22_10 C 0.20520(13) 0.75763(14) 0.32310(11)
H12_10 H 0.1986 0.7664 0.2901
C23_10 C 0.19300(11) 0.78670(11) 0.36318(10)
C24_10 C 0.16624(14) 0.82865(12) 0.35112(12)
H13_10 H 0.1864 0.8542 0.3491
H14_10 H 0.1510 0.8248 0.3193
H15_10 H 0.1442 0.8338 0.3773
O6_8 O 0.18186(6) 0.92094(7) 0.66872(7)
N1_13 N 0.42567(7) 0.90801(8) 0.88243(8)
C1_13 C 0.43819(10) 0.89776(11) 0.92986(10)
H1_13 H 0.4158 0.8931 0.9541
C2_13 C 0.48325(10) 0.89379(12) 0.94402(10)
H2_13 H 0.4909 0.8864 0.9772
C3_13 C 0.51679(10) 0.90096(10) 0.90846(10)
C4_13 C 0.56647(10) 0.89710(11) 0.92210(11)
O1_13 O 0.57721(8) 0.88717(12) 0.96562(9)
C5_13 C 0.50384(9) 0.91132(9) 0.85904(9)
H3_13 H 0.5257 0.9160 0.8342
C6_13 C 0.45840(9) 0.91455(9) 0.84744(9)
C7_13 C 0.44114(9) 0.92595(8) 0.79600(9)
C8_13 C 0.46815(9) 0.93378(8) 0.75383(9)
H4_13 H 0.4996 0.9312 0.7562
C9_11 C 0.44799(8) 0.94556(8) 0.70794(8)
C10_11 C 0.40064(9) 0.94888(8) 0.70645(9)
H5_11 H 0.3861 0.9584 0.6770
C11_11 C 0.37548(8) 0.93790(8) 0.74931(9)
N2_13 N 0.39579(7) 0.92754(6) 0.79304(7)
C12_13 C 0.32486(8) 0.93424(8) 0.75086(9)
N3_13 N 0.30739(7) 0.92457(8) 0.79681(8)
C13_13 C 0.26252(10) 0.91859(12) 0.80098(10)
H6_13 H 0.2502 0.9137 0.8329
C14_11 C 0.23376(10) 0.91934(12) 0.75957(11)
H7_11 H 0.2026 0.9152 0.7635
C15_11 C 0.25245(9) 0.92634(10) 0.71209(10)
C16_13 C 0.22505(9) 0.91905(9) 0.66454(10)
O4_13 O 0.24511(7) 0.90898(7) 0.62555(7)
C17_11 C 0.29863(8) 0.93549(9) 0.70813(9)
H8_11 H 0.3115 0.9424 0.6769
C18_11 C 0.47659(9) 0.95480(9) 0.66238(9)
C19_11 C 0.51870(10) 0.97627(10) 0.66966(11)
H9_11 H 0.5277 0.9836 0.7024
C20_11 C 0.54717(13) 0.98689(12) 0.62970(13)
C21_11 C 0.53340(14) 0.97652(13) 0.58110(13)
H11_11 H 0.5519 0.9839 0.5537
C22_11 C 0.49237(14) 0.95520(13) 0.57310(11)
H12_11 H 0.4836 0.9486 0.5401
C23_11 C 0.46330(11) 0.94300(11) 0.61318(10)
C24_11 C 0.42135(12) 0.91624(14) 0.60112(12)
H13_11 H 0.3958 0.9364 0.5991
H14_11 H 0.4252 0.9010 0.5693
H15_11 H 0.4162 0.8942 0.6273
N1_14 N 0.07433(7) 0.09199(8) 0.38243(8)
C1_14 C 0.06181(10) 0.10224(11) 0.42986(10)
H1_14 H 0.0842 0.1069 0.4541
C2_14 C 0.01675(10) 0.10621(12) 0.44402(10)
H2_14 H 0.0091 0.1136 0.4772
C6_14 C 0.04160(9) 0.08545(9) 0.34744(9)
C7_14 C 0.05886(9) 0.07405(8) 0.29600(9)
C8_14 C 0.03185(9) 0.06622(8) 0.25383(9)
H4_14 H 0.0004 0.0688 0.2562
C9_12 C 0.05201(8) 0.05444(8) 0.20794(8)
C10_12 C 0.09936(9) 0.05112(8) 0.20645(9)
H5_12 H 0.1139 0.0416 0.1770
C11_12 C 0.12452(8) 0.06210(8) 0.24931(9)
N2_14 N 0.10421(7) 0.07246(6) 0.29304(7)
C12_14 C 0.17514(8) 0.06576(8) 0.25086(9)
N3_14 N 0.19261(7) 0.07543(8) 0.29681(8)
C13_14 C 0.23748(10) 0.08141(12) 0.30098(10)
H6_14 H 0.2498 0.0863 0.3329
C14_12 C 0.26624(10) 0.08066(12) 0.25957(11)
H7_12 H 0.2974 0.0848 0.2635
C15_12 C 0.24755(9) 0.07366(10) 0.21209(10)
C16_14 C 0.27495(9) 0.08095(9) 0.16454(10)
O4_14 O 0.25489(7) 0.09102(7) 0.12555(7)
C17_12 C 0.20137(8) 0.06451(9) 0.20813(9)
H8_12 H 0.1885 0.0576 0.1769
C18_12 C 0.02341(9) 0.04520(9) 0.16238(9)
C22_12 C 0.00763(14) 0.04480(13) 0.07310(11)
H12_12 H 0.0164 0.0514 0.0401
C23_12 C 0.03670(11) 0.05700(11) 0.11318(10)
C24_12 C 0.07865(12) 0.08376(14) 0.10112(12)
H13_12 H 0.1042 0.0636 0.0991
H14_12 H 0.0748 0.0990 0.0693
H15_12 H 0.0838 0.1058 0.1273
C3_14 C 0.98321(10) 0.09904(10) 0.40846(10)
C4_14 C 0.93353(10) 0.10290(11) 0.42210(11)
O1_14 O 0.92279(8) 0.11283(12) 0.46562(9)
C5_14 C 0.99616(9) 0.08868(9) 0.35904(9)
H3_14 H 0.9743 0.0840 0.3342
C19_12 C 0.98130(10) 0.02373(10) 0.16966(11)
H9_12 H 0.9723 0.0164 0.2024
C20_12 C 0.95283(13) 0.01311(12) 0.12970(13)
C21_12 C 0.96660(14) 0.02348(13) 0.08110(13)
H11_12 H 0.9481 0.0161 0.0537
N1_15 N 0.84199(8) 0.67567(7) 0.63243(8)
C1_15 C 0.85224(11) 0.68819(10) 0.67986(10)
H1_15 H 0.8569 0.6658 0.7041
C2_15 C 0.85621(12) 0.73325(10) 0.69402(10)
H2_15 H 0.8636 0.7409 0.7272
C3_15 C 0.84904(10) 0.76679(10) 0.65846(10)
C4_15 C 0.85290(11) 0.81647(10) 0.67210(11)
O1_15 O 0.86283(12) 0.82721(8) 0.71562(9)
C5_15 C 0.83868(9) 0.75384(9) 0.60904(9)
H3_15 H 0.8340 0.7757 0.5842
C6_15 C 0.83545(9) 0.70840(9) 0.59744(9)
C7_15 C 0.82405(8) 0.69114(9) 0.54600(9)
C8_15 C 0.81622(8) 0.71815(9) 0.50383(9)
H4_15 H 0.8188 0.7496 0.5062
C9_13 C 0.80444(8) 0.69799(8) 0.45794(8)
C10_13 C 0.80112(8) 0.65064(9) 0.45645(9)
H5_13 H 0.7916 0.6361 0.4270
C11_13 C 0.81210(8) 0.62548(8) 0.49931(9)
N2_15 N 0.82246(6) 0.64579(7) 0.54304(7)
C12_15 C 0.81576(8) 0.57486(8) 0.50086(9)
N3_15 N 0.82543(8) 0.55739(7) 0.54681(8)
C13_15 C 0.83141(12) 0.51252(10) 0.55098(10)
H6_15 H 0.8363 0.5002 0.5829
C14_13 C 0.83066(12) 0.48376(10) 0.50957(11)
H7_13 H 0.8348 0.4526 0.5135
C15_13 C 0.82366(10) 0.50245(9) 0.46209(10)
C16_15 C 0.83095(9) 0.47505(9) 0.41454(10)
O4_15 O 0.84102(7) 0.49511(7) 0.37555(7)
C17_13 C 0.81451(9) 0.54863(8) 0.45813(9)
H8_13 H 0.8076 0.5615 0.4269
C18_13 C 0.79520(9) 0.72659(9) 0.41238(9)
C19_13 C 0.77373(10) 0.76870(10) 0.41966(11)
H9_13 H 0.7664 0.7777 0.4524
C20_13 C 0.76311(12) 0.79717(13) 0.37970(13)
H10_9 H 0.7492 0.8251 0.3855
C21_13 C 0.77348(13) 0.78340(14) 0.33110(13)
H11_13 H 0.7661 0.8019 0.3037
C22_13 C 0.79480(13) 0.74237(14) 0.32310(11)
H12_13 H 0.8014 0.7336 0.2901
C23_13 C 0.80700(11) 0.71330(11) 0.36318(10)
C24_13 C 0.83376(14) 0.67135(12) 0.35112(12)
H13_13 H 0.8136 0.6458 0.3491
H14_13 H 0.8490 0.6752 0.3193
H15_13 H 0.8558 0.6662 0.3773
N1_16 N 0.65801(8) 0.32433(7) 0.13243(8)
C1_16 C 0.64776(11) 0.31181(10) 0.17986(10)
H1_16 H 0.6431 0.3342 0.2041
C2_16 C 0.64379(12) 0.26675(10) 0.19402(10)
H2_16 H 0.6364 0.2591 0.2272
C3_16 C 0.65096(10) 0.23321(10) 0.15846(10)
C4_16 C 0.64710(11) 0.18353(10) 0.17210(11)
O1_16 O 0.63717(12) 0.17279(8) 0.21562(9)
C5_16 C 0.66132(9) 0.24616(9) 0.10904(9)
H3_16 H 0.6660 0.2243 0.0842
C6_16 C 0.66455(9) 0.29160(9) 0.09744(9)
C7_16 C 0.67595(8) 0.30886(9) 0.04600(9)
C8_16 C 0.68378(8) 0.28185(9) 0.00383(9)
H4_16 H 0.6812 0.2504 0.0062
N2_16 N 0.67754(6) 0.35421(7) 0.04304(7)
C12_16 C 0.68424(8) 0.42514(8) 0.00086(9)
N3_16 N 0.67457(8) 0.44261(7) 0.04681(8)
C13_16 C 0.66859(12) 0.48748(10) 0.05098(10)
H6_16 H 0.6637 0.4998 0.0829
C14_14 C 0.66934(12) 0.51624(10) 0.00957(11)
H7_14 H 0.6652 0.5474 0.0135
C9_14 C 0.69556(8) 0.30201(8) 0.95794(8)
C10_14 C 0.69888(8) 0.34936(9) 0.95645(9)
H5_14 H 0.7084 0.3639 0.9270
C11_14 C 0.68790(8) 0.37452(8) 0.99931(9)
C15_14 C 0.67634(10) 0.49755(9) 0.96209(10)
C16_16 C 0.66905(9) 0.52495(9) 0.91454(10)
O4_16 O 0.65898(7) 0.50489(7) 0.87555(7)
C17_14 C 0.68549(9) 0.45137(8) 0.95813(9)
H8_14 H 0.6924 0.4385 0.9269
C18_14 C 0.70480(9) 0.27341(9) 0.91238(9)
C19_14 C 0.72627(10) 0.23130(10) 0.91966(11)
H9_14 H 0.7336 0.2223 0.9524
C20_14 C 0.73689(12) 0.20283(13) 0.87970(13)
H10_10 H 0.7508 0.1749 0.8855
C21_14 C 0.72652(13) 0.21660(14) 0.83110(13)
H11_14 H 0.7339 0.1981 0.8037
C22_14 C 0.70520(13) 0.25763(14) 0.82310(11)
H12_14 H 0.6986 0.2664 0.7901
C23_14 C 0.69300(11) 0.28670(11) 0.86318(10)
C24_14 C 0.66624(14) 0.32865(12) 0.85112(12)
H13_14 H 0.6864 0.3542 0.8491
H14_14 H 0.6510 0.3248 0.8193
H15_14 H 0.6442 0.3338 0.8773
C14_15 C 0.66934(12) 0.01624(10) 0.99043(11)
H7_15 H 0.6652 0.0474 0.9865
C9_15 C 0.69556(8) 0.80201(8) 0.04206(8)
C10_15 C 0.69888(8) 0.84936(9) 0.04355(9)
H5_15 H 0.7084 0.8639 0.0730
C11_15 C 0.68790(8) 0.87452(8) 0.00069(9)
C15_15 C 0.67634(10) 0.99755(9) 0.03791(10)
C17_15 C 0.68549(9) 0.95137(8) 0.04187(9)
H8_15 H 0.6924 0.9385 0.0731
C18_15 C 0.70480(9) 0.77341(9) 0.08762(9)
C19_15 C 0.72627(10) 0.73130(10) 0.08034(11)
H9_15 H 0.7336 0.7223 0.0476
C20_15 C 0.73689(12) 0.70283(13) 0.12030(13)
H10_11 H 0.7508 0.6749 0.1145
C21_15 C 0.72652(13) 0.71660(14) 0.16890(13)
H11_15 H 0.7339 0.6981 0.1963
C22_15 C 0.70520(13) 0.75763(14) 0.17690(11)
H12_15 H 0.6986 0.7664 0.2099
C23_15 C 0.69300(11) 0.78670(11) 0.13682(10)
C24_15 C 0.66624(14) 0.82865(12) 0.14888(12)
H13_15 H 0.6864 0.8542 0.1509
H14_15 H 0.6510 0.8248 0.1807
H15_15 H 0.6442 0.8338 0.1227
Zn1_5 Zn 0.35623(2) 0.59095(2) 0.35389(2)
N1_17 N 0.42567(7) 0.59199(8) 0.38243(8)
C1_17 C 0.43819(10) 0.60224(11) 0.42986(10)
H1_17 H 0.4158 0.6069 0.4541
C2_17 C 0.48325(10) 0.60621(12) 0.44402(10)
H2_17 H 0.4909 0.6136 0.4772
C3_17 C 0.51679(10) 0.59904(10) 0.40846(10)
C4_17 C 0.56647(10) 0.60290(11) 0.42210(11)
O1_17 O 0.57721(8) 0.61283(12) 0.46562(9)
O2_9 O 0.59379(6) 0.59470(6) 0.38588(7)
C5_17 C 0.50384(9) 0.58868(9) 0.35904(9)
H3_17 H 0.5257 0.5840 0.3342
C6_17 C 0.45840(9) 0.58545(9) 0.34744(9)
C7_17 C 0.44114(9) 0.57405(8) 0.29600(9)
C8_17 C 0.46815(9) 0.56622(8) 0.25383(9)
H4_17 H 0.4996 0.5688 0.2562
C9_16 C 0.44799(8) 0.55444(8) 0.20794(8)
C10_16 C 0.40064(9) 0.55112(8) 0.20645(9)
H5_16 H 0.3861 0.5416 0.1770
C11_16 C 0.37548(8) 0.56210(8) 0.24931(9)
N2_17 N 0.39579(7) 0.57246(6) 0.29304(7)
C12_17 C 0.32486(8) 0.56576(8) 0.25086(9)
N3_17 N 0.30739(7) 0.57543(8) 0.29681(8)
C13_17 C 0.26252(10) 0.58141(12) 0.30098(10)
H6_17 H 0.2502 0.5863 0.3329
C14_16 C 0.23376(10) 0.58066(12) 0.25957(11)
H7_16 H 0.2026 0.5848 0.2635
C15_16 C 0.25245(9) 0.57366(10) 0.21209(10)
C16_17 C 0.22505(9) 0.58095(9) 0.16454(10)
O3_9 O 0.18186(6) 0.57906(7) 0.16872(7)
O4_17 O 0.24511(7) 0.59102(7) 0.12555(7)
C17_16 C 0.29863(8) 0.56451(9) 0.20813(9)
H8_16 H 0.3115 0.5576 0.1769
C18_16 C 0.47659(9) 0.54520(9) 0.16238(9)
C19_16 C 0.51870(10) 0.52373(10) 0.16966(11)
H9_16 H 0.5277 0.5164 0.2024
C20_16 C 0.54717(13) 0.51311(12) 0.12970(13)
H10_12 H 0.5751 0.4992 0.1355
C21_16 C 0.53340(14) 0.52348(13) 0.08110(13)
H11_16 H 0.5519 0.5161 0.0537
C22_16 C 0.49237(14) 0.54480(13) 0.07310(11)
H12_16 H 0.4836 0.5514 0.0401
C23_16 C 0.46330(11) 0.55700(11) 0.11318(10)
C24_16 C 0.42135(12) 0.58376(14) 0.10112(12)
H13_16 H 0.3958 0.5636 0.0991
H14_16 H 0.4252 0.5990 0.0693
H15_16 H 0.4162 0.6058 0.1273
Zn2_5 Zn 0.15905(2) 0.60623(2) 0.10389(2)
Zn3_9 Zn 0.65905(2) 0.60623(2) 0.39611(2)
O5_9 O 0.34470(6) 0.65621(6) 0.36412(7)
O6_9 O 0.32906(7) 0.56814(6) 0.41872(7)
Zn1_6 Zn 0.14377(2) 0.40905(2) 0.85389(2)
N1_18 N 0.07433(7) 0.40801(8) 0.88243(8)
C1_18 C 0.06181(10) 0.39776(11) 0.92986(10)
H1_18 H 0.0842 0.3931 0.9541
C2_18 C 0.01675(10) 0.39379(12) 0.94402(10)
H2_18 H 0.0091 0.3864 0.9772
C6_18 C 0.04160(9) 0.41455(9) 0.84744(9)
C7_18 C 0.05886(9) 0.42595(8) 0.79600(9)
C8_18 C 0.03185(9) 0.43378(8) 0.75383(9)
H4_18 H 0.0004 0.4312 0.7562
C9_17 C 0.05201(8) 0.44556(8) 0.70794(8)
C10_17 C 0.09936(9) 0.44888(8) 0.70645(9)
H5_17 H 0.1139 0.4584 0.6770
C11_17 C 0.12452(8) 0.43790(8) 0.74931(9)
N2_18 N 0.10421(7) 0.42754(6) 0.79304(7)
C12_18 C 0.17514(8) 0.43424(8) 0.75086(9)
N3_18 N 0.19261(7) 0.42457(8) 0.79681(8)
C13_18 C 0.23748(10) 0.41859(12) 0.80098(10)
H6_18 H 0.2498 0.4137 0.8329
C14_17 C 0.26624(10) 0.41934(12) 0.75957(11)
H7_17 H 0.2974 0.4152 0.7635
C15_17 C 0.24755(9) 0.42634(10) 0.71209(10)
C16_18 C 0.27495(9) 0.41905(9) 0.66454(10)
O3_10 O 0.31814(6) 0.42094(7) 0.66872(7)
O4_18 O 0.25489(7) 0.40898(7) 0.62555(7)
C17_17 C 0.20137(8) 0.43549(9) 0.70813(9)
H8_17 H 0.1885 0.4424 0.6769
C18_17 C 0.02341(9) 0.45480(9) 0.66238(9)
C22_17 C 0.00763(14) 0.45520(13) 0.57310(11)
H12_17 H 0.0164 0.4486 0.5401
C23_17 C 0.03670(11) 0.44300(11) 0.61318(10)
C24_17 C 0.07865(12) 0.41624(14) 0.60112(12)
H13_17 H 0.1042 0.4364 0.5991
H14_17 H 0.0748 0.4010 0.5693
H15_17 H 0.0838 0.3942 0.6273
Zn2_6 Zn 0.34095(2) 0.39377(2) 0.60389(2)
O5_10 O 0.15530(6) 0.34379(6) 0.86412(7)
O6_10 O 0.17094(7) 0.43186(6) 0.91872(7)
C3_18 C 0.98321(10) 0.40096(10) 0.90846(10)
C4_18 C 0.93353(10) 0.39710(11) 0.92210(11)
O1_18 O 0.92279(8) 0.38717(12) 0.96562(9)
O2_10 O 0.90621(6) 0.40530(6) 0.88588(7)
C5_18 C 0.99616(9) 0.41132(9) 0.85904(9)
H3_18 H 0.9743 0.4160 0.8342
C19_17 C 0.98130(10) 0.47627(10) 0.66966(11)
H9_17 H 0.9723 0.4836 0.7024
C20_17 C 0.95283(13) 0.48689(12) 0.62970(13)
H10_13 H 0.9249 0.5008 0.6355
C21_17 C 0.96660(14) 0.47652(13) 0.58110(13)
H11_17 H 0.9481 0.4839 0.5537
Zn3_10 Zn 0.84095(2) 0.39377(2) 0.89611(2)
C16_19 C 0.83095(9) 0.02495(9) 0.91454(10)
O3_11 O 0.82906(7) 0.06814(6) 0.91872(7)
O4_19 O 0.84102(7) 0.00489(7) 0.87555(7)
Zn2_7 Zn 0.85623(2) 0.09095(2) 0.85389(2)
Zn1_7 Zn 0.84095(2) 0.89377(2) 0.10389(2)
N1_19 N 0.84199(8) 0.82433(7) 0.13243(8)
C1_19 C 0.85224(11) 0.81181(10) 0.17986(10)
H1_19 H 0.8569 0.8342 0.2041
C2_19 C 0.85621(12) 0.76675(10) 0.19402(10)
H2_19 H 0.8636 0.7591 0.2272
C3_19 C 0.84904(10) 0.73321(10) 0.15846(10)
C4_19 C 0.85290(11) 0.68353(10) 0.17210(11)
O1_19 O 0.86283(12) 0.67279(8) 0.21562(9)
O2_11 O 0.84470(6) 0.65621(6) 0.13588(7)
C5_19 C 0.83868(9) 0.74616(9) 0.10904(9)
H3_19 H 0.8340 0.7243 0.0842
C6_19 C 0.83545(9) 0.79160(9) 0.09744(9)
C7_19 C 0.82405(8) 0.80886(9) 0.04600(9)
C8_19 C 0.81622(8) 0.78185(9) 0.00383(9)
H4_19 H 0.8188 0.7504 0.0062
N2_19 N 0.82246(6) 0.85421(7) 0.04304(7)
C12_19 C 0.81576(8) 0.92514(8) 0.00086(9)
N3_19 N 0.82543(8) 0.94261(7) 0.04681(8)
C13_19 C 0.83141(12) 0.98748(10) 0.05098(10)
H6_19 H 0.8363 0.9998 0.0829
Zn3_11 Zn 0.85623(2) 0.59095(2) 0.14611(2)
O5_11 O 0.90621(6) 0.90530(6) 0.11412(7)
O6_11 O 0.81814(6) 0.92094(7) 0.16872(7)
Zn1_8 Zn 0.65905(2) 0.10623(2) 0.60389(2)
N1_20 N 0.65801(8) 0.17567(7) 0.63243(8)
C1_20 C 0.64776(11) 0.18819(10) 0.67986(10)
H1_20 H 0.6431 0.1658 0.7041
C2_20 C 0.64379(12) 0.23325(10) 0.69402(10)
H2_20 H 0.6364 0.2409 0.7272
C3_20 C 0.65096(10) 0.26679(10) 0.65846(10)
C4_20 C 0.64710(11) 0.31647(10) 0.67210(11)
O1_20 O 0.63717(12) 0.32721(8) 0.71562(9)
O2_12 O 0.65530(6) 0.34379(6) 0.63588(7)
C5_20 C 0.66132(9) 0.25384(9) 0.60904(9)
H3_20 H 0.6660 0.2757 0.5842
C6_20 C 0.66455(9) 0.20840(9) 0.59744(9)
C7_20 C 0.67595(8) 0.19114(9) 0.54600(9)
C8_20 C 0.68378(8) 0.21815(9) 0.50383(9)
H4_20 H 0.6812 0.2496 0.5062
C9_18 C 0.69556(8) 0.19799(8) 0.45794(8)
C10_18 C 0.69888(8) 0.15064(9) 0.45645(9)
H5_18 H 0.7084 0.1361 0.4270
C11_18 C 0.68790(8) 0.12548(8) 0.49931(9)
N2_20 N 0.67754(6) 0.14579(7) 0.54304(7)
C12_20 C 0.68424(8) 0.07486(8) 0.50086(9)
N3_20 N 0.67457(8) 0.05739(7) 0.54681(8)
C13_20 C 0.66859(12) 0.01252(10) 0.55098(10)
H6_20 H 0.6637 0.0002 0.5829
C15_18 C 0.67634(10) 0.00245(9) 0.46209(10)
C17_18 C 0.68549(9) 0.04863(8) 0.45813(9)
H8_18 H 0.6924 0.0615 0.4269
C18_18 C 0.70480(9) 0.22659(9) 0.41238(9)
C19_18 C 0.72627(10) 0.26870(10) 0.41966(11)
H9_18 H 0.7336 0.2777 0.4524
C20_18 C 0.73689(12) 0.29717(13) 0.37970(13)
H10_14 H 0.7508 0.3251 0.3855
C21_18 C 0.72652(13) 0.28340(14) 0.33110(13)
H11_18 H 0.7339 0.3019 0.3037
C22_18 C 0.70520(13) 0.24237(14) 0.32310(11)
H12_18 H 0.6986 0.2336 0.2901
C23_18 C 0.69300(11) 0.21330(11) 0.36318(10)
C24_18 C 0.66624(14) 0.17135(12) 0.35112(12)
H13_18 H 0.6864 0.1458 0.3491
H14_18 H 0.6510 0.1752 0.3193
H15_18 H 0.6442 0.1662 0.3773
Zn3_12 Zn 0.64377(2) 0.40905(2) 0.64611(2)
O5_12 O 0.59379(6) 0.09470(6) 0.61412(7)
O6_12 O 0.68186(6) 0.07906(7) 0.66872(7)
C14_18 C 0.66934(12) 0.98376(10) 0.50957(11)
H7_18 H 0.6652 0.9526 0.5135
C16_20 C 0.66905(9) 0.97505(9) 0.41454(10)
O3_12 O 0.67094(7) 0.93186(6) 0.41872(7)
O4_20 O 0.65898(7) 0.99511(7) 0.37555(7)
Zn2_8 Zn 0.64377(2) 0.90905(2) 0.35389(2)
C3_21 C 0.01679(10) 0.09904(10) 0.90846(10)
C4_21 C 0.06647(10) 0.10290(11) 0.92210(11)
O1_21 O 0.07721(8) 0.11283(12) 0.96562(9)
O2_13 O 0.09379(6) 0.09470(6) 0.88588(7)
C5_21 C 0.00384(9) 0.08868(9) 0.85904(9)
H3_21 H 0.0257 0.0840 0.8342
C19_19 C 0.01870(10) 0.02373(10) 0.66966(11)
H9_19 H 0.0277 0.0164 0.7024
C20_19 C 0.04717(13) 0.01311(12) 0.62970(13)
C21_19 C 0.03340(14) 0.02348(13) 0.58110(13)
H11_19 H 0.0519 0.0161 0.5537
Zn3_13 Zn 0.15905(2) 0.10623(2) 0.89611(2)
N1_21 N 0.92567(7) 0.09199(8) 0.88243(8)
C1_21 C 0.93819(10) 0.10224(11) 0.92986(10)
H1_21 H 0.9158 0.1069 0.9541
C2_21 C 0.98325(10) 0.10621(12) 0.94402(10)
H2_21 H 0.9909 0.1136 0.9772
C6_21 C 0.95840(9) 0.08545(9) 0.84744(9)
C7_21 C 0.94114(9) 0.07405(8) 0.79600(9)
C8_21 C 0.96815(9) 0.06622(8) 0.75383(9)
H4_21 H 0.9996 0.0688 0.7562
C9_19 C 0.94799(8) 0.05444(8) 0.70794(8)
C10_19 C 0.90064(9) 0.05112(8) 0.70645(9)
H5_19 H 0.8861 0.0416 0.6770
C11_19 C 0.87548(8) 0.06210(8) 0.74931(9)
N2_21 N 0.89579(7) 0.07246(6) 0.79304(7)
C12_21 C 0.82486(8) 0.06576(8) 0.75086(9)
N3_21 N 0.80739(7) 0.07543(8) 0.79681(8)
C13_21 C 0.76252(10) 0.08141(12) 0.80098(10)
H6_21 H 0.7502 0.0863 0.8329
C14_19 C 0.73376(10) 0.08066(12) 0.75957(11)
H7_19 H 0.7026 0.0848 0.7635
C15_19 C 0.75245(9) 0.07366(10) 0.71209(10)
C16_21 C 0.72505(9) 0.08095(9) 0.66454(10)
O4_21 O 0.74511(7) 0.09102(7) 0.62555(7)
C17_19 C 0.79863(8) 0.06451(9) 0.70813(9)
H8_19 H 0.8115 0.0576 0.6769
C18_19 C 0.97659(9) 0.04520(9) 0.66238(9)
C22_19 C 0.99237(14) 0.04480(13) 0.57310(11)
H12_19 H 0.9836 0.0514 0.5401
C23_19 C 0.96330(11) 0.05700(11) 0.61318(10)
C24_19 C 0.92135(12) 0.08376(14) 0.60112(12)
H13_19 H 0.8958 0.0636 0.5991
H14_19 H 0.9252 0.0990 0.5693
H15_19 H 0.9162 0.1058 0.6273
O5_13 O 0.84470(6) 0.15621(6) 0.86412(7)
N1_22 N 0.57433(7) 0.90801(8) 0.38243(8)
C1_22 C 0.56181(10) 0.89776(11) 0.42986(10)
H1_22 H 0.5842 0.8931 0.4541
C2_22 C 0.51675(10) 0.89379(12) 0.44402(10)
H2_22 H 0.5091 0.8864 0.4772
C3_22 C 0.48321(10) 0.90096(10) 0.40846(10)
C4_22 C 0.43353(10) 0.89710(11) 0.42210(11)
O1_22 O 0.42279(8) 0.88717(12) 0.46562(9)
O2_14 O 0.40621(6) 0.90530(6) 0.38588(7)
C5_22 C 0.49616(9) 0.91132(9) 0.35904(9)
H3_22 H 0.4743 0.9160 0.3342
C6_22 C 0.54160(9) 0.91455(9) 0.34744(9)
C7_22 C 0.55886(9) 0.92595(8) 0.29600(9)
C8_22 C 0.53185(9) 0.93378(8) 0.25383(9)
H4_22 H 0.5004 0.9312 0.2562
C9_20 C 0.55201(8) 0.94556(8) 0.20794(8)
C10_20 C 0.59936(9) 0.94888(8) 0.20645(9)
H5_20 H 0.6139 0.9584 0.1770
C11_20 C 0.62452(8) 0.93790(8) 0.24931(9)
N2_22 N 0.60421(7) 0.92754(6) 0.29304(7)
C12_22 C 0.67514(8) 0.93424(8) 0.25086(9)
N3_22 N 0.69261(7) 0.92457(8) 0.29681(8)
C13_22 C 0.73748(10) 0.91859(12) 0.30098(10)
H6_22 H 0.7498 0.9137 0.3329
C14_20 C 0.76624(10) 0.91934(12) 0.25957(11)
H7_20 H 0.7974 0.9152 0.2635
C15_20 C 0.74755(9) 0.92634(10) 0.21209(10)
C16_22 C 0.77495(9) 0.91905(9) 0.16454(10)
O4_22 O 0.75489(7) 0.90898(7) 0.12555(7)
C17_20 C 0.70137(8) 0.93549(9) 0.20813(9)
H8_20 H 0.6885 0.9424 0.1769
C18_20 C 0.52341(9) 0.95480(9) 0.16238(9)
C19_20 C 0.48130(10) 0.97627(10) 0.16966(11)
H9_20 H 0.4723 0.9836 0.2024
C20_20 C 0.45283(13) 0.98689(12) 0.12970(13)
C21_20 C 0.46660(14) 0.97652(13) 0.08110(13)
H11_20 H 0.4481 0.9839 0.0537
C22_20 C 0.50763(14) 0.95520(13) 0.07310(11)
H12_20 H 0.5164 0.9486 0.0401
C23_20 C 0.53670(11) 0.94300(11) 0.11318(10)
C24_20 C 0.57865(12) 0.91624(14) 0.10112(12)
H13_20 H 0.6042 0.9364 0.0991
H14_20 H 0.5748 0.9010 0.0693
H15_20 H 0.5838 0.8942 0.1273
Zn3_14 Zn 0.34095(2) 0.89377(2) 0.39611(2)
O5_14 O 0.65530(6) 0.84379(6) 0.36412(7)
N1_23 N 0.34199(8) 0.32433(7) 0.63243(8)
C1_23 C 0.35224(11) 0.31181(10) 0.67986(10)
H1_23 H 0.3569 0.3342 0.7041
C2_23 C 0.35621(12) 0.26675(10) 0.69402(10)
H2_23 H 0.3636 0.2591 0.7272
C3_23 C 0.34904(10) 0.23321(10) 0.65846(10)
C4_23 C 0.35290(11) 0.18353(10) 0.67210(11)
O1_23 O 0.36283(12) 0.17279(8) 0.71562(9)
O2_15 O 0.34470(6) 0.15621(6) 0.63588(7)
C5_23 C 0.33868(9) 0.24616(9) 0.60904(9)
H3_23 H 0.3340 0.2243 0.5842
C6_23 C 0.33545(9) 0.29160(9) 0.59744(9)
C7_23 C 0.32405(8) 0.30886(9) 0.54600(9)
C8_23 C 0.31622(8) 0.28185(9) 0.50383(9)
H4_23 H 0.3188 0.2504 0.5062
C9_21 C 0.30444(8) 0.30201(8) 0.45794(8)
C10_21 C 0.30112(8) 0.34936(9) 0.45645(9)
H5_21 H 0.2916 0.3639 0.4270
C11_21 C 0.31210(8) 0.37452(8) 0.49931(9)
N2_23 N 0.32246(6) 0.35421(7) 0.54304(7)
C12_23 C 0.31576(8) 0.42514(8) 0.50086(9)
N3_23 N 0.32543(8) 0.44261(7) 0.54681(8)
C13_23 C 0.33141(12) 0.48748(10) 0.55098(10)
H6_23 H 0.3363 0.4998 0.5829
C14_21 C 0.33066(12) 0.51624(10) 0.50957(11)
H7_21 H 0.3348 0.5474 0.5135
C15_21 C 0.32366(10) 0.49755(9) 0.46209(10)
C16_23 C 0.33095(9) 0.52495(9) 0.41454(10)
O4_23 O 0.34102(7) 0.50489(7) 0.37555(7)
C17_21 C 0.31451(9) 0.45137(8) 0.45813(9)
H8_21 H 0.3076 0.4385 0.4269
C18_21 C 0.29520(9) 0.27341(9) 0.41238(9)
C19_21 C 0.27373(10) 0.23130(10) 0.41966(11)
H9_21 H 0.2664 0.2223 0.4524
C20_21 C 0.26311(12) 0.20283(13) 0.37970(13)
H10_15 H 0.2492 0.1749 0.3855
C21_21 C 0.27348(13) 0.21660(14) 0.33110(13)
H11_21 H 0.2661 0.1981 0.3037
C22_21 C 0.29480(13) 0.25763(14) 0.32310(11)
H12_21 H 0.3014 0.2664 0.2901
C23_21 C 0.30700(11) 0.28670(11) 0.36318(10)
C24_21 C 0.33376(14) 0.32865(12) 0.35112(12)
H13_21 H 0.3136 0.3542 0.3491
H14_21 H 0.3490 0.3248 0.3193
H15_21 H 0.3558 0.3338 0.3773
Zn3_15 Zn 0.35623(2) 0.09095(2) 0.64611(2)
O5_15 O 0.40621(6) 0.40530(6) 0.61412(7)
N1_24 N 0.15801(8) 0.67567(7) 0.13243(8)
C1_24 C 0.14776(11) 0.68819(10) 0.17986(10)
H1_24 H 0.1431 0.6658 0.2041
C2_24 C 0.14379(12) 0.73325(10) 0.19402(10)
H2_24 H 0.1364 0.7409 0.2272
C3_24 C 0.15096(10) 0.76679(10) 0.15846(10)
C4_24 C 0.14710(11) 0.81647(10) 0.17210(11)
O1_24 O 0.13717(12) 0.82721(8) 0.21562(9)
O2_16 O 0.15530(6) 0.84379(6) 0.13588(7)
C5_24 C 0.16132(9) 0.75384(9) 0.10904(9)
H3_24 H 0.1660 0.7757 0.0842
C6_24 C 0.16455(9) 0.70840(9) 0.09744(9)
C7_24 C 0.17595(8) 0.69114(9) 0.04600(9)
C8_24 C 0.18378(8) 0.71815(9) 0.00383(9)
H4_24 H 0.1812 0.7496 0.0062
N2_24 N 0.17754(6) 0.64579(7) 0.04304(7)
C12_24 C 0.18424(8) 0.57486(8) 0.00086(9)
N3_24 N 0.17457(8) 0.55739(7) 0.04681(8)
C13_24 C 0.16859(12) 0.51252(10) 0.05098(10)
H6_24 H 0.1637 0.5002 0.0829
C14_22 C 0.16934(12) 0.48376(10) 0.00957(11)
H7_22 H 0.1652 0.4526 0.0135
Zn3_16 Zn 0.14377(2) 0.90905(2) 0.14611(2)
O5_16 O 0.09379(6) 0.59470(6) 0.11412(7)
C9_22 C 0.19556(8) 0.69799(8) 0.95794(8)
C10_22 C 0.19888(8) 0.65064(9) 0.95645(9)
H5_22 H 0.2084 0.6361 0.9270
C11_22 C 0.18790(8) 0.62548(8) 0.99931(9)
C15_22 C 0.17634(10) 0.50245(9) 0.96209(10)
C16_24 C 0.16905(9) 0.47505(9) 0.91454(10)
O4_24 O 0.15898(7) 0.49511(7) 0.87555(7)
C17_22 C 0.18549(9) 0.54863(8) 0.95813(9)
H8_22 H 0.1924 0.5615 0.9269
C18_22 C 0.20480(9) 0.72659(9) 0.91238(9)
C19_22 C 0.22627(10) 0.76870(10) 0.91966(11)
H9_22 H 0.2336 0.7777 0.9524
C20_22 C 0.23689(12) 0.79717(13) 0.87970(13)
H10_16 H 0.2508 0.8251 0.8855
C21_22 C 0.22652(13) 0.78340(14) 0.83110(13)
H11_22 H 0.2339 0.8019 0.8037
C22_22 C 0.20520(13) 0.74237(14) 0.82310(11)
H12_22 H 0.1986 0.7336 0.7901
C23_22 C 0.19300(11) 0.71330(11) 0.86318(10)
C24_22 C 0.16624(14) 0.67135(12) 0.85112(12)
H13_22 H 0.1864 0.6458 0.8491
H14_22 H 0.1510 0.6752 0.8193
H15_22 H 0.1442 0.6662 0.8773
N1_25 N 0.57433(7) 0.40801(8) 0.61757(8)
C1_25 C 0.56181(10) 0.39776(11) 0.57014(10)
H1_25 H 0.5842 0.3931 0.5459
C2_25 C 0.51675(10) 0.39379(12) 0.55598(10)
H2_25 H 0.5091 0.3864 0.5228
C3_25 C 0.48321(10) 0.40096(10) 0.59154(10)
C4_25 C 0.43353(10) 0.39710(11) 0.57790(11)
O1_25 O 0.42279(8) 0.38717(12) 0.53438(9)
C5_25 C 0.49616(9) 0.41132(9) 0.64096(9)
H3_25 H 0.4743 0.4160 0.6658
C6_25 C 0.54160(9) 0.41455(9) 0.65256(9)
C7_25 C 0.55886(9) 0.42595(8) 0.70400(9)
C8_25 C 0.53185(9) 0.43378(8) 0.74617(9)
H4_25 H 0.5004 0.4312 0.7438
C9_23 C 0.55201(8) 0.44556(8) 0.79206(8)
C10_23 C 0.59936(9) 0.44888(8) 0.79355(9)
H5_23 H 0.6139 0.4584 0.8230
C11_23 C 0.62452(8) 0.43790(8) 0.75069(9)
N2_25 N 0.60421(7) 0.42754(6) 0.70696(7)
C12_25 C 0.67514(8) 0.43424(8) 0.74914(9)
N3_25 N 0.69261(7) 0.42457(8) 0.70319(8)
C13_25 C 0.73748(10) 0.41859(12) 0.69902(10)
H6_25 H 0.7498 0.4137 0.6671
C14_23 C 0.76624(10) 0.41934(12) 0.74043(11)
H7_23 H 0.7974 0.4152 0.7365
C15_23 C 0.74755(9) 0.42634(10) 0.78791(10)
C16_25 C 0.77495(9) 0.41905(9) 0.83546(10)
O3_13 O 0.81814(6) 0.42094(7) 0.83128(7)
O4_25 O 0.75489(7) 0.40898(7) 0.87445(7)
C17_23 C 0.70137(8) 0.43549(9) 0.79187(9)
H8_23 H 0.6885 0.4424 0.8231
C18_23 C 0.52341(9) 0.45480(9) 0.83762(9)
C19_23 C 0.48130(10) 0.47627(10) 0.83034(11)
H9_23 H 0.4723 0.4836 0.7976
C20_23 C 0.45283(13) 0.48689(12) 0.87030(13)
H10_17 H 0.4249 0.5008 0.8645
C21_23 C 0.46660(14) 0.47652(13) 0.91890(13)
H11_23 H 0.4481 0.4839 0.9463
C22_23 C 0.50763(14) 0.45520(13) 0.92690(11)
H12_23 H 0.5164 0.4486 0.9599
C23_23 C 0.53670(11) 0.44300(11) 0.88682(10)
C24_23 C 0.57865(12) 0.41624(14) 0.89888(12)
H13_23 H 0.6042 0.4364 0.9009
H14_23 H 0.5748 0.4010 0.9307
H15_23 H 0.5838 0.3942 0.8727
O6_13 O 0.67094(7) 0.43186(6) 0.58128(7)
C3_26 C 0.01679(10) 0.59904(10) 0.09154(10)
C4_26 C 0.06647(10) 0.60290(11) 0.07790(11)
O1_26 O 0.07721(8) 0.61283(12) 0.03438(9)
C5_26 C 0.00384(9) 0.58868(9) 0.14096(9)
H3_26 H 0.0257 0.5840 0.1658
C19_24 C 0.01870(10) 0.52373(10) 0.33034(11)
H9_24 H 0.0277 0.5164 0.2976
C20_24 C 0.04717(13) 0.51311(12) 0.37030(13)
H10_18 H 0.0751 0.4992 0.3645
C21_24 C 0.03340(14) 0.52348(13) 0.41890(13)
H11_24 H 0.0519 0.5161 0.4463
N1_26 N 0.92567(7) 0.59199(8) 0.11757(8)
C1_26 C 0.93819(10) 0.60224(11) 0.07014(10)
H1_26 H 0.9158 0.6069 0.0459
C2_26 C 0.98325(10) 0.60621(12) 0.05598(10)
H2_26 H 0.9909 0.6136 0.0228
C6_26 C 0.95840(9) 0.58545(9) 0.15256(9)
C7_26 C 0.94114(9) 0.57405(8) 0.20400(9)
C8_26 C 0.96815(9) 0.56622(8) 0.24617(9)
H4_26 H 0.9996 0.5688 0.2438
C9_24 C 0.94799(8) 0.55444(8) 0.29206(8)
C10_24 C 0.90064(9) 0.55112(8) 0.29355(9)
H5_24 H 0.8861 0.5416 0.3230
C11_24 C 0.87548(8) 0.56210(8) 0.25069(9)
N2_26 N 0.89579(7) 0.57246(6) 0.20696(7)
C12_26 C 0.82486(8) 0.56576(8) 0.24914(9)
N3_26 N 0.80739(7) 0.57543(8) 0.20319(8)
C13_26 C 0.76252(10) 0.58141(12) 0.19902(10)
H6_26 H 0.7502 0.5863 0.1671
C14_24 C 0.73376(10) 0.58066(12) 0.24043(11)
H7_24 H 0.7026 0.5848 0.2365
C15_24 C 0.75245(9) 0.57366(10) 0.28791(10)
C16_26 C 0.72505(9) 0.58095(9) 0.33546(10)
O3_14 O 0.68186(6) 0.57906(7) 0.33128(7)
O4_26 O 0.74511(7) 0.59102(7) 0.37445(7)
C17_24 C 0.79863(8) 0.56451(9) 0.29187(9)
H8_24 H 0.8115 0.5576 0.3231
C18_24 C 0.97659(9) 0.54520(9) 0.33762(9)
C22_24 C 0.99237(14) 0.54480(13) 0.42690(11)
H12_24 H 0.9836 0.5514 0.4599
C23_24 C 0.96330(11) 0.55700(11) 0.38682(10)
C24_24 C 0.92135(12) 0.58376(14) 0.39888(12)
H13_24 H 0.8958 0.5636 0.4009
H14_24 H 0.9252 0.5990 0.4307
H15_24 H 0.9162 0.6058 0.3727
O6_14 O 0.82906(7) 0.56814(6) 0.08128(7)
N1_27 N 0.15801(8) 0.17567(7) 0.86757(8)
C1_27 C 0.14776(11) 0.18819(10) 0.82014(10)
H1_27 H 0.1431 0.1658 0.7959
C2_27 C 0.14379(12) 0.23325(10) 0.80598(10)
H2_27 H 0.1364 0.2409 0.7728
C3_27 C 0.15096(10) 0.26679(10) 0.84154(10)
C4_27 C 0.14710(11) 0.31647(10) 0.82790(11)
O1_27 O 0.13717(12) 0.32721(8) 0.78438(9)
C5_27 C 0.16132(9) 0.25384(9) 0.89096(9)
H3_27 H 0.1660 0.2757 0.9158
C6_27 C 0.16455(9) 0.20840(9) 0.90256(9)
C7_27 C 0.17595(8) 0.19114(9) 0.95400(9)
C8_27 C 0.18378(8) 0.21815(9) 0.99617(9)
H4_27 H 0.1812 0.2496 0.9938
N2_27 N 0.17754(6) 0.14579(7) 0.95696(7)
C12_27 C 0.18424(8) 0.07486(8) 0.99914(9)
N3_27 N 0.17457(8) 0.05739(7) 0.95319(8)
C13_27 C 0.16859(12) 0.01252(10) 0.94902(10)
H6_27 H 0.1637 0.0002 0.9171
O6_15 O 0.18186(6) 0.07906(7) 0.83128(7)
C16_27 C 0.16905(9) 0.97505(9) 0.08546(10)
O3_15 O 0.17094(7) 0.93186(6) 0.08128(7)
O4_27 O 0.15898(7) 0.99511(7) 0.12445(7)
C14_25 C 0.33066(12) 0.01624(10) 0.49043(11)
H7_25 H 0.3348 0.0474 0.4865
C16_28 C 0.33095(9) 0.02495(9) 0.58546(10)
O3_16 O 0.32906(7) 0.06814(6) 0.58128(7)
O4_28 O 0.34102(7) 0.00489(7) 0.62445(7)
N1_28 N 0.34199(8) 0.82433(7) 0.36757(8)
C1_28 C 0.35224(11) 0.81181(10) 0.32014(10)
H1_28 H 0.3569 0.8342 0.2959
C2_28 C 0.35621(12) 0.76675(10) 0.30598(10)
H2_28 H 0.3636 0.7591 0.2728
C3_28 C 0.34904(10) 0.73321(10) 0.34154(10)
C4_28 C 0.35290(11) 0.68353(10) 0.32790(11)
O1_28 O 0.36283(12) 0.67279(8) 0.28438(9)
C5_28 C 0.33868(9) 0.74616(9) 0.39096(9)
H3_28 H 0.3340 0.7243 0.4158
C6_28 C 0.33545(9) 0.79160(9) 0.40256(9)
C7_28 C 0.32405(8) 0.80886(9) 0.45400(9)
C8_28 C 0.31622(8) 0.78185(9) 0.49617(9)
H4_28 H 0.3188 0.7504 0.4938
C9_25 C 0.30444(8) 0.80201(8) 0.54206(8)
C10_25 C 0.30112(8) 0.84936(9) 0.54355(9)
H5_25 H 0.2916 0.8639 0.5730
C11_25 C 0.31210(8) 0.87452(8) 0.50069(9)
N2_28 N 0.32246(6) 0.85421(7) 0.45696(7)
C12_28 C 0.31576(8) 0.92514(8) 0.49914(9)
N3_28 N 0.32543(8) 0.94261(7) 0.45319(8)
C13_28 C 0.33141(12) 0.98748(10) 0.44902(10)
H6_28 H 0.3363 0.9998 0.4171
C15_25 C 0.32366(10) 0.99755(9) 0.53791(10)
C17_25 C 0.31451(9) 0.95137(8) 0.54187(9)
H8_25 H 0.3076 0.9385 0.5731
C18_25 C 0.29520(9) 0.77341(9) 0.58762(9)
C19_25 C 0.27373(10) 0.73130(10) 0.58034(11)
H9_25 H 0.2664 0.7223 0.5476
C20_25 C 0.26311(12) 0.70283(13) 0.62030(13)
H10_19 H 0.2492 0.6749 0.6145
C21_25 C 0.27348(13) 0.71660(14) 0.66890(13)
H11_25 H 0.2661 0.6981 0.6963
C22_25 C 0.29480(13) 0.75763(14) 0.67690(11)
H12_25 H 0.3014 0.7664 0.7099
C23_25 C 0.30700(11) 0.78670(11) 0.63682(10)
C24_25 C 0.33376(14) 0.82865(12) 0.64888(12)
H13_25 H 0.3136 0.8542 0.6509
H14_25 H 0.3490 0.8248 0.6807
H15_25 H 0.3558 0.8338 0.6227
O6_16 O 0.31814(6) 0.92094(7) 0.33128(7)
N1_29 N 0.07433(7) 0.90801(8) 0.11757(8)
C1_29 C 0.06181(10) 0.89776(11) 0.07014(10)
H1_29 H 0.0842 0.8931 0.0459
C2_29 C 0.01675(10) 0.89379(12) 0.05598(10)
H2_29 H 0.0091 0.8864 0.0228
C6_29 C 0.04160(9) 0.91455(9) 0.15256(9)
C7_29 C 0.05886(9) 0.92595(8) 0.20400(9)
C8_29 C 0.03185(9) 0.93378(8) 0.24617(9)
H4_29 H 0.0004 0.9312 0.2438
C9_26 C 0.05201(8) 0.94556(8) 0.29206(8)
C10_26 C 0.09936(9) 0.94888(8) 0.29355(9)
H5_26 H 0.1139 0.9584 0.3230
C11_26 C 0.12452(8) 0.93790(8) 0.25069(9)
N2_29 N 0.10421(7) 0.92754(6) 0.20696(7)
C12_29 C 0.17514(8) 0.93424(8) 0.24914(9)
N3_29 N 0.19261(7) 0.92457(8) 0.20319(8)
C13_29 C 0.23748(10) 0.91859(12) 0.19902(10)
H6_29 H 0.2498 0.9137 0.1671
C14_26 C 0.26624(10) 0.91934(12) 0.24043(11)
H7_26 H 0.2974 0.9152 0.2365
C15_26 C 0.24755(9) 0.92634(10) 0.28791(10)
C16_29 C 0.27495(9) 0.91905(9) 0.33546(10)
O4_29 O 0.25489(7) 0.90898(7) 0.37445(7)
C17_26 C 0.20137(8) 0.93549(9) 0.29187(9)
H8_26 H 0.1885 0.9424 0.3231
C18_26 C 0.02341(9) 0.95480(9) 0.33762(9)
C22_26 C 0.00763(14) 0.95520(13) 0.42690(11)
H12_26 H 0.0164 0.9486 0.4599
C23_26 C 0.03670(11) 0.94300(11) 0.38682(10)
C24_26 C 0.07865(12) 0.91624(14) 0.39888(12)
H13_26 H 0.1042 0.9364 0.4009
H14_26 H 0.0748 0.9010 0.4307
H15_26 H 0.0838 0.8942 0.3727
C3_29 C 0.98321(10) 0.90096(10) 0.09154(10)
C4_29 C 0.93353(10) 0.89710(11) 0.07790(11)
O1_29 O 0.92279(8) 0.88717(12) 0.03438(9)
C5_29 C 0.99616(9) 0.91132(9) 0.14096(9)
H3_29 H 0.9743 0.9160 0.1658
C19_26 C 0.98130(10) 0.97627(10) 0.33034(11)
H9_26 H 0.9723 0.9836 0.2976
C20_26 C 0.95283(13) 0.98689(12) 0.37030(13)
C21_26 C 0.96660(14) 0.97652(13) 0.41890(13)
H11_26 H 0.9481 0.9839 0.4463
N1_30 N 0.42567(7) 0.09199(8) 0.61757(8)
C1_30 C 0.43819(10) 0.10224(11) 0.57014(10)
H1_30 H 0.4158 0.1069 0.5459
C2_30 C 0.48325(10) 0.10621(12) 0.55598(10)
H2_30 H 0.4909 0.1136 0.5228
C3_30 C 0.51679(10) 0.09904(10) 0.59154(10)
C4_30 C 0.56647(10) 0.10290(11) 0.57790(11)
O1_30 O 0.57721(8) 0.11283(12) 0.53438(9)
C5_30 C 0.50384(9) 0.08868(9) 0.64096(9)
H3_30 H 0.5257 0.0840 0.6658
C6_30 C 0.45840(9) 0.08545(9) 0.65256(9)
C7_30 C 0.44114(9) 0.07405(8) 0.70400(9)
C8_30 C 0.46815(9) 0.06622(8) 0.74617(9)
H4_30 H 0.4996 0.0688 0.7438
C9_27 C 0.44799(8) 0.05444(8) 0.79206(8)
C10_27 C 0.40064(9) 0.05112(8) 0.79355(9)
H5_27 H 0.3861 0.0416 0.8230
C11_27 C 0.37548(8) 0.06210(8) 0.75069(9)
N2_30 N 0.39579(7) 0.07246(6) 0.70696(7)
C12_30 C 0.32486(8) 0.06576(8) 0.74914(9)
N3_30 N 0.30739(7) 0.07543(8) 0.70319(8)
C13_30 C 0.26252(10) 0.08141(12) 0.69902(10)
H6_30 H 0.2502 0.0863 0.6671
C14_27 C 0.23376(10) 0.08066(12) 0.74043(11)
H7_27 H 0.2026 0.0848 0.7365
C15_27 C 0.25245(9) 0.07366(10) 0.78791(10)
C16_30 C 0.22505(9) 0.08095(9) 0.83546(10)
O4_30 O 0.24511(7) 0.09102(7) 0.87445(7)
C17_27 C 0.29863(8) 0.06451(9) 0.79187(9)
H8_27 H 0.3115 0.0576 0.8231
C18_27 C 0.47659(9) 0.04520(9) 0.83762(9)
C19_27 C 0.51870(10) 0.02373(10) 0.83034(11)
H9_27 H 0.5277 0.0164 0.7976
C20_27 C 0.54717(13) 0.01311(12) 0.87030(13)
C21_27 C 0.53340(14) 0.02348(13) 0.91890(13)
H11_27 H 0.5519 0.0161 0.9463
C22_27 C 0.49237(14) 0.04480(13) 0.92690(11)
H12_27 H 0.4836 0.0514 0.9599
C23_27 C 0.46330(11) 0.05700(11) 0.88682(10)
C24_27 C 0.42135(12) 0.08376(14) 0.89888(12)
H13_27 H 0.3958 0.0636 0.9009
H14_27 H 0.4252 0.0990 0.9307
H15_27 H 0.4162 0.1058 0.8727
N1_31 N 0.65801(8) 0.67567(7) 0.36757(8)
C1_31 C 0.64776(11) 0.68819(10) 0.32014(10)
H1_31 H 0.6431 0.6658 0.2959
C2_31 C 0.64379(12) 0.73325(10) 0.30598(10)
H2_31 H 0.6364 0.7409 0.2728
C3_31 C 0.65096(10) 0.76679(10) 0.34154(10)
C4_31 C 0.64710(11) 0.81647(10) 0.32790(11)
O1_31 O 0.63717(12) 0.82721(8) 0.28438(9)
C5_31 C 0.66132(9) 0.75384(9) 0.39096(9)
H3_31 H 0.6660 0.7757 0.4158
C6_31 C 0.66455(9) 0.70840(9) 0.40256(9)
C7_31 C 0.67595(8) 0.69114(9) 0.45400(9)
C8_31 C 0.68378(8) 0.71815(9) 0.49617(9)
H4_31 H 0.6812 0.7496 0.4938
C9_28 C 0.69556(8) 0.69799(8) 0.54206(8)
C10_28 C 0.69888(8) 0.65064(9) 0.54355(9)
H5_28 H 0.7084 0.6361 0.5730
C11_28 C 0.68790(8) 0.62548(8) 0.50069(9)
N2_31 N 0.67754(6) 0.64579(7) 0.45696(7)
C12_31 C 0.68424(8) 0.57486(8) 0.49914(9)
N3_31 N 0.67457(8) 0.55739(7) 0.45319(8)
C13_31 C 0.66859(12) 0.51252(10) 0.44902(10)
H6_31 H 0.6637 0.5002 0.4171
C14_28 C 0.66934(12) 0.48376(10) 0.49043(11)
H7_28 H 0.6652 0.4526 0.4865
C15_28 C 0.67634(10) 0.50245(9) 0.53791(10)
C16_31 C 0.66905(9) 0.47505(9) 0.58546(10)
O4_31 O 0.65898(7) 0.49511(7) 0.62445(7)
C17_28 C 0.68549(9) 0.54863(8) 0.54187(9)
H8_28 H 0.6924 0.5615 0.5731
C18_28 C 0.70480(9) 0.72659(9) 0.58762(9)
C19_28 C 0.72627(10) 0.76870(10) 0.58034(11)
H9_28 H 0.7336 0.7777 0.5476
C20_28 C 0.73689(12) 0.79717(13) 0.62030(13)
H10_20 H 0.7508 0.8251 0.6145
C21_28 C 0.72652(13) 0.78340(14) 0.66890(13)
H11_28 H 0.7339 0.8019 0.6963
C22_28 C 0.70520(13) 0.74237(14) 0.67690(11)
H12_28 H 0.6986 0.7336 0.7099
C23_28 C 0.69300(11) 0.71330(11) 0.63682(10)
C24_28 C 0.66624(14) 0.67135(12) 0.64888(12)
H13_28 H 0.6864 0.6458 0.6509
H14_28 H 0.6510 0.6752 0.6807
H15_28 H 0.6442 0.6662 0.6227
C9_29 C 0.80444(8) 0.30201(8) 0.04206(8)
C10_29 C 0.80112(8) 0.34936(9) 0.04355(9)
H5_29 H 0.7916 0.3639 0.0730
C11_29 C 0.81210(8) 0.37452(8) 0.00069(9)
C15_29 C 0.82366(10) 0.49755(9) 0.03791(10)
C16_32 C 0.83095(9) 0.52495(9) 0.08546(10)
O4_32 O 0.84102(7) 0.50489(7) 0.12445(7)
C17_29 C 0.81451(9) 0.45137(8) 0.04187(9)
H8_29 H 0.8076 0.4385 0.0731
C18_29 C 0.79520(9) 0.27341(9) 0.08762(9)
C19_29 C 0.77373(10) 0.23130(10) 0.08034(11)
H9_29 H 0.7664 0.2223 0.0476
C20_29 C 0.76311(12) 0.20283(13) 0.12030(13)
H10_21 H 0.7492 0.1749 0.1145
C21_29 C 0.77348(13) 0.21660(14) 0.16890(13)
H11_29 H 0.7661 0.1981 0.1963
C22_29 C 0.79480(13) 0.25763(14) 0.17690(11)
H12_29 H 0.8014 0.2664 0.2099
C23_29 C 0.80700(11) 0.28670(11) 0.13682(10)
C24_29 C 0.83376(14) 0.32865(12) 0.14888(12)
H13_29 H 0.8136 0.3542 0.1509
H14_29 H 0.8490 0.3248 0.1807
H15_29 H 0.8558 0.3338 0.1227
N1_32 N 0.84199(8) 0.32433(7) 0.86757(8)
C1_32 C 0.85224(11) 0.31181(10) 0.82014(10)
H1_32 H 0.8569 0.3342 0.7959
C2_32 C 0.85621(12) 0.26675(10) 0.80598(10)
H2_32 H 0.8636 0.2591 0.7728
C3_32 C 0.84904(10) 0.23321(10) 0.84154(10)
C4_32 C 0.85290(11) 0.18353(10) 0.82790(11)
O1_32 O 0.86283(12) 0.17279(8) 0.78438(9)
C5_32 C 0.83868(9) 0.24616(9) 0.89096(9)
H3_32 H 0.8340 0.2243 0.9158
C6_32 C 0.83545(9) 0.29160(9) 0.90256(9)
C7_32 C 0.82405(8) 0.30886(9) 0.95400(9)
C8_32 C 0.81622(8) 0.28185(9) 0.99617(9)
H4_32 H 0.8188 0.2504 0.9938
N2_32 N 0.82246(6) 0.35421(7) 0.95696(7)
C12_32 C 0.81576(8) 0.42514(8) 0.99914(9)
N3_32 N 0.82543(8) 0.44261(7) 0.95319(8)
C13_32 C 0.83141(12) 0.48748(10) 0.94902(10)
H6_32 H 0.8363 0.4998 0.9171
C14_29 C 0.83066(12) 0.51624(10) 0.99043(11)
H7_29 H 0.8348 0.5474 0.9865
C14_30 C 0.83066(12) 0.01624(10) 0.00957(11)
H7_30 H 0.8348 0.0474 0.0135
C9_30 C 0.80444(8) 0.80201(8) 0.95794(8)
C10_30 C 0.80112(8) 0.84936(9) 0.95645(9)
H5_30 H 0.7916 0.8639 0.9270
C11_30 C 0.81210(8) 0.87452(8) 0.99931(9)
C15_30 C 0.82366(10) 0.99755(9) 0.96209(10)
C17_30 C 0.81451(9) 0.95137(8) 0.95813(9)
H8_30 H 0.8076 0.9385 0.9269
C18_30 C 0.79520(9) 0.77341(9) 0.91238(9)
C19_30 C 0.77373(10) 0.73130(10) 0.91966(11)
H9_30 H 0.7664 0.7223 0.9524
C20_30 C 0.76311(12) 0.70283(13) 0.87970(13)
H10_22 H 0.7492 0.6749 0.8855
C21_30 C 0.77348(13) 0.71660(14) 0.83110(13)
H11_30 H 0.7661 0.6981 0.8037
C22_30 C 0.79480(13) 0.75763(14) 0.82310(11)
H12_30 H 0.8014 0.7664 0.7901
C23_30 C 0.80700(11) 0.78670(11) 0.86318(10)
C24_30 C 0.83376(14) 0.82865(12) 0.85112(12)
H13_30 H 0.8136 0.8542 0.8491
H14_30 H 0.8490 0.8248 0.8193
H15_30 H 0.8558 0.8338 0.8773
H10_23 H 0.4249 0.9992 0.3645
H10_24 H 0.0751 0.0008 0.8645
H10_25 H 0.0751 0.9992 0.6355
H10_26 H 0.4249 0.0008 0.1355
C9_31 C 0.30444(8) 0.19799(8) 0.95794(8)
C10_31 C 0.30112(8) 0.15064(9) 0.95645(9)
H5_31 H 0.2916 0.1361 0.9270
C11_31 C 0.31210(8) 0.12548(8) 0.99931(9)
C15_31 C 0.32366(10) 0.00245(9) 0.96209(10)
C17_31 C 0.31451(9) 0.04863(8) 0.95813(9)
H8_31 H 0.3076 0.0615 0.9269
C18_31 C 0.29520(9) 0.22659(9) 0.91238(9)
C19_31 C 0.27373(10) 0.26870(10) 0.91966(11)
H9_31 H 0.2664 0.2777 0.9524
C20_31 C 0.26311(12) 0.29717(13) 0.87970(13)
H10_27 H 0.2492 0.3251 0.8855
C21_31 C 0.27348(13) 0.28340(14) 0.83110(13)
H11_31 H 0.2661 0.3019 0.8037
C22_31 C 0.29480(13) 0.24237(14) 0.82310(11)
H12_31 H 0.3014 0.2336 0.7901
C23_31 C 0.30700(11) 0.21330(11) 0.86318(10)
C24_31 C 0.33376(14) 0.17135(12) 0.85112(12)
H13_31 H 0.3136 0.1458 0.8491
H14_31 H 0.3490 0.1752 0.8193
H15_31 H 0.3558 0.1662 0.8773
C14_31 C 0.33066(12) 0.98376(10) 0.00957(11)
H7_31 H 0.3348 0.9526 0.0135
C9_32 C 0.19556(8) 0.19799(8) 0.04206(8)
C10_32 C 0.19888(8) 0.15064(9) 0.04355(9)
H5_32 H 0.2084 0.1361 0.0730
C11_32 C 0.18790(8) 0.12548(8) 0.00069(9)
C15_32 C 0.17634(10) 0.00245(9) 0.03791(10)
C17_32 C 0.18549(9) 0.04863(8) 0.04187(9)
H8_32 H 0.1924 0.0615 0.0731
C18_32 C 0.20480(9) 0.22659(9) 0.08762(9)
C19_32 C 0.22627(10) 0.26870(10) 0.08034(11)
H9_32 H 0.2336 0.2777 0.0476
C20_32 C 0.23689(12) 0.29717(13) 0.12030(13)
H10_28 H 0.2508 0.3251 0.1145
C21_32 C 0.22652(13) 0.28340(14) 0.16890(13)
H11_32 H 0.2339 0.3019 0.1963
C22_32 C 0.20520(13) 0.24237(14) 0.17690(11)
H12_32 H 0.1986 0.2336 0.2099
C23_32 C 0.19300(11) 0.21330(11) 0.13682(10)
C24_32 C 0.16624(14) 0.17135(12) 0.14888(12)
H13_32 H 0.1864 0.1458 0.1509
H14_32 H 0.1510 0.1752 0.1807
H15_32 H 0.1442 0.1662 0.1227
C14_32 C 0.16934(12) 0.98376(10) 0.99043(11)
H7_32 H 0.1652 0.9526 0.9865
H10_29 H 0.5751 0.0008 0.6355
H10_30 H 0.9249 0.9992 0.1355
H10_31 H 0.9249 0.0008 0.3645
H10_32 H 0.5751 0.9992 0.8645
loop_
_geom_bond_atom_site_label_1
_geom_bond_atom_site_label_2
_geom_bond_site_symmetry_1
_geom_bond_site_symmetry_2
Zn1 N1 1_555 1_555
N1 C1 1_555 1_555
C1 H1 1_555 1_555
C2 C1 1_555 1_555
H2 C2 1_555 1_555
C6 N1 1_555 1_555
C7 C6 1_555 1_555
C8 C7 1_555 1_555
H4 C8 1_555 1_555
C9 C8 1_555 1_555
C10 C9 1_555 1_555
H5 C10 1_555 1_555
C11 C10 1_555 1_555
N2 Zn1 1_555 1_555
C12 C11 1_555 1_555
N3 Zn1 1_555 1_555
C13 N3 1_555 1_555
H6 C13 1_555 1_555
C14 C13 1_555 1_555
H7 C14 1_555 1_555
C15 C14 1_555 1_555
C16 C15 1_555 1_555
O3 C16 1_555 1_555
O4 C16 1_555 1_555
C17 C12 1_555 1_555
H8 C17 1_555 1_555
C18 C9 1_555 1_555
H12 C22 1_555 1_555
C23 C18 1_555 1_555
C24 C23 1_555 1_555
H13 C24 1_555 1_555
H14 C24 1_555 1_555
H15 C24 1_555 1_555
Zn2 O3 1_555 1_555
O5 Zn1 1_555 1_555
O6 Zn1 1_555 1_555
C7 N2 1_555 1_555
C11 N2 1_555 1_555
C12 N3 1_555 1_555
C15 C17 1_555 1_555
C22 C23 1_555 1_555
C4 C3 1_555 1_555
O1 C4 1_555 1_555
O2 C4 1_555 1_555
C5 C3 1_555 1_555
H3 C5 1_555 1_555
H9 C19 1_555 1_555
C20 C19 1_555 1_555
H10 C20 1_555 1_555
C21 C20 1_555 1_555
H11 C21 1_555 1_555
Zn3 O2 1_555 1_555
Zn1_2 N1_2 1_555 1_555
N1_2 C1_2 1_555 1_555
C1_2 H1_2 1_555 1_555
C2_2 C1_2 1_555 1_555
H2_2 C2_2 1_555 1_555
C3_2 C2_2 1_555 1_555
C4_2 C3_2 1_555 1_555
O1_2 C4_2 1_555 1_555
O2_2 C4_2 1_555 1_555
C5_2 C3_2 1_555 1_555
H3_2 C5_2 1_555 1_555
C6_2 N1_2 1_555 1_555
C7_2 C6_2 1_555 1_555
C8_2 C7_2 1_555 1_555
H4_2 C8_2 1_555 1_555
C9_2 C8_2 1_555 1_555
C10_2 C9_2 1_555 1_555
H5_2 C10_2 1_555 1_555
C11_2 C10_2 1_555 1_555
N2_2 Zn1_2 1_555 1_555
C12_2 C11_2 1_555 1_555
N3_2 Zn1_2 1_555 1_555
C13_2 N3_2 1_555 1_555
H6_2 C13_2 1_555 1_555
C14_2 C13_2 1_555 1_555
H7_2 C14_2 1_555 1_555
C15_2 C14_2 1_555 1_555
C16_2 C15_2 1_555 1_555
O3_2 C16_2 1_555 1_555
O4_2 C16_2 1_555 1_555
C17_2 C12_2 1_555 1_555
H8_2 C17_2 1_555 1_555
C18_2 C9_2 1_555 1_555
C19_2 C18_2 1_555 1_555
H9_2 C19_2 1_555 1_555
C20_2 C19_2 1_555 1_555
H10_2 C20_2 1_555 1_555
C21_2 C20_2 1_555 1_555
H11_2 C21_2 1_555 1_555
C22_2 C21_2 1_555 1_555
H12_2 C22_2 1_555 1_555
C23_2 C18_2 1_555 1_555
C24_2 C23_2 1_555 1_555
H13_2 C24_2 1_555 1_555
H14_2 C24_2 1_555 1_555
H15_2 C24_2 1_555 1_555
Zn2_2 O3_2 1_555 1_555
Zn3_2 O2_2 1_555 1_555
O5_2 Zn1_2 1_555 1_555
O6_2 Zn1_2 1_555 1_555
C5_2 C6_2 1_555 1_555
C7_2 N2_2 1_555 1_555
C11_2 N2_2 1_555 1_555
C12_2 N3_2 1_555 1_555
C15_2 C17_2 1_555 1_555
C22_2 C23_2 1_555 1_555
O3_3 C16_3 1_555 1_555
O4_3 C16_3 1_555 1_555
Zn2_3 O3_3 1_555 1_555
Zn1_3 N1_3 1_555 1_555
N1_3 C1_3 1_555 1_555
C1_3 H1_3 1_555 1_555
C2_3 C1_3 1_555 1_555
H2_3 C2_3 1_555 1_555
C3_3 C2_3 1_555 1_555
C4_3 C3_3 1_555 1_555
O1_3 C4_3 1_555 1_555
O2_3 C4_3 1_555 1_555
C5_3 C3_3 1_555 1_555
H3_3 C5_3 1_555 1_555
C6_3 N1_3 1_555 1_555
C7_3 C6_3 1_555 1_555
C8_3 C7_3 1_555 1_555
H4_3 C8_3 1_555 1_555
N2_3 Zn1_3 1_555 1_555
N3_3 Zn1_3 1_555 1_555
C13_3 N3_3 1_555 1_555
H6_3 C13_3 1_555 1_555
Zn3_3 O2_3 1_555 1_555
O5_3 Zn1_3 1_555 1_555
O6_3 Zn1_3 1_555 1_555
C5_3 C6_3 1_555 1_555
C7_3 N2_3 1_555 1_555
C12_3 N3_3 1_555 1_555
Zn1_4 N1_4 1_555 1_555
N1_4 C1_4 1_555 1_555
C1_4 H1_4 1_555 1_555
C2_4 C1_4 1_555 1_555
H2_4 C2_4 1_555 1_555
C3_4 C2_4 1_555 1_555
C4_4 C3_4 1_555 1_555
O1_4 C4_4 1_555 1_555
O2_4 C4_4 1_555 1_555
C5_4 C3_4 1_555 1_555
H3_4 C5_4 1_555 1_555
C6_4 N1_4 1_555 1_555
C7_4 C6_4 1_555 1_555
C8_4 C7_4 1_555 1_555
H4_4 C8_4 1_555 1_555
C9_3 C8_4 1_555 1_555
C10_3 C9_3 1_555 1_555
H5_3 C10_3 1_555 1_555
C11_3 C10_3 1_555 1_555
N2_4 Zn1_4 1_555 1_555
C12_4 C11_3 1_555 1_555
N3_4 Zn1_4 1_555 1_555
C13_4 N3_4 1_555 1_555
H6_4 C13_4 1_555 1_555
C17_3 C12_4 1_555 1_555
H8_3 C17_3 1_555 1_555
C18_3 C9_3 1_555 1_555
C19_3 C18_3 1_555 1_555
H9_3 C19_3 1_555 1_555
C20_3 C19_3 1_555 1_555
H10_3 C20_3 1_555 1_555
C21_3 C20_3 1_555 1_555
H11_3 C21_3 1_555 1_555
C22_3 C21_3 1_555 1_555
H12_3 C22_3 1_555 1_555
C23_3 C18_3 1_555 1_555
C24_3 C23_3 1_555 1_555
H13_3 C24_3 1_555 1_555
H14_3 C24_3 1_555 1_555
H15_3 C24_3 1_555 1_555
Zn3_4 O2_4 1_555 1_555
O5_4 Zn1_4 1_555 1_555
O6_4 Zn1_4 1_555 1_555
C5_4 C6_4 1_555 1_555
C7_4 N2_4 1_555 1_555
C11_3 N2_4 1_555 1_555
C12_4 N3_4 1_555 1_555
C15_3 C17_3 1_555 1_555
C22_3 C23_3 1_555 1_555
H7_3 C14_3 1_555 1_555
O3_4 C16_4 1_555 1_555
O4_4 C16_4 1_555 1_555
Zn2_4 O3_4 1_555 1_555
Zn2_3 N1_5 1_555 1_555
N1_5 C1_5 1_555 1_555
C1_5 H1_5 1_555 1_555
C2_5 C1_5 1_555 1_555
H2_5 C2_5 1_555 1_555
C3_5 C2_5 1_555 1_555
C4_5 C3_5 1_555 1_555
O1_5 C4_5 1_555 1_555
O2_5 C4_5 1_555 1_555
C5_5 C3_5 1_555 1_555
H3_5 C5_5 1_555 1_555
C6_5 N1_5 1_555 1_555
C7_5 C6_5 1_555 1_555
C8_5 C7_5 1_555 1_555
H4_5 C8_5 1_555 1_555
C9_4 C8_5 1_555 1_555
C10_4 C9_4 1_555 1_555
H5_4 C10_4 1_555 1_555
C11_4 C10_4 1_555 1_555
N2_5 Zn2_3 1_555 1_555
C12_5 C11_4 1_555 1_555
N3_5 Zn2_3 1_555 1_555
C13_5 N3_5 1_555 1_555
H6_5 C13_5 1_555 1_555
C14_4 C13_5 1_555 1_555
H7_4 C14_4 1_555 1_555
C15_4 C14_4 1_555 1_555
C16_5 C15_4 1_555 1_555
O6_4 C16_5 1_555 1_555
O4_5 C16_5 1_555 1_555
C17_4 C12_5 1_555 1_555
H8_4 C17_4 1_555 1_555
C18_4 C9_4 1_555 1_555
C19_4 C18_4 1_555 1_555
H9_4 C19_4 1_555 1_555
C20_4 C19_4 1_555 1_555
C21_4 C20_4 1_555 1_555
H11_4 C21_4 1_555 1_555
C22_4 C21_4 1_555 1_555
H12_4 C22_4 1_555 1_555
C23_4 C18_4 1_555 1_555
C24_4 C23_4 1_555 1_555
H13_4 C24_4 1_555 1_555
H14_4 C24_4 1_555 1_555
H15_4 C24_4 1_555 1_555
Zn3_5 O2_5 1_555 1_555
O5_5 Zn2_3 1_555 1_555
C5_5 C6_5 1_555 1_555
C7_5 N2_5 1_555 1_555
C11_4 N2_5 1_555 1_555
C12_5 N3_5 1_555 1_555
C15_4 C17_4 1_555 1_555
C22_4 C23_4 1_555 1_555
C4_6 C3_6 1_555 1_555
O1_6 C4_6 1_555 1_555
O2_6 C4_6 1_555 1_555
C5_6 C3_6 1_555 1_555
H3_6 C5_6 1_555 1_555
H9_5 C19_5 1_555 1_555
C20_5 C19_5 1_555 1_555
C21_5 C20_5 1_555 1_555
H11_5 C21_5 1_555 1_555
Zn3_6 O2_6 1_555 1_555
Zn2_4 N1_6 1_555 1_555
N1_6 C1_6 1_555 1_555
C1_6 H1_6 1_555 1_555
C2_6 C1_6 1_555 1_555
H2_6 C2_6 1_555 1_555
C6_6 N1_6 1_555 1_555
C7_6 C6_6 1_555 1_555
C8_6 C7_6 1_555 1_555
H4_6 C8_6 1_555 1_555
C9_5 C8_6 1_555 1_555
C10_5 C9_5 1_555 1_555
H5_5 C10_5 1_555 1_555
C11_5 C10_5 1_555 1_555
N2_6 Zn2_4 1_555 1_555
C12_6 C11_5 1_555 1_555
N3_6 Zn2_4 1_555 1_555
C13_6 N3_6 1_555 1_555
H6_6 C13_6 1_555 1_555
C14_5 C13_6 1_555 1_555
H7_5 C14_5 1_555 1_555
C15_5 C14_5 1_555 1_555
C16_6 C15_5 1_555 1_555
O6_3 C16_6 1_555 1_555
O4_6 C16_6 1_555 1_555
C17_5 C12_6 1_555 1_555
H8_5 C17_5 1_555 1_555
C18_5 C9_5 1_555 1_555
H12_5 C22_5 1_555 1_555
C23_5 C18_5 1_555 1_555
C24_5 C23_5 1_555 1_555
H13_5 C24_5 1_555 1_555
H14_5 C24_5 1_555 1_555
H15_5 C24_5 1_555 1_555
O5_6 Zn2_4 1_555 1_555
C7_6 N2_6 1_555 1_555
C11_5 N2_6 1_555 1_555
C12_6 N3_6 1_555 1_555
C15_5 C17_5 1_555 1_555
C22_5 C23_5 1_555 1_555
Zn2_2 N1_7 1_555 1_555
N1_7 C1_7 1_555 1_555
C1_7 H1_7 1_555 1_555
C2_7 C1_7 1_555 1_555
H2_7 C2_7 1_555 1_555
C3_7 C2_7 1_555 1_555
C4_7 C3_7 1_555 1_555
O1_7 C4_7 1_555 1_555
O2_7 C4_7 1_555 1_555
C5_7 C3_7 1_555 1_555
H3_7 C5_7 1_555 1_555
C6_7 N1_7 1_555 1_555
C7_7 C6_7 1_555 1_555
C8_7 C7_7 1_555 1_555
H4_7 C8_7 1_555 1_555
C9_6 C8_7 1_555 1_555
C10_6 C9_6 1_555 1_555
H5_6 C10_6 1_555 1_555
C11_6 C10_6 1_555 1_555
N2_7 Zn2_2 1_555 1_555
C12_7 C11_6 1_555 1_555
N3_7 Zn2_2 1_555 1_555
C13_7 N3_7 1_555 1_555
H6_7 C13_7 1_555 1_555
C14_6 C13_7 1_555 1_555
H7_6 C14_6 1_555 1_555
C15_6 C14_6 1_555 1_555
C16_7 C15_6 1_555 1_555
O6 C16_7 1_555 1_555
O4_7 C16_7 1_555 1_555
C17_6 C12_7 1_555 1_555
H8_6 C17_6 1_555 1_555
C18_6 C9_6 1_555 1_555
C19_6 C18_6 1_555 1_555
H9_6 C19_6 1_555 1_555
C20_6 C19_6 1_555 1_555
H10_4 C20_6 1_555 1_555
C21_6 C20_6 1_555 1_555
H11_6 C21_6 1_555 1_555
C22_6 C21_6 1_555 1_555
H12_6 C22_6 1_555 1_555
C23_6 C18_6 1_555 1_555
C24_6 C23_6 1_555 1_555
H13_6 C24_6 1_555 1_555
H14_6 C24_6 1_555 1_555
H15_6 C24_6 1_555 1_555
Zn3_7 O2_7 1_555 1_555
O5_7 Zn2_2 1_555 1_555
C5_7 C6_7 1_555 1_555
C7_7 N2_7 1_555 1_555
C11_6 N2_7 1_555 1_555
C12_7 N3_7 1_555 1_555
C15_6 C17_6 1_555 1_555
C22_6 C23_6 1_555 1_555
C10_7 C9_7 1_555 1_555
H5_7 C10_7 1_555 1_555
C11_7 C10_7 1_555 1_555
C16_8 C15_7 1_555 1_555
O6_2 C16_8 1_555 1_555
O4_8 C16_8 1_555 1_555
H8_7 C17_7 1_555 1_555
C18_7 C9_7 1_555 1_555
C19_7 C18_7 1_555 1_555
H9_7 C19_7 1_555 1_555
C20_7 C19_7 1_555 1_555
H10_5 C20_7 1_555 1_555
C21_7 C20_7 1_555 1_555
H11_7 C21_7 1_555 1_555
C22_7 C21_7 1_555 1_555
H12_7 C22_7 1_555 1_555
C23_7 C18_7 1_555 1_555
C24_7 C23_7 1_555 1_555
H13_7 C24_7 1_555 1_555
H14_7 C24_7 1_555 1_555
H15_7 C24_7 1_555 1_555
C15_7 C17_7 1_555 1_555
C22_7 C23_7 1_555 1_555
Zn2 N1_8 1_555 1_555
N1_8 C1_8 1_555 1_555
C1_8 H1_8 1_555 1_555
C2_8 C1_8 1_555 1_555
H2_8 C2_8 1_555 1_555
C3_8 C2_8 1_555 1_555
C4_8 C3_8 1_555 1_555
O1_8 C4_8 1_555 1_555
O2_8 C4_8 1_555 1_555
C5_8 C3_8 1_555 1_555
H3_8 C5_8 1_555 1_555
C6_8 N1_8 1_555 1_555
C7_8 C6_8 1_555 1_555
C8_8 C7_8 1_555 1_555
H4_8 C8_8 1_555 1_555
N2_8 Zn2 1_555 1_555
N3_8 Zn2 1_555 1_555
C13_8 N3_8 1_555 1_555
H6_8 C13_8 1_555 1_555
C14_7 C13_8 1_555 1_555
H7_7 C14_7 1_555 1_555
Zn3_8 O2_8 1_555 1_555
O5_8 Zn2 1_555 1_555
C5_8 C6_8 1_555 1_555
C7_8 N2_8 1_555 1_555
C12_8 N3_8 1_555 1_555
C4_9 C3_9 1_555 1_555
O1_9 C4_9 1_555 1_555
O5_7 C4_9 1_555 1_555
C5_9 C3_9 1_555 1_555
H3_9 C5_9 1_555 1_555
H9_8 C19_8 1_555 1_555
C20_8 C19_8 1_555 1_555
H10_6 C20_8 1_555 1_555
C21_8 C20_8 1_555 1_555
H11_8 C21_8 1_555 1_555
Zn3_4 N1_9 1_555 1_555
N1_9 C1_9 1_555 1_555
C1_9 H1_9 1_555 1_555
C2_9 C1_9 1_555 1_555
H2_9 C2_9 1_555 1_555
C6_9 N1_9 1_555 1_555
C7_9 C6_9 1_555 1_555
C8_9 C7_9 1_555 1_555
H4_9 C8_9 1_555 1_555
C9_8 C8_9 1_555 1_555
C10_8 C9_8 1_555 1_555
H5_8 C10_8 1_555 1_555
C11_8 C10_8 1_555 1_555
N2_9 Zn3_4 1_555 1_555
C12_9 C11_8 1_555 1_555
N3_9 Zn3_4 1_555 1_555
C13_9 N3_9 1_555 1_555
H6_9 C13_9 1_555 1_555
C14_8 C13_9 1_555 1_555
H7_8 C14_8 1_555 1_555
C15_8 C14_8 1_555 1_555
C16_9 C15_8 1_555 1_555
O3_5 C16_9 1_555 1_555
O4_9 C16_9 1_555 1_555
C17_8 C12_9 1_555 1_555
H8_8 C17_8 1_555 1_555
C18_8 C9_8 1_555 1_555
H12_8 C22_8 1_555 1_555
C23_8 C18_8 1_555 1_555
C24_8 C23_8 1_555 1_555
H13_8 C24_8 1_555 1_555
H14_8 C24_8 1_555 1_555
H15_8 C24_8 1_555 1_555
Zn3_2 O3_5 1_555 1_555
O6_5 Zn3_4 1_555 1_555
C7_9 N2_9 1_555 1_555
C11_8 N2_9 1_555 1_555
C12_9 N3_9 1_555 1_555
C15_8 C17_8 1_555 1_555
C22_8 C23_8 1_555 1_555
Zn3_3 N1_10 1_555 1_555
N1_10 C1_10 1_555 1_555
C1_10 H1_10 1_555 1_555
C2_10 C1_10 1_555 1_555
H2_10 C2_10 1_555 1_555
C3_10 C2_10 1_555 1_555
C4_10 C3_10 1_555 1_555
O1_10 C4_10 1_555 1_555
O5_8 C4_10 1_555 1_555
C5_10 C3_10 1_555 1_555
H3_10 C5_10 1_555 1_555
C6_10 N1_10 1_555 1_555
C7_10 C6_10 1_555 1_555
C8_10 C7_10 1_555 1_555
H4_10 C8_10 1_555 1_555
C9_9 C8_10 1_555 1_555
C10_9 C9_9 1_555 1_555
H5_9 C10_9 1_555 1_555
C11_9 C10_9 1_555 1_555
N2_10 Zn3_3 1_555 1_555
C12_10 C11_9 1_555 1_555
N3_10 Zn3_3 1_555 1_555
C13_10 N3_10 1_555 1_555
H6_10 C13_10 1_555 1_555
C14_9 C13_10 1_555 1_555
H7_9 C14_9 1_555 1_555
C15_9 C14_9 1_555 1_555
C16_10 C15_9 1_555 1_555
O3_6 C16_10 1_555 1_555
O4_10 C16_10 1_555 1_555
C17_9 C12_10 1_555 1_555
H8_9 C17_9 1_555 1_555
C18_9 C9_9 1_555 1_555
C19_9 C18_9 1_555 1_555
H9_9 C19_9 1_555 1_555
C20_9 C19_9 1_555 1_555
H10_7 C20_9 1_555 1_555
C21_9 C20_9 1_555 1_555
H11_9 C21_9 1_555 1_555
C22_9 C21_9 1_555 1_555
H12_9 C22_9 1_555 1_555
C23_9 C18_9 1_555 1_555
C24_9 C23_9 1_555 1_555
H13_9 C24_9 1_555 1_555
H14_9 C24_9 1_555 1_555
H15_9 C24_9 1_555 1_555
Zn3 O3_6 1_555 1_555
O6_6 Zn3_3 1_555 1_555
C5_10 C6_10 1_555 1_555
C7_10 N2_10 1_555 1_555
C11_9 N2_10 1_555 1_555
C12_10 N3_10 1_555 1_555
C15_9 C17_9 1_555 1_555
C22_9 C23_9 1_555 1_555
Zn3_5 N1_11 1_555 1_555
N1_11 C1_11 1_555 1_555
C1_11 H1_11 1_555 1_555
C2_11 C1_11 1_555 1_555
H2_11 C2_11 1_555 1_555
C3_11 C2_11 1_555 1_555
C4_11 C3_11 1_555 1_555
O1_11 C4_11 1_555 1_555
O5_2 C4_11 1_555 1_555
C5_11 C3_11 1_555 1_555
H3_11 C5_11 1_555 1_555
C6_11 N1_11 1_555 1_555
C7_11 C6_11 1_555 1_555
C8_11 C7_11 1_555 1_555
H4_11 C8_11 1_555 1_555
N2_11 Zn3_5 1_555 1_555
N3_11 Zn3_5 1_555 1_555
C13_11 N3_11 1_555 1_555
H6_11 C13_11 1_555 1_555
O6_7 Zn3_5 1_555 1_555
C5_11 C6_11 1_555 1_555
C7_11 N2_11 1_555 1_555
C12_11 N3_11 1_555 1_555
O3_7 C16_11 1_555 1_555
O4_11 C16_11 1_555 1_555
Zn3_8 O3_7 1_555 1_555
H7_10 C14_10 1_555 1_555
O3_8 C16_12 1_555 1_555
O4_12 C16_12 1_555 1_555
Zn3_7 O3_8 1_555 1_555
Zn3_6 N1_12 1_555 1_555
N1_12 C1_12 1_555 1_555
C1_12 H1_12 1_555 1_555
C2_12 C1_12 1_555 1_555
H2_12 C2_12 1_555 1_555
C3_12 C2_12 1_555 1_555
C4_12 C3_12 1_555 1_555
O1_12 C4_12 1_555 1_555
O5 C4_12 1_555 1_555
C5_12 C3_12 1_555 1_555
H3_12 C5_12 1_555 1_555
C6_12 N1_12 1_555 1_555
C7_12 C6_12 1_555 1_555
C8_12 C7_12 1_555 1_555
H4_12 C8_12 1_555 1_555
C9_10 C8_12 1_555 1_555
C10_10 C9_10 1_555 1_555
H5_10 C10_10 1_555 1_555
C11_10 C10_10 1_555 1_555
N2_12 Zn3_6 1_555 1_555
C12_12 C11_10 1_555 1_555
N3_12 Zn3_6 1_555 1_555
C13_12 N3_12 1_555 1_555
H6_12 C13_12 1_555 1_555
C17_10 C12_12 1_555 1_555
H8_10 C17_10 1_555 1_555
C18_10 C9_10 1_555 1_555
C19_10 C18_10 1_555 1_555
H9_10 C19_10 1_555 1_555
C20_10 C19_10 1_555 1_555
H10_8 C20_10 1_555 1_555
C21_10 C20_10 1_555 1_555
H11_10 C21_10 1_555 1_555
C22_10 C21_10 1_555 1_555
H12_10 C22_10 1_555 1_555
C23_10 C18_10 1_555 1_555
C24_10 C23_10 1_555 1_555
H13_10 C24_10 1_555 1_555
H14_10 C24_10 1_555 1_555
H15_10 C24_10 1_555 1_555
O6_8 Zn3_6 1_555 1_555
C5_12 C6_12 1_555 1_555
C7_12 N2_12 1_555 1_555
C11_10 N2_12 1_555 1_555
C12_12 N3_12 1_555 1_555
C15_10 C17_10 1_555 1_555
C22_10 C23_10 1_555 1_555
Zn3_8 N1_13 1_555 1_555
N1_13 C1_13 1_555 1_555
C1_13 H1_13 1_555 1_555
C2_13 C1_13 1_555 1_555
H2_13 C2_13 1_555 1_555
C3_13 C2_13 1_555 1_555
C4_13 C3_13 1_555 1_555
O1_13 C4_13 1_555 1_555
O5_3 C4_13 1_555 1_555
C5_13 C3_13 1_555 1_555
H3_13 C5_13 1_555 1_555
C6_13 N1_13 1_555 1_555
C7_13 C6_13 1_555 1_555
C8_13 C7_13 1_555 1_555
H4_13 C8_13 1_555 1_555
C9_11 C8_13 1_555 1_555
C10_11 C9_11 1_555 1_555
H5_11 C10_11 1_555 1_555
C11_11 C10_11 1_555 1_555
N2_13 Zn3_8 1_555 1_555
C12_13 C11_11 1_555 1_555
N3_13 Zn3_8 1_555 1_555
C13_13 N3_13 1_555 1_555
H6_13 C13_13 1_555 1_555
C14_11 C13_13 1_555 1_555
H7_11 C14_11 1_555 1_555
C15_11 C14_11 1_555 1_555
C16_13 C15_11 1_555 1_555
O6_8 C16_13 1_555 1_555
O4_13 C16_13 1_555 1_555
C17_11 C12_13 1_555 1_555
H8_11 C17_11 1_555 1_555
C18_11 C9_11 1_555 1_555
C19_11 C18_11 1_555 1_555
H9_11 C19_11 1_555 1_555
C20_11 C19_11 1_555 1_555
C21_11 C20_11 1_555 1_555
H11_11 C21_11 1_555 1_555
C22_11 C21_11 1_555 1_555
H12_11 C22_11 1_555 1_555
C23_11 C18_11 1_555 1_555
C24_11 C23_11 1_555 1_555
H13_11 C24_11 1_555 1_555
H14_11 C24_11 1_555 1_555
H15_11 C24_11 1_555 1_555
C5_13 C6_13 1_555 1_555
C7_13 N2_13 1_555 1_555
C11_11 N2_13 1_555 1_555
C12_13 N3_13 1_555 1_555
C15_11 C17_11 1_555 1_555
C22_11 C23_11 1_555 1_555
Zn3_7 N1_14 1_555 1_555
N1_14 C1_14 1_555 1_555
C1_14 H1_14 1_555 1_555
C2_14 C1_14 1_555 1_555
H2_14 C2_14 1_555 1_555
C6_14 N1_14 1_555 1_555
C7_14 C6_14 1_555 1_555
C8_14 C7_14 1_555 1_555
H4_14 C8_14 1_555 1_555
C9_12 C8_14 1_555 1_555
C10_12 C9_12 1_555 1_555
H5_12 C10_12 1_555 1_555
C11_12 C10_12 1_555 1_555
N2_14 Zn3_7 1_555 1_555
C12_14 C11_12 1_555 1_555
N3_14 Zn3_7 1_555 1_555
C13_14 N3_14 1_555 1_555
H6_14 C13_14 1_555 1_555
C14_12 C13_14 1_555 1_555
H7_12 C14_12 1_555 1_555
C15_12 C14_12 1_555 1_555
C16_14 C15_12 1_555 1_555
O6_7 C16_14 1_555 1_555
O4_14 C16_14 1_555 1_555
C17_12 C12_14 1_555 1_555
H8_12 C17_12 1_555 1_555
C18_12 C9_12 1_555 1_555
H12_12 C22_12 1_555 1_555
C23_12 C18_12 1_555 1_555
C24_12 C23_12 1_555 1_555
H13_12 C24_12 1_555 1_555
H14_12 C24_12 1_555 1_555
H15_12 C24_12 1_555 1_555
C7_14 N2_14 1_555 1_555
C11_12 N2_14 1_555 1_555
C12_14 N3_14 1_555 1_555
C15_12 C17_12 1_555 1_555
C22_12 C23_12 1_555 1_555
C4_14 C3_14 1_555 1_555
O1_14 C4_14 1_555 1_555
O5_4 C4_14 1_555 1_555
C5_14 C3_14 1_555 1_555
H3_14 C5_14 1_555 1_555
H9_12 C19_12 1_555 1_555
C20_12 C19_12 1_555 1_555
C21_12 C20_12 1_555 1_555
H11_12 C21_12 1_555 1_555
Zn3 N1_15 1_555 1_555
N1_15 C1_15 1_555 1_555
C1_15 H1_15 1_555 1_555
C2_15 C1_15 1_555 1_555
H2_15 C2_15 1_555 1_555
C3_15 C2_15 1_555 1_555
C4_15 C3_15 1_555 1_555
O1_15 C4_15 1_555 1_555
O5_6 C4_15 1_555 1_555
C5_15 C3_15 1_555 1_555
H3_15 C5_15 1_555 1_555
C6_15 N1_15 1_555 1_555
C7_15 C6_15 1_555 1_555
C8_15 C7_15 1_555 1_555
H4_15 C8_15 1_555 1_555
C9_13 C8_15 1_555 1_555
C10_13 C9_13 1_555 1_555
H5_13 C10_13 1_555 1_555
C11_13 C10_13 1_555 1_555
N2_15 Zn3 1_555 1_555
C12_15 C11_13 1_555 1_555
N3_15 Zn3 1_555 1_555
C13_15 N3_15 1_555 1_555
H6_15 C13_15 1_555 1_555
C14_13 C13_15 1_555 1_555
H7_13 C14_13 1_555 1_555
C15_13 C14_13 1_555 1_555
C16_15 C15_13 1_555 1_555
O6_5 C16_15 1_555 1_555
O4_15 C16_15 1_555 1_555
C17_13 C12_15 1_555 1_555
H8_13 C17_13 1_555 1_555
C18_13 C9_13 1_555 1_555
C19_13 C18_13 1_555 1_555
H9_13 C19_13 1_555 1_555
C20_13 C19_13 1_555 1_555
H10_9 C20_13 1_555 1_555
C21_13 C20_13 1_555 1_555
H11_13 C21_13 1_555 1_555
C22_13 C21_13 1_555 1_555
H12_13 C22_13 1_555 1_555
C23_13 C18_13 1_555 1_555
C24_13 C23_13 1_555 1_555
H13_13 C24_13 1_555 1_555
H14_13 C24_13 1_555 1_555
H15_13 C24_13 1_555 1_555
C5_15 C6_15 1_555 1_555
C7_15 N2_15 1_555 1_555
C11_13 N2_15 1_555 1_555
C12_15 N3_15 1_555 1_555
C15_13 C17_13 1_555 1_555
C22_13 C23_13 1_555 1_555
Zn3_2 N1_16 1_555 1_555
N1_16 C1_16 1_555 1_555
C1_16 H1_16 1_555 1_555
C2_16 C1_16 1_555 1_555
H2_16 C2_16 1_555 1_555
C3_16 C2_16 1_555 1_555
C4_16 C3_16 1_555 1_555
O1_16 C4_16 1_555 1_555
O5_5 C4_16 1_555 1_555
C5_16 C3_16 1_555 1_555
H3_16 C5_16 1_555 1_555
C6_16 N1_16 1_555 1_555
C7_16 C6_16 1_555 1_555
C8_16 C7_16 1_555 1_555
H4_16 C8_16 1_555 1_555
N2_16 Zn3_2 1_555 1_555
N3_16 Zn3_2 1_555 1_555
C13_16 N3_16 1_555 1_555
H6_16 C13_16 1_555 1_555
C14_14 C13_16 1_555 1_555
H7_14 C14_14 1_555 1_555
C5_16 C6_16 1_555 1_555
C7_16 N2_16 1_555 1_555
C12_16 N3_16 1_555 1_555
C10_14 C9_14 1_555 1_555
H5_14 C10_14 1_555 1_555
C11_14 C10_14 1_555 1_555
C16_16 C15_14 1_555 1_555
O6_6 C16_16 1_555 1_555
O4_16 C16_16 1_555 1_555
H8_14 C17_14 1_555 1_555
C18_14 C9_14 1_555 1_555
C19_14 C18_14 1_555 1_555
H9_14 C19_14 1_555 1_555
C20_14 C19_14 1_555 1_555
H10_10 C20_14 1_555 1_555
C21_14 C20_14 1_555 1_555
H11_14 C21_14 1_555 1_555
C22_14 C21_14 1_555 1_555
H12_14 C22_14 1_555 1_555
C23_14 C18_14 1_555 1_555
C24_14 C23_14 1_555 1_555
H13_14 C24_14 1_555 1_555
H14_14 C24_14 1_555 1_555
H15_14 C24_14 1_555 1_555
C15_14 C17_14 1_555 1_555
C22_14 C23_14 1_555 1_555
H7_15 C14_15 1_555 1_555
C10_15 C9_15 1_555 1_555
H5_15 C10_15 1_555 1_555
C11_15 C10_15 1_555 1_555
H8_15 C17_15 1_555 1_555
C18_15 C9_15 1_555 1_555
C19_15 C18_15 1_555 1_555
H9_15 C19_15 1_555 1_555
C20_15 C19_15 1_555 1_555
H10_11 C20_15 1_555 1_555
C21_15 C20_15 1_555 1_555
H11_15 C21_15 1_555 1_555
C22_15 C21_15 1_555 1_555
H12_15 C22_15 1_555 1_555
C23_15 C18_15 1_555 1_555
C24_15 C23_15 1_555 1_555
H13_15 C24_15 1_555 1_555
H14_15 C24_15 1_555 1_555
H15_15 C24_15 1_555 1_555
C15_15 C17_15 1_555 1_555
C22_15 C23_15 1_555 1_555
Zn1_5 N1_17 1_555 1_555
N1_17 C1_17 1_555 1_555
C1_17 H1_17 1_555 1_555
C2_17 C1_17 1_555 1_555
H2_17 C2_17 1_555 1_555
C3_17 C2_17 1_555 1_555
C4_17 C3_17 1_555 1_555
O1_17 C4_17 1_555 1_555
O2_9 C4_17 1_555 1_555
C5_17 C3_17 1_555 1_555
H3_17 C5_17 1_555 1_555
C6_17 N1_17 1_555 1_555
C7_17 C6_17 1_555 1_555
C8_17 C7_17 1_555 1_555
H4_17 C8_17 1_555 1_555
C9_16 C8_17 1_555 1_555
C10_16 C9_16 1_555 1_555
H5_16 C10_16 1_555 1_555
C11_16 C10_16 1_555 1_555
N2_17 Zn1_5 1_555 1_555
C12_17 C11_16 1_555 1_555
N3_17 Zn1_5 1_555 1_555
C13_17 N3_17 1_555 1_555
H6_17 C13_17 1_555 1_555
C14_16 C13_17 1_555 1_555
H7_16 C14_16 1_555 1_555
C15_16 C14_16 1_555 1_555
C16_17 C15_16 1_555 1_555
O3_9 C16_17 1_555 1_555
O4_17 C16_17 1_555 1_555
C17_16 C12_17 1_555 1_555
H8_16 C17_16 1_555 1_555
C18_16 C9_16 1_555 1_555
C19_16 C18_16 1_555 1_555
H9_16 C19_16 1_555 1_555
C20_16 C19_16 1_555 1_555
H10_12 C20_16 1_555 1_555
C21_16 C20_16 1_555 1_555
H11_16 C21_16 1_555 1_555
C22_16 C21_16 1_555 1_555
H12_16 C22_16 1_555 1_555
C23_16 C18_16 1_555 1_555
C24_16 C23_16 1_555 1_555
H13_16 C24_16 1_555 1_555
H14_16 C24_16 1_555 1_555
H15_16 C24_16 1_555 1_555
Zn2_5 O3_9 1_555 1_555
Zn3_9 O2_9 1_555 1_555
O5_9 Zn1_5 1_555 1_555
O6_9 Zn1_5 1_555 1_555
C5_17 C6_17 1_555 1_555
C7_17 N2_17 1_555 1_555
C11_16 N2_17 1_555 1_555
C12_17 N3_17 1_555 1_555
C15_16 C17_16 1_555 1_555
C22_16 C23_16 1_555 1_555
Zn1_6 N1_18 1_555 1_555
N1_18 C1_18 1_555 1_555
C1_18 H1_18 1_555 1_555
C2_18 C1_18 1_555 1_555
H2_18 C2_18 1_555 1_555
C6_18 N1_18 1_555 1_555
C7_18 C6_18 1_555 1_555
C8_18 C7_18 1_555 1_555
H4_18 C8_18 1_555 1_555
C9_17 C8_18 1_555 1_555
C10_17 C9_17 1_555 1_555
H5_17 C10_17 1_555 1_555
C11_17 C10_17 1_555 1_555
N2_18 Zn1_6 1_555 1_555
C12_18 C11_17 1_555 1_555
N3_18 Zn1_6 1_555 1_555
C13_18 N3_18 1_555 1_555
H6_18 C13_18 1_555 1_555
C14_17 C13_18 1_555 1_555
H7_17 C14_17 1_555 1_555
C15_17 C14_17 1_555 1_555
C16_18 C15_17 1_555 1_555
O3_10 C16_18 1_555 1_555
O4_18 C16_18 1_555 1_555
C17_17 C12_18 1_555 1_555
H8_17 C17_17 1_555 1_555
C18_17 C9_17 1_555 1_555
H12_17 C22_17 1_555 1_555
C23_17 C18_17 1_555 1_555
C24_17 C23_17 1_555 1_555
H13_17 C24_17 1_555 1_555
H14_17 C24_17 1_555 1_555
H15_17 C24_17 1_555 1_555
Zn2_6 O3_10 1_555 1_555
O5_10 Zn1_6 1_555 1_555
O6_10 Zn1_6 1_555 1_555
C7_18 N2_18 1_555 1_555
C11_17 N2_18 1_555 1_555
C12_18 N3_18 1_555 1_555
C15_17 C17_17 1_555 1_555
C22_17 C23_17 1_555 1_555
C4_18 C3_18 1_555 1_555
O1_18 C4_18 1_555 1_555
O2_10 C4_18 1_555 1_555
C5_18 C3_18 1_555 1_555
H3_18 C5_18 1_555 1_555
H9_17 C19_17 1_555 1_555
C20_17 C19_17 1_555 1_555
H10_13 C20_17 1_555 1_555
C21_17 C20_17 1_555 1_555
H11_17 C21_17 1_555 1_555
Zn3_10 O2_10 1_555 1_555
O3_11 C16_19 1_555 1_555
O4_19 C16_19 1_555 1_555
Zn2_7 O3_11 1_555 1_555
Zn1_7 N1_19 1_555 1_555
N1_19 C1_19 1_555 1_555
C1_19 H1_19 1_555 1_555
C2_19 C1_19 1_555 1_555
H2_19 C2_19 1_555 1_555
C3_19 C2_19 1_555 1_555
C4_19 C3_19 1_555 1_555
O1_19 C4_19 1_555 1_555
O2_11 C4_19 1_555 1_555
C5_19 C3_19 1_555 1_555
H3_19 C5_19 1_555 1_555
C6_19 N1_19 1_555 1_555
C7_19 C6_19 1_555 1_555
C8_19 C7_19 1_555 1_555
H4_19 C8_19 1_555 1_555
N2_19 Zn1_7 1_555 1_555
N3_19 Zn1_7 1_555 1_555
C13_19 N3_19 1_555 1_555
H6_19 C13_19 1_555 1_555
Zn3_11 O2_11 1_555 1_555
O5_11 Zn1_7 1_555 1_555
O6_11 Zn1_7 1_555 1_555
C5_19 C6_19 1_555 1_555
C7_19 N2_19 1_555 1_555
C12_19 N3_19 1_555 1_555
Zn1_8 N1_20 1_555 1_555
N1_20 C1_20 1_555 1_555
C1_20 H1_20 1_555 1_555
C2_20 C1_20 1_555 1_555
H2_20 C2_20 1_555 1_555
C3_20 C2_20 1_555 1_555
C4_20 C3_20 1_555 1_555
O1_20 C4_20 1_555 1_555
O2_12 C4_20 1_555 1_555
C5_20 C3_20 1_555 1_555
H3_20 C5_20 1_555 1_555
C6_20 N1_20 1_555 1_555
C7_20 C6_20 1_555 1_555
C8_20 C7_20 1_555 1_555
H4_20 C8_20 1_555 1_555
C9_18 C8_20 1_555 1_555
C10_18 C9_18 1_555 1_555
H5_18 C10_18 1_555 1_555
C11_18 C10_18 1_555 1_555
N2_20 Zn1_8 1_555 1_555
C12_20 C11_18 1_555 1_555
N3_20 Zn1_8 1_555 1_555
C13_20 N3_20 1_555 1_555
H6_20 C13_20 1_555 1_555
C17_18 C12_20 1_555 1_555
H8_18 C17_18 1_555 1_555
C18_18 C9_18 1_555 1_555
C19_18 C18_18 1_555 1_555
H9_18 C19_18 1_555 1_555
C20_18 C19_18 1_555 1_555
H10_14 C20_18 1_555 1_555
C21_18 C20_18 1_555 1_555
H11_18 C21_18 1_555 1_555
C22_18 C21_18 1_555 1_555
H12_18 C22_18 1_555 1_555
C23_18 C18_18 1_555 1_555
C24_18 C23_18 1_555 1_555
H13_18 C24_18 1_555 1_555
H14_18 C24_18 1_555 1_555
H15_18 C24_18 1_555 1_555
Zn3_12 O2_12 1_555 1_555
O5_12 Zn1_8 1_555 1_555
O6_12 Zn1_8 1_555 1_555
C5_20 C6_20 1_555 1_555
C7_20 N2_20 1_555 1_555
C11_18 N2_20 1_555 1_555
C12_20 N3_20 1_555 1_555
C15_18 C17_18 1_555 1_555
C22_18 C23_18 1_555 1_555
H7_18 C14_18 1_555 1_555
O3_12 C16_20 1_555 1_555
O4_20 C16_20 1_555 1_555
Zn2_8 O3_12 1_555 1_555
C4_21 C3_21 1_555 1_555
O1_21 C4_21 1_555 1_555
O2_13 C4_21 1_555 1_555
C5_21 C3_21 1_555 1_555
H3_21 C5_21 1_555 1_555
H9_19 C19_19 1_555 1_555
C20_19 C19_19 1_555 1_555
C21_19 C20_19 1_555 1_555
H11_19 C21_19 1_555 1_555
Zn3_13 O2_13 1_555 1_555
Zn2_7 N1_21 1_555 1_555
N1_21 C1_21 1_555 1_555
C1_21 H1_21 1_555 1_555
C2_21 C1_21 1_555 1_555
H2_21 C2_21 1_555 1_555
C6_21 N1_21 1_555 1_555
C7_21 C6_21 1_555 1_555
C8_21 C7_21 1_555 1_555
H4_21 C8_21 1_555 1_555
C9_19 C8_21 1_555 1_555
C10_19 C9_19 1_555 1_555
H5_19 C10_19 1_555 1_555
C11_19 C10_19 1_555 1_555
N2_21 Zn2_7 1_555 1_555
C12_21 C11_19 1_555 1_555
N3_21 Zn2_7 1_555 1_555
C13_21 N3_21 1_555 1_555
H6_21 C13_21 1_555 1_555
C14_19 C13_21 1_555 1_555
H7_19 C14_19 1_555 1_555
C15_19 C14_19 1_555 1_555
C16_21 C15_19 1_555 1_555
O6_12 C16_21 1_555 1_555
O4_21 C16_21 1_555 1_555
C17_19 C12_21 1_555 1_555
H8_19 C17_19 1_555 1_555
C18_19 C9_19 1_555 1_555
H12_19 C22_19 1_555 1_555
C23_19 C18_19 1_555 1_555
C24_19 C23_19 1_555 1_555
H13_19 C24_19 1_555 1_555
H14_19 C24_19 1_555 1_555
H15_19 C24_19 1_555 1_555
O5_13 Zn2_7 1_555 1_555
C7_21 N2_21 1_555 1_555
C11_19 N2_21 1_555 1_555
C12_21 N3_21 1_555 1_555
C15_19 C17_19 1_555 1_555
C22_19 C23_19 1_555 1_555
Zn2_8 N1_22 1_555 1_555
N1_22 C1_22 1_555 1_555
C1_22 H1_22 1_555 1_555
C2_22 C1_22 1_555 1_555
H2_22 C2_22 1_555 1_555
C3_22 C2_22 1_555 1_555
C4_22 C3_22 1_555 1_555
O1_22 C4_22 1_555 1_555
O2_14 C4_22 1_555 1_555
C5_22 C3_22 1_555 1_555
H3_22 C5_22 1_555 1_555
C6_22 N1_22 1_555 1_555
C7_22 C6_22 1_555 1_555
C8_22 C7_22 1_555 1_555
H4_22 C8_22 1_555 1_555
C9_20 C8_22 1_555 1_555
C10_20 C9_20 1_555 1_555
H5_20 C10_20 1_555 1_555
C11_20 C10_20 1_555 1_555
N2_22 Zn2_8 1_555 1_555
C12_22 C11_20 1_555 1_555
N3_22 Zn2_8 1_555 1_555
C13_22 N3_22 1_555 1_555
H6_22 C13_22 1_555 1_555
C14_20 C13_22 1_555 1_555
H7_20 C14_20 1_555 1_555
C15_20 C14_20 1_555 1_555
C16_22 C15_20 1_555 1_555
O6_11 C16_22 1_555 1_555
O4_22 C16_22 1_555 1_555
C17_20 C12_22 1_555 1_555
H8_20 C17_20 1_555 1_555
C18_20 C9_20 1_555 1_555
C19_20 C18_20 1_555 1_555
H9_20 C19_20 1_555 1_555
C20_20 C19_20 1_555 1_555
C21_20 C20_20 1_555 1_555
H11_20 C21_20 1_555 1_555
C22_20 C21_20 1_555 1_555
H12_20 C22_20 1_555 1_555
C23_20 C18_20 1_555 1_555
C24_20 C23_20 1_555 1_555
H13_20 C24_20 1_555 1_555
H14_20 C24_20 1_555 1_555
H15_20 C24_20 1_555 1_555
Zn3_14 O2_14 1_555 1_555
O5_14 Zn2_8 1_555 1_555
C5_22 C6_22 1_555 1_555
C7_22 N2_22 1_555 1_555
C11_20 N2_22 1_555 1_555
C12_22 N3_22 1_555 1_555
C15_20 C17_20 1_555 1_555
C22_20 C23_20 1_555 1_555
Zn2_6 N1_23 1_555 1_555
N1_23 C1_23 1_555 1_555
C1_23 H1_23 1_555 1_555
C2_23 C1_23 1_555 1_555
H2_23 C2_23 1_555 1_555
C3_23 C2_23 1_555 1_555
C4_23 C3_23 1_555 1_555
O1_23 C4_23 1_555 1_555
O2_15 C4_23 1_555 1_555
C5_23 C3_23 1_555 1_555
H3_23 C5_23 1_555 1_555
C6_23 N1_23 1_555 1_555
C7_23 C6_23 1_555 1_555
C8_23 C7_23 1_555 1_555
H4_23 C8_23 1_555 1_555
C9_21 C8_23 1_555 1_555
C10_21 C9_21 1_555 1_555
H5_21 C10_21 1_555 1_555
C11_21 C10_21 1_555 1_555
N2_23 Zn2_6 1_555 1_555
C12_23 C11_21 1_555 1_555
N3_23 Zn2_6 1_555 1_555
C13_23 N3_23 1_555 1_555
H6_23 C13_23 1_555 1_555
C14_21 C13_23 1_555 1_555
H7_21 C14_21 1_555 1_555
C15_21 C14_21 1_555 1_555
C16_23 C15_21 1_555 1_555
O6_9 C16_23 1_555 1_555
O4_23 C16_23 1_555 1_555
C17_21 C12_23 1_555 1_555
H8_21 C17_21 1_555 1_555
C18_21 C9_21 1_555 1_555
C19_21 C18_21 1_555 1_555
H9_21 C19_21 1_555 1_555
C20_21 C19_21 1_555 1_555
H10_15 C20_21 1_555 1_555
C21_21 C20_21 1_555 1_555
H11_21 C21_21 1_555 1_555
C22_21 C21_21 1_555 1_555
H12_21 C22_21 1_555 1_555
C23_21 C18_21 1_555 1_555
C24_21 C23_21 1_555 1_555
H13_21 C24_21 1_555 1_555
H14_21 C24_21 1_555 1_555
H15_21 C24_21 1_555 1_555
Zn3_15 O2_15 1_555 1_555
O5_15 Zn2_6 1_555 1_555
C5_23 C6_23 1_555 1_555
C7_23 N2_23 1_555 1_555
C11_21 N2_23 1_555 1_555
C12_23 N3_23 1_555 1_555
C15_21 C17_21 1_555 1_555
C22_21 C23_21 1_555 1_555
Zn2_5 N1_24 1_555 1_555
N1_24 C1_24 1_555 1_555
C1_24 H1_24 1_555 1_555
C2_24 C1_24 1_555 1_555
H2_24 C2_24 1_555 1_555
C3_24 C2_24 1_555 1_555
C4_24 C3_24 1_555 1_555
O1_24 C4_24 1_555 1_555
O2_16 C4_24 1_555 1_555
C5_24 C3_24 1_555 1_555
H3_24 C5_24 1_555 1_555
C6_24 N1_24 1_555 1_555
C7_24 C6_24 1_555 1_555
C8_24 C7_24 1_555 1_555
H4_24 C8_24 1_555 1_555
N2_24 Zn2_5 1_555 1_555
N3_24 Zn2_5 1_555 1_555
C13_24 N3_24 1_555 1_555
H6_24 C13_24 1_555 1_555
C14_22 C13_24 1_555 1_555
H7_22 C14_22 1_555 1_555
Zn3_16 O2_16 1_555 1_555
O5_16 Zn2_5 1_555 1_555
C5_24 C6_24 1_555 1_555
C7_24 N2_24 1_555 1_555
C12_24 N3_24 1_555 1_555
C10_22 C9_22 1_555 1_555
H5_22 C10_22 1_555 1_555
C11_22 C10_22 1_555 1_555
C16_24 C15_22 1_555 1_555
O6_10 C16_24 1_555 1_555
O4_24 C16_24 1_555 1_555
H8_22 C17_22 1_555 1_555
C18_22 C9_22 1_555 1_555
C19_22 C18_22 1_555 1_555
H9_22 C19_22 1_555 1_555
C20_22 C19_22 1_555 1_555
H10_16 C20_22 1_555 1_555
C21_22 C20_22 1_555 1_555
H11_22 C21_22 1_555 1_555
C22_22 C21_22 1_555 1_555
H12_22 C22_22 1_555 1_555
C23_22 C18_22 1_555 1_555
C24_22 C23_22 1_555 1_555
H13_22 C24_22 1_555 1_555
H14_22 C24_22 1_555 1_555
H15_22 C24_22 1_555 1_555
C15_22 C17_22 1_555 1_555
C22_22 C23_22 1_555 1_555
Zn3_12 N1_25 1_555 1_555
N1_25 C1_25 1_555 1_555
C1_25 H1_25 1_555 1_555
C2_25 C1_25 1_555 1_555
H2_25 C2_25 1_555 1_555
C3_25 C2_25 1_555 1_555
C4_25 C3_25 1_555 1_555
O1_25 C4_25 1_555 1_555
O5_15 C4_25 1_555 1_555
C5_25 C3_25 1_555 1_555
H3_25 C5_25 1_555 1_555
C6_25 N1_25 1_555 1_555
C7_25 C6_25 1_555 1_555
C8_25 C7_25 1_555 1_555
H4_25 C8_25 1_555 1_555
C9_23 C8_25 1_555 1_555
C10_23 C9_23 1_555 1_555
H5_23 C10_23 1_555 1_555
C11_23 C10_23 1_555 1_555
N2_25 Zn3_12 1_555 1_555
C12_25 C11_23 1_555 1_555
N3_25 Zn3_12 1_555 1_555
C13_25 N3_25 1_555 1_555
H6_25 C13_25 1_555 1_555
C14_23 C13_25 1_555 1_555
H7_23 C14_23 1_555 1_555
C15_23 C14_23 1_555 1_555
C16_25 C15_23 1_555 1_555
O3_13 C16_25 1_555 1_555
O4_25 C16_25 1_555 1_555
C17_23 C12_25 1_555 1_555
H8_23 C17_23 1_555 1_555
C18_23 C9_23 1_555 1_555
C19_23 C18_23 1_555 1_555
H9_23 C19_23 1_555 1_555
C20_23 C19_23 1_555 1_555
H10_17 C20_23 1_555 1_555
C21_23 C20_23 1_555 1_555
H11_23 C21_23 1_555 1_555
C22_23 C21_23 1_555 1_555
H12_23 C22_23 1_555 1_555
C23_23 C18_23 1_555 1_555
C24_23 C23_23 1_555 1_555
H13_23 C24_23 1_555 1_555
H14_23 C24_23 1_555 1_555
H15_23 C24_23 1_555 1_555
Zn3_10 O3_13 1_555 1_555
O6_13 Zn3_12 1_555 1_555
C5_25 C6_25 1_555 1_555
C7_25 N2_25 1_555 1_555
C11_23 N2_25 1_555 1_555
C12_25 N3_25 1_555 1_555
C15_23 C17_23 1_555 1_555
C22_23 C23_23 1_555 1_555
C4_26 C3_26 1_555 1_555
O1_26 C4_26 1_555 1_555
O5_16 C4_26 1_555 1_555
C5_26 C3_26 1_555 1_555
H3_26 C5_26 1_555 1_555
H9_24 C19_24 1_555 1_555
C20_24 C19_24 1_555 1_555
H10_18 C20_24 1_555 1_555
C21_24 C20_24 1_555 1_555
H11_24 C21_24 1_555 1_555
Zn3_11 N1_26 1_555 1_555
N1_26 C1_26 1_555 1_555
C1_26 H1_26 1_555 1_555
C2_26 C1_26 1_555 1_555
H2_26 C2_26 1_555 1_555
C6_26 N1_26 1_555 1_555
C7_26 C6_26 1_555 1_555
C8_26 C7_26 1_555 1_555
H4_26 C8_26 1_555 1_555
C9_24 C8_26 1_555 1_555
C10_24 C9_24 1_555 1_555
H5_24 C10_24 1_555 1_555
C11_24 C10_24 1_555 1_555
N2_26 Zn3_11 1_555 1_555
C12_26 C11_24 1_555 1_555
N3_26 Zn3_11 1_555 1_555
C13_26 N3_26 1_555 1_555
H6_26 C13_26 1_555 1_555
C14_24 C13_26 1_555 1_555
H7_24 C14_24 1_555 1_555
C15_24 C14_24 1_555 1_555
C16_26 C15_24 1_555 1_555
O3_14 C16_26 1_555 1_555
O4_26 C16_26 1_555 1_555
C17_24 C12_26 1_555 1_555
H8_24 C17_24 1_555 1_555
C18_24 C9_24 1_555 1_555
H12_24 C22_24 1_555 1_555
C23_24 C18_24 1_555 1_555
C24_24 C23_24 1_555 1_555
H13_24 C24_24 1_555 1_555
H14_24 C24_24 1_555 1_555
H15_24 C24_24 1_555 1_555
Zn3_9 O3_14 1_555 1_555
O6_14 Zn3_11 1_555 1_555
C7_26 N2_26 1_555 1_555
C11_24 N2_26 1_555 1_555
C12_26 N3_26 1_555 1_555
C15_24 C17_24 1_555 1_555
C22_24 C23_24 1_555 1_555
Zn3_13 N1_27 1_555 1_555
N1_27 C1_27 1_555 1_555
C1_27 H1_27 1_555 1_555
C2_27 C1_27 1_555 1_555
H2_27 C2_27 1_555 1_555
C3_27 C2_27 1_555 1_555
C4_27 C3_27 1_555 1_555
O1_27 C4_27 1_555 1_555
O5_10 C4_27 1_555 1_555
C5_27 C3_27 1_555 1_555
H3_27 C5_27 1_555 1_555
C6_27 N1_27 1_555 1_555
C7_27 C6_27 1_555 1_555
C8_27 C7_27 1_555 1_555
H4_27 C8_27 1_555 1_555
N2_27 Zn3_13 1_555 1_555
N3_27 Zn3_13 1_555 1_555
C13_27 N3_27 1_555 1_555
H6_27 C13_27 1_555 1_555
O6_15 Zn3_13 1_555 1_555
C5_27 C6_27 1_555 1_555
C7_27 N2_27 1_555 1_555
C12_27 N3_27 1_555 1_555
O3_15 C16_27 1_555 1_555
O4_27 C16_27 1_555 1_555
Zn3_16 O3_15 1_555 1_555
H7_25 C14_25 1_555 1_555
O3_16 C16_28 1_555 1_555
O4_28 C16_28 1_555 1_555
Zn3_15 O3_16 1_555 1_555
Zn3_14 N1_28 1_555 1_555
N1_28 C1_28 1_555 1_555
C1_28 H1_28 1_555 1_555
C2_28 C1_28 1_555 1_555
H2_28 C2_28 1_555 1_555
C3_28 C2_28 1_555 1_555
C4_28 C3_28 1_555 1_555
O1_28 C4_28 1_555 1_555
O5_9 C4_28 1_555 1_555
C5_28 C3_28 1_555 1_555
H3_28 C5_28 1_555 1_555
C6_28 N1_28 1_555 1_555
C7_28 C6_28 1_555 1_555
C8_28 C7_28 1_555 1_555
H4_28 C8_28 1_555 1_555
C9_25 C8_28 1_555 1_555
C10_25 C9_25 1_555 1_555
H5_25 C10_25 1_555 1_555
C11_25 C10_25 1_555 1_555
N2_28 Zn3_14 1_555 1_555
C12_28 C11_25 1_555 1_555
N3_28 Zn3_14 1_555 1_555
C13_28 N3_28 1_555 1_555
H6_28 C13_28 1_555 1_555
C17_25 C12_28 1_555 1_555
H8_25 C17_25 1_555 1_555
C18_25 C9_25 1_555 1_555
C19_25 C18_25 1_555 1_555
H9_25 C19_25 1_555 1_555
C20_25 C19_25 1_555 1_555
H10_19 C20_25 1_555 1_555
C21_25 C20_25 1_555 1_555
H11_25 C21_25 1_555 1_555
C22_25 C21_25 1_555 1_555
H12_25 C22_25 1_555 1_555
C23_25 C18_25 1_555 1_555
C24_25 C23_25 1_555 1_555
H13_25 C24_25 1_555 1_555
H14_25 C24_25 1_555 1_555
H15_25 C24_25 1_555 1_555
O6_16 Zn3_14 1_555 1_555
C5_28 C6_28 1_555 1_555
C7_28 N2_28 1_555 1_555
C11_25 N2_28 1_555 1_555
C12_28 N3_28 1_555 1_555
C15_25 C17_25 1_555 1_555
C22_25 C23_25 1_555 1_555
Zn3_16 N1_29 1_555 1_555
N1_29 C1_29 1_555 1_555
C1_29 H1_29 1_555 1_555
C2_29 C1_29 1_555 1_555
H2_29 C2_29 1_555 1_555
C6_29 N1_29 1_555 1_555
C7_29 C6_29 1_555 1_555
C8_29 C7_29 1_555 1_555
H4_29 C8_29 1_555 1_555
C9_26 C8_29 1_555 1_555
C10_26 C9_26 1_555 1_555
H5_26 C10_26 1_555 1_555
C11_26 C10_26 1_555 1_555
N2_29 Zn3_16 1_555 1_555
C12_29 C11_26 1_555 1_555
N3_29 Zn3_16 1_555 1_555
C13_29 N3_29 1_555 1_555
H6_29 C13_29 1_555 1_555
C14_26 C13_29 1_555 1_555
H7_26 C14_26 1_555 1_555
C15_26 C14_26 1_555 1_555
C16_29 C15_26 1_555 1_555
O6_16 C16_29 1_555 1_555
O4_29 C16_29 1_555 1_555
C17_26 C12_29 1_555 1_555
H8_26 C17_26 1_555 1_555
C18_26 C9_26 1_555 1_555
H12_26 C22_26 1_555 1_555
C23_26 C18_26 1_555 1_555
C24_26 C23_26 1_555 1_555
H13_26 C24_26 1_555 1_555
H14_26 C24_26 1_555 1_555
H15_26 C24_26 1_555 1_555
C7_29 N2_29 1_555 1_555
C11_26 N2_29 1_555 1_555
C12_29 N3_29 1_555 1_555
C15_26 C17_26 1_555 1_555
C22_26 C23_26 1_555 1_555
C4_29 C3_29 1_555 1_555
O1_29 C4_29 1_555 1_555
O5_11 C4_29 1_555 1_555
C5_29 C3_29 1_555 1_555
H3_29 C5_29 1_555 1_555
H9_26 C19_26 1_555 1_555
C20_26 C19_26 1_555 1_555
C21_26 C20_26 1_555 1_555
H11_26 C21_26 1_555 1_555
Zn3_15 N1_30 1_555 1_555
N1_30 C1_30 1_555 1_555
C1_30 H1_30 1_555 1_555
C2_30 C1_30 1_555 1_555
H2_30 C2_30 1_555 1_555
C3_30 C2_30 1_555 1_555
C4_30 C3_30 1_555 1_555
O1_30 C4_30 1_555 1_555
O5_12 C4_30 1_555 1_555
C5_30 C3_30 1_555 1_555
H3_30 C5_30 1_555 1_555
C6_30 N1_30 1_555 1_555
C7_30 C6_30 1_555 1_555
C8_30 C7_30 1_555 1_555
H4_30 C8_30 1_555 1_555
C9_27 C8_30 1_555 1_555
C10_27 C9_27 1_555 1_555
H5_27 C10_27 1_555 1_555
C11_27 C10_27 1_555 1_555
N2_30 Zn3_15 1_555 1_555
C12_30 C11_27 1_555 1_555
N3_30 Zn3_15 1_555 1_555
C13_30 N3_30 1_555 1_555
H6_30 C13_30 1_555 1_555
C14_27 C13_30 1_555 1_555
H7_27 C14_27 1_555 1_555
C15_27 C14_27 1_555 1_555
C16_30 C15_27 1_555 1_555
O6_15 C16_30 1_555 1_555
O4_30 C16_30 1_555 1_555
C17_27 C12_30 1_555 1_555
H8_27 C17_27 1_555 1_555
C18_27 C9_27 1_555 1_555
C19_27 C18_27 1_555 1_555
H9_27 C19_27 1_555 1_555
C20_27 C19_27 1_555 1_555
C21_27 C20_27 1_555 1_555
H11_27 C21_27 1_555 1_555
C22_27 C21_27 1_555 1_555
H12_27 C22_27 1_555 1_555
C23_27 C18_27 1_555 1_555
C24_27 C23_27 1_555 1_555
H13_27 C24_27 1_555 1_555
H14_27 C24_27 1_555 1_555
H15_27 C24_27 1_555 1_555
C5_30 C6_30 1_555 1_555
C7_30 N2_30 1_555 1_555
C11_27 N2_30 1_555 1_555
C12_30 N3_30 1_555 1_555
C15_27 C17_27 1_555 1_555
C22_27 C23_27 1_555 1_555
Zn3_9 N1_31 1_555 1_555
N1_31 C1_31 1_555 1_555
C1_31 H1_31 1_555 1_555
C2_31 C1_31 1_555 1_555
H2_31 C2_31 1_555 1_555
C3_31 C2_31 1_555 1_555
C4_31 C3_31 1_555 1_555
O1_31 C4_31 1_555 1_555
O5_14 C4_31 1_555 1_555
C5_31 C3_31 1_555 1_555
H3_31 C5_31 1_555 1_555
C6_31 N1_31 1_555 1_555
C7_31 C6_31 1_555 1_555
C8_31 C7_31 1_555 1_555
H4_31 C8_31 1_555 1_555
C9_28 C8_31 1_555 1_555
C10_28 C9_28 1_555 1_555
H5_28 C10_28 1_555 1_555
C11_28 C10_28 1_555 1_555
N2_31 Zn3_9 1_555 1_555
C12_31 C11_28 1_555 1_555
N3_31 Zn3_9 1_555 1_555
C13_31 N3_31 1_555 1_555
H6_31 C13_31 1_555 1_555
C14_28 C13_31 1_555 1_555
H7_28 C14_28 1_555 1_555
C15_28 C14_28 1_555 1_555
C16_31 C15_28 1_555 1_555
O6_13 C16_31 1_555 1_555
O4_31 C16_31 1_555 1_555
C17_28 C12_31 1_555 1_555
H8_28 C17_28 1_555 1_555
C18_28 C9_28 1_555 1_555
C19_28 C18_28 1_555 1_555
H9_28 C19_28 1_555 1_555
C20_28 C19_28 1_555 1_555
H10_20 C20_28 1_555 1_555
C21_28 C20_28 1_555 1_555
H11_28 C21_28 1_555 1_555
C22_28 C21_28 1_555 1_555
H12_28 C22_28 1_555 1_555
C23_28 C18_28 1_555 1_555
C24_28 C23_28 1_555 1_555
H13_28 C24_28 1_555 1_555
H14_28 C24_28 1_555 1_555
H15_28 C24_28 1_555 1_555
C5_31 C6_31 1_555 1_555
C7_31 N2_31 1_555 1_555
C11_28 N2_31 1_555 1_555
C12_31 N3_31 1_555 1_555
C15_28 C17_28 1_555 1_555
C22_28 C23_28 1_555 1_555
C10_29 C9_29 1_555 1_555
H5_29 C10_29 1_555 1_555
C11_29 C10_29 1_555 1_555
C16_32 C15_29 1_555 1_555
O6_14 C16_32 1_555 1_555
O4_32 C16_32 1_555 1_555
H8_29 C17_29 1_555 1_555
C18_29 C9_29 1_555 1_555
C19_29 C18_29 1_555 1_555
H9_29 C19_29 1_555 1_555
C20_29 C19_29 1_555 1_555
H10_21 C20_29 1_555 1_555
C21_29 C20_29 1_555 1_555
H11_29 C21_29 1_555 1_555
C22_29 C21_29 1_555 1_555
H12_29 C22_29 1_555 1_555
C23_29 C18_29 1_555 1_555
C24_29 C23_29 1_555 1_555
H13_29 C24_29 1_555 1_555
H14_29 C24_29 1_555 1_555
H15_29 C24_29 1_555 1_555
C15_29 C17_29 1_555 1_555
C22_29 C23_29 1_555 1_555
Zn3_10 N1_32 1_555 1_555
N1_32 C1_32 1_555 1_555
C1_32 H1_32 1_555 1_555
C2_32 C1_32 1_555 1_555
H2_32 C2_32 1_555 1_555
C3_32 C2_32 1_555 1_555
C4_32 C3_32 1_555 1_555
O1_32 C4_32 1_555 1_555
O5_13 C4_32 1_555 1_555
C5_32 C3_32 1_555 1_555
H3_32 C5_32 1_555 1_555
C6_32 N1_32 1_555 1_555
C7_32 C6_32 1_555 1_555
C8_32 C7_32 1_555 1_555
H4_32 C8_32 1_555 1_555
N2_32 Zn3_10 1_555 1_555
N3_32 Zn3_10 1_555 1_555
C13_32 N3_32 1_555 1_555
H6_32 C13_32 1_555 1_555
C14_29 C13_32 1_555 1_555
H7_29 C14_29 1_555 1_555
C5_32 C6_32 1_555 1_555
C7_32 N2_32 1_555 1_555
C12_32 N3_32 1_555 1_555
H7_30 C14_30 1_555 1_555
C10_30 C9_30 1_555 1_555
H5_30 C10_30 1_555 1_555
C11_30 C10_30 1_555 1_555
H8_30 C17_30 1_555 1_555
C18_30 C9_30 1_555 1_555
C19_30 C18_30 1_555 1_555
H9_30 C19_30 1_555 1_555
C20_30 C19_30 1_555 1_555
H10_22 C20_30 1_555 1_555
C21_30 C20_30 1_555 1_555
H11_30 C21_30 1_555 1_555
C22_30 C21_30 1_555 1_555
H12_30 C22_30 1_555 1_555
C23_30 C18_30 1_555 1_555
C24_30 C23_30 1_555 1_555
H13_30 C24_30 1_555 1_555
H14_30 C24_30 1_555 1_555
H15_30 C24_30 1_555 1_555
C15_30 C17_30 1_555 1_555
C22_30 C23_30 1_555 1_555
C10_31 C9_31 1_555 1_555
H5_31 C10_31 1_555 1_555
C11_31 C10_31 1_555 1_555
H8_31 C17_31 1_555 1_555
C18_31 C9_31 1_555 1_555
C19_31 C18_31 1_555 1_555
H9_31 C19_31 1_555 1_555
C20_31 C19_31 1_555 1_555
H10_27 C20_31 1_555 1_555
C21_31 C20_31 1_555 1_555
H11_31 C21_31 1_555 1_555
C22_31 C21_31 1_555 1_555
H12_31 C22_31 1_555 1_555
C23_31 C18_31 1_555 1_555
C24_31 C23_31 1_555 1_555
H13_31 C24_31 1_555 1_555
H14_31 C24_31 1_555 1_555
H15_31 C24_31 1_555 1_555
C15_31 C17_31 1_555 1_555
C22_31 C23_31 1_555 1_555
H7_31 C14_31 1_555 1_555
C10_32 C9_32 1_555 1_555
H5_32 C10_32 1_555 1_555
C11_32 C10_32 1_555 1_555
H8_32 C17_32 1_555 1_555
C18_32 C9_32 1_555 1_555
C19_32 C18_32 1_555 1_555
H9_32 C19_32 1_555 1_555
C20_32 C19_32 1_555 1_555
H10_28 C20_32 1_555 1_555
C21_32 C20_32 1_555 1_555
H11_32 C21_32 1_555 1_555
C22_32 C21_32 1_555 1_555
H12_32 C22_32 1_555 1_555
C23_32 C18_32 1_555 1_555
C24_32 C23_32 1_555 1_555
H13_32 C24_32 1_555 1_555
H14_32 C24_32 1_555 1_555
H15_32 C24_32 1_555 1_555
C15_32 C17_32 1_555 1_555
C22_32 C23_32 1_555 1_555
H7_32 C14_32 1_555 1_555

#END
