
###############################################################################
#
# This file contains modified crystal structure data generated from the
# MOF subset of the Cambridge Structural Database (CSD) v543 
# hosted by the Cambridge Crystallographic Data Centre (CCDC).
#
# This work is licensed under the Creative Commons
# Attribution-NonCommercial-ShareAlike 4.0 International License.
# To view a copy of this license, visit
# http://creativecommons.org/licenses/by-nc-sa/4.0/
# or send a letter to
# Creative Commons, PO Box 1866, Mountain View, CA 94042, USA.
#
# CIF created using the CSD Python API on 29 September 2022
# The structure has been converted into the P1 space group
# The structure has a 3D framework
# The original CSD entry DECYAO is in the tetragonal crystal system
# The framework has been calculated to contain at least 10.0% void space
# The void calculation uses a probe of radius 1.32A, grid spacing 0.4
#
###############################################################################

data_DECYAO
_chemical_formula_moiety         '(C736 H384 Cl32 N96 O128 Zn32)n'
_symmetry_cell_setting           triclinic
_symmetry_space_group_name_H-M   'P 1'
_symmetry_Int_Tables_number      1
_space_group_name_Hall           'P 1'
loop_
_symmetry_equiv_pos_site_id
_symmetry_equiv_pos_as_xyz
1 x,y,z
_cell_length_a                   29.0435(2)
_cell_length_b                   29.0435(2)
_cell_length_c                   27.2811(2)
_cell_angle_alpha                90
_cell_angle_beta                 90
_cell_angle_gamma                90
_cell_volume                     23012.3
loop_
_atom_site_label
_atom_site_type_symbol
_atom_site_fract_x
_atom_site_fract_y
_atom_site_fract_z
Zn1 Zn 0.64312(2) 0.41459(2) 0.14732(2)
N1 N 0.57206(8) 0.41349(8) 0.11761(7)
C1 C 0.55988(10) 0.40483(11) 0.07117(9)
H1 H 0.5829 0.4012 0.0478
C2 C 0.51460(10) 0.40112(12) 0.05651(9)
H2 H 0.5075 0.3955 0.0238
C3 C 0.47978(9) 0.40582(10) 0.09097(9)
C4 C 0.42975(10) 0.39990(11) 0.07685(10)
O1 O 0.42033(8) 0.38923(11) 0.03446(8)
O2 O 0.40145(6) 0.40690(7) 0.11165(6)
C5 C 0.49233(9) 0.41566(9) 0.13906(8)
H3 H 0.4699 0.4198 0.1629
C6 C 0.53844(9) 0.41932(9) 0.15111(8)
C7 C 0.55525(9) 0.42927(9) 0.20185(8)
C8 C 0.52712(9) 0.43739(9) 0.24173(8)
H4 H 0.4953 0.4364 0.2383
C9 C 0.54684(9) 0.44718(9) 0.28730(8)
C10 C 0.59487(9) 0.44779(9) 0.29049(8)
H5 H 0.6092 0.4549 0.3200
C11 C 0.62086(9) 0.43774(8) 0.24946(8)
N2 N 0.60107(7) 0.42945(7) 0.20597(7)
C12 C 0.67171(9) 0.43479(9) 0.24954(8)
N3 N 0.69161(7) 0.43301(8) 0.20486(7)
C13 C 0.73748(10) 0.43178(11) 0.20251(9)
H6 H 0.7515 0.4323 0.1719
C14 C 0.76510(10) 0.42967(11) 0.24411(9)
H7 H 0.7970 0.4298 0.2414
C15 C 0.74395(9) 0.42733(9) 0.28975(9)
C16 C 0.77081(10) 0.41591(9) 0.33635(9)
O3 O 0.81408(7) 0.42206(7) 0.33467(6)
O4 O 0.74982(8) 0.40040(7) 0.37170(7)
C17 C 0.69663(9) 0.43135(9) 0.29259(8)
H8 H 0.6818 0.4317 0.3228
C18 C 0.51834(10) 0.45617(10) 0.33171(9)
C19 C 0.47225(13) 0.46735(16) 0.32838(11)
H9 H 0.4585 0.4690 0.2976
C20 C 0.44592(13) 0.47621(17) 0.36975(12)
H10 H 0.4150 0.4840 0.3669
C21 C 0.46637(12) 0.47323(12) 0.41472(10)
Cl1 Cl 0.43331(3) 0.48383(4) 0.46679(3)
C22 C 0.51156(13) 0.46519(16) 0.41904(10)
H11 H 0.5253 0.4652 0.4498
C23 C 0.53792(12) 0.45688(16) 0.37737(10)
H12 H 0.5694 0.4517 0.3806
Zn2 Zn 0.83541(2) 0.39312(2) 0.39732(2)
Zn3 Zn 0.33541(2) 0.39312(2) 0.10268(2)
O5 O 0.65690(7) 0.34855(6) 0.13835(6)
O6 O 0.67206(7) 0.43592(7) 0.08467(6)
C3_2 C 0.02022(9) 0.59418(10) 0.59097(9)
C4_2 C 0.07025(10) 0.60010(11) 0.57685(10)
O1_2 O 0.07967(8) 0.61077(11) 0.53446(8)
O2_2 O 0.09855(6) 0.59310(7) 0.61165(6)
C5_2 C 0.00767(9) 0.58434(9) 0.63906(8)
H3_2 H 0.0301 0.5802 0.6629
H4_2 H 0.0047 0.5636 0.7383
C19_2 C 0.02775(13) 0.53265(16) 0.82838(11)
H9_2 H 0.0415 0.5310 0.7976
C20_2 C 0.05408(13) 0.52379(17) 0.86975(12)
H10_2 H 0.0850 0.5160 0.8669
C21_2 C 0.03363(12) 0.52677(12) 0.91472(10)
Cl1_2 Cl 0.06669(3) 0.51617(4) 0.96679(3)
Zn3_2 Zn 0.16459(2) 0.60688(2) 0.60268(2)
Zn1_2 Zn 0.85688(2) 0.58541(2) 0.64732(2)
N1_2 N 0.92794(8) 0.58651(8) 0.61761(7)
C1_2 C 0.94012(10) 0.59517(11) 0.57117(9)
H1_2 H 0.9171 0.5988 0.5478
C2_2 C 0.98540(10) 0.59888(12) 0.55651(9)
H2_2 H 0.9925 0.6045 0.5238
C6_2 C 0.96156(9) 0.58068(9) 0.65111(8)
C7_2 C 0.94475(9) 0.57073(9) 0.70185(8)
C8_2 C 0.97288(9) 0.56261(9) 0.74173(8)
C9_2 C 0.95316(9) 0.55282(9) 0.78730(8)
C10_2 C 0.90513(9) 0.55221(9) 0.79049(8)
H5_2 H 0.8908 0.5451 0.8200
C11_2 C 0.87914(9) 0.56226(8) 0.74946(8)
N2_2 N 0.89893(7) 0.57055(7) 0.70597(7)
C12_2 C 0.82829(9) 0.56521(9) 0.74954(8)
N3_2 N 0.80839(7) 0.56699(8) 0.70486(7)
C13_2 C 0.76252(10) 0.56822(11) 0.70251(9)
H6_2 H 0.7485 0.5677 0.6719
C14_2 C 0.73490(10) 0.57033(11) 0.74411(9)
H7_2 H 0.7030 0.5702 0.7414
C15_2 C 0.75605(9) 0.57267(9) 0.78975(9)
C16_2 C 0.72919(10) 0.58409(9) 0.83635(9)
O3_2 O 0.68592(7) 0.57794(7) 0.83467(6)
O4_2 O 0.75018(8) 0.59960(7) 0.87170(7)
C17_2 C 0.80337(9) 0.56865(9) 0.79259(8)
H8_2 H 0.8182 0.5683 0.8228
C18_2 C 0.98166(10) 0.54383(10) 0.83171(9)
C22_2 C 0.98844(13) 0.53481(16) 0.91904(10)
H11_2 H 0.9747 0.5348 0.9498
C23_2 C 0.96208(12) 0.54312(16) 0.87737(10)
H12_2 H 0.9306 0.5483 0.8806
Zn2_2 Zn 0.66459(2) 0.60688(2) 0.89732(2)
O5_2 O 0.84310(7) 0.65145(6) 0.63835(6)
O6_2 O 0.82794(7) 0.56408(7) 0.58467(6)
N1_3 N 0.83651(8) 0.32206(8) 0.36761(7)
C1_3 C 0.84517(11) 0.30988(10) 0.32117(9)
H1_3 H 0.8488 0.3329 0.2978
C2_3 C 0.84888(12) 0.26460(10) 0.30651(9)
H2_3 H 0.8545 0.2575 0.2738
C3_3 C 0.84418(10) 0.22978(9) 0.34097(9)
C4_3 C 0.85010(11) 0.17975(10) 0.32685(10)
O1_3 O 0.86077(11) 0.17033(8) 0.28446(8)
O2_3 O 0.84310(7) 0.15145(6) 0.36165(6)
C5_3 C 0.83434(9) 0.24233(9) 0.38906(8)
H3_3 H 0.8302 0.2199 0.4129
C6_3 C 0.83068(9) 0.28844(9) 0.40111(8)
C7_3 C 0.82073(9) 0.30525(9) 0.45185(8)
C8_3 C 0.81261(9) 0.27712(9) 0.49173(8)
H4_3 H 0.8136 0.2453 0.4883
C9_3 C 0.80282(9) 0.29684(9) 0.53730(8)
C10_3 C 0.80221(9) 0.34487(9) 0.54049(8)
H5_3 H 0.7951 0.3592 0.5700
C11_3 C 0.81226(8) 0.37086(9) 0.49946(8)
N2_3 N 0.82055(7) 0.35107(7) 0.45597(7)
C12_3 C 0.81521(9) 0.42171(9) 0.49954(8)
N3_3 N 0.81699(8) 0.44161(7) 0.45486(7)
C13_3 C 0.81822(11) 0.48748(10) 0.45251(9)
H6_3 H 0.8177 0.5015 0.4219
C14_3 C 0.82033(11) 0.51510(10) 0.49411(9)
H7_3 H 0.8202 0.5470 0.4914
C15_3 C 0.82267(9) 0.49395(9) 0.53975(9)
C16_3 C 0.83409(9) 0.52081(10) 0.58635(9)
O4_3 O 0.84960(7) 0.49982(8) 0.62170(7)
C17_3 C 0.81865(9) 0.44663(9) 0.54259(8)
H8_3 H 0.8183 0.4318 0.5728
C18_3 C 0.79383(10) 0.26834(10) 0.58171(9)
C19_3 C 0.78265(16) 0.22225(13) 0.57838(11)
H9_3 H 0.7810 0.2085 0.5476
C20_3 C 0.77379(17) 0.19592(13) 0.61975(12)
H10_3 H 0.7660 0.1650 0.6169
C21_3 C 0.77677(12) 0.21637(12) 0.66472(10)
Cl1_3 Cl 0.76617(4) 0.18331(3) 0.71679(3)
C22_3 C 0.78481(16) 0.26156(13) 0.66904(10)
H11_3 H 0.7848 0.2753 0.6998
C23_3 C 0.79312(16) 0.28792(12) 0.62737(10)
H12_3 H 0.7983 0.3194 0.6306
Zn3_3 Zn 0.85688(2) 0.08541(2) 0.35268(2)
O5_3 O 0.90145(6) 0.40690(7) 0.38835(6)
C9_4 C 0.69718(9) 0.70316(9) 0.03730(8)
C10_4 C 0.69779(9) 0.65513(9) 0.04049(8)
H5_4 H 0.7049 0.6408 0.0700
C15_4 C 0.67733(9) 0.50605(9) 0.03975(9)
C16_4 C 0.66591(9) 0.47919(10) 0.08635(9)
O4_4 O 0.65040(7) 0.50018(8) 0.12170(7)
C17_4 C 0.68135(9) 0.55337(9) 0.04259(8)
H8_4 H 0.6817 0.5682 0.0728
C18_4 C 0.70617(10) 0.73166(10) 0.08171(9)
C19_4 C 0.71735(16) 0.77775(13) 0.07838(11)
H9_4 H 0.7190 0.7915 0.0476
C20_4 C 0.72621(17) 0.80408(13) 0.11975(12)
H10_4 H 0.7340 0.8350 0.1169
C21_4 C 0.72323(12) 0.78363(12) 0.16472(10)
Cl1_4 Cl 0.73383(4) 0.81669(3) 0.21679(3)
C22_4 C 0.71519(16) 0.73844(13) 0.16904(10)
H11_4 H 0.7152 0.7247 0.1998
C23_4 C 0.70688(16) 0.71208(12) 0.12737(10)
H12_4 H 0.7017 0.6806 0.1306
N1_4 N 0.66349(8) 0.67794(8) 0.86761(7)
C1_4 C 0.65483(11) 0.69012(10) 0.82117(9)
H1_4 H 0.6512 0.6671 0.7978
C2_4 C 0.65112(12) 0.73540(10) 0.80651(9)
H2_4 H 0.6455 0.7425 0.7738
C3_4 C 0.65582(10) 0.77022(9) 0.84097(9)
C4_4 C 0.64990(11) 0.82025(10) 0.82685(10)
O1_4 O 0.63923(11) 0.82967(8) 0.78446(8)
O2_4 O 0.65690(7) 0.84855(6) 0.86165(6)
C5_4 C 0.66566(9) 0.75767(9) 0.88906(8)
H3_4 H 0.6698 0.7801 0.9129
C6_4 C 0.66932(9) 0.71156(9) 0.90111(8)
C7_4 C 0.67927(9) 0.69475(9) 0.95185(8)
C8_4 C 0.68739(9) 0.72288(9) 0.99173(8)
H4_4 H 0.6864 0.7547 0.9883
C11_4 C 0.68774(8) 0.62914(9) 0.99946(8)
N2_4 N 0.67945(7) 0.64893(7) 0.95597(7)
C12_4 C 0.68479(9) 0.57829(9) 0.99954(8)
N3_4 N 0.68301(8) 0.55839(7) 0.95486(7)
C13_4 C 0.68178(11) 0.51252(10) 0.95251(9)
H6_4 H 0.6823 0.4985 0.9219
C14_4 C 0.67967(11) 0.48490(10) 0.99411(9)
H7_4 H 0.6798 0.4530 0.9914
Zn3_4 Zn 0.64312(2) 0.91459(2) 0.85268(2)
O5_4 O 0.59855(6) 0.59310(7) 0.88835(6)
Zn1_3 Zn 0.14312(2) 0.91459(2) 0.64732(2)
N1_5 N 0.07206(8) 0.91349(8) 0.61761(7)
C1_5 C 0.05988(10) 0.90483(11) 0.57117(9)
H1_5 H 0.0829 0.9012 0.5478
C2_5 C 0.01460(10) 0.90112(12) 0.55651(9)
H2_5 H 0.0075 0.8955 0.5238
C6_5 C 0.03844(9) 0.91932(9) 0.65111(8)
C7_5 C 0.05525(9) 0.92927(9) 0.70185(8)
C8_5 C 0.02712(9) 0.93739(9) 0.74173(8)
C9_5 C 0.04684(9) 0.94718(9) 0.78730(8)
C10_5 C 0.09487(9) 0.94779(9) 0.79049(8)
H5_5 H 0.1092 0.9549 0.8200
C11_5 C 0.12086(9) 0.93774(8) 0.74946(8)
N2_5 N 0.10107(7) 0.92945(7) 0.70597(7)
C12_5 C 0.17171(9) 0.93479(9) 0.74954(8)
N3_5 N 0.19161(7) 0.93301(8) 0.70486(7)
C13_5 C 0.23748(10) 0.93178(11) 0.70251(9)
H6_5 H 0.2515 0.9323 0.6719
C14_5 C 0.26510(10) 0.92967(11) 0.74411(9)
H7_5 H 0.2970 0.9298 0.7414
C15_5 C 0.24395(9) 0.92733(9) 0.78975(9)
C16_5 C 0.27081(10) 0.91591(9) 0.83635(9)
O3_3 O 0.31408(7) 0.92206(7) 0.83467(6)
O4_5 O 0.24982(8) 0.90040(7) 0.87170(7)
C17_5 C 0.19663(9) 0.93135(9) 0.79259(8)
H8_5 H 0.1818 0.9317 0.8228
C18_5 C 0.01834(10) 0.95617(10) 0.83171(9)
C22_5 C 0.01156(13) 0.96519(16) 0.91904(10)
H11_5 H 0.0253 0.9652 0.9498
C23_5 C 0.03792(12) 0.95688(16) 0.87737(10)
H12_5 H 0.0694 0.9517 0.8806
Zn2_3 Zn 0.33541(2) 0.89312(2) 0.89732(2)
O5_5 O 0.15690(7) 0.84855(6) 0.63835(6)
O6_3 O 0.17206(7) 0.93592(7) 0.58467(6)
C3_5 C 0.97978(9) 0.90582(10) 0.59097(9)
C4_5 C 0.92975(10) 0.89990(11) 0.57685(10)
O1_5 O 0.92033(8) 0.88923(11) 0.53446(8)
O2_5 O 0.90145(6) 0.90690(7) 0.61165(6)
C5_5 C 0.99233(9) 0.91566(9) 0.63906(8)
H3_5 H 0.9699 0.9198 0.6629
H4_5 H 0.9953 0.9364 0.7383
C19_5 C 0.97225(13) 0.96735(16) 0.82838(11)
H9_5 H 0.9585 0.9690 0.7976
C20_5 C 0.94592(13) 0.97621(17) 0.86975(12)
H10_5 H 0.9150 0.9840 0.8669
C21_5 C 0.96637(12) 0.97323(12) 0.91472(10)
Cl1_5 Cl 0.93331(3) 0.98383(4) 0.96679(3)
Zn3_5 Zn 0.83541(2) 0.89312(2) 0.60268(2)
Zn1_4 Zn 0.35688(2) 0.08541(2) 0.14732(2)
N1_6 N 0.42794(8) 0.08651(8) 0.11761(7)
C1_6 C 0.44012(10) 0.09517(11) 0.07117(9)
H1_6 H 0.4171 0.0988 0.0478
C2_6 C 0.48540(10) 0.09888(12) 0.05651(9)
H2_6 H 0.4925 0.1045 0.0238
C3_6 C 0.52022(9) 0.09418(10) 0.09097(9)
C4_6 C 0.57025(10) 0.10010(11) 0.07685(10)
O1_6 O 0.57967(8) 0.11077(11) 0.03446(8)
O2_6 O 0.59855(6) 0.09310(7) 0.11165(6)
C5_6 C 0.50767(9) 0.08434(9) 0.13906(8)
H3_6 H 0.5301 0.0802 0.1629
C6_6 C 0.46156(9) 0.08068(9) 0.15111(8)
C7_6 C 0.44475(9) 0.07073(9) 0.20185(8)
C8_6 C 0.47288(9) 0.06261(9) 0.24173(8)
H4_6 H 0.5047 0.0636 0.2383
C9_6 C 0.45316(9) 0.05282(9) 0.28730(8)
C10_6 C 0.40513(9) 0.05221(9) 0.29049(8)
H5_6 H 0.3908 0.0451 0.3200
C11_6 C 0.37914(9) 0.06226(8) 0.24946(8)
N2_6 N 0.39893(7) 0.07055(7) 0.20597(7)
C12_6 C 0.32829(9) 0.06521(9) 0.24954(8)
N3_6 N 0.30839(7) 0.06699(8) 0.20486(7)
C13_6 C 0.26252(10) 0.06822(11) 0.20251(9)
H6_6 H 0.2485 0.0677 0.1719
C14_6 C 0.23490(10) 0.07033(11) 0.24411(9)
H7_6 H 0.2030 0.0702 0.2414
C15_6 C 0.25605(9) 0.07267(9) 0.28975(9)
C16_6 C 0.22919(10) 0.08409(9) 0.33635(9)
O3_4 O 0.18592(7) 0.07794(7) 0.33467(6)
O4_6 O 0.25018(8) 0.09960(7) 0.37170(7)
C17_6 C 0.30337(9) 0.06865(9) 0.29259(8)
H8_6 H 0.3182 0.0683 0.3228
C18_6 C 0.48166(10) 0.04383(10) 0.33171(9)
C19_6 C 0.52775(13) 0.03265(16) 0.32838(11)
H9_6 H 0.5415 0.0310 0.2976
C20_6 C 0.55408(13) 0.02379(17) 0.36975(12)
H10_6 H 0.5850 0.0160 0.3669
C21_6 C 0.53363(12) 0.02677(12) 0.41472(10)
Cl1_6 Cl 0.56669(3) 0.01617(4) 0.46679(3)
C22_6 C 0.48844(13) 0.03481(16) 0.41904(10)
H11_6 H 0.4747 0.0348 0.4498
C23_6 C 0.46208(12) 0.04312(16) 0.37737(10)
H12_6 H 0.4306 0.0483 0.3806
Zn2_4 Zn 0.16459(2) 0.10688(2) 0.39732(2)
Zn3_6 Zn 0.66459(2) 0.10688(2) 0.10268(2)
O5_6 O 0.34310(7) 0.15145(6) 0.13835(6)
O6_4 O 0.32794(7) 0.06408(7) 0.08467(6)
C16_7 C 0.33409(9) 0.02081(10) 0.08635(9)
N1_7 N 0.33651(8) 0.82206(8) 0.86761(7)
C1_7 C 0.34517(11) 0.80988(10) 0.82117(9)
H1_7 H 0.3488 0.8329 0.7978
C2_7 C 0.34888(12) 0.76460(10) 0.80651(9)
H2_7 H 0.3545 0.7575 0.7738
C3_7 C 0.34418(10) 0.72978(9) 0.84097(9)
C4_7 C 0.35010(11) 0.67975(10) 0.82685(10)
O1_7 O 0.36077(11) 0.67033(8) 0.78446(8)
O2_7 O 0.34310(7) 0.65145(6) 0.86165(6)
C5_7 C 0.33434(9) 0.74233(9) 0.88906(8)
H3_7 H 0.3302 0.7199 0.9129
C6_7 C 0.33068(9) 0.78844(9) 0.90111(8)
C7_7 C 0.32073(9) 0.80525(9) 0.95185(8)
C8_7 C 0.31261(9) 0.77712(9) 0.99173(8)
H4_7 H 0.3136 0.7453 0.9883
C11_7 C 0.31226(8) 0.87086(9) 0.99946(8)
N2_7 N 0.32055(7) 0.85107(7) 0.95597(7)
C12_7 C 0.31521(9) 0.92171(9) 0.99954(8)
N3_7 N 0.31699(8) 0.94161(7) 0.95486(7)
C13_7 C 0.31822(11) 0.98748(10) 0.95251(9)
Zn3_7 Zn 0.35688(2) 0.58541(2) 0.85268(2)
O5_7 O 0.40145(6) 0.90690(7) 0.88835(6)
N1_8 N 0.16349(8) 0.17794(8) 0.36761(7)
C1_8 C 0.15483(11) 0.19012(10) 0.32117(9)
H1_8 H 0.1512 0.1671 0.2978
C2_8 C 0.15112(12) 0.23540(10) 0.30651(9)
H2_8 H 0.1455 0.2425 0.2738
C3_8 C 0.15582(10) 0.27022(9) 0.34097(9)
C4_8 C 0.14990(11) 0.32025(10) 0.32685(10)
O1_8 O 0.13923(11) 0.32967(8) 0.28446(8)
O2_8 O 0.15690(7) 0.34855(6) 0.36165(6)
C5_8 C 0.16566(9) 0.25767(9) 0.38906(8)
H3_8 H 0.1698 0.2801 0.4129
C6_8 C 0.16932(9) 0.21156(9) 0.40111(8)
C7_8 C 0.17927(9) 0.19475(9) 0.45185(8)
C8_8 C 0.18739(9) 0.22288(9) 0.49173(8)
H4_8 H 0.1864 0.2547 0.4883
C9_7 C 0.19718(9) 0.20316(9) 0.53730(8)
C10_7 C 0.19779(9) 0.15513(9) 0.54049(8)
H5_7 H 0.2049 0.1408 0.5700
C11_8 C 0.18774(8) 0.12914(9) 0.49946(8)
N2_8 N 0.17945(7) 0.14893(7) 0.45597(7)
C12_8 C 0.18479(9) 0.07829(9) 0.49954(8)
N3_8 N 0.18301(8) 0.05839(7) 0.45486(7)
C13_8 C 0.18178(11) 0.01252(10) 0.45251(9)
C15_7 C 0.17733(9) 0.00605(9) 0.53975(9)
O4_7 O 0.15040(7) 0.00018(8) 0.62170(7)
C17_7 C 0.18135(9) 0.05337(9) 0.54259(8)
H8_7 H 0.1817 0.0682 0.5728
C18_7 C 0.20617(10) 0.23166(10) 0.58171(9)
C19_7 C 0.21735(16) 0.27775(13) 0.57838(11)
H9_7 H 0.2190 0.2915 0.5476
C20_7 C 0.22621(17) 0.30408(13) 0.61975(12)
H10_7 H 0.2340 0.3350 0.6169
C21_7 C 0.22323(12) 0.28363(12) 0.66472(10)
Cl1_7 Cl 0.23383(4) 0.31669(3) 0.71679(3)
C22_7 C 0.21519(16) 0.23844(13) 0.66904(10)
H11_7 H 0.2152 0.2247 0.6998
C23_7 C 0.20688(16) 0.21208(12) 0.62737(10)
H12_7 H 0.2017 0.1806 0.6306
Zn3_8 Zn 0.14312(2) 0.41459(2) 0.35268(2)
O5_8 O 0.09855(6) 0.09310(7) 0.38835(6)
H6_7 H 0.1823 0.9985 0.4219
C14_7 C 0.17967(11) 0.98490(10) 0.49411(9)
H7_7 H 0.1798 0.9530 0.4914
C16_8 C 0.16591(9) 0.97919(10) 0.58635(9)
N1_9 N 0.42794(8) 0.58651(8) 0.88239(7)
C1_9 C 0.44012(10) 0.59517(11) 0.92883(9)
H1_9 H 0.4171 0.5988 0.9522
C2_9 C 0.48540(10) 0.59888(12) 0.94349(9)
H2_9 H 0.4925 0.6045 0.9762
C3_9 C 0.52022(9) 0.59418(10) 0.90903(9)
C4_9 C 0.57025(10) 0.60010(11) 0.92315(10)
O1_9 O 0.57967(8) 0.61077(11) 0.96554(8)
C5_9 C 0.50767(9) 0.58434(9) 0.86094(8)
H3_9 H 0.5301 0.5802 0.8371
C6_9 C 0.46156(9) 0.58068(9) 0.84889(8)
C7_9 C 0.44475(9) 0.57073(9) 0.79815(8)
C8_9 C 0.47288(9) 0.56261(9) 0.75827(8)
H4_9 H 0.5047 0.5636 0.7617
C9_8 C 0.45316(9) 0.55282(9) 0.71270(8)
C10_8 C 0.40513(9) 0.55221(9) 0.70951(8)
H5_8 H 0.3908 0.5451 0.6800
C11_9 C 0.37914(9) 0.56226(8) 0.75054(8)
N2_9 N 0.39893(7) 0.57055(7) 0.79403(7)
C12_9 C 0.32829(9) 0.56521(9) 0.75046(8)
N3_9 N 0.30839(7) 0.56699(8) 0.79514(7)
C13_9 C 0.26252(10) 0.56822(11) 0.79749(9)
H6_8 H 0.2485 0.5677 0.8281
C14_8 C 0.23490(10) 0.57033(11) 0.75589(9)
H7_8 H 0.2030 0.5702 0.7586
C15_8 C 0.25605(9) 0.57267(9) 0.71025(9)
C16_9 C 0.22919(10) 0.58409(9) 0.66365(9)
O3_5 O 0.18592(7) 0.57794(7) 0.66533(6)
O4_8 O 0.25018(8) 0.59960(7) 0.62830(7)
C17_8 C 0.30337(9) 0.56865(9) 0.70741(8)
H8_8 H 0.3182 0.5683 0.6772
C18_8 C 0.48166(10) 0.54383(10) 0.66829(9)
C19_8 C 0.52775(13) 0.53265(16) 0.67162(11)
H9_8 H 0.5415 0.5310 0.7024
C20_8 C 0.55408(13) 0.52379(17) 0.63025(12)
H10_8 H 0.5850 0.5160 0.6331
C21_8 C 0.53363(12) 0.52677(12) 0.58528(10)
Cl1_8 Cl 0.56669(3) 0.51617(4) 0.53321(3)
C22_8 C 0.48844(13) 0.53481(16) 0.58096(10)
H11_8 H 0.4747 0.5348 0.5502
C23_8 C 0.46208(12) 0.54312(16) 0.62263(10)
H12_8 H 0.4306 0.5483 0.6194
O6_5 O 0.32794(7) 0.56408(7) 0.91533(6)
N1_10 N 0.07206(8) 0.41349(8) 0.38239(7)
C1_10 C 0.05988(10) 0.40483(11) 0.42883(9)
H1_10 H 0.0829 0.4012 0.4522
C2_10 C 0.01460(10) 0.40112(12) 0.44349(9)
H2_10 H 0.0075 0.3955 0.4762
C6_10 C 0.03844(9) 0.41932(9) 0.34889(8)
C7_10 C 0.05525(9) 0.42927(9) 0.29815(8)
C8_10 C 0.02712(9) 0.43739(9) 0.25827(8)
C9_9 C 0.04684(9) 0.44718(9) 0.21270(8)
C10_9 C 0.09487(9) 0.44779(9) 0.20951(8)
H5_9 H 0.1092 0.4549 0.1800
C11_10 C 0.12086(9) 0.43774(8) 0.25054(8)
N2_10 N 0.10107(7) 0.42945(7) 0.29403(7)
C12_10 C 0.17171(9) 0.43479(9) 0.25046(8)
N3_10 N 0.19161(7) 0.43301(8) 0.29514(7)
C13_10 C 0.23748(10) 0.43178(11) 0.29749(9)
H6_9 H 0.2515 0.4323 0.3281
C14_9 C 0.26510(10) 0.42967(11) 0.25589(9)
H7_9 H 0.2970 0.4298 0.2586
C15_9 C 0.24395(9) 0.42733(9) 0.21025(9)
C16_10 C 0.27081(10) 0.41591(9) 0.16365(9)
O3_6 O 0.31408(7) 0.42206(7) 0.16533(6)
O4_9 O 0.24982(8) 0.40040(7) 0.12830(7)
C17_9 C 0.19663(9) 0.43135(9) 0.20741(8)
H8_9 H 0.1818 0.4317 0.1772
C18_9 C 0.01834(10) 0.45617(10) 0.16829(9)
C22_9 C 0.01156(13) 0.46519(16) 0.08096(10)
H11_9 H 0.0253 0.4652 0.0502
C23_9 C 0.03792(12) 0.45688(16) 0.12263(10)
H12_9 H 0.0694 0.4517 0.1194
O6_6 O 0.17206(7) 0.43592(7) 0.41533(6)
C3_10 C 0.97978(9) 0.40582(10) 0.40903(9)
C4_10 C 0.92975(10) 0.39990(11) 0.42315(10)
O1_10 O 0.92033(8) 0.38923(11) 0.46554(8)
C5_10 C 0.99233(9) 0.41566(9) 0.36094(8)
H3_10 H 0.9699 0.4198 0.3371
H4_10 H 0.9953 0.4364 0.2617
C19_9 C 0.97225(13) 0.46735(16) 0.17162(11)
H9_9 H 0.9585 0.4690 0.2024
C20_9 C 0.94592(13) 0.47621(17) 0.13025(12)
H10_9 H 0.9150 0.4840 0.1331
C21_9 C 0.96637(12) 0.47323(12) 0.08528(10)
Cl1_9 Cl 0.93331(3) 0.48383(4) 0.03321(3)
N1_11 N 0.16349(8) 0.67794(8) 0.63239(7)
C1_11 C 0.15483(11) 0.69012(10) 0.67883(9)
H1_11 H 0.1512 0.6671 0.7022
C2_11 C 0.15112(12) 0.73540(10) 0.69349(9)
H2_11 H 0.1455 0.7425 0.7262
C3_11 C 0.15582(10) 0.77022(9) 0.65903(9)
C4_11 C 0.14990(11) 0.82025(10) 0.67315(10)
O1_11 O 0.13923(11) 0.82967(8) 0.71554(8)
C5_11 C 0.16566(9) 0.75767(9) 0.61094(8)
H3_11 H 0.1698 0.7801 0.5871
C6_11 C 0.16932(9) 0.71156(9) 0.59889(8)
C7_11 C 0.17927(9) 0.69475(9) 0.54815(8)
C8_11 C 0.18739(9) 0.72288(9) 0.50827(8)
H4_11 H 0.1864 0.7547 0.5117
C9_10 C 0.19718(9) 0.70316(9) 0.46270(8)
C10_10 C 0.19779(9) 0.65513(9) 0.45951(8)
H5_10 H 0.2049 0.6408 0.4300
C11_11 C 0.18774(8) 0.62914(9) 0.50054(8)
N2_11 N 0.17945(7) 0.64893(7) 0.54403(7)
C12_11 C 0.18479(9) 0.57829(9) 0.50046(8)
N3_11 N 0.18301(8) 0.55839(7) 0.54514(7)
C13_11 C 0.18178(11) 0.51252(10) 0.54749(9)
H6_10 H 0.1823 0.4985 0.5781
C14_10 C 0.17967(11) 0.48490(10) 0.50589(9)
H7_10 H 0.1798 0.4530 0.5086
C15_10 C 0.17733(9) 0.50605(9) 0.46025(9)
C16_11 C 0.16591(9) 0.47919(10) 0.41365(9)
O4_10 O 0.15040(7) 0.50018(8) 0.37830(7)
C17_10 C 0.18135(9) 0.55337(9) 0.45741(8)
H8_10 H 0.1817 0.5682 0.4272
C18_10 C 0.20617(10) 0.73166(10) 0.41829(9)
C19_10 C 0.21735(16) 0.77775(13) 0.42162(11)
H9_10 H 0.2190 0.7915 0.4524
C20_10 C 0.22621(17) 0.80408(13) 0.38025(12)
H10_10 H 0.2340 0.8350 0.3831
C21_10 C 0.22323(12) 0.78363(12) 0.33528(10)
Cl1_10 Cl 0.23383(4) 0.81669(3) 0.28321(3)
C22_10 C 0.21519(16) 0.73844(13) 0.33096(10)
H11_10 H 0.2152 0.7247 0.3002
C23_10 C 0.20688(16) 0.71208(12) 0.37263(10)
H12_10 H 0.2017 0.6806 0.3694
N1_12 N 0.33651(8) 0.32206(8) 0.13239(7)
C1_12 C 0.34517(11) 0.30988(10) 0.17883(9)
H1_12 H 0.3488 0.3329 0.2022
C2_12 C 0.34888(12) 0.26460(10) 0.19349(9)
H2_12 H 0.3545 0.2575 0.2262
C3_12 C 0.34418(10) 0.22978(9) 0.15903(9)
C4_12 C 0.35010(11) 0.17975(10) 0.17315(10)
O1_12 O 0.36077(11) 0.17033(8) 0.21554(8)
C5_12 C 0.33434(9) 0.24233(9) 0.11094(8)
H3_12 H 0.3302 0.2199 0.0871
C6_12 C 0.33068(9) 0.28844(9) 0.09889(8)
C7_12 C 0.32073(9) 0.30525(9) 0.04815(8)
C8_12 C 0.31261(9) 0.27712(9) 0.00827(8)
H4_12 H 0.3136 0.2453 0.0117
C11_12 C 0.31226(8) 0.37086(9) 0.00054(8)
N2_12 N 0.32055(7) 0.35107(7) 0.04403(7)
C12_12 C 0.31521(9) 0.42171(9) 0.00046(8)
N3_12 N 0.31699(8) 0.44161(7) 0.04514(7)
C13_12 C 0.31822(11) 0.48748(10) 0.04749(9)
H6_11 H 0.3177 0.5015 0.0781
C14_11 C 0.32033(11) 0.51510(10) 0.00589(9)
H7_11 H 0.3202 0.5470 0.0086
C9_11 C 0.30282(9) 0.29684(9) 0.96270(8)
C10_11 C 0.30221(9) 0.34487(9) 0.95951(8)
H5_11 H 0.2951 0.3592 0.9300
C15_11 C 0.32267(9) 0.49395(9) 0.96025(9)
C16_12 C 0.33409(9) 0.52081(10) 0.91365(9)
O4_11 O 0.34960(7) 0.49982(8) 0.87830(7)
C17_11 C 0.31865(9) 0.44663(9) 0.95741(8)
H8_11 H 0.3183 0.4318 0.9272
C18_11 C 0.29383(10) 0.26834(10) 0.91829(9)
C19_11 C 0.28265(16) 0.22225(13) 0.92162(11)
H9_11 H 0.2810 0.2085 0.9524
C20_11 C 0.27379(17) 0.19592(13) 0.88025(12)
H10_11 H 0.2660 0.1650 0.8831
C21_11 C 0.27677(12) 0.21637(12) 0.83528(10)
Cl1_11 Cl 0.26617(4) 0.18331(3) 0.78321(3)
C22_11 C 0.28481(16) 0.26156(13) 0.83096(10)
H11_11 H 0.2848 0.2753 0.8002
C23_11 C 0.29312(16) 0.28792(12) 0.87263(10)
H12_11 H 0.2983 0.3194 0.8694
C3_13 C 0.02022(9) 0.09418(10) 0.40903(9)
C4_13 C 0.07025(10) 0.10010(11) 0.42315(10)
O1_13 O 0.07967(8) 0.11077(11) 0.46554(8)
C5_13 C 0.00767(9) 0.08434(9) 0.36094(8)
H3_13 H 0.0301 0.0802 0.3371
H4_13 H 0.0047 0.0636 0.2617
C19_12 C 0.02775(13) 0.03265(16) 0.17162(11)
H9_12 H 0.0415 0.0310 0.2024
C20_12 C 0.05408(13) 0.02379(17) 0.13025(12)
H10_12 H 0.0850 0.0160 0.1331
C21_12 C 0.03363(12) 0.02677(12) 0.08528(10)
Cl1_12 Cl 0.06669(3) 0.01617(4) 0.03321(3)
N1_13 N 0.92794(8) 0.08651(8) 0.38239(7)
C1_13 C 0.94012(10) 0.09517(11) 0.42883(9)
H1_13 H 0.9171 0.0988 0.4522
C2_13 C 0.98540(10) 0.09888(12) 0.44349(9)
H2_13 H 0.9925 0.1045 0.4762
C6_13 C 0.96156(9) 0.08068(9) 0.34889(8)
C7_13 C 0.94475(9) 0.07073(9) 0.29815(8)
C8_13 C 0.97288(9) 0.06261(9) 0.25827(8)
C9_12 C 0.95316(9) 0.05282(9) 0.21270(8)
C10_12 C 0.90513(9) 0.05221(9) 0.20951(8)
H5_12 H 0.8908 0.0451 0.1800
C11_13 C 0.87914(9) 0.06226(8) 0.25054(8)
N2_13 N 0.89893(7) 0.07055(7) 0.29403(7)
C12_13 C 0.82829(9) 0.06521(9) 0.25046(8)
N3_13 N 0.80839(7) 0.06699(8) 0.29514(7)
C13_13 C 0.76252(10) 0.06822(11) 0.29749(9)
H6_12 H 0.7485 0.0677 0.3281
C14_12 C 0.73490(10) 0.07033(11) 0.25589(9)
H7_12 H 0.7030 0.0702 0.2586
C15_12 C 0.75605(9) 0.07267(9) 0.21025(9)
C16_13 C 0.72919(10) 0.08409(9) 0.16365(9)
O3_7 O 0.68592(7) 0.07794(7) 0.16533(6)
O4_12 O 0.75018(8) 0.09960(7) 0.12830(7)
C17_12 C 0.80337(9) 0.06865(9) 0.20741(8)
H8_12 H 0.8182 0.0683 0.1772
C18_12 C 0.98166(10) 0.04383(10) 0.16829(9)
C22_12 C 0.98844(13) 0.03481(16) 0.08096(10)
H11_12 H 0.9747 0.0348 0.0502
C23_12 C 0.96208(12) 0.04312(16) 0.12263(10)
H12_12 H 0.9306 0.0483 0.1194
O6_7 O 0.82794(7) 0.06408(7) 0.41533(6)
N1_14 N 0.57206(8) 0.91349(8) 0.88239(7)
C1_14 C 0.55988(10) 0.90483(11) 0.92883(9)
H1_14 H 0.5829 0.9012 0.9522
C2_14 C 0.51460(10) 0.90112(12) 0.94349(9)
H2_14 H 0.5075 0.8955 0.9762
C3_14 C 0.47978(9) 0.90582(10) 0.90903(9)
C4_14 C 0.42975(10) 0.89990(11) 0.92315(10)
O1_14 O 0.42033(8) 0.88923(11) 0.96554(8)
C5_14 C 0.49233(9) 0.91566(9) 0.86094(8)
H3_14 H 0.4699 0.9198 0.8371
C6_14 C 0.53844(9) 0.91932(9) 0.84889(8)
C7_14 C 0.55525(9) 0.92927(9) 0.79815(8)
C8_14 C 0.52712(9) 0.93739(9) 0.75827(8)
H4_14 H 0.4953 0.9364 0.7617
C9_13 C 0.54684(9) 0.94718(9) 0.71270(8)
C10_13 C 0.59487(9) 0.94779(9) 0.70951(8)
H5_13 H 0.6092 0.9549 0.6800
C11_14 C 0.62086(9) 0.93774(8) 0.75054(8)
N2_14 N 0.60107(7) 0.92945(7) 0.79403(7)
C12_14 C 0.67171(9) 0.93479(9) 0.75046(8)
N3_14 N 0.69161(7) 0.93301(8) 0.79514(7)
C13_14 C 0.73748(10) 0.93178(11) 0.79749(9)
H6_13 H 0.7515 0.9323 0.8281
C14_13 C 0.76510(10) 0.92967(11) 0.75589(9)
H7_13 H 0.7970 0.9298 0.7586
C15_13 C 0.74395(9) 0.92733(9) 0.71025(9)
C16_14 C 0.77081(10) 0.91591(9) 0.66365(9)
O3_8 O 0.81408(7) 0.92206(7) 0.66533(6)
O4_13 O 0.74982(8) 0.90040(7) 0.62830(7)
C17_13 C 0.69663(9) 0.93135(9) 0.70741(8)
H8_13 H 0.6818 0.9317 0.6772
C18_13 C 0.51834(10) 0.95617(10) 0.66829(9)
C19_13 C 0.47225(13) 0.96735(16) 0.67162(11)
H9_13 H 0.4585 0.9690 0.7024
C20_13 C 0.44592(13) 0.97621(17) 0.63025(12)
H10_13 H 0.4150 0.9840 0.6331
C21_13 C 0.46637(12) 0.97323(12) 0.58528(10)
Cl1_13 Cl 0.43331(3) 0.98383(4) 0.53321(3)
C22_13 C 0.51156(13) 0.96519(16) 0.58096(10)
H11_13 H 0.5253 0.9652 0.5502
C23_13 C 0.53792(12) 0.95688(16) 0.62263(10)
H12_13 H 0.5694 0.9517 0.6194
O6_8 O 0.67206(7) 0.93592(7) 0.91533(6)
N1_15 N 0.66349(8) 0.17794(8) 0.13239(7)
C1_15 C 0.65483(11) 0.19012(10) 0.17883(9)
H1_15 H 0.6512 0.1671 0.2022
C2_15 C 0.65112(12) 0.23540(10) 0.19349(9)
H2_15 H 0.6455 0.2425 0.2262
C3_15 C 0.65582(10) 0.27022(9) 0.15903(9)
C4_15 C 0.64990(11) 0.32025(10) 0.17315(10)
O1_15 O 0.63923(11) 0.32967(8) 0.21554(8)
C5_15 C 0.66566(9) 0.25767(9) 0.11094(8)
H3_15 H 0.6698 0.2801 0.0871
C6_15 C 0.66932(9) 0.21156(9) 0.09889(8)
C7_15 C 0.67927(9) 0.19475(9) 0.04815(8)
C8_15 C 0.68739(9) 0.22288(9) 0.00827(8)
H4_15 H 0.6864 0.2547 0.0117
C11_15 C 0.68774(8) 0.12914(9) 0.00054(8)
N2_15 N 0.67945(7) 0.14893(7) 0.04403(7)
C12_15 C 0.68479(9) 0.07829(9) 0.00046(8)
N3_15 N 0.68301(8) 0.05839(7) 0.04514(7)
C13_15 C 0.68178(11) 0.01252(10) 0.04749(9)
C16_15 C 0.66591(9) 0.97919(10) 0.91365(9)
H6_14 H 0.8177 0.0015 0.5781
C14_14 C 0.82033(11) 0.01510(10) 0.50589(9)
H7_14 H 0.8202 0.0470 0.5086
C16_16 C 0.83409(9) 0.02081(10) 0.41365(9)
N1_16 N 0.83651(8) 0.82206(8) 0.63239(7)
C1_16 C 0.84517(11) 0.80988(10) 0.67883(9)
H1_16 H 0.8488 0.8329 0.7022
C2_16 C 0.84888(12) 0.76460(10) 0.69349(9)
H2_16 H 0.8545 0.7575 0.7262
C3_16 C 0.84418(10) 0.72978(9) 0.65903(9)
C4_16 C 0.85010(11) 0.67975(10) 0.67315(10)
O1_16 O 0.86077(11) 0.67033(8) 0.71554(8)
C5_16 C 0.83434(9) 0.74233(9) 0.61094(8)
H3_16 H 0.8302 0.7199 0.5871
C6_16 C 0.83068(9) 0.78844(9) 0.59889(8)
C7_16 C 0.82073(9) 0.80525(9) 0.54815(8)
C8_16 C 0.81261(9) 0.77712(9) 0.50827(8)
H4_16 H 0.8136 0.7453 0.5117
C9_14 C 0.80282(9) 0.79684(9) 0.46270(8)
C10_14 C 0.80221(9) 0.84487(9) 0.45951(8)
H5_14 H 0.7951 0.8592 0.4300
C11_16 C 0.81226(8) 0.87086(9) 0.50054(8)
N2_16 N 0.82055(7) 0.85107(7) 0.54403(7)
C12_16 C 0.81521(9) 0.92171(9) 0.50046(8)
N3_16 N 0.81699(8) 0.94161(7) 0.54514(7)
C13_16 C 0.81822(11) 0.98748(10) 0.54749(9)
C15_14 C 0.82267(9) 0.99395(9) 0.46025(9)
O4_14 O 0.84960(7) 0.99982(8) 0.37830(7)
C17_14 C 0.81865(9) 0.94663(9) 0.45741(8)
H8_14 H 0.8183 0.9318 0.4272
C18_14 C 0.79383(10) 0.76834(10) 0.41829(9)
C19_14 C 0.78265(16) 0.72225(13) 0.42162(11)
H9_14 H 0.7810 0.7085 0.4524
C20_14 C 0.77379(17) 0.69592(13) 0.38025(12)
H10_14 H 0.7660 0.6650 0.3831
C21_14 C 0.77677(12) 0.71637(12) 0.33528(10)
Cl1_14 Cl 0.76617(4) 0.68331(3) 0.28321(3)
C22_14 C 0.78481(16) 0.76156(13) 0.33096(10)
H11_14 H 0.7848 0.7753 0.3002
C23_14 C 0.79312(16) 0.78792(12) 0.37263(10)
H12_14 H 0.7983 0.8194 0.3694
C3_17 C 0.02022(9) 0.40582(10) 0.90903(9)
C4_17 C 0.07025(10) 0.39990(11) 0.92315(10)
O1_17 O 0.07967(8) 0.38923(11) 0.96554(8)
O2_9 O 0.09855(6) 0.40690(7) 0.88835(6)
C5_17 C 0.00767(9) 0.41566(9) 0.86094(8)
H3_17 H 0.0301 0.4198 0.8371
H4_17 H 0.0047 0.4364 0.7617
C19_15 C 0.02775(13) 0.46735(16) 0.67162(11)
H9_15 H 0.0415 0.4690 0.7024
C20_15 C 0.05408(13) 0.47621(17) 0.63025(12)
H10_15 H 0.0850 0.4840 0.6331
C21_15 C 0.03363(12) 0.47323(12) 0.58528(10)
Cl1_15 Cl 0.06669(3) 0.48383(4) 0.53321(3)
Zn3_9 Zn 0.16459(2) 0.39312(2) 0.89732(2)
Zn1_5 Zn 0.85688(2) 0.41459(2) 0.85268(2)
N1_17 N 0.92794(8) 0.41349(8) 0.88239(7)
C1_17 C 0.94012(10) 0.40483(11) 0.92883(9)
H1_17 H 0.9171 0.4012 0.9522
C2_17 C 0.98540(10) 0.40112(12) 0.94349(9)
H2_17 H 0.9925 0.3955 0.9762
C6_17 C 0.96156(9) 0.41932(9) 0.84889(8)
C7_17 C 0.94475(9) 0.42927(9) 0.79815(8)
C8_17 C 0.97288(9) 0.43739(9) 0.75827(8)
C9_15 C 0.95316(9) 0.44718(9) 0.71270(8)
C10_15 C 0.90513(9) 0.44779(9) 0.70951(8)
H5_15 H 0.8908 0.4549 0.6800
C11_17 C 0.87914(9) 0.43774(8) 0.75054(8)
N2_17 N 0.89893(7) 0.42945(7) 0.79403(7)
C12_17 C 0.82829(9) 0.43479(9) 0.75046(8)
N3_17 N 0.80839(7) 0.43301(8) 0.79514(7)
C13_17 C 0.76252(10) 0.43178(11) 0.79749(9)
H6_15 H 0.7485 0.4323 0.8281
C14_15 C 0.73490(10) 0.42967(11) 0.75589(9)
H7_15 H 0.7030 0.4298 0.7586
C15_15 C 0.75605(9) 0.42733(9) 0.71025(9)
C16_17 C 0.72919(10) 0.41591(9) 0.66365(9)
O3_9 O 0.68592(7) 0.42206(7) 0.66533(6)
O4_15 O 0.75018(8) 0.40040(7) 0.62830(7)
C17_15 C 0.80337(9) 0.43135(9) 0.70741(8)
H8_15 H 0.8182 0.4317 0.6772
C18_15 C 0.98166(10) 0.45617(10) 0.66829(9)
C22_15 C 0.98844(13) 0.46519(16) 0.58096(10)
H11_15 H 0.9747 0.4652 0.5502
C23_15 C 0.96208(12) 0.45688(16) 0.62263(10)
H12_15 H 0.9306 0.4517 0.6194
Zn2_5 Zn 0.66459(2) 0.39312(2) 0.60268(2)
O5_9 O 0.84310(7) 0.34855(6) 0.86165(6)
O6_9 O 0.82794(7) 0.43592(7) 0.91533(6)
Zn1_6 Zn 0.64312(2) 0.58541(2) 0.35268(2)
N1_18 N 0.57206(8) 0.58651(8) 0.38239(7)
C1_18 C 0.55988(10) 0.59517(11) 0.42883(9)
H1_18 H 0.5829 0.5988 0.4522
C2_18 C 0.51460(10) 0.59888(12) 0.44349(9)
H2_18 H 0.5075 0.6045 0.4762
C3_18 C 0.47978(9) 0.59418(10) 0.40903(9)
C4_18 C 0.42975(10) 0.60010(11) 0.42315(10)
O1_18 O 0.42033(8) 0.61077(11) 0.46554(8)
O2_10 O 0.40145(6) 0.59310(7) 0.38835(6)
C5_18 C 0.49233(9) 0.58434(9) 0.36094(8)
H3_18 H 0.4699 0.5802 0.3371
C6_18 C 0.53844(9) 0.58068(9) 0.34889(8)
C7_18 C 0.55525(9) 0.57073(9) 0.29815(8)
C8_18 C 0.52712(9) 0.56261(9) 0.25827(8)
H4_18 H 0.4953 0.5636 0.2617
C9_16 C 0.54684(9) 0.55282(9) 0.21270(8)
C10_16 C 0.59487(9) 0.55221(9) 0.20951(8)
H5_16 H 0.6092 0.5451 0.1800
C11_18 C 0.62086(9) 0.56226(8) 0.25054(8)
N2_18 N 0.60107(7) 0.57055(7) 0.29403(7)
C12_18 C 0.67171(9) 0.56521(9) 0.25046(8)
N3_18 N 0.69161(7) 0.56699(8) 0.29514(7)
C13_18 C 0.73748(10) 0.56822(11) 0.29749(9)
H6_16 H 0.7515 0.5677 0.3281
C14_16 C 0.76510(10) 0.57033(11) 0.25589(9)
H7_16 H 0.7970 0.5702 0.2586
C15_16 C 0.74395(9) 0.57267(9) 0.21025(9)
C16_18 C 0.77081(10) 0.58409(9) 0.16365(9)
O3_10 O 0.81408(7) 0.57794(7) 0.16533(6)
O4_16 O 0.74982(8) 0.59960(7) 0.12830(7)
C17_16 C 0.69663(9) 0.56865(9) 0.20741(8)
H8_16 H 0.6818 0.5683 0.1772
C18_16 C 0.51834(10) 0.54383(10) 0.16829(9)
C19_16 C 0.47225(13) 0.53265(16) 0.17162(11)
H9_16 H 0.4585 0.5310 0.2024
C20_16 C 0.44592(13) 0.52379(17) 0.13025(12)
H10_16 H 0.4150 0.5160 0.1331
C21_16 C 0.46637(12) 0.52677(12) 0.08528(10)
Cl1_16 Cl 0.43331(3) 0.51617(4) 0.03321(3)
C22_16 C 0.51156(13) 0.53481(16) 0.08096(10)
H11_16 H 0.5253 0.5348 0.0502
C23_16 C 0.53792(12) 0.54312(16) 0.12263(10)
H12_16 H 0.5694 0.5483 0.1194
Zn2_6 Zn 0.83541(2) 0.60688(2) 0.10268(2)
Zn3_10 Zn 0.33541(2) 0.60688(2) 0.39732(2)
O5_10 O 0.65690(7) 0.65145(6) 0.36165(6)
O6_10 O 0.67206(7) 0.56408(7) 0.41533(6)
N1_19 N 0.66349(8) 0.32206(8) 0.63239(7)
C1_19 C 0.65483(11) 0.30988(10) 0.67883(9)
H1_19 H 0.6512 0.3329 0.7022
C2_19 C 0.65112(12) 0.26460(10) 0.69349(9)
H2_19 H 0.6455 0.2575 0.7262
C3_19 C 0.65582(10) 0.22978(9) 0.65903(9)
C4_19 C 0.64990(11) 0.17975(10) 0.67315(10)
O1_19 O 0.63923(11) 0.17033(8) 0.71554(8)
O2_11 O 0.65690(7) 0.15145(6) 0.63835(6)
C5_19 C 0.66566(9) 0.24233(9) 0.61094(8)
H3_19 H 0.6698 0.2199 0.5871
C6_19 C 0.66932(9) 0.28844(9) 0.59889(8)
C7_19 C 0.67927(9) 0.30525(9) 0.54815(8)
C8_19 C 0.68739(9) 0.27712(9) 0.50827(8)
H4_19 H 0.6864 0.2453 0.5117
C9_17 C 0.69718(9) 0.29684(9) 0.46270(8)
C10_17 C 0.69779(9) 0.34487(9) 0.45951(8)
H5_17 H 0.7049 0.3592 0.4300
C11_19 C 0.68774(8) 0.37086(9) 0.50054(8)
N2_19 N 0.67945(7) 0.35107(7) 0.54403(7)
C12_19 C 0.68479(9) 0.42171(9) 0.50046(8)
N3_19 N 0.68301(8) 0.44161(7) 0.54514(7)
C13_19 C 0.68178(11) 0.48748(10) 0.54749(9)
H6_17 H 0.6823 0.5015 0.5781
C14_17 C 0.67967(11) 0.51510(10) 0.50589(9)
H7_17 H 0.6798 0.5470 0.5086
C15_17 C 0.67733(9) 0.49395(9) 0.46025(9)
C16_19 C 0.66591(9) 0.52081(10) 0.41365(9)
O4_17 O 0.65040(7) 0.49982(8) 0.37830(7)
C17_17 C 0.68135(9) 0.44663(9) 0.45741(8)
H8_17 H 0.6817 0.4318 0.4272
C18_17 C 0.70617(10) 0.26834(10) 0.41829(9)
C19_17 C 0.71735(16) 0.22225(13) 0.42162(11)
H9_17 H 0.7190 0.2085 0.4524
C20_17 C 0.72621(17) 0.19592(13) 0.38025(12)
H10_17 H 0.7340 0.1650 0.3831
C21_17 C 0.72323(12) 0.21637(12) 0.33528(10)
Cl1_17 Cl 0.73383(4) 0.18331(3) 0.28321(3)
C22_17 C 0.71519(16) 0.26156(13) 0.33096(10)
H11_17 H 0.7152 0.2753 0.3002
C23_17 C 0.70688(16) 0.28792(12) 0.37263(10)
H12_17 H 0.7017 0.3194 0.3694
Zn3_11 Zn 0.64312(2) 0.08541(2) 0.64732(2)
O5_11 O 0.59855(6) 0.40690(7) 0.61165(6)
N1_20 N 0.83651(8) 0.67794(8) 0.13239(7)
C1_20 C 0.84517(11) 0.69012(10) 0.17883(9)
H1_20 H 0.8488 0.6671 0.2022
C2_20 C 0.84888(12) 0.73540(10) 0.19349(9)
H2_20 H 0.8545 0.7425 0.2262
C3_20 C 0.84418(10) 0.77022(9) 0.15903(9)
C4_20 C 0.85010(11) 0.82025(10) 0.17315(10)
O1_20 O 0.86077(11) 0.82967(8) 0.21554(8)
O2_12 O 0.84310(7) 0.84855(6) 0.13835(6)
C5_20 C 0.83434(9) 0.75767(9) 0.11094(8)
H3_20 H 0.8302 0.7801 0.0871
C6_20 C 0.83068(9) 0.71156(9) 0.09889(8)
C7_20 C 0.82073(9) 0.69475(9) 0.04815(8)
C8_20 C 0.81261(9) 0.72288(9) 0.00827(8)
H4_20 H 0.8136 0.7547 0.0117
C11_20 C 0.81226(8) 0.62914(9) 0.00054(8)
N2_20 N 0.82055(7) 0.64893(7) 0.04403(7)
C12_20 C 0.81521(9) 0.57829(9) 0.00046(8)
N3_20 N 0.81699(8) 0.55839(7) 0.04514(7)
C13_20 C 0.81822(11) 0.51252(10) 0.04749(9)
H6_18 H 0.8177 0.4985 0.0781
C14_18 C 0.82033(11) 0.48490(10) 0.00589(9)
H7_18 H 0.8202 0.4530 0.0086
Zn3_12 Zn 0.85688(2) 0.91459(2) 0.14732(2)
O5_12 O 0.90145(6) 0.59310(7) 0.11165(6)
C9_18 C 0.80282(9) 0.70316(9) 0.96270(8)
C10_18 C 0.80221(9) 0.65513(9) 0.95951(8)
H5_18 H 0.7951 0.6408 0.9300
C15_18 C 0.82267(9) 0.50605(9) 0.96025(9)
C16_20 C 0.83409(9) 0.47919(10) 0.91365(9)
O4_18 O 0.84960(7) 0.50018(8) 0.87830(7)
C17_18 C 0.81865(9) 0.55337(9) 0.95741(8)
H8_18 H 0.8183 0.5682 0.9272
C18_18 C 0.79383(10) 0.73166(10) 0.91829(9)
C19_18 C 0.78265(16) 0.77775(13) 0.92162(11)
H9_18 H 0.7810 0.7915 0.9524
C20_18 C 0.77379(17) 0.80408(13) 0.88025(12)
H10_18 H 0.7660 0.8350 0.8831
C21_18 C 0.77677(12) 0.78363(12) 0.83528(10)
Cl1_18 Cl 0.76617(4) 0.81669(3) 0.78321(3)
C22_18 C 0.78481(16) 0.73844(13) 0.83096(10)
H11_18 H 0.7848 0.7247 0.8002
C23_18 C 0.79312(16) 0.71208(12) 0.87263(10)
H12_18 H 0.7983 0.6806 0.8694
Zn1_7 Zn 0.35688(2) 0.91459(2) 0.35268(2)
N1_21 N 0.42794(8) 0.91349(8) 0.38239(7)
C1_21 C 0.44012(10) 0.90483(11) 0.42883(9)
H1_21 H 0.4171 0.9012 0.4522
C2_21 C 0.48540(10) 0.90112(12) 0.44349(9)
H2_21 H 0.4925 0.8955 0.4762
C3_21 C 0.52022(9) 0.90582(10) 0.40903(9)
C4_21 C 0.57025(10) 0.89990(11) 0.42315(10)
O1_21 O 0.57967(8) 0.88923(11) 0.46554(8)
O2_13 O 0.59855(6) 0.90690(7) 0.38835(6)
C5_21 C 0.50767(9) 0.91566(9) 0.36094(8)
H3_21 H 0.5301 0.9198 0.3371
C6_21 C 0.46156(9) 0.91932(9) 0.34889(8)
C7_21 C 0.44475(9) 0.92927(9) 0.29815(8)
C8_21 C 0.47288(9) 0.93739(9) 0.25827(8)
H4_21 H 0.5047 0.9364 0.2617
C9_19 C 0.45316(9) 0.94718(9) 0.21270(8)
C10_19 C 0.40513(9) 0.94779(9) 0.20951(8)
H5_19 H 0.3908 0.9549 0.1800
C11_21 C 0.37914(9) 0.93774(8) 0.25054(8)
N2_21 N 0.39893(7) 0.92945(7) 0.29403(7)
C12_21 C 0.32829(9) 0.93479(9) 0.25046(8)
N3_21 N 0.30839(7) 0.93301(8) 0.29514(7)
C13_21 C 0.26252(10) 0.93178(11) 0.29749(9)
H6_19 H 0.2485 0.9323 0.3281
C14_19 C 0.23490(10) 0.92967(11) 0.25589(9)
H7_19 H 0.2030 0.9298 0.2586
C15_19 C 0.25605(9) 0.92733(9) 0.21025(9)
C16_21 C 0.22919(10) 0.91591(9) 0.16365(9)
O3_11 O 0.18592(7) 0.92206(7) 0.16533(6)
O4_19 O 0.25018(8) 0.90040(7) 0.12830(7)
C17_19 C 0.30337(9) 0.93135(9) 0.20741(8)
H8_19 H 0.3182 0.9317 0.1772
C18_19 C 0.48166(10) 0.95617(10) 0.16829(9)
C19_19 C 0.52775(13) 0.96735(16) 0.17162(11)
H9_19 H 0.5415 0.9690 0.2024
C20_19 C 0.55408(13) 0.97621(17) 0.13025(12)
H10_19 H 0.5850 0.9840 0.1331
C21_19 C 0.53363(12) 0.97323(12) 0.08528(10)
Cl1_19 Cl 0.56669(3) 0.98383(4) 0.03321(3)
C22_19 C 0.48844(13) 0.96519(16) 0.08096(10)
H11_19 H 0.4747 0.9652 0.0502
C23_19 C 0.46208(12) 0.95688(16) 0.12263(10)
H12_19 H 0.4306 0.9517 0.1194
Zn2_7 Zn 0.16459(2) 0.89312(2) 0.10268(2)
Zn3_13 Zn 0.66459(2) 0.89312(2) 0.39732(2)
O5_13 O 0.34310(7) 0.84855(6) 0.36165(6)
O6_11 O 0.32794(7) 0.93592(7) 0.41533(6)
Zn1_8 Zn 0.14312(2) 0.08541(2) 0.85268(2)
N1_22 N 0.07206(8) 0.08651(8) 0.88239(7)
C1_22 C 0.05988(10) 0.09517(11) 0.92883(9)
H1_22 H 0.0829 0.0988 0.9522
C2_22 C 0.01460(10) 0.09888(12) 0.94349(9)
H2_22 H 0.0075 0.1045 0.9762
C6_22 C 0.03844(9) 0.08068(9) 0.84889(8)
C7_22 C 0.05525(9) 0.07073(9) 0.79815(8)
C8_22 C 0.02712(9) 0.06261(9) 0.75827(8)
C9_20 C 0.04684(9) 0.05282(9) 0.71270(8)
C10_20 C 0.09487(9) 0.05221(9) 0.70951(8)
H5_20 H 0.1092 0.0451 0.6800
C11_22 C 0.12086(9) 0.06226(8) 0.75054(8)
N2_22 N 0.10107(7) 0.07055(7) 0.79403(7)
C12_22 C 0.17171(9) 0.06521(9) 0.75046(8)
N3_22 N 0.19161(7) 0.06699(8) 0.79514(7)
C13_22 C 0.23748(10) 0.06822(11) 0.79749(9)
H6_20 H 0.2515 0.0677 0.8281
C14_20 C 0.26510(10) 0.07033(11) 0.75589(9)
H7_20 H 0.2970 0.0702 0.7586
C15_20 C 0.24395(9) 0.07267(9) 0.71025(9)
C16_22 C 0.27081(10) 0.08409(9) 0.66365(9)
O3_12 O 0.31408(7) 0.07794(7) 0.66533(6)
O4_20 O 0.24982(8) 0.09960(7) 0.62830(7)
C17_20 C 0.19663(9) 0.06865(9) 0.70741(8)
H8_20 H 0.1818 0.0683 0.6772
C18_20 C 0.01834(10) 0.04383(10) 0.66829(9)
C22_20 C 0.01156(13) 0.03481(16) 0.58096(10)
H11_20 H 0.0253 0.0348 0.5502
C23_20 C 0.03792(12) 0.04312(16) 0.62263(10)
H12_20 H 0.0694 0.0483 0.6194
Zn2_8 Zn 0.33541(2) 0.10688(2) 0.60268(2)
O5_14 O 0.15690(7) 0.15145(6) 0.86165(6)
O6_12 O 0.17206(7) 0.06408(7) 0.91533(6)
C3_22 C 0.97978(9) 0.09418(10) 0.90903(9)
C4_22 C 0.92975(10) 0.10010(11) 0.92315(10)
O1_22 O 0.92033(8) 0.11077(11) 0.96554(8)
O2_14 O 0.90145(6) 0.09310(7) 0.88835(6)
C5_22 C 0.99233(9) 0.08434(9) 0.86094(8)
H3_22 H 0.9699 0.0802 0.8371
H4_22 H 0.9953 0.0636 0.7617
C19_20 C 0.97225(13) 0.03265(16) 0.67162(11)
H9_20 H 0.9585 0.0310 0.7024
C20_20 C 0.94592(13) 0.02379(17) 0.63025(12)
H10_20 H 0.9150 0.0160 0.6331
C21_20 C 0.96637(12) 0.02677(12) 0.58528(10)
Cl1_20 Cl 0.93331(3) 0.01617(4) 0.53321(3)
Zn3_14 Zn 0.83541(2) 0.10688(2) 0.89732(2)
C16_23 C 0.16591(9) 0.02081(10) 0.91365(9)
N1_23 N 0.16349(8) 0.82206(8) 0.13239(7)
C1_23 C 0.15483(11) 0.80988(10) 0.17883(9)
H1_23 H 0.1512 0.8329 0.2022
C2_23 C 0.15112(12) 0.76460(10) 0.19349(9)
H2_23 H 0.1455 0.7575 0.2262
C3_23 C 0.15582(10) 0.72978(9) 0.15903(9)
C4_23 C 0.14990(11) 0.67975(10) 0.17315(10)
O1_23 O 0.13923(11) 0.67033(8) 0.21554(8)
O2_15 O 0.15690(7) 0.65145(6) 0.13835(6)
C5_23 C 0.16566(9) 0.74233(9) 0.11094(8)
H3_23 H 0.1698 0.7199 0.0871
C6_23 C 0.16932(9) 0.78844(9) 0.09889(8)
C7_23 C 0.17927(9) 0.80525(9) 0.04815(8)
C8_23 C 0.18739(9) 0.77712(9) 0.00827(8)
H4_23 H 0.1864 0.7453 0.0117
C11_23 C 0.18774(8) 0.87086(9) 0.00054(8)
N2_23 N 0.17945(7) 0.85107(7) 0.04403(7)
C12_23 C 0.18479(9) 0.92171(9) 0.00046(8)
N3_23 N 0.18301(8) 0.94161(7) 0.04514(7)
C13_23 C 0.18178(11) 0.98748(10) 0.04749(9)
Zn3_15 Zn 0.14312(2) 0.58541(2) 0.14732(2)
O5_15 O 0.09855(6) 0.90690(7) 0.11165(6)
N1_24 N 0.33651(8) 0.17794(8) 0.63239(7)
C1_24 C 0.34517(11) 0.19012(10) 0.67883(9)
H1_24 H 0.3488 0.1671 0.7022
C2_24 C 0.34888(12) 0.23540(10) 0.69349(9)
H2_24 H 0.3545 0.2425 0.7262
C3_24 C 0.34418(10) 0.27022(9) 0.65903(9)
C4_24 C 0.35010(11) 0.32025(10) 0.67315(10)
O1_24 O 0.36077(11) 0.32967(8) 0.71554(8)
O2_16 O 0.34310(7) 0.34855(6) 0.63835(6)
C5_24 C 0.33434(9) 0.25767(9) 0.61094(8)
H3_24 H 0.3302 0.2801 0.5871
C6_24 C 0.33068(9) 0.21156(9) 0.59889(8)
C7_24 C 0.32073(9) 0.19475(9) 0.54815(8)
C8_24 C 0.31261(9) 0.22288(9) 0.50827(8)
H4_24 H 0.3136 0.2547 0.5117
C9_21 C 0.30282(9) 0.20316(9) 0.46270(8)
C10_21 C 0.30221(9) 0.15513(9) 0.45951(8)
H5_21 H 0.2951 0.1408 0.4300
C11_24 C 0.31226(8) 0.12914(9) 0.50054(8)
N2_24 N 0.32055(7) 0.14893(7) 0.54403(7)
C12_24 C 0.31521(9) 0.07829(9) 0.50046(8)
N3_24 N 0.31699(8) 0.05839(7) 0.54514(7)
C13_24 C 0.31822(11) 0.01252(10) 0.54749(9)
C15_21 C 0.32267(9) 0.00605(9) 0.46025(9)
O4_21 O 0.34960(7) 0.00018(8) 0.37830(7)
C17_21 C 0.31865(9) 0.05337(9) 0.45741(8)
H8_21 H 0.3183 0.0682 0.4272
C18_21 C 0.29383(10) 0.23166(10) 0.41829(9)
C19_21 C 0.28265(16) 0.27775(13) 0.42162(11)
H9_21 H 0.2810 0.2915 0.4524
C20_21 C 0.27379(17) 0.30408(13) 0.38025(12)
H10_21 H 0.2660 0.3350 0.3831
C21_21 C 0.27677(12) 0.28363(12) 0.33528(10)
Cl1_21 Cl 0.26617(4) 0.31669(3) 0.28321(3)
C22_21 C 0.28481(16) 0.23844(13) 0.33096(10)
H11_21 H 0.2848 0.2247 0.3002
C23_21 C 0.29312(16) 0.21208(12) 0.37263(10)
H12_21 H 0.2983 0.1806 0.3694
Zn3_16 Zn 0.35688(2) 0.41459(2) 0.64732(2)
O5_16 O 0.40145(6) 0.09310(7) 0.61165(6)
H6_21 H 0.3177 0.9985 0.5781
C14_21 C 0.32033(11) 0.98490(10) 0.50589(9)
H7_21 H 0.3202 0.9530 0.5086
C16_24 C 0.33409(9) 0.97919(10) 0.41365(9)
N1_25 N 0.07206(8) 0.58651(8) 0.11761(7)
C1_25 C 0.05988(10) 0.59517(11) 0.07117(9)
H1_25 H 0.0829 0.5988 0.0478
C2_25 C 0.01460(10) 0.59888(12) 0.05651(9)
H2_25 H 0.0075 0.6045 0.0238
C6_25 C 0.03844(9) 0.58068(9) 0.15111(8)
C7_25 C 0.05525(9) 0.57073(9) 0.20185(8)
C8_25 C 0.02712(9) 0.56261(9) 0.24173(8)
C9_22 C 0.04684(9) 0.55282(9) 0.28730(8)
C10_22 C 0.09487(9) 0.55221(9) 0.29049(8)
H5_22 H 0.1092 0.5451 0.3200
C11_25 C 0.12086(9) 0.56226(8) 0.24946(8)
N2_25 N 0.10107(7) 0.57055(7) 0.20597(7)
C12_25 C 0.17171(9) 0.56521(9) 0.24954(8)
N3_25 N 0.19161(7) 0.56699(8) 0.20486(7)
C13_25 C 0.23748(10) 0.56822(11) 0.20251(9)
H6_22 H 0.2515 0.5677 0.1719
C14_22 C 0.26510(10) 0.57033(11) 0.24411(9)
H7_22 H 0.2970 0.5702 0.2414
C15_22 C 0.24395(9) 0.57267(9) 0.28975(9)
C16_25 C 0.27081(10) 0.58409(9) 0.33635(9)
O3_13 O 0.31408(7) 0.57794(7) 0.33467(6)
O4_22 O 0.24982(8) 0.59960(7) 0.37170(7)
C17_22 C 0.19663(9) 0.56865(9) 0.29259(8)
H8_22 H 0.1818 0.5683 0.3228
C18_22 C 0.01834(10) 0.54383(10) 0.33171(9)
C22_22 C 0.01156(13) 0.53481(16) 0.41904(10)
H11_22 H 0.0253 0.5348 0.4498
C23_22 C 0.03792(12) 0.54312(16) 0.37737(10)
H12_22 H 0.0694 0.5483 0.3806
O6_13 O 0.17206(7) 0.56408(7) 0.08467(6)
C3_25 C 0.97978(9) 0.59418(10) 0.09097(9)
C4_25 C 0.92975(10) 0.60010(11) 0.07685(10)
O1_25 O 0.92033(8) 0.61077(11) 0.03446(8)
C5_25 C 0.99233(9) 0.58434(9) 0.13906(8)
H3_25 H 0.9699 0.5802 0.1629
H4_25 H 0.9953 0.5636 0.2383
C19_22 C 0.97225(13) 0.53265(16) 0.32838(11)
H9_22 H 0.9585 0.5310 0.2976
C20_22 C 0.94592(13) 0.52379(17) 0.36975(12)
H10_22 H 0.9150 0.5160 0.3669
C21_22 C 0.96637(12) 0.52677(12) 0.41472(10)
Cl1_22 Cl 0.93331(3) 0.51617(4) 0.46679(3)
N1_26 N 0.42794(8) 0.41349(8) 0.61761(7)
C1_26 C 0.44012(10) 0.40483(11) 0.57117(9)
H1_26 H 0.4171 0.4012 0.5478
C2_26 C 0.48540(10) 0.40112(12) 0.55651(9)
H2_26 H 0.4925 0.3955 0.5238
C3_26 C 0.52022(9) 0.40582(10) 0.59097(9)
C4_26 C 0.57025(10) 0.39990(11) 0.57685(10)
O1_26 O 0.57967(8) 0.38923(11) 0.53446(8)
C5_26 C 0.50767(9) 0.41566(9) 0.63906(8)
H3_26 H 0.5301 0.4198 0.6629
C6_26 C 0.46156(9) 0.41932(9) 0.65111(8)
C7_26 C 0.44475(9) 0.42927(9) 0.70185(8)
C8_26 C 0.47288(9) 0.43739(9) 0.74173(8)
H4_26 H 0.5047 0.4364 0.7383
C9_23 C 0.45316(9) 0.44718(9) 0.78730(8)
C10_23 C 0.40513(9) 0.44779(9) 0.79049(8)
H5_23 H 0.3908 0.4549 0.8200
C11_26 C 0.37914(9) 0.43774(8) 0.74946(8)
N2_26 N 0.39893(7) 0.42945(7) 0.70597(7)
C12_26 C 0.32829(9) 0.43479(9) 0.74954(8)
N3_26 N 0.30839(7) 0.43301(8) 0.70486(7)
C13_26 C 0.26252(10) 0.43178(11) 0.70251(9)
H6_23 H 0.2485 0.4323 0.6719
C14_23 C 0.23490(10) 0.42967(11) 0.74411(9)
H7_23 H 0.2030 0.4298 0.7414
C15_23 C 0.25605(9) 0.42733(9) 0.78975(9)
C16_26 C 0.22919(10) 0.41591(9) 0.83635(9)
O3_14 O 0.18592(7) 0.42206(7) 0.83467(6)
O4_23 O 0.25018(8) 0.40040(7) 0.87170(7)
C17_23 C 0.30337(9) 0.43135(9) 0.79259(8)
H8_23 H 0.3182 0.4317 0.8228
C18_23 C 0.48166(10) 0.45617(10) 0.83171(9)
C19_23 C 0.52775(13) 0.46735(16) 0.82838(11)
H9_23 H 0.5415 0.4690 0.7976
C20_23 C 0.55408(13) 0.47621(17) 0.86975(12)
H10_23 H 0.5850 0.4840 0.8669
C21_23 C 0.53363(12) 0.47323(12) 0.91472(10)
Cl1_23 Cl 0.56669(3) 0.48383(4) 0.96679(3)
C22_23 C 0.48844(13) 0.46519(16) 0.91904(10)
H11_23 H 0.4747 0.4652 0.9498
C23_23 C 0.46208(12) 0.45688(16) 0.87737(10)
H12_23 H 0.4306 0.4517 0.8806
O6_14 O 0.32794(7) 0.43592(7) 0.58467(6)
N1_27 N 0.33651(8) 0.67794(8) 0.36761(7)
C1_27 C 0.34517(11) 0.69012(10) 0.32117(9)
H1_27 H 0.3488 0.6671 0.2978
C2_27 C 0.34888(12) 0.73540(10) 0.30651(9)
H2_27 H 0.3545 0.7425 0.2738
C3_27 C 0.34418(10) 0.77022(9) 0.34097(9)
C4_27 C 0.35010(11) 0.82025(10) 0.32685(10)
O1_27 O 0.36077(11) 0.82967(8) 0.28446(8)
C5_27 C 0.33434(9) 0.75767(9) 0.38906(8)
H3_27 H 0.3302 0.7801 0.4129
C6_27 C 0.33068(9) 0.71156(9) 0.40111(8)
C7_27 C 0.32073(9) 0.69475(9) 0.45185(8)
C8_27 C 0.31261(9) 0.72288(9) 0.49173(8)
H4_27 H 0.3136 0.7547 0.4883
C9_24 C 0.30282(9) 0.70316(9) 0.53730(8)
C10_24 C 0.30221(9) 0.65513(9) 0.54049(8)
H5_24 H 0.2951 0.6408 0.5700
C11_27 C 0.31226(8) 0.62914(9) 0.49946(8)
N2_27 N 0.32055(7) 0.64893(7) 0.45597(7)
C12_27 C 0.31521(9) 0.57829(9) 0.49954(8)
N3_27 N 0.31699(8) 0.55839(7) 0.45486(7)
C13_27 C 0.31822(11) 0.51252(10) 0.45251(9)
H6_24 H 0.3177 0.4985 0.4219
C14_24 C 0.32033(11) 0.48490(10) 0.49411(9)
H7_24 H 0.3202 0.4530 0.4914
C15_24 C 0.32267(9) 0.50605(9) 0.53975(9)
C16_27 C 0.33409(9) 0.47919(10) 0.58635(9)
O4_24 O 0.34960(7) 0.50018(8) 0.62170(7)
C17_24 C 0.31865(9) 0.55337(9) 0.54259(8)
H8_24 H 0.3183 0.5682 0.5728
C18_24 C 0.29383(10) 0.73166(10) 0.58171(9)
C19_24 C 0.28265(16) 0.77775(13) 0.57838(11)
H9_24 H 0.2810 0.7915 0.5476
C20_24 C 0.27379(17) 0.80408(13) 0.61975(12)
H10_24 H 0.2660 0.8350 0.6169
C21_24 C 0.27677(12) 0.78363(12) 0.66472(10)
Cl1_24 Cl 0.26617(4) 0.81669(3) 0.71679(3)
C22_24 C 0.28481(16) 0.73844(13) 0.66904(10)
H11_24 H 0.2848 0.7247 0.6998
C23_24 C 0.29312(16) 0.71208(12) 0.62737(10)
H12_24 H 0.2983 0.6806 0.6306
C9_25 C 0.19718(9) 0.29684(9) 0.03730(8)
C10_25 C 0.19779(9) 0.34487(9) 0.04049(8)
H5_25 H 0.2049 0.3592 0.0700
C15_25 C 0.17733(9) 0.49395(9) 0.03975(9)
C16_28 C 0.16591(9) 0.52081(10) 0.08635(9)
O4_25 O 0.15040(7) 0.49982(8) 0.12170(7)
C17_25 C 0.18135(9) 0.44663(9) 0.04259(8)
H8_25 H 0.1817 0.4318 0.0728
C18_25 C 0.20617(10) 0.26834(10) 0.08171(9)
C19_25 C 0.21735(16) 0.22225(13) 0.07838(11)
H9_25 H 0.2190 0.2085 0.0476
C20_25 C 0.22621(17) 0.19592(13) 0.11975(12)
H10_25 H 0.2340 0.1650 0.1169
C21_25 C 0.22323(12) 0.21637(12) 0.16472(10)
Cl1_25 Cl 0.23383(4) 0.18331(3) 0.21679(3)
C22_25 C 0.21519(16) 0.26156(13) 0.16904(10)
H11_25 H 0.2152 0.2753 0.1998
C23_25 C 0.20688(16) 0.28792(12) 0.12737(10)
H12_25 H 0.2017 0.3194 0.1306
N1_28 N 0.16349(8) 0.32206(8) 0.86761(7)
C1_28 C 0.15483(11) 0.30988(10) 0.82117(9)
H1_28 H 0.1512 0.3329 0.7978
C2_28 C 0.15112(12) 0.26460(10) 0.80651(9)
H2_28 H 0.1455 0.2575 0.7738
C3_28 C 0.15582(10) 0.22978(9) 0.84097(9)
C4_28 C 0.14990(11) 0.17975(10) 0.82685(10)
O1_28 O 0.13923(11) 0.17033(8) 0.78446(8)
C5_28 C 0.16566(9) 0.24233(9) 0.88906(8)
H3_28 H 0.1698 0.2199 0.9129
C6_28 C 0.16932(9) 0.28844(9) 0.90111(8)
C7_28 C 0.17927(9) 0.30525(9) 0.95185(8)
C8_28 C 0.18739(9) 0.27712(9) 0.99173(8)
H4_28 H 0.1864 0.2453 0.9883
C11_28 C 0.18774(8) 0.37086(9) 0.99946(8)
N2_28 N 0.17945(7) 0.35107(7) 0.95597(7)
C12_28 C 0.18479(9) 0.42171(9) 0.99954(8)
N3_28 N 0.18301(8) 0.44161(7) 0.95486(7)
C13_28 C 0.18178(11) 0.48748(10) 0.95251(9)
H6_25 H 0.1823 0.5015 0.9219
C14_25 C 0.17967(11) 0.51510(10) 0.99411(9)
H7_25 H 0.1798 0.5470 0.9914
N1_29 N 0.57206(8) 0.08651(8) 0.61761(7)
C1_29 C 0.55988(10) 0.09517(11) 0.57117(9)
H1_29 H 0.5829 0.0988 0.5478
C2_29 C 0.51460(10) 0.09888(12) 0.55651(9)
H2_29 H 0.5075 0.1045 0.5238
C3_29 C 0.47978(9) 0.09418(10) 0.59097(9)
C4_29 C 0.42975(10) 0.10010(11) 0.57685(10)
O1_29 O 0.42033(8) 0.11077(11) 0.53446(8)
C5_29 C 0.49233(9) 0.08434(9) 0.63906(8)
H3_29 H 0.4699 0.0802 0.6629
C6_29 C 0.53844(9) 0.08068(9) 0.65111(8)
C7_29 C 0.55525(9) 0.07073(9) 0.70185(8)
C8_29 C 0.52712(9) 0.06261(9) 0.74173(8)
H4_29 H 0.4953 0.0636 0.7383
C9_26 C 0.54684(9) 0.05282(9) 0.78730(8)
C10_26 C 0.59487(9) 0.05221(9) 0.79049(8)
H5_26 H 0.6092 0.0451 0.8200
C11_29 C 0.62086(9) 0.06226(8) 0.74946(8)
N2_29 N 0.60107(7) 0.07055(7) 0.70597(7)
C12_29 C 0.67171(9) 0.06521(9) 0.74954(8)
N3_29 N 0.69161(7) 0.06699(8) 0.70486(7)
C13_29 C 0.73748(10) 0.06822(11) 0.70251(9)
H6_26 H 0.7515 0.0677 0.6719
C14_26 C 0.76510(10) 0.07033(11) 0.74411(9)
H7_26 H 0.7970 0.0702 0.7414
C15_26 C 0.74395(9) 0.07267(9) 0.78975(9)
C16_29 C 0.77081(10) 0.08409(9) 0.83635(9)
O3_15 O 0.81408(7) 0.07794(7) 0.83467(6)
O4_26 O 0.74982(8) 0.09960(7) 0.87170(7)
C17_26 C 0.69663(9) 0.06865(9) 0.79259(8)
H8_26 H 0.6818 0.0683 0.8228
C18_26 C 0.51834(10) 0.04383(10) 0.83171(9)
C19_26 C 0.47225(13) 0.03265(16) 0.82838(11)
H9_26 H 0.4585 0.0310 0.7976
C20_26 C 0.44592(13) 0.02379(17) 0.86975(12)
H10_26 H 0.4150 0.0160 0.8669
C21_26 C 0.46637(12) 0.02677(12) 0.91472(10)
Cl1_26 Cl 0.43331(3) 0.01617(4) 0.96679(3)
C22_26 C 0.51156(13) 0.03481(16) 0.91904(10)
H11_26 H 0.5253 0.0348 0.9498
C23_26 C 0.53792(12) 0.04312(16) 0.87737(10)
H12_26 H 0.5694 0.0483 0.8806
O6_15 O 0.67206(7) 0.06408(7) 0.58467(6)
C3_30 C 0.02022(9) 0.90582(10) 0.09097(9)
C4_30 C 0.07025(10) 0.89990(11) 0.07685(10)
O1_30 O 0.07967(8) 0.88923(11) 0.03446(8)
C5_30 C 0.00767(9) 0.91566(9) 0.13906(8)
H3_30 H 0.0301 0.9198 0.1629
H4_30 H 0.0047 0.9364 0.2383
C19_27 C 0.02775(13) 0.96735(16) 0.32838(11)
H9_27 H 0.0415 0.9690 0.2976
C20_27 C 0.05408(13) 0.97621(17) 0.36975(12)
H10_27 H 0.0850 0.9840 0.3669
C21_27 C 0.03363(12) 0.97323(12) 0.41472(10)
Cl1_27 Cl 0.06669(3) 0.98383(4) 0.46679(3)
N1_30 N 0.92794(8) 0.91349(8) 0.11761(7)
C1_30 C 0.94012(10) 0.90483(11) 0.07117(9)
H1_30 H 0.9171 0.9012 0.0478
C2_30 C 0.98540(10) 0.90112(12) 0.05651(9)
H2_30 H 0.9925 0.8955 0.0238
C6_30 C 0.96156(9) 0.91932(9) 0.15111(8)
C7_30 C 0.94475(9) 0.92927(9) 0.20185(8)
C8_30 C 0.97288(9) 0.93739(9) 0.24173(8)
C9_27 C 0.95316(9) 0.94718(9) 0.28730(8)
C10_27 C 0.90513(9) 0.94779(9) 0.29049(8)
H5_27 H 0.8908 0.9549 0.3200
C11_30 C 0.87914(9) 0.93774(8) 0.24946(8)
N2_30 N 0.89893(7) 0.92945(7) 0.20597(7)
C12_30 C 0.82829(9) 0.93479(9) 0.24954(8)
N3_30 N 0.80839(7) 0.93301(8) 0.20486(7)
C13_30 C 0.76252(10) 0.93178(11) 0.20251(9)
H6_27 H 0.7485 0.9323 0.1719
C14_27 C 0.73490(10) 0.92967(11) 0.24411(9)
H7_27 H 0.7030 0.9298 0.2414
C15_27 C 0.75605(9) 0.92733(9) 0.28975(9)
C16_30 C 0.72919(10) 0.91591(9) 0.33635(9)
O3_16 O 0.68592(7) 0.92206(7) 0.33467(6)
O4_27 O 0.75018(8) 0.90040(7) 0.37170(7)
C17_27 C 0.80337(9) 0.93135(9) 0.29259(8)
H8_27 H 0.8182 0.9317 0.3228
C18_27 C 0.98166(10) 0.95617(10) 0.33171(9)
C22_27 C 0.98844(13) 0.96519(16) 0.41904(10)
H11_27 H 0.9747 0.9652 0.4498
C23_27 C 0.96208(12) 0.95688(16) 0.37737(10)
H12_27 H 0.9306 0.9517 0.3806
O6_16 O 0.82794(7) 0.93592(7) 0.08467(6)
N1_31 N 0.83651(8) 0.17794(8) 0.86761(7)
C1_31 C 0.84517(11) 0.19012(10) 0.82117(9)
H1_31 H 0.8488 0.1671 0.7978
C2_31 C 0.84888(12) 0.23540(10) 0.80651(9)
H2_31 H 0.8545 0.2425 0.7738
C3_31 C 0.84418(10) 0.27022(9) 0.84097(9)
C4_31 C 0.85010(11) 0.32025(10) 0.82685(10)
O1_31 O 0.86077(11) 0.32967(8) 0.78446(8)
C5_31 C 0.83434(9) 0.25767(9) 0.88906(8)
H3_31 H 0.8302 0.2801 0.9129
C6_31 C 0.83068(9) 0.21156(9) 0.90111(8)
C7_31 C 0.82073(9) 0.19475(9) 0.95185(8)
C8_31 C 0.81261(9) 0.22288(9) 0.99173(8)
H4_31 H 0.8136 0.2547 0.9883
C11_31 C 0.81226(8) 0.12914(9) 0.99946(8)
N2_31 N 0.82055(7) 0.14893(7) 0.95597(7)
C12_31 C 0.81521(9) 0.07829(9) 0.99954(8)
N3_31 N 0.81699(8) 0.05839(7) 0.95486(7)
C13_31 C 0.81822(11) 0.01252(10) 0.95251(9)
C16_31 C 0.83409(9) 0.97919(10) 0.08635(9)
H6_28 H 0.6823 0.0015 0.4219
C14_28 C 0.67967(11) 0.01510(10) 0.49411(9)
H7_28 H 0.6798 0.0470 0.4914
C16_32 C 0.66591(9) 0.02081(10) 0.58635(9)
N1_32 N 0.66349(8) 0.82206(8) 0.36761(7)
C1_32 C 0.65483(11) 0.80988(10) 0.32117(9)
H1_32 H 0.6512 0.8329 0.2978
C2_32 C 0.65112(12) 0.76460(10) 0.30651(9)
H2_32 H 0.6455 0.7575 0.2738
C3_32 C 0.65582(10) 0.72978(9) 0.34097(9)
C4_32 C 0.64990(11) 0.67975(10) 0.32685(10)
O1_32 O 0.63923(11) 0.67033(8) 0.28446(8)
C5_32 C 0.66566(9) 0.74233(9) 0.38906(8)
H3_32 H 0.6698 0.7199 0.4129
C6_32 C 0.66932(9) 0.78844(9) 0.40111(8)
C7_32 C 0.67927(9) 0.80525(9) 0.45185(8)
C8_32 C 0.68739(9) 0.77712(9) 0.49173(8)
H4_32 H 0.6864 0.7453 0.4883
C9_28 C 0.69718(9) 0.79684(9) 0.53730(8)
C10_28 C 0.69779(9) 0.84487(9) 0.54049(8)
H5_28 H 0.7049 0.8592 0.5700
C11_32 C 0.68774(8) 0.87086(9) 0.49946(8)
N2_32 N 0.67945(7) 0.85107(7) 0.45597(7)
C12_32 C 0.68479(9) 0.92171(9) 0.49954(8)
N3_32 N 0.68301(8) 0.94161(7) 0.45486(7)
C13_32 C 0.68178(11) 0.98748(10) 0.45251(9)
C15_28 C 0.67733(9) 0.99395(9) 0.53975(9)
O4_28 O 0.65040(7) 0.99982(8) 0.62170(7)
C17_28 C 0.68135(9) 0.94663(9) 0.54259(8)
H8_28 H 0.6817 0.9318 0.5728
C18_28 C 0.70617(10) 0.76834(10) 0.58171(9)
C19_28 C 0.71735(16) 0.72225(13) 0.57838(11)
H9_28 H 0.7190 0.7085 0.5476
C20_28 C 0.72621(17) 0.69592(13) 0.61975(12)
H10_28 H 0.7340 0.6650 0.6169
C21_28 C 0.72323(12) 0.71637(12) 0.66472(10)
Cl1_28 Cl 0.73383(4) 0.68331(3) 0.71679(3)
C22_28 C 0.71519(16) 0.76156(13) 0.66904(10)
H11_28 H 0.7152 0.7753 0.6998
C23_28 C 0.70688(16) 0.78792(12) 0.62737(10)
H12_28 H 0.7017 0.8194 0.6306
H6_29 H 0.3177 0.0015 0.9219
C14_29 C 0.32033(11) 0.01510(10) 0.99411(9)
H7_29 H 0.3202 0.0470 0.9914
C9_29 C 0.30282(9) 0.79684(9) 0.03730(8)
C10_29 C 0.30221(9) 0.84487(9) 0.04049(8)
H5_29 H 0.2951 0.8592 0.0700
C15_29 C 0.32267(9) 0.99395(9) 0.03975(9)
O4_29 O 0.34960(7) 0.99982(8) 0.12170(7)
C17_29 C 0.31865(9) 0.94663(9) 0.04259(8)
H8_29 H 0.3183 0.9318 0.0728
C18_29 C 0.29383(10) 0.76834(10) 0.08171(9)
C19_29 C 0.28265(16) 0.72225(13) 0.07838(11)
H9_29 H 0.2810 0.7085 0.0476
C20_29 C 0.27379(17) 0.69592(13) 0.11975(12)
H10_29 H 0.2660 0.6650 0.1169
C21_29 C 0.27677(12) 0.71637(12) 0.16472(10)
Cl1_29 Cl 0.26617(4) 0.68331(3) 0.21679(3)
C22_29 C 0.28481(16) 0.76156(13) 0.16904(10)
H11_29 H 0.2848 0.7753 0.1998
C23_29 C 0.29312(16) 0.78792(12) 0.12737(10)
H12_29 H 0.2983 0.8194 0.1306
H6_30 H 0.1823 0.0015 0.0781
C14_30 C 0.17967(11) 0.01510(10) 0.00589(9)
H7_30 H 0.1798 0.0470 0.0086
C9_30 C 0.19718(9) 0.79684(9) 0.96270(8)
C10_30 C 0.19779(9) 0.84487(9) 0.95951(8)
H5_30 H 0.2049 0.8592 0.9300
C15_30 C 0.17733(9) 0.99395(9) 0.96025(9)
O4_30 O 0.15040(7) 0.99982(8) 0.87830(7)
C17_30 C 0.18135(9) 0.94663(9) 0.95741(8)
H8_30 H 0.1817 0.9318 0.9272
C18_30 C 0.20617(10) 0.76834(10) 0.91829(9)
C19_30 C 0.21735(16) 0.72225(13) 0.92162(11)
H9_30 H 0.2190 0.7085 0.9524
C20_30 C 0.22621(17) 0.69592(13) 0.88025(12)
H10_30 H 0.2340 0.6650 0.8831
C21_30 C 0.22323(12) 0.71637(12) 0.83528(10)
Cl1_30 Cl 0.23383(4) 0.68331(3) 0.78321(3)
C22_30 C 0.21519(16) 0.76156(13) 0.83096(10)
H11_30 H 0.2152 0.7753 0.8002
C23_30 C 0.20688(16) 0.78792(12) 0.87263(10)
H12_30 H 0.2017 0.8194 0.8694
C9_31 C 0.69718(9) 0.20316(9) 0.96270(8)
C10_31 C 0.69779(9) 0.15513(9) 0.95951(8)
H5_31 H 0.7049 0.1408 0.9300
C15_31 C 0.67733(9) 0.00605(9) 0.96025(9)
O4_31 O 0.65040(7) 0.00018(8) 0.87830(7)
C17_31 C 0.68135(9) 0.05337(9) 0.95741(8)
H8_31 H 0.6817 0.0682 0.9272
C18_31 C 0.70617(10) 0.23166(10) 0.91829(9)
C19_31 C 0.71735(16) 0.27775(13) 0.92162(11)
H9_31 H 0.7190 0.2915 0.9524
C20_31 C 0.72621(17) 0.30408(13) 0.88025(12)
H10_31 H 0.7340 0.3350 0.8831
C21_31 C 0.72323(12) 0.28363(12) 0.83528(10)
Cl1_31 Cl 0.73383(4) 0.31669(3) 0.78321(3)
C22_31 C 0.71519(16) 0.23844(13) 0.83096(10)
H11_31 H 0.7152 0.2247 0.8002
C23_31 C 0.70688(16) 0.21208(12) 0.87263(10)
H12_31 H 0.7017 0.1806 0.8694
H6_31 H 0.6823 0.9985 0.0781
C14_31 C 0.67967(11) 0.98490(10) 0.00589(9)
H7_31 H 0.6798 0.9530 0.0086
C9_32 C 0.80282(9) 0.20316(9) 0.03730(8)
C10_32 C 0.80221(9) 0.15513(9) 0.04049(8)
H5_32 H 0.7951 0.1408 0.0700
C15_32 C 0.82267(9) 0.00605(9) 0.03975(9)
O4_32 O 0.84960(7) 0.00018(8) 0.12170(7)
C17_32 C 0.81865(9) 0.05337(9) 0.04259(8)
H8_32 H 0.8183 0.0682 0.0728
C18_32 C 0.79383(10) 0.23166(10) 0.08171(9)
C19_32 C 0.78265(16) 0.27775(13) 0.07838(11)
H9_32 H 0.7810 0.2915 0.0476
C20_32 C 0.77379(17) 0.30408(13) 0.11975(12)
H10_32 H 0.7660 0.3350 0.1169
C21_32 C 0.77677(12) 0.28363(12) 0.16472(10)
Cl1_32 Cl 0.76617(4) 0.31669(3) 0.21679(3)
C22_32 C 0.78481(16) 0.23844(13) 0.16904(10)
H11_32 H 0.7848 0.2247 0.1998
C23_32 C 0.79312(16) 0.21208(12) 0.12737(10)
H12_32 H 0.7983 0.1806 0.1306
H6_32 H 0.8177 0.9985 0.9219
C14_32 C 0.82033(11) 0.98490(10) 0.99411(9)
H7_32 H 0.8202 0.9530 0.9914
loop_
_geom_bond_atom_site_label_1
_geom_bond_atom_site_label_2
_geom_bond_site_symmetry_1
_geom_bond_site_symmetry_2
Zn1 N1 1_555 1_555
N1 C1 1_555 1_555
C1 H1 1_555 1_555
C2 C1 1_555 1_555
H2 C2 1_555 1_555
C3 C2 1_555 1_555
C4 C3 1_555 1_555
O1 C4 1_555 1_555
O2 C4 1_555 1_555
C5 C3 1_555 1_555
H3 C5 1_555 1_555
C6 N1 1_555 1_555
C7 C6 1_555 1_555
C8 C7 1_555 1_555
H4 C8 1_555 1_555
C9 C8 1_555 1_555
C10 C9 1_555 1_555
H5 C10 1_555 1_555
C11 C10 1_555 1_555
N2 Zn1 1_555 1_555
C12 C11 1_555 1_555
N3 Zn1 1_555 1_555
C13 N3 1_555 1_555
H6 C13 1_555 1_555
C14 C13 1_555 1_555
H7 C14 1_555 1_555
C15 C14 1_555 1_555
C16 C15 1_555 1_555
O3 C16 1_555 1_555
O4 C16 1_555 1_555
C17 C12 1_555 1_555
H8 C17 1_555 1_555
C18 C9 1_555 1_555
C19 C18 1_555 1_555
H9 C19 1_555 1_555
C20 C19 1_555 1_555
H10 C20 1_555 1_555
C21 C20 1_555 1_555
Cl1 C21 1_555 1_555
C22 C21 1_555 1_555
H11 C22 1_555 1_555
C23 C18 1_555 1_555
H12 C23 1_555 1_555
Zn2 O3 1_555 1_555
Zn3 O2 1_555 1_555
O5 Zn1 1_555 1_555
O6 Zn1 1_555 1_555
C5 C6 1_555 1_555
C7 N2 1_555 1_555
C11 N2 1_555 1_555
C12 N3 1_555 1_555
C15 C17 1_555 1_555
C22 C23 1_555 1_555
C4_2 C3_2 1_555 1_555
O1_2 C4_2 1_555 1_555
O2_2 C4_2 1_555 1_555
C5_2 C3_2 1_555 1_555
H3_2 C5_2 1_555 1_555
H9_2 C19_2 1_555 1_555
C20_2 C19_2 1_555 1_555
H10_2 C20_2 1_555 1_555
C21_2 C20_2 1_555 1_555
Cl1_2 C21_2 1_555 1_555
Zn3_2 O2_2 1_555 1_555
Zn1_2 N1_2 1_555 1_555
N1_2 C1_2 1_555 1_555
C1_2 H1_2 1_555 1_555
C2_2 C1_2 1_555 1_555
H2_2 C2_2 1_555 1_555
C6_2 N1_2 1_555 1_555
C7_2 C6_2 1_555 1_555
C8_2 C7_2 1_555 1_555
C9_2 C8_2 1_555 1_555
C10_2 C9_2 1_555 1_555
H5_2 C10_2 1_555 1_555
C11_2 C10_2 1_555 1_555
N2_2 Zn1_2 1_555 1_555
C12_2 C11_2 1_555 1_555
N3_2 Zn1_2 1_555 1_555
C13_2 N3_2 1_555 1_555
H6_2 C13_2 1_555 1_555
C14_2 C13_2 1_555 1_555
H7_2 C14_2 1_555 1_555
C15_2 C14_2 1_555 1_555
C16_2 C15_2 1_555 1_555
O3_2 C16_2 1_555 1_555
O4_2 C16_2 1_555 1_555
C17_2 C12_2 1_555 1_555
H8_2 C17_2 1_555 1_555
C18_2 C9_2 1_555 1_555
H11_2 C22_2 1_555 1_555
C23_2 C18_2 1_555 1_555
H12_2 C23_2 1_555 1_555
Zn2_2 O3_2 1_555 1_555
O5_2 Zn1_2 1_555 1_555
O6_2 Zn1_2 1_555 1_555
C7_2 N2_2 1_555 1_555
C11_2 N2_2 1_555 1_555
C12_2 N3_2 1_555 1_555
C15_2 C17_2 1_555 1_555
C22_2 C23_2 1_555 1_555
Zn2 N1_3 1_555 1_555
N1_3 C1_3 1_555 1_555
C1_3 H1_3 1_555 1_555
C2_3 C1_3 1_555 1_555
H2_3 C2_3 1_555 1_555
C3_3 C2_3 1_555 1_555
C4_3 C3_3 1_555 1_555
O1_3 C4_3 1_555 1_555
O2_3 C4_3 1_555 1_555
C5_3 C3_3 1_555 1_555
H3_3 C5_3 1_555 1_555
C6_3 N1_3 1_555 1_555
C7_3 C6_3 1_555 1_555
C8_3 C7_3 1_555 1_555
H4_3 C8_3 1_555 1_555
C9_3 C8_3 1_555 1_555
C10_3 C9_3 1_555 1_555
H5_3 C10_3 1_555 1_555
C11_3 C10_3 1_555 1_555
N2_3 Zn2 1_555 1_555
C12_3 C11_3 1_555 1_555
N3_3 Zn2 1_555 1_555
C13_3 N3_3 1_555 1_555
H6_3 C13_3 1_555 1_555
C14_3 C13_3 1_555 1_555
H7_3 C14_3 1_555 1_555
C15_3 C14_3 1_555 1_555
C16_3 C15_3 1_555 1_555
O6_2 C16_3 1_555 1_555
O4_3 C16_3 1_555 1_555
C17_3 C12_3 1_555 1_555
H8_3 C17_3 1_555 1_555
C18_3 C9_3 1_555 1_555
C19_3 C18_3 1_555 1_555
H9_3 C19_3 1_555 1_555
C20_3 C19_3 1_555 1_555
H10_3 C20_3 1_555 1_555
C21_3 C20_3 1_555 1_555
Cl1_3 C21_3 1_555 1_555
C22_3 C21_3 1_555 1_555
H11_3 C22_3 1_555 1_555
C23_3 C18_3 1_555 1_555
H12_3 C23_3 1_555 1_555
Zn3_3 O2_3 1_555 1_555
O5_3 Zn2 1_555 1_555
C5_3 C6_3 1_555 1_555
C7_3 N2_3 1_555 1_555
C11_3 N2_3 1_555 1_555
C12_3 N3_3 1_555 1_555
C15_3 C17_3 1_555 1_555
C22_3 C23_3 1_555 1_555
C10_4 C9_4 1_555 1_555
H5_4 C10_4 1_555 1_555
C16_4 C15_4 1_555 1_555
O6 C16_4 1_555 1_555
O4_4 C16_4 1_555 1_555
H8_4 C17_4 1_555 1_555
C18_4 C9_4 1_555 1_555
C19_4 C18_4 1_555 1_555
H9_4 C19_4 1_555 1_555
C20_4 C19_4 1_555 1_555
H10_4 C20_4 1_555 1_555
C21_4 C20_4 1_555 1_555
Cl1_4 C21_4 1_555 1_555
C22_4 C21_4 1_555 1_555
H11_4 C22_4 1_555 1_555
C23_4 C18_4 1_555 1_555
H12_4 C23_4 1_555 1_555
C15_4 C17_4 1_555 1_555
C22_4 C23_4 1_555 1_555
Zn2_2 N1_4 1_555 1_555
N1_4 C1_4 1_555 1_555
C1_4 H1_4 1_555 1_555
C2_4 C1_4 1_555 1_555
H2_4 C2_4 1_555 1_555
C3_4 C2_4 1_555 1_555
C4_4 C3_4 1_555 1_555
O1_4 C4_4 1_555 1_555
O2_4 C4_4 1_555 1_555
C5_4 C3_4 1_555 1_555
H3_4 C5_4 1_555 1_555
C6_4 N1_4 1_555 1_555
C7_4 C6_4 1_555 1_555
C8_4 C7_4 1_555 1_555
H4_4 C8_4 1_555 1_555
N2_4 Zn2_2 1_555 1_555
C12_4 C11_4 1_555 1_555
N3_4 Zn2_2 1_555 1_555
C13_4 N3_4 1_555 1_555
H6_4 C13_4 1_555 1_555
C14_4 C13_4 1_555 1_555
H7_4 C14_4 1_555 1_555
Zn3_4 O2_4 1_555 1_555
O5_4 Zn2_2 1_555 1_555
C5_4 C6_4 1_555 1_555
C7_4 N2_4 1_555 1_555
C11_4 N2_4 1_555 1_555
C12_4 N3_4 1_555 1_555
Zn1_3 N1_5 1_555 1_555
N1_5 C1_5 1_555 1_555
C1_5 H1_5 1_555 1_555
C2_5 C1_5 1_555 1_555
H2_5 C2_5 1_555 1_555
C6_5 N1_5 1_555 1_555
C7_5 C6_5 1_555 1_555
C8_5 C7_5 1_555 1_555
C9_5 C8_5 1_555 1_555
C10_5 C9_5 1_555 1_555
H5_5 C10_5 1_555 1_555
C11_5 C10_5 1_555 1_555
N2_5 Zn1_3 1_555 1_555
C12_5 C11_5 1_555 1_555
N3_5 Zn1_3 1_555 1_555
C13_5 N3_5 1_555 1_555
H6_5 C13_5 1_555 1_555
C14_5 C13_5 1_555 1_555
H7_5 C14_5 1_555 1_555
C15_5 C14_5 1_555 1_555
C16_5 C15_5 1_555 1_555
O3_3 C16_5 1_555 1_555
O4_5 C16_5 1_555 1_555
C17_5 C12_5 1_555 1_555
H8_5 C17_5 1_555 1_555
C18_5 C9_5 1_555 1_555
H11_5 C22_5 1_555 1_555
C23_5 C18_5 1_555 1_555
H12_5 C23_5 1_555 1_555
Zn2_3 O3_3 1_555 1_555
O5_5 Zn1_3 1_555 1_555
O6_3 Zn1_3 1_555 1_555
C7_5 N2_5 1_555 1_555
C11_5 N2_5 1_555 1_555
C12_5 N3_5 1_555 1_555
C15_5 C17_5 1_555 1_555
C22_5 C23_5 1_555 1_555
C4_5 C3_5 1_555 1_555
O1_5 C4_5 1_555 1_555
O2_5 C4_5 1_555 1_555
C5_5 C3_5 1_555 1_555
H3_5 C5_5 1_555 1_555
H9_5 C19_5 1_555 1_555
C20_5 C19_5 1_555 1_555
H10_5 C20_5 1_555 1_555
C21_5 C20_5 1_555 1_555
Cl1_5 C21_5 1_555 1_555
Zn3_5 O2_5 1_555 1_555
Zn1_4 N1_6 1_555 1_555
N1_6 C1_6 1_555 1_555
C1_6 H1_6 1_555 1_555
C2_6 C1_6 1_555 1_555
H2_6 C2_6 1_555 1_555
C3_6 C2_6 1_555 1_555
C4_6 C3_6 1_555 1_555
O1_6 C4_6 1_555 1_555
O2_6 C4_6 1_555 1_555
C5_6 C3_6 1_555 1_555
H3_6 C5_6 1_555 1_555
C6_6 N1_6 1_555 1_555
C7_6 C6_6 1_555 1_555
C8_6 C7_6 1_555 1_555
H4_6 C8_6 1_555 1_555
C9_6 C8_6 1_555 1_555
C10_6 C9_6 1_555 1_555
H5_6 C10_6 1_555 1_555
C11_6 C10_6 1_555 1_555
N2_6 Zn1_4 1_555 1_555
C12_6 C11_6 1_555 1_555
N3_6 Zn1_4 1_555 1_555
C13_6 N3_6 1_555 1_555
H6_6 C13_6 1_555 1_555
C14_6 C13_6 1_555 1_555
H7_6 C14_6 1_555 1_555
C15_6 C14_6 1_555 1_555
C16_6 C15_6 1_555 1_555
O3_4 C16_6 1_555 1_555
O4_6 C16_6 1_555 1_555
C17_6 C12_6 1_555 1_555
H8_6 C17_6 1_555 1_555
C18_6 C9_6 1_555 1_555
C19_6 C18_6 1_555 1_555
H9_6 C19_6 1_555 1_555
C20_6 C19_6 1_555 1_555
H10_6 C20_6 1_555 1_555
C21_6 C20_6 1_555 1_555
Cl1_6 C21_6 1_555 1_555
C22_6 C21_6 1_555 1_555
H11_6 C22_6 1_555 1_555
C23_6 C18_6 1_555 1_555
H12_6 C23_6 1_555 1_555
Zn2_4 O3_4 1_555 1_555
Zn3_6 O2_6 1_555 1_555
O5_6 Zn1_4 1_555 1_555
O6_4 Zn1_4 1_555 1_555
C5_6 C6_6 1_555 1_555
C7_6 N2_6 1_555 1_555
C11_6 N2_6 1_555 1_555
C12_6 N3_6 1_555 1_555
C15_6 C17_6 1_555 1_555
C22_6 C23_6 1_555 1_555
O6_4 C16_7 1_555 1_555
Zn2_3 N1_7 1_555 1_555
N1_7 C1_7 1_555 1_555
C1_7 H1_7 1_555 1_555
C2_7 C1_7 1_555 1_555
H2_7 C2_7 1_555 1_555
C3_7 C2_7 1_555 1_555
C4_7 C3_7 1_555 1_555
O1_7 C4_7 1_555 1_555
O2_7 C4_7 1_555 1_555
C5_7 C3_7 1_555 1_555
H3_7 C5_7 1_555 1_555
C6_7 N1_7 1_555 1_555
C7_7 C6_7 1_555 1_555
C8_7 C7_7 1_555 1_555
H4_7 C8_7 1_555 1_555
N2_7 Zn2_3 1_555 1_555
C12_7 C11_7 1_555 1_555
N3_7 Zn2_3 1_555 1_555
C13_7 N3_7 1_555 1_555
Zn3_7 O2_7 1_555 1_555
O5_7 Zn2_3 1_555 1_555
C5_7 C6_7 1_555 1_555
C7_7 N2_7 1_555 1_555
C11_7 N2_7 1_555 1_555
C12_7 N3_7 1_555 1_555
Zn2_4 N1_8 1_555 1_555
N1_8 C1_8 1_555 1_555
C1_8 H1_8 1_555 1_555
C2_8 C1_8 1_555 1_555
H2_8 C2_8 1_555 1_555
C3_8 C2_8 1_555 1_555
C4_8 C3_8 1_555 1_555
O1_8 C4_8 1_555 1_555
O2_8 C4_8 1_555 1_555
C5_8 C3_8 1_555 1_555
H3_8 C5_8 1_555 1_555
C6_8 N1_8 1_555 1_555
C7_8 C6_8 1_555 1_555
C8_8 C7_8 1_555 1_555
H4_8 C8_8 1_555 1_555
C9_7 C8_8 1_555 1_555
C10_7 C9_7 1_555 1_555
H5_7 C10_7 1_555 1_555
C11_8 C10_7 1_555 1_555
N2_8 Zn2_4 1_555 1_555
C12_8 C11_8 1_555 1_555
N3_8 Zn2_4 1_555 1_555
C13_8 N3_8 1_555 1_555
C17_7 C12_8 1_555 1_555
H8_7 C17_7 1_555 1_555
C18_7 C9_7 1_555 1_555
C19_7 C18_7 1_555 1_555
H9_7 C19_7 1_555 1_555
C20_7 C19_7 1_555 1_555
H10_7 C20_7 1_555 1_555
C21_7 C20_7 1_555 1_555
Cl1_7 C21_7 1_555 1_555
C22_7 C21_7 1_555 1_555
H11_7 C22_7 1_555 1_555
C23_7 C18_7 1_555 1_555
H12_7 C23_7 1_555 1_555
Zn3_8 O2_8 1_555 1_555
O5_8 Zn2_4 1_555 1_555
C5_8 C6_8 1_555 1_555
C7_8 N2_8 1_555 1_555
C11_8 N2_8 1_555 1_555
C12_8 N3_8 1_555 1_555
C15_7 C17_7 1_555 1_555
C22_7 C23_7 1_555 1_555
H7_7 C14_7 1_555 1_555
O6_3 C16_8 1_555 1_555
Zn3_7 N1_9 1_555 1_555
N1_9 C1_9 1_555 1_555
C1_9 H1_9 1_555 1_555
C2_9 C1_9 1_555 1_555
H2_9 C2_9 1_555 1_555
C3_9 C2_9 1_555 1_555
C4_9 C3_9 1_555 1_555
O1_9 C4_9 1_555 1_555
O5_4 C4_9 1_555 1_555
C5_9 C3_9 1_555 1_555
H3_9 C5_9 1_555 1_555
C6_9 N1_9 1_555 1_555
C7_9 C6_9 1_555 1_555
C8_9 C7_9 1_555 1_555
H4_9 C8_9 1_555 1_555
C9_8 C8_9 1_555 1_555
C10_8 C9_8 1_555 1_555
H5_8 C10_8 1_555 1_555
C11_9 C10_8 1_555 1_555
N2_9 Zn3_7 1_555 1_555
C12_9 C11_9 1_555 1_555
N3_9 Zn3_7 1_555 1_555
C13_9 N3_9 1_555 1_555
H6_8 C13_9 1_555 1_555
C14_8 C13_9 1_555 1_555
H7_8 C14_8 1_555 1_555
C15_8 C14_8 1_555 1_555
C16_9 C15_8 1_555 1_555
O3_5 C16_9 1_555 1_555
O4_8 C16_9 1_555 1_555
C17_8 C12_9 1_555 1_555
H8_8 C17_8 1_555 1_555
C18_8 C9_8 1_555 1_555
C19_8 C18_8 1_555 1_555
H9_8 C19_8 1_555 1_555
C20_8 C19_8 1_555 1_555
H10_8 C20_8 1_555 1_555
C21_8 C20_8 1_555 1_555
Cl1_8 C21_8 1_555 1_555
C22_8 C21_8 1_555 1_555
H11_8 C22_8 1_555 1_555
C23_8 C18_8 1_555 1_555
H12_8 C23_8 1_555 1_555
Zn3_2 O3_5 1_555 1_555
O6_5 Zn3_7 1_555 1_555
C5_9 C6_9 1_555 1_555
C7_9 N2_9 1_555 1_555
C11_9 N2_9 1_555 1_555
C12_9 N3_9 1_555 1_555
C15_8 C17_8 1_555 1_555
C22_8 C23_8 1_555 1_555
Zn3_8 N1_10 1_555 1_555
N1_10 C1_10 1_555 1_555
C1_10 H1_10 1_555 1_555
C2_10 C1_10 1_555 1_555
H2_10 C2_10 1_555 1_555
C6_10 N1_10 1_555 1_555
C7_10 C6_10 1_555 1_555
C8_10 C7_10 1_555 1_555
C9_9 C8_10 1_555 1_555
C10_9 C9_9 1_555 1_555
H5_9 C10_9 1_555 1_555
C11_10 C10_9 1_555 1_555
N2_10 Zn3_8 1_555 1_555
C12_10 C11_10 1_555 1_555
N3_10 Zn3_8 1_555 1_555
C13_10 N3_10 1_555 1_555
H6_9 C13_10 1_555 1_555
C14_9 C13_10 1_555 1_555
H7_9 C14_9 1_555 1_555
C15_9 C14_9 1_555 1_555
C16_10 C15_9 1_555 1_555
O3_6 C16_10 1_555 1_555
O4_9 C16_10 1_555 1_555
C17_9 C12_10 1_555 1_555
H8_9 C17_9 1_555 1_555
C18_9 C9_9 1_555 1_555
H11_9 C22_9 1_555 1_555
C23_9 C18_9 1_555 1_555
H12_9 C23_9 1_555 1_555
Zn3 O3_6 1_555 1_555
O6_6 Zn3_8 1_555 1_555
C7_10 N2_10 1_555 1_555
C11_10 N2_10 1_555 1_555
C12_10 N3_10 1_555 1_555
C15_9 C17_9 1_555 1_555
C22_9 C23_9 1_555 1_555
C4_10 C3_10 1_555 1_555
O1_10 C4_10 1_555 1_555
O5_3 C4_10 1_555 1_555
C5_10 C3_10 1_555 1_555
H3_10 C5_10 1_555 1_555
H9_9 C19_9 1_555 1_555
C20_9 C19_9 1_555 1_555
H10_9 C20_9 1_555 1_555
C21_9 C20_9 1_555 1_555
Cl1_9 C21_9 1_555 1_555
Zn3_2 N1_11 1_555 1_555
N1_11 C1_11 1_555 1_555
C1_11 H1_11 1_555 1_555
C2_11 C1_11 1_555 1_555
H2_11 C2_11 1_555 1_555
C3_11 C2_11 1_555 1_555
C4_11 C3_11 1_555 1_555
O1_11 C4_11 1_555 1_555
O5_5 C4_11 1_555 1_555
C5_11 C3_11 1_555 1_555
H3_11 C5_11 1_555 1_555
C6_11 N1_11 1_555 1_555
C7_11 C6_11 1_555 1_555
C8_11 C7_11 1_555 1_555
H4_11 C8_11 1_555 1_555
C9_10 C8_11 1_555 1_555
C10_10 C9_10 1_555 1_555
H5_10 C10_10 1_555 1_555
C11_11 C10_10 1_555 1_555
N2_11 Zn3_2 1_555 1_555
C12_11 C11_11 1_555 1_555
N3_11 Zn3_2 1_555 1_555
C13_11 N3_11 1_555 1_555
H6_10 C13_11 1_555 1_555
C14_10 C13_11 1_555 1_555
H7_10 C14_10 1_555 1_555
C15_10 C14_10 1_555 1_555
C16_11 C15_10 1_555 1_555
O6_6 C16_11 1_555 1_555
O4_10 C16_11 1_555 1_555
C17_10 C12_11 1_555 1_555
H8_10 C17_10 1_555 1_555
C18_10 C9_10 1_555 1_555
C19_10 C18_10 1_555 1_555
H9_10 C19_10 1_555 1_555
C20_10 C19_10 1_555 1_555
H10_10 C20_10 1_555 1_555
C21_10 C20_10 1_555 1_555
Cl1_10 C21_10 1_555 1_555
C22_10 C21_10 1_555 1_555
H11_10 C22_10 1_555 1_555
C23_10 C18_10 1_555 1_555
H12_10 C23_10 1_555 1_555
C5_11 C6_11 1_555 1_555
C7_11 N2_11 1_555 1_555
C11_11 N2_11 1_555 1_555
C12_11 N3_11 1_555 1_555
C15_10 C17_10 1_555 1_555
C22_10 C23_10 1_555 1_555
Zn3 N1_12 1_555 1_555
N1_12 C1_12 1_555 1_555
C1_12 H1_12 1_555 1_555
C2_12 C1_12 1_555 1_555
H2_12 C2_12 1_555 1_555
C3_12 C2_12 1_555 1_555
C4_12 C3_12 1_555 1_555
O1_12 C4_12 1_555 1_555
O5_6 C4_12 1_555 1_555
C5_12 C3_12 1_555 1_555
H3_12 C5_12 1_555 1_555
C6_12 N1_12 1_555 1_555
C7_12 C6_12 1_555 1_555
C8_12 C7_12 1_555 1_555
H4_12 C8_12 1_555 1_555
N2_12 Zn3 1_555 1_555
C12_12 C11_12 1_555 1_555
N3_12 Zn3 1_555 1_555
C13_12 N3_12 1_555 1_555
H6_11 C13_12 1_555 1_555
C14_11 C13_12 1_555 1_555
H7_11 C14_11 1_555 1_555
C5_12 C6_12 1_555 1_555
C7_12 N2_12 1_555 1_555
C11_12 N2_12 1_555 1_555
C12_12 N3_12 1_555 1_555
C10_11 C9_11 1_555 1_555
H5_11 C10_11 1_555 1_555
C16_12 C15_11 1_555 1_555
O6_5 C16_12 1_555 1_555
O4_11 C16_12 1_555 1_555
H8_11 C17_11 1_555 1_555
C18_11 C9_11 1_555 1_555
C19_11 C18_11 1_555 1_555
H9_11 C19_11 1_555 1_555
C20_11 C19_11 1_555 1_555
H10_11 C20_11 1_555 1_555
C21_11 C20_11 1_555 1_555
Cl1_11 C21_11 1_555 1_555
C22_11 C21_11 1_555 1_555
H11_11 C22_11 1_555 1_555
C23_11 C18_11 1_555 1_555
H12_11 C23_11 1_555 1_555
C15_11 C17_11 1_555 1_555
C22_11 C23_11 1_555 1_555
C4_13 C3_13 1_555 1_555
O1_13 C4_13 1_555 1_555
O5_8 C4_13 1_555 1_555
C5_13 C3_13 1_555 1_555
H3_13 C5_13 1_555 1_555
H9_12 C19_12 1_555 1_555
C20_12 C19_12 1_555 1_555
H10_12 C20_12 1_555 1_555
C21_12 C20_12 1_555 1_555
Cl1_12 C21_12 1_555 1_555
Zn3_3 N1_13 1_555 1_555
N1_13 C1_13 1_555 1_555
C1_13 H1_13 1_555 1_555
C2_13 C1_13 1_555 1_555
H2_13 C2_13 1_555 1_555
C6_13 N1_13 1_555 1_555
C7_13 C6_13 1_555 1_555
C8_13 C7_13 1_555 1_555
C9_12 C8_13 1_555 1_555
C10_12 C9_12 1_555 1_555
H5_12 C10_12 1_555 1_555
C11_13 C10_12 1_555 1_555
N2_13 Zn3_3 1_555 1_555
C12_13 C11_13 1_555 1_555
N3_13 Zn3_3 1_555 1_555
C13_13 N3_13 1_555 1_555
H6_12 C13_13 1_555 1_555
C14_12 C13_13 1_555 1_555
H7_12 C14_12 1_555 1_555
C15_12 C14_12 1_555 1_555
C16_13 C15_12 1_555 1_555
O3_7 C16_13 1_555 1_555
O4_12 C16_13 1_555 1_555
C17_12 C12_13 1_555 1_555
H8_12 C17_12 1_555 1_555
C18_12 C9_12 1_555 1_555
H11_12 C22_12 1_555 1_555
C23_12 C18_12 1_555 1_555
H12_12 C23_12 1_555 1_555
Zn3_6 O3_7 1_555 1_555
O6_7 Zn3_3 1_555 1_555
C7_13 N2_13 1_555 1_555
C11_13 N2_13 1_555 1_555
C12_13 N3_13 1_555 1_555
C15_12 C17_12 1_555 1_555
C22_12 C23_12 1_555 1_555
Zn3_4 N1_14 1_555 1_555
N1_14 C1_14 1_555 1_555
C1_14 H1_14 1_555 1_555
C2_14 C1_14 1_555 1_555
H2_14 C2_14 1_555 1_555
C3_14 C2_14 1_555 1_555
C4_14 C3_14 1_555 1_555
O1_14 C4_14 1_555 1_555
O5_7 C4_14 1_555 1_555
C5_14 C3_14 1_555 1_555
H3_14 C5_14 1_555 1_555
C6_14 N1_14 1_555 1_555
C7_14 C6_14 1_555 1_555
C8_14 C7_14 1_555 1_555
H4_14 C8_14 1_555 1_555
C9_13 C8_14 1_555 1_555
C10_13 C9_13 1_555 1_555
H5_13 C10_13 1_555 1_555
C11_14 C10_13 1_555 1_555
N2_14 Zn3_4 1_555 1_555
C12_14 C11_14 1_555 1_555
N3_14 Zn3_4 1_555 1_555
C13_14 N3_14 1_555 1_555
H6_13 C13_14 1_555 1_555
C14_13 C13_14 1_555 1_555
H7_13 C14_13 1_555 1_555
C15_13 C14_13 1_555 1_555
C16_14 C15_13 1_555 1_555
O3_8 C16_14 1_555 1_555
O4_13 C16_14 1_555 1_555
C17_13 C12_14 1_555 1_555
H8_13 C17_13 1_555 1_555
C18_13 C9_13 1_555 1_555
C19_13 C18_13 1_555 1_555
H9_13 C19_13 1_555 1_555
C20_13 C19_13 1_555 1_555
H10_13 C20_13 1_555 1_555
C21_13 C20_13 1_555 1_555
Cl1_13 C21_13 1_555 1_555
C22_13 C21_13 1_555 1_555
H11_13 C22_13 1_555 1_555
C23_13 C18_13 1_555 1_555
H12_13 C23_13 1_555 1_555
Zn3_5 O3_8 1_555 1_555
O6_8 Zn3_4 1_555 1_555
C5_14 C6_14 1_555 1_555
C7_14 N2_14 1_555 1_555
C11_14 N2_14 1_555 1_555
C12_14 N3_14 1_555 1_555
C15_13 C17_13 1_555 1_555
C22_13 C23_13 1_555 1_555
Zn3_6 N1_15 1_555 1_555
N1_15 C1_15 1_555 1_555
C1_15 H1_15 1_555 1_555
C2_15 C1_15 1_555 1_555
H2_15 C2_15 1_555 1_555
C3_15 C2_15 1_555 1_555
C4_15 C3_15 1_555 1_555
O1_15 C4_15 1_555 1_555
O5 C4_15 1_555 1_555
C5_15 C3_15 1_555 1_555
H3_15 C5_15 1_555 1_555
C6_15 N1_15 1_555 1_555
C7_15 C6_15 1_555 1_555
C8_15 C7_15 1_555 1_555
H4_15 C8_15 1_555 1_555
N2_15 Zn3_6 1_555 1_555
C12_15 C11_15 1_555 1_555
N3_15 Zn3_6 1_555 1_555
C13_15 N3_15 1_555 1_555
C5_15 C6_15 1_555 1_555
C7_15 N2_15 1_555 1_555
C11_15 N2_15 1_555 1_555
C12_15 N3_15 1_555 1_555
O6_8 C16_15 1_555 1_555
H7_14 C14_14 1_555 1_555
O6_7 C16_16 1_555 1_555
Zn3_5 N1_16 1_555 1_555
N1_16 C1_16 1_555 1_555
C1_16 H1_16 1_555 1_555
C2_16 C1_16 1_555 1_555
H2_16 C2_16 1_555 1_555
C3_16 C2_16 1_555 1_555
C4_16 C3_16 1_555 1_555
O1_16 C4_16 1_555 1_555
O5_2 C4_16 1_555 1_555
C5_16 C3_16 1_555 1_555
H3_16 C5_16 1_555 1_555
C6_16 N1_16 1_555 1_555
C7_16 C6_16 1_555 1_555
C8_16 C7_16 1_555 1_555
H4_16 C8_16 1_555 1_555
C9_14 C8_16 1_555 1_555
C10_14 C9_14 1_555 1_555
H5_14 C10_14 1_555 1_555
C11_16 C10_14 1_555 1_555
N2_16 Zn3_5 1_555 1_555
C12_16 C11_16 1_555 1_555
N3_16 Zn3_5 1_555 1_555
C13_16 N3_16 1_555 1_555
C17_14 C12_16 1_555 1_555
H8_14 C17_14 1_555 1_555
C18_14 C9_14 1_555 1_555
C19_14 C18_14 1_555 1_555
H9_14 C19_14 1_555 1_555
C20_14 C19_14 1_555 1_555
H10_14 C20_14 1_555 1_555
C21_14 C20_14 1_555 1_555
Cl1_14 C21_14 1_555 1_555
C22_14 C21_14 1_555 1_555
H11_14 C22_14 1_555 1_555
C23_14 C18_14 1_555 1_555
H12_14 C23_14 1_555 1_555
C5_16 C6_16 1_555 1_555
C7_16 N2_16 1_555 1_555
C11_16 N2_16 1_555 1_555
C12_16 N3_16 1_555 1_555
C15_14 C17_14 1_555 1_555
C22_14 C23_14 1_555 1_555
C4_17 C3_17 1_555 1_555
O1_17 C4_17 1_555 1_555
O2_9 C4_17 1_555 1_555
C5_17 C3_17 1_555 1_555
H3_17 C5_17 1_555 1_555
H9_15 C19_15 1_555 1_555
C20_15 C19_15 1_555 1_555
H10_15 C20_15 1_555 1_555
C21_15 C20_15 1_555 1_555
Cl1_15 C21_15 1_555 1_555
Zn3_9 O2_9 1_555 1_555
Zn1_5 N1_17 1_555 1_555
N1_17 C1_17 1_555 1_555
C1_17 H1_17 1_555 1_555
C2_17 C1_17 1_555 1_555
H2_17 C2_17 1_555 1_555
C6_17 N1_17 1_555 1_555
C7_17 C6_17 1_555 1_555
C8_17 C7_17 1_555 1_555
C9_15 C8_17 1_555 1_555
C10_15 C9_15 1_555 1_555
H5_15 C10_15 1_555 1_555
C11_17 C10_15 1_555 1_555
N2_17 Zn1_5 1_555 1_555
C12_17 C11_17 1_555 1_555
N3_17 Zn1_5 1_555 1_555
C13_17 N3_17 1_555 1_555
H6_15 C13_17 1_555 1_555
C14_15 C13_17 1_555 1_555
H7_15 C14_15 1_555 1_555
C15_15 C14_15 1_555 1_555
C16_17 C15_15 1_555 1_555
O3_9 C16_17 1_555 1_555
O4_15 C16_17 1_555 1_555
C17_15 C12_17 1_555 1_555
H8_15 C17_15 1_555 1_555
C18_15 C9_15 1_555 1_555
H11_15 C22_15 1_555 1_555
C23_15 C18_15 1_555 1_555
H12_15 C23_15 1_555 1_555
Zn2_5 O3_9 1_555 1_555
O5_9 Zn1_5 1_555 1_555
O6_9 Zn1_5 1_555 1_555
C7_17 N2_17 1_555 1_555
C11_17 N2_17 1_555 1_555
C12_17 N3_17 1_555 1_555
C15_15 C17_15 1_555 1_555
C22_15 C23_15 1_555 1_555
Zn1_6 N1_18 1_555 1_555
N1_18 C1_18 1_555 1_555
C1_18 H1_18 1_555 1_555
C2_18 C1_18 1_555 1_555
H2_18 C2_18 1_555 1_555
C3_18 C2_18 1_555 1_555
C4_18 C3_18 1_555 1_555
O1_18 C4_18 1_555 1_555
O2_10 C4_18 1_555 1_555
C5_18 C3_18 1_555 1_555
H3_18 C5_18 1_555 1_555
C6_18 N1_18 1_555 1_555
C7_18 C6_18 1_555 1_555
C8_18 C7_18 1_555 1_555
H4_18 C8_18 1_555 1_555
C9_16 C8_18 1_555 1_555
C10_16 C9_16 1_555 1_555
H5_16 C10_16 1_555 1_555
C11_18 C10_16 1_555 1_555
N2_18 Zn1_6 1_555 1_555
C12_18 C11_18 1_555 1_555
N3_18 Zn1_6 1_555 1_555
C13_18 N3_18 1_555 1_555
H6_16 C13_18 1_555 1_555
C14_16 C13_18 1_555 1_555
H7_16 C14_16 1_555 1_555
C15_16 C14_16 1_555 1_555
C16_18 C15_16 1_555 1_555
O3_10 C16_18 1_555 1_555
O4_16 C16_18 1_555 1_555
C17_16 C12_18 1_555 1_555
H8_16 C17_16 1_555 1_555
C18_16 C9_16 1_555 1_555
C19_16 C18_16 1_555 1_555
H9_16 C19_16 1_555 1_555
C20_16 C19_16 1_555 1_555
H10_16 C20_16 1_555 1_555
C21_16 C20_16 1_555 1_555
Cl1_16 C21_16 1_555 1_555
C22_16 C21_16 1_555 1_555
H11_16 C22_16 1_555 1_555
C23_16 C18_16 1_555 1_555
H12_16 C23_16 1_555 1_555
Zn2_6 O3_10 1_555 1_555
Zn3_10 O2_10 1_555 1_555
O5_10 Zn1_6 1_555 1_555
O6_10 Zn1_6 1_555 1_555
C5_18 C6_18 1_555 1_555
C7_18 N2_18 1_555 1_555
C11_18 N2_18 1_555 1_555
C12_18 N3_18 1_555 1_555
C15_16 C17_16 1_555 1_555
C22_16 C23_16 1_555 1_555
Zn2_5 N1_19 1_555 1_555
N1_19 C1_19 1_555 1_555
C1_19 H1_19 1_555 1_555
C2_19 C1_19 1_555 1_555
H2_19 C2_19 1_555 1_555
C3_19 C2_19 1_555 1_555
C4_19 C3_19 1_555 1_555
O1_19 C4_19 1_555 1_555
O2_11 C4_19 1_555 1_555
C5_19 C3_19 1_555 1_555
H3_19 C5_19 1_555 1_555
C6_19 N1_19 1_555 1_555
C7_19 C6_19 1_555 1_555
C8_19 C7_19 1_555 1_555
H4_19 C8_19 1_555 1_555
C9_17 C8_19 1_555 1_555
C10_17 C9_17 1_555 1_555
H5_17 C10_17 1_555 1_555
C11_19 C10_17 1_555 1_555
N2_19 Zn2_5 1_555 1_555
C12_19 C11_19 1_555 1_555
N3_19 Zn2_5 1_555 1_555
C13_19 N3_19 1_555 1_555
H6_17 C13_19 1_555 1_555
C14_17 C13_19 1_555 1_555
H7_17 C14_17 1_555 1_555
C15_17 C14_17 1_555 1_555
C16_19 C15_17 1_555 1_555
O6_10 C16_19 1_555 1_555
O4_17 C16_19 1_555 1_555
C17_17 C12_19 1_555 1_555
H8_17 C17_17 1_555 1_555
C18_17 C9_17 1_555 1_555
C19_17 C18_17 1_555 1_555
H9_17 C19_17 1_555 1_555
C20_17 C19_17 1_555 1_555
H10_17 C20_17 1_555 1_555
C21_17 C20_17 1_555 1_555
Cl1_17 C21_17 1_555 1_555
C22_17 C21_17 1_555 1_555
H11_17 C22_17 1_555 1_555
C23_17 C18_17 1_555 1_555
H12_17 C23_17 1_555 1_555
Zn3_11 O2_11 1_555 1_555
O5_11 Zn2_5 1_555 1_555
C5_19 C6_19 1_555 1_555
C7_19 N2_19 1_555 1_555
C11_19 N2_19 1_555 1_555
C12_19 N3_19 1_555 1_555
C15_17 C17_17 1_555 1_555
C22_17 C23_17 1_555 1_555
Zn2_6 N1_20 1_555 1_555
N1_20 C1_20 1_555 1_555
C1_20 H1_20 1_555 1_555
C2_20 C1_20 1_555 1_555
H2_20 C2_20 1_555 1_555
C3_20 C2_20 1_555 1_555
C4_20 C3_20 1_555 1_555
O1_20 C4_20 1_555 1_555
O2_12 C4_20 1_555 1_555
C5_20 C3_20 1_555 1_555
H3_20 C5_20 1_555 1_555
C6_20 N1_20 1_555 1_555
C7_20 C6_20 1_555 1_555
C8_20 C7_20 1_555 1_555
H4_20 C8_20 1_555 1_555
N2_20 Zn2_6 1_555 1_555
C12_20 C11_20 1_555 1_555
N3_20 Zn2_6 1_555 1_555
C13_20 N3_20 1_555 1_555
H6_18 C13_20 1_555 1_555
C14_18 C13_20 1_555 1_555
H7_18 C14_18 1_555 1_555
Zn3_12 O2_12 1_555 1_555
O5_12 Zn2_6 1_555 1_555
C5_20 C6_20 1_555 1_555
C7_20 N2_20 1_555 1_555
C11_20 N2_20 1_555 1_555
C12_20 N3_20 1_555 1_555
C10_18 C9_18 1_555 1_555
H5_18 C10_18 1_555 1_555
C16_20 C15_18 1_555 1_555
O6_9 C16_20 1_555 1_555
O4_18 C16_20 1_555 1_555
H8_18 C17_18 1_555 1_555
C18_18 C9_18 1_555 1_555
C19_18 C18_18 1_555 1_555
H9_18 C19_18 1_555 1_555
C20_18 C19_18 1_555 1_555
H10_18 C20_18 1_555 1_555
C21_18 C20_18 1_555 1_555
Cl1_18 C21_18 1_555 1_555
C22_18 C21_18 1_555 1_555
H11_18 C22_18 1_555 1_555
C23_18 C18_18 1_555 1_555
H12_18 C23_18 1_555 1_555
C15_18 C17_18 1_555 1_555
C22_18 C23_18 1_555 1_555
Zn1_7 N1_21 1_555 1_555
N1_21 C1_21 1_555 1_555
C1_21 H1_21 1_555 1_555
C2_21 C1_21 1_555 1_555
H2_21 C2_21 1_555 1_555
C3_21 C2_21 1_555 1_555
C4_21 C3_21 1_555 1_555
O1_21 C4_21 1_555 1_555
O2_13 C4_21 1_555 1_555
C5_21 C3_21 1_555 1_555
H3_21 C5_21 1_555 1_555
C6_21 N1_21 1_555 1_555
C7_21 C6_21 1_555 1_555
C8_21 C7_21 1_555 1_555
H4_21 C8_21 1_555 1_555
C9_19 C8_21 1_555 1_555
C10_19 C9_19 1_555 1_555
H5_19 C10_19 1_555 1_555
C11_21 C10_19 1_555 1_555
N2_21 Zn1_7 1_555 1_555
C12_21 C11_21 1_555 1_555
N3_21 Zn1_7 1_555 1_555
C13_21 N3_21 1_555 1_555
H6_19 C13_21 1_555 1_555
C14_19 C13_21 1_555 1_555
H7_19 C14_19 1_555 1_555
C15_19 C14_19 1_555 1_555
C16_21 C15_19 1_555 1_555
O3_11 C16_21 1_555 1_555
O4_19 C16_21 1_555 1_555
C17_19 C12_21 1_555 1_555
H8_19 C17_19 1_555 1_555
C18_19 C9_19 1_555 1_555
C19_19 C18_19 1_555 1_555
H9_19 C19_19 1_555 1_555
C20_19 C19_19 1_555 1_555
H10_19 C20_19 1_555 1_555
C21_19 C20_19 1_555 1_555
Cl1_19 C21_19 1_555 1_555
C22_19 C21_19 1_555 1_555
H11_19 C22_19 1_555 1_555
C23_19 C18_19 1_555 1_555
H12_19 C23_19 1_555 1_555
Zn2_7 O3_11 1_555 1_555
Zn3_13 O2_13 1_555 1_555
O5_13 Zn1_7 1_555 1_555
O6_11 Zn1_7 1_555 1_555
C5_21 C6_21 1_555 1_555
C7_21 N2_21 1_555 1_555
C11_21 N2_21 1_555 1_555
C12_21 N3_21 1_555 1_555
C15_19 C17_19 1_555 1_555
C22_19 C23_19 1_555 1_555
Zn1_8 N1_22 1_555 1_555
N1_22 C1_22 1_555 1_555
C1_22 H1_22 1_555 1_555
C2_22 C1_22 1_555 1_555
H2_22 C2_22 1_555 1_555
C6_22 N1_22 1_555 1_555
C7_22 C6_22 1_555 1_555
C8_22 C7_22 1_555 1_555
C9_20 C8_22 1_555 1_555
C10_20 C9_20 1_555 1_555
H5_20 C10_20 1_555 1_555
C11_22 C10_20 1_555 1_555
N2_22 Zn1_8 1_555 1_555
C12_22 C11_22 1_555 1_555
N3_22 Zn1_8 1_555 1_555
C13_22 N3_22 1_555 1_555
H6_20 C13_22 1_555 1_555
C14_20 C13_22 1_555 1_555
H7_20 C14_20 1_555 1_555
C15_20 C14_20 1_555 1_555
C16_22 C15_20 1_555 1_555
O3_12 C16_22 1_555 1_555
O4_20 C16_22 1_555 1_555
C17_20 C12_22 1_555 1_555
H8_20 C17_20 1_555 1_555
C18_20 C9_20 1_555 1_555
H11_20 C22_20 1_555 1_555
C23_20 C18_20 1_555 1_555
H12_20 C23_20 1_555 1_555
Zn2_8 O3_12 1_555 1_555
O5_14 Zn1_8 1_555 1_555
O6_12 Zn1_8 1_555 1_555
C7_22 N2_22 1_555 1_555
C11_22 N2_22 1_555 1_555
C12_22 N3_22 1_555 1_555
C15_20 C17_20 1_555 1_555
C22_20 C23_20 1_555 1_555
C4_22 C3_22 1_555 1_555
O1_22 C4_22 1_555 1_555
O2_14 C4_22 1_555 1_555
C5_22 C3_22 1_555 1_555
H3_22 C5_22 1_555 1_555
H9_20 C19_20 1_555 1_555
C20_20 C19_20 1_555 1_555
H10_20 C20_20 1_555 1_555
C21_20 C20_20 1_555 1_555
Cl1_20 C21_20 1_555 1_555
Zn3_14 O2_14 1_555 1_555
O6_12 C16_23 1_555 1_555
Zn2_7 N1_23 1_555 1_555
N1_23 C1_23 1_555 1_555
C1_23 H1_23 1_555 1_555
C2_23 C1_23 1_555 1_555
H2_23 C2_23 1_555 1_555
C3_23 C2_23 1_555 1_555
C4_23 C3_23 1_555 1_555
O1_23 C4_23 1_555 1_555
O2_15 C4_23 1_555 1_555
C5_23 C3_23 1_555 1_555
H3_23 C5_23 1_555 1_555
C6_23 N1_23 1_555 1_555
C7_23 C6_23 1_555 1_555
C8_23 C7_23 1_555 1_555
H4_23 C8_23 1_555 1_555
N2_23 Zn2_7 1_555 1_555
C12_23 C11_23 1_555 1_555
N3_23 Zn2_7 1_555 1_555
C13_23 N3_23 1_555 1_555
Zn3_15 O2_15 1_555 1_555
O5_15 Zn2_7 1_555 1_555
C5_23 C6_23 1_555 1_555
C7_23 N2_23 1_555 1_555
C11_23 N2_23 1_555 1_555
C12_23 N3_23 1_555 1_555
Zn2_8 N1_24 1_555 1_555
N1_24 C1_24 1_555 1_555
C1_24 H1_24 1_555 1_555
C2_24 C1_24 1_555 1_555
H2_24 C2_24 1_555 1_555
C3_24 C2_24 1_555 1_555
C4_24 C3_24 1_555 1_555
O1_24 C4_24 1_555 1_555
O2_16 C4_24 1_555 1_555
C5_24 C3_24 1_555 1_555
H3_24 C5_24 1_555 1_555
C6_24 N1_24 1_555 1_555
C7_24 C6_24 1_555 1_555
C8_24 C7_24 1_555 1_555
H4_24 C8_24 1_555 1_555
C9_21 C8_24 1_555 1_555
C10_21 C9_21 1_555 1_555
H5_21 C10_21 1_555 1_555
C11_24 C10_21 1_555 1_555
N2_24 Zn2_8 1_555 1_555
C12_24 C11_24 1_555 1_555
N3_24 Zn2_8 1_555 1_555
C13_24 N3_24 1_555 1_555
C17_21 C12_24 1_555 1_555
H8_21 C17_21 1_555 1_555
C18_21 C9_21 1_555 1_555
C19_21 C18_21 1_555 1_555
H9_21 C19_21 1_555 1_555
C20_21 C19_21 1_555 1_555
H10_21 C20_21 1_555 1_555
C21_21 C20_21 1_555 1_555
Cl1_21 C21_21 1_555 1_555
C22_21 C21_21 1_555 1_555
H11_21 C22_21 1_555 1_555
C23_21 C18_21 1_555 1_555
H12_21 C23_21 1_555 1_555
Zn3_16 O2_16 1_555 1_555
O5_16 Zn2_8 1_555 1_555
C5_24 C6_24 1_555 1_555
C7_24 N2_24 1_555 1_555
C11_24 N2_24 1_555 1_555
C12_24 N3_24 1_555 1_555
C15_21 C17_21 1_555 1_555
C22_21 C23_21 1_555 1_555
H7_21 C14_21 1_555 1_555
O6_11 C16_24 1_555 1_555
Zn3_15 N1_25 1_555 1_555
N1_25 C1_25 1_555 1_555
C1_25 H1_25 1_555 1_555
C2_25 C1_25 1_555 1_555
H2_25 C2_25 1_555 1_555
C6_25 N1_25 1_555 1_555
C7_25 C6_25 1_555 1_555
C8_25 C7_25 1_555 1_555
C9_22 C8_25 1_555 1_555
C10_22 C9_22 1_555 1_555
H5_22 C10_22 1_555 1_555
C11_25 C10_22 1_555 1_555
N2_25 Zn3_15 1_555 1_555
C12_25 C11_25 1_555 1_555
N3_25 Zn3_15 1_555 1_555
C13_25 N3_25 1_555 1_555
H6_22 C13_25 1_555 1_555
C14_22 C13_25 1_555 1_555
H7_22 C14_22 1_555 1_555
C15_22 C14_22 1_555 1_555
C16_25 C15_22 1_555 1_555
O3_13 C16_25 1_555 1_555
O4_22 C16_25 1_555 1_555
C17_22 C12_25 1_555 1_555
H8_22 C17_22 1_555 1_555
C18_22 C9_22 1_555 1_555
H11_22 C22_22 1_555 1_555
C23_22 C18_22 1_555 1_555
H12_22 C23_22 1_555 1_555
Zn3_10 O3_13 1_555 1_555
O6_13 Zn3_15 1_555 1_555
C7_25 N2_25 1_555 1_555
C11_25 N2_25 1_555 1_555
C12_25 N3_25 1_555 1_555
C15_22 C17_22 1_555 1_555
C22_22 C23_22 1_555 1_555
C4_25 C3_25 1_555 1_555
O1_25 C4_25 1_555 1_555
O5_12 C4_25 1_555 1_555
C5_25 C3_25 1_555 1_555
H3_25 C5_25 1_555 1_555
H9_22 C19_22 1_555 1_555
C20_22 C19_22 1_555 1_555
H10_22 C20_22 1_555 1_555
C21_22 C20_22 1_555 1_555
Cl1_22 C21_22 1_555 1_555
Zn3_16 N1_26 1_555 1_555
N1_26 C1_26 1_555 1_555
C1_26 H1_26 1_555 1_555
C2_26 C1_26 1_555 1_555
H2_26 C2_26 1_555 1_555
C3_26 C2_26 1_555 1_555
C4_26 C3_26 1_555 1_555
O1_26 C4_26 1_555 1_555
O5_11 C4_26 1_555 1_555
C5_26 C3_26 1_555 1_555
H3_26 C5_26 1_555 1_555
C6_26 N1_26 1_555 1_555
C7_26 C6_26 1_555 1_555
C8_26 C7_26 1_555 1_555
H4_26 C8_26 1_555 1_555
C9_23 C8_26 1_555 1_555
C10_23 C9_23 1_555 1_555
H5_23 C10_23 1_555 1_555
C11_26 C10_23 1_555 1_555
N2_26 Zn3_16 1_555 1_555
C12_26 C11_26 1_555 1_555
N3_26 Zn3_16 1_555 1_555
C13_26 N3_26 1_555 1_555
H6_23 C13_26 1_555 1_555
C14_23 C13_26 1_555 1_555
H7_23 C14_23 1_555 1_555
C15_23 C14_23 1_555 1_555
C16_26 C15_23 1_555 1_555
O3_14 C16_26 1_555 1_555
O4_23 C16_26 1_555 1_555
C17_23 C12_26 1_555 1_555
H8_23 C17_23 1_555 1_555
C18_23 C9_23 1_555 1_555
C19_23 C18_23 1_555 1_555
H9_23 C19_23 1_555 1_555
C20_23 C19_23 1_555 1_555
H10_23 C20_23 1_555 1_555
C21_23 C20_23 1_555 1_555
Cl1_23 C21_23 1_555 1_555
C22_23 C21_23 1_555 1_555
H11_23 C22_23 1_555 1_555
C23_23 C18_23 1_555 1_555
H12_23 C23_23 1_555 1_555
Zn3_9 O3_14 1_555 1_555
O6_14 Zn3_16 1_555 1_555
C5_26 C6_26 1_555 1_555
C7_26 N2_26 1_555 1_555
C11_26 N2_26 1_555 1_555
C12_26 N3_26 1_555 1_555
C15_23 C17_23 1_555 1_555
C22_23 C23_23 1_555 1_555
Zn3_10 N1_27 1_555 1_555
N1_27 C1_27 1_555 1_555
C1_27 H1_27 1_555 1_555
C2_27 C1_27 1_555 1_555
H2_27 C2_27 1_555 1_555
C3_27 C2_27 1_555 1_555
C4_27 C3_27 1_555 1_555
O1_27 C4_27 1_555 1_555
O5_13 C4_27 1_555 1_555
C5_27 C3_27 1_555 1_555
H3_27 C5_27 1_555 1_555
C6_27 N1_27 1_555 1_555
C7_27 C6_27 1_555 1_555
C8_27 C7_27 1_555 1_555
H4_27 C8_27 1_555 1_555
C9_24 C8_27 1_555 1_555
C10_24 C9_24 1_555 1_555
H5_24 C10_24 1_555 1_555
C11_27 C10_24 1_555 1_555
N2_27 Zn3_10 1_555 1_555
C12_27 C11_27 1_555 1_555
N3_27 Zn3_10 1_555 1_555
C13_27 N3_27 1_555 1_555
H6_24 C13_27 1_555 1_555
C14_24 C13_27 1_555 1_555
H7_24 C14_24 1_555 1_555
C15_24 C14_24 1_555 1_555
C16_27 C15_24 1_555 1_555
O6_14 C16_27 1_555 1_555
O4_24 C16_27 1_555 1_555
C17_24 C12_27 1_555 1_555
H8_24 C17_24 1_555 1_555
C18_24 C9_24 1_555 1_555
C19_24 C18_24 1_555 1_555
H9_24 C19_24 1_555 1_555
C20_24 C19_24 1_555 1_555
H10_24 C20_24 1_555 1_555
C21_24 C20_24 1_555 1_555
Cl1_24 C21_24 1_555 1_555
C22_24 C21_24 1_555 1_555
H11_24 C22_24 1_555 1_555
C23_24 C18_24 1_555 1_555
H12_24 C23_24 1_555 1_555
C5_27 C6_27 1_555 1_555
C7_27 N2_27 1_555 1_555
C11_27 N2_27 1_555 1_555
C12_27 N3_27 1_555 1_555
C15_24 C17_24 1_555 1_555
C22_24 C23_24 1_555 1_555
C10_25 C9_25 1_555 1_555
H5_25 C10_25 1_555 1_555
C16_28 C15_25 1_555 1_555
O6_13 C16_28 1_555 1_555
O4_25 C16_28 1_555 1_555
H8_25 C17_25 1_555 1_555
C18_25 C9_25 1_555 1_555
C19_25 C18_25 1_555 1_555
H9_25 C19_25 1_555 1_555
C20_25 C19_25 1_555 1_555
H10_25 C20_25 1_555 1_555
C21_25 C20_25 1_555 1_555
Cl1_25 C21_25 1_555 1_555
C22_25 C21_25 1_555 1_555
H11_25 C22_25 1_555 1_555
C23_25 C18_25 1_555 1_555
H12_25 C23_25 1_555 1_555
C15_25 C17_25 1_555 1_555
C22_25 C23_25 1_555 1_555
Zn3_9 N1_28 1_555 1_555
N1_28 C1_28 1_555 1_555
C1_28 H1_28 1_555 1_555
C2_28 C1_28 1_555 1_555
H2_28 C2_28 1_555 1_555
C3_28 C2_28 1_555 1_555
C4_28 C3_28 1_555 1_555
O1_28 C4_28 1_555 1_555
O5_14 C4_28 1_555 1_555
C5_28 C3_28 1_555 1_555
H3_28 C5_28 1_555 1_555
C6_28 N1_28 1_555 1_555
C7_28 C6_28 1_555 1_555
C8_28 C7_28 1_555 1_555
H4_28 C8_28 1_555 1_555
N2_28 Zn3_9 1_555 1_555
C12_28 C11_28 1_555 1_555
N3_28 Zn3_9 1_555 1_555
C13_28 N3_28 1_555 1_555
H6_25 C13_28 1_555 1_555
C14_25 C13_28 1_555 1_555
H7_25 C14_25 1_555 1_555
C5_28 C6_28 1_555 1_555
C7_28 N2_28 1_555 1_555
C11_28 N2_28 1_555 1_555
C12_28 N3_28 1_555 1_555
Zn3_11 N1_29 1_555 1_555
N1_29 C1_29 1_555 1_555
C1_29 H1_29 1_555 1_555
C2_29 C1_29 1_555 1_555
H2_29 C2_29 1_555 1_555
C3_29 C2_29 1_555 1_555
C4_29 C3_29 1_555 1_555
O1_29 C4_29 1_555 1_555
O5_16 C4_29 1_555 1_555
C5_29 C3_29 1_555 1_555
H3_29 C5_29 1_555 1_555
C6_29 N1_29 1_555 1_555
C7_29 C6_29 1_555 1_555
C8_29 C7_29 1_555 1_555
H4_29 C8_29 1_555 1_555
C9_26 C8_29 1_555 1_555
C10_26 C9_26 1_555 1_555
H5_26 C10_26 1_555 1_555
C11_29 C10_26 1_555 1_555
N2_29 Zn3_11 1_555 1_555
C12_29 C11_29 1_555 1_555
N3_29 Zn3_11 1_555 1_555
C13_29 N3_29 1_555 1_555
H6_26 C13_29 1_555 1_555
C14_26 C13_29 1_555 1_555
H7_26 C14_26 1_555 1_555
C15_26 C14_26 1_555 1_555
C16_29 C15_26 1_555 1_555
O3_15 C16_29 1_555 1_555
O4_26 C16_29 1_555 1_555
C17_26 C12_29 1_555 1_555
H8_26 C17_26 1_555 1_555
C18_26 C9_26 1_555 1_555
C19_26 C18_26 1_555 1_555
H9_26 C19_26 1_555 1_555
C20_26 C19_26 1_555 1_555
H10_26 C20_26 1_555 1_555
C21_26 C20_26 1_555 1_555
Cl1_26 C21_26 1_555 1_555
C22_26 C21_26 1_555 1_555
H11_26 C22_26 1_555 1_555
C23_26 C18_26 1_555 1_555
H12_26 C23_26 1_555 1_555
Zn3_14 O3_15 1_555 1_555
O6_15 Zn3_11 1_555 1_555
C5_29 C6_29 1_555 1_555
C7_29 N2_29 1_555 1_555
C11_29 N2_29 1_555 1_555
C12_29 N3_29 1_555 1_555
C15_26 C17_26 1_555 1_555
C22_26 C23_26 1_555 1_555
C4_30 C3_30 1_555 1_555
O1_30 C4_30 1_555 1_555
O5_15 C4_30 1_555 1_555
C5_30 C3_30 1_555 1_555
H3_30 C5_30 1_555 1_555
H9_27 C19_27 1_555 1_555
C20_27 C19_27 1_555 1_555
H10_27 C20_27 1_555 1_555
C21_27 C20_27 1_555 1_555
Cl1_27 C21_27 1_555 1_555
Zn3_12 N1_30 1_555 1_555
N1_30 C1_30 1_555 1_555
C1_30 H1_30 1_555 1_555
C2_30 C1_30 1_555 1_555
H2_30 C2_30 1_555 1_555
C6_30 N1_30 1_555 1_555
C7_30 C6_30 1_555 1_555
C8_30 C7_30 1_555 1_555
C9_27 C8_30 1_555 1_555
C10_27 C9_27 1_555 1_555
H5_27 C10_27 1_555 1_555
C11_30 C10_27 1_555 1_555
N2_30 Zn3_12 1_555 1_555
C12_30 C11_30 1_555 1_555
N3_30 Zn3_12 1_555 1_555
C13_30 N3_30 1_555 1_555
H6_27 C13_30 1_555 1_555
C14_27 C13_30 1_555 1_555
H7_27 C14_27 1_555 1_555
C15_27 C14_27 1_555 1_555
C16_30 C15_27 1_555 1_555
O3_16 C16_30 1_555 1_555
O4_27 C16_30 1_555 1_555
C17_27 C12_30 1_555 1_555
H8_27 C17_27 1_555 1_555
C18_27 C9_27 1_555 1_555
H11_27 C22_27 1_555 1_555
C23_27 C18_27 1_555 1_555
H12_27 C23_27 1_555 1_555
Zn3_13 O3_16 1_555 1_555
O6_16 Zn3_12 1_555 1_555
C7_30 N2_30 1_555 1_555
C11_30 N2_30 1_555 1_555
C12_30 N3_30 1_555 1_555
C15_27 C17_27 1_555 1_555
C22_27 C23_27 1_555 1_555
Zn3_14 N1_31 1_555 1_555
N1_31 C1_31 1_555 1_555
C1_31 H1_31 1_555 1_555
C2_31 C1_31 1_555 1_555
H2_31 C2_31 1_555 1_555
C3_31 C2_31 1_555 1_555
C4_31 C3_31 1_555 1_555
O1_31 C4_31 1_555 1_555
O5_9 C4_31 1_555 1_555
C5_31 C3_31 1_555 1_555
H3_31 C5_31 1_555 1_555
C6_31 N1_31 1_555 1_555
C7_31 C6_31 1_555 1_555
C8_31 C7_31 1_555 1_555
H4_31 C8_31 1_555 1_555
N2_31 Zn3_14 1_555 1_555
C12_31 C11_31 1_555 1_555
N3_31 Zn3_14 1_555 1_555
C13_31 N3_31 1_555 1_555
C5_31 C6_31 1_555 1_555
C7_31 N2_31 1_555 1_555
C11_31 N2_31 1_555 1_555
C12_31 N3_31 1_555 1_555
O6_16 C16_31 1_555 1_555
H7_28 C14_28 1_555 1_555
O6_15 C16_32 1_555 1_555
Zn3_13 N1_32 1_555 1_555
N1_32 C1_32 1_555 1_555
C1_32 H1_32 1_555 1_555
C2_32 C1_32 1_555 1_555
H2_32 C2_32 1_555 1_555
C3_32 C2_32 1_555 1_555
C4_32 C3_32 1_555 1_555
O1_32 C4_32 1_555 1_555
O5_10 C4_32 1_555 1_555
C5_32 C3_32 1_555 1_555
H3_32 C5_32 1_555 1_555
C6_32 N1_32 1_555 1_555
C7_32 C6_32 1_555 1_555
C8_32 C7_32 1_555 1_555
H4_32 C8_32 1_555 1_555
C9_28 C8_32 1_555 1_555
C10_28 C9_28 1_555 1_555
H5_28 C10_28 1_555 1_555
C11_32 C10_28 1_555 1_555
N2_32 Zn3_13 1_555 1_555
C12_32 C11_32 1_555 1_555
N3_32 Zn3_13 1_555 1_555
C13_32 N3_32 1_555 1_555
C17_28 C12_32 1_555 1_555
H8_28 C17_28 1_555 1_555
C18_28 C9_28 1_555 1_555
C19_28 C18_28 1_555 1_555
H9_28 C19_28 1_555 1_555
C20_28 C19_28 1_555 1_555
H10_28 C20_28 1_555 1_555
C21_28 C20_28 1_555 1_555
Cl1_28 C21_28 1_555 1_555
C22_28 C21_28 1_555 1_555
H11_28 C22_28 1_555 1_555
C23_28 C18_28 1_555 1_555
H12_28 C23_28 1_555 1_555
C5_32 C6_32 1_555 1_555
C7_32 N2_32 1_555 1_555
C11_32 N2_32 1_555 1_555
C12_32 N3_32 1_555 1_555
C15_28 C17_28 1_555 1_555
C22_28 C23_28 1_555 1_555
H7_29 C14_29 1_555 1_555
C10_29 C9_29 1_555 1_555
H5_29 C10_29 1_555 1_555
H8_29 C17_29 1_555 1_555
C18_29 C9_29 1_555 1_555
C19_29 C18_29 1_555 1_555
H9_29 C19_29 1_555 1_555
C20_29 C19_29 1_555 1_555
H10_29 C20_29 1_555 1_555
C21_29 C20_29 1_555 1_555
Cl1_29 C21_29 1_555 1_555
C22_29 C21_29 1_555 1_555
H11_29 C22_29 1_555 1_555
C23_29 C18_29 1_555 1_555
H12_29 C23_29 1_555 1_555
C15_29 C17_29 1_555 1_555
C22_29 C23_29 1_555 1_555
H7_30 C14_30 1_555 1_555
C10_30 C9_30 1_555 1_555
H5_30 C10_30 1_555 1_555
H8_30 C17_30 1_555 1_555
C18_30 C9_30 1_555 1_555
C19_30 C18_30 1_555 1_555
H9_30 C19_30 1_555 1_555
C20_30 C19_30 1_555 1_555
H10_30 C20_30 1_555 1_555
C21_30 C20_30 1_555 1_555
Cl1_30 C21_30 1_555 1_555
C22_30 C21_30 1_555 1_555
H11_30 C22_30 1_555 1_555
C23_30 C18_30 1_555 1_555
H12_30 C23_30 1_555 1_555
C15_30 C17_30 1_555 1_555
C22_30 C23_30 1_555 1_555
C10_31 C9_31 1_555 1_555
H5_31 C10_31 1_555 1_555
H8_31 C17_31 1_555 1_555
C18_31 C9_31 1_555 1_555
C19_31 C18_31 1_555 1_555
H9_31 C19_31 1_555 1_555
C20_31 C19_31 1_555 1_555
H10_31 C20_31 1_555 1_555
C21_31 C20_31 1_555 1_555
Cl1_31 C21_31 1_555 1_555
C22_31 C21_31 1_555 1_555
H11_31 C22_31 1_555 1_555
C23_31 C18_31 1_555 1_555
H12_31 C23_31 1_555 1_555
C15_31 C17_31 1_555 1_555
C22_31 C23_31 1_555 1_555
H7_31 C14_31 1_555 1_555
C10_32 C9_32 1_555 1_555
H5_32 C10_32 1_555 1_555
H8_32 C17_32 1_555 1_555
C18_32 C9_32 1_555 1_555
C19_32 C18_32 1_555 1_555
H9_32 C19_32 1_555 1_555
C20_32 C19_32 1_555 1_555
H10_32 C20_32 1_555 1_555
C21_32 C20_32 1_555 1_555
Cl1_32 C21_32 1_555 1_555
C22_32 C21_32 1_555 1_555
H11_32 C22_32 1_555 1_555
C23_32 C18_32 1_555 1_555
H12_32 C23_32 1_555 1_555
C15_32 C17_32 1_555 1_555
C22_32 C23_32 1_555 1_555
H7_32 C14_32 1_555 1_555

#END
