
###############################################################################
#
# This file contains modified crystal structure data generated from the
# MOF subset of the Cambridge Structural Database (CSD) v543 
# hosted by the Cambridge Crystallographic Data Centre (CCDC).
#
# This work is licensed under the Creative Commons
# Attribution-NonCommercial-ShareAlike 4.0 International License.
# To view a copy of this license, visit
# http://creativecommons.org/licenses/by-nc-sa/4.0/
# or send a letter to
# Creative Commons, PO Box 1866, Mountain View, CA 94042, USA.
#
# CIF created using the CSD Python API on 29 September 2022
# The structure has been converted into the P1 space group
# The structure has a 3D framework
# The original CSD entry DEDFEB is in the orthorhombic crystal system
# The original CSD entry DEDFEB is in a Sohncke space group
# The framework has been calculated to contain at least 10.0% void space
# The void calculation uses a probe of radius 1.32A, grid spacing 0.4
# The framework is charged, counterions have been retained in the structure
#
###############################################################################

data_DEDFEB
_chemical_formula_moiety         '(C200 H136 Co8 N48 O20 4+)n'
_symmetry_cell_setting           triclinic
_symmetry_space_group_name_H-M   'P 1'
_symmetry_Int_Tables_number      1
_space_group_name_Hall           'P 1'
loop_
_symmetry_equiv_pos_site_id
_symmetry_equiv_pos_as_xyz
1 x,y,z
_cell_length_a                   21.6861(9)
_cell_length_b                   21.7119(10)
_cell_length_c                   21.9179(9)
_cell_angle_alpha                90
_cell_angle_beta                 90
_cell_angle_gamma                90
_cell_volume                     10320
loop_
_atom_site_label
_atom_site_type_symbol
_atom_site_fract_x
_atom_site_fract_y
_atom_site_fract_z
N4 N 0.36732(8) 0.65552(7) 0.05592(7)
C7 C 0.42600(10) 0.64699(9) 0.03828(10)
H7 H 0.45808(10) 0.65733(9) 0.06597(10)
C49 C 0.32192(11) 0.64256(12) 0.01516(10)
H31 H 0.28049(11) 0.65062(12) 0.02676(10)
Co8 Co 0.339770(11) 0.701774(10) 0.138403(11)
Co1 Co 0.319124(11) 0.290944(10) 0.643373(11)
Co2 Co 0.160230(11) 0.298226(10) 0.638403(11)
O1 O 0.24157(5) 0.34162(4) 0.63378(5)
O3 O 0.28592(7) 0.21230(6) 0.60015(6)
O4 O 0.18622(7) 0.22816(7) 0.57867(7)
N1 N 0.34543(7) 0.32693(7) 0.55651(7)
N2 N 0.57370(7) 0.24906(7) 0.35789(8)
N3 N 0.36244(8) 0.45588(8) 0.36022(8)
N5 N 0.60008(8) 0.73421(7) 0.84753(7)
N6 N 0.36776(8) 0.62733(8) 0.19793(7)
N7 N 0.35658(8) 0.36853(8) 0.69309(7)
C1 C 0.54590(10) 0.25979(10) 0.30352(10)
H1 H 0.56005(10) 0.23765(10) 0.26885(10)
C2 C 0.35157(9) 0.41492(9) 0.48933(9)
H2 H 0.34756(9) 0.45812(9) 0.48373(9)
C3 C 0.33999(10) 0.38847(9) 0.54495(9)
H3 H 0.32740(10) 0.41457(9) 0.57744(9)
C4 C 0.49877(10) 0.30058(11) 0.29586(9)
H4 H 0.47942(10) 0.30617(11) 0.25737(9)
N8 N 0.43465(10) 0.42558(10) 0.29474(8)
C5 C 0.50834(11) 0.32260(9) 0.40277(9)
H5 H 0.49553(11) 0.34403(9) 0.43837(9)
C6 C 0.37387(10) 0.31236(9) 0.45233(9)
H6 H 0.38492(10) 0.28492(9) 0.42038(9)
C8 C 0.55454(9) 0.28063(9) 0.40619(9)
H8 H 0.57386(9) 0.27358(9) 0.44446(9)
N9 N 0.37554(10) 0.53905(9) 0.85278(8)
C9 C 0.40795(11) 0.39768(10) 0.68396(11)
H9 H 0.43511(11) 0.38264(10) 0.65338(11)
C10 C 0.23392(12) 0.14013(10) 0.53931(10)
N10 N 0.45627(8) 0.55684(8) 0.79270(8)
C11 C 0.44195(11) 0.62369(11) 0.98125(10)
H10 H 0.48395(11) 0.61719(11) 0.97074(10)
C13 C 0.36207(9) 0.29060(9) 0.50952(8)
H11 H 0.36577(9) 0.24758(9) 0.51657(8)
C14 C 0.36937(9) 0.37693(9) 0.44120(8)
C15 C 0.49581(9) 0.70496(10) 0.86796(9)
H12 H 0.45641(9) 0.71628(10) 0.88322(9)
C16 C 0.23579(10) 0.19870(8) 0.57620(8)
C18 C 0.34814(12) 0.62539(11) 0.25616(11)
H13 H 0.33041(12) 0.66149(11) 0.27326(11)
C19 C 0.35251(12) 0.57391(10) 0.29191(11)
H14 H 0.33576(12) 0.57429(10) 0.33196(11)
C20 C 0.40886(12) 0.58606(11) 0.87904(10)
C21 C 0.38709(11) 0.47186(10) 0.76284(9)
C22 C 0.61026(10) 0.67752(10) 0.82322(11)
H15 H 0.65009(10) 0.66787(10) 0.80791(11)
C23 C 0.17616(13) 0.11665(13) 0.51852(14)
H16 H 0.13855(13) 0.13646(13) 0.52896(14)
C24 C 0.54323(9) 0.74465(9) 0.86989(9)
H17 H 0.53605(9) 0.78343(9) 0.88866(9)
C25 C 0.38129(11) 0.52095(10) 0.27012(10)
C28 C 0.38701(10) 0.40320(10) 0.38202(9)
C29 C 0.28654(14) 0.05284(14) 0.49514(17)
H20 H 0.32332(14) 0.03024(14) 0.48782(17)
C31 C 0.23243(14) 0.03212(12) 0.47080(14)
C33 C 0.40460(19) 0.52529(15) 0.21156(14)
H22 H 0.42860(19) 0.49259(15) 0.19526(14)
C35 C 0.17656(14) 0.06368(13) 0.48235(14)
H24 H 0.13910(14) 0.04876(13) 0.46541(14)
C36 C 0.31718(12) 0.39199(12) 0.73497(11)
H25 H 0.27798(12) 0.37304(12) 0.73967(11)
C37 C 0.33129(12) 0.44259(12) 0.77154(12)
H26 H 0.30316(12) 0.45659(12) 0.80174(12)
C38 C 0.43122(11) 0.38342(11) 0.34079(10)
C39 C 0.40712(10) 0.52197(10) 0.80245(10)
C40 C 0.28944(13) 0.10660(13) 0.53068(13)
H27 H 0.32715(13) 0.12001(13) 0.54829(13)
C41 C 0.33265(11) 0.61811(12) 0.95731(10)
H28 H 0.29956(11) 0.60737(12) 0.93098(10)
C42 C 0.39108(12) 0.46735(10) 0.30719(10)
C43 C 0.39462(11) 0.60996(11) 0.93943(9)
C44 C 0.56398(11) 0.63319(11) 0.82012(12)
H29 H 0.57258(11) 0.59419(11) 0.80242(12)
C45 C 0.45797(10) 0.59701(10) 0.83929(9)
C46 C 0.50603(10) 0.64527(10) 0.84237(9)
C47 C 0.42545(11) 0.45000(11) 0.71673(11)
H30 H 0.46308(11) 0.47045(11) 0.70766(11)
C48 C 0.48007(10) 0.33414(10) 0.34785(9)
C50 C 0.39342(18) 0.57558(15) 0.17764(14)
H32 H 0.40475(18) 0.57408(15) 0.13580(14)
H33 H 0.34067(10) 0.52329(9) 0.86613(8)
H34 H 0.46011(10) 0.42534(10) 0.26348(8)
Co3 Co 0.680876(11) 0.790944(10) 0.856627(11)
Co5 Co 0.660230(11) 0.201774(10) 0.361597(11)
O6 O 0.18599(6) 0.24586(6) 0.71412(6)
O7 O 0.28771(6) 0.25560(6) 0.72615(6)
N13 N 0.07370(7) 0.25094(7) 0.64211(8)
N14 N 0.13268(8) 0.34448(7) 0.55592(7)
N15 N 0.39992(8) 0.23421(7) 0.65247(7)
N16 N 0.13224(8) 0.37267(8) 0.69793(7)
O2 O 0.31401(6) 0.75414(6) 0.21412(6)
O5 O 0.21229(6) 0.74440(6) 0.22615(6)
C12 C 0.26552(11) 0.81400(10) 0.29049(10)
C17 C 0.26402(10) 0.76677(8) 0.24004(8)
C26 C 0.32203(12) 0.83663(11) 0.30905(12)
H18 H 0.35940(12) 0.82121(11) 0.29236(12)
C27 C 0.21075(11) 0.83376(11) 0.31665(11)
H19 H 0.17265(11) 0.81561(11) 0.30506(11)
C30 C 0.26470(15) 0.90513(12) 0.37716(14)
C32 C 0.32228(13) 0.88315(15) 0.35338(15)
H21 H 0.36013(13) 0.89994(15) 0.36752(15)
C34 C 0.21225(12) 0.88085(12) 0.36041(14)
H23 H 0.17488(12) 0.89519(12) 0.37800(14)
N11 N 0.27610(10) 0.95404(12) 0.42020(12)
N12 N 0.22579(11) 0.98143(12) 0.43125(13)
Co4 Co 0.180876(11) 0.709056(10) 0.143373(11)
C1_2 C 0.04590(10) 0.24021(10) 0.69648(10)
H1_2 H 0.06005(10) 0.26235(10) 0.73115(10)
C5_2 C 0.00834(11) 0.17740(9) 0.59723(9)
C8_2 C 0.05454(9) 0.21937(9) 0.59381(9)
H8_2 H 0.07386(9) 0.22642(9) 0.55554(9)
N5_2 N 0.10008(8) 0.76579(7) 0.15247(7)
C22_2 C 0.11026(10) 0.82248(10) 0.17678(11)
H15_2 H 0.15009(10) 0.83213(10) 0.19209(11)
C24_2 C 0.04323(9) 0.75535(9) 0.13011(9)
H17_2 H 0.03605(9) 0.71657(9) 0.11134(9)
C44_2 C 0.06398(11) 0.86681(11) 0.17988(12)
H29_2 H 0.07258(11) 0.90581(11) 0.19758(12)
C46_2 C 0.00603(10) 0.85473(10) 0.15763(9)
Co1_2 Co 0.819124(11) 0.209056(10) 0.356627(11)
O1_2 O 0.74157(5) 0.15838(4) 0.36622(5)
O2_2 O 0.81401(6) 0.74586(6) 0.78588(6)
O3_2 O 0.78592(7) 0.28770(6) 0.39985(6)
O4_2 O 0.68622(7) 0.27184(7) 0.42133(7)
O5_2 O 0.71229(6) 0.75560(6) 0.77385(6)
N1_2 N 0.84543(7) 0.17307(7) 0.44349(7)
N3_2 N 0.86244(8) 0.04412(8) 0.63978(8)
N7_2 N 0.85658(8) 0.13147(8) 0.30691(7)
C2_2 C 0.85157(9) 0.08508(9) 0.51067(9)
H2_2 H 0.84756(9) 0.04188(9) 0.51627(9)
C3_2 C 0.83999(10) 0.11153(9) 0.45505(9)
H3_2 H 0.82740(10) 0.08543(9) 0.42256(9)
C4_2 C 0.99877(10) 0.19942(11) 0.70414(9)
H4_2 H 0.97942(10) 0.19383(11) 0.74263(9)
N8_2 N 0.93465(10) 0.07442(10) 0.70526(8)
H5_2 H 0.99553(11) 0.15597(9) 0.56163(9)
C6_2 C 0.87387(10) 0.18764(9) 0.54767(9)
H6_2 H 0.88492(10) 0.21508(9) 0.57962(9)
C9_2 C 0.90795(11) 0.10232(10) 0.31604(11)
H9_2 H 0.93511(11) 0.11736(10) 0.34662(11)
C10_2 C 0.73392(12) 0.35987(10) 0.46069(10)
C12_2 C 0.76552(11) 0.68600(10) 0.70951(10)
C13_2 C 0.86207(9) 0.20940(9) 0.49048(8)
H11_2 H 0.86577(9) 0.25242(9) 0.48343(8)
C14_2 C 0.86937(9) 0.12307(9) 0.55880(8)
C16_2 C 0.73579(10) 0.30130(8) 0.42380(8)
C17_2 C 0.76402(10) 0.73323(8) 0.75996(8)
C21_2 C 0.88709(11) 0.02814(10) 0.23716(9)
C23_2 C 0.67616(13) 0.38335(13) 0.48148(14)
H16_2 H 0.63855(13) 0.36354(13) 0.47104(14)
C26_2 C 0.82203(12) 0.66337(11) 0.69095(12)
H18_2 H 0.85940(12) 0.67879(11) 0.70764(12)
C27_2 C 0.71075(11) 0.66624(11) 0.68335(11)
H19_2 H 0.67265(11) 0.68439(11) 0.69494(11)
C28_2 C 0.88701(10) 0.09680(10) 0.61798(9)
C29_2 C 0.78654(14) 0.44716(14) 0.50486(17)
H20_2 H 0.82332(14) 0.46976(14) 0.51218(17)
C30_2 C 0.76470(15) 0.59487(12) 0.62284(14)
C31_2 C 0.73243(14) 0.46788(12) 0.52920(14)
C32_2 C 0.82228(13) 0.61685(15) 0.64662(15)
H21_2 H 0.86013(13) 0.60006(15) 0.63248(15)
H22_2 H 0.92860(19) 0.00741(15) 0.80474(14)
C34_2 C 0.71225(12) 0.61915(12) 0.63959(14)
H23_2 H 0.67488(12) 0.60481(12) 0.62200(14)
C35_2 C 0.67656(14) 0.43632(13) 0.51765(14)
H24_2 H 0.63910(14) 0.45124(13) 0.53459(14)
C36_2 C 0.81718(12) 0.10801(12) 0.26503(11)
H25_2 H 0.77798(12) 0.12696(12) 0.26033(11)
C37_2 C 0.83129(12) 0.05741(12) 0.22846(12)
H26_2 H 0.80316(12) 0.04341(12) 0.19826(12)
C38_2 C 0.93122(11) 0.11658(11) 0.65921(10)
C40_2 C 0.78944(13) 0.39340(13) 0.46932(13)
H27_2 H 0.82715(13) 0.37999(13) 0.45171(13)
C42_2 C 0.89108(12) 0.03265(10) 0.69281(10)
C47_2 C 0.92545(11) 0.05000(11) 0.28327(11)
H30_2 H 0.96308(11) 0.02955(11) 0.29234(11)
C48_2 C 0.98007(10) 0.16586(10) 0.65215(9)
N11_2 N 0.77610(10) 0.54596(12) 0.57980(12)
N12_2 N 0.72579(11) 0.51857(12) 0.56875(13)
H34_2 H 0.96011(10) 0.07466(10) 0.73652(8)
Co6 Co 0.839770(11) 0.798226(10) 0.861597(11)
O6_2 O 0.68599(6) 0.25414(6) 0.28588(6)
O7_2 O 0.78771(6) 0.24440(6) 0.27385(6)
N14_2 N 0.63268(8) 0.15552(7) 0.44408(7)
N15_2 N 0.89992(8) 0.26579(7) 0.34753(7)
N16_2 N 0.63224(8) 0.12733(8) 0.30207(7)
N6_2 N 0.86776(8) 0.87267(8) 0.80207(7)
N9_2 N 0.87554(10) 0.96095(9) 0.14722(8)
N10_2 N 0.95627(8) 0.94316(8) 0.20730(8)
C11_2 C 0.94195(11) 0.87631(11) 0.01875(10)
H10_2 H 0.98395(11) 0.88281(11) 0.02926(10)
C15_2 C 0.99581(9) 0.79504(10) 0.13204(9)
H12_2 H 0.95641(9) 0.78372(10) 0.11678(9)
C18_2 C 0.84814(12) 0.87461(11) 0.74384(11)
H13_2 H 0.83041(12) 0.83851(11) 0.72674(11)
C19_2 C 0.85251(12) 0.92609(10) 0.70809(11)
H14_2 H 0.83576(12) 0.92571(10) 0.66804(11)
C20_2 C 0.90886(12) 0.91394(11) 0.12096(10)
C25_2 C 0.88129(11) 0.97905(10) 0.72988(10)
C33_2 C 0.90460(19) 0.97471(15) 0.78844(14)
C39_2 C 0.90712(10) 0.97803(10) 0.19755(10)
C41_2 C 0.83265(11) 0.88189(12) 0.04269(10)
H28_2 H 0.79956(11) 0.89263(12) 0.06902(10)
C43_2 C 0.89462(11) 0.89004(11) 0.06057(9)
C45_2 C 0.95797(10) 0.90299(10) 0.16071(9)
C50_2 C 0.89342(18) 0.92442(15) 0.82236(14)
H32_2 H 0.90475(18) 0.92592(15) 0.86420(14)
H33_2 H 0.84067(10) 0.97671(9) 0.13387(8)
N4_2 N 0.86732(8) 0.84448(7) 0.94408(7)
C7_2 C 0.92600(10) 0.85301(9) 0.96172(10)
H7_2 H 0.95808(10) 0.84267(9) 0.93403(10)
C49_2 C 0.82192(11) 0.85744(12) 0.98484(10)
H31_2 H 0.78049(11) 0.84938(12) 0.97324(10)
C18_3 C 0.65186(12) 0.12539(11) 0.24384(11)
H13_3 H 0.66959(12) 0.16149(11) 0.22674(11)
C19_3 C 0.64749(12) 0.07391(10) 0.20809(11)
H14_3 H 0.66424(12) 0.07429(10) 0.16804(11)
C25_3 C 0.61871(11) 0.02095(10) 0.22988(10)
C33_3 C 0.59540(19) 0.02529(15) 0.28844(14)
C50_3 C 0.60658(18) 0.07558(15) 0.32236(14)
H32_3 H 0.59525(18) 0.07408(15) 0.36420(14)
C7_3 C 0.57400(10) 0.14699(9) 0.46172(10)
H7_3 H 0.54192(10) 0.15733(9) 0.43403(10)
N9_3 N 0.62446(10) 0.03905(9) 0.64722(8)
N10_3 N 0.54373(8) 0.05684(8) 0.70730(8)
C11_3 C 0.55805(11) 0.12369(11) 0.51875(10)
H10_3 H 0.51605(11) 0.11719(11) 0.52926(10)
C15_3 C 0.50419(9) 0.20496(10) 0.63204(9)
H12_3 H 0.54359(9) 0.21628(10) 0.61678(9)
C20_3 C 0.59114(12) 0.08606(11) 0.62096(10)
C22_3 C 0.38974(10) 0.17752(10) 0.67678(11)
H15_3 H 0.34991(10) 0.16787(10) 0.69209(11)
C24_3 C 0.45677(9) 0.24465(9) 0.63011(9)
H17_3 H 0.46395(9) 0.28343(9) 0.61134(9)
C39_3 C 0.59288(10) 0.02197(10) 0.69755(10)
C41_3 C 0.66735(11) 0.11811(12) 0.54269(10)
H28_3 H 0.70044(11) 0.10737(12) 0.56902(10)
C43_3 C 0.60538(11) 0.10996(11) 0.56057(9)
C44_3 C 0.43602(11) 0.13319(11) 0.67988(12)
H29_3 H 0.42742(11) 0.09419(11) 0.69758(12)
C45_3 C 0.54203(10) 0.09701(10) 0.66071(9)
C46_3 C 0.49397(10) 0.14527(10) 0.65763(9)
C49_3 C 0.67808(11) 0.14256(12) 0.48484(10)
H31_3 H 0.71951(11) 0.15062(12) 0.47324(10)
H33_3 H 0.65933(10) 0.02329(9) 0.63387(8)
N2_2 N 0.42630(7) 0.74906(7) 0.14211(8)
N3_3 N 0.63756(8) 0.95588(8) 0.13978(8)
C1_3 C 0.45410(10) 0.75979(10) 0.19648(10)
H1_3 H 0.43995(10) 0.73765(10) 0.23115(10)
C2_3 C 0.64843(9) 0.91492(9) 0.01067(9)
H2_3 H 0.65244(9) 0.95812(9) 0.01627(9)
C4_3 C 0.50123(10) 0.80058(11) 0.20414(9)
H4_3 H 0.52058(10) 0.80617(11) 0.24263(9)
N8_3 N 0.56535(10) 0.92558(10) 0.20526(8)
C5_3 C 0.49166(11) 0.82260(9) 0.09723(9)
H5_3 H 0.50447(11) 0.84403(9) 0.06163(9)
C6_3 C 0.62613(10) 0.81236(9) 0.04767(9)
H6_3 H 0.61508(10) 0.78492(9) 0.07962(9)
C8_3 C 0.44546(9) 0.78063(9) 0.09381(9)
H8_3 H 0.42614(9) 0.77358(9) 0.05554(9)
C12_3 C 0.73448(11) 0.31400(10) 0.20951(10)
C14_3 C 0.63063(9) 0.87693(9) 0.05880(8)
C17_3 C 0.73598(10) 0.26677(8) 0.25996(8)
C26_3 C 0.67797(12) 0.33663(11) 0.19095(12)
H18_3 H 0.64060(12) 0.32121(11) 0.20764(12)
C27_3 C 0.78925(11) 0.33376(11) 0.18335(11)
H19_3 H 0.82735(11) 0.31561(11) 0.19494(11)
C28_3 C 0.61299(10) 0.90320(10) 0.11798(9)
C29_3 C 0.71346(14) 0.55284(14) 0.00486(17)
H20_3 H 0.67668(14) 0.53024(14) 0.01218(17)
C30_3 C 0.73530(15) 0.40513(12) 0.12284(14)
C31_3 C 0.76757(14) 0.53212(12) 0.02920(14)
C32_3 C 0.67772(13) 0.38315(15) 0.14662(15)
H21_3 H 0.63987(13) 0.39994(15) 0.13248(15)
H22_3 H 0.57140(19) 0.99259(15) 0.30474(14)
C34_3 C 0.78775(12) 0.38085(12) 0.13959(14)
H23_3 H 0.82512(12) 0.39519(12) 0.12200(14)
C35_3 C 0.82344(14) 0.56368(13) 0.01765(14)
H24_3 H 0.86090(14) 0.54876(13) 0.03459(14)
C38_3 C 0.56878(11) 0.88342(11) 0.15921(10)
C42_3 C 0.60892(12) 0.96735(10) 0.19281(10)
C48_3 C 0.51993(10) 0.83414(10) 0.15215(9)
N11_3 N 0.72390(10) 0.45404(12) 0.07980(12)
N12_3 N 0.77421(11) 0.48143(12) 0.06875(13)
H34_3 H 0.53989(10) 0.92534(10) 0.23652(8)
O1_3 O 0.75843(5) 0.84162(4) 0.86622(5)
O3_3 O 0.71408(7) 0.71230(6) 0.89985(6)
O4_3 O 0.81378(7) 0.72816(7) 0.92133(7)
N1_3 N 0.65457(7) 0.82693(7) 0.94349(7)
N7_3 N 0.64342(8) 0.86853(8) 0.80691(7)
C3_3 C 0.66001(10) 0.88847(9) 0.95505(9)
H3_3 H 0.67260(10) 0.91457(9) 0.92256(9)
C9_3 C 0.59205(11) 0.89768(10) 0.81604(11)
H9_3 H 0.56489(11) 0.88264(10) 0.84662(11)
C10_3 C 0.76608(12) 0.64013(10) 0.96069(10)
C13_3 C 0.63793(9) 0.79060(9) 0.99048(8)
H11_3 H 0.63423(9) 0.74758(9) 0.98343(8)
C16_3 C 0.76421(10) 0.69870(8) 0.92380(8)
C21_3 C 0.61291(11) 0.97186(10) 0.73716(9)
C23_3 C 0.82384(13) 0.61665(13) 0.98148(14)
H16_3 H 0.86145(13) 0.63646(13) 0.97104(14)
C36_3 C 0.68282(12) 0.89199(12) 0.76503(11)
H25_3 H 0.72202(12) 0.87304(12) 0.76033(11)
C37_3 C 0.66871(12) 0.94259(12) 0.72846(12)
H26_3 H 0.69684(12) 0.95659(12) 0.69826(12)
C40_3 C 0.71056(13) 0.60660(13) 0.96932(13)
H27_3 H 0.67285(13) 0.62001(13) 0.95171(13)
C47_3 C 0.57455(11) 0.95000(11) 0.78327(11)
H30_3 H 0.53692(11) 0.97045(11) 0.79234(11)
N13_2 N 0.92630(7) 0.75094(7) 0.85789(8)
C12_4 C 0.23448(11) 0.18600(10) 0.79049(10)
C17_4 C 0.23598(10) 0.23323(8) 0.74004(8)
C26_4 C 0.17797(12) 0.16337(11) 0.80905(12)
H18_4 H 0.14060(12) 0.17879(11) 0.79236(12)
C27_4 C 0.28925(11) 0.16624(11) 0.81665(11)
H19_4 H 0.32735(11) 0.18439(11) 0.80506(11)
C30_4 C 0.23530(15) 0.09487(12) 0.87716(14)
C32_4 C 0.17772(13) 0.11685(15) 0.85338(15)
H21_4 H 0.13987(13) 0.10006(15) 0.86752(15)
C34_4 C 0.28775(12) 0.11915(12) 0.86041(14)
H23_4 H 0.32512(12) 0.10481(12) 0.87800(14)
N11_4 N 0.22390(10) 0.04596(12) 0.92020(12)
N12_4 N 0.27421(11) 0.01857(12) 0.93125(13)
O1_4 O 0.25843(5) 0.65838(4) 0.13378(5)
O3_4 O 0.21408(7) 0.78770(6) 0.10015(6)
O4_4 O 0.31378(7) 0.77184(7) 0.07867(7)
N1_4 N 0.15457(7) 0.67307(7) 0.05651(7)
N7_4 N 0.14342(8) 0.63147(8) 0.19309(7)
C3_4 C 0.16001(10) 0.61153(9) 0.04495(9)
H3_4 H 0.17260(10) 0.58543(9) 0.07744(9)
C7_4 C 0.07400(10) 0.35301(9) 0.53828(10)
H7_4 H 0.04192(10) 0.34267(9) 0.56597(10)
N9_4 N 0.12446(10) 0.46095(9) 0.35278(8)
C9_4 C 0.09205(11) 0.60232(10) 0.18396(11)
H9_4 H 0.06489(11) 0.61736(10) 0.15338(11)
C10_4 C 0.26608(12) 0.85987(10) 0.03931(10)
N10_4 N 0.04373(8) 0.44316(8) 0.29270(8)
C11_4 C 0.05805(11) 0.37631(11) 0.48125(10)
H10_4 H 0.01605(11) 0.38281(11) 0.47074(10)
C13_4 C 0.13793(9) 0.70940(9) 0.00952(8)
H11_4 H 0.13423(9) 0.75242(9) 0.01657(8)
C15_4 C 0.00419(9) 0.29504(10) 0.36796(9)
H12_4 H 0.04359(9) 0.28372(10) 0.38322(9)
C16_4 C 0.26421(10) 0.80130(8) 0.07620(8)
C20_4 C 0.09114(12) 0.41394(11) 0.37904(10)
C21_4 C 0.11291(11) 0.52814(10) 0.26284(9)
C23_4 C 0.32384(13) 0.88335(13) 0.01852(14)
H16_4 H 0.36145(13) 0.86354(13) 0.02896(14)
C36_4 C 0.18282(12) 0.60801(12) 0.23497(11)
H25_4 H 0.22202(12) 0.62696(12) 0.23967(11)
C37_4 C 0.16871(12) 0.55741(12) 0.27154(12)
H26_4 H 0.19684(12) 0.54341(12) 0.30174(12)
C39_4 C 0.09288(10) 0.47803(10) 0.30245(10)
C40_4 C 0.21056(13) 0.89340(13) 0.03068(13)
H27_4 H 0.17285(13) 0.87999(13) 0.04829(13)
C41_4 C 0.16735(11) 0.38189(12) 0.45731(10)
H28_4 H 0.20044(11) 0.39263(12) 0.43098(10)
C43_4 C 0.10538(11) 0.39004(11) 0.43943(9)
C45_4 C 0.04203(10) 0.40299(10) 0.33929(9)
C47_4 C 0.07455(11) 0.55000(11) 0.21673(11)
H30_4 H 0.03692(11) 0.52955(11) 0.20766(11)
C49_4 C 0.17808(11) 0.35744(12) 0.51516(10)
H31_4 H 0.21951(11) 0.34938(12) 0.52676(10)
H33_4 H 0.15933(10) 0.47671(9) 0.36613(8)
N3_4 N 0.13756(8) 0.54412(8) 0.86022(8)
C2_4 C 0.14843(9) 0.58508(9) 0.98933(9)
H2_4 H 0.15244(9) 0.54188(9) 0.98373(9)
C4_4 C 0.00123(10) 0.69942(11) 0.79586(9)
H4_4 H 0.02058(10) 0.69383(11) 0.75737(9)
N8_4 N 0.06535(10) 0.57442(10) 0.79474(8)
H5_4 H 0.00447(11) 0.65597(9) 0.93837(9)
C6_4 C 0.12613(10) 0.68764(9) 0.95233(9)
H6_4 H 0.11508(10) 0.71508(9) 0.92038(9)
C14_4 C 0.13063(9) 0.62307(9) 0.94120(8)
C18_4 C 0.15186(12) 0.37461(11) 0.75616(11)
H13_4 H 0.16959(12) 0.33851(11) 0.77326(11)
C19_4 C 0.14749(12) 0.42609(10) 0.79191(11)
H14_4 H 0.16424(12) 0.42571(10) 0.83196(11)
C25_4 C 0.11871(11) 0.47905(10) 0.77012(10)
C28_4 C 0.11299(10) 0.59680(10) 0.88202(9)
C29_4 C 0.21346(14) 0.94716(14) 0.99514(17)
H20_4 H 0.17668(14) 0.96976(14) 0.98782(17)
C31_4 C 0.26757(14) 0.96788(12) 0.97080(14)
C33_4 C 0.09540(19) 0.47471(15) 0.71156(14)
H22_4 H 0.07140(19) 0.50741(15) 0.69526(14)
C35_4 C 0.32344(14) 0.93632(13) 0.98235(14)
H24_4 H 0.36090(14) 0.95124(13) 0.96541(14)
C38_4 C 0.06878(11) 0.61658(11) 0.84079(10)
C42_4 C 0.10892(12) 0.53265(10) 0.80719(10)
C48_4 C 0.01993(10) 0.66586(10) 0.84785(9)
C50_4 C 0.10658(18) 0.42442(15) 0.67764(14)
H32_4 H 0.09525(18) 0.42592(15) 0.63580(14)
H34_4 H 0.03989(10) 0.57466(10) 0.76348(8)
C22_4 C 0.88974(10) 0.32248(10) 0.32322(11)
H15_4 H 0.84991(10) 0.33213(10) 0.30791(11)
C24_4 C 0.95677(9) 0.25535(9) 0.36989(9)
H17_4 H 0.96395(9) 0.21657(9) 0.38866(9)
C44_4 C 0.93602(11) 0.36681(11) 0.32012(12)
H29_4 H 0.92742(11) 0.40581(11) 0.30242(12)
C46_4 C 0.99397(10) 0.35473(10) 0.34237(9)
C1_4 C 0.95410(10) 0.74021(10) 0.80352(10)
H1_4 H 0.93995(10) 0.76235(10) 0.76885(10)
C5_4 C 0.99166(11) 0.67740(9) 0.90277(9)
C8_4 C 0.94546(9) 0.71937(9) 0.90619(9)
H8_4 H 0.92614(9) 0.72642(9) 0.94446(9)
loop_
_geom_bond_atom_site_label_1
_geom_bond_atom_site_label_2
_geom_bond_site_symmetry_1
_geom_bond_site_symmetry_2
N4 C7 1_555 1_555
C7 H7 1_555 1_555
C49 N4 1_555 1_555
H31 C49 1_555 1_555
Co8 N4 1_555 1_555
Co1 O1 1_555 1_555
Co2 O1 1_555 1_555
O3 Co1 1_555 1_555
O4 Co2 1_555 1_555
N1 Co1 1_555 1_555
N2 C1 1_555 1_555
N3 C28 1_555 1_555
N5 C22 1_555 1_555
N6 C18 1_555 1_555
N7 Co1 1_555 1_555
C1 H1 1_555 1_555
C2 H2 1_555 1_555
C3 N1 1_555 1_555
H3 C3 1_555 1_555
C4 C1 1_555 1_555
H4 C4 1_555 1_555
N8 C38 1_555 1_555
C5 H5 1_555 1_555
C6 H6 1_555 1_555
C8 N2 1_555 1_555
H8 C8 1_555 1_555
N9 C20 1_555 1_555
C9 N7 1_555 1_555
H9 C9 1_555 1_555
C10 C16 1_555 1_555
N10 C39 1_555 1_555
H10 C11 1_555 1_555
C13 N1 1_555 1_555
H11 C13 1_555 1_555
C14 C2 1_555 1_555
C15 H12 1_555 1_555
C16 O3 1_555 1_555
C18 H13 1_555 1_555
C19 C18 1_555 1_555
H14 C19 1_555 1_555
C20 C43 1_555 1_555
C21 C37 1_555 1_555
C22 H15 1_555 1_555
C23 C10 1_555 1_555
H16 C23 1_555 1_555
C24 N5 1_555 1_555
H17 C24 1_555 1_555
C25 C19 1_555 1_555
C28 C14 1_555 1_555
C29 H20 1_555 1_555
C31 C29 1_555 1_555
C33 C25 1_555 1_555
H22 C33 1_555 1_555
C35 C23 1_555 1_555
H24 C35 1_555 1_555
C36 N7 1_555 1_555
H25 C36 1_555 1_555
C37 C36 1_555 1_555
H26 C37 1_555 1_555
C38 C28 1_555 1_555
C39 N9 1_555 1_555
C40 C10 1_555 1_555
H27 C40 1_555 1_555
C41 H28 1_555 1_555
C42 N3 1_555 1_555
C43 C11 1_555 1_555
C44 C22 1_555 1_555
H29 C44 1_555 1_555
C45 N10 1_555 1_555
C46 C15 1_555 1_555
C47 C9 1_555 1_555
H30 C47 1_555 1_555
C48 C4 1_555 1_555
C50 N6 1_555 1_555
H32 C50 1_555 1_555
H33 N9 1_555 1_555
H34 N8 1_555 1_555
Co3 N5 1_555 1_555
Co5 N2 1_555 1_555
Co8 N6 1_555 1_555
O6 Co2 1_555 1_555
O7 Co1 1_555 1_555
N13 Co2 1_555 1_555
N14 Co2 1_555 1_555
N15 Co1 1_555 1_555
N16 Co2 1_555 1_555
O4 C16 1_555 1_555
C2 C3 1_555 1_555
N8 C42 1_555 1_555
C5 C8 1_555 1_555
C5 C48 1_555 1_555
C6 C13 1_555 1_555
C6 C14 1_555 1_555
C15 C24 1_555 1_555
C20 C45 1_555 1_555
C21 C39 1_555 1_555
C21 C47 1_555 1_555
C25 C42 1_555 1_555
C29 C40 1_555 1_555
C31 C35 1_555 1_555
C33 C50 1_555 1_555
C38 C48 1_555 1_555
C41 C43 1_555 1_555
C44 C46 1_555 1_555
C45 C46 1_555 1_555
O2 C17 1_555 1_555
O5 C17 1_555 1_555
C12 C17 1_555 1_555
C26 C12 1_555 1_555
H18 C26 1_555 1_555
C27 C12 1_555 1_555
H19 C27 1_555 1_555
C30 C32 1_555 1_555
C32 C26 1_555 1_555
H21 C32 1_555 1_555
C34 C27 1_555 1_555
H23 C34 1_555 1_555
N11 C30 1_555 1_555
Co4 O5 1_555 1_555
Co8 O2 1_555 1_555
C30 C34 1_555 1_555
N11 N12 1_555 1_555
N13 C1_2 1_555 1_555
C1_2 H1_2 1_555 1_555
C8_2 N13 1_555 1_555
H8_2 C8_2 1_555 1_555
C5_2 C8_2 1_555 1_555
N5_2 C22_2 1_555 1_555
C22_2 H15_2 1_555 1_555
C24_2 N5_2 1_555 1_555
H17_2 C24_2 1_555 1_555
C44_2 C22_2 1_555 1_555
H29_2 C44_2 1_555 1_555
Co4 N5_2 1_555 1_555
C44_2 C46_2 1_555 1_555
Co1_2 O1_2 1_555 1_555
Co5 O1_2 1_555 1_555
O2_2 C17_2 1_555 1_555
O3_2 Co1_2 1_555 1_555
O4_2 Co5 1_555 1_555
O5_2 C17_2 1_555 1_555
N1_2 Co1_2 1_555 1_555
N3_2 C28_2 1_555 1_555
N7_2 Co1_2 1_555 1_555
C2_2 H2_2 1_555 1_555
C3_2 N1_2 1_555 1_555
H3_2 C3_2 1_555 1_555
H4_2 C4_2 1_555 1_555
N8_2 C38_2 1_555 1_555
C6_2 H6_2 1_555 1_555
C9_2 N7_2 1_555 1_555
H9_2 C9_2 1_555 1_555
C10_2 C16_2 1_555 1_555
C12_2 C17_2 1_555 1_555
C13_2 N1_2 1_555 1_555
H11_2 C13_2 1_555 1_555
C14_2 C2_2 1_555 1_555
C16_2 O3_2 1_555 1_555
C21_2 C37_2 1_555 1_555
C23_2 C10_2 1_555 1_555
H16_2 C23_2 1_555 1_555
C26_2 C12_2 1_555 1_555
H18_2 C26_2 1_555 1_555
C27_2 C12_2 1_555 1_555
H19_2 C27_2 1_555 1_555
C28_2 C14_2 1_555 1_555
C29_2 H20_2 1_555 1_555
C30_2 C32_2 1_555 1_555
C31_2 C29_2 1_555 1_555
C32_2 C26_2 1_555 1_555
H21_2 C32_2 1_555 1_555
C34_2 C27_2 1_555 1_555
H23_2 C34_2 1_555 1_555
C35_2 C23_2 1_555 1_555
H24_2 C35_2 1_555 1_555
C36_2 N7_2 1_555 1_555
H25_2 C36_2 1_555 1_555
C37_2 C36_2 1_555 1_555
H26_2 C37_2 1_555 1_555
C38_2 C28_2 1_555 1_555
C40_2 C10_2 1_555 1_555
H27_2 C40_2 1_555 1_555
C42_2 N3_2 1_555 1_555
C47_2 C9_2 1_555 1_555
H30_2 C47_2 1_555 1_555
C48_2 C4_2 1_555 1_555
N11_2 C30_2 1_555 1_555
N12_2 C31_2 1_555 1_555
H34_2 N8_2 1_555 1_555
Co3 O5_2 1_555 1_555
Co6 O2_2 1_555 1_555
O6_2 Co5 1_555 1_555
O7_2 Co1_2 1_555 1_555
N14_2 Co5 1_555 1_555
N15_2 Co1_2 1_555 1_555
N16_2 Co5 1_555 1_555
O4_2 C16_2 1_555 1_555
C2_2 C3_2 1_555 1_555
N8_2 C42_2 1_555 1_555
C6_2 C13_2 1_555 1_555
C6_2 C14_2 1_555 1_555
C21_2 C47_2 1_555 1_555
C29_2 C40_2 1_555 1_555
C30_2 C34_2 1_555 1_555
C31_2 C35_2 1_555 1_555
C38_2 C48_2 1_555 1_555
N11_2 N12_2 1_555 1_555
N6_2 C18_2 1_555 1_555
N9_2 C20_2 1_555 1_555
N10_2 C39_2 1_555 1_555
H10_2 C11_2 1_555 1_555
C15_2 H12_2 1_555 1_555
C18_2 H13_2 1_555 1_555
C19_2 C18_2 1_555 1_555
H14_2 C19_2 1_555 1_555
C20_2 C43_2 1_555 1_555
C25_2 C19_2 1_555 1_555
C33_2 C25_2 1_555 1_555
C39_2 N9_2 1_555 1_555
C41_2 H28_2 1_555 1_555
C43_2 C11_2 1_555 1_555
C45_2 N10_2 1_555 1_555
C50_2 N6_2 1_555 1_555
H32_2 C50_2 1_555 1_555
H33_2 N9_2 1_555 1_555
Co6 N6_2 1_555 1_555
C20_2 C45_2 1_555 1_555
C33_2 C50_2 1_555 1_555
C41_2 C43_2 1_555 1_555
N4_2 C7_2 1_555 1_555
C7_2 H7_2 1_555 1_555
C49_2 N4_2 1_555 1_555
H31_2 C49_2 1_555 1_555
Co6 N4_2 1_555 1_555
N16_2 C18_3 1_555 1_555
C18_3 H13_3 1_555 1_555
C19_3 C18_3 1_555 1_555
H14_3 C19_3 1_555 1_555
C25_3 C19_3 1_555 1_555
C33_3 C25_3 1_555 1_555
C50_3 N16_2 1_555 1_555
H32_3 C50_3 1_555 1_555
C33_3 C50_3 1_555 1_555
N14_2 C7_3 1_555 1_555
N15 C22_3 1_555 1_555
C7_3 H7_3 1_555 1_555
N9_3 C20_3 1_555 1_555
N10_3 C39_3 1_555 1_555
C11_3 C7_3 1_555 1_555
H10_3 C11_3 1_555 1_555
C15_3 H12_3 1_555 1_555
C20_3 C43_3 1_555 1_555
C22_3 H15_3 1_555 1_555
C24_3 N15 1_555 1_555
H17_3 C24_3 1_555 1_555
C39_3 N9_3 1_555 1_555
C41_3 H28_3 1_555 1_555
C43_3 C11_3 1_555 1_555
C44_3 C22_3 1_555 1_555
H29_3 C44_3 1_555 1_555
C45_3 N10_3 1_555 1_555
C46_3 C15_3 1_555 1_555
C49_3 N14_2 1_555 1_555
H31_3 C49_3 1_555 1_555
H33_3 N9_3 1_555 1_555
C15_3 C24_3 1_555 1_555
C20_3 C45_3 1_555 1_555
C41_3 C43_3 1_555 1_555
C41_3 C49_3 1_555 1_555
C44_3 C46_3 1_555 1_555
C45_3 C46_3 1_555 1_555
O6_2 C17_3 1_555 1_555
O7_2 C17_3 1_555 1_555
N2_2 C1_3 1_555 1_555
N3_3 C28_3 1_555 1_555
C1_3 H1_3 1_555 1_555
C2_3 H2_3 1_555 1_555
C4_3 C1_3 1_555 1_555
H4_3 C4_3 1_555 1_555
N8_3 C38_3 1_555 1_555
C5_3 H5_3 1_555 1_555
C6_3 H6_3 1_555 1_555
C8_3 N2_2 1_555 1_555
H8_3 C8_3 1_555 1_555
C12_3 C17_3 1_555 1_555
C14_3 C2_3 1_555 1_555
C26_3 C12_3 1_555 1_555
H18_3 C26_3 1_555 1_555
C27_3 C12_3 1_555 1_555
H19_3 C27_3 1_555 1_555
C28_3 C14_3 1_555 1_555
C29_3 H20_3 1_555 1_555
C30_3 C32_3 1_555 1_555
C31_3 C29_3 1_555 1_555
C32_3 C26_3 1_555 1_555
H21_3 C32_3 1_555 1_555
C34_3 C27_3 1_555 1_555
H23_3 C34_3 1_555 1_555
H24_3 C35_3 1_555 1_555
C38_3 C28_3 1_555 1_555
C42_3 N3_3 1_555 1_555
C48_3 C4_3 1_555 1_555
N11_3 C30_3 1_555 1_555
N12_3 C31_3 1_555 1_555
H34_3 N8_3 1_555 1_555
Co8 N2_2 1_555 1_555
N8_3 C42_3 1_555 1_555
C5_3 C8_3 1_555 1_555
C5_3 C48_3 1_555 1_555
C6_3 C14_3 1_555 1_555
C30_3 C34_3 1_555 1_555
C31_3 C35_3 1_555 1_555
C38_3 C48_3 1_555 1_555
N11_3 N12_3 1_555 1_555
Co3 O1_3 1_555 1_555
Co6 O1_3 1_555 1_555
O3_3 Co3 1_555 1_555
O4_3 Co6 1_555 1_555
N1_3 Co3 1_555 1_555
N7_3 Co3 1_555 1_555
C3_3 N1_3 1_555 1_555
H3_3 C3_3 1_555 1_555
C9_3 N7_3 1_555 1_555
H9_3 C9_3 1_555 1_555
C10_3 C16_3 1_555 1_555
C13_3 N1_3 1_555 1_555
H11_3 C13_3 1_555 1_555
C16_3 O3_3 1_555 1_555
C21_3 C37_3 1_555 1_555
C23_3 C10_3 1_555 1_555
H16_3 C23_3 1_555 1_555
C36_3 N7_3 1_555 1_555
H25_3 C36_3 1_555 1_555
C37_3 C36_3 1_555 1_555
H26_3 C37_3 1_555 1_555
C40_3 C10_3 1_555 1_555
H27_3 C40_3 1_555 1_555
C47_3 C9_3 1_555 1_555
H30_3 C47_3 1_555 1_555
N13_2 Co6 1_555 1_555
O4_3 C16_3 1_555 1_555
C21_3 C47_3 1_555 1_555
O6 C17_4 1_555 1_555
O7 C17_4 1_555 1_555
C12_4 C17_4 1_555 1_555
C26_4 C12_4 1_555 1_555
H18_4 C26_4 1_555 1_555
C27_4 C12_4 1_555 1_555
H19_4 C27_4 1_555 1_555
C30_4 C32_4 1_555 1_555
C32_4 C26_4 1_555 1_555
H21_4 C32_4 1_555 1_555
C34_4 C27_4 1_555 1_555
H23_4 C34_4 1_555 1_555
N11_4 C30_4 1_555 1_555
C30_4 C34_4 1_555 1_555
N11_4 N12_4 1_555 1_555
Co4 O1_4 1_555 1_555
Co8 O1_4 1_555 1_555
O3_4 Co4 1_555 1_555
O4_4 Co8 1_555 1_555
N1_4 Co4 1_555 1_555
N14 C7_4 1_555 1_555
N7_4 Co4 1_555 1_555
C3_4 N1_4 1_555 1_555
H3_4 C3_4 1_555 1_555
C7_4 H7_4 1_555 1_555
N9_4 C20_4 1_555 1_555
C9_4 N7_4 1_555 1_555
H9_4 C9_4 1_555 1_555
C10_4 C16_4 1_555 1_555
N10_4 C39_4 1_555 1_555
C11_4 C7_4 1_555 1_555
H10_4 C11_4 1_555 1_555
C13_4 N1_4 1_555 1_555
H11_4 C13_4 1_555 1_555
C15_4 H12_4 1_555 1_555
C16_4 O3_4 1_555 1_555
C20_4 C43_4 1_555 1_555
C21_4 C37_4 1_555 1_555
C23_4 C10_4 1_555 1_555
H16_4 C23_4 1_555 1_555
C36_4 N7_4 1_555 1_555
H25_4 C36_4 1_555 1_555
C37_4 C36_4 1_555 1_555
H26_4 C37_4 1_555 1_555
C39_4 N9_4 1_555 1_555
C40_4 C10_4 1_555 1_555
H27_4 C40_4 1_555 1_555
C41_4 H28_4 1_555 1_555
C43_4 C11_4 1_555 1_555
C45_4 N10_4 1_555 1_555
C47_4 C9_4 1_555 1_555
H30_4 C47_4 1_555 1_555
C49_4 N14 1_555 1_555
H31_4 C49_4 1_555 1_555
H33_4 N9_4 1_555 1_555
O4_4 C16_4 1_555 1_555
C20_4 C45_4 1_555 1_555
C21_4 C39_4 1_555 1_555
C21_4 C47_4 1_555 1_555
C41_4 C43_4 1_555 1_555
C41_4 C49_4 1_555 1_555
N3_4 C28_4 1_555 1_555
N16 C18_4 1_555 1_555
C2_4 H2_4 1_555 1_555
H4_4 C4_4 1_555 1_555
N8_4 C38_4 1_555 1_555
C6_4 H6_4 1_555 1_555
C14_4 C2_4 1_555 1_555
C18_4 H13_4 1_555 1_555
C19_4 C18_4 1_555 1_555
H14_4 C19_4 1_555 1_555
C25_4 C19_4 1_555 1_555
C28_4 C14_4 1_555 1_555
C29_4 H20_4 1_555 1_555
C31_4 C29_4 1_555 1_555
C33_4 C25_4 1_555 1_555
H22_4 C33_4 1_555 1_555
H24_4 C35_4 1_555 1_555
C38_4 C28_4 1_555 1_555
C42_4 N3_4 1_555 1_555
C48_4 C4_4 1_555 1_555
C50_4 N16 1_555 1_555
H32_4 C50_4 1_555 1_555
H34_4 N8_4 1_555 1_555
N8_4 C42_4 1_555 1_555
C6_4 C14_4 1_555 1_555
C25_4 C42_4 1_555 1_555
C31_4 C35_4 1_555 1_555
C33_4 C50_4 1_555 1_555
C38_4 C48_4 1_555 1_555
N15_2 C22_4 1_555 1_555
C22_4 H15_4 1_555 1_555
C24_4 N15_2 1_555 1_555
H17_4 C24_4 1_555 1_555
C44_4 C22_4 1_555 1_555
H29_4 C44_4 1_555 1_555
C44_4 C46_4 1_555 1_555
N13_2 C1_4 1_555 1_555
C1_4 H1_4 1_555 1_555
C8_4 N13_2 1_555 1_555
H8_4 C8_4 1_555 1_555
C5_4 C8_4 1_555 1_555

#END
