
###############################################################################
#
# This file contains modified crystal structure data generated from the
# MOF subset of the Cambridge Structural Database (CSD) v543 
# hosted by the Cambridge Crystallographic Data Centre (CCDC).
#
# This work is licensed under the Creative Commons
# Attribution-NonCommercial-ShareAlike 4.0 International License.
# To view a copy of this license, visit
# http://creativecommons.org/licenses/by-nc-sa/4.0/
# or send a letter to
# Creative Commons, PO Box 1866, Mountain View, CA 94042, USA.
#
# CIF created using the CSD Python API on 29 September 2022
# The structure has been converted into the P1 space group
# The structure has a 3D framework
# The original CSD entry DEDGIF is in the orthorhombic crystal system
# The framework has been calculated to contain at least 10.0% void space
# The void calculation uses a probe of radius 1.32A, grid spacing 0.4
#
###############################################################################

data_DEDGIF
_chemical_formula_moiety         '(C240 H224 N96 O64 Zn12)n'
_symmetry_cell_setting           triclinic
_symmetry_space_group_name_H-M   'P 1'
_symmetry_Int_Tables_number      1
_space_group_name_Hall           'P 1'
loop_
_symmetry_equiv_pos_site_id
_symmetry_equiv_pos_as_xyz
1 x,y,z
_cell_length_a                   19.4772(14)
_cell_length_b                   19.1029(12)
_cell_length_c                   25.1966(17)
_cell_angle_alpha                90
_cell_angle_beta                 90
_cell_angle_gamma                90
_cell_volume                     9374.92
loop_
_atom_site_label
_atom_site_type_symbol
_atom_site_fract_x
_atom_site_fract_y
_atom_site_fract_z
Zn2 Zn 0.46042(2) 0.28678(2) 0.22281(2)
O3 O 0.39473(19) 0.19259(18) 0.15407(13)
O4 O 0.49422(18) 0.19772(16) 0.19574(13)
O5 O 0.46269(17) 0.35982(14) 0.16923(12)
O6 O 0.4506(2) 0.42761(17) 0.23967(13)
O7 O 0.52333(19) 0.65021(17) 0.00931(13)
O8 O 0.51028(18) 0.72234(15) 0.07761(12)
N1 N 0.37782(17) 0.27403(18) 0.26988(13)
N2 N 0.2701(2) 0.2615(5) 0.2967(2)
N3 N 0.31122(19) 0.2648(2) 0.33828(14)
N4 N 0.05074(17) 0.22250(16) 0.45739(13)
N5 N 0.1179(2) 0.2592(2) 0.39109(17)
N6 N 0.13896(17) 0.19627(18) 0.40936(13)
N7 N 0.54180(17) 0.29647(17) 0.27387(13)
N8 N 0.6478(2) 0.2809(3) 0.30378(18)
N9 N 0.61181(17) 0.3226(2) 0.33727(14)
N10 N 0.88372(17) 0.22141(17) 0.47921(13)
N11 N 0.7777(2) 0.1914(2) 0.45531(16)
N12 N 0.79711(17) 0.2506(2) 0.43071(14)
C2 C 0.4514(2) 0.1681(2) 0.16394(15)
C4 C 0.5572(2) 0.0075(2) 0.13210(17)
C5 C 0.5359(2) 0.0696(2) 0.15447(17)
H2 H 0.5625 0.0905 0.1807
C6 C 0.4758(2) 0.1012(2) 0.13862(14)
C7 C 0.4370(2) 0.0699(2) 0.09936(16)
H3 H 0.3959 0.0904 0.0886
C8 C 0.4586(2) 0.0081(2) 0.07578(16)
C9 C 0.4604(2) 0.4199(2) 0.19181(18)
C10 C 0.5120(2) 0.6613(2) 0.05741(17)
C11 C 0.4732(2) 0.4831(2) 0.15734(17)
C12 C 0.4740(3) 0.5490(2) 0.17853(18)
H5 H 0.4662 0.5547 0.2147
C13 C 0.4864(3) 0.6079(2) 0.14719(18)
H6 H 0.4863 0.6523 0.1623
C14 C 0.4989(2) 0.5999(2) 0.09352(16)
C15 C 0.4989(3) 0.5332(2) 0.07258(18)
H7 H 0.5083 0.5270 0.0367
C16 C 0.4855(3) 0.4760(2) 0.10344(18)
H8 H 0.4846 0.4317 0.0881
C17 C 0.3124(3) 0.2676(5) 0.2570(2)
H9 H 0.2976 0.2674 0.2219
C18 C 0.3747(2) 0.2711(3) 0.32215(18)
H10 H 0.4127 0.2733 0.3445
C19 C 0.0652(3) 0.2727(3) 0.4212(2)
H11 H 0.0396 0.3135 0.4180
C20 C 0.0985(2) 0.1752(2) 0.44787(15)
H12 H 0.1030 0.1330 0.4659
C21 C 0.2854(3) 0.2621(4) 0.39264(19)
H13 H 0.2457 0.2926 0.3955
H14 H 0.3205 0.2799 0.4164
C22 C 0.2654(3) 0.1903(4) 0.4102(2)
H15 H 0.2616 0.1904 0.4486
H16 H 0.3022 0.1584 0.4009
C23 C 0.1995(2) 0.1622(3) 0.38759(19)
H17 H 0.1999 0.1684 0.3494
H18 H 0.1968 0.1123 0.3948
C24 C 0.6034(3) 0.2670(3) 0.2664(2)
H19 H 0.6137 0.2392 0.2372
C25 C 0.5501(2) 0.3306(2) 0.31905(17)
H20 H 0.5161 0.3569 0.3356
C26 C 0.8309(2) 0.1753(3) 0.48392(18)
H21 H 0.8327 0.1359 0.5056
C27 C 0.8611(2) 0.2686(2) 0.44519(17)
H22 H 0.8853 0.3075 0.4333
C28 C 0.6433(2) 0.3542(3) 0.38460(19)
H23 H 0.6074 0.3741 0.4066
H24 H 0.6730 0.3923 0.3735
C29 C 0.6840(2) 0.3043(3) 0.41698(18)
H25 H 0.6575 0.2617 0.4217
H26 H 0.6917 0.3245 0.4518
C30 C 0.7536(2) 0.2855(3) 0.39225(18)
H27 H 0.7465 0.2550 0.3619
H28 H 0.7761 0.3278 0.3799
Zn3 Zn 0.52346(2) 0.78339(2) 0.01403(2)
Zn5 Zn 0.97654(2) 0.21661(2) 0.51403(2)
O1 O 0.49890(15) 0.87791(14) 0.03742(12)
O2 O 0.59528(18) 0.87999(17) 0.08376(14)
C1 C 0.5407(2) 0.9069(2) 0.06973(15)
C3 C 0.5188(2) 0.97598(19) 0.09232(14)
H1 H 0.5977 0.9866 0.1437
H4 H 0.4326 0.9882 0.0488
N13 N 0.44926(17) 0.77750(16) 0.95739(13)
N14 N 0.61628(17) 0.77859(17) 0.97921(13)
O1_2 O 0.00110(15) 0.12209(14) 0.53742(12)
H4_2 H 0.0674 0.0118 0.5488
Zn2_2 Zn 0.03958(2) 0.71322(2) 0.72281(2)
O3_2 O 0.10527(19) 0.80741(18) 0.65407(13)
O4_2 O 0.00578(18) 0.80228(16) 0.69574(13)
O5_2 O 0.03731(17) 0.64018(14) 0.66923(12)
O6_2 O 0.0494(2) 0.57239(17) 0.73967(13)
N1_2 N 0.12218(17) 0.72597(18) 0.76988(13)
N2_2 N 0.2299(2) 0.7385(5) 0.7967(2)
N3_2 N 0.18878(19) 0.7352(2) 0.83828(14)
N5_2 N 0.3821(2) 0.7408(2) 0.89109(17)
N6_2 N 0.36104(17) 0.80373(18) 0.90936(13)
C2_2 C 0.0486(2) 0.8319(2) 0.66394(15)
C6_2 C 0.0242(2) 0.8988(2) 0.63862(14)
C7_2 C 0.0630(2) 0.9301(2) 0.59936(16)
H3_2 H 0.1041 0.9096 0.5886
C8_2 C 0.0414(2) 0.9919(2) 0.57578(16)
C9_2 C 0.0396(2) 0.5801(2) 0.69181(18)
C11_2 C 0.0268(2) 0.5169(2) 0.65734(17)
C12_2 C 0.0260(3) 0.4510(2) 0.67853(18)
H5_2 H 0.0338 0.4453 0.7147
C13_2 C 0.0136(3) 0.3921(2) 0.64719(18)
H6_2 H 0.0137 0.3477 0.6623
C14_2 C 0.0011(2) 0.4001(2) 0.59352(16)
C15_2 C 0.0011(3) 0.4668(2) 0.57258(18)
C16_2 C 0.0145(3) 0.5240(2) 0.60344(18)
H8_2 H 0.0154 0.5683 0.5881
C17_2 C 0.1876(3) 0.7324(5) 0.7570(2)
H9_2 H 0.2024 0.7326 0.7219
C18_2 C 0.1253(2) 0.7289(3) 0.82215(18)
H10_2 H 0.0873 0.7267 0.8445
C19_2 C 0.4348(3) 0.7273(3) 0.9212(2)
H11_2 H 0.4604 0.6865 0.9180
C20_2 C 0.4015(2) 0.8248(2) 0.94787(15)
H12_2 H 0.3970 0.8670 0.9659
C21_2 C 0.2146(3) 0.7379(4) 0.89264(19)
H13_2 H 0.2543 0.7074 0.8955
H14_2 H 0.1795 0.7201 0.9164
C22_2 C 0.2346(3) 0.8097(4) 0.9102(2)
H15_2 H 0.2384 0.8096 0.9486
H16_2 H 0.1978 0.8416 0.9009
C23_2 C 0.3005(2) 0.8378(3) 0.88759(19)
H17_2 H 0.3001 0.8316 0.8494
H18_2 H 0.3032 0.8877 0.8948
O2_2 O 0.90472(18) 0.12001(17) 0.58376(14)
C1_2 C 0.9593(2) 0.0931(2) 0.56973(15)
C3_2 C 0.9812(2) 0.02402(19) 0.59232(14)
H1_2 H 0.9023 0.0134 0.6437
O9 O 0.97667(19) 0.34979(17) 0.50931(13)
O10 O 0.98972(18) 0.27766(15) 0.57761(12)
H21_2 H 0.6673 0.8641 0.0056
N7_2 N 0.95820(17) 0.70353(17) 0.77387(13)
N8_2 N 0.8522(2) 0.7191(3) 0.80378(18)
N9_2 N 0.88819(17) 0.6774(2) 0.83727(14)
N11_2 N 0.7223(2) 0.8086(2) 0.95531(16)
N12_2 N 0.70289(17) 0.7494(2) 0.93071(14)
C4_2 C 0.9428(2) 0.9925(2) 0.63210(17)
C5_2 C 0.9641(2) 0.9304(2) 0.65447(17)
H2_2 H 0.9375 0.9095 0.6807
C10_2 C 0.9880(2) 0.3387(2) 0.55741(17)
H7_2 H 0.9917 0.4730 0.5367
C24_2 C 0.8966(3) 0.7330(3) 0.7664(2)
H19_2 H 0.8863 0.7608 0.7372
C25_2 C 0.9499(2) 0.6694(2) 0.81905(17)
H20_2 H 0.9839 0.6431 0.8356
C26_2 C 0.6691(2) 0.8247(3) 0.98392(18)
C27_2 C 0.6389(2) 0.7314(2) 0.94519(17)
H22_2 H 0.6147 0.6925 0.9333
C28_2 C 0.8567(2) 0.6458(3) 0.88460(19)
H23_2 H 0.8926 0.6259 0.9066
H24_2 H 0.8270 0.6077 0.8735
C29_2 C 0.8160(2) 0.6957(3) 0.91698(18)
H25_2 H 0.8425 0.7383 0.9217
H26_2 H 0.8083 0.6755 0.9518
C30_2 C 0.7464(2) 0.7145(3) 0.89225(18)
H27_2 H 0.7535 0.7450 0.8619
H28_2 H 0.7239 0.6722 0.8799
Zn4 Zn 0.02346(2) 0.71661(2) 0.98597(2)
O7_2 O 0.47667(19) 0.15021(17) 0.49069(13)
O8_2 O 0.48972(18) 0.22234(15) 0.42239(12)
C10_3 C 0.4880(2) 0.1613(2) 0.44259(17)
C12_3 C 0.5260(3) 0.0490(2) 0.32147(18)
H5_3 H 0.5338 0.0547 0.2853
C13_3 C 0.5136(3) 0.1079(2) 0.35281(18)
H6_3 H 0.5137 0.1523 0.3377
C14_3 C 0.5011(2) 0.0999(2) 0.40648(16)
C15_3 C 0.5011(3) 0.0332(2) 0.42742(18)
H7_3 H 0.4917 0.0270 0.4633
Zn3_2 Zn 0.47654(2) 0.28339(2) 0.48597(2)
Zn2_3 Zn 0.53958(2) 0.78678(2) 0.27719(2)
O1_3 O 0.50110(15) 0.37791(14) 0.46258(12)
O2_3 O 0.40472(18) 0.37999(17) 0.41624(14)
O3_3 O 0.60527(19) 0.69259(18) 0.34593(13)
O4_3 O 0.50578(18) 0.69772(16) 0.30426(13)
O5_3 O 0.53731(17) 0.85982(14) 0.33077(12)
O6_3 O 0.5494(2) 0.92761(17) 0.26033(13)
N1_3 N 0.62218(17) 0.77403(18) 0.23012(13)
N2_3 N 0.7299(2) 0.7615(5) 0.2033(2)
N3_3 N 0.68878(19) 0.7648(2) 0.16172(14)
N4_2 N 0.94926(17) 0.72250(16) 0.04261(13)
N5_3 N 0.8821(2) 0.7592(2) 0.10891(17)
N6_3 N 0.86104(17) 0.69627(18) 0.09064(13)
N7_3 N 0.45820(17) 0.79647(17) 0.22613(13)
N8_3 N 0.3522(2) 0.7809(3) 0.19622(18)
N9_3 N 0.38819(17) 0.8226(2) 0.16273(14)
N10_2 N 0.11628(17) 0.72141(17) 0.02079(13)
N11_3 N 0.2223(2) 0.6914(2) 0.04469(16)
N12_3 N 0.20289(17) 0.7506(2) 0.06929(14)
C1_3 C 0.4593(2) 0.4069(2) 0.43027(15)
C2_3 C 0.5486(2) 0.6681(2) 0.33606(15)
C3_3 C 0.4812(2) 0.47598(19) 0.40768(14)
C4_3 C 0.4428(2) 0.5075(2) 0.36790(17)
H1_3 H 0.4023 0.4866 0.3563
C5_3 C 0.4641(2) 0.5696(2) 0.34553(17)
H2_3 H 0.4375 0.5905 0.3193
C6_3 C 0.5242(2) 0.6012(2) 0.36138(14)
C7_3 C 0.5630(2) 0.5699(2) 0.40064(16)
H3_3 H 0.6041 0.5904 0.4114
C8_3 C 0.5414(2) 0.5081(2) 0.42422(16)
H4_3 H 0.5674 0.4882 0.4512
C9_3 C 0.5396(2) 0.9199(2) 0.30819(18)
C11_3 C 0.5268(2) 0.9831(2) 0.34266(17)
C16_3 C 0.5145(3) 0.9760(2) 0.39656(18)
H8_3 H 0.5154 0.9317 0.4119
C17_3 C 0.6876(3) 0.7676(5) 0.2430(2)
H9_3 H 0.7024 0.7674 0.2781
C18_3 C 0.6253(2) 0.7711(3) 0.17785(18)
H10_3 H 0.5873 0.7733 0.1555
C19_3 C 0.9348(3) 0.7727(3) 0.0788(2)
H11_3 H 0.9604 0.8135 0.0820
C20_3 C 0.9015(2) 0.6752(2) 0.05213(15)
H12_3 H 0.8970 0.6330 0.0341
C21_3 C 0.7146(3) 0.7621(4) 0.10736(19)
H13_3 H 0.7543 0.7926 0.1045
H14_3 H 0.6795 0.7799 0.0836
C22_3 C 0.7346(3) 0.6903(4) 0.0898(2)
H15_3 H 0.7384 0.6904 0.0514
H16_3 H 0.6978 0.6584 0.0991
C23_3 C 0.8005(2) 0.6622(3) 0.11241(19)
H17_3 H 0.8001 0.6684 0.1506
H18_3 H 0.8032 0.6123 0.1052
C24_3 C 0.3966(3) 0.7670(3) 0.2336(2)
H19_3 H 0.3863 0.7392 0.2628
C25_3 C 0.4499(2) 0.8306(2) 0.18095(17)
H20_3 H 0.4839 0.8569 0.1644
C26_3 C 0.1691(2) 0.6753(3) 0.01608(18)
C27_3 C 0.1389(2) 0.7686(2) 0.05481(17)
H22_3 H 0.1147 0.8075 0.0667
C28_3 C 0.3567(2) 0.8542(3) 0.11540(19)
H23_3 H 0.3926 0.8741 0.0934
H24_3 H 0.3270 0.8923 0.1265
C29_3 C 0.3160(2) 0.8043(3) 0.08302(18)
H25_3 H 0.3425 0.7617 0.0783
H26_3 H 0.3083 0.8245 0.0482
C30_3 C 0.2464(2) 0.7855(3) 0.10775(18)
H27_3 H 0.2535 0.7550 0.1381
H28_3 H 0.2239 0.8278 0.1201
N13_2 N 0.55074(17) 0.27750(16) 0.54261(13)
N14_2 N 0.38372(17) 0.27859(17) 0.52079(13)
H21_3 H 0.1673 0.6359 0.9944
O2_4 O 0.09528(18) 0.62001(17) 0.91624(14)
N7_4 N 0.04180(17) 0.20353(17) 0.72613(13)
N8_4 N 0.1478(2) 0.2191(3) 0.69622(18)
N9_4 N 0.11181(17) 0.1774(2) 0.66273(14)
N11_4 N 0.2777(2) 0.3086(2) 0.54469(16)
N12_4 N 0.29711(17) 0.2494(2) 0.56929(14)
C1_4 C 0.0407(2) 0.5931(2) 0.93027(15)
C3_4 C 0.0188(2) 0.52402(19) 0.90768(14)
C4_4 C 0.0572(2) 0.4925(2) 0.86790(17)
H1_4 H 0.0977 0.5134 0.8563
C5_4 C 0.0359(2) 0.4304(2) 0.84553(17)
H2_4 H 0.0625 0.4095 0.8193
C24_4 C 0.1034(3) 0.2330(3) 0.7336(2)
H19_4 H 0.1137 0.2608 0.7628
C25_4 C 0.0501(2) 0.1694(2) 0.68095(17)
H20_4 H 0.0161 0.1431 0.6644
C26_4 C 0.3309(2) 0.3247(3) 0.51608(18)
H21_4 H 0.3327 0.3641 0.4944
C27_4 C 0.3611(2) 0.2314(2) 0.55481(17)
H22_4 H 0.3853 0.1925 0.5667
C28_4 C 0.1433(2) 0.1458(3) 0.61540(19)
H23_4 H 0.1074 0.1259 0.5934
H24_4 H 0.1730 0.1077 0.6265
C29_4 C 0.1840(2) 0.1957(3) 0.58302(18)
H25_4 H 0.1575 0.2383 0.5783
H26_4 H 0.1917 0.1755 0.5482
C30_4 C 0.2536(2) 0.2145(3) 0.60775(18)
H27_4 H 0.2465 0.2450 0.6381
H28_4 H 0.2761 0.1722 0.6201
O9_2 O 0.02333(19) 0.84979(17) 0.99069(13)
O10_2 O 0.01028(18) 0.77766(15) 0.92239(12)
C10_4 C 0.0120(2) 0.8387(2) 0.94259(17)
H7_4 H 0.0083 0.9730 0.9633
Zn2_4 Zn 0.96042(2) 0.21322(2) 0.77719(2)
O1_4 O 0.99890(15) 0.62209(14) 0.96258(12)
O3_4 O 0.89473(19) 0.30741(18) 0.84593(13)
O4_4 O 0.99422(18) 0.30228(16) 0.80426(13)
O5_4 O 0.96269(17) 0.14018(14) 0.83077(12)
O6_4 O 0.9506(2) 0.07239(17) 0.76033(13)
N1_4 N 0.87782(17) 0.22597(18) 0.73012(13)
N2_4 N 0.7701(2) 0.2385(5) 0.7033(2)
N3_4 N 0.81122(19) 0.2352(2) 0.66172(14)
N5_4 N 0.6179(2) 0.2408(2) 0.60891(17)
N6_4 N 0.63896(17) 0.30373(18) 0.59064(13)
C2_4 C 0.9514(2) 0.3319(2) 0.83606(15)
C6_4 C 0.9758(2) 0.3988(2) 0.86138(14)
C7_4 C 0.9370(2) 0.4301(2) 0.90064(16)
H3_4 H 0.8959 0.4096 0.9114
C8_4 C 0.9586(2) 0.4919(2) 0.92422(16)
H4_4 H 0.9326 0.5118 0.9512
C9_4 C 0.9604(2) 0.0801(2) 0.80819(18)
C11_4 C 0.9732(2) 0.0169(2) 0.84266(17)
C16_4 C 0.9855(3) 0.0240(2) 0.89656(18)
H8_4 H 0.9846 0.0683 0.9119
C17_4 C 0.8124(3) 0.2324(5) 0.7430(2)
H9_4 H 0.7976 0.2326 0.7781
C18_4 C 0.8747(2) 0.2289(3) 0.67785(18)
H10_4 H 0.9127 0.2267 0.6555
C19_4 C 0.5652(3) 0.2273(3) 0.5788(2)
H11_4 H 0.5396 0.1865 0.5820
C20_4 C 0.5985(2) 0.3248(2) 0.55213(15)
H12_4 H 0.6030 0.3670 0.5341
C21_4 C 0.7854(3) 0.2379(4) 0.60736(19)
H13_4 H 0.7457 0.2074 0.6045
H14_4 H 0.8205 0.2201 0.5836
C22_4 C 0.7654(3) 0.3097(4) 0.5898(2)
H15_4 H 0.7616 0.3096 0.5514
H16_4 H 0.8022 0.3416 0.5991
C23_4 C 0.6995(2) 0.3378(3) 0.61241(19)
H17_4 H 0.6999 0.3316 0.6506
H18_4 H 0.6968 0.3877 0.6052
C12_4 C 0.9740(3) 0.9510(2) 0.82147(18)
H5_4 H 0.9662 0.9453 0.7853
C13_4 C 0.9864(3) 0.8921(2) 0.85281(18)
H6_4 H 0.9863 0.8477 0.8377
C14_4 C 0.9989(2) 0.9001(2) 0.90648(16)
C15_4 C 0.9989(3) 0.9668(2) 0.92742(18)
Zn4_2 Zn 0.02346(2) 0.78339(2) 0.48597(2)
N13_3 N 0.55074(17) 0.22250(16) 0.04261(13)
N14_3 N 0.38372(17) 0.22141(17) 0.02079(13)
Zn1 Zn 0.47654(2) 0.21661(2) 0.98597(2)
O1_5 O 0.50110(15) 0.12209(14) 0.96258(12)
O2_5 O 0.40472(18) 0.12001(17) 0.91624(14)
C1_5 C 0.4593(2) 0.0931(2) 0.93027(15)
C3_5 C 0.4812(2) 0.02402(19) 0.90768(14)
H1_5 H 0.4023 0.0134 0.8563
H4_5 H 0.5674 0.0118 0.9512
O9_3 O 0.47667(19) 0.34979(17) 0.99069(13)
O10_3 O 0.48972(18) 0.27766(15) 0.92239(12)
Zn2_5 Zn 0.53958(2) 0.71322(2) 0.77719(2)
O3_5 O 0.60527(19) 0.80741(18) 0.84593(13)
O4_5 O 0.50578(18) 0.80228(16) 0.80426(13)
O5_5 O 0.53731(17) 0.64018(14) 0.83077(12)
O6_5 O 0.5494(2) 0.57239(17) 0.76033(13)
N1_5 N 0.62218(17) 0.72597(18) 0.73012(13)
N2_5 N 0.7299(2) 0.7385(5) 0.7033(2)
N3_5 N 0.68878(19) 0.7352(2) 0.66172(14)
N4_3 N 0.94926(17) 0.77750(16) 0.54261(13)
N5_5 N 0.8821(2) 0.7408(2) 0.60891(17)
N6_5 N 0.86104(17) 0.80373(18) 0.59064(13)
N7_5 N 0.45820(17) 0.70353(17) 0.72613(13)
N8_5 N 0.3522(2) 0.7191(3) 0.69622(18)
N9_5 N 0.38819(17) 0.6774(2) 0.66273(14)
N10_3 N 0.11628(17) 0.77859(17) 0.52079(13)
N11_5 N 0.2223(2) 0.8086(2) 0.54469(16)
N12_5 N 0.20289(17) 0.7494(2) 0.56929(14)
C2_5 C 0.5486(2) 0.8319(2) 0.83606(15)
C4_5 C 0.4428(2) 0.9925(2) 0.86790(17)
C5_5 C 0.4641(2) 0.9304(2) 0.84553(17)
H2_5 H 0.4375 0.9095 0.8193
C6_5 C 0.5242(2) 0.8988(2) 0.86138(14)
C7_5 C 0.5630(2) 0.9301(2) 0.90064(16)
H3_5 H 0.6041 0.9096 0.9114
C8_5 C 0.5414(2) 0.9919(2) 0.92422(16)
C9_5 C 0.5396(2) 0.5801(2) 0.80819(18)
C10_5 C 0.4880(2) 0.3387(2) 0.94259(17)
C11_5 C 0.5268(2) 0.5169(2) 0.84266(17)
C12_5 C 0.5260(3) 0.4510(2) 0.82147(18)
H5_5 H 0.5338 0.4453 0.7853
C13_5 C 0.5136(3) 0.3921(2) 0.85281(18)
H6_5 H 0.5137 0.3477 0.8377
C14_5 C 0.5011(2) 0.4001(2) 0.90648(16)
C15_5 C 0.5011(3) 0.4668(2) 0.92742(18)
H7_5 H 0.4917 0.4730 0.9633
C16_5 C 0.5145(3) 0.5240(2) 0.89656(18)
H8_5 H 0.5154 0.5683 0.9119
C17_5 C 0.6876(3) 0.7324(5) 0.7430(2)
H9_5 H 0.7024 0.7326 0.7781
C18_5 C 0.6253(2) 0.7289(3) 0.67785(18)
H10_5 H 0.5873 0.7267 0.6555
C19_5 C 0.9348(3) 0.7273(3) 0.5788(2)
H11_5 H 0.9604 0.6865 0.5820
C20_5 C 0.9015(2) 0.8248(2) 0.55213(15)
H12_5 H 0.8970 0.8670 0.5341
C21_5 C 0.7146(3) 0.7379(4) 0.60736(19)
H13_5 H 0.7543 0.7074 0.6045
H14_5 H 0.6795 0.7201 0.5836
C22_5 C 0.7346(3) 0.8097(4) 0.5898(2)
H15_5 H 0.7384 0.8096 0.5514
H16_5 H 0.6978 0.8416 0.5991
C23_5 C 0.8005(2) 0.8378(3) 0.61241(19)
H17_5 H 0.8001 0.8316 0.6506
H18_5 H 0.8032 0.8877 0.6052
C24_5 C 0.3966(3) 0.7330(3) 0.7336(2)
H19_5 H 0.3863 0.7608 0.7628
C25_5 C 0.4499(2) 0.6694(2) 0.68095(17)
H20_5 H 0.4839 0.6431 0.6644
C26_5 C 0.1691(2) 0.8247(3) 0.51608(18)
H21_5 H 0.1673 0.8641 0.4944
C27_5 C 0.1389(2) 0.7314(2) 0.55481(17)
H22_5 H 0.1147 0.6925 0.5667
C28_5 C 0.3567(2) 0.6458(3) 0.61540(19)
H23_5 H 0.3926 0.6259 0.5934
H24_5 H 0.3270 0.6077 0.6265
C29_5 C 0.3160(2) 0.6957(3) 0.58302(18)
H25_5 H 0.3425 0.7383 0.5783
H26_5 H 0.3083 0.6755 0.5482
C30_5 C 0.2464(2) 0.7145(3) 0.60775(18)
H27_5 H 0.2535 0.7450 0.6381
H28_5 H 0.2239 0.6722 0.6201
O7_3 O 0.02333(19) 0.65021(17) 0.49069(13)
O8_3 O 0.01028(18) 0.72234(15) 0.42239(12)
N7_6 N 0.04180(17) 0.29647(17) 0.22613(13)
N8_6 N 0.1478(2) 0.2809(3) 0.19622(18)
N9_6 N 0.11181(17) 0.3226(2) 0.16273(14)
N11_6 N 0.2777(2) 0.1914(2) 0.04469(16)
N12_6 N 0.29711(17) 0.2506(2) 0.06929(14)
C4_6 C 0.0572(2) 0.0075(2) 0.36790(17)
C5_6 C 0.0359(2) 0.0696(2) 0.34553(17)
H2_6 H 0.0625 0.0905 0.3193
C10_6 C 0.0120(2) 0.6613(2) 0.44259(17)
H7_6 H 0.0083 0.5270 0.4633
C24_6 C 0.1034(3) 0.2670(3) 0.2336(2)
H19_6 H 0.1137 0.2392 0.2628
C25_6 C 0.0501(2) 0.3306(2) 0.18095(17)
H20_6 H 0.0161 0.3569 0.1644
C26_6 C 0.3309(2) 0.1753(3) 0.01608(18)
C27_6 C 0.3611(2) 0.2686(2) 0.05481(17)
H22_6 H 0.3853 0.3075 0.0667
C28_6 C 0.1433(2) 0.3542(3) 0.11540(19)
H23_6 H 0.1074 0.3741 0.0934
H24_6 H 0.1730 0.3923 0.1265
C29_6 C 0.1840(2) 0.3043(3) 0.08302(18)
H25_6 H 0.1575 0.2617 0.0783
H26_6 H 0.1917 0.3245 0.0482
C30_6 C 0.2536(2) 0.2855(3) 0.10775(18)
H27_6 H 0.2465 0.2550 0.1381
H28_6 H 0.2761 0.3278 0.1201
H21_6 H 0.3327 0.1359 0.9944
O2_6 O 0.09528(18) 0.87999(17) 0.41624(14)
C1_6 C 0.0407(2) 0.9069(2) 0.43027(15)
C3_6 C 0.0188(2) 0.97598(19) 0.40768(14)
H1_6 H 0.0977 0.9866 0.3563
Zn2_6 Zn 0.96042(2) 0.28678(2) 0.27719(2)
O3_6 O 0.89473(19) 0.19259(18) 0.34593(13)
O4_6 O 0.99422(18) 0.19772(16) 0.30426(13)
O5_6 O 0.96269(17) 0.35982(14) 0.33077(12)
O6_6 O 0.9506(2) 0.42761(17) 0.26033(13)
N1_6 N 0.87782(17) 0.27403(18) 0.23012(13)
N2_6 N 0.7701(2) 0.2615(5) 0.2033(2)
N3_6 N 0.81122(19) 0.2648(2) 0.16172(14)
N5_6 N 0.6179(2) 0.2592(2) 0.10891(17)
N6_6 N 0.63896(17) 0.19627(18) 0.09064(13)
C2_6 C 0.9514(2) 0.1681(2) 0.33606(15)
C6_6 C 0.9758(2) 0.1012(2) 0.36138(14)
C7_6 C 0.9370(2) 0.0699(2) 0.40064(16)
H3_6 H 0.8959 0.0904 0.4114
C8_6 C 0.9586(2) 0.0081(2) 0.42422(16)
C9_6 C 0.9604(2) 0.4199(2) 0.30819(18)
C11_6 C 0.9732(2) 0.4831(2) 0.34266(17)
C12_6 C 0.9740(3) 0.5490(2) 0.32147(18)
H5_6 H 0.9662 0.5547 0.2853
C13_6 C 0.9864(3) 0.6079(2) 0.35281(18)
H6_6 H 0.9863 0.6523 0.3377
C14_6 C 0.9989(2) 0.5999(2) 0.40648(16)
C15_6 C 0.9989(3) 0.5332(2) 0.42742(18)
C16_6 C 0.9855(3) 0.4760(2) 0.39656(18)
H8_6 H 0.9846 0.4317 0.4119
C17_6 C 0.8124(3) 0.2676(5) 0.2430(2)
H9_6 H 0.7976 0.2674 0.2781
C18_6 C 0.8747(2) 0.2711(3) 0.17785(18)
H10_6 H 0.9127 0.2733 0.1555
C19_6 C 0.5652(3) 0.2727(3) 0.0788(2)
H11_6 H 0.5396 0.3135 0.0820
C20_6 C 0.5985(2) 0.1752(2) 0.05213(15)
H12_6 H 0.6030 0.1330 0.0341
C21_6 C 0.7854(3) 0.2621(4) 0.10736(19)
H13_6 H 0.7457 0.2926 0.1045
H14_6 H 0.8205 0.2799 0.0836
C22_6 C 0.7654(3) 0.1903(4) 0.0898(2)
H15_6 H 0.7616 0.1904 0.0514
H16_6 H 0.8022 0.1584 0.0991
C23_6 C 0.6995(2) 0.1622(3) 0.11241(19)
H17_6 H 0.6999 0.1684 0.1506
H18_6 H 0.6968 0.1123 0.1052
O1_6 O 0.99890(15) 0.87791(14) 0.46258(12)
H4_6 H 0.9326 0.9882 0.4512
H21_7 H 0.8327 0.3641 0.0056
Zn5_2 Zn 0.97654(2) 0.28339(2) 0.01403(2)
Zn1_2 Zn 0.52346(2) 0.71661(2) 0.51403(2)
Zn2_7 Zn 0.46042(2) 0.21322(2) 0.72281(2)
O1_7 O 0.49890(15) 0.62209(14) 0.53742(12)
O2_7 O 0.59528(18) 0.62001(17) 0.58376(14)
O3_7 O 0.39473(19) 0.30741(18) 0.65407(13)
O4_7 O 0.49422(18) 0.30228(16) 0.69574(13)
O5_7 O 0.46269(17) 0.14018(14) 0.66923(12)
O6_7 O 0.4506(2) 0.07239(17) 0.73967(13)
N1_7 N 0.37782(17) 0.22597(18) 0.76988(13)
N2_7 N 0.2701(2) 0.2385(5) 0.7967(2)
N3_7 N 0.31122(19) 0.2352(2) 0.83828(14)
N4_4 N 0.05074(17) 0.27750(16) 0.95739(13)
N5_7 N 0.1179(2) 0.2408(2) 0.89109(17)
N6_7 N 0.13896(17) 0.30373(18) 0.90936(13)
N7_7 N 0.54180(17) 0.20353(17) 0.77387(13)
N8_7 N 0.6478(2) 0.2191(3) 0.80378(18)
N9_7 N 0.61181(17) 0.1774(2) 0.83727(14)
N10_4 N 0.88372(17) 0.27859(17) 0.97921(13)
N11_7 N 0.7777(2) 0.3086(2) 0.95531(16)
N12_7 N 0.79711(17) 0.2494(2) 0.93071(14)
C1_7 C 0.5407(2) 0.5931(2) 0.56973(15)
C2_7 C 0.4514(2) 0.3319(2) 0.66394(15)
C3_7 C 0.5188(2) 0.52402(19) 0.59232(14)
C4_7 C 0.5572(2) 0.4925(2) 0.63210(17)
H1_7 H 0.5977 0.5134 0.6437
C5_7 C 0.5359(2) 0.4304(2) 0.65447(17)
H2_7 H 0.5625 0.4095 0.6807
C6_7 C 0.4758(2) 0.3988(2) 0.63862(14)
C7_7 C 0.4370(2) 0.4301(2) 0.59936(16)
H3_7 H 0.3959 0.4096 0.5886
C8_7 C 0.4586(2) 0.4919(2) 0.57578(16)
H4_7 H 0.4326 0.5118 0.5488
C9_7 C 0.4604(2) 0.0801(2) 0.69181(18)
C11_7 C 0.4732(2) 0.0169(2) 0.65734(17)
C16_7 C 0.4855(3) 0.0240(2) 0.60344(18)
H8_7 H 0.4846 0.0683 0.5881
C17_7 C 0.3124(3) 0.2324(5) 0.7570(2)
H9_7 H 0.2976 0.2326 0.7219
C18_7 C 0.3747(2) 0.2289(3) 0.82215(18)
H10_7 H 0.4127 0.2267 0.8445
C19_7 C 0.0652(3) 0.2273(3) 0.9212(2)
H11_7 H 0.0396 0.1865 0.9180
C20_7 C 0.0985(2) 0.3248(2) 0.94787(15)
H12_7 H 0.1030 0.3670 0.9659
C21_7 C 0.2854(3) 0.2379(4) 0.89264(19)
H13_7 H 0.2457 0.2074 0.8955
H14_7 H 0.3205 0.2201 0.9164
C22_7 C 0.2654(3) 0.3097(4) 0.9102(2)
H15_7 H 0.2616 0.3096 0.9486
H16_7 H 0.3022 0.3416 0.9009
C23_7 C 0.1995(2) 0.3378(3) 0.88759(19)
H17_7 H 0.1999 0.3316 0.8494
H18_7 H 0.1968 0.3877 0.8948
C24_7 C 0.6034(3) 0.2330(3) 0.7664(2)
H19_7 H 0.6137 0.2608 0.7372
C25_7 C 0.5501(2) 0.1694(2) 0.81905(17)
H20_7 H 0.5161 0.1431 0.8356
C26_7 C 0.8309(2) 0.3247(3) 0.98392(18)
C27_7 C 0.8611(2) 0.2314(2) 0.94519(17)
H22_7 H 0.8853 0.1925 0.9333
C28_7 C 0.6433(2) 0.1458(3) 0.88460(19)
H23_7 H 0.6074 0.1259 0.9066
H24_7 H 0.6730 0.1077 0.8735
C29_7 C 0.6840(2) 0.1957(3) 0.91698(18)
H25_7 H 0.6575 0.2383 0.9217
H26_7 H 0.6917 0.1755 0.9518
C30_7 C 0.7536(2) 0.2145(3) 0.89225(18)
H27_7 H 0.7465 0.2450 0.8619
H28_7 H 0.7761 0.1722 0.8799
O9_4 O 0.52333(19) 0.84979(17) 0.50931(13)
O10_4 O 0.51028(18) 0.77766(15) 0.57761(12)
N13_4 N 0.44926(17) 0.72250(16) 0.45739(13)
N14_4 N 0.61628(17) 0.72141(17) 0.47921(13)
C10_7 C 0.5120(2) 0.8387(2) 0.55741(17)
C12_7 C 0.4740(3) 0.9510(2) 0.67853(18)
H5_7 H 0.4662 0.9453 0.7147
C13_7 C 0.4864(3) 0.8921(2) 0.64719(18)
H6_7 H 0.4863 0.8477 0.6623
C14_7 C 0.4989(2) 0.9001(2) 0.59352(16)
C15_7 C 0.4989(3) 0.9668(2) 0.57258(18)
H7_7 H 0.5083 0.9730 0.5367
Zn2_8 Zn 0.03958(2) 0.78678(2) 0.22281(2)
O1_8 O 0.00110(15) 0.37791(14) 0.03742(12)
O3_8 O 0.10527(19) 0.69259(18) 0.15407(13)
O4_8 O 0.00578(18) 0.69772(16) 0.19574(13)
O5_8 O 0.03731(17) 0.85982(14) 0.16923(12)
O6_8 O 0.0494(2) 0.92761(17) 0.23967(13)
N1_8 N 0.12218(17) 0.77403(18) 0.26988(13)
N2_8 N 0.2299(2) 0.7615(5) 0.2967(2)
N3_8 N 0.18878(19) 0.7648(2) 0.33828(14)
N5_8 N 0.3821(2) 0.7592(2) 0.39109(17)
N6_8 N 0.36104(17) 0.69627(18) 0.40936(13)
C2_8 C 0.0486(2) 0.6681(2) 0.16394(15)
C6_8 C 0.0242(2) 0.6012(2) 0.13862(14)
C7_8 C 0.0630(2) 0.5699(2) 0.09936(16)
H3_8 H 0.1041 0.5904 0.0886
C8_8 C 0.0414(2) 0.5081(2) 0.07578(16)
H4_8 H 0.0674 0.4882 0.0488
C9_8 C 0.0396(2) 0.9199(2) 0.19181(18)
C11_8 C 0.0268(2) 0.9831(2) 0.15734(17)
C16_8 C 0.0145(3) 0.9760(2) 0.10344(18)
H8_8 H 0.0154 0.9317 0.0881
C17_8 C 0.1876(3) 0.7676(5) 0.2570(2)
H9_8 H 0.2024 0.7674 0.2219
C18_8 C 0.1253(2) 0.7711(3) 0.32215(18)
H10_8 H 0.0873 0.7733 0.3445
C19_8 C 0.4348(3) 0.7727(3) 0.4212(2)
H11_8 H 0.4604 0.8135 0.4180
C20_8 C 0.4015(2) 0.6752(2) 0.44787(15)
H12_8 H 0.3970 0.6330 0.4659
C21_8 C 0.2146(3) 0.7621(4) 0.39264(19)
H13_8 H 0.2543 0.7926 0.3955
H14_8 H 0.1795 0.7799 0.4164
C22_8 C 0.2346(3) 0.6903(4) 0.4102(2)
H15_8 H 0.2384 0.6904 0.4486
H16_8 H 0.1978 0.6584 0.4009
C23_8 C 0.3005(2) 0.6622(3) 0.38759(19)
H17_8 H 0.3001 0.6684 0.3494
H18_8 H 0.3032 0.6123 0.3948
O7_4 O 0.97667(19) 0.15021(17) 0.00931(13)
O8_4 O 0.98972(18) 0.22234(15) 0.07761(12)
C10_8 C 0.9880(2) 0.1613(2) 0.05741(17)
H7_8 H 0.9917 0.0270 0.0367
O2_8 O 0.90472(18) 0.37999(17) 0.08376(14)
N7_8 N 0.95820(17) 0.79647(17) 0.27387(13)
N8_8 N 0.8522(2) 0.7809(3) 0.30378(18)
N9_8 N 0.88819(17) 0.8226(2) 0.33727(14)
N11_8 N 0.7223(2) 0.6914(2) 0.45531(16)
N12_8 N 0.70289(17) 0.7506(2) 0.43071(14)
C1_8 C 0.9593(2) 0.4069(2) 0.06973(15)
C3_8 C 0.9812(2) 0.47598(19) 0.09232(14)
C4_8 C 0.9428(2) 0.5075(2) 0.13210(17)
H1_8 H 0.9023 0.4866 0.1437
C5_8 C 0.9641(2) 0.5696(2) 0.15447(17)
H2_8 H 0.9375 0.5905 0.1807
C24_8 C 0.8966(3) 0.7670(3) 0.2664(2)
H19_8 H 0.8863 0.7392 0.2372
C25_8 C 0.9499(2) 0.8306(2) 0.31905(17)
H20_8 H 0.9839 0.8569 0.3356
C26_8 C 0.6691(2) 0.6753(3) 0.48392(18)
H21_8 H 0.6673 0.6359 0.5056
C27_8 C 0.6389(2) 0.7686(2) 0.44519(17)
H22_8 H 0.6147 0.8075 0.4333
C28_8 C 0.8567(2) 0.8542(3) 0.38460(19)
H23_8 H 0.8926 0.8741 0.4066
H24_8 H 0.8270 0.8923 0.3735
C29_8 C 0.8160(2) 0.8043(3) 0.41698(18)
H25_8 H 0.8425 0.7617 0.4217
H26_8 H 0.8083 0.8245 0.4518
C30_8 C 0.7464(2) 0.7855(3) 0.39225(18)
H27_8 H 0.7535 0.7550 0.3619
H28_8 H 0.7239 0.8278 0.3799
C12_8 C 0.0260(3) 0.0490(2) 0.17853(18)
H5_8 H 0.0338 0.0547 0.2147
C13_8 C 0.0136(3) 0.1079(2) 0.14719(18)
H6_8 H 0.0137 0.1523 0.1623
C14_8 C 0.0011(2) 0.0999(2) 0.09352(16)
C15_8 C 0.0011(3) 0.0332(2) 0.07258(18)
loop_
_geom_bond_atom_site_label_1
_geom_bond_atom_site_label_2
_geom_bond_site_symmetry_1
_geom_bond_site_symmetry_2
Zn2 O4 1_555 1_555
O3 C2 1_555 1_555
O4 C2 1_555 1_555
O5 Zn2 1_555 1_555
O6 C9 1_555 1_555
O7 C10 1_555 1_555
O8 C10 1_555 1_555
N1 Zn2 1_555 1_555
N2 N3 1_555 1_555
N3 C18 1_555 1_555
N4 C19 1_555 1_555
N5 N6 1_555 1_555
N6 C20 1_555 1_555
N7 Zn2 1_555 1_555
N8 N9 1_555 1_555
N9 C25 1_555 1_555
N10 C26 1_555 1_555
N11 N12 1_555 1_555
N12 C27 1_555 1_555
C2 C6 1_555 1_555
C5 C4 1_555 1_555
H2 C5 1_555 1_555
C6 C5 1_555 1_555
C7 C6 1_555 1_555
H3 C7 1_555 1_555
C9 O5 1_555 1_555
C10 C14 1_555 1_555
C11 C9 1_555 1_555
C12 C11 1_555 1_555
H5 C12 1_555 1_555
C13 C12 1_555 1_555
H6 C13 1_555 1_555
C14 C13 1_555 1_555
C15 C14 1_555 1_555
H7 C15 1_555 1_555
C16 C11 1_555 1_555
H8 C16 1_555 1_555
C17 N1 1_555 1_555
H9 C17 1_555 1_555
C18 N1 1_555 1_555
H10 C18 1_555 1_555
C19 N5 1_555 1_555
H11 C19 1_555 1_555
C20 N4 1_555 1_555
H12 C20 1_555 1_555
C21 N3 1_555 1_555
H13 C21 1_555 1_555
H14 C21 1_555 1_555
C22 C21 1_555 1_555
H15 C22 1_555 1_555
H16 C22 1_555 1_555
C23 N6 1_555 1_555
H17 C23 1_555 1_555
H18 C23 1_555 1_555
C24 N7 1_555 1_555
H19 C24 1_555 1_555
C25 N7 1_555 1_555
H20 C25 1_555 1_555
C26 N11 1_555 1_555
H21 C26 1_555 1_555
C27 N10 1_555 1_555
H22 C27 1_555 1_555
C28 N9 1_555 1_555
H23 C28 1_555 1_555
H24 C28 1_555 1_555
C29 C28 1_555 1_555
H25 C29 1_555 1_555
H26 C29 1_555 1_555
C30 N12 1_555 1_555
H27 C30 1_555 1_555
H28 C30 1_555 1_555
Zn3 O7 1_555 1_555
Zn5 N10 1_555 1_555
O8 Zn3 1_555 1_555
N2 C17 1_555 1_555
N8 C24 1_555 1_555
C7 C8 1_555 1_555
C15 C16 1_555 1_555
C22 C23 1_555 1_555
C29 C30 1_555 1_555
Zn3 O1 1_555 1_555
O1 C1 1_555 1_555
O2 C1 1_555 1_555
C1 C3 1_555 1_555
Zn2_2 O4_2 1_555 1_555
O3_2 C2_2 1_555 1_555
O4_2 C2_2 1_555 1_555
O5_2 Zn2_2 1_555 1_555
O6_2 C9_2 1_555 1_555
N1_2 Zn2_2 1_555 1_555
N2_2 N3_2 1_555 1_555
N3_2 C18_2 1_555 1_555
N13 C19_2 1_555 1_555
N5_2 N6_2 1_555 1_555
N6_2 C20_2 1_555 1_555
C2_2 C6_2 1_555 1_555
C7_2 C6_2 1_555 1_555
H3_2 C7_2 1_555 1_555
C9_2 O5_2 1_555 1_555
C11_2 C9_2 1_555 1_555
C12_2 C11_2 1_555 1_555
H5_2 C12_2 1_555 1_555
C13_2 C12_2 1_555 1_555
H6_2 C13_2 1_555 1_555
C14_2 C13_2 1_555 1_555
C15_2 C14_2 1_555 1_555
C16_2 C11_2 1_555 1_555
H8_2 C16_2 1_555 1_555
C17_2 N1_2 1_555 1_555
H9_2 C17_2 1_555 1_555
C18_2 N1_2 1_555 1_555
H10_2 C18_2 1_555 1_555
C19_2 N5_2 1_555 1_555
H11_2 C19_2 1_555 1_555
C20_2 N13 1_555 1_555
H12_2 C20_2 1_555 1_555
C21_2 N3_2 1_555 1_555
H13_2 C21_2 1_555 1_555
H14_2 C21_2 1_555 1_555
C22_2 C21_2 1_555 1_555
H15_2 C22_2 1_555 1_555
H16_2 C22_2 1_555 1_555
C23_2 N6_2 1_555 1_555
H17_2 C23_2 1_555 1_555
H18_2 C23_2 1_555 1_555
N2_2 C17_2 1_555 1_555
C7_2 C8_2 1_555 1_555
C15_2 C16_2 1_555 1_555
C22_2 C23_2 1_555 1_555
O2_2 C1_2 1_555 1_555
C1_2 C3_2 1_555 1_555
O9 Zn5 1_555 1_555
O10 Zn5 1_555 1_555
O9 C10_2 1_555 1_555
O10 C10_2 1_555 1_555
N8_2 N9_2 1_555 1_555
N9_2 C25_2 1_555 1_555
N14 C26_2 1_555 1_555
N11_2 N12_2 1_555 1_555
N12_2 C27_2 1_555 1_555
C5_2 C4_2 1_555 1_555
H2_2 C5_2 1_555 1_555
C24_2 N7_2 1_555 1_555
H19_2 C24_2 1_555 1_555
C25_2 N7_2 1_555 1_555
H20_2 C25_2 1_555 1_555
C26_2 N11_2 1_555 1_555
C27_2 N14 1_555 1_555
H22_2 C27_2 1_555 1_555
C28_2 N9_2 1_555 1_555
H23_2 C28_2 1_555 1_555
H24_2 C28_2 1_555 1_555
C29_2 C28_2 1_555 1_555
H25_2 C29_2 1_555 1_555
H26_2 C29_2 1_555 1_555
C30_2 N12_2 1_555 1_555
H27_2 C30_2 1_555 1_555
H28_2 C30_2 1_555 1_555
N8_2 C24_2 1_555 1_555
C29_2 C30_2 1_555 1_555
O7_2 C10_3 1_555 1_555
O8_2 C10_3 1_555 1_555
C10_3 C14_3 1_555 1_555
H5_3 C12_3 1_555 1_555
C13_3 C12_3 1_555 1_555
H6_3 C13_3 1_555 1_555
C14_3 C13_3 1_555 1_555
C15_3 C14_3 1_555 1_555
H7_3 C15_3 1_555 1_555
Zn3_2 O7_2 1_555 1_555
O8_2 Zn3_2 1_555 1_555
Zn3_2 O1_3 1_555 1_555
Zn2_3 O4_3 1_555 1_555
O1_3 C1_3 1_555 1_555
O2_3 C1_3 1_555 1_555
O3_3 C2_3 1_555 1_555
O4_3 C2_3 1_555 1_555
O5_3 Zn2_3 1_555 1_555
O6_3 C9_3 1_555 1_555
N1_3 Zn2_3 1_555 1_555
N2_3 N3_3 1_555 1_555
N3_3 C18_3 1_555 1_555
N4_2 C19_3 1_555 1_555
N5_3 N6_3 1_555 1_555
N6_3 C20_3 1_555 1_555
N7_3 Zn2_3 1_555 1_555
N8_3 N9_3 1_555 1_555
N9_3 C25_3 1_555 1_555
N10_2 C26_3 1_555 1_555
N11_3 N12_3 1_555 1_555
N12_3 C27_3 1_555 1_555
C1_3 C3_3 1_555 1_555
C2_3 C6_3 1_555 1_555
C3_3 C4_3 1_555 1_555
C4_3 H1_3 1_555 1_555
C5_3 C4_3 1_555 1_555
H2_3 C5_3 1_555 1_555
C6_3 C5_3 1_555 1_555
C7_3 C6_3 1_555 1_555
H3_3 C7_3 1_555 1_555
C8_3 C3_3 1_555 1_555
H4_3 C8_3 1_555 1_555
C9_3 O5_3 1_555 1_555
C11_3 C9_3 1_555 1_555
C16_3 C11_3 1_555 1_555
H8_3 C16_3 1_555 1_555
C17_3 N1_3 1_555 1_555
H9_3 C17_3 1_555 1_555
C18_3 N1_3 1_555 1_555
H10_3 C18_3 1_555 1_555
C19_3 N5_3 1_555 1_555
H11_3 C19_3 1_555 1_555
C20_3 N4_2 1_555 1_555
H12_3 C20_3 1_555 1_555
C21_3 N3_3 1_555 1_555
H13_3 C21_3 1_555 1_555
H14_3 C21_3 1_555 1_555
C22_3 C21_3 1_555 1_555
H15_3 C22_3 1_555 1_555
H16_3 C22_3 1_555 1_555
C23_3 N6_3 1_555 1_555
H17_3 C23_3 1_555 1_555
H18_3 C23_3 1_555 1_555
C24_3 N7_3 1_555 1_555
H19_3 C24_3 1_555 1_555
C25_3 N7_3 1_555 1_555
H20_3 C25_3 1_555 1_555
C26_3 N11_3 1_555 1_555
C27_3 N10_2 1_555 1_555
H22_3 C27_3 1_555 1_555
C28_3 N9_3 1_555 1_555
H23_3 C28_3 1_555 1_555
H24_3 C28_3 1_555 1_555
C29_3 C28_3 1_555 1_555
H25_3 C29_3 1_555 1_555
H26_3 C29_3 1_555 1_555
C30_3 N12_3 1_555 1_555
H27_3 C30_3 1_555 1_555
H28_3 C30_3 1_555 1_555
N13_2 Zn3_2 1_555 1_555
N14_2 Zn3_2 1_555 1_555
N2_3 C17_3 1_555 1_555
N8_3 C24_3 1_555 1_555
C7_3 C8_3 1_555 1_555
C22_3 C23_3 1_555 1_555
C29_3 C30_3 1_555 1_555
O2_4 C1_4 1_555 1_555
N8_4 N9_4 1_555 1_555
N9_4 C25_4 1_555 1_555
N14_2 C26_4 1_555 1_555
N11_4 N12_4 1_555 1_555
N12_4 C27_4 1_555 1_555
C1_4 C3_4 1_555 1_555
C3_4 C4_4 1_555 1_555
C4_4 H1_4 1_555 1_555
C5_4 C4_4 1_555 1_555
H2_4 C5_4 1_555 1_555
C24_4 N7_4 1_555 1_555
H19_4 C24_4 1_555 1_555
C25_4 N7_4 1_555 1_555
H20_4 C25_4 1_555 1_555
C26_4 N11_4 1_555 1_555
H21_4 C26_4 1_555 1_555
C27_4 N14_2 1_555 1_555
H22_4 C27_4 1_555 1_555
C28_4 N9_4 1_555 1_555
H23_4 C28_4 1_555 1_555
H24_4 C28_4 1_555 1_555
C29_4 C28_4 1_555 1_555
H25_4 C29_4 1_555 1_555
H26_4 C29_4 1_555 1_555
C30_4 N12_4 1_555 1_555
H27_4 C30_4 1_555 1_555
H28_4 C30_4 1_555 1_555
O9_2 Zn4 1_555 1_555
O10_2 Zn4 1_555 1_555
N8_4 C24_4 1_555 1_555
C29_4 C30_4 1_555 1_555
O9_2 C10_4 1_555 1_555
O10_2 C10_4 1_555 1_555
Zn2_4 O4_4 1_555 1_555
O3_4 C2_4 1_555 1_555
O4_4 C2_4 1_555 1_555
O5_4 Zn2_4 1_555 1_555
O6_4 C9_4 1_555 1_555
N1_4 Zn2_4 1_555 1_555
N2_4 N3_4 1_555 1_555
N3_4 C18_4 1_555 1_555
N13_2 C19_4 1_555 1_555
N5_4 N6_4 1_555 1_555
N6_4 C20_4 1_555 1_555
C2_4 C6_4 1_555 1_555
C7_4 C6_4 1_555 1_555
H3_4 C7_4 1_555 1_555
H4_4 C8_4 1_555 1_555
C9_4 O5_4 1_555 1_555
C11_4 C9_4 1_555 1_555
C16_4 C11_4 1_555 1_555
H8_4 C16_4 1_555 1_555
C17_4 N1_4 1_555 1_555
H9_4 C17_4 1_555 1_555
C18_4 N1_4 1_555 1_555
H10_4 C18_4 1_555 1_555
C19_4 N5_4 1_555 1_555
H11_4 C19_4 1_555 1_555
C20_4 N13_2 1_555 1_555
H12_4 C20_4 1_555 1_555
C21_4 N3_4 1_555 1_555
H13_4 C21_4 1_555 1_555
H14_4 C21_4 1_555 1_555
C22_4 C21_4 1_555 1_555
H15_4 C22_4 1_555 1_555
H16_4 C22_4 1_555 1_555
C23_4 N6_4 1_555 1_555
H17_4 C23_4 1_555 1_555
H18_4 C23_4 1_555 1_555
N2_4 C17_4 1_555 1_555
C7_4 C8_4 1_555 1_555
C22_4 C23_4 1_555 1_555
H5_4 C12_4 1_555 1_555
C13_4 C12_4 1_555 1_555
H6_4 C13_4 1_555 1_555
C14_4 C13_4 1_555 1_555
C15_4 C14_4 1_555 1_555
Zn1 O1_5 1_555 1_555
O1_5 C1_5 1_555 1_555
O2_5 C1_5 1_555 1_555
C1_5 C3_5 1_555 1_555
O9_3 Zn1 1_555 1_555
O10_3 Zn1 1_555 1_555
Zn2_5 O4_5 1_555 1_555
O3_5 C2_5 1_555 1_555
O4_5 C2_5 1_555 1_555
O5_5 Zn2_5 1_555 1_555
O6_5 C9_5 1_555 1_555
O9_3 C10_5 1_555 1_555
O10_3 C10_5 1_555 1_555
N1_5 Zn2_5 1_555 1_555
N2_5 N3_5 1_555 1_555
N3_5 C18_5 1_555 1_555
N4_3 C19_5 1_555 1_555
N5_5 N6_5 1_555 1_555
N6_5 C20_5 1_555 1_555
N7_5 Zn2_5 1_555 1_555
N8_5 N9_5 1_555 1_555
N9_5 C25_5 1_555 1_555
N10_3 C26_5 1_555 1_555
N11_5 N12_5 1_555 1_555
N12_5 C27_5 1_555 1_555
C2_5 C6_5 1_555 1_555
C5_5 C4_5 1_555 1_555
H2_5 C5_5 1_555 1_555
C6_5 C5_5 1_555 1_555
C7_5 C6_5 1_555 1_555
H3_5 C7_5 1_555 1_555
C9_5 O5_5 1_555 1_555
C10_5 C14_5 1_555 1_555
C11_5 C9_5 1_555 1_555
C12_5 C11_5 1_555 1_555
H5_5 C12_5 1_555 1_555
C13_5 C12_5 1_555 1_555
H6_5 C13_5 1_555 1_555
C14_5 C13_5 1_555 1_555
C15_5 C14_5 1_555 1_555
H7_5 C15_5 1_555 1_555
C16_5 C11_5 1_555 1_555
H8_5 C16_5 1_555 1_555
C17_5 N1_5 1_555 1_555
H9_5 C17_5 1_555 1_555
C18_5 N1_5 1_555 1_555
H10_5 C18_5 1_555 1_555
C19_5 N5_5 1_555 1_555
H11_5 C19_5 1_555 1_555
C20_5 N4_3 1_555 1_555
H12_5 C20_5 1_555 1_555
C21_5 N3_5 1_555 1_555
H13_5 C21_5 1_555 1_555
H14_5 C21_5 1_555 1_555
C22_5 C21_5 1_555 1_555
H15_5 C22_5 1_555 1_555
H16_5 C22_5 1_555 1_555
C23_5 N6_5 1_555 1_555
H17_5 C23_5 1_555 1_555
H18_5 C23_5 1_555 1_555
C24_5 N7_5 1_555 1_555
H19_5 C24_5 1_555 1_555
C25_5 N7_5 1_555 1_555
H20_5 C25_5 1_555 1_555
C26_5 N11_5 1_555 1_555
H21_5 C26_5 1_555 1_555
C27_5 N10_3 1_555 1_555
H22_5 C27_5 1_555 1_555
C28_5 N9_5 1_555 1_555
H23_5 C28_5 1_555 1_555
H24_5 C28_5 1_555 1_555
C29_5 C28_5 1_555 1_555
H25_5 C29_5 1_555 1_555
H26_5 C29_5 1_555 1_555
C30_5 N12_5 1_555 1_555
H27_5 C30_5 1_555 1_555
H28_5 C30_5 1_555 1_555
Zn4_2 N10_3 1_555 1_555
N2_5 C17_5 1_555 1_555
N8_5 C24_5 1_555 1_555
C7_5 C8_5 1_555 1_555
C15_5 C16_5 1_555 1_555
C22_5 C23_5 1_555 1_555
C29_5 C30_5 1_555 1_555
O7_3 C10_6 1_555 1_555
O8_3 C10_6 1_555 1_555
N8_6 N9_6 1_555 1_555
N9_6 C25_6 1_555 1_555
N14_3 C26_6 1_555 1_555
N11_6 N12_6 1_555 1_555
N12_6 C27_6 1_555 1_555
C5_6 C4_6 1_555 1_555
H2_6 C5_6 1_555 1_555
C24_6 N7_6 1_555 1_555
H19_6 C24_6 1_555 1_555
C25_6 N7_6 1_555 1_555
H20_6 C25_6 1_555 1_555
C26_6 N11_6 1_555 1_555
C27_6 N14_3 1_555 1_555
H22_6 C27_6 1_555 1_555
C28_6 N9_6 1_555 1_555
H23_6 C28_6 1_555 1_555
H24_6 C28_6 1_555 1_555
C29_6 C28_6 1_555 1_555
H25_6 C29_6 1_555 1_555
H26_6 C29_6 1_555 1_555
C30_6 N12_6 1_555 1_555
H27_6 C30_6 1_555 1_555
H28_6 C30_6 1_555 1_555
Zn4_2 O7_3 1_555 1_555
O8_3 Zn4_2 1_555 1_555
N8_6 C24_6 1_555 1_555
C29_6 C30_6 1_555 1_555
O2_6 C1_6 1_555 1_555
C1_6 C3_6 1_555 1_555
Zn2_6 O4_6 1_555 1_555
O3_6 C2_6 1_555 1_555
O4_6 C2_6 1_555 1_555
O5_6 Zn2_6 1_555 1_555
O6_6 C9_6 1_555 1_555
N1_6 Zn2_6 1_555 1_555
N2_6 N3_6 1_555 1_555
N3_6 C18_6 1_555 1_555
N13_3 C19_6 1_555 1_555
N5_6 N6_6 1_555 1_555
N6_6 C20_6 1_555 1_555
C2_6 C6_6 1_555 1_555
C7_6 C6_6 1_555 1_555
H3_6 C7_6 1_555 1_555
C9_6 O5_6 1_555 1_555
C11_6 C9_6 1_555 1_555
C12_6 C11_6 1_555 1_555
H5_6 C12_6 1_555 1_555
C13_6 C12_6 1_555 1_555
H6_6 C13_6 1_555 1_555
C14_6 C13_6 1_555 1_555
C15_6 C14_6 1_555 1_555
C16_6 C11_6 1_555 1_555
H8_6 C16_6 1_555 1_555
C17_6 N1_6 1_555 1_555
H9_6 C17_6 1_555 1_555
C18_6 N1_6 1_555 1_555
H10_6 C18_6 1_555 1_555
C19_6 N5_6 1_555 1_555
H11_6 C19_6 1_555 1_555
C20_6 N13_3 1_555 1_555
H12_6 C20_6 1_555 1_555
C21_6 N3_6 1_555 1_555
H13_6 C21_6 1_555 1_555
H14_6 C21_6 1_555 1_555
C22_6 C21_6 1_555 1_555
H15_6 C22_6 1_555 1_555
H16_6 C22_6 1_555 1_555
C23_6 N6_6 1_555 1_555
H17_6 C23_6 1_555 1_555
H18_6 C23_6 1_555 1_555
N2_6 C17_6 1_555 1_555
C7_6 C8_6 1_555 1_555
C15_6 C16_6 1_555 1_555
C22_6 C23_6 1_555 1_555
Zn1_2 O1_7 1_555 1_555
Zn2_7 O4_7 1_555 1_555
O1_7 C1_7 1_555 1_555
O2_7 C1_7 1_555 1_555
O3_7 C2_7 1_555 1_555
O4_7 C2_7 1_555 1_555
O5_7 Zn2_7 1_555 1_555
O6_7 C9_7 1_555 1_555
N1_7 Zn2_7 1_555 1_555
N2_7 N3_7 1_555 1_555
N3_7 C18_7 1_555 1_555
N4_4 C19_7 1_555 1_555
N5_7 N6_7 1_555 1_555
N6_7 C20_7 1_555 1_555
N7_7 Zn2_7 1_555 1_555
N8_7 N9_7 1_555 1_555
N9_7 C25_7 1_555 1_555
N10_4 C26_7 1_555 1_555
N11_7 N12_7 1_555 1_555
N12_7 C27_7 1_555 1_555
C1_7 C3_7 1_555 1_555
C2_7 C6_7 1_555 1_555
C3_7 C4_7 1_555 1_555
C4_7 H1_7 1_555 1_555
C5_7 C4_7 1_555 1_555
H2_7 C5_7 1_555 1_555
C6_7 C5_7 1_555 1_555
C7_7 C6_7 1_555 1_555
H3_7 C7_7 1_555 1_555
C8_7 C3_7 1_555 1_555
H4_7 C8_7 1_555 1_555
C9_7 O5_7 1_555 1_555
C11_7 C9_7 1_555 1_555
C16_7 C11_7 1_555 1_555
H8_7 C16_7 1_555 1_555
C17_7 N1_7 1_555 1_555
H9_7 C17_7 1_555 1_555
C18_7 N1_7 1_555 1_555
H10_7 C18_7 1_555 1_555
C19_7 N5_7 1_555 1_555
H11_7 C19_7 1_555 1_555
C20_7 N4_4 1_555 1_555
H12_7 C20_7 1_555 1_555
C21_7 N3_7 1_555 1_555
H13_7 C21_7 1_555 1_555
H14_7 C21_7 1_555 1_555
C22_7 C21_7 1_555 1_555
H15_7 C22_7 1_555 1_555
H16_7 C22_7 1_555 1_555
C23_7 N6_7 1_555 1_555
H17_7 C23_7 1_555 1_555
H18_7 C23_7 1_555 1_555
C24_7 N7_7 1_555 1_555
H19_7 C24_7 1_555 1_555
C25_7 N7_7 1_555 1_555
H20_7 C25_7 1_555 1_555
C26_7 N11_7 1_555 1_555
C27_7 N10_4 1_555 1_555
H22_7 C27_7 1_555 1_555
C28_7 N9_7 1_555 1_555
H23_7 C28_7 1_555 1_555
H24_7 C28_7 1_555 1_555
C29_7 C28_7 1_555 1_555
H25_7 C29_7 1_555 1_555
H26_7 C29_7 1_555 1_555
C30_7 N12_7 1_555 1_555
H27_7 C30_7 1_555 1_555
H28_7 C30_7 1_555 1_555
O9_4 Zn1_2 1_555 1_555
O10_4 Zn1_2 1_555 1_555
N13_4 Zn1_2 1_555 1_555
N14_4 Zn1_2 1_555 1_555
N2_7 C17_7 1_555 1_555
N8_7 C24_7 1_555 1_555
C7_7 C8_7 1_555 1_555
C22_7 C23_7 1_555 1_555
C29_7 C30_7 1_555 1_555
O9_4 C10_7 1_555 1_555
O10_4 C10_7 1_555 1_555
C10_7 C14_7 1_555 1_555
H5_7 C12_7 1_555 1_555
C13_7 C12_7 1_555 1_555
H6_7 C13_7 1_555 1_555
C14_7 C13_7 1_555 1_555
C15_7 C14_7 1_555 1_555
H7_7 C15_7 1_555 1_555
Zn2_8 O4_8 1_555 1_555
O3_8 C2_8 1_555 1_555
O4_8 C2_8 1_555 1_555
O5_8 Zn2_8 1_555 1_555
O6_8 C9_8 1_555 1_555
N1_8 Zn2_8 1_555 1_555
N2_8 N3_8 1_555 1_555
N3_8 C18_8 1_555 1_555
N13_4 C19_8 1_555 1_555
N5_8 N6_8 1_555 1_555
N6_8 C20_8 1_555 1_555
C2_8 C6_8 1_555 1_555
C7_8 C6_8 1_555 1_555
H3_8 C7_8 1_555 1_555
H4_8 C8_8 1_555 1_555
C9_8 O5_8 1_555 1_555
C11_8 C9_8 1_555 1_555
C16_8 C11_8 1_555 1_555
H8_8 C16_8 1_555 1_555
C17_8 N1_8 1_555 1_555
H9_8 C17_8 1_555 1_555
C18_8 N1_8 1_555 1_555
H10_8 C18_8 1_555 1_555
C19_8 N5_8 1_555 1_555
H11_8 C19_8 1_555 1_555
C20_8 N13_4 1_555 1_555
H12_8 C20_8 1_555 1_555
C21_8 N3_8 1_555 1_555
H13_8 C21_8 1_555 1_555
H14_8 C21_8 1_555 1_555
C22_8 C21_8 1_555 1_555
H15_8 C22_8 1_555 1_555
H16_8 C22_8 1_555 1_555
C23_8 N6_8 1_555 1_555
H17_8 C23_8 1_555 1_555
H18_8 C23_8 1_555 1_555
N2_8 C17_8 1_555 1_555
C7_8 C8_8 1_555 1_555
C22_8 C23_8 1_555 1_555
O7_4 C10_8 1_555 1_555
O8_4 C10_8 1_555 1_555
Zn5_2 O7_4 1_555 1_555
O8_4 Zn5_2 1_555 1_555
O2_8 C1_8 1_555 1_555
N8_8 N9_8 1_555 1_555
N9_8 C25_8 1_555 1_555
N14_4 C26_8 1_555 1_555
N11_8 N12_8 1_555 1_555
N12_8 C27_8 1_555 1_555
C1_8 C3_8 1_555 1_555
C3_8 C4_8 1_555 1_555
C4_8 H1_8 1_555 1_555
C5_8 C4_8 1_555 1_555
H2_8 C5_8 1_555 1_555
C24_8 N7_8 1_555 1_555
H19_8 C24_8 1_555 1_555
C25_8 N7_8 1_555 1_555
H20_8 C25_8 1_555 1_555
C26_8 N11_8 1_555 1_555
H21_8 C26_8 1_555 1_555
C27_8 N14_4 1_555 1_555
H22_8 C27_8 1_555 1_555
C28_8 N9_8 1_555 1_555
H23_8 C28_8 1_555 1_555
H24_8 C28_8 1_555 1_555
C29_8 C28_8 1_555 1_555
H25_8 C29_8 1_555 1_555
H26_8 C29_8 1_555 1_555
C30_8 N12_8 1_555 1_555
H27_8 C30_8 1_555 1_555
H28_8 C30_8 1_555 1_555
N8_8 C24_8 1_555 1_555
C29_8 C30_8 1_555 1_555
H5_8 C12_8 1_555 1_555
C13_8 C12_8 1_555 1_555
H6_8 C13_8 1_555 1_555
C14_8 C13_8 1_555 1_555
C15_8 C14_8 1_555 1_555

#END
