
###############################################################################
#
# This file contains modified crystal structure data generated from the
# MOF subset of the Cambridge Structural Database (CSD) v543 
# hosted by the Cambridge Crystallographic Data Centre (CCDC).
#
# This work is licensed under the Creative Commons
# Attribution-NonCommercial-ShareAlike 4.0 International License.
# To view a copy of this license, visit
# http://creativecommons.org/licenses/by-nc-sa/4.0/
# or send a letter to
# Creative Commons, PO Box 1866, Mountain View, CA 94042, USA.
#
# CIF created using the CSD Python API on 29 September 2022
# The structure has been converted into the P1 space group
# The structure has a 3D framework
# The original CSD entry DEFKUU is in the monoclinic crystal system
# The framework has been calculated to contain at least 10.0% void space
# The void calculation uses a probe of radius 1.32A, grid spacing 0.4
#
###############################################################################

data_DEFKUU
_chemical_formula_moiety         '(C12 H24 Cu11 O21 P4)n'
_symmetry_cell_setting           triclinic
_symmetry_space_group_name_H-M   'P 1'
_symmetry_Int_Tables_number      1
_space_group_name_Hall           'P 1'
loop_
_symmetry_equiv_pos_site_id
_symmetry_equiv_pos_as_xyz
1 x,y,z
_cell_length_a                   5.022(5)
_cell_length_b                   12.340(5)
_cell_length_c                   16.390(8)
_cell_angle_alpha                90
_cell_angle_beta                 109.7(1)
_cell_angle_gamma                90
_cell_volume                     956.263
loop_
_atom_site_label
_atom_site_type_symbol
_atom_site_fract_x
_atom_site_fract_y
_atom_site_fract_z
O4 O 0.1082(5) 0.3193(2) 0.2815(1)
Cu3 Cu 0.4119(1) 0.3647(1) 0.3828(1)
Cu5 Cu 0.0000 0.0000 0.0000
O16 O 0.6843(5) 0.4023(2) 0.5008(1)
O17 O 0.3063(6) 0.5149(2) 0.3575(1)
O18 O 0.7947(6) 0.3626(3) 0.3441(1)
O19 O 0.4593(7) 0.2081(2) 0.4153(2)
H11 H 0.64(1) 0.190(6) 0.437(4)
H12 H 0.39(1) 0.164(6) 0.376(4)
Cu5_2 Cu 0.0000 0.0000 1.0000
Cu5_3 Cu 0.0000 1.0000 0.0000
Cu5_4 Cu 0.0000 1.0000 1.0000
P1 P 0.5791(1) 0.1077(1) 0.0799(1)
O1 O 0.2565(5) 0.1171(2) 0.0465(1)
O3 O 0.6937(6) 0.0149(2) 0.1425(1)
C1 C 0.7204(8) 0.2300(3) 0.1359(2)
C2 C 0.6482(9) 0.2484(3) 0.2178(2)
C3 C 0.8597(7) 0.3165(3) 0.2859(2)
H1 H 0.66(1) 0.294(5) 0.097(4)
H2 H 0.91(1) 0.223(5) 0.152(4)
H3 H 0.47(1) 0.282(5) 0.209(4)
H4 H 0.64(1) 0.179(5) 0.246(4)
O9 O 0.6843(5) 0.0977(2) 0.0008(1)
Cu5_5 Cu 1.0000 0.0000 0.0000
Cu5_6 Cu 1.0000 0.0000 1.0000
Cu6 Cu 0.4119(1) 0.1353(1) 0.8828(1)
Cu2 Cu 0.5881(1) 0.8647(1) 0.1172(1)
O6 O 0.5407(7) 0.7081(2) 0.0847(2)
H5 H 0.36(1) 0.690(6) 0.063(4)
H6 H 0.61(1) 0.664(6) 0.124(4)
O10 O 0.8918(5) 0.8193(2) 0.2185(1)
O11 O 0.2053(6) 0.8626(3) 0.1559(1)
Cu5_7 Cu 1.0000 1.0000 0.0000
O2 O 0.3157(5) 0.9023(2) 0.9992(1)
P2 P 0.4209(1) 0.8923(1) 0.9201(1)
O12 O 0.7435(5) 0.8829(2) 0.9535(1)
O13 O 0.3063(6) 0.9851(2) 0.8575(1)
C4 C 0.2796(8) 0.7700(3) 0.8641(2)
Cu5_8 Cu 1.0000 1.0000 1.0000
C5 C 0.3518(9) 0.7516(3) 0.7822(2)
H7 H 0.34(1) 0.706(5) 0.903(4)
H8 H 0.09(1) 0.777(5) 0.848(4)
C6 C 0.1403(7) 0.6835(3) 0.7141(2)
H9 H 0.53(1) 0.718(5) 0.791(4)
H10 H 0.36(1) 0.821(5) 0.754(4)
O15 O 0.2053(6) 0.6374(3) 0.6559(1)
Cu8 Cu 0.5881(1) 0.6353(1) 0.6172(1)
O14 O 0.8918(5) 0.6807(2) 0.7185(1)
Cu1 Cu 0.0000 0.5000 0.5000
O7 O 0.2565(5) 0.3829(2) 0.5465(1)
O8 O 0.3157(5) 0.5977(2) 0.4992(1)
O14_2 O 0.1082(5) 0.1807(2) 0.7815(1)
Cu1_2 Cu 1.0000 0.5000 0.5000
P1_2 P 0.4209(1) 0.6077(1) 0.4201(1)
O1_2 O 0.7435(5) 0.6171(2) 0.4535(1)
C1_2 C 0.2796(8) 0.7300(3) 0.3641(2)
C2_2 C 0.3518(9) 0.7484(3) 0.2822(2)
C3_2 C 0.1403(7) 0.8165(3) 0.2141(2)
H1_2 H 0.34(1) 0.794(5) 0.403(4)
H2_2 H 0.09(1) 0.723(5) 0.348(4)
H3_2 H 0.53(1) 0.782(5) 0.291(4)
H4_2 H 0.36(1) 0.679(5) 0.254(4)
P2_2 P 0.5791(1) 0.3923(1) 0.5799(1)
O13_2 O 0.6937(6) 0.4851(2) 0.6425(1)
C4_2 C 0.7204(8) 0.2700(3) 0.6359(2)
C5_2 C 0.6482(9) 0.2516(3) 0.7178(2)
H7_2 H 0.66(1) 0.206(5) 0.597(4)
H8_2 H 0.91(1) 0.277(5) 0.652(4)
C6_2 C 0.8597(7) 0.1835(3) 0.7859(2)
H9_2 H 0.47(1) 0.218(5) 0.709(4)
H10_2 H 0.64(1) 0.321(5) 0.746(4)
O15_2 O 0.7947(6) 0.1374(3) 0.8441(1)
O6_2 O 0.4593(7) 0.2919(2) 0.9153(2)
H5_2 H 0.64(1) 0.310(6) 0.937(4)
H6_2 H 0.39(1) 0.336(6) 0.876(4)
O19_2 O 0.5407(7) 0.7919(2) 0.5847(2)
H11_2 H 0.36(1) 0.810(6) 0.563(4)
H12_2 H 0.61(1) 0.836(6) 0.624(4)
loop_
_geom_bond_atom_site_label_1
_geom_bond_atom_site_label_2
_geom_bond_site_symmetry_1
_geom_bond_site_symmetry_2
Cu3 O4 1_555 1_555
O16 Cu3 1_555 1_555
O17 Cu3 1_555 1_555
O18 Cu3 1_555 1_555
O19 Cu3 1_555 1_555
H11 O19 1_555 1_555
H12 O19 1_555 1_555
Cu5 O1 1_555 1_555
P1 O1 1_555 1_555
C1 P1 1_555 1_555
C2 C1 1_555 1_555
C3 C2 1_555 1_555
O18 C3 1_555 1_555
H1 C1 1_555 1_555
H2 C1 1_555 1_555
H3 C2 1_555 1_555
H4 C2 1_555 1_555
O9 P1 1_555 1_555
Cu5_5 O9 1_555 1_555
P1 O3 1_555 1_555
O6 Cu2 1_555 1_555
H5 O6 1_555 1_555
H6 O6 1_555 1_555
O10 Cu2 1_555 1_555
O11 Cu2 1_555 1_555
O2 Cu5_4 1_555 1_555
P2 O2 1_555 1_555
O12 P2 1_555 1_555
O13 P2 1_555 1_555
C4 P2 1_555 1_555
C5 C4 1_555 1_555
H7 C4 1_555 1_555
H8 C4 1_555 1_555
C6 C5 1_555 1_555
H9 C5 1_555 1_555
H10 C5 1_555 1_555
O15 C6 1_555 1_555
Cu8 O15 1_555 1_555
O12 Cu5_8 1_555 1_555
Cu8 O14 1_555 1_555
O7 Cu1 1_555 1_555
O8 Cu1 1_555 1_555
Cu6 O14_2 1_555 1_555
Cu1_2 O1_2 1_555 1_555
P1_2 O1_2 1_555 1_555
O16 Cu1_2 1_555 1_555
C1_2 P1_2 1_555 1_555
C2_2 C1_2 1_555 1_555
C3_2 C2_2 1_555 1_555
O11 C3_2 1_555 1_555
H1_2 C1_2 1_555 1_555
H2_2 C1_2 1_555 1_555
H3_2 C2_2 1_555 1_555
H4_2 C2_2 1_555 1_555
O8 P1_2 1_555 1_555
P2_2 O16 1_555 1_555
O7 P2_2 1_555 1_555
O13_2 P2_2 1_555 1_555
C4_2 P2_2 1_555 1_555
Cu8 O8 1_555 1_555
C5_2 C4_2 1_555 1_555
H7_2 C4_2 1_555 1_555
H8_2 C4_2 1_555 1_555
C6_2 C5_2 1_555 1_555
H9_2 C5_2 1_555 1_555
H10_2 C5_2 1_555 1_555
O15_2 C6_2 1_555 1_555
Cu6 O15_2 1_555 1_555
P1_2 O17 1_555 1_555
O13_2 Cu8 1_555 1_555
O6_2 Cu6 1_555 1_555
H5_2 O6_2 1_555 1_555
H6_2 O6_2 1_555 1_555
O19_2 Cu8 1_555 1_555
H11_2 O19_2 1_555 1_555
H12_2 O19_2 1_555 1_555

#END
