
###############################################################################
#
# This file contains modified crystal structure data generated from the
# MOF subset of the Cambridge Structural Database (CSD) v543 
# hosted by the Cambridge Crystallographic Data Centre (CCDC).
#
# This work is licensed under the Creative Commons
# Attribution-NonCommercial-ShareAlike 4.0 International License.
# To view a copy of this license, visit
# http://creativecommons.org/licenses/by-nc-sa/4.0/
# or send a letter to
# Creative Commons, PO Box 1866, Mountain View, CA 94042, USA.
#
# CIF created using the CSD Python API on 29 September 2022
# The structure has been converted into the P1 space group
# The structure has a 3D framework
# The original CSD entry DEFPOX is in the cubic crystal system
# The framework has been calculated to contain at least 10.0% void space
# The void calculation uses a probe of radius 1.32A, grid spacing 0.4
# H atom positions have been added when not included in the experimental data
# Generated hydrogen atom positions removed from atoms on special positions
#
###############################################################################

data_DEFPOX
_chemical_formula_moiety         '(C180 H156 Cu21 N20 O60)n'
_symmetry_cell_setting           triclinic
_symmetry_space_group_name_H-M   'P 1'
_symmetry_Int_Tables_number      1
_space_group_name_Hall           'P 1'
loop_
_symmetry_equiv_pos_site_id
_symmetry_equiv_pos_as_xyz
1 x,y,z
_cell_length_a                   22.9885(10)
_cell_length_b                   22.9885(10)
_cell_length_c                   22.9885(10)
_cell_angle_alpha                90
_cell_angle_beta                 90
_cell_angle_gamma                90
_cell_volume                     12148.8
loop_
_atom_site_label
_atom_site_type_symbol
_atom_site_fract_x
_atom_site_fract_y
_atom_site_fract_z
Cu14 Cu 0.0000 0.5000 0.65579(3)
Cu25 Cu 0.0000 0.5000 0.77085(4)
Cu9 Cu 0.34421(3) 0.0000 0.5000
Cu10 Cu 0.22915(4) 0.0000 0.5000
O23 O 0.13346(19) 0.0000 0.5000
O57 O 0.33557(9) 0.06029(9) 0.44071(9)
O63 O 0.33557(9) 0.06029(9) 0.55929(9)
O68 O 0.23634(10) 0.05882(12) 0.44062(12)
O74 O 0.23634(10) 0.05882(12) 0.55938(12)
N15 N 0.44436(18) 0.0000 0.5000
Cu19 Cu 0.5000 0.34421(3) 0.0000
Cu23 Cu 0.5000 0.65579(3) 0.0000
Cu29 Cu 0.5000 0.22915(4) 0.0000
Cu33 Cu 0.5000 0.77085(4) 0.0000
Cu1 Cu 0.0000 0.5000 0.34421(3)
Cu2 Cu 0.0000 0.5000 0.22915(4)
O1 O 0.06029(9) 0.44071(9) 0.33557(9)
O2 O 0.05882(12) 0.44062(12) 0.23634(10)
N1 N 0.0000 0.5000 0.44436(18)
O3 O 0.0000 0.5000 0.13346(19)
N2 N 0.2757(4) 0.2757(4) 0.2757(4)
C1 C 0.1976(3) 0.3268(3) 0.2281(2)
H1 H 0.2126 0.3157 0.1912
C2 C 0.2073(2) 0.3342(3) 0.3320(2)
H2 H 0.2307 0.3291 0.3657
C3 C 0.07858(15) 0.42315(13) 0.28648(12)
C4 C 0.1555(2) 0.3651(2) 0.33483(17)
H3 H 0.1393 0.3751 0.3715
C5 C 0.12724(19) 0.3815(2) 0.28383(15)
C6 C 0.1476(2) 0.3607(2) 0.23025(19)
H4 H 0.1273 0.3698 0.1955
C7 C 0.2250(2) 0.3095(2) 0.2758(2)
C9 C 0.2281(2) 0.1976(3) 0.3268(3)
H6 H 0.1912 0.2126 0.3157
C10 C 0.3320(2) 0.2073(2) 0.3342(3)
H7 H 0.3657 0.2307 0.3291
C11 C 0.28648(12) 0.07858(15) 0.42315(13)
C12 C 0.33483(17) 0.1555(2) 0.3651(2)
H8 H 0.3715 0.1393 0.3751
C13 C 0.28383(15) 0.12724(19) 0.3815(2)
C14 C 0.23025(19) 0.1476(2) 0.3607(2)
H9 H 0.1955 0.1273 0.3698
C15 C 0.2758(2) 0.2250(2) 0.3095(2)
O6 O 0.44071(9) 0.33557(9) 0.06029(9)
O7 O 0.44062(12) 0.23634(10) 0.05882(12)
C16 C 0.3268(3) 0.2281(2) 0.1976(3)
H10 H 0.3157 0.1912 0.2126
C17 C 0.3342(3) 0.3320(2) 0.2073(2)
H11 H 0.3291 0.3657 0.2307
C18 C 0.42315(13) 0.28648(12) 0.07858(15)
C19 C 0.3651(2) 0.33483(17) 0.1555(2)
H12 H 0.3751 0.3715 0.1393
C20 C 0.3815(2) 0.28383(15) 0.12724(19)
C21 C 0.3607(2) 0.23025(19) 0.1476(2)
H13 H 0.3698 0.1955 0.1273
C22 C 0.3095(2) 0.2758(2) 0.2250(2)
C23 C 0.0468(5) 0.5000 0.4704(5)
H14 H 0.0824 0.5000 0.4495
N3 N 0.0000 0.5000 0.55564(18)
C25 C 0.0468(5) 0.5000 0.5296(5)
H16 H 0.0824 0.5000 0.5505
O8 O 0.06029(9) 0.55929(9) 0.66443(9)
O9 O 0.05882(12) 0.55938(12) 0.76366(10)
O10 O 0.0000 0.5000 0.86654(19)
N4 N 0.2757(4) 0.7243(4) 0.7243(4)
C26 C 0.1976(3) 0.6732(3) 0.7719(2)
H17 H 0.2126 0.6843 0.8088
C27 C 0.2073(2) 0.6658(3) 0.6680(2)
H18 H 0.2307 0.6709 0.6343
C28 C 0.07858(15) 0.57685(13) 0.71352(12)
C29 C 0.1555(2) 0.6349(2) 0.66517(17)
H19 H 0.1393 0.6249 0.6285
C30 C 0.12724(19) 0.6185(2) 0.71617(15)
C31 C 0.1476(2) 0.6393(2) 0.76975(19)
H20 H 0.1273 0.6302 0.8045
C32 C 0.2250(2) 0.6905(2) 0.7242(2)
O11 O 0.33557(9) 0.93971(9) 0.55929(9)
O12 O 0.23634(10) 0.94118(12) 0.55938(12)
C33 C 0.2281(2) 0.8024(3) 0.6732(3)
H21 H 0.1912 0.7874 0.6843
C34 C 0.3320(2) 0.7927(2) 0.6658(3)
H22 H 0.3657 0.7693 0.6709
C35 C 0.28648(12) 0.92142(15) 0.57685(13)
C36 C 0.33483(17) 0.8445(2) 0.6349(2)
H23 H 0.3715 0.8607 0.6249
C37 C 0.28383(15) 0.87276(19) 0.6185(2)
C38 C 0.23025(19) 0.8524(2) 0.6393(2)
H24 H 0.1955 0.8727 0.6302
C39 C 0.2758(2) 0.7750(2) 0.6905(2)
O13 O 0.44071(9) 0.66443(9) 0.93971(9)
O14 O 0.44062(12) 0.76366(10) 0.94118(12)
C40 C 0.3268(3) 0.7719(2) 0.8024(3)
H25 H 0.3157 0.8088 0.7874
C41 C 0.3342(3) 0.6680(2) 0.7927(2)
H26 H 0.3291 0.6343 0.7693
C42 C 0.42315(13) 0.71352(12) 0.92142(15)
C43 C 0.3651(2) 0.66517(17) 0.8445(2)
H27 H 0.3751 0.6285 0.8607
C44 C 0.3815(2) 0.71617(15) 0.87276(19)
C45 C 0.3607(2) 0.76975(19) 0.8524(2)
H28 H 0.3698 0.8045 0.8727
C46 C 0.3095(2) 0.7242(2) 0.7750(2)
C48 C 0.4704(5) 0.0468(5) 0.5000
H30 H 0.4495 0.0824 0.5000
N6 N 0.55564(18) 0.0000 0.5000
C50 C 0.5296(5) 0.0468(5) 0.5000
H32 H 0.5505 0.0824 0.5000
Cu9_2 Cu 0.34421(3) 1.0000 0.5000
Cu10_2 Cu 0.22915(4) 1.0000 0.5000
O23_2 O 0.13346(19) 1.0000 0.5000
Cu11 Cu 0.65579(3) 0.0000 0.5000
Cu12 Cu 0.77085(4) 0.0000 0.5000
O24 O 0.66443(9) 0.06029(9) 0.55929(9)
O25 O 0.76366(10) 0.05882(12) 0.55938(12)
O26 O 0.86654(19) 0.0000 0.5000
N10 N 0.7243(4) 0.2757(4) 0.7243(4)
C76 C 0.7719(2) 0.1976(3) 0.6732(3)
H49 H 0.8088 0.2126 0.6843
C77 C 0.6680(2) 0.2073(2) 0.6658(3)
H50 H 0.6343 0.2307 0.6709
C78 C 0.71352(12) 0.07858(15) 0.57685(13)
C79 C 0.66517(17) 0.1555(2) 0.6349(2)
H51 H 0.6285 0.1393 0.6249
C80 C 0.71617(15) 0.12724(19) 0.6185(2)
C81 C 0.76975(19) 0.1476(2) 0.6393(2)
H52 H 0.8045 0.1273 0.6302
C82 C 0.7242(2) 0.2250(2) 0.6905(2)
O27 O 0.55929(9) 0.33557(9) 0.93971(9)
O28 O 0.55938(12) 0.23634(10) 0.94118(12)
C83 C 0.6732(3) 0.2281(2) 0.8024(3)
H53 H 0.6843 0.1912 0.7874
C84 C 0.6658(3) 0.3320(2) 0.7927(2)
H54 H 0.6709 0.3657 0.7693
C85 C 0.57685(13) 0.28648(12) 0.92142(15)
C86 C 0.6349(2) 0.33483(17) 0.8445(2)
H55 H 0.6249 0.3715 0.8607
C87 C 0.6185(2) 0.28383(15) 0.87276(19)
C88 C 0.6393(2) 0.23025(19) 0.8524(2)
H56 H 0.6302 0.1955 0.8727
C89 C 0.6905(2) 0.2758(2) 0.7750(2)
O29 O 0.93971(9) 0.44071(9) 0.66443(9)
O30 O 0.94118(12) 0.44062(12) 0.76366(10)
C90 C 0.8024(3) 0.3268(3) 0.7719(2)
H57 H 0.7874 0.3157 0.8088
C91 C 0.7927(2) 0.3342(3) 0.6680(2)
H58 H 0.7693 0.3291 0.6343
C92 C 0.92142(15) 0.42315(13) 0.71352(12)
C93 C 0.8445(2) 0.3651(2) 0.66517(17)
H59 H 0.8607 0.3751 0.6285
C94 C 0.87276(19) 0.3815(2) 0.71617(15)
C95 C 0.8524(2) 0.3607(2) 0.76975(19)
H60 H 0.8727 0.3698 0.8045
C96 C 0.7750(2) 0.3095(2) 0.7242(2)
O37 O 0.06029(9) 0.44071(9) 0.66443(9)
O38 O 0.05882(12) 0.44062(12) 0.76366(10)
N12 N 0.2757(4) 0.2757(4) 0.7243(4)
C118 C 0.1976(3) 0.3268(3) 0.7719(2)
H73 H 0.2126 0.3157 0.8088
C119 C 0.2073(2) 0.3342(3) 0.6680(2)
H74 H 0.2307 0.3291 0.6343
C120 C 0.07858(15) 0.42315(13) 0.71352(12)
C121 C 0.1555(2) 0.3651(2) 0.66517(17)
H75 H 0.1393 0.3751 0.6285
C122 C 0.12724(19) 0.3815(2) 0.71617(15)
C123 C 0.1476(2) 0.3607(2) 0.76975(19)
H76 H 0.1273 0.3698 0.8045
C124 C 0.2250(2) 0.3095(2) 0.7242(2)
C125 C 0.2281(2) 0.1976(3) 0.6732(3)
H77 H 0.1912 0.2126 0.6843
C126 C 0.3320(2) 0.2073(2) 0.6658(3)
H78 H 0.3657 0.2307 0.6709
C127 C 0.28648(12) 0.07858(15) 0.57685(13)
C128 C 0.33483(17) 0.1555(2) 0.6349(2)
H79 H 0.3715 0.1393 0.6249
C129 C 0.28383(15) 0.12724(19) 0.6185(2)
C130 C 0.23025(19) 0.1476(2) 0.6393(2)
H80 H 0.1955 0.1273 0.6302
C131 C 0.2758(2) 0.2250(2) 0.6905(2)
O41 O 0.44071(9) 0.33557(9) 0.93971(9)
O42 O 0.44062(12) 0.23634(10) 0.94118(12)
C132 C 0.3268(3) 0.2281(2) 0.8024(3)
H81 H 0.3157 0.1912 0.7874
C133 C 0.3342(3) 0.3320(2) 0.7927(2)
H82 H 0.3291 0.3657 0.7693
C134 C 0.42315(13) 0.28648(12) 0.92142(15)
C135 C 0.3651(2) 0.33483(17) 0.8445(2)
H83 H 0.3751 0.3715 0.8607
C136 C 0.3815(2) 0.28383(15) 0.87276(19)
C137 C 0.3607(2) 0.23025(19) 0.8524(2)
H84 H 0.3698 0.1955 0.8727
C138 C 0.3095(2) 0.2758(2) 0.7750(2)
O49 O 0.06029(9) 0.55929(9) 0.33557(9)
O50 O 0.05882(12) 0.55938(12) 0.23634(10)
N14 N 0.2757(4) 0.7243(4) 0.2757(4)
C160 C 0.1976(3) 0.6732(3) 0.2281(2)
H97 H 0.2126 0.6843 0.1912
C161 C 0.2073(2) 0.6658(3) 0.3320(2)
H98 H 0.2307 0.6709 0.3657
C162 C 0.07858(15) 0.57685(13) 0.28648(12)
C163 C 0.1555(2) 0.6349(2) 0.33483(17)
H99 H 0.1393 0.6249 0.3715
C164 C 0.12724(19) 0.6185(2) 0.28383(15)
C165 C 0.1476(2) 0.6393(2) 0.23025(19)
H100 H 0.1273 0.6302 0.1955
C166 C 0.2250(2) 0.6905(2) 0.2758(2)
O51 O 0.33557(9) 0.93971(9) 0.44071(9)
O52 O 0.23634(10) 0.94118(12) 0.44062(12)
C167 C 0.2281(2) 0.8024(3) 0.3268(3)
H101 H 0.1912 0.7874 0.3157
C168 C 0.3320(2) 0.7927(2) 0.3342(3)
H102 H 0.3657 0.7693 0.3291
C169 C 0.28648(12) 0.92142(15) 0.42315(13)
C170 C 0.33483(17) 0.8445(2) 0.3651(2)
H103 H 0.3715 0.8607 0.3751
C171 C 0.28383(15) 0.87276(19) 0.3815(2)
C172 C 0.23025(19) 0.8524(2) 0.3607(2)
H104 H 0.1955 0.8727 0.3698
C173 C 0.2758(2) 0.7750(2) 0.3095(2)
O53 O 0.44071(9) 0.66443(9) 0.06029(9)
O54 O 0.44062(12) 0.76366(10) 0.05882(12)
C174 C 0.3268(3) 0.7719(2) 0.1976(3)
H105 H 0.3157 0.8088 0.2126
C175 C 0.3342(3) 0.6680(2) 0.2073(2)
H106 H 0.3291 0.6343 0.2307
C176 C 0.42315(13) 0.71352(12) 0.07858(15)
C177 C 0.3651(2) 0.66517(17) 0.1555(2)
H107 H 0.3751 0.6285 0.1393
C178 C 0.3815(2) 0.71617(15) 0.12724(19)
C179 C 0.3607(2) 0.76975(19) 0.1476(2)
H108 H 0.3698 0.8045 0.1273
C180 C 0.3095(2) 0.7242(2) 0.2250(2)
Cu14_2 Cu 1.0000 0.5000 0.65579(3)
Cu19_2 Cu 0.5000 0.34421(3) 1.0000
Cu23_2 Cu 0.5000 0.65579(3) 1.0000
Cu25_2 Cu 1.0000 0.5000 0.77085(4)
Cu29_2 Cu 0.5000 0.22915(4) 1.0000
Cu33_2 Cu 0.5000 0.77085(4) 1.0000
O64 O 0.66443(9) 0.06029(9) 0.44071(9)
O75 O 0.76366(10) 0.05882(12) 0.44062(12)
N15_2 N 0.44436(18) 1.0000 0.5000
C47 C 0.4704(5) 0.9532(5) 0.5000
H29 H 0.4495 0.9176 0.5000
N6_2 N 0.55564(18) 1.0000 0.5000
C49 C 0.5296(5) 0.9532(5) 0.5000
H31 H 0.5505 0.9176 0.5000
Cu11_2 Cu 0.65579(3) 1.0000 0.5000
Cu12_2 Cu 0.77085(4) 1.0000 0.5000
O26_2 O 0.86654(19) 1.0000 0.5000
O58 O 0.66443(9) 0.93971(9) 0.44071(9)
O62 O 0.66443(9) 0.93971(9) 0.55929(9)
O69 O 0.76366(10) 0.94118(12) 0.44062(12)
O73 O 0.76366(10) 0.94118(12) 0.55938(12)
Cu1_2 Cu 1.0000 0.5000 0.34421(3)
Cu2_2 Cu 1.0000 0.5000 0.22915(4)
N1_2 N 1.0000 0.5000 0.44436(18)
O3_2 O 1.0000 0.5000 0.13346(19)
C8 C 0.9532(5) 0.5000 0.4704(5)
H5 H 0.9176 0.5000 0.4495
N3_2 N 1.0000 0.5000 0.55564(18)
C24 C 0.9532(5) 0.5000 0.5296(5)
H15 H 0.9176 0.5000 0.5505
O10_2 O 1.0000 0.5000 0.86654(19)
O31 O 0.93971(9) 0.55929(9) 0.66443(9)
O32 O 0.94118(12) 0.55938(12) 0.76366(10)
N11 N 0.7243(4) 0.7243(4) 0.7243(4)
C97 C 0.8024(3) 0.6732(3) 0.7719(2)
H61 H 0.7874 0.6843 0.8088
C98 C 0.7927(2) 0.6658(3) 0.6680(2)
H62 H 0.7693 0.6709 0.6343
C99 C 0.92142(15) 0.57685(13) 0.71352(12)
C100 C 0.8445(2) 0.6349(2) 0.66517(17)
H63 H 0.8607 0.6249 0.6285
C101 C 0.87276(19) 0.6185(2) 0.71617(15)
C102 C 0.8524(2) 0.6393(2) 0.76975(19)
H64 H 0.8727 0.6302 0.8045
C103 C 0.7750(2) 0.6905(2) 0.7242(2)
C104 C 0.7719(2) 0.8024(3) 0.6732(3)
H65 H 0.8088 0.7874 0.6843
C105 C 0.6680(2) 0.7927(2) 0.6658(3)
H66 H 0.6343 0.7693 0.6709
C106 C 0.71352(12) 0.92142(15) 0.57685(13)
C107 C 0.66517(17) 0.8445(2) 0.6349(2)
H67 H 0.6285 0.8607 0.6249
C108 C 0.71617(15) 0.87276(19) 0.6185(2)
C109 C 0.76975(19) 0.8524(2) 0.6393(2)
H68 H 0.8045 0.8727 0.6302
C110 C 0.7242(2) 0.7750(2) 0.6905(2)
O35 O 0.55929(9) 0.66443(9) 0.93971(9)
O36 O 0.55938(12) 0.76366(10) 0.94118(12)
C111 C 0.6732(3) 0.7719(2) 0.8024(3)
H69 H 0.6843 0.8088 0.7874
C112 C 0.6658(3) 0.6680(2) 0.7927(2)
H70 H 0.6709 0.6343 0.7693
C113 C 0.57685(13) 0.71352(12) 0.92142(15)
C114 C 0.6349(2) 0.66517(17) 0.8445(2)
H71 H 0.6249 0.6285 0.8607
C115 C 0.6185(2) 0.71617(15) 0.87276(19)
C116 C 0.6393(2) 0.76975(19) 0.8524(2)
H72 H 0.6302 0.8045 0.8727
C117 C 0.6905(2) 0.7242(2) 0.7750(2)
O43 O 0.93971(9) 0.44071(9) 0.33557(9)
O44 O 0.94118(12) 0.44062(12) 0.23634(10)
N13 N 0.7243(4) 0.2757(4) 0.2757(4)
C139 C 0.8024(3) 0.3268(3) 0.2281(2)
H85 H 0.7874 0.3157 0.1912
C140 C 0.7927(2) 0.3342(3) 0.3320(2)
H86 H 0.7693 0.3291 0.3657
C141 C 0.92142(15) 0.42315(13) 0.28648(12)
C142 C 0.8445(2) 0.3651(2) 0.33483(17)
H87 H 0.8607 0.3751 0.3715
C143 C 0.87276(19) 0.3815(2) 0.28383(15)
C144 C 0.8524(2) 0.3607(2) 0.23025(19)
H88 H 0.8727 0.3698 0.1955
C145 C 0.7750(2) 0.3095(2) 0.2758(2)
C146 C 0.7719(2) 0.1976(3) 0.3268(3)
H89 H 0.8088 0.2126 0.3157
C147 C 0.6680(2) 0.2073(2) 0.3342(3)
H90 H 0.6343 0.2307 0.3291
C148 C 0.71352(12) 0.07858(15) 0.42315(13)
C149 C 0.66517(17) 0.1555(2) 0.3651(2)
H91 H 0.6285 0.1393 0.3751
C150 C 0.71617(15) 0.12724(19) 0.3815(2)
C151 C 0.76975(19) 0.1476(2) 0.3607(2)
H92 H 0.8045 0.1273 0.3698
C152 C 0.7242(2) 0.2250(2) 0.3095(2)
O47 O 0.55929(9) 0.33557(9) 0.06029(9)
O48 O 0.55938(12) 0.23634(10) 0.05882(12)
C153 C 0.6732(3) 0.2281(2) 0.1976(3)
H93 H 0.6843 0.1912 0.2126
C154 C 0.6658(3) 0.3320(2) 0.2073(2)
H94 H 0.6709 0.3657 0.2307
C155 C 0.57685(13) 0.28648(12) 0.07858(15)
C156 C 0.6349(2) 0.33483(17) 0.1555(2)
H95 H 0.6249 0.3715 0.1393
C157 C 0.6185(2) 0.28383(15) 0.12724(19)
C158 C 0.6393(2) 0.23025(19) 0.1476(2)
H96 H 0.6302 0.1955 0.1273
C159 C 0.6905(2) 0.2758(2) 0.2250(2)
O55 O 0.93971(9) 0.55929(9) 0.33557(9)
O66 O 0.94118(12) 0.55938(12) 0.23634(10)
N8 N 0.7243(4) 0.7243(4) 0.2757(4)
C51 C 0.7719(2) 0.8024(3) 0.3268(3)
H33 H 0.8088 0.7874 0.3157
C52 C 0.6680(2) 0.7927(2) 0.3342(3)
H34 H 0.6343 0.7693 0.3291
C53 C 0.71352(12) 0.92142(15) 0.42315(13)
C54 C 0.66517(17) 0.8445(2) 0.3651(2)
H35 H 0.6285 0.8607 0.3751
C55 C 0.71617(15) 0.87276(19) 0.3815(2)
C56 C 0.76975(19) 0.8524(2) 0.3607(2)
H36 H 0.8045 0.8727 0.3698
C57 C 0.7242(2) 0.7750(2) 0.3095(2)
O19 O 0.55929(9) 0.66443(9) 0.06029(9)
O20 O 0.55938(12) 0.76366(10) 0.05882(12)
C59 C 0.6732(3) 0.7719(2) 0.1976(3)
H38 H 0.6843 0.8088 0.2126
C60 C 0.6658(3) 0.6680(2) 0.2073(2)
H39 H 0.6709 0.6343 0.2307
C61 C 0.57685(13) 0.71352(12) 0.07858(15)
C62 C 0.6349(2) 0.66517(17) 0.1555(2)
H40 H 0.6249 0.6285 0.1393
C63 C 0.6185(2) 0.71617(15) 0.12724(19)
C64 C 0.6393(2) 0.76975(19) 0.1476(2)
H41 H 0.6302 0.8045 0.1273
C65 C 0.6905(2) 0.7242(2) 0.2250(2)
C66 C 0.8024(3) 0.6732(3) 0.2281(2)
H42 H 0.7874 0.6843 0.1912
C67 C 0.7927(2) 0.6658(3) 0.3320(2)
H43 H 0.7693 0.6709 0.3657
C68 C 0.92142(15) 0.57685(13) 0.28648(12)
C69 C 0.8445(2) 0.6349(2) 0.33483(17)
H44 H 0.8607 0.6249 0.3715
C70 C 0.87276(19) 0.6185(2) 0.28383(15)
C71 C 0.8524(2) 0.6393(2) 0.23025(19)
H45 H 0.8727 0.6302 0.1955
C72 C 0.7750(2) 0.6905(2) 0.2758(2)
O23_3 O 0.5000 0.13346(19) 0.0000
N15_3 N 0.5000 0.44436(18) 0.0000
C48_2 C 0.5000 0.4704(5) 0.0468(5)
H30_2 H 0.5000 0.4495 0.0824
N6_3 N 0.5000 0.55564(18) 0.0000
C50_2 C 0.5000 0.5296(5) 0.0468(5)
H32_2 H 0.5000 0.5505 0.0824
O23_4 O 0.5000 0.13346(19) 1.0000
O26_3 O 0.5000 0.86654(19) 0.0000
N15_4 N 0.5000 0.44436(18) 1.0000
C47_2 C 0.5000 0.4704(5) 0.9532(5)
H29_2 H 0.5000 0.4495 0.9176
N6_4 N 0.5000 0.55564(18) 1.0000
C49_2 C 0.5000 0.5296(5) 0.9532(5)
H31_2 H 0.5000 0.5505 0.9176
O26_4 O 0.5000 0.86654(19) 1.0000
loop_
_geom_bond_atom_site_label_1
_geom_bond_atom_site_label_2
_geom_bond_site_symmetry_1
_geom_bond_site_symmetry_2
O23 Cu10 1_555 1_555
O57 Cu9 1_555 1_555
O63 Cu9 1_555 1_555
O68 Cu10 1_555 1_555
O74 Cu10 1_555 1_555
N15 Cu9 1_555 1_555
Cu1 O1 1_555 1_555
Cu2 O2 1_555 1_555
O1 C3 1_555 1_555
O2 C3 1_555 1_555
N1 Cu1 1_555 1_555
O3 Cu2 1_555 1_555
N2 C7 1_555 1_555
C1 H1 1_555 1_555
C2 H2 1_555 1_555
C3 C5 1_555 1_555
C4 C2 1_555 1_555
H3 C4 1_555 1_555
C5 C4 1_555 1_555
C6 C1 1_555 1_555
H4 C6 1_555 1_555
C7 C1 1_555 1_555
O57 C11 1_555 1_555
O68 C11 1_555 1_555
C9 H6 1_555 1_555
C10 H7 1_555 1_555
C11 C13 1_555 1_555
C12 C10 1_555 1_555
H8 C12 1_555 1_555
C13 C12 1_555 1_555
C14 C9 1_555 1_555
H9 C14 1_555 1_555
C15 N2 1_555 1_555
O6 C18 1_555 1_555
O7 C18 1_555 1_555
C16 H10 1_555 1_555
C17 H11 1_555 1_555
C18 C20 1_555 1_555
C19 C17 1_555 1_555
H12 C19 1_555 1_555
C20 C19 1_555 1_555
C21 C16 1_555 1_555
H13 C21 1_555 1_555
C22 N2 1_555 1_555
C23 N1 1_555 1_555
H14 C23 1_555 1_555
C25 C23 1_555 1_555
H16 C25 1_555 1_555
Cu14 N3 1_555 1_555
Cu25 O9 1_555 1_555
O8 Cu14 1_555 1_555
O9 C28 1_555 1_555
O10 Cu25 1_555 1_555
N4 C32 1_555 1_555
C26 H17 1_555 1_555
C27 H18 1_555 1_555
C28 O8 1_555 1_555
C29 C27 1_555 1_555
H19 C29 1_555 1_555
C30 C28 1_555 1_555
C31 C26 1_555 1_555
H20 C31 1_555 1_555
C32 C26 1_555 1_555
O11 C35 1_555 1_555
O12 C35 1_555 1_555
C33 H21 1_555 1_555
C34 H22 1_555 1_555
C35 C37 1_555 1_555
C36 C34 1_555 1_555
H23 C36 1_555 1_555
C37 C36 1_555 1_555
C38 C33 1_555 1_555
H24 C38 1_555 1_555
C39 N4 1_555 1_555
O13 C42 1_555 1_555
O14 C42 1_555 1_555
C40 H25 1_555 1_555
C41 H26 1_555 1_555
C42 C44 1_555 1_555
C43 C41 1_555 1_555
H27 C43 1_555 1_555
C44 C43 1_555 1_555
C45 C40 1_555 1_555
H28 C45 1_555 1_555
C46 N4 1_555 1_555
C48 N15 1_555 1_555
H30 C48 1_555 1_555
C50 C48 1_555 1_555
H32 C50 1_555 1_555
Cu9_2 O11 1_555 1_555
Cu10_2 O12 1_555 1_555
O23_2 Cu10_2 1_555 1_555
Cu11 N6 1_555 1_555
Cu12 O25 1_555 1_555
O24 Cu11 1_555 1_555
O25 C78 1_555 1_555
O26 Cu12 1_555 1_555
N10 C82 1_555 1_555
C76 H49 1_555 1_555
C77 H50 1_555 1_555
C78 O24 1_555 1_555
C79 C77 1_555 1_555
H51 C79 1_555 1_555
C80 C78 1_555 1_555
C81 C76 1_555 1_555
H52 C81 1_555 1_555
C82 C76 1_555 1_555
O27 C85 1_555 1_555
O28 C85 1_555 1_555
C83 H53 1_555 1_555
C84 H54 1_555 1_555
C85 C87 1_555 1_555
C86 C84 1_555 1_555
H55 C86 1_555 1_555
C87 C86 1_555 1_555
C88 C83 1_555 1_555
H56 C88 1_555 1_555
C89 N10 1_555 1_555
O29 C92 1_555 1_555
O30 C92 1_555 1_555
C90 H57 1_555 1_555
C91 H58 1_555 1_555
C92 C94 1_555 1_555
C93 C91 1_555 1_555
H59 C93 1_555 1_555
C94 C93 1_555 1_555
C95 C90 1_555 1_555
H60 C95 1_555 1_555
C96 N10 1_555 1_555
O37 Cu14 1_555 1_555
O38 Cu25 1_555 1_555
N12 C124 1_555 1_555
C118 H73 1_555 1_555
C119 H74 1_555 1_555
C120 O37 1_555 1_555
C121 C119 1_555 1_555
H75 C121 1_555 1_555
C122 C120 1_555 1_555
C123 C118 1_555 1_555
H76 C123 1_555 1_555
C124 C118 1_555 1_555
C125 H77 1_555 1_555
C126 H78 1_555 1_555
C127 O63 1_555 1_555
C128 C126 1_555 1_555
H79 C128 1_555 1_555
C129 C127 1_555 1_555
C130 C125 1_555 1_555
H80 C130 1_555 1_555
C131 N12 1_555 1_555
O41 C134 1_555 1_555
O42 C134 1_555 1_555
C132 H81 1_555 1_555
C133 H82 1_555 1_555
C134 C136 1_555 1_555
C135 C133 1_555 1_555
H83 C135 1_555 1_555
C136 C135 1_555 1_555
C137 C132 1_555 1_555
H84 C137 1_555 1_555
C138 N12 1_555 1_555
O49 Cu1 1_555 1_555
O50 Cu2 1_555 1_555
N14 C166 1_555 1_555
C160 H97 1_555 1_555
C161 H98 1_555 1_555
C162 O49 1_555 1_555
C163 C161 1_555 1_555
H99 C163 1_555 1_555
C164 C162 1_555 1_555
C165 C160 1_555 1_555
H100 C165 1_555 1_555
C166 C160 1_555 1_555
O51 Cu9_2 1_555 1_555
O52 Cu10_2 1_555 1_555
C167 H101 1_555 1_555
C168 H102 1_555 1_555
C169 O51 1_555 1_555
C170 C168 1_555 1_555
H103 C170 1_555 1_555
C171 C169 1_555 1_555
C172 C167 1_555 1_555
H104 C172 1_555 1_555
C173 N14 1_555 1_555
O53 C176 1_555 1_555
O54 C176 1_555 1_555
C174 H105 1_555 1_555
C175 H106 1_555 1_555
C176 C178 1_555 1_555
C177 C175 1_555 1_555
H107 C177 1_555 1_555
C178 C177 1_555 1_555
C179 C174 1_555 1_555
H108 C179 1_555 1_555
C180 N14 1_555 1_555
Cu14_2 O29 1_555 1_555
Cu19 O6 1_555 1_555
Cu19_2 O27 1_555 1_555
Cu23 O53 1_555 1_555
Cu23_2 O13 1_555 1_555
Cu25_2 O30 1_555 1_555
Cu29 O7 1_555 1_555
Cu29_2 O28 1_555 1_555
Cu33 O54 1_555 1_555
Cu33_2 O14 1_555 1_555
O64 Cu11 1_555 1_555
O75 Cu12 1_555 1_555
N15_2 Cu9_2 1_555 1_555
C2 C7 1_555 1_555
C5 C6 1_555 1_555
C9 C15 1_555 1_555
C10 C15 1_555 1_555
C13 C14 1_555 1_555
C16 C22 1_555 1_555
C17 C22 1_555 1_555
C20 C21 1_555 1_555
N3 C25 1_555 1_555
C27 C32 1_555 1_555
C29 C30 1_555 1_555
C30 C31 1_555 1_555
C33 C39 1_555 1_555
C34 C39 1_555 1_555
C37 C38 1_555 1_555
C40 C46 1_555 1_555
C41 C46 1_555 1_555
C44 C45 1_555 1_555
N6 C50 1_555 1_555
C77 C82 1_555 1_555
C79 C80 1_555 1_555
C80 C81 1_555 1_555
C83 C89 1_555 1_555
C84 C89 1_555 1_555
C87 C88 1_555 1_555
C90 C96 1_555 1_555
C91 C96 1_555 1_555
C94 C95 1_555 1_555
O38 C120 1_555 1_555
C119 C124 1_555 1_555
C121 C122 1_555 1_555
C122 C123 1_555 1_555
O74 C127 1_555 1_555
C125 C131 1_555 1_555
C126 C131 1_555 1_555
C128 C129 1_555 1_555
C129 C130 1_555 1_555
O41 Cu19_2 1_555 1_555
O42 Cu29_2 1_555 1_555
C132 C138 1_555 1_555
C133 C138 1_555 1_555
C136 C137 1_555 1_555
O50 C162 1_555 1_555
C161 C166 1_555 1_555
C163 C164 1_555 1_555
C164 C165 1_555 1_555
O52 C169 1_555 1_555
C167 C173 1_555 1_555
C168 C173 1_555 1_555
C170 C171 1_555 1_555
C171 C172 1_555 1_555
C174 C180 1_555 1_555
C175 C180 1_555 1_555
C178 C179 1_555 1_555
C47 N15_2 1_555 1_555
H29 C47 1_555 1_555
N6_2 C49 1_555 1_555
C49 C47 1_555 1_555
H31 C49 1_555 1_555
Cu11_2 N6_2 1_555 1_555
O26_2 Cu12_2 1_555 1_555
O58 Cu11_2 1_555 1_555
O62 Cu11_2 1_555 1_555
O69 Cu12_2 1_555 1_555
O73 Cu12_2 1_555 1_555
N1_2 Cu1_2 1_555 1_555
O3_2 Cu2_2 1_555 1_555
C8 N1_2 1_555 1_555
H5 C8 1_555 1_555
N3_2 C24 1_555 1_555
C24 C8 1_555 1_555
H15 C24 1_555 1_555
Cu14_2 N3_2 1_555 1_555
O10_2 Cu25_2 1_555 1_555
O31 Cu14_2 1_555 1_555
O32 Cu25_2 1_555 1_555
N11 C103 1_555 1_555
C97 H61 1_555 1_555
C98 H62 1_555 1_555
C99 O31 1_555 1_555
C100 C98 1_555 1_555
H63 C100 1_555 1_555
C101 C99 1_555 1_555
C102 C97 1_555 1_555
H64 C102 1_555 1_555
C103 C97 1_555 1_555
O62 C106 1_555 1_555
O73 C106 1_555 1_555
C104 H65 1_555 1_555
C105 H66 1_555 1_555
C106 C108 1_555 1_555
C107 C105 1_555 1_555
H67 C107 1_555 1_555
C108 C107 1_555 1_555
C109 C104 1_555 1_555
H68 C109 1_555 1_555
C110 N11 1_555 1_555
O35 C113 1_555 1_555
O36 C113 1_555 1_555
C111 H69 1_555 1_555
C112 H70 1_555 1_555
C113 C115 1_555 1_555
C114 C112 1_555 1_555
H71 C114 1_555 1_555
C115 C114 1_555 1_555
C116 C111 1_555 1_555
H72 C116 1_555 1_555
C117 N11 1_555 1_555
O43 Cu1_2 1_555 1_555
O44 Cu2_2 1_555 1_555
N13 C145 1_555 1_555
C139 H85 1_555 1_555
C140 H86 1_555 1_555
C141 O43 1_555 1_555
C142 C140 1_555 1_555
H87 C142 1_555 1_555
C143 C141 1_555 1_555
C144 C139 1_555 1_555
H88 C144 1_555 1_555
C145 C139 1_555 1_555
C146 H89 1_555 1_555
C147 H90 1_555 1_555
C148 O64 1_555 1_555
C149 C147 1_555 1_555
H91 C149 1_555 1_555
C150 C148 1_555 1_555
C151 C146 1_555 1_555
H92 C151 1_555 1_555
C152 N13 1_555 1_555
O47 C155 1_555 1_555
O48 C155 1_555 1_555
C153 H93 1_555 1_555
C154 H94 1_555 1_555
C155 C157 1_555 1_555
C156 C154 1_555 1_555
H95 C156 1_555 1_555
C157 C156 1_555 1_555
C158 C153 1_555 1_555
H96 C158 1_555 1_555
C159 N13 1_555 1_555
Cu19 O47 1_555 1_555
Cu23_2 O35 1_555 1_555
Cu29 O48 1_555 1_555
Cu33_2 O36 1_555 1_555
O55 Cu1_2 1_555 1_555
O66 Cu2_2 1_555 1_555
O32 C99 1_555 1_555
C98 C103 1_555 1_555
C100 C101 1_555 1_555
C101 C102 1_555 1_555
C104 C110 1_555 1_555
C105 C110 1_555 1_555
C108 C109 1_555 1_555
C111 C117 1_555 1_555
C112 C117 1_555 1_555
C115 C116 1_555 1_555
O44 C141 1_555 1_555
C140 C145 1_555 1_555
C142 C143 1_555 1_555
C143 C144 1_555 1_555
O75 C148 1_555 1_555
C146 C152 1_555 1_555
C147 C152 1_555 1_555
C149 C150 1_555 1_555
C150 C151 1_555 1_555
C153 C159 1_555 1_555
C154 C159 1_555 1_555
C157 C158 1_555 1_555
O58 C53 1_555 1_555
O69 C53 1_555 1_555
N8 C57 1_555 1_555
C51 H33 1_555 1_555
C52 H34 1_555 1_555
C53 C55 1_555 1_555
C54 C52 1_555 1_555
H35 C54 1_555 1_555
C55 C54 1_555 1_555
C56 C51 1_555 1_555
H36 C56 1_555 1_555
C57 C51 1_555 1_555
O19 C61 1_555 1_555
O20 C61 1_555 1_555
C59 H38 1_555 1_555
C60 H39 1_555 1_555
C61 C63 1_555 1_555
C62 C60 1_555 1_555
H40 C62 1_555 1_555
C63 C62 1_555 1_555
C64 C59 1_555 1_555
H41 C64 1_555 1_555
C65 N8 1_555 1_555
O55 C68 1_555 1_555
O66 C68 1_555 1_555
C66 H42 1_555 1_555
C67 H43 1_555 1_555
C68 C70 1_555 1_555
C69 C67 1_555 1_555
H44 C69 1_555 1_555
C70 C69 1_555 1_555
C71 C66 1_555 1_555
H45 C71 1_555 1_555
C72 N8 1_555 1_555
Cu23 O19 1_555 1_555
Cu33 O20 1_555 1_555
C52 C57 1_555 1_555
C55 C56 1_555 1_555
C59 C65 1_555 1_555
C60 C65 1_555 1_555
C63 C64 1_555 1_555
C66 C72 1_555 1_555
C67 C72 1_555 1_555
C70 C71 1_555 1_555
O23_3 Cu29 1_555 1_555
N15_3 Cu19 1_555 1_555
C48_2 N15_3 1_555 1_555
H30_2 C48_2 1_555 1_555
C50_2 C48_2 1_555 1_555
H32_2 C50_2 1_555 1_555
O23_4 Cu29_2 1_555 1_555
Cu23 N6_3 1_555 1_555
O26_3 Cu33 1_555 1_555
N15_4 Cu19_2 1_555 1_555
N6_3 C50_2 1_555 1_555
C47_2 N15_4 1_555 1_555
H29_2 C47_2 1_555 1_555
N6_4 C49_2 1_555 1_555
C49_2 C47_2 1_555 1_555
H31_2 C49_2 1_555 1_555
Cu23_2 N6_4 1_555 1_555
O26_4 Cu33_2 1_555 1_555

#END
