
###############################################################################
#
# This file contains modified crystal structure data generated from the
# MOF subset of the Cambridge Structural Database (CSD) v543 
# hosted by the Cambridge Crystallographic Data Centre (CCDC).
#
# This work is licensed under the Creative Commons
# Attribution-NonCommercial-ShareAlike 4.0 International License.
# To view a copy of this license, visit
# http://creativecommons.org/licenses/by-nc-sa/4.0/
# or send a letter to
# Creative Commons, PO Box 1866, Mountain View, CA 94042, USA.
#
# CIF created using the CSD Python API on 29 September 2022
# The structure has been converted into the P1 space group
# The structure has a 3D framework
# The original CSD entry DEFVIV is in the monoclinic crystal system
# The framework has been calculated to contain at least 10.0% void space
# The void calculation uses a probe of radius 1.32A, grid spacing 0.4
#
###############################################################################

data_DEFVIV
_chemical_formula_moiety         '(C80 H88 Cd2 N16 O24)n'
_symmetry_cell_setting           triclinic
_symmetry_space_group_name_H-M   'P 1'
_symmetry_Int_Tables_number      1
_space_group_name_Hall           'P 1'
loop_
_symmetry_equiv_pos_site_id
_symmetry_equiv_pos_as_xyz
1 x,y,z
_cell_length_a                   10.296(5)
_cell_length_b                   15.522(5)
_cell_length_c                   15.603(5)
_cell_angle_alpha                90
_cell_angle_beta                 96.021(5)
_cell_angle_gamma                90
_cell_volume                     2479.83
loop_
_atom_site_label
_atom_site_type_symbol
_atom_site_fract_x
_atom_site_fract_y
_atom_site_fract_z
C6 C 0.0925(2) 0.07288(16) 0.42792(16)
H5 H 0.1714 0.0434 0.4295
C9 C 0.1544(3) 0.16325(19) 0.55849(16)
H8 H 0.1082 0.1687 0.6093
H9 H 0.2249 0.1223 0.5714
C10 C 0.2115(3) 0.2505(2) 0.53760(19)
H10 H 0.2671 0.2706 0.5877
H11 H 0.1406 0.2915 0.5265
N2 N 0.06471(19) 0.13061(13) 0.48673(12)
C16 C 0.4075(2) 0.42712(16) 0.57208(16)
H16 H 0.3286 0.4566 0.5705
C17 C 0.5595(2) 0.34036(16) 0.53771(16)
H17 H 0.6057 0.2996 0.5094
C18 C 0.6015(2) 0.38261(16) 0.61091(16)
H18 H 0.6831 0.3759 0.6419
C19 C 0.3456(3) 0.33675(19) 0.44151(16)
H19 H 0.3918 0.3313 0.3907
H20 H 0.2751 0.3777 0.4286
C20 C 0.2885(3) 0.2495(2) 0.46240(19)
H21 H 0.2329 0.2294 0.4123
H22 H 0.3594 0.2085 0.4735
Cd3 Cd 0.5000 0.514230(14) 0.7500
N3 N 0.50526(19) 0.43710(13) 0.63253(12)
N4 N 0.00526(19) 0.06290(13) 0.13253(12)
N5 N 0.43529(19) 0.36939(13) 0.51327(12)
Cd2 Cd 1.0000 0.014230(14) 0.7500
C1 C 0.5880(2) 0.01107(15) 0.44070(15)
H1 H 0.6476 0.0186 0.4005
C2 C 0.6011(2) 0.05866(16) 0.51558(14)
H2 H 0.6692 0.0979 0.5258
C7 C 0.0595(2) 0.15964(16) 0.03771(16)
H6 H 0.1057 0.2004 0.0094
C8 C 0.1015(2) 0.11739(16) 0.11091(16)
H7 H 0.1831 0.1241 0.1419
C13 C 0.51254(19) 0.04782(15) 0.57568(13)
C14 C 0.6303(2) 0.13784(15) 0.68101(15)
H14 H 0.6139 0.1737 0.7296
H15 H 0.6526 0.1756 0.6353
C15 C 0.7461(2) 0.07991(15) 0.70776(13)
O4 O 0.73298(18) 0.00227(11) 0.72122(13)
O5 O 0.85565(15) 0.11790(11) 0.71610(12)
O7 O 0.51418(14) 0.09274(11) 0.65211(10)
C9_2 C 0.8456(3) 0.16325(19) 0.94151(16)
H8_2 H 0.8918 0.1687 0.8907
H9_2 H 0.7751 0.1223 0.9286
C10_2 C 0.7885(3) 0.2505(2) 0.96240(19)
H10_2 H 0.7329 0.2706 0.9123
H11_2 H 0.8594 0.2915 0.9735
C16_2 C 0.5925(2) 0.42712(16) 0.92792(16)
H16_2 H 0.6714 0.4566 0.9295
C17_2 C 0.4405(2) 0.34036(16) 0.96229(16)
H17_2 H 0.3943 0.2996 0.9906
C18_2 C 0.3985(2) 0.38261(16) 0.88909(16)
H18_2 H 0.3169 0.3759 0.8581
N3_2 N 0.49474(19) 0.43710(13) 0.86747(12)
N5_2 N 0.56471(19) 0.36939(13) 0.98673(12)
C2_2 C 0.8989(2) 0.55866(16) 0.98442(14)
H2_2 H 0.8308 0.5979 0.9742
C13_2 C 0.98746(19) 0.54782(15) 0.92432(13)
C14_2 C 0.8697(2) 0.63784(15) 0.81899(15)
H14_2 H 0.8861 0.6737 0.7704
H15_2 H 0.8474 0.6756 0.8647
C15_2 C 0.7539(2) 0.57991(15) 0.79224(13)
O4_2 O 0.76702(18) 0.50227(11) 0.77878(13)
O5_2 O 0.64435(15) 0.61790(11) 0.78390(12)
O7_2 O 0.98582(14) 0.59274(11) 0.84789(10)
C1_2 C 0.0880(2) 0.51107(15) 0.44070(15)
H1_2 H 0.1476 0.5186 0.4005
C2_3 C 0.1011(2) 0.55866(16) 0.51558(14)
H2_3 H 0.1692 0.5979 0.5258
C13_3 C 0.01254(19) 0.54782(15) 0.57568(13)
C14_3 C 0.1303(2) 0.63784(15) 0.68101(15)
H14_3 H 0.1139 0.6737 0.7296
H15_3 H 0.1526 0.6756 0.6353
C15_3 C 0.2461(2) 0.57991(15) 0.70776(13)
O4_3 O 0.23298(18) 0.50227(11) 0.72122(13)
O5_3 O 0.35565(15) 0.61790(11) 0.71610(12)
O7_3 O 0.01418(14) 0.59274(11) 0.65211(10)
Cd1 Cd 0.0000 0.985770(14) 0.2500
O6 O 0.14435(15) 0.88210(11) 0.28390(12)
C3 C 0.48746(19) 0.95218(15) 0.42432(13)
C4 C 0.3697(2) 0.86216(15) 0.31899(15)
H3 H 0.3861 0.8263 0.2704
H4 H 0.3474 0.8244 0.3647
C5 C 0.2539(2) 0.92009(15) 0.29224(13)
O1 O 0.26702(18) 0.99773(11) 0.27878(13)
O3 O 0.48582(14) 0.90726(11) 0.34789(10)
C11 C 0.4120(2) 0.98893(15) 0.55930(15)
H12 H 0.3524 0.9814 0.5995
C12 C 0.3989(2) 0.94134(16) 0.48442(14)
H13 H 0.3308 0.9021 0.4742
C3_2 C 0.01254(19) 0.45218(15) 0.07568(13)
C4_2 C 0.1303(2) 0.36216(15) 0.18101(15)
H3_2 H 0.1139 0.3263 0.2296
H4_2 H 0.1526 0.3244 0.1353
C5_2 C 0.2461(2) 0.42009(15) 0.20776(13)
C6_2 C 0.5925(2) 0.57288(16) 0.42792(16)
H5_2 H 0.6714 0.5434 0.4295
C7_2 C 0.4405(2) 0.65964(16) 0.46229(16)
H6_2 H 0.3943 0.7004 0.4906
C8_2 C 0.3985(2) 0.61739(16) 0.38909(16)
H7_2 H 0.3169 0.6241 0.3581
C9_3 C 0.6544(3) 0.66325(19) 0.55849(16)
H8_3 H 0.6082 0.6687 0.6093
H9_3 H 0.7249 0.6223 0.5714
C10_3 C 0.7115(3) 0.7505(2) 0.53760(19)
H10_3 H 0.7671 0.7706 0.5877
H11_3 H 0.6406 0.7915 0.5265
Cd1_2 Cd 0.5000 0.485770(14) 0.2500
N1 N 0.49474(19) 0.56290(13) 0.36747(12)
N2_2 N 0.56471(19) 0.63061(13) 0.48673(12)
O1_2 O 0.23298(18) 0.49773(11) 0.22122(13)
O2 O 0.35565(15) 0.38210(11) 0.21610(12)
O3_2 O 0.01418(14) 0.40726(11) 0.15211(10)
C12_2 C 0.1011(2) 0.44134(16) 0.01558(14)
H13_2 H 0.1692 0.4021 0.0258
C16_3 C 0.9075(2) 0.92712(16) 0.57208(16)
H16_3 H 0.8286 0.9566 0.5705
C19_2 C 0.8456(3) 0.83675(19) 0.44151(16)
H19_2 H 0.8918 0.8313 0.3907
H20_2 H 0.7751 0.8777 0.4286
C20_2 C 0.7885(3) 0.7495(2) 0.46240(19)
H21_2 H 0.7329 0.7294 0.4123
H22_2 H 0.8594 0.7085 0.4735
N4_2 N 0.50526(19) 0.56290(13) 0.13253(12)
N5_3 N 0.93529(19) 0.86939(13) 0.51327(12)
O6_2 O 0.64435(15) 0.38210(11) 0.28390(12)
C3_3 C 0.98746(19) 0.45218(15) 0.42432(13)
C4_3 C 0.8697(2) 0.36216(15) 0.31899(15)
H3_3 H 0.8861 0.3263 0.2704
H4_3 H 0.8474 0.3244 0.3647
C5_3 C 0.7539(2) 0.42009(15) 0.29224(13)
C6_3 C 0.4075(2) 0.57288(16) 0.07208(16)
H5_3 H 0.3286 0.5434 0.0705
C7_3 C 0.5595(2) 0.65964(16) 0.03771(16)
H6_3 H 0.6057 0.7004 0.0094
C8_3 C 0.6015(2) 0.61739(16) 0.11091(16)
H7_3 H 0.6831 0.6241 0.1419
N2_3 N 0.43529(19) 0.63061(13) 0.01327(12)
O1_3 O 0.76702(18) 0.49773(11) 0.27878(13)
O3_3 O 0.98582(14) 0.40726(11) 0.34789(10)
C11_2 C 0.9120(2) 0.48893(15) 0.55930(15)
H12_2 H 0.8524 0.4814 0.5995
C12_3 C 0.8989(2) 0.44134(16) 0.48442(14)
H13_3 H 0.8308 0.4021 0.4742
C19_3 C 0.1544(3) 0.83675(19) 0.05849(16)
H19_3 H 0.1082 0.8313 0.1093
H20_3 H 0.2249 0.8777 0.0714
C20_3 C 0.2115(3) 0.7495(2) 0.03760(19)
H21_3 H 0.2671 0.7294 0.0877
H22_3 H 0.1406 0.7085 0.0265
C17_3 C 0.9405(2) 0.84036(16) 0.96229(16)
H17_3 H 0.8943 0.7996 0.9906
C18_3 C 0.8985(2) 0.88261(16) 0.88909(16)
H18_3 H 0.8169 0.8759 0.8581
N3_3 N 0.99474(19) 0.93710(13) 0.86747(12)
C1_3 C 0.4120(2) 0.01107(15) 0.05930(15)
H1_3 H 0.3524 0.0186 0.0995
C7_4 C 0.9405(2) 0.15964(16) 0.46229(16)
H6_4 H 0.8943 0.2004 0.4906
C8_4 C 0.8985(2) 0.11739(16) 0.38909(16)
H7_4 H 0.8169 0.1241 0.3581
N1_2 N 0.99474(19) 0.06290(13) 0.36747(12)
C6_4 C 0.9075(2) 0.07288(16) 0.07208(16)
H5_4 H 0.8286 0.0434 0.0705
N2_4 N 0.93529(19) 0.13061(13) 0.01327(12)
C19_4 C 0.6544(3) 0.33675(19) 0.05849(16)
H19_4 H 0.6082 0.3313 0.1093
H20_4 H 0.7249 0.3777 0.0714
C20_4 C 0.7115(3) 0.2495(2) 0.03760(19)
H21_4 H 0.7671 0.2294 0.0877
H22_4 H 0.6406 0.2085 0.0265
C2_4 C 0.3989(2) 0.05866(16) 0.98442(14)
H2_4 H 0.3308 0.0979 0.9742
C13_4 C 0.48746(19) 0.04782(15) 0.92432(13)
C14_4 C 0.3697(2) 0.13784(15) 0.81899(15)
H14_4 H 0.3861 0.1737 0.7704
H15_4 H 0.3474 0.1756 0.8647
C15_4 C 0.2539(2) 0.07991(15) 0.79224(13)
Cd2_2 Cd -0.0000 0.014230(14) 0.7500
O4_4 O 0.26702(18) 0.00227(11) 0.77878(13)
O5_4 O 0.14435(15) 0.11790(11) 0.78390(12)
O7_4 O 0.48582(14) 0.09274(11) 0.84789(10)
C3_4 C 0.51254(19) 0.95218(15) 0.07568(13)
C4_4 C 0.6303(2) 0.86216(15) 0.18101(15)
H3_4 H 0.6139 0.8263 0.2296
H4_4 H 0.6526 0.8244 0.1353
C5_4 C 0.7461(2) 0.92009(15) 0.20776(13)
Cd1_3 Cd 1.0000 0.985770(14) 0.2500
O1_4 O 0.73298(18) 0.99773(11) 0.22122(13)
O2_2 O 0.85565(15) 0.88210(11) 0.21610(12)
O3_4 O 0.51418(14) 0.90726(11) 0.15211(10)
C12_4 C 0.6011(2) 0.94134(16) 0.01558(14)
H13_4 H 0.6692 0.9021 0.0258
C11_3 C 0.5880(2) 0.98893(15) 0.94070(15)
H12_3 H 0.6476 0.9814 0.9005
C17_4 C 0.0595(2) 0.84036(16) 0.53771(16)
H17_4 H 0.1057 0.7996 0.5094
C18_4 C 0.1015(2) 0.88261(16) 0.61091(16)
H18_4 H 0.1831 0.8759 0.6419
N3_4 N 0.00526(19) 0.93710(13) 0.63253(12)
C9_4 C 0.3456(3) 0.66325(19) 0.94151(16)
H8_4 H 0.3918 0.6687 0.8907
H9_4 H 0.2751 0.6223 0.9286
C10_4 C 0.2885(3) 0.7505(2) 0.96240(19)
H10_4 H 0.2329 0.7706 0.9123
H11_4 H 0.3594 0.7915 0.9735
C16_4 C 0.0925(2) 0.92712(16) 0.92792(16)
H16_4 H 0.1714 0.9566 0.9295
N5_4 N 0.06471(19) 0.86939(13) 0.98673(12)
C11_4 C 0.0880(2) 0.48893(15) 0.94070(15)
H12_4 H 0.1476 0.4814 0.9005
C1_4 C 0.9120(2) 0.51107(15) 0.05930(15)
H1_4 H 0.8524 0.5186 0.0995
loop_
_geom_bond_atom_site_label_1
_geom_bond_atom_site_label_2
_geom_bond_site_symmetry_1
_geom_bond_site_symmetry_2
C6 H5 1_555 1_555
C9 H8 1_555 1_555
H9 C9 1_555 1_555
C10 C9 1_555 1_555
H10 C10 1_555 1_555
H11 C10 1_555 1_555
N2 C6 1_555 1_555
C16 H16 1_555 1_555
C17 H17 1_555 1_555
C18 C17 1_555 1_555
H18 C18 1_555 1_555
C19 H19 1_555 1_555
H20 C19 1_555 1_555
C20 C10 1_555 1_555
H21 C20 1_555 1_555
H22 C20 1_555 1_555
Cd3 N3 1_555 1_555
N3 C16 1_555 1_555
N5 C16 1_555 1_555
C9 N2 1_555 1_555
C17 N5 1_555 1_555
C18 N3 1_555 1_555
C19 C20 1_555 1_555
C19 N5 1_555 1_555
C1 H1 1_555 1_555
C2 C1 1_555 1_555
H2 C2 1_555 1_555
C7 H6 1_555 1_555
C8 C7 1_555 1_555
H7 C8 1_555 1_555
C13 C2 1_555 1_555
C14 H14 1_555 1_555
H15 C14 1_555 1_555
C15 C14 1_555 1_555
Cd2 O5 1_555 1_555
O4 C15 1_555 1_555
O5 C15 1_555 1_555
O7 C13 1_555 1_555
C8 N4 1_555 1_555
C14 O7 1_555 1_555
C9_2 H8_2 1_555 1_555
H9_2 C9_2 1_555 1_555
C10_2 C9_2 1_555 1_555
H10_2 C10_2 1_555 1_555
H11_2 C10_2 1_555 1_555
C16_2 H16_2 1_555 1_555
C17_2 H17_2 1_555 1_555
C18_2 C17_2 1_555 1_555
H18_2 C18_2 1_555 1_555
Cd3 N3_2 1_555 1_555
N3_2 C16_2 1_555 1_555
N5_2 C16_2 1_555 1_555
C17_2 N5_2 1_555 1_555
C18_2 N3_2 1_555 1_555
H2_2 C2_2 1_555 1_555
C13_2 C2_2 1_555 1_555
C14_2 H14_2 1_555 1_555
H15_2 C14_2 1_555 1_555
C15_2 C14_2 1_555 1_555
Cd3 O5_2 1_555 1_555
O4_2 C15_2 1_555 1_555
O5_2 C15_2 1_555 1_555
O7_2 C13_2 1_555 1_555
C14_2 O7_2 1_555 1_555
C1_2 H1_2 1_555 1_555
C2_3 C1_2 1_555 1_555
H2_3 C2_3 1_555 1_555
C13_3 C2_3 1_555 1_555
C14_3 H14_3 1_555 1_555
H15_3 C14_3 1_555 1_555
C15_3 C14_3 1_555 1_555
Cd3 O5_3 1_555 1_555
O4_3 C15_3 1_555 1_555
O5_3 C15_3 1_555 1_555
O7_3 C13_3 1_555 1_555
C14_3 O7_3 1_555 1_555
O6 Cd1 1_555 1_555
C4 H3 1_555 1_555
H4 C4 1_555 1_555
C5 C4 1_555 1_555
O1 C5 1_555 1_555
O6 C5 1_555 1_555
O3 C3 1_555 1_555
C11 H12 1_555 1_555
C12 C3 1_555 1_555
H13 C12 1_555 1_555
C4 O3 1_555 1_555
C11 C12 1_555 1_555
C4_2 H3_2 1_555 1_555
H4_2 C4_2 1_555 1_555
C5_2 C4_2 1_555 1_555
C6_2 H5_2 1_555 1_555
C7_2 H6_2 1_555 1_555
C8_2 C7_2 1_555 1_555
H7_2 C8_2 1_555 1_555
C9_3 H8_3 1_555 1_555
H9_3 C9_3 1_555 1_555
C10_3 C9_3 1_555 1_555
H10_3 C10_3 1_555 1_555
H11_3 C10_3 1_555 1_555
Cd1_2 N1 1_555 1_555
N1 C6_2 1_555 1_555
N2_2 C6_2 1_555 1_555
O1_2 C5_2 1_555 1_555
O2 C5_2 1_555 1_555
O3_2 C3_2 1_555 1_555
C12_2 C3_2 1_555 1_555
H13_2 C12_2 1_555 1_555
C16_3 H16_3 1_555 1_555
C19_2 H19_2 1_555 1_555
H20_2 C19_2 1_555 1_555
C20_2 C10_3 1_555 1_555
H21_2 C20_2 1_555 1_555
H22_2 C20_2 1_555 1_555
N4_2 Cd1_2 1_555 1_555
N5_3 C16_3 1_555 1_555
O6_2 Cd1_2 1_555 1_555
C4_2 O3_2 1_555 1_555
C7_2 N2_2 1_555 1_555
C8_2 N1 1_555 1_555
C9_3 N2_2 1_555 1_555
Cd1_2 O2 1_555 1_555
C19_2 C20_2 1_555 1_555
C19_2 N5_3 1_555 1_555
C4_3 H3_3 1_555 1_555
H4_3 C4_3 1_555 1_555
C5_3 C4_3 1_555 1_555
C6_3 H5_3 1_555 1_555
C7_3 H6_3 1_555 1_555
C8_3 C7_3 1_555 1_555
H7_3 C8_3 1_555 1_555
N4_2 C6_3 1_555 1_555
N2_3 C6_3 1_555 1_555
O1_3 C5_3 1_555 1_555
O6_2 C5_3 1_555 1_555
O3_3 C3_3 1_555 1_555
C11_2 H12_2 1_555 1_555
C12_3 C3_3 1_555 1_555
H13_3 C12_3 1_555 1_555
C19_3 H19_3 1_555 1_555
H20_3 C19_3 1_555 1_555
H21_3 C20_3 1_555 1_555
H22_3 C20_3 1_555 1_555
C4_3 O3_3 1_555 1_555
C7_3 N2_3 1_555 1_555
C8_3 N4_2 1_555 1_555
C11_2 C12_3 1_555 1_555
C19_3 C20_3 1_555 1_555
C17_3 H17_3 1_555 1_555
C18_3 C17_3 1_555 1_555
H18_3 C18_3 1_555 1_555
C18_3 N3_3 1_555 1_555
C1_3 H1_3 1_555 1_555
C7_4 H6_4 1_555 1_555
C8_4 C7_4 1_555 1_555
H7_4 C8_4 1_555 1_555
C8_4 N1_2 1_555 1_555
C6_4 H5_4 1_555 1_555
N2_4 C6_4 1_555 1_555
C19_4 H19_4 1_555 1_555
H20_4 C19_4 1_555 1_555
H21_4 C20_4 1_555 1_555
H22_4 C20_4 1_555 1_555
C19_4 C20_4 1_555 1_555
H2_4 C2_4 1_555 1_555
C13_4 C2_4 1_555 1_555
C14_4 H14_4 1_555 1_555
H15_4 C14_4 1_555 1_555
C15_4 C14_4 1_555 1_555
Cd2_2 O5_4 1_555 1_555
O4_4 C15_4 1_555 1_555
O5_4 C15_4 1_555 1_555
O7_4 C13_4 1_555 1_555
C14_4 O7_4 1_555 1_555
C4_4 H3_4 1_555 1_555
H4_4 C4_4 1_555 1_555
C5_4 C4_4 1_555 1_555
O1_4 C5_4 1_555 1_555
O2_2 C5_4 1_555 1_555
O3_4 C3_4 1_555 1_555
C12_4 C3_4 1_555 1_555
H13_4 C12_4 1_555 1_555
C4_4 O3_4 1_555 1_555
Cd1_3 O2_2 1_555 1_555
C11_3 H12_3 1_555 1_555
C17_4 H17_4 1_555 1_555
C18_4 C17_4 1_555 1_555
H18_4 C18_4 1_555 1_555
C18_4 N3_4 1_555 1_555
C9_4 H8_4 1_555 1_555
H9_4 C9_4 1_555 1_555
C10_4 C9_4 1_555 1_555
H10_4 C10_4 1_555 1_555
H11_4 C10_4 1_555 1_555
C16_4 H16_4 1_555 1_555
N5_4 C16_4 1_555 1_555
C11_4 H12_4 1_555 1_555
C1_4 H1_4 1_555 1_555

#END
