
###############################################################################
#
# This file contains modified crystal structure data generated from the
# MOF subset of the Cambridge Structural Database (CSD) v543 
# hosted by the Cambridge Crystallographic Data Centre (CCDC).
#
# This work is licensed under the Creative Commons
# Attribution-NonCommercial-ShareAlike 4.0 International License.
# To view a copy of this license, visit
# http://creativecommons.org/licenses/by-nc-sa/4.0/
# or send a letter to
# Creative Commons, PO Box 1866, Mountain View, CA 94042, USA.
#
# CIF created using the CSD Python API on 29 September 2022
# The structure has been converted into the P1 space group
# The structure has a 3D framework
# The original CSD entry DEGPEL is in the cubic crystal system
# The framework has been calculated to contain at least 10.0% void space
# The void calculation uses a probe of radius 1.32A, grid spacing 0.4
# The framework is charged, counterions have been retained in the structure
# H atom positions have been added when not included in the experimental data
# Generated hydrogen atom positions removed from atoms on special positions
#
###############################################################################

data_DEGPEL
_chemical_formula_moiety         '(C192 H480 Cu97 N312 O127 9-)n'
_symmetry_cell_setting           triclinic
_symmetry_space_group_name_H-M   'P 1'
_symmetry_Int_Tables_number      1
_space_group_name_Hall           'P 1'
loop_
_symmetry_equiv_pos_site_id
_symmetry_equiv_pos_as_xyz
1 x,y,z
_cell_length_a                   24.8200(5)
_cell_length_b                   24.8200(5)
_cell_length_c                   24.8200(5)
_cell_angle_alpha                90
_cell_angle_beta                 90
_cell_angle_gamma                90
_cell_volume                     15289.9
loop_
_atom_site_label
_atom_site_type_symbol
_atom_site_fract_x
_atom_site_fract_y
_atom_site_fract_z
Cu1 Cu 0.05655(3) 0.30655(3) 0.0000
O1 O 0.0000 0.2500 0.0000
Cu5 Cu 0.2500 0.44345(3) 0.05655(3)
Cu7 Cu -0.0000 0.44345(3) 0.19345(3)
Cu13 Cu 0.30655(3) 0.55655(3) 0.0000
C3 C 0.0312(2) 0.3824(2) 0.0925(2)
C6 C 0.1575(2) 0.3676(2) 0.0312(2)
H3 H 0.0577 0.4073 0.0836
H6 H 0.1664 0.3427 0.0577
N4 N 0.02043(19) 0.33970(19) 0.06356(19)
N7 N 0.18644(19) 0.41030(19) 0.02043(19)
N15 N 0.31356(19) 0.47957(19) 0.08970(19)
N18 N 0.00000(17) 0.38620(17) 0.1362
N19 N 0.1138 0.36380(17) 0.00000(17)
N24 N 0.25000(17) 0.3862 0.11380(17)
O2 O 0.2500 0.5000 0.0000
Cu1_2 Cu 0.05655(3) 0.30655(3) 1.0000
C1 C 0.1324(2) 0.2812(2) 0.9075(2)
H1 H 0.1573 0.3077 0.9164
N1 N 0.08970(19) 0.27043(19) 0.93644(19)
N2 N 0.13620(17) 0.25000(17) 0.8638
O1_2 O 0.0000 0.2500 1.0000
Cu2 Cu -0.0000 0.19345(3) 0.94345(3)
Cu4 Cu 0.19345(3) 0.5000 0.94345(3)
Cu6 Cu 0.19345(3) 0.2500 0.80655(3)
Cu9 Cu 0.05655(3) 0.0000 0.80655(3)
Cu13_2 Cu 0.30655(3) 0.55655(3) 1.0000
C2 C 0.0925(2) 0.2188(2) 0.8676(2)
C5 C 0.1176(2) 0.4075(2) 0.9688(2)
C9 C 0.0312(2) 0.0925(2) 0.8824(2)
H2 H 0.0836 0.1923 0.8427
H5 H 0.0927 0.4164 0.9423
H9 H 0.0577 0.0836 0.9073
N3 N 0.06356(19) 0.22957(19) 0.91030(19)
N6 N 0.16030(19) 0.43644(19) 0.97957(19)
N10 N 0.02043(19) 0.06356(19) 0.83970(19)
N14 N 0.22957(19) 0.56356(19) 0.91030(19)
N16 N 0.22957(19) 0.18644(19) 0.83970(19)
N17 N 0.16030(19) 0.31356(19) 0.77043(19)
N19_2 N 0.1138 0.36380(17) 1.00000(17)
N21 N -0.00000(17) 0.13620(17) 0.8862
N23 N 0.1362 0.50000(17) 0.88620(17)
O2_2 O 0.2500 0.5000 1.0000
O3 O 0.2500 0.2500 0.7500
Cu9_2 Cu 0.05655(3) 1.0000 0.80655(3)
O1_3 O 1.0000 0.2500 0.0000
Cu3 Cu 0.94345(3) 0.2500 0.05655(3)
Cu7_2 Cu 1.0000 0.44345(3) 0.19345(3)
Cu8 Cu 0.80655(3) 0.05655(3) 0.0000
Cu11 Cu 0.7500 0.30655(3) 0.19345(3)
Cu12 Cu 0.80655(3) 0.19345(3) 0.2500
C4 C 0.9688(2) 0.3425(2) 0.1324(2)
C8 C 0.8676(2) 0.1575(2) 0.0312(2)
C11 C 0.8425(2) 0.2812(2) 0.1176(2)
C12 C 0.8824(2) 0.2188(2) 0.1575(2)
H4 H 0.9423 0.3336 0.1573
H8 H 0.8427 0.1664 0.0577
H11 H 0.8336 0.3077 0.0927
H12 H 0.9073 0.1923 0.1664
N5 N 0.97957(19) 0.31356(19) 0.08970(19)
N9 N 0.91030(19) 0.18644(19) 0.02043(19)
N12 N 0.81356(19) 0.27043(19) 0.16030(19)
N13 N 0.83970(19) 0.22957(19) 0.18644(19)
N18_2 N 1.00000(17) 0.38620(17) 0.1362
N20 N 0.86380(17) 0.1138 0.00000(17)
N22 N 0.88620(17) 0.25000(17) 0.1138
O1_4 O 1.0000 0.2500 1.0000
Cu2_2 Cu 1.0000 0.19345(3) 0.94345(3)
Cu8_2 Cu 0.80655(3) 0.05655(3) 1.0000
Cu10 Cu 0.94345(3) 0.05655(3) 0.7500
C7 C 0.9075(2) 0.1176(2) 0.9688(2)
C10 C 0.9688(2) 0.1324(2) 0.8425(2)
H7 H 0.9164 0.0927 0.9423
H10 H 0.9423 0.1573 0.8336
N8 N 0.93644(19) 0.16030(19) 0.97957(19)
N11 N 0.97957(19) 0.08970(19) 0.81356(19)
N20_2 N 0.86380(17) 0.1138 1.00000(17)
N21_2 N 1.00000(17) 0.13620(17) 0.8862
Cu1_3 Cu -0.0000 0.05655(3) 0.30655(3)
O1_5 O 0.0000 0.0000 0.2500
Cu5_2 Cu 0.05655(3) 0.2500 0.44345(3)
Cu7_3 Cu 0.19345(3) -0.0000 0.44345(3)
Cu13_3 Cu 0.0000 0.30655(3) 0.55655(3)
C3_2 C 0.0925(2) 0.0312(2) 0.3824(2)
C6_2 C 0.0312(2) 0.1575(2) 0.3676(2)
H3_2 H 0.0836 0.0577 0.4073
H6_2 H 0.0577 0.1664 0.3427
N4_2 N 0.06356(19) 0.02043(19) 0.33970(19)
N7_2 N 0.02043(19) 0.18644(19) 0.41030(19)
N15_2 N 0.08970(19) 0.31356(19) 0.47957(19)
N18_3 N 0.1362 0.00000(17) 0.38620(17)
N19_3 N -0.00000(17) 0.1138 0.36380(17)
N24_2 N 0.11380(17) 0.25000(17) 0.3862
O2_3 O 0.0000 0.2500 0.5000
O1_6 O 0.0000 1.0000 0.2500
Cu3_2 Cu 0.05655(3) 0.94345(3) 0.2500
Cu7_4 Cu 0.19345(3) 1.0000 0.44345(3)
Cu8_3 Cu 0.0000 0.80655(3) 0.05655(3)
Cu11_2 Cu 0.19345(3) 0.7500 0.30655(3)
Cu12_2 Cu 0.2500 0.80655(3) 0.19345(3)
C4_2 C 0.1324(2) 0.9688(2) 0.3425(2)
C8_2 C 0.0312(2) 0.8676(2) 0.1575(2)
C11_2 C 0.1176(2) 0.8425(2) 0.2812(2)
C12_2 C 0.1575(2) 0.8824(2) 0.2188(2)
H4_2 H 0.1573 0.9423 0.3336
H8_2 H 0.0577 0.8427 0.1664
H11_2 H 0.0927 0.8336 0.3077
H12_2 H 0.1664 0.9073 0.1923
N5_2 N 0.08970(19) 0.97957(19) 0.31356(19)
N9_2 N 0.02043(19) 0.91030(19) 0.18644(19)
N12_2 N 0.16030(19) 0.81356(19) 0.27043(19)
N13_2 N 0.18644(19) 0.83970(19) 0.22957(19)
N18_4 N 0.1362 1.00000(17) 0.38620(17)
N20_3 N -0.00000(17) 0.86380(17) 0.1138
N22_2 N 0.1138 0.88620(17) 0.25000(17)
Cu1_4 Cu 1.0000 0.05655(3) 0.30655(3)
C1_2 C 0.9075(2) 0.1324(2) 0.2812(2)
H1_2 H 0.9164 0.1573 0.3077
N1_2 N 0.93644(19) 0.08970(19) 0.27043(19)
N2_2 N 0.8638 0.13620(17) 0.25000(17)
O1_7 O 1.0000 0.0000 0.2500
Cu2_3 Cu 0.94345(3) 0.0000 0.19345(3)
Cu4_2 Cu 0.94345(3) 0.19345(3) 0.5000
Cu13_4 Cu 1.0000 0.30655(3) 0.55655(3)
C2_2 C 0.8676(2) 0.0925(2) 0.2188(2)
C5_2 C 0.9688(2) 0.1176(2) 0.4075(2)
C9_2 C 0.8824(2) 0.0312(2) 0.0925(2)
H2_2 H 0.8427 0.0836 0.1923
H5_2 H 0.9423 0.0927 0.4164
H9_2 H 0.9073 0.0577 0.0836
N3_2 N 0.91030(19) 0.06356(19) 0.22957(19)
N6_2 N 0.97957(19) 0.16030(19) 0.43644(19)
N10_2 N 0.83970(19) 0.02043(19) 0.06356(19)
N14_2 N 0.91030(19) 0.22957(19) 0.56356(19)
N17_2 N 0.77043(19) 0.16030(19) 0.31356(19)
N19_4 N 1.00000(17) 0.1138 0.36380(17)
N21_3 N 0.8862 0.00000(17) 0.13620(17)
N23_2 N 0.88620(17) 0.1362 0.50000(17)
O2_4 O 1.0000 0.2500 0.5000
O3_2 O 0.7500 0.2500 0.2500
O1_8 O 1.0000 1.0000 0.2500
Cu2_4 Cu 0.94345(3) 1.0000 0.19345(3)
Cu8_4 Cu 1.0000 0.80655(3) 0.05655(3)
Cu10_2 Cu 0.7500 0.94345(3) 0.05655(3)
C7_2 C 0.9688(2) 0.9075(2) 0.1176(2)
C10_2 C 0.8425(2) 0.9688(2) 0.1324(2)
H7_2 H 0.9423 0.9164 0.0927
H10_2 H 0.8336 0.9423 0.1573
N8_2 N 0.97957(19) 0.93644(19) 0.16030(19)
N11_2 N 0.81356(19) 0.97957(19) 0.08970(19)
N20_4 N 1.00000(17) 0.86380(17) 0.1138
N21_4 N 0.8862 1.00000(17) 0.13620(17)
Cu1_5 Cu 0.30655(3) 0.0000 0.05655(3)
O1_9 O 0.2500 0.0000 0.0000
Cu5_3 Cu 0.44345(3) 0.05655(3) 0.2500
Cu7_5 Cu 0.44345(3) 0.19345(3) -0.0000
Cu13_5 Cu 0.55655(3) 0.0000 0.30655(3)
C3_3 C 0.3824(2) 0.0925(2) 0.0312(2)
C6_3 C 0.3676(2) 0.0312(2) 0.1575(2)
H3_3 H 0.4073 0.0836 0.0577
H6_3 H 0.3427 0.0577 0.1664
N4_3 N 0.33970(19) 0.06356(19) 0.02043(19)
N7_3 N 0.41030(19) 0.02043(19) 0.18644(19)
N15_3 N 0.47957(19) 0.08970(19) 0.31356(19)
N18_5 N 0.38620(17) 0.1362 0.00000(17)
N19_5 N 0.36380(17) 0.00000(17) 0.1138
N24_3 N 0.3862 0.11380(17) 0.25000(17)
O2_5 O 0.5000 0.0000 0.2500
O1_10 O 0.2500 0.0000 1.0000
Cu3_3 Cu 0.2500 0.05655(3) 0.94345(3)
Cu7_6 Cu 0.44345(3) 0.19345(3) 1.0000
Cu11_3 Cu 0.30655(3) 0.19345(3) 0.7500
C4_3 C 0.3425(2) 0.1324(2) 0.9688(2)
C8_3 C 0.1575(2) 0.0312(2) 0.8676(2)
C11_3 C 0.2812(2) 0.1176(2) 0.8425(2)
C12_3 C 0.2188(2) 0.1575(2) 0.8824(2)
H4_3 H 0.3336 0.1573 0.9423
H8_3 H 0.1664 0.0577 0.8427
H11_3 H 0.3077 0.0927 0.8336
H12_3 H 0.1923 0.1664 0.9073
N5_3 N 0.31356(19) 0.08970(19) 0.97957(19)
N9_3 N 0.18644(19) 0.02043(19) 0.91030(19)
N12_3 N 0.27043(19) 0.16030(19) 0.81356(19)
N18_6 N 0.38620(17) 0.1362 1.00000(17)
N20_5 N 0.1138 0.00000(17) 0.86380(17)
N22_3 N 0.25000(17) 0.1138 0.88620(17)
Cu1_6 Cu 0.30655(3) 1.0000 0.05655(3)
C1_3 C 0.2812(2) 0.9075(2) 0.1324(2)
H1_3 H 0.3077 0.9164 0.1573
N1_3 N 0.27043(19) 0.93644(19) 0.08970(19)
N2_3 N 0.25000(17) 0.8638 0.13620(17)
O1_11 O 0.2500 1.0000 0.0000
Cu2_5 Cu 0.19345(3) 0.94345(3) -0.0000
Cu4_3 Cu 0.5000 0.94345(3) 0.19345(3)
Cu13_6 Cu 0.55655(3) 1.0000 0.30655(3)
C2_3 C 0.2188(2) 0.8676(2) 0.0925(2)
C5_3 C 0.4075(2) 0.9688(2) 0.1176(2)
C9_3 C 0.0925(2) 0.8824(2) 0.0312(2)
H2_3 H 0.1923 0.8427 0.0836
H5_3 H 0.4164 0.9423 0.0927
H9_3 H 0.0836 0.9073 0.0577
N3_3 N 0.22957(19) 0.91030(19) 0.06356(19)
N6_3 N 0.43644(19) 0.97957(19) 0.16030(19)
N10_3 N 0.06356(19) 0.83970(19) 0.02043(19)
N14_3 N 0.56356(19) 0.91030(19) 0.22957(19)
N17_3 N 0.31356(19) 0.77043(19) 0.16030(19)
N19_6 N 0.36380(17) 1.00000(17) 0.1138
N21_5 N 0.13620(17) 0.8862 0.00000(17)
N23_3 N 0.50000(17) 0.88620(17) 0.1362
O2_6 O 0.5000 1.0000 0.2500
O3_3 O 0.2500 0.7500 0.2500
O1_12 O 0.2500 1.0000 1.0000
Cu2_6 Cu 0.19345(3) 0.94345(3) 1.0000
Cu10_3 Cu 0.05655(3) 0.7500 0.94345(3)
C7_3 C 0.1176(2) 0.9688(2) 0.9075(2)
C10_3 C 0.1324(2) 0.8425(2) 0.9688(2)
H7_3 H 0.0927 0.9423 0.9164
H10_3 H 0.1573 0.8336 0.9423
N8_3 N 0.16030(19) 0.97957(19) 0.93644(19)
N11_3 N 0.08970(19) 0.81356(19) 0.97957(19)
N20_6 N 0.1138 1.00000(17) 0.86380(17)
N21_6 N 0.13620(17) 0.8862 1.00000(17)
N17_4 N 0.06356(19) 0.41030(19) 0.22957(19)
O3_4 O 0.0000 0.5000 0.2500
N16_2 N 0.93644(19) 0.47957(19) 0.16030(19)
O3_5 O 1.0000 0.5000 0.2500
O1_13 O 0.5000 0.0000 0.7500
Cu2_7 Cu 0.44345(3) 0.0000 0.69345(3)
Cu3_4 Cu 0.5000 0.05655(3) 0.80655(3)
Cu7_7 Cu 0.69345(3) 0.0000 0.94345(3)
Cu10_4 Cu 0.30655(3) 0.05655(3) 0.5000
Cu11_4 Cu 0.55655(3) 0.2500 0.94345(3)
C4_4 C 0.5925(2) 0.0312(2) 0.8824(2)
C7_4 C 0.3676(2) 0.0925(2) 0.7188(2)
C8_4 C 0.4075(2) 0.1324(2) 0.7812(2)
C10_4 C 0.3824(2) 0.0312(2) 0.5925(2)
C11_4 C 0.5312(2) 0.1575(2) 0.8676(2)
C12_4 C 0.4688(2) 0.1176(2) 0.9075(2)
H4_4 H 0.5836 0.0577 0.9073
H7_4 H 0.3427 0.0836 0.6923
H8_4 H 0.4164 0.1573 0.8077
H10_4 H 0.4073 0.0577 0.5836
H11_4 H 0.5577 0.1664 0.8427
H12_4 H 0.4423 0.0927 0.9164
N5_4 N 0.56356(19) 0.02043(19) 0.83970(19)
N8_4 N 0.41030(19) 0.06356(19) 0.72957(19)
N9_4 N 0.43644(19) 0.08970(19) 0.77043(19)
N11_4 N 0.33970(19) 0.02043(19) 0.56356(19)
N12_4 N 0.52043(19) 0.18644(19) 0.91030(19)
N13_3 N 0.47957(19) 0.16030(19) 0.93644(19)
N18_7 N 0.63620(17) 0.00000(17) 0.8862
N20_7 N 0.3638 0.13620(17) 0.75000(17)
N21_7 N 0.38620(17) 0.00000(17) 0.6362
N22_4 N 0.50000(17) 0.11380(17) 0.8638
Cu1_7 Cu 0.55655(3) 0.94345(3) 0.7500
C1_4 C 0.5312(2) 0.8676(2) 0.6575(2)
H1_4 H 0.5577 0.8427 0.6664
N1_4 N 0.52043(19) 0.91030(19) 0.68644(19)
N2_4 N 0.50000(17) 0.86380(17) 0.6138
O1_14 O 0.5000 1.0000 0.7500
Cu2_8 Cu 0.44345(3) 1.0000 0.69345(3)
Cu4_4 Cu 0.7500 0.80655(3) 0.69345(3)
Cu5_4 Cu 0.69345(3) 0.7500 0.80655(3)
Cu6_2 Cu 0.5000 0.80655(3) 0.55655(3)
Cu7_8 Cu 0.69345(3) 1.0000 0.94345(3)
Cu9_3 Cu 0.2500 0.94345(3) 0.55655(3)
Cu13_7 Cu 0.80655(3) 0.69345(3) 0.7500
C2_4 C 0.4688(2) 0.9075(2) 0.6176(2)
C3_4 C 0.6324(2) 0.9688(2) 0.8425(2)
C5_4 C 0.6575(2) 0.8824(2) 0.7188(2)
C6_4 C 0.6176(2) 0.8425(2) 0.7812(2)
C9_4 C 0.3425(2) 0.9688(2) 0.6324(2)
H2_4 H 0.4423 0.9164 0.5927
H3_4 H 0.6573 0.9423 0.8336
H5_4 H 0.6664 0.9073 0.6923
H6_4 H 0.5927 0.8336 0.8077
H9_4 H 0.3336 0.9423 0.6573
N3_4 N 0.47957(19) 0.93644(19) 0.66030(19)
N4_4 N 0.58970(19) 0.97957(19) 0.81356(19)
N6_4 N 0.68644(19) 0.83970(19) 0.72957(19)
N7_4 N 0.66030(19) 0.81356(19) 0.77043(19)
N10_4 N 0.31356(19) 0.97957(19) 0.58970(19)
N14_4 N 0.81356(19) 0.77043(19) 0.66030(19)
N15_4 N 0.72957(19) 0.68644(19) 0.83970(19)
N16_3 N 0.43644(19) 0.77043(19) 0.58970(19)
N17_5 N 0.56356(19) 0.83970(19) 0.52043(19)
N18_8 N 0.63620(17) 1.00000(17) 0.8862
N19_7 N 0.61380(17) 0.8862 0.75000(17)
N21_8 N 0.38620(17) 1.00000(17) 0.6362
N23_4 N 0.75000(17) 0.8638 0.63620(17)
N24_4 N 0.6362 0.75000(17) 0.86380(17)
O2_7 O 0.7500 0.7500 0.7500
O3_6 O 0.5000 0.7500 0.5000
N15_5 N 0.52043(19) 0.06356(19) 0.33970(19)
N24_5 N 0.6138 0.00000(17) 0.36380(17)
O3_7 O 0.7500 0.0000 0.0000
O3_8 O 0.7500 0.0000 1.0000
Cu1_8 Cu 0.69345(3) 0.80655(3) 0.2500
C1_5 C 0.7188(2) 0.8824(2) 0.1575(2)
H1_5 H 0.6923 0.9073 0.1664
N1_5 N 0.72957(19) 0.83970(19) 0.18644(19)
N2_5 N 0.75000(17) 0.88620(17) 0.1138
O1_15 O 0.7500 0.7500 0.2500
Cu2_9 Cu 0.80655(3) 0.7500 0.19345(3)
Cu3_5 Cu 0.7500 0.69345(3) 0.30655(3)
Cu7_9 Cu 0.55655(3) 0.7500 0.44345(3)
Cu8_5 Cu 0.94345(3) 0.55655(3) 0.2500
Cu10_5 Cu 0.94345(3) 0.69345(3) 0.0000
Cu11_5 Cu 0.69345(3) 0.5000 0.44345(3)
Cu12_3 Cu 0.80655(3) 0.55655(3) 0.5000
C2_5 C 0.7812(2) 0.8425(2) 0.1176(2)
C3_5 C 0.6176(2) 0.7812(2) 0.3425(2)
C4_5 C 0.6575(2) 0.7188(2) 0.3824(2)
C5_5 C 0.5925(2) 0.8676(2) 0.2188(2)
C6_5 C 0.6324(2) 0.9075(2) 0.2812(2)
C7_5 C 0.8824(2) 0.6575(2) 0.2188(2)
C8_5 C 0.8425(2) 0.6176(2) 0.2812(2)
C9_5 C 0.9075(2) 0.7812(2) 0.1324(2)
C10_5 C 0.8676(2) 0.7188(2) 0.0925(2)
C11_5 C 0.7188(2) 0.5925(2) 0.3676(2)
C12_5 C 0.7812(2) 0.6324(2) 0.4075(2)
H2_5 H 0.8077 0.8336 0.0927
H3_5 H 0.5927 0.8077 0.3336
H4_5 H 0.6664 0.6923 0.4073
H5_5 H 0.5836 0.8427 0.1923
H6_5 H 0.6573 0.9164 0.3077
H7_5 H 0.9073 0.6664 0.1923
H8_5 H 0.8336 0.5927 0.3077
H9_5 H 0.9164 0.8077 0.1573
H10_5 H 0.8427 0.6923 0.0836
H11_5 H 0.6923 0.5836 0.3427
H12_5 H 0.8077 0.6573 0.4164
N3_5 N 0.77043(19) 0.81356(19) 0.16030(19)
N4_5 N 0.66030(19) 0.77043(19) 0.31356(19)
N5_5 N 0.68644(19) 0.72957(19) 0.33970(19)
N7_5 N 0.58970(19) 0.93644(19) 0.27043(19)
N8_5 N 0.83970(19) 0.68644(19) 0.22957(19)
N9_5 N 0.81356(19) 0.66030(19) 0.27043(19)
N10_5 N 0.93644(19) 0.77043(19) 0.08970(19)
N11_5 N 0.91030(19) 0.72957(19) 0.06356(19)
N12_5 N 0.72957(19) 0.56356(19) 0.41030(19)
N13_4 N 0.77043(19) 0.58970(19) 0.43644(19)
N17_6 N 0.68644(19) 0.91030(19) 0.02043(19)
N18_9 N 0.61380(17) 0.75000(17) 0.3862
N19_8 N 0.63620(17) 0.8638 0.25000(17)
N20_8 N 0.8862 0.61380(17) 0.25000(17)
N21_9 N 0.86380(17) 0.75000(17) 0.1362
N22_5 N 0.75000(17) 0.63620(17) 0.3638
N24_6 N 0.6138 1.00000(17) 0.36380(17)
O3_9 O 0.7500 1.0000 0.0000
Cu10_6 Cu 0.94345(3) 0.69345(3) 1.0000
O3_10 O 0.7500 1.0000 1.0000
N15_6 N 0.06356(19) 0.33970(19) 0.52043(19)
N24_7 N 0.00000(17) 0.36380(17) 0.6138
O3_11 O 0.0000 0.0000 0.7500
O3_12 O 0.0000 1.0000 0.7500
Cu1_9 Cu 0.80655(3) 0.2500 0.69345(3)
C1_6 C 0.8824(2) 0.1575(2) 0.7188(2)
H1_6 H 0.9073 0.1664 0.6923
N1_6 N 0.83970(19) 0.18644(19) 0.72957(19)
N2_6 N 0.88620(17) 0.1138 0.75000(17)
O1_16 O 0.7500 0.2500 0.7500
Cu2_10 Cu 0.7500 0.19345(3) 0.80655(3)
Cu3_6 Cu 0.69345(3) 0.30655(3) 0.7500
Cu7_10 Cu 0.7500 0.44345(3) 0.55655(3)
Cu11_6 Cu 0.5000 0.44345(3) 0.69345(3)
Cu12_4 Cu 0.55655(3) 0.5000 0.80655(3)
C2_6 C 0.8425(2) 0.1176(2) 0.7812(2)
C3_6 C 0.7812(2) 0.3425(2) 0.6176(2)
C4_6 C 0.7188(2) 0.3824(2) 0.6575(2)
C5_6 C 0.8676(2) 0.2188(2) 0.5925(2)
C6_6 C 0.9075(2) 0.2812(2) 0.6324(2)
C7_6 C 0.6575(2) 0.2188(2) 0.8824(2)
C8_6 C 0.6176(2) 0.2812(2) 0.8425(2)
C9_6 C 0.7812(2) 0.1324(2) 0.9075(2)
C10_6 C 0.7188(2) 0.0925(2) 0.8676(2)
C11_6 C 0.5925(2) 0.3676(2) 0.7188(2)
C12_6 C 0.6324(2) 0.4075(2) 0.7812(2)
H2_6 H 0.8336 0.0927 0.8077
H3_6 H 0.8077 0.3336 0.5927
H4_6 H 0.6923 0.4073 0.6664
H5_6 H 0.8427 0.1923 0.5836
H6_6 H 0.9164 0.3077 0.6573
H7_6 H 0.6664 0.1923 0.9073
H8_6 H 0.5927 0.3077 0.8336
H9_6 H 0.8077 0.1573 0.9164
H10_6 H 0.6923 0.0836 0.8427
H11_6 H 0.5836 0.3427 0.6923
H12_6 H 0.6573 0.4164 0.8077
N3_6 N 0.81356(19) 0.16030(19) 0.77043(19)
N4_6 N 0.77043(19) 0.31356(19) 0.66030(19)
N5_6 N 0.72957(19) 0.33970(19) 0.68644(19)
N7_6 N 0.93644(19) 0.27043(19) 0.58970(19)
N8_6 N 0.68644(19) 0.22957(19) 0.83970(19)
N9_6 N 0.66030(19) 0.27043(19) 0.81356(19)
N10_6 N 0.77043(19) 0.08970(19) 0.93644(19)
N11_6 N 0.72957(19) 0.06356(19) 0.91030(19)
N12_6 N 0.56356(19) 0.41030(19) 0.72957(19)
N13_5 N 0.58970(19) 0.43644(19) 0.77043(19)
N17_7 N 0.91030(19) 0.02043(19) 0.68644(19)
N18_10 N 0.75000(17) 0.3862 0.61380(17)
N19_9 N 0.8638 0.25000(17) 0.63620(17)
N20_9 N 0.61380(17) 0.25000(17) 0.8862
N21_10 N 0.75000(17) 0.1362 0.86380(17)
N22_6 N 0.63620(17) 0.3638 0.75000(17)
N24_8 N 1.00000(17) 0.36380(17) 0.6138
O3_13 O 1.0000 0.0000 0.7500
O3_14 O 1.0000 1.0000 0.7500
O1_17 O 0.0000 0.7500 0.5000
Cu2_11 Cu -0.0000 0.69345(3) 0.44345(3)
Cu3_7 Cu 0.05655(3) 0.80655(3) 0.5000
Cu7_11 Cu 0.0000 0.94345(3) 0.69345(3)
Cu10_7 Cu 0.05655(3) 0.5000 0.30655(3)
C4_7 C 0.0312(2) 0.8824(2) 0.5925(2)
C7_7 C 0.0925(2) 0.7188(2) 0.3676(2)
C8_7 C 0.1324(2) 0.7812(2) 0.4075(2)
C10_7 C 0.0312(2) 0.5925(2) 0.3824(2)
C11_7 C 0.1575(2) 0.8676(2) 0.5312(2)
C12_7 C 0.1176(2) 0.9075(2) 0.4688(2)
H4_7 H 0.0577 0.9073 0.5836
H7_7 H 0.0836 0.6923 0.3427
H8_7 H 0.1573 0.8077 0.4164
H10_7 H 0.0577 0.5836 0.4073
H11_7 H 0.1664 0.8427 0.5577
H12_7 H 0.0927 0.9164 0.4423
N5_7 N 0.02043(19) 0.83970(19) 0.56356(19)
N8_7 N 0.06356(19) 0.72957(19) 0.41030(19)
N9_7 N 0.08970(19) 0.77043(19) 0.43644(19)
N11_7 N 0.02043(19) 0.56356(19) 0.33970(19)
N12_7 N 0.18644(19) 0.91030(19) 0.52043(19)
N13_6 N 0.16030(19) 0.93644(19) 0.47957(19)
N18_11 N -0.00000(17) 0.8862 0.63620(17)
N20_10 N 0.13620(17) 0.75000(17) 0.3638
N21_11 N 0.00000(17) 0.6362 0.38620(17)
N22_7 N 0.11380(17) 0.8638 0.50000(17)
Cu1_10 Cu 0.94345(3) 0.7500 0.55655(3)
C1_7 C 0.8676(2) 0.6575(2) 0.5312(2)
H1_7 H 0.8427 0.6664 0.5577
N1_7 N 0.91030(19) 0.68644(19) 0.52043(19)
N2_7 N 0.86380(17) 0.6138 0.50000(17)
O1_18 O 1.0000 0.7500 0.5000
Cu2_12 Cu 1.0000 0.69345(3) 0.44345(3)
Cu7_12 Cu 1.0000 0.94345(3) 0.69345(3)
C2_7 C 0.9075(2) 0.6176(2) 0.4688(2)
C3_7 C 0.9688(2) 0.8425(2) 0.6324(2)
C5_7 C 0.8824(2) 0.7188(2) 0.6575(2)
C6_7 C 0.8425(2) 0.7812(2) 0.6176(2)
C9_7 C 0.9688(2) 0.6324(2) 0.3425(2)
H2_7 H 0.9164 0.5927 0.4423
H3_7 H 0.9423 0.8336 0.6573
H5_7 H 0.9073 0.6923 0.6664
H6_7 H 0.8336 0.8077 0.5927
H9_7 H 0.9423 0.6573 0.3336
N3_7 N 0.93644(19) 0.66030(19) 0.47957(19)
N4_7 N 0.97957(19) 0.81356(19) 0.58970(19)
N6_5 N 0.83970(19) 0.72957(19) 0.68644(19)
N10_7 N 0.97957(19) 0.58970(19) 0.31356(19)
N14_5 N 0.77043(19) 0.66030(19) 0.81356(19)
N17_8 N 0.83970(19) 0.52043(19) 0.56356(19)
N18_12 N 1.00000(17) 0.8862 0.63620(17)
N19_10 N 0.8862 0.75000(17) 0.61380(17)
N21_12 N 1.00000(17) 0.6362 0.38620(17)
N23_5 N 0.8638 0.63620(17) 0.75000(17)
O3_15 O 0.7500 0.5000 0.5000
N17_9 N 0.41030(19) 0.22957(19) 0.06356(19)
O3_16 O 0.5000 0.2500 0.0000
O3_17 O 0.5000 0.2500 1.0000
O1_19 O 0.7500 0.5000 0.0000
Cu2_13 Cu 0.69345(3) 0.44345(3) 0.0000
Cu3_8 Cu 0.80655(3) 0.5000 0.05655(3)
Cu10_8 Cu 0.5000 0.30655(3) 0.05655(3)
C4_8 C 0.8824(2) 0.5925(2) 0.0312(2)
C7_8 C 0.7188(2) 0.3676(2) 0.0925(2)
C8_8 C 0.7812(2) 0.4075(2) 0.1324(2)
C10_8 C 0.5925(2) 0.3824(2) 0.0312(2)
C11_8 C 0.8676(2) 0.5312(2) 0.1575(2)
C12_8 C 0.9075(2) 0.4688(2) 0.1176(2)
H4_8 H 0.9073 0.5836 0.0577
H7_8 H 0.6923 0.3427 0.0836
H8_8 H 0.8077 0.4164 0.1573
H10_8 H 0.5836 0.4073 0.0577
H11_8 H 0.8427 0.5577 0.1664
H12_8 H 0.9164 0.4423 0.0927
N5_8 N 0.83970(19) 0.56356(19) 0.02043(19)
N8_8 N 0.72957(19) 0.41030(19) 0.06356(19)
N9_8 N 0.77043(19) 0.43644(19) 0.08970(19)
N11_8 N 0.56356(19) 0.33970(19) 0.02043(19)
N12_8 N 0.91030(19) 0.52043(19) 0.18644(19)
N18_13 N 0.8862 0.63620(17) -0.00000(17)
N20_11 N 0.75000(17) 0.3638 0.13620(17)
N21_13 N 0.6362 0.38620(17) 0.00000(17)
N22_8 N 0.8638 0.50000(17) 0.11380(17)
Cu1_11 Cu 0.7500 0.55655(3) 0.94345(3)
C1_8 C 0.6575(2) 0.5312(2) 0.8676(2)
H1_8 H 0.6664 0.5577 0.8427
N1_8 N 0.68644(19) 0.52043(19) 0.91030(19)
N2_8 N 0.6138 0.50000(17) 0.86380(17)
O1_20 O 0.7500 0.5000 1.0000
Cu2_14 Cu 0.69345(3) 0.44345(3) 1.0000
C2_8 C 0.6176(2) 0.4688(2) 0.9075(2)
C3_8 C 0.8425(2) 0.6324(2) 0.9688(2)
C5_8 C 0.7188(2) 0.6575(2) 0.8824(2)
C6_8 C 0.7812(2) 0.6176(2) 0.8425(2)
C9_8 C 0.6324(2) 0.3425(2) 0.9688(2)
H2_8 H 0.5927 0.4423 0.9164
H3_8 H 0.8336 0.6573 0.9423
H5_8 H 0.6923 0.6664 0.9073
H6_8 H 0.8077 0.5927 0.8336
H9_8 H 0.6573 0.3336 0.9423
N3_8 N 0.66030(19) 0.47957(19) 0.93644(19)
N4_8 N 0.81356(19) 0.58970(19) 0.97957(19)
N10_8 N 0.58970(19) 0.31356(19) 0.97957(19)
N17_10 N 0.52043(19) 0.56356(19) 0.83970(19)
N18_14 N 0.8862 0.63620(17) 1.00000(17)
N19_11 N 0.75000(17) 0.61380(17) 0.8862
N21_14 N 0.6362 0.38620(17) 1.00000(17)
O3_18 O 0.5000 0.5000 0.7500
N15_7 N 0.33970(19) 0.52043(19) 0.06356(19)
N24_9 N 0.36380(17) 0.6138 0.00000(17)
O3_19 O 0.0000 0.7500 0.0000
Cu1_12 Cu 0.2500 0.69345(3) 0.80655(3)
C1_9 C 0.1575(2) 0.7188(2) 0.8824(2)
H1_9 H 0.1664 0.6923 0.9073
N1_9 N 0.18644(19) 0.72957(19) 0.83970(19)
N2_9 N 0.1138 0.75000(17) 0.88620(17)
O1_21 O 0.2500 0.7500 0.7500
Cu2_15 Cu 0.19345(3) 0.80655(3) 0.7500
Cu3_9 Cu 0.30655(3) 0.7500 0.69345(3)
Cu7_13 Cu 0.44345(3) 0.55655(3) 0.7500
Cu11_7 Cu 0.44345(3) 0.69345(3) 0.5000
C2_9 C 0.1176(2) 0.7812(2) 0.8425(2)
C3_9 C 0.3425(2) 0.6176(2) 0.7812(2)
C4_9 C 0.3824(2) 0.6575(2) 0.7188(2)
C5_9 C 0.2188(2) 0.5925(2) 0.8676(2)
C6_9 C 0.2812(2) 0.6324(2) 0.9075(2)
C7_9 C 0.2188(2) 0.8824(2) 0.6575(2)
C8_9 C 0.2812(2) 0.8425(2) 0.6176(2)
C9_9 C 0.1324(2) 0.9075(2) 0.7812(2)
C10_9 C 0.0925(2) 0.8676(2) 0.7188(2)
C11_9 C 0.3676(2) 0.7188(2) 0.5925(2)
C12_9 C 0.4075(2) 0.7812(2) 0.6324(2)
H2_9 H 0.0927 0.8077 0.8336
H3_9 H 0.3336 0.5927 0.8077
H4_9 H 0.4073 0.6664 0.6923
H5_9 H 0.1923 0.5836 0.8427
H6_9 H 0.3077 0.6573 0.9164
H7_9 H 0.1923 0.9073 0.6664
H8_9 H 0.3077 0.8336 0.5927
H9_9 H 0.1573 0.9164 0.8077
H10_9 H 0.0836 0.8427 0.6923
H11_9 H 0.3427 0.6923 0.5836
H12_9 H 0.4164 0.8077 0.6573
N3_9 N 0.16030(19) 0.77043(19) 0.81356(19)
N4_9 N 0.31356(19) 0.66030(19) 0.77043(19)
N5_9 N 0.33970(19) 0.68644(19) 0.72957(19)
N7_7 N 0.27043(19) 0.58970(19) 0.93644(19)
N8_9 N 0.22957(19) 0.83970(19) 0.68644(19)
N9_9 N 0.27043(19) 0.81356(19) 0.66030(19)
N10_9 N 0.08970(19) 0.93644(19) 0.77043(19)
N11_9 N 0.06356(19) 0.91030(19) 0.72957(19)
N12_9 N 0.41030(19) 0.72957(19) 0.56356(19)
N17_11 N 0.02043(19) 0.68644(19) 0.91030(19)
N18_15 N 0.3862 0.61380(17) 0.75000(17)
N19_12 N 0.25000(17) 0.63620(17) 0.8638
N20_12 N 0.25000(17) 0.8862 0.61380(17)
N21_15 N 0.1362 0.86380(17) 0.75000(17)
N22_9 N 0.3638 0.75000(17) 0.63620(17)
N24_10 N 0.36380(17) 0.6138 1.00000(17)
O3_20 O 0.0000 0.7500 1.0000
O3_21 O 1.0000 0.7500 0.0000
O3_22 O 1.0000 0.7500 1.0000
N17_12 N 0.22957(19) 0.06356(19) 0.41030(19)
O3_23 O 0.2500 0.0000 0.5000
O3_24 O 0.2500 1.0000 0.5000
N16_4 N 0.22957(19) 0.68644(19) 0.33970(19)
Cu1_13 Cu 0.0000 0.55655(3) 0.80655(3)
O1_22 O 0.0000 0.5000 0.7500
Cu3_10 Cu 0.05655(3) 0.44345(3) 0.7500
Cu12_5 Cu 0.2500 0.30655(3) 0.69345(3)
C3_10 C 0.0925(2) 0.5312(2) 0.8824(2)
C4_10 C 0.1324(2) 0.4688(2) 0.8425(2)
C6_10 C 0.0312(2) 0.6575(2) 0.8676(2)
C8_10 C 0.0312(2) 0.3676(2) 0.6575(2)
C11_10 C 0.1176(2) 0.3425(2) 0.7812(2)
C12_10 C 0.1575(2) 0.3824(2) 0.7188(2)
H3_10 H 0.0836 0.5577 0.9073
H4_10 H 0.1573 0.4423 0.8336
H6_10 H 0.0577 0.6664 0.8427
H8_10 H 0.0577 0.3427 0.6664
H11_10 H 0.0927 0.3336 0.8077
H12_10 H 0.1664 0.4073 0.6923
N4_10 N 0.06356(19) 0.52043(19) 0.83970(19)
N5_10 N 0.08970(19) 0.47957(19) 0.81356(19)
N9_10 N 0.02043(19) 0.41030(19) 0.68644(19)
N13_7 N 0.18644(19) 0.33970(19) 0.72957(19)
N19_13 N 0.00000(17) 0.6138 0.86380(17)
N22_10 N 0.1138 0.38620(17) 0.75000(17)
Cu1_14 Cu 1.0000 0.55655(3) 0.80655(3)
C1_10 C 0.9075(2) 0.6324(2) 0.7812(2)
H1_10 H 0.9164 0.6573 0.8077
N1_10 N 0.93644(19) 0.58970(19) 0.77043(19)
O1_23 O 1.0000 0.5000 0.7500
Cu2_16 Cu 0.94345(3) 0.5000 0.69345(3)
C2_10 C 0.8676(2) 0.5925(2) 0.7188(2)
C5_10 C 0.9688(2) 0.6176(2) 0.9075(2)
C7_10 C 0.9688(2) 0.4075(2) 0.6176(2)
C9_10 C 0.8824(2) 0.5312(2) 0.5925(2)
C10_10 C 0.8425(2) 0.4688(2) 0.6324(2)
H2_10 H 0.8427 0.5836 0.6923
H5_10 H 0.9423 0.5927 0.9164
H7_10 H 0.9423 0.4164 0.5927
H9_10 H 0.9073 0.5577 0.5836
H10_10 H 0.8336 0.4423 0.6573
N3_10 N 0.91030(19) 0.56356(19) 0.72957(19)
N6_6 N 0.97957(19) 0.66030(19) 0.93644(19)
N8_10 N 0.97957(19) 0.43644(19) 0.66030(19)
N11_10 N 0.81356(19) 0.47957(19) 0.58970(19)
N19_14 N 1.00000(17) 0.6138 0.86380(17)
N21_16 N 0.8862 0.50000(17) 0.63620(17)
Cu1_15 Cu 0.2500 0.19345(3) 0.30655(3)
C1_11 C 0.3425(2) 0.1176(2) 0.2812(2)
H1_11 H 0.3336 0.0927 0.3077
N1_11 N 0.31356(19) 0.16030(19) 0.27043(19)
O1_24 O 0.2500 0.2500 0.2500
Cu2_17 Cu 0.30655(3) 0.2500 0.19345(3)
Cu3_11 Cu 0.19345(3) 0.30655(3) 0.2500
C2_11 C 0.3824(2) 0.1575(2) 0.2188(2)
C3_11 C 0.1575(2) 0.2188(2) 0.3824(2)
C4_11 C 0.1176(2) 0.2812(2) 0.3425(2)
C5_11 C 0.2812(2) 0.1324(2) 0.4075(2)
C6_11 C 0.2188(2) 0.0925(2) 0.3676(2)
C7_11 C 0.2812(2) 0.3425(2) 0.1176(2)
C8_11 C 0.2188(2) 0.3824(2) 0.1575(2)
C9_11 C 0.3676(2) 0.2188(2) 0.0925(2)
C10_11 C 0.4075(2) 0.2812(2) 0.1324(2)
C11_11 C 0.1324(2) 0.4075(2) 0.2812(2)
C12_11 C 0.0925(2) 0.3676(2) 0.2188(2)
H2_11 H 0.4073 0.1664 0.1923
H3_11 H 0.1664 0.1923 0.4073
H4_11 H 0.0927 0.3077 0.3336
H5_11 H 0.3077 0.1573 0.4164
H6_11 H 0.1923 0.0836 0.3427
H7_11 H 0.3077 0.3336 0.0927
H8_11 H 0.1923 0.4073 0.1664
H9_11 H 0.3427 0.1923 0.0836
H10_11 H 0.4164 0.3077 0.1573
H11_11 H 0.1573 0.4164 0.3077
H12_11 H 0.0836 0.3427 0.1923
N3_11 N 0.33970(19) 0.18644(19) 0.22957(19)
N4_11 N 0.18644(19) 0.22957(19) 0.33970(19)
N5_11 N 0.16030(19) 0.27043(19) 0.31356(19)
N6_7 N 0.27043(19) 0.08970(19) 0.43644(19)
N8_11 N 0.27043(19) 0.31356(19) 0.16030(19)
N9_11 N 0.22957(19) 0.33970(19) 0.18644(19)
N11_11 N 0.43644(19) 0.27043(19) 0.08970(19)
N12_10 N 0.08970(19) 0.43644(19) 0.27043(19)
N19_15 N 0.25000(17) 0.1362 0.36380(17)
N21_17 N 0.3638 0.25000(17) 0.13620(17)
N22_11 N 0.1362 0.36380(17) 0.25000(17)
N23_6 N 0.36380(17) 0.1138 0.50000(17)
Cu1_16 Cu 0.30655(3) 0.5000 0.55655(3)
C1_12 C 0.2812(2) 0.4075(2) 0.6324(2)
H1_12 H 0.3077 0.4164 0.6573
N1_12 N 0.27043(19) 0.43644(19) 0.58970(19)
N2_10 N 0.25000(17) 0.3638 0.63620(17)
O1_25 O 0.2500 0.5000 0.5000
Cu2_18 Cu 0.19345(3) 0.44345(3) 0.5000
Cu3_12 Cu 0.2500 0.55655(3) 0.44345(3)
Cu11_8 Cu 0.30655(3) 0.69345(3) 0.2500
C2_12 C 0.2188(2) 0.3676(2) 0.5925(2)
C3_12 C 0.3824(2) 0.5925(2) 0.5312(2)
C4_12 C 0.3425(2) 0.6324(2) 0.4688(2)
C5_12 C 0.4075(2) 0.4688(2) 0.6176(2)
C6_12 C 0.3676(2) 0.5312(2) 0.6575(2)
C7_12 C 0.1176(2) 0.4688(2) 0.4075(2)
C8_12 C 0.1575(2) 0.5312(2) 0.3676(2)
C9_12 C 0.0925(2) 0.3824(2) 0.5312(2)
C10_12 C 0.1324(2) 0.3425(2) 0.4688(2)
C11_12 C 0.2812(2) 0.6176(2) 0.3425(2)
C12_12 C 0.2188(2) 0.6575(2) 0.3824(2)
H2_12 H 0.1923 0.3427 0.5836
H3_12 H 0.4073 0.5836 0.5577
H4_12 H 0.3336 0.6573 0.4423
H5_12 H 0.4164 0.4423 0.5927
H6_12 H 0.3427 0.5577 0.6664
H7_12 H 0.0927 0.4423 0.4164
H8_12 H 0.1664 0.5577 0.3427
H9_12 H 0.0836 0.4073 0.5577
H10_12 H 0.1573 0.3336 0.4423
H11_12 H 0.3077 0.5927 0.3336
H12_12 H 0.1923 0.6664 0.4073
N3_12 N 0.22957(19) 0.41030(19) 0.56356(19)
N4_12 N 0.33970(19) 0.56356(19) 0.52043(19)
N5_12 N 0.31356(19) 0.58970(19) 0.47957(19)
N6_8 N 0.43644(19) 0.47957(19) 0.66030(19)
N7_8 N 0.41030(19) 0.52043(19) 0.68644(19)
N8_12 N 0.16030(19) 0.47957(19) 0.43644(19)
N9_12 N 0.18644(19) 0.52043(19) 0.41030(19)
N12_11 N 0.27043(19) 0.66030(19) 0.31356(19)
N15_8 N 0.47957(19) 0.58970(19) 0.81356(19)
N17_13 N 0.31356(19) 0.27043(19) 0.66030(19)
N18_16 N 0.38620(17) 0.6362 0.50000(17)
N19_16 N 0.36380(17) 0.50000(17) 0.6138
N20_13 N 0.1138 0.50000(17) 0.36380(17)
N21_18 N 0.13620(17) 0.3862 0.50000(17)
N22_12 N 0.25000(17) 0.6138 0.38620(17)
N23_7 N 0.50000(17) 0.38620(17) 0.6362
Cu13_8 Cu 0.69345(3) 0.2500 0.30655(3)
N14_6 N 0.68644(19) 0.33970(19) 0.22957(19)
Cu1_17 Cu 0.55655(3) 0.44345(3) 0.2500
C1_13 C 0.5312(2) 0.3676(2) 0.1575(2)
H1_13 H 0.5577 0.3427 0.1664
N1_13 N 0.52043(19) 0.41030(19) 0.18644(19)
N2_11 N 0.50000(17) 0.36380(17) 0.1138
O1_26 O 0.5000 0.5000 0.2500
Cu2_19 Cu 0.44345(3) 0.5000 0.19345(3)
Cu3_13 Cu 0.5000 0.55655(3) 0.30655(3)
C2_13 C 0.4688(2) 0.4075(2) 0.1176(2)
C3_13 C 0.6324(2) 0.4688(2) 0.3425(2)
C4_13 C 0.5925(2) 0.5312(2) 0.3824(2)
C5_13 C 0.6575(2) 0.3824(2) 0.2188(2)
C6_13 C 0.6176(2) 0.3425(2) 0.2812(2)
C7_13 C 0.3676(2) 0.5925(2) 0.2188(2)
C8_13 C 0.4075(2) 0.6324(2) 0.2812(2)
C9_13 C 0.3425(2) 0.4688(2) 0.1324(2)
C10_13 C 0.3824(2) 0.5312(2) 0.0925(2)
C11_13 C 0.5312(2) 0.6575(2) 0.3676(2)
C12_13 C 0.4688(2) 0.6176(2) 0.4075(2)
H2_13 H 0.4423 0.4164 0.0927
H3_13 H 0.6573 0.4423 0.3336
H4_13 H 0.5836 0.5577 0.4073
H5_13 H 0.6664 0.4073 0.1923
H6_13 H 0.5927 0.3336 0.3077
H7_13 H 0.3427 0.5836 0.1923
H8_13 H 0.4164 0.6573 0.3077
H9_13 H 0.3336 0.4423 0.1573
H10_13 H 0.4073 0.5577 0.0836
H11_13 H 0.5577 0.6664 0.3427
H12_13 H 0.4423 0.5927 0.4164
N3_13 N 0.47957(19) 0.43644(19) 0.16030(19)
N4_13 N 0.58970(19) 0.47957(19) 0.31356(19)
N5_13 N 0.56356(19) 0.52043(19) 0.33970(19)
N7_9 N 0.66030(19) 0.31356(19) 0.27043(19)
N8_13 N 0.41030(19) 0.56356(19) 0.22957(19)
N9_13 N 0.43644(19) 0.58970(19) 0.27043(19)
N12_12 N 0.52043(19) 0.68644(19) 0.41030(19)
N13_8 N 0.47957(19) 0.66030(19) 0.43644(19)
N15_9 N 0.72957(19) 0.18644(19) 0.33970(19)
N18_17 N 0.63620(17) 0.50000(17) 0.3862
N19_17 N 0.61380(17) 0.3862 0.25000(17)
N20_14 N 0.3638 0.63620(17) 0.25000(17)
N21_19 N 0.38620(17) 0.50000(17) 0.1362
N22_13 N 0.50000(17) 0.61380(17) 0.3638
N24_11 N 0.6362 0.25000(17) 0.36380(17)
N17_14 N 0.68644(19) 0.41030(19) 0.52043(19)
Cu1_18 Cu 0.55655(3) 0.30655(3) 0.5000
C1_14 C 0.6324(2) 0.2812(2) 0.4075(2)
H1_14 H 0.6573 0.3077 0.4164
N1_14 N 0.58970(19) 0.27043(19) 0.43644(19)
O1_27 O 0.5000 0.2500 0.5000
Cu2_20 Cu 0.5000 0.19345(3) 0.44345(3)
Cu3_14 Cu 0.44345(3) 0.2500 0.55655(3)
C2_14 C 0.5925(2) 0.2188(2) 0.3676(2)
C3_14 C 0.5312(2) 0.3824(2) 0.5925(2)
C4_14 C 0.4688(2) 0.3425(2) 0.6324(2)
C5_14 C 0.6176(2) 0.4075(2) 0.4688(2)
C6_14 C 0.6575(2) 0.3676(2) 0.5312(2)
C7_14 C 0.4075(2) 0.1176(2) 0.4688(2)
C8_14 C 0.3676(2) 0.1575(2) 0.5312(2)
C9_14 C 0.5312(2) 0.0925(2) 0.3824(2)
C10_14 C 0.4688(2) 0.1324(2) 0.3425(2)
C11_14 C 0.3425(2) 0.2812(2) 0.6176(2)
C12_14 C 0.3824(2) 0.2188(2) 0.6575(2)
H2_14 H 0.5836 0.1923 0.3427
H3_14 H 0.5577 0.4073 0.5836
H4_14 H 0.4423 0.3336 0.6573
H5_14 H 0.5927 0.4164 0.4423
H6_14 H 0.6664 0.3427 0.5577
H7_14 H 0.4164 0.0927 0.4423
H8_14 H 0.3427 0.1664 0.5577
H9_14 H 0.5577 0.0836 0.4073
H10_14 H 0.4423 0.1573 0.3336
H11_14 H 0.3336 0.3077 0.5927
H12_14 H 0.4073 0.1923 0.6664
N3_14 N 0.56356(19) 0.22957(19) 0.41030(19)
N4_14 N 0.52043(19) 0.33970(19) 0.56356(19)
N5_14 N 0.47957(19) 0.31356(19) 0.58970(19)
N6_9 N 0.66030(19) 0.43644(19) 0.47957(19)
N8_14 N 0.43644(19) 0.16030(19) 0.47957(19)
N9_14 N 0.41030(19) 0.18644(19) 0.52043(19)
N13_9 N 0.33970(19) 0.22957(19) 0.68644(19)
N19_18 N 0.6138 0.36380(17) 0.50000(17)
N21_20 N 0.50000(17) 0.13620(17) 0.3862
N22_14 N 0.38620(17) 0.25000(17) 0.6138
Cu1_19 Cu 0.80655(3) 0.0000 0.55655(3)
O1_28 O 0.7500 0.0000 0.5000
Cu3_15 Cu 0.7500 0.05655(3) 0.44345(3)
C3_15 C 0.8824(2) 0.0925(2) 0.5312(2)
C4_15 C 0.8425(2) 0.1324(2) 0.4688(2)
C6_15 C 0.8676(2) 0.0312(2) 0.6575(2)
C8_15 C 0.6575(2) 0.0312(2) 0.3676(2)
C11_15 C 0.7812(2) 0.1176(2) 0.3425(2)
C12_15 C 0.7188(2) 0.1575(2) 0.3824(2)
H3_15 H 0.9073 0.0836 0.5577
H4_15 H 0.8336 0.1573 0.4423
H6_15 H 0.8427 0.0577 0.6664
H8_15 H 0.6664 0.0577 0.3427
H11_15 H 0.8077 0.0927 0.3336
H12_15 H 0.6923 0.1664 0.4073
N4_15 N 0.83970(19) 0.06356(19) 0.52043(19)
N5_15 N 0.81356(19) 0.08970(19) 0.47957(19)
N9_15 N 0.68644(19) 0.02043(19) 0.41030(19)
N19_19 N 0.86380(17) 0.00000(17) 0.6138
N22_15 N 0.75000(17) 0.1138 0.38620(17)
Cu1_20 Cu 0.80655(3) 1.0000 0.55655(3)
C1_15 C 0.7812(2) 0.9075(2) 0.6324(2)
H1_15 H 0.8077 0.9164 0.6573
N1_15 N 0.77043(19) 0.93644(19) 0.58970(19)
O1_29 O 0.7500 1.0000 0.5000
Cu2_21 Cu 0.69345(3) 0.94345(3) 0.5000
C2_15 C 0.7188(2) 0.8676(2) 0.5925(2)
C5_15 C 0.9075(2) 0.9688(2) 0.6176(2)
C7_15 C 0.6176(2) 0.9688(2) 0.4075(2)
C9_15 C 0.5925(2) 0.8824(2) 0.5312(2)
C10_15 C 0.6324(2) 0.8425(2) 0.4688(2)
H2_15 H 0.6923 0.8427 0.5836
H5_15 H 0.9164 0.9423 0.5927
H7_15 H 0.5927 0.9423 0.4164
H9_15 H 0.5836 0.9073 0.5577
H10_15 H 0.6573 0.8336 0.4423
N3_15 N 0.72957(19) 0.91030(19) 0.56356(19)
N6_10 N 0.93644(19) 0.97957(19) 0.66030(19)
N8_15 N 0.66030(19) 0.97957(19) 0.43644(19)
N11_12 N 0.58970(19) 0.81356(19) 0.47957(19)
N19_20 N 0.86380(17) 1.00000(17) 0.6138
N21_21 N 0.63620(17) 0.8862 0.50000(17)
N15_10 N 0.33970(19) 0.72957(19) 0.18644(19)
Cu1_21 Cu 0.55655(3) 0.80655(3) 0.0000
O1_30 O 0.5000 0.7500 0.0000
Cu3_16 Cu 0.44345(3) 0.7500 0.05655(3)
C3_16 C 0.5312(2) 0.8824(2) 0.0925(2)
C4_16 C 0.4688(2) 0.8425(2) 0.1324(2)
C6_16 C 0.6575(2) 0.8676(2) 0.0312(2)
C8_16 C 0.3676(2) 0.6575(2) 0.0312(2)
C11_16 C 0.3425(2) 0.7812(2) 0.1176(2)
C12_16 C 0.3824(2) 0.7188(2) 0.1575(2)
H3_16 H 0.5577 0.9073 0.0836
H4_16 H 0.4423 0.8336 0.1573
H6_16 H 0.6664 0.8427 0.0577
H8_16 H 0.3427 0.6664 0.0577
H11_16 H 0.3336 0.8077 0.0927
H12_16 H 0.4073 0.6923 0.1664
N4_16 N 0.52043(19) 0.83970(19) 0.06356(19)
N5_16 N 0.47957(19) 0.81356(19) 0.08970(19)
N9_16 N 0.41030(19) 0.68644(19) 0.02043(19)
N19_21 N 0.6138 0.86380(17) 0.00000(17)
N22_16 N 0.38620(17) 0.75000(17) 0.1138
Cu1_22 Cu 0.55655(3) 0.80655(3) 1.0000
C1_16 C 0.6324(2) 0.7812(2) 0.9075(2)
H1_16 H 0.6573 0.8077 0.9164
N1_16 N 0.58970(19) 0.77043(19) 0.93644(19)
O1_31 O 0.5000 0.7500 1.0000
Cu2_22 Cu 0.5000 0.69345(3) 0.94345(3)
C2_16 C 0.5925(2) 0.7188(2) 0.8676(2)
C5_16 C 0.6176(2) 0.9075(2) 0.9688(2)
C7_16 C 0.4075(2) 0.6176(2) 0.9688(2)
C9_16 C 0.5312(2) 0.5925(2) 0.8824(2)
C10_16 C 0.4688(2) 0.6324(2) 0.8425(2)
H2_16 H 0.5836 0.6923 0.8427
H5_16 H 0.5927 0.9164 0.9423
H7_16 H 0.4164 0.5927 0.9423
H9_16 H 0.5577 0.5836 0.9073
H10_16 H 0.4423 0.6573 0.8336
N3_16 N 0.56356(19) 0.72957(19) 0.91030(19)
N6_11 N 0.66030(19) 0.93644(19) 0.97957(19)
N8_16 N 0.43644(19) 0.66030(19) 0.97957(19)
N19_22 N 0.6138 0.86380(17) 1.00000(17)
N21_22 N 0.50000(17) 0.63620(17) 0.8862
O4 O 0.2230(5) 0.2230(5) 0.0270(5)
H13 H 0.263008 0.223 0.027
H13_2 H 0.223 0.263008 0.027
O4_2 O 0.0270(5) 0.2230(5) 0.2230(5)
H13_3 H 0.027 0.263008 0.223
H13_4 H 0.027 0.223 0.263008
O4_3 O 0.2230(5) 0.0270(5) 0.2230(5)
H13_5 H 0.223 0.027 0.263008
H13_6 H 0.263008 0.027 0.223
O4_4 O 0.9730(5) 0.4730(5) 0.9730(5)
H13_7 H 0.973 0.513008 0.973
O4_5 O 0.4730(5) 0.7770(5) 0.7770(5)
H13_8 H 0.777 0.0130081 0.277
O4_6 O 0.7770(5) 0.9730(5) 0.2770(5)
H13_9 H 0.777 0.973 0.236992
H13_10 H 0.736992 0.973 0.277
H13_11 H 0.0130081 0.277 0.777
O4_7 O 0.9730(5) 0.2770(5) 0.7770(5)
H13_12 H 0.973 0.277 0.736992
H13_13 H 0.973 0.236992 0.777
O4_8 O 0.7770(5) 0.7770(5) 0.4730(5)
O4_9 O 0.4730(5) 0.9730(5) 0.9730(5)
H13_14 H 0.513008 0.973 0.973
O4_10 O 0.7770(5) 0.4730(5) 0.7770(5)
H13_15 H 0.277 0.777 0.0130081
O4_11 O 0.2770(5) 0.7770(5) 0.9730(5)
H13_16 H 0.277 0.736992 0.973
H13_17 H 0.236992 0.777 0.973
O4_12 O 0.9730(5) 0.9730(5) 0.4730(5)
H13_18 H 0.973 0.973 0.513008
O4_13 O 0.2230(5) 0.7230(5) 0.5270(5)
O4_14 O 0.0270(5) 0.0270(5) 0.0270(5)
H13_19 H 0.986992 0.027 0.027
O4_15 O 0.0270(5) 0.7230(5) 0.7230(5)
H13_20 H 0.027 0.763008 0.723
H13_21 H 0.027 0.723 0.763008
H13_22 H 0.223 0.986992 0.223
O4_16 O 0.2230(5) 0.5270(5) 0.7230(5)
O4_17 O 0.4730(5) 0.2770(5) 0.2770(5)
O4_18 O 0.7770(5) 0.2770(5) 0.9730(5)
H13_23 H 0.736992 0.277 0.973
H13_24 H 0.777 0.236992 0.973
O4_19 O 0.4730(5) 0.4730(5) 0.4730(5)
O4_20 O 0.2770(5) 0.2770(5) 0.4730(5)
H13_25 H 0.973 0.473 0.0130081
O4_21 O 0.7230(5) 0.2230(5) 0.5270(5)
O4_22 O 0.5270(5) 0.2230(5) 0.7230(5)
H13_26 H 0.027 0.986992 0.027
O4_23 O 0.7230(5) 0.0270(5) 0.7230(5)
H13_27 H 0.723 0.027 0.763008
H13_28 H 0.763008 0.027 0.723
H13_29 H 0.223 0.223 0.986992
O4_24 O 0.9730(5) 0.7770(5) 0.2770(5)
H13_30 H 0.973 0.736992 0.277
H13_31 H 0.973 0.777 0.236992
H13_32 H 0.0130081 0.973 0.473
O4_25 O 0.2770(5) 0.4730(5) 0.2770(5)
O4_26 O 0.7230(5) 0.7230(5) 0.0270(5)
H13_33 H 0.763008 0.723 0.027
H13_34 H 0.723 0.763008 0.027
H13_35 H 0.986992 0.223 0.223
O4_27 O 0.5270(5) 0.7230(5) 0.2230(5)
O4_28 O 0.7230(5) 0.5270(5) 0.2230(5)
H13_36 H 0.027 0.027 0.986992
H13_37 H 0.473 0.0130081 0.973
O4_29 O 0.2770(5) 0.9730(5) 0.7770(5)
H13_38 H 0.277 0.973 0.736992
H13_39 H 0.236992 0.973 0.777
O4_30 O 0.0270(5) 0.5270(5) 0.5270(5)
H13_40 H 0.027 0.527 0.486992
H13_41 H 0.027 0.486992 0.527
H13_42 H 0.986992 0.527 0.527
O4_31 O 0.5270(5) 0.0270(5) 0.5270(5)
H13_43 H 0.527 0.027 0.486992
H13_44 H 0.486992 0.027 0.527
H13_45 H 0.527 0.986992 0.527
O4_32 O 0.5270(5) 0.5270(5) 0.0270(5)
H13_46 H 0.527 0.486992 0.027
H13_47 H 0.486992 0.527 0.027
H13_48 H 0.527 0.527 0.986992
H13_49 H 0.723 0.723 0.986992
H13_50 H 0.973 0.0130081 0.473
H13_51 H 0.0130081 0.777 0.277
H13_52 H 0.986992 0.723 0.723
H13_53 H 0.277 0.0130081 0.777
H13_54 H 0.473 0.973 0.0130081
H13_55 H 0.723 0.986992 0.723
H13_56 H 0.0130081 0.473 0.973
H13_57 H 0.777 0.277 0.0130081
O4_33 O 0.7770(5) 0.7770(5) 0.9730(5)
H13_58 H 0.736992 0.777 0.973
H13_59 H 0.777 0.736992 0.973
O4_34 O 0.9730(5) 0.7770(5) 0.7770(5)
H13_60 H 0.973 0.736992 0.777
H13_61 H 0.973 0.777 0.736992
O4_35 O 0.7770(5) 0.9730(5) 0.7770(5)
H13_62 H 0.777 0.973 0.736992
H13_63 H 0.736992 0.973 0.777
O4_36 O 0.0270(5) 0.5270(5) 0.0270(5)
H13_64 H 0.027 0.486992 0.027
O4_37 O 0.5270(5) 0.2230(5) 0.2230(5)
O4_38 O 0.2230(5) 0.0270(5) 0.7230(5)
H13_65 H 0.223 0.027 0.763008
H13_66 H 0.263008 0.027 0.723
H13_67 H 0.223 0.986992 0.723
O4_39 O 0.0270(5) 0.7230(5) 0.2230(5)
H13_68 H 0.027 0.723 0.263008
H13_69 H 0.027 0.763008 0.223
H13_70 H 0.986992 0.723 0.223
O4_40 O 0.2230(5) 0.2230(5) 0.5270(5)
O4_41 O 0.5270(5) 0.0270(5) 0.0270(5)
H13_71 H 0.486992 0.027 0.027
O4_42 O 0.2230(5) 0.5270(5) 0.2230(5)
O4_43 O 0.7230(5) 0.2230(5) 0.0270(5)
H13_72 H 0.723 0.263008 0.027
H13_73 H 0.763008 0.223 0.027
H13_74 H 0.723 0.223 0.986992
O4_44 O 0.0270(5) 0.0270(5) 0.5270(5)
H13_75 H 0.027 0.027 0.486992
O4_45 O 0.7770(5) 0.2770(5) 0.4730(5)
H13_76 H 0.0130081 0.973 0.973
O4_46 O 0.9730(5) 0.9730(5) 0.9730(5)
O4_47 O 0.9730(5) 0.2770(5) 0.2770(5)
H13_77 H 0.973 0.236992 0.277
H13_78 H 0.973 0.277 0.236992
H13_79 H 0.777 0.0130081 0.777
O4_48 O 0.7770(5) 0.4730(5) 0.2770(5)
O4_49 O 0.5270(5) 0.7230(5) 0.7230(5)
O4_50 O 0.2230(5) 0.7230(5) 0.0270(5)
H13_80 H 0.263008 0.723 0.027
H13_81 H 0.223 0.763008 0.027
O4_51 O 0.5270(5) 0.5270(5) 0.5270(5)
O4_52 O 0.7230(5) 0.7230(5) 0.5270(5)
H13_82 H 0.027 0.527 0.986992
O4_53 O 0.2770(5) 0.7770(5) 0.4730(5)
O4_54 O 0.4730(5) 0.7770(5) 0.2770(5)
H13_83 H 0.973 0.0130081 0.973
O4_55 O 0.2770(5) 0.9730(5) 0.2770(5)
H13_84 H 0.277 0.973 0.236992
H13_85 H 0.236992 0.973 0.277
H13_86 H 0.777 0.777 0.0130081
O4_56 O 0.0270(5) 0.2230(5) 0.7230(5)
H13_87 H 0.027 0.263008 0.723
H13_88 H 0.027 0.223 0.763008
H13_89 H 0.986992 0.027 0.527
O4_57 O 0.7230(5) 0.5270(5) 0.7230(5)
O4_58 O 0.2770(5) 0.2770(5) 0.9730(5)
H13_90 H 0.236992 0.277 0.973
H13_91 H 0.277 0.236992 0.973
H13_92 H 0.0130081 0.777 0.777
O4_59 O 0.4730(5) 0.2770(5) 0.7770(5)
O4_60 O 0.2770(5) 0.4730(5) 0.7770(5)
H13_93 H 0.973 0.973 0.0130081
H13_94 H 0.527 0.986992 0.027
O4_61 O 0.7230(5) 0.0270(5) 0.2230(5)
H13_95 H 0.723 0.027 0.263008
H13_96 H 0.763008 0.027 0.223
H13_97 H 0.0130081 0.473 0.473
O4_62 O 0.9730(5) 0.4730(5) 0.4730(5)
H13_98 H 0.973 0.473 0.513008
H13_99 H 0.973 0.513008 0.473
H13_100 H 0.473 0.0130081 0.473
O4_63 O 0.4730(5) 0.9730(5) 0.4730(5)
H13_101 H 0.473 0.973 0.513008
H13_102 H 0.513008 0.973 0.473
H13_103 H 0.473 0.473 0.0130081
O4_64 O 0.4730(5) 0.4730(5) 0.9730(5)
H13_104 H 0.473 0.513008 0.973
H13_105 H 0.513008 0.473 0.973
H13_106 H 0.277 0.277 0.0130081
H13_107 H 0.027 0.986992 0.527
H13_108 H 0.986992 0.223 0.723
H13_109 H 0.0130081 0.277 0.277
H13_110 H 0.723 0.986992 0.223
H13_111 H 0.527 0.027 0.986992
H13_112 H 0.277 0.0130081 0.277
H13_113 H 0.986992 0.527 0.027
H13_114 H 0.223 0.723 0.986992
O5 O 0.1250 0.1250 0.1250
O5_2 O 0.8750 0.3750 0.8750
O5_3 O 0.3750 0.8750 0.8750
O5_4 O 0.8750 0.8750 0.3750
O5_5 O 0.1250 0.6250 0.6250
O5_6 O 0.3750 0.3750 0.3750
O5_7 O 0.6250 0.1250 0.6250
O5_8 O 0.6250 0.6250 0.1250
O5_9 O 0.8750 0.8750 0.8750
O5_10 O 0.1250 0.6250 0.1250
O5_11 O 0.6250 0.1250 0.1250
O5_12 O 0.1250 0.1250 0.6250
O5_13 O 0.8750 0.3750 0.3750
O5_14 O 0.6250 0.6250 0.6250
O5_15 O 0.3750 0.8750 0.3750
O5_16 O 0.3750 0.3750 0.8750
loop_
_geom_bond_atom_site_label_1
_geom_bond_atom_site_label_2
_geom_bond_site_symmetry_1
_geom_bond_site_symmetry_2
O1 Cu1 1_555 1_555
Cu5 N7 1_555 1_555
Cu7 N18 1_555 1_555
Cu13 O2 1_555 1_555
C3 H3 1_555 1_555
C6 H6 1_555 1_555
N4 Cu1 1_555 1_555
N7 C6 1_555 1_555
N15 Cu5 1_555 1_555
N18 C3 1_555 1_555
N19 Cu1 1_555 1_555
N24 Cu5 1_555 1_555
Cu5 O2 1_555 1_555
C3 N4 1_555 1_555
C6 N19 1_555 1_555
Cu1_2 N1 1_555 1_555
C1 H1 1_555 1_555
N1 C1 1_555 1_555
N2 C1 1_555 1_555
O1_2 Cu1_2 1_555 1_555
Cu2 O1_2 1_555 1_555
Cu4 N6 1_555 1_555
Cu6 N2 1_555 1_555
Cu9 N10 1_555 1_555
Cu13_2 O2_2 1_555 1_555
C2 N2 1_555 1_555
C5 H5 1_555 1_555
C9 H9 1_555 1_555
H2 C2 1_555 1_555
N3 N1 1_555 1_555
N6 C5 1_555 1_555
N10 C9 1_555 1_555
N14 Cu4 1_555 1_555
N16 Cu6 1_555 1_555
N17 Cu6 1_555 1_555
N19_2 Cu1_2 1_555 1_555
N21 Cu2 1_555 1_555
N23 Cu4 1_555 1_555
O2_2 Cu4 1_555 1_555
O3 Cu6 1_555 1_555
Cu2 N3 1_555 1_555
C2 N3 1_555 1_555
C5 N19_2 1_555 1_555
C9 N21 1_555 1_555
Cu3 O1_3 1_555 1_555
Cu7_2 N18_2 1_555 1_555
Cu8 N20 1_555 1_555
Cu11 N12 1_555 1_555
Cu12 N13 1_555 1_555
C4 H4 1_555 1_555
C8 H8 1_555 1_555
C11 H11 1_555 1_555
C12 H12 1_555 1_555
N5 Cu3 1_555 1_555
N9 Cu3 1_555 1_555
N12 C11 1_555 1_555
N13 C12 1_555 1_555
N22 Cu3 1_555 1_555
C4 N5 1_555 1_555
C4 N18_2 1_555 1_555
C8 N9 1_555 1_555
C8 N20 1_555 1_555
C11 N22 1_555 1_555
C12 N22 1_555 1_555
N12 N13 1_555 1_555
Cu2_2 O1_4 1_555 1_555
Cu8_2 N20_2 1_555 1_555
Cu10 N11 1_555 1_555
C7 H7 1_555 1_555
C10 H10 1_555 1_555
N8 Cu2_2 1_555 1_555
N11 C10 1_555 1_555
N20_2 C7 1_555 1_555
N21_2 Cu2_2 1_555 1_555
C7 N8 1_555 1_555
C10 N21_2 1_555 1_555
O1_5 Cu1_3 1_555 1_555
Cu5_2 N7_2 1_555 1_555
Cu7_3 N18_3 1_555 1_555
Cu13_3 O2_3 1_555 1_555
C3_2 H3_2 1_555 1_555
C6_2 H6_2 1_555 1_555
N4_2 Cu1_3 1_555 1_555
N7_2 C6_2 1_555 1_555
N15_2 Cu5_2 1_555 1_555
N18_3 C3_2 1_555 1_555
N19_3 Cu1_3 1_555 1_555
N24_2 Cu5_2 1_555 1_555
Cu5_2 O2_3 1_555 1_555
C3_2 N4_2 1_555 1_555
C6_2 N19_3 1_555 1_555
Cu3_2 O1_6 1_555 1_555
Cu7_4 N18_4 1_555 1_555
Cu8_3 N20_3 1_555 1_555
Cu11_2 N12_2 1_555 1_555
Cu12_2 N13_2 1_555 1_555
C4_2 H4_2 1_555 1_555
C8_2 H8_2 1_555 1_555
C11_2 H11_2 1_555 1_555
C12_2 H12_2 1_555 1_555
N5_2 Cu3_2 1_555 1_555
N9_2 Cu3_2 1_555 1_555
N12_2 C11_2 1_555 1_555
N13_2 C12_2 1_555 1_555
N22_2 Cu3_2 1_555 1_555
C4_2 N5_2 1_555 1_555
C4_2 N18_4 1_555 1_555
C8_2 N9_2 1_555 1_555
C8_2 N20_3 1_555 1_555
C11_2 N22_2 1_555 1_555
C12_2 N22_2 1_555 1_555
N12_2 N13_2 1_555 1_555
Cu1_4 N1_2 1_555 1_555
C1_2 H1_2 1_555 1_555
N1_2 C1_2 1_555 1_555
N2_2 C1_2 1_555 1_555
O1_7 Cu1_4 1_555 1_555
Cu2_3 O1_7 1_555 1_555
Cu4_2 N6_2 1_555 1_555
Cu12 N2_2 1_555 1_555
Cu8 N10_2 1_555 1_555
Cu13_4 O2_4 1_555 1_555
C2_2 N2_2 1_555 1_555
C5_2 H5_2 1_555 1_555
C9_2 H9_2 1_555 1_555
H2_2 C2_2 1_555 1_555
N3_2 N1_2 1_555 1_555
N6_2 C5_2 1_555 1_555
N10_2 C9_2 1_555 1_555
N14_2 Cu4_2 1_555 1_555
N17_2 Cu12 1_555 1_555
N19_4 Cu1_4 1_555 1_555
N21_3 Cu2_3 1_555 1_555
N23_2 Cu4_2 1_555 1_555
O2_4 Cu4_2 1_555 1_555
O3_2 Cu12 1_555 1_555
Cu2_3 N3_2 1_555 1_555
C2_2 N3_2 1_555 1_555
C5_2 N19_4 1_555 1_555
C9_2 N21_3 1_555 1_555
Cu2_4 O1_8 1_555 1_555
Cu8_4 N20_4 1_555 1_555
Cu10_2 N11_2 1_555 1_555
C7_2 H7_2 1_555 1_555
C10_2 H10_2 1_555 1_555
N8_2 Cu2_4 1_555 1_555
N11_2 C10_2 1_555 1_555
N20_4 C7_2 1_555 1_555
N21_4 Cu2_4 1_555 1_555
C7_2 N8_2 1_555 1_555
C10_2 N21_4 1_555 1_555
O1_9 Cu1_5 1_555 1_555
Cu5_3 N7_3 1_555 1_555
Cu7_5 N18_5 1_555 1_555
Cu13_5 O2_5 1_555 1_555
C3_3 H3_3 1_555 1_555
C6_3 H6_3 1_555 1_555
N4_3 Cu1_5 1_555 1_555
N7_3 C6_3 1_555 1_555
N15_3 Cu5_3 1_555 1_555
N18_5 C3_3 1_555 1_555
N19_5 Cu1_5 1_555 1_555
N24_3 Cu5_3 1_555 1_555
Cu5_3 O2_5 1_555 1_555
C3_3 N4_3 1_555 1_555
C6_3 N19_5 1_555 1_555
Cu3_3 O1_10 1_555 1_555
Cu7_6 N18_6 1_555 1_555
Cu9 N20_5 1_555 1_555
Cu11_3 N12_3 1_555 1_555
C4_3 H4_3 1_555 1_555
C8_3 H8_3 1_555 1_555
C11_3 H11_3 1_555 1_555
C12_3 H12_3 1_555 1_555
N5_3 Cu3_3 1_555 1_555
N9_3 Cu3_3 1_555 1_555
N12_3 C11_3 1_555 1_555
N16 C12_3 1_555 1_555
N22_3 Cu3_3 1_555 1_555
C4_3 N5_3 1_555 1_555
C4_3 N18_6 1_555 1_555
C8_3 N9_3 1_555 1_555
C8_3 N20_5 1_555 1_555
C11_3 N22_3 1_555 1_555
C12_3 N22_3 1_555 1_555
N12_3 N16 1_555 1_555
Cu1_6 N1_3 1_555 1_555
C1_3 H1_3 1_555 1_555
N1_3 C1_3 1_555 1_555
N2_3 C1_3 1_555 1_555
O1_11 Cu1_6 1_555 1_555
Cu2_5 O1_11 1_555 1_555
Cu4_3 N6_3 1_555 1_555
Cu12_2 N2_3 1_555 1_555
Cu8_3 N10_3 1_555 1_555
Cu13_6 O2_6 1_555 1_555
C2_3 N2_3 1_555 1_555
C5_3 H5_3 1_555 1_555
C9_3 H9_3 1_555 1_555
H2_3 C2_3 1_555 1_555
N3_3 N1_3 1_555 1_555
N6_3 C5_3 1_555 1_555
N10_3 C9_3 1_555 1_555
N14_3 Cu4_3 1_555 1_555
N17_3 Cu12_2 1_555 1_555
N19_6 Cu1_6 1_555 1_555
N21_5 Cu2_5 1_555 1_555
N23_3 Cu4_3 1_555 1_555
O2_6 Cu4_3 1_555 1_555
O3_3 Cu12_2 1_555 1_555
Cu2_5 N3_3 1_555 1_555
C2_3 N3_3 1_555 1_555
C5_3 N19_6 1_555 1_555
C9_3 N21_5 1_555 1_555
Cu2_6 O1_12 1_555 1_555
Cu9_2 N20_6 1_555 1_555
Cu10_3 N11_3 1_555 1_555
C7_3 H7_3 1_555 1_555
C10_3 H10_3 1_555 1_555
N8_3 Cu2_6 1_555 1_555
N11_3 C10_3 1_555 1_555
N20_6 C7_3 1_555 1_555
N21_6 Cu2_6 1_555 1_555
C7_3 N8_3 1_555 1_555
C10_3 N21_6 1_555 1_555
N17_4 Cu7 1_555 1_555
O3_4 Cu7 1_555 1_555
N16_2 Cu7_2 1_555 1_555
O3_5 Cu7_2 1_555 1_555
Cu2_7 O1_13 1_555 1_555
Cu3_4 O1_13 1_555 1_555
Cu7_7 N18_7 1_555 1_555
Cu11_3 N20_7 1_555 1_555
Cu10_4 N11_4 1_555 1_555
Cu11_4 N12_4 1_555 1_555
Cu7_6 N13_3 1_555 1_555
C4_4 H4_4 1_555 1_555
C7_4 H7_4 1_555 1_555
C8_4 H8_4 1_555 1_555
C10_4 H10_4 1_555 1_555
C11_4 H11_4 1_555 1_555
C12_4 H12_4 1_555 1_555
N5_4 Cu3_4 1_555 1_555
N8_4 Cu2_7 1_555 1_555
N9_4 Cu3_4 1_555 1_555
N11_4 C10_4 1_555 1_555
N12_4 C11_4 1_555 1_555
N13_3 C12_4 1_555 1_555
N20_7 C7_4 1_555 1_555
N21_7 Cu2_7 1_555 1_555
N22_4 Cu3_4 1_555 1_555
C4_4 N5_4 1_555 1_555
C4_4 N18_7 1_555 1_555
C7_4 N8_4 1_555 1_555
C8_4 N9_4 1_555 1_555
C8_4 N20_7 1_555 1_555
C10_4 N21_7 1_555 1_555
C11_4 N22_4 1_555 1_555
C12_4 N22_4 1_555 1_555
N8_4 N9_4 1_555 1_555
N12_4 N13_3 1_555 1_555
Cu1_7 N1_4 1_555 1_555
C1_4 H1_4 1_555 1_555
N1_4 C1_4 1_555 1_555
N2_4 C1_4 1_555 1_555
O1_14 Cu1_7 1_555 1_555
Cu2_8 O1_14 1_555 1_555
Cu4_4 N6_4 1_555 1_555
Cu5_4 N7_4 1_555 1_555
Cu6_2 N2_4 1_555 1_555
Cu7_8 N18_8 1_555 1_555
Cu9_3 N10_4 1_555 1_555
Cu13_7 O2_7 1_555 1_555
C2_4 N2_4 1_555 1_555
C3_4 H3_4 1_555 1_555
C5_4 H5_4 1_555 1_555
C6_4 H6_4 1_555 1_555
C9_4 H9_4 1_555 1_555
H2_4 C2_4 1_555 1_555
N3_4 N1_4 1_555 1_555
N4_4 Cu1_7 1_555 1_555
N6_4 C5_4 1_555 1_555
N7_4 C6_4 1_555 1_555
N10_4 C9_4 1_555 1_555
N14_4 Cu4_4 1_555 1_555
N15_4 Cu5_4 1_555 1_555
N16_3 Cu6_2 1_555 1_555
N17_5 Cu6_2 1_555 1_555
N18_8 C3_4 1_555 1_555
N19_7 Cu1_7 1_555 1_555
N21_8 Cu2_8 1_555 1_555
N23_4 Cu4_4 1_555 1_555
N24_4 Cu5_4 1_555 1_555
O2_7 Cu4_4 1_555 1_555
O3_6 Cu6_2 1_555 1_555
Cu2_8 N3_4 1_555 1_555
Cu5_4 O2_7 1_555 1_555
C2_4 N3_4 1_555 1_555
C3_4 N4_4 1_555 1_555
C5_4 N19_7 1_555 1_555
C6_4 N19_7 1_555 1_555
C9_4 N21_8 1_555 1_555
N6_4 N7_4 1_555 1_555
N15_5 Cu13_5 1_555 1_555
N24_5 Cu13_5 1_555 1_555
Cu1_8 N1_5 1_555 1_555
C1_5 H1_5 1_555 1_555
N1_5 C1_5 1_555 1_555
N2_5 C1_5 1_555 1_555
O1_15 Cu1_8 1_555 1_555
Cu2_9 O1_15 1_555 1_555
Cu3_5 O1_15 1_555 1_555
Cu13_6 N7_5 1_555 1_555
Cu10_2 N2_5 1_555 1_555
Cu7_9 N18_9 1_555 1_555
Cu8_5 N20_8 1_555 1_555
Cu8_4 N10_5 1_555 1_555
Cu10_5 N11_5 1_555 1_555
Cu11_5 N12_5 1_555 1_555
Cu12_3 N13_4 1_555 1_555
C2_5 N2_5 1_555 1_555
C3_5 H3_5 1_555 1_555
C4_5 H4_5 1_555 1_555
C5_5 H5_5 1_555 1_555
C6_5 H6_5 1_555 1_555
C7_5 H7_5 1_555 1_555
C8_5 H8_5 1_555 1_555
C9_5 H9_5 1_555 1_555
C10_5 H10_5 1_555 1_555
C11_5 H11_5 1_555 1_555
C12_5 H12_5 1_555 1_555
H2_5 C2_5 1_555 1_555
N3_5 N1_5 1_555 1_555
N4_5 Cu1_8 1_555 1_555
N5_5 Cu3_5 1_555 1_555
N14_3 C5_5 1_555 1_555
N7_5 C6_5 1_555 1_555
N8_5 Cu2_9 1_555 1_555
N9_5 Cu3_5 1_555 1_555
N10_5 C9_5 1_555 1_555
N11_5 C10_5 1_555 1_555
N12_5 C11_5 1_555 1_555
N13_4 C12_5 1_555 1_555
N17_6 Cu10_2 1_555 1_555
N18_9 C3_5 1_555 1_555
N19_8 Cu1_8 1_555 1_555
N20_8 C7_5 1_555 1_555
N21_9 Cu2_9 1_555 1_555
N22_5 Cu3_5 1_555 1_555
N24_6 Cu13_6 1_555 1_555
O3_9 Cu10_2 1_555 1_555
Cu2_9 N3_5 1_555 1_555
C2_5 N3_5 1_555 1_555
C3_5 N4_5 1_555 1_555
C4_5 N5_5 1_555 1_555
C4_5 N18_9 1_555 1_555
C5_5 N19_8 1_555 1_555
C6_5 N19_8 1_555 1_555
C7_5 N8_5 1_555 1_555
C8_5 N9_5 1_555 1_555
C8_5 N20_8 1_555 1_555
C9_5 N21_9 1_555 1_555
C10_5 N21_9 1_555 1_555
C11_5 N22_5 1_555 1_555
C12_5 N22_5 1_555 1_555
N4_5 N5_5 1_555 1_555
N14_3 N7_5 1_555 1_555
N8_5 N9_5 1_555 1_555
N10_5 N11_5 1_555 1_555
N12_5 N13_4 1_555 1_555
N15_6 Cu13_3 1_555 1_555
N24_7 Cu13_3 1_555 1_555
Cu1_9 N1_6 1_555 1_555
C1_6 H1_6 1_555 1_555
N1_6 C1_6 1_555 1_555
N2_6 C1_6 1_555 1_555
O1_16 Cu1_9 1_555 1_555
Cu2_10 O1_16 1_555 1_555
Cu3_6 O1_16 1_555 1_555
Cu13_4 N7_6 1_555 1_555
Cu10 N2_6 1_555 1_555
Cu7_10 N18_10 1_555 1_555
Cu11_4 N20_9 1_555 1_555
Cu8_2 N10_6 1_555 1_555
Cu7_7 N11_6 1_555 1_555
Cu11_6 N12_6 1_555 1_555
Cu12_4 N13_5 1_555 1_555
C2_6 N2_6 1_555 1_555
C3_6 H3_6 1_555 1_555
C4_6 H4_6 1_555 1_555
C5_6 H5_6 1_555 1_555
C6_6 H6_6 1_555 1_555
C7_6 H7_6 1_555 1_555
C8_6 H8_6 1_555 1_555
C9_6 H9_6 1_555 1_555
C10_6 H10_6 1_555 1_555
C11_6 H11_6 1_555 1_555
C12_6 H12_6 1_555 1_555
H2_6 C2_6 1_555 1_555
N3_6 N1_6 1_555 1_555
N4_6 Cu1_9 1_555 1_555
N5_6 Cu3_6 1_555 1_555
N14_2 C5_6 1_555 1_555
N7_6 C6_6 1_555 1_555
N8_6 Cu2_10 1_555 1_555
N9_6 Cu3_6 1_555 1_555
N10_6 C9_6 1_555 1_555
N11_6 C10_6 1_555 1_555
N12_6 C11_6 1_555 1_555
N13_5 C12_6 1_555 1_555
N17_7 Cu10 1_555 1_555
N18_10 C3_6 1_555 1_555
N19_9 Cu1_9 1_555 1_555
N20_9 C7_6 1_555 1_555
N21_10 Cu2_10 1_555 1_555
N22_6 Cu3_6 1_555 1_555
N24_8 Cu13_4 1_555 1_555
O3_13 Cu10 1_555 1_555
Cu2_10 N3_6 1_555 1_555
C2_6 N3_6 1_555 1_555
C3_6 N4_6 1_555 1_555
C4_6 N5_6 1_555 1_555
C4_6 N18_10 1_555 1_555
C5_6 N19_9 1_555 1_555
C6_6 N19_9 1_555 1_555
C7_6 N8_6 1_555 1_555
C8_6 N9_6 1_555 1_555
C8_6 N20_9 1_555 1_555
C9_6 N21_10 1_555 1_555
C10_6 N21_10 1_555 1_555
C11_6 N22_6 1_555 1_555
C12_6 N22_6 1_555 1_555
N4_6 N5_6 1_555 1_555
N14_2 N7_6 1_555 1_555
N8_6 N9_6 1_555 1_555
N10_6 N11_6 1_555 1_555
N12_6 N13_5 1_555 1_555
Cu2_11 O1_17 1_555 1_555
Cu3_7 O1_17 1_555 1_555
Cu7_11 N18_11 1_555 1_555
Cu11_2 N20_10 1_555 1_555
Cu10_7 N11_7 1_555 1_555
Cu9_3 N12_7 1_555 1_555
Cu7_4 N13_6 1_555 1_555
C4_7 H4_7 1_555 1_555
C7_7 H7_7 1_555 1_555
C8_7 H8_7 1_555 1_555
C10_7 H10_7 1_555 1_555
C11_7 H11_7 1_555 1_555
C12_7 H12_7 1_555 1_555
N5_7 Cu3_7 1_555 1_555
N8_7 Cu2_11 1_555 1_555
N9_7 Cu3_7 1_555 1_555
N11_7 C10_7 1_555 1_555
N12_7 C11_7 1_555 1_555
N13_6 C12_7 1_555 1_555
N20_10 C7_7 1_555 1_555
N21_11 Cu2_11 1_555 1_555
N22_7 Cu3_7 1_555 1_555
C4_7 N5_7 1_555 1_555
C4_7 N18_11 1_555 1_555
C7_7 N8_7 1_555 1_555
C8_7 N9_7 1_555 1_555
C8_7 N20_10 1_555 1_555
C10_7 N21_11 1_555 1_555
C11_7 N22_7 1_555 1_555
C12_7 N22_7 1_555 1_555
N8_7 N9_7 1_555 1_555
N12_7 N13_6 1_555 1_555
Cu1_10 N1_7 1_555 1_555
C1_7 H1_7 1_555 1_555
N1_7 C1_7 1_555 1_555
N2_7 C1_7 1_555 1_555
O1_18 Cu1_10 1_555 1_555
Cu2_12 O1_18 1_555 1_555
Cu13_7 N6_5 1_555 1_555
Cu12_3 N2_7 1_555 1_555
Cu7_12 N18_12 1_555 1_555
Cu8_5 N10_7 1_555 1_555
C2_7 N2_7 1_555 1_555
C3_7 H3_7 1_555 1_555
C5_7 H5_7 1_555 1_555
C6_7 H6_7 1_555 1_555
C9_7 H9_7 1_555 1_555
H2_7 C2_7 1_555 1_555
N3_7 N1_7 1_555 1_555
N4_7 Cu1_10 1_555 1_555
N6_5 C5_7 1_555 1_555
N14_4 C6_7 1_555 1_555
N10_7 C9_7 1_555 1_555
N14_5 Cu13_7 1_555 1_555
N17_8 Cu12_3 1_555 1_555
N18_12 C3_7 1_555 1_555
N19_10 Cu1_10 1_555 1_555
N21_12 Cu2_12 1_555 1_555
N23_5 Cu13_7 1_555 1_555
O3_15 Cu12_3 1_555 1_555
Cu2_12 N3_7 1_555 1_555
C2_7 N3_7 1_555 1_555
C3_7 N4_7 1_555 1_555
C5_7 N19_10 1_555 1_555
C6_7 N19_10 1_555 1_555
C9_7 N21_12 1_555 1_555
N6_5 N14_4 1_555 1_555
N17_9 Cu7_5 1_555 1_555
O3_16 Cu7_5 1_555 1_555
O3_17 Cu7_6 1_555 1_555
Cu2_13 O1_19 1_555 1_555
Cu3_8 O1_19 1_555 1_555
Cu10_5 N18_13 1_555 1_555
Cu11 N20_11 1_555 1_555
Cu10_8 N11_8 1_555 1_555
Cu8_5 N12_8 1_555 1_555
C4_8 H4_8 1_555 1_555
C7_8 H7_8 1_555 1_555
C8_8 H8_8 1_555 1_555
C10_8 H10_8 1_555 1_555
C11_8 H11_8 1_555 1_555
C12_8 H12_8 1_555 1_555
N5_8 Cu3_8 1_555 1_555
N8_8 Cu2_13 1_555 1_555
N9_8 Cu3_8 1_555 1_555
N11_8 C10_8 1_555 1_555
N12_8 C11_8 1_555 1_555
N16_2 C12_8 1_555 1_555
N20_11 C7_8 1_555 1_555
N21_13 Cu2_13 1_555 1_555
N22_8 Cu3_8 1_555 1_555
C4_8 N5_8 1_555 1_555
C4_8 N18_13 1_555 1_555
C7_8 N8_8 1_555 1_555
C8_8 N9_8 1_555 1_555
C8_8 N20_11 1_555 1_555
C10_8 N21_13 1_555 1_555
C11_8 N22_8 1_555 1_555
C12_8 N22_8 1_555 1_555
N8_8 N9_8 1_555 1_555
N12_8 N16_2 1_555 1_555
Cu1_11 N1_8 1_555 1_555
C1_8 H1_8 1_555 1_555
N1_8 C1_8 1_555 1_555
N2_8 C1_8 1_555 1_555
O1_20 Cu1_11 1_555 1_555
Cu2_14 O1_20 1_555 1_555
Cu12_4 N2_8 1_555 1_555
Cu10_6 N18_14 1_555 1_555
Cu11_4 N10_8 1_555 1_555
C2_8 N2_8 1_555 1_555
C3_8 H3_8 1_555 1_555
C5_8 H5_8 1_555 1_555
C6_8 H6_8 1_555 1_555
C9_8 H9_8 1_555 1_555
H2_8 C2_8 1_555 1_555
N3_8 N1_8 1_555 1_555
N4_8 Cu1_11 1_555 1_555
N15_4 C5_8 1_555 1_555
N14_5 C6_8 1_555 1_555
N10_8 C9_8 1_555 1_555
N17_10 Cu12_4 1_555 1_555
N18_14 C3_8 1_555 1_555
N19_11 Cu1_11 1_555 1_555
N21_14 Cu2_14 1_555 1_555
O3_18 Cu12_4 1_555 1_555
Cu2_14 N3_8 1_555 1_555
C2_8 N3_8 1_555 1_555
C3_8 N4_8 1_555 1_555
C5_8 N19_11 1_555 1_555
C6_8 N19_11 1_555 1_555
C9_8 N21_14 1_555 1_555
N15_4 N14_5 1_555 1_555
N15_7 Cu13 1_555 1_555
N24_9 Cu13 1_555 1_555
Cu1_12 N1_9 1_555 1_555
C1_9 H1_9 1_555 1_555
N1_9 C1_9 1_555 1_555
N2_9 C1_9 1_555 1_555
O1_21 Cu1_12 1_555 1_555
Cu2_15 O1_21 1_555 1_555
Cu3_9 O1_21 1_555 1_555
Cu13_2 N7_7 1_555 1_555
Cu10_3 N2_9 1_555 1_555
Cu7_13 N18_15 1_555 1_555
Cu9_3 N20_12 1_555 1_555
Cu9_2 N10_9 1_555 1_555
Cu7_11 N11_9 1_555 1_555
Cu11_7 N12_9 1_555 1_555
C2_9 N2_9 1_555 1_555
C3_9 H3_9 1_555 1_555
C4_9 H4_9 1_555 1_555
C5_9 H5_9 1_555 1_555
C6_9 H6_9 1_555 1_555
C7_9 H7_9 1_555 1_555
C8_9 H8_9 1_555 1_555
C9_9 H9_9 1_555 1_555
C10_9 H10_9 1_555 1_555
C11_9 H11_9 1_555 1_555
C12_9 H12_9 1_555 1_555
H2_9 C2_9 1_555 1_555
N3_9 N1_9 1_555 1_555
N4_9 Cu1_12 1_555 1_555
N5_9 Cu3_9 1_555 1_555
N14 C5_9 1_555 1_555
N7_7 C6_9 1_555 1_555
N8_9 Cu2_15 1_555 1_555
N9_9 Cu3_9 1_555 1_555
N10_9 C9_9 1_555 1_555
N11_9 C10_9 1_555 1_555
N12_9 C11_9 1_555 1_555
N16_3 C12_9 1_555 1_555
N17_11 Cu10_3 1_555 1_555
N18_15 C3_9 1_555 1_555
N19_12 Cu1_12 1_555 1_555
N20_12 C7_9 1_555 1_555
N21_15 Cu2_15 1_555 1_555
N22_9 Cu3_9 1_555 1_555
N24_10 Cu13_2 1_555 1_555
O3_20 Cu10_3 1_555 1_555
Cu2_15 N3_9 1_555 1_555
C2_9 N3_9 1_555 1_555
C3_9 N4_9 1_555 1_555
C4_9 N5_9 1_555 1_555
C4_9 N18_15 1_555 1_555
C5_9 N19_12 1_555 1_555
C6_9 N19_12 1_555 1_555
C7_9 N8_9 1_555 1_555
C8_9 N9_9 1_555 1_555
C8_9 N20_12 1_555 1_555
C9_9 N21_15 1_555 1_555
C10_9 N21_15 1_555 1_555
C11_9 N22_9 1_555 1_555
C12_9 N22_9 1_555 1_555
N4_9 N5_9 1_555 1_555
N14 N7_7 1_555 1_555
N8_9 N9_9 1_555 1_555
N10_9 N11_9 1_555 1_555
N12_9 N16_3 1_555 1_555
N17_12 Cu7_3 1_555 1_555
O3_23 Cu7_3 1_555 1_555
O3_24 Cu7_4 1_555 1_555
Cu10_4 O3_23 1_555 1_555
N16_4 Cu11_2 1_555 1_555
O3_3 Cu11_2 1_555 1_555
Cu9_3 O3_24 1_555 1_555
O3_11 Cu9 1_555 1_555
Cu8_3 O3_19 1_555 1_555
O3_12 Cu9_2 1_555 1_555
Cu10_5 O3_21 1_555 1_555
Cu8_4 O3_21 1_555 1_555
Cu10_6 O3_22 1_555 1_555
O1_22 Cu1_13 1_555 1_555
Cu3_10 O1_22 1_555 1_555
Cu12_5 N13_7 1_555 1_555
C3_10 H3_10 1_555 1_555
C4_10 H4_10 1_555 1_555
C6_10 H6_10 1_555 1_555
C8_10 H8_10 1_555 1_555
C11_10 H11_10 1_555 1_555
C12_10 H12_10 1_555 1_555
N4_10 Cu1_13 1_555 1_555
N5_10 Cu3_10 1_555 1_555
N17_11 C6_10 1_555 1_555
N9_10 Cu3_10 1_555 1_555
N17 C11_10 1_555 1_555
N13_7 C12_10 1_555 1_555
N23 C3_10 1_555 1_555
N19_13 Cu1_13 1_555 1_555
N22_10 Cu3_10 1_555 1_555
C3_10 N4_10 1_555 1_555
C4_10 N5_10 1_555 1_555
C4_10 N23 1_555 1_555
C6_10 N19_13 1_555 1_555
C8_10 N9_10 1_555 1_555
C8_10 N24_7 1_555 1_555
C11_10 N22_10 1_555 1_555
C12_10 N22_10 1_555 1_555
N4_10 N5_10 1_555 1_555
N17 N13_7 1_555 1_555
Cu1_14 N1_10 1_555 1_555
C1_10 H1_10 1_555 1_555
N1_10 C1_10 1_555 1_555
N23_5 C1_10 1_555 1_555
O1_23 Cu1_14 1_555 1_555
Cu2_16 O1_23 1_555 1_555
Cu10_6 N6_6 1_555 1_555
Cu7_10 N11_10 1_555 1_555
C2_10 N23_5 1_555 1_555
C5_10 H5_10 1_555 1_555
C7_10 H7_10 1_555 1_555
C9_10 H9_10 1_555 1_555
C10_10 H10_10 1_555 1_555
H2_10 C2_10 1_555 1_555
N3_10 N1_10 1_555 1_555
N6_6 C5_10 1_555 1_555
N8_10 Cu2_16 1_555 1_555
N17_8 C9_10 1_555 1_555
N11_10 C10_10 1_555 1_555
N19_14 Cu1_14 1_555 1_555
N24_8 C7_10 1_555 1_555
N21_16 Cu2_16 1_555 1_555
Cu2_16 N3_10 1_555 1_555
C2_10 N3_10 1_555 1_555
C5_10 N19_14 1_555 1_555
C7_10 N8_10 1_555 1_555
C9_10 N21_16 1_555 1_555
C10_10 N21_16 1_555 1_555
N17_8 N11_10 1_555 1_555
Cu1_15 N1_11 1_555 1_555
C1_11 H1_11 1_555 1_555
N1_11 C1_11 1_555 1_555
N24_3 C1_11 1_555 1_555
O1_24 Cu1_15 1_555 1_555
Cu2_17 O1_24 1_555 1_555
Cu3_11 O1_24 1_555 1_555
Cu10_4 N6_7 1_555 1_555
Cu10_8 N11_11 1_555 1_555
Cu10_7 N12_10 1_555 1_555
C2_11 N24_3 1_555 1_555
C3_11 H3_11 1_555 1_555
C4_11 H4_11 1_555 1_555
C5_11 H5_11 1_555 1_555
C6_11 H6_11 1_555 1_555
C7_11 H7_11 1_555 1_555
C8_11 H8_11 1_555 1_555
C9_11 H9_11 1_555 1_555
C10_11 H10_11 1_555 1_555
C11_11 H11_11 1_555 1_555
C12_11 H12_11 1_555 1_555
H2_11 C2_11 1_555 1_555
N3_11 N1_11 1_555 1_555
N4_11 Cu1_15 1_555 1_555
N5_11 Cu3_11 1_555 1_555
N6_7 C5_11 1_555 1_555
N17_12 C6_11 1_555 1_555
N8_11 Cu2_17 1_555 1_555
N9_11 Cu3_11 1_555 1_555
N17_9 C9_11 1_555 1_555
N11_11 C10_11 1_555 1_555
N12_10 C11_11 1_555 1_555
N17_4 C12_11 1_555 1_555
N24_2 C3_11 1_555 1_555
N19_15 Cu1_15 1_555 1_555
N24 C7_11 1_555 1_555
N21_17 Cu2_17 1_555 1_555
N22_11 Cu3_11 1_555 1_555
N23_6 Cu10_4 1_555 1_555
Cu2_17 N3_11 1_555 1_555
C2_11 N3_11 1_555 1_555
C3_11 N4_11 1_555 1_555
C4_11 N5_11 1_555 1_555
C4_11 N24_2 1_555 1_555
C5_11 N19_15 1_555 1_555
C6_11 N19_15 1_555 1_555
C7_11 N8_11 1_555 1_555
C8_11 N9_11 1_555 1_555
C8_11 N24 1_555 1_555
C9_11 N21_17 1_555 1_555
C10_11 N21_17 1_555 1_555
C11_11 N22_11 1_555 1_555
C12_11 N22_11 1_555 1_555
N4_11 N5_11 1_555 1_555
N6_7 N17_12 1_555 1_555
N8_11 N9_11 1_555 1_555
N17_9 N11_11 1_555 1_555
N12_10 N17_4 1_555 1_555
Cu1_16 N1_12 1_555 1_555
C1_12 H1_12 1_555 1_555
N1_12 C1_12 1_555 1_555
N2_10 C1_12 1_555 1_555
O1_25 Cu1_16 1_555 1_555
Cu2_18 O1_25 1_555 1_555
Cu3_12 O1_25 1_555 1_555
Cu11_6 N6_8 1_555 1_555
Cu7_13 N7_8 1_555 1_555
Cu12_5 N2_10 1_555 1_555
Cu11_7 N18_16 1_555 1_555
Cu10_7 N20_13 1_555 1_555
Cu11_8 N12_11 1_555 1_555
C2_12 N2_10 1_555 1_555
C3_12 H3_12 1_555 1_555
C4_12 H4_12 1_555 1_555
C5_12 H5_12 1_555 1_555
C6_12 H6_12 1_555 1_555
C7_12 H7_12 1_555 1_555
C8_12 H8_12 1_555 1_555
C9_12 H9_12 1_555 1_555
C10_12 H10_12 1_555 1_555
C11_12 H11_12 1_555 1_555
C12_12 H12_12 1_555 1_555
H2_12 C2_12 1_555 1_555
N3_12 N1_12 1_555 1_555
N4_12 Cu1_16 1_555 1_555
N5_12 Cu3_12 1_555 1_555
N6_8 C5_12 1_555 1_555
N7_8 C6_12 1_555 1_555
N8_12 Cu2_18 1_555 1_555
N9_12 Cu3_12 1_555 1_555
N15_6 C9_12 1_555 1_555
N15_2 C10_12 1_555 1_555
N12_11 C11_12 1_555 1_555
N16_4 C12_12 1_555 1_555
N15_8 Cu7_13 1_555 1_555
N17_13 Cu12_5 1_555 1_555
N18_16 C3_12 1_555 1_555
N19_16 Cu1_16 1_555 1_555
N20_13 C7_12 1_555 1_555
N21_18 Cu2_18 1_555 1_555
N22_12 Cu3_12 1_555 1_555
N23_7 Cu11_6 1_555 1_555
O3_18 Cu11_6 1_555 1_555
O3 Cu12_5 1_555 1_555
Cu2_18 N3_12 1_555 1_555
Cu7_13 O3_18 1_555 1_555
C2_12 N3_12 1_555 1_555
C3_12 N4_12 1_555 1_555
C4_12 N5_12 1_555 1_555
C4_12 N18_16 1_555 1_555
C5_12 N19_16 1_555 1_555
C6_12 N19_16 1_555 1_555
C7_12 N8_12 1_555 1_555
C8_12 N9_12 1_555 1_555
C8_12 N20_13 1_555 1_555
C9_12 N21_18 1_555 1_555
C10_12 N21_18 1_555 1_555
C11_12 N22_12 1_555 1_555
C12_12 N22_12 1_555 1_555
N4_12 N5_12 1_555 1_555
N6_8 N7_8 1_555 1_555
N8_12 N9_12 1_555 1_555
N15_6 N15_2 1_555 1_555
N12_11 N16_4 1_555 1_555
Cu13_8 O3_2 1_555 1_555
N14_6 Cu11 1_555 1_555
O3_2 Cu11 1_555 1_555
Cu1_17 N1_13 1_555 1_555
C1_13 H1_13 1_555 1_555
N1_13 C1_13 1_555 1_555
N2_11 C1_13 1_555 1_555
O1_26 Cu1_17 1_555 1_555
Cu2_19 O1_26 1_555 1_555
Cu3_13 O1_26 1_555 1_555
Cu13_8 N7_9 1_555 1_555
Cu10_8 N2_11 1_555 1_555
Cu11_5 N18_17 1_555 1_555
Cu11_8 N20_14 1_555 1_555
Cu7_9 N12_12 1_555 1_555
Cu11_7 N13_8 1_555 1_555
C2_13 N2_11 1_555 1_555
C3_13 H3_13 1_555 1_555
C4_13 H4_13 1_555 1_555
C5_13 H5_13 1_555 1_555
C6_13 H6_13 1_555 1_555
C7_13 H7_13 1_555 1_555
C8_13 H8_13 1_555 1_555
C9_13 H9_13 1_555 1_555
C10_13 H10_13 1_555 1_555
C11_13 H11_13 1_555 1_555
C12_13 H12_13 1_555 1_555
H2_13 C2_13 1_555 1_555
N3_13 N1_13 1_555 1_555
N4_13 Cu1_17 1_555 1_555
N5_13 Cu3_13 1_555 1_555
N14_6 C5_13 1_555 1_555
N7_9 C6_13 1_555 1_555
N8_13 Cu2_19 1_555 1_555
N9_13 Cu3_13 1_555 1_555
N15 C9_13 1_555 1_555
N15_7 C10_13 1_555 1_555
N12_12 C11_13 1_555 1_555
N13_8 C12_13 1_555 1_555
N15_9 Cu13_8 1_555 1_555
N18_17 C3_13 1_555 1_555
N19_17 Cu1_17 1_555 1_555
N20_14 C7_13 1_555 1_555
N21_19 Cu2_19 1_555 1_555
N22_13 Cu3_13 1_555 1_555
N24_11 Cu13_8 1_555 1_555
O3_16 Cu10_8 1_555 1_555
Cu2_19 N3_13 1_555 1_555
C2_13 N3_13 1_555 1_555
C3_13 N4_13 1_555 1_555
C4_13 N5_13 1_555 1_555
C4_13 N18_17 1_555 1_555
C5_13 N19_17 1_555 1_555
C6_13 N19_17 1_555 1_555
C7_13 N8_13 1_555 1_555
C8_13 N9_13 1_555 1_555
C8_13 N20_14 1_555 1_555
C9_13 N21_19 1_555 1_555
C10_13 N21_19 1_555 1_555
C11_13 N22_13 1_555 1_555
C12_13 N22_13 1_555 1_555
N4_13 N5_13 1_555 1_555
N14_6 N7_9 1_555 1_555
N8_13 N9_13 1_555 1_555
N15 N15_7 1_555 1_555
N12_12 N13_8 1_555 1_555
N17_14 Cu7_10 1_555 1_555
O3_15 Cu7_10 1_555 1_555
O3_7 Cu8 1_555 1_555
O3_8 Cu8_2 1_555 1_555
O3_6 Cu11_7 1_555 1_555
Cu1_18 N1_14 1_555 1_555
C1_14 H1_14 1_555 1_555
N1_14 C1_14 1_555 1_555
N24_11 C1_14 1_555 1_555
O1_27 Cu1_18 1_555 1_555
Cu2_20 O1_27 1_555 1_555
Cu3_14 O1_27 1_555 1_555
Cu11_5 N6_9 1_555 1_555
Cu11_3 N13_9 1_555 1_555
C2_14 N24_11 1_555 1_555
C3_14 H3_14 1_555 1_555
C4_14 H4_14 1_555 1_555
C5_14 H5_14 1_555 1_555
C6_14 H6_14 1_555 1_555
C7_14 H7_14 1_555 1_555
C8_14 H8_14 1_555 1_555
C9_14 H9_14 1_555 1_555
C10_14 H10_14 1_555 1_555
C11_14 H11_14 1_555 1_555
C12_14 H12_14 1_555 1_555
H2_14 C2_14 1_555 1_555
N3_14 N1_14 1_555 1_555
N4_14 Cu1_18 1_555 1_555
N5_14 Cu3_14 1_555 1_555
N6_9 C5_14 1_555 1_555
N17_14 C6_14 1_555 1_555
N8_14 Cu2_20 1_555 1_555
N9_14 Cu3_14 1_555 1_555
N15_5 C9_14 1_555 1_555
N15_3 C10_14 1_555 1_555
N17_13 C11_14 1_555 1_555
N13_9 C12_14 1_555 1_555
N23_7 C3_14 1_555 1_555
N19_18 Cu1_18 1_555 1_555
N23_6 C7_14 1_555 1_555
N21_20 Cu2_20 1_555 1_555
N22_14 Cu3_14 1_555 1_555
O3_15 Cu11_5 1_555 1_555
Cu2_20 N3_14 1_555 1_555
C2_14 N3_14 1_555 1_555
C3_14 N4_14 1_555 1_555
C4_14 N5_14 1_555 1_555
C4_14 N23_7 1_555 1_555
C5_14 N19_18 1_555 1_555
C6_14 N19_18 1_555 1_555
C7_14 N8_14 1_555 1_555
C8_14 N9_14 1_555 1_555
C8_14 N23_6 1_555 1_555
C9_14 N21_20 1_555 1_555
C10_14 N21_20 1_555 1_555
C11_14 N22_14 1_555 1_555
C12_14 N22_14 1_555 1_555
N4_14 N5_14 1_555 1_555
N6_9 N17_14 1_555 1_555
N8_14 N9_14 1_555 1_555
N15_5 N15_3 1_555 1_555
N17_13 N13_9 1_555 1_555
Cu11_8 O3_3 1_555 1_555
O3 Cu11_3 1_555 1_555
Cu11_4 O3_17 1_555 1_555
Cu7_11 O3_12 1_555 1_555
Cu7_12 O3_14 1_555 1_555
O1_28 Cu1_19 1_555 1_555
Cu3_15 O1_28 1_555 1_555
C3_15 H3_15 1_555 1_555
C4_15 H4_15 1_555 1_555
C6_15 H6_15 1_555 1_555
C8_15 H8_15 1_555 1_555
C11_15 H11_15 1_555 1_555
C12_15 H12_15 1_555 1_555
N4_15 Cu1_19 1_555 1_555
N5_15 Cu3_15 1_555 1_555
N17_7 C6_15 1_555 1_555
N9_15 Cu3_15 1_555 1_555
N17_2 C11_15 1_555 1_555
N15_9 C12_15 1_555 1_555
N23_2 C3_15 1_555 1_555
N19_19 Cu1_19 1_555 1_555
N22_15 Cu3_15 1_555 1_555
C3_15 N4_15 1_555 1_555
C4_15 N5_15 1_555 1_555
C4_15 N23_2 1_555 1_555
C6_15 N19_19 1_555 1_555
C8_15 N9_15 1_555 1_555
C8_15 N24_5 1_555 1_555
C11_15 N22_15 1_555 1_555
C12_15 N22_15 1_555 1_555
N4_15 N5_15 1_555 1_555
N17_2 N15_9 1_555 1_555
Cu1_20 N1_15 1_555 1_555
C1_15 H1_15 1_555 1_555
N1_15 C1_15 1_555 1_555
N23_4 C1_15 1_555 1_555
O1_29 Cu1_20 1_555 1_555
Cu2_21 O1_29 1_555 1_555
Cu7_12 N6_10 1_555 1_555
Cu7_9 N11_12 1_555 1_555
C2_15 N23_4 1_555 1_555
C5_15 H5_15 1_555 1_555
C7_15 H7_15 1_555 1_555
C9_15 H9_15 1_555 1_555
C10_15 H10_15 1_555 1_555
H2_15 C2_15 1_555 1_555
N3_15 N1_15 1_555 1_555
N6_10 C5_15 1_555 1_555
N8_15 Cu2_21 1_555 1_555
N17_5 C9_15 1_555 1_555
N11_12 C10_15 1_555 1_555
N19_20 Cu1_20 1_555 1_555
N24_6 C7_15 1_555 1_555
N21_21 Cu2_21 1_555 1_555
Cu2_21 N3_15 1_555 1_555
C2_15 N3_15 1_555 1_555
C5_15 N19_20 1_555 1_555
C7_15 N8_15 1_555 1_555
C9_15 N21_21 1_555 1_555
C10_15 N21_21 1_555 1_555
N17_5 N11_12 1_555 1_555
N15_10 Cu11_8 1_555 1_555
O3_4 Cu10_7 1_555 1_555
O3_6 Cu7_9 1_555 1_555
O3_8 Cu7_7 1_555 1_555
O1_30 Cu1_21 1_555 1_555
Cu3_16 O1_30 1_555 1_555
C3_16 H3_16 1_555 1_555
C4_16 H4_16 1_555 1_555
C6_16 H6_16 1_555 1_555
C8_16 H8_16 1_555 1_555
C11_16 H11_16 1_555 1_555
C12_16 H12_16 1_555 1_555
N4_16 Cu1_21 1_555 1_555
N5_16 Cu3_16 1_555 1_555
N17_6 C6_16 1_555 1_555
N9_16 Cu3_16 1_555 1_555
N17_3 C11_16 1_555 1_555
N15_10 C12_16 1_555 1_555
N23_3 C3_16 1_555 1_555
N19_21 Cu1_21 1_555 1_555
N22_16 Cu3_16 1_555 1_555
C3_16 N4_16 1_555 1_555
C4_16 N5_16 1_555 1_555
C4_16 N23_3 1_555 1_555
C6_16 N19_21 1_555 1_555
C8_16 N9_16 1_555 1_555
C8_16 N24_9 1_555 1_555
C11_16 N22_16 1_555 1_555
C12_16 N22_16 1_555 1_555
N4_16 N5_16 1_555 1_555
N17_3 N15_10 1_555 1_555
Cu1_22 N1_16 1_555 1_555
C1_16 H1_16 1_555 1_555
N1_16 C1_16 1_555 1_555
N24_4 C1_16 1_555 1_555
O1_31 Cu1_22 1_555 1_555
Cu2_22 O1_31 1_555 1_555
Cu7_8 N6_11 1_555 1_555
C2_16 N24_4 1_555 1_555
C5_16 H5_16 1_555 1_555
C7_16 H7_16 1_555 1_555
C9_16 H9_16 1_555 1_555
C10_16 H10_16 1_555 1_555
H2_16 C2_16 1_555 1_555
N3_16 N1_16 1_555 1_555
N6_11 C5_16 1_555 1_555
N8_16 Cu2_22 1_555 1_555
N17_10 C9_16 1_555 1_555
N15_8 C10_16 1_555 1_555
N19_22 Cu1_22 1_555 1_555
N24_10 C7_16 1_555 1_555
N21_22 Cu2_22 1_555 1_555
O3_10 Cu7_8 1_555 1_555
Cu2_22 N3_16 1_555 1_555
C2_16 N3_16 1_555 1_555
C5_16 N19_22 1_555 1_555
C7_16 N8_16 1_555 1_555
C9_16 N21_22 1_555 1_555
C10_16 N21_22 1_555 1_555
N17_10 N15_8 1_555 1_555
Cu8_5 O3_5 1_555 1_555
O4 H13 1_555 1_555
O4 H13_2 1_555 1_555
O4_2 H13_3 1_555 1_555
O4_2 H13_4 1_555 1_555
O4_3 H13_5 1_555 1_555
O4_3 H13_6 1_555 1_555
O4_4 H13_7 1_555 1_555
O4_6 H13_9 1_555 1_555
O4_6 H13_10 1_555 1_555
O4_7 H13_12 1_555 1_555
O4_7 H13_13 1_555 1_555
O4_9 H13_14 1_555 1_555
O4_11 H13_16 1_555 1_555
O4_11 H13_17 1_555 1_555
O4_12 H13_18 1_555 1_555
O4_15 H13_20 1_555 1_555
O4_15 H13_21 1_555 1_555
O4_18 H13_23 1_555 1_555
O4_18 H13_24 1_555 1_555
O4_23 H13_27 1_555 1_555
O4_23 H13_28 1_555 1_555
O4_24 H13_30 1_555 1_555
O4_24 H13_31 1_555 1_555
O4_26 H13_33 1_555 1_555
O4_26 H13_34 1_555 1_555
O4_29 H13_38 1_555 1_555
O4_29 H13_39 1_555 1_555
O4_30 H13_40 1_555 1_555
O4_30 H13_41 1_555 1_555
O4_31 H13_43 1_555 1_555
O4_31 H13_44 1_555 1_555
O4_32 H13_46 1_555 1_555
O4_32 H13_47 1_555 1_555
O4_33 H13_58 1_555 1_555
O4_33 H13_59 1_555 1_555
O4_34 H13_60 1_555 1_555
O4_34 H13_61 1_555 1_555
O4_35 H13_62 1_555 1_555
O4_35 H13_63 1_555 1_555
O4_36 H13_64 1_555 1_555
O4_38 H13_65 1_555 1_555
O4_38 H13_66 1_555 1_555
O4_39 H13_68 1_555 1_555
O4_39 H13_69 1_555 1_555
O4_41 H13_71 1_555 1_555
O4_43 H13_72 1_555 1_555
O4_43 H13_73 1_555 1_555
O4_44 H13_75 1_555 1_555
O4_47 H13_77 1_555 1_555
O4_47 H13_78 1_555 1_555
O4_50 H13_80 1_555 1_555
O4_50 H13_81 1_555 1_555
O4_55 H13_84 1_555 1_555
O4_55 H13_85 1_555 1_555
O4_56 H13_87 1_555 1_555
O4_56 H13_88 1_555 1_555
O4_58 H13_90 1_555 1_555
O4_58 H13_91 1_555 1_555
O4_61 H13_95 1_555 1_555
O4_61 H13_96 1_555 1_555
O4_62 H13_98 1_555 1_555
O4_62 H13_99 1_555 1_555
O4_63 H13_101 1_555 1_555
O4_63 H13_102 1_555 1_555
O4_64 H13_104 1_555 1_555
O4_64 H13_105 1_555 1_555

#END
