
###############################################################################
#
# This file contains modified crystal structure data generated from the
# MOF subset of the Cambridge Structural Database (CSD) v543 
# hosted by the Cambridge Crystallographic Data Centre (CCDC).
#
# This work is licensed under the Creative Commons
# Attribution-NonCommercial-ShareAlike 4.0 International License.
# To view a copy of this license, visit
# http://creativecommons.org/licenses/by-nc-sa/4.0/
# or send a letter to
# Creative Commons, PO Box 1866, Mountain View, CA 94042, USA.
#
# CIF created using the CSD Python API on 29 September 2022
# The structure has been converted into the P1 space group
# The structure has a 3D framework
# The original CSD entry DEHBIC is in the triclinic crystal system
# The original CSD entry DEHBIC is in a Sohncke space group
# The framework has been calculated to contain at least 10.0% void space
# The void calculation uses a probe of radius 1.32A, grid spacing 0.4
# H atom positions have been added when not included in the experimental data
#
###############################################################################

data_DEHBIC
_chemical_formula_moiety         '(C12 H18 Gd1 O18)n'
_symmetry_cell_setting           triclinic
_symmetry_space_group_name_H-M   'P 1'
_symmetry_Int_Tables_number      1
_space_group_name_Hall           'P 1'
loop_
_symmetry_equiv_pos_site_id
_symmetry_equiv_pos_as_xyz
1 x,y,z
_cell_length_a                   6.026(2)
_cell_length_b                   7.450(3)
_cell_length_c                   13.287(4)
_cell_angle_alpha                102.74(3)
_cell_angle_beta                 101.46(5)
_cell_angle_gamma                90.72(3)
_cell_volume                     569.225
loop_
_atom_site_label
_atom_site_type_symbol
_atom_site_fract_x
_atom_site_fract_y
_atom_site_fract_z
_atom_site_U_iso_or_equiv
_atom_site_thermal_displace_type
H3 H 0.0036 0.6259 0.7444 0.0250 Uiso
C8 C 0.0289(14) 0.3118(13) 0.8436(6) 0.0273 Uani
O14 O 0.2337(10) 0.3229(10) 0.8379(6) 0.0352 Uani
Gd7 Gd 0.53567(4) 0.12731(3) 0.85999(3) 0.0239 Uani
H6 H 0.0381 0.0611 0.6153 0.0300 Uiso
C12 C 0.3658(15) 0.1404(11) 0.6131(7) 0.0262 Uani
O19 O 0.5386(11) 0.1661(9) 0.6877(5) 0.0288 Uani
O20 O 0.3367(12) 0.2278(10) 0.5389(6) 0.0331 Uani
Gd4 Gd 0.49991(4) 0.49006(3) 0.49998(3) 0.0244 Uani
O1 O 0.7576(12) 0.2761(10) 0.4288(7) 0.0411 Uani
C1 C 0.292(2) 0.388(2) 0.2766(12) 0.0334 Uani
C2 C 0.1375(16) 0.3337(16) 0.1687(8) 0.0281 Uani
H1 H 0.1638 0.2061 0.1368 0.0340 Uiso
C5 C 0.6749(13) 0.6974(11) 0.7506(7) 0.0264 Uani
C6 C 0.8632(15) 0.5606(11) 0.7468(7) 0.0210 Uani
C7 C 0.8999(13) 0.4897(11) 0.8512(7) 0.0252 Uani
H4 H 0.9856 0.5857 0.9091 0.0300 Uiso
C9 C 0.0121(14) 0.6823(14) 0.5095(7) 0.0295 Uani
C10 C 0.1498(13) 0.8540(12) 0.5073(7) 0.0266 Uani
H5 H 0.0728 0.9082 0.4498 0.0320 Uiso
C11 C 0.1799(17) 0.9987(12) 0.6134(8) 0.0252 Uani
O3 O 0.4402(13) 0.5226(12) 0.3015(6) 0.0408 Uani
O4 O 0.2687(13) 0.2911(11) 0.3397(5) 0.0348 Uani
O5 O 0.1676(12) 0.4437(11) 0.0984(6) 0.0379 Uani
H7 H 0.2126 0.3809 0.0483 0.0570 Uiso
O9 O 0.6999(12) 0.8344(9) 0.8253(6) 0.0325 Uani
O10 O 0.5067(12) 0.6585(10) 0.6732(5) 0.0320 Uani
O11 O 0.8035(10) 0.4137(9) 0.6539(5) 0.0271 Uani
H9 H 0.716(17) 0.340(12) 0.667(10) 0.0330 Uiso
O12 O 0.6846(11) 0.4536(8) 0.8737(5) 0.0298 Uani
H10 H 0.68(2) 0.535(12) 0.927(6) 0.0360 Uiso
O13 O 0.9222(10) 0.1701(9) 0.8497(6) 0.0304 Uani
O15 O 0.1106(12) 0.5387(10) 0.5074(7) 0.0391 Uani
O17 O 0.3679(10) 0.7974(9) 0.4884(6) 0.0295 Uani
H11 H 0.41(2) 0.835(15) 0.439(7) 0.0360 Uiso
O18 O 0.2368(11) 0.9273(9) 0.7040(5) 0.0293 Uani
H12 H 0.30(2) 0.832(10) 0.683(10) 0.0350 Uiso
O25 O 0.8058(11) 0.7012(10) 0.5109(7) 0.0370 Uani
H17 H 0.870734 0.343428 0.403511 . .
H18 H 0.836992 0.216338 0.484562 . .
C3 C 0.8896(19) 0.3404(15) 0.1827(9) 0.0330 Uani
H2 H 0.8732 0.2728 0.2365 0.0390 Uiso
C4 C 0.7316(19) 0.2446(19) 0.0789(9) 0.0312 Uani
O6 O 0.8434(12) 0.5259(10) 0.2194(6) 0.0373 Uani
H8 H 0.7522 0.5310 0.2581 0.0560 Uiso
O7 O 0.5630(12) 0.3261(11) 0.0402(5) 0.0324 Uani
O8 O 0.7741(12) 0.0900(11) 0.0312(6) 0.0367 Uani
H15 H 0.142692 0.0442563 0.942466 . .
H20 H 0.596374 0.495257 0.812394 . .
O2 O 0.2648(11) 0.9623(11) 0.9248(7) 0.0401 Uani
H16 H 0.197743 0.851912 0.869548 . .
H19 H 0.194127 0.993947 0.646626 . .
loop_
_atom_site_aniso_label
_atom_site_aniso_U_11
_atom_site_aniso_U_22
_atom_site_aniso_U_33
_atom_site_aniso_U_23
_atom_site_aniso_U_13
_atom_site_aniso_U_12
C8 0.025 0.032 0.025 0.006 0.006 0.002
O14 0.019 0.044 0.045 0.014 0.008 -0.001
Gd7 0.0187 0.0246 0.0287 0.00668 0.00478 -1e-05
C12 0.031 0.018 0.03 0.005 0.008 -0.002
O19 0.029 0.034 0.023 0.01 0.001 -0.008
O20 0.033 0.029 0.039 0.015 0.004 -0.008
Gd4 0.0194 0.0248 0.0289 0.00653 0.00426 -0.00239
O1 0.032 0.033 0.055 -0.001 0.014 -0.001
C1 0.029 0.036 0.038 0.017 0.004 -0.002
C2 0.019 0.037 0.029 0.008 0.006 0
C5 0.023 0.02 0.034 0.002 0.005 0.009
C6 0.021 0.011 0.03 0.006 0.001 0.009
C7 0.022 0.022 0.033 0.007 0.008 0.001
C9 0.016 0.036 0.037 0.011 0.004 -0.006
C10 0.021 0.028 0.032 0.011 0.004 -0.002
C11 0.021 0.018 0.036 0.004 0.007 -0.003
O3 0.033 0.047 0.037 0.002 0.004 -0.012
O4 0.038 0.039 0.025 0.011 -0.003 0
O5 0.035 0.048 0.038 0.018 0.015 0.011
O9 0.034 0.023 0.035 -0.002 0.004 -0.001
O10 0.034 0.036 0.02 -0.005 0.004 0.004
O11 0.027 0.025 0.03 0.009 0.005 -0.002
O12 0.031 0.022 0.037 -0.002 0.019 -0.007
O13 0.015 0.025 0.052 0.011 0.006 0.004
O15 0.024 0.024 0.07 0.012 0.01 0.001
O17 0.021 0.035 0.037 0.013 0.011 0
O18 0.028 0.025 0.036 0.009 0.007 0.003
O25 0.023 0.032 0.056 0.007 0.012 -0.005
C3 0.032 0.033 0.035 0.008 0.009 -0.004
C4 0.018 0.045 0.025 -0.002 0.003 -0.005
O6 0.032 0.037 0.038 -0.005 0.011 -0.001
O7 0.025 0.042 0.031 0.009 0.007 0.004
O8 0.032 0.038 0.032 -0.002 -0.001 -0.002
O2 0.026 0.044 0.061 0.031 0.013 0.005
loop_
_geom_bond_atom_site_label_1
_geom_bond_atom_site_label_2
_geom_bond_site_symmetry_1
_geom_bond_site_symmetry_2
O14 C8 1_555 1_555
Gd7 O14 1_555 1_555
O19 C12 1_555 1_555
O20 C12 1_555 1_555
Gd4 O20 1_555 1_555
O19 Gd7 1_555 1_555
Gd4 O1 1_555 1_555
C1 C2 1_555 1_555
C2 H1 1_555 1_555
C5 C6 1_555 1_555
C7 C6 1_555 1_555
H4 C7 1_555 1_555
C9 C10 1_555 1_555
C10 H5 1_555 1_555
C11 C10 1_555 1_555
O3 Gd4 1_555 1_555
O4 Gd4 1_555 1_555
O5 C2 1_555 1_555
H7 O5 1_555 1_555
O9 C5 1_555 1_555
O10 Gd4 1_555 1_555
O11 Gd4 1_555 1_555
H9 O11 1_555 1_555
O12 C7 1_555 1_555
H10 O12 1_555 1_555
O15 Gd4 1_555 1_555
O17 Gd4 1_555 1_555
H11 O17 1_555 1_555
O18 C11 1_555 1_555
H12 O18 1_555 1_555
Gd7 O12 1_555 1_555
O25 Gd4 1_555 1_555
C1 O3 1_555 1_555
C1 O4 1_555 1_555
C5 O10 1_555 1_555
C6 O11 1_555 1_555
C9 O15 1_555 1_555
C10 O17 1_555 1_555
O13 Gd7 1_555 1_555
O1 H17 1_555 1_555
O1 H18 1_555 1_555
H2 C3 1_555 1_555
C4 C3 1_555 1_555
O6 C3 1_555 1_555
H8 O6 1_555 1_555
C4 O7 1_555 1_555
C4 O8 1_555 1_555
O12 H20 1_555 1_555
O2 H16 1_555 1_555
O18 H19 1_555 1_555

#END
