
###############################################################################
#
# This file contains modified crystal structure data generated from the
# MOF subset of the Cambridge Structural Database (CSD) v543 
# hosted by the Cambridge Crystallographic Data Centre (CCDC).
#
# This work is licensed under the Creative Commons
# Attribution-NonCommercial-ShareAlike 4.0 International License.
# To view a copy of this license, visit
# http://creativecommons.org/licenses/by-nc-sa/4.0/
# or send a letter to
# Creative Commons, PO Box 1866, Mountain View, CA 94042, USA.
#
# CIF created using the CSD Python API on 29 September 2022
# The structure has been converted into the P1 space group
# The structure has a 3D framework
# The original CSD entry DEHFUR01 is in the hexagonal crystal system
# The original CSD entry DEHFUR01 is in a Sohncke space group
# The framework has been calculated to contain at least 10.0% void space
# The void calculation uses a probe of radius 1.32A, grid spacing 0.4
# The framework is charged, counterions have been retained in the structure
#
###############################################################################

data_DEHFUR01
_chemical_formula_moiety         '(C108 H204 O100 P12 Zn17 1+)n'
_symmetry_cell_setting           triclinic
_symmetry_space_group_name_H-M   'P 1'
_symmetry_Int_Tables_number      1
_space_group_name_Hall           'P 1'
loop_
_symmetry_equiv_pos_site_id
_symmetry_equiv_pos_as_xyz
1 x,y,z
_cell_length_a                   11.4033(6)
_cell_length_b                   11.4033(6)
_cell_length_c                   46.317(3)
_cell_angle_alpha                90
_cell_angle_beta                 90
_cell_angle_gamma                120
_cell_volume                     5215.93
loop_
_atom_site_label
_atom_site_type_symbol
_atom_site_fract_x
_atom_site_fract_y
_atom_site_fract_z
Zn3 Zn 0.01456(7) 0.99131(9) 0.66634(2)
H8 H 0.299155 0.052992 0.550483
P2 P 0.02303(15) 0.01411(14) 0.55070(3)
Zn2 Zn 0.02325(6) 0.01456(7) 0.49967(2)
C14 C 0.1083(6) 0.1824(6) 0.56688(14)
C16 C 0.0643(6) 0.2783(6) 0.55350(15)
H19 H 0.088777 0.173994 0.587844
H20 H 0.207318 0.222626 0.564453
C18 C 0.1377(6) 0.4190(6) 0.56615(13)
H23 H 0.081063 0.284269 0.532437
O12 O 0.0776(4) 0.4669(5) 0.57966(11)
O14 O 0.1779(6) 0.0206(4) 0.47771(9)
O15 O 0.0172(6) 0.1647(4) 0.47795(10)
O17 O 0.2663(4) 0.4893(4) 0.56185(10)
Zn7 Zn 0.35442(6) 0.67413(7) 0.57870(2)
O1 O 0.2779(4) 0.7703(4) 0.55622(9)
P1 P 0.34455(14) 0.65850(20) 0.62936(3)
O2 O 0.5363(4) 0.7591(4) 0.55992(9)
C1 C 0.3019(6) 0.8845(6) 0.56622(14)
C2 C 0.5003(6) 0.6950(5) 0.64734(14)
C3 C 0.2224(5) 0.4935(6) 0.64406(13)
C4 C 0.2996(6) 0.7717(6) 0.64723(14)
O4 O 0.3751(4) 0.9390(4) 0.58802(10)
C5 C 0.2347(6) 0.9543(6) 0.55131(14)
C6 C 0.6126(6) 0.8399(6) 0.64271(14)
H1 H 0.530268 0.632695 0.639991
H2 H 0.482946 0.678297 0.668296
C7 C 0.2580(6) 0.3842(6) 0.63874(13)
H3 H 0.132625 0.464817 0.635425
H4 H 0.214884 0.502720 0.665128
H5 H 0.305988 0.763781 0.668379
C8 C 0.1574(6) 0.7414(6) 0.63961(14)
H6 H 0.365269 0.866155 0.641670
C9 C 0.1064(6) 0.9287(6) 0.56722(14)
H7 H 0.211274 0.920524 0.531258
H9 H 0.624358 0.859073 0.621733
C10 C 0.7466(6) 0.8678(6) 0.65550(13)
H10 H 0.585862 0.902046 0.651586
C11 C 0.1575(6) 0.2503(6) 0.65243(13)
H11 H 0.260961 0.371260 0.617674
H12 H 0.349316 0.414004 0.646631
C12 C 0.1273(6) 0.8441(6) 0.65308(13)
H13 H 0.148475 0.742816 0.618362
H14 H 0.090693 0.649681 0.646554
H15 H 0.130162 0.960038 0.587431
H16 H 0.041876 0.830042 0.567664
O5 O 0.8511(4) 0.9760(4) 0.64706(9)
O6 O 0.7518(4) 0.7897(4) 0.67337(9)
O7 O 0.0751(4) 0.2439(4) 0.67076(10)
O8 O 0.1647(4) 0.1475(4) 0.64462(10)
O9 O 0.0206(4) 0.8427(4) 0.64438(9)
O10 O 0.2018(4) 0.9228(4) 0.67250(10)
C13 C 0.8547(6) 0.9312(6) 0.56708(13)
H17 H 0.863269 0.918830 0.587978
H18 H 0.815018 0.990681 0.564977
C15 C 0.7584(6) 0.7928(6) 0.55343(14)
C17 C 0.6219(6) 0.7245(6) 0.56811(13)
H21 H 0.746495 0.805237 0.532692
H22 H 0.799103 0.734041 0.554907
O11 O 0.5981(4) 0.6419(4) 0.58807(9)
O13 O 0.8751(6) 0.8511(4) 0.48039(9)
Zn4 Zn 0.00869(9) 0.02325(11) 0.33300(2)
O8_2 O 0.8525(4) 0.0172(6) 0.31129(10)
Zn1 Zn 0.32587(7) 0.68029(9) 0.24537(2)
O1_2 O 0.2297(4) 0.5076(6) 0.22289(9)
P1_2 P 0.34150(20) 0.68605(24) 0.29603(3)
O2_2 O 0.2409(4) 0.7772(6) 0.22659(9)
O3 O 0.5107(4) 0.7770(6) 0.22852(10)
C1_2 C 0.1155(6) 0.4174(8) 0.23289(14)
C2_2 C 0.3050(5) 0.8053(8) 0.31401(14)
C3_2 C 0.5065(6) 0.7289(8) 0.31073(13)
C4_2 C 0.2283(6) 0.5279(8) 0.31390(14)
O4_2 O 0.0610(4) 0.4361(6) 0.25469(10)
C5_2 C 0.0457(6) 0.2804(8) 0.21798(14)
C6_2 C 0.1601(6) 0.7727(8) 0.30938(14)
H1_2 H 0.367305 0.897573 0.306658
H2_2 H 0.321703 0.804649 0.334963
C7_2 C 0.6158(6) 0.8738(8) 0.30541(13)
H3_2 H 0.535183 0.667808 0.302092
H4_2 H 0.497280 0.712164 0.331795
H5_2 H 0.236219 0.542207 0.335046
C8_2 C 0.2586(6) 0.4160(8) 0.30628(14)
H6_2 H 0.133845 0.499114 0.308337
C9_2 C 0.0713(6) 0.1777(8) 0.23389(14)
H7_2 H 0.079476 0.290750 0.197925
H9_2 H 0.140927 0.765285 0.288400
C10_2 C 0.1322(6) 0.8788(8) 0.32217(13)
H10_2 H 0.097954 0.683816 0.318253
C11_2 C 0.7497(6) 0.9072(8) 0.31910(13)
H11_2 H 0.628740 0.889701 0.284341
H12_2 H 0.585996 0.935312 0.313298
C12_2 C 0.1559(6) 0.2832(8) 0.31975(13)
H13_2 H 0.257184 0.405659 0.285029
H14_2 H 0.350319 0.441012 0.313221
H15_2 H 0.039962 0.170124 0.254098
H16_2 H 0.169958 0.211834 0.234331
O5_2 O 0.0240(4) 0.8751(6) 0.31373(9)
O6_2 O 0.2103(4) 0.9621(6) 0.34004(9)
O7_2 O 0.7561(4) 0.8312(6) 0.33743(10)
O9_2 O 0.1573(4) 0.1779(6) 0.31105(9)
O10_2 O 0.0772(4) 0.2790(6) 0.33917(10)
H22_2 H 0.265959 0.065062 0.221574
O13_2 O 0.1489(4) 0.0240(7) 0.14706(9)
C13_2 C 0.0688(6) 0.9235(8) 0.23375(13)
H17_2 H 0.081170 0.944439 0.254645
H18_2 H 0.009319 0.824337 0.231644
C15_2 C 0.2072(6) 0.9656(8) 0.22010(14)
C17_2 C 0.2755(6) 0.8974(8) 0.23478(13)
H21_2 H 0.194763 0.941258 0.199359
O11_2 O 0.3581(4) 0.9562(6) 0.25474(9)
H8_2 H 0.947008 0.246163 0.217150
P2_2 P 0.98589(14) 0.00892(21) 0.21737(3)
Zn2_2 Zn 0.98544(7) 0.00869(9) 0.16634(2)
O14_2 O 0.9794(4) 0.1573(7) 0.14438(9)
C14_2 C 0.8176(6) 0.9259(8) 0.23355(14)
C16_2 C 0.7217(6) 0.7860(8) 0.22017(15)
H19_2 H 0.826006 0.914783 0.254511
H20_2 H 0.777374 0.984692 0.231120
C18_2 C 0.5810(6) 0.7187(8) 0.23282(13)
H23_2 H 0.715731 0.796794 0.199104
H24 H 0.760575 0.726374 0.223154
O12_2 O 0.5331(5) 0.6107(6) 0.24633(11)
O15_2 O 0.8353(4) 0.8525(7) 0.14462(10)
C13_3 C 0.0765(8) 0.1453(6) 0.90041(13)
H17_3 H 0.055561 0.136731 0.921311
H18_3 H 0.175663 0.184982 0.898310
C15_3 C 0.0344(8) 0.2416(6) 0.88676(14)
C17_3 C 0.1026(8) 0.3781(6) 0.90144(13)
H21_3 H 0.058742 0.253505 0.866025
H24_2 H 0.273626 0.034201 0.889820
O11_3 O 0.0438(6) 0.4019(4) 0.92140(9)
O16 O 0.2228(6) 0.4637(4) 0.89325(9)
Zn6 Zn 0.31971(9) 0.64558(6) 0.91203(2)
C14_3 C 0.0741(8) 0.8917(6) 0.90021(14)
C16_3 C 0.2140(8) 0.9357(6) 0.88683(15)
H19_3 H 0.085217 0.911223 0.921177
H20_3 H 0.015308 0.792682 0.897786
C18_3 C 0.2813(8) 0.8623(6) 0.89948(13)
H23_3 H 0.203206 0.918937 0.865770
O12_3 O 0.3893(6) 0.9224(4) 0.91299(11)
O15_3 O 0.1475(7) 0.9828(6) 0.81129(10)
O17_2 O 0.2230(6) 0.7337(4) 0.89518(10)
H22_3 H 0.934938 0.200897 0.888240
O13_3 O 0.9760(7) 0.1249(6) 0.81373(9)
O1_3 O 0.4924(6) 0.7221(4) 0.88955(9)
P1_3 P 0.31395(24) 0.65545(14) 0.96269(3)
C1_3 C 0.5826(8) 0.6981(6) 0.89955(14)
C2_3 C 0.1947(8) 0.4997(6) 0.98067(14)
C3_3 C 0.2711(8) 0.7776(5) 0.97739(13)
C4_3 C 0.4721(8) 0.7004(6) 0.98056(14)
O4_3 O 0.5639(6) 0.6249(4) 0.92135(10)
C5_3 C 0.7196(8) 0.7653(6) 0.88464(14)
C6_3 C 0.2273(8) 0.3874(6) 0.97604(14)
H1_3 H 0.102427 0.469732 0.973324
C7_3 C 0.1262(8) 0.7420(6) 0.97207(13)
H3_3 H 0.332192 0.867375 0.968758
H4_3 H 0.287836 0.785116 0.998461
C8_3 C 0.5840(8) 0.8426(6) 0.97294(14)
H6_3 H 0.500886 0.634731 0.975003
C9_3 C 0.8223(8) 0.8936(6) 0.90055(14)
H7_3 H 0.709250 0.788726 0.864591
H8_3 H 0.753837 0.700845 0.883816
H9_3 H 0.234715 0.375642 0.955066
C10_3 C 0.1212(8) 0.2534(6) 0.98883(13)
H10_3 H 0.316184 0.414138 0.984919
C11_3 C 0.0928(8) 0.8425(6) 0.98576(13)
H11_3 H 0.110299 0.739039 0.951007
H12_3 H 0.064688 0.650684 0.979964
C12_3 C 0.7168(8) 0.8727(6) 0.98641(13)
H13_3 H 0.594341 0.851525 0.951695
H14_3 H 0.558988 0.909307 0.979887
P2_3 P 0.99108(21) 0.97697(15) 0.88403(3)
H15_3 H 0.829876 0.869838 0.920764
H16_3 H 0.788166 0.958124 0.900997
O5_3 O 0.1249(6) 0.1489(4) 0.98039(9)
O9_3 O 0.8221(6) 0.9794(4) 0.97771(9)
Zn2_3 Zn 0.99131(9) 0.97675(6) 0.83300(2)
Zn5 Zn 0.97675(11) 0.98544(7) 0.99967(2)
O14_3 O 0.8427(7) 0.8221(6) 0.81105(9)
O8_3 O 0.9828(6) 0.8353(4) 0.97795(10)
C13_4 C 0.1453(6) 0.0688(6) 0.06708(13)
H17_4 H 0.136731 0.081170 0.087978
H18_4 H 0.184982 0.009319 0.064977
C15_4 C 0.2416(6) 0.2072(6) 0.05343(14)
C17_4 C 0.3781(6) 0.2755(6) 0.06811(13)
H21_4 H 0.253505 0.194763 0.032692
H22_4 H 0.200897 0.265959 0.054907
O11_4 O 0.4019(4) 0.3581(4) 0.08807(9)
O16_2 O 0.4637(4) 0.2409(4) 0.05992(9)
Zn6_2 Zn 0.64558(6) 0.32587(7) 0.07870(2)
O1_4 O 0.7221(4) 0.2297(4) 0.05622(9)
P1_4 P 0.65545(14) 0.34150(20) 0.12936(3)
O3_2 O 0.7337(4) 0.5107(4) 0.06185(10)
C1_4 C 0.6981(6) 0.1155(6) 0.06622(14)
C2_4 C 0.4997(6) 0.3050(5) 0.14734(14)
C3_4 C 0.7776(5) 0.5065(6) 0.14406(13)
C4_4 C 0.7004(6) 0.2283(6) 0.14723(14)
O4_4 O 0.6249(4) 0.0610(4) 0.08802(10)
C5_4 C 0.7653(6) 0.0457(6) 0.05131(14)
C6_4 C 0.3874(6) 0.1601(6) 0.14271(14)
H1_4 H 0.469732 0.367305 0.139991
H2_3 H 0.517054 0.321703 0.168296
C7_4 C 0.7420(6) 0.6158(6) 0.13874(13)
H3_4 H 0.867375 0.535183 0.135425
H4_4 H 0.785116 0.497280 0.165128
H5_3 H 0.694012 0.236219 0.168379
C8_4 C 0.8426(6) 0.2586(6) 0.13961(14)
H6_4 H 0.634731 0.133845 0.141670
C9_4 C 0.8936(6) 0.0713(6) 0.06722(14)
H7_4 H 0.788726 0.079476 0.031258
H9_4 H 0.375642 0.140927 0.121733
C10_4 C 0.2534(6) 0.1322(6) 0.15550(13)
H10_4 H 0.414138 0.097954 0.151586
C11_4 C 0.8425(6) 0.7497(6) 0.15243(13)
H11_4 H 0.739039 0.628740 0.117674
H12_4 H 0.650684 0.585996 0.146631
C12_4 C 0.8727(6) 0.1559(6) 0.15308(13)
H13_4 H 0.851525 0.257184 0.118362
H14_4 H 0.909307 0.350319 0.146554
H15_4 H 0.869838 0.039962 0.087431
H16_4 H 0.958124 0.169958 0.067664
O6_3 O 0.2482(4) 0.2103(4) 0.17337(9)
O7_3 O 0.9249(4) 0.7561(4) 0.17076(10)
O10_3 O 0.7982(4) 0.0772(4) 0.17250(10)
H8_4 H 0.700845 0.947008 0.050483
P2_4 P 0.97697(15) 0.98589(14) 0.05070(3)
C14_4 C 0.8917(6) 0.8176(6) 0.06688(14)
C16_4 C 0.9357(6) 0.7217(6) 0.05350(15)
H19_4 H 0.911223 0.826006 0.087844
H20_4 H 0.792682 0.777374 0.064453
C18_4 C 0.8623(6) 0.5810(6) 0.06615(13)
H23_4 H 0.918937 0.715731 0.032437
O12_4 O 0.9224(4) 0.5331(5) 0.07966(11)
C14_5 C 0.1824(6) 0.0741(8) 0.73355(14)
C16_5 C 0.2783(6) 0.2140(8) 0.72017(15)
H19_5 H 0.173994 0.085217 0.754511
H20_5 H 0.222626 0.015308 0.731120
C18_5 C 0.4190(6) 0.2813(8) 0.73282(13)
H23_5 H 0.284269 0.203206 0.699104
H24_3 H 0.239425 0.273626 0.723154
O12_5 O 0.4669(5) 0.3893(6) 0.74633(11)
O17_3 O 0.4893(4) 0.2230(6) 0.72852(10)
Zn7_2 Zn 0.67413(7) 0.31971(9) 0.74537(2)
H8_5 H 0.052992 0.753837 0.717150
P2_5 P 0.01411(14) 0.99108(21) 0.71737(3)
C13_5 C 0.9312(6) 0.0765(8) 0.73375(13)
H17_5 H 0.918830 0.055561 0.754645
H18_5 H 0.990681 0.175663 0.731644
C15_5 C 0.7928(6) 0.0344(8) 0.72010(14)
C17_5 C 0.7245(6) 0.1026(8) 0.73478(13)
H21_5 H 0.805237 0.058742 0.699359
O11_5 O 0.6419(4) 0.0438(6) 0.75474(9)
O16_3 O 0.7591(4) 0.2228(6) 0.72659(9)
O1_5 O 0.7703(4) 0.4924(6) 0.72289(9)
P1_5 P 0.65850(20) 0.31395(24) 0.79603(3)
C1_5 C 0.8845(6) 0.5826(8) 0.73289(14)
C2_5 C 0.6950(5) 0.1947(8) 0.81401(14)
C3_5 C 0.4935(6) 0.2711(8) 0.81073(13)
C4_5 C 0.7717(6) 0.4721(8) 0.81390(14)
O4_5 O 0.9390(4) 0.5639(6) 0.75469(10)
C5_5 C 0.9543(6) 0.7196(8) 0.71798(14)
C6_5 C 0.8399(6) 0.2273(8) 0.80938(14)
H1_5 H 0.632695 0.102427 0.806658
H2_4 H 0.678297 0.195351 0.834963
C7_5 C 0.3842(6) 0.1262(8) 0.80541(13)
H3_5 H 0.464817 0.332192 0.802092
H4_5 H 0.502720 0.287836 0.831795
H5_4 H 0.763781 0.457793 0.835046
C8_5 C 0.7414(6) 0.5840(8) 0.80628(14)
H6_5 H 0.866155 0.500886 0.808337
C9_5 C 0.9287(6) 0.8223(8) 0.73389(14)
H7_5 H 0.920524 0.709250 0.697925
H9_5 H 0.859073 0.234715 0.788400
C10_5 C 0.8678(6) 0.1212(8) 0.82217(13)
H10_5 H 0.902046 0.316184 0.818253
C11_5 C 0.2503(6) 0.0928(8) 0.81910(13)
H11_5 H 0.371260 0.110299 0.784341
H12_5 H 0.414004 0.064688 0.813298
C12_5 C 0.8441(6) 0.7168(8) 0.81975(13)
H13_5 H 0.742816 0.594341 0.785029
H14_5 H 0.649681 0.558988 0.813221
H15_5 H 0.960038 0.829876 0.754098
H16_5 H 0.830042 0.788166 0.734331
O6_4 O 0.7897(4) 0.0379(6) 0.84004(9)
O7_4 O 0.2439(4) 0.1688(6) 0.83743(10)
O10_4 O 0.9228(4) 0.7210(6) 0.83917(10)
H22_5 H 0.734041 0.934938 0.721574
Zn1_2 Zn 0.68029(9) 0.35442(6) 0.41203(2)
O1_6 O 0.5076(6) 0.2779(4) 0.38955(9)
P1_6 P 0.68605(24) 0.34455(14) 0.46269(3)
O2_3 O 0.7772(6) 0.5363(4) 0.39325(9)
O3_3 O 0.7770(6) 0.2663(4) 0.39518(10)
C1_6 C 0.4174(8) 0.3019(6) 0.39955(14)
C2_6 C 0.8053(8) 0.5003(6) 0.48067(14)
C3_6 C 0.7289(8) 0.2224(5) 0.47739(13)
C4_6 C 0.5279(8) 0.2996(6) 0.48056(14)
O4_6 O 0.4361(6) 0.3751(4) 0.42135(10)
C5_6 C 0.2804(8) 0.2347(6) 0.38464(14)
C6_6 C 0.7727(8) 0.6126(6) 0.47604(14)
H1_6 H 0.897573 0.530268 0.473324
H2_5 H 0.804649 0.482946 0.501629
C7_6 C 0.8738(8) 0.2580(6) 0.47207(13)
H3_6 H 0.667808 0.132625 0.468758
H4_6 H 0.712164 0.214884 0.498461
H5_5 H 0.542207 0.305988 0.501712
C8_6 C 0.4160(8) 0.1574(6) 0.47294(14)
H6_6 H 0.499114 0.365269 0.475003
C9_6 C 0.1777(8) 0.1064(6) 0.40055(14)
H7_6 H 0.290750 0.211274 0.364591
H8_6 H 0.246163 0.299155 0.383816
H9_6 H 0.765285 0.624358 0.455066
C10_6 C 0.8788(8) 0.7466(6) 0.48883(13)
H10_6 H 0.683816 0.585862 0.484919
C11_6 C 0.9072(8) 0.1575(6) 0.48576(13)
H11_6 H 0.889701 0.260961 0.451007
H12_6 H 0.935312 0.349316 0.479964
C12_6 C 0.2832(8) 0.1273(6) 0.48641(13)
H13_6 H 0.405659 0.148475 0.451695
H14_6 H 0.441012 0.090693 0.479887
P2_6 P 0.00892(21) 0.02303(15) 0.38403(3)
H15_6 H 0.170124 0.130162 0.420764
H16_6 H 0.211834 0.041876 0.400997
O6_5 O 0.9621(6) 0.7518(4) 0.50670(9)
O7_5 O 0.8312(6) 0.0751(4) 0.50409(10)
O10_5 O 0.2790(6) 0.2018(4) 0.50583(10)
H22_6 H 0.065062 0.799103 0.388240
C14_6 C 0.9259(8) 0.1083(6) 0.40021(14)
C16_6 C 0.7860(8) 0.0643(6) 0.38683(15)
H19_6 H 0.914783 0.088777 0.421177
H20_6 H 0.984692 0.207318 0.397786
C18_6 C 0.7187(8) 0.1377(6) 0.39948(13)
H23_6 H 0.796794 0.081063 0.365770
O12_6 O 0.6107(6) 0.0776(4) 0.41299(11)
C13_6 C 0.9235(8) 0.8547(6) 0.40041(13)
H17_6 H 0.944439 0.863269 0.421311
H18_6 H 0.824337 0.815018 0.398310
C15_6 C 0.9656(8) 0.7584(6) 0.38676(14)
C17_6 C 0.8974(8) 0.6219(6) 0.40144(13)
H21_6 H 0.941258 0.746495 0.366025
H24_4 H 0.726374 0.965799 0.389820
O11_6 O 0.9562(6) 0.5981(4) 0.42140(9)
H24_5 H 0.965799 0.239425 0.556487
H2_6 H 0.195351 0.517054 0.001629
H5_6 H 0.457793 0.694012 0.001712
O6_6 O 0.0379(6) 0.2482(4) 0.00670(9)
O7_6 O 0.1688(6) 0.9249(4) 0.00409(10)
O10_6 O 0.7210(6) 0.7982(4) 0.00583(10)
H24_6 H 0.034201 0.760575 0.056487
Zn8 Zn 0.47823(8) 0.78746(8) 0.47848(2)
O18 O 0.5701(4) 0.9069(5) 0.51208(10)
H25 H 0.552521 0.858528 0.528485
H26 H 0.536278 0.961827 0.515965
O19 O 0.2850(5) 0.7301(5) 0.49622(11)
H27 H 0.228935 0.640998 0.494536
H28 H 0.243874 0.765398 0.485901
O20 O 0.6582(4) 0.8500(5) 0.45528(10)
H29 H 0.721843 0.851420 0.466681
H30 H 0.693721 0.935988 0.449790
O21 O 0.4301(5) 0.8626(5) 0.44491(11)
H31 H 0.503792 0.924477 0.436532
H32 H 0.390112 0.906508 0.450912
O22 O 0.4408(6) 0.5992(5) 0.47940(13)
H33 H 0.359911 0.542969 0.471918
H34 H 0.433595 0.570684 0.497446
Zn8_2 Zn 0.21254(8) 0.69077(11) 0.14515(2)
O18_2 O 0.0931(5) 0.6632(6) 0.17875(10)
H25_2 H 0.141472 0.693993 0.195152
H26_2 H 0.038173 0.574451 0.182632
O19_2 O 0.2699(5) 0.5549(7) 0.16289(11)
H27_2 H 0.359002 0.587937 0.161203
H28_2 H 0.234602 0.478476 0.152568
O20_2 O 0.1500(5) 0.8082(6) 0.12195(10)
H29_2 H 0.148580 0.870423 0.133348
H30_2 H 0.064012 0.757733 0.116457
O21_2 O 0.1374(5) 0.5675(7) 0.11158(11)
H31_2 H 0.075523 0.579315 0.103199
H32_2 H 0.093492 0.483604 0.117579
O22_2 O 0.4008(5) 0.8416(8) 0.14607(13)
H33_2 H 0.457031 0.816942 0.138585
H34_2 H 0.429316 0.862911 0.164113
Zn8_3 Zn 0.30923(11) 0.52177(8) 0.81181(2)
O18_3 O 0.3368(6) 0.4299(4) 0.84541(10)
H25_3 H 0.306007 0.447479 0.861818
H26_3 H 0.425549 0.463722 0.849298
O19_3 O 0.4451(7) 0.7150(5) 0.82955(11)
H27_3 H 0.412063 0.771065 0.827869
H28_3 H 0.521524 0.756126 0.819234
O20_3 O 0.1918(6) 0.3418(4) 0.78861(10)
H29_3 H 0.129577 0.278157 0.800014
H30_3 H 0.242267 0.306279 0.783123
O21_3 O 0.4325(7) 0.5699(5) 0.77824(11)
H31_3 H 0.420685 0.496208 0.769865
H32_3 H 0.516396 0.609888 0.784245
O22_3 O 0.1584(8) 0.5592(6) 0.81273(13)
H33_3 H 0.183058 0.640089 0.805251
H34_3 H 0.137089 0.566405 0.830779
O18_4 O 0.4299(4) 0.0931(5) 0.01208(10)
H25_4 H 0.447479 0.141472 0.028485
H26_4 H 0.463722 0.038173 0.015965
Zn8_4 Zn 0.52177(8) 0.21254(8) 0.97848(2)
O19_4 O 0.7150(5) 0.2699(5) 0.99622(11)
H27_4 H 0.771065 0.359002 0.994536
H28_4 H 0.756126 0.234602 0.985901
O20_4 O 0.3418(4) 0.1500(5) 0.95528(10)
H29_4 H 0.278157 0.148580 0.966681
H30_4 H 0.306279 0.064012 0.949790
O21_4 O 0.5699(5) 0.1374(5) 0.94491(11)
H31_4 H 0.496208 0.075523 0.936532
H32_4 H 0.609888 0.093492 0.950912
O22_4 O 0.5592(6) 0.4008(5) 0.97940(13)
H33_4 H 0.640089 0.457031 0.971918
H34_4 H 0.566405 0.429316 0.997446
Zn8_5 Zn 0.78746(8) 0.30923(11) 0.64515(2)
O18_5 O 0.9069(5) 0.3368(6) 0.67875(10)
H25_5 H 0.858528 0.306007 0.695152
H26_5 H 0.961827 0.425549 0.682632
O19_5 O 0.7301(5) 0.4451(7) 0.66289(11)
H27_5 H 0.640998 0.412063 0.661203
H28_5 H 0.765398 0.521524 0.652568
O20_5 O 0.8500(5) 0.1918(6) 0.62195(10)
H29_5 H 0.851420 0.129577 0.633348
H30_5 H 0.935988 0.242267 0.616457
O21_5 O 0.8626(5) 0.4325(7) 0.61158(11)
H31_5 H 0.924477 0.420685 0.603199
H32_5 H 0.906508 0.516396 0.617579
O22_5 O 0.5992(5) 0.1584(8) 0.64607(13)
H33_5 H 0.542969 0.183058 0.638585
H34_5 H 0.570684 0.137089 0.664113
Zn8_6 Zn 0.69077(11) 0.47823(8) 0.31181(2)
O18_6 O 0.6632(6) 0.5701(4) 0.34541(10)
H25_6 H 0.693993 0.552521 0.361818
H26_6 H 0.574451 0.536278 0.349298
O19_6 O 0.5549(7) 0.2850(5) 0.32955(11)
H27_6 H 0.587937 0.228935 0.327869
H28_6 H 0.478476 0.243874 0.319234
O20_6 O 0.8082(6) 0.6582(4) 0.28861(10)
H29_6 H 0.870423 0.721843 0.300014
H30_6 H 0.757733 0.693721 0.283123
O21_6 O 0.5675(7) 0.4301(5) 0.27824(11)
H31_6 H 0.579315 0.503792 0.269865
H32_6 H 0.483604 0.390112 0.284245
O22_6 O 0.8416(8) 0.4408(6) 0.31273(13)
H33_6 H 0.816942 0.359911 0.305251
H34_6 H 0.862911 0.433595 0.330779
loop_
_geom_bond_atom_site_label_1
_geom_bond_atom_site_label_2
_geom_bond_site_symmetry_1
_geom_bond_site_symmetry_2
Zn2 P2 1_555 1_555
C14 P2 1_555 1_555
C16 C14 1_555 1_555
H19 C14 1_555 1_555
H20 C14 1_555 1_555
C18 C16 1_555 1_555
H23 C16 1_555 1_555
O12 C18 1_555 1_555
O14 Zn2 1_555 1_555
O15 Zn2 1_555 1_555
O17 C18 1_555 1_555
Zn7 O17 1_555 1_555
Zn7 O1 1_555 1_555
O1 C1 1_555 1_555
P1 Zn7 1_555 1_555
O2 Zn7 1_555 1_555
C1 O4 1_555 1_555
C2 P1 1_555 1_555
C3 P1 1_555 1_555
C4 P1 1_555 1_555
C5 C1 1_555 1_555
C6 C2 1_555 1_555
H1 C2 1_555 1_555
H2 C2 1_555 1_555
C7 C3 1_555 1_555
H3 C3 1_555 1_555
H4 C3 1_555 1_555
H5 C4 1_555 1_555
C8 C4 1_555 1_555
H6 C4 1_555 1_555
C9 C5 1_555 1_555
H7 C5 1_555 1_555
H9 C6 1_555 1_555
C10 C6 1_555 1_555
H10 C6 1_555 1_555
C11 C7 1_555 1_555
H11 C7 1_555 1_555
H12 C7 1_555 1_555
C12 C8 1_555 1_555
H13 C8 1_555 1_555
H14 C8 1_555 1_555
H15 C9 1_555 1_555
H16 C9 1_555 1_555
O5 C10 1_555 1_555
O6 C10 1_555 1_555
O7 C11 1_555 1_555
O8 C11 1_555 1_555
O9 C12 1_555 1_555
O10 C12 1_555 1_555
Zn3 O9 1_555 1_555
H17 C13 1_555 1_555
H18 C13 1_555 1_555
C15 C13 1_555 1_555
C17 C15 1_555 1_555
H21 C15 1_555 1_555
H22 C15 1_555 1_555
O11 C17 1_555 1_555
O2 C17 1_555 1_555
Zn1 O1_2 1_555 1_555
O1_2 C1_2 1_555 1_555
P1_2 Zn1 1_555 1_555
O2_2 Zn1 1_555 1_555
O3 Zn1 1_555 1_555
C1_2 O4_2 1_555 1_555
C2_2 P1_2 1_555 1_555
C3_2 P1_2 1_555 1_555
C4_2 P1_2 1_555 1_555
C5_2 C1_2 1_555 1_555
C6_2 C2_2 1_555 1_555
H1_2 C2_2 1_555 1_555
H2_2 C2_2 1_555 1_555
C7_2 C3_2 1_555 1_555
H3_2 C3_2 1_555 1_555
H4_2 C3_2 1_555 1_555
H5_2 C4_2 1_555 1_555
C8_2 C4_2 1_555 1_555
H6_2 C4_2 1_555 1_555
C9_2 C5_2 1_555 1_555
H7_2 C5_2 1_555 1_555
H9_2 C6_2 1_555 1_555
C10_2 C6_2 1_555 1_555
H10_2 C6_2 1_555 1_555
C11_2 C7_2 1_555 1_555
H11_2 C7_2 1_555 1_555
H12_2 C7_2 1_555 1_555
C12_2 C8_2 1_555 1_555
H13_2 C8_2 1_555 1_555
H14_2 C8_2 1_555 1_555
H15_2 C9_2 1_555 1_555
H16_2 C9_2 1_555 1_555
O5_2 C10_2 1_555 1_555
O6_2 C10_2 1_555 1_555
O7_2 C11_2 1_555 1_555
O9_2 C12_2 1_555 1_555
O10_2 C12_2 1_555 1_555
Zn4 O9_2 1_555 1_555
H17_2 C13_2 1_555 1_555
H18_2 C13_2 1_555 1_555
C15_2 C13_2 1_555 1_555
C17_2 C15_2 1_555 1_555
H21_2 C15_2 1_555 1_555
O11_2 C17_2 1_555 1_555
O2_2 C17_2 1_555 1_555
Zn2_2 P2_2 1_555 1_555
O14_2 Zn2_2 1_555 1_555
C16_2 C14_2 1_555 1_555
H19_2 C14_2 1_555 1_555
H20_2 C14_2 1_555 1_555
C18_2 C16_2 1_555 1_555
H23_2 C16_2 1_555 1_555
H24 C16_2 1_555 1_555
O12_2 C18_2 1_555 1_555
O3 C18_2 1_555 1_555
H17_3 C13_3 1_555 1_555
H18_3 C13_3 1_555 1_555
C15_3 C13_3 1_555 1_555
C17_3 C15_3 1_555 1_555
H21_3 C15_3 1_555 1_555
O11_3 C17_3 1_555 1_555
O16 C17_3 1_555 1_555
Zn6 O16 1_555 1_555
C16_3 C14_3 1_555 1_555
H19_3 C14_3 1_555 1_555
H20_3 C14_3 1_555 1_555
C18_3 C16_3 1_555 1_555
H23_3 C16_3 1_555 1_555
O12_3 C18_3 1_555 1_555
O17_2 C18_3 1_555 1_555
Zn6 O17_2 1_555 1_555
Zn6 O1_3 1_555 1_555
O1_3 C1_3 1_555 1_555
P1_3 Zn6 1_555 1_555
C1_3 O4_3 1_555 1_555
C2_3 P1_3 1_555 1_555
C3_3 P1_3 1_555 1_555
C4_3 P1_3 1_555 1_555
C5_3 C1_3 1_555 1_555
C6_3 C2_3 1_555 1_555
H1_3 C2_3 1_555 1_555
C7_3 C3_3 1_555 1_555
H3_3 C3_3 1_555 1_555
H4_3 C3_3 1_555 1_555
C8_3 C4_3 1_555 1_555
H6_3 C4_3 1_555 1_555
C9_3 C5_3 1_555 1_555
H7_3 C5_3 1_555 1_555
H8_3 C5_3 1_555 1_555
H9_3 C6_3 1_555 1_555
C10_3 C6_3 1_555 1_555
H10_3 C6_3 1_555 1_555
C11_3 C7_3 1_555 1_555
H11_3 C7_3 1_555 1_555
H12_3 C7_3 1_555 1_555
C12_3 C8_3 1_555 1_555
H13_3 C8_3 1_555 1_555
H14_3 C8_3 1_555 1_555
P2_3 C9_3 1_555 1_555
H15_3 C9_3 1_555 1_555
H16_3 C9_3 1_555 1_555
O5_3 C10_3 1_555 1_555
O9_3 C12_3 1_555 1_555
Zn2_3 P2_3 1_555 1_555
Zn5 O9_3 1_555 1_555
O14_3 Zn2_3 1_555 1_555
Zn5 O8_3 1_555 1_555
H17_4 C13_4 1_555 1_555
H18_4 C13_4 1_555 1_555
C15_4 C13_4 1_555 1_555
C17_4 C15_4 1_555 1_555
H21_4 C15_4 1_555 1_555
H22_4 C15_4 1_555 1_555
O11_4 C17_4 1_555 1_555
O16_2 C17_4 1_555 1_555
Zn6_2 O16_2 1_555 1_555
Zn6_2 O1_4 1_555 1_555
O1_4 C1_4 1_555 1_555
P1_4 Zn6_2 1_555 1_555
O3_2 Zn6_2 1_555 1_555
C1_4 O4_4 1_555 1_555
C2_4 P1_4 1_555 1_555
C3_4 P1_4 1_555 1_555
C4_4 P1_4 1_555 1_555
C5_4 C1_4 1_555 1_555
C6_4 C2_4 1_555 1_555
H1_4 C2_4 1_555 1_555
H2_3 C2_4 1_555 1_555
C7_4 C3_4 1_555 1_555
H3_4 C3_4 1_555 1_555
H4_4 C3_4 1_555 1_555
H5_3 C4_4 1_555 1_555
C8_4 C4_4 1_555 1_555
H6_4 C4_4 1_555 1_555
C9_4 C5_4 1_555 1_555
H7_4 C5_4 1_555 1_555
H9_4 C6_4 1_555 1_555
C10_4 C6_4 1_555 1_555
H10_4 C6_4 1_555 1_555
C11_4 C7_4 1_555 1_555
H11_4 C7_4 1_555 1_555
H12_4 C7_4 1_555 1_555
C12_4 C8_4 1_555 1_555
H13_4 C8_4 1_555 1_555
H14_4 C8_4 1_555 1_555
H15_4 C9_4 1_555 1_555
H16_4 C9_4 1_555 1_555
O13_2 C10_4 1_555 1_555
O6_3 C10_4 1_555 1_555
O7_3 C11_4 1_555 1_555
O15_2 C11_4 1_555 1_555
O14_2 C12_4 1_555 1_555
O10_3 C12_4 1_555 1_555
C14_4 P2_4 1_555 1_555
C16_4 C14_4 1_555 1_555
H19_4 C14_4 1_555 1_555
H20_4 C14_4 1_555 1_555
C18_4 C16_4 1_555 1_555
H23_4 C16_4 1_555 1_555
O12_4 C18_4 1_555 1_555
O3_2 C18_4 1_555 1_555
C16_5 C14_5 1_555 1_555
H19_5 C14_5 1_555 1_555
H20_5 C14_5 1_555 1_555
C18_5 C16_5 1_555 1_555
H23_5 C16_5 1_555 1_555
H24_3 C16_5 1_555 1_555
O12_5 C18_5 1_555 1_555
O17_3 C18_5 1_555 1_555
Zn7_2 O17_3 1_555 1_555
Zn3 P2_5 1_555 1_555
H17_5 C13_5 1_555 1_555
H18_5 C13_5 1_555 1_555
C15_5 C13_5 1_555 1_555
C17_5 C15_5 1_555 1_555
H21_5 C15_5 1_555 1_555
O11_5 C17_5 1_555 1_555
O16_3 C17_5 1_555 1_555
Zn7_2 O16_3 1_555 1_555
Zn7_2 O1_5 1_555 1_555
O1_5 C1_5 1_555 1_555
P1_5 Zn7_2 1_555 1_555
C1_5 O4_5 1_555 1_555
C2_5 P1_5 1_555 1_555
C3_5 P1_5 1_555 1_555
C4_5 P1_5 1_555 1_555
C5_5 C1_5 1_555 1_555
C6_5 C2_5 1_555 1_555
H1_5 C2_5 1_555 1_555
H2_4 C2_5 1_555 1_555
C7_5 C3_5 1_555 1_555
H3_5 C3_5 1_555 1_555
H4_5 C3_5 1_555 1_555
H5_4 C4_5 1_555 1_555
C8_5 C4_5 1_555 1_555
H6_5 C4_5 1_555 1_555
C9_5 C5_5 1_555 1_555
H7_5 C5_5 1_555 1_555
H9_5 C6_5 1_555 1_555
C10_5 C6_5 1_555 1_555
H10_5 C6_5 1_555 1_555
C11_5 C7_5 1_555 1_555
H11_5 C7_5 1_555 1_555
H12_5 C7_5 1_555 1_555
C12_5 C8_5 1_555 1_555
H13_5 C8_5 1_555 1_555
H14_5 C8_5 1_555 1_555
H15_5 C9_5 1_555 1_555
H16_5 C9_5 1_555 1_555
O13_3 C10_5 1_555 1_555
O6_4 C10_5 1_555 1_555
O7_4 C11_5 1_555 1_555
O14_3 C12_5 1_555 1_555
O10_4 C12_5 1_555 1_555
Zn1_2 O1_6 1_555 1_555
O1_6 C1_6 1_555 1_555
P1_6 Zn1_2 1_555 1_555
O2_3 Zn1_2 1_555 1_555
O3_3 Zn1_2 1_555 1_555
C1_6 O4_6 1_555 1_555
C2_6 P1_6 1_555 1_555
C3_6 P1_6 1_555 1_555
C4_6 P1_6 1_555 1_555
C5_6 C1_6 1_555 1_555
C6_6 C2_6 1_555 1_555
H1_6 C2_6 1_555 1_555
H2_5 C2_6 1_555 1_555
C7_6 C3_6 1_555 1_555
H3_6 C3_6 1_555 1_555
H4_6 C3_6 1_555 1_555
H5_5 C4_6 1_555 1_555
C8_6 C4_6 1_555 1_555
H6_6 C4_6 1_555 1_555
C9_6 C5_6 1_555 1_555
H7_6 C5_6 1_555 1_555
H8_6 C5_6 1_555 1_555
H9_6 C6_6 1_555 1_555
C10_6 C6_6 1_555 1_555
H10_6 C6_6 1_555 1_555
C11_6 C7_6 1_555 1_555
H11_6 C7_6 1_555 1_555
H12_6 C7_6 1_555 1_555
C12_6 C8_6 1_555 1_555
H13_6 C8_6 1_555 1_555
H14_6 C8_6 1_555 1_555
P2_6 C9_6 1_555 1_555
H15_6 C9_6 1_555 1_555
H16_6 C9_6 1_555 1_555
O13 C10_6 1_555 1_555
O6_5 C10_6 1_555 1_555
O7_5 C11_6 1_555 1_555
O14 C12_6 1_555 1_555
O10_5 C12_6 1_555 1_555
Zn4 P2_6 1_555 1_555
C16_6 C14_6 1_555 1_555
H19_6 C14_6 1_555 1_555
H20_6 C14_6 1_555 1_555
C18_6 C16_6 1_555 1_555
H23_6 C16_6 1_555 1_555
O12_6 C18_6 1_555 1_555
O3_3 C18_6 1_555 1_555
H17_6 C13_6 1_555 1_555
H18_6 C13_6 1_555 1_555
C15_6 C13_6 1_555 1_555
C17_6 C15_6 1_555 1_555
H21_6 C15_6 1_555 1_555
O11_6 C17_6 1_555 1_555
O2_3 C17_6 1_555 1_555
Zn8 O18 1_555 1_555
O18 H25 1_555 1_555
H26 O18 1_555 1_555
O19 Zn8 1_555 1_555
H27 O19 1_555 1_555
H28 O19 1_555 1_555
O20 Zn8 1_555 1_555
H29 O20 1_555 1_555
H30 O20 1_555 1_555
O21 Zn8 1_555 1_555
H31 O21 1_555 1_555
H32 O21 1_555 1_555
O22 Zn8 1_555 1_555
H33 O22 1_555 1_555
H34 O22 1_555 1_555
Zn8_2 O18_2 1_555 1_555
O18_2 H25_2 1_555 1_555
H26_2 O18_2 1_555 1_555
O19_2 Zn8_2 1_555 1_555
H27_2 O19_2 1_555 1_555
H28_2 O19_2 1_555 1_555
O20_2 Zn8_2 1_555 1_555
H29_2 O20_2 1_555 1_555
H30_2 O20_2 1_555 1_555
O21_2 Zn8_2 1_555 1_555
H31_2 O21_2 1_555 1_555
H32_2 O21_2 1_555 1_555
O22_2 Zn8_2 1_555 1_555
H33_2 O22_2 1_555 1_555
H34_2 O22_2 1_555 1_555
Zn8_3 O18_3 1_555 1_555
O18_3 H25_3 1_555 1_555
H26_3 O18_3 1_555 1_555
O19_3 Zn8_3 1_555 1_555
H27_3 O19_3 1_555 1_555
H28_3 O19_3 1_555 1_555
O20_3 Zn8_3 1_555 1_555
H29_3 O20_3 1_555 1_555
H30_3 O20_3 1_555 1_555
O21_3 Zn8_3 1_555 1_555
H31_3 O21_3 1_555 1_555
H32_3 O21_3 1_555 1_555
O22_3 Zn8_3 1_555 1_555
H33_3 O22_3 1_555 1_555
H34_3 O22_3 1_555 1_555
O18_4 H25_4 1_555 1_555
H26_4 O18_4 1_555 1_555
O19_4 Zn8_4 1_555 1_555
H27_4 O19_4 1_555 1_555
H28_4 O19_4 1_555 1_555
O20_4 Zn8_4 1_555 1_555
H29_4 O20_4 1_555 1_555
H30_4 O20_4 1_555 1_555
O21_4 Zn8_4 1_555 1_555
H31_4 O21_4 1_555 1_555
H32_4 O21_4 1_555 1_555
O22_4 Zn8_4 1_555 1_555
H33_4 O22_4 1_555 1_555
H34_4 O22_4 1_555 1_555
Zn8_5 O18_5 1_555 1_555
O18_5 H25_5 1_555 1_555
H26_5 O18_5 1_555 1_555
O19_5 Zn8_5 1_555 1_555
H27_5 O19_5 1_555 1_555
H28_5 O19_5 1_555 1_555
O20_5 Zn8_5 1_555 1_555
H29_5 O20_5 1_555 1_555
H30_5 O20_5 1_555 1_555
O21_5 Zn8_5 1_555 1_555
H31_5 O21_5 1_555 1_555
H32_5 O21_5 1_555 1_555
O22_5 Zn8_5 1_555 1_555
H33_5 O22_5 1_555 1_555
H34_5 O22_5 1_555 1_555
Zn8_6 O18_6 1_555 1_555
O18_6 H25_6 1_555 1_555
H26_6 O18_6 1_555 1_555
O19_6 Zn8_6 1_555 1_555
H27_6 O19_6 1_555 1_555
H28_6 O19_6 1_555 1_555
O20_6 Zn8_6 1_555 1_555
H29_6 O20_6 1_555 1_555
H30_6 O20_6 1_555 1_555
O21_6 Zn8_6 1_555 1_555
H31_6 O21_6 1_555 1_555
H32_6 O21_6 1_555 1_555
O22_6 Zn8_6 1_555 1_555
H33_6 O22_6 1_555 1_555
H34_6 O22_6 1_555 1_555

#END
