
###############################################################################
#
# This file contains modified crystal structure data generated from the
# MOF subset of the Cambridge Structural Database (CSD) v543 
# hosted by the Cambridge Crystallographic Data Centre (CCDC).
#
# This work is licensed under the Creative Commons
# Attribution-NonCommercial-ShareAlike 4.0 International License.
# To view a copy of this license, visit
# http://creativecommons.org/licenses/by-nc-sa/4.0/
# or send a letter to
# Creative Commons, PO Box 1866, Mountain View, CA 94042, USA.
#
# CIF created using the CSD Python API on 29 September 2022
# The structure has been converted into the P1 space group
# The structure has a 3D framework
# The original CSD entry DEHFUR is in the hexagonal crystal system
# The original CSD entry DEHFUR is in a Sohncke space group
# The framework has been calculated to contain at least 10.0% void space
# The void calculation uses a probe of radius 1.32A, grid spacing 0.4
# The framework is charged, counterions have been retained in the structure
# H atom positions have been added when not included in the experimental data
#
###############################################################################

data_DEHFUR
_chemical_formula_moiety         '(C108 H209 O102 P12 Zn18)n'
_symmetry_cell_setting           triclinic
_symmetry_space_group_name_H-M   'P 1'
_symmetry_Int_Tables_number      1
_space_group_name_Hall           'P 1'
loop_
_symmetry_equiv_pos_site_id
_symmetry_equiv_pos_as_xyz
1 x,y,z
_cell_length_a                   11.441(4)
_cell_length_b                   11.441(4)
_cell_length_c                   46.83(1)
_cell_angle_alpha                90
_cell_angle_beta                 90
_cell_angle_gamma                120
_cell_volume                     5308.63
loop_
_atom_site_label
_atom_site_type_symbol
_atom_site_fract_x
_atom_site_fract_y
_atom_site_fract_z
C1 C 0.1495(16) 0.0809(18) 0.0683(4)
C2 C 0.2459(13) 0.0409(14) 0.0544(3)
C3 C 0.3795(15) 0.1098(16) 0.0703(4)
O1 O 0.4695(9) 0.2282(10) 0.0618(2)
O2 O 0.4012(10) 0.0504(12) 0.0906(2)
O8 O 0.1737(11) 0.2480(10) 0.0056(2)
O10 O 0.0415(10) 0.7913(10) 0.0079(2)
O12 O 0.7251(10) 0.9227(10) 0.0076(2)
Zn3 Zn 0.6485(3) 0.3232(2) 0.0796(1)
Zn7 Zn 0.9814(2) 0.9956(2) 0.0000
H15 H 0.262257 0.0726866 0.0321397
H21 H 0.46 0.768306 0.00452461
H27 H 0.291504 0.511687 0.00296687
H29 H 0.209441 0.685499 0.00582371
H32 H 0.0478155 0.280945 0.0589686
H33 H 0.139799 0.0548373 0.0908764
H34 H 0.192083 0.189447 0.0660282
Zn2 Zn 0.3232(2) 0.6747(2) 0.9129(1)
P2 P 0.3192(4) 0.6615(4) 0.9642(1)
C10 C 0.2756(14) 0.4980(14) 0.9800(3)
C11 C 0.1328(14) 0.3878(15) 0.9749(3)
C12 C 0.1001(16) 0.2556(15) 0.9881(4)
C13 C 0.2016(16) 0.6985(16) 0.9830(5)
C14 C 0.2311(16) 0.8451(15) 0.9775(4)
C15 C 0.1295(15) 0.8732(16) 0.9912(4)
O9 O 0.1309(10) 0.9790(10) 0.9824(3)
C16 C 0.4754(14) 0.7765(14) 0.9815(3)
C17 C 0.5863(19) 0.7458(16) 0.9741(4)
C18 C 0.7213(14) 0.8465(15) 0.9884(4)
O11 O 0.8264(10) 0.8471(10) 0.9798(2)
O15 O 0.2282(10) 0.7587(13) 0.8951(2)
O16 O 0.4972(9) 0.7691(13) 0.8923(2)
O17 O 0.2258(10) 0.4914(14) 0.8975(2)
Zn7_2 Zn 0.9814(2) 0.9956(2) 1.0000
H13 H 0.230299 0.860224 0.954558
H14 H 0.330496 0.91551 0.986038
H17 H 0.116488 0.373324 0.951955
H18 H 0.0650607 0.419357 0.983836
H22 H 0.506208 0.878936 0.974705
H23 H 0.600082 0.75171 0.95103
H24 H 0.556477 0.644195 0.981336
H28 H 0.342868 0.465884 0.971046
H30 H 0.0995155 0.628008 0.975812
C7 C 0.8906(16) 0.0754(16) 0.0682(4)
C8 C 0.9404(21) 0.2165(20) 0.0548(4)
C9 C 0.8613(18) 0.2800(15) 0.0683(4)
O5 O 0.7344(10) 0.2258(10) 0.0642(2)
O6 O 0.9255(11) 0.3849(11) 0.0829(2)
H11 H 0.910441 0.0865009 0.0910705
H12 H 0.782554 0.0124097 0.064542
H31 H 0.923025 0.206249 0.0318413
O7 O 0.9887(10) 0.1513(10) 0.9802(2)
P1 P 0.9794(4) 0.9944(4) 0.0519(1)
C4 C 0.8992(15) 0.8259(14) 0.0693(3)
C5 C 0.7684(16) 0.7221(15) 0.0531(4)
C6 C 0.7045(14) 0.5883(15) 0.0679(3)
O3 O 0.7281(10) 0.4972(9) 0.0590(2)
O4 O 0.6320(10) 0.5708(11) 0.0892(3)
H19 H 0.872953 0.835545 0.0911857
H20 H 0.970519 0.789136 0.0693896
H25 H 0.794471 0.710291 0.0313401
H26 H 0.697418 0.759254 0.052626
C4_2 C 0.1741(14) 0.0733(21) 0.4026(3)
C5_2 C 0.2779(15) 0.0463(22) 0.3864(4)
C6_2 C 0.4117(15) 0.1162(21) 0.4012(3)
O3_2 O 0.5028(9) 0.2309(13) 0.3923(2)
O4_2 O 0.4292(11) 0.0612(15) 0.4225(3)
O13 O 0.0210(10) 0.1519(14) 0.3157(3)
Zn4 Zn 0.6768(2) 0.3253(4) 0.4129(1)
H16 H 0.0681411 0.270507 0.388874
H19_2 H 0.164455 0.0374084 0.424519
H20_2 H 0.210864 0.181382 0.402723
H25_2 H 0.289709 0.0841803 0.364673
Zn1 Zn 0.0044(2) 0.9858(3) 0.3333
P1_2 P 0.0056(4) 0.9850(6) 0.3852(1)
O14 O 0.1529(10) 0.9793(14) 0.3131(2)
H26_2 H 0.240746 0.938163 0.385959
C1_2 C 0.9191(18) 0.0686(24) 0.4016(4)
C2_2 C 0.9591(14) 0.2050(19) 0.3877(3)
C3_2 C 0.8902(16) 0.2697(22) 0.4036(4)
O1_2 O 0.7718(10) 0.2413(13) 0.3951(2)
O2_2 O 0.9496(12) 0.3508(16) 0.4239(2)
H15_2 H 0.927313 0.18957 0.365473
H33_2 H 0.945163 0.0849617 0.42421
H34_2 H 0.810553 0.00263623 0.399362
Zn2_2 Zn 0.3253(2) 0.6485(3) 0.2462(1)
P2_2 P 0.3385(4) 0.6577(6) 0.2975(1)
C7_2 C 0.9246(16) 0.8152(23) 0.4015(4)
C8_2 C 0.7835(20) 0.7239(29) 0.3881(4)
C9_2 C 0.7200(15) 0.5813(23) 0.4016(4)
O5_2 O 0.7742(10) 0.5086(14) 0.3975(2)
O6_2 O 0.6151(11) 0.5406(16) 0.4162(2)
C10_2 C 0.5020(14) 0.7776(20) 0.3133(3)
C11_2 C 0.6122(15) 0.7450(21) 0.3082(3)
C12_2 C 0.7444(15) 0.8445(22) 0.3214(4)
O7_2 O 0.8487(10) 0.8374(14) 0.3135(2)
O8_2 O 0.7520(10) 0.9257(15) 0.3389(2)
C13_2 C 0.3015(16) 0.5031(23) 0.3163(5)
C14_2 C 0.1549(15) 0.3860(22) 0.3108(4)
C15_2 C 0.1268(16) 0.2563(22) 0.3245(4)
O10_2 O 0.2087(10) 0.2502(14) 0.3412(2)
C16_2 C 0.2235(14) 0.6989(20) 0.3148(3)
C17_2 C 0.2542(16) 0.8405(25) 0.3074(4)
C18_2 C 0.1535(15) 0.8748(21) 0.3217(4)
O12_2 O 0.0773(10) 0.8024(14) 0.3409(2)
O15_2 O 0.2413(13) 0.4695(16) 0.2285(2)
O16_2 O 0.2309(13) 0.7281(16) 0.2257(2)
O17_2 O 0.5086(14) 0.7344(17) 0.2309(2)
H11_2 H 0.913499 0.82394 0.424404
H12_2 H 0.98759 0.770145 0.397875
H13_2 H 0.139776 0.370075 0.287891
H14_2 H 0.08449 0.414986 0.319371
H17_2 H 0.626676 0.743164 0.285288
H18_2 H 0.580643 0.645704 0.317169
H21_2 H 0.231694 0.691694 0.337858
H22_2 H 0.121064 0.627272 0.308039
H23_2 H 0.24829 0.848372 0.284364
H24_2 H 0.355805 0.912282 0.314669
H27_2 H 0.488313 0.779817 0.3363
H28_2 H 0.534116 0.876984 0.30438
H29_2 H 0.314501 0.523941 0.339157
H30_2 H 0.371992 0.471508 0.309145
H31_2 H 0.793751 0.716776 0.365175
H32_2 H 0.719055 0.766871 0.392302
Zn6 Zn 0.0142(3) 0.0186(2) 0.6667
P1_3 P 0.0150(6) 0.0206(4) 0.7186(1)
C7_3 C 0.1848(23) 0.1094(16) 0.7349(4)
C8_3 C 0.2761(29) 0.0596(21) 0.7215(4)
C9_3 C 0.4187(23) 0.1387(18) 0.7350(4)
O5_3 O 0.4914(14) 0.2656(10) 0.7309(2)
O6_3 O 0.4594(16) 0.0745(11) 0.7496(2)
O7_3 O 0.1626(14) 0.0113(10) 0.6469(2)
O14_2 O 0.0207(14) 0.1736(10) 0.6465(2)
Zn5 Zn 0.6747(4) 0.3515(3) 0.7462(1)
H11_3 H 0.17606 0.0895592 0.757737
H12_3 H 0.229855 0.217446 0.731209
H26_3 H 0.0618366 0.302582 0.719293
H31_3 H 0.283224 0.076975 0.698508
Zn2_3 Zn 0.3515(3) 0.6768(2) 0.5796(1)
P2_3 P 0.3423(6) 0.6808(4) 0.6309(1)
C10_3 C 0.2224(20) 0.7244(14) 0.6467(3)
C11_3 C 0.2550(21) 0.8672(14) 0.6416(3)
C12_3 C 0.1555(22) 0.8999(16) 0.6548(4)
O8_3 O 0.0743(15) 0.8263(11) 0.6723(2)
C13_3 C 0.4969(23) 0.7984(16) 0.6497(5)
C14_3 C 0.6140(22) 0.7689(16) 0.6442(4)
C15_3 C 0.7437(22) 0.8705(15) 0.6579(4)
O9_2 O 0.8481(14) 0.8691(10) 0.6491(3)
O10_3 O 0.7498(14) 0.9585(10) 0.6746(2)
C16_3 C 0.3011(20) 0.5246(14) 0.6482(3)
C17_3 C 0.1595(25) 0.4137(19) 0.6408(4)
C18_3 C 0.1252(21) 0.2787(14) 0.6551(4)
O12_3 O 0.1976(14) 0.2749(10) 0.6743(2)
O15_3 O 0.5305(16) 0.7718(10) 0.5618(2)
O16_3 O 0.2719(16) 0.5028(9) 0.5590(2)
O17_3 O 0.2656(17) 0.7742(10) 0.5642(2)
H13_3 H 0.629925 0.769701 0.621224
H14_3 H 0.585014 0.669504 0.652705
H17_3 H 0.256836 0.883512 0.618622
H18_3 H 0.354296 0.934939 0.650503
H21_3 H 0.308306 0.54 0.671191
H22_3 H 0.372728 0.493792 0.641372
H23_3 H 0.151628 0.399918 0.617697
H24_3 H 0.0877181 0.443523 0.648003
H27_3 H 0.220183 0.708496 0.669634
H28_3 H 0.123016 0.657132 0.637713
H29_3 H 0.476059 0.790559 0.67249
H30_3 H 0.528492 0.900485 0.642478
H32_3 H 0.233129 0.952185 0.725635
C4_3 C 0.9267(21) 0.1008(15) 0.7360(3)
C5_3 C 0.9537(22) 0.2316(16) 0.7198(4)
C6_3 C 0.8838(21) 0.2955(14) 0.7346(3)
O3_3 O 0.7691(13) 0.2719(10) 0.7257(2)
O4_3 O 0.9388(15) 0.3680(10) 0.7559(3)
H19_3 H 0.962592 0.127047 0.757852
H20_3 H 0.818618 0.0294813 0.736056
H25_3 H 0.91582 0.205529 0.698007
C1_3 C 0.9314(24) 0.8505(16) 0.7350(4)
C2_3 C 0.7950(19) 0.7541(13) 0.7211(3)
C3_3 C 0.7303(22) 0.6205(15) 0.7370(4)
O1_3 O 0.7587(13) 0.5305(9) 0.7285(2)
O2_3 O 0.6492(16) 0.5988(10) 0.7573(2)
H15_3 H 0.81043 0.737743 0.698806
H16_2 H 0.729493 0.797634 0.722208
H33_3 H 0.915038 0.860201 0.757543
H34_3 H 0.997364 0.807917 0.732695
Zn1_2 Zn 0.0186(2) 0.0044(2) 0.5000
P1_4 P 0.0206(4) 0.0056(4) 0.5519(1)
C4_4 C 0.1008(15) 0.1741(14) 0.5693(3)
C5_4 C 0.2316(16) 0.2779(15) 0.5531(4)
C6_4 C 0.2955(14) 0.4117(15) 0.5679(3)
O4_4 O 0.3680(10) 0.4292(11) 0.5892(3)
O14_3 O 0.1736(10) 0.1529(10) 0.4798(2)
H19_4 H 0.127047 0.164455 0.591186
H20_4 H 0.0294813 0.210864 0.56939
H25_4 H 0.205529 0.289709 0.53134
H26_4 H 0.302582 0.240746 0.552626
C7_4 C 0.1094(16) 0.9246(16) 0.5682(4)
C8_4 C 0.0596(21) 0.7835(20) 0.5548(4)
C9_4 C 0.1387(18) 0.7200(15) 0.5683(4)
O6_4 O 0.0745(11) 0.6151(11) 0.5829(2)
O7_4 O 0.0113(10) 0.8487(10) 0.4802(2)
H11_4 H 0.0895592 0.913499 0.59107
H12_4 H 0.217446 0.98759 0.564542
H31_4 H 0.076975 0.793751 0.531841
O13_2 O 0.8691(10) 0.0210(10) 0.4824(3)
H16_3 H 0.797634 0.0681411 0.555541
P2_4 P 0.6808(4) 0.3385(4) 0.4642(1)
C1_4 C 0.8505(16) 0.9191(18) 0.5683(4)
C2_4 C 0.7541(13) 0.9591(14) 0.5544(3)
C3_4 C 0.6205(15) 0.8902(16) 0.5703(4)
O2_4 O 0.5988(10) 0.9496(12) 0.5906(2)
C10_4 C 0.7244(14) 0.5020(14) 0.4800(3)
C11_4 C 0.8672(14) 0.6122(15) 0.4749(3)
C12_4 C 0.8999(16) 0.7444(15) 0.4881(4)
O8_4 O 0.8263(11) 0.7520(10) 0.5056(2)
C13_4 C 0.7984(16) 0.3015(16) 0.4830(5)
C14_4 C 0.7689(16) 0.1549(15) 0.4775(4)
C15_4 C 0.8705(15) 0.1268(16) 0.4912(4)
O10_4 O 0.9585(10) 0.2087(10) 0.5079(2)
C16_4 C 0.5246(14) 0.2235(14) 0.4815(3)
C17_4 C 0.4137(19) 0.2542(16) 0.4741(4)
C18_4 C 0.2787(14) 0.1535(15) 0.4884(4)
O12_4 O 0.2749(10) 0.0773(10) 0.5076(2)
H13_4 H 0.769701 0.139776 0.454558
H14_4 H 0.669504 0.08449 0.486038
H15_4 H 0.737743 0.927313 0.53214
H17_4 H 0.883512 0.626676 0.451955
H18_4 H 0.934939 0.580643 0.483836
H21_4 H 0.54 0.231694 0.504525
H22_4 H 0.493792 0.121064 0.474705
H23_4 H 0.399918 0.24829 0.45103
H24_4 H 0.443523 0.355805 0.481336
H27_4 H 0.708496 0.488313 0.502967
H28_4 H 0.657132 0.534116 0.471046
H29_4 H 0.790559 0.314501 0.505824
H30_4 H 0.900485 0.371992 0.475812
H32_4 H 0.952185 0.719055 0.558969
H33_4 H 0.860201 0.945163 0.590876
H34_4 H 0.807917 0.810553 0.566028
Zn6_2 Zn 0.9956(2) 0.0142(3) 0.8333
P2_5 P 0.6615(4) 0.3423(6) 0.7975(1)
C7_5 C 0.0754(16) 0.1848(23) 0.9015(4)
C8_5 C 0.2165(20) 0.2761(29) 0.8881(4)
C9_5 C 0.2800(15) 0.4187(23) 0.9016(4)
O6_5 O 0.3849(11) 0.4594(16) 0.9162(2)
C10_5 C 0.4980(14) 0.2224(20) 0.8133(3)
C11_5 C 0.3878(15) 0.2550(21) 0.8082(3)
C12_5 C 0.2556(15) 0.1555(22) 0.8214(4)
O7_5 O 0.1513(10) 0.1626(14) 0.8135(2)
O8_5 O 0.2480(10) 0.0743(15) 0.8389(2)
C13_5 C 0.6985(16) 0.4969(23) 0.8163(5)
C14_5 C 0.8451(15) 0.6140(22) 0.8108(4)
C15_5 C 0.8732(16) 0.7437(22) 0.8245(4)
O9_3 O 0.9790(10) 0.8481(14) 0.8157(3)
O10_5 O 0.7913(10) 0.7498(14) 0.8412(2)
C16_5 C 0.7765(14) 0.3011(20) 0.8148(3)
C17_5 C 0.7458(16) 0.1595(25) 0.8074(4)
C18_5 C 0.8465(15) 0.1252(21) 0.8217(4)
O11_2 O 0.8471(10) 0.0207(14) 0.8131(2)
O12_5 O 0.9227(10) 0.1976(14) 0.8409(2)
H11_5 H 0.0865009 0.17606 0.924404
H12_5 H 0.0124097 0.229855 0.897875
H13_5 H 0.860224 0.629925 0.787891
H14_5 H 0.91551 0.585014 0.819371
H17_5 H 0.373324 0.256836 0.785288
H18_5 H 0.419357 0.354296 0.817169
H21_5 H 0.768306 0.308306 0.837858
H22_5 H 0.878936 0.372728 0.808039
H23_5 H 0.75171 0.151628 0.784364
H24_5 H 0.644195 0.0877181 0.814669
H27_5 H 0.511687 0.220183 0.8363
H28_5 H 0.465884 0.123016 0.80438
H29_5 H 0.685499 0.476059 0.839157
H30_5 H 0.628008 0.528492 0.809145
H31_5 H 0.206249 0.283224 0.865175
H32_5 H 0.280945 0.233129 0.892302
C1_5 C 0.0809(18) 0.9314(24) 0.9016(4)
C2_5 C 0.0409(14) 0.7950(19) 0.8877(3)
C3_5 C 0.1098(16) 0.7303(22) 0.9036(4)
O2_5 O 0.0504(12) 0.6492(16) 0.9239(2)
H15_5 H 0.0726866 0.81043 0.865473
H33_5 H 0.0548373 0.915038 0.92421
H34_5 H 0.189447 0.997364 0.899362
P1_5 P 0.9944(4) 0.0150(6) 0.8852(1)
H26_5 H 0.759254 0.0618366 0.885959
C4_5 C 0.8259(14) 0.9267(21) 0.9026(3)
C5_5 C 0.7221(15) 0.9537(22) 0.8864(4)
C6_5 C 0.5883(15) 0.8838(21) 0.9012(3)
O4_5 O 0.5708(11) 0.9388(15) 0.9225(3)
H16_4 H 0.931859 0.729493 0.888874
H19_5 H 0.835545 0.962592 0.924519
H20_5 H 0.789136 0.818618 0.902723
H25_5 H 0.710291 0.91582 0.864673
C1_6 C 0.0686(24) 0.1495(16) 0.2350(4)
C2_6 C 0.2050(19) 0.2459(13) 0.2211(3)
C3_6 C 0.2697(22) 0.3795(15) 0.2370(4)
O2_6 O 0.3508(16) 0.4012(10) 0.2573(2)
O13_3 O 0.1519(14) 0.1309(10) 0.1491(3)
H15_6 H 0.18957 0.262257 0.198806
H16_5 H 0.270507 0.202366 0.222208
H33_6 H 0.0849617 0.139799 0.257543
H34_6 H 0.00263623 0.192083 0.232695
C4_6 C 0.0733(21) 0.8992(15) 0.2360(3)
C5_6 C 0.0463(22) 0.7684(16) 0.2198(4)
C6_6 C 0.1162(21) 0.7045(14) 0.2346(3)
O4_6 O 0.0612(15) 0.6320(10) 0.2559(3)
H19_6 H 0.0374084 0.872953 0.257852
H20_6 H 0.181382 0.970519 0.236056
H25_6 H 0.0841803 0.794471 0.198007
P2_6 P 0.6577(6) 0.3192(4) 0.1309(1)
C10_6 C 0.7776(20) 0.2756(14) 0.1467(3)
C11_6 C 0.7450(21) 0.1328(14) 0.1416(3)
C12_6 C 0.8445(22) 0.1001(16) 0.1548(4)
O8_6 O 0.9257(15) 0.1737(11) 0.1723(2)
C13_6 C 0.5031(23) 0.2016(16) 0.1497(5)
C14_6 C 0.3860(22) 0.2311(16) 0.1442(4)
C15_6 C 0.2563(22) 0.1295(15) 0.1579(4)
O10_6 O 0.2502(14) 0.0415(10) 0.1746(2)
C16_6 C 0.6989(20) 0.4754(14) 0.1482(3)
C17_6 C 0.8405(25) 0.5863(19) 0.1408(4)
C18_6 C 0.8748(21) 0.7213(14) 0.1551(4)
O11_3 O 0.9793(14) 0.8264(10) 0.1465(2)
O12_6 O 0.8024(14) 0.7251(10) 0.1743(2)
Zn7_3 Zn 0.9858(3) 0.9814(2) 0.1667
H13_6 H 0.370075 0.230299 0.121224
H14_6 H 0.414986 0.330496 0.152705
H17_6 H 0.743164 0.116488 0.118622
H18_6 H 0.645704 0.0650607 0.150503
H21_6 H 0.691694 0.46 0.171191
H22_6 H 0.627272 0.506208 0.141372
H23_6 H 0.848372 0.600082 0.117697
H24_6 H 0.912282 0.556477 0.148003
H27_6 H 0.779817 0.291504 0.169634
H28_6 H 0.876984 0.342868 0.137713
H29_6 H 0.523941 0.209441 0.17249
H30_6 H 0.471508 0.0995155 0.142478
H32_6 H 0.766871 0.0478155 0.225635
P1_6 P 0.9850(6) 0.9794(4) 0.2186(1)
C7_6 C 0.8152(23) 0.8906(16) 0.2349(4)
C8_6 C 0.7239(29) 0.9404(21) 0.2215(4)
C9_6 C 0.5813(23) 0.8613(18) 0.2350(4)
O6_6 O 0.5406(16) 0.9255(11) 0.2496(2)
O7_6 O 0.8374(14) 0.9887(10) 0.1469(2)
H11_6 H 0.82394 0.910441 0.257737
H12_6 H 0.770145 0.782554 0.231209
H26_6 H 0.938163 0.697418 0.219293
H31_6 H 0.716776 0.923025 0.198508
H16_6 H 0.202366 0.931859 0.0555411
O18 O 0.4341(10) 0.3385(10) 0.0145(3)
H1 H 0.425 0.310 0.035
H2 H 0.350 0.350 0.015
H3 H 0.600 0.125 0.000
H10 H 0.735 0.485 0.018
Zn8 Zn 0.5288(3) 0.3145(2) 0.9795(1)
O19 O 0.5767(14) 0.1712(15) 0.9840(4)
O20 O 0.5732(12) 0.4378(13) 0.9480(3)
O21 O 0.3485(11) 0.1919(11) 0.9578(2)
O22 O 0.7232(12) 0.4585(13) 0.9981(3)
H3_2 H 0.600 0.125 1.000
H4 H 0.665 0.210 0.970
H5 H 0.630 0.540 0.948
H6 H 0.535 0.395 0.929
H7 H 0.260 0.110 0.968
H8 H 0.400 0.175 0.943
H9 H 0.765 0.550 0.987
Zn8_2 Zn 0.6855(2) 0.2143(4) 0.3128(1)
O18_2 O 0.6615(10) 0.0956(14) 0.3478(3)
O19_2 O 0.8288(15) 0.4055(21) 0.3173(4)
O20_2 O 0.5622(13) 0.1354(18) 0.2813(3)
O21_2 O 0.8081(11) 0.1566(16) 0.2911(2)
O22_2 O 0.5415(13) 0.2647(18) 0.3314(3)
H1_2 H 0.690 0.115 0.368333
H2_2 H 0.650 -0.000 0.348333
H3_3 H 0.875 0.475 0.333333
H4_2 H 0.790 0.455 0.303333
H5_2 H 0.460 0.090 0.281333
H6_2 H 0.605 0.140 0.262333
H7_2 H 0.890 0.150 0.301333
H8_2 H 0.825 0.225 0.276333
H9_2 H 0.450 0.215 0.320333
H10_2 H 0.515 0.250 0.351333
H2_3 H 0.650 1.000 0.348333
H2_4 H 0.000 0.650 0.681667
Zn8_3 Zn 0.7857(4) 0.4712(3) 0.6462(1)
O18_3 O 0.9044(14) 0.5659(10) 0.6812(3)
O19_3 O 0.5945(21) 0.4233(14) 0.6507(4)
O20_3 O 0.8646(18) 0.4268(12) 0.6147(3)
O21_3 O 0.8434(16) 0.6515(11) 0.6245(2)
O22_3 O 0.7353(18) 0.2768(12) 0.6648(3)
H1_3 H 0.885 0.575 0.701667
H2_5 H 1.000 0.650 0.681667
H3_4 H 0.525 0.400 0.666667
H4_3 H 0.545 0.335 0.636667
H5_3 H 0.910 0.370 0.614667
H6_3 H 0.860 0.465 0.595667
H7_3 H 0.850 0.740 0.634667
H8_3 H 0.775 0.600 0.609667
H9_3 H 0.785 0.235 0.653667
H10_3 H 0.750 0.265 0.684667
Zn8_4 Zn 0.4712(3) 0.6855(2) 0.4795(1)
O18_4 O 0.5659(10) 0.6615(10) 0.5145(3)
O19_4 O 0.4233(14) 0.8288(15) 0.4840(4)
O20_4 O 0.4268(12) 0.5622(13) 0.4480(3)
O21_4 O 0.6515(11) 0.8081(11) 0.4578(2)
O22_4 O 0.2768(12) 0.5415(13) 0.4981(3)
H1_4 H 0.575 0.690 0.535
H2_6 H 0.650 0.650 0.515
H3_5 H 0.400 0.875 0.500
H4_4 H 0.335 0.790 0.470
H5_4 H 0.370 0.460 0.448
H6_4 H 0.465 0.605 0.429
H7_4 H 0.740 0.890 0.468
H8_4 H 0.600 0.825 0.443
H9_4 H 0.235 0.450 0.487
H10_4 H 0.265 0.515 0.518
H2_7 H 0.350 0.000 0.848333
Zn8_5 Zn 0.3145(2) 0.7857(4) 0.8128(1)
O18_5 O 0.3385(10) 0.9044(14) 0.8478(3)
O19_5 O 0.1712(15) 0.5945(21) 0.8173(4)
O20_5 O 0.4378(13) 0.8646(18) 0.7813(3)
O21_5 O 0.1919(11) 0.8434(16) 0.7911(2)
O22_5 O 0.4585(13) 0.7353(18) 0.8314(3)
H1_5 H 0.310 0.885 0.868333
H2_8 H 0.350 1.000 0.848333
H3_6 H 0.125 0.525 0.833333
H4_5 H 0.210 0.545 0.803333
H5_5 H 0.540 0.910 0.781333
H6_5 H 0.395 0.860 0.762333
H7_5 H 0.110 0.850 0.801333
H8_5 H 0.175 0.775 0.776333
H9_5 H 0.550 0.785 0.820333
H10_5 H 0.485 0.750 0.851333
Zn8_6 Zn 0.2143(4) 0.5288(3) 0.1462(1)
O18_6 O 0.0956(14) 0.4341(10) 0.1812(3)
O19_6 O 0.4055(21) 0.5767(14) 0.1507(4)
O20_6 O 0.1354(18) 0.5732(12) 0.1147(3)
O21_6 O 0.1566(16) 0.3485(11) 0.1245(2)
O22_6 O 0.2647(18) 0.7232(12) 0.1648(3)
H1_6 H 0.115 0.425 0.201667
H2_9 H -0.000 0.350 0.181667
H3_7 H 0.475 0.600 0.166667
H4_6 H 0.455 0.665 0.136667
H5_6 H 0.090 0.630 0.114667
H6_6 H 0.140 0.535 0.095667
H7_6 H 0.150 0.260 0.134667
H8_6 H 0.225 0.400 0.109667
H9_6 H 0.215 0.765 0.153667
H10_6 H 0.250 0.735 0.184667
H2_10 H 1.000 0.350 0.181667
loop_
_geom_bond_atom_site_label_1
_geom_bond_atom_site_label_2
_geom_bond_site_symmetry_1
_geom_bond_site_symmetry_2
C1 C2 1_555 1_555
C2 C3 1_555 1_555
C3 O1 1_555 1_555
O1 Zn3 1_555 1_555
O2 C3 1_555 1_555
C2 H15 1_555 1_555
C1 H33 1_555 1_555
C1 H34 1_555 1_555
Zn2 P2 1_555 1_555
P2 C10 1_555 1_555
C10 C11 1_555 1_555
C11 C12 1_555 1_555
C13 P2 1_555 1_555
C14 C13 1_555 1_555
C15 C14 1_555 1_555
O9 C15 1_555 1_555
C16 P2 1_555 1_555
C17 C16 1_555 1_555
C18 C17 1_555 1_555
O11 C18 1_555 1_555
O15 Zn2 1_555 1_555
O16 Zn2 1_555 1_555
O17 Zn2 1_555 1_555
Zn7_2 O11 1_555 1_555
C14 H13 1_555 1_555
C14 H14 1_555 1_555
C11 H17 1_555 1_555
C11 H18 1_555 1_555
C16 H22 1_555 1_555
C17 H23 1_555 1_555
C17 H24 1_555 1_555
C10 H28 1_555 1_555
C13 H30 1_555 1_555
C8 C7 1_555 1_555
C9 C8 1_555 1_555
O5 C9 1_555 1_555
O6 C9 1_555 1_555
Zn3 O5 1_555 1_555
C7 H11 1_555 1_555
C7 H12 1_555 1_555
C8 H31 1_555 1_555
Zn7 P1 1_555 1_555
C4 P1 1_555 1_555
C5 C4 1_555 1_555
C6 C5 1_555 1_555
O3 C6 1_555 1_555
O4 C6 1_555 1_555
Zn3 O3 1_555 1_555
C4 H19 1_555 1_555
C4 H20 1_555 1_555
C5 H25 1_555 1_555
C5 H26 1_555 1_555
C5_2 C4_2 1_555 1_555
C6_2 C5_2 1_555 1_555
O3_2 C6_2 1_555 1_555
O4_2 C6_2 1_555 1_555
Zn4 O3_2 1_555 1_555
C4_2 H19_2 1_555 1_555
C4_2 H20_2 1_555 1_555
C5_2 H25_2 1_555 1_555
Zn1 P1_2 1_555 1_555
O14 Zn1 1_555 1_555
C1_2 C2_2 1_555 1_555
C2_2 C3_2 1_555 1_555
C3_2 O1_2 1_555 1_555
O1_2 Zn4 1_555 1_555
O2_2 C3_2 1_555 1_555
C2_2 H15_2 1_555 1_555
C1_2 H33_2 1_555 1_555
C1_2 H34_2 1_555 1_555
Zn2_2 P2_2 1_555 1_555
P2_2 C10_2 1_555 1_555
C8_2 C7_2 1_555 1_555
C9_2 C8_2 1_555 1_555
O5_2 C9_2 1_555 1_555
O6_2 C9_2 1_555 1_555
C10_2 C11_2 1_555 1_555
C11_2 C12_2 1_555 1_555
C12_2 O7_2 1_555 1_555
O8_2 C12_2 1_555 1_555
C13_2 P2_2 1_555 1_555
C14_2 C13_2 1_555 1_555
C15_2 C14_2 1_555 1_555
O13 C15_2 1_555 1_555
O10_2 C15_2 1_555 1_555
C16_2 P2_2 1_555 1_555
C17_2 C16_2 1_555 1_555
C18_2 C17_2 1_555 1_555
O14 C18_2 1_555 1_555
O12_2 C18_2 1_555 1_555
O15_2 Zn2_2 1_555 1_555
O16_2 Zn2_2 1_555 1_555
O17_2 Zn2_2 1_555 1_555
Zn4 O5_2 1_555 1_555
C7_2 H11_2 1_555 1_555
C7_2 H12_2 1_555 1_555
C14_2 H13_2 1_555 1_555
C14_2 H14_2 1_555 1_555
C11_2 H17_2 1_555 1_555
C11_2 H18_2 1_555 1_555
C16_2 H21_2 1_555 1_555
C16_2 H22_2 1_555 1_555
C17_2 H23_2 1_555 1_555
C17_2 H24_2 1_555 1_555
C10_2 H27_2 1_555 1_555
C10_2 H28_2 1_555 1_555
C13_2 H29_2 1_555 1_555
C13_2 H30_2 1_555 1_555
C8_2 H31_2 1_555 1_555
C8_2 H32_2 1_555 1_555
Zn6 P1_3 1_555 1_555
C7_3 P1_3 1_555 1_555
C8_3 C7_3 1_555 1_555
C9_3 C8_3 1_555 1_555
O5_3 C9_3 1_555 1_555
O6_3 C9_3 1_555 1_555
O7_3 Zn6 1_555 1_555
O14_2 Zn6 1_555 1_555
Zn5 O5_3 1_555 1_555
C7_3 H11_3 1_555 1_555
C7_3 H12_3 1_555 1_555
C8_3 H31_3 1_555 1_555
Zn2_3 P2_3 1_555 1_555
P2_3 C10_3 1_555 1_555
C10_3 C11_3 1_555 1_555
C11_3 C12_3 1_555 1_555
O8_3 C12_3 1_555 1_555
C13_3 P2_3 1_555 1_555
C14_3 C13_3 1_555 1_555
C15_3 C14_3 1_555 1_555
O9_2 C15_3 1_555 1_555
O10_3 C15_3 1_555 1_555
C16_3 P2_3 1_555 1_555
C17_3 C16_3 1_555 1_555
C18_3 C17_3 1_555 1_555
O14_2 C18_3 1_555 1_555
O12_3 C18_3 1_555 1_555
O15_3 Zn2_3 1_555 1_555
O16_3 Zn2_3 1_555 1_555
O17_3 Zn2_3 1_555 1_555
C14_3 H13_3 1_555 1_555
C14_3 H14_3 1_555 1_555
C11_3 H17_3 1_555 1_555
C11_3 H18_3 1_555 1_555
C16_3 H21_3 1_555 1_555
C16_3 H22_3 1_555 1_555
C17_3 H23_3 1_555 1_555
C17_3 H24_3 1_555 1_555
C10_3 H27_3 1_555 1_555
C10_3 H28_3 1_555 1_555
C13_3 H29_3 1_555 1_555
C13_3 H30_3 1_555 1_555
C5_3 C4_3 1_555 1_555
C6_3 C5_3 1_555 1_555
O3_3 C6_3 1_555 1_555
O4_3 C6_3 1_555 1_555
Zn5 O3_3 1_555 1_555
C4_3 H19_3 1_555 1_555
C4_3 H20_3 1_555 1_555
C5_3 H25_3 1_555 1_555
C1_3 C2_3 1_555 1_555
C2_3 C3_3 1_555 1_555
C3_3 O1_3 1_555 1_555
O1_3 Zn5 1_555 1_555
O2_3 C3_3 1_555 1_555
C2_3 H15_3 1_555 1_555
C2_3 H16_2 1_555 1_555
C1_3 H33_3 1_555 1_555
C1_3 H34_3 1_555 1_555
Zn1_2 P1_4 1_555 1_555
C4_4 P1_4 1_555 1_555
C5_4 C4_4 1_555 1_555
C6_4 C5_4 1_555 1_555
O16_3 C6_4 1_555 1_555
O4_4 C6_4 1_555 1_555
O14_3 Zn1_2 1_555 1_555
C4_4 H19_4 1_555 1_555
C4_4 H20_4 1_555 1_555
C5_4 H25_4 1_555 1_555
C5_4 H26_4 1_555 1_555
C8_4 C7_4 1_555 1_555
C9_4 C8_4 1_555 1_555
O17_3 C9_4 1_555 1_555
O6_4 C9_4 1_555 1_555
C7_4 H11_4 1_555 1_555
C7_4 H12_4 1_555 1_555
C8_4 H31_4 1_555 1_555
Zn4 P2_4 1_555 1_555
P2_4 C10_4 1_555 1_555
C1_4 C2_4 1_555 1_555
C2_4 C3_4 1_555 1_555
C3_4 O15_3 1_555 1_555
O2_4 C3_4 1_555 1_555
C10_4 C11_4 1_555 1_555
C11_4 C12_4 1_555 1_555
O8_4 C12_4 1_555 1_555
C13_4 P2_4 1_555 1_555
C14_4 C13_4 1_555 1_555
C15_4 C14_4 1_555 1_555
O13_2 C15_4 1_555 1_555
O10_4 C15_4 1_555 1_555
C16_4 P2_4 1_555 1_555
C17_4 C16_4 1_555 1_555
C18_4 C17_4 1_555 1_555
O14_3 C18_4 1_555 1_555
O12_4 C18_4 1_555 1_555
C14_4 H13_4 1_555 1_555
C14_4 H14_4 1_555 1_555
C2_4 H15_4 1_555 1_555
C11_4 H17_4 1_555 1_555
C11_4 H18_4 1_555 1_555
C16_4 H21_4 1_555 1_555
C16_4 H22_4 1_555 1_555
C17_4 H23_4 1_555 1_555
C17_4 H24_4 1_555 1_555
C10_4 H27_4 1_555 1_555
C10_4 H28_4 1_555 1_555
C13_4 H29_4 1_555 1_555
C13_4 H30_4 1_555 1_555
C1_4 H33_4 1_555 1_555
C1_4 H34_4 1_555 1_555
Zn5 P2_5 1_555 1_555
P2_5 C10_5 1_555 1_555
C8_5 C7_5 1_555 1_555
C9_5 C8_5 1_555 1_555
O17 C9_5 1_555 1_555
O6_5 C9_5 1_555 1_555
C10_5 C11_5 1_555 1_555
C11_5 C12_5 1_555 1_555
C12_5 O7_5 1_555 1_555
O8_5 C12_5 1_555 1_555
C13_5 P2_5 1_555 1_555
C14_5 C13_5 1_555 1_555
C15_5 C14_5 1_555 1_555
O9_3 C15_5 1_555 1_555
O10_5 C15_5 1_555 1_555
C16_5 P2_5 1_555 1_555
C17_5 C16_5 1_555 1_555
C18_5 C17_5 1_555 1_555
O11_2 C18_5 1_555 1_555
O12_5 C18_5 1_555 1_555
Zn6_2 O11_2 1_555 1_555
C7_5 H11_5 1_555 1_555
C7_5 H12_5 1_555 1_555
C14_5 H13_5 1_555 1_555
C14_5 H14_5 1_555 1_555
C11_5 H17_5 1_555 1_555
C11_5 H18_5 1_555 1_555
C16_5 H21_5 1_555 1_555
C16_5 H22_5 1_555 1_555
C17_5 H23_5 1_555 1_555
C17_5 H24_5 1_555 1_555
C10_5 H27_5 1_555 1_555
C10_5 H28_5 1_555 1_555
C13_5 H29_5 1_555 1_555
C13_5 H30_5 1_555 1_555
C8_5 H31_5 1_555 1_555
C8_5 H32_5 1_555 1_555
C1_5 C2_5 1_555 1_555
C2_5 C3_5 1_555 1_555
C3_5 O15 1_555 1_555
O2_5 C3_5 1_555 1_555
C2_5 H15_5 1_555 1_555
C1_5 H33_5 1_555 1_555
C1_5 H34_5 1_555 1_555
Zn6_2 P1_5 1_555 1_555
C5_5 C4_5 1_555 1_555
C6_5 C5_5 1_555 1_555
O16 C6_5 1_555 1_555
O4_5 C6_5 1_555 1_555
C4_5 H19_5 1_555 1_555
C4_5 H20_5 1_555 1_555
C5_5 H25_5 1_555 1_555
C1_6 C2_6 1_555 1_555
C2_6 C3_6 1_555 1_555
C3_6 O15_2 1_555 1_555
O2_6 C3_6 1_555 1_555
C2_6 H15_6 1_555 1_555
C2_6 H16_5 1_555 1_555
C1_6 H33_6 1_555 1_555
C1_6 H34_6 1_555 1_555
C5_6 C4_6 1_555 1_555
C6_6 C5_6 1_555 1_555
O16_2 C6_6 1_555 1_555
O4_6 C6_6 1_555 1_555
C4_6 H19_6 1_555 1_555
C4_6 H20_6 1_555 1_555
C5_6 H25_6 1_555 1_555
Zn3 P2_6 1_555 1_555
P2_6 C10_6 1_555 1_555
C10_6 C11_6 1_555 1_555
C11_6 C12_6 1_555 1_555
O8_6 C12_6 1_555 1_555
C13_6 P2_6 1_555 1_555
C14_6 C13_6 1_555 1_555
C15_6 C14_6 1_555 1_555
O13_3 C15_6 1_555 1_555
O10_6 C15_6 1_555 1_555
C16_6 P2_6 1_555 1_555
C17_6 C16_6 1_555 1_555
C18_6 C17_6 1_555 1_555
O11_3 C18_6 1_555 1_555
O12_6 C18_6 1_555 1_555
Zn7_3 O11_3 1_555 1_555
C14_6 H13_6 1_555 1_555
C14_6 H14_6 1_555 1_555
C11_6 H17_6 1_555 1_555
C11_6 H18_6 1_555 1_555
C16_6 H21_6 1_555 1_555
C16_6 H22_6 1_555 1_555
C17_6 H23_6 1_555 1_555
C17_6 H24_6 1_555 1_555
C10_6 H27_6 1_555 1_555
C10_6 H28_6 1_555 1_555
C13_6 H29_6 1_555 1_555
C13_6 H30_6 1_555 1_555
Zn7_3 P1_6 1_555 1_555
C7_6 P1_6 1_555 1_555
C8_6 C7_6 1_555 1_555
C9_6 C8_6 1_555 1_555
O17_2 C9_6 1_555 1_555
O6_6 C9_6 1_555 1_555
O7_6 Zn7_3 1_555 1_555
C7_6 H11_6 1_555 1_555
C7_6 H12_6 1_555 1_555
C8_6 H31_6 1_555 1_555
O18 H1 1_555 1_555
H2 O18 1_555 1_555
O19 Zn8 1_555 1_555
O20 Zn8 1_555 1_555
O21 Zn8 1_555 1_555
O22 Zn8 1_555 1_555
H3_2 O19 1_555 1_555
H4 O19 1_555 1_555
H5 O20 1_555 1_555
H6 O20 1_555 1_555
H7 O21 1_555 1_555
H8 O21 1_555 1_555
H9 O22 1_555 1_555
Zn8_2 O18_2 1_555 1_555
O18_2 H1_2 1_555 1_555
O19_2 Zn8_2 1_555 1_555
O20_2 Zn8_2 1_555 1_555
O21_2 Zn8_2 1_555 1_555
O22_2 Zn8_2 1_555 1_555
H2_2 O18_2 1_555 1_555
H3_3 O19_2 1_555 1_555
H4_2 O19_2 1_555 1_555
H5_2 O20_2 1_555 1_555
H6_2 O20_2 1_555 1_555
H7_2 O21_2 1_555 1_555
H8_2 O21_2 1_555 1_555
H9_2 O22_2 1_555 1_555
H10_2 O22_2 1_555 1_555
Zn8_3 O18_3 1_555 1_555
O18_3 H1_3 1_555 1_555
O19_3 Zn8_3 1_555 1_555
O20_3 Zn8_3 1_555 1_555
O21_3 Zn8_3 1_555 1_555
O22_3 Zn8_3 1_555 1_555
H2_5 O18_3 1_555 1_555
H3_4 O19_3 1_555 1_555
H4_3 O19_3 1_555 1_555
H5_3 O20_3 1_555 1_555
H6_3 O20_3 1_555 1_555
H7_3 O21_3 1_555 1_555
H8_3 O21_3 1_555 1_555
H9_3 O22_3 1_555 1_555
H10_3 O22_3 1_555 1_555
Zn8_4 O18_4 1_555 1_555
O18_4 H1_4 1_555 1_555
O19_4 Zn8_4 1_555 1_555
O20_4 Zn8_4 1_555 1_555
O21_4 Zn8_4 1_555 1_555
O22_4 Zn8_4 1_555 1_555
H2_6 O18_4 1_555 1_555
H3_5 O19_4 1_555 1_555
H4_4 O19_4 1_555 1_555
H5_4 O20_4 1_555 1_555
H6_4 O20_4 1_555 1_555
H7_4 O21_4 1_555 1_555
H8_4 O21_4 1_555 1_555
H9_4 O22_4 1_555 1_555
H10_4 O22_4 1_555 1_555
Zn8_5 O18_5 1_555 1_555
O18_5 H1_5 1_555 1_555
O19_5 Zn8_5 1_555 1_555
O20_5 Zn8_5 1_555 1_555
O21_5 Zn8_5 1_555 1_555
O22_5 Zn8_5 1_555 1_555
H2_8 O18_5 1_555 1_555
H3_6 O19_5 1_555 1_555
H4_5 O19_5 1_555 1_555
H5_5 O20_5 1_555 1_555
H6_5 O20_5 1_555 1_555
H7_5 O21_5 1_555 1_555
H8_5 O21_5 1_555 1_555
H9_5 O22_5 1_555 1_555
H10_5 O22_5 1_555 1_555
Zn8_6 O18_6 1_555 1_555
O18_6 H1_6 1_555 1_555
O19_6 Zn8_6 1_555 1_555
O20_6 Zn8_6 1_555 1_555
O21_6 Zn8_6 1_555 1_555
O22_6 Zn8_6 1_555 1_555
H2_9 O18_6 1_555 1_555
H3_7 O19_6 1_555 1_555
H4_6 O19_6 1_555 1_555
H5_6 O20_6 1_555 1_555
H6_6 O20_6 1_555 1_555
H7_6 O21_6 1_555 1_555
H8_6 O21_6 1_555 1_555
H9_6 O22_6 1_555 1_555
H10_6 O22_6 1_555 1_555

#END
