
###############################################################################
#
# This file contains modified crystal structure data generated from the
# MOF subset of the Cambridge Structural Database (CSD) v543 
# hosted by the Cambridge Crystallographic Data Centre (CCDC).
#
# This work is licensed under the Creative Commons
# Attribution-NonCommercial-ShareAlike 4.0 International License.
# To view a copy of this license, visit
# http://creativecommons.org/licenses/by-nc-sa/4.0/
# or send a letter to
# Creative Commons, PO Box 1866, Mountain View, CA 94042, USA.
#
# CIF created using the CSD Python API on 29 September 2022
# The structure has been converted into the P1 space group
# The structure has a 3D framework
# The original CSD entry DEHLAF is in the monoclinic crystal system
# The framework has been calculated to contain at least 10.0% void space
# The void calculation uses a probe of radius 1.32A, grid spacing 0.4
#
###############################################################################

data_DEHLAF
_chemical_formula_moiety         '(C432 H408 Co14 N48 O72)n'
_symmetry_cell_setting           triclinic
_symmetry_space_group_name_H-M   'P 1'
_symmetry_Int_Tables_number      1
_space_group_name_Hall           'P 1'
loop_
_symmetry_equiv_pos_site_id
_symmetry_equiv_pos_as_xyz
1 x,y,z
_cell_length_a                   23.5595(15)
_cell_length_b                   11.2040(7)
_cell_length_c                   41.518(3)
_cell_angle_alpha                90
_cell_angle_beta                 94.5160(10)
_cell_angle_gamma                90
_cell_volume                     10925.1
loop_
_atom_site_label
_atom_site_type_symbol
_atom_site_fract_x
_atom_site_fract_y
_atom_site_fract_z
H39 H 0.3135 0.0344 0.2367
H40 H 0.2468 0.0302 0.2347
C48 C 0.1187(2) 0.0844(4) 0.27180(12)
H44 H 0.0890 0.0725 0.2560
C49 C 0.1238(2) 0.1742(4) 0.29354(12)
H45 H 0.0975 0.2354 0.2951
C50 C 0.1965(2) 0.0657(4) 0.30242(11)
H46 H 0.2311 0.0355 0.3112
C52 C 0.3974(3) 0.0830(5) 0.29790(12)
H49 H 0.3788 0.0543 0.3153
C53 C 0.4222(2) 0.1891(4) 0.29558(12)
H50 H 0.4237 0.2476 0.3115
C54 C 0.4337(2) 0.0996(4) 0.25134(12)
H51 H 0.4441 0.0821 0.2307
Co2 Co 0.5000 0.32401(7) 0.2500
N3 N 0.17277(18) 0.1622(3) 0.31276(9)
N4 N 0.16553(19) 0.0153(3) 0.27778(9)
N5 N 0.40489(18) 0.0244(3) 0.26927(9)
N6 N 0.44537(16) 0.2001(3) 0.26632(8)
H90 H 0.6865 0.0344 0.2633
H91 H 0.7532 0.0302 0.2653
C102 C 0.8813(2) 0.0844(4) 0.22820(12)
H95 H 0.9110 0.0725 0.2440
C103 C 0.8762(2) 0.1742(4) 0.20646(12)
H96 H 0.9025 0.2354 0.2049
C104 C 0.8035(2) 0.0657(4) 0.19758(11)
H97 H 0.7689 0.0355 0.1888
C106 C 0.6026(3) 0.0830(5) 0.20210(12)
H100 H 0.6212 0.0543 0.1847
C107 C 0.5778(2) 0.1891(4) 0.20442(12)
H101 H 0.5763 0.2476 0.1885
C108 C 0.5663(2) 0.0996(4) 0.24866(12)
H102 H 0.5559 0.0821 0.2693
Co4 Co 0.19967(3) 0.24384(5) 0.354020(15)
Co5 Co 0.80033(3) 0.24384(5) 0.145980(15)
N9 N 0.82723(18) 0.1622(3) 0.18724(9)
N12 N 0.83447(19) 0.0153(3) 0.22222(9)
N13 N 0.59511(18) 0.0244(3) 0.23073(9)
N14 N 0.55463(16) 0.2001(3) 0.23368(8)
O11 O 0.54292(16) 0.3730(3) 0.29121(7)
O12 O 0.45708(16) 0.3730(3) 0.20879(7)
C33 C 0.2745(2) 0.0757(4) 0.37711(12)
C34 C 0.3048(2) 0.3661(4) 0.33210(11)
H28 H 0.3203 0.2964 0.3243
C35 C 0.3265(2) 0.4781(5) 0.32902(12)
H29 H 0.3587 0.4989 0.3186
C36 C 0.2506(2) 0.4856(4) 0.35562(11)
H30 H 0.2214 0.5151 0.3672
C37 C 0.2972(2) 0.6838(3) 0.34842(10)
H31 H 0.3337 0.7012 0.3598
H32 H 0.2678 0.7114 0.3617
C38 C 0.2924(3) 0.7526(4) 0.31682(11)
C39 C 0.2385(3) 0.7825(4) 0.30273(11)
C40 C 0.2347(3) 0.8553(4) 0.27540(11)
C41 C 0.2832(3) 0.8955(4) 0.26200(11)
C42 C 0.3359(3) 0.8608(4) 0.27533(11)
C43 C 0.3425(3) 0.7893(4) 0.30342(11)
C44 C 0.4022(2) 0.7568(4) 0.31792(11)
H33 H 0.4003 0.7328 0.3400
H34 H 0.4267 0.8248 0.3170
H35 H 0.4169 0.6923 0.3059
C45 C 0.1867(3) 0.7427(4) 0.31854(13)
H36 H 0.1533 0.7742 0.3068
H37 H 0.1887 0.7713 0.3404
H38 H 0.1849 0.6571 0.3185
C46 C 0.2808(3) 0.9830(5) 0.23445(12)
H41 H 0.2805 0.9405 0.2144
C47 C 0.1779(2) 0.9012(4) 0.26226(11)
H42 H 0.1778 0.9125 0.2391
H43 H 0.1486 0.8434 0.2663
C51 C 0.3888(2) 0.9006(4) 0.25987(12)
H47 H 0.4200 0.8472 0.2664
H48 H 0.3820 0.8961 0.2366
N1 N 0.25668(17) 0.3726(3) 0.34845(9)
N2 N 0.29168(19) 0.5539(3) 0.34430(9)
O8 O 0.29762(18) 0.1103(3) 0.35338(9)
O9 O 0.22755(16) 0.1195(3) 0.38547(8)
C87 C 0.7255(2) 0.0757(4) 0.12289(12)
C88 C 0.6952(2) 0.3661(4) 0.16790(11)
H79 H 0.6797 0.2964 0.1757
C89 C 0.6735(2) 0.4781(5) 0.17098(12)
H80 H 0.6413 0.4989 0.1814
C90 C 0.7494(2) 0.4856(4) 0.14438(11)
H81 H 0.7786 0.5151 0.1328
C91 C 0.7028(2) 0.6838(3) 0.15158(10)
H82 H 0.6663 0.7012 0.1402
H83 H 0.7322 0.7114 0.1383
C92 C 0.7076(3) 0.7526(4) 0.18318(11)
C93 C 0.7615(3) 0.7825(4) 0.19727(11)
C94 C 0.7653(3) 0.8553(4) 0.22460(11)
C95 C 0.7168(3) 0.8955(4) 0.23800(11)
C96 C 0.6641(3) 0.8608(4) 0.22467(11)
C97 C 0.6575(3) 0.7893(4) 0.19658(11)
C98 C 0.5978(2) 0.7568(4) 0.18208(11)
H84 H 0.5997 0.7328 0.1600
H85 H 0.5733 0.8248 0.1830
H86 H 0.5831 0.6923 0.1941
C99 C 0.8133(3) 0.7427(4) 0.18146(13)
H87 H 0.8467 0.7742 0.1932
H88 H 0.8113 0.7713 0.1596
H89 H 0.8151 0.6571 0.1815
C100 C 0.7192(3) 0.9830(5) 0.26555(12)
H92 H 0.7195 0.9405 0.2856
C101 C 0.8221(2) 0.9012(4) 0.23774(11)
H93 H 0.8222 0.9125 0.2609
H94 H 0.8514 0.8434 0.2337
C105 C 0.6112(2) 0.9006(4) 0.24013(12)
H98 H 0.5800 0.8472 0.2336
H99 H 0.6180 0.8961 0.2634
N7 N 0.74332(17) 0.3726(3) 0.15155(9)
N8 N 0.70832(19) 0.5539(3) 0.15570(9)
O17 O 0.13647(17) 0.3243(3) 0.37306(10)
O18 O 0.86353(17) 0.3243(3) 0.12694(10)
O21 O 0.70238(18) 0.1103(3) 0.14662(9)
O22 O 0.77245(16) 0.1195(3) 0.11453(8)
C6 C 0.0085(3) 0.9535(5) 0.61117(11)
H3 H 0.0374 0.9356 0.5980
C7 C 0.0216(2) 0.9921(5) 0.64261(11)
H4 H 0.0595 0.9990 0.6505
H5 H 0.0049 0.8595 0.5477
H19 H 0.0213 0.7335 0.5173
C20 C 0.0026(3) 0.6381(5) 0.40565(13)
C21 C 0.0254(3) 0.6744(5) 0.37822(14)
H20 H 0.0192 0.7520 0.3708
C22 C 0.0573(3) 0.5983(5) 0.36137(14)
H21 H 0.0712 0.6241 0.3422
C23 C 0.0695(3) 0.4846(4) 0.37206(13)
C24 C 0.0465(3) 0.4486(5) 0.39941(14)
H22 H 0.0540 0.3718 0.4071
C25 C 0.0119(3) 0.5236(5) 0.41624(14)
C26 C 0.1113(3) 0.4076(5) 0.35546(17)
O6 O 0.1200(2) 0.4299(3) 0.32695(11)
C65 C 0.1219(2) 0.9899(4) 0.02928(11)
C66 C 0.1139(2) 0.8907(5) 0.04896(10)
C67 C 0.0793(2) 0.7977(4) 0.03760(11)
C68 C 0.0511(2) 0.8050(4) 0.00679(11)
C71 C 0.1422(3) 0.8851(6) 0.08309(12)
H63 H 0.1224 0.8287 0.0955
H64 H 0.1410 0.9625 0.0929
H65 H 0.1811 0.8605 0.0824
C72 C 0.0691(3) 0.6913(5) 0.05853(12)
H66 H 0.0577 0.6228 0.0453
H67 H 0.1035 0.6711 0.0718
H68 H 0.0011 0.6557 0.0124
H74 H 0.0046 0.4960 0.0655
O15 O 0.02580(14) 0.7234(3) 0.07786(9)
C4 C 0.9094(2) 0.9729(4) 0.61856(11)
H2 H 0.8715 0.9671 0.6105
C5 C 0.9520(2) 0.9420(4) 0.59958(10)
C8 C 0.9752(2) 0.9193(5) 0.54498(10)
H6 H 0.9926 0.9977 0.5471
C9 C 0.9426(2) 0.9065(4) 0.51217(10)
C10 C 0.9062(2) 0.9988(4) 0.50127(11)
C11 C 0.8781(2) 0.9899(4) 0.47072(11)
C12 C 0.8861(2) 0.8907(5) 0.45104(10)
C13 C 0.9207(2) 0.7977(4) 0.46240(11)
C14 C 0.9489(2) 0.8050(4) 0.49321(11)
C17 C 0.8578(3) 0.8851(6) 0.41691(12)
H12 H 0.8776 0.8287 0.4045
H13 H 0.8590 0.9625 0.4071
H14 H 0.8189 0.8605 0.4176
C18 C 0.9309(3) 0.6913(5) 0.44147(12)
H15 H 0.9423 0.6228 0.4547
H16 H 0.8965 0.6711 0.4282
C19 C 0.9879(3) 0.7016(5) 0.50558(15)
H17 H 0.9989 0.6557 0.4876
H18 H 0.9679 0.6514 0.5196
H23 H 0.9954 0.4960 0.4345
O3 O 0.93484(15) 0.9036(3) 0.56881(7)
O4 O 0.97420(14) 0.7234(3) 0.42214(9)
C74 C 0.9974(3) 0.6381(5) 0.09435(13)
C75 C 0.9746(3) 0.6744(5) 0.12178(14)
H71 H 0.9808 0.7520 0.1292
C76 C 0.9427(3) 0.5983(5) 0.13863(14)
H72 H 0.9288 0.6241 0.1578
C77 C 0.9305(3) 0.4846(4) 0.12794(13)
C78 C 0.9535(3) 0.4486(5) 0.10059(14)
H73 H 0.9460 0.3718 0.0929
C79 C 0.9881(3) 0.5236(5) 0.08376(14)
C80 C 0.8887(3) 0.4076(5) 0.14454(17)
O19 O 0.8800(2) 0.4299(3) 0.17305(11)
C55 C 0.4938(3) 0.4373(4) 0.19631(11)
C56 C 0.4791(2) 0.4798(4) 0.16228(10)
C57 C 0.4229(2) 0.4872(4) 0.14958(11)
H52 H 0.3939 0.4648 0.1623
C58 C 0.4094(2) 0.5271(4) 0.11856(11)
H53 H 0.3715 0.5329 0.1105
C59 C 0.4520(2) 0.5580(4) 0.09958(10)
C60 C 0.5085(3) 0.5465(5) 0.11117(11)
H54 H 0.5374 0.5644 0.0980
C61 C 0.5216(2) 0.5079(5) 0.14261(11)
H55 H 0.5595 0.5010 0.1505
C62 C 0.4752(2) 0.5807(5) 0.04498(10)
H56 H 0.5049 0.6405 0.0477
H57 H 0.4926 0.5023 0.0471
C63 C 0.4426(2) 0.5935(4) 0.01217(10)
C64 C 0.4062(2) 0.5012(4) 0.00127(11)
C69 C 0.3981(3) 0.3929(5) 0.02266(13)
H58 H 0.3901 0.3239 0.0094
H59 H 0.4322 0.3794 0.0364
H60 H 0.3669 0.4071 0.0357
C73 C 0.4879(3) 0.7984(5) 0.00558(15)
H69 H 0.4679 0.8486 0.0196
H70 H 0.5213 0.7665 0.0173
O13 O 0.54042(19) 0.4607(3) 0.21043(8)
O14 O 0.43484(15) 0.5964(3) 0.06881(7)
C1 C 0.5062(3) 0.4373(4) 0.30369(11)
C2 C 0.5209(2) 0.4798(4) 0.33772(10)
C3 C 0.5771(2) 0.4872(4) 0.35042(11)
H1 H 0.6061 0.4648 0.3377
C4_2 C 0.5906(2) 0.5271(4) 0.38144(11)
H2_2 H 0.6285 0.5329 0.3895
C5_2 C 0.5480(2) 0.5580(4) 0.40042(10)
C6_2 C 0.4915(3) 0.5465(5) 0.38883(11)
H3_2 H 0.4626 0.5644 0.4020
C7_2 C 0.4784(2) 0.5079(5) 0.35739(11)
H4_2 H 0.4405 0.5010 0.3495
C8_2 C 0.5248(2) 0.5807(5) 0.45502(10)
H5_2 H 0.4951 0.6405 0.4523
H6_2 H 0.5074 0.5023 0.4529
C9_2 C 0.5574(2) 0.5935(4) 0.48783(10)
C10_2 C 0.5938(2) 0.5012(4) 0.49873(11)
C11_2 C 0.6219(2) 0.5101(4) 0.52928(11)
C12_2 C 0.6139(2) 0.6093(5) 0.54896(10)
C13_2 C 0.5793(2) 0.7023(4) 0.53760(11)
C14_2 C 0.5511(2) 0.6950(4) 0.50679(11)
C15 C 0.6019(3) 0.3929(5) 0.47734(13)
H7 H 0.6099 0.3239 0.4906
H8 H 0.5678 0.3794 0.4636
H9 H 0.6331 0.4071 0.4643
C16 C 0.6602(3) 0.4098(5) 0.54111(14)
H10 H 0.6901 0.4396 0.5564
H11 H 0.6777 0.3735 0.5231
C17_2 C 0.6422(3) 0.6149(6) 0.58309(12)
H12_2 H 0.6224 0.6713 0.5955
H13_2 H 0.6410 0.5375 0.5929
H14_2 H 0.6811 0.6395 0.5824
C18_2 C 0.5691(3) 0.8087(5) 0.55853(12)
H15_2 H 0.5577 0.8772 0.5453
H16_2 H 0.6035 0.8289 0.5718
C19_2 C 0.5121(3) 0.7984(5) 0.49442(15)
H17_2 H 0.5011 0.8443 0.5124
H18_2 H 0.5321 0.8486 0.4804
H19_2 H 0.4787 0.7665 0.4827
C20_2 C 0.4974(3) 0.8619(5) 0.59435(13)
C21_2 C 0.4746(3) 0.8256(5) 0.62178(14)
H20_2 H 0.4808 0.7480 0.6292
C22_2 C 0.4427(3) 0.9017(5) 0.63863(14)
H21_2 H 0.4288 0.8759 0.6578
C25_2 C 0.4881(3) 0.9764(5) 0.58376(14)
C27 C 0.6529(2) 0.2259(5) 0.57045(12)
C28 C 0.7087(3) 0.1953(5) 0.56777(13)
H24 H 0.7311 0.2415 0.5551
C29 C 0.7321(2) 0.0951(4) 0.58388(12)
H25 H 0.7697 0.0741 0.5813
C30 C 0.7006(2) 0.0273(4) 0.60333(11)
C31 C 0.6440(2) 0.0591(4) 0.60543(11)
H26 H 0.6215 0.0139 0.6183
C32 C 0.6205(2) 0.1560(4) 0.58893(12)
H27 H 0.5822 0.1741 0.5903
O2 O 0.45958(19) 0.4607(3) 0.28957(8)
O3_2 O 0.56516(15) 0.5964(3) 0.43119(7)
O4_2 O 0.52580(14) 0.7766(3) 0.57786(9)
O7 O 0.62655(16) 0.3237(3) 0.55635(8)
C65_2 C 0.3781(2) 0.5101(4) 0.97072(11)
C66_2 C 0.3861(2) 0.6093(5) 0.95104(10)
C67_2 C 0.4207(2) 0.7023(4) 0.96240(11)
C68_2 C 0.4489(2) 0.6950(4) 0.99321(11)
C70 C 0.3398(3) 0.4098(5) 0.95889(14)
H61 H 0.3099 0.4396 0.9436
H62 H 0.3223 0.3735 0.9769
C71_2 C 0.3578(3) 0.6149(6) 0.91691(12)
H63_2 H 0.3776 0.6713 0.9045
H64_2 H 0.3590 0.5375 0.9071
H65_2 H 0.3189 0.6395 0.9176
C72_2 C 0.4309(3) 0.8087(5) 0.94147(12)
H66_2 H 0.4423 0.8772 0.9547
H67_2 H 0.3965 0.8289 0.9282
H68_2 H 0.4989 0.8443 0.9876
C74_2 C 0.5026(3) 0.8619(5) 0.90565(13)
C75_2 C 0.5254(3) 0.8256(5) 0.87822(14)
H71_2 H 0.5192 0.7480 0.8708
C76_2 C 0.5573(3) 0.9017(5) 0.86137(14)
H72_2 H 0.5712 0.8759 0.8422
C79_2 C 0.5119(3) 0.9764(5) 0.91624(14)
C81 C 0.3471(2) 0.2259(5) 0.92955(12)
C82 C 0.2913(3) 0.1953(5) 0.93223(13)
H75 H 0.2689 0.2415 0.9449
C83 C 0.2679(2) 0.0951(4) 0.91612(12)
H76 H 0.2303 0.0741 0.9187
C84 C 0.2994(2) 0.0273(4) 0.89667(11)
C85 C 0.3560(2) 0.0591(4) 0.89457(11)
H77 H 0.3785 0.0139 0.8817
C86 C 0.3795(2) 0.1560(4) 0.91107(12)
H78 H 0.4178 0.1741 0.9097
O15_2 O 0.47420(14) 0.7766(3) 0.92214(9)
O20 O 0.37345(16) 0.3237(3) 0.94365(8)
C1_2 C 0.4938(3) 0.5627(4) 0.69631(11)
C2_2 C 0.4791(2) 0.5202(4) 0.66228(10)
C3_2 C 0.4229(2) 0.5128(4) 0.64958(11)
H1_2 H 0.3939 0.5352 0.6623
C4_3 C 0.4094(2) 0.4729(4) 0.61856(11)
H2_3 H 0.3715 0.4671 0.6105
C5_3 C 0.4520(2) 0.4420(4) 0.59958(10)
C6_3 C 0.5085(3) 0.4535(5) 0.61117(11)
H3_3 H 0.5374 0.4356 0.5980
C7_3 C 0.5216(2) 0.4921(5) 0.64261(11)
H4_3 H 0.5595 0.4990 0.6505
C8_3 C 0.4752(2) 0.4193(5) 0.54498(10)
H5_3 H 0.5049 0.3595 0.5477
H6_3 H 0.4926 0.4977 0.5471
C9_3 C 0.4426(2) 0.4065(4) 0.51217(10)
C10_3 C 0.4062(2) 0.4988(4) 0.50127(11)
C11_3 C 0.3781(2) 0.4899(4) 0.47072(11)
C12_3 C 0.3861(2) 0.3907(5) 0.45104(10)
C13_3 C 0.4207(2) 0.2977(4) 0.46240(11)
C14_3 C 0.4489(2) 0.3050(4) 0.49321(11)
C15_2 C 0.3981(3) 0.6071(5) 0.52266(13)
H7_2 H 0.3901 0.6761 0.5094
H8_2 H 0.4322 0.6206 0.5364
H9_2 H 0.3669 0.5929 0.5357
C16_2 C 0.3398(3) 0.5902(5) 0.45889(14)
H10_2 H 0.3099 0.5604 0.4436
H11_2 H 0.3223 0.6265 0.4769
C17_3 C 0.3578(3) 0.3851(6) 0.41691(12)
H12_3 H 0.3776 0.3287 0.4045
H13_3 H 0.3590 0.4625 0.4071
H14_3 H 0.3189 0.3605 0.4176
C18_3 C 0.4309(3) 0.1913(5) 0.44147(12)
H15_3 H 0.4423 0.1228 0.4547
H16_3 H 0.3965 0.1711 0.4282
C19_3 C 0.4879(3) 0.2016(5) 0.50558(15)
H17_3 H 0.4989 0.1557 0.4876
H18_3 H 0.4679 0.1514 0.5196
H19_3 H 0.5213 0.2335 0.5173
C20_3 C 0.5026(3) 0.1381(5) 0.40565(13)
C21_3 C 0.5254(3) 0.1744(5) 0.37822(14)
H20_3 H 0.5192 0.2520 0.3708
C22_3 C 0.5573(3) 0.0983(5) 0.36137(14)
H21_3 H 0.5712 0.1241 0.3422
C25_3 C 0.5119(3) 0.0236(5) 0.41624(14)
C27_2 C 0.3471(2) 0.7741(5) 0.42955(12)
C28_2 C 0.2913(3) 0.8047(5) 0.43223(13)
H24_2 H 0.2689 0.7585 0.4449
C29_2 C 0.2679(2) 0.9049(4) 0.41612(12)
H25_2 H 0.2303 0.9259 0.4187
C30_2 C 0.2994(2) 0.9727(4) 0.39667(11)
C31_2 C 0.3560(2) 0.9409(4) 0.39457(11)
H26_2 H 0.3785 0.9861 0.3817
C32_2 C 0.3795(2) 0.8440(4) 0.41107(12)
H27_2 H 0.4178 0.8259 0.4097
O1 O 0.45708(16) 0.6270(3) 0.70879(7)
O2_2 O 0.54042(19) 0.5393(3) 0.71043(8)
O3_3 O 0.43484(15) 0.4036(3) 0.56881(7)
O4_3 O 0.47420(14) 0.2234(3) 0.42214(9)
O7_2 O 0.37345(16) 0.6763(3) 0.44365(8)
C65_3 C 0.6219(2) 0.4899(4) 0.02928(11)
C66_3 C 0.6139(2) 0.3907(5) 0.04896(10)
C67_3 C 0.5793(2) 0.2977(4) 0.03760(11)
C68_3 C 0.5511(2) 0.3050(4) 0.00679(11)
C70_2 C 0.6602(3) 0.5902(5) 0.04111(14)
H61_2 H 0.6901 0.5604 0.0564
H62_2 H 0.6777 0.6265 0.0231
C71_3 C 0.6422(3) 0.3851(6) 0.08309(12)
H63_3 H 0.6224 0.3287 0.0955
H64_3 H 0.6410 0.4625 0.0929
H65_3 H 0.6811 0.3605 0.0824
C72_3 C 0.5691(3) 0.1913(5) 0.05853(12)
H66_3 H 0.5577 0.1228 0.0453
H67_3 H 0.6035 0.1711 0.0718
H68_3 H 0.5011 0.1557 0.0124
C74_3 C 0.4974(3) 0.1381(5) 0.09435(13)
C75_3 C 0.4746(3) 0.1744(5) 0.12178(14)
H71_3 H 0.4808 0.2520 0.1292
C76_3 C 0.4427(3) 0.0983(5) 0.13863(14)
H72_3 H 0.4288 0.1241 0.1578
C79_3 C 0.4881(3) 0.0236(5) 0.08376(14)
C81_2 C 0.6529(2) 0.7741(5) 0.07045(12)
C82_2 C 0.7087(3) 0.8047(5) 0.06777(13)
H75_2 H 0.7311 0.7585 0.0551
C83_2 C 0.7321(2) 0.9049(4) 0.08388(12)
H76_2 H 0.7697 0.9259 0.0813
C84_2 C 0.7006(2) 0.9727(4) 0.10333(11)
C85_2 C 0.6440(2) 0.9409(4) 0.10543(11)
H77_2 H 0.6215 0.9861 0.1183
C86_2 C 0.6205(2) 0.8440(4) 0.08893(12)
H78_2 H 0.5822 0.8259 0.0903
Co9 Co 0.5000 0.67599(7) 0.7500
O15_3 O 0.52580(14) 0.2234(3) 0.07786(9)
O20_2 O 0.62655(16) 0.6763(3) 0.05635(8)
C55_2 C 0.5062(3) 0.5627(4) 0.80369(11)
C56_2 C 0.5209(2) 0.5202(4) 0.83772(10)
C57_2 C 0.5771(2) 0.5128(4) 0.85042(11)
H52_2 H 0.6061 0.5352 0.8377
C58_2 C 0.5906(2) 0.4729(4) 0.88144(11)
H53_2 H 0.6285 0.4671 0.8895
C59_2 C 0.5480(2) 0.4420(4) 0.90042(10)
C60_2 C 0.4915(3) 0.4535(5) 0.88883(11)
H54_2 H 0.4626 0.4356 0.9020
C61_2 C 0.4784(2) 0.4921(5) 0.85739(11)
H55_2 H 0.4405 0.4990 0.8495
C62_2 C 0.5248(2) 0.4193(5) 0.95502(10)
H56_2 H 0.4951 0.3595 0.9523
H57_2 H 0.5074 0.4977 0.9529
C63_2 C 0.5574(2) 0.4065(4) 0.98783(10)
C64_2 C 0.5938(2) 0.4988(4) 0.99873(11)
C69_2 C 0.6019(3) 0.6071(5) 0.97734(13)
H58_2 H 0.6099 0.6761 0.9906
H59_2 H 0.5678 0.6206 0.9636
H60_2 H 0.6331 0.5929 0.9643
C73_2 C 0.5121(3) 0.2016(5) 0.99442(15)
H69_2 H 0.5321 0.1514 0.9804
H70_2 H 0.4787 0.2335 0.9827
O10 O 0.54292(16) 0.6270(3) 0.79121(7)
O13_2 O 0.45958(19) 0.5393(3) 0.78957(8)
O14_2 O 0.56516(15) 0.4036(3) 0.93119(7)
C33_2 C 0.7255(2) 0.9243(4) 0.62289(12)
C34_2 C 0.6952(2) 0.6339(4) 0.66790(11)
H28_2 H 0.6797 0.7036 0.6757
C35_2 C 0.6735(2) 0.5219(5) 0.67098(12)
H29_2 H 0.6413 0.5011 0.6814
C36_2 C 0.7494(2) 0.5144(4) 0.64438(11)
H30_2 H 0.7786 0.4849 0.6328
C37_2 C 0.7028(2) 0.3162(3) 0.65158(10)
H31_2 H 0.6663 0.2988 0.6402
H32_2 H 0.7322 0.2886 0.6383
C38_2 C 0.7076(3) 0.2474(4) 0.68318(11)
C39_2 C 0.7615(3) 0.2175(4) 0.69727(11)
C40_2 C 0.7653(3) 0.1447(4) 0.72460(11)
C41_2 C 0.7168(3) 0.1045(4) 0.73800(11)
C42_2 C 0.6641(3) 0.1392(4) 0.72467(11)
C43_2 C 0.6575(3) 0.2107(4) 0.69658(11)
C44_2 C 0.5978(2) 0.2432(4) 0.68208(11)
H33_2 H 0.5997 0.2672 0.6600
H34_2 H 0.5733 0.1752 0.6830
H35_2 H 0.5831 0.3077 0.6941
C45_2 C 0.8133(3) 0.2573(4) 0.68146(13)
H36_2 H 0.8467 0.2258 0.6932
H37_2 H 0.8113 0.2287 0.6596
H38_2 H 0.8151 0.3429 0.6815
C46_2 C 0.7192(3) 0.0170(5) 0.76555(12)
H41_2 H 0.7195 0.0595 0.7856
C47_2 C 0.8221(2) 0.0988(4) 0.73774(11)
H42_2 H 0.8222 0.0875 0.7609
H43_2 H 0.8514 0.1566 0.7337
C51_2 C 0.6112(2) 0.0994(4) 0.74013(12)
H47_2 H 0.5800 0.1528 0.7336
H48_2 H 0.6180 0.1039 0.7634
Co1 Co 0.80033(3) 0.75616(5) 0.645980(15)
N1_2 N 0.74332(17) 0.6274(3) 0.65155(9)
N2_2 N 0.70832(19) 0.4461(3) 0.65570(9)
O8_2 O 0.70238(18) 0.8897(3) 0.64662(9)
O9_2 O 0.77245(16) 0.8805(3) 0.61453(8)
C87_2 C 0.2745(2) 0.9243(4) 0.87711(12)
C88_2 C 0.3048(2) 0.6339(4) 0.83210(11)
H79_2 H 0.3203 0.7036 0.8243
C89_2 C 0.3265(2) 0.5219(5) 0.82902(12)
H80_2 H 0.3587 0.5011 0.8186
C90_2 C 0.2506(2) 0.5144(4) 0.85562(11)
H81_2 H 0.2214 0.4849 0.8672
C91_2 C 0.2972(2) 0.3162(3) 0.84842(10)
H82_2 H 0.3337 0.2988 0.8598
H83_2 H 0.2678 0.2886 0.8617
C92_2 C 0.2924(3) 0.2474(4) 0.81682(11)
C93_2 C 0.2385(3) 0.2175(4) 0.80273(11)
C94_2 C 0.2347(3) 0.1447(4) 0.77540(11)
C95_2 C 0.2832(3) 0.1045(4) 0.76200(11)
C96_2 C 0.3359(3) 0.1392(4) 0.77533(11)
C97_2 C 0.3425(3) 0.2107(4) 0.80342(11)
C98_2 C 0.4022(2) 0.2432(4) 0.81792(11)
H84_2 H 0.4003 0.2672 0.8400
H85_2 H 0.4267 0.1752 0.8170
H86_2 H 0.4169 0.3077 0.8059
C99_2 C 0.1867(3) 0.2573(4) 0.81854(13)
H87_2 H 0.1533 0.2258 0.8068
H88_2 H 0.1887 0.2287 0.8404
H89_2 H 0.1849 0.3429 0.8185
C100_2 C 0.2808(3) 0.0170(5) 0.73445(12)
H92_2 H 0.2805 0.0595 0.7144
C101_2 C 0.1779(2) 0.0988(4) 0.76226(11)
H93_2 H 0.1778 0.0875 0.7391
H94_2 H 0.1486 0.1566 0.7663
C105_2 C 0.3888(2) 0.0994(4) 0.75987(12)
H98_2 H 0.4200 0.1528 0.7664
H99_2 H 0.3820 0.1039 0.7366
Co3 Co 0.19967(3) 0.75616(5) 0.854020(15)
N7_2 N 0.25668(17) 0.6274(3) 0.84845(9)
N8_2 N 0.29168(19) 0.4461(3) 0.84430(9)
N10 N 0.82723(18) 0.8378(3) 0.68724(9)
N11 N 0.17277(18) 0.8378(3) 0.81276(9)
O17_2 O 0.86353(17) 0.6757(3) 0.62694(10)
O18_2 O 0.13647(17) 0.6757(3) 0.87306(10)
O21_2 O 0.29762(18) 0.8897(3) 0.85338(9)
O22_2 O 0.22755(16) 0.8805(3) 0.88547(8)
H39_2 H 0.6865 0.9656 0.7633
H40_2 H 0.7532 0.9698 0.7653
C48_2 C 0.8813(2) 0.9156(4) 0.72820(12)
H44_2 H 0.9110 0.9275 0.7440
C49_2 C 0.8762(2) 0.8258(4) 0.70646(12)
H45_2 H 0.9025 0.7646 0.7049
C50_2 C 0.8035(2) 0.9343(4) 0.69758(11)
H46_2 H 0.7689 0.9645 0.6888
C52_2 C 0.6026(3) 0.9170(5) 0.70210(12)
H49_2 H 0.6212 0.9457 0.6847
C53_2 C 0.5778(2) 0.8109(4) 0.70442(12)
H50_2 H 0.5763 0.7524 0.6885
C54_2 C 0.5663(2) 0.9004(4) 0.74866(12)
H51_2 H 0.5559 0.9179 0.7693
N4_2 N 0.83447(19) 0.9847(3) 0.72222(9)
N5_2 N 0.59511(18) 0.9756(3) 0.73073(9)
N6_2 N 0.55463(16) 0.7999(3) 0.73368(8)
H90_2 H 0.3135 0.9656 0.7367
H91_2 H 0.2468 0.9698 0.7347
C102_2 C 0.1187(2) 0.9156(4) 0.77180(12)
H95_2 H 0.0890 0.9275 0.7560
C103_2 C 0.1238(2) 0.8258(4) 0.79354(12)
H96_2 H 0.0975 0.7646 0.7951
C104_2 C 0.1965(2) 0.9343(4) 0.80242(11)
H97_2 H 0.2311 0.9645 0.8112
C106_2 C 0.3974(3) 0.9170(5) 0.79790(12)
H100_2 H 0.3788 0.9457 0.8153
C107_2 C 0.4222(2) 0.8109(4) 0.79558(12)
H101_2 H 0.4237 0.7524 0.8115
C108_2 C 0.4337(2) 0.9004(4) 0.75134(12)
H102_2 H 0.4441 0.9179 0.7307
N12_2 N 0.16553(19) 0.9847(3) 0.77778(9)
N13_2 N 0.40489(18) 0.9756(3) 0.76927(9)
N14_2 N 0.44537(16) 0.7999(3) 0.76632(8)
C4_4 C 0.0906(2) 0.0271(4) 0.38144(11)
H2_4 H 0.1285 0.0329 0.3895
C5_4 C 0.0480(2) 0.0580(4) 0.40042(10)
C8_4 C 0.0248(2) 0.0807(5) 0.45502(10)
H6_4 H 0.0074 0.0023 0.4529
C9_4 C 0.0574(2) 0.0935(4) 0.48783(10)
C10_4 C 0.0938(2) 0.0012(4) 0.49873(11)
C11_4 C 0.1219(2) 0.0101(4) 0.52928(11)
C12_4 C 0.1139(2) 0.1093(5) 0.54896(10)
C13_4 C 0.0793(2) 0.2023(4) 0.53760(11)
C14_4 C 0.0511(2) 0.1950(4) 0.50679(11)
C17_4 C 0.1422(3) 0.1149(6) 0.58309(12)
H12_4 H 0.1224 0.1713 0.5955
H13_4 H 0.1410 0.0375 0.5929
H14_4 H 0.1811 0.1395 0.5824
C18_4 C 0.0691(3) 0.3087(5) 0.55853(12)
H15_4 H 0.0577 0.3772 0.5453
H16_4 H 0.1035 0.3289 0.5718
C19_4 C 0.0121(3) 0.2984(5) 0.49442(15)
H17_4 H 0.0011 0.3443 0.5124
H18_4 H 0.0321 0.3486 0.4804
H23_2 H 0.0046 0.5040 0.5655
O3_4 O 0.06516(15) 0.0964(3) 0.43119(7)
O4_4 O 0.02580(14) 0.2766(3) 0.57786(9)
C74_4 C 0.0026(3) 0.3619(5) 0.90565(13)
C75_4 C 0.0254(3) 0.3256(5) 0.87822(14)
H71_4 H 0.0192 0.2480 0.8708
C76_4 C 0.0573(3) 0.4017(5) 0.86137(14)
H72_4 H 0.0712 0.3759 0.8422
C77_2 C 0.0695(3) 0.5154(4) 0.87206(13)
C78_2 C 0.0465(3) 0.5514(5) 0.89941(14)
H73_2 H 0.0540 0.6282 0.9071
C79_4 C 0.0119(3) 0.4764(5) 0.91624(14)
C80_2 C 0.1113(3) 0.5924(5) 0.85546(17)
O19_2 O 0.1200(2) 0.5701(3) 0.82695(11)
C6_4 C 0.9915(3) 0.0465(5) 0.38883(11)
H3_4 H 0.9626 0.0644 0.4020
C7_4 C 0.9784(2) 0.0079(5) 0.35739(11)
H4_4 H 0.9405 0.0010 0.3495
H5_4 H 0.9951 0.1405 0.4523
H19_4 H 0.9787 0.2665 0.4827
C20_4 C 0.9974(3) 0.3619(5) 0.59435(13)
C21_4 C 0.9746(3) 0.3256(5) 0.62178(14)
H20_4 H 0.9808 0.2480 0.6292
C22_4 C 0.9427(3) 0.4017(5) 0.63863(14)
H21_4 H 0.9288 0.3759 0.6578
C23_2 C 0.9305(3) 0.5154(4) 0.62794(13)
C24_2 C 0.9535(3) 0.5514(5) 0.60059(14)
H22_2 H 0.9460 0.6282 0.5929
C25_4 C 0.9881(3) 0.4764(5) 0.58376(14)
C26_2 C 0.8887(3) 0.5924(5) 0.64454(17)
O6_2 O 0.8800(2) 0.5701(3) 0.67305(11)
C65_4 C 0.8781(2) 0.0101(4) 0.97072(11)
C66_4 C 0.8861(2) 0.1093(5) 0.95104(10)
C67_4 C 0.9207(2) 0.2023(4) 0.96240(11)
C68_4 C 0.9489(2) 0.1950(4) 0.99321(11)
C71_4 C 0.8578(3) 0.1149(6) 0.91691(12)
H63_4 H 0.8776 0.1713 0.9045
H64_4 H 0.8590 0.0375 0.9071
H65_4 H 0.8189 0.1395 0.9176
C72_4 C 0.9309(3) 0.3087(5) 0.94147(12)
H66_4 H 0.9423 0.3772 0.9547
H67_4 H 0.8965 0.3289 0.9282
H68_4 H 0.9989 0.3443 0.9876
H74_2 H 0.9954 0.5040 0.9345
O15_4 O 0.97420(14) 0.2766(3) 0.92214(9)
C23_3 C 0.5695(3) 0.9846(4) 0.37206(13)
C24_3 C 0.5465(3) 0.9486(5) 0.39941(14)
H22_3 H 0.5540 0.8718 0.4071
H23_3 H 0.4954 0.9960 0.4345
C26_3 C 0.6113(3) 0.9076(5) 0.35546(17)
O5 O 0.63647(17) 0.8243(3) 0.37306(10)
O6_3 O 0.6200(2) 0.9299(3) 0.32695(11)
C77_3 C 0.4305(3) 0.9846(4) 0.12794(13)
C78_3 C 0.4535(3) 0.9486(5) 0.10059(14)
H73_3 H 0.4460 0.8718 0.0929
H74_3 H 0.5046 0.9960 0.0655
C80_3 C 0.3887(3) 0.9076(5) 0.14454(17)
Co6 Co 0.69967(3) 0.74384(5) 0.354020(15)
Co7 Co 0.30033(3) 0.74384(5) 0.145980(15)
O16 O 0.36353(17) 0.8243(3) 0.12694(10)
O19_3 O 0.3800(2) 0.9299(3) 0.17305(11)
Co2_2 Co 0.0000 0.82401(7) 0.2500
H81_3 H 0.2786 0.0151 0.1328
C91_3 C 0.2028(2) 0.1838(3) 0.15158(10)
H82_3 H 0.1663 0.2012 0.1402
H83_3 H 0.2322 0.2114 0.1383
C92_3 C 0.2076(3) 0.2526(4) 0.18318(11)
C93_3 C 0.2615(3) 0.2825(4) 0.19727(11)
C94_3 C 0.2653(3) 0.3553(4) 0.22460(11)
C95_3 C 0.2168(3) 0.3955(4) 0.23800(11)
C96_3 C 0.1641(3) 0.3608(4) 0.22467(11)
C97_3 C 0.1575(3) 0.2893(4) 0.19658(11)
C98_3 C 0.0978(2) 0.2568(4) 0.18208(11)
H84_3 H 0.0997 0.2328 0.1600
H85_3 H 0.0733 0.3248 0.1830
H86_3 H 0.0831 0.1923 0.1941
C99_3 C 0.3133(3) 0.2427(4) 0.18146(13)
H87_3 H 0.3467 0.2742 0.1932
H88_3 H 0.3113 0.2713 0.1596
H89_3 H 0.3151 0.1571 0.1815
C100_3 C 0.2192(3) 0.4830(5) 0.26555(12)
H90_3 H 0.1865 0.5344 0.2633
H91_3 H 0.2532 0.5302 0.2653
H92_3 H 0.2195 0.4405 0.2856
C101_3 C 0.3221(2) 0.4012(4) 0.23774(11)
H93_3 H 0.3222 0.4125 0.2609
H94_3 H 0.3514 0.3434 0.2337
C102_3 C 0.3813(2) 0.5844(4) 0.22820(12)
H95_3 H 0.4110 0.5725 0.2440
C103_3 C 0.3762(2) 0.6742(4) 0.20646(12)
H96_3 H 0.4025 0.7354 0.2049
C104_3 C 0.3035(2) 0.5657(4) 0.19758(11)
H97_3 H 0.2689 0.5355 0.1888
C105_3 C 0.1112(2) 0.4006(4) 0.24013(12)
H98_3 H 0.0800 0.3472 0.2336
H99_3 H 0.1180 0.3961 0.2634
C106_3 C 0.1026(3) 0.5830(5) 0.20210(12)
H100_3 H 0.1212 0.5543 0.1847
C107_3 C 0.0778(2) 0.6891(4) 0.20442(12)
H101_3 H 0.0763 0.7476 0.1885
C108_3 C 0.0663(2) 0.5996(4) 0.24866(12)
H102_3 H 0.0559 0.5821 0.2693
N8_3 N 0.20832(19) 0.0539(3) 0.15570(9)
N9_2 N 0.32723(18) 0.6622(3) 0.18724(9)
N12_3 N 0.33447(19) 0.5153(3) 0.22222(9)
N13_3 N 0.09511(18) 0.5244(3) 0.23073(9)
N14_3 N 0.05463(16) 0.7001(3) 0.23368(8)
O11_2 O 0.04292(16) 0.8730(3) 0.29121(7)
O2_3 O 0.04042(19) 0.0393(3) 0.71043(8)
C70_3 C 0.1602(3) 0.0902(5) 0.04111(14)
H61_3 H 0.1901 0.0604 0.0564
H62_3 H 0.1777 0.1265 0.0231
C81_3 C 0.1529(2) 0.2741(5) 0.07045(12)
C82_3 C 0.2087(3) 0.3047(5) 0.06777(13)
H75_3 H 0.2311 0.2585 0.0551
C83_3 C 0.2321(2) 0.4049(4) 0.08388(12)
H76_3 H 0.2697 0.4259 0.0813
C84_3 C 0.2006(2) 0.4727(4) 0.10333(11)
C85_3 C 0.1440(2) 0.4409(4) 0.10543(11)
H77_3 H 0.1215 0.4861 0.1183
C86_3 C 0.1205(2) 0.3440(4) 0.08893(12)
H78_3 H 0.0822 0.3259 0.0903
C87_3 C 0.2255(2) 0.5757(4) 0.12289(12)
C88_3 C 0.1952(2) 0.8661(4) 0.16790(11)
H79_3 H 0.1797 0.7964 0.1757
C89_3 C 0.1735(2) 0.9781(5) 0.17098(12)
H80_3 H 0.1413 0.9989 0.1814
C90_3 C 0.2494(2) 0.9856(4) 0.14438(11)
Co9_2 Co -0.0000 0.17599(7) 0.7500
N7_3 N 0.24332(17) 0.8726(3) 0.15155(9)
O20_3 O 0.12655(16) 0.1763(3) 0.05635(8)
O21_3 O 0.20238(18) 0.6103(3) 0.14662(9)
O22_3 O 0.27245(16) 0.6195(3) 0.11453(8)
C55_3 C 0.0062(3) 0.0627(4) 0.80369(11)
C56_3 C 0.0209(2) 0.0202(4) 0.83772(10)
C57_3 C 0.0771(2) 0.0128(4) 0.85042(11)
H52_3 H 0.1061 0.0352 0.8377
C69_3 C 0.1019(3) 0.1071(5) 0.97734(13)
H58_3 H 0.1099 0.1761 0.9906
H59_3 H 0.0678 0.1206 0.9636
H60_3 H 0.1331 0.0929 0.9643
O10_2 O 0.04292(16) 0.1270(3) 0.79121(7)
H30_3 H 0.7214 0.0151 0.3672
C37_3 C 0.7972(2) 0.1838(3) 0.34842(10)
H31_3 H 0.8337 0.2012 0.3598
H32_3 H 0.7678 0.2114 0.3617
C38_3 C 0.7924(3) 0.2526(4) 0.31682(11)
C39_3 C 0.7385(3) 0.2825(4) 0.30273(11)
C40_3 C 0.7347(3) 0.3553(4) 0.27540(11)
C41_3 C 0.7832(3) 0.3955(4) 0.26200(11)
C42_3 C 0.8359(3) 0.3608(4) 0.27533(11)
C43_3 C 0.8425(3) 0.2893(4) 0.30342(11)
C44_3 C 0.9022(2) 0.2568(4) 0.31792(11)
H33_3 H 0.9003 0.2328 0.3400
H34_3 H 0.9267 0.3248 0.3170
H35_3 H 0.9169 0.1923 0.3059
C45_3 C 0.6867(3) 0.2427(4) 0.31854(13)
H36_3 H 0.6533 0.2742 0.3068
H37_3 H 0.6887 0.2713 0.3404
H38_3 H 0.6849 0.1571 0.3185
C46_3 C 0.7808(3) 0.4830(5) 0.23445(12)
H39_3 H 0.8135 0.5344 0.2367
H40_3 H 0.7468 0.5302 0.2347
H41_3 H 0.7805 0.4405 0.2144
C47_3 C 0.6779(2) 0.4012(4) 0.26226(11)
H42_3 H 0.6778 0.4125 0.2391
H43_3 H 0.6486 0.3434 0.2663
C48_3 C 0.6187(2) 0.5844(4) 0.27180(12)
H44_3 H 0.5890 0.5725 0.2560
C49_3 C 0.6238(2) 0.6742(4) 0.29354(12)
H45_3 H 0.5975 0.7354 0.2951
C50_3 C 0.6965(2) 0.5657(4) 0.30242(11)
H46_3 H 0.7311 0.5355 0.3112
C51_3 C 0.8888(2) 0.4006(4) 0.25987(12)
H47_3 H 0.9200 0.3472 0.2664
H48_3 H 0.8820 0.3961 0.2366
C52_3 C 0.8974(3) 0.5830(5) 0.29790(12)
H49_3 H 0.8788 0.5543 0.3153
C53_3 C 0.9222(2) 0.6891(4) 0.29558(12)
H50_3 H 0.9237 0.7476 0.3115
C54_3 C 0.9337(2) 0.5996(4) 0.25134(12)
H51_3 H 0.9441 0.5821 0.2307
Co2_3 Co 1.0000 0.82401(7) 0.2500
N2_3 N 0.79168(19) 0.0539(3) 0.34430(9)
N3_2 N 0.67277(18) 0.6622(3) 0.31276(9)
N4_3 N 0.66553(19) 0.5153(3) 0.27778(9)
N5_3 N 0.90489(18) 0.5244(3) 0.26927(9)
N6_3 N 0.94537(16) 0.7001(3) 0.26632(8)
O12_2 O 0.95708(16) 0.8730(3) 0.20879(7)
C1_3 C 0.9938(3) 0.0627(4) 0.69631(11)
C2_3 C 0.9791(2) 0.0202(4) 0.66228(10)
C3_3 C 0.9229(2) 0.0128(4) 0.64958(11)
H1_3 H 0.8939 0.0352 0.6623
C15_3 C 0.8981(3) 0.1071(5) 0.52266(13)
H7_3 H 0.8901 0.1761 0.5094
H8_3 H 0.9322 0.1206 0.5364
H9_3 H 0.8669 0.0929 0.5357
C16_3 C 0.8398(3) 0.0902(5) 0.45889(14)
H10_3 H 0.8099 0.0604 0.4436
H11_3 H 0.8223 0.1265 0.4769
C27_3 C 0.8471(2) 0.2741(5) 0.42955(12)
C28_3 C 0.7913(3) 0.3047(5) 0.43223(13)
H24_3 H 0.7689 0.2585 0.4449
C29_3 C 0.7679(2) 0.4049(4) 0.41612(12)
H25_3 H 0.7303 0.4259 0.4187
C30_3 C 0.7994(2) 0.4727(4) 0.39667(11)
C31_3 C 0.8560(2) 0.4409(4) 0.39457(11)
H26_3 H 0.8785 0.4861 0.3817
C32_3 C 0.8795(2) 0.3440(4) 0.41107(12)
H27_3 H 0.9178 0.3259 0.4097
C33_3 C 0.7745(2) 0.5757(4) 0.37711(12)
C34_3 C 0.8048(2) 0.8661(4) 0.33210(11)
H28_3 H 0.8203 0.7964 0.3243
C35_3 C 0.8265(2) 0.9781(5) 0.32902(12)
H29_3 H 0.8587 0.9989 0.3186
C36_3 C 0.7506(2) 0.9856(4) 0.35562(11)
N1_3 N 0.75668(17) 0.8726(3) 0.34845(9)
O1_2 O 0.95708(16) 0.1270(3) 0.70879(7)
O7_3 O 0.87345(16) 0.1763(3) 0.44365(8)
O8_3 O 0.79762(18) 0.6103(3) 0.35338(9)
O9_3 O 0.72755(16) 0.6195(3) 0.38547(8)
Co9_3 Co 1.0000 0.17599(7) 0.7500
O13_3 O 0.95958(19) 0.0393(3) 0.78957(8)
C23_4 C 0.4305(3) 0.0154(4) 0.62794(13)
C24_4 C 0.4535(3) 0.0514(5) 0.60059(14)
H22_4 H 0.4460 0.1282 0.5929
H23_4 H 0.5046 0.0040 0.5655
C26_4 C 0.3887(3) 0.0924(5) 0.64454(17)
O5_2 O 0.36353(17) 0.1757(3) 0.62694(10)
O6_4 O 0.3800(2) 0.0701(3) 0.67305(11)
C77_4 C 0.5695(3) 0.0154(4) 0.87206(13)
C78_4 C 0.5465(3) 0.0514(5) 0.89941(14)
H73_4 H 0.5540 0.1282 0.9071
H74_4 H 0.4954 0.0040 0.9345
C80_4 C 0.6113(3) 0.0924(5) 0.85546(17)
Co6_2 Co 0.30033(3) 0.25616(5) 0.645980(15)
Co7_2 Co 0.69967(3) 0.25616(5) 0.854020(15)
O16_2 O 0.63647(17) 0.1757(3) 0.87306(10)
O19_4 O 0.6200(2) 0.0701(3) 0.82695(11)
O13_4 O 0.04042(19) 0.9607(3) 0.21043(8)
C1_4 C 0.0062(3) 0.9373(4) 0.30369(11)
C2_4 C 0.0209(2) 0.9798(4) 0.33772(10)
C3_4 C 0.0771(2) 0.9872(4) 0.35042(11)
H1_4 H 0.1061 0.9648 0.3377
C15_4 C 0.1019(3) 0.8929(5) 0.47734(13)
H7_4 H 0.1099 0.8239 0.4906
H8_4 H 0.0678 0.8794 0.4636
H9_4 H 0.1331 0.9071 0.4643
C16_4 C 0.1602(3) 0.9098(5) 0.54111(14)
H10_4 H 0.1901 0.9396 0.5564
H11_4 H 0.1777 0.8735 0.5231
C27_4 C 0.1529(2) 0.7259(5) 0.57045(12)
C28_4 C 0.2087(3) 0.6953(5) 0.56777(13)
H24_4 H 0.2311 0.7415 0.5551
C29_4 C 0.2321(2) 0.5951(4) 0.58388(12)
H25_4 H 0.2697 0.5741 0.5813
C30_4 C 0.2006(2) 0.5273(4) 0.60333(11)
C31_4 C 0.1440(2) 0.5591(4) 0.60543(11)
H26_4 H 0.1215 0.5139 0.6183
C32_4 C 0.1205(2) 0.6560(4) 0.58893(12)
H27_4 H 0.0822 0.6741 0.5903
C33_4 C 0.2255(2) 0.4243(4) 0.62289(12)
C34_4 C 0.1952(2) 0.1339(4) 0.66790(11)
H28_4 H 0.1797 0.2036 0.6757
C35_4 C 0.1735(2) 0.0219(5) 0.67098(12)
H29_4 H 0.1413 0.0011 0.6814
C36_4 C 0.2494(2) 0.0144(4) 0.64438(11)
N1_4 N 0.24332(17) 0.1274(3) 0.65155(9)
O7_4 O 0.12655(16) 0.8237(3) 0.55635(8)
O8_4 O 0.20238(18) 0.3897(3) 0.64662(9)
O9_4 O 0.27245(16) 0.3805(3) 0.61453(8)
N10_2 N 0.32723(18) 0.3378(3) 0.68724(9)
H30_4 H 0.2786 0.9849 0.6328
C37_4 C 0.2028(2) 0.8162(3) 0.65158(10)
H31_4 H 0.1663 0.7988 0.6402
H32_4 H 0.2322 0.7886 0.6383
C38_4 C 0.2076(3) 0.7474(4) 0.68318(11)
C39_4 C 0.2615(3) 0.7175(4) 0.69727(11)
C40_4 C 0.2653(3) 0.6447(4) 0.72460(11)
C41_4 C 0.2168(3) 0.6045(4) 0.73800(11)
C42_4 C 0.1641(3) 0.6392(4) 0.72467(11)
C43_4 C 0.1575(3) 0.7107(4) 0.69658(11)
C44_4 C 0.0978(2) 0.7432(4) 0.68208(11)
H33_4 H 0.0997 0.7672 0.6600
H34_4 H 0.0733 0.6752 0.6830
H35_4 H 0.0831 0.8077 0.6941
C45_4 C 0.3133(3) 0.7573(4) 0.68146(13)
H36_4 H 0.3467 0.7258 0.6932
H37_4 H 0.3113 0.7287 0.6596
H38_4 H 0.3151 0.8429 0.6815
C46_4 C 0.2192(3) 0.5170(5) 0.76555(12)
H39_4 H 0.1865 0.4656 0.7633
H40_4 H 0.2532 0.4698 0.7653
H41_4 H 0.2195 0.5595 0.7856
C47_4 C 0.3221(2) 0.5988(4) 0.73774(11)
H42_4 H 0.3222 0.5875 0.7609
H43_4 H 0.3514 0.6566 0.7337
C48_4 C 0.3813(2) 0.4156(4) 0.72820(12)
H44_4 H 0.4110 0.4275 0.7440
C49_4 C 0.3762(2) 0.3258(4) 0.70646(12)
H45_4 H 0.4025 0.2646 0.7049
C50_4 C 0.3035(2) 0.4343(4) 0.69758(11)
H46_4 H 0.2689 0.4645 0.6888
C51_4 C 0.1112(2) 0.5994(4) 0.74013(12)
H47_4 H 0.0800 0.6528 0.7336
H48_4 H 0.1180 0.6039 0.7634
C52_4 C 0.1026(3) 0.4170(5) 0.70210(12)
H49_4 H 0.1212 0.4457 0.6847
C53_4 C 0.0778(2) 0.3109(4) 0.70442(12)
H50_4 H 0.0763 0.2524 0.6885
C54_4 C 0.0663(2) 0.4004(4) 0.74866(12)
H51_4 H 0.0559 0.4179 0.7693
N2_4 N 0.20832(19) 0.9461(3) 0.65570(9)
N4_4 N 0.33447(19) 0.4847(3) 0.72222(9)
N5_4 N 0.09511(18) 0.4756(3) 0.73073(9)
N6_4 N 0.05463(16) 0.2999(3) 0.73368(8)
C55_4 C 0.9938(3) 0.9373(4) 0.19631(11)
C56_4 C 0.9791(2) 0.9798(4) 0.16228(10)
C57_4 C 0.9229(2) 0.9872(4) 0.14958(11)
H52_4 H 0.8939 0.9648 0.1623
C69_4 C 0.8981(3) 0.8929(5) 0.02266(13)
H58_4 H 0.8901 0.8239 0.0094
H59_4 H 0.9322 0.8794 0.0364
H60_4 H 0.8669 0.9071 0.0357
O2_4 O 0.95958(19) 0.9607(3) 0.28957(8)
C70_4 C 0.8398(3) 0.9098(5) 0.95889(14)
H61_4 H 0.8099 0.9396 0.9436
H62_4 H 0.8223 0.8735 0.9769
C81_4 C 0.8471(2) 0.7259(5) 0.92955(12)
C82_4 C 0.7913(3) 0.6953(5) 0.93223(13)
H75_4 H 0.7689 0.7415 0.9449
C83_4 C 0.7679(2) 0.5951(4) 0.91612(12)
H76_4 H 0.7303 0.5741 0.9187
C84_4 C 0.7994(2) 0.5273(4) 0.89667(11)
C85_4 C 0.8560(2) 0.5591(4) 0.89457(11)
H77_4 H 0.8785 0.5139 0.8817
C86_4 C 0.8795(2) 0.6560(4) 0.91107(12)
H78_4 H 0.9178 0.6741 0.9097
C87_4 C 0.7745(2) 0.4243(4) 0.87711(12)
C88_4 C 0.8048(2) 0.1339(4) 0.83210(11)
H79_4 H 0.8203 0.2036 0.8243
C89_4 C 0.8265(2) 0.0219(5) 0.82902(12)
H80_4 H 0.8587 0.0011 0.8186
C90_4 C 0.7506(2) 0.0144(4) 0.85562(11)
N7_4 N 0.75668(17) 0.1274(3) 0.84845(9)
N11_2 N 0.67277(18) 0.3378(3) 0.81276(9)
O20_4 O 0.87345(16) 0.8237(3) 0.94365(8)
O21_4 O 0.79762(18) 0.3897(3) 0.85338(9)
O22_4 O 0.72755(16) 0.3805(3) 0.88547(8)
H81_4 H 0.7214 0.9849 0.8672
C91_4 C 0.7972(2) 0.8162(3) 0.84842(10)
H82_4 H 0.8337 0.7988 0.8598
H83_4 H 0.7678 0.7886 0.8617
C92_4 C 0.7924(3) 0.7474(4) 0.81682(11)
C93_4 C 0.7385(3) 0.7175(4) 0.80273(11)
C94_4 C 0.7347(3) 0.6447(4) 0.77540(11)
C95_4 C 0.7832(3) 0.6045(4) 0.76200(11)
C96_4 C 0.8359(3) 0.6392(4) 0.77533(11)
C97_4 C 0.8425(3) 0.7107(4) 0.80342(11)
C98_4 C 0.9022(2) 0.7432(4) 0.81792(11)
H84_4 H 0.9003 0.7672 0.8400
H85_4 H 0.9267 0.6752 0.8170
H86_4 H 0.9169 0.8077 0.8059
C99_4 C 0.6867(3) 0.7573(4) 0.81854(13)
H87_4 H 0.6533 0.7258 0.8068
H88_4 H 0.6887 0.7287 0.8404
H89_4 H 0.6849 0.8429 0.8185
C100_4 C 0.7808(3) 0.5170(5) 0.73445(12)
H90_4 H 0.8135 0.4656 0.7367
H91_4 H 0.7468 0.4698 0.7347
H92_4 H 0.7805 0.5595 0.7144
C101_4 C 0.6779(2) 0.5988(4) 0.76226(11)
H93_4 H 0.6778 0.5875 0.7391
H94_4 H 0.6486 0.6566 0.7663
C102_4 C 0.6187(2) 0.4156(4) 0.77180(12)
H95_4 H 0.5890 0.4275 0.7560
C103_4 C 0.6238(2) 0.3258(4) 0.79354(12)
H96_4 H 0.5975 0.2646 0.7951
C104_4 C 0.6965(2) 0.4343(4) 0.80242(11)
H97_4 H 0.7311 0.4645 0.8112
C105_4 C 0.8888(2) 0.5994(4) 0.75987(12)
H98_4 H 0.9200 0.6528 0.7664
H99_4 H 0.8820 0.6039 0.7366
C106_4 C 0.8974(3) 0.4170(5) 0.79790(12)
H100_4 H 0.8788 0.4457 0.8153
C107_4 C 0.9222(2) 0.3109(4) 0.79558(12)
H101_4 H 0.9237 0.2524 0.8115
C108_4 C 0.9337(2) 0.4004(4) 0.75134(12)
H102_4 H 0.9441 0.4179 0.7307
N8_4 N 0.79168(19) 0.9461(3) 0.84430(9)
N12_4 N 0.66553(19) 0.4847(3) 0.77778(9)
N13_4 N 0.90489(18) 0.4756(3) 0.76927(9)
N14_4 N 0.94537(16) 0.2999(3) 0.76632(8)
C58_3 C 0.0906(2) 0.9729(4) 0.88144(11)
H53_3 H 0.1285 0.9671 0.8895
C59_3 C 0.0480(2) 0.9420(4) 0.90042(10)
C62_3 C 0.0248(2) 0.9193(5) 0.95502(10)
H57_3 H 0.0074 0.9977 0.9529
C63_3 C 0.0574(2) 0.9065(4) 0.98783(10)
C64_3 C 0.0938(2) 0.9988(4) 0.99873(11)
C73_3 C 0.0121(3) 0.7016(5) 0.99442(15)
H69_3 H 0.0321 0.6514 0.9804
O14_3 O 0.06516(15) 0.9036(3) 0.93119(7)
C60_3 C 0.9915(3) 0.9535(5) 0.88883(11)
H54_3 H 0.9626 0.9356 0.9020
C61_3 C 0.9784(2) 0.9921(5) 0.85739(11)
H55_3 H 0.9405 0.9990 0.8495
H56_3 H 0.9951 0.8595 0.9523
H70_3 H 0.9787 0.7335 0.9827
C60_4 C 0.0085(3) 0.0465(5) 0.11117(11)
H54_4 H 0.0374 0.0644 0.0980
C61_4 C 0.0216(2) 0.0079(5) 0.14261(11)
H55_4 H 0.0595 0.0010 0.1505
H56_4 H 0.0049 0.1405 0.0477
H70_4 H 0.0213 0.2665 0.0173
C58_4 C 0.9094(2) 0.0271(4) 0.11856(11)
H53_4 H 0.8715 0.0329 0.1105
C59_4 C 0.9520(2) 0.0580(4) 0.09958(10)
C62_4 C 0.9752(2) 0.0807(5) 0.04498(10)
H57_4 H 0.9926 0.0023 0.0471
C63_4 C 0.9426(2) 0.0935(4) 0.01217(10)
C64_4 C 0.9062(2) 0.0012(4) 0.00127(11)
C73_4 C 0.9879(3) 0.2984(5) 0.00558(15)
H69_4 H 0.9679 0.3486 0.0196
O14_4 O 0.93484(15) 0.0964(3) 0.06881(7)
loop_
_geom_bond_atom_site_label_1
_geom_bond_atom_site_label_2
_geom_bond_site_symmetry_1
_geom_bond_site_symmetry_2
C48 H44 1_555 1_555
C49 C48 1_555 1_555
H45 C49 1_555 1_555
C50 H46 1_555 1_555
C52 H49 1_555 1_555
C53 C52 1_555 1_555
H50 C53 1_555 1_555
C54 H51 1_555 1_555
Co2 N6 1_555 1_555
N3 C49 1_555 1_555
N6 C53 1_555 1_555
C102 H95 1_555 1_555
C103 C102 1_555 1_555
H96 C103 1_555 1_555
C104 H97 1_555 1_555
C106 H100 1_555 1_555
C107 C106 1_555 1_555
H101 C107 1_555 1_555
C108 H102 1_555 1_555
Co4 N3 1_555 1_555
Co5 N9 1_555 1_555
N9 C103 1_555 1_555
N14 Co2 1_555 1_555
O11 Co2 1_555 1_555
O12 Co2 1_555 1_555
C48 N4 1_555 1_555
C50 N3 1_555 1_555
C50 N4 1_555 1_555
C52 N5 1_555 1_555
C54 N5 1_555 1_555
C54 N6 1_555 1_555
C102 N12 1_555 1_555
C104 N9 1_555 1_555
C104 N12 1_555 1_555
C106 N13 1_555 1_555
C107 N14 1_555 1_555
C108 N13 1_555 1_555
C108 N14 1_555 1_555
C34 H28 1_555 1_555
C35 C34 1_555 1_555
H29 C35 1_555 1_555
C36 H30 1_555 1_555
C37 H31 1_555 1_555
H32 C37 1_555 1_555
C38 C37 1_555 1_555
C39 C38 1_555 1_555
C40 C39 1_555 1_555
C41 C40 1_555 1_555
C42 C41 1_555 1_555
C43 C38 1_555 1_555
C44 C43 1_555 1_555
H33 C44 1_555 1_555
H34 C44 1_555 1_555
H35 C44 1_555 1_555
C45 C39 1_555 1_555
H36 C45 1_555 1_555
H37 C45 1_555 1_555
H38 C45 1_555 1_555
C46 C41 1_555 1_555
H41 C46 1_555 1_555
C47 C40 1_555 1_555
H42 C47 1_555 1_555
H43 C47 1_555 1_555
C51 C42 1_555 1_555
H47 C51 1_555 1_555
H48 C51 1_555 1_555
Co4 N1 1_555 1_555
N1 C34 1_555 1_555
N2 C35 1_555 1_555
O8 C33 1_555 1_555
O9 C33 1_555 1_555
C88 H79 1_555 1_555
C89 C88 1_555 1_555
H80 C89 1_555 1_555
C90 H81 1_555 1_555
C91 H82 1_555 1_555
H83 C91 1_555 1_555
C92 C91 1_555 1_555
C93 C92 1_555 1_555
C94 C93 1_555 1_555
C95 C94 1_555 1_555
C96 C95 1_555 1_555
C97 C92 1_555 1_555
C98 C97 1_555 1_555
H84 C98 1_555 1_555
H85 C98 1_555 1_555
H86 C98 1_555 1_555
C99 C93 1_555 1_555
H87 C99 1_555 1_555
H88 C99 1_555 1_555
H89 C99 1_555 1_555
C100 C95 1_555 1_555
H92 C100 1_555 1_555
C101 C94 1_555 1_555
H93 C101 1_555 1_555
H94 C101 1_555 1_555
C105 C96 1_555 1_555
H98 C105 1_555 1_555
H99 C105 1_555 1_555
Co5 N7 1_555 1_555
N7 C88 1_555 1_555
N8 C89 1_555 1_555
O17 Co4 1_555 1_555
O18 Co5 1_555 1_555
O21 C87 1_555 1_555
O22 C87 1_555 1_555
C36 N1 1_555 1_555
C36 N2 1_555 1_555
C37 N2 1_555 1_555
C42 C43 1_555 1_555
Co4 O9 1_555 1_555
C90 N7 1_555 1_555
C90 N8 1_555 1_555
C91 N8 1_555 1_555
C96 C97 1_555 1_555
Co5 O22 1_555 1_555
H3 C6 1_555 1_555
H4 C7 1_555 1_555
C20 C21 1_555 1_555
C21 H20 1_555 1_555
C22 C21 1_555 1_555
H21 C22 1_555 1_555
C23 C22 1_555 1_555
C24 C23 1_555 1_555
H22 C24 1_555 1_555
C25 C20 1_555 1_555
C26 C23 1_555 1_555
O17 C26 1_555 1_555
O6 C26 1_555 1_555
C66 C65 1_555 1_555
C67 C66 1_555 1_555
C71 C66 1_555 1_555
H63 C71 1_555 1_555
H64 C71 1_555 1_555
H65 C71 1_555 1_555
C72 C67 1_555 1_555
H66 C72 1_555 1_555
H67 C72 1_555 1_555
O15 C72 1_555 1_555
C6 C7 1_555 1_555
C24 C25 1_555 1_555
C67 C68 1_555 1_555
H2 C4 1_555 1_555
C5 C4 1_555 1_555
H6 C8 1_555 1_555
C9 C8 1_555 1_555
C10 C9 1_555 1_555
C11 C10 1_555 1_555
C12 C11 1_555 1_555
C13 C12 1_555 1_555
C14 C9 1_555 1_555
C17 C12 1_555 1_555
H12 C17 1_555 1_555
H13 C17 1_555 1_555
H14 C17 1_555 1_555
C18 C13 1_555 1_555
H15 C18 1_555 1_555
H16 C18 1_555 1_555
C19 C14 1_555 1_555
H17 C19 1_555 1_555
H18 C19 1_555 1_555
O3 C5 1_555 1_555
O4 C18 1_555 1_555
C74 C75 1_555 1_555
C75 H71 1_555 1_555
C76 C75 1_555 1_555
H72 C76 1_555 1_555
C77 C76 1_555 1_555
C78 C77 1_555 1_555
H73 C78 1_555 1_555
C79 C74 1_555 1_555
C80 C77 1_555 1_555
O18 C80 1_555 1_555
O19 C80 1_555 1_555
C8 O3 1_555 1_555
C13 C14 1_555 1_555
C78 C79 1_555 1_555
C55 C56 1_555 1_555
C56 C57 1_555 1_555
C57 H52 1_555 1_555
C58 C57 1_555 1_555
H53 C58 1_555 1_555
C59 C58 1_555 1_555
C60 C59 1_555 1_555
H54 C60 1_555 1_555
C61 C56 1_555 1_555
H55 C61 1_555 1_555
C62 H56 1_555 1_555
H57 C62 1_555 1_555
C63 C62 1_555 1_555
C64 C63 1_555 1_555
C69 C64 1_555 1_555
H58 C69 1_555 1_555
H59 C69 1_555 1_555
H60 C69 1_555 1_555
H69 C73 1_555 1_555
H70 C73 1_555 1_555
O12 C55 1_555 1_555
O13 C55 1_555 1_555
O14 C59 1_555 1_555
C60 C61 1_555 1_555
C62 O14 1_555 1_555
C1 C2 1_555 1_555
C2 C3 1_555 1_555
C3 H1 1_555 1_555
C4_2 C3 1_555 1_555
H2_2 C4_2 1_555 1_555
C5_2 C4_2 1_555 1_555
C6_2 C5_2 1_555 1_555
H3_2 C6_2 1_555 1_555
C7_2 C2 1_555 1_555
H4_2 C7_2 1_555 1_555
C8_2 H5_2 1_555 1_555
H6_2 C8_2 1_555 1_555
C9_2 C8_2 1_555 1_555
C10_2 C9_2 1_555 1_555
C11_2 C10_2 1_555 1_555
C12_2 C11_2 1_555 1_555
C13_2 C12_2 1_555 1_555
C14_2 C9_2 1_555 1_555
C15 C10_2 1_555 1_555
H7 C15 1_555 1_555
H8 C15 1_555 1_555
H9 C15 1_555 1_555
C16 C11_2 1_555 1_555
H10 C16 1_555 1_555
H11 C16 1_555 1_555
C17_2 C12_2 1_555 1_555
H12_2 C17_2 1_555 1_555
H13_2 C17_2 1_555 1_555
H14_2 C17_2 1_555 1_555
C18_2 C13_2 1_555 1_555
H15_2 C18_2 1_555 1_555
H16_2 C18_2 1_555 1_555
C19_2 C14_2 1_555 1_555
H17_2 C19_2 1_555 1_555
H18_2 C19_2 1_555 1_555
H19_2 C19_2 1_555 1_555
C20_2 C21_2 1_555 1_555
C21_2 H20_2 1_555 1_555
C22_2 C21_2 1_555 1_555
H21_2 C22_2 1_555 1_555
C25_2 C20_2 1_555 1_555
C27 C28 1_555 1_555
C28 H24 1_555 1_555
C29 C28 1_555 1_555
H25 C29 1_555 1_555
C30 C29 1_555 1_555
C31 C30 1_555 1_555
H26 C31 1_555 1_555
C32 C27 1_555 1_555
H27 C32 1_555 1_555
O11 C1 1_555 1_555
O2 C1 1_555 1_555
O3_2 C5_2 1_555 1_555
O4_2 C18_2 1_555 1_555
O7 C16 1_555 1_555
C66_2 C65_2 1_555 1_555
C67_2 C66_2 1_555 1_555
C70 C65_2 1_555 1_555
H61 C70 1_555 1_555
H62 C70 1_555 1_555
C71_2 C66_2 1_555 1_555
H63_2 C71_2 1_555 1_555
H64_2 C71_2 1_555 1_555
H65_2 C71_2 1_555 1_555
C72_2 C67_2 1_555 1_555
H66_2 C72_2 1_555 1_555
H67_2 C72_2 1_555 1_555
C74_2 C75_2 1_555 1_555
C75_2 H71_2 1_555 1_555
C76_2 C75_2 1_555 1_555
H72_2 C76_2 1_555 1_555
C79_2 C74_2 1_555 1_555
C81 C82 1_555 1_555
C82 H75 1_555 1_555
C83 C82 1_555 1_555
H76 C83 1_555 1_555
C84 C83 1_555 1_555
C85 C84 1_555 1_555
H77 C85 1_555 1_555
C86 C81 1_555 1_555
H78 C86 1_555 1_555
O15_2 C72_2 1_555 1_555
O20 C70 1_555 1_555
C6_2 C7_2 1_555 1_555
C8_2 O3_2 1_555 1_555
C13_2 C14_2 1_555 1_555
C20_2 O4_2 1_555 1_555
C27 O7 1_555 1_555
C31 C32 1_555 1_555
C67_2 C68_2 1_555 1_555
C74_2 O15_2 1_555 1_555
C81 O20 1_555 1_555
C85 C86 1_555 1_555
C1_2 C2_2 1_555 1_555
C2_2 C3_2 1_555 1_555
C3_2 H1_2 1_555 1_555
C4_3 C3_2 1_555 1_555
H2_3 C4_3 1_555 1_555
C5_3 C4_3 1_555 1_555
C6_3 C5_3 1_555 1_555
H3_3 C6_3 1_555 1_555
C7_3 C2_2 1_555 1_555
H4_3 C7_3 1_555 1_555
C8_3 H5_3 1_555 1_555
H6_3 C8_3 1_555 1_555
C9_3 C8_3 1_555 1_555
C10_3 C9_3 1_555 1_555
C11_3 C10_3 1_555 1_555
C12_3 C11_3 1_555 1_555
C13_3 C12_3 1_555 1_555
C14_3 C9_3 1_555 1_555
C15_2 C10_3 1_555 1_555
H7_2 C15_2 1_555 1_555
H8_2 C15_2 1_555 1_555
H9_2 C15_2 1_555 1_555
C16_2 C11_3 1_555 1_555
H10_2 C16_2 1_555 1_555
H11_2 C16_2 1_555 1_555
C17_3 C12_3 1_555 1_555
H12_3 C17_3 1_555 1_555
H13_3 C17_3 1_555 1_555
H14_3 C17_3 1_555 1_555
C18_3 C13_3 1_555 1_555
H15_3 C18_3 1_555 1_555
H16_3 C18_3 1_555 1_555
C19_3 C14_3 1_555 1_555
H17_3 C19_3 1_555 1_555
H18_3 C19_3 1_555 1_555
H19_3 C19_3 1_555 1_555
C20_3 C21_3 1_555 1_555
C21_3 H20_3 1_555 1_555
C22_3 C21_3 1_555 1_555
H21_3 C22_3 1_555 1_555
C25_3 C20_3 1_555 1_555
C27_2 C28_2 1_555 1_555
C28_2 H24_2 1_555 1_555
C29_2 C28_2 1_555 1_555
H25_2 C29_2 1_555 1_555
C30_2 C29_2 1_555 1_555
C31_2 C30_2 1_555 1_555
H26_2 C31_2 1_555 1_555
C32_2 C27_2 1_555 1_555
H27_2 C32_2 1_555 1_555
O1 C1_2 1_555 1_555
O2_2 C1_2 1_555 1_555
O3_3 C5_3 1_555 1_555
O4_3 C18_3 1_555 1_555
O7_2 C16_2 1_555 1_555
C66_3 C65_3 1_555 1_555
C67_3 C66_3 1_555 1_555
C70_2 C65_3 1_555 1_555
H61_2 C70_2 1_555 1_555
H62_2 C70_2 1_555 1_555
C71_3 C66_3 1_555 1_555
H63_3 C71_3 1_555 1_555
H64_3 C71_3 1_555 1_555
H65_3 C71_3 1_555 1_555
C72_3 C67_3 1_555 1_555
H66_3 C72_3 1_555 1_555
H67_3 C72_3 1_555 1_555
C74_3 C75_3 1_555 1_555
C75_3 H71_3 1_555 1_555
C76_3 C75_3 1_555 1_555
H72_3 C76_3 1_555 1_555
C79_3 C74_3 1_555 1_555
C81_2 C82_2 1_555 1_555
C82_2 H75_2 1_555 1_555
C83_2 C82_2 1_555 1_555
H76_2 C83_2 1_555 1_555
C84_2 C83_2 1_555 1_555
C85_2 C84_2 1_555 1_555
H77_2 C85_2 1_555 1_555
C86_2 C81_2 1_555 1_555
H78_2 C86_2 1_555 1_555
Co9 O1 1_555 1_555
O15_3 C72_3 1_555 1_555
O20_2 C70_2 1_555 1_555
C6_3 C7_3 1_555 1_555
C8_3 O3_3 1_555 1_555
C13_3 C14_3 1_555 1_555
C20_3 O4_3 1_555 1_555
C27_2 O7_2 1_555 1_555
C31_2 C32_2 1_555 1_555
C67_3 C68_3 1_555 1_555
C74_3 O15_3 1_555 1_555
C81_2 O20_2 1_555 1_555
C85_2 C86_2 1_555 1_555
C55_2 C56_2 1_555 1_555
C56_2 C57_2 1_555 1_555
C57_2 H52_2 1_555 1_555
C58_2 C57_2 1_555 1_555
H53_2 C58_2 1_555 1_555
C59_2 C58_2 1_555 1_555
C60_2 C59_2 1_555 1_555
H54_2 C60_2 1_555 1_555
C61_2 C56_2 1_555 1_555
H55_2 C61_2 1_555 1_555
C62_2 H56_2 1_555 1_555
H57_2 C62_2 1_555 1_555
C63_2 C62_2 1_555 1_555
C64_2 C63_2 1_555 1_555
C69_2 C64_2 1_555 1_555
H58_2 C69_2 1_555 1_555
H59_2 C69_2 1_555 1_555
H60_2 C69_2 1_555 1_555
H69_2 C73_2 1_555 1_555
H70_2 C73_2 1_555 1_555
Co9 O10 1_555 1_555
O10 C55_2 1_555 1_555
O13_2 C55_2 1_555 1_555
O14_2 C59_2 1_555 1_555
C60_2 C61_2 1_555 1_555
C62_2 O14_2 1_555 1_555
C34_2 H28_2 1_555 1_555
C35_2 C34_2 1_555 1_555
H29_2 C35_2 1_555 1_555
C36_2 H30_2 1_555 1_555
C37_2 H31_2 1_555 1_555
H32_2 C37_2 1_555 1_555
C38_2 C37_2 1_555 1_555
C39_2 C38_2 1_555 1_555
C40_2 C39_2 1_555 1_555
C41_2 C40_2 1_555 1_555
C42_2 C41_2 1_555 1_555
C43_2 C38_2 1_555 1_555
C44_2 C43_2 1_555 1_555
H33_2 C44_2 1_555 1_555
H34_2 C44_2 1_555 1_555
H35_2 C44_2 1_555 1_555
C45_2 C39_2 1_555 1_555
H36_2 C45_2 1_555 1_555
H37_2 C45_2 1_555 1_555
H38_2 C45_2 1_555 1_555
C46_2 C41_2 1_555 1_555
H41_2 C46_2 1_555 1_555
C47_2 C40_2 1_555 1_555
H42_2 C47_2 1_555 1_555
H43_2 C47_2 1_555 1_555
C51_2 C42_2 1_555 1_555
H47_2 C51_2 1_555 1_555
H48_2 C51_2 1_555 1_555
Co1 N1_2 1_555 1_555
N1_2 C34_2 1_555 1_555
N2_2 C35_2 1_555 1_555
O8_2 C33_2 1_555 1_555
O9_2 C33_2 1_555 1_555
C88_2 H79_2 1_555 1_555
C89_2 C88_2 1_555 1_555
H80_2 C89_2 1_555 1_555
C90_2 H81_2 1_555 1_555
C91_2 H82_2 1_555 1_555
H83_2 C91_2 1_555 1_555
C92_2 C91_2 1_555 1_555
C93_2 C92_2 1_555 1_555
C94_2 C93_2 1_555 1_555
C95_2 C94_2 1_555 1_555
C96_2 C95_2 1_555 1_555
C97_2 C92_2 1_555 1_555
C98_2 C97_2 1_555 1_555
H84_2 C98_2 1_555 1_555
H85_2 C98_2 1_555 1_555
H86_2 C98_2 1_555 1_555
C99_2 C93_2 1_555 1_555
H87_2 C99_2 1_555 1_555
H88_2 C99_2 1_555 1_555
H89_2 C99_2 1_555 1_555
C100_2 C95_2 1_555 1_555
H92_2 C100_2 1_555 1_555
C101_2 C94_2 1_555 1_555
H93_2 C101_2 1_555 1_555
H94_2 C101_2 1_555 1_555
C105_2 C96_2 1_555 1_555
H98_2 C105_2 1_555 1_555
H99_2 C105_2 1_555 1_555
Co3 N7_2 1_555 1_555
N7_2 C88_2 1_555 1_555
N8_2 C89_2 1_555 1_555
N10 Co1 1_555 1_555
N11 Co3 1_555 1_555
O17_2 Co1 1_555 1_555
O18_2 Co3 1_555 1_555
O21_2 C87_2 1_555 1_555
O22_2 C87_2 1_555 1_555
C36_2 N1_2 1_555 1_555
C36_2 N2_2 1_555 1_555
C37_2 N2_2 1_555 1_555
C42_2 C43_2 1_555 1_555
Co1 O9_2 1_555 1_555
C90_2 N7_2 1_555 1_555
C90_2 N8_2 1_555 1_555
C91_2 N8_2 1_555 1_555
C96_2 C97_2 1_555 1_555
Co3 O22_2 1_555 1_555
C48_2 H44_2 1_555 1_555
C49_2 C48_2 1_555 1_555
H45_2 C49_2 1_555 1_555
C50_2 H46_2 1_555 1_555
C52_2 H49_2 1_555 1_555
C53_2 C52_2 1_555 1_555
H50_2 C53_2 1_555 1_555
C54_2 H51_2 1_555 1_555
Co9 N6_2 1_555 1_555
N10 C49_2 1_555 1_555
N6_2 C53_2 1_555 1_555
C102_2 H95_2 1_555 1_555
C103_2 C102_2 1_555 1_555
H96_2 C103_2 1_555 1_555
C104_2 H97_2 1_555 1_555
C106_2 H100_2 1_555 1_555
C107_2 C106_2 1_555 1_555
H101_2 C107_2 1_555 1_555
C108_2 H102_2 1_555 1_555
N11 C103_2 1_555 1_555
N14_2 Co9 1_555 1_555
C48_2 N4_2 1_555 1_555
C50_2 N10 1_555 1_555
C50_2 N4_2 1_555 1_555
C52_2 N5_2 1_555 1_555
C54_2 N5_2 1_555 1_555
C54_2 N6_2 1_555 1_555
C102_2 N12_2 1_555 1_555
C104_2 N11 1_555 1_555
C104_2 N12_2 1_555 1_555
C106_2 N13_2 1_555 1_555
C107_2 N14_2 1_555 1_555
C108_2 N13_2 1_555 1_555
C108_2 N14_2 1_555 1_555
H2_4 C4_4 1_555 1_555
C5_4 C4_4 1_555 1_555
H6_4 C8_4 1_555 1_555
C9_4 C8_4 1_555 1_555
C10_4 C9_4 1_555 1_555
C11_4 C10_4 1_555 1_555
C12_4 C11_4 1_555 1_555
C13_4 C12_4 1_555 1_555
C14_4 C9_4 1_555 1_555
C17_4 C12_4 1_555 1_555
H12_4 C17_4 1_555 1_555
H13_4 C17_4 1_555 1_555
H14_4 C17_4 1_555 1_555
C18_4 C13_4 1_555 1_555
H15_4 C18_4 1_555 1_555
H16_4 C18_4 1_555 1_555
C19_4 C14_4 1_555 1_555
H17_4 C19_4 1_555 1_555
H18_4 C19_4 1_555 1_555
O3_4 C5_4 1_555 1_555
O4_4 C18_4 1_555 1_555
C74_4 C75_4 1_555 1_555
C75_4 H71_4 1_555 1_555
C76_4 C75_4 1_555 1_555
H72_4 C76_4 1_555 1_555
C77_2 C76_4 1_555 1_555
C78_2 C77_2 1_555 1_555
H73_2 C78_2 1_555 1_555
C79_4 C74_4 1_555 1_555
C80_2 C77_2 1_555 1_555
O18_2 C80_2 1_555 1_555
O19_2 C80_2 1_555 1_555
C8_4 O3_4 1_555 1_555
C13_4 C14_4 1_555 1_555
C78_2 C79_4 1_555 1_555
H3_4 C6_4 1_555 1_555
H4_4 C7_4 1_555 1_555
C20_4 C21_4 1_555 1_555
C21_4 H20_4 1_555 1_555
C22_4 C21_4 1_555 1_555
H21_4 C22_4 1_555 1_555
C23_2 C22_4 1_555 1_555
C24_2 C23_2 1_555 1_555
H22_2 C24_2 1_555 1_555
C25_4 C20_4 1_555 1_555
C26_2 C23_2 1_555 1_555
O17_2 C26_2 1_555 1_555
O6_2 C26_2 1_555 1_555
C66_4 C65_4 1_555 1_555
C67_4 C66_4 1_555 1_555
C71_4 C66_4 1_555 1_555
H63_4 C71_4 1_555 1_555
H64_4 C71_4 1_555 1_555
H65_4 C71_4 1_555 1_555
C72_4 C67_4 1_555 1_555
H66_4 C72_4 1_555 1_555
H67_4 C72_4 1_555 1_555
O15_4 C72_4 1_555 1_555
C6_4 C7_4 1_555 1_555
C24_2 C25_4 1_555 1_555
C67_4 C68_4 1_555 1_555
C24_3 C23_3 1_555 1_555
H22_3 C24_3 1_555 1_555
C26_3 C23_3 1_555 1_555
O5 C26_3 1_555 1_555
O6_3 C26_3 1_555 1_555
C78_3 C77_3 1_555 1_555
H73_3 C78_3 1_555 1_555
C80_3 C77_3 1_555 1_555
Co6 O5 1_555 1_555
Co7 O16 1_555 1_555
O16 C80_3 1_555 1_555
O19_3 C80_3 1_555 1_555
C91_3 H82_3 1_555 1_555
H83_3 C91_3 1_555 1_555
C92_3 C91_3 1_555 1_555
C93_3 C92_3 1_555 1_555
C94_3 C93_3 1_555 1_555
C95_3 C94_3 1_555 1_555
C96_3 C95_3 1_555 1_555
C97_3 C92_3 1_555 1_555
C98_3 C97_3 1_555 1_555
H84_3 C98_3 1_555 1_555
H85_3 C98_3 1_555 1_555
H86_3 C98_3 1_555 1_555
C99_3 C93_3 1_555 1_555
H87_3 C99_3 1_555 1_555
H88_3 C99_3 1_555 1_555
H89_3 C99_3 1_555 1_555
C100_3 C95_3 1_555 1_555
H90_3 C100_3 1_555 1_555
H91_3 C100_3 1_555 1_555
H92_3 C100_3 1_555 1_555
C101_3 C94_3 1_555 1_555
H93_3 C101_3 1_555 1_555
H94_3 C101_3 1_555 1_555
C102_3 H95_3 1_555 1_555
C103_3 C102_3 1_555 1_555
H96_3 C103_3 1_555 1_555
C104_3 H97_3 1_555 1_555
C105_3 C96_3 1_555 1_555
H98_3 C105_3 1_555 1_555
H99_3 C105_3 1_555 1_555
C106_3 H100_3 1_555 1_555
C107_3 C106_3 1_555 1_555
H101_3 C107_3 1_555 1_555
C108_3 H102_3 1_555 1_555
Co7 N9_2 1_555 1_555
N9_2 C103_3 1_555 1_555
N12_3 C101_3 1_555 1_555
N13_3 C105_3 1_555 1_555
N14_3 Co2_2 1_555 1_555
O11_2 Co2_2 1_555 1_555
C91_3 N8_3 1_555 1_555
C96_3 C97_3 1_555 1_555
C102_3 N12_3 1_555 1_555
C104_3 N9_2 1_555 1_555
C104_3 N12_3 1_555 1_555
C106_3 N13_3 1_555 1_555
C107_3 N14_3 1_555 1_555
C108_3 N13_3 1_555 1_555
C108_3 N14_3 1_555 1_555
H61_3 C70_3 1_555 1_555
H62_3 C70_3 1_555 1_555
C81_3 C82_3 1_555 1_555
C82_3 H75_3 1_555 1_555
C83_3 C82_3 1_555 1_555
H76_3 C83_3 1_555 1_555
C84_3 C83_3 1_555 1_555
C85_3 C84_3 1_555 1_555
H77_3 C85_3 1_555 1_555
C86_3 C81_3 1_555 1_555
H78_3 C86_3 1_555 1_555
C87_3 C84_3 1_555 1_555
C88_3 H79_3 1_555 1_555
C89_3 C88_3 1_555 1_555
H80_3 C89_3 1_555 1_555
Co7 N7_3 1_555 1_555
N7_3 C88_3 1_555 1_555
O20_3 C70_3 1_555 1_555
O21_3 C87_3 1_555 1_555
O22_3 C87_3 1_555 1_555
C81_3 O20_3 1_555 1_555
C85_3 C86_3 1_555 1_555
C90_3 N7_3 1_555 1_555
Co7 O22_3 1_555 1_555
C55_3 C56_3 1_555 1_555
C56_3 C57_3 1_555 1_555
C57_3 H52_3 1_555 1_555
H58_3 C69_3 1_555 1_555
H59_3 C69_3 1_555 1_555
H60_3 C69_3 1_555 1_555
Co9_2 O10_2 1_555 1_555
O10_2 C55_3 1_555 1_555
C37_3 H31_3 1_555 1_555
H32_3 C37_3 1_555 1_555
C38_3 C37_3 1_555 1_555
C39_3 C38_3 1_555 1_555
C40_3 C39_3 1_555 1_555
C41_3 C40_3 1_555 1_555
C42_3 C41_3 1_555 1_555
C43_3 C38_3 1_555 1_555
C44_3 C43_3 1_555 1_555
H33_3 C44_3 1_555 1_555
H34_3 C44_3 1_555 1_555
H35_3 C44_3 1_555 1_555
C45_3 C39_3 1_555 1_555
H36_3 C45_3 1_555 1_555
H37_3 C45_3 1_555 1_555
H38_3 C45_3 1_555 1_555
C46_3 C41_3 1_555 1_555
H39_3 C46_3 1_555 1_555
H40_3 C46_3 1_555 1_555
H41_3 C46_3 1_555 1_555
C47_3 C40_3 1_555 1_555
H42_3 C47_3 1_555 1_555
H43_3 C47_3 1_555 1_555
C48_3 H44_3 1_555 1_555
C49_3 C48_3 1_555 1_555
H45_3 C49_3 1_555 1_555
C50_3 H46_3 1_555 1_555
C51_3 C42_3 1_555 1_555
H47_3 C51_3 1_555 1_555
H48_3 C51_3 1_555 1_555
C52_3 H49_3 1_555 1_555
C53_3 C52_3 1_555 1_555
H50_3 C53_3 1_555 1_555
C54_3 H51_3 1_555 1_555
Co2_3 N6_3 1_555 1_555
N3_2 C49_3 1_555 1_555
N4_3 C47_3 1_555 1_555
N5_3 C51_3 1_555 1_555
N6_3 C53_3 1_555 1_555
Co6 N3_2 1_555 1_555
O12_2 Co2_3 1_555 1_555
C37_3 N2_3 1_555 1_555
C42_3 C43_3 1_555 1_555
C48_3 N4_3 1_555 1_555
C50_3 N3_2 1_555 1_555
C50_3 N4_3 1_555 1_555
C52_3 N5_3 1_555 1_555
C54_3 N5_3 1_555 1_555
C54_3 N6_3 1_555 1_555
C1_3 C2_3 1_555 1_555
C2_3 C3_3 1_555 1_555
C3_3 H1_3 1_555 1_555
H7_3 C15_3 1_555 1_555
H8_3 C15_3 1_555 1_555
H9_3 C15_3 1_555 1_555
H10_3 C16_3 1_555 1_555
H11_3 C16_3 1_555 1_555
C27_3 C28_3 1_555 1_555
C28_3 H24_3 1_555 1_555
C29_3 C28_3 1_555 1_555
H25_3 C29_3 1_555 1_555
C30_3 C29_3 1_555 1_555
C31_3 C30_3 1_555 1_555
H26_3 C31_3 1_555 1_555
C32_3 C27_3 1_555 1_555
H27_3 C32_3 1_555 1_555
C33_3 C30_3 1_555 1_555
C34_3 H28_3 1_555 1_555
C35_3 C34_3 1_555 1_555
H29_3 C35_3 1_555 1_555
Co6 N1_3 1_555 1_555
N1_3 C34_3 1_555 1_555
O1_2 C1_3 1_555 1_555
O7_3 C16_3 1_555 1_555
O8_3 C33_3 1_555 1_555
O9_3 C33_3 1_555 1_555
Co9_3 O1_2 1_555 1_555
C27_3 O7_3 1_555 1_555
C31_3 C32_3 1_555 1_555
C36_3 N1_3 1_555 1_555
Co6 O9_3 1_555 1_555
C24_4 C23_4 1_555 1_555
H22_4 C24_4 1_555 1_555
C26_4 C23_4 1_555 1_555
O5_2 C26_4 1_555 1_555
O6_4 C26_4 1_555 1_555
C78_4 C77_4 1_555 1_555
H73_4 C78_4 1_555 1_555
C80_4 C77_4 1_555 1_555
Co6_2 O5_2 1_555 1_555
Co7_2 O16_2 1_555 1_555
O16_2 C80_4 1_555 1_555
O19_4 C80_4 1_555 1_555
C1_4 C2_4 1_555 1_555
C2_4 C3_4 1_555 1_555
C3_4 H1_4 1_555 1_555
H7_4 C15_4 1_555 1_555
H8_4 C15_4 1_555 1_555
H9_4 C15_4 1_555 1_555
H10_4 C16_4 1_555 1_555
H11_4 C16_4 1_555 1_555
C27_4 C28_4 1_555 1_555
C28_4 H24_4 1_555 1_555
C29_4 C28_4 1_555 1_555
H25_4 C29_4 1_555 1_555
C30_4 C29_4 1_555 1_555
C31_4 C30_4 1_555 1_555
H26_4 C31_4 1_555 1_555
C32_4 C27_4 1_555 1_555
H27_4 C32_4 1_555 1_555
C33_4 C30_4 1_555 1_555
C34_4 H28_4 1_555 1_555
C35_4 C34_4 1_555 1_555
H29_4 C35_4 1_555 1_555
Co6_2 N1_4 1_555 1_555
N1_4 C34_4 1_555 1_555
O11_2 C1_4 1_555 1_555
O7_4 C16_4 1_555 1_555
O8_4 C33_4 1_555 1_555
O9_4 C33_4 1_555 1_555
N10_2 Co6_2 1_555 1_555
C27_4 O7_4 1_555 1_555
C31_4 C32_4 1_555 1_555
C36_4 N1_4 1_555 1_555
Co6_2 O9_4 1_555 1_555
C37_4 H31_4 1_555 1_555
H32_4 C37_4 1_555 1_555
C38_4 C37_4 1_555 1_555
C39_4 C38_4 1_555 1_555
C40_4 C39_4 1_555 1_555
C41_4 C40_4 1_555 1_555
C42_4 C41_4 1_555 1_555
C43_4 C38_4 1_555 1_555
C44_4 C43_4 1_555 1_555
H33_4 C44_4 1_555 1_555
H34_4 C44_4 1_555 1_555
H35_4 C44_4 1_555 1_555
C45_4 C39_4 1_555 1_555
H36_4 C45_4 1_555 1_555
H37_4 C45_4 1_555 1_555
H38_4 C45_4 1_555 1_555
C46_4 C41_4 1_555 1_555
H39_4 C46_4 1_555 1_555
H40_4 C46_4 1_555 1_555
H41_4 C46_4 1_555 1_555
C47_4 C40_4 1_555 1_555
H42_4 C47_4 1_555 1_555
H43_4 C47_4 1_555 1_555
C48_4 H44_4 1_555 1_555
C49_4 C48_4 1_555 1_555
H45_4 C49_4 1_555 1_555
C50_4 H46_4 1_555 1_555
C51_4 C42_4 1_555 1_555
H47_4 C51_4 1_555 1_555
H48_4 C51_4 1_555 1_555
C52_4 H49_4 1_555 1_555
C53_4 C52_4 1_555 1_555
H50_4 C53_4 1_555 1_555
C54_4 H51_4 1_555 1_555
Co9_2 N6_4 1_555 1_555
N10_2 C49_4 1_555 1_555
N4_4 C47_4 1_555 1_555
N5_4 C51_4 1_555 1_555
N6_4 C53_4 1_555 1_555
C37_4 N2_4 1_555 1_555
C42_4 C43_4 1_555 1_555
C48_4 N4_4 1_555 1_555
C50_4 N10_2 1_555 1_555
C50_4 N4_4 1_555 1_555
C52_4 N5_4 1_555 1_555
C54_4 N5_4 1_555 1_555
C54_4 N6_4 1_555 1_555
C55_4 C56_4 1_555 1_555
C56_4 C57_4 1_555 1_555
C57_4 H52_4 1_555 1_555
H58_4 C69_4 1_555 1_555
H59_4 C69_4 1_555 1_555
H60_4 C69_4 1_555 1_555
O12_2 C55_4 1_555 1_555
H61_4 C70_4 1_555 1_555
H62_4 C70_4 1_555 1_555
C81_4 C82_4 1_555 1_555
C82_4 H75_4 1_555 1_555
C83_4 C82_4 1_555 1_555
H76_4 C83_4 1_555 1_555
C84_4 C83_4 1_555 1_555
C85_4 C84_4 1_555 1_555
H77_4 C85_4 1_555 1_555
C86_4 C81_4 1_555 1_555
H78_4 C86_4 1_555 1_555
C87_4 C84_4 1_555 1_555
C88_4 H79_4 1_555 1_555
C89_4 C88_4 1_555 1_555
H80_4 C89_4 1_555 1_555
Co7_2 N7_4 1_555 1_555
N7_4 C88_4 1_555 1_555
N11_2 Co7_2 1_555 1_555
O20_4 C70_4 1_555 1_555
O21_4 C87_4 1_555 1_555
O22_4 C87_4 1_555 1_555
C81_4 O20_4 1_555 1_555
C85_4 C86_4 1_555 1_555
C90_4 N7_4 1_555 1_555
Co7_2 O22_4 1_555 1_555
C91_4 H82_4 1_555 1_555
H83_4 C91_4 1_555 1_555
C92_4 C91_4 1_555 1_555
C93_4 C92_4 1_555 1_555
C94_4 C93_4 1_555 1_555
C95_4 C94_4 1_555 1_555
C96_4 C95_4 1_555 1_555
C97_4 C92_4 1_555 1_555
C98_4 C97_4 1_555 1_555
H84_4 C98_4 1_555 1_555
H85_4 C98_4 1_555 1_555
H86_4 C98_4 1_555 1_555
C99_4 C93_4 1_555 1_555
H87_4 C99_4 1_555 1_555
H88_4 C99_4 1_555 1_555
H89_4 C99_4 1_555 1_555
C100_4 C95_4 1_555 1_555
H90_4 C100_4 1_555 1_555
H91_4 C100_4 1_555 1_555
H92_4 C100_4 1_555 1_555
C101_4 C94_4 1_555 1_555
H93_4 C101_4 1_555 1_555
H94_4 C101_4 1_555 1_555
C102_4 H95_4 1_555 1_555
C103_4 C102_4 1_555 1_555
H96_4 C103_4 1_555 1_555
C104_4 H97_4 1_555 1_555
C105_4 C96_4 1_555 1_555
H98_4 C105_4 1_555 1_555
H99_4 C105_4 1_555 1_555
C106_4 H100_4 1_555 1_555
C107_4 C106_4 1_555 1_555
H101_4 C107_4 1_555 1_555
C108_4 H102_4 1_555 1_555
N11_2 C103_4 1_555 1_555
N12_4 C101_4 1_555 1_555
N13_4 C105_4 1_555 1_555
N14_4 Co9_3 1_555 1_555
C91_4 N8_4 1_555 1_555
C96_4 C97_4 1_555 1_555
C102_4 N12_4 1_555 1_555
C104_4 N11_2 1_555 1_555
C104_4 N12_4 1_555 1_555
C106_4 N13_4 1_555 1_555
C107_4 N14_4 1_555 1_555
C108_4 N13_4 1_555 1_555
C108_4 N14_4 1_555 1_555
H53_3 C58_3 1_555 1_555
C59_3 C58_3 1_555 1_555
H57_3 C62_3 1_555 1_555
C63_3 C62_3 1_555 1_555
C64_3 C63_3 1_555 1_555
H69_3 C73_3 1_555 1_555
O14_3 C59_3 1_555 1_555
C62_3 O14_3 1_555 1_555
H54_3 C60_3 1_555 1_555
H55_3 C61_3 1_555 1_555
C60_3 C61_3 1_555 1_555
H54_4 C60_4 1_555 1_555
H55_4 C61_4 1_555 1_555
C60_4 C61_4 1_555 1_555
H53_4 C58_4 1_555 1_555
C59_4 C58_4 1_555 1_555
H57_4 C62_4 1_555 1_555
C63_4 C62_4 1_555 1_555
C64_4 C63_4 1_555 1_555
H69_4 C73_4 1_555 1_555
O14_4 C59_4 1_555 1_555
C62_4 O14_4 1_555 1_555

#END
