
###############################################################################
#
# This file contains modified crystal structure data generated from the
# MOF subset of the Cambridge Structural Database (CSD) v543 
# hosted by the Cambridge Crystallographic Data Centre (CCDC).
#
# This work is licensed under the Creative Commons
# Attribution-NonCommercial-ShareAlike 4.0 International License.
# To view a copy of this license, visit
# http://creativecommons.org/licenses/by-nc-sa/4.0/
# or send a letter to
# Creative Commons, PO Box 1866, Mountain View, CA 94042, USA.
#
# CIF created using the CSD Python API on 29 September 2022
# The structure has been converted into the P1 space group
# The structure has a 3D framework
# The original CSD entry DEHLEJ is in the monoclinic crystal system
# The framework has been calculated to contain at least 10.0% void space
# The void calculation uses a probe of radius 1.32A, grid spacing 0.4
#
###############################################################################

data_DEHLEJ
_chemical_formula_moiety         '(C432 H412 N48 O68 Zn14)n'
_symmetry_cell_setting           triclinic
_symmetry_space_group_name_H-M   'P 1'
_symmetry_Int_Tables_number      1
_space_group_name_Hall           'P 1'
loop_
_symmetry_equiv_pos_site_id
_symmetry_equiv_pos_as_xyz
1 x,y,z
_cell_length_a                   23.4616(13)
_cell_length_b                   11.2113(6)
_cell_length_c                   41.580(2)
_cell_angle_alpha                90
_cell_angle_beta                 93.4720(10)
_cell_angle_gamma                90
_cell_volume                     10916.9
loop_
_atom_site_label
_atom_site_type_symbol
_atom_site_fract_x
_atom_site_fract_y
_atom_site_fract_z
H36 H 0.1969 0.0570 0.2599
H37 H 0.2584 0.0123 0.2709
C48 C 0.10562(13) 0.0885(2) 0.20305(7)
H44 H 0.1242 0.0596 0.1855
C49 C 0.08194(12) 0.1963(2) 0.20589(6)
H45 H 0.0817 0.2560 0.1904
C50 C 0.06866(12) 0.1015(2) 0.24957(6)
H46 H 0.0575 0.0820 0.2700
C52 C 0.30557(13) 0.0708(2) 0.19735(6)
H49 H 0.2713 0.0399 0.1885
C53 C 0.38362(13) 0.0922(2) 0.22806(7)
H50 H 0.4126 0.0803 0.2440
C54 C 0.38007(13) 0.1806(2) 0.20640(6)
H51 H 0.4068 0.2411 0.2046
N3 N 0.33019(10) 0.16797(18) 0.18694(5)
N4 N 0.33609(10) 0.02260(18) 0.22214(5)
N5 N 0.09697(10) 0.02911(18) 0.23126(5)
N6 N 0.05807(9) 0.20543(18) 0.23520(5)
Zn2 Zn 0.0000 0.32681(3) 0.2500
O12 O 0.03470(8) 0.39051(16) 0.29001(4)
Zn4 Zn 0.304840(14) 0.24929(2) 0.146030(7)
C33 C 0.22717(13) 0.0793(2) 0.12407(7)
C34 C 0.25525(12) 0.4933(2) 0.14455(6)
H28 H 0.2859 0.5225 0.1337
C35 C 0.17724(12) 0.4863(2) 0.16986(6)
H29 H 0.1443 0.5079 0.1798
C36 C 0.19818(12) 0.3760(2) 0.16703(6)
H30 H 0.1817 0.3070 0.1747
C37 C 0.20915(14) 0.6921(2) 0.15120(6)
H31 H 0.1734 0.7103 0.1393
H32 H 0.2399 0.7195 0.1385
C38 C 0.21163(14) 0.7591(2) 0.18248(6)
C39 C 0.26491(13) 0.7894(2) 0.19712(7)
C40 C 0.26748(13) 0.8610(2) 0.22464(6)
C41 C 0.21758(14) 0.9000(2) 0.23794(6)
C42 C 0.16496(13) 0.8639(2) 0.22421(6)
C43 C 0.16092(13) 0.7950(2) 0.19597(7)
C44 C 0.31853(14) 0.7501(3) 0.18190(8)
H33 H 0.3505 0.7941 0.1912
H34 H 0.3147 0.7646 0.1591
H35 H 0.3245 0.6664 0.1857
C45 C 0.21958(16) 0.9883(3) 0.26585(7)
H38 H 0.2047 0.9511 0.2844
C46 C 0.10274(14) 0.7643(3) 0.18073(8)
H39 H 0.0864 0.7007 0.1926
H40 H 0.1064 0.7396 0.1588
H41 H 0.0784 0.8331 0.1811
C47 C 0.11178(14) 0.9039(2) 0.23984(7)
H42 H 0.0802 0.8521 0.2330
H43 H 0.1178 0.8971 0.2631
C51 C 0.32405(13) 0.9089(2) 0.23833(7)
H47 H 0.3225 0.9218 0.2613
H48 H 0.3542 0.8519 0.2349
N1 N 0.24747(10) 0.38036(18) 0.15118(5)
N2 N 0.21390(10) 0.56090(18) 0.15526(5)
O8 O 0.20193(9) 0.11234(17) 0.14766(5)
O9 O 0.27454(9) 0.12465(16) 0.11597(4)
O17 O 0.36867(9) 0.33254(18) 0.12736(6)
Zn2_2 Zn 1.0000 0.32681(3) 0.2500
H87 H 0.8031 0.0570 0.2401
H88 H 0.7416 0.0123 0.2291
C102 C 0.89438(13) 0.0885(2) 0.29695(7)
H95 H 0.8758 0.0596 0.3145
C103 C 0.91806(12) 0.1963(2) 0.29411(6)
H96 H 0.9183 0.2560 0.3096
C104 C 0.93134(12) 0.1015(2) 0.25043(6)
H97 H 0.9425 0.0820 0.2300
C106 C 0.69443(13) 0.0708(2) 0.30265(6)
H100 H 0.7287 0.0399 0.3115
C107 C 0.61638(13) 0.0922(2) 0.27194(7)
H101 H 0.5874 0.0803 0.2560
C108 C 0.61993(13) 0.1806(2) 0.29360(6)
H102 H 0.5932 0.2411 0.2954
N9 N 0.66981(10) 0.16797(18) 0.31306(5)
N12 N 0.66391(10) 0.02260(18) 0.27786(5)
N13 N 0.90303(10) 0.02911(18) 0.26874(5)
N14 N 0.94193(9) 0.20543(18) 0.26480(5)
O11 O 0.96530(8) 0.39051(16) 0.20999(4)
Zn5 Zn 0.695160(14) 0.24929(2) 0.353970(7)
C87 C 0.77283(13) 0.0793(2) 0.37593(7)
C88 C 0.74475(12) 0.4933(2) 0.35545(6)
H79 H 0.7141 0.5225 0.3663
C89 C 0.82276(12) 0.4863(2) 0.33014(6)
H80 H 0.8557 0.5079 0.3202
C90 C 0.80182(12) 0.3760(2) 0.33297(6)
H81 H 0.8183 0.3070 0.3253
C91 C 0.79085(14) 0.6921(2) 0.34880(6)
H82 H 0.8266 0.7103 0.3607
H83 H 0.7601 0.7195 0.3615
C92 C 0.78837(14) 0.7591(2) 0.31752(6)
C93 C 0.73509(13) 0.7894(2) 0.30288(7)
C94 C 0.73252(13) 0.8610(2) 0.27536(6)
C95 C 0.78242(14) 0.9000(2) 0.26206(6)
C96 C 0.83504(13) 0.8639(2) 0.27579(6)
C97 C 0.83908(13) 0.7950(2) 0.30403(7)
C98 C 0.68147(14) 0.7501(3) 0.31810(8)
H84 H 0.6495 0.7941 0.3088
H85 H 0.6853 0.7646 0.3409
H86 H 0.6755 0.6664 0.3143
C99 C 0.78042(16) 0.9883(3) 0.23415(7)
H89 H 0.7953 0.9511 0.2156
C100 C 0.89726(14) 0.7643(3) 0.31927(8)
H90 H 0.9136 0.7007 0.3074
H91 H 0.8936 0.7396 0.3412
H92 H 0.9216 0.8331 0.3189
C101 C 0.88822(14) 0.9039(2) 0.26016(7)
H93 H 0.9198 0.8521 0.2670
H94 H 0.8822 0.8971 0.2369
C105 C 0.67595(13) 0.9089(2) 0.26167(7)
H98 H 0.6775 0.9218 0.2387
H99 H 0.6458 0.8519 0.2651
N7 N 0.75253(10) 0.38036(18) 0.34882(5)
N8 N 0.78610(10) 0.56090(18) 0.34474(5)
O18 O 0.63133(9) 0.33254(18) 0.37264(6)
O21 O 0.79807(9) 0.11234(17) 0.35234(5)
O22 O 0.72546(9) 0.12465(16) 0.38403(4)
C11 C 0.62673(14) 0.9987(3) 0.02843(7)
C12 C 0.62046(14) 0.9003(3) 0.04829(6)
C13 C 0.58620(13) 0.8055(3) 0.03727(7)
C14 C 0.55657(14) 0.8106(3) 0.00702(7)
C16 C 0.64978(17) 0.8968(4) 0.08177(7)
H10 H 0.6880 0.8675 0.0805
H11 H 0.6290 0.8450 0.0952
H12 H 0.6509 0.9757 0.0908
H14 H 0.4843 0.7077 0.0041
H15 H 0.5400 0.6323 0.0011
C18 C 0.57763(16) 0.6988(3) 0.05870(8)
H16 H 0.5676 0.6289 0.0458
H17 H 0.6123 0.6819 0.0718
C19 C 0.50393(15) 0.6437(3) 0.09447(8)
C20 C 0.48365(19) 0.6774(3) 0.12329(9)
H18 H 0.4925 0.7528 0.1315
C21 C 0.45059(17) 0.6026(3) 0.14035(8)
H19 H 0.4378 0.6271 0.1600
C22 C 0.43608(14) 0.4896(3) 0.12827(8)
C23 C 0.45764(15) 0.4559(3) 0.09976(8)
H20 H 0.4490 0.3804 0.0916
C24 C 0.49198(17) 0.5311(3) 0.08270(9)
H21 H 0.5067 0.5058 0.0636
C25 C 0.39503(14) 0.4135(3) 0.14556(9)
O4 O 0.53258(11) 0.72940(19) 0.07840(6)
O6 O 0.38659(11) 0.4346(2) 0.17363(6)
C58 C 0.41150(13) 0.9729(3) 0.61968(6)
H53 H 0.3731 0.9691 0.6128
C59 C 0.45305(13) 0.9432(3) 0.59879(6)
C60 C 0.51031(13) 0.9494(3) 0.60886(6)
H54 H 0.5384 0.9313 0.5948
C61 C 0.52497(13) 0.9828(3) 0.64014(6)
H55 H 0.5633 0.9854 0.6472
C62 C 0.47309(14) 0.9228(3) 0.54344(6)
H56 H 0.5022 0.8612 0.5453
H57 H 0.4917 1.0000 0.5451
C63 C 0.43885(14) 0.9120(3) 0.51179(6)
C65 C 0.37327(14) 0.9987(3) 0.47157(7)
C66 C 0.37954(14) 0.9003(3) 0.45171(6)
C67 C 0.41380(13) 0.8055(3) 0.46273(7)
C68 C 0.44343(14) 0.8106(3) 0.49298(7)
C70 C 0.35022(17) 0.8968(4) 0.41823(7)
H61 H 0.3120 0.8675 0.4195
H62 H 0.3710 0.8450 0.4048
H63 H 0.3491 0.9757 0.4092
C71 C 0.4792(2) 0.7052(4) 0.50508(10)
H64 H 0.4844 0.7087 0.5281
H65 H 0.5157 0.7077 0.4959
H66 H 0.4600 0.6323 0.4989
C72 C 0.42237(16) 0.6988(3) 0.44130(8)
H67 H 0.4324 0.6289 0.4542
H68 H 0.3877 0.6819 0.4282
C73 C 0.49607(15) 0.6437(3) 0.40553(8)
C74 C 0.51635(19) 0.6774(3) 0.37671(9)
H69 H 0.5075 0.7528 0.3685
C75 C 0.54941(17) 0.6026(3) 0.35965(8)
H70 H 0.5622 0.6271 0.3400
C76 C 0.56392(14) 0.4896(3) 0.37173(8)
C77 C 0.54236(15) 0.4559(3) 0.40024(8)
H71 H 0.5510 0.3804 0.4084
C78 C 0.50802(17) 0.5311(3) 0.41730(9)
H72 H 0.4933 0.5058 0.4364
C79 C 0.60497(14) 0.4135(3) 0.35444(9)
O14 O 0.43375(9) 0.9094(2) 0.56837(4)
O15 O 0.46742(11) 0.72940(19) 0.42160(6)
O19 O 0.61341(11) 0.4346(2) 0.32637(6)
C1 C 0.00196(13) 0.4507(2) 0.19526(6)
C6 C 0.01031(13) 0.5506(3) 0.10886(6)
H3 H 0.0384 0.5687 0.0948
C7 C 0.02497(13) 0.5172(3) 0.14014(6)
H4 H 0.0633 0.5146 0.1472
H5 H 0.0022 0.6388 0.0453
O2 O 0.05011(10) 0.47461(17) 0.20689(4)
H14_2 H 0.0157 0.7923 0.9959
C20_2 C 0.01635(19) 0.8226(3) 0.87671(9)
H18_2 H 0.0075 0.7472 0.8685
C21_2 C 0.04941(17) 0.8974(3) 0.85965(8)
H19_2 H 0.0622 0.8729 0.8400
C24_2 C 0.00802(17) 0.9689(3) 0.91730(9)
C56 C 0.01592(12) 0.4875(2) 0.33860(6)
C57 C 0.07260(12) 0.4922(2) 0.34941(6)
H52 H 0.1006 0.4713 0.3355
C58_2 C 0.08850(13) 0.5271(3) 0.38032(6)
H53_2 H 0.1269 0.5309 0.3872
C59_2 C 0.04695(13) 0.5568(3) 0.40121(6)
C62_2 C 0.02691(14) 0.5772(3) 0.45656(6)
H57_2 H 0.0083 0.5000 0.4549
C63_2 C 0.06115(14) 0.5880(3) 0.48821(6)
C64 C 0.09674(14) 0.4943(3) 0.49823(7)
C65_2 C 0.12673(14) 0.5013(3) 0.52843(7)
C66_2 C 0.12046(14) 0.5997(3) 0.54829(6)
C67_2 C 0.08620(13) 0.6945(3) 0.53727(7)
C68_2 C 0.05657(14) 0.6894(3) 0.50702(7)
C69 C 0.10182(19) 0.3853(3) 0.47709(8)
H58 H 0.1345 0.3935 0.4645
H59 H 0.1061 0.3155 0.4904
H60 H 0.0680 0.3778 0.4630
C70_2 C 0.14978(17) 0.6032(4) 0.58177(7)
H61_2 H 0.1880 0.6325 0.5805
H62_2 H 0.1290 0.6550 0.5952
H63_2 H 0.1509 0.5243 0.5908
C71_2 C 0.0208(2) 0.7948(4) 0.49492(10)
H64_2 H 0.0156 0.7913 0.4719
H66_2 H 0.0400 0.8677 0.5011
C72_2 C 0.07763(16) 0.8012(3) 0.55870(8)
H67_2 H 0.0676 0.8711 0.5458
H68_2 H 0.1123 0.8181 0.5718
C73_2 C 0.00393(15) 0.8563(3) 0.59447(8)
H72_2 H 0.0067 0.9942 0.5636
C80 C 0.16485(15) 0.3983(3) 0.53927(8)
H73 H 0.1958 0.4263 0.5538
H74 H 0.1810 0.3610 0.5209
C81 C 0.15656(14) 0.2168(3) 0.56998(7)
C82 C 0.21246(14) 0.1865(3) 0.56724(7)
H75 H 0.2352 0.2312 0.5542
C83 C 0.23523(14) 0.0878(3) 0.58407(7)
H76 H 0.2731 0.0666 0.5819
C84 C 0.20245(13) 0.0217(2) 0.60378(6)
C85 C 0.14590(13) 0.0539(2) 0.60619(7)
H77 H 0.1231 0.0103 0.6195
C86 C 0.12285(13) 0.1500(3) 0.58912(7)
H78 H 0.0846 0.1695 0.5906
O14_2 O 0.06625(9) 0.5906(2) 0.43163(4)
O15_2 O 0.03258(11) 0.77060(19) 0.57840(6)
O20 O 0.12968(9) 0.31393(19) 0.55549(5)
C2 C 0.98408(12) 0.4875(2) 0.16140(6)
C3 C 0.92740(12) 0.4922(2) 0.15059(6)
H1 H 0.8994 0.4713 0.1645
C4 C 0.91150(13) 0.5271(3) 0.11968(6)
H2 H 0.8731 0.5309 0.1128
C5 C 0.95305(13) 0.5568(3) 0.09879(6)
C8 C 0.97309(14) 0.5772(3) 0.04344(6)
H6 H 0.9917 0.5000 0.0451
C9 C 0.93885(14) 0.5880(3) 0.01179(6)
C10 C 0.90326(14) 0.4943(3) 0.00177(7)
C15 C 0.89818(19) 0.3853(3) 0.02291(8)
H7 H 0.8655 0.3935 0.0355
H8 H 0.8939 0.3155 0.0096
H9 H 0.9320 0.3778 0.0370
C17 C 0.9792(2) 0.7948(4) 0.00508(10)
H13 H 0.9844 0.7913 0.0281
O3 O 0.93375(9) 0.5906(2) 0.06837(4)
C11_2 C 0.87327(14) 0.5013(3) 0.97157(7)
C12_2 C 0.87954(14) 0.5997(3) 0.95171(6)
C13_2 C 0.91380(13) 0.6945(3) 0.96273(7)
C14_2 C 0.94343(14) 0.6894(3) 0.99298(7)
C16_2 C 0.85022(17) 0.6032(4) 0.91823(7)
H10_2 H 0.8120 0.6325 0.9195
H11_2 H 0.8710 0.6550 0.9048
H12_2 H 0.8491 0.5243 0.9092
H15_2 H 0.9600 0.8677 0.9989
C18_2 C 0.92237(16) 0.8012(3) 0.94130(8)
H16_2 H 0.9324 0.8711 0.9542
H17_2 H 0.8877 0.8181 0.9282
C19_2 C 0.99607(15) 0.8563(3) 0.90553(8)
H21_2 H 0.9933 0.9942 0.9364
C26 C 0.83515(15) 0.3983(3) 0.96073(8)
H22 H 0.8042 0.4263 0.9462
H23 H 0.8190 0.3610 0.9791
C27 C 0.84344(14) 0.2168(3) 0.93002(7)
C28 C 0.78754(14) 0.1865(3) 0.93276(7)
H24 H 0.7648 0.2312 0.9458
C29 C 0.76477(14) 0.0878(3) 0.91593(7)
H25 H 0.7269 0.0666 0.9181
C30 C 0.79755(13) 0.0217(2) 0.89622(6)
C31 C 0.85410(13) 0.0539(2) 0.89381(7)
H26 H 0.8769 0.0103 0.8805
C32 C 0.87715(13) 0.1500(3) 0.91088(7)
H27 H 0.9154 0.1695 0.9094
O4_2 O 0.96742(11) 0.77060(19) 0.92160(6)
O7 O 0.87032(9) 0.31393(19) 0.94451(5)
C55 C 0.99804(13) 0.4507(2) 0.30474(6)
C60_2 C 0.98969(13) 0.5506(3) 0.39114(6)
H54_2 H 0.9616 0.5687 0.4052
C61_2 C 0.97503(13) 0.5172(3) 0.35986(6)
H55_2 H 0.9367 0.5146 0.3528
H56_2 H 0.9978 0.6388 0.4547
H65_2 H 0.9843 0.7923 0.5041
C74_2 C 0.98365(19) 0.8226(3) 0.62329(9)
H69_2 H 0.9925 0.7472 0.6315
C75_2 C 0.95059(17) 0.8974(3) 0.64035(8)
H70_2 H 0.9378 0.8729 0.6600
C78_2 C 0.99198(17) 0.9689(3) 0.58270(9)
O13 O 0.94989(10) 0.47461(17) 0.29311(4)
C11_3 C 0.12673(14) 0.4987(3) 0.02843(7)
C12_3 C 0.12046(14) 0.4003(3) 0.04829(6)
C13_3 C 0.08620(13) 0.3055(3) 0.03727(7)
C14_3 C 0.05657(14) 0.3106(3) 0.00702(7)
C16_3 C 0.14978(17) 0.3968(4) 0.08177(7)
H10_3 H 0.1880 0.3675 0.0805
H11_3 H 0.1290 0.3450 0.0952
H12_3 H 0.1509 0.4757 0.0908
H15_3 H 0.0400 0.1323 0.0011
C18_3 C 0.07763(16) 0.1988(3) 0.05870(8)
H16_3 H 0.0676 0.1289 0.0458
H17_3 H 0.1123 0.1819 0.0718
C19_3 C 0.00393(15) 0.1437(3) 0.09447(8)
H21_3 H 0.0067 0.0058 0.0636
C26_2 C 0.16485(15) 0.6017(3) 0.03927(8)
H22_2 H 0.1958 0.5737 0.0538
H23_2 H 0.1810 0.6390 0.0209
C27_2 C 0.15656(14) 0.7832(3) 0.06998(7)
C28_2 C 0.21246(14) 0.8135(3) 0.06724(7)
H24_2 H 0.2352 0.7688 0.0542
C29_2 C 0.23523(14) 0.9122(3) 0.08407(7)
H25_2 H 0.2731 0.9334 0.0819
C30_2 C 0.20245(13) 0.9783(2) 0.10378(6)
C31_2 C 0.14590(13) 0.9461(2) 0.10619(7)
H26_2 H 0.1231 0.9897 0.1195
C32_2 C 0.12285(13) 0.8500(3) 0.08912(7)
H27_2 H 0.0846 0.8305 0.0906
O4_3 O 0.03258(11) 0.22940(19) 0.07840(6)
O7_2 O 0.12968(9) 0.68607(19) 0.05549(5)
C55_2 C 0.00196(13) 0.5493(2) 0.69526(6)
C60_3 C 0.01031(13) 0.4494(3) 0.60886(6)
H54_3 H 0.0384 0.4313 0.5948
C61_3 C 0.02497(13) 0.4828(3) 0.64014(6)
H55_3 H 0.0633 0.4854 0.6472
H56_3 H 0.0022 0.3612 0.5453
H65_3 H 0.0157 0.2077 0.4959
C74_3 C 0.01635(19) 0.1774(3) 0.37671(9)
H69_3 H 0.0075 0.2528 0.3685
C75_3 C 0.04941(17) 0.1026(3) 0.35965(8)
H70_3 H 0.0622 0.1271 0.3400
C78_3 C 0.00802(17) 0.0311(3) 0.41730(9)
O13_2 O 0.05011(10) 0.52539(17) 0.70689(4)
Zn9 Zn 0.0000 0.67319(3) 0.7500
C2_2 C 0.01592(12) 0.5125(2) 0.83860(6)
C3_2 C 0.07260(12) 0.5078(2) 0.84941(6)
H1_2 H 0.1006 0.5287 0.8355
C4_2 C 0.08850(13) 0.4729(3) 0.88032(6)
H2_2 H 0.1269 0.4691 0.8872
C5_2 C 0.04695(13) 0.4432(3) 0.90121(6)
C8_2 C 0.02691(14) 0.4228(3) 0.95656(6)
H6_2 H 0.0083 0.5000 0.9549
C9_2 C 0.06115(14) 0.4120(3) 0.98821(6)
C10_2 C 0.09674(14) 0.5057(3) 0.99823(7)
C15_2 C 0.10182(19) 0.6147(3) 0.97709(8)
H7_2 H 0.1345 0.6065 0.9645
H8_2 H 0.1061 0.6845 0.9904
H9_2 H 0.0680 0.6222 0.9630
C17_2 C 0.0208(2) 0.2052(4) 0.99492(10)
H13_2 H 0.0156 0.2087 0.9719
O1 O 0.03470(8) 0.60949(16) 0.79001(4)
O3_2 O 0.06625(9) 0.4094(2) 0.93163(4)
H14_3 H 0.9843 0.2077 0.0041
C20_3 C 0.98365(19) 0.1774(3) 0.12329(9)
H18_3 H 0.9925 0.2528 0.1315
C21_3 C 0.95059(17) 0.1026(3) 0.14035(8)
H19_3 H 0.9378 0.1271 0.1600
C24_3 C 0.99198(17) 0.0311(3) 0.08270(9)
C56_2 C 0.98408(12) 0.5125(2) 0.66140(6)
C57_2 C 0.92740(12) 0.5078(2) 0.65059(6)
H52_2 H 0.8994 0.5287 0.6645
C58_3 C 0.91150(13) 0.4729(3) 0.61968(6)
H53_3 H 0.8731 0.4691 0.6128
C59_3 C 0.95305(13) 0.4432(3) 0.59879(6)
C62_3 C 0.97309(14) 0.4228(3) 0.54344(6)
H57_3 H 0.9917 0.5000 0.5451
C63_3 C 0.93885(14) 0.4120(3) 0.51179(6)
C64_2 C 0.90326(14) 0.5057(3) 0.50177(7)
C65_3 C 0.87327(14) 0.4987(3) 0.47157(7)
C66_3 C 0.87954(14) 0.4003(3) 0.45171(6)
C67_3 C 0.91380(13) 0.3055(3) 0.46273(7)
C68_3 C 0.94343(14) 0.3106(3) 0.49298(7)
C69_2 C 0.89818(19) 0.6147(3) 0.52291(8)
H58_2 H 0.8655 0.6065 0.5355
H59_2 H 0.8939 0.6845 0.5096
H60_2 H 0.9320 0.6222 0.5370
C70_3 C 0.85022(17) 0.3968(4) 0.41823(7)
H61_3 H 0.8120 0.3675 0.4195
H62_3 H 0.8710 0.3450 0.4048
H63_3 H 0.8491 0.4757 0.4092
C71_3 C 0.9792(2) 0.2052(4) 0.50508(10)
H64_3 H 0.9844 0.2087 0.5281
H66_3 H 0.9600 0.1323 0.4989
C72_3 C 0.92237(16) 0.1988(3) 0.44130(8)
H67_3 H 0.9324 0.1289 0.4542
H68_3 H 0.8877 0.1819 0.4282
C73_3 C 0.99607(15) 0.1437(3) 0.40553(8)
H72_3 H 0.9933 0.0058 0.4364
C80_2 C 0.83515(15) 0.6017(3) 0.46073(8)
H73_2 H 0.8042 0.5737 0.4462
H74_2 H 0.8190 0.6390 0.4791
C81_2 C 0.84344(14) 0.7832(3) 0.43002(7)
C82_2 C 0.78754(14) 0.8135(3) 0.43276(7)
H75_2 H 0.7648 0.7688 0.4458
C83_2 C 0.76477(14) 0.9122(3) 0.41593(7)
H76_2 H 0.7269 0.9334 0.4181
C84_2 C 0.79755(13) 0.9783(2) 0.39622(6)
C85_2 C 0.85410(13) 0.9461(2) 0.39381(7)
H77_2 H 0.8769 0.9897 0.3805
C86_2 C 0.87715(13) 0.8500(3) 0.41088(7)
H78_2 H 0.9154 0.8305 0.4094
O10 O 0.96530(8) 0.60949(16) 0.70999(4)
O14_3 O 0.93375(9) 0.4094(2) 0.56837(4)
O15_3 O 0.96742(11) 0.22940(19) 0.42160(6)
O20_2 O 0.87032(9) 0.68607(19) 0.44451(5)
Zn9_2 Zn 1.0000 0.67319(3) 0.7500
C1_2 C 0.99804(13) 0.5493(2) 0.80474(6)
C6_2 C 0.98969(13) 0.4494(3) 0.89114(6)
H3_2 H 0.9616 0.4313 0.9052
C7_2 C 0.97503(13) 0.4828(3) 0.85986(6)
H4_2 H 0.9367 0.4854 0.8528
H5_2 H 0.9978 0.3612 0.9547
O2_2 O 0.94989(10) 0.52539(17) 0.79311(4)
C87_2 C 0.22717(13) 0.9207(2) 0.62407(7)
C88_2 C 0.25525(12) 0.5067(2) 0.64455(6)
H79_2 H 0.2859 0.4775 0.6337
C89_2 C 0.17724(12) 0.5137(2) 0.66986(6)
H80_2 H 0.1443 0.4921 0.6798
C90_2 C 0.19818(12) 0.6240(2) 0.66703(6)
H81_2 H 0.1817 0.6930 0.6747
C91_2 C 0.20915(14) 0.3079(2) 0.65120(6)
H82_2 H 0.1734 0.2897 0.6393
H83_2 H 0.2399 0.2805 0.6385
C92_2 C 0.21163(14) 0.2409(2) 0.68248(6)
C93_2 C 0.26491(13) 0.2106(2) 0.69712(7)
C94_2 C 0.26748(13) 0.1390(2) 0.72464(6)
C95_2 C 0.21758(14) 0.1000(2) 0.73794(6)
C96_2 C 0.16496(13) 0.1361(2) 0.72421(6)
C97_2 C 0.16092(13) 0.2050(2) 0.69597(7)
C98_2 C 0.31853(14) 0.2499(3) 0.68190(8)
H84_2 H 0.3505 0.2059 0.6912
H85_2 H 0.3147 0.2354 0.6591
H86_2 H 0.3245 0.3336 0.6857
C99_2 C 0.21958(16) 0.0117(3) 0.76585(7)
H89_2 H 0.2047 0.0489 0.7844
C100_2 C 0.10274(14) 0.2357(3) 0.68073(8)
H90_2 H 0.0864 0.2993 0.6926
H91_2 H 0.1064 0.2604 0.6588
H92_2 H 0.0784 0.1669 0.6811
C101_2 C 0.11178(14) 0.0961(2) 0.73984(7)
H93_2 H 0.0802 0.1479 0.7330
H94_2 H 0.1178 0.1029 0.7631
C105_2 C 0.32405(13) 0.0911(2) 0.73833(7)
H98_2 H 0.3225 0.0782 0.7613
H99_2 H 0.3542 0.1481 0.7349
N7_2 N 0.24747(10) 0.61964(18) 0.65118(5)
N8_2 N 0.21390(10) 0.43910(18) 0.65526(5)
N11 N 0.33019(10) 0.83203(18) 0.68694(5)
O18_2 O 0.36867(9) 0.66746(18) 0.62736(6)
O21_2 O 0.20193(9) 0.88766(17) 0.64766(5)
O22_2 O 0.27454(9) 0.87535(16) 0.61597(4)
Zn3 Zn 0.304840(14) 0.75071(2) 0.646030(7)
H87_2 H 0.1969 0.9430 0.7599
H88_2 H 0.2584 0.9877 0.7709
C102_2 C 0.10562(13) 0.9115(2) 0.70305(7)
H95_2 H 0.1242 0.9404 0.6855
C103_2 C 0.08194(12) 0.8037(2) 0.70589(6)
H96_2 H 0.0817 0.7440 0.6904
C104_2 C 0.06866(12) 0.8985(2) 0.74957(6)
H97_2 H 0.0575 0.9180 0.7700
C106_2 C 0.30557(13) 0.9292(2) 0.69735(6)
H100_2 H 0.2713 0.9601 0.6885
C107_2 C 0.38362(13) 0.9078(2) 0.72806(7)
H101_2 H 0.4126 0.9197 0.7440
C108_2 C 0.38007(13) 0.8194(2) 0.70640(6)
H102_2 H 0.4068 0.7589 0.7046
N12_2 N 0.33609(10) 0.97740(18) 0.72214(5)
N13_2 N 0.09697(10) 0.97089(18) 0.73126(5)
N14_2 N 0.05807(9) 0.79457(18) 0.73520(5)
C33_2 C 0.77283(13) 0.9207(2) 0.87593(7)
C34_2 C 0.74475(12) 0.5067(2) 0.85545(6)
H28_2 H 0.7141 0.4775 0.8663
C35_2 C 0.82276(12) 0.5137(2) 0.83014(6)
H29_2 H 0.8557 0.4921 0.8202
C36_2 C 0.80182(12) 0.6240(2) 0.83297(6)
H30_2 H 0.8183 0.6930 0.8253
C37_2 C 0.79085(14) 0.3079(2) 0.84880(6)
H31_2 H 0.8266 0.2897 0.8607
H32_2 H 0.7601 0.2805 0.8615
C38_2 C 0.78837(14) 0.2409(2) 0.81752(6)
C39_2 C 0.73509(13) 0.2106(2) 0.80288(7)
C40_2 C 0.73252(13) 0.1390(2) 0.77536(6)
C41_2 C 0.78242(14) 0.1000(2) 0.76206(6)
C42_2 C 0.83504(13) 0.1361(2) 0.77579(6)
C43_2 C 0.83908(13) 0.2050(2) 0.80403(7)
C44_2 C 0.68147(14) 0.2499(3) 0.81810(8)
H33_2 H 0.6495 0.2059 0.8088
H34_2 H 0.6853 0.2354 0.8409
H35_2 H 0.6755 0.3336 0.8143
C45_2 C 0.78042(16) 0.0117(3) 0.73415(7)
H38_2 H 0.7953 0.0489 0.7156
C46_2 C 0.89726(14) 0.2357(3) 0.81927(8)
H39_2 H 0.9136 0.2993 0.8074
H40_2 H 0.8936 0.2604 0.8412
H41_2 H 0.9216 0.1669 0.8189
C47_2 C 0.88822(14) 0.0961(2) 0.76016(7)
H42_2 H 0.9198 0.1479 0.7670
H43_2 H 0.8822 0.1029 0.7369
C51_2 C 0.67595(13) 0.0911(2) 0.76167(7)
H47_2 H 0.6775 0.0782 0.7387
H48_2 H 0.6458 0.1481 0.7651
N1_2 N 0.75253(10) 0.61964(18) 0.84882(5)
N2_2 N 0.78610(10) 0.43910(18) 0.84474(5)
O8_2 O 0.79807(9) 0.88766(17) 0.85234(5)
O9_2 O 0.72546(9) 0.87535(16) 0.88403(4)
Zn1 Zn 0.695160(14) 0.75071(2) 0.853970(7)
N10 N 0.66981(10) 0.83203(18) 0.81306(5)
O17_2 O 0.63133(9) 0.66746(18) 0.87264(6)
H36_2 H 0.8031 0.9430 0.7401
H37_2 H 0.7416 0.9877 0.7291
C48_2 C 0.89438(13) 0.9115(2) 0.79695(7)
H44_2 H 0.8758 0.9404 0.8145
C49_2 C 0.91806(12) 0.8037(2) 0.79411(6)
H45_2 H 0.9183 0.7440 0.8096
C50_2 C 0.93134(12) 0.8985(2) 0.75043(6)
H46_2 H 0.9425 0.9180 0.7300
C52_2 C 0.69443(13) 0.9292(2) 0.80265(6)
H49_2 H 0.7287 0.9601 0.8115
C53_2 C 0.61638(13) 0.9078(2) 0.77194(7)
H50_2 H 0.5874 0.9197 0.7560
C54_2 C 0.61993(13) 0.8194(2) 0.79360(6)
H51_2 H 0.5932 0.7589 0.7954
N4_2 N 0.66391(10) 0.97740(18) 0.77786(5)
N5_2 N 0.90303(10) 0.97089(18) 0.76874(5)
N6_2 N 0.94193(9) 0.79457(18) 0.76480(5)
C11_4 C 0.37327(14) 0.0013(3) 0.97157(7)
C12_4 C 0.37954(14) 0.0997(3) 0.95171(6)
C13_4 C 0.41380(13) 0.1945(3) 0.96273(7)
C14_4 C 0.44343(14) 0.1894(3) 0.99298(7)
C16_4 C 0.35022(17) 0.1032(4) 0.91823(7)
H10_4 H 0.3120 0.1325 0.9195
H11_4 H 0.3710 0.1550 0.9048
H12_4 H 0.3491 0.0243 0.9092
H14_4 H 0.5157 0.2923 0.9959
H15_4 H 0.4600 0.3677 0.9989
C18_4 C 0.42237(16) 0.3012(3) 0.94130(8)
H16_4 H 0.4324 0.3711 0.9542
H17_4 H 0.3877 0.3181 0.9282
C19_4 C 0.49607(15) 0.3563(3) 0.90553(8)
C20_4 C 0.51635(19) 0.3226(3) 0.87671(9)
H18_4 H 0.5075 0.2472 0.8685
C21_4 C 0.54941(17) 0.3974(3) 0.85965(8)
H19_4 H 0.5622 0.3729 0.8400
C22_2 C 0.56392(14) 0.5104(3) 0.87173(8)
C23_2 C 0.54236(15) 0.5441(3) 0.90024(8)
H20_2 H 0.5510 0.6196 0.9084
C24_4 C 0.50802(17) 0.4689(3) 0.91730(9)
H21_4 H 0.4933 0.4942 0.9364
C25_2 C 0.60497(14) 0.5865(3) 0.85444(9)
O4_4 O 0.46742(11) 0.27060(19) 0.92160(6)
O6_2 O 0.61341(11) 0.5654(2) 0.82637(6)
C58_4 C 0.58850(13) 0.0271(3) 0.38032(6)
H53_4 H 0.6269 0.0309 0.3872
C59_4 C 0.54695(13) 0.0568(3) 0.40121(6)
C60_4 C 0.48969(13) 0.0506(3) 0.39114(6)
H54_4 H 0.4616 0.0687 0.4052
C61_4 C 0.47503(13) 0.0172(3) 0.35986(6)
H55_4 H 0.4367 0.0146 0.3528
C62_4 C 0.52691(14) 0.0772(3) 0.45656(6)
H56_4 H 0.4978 0.1388 0.4547
H57_4 H 0.5083 -0.0000 0.4549
C63_4 C 0.56115(14) 0.0880(3) 0.48821(6)
C65_4 C 0.62673(14) 0.0013(3) 0.52843(7)
C66_4 C 0.62046(14) 0.0997(3) 0.54829(6)
C67_4 C 0.58620(13) 0.1945(3) 0.53727(7)
C68_4 C 0.55657(14) 0.1894(3) 0.50702(7)
C70_4 C 0.64978(17) 0.1032(4) 0.58177(7)
H61_4 H 0.6880 0.1325 0.5805
H62_4 H 0.6290 0.1550 0.5952
H63_4 H 0.6509 0.0243 0.5908
C71_4 C 0.5208(2) 0.2948(4) 0.49492(10)
H64_4 H 0.5156 0.2913 0.4719
H65_4 H 0.4843 0.2923 0.5041
H66_4 H 0.5400 0.3677 0.5011
C72_4 C 0.57763(16) 0.3012(3) 0.55870(8)
H67_4 H 0.5676 0.3711 0.5458
H68_4 H 0.6123 0.3181 0.5718
C73_4 C 0.50393(15) 0.3563(3) 0.59447(8)
C74_4 C 0.48365(19) 0.3226(3) 0.62329(9)
H69_4 H 0.4925 0.2472 0.6315
C75_4 C 0.45059(17) 0.3974(3) 0.64035(8)
H70_4 H 0.4378 0.3729 0.6600
C76_2 C 0.43608(14) 0.5104(3) 0.62827(8)
C77_2 C 0.45764(15) 0.5441(3) 0.59976(8)
H71_2 H 0.4490 0.6196 0.5916
C78_4 C 0.49198(17) 0.4689(3) 0.58270(9)
H72_4 H 0.5067 0.4942 0.5636
C79_2 C 0.39503(14) 0.5865(3) 0.64556(9)
O14_4 O 0.56625(9) 0.0906(2) 0.43163(4)
O15_4 O 0.53258(11) 0.27060(19) 0.57840(6)
O19_2 O 0.38659(11) 0.5654(2) 0.67363(6)
C76_3 C 0.06392(14) 0.9896(3) 0.37173(8)
C77_3 C 0.04236(15) 0.9559(3) 0.40024(8)
H71_3 H 0.0510 0.8804 0.4084
C79_3 C 0.10497(14) 0.9135(3) 0.35444(9)
O16 O 0.13133(9) 0.83254(18) 0.37264(6)
O19_3 O 0.11341(11) 0.9346(2) 0.32637(6)
Zn7 Zn 0.195160(14) 0.74929(2) 0.353970(7)
C22_3 C 0.93608(14) 0.9896(3) 0.12827(8)
C23_3 C 0.95764(15) 0.9559(3) 0.09976(8)
H20_3 H 0.9490 0.8804 0.0916
C25_3 C 0.89503(14) 0.9135(3) 0.14556(9)
O5 O 0.86867(9) 0.83254(18) 0.12736(6)
O6_3 O 0.88659(11) 0.9346(2) 0.17363(6)
Zn6 Zn 0.804840(14) 0.74929(2) 0.146030(7)
H28_3 H 0.7859 0.0225 0.1337
H29_3 H 0.6443 0.0079 0.1798
C37_3 C 0.70915(14) 0.1921(2) 0.15120(6)
H31_3 H 0.6734 0.2103 0.1393
H32_3 H 0.7399 0.2195 0.1385
C38_3 C 0.71163(14) 0.2591(2) 0.18248(6)
C39_3 C 0.76491(13) 0.2894(2) 0.19712(7)
C40_3 C 0.76748(13) 0.3610(2) 0.22464(6)
C41_3 C 0.71758(14) 0.4000(2) 0.23794(6)
C42_3 C 0.66496(13) 0.3639(2) 0.22421(6)
C43_3 C 0.66092(13) 0.2950(2) 0.19597(7)
C44_3 C 0.81853(14) 0.2501(3) 0.18190(8)
H33_3 H 0.8505 0.2941 0.1912
H34_3 H 0.8147 0.2646 0.1591
H35_3 H 0.8245 0.1664 0.1857
C45_3 C 0.71958(16) 0.4883(3) 0.26585(7)
H36_3 H 0.6969 0.5570 0.2599
H37_3 H 0.7584 0.5123 0.2709
H38_3 H 0.7047 0.4511 0.2844
C46_3 C 0.60274(14) 0.2643(3) 0.18073(8)
H39_3 H 0.5864 0.2007 0.1926
H40_3 H 0.6064 0.2396 0.1588
H41_3 H 0.5784 0.3331 0.1811
C47_3 C 0.61178(14) 0.4039(2) 0.23984(7)
H42_3 H 0.5802 0.3521 0.2330
H43_3 H 0.6178 0.3971 0.2631
C48_3 C 0.60562(13) 0.5885(2) 0.20305(7)
H44_3 H 0.6242 0.5596 0.1855
C49_3 C 0.58194(12) 0.6963(2) 0.20589(6)
H45_3 H 0.5817 0.7560 0.1904
C50_3 C 0.56866(12) 0.6015(2) 0.24957(6)
H46_3 H 0.5575 0.5820 0.2700
C51_3 C 0.82405(13) 0.4089(2) 0.23833(7)
H47_3 H 0.8225 0.4218 0.2613
H48_3 H 0.8542 0.3519 0.2349
C52_3 C 0.80557(13) 0.5708(2) 0.19735(6)
H49_3 H 0.7713 0.5399 0.1885
C53_3 C 0.88362(13) 0.5922(2) 0.22806(7)
H50_3 H 0.9126 0.5803 0.2440
C54_3 C 0.88007(13) 0.6806(2) 0.20640(6)
H51_3 H 0.9068 0.7411 0.2046
N2_3 N 0.71390(10) 0.06090(18) 0.15526(5)
N3_2 N 0.83019(10) 0.66797(18) 0.18694(5)
N4_3 N 0.83609(10) 0.52260(18) 0.22214(5)
N5_3 N 0.59697(10) 0.52911(18) 0.23126(5)
N6_3 N 0.55807(9) 0.70543(18) 0.23520(5)
Zn2_3 Zn 0.5000 0.82681(3) 0.2500
H79_3 H 0.2141 0.0225 0.3663
H80_3 H 0.3557 0.0079 0.3202
C91_3 C 0.29085(14) 0.1921(2) 0.34880(6)
H82_3 H 0.3266 0.2103 0.3607
H83_3 H 0.2601 0.2195 0.3615
C92_3 C 0.28837(14) 0.2591(2) 0.31752(6)
C93_3 C 0.23509(13) 0.2894(2) 0.30288(7)
C94_3 C 0.23252(13) 0.3610(2) 0.27536(6)
C95_3 C 0.28242(14) 0.4000(2) 0.26206(6)
C96_3 C 0.33504(13) 0.3639(2) 0.27579(6)
C97_3 C 0.33908(13) 0.2950(2) 0.30403(7)
C98_3 C 0.18147(14) 0.2501(3) 0.31810(8)
H84_3 H 0.1495 0.2941 0.3088
H85_3 H 0.1853 0.2646 0.3409
H86_3 H 0.1755 0.1664 0.3143
C99_3 C 0.28042(16) 0.4883(3) 0.23415(7)
H87_3 H 0.3031 0.5570 0.2401
H88_3 H 0.2416 0.5123 0.2291
H89_3 H 0.2953 0.4511 0.2156
C100_3 C 0.39726(14) 0.2643(3) 0.31927(8)
H90_3 H 0.4136 0.2007 0.3074
H91_3 H 0.3936 0.2396 0.3412
H92_3 H 0.4216 0.3331 0.3189
C101_3 C 0.38822(14) 0.4039(2) 0.26016(7)
H93_3 H 0.4198 0.3521 0.2670
H94_3 H 0.3822 0.3971 0.2369
C102_3 C 0.39438(13) 0.5885(2) 0.29695(7)
H95_3 H 0.3758 0.5596 0.3145
C103_3 C 0.41806(12) 0.6963(2) 0.29411(6)
H96_3 H 0.4183 0.7560 0.3096
C104_3 C 0.43134(12) 0.6015(2) 0.25043(6)
H97_3 H 0.4425 0.5820 0.2300
C105_3 C 0.17595(13) 0.4089(2) 0.26167(7)
H98_3 H 0.1775 0.4218 0.2387
H99_3 H 0.1458 0.3519 0.2651
C106_3 C 0.19443(13) 0.5708(2) 0.30265(6)
H100_3 H 0.2287 0.5399 0.3115
C107_3 C 0.11638(13) 0.5922(2) 0.27194(7)
H101_3 H 0.0874 0.5803 0.2560
C108_3 C 0.11993(13) 0.6806(2) 0.29360(6)
H102_3 H 0.0932 0.7411 0.2954
N8_3 N 0.28610(10) 0.06090(18) 0.34474(5)
N9_2 N 0.16981(10) 0.66797(18) 0.31306(5)
N12_3 N 0.16391(10) 0.52260(18) 0.27786(5)
N13_3 N 0.40303(10) 0.52911(18) 0.26874(5)
N14_3 N 0.44193(9) 0.70543(18) 0.26480(5)
O11_2 O 0.46530(8) 0.89051(16) 0.20999(4)
O12_2 O 0.53470(8) 0.89051(16) 0.29001(4)
C26_3 C 0.66485(15) 0.1017(3) 0.03927(8)
H22_3 H 0.6958 0.0737 0.0538
H23_3 H 0.6810 0.1390 0.0209
C27_3 C 0.65656(14) 0.2832(3) 0.06998(7)
C28_3 C 0.71246(14) 0.3135(3) 0.06724(7)
H24_3 H 0.7352 0.2688 0.0542
C29_3 C 0.73523(14) 0.4122(3) 0.08407(7)
H25_3 H 0.7731 0.4334 0.0819
C30_3 C 0.70245(13) 0.4783(2) 0.10378(6)
C31_3 C 0.64590(13) 0.4461(2) 0.10619(7)
H26_3 H 0.6231 0.4897 0.1195
C32_3 C 0.62285(13) 0.3500(3) 0.08912(7)
H27_3 H 0.5846 0.3305 0.0906
C33_3 C 0.72717(13) 0.5793(2) 0.12407(7)
C34_3 C 0.75525(12) 0.9933(2) 0.14455(6)
C35_3 C 0.67724(12) 0.9863(2) 0.16986(6)
C36_3 C 0.69818(12) 0.8760(2) 0.16703(6)
H30_3 H 0.6817 0.8070 0.1747
N1_3 N 0.74747(10) 0.88036(18) 0.15118(5)
O7_3 O 0.62968(9) 0.18607(19) 0.05549(5)
O8_3 O 0.70193(9) 0.61234(17) 0.14766(5)
O9_3 O 0.77454(9) 0.62465(16) 0.11597(4)
C55_3 C 0.50196(13) 0.0493(2) 0.69526(6)
C56_3 C 0.48408(12) 0.0125(2) 0.66140(6)
C57_3 C 0.42740(12) 0.0078(2) 0.65059(6)
H52_3 H 0.3994 0.0287 0.6645
H57_5 H 0.4917 0.0000 0.5451
C64_3 C 0.40326(14) 0.0057(3) 0.50177(7)
C69_3 C 0.39818(19) 0.1147(3) 0.52291(8)
H58_3 H 0.3655 0.1065 0.5355
H59_3 H 0.3939 0.1845 0.5096
H60_3 H 0.4320 0.1222 0.5370
C80_3 C 0.33515(15) 0.1017(3) 0.46073(8)
H73_3 H 0.3042 0.0737 0.4462
H74_3 H 0.3190 0.1390 0.4791
C81_3 C 0.34344(14) 0.2832(3) 0.43002(7)
C82_3 C 0.28754(14) 0.3135(3) 0.43276(7)
H75_3 H 0.2648 0.2688 0.4458
C83_3 C 0.26477(14) 0.4122(3) 0.41593(7)
H76_3 H 0.2269 0.4334 0.4181
C84_3 C 0.29755(13) 0.4783(2) 0.39622(6)
C85_3 C 0.35410(13) 0.4461(2) 0.39381(7)
H77_3 H 0.3769 0.4897 0.3805
C86_3 C 0.37715(13) 0.3500(3) 0.41088(7)
H78_3 H 0.4154 0.3305 0.4094
C87_3 C 0.27283(13) 0.5793(2) 0.37593(7)
C88_3 C 0.24475(12) 0.9933(2) 0.35545(6)
C89_3 C 0.32276(12) 0.9863(2) 0.33014(6)
C90_3 C 0.30182(12) 0.8760(2) 0.33297(6)
H81_3 H 0.3183 0.8070 0.3253
N7_3 N 0.25253(10) 0.88036(18) 0.34882(5)
O10_2 O 0.46530(8) 0.10949(16) 0.70999(4)
O13_3 O 0.55011(10) 0.02539(17) 0.70689(4)
O20_3 O 0.37032(9) 0.18607(19) 0.44451(5)
O21_3 O 0.29807(9) 0.61234(17) 0.35234(5)
O22_3 O 0.22546(9) 0.62465(16) 0.38403(4)
Zn9_3 Zn 0.5000 0.17319(3) 0.7500
C1_3 C 0.49804(13) 0.0493(2) 0.80474(6)
C2_3 C 0.51592(12) 0.0125(2) 0.83860(6)
C3_3 C 0.57260(12) 0.0078(2) 0.84941(6)
H1_3 H 0.6006 0.0287 0.8355
H6_3 H 0.5083 0.0000 0.9549
C10_3 C 0.59674(14) 0.0057(3) 0.99823(7)
C15_3 C 0.60182(19) 0.1147(3) 0.97709(8)
H7_3 H 0.6345 0.1065 0.9645
H8_3 H 0.6061 0.1845 0.9904
H9_3 H 0.5680 0.1222 0.9630
O1_2 O 0.53470(8) 0.10949(16) 0.79001(4)
O2_3 O 0.44989(10) 0.02539(17) 0.79311(4)
C22_4 C 0.06392(14) 0.0104(3) 0.87173(8)
C23_4 C 0.04236(15) 0.0441(3) 0.90024(8)
H20_4 H 0.0510 0.1196 0.9084
C25_4 C 0.10497(14) 0.0865(3) 0.85444(9)
O5_2 O 0.13133(9) 0.16746(18) 0.87264(6)
O6_4 O 0.11341(11) 0.0654(2) 0.82637(6)
Zn6_2 Zn 0.195160(14) 0.25071(2) 0.853970(7)
C76_4 C 0.93608(14) 0.0104(3) 0.62827(8)
C77_4 C 0.95764(15) 0.0441(3) 0.59976(8)
H71_4 H 0.9490 0.1196 0.5916
C79_4 C 0.89503(14) 0.0865(3) 0.64556(9)
O16_2 O 0.86867(9) 0.16746(18) 0.62736(6)
O19_4 O 0.88659(11) 0.0654(2) 0.67363(6)
Zn7_2 Zn 0.804840(14) 0.25071(2) 0.646030(7)
C1_4 C 0.50196(13) 0.9507(2) 0.19526(6)
C2_4 C 0.48408(12) 0.9875(2) 0.16140(6)
C3_4 C 0.42740(12) 0.9922(2) 0.15059(6)
H1_4 H 0.3994 0.9713 0.1645
H6_4 H 0.4917 1.0000 0.0451
C10_4 C 0.40326(14) 0.9943(3) 0.00177(7)
C15_4 C 0.39818(19) 0.8853(3) 0.02291(8)
H7_4 H 0.3655 0.8935 0.0355
H8_4 H 0.3939 0.8155 0.0096
H9_4 H 0.4320 0.8778 0.0370
O2_4 O 0.55011(10) 0.97461(17) 0.20689(4)
C26_4 C 0.33515(15) 0.8983(3) 0.96073(8)
H22_4 H 0.3042 0.9263 0.9462
H23_4 H 0.3190 0.8610 0.9791
C27_4 C 0.34344(14) 0.7168(3) 0.93002(7)
C28_4 C 0.28754(14) 0.6865(3) 0.93276(7)
H24_4 H 0.2648 0.7312 0.9458
C29_4 C 0.26477(14) 0.5878(3) 0.91593(7)
H25_4 H 0.2269 0.5666 0.9181
C30_4 C 0.29755(13) 0.5217(2) 0.89622(6)
C31_4 C 0.35410(13) 0.5539(2) 0.89381(7)
H26_4 H 0.3769 0.5103 0.8805
C32_4 C 0.37715(13) 0.6500(3) 0.91088(7)
H27_4 H 0.4154 0.6695 0.9094
C33_4 C 0.27283(13) 0.4207(2) 0.87593(7)
C34_4 C 0.24475(12) 0.0067(2) 0.85545(6)
C35_4 C 0.32276(12) 0.0137(2) 0.83014(6)
C36_4 C 0.30182(12) 0.1240(2) 0.83297(6)
H30_4 H 0.3183 0.1930 0.8253
N1_4 N 0.25253(10) 0.11964(18) 0.84882(5)
O7_4 O 0.37032(9) 0.81393(19) 0.94451(5)
O8_4 O 0.29807(9) 0.38766(17) 0.85234(5)
O9_4 O 0.22546(9) 0.37535(16) 0.88403(4)
C55_4 C 0.49804(13) 0.9507(2) 0.30474(6)
C56_4 C 0.51592(12) 0.9875(2) 0.33860(6)
C57_4 C 0.57260(12) 0.9922(2) 0.34941(6)
H52_4 H 0.6006 0.9713 0.3355
H57_6 H 0.5083 1.0000 0.4549
C64_4 C 0.59674(14) 0.9943(3) 0.49823(7)
C69_4 C 0.60182(19) 0.8853(3) 0.47709(8)
H58_4 H 0.6345 0.8935 0.4645
H59_4 H 0.6061 0.8155 0.4904
H60_4 H 0.5680 0.8778 0.4630
C80_4 C 0.66485(15) 0.8983(3) 0.53927(8)
H73_4 H 0.6958 0.9263 0.5538
H74_4 H 0.6810 0.8610 0.5209
C81_4 C 0.65656(14) 0.7168(3) 0.56998(7)
C82_4 C 0.71246(14) 0.6865(3) 0.56724(7)
H75_4 H 0.7352 0.7312 0.5542
C83_4 C 0.73523(14) 0.5878(3) 0.58407(7)
H76_4 H 0.7731 0.5666 0.5819
C84_4 C 0.70245(13) 0.5217(2) 0.60378(6)
C85_4 C 0.64590(13) 0.5539(2) 0.60619(7)
H77_4 H 0.6231 0.5103 0.6195
C86_4 C 0.62285(13) 0.6500(3) 0.58912(7)
H78_4 H 0.5846 0.6695 0.5906
C87_4 C 0.72717(13) 0.4207(2) 0.62407(7)
C88_4 C 0.75525(12) 0.0067(2) 0.64455(6)
C89_4 C 0.67724(12) 0.0137(2) 0.66986(6)
C90_4 C 0.69818(12) 0.1240(2) 0.66703(6)
H81_4 H 0.6817 0.1930 0.6747
N7_4 N 0.74747(10) 0.11964(18) 0.65118(5)
N10_2 N 0.16981(10) 0.33203(18) 0.81306(5)
N11_2 N 0.83019(10) 0.33203(18) 0.68694(5)
O13_4 O 0.44989(10) 0.97461(17) 0.29311(4)
O20_4 O 0.62968(9) 0.81393(19) 0.55549(5)
O21_4 O 0.70193(9) 0.38766(17) 0.64766(5)
O22_4 O 0.77454(9) 0.37535(16) 0.61597(4)
H28_4 H 0.2141 0.9775 0.8663
H29_4 H 0.3557 0.9921 0.8202
C37_4 C 0.29085(14) 0.8079(2) 0.84880(6)
H31_4 H 0.3266 0.7897 0.8607
H32_4 H 0.2601 0.7805 0.8615
C38_4 C 0.28837(14) 0.7409(2) 0.81752(6)
C39_4 C 0.23509(13) 0.7106(2) 0.80288(7)
C40_4 C 0.23252(13) 0.6390(2) 0.77536(6)
C41_4 C 0.28242(14) 0.6000(2) 0.76206(6)
C42_4 C 0.33504(13) 0.6361(2) 0.77579(6)
C43_4 C 0.33908(13) 0.7050(2) 0.80403(7)
C44_4 C 0.18147(14) 0.7499(3) 0.81810(8)
H33_4 H 0.1495 0.7059 0.8088
H34_4 H 0.1853 0.7354 0.8409
H35_4 H 0.1755 0.8336 0.8143
C45_4 C 0.28042(16) 0.5117(3) 0.73415(7)
H36_4 H 0.3031 0.4430 0.7401
H37_4 H 0.2416 0.4877 0.7291
H38_4 H 0.2953 0.5489 0.7156
C46_4 C 0.39726(14) 0.7357(3) 0.81927(8)
H39_4 H 0.4136 0.7993 0.8074
H40_4 H 0.3936 0.7604 0.8412
H41_4 H 0.4216 0.6669 0.8189
C47_4 C 0.38822(14) 0.5961(2) 0.76016(7)
H42_4 H 0.4198 0.6479 0.7670
H43_4 H 0.3822 0.6029 0.7369
C48_4 C 0.39438(13) 0.4115(2) 0.79695(7)
H44_4 H 0.3758 0.4404 0.8145
C49_4 C 0.41806(12) 0.3037(2) 0.79411(6)
H45_4 H 0.4183 0.2440 0.8096
C50_4 C 0.43134(12) 0.3985(2) 0.75043(6)
H46_4 H 0.4425 0.4180 0.7300
C51_4 C 0.17595(13) 0.5911(2) 0.76167(7)
H47_4 H 0.1775 0.5782 0.7387
H48_4 H 0.1458 0.6481 0.7651
C52_4 C 0.19443(13) 0.4292(2) 0.80265(6)
H49_4 H 0.2287 0.4601 0.8115
C53_4 C 0.11638(13) 0.4078(2) 0.77194(7)
H50_4 H 0.0874 0.4197 0.7560
C54_4 C 0.11993(13) 0.3194(2) 0.79360(6)
H51_4 H 0.0932 0.2589 0.7954
N2_4 N 0.28610(10) 0.93910(18) 0.84474(5)
N4_4 N 0.16391(10) 0.47740(18) 0.77786(5)
N5_4 N 0.40303(10) 0.47089(18) 0.76874(5)
N6_4 N 0.44193(9) 0.29457(18) 0.76480(5)
H79_4 H 0.7859 0.9775 0.6337
H80_4 H 0.6443 0.9921 0.6798
C91_4 C 0.70915(14) 0.8079(2) 0.65120(6)
H82_4 H 0.6734 0.7897 0.6393
H83_4 H 0.7399 0.7805 0.6385
C92_4 C 0.71163(14) 0.7409(2) 0.68248(6)
C93_4 C 0.76491(13) 0.7106(2) 0.69712(7)
C94_4 C 0.76748(13) 0.6390(2) 0.72464(6)
C95_4 C 0.71758(14) 0.6000(2) 0.73794(6)
C96_4 C 0.66496(13) 0.6361(2) 0.72421(6)
C97_4 C 0.66092(13) 0.7050(2) 0.69597(7)
C98_4 C 0.81853(14) 0.7499(3) 0.68190(8)
H84_4 H 0.8505 0.7059 0.6912
H85_4 H 0.8147 0.7354 0.6591
H86_4 H 0.8245 0.8336 0.6857
C99_4 C 0.71958(16) 0.5117(3) 0.76585(7)
H87_4 H 0.6969 0.4430 0.7599
H88_4 H 0.7584 0.4877 0.7709
H89_4 H 0.7047 0.5489 0.7844
C100_4 C 0.60274(14) 0.7357(3) 0.68073(8)
H90_4 H 0.5864 0.7993 0.6926
H91_4 H 0.6064 0.7604 0.6588
H92_4 H 0.5784 0.6669 0.6811
C101_4 C 0.61178(14) 0.5961(2) 0.73984(7)
H93_4 H 0.5802 0.6479 0.7330
H94_4 H 0.6178 0.6029 0.7631
C102_4 C 0.60562(13) 0.4115(2) 0.70305(7)
H95_4 H 0.6242 0.4404 0.6855
C103_4 C 0.58194(12) 0.3037(2) 0.70589(6)
H96_4 H 0.5817 0.2440 0.6904
C104_4 C 0.56866(12) 0.3985(2) 0.74957(6)
H97_4 H 0.5575 0.4180 0.7700
C105_4 C 0.82405(13) 0.5911(2) 0.73833(7)
H98_4 H 0.8225 0.5782 0.7613
H99_4 H 0.8542 0.6481 0.7349
C106_4 C 0.80557(13) 0.4292(2) 0.69735(6)
H100_4 H 0.7713 0.4601 0.6885
C107_4 C 0.88362(13) 0.4078(2) 0.72806(7)
H101_4 H 0.9126 0.4197 0.7440
C108_4 C 0.88007(13) 0.3194(2) 0.70640(6)
H102_4 H 0.9068 0.2589 0.7046
N8_4 N 0.71390(10) 0.93910(18) 0.65526(5)
N12_4 N 0.83609(10) 0.47740(18) 0.72214(5)
N13_4 N 0.59697(10) 0.47089(18) 0.73126(5)
N14_4 N 0.55807(9) 0.29457(18) 0.73520(5)
C4_3 C 0.58850(13) 0.9729(3) 0.88032(6)
H2_3 H 0.6269 0.9691 0.8872
C5_3 C 0.54695(13) 0.9432(3) 0.90121(6)
C6_3 C 0.48969(13) 0.9494(3) 0.89114(6)
H3_3 H 0.4616 0.9313 0.9052
C7_3 C 0.47503(13) 0.9828(3) 0.85986(6)
H4_3 H 0.4367 0.9854 0.8528
C8_3 C 0.52691(14) 0.9228(3) 0.95656(6)
H5_3 H 0.4978 0.8612 0.9547
H6_5 H 0.5083 1.0000 0.9549
C9_3 C 0.56115(14) 0.9120(3) 0.98821(6)
C17_3 C 0.5208(2) 0.7052(4) 0.99492(10)
H13_3 H 0.5156 0.7087 0.9719
O3_3 O 0.56625(9) 0.9094(2) 0.93163(4)
C4_4 C 0.41150(13) 0.0271(3) 0.11968(6)
H2_4 H 0.3731 0.0309 0.1128
C5_4 C 0.45305(13) 0.0568(3) 0.09879(6)
C6_4 C 0.51031(13) 0.0506(3) 0.10886(6)
H3_4 H 0.5384 0.0687 0.0948
C7_4 C 0.52497(13) 0.0172(3) 0.14014(6)
H4_4 H 0.5633 0.0146 0.1472
C8_4 C 0.47309(14) 0.0772(3) 0.04344(6)
H5_4 H 0.5022 0.1388 0.0453
H6_6 H 0.4917 -0.0000 0.0451
C9_4 C 0.43885(14) 0.0880(3) 0.01179(6)
C17_4 C 0.4792(2) 0.2948(4) 0.00508(10)
H13_4 H 0.4844 0.2913 0.0281
O3_4 O 0.43375(9) 0.0906(2) 0.06837(4)
loop_
_geom_bond_atom_site_label_1
_geom_bond_atom_site_label_2
_geom_bond_site_symmetry_1
_geom_bond_site_symmetry_2
C48 H44 1_555 1_555
C49 C48 1_555 1_555
H45 C49 1_555 1_555
C50 H46 1_555 1_555
C52 H49 1_555 1_555
C53 H50 1_555 1_555
C54 C53 1_555 1_555
H51 C54 1_555 1_555
N3 C52 1_555 1_555
N6 C49 1_555 1_555
Zn2 N6 1_555 1_555
O12 Zn2 1_555 1_555
Zn4 N3 1_555 1_555
C48 N5 1_555 1_555
C50 N5 1_555 1_555
C50 N6 1_555 1_555
C52 N4 1_555 1_555
C53 N4 1_555 1_555
C54 N3 1_555 1_555
C34 H28 1_555 1_555
C35 H29 1_555 1_555
C36 C35 1_555 1_555
H30 C36 1_555 1_555
C37 H31 1_555 1_555
H32 C37 1_555 1_555
C38 C37 1_555 1_555
C39 C38 1_555 1_555
C40 C39 1_555 1_555
C41 C40 1_555 1_555
C42 C41 1_555 1_555
C43 C38 1_555 1_555
C44 C39 1_555 1_555
H33 C44 1_555 1_555
H34 C44 1_555 1_555
H35 C44 1_555 1_555
C45 C41 1_555 1_555
H38 C45 1_555 1_555
C46 C43 1_555 1_555
H39 C46 1_555 1_555
H40 C46 1_555 1_555
H41 C46 1_555 1_555
C47 C42 1_555 1_555
H42 C47 1_555 1_555
H43 C47 1_555 1_555
C51 C40 1_555 1_555
H47 C51 1_555 1_555
H48 C51 1_555 1_555
N1 C34 1_555 1_555
N2 C34 1_555 1_555
O8 C33 1_555 1_555
O9 C33 1_555 1_555
Zn4 N1 1_555 1_555
O17 Zn4 1_555 1_555
C35 N2 1_555 1_555
C36 N1 1_555 1_555
C37 N2 1_555 1_555
C42 C43 1_555 1_555
O9 Zn4 1_555 1_555
C102 H95 1_555 1_555
C103 C102 1_555 1_555
H96 C103 1_555 1_555
C104 H97 1_555 1_555
C106 H100 1_555 1_555
C107 H101 1_555 1_555
C108 C107 1_555 1_555
H102 C108 1_555 1_555
N9 C106 1_555 1_555
N14 Zn2_2 1_555 1_555
O11 Zn2_2 1_555 1_555
Zn5 N9 1_555 1_555
C102 N13 1_555 1_555
C103 N14 1_555 1_555
C104 N13 1_555 1_555
C104 N14 1_555 1_555
C106 N12 1_555 1_555
C107 N12 1_555 1_555
C108 N9 1_555 1_555
C88 H79 1_555 1_555
C89 H80 1_555 1_555
C90 C89 1_555 1_555
H81 C90 1_555 1_555
C91 H82 1_555 1_555
H83 C91 1_555 1_555
C92 C91 1_555 1_555
C93 C92 1_555 1_555
C94 C93 1_555 1_555
C95 C94 1_555 1_555
C96 C95 1_555 1_555
C97 C92 1_555 1_555
C98 C93 1_555 1_555
H84 C98 1_555 1_555
H85 C98 1_555 1_555
H86 C98 1_555 1_555
C99 C95 1_555 1_555
H89 C99 1_555 1_555
C100 C97 1_555 1_555
H90 C100 1_555 1_555
H91 C100 1_555 1_555
H92 C100 1_555 1_555
C101 C96 1_555 1_555
H93 C101 1_555 1_555
H94 C101 1_555 1_555
C105 C94 1_555 1_555
H98 C105 1_555 1_555
H99 C105 1_555 1_555
N7 C88 1_555 1_555
N8 C88 1_555 1_555
O18 Zn5 1_555 1_555
O21 C87 1_555 1_555
O22 C87 1_555 1_555
Zn5 N7 1_555 1_555
C89 N8 1_555 1_555
C90 N7 1_555 1_555
C91 N8 1_555 1_555
C96 C97 1_555 1_555
O22 Zn5 1_555 1_555
C12 C11 1_555 1_555
C13 C12 1_555 1_555
C16 C12 1_555 1_555
H10 C16 1_555 1_555
H11 C16 1_555 1_555
H12 C16 1_555 1_555
C18 C13 1_555 1_555
H16 C18 1_555 1_555
H17 C18 1_555 1_555
C19 C20 1_555 1_555
C20 H18 1_555 1_555
C21 C20 1_555 1_555
H19 C21 1_555 1_555
C22 C21 1_555 1_555
C23 C22 1_555 1_555
H20 C23 1_555 1_555
C24 C19 1_555 1_555
H21 C24 1_555 1_555
C25 C22 1_555 1_555
O4 C18 1_555 1_555
O17 C25 1_555 1_555
O6 C25 1_555 1_555
H53 C58 1_555 1_555
C59 C58 1_555 1_555
C60 C59 1_555 1_555
H54 C60 1_555 1_555
H55 C61 1_555 1_555
C62 H56 1_555 1_555
H57 C62 1_555 1_555
C63 C62 1_555 1_555
C66 C65 1_555 1_555
C67 C66 1_555 1_555
C68 C63 1_555 1_555
C70 C66 1_555 1_555
H61 C70 1_555 1_555
H62 C70 1_555 1_555
H63 C70 1_555 1_555
C71 C68 1_555 1_555
H64 C71 1_555 1_555
H65 C71 1_555 1_555
H66 C71 1_555 1_555
C72 C67 1_555 1_555
H67 C72 1_555 1_555
H68 C72 1_555 1_555
C73 C74 1_555 1_555
C74 H69 1_555 1_555
C75 C74 1_555 1_555
H70 C75 1_555 1_555
C76 C75 1_555 1_555
C77 C76 1_555 1_555
H71 C77 1_555 1_555
C78 C73 1_555 1_555
H72 C78 1_555 1_555
C79 C76 1_555 1_555
O14 C59 1_555 1_555
O15 C72 1_555 1_555
O18 C79 1_555 1_555
O19 C79 1_555 1_555
C13 C14 1_555 1_555
C19 O4 1_555 1_555
C23 C24 1_555 1_555
C60 C61 1_555 1_555
C62 O14 1_555 1_555
C67 C68 1_555 1_555
C73 O15 1_555 1_555
C77 C78 1_555 1_555
H3 C6 1_555 1_555
H4 C7 1_555 1_555
O2 C1 1_555 1_555
C6 C7 1_555 1_555
C20_2 H18_2 1_555 1_555
C21_2 C20_2 1_555 1_555
H19_2 C21_2 1_555 1_555
C56 C57 1_555 1_555
C57 H52 1_555 1_555
C58_2 C57 1_555 1_555
H53_2 C58_2 1_555 1_555
C59_2 C58_2 1_555 1_555
H57_2 C62_2 1_555 1_555
C63_2 C62_2 1_555 1_555
C64 C63_2 1_555 1_555
C65_2 C64 1_555 1_555
C66_2 C65_2 1_555 1_555
C67_2 C66_2 1_555 1_555
C68_2 C63_2 1_555 1_555
C69 C64 1_555 1_555
H58 C69 1_555 1_555
H59 C69 1_555 1_555
H60 C69 1_555 1_555
C70_2 C66_2 1_555 1_555
H61_2 C70_2 1_555 1_555
H62_2 C70_2 1_555 1_555
H63_2 C70_2 1_555 1_555
C71_2 C68_2 1_555 1_555
H64_2 C71_2 1_555 1_555
H66_2 C71_2 1_555 1_555
C72_2 C67_2 1_555 1_555
H67_2 C72_2 1_555 1_555
H68_2 C72_2 1_555 1_555
C80 C65_2 1_555 1_555
H73 C80 1_555 1_555
H74 C80 1_555 1_555
C81 C82 1_555 1_555
C82 H75 1_555 1_555
C83 C82 1_555 1_555
H76 C83 1_555 1_555
C84 C83 1_555 1_555
C85 C84 1_555 1_555
H77 C85 1_555 1_555
C86 C81 1_555 1_555
H78 C86 1_555 1_555
O14_2 C59_2 1_555 1_555
O15_2 C72_2 1_555 1_555
O20 C80 1_555 1_555
C62_2 O14_2 1_555 1_555
C67_2 C68_2 1_555 1_555
C73_2 O15_2 1_555 1_555
C81 O20 1_555 1_555
C85 C86 1_555 1_555
C2 C3 1_555 1_555
C3 H1 1_555 1_555
C4 C3 1_555 1_555
H2 C4 1_555 1_555
C5 C4 1_555 1_555
H6 C8 1_555 1_555
C9 C8 1_555 1_555
C10 C9 1_555 1_555
C15 C10 1_555 1_555
H7 C15 1_555 1_555
H8 C15 1_555 1_555
H9 C15 1_555 1_555
H13 C17 1_555 1_555
O3 C5 1_555 1_555
C8 O3 1_555 1_555
C12_2 C11_2 1_555 1_555
C13_2 C12_2 1_555 1_555
C16_2 C12_2 1_555 1_555
H10_2 C16_2 1_555 1_555
H11_2 C16_2 1_555 1_555
H12_2 C16_2 1_555 1_555
C18_2 C13_2 1_555 1_555
H16_2 C18_2 1_555 1_555
H17_2 C18_2 1_555 1_555
C26 C11_2 1_555 1_555
H22 C26 1_555 1_555
H23 C26 1_555 1_555
C27 C28 1_555 1_555
C28 H24 1_555 1_555
C29 C28 1_555 1_555
H25 C29 1_555 1_555
C30 C29 1_555 1_555
C31 C30 1_555 1_555
H26 C31 1_555 1_555
C32 C27 1_555 1_555
H27 C32 1_555 1_555
O4_2 C18_2 1_555 1_555
O7 C26 1_555 1_555
H54_2 C60_2 1_555 1_555
H55_2 C61_2 1_555 1_555
C74_2 H69_2 1_555 1_555
C75_2 C74_2 1_555 1_555
H70_2 C75_2 1_555 1_555
O13 C55 1_555 1_555
C13_2 C14_2 1_555 1_555
C19_2 O4_2 1_555 1_555
C27 O7 1_555 1_555
C31 C32 1_555 1_555
C60_2 C61_2 1_555 1_555
C12_3 C11_3 1_555 1_555
C13_3 C12_3 1_555 1_555
C16_3 C12_3 1_555 1_555
H10_3 C16_3 1_555 1_555
H11_3 C16_3 1_555 1_555
H12_3 C16_3 1_555 1_555
C18_3 C13_3 1_555 1_555
H16_3 C18_3 1_555 1_555
H17_3 C18_3 1_555 1_555
C26_2 C11_3 1_555 1_555
H22_2 C26_2 1_555 1_555
H23_2 C26_2 1_555 1_555
C27_2 C28_2 1_555 1_555
C28_2 H24_2 1_555 1_555
C29_2 C28_2 1_555 1_555
H25_2 C29_2 1_555 1_555
C30_2 C29_2 1_555 1_555
C31_2 C30_2 1_555 1_555
H26_2 C31_2 1_555 1_555
C32_2 C27_2 1_555 1_555
H27_2 C32_2 1_555 1_555
O4_3 C18_3 1_555 1_555
O7_2 C26_2 1_555 1_555
H54_3 C60_3 1_555 1_555
H55_3 C61_3 1_555 1_555
C74_3 H69_3 1_555 1_555
C75_3 C74_3 1_555 1_555
H70_3 C75_3 1_555 1_555
O13_2 C55_2 1_555 1_555
C13_3 C14_3 1_555 1_555
C19_3 O4_3 1_555 1_555
C27_2 O7_2 1_555 1_555
C31_2 C32_2 1_555 1_555
C60_3 C61_3 1_555 1_555
C2_2 C3_2 1_555 1_555
C3_2 H1_2 1_555 1_555
C4_2 C3_2 1_555 1_555
H2_2 C4_2 1_555 1_555
C5_2 C4_2 1_555 1_555
H6_2 C8_2 1_555 1_555
C9_2 C8_2 1_555 1_555
C10_2 C9_2 1_555 1_555
C15_2 C10_2 1_555 1_555
H7_2 C15_2 1_555 1_555
H8_2 C15_2 1_555 1_555
H9_2 C15_2 1_555 1_555
H13_2 C17_2 1_555 1_555
O3_2 C5_2 1_555 1_555
Zn9 O1 1_555 1_555
C8_2 O3_2 1_555 1_555
C20_3 H18_3 1_555 1_555
C21_3 C20_3 1_555 1_555
H19_3 C21_3 1_555 1_555
C56_2 C57_2 1_555 1_555
C57_2 H52_2 1_555 1_555
C58_3 C57_2 1_555 1_555
H53_3 C58_3 1_555 1_555
C59_3 C58_3 1_555 1_555
H57_3 C62_3 1_555 1_555
C63_3 C62_3 1_555 1_555
C64_2 C63_3 1_555 1_555
C65_3 C64_2 1_555 1_555
C66_3 C65_3 1_555 1_555
C67_3 C66_3 1_555 1_555
C68_3 C63_3 1_555 1_555
C69_2 C64_2 1_555 1_555
H58_2 C69_2 1_555 1_555
H59_2 C69_2 1_555 1_555
H60_2 C69_2 1_555 1_555
C70_3 C66_3 1_555 1_555
H61_3 C70_3 1_555 1_555
H62_3 C70_3 1_555 1_555
H63_3 C70_3 1_555 1_555
C71_3 C68_3 1_555 1_555
H64_3 C71_3 1_555 1_555
H66_3 C71_3 1_555 1_555
C72_3 C67_3 1_555 1_555
H67_3 C72_3 1_555 1_555
H68_3 C72_3 1_555 1_555
C80_2 C65_3 1_555 1_555
H73_2 C80_2 1_555 1_555
H74_2 C80_2 1_555 1_555
C81_2 C82_2 1_555 1_555
C82_2 H75_2 1_555 1_555
C83_2 C82_2 1_555 1_555
H76_2 C83_2 1_555 1_555
C84_2 C83_2 1_555 1_555
C85_2 C84_2 1_555 1_555
H77_2 C85_2 1_555 1_555
C86_2 C81_2 1_555 1_555
H78_2 C86_2 1_555 1_555
O14_3 C59_3 1_555 1_555
O15_3 C72_3 1_555 1_555
O20_2 C80_2 1_555 1_555
Zn9_2 O10 1_555 1_555
C62_3 O14_3 1_555 1_555
C67_3 C68_3 1_555 1_555
C73_3 O15_3 1_555 1_555
C81_2 O20_2 1_555 1_555
C85_2 C86_2 1_555 1_555
H3_2 C6_2 1_555 1_555
H4_2 C7_2 1_555 1_555
O2_2 C1_2 1_555 1_555
C6_2 C7_2 1_555 1_555
C88_2 H79_2 1_555 1_555
C89_2 H80_2 1_555 1_555
C90_2 C89_2 1_555 1_555
H81_2 C90_2 1_555 1_555
C91_2 H82_2 1_555 1_555
H83_2 C91_2 1_555 1_555
C92_2 C91_2 1_555 1_555
C93_2 C92_2 1_555 1_555
C94_2 C93_2 1_555 1_555
C95_2 C94_2 1_555 1_555
C96_2 C95_2 1_555 1_555
C97_2 C92_2 1_555 1_555
C98_2 C93_2 1_555 1_555
H84_2 C98_2 1_555 1_555
H85_2 C98_2 1_555 1_555
H86_2 C98_2 1_555 1_555
C99_2 C95_2 1_555 1_555
H89_2 C99_2 1_555 1_555
C100_2 C97_2 1_555 1_555
H90_2 C100_2 1_555 1_555
H91_2 C100_2 1_555 1_555
H92_2 C100_2 1_555 1_555
C101_2 C96_2 1_555 1_555
H93_2 C101_2 1_555 1_555
H94_2 C101_2 1_555 1_555
C105_2 C94_2 1_555 1_555
H98_2 C105_2 1_555 1_555
H99_2 C105_2 1_555 1_555
N7_2 C88_2 1_555 1_555
N8_2 C88_2 1_555 1_555
N11 Zn3 1_555 1_555
O18_2 Zn3 1_555 1_555
O21_2 C87_2 1_555 1_555
O22_2 C87_2 1_555 1_555
Zn3 N7_2 1_555 1_555
C89_2 N8_2 1_555 1_555
C90_2 N7_2 1_555 1_555
C91_2 N8_2 1_555 1_555
C96_2 C97_2 1_555 1_555
O22_2 Zn3 1_555 1_555
C102_2 H95_2 1_555 1_555
C103_2 C102_2 1_555 1_555
H96_2 C103_2 1_555 1_555
C104_2 H97_2 1_555 1_555
C106_2 H100_2 1_555 1_555
C107_2 H101_2 1_555 1_555
C108_2 C107_2 1_555 1_555
H102_2 C108_2 1_555 1_555
N11 C106_2 1_555 1_555
N14_2 Zn9 1_555 1_555
C102_2 N13_2 1_555 1_555
C103_2 N14_2 1_555 1_555
C104_2 N13_2 1_555 1_555
C104_2 N14_2 1_555 1_555
C106_2 N12_2 1_555 1_555
C107_2 N12_2 1_555 1_555
C108_2 N11 1_555 1_555
C34_2 H28_2 1_555 1_555
C35_2 H29_2 1_555 1_555
C36_2 C35_2 1_555 1_555
H30_2 C36_2 1_555 1_555
C37_2 H31_2 1_555 1_555
H32_2 C37_2 1_555 1_555
C38_2 C37_2 1_555 1_555
C39_2 C38_2 1_555 1_555
C40_2 C39_2 1_555 1_555
C41_2 C40_2 1_555 1_555
C42_2 C41_2 1_555 1_555
C43_2 C38_2 1_555 1_555
C44_2 C39_2 1_555 1_555
H33_2 C44_2 1_555 1_555
H34_2 C44_2 1_555 1_555
H35_2 C44_2 1_555 1_555
C45_2 C41_2 1_555 1_555
H38_2 C45_2 1_555 1_555
C46_2 C43_2 1_555 1_555
H39_2 C46_2 1_555 1_555
H40_2 C46_2 1_555 1_555
H41_2 C46_2 1_555 1_555
C47_2 C42_2 1_555 1_555
H42_2 C47_2 1_555 1_555
H43_2 C47_2 1_555 1_555
C51_2 C40_2 1_555 1_555
H47_2 C51_2 1_555 1_555
H48_2 C51_2 1_555 1_555
N1_2 C34_2 1_555 1_555
N2_2 C34_2 1_555 1_555
O8_2 C33_2 1_555 1_555
O9_2 C33_2 1_555 1_555
Zn1 N1_2 1_555 1_555
N10 Zn1 1_555 1_555
O17_2 Zn1 1_555 1_555
C35_2 N2_2 1_555 1_555
C36_2 N1_2 1_555 1_555
C37_2 N2_2 1_555 1_555
C42_2 C43_2 1_555 1_555
O9_2 Zn1 1_555 1_555
C48_2 H44_2 1_555 1_555
C49_2 C48_2 1_555 1_555
H45_2 C49_2 1_555 1_555
C50_2 H46_2 1_555 1_555
C52_2 H49_2 1_555 1_555
C53_2 H50_2 1_555 1_555
C54_2 C53_2 1_555 1_555
H51_2 C54_2 1_555 1_555
N10 C52_2 1_555 1_555
N6_2 C49_2 1_555 1_555
Zn9_2 N6_2 1_555 1_555
C48_2 N5_2 1_555 1_555
C50_2 N5_2 1_555 1_555
C50_2 N6_2 1_555 1_555
C52_2 N4_2 1_555 1_555
C53_2 N4_2 1_555 1_555
C54_2 N10 1_555 1_555
C12_4 C11_4 1_555 1_555
C13_4 C12_4 1_555 1_555
C16_4 C12_4 1_555 1_555
H10_4 C16_4 1_555 1_555
H11_4 C16_4 1_555 1_555
H12_4 C16_4 1_555 1_555
C18_4 C13_4 1_555 1_555
H16_4 C18_4 1_555 1_555
H17_4 C18_4 1_555 1_555
C19_4 C20_4 1_555 1_555
C20_4 H18_4 1_555 1_555
C21_4 C20_4 1_555 1_555
H19_4 C21_4 1_555 1_555
C22_2 C21_4 1_555 1_555
C23_2 C22_2 1_555 1_555
H20_2 C23_2 1_555 1_555
C24_4 C19_4 1_555 1_555
H21_4 C24_4 1_555 1_555
C25_2 C22_2 1_555 1_555
O4_4 C18_4 1_555 1_555
O17_2 C25_2 1_555 1_555
O6_2 C25_2 1_555 1_555
H53_4 C58_4 1_555 1_555
C59_4 C58_4 1_555 1_555
C60_4 C59_4 1_555 1_555
H54_4 C60_4 1_555 1_555
H55_4 C61_4 1_555 1_555
C62_4 H56_4 1_555 1_555
H57_4 C62_4 1_555 1_555
C63_4 C62_4 1_555 1_555
C66_4 C65_4 1_555 1_555
C67_4 C66_4 1_555 1_555
C68_4 C63_4 1_555 1_555
C70_4 C66_4 1_555 1_555
H61_4 C70_4 1_555 1_555
H62_4 C70_4 1_555 1_555
H63_4 C70_4 1_555 1_555
C71_4 C68_4 1_555 1_555
H64_4 C71_4 1_555 1_555
H65_4 C71_4 1_555 1_555
H66_4 C71_4 1_555 1_555
C72_4 C67_4 1_555 1_555
H67_4 C72_4 1_555 1_555
H68_4 C72_4 1_555 1_555
C73_4 C74_4 1_555 1_555
C74_4 H69_4 1_555 1_555
C75_4 C74_4 1_555 1_555
H70_4 C75_4 1_555 1_555
C76_2 C75_4 1_555 1_555
C77_2 C76_2 1_555 1_555
H71_2 C77_2 1_555 1_555
C78_4 C73_4 1_555 1_555
H72_4 C78_4 1_555 1_555
C79_2 C76_2 1_555 1_555
O14_4 C59_4 1_555 1_555
O15_4 C72_4 1_555 1_555
O18_2 C79_2 1_555 1_555
O19_2 C79_2 1_555 1_555
C13_4 C14_4 1_555 1_555
C19_4 O4_4 1_555 1_555
C23_2 C24_4 1_555 1_555
C60_4 C61_4 1_555 1_555
C62_4 O14_4 1_555 1_555
C67_4 C68_4 1_555 1_555
C73_4 O15_4 1_555 1_555
C77_2 C78_4 1_555 1_555
C77_3 C76_3 1_555 1_555
H71_3 C77_3 1_555 1_555
C79_3 C76_3 1_555 1_555
O16 C79_3 1_555 1_555
O19_3 C79_3 1_555 1_555
Zn7 O16 1_555 1_555
C23_3 C22_3 1_555 1_555
H20_3 C23_3 1_555 1_555
C25_3 C22_3 1_555 1_555
O5 C25_3 1_555 1_555
O6_3 C25_3 1_555 1_555
Zn6 O5 1_555 1_555
C37_3 H31_3 1_555 1_555
H32_3 C37_3 1_555 1_555
C38_3 C37_3 1_555 1_555
C39_3 C38_3 1_555 1_555
C40_3 C39_3 1_555 1_555
C41_3 C40_3 1_555 1_555
C42_3 C41_3 1_555 1_555
C43_3 C38_3 1_555 1_555
C44_3 C39_3 1_555 1_555
H33_3 C44_3 1_555 1_555
H34_3 C44_3 1_555 1_555
H35_3 C44_3 1_555 1_555
C45_3 C41_3 1_555 1_555
H36_3 C45_3 1_555 1_555
H37_3 C45_3 1_555 1_555
H38_3 C45_3 1_555 1_555
C46_3 C43_3 1_555 1_555
H39_3 C46_3 1_555 1_555
H40_3 C46_3 1_555 1_555
H41_3 C46_3 1_555 1_555
C47_3 C42_3 1_555 1_555
H42_3 C47_3 1_555 1_555
H43_3 C47_3 1_555 1_555
C48_3 H44_3 1_555 1_555
C49_3 C48_3 1_555 1_555
H45_3 C49_3 1_555 1_555
C50_3 H46_3 1_555 1_555
C51_3 C40_3 1_555 1_555
H47_3 C51_3 1_555 1_555
H48_3 C51_3 1_555 1_555
C52_3 H49_3 1_555 1_555
C53_3 H50_3 1_555 1_555
C54_3 C53_3 1_555 1_555
H51_3 C54_3 1_555 1_555
N3_2 C52_3 1_555 1_555
N4_3 C51_3 1_555 1_555
N5_3 C47_3 1_555 1_555
N6_3 C49_3 1_555 1_555
Zn2_3 N6_3 1_555 1_555
C91_3 H82_3 1_555 1_555
H83_3 C91_3 1_555 1_555
C92_3 C91_3 1_555 1_555
C93_3 C92_3 1_555 1_555
C94_3 C93_3 1_555 1_555
C95_3 C94_3 1_555 1_555
C96_3 C95_3 1_555 1_555
C97_3 C92_3 1_555 1_555
C98_3 C93_3 1_555 1_555
H84_3 C98_3 1_555 1_555
H85_3 C98_3 1_555 1_555
H86_3 C98_3 1_555 1_555
C99_3 C95_3 1_555 1_555
H87_3 C99_3 1_555 1_555
H88_3 C99_3 1_555 1_555
H89_3 C99_3 1_555 1_555
C100_3 C97_3 1_555 1_555
H90_3 C100_3 1_555 1_555
H91_3 C100_3 1_555 1_555
H92_3 C100_3 1_555 1_555
C101_3 C96_3 1_555 1_555
H93_3 C101_3 1_555 1_555
H94_3 C101_3 1_555 1_555
C102_3 H95_3 1_555 1_555
C103_3 C102_3 1_555 1_555
H96_3 C103_3 1_555 1_555
C104_3 H97_3 1_555 1_555
C105_3 C94_3 1_555 1_555
H98_3 C105_3 1_555 1_555
H99_3 C105_3 1_555 1_555
C106_3 H100_3 1_555 1_555
C107_3 H101_3 1_555 1_555
C108_3 C107_3 1_555 1_555
H102_3 C108_3 1_555 1_555
N9_2 C106_3 1_555 1_555
N12_3 C105_3 1_555 1_555
N13_3 C101_3 1_555 1_555
N14_3 Zn2_3 1_555 1_555
O11_2 Zn2_3 1_555 1_555
O12_2 Zn2_3 1_555 1_555
Zn6 N3_2 1_555 1_555
Zn7 N9_2 1_555 1_555
C37_3 N2_3 1_555 1_555
C42_3 C43_3 1_555 1_555
C48_3 N5_3 1_555 1_555
C50_3 N5_3 1_555 1_555
C50_3 N6_3 1_555 1_555
C52_3 N4_3 1_555 1_555
C53_3 N4_3 1_555 1_555
C54_3 N3_2 1_555 1_555
C91_3 N8_3 1_555 1_555
C96_3 C97_3 1_555 1_555
C102_3 N13_3 1_555 1_555
C103_3 N14_3 1_555 1_555
C104_3 N13_3 1_555 1_555
C104_3 N14_3 1_555 1_555
C106_3 N12_3 1_555 1_555
C107_3 N12_3 1_555 1_555
C108_3 N9_2 1_555 1_555
H22_3 C26_3 1_555 1_555
H23_3 C26_3 1_555 1_555
C27_3 C28_3 1_555 1_555
C28_3 H24_3 1_555 1_555
C29_3 C28_3 1_555 1_555
H25_3 C29_3 1_555 1_555
C30_3 C29_3 1_555 1_555
C31_3 C30_3 1_555 1_555
H26_3 C31_3 1_555 1_555
C32_3 C27_3 1_555 1_555
H27_3 C32_3 1_555 1_555
C33_3 C30_3 1_555 1_555
C36_3 C35_3 1_555 1_555
H30_3 C36_3 1_555 1_555
N1_3 C34_3 1_555 1_555
O7_3 C26_3 1_555 1_555
O8_3 C33_3 1_555 1_555
O9_3 C33_3 1_555 1_555
Zn6 N1_3 1_555 1_555
C55_3 C56_3 1_555 1_555
C56_3 C57_3 1_555 1_555
C57_3 H52_3 1_555 1_555
C69_3 C64_3 1_555 1_555
H58_3 C69_3 1_555 1_555
H59_3 C69_3 1_555 1_555
H60_3 C69_3 1_555 1_555
H73_3 C80_3 1_555 1_555
H74_3 C80_3 1_555 1_555
C81_3 C82_3 1_555 1_555
C82_3 H75_3 1_555 1_555
C83_3 C82_3 1_555 1_555
H76_3 C83_3 1_555 1_555
C84_3 C83_3 1_555 1_555
C85_3 C84_3 1_555 1_555
H77_3 C85_3 1_555 1_555
C86_3 C81_3 1_555 1_555
H78_3 C86_3 1_555 1_555
C87_3 C84_3 1_555 1_555
C90_3 C89_3 1_555 1_555
H81_3 C90_3 1_555 1_555
N7_3 C88_3 1_555 1_555
O10_2 C55_3 1_555 1_555
O13_3 C55_3 1_555 1_555
O20_3 C80_3 1_555 1_555
O21_3 C87_3 1_555 1_555
O22_3 C87_3 1_555 1_555
Zn7 N7_3 1_555 1_555
Zn9_3 O10_2 1_555 1_555
C27_3 O7_3 1_555 1_555
C31_3 C32_3 1_555 1_555
C36_3 N1_3 1_555 1_555
O9_3 Zn6 1_555 1_555
C81_3 O20_3 1_555 1_555
C85_3 C86_3 1_555 1_555
C90_3 N7_3 1_555 1_555
O22_3 Zn7 1_555 1_555
C1_3 C2_3 1_555 1_555
C2_3 C3_3 1_555 1_555
C3_3 H1_3 1_555 1_555
C15_3 C10_3 1_555 1_555
H7_3 C15_3 1_555 1_555
H8_3 C15_3 1_555 1_555
H9_3 C15_3 1_555 1_555
O1_2 C1_3 1_555 1_555
O2_3 C1_3 1_555 1_555
Zn9_3 O1_2 1_555 1_555
C23_4 C22_4 1_555 1_555
H20_4 C23_4 1_555 1_555
C25_4 C22_4 1_555 1_555
O5_2 C25_4 1_555 1_555
O6_4 C25_4 1_555 1_555
Zn6_2 O5_2 1_555 1_555
C77_4 C76_4 1_555 1_555
H71_4 C77_4 1_555 1_555
C79_4 C76_4 1_555 1_555
O16_2 C79_4 1_555 1_555
O19_4 C79_4 1_555 1_555
Zn7_2 O16_2 1_555 1_555
C1_4 C2_4 1_555 1_555
C2_4 C3_4 1_555 1_555
C3_4 H1_4 1_555 1_555
C15_4 C10_4 1_555 1_555
H7_4 C15_4 1_555 1_555
H8_4 C15_4 1_555 1_555
H9_4 C15_4 1_555 1_555
O11_2 C1_4 1_555 1_555
O2_4 C1_4 1_555 1_555
H22_4 C26_4 1_555 1_555
H23_4 C26_4 1_555 1_555
C27_4 C28_4 1_555 1_555
C28_4 H24_4 1_555 1_555
C29_4 C28_4 1_555 1_555
H25_4 C29_4 1_555 1_555
C30_4 C29_4 1_555 1_555
C31_4 C30_4 1_555 1_555
H26_4 C31_4 1_555 1_555
C32_4 C27_4 1_555 1_555
H27_4 C32_4 1_555 1_555
C33_4 C30_4 1_555 1_555
C36_4 C35_4 1_555 1_555
H30_4 C36_4 1_555 1_555
N1_4 C34_4 1_555 1_555
O7_4 C26_4 1_555 1_555
O8_4 C33_4 1_555 1_555
O9_4 C33_4 1_555 1_555
Zn6_2 N1_4 1_555 1_555
C55_4 C56_4 1_555 1_555
C56_4 C57_4 1_555 1_555
C57_4 H52_4 1_555 1_555
C69_4 C64_4 1_555 1_555
H58_4 C69_4 1_555 1_555
H59_4 C69_4 1_555 1_555
H60_4 C69_4 1_555 1_555
H73_4 C80_4 1_555 1_555
H74_4 C80_4 1_555 1_555
C81_4 C82_4 1_555 1_555
C82_4 H75_4 1_555 1_555
C83_4 C82_4 1_555 1_555
H76_4 C83_4 1_555 1_555
C84_4 C83_4 1_555 1_555
C85_4 C84_4 1_555 1_555
H77_4 C85_4 1_555 1_555
C86_4 C81_4 1_555 1_555
H78_4 C86_4 1_555 1_555
C87_4 C84_4 1_555 1_555
C90_4 C89_4 1_555 1_555
H81_4 C90_4 1_555 1_555
N7_4 C88_4 1_555 1_555
N10_2 Zn6_2 1_555 1_555
N11_2 Zn7_2 1_555 1_555
O12_2 C55_4 1_555 1_555
O13_4 C55_4 1_555 1_555
O20_4 C80_4 1_555 1_555
O21_4 C87_4 1_555 1_555
O22_4 C87_4 1_555 1_555
Zn7_2 N7_4 1_555 1_555
C27_4 O7_4 1_555 1_555
C31_4 C32_4 1_555 1_555
C36_4 N1_4 1_555 1_555
O9_4 Zn6_2 1_555 1_555
C81_4 O20_4 1_555 1_555
C85_4 C86_4 1_555 1_555
C90_4 N7_4 1_555 1_555
O22_4 Zn7_2 1_555 1_555
C37_4 H31_4 1_555 1_555
H32_4 C37_4 1_555 1_555
C38_4 C37_4 1_555 1_555
C39_4 C38_4 1_555 1_555
C40_4 C39_4 1_555 1_555
C41_4 C40_4 1_555 1_555
C42_4 C41_4 1_555 1_555
C43_4 C38_4 1_555 1_555
C44_4 C39_4 1_555 1_555
H33_4 C44_4 1_555 1_555
H34_4 C44_4 1_555 1_555
H35_4 C44_4 1_555 1_555
C45_4 C41_4 1_555 1_555
H36_4 C45_4 1_555 1_555
H37_4 C45_4 1_555 1_555
H38_4 C45_4 1_555 1_555
C46_4 C43_4 1_555 1_555
H39_4 C46_4 1_555 1_555
H40_4 C46_4 1_555 1_555
H41_4 C46_4 1_555 1_555
C47_4 C42_4 1_555 1_555
H42_4 C47_4 1_555 1_555
H43_4 C47_4 1_555 1_555
C48_4 H44_4 1_555 1_555
C49_4 C48_4 1_555 1_555
H45_4 C49_4 1_555 1_555
C50_4 H46_4 1_555 1_555
C51_4 C40_4 1_555 1_555
H47_4 C51_4 1_555 1_555
H48_4 C51_4 1_555 1_555
C52_4 H49_4 1_555 1_555
C53_4 H50_4 1_555 1_555
C54_4 C53_4 1_555 1_555
H51_4 C54_4 1_555 1_555
N10_2 C52_4 1_555 1_555
N4_4 C51_4 1_555 1_555
N5_4 C47_4 1_555 1_555
N6_4 C49_4 1_555 1_555
Zn9_3 N6_4 1_555 1_555
C91_4 H82_4 1_555 1_555
H83_4 C91_4 1_555 1_555
C92_4 C91_4 1_555 1_555
C93_4 C92_4 1_555 1_555
C94_4 C93_4 1_555 1_555
C95_4 C94_4 1_555 1_555
C96_4 C95_4 1_555 1_555
C97_4 C92_4 1_555 1_555
C98_4 C93_4 1_555 1_555
H84_4 C98_4 1_555 1_555
H85_4 C98_4 1_555 1_555
H86_4 C98_4 1_555 1_555
C99_4 C95_4 1_555 1_555
H87_4 C99_4 1_555 1_555
H88_4 C99_4 1_555 1_555
H89_4 C99_4 1_555 1_555
C100_4 C97_4 1_555 1_555
H90_4 C100_4 1_555 1_555
H91_4 C100_4 1_555 1_555
H92_4 C100_4 1_555 1_555
C101_4 C96_4 1_555 1_555
H93_4 C101_4 1_555 1_555
H94_4 C101_4 1_555 1_555
C102_4 H95_4 1_555 1_555
C103_4 C102_4 1_555 1_555
H96_4 C103_4 1_555 1_555
C104_4 H97_4 1_555 1_555
C105_4 C94_4 1_555 1_555
H98_4 C105_4 1_555 1_555
H99_4 C105_4 1_555 1_555
C106_4 H100_4 1_555 1_555
C107_4 H101_4 1_555 1_555
C108_4 C107_4 1_555 1_555
H102_4 C108_4 1_555 1_555
N11_2 C106_4 1_555 1_555
N12_4 C105_4 1_555 1_555
N13_4 C101_4 1_555 1_555
N14_4 Zn9_3 1_555 1_555
C37_4 N2_4 1_555 1_555
C42_4 C43_4 1_555 1_555
C48_4 N5_4 1_555 1_555
C50_4 N5_4 1_555 1_555
C50_4 N6_4 1_555 1_555
C52_4 N4_4 1_555 1_555
C53_4 N4_4 1_555 1_555
C54_4 N10_2 1_555 1_555
C91_4 N8_4 1_555 1_555
C96_4 C97_4 1_555 1_555
C102_4 N13_4 1_555 1_555
C103_4 N14_4 1_555 1_555
C104_4 N13_4 1_555 1_555
C104_4 N14_4 1_555 1_555
C106_4 N12_4 1_555 1_555
C107_4 N12_4 1_555 1_555
C108_4 N11_2 1_555 1_555
H2_3 C4_3 1_555 1_555
C5_3 C4_3 1_555 1_555
C6_3 C5_3 1_555 1_555
H3_3 C6_3 1_555 1_555
H4_3 C7_3 1_555 1_555
C8_3 H5_3 1_555 1_555
H6_5 C8_3 1_555 1_555
C9_3 C8_3 1_555 1_555
H13_3 C17_3 1_555 1_555
O3_3 C5_3 1_555 1_555
C6_3 C7_3 1_555 1_555
C8_3 O3_3 1_555 1_555
H2_4 C4_4 1_555 1_555
C5_4 C4_4 1_555 1_555
C6_4 C5_4 1_555 1_555
H3_4 C6_4 1_555 1_555
H4_4 C7_4 1_555 1_555
C8_4 H5_4 1_555 1_555
H6_6 C8_4 1_555 1_555
C9_4 C8_4 1_555 1_555
H13_4 C17_4 1_555 1_555
O3_4 C5_4 1_555 1_555
C6_4 C7_4 1_555 1_555
C8_4 O3_4 1_555 1_555

#END
