
###############################################################################
#
# This file contains modified crystal structure data generated from the
# MOF subset of the Cambridge Structural Database (CSD) v543 
# hosted by the Cambridge Crystallographic Data Centre (CCDC).
#
# This work is licensed under the Creative Commons
# Attribution-NonCommercial-ShareAlike 4.0 International License.
# To view a copy of this license, visit
# http://creativecommons.org/licenses/by-nc-sa/4.0/
# or send a letter to
# Creative Commons, PO Box 1866, Mountain View, CA 94042, USA.
#
# CIF created using the CSD Python API on 29 September 2022
# The structure has been converted into the P1 space group
# The structure has a 3D framework
# The original CSD entry DEHLIN is in the monoclinic crystal system
# The framework has been calculated to contain at least 10.0% void space
# The void calculation uses a probe of radius 1.32A, grid spacing 0.4
#
###############################################################################

data_DEHLIN
_chemical_formula_moiety         '(C432 H408 Cd14 N48 O72)n'
_symmetry_cell_setting           triclinic
_symmetry_space_group_name_H-M   'P 1'
_symmetry_Int_Tables_number      1
_space_group_name_Hall           'P 1'
loop_
_symmetry_equiv_pos_site_id
_symmetry_equiv_pos_as_xyz
1 x,y,z
_cell_length_a                   24.100(3)
_cell_length_b                   11.4627(14)
_cell_length_c                   41.889(5)
_cell_angle_alpha                90
_cell_angle_beta                 96.397(2)
_cell_angle_gamma                90
_cell_volume                     11499.8
loop_
_atom_site_label
_atom_site_type_symbol
_atom_site_fract_x
_atom_site_fract_y
_atom_site_fract_z
C33 C 0.7201(4) 0.0506(7) 0.1231(2)
O8 O 0.6982(3) 0.0977(5) 0.14447(15)
O9 O 0.7677(3) 0.0794(5) 0.11479(13)
Cd6 Cd 0.79491(3) 0.23090(5) 0.145150(15)
C34 C 0.7393(4) 0.5225(7) 0.64598(16)
H28 H 0.7668 0.4917 0.6345
C35 C 0.6632(4) 0.5360(7) 0.67361(18)
H29 H 0.6319 0.5175 0.6837
C36 C 0.6871(3) 0.6445(7) 0.66989(17)
H30 H 0.6740 0.7145 0.6775
C37 C 0.6889(4) 0.3317(6) 0.65281(18)
H31 H 0.6515 0.3187 0.6423
H32 H 0.7151 0.3035 0.6386
C38 C 0.6968(5) 0.2622(6) 0.68439(18)
C39 C 0.7521(4) 0.2308(6) 0.69646(19)
C40 C 0.7588(4) 0.1581(6) 0.72476(18)
C41 C 0.7107(4) 0.1173(6) 0.73810(17)
C42 C 0.6584(4) 0.1510(6) 0.72586(19)
C43 C 0.6485(5) 0.2236(7) 0.6980(2)
C44 C 0.5897(4) 0.2564(6) 0.6839(2)
H33 H 0.5891 0.2695 0.6612
H34 H 0.5645 0.1941 0.6876
H35 H 0.5783 0.3262 0.6940
C45 C 0.8031(4) 0.2712(6) 0.68078(18)
H36 H 0.8128 0.3491 0.6877
H37 H 0.8339 0.2198 0.6869
H38 H 0.7945 0.2701 0.6578
C46 C 0.7192(4) 0.0282(7) 0.76609(16)
H41 H 0.7227 0.0692 0.7862
C47 C 0.6084(4) 0.1095(6) 0.7419(2)
H42 H 0.5766 0.1600 0.7359
H43 H 0.6170 0.1121 0.7651
C51 C 0.8161(4) 0.1220(7) 0.73873(19)
H47 H 0.8433 0.1798 0.7339
H48 H 0.8176 0.1146 0.7619
Cd1 Cd 0.79491(3) 0.76910(5) 0.645150(15)
N1 N 0.7330(3) 0.6332(5) 0.65331(14)
N2 N 0.6979(3) 0.4613(5) 0.65837(14)
N4 N 0.8286(3) 0.0068(6) 0.72408(15)
C87 C 0.2799(4) 0.0506(7) 0.3769(2)
C88 C 0.2607(4) 0.5225(7) 0.85402(16)
H79 H 0.2332 0.4917 0.8655
C89 C 0.3368(4) 0.5360(7) 0.82639(18)
H80 H 0.3681 0.5175 0.8163
C90 C 0.3129(3) 0.6445(7) 0.83011(17)
H81 H 0.3260 0.7145 0.8225
C91 C 0.3111(4) 0.3317(6) 0.84719(18)
H82 H 0.3485 0.3187 0.8577
H83 H 0.2849 0.3035 0.8614
C92 C 0.3032(5) 0.2622(6) 0.81561(18)
C93 C 0.2479(4) 0.2308(6) 0.80354(19)
C94 C 0.2412(4) 0.1581(6) 0.77524(18)
C95 C 0.2893(4) 0.1173(6) 0.76190(17)
C96 C 0.3416(4) 0.1510(6) 0.77414(19)
C97 C 0.3515(5) 0.2236(7) 0.8020(2)
C98 C 0.4103(4) 0.2564(6) 0.8161(2)
H84 H 0.4109 0.2695 0.8388
H85 H 0.4355 0.1941 0.8124
H86 H 0.4217 0.3262 0.8060
C99 C 0.1969(4) 0.2712(6) 0.81922(18)
H87 H 0.1872 0.3491 0.8123
H88 H 0.1661 0.2198 0.8131
H89 H 0.2055 0.2701 0.8422
C100 C 0.2808(4) 0.0282(7) 0.73391(16)
H92 H 0.2773 0.0692 0.7138
C101 C 0.3916(4) 0.1095(6) 0.7581(2)
H93 H 0.4234 0.1600 0.7641
H94 H 0.3830 0.1121 0.7349
C105 C 0.1839(4) 0.1220(7) 0.76127(19)
H98 H 0.1567 0.1798 0.7661
H99 H 0.1824 0.1146 0.7381
Cd3 Cd 0.20509(3) 0.76910(5) 0.854850(15)
Cd9 Cd 0.20509(3) 0.23090(5) 0.354850(15)
N7 N 0.2670(3) 0.6332(5) 0.84669(14)
N8 N 0.3021(3) 0.4613(5) 0.84163(14)
N10 N 0.8239(3) 0.8593(6) 0.69041(17)
N11 N 0.1761(3) 0.8593(6) 0.80959(17)
N12 N 0.1714(3) 0.0068(6) 0.77592(15)
O15 O 0.8624(4) 0.6865(8) 0.6229(2)
O16 O 0.1376(4) 0.6865(8) 0.8771(2)
O19 O 0.3018(3) 0.0977(5) 0.35553(15)
O20 O 0.2323(3) 0.0794(5) 0.38521(13)
O21 O 0.7677(3) 0.9206(5) 0.61479(13)
O22 O 0.2323(3) 0.9206(5) 0.88521(13)
C1 C 0.5198(4) 0.5751(7) 0.80793(17)
C2 C 0.5326(4) 0.5253(6) 0.84179(16)
C3 C 0.4869(4) 0.4956(7) 0.85845(17)
H1 H 0.4505 0.5024 0.8487
C4 C 0.4979(4) 0.4554(7) 0.89023(18)
H2 H 0.4689 0.4367 0.9022
C5 C 0.5530(4) 0.4445(7) 0.90333(17)
C6 C 0.5990(4) 0.4773(7) 0.88706(18)
H3 H 0.6355 0.4717 0.8968
C7 C 0.5872(4) 0.5182(6) 0.85592(17)
H4 H 0.6162 0.5411 0.8444
C8 C 0.5222(3) 0.4114(7) 0.95554(13)
H5 H 0.4943 0.3513 0.9504
H6 H 0.5042 0.4872 0.9537
C9 C 0.5531(3) 0.3931(7) 0.98950(15)
C15 C 0.5065(4) 0.1904(7) 0.9910(2)
H7 H 0.5046 0.1963 0.9681
H8 H 0.4695 0.1952 0.9974
H9 H 0.5230 0.1171 0.9979
C19 C 0.5970(3) 0.5939(6) 0.98337(18)
H17 H 0.6070 0.6577 0.9977
H18 H 0.5633 0.6126 0.9699
H19 H 0.6265 0.5802 0.9702
H39 H 0.6877 0.9767 0.7650
H40 H 0.7525 0.9837 0.7644
C48 C 0.5688(3) 0.9126(7) 0.7499(2)
H44 H 0.5600 0.9271 0.7706
C49 C 0.5766(3) 0.8252(7) 0.70306(18)
H45 H 0.5736 0.7694 0.6868
C50 C 0.6002(4) 0.9337(7) 0.7017(2)
H46 H 0.6164 0.9651 0.6845
C52 C 0.7976(4) 0.9547(7) 0.69870(19)
H49 H 0.7635 0.9817 0.6888
C53 C 0.8730(4) 0.8487(8) 0.7108(2)
H50 H 0.8989 0.7888 0.7103
C54 C 0.8771(4) 0.9428(8) 0.7322(2)
H51 H 0.9059 0.9589 0.7483
Cd2 Cd 0.5000 0.67461(6) 0.7500
N5 N 0.5950(3) 0.9887(5) 0.73137(15)
N6 N 0.5579(3) 0.8140(5) 0.73337(15)
O1 O 0.5552(2) 0.6392(5) 0.79722(11)
O2 O 0.4740(3) 0.5502(5) 0.79200(11)
O3 O 0.5674(2) 0.4034(5) 0.93449(11)
C55 C 0.4802(4) 0.5751(7) 0.69207(17)
C56 C 0.4674(4) 0.5253(6) 0.65821(16)
C57 C 0.5131(4) 0.4956(7) 0.64155(17)
H52 H 0.5495 0.5024 0.6513
C58 C 0.5021(4) 0.4554(7) 0.60977(18)
H53 H 0.5311 0.4367 0.5978
C59 C 0.4470(4) 0.4445(7) 0.59667(17)
C60 C 0.4010(4) 0.4773(7) 0.61294(18)
H54 H 0.3645 0.4717 0.6032
C61 C 0.4128(4) 0.5182(6) 0.64408(17)
H55 H 0.3838 0.5411 0.6556
C62 C 0.4778(3) 0.4114(7) 0.54446(13)
H56 H 0.5057 0.3513 0.5496
H57 H 0.4958 0.4872 0.5463
C63 C 0.4469(3) 0.3931(7) 0.51050(15)
C64 C 0.4570(3) 0.2926(7) 0.49316(18)
C65 C 0.4332(3) 0.2848(7) 0.46068(17)
C66 C 0.3986(3) 0.3744(8) 0.44672(17)
C67 C 0.3878(3) 0.4731(7) 0.46537(17)
C68 C 0.4123(3) 0.4833(7) 0.49698(17)
C69 C 0.4935(4) 0.1904(7) 0.5090(2)
H58 H 0.4954 0.1963 0.5319
H59 H 0.5305 0.1952 0.5026
H60 H 0.4770 0.1171 0.5021
C70 C 0.4440(4) 0.1739(7) 0.44114(19)
H61 H 0.4551 0.1087 0.4552
H62 H 0.4112 0.1522 0.4268
C71 C 0.3745(4) 0.3666(8) 0.41083(16)
H63 H 0.4045 0.3720 0.3976
H64 H 0.3487 0.4295 0.4058
H65 H 0.3555 0.2935 0.4070
C72 C 0.3466(3) 0.5645(7) 0.4516(2)
H66 H 0.3197 0.5315 0.4351
H67 H 0.3267 0.5982 0.4683
C73 C 0.4030(3) 0.5939(6) 0.51663(18)
H68 H 0.3930 0.6577 0.5023
H69 H 0.4367 0.6126 0.5301
H70 H 0.3735 0.5802 0.5298
C74 C 0.5111(5) 0.1226(10) 0.4062(3)
C75 C 0.5405(5) 0.1682(11) 0.3792(3)
H71 H 0.5369 0.2467 0.3738
C76 C 0.5742(6) 0.0940(12) 0.3614(3)
H72 H 0.5931 0.1188 0.3445
C79 C 0.5157(4) 0.0135(8) 0.4141(2)
C81 C 0.3556(3) 0.7502(7) 0.42448(17)
C82 C 0.3880(4) 0.8243(7) 0.40803(17)
H75 H 0.4259 0.8097 0.4076
C83 C 0.3628(3) 0.9214(7) 0.39212(17)
H76 H 0.3835 0.9702 0.3802
C84 C 0.3067(4) 0.9444(7) 0.39432(17)
C85 C 0.2737(4) 0.8712(7) 0.41155(17)
H77 H 0.2364 0.8889 0.4129
C86 C 0.2985(4) 0.7683(7) 0.42703(18)
H78 H 0.2778 0.7167 0.4381
H90 H 0.3123 0.9767 0.7350
H91 H 0.2475 0.9837 0.7356
C102 C 0.4312(3) 0.9126(7) 0.7501(2)
H95 H 0.4400 0.9271 0.7294
C103 C 0.4234(3) 0.8252(7) 0.79694(18)
H96 H 0.4264 0.7694 0.8132
C104 C 0.3998(4) 0.9337(7) 0.7983(2)
H97 H 0.3836 0.9651 0.8155
C106 C 0.2024(4) 0.9547(7) 0.80130(19)
H100 H 0.2365 0.9817 0.8112
C107 C 0.1270(4) 0.8487(8) 0.7892(2)
H101 H 0.1011 0.7888 0.7897
C108 C 0.1229(4) 0.9428(8) 0.7678(2)
H102 H 0.0941 0.9589 0.7517
N13 N 0.4050(3) 0.9887(5) 0.76863(15)
N14 N 0.4421(3) 0.8140(5) 0.76663(15)
O10 O 0.4448(2) 0.6392(5) 0.70278(11)
O11 O 0.5260(3) 0.5502(5) 0.70800(11)
O12 O 0.4326(2) 0.4034(5) 0.56551(11)
O13 O 0.4886(3) 0.2109(5) 0.42360(17)
O18 O 0.3821(2) 0.6528(5) 0.43795(12)
C5_2 C 0.0530(4) 0.9445(7) 0.90333(17)
C6_2 C 0.0990(4) 0.9773(7) 0.88706(18)
H3_2 H 0.1355 0.9717 0.8968
C8_2 C 0.0222(3) 0.9114(7) 0.95554(13)
H6_2 H 0.0042 0.9872 0.9537
C9_2 C 0.0531(3) 0.8931(7) 0.98950(15)
C15_2 C 0.0065(4) 0.6904(7) 0.9910(2)
H7_2 H 0.0046 0.6963 0.9681
H9_2 H 0.0230 0.6171 0.9979
O3_2 O 0.0674(2) 0.9034(5) 0.93449(11)
C57_2 C 0.0131(4) 0.9956(7) 0.64155(17)
C58_2 C 0.0021(4) 0.9554(7) 0.60977(18)
H53_2 H 0.0311 0.9367 0.5978
H56_2 H 0.0057 0.8513 0.5496
H59_2 H 0.0305 0.6952 0.5026
C74_2 C 0.0111(5) 0.6226(10) 0.4062(3)
C75_2 C 0.0405(5) 0.6682(11) 0.3792(3)
H71_2 H 0.0369 0.7467 0.3738
C76_2 C 0.0742(6) 0.5940(12) 0.3614(3)
H72_2 H 0.0931 0.6188 0.3445
C77 C 0.0746(6) 0.4729(13) 0.3737(3)
C78 C 0.0475(4) 0.4350(8) 0.3982(2)
H73 H 0.0499 0.3572 0.4045
C79_2 C 0.0157(4) 0.5135(8) 0.4141(2)
C80 C 0.1142(6) 0.3841(16) 0.3593(4)
O14 O 0.1376(4) 0.3135(8) 0.3771(2)
O17 O 0.1263(3) 0.4135(8) 0.33133(19)
C20 C 0.9889(5) 0.6226(10) 0.0938(3)
C21 C 0.9595(5) 0.6682(11) 0.1208(3)
H20 H 0.9631 0.7467 0.1262
C22 C 0.9258(6) 0.5940(12) 0.1386(3)
H21 H 0.9069 0.6188 0.1555
C23 C 0.9254(6) 0.4729(13) 0.1263(3)
C24 C 0.9525(4) 0.4350(8) 0.1018(2)
H22 H 0.9501 0.3572 0.0955
C25 C 0.9843(4) 0.5135(8) 0.0859(2)
C26 C 0.8858(6) 0.3841(16) 0.1407(4)
O5 O 0.8624(4) 0.3135(8) 0.1229(2)
O6 O 0.8737(3) 0.4135(8) 0.16867(19)
C1_2 C 0.4802(4) 0.4249(7) 0.19207(17)
C2_2 C 0.4674(4) 0.4747(6) 0.15821(16)
C3_2 C 0.5131(4) 0.5044(7) 0.14155(17)
H1_2 H 0.5495 0.4976 0.1513
C4_2 C 0.5021(4) 0.5446(7) 0.10977(18)
H2_2 H 0.5311 0.5633 0.0978
C5_3 C 0.4470(4) 0.5555(7) 0.09667(17)
C6_3 C 0.4010(4) 0.5227(7) 0.11294(18)
H3_3 H 0.3645 0.5283 0.1032
C7_2 C 0.4128(4) 0.4818(6) 0.14408(17)
H4_2 H 0.3838 0.4589 0.1556
C8_3 C 0.4778(3) 0.5886(7) 0.04446(13)
H5_2 H 0.5057 0.6487 0.0496
H6_3 H 0.4958 0.5128 0.0463
C9_3 C 0.4469(3) 0.6069(7) 0.01050(15)
C15_3 C 0.4935(4) 0.8096(7) 0.0090(2)
H7_3 H 0.4954 0.8037 0.0319
H8_2 H 0.5305 0.8048 0.0026
H9_3 H 0.4770 0.8829 0.0021
C19_2 C 0.4030(3) 0.4061(6) 0.01663(18)
H17_2 H 0.3930 0.3423 0.0023
H18_2 H 0.4367 0.3874 0.0301
H19_2 H 0.3735 0.4198 0.0298
H39_2 H 0.3123 0.0233 0.2350
H40_2 H 0.2475 0.0163 0.2356
C48_2 C 0.4312(3) 0.0874(7) 0.2501(2)
H44_2 H 0.4400 0.0729 0.2294
C49_2 C 0.4234(3) 0.1748(7) 0.29694(18)
H45_2 H 0.4264 0.2306 0.3132
C50_2 C 0.3998(4) 0.0663(7) 0.2983(2)
H46_2 H 0.3836 0.0349 0.3155
C52_2 C 0.2024(4) 0.0453(7) 0.30130(19)
H49_2 H 0.2365 0.0183 0.3112
C53_2 C 0.1270(4) 0.1513(8) 0.2892(2)
H50_2 H 0.1011 0.2112 0.2897
C54_2 C 0.1229(4) 0.0572(8) 0.2678(2)
H51_2 H 0.0941 0.0411 0.2517
Cd2_2 Cd 0.5000 0.32539(6) 0.2500
N3 N 0.1761(3) 0.1407(6) 0.30959(17)
N5_2 N 0.4050(3) 0.0113(5) 0.26863(15)
N6_2 N 0.4421(3) 0.1860(5) 0.26663(15)
O1_2 O 0.4448(2) 0.3608(5) 0.20278(11)
O2_2 O 0.5260(3) 0.4498(5) 0.20800(11)
O3_3 O 0.4326(2) 0.5966(5) 0.06551(11)
C55_2 C 0.5198(4) 0.4249(7) 0.30793(17)
C56_2 C 0.5326(4) 0.4747(6) 0.34179(16)
C57_3 C 0.4869(4) 0.5044(7) 0.35845(17)
H52_2 H 0.4505 0.4976 0.3487
C58_3 C 0.4979(4) 0.5446(7) 0.39023(18)
H53_3 H 0.4689 0.5633 0.4022
C59_2 C 0.5530(4) 0.5555(7) 0.40333(17)
C60_2 C 0.5990(4) 0.5227(7) 0.38706(18)
H54_2 H 0.6355 0.5283 0.3968
C61_2 C 0.5872(4) 0.4818(6) 0.35592(17)
H55_2 H 0.6162 0.4589 0.3444
C62_2 C 0.5222(3) 0.5886(7) 0.45554(13)
H56_3 H 0.4943 0.6487 0.4504
H57_2 H 0.5042 0.5128 0.4537
C63_2 C 0.5531(3) 0.6069(7) 0.48950(15)
C64_2 C 0.5430(3) 0.7074(7) 0.50684(18)
C65_2 C 0.5668(3) 0.7152(7) 0.53932(17)
C66_2 C 0.6014(3) 0.6256(8) 0.55328(17)
C67_2 C 0.6122(3) 0.5269(7) 0.53463(17)
C68_2 C 0.5877(3) 0.5167(7) 0.50302(17)
C69_2 C 0.5065(4) 0.8096(7) 0.4910(2)
H58_2 H 0.5046 0.8037 0.4681
H59_3 H 0.4695 0.8048 0.4974
H60_2 H 0.5230 0.8829 0.4979
C70_2 C 0.5560(4) 0.8261(7) 0.55886(19)
H61_2 H 0.5449 0.8913 0.5448
H62_2 H 0.5888 0.8478 0.5732
C71_2 C 0.6255(4) 0.6334(8) 0.58917(16)
H63_2 H 0.5955 0.6280 0.6024
H64_2 H 0.6513 0.5705 0.5942
H65_2 H 0.6445 0.7065 0.5930
C72_2 C 0.6534(3) 0.4355(7) 0.5484(2)
H66_2 H 0.6803 0.4685 0.5649
H67_2 H 0.6733 0.4018 0.5317
C73_2 C 0.5970(3) 0.4061(6) 0.48337(18)
H68_2 H 0.6070 0.3423 0.4977
H69_2 H 0.5633 0.3874 0.4699
H70_2 H 0.6265 0.4198 0.4702
C74_3 C 0.4889(5) 0.8774(10) 0.5938(3)
C75_3 C 0.4595(5) 0.8318(11) 0.6208(3)
H71_3 H 0.4631 0.7533 0.6262
C76_3 C 0.4258(6) 0.9060(12) 0.6386(3)
H72_3 H 0.4069 0.8812 0.6555
C79_3 C 0.4843(4) 0.9865(8) 0.5859(2)
C81_2 C 0.6444(3) 0.2498(7) 0.57552(17)
C82_2 C 0.6120(4) 0.1757(7) 0.59197(17)
H75_2 H 0.5741 0.1903 0.5924
C83_2 C 0.6372(3) 0.0786(7) 0.60788(17)
H76_2 H 0.6165 0.0298 0.6198
C84_2 C 0.6933(4) 0.0556(7) 0.60568(17)
C85_2 C 0.7263(4) 0.1288(7) 0.58845(17)
H77_2 H 0.7636 0.1111 0.5871
C86_2 C 0.7015(4) 0.2317(7) 0.57297(18)
H78_2 H 0.7222 0.2833 0.5619
H90_2 H 0.6877 0.0233 0.2650
H91_2 H 0.7525 0.0163 0.2644
C102_2 C 0.5688(3) 0.0874(7) 0.2499(2)
H95_2 H 0.5600 0.0729 0.2706
C103_2 C 0.5766(3) 0.1748(7) 0.20306(18)
H96_2 H 0.5736 0.2306 0.1868
C104_2 C 0.6002(4) 0.0663(7) 0.2017(2)
H97_2 H 0.6164 0.0349 0.1845
C106_2 C 0.7976(4) 0.0453(7) 0.19870(19)
H100_2 H 0.7635 0.0183 0.1888
C107_2 C 0.8730(4) 0.1513(8) 0.2108(2)
H101_2 H 0.8989 0.2112 0.2103
C108_2 C 0.8771(4) 0.0572(8) 0.2322(2)
H102_2 H 0.9059 0.0411 0.2483
N9 N 0.8239(3) 0.1407(6) 0.19041(17)
N13_2 N 0.5950(3) 0.0113(5) 0.23137(15)
N14_2 N 0.5579(3) 0.1860(5) 0.23337(15)
O10_2 O 0.5552(2) 0.3608(5) 0.29722(11)
O11_2 O 0.4740(3) 0.4498(5) 0.29200(11)
O12_2 O 0.5674(2) 0.5966(5) 0.43449(11)
O13_2 O 0.5114(3) 0.7891(5) 0.57640(17)
O18_2 O 0.6179(2) 0.3472(5) 0.56205(12)
C34_2 C 0.2607(4) 0.4775(7) 0.35402(16)
H28_2 H 0.2332 0.5083 0.3655
C35_2 C 0.3368(4) 0.4640(7) 0.32639(18)
H29_2 H 0.3681 0.4825 0.3163
C36_2 C 0.3129(3) 0.3555(7) 0.33011(17)
H30_2 H 0.3260 0.2855 0.3225
C37_2 C 0.3111(4) 0.6683(6) 0.34719(18)
H31_2 H 0.3485 0.6813 0.3577
H32_2 H 0.2849 0.6965 0.3614
C38_2 C 0.3032(5) 0.7378(6) 0.31561(18)
C39_2 C 0.2479(4) 0.7692(6) 0.30354(19)
C40_2 C 0.2412(4) 0.8419(6) 0.27524(18)
C41_2 C 0.2893(4) 0.8827(6) 0.26190(17)
C42_2 C 0.3416(4) 0.8490(6) 0.27414(19)
C43_2 C 0.3515(5) 0.7764(7) 0.3020(2)
C44_2 C 0.4103(4) 0.7436(6) 0.3161(2)
H33_2 H 0.4109 0.7305 0.3388
H34_2 H 0.4355 0.8059 0.3124
H35_2 H 0.4217 0.6738 0.3060
C45_2 C 0.1969(4) 0.7288(6) 0.31922(18)
H36_2 H 0.1872 0.6509 0.3123
H37_2 H 0.1661 0.7802 0.3131
H38_2 H 0.2055 0.7299 0.3422
C46_2 C 0.2808(4) 0.9718(7) 0.23391(16)
H41_2 H 0.2773 0.9308 0.2138
C47_2 C 0.3916(4) 0.8905(6) 0.2581(2)
H42_2 H 0.4234 0.8400 0.2641
H43_2 H 0.3830 0.8879 0.2349
C51_2 C 0.1839(4) 0.8780(7) 0.26127(19)
H47_2 H 0.1567 0.8202 0.2661
H48_2 H 0.1824 0.8854 0.2381
N1_2 N 0.2670(3) 0.3668(5) 0.34669(14)
N2_2 N 0.3021(3) 0.5387(5) 0.34163(14)
N4_2 N 0.1714(3) 0.9932(6) 0.27592(15)
C87_2 C 0.7201(4) 0.9494(7) 0.6231(2)
C88_2 C 0.7393(4) 0.4775(7) 0.14598(16)
H79_2 H 0.7668 0.5083 0.1345
C89_2 C 0.6632(4) 0.4640(7) 0.17361(18)
H80_2 H 0.6319 0.4825 0.1837
C90_2 C 0.6871(3) 0.3555(7) 0.16989(17)
H81_2 H 0.6740 0.2855 0.1775
C91_2 C 0.6889(4) 0.6683(6) 0.15281(18)
H82_2 H 0.6515 0.6813 0.1423
H83_2 H 0.7151 0.6965 0.1386
C92_2 C 0.6968(5) 0.7378(6) 0.18439(18)
C93_2 C 0.7521(4) 0.7692(6) 0.19646(19)
C94_2 C 0.7588(4) 0.8419(6) 0.22476(18)
C95_2 C 0.7107(4) 0.8827(6) 0.23810(17)
C96_2 C 0.6584(4) 0.8490(6) 0.22586(19)
C97_2 C 0.6485(5) 0.7764(7) 0.1980(2)
C98_2 C 0.5897(4) 0.7436(6) 0.1839(2)
H84_2 H 0.5891 0.7305 0.1612
H85_2 H 0.5645 0.8059 0.1876
H86_2 H 0.5783 0.6738 0.1940
C99_2 C 0.8031(4) 0.7288(6) 0.18078(18)
H87_2 H 0.8128 0.6509 0.1877
H88_2 H 0.8339 0.7802 0.1869
H89_2 H 0.7945 0.7299 0.1578
C100_2 C 0.7192(4) 0.9718(7) 0.26609(16)
H92_2 H 0.7227 0.9308 0.2862
C101_2 C 0.6084(4) 0.8905(6) 0.2419(2)
H93_2 H 0.5766 0.8400 0.2359
H94_2 H 0.6170 0.8879 0.2651
C105_2 C 0.8161(4) 0.8780(7) 0.23873(19)
H98_2 H 0.8433 0.8202 0.2339
H99_2 H 0.8176 0.8854 0.2619
N7_2 N 0.7330(3) 0.3668(5) 0.15331(14)
N8_2 N 0.6979(3) 0.5387(5) 0.15837(14)
N12_2 N 0.8286(3) 0.9932(6) 0.22408(15)
O19_2 O 0.6982(3) 0.9023(5) 0.64447(15)
C33_2 C 0.2799(4) 0.9494(7) 0.8769(2)
O8_2 O 0.3018(3) 0.9023(5) 0.85553(15)
C20_2 C 0.0111(5) 0.3774(10) 0.9062(3)
C21_2 C 0.0405(5) 0.3318(11) 0.8792(3)
H20_2 H 0.0369 0.2533 0.8738
C22_2 C 0.0742(6) 0.4060(12) 0.8614(3)
H21_2 H 0.0931 0.3812 0.8445
C23_2 C 0.0746(6) 0.5271(13) 0.8737(3)
C24_2 C 0.0475(4) 0.5650(8) 0.8982(2)
H22_2 H 0.0499 0.6428 0.9045
C25_2 C 0.0157(4) 0.4865(8) 0.9141(2)
C26_2 C 0.1142(6) 0.6159(16) 0.8593(4)
O6_2 O 0.1263(3) 0.5865(8) 0.83133(19)
C5_4 C 0.9470(4) 0.0555(7) 0.09667(17)
C6_4 C 0.9010(4) 0.0227(7) 0.11294(18)
H3_4 H 0.8645 0.0283 0.1032
C8_4 C 0.9778(3) 0.0886(7) 0.04446(13)
H6_4 H 0.9958 0.0128 0.0463
C9_4 C 0.9469(3) 0.1069(7) 0.01050(15)
C15_4 C 0.9935(4) 0.3096(7) 0.0090(2)
H7_4 H 0.9954 0.3037 0.0319
H9_4 H 0.9770 0.3829 0.0021
O3_4 O 0.9326(2) 0.0966(5) 0.06551(11)
C57_4 C 0.9869(4) 0.0044(7) 0.35845(17)
C58_4 C 0.9979(4) 0.0446(7) 0.39023(18)
H53_4 H 0.9689 0.0633 0.4022
H56_4 H 0.9943 0.1487 0.4504
H59_4 H 0.9695 0.3048 0.4974
C74_4 C 0.9889(5) 0.3774(10) 0.5938(3)
C75_4 C 0.9595(5) 0.3318(11) 0.6208(3)
H71_4 H 0.9631 0.2533 0.6262
C76_4 C 0.9258(6) 0.4060(12) 0.6386(3)
H72_4 H 0.9069 0.3812 0.6555
C77_2 C 0.9254(6) 0.5271(13) 0.6263(3)
C78_2 C 0.9525(4) 0.5650(8) 0.6018(2)
H73_2 H 0.9501 0.6428 0.5955
C79_4 C 0.9843(4) 0.4865(8) 0.5859(2)
C80_2 C 0.8858(6) 0.6159(16) 0.6407(4)
O17_2 O 0.8737(3) 0.5865(8) 0.66867(19)
C10 C 0.5430(3) 0.2926(7) 0.00684(18)
C11 C 0.5668(3) 0.2848(7) 0.03932(17)
C12 C 0.6014(3) 0.3744(8) 0.05328(17)
C13 C 0.6122(3) 0.4731(7) 0.03463(17)
C14 C 0.5877(3) 0.4833(7) 0.00302(17)
C16 C 0.5560(4) 0.1739(7) 0.05886(19)
H10 H 0.5449 0.1087 0.0448
H11 H 0.5888 0.1522 0.0732
C17 C 0.6255(4) 0.3666(8) 0.08917(16)
H12 H 0.5955 0.3720 0.1024
H13 H 0.6513 0.4295 0.0942
H14 H 0.6445 0.2935 0.0930
C18 C 0.6534(3) 0.5645(7) 0.0484(2)
H15 H 0.6803 0.5315 0.0649
H16 H 0.6733 0.5982 0.0317
C20_3 C 0.4889(5) 0.1226(10) 0.0938(3)
C21_3 C 0.4595(5) 0.1682(11) 0.1208(3)
H20_3 H 0.4631 0.2467 0.1262
C22_3 C 0.4258(6) 0.0940(12) 0.1386(3)
H21_3 H 0.4069 0.1188 0.1555
C25_3 C 0.4843(4) 0.0135(8) 0.0859(2)
C27 C 0.6444(3) 0.7502(7) 0.07552(17)
C28 C 0.6120(4) 0.8243(7) 0.09197(17)
H24 H 0.5741 0.8097 0.0924
C29 C 0.6372(3) 0.9214(7) 0.10788(17)
H25 H 0.6165 0.9702 0.1198
C30 C 0.6933(4) 0.9444(7) 0.10568(17)
C31 C 0.7263(4) 0.8712(7) 0.08845(17)
H26 H 0.7636 0.8889 0.0871
C32 C 0.7015(4) 0.7683(7) 0.07297(18)
H27 H 0.7222 0.7167 0.0619
O4 O 0.5114(3) 0.2109(5) 0.07640(17)
O7 O 0.6179(2) 0.6528(5) 0.06205(12)
C23_3 C 0.4254(6) 0.9729(13) 0.1263(3)
C24_3 C 0.4525(4) 0.9350(8) 0.1018(2)
H22_3 H 0.4501 0.8572 0.0955
H23 H 0.5029 0.9864 0.0691
C26_3 C 0.3858(6) 0.8841(16) 0.1407(4)
O5_2 O 0.3624(4) 0.8135(8) 0.1229(2)
O6_3 O 0.3737(3) 0.9135(8) 0.16867(19)
Cd5 Cd 0.29491(3) 0.73090(5) 0.145150(15)
C34_3 C 0.2393(4) 0.0225(7) 0.64598(16)
C35_3 C 0.1632(4) 0.0360(7) 0.67361(18)
H29_3 H 0.1319 0.0175 0.6837
C36_3 C 0.1871(3) 0.1445(7) 0.66989(17)
H30_3 H 0.1740 0.2145 0.6775
Cd1_2 Cd 0.29491(3) 0.26910(5) 0.645150(15)
N1_3 N 0.2330(3) 0.1332(5) 0.65331(14)
N10_2 N 0.3239(3) 0.3593(6) 0.69041(17)
O15_2 O 0.3624(4) 0.1865(8) 0.6229(2)
O21_2 O 0.2677(3) 0.4206(5) 0.61479(13)
C18_2 C 0.1534(3) 0.0645(7) 0.0484(2)
H15_2 H 0.1803 0.0315 0.0649
H16_2 H 0.1733 0.0982 0.0317
C27_2 C 0.1444(3) 0.2502(7) 0.07552(17)
C28_2 C 0.1120(4) 0.3243(7) 0.09197(17)
H24_2 H 0.0741 0.3097 0.0924
C29_2 C 0.1372(3) 0.4214(7) 0.10788(17)
H25_2 H 0.1165 0.4702 0.1198
C30_2 C 0.1933(4) 0.4444(7) 0.10568(17)
C31_2 C 0.2263(4) 0.3712(7) 0.08845(17)
H26_2 H 0.2636 0.3889 0.0871
C32_2 C 0.2015(4) 0.2683(7) 0.07297(18)
H27_2 H 0.2222 0.2167 0.0619
C33_3 C 0.2201(4) 0.5506(7) 0.1231(2)
O7_2 O 0.1179(2) 0.1528(5) 0.06205(12)
O8_3 O 0.1982(3) 0.5977(5) 0.14447(15)
O9_2 O 0.2677(3) 0.5794(5) 0.11479(13)
C1_3 C 0.0198(4) 0.0751(7) 0.80793(17)
C2_3 C 0.0326(4) 0.0253(6) 0.84179(16)
C7_3 C 0.0872(4) 0.0182(6) 0.85592(17)
H4_3 H 0.1162 0.0411 0.8444
C19_3 C 0.0970(3) 0.0939(6) 0.98337(18)
H17_3 H 0.1070 0.1577 0.9977
H18_3 H 0.0633 0.1126 0.9699
H19_3 H 0.1265 0.0802 0.9702
H28_3 H 0.2668 0.9917 0.6345
C37_3 C 0.1889(4) 0.8317(6) 0.65281(18)
H31_3 H 0.1515 0.8187 0.6423
H32_3 H 0.2151 0.8035 0.6386
C38_3 C 0.1968(5) 0.7622(6) 0.68439(18)
C39_3 C 0.2521(4) 0.7308(6) 0.69646(19)
C40_3 C 0.2588(4) 0.6581(6) 0.72476(18)
C41_3 C 0.2107(4) 0.6173(6) 0.73810(17)
C42_3 C 0.1584(4) 0.6510(6) 0.72586(19)
C43_3 C 0.1485(5) 0.7236(7) 0.6980(2)
C44_3 C 0.0897(4) 0.7564(6) 0.6839(2)
H33_3 H 0.0891 0.7695 0.6612
H34_3 H 0.0645 0.6941 0.6876
H35_3 H 0.0783 0.8262 0.6940
C45_3 C 0.3031(4) 0.7712(6) 0.68078(18)
H36_3 H 0.3128 0.8491 0.6877
H37_3 H 0.3339 0.7198 0.6869
H38_3 H 0.2945 0.7701 0.6578
C46_3 C 0.2192(4) 0.5282(7) 0.76609(16)
H39_3 H 0.1877 0.4767 0.7650
H40_3 H 0.2525 0.4837 0.7644
H41_3 H 0.2227 0.5692 0.7862
C47_3 C 0.1084(4) 0.6095(6) 0.7419(2)
H42_3 H 0.0766 0.6600 0.7359
H43_3 H 0.1170 0.6121 0.7651
C48_3 C 0.0688(3) 0.4126(7) 0.7499(2)
H44_3 H 0.0600 0.4271 0.7706
C49_3 C 0.0766(3) 0.3252(7) 0.70306(18)
H45_3 H 0.0736 0.2694 0.6868
C50_3 C 0.1002(4) 0.4337(7) 0.7017(2)
H46_3 H 0.1164 0.4651 0.6845
C51_3 C 0.3161(4) 0.6220(7) 0.73873(19)
H47_3 H 0.3433 0.6798 0.7339
H48_3 H 0.3176 0.6146 0.7619
C52_3 C 0.2976(4) 0.4547(7) 0.69870(19)
H49_3 H 0.2635 0.4817 0.6888
C53_3 C 0.3730(4) 0.3487(8) 0.7108(2)
H50_3 H 0.3989 0.2888 0.7103
C54_3 C 0.3771(4) 0.4428(8) 0.7322(2)
H51_3 H 0.4059 0.4589 0.7483
Cd2_3 Cd 0.0000 0.17461(6) 0.7500
N2_3 N 0.1979(3) 0.9613(5) 0.65837(14)
N4_3 N 0.3286(3) 0.5068(6) 0.72408(15)
N5_3 N 0.0950(3) 0.4887(5) 0.73137(15)
N6_3 N 0.0579(3) 0.3140(5) 0.73337(15)
O1_3 O 0.0552(2) 0.1392(5) 0.79722(11)
H52_3 H 0.0495 0.0024 0.6513
O11_3 O 0.0260(3) 0.0502(5) 0.70800(11)
C77_3 C 0.4254(6) 0.0271(13) 0.6263(3)
C78_3 C 0.4525(4) 0.0650(8) 0.6018(2)
H73_3 H 0.4501 0.1428 0.5955
H74 H 0.5029 0.0136 0.5691
C80_3 C 0.3858(6) 0.1159(16) 0.6407(4)
O17_3 O 0.3737(3) 0.0865(8) 0.66867(19)
H1_3 H 0.0495 0.9976 0.1513
Cd2_4 Cd 0.0000 0.82539(6) 0.2500
O2_3 O 0.0260(3) 0.9498(5) 0.20800(11)
C55_3 C 0.0198(4) 0.9249(7) 0.30793(17)
C56_3 C 0.0326(4) 0.9747(6) 0.34179(16)
C61_3 C 0.0872(4) 0.9818(6) 0.35592(17)
H55_3 H 0.1162 0.9589 0.3444
C72_3 C 0.1534(3) 0.9355(7) 0.5484(2)
H66_3 H 0.1803 0.9685 0.5649
H67_3 H 0.1733 0.9018 0.5317
C73_3 C 0.0970(3) 0.9061(6) 0.48337(18)
H68_3 H 0.1070 0.8423 0.4977
H69_3 H 0.0633 0.8874 0.4699
H70_3 H 0.1265 0.9198 0.4702
C81_3 C 0.1444(3) 0.7498(7) 0.57552(17)
C82_3 C 0.1120(4) 0.6757(7) 0.59197(17)
H75_3 H 0.0741 0.6903 0.5924
C83_3 C 0.1372(3) 0.5786(7) 0.60788(17)
H76_3 H 0.1165 0.5298 0.6198
C84_3 C 0.1933(4) 0.5556(7) 0.60568(17)
C85_3 C 0.2263(4) 0.6288(7) 0.58845(17)
H77_3 H 0.2636 0.6111 0.5871
C86_3 C 0.2015(4) 0.7317(7) 0.57297(18)
H78_3 H 0.2222 0.7833 0.5619
C87_3 C 0.2201(4) 0.4494(7) 0.6231(2)
H79_3 H 0.2668 0.0083 0.1345
C91_3 C 0.1889(4) 0.1683(6) 0.15281(18)
H82_3 H 0.1515 0.1813 0.1423
H83_3 H 0.2151 0.1965 0.1386
C92_3 C 0.1968(5) 0.2378(6) 0.18439(18)
C93_3 C 0.2521(4) 0.2692(6) 0.19646(19)
C94_3 C 0.2588(4) 0.3419(6) 0.22476(18)
C95_3 C 0.2107(4) 0.3827(6) 0.23810(17)
C96_3 C 0.1584(4) 0.3490(6) 0.22586(19)
C97_3 C 0.1485(5) 0.2764(7) 0.1980(2)
C98_3 C 0.0897(4) 0.2436(6) 0.1839(2)
H84_3 H 0.0891 0.2305 0.1612
H85_3 H 0.0645 0.3059 0.1876
H86_3 H 0.0783 0.1738 0.1940
C99_3 C 0.3031(4) 0.2288(6) 0.18078(18)
H87_3 H 0.3128 0.1509 0.1877
H88_3 H 0.3339 0.2802 0.1869
H89_3 H 0.2945 0.2299 0.1578
C100_3 C 0.2192(4) 0.4718(7) 0.26609(16)
H90_3 H 0.1877 0.5233 0.2650
H91_3 H 0.2525 0.5163 0.2644
H92_3 H 0.2227 0.4308 0.2862
C101_3 C 0.1084(4) 0.3905(6) 0.2419(2)
H93_3 H 0.0766 0.3400 0.2359
H94_3 H 0.1170 0.3879 0.2651
C102_3 C 0.0688(3) 0.5874(7) 0.2499(2)
H95_3 H 0.0600 0.5729 0.2706
C103_3 C 0.0766(3) 0.6748(7) 0.20306(18)
H96_3 H 0.0736 0.7306 0.1868
C104_3 C 0.1002(4) 0.5663(7) 0.2017(2)
H97_3 H 0.1164 0.5349 0.1845
C105_3 C 0.3161(4) 0.3780(7) 0.23873(19)
H98_3 H 0.3433 0.3202 0.2339
H99_3 H 0.3176 0.3854 0.2619
C106_3 C 0.2976(4) 0.5453(7) 0.19870(19)
H100_3 H 0.2635 0.5183 0.1888
C107_3 C 0.3730(4) 0.6513(8) 0.2108(2)
H101_3 H 0.3989 0.7112 0.2103
C108_3 C 0.3771(4) 0.5572(8) 0.2322(2)
H102_3 H 0.4059 0.5411 0.2483
N8_3 N 0.1979(3) 0.0387(5) 0.15837(14)
N9_2 N 0.3239(3) 0.6407(6) 0.19041(17)
N12_3 N 0.3286(3) 0.4932(6) 0.22408(15)
N13_3 N 0.0950(3) 0.5113(5) 0.23137(15)
N14_3 N 0.0579(3) 0.6860(5) 0.23337(15)
O10_3 O 0.0552(2) 0.8608(5) 0.29722(11)
O18_3 O 0.1179(2) 0.8472(5) 0.56205(12)
O19_3 O 0.1982(3) 0.4023(5) 0.64447(15)
C88_3 C 0.2393(4) 0.9775(7) 0.14598(16)
C89_3 C 0.1632(4) 0.9640(7) 0.17361(18)
H80_3 H 0.1319 0.9825 0.1837
C90_3 C 0.1871(3) 0.8555(7) 0.16989(17)
H81_3 H 0.1740 0.7855 0.1775
N7_3 N 0.2330(3) 0.8668(5) 0.15331(14)
C77_4 C 0.5746(6) 0.9729(13) 0.3737(3)
C78_4 C 0.5475(4) 0.9350(8) 0.3982(2)
H73_4 H 0.5499 0.8572 0.4045
H74_2 H 0.4971 0.9864 0.4309
C80_4 C 0.6142(6) 0.8841(16) 0.3593(4)
Cd8 Cd 0.70509(3) 0.73090(5) 0.354850(15)
O14_2 O 0.6376(4) 0.8135(8) 0.3771(2)
O17_4 O 0.6263(3) 0.9135(8) 0.33133(19)
C88_4 C 0.7607(4) 0.0225(7) 0.85402(16)
C89_4 C 0.8368(4) 0.0360(7) 0.82639(18)
H80_4 H 0.8681 0.0175 0.8163
C90_4 C 0.8129(3) 0.1445(7) 0.83011(17)
H81_4 H 0.8260 0.2145 0.8225
Cd3_2 Cd 0.70509(3) 0.26910(5) 0.854850(15)
N7_4 N 0.7670(3) 0.1332(5) 0.84669(14)
N11_2 N 0.6761(3) 0.3593(6) 0.80959(17)
O16_2 O 0.6376(4) 0.1865(8) 0.8771(2)
O22_2 O 0.7323(3) 0.4206(5) 0.88521(13)
H1_4 H 0.9505 0.0024 0.8487
Cd2_5 Cd 1.0000 0.17461(6) 0.7500
O2_4 O 0.9740(3) 0.0502(5) 0.79200(11)
C55_4 C 0.9802(4) 0.0751(7) 0.69207(17)
C56_4 C 0.9674(4) 0.0253(6) 0.65821(16)
C61_4 C 0.9128(4) 0.0182(6) 0.64408(17)
H55_4 H 0.8838 0.0411 0.6556
C72_4 C 0.8466(3) 0.0645(7) 0.4516(2)
H66_4 H 0.8197 0.0315 0.4351
H67_4 H 0.8267 0.0982 0.4683
C73_4 C 0.9030(3) 0.0939(6) 0.51663(18)
H68_4 H 0.8930 0.1577 0.5023
H69_4 H 0.9367 0.1126 0.5301
H70_4 H 0.8735 0.0802 0.5298
C81_4 C 0.8556(3) 0.2502(7) 0.42448(17)
C82_4 C 0.8880(4) 0.3243(7) 0.40803(17)
H75_4 H 0.9259 0.3097 0.4076
C83_4 C 0.8628(3) 0.4214(7) 0.39212(17)
H76_4 H 0.8835 0.4702 0.3802
C84_4 C 0.8067(4) 0.4444(7) 0.39432(17)
C85_4 C 0.7737(4) 0.3712(7) 0.41155(17)
H77_4 H 0.7364 0.3889 0.4129
C86_4 C 0.7985(4) 0.2683(7) 0.42703(18)
H78_4 H 0.7778 0.2167 0.4381
C87_4 C 0.7799(4) 0.5506(7) 0.3769(2)
H79_4 H 0.7332 0.9917 0.8655
C91_4 C 0.8111(4) 0.8317(6) 0.84719(18)
H82_4 H 0.8485 0.8187 0.8577
H83_4 H 0.7849 0.8035 0.8614
C92_4 C 0.8032(5) 0.7622(6) 0.81561(18)
C93_4 C 0.7479(4) 0.7308(6) 0.80354(19)
C94_4 C 0.7412(4) 0.6581(6) 0.77524(18)
C95_4 C 0.7893(4) 0.6173(6) 0.76190(17)
C96_4 C 0.8416(4) 0.6510(6) 0.77414(19)
C97_4 C 0.8515(5) 0.7236(7) 0.8020(2)
C98_4 C 0.9103(4) 0.7564(6) 0.8161(2)
H84_4 H 0.9109 0.7695 0.8388
H85_4 H 0.9355 0.6941 0.8124
H86_4 H 0.9217 0.8262 0.8060
C99_4 C 0.6969(4) 0.7712(6) 0.81922(18)
H87_4 H 0.6872 0.8491 0.8123
H88_4 H 0.6661 0.7198 0.8131
H89_4 H 0.7055 0.7701 0.8422
C100_4 C 0.7808(4) 0.5282(7) 0.73391(16)
H90_4 H 0.8123 0.4767 0.7350
H91_4 H 0.7475 0.4837 0.7356
H92_4 H 0.7773 0.5692 0.7138
C101_4 C 0.8916(4) 0.6095(6) 0.7581(2)
H93_4 H 0.9234 0.6600 0.7641
H94_4 H 0.8830 0.6121 0.7349
C102_4 C 0.9312(3) 0.4126(7) 0.7501(2)
H95_4 H 0.9400 0.4271 0.7294
C103_4 C 0.9234(3) 0.3252(7) 0.79694(18)
H96_4 H 0.9264 0.2694 0.8132
C104_4 C 0.8998(4) 0.4337(7) 0.7983(2)
H97_4 H 0.8836 0.4651 0.8155
C105_4 C 0.6839(4) 0.6220(7) 0.76127(19)
H98_4 H 0.6567 0.6798 0.7661
H99_4 H 0.6824 0.6146 0.7381
C106_4 C 0.7024(4) 0.4547(7) 0.80130(19)
H100_4 H 0.7365 0.4817 0.8112
C107_4 C 0.6270(4) 0.3487(8) 0.7892(2)
H101_4 H 0.6011 0.2888 0.7897
C108_4 C 0.6229(4) 0.4428(8) 0.7678(2)
H102_4 H 0.5941 0.4589 0.7517
N8_4 N 0.8021(3) 0.9613(5) 0.84163(14)
N12_4 N 0.6714(3) 0.5068(6) 0.77592(15)
N13_4 N 0.9050(3) 0.4887(5) 0.76863(15)
N14_4 N 0.9421(3) 0.3140(5) 0.76663(15)
O10_4 O 0.9448(2) 0.1392(5) 0.70278(11)
O18_4 O 0.8821(2) 0.1528(5) 0.43795(12)
O19_4 O 0.8018(3) 0.5977(5) 0.35553(15)
O20_2 O 0.7323(3) 0.5794(5) 0.38521(13)
C23_4 C 0.5746(6) 0.0271(13) 0.8737(3)
C24_4 C 0.5475(4) 0.0650(8) 0.8982(2)
H22_4 H 0.5499 0.1428 0.9045
H23_2 H 0.4971 0.0136 0.9309
C26_4 C 0.6142(6) 0.1159(16) 0.8593(4)
O6_4 O 0.6263(3) 0.0865(8) 0.83133(19)
C1_4 C 0.9802(4) 0.9249(7) 0.19207(17)
C2_4 C 0.9674(4) 0.9747(6) 0.15821(16)
C7_4 C 0.9128(4) 0.9818(6) 0.14408(17)
H4_4 H 0.8838 0.9589 0.1556
C19_4 C 0.9030(3) 0.9061(6) 0.01663(18)
H17_4 H 0.8930 0.8423 0.0023
H18_4 H 0.9367 0.8874 0.0301
H19_4 H 0.8735 0.9198 0.0298
H28_4 H 0.7332 0.0083 0.3655
C37_4 C 0.8111(4) 0.1683(6) 0.34719(18)
H31_4 H 0.8485 0.1813 0.3577
H32_4 H 0.7849 0.1965 0.3614
C38_4 C 0.8032(5) 0.2378(6) 0.31561(18)
C39_4 C 0.7479(4) 0.2692(6) 0.30354(19)
C40_4 C 0.7412(4) 0.3419(6) 0.27524(18)
C41_4 C 0.7893(4) 0.3827(6) 0.26190(17)
C42_4 C 0.8416(4) 0.3490(6) 0.27414(19)
C43_4 C 0.8515(5) 0.2764(7) 0.3020(2)
C44_4 C 0.9103(4) 0.2436(6) 0.3161(2)
H33_4 H 0.9109 0.2305 0.3388
H34_4 H 0.9355 0.3059 0.3124
H35_4 H 0.9217 0.1738 0.3060
C45_4 C 0.6969(4) 0.2288(6) 0.31922(18)
H36_4 H 0.6872 0.1509 0.3123
H37_4 H 0.6661 0.2802 0.3131
H38_4 H 0.7055 0.2299 0.3422
C46_4 C 0.7808(4) 0.4718(7) 0.23391(16)
H39_4 H 0.8123 0.5233 0.2350
H40_4 H 0.7475 0.5163 0.2356
H41_4 H 0.7773 0.4308 0.2138
C47_4 C 0.8916(4) 0.3905(6) 0.2581(2)
H42_4 H 0.9234 0.3400 0.2641
H43_4 H 0.8830 0.3879 0.2349
C48_4 C 0.9312(3) 0.5874(7) 0.2501(2)
H44_4 H 0.9400 0.5729 0.2294
C49_4 C 0.9234(3) 0.6748(7) 0.29694(18)
H45_4 H 0.9264 0.7306 0.3132
C50_4 C 0.8998(4) 0.5663(7) 0.2983(2)
H46_4 H 0.8836 0.5349 0.3155
C51_4 C 0.6839(4) 0.3780(7) 0.26127(19)
H47_4 H 0.6567 0.3202 0.2661
H48_4 H 0.6824 0.3854 0.2381
C52_4 C 0.7024(4) 0.5453(7) 0.30130(19)
H49_4 H 0.7365 0.5183 0.3112
C53_4 C 0.6270(4) 0.6513(8) 0.2892(2)
H50_4 H 0.6011 0.7112 0.2897
C54_4 C 0.6229(4) 0.5572(8) 0.2678(2)
H51_4 H 0.5941 0.5411 0.2517
Cd2_6 Cd 1.0000 0.82539(6) 0.2500
N2_4 N 0.8021(3) 0.0387(5) 0.34163(14)
N3_2 N 0.6761(3) 0.6407(6) 0.30959(17)
N4_4 N 0.6714(3) 0.4932(6) 0.27592(15)
N5_4 N 0.9050(3) 0.5113(5) 0.26863(15)
N6_4 N 0.9421(3) 0.6860(5) 0.26663(15)
O1_4 O 0.9448(2) 0.8608(5) 0.20278(11)
H52_4 H 0.9505 0.9976 0.3487
O11_4 O 0.9740(3) 0.9498(5) 0.29200(11)
C18_3 C 0.8466(3) 0.9355(7) 0.9516(2)
H15_3 H 0.8197 0.9685 0.9351
H16_3 H 0.8267 0.9018 0.9683
C27_3 C 0.8556(3) 0.7498(7) 0.92448(17)
C28_3 C 0.8880(4) 0.6757(7) 0.90803(17)
H24_3 H 0.9259 0.6903 0.9076
C29_3 C 0.8628(3) 0.5786(7) 0.89212(17)
H25_3 H 0.8835 0.5298 0.8802
C30_3 C 0.8067(4) 0.5556(7) 0.89432(17)
C31_3 C 0.7737(4) 0.6288(7) 0.91155(17)
H26_3 H 0.7364 0.6111 0.9129
C32_3 C 0.7985(4) 0.7317(7) 0.92703(18)
H27_3 H 0.7778 0.7833 0.9381
C33_4 C 0.7799(4) 0.4494(7) 0.8769(2)
O7_3 O 0.8821(2) 0.8472(5) 0.93795(12)
O8_4 O 0.8018(3) 0.4023(5) 0.85553(15)
C34_4 C 0.7607(4) 0.9775(7) 0.35402(16)
C35_4 C 0.8368(4) 0.9640(7) 0.32639(18)
H29_4 H 0.8681 0.9825 0.3163
C36_4 C 0.8129(3) 0.8555(7) 0.33011(17)
H30_4 H 0.8260 0.7855 0.3225
N1_4 N 0.7670(3) 0.8668(5) 0.34669(14)
C10_2 C 0.0430(3) 0.7926(7) 0.00684(18)
C11_2 C 0.0668(3) 0.7848(7) 0.03932(17)
C12_2 C 0.1014(3) 0.8744(8) 0.05328(17)
C13_2 C 0.1122(3) 0.9731(7) 0.03463(17)
C14_2 C 0.0877(3) 0.9833(7) 0.00302(17)
C16_2 C 0.0560(4) 0.6739(7) 0.05886(19)
H10_2 H 0.0449 0.6087 0.0448
H11_2 H 0.0888 0.6522 0.0732
C17_2 C 0.1255(4) 0.8666(8) 0.08917(16)
H12_2 H 0.0955 0.8720 0.1024
H13_2 H 0.1513 0.9295 0.0942
H14_2 H 0.1445 0.7935 0.0930
H23_3 H 0.0029 0.4864 0.0691
O4_2 O 0.0114(3) 0.7109(5) 0.07640(17)
C3_3 C 0.9869(4) 0.9956(7) 0.85845(17)
C4_3 C 0.9979(4) 0.9554(7) 0.89023(18)
H2_3 H 0.9689 0.9367 0.9022
H5_3 H 0.9943 0.8513 0.9504
H8_3 H 0.9695 0.6952 0.9974
C59_3 C 0.9470(4) 0.9445(7) 0.59667(17)
C60_3 C 0.9010(4) 0.9773(7) 0.61294(18)
H54_3 H 0.8645 0.9717 0.6032
C62_3 C 0.9778(3) 0.9114(7) 0.54446(13)
H57_3 H 0.9958 0.9872 0.5463
C63_3 C 0.9469(3) 0.8931(7) 0.51050(15)
C64_3 C 0.9570(3) 0.7926(7) 0.49316(18)
C65_3 C 0.9332(3) 0.7848(7) 0.46068(17)
C66_3 C 0.8986(3) 0.8744(8) 0.44672(17)
C67_3 C 0.8878(3) 0.9731(7) 0.46537(17)
C68_3 C 0.9123(3) 0.9833(7) 0.49698(17)
C69_3 C 0.9935(4) 0.6904(7) 0.5090(2)
H58_3 H 0.9954 0.6963 0.5319
H60_3 H 0.9770 0.6171 0.5021
C70_3 C 0.9440(4) 0.6739(7) 0.44114(19)
H61_3 H 0.9551 0.6087 0.4552
H62_3 H 0.9112 0.6522 0.4268
C71_3 C 0.8745(4) 0.8666(8) 0.41083(16)
H63_3 H 0.9045 0.8720 0.3976
H64_3 H 0.8487 0.9295 0.4058
H65_3 H 0.8555 0.7935 0.4070
H74_3 H 0.9971 0.4864 0.4309
O12_3 O 0.9326(2) 0.9034(5) 0.56551(11)
O13_3 O 0.9886(3) 0.7109(5) 0.42360(17)
C10_3 C 0.4570(3) 0.7074(7) 0.99316(18)
C11_3 C 0.4332(3) 0.7152(7) 0.96068(17)
C12_3 C 0.3986(3) 0.6256(8) 0.94672(17)
C13_3 C 0.3878(3) 0.5269(7) 0.96537(17)
C14_3 C 0.4123(3) 0.5167(7) 0.99698(17)
C16_3 C 0.4440(4) 0.8261(7) 0.94114(19)
H10_3 H 0.4551 0.8913 0.9552
H11_3 H 0.4112 0.8478 0.9268
C17_3 C 0.3745(4) 0.6334(8) 0.91083(16)
H12_3 H 0.4045 0.6280 0.8976
H13_3 H 0.3487 0.5705 0.9058
H14_3 H 0.3555 0.7065 0.9070
C18_4 C 0.3466(3) 0.4355(7) 0.9516(2)
H15_4 H 0.3197 0.4685 0.9351
H16_4 H 0.3267 0.4018 0.9683
C20_4 C 0.5111(5) 0.8774(10) 0.9062(3)
C21_4 C 0.5405(5) 0.8318(11) 0.8792(3)
H20_4 H 0.5369 0.7533 0.8738
C22_4 C 0.5742(6) 0.9060(12) 0.8614(3)
H21_4 H 0.5931 0.8812 0.8445
C25_4 C 0.5157(4) 0.9865(8) 0.9141(2)
C27_4 C 0.3556(3) 0.2498(7) 0.92448(17)
C28_4 C 0.3880(4) 0.1757(7) 0.90803(17)
H24_4 H 0.4259 0.1903 0.9076
C29_4 C 0.3628(3) 0.0786(7) 0.89212(17)
H25_4 H 0.3835 0.0298 0.8802
C30_4 C 0.3067(4) 0.0556(7) 0.89432(17)
C31_4 C 0.2737(4) 0.1288(7) 0.91155(17)
H26_4 H 0.2364 0.1111 0.9129
C32_4 C 0.2985(4) 0.2317(7) 0.92703(18)
H27_4 H 0.2778 0.2833 0.9381
O4_3 O 0.4886(3) 0.7891(5) 0.92360(17)
O7_4 O 0.3821(2) 0.3472(5) 0.93795(12)
C3_4 C 0.0131(4) 0.0044(7) 0.14155(17)
C4_4 C 0.0021(4) 0.0446(7) 0.10977(18)
H2_4 H 0.0311 0.0633 0.0978
H5_4 H 0.0057 0.1487 0.0496
H8_4 H 0.0305 0.3048 0.0026
C59_4 C 0.0530(4) 0.0555(7) 0.40333(17)
C60_4 C 0.0990(4) 0.0227(7) 0.38706(18)
H54_4 H 0.1355 0.0283 0.3968
C62_4 C 0.0222(3) 0.0886(7) 0.45554(13)
H57_4 H 0.0042 0.0128 0.4537
C63_4 C 0.0531(3) 0.1069(7) 0.48950(15)
C64_4 C 0.0430(3) 0.2074(7) 0.50684(18)
C65_4 C 0.0668(3) 0.2152(7) 0.53932(17)
C66_4 C 0.1014(3) 0.1256(8) 0.55328(17)
C67_4 C 0.1122(3) 0.0269(7) 0.53463(17)
C68_4 C 0.0877(3) 0.0167(7) 0.50302(17)
C69_4 C 0.0065(4) 0.3096(7) 0.4910(2)
H58_4 H 0.0046 0.3037 0.4681
H60_4 H 0.0230 0.3829 0.4979
C70_4 C 0.0560(4) 0.3261(7) 0.55886(19)
H61_4 H 0.0449 0.3913 0.5448
H62_4 H 0.0888 0.3478 0.5732
C71_4 C 0.1255(4) 0.1334(8) 0.58917(16)
H63_4 H 0.0955 0.1280 0.6024
H64_4 H 0.1513 0.0705 0.5942
H65_4 H 0.1445 0.2065 0.5930
H74_4 H 0.0029 0.5136 0.5691
O12_4 O 0.0674(2) 0.0966(5) 0.43449(11)
O13_4 O 0.0114(3) 0.2891(5) 0.57640(17)
C10_4 C 0.9570(3) 0.2074(7) 0.99316(18)
C11_4 C 0.9332(3) 0.2152(7) 0.96068(17)
C12_4 C 0.8986(3) 0.1256(8) 0.94672(17)
C13_4 C 0.8878(3) 0.0269(7) 0.96537(17)
C14_4 C 0.9123(3) 0.0167(7) 0.99698(17)
C16_4 C 0.9440(4) 0.3261(7) 0.94114(19)
H10_4 H 0.9551 0.3913 0.9552
H11_4 H 0.9112 0.3478 0.9268
C17_4 C 0.8745(4) 0.1334(8) 0.91083(16)
H12_4 H 0.9045 0.1280 0.8976
H13_4 H 0.8487 0.0705 0.9058
H14_4 H 0.8555 0.2065 0.9070
H23_4 H 0.9971 0.5136 0.9309
O4_4 O 0.9886(3) 0.2891(5) 0.92360(17)
loop_
_geom_bond_atom_site_label_1
_geom_bond_atom_site_label_2
_geom_bond_site_symmetry_1
_geom_bond_site_symmetry_2
O8 C33 1_555 1_555
O9 C33 1_555 1_555
Cd6 O9 1_555 1_555
C34 H28 1_555 1_555
C35 H29 1_555 1_555
C36 C35 1_555 1_555
H30 C36 1_555 1_555
C37 H31 1_555 1_555
H32 C37 1_555 1_555
C38 C37 1_555 1_555
C39 C38 1_555 1_555
C40 C39 1_555 1_555
C41 C40 1_555 1_555
C42 C41 1_555 1_555
C43 C38 1_555 1_555
C44 C43 1_555 1_555
H33 C44 1_555 1_555
H34 C44 1_555 1_555
H35 C44 1_555 1_555
C45 C39 1_555 1_555
H36 C45 1_555 1_555
H37 C45 1_555 1_555
H38 C45 1_555 1_555
C46 C41 1_555 1_555
H41 C46 1_555 1_555
C47 C42 1_555 1_555
H42 C47 1_555 1_555
H43 C47 1_555 1_555
C51 C40 1_555 1_555
H47 C51 1_555 1_555
H48 C51 1_555 1_555
Cd1 N1 1_555 1_555
N1 C34 1_555 1_555
N2 C34 1_555 1_555
N4 C51 1_555 1_555
C88 H79 1_555 1_555
C89 H80 1_555 1_555
C90 C89 1_555 1_555
H81 C90 1_555 1_555
C91 H82 1_555 1_555
H83 C91 1_555 1_555
C92 C91 1_555 1_555
C93 C92 1_555 1_555
C94 C93 1_555 1_555
C95 C94 1_555 1_555
C96 C95 1_555 1_555
C97 C92 1_555 1_555
C98 C97 1_555 1_555
H84 C98 1_555 1_555
H85 C98 1_555 1_555
H86 C98 1_555 1_555
C99 C93 1_555 1_555
H87 C99 1_555 1_555
H88 C99 1_555 1_555
H89 C99 1_555 1_555
C100 C95 1_555 1_555
H92 C100 1_555 1_555
C101 C96 1_555 1_555
H93 C101 1_555 1_555
H94 C101 1_555 1_555
C105 C94 1_555 1_555
H98 C105 1_555 1_555
H99 C105 1_555 1_555
Cd3 N7 1_555 1_555
Cd9 O20 1_555 1_555
N7 C88 1_555 1_555
N8 C88 1_555 1_555
N10 Cd1 1_555 1_555
N11 Cd3 1_555 1_555
N12 C105 1_555 1_555
O15 Cd1 1_555 1_555
O16 Cd3 1_555 1_555
O19 C87 1_555 1_555
O20 C87 1_555 1_555
O21 Cd1 1_555 1_555
O22 Cd3 1_555 1_555
C35 N2 1_555 1_555
C36 N1 1_555 1_555
C37 N2 1_555 1_555
C42 C43 1_555 1_555
C89 N8 1_555 1_555
C90 N7 1_555 1_555
C91 N8 1_555 1_555
C96 C97 1_555 1_555
C1 C2 1_555 1_555
C2 C3 1_555 1_555
C3 H1 1_555 1_555
C4 C3 1_555 1_555
H2 C4 1_555 1_555
C5 C4 1_555 1_555
C6 C5 1_555 1_555
H3 C6 1_555 1_555
C7 C2 1_555 1_555
H4 C7 1_555 1_555
C8 H5 1_555 1_555
H6 C8 1_555 1_555
C9 C8 1_555 1_555
H7 C15 1_555 1_555
H8 C15 1_555 1_555
H9 C15 1_555 1_555
H17 C19 1_555 1_555
H18 C19 1_555 1_555
H19 C19 1_555 1_555
C48 H44 1_555 1_555
C49 H45 1_555 1_555
C50 C49 1_555 1_555
H46 C50 1_555 1_555
C52 H49 1_555 1_555
C53 H50 1_555 1_555
C54 C53 1_555 1_555
H51 C54 1_555 1_555
Cd2 N6 1_555 1_555
N10 C52 1_555 1_555
N6 C48 1_555 1_555
O1 C1 1_555 1_555
O2 C1 1_555 1_555
O3 C5 1_555 1_555
C55 C56 1_555 1_555
C56 C57 1_555 1_555
C57 H52 1_555 1_555
C58 C57 1_555 1_555
H53 C58 1_555 1_555
C59 C58 1_555 1_555
C60 C59 1_555 1_555
H54 C60 1_555 1_555
C61 C56 1_555 1_555
H55 C61 1_555 1_555
C62 H56 1_555 1_555
H57 C62 1_555 1_555
C63 C62 1_555 1_555
C64 C63 1_555 1_555
C65 C64 1_555 1_555
C66 C65 1_555 1_555
C67 C66 1_555 1_555
C68 C63 1_555 1_555
C69 C64 1_555 1_555
H58 C69 1_555 1_555
H59 C69 1_555 1_555
H60 C69 1_555 1_555
C70 C65 1_555 1_555
H61 C70 1_555 1_555
H62 C70 1_555 1_555
C71 C66 1_555 1_555
H63 C71 1_555 1_555
H64 C71 1_555 1_555
H65 C71 1_555 1_555
C72 C67 1_555 1_555
H66 C72 1_555 1_555
H67 C72 1_555 1_555
C73 C68 1_555 1_555
H68 C73 1_555 1_555
H69 C73 1_555 1_555
H70 C73 1_555 1_555
C74 C75 1_555 1_555
C75 H71 1_555 1_555
C76 C75 1_555 1_555
H72 C76 1_555 1_555
C79 C74 1_555 1_555
C81 C82 1_555 1_555
C82 H75 1_555 1_555
C83 C82 1_555 1_555
H76 C83 1_555 1_555
C84 C83 1_555 1_555
C85 C84 1_555 1_555
H77 C85 1_555 1_555
C86 C81 1_555 1_555
H78 C86 1_555 1_555
C102 H95 1_555 1_555
C103 H96 1_555 1_555
C104 C103 1_555 1_555
H97 C104 1_555 1_555
C106 H100 1_555 1_555
C107 H101 1_555 1_555
C108 C107 1_555 1_555
H102 C108 1_555 1_555
N11 C106 1_555 1_555
N14 Cd2 1_555 1_555
O10 Cd2 1_555 1_555
O11 Cd2 1_555 1_555
O12 C59 1_555 1_555
O13 C70 1_555 1_555
O18 C72 1_555 1_555
C6 C7 1_555 1_555
C8 O3 1_555 1_555
C48 N5 1_555 1_555
C49 N6 1_555 1_555
C50 N5 1_555 1_555
C53 N10 1_555 1_555
Cd2 O1 1_555 1_555
Cd2 O2 1_555 1_555
C55 O10 1_555 1_555
C55 O11 1_555 1_555
C60 C61 1_555 1_555
C62 O12 1_555 1_555
C67 C68 1_555 1_555
C74 O13 1_555 1_555
C81 O18 1_555 1_555
C85 C86 1_555 1_555
C102 N13 1_555 1_555
C102 N14 1_555 1_555
C103 N14 1_555 1_555
C104 N13 1_555 1_555
C107 N11 1_555 1_555
C6_2 C5_2 1_555 1_555
H3_2 C6_2 1_555 1_555
H6_2 C8_2 1_555 1_555
C9_2 C8_2 1_555 1_555
H7_2 C15_2 1_555 1_555
H9_2 C15_2 1_555 1_555
O3_2 C5_2 1_555 1_555
C58_2 C57_2 1_555 1_555
H53_2 C58_2 1_555 1_555
C74_2 C75_2 1_555 1_555
C75_2 H71_2 1_555 1_555
C76_2 C75_2 1_555 1_555
H72_2 C76_2 1_555 1_555
C77 C76_2 1_555 1_555
C78 C77 1_555 1_555
H73 C78 1_555 1_555
C79_2 C74_2 1_555 1_555
C80 C77 1_555 1_555
Cd9 O14 1_555 1_555
O14 C80 1_555 1_555
O17 C80 1_555 1_555
C8_2 O3_2 1_555 1_555
C78 C79_2 1_555 1_555
C20 C21 1_555 1_555
C21 H20 1_555 1_555
C22 C21 1_555 1_555
H21 C22 1_555 1_555
C23 C22 1_555 1_555
C24 C23 1_555 1_555
H22 C24 1_555 1_555
C25 C20 1_555 1_555
C26 C23 1_555 1_555
O5 C26 1_555 1_555
O6 C26 1_555 1_555
Cd6 O5 1_555 1_555
C24 C25 1_555 1_555
C1_2 C2_2 1_555 1_555
C2_2 C3_2 1_555 1_555
C3_2 H1_2 1_555 1_555
C4_2 C3_2 1_555 1_555
H2_2 C4_2 1_555 1_555
C5_3 C4_2 1_555 1_555
C6_3 C5_3 1_555 1_555
H3_3 C6_3 1_555 1_555
C7_2 C2_2 1_555 1_555
H4_2 C7_2 1_555 1_555
C8_3 H5_2 1_555 1_555
H6_3 C8_3 1_555 1_555
C9_3 C8_3 1_555 1_555
H7_3 C15_3 1_555 1_555
H8_2 C15_3 1_555 1_555
H9_3 C15_3 1_555 1_555
H17_2 C19_2 1_555 1_555
H18_2 C19_2 1_555 1_555
H19_2 C19_2 1_555 1_555
C48_2 H44_2 1_555 1_555
C49_2 H45_2 1_555 1_555
C50_2 C49_2 1_555 1_555
H46_2 C50_2 1_555 1_555
C52_2 H49_2 1_555 1_555
C53_2 H50_2 1_555 1_555
C54_2 C53_2 1_555 1_555
H51_2 C54_2 1_555 1_555
Cd2_2 N6_2 1_555 1_555
N3 C52_2 1_555 1_555
N6_2 C48_2 1_555 1_555
O1_2 C1_2 1_555 1_555
O2_2 C1_2 1_555 1_555
O3_3 C5_3 1_555 1_555
C55_2 C56_2 1_555 1_555
C56_2 C57_3 1_555 1_555
C57_3 H52_2 1_555 1_555
C58_3 C57_3 1_555 1_555
H53_3 C58_3 1_555 1_555
C59_2 C58_3 1_555 1_555
C60_2 C59_2 1_555 1_555
H54_2 C60_2 1_555 1_555
C61_2 C56_2 1_555 1_555
H55_2 C61_2 1_555 1_555
C62_2 H56_3 1_555 1_555
H57_2 C62_2 1_555 1_555
C63_2 C62_2 1_555 1_555
C64_2 C63_2 1_555 1_555
C65_2 C64_2 1_555 1_555
C66_2 C65_2 1_555 1_555
C67_2 C66_2 1_555 1_555
C68_2 C63_2 1_555 1_555
C69_2 C64_2 1_555 1_555
H58_2 C69_2 1_555 1_555
H59_3 C69_2 1_555 1_555
H60_2 C69_2 1_555 1_555
C70_2 C65_2 1_555 1_555
H61_2 C70_2 1_555 1_555
H62_2 C70_2 1_555 1_555
C71_2 C66_2 1_555 1_555
H63_2 C71_2 1_555 1_555
H64_2 C71_2 1_555 1_555
H65_2 C71_2 1_555 1_555
C72_2 C67_2 1_555 1_555
H66_2 C72_2 1_555 1_555
H67_2 C72_2 1_555 1_555
C73_2 C68_2 1_555 1_555
H68_2 C73_2 1_555 1_555
H69_2 C73_2 1_555 1_555
H70_2 C73_2 1_555 1_555
C74_3 C75_3 1_555 1_555
C75_3 H71_3 1_555 1_555
C76_3 C75_3 1_555 1_555
H72_3 C76_3 1_555 1_555
C79_3 C74_3 1_555 1_555
C81_2 C82_2 1_555 1_555
C82_2 H75_2 1_555 1_555
C83_2 C82_2 1_555 1_555
H76_2 C83_2 1_555 1_555
C84_2 C83_2 1_555 1_555
C85_2 C84_2 1_555 1_555
H77_2 C85_2 1_555 1_555
C86_2 C81_2 1_555 1_555
H78_2 C86_2 1_555 1_555
C102_2 H95_2 1_555 1_555
C103_2 H96_2 1_555 1_555
C104_2 C103_2 1_555 1_555
H97_2 C104_2 1_555 1_555
C106_2 H100_2 1_555 1_555
C107_2 H101_2 1_555 1_555
C108_2 C107_2 1_555 1_555
H102_2 C108_2 1_555 1_555
Cd9 N3 1_555 1_555
Cd6 N9 1_555 1_555
N9 C106_2 1_555 1_555
N14_2 Cd2_2 1_555 1_555
O10_2 Cd2_2 1_555 1_555
O11_2 Cd2_2 1_555 1_555
O12_2 C59_2 1_555 1_555
O13_2 C70_2 1_555 1_555
O18_2 C72_2 1_555 1_555
C6_3 C7_2 1_555 1_555
C8_3 O3_3 1_555 1_555
C48_2 N5_2 1_555 1_555
C49_2 N6_2 1_555 1_555
C50_2 N5_2 1_555 1_555
C53_2 N3 1_555 1_555
Cd2_2 O1_2 1_555 1_555
Cd2_2 O2_2 1_555 1_555
C55_2 O10_2 1_555 1_555
C55_2 O11_2 1_555 1_555
C60_2 C61_2 1_555 1_555
C62_2 O12_2 1_555 1_555
C67_2 C68_2 1_555 1_555
C74_3 O13_2 1_555 1_555
C81_2 O18_2 1_555 1_555
C85_2 C86_2 1_555 1_555
C102_2 N13_2 1_555 1_555
C102_2 N14_2 1_555 1_555
C103_2 N14_2 1_555 1_555
C104_2 N13_2 1_555 1_555
C107_2 N9 1_555 1_555
C34_2 H28_2 1_555 1_555
C35_2 H29_2 1_555 1_555
C36_2 C35_2 1_555 1_555
H30_2 C36_2 1_555 1_555
C37_2 H31_2 1_555 1_555
H32_2 C37_2 1_555 1_555
C38_2 C37_2 1_555 1_555
C39_2 C38_2 1_555 1_555
C40_2 C39_2 1_555 1_555
C41_2 C40_2 1_555 1_555
C42_2 C41_2 1_555 1_555
C43_2 C38_2 1_555 1_555
C44_2 C43_2 1_555 1_555
H33_2 C44_2 1_555 1_555
H34_2 C44_2 1_555 1_555
H35_2 C44_2 1_555 1_555
C45_2 C39_2 1_555 1_555
H36_2 C45_2 1_555 1_555
H37_2 C45_2 1_555 1_555
H38_2 C45_2 1_555 1_555
C46_2 C41_2 1_555 1_555
H41_2 C46_2 1_555 1_555
C47_2 C42_2 1_555 1_555
H42_2 C47_2 1_555 1_555
H43_2 C47_2 1_555 1_555
C51_2 C40_2 1_555 1_555
H47_2 C51_2 1_555 1_555
H48_2 C51_2 1_555 1_555
Cd9 N1_2 1_555 1_555
N1_2 C34_2 1_555 1_555
N2_2 C34_2 1_555 1_555
N4_2 C51_2 1_555 1_555
C88_2 H79_2 1_555 1_555
C89_2 H80_2 1_555 1_555
C90_2 C89_2 1_555 1_555
H81_2 C90_2 1_555 1_555
C91_2 H82_2 1_555 1_555
H83_2 C91_2 1_555 1_555
C92_2 C91_2 1_555 1_555
C93_2 C92_2 1_555 1_555
C94_2 C93_2 1_555 1_555
C95_2 C94_2 1_555 1_555
C96_2 C95_2 1_555 1_555
C97_2 C92_2 1_555 1_555
C98_2 C97_2 1_555 1_555
H84_2 C98_2 1_555 1_555
H85_2 C98_2 1_555 1_555
H86_2 C98_2 1_555 1_555
C99_2 C93_2 1_555 1_555
H87_2 C99_2 1_555 1_555
H88_2 C99_2 1_555 1_555
H89_2 C99_2 1_555 1_555
C100_2 C95_2 1_555 1_555
H92_2 C100_2 1_555 1_555
C101_2 C96_2 1_555 1_555
H93_2 C101_2 1_555 1_555
H94_2 C101_2 1_555 1_555
C105_2 C94_2 1_555 1_555
H98_2 C105_2 1_555 1_555
H99_2 C105_2 1_555 1_555
Cd6 N7_2 1_555 1_555
N7_2 C88_2 1_555 1_555
N8_2 C88_2 1_555 1_555
N12_2 C105_2 1_555 1_555
O19_2 C87_2 1_555 1_555
O21 C87_2 1_555 1_555
C35_2 N2_2 1_555 1_555
C36_2 N1_2 1_555 1_555
C37_2 N2_2 1_555 1_555
C42_2 C43_2 1_555 1_555
C89_2 N8_2 1_555 1_555
C90_2 N7_2 1_555 1_555
C91_2 N8_2 1_555 1_555
C96_2 C97_2 1_555 1_555
O8_2 C33_2 1_555 1_555
O22 C33_2 1_555 1_555
C20_2 C21_2 1_555 1_555
C21_2 H20_2 1_555 1_555
C22_2 C21_2 1_555 1_555
H21_2 C22_2 1_555 1_555
C23_2 C22_2 1_555 1_555
C24_2 C23_2 1_555 1_555
H22_2 C24_2 1_555 1_555
C25_2 C20_2 1_555 1_555
C26_2 C23_2 1_555 1_555
O16 C26_2 1_555 1_555
O6_2 C26_2 1_555 1_555
C24_2 C25_2 1_555 1_555
C6_4 C5_4 1_555 1_555
H3_4 C6_4 1_555 1_555
H6_4 C8_4 1_555 1_555
C9_4 C8_4 1_555 1_555
H7_4 C15_4 1_555 1_555
H9_4 C15_4 1_555 1_555
O3_4 C5_4 1_555 1_555
C58_4 C57_4 1_555 1_555
H53_4 C58_4 1_555 1_555
C74_4 C75_4 1_555 1_555
C75_4 H71_4 1_555 1_555
C76_4 C75_4 1_555 1_555
H72_4 C76_4 1_555 1_555
C77_2 C76_4 1_555 1_555
C78_2 C77_2 1_555 1_555
H73_2 C78_2 1_555 1_555
C79_4 C74_4 1_555 1_555
C80_2 C77_2 1_555 1_555
O15 C80_2 1_555 1_555
O17_2 C80_2 1_555 1_555
C8_4 O3_4 1_555 1_555
C78_2 C79_4 1_555 1_555
C11 C10 1_555 1_555
C12 C11 1_555 1_555
C13 C12 1_555 1_555
C16 C11 1_555 1_555
H10 C16 1_555 1_555
H11 C16 1_555 1_555
C17 C12 1_555 1_555
H12 C17 1_555 1_555
H13 C17 1_555 1_555
H14 C17 1_555 1_555
C18 C13 1_555 1_555
H15 C18 1_555 1_555
H16 C18 1_555 1_555
C20_3 C21_3 1_555 1_555
C21_3 H20_3 1_555 1_555
C22_3 C21_3 1_555 1_555
H21_3 C22_3 1_555 1_555
C25_3 C20_3 1_555 1_555
C27 C28 1_555 1_555
C28 H24 1_555 1_555
C29 C28 1_555 1_555
H25 C29 1_555 1_555
C30 C29 1_555 1_555
C31 C30 1_555 1_555
H26 C31 1_555 1_555
C32 C27 1_555 1_555
H27 C32 1_555 1_555
O4 C16 1_555 1_555
O7 C18 1_555 1_555
C13 C14 1_555 1_555
C20_3 O4 1_555 1_555
C27 O7 1_555 1_555
C31 C32 1_555 1_555
C24_3 C23_3 1_555 1_555
H22_3 C24_3 1_555 1_555
C26_3 C23_3 1_555 1_555
O5_2 C26_3 1_555 1_555
O6_3 C26_3 1_555 1_555
Cd5 O5_2 1_555 1_555
C35_3 H29_3 1_555 1_555
C36_3 C35_3 1_555 1_555
H30_3 C36_3 1_555 1_555
Cd1_2 N1_3 1_555 1_555
N1_3 C34_3 1_555 1_555
N10_2 Cd1_2 1_555 1_555
O15_2 Cd1_2 1_555 1_555
O21_2 Cd1_2 1_555 1_555
C36_3 N1_3 1_555 1_555
H15_2 C18_2 1_555 1_555
H16_2 C18_2 1_555 1_555
C27_2 C28_2 1_555 1_555
C28_2 H24_2 1_555 1_555
C29_2 C28_2 1_555 1_555
H25_2 C29_2 1_555 1_555
C30_2 C29_2 1_555 1_555
C31_2 C30_2 1_555 1_555
H26_2 C31_2 1_555 1_555
C32_2 C27_2 1_555 1_555
H27_2 C32_2 1_555 1_555
C33_3 C30_2 1_555 1_555
O7_2 C18_2 1_555 1_555
O8_3 C33_3 1_555 1_555
O9_2 C33_3 1_555 1_555
Cd5 O9_2 1_555 1_555
C27_2 O7_2 1_555 1_555
C31_2 C32_2 1_555 1_555
C1_3 C2_3 1_555 1_555
C7_3 C2_3 1_555 1_555
H4_3 C7_3 1_555 1_555
H17_3 C19_3 1_555 1_555
H18_3 C19_3 1_555 1_555
H19_3 C19_3 1_555 1_555
C37_3 H31_3 1_555 1_555
H32_3 C37_3 1_555 1_555
C38_3 C37_3 1_555 1_555
C39_3 C38_3 1_555 1_555
C40_3 C39_3 1_555 1_555
C41_3 C40_3 1_555 1_555
C42_3 C41_3 1_555 1_555
C43_3 C38_3 1_555 1_555
C44_3 C43_3 1_555 1_555
H33_3 C44_3 1_555 1_555
H34_3 C44_3 1_555 1_555
H35_3 C44_3 1_555 1_555
C45_3 C39_3 1_555 1_555
H36_3 C45_3 1_555 1_555
H37_3 C45_3 1_555 1_555
H38_3 C45_3 1_555 1_555
C46_3 C41_3 1_555 1_555
H39_3 C46_3 1_555 1_555
H40_3 C46_3 1_555 1_555
H41_3 C46_3 1_555 1_555
C47_3 C42_3 1_555 1_555
H42_3 C47_3 1_555 1_555
H43_3 C47_3 1_555 1_555
C48_3 H44_3 1_555 1_555
C49_3 H45_3 1_555 1_555
C50_3 C49_3 1_555 1_555
H46_3 C50_3 1_555 1_555
C51_3 C40_3 1_555 1_555
H47_3 C51_3 1_555 1_555
H48_3 C51_3 1_555 1_555
C52_3 H49_3 1_555 1_555
C53_3 H50_3 1_555 1_555
C54_3 C53_3 1_555 1_555
H51_3 C54_3 1_555 1_555
Cd2_3 N6_3 1_555 1_555
N10_2 C52_3 1_555 1_555
N4_3 C51_3 1_555 1_555
N5_3 C47_3 1_555 1_555
N6_3 C48_3 1_555 1_555
O1_3 C1_3 1_555 1_555
O11_3 Cd2_3 1_555 1_555
C37_3 N2_3 1_555 1_555
C42_3 C43_3 1_555 1_555
C48_3 N5_3 1_555 1_555
C49_3 N6_3 1_555 1_555
C50_3 N5_3 1_555 1_555
C52_3 N4_3 1_555 1_555
C53_3 N10_2 1_555 1_555
C54_3 N4_3 1_555 1_555
Cd2_3 O1_3 1_555 1_555
C78_3 C77_3 1_555 1_555
H73_3 C78_3 1_555 1_555
C80_3 C77_3 1_555 1_555
O15_2 C80_3 1_555 1_555
O17_3 C80_3 1_555 1_555
C55_3 C56_3 1_555 1_555
C61_3 C56_3 1_555 1_555
H55_3 C61_3 1_555 1_555
H66_3 C72_3 1_555 1_555
H67_3 C72_3 1_555 1_555
H68_3 C73_3 1_555 1_555
H69_3 C73_3 1_555 1_555
H70_3 C73_3 1_555 1_555
C81_3 C82_3 1_555 1_555
C82_3 H75_3 1_555 1_555
C83_3 C82_3 1_555 1_555
H76_3 C83_3 1_555 1_555
C84_3 C83_3 1_555 1_555
C85_3 C84_3 1_555 1_555
H77_3 C85_3 1_555 1_555
C86_3 C81_3 1_555 1_555
H78_3 C86_3 1_555 1_555
C87_3 C84_3 1_555 1_555
C91_3 H82_3 1_555 1_555
H83_3 C91_3 1_555 1_555
C92_3 C91_3 1_555 1_555
C93_3 C92_3 1_555 1_555
C94_3 C93_3 1_555 1_555
C95_3 C94_3 1_555 1_555
C96_3 C95_3 1_555 1_555
C97_3 C92_3 1_555 1_555
C98_3 C97_3 1_555 1_555
H84_3 C98_3 1_555 1_555
H85_3 C98_3 1_555 1_555
H86_3 C98_3 1_555 1_555
C99_3 C93_3 1_555 1_555
H87_3 C99_3 1_555 1_555
H88_3 C99_3 1_555 1_555
H89_3 C99_3 1_555 1_555
C100_3 C95_3 1_555 1_555
H90_3 C100_3 1_555 1_555
H91_3 C100_3 1_555 1_555
H92_3 C100_3 1_555 1_555
C101_3 C96_3 1_555 1_555
H93_3 C101_3 1_555 1_555
H94_3 C101_3 1_555 1_555
C102_3 H95_3 1_555 1_555
C103_3 H96_3 1_555 1_555
C104_3 C103_3 1_555 1_555
H97_3 C104_3 1_555 1_555
C105_3 C94_3 1_555 1_555
H98_3 C105_3 1_555 1_555
H99_3 C105_3 1_555 1_555
C106_3 H100_3 1_555 1_555
C107_3 H101_3 1_555 1_555
C108_3 C107_3 1_555 1_555
H102_3 C108_3 1_555 1_555
Cd5 N9_2 1_555 1_555
N9_2 C106_3 1_555 1_555
N12_3 C105_3 1_555 1_555
N13_3 C101_3 1_555 1_555
N14_3 Cd2_4 1_555 1_555
O10_3 Cd2_4 1_555 1_555
O18_3 C72_3 1_555 1_555
O19_3 C87_3 1_555 1_555
O21_2 C87_3 1_555 1_555
Cd2_4 O2_3 1_555 1_555
C55_3 O10_3 1_555 1_555
C81_3 O18_3 1_555 1_555
C85_3 C86_3 1_555 1_555
C91_3 N8_3 1_555 1_555
C96_3 C97_3 1_555 1_555
C102_3 N13_3 1_555 1_555
C102_3 N14_3 1_555 1_555
C103_3 N14_3 1_555 1_555
C104_3 N13_3 1_555 1_555
C106_3 N12_3 1_555 1_555
C107_3 N9_2 1_555 1_555
C108_3 N12_3 1_555 1_555
C89_3 H80_3 1_555 1_555
C90_3 C89_3 1_555 1_555
H81_3 C90_3 1_555 1_555
Cd5 N7_3 1_555 1_555
N7_3 C88_3 1_555 1_555
C90_3 N7_3 1_555 1_555
C78_4 C77_4 1_555 1_555
H73_4 C78_4 1_555 1_555
C80_4 C77_4 1_555 1_555
Cd8 O14_2 1_555 1_555
O14_2 C80_4 1_555 1_555
O17_4 C80_4 1_555 1_555
C89_4 H80_4 1_555 1_555
C90_4 C89_4 1_555 1_555
H81_4 C90_4 1_555 1_555
Cd3_2 N7_4 1_555 1_555
N7_4 C88_4 1_555 1_555
N11_2 Cd3_2 1_555 1_555
O16_2 Cd3_2 1_555 1_555
O22_2 Cd3_2 1_555 1_555
C90_4 N7_4 1_555 1_555
C55_4 C56_4 1_555 1_555
C61_4 C56_4 1_555 1_555
H55_4 C61_4 1_555 1_555
H66_4 C72_4 1_555 1_555
H67_4 C72_4 1_555 1_555
H68_4 C73_4 1_555 1_555
H69_4 C73_4 1_555 1_555
H70_4 C73_4 1_555 1_555
C81_4 C82_4 1_555 1_555
C82_4 H75_4 1_555 1_555
C83_4 C82_4 1_555 1_555
H76_4 C83_4 1_555 1_555
C84_4 C83_4 1_555 1_555
C85_4 C84_4 1_555 1_555
H77_4 C85_4 1_555 1_555
C86_4 C81_4 1_555 1_555
H78_4 C86_4 1_555 1_555
C87_4 C84_4 1_555 1_555
C91_4 H82_4 1_555 1_555
H83_4 C91_4 1_555 1_555
C92_4 C91_4 1_555 1_555
C93_4 C92_4 1_555 1_555
C94_4 C93_4 1_555 1_555
C95_4 C94_4 1_555 1_555
C96_4 C95_4 1_555 1_555
C97_4 C92_4 1_555 1_555
C98_4 C97_4 1_555 1_555
H84_4 C98_4 1_555 1_555
H85_4 C98_4 1_555 1_555
H86_4 C98_4 1_555 1_555
C99_4 C93_4 1_555 1_555
H87_4 C99_4 1_555 1_555
H88_4 C99_4 1_555 1_555
H89_4 C99_4 1_555 1_555
C100_4 C95_4 1_555 1_555
H90_4 C100_4 1_555 1_555
H91_4 C100_4 1_555 1_555
H92_4 C100_4 1_555 1_555
C101_4 C96_4 1_555 1_555
H93_4 C101_4 1_555 1_555
H94_4 C101_4 1_555 1_555
C102_4 H95_4 1_555 1_555
C103_4 H96_4 1_555 1_555
C104_4 C103_4 1_555 1_555
H97_4 C104_4 1_555 1_555
C105_4 C94_4 1_555 1_555
H98_4 C105_4 1_555 1_555
H99_4 C105_4 1_555 1_555
C106_4 H100_4 1_555 1_555
C107_4 H101_4 1_555 1_555
C108_4 C107_4 1_555 1_555
H102_4 C108_4 1_555 1_555
Cd8 O20_2 1_555 1_555
N11_2 C106_4 1_555 1_555
N12_4 C105_4 1_555 1_555
N13_4 C101_4 1_555 1_555
N14_4 Cd2_5 1_555 1_555
O10_4 Cd2_5 1_555 1_555
O18_4 C72_4 1_555 1_555
O19_4 C87_4 1_555 1_555
O20_2 C87_4 1_555 1_555
Cd2_5 O2_4 1_555 1_555
C55_4 O10_4 1_555 1_555
C81_4 O18_4 1_555 1_555
C85_4 C86_4 1_555 1_555
C91_4 N8_4 1_555 1_555
C96_4 C97_4 1_555 1_555
C102_4 N13_4 1_555 1_555
C102_4 N14_4 1_555 1_555
C103_4 N14_4 1_555 1_555
C104_4 N13_4 1_555 1_555
C106_4 N12_4 1_555 1_555
C107_4 N11_2 1_555 1_555
C108_4 N12_4 1_555 1_555
C24_4 C23_4 1_555 1_555
H22_4 C24_4 1_555 1_555
C26_4 C23_4 1_555 1_555
O16_2 C26_4 1_555 1_555
O6_4 C26_4 1_555 1_555
C1_4 C2_4 1_555 1_555
C7_4 C2_4 1_555 1_555
H4_4 C7_4 1_555 1_555
H17_4 C19_4 1_555 1_555
H18_4 C19_4 1_555 1_555
H19_4 C19_4 1_555 1_555
C37_4 H31_4 1_555 1_555
H32_4 C37_4 1_555 1_555
C38_4 C37_4 1_555 1_555
C39_4 C38_4 1_555 1_555
C40_4 C39_4 1_555 1_555
C41_4 C40_4 1_555 1_555
C42_4 C41_4 1_555 1_555
C43_4 C38_4 1_555 1_555
C44_4 C43_4 1_555 1_555
H33_4 C44_4 1_555 1_555
H34_4 C44_4 1_555 1_555
H35_4 C44_4 1_555 1_555
C45_4 C39_4 1_555 1_555
H36_4 C45_4 1_555 1_555
H37_4 C45_4 1_555 1_555
H38_4 C45_4 1_555 1_555
C46_4 C41_4 1_555 1_555
H39_4 C46_4 1_555 1_555
H40_4 C46_4 1_555 1_555
H41_4 C46_4 1_555 1_555
C47_4 C42_4 1_555 1_555
H42_4 C47_4 1_555 1_555
H43_4 C47_4 1_555 1_555
C48_4 H44_4 1_555 1_555
C49_4 H45_4 1_555 1_555
C50_4 C49_4 1_555 1_555
H46_4 C50_4 1_555 1_555
C51_4 C40_4 1_555 1_555
H47_4 C51_4 1_555 1_555
H48_4 C51_4 1_555 1_555
C52_4 H49_4 1_555 1_555
C53_4 H50_4 1_555 1_555
C54_4 C53_4 1_555 1_555
H51_4 C54_4 1_555 1_555
Cd2_6 N6_4 1_555 1_555
N3_2 C52_4 1_555 1_555
N4_4 C51_4 1_555 1_555
N5_4 C47_4 1_555 1_555
N6_4 C48_4 1_555 1_555
O1_4 C1_4 1_555 1_555
Cd8 N3_2 1_555 1_555
O11_4 Cd2_6 1_555 1_555
C37_4 N2_4 1_555 1_555
C42_4 C43_4 1_555 1_555
C48_4 N5_4 1_555 1_555
C49_4 N6_4 1_555 1_555
C50_4 N5_4 1_555 1_555
C52_4 N4_4 1_555 1_555
C53_4 N3_2 1_555 1_555
C54_4 N4_4 1_555 1_555
Cd2_6 O1_4 1_555 1_555
H15_3 C18_3 1_555 1_555
H16_3 C18_3 1_555 1_555
C27_3 C28_3 1_555 1_555
C28_3 H24_3 1_555 1_555
C29_3 C28_3 1_555 1_555
H25_3 C29_3 1_555 1_555
C30_3 C29_3 1_555 1_555
C31_3 C30_3 1_555 1_555
H26_3 C31_3 1_555 1_555
C32_3 C27_3 1_555 1_555
H27_3 C32_3 1_555 1_555
C33_4 C30_3 1_555 1_555
O7_3 C18_3 1_555 1_555
O8_4 C33_4 1_555 1_555
O22_2 C33_4 1_555 1_555
C27_3 O7_3 1_555 1_555
C31_3 C32_3 1_555 1_555
C35_4 H29_4 1_555 1_555
C36_4 C35_4 1_555 1_555
H30_4 C36_4 1_555 1_555
Cd8 N1_4 1_555 1_555
N1_4 C34_4 1_555 1_555
C36_4 N1_4 1_555 1_555
C11_2 C10_2 1_555 1_555
C12_2 C11_2 1_555 1_555
C13_2 C12_2 1_555 1_555
C16_2 C11_2 1_555 1_555
H10_2 C16_2 1_555 1_555
H11_2 C16_2 1_555 1_555
C17_2 C12_2 1_555 1_555
H12_2 C17_2 1_555 1_555
H13_2 C17_2 1_555 1_555
H14_2 C17_2 1_555 1_555
O4_2 C16_2 1_555 1_555
C13_2 C14_2 1_555 1_555
C4_3 C3_3 1_555 1_555
H2_3 C4_3 1_555 1_555
C60_3 C59_3 1_555 1_555
H54_3 C60_3 1_555 1_555
H57_3 C62_3 1_555 1_555
C63_3 C62_3 1_555 1_555
C64_3 C63_3 1_555 1_555
C65_3 C64_3 1_555 1_555
C66_3 C65_3 1_555 1_555
C67_3 C66_3 1_555 1_555
C68_3 C63_3 1_555 1_555
C69_3 C64_3 1_555 1_555
H58_3 C69_3 1_555 1_555
H60_3 C69_3 1_555 1_555
C70_3 C65_3 1_555 1_555
H61_3 C70_3 1_555 1_555
H62_3 C70_3 1_555 1_555
C71_3 C66_3 1_555 1_555
H63_3 C71_3 1_555 1_555
H64_3 C71_3 1_555 1_555
H65_3 C71_3 1_555 1_555
O12_3 C59_3 1_555 1_555
O13_3 C70_3 1_555 1_555
C62_3 O12_3 1_555 1_555
C67_3 C68_3 1_555 1_555
C11_3 C10_3 1_555 1_555
C12_3 C11_3 1_555 1_555
C13_3 C12_3 1_555 1_555
C16_3 C11_3 1_555 1_555
H10_3 C16_3 1_555 1_555
H11_3 C16_3 1_555 1_555
C17_3 C12_3 1_555 1_555
H12_3 C17_3 1_555 1_555
H13_3 C17_3 1_555 1_555
H14_3 C17_3 1_555 1_555
C18_4 C13_3 1_555 1_555
H15_4 C18_4 1_555 1_555
H16_4 C18_4 1_555 1_555
C20_4 C21_4 1_555 1_555
C21_4 H20_4 1_555 1_555
C22_4 C21_4 1_555 1_555
H21_4 C22_4 1_555 1_555
C25_4 C20_4 1_555 1_555
C27_4 C28_4 1_555 1_555
C28_4 H24_4 1_555 1_555
C29_4 C28_4 1_555 1_555
H25_4 C29_4 1_555 1_555
C30_4 C29_4 1_555 1_555
C31_4 C30_4 1_555 1_555
H26_4 C31_4 1_555 1_555
C32_4 C27_4 1_555 1_555
H27_4 C32_4 1_555 1_555
O4_3 C16_3 1_555 1_555
O7_4 C18_4 1_555 1_555
C13_3 C14_3 1_555 1_555
C20_4 O4_3 1_555 1_555
C27_4 O7_4 1_555 1_555
C31_4 C32_4 1_555 1_555
C4_4 C3_4 1_555 1_555
H2_4 C4_4 1_555 1_555
C60_4 C59_4 1_555 1_555
H54_4 C60_4 1_555 1_555
H57_4 C62_4 1_555 1_555
C63_4 C62_4 1_555 1_555
C64_4 C63_4 1_555 1_555
C65_4 C64_4 1_555 1_555
C66_4 C65_4 1_555 1_555
C67_4 C66_4 1_555 1_555
C68_4 C63_4 1_555 1_555
C69_4 C64_4 1_555 1_555
H58_4 C69_4 1_555 1_555
H60_4 C69_4 1_555 1_555
C70_4 C65_4 1_555 1_555
H61_4 C70_4 1_555 1_555
H62_4 C70_4 1_555 1_555
C71_4 C66_4 1_555 1_555
H63_4 C71_4 1_555 1_555
H64_4 C71_4 1_555 1_555
H65_4 C71_4 1_555 1_555
O12_4 C59_4 1_555 1_555
O13_4 C70_4 1_555 1_555
C62_4 O12_4 1_555 1_555
C67_4 C68_4 1_555 1_555
C11_4 C10_4 1_555 1_555
C12_4 C11_4 1_555 1_555
C13_4 C12_4 1_555 1_555
C16_4 C11_4 1_555 1_555
H10_4 C16_4 1_555 1_555
H11_4 C16_4 1_555 1_555
C17_4 C12_4 1_555 1_555
H12_4 C17_4 1_555 1_555
H13_4 C17_4 1_555 1_555
H14_4 C17_4 1_555 1_555
O4_4 C16_4 1_555 1_555
C13_4 C14_4 1_555 1_555

#END
