
###############################################################################
#
# This file contains modified crystal structure data generated from the
# MOF subset of the Cambridge Structural Database (CSD) v543 
# hosted by the Cambridge Crystallographic Data Centre (CCDC).
#
# This work is licensed under the Creative Commons
# Attribution-NonCommercial-ShareAlike 4.0 International License.
# To view a copy of this license, visit
# http://creativecommons.org/licenses/by-nc-sa/4.0/
# or send a letter to
# Creative Commons, PO Box 1866, Mountain View, CA 94042, USA.
#
# CIF created using the CSD Python API on 29 September 2022
# The structure has been converted into the P1 space group
# The structure has a 3D framework
# The original CSD entry DEJHUY is in the orthorhombic crystal system
# The framework has been calculated to contain at least 10.0% void space
# The void calculation uses a probe of radius 1.32A, grid spacing 0.4
#
###############################################################################

data_DEJHUY
_chemical_formula_moiety         '(C304 H160 Cu10 N32 O72)n'
_symmetry_cell_setting           triclinic
_symmetry_space_group_name_H-M   'P 1'
_symmetry_Int_Tables_number      1
_space_group_name_Hall           'P 1'
loop_
_symmetry_equiv_pos_site_id
_symmetry_equiv_pos_as_xyz
1 x,y,z
_cell_length_a                   11.4048(18)
_cell_length_b                   23.083(4)
_cell_length_c                   27.320(4)
_cell_angle_alpha                90
_cell_angle_beta                 90
_cell_angle_gamma                90
_cell_volume                     7192.18
loop_
_atom_site_label
_atom_site_type_symbol
_atom_site_fract_x
_atom_site_fract_y
_atom_site_fract_z
Cu1 Cu 0.1250 0.29685(6) 0.1250
O1 O 0.2266(5) 0.2984(3) 0.0676(2)
O2 O 0.2297(5) 0.3924(3) 0.08375(19)
N1 N 0.2617(6) 0.2815(3) 0.1709(2)
C1 C 0.2549(7) 0.3506(5) 0.0579(3)
C2 C 0.3194(8) 0.3608(6) 0.0111(3)
C6 C 0.2454(8) 0.2577(6) 0.2144(4)
H2 H 0.1691 0.2488 0.2238
C7 C 0.3356(8) 0.2452(6) 0.2469(4)
H3 H 0.3194 0.2295 0.2775
C8 C 0.3717(8) 0.2936(6) 0.1591(4)
H4 H 0.3856 0.3109 0.1290
C9 C 0.4670(8) 0.2822(6) 0.1886(3)
H5 H 0.5421 0.2920 0.1783
C10 C 0.4504(7) 0.2565(4) 0.2328(3)
O9 O 0.5234(5) 0.4516(3) 0.0676(2)
O10 O 0.5203(5) 0.3576(3) 0.08375(19)
C20 C 0.4951(7) 0.3994(5) 0.0579(3)
C21 C 0.4306(8) 0.3892(6) 0.0111(3)
N2 N 0.7383(6) 0.2185(3) 0.3291(2)
C24 C 0.7546(8) 0.2423(6) 0.2856(4)
H9 H 0.8309 0.2512 0.2762
C25 C 0.6644(8) 0.2548(6) 0.2531(4)
H10 H 0.6806 0.2705 0.2225
C26 C 0.6283(8) 0.2064(6) 0.3409(4)
H11 H 0.6144 0.1891 0.3710
C27 C 0.5330(8) 0.2178(6) 0.3114(3)
H12 H 0.4579 0.2080 0.3217
C28 C 0.5496(7) 0.2435(4) 0.2672(3)
C29 C 0.0046(8) 0.2577(6) 0.0356(4)
H13 H 0.0809 0.2488 0.0262
Cu4 Cu 0.6250 0.45315(6) 0.1250
Cu5 Cu 0.8750 0.20315(6) 0.3750
O11 O 0.0234(5) 0.2984(3) 0.1824(2)
O13 O 0.0203(5) 0.3924(3) 0.16625(19)
O3 O 0.1479(15) 0.3750 0.8750
C3 C 0.2655(9) 0.3488(7) 0.9666(3)
H1 H 0.1916 0.3318 0.9664
C4 C 0.3189(10) 0.3616(9) 0.9234(4)
C5 C 0.2547(19) 0.3750 0.8750
O4 O 0.2266(5) 0.4516(3) 0.6824(2)
O5 O 0.2297(5) 0.3576(3) 0.66625(19)
C11 C 0.2549(7) 0.3994(5) 0.6921(3)
C12 C 0.3194(8) 0.3892(6) 0.7389(3)
C13 C 0.2655(9) 0.4012(7) 0.7834(3)
H6 H 0.1916 0.4182 0.7836
C14 C 0.3189(10) 0.3884(9) 0.8266(4)
O6 O 0.5234(5) 0.2984(3) 0.6824(2)
O7 O 0.5203(5) 0.3924(3) 0.66625(19)
O8 O 0.6021(15) 0.3750 0.8750
C15 C 0.4951(7) 0.3506(5) 0.6921(3)
C16 C 0.4306(8) 0.3608(6) 0.7389(3)
C17 C 0.4845(9) 0.3488(7) 0.7834(3)
H7 H 0.5584 0.3318 0.7836
C18 C 0.4311(10) 0.3616(9) 0.8266(4)
C19 C 0.4953(19) 0.3750 0.8750
C22 C 0.4845(9) 0.4012(7) 0.9666(3)
H8 H 0.5584 0.4182 0.9664
C23 C 0.4311(10) 0.3884(9) 0.9234(4)
Cu2 Cu 0.1250 0.45315(6) 0.6250
Cu3 Cu 0.6250 0.29685(6) 0.6250
O12 O 0.0234(5) 0.4516(3) 0.5676(2)
O14 O 0.0203(5) 0.3576(3) 0.58375(19)
N6 N 0.2617(6) 0.4685(3) 0.5791(2)
N3 N 0.9883(6) 0.2815(3) 0.0791(2)
C30 C 0.9144(8) 0.2452(6) 0.0031(4)
C31 C 0.8783(8) 0.2936(6) 0.0909(4)
H15 H 0.8644 0.3109 0.1210
C32 C 0.7830(8) 0.2822(6) 0.0614(3)
H16 H 0.7079 0.2920 0.0717
C33 C 0.7996(7) 0.2565(4) 0.0172(3)
H18 H 0.5694 0.2705 0.0275
H14 H 0.9306 0.2295 0.9725
N4 N 0.5117(6) 0.2185(3) 0.9209(2)
C34 C 0.4954(8) 0.2423(6) 0.9644(4)
H17 H 0.4191 0.2512 0.9738
C35 C 0.5856(8) 0.2548(6) 0.9969(4)
C36 C 0.6217(8) 0.2064(6) 0.9091(4)
H19 H 0.6356 0.1891 0.8790
C37 C 0.7170(8) 0.2178(6) 0.9386(3)
H20 H 0.7921 0.2080 0.9283
C38 C 0.7004(7) 0.2435(4) 0.9828(3)
Cu6 Cu 0.3750 0.20315(6) 0.8750
N5 N 0.9883(6) 0.4685(3) 0.6709(2)
H2_2 H 0.0809 0.0012 0.2238
H13_2 H 0.1691 0.0012 0.0262
C30_2 C 0.3356(8) 0.0048(6) 0.0031(4)
H14_2 H 0.3194 0.0205 0.9725
N4_2 N 0.7383(6) 0.0315(3) 0.9209(2)
C34_2 C 0.7546(8) 0.0077(6) 0.9644(4)
C36_2 C 0.6283(8) 0.0436(6) 0.9091(4)
H19_2 H 0.6144 0.0609 0.8790
C37_2 C 0.5330(8) 0.0322(6) 0.9386(3)
H20_2 H 0.4579 0.0420 0.9283
C38_2 C 0.5496(7) 0.0065(4) 0.9828(3)
Cu6_2 Cu 0.8750 0.04685(6) 0.8750
Cu1_2 Cu 0.1250 0.95315(6) 0.1250
O1_2 O 0.0234(5) 0.9516(3) 0.0676(2)
O2_2 O 0.0203(5) 0.8576(3) 0.08375(19)
C6_2 C 0.0046(8) 0.9923(6) 0.2144(4)
N3_2 N 0.2617(6) 0.9685(3) 0.0791(2)
C29_2 C 0.2454(8) 0.9923(6) 0.0356(4)
C31_2 C 0.3717(8) 0.9564(6) 0.0909(4)
H15_2 H 0.3856 0.9391 0.1210
C32_2 C 0.4670(8) 0.9678(6) 0.0614(3)
H16_2 H 0.5421 0.9580 0.0717
C33_2 C 0.4504(7) 0.9935(4) 0.0172(3)
H18_2 H 0.6806 0.9795 0.0275
O11_2 O 0.2266(5) 0.9516(3) 0.1824(2)
O13_2 O 0.2297(5) 0.8576(3) 0.16625(19)
O3_2 O 0.1021(15) 0.8750 0.8750
H1_2 H 0.0584 0.9182 0.9664
O4_2 O 0.0234(5) 0.7984(3) 0.6824(2)
O5_2 O 0.0203(5) 0.8924(3) 0.66625(19)
H6_2 H 0.0584 0.8318 0.7836
H17_2 H 0.8309 0.9988 0.9738
C35_2 C 0.6644(8) 0.9952(6) 0.9969(4)
Cu2_2 Cu 0.1250 0.79685(6) 0.6250
O12_2 O 0.2266(5) 0.7984(3) 0.5676(2)
O14_2 O 0.2297(5) 0.8924(3) 0.58375(19)
N5_2 N 0.2617(6) 0.7815(3) 0.6709(2)
C7_2 C 0.9144(8) 0.0048(6) 0.2469(4)
H3_2 H 0.9306 0.0205 0.2775
N2_2 N 0.5117(6) 0.0315(3) 0.3291(2)
C24_2 C 0.4954(8) 0.0077(6) 0.2856(4)
C26_2 C 0.6217(8) 0.0436(6) 0.3409(4)
H11_2 H 0.6356 0.0609 0.3710
C27_2 C 0.7170(8) 0.0322(6) 0.3114(3)
H12_2 H 0.7921 0.0420 0.3217
C28_2 C 0.7004(7) 0.0065(4) 0.2672(3)
Cu5_2 Cu 0.3750 0.04685(6) 0.3750
N1_2 N 0.9883(6) 0.9685(3) 0.1709(2)
C1_2 C 0.9951(7) 0.8994(5) 0.0579(3)
C2_2 C 0.9306(8) 0.8892(6) 0.0111(3)
C8_2 C 0.8783(8) 0.9564(6) 0.1591(4)
H4_2 H 0.8644 0.9391 0.1290
C9_2 C 0.7830(8) 0.9678(6) 0.1886(3)
H5_2 H 0.7079 0.9580 0.1783
C10_2 C 0.7996(7) 0.9935(4) 0.2328(3)
O9_2 O 0.7266(5) 0.7984(3) 0.0676(2)
O10_2 O 0.7297(5) 0.8924(3) 0.08375(19)
C20_2 C 0.7549(7) 0.8506(5) 0.0579(3)
C21_2 C 0.8194(8) 0.8608(6) 0.0111(3)
H9_2 H 0.4191 0.9988 0.2762
C25_2 C 0.5856(8) 0.9952(6) 0.2531(4)
H10_2 H 0.5694 0.9795 0.2225
Cu4_2 Cu 0.6250 0.79685(6) 0.1250
C3_2 C 0.9845(9) 0.9012(7) 0.9666(3)
C4_2 C 0.9311(10) 0.8884(9) 0.9234(4)
C5_2 C 0.9953(19) 0.8750 0.8750
C11_2 C 0.9951(7) 0.8506(5) 0.6921(3)
C12_2 C 0.9306(8) 0.8608(6) 0.7389(3)
C13_2 C 0.9845(9) 0.8488(7) 0.7834(3)
C14_2 C 0.9311(10) 0.8616(9) 0.8266(4)
O6_2 O 0.7266(5) 0.9516(3) 0.6824(2)
O7_2 O 0.7297(5) 0.8576(3) 0.66625(19)
O8_2 O 0.6479(15) 0.8750 0.8750
C15_2 C 0.7549(7) 0.8994(5) 0.6921(3)
C16_2 C 0.8194(8) 0.8892(6) 0.7389(3)
C17_2 C 0.7655(9) 0.9012(7) 0.7834(3)
H7_2 H 0.6916 0.9182 0.7836
C18_2 C 0.8189(10) 0.8884(9) 0.8266(4)
C19_2 C 0.7547(19) 0.8750 0.8750
C22_2 C 0.7655(9) 0.8488(7) 0.9666(3)
H8_2 H 0.6916 0.8318 0.9664
C23_2 C 0.8189(10) 0.8616(9) 0.9234(4)
Cu3_2 Cu 0.6250 0.95315(6) 0.6250
N6_2 N 0.9883(6) 0.7815(3) 0.5791(2)
O3_3 O 0.1479(15) 0.8750 0.3750
C1_3 C 0.2549(7) 0.8994(5) 0.1921(3)
C2_3 C 0.3194(8) 0.8892(6) 0.2389(3)
C3_3 C 0.2655(9) 0.9012(7) 0.2834(3)
H1_3 H 0.1916 0.9182 0.2836
C4_3 C 0.3189(10) 0.8884(9) 0.3266(4)
C5_3 C 0.2547(19) 0.8750 0.3750
C11_3 C 0.2549(7) 0.8506(5) 0.5579(3)
C12_3 C 0.3194(8) 0.8608(6) 0.5111(3)
C13_3 C 0.2655(9) 0.8488(7) 0.4666(3)
H6_3 H 0.1916 0.8318 0.4664
C14_3 C 0.3189(10) 0.8616(9) 0.4234(4)
O6_3 O 0.5234(5) 0.9516(3) 0.5676(2)
O7_3 O 0.5203(5) 0.8576(3) 0.58375(19)
O8_3 O 0.6021(15) 0.8750 0.3750
C15_3 C 0.4951(7) 0.8994(5) 0.5579(3)
C16_3 C 0.4306(8) 0.8892(6) 0.5111(3)
C17_3 C 0.4845(9) 0.9012(7) 0.4666(3)
H7_3 H 0.5584 0.9182 0.4664
C18_3 C 0.4311(10) 0.8884(9) 0.4234(4)
C19_3 C 0.4953(19) 0.8750 0.3750
O9_3 O 0.5234(5) 0.7984(3) 0.1824(2)
O10_3 O 0.5203(5) 0.8924(3) 0.16625(19)
C20_3 C 0.4951(7) 0.8506(5) 0.1921(3)
C21_3 C 0.4306(8) 0.8608(6) 0.2389(3)
C22_3 C 0.4845(9) 0.8488(7) 0.2834(3)
H8_3 H 0.5584 0.8318 0.2836
C23_3 C 0.4311(10) 0.8616(9) 0.3266(4)
O3_4 O 0.1021(15) 0.3750 0.3750
H1_4 H 0.0584 0.3318 0.2836
H6_4 H 0.0584 0.4182 0.4664
C1_4 C 0.9951(7) 0.3506(5) 0.1921(3)
C2_4 C 0.9306(8) 0.3608(6) 0.2389(3)
C3_4 C 0.9845(9) 0.3488(7) 0.2834(3)
C4_4 C 0.9311(10) 0.3616(9) 0.3266(4)
C5_4 C 0.9953(19) 0.3750 0.3750
C11_4 C 0.9951(7) 0.3994(5) 0.5579(3)
C12_4 C 0.9306(8) 0.3892(6) 0.5111(3)
C13_4 C 0.9845(9) 0.4012(7) 0.4666(3)
C14_4 C 0.9311(10) 0.3884(9) 0.4234(4)
O6_4 O 0.7266(5) 0.2984(3) 0.5676(2)
O7_4 O 0.7297(5) 0.3924(3) 0.58375(19)
O8_4 O 0.6479(15) 0.3750 0.3750
C15_4 C 0.7549(7) 0.3506(5) 0.5579(3)
C16_4 C 0.8194(8) 0.3608(6) 0.5111(3)
C17_4 C 0.7655(9) 0.3488(7) 0.4666(3)
H7_4 H 0.6916 0.3318 0.4664
C18_4 C 0.8189(10) 0.3616(9) 0.4234(4)
C19_4 C 0.7547(19) 0.3750 0.3750
O9_4 O 0.7266(5) 0.4516(3) 0.1824(2)
O10_4 O 0.7297(5) 0.3576(3) 0.16625(19)
C20_4 C 0.7549(7) 0.3994(5) 0.1921(3)
C21_4 C 0.8194(8) 0.3892(6) 0.2389(3)
C22_4 C 0.7655(9) 0.4012(7) 0.2834(3)
H8_4 H 0.6916 0.4182 0.2836
C23_4 C 0.8189(10) 0.3884(9) 0.3266(4)
C6_3 C 0.2454(8) 0.7577(6) 0.7144(4)
H2_3 H 0.1691 0.7488 0.7238
C7_3 C 0.3356(8) 0.7452(6) 0.7469(4)
H3_3 H 0.3194 0.7295 0.7775
C8_3 C 0.3717(8) 0.7936(6) 0.6591(4)
H4_3 H 0.3856 0.8109 0.6290
C9_3 C 0.4670(8) 0.7822(6) 0.6886(3)
H5_3 H 0.5421 0.7920 0.6783
C10_3 C 0.4504(7) 0.7565(4) 0.7328(3)
N2_3 N 0.7383(6) 0.7185(3) 0.8291(2)
C24_3 C 0.7546(8) 0.7423(6) 0.7856(4)
H9_3 H 0.8309 0.7512 0.7762
C25_3 C 0.6644(8) 0.7548(6) 0.7531(4)
H10_3 H 0.6806 0.7705 0.7225
C26_3 C 0.6283(8) 0.7064(6) 0.8409(4)
H11_3 H 0.6144 0.6891 0.8710
C27_3 C 0.5330(8) 0.7178(6) 0.8114(3)
H12_3 H 0.4579 0.7080 0.8217
C28_3 C 0.5496(7) 0.7435(4) 0.7672(3)
C29_3 C 0.0046(8) 0.7577(6) 0.5356(4)
H13_3 H 0.0809 0.7488 0.5262
Cu5_3 Cu 0.8750 0.70315(6) 0.8750
C30_3 C 0.9144(8) 0.7452(6) 0.5031(4)
H14_3 H 0.9306 0.7295 0.4725
C31_3 C 0.8783(8) 0.7936(6) 0.5909(4)
H15_3 H 0.8644 0.8109 0.6210
C32_3 C 0.7830(8) 0.7822(6) 0.5614(3)
H16_3 H 0.7079 0.7920 0.5717
C33_3 C 0.7996(7) 0.7565(4) 0.5172(3)
N4_3 N 0.5117(6) 0.7185(3) 0.4209(2)
C34_3 C 0.4954(8) 0.7423(6) 0.4644(4)
H17_3 H 0.4191 0.7512 0.4738
C35_3 C 0.5856(8) 0.7548(6) 0.4969(4)
H18_3 H 0.5694 0.7705 0.5275
C36_3 C 0.6217(8) 0.7064(6) 0.4091(4)
H19_3 H 0.6356 0.6891 0.3790
C37_3 C 0.7170(8) 0.7178(6) 0.4386(3)
H20_3 H 0.7921 0.7080 0.4283
C38_3 C 0.7004(7) 0.7435(4) 0.4828(3)
Cu6_3 Cu 0.3750 0.70315(6) 0.3750
C6_4 C 0.0046(8) 0.4923(6) 0.7144(4)
H2_4 H 0.0809 0.5012 0.7238
C29_4 C 0.2454(8) 0.4923(6) 0.5356(4)
H13_4 H 0.1691 0.5012 0.5262
C30_4 C 0.3356(8) 0.5048(6) 0.5031(4)
H14_4 H 0.3194 0.5205 0.4725
C31_4 C 0.3717(8) 0.4564(6) 0.5909(4)
H15_4 H 0.3856 0.4391 0.6210
C32_4 C 0.4670(8) 0.4678(6) 0.5614(3)
H16_4 H 0.5421 0.4580 0.5717
C33_4 C 0.4504(7) 0.4935(4) 0.5172(3)
N4_4 N 0.7383(6) 0.5315(3) 0.4209(2)
C34_4 C 0.7546(8) 0.5077(6) 0.4644(4)
H17_4 H 0.8309 0.4988 0.4738
C35_4 C 0.6644(8) 0.4952(6) 0.4969(4)
H18_4 H 0.6806 0.4795 0.5275
C36_4 C 0.6283(8) 0.5436(6) 0.4091(4)
H19_4 H 0.6144 0.5609 0.3790
C37_4 C 0.5330(8) 0.5322(6) 0.4386(3)
H20_4 H 0.4579 0.5420 0.4283
C38_4 C 0.5496(7) 0.5065(4) 0.4828(3)
Cu6_4 Cu 0.8750 0.54685(6) 0.3750
C7_4 C 0.9144(8) 0.5048(6) 0.7469(4)
H3_4 H 0.9306 0.5205 0.7775
C8_4 C 0.8783(8) 0.4564(6) 0.6591(4)
H4_4 H 0.8644 0.4391 0.6290
C9_4 C 0.7830(8) 0.4678(6) 0.6886(3)
H5_4 H 0.7079 0.4580 0.6783
C10_4 C 0.7996(7) 0.4935(4) 0.7328(3)
N2_4 N 0.5117(6) 0.5315(3) 0.8291(2)
C24_4 C 0.4954(8) 0.5077(6) 0.7856(4)
H9_4 H 0.4191 0.4988 0.7762
C25_4 C 0.5856(8) 0.4952(6) 0.7531(4)
H10_4 H 0.5694 0.4795 0.7225
C26_4 C 0.6217(8) 0.5436(6) 0.8409(4)
H11_4 H 0.6356 0.5609 0.8710
C27_4 C 0.7170(8) 0.5322(6) 0.8114(3)
H12_4 H 0.7921 0.5420 0.8217
C28_4 C 0.7004(7) 0.5065(4) 0.7672(3)
Cu5_4 Cu 0.3750 0.54685(6) 0.8750
H5_5 H 0.0421 0.2920 0.6783
N2_5 N 0.2383(6) 0.2185(3) 0.8291(2)
C24_5 C 0.2546(8) 0.2423(6) 0.7856(4)
H9_5 H 0.3309 0.2512 0.7762
C25_5 C 0.1644(8) 0.2548(6) 0.7531(4)
H10_5 H 0.1806 0.2705 0.7225
C26_5 C 0.1283(8) 0.2064(6) 0.8409(4)
H11_5 H 0.1144 0.1891 0.8710
C27_5 C 0.0330(8) 0.2178(6) 0.8114(3)
C28_5 C 0.0496(7) 0.2435(4) 0.7672(3)
N1_3 N 0.7617(6) 0.2815(3) 0.6709(2)
C6_5 C 0.7454(8) 0.2577(6) 0.7144(4)
H2_5 H 0.6691 0.2488 0.7238
C7_5 C 0.8356(8) 0.2452(6) 0.7469(4)
H3_5 H 0.8194 0.2295 0.7775
C8_5 C 0.8717(8) 0.2936(6) 0.6591(4)
H4_5 H 0.8856 0.3109 0.6290
C9_5 C 0.9670(8) 0.2822(6) 0.6886(3)
C10_5 C 0.9504(7) 0.2565(4) 0.7328(3)
H12_5 H 0.9579 0.2080 0.8217
N3_3 N 0.4883(6) 0.2815(3) 0.5791(2)
C29_5 C 0.5046(8) 0.2577(6) 0.5356(4)
H13_5 H 0.5809 0.2488 0.5262
C30_5 C 0.4144(8) 0.2452(6) 0.5031(4)
H14_5 H 0.4306 0.2295 0.4725
C31_5 C 0.3783(8) 0.2936(6) 0.5909(4)
H15_5 H 0.3644 0.3109 0.6210
C32_5 C 0.2830(8) 0.2822(6) 0.5614(3)
H16_5 H 0.2079 0.2920 0.5717
C33_5 C 0.2996(7) 0.2565(4) 0.5172(3)
N4_5 N 0.0117(6) 0.2185(3) 0.4209(2)
C35_5 C 0.0856(8) 0.2548(6) 0.4969(4)
H18_5 H 0.0694 0.2705 0.5275
C36_5 C 0.1217(8) 0.2064(6) 0.4091(4)
H19_5 H 0.1356 0.1891 0.3790
C37_5 C 0.2170(8) 0.2178(6) 0.4386(3)
H20_5 H 0.2921 0.2080 0.4283
C38_5 C 0.2004(7) 0.2435(4) 0.4828(3)
N5_3 N 0.4883(6) 0.4685(3) 0.1709(2)
N6_3 N 0.7617(6) 0.4685(3) 0.0791(2)
C34_5 C 0.9954(8) 0.2423(6) 0.4644(4)
H17_5 H 0.9191 0.2512 0.4738
N4_6 N 0.2383(6) 0.0315(3) 0.4209(2)
C34_6 C 0.2546(8) 0.0077(6) 0.4644(4)
C36_6 C 0.1283(8) 0.0436(6) 0.4091(4)
H19_6 H 0.1144 0.0609 0.3790
C37_6 C 0.0330(8) 0.0322(6) 0.4386(3)
C38_6 C 0.0496(7) 0.0065(4) 0.4828(3)
H16_6 H 0.0421 0.9580 0.5717
H17_6 H 0.3309 0.9988 0.4738
C35_6 C 0.1644(8) 0.9952(6) 0.4969(4)
H18_6 H 0.1806 0.9795 0.5275
H2_6 H 0.5809 0.0012 0.7238
C7_6 C 0.4144(8) 0.0048(6) 0.7469(4)
H3_6 H 0.4306 0.0205 0.7775
N2_6 N 0.0117(6) 0.0315(3) 0.8291(2)
C26_6 C 0.1217(8) 0.0436(6) 0.8409(4)
H11_6 H 0.1356 0.0609 0.8710
C27_6 C 0.2170(8) 0.0322(6) 0.8114(3)
H12_6 H 0.2921 0.0420 0.8217
C28_6 C 0.2004(7) 0.0065(4) 0.7672(3)
H13_6 H 0.6691 0.0012 0.5262
C30_6 C 0.8356(8) 0.0048(6) 0.5031(4)
H14_6 H 0.8194 0.0205 0.4725
H20_6 H 0.9579 0.0420 0.4283
N1_4 N 0.4883(6) 0.9685(3) 0.6709(2)
C6_6 C 0.5046(8) 0.9923(6) 0.7144(4)
C8_6 C 0.3783(8) 0.9564(6) 0.6591(4)
H4_6 H 0.3644 0.9391 0.6290
C9_6 C 0.2830(8) 0.9678(6) 0.6886(3)
H5_6 H 0.2079 0.9580 0.6783
C10_6 C 0.2996(7) 0.9935(4) 0.7328(3)
C25_6 C 0.0856(8) 0.9952(6) 0.7531(4)
H10_6 H 0.0694 0.9795 0.7225
N3_4 N 0.7617(6) 0.9685(3) 0.5791(2)
C29_6 C 0.7454(8) 0.9923(6) 0.5356(4)
C31_6 C 0.8717(8) 0.9564(6) 0.5909(4)
H15_6 H 0.8856 0.9391 0.6210
C32_6 C 0.9670(8) 0.9678(6) 0.5614(3)
C33_6 C 0.9504(7) 0.9935(4) 0.5172(3)
N5_4 N 0.7617(6) 0.7815(3) 0.1709(2)
N6_4 N 0.4883(6) 0.7815(3) 0.0791(2)
C24_6 C 0.9954(8) 0.0077(6) 0.7856(4)
H9_6 H 0.9191 0.9988 0.7762
H5_7 H 0.0421 0.7920 0.1783
N2_7 N 0.2383(6) 0.7185(3) 0.3291(2)
C24_7 C 0.2546(8) 0.7423(6) 0.2856(4)
H9_7 H 0.3309 0.7512 0.2762
C25_7 C 0.1644(8) 0.7548(6) 0.2531(4)
H10_7 H 0.1806 0.7705 0.2225
C26_7 C 0.1283(8) 0.7064(6) 0.3409(4)
H11_7 H 0.1144 0.6891 0.3710
C27_7 C 0.0330(8) 0.7178(6) 0.3114(3)
C28_7 C 0.0496(7) 0.7435(4) 0.2672(3)
C6_7 C 0.7454(8) 0.7577(6) 0.2144(4)
H2_7 H 0.6691 0.7488 0.2238
C7_7 C 0.8356(8) 0.7452(6) 0.2469(4)
H3_7 H 0.8194 0.7295 0.2775
C8_7 C 0.8717(8) 0.7936(6) 0.1591(4)
H4_7 H 0.8856 0.8109 0.1290
C9_7 C 0.9670(8) 0.7822(6) 0.1886(3)
C10_7 C 0.9504(7) 0.7565(4) 0.2328(3)
H12_7 H 0.9579 0.7080 0.3217
C29_7 C 0.5046(8) 0.7577(6) 0.0356(4)
H13_7 H 0.5809 0.7488 0.0262
C30_7 C 0.4144(8) 0.7452(6) 0.0031(4)
C31_7 C 0.3783(8) 0.7936(6) 0.0909(4)
H15_7 H 0.3644 0.8109 0.1210
C32_7 C 0.2830(8) 0.7822(6) 0.0614(3)
H16_7 H 0.2079 0.7920 0.0717
C33_7 C 0.2996(7) 0.7565(4) 0.0172(3)
H18_7 H 0.0694 0.7705 0.0275
H14_7 H 0.4306 0.7295 0.9725
N4_7 N 0.0117(6) 0.7185(3) 0.9209(2)
C35_7 C 0.0856(8) 0.7548(6) 0.9969(4)
C36_7 C 0.1217(8) 0.7064(6) 0.9091(4)
H19_7 H 0.1356 0.6891 0.8790
C37_7 C 0.2170(8) 0.7178(6) 0.9386(3)
H20_7 H 0.2921 0.7080 0.9283
C38_7 C 0.2004(7) 0.7435(4) 0.9828(3)
C34_7 C 0.9954(8) 0.7423(6) 0.9644(4)
H17_7 H 0.9191 0.7512 0.9738
H16_8 H 0.0421 0.4580 0.0717
H18_8 H 0.1806 0.4795 0.0275
N4_8 N 0.2383(6) 0.5315(3) 0.9209(2)
C34_8 C 0.2546(8) 0.5077(6) 0.9644(4)
H17_8 H 0.3309 0.4988 0.9738
C35_8 C 0.1644(8) 0.4952(6) 0.9969(4)
C36_8 C 0.1283(8) 0.5436(6) 0.9091(4)
H19_8 H 0.1144 0.5609 0.8790
C37_8 C 0.0330(8) 0.5322(6) 0.9386(3)
C38_8 C 0.0496(7) 0.5065(4) 0.9828(3)
C6_8 C 0.5046(8) 0.4923(6) 0.2144(4)
H2_8 H 0.5809 0.5012 0.2238
C7_8 C 0.4144(8) 0.5048(6) 0.2469(4)
H3_8 H 0.4306 0.5205 0.2775
C8_8 C 0.3783(8) 0.4564(6) 0.1591(4)
H4_8 H 0.3644 0.4391 0.1290
C9_8 C 0.2830(8) 0.4678(6) 0.1886(3)
H5_8 H 0.2079 0.4580 0.1783
C10_8 C 0.2996(7) 0.4935(4) 0.2328(3)
N2_8 N 0.0117(6) 0.5315(3) 0.3291(2)
C25_8 C 0.0856(8) 0.4952(6) 0.2531(4)
H10_8 H 0.0694 0.4795 0.2225
C26_8 C 0.1217(8) 0.5436(6) 0.3409(4)
H11_8 H 0.1356 0.5609 0.3710
C27_8 C 0.2170(8) 0.5322(6) 0.3114(3)
H12_8 H 0.2921 0.5420 0.3217
C28_8 C 0.2004(7) 0.5065(4) 0.2672(3)
C29_8 C 0.7454(8) 0.4923(6) 0.0356(4)
H13_8 H 0.6691 0.5012 0.0262
C30_8 C 0.8356(8) 0.5048(6) 0.0031(4)
C31_8 C 0.8717(8) 0.4564(6) 0.0909(4)
H15_8 H 0.8856 0.4391 0.1210
C32_8 C 0.9670(8) 0.4678(6) 0.0614(3)
C33_8 C 0.9504(7) 0.4935(4) 0.0172(3)
H14_8 H 0.8194 0.5205 0.9725
H20_8 H 0.9579 0.5420 0.9283
C24_8 C 0.9954(8) 0.5077(6) 0.2856(4)
H9_8 H 0.9191 0.4988 0.2762
O3_5 O 0.8521(15) 0.6250 0.1250
C3_5 C 0.7345(9) 0.6512(7) 0.0334(3)
H1_5 H 0.8084 0.6682 0.0336
C4_5 C 0.6811(10) 0.6384(9) 0.0766(4)
C5_5 C 0.7453(19) 0.6250 0.1250
O4_3 O 0.7734(5) 0.5484(3) 0.3176(2)
O5_3 O 0.7703(5) 0.6424(3) 0.33375(19)
C11_5 C 0.7451(7) 0.6006(5) 0.3079(3)
C12_5 C 0.6806(8) 0.6108(6) 0.2611(3)
C13_5 C 0.7345(9) 0.5988(7) 0.2166(3)
H6_5 H 0.8084 0.5818 0.2164
C14_5 C 0.6811(10) 0.6116(9) 0.1734(4)
O6_5 O 0.4766(5) 0.7016(3) 0.3176(2)
O7_5 O 0.4797(5) 0.6076(3) 0.33375(19)
O8_5 O 0.3979(15) 0.6250 0.1250
C15_5 C 0.5049(7) 0.6494(5) 0.3079(3)
C16_5 C 0.5694(8) 0.6392(6) 0.2611(3)
C17_5 C 0.5155(9) 0.6512(7) 0.2166(3)
H7_5 H 0.4416 0.6682 0.2164
C18_5 C 0.5689(10) 0.6384(9) 0.1734(4)
C19_5 C 0.5047(19) 0.6250 0.1250
C22_5 C 0.5155(9) 0.5988(7) 0.0334(3)
H8_5 H 0.4416 0.5818 0.0336
C23_5 C 0.5689(10) 0.6116(9) 0.0766(4)
O12_3 O 0.9766(5) 0.5484(3) 0.4324(2)
O14_3 O 0.9797(5) 0.6424(3) 0.41625(19)
O1_3 O 0.7734(5) 0.7016(3) 0.9324(2)
O2_3 O 0.7703(5) 0.6076(3) 0.91625(19)
C1_5 C 0.7451(7) 0.6494(5) 0.9421(3)
C2_5 C 0.6806(8) 0.6392(6) 0.9889(3)
O9_5 O 0.4766(5) 0.5484(3) 0.9324(2)
O10_5 O 0.4797(5) 0.6424(3) 0.91625(19)
C20_5 C 0.5049(7) 0.6006(5) 0.9421(3)
C21_5 C 0.5694(8) 0.6108(6) 0.9889(3)
O11_3 O 0.9766(5) 0.7016(3) 0.8176(2)
O13_3 O 0.9797(5) 0.6076(3) 0.83375(19)
C3_6 C 0.0155(9) 0.0988(7) 0.0334(3)
C4_6 C 0.0689(10) 0.1116(9) 0.0766(4)
C5_6 C 0.0047(19) 0.1250 0.1250
C11_6 C 0.0049(7) 0.1494(5) 0.3079(3)
C12_6 C 0.0694(8) 0.1392(6) 0.2611(3)
C13_6 C 0.0155(9) 0.1512(7) 0.2166(3)
C14_6 C 0.0689(10) 0.1384(9) 0.1734(4)
O6_6 O 0.2734(5) 0.0484(3) 0.3176(2)
O7_6 O 0.2703(5) 0.1424(3) 0.33375(19)
O8_6 O 0.3521(15) 0.1250 0.1250
C15_6 C 0.2451(7) 0.1006(5) 0.3079(3)
C16_6 C 0.1806(8) 0.1108(6) 0.2611(3)
C17_6 C 0.2345(9) 0.0988(7) 0.2166(3)
H7_6 H 0.3084 0.0818 0.2164
C18_6 C 0.1811(10) 0.1116(9) 0.1734(4)
C19_6 C 0.2453(19) 0.1250 0.1250
C22_6 C 0.2345(9) 0.1512(7) 0.0334(3)
H8_6 H 0.3084 0.1682 0.0336
C23_6 C 0.1811(10) 0.1384(9) 0.0766(4)
C1_6 C 0.0049(7) 0.1006(5) 0.9421(3)
C2_6 C 0.0694(8) 0.1108(6) 0.9889(3)
O9_6 O 0.2734(5) 0.2016(3) 0.9324(2)
O10_6 O 0.2703(5) 0.1076(3) 0.91625(19)
C20_6 C 0.2451(7) 0.1494(5) 0.9421(3)
C21_6 C 0.1806(8) 0.1392(6) 0.9889(3)
O3_6 O 0.8979(15) 0.1250 0.1250
H1_6 H 0.9416 0.0818 0.0336
O4_4 O 0.9766(5) 0.2016(3) 0.3176(2)
O5_4 O 0.9797(5) 0.1076(3) 0.33375(19)
H6_6 H 0.9416 0.1682 0.2164
O12_4 O 0.7734(5) 0.2016(3) 0.4324(2)
O14_4 O 0.7703(5) 0.1076(3) 0.41625(19)
O1_4 O 0.9766(5) 0.0484(3) 0.9324(2)
O2_4 O 0.9797(5) 0.1424(3) 0.91625(19)
O11_4 O 0.7734(5) 0.0484(3) 0.8176(2)
O13_4 O 0.7703(5) 0.1424(3) 0.83375(19)
O3_7 O 0.8521(15) 0.1250 0.6250
C1_7 C 0.7451(7) 0.1006(5) 0.8079(3)
C2_7 C 0.6806(8) 0.1108(6) 0.7611(3)
C3_7 C 0.7345(9) 0.0988(7) 0.7166(3)
H1_7 H 0.8084 0.0818 0.7164
C4_7 C 0.6811(10) 0.1116(9) 0.6734(4)
C5_7 C 0.7453(19) 0.1250 0.6250
C11_7 C 0.7451(7) 0.1494(5) 0.4421(3)
C12_7 C 0.6806(8) 0.1392(6) 0.4889(3)
C13_7 C 0.7345(9) 0.1512(7) 0.5334(3)
H6_7 H 0.8084 0.1682 0.5336
C14_7 C 0.6811(10) 0.1384(9) 0.5766(4)
O6_7 O 0.4766(5) 0.0484(3) 0.4324(2)
O7_7 O 0.4797(5) 0.1424(3) 0.41625(19)
O8_7 O 0.3979(15) 0.1250 0.6250
C15_7 C 0.5049(7) 0.1006(5) 0.4421(3)
C16_7 C 0.5694(8) 0.1108(6) 0.4889(3)
C17_7 C 0.5155(9) 0.0988(7) 0.5334(3)
H7_7 H 0.4416 0.0818 0.5336
C18_7 C 0.5689(10) 0.1116(9) 0.5766(4)
C19_7 C 0.5047(19) 0.1250 0.6250
O9_7 O 0.4766(5) 0.2016(3) 0.8176(2)
O10_7 O 0.4797(5) 0.1076(3) 0.83375(19)
C20_7 C 0.5049(7) 0.1494(5) 0.8079(3)
C21_7 C 0.5694(8) 0.1392(6) 0.7611(3)
C22_7 C 0.5155(9) 0.1512(7) 0.7166(3)
H8_7 H 0.4416 0.1682 0.7164
C23_7 C 0.5689(10) 0.1384(9) 0.6734(4)
C1_8 C 0.0049(7) 0.6494(5) 0.8079(3)
C2_8 C 0.0694(8) 0.6392(6) 0.7611(3)
C3_8 C 0.0155(9) 0.6512(7) 0.7166(3)
C4_8 C 0.0689(10) 0.6384(9) 0.6734(4)
C5_8 C 0.0047(19) 0.6250 0.6250
C11_8 C 0.0049(7) 0.6006(5) 0.4421(3)
C12_8 C 0.0694(8) 0.6108(6) 0.4889(3)
C13_8 C 0.0155(9) 0.5988(7) 0.5334(3)
C14_8 C 0.0689(10) 0.6116(9) 0.5766(4)
O6_8 O 0.2734(5) 0.7016(3) 0.4324(2)
O7_8 O 0.2703(5) 0.6076(3) 0.41625(19)
O8_8 O 0.3521(15) 0.6250 0.6250
C15_8 C 0.2451(7) 0.6494(5) 0.4421(3)
C16_8 C 0.1806(8) 0.6392(6) 0.4889(3)
C17_8 C 0.2345(9) 0.6512(7) 0.5334(3)
H7_8 H 0.3084 0.6682 0.5336
C18_8 C 0.1811(10) 0.6384(9) 0.5766(4)
C19_8 C 0.2453(19) 0.6250 0.6250
O9_8 O 0.2734(5) 0.5484(3) 0.8176(2)
O10_8 O 0.2703(5) 0.6424(3) 0.83375(19)
C20_8 C 0.2451(7) 0.6006(5) 0.8079(3)
C21_8 C 0.1806(8) 0.6108(6) 0.7611(3)
C22_8 C 0.2345(9) 0.5988(7) 0.7166(3)
H8_8 H 0.3084 0.5818 0.7164
C23_8 C 0.1811(10) 0.6116(9) 0.6734(4)
O3_8 O 0.8979(15) 0.6250 0.6250
H1_8 H 0.9416 0.6682 0.7164
H6_8 H 0.9416 0.5818 0.5336
loop_
_geom_bond_atom_site_label_1
_geom_bond_atom_site_label_2
_geom_bond_site_symmetry_1
_geom_bond_site_symmetry_2
Cu1 O1 1_555 1_555
O1 C1 1_555 1_555
O2 Cu1 1_555 1_555
N1 Cu1 1_555 1_555
C1 O2 1_555 1_555
C2 C1 1_555 1_555
C6 N1 1_555 1_555
H2 C6 1_555 1_555
C7 C6 1_555 1_555
H3 C7 1_555 1_555
C8 N1 1_555 1_555
H4 C8 1_555 1_555
C9 C8 1_555 1_555
H5 C9 1_555 1_555
C10 C7 1_555 1_555
O9 C20 1_555 1_555
O10 C20 1_555 1_555
C20 C21 1_555 1_555
C21 C2 1_555 1_555
N2 C24 1_555 1_555
C24 H9 1_555 1_555
C25 C24 1_555 1_555
H10 C25 1_555 1_555
C26 N2 1_555 1_555
H11 C26 1_555 1_555
C27 C26 1_555 1_555
H12 C27 1_555 1_555
C28 C10 1_555 1_555
H13 C29 1_555 1_555
Cu4 O9 1_555 1_555
Cu5 N2 1_555 1_555
O11 Cu1 1_555 1_555
O13 Cu1 1_555 1_555
C9 C10 1_555 1_555
O10 Cu4 1_555 1_555
C25 C28 1_555 1_555
C27 C28 1_555 1_555
O3 C5 1_555 1_555
H1 C3 1_555 1_555
C4 C3 1_555 1_555
C5 C4 1_555 1_555
O4 C11 1_555 1_555
O5 C11 1_555 1_555
C11 C12 1_555 1_555
C12 C13 1_555 1_555
C13 H6 1_555 1_555
C14 C5 1_555 1_555
O6 C15 1_555 1_555
O7 C15 1_555 1_555
O8 C19 1_555 1_555
C15 C16 1_555 1_555
C16 C12 1_555 1_555
C17 C16 1_555 1_555
H7 C17 1_555 1_555
C18 C14 1_555 1_555
C19 C18 1_555 1_555
H8 C22 1_555 1_555
C23 C4 1_555 1_555
Cu2 O4 1_555 1_555
Cu3 O6 1_555 1_555
O12 Cu2 1_555 1_555
O14 Cu2 1_555 1_555
N6 Cu2 1_555 1_555
O5 Cu2 1_555 1_555
C13 C14 1_555 1_555
O7 Cu3 1_555 1_555
C17 C18 1_555 1_555
C19 C23 1_555 1_555
C22 C23 1_555 1_555
C31 N3 1_555 1_555
H15 C31 1_555 1_555
C32 C31 1_555 1_555
H16 C32 1_555 1_555
C33 C30 1_555 1_555
C32 C33 1_555 1_555
N4 C34 1_555 1_555
C34 H17 1_555 1_555
C35 C34 1_555 1_555
C36 N4 1_555 1_555
H19 C36 1_555 1_555
C37 C36 1_555 1_555
H20 C37 1_555 1_555
Cu6 N4 1_555 1_555
C35 C38 1_555 1_555
C37 C38 1_555 1_555
N4_2 C34_2 1_555 1_555
C36_2 N4_2 1_555 1_555
H19_2 C36_2 1_555 1_555
C37_2 C36_2 1_555 1_555
H20_2 C37_2 1_555 1_555
Cu6_2 N4_2 1_555 1_555
C37_2 C38_2 1_555 1_555
Cu1_2 O1_2 1_555 1_555
O2_2 Cu1_2 1_555 1_555
N3_2 Cu1_2 1_555 1_555
C29_2 N3_2 1_555 1_555
C31_2 N3_2 1_555 1_555
H15_2 C31_2 1_555 1_555
C32_2 C31_2 1_555 1_555
H16_2 C32_2 1_555 1_555
O11_2 Cu1_2 1_555 1_555
O13_2 Cu1_2 1_555 1_555
C32_2 C33_2 1_555 1_555
Cu2_2 O4_2 1_555 1_555
O12_2 Cu2_2 1_555 1_555
O14_2 Cu2_2 1_555 1_555
N5_2 Cu2_2 1_555 1_555
O5_2 Cu2_2 1_555 1_555
H3_2 C7_2 1_555 1_555
N2_2 C24_2 1_555 1_555
C26_2 N2_2 1_555 1_555
H11_2 C26_2 1_555 1_555
C27_2 C26_2 1_555 1_555
H12_2 C27_2 1_555 1_555
Cu5_2 N2_2 1_555 1_555
C27_2 C28_2 1_555 1_555
C2_2 C1_2 1_555 1_555
C8_2 N1_2 1_555 1_555
H4_2 C8_2 1_555 1_555
C9_2 C8_2 1_555 1_555
H5_2 C9_2 1_555 1_555
O9_2 C20_2 1_555 1_555
O10_2 C20_2 1_555 1_555
C20_2 C21_2 1_555 1_555
C21_2 C2_2 1_555 1_555
H10_2 C25_2 1_555 1_555
Cu4_2 O9_2 1_555 1_555
C9_2 C10_2 1_555 1_555
O10_2 Cu4_2 1_555 1_555
C4_2 C3_2 1_555 1_555
C5_2 C4_2 1_555 1_555
C11_2 C12_2 1_555 1_555
C12_2 C13_2 1_555 1_555
C14_2 C5_2 1_555 1_555
O6_2 C15_2 1_555 1_555
O7_2 C15_2 1_555 1_555
O8_2 C19_2 1_555 1_555
C15_2 C16_2 1_555 1_555
C16_2 C12_2 1_555 1_555
C17_2 C16_2 1_555 1_555
H7_2 C17_2 1_555 1_555
C18_2 C14_2 1_555 1_555
C19_2 C18_2 1_555 1_555
H8_2 C22_2 1_555 1_555
C23_2 C4_2 1_555 1_555
Cu3_2 O6_2 1_555 1_555
C13_2 C14_2 1_555 1_555
O7_2 Cu3_2 1_555 1_555
C17_2 C18_2 1_555 1_555
C19_2 C23_2 1_555 1_555
C22_2 C23_2 1_555 1_555
O11_2 C1_3 1_555 1_555
O3_3 C5_3 1_555 1_555
C1_3 O13_2 1_555 1_555
C2_3 C1_3 1_555 1_555
C3_3 C2_3 1_555 1_555
H1_3 C3_3 1_555 1_555
C4_3 C3_3 1_555 1_555
C5_3 C4_3 1_555 1_555
O12_2 C11_3 1_555 1_555
O14_2 C11_3 1_555 1_555
C11_3 C12_3 1_555 1_555
C12_3 C13_3 1_555 1_555
C13_3 H6_3 1_555 1_555
C14_3 C5_3 1_555 1_555
O6_3 C15_3 1_555 1_555
O7_3 C15_3 1_555 1_555
O8_3 C19_3 1_555 1_555
C15_3 C16_3 1_555 1_555
C16_3 C12_3 1_555 1_555
C17_3 C16_3 1_555 1_555
H7_3 C17_3 1_555 1_555
C18_3 C14_3 1_555 1_555
C19_3 C18_3 1_555 1_555
O9_3 C20_3 1_555 1_555
O10_3 C20_3 1_555 1_555
C20_3 C21_3 1_555 1_555
C21_3 C2_3 1_555 1_555
C22_3 C21_3 1_555 1_555
H8_3 C22_3 1_555 1_555
C23_3 C4_3 1_555 1_555
Cu3_2 O6_3 1_555 1_555
Cu4_2 O9_3 1_555 1_555
C13_3 C14_3 1_555 1_555
O7_3 Cu3_2 1_555 1_555
C17_3 C18_3 1_555 1_555
C19_3 C23_3 1_555 1_555
O10_3 Cu4_2 1_555 1_555
C22_3 C23_3 1_555 1_555
C2_4 C1_4 1_555 1_555
C3_4 C2_4 1_555 1_555
C4_4 C3_4 1_555 1_555
C5_4 C4_4 1_555 1_555
C11_4 C12_4 1_555 1_555
C12_4 C13_4 1_555 1_555
C14_4 C5_4 1_555 1_555
O6_4 C15_4 1_555 1_555
O7_4 C15_4 1_555 1_555
O8_4 C19_4 1_555 1_555
C15_4 C16_4 1_555 1_555
C16_4 C12_4 1_555 1_555
C17_4 C16_4 1_555 1_555
H7_4 C17_4 1_555 1_555
C18_4 C14_4 1_555 1_555
C19_4 C18_4 1_555 1_555
O9_4 C20_4 1_555 1_555
O10_4 C20_4 1_555 1_555
C20_4 C21_4 1_555 1_555
C21_4 C2_4 1_555 1_555
C22_4 C21_4 1_555 1_555
H8_4 C22_4 1_555 1_555
C23_4 C4_4 1_555 1_555
Cu3 O6_4 1_555 1_555
Cu4 O9_4 1_555 1_555
C13_4 C14_4 1_555 1_555
O7_4 Cu3 1_555 1_555
C17_4 C18_4 1_555 1_555
C19_4 C23_4 1_555 1_555
O10_4 Cu4 1_555 1_555
C22_4 C23_4 1_555 1_555
C6_3 N5_2 1_555 1_555
H2_3 C6_3 1_555 1_555
C7_3 C6_3 1_555 1_555
H3_3 C7_3 1_555 1_555
C8_3 N5_2 1_555 1_555
H4_3 C8_3 1_555 1_555
C9_3 C8_3 1_555 1_555
H5_3 C9_3 1_555 1_555
C10_3 C7_3 1_555 1_555
N2_3 C24_3 1_555 1_555
C24_3 H9_3 1_555 1_555
C25_3 C24_3 1_555 1_555
H10_3 C25_3 1_555 1_555
C26_3 N2_3 1_555 1_555
H11_3 C26_3 1_555 1_555
C27_3 C26_3 1_555 1_555
H12_3 C27_3 1_555 1_555
C28_3 C10_3 1_555 1_555
H13_3 C29_3 1_555 1_555
Cu5_3 N2_3 1_555 1_555
C9_3 C10_3 1_555 1_555
C25_3 C28_3 1_555 1_555
C27_3 C28_3 1_555 1_555
H14_3 C30_3 1_555 1_555
C31_3 N6_2 1_555 1_555
H15_3 C31_3 1_555 1_555
C32_3 C31_3 1_555 1_555
H16_3 C32_3 1_555 1_555
C33_3 C30_3 1_555 1_555
N4_3 C34_3 1_555 1_555
C34_3 H17_3 1_555 1_555
C35_3 C34_3 1_555 1_555
H18_3 C35_3 1_555 1_555
C36_3 N4_3 1_555 1_555
H19_3 C36_3 1_555 1_555
C37_3 C36_3 1_555 1_555
H20_3 C37_3 1_555 1_555
C38_3 C33_3 1_555 1_555
Cu6_3 N4_3 1_555 1_555
C32_3 C33_3 1_555 1_555
C35_3 C38_3 1_555 1_555
C37_3 C38_3 1_555 1_555
H2_4 C6_4 1_555 1_555
C29_4 N6 1_555 1_555
H13_4 C29_4 1_555 1_555
C30_4 C29_4 1_555 1_555
H14_4 C30_4 1_555 1_555
C31_4 N6 1_555 1_555
H15_4 C31_4 1_555 1_555
C32_4 C31_4 1_555 1_555
H16_4 C32_4 1_555 1_555
C33_4 C30_4 1_555 1_555
N4_4 C34_4 1_555 1_555
C34_4 H17_4 1_555 1_555
C35_4 C34_4 1_555 1_555
H18_4 C35_4 1_555 1_555
C36_4 N4_4 1_555 1_555
H19_4 C36_4 1_555 1_555
C37_4 C36_4 1_555 1_555
H20_4 C37_4 1_555 1_555
C38_4 C33_4 1_555 1_555
Cu6_4 N4_4 1_555 1_555
C32_4 C33_4 1_555 1_555
C35_4 C38_4 1_555 1_555
C37_4 C38_4 1_555 1_555
H3_4 C7_4 1_555 1_555
C8_4 N5 1_555 1_555
H4_4 C8_4 1_555 1_555
C9_4 C8_4 1_555 1_555
H5_4 C9_4 1_555 1_555
C10_4 C7_4 1_555 1_555
N2_4 C24_4 1_555 1_555
C24_4 H9_4 1_555 1_555
C25_4 C24_4 1_555 1_555
H10_4 C25_4 1_555 1_555
C26_4 N2_4 1_555 1_555
H11_4 C26_4 1_555 1_555
C27_4 C26_4 1_555 1_555
H12_4 C27_4 1_555 1_555
C28_4 C10_4 1_555 1_555
Cu5_4 N2_4 1_555 1_555
C9_4 C10_4 1_555 1_555
C25_4 C28_4 1_555 1_555
C27_4 C28_4 1_555 1_555
N2_5 C24_5 1_555 1_555
C24_5 H9_5 1_555 1_555
C25_5 C24_5 1_555 1_555
H10_5 C25_5 1_555 1_555
C26_5 N2_5 1_555 1_555
H11_5 C26_5 1_555 1_555
C27_5 C26_5 1_555 1_555
Cu6 N2_5 1_555 1_555
C25_5 C28_5 1_555 1_555
C27_5 C28_5 1_555 1_555
N1_3 Cu3 1_555 1_555
C6_5 N1_3 1_555 1_555
H2_5 C6_5 1_555 1_555
C7_5 C6_5 1_555 1_555
H3_5 C7_5 1_555 1_555
C8_5 N1_3 1_555 1_555
H4_5 C8_5 1_555 1_555
C9_5 C8_5 1_555 1_555
C10_5 C7_5 1_555 1_555
N3_3 Cu3 1_555 1_555
C29_5 N3_3 1_555 1_555
H13_5 C29_5 1_555 1_555
C30_5 C29_5 1_555 1_555
H14_5 C30_5 1_555 1_555
C31_5 N3_3 1_555 1_555
H15_5 C31_5 1_555 1_555
C32_5 C31_5 1_555 1_555
H16_5 C32_5 1_555 1_555
C33_5 C30_5 1_555 1_555
H18_5 C35_5 1_555 1_555
C36_5 N4_5 1_555 1_555
H19_5 C36_5 1_555 1_555
C37_5 C36_5 1_555 1_555
H20_5 C37_5 1_555 1_555
C38_5 C33_5 1_555 1_555
N5_3 Cu4 1_555 1_555
N6_3 Cu4 1_555 1_555
C9_5 C10_5 1_555 1_555
C32_5 C33_5 1_555 1_555
C35_5 C38_5 1_555 1_555
C37_5 C38_5 1_555 1_555
C34_5 H17_5 1_555 1_555
N4_6 C34_6 1_555 1_555
C36_6 N4_6 1_555 1_555
H19_6 C36_6 1_555 1_555
C37_6 C36_6 1_555 1_555
Cu5_2 N4_6 1_555 1_555
C37_6 C38_6 1_555 1_555
H18_6 C35_6 1_555 1_555
H3_6 C7_6 1_555 1_555
C26_6 N2_6 1_555 1_555
H11_6 C26_6 1_555 1_555
C27_6 C26_6 1_555 1_555
H12_6 C27_6 1_555 1_555
H14_6 C30_6 1_555 1_555
C27_6 C28_6 1_555 1_555
N1_4 Cu3_2 1_555 1_555
C6_6 N1_4 1_555 1_555
C8_6 N1_4 1_555 1_555
H4_6 C8_6 1_555 1_555
C9_6 C8_6 1_555 1_555
H5_6 C9_6 1_555 1_555
H10_6 C25_6 1_555 1_555
N3_4 Cu3_2 1_555 1_555
C29_6 N3_4 1_555 1_555
C31_6 N3_4 1_555 1_555
H15_6 C31_6 1_555 1_555
C32_6 C31_6 1_555 1_555
N5_4 Cu4_2 1_555 1_555
N6_4 Cu4_2 1_555 1_555
C9_6 C10_6 1_555 1_555
C32_6 C33_6 1_555 1_555
N2_7 C24_7 1_555 1_555
C24_7 H9_7 1_555 1_555
C25_7 C24_7 1_555 1_555
H10_7 C25_7 1_555 1_555
C26_7 N2_7 1_555 1_555
H11_7 C26_7 1_555 1_555
C27_7 C26_7 1_555 1_555
Cu6_3 N2_7 1_555 1_555
C25_7 C28_7 1_555 1_555
C27_7 C28_7 1_555 1_555
C6_7 N5_4 1_555 1_555
H2_7 C6_7 1_555 1_555
C7_7 C6_7 1_555 1_555
H3_7 C7_7 1_555 1_555
C8_7 N5_4 1_555 1_555
H4_7 C8_7 1_555 1_555
C9_7 C8_7 1_555 1_555
C10_7 C7_7 1_555 1_555
C29_7 N6_4 1_555 1_555
H13_7 C29_7 1_555 1_555
C30_7 C29_7 1_555 1_555
C31_7 N6_4 1_555 1_555
H15_7 C31_7 1_555 1_555
C32_7 C31_7 1_555 1_555
H16_7 C32_7 1_555 1_555
C33_7 C30_7 1_555 1_555
C9_7 C10_7 1_555 1_555
C32_7 C33_7 1_555 1_555
C36_7 N4_7 1_555 1_555
H19_7 C36_7 1_555 1_555
C37_7 C36_7 1_555 1_555
H20_7 C37_7 1_555 1_555
C35_7 C38_7 1_555 1_555
C37_7 C38_7 1_555 1_555
C34_7 H17_7 1_555 1_555
N4_8 C34_8 1_555 1_555
C34_8 H17_8 1_555 1_555
C35_8 C34_8 1_555 1_555
C36_8 N4_8 1_555 1_555
H19_8 C36_8 1_555 1_555
C37_8 C36_8 1_555 1_555
Cu5_4 N4_8 1_555 1_555
C35_8 C38_8 1_555 1_555
C37_8 C38_8 1_555 1_555
C6_8 N5_3 1_555 1_555
H2_8 C6_8 1_555 1_555
C7_8 C6_8 1_555 1_555
H3_8 C7_8 1_555 1_555
C8_8 N5_3 1_555 1_555
H4_8 C8_8 1_555 1_555
C9_8 C8_8 1_555 1_555
H5_8 C9_8 1_555 1_555
C10_8 C7_8 1_555 1_555
H10_8 C25_8 1_555 1_555
C26_8 N2_8 1_555 1_555
H11_8 C26_8 1_555 1_555
C27_8 C26_8 1_555 1_555
H12_8 C27_8 1_555 1_555
C28_8 C10_8 1_555 1_555
C29_8 N6_3 1_555 1_555
H13_8 C29_8 1_555 1_555
C30_8 C29_8 1_555 1_555
C31_8 N6_3 1_555 1_555
H15_8 C31_8 1_555 1_555
C32_8 C31_8 1_555 1_555
C33_8 C30_8 1_555 1_555
C9_8 C10_8 1_555 1_555
C25_8 C28_8 1_555 1_555
C27_8 C28_8 1_555 1_555
C32_8 C33_8 1_555 1_555
C24_8 H9_8 1_555 1_555
O3_5 C5_5 1_555 1_555
H1_5 C3_5 1_555 1_555
C4_5 C3_5 1_555 1_555
C5_5 C4_5 1_555 1_555
O4_3 C11_5 1_555 1_555
O5_3 C11_5 1_555 1_555
C11_5 C12_5 1_555 1_555
C12_5 C13_5 1_555 1_555
C13_5 H6_5 1_555 1_555
C14_5 C5_5 1_555 1_555
O6_5 C15_5 1_555 1_555
O7_5 C15_5 1_555 1_555
O8_5 C19_5 1_555 1_555
C15_5 C16_5 1_555 1_555
C16_5 C12_5 1_555 1_555
C17_5 C16_5 1_555 1_555
H7_5 C17_5 1_555 1_555
C18_5 C14_5 1_555 1_555
C19_5 C18_5 1_555 1_555
H8_5 C22_5 1_555 1_555
C23_5 C4_5 1_555 1_555
Cu6_4 O4_3 1_555 1_555
Cu6_3 O6_5 1_555 1_555
O12_3 Cu6_4 1_555 1_555
O14_3 Cu6_4 1_555 1_555
O5_3 Cu6_4 1_555 1_555
C13_5 C14_5 1_555 1_555
O7_5 Cu6_3 1_555 1_555
C17_5 C18_5 1_555 1_555
C19_5 C23_5 1_555 1_555
C22_5 C23_5 1_555 1_555
Cu5_3 O1_3 1_555 1_555
O1_3 C1_5 1_555 1_555
O2_3 Cu5_3 1_555 1_555
C1_5 O2_3 1_555 1_555
C2_5 C1_5 1_555 1_555
O9_5 C20_5 1_555 1_555
O10_5 C20_5 1_555 1_555
C20_5 C21_5 1_555 1_555
C21_5 C2_5 1_555 1_555
Cu5_4 O9_5 1_555 1_555
O11_3 Cu5_3 1_555 1_555
O13_3 Cu5_3 1_555 1_555
O10_5 Cu5_4 1_555 1_555
C4_6 C3_6 1_555 1_555
C5_6 C4_6 1_555 1_555
C11_6 C12_6 1_555 1_555
C12_6 C13_6 1_555 1_555
C14_6 C5_6 1_555 1_555
O6_6 C15_6 1_555 1_555
O7_6 C15_6 1_555 1_555
O8_6 C19_6 1_555 1_555
C15_6 C16_6 1_555 1_555
C16_6 C12_6 1_555 1_555
C17_6 C16_6 1_555 1_555
H7_6 C17_6 1_555 1_555
C18_6 C14_6 1_555 1_555
C19_6 C18_6 1_555 1_555
H8_6 C22_6 1_555 1_555
C23_6 C4_6 1_555 1_555
Cu5_2 O6_6 1_555 1_555
C13_6 C14_6 1_555 1_555
O7_6 Cu5_2 1_555 1_555
C17_6 C18_6 1_555 1_555
C19_6 C23_6 1_555 1_555
C22_6 C23_6 1_555 1_555
C2_6 C1_6 1_555 1_555
O9_6 C20_6 1_555 1_555
O10_6 C20_6 1_555 1_555
C20_6 C21_6 1_555 1_555
C21_6 C2_6 1_555 1_555
Cu6 O9_6 1_555 1_555
O10_6 Cu6 1_555 1_555
Cu5 O4_4 1_555 1_555
O12_4 Cu5 1_555 1_555
O14_4 Cu5 1_555 1_555
O5_4 Cu5 1_555 1_555
Cu6_2 O1_4 1_555 1_555
O2_4 Cu6_2 1_555 1_555
O11_4 Cu6_2 1_555 1_555
O13_4 Cu6_2 1_555 1_555
O11_4 C1_7 1_555 1_555
O3_7 C5_7 1_555 1_555
C1_7 O13_4 1_555 1_555
C2_7 C1_7 1_555 1_555
C3_7 C2_7 1_555 1_555
H1_7 C3_7 1_555 1_555
C4_7 C3_7 1_555 1_555
C5_7 C4_7 1_555 1_555
O12_4 C11_7 1_555 1_555
O14_4 C11_7 1_555 1_555
C11_7 C12_7 1_555 1_555
C12_7 C13_7 1_555 1_555
C13_7 H6_7 1_555 1_555
C14_7 C5_7 1_555 1_555
O6_7 C15_7 1_555 1_555
O7_7 C15_7 1_555 1_555
O8_7 C19_7 1_555 1_555
C15_7 C16_7 1_555 1_555
C16_7 C12_7 1_555 1_555
C17_7 C16_7 1_555 1_555
H7_7 C17_7 1_555 1_555
C18_7 C14_7 1_555 1_555
C19_7 C18_7 1_555 1_555
O9_7 C20_7 1_555 1_555
O10_7 C20_7 1_555 1_555
C20_7 C21_7 1_555 1_555
C21_7 C2_7 1_555 1_555
C22_7 C21_7 1_555 1_555
H8_7 C22_7 1_555 1_555
C23_7 C4_7 1_555 1_555
Cu5_2 O6_7 1_555 1_555
Cu6 O9_7 1_555 1_555
C13_7 C14_7 1_555 1_555
O7_7 Cu5_2 1_555 1_555
C17_7 C18_7 1_555 1_555
C19_7 C23_7 1_555 1_555
O10_7 Cu6 1_555 1_555
C22_7 C23_7 1_555 1_555
C2_8 C1_8 1_555 1_555
C3_8 C2_8 1_555 1_555
C4_8 C3_8 1_555 1_555
C5_8 C4_8 1_555 1_555
C11_8 C12_8 1_555 1_555
C12_8 C13_8 1_555 1_555
C14_8 C5_8 1_555 1_555
O6_8 C15_8 1_555 1_555
O7_8 C15_8 1_555 1_555
O8_8 C19_8 1_555 1_555
C15_8 C16_8 1_555 1_555
C16_8 C12_8 1_555 1_555
C17_8 C16_8 1_555 1_555
H7_8 C17_8 1_555 1_555
C18_8 C14_8 1_555 1_555
C19_8 C18_8 1_555 1_555
O9_8 C20_8 1_555 1_555
O10_8 C20_8 1_555 1_555
C20_8 C21_8 1_555 1_555
C21_8 C2_8 1_555 1_555
C22_8 C21_8 1_555 1_555
H8_8 C22_8 1_555 1_555
C23_8 C4_8 1_555 1_555
Cu6_3 O6_8 1_555 1_555
Cu5_4 O9_8 1_555 1_555
C13_8 C14_8 1_555 1_555
O7_8 Cu6_3 1_555 1_555
C17_8 C18_8 1_555 1_555
C19_8 C23_8 1_555 1_555
O10_8 Cu5_4 1_555 1_555
C22_8 C23_8 1_555 1_555

#END
