
###############################################################################
#
# This file contains modified crystal structure data generated from the
# MOF subset of the Cambridge Structural Database (CSD) v543 
# hosted by the Cambridge Crystallographic Data Centre (CCDC).
#
# This work is licensed under the Creative Commons
# Attribution-NonCommercial-ShareAlike 4.0 International License.
# To view a copy of this license, visit
# http://creativecommons.org/licenses/by-nc-sa/4.0/
# or send a letter to
# Creative Commons, PO Box 1866, Mountain View, CA 94042, USA.
#
# CIF created using the CSD Python API on 29 September 2022
# The structure has been converted into the P1 space group
# The structure has a 3D framework
# The original CSD entry DEJROB is in the orthorhombic crystal system
# The original CSD entry DEJROB is in a Sohncke space group
# The framework has been calculated to contain at least 10.0% void space
# The void calculation uses a probe of radius 1.32A, grid spacing 0.4
#
###############################################################################

data_DEJROB
_chemical_formula_moiety         '(C112 H120 B8 Co8 N64 O16)n'
_symmetry_cell_setting           triclinic
_symmetry_space_group_name_H-M   'P 1'
_symmetry_Int_Tables_number      1
_space_group_name_Hall           'P 1'
loop_
_symmetry_equiv_pos_site_id
_symmetry_equiv_pos_as_xyz
1 x,y,z
_cell_length_a                   13.2281(12)
_cell_length_b                   20.861(2)
_cell_length_c                   16.773(3)
_cell_angle_alpha                90
_cell_angle_beta                 90
_cell_angle_gamma                90
_cell_volume                     4628.53
loop_
_atom_site_label
_atom_site_type_symbol
_atom_site_fract_x
_atom_site_fract_y
_atom_site_fract_z
C9 C 0.7086(7) 0.6292(4) 0.0013(6)
H11 H 0.7115 0.5848 0.0066
N7 N 0.7081(7) 0.6673(4) 0.0621(5)
C13 C 0.7003(12) 0.7253(5) 0.0290(8)
H15 H 0.6991 0.7633 0.0580
Co3 Co 0.72465(10) 0.64143(6) 0.18289(9)
Co1 Co 0.27535(10) 0.64143(6) 0.81711(9)
N1 N 0.5978(5) 0.6244(3) 0.8109(5)
N2 N 0.4285(6) 0.6195(4) 0.8001(5)
C1 C 0.5094(7) 0.6314(5) 0.8481(6)
H1 H 0.5036 0.6431 0.9014
C2 C 0.4740(8) 0.6047(5) 0.7276(7)
H2 H 0.4388 0.5950 0.6811
B1 B 0.7059(9) 0.6295(5) 0.8462(8)
C3 C 0.5745(9) 0.6061(5) 0.7334(7)
H3 H 0.6204 0.5966 0.6931
O1 O 0.1141(7) 0.6543(6) 0.7932(7)
O2 O 0.2353(7) 0.6150(4) 0.6947(5)
C4 C 0.0681(13) 0.6133(10) 0.6597(11)
H4 H 0.1019 0.5960 0.6138
H5 H 0.0322 0.6514 0.6448
H6 H 0.0213 0.5822 0.6802
N3 N 0.7515(6) 0.5614(3) 0.8524(5)
C5 C 0.7052(7) 0.5048(5) 0.8333(6)
H7 H 0.6408 0.5022 0.8112
C6 C 0.8424(8) 0.5449(5) 0.8824(7)
H8 H 0.8922 0.5730 0.9004
C7 C 0.8481(9) 0.4798(5) 0.8817(8)
H9 H 0.9025 0.4559 0.9002
N4 N 0.7612(7) 0.4549(4) 0.8494(5)
N5 N 0.7664(7) 0.6732(4) 0.7891(5)
N6 N 0.7045(6) 0.6583(3) 0.9302(5)
C8 C 0.7305(8) 0.7277(5) 0.7569(6)
H10 H 0.6629 0.7396 0.7602
C10 C 0.8683(9) 0.6755(7) 0.7737(9)
H12 H 0.9159 0.6448 0.7880
C11 C 0.6946(8) 0.7227(7) 0.9519(9)
H13 H 0.6856 0.7572 0.9175
N8 N 0.7978(6) 0.7620(4) 0.7212(6)
C12 C 0.8864(11) 0.7286(7) 0.7355(9)
H14 H 0.9503 0.7423 0.7200
C14 C 0.1434(12) 0.6290(8) 0.7216(10)
Co2 Co 0.72465(10) 0.35857(6) 0.81711(9)
Co4 Co 0.77535(10) 0.85857(6) 0.68289(9)
N9 N 0.2388(7) 0.5451(4) 0.8494(5)
N10 N 0.2919(7) 0.6673(4) 0.9379(5)
N11 N 0.2978(6) 0.7380(4) 0.7788(6)
C9_2 C 0.2914(7) 0.3708(4) 0.0013(6)
H11_2 H 0.2885 0.4152 0.0066
N7_2 N 0.2919(7) 0.3327(4) 0.0621(5)
C13_2 C 0.2997(12) 0.2747(5) 0.0290(8)
H15_2 H 0.3009 0.2367 0.0580
Co3_2 Co 0.27535(10) 0.35857(6) 0.18289(9)
N1_2 N 0.4022(5) 0.3756(3) 0.8109(5)
N2_2 N 0.5715(6) 0.3805(4) 0.8001(5)
C1_2 C 0.4906(7) 0.3686(5) 0.8481(6)
H1_2 H 0.4964 0.3569 0.9014
C2_2 C 0.5260(8) 0.3953(5) 0.7276(7)
H2_2 H 0.5612 0.4050 0.6811
B1_2 B 0.2941(9) 0.3705(5) 0.8462(8)
C3_2 C 0.4255(9) 0.3939(5) 0.7334(7)
H3_2 H 0.3796 0.4034 0.6931
O1_2 O 0.8859(7) 0.3457(6) 0.7932(7)
O2_2 O 0.7647(7) 0.3850(4) 0.6947(5)
C4_2 C 0.9319(13) 0.3867(10) 0.6597(11)
H4_2 H 0.8981 0.4040 0.6138
H5_2 H 0.9678 0.3486 0.6448
H6_2 H 0.9787 0.4178 0.6802
N3_2 N 0.2485(6) 0.4386(3) 0.8524(5)
C5_2 C 0.2948(7) 0.4952(5) 0.8333(6)
H7_2 H 0.3592 0.4978 0.8112
C6_2 C 0.1576(8) 0.4551(5) 0.8824(7)
H8_2 H 0.1078 0.4270 0.9004
C7_2 C 0.1519(9) 0.5202(5) 0.8817(8)
H9_2 H 0.0975 0.5441 0.9002
N5_2 N 0.2336(7) 0.3268(4) 0.7891(5)
N6_2 N 0.2955(6) 0.3417(3) 0.9302(5)
C8_2 C 0.2695(8) 0.2723(5) 0.7569(6)
H10_2 H 0.3371 0.2604 0.7602
C10_2 C 0.1317(9) 0.3245(7) 0.7737(9)
H12_2 H 0.0841 0.3552 0.7880
C11_2 C 0.3054(8) 0.2773(7) 0.9519(9)
H13_2 H 0.3144 0.2428 0.9175
N8_2 N 0.2022(6) 0.2380(4) 0.7212(6)
C12_2 C 0.1136(11) 0.2714(7) 0.7355(9)
H14_2 H 0.0497 0.2577 0.7200
C14_2 C 0.8566(12) 0.3710(8) 0.7216(10)
Co4_2 Co 0.22465(10) 0.14143(6) 0.68289(9)
N10_2 N 0.7081(7) 0.3327(4) 0.9379(5)
N11_2 N 0.7022(6) 0.2620(4) 0.7788(6)
N1_3 N 0.5978(5) 0.3756(3) 0.1891(5)
N2_3 N 0.4285(6) 0.3805(4) 0.1999(5)
C1_3 C 0.5094(7) 0.3686(5) 0.1519(6)
H1_3 H 0.5036 0.3569 0.0986
C2_3 C 0.4740(8) 0.3953(5) 0.2724(7)
H2_3 H 0.4388 0.4050 0.3189
B1_3 B 0.7059(9) 0.3705(5) 0.1538(8)
C3_3 C 0.5745(9) 0.3939(5) 0.2666(7)
H3_3 H 0.6204 0.4034 0.3069
O1_3 O 0.1141(7) 0.3457(6) 0.2068(7)
O2_3 O 0.2353(7) 0.3850(4) 0.3053(5)
C4_3 C 0.0681(13) 0.3867(10) 0.3403(11)
H4_3 H 0.1019 0.4040 0.3862
H5_3 H 0.0322 0.3486 0.3552
H6_3 H 0.0213 0.4178 0.3198
N3_3 N 0.7515(6) 0.4386(3) 0.1476(5)
C5_3 C 0.7052(7) 0.4952(5) 0.1667(6)
H7_3 H 0.6408 0.4978 0.1888
C6_3 C 0.8424(8) 0.4551(5) 0.1176(7)
H8_3 H 0.8922 0.4270 0.0996
C7_3 C 0.8481(9) 0.5202(5) 0.1183(8)
H9_3 H 0.9025 0.5441 0.0998
N4_2 N 0.7612(7) 0.5451(4) 0.1506(5)
N5_3 N 0.7664(7) 0.3268(4) 0.2109(5)
N6_3 N 0.7045(6) 0.3417(3) 0.0698(5)
C8_3 C 0.7305(8) 0.2723(5) 0.2431(6)
H10_3 H 0.6629 0.2604 0.2398
C10_3 C 0.8683(9) 0.3245(7) 0.2263(9)
H12_3 H 0.9159 0.3552 0.2120
C11_3 C 0.6946(8) 0.2773(7) 0.0481(9)
H13_3 H 0.6856 0.2428 0.0825
N8_3 N 0.7978(6) 0.2380(4) 0.2788(6)
C12_3 C 0.8864(11) 0.2714(7) 0.2645(9)
H14_3 H 0.9503 0.2577 0.2800
C14_3 C 0.1434(12) 0.3710(8) 0.2784(10)
Co4_3 Co 0.77535(10) 0.14143(6) 0.31711(9)
N9_2 N 0.2388(7) 0.4549(4) 0.1506(5)
N11_3 N 0.2978(6) 0.2620(4) 0.2212(6)
C9_3 C 0.7086(7) 0.3708(4) 0.9987(6)
H11_3 H 0.7115 0.4152 0.9934
C13_3 C 0.7003(12) 0.2747(5) 0.9710(8)
H15_3 H 0.6991 0.2367 0.9420
N1_4 N 0.4022(5) 0.6244(3) 0.1891(5)
N2_4 N 0.5715(6) 0.6195(4) 0.1999(5)
C1_4 C 0.4906(7) 0.6314(5) 0.1519(6)
H1_4 H 0.4964 0.6431 0.0986
C2_4 C 0.5260(8) 0.6047(5) 0.2724(7)
H2_4 H 0.5612 0.5950 0.3189
B1_4 B 0.2941(9) 0.6295(5) 0.1538(8)
C3_4 C 0.4255(9) 0.6061(5) 0.2666(7)
H3_4 H 0.3796 0.5966 0.3069
O1_4 O 0.8859(7) 0.6543(6) 0.2068(7)
O2_4 O 0.7647(7) 0.6150(4) 0.3053(5)
C4_4 C 0.9319(13) 0.6133(10) 0.3403(11)
H4_4 H 0.8981 0.5960 0.3862
H5_4 H 0.9678 0.6514 0.3552
H6_4 H 0.9787 0.5822 0.3198
N3_4 N 0.2485(6) 0.5614(3) 0.1476(5)
C5_4 C 0.2948(7) 0.5048(5) 0.1667(6)
H7_4 H 0.3592 0.5022 0.1888
C6_4 C 0.1576(8) 0.5449(5) 0.1176(7)
H8_4 H 0.1078 0.5730 0.0996
C7_4 C 0.1519(9) 0.4798(5) 0.1183(8)
H9_4 H 0.0975 0.4559 0.0998
N5_4 N 0.2336(7) 0.6732(4) 0.2109(5)
N6_4 N 0.2955(6) 0.6583(3) 0.0698(5)
C8_4 C 0.2695(8) 0.7277(5) 0.2431(6)
H10_4 H 0.3371 0.7396 0.2398
C10_4 C 0.1317(9) 0.6755(7) 0.2263(9)
H12_4 H 0.0841 0.6448 0.2120
C11_4 C 0.3054(8) 0.7227(7) 0.0481(9)
H13_4 H 0.3144 0.7572 0.0825
N8_4 N 0.2022(6) 0.7620(4) 0.2788(6)
C12_4 C 0.1136(11) 0.7286(7) 0.2645(9)
H14_4 H 0.0497 0.7423 0.2800
C14_4 C 0.8566(12) 0.6290(8) 0.2784(10)
Co4_4 Co 0.22465(10) 0.85857(6) 0.31711(9)
N11_4 N 0.7022(6) 0.7380(4) 0.2212(6)
C9_4 C 0.2914(7) 0.6292(4) 0.9987(6)
H11_4 H 0.2885 0.5848 0.9934
C13_4 C 0.2997(12) 0.7253(5) 0.9710(8)
H15_4 H 0.3009 0.7633 0.9420
N1_5 N 0.0978(5) 0.1244(3) 0.3109(5)
C1_5 C 0.0094(7) 0.1314(5) 0.3481(6)
H1_5 H 0.0036 0.1431 0.4014
B1_5 B 0.2059(9) 0.1295(5) 0.3462(8)
C3_5 C 0.0745(9) 0.1061(5) 0.2334(7)
H3_5 H 0.1204 0.0966 0.1931
N3_5 N 0.2515(6) 0.0614(3) 0.3524(5)
C5_5 C 0.2052(7) 0.0048(5) 0.3333(6)
H7_5 H 0.1408 0.0022 0.3112
C6_5 C 0.3424(8) 0.0449(5) 0.3824(7)
H8_5 H 0.3922 0.0730 0.4004
N5_5 N 0.2664(7) 0.1732(4) 0.2891(5)
N6_5 N 0.2045(6) 0.1583(3) 0.4302(5)
C8_5 C 0.2305(8) 0.2277(5) 0.2569(6)
H10_5 H 0.1629 0.2396 0.2602
C9_5 C 0.2086(7) 0.1292(4) 0.5013(6)
H11_5 H 0.2115 0.0848 0.5066
C10_5 C 0.3683(9) 0.1755(7) 0.2737(9)
H12_5 H 0.4159 0.1448 0.2880
C11_5 C 0.1946(8) 0.2227(7) 0.4519(9)
H13_5 H 0.1856 0.2572 0.4175
N7_3 N 0.2081(7) 0.1673(4) 0.5621(5)
C12_5 C 0.3864(11) 0.2286(7) 0.2355(9)
H14_5 H 0.4503 0.2423 0.2200
C13_5 C 0.2003(12) 0.2253(5) 0.5290(8)
H15_5 H 0.1991 0.2633 0.5580
C7_5 C 0.3481(9) 0.9798(5) 0.3817(8)
H9_5 H 0.4025 0.9559 0.4002
N4_3 N 0.2612(7) 0.9549(4) 0.3494(5)
N2_5 N 0.9285(6) 0.1195(4) 0.3001(5)
C2_5 C 0.9740(8) 0.1047(5) 0.2276(7)
H2_5 H 0.9388 0.0950 0.1811
O1_5 O 0.6141(7) 0.1543(6) 0.2932(7)
O2_5 O 0.7353(7) 0.1150(4) 0.1947(5)
C4_5 C 0.5681(13) 0.1133(10) 0.1597(11)
H4_5 H 0.6019 0.0960 0.1138
H5_5 H 0.5322 0.1514 0.1448
H6_5 H 0.5213 0.0822 0.1802
C14_5 C 0.6434(12) 0.1290(8) 0.2216(10)
N9_3 N 0.7388(7) 0.0451(4) 0.3494(5)
N10_3 N 0.7919(7) 0.1673(4) 0.4379(5)
N2_6 N 0.0715(6) 0.8805(4) 0.3001(5)
C2_6 C 0.0260(8) 0.8953(5) 0.2276(7)
H2_6 H 0.0612 0.9050 0.1811
O1_6 O 0.3859(7) 0.8457(6) 0.2932(7)
O2_6 O 0.2647(7) 0.8850(4) 0.1947(5)
C4_6 C 0.4319(13) 0.8867(10) 0.1597(11)
H4_6 H 0.3981 0.9040 0.1138
H5_6 H 0.4678 0.8486 0.1448
H6_6 H 0.4787 0.9178 0.1802
C14_6 C 0.3566(12) 0.8710(8) 0.2216(10)
N10_4 N 0.2081(7) 0.8327(4) 0.4379(5)
C7_6 C 0.6519(9) 0.0202(5) 0.3817(8)
H9_6 H 0.5975 0.0441 0.4002
N1_6 N 0.9022(5) 0.8756(3) 0.3109(5)
C1_6 C 0.9906(7) 0.8686(5) 0.3481(6)
H1_6 H 0.9964 0.8569 0.4014
B1_6 B 0.7941(9) 0.8705(5) 0.3462(8)
C3_6 C 0.9255(9) 0.8939(5) 0.2334(7)
H3_6 H 0.8796 0.9034 0.1931
N3_6 N 0.7485(6) 0.9386(3) 0.3524(5)
C5_6 C 0.7948(7) 0.9952(5) 0.3333(6)
H7_6 H 0.8592 0.9978 0.3112
C6_6 C 0.6576(8) 0.9551(5) 0.3824(7)
H8_6 H 0.6078 0.9270 0.4004
N5_6 N 0.7336(7) 0.8268(4) 0.2891(5)
N6_6 N 0.7955(6) 0.8417(3) 0.4302(5)
C8_6 C 0.7695(8) 0.7723(5) 0.2569(6)
H10_6 H 0.8371 0.7604 0.2602
C9_6 C 0.7914(7) 0.8708(4) 0.5013(6)
H11_6 H 0.7885 0.9152 0.5066
C10_6 C 0.6317(9) 0.8245(7) 0.2737(9)
H12_6 H 0.5841 0.8552 0.2880
C11_6 C 0.8054(8) 0.7773(7) 0.4519(9)
H13_6 H 0.8144 0.7428 0.4175
N7_4 N 0.7919(7) 0.8327(4) 0.5621(5)
C12_6 C 0.6136(11) 0.7714(7) 0.2355(9)
H14_6 H 0.5497 0.7577 0.2200
C13_6 C 0.7997(12) 0.7747(5) 0.5290(8)
H15_6 H 0.8009 0.7367 0.5580
C7_7 C 0.3481(9) 0.0202(5) 0.6183(8)
H9_7 H 0.4025 0.0441 0.5998
N4_4 N 0.2612(7) 0.0451(4) 0.6506(5)
N1_7 N 0.0978(5) 0.8756(3) 0.6891(5)
C1_7 C 0.0094(7) 0.8686(5) 0.6519(6)
H1_7 H 0.0036 0.8569 0.5986
B1_7 B 0.2059(9) 0.8705(5) 0.6538(8)
C3_7 C 0.0745(9) 0.8939(5) 0.7666(7)
H3_7 H 0.1204 0.9034 0.8069
N3_7 N 0.2515(6) 0.9386(3) 0.6476(5)
C5_7 C 0.2052(7) 0.9952(5) 0.6667(6)
H7_7 H 0.1408 0.9978 0.6888
C6_7 C 0.3424(8) 0.9551(5) 0.6176(7)
H8_7 H 0.3922 0.9270 0.5996
N5_7 N 0.2664(7) 0.8268(4) 0.7109(5)
N6_7 N 0.2045(6) 0.8417(3) 0.5698(5)
C8_7 C 0.2305(8) 0.7723(5) 0.7431(6)
H10_7 H 0.1629 0.7604 0.7398
C9_7 C 0.2086(7) 0.8708(4) 0.4987(6)
H11_7 H 0.2115 0.9152 0.4934
C10_7 C 0.3683(9) 0.8245(7) 0.7263(9)
H12_7 H 0.4159 0.8552 0.7120
C11_7 C 0.1946(8) 0.7773(7) 0.5481(9)
H13_7 H 0.1856 0.7428 0.5825
C12_7 C 0.3864(11) 0.7714(7) 0.7645(9)
H14_7 H 0.4503 0.7577 0.7800
C13_7 C 0.2003(12) 0.7747(5) 0.4710(8)
H15_7 H 0.1991 0.7367 0.4420
N2_7 N 0.9285(6) 0.8805(4) 0.6999(5)
C2_7 C 0.9740(8) 0.8953(5) 0.7724(7)
H2_7 H 0.9388 0.9050 0.8189
O1_7 O 0.6141(7) 0.8457(6) 0.7068(7)
O2_7 O 0.7353(7) 0.8850(4) 0.8053(5)
C4_7 C 0.5681(13) 0.8867(10) 0.8403(11)
H4_7 H 0.6019 0.9040 0.8862
H5_7 H 0.5322 0.8486 0.8552
H6_7 H 0.5213 0.9178 0.8198
C14_7 C 0.6434(12) 0.8710(8) 0.7784(10)
N9_4 N 0.7388(7) 0.9549(4) 0.6506(5)
N2_8 N 0.0715(6) 0.1195(4) 0.6999(5)
C2_8 C 0.0260(8) 0.1047(5) 0.7724(7)
H2_8 H 0.0612 0.0950 0.8189
O1_8 O 0.3859(7) 0.1543(6) 0.7068(7)
O2_8 O 0.2647(7) 0.1150(4) 0.8053(5)
C4_8 C 0.4319(13) 0.1133(10) 0.8403(11)
H4_8 H 0.3981 0.0960 0.8862
H5_8 H 0.4678 0.1514 0.8552
H6_8 H 0.4787 0.0822 0.8198
C14_8 C 0.3566(12) 0.1290(8) 0.7784(10)
N1_8 N 0.9022(5) 0.1244(3) 0.6891(5)
C1_8 C 0.9906(7) 0.1314(5) 0.6519(6)
H1_8 H 0.9964 0.1431 0.5986
B1_8 B 0.7941(9) 0.1295(5) 0.6538(8)
C3_8 C 0.9255(9) 0.1061(5) 0.7666(7)
H3_8 H 0.8796 0.0966 0.8069
N3_8 N 0.7485(6) 0.0614(3) 0.6476(5)
C5_8 C 0.7948(7) 0.0048(5) 0.6667(6)
H7_8 H 0.8592 0.0022 0.6888
C6_8 C 0.6576(8) 0.0449(5) 0.6176(7)
H8_8 H 0.6078 0.0730 0.5996
N5_8 N 0.7336(7) 0.1732(4) 0.7109(5)
N6_8 N 0.7955(6) 0.1583(3) 0.5698(5)
C8_8 C 0.7695(8) 0.2277(5) 0.7431(6)
H10_8 H 0.8371 0.2396 0.7398
C9_8 C 0.7914(7) 0.1292(4) 0.4987(6)
H11_8 H 0.7885 0.0848 0.4934
C10_8 C 0.6317(9) 0.1755(7) 0.7263(9)
H12_8 H 0.5841 0.1448 0.7120
C11_8 C 0.8054(8) 0.2227(7) 0.5481(9)
H13_8 H 0.8144 0.2572 0.5825
C12_8 C 0.6136(11) 0.2286(7) 0.7645(9)
H14_8 H 0.5497 0.2423 0.7800
C13_8 C 0.7997(12) 0.2253(5) 0.4710(8)
H15_8 H 0.8009 0.2633 0.4420
C7_8 C 0.6519(9) 0.9798(5) 0.6183(8)
H9_8 H 0.5975 0.9559 0.5998
loop_
_geom_bond_atom_site_label_1
_geom_bond_atom_site_label_2
_geom_bond_site_symmetry_1
_geom_bond_site_symmetry_2
H11 C9 1_555 1_555
N7 C9 1_555 1_555
H15 C13 1_555 1_555
Co3 N7 1_555 1_555
N7 C13 1_555 1_555
Co1 N2 1_555 1_555
N1 C1 1_555 1_555
N2 C1 1_555 1_555
C1 H1 1_555 1_555
C2 N2 1_555 1_555
H2 C2 1_555 1_555
B1 N1 1_555 1_555
C3 N1 1_555 1_555
H3 C3 1_555 1_555
O1 Co1 1_555 1_555
O2 Co1 1_555 1_555
C4 H4 1_555 1_555
H5 C4 1_555 1_555
H6 C4 1_555 1_555
N3 B1 1_555 1_555
C5 N3 1_555 1_555
H7 C5 1_555 1_555
C6 N3 1_555 1_555
H8 C6 1_555 1_555
C7 C6 1_555 1_555
H9 C7 1_555 1_555
N4 C5 1_555 1_555
N5 B1 1_555 1_555
N6 B1 1_555 1_555
C8 N5 1_555 1_555
H10 C8 1_555 1_555
C10 N5 1_555 1_555
H12 C10 1_555 1_555
C11 N6 1_555 1_555
H13 C11 1_555 1_555
N8 C8 1_555 1_555
C12 C10 1_555 1_555
H14 C12 1_555 1_555
C14 O1 1_555 1_555
Co2 N4 1_555 1_555
Co4 N8 1_555 1_555
N9 Co1 1_555 1_555
N10 Co1 1_555 1_555
N11 Co1 1_555 1_555
C2 C3 1_555 1_555
O2 C14 1_555 1_555
C4 C14 1_555 1_555
C7 N4 1_555 1_555
N8 C12 1_555 1_555
H11_2 C9_2 1_555 1_555
N7_2 C9_2 1_555 1_555
H15_2 C13_2 1_555 1_555
Co3_2 N7_2 1_555 1_555
N7_2 C13_2 1_555 1_555
Co2 N2_2 1_555 1_555
N1_2 C1_2 1_555 1_555
N2_2 C1_2 1_555 1_555
C1_2 H1_2 1_555 1_555
C2_2 N2_2 1_555 1_555
H2_2 C2_2 1_555 1_555
B1_2 N1_2 1_555 1_555
C3_2 N1_2 1_555 1_555
H3_2 C3_2 1_555 1_555
O1_2 Co2 1_555 1_555
O2_2 Co2 1_555 1_555
C4_2 H4_2 1_555 1_555
H5_2 C4_2 1_555 1_555
H6_2 C4_2 1_555 1_555
N3_2 B1_2 1_555 1_555
C5_2 N3_2 1_555 1_555
H7_2 C5_2 1_555 1_555
C6_2 N3_2 1_555 1_555
H8_2 C6_2 1_555 1_555
C7_2 C6_2 1_555 1_555
H9_2 C7_2 1_555 1_555
N9 C5_2 1_555 1_555
N5_2 B1_2 1_555 1_555
N6_2 B1_2 1_555 1_555
C8_2 N5_2 1_555 1_555
H10_2 C8_2 1_555 1_555
C10_2 N5_2 1_555 1_555
H12_2 C10_2 1_555 1_555
C11_2 N6_2 1_555 1_555
H13_2 C11_2 1_555 1_555
N8_2 C8_2 1_555 1_555
C12_2 C10_2 1_555 1_555
H14_2 C12_2 1_555 1_555
C14_2 O1_2 1_555 1_555
Co4_2 N8_2 1_555 1_555
N10_2 Co2 1_555 1_555
N11_2 Co2 1_555 1_555
C2_2 C3_2 1_555 1_555
O2_2 C14_2 1_555 1_555
C4_2 C14_2 1_555 1_555
C7_2 N9 1_555 1_555
N8_2 C12_2 1_555 1_555
Co3_2 N2_3 1_555 1_555
N1_3 C1_3 1_555 1_555
N2_3 C1_3 1_555 1_555
C1_3 H1_3 1_555 1_555
C2_3 N2_3 1_555 1_555
H2_3 C2_3 1_555 1_555
B1_3 N1_3 1_555 1_555
C3_3 N1_3 1_555 1_555
H3_3 C3_3 1_555 1_555
O1_3 Co3_2 1_555 1_555
O2_3 Co3_2 1_555 1_555
C4_3 H4_3 1_555 1_555
H5_3 C4_3 1_555 1_555
H6_3 C4_3 1_555 1_555
N3_3 B1_3 1_555 1_555
C5_3 N3_3 1_555 1_555
H7_3 C5_3 1_555 1_555
C6_3 N3_3 1_555 1_555
H8_3 C6_3 1_555 1_555
C7_3 C6_3 1_555 1_555
H9_3 C7_3 1_555 1_555
N4_2 C5_3 1_555 1_555
N5_3 B1_3 1_555 1_555
N6_3 B1_3 1_555 1_555
C8_3 N5_3 1_555 1_555
H10_3 C8_3 1_555 1_555
C10_3 N5_3 1_555 1_555
H12_3 C10_3 1_555 1_555
C11_3 N6_3 1_555 1_555
H13_3 C11_3 1_555 1_555
N8_3 C8_3 1_555 1_555
C12_3 C10_3 1_555 1_555
H14_3 C12_3 1_555 1_555
C14_3 O1_3 1_555 1_555
Co3 N4_2 1_555 1_555
Co4_3 N8_3 1_555 1_555
N9_2 Co3_2 1_555 1_555
N11_3 Co3_2 1_555 1_555
C2_3 C3_3 1_555 1_555
O2_3 C14_3 1_555 1_555
C4_3 C14_3 1_555 1_555
C7_3 N4_2 1_555 1_555
N8_3 C12_3 1_555 1_555
H11_3 C9_3 1_555 1_555
N10_2 C9_3 1_555 1_555
H15_3 C13_3 1_555 1_555
N10_2 C13_3 1_555 1_555
Co3 N2_4 1_555 1_555
N1_4 C1_4 1_555 1_555
N2_4 C1_4 1_555 1_555
C1_4 H1_4 1_555 1_555
C2_4 N2_4 1_555 1_555
H2_4 C2_4 1_555 1_555
B1_4 N1_4 1_555 1_555
C3_4 N1_4 1_555 1_555
H3_4 C3_4 1_555 1_555
O1_4 Co3 1_555 1_555
O2_4 Co3 1_555 1_555
C4_4 H4_4 1_555 1_555
H5_4 C4_4 1_555 1_555
H6_4 C4_4 1_555 1_555
N3_4 B1_4 1_555 1_555
C5_4 N3_4 1_555 1_555
H7_4 C5_4 1_555 1_555
C6_4 N3_4 1_555 1_555
H8_4 C6_4 1_555 1_555
C7_4 C6_4 1_555 1_555
H9_4 C7_4 1_555 1_555
N9_2 C5_4 1_555 1_555
N5_4 B1_4 1_555 1_555
N6_4 B1_4 1_555 1_555
C8_4 N5_4 1_555 1_555
H10_4 C8_4 1_555 1_555
C10_4 N5_4 1_555 1_555
H12_4 C10_4 1_555 1_555
C11_4 N6_4 1_555 1_555
H13_4 C11_4 1_555 1_555
N8_4 C8_4 1_555 1_555
C12_4 C10_4 1_555 1_555
H14_4 C12_4 1_555 1_555
C14_4 O1_4 1_555 1_555
Co4_4 N8_4 1_555 1_555
N11_4 Co3 1_555 1_555
C2_4 C3_4 1_555 1_555
O2_4 C14_4 1_555 1_555
C4_4 C14_4 1_555 1_555
C7_4 N9_2 1_555 1_555
N8_4 C12_4 1_555 1_555
H11_4 C9_4 1_555 1_555
N10 C9_4 1_555 1_555
H15_4 C13_4 1_555 1_555
N10 C13_4 1_555 1_555
N1_5 C1_5 1_555 1_555
C1_5 H1_5 1_555 1_555
B1_5 N1_5 1_555 1_555
C3_5 N1_5 1_555 1_555
H3_5 C3_5 1_555 1_555
N3_5 B1_5 1_555 1_555
C5_5 N3_5 1_555 1_555
H7_5 C5_5 1_555 1_555
C6_5 N3_5 1_555 1_555
H8_5 C6_5 1_555 1_555
N5_5 B1_5 1_555 1_555
N6_5 B1_5 1_555 1_555
C8_5 N5_5 1_555 1_555
H10_5 C8_5 1_555 1_555
C9_5 N6_5 1_555 1_555
H11_5 C9_5 1_555 1_555
C10_5 N5_5 1_555 1_555
H12_5 C10_5 1_555 1_555
C11_5 N6_5 1_555 1_555
H13_5 C11_5 1_555 1_555
N7_3 C9_5 1_555 1_555
N11_3 C8_5 1_555 1_555
C12_5 C10_5 1_555 1_555
H14_5 C12_5 1_555 1_555
C13_5 C11_5 1_555 1_555
H15_5 C13_5 1_555 1_555
Co4_2 N7_3 1_555 1_555
N7_3 C13_5 1_555 1_555
N11_3 C12_5 1_555 1_555
H9_5 C7_5 1_555 1_555
Co4_4 N4_3 1_555 1_555
C7_5 N4_3 1_555 1_555
Co4_3 N2_5 1_555 1_555
C2_5 N2_5 1_555 1_555
H2_5 C2_5 1_555 1_555
O1_5 Co4_3 1_555 1_555
O2_5 Co4_3 1_555 1_555
C4_5 H4_5 1_555 1_555
H5_5 C4_5 1_555 1_555
H6_5 C4_5 1_555 1_555
C14_5 O1_5 1_555 1_555
N9_3 Co4_3 1_555 1_555
N10_3 Co4_3 1_555 1_555
O2_5 C14_5 1_555 1_555
C4_5 C14_5 1_555 1_555
Co4_4 N2_6 1_555 1_555
C2_6 N2_6 1_555 1_555
H2_6 C2_6 1_555 1_555
O1_6 Co4_4 1_555 1_555
O2_6 Co4_4 1_555 1_555
C4_6 H4_6 1_555 1_555
H5_6 C4_6 1_555 1_555
H6_6 C4_6 1_555 1_555
C14_6 O1_6 1_555 1_555
N10_4 Co4_4 1_555 1_555
O2_6 C14_6 1_555 1_555
C4_6 C14_6 1_555 1_555
H9_6 C7_6 1_555 1_555
C7_6 N9_3 1_555 1_555
N1_6 C1_6 1_555 1_555
C1_6 H1_6 1_555 1_555
B1_6 N1_6 1_555 1_555
C3_6 N1_6 1_555 1_555
H3_6 C3_6 1_555 1_555
N3_6 B1_6 1_555 1_555
C5_6 N3_6 1_555 1_555
H7_6 C5_6 1_555 1_555
C6_6 N3_6 1_555 1_555
H8_6 C6_6 1_555 1_555
N5_6 B1_6 1_555 1_555
N6_6 B1_6 1_555 1_555
C8_6 N5_6 1_555 1_555
H10_6 C8_6 1_555 1_555
C9_6 N6_6 1_555 1_555
H11_6 C9_6 1_555 1_555
C10_6 N5_6 1_555 1_555
H12_6 C10_6 1_555 1_555
C11_6 N6_6 1_555 1_555
H13_6 C11_6 1_555 1_555
N7_4 C9_6 1_555 1_555
N11_4 C8_6 1_555 1_555
C12_6 C10_6 1_555 1_555
H14_6 C12_6 1_555 1_555
C13_6 C11_6 1_555 1_555
H15_6 C13_6 1_555 1_555
Co4 N7_4 1_555 1_555
N7_4 C13_6 1_555 1_555
N11_4 C12_6 1_555 1_555
H9_7 C7_7 1_555 1_555
Co4_2 N4_4 1_555 1_555
C7_7 N4_4 1_555 1_555
N1_7 C1_7 1_555 1_555
C1_7 H1_7 1_555 1_555
B1_7 N1_7 1_555 1_555
C3_7 N1_7 1_555 1_555
H3_7 C3_7 1_555 1_555
N3_7 B1_7 1_555 1_555
C5_7 N3_7 1_555 1_555
H7_7 C5_7 1_555 1_555
C6_7 N3_7 1_555 1_555
H8_7 C6_7 1_555 1_555
N5_7 B1_7 1_555 1_555
N6_7 B1_7 1_555 1_555
C8_7 N5_7 1_555 1_555
H10_7 C8_7 1_555 1_555
C9_7 N6_7 1_555 1_555
H11_7 C9_7 1_555 1_555
C10_7 N5_7 1_555 1_555
H12_7 C10_7 1_555 1_555
C11_7 N6_7 1_555 1_555
H13_7 C11_7 1_555 1_555
N10_4 C9_7 1_555 1_555
N11 C8_7 1_555 1_555
C12_7 C10_7 1_555 1_555
H14_7 C12_7 1_555 1_555
C13_7 C11_7 1_555 1_555
H15_7 C13_7 1_555 1_555
N10_4 C13_7 1_555 1_555
N11 C12_7 1_555 1_555
Co4 N2_7 1_555 1_555
C2_7 N2_7 1_555 1_555
H2_7 C2_7 1_555 1_555
O1_7 Co4 1_555 1_555
O2_7 Co4 1_555 1_555
C4_7 H4_7 1_555 1_555
H5_7 C4_7 1_555 1_555
H6_7 C4_7 1_555 1_555
C14_7 O1_7 1_555 1_555
N9_4 Co4 1_555 1_555
O2_7 C14_7 1_555 1_555
C4_7 C14_7 1_555 1_555
Co4_2 N2_8 1_555 1_555
C2_8 N2_8 1_555 1_555
H2_8 C2_8 1_555 1_555
O1_8 Co4_2 1_555 1_555
O2_8 Co4_2 1_555 1_555
C4_8 H4_8 1_555 1_555
H5_8 C4_8 1_555 1_555
H6_8 C4_8 1_555 1_555
C14_8 O1_8 1_555 1_555
O2_8 C14_8 1_555 1_555
C4_8 C14_8 1_555 1_555
N1_8 C1_8 1_555 1_555
C1_8 H1_8 1_555 1_555
B1_8 N1_8 1_555 1_555
C3_8 N1_8 1_555 1_555
H3_8 C3_8 1_555 1_555
N3_8 B1_8 1_555 1_555
C5_8 N3_8 1_555 1_555
H7_8 C5_8 1_555 1_555
C6_8 N3_8 1_555 1_555
H8_8 C6_8 1_555 1_555
N5_8 B1_8 1_555 1_555
N6_8 B1_8 1_555 1_555
C8_8 N5_8 1_555 1_555
H10_8 C8_8 1_555 1_555
C9_8 N6_8 1_555 1_555
H11_8 C9_8 1_555 1_555
C10_8 N5_8 1_555 1_555
H12_8 C10_8 1_555 1_555
C11_8 N6_8 1_555 1_555
H13_8 C11_8 1_555 1_555
N10_3 C9_8 1_555 1_555
N11_2 C8_8 1_555 1_555
C12_8 C10_8 1_555 1_555
H14_8 C12_8 1_555 1_555
C13_8 C11_8 1_555 1_555
H15_8 C13_8 1_555 1_555
N10_3 C13_8 1_555 1_555
N11_2 C12_8 1_555 1_555
H9_8 C7_8 1_555 1_555
C7_8 N9_4 1_555 1_555

#END
