
###############################################################################
#
# This file contains modified crystal structure data generated from the
# MOF subset of the Cambridge Structural Database (CSD) v543 
# hosted by the Cambridge Crystallographic Data Centre (CCDC).
#
# This work is licensed under the Creative Commons
# Attribution-NonCommercial-ShareAlike 4.0 International License.
# To view a copy of this license, visit
# http://creativecommons.org/licenses/by-nc-sa/4.0/
# or send a letter to
# Creative Commons, PO Box 1866, Mountain View, CA 94042, USA.
#
# CIF created using the CSD Python API on 29 September 2022
# The structure has been converted into the P1 space group
# The structure has a 3D framework
# The original CSD entry DEJRUH is in the monoclinic crystal system
# The framework has been calculated to contain at least 10.0% void space
# The void calculation uses a probe of radius 1.32A, grid spacing 0.4
#
###############################################################################

data_DEJRUH
_chemical_formula_moiety         '(C56 H60 B4 Co4 N30 O8)n'
_symmetry_cell_setting           triclinic
_symmetry_space_group_name_H-M   'P 1'
_symmetry_Int_Tables_number      1
_space_group_name_Hall           'P 1'
loop_
_symmetry_equiv_pos_site_id
_symmetry_equiv_pos_as_xyz
1 x,y,z
_cell_length_a                   8.378(8)
_cell_length_b                   17.572(15)
_cell_length_c                   16.049(13)
_cell_angle_alpha                90
_cell_angle_beta                 112.75(4)
_cell_angle_gamma                90
_cell_volume                     2178.89
loop_
_atom_site_label
_atom_site_type_symbol
_atom_site_fract_x
_atom_site_fract_y
_atom_site_fract_z
C1 C 0.0599(8) 0.5873(3) 0.2995(4)
H1 H 0.0879 0.7419 0.2290
N7 N 0.1701(5) 0.4971(2) 0.2389(3)
C5 C 0.0375(7) 0.5302(3) 0.1759(4)
C13 C 0.1853(8) 0.5329(3) 0.3181(4)
H6 H 0.034(8) 0.703(4) 0.080(4)
H7 H 0.014(7) 0.871(3) 0.268(4)
H9 H 0.040(9) 0.620(4) 0.343(5)
H12 H 0.276(7) 0.521(3) 0.377(4)
Co3 Co 0.35489(8) 0.42184(4) 0.22476(5)
N9 N 0.5390(6) 0.0159(3) 0.3257(3)
Co1 Co 0.64511(8) 0.92184(4) 0.27524(5)
N1 N 0.9654(5) 0.5860(2) 0.2075(3)
N2 N 0.6388(5) 0.5967(2) 0.1441(3)
N3 N 0.8115(5) 0.6422(2) 0.0537(3)
O1 O 0.3868(6) 0.8620(2) 0.2341(3)
O2 O 0.4514(5) 0.9341(2) 0.1400(3)
N4 N 0.7641(6) 0.8313(2) 0.2298(3)
C2 C 0.9790(7) 0.7582(3) 0.2241(4)
N5 N 0.8280(5) 0.7153(2) 0.1927(3)
C3 C 0.9396(7) 0.8281(3) 0.2464(4)
N6 N 0.4610(6) 0.5159(3) 0.1743(3)
C4 C 0.7041(7) 0.7630(3) 0.1984(4)
C6 C 0.6252(7) 0.5344(3) 0.1917(4)
C7 C 0.9394(8) 0.6789(4) 0.0340(4)
C9 C 0.3641(7) 0.5688(3) 0.1112(4)
C10 C 0.4693(7) 0.6184(3) 0.0931(4)
H2 H 0.4348 0.6597 0.0538
C11 C 0.1638(8) 0.8842(5) 0.0862(5)
H3 H 0.0967 0.8520 0.1086
H4 H 0.1708 0.8617 0.0332
H5 H 0.1095 0.9332 0.0712
C12 C 0.3440(7) 0.8933(3) 0.1580(4)
B1 B 0.8084(7) 0.6359(3) 0.1495(4)
H8 H 0.989(7) 0.516(3) 0.116(4)
H11 H 0.234(8) 0.572(3) 0.086(4)
H13 H 0.592(7) 0.752(3) 0.182(3)
H14 H 0.731(8) 0.508(4) 0.234(4)
N10 N 0.8299(5) 0.9971(2) 0.2611(3)
N11 N 0.7708(6) 0.8832(3) 0.4101(3)
N8 N 0.7708(6) 0.6168(3) 0.9101(3)
C8 C 0.9133(8) 0.6624(4) 0.9470(4)
C14 C 0.7149(7) 0.6058(3) 0.9766(4)
H10 H 0.983(8) 0.680(4) 0.920(4)
H15 H 0.617(7) 0.576(3) 0.971(3)
Co4 Co 0.64511(8) 0.57816(4) 0.77524(5)
N1_2 N 0.0346(5) 0.0860(2) 0.2925(3)
N2_2 N 0.3612(5) 0.0967(2) 0.3559(3)
N3_2 N 0.1885(5) 0.1422(2) 0.4463(3)
O1_2 O 0.6132(6) 0.3620(2) 0.2659(3)
O2_2 O 0.5486(5) 0.4341(2) 0.3600(3)
N4_2 N 0.2359(6) 0.3313(2) 0.2702(3)
C2_2 C 0.0210(7) 0.2582(3) 0.2759(4)
N5_2 N 0.1720(5) 0.2153(2) 0.3073(3)
C3_2 C 0.0604(7) 0.3281(3) 0.2536(4)
N8_2 N 0.2292(6) 0.1168(3) 0.5899(3)
C4_2 C 0.2959(7) 0.2630(3) 0.3016(4)
C6_2 C 0.3748(7) 0.0344(3) 0.3083(4)
C7_2 C 0.0606(8) 0.1789(4) 0.4660(4)
C8_2 C 0.0867(8) 0.1624(4) 0.5530(4)
C9_2 C 0.6359(7) 0.0688(3) 0.3888(4)
C10_2 C 0.5307(7) 0.1184(3) 0.4069(4)
H2_2 H 0.5652 0.1597 0.4462
C11_2 C 0.8362(8) 0.3842(5) 0.4138(5)
H3_2 H 0.9033 0.3520 0.3914
H4_2 H 0.8292 0.3617 0.4668
H5_2 H 0.8905 0.4332 0.4288
C12_2 C 0.6560(7) 0.3933(3) 0.3420(4)
C14_2 C 0.2851(7) 0.1058(3) 0.5234(4)
B1_2 B 0.1916(7) 0.1359(3) 0.3505(4)
H8_2 H 0.011(7) 0.016(3) 0.384(4)
H10_2 H 0.017(8) 0.180(4) 0.580(4)
H11_2 H 0.766(8) 0.072(3) 0.414(4)
H13_2 H 0.408(7) 0.252(3) 0.318(3)
H14_2 H 0.269(8) 0.008(4) 0.266(4)
H15_2 H 0.383(7) 0.076(3) 0.529(3)
Co4_2 Co 0.35489(8) 0.07816(4) 0.72476(5)
N11_2 N 0.2292(6) 0.3832(3) 0.0899(3)
C8_3 C 0.0867(8) 0.3376(4) 0.0530(4)
C14_3 C 0.2851(7) 0.3942(3) 0.0234(4)
H10_3 H 0.017(8) 0.320(4) 0.080(4)
H15_3 H 0.383(7) 0.424(3) 0.029(3)
N1_3 N 0.0346(5) 0.4140(2) 0.7925(3)
N2_3 N 0.3612(5) 0.4033(2) 0.8559(3)
N3_3 N 0.1885(5) 0.3578(2) 0.9463(3)
O1_3 O 0.6132(6) 0.1380(2) 0.7659(3)
O2_3 O 0.5486(5) 0.0659(2) 0.8600(3)
N4_3 N 0.2359(6) 0.1687(2) 0.7702(3)
C2_3 C 0.0210(7) 0.2418(3) 0.7759(4)
N5_3 N 0.1720(5) 0.2847(2) 0.8073(3)
C3_3 C 0.0604(7) 0.1719(3) 0.7536(4)
N6_2 N 0.5390(6) 0.4841(3) 0.8257(3)
C4_3 C 0.2959(7) 0.2370(3) 0.8016(4)
C6_3 C 0.3748(7) 0.4656(3) 0.8083(4)
C7_3 C 0.0606(8) 0.3211(4) 0.9660(4)
C9_3 C 0.6359(7) 0.4312(3) 0.8888(4)
C10_3 C 0.5307(7) 0.3816(3) 0.9069(4)
H2_3 H 0.5652 0.3403 0.9462
C11_3 C 0.8362(8) 0.1158(5) 0.9138(5)
H3_3 H 0.9033 0.1480 0.8914
H4_3 H 0.8292 0.1383 0.9668
H5_3 H 0.8905 0.0668 0.9288
C12_3 C 0.6560(7) 0.1067(3) 0.8420(4)
B1_3 B 0.1916(7) 0.3641(3) 0.8505(4)
H8_3 H 0.011(7) 0.484(3) 0.884(4)
H11_3 H 0.766(8) 0.428(3) 0.914(4)
H13_3 H 0.408(7) 0.248(3) 0.818(3)
H14_3 H 0.269(8) 0.492(4) 0.766(4)
N10_2 N 0.1701(5) 0.0029(2) 0.7389(3)
N9_2 N 0.4610(6) 0.9841(3) 0.6743(3)
C1_2 C 0.9401(8) 0.4127(3) 0.7005(4)
H1_2 H 0.9121 0.2581 0.7710
N7_2 N 0.8299(5) 0.5029(2) 0.7611(3)
C5_2 C 0.9625(7) 0.4698(3) 0.8241(4)
C13_2 C 0.8147(8) 0.4671(3) 0.6819(4)
H6_2 H 0.966(8) 0.297(4) 0.920(4)
H7_2 H 0.986(7) 0.129(3) 0.732(4)
H9_2 H 0.960(9) 0.380(4) 0.657(5)
H12_2 H 0.724(7) 0.479(3) 0.623(4)
N1_4 N 0.9654(5) 0.9140(2) 0.7075(3)
N2_4 N 0.6388(5) 0.9033(2) 0.6441(3)
N3_4 N 0.8115(5) 0.8578(2) 0.5537(3)
O1_4 O 0.3868(6) 0.6380(2) 0.7341(3)
O2_4 O 0.4514(5) 0.5659(2) 0.6400(3)
N4_4 N 0.7641(6) 0.6687(2) 0.7298(3)
C2_4 C 0.9790(7) 0.7418(3) 0.7241(4)
N5_4 N 0.8280(5) 0.7847(2) 0.6927(3)
C3_4 C 0.9396(7) 0.6719(3) 0.7464(4)
C4_4 C 0.7041(7) 0.7370(3) 0.6984(4)
C6_4 C 0.6252(7) 0.9656(3) 0.6917(4)
C7_4 C 0.9394(8) 0.8211(4) 0.5340(4)
C8_4 C 0.9133(8) 0.8376(4) 0.4470(4)
C9_4 C 0.3641(7) 0.9312(3) 0.6112(4)
C10_4 C 0.4693(7) 0.8816(3) 0.5931(4)
H2_4 H 0.4348 0.8403 0.5538
C11_4 C 0.1638(8) 0.6158(5) 0.5862(5)
H3_4 H 0.0967 0.6480 0.6086
H4_4 H 0.1708 0.6383 0.5332
H5_4 H 0.1095 0.5668 0.5712
C12_4 C 0.3440(7) 0.6067(3) 0.6580(4)
C14_4 C 0.7149(7) 0.8942(3) 0.4766(4)
B1_4 B 0.8084(7) 0.8641(3) 0.6495(4)
H8_4 H 0.989(7) 0.984(3) 0.616(4)
H10_4 H 0.983(8) 0.820(4) 0.420(4)
H11_4 H 0.234(8) 0.928(3) 0.586(4)
H13_4 H 0.592(7) 0.748(3) 0.682(3)
H14_4 H 0.731(8) 0.992(4) 0.734(4)
H15_4 H 0.617(7) 0.924(3) 0.471(3)
C1_3 C 0.9401(8) 0.0873(3) 0.2005(4)
H1_3 H 0.9121 0.2419 0.2710
C5_3 C 0.9625(7) 0.0302(3) 0.3241(4)
C13_3 C 0.8147(8) 0.0329(3) 0.1819(4)
H6_3 H 0.966(8) 0.203(4) 0.420(4)
H7_3 H 0.986(7) 0.371(3) 0.232(4)
H9_3 H 0.960(9) 0.120(4) 0.157(5)
H12_3 H 0.724(7) 0.021(3) 0.123(4)
C1_4 C 0.0599(8) 0.9127(3) 0.7995(4)
H1_4 H 0.0879 0.7581 0.7290
C5_4 C 0.0375(7) 0.9698(3) 0.6759(4)
C13_4 C 0.1853(8) 0.9671(3) 0.8181(4)
H6_4 H 0.034(8) 0.797(4) 0.580(4)
H7_4 H 0.014(7) 0.629(3) 0.768(4)
H9_4 H 0.040(9) 0.880(4) 0.843(5)
H12_4 H 0.276(7) 0.979(3) 0.877(4)
loop_
_geom_bond_atom_site_label_1
_geom_bond_atom_site_label_2
_geom_bond_site_symmetry_1
_geom_bond_site_symmetry_2
N7 C5 1_555 1_555
C13 C1 1_555 1_555
H9 C1 1_555 1_555
H12 C13 1_555 1_555
Co3 N7 1_555 1_555
N7 C13 1_555 1_555
Co1 O1 1_555 1_555
N2 C6 1_555 1_555
N3 C7 1_555 1_555
O1 C12 1_555 1_555
O2 Co1 1_555 1_555
N4 Co1 1_555 1_555
N5 C2 1_555 1_555
C3 N4 1_555 1_555
N6 C6 1_555 1_555
C4 N4 1_555 1_555
C6 H14 1_555 1_555
C9 N6 1_555 1_555
C10 N2 1_555 1_555
H2 C10 1_555 1_555
C11 H3 1_555 1_555
H4 C11 1_555 1_555
H5 C11 1_555 1_555
C12 O2 1_555 1_555
B1 N1 1_555 1_555
H11 C9 1_555 1_555
H13 C4 1_555 1_555
Co3 N6 1_555 1_555
N10 Co1 1_555 1_555
N11 Co1 1_555 1_555
N2 B1 1_555 1_555
N3 B1 1_555 1_555
C2 C3 1_555 1_555
N5 C4 1_555 1_555
N5 B1 1_555 1_555
C9 C10 1_555 1_555
C11 C12 1_555 1_555
N8 C8 1_555 1_555
C8 H10 1_555 1_555
H15 C14 1_555 1_555
Co4 N8 1_555 1_555
N8 C14 1_555 1_555
Co3 O1_2 1_555 1_555
N2_2 C6_2 1_555 1_555
N3_2 C7_2 1_555 1_555
O1_2 C12_2 1_555 1_555
O2_2 Co3 1_555 1_555
N4_2 Co3 1_555 1_555
N5_2 C2_2 1_555 1_555
C3_2 N4_2 1_555 1_555
N9 C6_2 1_555 1_555
N8_2 C8_2 1_555 1_555
C4_2 N4_2 1_555 1_555
C6_2 H14_2 1_555 1_555
C7_2 C8_2 1_555 1_555
C8_2 H10_2 1_555 1_555
C9_2 N9 1_555 1_555
C10_2 N2_2 1_555 1_555
H2_2 C10_2 1_555 1_555
C11_2 H3_2 1_555 1_555
H4_2 C11_2 1_555 1_555
H5_2 C11_2 1_555 1_555
C12_2 O2_2 1_555 1_555
C14_2 N3_2 1_555 1_555
B1_2 N1_2 1_555 1_555
H11_2 C9_2 1_555 1_555
H13_2 C4_2 1_555 1_555
H15_2 C14_2 1_555 1_555
Co4_2 N8_2 1_555 1_555
N11_2 Co3 1_555 1_555
N2_2 B1_2 1_555 1_555
N3_2 B1_2 1_555 1_555
C2_2 C3_2 1_555 1_555
N5_2 C4_2 1_555 1_555
N5_2 B1_2 1_555 1_555
N8_2 C14_2 1_555 1_555
C9_2 C10_2 1_555 1_555
C11_2 C12_2 1_555 1_555
N11_2 C8_3 1_555 1_555
C8_3 H10_3 1_555 1_555
H15_3 C14_3 1_555 1_555
N11_2 C14_3 1_555 1_555
Co4_2 O1_3 1_555 1_555
N2_3 C6_3 1_555 1_555
N3_3 C7_3 1_555 1_555
O1_3 C12_3 1_555 1_555
O2_3 Co4_2 1_555 1_555
N4_3 Co4_2 1_555 1_555
N5_3 C2_3 1_555 1_555
C3_3 N4_3 1_555 1_555
N6_2 C6_3 1_555 1_555
C4_3 N4_3 1_555 1_555
C6_3 H14_3 1_555 1_555
C9_3 N6_2 1_555 1_555
C10_3 N2_3 1_555 1_555
H2_3 C10_3 1_555 1_555
C11_3 H3_3 1_555 1_555
H4_3 C11_3 1_555 1_555
H5_3 C11_3 1_555 1_555
C12_3 O2_3 1_555 1_555
B1_3 N1_3 1_555 1_555
H11_3 C9_3 1_555 1_555
H13_3 C4_3 1_555 1_555
Co4 N6_2 1_555 1_555
N10_2 Co4_2 1_555 1_555
N2_3 B1_3 1_555 1_555
N3_3 B1_3 1_555 1_555
C2_3 C3_3 1_555 1_555
N5_3 C4_3 1_555 1_555
N5_3 B1_3 1_555 1_555
C9_3 C10_3 1_555 1_555
C11_3 C12_3 1_555 1_555
N7_2 C5_2 1_555 1_555
C13_2 C1_2 1_555 1_555
H9_2 C1_2 1_555 1_555
H12_2 C13_2 1_555 1_555
Co4 N7_2 1_555 1_555
N7_2 C13_2 1_555 1_555
Co4 O1_4 1_555 1_555
N2_4 C6_4 1_555 1_555
N3_4 C7_4 1_555 1_555
O1_4 C12_4 1_555 1_555
O2_4 Co4 1_555 1_555
N4_4 Co4 1_555 1_555
N5_4 C2_4 1_555 1_555
C3_4 N4_4 1_555 1_555
N9_2 C6_4 1_555 1_555
N11 C8_4 1_555 1_555
C4_4 N4_4 1_555 1_555
C6_4 H14_4 1_555 1_555
C7_4 C8_4 1_555 1_555
C8_4 H10_4 1_555 1_555
C9_4 N9_2 1_555 1_555
C10_4 N2_4 1_555 1_555
H2_4 C10_4 1_555 1_555
C11_4 H3_4 1_555 1_555
H4_4 C11_4 1_555 1_555
H5_4 C11_4 1_555 1_555
C12_4 O2_4 1_555 1_555
C14_4 N3_4 1_555 1_555
B1_4 N1_4 1_555 1_555
H11_4 C9_4 1_555 1_555
H13_4 C4_4 1_555 1_555
H15_4 C14_4 1_555 1_555
N2_4 B1_4 1_555 1_555
N3_4 B1_4 1_555 1_555
C2_4 C3_4 1_555 1_555
N5_4 C4_4 1_555 1_555
N5_4 B1_4 1_555 1_555
N11 C14_4 1_555 1_555
C9_4 C10_4 1_555 1_555
C11_4 C12_4 1_555 1_555
C13_3 C1_3 1_555 1_555
H9_3 C1_3 1_555 1_555
H12_3 C13_3 1_555 1_555
C13_4 C1_4 1_555 1_555
H9_4 C1_4 1_555 1_555
H12_4 C13_4 1_555 1_555

#END
