
###############################################################################
#
# This file contains modified crystal structure data generated from the
# MOF subset of the Cambridge Structural Database (CSD) v543 
# hosted by the Cambridge Crystallographic Data Centre (CCDC).
#
# This work is licensed under the Creative Commons
# Attribution-NonCommercial-ShareAlike 4.0 International License.
# To view a copy of this license, visit
# http://creativecommons.org/licenses/by-nc-sa/4.0/
# or send a letter to
# Creative Commons, PO Box 1866, Mountain View, CA 94042, USA.
#
# CIF created using the CSD Python API on 29 September 2022
# The structure has been converted into the P1 space group
# The structure has a 3D framework
# The original CSD entry DEKBON is in the orthorhombic crystal system
# The framework has been calculated to contain at least 10.0% void space
# The void calculation uses a probe of radius 1.32A, grid spacing 0.4
#
###############################################################################

data_DEKBON
_chemical_formula_moiety         '(C168 H100 Cu16 O56)n'
_symmetry_cell_setting           triclinic
_symmetry_space_group_name_H-M   'P 1'
_symmetry_Int_Tables_number      1
_space_group_name_Hall           'P 1'
loop_
_symmetry_equiv_pos_site_id
_symmetry_equiv_pos_as_xyz
1 x,y,z
_cell_length_a                   21.573(19)
_cell_length_b                   5.404(5)
_cell_length_c                   33.78(3)
_cell_angle_alpha                90
_cell_angle_beta                 90
_cell_angle_gamma                90
_cell_volume                     3938.09
loop_
_atom_site_label
_atom_site_type_symbol
_atom_site_fract_x
_atom_site_fract_y
_atom_site_fract_z
Cu7 Cu 0.21230(2) 0.18315(9) 0.39897(2)
O8 O 0.36170(12) 0.0253(5) 0.32858(8)
O11 O 0.28739(14) 0.1154(5) 0.43126(9)
O13 O 0.27868(12) 0.2675(5) 0.27651(8)
Cu1 Cu 0.28770(2) 0.68315(9) 0.39897(2)
Cu2 Cu 0.29133(2) 0.85643(9) 0.30780(2)
O6 O 0.34217(12) 0.6020(5) 0.27691(9)
O7 O 0.24373(12) 0.8779(5) 0.35804(7)
H1 H 0.2074 0.8205 0.3546
C14 C 0.45825(19) 0.1770(8) 0.19856(12)
H9 H 0.5000 0.2122 0.1945
C15 C 0.4250(2) 0.3142(8) 0.22626(13)
H10 H 0.4443 0.4426 0.2398
C16 C 0.36334(18) 0.2606(7) 0.23372(11)
C17 C 0.33587(19) 0.0710(8) 0.21212(14)
H11 H 0.2946 0.0319 0.2169
C21 C 0.32666(17) 0.3913(7) 0.26474(11)
Cu10 Cu 0.20867(2) 0.35643(9) 0.30780(2)
O9 O 0.37070(13) 0.7740(6) 0.38110(9)
O10 O 0.21261(14) 0.6154(5) 0.43126(9)
O12 O 0.33332(13) 0.4834(6) 0.43749(9)
O14 O 0.22132(12) 0.7675(5) 0.27651(8)
O15 O 0.25627(12) 0.3779(5) 0.35804(7)
O1 O 0.63830(12) 0.5253(5) 0.17142(8)
O2 O 0.62930(13) 0.2740(6) 0.11890(9)
C1 C 0.54999(17) 0.5637(7) 0.13055(11)
C2 C 0.51944(19) 0.4877(8) 0.09603(12)
H2 H 0.5383 0.3733 0.0794
C3 C 0.46154(19) 0.5804(8) 0.08634(12)
C4 C 0.4347(2) 0.7509(9) 0.11256(12)
H3 H 0.3959 0.8157 0.1065
C5 C 0.46445(19) 0.8281(7) 0.14781(12)
C6 C 0.52275(19) 0.7372(7) 0.15602(12)
H4 H 0.5440 0.7908 0.1784
C7 C 0.42787(19) 0.4962(8) 0.04963(12)
C8 C 0.4442(2) 0.2849(11) 0.02940(16)
H5 H 0.4777 0.1921 0.0383
C11 C 0.3459(2) 0.5473(9) 0.00120(15)
C12 C 0.3784(2) 0.6258(9) 0.03438(15)
H8 H 0.3663 0.7717 0.0468
C13 C 0.43034(19) 0.9877(8) 0.17672(11)
C18 C 0.3681(2) 0.9391(8) 0.18383(13)
H12 H 0.3480 0.8165 0.1694
C20 C 0.61020(18) 0.4479(7) 0.14084(11)
Cu4 Cu 0.71230(2) 0.18315(9) 0.10103(2)
Cu9 Cu 0.70867(2) 0.35643(9) 0.19220(2)
O3 O 0.28739(14) 0.3846(5) 0.93126(9)
O4 O 0.33332(13) 0.0166(6) 0.93749(9)
C9 C 0.4119(2) 0.2060(10) 0.99594(15)
H6 H 0.4248 0.0635 0.9829
C10 C 0.36192(19) 0.3320(8) 0.98186(12)
H7 H 0.3128 0.6413 0.9919
C19 C 0.32508(19) 0.2375(8) 0.94754(12)
Cu3 Cu 0.21230(2) 0.31685(9) 0.89897(2)
Cu6 Cu 0.28770(2) 0.81685(9) 0.89897(2)
O4_2 O 0.16668(13) 0.9834(6) 0.43749(9)
C3_2 C 0.03846(19) 0.4196(8) 0.58634(12)
C4_2 C 0.0653(2) 0.2491(9) 0.61256(12)
H3_2 H 0.1041 0.1843 0.6065
C5_2 C 0.03555(19) 0.1719(7) 0.64781(12)
C7_2 C 0.07213(19) 0.5038(8) 0.54963(12)
C8_2 C 0.0558(2) 0.7151(11) 0.52940(16)
H5_2 H 0.0223 0.8079 0.5383
C9_2 C 0.0881(2) 0.7940(10) 0.49594(15)
H6_2 H 0.0752 0.9365 0.4829
C10_2 C 0.13808(19) 0.6680(8) 0.48186(12)
C11_2 C 0.1541(2) 0.4527(9) 0.50120(15)
H7_2 H 0.1872 0.3587 0.4919
C12_2 C 0.1216(2) 0.3742(9) 0.53438(15)
H8_2 H 0.1337 0.2283 0.5468
C13_2 C 0.06966(19) 0.0123(8) 0.67672(11)
C18_2 C 0.1319(2) 0.0609(8) 0.68383(13)
H12_2 H 0.1520 0.1835 0.6694
C19_2 C 0.17492(19) 0.7625(8) 0.44754(12)
Cu8 Cu 0.20867(2) 0.14357(9) 0.80780(2)
O5 O 0.22132(12) 0.7325(5) 0.77651(8)
O6_2 O 0.15783(12) 0.3980(5) 0.77691(9)
O7_2 O 0.25627(12) 0.1221(5) 0.85804(7)
H1_2 H 0.2926 0.1795 0.8546
C14_2 C 0.04175(19) 0.8230(8) 0.69856(12)
H9_2 H 0.0000 0.7878 0.6945
C15_2 C 0.0750(2) 0.6858(8) 0.72626(13)
H10_2 H 0.0557 0.5574 0.7398
C16_2 C 0.13666(18) 0.7394(7) 0.73372(11)
C17_2 C 0.16413(19) 0.9290(8) 0.71212(14)
H11_2 H 0.2054 0.9681 0.7169
C21_2 C 0.17334(17) 0.6087(7) 0.76474(11)
Cu10_2 Cu 0.29133(2) 0.64357(9) 0.80780(2)
O9_2 O 0.12930(13) 0.2260(6) 0.88110(9)
O12_2 O 0.16668(13) 0.5166(6) 0.93749(9)
O14_2 O 0.27868(12) 0.2325(5) 0.77651(8)
O15_2 O 0.24373(12) 0.6221(5) 0.85804(7)
O8_2 O 0.13830(12) 0.9747(5) 0.82858(8)
O11_2 O 0.21261(14) 0.8846(5) 0.93126(9)
O1_2 O 0.86170(12) 0.4747(5) 0.67142(8)
O2_2 O 0.87070(13) 0.7260(6) 0.61890(9)
C1_2 C 0.95001(17) 0.4363(7) 0.63055(11)
C2_2 C 0.98056(19) 0.5123(8) 0.59603(12)
H2_2 H 0.9617 0.6267 0.5794
C6_2 C 0.97725(19) 0.2628(7) 0.65602(12)
H4_2 H 0.9560 0.2092 0.6784
C20_2 C 0.88980(18) 0.5521(7) 0.64084(11)
Cu4_2 Cu 0.78770(2) 0.81685(9) 0.60103(2)
Cu9_2 Cu 0.79133(2) 0.64357(9) 0.69220(2)
O6_3 O 0.65783(12) 0.1020(5) 0.22309(9)
O7_3 O 0.75627(12) 0.3779(5) 0.14196(7)
H1_3 H 0.7926 0.3205 0.1454
Cu7_2 Cu 0.78770(2) 0.68315(9) 0.10103(2)
O10_2 O 0.78739(14) 0.1154(5) 0.06874(9)
O11_3 O 0.71261(14) 0.6154(5) 0.06874(9)
O13_2 O 0.72132(12) 0.7675(5) 0.22349(8)
O14_3 O 0.77868(12) 0.2675(5) 0.22349(8)
C1_3 C 0.45001(17) 0.0637(7) 0.36945(11)
C3_3 C 0.53846(19) 0.0804(8) 0.41366(12)
C4_3 C 0.5653(2) 0.2509(9) 0.38744(12)
H3_3 H 0.6041 0.3157 0.3935
C5_3 C 0.53555(19) 0.3281(7) 0.35219(12)
C6_3 C 0.47725(19) 0.2372(7) 0.34398(12)
H4_3 H 0.4560 0.2908 0.3216
C11_3 C 0.6541(2) 0.0473(9) 0.49880(15)
H7_3 H 0.6872 0.1413 0.5081
C12_3 C 0.6216(2) 0.1258(9) 0.46562(15)
H8_3 H 0.6337 0.2717 0.4532
C13_3 C 0.56966(19) 0.4877(8) 0.32328(11)
C14_3 C 0.54175(19) 0.6770(8) 0.30144(12)
H9_3 H 0.5000 0.7122 0.3055
C15_3 C 0.5750(2) 0.8142(8) 0.27374(13)
H10_3 H 0.5557 0.9426 0.2602
C16_3 C 0.63666(18) 0.7606(7) 0.26628(11)
C17_3 C 0.66413(19) 0.5710(8) 0.28788(14)
H11_3 H 0.7054 0.5319 0.2831
C18_3 C 0.6319(2) 0.4391(8) 0.31617(13)
H12_3 H 0.6520 0.3165 0.3306
C21_3 C 0.67334(17) 0.8913(7) 0.23526(11)
Cu6_2 Cu 0.71230(2) 0.31685(9) 0.60103(2)
Cu10_3 Cu 0.79133(2) 0.85643(9) 0.19220(2)
O12_3 O 0.66668(13) 0.9834(6) 0.06251(9)
O15_3 O 0.74373(12) 0.8779(5) 0.14196(7)
O3_2 O 0.71261(14) 0.8846(5) 0.56874(9)
O4_3 O 0.66668(13) 0.5166(6) 0.56251(9)
C2_3 C 0.48056(19) 0.9877(8) 0.40397(12)
H2_3 H 0.4617 0.8733 0.4206
C7_3 C 0.57213(19) 0.9962(8) 0.45037(12)
C8_3 C 0.5558(2) 0.7849(11) 0.47060(16)
H5_3 H 0.5223 0.6921 0.4617
C9_3 C 0.5881(2) 0.7060(10) 0.50406(15)
H6_3 H 0.5752 0.5635 0.5171
C10_3 C 0.63808(19) 0.8320(8) 0.51814(12)
C19_3 C 0.67492(19) 0.7375(8) 0.55246(12)
C20_3 C 0.38980(18) 0.9479(7) 0.35916(11)
C2_4 C 0.01944(19) 0.0123(8) 0.90397(12)
H2_4 H 0.0383 0.1267 0.9206
C20_4 C 0.11020(18) 0.0521(7) 0.85916(11)
C1_4 C 0.04999(17) 0.9363(7) 0.86945(11)
C6_4 C 0.02275(19) 0.7628(7) 0.84398(12)
H4_4 H 0.0440 0.7092 0.8216
H9_4 H 0.0000 0.2878 0.8055
O4_4 O 0.83332(13) 0.4834(6) 0.06251(9)
C9_4 C 0.9119(2) 0.2940(10) 0.00406(15)
H6_4 H 0.9248 0.4365 0.0171
C10_4 C 0.86192(19) 0.1680(8) 0.01814(12)
C19_4 C 0.82508(19) 0.2625(8) 0.05246(12)
H7_4 H 0.8128 0.8587 0.0081
O5_2 O 0.77868(12) 0.2325(5) 0.72349(8)
C3_4 C 0.96154(19) 0.9196(8) 0.91366(12)
C4_4 C 0.9347(2) 0.7491(9) 0.88744(12)
H3_4 H 0.8959 0.6843 0.8935
C5_4 C 0.96445(19) 0.6719(7) 0.85219(12)
C11_4 C 0.8459(2) 0.9527(9) 0.99880(15)
C12_4 C 0.8784(2) 0.8742(9) 0.96562(15)
H8_4 H 0.8663 0.7283 0.9532
C13_4 C 0.93034(19) 0.5123(8) 0.82328(11)
C14_4 C 0.95825(19) 0.3230(8) 0.80144(12)
H9_5 H 1.0000 0.2878 0.8055
C15_4 C 0.9250(2) 0.1858(8) 0.77374(13)
H10_4 H 0.9443 0.0574 0.7602
C16_4 C 0.86334(18) 0.2394(7) 0.76628(11)
C17_4 C 0.83587(19) 0.4290(8) 0.78788(14)
H11_4 H 0.7946 0.4681 0.7831
C18_4 C 0.8681(2) 0.5609(8) 0.81617(13)
H12_4 H 0.8480 0.6835 0.8306
C21_4 C 0.82666(17) 0.1087(7) 0.73526(11)
Cu10_4 Cu 0.70867(2) 0.14357(9) 0.69220(2)
O12_4 O 0.83332(13) 0.0166(6) 0.56251(9)
O15_4 O 0.75627(12) 0.1221(5) 0.64196(7)
O6_4 O 0.84217(12) 0.8980(5) 0.72309(9)
O7_4 O 0.74373(12) 0.6221(5) 0.64196(7)
H1_4 H 0.7074 0.6795 0.6454
O11_4 O 0.78739(14) 0.3846(5) 0.56874(9)
O14_4 O 0.72132(12) 0.7325(5) 0.72349(8)
C9_5 C 0.5881(2) 0.7940(10) 0.00406(15)
H6_5 H 0.5752 0.9365 0.0171
C10_5 C 0.63808(19) 0.6680(8) 0.01814(12)
H7_5 H 0.6872 0.3587 0.0081
C19_5 C 0.67492(19) 0.7625(8) 0.05246(12)
O1_3 O 0.36170(12) 0.4747(5) 0.82858(8)
O2_3 O 0.37070(13) 0.7260(6) 0.88110(9)
C1_5 C 0.45001(17) 0.4363(7) 0.86945(11)
C2_5 C 0.48056(19) 0.5123(8) 0.90397(12)
H2_5 H 0.4617 0.6267 0.9206
C3_5 C 0.53846(19) 0.4196(8) 0.91366(12)
C4_5 C 0.5653(2) 0.2491(9) 0.88744(12)
H3_5 H 0.6041 0.1843 0.8935
C5_5 C 0.53555(19) 0.1719(7) 0.85219(12)
C6_5 C 0.47725(19) 0.2628(7) 0.84398(12)
H4_5 H 0.4560 0.2092 0.8216
C7_4 C 0.57213(19) 0.5038(8) 0.95037(12)
C8_4 C 0.5558(2) 0.7151(11) 0.97060(16)
H5_4 H 0.5223 0.8079 0.9617
C11_5 C 0.6541(2) 0.4527(9) 0.99880(15)
C12_5 C 0.6216(2) 0.3742(9) 0.96562(15)
H8_5 H 0.6337 0.2283 0.9532
C13_5 C 0.56966(19) 0.0123(8) 0.82328(11)
C18_5 C 0.6319(2) 0.0609(8) 0.81617(13)
H12_5 H 0.6520 0.1835 0.8306
C20_5 C 0.38980(18) 0.5521(7) 0.85916(11)
O6_5 O 0.65783(12) 0.3980(5) 0.72309(9)
H1_5 H 0.7926 0.1795 0.6454
C14_5 C 0.54175(19) 0.8230(8) 0.80144(12)
H9_6 H 0.5000 0.7878 0.8055
C15_5 C 0.5750(2) 0.6858(8) 0.77374(13)
H10_5 H 0.5557 0.5574 0.7602
C16_5 C 0.63666(18) 0.7394(7) 0.76628(11)
C17_5 C 0.66413(19) 0.9290(8) 0.78788(14)
H11_5 H 0.7054 0.9681 0.7831
C21_5 C 0.67334(17) 0.6087(7) 0.73526(11)
O9_3 O 0.62930(13) 0.2260(6) 0.61890(9)
O8_3 O 0.63830(12) 0.9747(5) 0.67142(8)
O1_4 O 0.13830(12) 0.5253(5) 0.32858(8)
O2_4 O 0.12930(13) 0.2740(6) 0.38110(9)
C1_6 C 0.04999(17) 0.5637(7) 0.36945(11)
C2_6 C 0.01944(19) 0.4877(8) 0.40397(12)
H2_6 H 0.0383 0.3733 0.4206
C6_6 C 0.02275(19) 0.7372(7) 0.34398(12)
H4_6 H 0.0440 0.7908 0.3216
C20_6 C 0.11020(18) 0.4479(7) 0.35916(11)
O8_4 O 0.86170(12) 0.0253(5) 0.17142(8)
O6_6 O 0.84217(12) 0.6020(5) 0.22309(9)
H1_6 H 0.7074 0.8205 0.1454
C14_6 C 0.95825(19) 0.1770(8) 0.30144(12)
H9_7 H 1.0000 0.2122 0.3055
C15_6 C 0.9250(2) 0.3142(8) 0.27374(13)
H10_6 H 0.9443 0.4426 0.2602
C16_6 C 0.86334(18) 0.2606(7) 0.26628(11)
C17_6 C 0.83587(19) 0.0710(8) 0.28788(14)
H11_6 H 0.7946 0.0319 0.2831
C21_6 C 0.82666(17) 0.3913(7) 0.23526(11)
O9_4 O 0.87070(13) 0.7740(6) 0.11890(9)
C3_6 C 0.96154(19) 0.5804(8) 0.41366(12)
C4_6 C 0.9347(2) 0.7509(9) 0.38744(12)
H3_6 H 0.8959 0.8157 0.3935
C5_6 C 0.96445(19) 0.8281(7) 0.35219(12)
C7_5 C 0.92787(19) 0.4962(8) 0.45037(12)
C8_5 C 0.9442(2) 0.2849(11) 0.47060(16)
H5_5 H 0.9777 0.1921 0.4617
C9_6 C 0.9119(2) 0.2060(10) 0.50406(15)
H6_6 H 0.9248 0.0635 0.5171
C10_6 C 0.86192(19) 0.3320(8) 0.51814(12)
C11_6 C 0.8459(2) 0.5473(9) 0.49880(15)
H7_6 H 0.8128 0.6413 0.5081
C12_6 C 0.8784(2) 0.6258(9) 0.46562(15)
H8_6 H 0.8663 0.7717 0.4532
C13_6 C 0.93034(19) 0.9877(8) 0.32328(11)
C18_6 C 0.8681(2) 0.9391(8) 0.31617(13)
H12_6 H 0.8480 0.8165 0.3306
C19_6 C 0.82508(19) 0.2375(8) 0.55246(12)
C2_7 C 0.51944(19) 0.0123(8) 0.59603(12)
H2_7 H 0.5383 0.1267 0.5794
C7_6 C 0.42787(19) 0.0038(8) 0.54963(12)
C8_6 C 0.4442(2) 0.2151(11) 0.52940(16)
H5_6 H 0.4777 0.3079 0.5383
C9_7 C 0.4119(2) 0.2940(10) 0.49594(15)
H6_7 H 0.4248 0.4365 0.4829
C10_7 C 0.36192(19) 0.1680(8) 0.48186(12)
C19_7 C 0.32508(19) 0.2625(8) 0.44754(12)
C20_7 C 0.61020(18) 0.0521(7) 0.64084(11)
C1_7 C 0.54999(17) 0.9363(7) 0.63055(11)
C3_7 C 0.46154(19) 0.9196(8) 0.58634(12)
C4_7 C 0.4347(2) 0.7491(9) 0.61256(12)
H3_7 H 0.3959 0.6843 0.6065
C5_7 C 0.46445(19) 0.6719(7) 0.64781(12)
C6_7 C 0.52275(19) 0.7628(7) 0.65602(12)
H4_7 H 0.5440 0.7092 0.6784
C11_7 C 0.3459(2) 0.9527(9) 0.50120(15)
H7_7 H 0.3128 0.8587 0.4919
C12_7 C 0.3784(2) 0.8742(9) 0.53438(15)
H8_7 H 0.3663 0.7283 0.5468
C13_7 C 0.43034(19) 0.5123(8) 0.67672(11)
C14_7 C 0.45825(19) 0.3230(8) 0.69856(12)
H9_8 H 0.5000 0.2878 0.6945
C15_7 C 0.4250(2) 0.1858(8) 0.72626(13)
H10_7 H 0.4443 0.0574 0.7398
C16_7 C 0.36334(18) 0.2394(7) 0.73372(11)
C17_7 C 0.33587(19) 0.4290(8) 0.71212(14)
H11_7 H 0.2946 0.4681 0.7169
C18_7 C 0.3681(2) 0.5609(8) 0.68383(13)
H12_7 H 0.3480 0.6835 0.6694
C21_7 C 0.32666(17) 0.1087(7) 0.76474(11)
O6_7 O 0.34217(12) 0.8980(5) 0.77691(9)
H1_7 H 0.2074 0.6795 0.8546
O6_8 O 0.15783(12) 0.1020(5) 0.27691(9)
H1_8 H 0.2926 0.3205 0.3546
C3_8 C 0.03846(19) 0.0804(8) 0.08634(12)
C4_8 C 0.0653(2) 0.2509(9) 0.11256(12)
H3_8 H 0.1041 0.3157 0.1065
C5_8 C 0.03555(19) 0.3281(7) 0.14781(12)
C11_8 C 0.1541(2) 0.0473(9) 0.00120(15)
C12_8 C 0.1216(2) 0.1258(9) 0.03438(15)
H8_8 H 0.1337 0.2717 0.0468
C13_8 C 0.06966(19) 0.4877(8) 0.17672(11)
C14_8 C 0.04175(19) 0.6770(8) 0.19856(12)
H9_9 H 0.0000 0.7122 0.1945
C15_8 C 0.0750(2) 0.8142(8) 0.22626(13)
H10_8 H 0.0557 0.9426 0.2398
C16_8 C 0.13666(18) 0.7606(7) 0.23372(11)
C17_8 C 0.16413(19) 0.5710(8) 0.21212(14)
H11_8 H 0.2054 0.5319 0.2169
C18_8 C 0.1319(2) 0.4391(8) 0.18383(13)
H12_8 H 0.1520 0.3165 0.1694
C21_8 C 0.17334(17) 0.8913(7) 0.26474(11)
H7_8 H 0.1872 0.1413 0.9919
C9_8 C 0.0881(2) 0.7060(10) 0.99594(15)
H6_8 H 0.0752 0.5635 0.9829
C10_8 C 0.13808(19) 0.8320(8) 0.98186(12)
C19_8 C 0.17492(19) 0.7375(8) 0.94754(12)
C1_8 C 0.95001(17) 0.0637(7) 0.13055(11)
C6_8 C 0.97725(19) 0.2372(7) 0.15602(12)
H4_8 H 0.9560 0.2908 0.1784
H9_10 H 1.0000 0.7122 0.1945
C2_8 C 0.98056(19) 0.9877(8) 0.09603(12)
H2_8 H 0.9617 0.8733 0.0794
C20_8 C 0.88980(18) 0.9479(7) 0.14084(11)
H9_11 H 1.0000 0.7878 0.6945
C7_7 C 0.92787(19) 0.0038(8) 0.95037(12)
C8_7 C 0.9442(2) 0.2151(11) 0.97060(16)
H5_7 H 0.9777 0.3079 0.9617
H9_12 H 0.0000 0.2122 0.3055
C7_8 C 0.07213(19) 0.9962(8) 0.04963(12)
C8_8 C 0.0558(2) 0.7849(11) 0.02940(16)
H5_8 H 0.0223 0.6921 0.0383
loop_
_geom_bond_atom_site_label_1
_geom_bond_atom_site_label_2
_geom_bond_site_symmetry_1
_geom_bond_site_symmetry_2
Cu7 O11 1_555 1_555
Cu1 O7 1_555 1_555
Cu2 O6 1_555 1_555
O13 C21 1_555 1_555
O6 C21 1_555 1_555
O7 Cu2 1_555 1_555
H1 O7 1_555 1_555
H9 C14 1_555 1_555
C15 C14 1_555 1_555
H10 C15 1_555 1_555
C16 C15 1_555 1_555
C17 C16 1_555 1_555
H11 C17 1_555 1_555
C21 C16 1_555 1_555
Cu10 O13 1_555 1_555
O9 Cu1 1_555 1_555
O10 Cu1 1_555 1_555
O12 Cu1 1_555 1_555
O14 Cu2 1_555 1_555
O15 Cu1 1_555 1_555
Cu10 O14 1_555 1_555
Cu10 O15 1_555 1_555
O1 C20 1_555 1_555
O2 C20 1_555 1_555
C1 C2 1_555 1_555
C2 H2 1_555 1_555
C3 C2 1_555 1_555
C4 C3 1_555 1_555
H3 C4 1_555 1_555
C5 C4 1_555 1_555
C6 C1 1_555 1_555
H4 C6 1_555 1_555
C7 C3 1_555 1_555
C8 C7 1_555 1_555
H5 C8 1_555 1_555
C12 C7 1_555 1_555
H8 C12 1_555 1_555
C13 C5 1_555 1_555
C18 C13 1_555 1_555
H12 C18 1_555 1_555
C20 C1 1_555 1_555
Cu4 O2 1_555 1_555
Cu9 O1 1_555 1_555
C5 C6 1_555 1_555
C11 C12 1_555 1_555
O3 C19 1_555 1_555
O4 C19 1_555 1_555
H6 C9 1_555 1_555
C10 C9 1_555 1_555
C19 C10 1_555 1_555
Cu3 O3 1_555 1_555
Cu6 O3 1_555 1_555
O10 C19_2 1_555 1_555
O4_2 C19_2 1_555 1_555
C4_2 C3_2 1_555 1_555
H3_2 C4_2 1_555 1_555
C5_2 C4_2 1_555 1_555
C7_2 C3_2 1_555 1_555
C8_2 C7_2 1_555 1_555
H5_2 C8_2 1_555 1_555
C9_2 C8_2 1_555 1_555
H6_2 C9_2 1_555 1_555
C10_2 C9_2 1_555 1_555
C11_2 C10_2 1_555 1_555
H7_2 C11_2 1_555 1_555
C12_2 C7_2 1_555 1_555
H8_2 C12_2 1_555 1_555
C13_2 C5_2 1_555 1_555
C18_2 C13_2 1_555 1_555
H12_2 C18_2 1_555 1_555
C19_2 C10_2 1_555 1_555
Cu7 O10 1_555 1_555
C11_2 C12_2 1_555 1_555
Cu3 O7_2 1_555 1_555
Cu8 O6_2 1_555 1_555
O5 C21_2 1_555 1_555
O6_2 C21_2 1_555 1_555
O7_2 Cu8 1_555 1_555
H1_2 O7_2 1_555 1_555
H9_2 C14_2 1_555 1_555
C15_2 C14_2 1_555 1_555
H10_2 C15_2 1_555 1_555
C16_2 C15_2 1_555 1_555
C17_2 C16_2 1_555 1_555
H11_2 C17_2 1_555 1_555
C21_2 C16_2 1_555 1_555
Cu10_2 O5 1_555 1_555
O9_2 Cu3 1_555 1_555
O12_2 Cu3 1_555 1_555
O14_2 Cu8 1_555 1_555
O15_2 Cu3 1_555 1_555
Cu10_2 O14_2 1_555 1_555
Cu10_2 O15_2 1_555 1_555
Cu6 O11_2 1_555 1_555
O1_2 C20_2 1_555 1_555
O2_2 C20_2 1_555 1_555
C1_2 C2_2 1_555 1_555
C2_2 H2_2 1_555 1_555
C6_2 C1_2 1_555 1_555
H4_2 C6_2 1_555 1_555
C20_2 C1_2 1_555 1_555
Cu4_2 O2_2 1_555 1_555
Cu9_2 O1_2 1_555 1_555
Cu4 O7_3 1_555 1_555
Cu9 O6_3 1_555 1_555
O7_3 Cu9 1_555 1_555
H1_3 O7_3 1_555 1_555
Cu7_2 O7_3 1_555 1_555
O10_2 Cu4 1_555 1_555
O11_3 Cu4 1_555 1_555
O13_2 Cu9 1_555 1_555
O14_3 Cu9 1_555 1_555
Cu7_2 O11_3 1_555 1_555
O13_2 C21_3 1_555 1_555
C4_3 C3_3 1_555 1_555
H3_3 C4_3 1_555 1_555
C5_3 C4_3 1_555 1_555
C6_3 C1_3 1_555 1_555
H4_3 C6_3 1_555 1_555
H7_3 C11_3 1_555 1_555
H8_3 C12_3 1_555 1_555
C13_3 C5_3 1_555 1_555
C14_3 C13_3 1_555 1_555
H9_3 C14_3 1_555 1_555
C15_3 C14_3 1_555 1_555
H10_3 C15_3 1_555 1_555
C16_3 C15_3 1_555 1_555
C17_3 C16_3 1_555 1_555
H11_3 C17_3 1_555 1_555
C18_3 C13_3 1_555 1_555
H12_3 C18_3 1_555 1_555
C21_3 C16_3 1_555 1_555
Cu10_3 O13_2 1_555 1_555
C5_3 C6_3 1_555 1_555
C11_3 C12_3 1_555 1_555
C17_3 C18_3 1_555 1_555
Cu10_3 O15_3 1_555 1_555
O9 C20_3 1_555 1_555
O3_2 C19_3 1_555 1_555
O4_3 C19_3 1_555 1_555
C2_3 H2_3 1_555 1_555
C8_3 C7_3 1_555 1_555
H5_3 C8_3 1_555 1_555
C9_3 C8_3 1_555 1_555
H6_3 C9_3 1_555 1_555
C10_3 C9_3 1_555 1_555
C19_3 C10_3 1_555 1_555
Cu4_2 O3_2 1_555 1_555
Cu6_2 O4_3 1_555 1_555
O9_2 C20_4 1_555 1_555
C2_4 H2_4 1_555 1_555
C6_4 C1_4 1_555 1_555
H4_4 C6_4 1_555 1_555
O10_2 C19_4 1_555 1_555
O4_4 C19_4 1_555 1_555
H6_4 C9_4 1_555 1_555
C10_4 C9_4 1_555 1_555
C19_4 C10_4 1_555 1_555
Cu7_2 O4_4 1_555 1_555
O5_2 C21_4 1_555 1_555
C4_4 C3_4 1_555 1_555
H3_4 C4_4 1_555 1_555
C5_4 C4_4 1_555 1_555
H8_4 C12_4 1_555 1_555
C13_4 C5_4 1_555 1_555
C14_4 C13_4 1_555 1_555
H9_5 C14_4 1_555 1_555
C15_4 C14_4 1_555 1_555
H10_4 C15_4 1_555 1_555
C16_4 C15_4 1_555 1_555
C17_4 C16_4 1_555 1_555
H11_4 C17_4 1_555 1_555
C18_4 C13_4 1_555 1_555
H12_4 C18_4 1_555 1_555
C21_4 C16_4 1_555 1_555
Cu9_2 O5_2 1_555 1_555
Cu10_4 O5_2 1_555 1_555
C11_4 C12_4 1_555 1_555
C17_4 C18_4 1_555 1_555
Cu10_4 O15_4 1_555 1_555
Cu4_2 O7_4 1_555 1_555
Cu9_2 O6_4 1_555 1_555
O7_4 Cu9_2 1_555 1_555
H1_4 O7_4 1_555 1_555
Cu6_2 O7_4 1_555 1_555
O11_4 Cu4_2 1_555 1_555
O14_4 Cu9_2 1_555 1_555
Cu6_2 O11_4 1_555 1_555
O11_3 C19_5 1_555 1_555
O12_3 C19_5 1_555 1_555
H6_5 C9_5 1_555 1_555
C10_5 C9_5 1_555 1_555
C19_5 C10_5 1_555 1_555
O1_3 C20_5 1_555 1_555
O2_3 C20_5 1_555 1_555
C1_5 C2_5 1_555 1_555
C2_5 H2_5 1_555 1_555
C3_5 C2_5 1_555 1_555
C4_5 C3_5 1_555 1_555
H3_5 C4_5 1_555 1_555
C5_5 C4_5 1_555 1_555
C6_5 C1_5 1_555 1_555
H4_5 C6_5 1_555 1_555
C7_4 C3_5 1_555 1_555
C8_4 C7_4 1_555 1_555
H5_4 C8_4 1_555 1_555
C12_5 C7_4 1_555 1_555
H8_5 C12_5 1_555 1_555
C13_5 C5_5 1_555 1_555
C18_5 C13_5 1_555 1_555
H12_5 C18_5 1_555 1_555
C20_5 C1_5 1_555 1_555
Cu6 O2_3 1_555 1_555
Cu10_2 O1_3 1_555 1_555
C5_5 C6_5 1_555 1_555
C11_5 C12_5 1_555 1_555
Cu6_2 O15_4 1_555 1_555
Cu10_4 O6_5 1_555 1_555
O14_4 C21_5 1_555 1_555
O6_5 C21_5 1_555 1_555
H1_5 O15_4 1_555 1_555
H9_6 C14_5 1_555 1_555
C15_5 C14_5 1_555 1_555
H10_5 C15_5 1_555 1_555
C16_5 C15_5 1_555 1_555
C17_5 C16_5 1_555 1_555
H11_5 C17_5 1_555 1_555
C21_5 C16_5 1_555 1_555
O9_3 Cu6_2 1_555 1_555
O1_4 C20_6 1_555 1_555
O2_4 C20_6 1_555 1_555
C1_6 C2_6 1_555 1_555
C2_6 H2_6 1_555 1_555
C6_6 C1_6 1_555 1_555
H4_6 C6_6 1_555 1_555
C20_6 C1_6 1_555 1_555
Cu7 O2_4 1_555 1_555
Cu10 O1_4 1_555 1_555
Cu7_2 O15_3 1_555 1_555
Cu10_3 O6_6 1_555 1_555
O14_3 C21_6 1_555 1_555
O6_6 C21_6 1_555 1_555
H1_6 O15_3 1_555 1_555
H9_7 C14_6 1_555 1_555
C15_6 C14_6 1_555 1_555
H10_6 C15_6 1_555 1_555
C16_6 C15_6 1_555 1_555
C17_6 C16_6 1_555 1_555
H11_6 C17_6 1_555 1_555
C21_6 C16_6 1_555 1_555
O9_4 Cu7_2 1_555 1_555
O11_4 C19_6 1_555 1_555
O12_4 C19_6 1_555 1_555
C4_6 C3_6 1_555 1_555
H3_6 C4_6 1_555 1_555
C5_6 C4_6 1_555 1_555
C7_5 C3_6 1_555 1_555
C8_5 C7_5 1_555 1_555
H5_5 C8_5 1_555 1_555
C9_6 C8_5 1_555 1_555
H6_6 C9_6 1_555 1_555
C10_6 C9_6 1_555 1_555
C11_6 C10_6 1_555 1_555
H7_6 C11_6 1_555 1_555
C12_6 C7_5 1_555 1_555
H8_6 C12_6 1_555 1_555
C13_6 C5_6 1_555 1_555
C18_6 C13_6 1_555 1_555
H12_6 C18_6 1_555 1_555
C19_6 C10_6 1_555 1_555
C11_6 C12_6 1_555 1_555
O9_3 C20_7 1_555 1_555
O11 C19_7 1_555 1_555
O12 C19_7 1_555 1_555
C2_7 H2_7 1_555 1_555
C8_6 C7_6 1_555 1_555
H5_6 C8_6 1_555 1_555
C9_7 C8_6 1_555 1_555
H6_7 C9_7 1_555 1_555
C10_7 C9_7 1_555 1_555
C19_7 C10_7 1_555 1_555
O14_2 C21_7 1_555 1_555
C4_7 C3_7 1_555 1_555
H3_7 C4_7 1_555 1_555
C5_7 C4_7 1_555 1_555
C6_7 C1_7 1_555 1_555
H4_7 C6_7 1_555 1_555
H7_7 C11_7 1_555 1_555
H8_7 C12_7 1_555 1_555
C13_7 C5_7 1_555 1_555
C14_7 C13_7 1_555 1_555
H9_8 C14_7 1_555 1_555
C15_7 C14_7 1_555 1_555
H10_7 C15_7 1_555 1_555
C16_7 C15_7 1_555 1_555
C17_7 C16_7 1_555 1_555
H11_7 C17_7 1_555 1_555
C18_7 C13_7 1_555 1_555
H12_7 C18_7 1_555 1_555
C21_7 C16_7 1_555 1_555
C5_7 C6_7 1_555 1_555
C11_7 C12_7 1_555 1_555
C17_7 C18_7 1_555 1_555
Cu6 O15_2 1_555 1_555
Cu10_2 O6_7 1_555 1_555
H1_7 O15_2 1_555 1_555
Cu7 O15 1_555 1_555
Cu10 O6_8 1_555 1_555
H1_8 O15 1_555 1_555
O14 C21_8 1_555 1_555
C4_8 C3_8 1_555 1_555
H3_8 C4_8 1_555 1_555
C5_8 C4_8 1_555 1_555
H8_8 C12_8 1_555 1_555
C13_8 C5_8 1_555 1_555
C14_8 C13_8 1_555 1_555
H9_9 C14_8 1_555 1_555
C15_8 C14_8 1_555 1_555
H10_8 C15_8 1_555 1_555
C16_8 C15_8 1_555 1_555
C17_8 C16_8 1_555 1_555
H11_8 C17_8 1_555 1_555
C18_8 C13_8 1_555 1_555
H12_8 C18_8 1_555 1_555
C21_8 C16_8 1_555 1_555
C11_8 C12_8 1_555 1_555
C17_8 C18_8 1_555 1_555
O11_2 C19_8 1_555 1_555
O12_2 C19_8 1_555 1_555
H6_8 C9_8 1_555 1_555
C10_8 C9_8 1_555 1_555
C19_8 C10_8 1_555 1_555
C6_8 C1_8 1_555 1_555
H4_8 C6_8 1_555 1_555
O9_4 C20_8 1_555 1_555
C2_8 H2_8 1_555 1_555
C8_7 C7_7 1_555 1_555
H5_7 C8_7 1_555 1_555
C8_8 C7_8 1_555 1_555
H5_8 C8_8 1_555 1_555

#END
