
###############################################################################
#
# This file contains modified crystal structure data generated from the
# MOF subset of the Cambridge Structural Database (CSD) v543 
# hosted by the Cambridge Crystallographic Data Centre (CCDC).
#
# This work is licensed under the Creative Commons
# Attribution-NonCommercial-ShareAlike 4.0 International License.
# To view a copy of this license, visit
# http://creativecommons.org/licenses/by-nc-sa/4.0/
# or send a letter to
# Creative Commons, PO Box 1866, Mountain View, CA 94042, USA.
#
# CIF created using the CSD Python API on 29 September 2022
# The structure has been converted into the P1 space group
# The structure has a 3D framework
# The original CSD entry DEKFOQ is in the monoclinic crystal system
# The framework has been calculated to contain at least 10.0% void space
# The void calculation uses a probe of radius 1.32A, grid spacing 0.4
#
###############################################################################

data_DEKFOQ
_chemical_formula_moiety         '(C48 H28 Cu2 N8 O16)n'
_symmetry_cell_setting           triclinic
_symmetry_space_group_name_H-M   'P 1'
_symmetry_Int_Tables_number      1
_space_group_name_Hall           'P 1'
loop_
_symmetry_equiv_pos_site_id
_symmetry_equiv_pos_as_xyz
1 x,y,z
_cell_length_a                   9.57(2)
_cell_length_b                   13.72(2)
_cell_length_c                   11.03(2)
_cell_angle_alpha                90
_cell_angle_beta                 110.28(8)
_cell_angle_gamma                90
_cell_volume                     1358.47
loop_
_atom_site_label
_atom_site_type_symbol
_atom_site_fract_x
_atom_site_fract_y
_atom_site_fract_z
H1 H 0.0485 0.2661 0.2489
H2 H 0.0433 0.0988 0.2444
O5 O 0.0152(3) 0.7227(2) 0.1331(3)
N5 N 0.1490(4) 0.5543(2) 0.2599(3)
C8 C 0.1629(5) 0.4839(4) 0.3480(5)
C9 C 0.2979(6) 0.4606(4) 0.4420(5)
C10 C 0.4263(4) 0.5118(3) 0.4499(4)
C11 C 0.4102(5) 0.5853(3) 0.3605(4)
C12 C 0.2716(5) 0.6038(3) 0.2689(4)
H4 H 0.0667 0.4412 0.3389
H5 H 0.2974 0.4027 0.4995
H6 H 0.4939 0.6264 0.3612
H7 H 0.2520 0.6580 0.2023
N4 N 0.8510(4) 0.4457(2) 0.7401(3)
C20 C 0.8371(5) 0.5161(4) 0.6520(5)
C21 C 0.7021(6) 0.5394(4) 0.5580(5)
C22 C 0.5737(4) 0.4882(3) 0.5501(4)
C23 C 0.5898(5) 0.4147(3) 0.6395(4)
C24 C 0.7284(5) 0.3962(3) 0.7311(4)
H11 H 0.9333 0.5588 0.6611
H12 H 0.7026 0.5973 0.5005
H13 H 0.5061 0.3736 0.6388
H14 H 0.7480 0.3420 0.7977
O5_2 O 0.9848(3) 0.2773(2) 0.8669(3)
H1_2 H 0.9515 0.7339 0.7511
H2_2 H 0.9567 0.9012 0.7556
Cu4 Cu 0.03754(6) 0.41442(4) 0.88924(5)
O11 O 0.0879(3) 0.5534(2) 0.9347(3)
Cu1 Cu 0.53754(6) 0.08558(4) 0.88924(5)
O1 O 0.4848(3) 0.2227(2) 0.8669(3)
O2 O 0.5656(3) 0.3714(2) 0.9347(3)
N2 N 0.3510(4) 0.0543(2) 0.7401(3)
C1 C 0.5811(4) 0.2828(3) 0.9375(4)
C10_2 C 0.0737(4) 0.0118(3) 0.5501(4)
C11_2 C 0.0898(5) 0.0853(3) 0.6395(4)
C12_2 C 0.2284(5) 0.1038(3) 0.7311(4)
H6_2 H 0.0061 0.1264 0.6388
H7_2 H 0.2480 0.1580 0.7977
C8_2 C 0.3371(5) 0.9839(4) 0.6520(5)
C9_2 C 0.2021(6) 0.9606(4) 0.5580(5)
H4_2 H 0.4333 0.9412 0.6611
H5_2 H 0.2026 0.9027 0.5005
O7 O 0.6993(3) 0.9319(2) 0.7879(3)
O8 O 0.5879(3) 0.9466(2) 0.9347(3)
N3 N 0.7778(4) 0.6384(2) 0.9779(3)
C14 C 0.7789(4) 0.7363(3) 0.9715(4)
C15 C 0.6590(4) 0.7880(3) 0.8878(4)
C16 C 0.5362(5) 0.7337(3) 0.8090(4)
C17 C 0.5395(5) 0.6344(3) 0.8161(4)
C18 C 0.6619(5) 0.5876(3) 0.9028(4)
C19 C 0.6534(5) 0.8979(3) 0.8712(4)
H8 H 0.4515 0.7661 0.7511
H9 H 0.4567 0.5988 0.7556
H10 H 0.6677 0.5149 0.9140
O6 O 0.0656(3) 0.1286(2) 0.9347(3)
C13 C 0.0811(4) 0.2172(3) 0.9375(4)
O3 O 0.1993(3) 0.5681(2) 0.7879(3)
N1 N 0.2778(4) 0.8616(2) 0.9779(3)
C2 C 0.2789(4) 0.7637(3) 0.9715(4)
C3 C 0.1590(4) 0.7120(3) 0.8878(4)
C4 C 0.0362(5) 0.7663(3) 0.8090(4)
C5 C 0.0395(5) 0.8656(3) 0.8161(4)
C6 C 0.1619(5) 0.9124(3) 0.9028(4)
C7 C 0.1534(5) 0.6021(3) 0.8712(4)
H3 H 0.1677 0.9851 0.9140
O3_2 O 0.8007(3) 0.4319(2) 0.2121(3)
O4 O 0.9121(3) 0.4466(2) 0.0653(3)
N1_2 N 0.7222(4) 0.1384(2) 0.0221(3)
C2_2 C 0.7211(4) 0.2363(3) 0.0285(4)
C3_2 C 0.8410(4) 0.2880(3) 0.1122(4)
C4_2 C 0.9638(5) 0.2337(3) 0.1910(4)
C5_2 C 0.9605(5) 0.1344(3) 0.1839(4)
C6_2 C 0.8381(5) 0.0876(3) 0.0972(4)
C7_2 C 0.8466(5) 0.3979(3) 0.1288(4)
H3_2 H 0.8323 0.0149 0.0860
Cu3 Cu 0.96246(6) 0.58558(4) 0.11076(5)
O9 O 0.4121(3) 0.0534(2) 0.0653(3)
Cu6 Cu 0.46246(6) 0.91442(4) 0.11076(5)
O6_2 O 0.9344(3) 0.8714(2) 0.0653(3)
C13_2 C 0.9189(4) 0.7828(3) 0.0625(4)
C20_2 C 0.6629(5) 0.0161(4) 0.3480(5)
C21_2 C 0.7979(6) 0.0394(4) 0.4420(5)
H11_2 H 0.5667 0.0588 0.3389
H12_2 H 0.7974 0.0973 0.4995
N4_2 N 0.6490(4) 0.9457(2) 0.2599(3)
C22_2 C 0.9263(4) 0.9882(3) 0.4499(4)
C23_2 C 0.9102(5) 0.9147(3) 0.3605(4)
C24_2 C 0.7716(5) 0.8962(3) 0.2689(4)
H13_2 H 0.9939 0.8736 0.3612
H14_2 H 0.7520 0.8420 0.2023
O7_2 O 0.3007(3) 0.0681(2) 0.2121(3)
N3_2 N 0.2222(4) 0.3616(2) 0.0221(3)
C14_2 C 0.2211(4) 0.2637(3) 0.0285(4)
C15_2 C 0.3410(4) 0.2120(3) 0.1122(4)
C16_2 C 0.4638(5) 0.2663(3) 0.1910(4)
C17_2 C 0.4605(5) 0.3656(3) 0.1839(4)
C18_2 C 0.3381(5) 0.4124(3) 0.0972(4)
C19_2 C 0.3466(5) 0.1021(3) 0.1288(4)
H8_2 H 0.5485 0.2339 0.2489
H9_2 H 0.5433 0.4012 0.2444
H10_2 H 0.3323 0.4851 0.0860
O1_2 O 0.5152(3) 0.7773(2) 0.1331(3)
O2_2 O 0.4344(3) 0.6286(2) 0.0653(3)
C1_2 C 0.4189(4) 0.7172(3) 0.0625(4)
loop_
_geom_bond_atom_site_label_1
_geom_bond_atom_site_label_2
_geom_bond_site_symmetry_1
_geom_bond_site_symmetry_2
C8 N5 1_555 1_555
C9 C8 1_555 1_555
C10 C9 1_555 1_555
C11 C10 1_555 1_555
C12 N5 1_555 1_555
H4 C8 1_555 1_555
H5 C9 1_555 1_555
H6 C11 1_555 1_555
H7 C12 1_555 1_555
N4 C20 1_555 1_555
C20 C21 1_555 1_555
C21 C22 1_555 1_555
C22 C10 1_555 1_555
C23 C22 1_555 1_555
C24 N4 1_555 1_555
H11 C20 1_555 1_555
H12 C21 1_555 1_555
H13 C23 1_555 1_555
H14 C24 1_555 1_555
C11 C12 1_555 1_555
C23 C24 1_555 1_555
Cu1 O1 1_555 1_555
O1 C1 1_555 1_555
O2 C1 1_555 1_555
N2 Cu1 1_555 1_555
C11_2 C10_2 1_555 1_555
C12_2 N2 1_555 1_555
H6_2 C11_2 1_555 1_555
H7_2 C12_2 1_555 1_555
C11_2 C12_2 1_555 1_555
C9_2 C8_2 1_555 1_555
H4_2 C8_2 1_555 1_555
H5_2 C9_2 1_555 1_555
O7 C19 1_555 1_555
C14 N3 1_555 1_555
C15 C14 1_555 1_555
C16 C15 1_555 1_555
C17 C16 1_555 1_555
C18 N3 1_555 1_555
C19 O8 1_555 1_555
H8 C16 1_555 1_555
H9 C17 1_555 1_555
H10 C18 1_555 1_555
C15 C19 1_555 1_555
C17 C18 1_555 1_555
Cu4 O11 1_555 1_555
O6 C13 1_555 1_555
O3 C7 1_555 1_555
O11 C7 1_555 1_555
C2 N1 1_555 1_555
C3 C2 1_555 1_555
C4 C3 1_555 1_555
C5 C4 1_555 1_555
C6 N1 1_555 1_555
C7 C3 1_555 1_555
H3 C6 1_555 1_555
C5 C6 1_555 1_555
O3_2 C7_2 1_555 1_555
O4 C7_2 1_555 1_555
C2_2 N1_2 1_555 1_555
C3_2 C2_2 1_555 1_555
C4_2 C3_2 1_555 1_555
C5_2 C4_2 1_555 1_555
C6_2 N1_2 1_555 1_555
C7_2 C3_2 1_555 1_555
H3_2 C6_2 1_555 1_555
Cu3 O4 1_555 1_555
C5_2 C6_2 1_555 1_555
O6_2 C13_2 1_555 1_555
C20_2 C21_2 1_555 1_555
H11_2 C20_2 1_555 1_555
H12_2 C21_2 1_555 1_555
Cu6 N4_2 1_555 1_555
C23_2 C22_2 1_555 1_555
C24_2 N4_2 1_555 1_555
H13_2 C23_2 1_555 1_555
H14_2 C24_2 1_555 1_555
C23_2 C24_2 1_555 1_555
O7_2 C19_2 1_555 1_555
C14_2 N3_2 1_555 1_555
C15_2 C14_2 1_555 1_555
C16_2 C15_2 1_555 1_555
C17_2 C16_2 1_555 1_555
C18_2 N3_2 1_555 1_555
C19_2 O9 1_555 1_555
H8_2 C16_2 1_555 1_555
H9_2 C17_2 1_555 1_555
H10_2 C18_2 1_555 1_555
C15_2 C19_2 1_555 1_555
C17_2 C18_2 1_555 1_555
Cu6 O1_2 1_555 1_555
O1_2 C1_2 1_555 1_555
O2_2 C1_2 1_555 1_555

#END
