
###############################################################################
#
# This file contains modified crystal structure data generated from the
# MOF subset of the Cambridge Structural Database (CSD) v543 
# hosted by the Cambridge Crystallographic Data Centre (CCDC).
#
# This work is licensed under the Creative Commons
# Attribution-NonCommercial-ShareAlike 4.0 International License.
# To view a copy of this license, visit
# http://creativecommons.org/licenses/by-nc-sa/4.0/
# or send a letter to
# Creative Commons, PO Box 1866, Mountain View, CA 94042, USA.
#
# CIF created using the CSD Python API on 29 September 2022
# The structure has been converted into the P1 space group
# The structure has a 3D framework
# The original CSD entry DEKGOS is in the tetragonal crystal system
# The framework has been calculated to contain at least 10.0% void space
# The void calculation uses a probe of radius 1.32A, grid spacing 0.4
#
###############################################################################

data_DEKGOS
_chemical_formula_moiety         '(C128 H224 Cu24 I8 N48)n'
_symmetry_cell_setting           triclinic
_symmetry_space_group_name_H-M   'P 1'
_symmetry_Int_Tables_number      1
_space_group_name_Hall           'P 1'
loop_
_symmetry_equiv_pos_site_id
_symmetry_equiv_pos_as_xyz
1 x,y,z
_cell_length_a                   16.253(2)
_cell_length_b                   16.253(2)
_cell_length_c                   19.078(4)
_cell_angle_alpha                90
_cell_angle_beta                 90
_cell_angle_gamma                90
_cell_volume                     5039.64
loop_
_atom_site_label
_atom_site_type_symbol
_atom_site_fract_x
_atom_site_fract_y
_atom_site_fract_z
Cu2 Cu 0.13920(4) 0.44731(4) 0.13283(4)
I1 I 0.13006(2) 0.29281(2) 0.048251(18)
Cu3 Cu 0.01598(4) 0.17337(4) 0.07544(4)
Cu5 Cu 0.07663(4) 0.26598(4) 0.17456(4)
N4 N 0.1754(3) 0.3993(3) 0.2123(3)
N5 N 0.1248(3) 0.5167(3) 0.0597(2)
Cu1 Cu 0.98402(4) 0.32663(4) 0.07544(4)
N1 N 0.8507(3) 0.4254(3) 0.0377(3)
N2 N 0.9257(3) 0.4028(3) 0.0172(2)
H2 H 0.7174 0.4959 0.0397
Cu4 Cu 0.92337(4) 0.23402(4) 0.17456(4)
Cu7 Cu 0.80269(4) 0.38920(4) 0.11717(4)
I2 I 0.86994(2) 0.20719(2) 0.048251(18)
I3 I 0.95719(2) 0.38006(2) 0.201749(18)
N3 N 0.8752(3) 0.4833(3) 0.9403(2)
C1 C 0.8224(4) 0.4728(4) 0.9908(3)
C2 C 0.7416(4) 0.5077(5) 0.9932(4)
H1 H 0.7465 0.5682 0.9888
C3 C 0.6859(7) 0.4787(8) 0.9402(6)
H3 H 0.6311 0.5034 0.9484
H4 H 0.7055 0.4979 0.8938
C4 C 0.6778(9) 0.3933(9) 0.9384(8)
H5 H 0.7315 0.3678 0.9473
H6 H 0.6577 0.3763 0.8922
H7 H 0.6387 0.3758 0.9745
C5 C 0.9381(3) 0.4381(3) 0.9588(3)
C7 C 0.9929(6) 0.3651(5) 0.8619(5)
H10 H 0.9476 0.3850 0.8316
H11 H 0.9749 0.3129 0.8839
Cu6 Cu 0.86080(4) 0.55269(4) 0.86717(4)
Cu1_2 Cu 0.51598(4) 0.67337(4) 0.57544(4)
Cu2_2 Cu 0.36080(4) 0.55269(4) 0.63283(4)
I1_2 I 0.36994(2) 0.70719(2) 0.548251(18)
N1_2 N 0.6493(3) 0.5746(3) 0.5377(3)
N2_2 N 0.5743(3) 0.5972(3) 0.5172(2)
N3_2 N 0.6248(3) 0.5167(3) 0.4403(2)
C1_2 C 0.6776(4) 0.5272(4) 0.4908(3)
C2_2 C 0.7584(4) 0.4923(5) 0.4932(4)
H1_2 H 0.7535 0.4318 0.4888
H2_2 H 0.7826 0.5041 0.5397
C3_2 C 0.8141(7) 0.5213(8) 0.4402(6)
H3_2 H 0.8689 0.4966 0.4484
H4_2 H 0.7945 0.5021 0.3938
C4_2 C 0.8222(9) 0.6067(9) 0.4384(8)
H5_2 H 0.7685 0.6322 0.4473
H6_2 H 0.8423 0.6237 0.3922
H7_2 H 0.8613 0.6242 0.4745
C5_2 C 0.5619(3) 0.5619(3) 0.4588(3)
C6 C 0.4913(4) 0.5748(3) 0.4162(3)
H8 H 0.4451 0.5939 0.4458
H9 H 0.4749 0.5220 0.3943
C7_2 C 0.5071(6) 0.6349(5) 0.3619(5)
H10_2 H 0.5524 0.6150 0.3316
H11_2 H 0.5251 0.6871 0.3839
C8 C 0.4339(6) 0.6504(6) 0.3187(6)
H12 H 0.4141 0.5983 0.2990
H13 H 0.4481 0.6881 0.2805
H14 H 0.3906 0.6750 0.3477
Cu3_2 Cu 0.48402(4) 0.82663(4) 0.57544(4)
Cu4_2 Cu 0.57663(4) 0.76598(4) 0.67456(4)
Cu5_2 Cu 0.42337(4) 0.73402(4) 0.67456(4)
Cu6_2 Cu 0.63920(4) 0.44731(4) 0.36717(4)
Cu7_2 Cu 0.69731(4) 0.61080(4) 0.61717(4)
I2_2 I 0.63006(2) 0.79281(2) 0.548251(18)
I3_2 I 0.54281(2) 0.61994(2) 0.701749(18)
N4_2 N 0.3246(3) 0.6007(3) 0.7123(3)
N5_2 N 0.3752(3) 0.4833(3) 0.5597(2)
Cu1_3 Cu 0.42337(4) 0.23402(4) 0.32544(4)
Cu2_3 Cu 0.30269(4) 0.38920(4) 0.38283(4)
I1_3 I 0.45719(2) 0.38006(2) 0.298251(18)
N1_3 N 0.3246(3) 0.1007(3) 0.2877(3)
N2_3 N 0.3472(3) 0.1757(3) 0.2672(2)
N3_3 N 0.2667(3) 0.1252(3) 0.1903(2)
C1_3 C 0.2772(4) 0.0724(4) 0.2408(3)
C5_3 C 0.3119(3) 0.1881(3) 0.2088(3)
C6_2 C 0.3248(3) 0.2587(4) 0.1662(3)
H8_2 H 0.3439 0.3049 0.1958
H9_2 H 0.2720 0.2751 0.1443
C7_3 C 0.3849(5) 0.2429(6) 0.1119(5)
H10_3 H 0.3650 0.1976 0.0816
H11_3 H 0.4371 0.2249 0.1339
C8_2 C 0.4004(6) 0.3161(6) 0.0687(6)
H12_2 H 0.3483 0.3359 0.0490
H13_2 H 0.4381 0.3019 0.0305
H14_2 H 0.4250 0.3594 0.0977
Cu3_3 Cu 0.57663(4) 0.26598(4) 0.32544(4)
Cu4_3 Cu 0.51598(4) 0.17337(4) 0.42456(4)
Cu5_3 Cu 0.48402(4) 0.32663(4) 0.42456(4)
Cu6_3 Cu 0.19731(4) 0.11080(4) 0.11717(4)
Cu7_3 Cu 0.36080(4) 0.05269(4) 0.36717(4)
I2_3 I 0.54281(2) 0.11994(2) 0.298251(18)
I3_3 I 0.36994(2) 0.20719(2) 0.451749(18)
N4_3 N 0.3507(3) 0.4254(3) 0.4623(3)
N5_3 N 0.2333(3) 0.3748(3) 0.3097(2)
Cu1_4 Cu 0.07663(4) 0.76598(4) 0.82544(4)
Cu2_4 Cu 0.19731(4) 0.61080(4) 0.88283(4)
I1_4 I 0.04281(2) 0.61994(2) 0.798251(18)
N1_4 N 0.1754(3) 0.8993(3) 0.7877(3)
N2_4 N 0.1528(3) 0.8243(3) 0.7672(2)
N3_4 N 0.2333(3) 0.8748(3) 0.6903(2)
C1_4 C 0.2228(4) 0.9276(4) 0.7408(3)
C5_4 C 0.1881(3) 0.8119(3) 0.7088(3)
C6_3 C 0.1752(3) 0.7413(4) 0.6662(3)
H8_3 H 0.1561 0.6951 0.6958
H9_3 H 0.2280 0.7249 0.6443
C7_4 C 0.1151(5) 0.7571(6) 0.6119(5)
H10_4 H 0.1350 0.8024 0.5816
H11_4 H 0.0629 0.7751 0.6339
C8_3 C 0.0996(6) 0.6839(6) 0.5687(6)
H12_3 H 0.1517 0.6641 0.5490
H13_3 H 0.0619 0.6981 0.5305
H14_3 H 0.0750 0.6406 0.5977
Cu5_4 Cu 0.01598(4) 0.67337(4) 0.92456(4)
Cu6_4 Cu 0.30269(4) 0.88920(4) 0.61717(4)
Cu7_4 Cu 0.13920(4) 0.94731(4) 0.86717(4)
I3_4 I 0.13006(2) 0.79281(2) 0.951749(18)
N4_4 N 0.1493(3) 0.5746(3) 0.9623(3)
N5_4 N 0.2667(3) 0.6252(3) 0.8097(2)
Cu3_4 Cu 0.92337(4) 0.73402(4) 0.82544(4)
Cu4_4 Cu 0.98402(4) 0.82663(4) 0.92456(4)
I2_4 I 0.95719(2) 0.88006(2) 0.798251(18)
C2_3 C 0.2416(4) 0.0077(5) 0.4932(4)
H1_3 H 0.2465 0.0682 0.4888
H3_3 H 0.1311 0.0034 0.4484
N5_5 N 0.6248(3) 0.0167(3) 0.5597(2)
Cu2_5 Cu 0.63920(4) 0.94731(4) 0.63283(4)
N1_5 N 0.3507(3) 0.9254(3) 0.5377(3)
N2_5 N 0.4257(3) 0.9028(3) 0.5172(2)
N3_5 N 0.3752(3) 0.9833(3) 0.4403(2)
C1_5 C 0.3224(4) 0.9728(4) 0.4908(3)
H2_3 H 0.2174 0.9959 0.5397
C3_3 C 0.1859(7) 0.9787(8) 0.4402(6)
H4_3 H 0.2055 0.9979 0.3938
C4_3 C 0.1778(9) 0.8933(9) 0.4384(8)
H5_3 H 0.2315 0.8678 0.4473
H6_3 H 0.1577 0.8763 0.3922
H7_3 H 0.1387 0.8758 0.4745
C5_5 C 0.4381(3) 0.9381(3) 0.4588(3)
C6_4 C 0.5087(4) 0.9252(3) 0.4162(3)
H8_4 H 0.5549 0.9061 0.4458
H9_4 H 0.5251 0.9780 0.3943
C7_5 C 0.4929(6) 0.8651(5) 0.3619(5)
H10_5 H 0.4476 0.8850 0.3316
H11_5 H 0.4749 0.8129 0.3839
C8_4 C 0.5661(6) 0.8496(6) 0.3187(6)
H12_4 H 0.5859 0.9017 0.2990
H13_4 H 0.5519 0.8119 0.2805
H14_4 H 0.6094 0.8250 0.3477
I3_5 I 0.45719(2) 0.88006(2) 0.701749(18)
N4_5 N 0.6754(3) 0.8993(3) 0.7123(3)
N1_6 N 0.1493(3) 0.0746(3) 0.0377(3)
N2_6 N 0.0743(3) 0.0972(3) 0.0172(2)
H2_4 H 0.2826 0.0041 0.0397
I3_6 I 0.04281(2) 0.11994(2) 0.201749(18)
C2_4 C 0.2584(4) 0.9923(5) 0.9932(4)
H1_4 H 0.2535 0.9318 0.9888
H3_4 H 0.3689 0.9966 0.9484
Cu2_6 Cu 0.86080(4) 0.05269(4) 0.13283(4)
N4_6 N 0.8246(3) 0.1007(3) 0.2123(3)
Cu2_7 Cu 0.80269(4) 0.88920(4) 0.88283(4)
N1_7 N 0.8246(3) 0.6007(3) 0.7877(3)
N2_7 N 0.8472(3) 0.6757(3) 0.7672(2)
N3_6 N 0.7667(3) 0.6252(3) 0.6903(2)
C1_6 C 0.7772(4) 0.5724(4) 0.7408(3)
C2_5 C 0.7423(5) 0.4916(4) 0.7432(4)
H1_5 H 0.6818 0.4965 0.7388
H2_5 H 0.7541 0.4674 0.7897
C3_4 C 0.7713(8) 0.4359(7) 0.6902(6)
H3_5 H 0.7466 0.3811 0.6984
H4_4 H 0.7521 0.4555 0.6438
C4_4 C 0.8567(9) 0.4278(9) 0.6884(8)
H5_4 H 0.8822 0.4815 0.6973
H6_4 H 0.8737 0.4077 0.6422
H7_4 H 0.8742 0.3887 0.7245
C5_6 C 0.8119(3) 0.6881(3) 0.7088(3)
C6_5 C 0.8248(3) 0.7587(4) 0.6662(3)
H8_5 H 0.8439 0.8049 0.6958
H9_5 H 0.7720 0.7751 0.6443
C7_6 C 0.8849(5) 0.7429(6) 0.6119(5)
H10_6 H 0.8650 0.6976 0.5816
H11_6 H 0.9371 0.7249 0.6339
C8_5 C 0.9004(6) 0.8161(6) 0.5687(6)
H12_5 H 0.8483 0.8359 0.5490
H13_5 H 0.9381 0.8019 0.5305
H14_5 H 0.9250 0.8594 0.5977
I3_7 I 0.86994(2) 0.70719(2) 0.951749(18)
N4_7 N 0.8507(3) 0.9254(3) 0.9623(3)
N5_6 N 0.7333(3) 0.8748(3) 0.8097(2)
Cu2_8 Cu 0.69731(4) 0.11080(4) 0.38283(4)
N1_8 N 0.6754(3) 0.3993(3) 0.2877(3)
N2_8 N 0.6528(3) 0.3243(3) 0.2672(2)
N3_7 N 0.7333(3) 0.3748(3) 0.1903(2)
C1_7 C 0.7228(4) 0.4276(4) 0.2408(3)
C2_6 C 0.7577(5) 0.5084(4) 0.2432(4)
H1_6 H 0.8182 0.5035 0.2388
H2_6 H 0.7459 0.5326 0.2897
C3_5 C 0.7287(8) 0.5641(7) 0.1902(6)
H3_6 H 0.7534 0.6189 0.1984
H4_5 H 0.7479 0.5445 0.1438
C4_5 C 0.6433(9) 0.5722(9) 0.1884(8)
H5_5 H 0.6178 0.5185 0.1973
H6_5 H 0.6263 0.5923 0.1422
H7_5 H 0.6258 0.6113 0.2245
C5_7 C 0.6881(3) 0.3119(3) 0.2088(3)
C6_6 C 0.6752(3) 0.2413(4) 0.1662(3)
H8_6 H 0.6561 0.1951 0.1958
H9_6 H 0.7280 0.2249 0.1443
C7_7 C 0.6151(5) 0.2571(6) 0.1119(5)
H10_7 H 0.6350 0.3024 0.0816
H11_7 H 0.5629 0.2751 0.1339
C8_6 C 0.5996(6) 0.1839(6) 0.0687(6)
H12_6 H 0.6517 0.1641 0.0490
H13_6 H 0.5619 0.1981 0.0305
H14_6 H 0.5750 0.1406 0.0977
I3_8 I 0.63006(2) 0.29281(2) 0.451749(18)
N4_8 N 0.6493(3) 0.0746(3) 0.4623(3)
N5_7 N 0.7667(3) 0.1252(3) 0.3097(2)
C1_8 C 0.1776(4) 0.5272(4) 0.0092(3)
C2_7 C 0.2584(4) 0.4923(5) 0.0068(4)
H1_7 H 0.2535 0.4318 0.0112
C3_6 C 0.3141(7) 0.5213(8) 0.0598(6)
H3_7 H 0.3689 0.4966 0.0516
H4_6 H 0.2945 0.5021 0.1062
C4_6 C 0.3222(9) 0.6067(9) 0.0616(8)
H5_6 H 0.2685 0.6322 0.0527
H6_6 H 0.3423 0.6237 0.1078
H7_6 H 0.3613 0.6242 0.0255
C5_8 C 0.0619(3) 0.5619(3) 0.0412(3)
C7_8 C 0.0071(6) 0.6349(5) 0.1381(5)
H10_8 H 0.0524 0.6150 0.1684
H11_8 H 0.0251 0.6871 0.1161
N2_9 N 0.0743(3) 0.5972(3) 0.9828(2)
H2_7 H 0.2826 0.5041 0.9603
N2_10 N 0.4257(3) 0.4028(3) 0.4828(2)
C1_9 C 0.3224(4) 0.4728(4) 0.5092(3)
C2_8 C 0.2416(4) 0.5077(5) 0.5068(4)
H1_8 H 0.2465 0.5682 0.5112
H2_8 H 0.2174 0.4959 0.4603
C3_7 C 0.1859(7) 0.4787(8) 0.5598(6)
H3_8 H 0.1311 0.5034 0.5516
H4_7 H 0.2055 0.4979 0.6062
C4_7 C 0.1778(9) 0.3933(9) 0.5616(8)
H5_7 H 0.2315 0.3678 0.5527
H6_7 H 0.1577 0.3763 0.6078
H7_7 H 0.1387 0.3758 0.5255
C5_9 C 0.4381(3) 0.4381(3) 0.5412(3)
C6_7 C 0.5087(4) 0.4252(3) 0.5838(3)
H8_7 H 0.5549 0.4061 0.5542
H9_7 H 0.5251 0.4780 0.6057
C7_9 C 0.4929(6) 0.3651(5) 0.6381(5)
H10_9 H 0.4476 0.3850 0.6684
H11_9 H 0.4749 0.3129 0.6161
C8_7 C 0.5661(6) 0.3496(6) 0.6813(6)
H12_7 H 0.5859 0.4017 0.7010
H13_7 H 0.5519 0.3119 0.7195
H14_7 H 0.6094 0.3250 0.6523
N2_11 N 0.6528(3) 0.8243(3) 0.7328(2)
C1_10 C 0.7228(4) 0.9276(4) 0.7592(3)
C5_10 C 0.6881(3) 0.8119(3) 0.7912(3)
C6_8 C 0.6752(3) 0.7413(4) 0.8338(3)
H8_8 H 0.6561 0.6951 0.8042
H9_8 H 0.7280 0.7249 0.8557
C7_10 C 0.6151(5) 0.7571(6) 0.8881(5)
H10_10 H 0.6350 0.8024 0.9184
H11_10 H 0.5629 0.7751 0.8661
C8_8 C 0.5996(6) 0.6839(6) 0.9313(6)
H12_8 H 0.6517 0.6641 0.9510
H13_8 H 0.5619 0.6981 0.9695
H14_8 H 0.5750 0.6406 0.9023
N2_12 N 0.8472(3) 0.1757(3) 0.2328(2)
C1_11 C 0.7772(4) 0.0724(4) 0.2592(3)
C5_11 C 0.8119(3) 0.1881(3) 0.2912(3)
C6_9 C 0.8248(3) 0.2587(4) 0.3338(3)
H8_9 H 0.8439 0.3049 0.3042
H9_9 H 0.7720 0.2751 0.3557
C7_11 C 0.8849(5) 0.2429(6) 0.3881(5)
H10_11 H 0.8650 0.1976 0.4184
H11_11 H 0.9371 0.2249 0.3661
C8_9 C 0.9004(6) 0.3161(6) 0.4313(6)
H12_9 H 0.8483 0.3359 0.4510
H13_9 H 0.9381 0.3019 0.4695
H14_9 H 0.9250 0.3594 0.4023
N2_13 N 0.5743(3) 0.0972(3) 0.4828(2)
C1_12 C 0.6776(4) 0.0272(4) 0.5092(3)
H2_9 H 0.7826 0.0041 0.4603
C3_8 C 0.8141(7) 0.0213(8) 0.5598(6)
H4_8 H 0.7945 0.0021 0.6062
C4_8 C 0.8222(9) 0.1067(9) 0.5616(8)
H5_8 H 0.7685 0.1322 0.5527
H6_8 H 0.8423 0.1237 0.6078
H7_8 H 0.8613 0.1242 0.5255
C5_12 C 0.5619(3) 0.0619(3) 0.5412(3)
C6_10 C 0.4913(4) 0.0748(3) 0.5838(3)
H8_10 H 0.4451 0.0939 0.5542
H9_10 H 0.4749 0.0220 0.6057
C7_12 C 0.5071(6) 0.1349(5) 0.6381(5)
H10_12 H 0.5524 0.1150 0.6684
H11_12 H 0.5251 0.1871 0.6161
C8_10 C 0.4339(6) 0.1504(6) 0.6813(6)
H12_10 H 0.4141 0.0983 0.7010
H13_10 H 0.4481 0.1881 0.7195
H14_10 H 0.3906 0.1750 0.6523
C2_9 C 0.7584(4) 0.9923(5) 0.5068(4)
H1_9 H 0.7535 0.9318 0.5112
H3_9 H 0.8689 0.9966 0.5516
C2_10 C 0.7416(4) 0.0077(5) 0.0068(4)
H1_10 H 0.7465 0.0682 0.0112
H3_10 H 0.6311 0.0034 0.0516
N2_14 N 0.9257(3) 0.9028(3) 0.9828(2)
H2_10 H 0.7174 0.9959 0.9603
N2_15 N 0.1528(3) 0.3243(3) 0.2328(2)
C1_13 C 0.2228(4) 0.4276(4) 0.2592(3)
C2_11 C 0.2577(5) 0.5084(4) 0.2568(4)
H1_11 H 0.3182 0.5035 0.2612
H2_11 H 0.2459 0.5326 0.2103
C3_9 C 0.2287(8) 0.5641(7) 0.3098(6)
H3_11 H 0.2534 0.6189 0.3016
H4_9 H 0.2479 0.5445 0.3562
C4_9 C 0.1433(9) 0.5722(9) 0.3116(8)
H5_9 H 0.1178 0.5185 0.3027
H6_9 H 0.1263 0.5923 0.3578
H7_9 H 0.1258 0.6113 0.2755
C5_13 C 0.1881(3) 0.3119(3) 0.2912(3)
C6_11 C 0.1752(3) 0.2413(4) 0.3338(3)
H8_11 H 0.1561 0.1951 0.3042
H9_11 H 0.2280 0.2249 0.3557
C7_13 C 0.1151(5) 0.2571(6) 0.3881(5)
H10_13 H 0.1350 0.3024 0.4184
H11_13 H 0.0629 0.2751 0.3661
C8_11 C 0.0996(6) 0.1839(6) 0.4313(6)
H12_11 H 0.1517 0.1641 0.4510
H13_11 H 0.0619 0.1981 0.4695
H14_11 H 0.0750 0.1406 0.4023
N2_16 N 0.3472(3) 0.6757(3) 0.7328(2)
C1_14 C 0.2772(4) 0.5724(4) 0.7592(3)
C2_12 C 0.2423(5) 0.4916(4) 0.7568(4)
H1_12 H 0.1818 0.4965 0.7612
H2_12 H 0.2541 0.4674 0.7103
C3_10 C 0.2713(8) 0.4359(7) 0.8098(6)
H3_12 H 0.2466 0.3811 0.8016
H4_10 H 0.2521 0.4555 0.8562
C4_10 C 0.3567(9) 0.4278(9) 0.8116(8)
H5_10 H 0.3822 0.4815 0.8027
H6_10 H 0.3737 0.4077 0.8578
H7_10 H 0.3742 0.3887 0.7755
C5_14 C 0.3119(3) 0.6881(3) 0.7912(3)
C6_12 C 0.3248(3) 0.7587(4) 0.8338(3)
H8_12 H 0.3439 0.8049 0.8042
H9_12 H 0.2720 0.7751 0.8557
C7_14 C 0.3849(5) 0.7429(6) 0.8881(5)
H10_14 H 0.3650 0.6976 0.9184
H11_14 H 0.4371 0.7249 0.8661
C8_12 C 0.4004(6) 0.8161(6) 0.9313(6)
H12_12 H 0.3483 0.8359 0.9510
H13_12 H 0.4381 0.8019 0.9695
H14_12 H 0.4250 0.8594 0.9023
C6_13 C 0.0087(4) 0.4252(3) 0.9162(3)
H8_13 H 0.0549 0.4061 0.9458
H9_13 H 0.0251 0.4780 0.8943
C8_13 C 0.0661(6) 0.3496(6) 0.8187(6)
H12_13 H 0.0859 0.4017 0.7990
H13_13 H 0.0519 0.3119 0.7805
H14_13 H 0.1094 0.3250 0.8477
C2_13 C 0.2423(5) 0.9916(4) 0.2432(4)
H1_13 H 0.1818 0.9965 0.2388
H2_13 H 0.2541 0.9674 0.2897
C3_11 C 0.2713(8) 0.9359(7) 0.1902(6)
H3_13 H 0.2466 0.8811 0.1984
H4_11 H 0.2521 0.9555 0.1438
C4_11 C 0.3567(9) 0.9278(9) 0.1884(8)
H5_11 H 0.3822 0.9815 0.1973
H6_11 H 0.3737 0.9077 0.1422
H7_11 H 0.3742 0.8887 0.2245
C2_14 C 0.2577(5) 0.0084(4) 0.7432(4)
H1_14 H 0.3182 0.0035 0.7388
H2_14 H 0.2459 0.0326 0.7897
C3_12 C 0.2287(8) 0.0641(7) 0.6902(6)
H3_14 H 0.2534 0.1189 0.6984
H4_12 H 0.2479 0.0445 0.6438
C4_12 C 0.1433(9) 0.0722(9) 0.6884(8)
H5_12 H 0.1178 0.0185 0.6973
H6_12 H 0.1263 0.0923 0.6422
H7_12 H 0.1258 0.1113 0.7245
N3_8 N 0.1248(3) 0.0167(3) 0.9403(2)
C1_15 C 0.1776(4) 0.0272(4) 0.9908(3)
C3_13 C 0.3141(7) 0.0213(8) 0.9402(6)
H4_13 H 0.2945 0.0021 0.8938
C4_13 C 0.3222(9) 0.1067(9) 0.9384(8)
H5_13 H 0.2685 0.1322 0.9473
H6_13 H 0.3423 0.1237 0.8922
H7_13 H 0.3613 0.1242 0.9745
C5_15 C 0.0619(3) 0.0619(3) 0.9588(3)
C7_15 C 0.0071(6) 0.1349(5) 0.8619(5)
H10_15 H 0.0524 0.1150 0.8316
H11_15 H 0.0251 0.1871 0.8839
C6_14 C 0.9913(4) 0.0748(3) 0.9162(3)
H8_14 H 0.9451 0.0939 0.9458
H9_14 H 0.9749 0.0220 0.8943
C8_14 C 0.9339(6) 0.1504(6) 0.8187(6)
H12_14 H 0.9141 0.0983 0.7990
H13_14 H 0.9481 0.1881 0.7805
H14_14 H 0.8906 0.1750 0.8477
N5_8 N 0.8752(3) 0.9833(3) 0.0597(2)
C1_16 C 0.8224(4) 0.9728(4) 0.0092(3)
C3_14 C 0.6859(7) 0.9787(8) 0.0598(6)
H4_14 H 0.7055 0.9979 0.1062
C4_14 C 0.6778(9) 0.8933(9) 0.0616(8)
H5_14 H 0.7315 0.8678 0.0527
H6_14 H 0.6577 0.8763 0.1078
H7_14 H 0.6387 0.8758 0.0255
C5_16 C 0.9381(3) 0.9381(3) 0.0412(3)
C7_16 C 0.9929(6) 0.8651(5) 0.1381(5)
H10_16 H 0.9476 0.8850 0.1684
H11_16 H 0.9749 0.8129 0.1161
C6_15 C 0.9913(4) 0.5748(3) 0.0838(3)
H8_15 H 0.9451 0.5939 0.0542
H9_15 H 0.9749 0.5220 0.1057
C8_15 C 0.9339(6) 0.6504(6) 0.1813(6)
H12_15 H 0.9141 0.5983 0.2010
H13_15 H 0.9481 0.6881 0.2195
H14_15 H 0.8906 0.6750 0.1523
C2_15 C 0.7577(5) 0.0084(4) 0.7568(4)
H1_15 H 0.8182 0.0035 0.7612
H2_15 H 0.7459 0.0326 0.7103
C3_15 C 0.7287(8) 0.0641(7) 0.8098(6)
H3_15 H 0.7534 0.1189 0.8016
H4_15 H 0.7479 0.0445 0.8562
C4_15 C 0.6433(9) 0.0722(9) 0.8116(8)
H5_15 H 0.6178 0.0185 0.8027
H6_15 H 0.6263 0.0923 0.8578
H7_15 H 0.6258 0.1113 0.7755
C2_16 C 0.7423(5) 0.9916(4) 0.2568(4)
H1_16 H 0.6818 0.9965 0.2612
H2_16 H 0.7541 0.9674 0.2103
C3_16 C 0.7713(8) 0.9359(7) 0.3098(6)
H3_16 H 0.7466 0.8811 0.3016
H4_16 H 0.7521 0.9555 0.3562
C4_16 C 0.8567(9) 0.9278(9) 0.3116(8)
H5_16 H 0.8822 0.9815 0.3027
H6_16 H 0.8737 0.9077 0.3578
H7_16 H 0.8742 0.8887 0.2755
C6_16 C 0.0087(4) 0.9252(3) 0.0838(3)
H8_16 H 0.0549 0.9061 0.0542
H9_16 H 0.0251 0.9780 0.1057
C8_16 C 0.0661(6) 0.8496(6) 0.1813(6)
H12_16 H 0.0859 0.9017 0.2010
H13_16 H 0.0519 0.8119 0.2195
H14_16 H 0.1094 0.8250 0.1523
loop_
_geom_bond_atom_site_label_1
_geom_bond_atom_site_label_2
_geom_bond_site_symmetry_1
_geom_bond_site_symmetry_2
Cu2 I1 1_555 1_555
I1 Cu3 1_555 1_555
N4 Cu2 1_555 1_555
N5 Cu2 1_555 1_555
I1 Cu5 1_555 1_555
Cu3 Cu5 1_555 1_555
N1 N2 1_555 1_555
N2 Cu1 1_555 1_555
Cu4 Cu1 1_555 1_555
Cu7 N1 1_555 1_555
I2 Cu1 1_555 1_555
I3 Cu1 1_555 1_555
Cu4 I2 1_555 1_555
Cu4 I3 1_555 1_555
Cu7 I3 1_555 1_555
N3 C1 1_555 1_555
C2 C1 1_555 1_555
H1 C2 1_555 1_555
C3 C2 1_555 1_555
H3 C3 1_555 1_555
H4 C3 1_555 1_555
C4 C3 1_555 1_555
H5 C4 1_555 1_555
H6 C4 1_555 1_555
H7 C4 1_555 1_555
H10 C7 1_555 1_555
H11 C7 1_555 1_555
Cu6 N3 1_555 1_555
N3 C5 1_555 1_555
Cu1_2 I1_2 1_555 1_555
Cu2_2 I1_2 1_555 1_555
I1_2 Cu3_2 1_555 1_555
N1_2 N2_2 1_555 1_555
N2_2 Cu1_2 1_555 1_555
N3_2 C1_2 1_555 1_555
C1_2 N1_2 1_555 1_555
C2_2 C1_2 1_555 1_555
H1_2 C2_2 1_555 1_555
H2_2 C2_2 1_555 1_555
C3_2 C2_2 1_555 1_555
H3_2 C3_2 1_555 1_555
H4_2 C3_2 1_555 1_555
C4_2 C3_2 1_555 1_555
H5_2 C4_2 1_555 1_555
H6_2 C4_2 1_555 1_555
H7_2 C4_2 1_555 1_555
C5_2 N2_2 1_555 1_555
C6 C5_2 1_555 1_555
H8 C6 1_555 1_555
H9 C6 1_555 1_555
C7_2 C6 1_555 1_555
H10_2 C7_2 1_555 1_555
H11_2 C7_2 1_555 1_555
C8 C7_2 1_555 1_555
H12 C8 1_555 1_555
H13 C8 1_555 1_555
H14 C8 1_555 1_555
Cu3_2 Cu1_2 1_555 1_555
Cu4_2 Cu1_2 1_555 1_555
Cu5_2 Cu1_2 1_555 1_555
Cu6_2 N3_2 1_555 1_555
Cu7_2 N1_2 1_555 1_555
I2_2 Cu1_2 1_555 1_555
I3_2 Cu1_2 1_555 1_555
N4_2 Cu2_2 1_555 1_555
N5_2 Cu2_2 1_555 1_555
I1_2 Cu5_2 1_555 1_555
N3_2 C5_2 1_555 1_555
Cu3_2 Cu4_2 1_555 1_555
Cu3_2 Cu5_2 1_555 1_555
Cu3_2 I2_2 1_555 1_555
Cu4_2 Cu5_2 1_555 1_555
Cu4_2 I2_2 1_555 1_555
Cu4_2 I3_2 1_555 1_555
Cu5_2 I3_2 1_555 1_555
Cu7_2 I3_2 1_555 1_555
Cu1_3 I1_3 1_555 1_555
Cu2_3 I1_3 1_555 1_555
I1_3 Cu3_3 1_555 1_555
N1_3 N2_3 1_555 1_555
N2_3 Cu1_3 1_555 1_555
N3_3 C1_3 1_555 1_555
C1_3 N1_3 1_555 1_555
C5_3 N2_3 1_555 1_555
C6_2 C5_3 1_555 1_555
H8_2 C6_2 1_555 1_555
H9_2 C6_2 1_555 1_555
C7_3 C6_2 1_555 1_555
H10_3 C7_3 1_555 1_555
H11_3 C7_3 1_555 1_555
C8_2 C7_3 1_555 1_555
H12_2 C8_2 1_555 1_555
H13_2 C8_2 1_555 1_555
H14_2 C8_2 1_555 1_555
Cu3_3 Cu1_3 1_555 1_555
Cu4_3 Cu1_3 1_555 1_555
Cu5_3 Cu1_3 1_555 1_555
Cu6_3 N3_3 1_555 1_555
Cu7_3 N1_3 1_555 1_555
I2_3 Cu1_3 1_555 1_555
I3_3 Cu1_3 1_555 1_555
N4_3 Cu2_3 1_555 1_555
N5_3 Cu2_3 1_555 1_555
I1_3 Cu5_3 1_555 1_555
N3_3 C5_3 1_555 1_555
Cu3_3 Cu4_3 1_555 1_555
Cu3_3 Cu5_3 1_555 1_555
Cu3_3 I2_3 1_555 1_555
Cu4_3 Cu5_3 1_555 1_555
Cu4_3 I2_3 1_555 1_555
Cu4_3 I3_3 1_555 1_555
Cu5_3 I3_3 1_555 1_555
Cu7_3 I3_3 1_555 1_555
Cu1_4 I1_4 1_555 1_555
Cu2_4 I1_4 1_555 1_555
N1_4 N2_4 1_555 1_555
N2_4 Cu1_4 1_555 1_555
N3_4 C1_4 1_555 1_555
C1_4 N1_4 1_555 1_555
C5_4 N2_4 1_555 1_555
C6_3 C5_4 1_555 1_555
H8_3 C6_3 1_555 1_555
H9_3 C6_3 1_555 1_555
C7_4 C6_3 1_555 1_555
H10_4 C7_4 1_555 1_555
H11_4 C7_4 1_555 1_555
C8_3 C7_4 1_555 1_555
H12_3 C8_3 1_555 1_555
H13_3 C8_3 1_555 1_555
H14_3 C8_3 1_555 1_555
Cu5_4 Cu1_4 1_555 1_555
Cu6_4 N3_4 1_555 1_555
Cu7_4 N1_4 1_555 1_555
I3_4 Cu1_4 1_555 1_555
N4_4 Cu2_4 1_555 1_555
N5_4 Cu2_4 1_555 1_555
I1_4 Cu5_4 1_555 1_555
N3_4 C5_4 1_555 1_555
Cu5_4 I3_4 1_555 1_555
Cu7_4 I3_4 1_555 1_555
Cu3_4 Cu4_4 1_555 1_555
Cu3_4 I2_4 1_555 1_555
Cu4_4 I2_4 1_555 1_555
H1_3 C2_3 1_555 1_555
Cu2_5 I2_2 1_555 1_555
N1_5 N2_5 1_555 1_555
N2_5 Cu3_2 1_555 1_555
N3_5 C1_5 1_555 1_555
C1_5 N1_5 1_555 1_555
H4_3 C3_3 1_555 1_555
C4_3 C3_3 1_555 1_555
H5_3 C4_3 1_555 1_555
H6_3 C4_3 1_555 1_555
H7_3 C4_3 1_555 1_555
C5_5 N2_5 1_555 1_555
C6_4 C5_5 1_555 1_555
H8_4 C6_4 1_555 1_555
H9_4 C6_4 1_555 1_555
C7_5 C6_4 1_555 1_555
H10_5 C7_5 1_555 1_555
H11_5 C7_5 1_555 1_555
C8_4 C7_5 1_555 1_555
H12_4 C8_4 1_555 1_555
H13_4 C8_4 1_555 1_555
H14_4 C8_4 1_555 1_555
Cu6_4 N1_5 1_555 1_555
I3_5 Cu3_2 1_555 1_555
N4_5 Cu2_5 1_555 1_555
N3_5 C5_5 1_555 1_555
Cu5_2 I3_5 1_555 1_555
Cu4_2 I3_5 1_555 1_555
Cu6_4 I3_5 1_555 1_555
N1_6 N2_6 1_555 1_555
N2_6 Cu3 1_555 1_555
Cu6_3 N1_6 1_555 1_555
I3_6 Cu3 1_555 1_555
Cu5 I3_6 1_555 1_555
Cu6_3 I3_6 1_555 1_555
H1_4 C2_4 1_555 1_555
Cu2_6 I2 1_555 1_555
N4_6 Cu2_6 1_555 1_555
Cu2_7 I2_4 1_555 1_555
N1_7 N2_7 1_555 1_555
N2_7 Cu3_4 1_555 1_555
N3_6 C1_6 1_555 1_555
C1_6 N1_7 1_555 1_555
C2_5 C1_6 1_555 1_555
H1_5 C2_5 1_555 1_555
H2_5 C2_5 1_555 1_555
C3_4 C2_5 1_555 1_555
H3_5 C3_4 1_555 1_555
H4_4 C3_4 1_555 1_555
C4_4 C3_4 1_555 1_555
H5_4 C4_4 1_555 1_555
H6_4 C4_4 1_555 1_555
H7_4 C4_4 1_555 1_555
C5_6 N2_7 1_555 1_555
C6_5 C5_6 1_555 1_555
H8_5 C6_5 1_555 1_555
H9_5 C6_5 1_555 1_555
C7_6 C6_5 1_555 1_555
H10_6 C7_6 1_555 1_555
H11_6 C7_6 1_555 1_555
C8_5 C7_6 1_555 1_555
H12_5 C8_5 1_555 1_555
H13_5 C8_5 1_555 1_555
H14_5 C8_5 1_555 1_555
Cu7_2 N3_6 1_555 1_555
Cu6 N1_7 1_555 1_555
I3_7 Cu3_4 1_555 1_555
N4_7 Cu2_7 1_555 1_555
N5_6 Cu2_7 1_555 1_555
N3_6 C5_6 1_555 1_555
Cu4_4 I3_7 1_555 1_555
Cu6 I3_7 1_555 1_555
Cu2_8 I2_3 1_555 1_555
N1_8 N2_8 1_555 1_555
N2_8 Cu3_3 1_555 1_555
N3_7 C1_7 1_555 1_555
C1_7 N1_8 1_555 1_555
C2_6 C1_7 1_555 1_555
H1_6 C2_6 1_555 1_555
H2_6 C2_6 1_555 1_555
C3_5 C2_6 1_555 1_555
H3_6 C3_5 1_555 1_555
H4_5 C3_5 1_555 1_555
C4_5 C3_5 1_555 1_555
H5_5 C4_5 1_555 1_555
H6_5 C4_5 1_555 1_555
H7_5 C4_5 1_555 1_555
C5_7 N2_8 1_555 1_555
C6_6 C5_7 1_555 1_555
H8_6 C6_6 1_555 1_555
H9_6 C6_6 1_555 1_555
C7_7 C6_6 1_555 1_555
H10_7 C7_7 1_555 1_555
H11_7 C7_7 1_555 1_555
C8_6 C7_7 1_555 1_555
H12_6 C8_6 1_555 1_555
H13_6 C8_6 1_555 1_555
H14_6 C8_6 1_555 1_555
Cu7 N3_7 1_555 1_555
Cu6_2 N1_8 1_555 1_555
I3_8 Cu3_3 1_555 1_555
N4_8 Cu2_8 1_555 1_555
N5_7 Cu2_8 1_555 1_555
N3_7 C5_7 1_555 1_555
Cu5_3 I3_8 1_555 1_555
Cu4_3 I3_8 1_555 1_555
Cu6_2 I3_8 1_555 1_555
N5 C1_8 1_555 1_555
C2_7 C1_8 1_555 1_555
H1_7 C2_7 1_555 1_555
C3_6 C2_7 1_555 1_555
H3_7 C3_6 1_555 1_555
H4_6 C3_6 1_555 1_555
C4_6 C3_6 1_555 1_555
H5_6 C4_6 1_555 1_555
H6_6 C4_6 1_555 1_555
H7_6 C4_6 1_555 1_555
H10_8 C7_8 1_555 1_555
H11_8 C7_8 1_555 1_555
N5 C5_8 1_555 1_555
N4_4 N2_9 1_555 1_555
N2_9 Cu5_4 1_555 1_555
N4_3 N2_10 1_555 1_555
N2_10 Cu5_3 1_555 1_555
N5_2 C1_9 1_555 1_555
C1_9 N4_3 1_555 1_555
C2_8 C1_9 1_555 1_555
H1_8 C2_8 1_555 1_555
H2_8 C2_8 1_555 1_555
C3_7 C2_8 1_555 1_555
H3_8 C3_7 1_555 1_555
H4_7 C3_7 1_555 1_555
C4_7 C3_7 1_555 1_555
H5_7 C4_7 1_555 1_555
H6_7 C4_7 1_555 1_555
H7_7 C4_7 1_555 1_555
C5_9 N2_10 1_555 1_555
C6_7 C5_9 1_555 1_555
H8_7 C6_7 1_555 1_555
H9_7 C6_7 1_555 1_555
C7_9 C6_7 1_555 1_555
H10_9 C7_9 1_555 1_555
H11_9 C7_9 1_555 1_555
C8_7 C7_9 1_555 1_555
H12_7 C8_7 1_555 1_555
H13_7 C8_7 1_555 1_555
H14_7 C8_7 1_555 1_555
N5_2 C5_9 1_555 1_555
N4_5 N2_11 1_555 1_555
N2_11 Cu4_2 1_555 1_555
N5_6 C1_10 1_555 1_555
C1_10 N4_5 1_555 1_555
C5_10 N2_11 1_555 1_555
C6_8 C5_10 1_555 1_555
H8_8 C6_8 1_555 1_555
H9_8 C6_8 1_555 1_555
C7_10 C6_8 1_555 1_555
H10_10 C7_10 1_555 1_555
H11_10 C7_10 1_555 1_555
C8_8 C7_10 1_555 1_555
H12_8 C8_8 1_555 1_555
H13_8 C8_8 1_555 1_555
H14_8 C8_8 1_555 1_555
N5_6 C5_10 1_555 1_555
N4_6 N2_12 1_555 1_555
N2_12 Cu4 1_555 1_555
N5_7 C1_11 1_555 1_555
C1_11 N4_6 1_555 1_555
C5_11 N2_12 1_555 1_555
C6_9 C5_11 1_555 1_555
H8_9 C6_9 1_555 1_555
H9_9 C6_9 1_555 1_555
C7_11 C6_9 1_555 1_555
H10_11 C7_11 1_555 1_555
H11_11 C7_11 1_555 1_555
C8_9 C7_11 1_555 1_555
H12_9 C8_9 1_555 1_555
H13_9 C8_9 1_555 1_555
H14_9 C8_9 1_555 1_555
N5_7 C5_11 1_555 1_555
N4_8 N2_13 1_555 1_555
N2_13 Cu4_3 1_555 1_555
N5_5 C1_12 1_555 1_555
C1_12 N4_8 1_555 1_555
H4_8 C3_8 1_555 1_555
C4_8 C3_8 1_555 1_555
H5_8 C4_8 1_555 1_555
H6_8 C4_8 1_555 1_555
H7_8 C4_8 1_555 1_555
C5_12 N2_13 1_555 1_555
C6_10 C5_12 1_555 1_555
H8_10 C6_10 1_555 1_555
H9_10 C6_10 1_555 1_555
C7_12 C6_10 1_555 1_555
H10_12 C7_12 1_555 1_555
H11_12 C7_12 1_555 1_555
C8_10 C7_12 1_555 1_555
H12_10 C8_10 1_555 1_555
H13_10 C8_10 1_555 1_555
H14_10 C8_10 1_555 1_555
N5_5 C5_12 1_555 1_555
H1_9 C2_9 1_555 1_555
H1_10 C2_10 1_555 1_555
N4_7 N2_14 1_555 1_555
N2_14 Cu4_4 1_555 1_555
N4 N2_15 1_555 1_555
N2_15 Cu5 1_555 1_555
N5_3 C1_13 1_555 1_555
C1_13 N4 1_555 1_555
C2_11 C1_13 1_555 1_555
H1_11 C2_11 1_555 1_555
H2_11 C2_11 1_555 1_555
C3_9 C2_11 1_555 1_555
H3_11 C3_9 1_555 1_555
H4_9 C3_9 1_555 1_555
C4_9 C3_9 1_555 1_555
H5_9 C4_9 1_555 1_555
H6_9 C4_9 1_555 1_555
H7_9 C4_9 1_555 1_555
C5_13 N2_15 1_555 1_555
C6_11 C5_13 1_555 1_555
H8_11 C6_11 1_555 1_555
H9_11 C6_11 1_555 1_555
C7_13 C6_11 1_555 1_555
H10_13 C7_13 1_555 1_555
H11_13 C7_13 1_555 1_555
C8_11 C7_13 1_555 1_555
H12_11 C8_11 1_555 1_555
H13_11 C8_11 1_555 1_555
H14_11 C8_11 1_555 1_555
N5_3 C5_13 1_555 1_555
N4_2 N2_16 1_555 1_555
N2_16 Cu5_2 1_555 1_555
N5_4 C1_14 1_555 1_555
C1_14 N4_2 1_555 1_555
C2_12 C1_14 1_555 1_555
H1_12 C2_12 1_555 1_555
H2_12 C2_12 1_555 1_555
C3_10 C2_12 1_555 1_555
H3_12 C3_10 1_555 1_555
H4_10 C3_10 1_555 1_555
C4_10 C3_10 1_555 1_555
H5_10 C4_10 1_555 1_555
H6_10 C4_10 1_555 1_555
H7_10 C4_10 1_555 1_555
C5_14 N2_16 1_555 1_555
C6_12 C5_14 1_555 1_555
H8_12 C6_12 1_555 1_555
H9_12 C6_12 1_555 1_555
C7_14 C6_12 1_555 1_555
H10_14 C7_14 1_555 1_555
H11_14 C7_14 1_555 1_555
C8_12 C7_14 1_555 1_555
H12_12 C8_12 1_555 1_555
H13_12 C8_12 1_555 1_555
H14_12 C8_12 1_555 1_555
N5_4 C5_14 1_555 1_555
H8_13 C6_13 1_555 1_555
H9_13 C6_13 1_555 1_555
H12_13 C8_13 1_555 1_555
H13_13 C8_13 1_555 1_555
H14_13 C8_13 1_555 1_555
H1_13 C2_13 1_555 1_555
H2_13 C2_13 1_555 1_555
C3_11 C2_13 1_555 1_555
H3_13 C3_11 1_555 1_555
H4_11 C3_11 1_555 1_555
C4_11 C3_11 1_555 1_555
H5_11 C4_11 1_555 1_555
H6_11 C4_11 1_555 1_555
H7_11 C4_11 1_555 1_555
H1_14 C2_14 1_555 1_555
H2_14 C2_14 1_555 1_555
C3_12 C2_14 1_555 1_555
H3_14 C3_12 1_555 1_555
H4_12 C3_12 1_555 1_555
C4_12 C3_12 1_555 1_555
H5_12 C4_12 1_555 1_555
H6_12 C4_12 1_555 1_555
H7_12 C4_12 1_555 1_555
N3_8 C1_15 1_555 1_555
H4_13 C3_13 1_555 1_555
C4_13 C3_13 1_555 1_555
H5_13 C4_13 1_555 1_555
H6_13 C4_13 1_555 1_555
H7_13 C4_13 1_555 1_555
H10_15 C7_15 1_555 1_555
H11_15 C7_15 1_555 1_555
N3_8 C5_15 1_555 1_555
H8_14 C6_14 1_555 1_555
H9_14 C6_14 1_555 1_555
H12_14 C8_14 1_555 1_555
H13_14 C8_14 1_555 1_555
H14_14 C8_14 1_555 1_555
N5_8 C1_16 1_555 1_555
H4_14 C3_14 1_555 1_555
C4_14 C3_14 1_555 1_555
H5_14 C4_14 1_555 1_555
H6_14 C4_14 1_555 1_555
H7_14 C4_14 1_555 1_555
H10_16 C7_16 1_555 1_555
H11_16 C7_16 1_555 1_555
N5_8 C5_16 1_555 1_555
H8_15 C6_15 1_555 1_555
H9_15 C6_15 1_555 1_555
H12_15 C8_15 1_555 1_555
H13_15 C8_15 1_555 1_555
H14_15 C8_15 1_555 1_555
H1_15 C2_15 1_555 1_555
H2_15 C2_15 1_555 1_555
C3_15 C2_15 1_555 1_555
H3_15 C3_15 1_555 1_555
H4_15 C3_15 1_555 1_555
C4_15 C3_15 1_555 1_555
H5_15 C4_15 1_555 1_555
H6_15 C4_15 1_555 1_555
H7_15 C4_15 1_555 1_555
H1_16 C2_16 1_555 1_555
H2_16 C2_16 1_555 1_555
C3_16 C2_16 1_555 1_555
H3_16 C3_16 1_555 1_555
H4_16 C3_16 1_555 1_555
C4_16 C3_16 1_555 1_555
H5_16 C4_16 1_555 1_555
H6_16 C4_16 1_555 1_555
H7_16 C4_16 1_555 1_555
H8_16 C6_16 1_555 1_555
H9_16 C6_16 1_555 1_555
H12_16 C8_16 1_555 1_555
H13_16 C8_16 1_555 1_555
H14_16 C8_16 1_555 1_555

#END
