
###############################################################################
#
# This file contains modified crystal structure data generated from the
# MOF subset of the Cambridge Structural Database (CSD) v543 
# hosted by the Cambridge Crystallographic Data Centre (CCDC).
#
# This work is licensed under the Creative Commons
# Attribution-NonCommercial-ShareAlike 4.0 International License.
# To view a copy of this license, visit
# http://creativecommons.org/licenses/by-nc-sa/4.0/
# or send a letter to
# Creative Commons, PO Box 1866, Mountain View, CA 94042, USA.
#
# CIF created using the CSD Python API on 29 September 2022
# The structure has been converted into the P1 space group
# The structure has a 3D framework
# The original CSD entry DEKHUX is in the triclinic crystal system
# The framework has been calculated to contain at least 10.0% void space
# The void calculation uses a probe of radius 1.32A, grid spacing 0.4
#
###############################################################################

data_DEKHUX
_chemical_formula_moiety         '(C40 H28 Mn3 N4 O8)n'
_symmetry_cell_setting           triclinic
_symmetry_space_group_name_H-M   'P 1'
_symmetry_Int_Tables_number      1
_space_group_name_Hall           'P 1'
loop_
_symmetry_equiv_pos_site_id
_symmetry_equiv_pos_as_xyz
1 x,y,z
_cell_length_a                   10.224(2)
_cell_length_b                   11.723(2)
_cell_length_c                   12.227(2)
_cell_angle_alpha                65.980(3)
_cell_angle_beta                 71.305(3)
_cell_angle_gamma                84.622(4)
_cell_volume                     1266.8
loop_
_atom_site_label
_atom_site_type_symbol
_atom_site_fract_x
_atom_site_fract_y
_atom_site_fract_z
Mn4 Mn 0.0000 0.5000 0.5000
Mn2 Mn 0.5000 0.5000 0.5000
O1 O 0.1488(3) 0.3846(2) 0.5855(2)
O2 O 0.3718(3) 0.3408(2) 0.5430(2)
C1 C 0.2493(4) 0.3209(3) 0.5555(3)
C2 C 0.2167(5) 0.2067(4) 0.5399(4)
H1 H 0.1248 0.1816 0.5627
C3 C 0.3148(5) 0.1413(4) 0.4949(4)
H2 H 0.4057 0.1697 0.4710
C4 C 0.2930(5) 0.0275(4) 0.4792(4)
H6 H 0.4865 0.0234 0.3837
H7 H 0.0659 0.5897 0.6891
O7 O 0.6282(3) 0.6592(2) 0.4570(2)
O9 O 0.1327(3) 0.6608(2) 0.4384(2)
O12 O 0.3580(3) 0.6250(2) 0.4080(2)
O13 O 0.6420(3) 0.3750(2) 0.5920(2)
N3 N 0.0998(3) 0.4774(3) 0.3150(3)
N5 N 0.6156(3) 0.4949(3) 0.3069(3)
N6 N 0.3844(3) 0.5051(3) 0.6931(3)
C31 C 0.0250(4) 0.4387(4) 0.2639(4)
C32 C 0.0769(4) 0.4389(4) 0.1429(4)
H22 H 0.0223 0.4083 0.1120
C33 C 0.2100(4) 0.4850(4) 0.0701(4)
C34 C 0.2874(4) 0.5226(4) 0.1241(4)
H23 H 0.3783 0.5525 0.0790
C35 C 0.2292(4) 0.5158(4) 0.2468(4)
H24 H 0.2842 0.5394 0.2823
C36 C 0.2683(4) 0.4932(4) 0.9388(4)
C37 C 0.3683(5) 0.5827(4) 0.8497(4)
H25 H 0.3982 0.6417 0.8702
C38 C 0.4241(5) 0.5855(4) 0.7307(4)
H26 H 0.4931 0.6460 0.6730
C39 C 0.2858(4) 0.4194(4) 0.7806(4)
H27 H 0.2566 0.3618 0.7580
C40 C 0.2257(4) 0.4108(4) 0.9005(4)
H28 H 0.1564 0.3500 0.9564
C5 C 0.1671(5) 0.9648(4) 0.5261(5)
H3 H 0.0892 0.9941 0.5701
C6 C 0.1574(5) 0.8554(4) 0.5069(4)
H4 H 0.0707 0.8166 0.5346
C7 C 0.2701(4) 0.8037(4) 0.4492(4)
C8 C 0.3913(5) 0.8683(4) 0.4034(4)
H5 H 0.4702 0.8385 0.3613
C9 C 0.4011(5) 0.9806(4) 0.4181(5)
C10 C 0.2540(4) 0.6861(4) 0.4309(3)
Mn4_2 Mn 1.0000 0.5000 0.5000
O8 O 0.8673(3) 0.3392(2) 0.5616(2)
C25 C 0.8329(5) 0.0352(4) 0.4739(5)
H17 H 0.9108 0.0059 0.4299
C26 C 0.8426(5) 0.1446(4) 0.4931(4)
H18 H 0.9293 0.1834 0.4654
C27 C 0.7299(4) 0.1963(4) 0.5508(4)
C28 C 0.6087(5) 0.1317(4) 0.5966(4)
H19 H 0.5298 0.1615 0.6387
C29 C 0.5989(5) 0.0194(4) 0.5819(5)
C30 C 0.7460(4) 0.3139(4) 0.5691(3)
C16 C 0.7317(4) 0.5068(4) 0.0612(4)
C17 C 0.6317(5) 0.4173(4) 0.1503(4)
H11 H 0.6018 0.3583 0.1298
C18 C 0.5759(5) 0.4145(4) 0.2693(4)
H12 H 0.5069 0.3540 0.3270
C19 C 0.7142(4) 0.5806(4) 0.2194(4)
H13 H 0.7434 0.6382 0.2420
C20 C 0.7743(4) 0.5892(4) 0.0995(4)
H14 H 0.8436 0.6500 0.0436
N1 N 0.9002(3) 0.5226(3) 0.6850(3)
C11 C 0.9750(4) 0.5613(4) 0.7361(4)
C12 C 0.9231(4) 0.5611(4) 0.8571(4)
H8 H 0.9777 0.5917 0.8880
C13 C 0.7900(4) 0.5150(4) 0.9299(4)
C14 C 0.7126(4) 0.4774(4) 0.8759(4)
H9 H 0.6217 0.4475 0.9210
C15 C 0.7708(4) 0.4842(4) 0.7532(4)
H10 H 0.7158 0.4606 0.7177
O5 O 0.8512(3) 0.6154(2) 0.4145(2)
C21 C 0.7507(4) 0.6791(3) 0.4445(3)
C22 C 0.7833(5) 0.7933(4) 0.4601(4)
H15 H 0.8752 0.8184 0.4373
C23 C 0.6852(5) 0.8587(4) 0.5051(4)
H16 H 0.5943 0.8303 0.5290
C24 C 0.7070(5) 0.9725(4) 0.5208(4)
H20 H 0.5135 0.9766 0.6163
H21 H 0.9341 0.4103 0.3109
loop_
_geom_bond_atom_site_label_1
_geom_bond_atom_site_label_2
_geom_bond_site_symmetry_1
_geom_bond_site_symmetry_2
Mn4 O1 1_555 1_555
Mn2 O2 1_555 1_555
O1 C1 1_555 1_555
O2 C1 1_555 1_555
C1 C2 1_555 1_555
C2 H1 1_555 1_555
C3 C2 1_555 1_555
H2 C3 1_555 1_555
C4 C3 1_555 1_555
O7 Mn2 1_555 1_555
O9 Mn4 1_555 1_555
O12 Mn2 1_555 1_555
O13 Mn2 1_555 1_555
N3 Mn4 1_555 1_555
N5 Mn2 1_555 1_555
N6 Mn2 1_555 1_555
C31 N3 1_555 1_555
C32 C31 1_555 1_555
H22 C32 1_555 1_555
C33 C32 1_555 1_555
C34 C33 1_555 1_555
H23 C34 1_555 1_555
C35 N3 1_555 1_555
H24 C35 1_555 1_555
C34 C35 1_555 1_555
N6 C38 1_555 1_555
C37 C36 1_555 1_555
H25 C37 1_555 1_555
C38 C37 1_555 1_555
H26 C38 1_555 1_555
C39 N6 1_555 1_555
H27 C39 1_555 1_555
C40 C36 1_555 1_555
H28 C40 1_555 1_555
C39 C40 1_555 1_555
O9 C10 1_555 1_555
O12 C10 1_555 1_555
H3 C5 1_555 1_555
C6 C5 1_555 1_555
H4 C6 1_555 1_555
C7 C6 1_555 1_555
C8 C7 1_555 1_555
H5 C8 1_555 1_555
C10 C7 1_555 1_555
C8 C9 1_555 1_555
Mn4_2 O8 1_555 1_555
O8 C30 1_555 1_555
O13 C30 1_555 1_555
H17 C25 1_555 1_555
C26 C25 1_555 1_555
H18 C26 1_555 1_555
C27 C26 1_555 1_555
C28 C27 1_555 1_555
H19 C28 1_555 1_555
C30 C27 1_555 1_555
C28 C29 1_555 1_555
N5 C18 1_555 1_555
C17 C16 1_555 1_555
H11 C17 1_555 1_555
C18 C17 1_555 1_555
H12 C18 1_555 1_555
C19 N5 1_555 1_555
H13 C19 1_555 1_555
C20 C16 1_555 1_555
H14 C20 1_555 1_555
C19 C20 1_555 1_555
N1 Mn4_2 1_555 1_555
C11 N1 1_555 1_555
C12 C11 1_555 1_555
H8 C12 1_555 1_555
C13 C12 1_555 1_555
C14 C13 1_555 1_555
H9 C14 1_555 1_555
C15 N1 1_555 1_555
H10 C15 1_555 1_555
O5 Mn4_2 1_555 1_555
O7 C21 1_555 1_555
C21 O5 1_555 1_555
C22 C21 1_555 1_555
H15 C22 1_555 1_555
C23 C22 1_555 1_555
H16 C23 1_555 1_555
C24 C23 1_555 1_555
C14 C15 1_555 1_555

#END
