
###############################################################################
#
# This file contains modified crystal structure data generated from the
# MOF subset of the Cambridge Structural Database (CSD) v543 
# hosted by the Cambridge Crystallographic Data Centre (CCDC).
#
# This work is licensed under the Creative Commons
# Attribution-NonCommercial-ShareAlike 4.0 International License.
# To view a copy of this license, visit
# http://creativecommons.org/licenses/by-nc-sa/4.0/
# or send a letter to
# Creative Commons, PO Box 1866, Mountain View, CA 94042, USA.
#
# CIF created using the CSD Python API on 29 September 2022
# The structure has been converted into the P1 space group
# The structure has a 3D framework
# The original CSD entry DEKHEH is in the monoclinic crystal system
# The framework has been calculated to contain at least 10.0% void space
# The void calculation uses a probe of radius 1.32A, grid spacing 0.4
#
###############################################################################

data_DEKHEH
_chemical_formula_moiety         '(C52 H32 Mn2 N8 O6)n'
_symmetry_cell_setting           triclinic
_symmetry_space_group_name_H-M   'P 1'
_symmetry_Int_Tables_number      1
_space_group_name_Hall           'P 1'
loop_
_symmetry_equiv_pos_site_id
_symmetry_equiv_pos_as_xyz
1 x,y,z
_cell_length_a                   13.251(4)
_cell_length_b                   11.742(4)
_cell_length_c                   9.317(3)
_cell_angle_alpha                90
_cell_angle_beta                 90.195(7)
_cell_angle_gamma                90
_cell_volume                     1449.65
loop_
_atom_site_label
_atom_site_type_symbol
_atom_site_fract_x
_atom_site_fract_y
_atom_site_fract_z
Mn5 Mn -0.0000 0.05513(6) 0.2500
Mn4 Mn -0.0000 0.94487(6) 0.7500
Mn5_2 Mn 1.0000 0.05513(6) 0.2500
O6 O 0.87942(17) 0.06919(19) 0.0966(2)
H9 H 0.7387 0.2066 0.0698
O2 O 0.12058(17) 0.06919(19) 0.4034(2)
O3 O 0.5000 0.2433(3) 0.7500
C1 C 0.1544(2) 0.0282(3) 0.5192(4)
C2 C 0.2494(2) 0.0815(3) 0.5762(4)
C3 C 0.2910(3) 0.1767(3) 0.5125(4)
H1 H 0.2613 0.2066 0.4302
C4 C 0.3765(3) 0.2287(3) 0.5694(4)
H2 H 0.4043 0.2928 0.5261
C5 C 0.4192(3) 0.1828(3) 0.6917(4)
C6 C 0.3803(3) 0.0881(3) 0.7565(4)
H3 H 0.4105 0.0583 0.8385
C7 C 0.2951(3) 0.0370(3) 0.6984(4)
N1 N -0.0000 0.1436(3) 0.7500
N2 N -0.0000 0.7480(3) 0.7500
C10 C -0.0000 0.3833(4) 0.7500
C11 C -0.0000 0.5086(4) 0.7500
C14 C 0.8456(2) 0.0282(3) 0.9808(4)
C15 C 0.7506(2) 0.0815(3) 0.9238(4)
C16 C 0.7090(3) 0.1767(3) 0.9875(4)
C17 C 0.6235(3) 0.2287(3) 0.9306(4)
H10 H 0.5957 0.2928 0.9739
C18 C 0.5808(3) 0.1828(3) 0.8083(4)
C19 C 0.6197(3) 0.0881(3) 0.7435(4)
H11 H 0.5895 0.0583 0.6615
C20 C 0.7049(3) 0.0370(3) 0.8016(4)
C21 C 0.0745(3) 0.2038(3) 0.8104(4)
H13 H 0.1275 0.1641 0.8529
C22 C 0.0775(3) 0.3206(3) 0.8135(4)
H14 H 0.1312 0.3578 0.8579
C23 C 0.0504(3) 0.5713(3) 0.8544(4)
H15 H 0.0862 0.5340 0.9265
C24 C 0.0475(3) 0.6880(3) 0.8512(4)
H16 H 0.0806 0.7276 0.9238
O1 O 0.11597(17) 0.94782(19) 0.5874(2)
H4 H 0.2683 0.9724 0.7417
Mn4_2 Mn 1.0000 0.94487(6) 0.7500
O4 O 0.88403(17) 0.94782(19) 0.9126(2)
O7 O 0.12058(17) 0.93081(19) 0.9034(2)
H12 H 0.7317 0.9724 0.7583
N1_2 N 1.0000 0.1436(3) 0.7500
N2_2 N 1.0000 0.7480(3) 0.7500
C8 C 0.9255(3) 0.2038(3) 0.6896(4)
H5 H 0.8725 0.1641 0.6471
C9 C 0.9225(3) 0.3206(3) 0.6865(4)
H6 H 0.8688 0.3578 0.6421
C10_2 C 1.0000 0.3833(4) 0.7500
C11_2 C 1.0000 0.5086(4) 0.7500
C12 C 0.9496(3) 0.5713(3) 0.6456(4)
H7 H 0.9138 0.5340 0.5735
C13 C 0.9525(3) 0.6880(3) 0.6488(4)
H8 H 0.9194 0.7276 0.5762
O8 O 0.87942(17) 0.93081(19) 0.5966(2)
O5 O 0.11597(17) 0.05218(19) 0.0874(2)
N3 N 0.0000 0.2520(3) 0.2500
N1_3 N 0.0000 0.8564(3) 0.2500
C8_2 C 0.0745(3) 0.7962(3) 0.3104(4)
H5_2 H 0.1275 0.8359 0.3529
C9_2 C 0.0775(3) 0.6794(3) 0.3135(4)
H6_2 H 0.1312 0.6422 0.3579
C10_3 C 0.0000 0.6167(4) 0.2500
C11_3 C 0.0000 0.4914(4) 0.2500
C12_2 C 0.0504(3) 0.4287(3) 0.3544(4)
H7_2 H 0.0862 0.4660 0.4265
C13_2 C 0.0475(3) 0.3120(3) 0.3512(4)
H8_2 H 0.0806 0.2724 0.4238
O1_2 O 0.88403(17) 0.05218(19) 0.4126(2)
H4_2 H 0.7317 0.0276 0.2583
H12_2 H 0.2683 0.0276 0.2417
N3_2 N 1.0000 0.2520(3) 0.2500
O3_2 O 0.5000 0.7567(3) 0.2500
C1_2 C 0.8456(2) 0.9718(3) 0.4808(4)
C2_2 C 0.7506(2) 0.9185(3) 0.4238(4)
C3_2 C 0.7090(3) 0.8233(3) 0.4875(4)
H1_2 H 0.7387 0.7934 0.5698
C4_2 C 0.6235(3) 0.7713(3) 0.4306(4)
H2_2 H 0.5957 0.7072 0.4739
C5_2 C 0.5808(3) 0.8172(3) 0.3083(4)
C6_2 C 0.6197(3) 0.9119(3) 0.2435(4)
H3_2 H 0.5895 0.9417 0.1615
C7_2 C 0.7049(3) 0.9630(3) 0.3016(4)
N1_4 N 1.0000 0.8564(3) 0.2500
C10_4 C 1.0000 0.6167(4) 0.2500
C11_4 C 1.0000 0.4914(4) 0.2500
C14_2 C 0.1544(2) 0.9718(3) 0.0192(4)
C15_2 C 0.2494(2) 0.9185(3) 0.0762(4)
C16_2 C 0.2910(3) 0.8233(3) 0.0125(4)
C17_2 C 0.3765(3) 0.7713(3) 0.0694(4)
H10_2 H 0.4043 0.7072 0.0261
C18_2 C 0.4192(3) 0.8172(3) 0.1917(4)
C19_2 C 0.3803(3) 0.9119(3) 0.2565(4)
H11_2 H 0.4105 0.9417 0.3385
C20_2 C 0.2951(3) 0.9630(3) 0.1984(4)
C21_2 C 0.9255(3) 0.7962(3) 0.1896(4)
H13_2 H 0.8725 0.8359 0.1471
C22_2 C 0.9225(3) 0.6794(3) 0.1865(4)
H14_2 H 0.8688 0.6422 0.1421
C23_2 C 0.9496(3) 0.4287(3) 0.1456(4)
H15_2 H 0.9138 0.4660 0.0735
C24_2 C 0.9525(3) 0.3120(3) 0.1488(4)
H16_2 H 0.9194 0.2724 0.0762
H9_2 H 0.2613 0.7934 0.9302
loop_
_geom_bond_atom_site_label_1
_geom_bond_atom_site_label_2
_geom_bond_site_symmetry_1
_geom_bond_site_symmetry_2
Mn5_2 O6 1_555 1_555
O2 C1 1_555 1_555
O3 C5 1_555 1_555
C1 C2 1_555 1_555
C2 C3 1_555 1_555
C3 H1 1_555 1_555
C4 C3 1_555 1_555
H2 C4 1_555 1_555
C5 C4 1_555 1_555
C6 C5 1_555 1_555
H3 C6 1_555 1_555
C7 C2 1_555 1_555
C11 C10 1_555 1_555
Mn5 O2 1_555 1_555
Mn4 N2 1_555 1_555
C14 C15 1_555 1_555
C15 C16 1_555 1_555
C17 C16 1_555 1_555
H10 C17 1_555 1_555
C18 O3 1_555 1_555
C19 C18 1_555 1_555
H11 C19 1_555 1_555
C20 C15 1_555 1_555
C21 N1 1_555 1_555
H13 C21 1_555 1_555
C22 C10 1_555 1_555
H14 C22 1_555 1_555
C23 C11 1_555 1_555
H15 C23 1_555 1_555
C24 N2 1_555 1_555
H16 C24 1_555 1_555
C6 C7 1_555 1_555
C17 C18 1_555 1_555
C19 C20 1_555 1_555
C21 C22 1_555 1_555
C23 C24 1_555 1_555
Mn4 O1 1_555 1_555
Mn4_2 O4 1_555 1_555
O7 Mn4 1_555 1_555
N2_2 C13 1_555 1_555
C8 N1_2 1_555 1_555
H5 C8 1_555 1_555
C9 C8 1_555 1_555
H6 C9 1_555 1_555
C10_2 C9 1_555 1_555
C11_2 C10_2 1_555 1_555
C12 C11_2 1_555 1_555
H7 C12 1_555 1_555
C13 C12 1_555 1_555
H8 C13 1_555 1_555
Mn4_2 N2_2 1_555 1_555
O8 Mn4_2 1_555 1_555
O5 Mn5 1_555 1_555
N3 Mn5 1_555 1_555
N3 C13_2 1_555 1_555
C8_2 N1_3 1_555 1_555
H5_2 C8_2 1_555 1_555
C9_2 C8_2 1_555 1_555
H6_2 C9_2 1_555 1_555
C10_3 C9_2 1_555 1_555
C11_3 C10_3 1_555 1_555
C12_2 C11_3 1_555 1_555
H7_2 C12_2 1_555 1_555
C13_2 C12_2 1_555 1_555
H8_2 C13_2 1_555 1_555
Mn5_2 O1_2 1_555 1_555
N3_2 Mn5_2 1_555 1_555
O8 C1_2 1_555 1_555
O3_2 C5_2 1_555 1_555
C1_2 C2_2 1_555 1_555
C2_2 C3_2 1_555 1_555
C3_2 H1_2 1_555 1_555
C4_2 C3_2 1_555 1_555
H2_2 C4_2 1_555 1_555
C5_2 C4_2 1_555 1_555
C6_2 C5_2 1_555 1_555
H3_2 C6_2 1_555 1_555
C7_2 C2_2 1_555 1_555
C11_4 C10_4 1_555 1_555
C14_2 C15_2 1_555 1_555
C15_2 C16_2 1_555 1_555
C17_2 C16_2 1_555 1_555
H10_2 C17_2 1_555 1_555
C18_2 O3_2 1_555 1_555
C19_2 C18_2 1_555 1_555
H11_2 C19_2 1_555 1_555
C20_2 C15_2 1_555 1_555
C21_2 N1_4 1_555 1_555
H13_2 C21_2 1_555 1_555
C22_2 C10_4 1_555 1_555
H14_2 C22_2 1_555 1_555
C23_2 C11_4 1_555 1_555
H15_2 C23_2 1_555 1_555
C24_2 N3_2 1_555 1_555
H16_2 C24_2 1_555 1_555
C6_2 C7_2 1_555 1_555
C17_2 C18_2 1_555 1_555
C19_2 C20_2 1_555 1_555
C21_2 C22_2 1_555 1_555
C23_2 C24_2 1_555 1_555

#END
