
###############################################################################
#
# This file contains modified crystal structure data generated from the
# MOF subset of the Cambridge Structural Database (CSD) v543 
# hosted by the Cambridge Crystallographic Data Centre (CCDC).
#
# This work is licensed under the Creative Commons
# Attribution-NonCommercial-ShareAlike 4.0 International License.
# To view a copy of this license, visit
# http://creativecommons.org/licenses/by-nc-sa/4.0/
# or send a letter to
# Creative Commons, PO Box 1866, Mountain View, CA 94042, USA.
#
# CIF created using the CSD Python API on 29 September 2022
# The structure has been converted into the P1 space group
# The structure has a 3D framework
# The original CSD entry DEMGAH is in the rhombohedral crystal system
# The framework has been calculated to contain at least 10.0% void space
# The void calculation uses a probe of radius 1.32A, grid spacing 0.4
#
###############################################################################

data_DEMGAH
_chemical_formula_moiety         '(C324 H270 Cd18 Cl18 N72 O54)n'
_symmetry_cell_setting           triclinic
_symmetry_space_group_name_H-M   'P 1'
_symmetry_Int_Tables_number      1
_space_group_name_Hall           'P 1'
loop_
_symmetry_equiv_pos_site_id
_symmetry_equiv_pos_as_xyz
1 x,y,z
_cell_length_a                   32.139(3)
_cell_length_b                   32.139(3)
_cell_length_c                   13.4231(14)
_cell_angle_alpha                90
_cell_angle_beta                 90
_cell_angle_gamma                120
_cell_volume                     12007.4
loop_
_atom_site_label
_atom_site_type_symbol
_atom_site_fract_x
_atom_site_fract_y
_atom_site_fract_z
O5 O 0.04035(18) 0.49875(14) 0.0433(3)
N1 N 0.04066(19) 0.52460(17) 0.2541(3)
N2 N 0.03094(18) 0.53905(16) 0.3463(3)
H1 H 0.050208 0.546389 0.396132
C2 C 0.1021(3) 0.4803(3) 0.0101(5)
C3 C 0.1386(4) 0.4728(4) 0.0372(8)
C4 C 0.1546(4) 0.4800(4) 0.1337(8)
H6 H 0.179257 0.474556 0.153140
C5 C 0.1331(3) 0.4956(3) 0.2004(6)
H7 H 0.144271 0.501634 0.265713
C6 C 0.0946(3) 0.5029(3) 0.1738(5)
C7 C 0.0768(3) 0.4944(2) 0.0751(5)
C8 C 0.0768(3) 0.5186(2) 0.2561(5)
H8 H 0.093433 0.524911 0.316006
C11 C 0.0087(2) 0.5721(2) 0.5321(4)
H9 H 0.036418 0.569865 0.532783
H10 H 0.017147 0.598694 0.670591
N5 N 0.0199(2) 0.59523(26) 0.1089(3)
N3 N 0.05287(18) 0.66395(24) 0.0281(3)
H10_2 H 0.067973 0.751786 0.003924
C16 C 0.0437(3) 0.6728(4) 0.1230(5)
H13 H 0.050053 0.702296 0.148924
C17 C 0.0236(4) 0.6303(5) 0.1717(5)
H14 H 0.013740 0.625783 0.237904
C18 C 0.0378(2) 0.6163(3) 0.0249(4)
Cd1 Cd 0.01591(2) 0.48823(2) 0.87609(3)
Cl1 Cl 0.07524(8) 0.57197(6) 0.82119(15)
O3 O 0.03730(16) 0.46912(15) 0.7166(3)
N3_2 N 0.05558(16) 0.38620(18) 0.3052(3)
N4 N 0.09130(17) 0.3532(2) 0.2244(3)
C9 C 0.0094(2) 0.45924(19) 0.6475(4)
C10 C 0.0194(2) 0.44206(19) 0.5514(4)
C12 C 0.0026(2) 0.4105(2) 0.3852(4)
C13 C 0.04372(19) 0.4069(2) 0.3855(4)
C14 C 0.0731(2) 0.4231(2) 0.4664(4)
H11 H 0.101798 0.422550 0.466019
C15 C 0.0612(2) 0.4403(2) 0.5484(4)
H12 H 0.081738 0.450863 0.603077
C16_2 C 0.0375(3) 0.3770(3) 0.2103(5)
H13_2 H 0.014423 0.383386 0.184409
C17_2 C 0.0599(3) 0.3569(4) 0.1616(5)
H14_2 H 0.054623 0.347073 0.095429
C18_2 C 0.0881(2) 0.3711(2) 0.3084(4)
H15 H 0.106058 0.373413 0.364585
Cd2 Cd 0.13899(3) 0.31742(2) 0.20942(3)
O4 O 0.0870(2) 0.4741(2) 0.9175(4)
Cl1_2 Cl 0.16340(10) 0.25809(8) 0.15452(15)
O1 O 0.2796(3) 0.4203(2) 0.4158(4)
O2 O 0.20827(23) 0.37368(18) 0.2900(3)
O3_2 O 0.09849(22) 0.29603(16) 0.0499(3)
N1_2 N 0.18273(25) 0.37399(19) 0.0792(3)
C1 C 0.3215(8) 0.4369(5) 0.4821(8)
H2 H 0.314654 0.413066 0.532285
H3 H 0.328024 0.466466 0.513285
H4 H 0.348844 0.442026 0.443925
C2_2 C 0.2885(4) 0.4354(3) 0.3232(5)
C3_2 C 0.3325(6) 0.4719(4) 0.2961(8)
H5 H 0.356707 0.486100 0.343498
C4_2 C 0.3413(6) 0.4879(4) 0.1996(8)
H6_2 H 0.371368 0.512590 0.180193
C5_2 C 0.3042(4) 0.4664(3) 0.1329(6)
H7_2 H 0.309304 0.477604 0.067620
C6_2 C 0.2584(4) 0.4279(3) 0.1595(5)
C7_2 C 0.2491(4) 0.4101(3) 0.2582(5)
C8_2 C 0.2249(4) 0.4101(3) 0.0772(5)
H8_2 H 0.235189 0.426766 0.017327
Cd3 Cd 0.19435(3) 0.34924(2) 0.45724(3)
O4_2 O 0.0538(3) 0.2463(2) 0.2508(4)
O5_2 O 0.12507(23) 0.29298(18) 0.3766(3)
C1_2 C 0.1036(5) 0.4488(6) 0.8512(8)
H2_2 H 0.079733 0.431746 0.801048
H3_2 H 0.133133 0.471776 0.820048
H4_2 H 0.108693 0.426516 0.889408
H5_2 H 0.152767 0.462727 0.989835
N2_2 N 0.36427(18) 0.20572(16) 0.0130(3)
H1_2 H 0.383541 0.213056 0.062799
N3_3 N 0.27775(16) 0.28047(18) 0.3615(3)
N4_2 N 0.24203(17) 0.3135(2) 0.4423(3)
C9_2 C 0.3239(2) 0.20743(19) 0.0192(4)
C10_2 C 0.3139(2) 0.22461(19) 0.1153(4)
C11_2 C 0.3420(2) 0.2388(2) 0.1988(4)
H9_2 H 0.369751 0.236532 0.199450
C12_2 C 0.3307(2) 0.2562(2) 0.2815(4)
H10_3 H 0.350480 0.265361 0.337258
C13_2 C 0.28961(19) 0.2598(2) 0.2812(4)
C14_2 C 0.2602(2) 0.2436(2) 0.2003(4)
H11_2 H 0.231535 0.244117 0.200648
C15_2 C 0.2721(2) 0.2264(2) 0.1183(4)
H12_2 H 0.251595 0.215804 0.063590
C16_3 C 0.2958(3) 0.2897(3) 0.4564(5)
H13_3 H 0.318910 0.283281 0.482258
C17_3 C 0.2734(3) 0.3098(4) 0.5051(5)
H14_3 H 0.278710 0.319594 0.571238
C18_3 C 0.2452(2) 0.2956(2) 0.3583(4)
H15_2 H 0.227275 0.293254 0.302082
Cl1_3 Cl 0.16994(10) 0.40857(8) 0.51214(15)
O3_3 O 0.23485(22) 0.37063(16) 0.6167(3)
N1_3 N 0.15061(25) 0.29267(19) 0.5874(3)
N2_3 N 0.17478(24) 0.30239(18) 0.6796(3)
H1_3 H 0.162848 0.283125 0.729465
C1_3 C 0.0119(8) 0.2297(5) 0.1845(8)
H2_3 H 0.018680 0.253600 0.134381
H3_3 H 0.005310 0.200200 0.153381
C2_3 C 0.0449(4) 0.2312(3) 0.3434(5)
C3_3 C 0.0009(6) 0.1947(4) 0.3705(8)
C5_3 C 0.0292(4) 0.2002(3) 0.5337(6)
H7_3 H 0.024030 0.189062 0.599046
C6_3 C 0.0750(4) 0.2387(3) 0.5071(5)
C7_3 C 0.0843(4) 0.2565(3) 0.4084(5)
C8_3 C 0.1085(4) 0.2565(3) 0.5894(5)
H8_3 H 0.098145 0.239900 0.649339
C9_3 C 0.21683(28) 0.3427(2) 0.6858(4)
C10_3 C 0.24401(28) 0.3527(2) 0.7819(4)
C11_3 C 0.2301(3) 0.3246(2) 0.8654(4)
H9_3 H 0.200114 0.296915 0.866116
C12_3 C 0.2588(3) 0.3359(2) 0.9481(4)
C13_3 C 0.30349(28) 0.37705(19) 0.9478(4)
C14_3 C 0.3167(3) 0.4064(2) 0.8669(4)
H11_3 H 0.345915 0.435131 0.867314
C15_3 C 0.2876(3) 0.3945(2) 0.7849(4)
H12_3 H 0.297542 0.415071 0.730256
H15_3 H 0.399312 0.439391 0.968748
O1_2 O 0.9130(2) 0.5259(2) 0.0825(4)
C1_4 C 0.8964(5) 0.5512(6) 0.1488(8)
H2_4 H 0.920267 0.568254 0.198952
H3_4 H 0.866867 0.528224 0.179952
H4_3 H 0.891307 0.573484 0.110592
H5_3 H 0.847233 0.537273 0.010165
Cd3_2 Cd 0.98409(2) 0.51177(2) 0.12391(3)
N2_4 N 0.63573(18) 0.79428(16) 0.9870(3)
H1_4 H 0.616459 0.786944 0.937201
N3_4 N 0.72225(16) 0.71953(18) 0.6385(3)
N4_3 N 0.75797(17) 0.6865(2) 0.5577(3)
C9_4 C 0.6761(2) 0.79257(19) 0.9808(4)
C10_4 C 0.6861(2) 0.77539(19) 0.8847(4)
C11_4 C 0.6580(2) 0.7612(2) 0.8012(4)
H9_4 H 0.630249 0.763468 0.800550
C12_4 C 0.6693(2) 0.7438(2) 0.7185(4)
H10_4 H 0.649520 0.734639 0.662742
C13_4 C 0.71039(19) 0.7402(2) 0.7188(4)
C14_4 C 0.7398(2) 0.7564(2) 0.7997(4)
H11_4 H 0.768465 0.755883 0.799352
C15_4 C 0.7279(2) 0.7736(2) 0.8817(4)
H12_4 H 0.748405 0.784196 0.936410
C16_4 C 0.7042(3) 0.7103(3) 0.5436(5)
H13_4 H 0.681090 0.716719 0.517742
C17_4 C 0.7266(3) 0.6902(4) 0.4949(5)
H14_4 H 0.721290 0.680406 0.428762
C18_4 C 0.7548(2) 0.7044(2) 0.6417(4)
H15_4 H 0.772725 0.706746 0.697918
Cd2_2 Cd 0.80565(3) 0.65076(2) 0.54276(3)
Cl1_4 Cl 0.83006(10) 0.59143(8) 0.48786(15)
O1_3 O 0.9462(3) 0.7537(2) 0.7492(4)
O2_2 O 0.87493(23) 0.70702(18) 0.6234(3)
O3_4 O 0.76515(22) 0.62937(16) 0.3833(3)
N1_4 N 0.84939(25) 0.70733(19) 0.4126(3)
N2_5 N 0.82522(24) 0.69761(18) 0.3204(3)
H1_5 H 0.837152 0.716875 0.270535
C1_5 C 0.9881(8) 0.7703(5) 0.8155(8)
H2_5 H 0.981320 0.746400 0.865619
H3_5 H 0.994690 0.799800 0.846619
C2_4 C 0.9551(4) 0.7688(3) 0.6566(5)
C3_4 C 0.9991(6) 0.8053(4) 0.6295(8)
C5_4 C 0.9708(4) 0.7998(3) 0.4663(6)
H7_4 H 0.975970 0.810938 0.400954
C6_4 C 0.9250(4) 0.7613(3) 0.4929(5)
C7_4 C 0.9157(4) 0.7435(3) 0.5916(5)
C8_4 C 0.8915(4) 0.7435(3) 0.4106(5)
H8_4 H 0.901855 0.760100 0.350661
C9_5 C 0.78317(28) 0.6573(2) 0.3142(4)
C10_5 C 0.75599(28) 0.6473(2) 0.2181(4)
C11_5 C 0.7699(3) 0.6754(2) 0.1346(4)
H9_5 H 0.799886 0.703085 0.133884
C12_5 C 0.7412(3) 0.6641(2) 0.0519(4)
C13_5 C 0.69651(28) 0.62295(19) 0.0522(4)
C14_5 C 0.6833(3) 0.5936(2) 0.1331(4)
H11_5 H 0.654085 0.564869 0.132686
C15_5 C 0.7124(3) 0.6055(2) 0.2151(4)
H12_5 H 0.702458 0.584929 0.269744
H15_5 H 0.600688 0.560609 0.031252
Cd3_3 Cd 0.86101(3) 0.68258(2) 0.79058(3)
O4_3 O 0.7204(3) 0.5797(2) 0.5842(4)
O5_3 O 0.79173(23) 0.62632(18) 0.7100(3)
Cl1_5 Cl 0.92476(8) 0.42803(6) 0.17881(15)
O3_5 O 0.96270(16) 0.53088(15) 0.2834(3)
N3_5 N 0.94442(16) 0.61380(18) 0.6948(3)
N4_4 N 0.90870(17) 0.6468(2) 0.7756(3)
C9_6 C 0.9906(2) 0.54076(19) 0.3525(4)
C10_6 C 0.9806(2) 0.55794(19) 0.4486(4)
C12_6 C 0.9974(2) 0.5895(2) 0.6148(4)
C13_6 C 0.95628(19) 0.5931(2) 0.6145(4)
C14_6 C 0.9269(2) 0.5769(2) 0.5336(4)
H11_6 H 0.898202 0.577450 0.533981
C15_6 C 0.9388(2) 0.5597(2) 0.4516(4)
H12_6 H 0.918262 0.549137 0.396923
C16_5 C 0.9625(3) 0.6230(3) 0.7897(5)
H13_5 H 0.985577 0.616614 0.815591
C17_5 C 0.9401(3) 0.6431(4) 0.8384(5)
H14_5 H 0.945377 0.652927 0.904571
C18_5 C 0.9119(2) 0.6289(2) 0.6916(4)
H15_6 H 0.893942 0.626587 0.635415
Cl1_6 Cl 0.83660(10) 0.74191(8) 0.84548(15)
O3_6 O 0.90151(22) 0.70397(16) 0.9501(3)
N1_5 N 0.81727(25) 0.62601(19) 0.9208(3)
C1_6 C 0.6785(8) 0.5631(5) 0.5179(8)
H2_6 H 0.685346 0.586934 0.467715
H3_6 H 0.671976 0.533534 0.486715
H4_4 H 0.651156 0.557974 0.556075
C2_5 C 0.7115(4) 0.5646(3) 0.6768(5)
C3_5 C 0.6675(6) 0.5281(4) 0.7039(8)
H5_4 H 0.643293 0.513900 0.656502
C4_3 C 0.6587(6) 0.5121(4) 0.8004(8)
H6_3 H 0.628632 0.487410 0.819807
C5_5 C 0.6958(4) 0.5336(3) 0.8671(6)
H7_5 H 0.690696 0.522396 0.932380
C6_5 C 0.7416(4) 0.5721(3) 0.8405(5)
C7_5 C 0.7509(4) 0.5899(3) 0.7418(5)
C8_5 C 0.7751(4) 0.5899(3) 0.9228(5)
H8_5 H 0.764811 0.573234 0.982673
O2_3 O 0.95965(18) 0.50125(14) 0.9567(3)
N1_6 N 0.95934(19) 0.47540(17) 0.7459(3)
N2_6 N 0.96906(18) 0.46095(16) 0.6537(3)
H1_6 H 0.949792 0.453611 0.603868
C2_6 C 0.8979(3) 0.5197(3) 0.9899(5)
C3_6 C 0.8614(4) 0.5272(4) 0.9628(8)
C4_4 C 0.8454(4) 0.5200(4) 0.8663(8)
H6_4 H 0.820743 0.525444 0.846860
C5_6 C 0.8669(3) 0.5044(3) 0.7996(6)
H7_6 H 0.855729 0.498366 0.734287
C6_6 C 0.9054(3) 0.4971(3) 0.8262(5)
C7_6 C 0.9232(3) 0.5056(2) 0.9249(5)
C8_6 C 0.9232(3) 0.4814(2) 0.7439(5)
H8_6 H 0.906567 0.475089 0.683994
C11_6 C 0.9913(2) 0.4279(2) 0.4679(4)
H9_6 H 0.963582 0.430135 0.467217
H10_5 H 0.982853 0.401306 0.329409
N5_2 N 0.9801(2) 0.40477(26) 0.8911(3)
N3_6 N 0.94713(18) 0.33605(24) 0.9719(3)
H10_6 H 0.932027 0.248214 0.996076
C16_6 C 0.9563(3) 0.3272(4) 0.8770(5)
H13_6 H 0.949947 0.297704 0.851076
C17_6 C 0.9764(4) 0.3697(5) 0.8283(5)
H14_6 H 0.986260 0.374217 0.762096
C18_6 C 0.9622(2) 0.3837(3) 0.9751(4)
O1_4 O 0.4741(2) 0.3871(3) 0.0825(4)
C1_7 C 0.4488(6) 0.3452(8) 0.1488(8)
H2_7 H 0.431746 0.352013 0.198952
H3_7 H 0.471776 0.338643 0.179952
H4_5 H 0.426516 0.317823 0.110592
H5_5 H 0.462727 0.309960 0.010165
Cd3_4 Cd 0.48823(2) 0.47232(3) 0.12391(3)
O5_4 O 0.50125(14) 0.54160(23) 0.0433(3)
N3_7 N 0.28047(18) 0.00271(24) 0.6385(3)
N4_5 N 0.3135(2) 0.07143(26) 0.5577(3)
H11_7 H 0.244117 0.012581 0.799352
C17_7 C 0.3098(4) 0.0363(5) 0.4949(5)
H14_7 H 0.319594 0.040883 0.428762
C18_7 C 0.2956(2) 0.0503(3) 0.6417(4)
H15_7 H 0.293254 0.065978 0.697918
Cd2_3 Cd 0.34924(2) 0.15490(4) 0.54276(3)
Cl1_7 Cl 0.40857(8) 0.23864(6) 0.48786(15)
O1_5 O 0.2463(2) 0.1926(2) 0.7492(4)
O2_4 O 0.29298(18) 0.16792(14) 0.6234(3)
O3_7 O 0.37063(16) 0.13579(15) 0.3833(3)
N1_7 N 0.29267(19) 0.14207(17) 0.4126(3)
N2_7 N 0.30239(18) 0.12762(16) 0.3204(3)
H1_7 H 0.283125 0.120278 0.270535
C1_8 C 0.2297(5) 0.2179(6) 0.8155(8)
H2_8 H 0.253600 0.234921 0.865619
H3_8 H 0.200200 0.194891 0.846619
H4_6 H 0.224640 0.240151 0.777259
C2_7 C 0.2312(3) 0.1864(3) 0.6566(5)
C3_7 C 0.1947(4) 0.1939(4) 0.6295(8)
H5_6 H 0.180566 0.203940 0.676832
C4_5 C 0.1787(4) 0.1867(4) 0.5330(8)
H6_5 H 0.154076 0.192111 0.513527
C5_7 C 0.2002(3) 0.1711(3) 0.4663(6)
H7_7 H 0.189062 0.165033 0.400954
C6_7 C 0.2387(3) 0.1638(3) 0.4929(5)
C7_7 C 0.2565(3) 0.1723(2) 0.5916(5)
C8_7 C 0.2565(3) 0.1481(2) 0.4106(5)
H8_7 H 0.239900 0.141756 0.350661
C9_7 C 0.3427(2) 0.12591(19) 0.3142(4)
C10_7 C 0.3527(2) 0.10873(19) 0.2181(4)
C11_7 C 0.3246(2) 0.0946(2) 0.1346(4)
H9_7 H 0.296915 0.096802 0.133884
C12_7 C 0.3359(2) 0.0772(2) 0.0519(4)
C13_7 C 0.37705(19) 0.0736(2) 0.0522(4)
C14_7 C 0.4064(2) 0.0898(2) 0.1331(4)
H11_8 H 0.435131 0.089217 0.132686
C15_7 C 0.3945(2) 0.1070(2) 0.2151(4)
H12_7 H 0.415071 0.117530 0.269744
H15_8 H 0.439391 0.040080 0.031252
Cd3_5 Cd 0.31742(2) 0.17844(2) 0.79058(3)
O4_4 O 0.4203(2) 0.1408(2) 0.5842(4)
O5_5 O 0.37368(18) 0.16542(14) 0.7100(3)
Cl1_8 Cl 0.57197(6) 0.49673(10) 0.17881(15)
O3_8 O 0.46912(15) 0.43182(22) 0.2834(3)
N1_8 N 0.47540(17) 0.51606(25) 0.2541(3)
N2_8 N 0.46095(16) 0.49189(24) 0.3463(3)
H1_8 H 0.453611 0.503819 0.396132
N3_8 N 0.38620(18) 0.33062(24) 0.6948(3)
N4_6 N 0.3532(2) 0.26190(26) 0.7756(3)
C2_8 C 0.5197(3) 0.6218(4) 0.0101(5)
C3_8 C 0.5272(4) 0.6658(6) 0.0372(8)
C4_6 C 0.5200(4) 0.6746(6) 0.1337(8)
H6_6 H 0.525444 0.704701 0.153140
C5_8 C 0.5044(3) 0.6375(4) 0.2004(6)
H7_8 H 0.498366 0.642637 0.265713
C6_8 C 0.4971(3) 0.5917(4) 0.1738(5)
C7_8 C 0.5056(2) 0.5824(4) 0.0751(5)
C8_8 C 0.4814(2) 0.5582(4) 0.2561(5)
H8_8 H 0.475089 0.568522 0.316006
C9_8 C 0.45924(19) 0.44984(28) 0.3525(4)
C10_8 C 0.44206(19) 0.42266(28) 0.4486(4)
C11_8 C 0.4279(2) 0.4366(3) 0.5321(4)
H9_8 H 0.430135 0.466553 0.532783
C12_8 C 0.4105(2) 0.4079(3) 0.6148(4)
H10_7 H 0.401306 0.418453 0.670591
C13_8 C 0.4069(2) 0.36318(28) 0.6145(4)
C14_8 C 0.4231(2) 0.3500(3) 0.5336(4)
H11_9 H 0.422550 0.320752 0.533981
C15_8 C 0.4403(2) 0.3791(3) 0.4516(4)
H12_8 H 0.450863 0.369125 0.396923
C16_7 C 0.3770(3) 0.3395(4) 0.7897(5)
H13_7 H 0.383386 0.368963 0.815591
C17_8 C 0.3569(4) 0.2970(5) 0.8384(5)
H14_8 H 0.347073 0.292450 0.904571
C18_8 C 0.3711(2) 0.2830(3) 0.6916(4)
H15_9 H 0.373413 0.267355 0.635415
N5_3 N 0.40477(26) 0.42463(33) 0.1089(3)
Cl1_9 Cl 0.25809(8) 0.09470(6) 0.84548(15)
O3_9 O 0.29603(16) 0.19755(15) 0.9501(3)
N1_9 N 0.37399(19) 0.19127(17) 0.9208(3)
C1_9 C 0.4369(5) 0.1155(6) 0.5179(8)
H2_9 H 0.413066 0.098413 0.467715
H3_9 H 0.466466 0.138443 0.486715
H4_7 H 0.442026 0.093183 0.556075
C2_9 C 0.4354(3) 0.1470(3) 0.6768(5)
C3_9 C 0.4719(4) 0.1395(4) 0.7039(8)
H5_7 H 0.486100 0.129394 0.656502
C4_7 C 0.4879(4) 0.1467(4) 0.8004(8)
H6_7 H 0.512590 0.141223 0.819807
C5_9 C 0.4664(3) 0.1623(3) 0.8671(6)
H7_9 H 0.477604 0.168301 0.932380
C6_9 C 0.4279(3) 0.1696(3) 0.8405(5)
C7_9 C 0.4101(3) 0.1611(2) 0.7418(5)
C8_9 C 0.4101(3) 0.1853(2) 0.9228(5)
H8_9 H 0.426766 0.191578 0.982673
N3_9 N 0.33605(24) 0.38891(16) 0.0281(3)
H10_8 H 0.248214 0.316186 0.003924
C16_8 C 0.3272(4) 0.3708(3) 0.1230(5)
H13_8 H 0.297704 0.347756 0.148924
C17_9 C 0.3697(5) 0.3932(3) 0.1717(5)
H14_9 H 0.374217 0.387956 0.237904
C18_9 C 0.3837(3) 0.4214(2) 0.0249(4)
Cd1_2 Cd 0.51177(2) 0.52768(3) 0.87609(3)
Cl1_10 Cl 0.42803(6) 0.50327(10) 0.82119(15)
O2_5 O 0.49875(14) 0.45840(23) 0.9567(3)
O3_10 O 0.53088(15) 0.56818(22) 0.7166(3)
N1_10 N 0.52460(17) 0.48394(25) 0.7459(3)
N2_9 N 0.53905(16) 0.50811(24) 0.6537(3)
H1_9 H 0.546389 0.496181 0.603868
N3_10 N 0.61380(18) 0.66938(24) 0.3052(3)
N4_7 N 0.6468(2) 0.73810(26) 0.2244(3)
C2_10 C 0.4803(3) 0.3782(4) 0.9899(5)
C3_10 C 0.4728(4) 0.3342(6) 0.9628(8)
C4_8 C 0.4800(4) 0.3254(6) 0.8663(8)
H6_8 H 0.474556 0.295299 0.846860
C5_10 C 0.4956(3) 0.3625(4) 0.7996(6)
H7_10 H 0.501634 0.357363 0.734287
C6_10 C 0.5029(3) 0.4083(4) 0.8262(5)
C7_10 C 0.4944(2) 0.4176(4) 0.9249(5)
C8_10 C 0.5186(2) 0.4418(4) 0.7439(5)
H8_10 H 0.524911 0.431478 0.683994
C9_9 C 0.54076(19) 0.55016(28) 0.6475(4)
C10_9 C 0.55794(19) 0.57734(28) 0.5514(4)
C11_9 C 0.5721(2) 0.5634(3) 0.4679(4)
H9_9 H 0.569865 0.533447 0.467217
C12_9 C 0.5895(2) 0.5921(3) 0.3852(4)
H10_9 H 0.598694 0.581547 0.329409
C13_9 C 0.5931(2) 0.63682(28) 0.3855(4)
C14_9 C 0.5769(2) 0.6500(3) 0.4664(4)
H11_10 H 0.577450 0.679248 0.466019
C15_9 C 0.5597(2) 0.6209(3) 0.5484(4)
H12_9 H 0.549137 0.630875 0.603077
C16_9 C 0.6230(3) 0.6605(4) 0.2103(5)
H13_9 H 0.616614 0.631037 0.184409
C17_10 C 0.6431(4) 0.7030(5) 0.1616(5)
H14_10 H 0.652927 0.707550 0.095429
C18_10 C 0.6289(2) 0.7170(3) 0.3084(4)
H15_10 H 0.626587 0.732645 0.364585
Cd2_4 Cd 0.68258(2) 0.82156(4) 0.20942(3)
O4_5 O 0.5259(2) 0.6129(3) 0.9175(4)
N5_4 N 0.59523(26) 0.57537(33) 0.8911(3)
Cl1_11 Cl 0.74191(8) 0.90530(6) 0.15452(15)
O1_6 O 0.5797(2) 0.8592(2) 0.4158(4)
O2_6 O 0.62632(18) 0.83458(14) 0.2900(3)
O3_11 O 0.70397(16) 0.80245(15) 0.0499(3)
N1_11 N 0.62601(19) 0.80873(17) 0.0792(3)
C1_10 C 0.5631(5) 0.8845(6) 0.4821(8)
H2_10 H 0.586934 0.901587 0.532285
H3_10 H 0.533534 0.861557 0.513285
H4_8 H 0.557974 0.906817 0.443925
C2_11 C 0.5646(3) 0.8530(3) 0.3232(5)
C3_11 C 0.5281(4) 0.8605(4) 0.2961(8)
H5_8 H 0.513900 0.870606 0.343498
C4_9 C 0.5121(4) 0.8533(4) 0.1996(8)
H6_9 H 0.487410 0.858777 0.180193
C5_11 C 0.5336(3) 0.8377(3) 0.1329(6)
H7_11 H 0.522396 0.831699 0.067620
C6_11 C 0.5721(3) 0.8304(3) 0.1595(5)
C7_11 C 0.5899(3) 0.8389(2) 0.2582(5)
C8_11 C 0.5899(3) 0.8147(2) 0.0772(5)
H8_11 H 0.573234 0.808422 0.017327
Cd3_6 Cd 0.65076(2) 0.84510(2) 0.45724(3)
O4_6 O 0.7537(2) 0.8074(2) 0.2508(4)
O5_6 O 0.70702(18) 0.83208(14) 0.3766(3)
N3_11 N 0.66395(24) 0.61109(16) 0.9719(3)
H10_10 H 0.751786 0.683814 0.996076
C16_10 C 0.6728(4) 0.6292(3) 0.8770(5)
H13_10 H 0.702296 0.652244 0.851076
C17_11 C 0.6303(5) 0.6068(3) 0.8283(5)
H14_11 H 0.625783 0.612044 0.762096
C18_11 C 0.6163(3) 0.5786(2) 0.9751(4)
C1_11 C 0.5512(6) 0.6548(8) 0.8512(8)
H2_11 H 0.568254 0.647987 0.801048
H3_11 H 0.528224 0.661357 0.820048
H4_9 H 0.573484 0.682177 0.889408
H5_9 H 0.537273 0.690040 0.989835
N3_12 N 0.71953(18) 0.99729(24) 0.3615(3)
N4_8 N 0.6865(2) 0.92857(26) 0.4423(3)
H11_11 H 0.755883 0.987419 0.200648
C17_12 C 0.6902(4) 0.9637(5) 0.5051(5)
H14_12 H 0.680406 0.959117 0.571238
C18_12 C 0.7044(2) 0.9497(3) 0.3583(4)
H15_11 H 0.706746 0.934022 0.302082
Cl1_12 Cl 0.59143(8) 0.76136(6) 0.51214(15)
O3_12 O 0.62937(16) 0.86421(15) 0.6167(3)
N1_12 N 0.70733(19) 0.85793(17) 0.5874(3)
N2_10 N 0.69761(18) 0.87238(16) 0.6796(3)
H1_10 H 0.716875 0.879722 0.729465
C1_12 C 0.7703(5) 0.7821(6) 0.1845(8)
H2_12 H 0.746400 0.765079 0.134381
H3_12 H 0.799800 0.805109 0.153381
H4_10 H 0.775360 0.759849 0.222741
C2_12 C 0.7688(3) 0.8136(3) 0.3434(5)
C3_12 C 0.8053(4) 0.8061(4) 0.3705(8)
H5_10 H 0.819434 0.796060 0.323168
C4_10 C 0.8213(4) 0.8133(4) 0.4670(8)
H6_10 H 0.845924 0.807889 0.486473
C5_12 C 0.7998(3) 0.8289(3) 0.5337(6)
H7_12 H 0.810938 0.834967 0.599046
C6_12 C 0.7613(3) 0.8362(3) 0.5071(5)
C7_12 C 0.7435(3) 0.8277(2) 0.4084(5)
C8_12 C 0.7435(3) 0.8519(2) 0.5894(5)
H8_12 H 0.760100 0.858244 0.649339
C9_10 C 0.6573(2) 0.87409(19) 0.6858(4)
C10_10 C 0.6473(2) 0.89127(19) 0.7819(4)
C11_10 C 0.6754(2) 0.9054(2) 0.8654(4)
H9_10 H 0.703085 0.903198 0.866116
C12_10 C 0.6641(2) 0.9228(2) 0.9481(4)
C13_10 C 0.62295(19) 0.9264(2) 0.9478(4)
C14_10 C 0.5936(2) 0.9102(2) 0.8669(4)
H11_12 H 0.564869 0.910783 0.867314
C15_10 C 0.6055(2) 0.8930(2) 0.7849(4)
H12_10 H 0.584929 0.882470 0.730256
H15_12 H 0.560609 0.959920 0.968748
O1_7 O 0.6129(3) 0.0870(2) 0.0825(4)
C1_13 C 0.6548(8) 0.1036(5) 0.1488(8)
H2_13 H 0.647987 0.079733 0.198952
H3_13 H 0.661357 0.133133 0.179952
H4_11 H 0.682177 0.108693 0.110592
H5_11 H 0.690040 0.152767 0.010165
Cd3_7 Cd 0.52768(3) 0.01591(2) 0.12391(3)
N3_13 N 0.99729(24) 0.27775(16) 0.6385(3)
N4_9 N 0.92857(26) 0.24203(17) 0.5577(3)
H11_13 H 0.987419 0.231535 0.799352
C17_13 C 0.9637(5) 0.2734(3) 0.4949(5)
H14_13 H 0.959117 0.278710 0.428762
C18_13 C 0.9497(3) 0.2452(2) 0.6417(4)
H15_13 H 0.934022 0.227275 0.697918
Cd2_5 Cd 0.84510(4) 0.19435(3) 0.54276(3)
Cl1_13 Cl 0.76136(6) 0.16994(10) 0.48786(15)
O1_8 O 0.8074(2) 0.0538(3) 0.7492(4)
O2_7 O 0.83208(14) 0.12507(23) 0.6234(3)
O3_13 O 0.86421(15) 0.23485(22) 0.3833(3)
N1_13 N 0.85793(17) 0.15061(25) 0.4126(3)
N2_11 N 0.87238(16) 0.17478(24) 0.3204(3)
H1_11 H 0.879722 0.162848 0.270535
C1_14 C 0.7821(6) 0.0119(8) 0.8155(8)
H2_14 H 0.765079 0.018680 0.865619
H3_14 H 0.805109 0.005310 0.846619
C2_13 C 0.8136(3) 0.0449(4) 0.6566(5)
C3_13 C 0.8061(4) 0.0009(6) 0.6295(8)
C5_13 C 0.8289(3) 0.0292(4) 0.4663(6)
H7_13 H 0.834967 0.024030 0.400954
C6_13 C 0.8362(3) 0.0750(4) 0.4929(5)
C7_13 C 0.8277(2) 0.0843(4) 0.5916(5)
C8_13 C 0.8519(2) 0.1085(4) 0.4106(5)
H8_13 H 0.858244 0.098145 0.350661
C9_11 C 0.87409(19) 0.21683(28) 0.3142(4)
C10_11 C 0.89127(19) 0.24401(28) 0.2181(4)
C11_11 C 0.9054(2) 0.2301(3) 0.1346(4)
H9_11 H 0.903198 0.200114 0.133884
C12_11 C 0.9228(2) 0.2588(3) 0.0519(4)
C13_11 C 0.9264(2) 0.30349(28) 0.0522(4)
C14_11 C 0.9102(2) 0.3167(3) 0.1331(4)
H11_14 H 0.910783 0.345915 0.132686
C15_11 C 0.8930(2) 0.2876(3) 0.2151(4)
H12_11 H 0.882470 0.297542 0.269744
H15_14 H 0.959920 0.399312 0.031252
Cd3_8 Cd 0.82156(2) 0.13899(3) 0.79058(3)
O4_7 O 0.8592(2) 0.2796(3) 0.5842(4)
O5_7 O 0.83458(14) 0.20827(23) 0.7100(3)
Cl1_14 Cl 0.50327(10) 0.07524(8) 0.17881(15)
O3_14 O 0.56818(22) 0.03730(16) 0.2834(3)
N3_14 N 0.66938(24) 0.05558(16) 0.6948(3)
N4_10 N 0.73810(26) 0.09130(17) 0.7756(3)
C9_12 C 0.55016(28) 0.0094(2) 0.3525(4)
C10_12 C 0.57734(28) 0.0194(2) 0.4486(4)
C12_12 C 0.5921(3) 0.0026(2) 0.6148(4)
C13_12 C 0.63682(28) 0.04372(19) 0.6145(4)
C14_12 C 0.6500(3) 0.0731(2) 0.5336(4)
H11_15 H 0.679248 0.101798 0.533981
C15_12 C 0.6209(3) 0.0612(2) 0.4516(4)
H12_12 H 0.630875 0.081738 0.396923
C16_11 C 0.6605(4) 0.0375(3) 0.7897(5)
H13_11 H 0.631037 0.014423 0.815591
C17_14 C 0.7030(5) 0.0599(3) 0.8384(5)
H14_14 H 0.707550 0.054623 0.904571
C18_14 C 0.7170(3) 0.0881(2) 0.6916(4)
H15_15 H 0.732645 0.106058 0.635415
Cl1_15 Cl 0.90530(6) 0.16340(10) 0.84548(15)
O3_15 O 0.80245(15) 0.09849(22) 0.9501(3)
N1_14 N 0.80873(17) 0.18273(25) 0.9208(3)
C1_15 C 0.8845(6) 0.3215(8) 0.5179(8)
H2_15 H 0.901587 0.314654 0.467715
H3_15 H 0.861557 0.328024 0.486715
H4_12 H 0.906817 0.348844 0.556075
C2_14 C 0.8530(3) 0.2885(4) 0.6768(5)
C3_14 C 0.8605(4) 0.3325(6) 0.7039(8)
H5_12 H 0.870606 0.356707 0.656502
C4_11 C 0.8533(4) 0.3413(6) 0.8004(8)
H6_11 H 0.858777 0.371368 0.819807
C5_14 C 0.8377(3) 0.3042(4) 0.8671(6)
H7_14 H 0.831699 0.309304 0.932380
C6_14 C 0.8304(3) 0.2584(4) 0.8405(5)
C7_14 C 0.8389(2) 0.2491(4) 0.7418(5)
C8_14 C 0.8147(2) 0.2249(4) 0.9228(5)
H8_14 H 0.808422 0.235189 0.982673
O2_8 O 0.54160(23) 0.04035(18) 0.9567(3)
N1_15 N 0.51606(25) 0.04066(19) 0.7459(3)
N2_12 N 0.49189(24) 0.03094(18) 0.6537(3)
H1_12 H 0.503819 0.050208 0.603868
C2_15 C 0.6218(4) 0.1021(3) 0.9899(5)
C3_15 C 0.6658(6) 0.1386(4) 0.9628(8)
C4_12 C 0.6746(6) 0.1546(4) 0.8663(8)
H6_12 H 0.704701 0.179257 0.846860
C5_15 C 0.6375(4) 0.1331(3) 0.7996(6)
H7_15 H 0.642637 0.144271 0.734287
C6_15 C 0.5917(4) 0.0946(3) 0.8262(5)
C7_15 C 0.5824(4) 0.0768(3) 0.9249(5)
C8_15 C 0.5582(4) 0.0768(3) 0.7439(5)
H8_15 H 0.568522 0.093433 0.683994
C11_12 C 0.4366(3) 0.0087(2) 0.4679(4)
H9_12 H 0.466553 0.036418 0.467217
H10_11 H 0.418453 0.017147 0.329409
N5_5 N 0.42463(33) 0.0199(2) 0.8911(3)
N3_15 N 0.38891(16) 0.05287(18) 0.9719(3)
H10_12 H 0.316186 0.067973 0.996076
C16_12 C 0.3708(3) 0.0437(3) 0.8770(5)
H13_12 H 0.347756 0.050053 0.851076
C17_15 C 0.3932(3) 0.0236(4) 0.8283(5)
H14_15 H 0.387956 0.013740 0.762096
C18_15 C 0.4214(2) 0.0378(2) 0.9751(4)
O5_8 O 0.45840(23) 0.95965(18) 0.0433(3)
N1_16 N 0.48394(25) 0.95934(19) 0.2541(3)
N2_13 N 0.50811(24) 0.96906(18) 0.3463(3)
H1_13 H 0.496181 0.949792 0.396132
C2_16 C 0.3782(4) 0.8979(3) 0.0101(5)
C3_16 C 0.3342(6) 0.8614(4) 0.0372(8)
C4_13 C 0.3254(6) 0.8454(4) 0.1337(8)
H6_13 H 0.295299 0.820743 0.153140
C5_16 C 0.3625(4) 0.8669(3) 0.2004(6)
H7_16 H 0.357363 0.855729 0.265713
C6_16 C 0.4083(4) 0.9054(3) 0.1738(5)
C7_16 C 0.4176(4) 0.9232(3) 0.0751(5)
C8_16 C 0.4418(4) 0.9232(3) 0.2561(5)
H8_16 H 0.431478 0.906567 0.316006
C11_13 C 0.5634(3) 0.9913(2) 0.5321(4)
H9_13 H 0.533447 0.963582 0.532783
H10_13 H 0.581547 0.982853 0.670591
N5_6 N 0.57537(33) 0.9801(2) 0.1089(3)
N3_16 N 0.61109(16) 0.94713(18) 0.0281(3)
H10_14 H 0.683814 0.932027 0.003924
C16_13 C 0.6292(3) 0.9563(3) 0.1230(5)
H13_13 H 0.652244 0.949947 0.148924
C17_16 C 0.6068(3) 0.9764(4) 0.1717(5)
H14_16 H 0.612044 0.986260 0.237904
C18_16 C 0.5786(2) 0.9622(2) 0.0249(4)
Cd1_3 Cd 0.47232(3) 0.98409(2) 0.87609(3)
Cl1_16 Cl 0.49673(10) 0.92476(8) 0.82119(15)
O3_16 O 0.43182(22) 0.96270(16) 0.7166(3)
N3_17 N 0.33062(24) 0.94442(16) 0.3052(3)
N4_11 N 0.26190(26) 0.90870(17) 0.2244(3)
C9_13 C 0.44984(28) 0.9906(2) 0.6475(4)
C10_13 C 0.42266(28) 0.9806(2) 0.5514(4)
C12_13 C 0.4079(3) 0.9974(2) 0.3852(4)
C13_13 C 0.36318(28) 0.95628(19) 0.3855(4)
C14_13 C 0.3500(3) 0.9269(2) 0.4664(4)
H11_16 H 0.320752 0.898202 0.466019
C15_13 C 0.3791(3) 0.9388(2) 0.5484(4)
H12_13 H 0.369125 0.918262 0.603077
C16_14 C 0.3395(4) 0.9625(3) 0.2103(5)
H13_14 H 0.368963 0.985577 0.184409
C17_17 C 0.2970(5) 0.9401(3) 0.1616(5)
H14_17 H 0.292450 0.945377 0.095429
C18_17 C 0.2830(3) 0.9119(2) 0.3084(4)
H15_16 H 0.267355 0.893942 0.364585
Cd2_6 Cd 0.17844(4) 0.86101(3) 0.20942(3)
O4_8 O 0.3871(3) 0.9130(2) 0.9175(4)
Cl1_17 Cl 0.09470(6) 0.83660(10) 0.15452(15)
O1_9 O 0.1408(2) 0.7204(3) 0.4158(4)
O2_9 O 0.16542(14) 0.79173(23) 0.2900(3)
O3_17 O 0.19755(15) 0.90151(22) 0.0499(3)
N1_17 N 0.19127(17) 0.81727(25) 0.0792(3)
C1_16 C 0.1155(6) 0.6785(8) 0.4821(8)
H2_16 H 0.098413 0.685346 0.532285
H3_16 H 0.138443 0.671976 0.513285
H4_13 H 0.093183 0.651156 0.443925
C2_17 C 0.1470(3) 0.7115(4) 0.3232(5)
C3_17 C 0.1395(4) 0.6675(6) 0.2961(8)
H5_13 H 0.129394 0.643293 0.343498
C4_14 C 0.1467(4) 0.6587(6) 0.1996(8)
H6_14 H 0.141223 0.628632 0.180193
C5_17 C 0.1623(3) 0.6958(4) 0.1329(6)
H7_17 H 0.168301 0.690696 0.067620
C6_17 C 0.1696(3) 0.7416(4) 0.1595(5)
C7_17 C 0.1611(2) 0.7509(4) 0.2582(5)
C8_17 C 0.1853(2) 0.7751(4) 0.0772(5)
H8_17 H 0.191578 0.764811 0.017327
Cd3_9 Cd 0.15490(2) 0.80565(3) 0.45724(3)
O4_9 O 0.1926(2) 0.9462(3) 0.2508(4)
O5_9 O 0.16792(14) 0.87493(23) 0.3766(3)
C1_17 C 0.3452(8) 0.8964(5) 0.8512(8)
H2_17 H 0.352013 0.920267 0.801048
H3_17 H 0.338643 0.866867 0.820048
H4_14 H 0.317823 0.891307 0.889408
H5_14 H 0.309960 0.847233 0.989835
N3_18 N 0.00271(24) 0.72225(16) 0.3615(3)
N4_12 N 0.07143(26) 0.75797(17) 0.4423(3)
H11_17 H 0.012581 0.768465 0.200648
C17_18 C 0.0363(5) 0.7266(3) 0.5051(5)
H14_18 H 0.040883 0.721290 0.571238
C18_18 C 0.0503(3) 0.7548(2) 0.3583(4)
H15_17 H 0.065978 0.772725 0.302082
Cl1_18 Cl 0.23864(6) 0.83006(10) 0.51214(15)
O3_18 O 0.13579(15) 0.76515(22) 0.6167(3)
N1_18 N 0.14207(17) 0.84939(25) 0.5874(3)
N2_14 N 0.12762(16) 0.82522(24) 0.6796(3)
H1_14 H 0.120278 0.837152 0.729465
C1_18 C 0.2179(6) 0.9881(8) 0.1845(8)
H2_18 H 0.234921 0.981320 0.134381
H3_18 H 0.194891 0.994690 0.153381
C2_18 C 0.1864(3) 0.9551(4) 0.3434(5)
C3_18 C 0.1939(4) 0.9991(6) 0.3705(8)
C5_18 C 0.1711(3) 0.9708(4) 0.5337(6)
H7_18 H 0.165033 0.975970 0.599046
C6_18 C 0.1638(3) 0.9250(4) 0.5071(5)
C7_18 C 0.1723(2) 0.9157(4) 0.4084(5)
C8_18 C 0.1481(2) 0.8915(4) 0.5894(5)
H8_18 H 0.141756 0.901855 0.649339
C9_14 C 0.12591(19) 0.78317(28) 0.6858(4)
C10_14 C 0.10873(19) 0.75599(28) 0.7819(4)
C11_14 C 0.0946(2) 0.7699(3) 0.8654(4)
H9_14 H 0.096802 0.799886 0.866116
C12_14 C 0.0772(2) 0.7412(3) 0.9481(4)
C13_14 C 0.0736(2) 0.69651(28) 0.9478(4)
C14_14 C 0.0898(2) 0.6833(3) 0.8669(4)
H11_18 H 0.089217 0.654085 0.867314
C15_14 C 0.1070(2) 0.7124(3) 0.7849(4)
H12_14 H 0.117530 0.702458 0.730256
H15_18 H 0.040080 0.600688 0.968748
N2_15 N 0.20572(16) 0.84144(24) 0.9870(3)
H1_15 H 0.213056 0.829514 0.937201
C9_15 C 0.20743(19) 0.88349(28) 0.9808(4)
C10_15 C 0.22461(19) 0.91067(28) 0.8847(4)
C11_15 C 0.2388(2) 0.8967(3) 0.8012(4)
H9_15 H 0.236532 0.866780 0.800550
C12_15 C 0.2562(2) 0.9254(3) 0.7185(4)
H10_15 H 0.265361 0.914880 0.662742
C13_15 C 0.2598(2) 0.97015(28) 0.7188(4)
C14_15 C 0.2436(2) 0.9833(3) 0.7997(4)
C15_15 C 0.2264(2) 0.9542(3) 0.8817(4)
H12_15 H 0.215804 0.964208 0.936410
C16_15 C 0.2897(3) 0.9938(4) 0.5436(5)
H13_15 H 0.283281 0.964370 0.517742
N2_16 N 0.15856(24) 0.36427(18) 0.9870(3)
H1_16 H 0.170486 0.383541 0.937201
C9_16 C 0.11651(28) 0.3239(2) 0.9808(4)
C10_16 C 0.08933(28) 0.3139(2) 0.8847(4)
C11_16 C 0.1033(3) 0.3420(2) 0.8012(4)
H9_16 H 0.133220 0.369751 0.800550
C12_16 C 0.0746(3) 0.3307(2) 0.7185(4)
H10_16 H 0.085120 0.350480 0.662742
C13_16 C 0.02985(28) 0.28961(19) 0.7188(4)
C14_16 C 0.0167(3) 0.2602(2) 0.7997(4)
C15_16 C 0.0458(3) 0.2721(2) 0.8817(4)
H12_16 H 0.035792 0.251595 0.936410
C16_16 C 0.0062(4) 0.2958(3) 0.5436(5)
H13_16 H 0.035630 0.318910 0.517742
H4_15 H 0.759849 0.984490 0.777259
H5_15 H 0.796060 0.976627 0.676832
C4_15 C 0.8133(4) 0.9921(6) 0.5330(8)
H6_15 H 0.807889 0.961966 0.513527
H4_16 H 0.015510 0.775360 0.777259
H5_16 H 0.023373 0.819434 0.676832
C4_16 C 0.0079(6) 0.8213(4) 0.5330(8)
H6_16 H 0.038034 0.845924 0.513527
N2_17 N 0.79428(16) 0.15856(24) 0.0130(3)
H1_17 H 0.786944 0.170486 0.062799
C9_17 C 0.79257(19) 0.11651(28) 0.0192(4)
C10_17 C 0.77539(19) 0.08933(28) 0.1153(4)
C11_17 C 0.7612(2) 0.1033(3) 0.1988(4)
H9_17 H 0.763468 0.133220 0.199450
C12_17 C 0.7438(2) 0.0746(3) 0.2815(4)
H10_17 H 0.734639 0.085120 0.337258
C13_17 C 0.7402(2) 0.02985(28) 0.2812(4)
C14_17 C 0.7564(2) 0.0167(3) 0.2003(4)
C15_17 C 0.7736(2) 0.0458(3) 0.1183(4)
H12_17 H 0.784196 0.035792 0.063590
C16_17 C 0.7103(3) 0.0062(4) 0.4564(5)
H13_17 H 0.716719 0.035630 0.482258
N2_18 N 0.84144(24) 0.63573(18) 0.0130(3)
H1_18 H 0.829514 0.616459 0.062799
C9_18 C 0.88349(28) 0.6761(2) 0.0192(4)
C10_18 C 0.91067(28) 0.6861(2) 0.1153(4)
C11_18 C 0.8967(3) 0.6580(2) 0.1988(4)
H9_18 H 0.866780 0.630249 0.199450
C12_18 C 0.9254(3) 0.6693(2) 0.2815(4)
H10_18 H 0.914880 0.649520 0.337258
C13_18 C 0.97015(28) 0.71039(19) 0.2812(4)
C14_18 C 0.9833(3) 0.7398(2) 0.2003(4)
C15_18 C 0.9542(3) 0.7279(2) 0.1183(4)
H12_18 H 0.964208 0.748405 0.063590
C16_18 C 0.9938(4) 0.7042(3) 0.4564(5)
H13_18 H 0.964370 0.681090 0.482258
H4_17 H 0.240151 0.015510 0.222741
H5_17 H 0.203940 0.023373 0.323168
C4_17 C 0.1867(4) 0.0079(6) 0.4670(8)
H6_17 H 0.192111 0.038034 0.486473
H4_18 H 0.984490 0.224640 0.222741
H5_18 H 0.976627 0.180566 0.323168
C4_18 C 0.9921(6) 0.1787(4) 0.4670(8)
H6_18 H 0.961966 0.154076 0.486473
loop_
_geom_bond_atom_site_label_1
_geom_bond_atom_site_label_2
_geom_bond_site_symmetry_1
_geom_bond_site_symmetry_2
N2 N1 1_555 1_555
H1 N2 1_555 1_555
C3 C2 1_555 1_555
C4 C3 1_555 1_555
H6 C4 1_555 1_555
C5 C4 1_555 1_555
H7 C5 1_555 1_555
C6 C5 1_555 1_555
C7 O5 1_555 1_555
C8 N1 1_555 1_555
H8 C8 1_555 1_555
H9 C11 1_555 1_555
C2 C7 1_555 1_555
C6 C7 1_555 1_555
C6 C8 1_555 1_555
N5 C17 1_555 1_555
C16 N3 1_555 1_555
H13 C16 1_555 1_555
C17 C16 1_555 1_555
H14 C17 1_555 1_555
C18 N3 1_555 1_555
N5 C18 1_555 1_555
Cd1 Cl1 1_555 1_555
O3 Cd1 1_555 1_555
N3_2 C13 1_555 1_555
N4 C17_2 1_555 1_555
C9 O3 1_555 1_555
C10 C9 1_555 1_555
C13 C12 1_555 1_555
C14 C13 1_555 1_555
H11 C14 1_555 1_555
C15 C10 1_555 1_555
H12 C15 1_555 1_555
C16_2 N3_2 1_555 1_555
H13_2 C16_2 1_555 1_555
C17_2 C16_2 1_555 1_555
H14_2 C17_2 1_555 1_555
C18_2 N3_2 1_555 1_555
H15 C18_2 1_555 1_555
Cd2 N4 1_555 1_555
O4 Cd1 1_555 1_555
N4 C18_2 1_555 1_555
C14 C15 1_555 1_555
Cd2 Cl1_2 1_555 1_555
O1 C1 1_555 1_555
O2 Cd2 1_555 1_555
O3_2 Cd2 1_555 1_555
N1_2 Cd2 1_555 1_555
C1 H2 1_555 1_555
H3 C1 1_555 1_555
H4 C1 1_555 1_555
C2_2 O1 1_555 1_555
C3_2 C2_2 1_555 1_555
H5 C3_2 1_555 1_555
C4_2 C3_2 1_555 1_555
H6_2 C4_2 1_555 1_555
C5_2 C4_2 1_555 1_555
H7_2 C5_2 1_555 1_555
C6_2 C5_2 1_555 1_555
C7_2 O2 1_555 1_555
C8_2 N1_2 1_555 1_555
H8_2 C8_2 1_555 1_555
Cd3 O1 1_555 1_555
O4_2 Cd2 1_555 1_555
O5_2 Cd2 1_555 1_555
O2 Cd3 1_555 1_555
C2_2 C7_2 1_555 1_555
C6_2 C7_2 1_555 1_555
C6_2 C8_2 1_555 1_555
Cd3 O5_2 1_555 1_555
O4 C1_2 1_555 1_555
C1_2 H2_2 1_555 1_555
H3_2 C1_2 1_555 1_555
H4_2 C1_2 1_555 1_555
H1_2 N2_2 1_555 1_555
N3_3 C13_2 1_555 1_555
N4_2 C17_3 1_555 1_555
C10_2 C9_2 1_555 1_555
C11_2 C10_2 1_555 1_555
H9_2 C11_2 1_555 1_555
C12_2 C11_2 1_555 1_555
H10_3 C12_2 1_555 1_555
C13_2 C12_2 1_555 1_555
C14_2 C13_2 1_555 1_555
H11_2 C14_2 1_555 1_555
C15_2 C10_2 1_555 1_555
H12_2 C15_2 1_555 1_555
C16_3 N3_3 1_555 1_555
H13_3 C16_3 1_555 1_555
C17_3 C16_3 1_555 1_555
H14_3 C17_3 1_555 1_555
C18_3 N3_3 1_555 1_555
H15_2 C18_3 1_555 1_555
Cd3 N4_2 1_555 1_555
N2_2 C9_2 1_555 1_555
N4_2 C18_3 1_555 1_555
C14_2 C15_2 1_555 1_555
Cd3 Cl1_3 1_555 1_555
O4_2 C1_3 1_555 1_555
O3_3 Cd3 1_555 1_555
N1_3 Cd3 1_555 1_555
N2_3 N1_3 1_555 1_555
H1_3 N2_3 1_555 1_555
C1_3 H2_3 1_555 1_555
H3_3 C1_3 1_555 1_555
C2_3 O4_2 1_555 1_555
C3_3 C2_3 1_555 1_555
H7_3 C5_3 1_555 1_555
C6_3 C5_3 1_555 1_555
C7_3 O5_2 1_555 1_555
C8_3 N1_3 1_555 1_555
H8_3 C8_3 1_555 1_555
C9_3 O3_3 1_555 1_555
C10_3 C9_3 1_555 1_555
C11_3 C10_3 1_555 1_555
H9_3 C11_3 1_555 1_555
C12_3 C11_3 1_555 1_555
C13_3 C12_3 1_555 1_555
C14_3 C13_3 1_555 1_555
H11_3 C14_3 1_555 1_555
C15_3 C10_3 1_555 1_555
H12_3 C15_3 1_555 1_555
N2_3 C9_3 1_555 1_555
C2_3 C7_3 1_555 1_555
C6_3 C7_3 1_555 1_555
C6_3 C8_3 1_555 1_555
C14_3 C15_3 1_555 1_555
O1_2 C1_4 1_555 1_555
C1_4 H2_4 1_555 1_555
H3_4 C1_4 1_555 1_555
H4_3 C1_4 1_555 1_555
Cd3_2 O1_2 1_555 1_555
H1_4 N2_4 1_555 1_555
N3_4 C13_4 1_555 1_555
N4_3 C17_4 1_555 1_555
C10_4 C9_4 1_555 1_555
C11_4 C10_4 1_555 1_555
H9_4 C11_4 1_555 1_555
C12_4 C11_4 1_555 1_555
H10_4 C12_4 1_555 1_555
C13_4 C12_4 1_555 1_555
C14_4 C13_4 1_555 1_555
H11_4 C14_4 1_555 1_555
C15_4 C10_4 1_555 1_555
H12_4 C15_4 1_555 1_555
C16_4 N3_4 1_555 1_555
H13_4 C16_4 1_555 1_555
C17_4 C16_4 1_555 1_555
H14_4 C17_4 1_555 1_555
C18_4 N3_4 1_555 1_555
H15_4 C18_4 1_555 1_555
Cd2_2 N4_3 1_555 1_555
N2_4 C9_4 1_555 1_555
N4_3 C18_4 1_555 1_555
C14_4 C15_4 1_555 1_555
Cd2_2 Cl1_4 1_555 1_555
O1_3 C1_5 1_555 1_555
O2_2 Cd2_2 1_555 1_555
O3_4 Cd2_2 1_555 1_555
N1_4 Cd2_2 1_555 1_555
N2_5 N1_4 1_555 1_555
H1_5 N2_5 1_555 1_555
C1_5 H2_5 1_555 1_555
H3_5 C1_5 1_555 1_555
C2_4 O1_3 1_555 1_555
C3_4 C2_4 1_555 1_555
H7_4 C5_4 1_555 1_555
C6_4 C5_4 1_555 1_555
C7_4 O2_2 1_555 1_555
C8_4 N1_4 1_555 1_555
H8_4 C8_4 1_555 1_555
C9_5 O3_4 1_555 1_555
C10_5 C9_5 1_555 1_555
C11_5 C10_5 1_555 1_555
H9_5 C11_5 1_555 1_555
C12_5 C11_5 1_555 1_555
C13_5 C12_5 1_555 1_555
C14_5 C13_5 1_555 1_555
H11_5 C14_5 1_555 1_555
C15_5 C10_5 1_555 1_555
H12_5 C15_5 1_555 1_555
Cd3_3 O1_3 1_555 1_555
O4_3 Cd2_2 1_555 1_555
O5_3 Cd2_2 1_555 1_555
O2_2 Cd3_3 1_555 1_555
N2_5 C9_5 1_555 1_555
C2_4 C7_4 1_555 1_555
C6_4 C7_4 1_555 1_555
C6_4 C8_4 1_555 1_555
C14_5 C15_5 1_555 1_555
Cd3_3 O5_3 1_555 1_555
Cd3_2 Cl1_5 1_555 1_555
O3_5 Cd3_2 1_555 1_555
N3_5 C13_6 1_555 1_555
N4_4 C17_5 1_555 1_555
C9_6 O3_5 1_555 1_555
C10_6 C9_6 1_555 1_555
C13_6 C12_6 1_555 1_555
C14_6 C13_6 1_555 1_555
H11_6 C14_6 1_555 1_555
C15_6 C10_6 1_555 1_555
H12_6 C15_6 1_555 1_555
C16_5 N3_5 1_555 1_555
H13_5 C16_5 1_555 1_555
C17_5 C16_5 1_555 1_555
H14_5 C17_5 1_555 1_555
C18_5 N3_5 1_555 1_555
H15_6 C18_5 1_555 1_555
Cd3_3 N4_4 1_555 1_555
N4_4 C18_5 1_555 1_555
C14_6 C15_6 1_555 1_555
Cd3_3 Cl1_6 1_555 1_555
O4_3 C1_6 1_555 1_555
O3_6 Cd3_3 1_555 1_555
N1_5 Cd3_3 1_555 1_555
C1_6 H2_6 1_555 1_555
H3_6 C1_6 1_555 1_555
H4_4 C1_6 1_555 1_555
C2_5 O4_3 1_555 1_555
C3_5 C2_5 1_555 1_555
H5_4 C3_5 1_555 1_555
C4_3 C3_5 1_555 1_555
H6_3 C4_3 1_555 1_555
C5_5 C4_3 1_555 1_555
H7_5 C5_5 1_555 1_555
C6_5 C5_5 1_555 1_555
C7_5 O5_3 1_555 1_555
C8_5 N1_5 1_555 1_555
H8_5 C8_5 1_555 1_555
C2_5 C7_5 1_555 1_555
C6_5 C7_5 1_555 1_555
C6_5 C8_5 1_555 1_555
N2_6 N1_6 1_555 1_555
H1_6 N2_6 1_555 1_555
C3_6 C2_6 1_555 1_555
C4_4 C3_6 1_555 1_555
H6_4 C4_4 1_555 1_555
C5_6 C4_4 1_555 1_555
H7_6 C5_6 1_555 1_555
C6_6 C5_6 1_555 1_555
C7_6 O2_3 1_555 1_555
C8_6 N1_6 1_555 1_555
H8_6 C8_6 1_555 1_555
H9_6 C11_6 1_555 1_555
C2_6 C7_6 1_555 1_555
C6_6 C7_6 1_555 1_555
C6_6 C8_6 1_555 1_555
N5_2 C17_6 1_555 1_555
C16_6 N3_6 1_555 1_555
H13_6 C16_6 1_555 1_555
C17_6 C16_6 1_555 1_555
H14_6 C17_6 1_555 1_555
C18_6 N3_6 1_555 1_555
N5_2 C18_6 1_555 1_555
O1_4 C1_7 1_555 1_555
C1_7 H2_7 1_555 1_555
H3_7 C1_7 1_555 1_555
H4_5 C1_7 1_555 1_555
Cd3_4 O1_4 1_555 1_555
Cd3_4 O5_4 1_555 1_555
N4_5 C17_7 1_555 1_555
H14_7 C17_7 1_555 1_555
C18_7 N3_7 1_555 1_555
H15_7 C18_7 1_555 1_555
Cd2_3 N4_5 1_555 1_555
N4_5 C18_7 1_555 1_555
Cd2_3 Cl1_7 1_555 1_555
O1_5 C1_8 1_555 1_555
O2_4 Cd2_3 1_555 1_555
O3_7 Cd2_3 1_555 1_555
N1_7 Cd2_3 1_555 1_555
N2_7 N1_7 1_555 1_555
H1_7 N2_7 1_555 1_555
C1_8 H2_8 1_555 1_555
H3_8 C1_8 1_555 1_555
H4_6 C1_8 1_555 1_555
C2_7 O1_5 1_555 1_555
C3_7 C2_7 1_555 1_555
H5_6 C3_7 1_555 1_555
C4_5 C3_7 1_555 1_555
H6_5 C4_5 1_555 1_555
C5_7 C4_5 1_555 1_555
H7_7 C5_7 1_555 1_555
C6_7 C5_7 1_555 1_555
C7_7 O2_4 1_555 1_555
C8_7 N1_7 1_555 1_555
H8_7 C8_7 1_555 1_555
C9_7 O3_7 1_555 1_555
C10_7 C9_7 1_555 1_555
C11_7 C10_7 1_555 1_555
H9_7 C11_7 1_555 1_555
C12_7 C11_7 1_555 1_555
C13_7 C12_7 1_555 1_555
C14_7 C13_7 1_555 1_555
H11_8 C14_7 1_555 1_555
C15_7 C10_7 1_555 1_555
H12_7 C15_7 1_555 1_555
Cd3_5 O1_5 1_555 1_555
O4_4 Cd2_3 1_555 1_555
O5_5 Cd2_3 1_555 1_555
O2_4 Cd3_5 1_555 1_555
N2_7 C9_7 1_555 1_555
C2_7 C7_7 1_555 1_555
C6_7 C7_7 1_555 1_555
C6_7 C8_7 1_555 1_555
C14_7 C15_7 1_555 1_555
Cd3_5 O5_5 1_555 1_555
Cd3_4 Cl1_8 1_555 1_555
O3_8 Cd3_4 1_555 1_555
N1_8 Cd3_4 1_555 1_555
N2_8 N1_8 1_555 1_555
H1_8 N2_8 1_555 1_555
N3_8 C13_8 1_555 1_555
N4_6 C17_8 1_555 1_555
C3_8 C2_8 1_555 1_555
C4_6 C3_8 1_555 1_555
H6_6 C4_6 1_555 1_555
C5_8 C4_6 1_555 1_555
H7_8 C5_8 1_555 1_555
C6_8 C5_8 1_555 1_555
C7_8 O5_4 1_555 1_555
C8_8 N1_8 1_555 1_555
H8_8 C8_8 1_555 1_555
C9_8 O3_8 1_555 1_555
C10_8 C9_8 1_555 1_555
C11_8 C10_8 1_555 1_555
H9_8 C11_8 1_555 1_555
C12_8 C11_8 1_555 1_555
H10_7 C12_8 1_555 1_555
C13_8 C12_8 1_555 1_555
C14_8 C13_8 1_555 1_555
H11_9 C14_8 1_555 1_555
C15_8 C10_8 1_555 1_555
H12_8 C15_8 1_555 1_555
C16_7 N3_8 1_555 1_555
H13_7 C16_7 1_555 1_555
C17_8 C16_7 1_555 1_555
H14_8 C17_8 1_555 1_555
C18_8 N3_8 1_555 1_555
H15_9 C18_8 1_555 1_555
Cd3_5 N4_6 1_555 1_555
N5_3 Cd3_4 1_555 1_555
N2_8 C9_8 1_555 1_555
N4_6 C18_8 1_555 1_555
C2_8 C7_8 1_555 1_555
C6_8 C7_8 1_555 1_555
C6_8 C8_8 1_555 1_555
C14_8 C15_8 1_555 1_555
Cd3_5 Cl1_9 1_555 1_555
O4_4 C1_9 1_555 1_555
O3_9 Cd3_5 1_555 1_555
N1_9 Cd3_5 1_555 1_555
C1_9 H2_9 1_555 1_555
H3_9 C1_9 1_555 1_555
H4_7 C1_9 1_555 1_555
C2_9 O4_4 1_555 1_555
C3_9 C2_9 1_555 1_555
H5_7 C3_9 1_555 1_555
C4_7 C3_9 1_555 1_555
H6_7 C4_7 1_555 1_555
C5_9 C4_7 1_555 1_555
H7_9 C5_9 1_555 1_555
C6_9 C5_9 1_555 1_555
C7_9 O5_5 1_555 1_555
C8_9 N1_9 1_555 1_555
H8_9 C8_9 1_555 1_555
C2_9 C7_9 1_555 1_555
C6_9 C7_9 1_555 1_555
C6_9 C8_9 1_555 1_555
N5_3 C17_9 1_555 1_555
C16_8 N3_9 1_555 1_555
H13_8 C16_8 1_555 1_555
C17_9 C16_8 1_555 1_555
H14_9 C17_9 1_555 1_555
C18_9 N3_9 1_555 1_555
N5_3 C18_9 1_555 1_555
Cd1_2 Cl1_10 1_555 1_555
O2_5 Cd1_2 1_555 1_555
O3_10 Cd1_2 1_555 1_555
N1_10 Cd1_2 1_555 1_555
N2_9 N1_10 1_555 1_555
H1_9 N2_9 1_555 1_555
N3_10 C13_9 1_555 1_555
N4_7 C17_10 1_555 1_555
C3_10 C2_10 1_555 1_555
C4_8 C3_10 1_555 1_555
H6_8 C4_8 1_555 1_555
C5_10 C4_8 1_555 1_555
H7_10 C5_10 1_555 1_555
C6_10 C5_10 1_555 1_555
C7_10 O2_5 1_555 1_555
C8_10 N1_10 1_555 1_555
H8_10 C8_10 1_555 1_555
C9_9 O3_10 1_555 1_555
C10_9 C9_9 1_555 1_555
C11_9 C10_9 1_555 1_555
H9_9 C11_9 1_555 1_555
C12_9 C11_9 1_555 1_555
H10_9 C12_9 1_555 1_555
C13_9 C12_9 1_555 1_555
C14_9 C13_9 1_555 1_555
H11_10 C14_9 1_555 1_555
C15_9 C10_9 1_555 1_555
H12_9 C15_9 1_555 1_555
C16_9 N3_10 1_555 1_555
H13_9 C16_9 1_555 1_555
C17_10 C16_9 1_555 1_555
H14_10 C17_10 1_555 1_555
C18_10 N3_10 1_555 1_555
H15_10 C18_10 1_555 1_555
Cd2_4 N4_7 1_555 1_555
O4_5 Cd1_2 1_555 1_555
N5_4 Cd1_2 1_555 1_555
N2_9 C9_9 1_555 1_555
N4_7 C18_10 1_555 1_555
C2_10 C7_10 1_555 1_555
C6_10 C7_10 1_555 1_555
C6_10 C8_10 1_555 1_555
C14_9 C15_9 1_555 1_555
Cd2_4 Cl1_11 1_555 1_555
O1_6 C1_10 1_555 1_555
O2_6 Cd2_4 1_555 1_555
O3_11 Cd2_4 1_555 1_555
N1_11 Cd2_4 1_555 1_555
C1_10 H2_10 1_555 1_555
H3_10 C1_10 1_555 1_555
H4_8 C1_10 1_555 1_555
C2_11 O1_6 1_555 1_555
C3_11 C2_11 1_555 1_555
H5_8 C3_11 1_555 1_555
C4_9 C3_11 1_555 1_555
H6_9 C4_9 1_555 1_555
C5_11 C4_9 1_555 1_555
H7_11 C5_11 1_555 1_555
C6_11 C5_11 1_555 1_555
C7_11 O2_6 1_555 1_555
C8_11 N1_11 1_555 1_555
H8_11 C8_11 1_555 1_555
Cd3_6 O1_6 1_555 1_555
O4_6 Cd2_4 1_555 1_555
O5_6 Cd2_4 1_555 1_555
O2_6 Cd3_6 1_555 1_555
C2_11 C7_11 1_555 1_555
C6_11 C7_11 1_555 1_555
C6_11 C8_11 1_555 1_555
Cd3_6 O5_6 1_555 1_555
N5_4 C17_11 1_555 1_555
C16_10 N3_11 1_555 1_555
H13_10 C16_10 1_555 1_555
C17_11 C16_10 1_555 1_555
H14_11 C17_11 1_555 1_555
C18_11 N3_11 1_555 1_555
N5_4 C18_11 1_555 1_555
O4_5 C1_11 1_555 1_555
C1_11 H2_11 1_555 1_555
H3_11 C1_11 1_555 1_555
H4_9 C1_11 1_555 1_555
N4_8 C17_12 1_555 1_555
H14_12 C17_12 1_555 1_555
C18_12 N3_12 1_555 1_555
H15_11 C18_12 1_555 1_555
Cd3_6 N4_8 1_555 1_555
N4_8 C18_12 1_555 1_555
Cd3_6 Cl1_12 1_555 1_555
O4_6 C1_12 1_555 1_555
O3_12 Cd3_6 1_555 1_555
N1_12 Cd3_6 1_555 1_555
N2_10 N1_12 1_555 1_555
H1_10 N2_10 1_555 1_555
C1_12 H2_12 1_555 1_555
H3_12 C1_12 1_555 1_555
H4_10 C1_12 1_555 1_555
C2_12 O4_6 1_555 1_555
C3_12 C2_12 1_555 1_555
H5_10 C3_12 1_555 1_555
C4_10 C3_12 1_555 1_555
H6_10 C4_10 1_555 1_555
C5_12 C4_10 1_555 1_555
H7_12 C5_12 1_555 1_555
C6_12 C5_12 1_555 1_555
C7_12 O5_6 1_555 1_555
C8_12 N1_12 1_555 1_555
H8_12 C8_12 1_555 1_555
C9_10 O3_12 1_555 1_555
C10_10 C9_10 1_555 1_555
C11_10 C10_10 1_555 1_555
H9_10 C11_10 1_555 1_555
C12_10 C11_10 1_555 1_555
C13_10 C12_10 1_555 1_555
C14_10 C13_10 1_555 1_555
H11_12 C14_10 1_555 1_555
C15_10 C10_10 1_555 1_555
H12_10 C15_10 1_555 1_555
N2_10 C9_10 1_555 1_555
C2_12 C7_12 1_555 1_555
C6_12 C7_12 1_555 1_555
C6_12 C8_12 1_555 1_555
C14_10 C15_10 1_555 1_555
O1_7 C1_13 1_555 1_555
C1_13 H2_13 1_555 1_555
H3_13 C1_13 1_555 1_555
H4_11 C1_13 1_555 1_555
Cd3_7 O1_7 1_555 1_555
N4_9 C17_13 1_555 1_555
H14_13 C17_13 1_555 1_555
C18_13 N3_13 1_555 1_555
H15_13 C18_13 1_555 1_555
Cd2_5 N4_9 1_555 1_555
N4_9 C18_13 1_555 1_555
Cd2_5 Cl1_13 1_555 1_555
O1_8 C1_14 1_555 1_555
O2_7 Cd2_5 1_555 1_555
O3_13 Cd2_5 1_555 1_555
N1_13 Cd2_5 1_555 1_555
N2_11 N1_13 1_555 1_555
H1_11 N2_11 1_555 1_555
C1_14 H2_14 1_555 1_555
H3_14 C1_14 1_555 1_555
C2_13 O1_8 1_555 1_555
C3_13 C2_13 1_555 1_555
H7_13 C5_13 1_555 1_555
C6_13 C5_13 1_555 1_555
C7_13 O2_7 1_555 1_555
C8_13 N1_13 1_555 1_555
H8_13 C8_13 1_555 1_555
C9_11 O3_13 1_555 1_555
C10_11 C9_11 1_555 1_555
C11_11 C10_11 1_555 1_555
H9_11 C11_11 1_555 1_555
C12_11 C11_11 1_555 1_555
C13_11 C12_11 1_555 1_555
C14_11 C13_11 1_555 1_555
H11_14 C14_11 1_555 1_555
C15_11 C10_11 1_555 1_555
H12_11 C15_11 1_555 1_555
Cd3_8 O1_8 1_555 1_555
O4_7 Cd2_5 1_555 1_555
O5_7 Cd2_5 1_555 1_555
O2_7 Cd3_8 1_555 1_555
N2_11 C9_11 1_555 1_555
C2_13 C7_13 1_555 1_555
C6_13 C7_13 1_555 1_555
C6_13 C8_13 1_555 1_555
C14_11 C15_11 1_555 1_555
Cd3_8 O5_7 1_555 1_555
Cd3_7 Cl1_14 1_555 1_555
O3_14 Cd3_7 1_555 1_555
N3_14 C13_12 1_555 1_555
N4_10 C17_14 1_555 1_555
C9_12 O3_14 1_555 1_555
C10_12 C9_12 1_555 1_555
C13_12 C12_12 1_555 1_555
C14_12 C13_12 1_555 1_555
H11_15 C14_12 1_555 1_555
C15_12 C10_12 1_555 1_555
H12_12 C15_12 1_555 1_555
C16_11 N3_14 1_555 1_555
H13_11 C16_11 1_555 1_555
C17_14 C16_11 1_555 1_555
H14_14 C17_14 1_555 1_555
C18_14 N3_14 1_555 1_555
H15_15 C18_14 1_555 1_555
Cd3_8 N4_10 1_555 1_555
N4_10 C18_14 1_555 1_555
C14_12 C15_12 1_555 1_555
Cd3_8 Cl1_15 1_555 1_555
O4_7 C1_15 1_555 1_555
O3_15 Cd3_8 1_555 1_555
N1_14 Cd3_8 1_555 1_555
C1_15 H2_15 1_555 1_555
H3_15 C1_15 1_555 1_555
H4_12 C1_15 1_555 1_555
C2_14 O4_7 1_555 1_555
C3_14 C2_14 1_555 1_555
H5_12 C3_14 1_555 1_555
C4_11 C3_14 1_555 1_555
H6_11 C4_11 1_555 1_555
C5_14 C4_11 1_555 1_555
H7_14 C5_14 1_555 1_555
C6_14 C5_14 1_555 1_555
C7_14 O5_7 1_555 1_555
C8_14 N1_14 1_555 1_555
H8_14 C8_14 1_555 1_555
C2_14 C7_14 1_555 1_555
C6_14 C7_14 1_555 1_555
C6_14 C8_14 1_555 1_555
N2_12 N1_15 1_555 1_555
H1_12 N2_12 1_555 1_555
C3_15 C2_15 1_555 1_555
C4_12 C3_15 1_555 1_555
H6_12 C4_12 1_555 1_555
C5_15 C4_12 1_555 1_555
H7_15 C5_15 1_555 1_555
C6_15 C5_15 1_555 1_555
C7_15 O2_8 1_555 1_555
C8_15 N1_15 1_555 1_555
H8_15 C8_15 1_555 1_555
H9_12 C11_12 1_555 1_555
C2_15 C7_15 1_555 1_555
C6_15 C7_15 1_555 1_555
C6_15 C8_15 1_555 1_555
N5_5 C17_15 1_555 1_555
C16_12 N3_15 1_555 1_555
H13_12 C16_12 1_555 1_555
C17_15 C16_12 1_555 1_555
H14_15 C17_15 1_555 1_555
C18_15 N3_15 1_555 1_555
N5_5 C18_15 1_555 1_555
N2_13 N1_16 1_555 1_555
H1_13 N2_13 1_555 1_555
C3_16 C2_16 1_555 1_555
C4_13 C3_16 1_555 1_555
H6_13 C4_13 1_555 1_555
C5_16 C4_13 1_555 1_555
H7_16 C5_16 1_555 1_555
C6_16 C5_16 1_555 1_555
C7_16 O5_8 1_555 1_555
C8_16 N1_16 1_555 1_555
H8_16 C8_16 1_555 1_555
H9_13 C11_13 1_555 1_555
C2_16 C7_16 1_555 1_555
C6_16 C7_16 1_555 1_555
C6_16 C8_16 1_555 1_555
N5_6 C17_16 1_555 1_555
C16_13 N3_16 1_555 1_555
H13_13 C16_13 1_555 1_555
C17_16 C16_13 1_555 1_555
H14_16 C17_16 1_555 1_555
C18_16 N3_16 1_555 1_555
N5_6 C18_16 1_555 1_555
Cd1_3 Cl1_16 1_555 1_555
O3_16 Cd1_3 1_555 1_555
N3_17 C13_13 1_555 1_555
N4_11 C17_17 1_555 1_555
C9_13 O3_16 1_555 1_555
C10_13 C9_13 1_555 1_555
C13_13 C12_13 1_555 1_555
C14_13 C13_13 1_555 1_555
H11_16 C14_13 1_555 1_555
C15_13 C10_13 1_555 1_555
H12_13 C15_13 1_555 1_555
C16_14 N3_17 1_555 1_555
H13_14 C16_14 1_555 1_555
C17_17 C16_14 1_555 1_555
H14_17 C17_17 1_555 1_555
C18_17 N3_17 1_555 1_555
H15_16 C18_17 1_555 1_555
Cd2_6 N4_11 1_555 1_555
O4_8 Cd1_3 1_555 1_555
N4_11 C18_17 1_555 1_555
C14_13 C15_13 1_555 1_555
Cd2_6 Cl1_17 1_555 1_555
O1_9 C1_16 1_555 1_555
O2_9 Cd2_6 1_555 1_555
O3_17 Cd2_6 1_555 1_555
N1_17 Cd2_6 1_555 1_555
C1_16 H2_16 1_555 1_555
H3_16 C1_16 1_555 1_555
H4_13 C1_16 1_555 1_555
C2_17 O1_9 1_555 1_555
C3_17 C2_17 1_555 1_555
H5_13 C3_17 1_555 1_555
C4_14 C3_17 1_555 1_555
H6_14 C4_14 1_555 1_555
C5_17 C4_14 1_555 1_555
H7_17 C5_17 1_555 1_555
C6_17 C5_17 1_555 1_555
C7_17 O2_9 1_555 1_555
C8_17 N1_17 1_555 1_555
H8_17 C8_17 1_555 1_555
Cd3_9 O1_9 1_555 1_555
O4_9 Cd2_6 1_555 1_555
O5_9 Cd2_6 1_555 1_555
O2_9 Cd3_9 1_555 1_555
C2_17 C7_17 1_555 1_555
C6_17 C7_17 1_555 1_555
C6_17 C8_17 1_555 1_555
Cd3_9 O5_9 1_555 1_555
O4_8 C1_17 1_555 1_555
C1_17 H2_17 1_555 1_555
H3_17 C1_17 1_555 1_555
H4_14 C1_17 1_555 1_555
N4_12 C17_18 1_555 1_555
H14_18 C17_18 1_555 1_555
C18_18 N3_18 1_555 1_555
H15_17 C18_18 1_555 1_555
Cd3_9 N4_12 1_555 1_555
N4_12 C18_18 1_555 1_555
Cd3_9 Cl1_18 1_555 1_555
O4_9 C1_18 1_555 1_555
O3_18 Cd3_9 1_555 1_555
N1_18 Cd3_9 1_555 1_555
N2_14 N1_18 1_555 1_555
H1_14 N2_14 1_555 1_555
C1_18 H2_18 1_555 1_555
H3_18 C1_18 1_555 1_555
C2_18 O4_9 1_555 1_555
C3_18 C2_18 1_555 1_555
H7_18 C5_18 1_555 1_555
C6_18 C5_18 1_555 1_555
C7_18 O5_9 1_555 1_555
C8_18 N1_18 1_555 1_555
H8_18 C8_18 1_555 1_555
C9_14 O3_18 1_555 1_555
C10_14 C9_14 1_555 1_555
C11_14 C10_14 1_555 1_555
H9_14 C11_14 1_555 1_555
C12_14 C11_14 1_555 1_555
C13_14 C12_14 1_555 1_555
C14_14 C13_14 1_555 1_555
H11_18 C14_14 1_555 1_555
C15_14 C10_14 1_555 1_555
H12_14 C15_14 1_555 1_555
N2_14 C9_14 1_555 1_555
C2_18 C7_18 1_555 1_555
C6_18 C7_18 1_555 1_555
C6_18 C8_18 1_555 1_555
C14_14 C15_14 1_555 1_555
H1_15 N2_15 1_555 1_555
C10_15 C9_15 1_555 1_555
C11_15 C10_15 1_555 1_555
H9_15 C11_15 1_555 1_555
C12_15 C11_15 1_555 1_555
H10_15 C12_15 1_555 1_555
C13_15 C12_15 1_555 1_555
C14_15 C13_15 1_555 1_555
C15_15 C10_15 1_555 1_555
H12_15 C15_15 1_555 1_555
H13_15 C16_15 1_555 1_555
N2_15 C9_15 1_555 1_555
C14_15 C15_15 1_555 1_555
H1_16 N2_16 1_555 1_555
C10_16 C9_16 1_555 1_555
C11_16 C10_16 1_555 1_555
H9_16 C11_16 1_555 1_555
C12_16 C11_16 1_555 1_555
H10_16 C12_16 1_555 1_555
C13_16 C12_16 1_555 1_555
C14_16 C13_16 1_555 1_555
C15_16 C10_16 1_555 1_555
H12_16 C15_16 1_555 1_555
H13_16 C16_16 1_555 1_555
N2_16 C9_16 1_555 1_555
C14_16 C15_16 1_555 1_555
H6_15 C4_15 1_555 1_555
H6_16 C4_16 1_555 1_555
H1_17 N2_17 1_555 1_555
C10_17 C9_17 1_555 1_555
C11_17 C10_17 1_555 1_555
H9_17 C11_17 1_555 1_555
C12_17 C11_17 1_555 1_555
H10_17 C12_17 1_555 1_555
C13_17 C12_17 1_555 1_555
C14_17 C13_17 1_555 1_555
C15_17 C10_17 1_555 1_555
H12_17 C15_17 1_555 1_555
H13_17 C16_17 1_555 1_555
N2_17 C9_17 1_555 1_555
C14_17 C15_17 1_555 1_555
H1_18 N2_18 1_555 1_555
C10_18 C9_18 1_555 1_555
C11_18 C10_18 1_555 1_555
H9_18 C11_18 1_555 1_555
C12_18 C11_18 1_555 1_555
H10_18 C12_18 1_555 1_555
C13_18 C12_18 1_555 1_555
C14_18 C13_18 1_555 1_555
C15_18 C10_18 1_555 1_555
H12_18 C15_18 1_555 1_555
H13_18 C16_18 1_555 1_555
N2_18 C9_18 1_555 1_555
C14_18 C15_18 1_555 1_555
H6_17 C4_17 1_555 1_555
H6_18 C4_18 1_555 1_555

#END
