
###############################################################################
#
# This file contains modified crystal structure data generated from the
# MOF subset of the Cambridge Structural Database (CSD) v543 
# hosted by the Cambridge Crystallographic Data Centre (CCDC).
#
# This work is licensed under the Creative Commons
# Attribution-NonCommercial-ShareAlike 4.0 International License.
# To view a copy of this license, visit
# http://creativecommons.org/licenses/by-nc-sa/4.0/
# or send a letter to
# Creative Commons, PO Box 1866, Mountain View, CA 94042, USA.
#
# CIF created using the CSD Python API on 29 September 2022
# The structure has been converted into the P1 space group
# The structure has a 3D framework
# The original CSD entry DENBUW is in the triclinic crystal system
# The framework has been calculated to contain at least 10.0% void space
# The void calculation uses a probe of radius 1.32A, grid spacing 0.4
#
###############################################################################

data_DENBUW
_chemical_formula_moiety         '(C180 H128 Cd8 N24 O36)n'
_symmetry_cell_setting           triclinic
_symmetry_space_group_name_H-M   'P 1'
_symmetry_Int_Tables_number      1
_space_group_name_Hall           'P 1'
loop_
_symmetry_equiv_pos_site_id
_symmetry_equiv_pos_as_xyz
1 x,y,z
_cell_length_a                   17.0707(2)
_cell_length_b                   20.2756(3)
_cell_length_c                   20.5249(3)
_cell_angle_alpha                91.6837(14)
_cell_angle_beta                 107.8671(13)
_cell_angle_gamma                94.2364(12)
_cell_volume                     6732.81
loop_
_atom_site_label
_atom_site_type_symbol
_atom_site_fract_x
_atom_site_fract_y
_atom_site_fract_z
C16 C 0.0146(3) 0.2985(2) 0.5657(3)
H10 H 0.0195 0.3446 0.5699
C17 C 0.0691(2) 0.2023(2) 0.5942(3)
H11 H 0.1125 0.1793 0.6193
N5 N 0.07623(17) 0.26734(14) 0.60187(17)
Cd8 Cd 0.197717(11) 0.326746(10) 0.670347(10)
C58 C 0.0379(4) 0.4584(3) 0.2801(3)
H34 H 0.0656 0.4287 0.3108
C59 C 0.0504(3) 0.4620(2) 0.2171(2)
C60 C 0.0068(3) 0.5079(3) 0.1711(3)
C62 C 0.1084(2) 0.4156(2) 0.2012(2)
C66 C 0.0204(4) 0.5175(4) 0.1034(3)
H38 H 0.0617 0.4961 0.0929
O11 O 0.1303(3) 0.3701(2) 0.2380(2)
O12 O 0.12999(19) 0.42324(15) 0.14919(18)
Cd9 Cd 0.199506(10) 0.323629(9) 0.167337(9)
H2 H 0.6750 0.0291 0.2896
C3 C 0.7398(2) 0.01583(16) 0.3874(2)
C6 C 0.7723(2) 0.08433(18) 0.4104(2)
C7 C 0.7380(2) 0.14304(17) 0.3903(2)
C8 C 0.8596(2) 0.16313(18) 0.4670(2)
C9 C 0.6587(2) 0.15892(16) 0.34222(19)
C10 C 0.58611(18) 0.12322(16) 0.34066(17)
H5 H 0.5868 0.0884 0.3693
C11 C 0.51212(16) 0.13988(16) 0.29581(16)
H6 H 0.4635 0.1153 0.2947
C12 C 0.57849(18) 0.22439(18) 0.2561(2)
H7 H 0.5768 0.2590 0.2271
C13 C 0.65445(18) 0.21029(17) 0.3001(2)
H8 H 0.7023 0.2358 0.3009
C14 C 0.9342(2) 0.19977(18) 0.5146(2)
C15 C 0.9426(3) 0.2671(2) 0.5217(4)
H9 H 0.9003 0.2916 0.4973
C18 C 0.9997(3) 0.16674(19) 0.5503(3)
H12 H 0.9976 0.1209 0.5452
N2 N 0.79504(18) 0.19191(14) 0.4263(2)
H63 H 0.7907 0.2338 0.4236
N3 N 0.84810(19) 0.09725(15) 0.4593(2)
N4 N 0.50807(15) 0.19014(14) 0.25396(15)
Cd12 Cd 0.377880(11) 0.220158(9) 0.184995(10)
Cd1 Cd 0.626978(11) 0.775356(9) 0.320809(10)
Cd2 Cd 0.802283(11) 0.673254(10) 0.329653(10)
C1 C 0.66256(18) 0.93159(15) 0.30414(17)
H1 H 0.6290 0.9203 0.2595
C2 C 0.69004(19) 0.99737(15) 0.32190(18)
C4 C 0.7625(3) 0.96525(17) 0.4331(2)
H3 H 0.7979 0.9748 0.4773
C5 C 0.7312(2) 0.90148(18) 0.4109(2)
H4 H 0.7454 0.8686 0.4420
C19 C 0.25384(17) 0.08851(15) 0.16262(18)
H13 H 0.2218 0.1189 0.1748
C20 C 0.21922(17) 0.02457(15) 0.1428(2)
H14 H 0.1647 0.0129 0.1407
C23 C 0.37646(16) 0.06369(15) 0.14946(16)
H16 H 0.4308 0.0769 0.1523
C37 C 0.60557(19) 0.62303(16) 0.27761(18)
C38 C 0.54869(16) 0.56069(13) 0.25196(16)
C39 C 0.50048(18) 0.53946(15) 0.29058(17)
H25 H 0.5017 0.5648 0.3295
C40 C 0.4496(2) 0.48068(17) 0.2730(2)
H26 H 0.4161 0.4683 0.2996
C41 C 0.44746(17) 0.44041(14) 0.21731(16)
C42 C 0.39546(18) 0.37546(16) 0.20507(18)
C43 C 0.7127(2) 0.76942(16) 0.21420(16)
C44 C 0.72635(19) 0.75966(16) 0.14509(15)
C45 C 0.7170(3) 0.69848(18) 0.1158(2)
H27 H 0.7037 0.6629 0.1391
C46 C 0.7266(3) 0.68601(17) 0.05110(19)
H28 H 0.7195 0.6428 0.0324
C47 C 0.74654(18) 0.73737(16) 0.01553(15)
C48 C 0.75921(18) 0.80336(15) 0.04535(14)
C49 C 0.74909(19) 0.81462(16) 0.11089(15)
C51 C 0.7631(3) 0.87921(19) 0.14180(19)
H29 H 0.7535 0.8866 0.1835
C52 C 0.7906(5) 0.9315(2) 0.1110(3)
H30 H 0.8040 0.9733 0.1334
C53 C 0.7983(4) 0.9211(2) 0.0456(3)
H31 H 0.8135 0.9572 0.0237
C54 C 0.7843(3) 0.85960(18) 0.01290(19)
C55 C 0.8902(2) 0.5873(2) 0.2833(2)
C56 C 0.9422(3) 0.5435(2) 0.2562(2)
C57 C 0.9842(4) 0.4988(3) 0.2988(3)
H33 H 0.9770 0.4950 0.3417
C61 C 0.9513(3) 0.5471(3) 0.1903(3)
C63 C 0.9053(4) 0.5921(4) 0.1367(3)
H35 H 0.8684 0.6188 0.1473
C64 C 0.9157(5) 0.5949(4) 0.0747(3)
H36 H 0.8845 0.6221 0.0430
C65 C 0.9733(5) 0.5571(5) 0.0562(4)
H37 H 0.9791 0.5591 0.0127
C67 C 0.2914(2) 0.24187(16) 0.29117(16)
C68 C 0.2821(2) 0.26042(18) 0.36011(15)
C69 C 0.2224(2) 0.22547(19) 0.37966(17)
H39 H 0.1874 0.1928 0.3498
C70 C 0.2133(2) 0.2384(2) 0.44461(18)
H40 H 0.1733 0.2133 0.4576
C71 C 0.2617(2) 0.28689(16) 0.48853(15)
C72 C 0.3249(2) 0.32509(17) 0.47090(16)
C73 C 0.3355(2) 0.31065(18) 0.40621(15)
C74 C 0.2472(2) 0.30132(17) 0.55585(17)
C75 C 0.3778(3) 0.3745(2) 0.51627(19)
H41 H 0.3703 0.3839 0.5585
C76 C 0.4398(4) 0.4089(3) 0.4994(3)
H42 H 0.4755 0.4403 0.5305
C77 C 0.4493(4) 0.3963(4) 0.4341(3)
H43 H 0.4897 0.4215 0.4216
C78 C 0.4004(3) 0.3477(3) 0.3890(2)
H44 H 0.4093 0.3388 0.3472
C79 C 0.5241(3) 0.7686(3) 0.4336(3)
H45 H 0.4910 0.7333 0.4064
C80 C 0.4420(7) 0.7527(7) 0.5117(7)
H46 H 0.3988 0.7814 0.5084
H47 H 0.4638 0.7403 0.5582
H48 H 0.4202 0.7136 0.4822
C81 C 0.5578(6) 0.8410(5) 0.5362(4)
H49 H 0.6108 0.8463 0.5290
H50 H 0.5648 0.8313 0.5830
H51 H 0.5310 0.8812 0.5262
C82 C 0.4498(5) 0.2166(7) 0.0559(5)
H52 H 0.4414 0.2614 0.0565
C83 C 0.5922(4) 0.5026(2) 0.0944(2)
H53 H 0.6246 0.5162 0.0673
C84 C 0.5415(3) 0.4438(2) 0.07703(19)
H54 H 0.5399 0.4181 0.0383
C85 C 0.4931(3) 0.42356(15) 0.11752(17)
H55 H 0.4591 0.3842 0.1059
C86 C 0.49548(17) 0.46209(12) 0.17535(13)
C87 C 0.54623(16) 0.52089(11) 0.19270(11)
C88 C 0.5946(3) 0.54117(16) 0.1522(2)
H56 H 0.6286 0.5805 0.1638
H61 H 0.5561 0.2841 0.0076
N1 N 0.68177(17) 0.88338(13) 0.34781(15)
N6 N 0.33047(15) 0.10906(13) 0.16516(14)
N11 N 0.5073(4) 0.7869(3) 0.4911(3)
N12 N 0.4706(3) 0.2108(5) 0.0003(3)
O1 O 0.57668(15) 0.66926(11) 0.30398(14)
O2 O 0.67566(15) 0.62547(14) 0.26965(16)
O3 O 0.32725(15) 0.37492(13) 0.21711(14)
O4 O 0.42494(16) 0.32559(11) 0.18803(17)
O5 O 0.64169(18) 0.77884(18) 0.21390(15)
O6 O 0.77296(17) 0.76689(13) 0.26680(12)
O9 O 0.8755(2) 0.57448(17) 0.33682(19)
O10 O 0.8665(3) 0.6373(2) 0.2535(2)
O13 O 0.22778(18) 0.23793(12) 0.23948(12)
O14 O 0.3609(2) 0.22925(18) 0.28962(15)
O15 O 0.2234(2) 0.35537(13) 0.56709(14)
O16 O 0.25541(12) 0.25549(12) 0.59751(10)
O17 O 0.57744(19) 0.79369(17) 0.41483(15)
O18 O 0.4374(2) 0.2042(2) 0.09678(16)
Cd6 Cd 0.373022(11) 0.224644(9) 0.679191(10)
N14 N 0.92377(17) 0.73266(14) 0.39813(17)
N15 N 0.07425(16) 0.26517(14) 0.09946(16)
N16 N 0.49173(15) 0.80097(14) 0.25634(15)
O19 O 0.25745(12) 0.23947(12) 0.09960(10)
O20 O 0.22161(19) 0.33686(13) 0.06157(13)
O23 O 0.7766(2) 0.64463(13) 0.43291(14)
O24 O 0.74459(12) 0.74451(12) 0.40249(10)
C50 C 0.75583(19) 0.71942(16) 0.94697(15)
H32 H 0.7909 0.8541 0.9698
C89 C 0.4605(8) 0.1549(6) 0.9556(8)
H57 H 0.5091 0.1313 0.9693
H58 H 0.4518 0.1687 0.9098
H59 H 0.4136 0.1265 0.9572
C90 C 0.5032(8) 0.2689(6) 0.9759(9)
H60 H 0.5092 0.2585 0.9318
H62 H 0.4661 0.3030 0.9719
O7 O 0.74255(12) 0.76053(12) 0.90040(10)
O8 O 0.77839(19) 0.66314(13) 0.93843(13)
Cd11 Cd 0.800494(10) 0.676371(9) 0.832663(9)
Cd13 Cd 0.622120(11) 0.779842(9) 0.815005(10)
C21 C 0.26641(18) 0.97774(15) 0.12616(17)
C22 C 0.34754(17) 0.99922(14) 0.12954(18)
H15 H 0.3814 0.9699 0.1183
C24 C 0.23101(19) 0.91021(16) 0.10237(19)
C25 C 0.14217(19) 0.83377(17) 0.0416(2)
C26 C 0.26477(19) 0.85040(15) 0.11827(19)
H20 H 0.0919 0.7066 0.0171
C32 C 0.34302(18) 0.83371(15) 0.16616(17)
C33 C 0.38156(17) 0.87139(16) 0.22641(17)
H21 H 0.3580 0.9082 0.2378
C34 C 0.45629(17) 0.85327(15) 0.26977(16)
H22 H 0.4823 0.8791 0.3099
C35 C 0.45431(19) 0.76458(17) 0.19979(19)
H23 H 0.4791 0.7276 0.1905
C36 C 0.37936(18) 0.77814(18) 0.15265(19)
H24 H 0.3547 0.7507 0.1135
N7 N 0.15425(17) 0.89918(14) 0.05423(18)
N8 N 0.20717(16) 0.80306(13) 0.07835(17)
H64 H 0.2118 0.7611 0.0771
C29 C 0.9384(3) 0.7999(2) 0.9062(3)
H18 H 0.8993 0.8245 0.8777
C30 C 0.9832(3) 0.7012(2) 0.9411(3)
H19 H 0.9758 0.6552 0.9377
N9 N 0.92575(16) 0.73483(14) 0.90054(16)
C29_2 C 0.0616(3) 0.2001(2) 0.0938(3)
H18_2 H 0.1007 0.1755 0.1223
C30_2 C 0.0168(3) 0.2988(2) 0.0589(3)
H19_2 H 0.0242 0.3448 0.0623
C21_2 C 0.73359(18) 0.02226(15) 0.87384(17)
C22_2 C 0.65246(17) 0.00078(14) 0.87046(18)
H15_2 H 0.6186 0.0301 0.8817
C24_2 C 0.76899(19) 0.08979(16) 0.89763(19)
C25_2 C 0.85783(19) 0.16623(17) 0.9584(2)
C26_2 C 0.73523(19) 0.14960(15) 0.88173(19)
H20_2 H 0.9081 0.2934 0.9829
C32_2 C 0.65698(18) 0.16629(15) 0.83384(17)
C33_2 C 0.61844(17) 0.12861(16) 0.77359(17)
H21_2 H 0.6420 0.0918 0.7622
C34_2 C 0.54371(17) 0.14673(15) 0.73023(16)
H22_2 H 0.5177 0.1209 0.6901
C35_2 C 0.54569(19) 0.23542(17) 0.80021(19)
H23_2 H 0.5209 0.2724 0.8095
C36_2 C 0.62064(18) 0.22186(18) 0.84735(19)
H24_2 H 0.6453 0.2493 0.8865
N7_2 N 0.84575(17) 0.10082(14) 0.94577(18)
N8_2 N 0.79283(16) 0.19694(13) 0.92165(17)
H64_2 H 0.7882 0.2389 0.9229
N10 N 0.50827(15) 0.19903(14) 0.74366(15)
C50_2 C 0.24417(19) 0.28058(16) 0.05303(15)
H32_2 H 0.2091 0.1459 0.0302
C89_2 C 0.5395(8) 0.8451(6) 0.0444(8)
H57_2 H 0.4909 0.8687 0.0307
H58_2 H 0.5482 0.8313 0.0902
H59_2 H 0.5864 0.8735 0.0428
C90_2 C 0.4968(8) 0.7311(6) 0.0241(9)
H60_2 H 0.4908 0.7415 0.0682
H62_2 H 0.5339 0.6970 0.0281
C1_2 C 0.33744(18) 0.06841(15) 0.69586(17)
H1_2 H 0.3710 0.0797 0.7405
C2_2 C 0.30996(19) 0.00263(15) 0.67810(18)
C4_2 C 0.2375(3) 0.03475(17) 0.5669(2)
H3_2 H 0.2021 0.0252 0.5227
C5_2 C 0.2688(2) 0.09852(18) 0.5891(2)
H4_2 H 0.2546 0.1314 0.5580
C19_2 C 0.74616(17) 0.91149(15) 0.83738(18)
H13_2 H 0.7782 0.8811 0.8252
C20_2 C 0.78078(17) 0.97543(15) 0.8572(2)
H14_2 H 0.8353 0.9871 0.8593
C23_2 C 0.62354(16) 0.93631(15) 0.85054(16)
H16_2 H 0.5692 0.9231 0.8477
C37_2 C 0.39443(19) 0.37697(16) 0.72239(18)
C38_2 C 0.45131(16) 0.43931(13) 0.74804(16)
C39_2 C 0.49952(18) 0.46054(15) 0.70942(17)
H25_2 H 0.4983 0.4352 0.6705
C40_2 C 0.5504(2) 0.51932(17) 0.7270(2)
H26_2 H 0.5839 0.5317 0.7004
C41_2 C 0.55254(17) 0.55959(14) 0.78269(16)
C42_2 C 0.60454(18) 0.62454(16) 0.79493(18)
C43_2 C 0.2873(2) 0.23058(16) 0.78580(16)
C44_2 C 0.27365(19) 0.24034(16) 0.85491(15)
C45_2 C 0.2830(3) 0.30152(18) 0.8842(2)
H27_2 H 0.2963 0.3371 0.8609
C46_2 C 0.2734(3) 0.31399(17) 0.94890(19)
H28_2 H 0.2805 0.3572 0.9676
C47_2 C 0.25346(18) 0.26263(16) 0.98447(15)
C48_2 C 0.24079(18) 0.19664(15) 0.95465(14)
C49_2 C 0.25091(19) 0.18538(16) 0.88911(15)
C51_2 C 0.2369(3) 0.12079(19) 0.85820(19)
H29_2 H 0.2465 0.1134 0.8165
C52_2 C 0.2094(5) 0.0685(2) 0.8890(3)
H30_2 H 0.1960 0.0267 0.8666
C53_2 C 0.2017(4) 0.0789(2) 0.9544(3)
H31_2 H 0.1865 0.0428 0.9763
C54_2 C 0.2157(3) 0.14040(18) 0.98710(19)
C55_2 C 0.1098(2) 0.4127(2) 0.7167(2)
C56_2 C 0.0578(3) 0.4565(2) 0.7438(2)
C57_2 C 0.0158(4) 0.5012(3) 0.7012(3)
H33_2 H 0.0230 0.5050 0.6583
C61_2 C 0.0487(3) 0.4529(3) 0.8097(3)
C63_2 C 0.0947(4) 0.4079(4) 0.8633(3)
H35_2 H 0.1316 0.3812 0.8527
C64_2 C 0.0843(5) 0.4051(4) 0.9253(3)
H36_2 H 0.1155 0.3779 0.9570
C65_2 C 0.0267(5) 0.4429(5) 0.9438(4)
H37_2 H 0.0209 0.4409 0.9873
C67_2 C 0.7086(2) 0.75813(16) 0.70883(16)
C68_2 C 0.7179(2) 0.73958(18) 0.63989(15)
C69_2 C 0.7776(2) 0.77453(19) 0.62034(17)
H39_2 H 0.8126 0.8072 0.6502
C70_2 C 0.7867(2) 0.7616(2) 0.55539(18)
H40_2 H 0.8267 0.7867 0.5424
C71_2 C 0.7383(2) 0.71311(16) 0.51147(15)
C72_2 C 0.6751(2) 0.67491(17) 0.52910(16)
C73_2 C 0.6645(2) 0.68935(18) 0.59379(15)
C74_2 C 0.7528(2) 0.69868(17) 0.44415(17)
C75_2 C 0.6222(3) 0.6255(2) 0.48373(19)
H41_2 H 0.6297 0.6161 0.4415
C76_2 C 0.5602(4) 0.5911(3) 0.5006(3)
H42_2 H 0.5245 0.5597 0.4695
C77_2 C 0.5507(4) 0.6037(4) 0.5659(3)
H43_2 H 0.5103 0.5785 0.5784
C78_2 C 0.5996(3) 0.6523(3) 0.6110(2)
H44_2 H 0.5907 0.6612 0.6528
C79_2 C 0.4759(3) 0.2314(3) 0.5664(3)
H45_2 H 0.5090 0.2667 0.5936
C80_2 C 0.5580(7) 0.2473(7) 0.4883(7)
H46_2 H 0.6012 0.2186 0.4916
H47_2 H 0.5362 0.2597 0.4418
H48_2 H 0.5798 0.2864 0.5178
C81_2 C 0.4422(6) 0.1590(5) 0.4638(4)
H49_2 H 0.3892 0.1537 0.4710
H50_2 H 0.4352 0.1687 0.4170
H51_2 H 0.4690 0.1188 0.4738
C82_2 C 0.5502(5) 0.7834(7) 0.9441(5)
H52_2 H 0.5586 0.7386 0.9435
C83_2 C 0.4078(4) 0.4974(2) 0.9056(2)
H53_2 H 0.3754 0.4838 0.9327
C84_2 C 0.4585(3) 0.5562(2) 0.92297(19)
H54_2 H 0.4601 0.5819 0.9617
C85_2 C 0.5069(3) 0.57644(15) 0.88248(17)
H55_2 H 0.5409 0.6158 0.8941
C86_2 C 0.50452(17) 0.53791(12) 0.82465(13)
C87_2 C 0.45377(16) 0.47911(11) 0.80730(11)
C88_2 C 0.4054(3) 0.45883(16) 0.8478(2)
H56_2 H 0.3714 0.4195 0.8362
H61_2 H 0.4439 0.7159 0.9924
N1_2 N 0.31823(17) 0.11662(13) 0.65219(15)
N6_2 N 0.66953(15) 0.89094(13) 0.83484(14)
N11_2 N 0.4927(4) 0.2131(3) 0.5089(3)
N12_2 N 0.5294(3) 0.7892(5) 0.9997(3)
O1_2 O 0.42332(15) 0.33074(11) 0.69602(14)
O2_2 O 0.32434(15) 0.37453(14) 0.73035(16)
O3_2 O 0.67275(15) 0.62508(13) 0.78289(14)
O4_2 O 0.57506(16) 0.67441(11) 0.81197(17)
O5_2 O 0.35831(18) 0.22116(18) 0.78610(15)
O6_2 O 0.22704(17) 0.23311(13) 0.73320(12)
O9_2 O 0.1245(2) 0.42552(17) 0.66318(19)
O10_2 O 0.1335(3) 0.3627(2) 0.7465(2)
O13_2 O 0.77222(18) 0.76207(12) 0.76052(12)
O14_2 O 0.6391(2) 0.77075(18) 0.71038(15)
O17_2 O 0.42256(19) 0.20631(17) 0.58517(15)
O18_2 O 0.5626(2) 0.7958(2) 0.90322(16)
N13 N 0.49193(15) 0.80986(14) 0.74604(15)
O21 O 0.8697(3) 0.6299(2) 0.7620(2)
O22 O 0.87001(19) 0.57676(15) 0.85081(18)
H2_2 H 0.3250 0.9709 0.7104
C3_2 C 0.2602(2) 0.98417(16) 0.6126(2)
C6_2 C 0.2277(2) 0.91567(18) 0.5896(2)
C7_2 C 0.2620(2) 0.85696(17) 0.6097(2)
C8_2 C 0.1404(2) 0.83687(18) 0.5330(2)
C9_2 C 0.3413(2) 0.84108(16) 0.65778(19)
C10_2 C 0.41389(18) 0.87678(16) 0.65934(17)
H5_2 H 0.4132 0.9116 0.6307
C11_2 C 0.48788(16) 0.86012(16) 0.70419(16)
H6_2 H 0.5365 0.8847 0.7053
C12_2 C 0.42151(18) 0.77561(18) 0.7439(2)
H7_2 H 0.4232 0.7410 0.7729
C13_2 C 0.34555(18) 0.78971(17) 0.6999(2)
H8_2 H 0.2977 0.7642 0.6991
C14_2 C 0.0658(2) 0.80023(18) 0.4854(2)
C15_2 C 0.0574(3) 0.7329(2) 0.4783(4)
H9_2 H 0.0997 0.7084 0.5027
C18_2 C 0.0003(3) 0.83326(19) 0.4497(3)
H12_2 H 0.0024 0.8791 0.4548
N2_2 N 0.20496(18) 0.80809(14) 0.5737(2)
H63_2 H 0.2093 0.7662 0.5764
N3_2 N 0.15190(19) 0.90275(15) 0.5407(2)
C58_2 C 0.9621(4) 0.5416(3) 0.7199(3)
H34_2 H 0.9344 0.5713 0.6892
C59_2 C 0.9496(3) 0.5380(2) 0.7829(2)
C60_2 C 0.9932(3) 0.4921(3) 0.8289(3)
C62_2 C 0.8916(2) 0.5844(2) 0.7988(2)
C66_2 C 0.9796(4) 0.4825(4) 0.8966(3)
H38_2 H 0.9383 0.5039 0.9071
C16_2 C 0.9854(3) 0.7015(2) 0.4343(3)
H10_2 H 0.9805 0.6554 0.4301
C17_2 C 0.9309(2) 0.7977(2) 0.4058(3)
H11_2 H 0.8875 0.8207 0.3807
C27 C 0.0672(2) 0.79871(18) 0.9925(2)
C28 C 0.0066(3) 0.8328(2) 0.9523(3)
H17 H 0.0116 0.8788 0.9562
C31 C 0.0538(3) 0.7319(2) 0.9883(3)
C27_2 C 0.9328(2) 0.20129(18) 0.0075(2)
C28_2 C 0.9934(3) 0.1672(2) 0.0477(3)
H17_2 H 0.9884 0.1212 0.0438
C31_2 C 0.9462(3) 0.2681(2) 0.0117(3)
loop_
_geom_bond_atom_site_label_1
_geom_bond_atom_site_label_2
_geom_bond_site_symmetry_1
_geom_bond_site_symmetry_2
H10 C16 1_555 1_555
C17 H11 1_555 1_555
N5 C16 1_555 1_555
Cd8 N5 1_555 1_555
C17 N5 1_555 1_555
H34 C58 1_555 1_555
C59 C58 1_555 1_555
C60 C59 1_555 1_555
C62 C59 1_555 1_555
C66 C60 1_555 1_555
H38 C66 1_555 1_555
O11 C62 1_555 1_555
O12 C62 1_555 1_555
Cd9 O11 1_555 1_555
O12 Cd9 1_555 1_555
C6 C3 1_555 1_555
C7 C6 1_555 1_555
C8 C14 1_555 1_555
C9 C7 1_555 1_555
C10 C9 1_555 1_555
H5 C10 1_555 1_555
C11 C10 1_555 1_555
H6 C11 1_555 1_555
C12 H7 1_555 1_555
C13 C9 1_555 1_555
H8 C13 1_555 1_555
C14 C15 1_555 1_555
C15 H9 1_555 1_555
C18 C14 1_555 1_555
H12 C18 1_555 1_555
N2 C7 1_555 1_555
H63 N2 1_555 1_555
N3 C6 1_555 1_555
N4 C11 1_555 1_555
Cd12 N4 1_555 1_555
C8 N2 1_555 1_555
C8 N3 1_555 1_555
C12 C13 1_555 1_555
C12 N4 1_555 1_555
Cd1 N1 1_555 1_555
Cd2 O2 1_555 1_555
Cd9 O3 1_555 1_555
Cd12 N6 1_555 1_555
C1 H1 1_555 1_555
C2 C1 1_555 1_555
H3 C4 1_555 1_555
C5 C4 1_555 1_555
H4 C5 1_555 1_555
C19 H13 1_555 1_555
C20 C19 1_555 1_555
H14 C20 1_555 1_555
H16 C23 1_555 1_555
C37 C38 1_555 1_555
C38 C39 1_555 1_555
C39 H25 1_555 1_555
C40 C39 1_555 1_555
H26 C40 1_555 1_555
C41 C40 1_555 1_555
C42 C41 1_555 1_555
C43 C44 1_555 1_555
C44 C45 1_555 1_555
C45 H27 1_555 1_555
C46 C45 1_555 1_555
H28 C46 1_555 1_555
C47 C46 1_555 1_555
C48 C47 1_555 1_555
C49 C44 1_555 1_555
C51 C49 1_555 1_555
H29 C51 1_555 1_555
C52 C51 1_555 1_555
H30 C52 1_555 1_555
C53 C52 1_555 1_555
H31 C53 1_555 1_555
C54 C48 1_555 1_555
C55 C56 1_555 1_555
C56 C57 1_555 1_555
C57 H33 1_555 1_555
C61 C56 1_555 1_555
C63 C61 1_555 1_555
H35 C63 1_555 1_555
C64 C63 1_555 1_555
H36 C64 1_555 1_555
C65 C64 1_555 1_555
H37 C65 1_555 1_555
C67 C68 1_555 1_555
C68 C69 1_555 1_555
C69 H39 1_555 1_555
C70 C69 1_555 1_555
H40 C70 1_555 1_555
C71 C70 1_555 1_555
C72 C71 1_555 1_555
C73 C68 1_555 1_555
C74 C71 1_555 1_555
C75 C72 1_555 1_555
H41 C75 1_555 1_555
C76 C75 1_555 1_555
H42 C76 1_555 1_555
C77 C76 1_555 1_555
H43 C77 1_555 1_555
C78 C73 1_555 1_555
H44 C78 1_555 1_555
C79 H45 1_555 1_555
C80 H46 1_555 1_555
H47 C80 1_555 1_555
H48 C80 1_555 1_555
C81 H49 1_555 1_555
H50 C81 1_555 1_555
H51 C81 1_555 1_555
C82 H52 1_555 1_555
C83 H53 1_555 1_555
C84 C83 1_555 1_555
H54 C84 1_555 1_555
C85 C84 1_555 1_555
H55 C85 1_555 1_555
C86 C41 1_555 1_555
C87 C38 1_555 1_555
C88 C83 1_555 1_555
H56 C88 1_555 1_555
N1 C1 1_555 1_555
N6 C19 1_555 1_555
N11 C79 1_555 1_555
N12 C82 1_555 1_555
O1 Cd1 1_555 1_555
O2 C37 1_555 1_555
O3 C42 1_555 1_555
O4 Cd12 1_555 1_555
O5 Cd1 1_555 1_555
O6 Cd2 1_555 1_555
O9 Cd2 1_555 1_555
O10 Cd2 1_555 1_555
O13 Cd9 1_555 1_555
O14 Cd12 1_555 1_555
O15 C74 1_555 1_555
O16 C74 1_555 1_555
O17 Cd1 1_555 1_555
O18 Cd12 1_555 1_555
Cd6 O16 1_555 1_555
Cd8 O15 1_555 1_555
N14 Cd2 1_555 1_555
N15 Cd9 1_555 1_555
N16 Cd1 1_555 1_555
O19 Cd9 1_555 1_555
O20 Cd9 1_555 1_555
O23 Cd2 1_555 1_555
O24 Cd1 1_555 1_555
Cd2 O24 1_555 1_555
Cd12 O19 1_555 1_555
C5 N1 1_555 1_555
C23 N6 1_555 1_555
C37 O1 1_555 1_555
C42 O4 1_555 1_555
C43 O5 1_555 1_555
C43 O6 1_555 1_555
C48 C49 1_555 1_555
C53 C54 1_555 1_555
C55 O9 1_555 1_555
C55 O10 1_555 1_555
C67 O13 1_555 1_555
C67 O14 1_555 1_555
C72 C73 1_555 1_555
C77 C78 1_555 1_555
C79 O17 1_555 1_555
C80 N11 1_555 1_555
C81 N11 1_555 1_555
C82 O18 1_555 1_555
C85 C86 1_555 1_555
C86 C87 1_555 1_555
C87 C88 1_555 1_555
O16 Cd8 1_555 1_555
C89 H57 1_555 1_555
H58 C89 1_555 1_555
H59 C89 1_555 1_555
C90 H60 1_555 1_555
H62 C90 1_555 1_555
O7 C50 1_555 1_555
O8 C50 1_555 1_555
Cd11 O7 1_555 1_555
Cd13 O7 1_555 1_555
O8 Cd11 1_555 1_555
C22 C21 1_555 1_555
H15 C22 1_555 1_555
C24 C21 1_555 1_555
C26 C24 1_555 1_555
C32 C26 1_555 1_555
C33 C32 1_555 1_555
H21 C33 1_555 1_555
C34 C33 1_555 1_555
H22 C34 1_555 1_555
C35 H23 1_555 1_555
C36 C32 1_555 1_555
H24 C36 1_555 1_555
N7 C24 1_555 1_555
N8 C25 1_555 1_555
H64 N8 1_555 1_555
N16 C34 1_555 1_555
C25 N7 1_555 1_555
C26 N8 1_555 1_555
C35 C36 1_555 1_555
C35 N16 1_555 1_555
H18 C29 1_555 1_555
C30 H19 1_555 1_555
N9 C29 1_555 1_555
Cd11 N9 1_555 1_555
C30 N9 1_555 1_555
H18_2 C29_2 1_555 1_555
C30_2 H19_2 1_555 1_555
N15 C29_2 1_555 1_555
C30_2 N15 1_555 1_555
C22_2 C21_2 1_555 1_555
H15_2 C22_2 1_555 1_555
C24_2 C21_2 1_555 1_555
C26_2 C24_2 1_555 1_555
C32_2 C26_2 1_555 1_555
C33_2 C32_2 1_555 1_555
H21_2 C33_2 1_555 1_555
C34_2 C33_2 1_555 1_555
H22_2 C34_2 1_555 1_555
C35_2 H23_2 1_555 1_555
C36_2 C32_2 1_555 1_555
H24_2 C36_2 1_555 1_555
N7_2 C24_2 1_555 1_555
N8_2 C25_2 1_555 1_555
H64_2 N8_2 1_555 1_555
N10 C34_2 1_555 1_555
Cd6 N10 1_555 1_555
C25_2 N7_2 1_555 1_555
C26_2 N8_2 1_555 1_555
C35_2 C36_2 1_555 1_555
C35_2 N10 1_555 1_555
C89_2 H57_2 1_555 1_555
H58_2 C89_2 1_555 1_555
H59_2 C89_2 1_555 1_555
C90_2 H60_2 1_555 1_555
H62_2 C90_2 1_555 1_555
O19 C50_2 1_555 1_555
O20 C50_2 1_555 1_555
Cd6 N1_2 1_555 1_555
Cd8 O2_2 1_555 1_555
Cd11 O3_2 1_555 1_555
Cd13 N6_2 1_555 1_555
C1_2 H1_2 1_555 1_555
C2_2 C1_2 1_555 1_555
H3_2 C4_2 1_555 1_555
C5_2 C4_2 1_555 1_555
H4_2 C5_2 1_555 1_555
C19_2 H13_2 1_555 1_555
C20_2 C19_2 1_555 1_555
H14_2 C20_2 1_555 1_555
H16_2 C23_2 1_555 1_555
C37_2 C38_2 1_555 1_555
C38_2 C39_2 1_555 1_555
C39_2 H25_2 1_555 1_555
C40_2 C39_2 1_555 1_555
H26_2 C40_2 1_555 1_555
C41_2 C40_2 1_555 1_555
C42_2 C41_2 1_555 1_555
C43_2 C44_2 1_555 1_555
C44_2 C45_2 1_555 1_555
C45_2 H27_2 1_555 1_555
C46_2 C45_2 1_555 1_555
H28_2 C46_2 1_555 1_555
C47_2 C46_2 1_555 1_555
C48_2 C47_2 1_555 1_555
C49_2 C44_2 1_555 1_555
C51_2 C49_2 1_555 1_555
H29_2 C51_2 1_555 1_555
C52_2 C51_2 1_555 1_555
H30_2 C52_2 1_555 1_555
C53_2 C52_2 1_555 1_555
H31_2 C53_2 1_555 1_555
C54_2 C48_2 1_555 1_555
C55_2 C56_2 1_555 1_555
C56_2 C57_2 1_555 1_555
C57_2 H33_2 1_555 1_555
C61_2 C56_2 1_555 1_555
C63_2 C61_2 1_555 1_555
H35_2 C63_2 1_555 1_555
C64_2 C63_2 1_555 1_555
H36_2 C64_2 1_555 1_555
C65_2 C64_2 1_555 1_555
H37_2 C65_2 1_555 1_555
C67_2 C68_2 1_555 1_555
C68_2 C69_2 1_555 1_555
C69_2 H39_2 1_555 1_555
C70_2 C69_2 1_555 1_555
H40_2 C70_2 1_555 1_555
C71_2 C70_2 1_555 1_555
C72_2 C71_2 1_555 1_555
C73_2 C68_2 1_555 1_555
C74_2 C71_2 1_555 1_555
C75_2 C72_2 1_555 1_555
H41_2 C75_2 1_555 1_555
C76_2 C75_2 1_555 1_555
H42_2 C76_2 1_555 1_555
C77_2 C76_2 1_555 1_555
H43_2 C77_2 1_555 1_555
C78_2 C73_2 1_555 1_555
H44_2 C78_2 1_555 1_555
C79_2 H45_2 1_555 1_555
C80_2 H46_2 1_555 1_555
H47_2 C80_2 1_555 1_555
H48_2 C80_2 1_555 1_555
C81_2 H49_2 1_555 1_555
H50_2 C81_2 1_555 1_555
H51_2 C81_2 1_555 1_555
C82_2 H52_2 1_555 1_555
C83_2 H53_2 1_555 1_555
C84_2 C83_2 1_555 1_555
H54_2 C84_2 1_555 1_555
C85_2 C84_2 1_555 1_555
H55_2 C85_2 1_555 1_555
C86_2 C41_2 1_555 1_555
C87_2 C38_2 1_555 1_555
C88_2 C83_2 1_555 1_555
H56_2 C88_2 1_555 1_555
N1_2 C1_2 1_555 1_555
N6_2 C19_2 1_555 1_555
N11_2 C79_2 1_555 1_555
N12_2 C82_2 1_555 1_555
O1_2 Cd6 1_555 1_555
O2_2 C37_2 1_555 1_555
O3_2 C42_2 1_555 1_555
O4_2 Cd13 1_555 1_555
O5_2 Cd6 1_555 1_555
O6_2 Cd8 1_555 1_555
O9_2 Cd8 1_555 1_555
O10_2 Cd8 1_555 1_555
O13_2 Cd11 1_555 1_555
O14_2 Cd13 1_555 1_555
O23 C74_2 1_555 1_555
O24 C74_2 1_555 1_555
O17_2 Cd6 1_555 1_555
O18_2 Cd13 1_555 1_555
N13 Cd13 1_555 1_555
O21 Cd11 1_555 1_555
O22 Cd11 1_555 1_555
C5_2 N1_2 1_555 1_555
C23_2 N6_2 1_555 1_555
C37_2 O1_2 1_555 1_555
C42_2 O4_2 1_555 1_555
C43_2 O5_2 1_555 1_555
C43_2 O6_2 1_555 1_555
C48_2 C49_2 1_555 1_555
C53_2 C54_2 1_555 1_555
C55_2 O9_2 1_555 1_555
C55_2 O10_2 1_555 1_555
C67_2 O13_2 1_555 1_555
C67_2 O14_2 1_555 1_555
C72_2 C73_2 1_555 1_555
C77_2 C78_2 1_555 1_555
C79_2 O17_2 1_555 1_555
C80_2 N11_2 1_555 1_555
C81_2 N11_2 1_555 1_555
C82_2 O18_2 1_555 1_555
C85_2 C86_2 1_555 1_555
C86_2 C87_2 1_555 1_555
C87_2 C88_2 1_555 1_555
C6_2 C3_2 1_555 1_555
C7_2 C6_2 1_555 1_555
C8_2 C14_2 1_555 1_555
C9_2 C7_2 1_555 1_555
C10_2 C9_2 1_555 1_555
H5_2 C10_2 1_555 1_555
C11_2 C10_2 1_555 1_555
H6_2 C11_2 1_555 1_555
C12_2 H7_2 1_555 1_555
C13_2 C9_2 1_555 1_555
H8_2 C13_2 1_555 1_555
C14_2 C15_2 1_555 1_555
C15_2 H9_2 1_555 1_555
C18_2 C14_2 1_555 1_555
H12_2 C18_2 1_555 1_555
N2_2 C7_2 1_555 1_555
H63_2 N2_2 1_555 1_555
N3_2 C6_2 1_555 1_555
N13 C11_2 1_555 1_555
C8_2 N2_2 1_555 1_555
C8_2 N3_2 1_555 1_555
C12_2 C13_2 1_555 1_555
C12_2 N13 1_555 1_555
H34_2 C58_2 1_555 1_555
C59_2 C58_2 1_555 1_555
C60_2 C59_2 1_555 1_555
C62_2 C59_2 1_555 1_555
C66_2 C60_2 1_555 1_555
H38_2 C66_2 1_555 1_555
O21 C62_2 1_555 1_555
O22 C62_2 1_555 1_555
H10_2 C16_2 1_555 1_555
C17_2 H11_2 1_555 1_555
N14 C16_2 1_555 1_555
C17_2 N14 1_555 1_555
C27 C28 1_555 1_555
C28 H17 1_555 1_555
C31 C27 1_555 1_555
C27_2 C28_2 1_555 1_555
C28_2 H17_2 1_555 1_555
C31_2 C27_2 1_555 1_555

#END
