
###############################################################################
#
# This file contains modified crystal structure data generated from the
# MOF subset of the Cambridge Structural Database (CSD) v543 
# hosted by the Cambridge Crystallographic Data Centre (CCDC).
#
# This work is licensed under the Creative Commons
# Attribution-NonCommercial-ShareAlike 4.0 International License.
# To view a copy of this license, visit
# http://creativecommons.org/licenses/by-nc-sa/4.0/
# or send a letter to
# Creative Commons, PO Box 1866, Mountain View, CA 94042, USA.
#
# CIF created using the CSD Python API on 29 September 2022
# The structure has been converted into the P1 space group
# The structure has a 3D framework
# The original CSD entry DENGAH is in the orthorhombic crystal system
# The original CSD entry DENGAH is in a Sohncke space group
# The framework has been calculated to contain at least 10.0% void space
# The void calculation uses a probe of radius 1.32A, grid spacing 0.4
#
###############################################################################

data_DENGAH
_chemical_formula_moiety         '(C24 H16 Mn4 N8 O15)n'
_symmetry_cell_setting           triclinic
_symmetry_space_group_name_H-M   'P 1'
_symmetry_Int_Tables_number      1
_space_group_name_Hall           'P 1'
loop_
_symmetry_equiv_pos_site_id
_symmetry_equiv_pos_as_xyz
1 x,y,z
_cell_length_a                   9.2234(18)
_cell_length_b                   9.795(2)
_cell_length_c                   10.601(2)
_cell_angle_alpha                90
_cell_angle_beta                 90
_cell_angle_gamma                90
_cell_volume                     957.728
loop_
_atom_site_label
_atom_site_type_symbol
_atom_site_fract_x
_atom_site_fract_y
_atom_site_fract_z
Mn1 Mn 0.5521(2) 0.5226(2) 0.3044(2)
N1 N 0.3783(12) 0.5280(13) 0.1317(10)
C1 C 0.3433(16) 0.4185(14) 0.0832(13)
O1 O 0.7109(13) 0.5745(13) 0.1598(11)
C2 C 0.7463(17) 0.5285(18) 0.0479(14)
H1 H 0.6974 0.4489 0.0260
O2 O 0.3986(12) 0.1968(9) 0.0941(12)
C3 C 0.4303(17) 0.3064(14) 0.1384(13)
O4 O 0.5235(10) 0.3286(10) 0.2280(10)
C6 C 0.3023(19) 0.6282(15) 0.0820(17)
H4 H 0.3224 0.7165 0.1091
Mn4 Mn 0.4479(2) 0.0226(2) 0.1956(2)
N3 N 0.3469(14) 0.5020(11) 0.4410(11)
O5 O 0.6014(12) 0.6968(9) 0.4059(12)
O6 O 0.6680(14) 0.4310(11) 0.4638(11)
N2 N 0.1531(14) 0.4980(11) 0.9410(11)
O3 O 0.8320(14) 0.5690(11) 0.9638(11)
C4 C 0.2329(18) 0.4006(14) 0.9880(15)
H2 H 0.2174 0.3126 0.9578
C5 C 0.191(2) 0.6112(18) 0.9894(16)
H3 H 0.1428 0.6892 0.9623
Mn3 Mn 0.9479(2) 0.4774(2) 0.8044(2)
N1_2 N 0.1217(12) 0.4720(13) 0.6317(10)
C1_2 C 0.1567(16) 0.5815(14) 0.5832(13)
O2_2 O 0.1014(12) 0.8032(9) 0.5941(12)
C3_2 C 0.0697(17) 0.6936(14) 0.6384(13)
C4_2 C 0.2671(18) 0.5994(14) 0.4880(15)
H2_2 H 0.2826 0.6874 0.4578
C5_2 C 0.309(2) 0.3888(18) 0.4894(16)
H3_2 H 0.3572 0.3108 0.4623
C6_2 C 0.1977(19) 0.3718(15) 0.5820(17)
H4_2 H 0.1776 0.2835 0.6091
Mn4_2 Mn 0.0521(2) 0.9774(2) 0.6956(2)
O1_2 O 0.7891(13) 0.4255(13) 0.6598(11)
C2_2 C 0.7537(17) 0.4715(18) 0.5479(14)
H1_2 H 0.8026 0.5511 0.5260
O4_2 O 0.9765(10) 0.6714(10) 0.7280(10)
O5_2 O 0.8986(12) 0.3032(9) 0.9059(12)
N1_3 N 0.6217(12) 0.0280(13) 0.3683(10)
O1_3 O 0.2891(13) 0.0745(13) 0.3402(11)
C2_3 C 0.2537(17) 0.0285(18) 0.4521(14)
O3_2 O 0.1680(14) 0.0690(11) 0.5362(11)
C5_3 C 0.809(2) 0.1112(18) 0.5106(16)
H3_3 H 0.8572 0.1892 0.5377
C6_3 C 0.6977(19) 0.1282(15) 0.4180(17)
H4_3 H 0.6776 0.2165 0.3909
N3_2 N 0.6531(14) 0.0020(11) 0.0590(11)
C1_3 C 0.6567(16) 0.9185(14) 0.4168(13)
N2_2 N 0.8469(14) 0.9980(11) 0.5590(11)
H1_3 H 0.3026 0.9489 0.4740
C3_3 C 0.5697(17) 0.8064(14) 0.3616(13)
C4_3 C 0.7671(18) 0.9006(14) 0.5120(15)
H2_3 H 0.7826 0.8126 0.5422
O4_3 O 0.4765(10) 0.8286(10) 0.2720(10)
O6_2 O 0.3320(14) 0.9310(11) 0.0362(11)
H1_4 H 0.1974 0.0511 0.9740
O4_4 O 0.0235(10) 0.1714(10) 0.7720(10)
O1_4 O 0.2109(13) 0.9255(13) 0.8402(11)
C2_4 C 0.2463(17) 0.9715(18) 0.9521(14)
C4_4 C 0.7329(18) 0.0994(14) 0.0120(15)
H2_4 H 0.7174 0.1874 0.0422
C1_4 C 0.8433(16) 0.0815(14) 0.9168(13)
C3_4 C 0.9303(17) 0.1936(14) 0.8616(13)
N1_4 N 0.8783(12) 0.9720(13) 0.8683(10)
C6_4 C 0.8023(19) 0.8718(15) 0.9180(17)
H4_4 H 0.8224 0.7835 0.8909
C5_4 C 0.691(2) 0.8888(18) 0.0106(16)
H3_4 H 0.6428 0.8108 0.0377
loop_
_geom_bond_atom_site_label_1
_geom_bond_atom_site_label_2
_geom_bond_site_symmetry_1
_geom_bond_site_symmetry_2
Mn1 N1 1_555 1_555
N1 C1 1_555 1_555
C1 C3 1_555 1_555
O1 Mn1 1_555 1_555
C2 O1 1_555 1_555
H1 C2 1_555 1_555
O2 C3 1_555 1_555
C3 O4 1_555 1_555
O4 Mn1 1_555 1_555
C6 N1 1_555 1_555
H4 C6 1_555 1_555
Mn4 O2 1_555 1_555
N3 Mn1 1_555 1_555
O5 Mn1 1_555 1_555
O6 Mn1 1_555 1_555
N2 C4 1_555 1_555
H2 C4 1_555 1_555
C5 N2 1_555 1_555
H3 C5 1_555 1_555
Mn3 O3 1_555 1_555
N1_2 C1_2 1_555 1_555
C1_2 C3_2 1_555 1_555
N3 C4_2 1_555 1_555
O2_2 C3_2 1_555 1_555
C4_2 C1_2 1_555 1_555
H2_2 C4_2 1_555 1_555
C5_2 N3 1_555 1_555
H3_2 C5_2 1_555 1_555
C6_2 N1_2 1_555 1_555
H4_2 C6_2 1_555 1_555
Mn4_2 O2_2 1_555 1_555
C5_2 C6_2 1_555 1_555
O1_2 Mn3 1_555 1_555
C2_2 O1_2 1_555 1_555
H1_2 C2_2 1_555 1_555
O6 C2_2 1_555 1_555
O4_2 Mn3 1_555 1_555
O5_2 Mn3 1_555 1_555
Mn4 N1_3 1_555 1_555
O1_3 Mn4 1_555 1_555
C2_3 O1_3 1_555 1_555
O3_2 C2_3 1_555 1_555
H3_3 C5_3 1_555 1_555
C6_3 N1_3 1_555 1_555
H4_3 C6_3 1_555 1_555
N3_2 Mn4 1_555 1_555
C5_3 C6_3 1_555 1_555
C1_3 C3_3 1_555 1_555
N2_2 C4_3 1_555 1_555
O5 C3_3 1_555 1_555
C3_3 O4_3 1_555 1_555
C4_3 C1_3 1_555 1_555
H2_3 C4_3 1_555 1_555
O1_4 Mn4_2 1_555 1_555
C2_4 O1_4 1_555 1_555
N3_2 C4_4 1_555 1_555
H2_4 C4_4 1_555 1_555
C1_4 C3_4 1_555 1_555
O5_2 C3_4 1_555 1_555
C6_4 N1_4 1_555 1_555
H4_4 C6_4 1_555 1_555
H3_4 C5_4 1_555 1_555

#END
