
###############################################################################
#
# This file contains modified crystal structure data generated from the
# MOF subset of the Cambridge Structural Database (CSD) v543 
# hosted by the Cambridge Crystallographic Data Centre (CCDC).
#
# This work is licensed under the Creative Commons
# Attribution-NonCommercial-ShareAlike 4.0 International License.
# To view a copy of this license, visit
# http://creativecommons.org/licenses/by-nc-sa/4.0/
# or send a letter to
# Creative Commons, PO Box 1866, Mountain View, CA 94042, USA.
#
# CIF created using the CSD Python API on 29 September 2022
# The structure has been converted into the P1 space group
# The structure has a 3D framework
# The original CSD entry DEQMOE is in the orthorhombic crystal system
# The framework has been calculated to contain at least 10.0% void space
# The void calculation uses a probe of radius 1.32A, grid spacing 0.4
# The framework is charged, counterions have been retained in the structure
#
###############################################################################

data_DEQMOE
_chemical_formula_moiety         '(C224 H128 Co8 Mg4 O60 6-)n'
_symmetry_cell_setting           triclinic
_symmetry_space_group_name_H-M   'P 1'
_symmetry_Int_Tables_number      1
_space_group_name_Hall           'P 1'
loop_
_symmetry_equiv_pos_site_id
_symmetry_equiv_pos_as_xyz
1 x,y,z
_cell_length_a                   26.0566(7)
_cell_length_b                   22.3986(6)
_cell_length_c                   13.8669(4)
_cell_angle_alpha                90
_cell_angle_beta                 90
_cell_angle_gamma                90
_cell_volume                     8093.16
loop_
_atom_site_label
_atom_site_type_symbol
_atom_site_fract_x
_atom_site_fract_y
_atom_site_fract_z
O9 O 0.09907(8) 0.00250(8) 0.25149(14)
Co4 Co 0.09392(2) 0.08935(2) 0.22701(2)
O11 O 0.10745(7) 0.09573(6) 0.08169(11)
O12 O 0.09317(5) 0.18142(6) 0.15012(9)
C36 C 0.10297(8) 0.15182(9) 0.07590(14)
H24 H 0.089202 0.264282 0.023912
Mg2 Mg 0.09439(3) 0.250000 0.250000
Co1 Co 0.09392(2) 0.41065(2) 0.27299(2)
O1 O 0.15844(5) 0.39074(6) 0.20498(12)
O2 O 0.15021(6) 0.29287(7) 0.17554(11)
O5 O 0.09907(8) 0.49750(8) 0.24851(14)
O6 O 0.02754(11) 0.50172(10) 0.3259(2)
O7 O 0.10745(7) 0.40427(6) 0.41831(11)
O8 O 0.09317(5) 0.31858(6) 0.34988(9)
C1 C 0.17303(8) 0.34149(9) 0.16980(15)
C2 C 0.22289(8) 0.34193(10) 0.11563(17)
C3 C 0.24822(9) 0.39527(10) 0.0958(2)
H1 H 0.233889 0.431295 0.115495
C4 C 0.29465(9) 0.39507(11) 0.0471(2)
H2 H 0.311057 0.431053 0.034055
C5 C 0.31691(9) 0.34215(11) 0.0175(2)
C6 C 0.29101(10) 0.28899(11) 0.0363(2)
H3 H 0.305329 0.252929 0.016707
C7 C 0.24430(10) 0.28914(11) 0.0836(2)
H4 H 0.227116 0.253317 0.093880
H8 H 0.391293 0.261134 0.015424
C15 C 0.06367(12) 0.52577(12) 0.2830(2)
C16 C 0.06417(12) 0.59319(12) 0.2725(2)
C17 C 0.02211(14) 0.62626(14) 0.2980(3)
C18 C 0.02253(14) 0.68736(14) 0.2878(3)
C19 C 0.06783(14) 0.71698(11) 0.2546(2)
C20 C 0.10849(14) 0.68299(14) 0.2319(3)
H11 H 0.138377 0.701394 0.210469
C21 C 0.10730(13) 0.62031(13) 0.2397(3)
H12 H 0.135814 0.597737 0.222420
C22 C 0.10297(8) 0.34818(9) 0.42410(14)
C23 C 0.10809(9) 0.31852(9) 0.52001(14)
C24 C 0.12275(11) 0.35150(10) 0.60074(16)
H13 H 0.130366 0.391875 0.594414
C25 C 0.12600(12) 0.32443(10) 0.69018(16)
H14 H 0.136307 0.346677 0.743390
C26 C 0.11403(10) 0.26429(10) 0.70144(15)
C27 C 0.10039(10) 0.23150(10) 0.61986(15)
H15 H 0.092904 0.191080 0.625898
C28 C 0.09784(9) 0.25833(10) 0.52995(15)
H16 H 0.089202 0.235718 0.476088
O10 O 0.02754(11) 0.99828(10) 0.1741(2)
C29 C 0.06367(12) 0.97423(12) 0.2170(2)
C30 C 0.06417(12) 0.90681(12) 0.2275(2)
C31 C 0.02211(14) 0.87374(14) 0.2020(3)
C32 C 0.02253(14) 0.81264(14) 0.2122(3)
C33 C 0.06783(14) 0.78302(11) 0.2454(2)
C34 C 0.10849(14) 0.81701(14) 0.2681(3)
H19 H 0.138377 0.798606 0.289531
C35 C 0.10730(13) 0.87969(13) 0.2603(3)
H20 H 0.135814 0.902263 0.277580
C37 C 0.10809(9) 0.18148(9) 0.97999(14)
C38 C 0.12275(11) 0.14850(10) 0.89926(16)
H21 H 0.130366 0.108125 0.905586
C39 C 0.12600(12) 0.17557(10) 0.80982(16)
H22 H 0.136307 0.153323 0.756610
C40 C 0.11403(10) 0.23571(10) 0.79856(15)
C41 C 0.10039(10) 0.26850(10) 0.88014(15)
H23 H 0.092904 0.308920 0.874102
C42 C 0.09784(9) 0.24167(10) 0.97005(15)
O13 O 0.15844(5) 0.10926(6) 0.29502(12)
O14 O 0.15021(6) 0.20713(7) 0.32446(11)
O15 O 0.53048(6) 0.11031(7) 0.70443(17)
O16 O 0.53862(6) 0.20777(7) 0.67352(11)
C43 C 0.17303(8) 0.15851(9) 0.33020(15)
C44 C 0.22289(8) 0.15807(10) 0.38437(17)
C45 C 0.24822(9) 0.10473(10) 0.4042(2)
H25 H 0.233889 0.068705 0.384505
C46 C 0.29465(9) 0.10493(11) 0.4529(2)
H26 H 0.311057 0.068947 0.465945
C47 C 0.31691(9) 0.15785(11) 0.4825(2)
C48 C 0.29101(10) 0.21101(11) 0.4637(2)
H27 H 0.305329 0.247071 0.483293
C49 C 0.24430(10) 0.21086(11) 0.4164(2)
H28 H 0.227116 0.246683 0.406120
C50 C 0.36788(9) 0.15863(11) 0.5316(2)
C51 C 0.38316(12) 0.11142(14) 0.5891(4)
H29 H 0.361396 0.078897 0.597211
C52 C 0.43036(12) 0.11188(14) 0.6349(3)
H30 H 0.439756 0.080196 0.674496
C53 C 0.46366(9) 0.15948(10) 0.6219(2)
C54 C 0.44817(10) 0.20654(11) 0.5680(2)
H31 H 0.469586 0.239523 0.561662
C55 C 0.40087(10) 0.20634(12) 0.5222(3)
H32 H 0.391293 0.238866 0.484576
C56 C 0.51543(8) 0.15971(10) 0.67051(18)
Co6 Co 0.59392(2) 0.08935(2) 0.77299(2)
Mg4 Mg 0.59439(3) 0.250000 0.750000
O17 O 0.03048(6) 0.38969(7) 0.20443(17)
O18 O 0.03048(6) 0.11031(7) 0.29557(17)
O19 O 0.03862(6) 0.29223(7) 0.17352(11)
O20 O 0.03862(6) 0.20777(7) 0.32648(11)
O3 O 0.53048(6) 0.38969(7) 0.79557(17)
O4 O 0.53862(6) 0.29223(7) 0.82648(11)
C8 C 0.36788(9) 0.34137(11) 0.9684(2)
C9 C 0.38316(12) 0.38858(14) 0.9109(4)
H5 H 0.361396 0.421103 0.902789
C10 C 0.43036(12) 0.38812(14) 0.8651(3)
H6 H 0.439756 0.419804 0.825504
C11 C 0.46366(9) 0.34052(10) 0.8781(2)
C12 C 0.44817(10) 0.29346(11) 0.9320(2)
H7 H 0.469586 0.260477 0.938338
C13 C 0.40087(10) 0.29366(12) 0.9778(3)
C14 C 0.51543(8) 0.34029(10) 0.82949(18)
Co5 Co 0.59392(2) 0.41065(2) 0.72701(2)
C14_2 C 0.01543(8) 0.34029(10) 0.17051(18)
C56_2 C 0.01543(8) 0.15971(10) 0.32949(18)
O9_2 O 0.59907(8) 0.00250(8) 0.74851(14)
C8_2 C 0.86788(9) 0.34137(11) 0.0316(2)
C9_2 C 0.88316(12) 0.38858(14) 0.0891(4)
H5_2 H 0.861396 0.421103 0.097211
C10_2 C 0.93036(12) 0.38812(14) 0.1349(3)
H6_2 H 0.939756 0.419804 0.174496
C11_2 C 0.96366(9) 0.34052(10) 0.1219(2)
C12_2 C 0.94817(10) 0.29346(11) 0.0680(2)
H7_2 H 0.969586 0.260477 0.061662
C13_2 C 0.90087(10) 0.29366(12) 0.0222(3)
O1_2 O 0.65844(5) 0.39074(6) 0.79502(12)
O2_2 O 0.65021(6) 0.29287(7) 0.82446(11)
O5_2 O 0.59907(8) 0.49750(8) 0.75149(14)
O6_2 O 0.52754(11) 0.50172(10) 0.6741(2)
O7_2 O 0.60745(7) 0.40427(6) 0.58169(11)
O8_2 O 0.59317(5) 0.31858(6) 0.65012(9)
C1_2 C 0.67303(8) 0.34149(9) 0.83020(15)
C2_2 C 0.72289(8) 0.34193(10) 0.88437(17)
C3_2 C 0.74822(9) 0.39527(10) 0.9042(2)
H1_2 H 0.733889 0.431295 0.884505
C4_2 C 0.79465(9) 0.39507(11) 0.9529(2)
H2_2 H 0.811057 0.431053 0.965945
C5_2 C 0.81691(9) 0.34215(11) 0.9825(2)
C6_2 C 0.79101(10) 0.28899(11) 0.9637(2)
H3_2 H 0.805329 0.252929 0.983293
C7_2 C 0.74430(10) 0.28914(11) 0.9164(2)
H4_2 H 0.727116 0.253317 0.906120
H8_2 H 0.891293 0.261134 0.984576
C15_2 C 0.56367(12) 0.52577(12) 0.7170(2)
C16_2 C 0.56417(12) 0.59319(12) 0.7275(2)
C17_2 C 0.52211(14) 0.62626(14) 0.7020(3)
H9 H 0.493086 0.607319 0.677790
C18_2 C 0.52253(14) 0.68736(14) 0.7122(3)
H10 H 0.493327 0.709421 0.697440
C19_2 C 0.56783(14) 0.71698(11) 0.7454(2)
C20_2 C 0.60849(14) 0.68299(14) 0.7681(3)
H11_2 H 0.638377 0.701394 0.789531
C21_2 C 0.60730(13) 0.62031(13) 0.7603(3)
H12_2 H 0.635814 0.597737 0.777580
C22_2 C 0.60297(8) 0.34818(9) 0.57590(14)
C23_2 C 0.60809(9) 0.31852(9) 0.47999(14)
C24_2 C 0.62275(11) 0.35150(10) 0.39926(16)
H13_2 H 0.630366 0.391875 0.405586
C25_2 C 0.62600(12) 0.32443(10) 0.30982(16)
H14_2 H 0.636307 0.346677 0.256610
C26_2 C 0.61403(10) 0.26429(10) 0.29856(15)
C27_2 C 0.60039(10) 0.23150(10) 0.38014(15)
H15_2 H 0.592904 0.191080 0.374102
C28_2 C 0.59784(9) 0.25833(10) 0.47005(15)
H16_2 H 0.589202 0.235718 0.523912
O10_2 O 0.52754(11) 0.99828(10) 0.8259(2)
C29_2 C 0.56367(12) 0.97423(12) 0.7830(2)
C30_2 C 0.56417(12) 0.90681(12) 0.7725(2)
C31_2 C 0.52211(14) 0.87374(14) 0.7980(3)
H17 H 0.493086 0.892681 0.822210
C32_2 C 0.52253(14) 0.81264(14) 0.7878(3)
H18 H 0.493327 0.790579 0.802560
C33_2 C 0.56783(14) 0.78302(11) 0.7546(2)
C34_2 C 0.60849(14) 0.81701(14) 0.7319(3)
H19_2 H 0.638377 0.798606 0.710469
C35_2 C 0.60730(13) 0.87969(13) 0.7397(3)
H20_2 H 0.635814 0.902263 0.722420
C37_2 C 0.60809(9) 0.18148(9) 0.02001(14)
C38_2 C 0.62275(11) 0.14850(10) 0.10074(16)
H21_2 H 0.630366 0.108125 0.094414
C39_2 C 0.62600(12) 0.17557(10) 0.19018(16)
H22_2 H 0.636307 0.153323 0.243390
C40_2 C 0.61403(10) 0.23571(10) 0.20144(15)
C41_2 C 0.60039(10) 0.26850(10) 0.11986(15)
H23_2 H 0.592904 0.308920 0.125898
C42_2 C 0.59784(9) 0.24167(10) 0.02995(15)
O13_2 O 0.65844(5) 0.10926(6) 0.70498(12)
O14_2 O 0.65021(6) 0.20713(7) 0.67554(11)
C43_2 C 0.67303(8) 0.15851(9) 0.66980(15)
C44_2 C 0.72289(8) 0.15807(10) 0.61563(17)
C45_2 C 0.74822(9) 0.10473(10) 0.5958(2)
H25_2 H 0.733889 0.068705 0.615495
C46_2 C 0.79465(9) 0.10493(11) 0.5471(2)
H26_2 H 0.811057 0.068947 0.534055
C47_2 C 0.81691(9) 0.15785(11) 0.5175(2)
C48_2 C 0.79101(10) 0.21101(11) 0.5363(2)
H27_2 H 0.805329 0.247071 0.516707
C49_2 C 0.74430(10) 0.21086(11) 0.5836(2)
H28_2 H 0.727116 0.246683 0.593880
C50_2 C 0.86788(9) 0.15863(11) 0.4684(2)
C51_2 C 0.88316(12) 0.11142(14) 0.4109(4)
H29_2 H 0.861396 0.078897 0.402789
C52_2 C 0.93036(12) 0.11188(14) 0.3651(3)
H30_2 H 0.939756 0.080196 0.325504
C53_2 C 0.96366(9) 0.15948(10) 0.3781(2)
C54_2 C 0.94817(10) 0.20654(11) 0.4320(2)
H31_2 H 0.969586 0.239523 0.438338
C55_2 C 0.90087(10) 0.20634(12) 0.4778(3)
H32_2 H 0.891293 0.238866 0.515424
O22 O 0.60745(7) 0.09573(6) 0.91831(11)
O23 O 0.59317(5) 0.18142(6) 0.84988(9)
C36_2 C 0.60297(8) 0.15182(9) 0.92410(14)
H24_2 H 0.589202 0.264282 0.976088
H9_2 H 0.993086 0.607319 0.322210
H10_2 H 0.993327 0.709421 0.302560
H17_2 H 0.993086 0.892681 0.177790
H18_2 H 0.993327 0.790579 0.197440
O11_2 O 0.39255(7) 0.90427(6) 0.08169(11)
O12_2 O 0.40683(5) 0.81858(6) 0.15012(9)
C36_3 C 0.39703(8) 0.84818(9) 0.07590(14)
H24_3 H 0.410798 0.735718 0.023912
Co3 Co 0.40608(2) 0.91065(2) 0.22701(2)
Mg2_2 Mg 0.40561(3) 0.750000 0.250000
Co1_2 Co 0.40608(2) 0.58935(2) 0.27299(2)
O1_3 O 0.34156(5) 0.60926(6) 0.20498(12)
O2_3 O 0.34979(6) 0.70713(7) 0.17554(11)
O5_3 O 0.40093(8) 0.50250(8) 0.24851(14)
O6_3 O 0.47246(11) 0.49828(10) 0.3259(2)
O7_3 O 0.39255(7) 0.59573(6) 0.41831(11)
O8_3 O 0.40683(5) 0.68142(6) 0.34988(9)
C1_3 C 0.32697(8) 0.65851(9) 0.16980(15)
C2_3 C 0.27711(8) 0.65807(10) 0.11563(17)
C3_3 C 0.25178(9) 0.60473(10) 0.0958(2)
H1_3 H 0.266111 0.568705 0.115495
C4_3 C 0.20535(9) 0.60493(11) 0.0471(2)
H2_3 H 0.188943 0.568947 0.034055
C5_3 C 0.18309(9) 0.65785(11) 0.0175(2)
C6_3 C 0.20899(10) 0.71101(11) 0.0363(2)
H3_3 H 0.194671 0.747071 0.016707
C7_3 C 0.25570(10) 0.71086(11) 0.0836(2)
H4_3 H 0.272884 0.746683 0.093880
H8_3 H 0.108707 0.738866 0.015424
C15_3 C 0.43633(12) 0.47423(12) 0.2830(2)
C16_3 C 0.43583(12) 0.40681(12) 0.2725(2)
C17_3 C 0.47789(14) 0.37374(14) 0.2980(3)
H9_3 H 0.506914 0.392681 0.322210
C18_3 C 0.47747(14) 0.31264(14) 0.2878(3)
H10_3 H 0.506673 0.290579 0.302560
C19_3 C 0.43217(14) 0.28302(11) 0.2546(2)
C20_3 C 0.39151(14) 0.31701(14) 0.2319(3)
H11_3 H 0.361623 0.298606 0.210469
C21_3 C 0.39270(13) 0.37969(13) 0.2397(3)
H12_3 H 0.364186 0.402263 0.222420
C22_3 C 0.39703(8) 0.65182(9) 0.42410(14)
C23_3 C 0.39191(9) 0.68148(9) 0.52001(14)
C24_3 C 0.37725(11) 0.64850(10) 0.60074(16)
H13_3 H 0.369634 0.608125 0.594414
C25_3 C 0.37400(12) 0.67557(10) 0.69018(16)
H14_3 H 0.363693 0.653323 0.743390
C26_3 C 0.38597(10) 0.73571(10) 0.70144(15)
C27_3 C 0.39961(10) 0.76850(10) 0.61986(15)
H15_3 H 0.407096 0.808920 0.625898
C28_3 C 0.40216(9) 0.74167(10) 0.52995(15)
H16_3 H 0.410798 0.764282 0.476088
O10_3 O 0.47246(11) 0.00172(10) 0.1741(2)
C29_3 C 0.43633(12) 0.02577(12) 0.2170(2)
C30_3 C 0.43583(12) 0.09319(12) 0.2275(2)
C31_3 C 0.47789(14) 0.12626(14) 0.2020(3)
H17_3 H 0.506914 0.107319 0.177790
C32_3 C 0.47747(14) 0.18736(14) 0.2122(3)
H18_3 H 0.506673 0.209421 0.197440
C33_3 C 0.43217(14) 0.21698(11) 0.2454(2)
C34_3 C 0.39151(14) 0.18299(14) 0.2681(3)
H19_3 H 0.361623 0.201394 0.289531
C35_3 C 0.39270(13) 0.12031(13) 0.2603(3)
H20_3 H 0.364186 0.097737 0.277580
C37_3 C 0.39191(9) 0.81852(9) 0.97999(14)
C38_3 C 0.37725(11) 0.85150(10) 0.89926(16)
H21_3 H 0.369634 0.891875 0.905586
C39_3 C 0.37400(12) 0.82443(10) 0.80982(16)
H22_3 H 0.363693 0.846677 0.756610
C40_3 C 0.38597(10) 0.76429(10) 0.79856(15)
C41_3 C 0.39961(10) 0.73150(10) 0.88014(15)
H23_3 H 0.407096 0.691080 0.874102
C42_3 C 0.40216(9) 0.75833(10) 0.97005(15)
O13_3 O 0.34156(5) 0.89074(6) 0.29502(12)
O14_3 O 0.34979(6) 0.79287(7) 0.32446(11)
C43_3 C 0.32697(8) 0.84149(9) 0.33020(15)
C44_3 C 0.27711(8) 0.84193(10) 0.38437(17)
C45_3 C 0.25178(9) 0.89527(10) 0.4042(2)
H25_3 H 0.266111 0.931295 0.384505
C46_3 C 0.20535(9) 0.89507(11) 0.4529(2)
H26_3 H 0.188943 0.931053 0.465945
C47_3 C 0.18309(9) 0.84215(11) 0.4825(2)
C48_3 C 0.20899(10) 0.78899(11) 0.4637(2)
H27_3 H 0.194671 0.752929 0.483293
C49_3 C 0.25570(10) 0.78914(11) 0.4164(2)
H28_3 H 0.272884 0.753317 0.406120
C50_3 C 0.13212(9) 0.84137(11) 0.5316(2)
C51_3 C 0.11684(12) 0.88858(14) 0.5891(4)
H29_3 H 0.138604 0.921103 0.597211
C52_3 C 0.06964(12) 0.88812(14) 0.6349(3)
H30_3 H 0.060244 0.919804 0.674496
C53_3 C 0.03634(9) 0.84052(10) 0.6219(2)
C54_3 C 0.05183(10) 0.79346(11) 0.5680(2)
H31_3 H 0.030414 0.760477 0.561662
C55_3 C 0.09913(10) 0.79366(12) 0.5222(3)
H32_3 H 0.108707 0.761134 0.484576
O17_2 O 0.46952(6) 0.61031(7) 0.20443(17)
O18_2 O 0.46952(6) 0.88969(7) 0.29557(17)
O19_2 O 0.46138(6) 0.70777(7) 0.17352(11)
O20_2 O 0.46138(6) 0.79223(7) 0.32648(11)
O21 O 0.40093(8) 0.99750(8) 0.25149(14)
C8_3 C 0.13212(9) 0.65863(11) 0.9684(2)
C9_3 C 0.11684(12) 0.61142(14) 0.9109(4)
H5_3 H 0.138604 0.578897 0.902789
C10_3 C 0.06964(12) 0.61188(14) 0.8651(3)
H6_3 H 0.060244 0.580196 0.825504
C11_3 C 0.03634(9) 0.65948(10) 0.8781(2)
C12_3 C 0.05183(10) 0.70654(11) 0.9320(2)
H7_3 H 0.030414 0.739523 0.938338
C13_3 C 0.09913(10) 0.70634(12) 0.9778(3)
O15_2 O 0.96952(6) 0.88969(7) 0.70443(17)
O16_2 O 0.96138(6) 0.79223(7) 0.67352(11)
C56_3 C 0.98457(8) 0.84029(10) 0.67051(18)
Co6_2 Co 0.90608(2) 0.91065(2) 0.77299(2)
Mg4_2 Mg 0.90561(3) 0.750000 0.750000
O3_2 O 0.96952(6) 0.61031(7) 0.79557(17)
O4_2 O 0.96138(6) 0.70777(7) 0.82648(11)
C14_3 C 0.98457(8) 0.65971(10) 0.82949(18)
Co5_2 Co 0.90608(2) 0.58935(2) 0.72701(2)
C8_4 C 0.63212(9) 0.65863(11) 0.0316(2)
C9_4 C 0.61684(12) 0.61142(14) 0.0891(4)
H5_4 H 0.638604 0.578897 0.097211
C10_4 C 0.56964(12) 0.61188(14) 0.1349(3)
H6_4 H 0.560244 0.580196 0.174496
C11_4 C 0.53634(9) 0.65948(10) 0.1219(2)
C12_4 C 0.55183(10) 0.70654(11) 0.0680(2)
H7_4 H 0.530414 0.739523 0.061662
C13_4 C 0.59913(10) 0.70634(12) 0.0222(3)
C14_4 C 0.48457(8) 0.65971(10) 0.17051(18)
O1_4 O 0.84156(5) 0.60926(6) 0.79502(12)
O2_4 O 0.84979(6) 0.70713(7) 0.82446(11)
O5_4 O 0.90093(8) 0.50250(8) 0.75149(14)
O6_4 O 0.97246(11) 0.49828(10) 0.6741(2)
O7_4 O 0.89255(7) 0.59573(6) 0.58169(11)
O8_4 O 0.90683(5) 0.68142(6) 0.65012(9)
C1_4 C 0.82697(8) 0.65851(9) 0.83020(15)
C2_4 C 0.77711(8) 0.65807(10) 0.88437(17)
C3_4 C 0.75178(9) 0.60473(10) 0.9042(2)
H1_4 H 0.766111 0.568705 0.884505
C4_4 C 0.70535(9) 0.60493(11) 0.9529(2)
H2_4 H 0.688943 0.568947 0.965945
C5_4 C 0.68309(9) 0.65785(11) 0.9825(2)
C6_4 C 0.70899(10) 0.71101(11) 0.9637(2)
H3_4 H 0.694671 0.747071 0.983293
C7_4 C 0.75570(10) 0.71086(11) 0.9164(2)
H4_4 H 0.772884 0.746683 0.906120
H8_4 H 0.608707 0.738866 0.984576
C15_4 C 0.93633(12) 0.47423(12) 0.7170(2)
C16_4 C 0.93583(12) 0.40681(12) 0.7275(2)
C17_4 C 0.97789(14) 0.37374(14) 0.7020(3)
C18_4 C 0.97747(14) 0.31264(14) 0.7122(3)
C19_4 C 0.93217(14) 0.28302(11) 0.7454(2)
C20_4 C 0.89151(14) 0.31701(14) 0.7681(3)
H11_4 H 0.861623 0.298606 0.789531
C21_4 C 0.89270(13) 0.37969(13) 0.7603(3)
H12_4 H 0.864186 0.402263 0.777580
C22_4 C 0.89703(8) 0.65182(9) 0.57590(14)
C23_4 C 0.89191(9) 0.68148(9) 0.47999(14)
C24_4 C 0.87725(11) 0.64850(10) 0.39926(16)
H13_4 H 0.869634 0.608125 0.405586
C25_4 C 0.87400(12) 0.67557(10) 0.30982(16)
H14_4 H 0.863693 0.653323 0.256610
C26_4 C 0.88597(10) 0.73571(10) 0.29856(15)
C27_4 C 0.89961(10) 0.76850(10) 0.38014(15)
H15_4 H 0.907096 0.808920 0.374102
C28_4 C 0.90216(9) 0.74167(10) 0.47005(15)
H16_4 H 0.910798 0.764282 0.523912
O10_4 O 0.97246(11) 0.00172(10) 0.8259(2)
C29_4 C 0.93633(12) 0.02577(12) 0.7830(2)
C30_4 C 0.93583(12) 0.09319(12) 0.7725(2)
C31_4 C 0.97789(14) 0.12626(14) 0.7980(3)
C32_4 C 0.97747(14) 0.18736(14) 0.7878(3)
C33_4 C 0.93217(14) 0.21698(11) 0.7546(2)
C34_4 C 0.89151(14) 0.18299(14) 0.7319(3)
H19_4 H 0.861623 0.201394 0.710469
C35_4 C 0.89270(13) 0.12031(13) 0.7397(3)
H20_4 H 0.864186 0.097737 0.722420
C37_4 C 0.89191(9) 0.81852(9) 0.02001(14)
C38_4 C 0.87725(11) 0.85150(10) 0.10074(16)
H21_4 H 0.869634 0.891875 0.094414
C39_4 C 0.87400(12) 0.82443(10) 0.19018(16)
H22_4 H 0.863693 0.846677 0.243390
C40_4 C 0.88597(10) 0.76429(10) 0.20144(15)
C41_4 C 0.89961(10) 0.73150(10) 0.11986(15)
H23_4 H 0.907096 0.691080 0.125898
C42_4 C 0.90216(9) 0.75833(10) 0.02995(15)
O13_4 O 0.84156(5) 0.89074(6) 0.70498(12)
O14_4 O 0.84979(6) 0.79287(7) 0.67554(11)
C43_4 C 0.82697(8) 0.84149(9) 0.66980(15)
C44_4 C 0.77711(8) 0.84193(10) 0.61563(17)
C45_4 C 0.75178(9) 0.89527(10) 0.5958(2)
H25_4 H 0.766111 0.931295 0.615495
C46_4 C 0.70535(9) 0.89507(11) 0.5471(2)
H26_4 H 0.688943 0.931053 0.534055
C47_4 C 0.68309(9) 0.84215(11) 0.5175(2)
C48_4 C 0.70899(10) 0.78899(11) 0.5363(2)
H27_4 H 0.694671 0.752929 0.516707
C49_4 C 0.75570(10) 0.78914(11) 0.5836(2)
H28_4 H 0.772884 0.753317 0.593880
C50_4 C 0.63212(9) 0.84137(11) 0.4684(2)
C51_4 C 0.61684(12) 0.88858(14) 0.4109(4)
H29_4 H 0.638604 0.921103 0.402789
C52_4 C 0.56964(12) 0.88812(14) 0.3651(3)
H30_4 H 0.560244 0.919804 0.325504
C53_4 C 0.53634(9) 0.84052(10) 0.3781(2)
C54_4 C 0.55183(10) 0.79346(11) 0.4320(2)
H31_4 H 0.530414 0.760477 0.438338
C55_4 C 0.59913(10) 0.79366(12) 0.4778(3)
H32_4 H 0.608707 0.761134 0.515424
C56_4 C 0.48457(8) 0.84029(10) 0.32949(18)
O21_2 O 0.90093(8) 0.99750(8) 0.74851(14)
O22_2 O 0.89255(7) 0.90427(6) 0.91831(11)
O23_2 O 0.90683(5) 0.81858(6) 0.84988(9)
C36_4 C 0.89703(8) 0.84818(9) 0.92410(14)
H24_4 H 0.910798 0.735718 0.976088
H9_4 H 0.006914 0.392681 0.677790
H10_4 H 0.006673 0.290579 0.697440
H17_4 H 0.006914 0.107319 0.822210
H18_4 H 0.006673 0.209421 0.802560
loop_
_geom_bond_atom_site_label_1
_geom_bond_atom_site_label_2
_geom_bond_site_symmetry_1
_geom_bond_site_symmetry_2
Co4 O9 1_555 1_555
O11 C36 1_555 1_555
O12 C36 1_555 1_555
Co4 O11 1_555 1_555
Mg2 O12 1_555 1_555
O12 Co4 1_555 1_555
Co1 O1 1_555 1_555
Mg2 O2 1_555 1_555
O1 C1 1_555 1_555
O2 C1 1_555 1_555
O5 Co1 1_555 1_555
O6 C15 1_555 1_555
O7 Co1 1_555 1_555
O8 Co1 1_555 1_555
C1 C2 1_555 1_555
C2 C3 1_555 1_555
C3 H1 1_555 1_555
C4 C3 1_555 1_555
H2 C4 1_555 1_555
C5 C4 1_555 1_555
C6 C5 1_555 1_555
H3 C6 1_555 1_555
C7 C2 1_555 1_555
H4 C7 1_555 1_555
C15 O5 1_555 1_555
C16 C15 1_555 1_555
C17 C16 1_555 1_555
C18 C17 1_555 1_555
C19 C18 1_555 1_555
C20 C19 1_555 1_555
H11 C20 1_555 1_555
C21 C16 1_555 1_555
H12 C21 1_555 1_555
C22 O7 1_555 1_555
C23 C22 1_555 1_555
C24 C23 1_555 1_555
H13 C24 1_555 1_555
C25 C24 1_555 1_555
H14 C25 1_555 1_555
C26 C25 1_555 1_555
C27 C26 1_555 1_555
H15 C27 1_555 1_555
C28 C23 1_555 1_555
H16 C28 1_555 1_555
O10 C29 1_555 1_555
C29 C30 1_555 1_555
C30 C31 1_555 1_555
C32 C31 1_555 1_555
C33 C19 1_555 1_555
C34 C33 1_555 1_555
H19 C34 1_555 1_555
C35 C30 1_555 1_555
H20 C35 1_555 1_555
C37 C38 1_555 1_555
C38 H21 1_555 1_555
C39 C38 1_555 1_555
H22 C39 1_555 1_555
C40 C26 1_555 1_555
C41 C40 1_555 1_555
H23 C41 1_555 1_555
C42 C37 1_555 1_555
Co4 O13 1_555 1_555
O13 C43 1_555 1_555
O14 Mg2 1_555 1_555
O15 C56 1_555 1_555
O16 C56 1_555 1_555
C43 O14 1_555 1_555
C44 C43 1_555 1_555
C45 C44 1_555 1_555
H25 C45 1_555 1_555
C46 C45 1_555 1_555
H26 C46 1_555 1_555
C47 C46 1_555 1_555
C48 C47 1_555 1_555
H27 C48 1_555 1_555
C49 C44 1_555 1_555
H28 C49 1_555 1_555
C50 C47 1_555 1_555
C51 C50 1_555 1_555
H29 C51 1_555 1_555
C52 C51 1_555 1_555
H30 C52 1_555 1_555
C53 C52 1_555 1_555
C54 C53 1_555 1_555
H31 C54 1_555 1_555
C55 C50 1_555 1_555
H32 C55 1_555 1_555
C56 C53 1_555 1_555
Co6 O15 1_555 1_555
Mg4 O16 1_555 1_555
O17 Co1 1_555 1_555
O18 Co4 1_555 1_555
O19 Mg2 1_555 1_555
O20 Mg2 1_555 1_555
Mg2 O8 1_555 1_555
O8 C22 1_555 1_555
C6 C7 1_555 1_555
C20 C21 1_555 1_555
C27 C28 1_555 1_555
C32 C33 1_555 1_555
C34 C35 1_555 1_555
C39 C40 1_555 1_555
C41 C42 1_555 1_555
C48 C49 1_555 1_555
C54 C55 1_555 1_555
O3 C14 1_555 1_555
O4 C14 1_555 1_555
C9 C8 1_555 1_555
H5 C9 1_555 1_555
C10 C9 1_555 1_555
H6 C10 1_555 1_555
C11 C10 1_555 1_555
C12 C11 1_555 1_555
H7 C12 1_555 1_555
C13 C8 1_555 1_555
C14 C11 1_555 1_555
Co5 O3 1_555 1_555
Mg4 O4 1_555 1_555
C12 C13 1_555 1_555
O17 C14_2 1_555 1_555
O19 C14_2 1_555 1_555
O18 C56_2 1_555 1_555
O20 C56_2 1_555 1_555
Co6 O9_2 1_555 1_555
C9_2 C8_2 1_555 1_555
H5_2 C9_2 1_555 1_555
C10_2 C9_2 1_555 1_555
H6_2 C10_2 1_555 1_555
C11_2 C10_2 1_555 1_555
C12_2 C11_2 1_555 1_555
H7_2 C12_2 1_555 1_555
C13_2 C8_2 1_555 1_555
C12_2 C13_2 1_555 1_555
Co5 O1_2 1_555 1_555
Mg4 O2_2 1_555 1_555
O1_2 C1_2 1_555 1_555
O2_2 C1_2 1_555 1_555
O5_2 Co5 1_555 1_555
O6_2 C15_2 1_555 1_555
O7_2 Co5 1_555 1_555
O8_2 Co5 1_555 1_555
C1_2 C2_2 1_555 1_555
C2_2 C3_2 1_555 1_555
C3_2 H1_2 1_555 1_555
C4_2 C3_2 1_555 1_555
H2_2 C4_2 1_555 1_555
C5_2 C4_2 1_555 1_555
C6_2 C5_2 1_555 1_555
H3_2 C6_2 1_555 1_555
C7_2 C2_2 1_555 1_555
H4_2 C7_2 1_555 1_555
C15_2 O5_2 1_555 1_555
C16_2 C15_2 1_555 1_555
C17_2 C16_2 1_555 1_555
H9 C17_2 1_555 1_555
C18_2 C17_2 1_555 1_555
H10 C18_2 1_555 1_555
C19_2 C18_2 1_555 1_555
C20_2 C19_2 1_555 1_555
H11_2 C20_2 1_555 1_555
C21_2 C16_2 1_555 1_555
H12_2 C21_2 1_555 1_555
C22_2 O7_2 1_555 1_555
C23_2 C22_2 1_555 1_555
C24_2 C23_2 1_555 1_555
H13_2 C24_2 1_555 1_555
C25_2 C24_2 1_555 1_555
H14_2 C25_2 1_555 1_555
C26_2 C25_2 1_555 1_555
C27_2 C26_2 1_555 1_555
H15_2 C27_2 1_555 1_555
C28_2 C23_2 1_555 1_555
H16_2 C28_2 1_555 1_555
O10_2 C29_2 1_555 1_555
C29_2 C30_2 1_555 1_555
C30_2 C31_2 1_555 1_555
C31_2 H17 1_555 1_555
C32_2 C31_2 1_555 1_555
H18 C32_2 1_555 1_555
C33_2 C19_2 1_555 1_555
C34_2 C33_2 1_555 1_555
H19_2 C34_2 1_555 1_555
C35_2 C30_2 1_555 1_555
H20_2 C35_2 1_555 1_555
C37_2 C38_2 1_555 1_555
C38_2 H21_2 1_555 1_555
C39_2 C38_2 1_555 1_555
H22_2 C39_2 1_555 1_555
C40_2 C26_2 1_555 1_555
C41_2 C40_2 1_555 1_555
H23_2 C41_2 1_555 1_555
C42_2 C37_2 1_555 1_555
Co6 O13_2 1_555 1_555
O13_2 C43_2 1_555 1_555
O14_2 Mg4 1_555 1_555
C43_2 O14_2 1_555 1_555
C44_2 C43_2 1_555 1_555
C45_2 C44_2 1_555 1_555
H25_2 C45_2 1_555 1_555
C46_2 C45_2 1_555 1_555
H26_2 C46_2 1_555 1_555
C47_2 C46_2 1_555 1_555
C48_2 C47_2 1_555 1_555
H27_2 C48_2 1_555 1_555
C49_2 C44_2 1_555 1_555
H28_2 C49_2 1_555 1_555
C50_2 C47_2 1_555 1_555
C51_2 C50_2 1_555 1_555
H29_2 C51_2 1_555 1_555
C52_2 C51_2 1_555 1_555
H30_2 C52_2 1_555 1_555
C53_2 C52_2 1_555 1_555
C54_2 C53_2 1_555 1_555
H31_2 C54_2 1_555 1_555
C55_2 C50_2 1_555 1_555
H32_2 C55_2 1_555 1_555
O22 Co6 1_555 1_555
O23 Mg4 1_555 1_555
Mg4 O8_2 1_555 1_555
O8_2 C22_2 1_555 1_555
C6_2 C7_2 1_555 1_555
C20_2 C21_2 1_555 1_555
C27_2 C28_2 1_555 1_555
C32_2 C33_2 1_555 1_555
C34_2 C35_2 1_555 1_555
C39_2 C40_2 1_555 1_555
C41_2 C42_2 1_555 1_555
Co6 O23 1_555 1_555
C48_2 C49_2 1_555 1_555
C54_2 C55_2 1_555 1_555
O22 C36_2 1_555 1_555
O23 C36_2 1_555 1_555
O11_2 C36_3 1_555 1_555
O12_2 C36_3 1_555 1_555
Co3 O11_2 1_555 1_555
Mg2_2 O12_2 1_555 1_555
O12_2 Co3 1_555 1_555
Co1_2 O1_3 1_555 1_555
Mg2_2 O2_3 1_555 1_555
O1_3 C1_3 1_555 1_555
O2_3 C1_3 1_555 1_555
O5_3 Co1_2 1_555 1_555
O6_3 C15_3 1_555 1_555
O7_3 Co1_2 1_555 1_555
O8_3 Co1_2 1_555 1_555
C1_3 C2_3 1_555 1_555
C2_3 C3_3 1_555 1_555
C3_3 H1_3 1_555 1_555
C4_3 C3_3 1_555 1_555
H2_3 C4_3 1_555 1_555
C5_3 C4_3 1_555 1_555
C6_3 C5_3 1_555 1_555
H3_3 C6_3 1_555 1_555
C7_3 C2_3 1_555 1_555
H4_3 C7_3 1_555 1_555
C15_3 O5_3 1_555 1_555
C16_3 C15_3 1_555 1_555
C17_3 C16_3 1_555 1_555
H9_3 C17_3 1_555 1_555
C18_3 C17_3 1_555 1_555
H10_3 C18_3 1_555 1_555
C19_3 C18_3 1_555 1_555
C20_3 C19_3 1_555 1_555
H11_3 C20_3 1_555 1_555
C21_3 C16_3 1_555 1_555
H12_3 C21_3 1_555 1_555
C22_3 O7_3 1_555 1_555
C23_3 C22_3 1_555 1_555
C24_3 C23_3 1_555 1_555
H13_3 C24_3 1_555 1_555
C25_3 C24_3 1_555 1_555
H14_3 C25_3 1_555 1_555
C26_3 C25_3 1_555 1_555
C27_3 C26_3 1_555 1_555
H15_3 C27_3 1_555 1_555
C28_3 C23_3 1_555 1_555
H16_3 C28_3 1_555 1_555
O10_3 C29_3 1_555 1_555
C29_3 C30_3 1_555 1_555
C30_3 C31_3 1_555 1_555
C31_3 H17_3 1_555 1_555
C32_3 C31_3 1_555 1_555
H18_3 C32_3 1_555 1_555
C33_3 C19_3 1_555 1_555
C34_3 C33_3 1_555 1_555
H19_3 C34_3 1_555 1_555
C35_3 C30_3 1_555 1_555
H20_3 C35_3 1_555 1_555
C37_3 C38_3 1_555 1_555
C38_3 H21_3 1_555 1_555
C39_3 C38_3 1_555 1_555
H22_3 C39_3 1_555 1_555
C40_3 C26_3 1_555 1_555
C41_3 C40_3 1_555 1_555
H23_3 C41_3 1_555 1_555
C42_3 C37_3 1_555 1_555
Co3 O13_3 1_555 1_555
O13_3 C43_3 1_555 1_555
O14_3 Mg2_2 1_555 1_555
C43_3 O14_3 1_555 1_555
C44_3 C43_3 1_555 1_555
C45_3 C44_3 1_555 1_555
H25_3 C45_3 1_555 1_555
C46_3 C45_3 1_555 1_555
H26_3 C46_3 1_555 1_555
C47_3 C46_3 1_555 1_555
C48_3 C47_3 1_555 1_555
H27_3 C48_3 1_555 1_555
C49_3 C44_3 1_555 1_555
H28_3 C49_3 1_555 1_555
C50_3 C47_3 1_555 1_555
C51_3 C50_3 1_555 1_555
H29_3 C51_3 1_555 1_555
C52_3 C51_3 1_555 1_555
H30_3 C52_3 1_555 1_555
C53_3 C52_3 1_555 1_555
C54_3 C53_3 1_555 1_555
H31_3 C54_3 1_555 1_555
C55_3 C50_3 1_555 1_555
H32_3 C55_3 1_555 1_555
O17_2 Co1_2 1_555 1_555
O18_2 Co3 1_555 1_555
O19_2 Mg2_2 1_555 1_555
O20_2 Mg2_2 1_555 1_555
O21 Co3 1_555 1_555
Mg2_2 O8_3 1_555 1_555
O8_3 C22_3 1_555 1_555
C6_3 C7_3 1_555 1_555
C20_3 C21_3 1_555 1_555
C27_3 C28_3 1_555 1_555
C32_3 C33_3 1_555 1_555
C34_3 C35_3 1_555 1_555
C39_3 C40_3 1_555 1_555
C41_3 C42_3 1_555 1_555
C48_3 C49_3 1_555 1_555
C54_3 C55_3 1_555 1_555
C9_3 C8_3 1_555 1_555
H5_3 C9_3 1_555 1_555
C10_3 C9_3 1_555 1_555
H6_3 C10_3 1_555 1_555
C11_3 C10_3 1_555 1_555
C12_3 C11_3 1_555 1_555
H7_3 C12_3 1_555 1_555
C13_3 C8_3 1_555 1_555
C12_3 C13_3 1_555 1_555
O15_2 C56_3 1_555 1_555
O16_2 C56_3 1_555 1_555
Co6_2 O15_2 1_555 1_555
Mg4_2 O16_2 1_555 1_555
O3_2 C14_3 1_555 1_555
O4_2 C14_3 1_555 1_555
Co5_2 O3_2 1_555 1_555
Mg4_2 O4_2 1_555 1_555
O17_2 C14_4 1_555 1_555
O19_2 C14_4 1_555 1_555
C9_4 C8_4 1_555 1_555
H5_4 C9_4 1_555 1_555
C10_4 C9_4 1_555 1_555
H6_4 C10_4 1_555 1_555
C11_4 C10_4 1_555 1_555
C12_4 C11_4 1_555 1_555
H7_4 C12_4 1_555 1_555
C13_4 C8_4 1_555 1_555
C14_4 C11_4 1_555 1_555
C12_4 C13_4 1_555 1_555
Co5_2 O1_4 1_555 1_555
Mg4_2 O2_4 1_555 1_555
O1_4 C1_4 1_555 1_555
O2_4 C1_4 1_555 1_555
O5_4 Co5_2 1_555 1_555
O6_4 C15_4 1_555 1_555
O7_4 Co5_2 1_555 1_555
O8_4 Co5_2 1_555 1_555
C1_4 C2_4 1_555 1_555
C2_4 C3_4 1_555 1_555
C3_4 H1_4 1_555 1_555
C4_4 C3_4 1_555 1_555
H2_4 C4_4 1_555 1_555
C5_4 C4_4 1_555 1_555
C6_4 C5_4 1_555 1_555
H3_4 C6_4 1_555 1_555
C7_4 C2_4 1_555 1_555
H4_4 C7_4 1_555 1_555
C15_4 O5_4 1_555 1_555
C16_4 C15_4 1_555 1_555
C17_4 C16_4 1_555 1_555
C18_4 C17_4 1_555 1_555
C19_4 C18_4 1_555 1_555
C20_4 C19_4 1_555 1_555
H11_4 C20_4 1_555 1_555
C21_4 C16_4 1_555 1_555
H12_4 C21_4 1_555 1_555
C22_4 O7_4 1_555 1_555
C23_4 C22_4 1_555 1_555
C24_4 C23_4 1_555 1_555
H13_4 C24_4 1_555 1_555
C25_4 C24_4 1_555 1_555
H14_4 C25_4 1_555 1_555
C26_4 C25_4 1_555 1_555
C27_4 C26_4 1_555 1_555
H15_4 C27_4 1_555 1_555
C28_4 C23_4 1_555 1_555
H16_4 C28_4 1_555 1_555
O10_4 C29_4 1_555 1_555
C29_4 C30_4 1_555 1_555
C30_4 C31_4 1_555 1_555
C32_4 C31_4 1_555 1_555
C33_4 C19_4 1_555 1_555
C34_4 C33_4 1_555 1_555
H19_4 C34_4 1_555 1_555
C35_4 C30_4 1_555 1_555
H20_4 C35_4 1_555 1_555
C37_4 C38_4 1_555 1_555
C38_4 H21_4 1_555 1_555
C39_4 C38_4 1_555 1_555
H22_4 C39_4 1_555 1_555
C40_4 C26_4 1_555 1_555
C41_4 C40_4 1_555 1_555
H23_4 C41_4 1_555 1_555
C42_4 C37_4 1_555 1_555
Co6_2 O13_4 1_555 1_555
O13_4 C43_4 1_555 1_555
O14_4 Mg4_2 1_555 1_555
O18_2 C56_4 1_555 1_555
O20_2 C56_4 1_555 1_555
C43_4 O14_4 1_555 1_555
C44_4 C43_4 1_555 1_555
C45_4 C44_4 1_555 1_555
H25_4 C45_4 1_555 1_555
C46_4 C45_4 1_555 1_555
H26_4 C46_4 1_555 1_555
C47_4 C46_4 1_555 1_555
C48_4 C47_4 1_555 1_555
H27_4 C48_4 1_555 1_555
C49_4 C44_4 1_555 1_555
H28_4 C49_4 1_555 1_555
C50_4 C47_4 1_555 1_555
C51_4 C50_4 1_555 1_555
H29_4 C51_4 1_555 1_555
C52_4 C51_4 1_555 1_555
H30_4 C52_4 1_555 1_555
C53_4 C52_4 1_555 1_555
C54_4 C53_4 1_555 1_555
H31_4 C54_4 1_555 1_555
C55_4 C50_4 1_555 1_555
H32_4 C55_4 1_555 1_555
C56_4 C53_4 1_555 1_555
O21_2 Co6_2 1_555 1_555
O22_2 Co6_2 1_555 1_555
O23_2 Mg4_2 1_555 1_555
Mg4_2 O8_4 1_555 1_555
O8_4 C22_4 1_555 1_555
C6_4 C7_4 1_555 1_555
C20_4 C21_4 1_555 1_555
C27_4 C28_4 1_555 1_555
C32_4 C33_4 1_555 1_555
C34_4 C35_4 1_555 1_555
C39_4 C40_4 1_555 1_555
C41_4 C42_4 1_555 1_555
Co6_2 O23_2 1_555 1_555
C48_4 C49_4 1_555 1_555
C54_4 C55_4 1_555 1_555
O22_2 C36_4 1_555 1_555
O23_2 C36_4 1_555 1_555

#END
