
###############################################################################
#
# This file contains modified crystal structure data generated from the
# MOF subset of the Cambridge Structural Database (CSD) v543 
# hosted by the Cambridge Crystallographic Data Centre (CCDC).
#
# This work is licensed under the Creative Commons
# Attribution-NonCommercial-ShareAlike 4.0 International License.
# To view a copy of this license, visit
# http://creativecommons.org/licenses/by-nc-sa/4.0/
# or send a letter to
# Creative Commons, PO Box 1866, Mountain View, CA 94042, USA.
#
# CIF created using the CSD Python API on 29 September 2022
# The structure has been converted into the P1 space group
# The structure has a 3D framework
# The original CSD entry DEQMUK is in the monoclinic crystal system
# The framework has been calculated to contain at least 10.0% void space
# The void calculation uses a probe of radius 1.32A, grid spacing 0.4
#
###############################################################################

data_DEQMUK
_chemical_formula_moiety         '(C288 H216 Cd10 N16 O78)n'
_symmetry_cell_setting           triclinic
_symmetry_space_group_name_H-M   'P 1'
_symmetry_Int_Tables_number      1
_space_group_name_Hall           'P 1'
loop_
_symmetry_equiv_pos_site_id
_symmetry_equiv_pos_as_xyz
1 x,y,z
_cell_length_a                   29.403(3)
_cell_length_b                   20.8279(19)
_cell_length_c                   16.9132(17)
_cell_angle_alpha                90
_cell_angle_beta                 111.067(2)
_cell_angle_gamma                90
_cell_volume                     9665.39
loop_
_atom_site_label
_atom_site_type_symbol
_atom_site_fract_x
_atom_site_fract_y
_atom_site_fract_z
Cd6 Cd 0.2500 0.7500 0.0000
Cd8 Cd 0.267842(18) 0.58328(2) 0.03358(3)
H2 H 0.0078 0.6149 0.1599
H8 H 0.0022 0.7534 0.1448
C20 C 0.0470(3) 0.7429(4) 0.0325(5)
C24 C 0.0905(3) 0.8385(4) 0.0326(5)
H19 H 0.0963 0.8816 0.0472
C25 C 0.0556(3) 0.8056(4) 0.0548(5)
H20 H 0.0385 0.8262 0.0843
O1 O 0.0000 0.6690(4) 0.2500
O4 O 0.01546(19) 0.7037(3) 0.0544(4)
C47 C 0.0484(2) 0.6797(3) 0.3950(4)
C48 C 0.0186(3) 0.6332(4) 0.3259(5)
H35 H 0.0391 0.5985 0.3197
C49 C 0.0872(2) 0.7104(4) 0.3696(5)
H37 H 0.0726 0.7323 0.3157
H38 H 0.1050 0.7418 0.4118
C50 C 0.0713(3) 0.6418(4) 0.4769(4)
H39 H 0.0463 0.6196 0.4912
H40 H 0.0940 0.6103 0.4705
C51 C 0.0165(3) 0.7332(3) 0.4087(5)
H41 H 0.0366 0.7656 0.4465
C52 C 0.1428(2) 0.6677(3) 0.3070(4)
C53 C 0.1395(3) 0.7188(4) 0.2546(5)
H43 H 0.1200 0.7537 0.2554
C54 C 0.1651(3) 0.7186(3) 0.2003(5)
H44 H 0.1626 0.7535 0.1646
C55 C 0.1941(2) 0.6680(3) 0.1985(4)
C56 C 0.1967(3) 0.6151(4) 0.2509(5)
H45 H 0.2155 0.5797 0.2485
C57 C 0.1720(3) 0.6147(4) 0.3050(5)
H46 H 0.1744 0.5797 0.3404
C58 C 0.2218(2) 0.6698(3) 0.1377(4)
C59 C 0.1212(3) 0.6648(3) 0.6220(4)
C60 C 0.1269(3) 0.6006(4) 0.6459(5)
H47 H 0.1127 0.5685 0.6064
C61 C 0.1532(4) 0.5852(4) 0.7274(5)
H48 H 0.1578 0.5421 0.7425
C62 C 0.1731(3) 0.6304(3) 0.7877(4)
C63 C 0.1673(3) 0.6940(4) 0.7654(5)
H49 H 0.1805 0.7255 0.8061
C64 C 0.1412(3) 0.7115(4) 0.6804(5)
H50 H 0.1377 0.7545 0.6645
C65 C 0.2038(3) 0.6119(3) 0.8770(4)
O11 O 0.11950(19) 0.6618(2) 0.3626(3)
O12 O 0.09646(19) 0.6871(3) 0.5425(3)
O14 O 0.22277(18) 0.7202(2) 0.1015(3)
O15 O 0.2421(2) 0.6174(2) 0.1314(4)
O16 O 0.2132(2) 0.5555(2) 0.8963(3)
O17 O 0.2200(2) 0.6553(2) 0.9310(3)
Cd6_2 Cd 0.2500 0.7500 1.0000
N5 N 0.2705(2) 0.4802(2) 0.0726(4)
O27 O 0.31815(17) 0.6872(2) 0.0609(3)
O29 O 0.33884(19) 0.5981(3) 0.0127(4)
C21 C 0.0727(3) 0.7124(4) 0.9905(6)
H17 H 0.0670 0.6691 0.9769
C22 C 0.1065(3) 0.7447(3) 0.9682(6)
H18 H 0.1232 0.7239 0.9382
C23 C 0.1162(2) 0.8093(4) 0.9903(5)
C26 C 0.1551(3) 0.8443(4) 0.9710(5)
O9 O 0.18185(17) 0.8128(2) 0.9391(3)
O10 O 0.16116(19) 0.9019(3) 0.9873(4)
Cd11 Cd 0.232158(18) 0.91672(2) 0.96642(3)
C1 C 0.9516(2) 0.6797(3) 0.1050(4)
C2 C 0.9814(3) 0.6332(4) 0.1741(5)
H1 H 0.9609 0.5985 0.1803
C3 C 0.9128(2) 0.7104(4) 0.1304(5)
H3 H 0.9274 0.7323 0.1843
H4 H 0.8950 0.7418 0.0882
C4 C 0.9287(3) 0.6418(4) 0.0231(4)
H5 H 0.9537 0.6196 0.0088
H6 H 0.9060 0.6103 0.0295
C5 C 0.9835(3) 0.7332(3) 0.0913(5)
H7 H 0.9634 0.7656 0.0535
C6 C 0.8572(2) 0.6677(3) 0.1930(4)
C7 C 0.8605(3) 0.7188(4) 0.2454(5)
H9 H 0.8800 0.7537 0.2446
C8 C 0.8349(3) 0.7186(3) 0.2997(5)
H10 H 0.8374 0.7535 0.3354
C9 C 0.8059(2) 0.6680(3) 0.3015(4)
C10 C 0.8033(3) 0.6151(4) 0.2491(5)
H11 H 0.7845 0.5797 0.2515
C11 C 0.8280(3) 0.6147(4) 0.1950(5)
H12 H 0.8256 0.5797 0.1596
C12 C 0.7782(2) 0.6698(3) 0.3623(4)
O1_2 O 1.0000 0.6690(4) 0.2500
O2 O 0.88050(19) 0.6618(2) 0.1374(3)
O5 O 0.77723(18) 0.7202(2) 0.3985(3)
O6 O 0.7579(2) 0.6174(2) 0.3686(4)
H36 H 0.9922 0.6149 0.3401
H42 H 0.9978 0.7534 0.3552
C66 C 0.9530(3) 0.7429(4) 0.4675(5)
C67 C 0.9273(3) 0.7124(4) 0.5095(6)
H51 H 0.9330 0.6691 0.5231
C68 C 0.8935(3) 0.7447(3) 0.5318(6)
H52 H 0.8768 0.7239 0.5618
C69 C 0.8838(2) 0.8093(4) 0.5097(5)
C70 C 0.9095(3) 0.8385(4) 0.4674(5)
H53 H 0.9037 0.8816 0.4528
C71 C 0.9444(3) 0.8056(4) 0.4452(5)
H54 H 0.9615 0.8262 0.4157
C72 C 0.8449(3) 0.8443(4) 0.5290(5)
O13 O 0.98454(19) 0.7037(3) 0.4456(4)
O18 O 0.81815(17) 0.8128(2) 0.5609(3)
O19 O 0.83884(19) 0.9019(3) 0.5127(4)
Cd4 Cd 0.7500 0.7500 0.5000
Cd7 Cd 0.732158(18) 0.58328(2) 0.46642(3)
Cd10 Cd 0.767842(18) 0.91672(2) 0.53358(3)
N1 N 0.7295(2) 0.4802(2) 0.4274(4)
N2 N 0.7405(2) 0.3747(3) 0.4365(4)
C13 C 0.8788(3) 0.6648(3) 0.8780(4)
C14 C 0.8731(3) 0.6006(4) 0.8541(5)
H13 H 0.8873 0.5685 0.8936
C15 C 0.8468(4) 0.5852(4) 0.7726(5)
H14 H 0.8422 0.5421 0.7575
C16 C 0.8269(3) 0.6304(3) 0.7123(4)
C17 C 0.8327(3) 0.6940(4) 0.7346(5)
H15 H 0.8195 0.7255 0.6939
C18 C 0.8588(3) 0.7115(4) 0.8196(5)
H16 H 0.8623 0.7545 0.8355
C19 C 0.7962(3) 0.6119(3) 0.6230(4)
C27 C 0.7396(3) 0.4305(3) 0.4777(5)
H21 H 0.7455 0.4329 0.5354
C28 C 0.7293(3) 0.3899(3) 0.3516(5)
C29 C 0.7233(3) 0.4570(3) 0.3469(5)
C30 C 0.7099(3) 0.4892(4) 0.2683(5)
H22 H 0.7051 0.5333 0.2638
C31 C 0.7044(3) 0.4509(4) 0.1978(5)
H23 H 0.6965 0.4702 0.1450
C32 C 0.7102(3) 0.3862(4) 0.2043(5)
H24 H 0.7047 0.3626 0.1551
C33 C 0.7241(3) 0.3535(4) 0.2818(5)
H25 H 0.7294 0.3094 0.2854
C34 C 0.7461(3) 0.3112(3) 0.4704(5)
C35 C 0.7782(3) 0.2700(4) 0.4545(6)
H26 H 0.7967 0.2837 0.4231
C36 C 0.7172(3) 0.2916(4) 0.5147(6)
H27 H 0.6949 0.3198 0.5235
O3 O 0.90354(19) 0.6871(3) 0.9575(3)
O7 O 0.7868(2) 0.5555(2) 0.6037(3)
O8 O 0.7800(2) 0.6553(2) 0.5690(3)
N3 N 0.7705(2) 0.0198(2) 0.5726(4)
N4 N 0.7595(2) 0.1253(3) 0.5635(4)
C37 C 0.7604(3) 0.0695(3) 0.5223(5)
H28 H 0.7545 0.0671 0.4646
C38 C 0.7707(3) 0.1101(3) 0.6484(5)
C39 C 0.7767(3) 0.0430(3) 0.6531(5)
C40 C 0.7901(3) 0.0108(4) 0.7317(5)
C41 C 0.7956(3) 0.0491(4) 0.8022(5)
H30 H 0.8035 0.0298 0.8550
C42 C 0.7898(3) 0.1138(4) 0.7957(5)
H31 H 0.7953 0.1374 0.8449
C43 C 0.7759(3) 0.1465(4) 0.7182(5)
H32 H 0.7706 0.1906 0.7146
C44 C 0.7539(3) 0.1888(3) 0.5296(5)
C45 C 0.7218(3) 0.2300(4) 0.5455(6)
H33 H 0.7033 0.2163 0.5769
C46 C 0.7828(3) 0.2084(4) 0.4853(6)
H34 H 0.8051 0.1802 0.4765
O21 O 0.72277(18) 0.7798(2) 0.6015(3)
O25 O 0.7200(2) 0.8447(2) 0.4310(3)
O28 O 0.68185(17) 0.6872(2) 0.4391(3)
O30 O 0.66116(19) 0.5981(3) 0.4873(4)
H29 H 0.7949 0.9667 0.7362
N2_2 N 0.2595(2) 0.3747(3) 0.0635(4)
C27_2 C 0.2604(3) 0.4305(3) 0.0223(5)
C28_2 C 0.2707(3) 0.3899(3) 0.1484(5)
C29_2 C 0.2767(3) 0.4570(3) 0.1531(5)
C30_2 C 0.2901(3) 0.4892(4) 0.2317(5)
H22_2 H 0.2949 0.5333 0.2362
C31_2 C 0.2956(3) 0.4509(4) 0.3022(5)
H23_2 H 0.3035 0.4702 0.3550
C32_2 C 0.2898(3) 0.3862(4) 0.2957(5)
H24_2 H 0.2953 0.3626 0.3449
C33_2 C 0.2759(3) 0.3535(4) 0.2182(5)
H25_2 H 0.2706 0.3094 0.2146
C34_2 C 0.2539(3) 0.3112(3) 0.0296(5)
C35_2 C 0.2218(3) 0.2700(4) 0.0455(6)
H26_2 H 0.2033 0.2837 0.0769
H28_2 H 0.2455 0.0671 0.0354
C46_2 C 0.2172(3) 0.2084(4) 0.0147(6)
H34_2 H 0.1949 0.1802 0.0235
O25_2 O 0.2800(2) 0.8447(2) 0.0690(3)
H21_2 H 0.2545 0.4329 0.9646
C36_2 C 0.2828(3) 0.2916(4) 0.9853(6)
H27_2 H 0.3051 0.3198 0.9765
N3_2 N 0.2295(2) 0.0198(2) 0.9274(4)
N4_2 N 0.2405(2) 0.1253(3) 0.9365(4)
C37_2 C 0.2396(3) 0.0695(3) 0.9777(5)
C38_2 C 0.2293(3) 0.1101(3) 0.8516(5)
C39_2 C 0.2233(3) 0.0430(3) 0.8469(5)
C40_2 C 0.2099(3) 0.0108(4) 0.7683(5)
C41_2 C 0.2044(3) 0.0491(4) 0.6978(5)
H30_2 H 0.1965 0.0298 0.6450
C42_2 C 0.2102(3) 0.1138(4) 0.7043(5)
H31_2 H 0.2047 0.1374 0.6551
C43_2 C 0.2241(3) 0.1465(4) 0.7818(5)
H32_2 H 0.2294 0.1906 0.7854
C44_2 C 0.2461(3) 0.1888(3) 0.9704(5)
C45_2 C 0.2782(3) 0.2300(4) 0.9545(6)
H33_2 H 0.2967 0.2163 0.9231
O21_2 O 0.27723(18) 0.7798(2) 0.8985(3)
H29_2 H 0.2051 0.9667 0.7638
C13_2 C 0.6212(3) 0.8352(3) 0.1220(4)
C14_2 C 0.6269(3) 0.8994(4) 0.1459(5)
H13_2 H 0.6127 0.9315 0.1064
C15_2 C 0.6532(4) 0.9148(4) 0.2274(5)
H14_2 H 0.6578 0.9579 0.2425
C16_2 C 0.6731(3) 0.8696(3) 0.2877(4)
C17_2 C 0.6673(3) 0.8060(4) 0.2654(5)
H15_2 H 0.6805 0.7745 0.3061
C18_2 C 0.6412(3) 0.7885(4) 0.1804(5)
H16_2 H 0.6377 0.7455 0.1645
C19_2 C 0.7038(3) 0.8881(3) 0.3770(4)
C21_2 C 0.4273(3) 0.7876(4) 0.0095(6)
H17_2 H 0.4330 0.8309 0.0231
C22_2 C 0.3935(3) 0.7553(3) 0.0318(6)
H18_2 H 0.3768 0.7761 0.0618
C23_2 C 0.3838(2) 0.6907(4) 0.0097(5)
C26_2 C 0.3449(3) 0.6557(4) 0.0290(5)
O3_2 O 0.59646(19) 0.8129(3) 0.0425(3)
O7_2 O 0.7132(2) 0.9445(2) 0.3963(3)
O22 O 0.7421(2) 0.8826(2) 0.6314(4)
O23 O 0.2868(2) 0.9445(2) 0.1037(3)
C1_2 C 0.5484(2) 0.8203(3) 0.8950(4)
C2_2 C 0.5186(3) 0.8668(4) 0.8259(5)
H1_2 H 0.5391 0.9015 0.8197
H2_2 H 0.4922 0.8851 0.8401
C3_2 C 0.5872(2) 0.7896(4) 0.8696(5)
H3_2 H 0.5726 0.7677 0.8157
H4_2 H 0.6050 0.7582 0.9118
C4_2 C 0.5713(3) 0.8582(4) 0.9769(4)
H5_2 H 0.5463 0.8804 0.9912
H6_2 H 0.5940 0.8897 0.9705
C5_2 C 0.5165(3) 0.7668(3) 0.9087(5)
H7_2 H 0.5366 0.7344 0.9465
H8_2 H 0.4978 0.7466 0.8552
C6_2 C 0.6428(2) 0.8323(3) 0.8070(4)
C7_2 C 0.6395(3) 0.7812(4) 0.7546(5)
H9_2 H 0.6200 0.7463 0.7554
C8_2 C 0.6651(3) 0.7814(3) 0.7003(5)
H10_2 H 0.6626 0.7465 0.6646
C9_2 C 0.6941(2) 0.8320(3) 0.6985(4)
C10_2 C 0.6967(3) 0.8849(4) 0.7509(5)
H11_2 H 0.7155 0.9203 0.7485
C11_2 C 0.6720(3) 0.8853(4) 0.8050(5)
H12_2 H 0.6744 0.9203 0.8404
C12_2 C 0.7218(2) 0.8302(3) 0.6377(4)
C20_2 C 0.4530(3) 0.7571(4) 0.9675(5)
C24_2 C 0.4095(3) 0.6615(4) 0.9674(5)
H19_2 H 0.4037 0.6184 0.9528
C25_2 C 0.4444(3) 0.6944(4) 0.9452(5)
H20_2 H 0.4615 0.6738 0.9157
O1_3 O 0.5000 0.8310(4) 0.7500
O2_2 O 0.61950(19) 0.8382(2) 0.8626(3)
O4_2 O 0.48454(19) 0.7963(3) 0.9456(4)
C47_2 C 0.4516(2) 0.8203(3) 0.6050(4)
C48_2 C 0.4814(3) 0.8668(4) 0.6741(5)
H35_2 H 0.4609 0.9015 0.6803
H36_2 H 0.5078 0.8851 0.6599
C49_2 C 0.4128(2) 0.7896(4) 0.6304(5)
H37_2 H 0.4274 0.7677 0.6843
H38_2 H 0.3950 0.7582 0.5882
C50_2 C 0.4287(3) 0.8582(4) 0.5231(4)
H39_2 H 0.4537 0.8804 0.5088
H40_2 H 0.4060 0.8897 0.5295
C51_2 C 0.4835(3) 0.7668(3) 0.5913(5)
H41_2 H 0.4634 0.7344 0.5535
H42_2 H 0.5022 0.7466 0.6448
C52_2 C 0.3572(2) 0.8323(3) 0.6930(4)
C53_2 C 0.3605(3) 0.7812(4) 0.7454(5)
H43_2 H 0.3800 0.7463 0.7446
C54_2 C 0.3349(3) 0.7814(3) 0.7997(5)
H44_2 H 0.3374 0.7465 0.8354
C55_2 C 0.3059(2) 0.8320(3) 0.8015(4)
C56_2 C 0.3033(3) 0.8849(4) 0.7491(5)
H45_2 H 0.2845 0.9203 0.7515
C57_2 C 0.3280(3) 0.8853(4) 0.6950(5)
H46_2 H 0.3256 0.9203 0.6596
C58_2 C 0.2782(2) 0.8302(3) 0.8623(4)
C59_2 C 0.3788(3) 0.8352(3) 0.3780(4)
C60_2 C 0.3731(3) 0.8994(4) 0.3541(5)
H47_2 H 0.3873 0.9315 0.3936
C61_2 C 0.3468(4) 0.9148(4) 0.2726(5)
H48_2 H 0.3422 0.9579 0.2575
C62_2 C 0.3269(3) 0.8696(3) 0.2123(4)
C63_2 C 0.3327(3) 0.8060(4) 0.2346(5)
H49_2 H 0.3195 0.7745 0.1939
C64_2 C 0.3588(3) 0.7885(4) 0.3196(5)
H50_2 H 0.3623 0.7455 0.3355
C65_2 C 0.2962(3) 0.8881(3) 0.1230(4)
C66_2 C 0.5470(3) 0.7571(4) 0.5325(5)
C67_2 C 0.5727(3) 0.7876(4) 0.4905(6)
H51_2 H 0.5670 0.8309 0.4769
C68_2 C 0.6065(3) 0.7553(3) 0.4682(6)
H52_2 H 0.6232 0.7761 0.4382
C69_2 C 0.6162(2) 0.6907(4) 0.4903(5)
C70_2 C 0.5905(3) 0.6615(4) 0.5326(5)
H53_2 H 0.5963 0.6184 0.5472
C71_2 C 0.5556(3) 0.6944(4) 0.5548(5)
H54_2 H 0.5385 0.6738 0.5843
C72_2 C 0.6551(3) 0.6557(4) 0.4710(5)
O11_2 O 0.38050(19) 0.8382(2) 0.6374(3)
O12_2 O 0.40354(19) 0.8129(3) 0.4575(3)
O13_2 O 0.51546(19) 0.7963(3) 0.5544(4)
O15_2 O 0.2579(2) 0.8826(2) 0.8686(4)
Cd6_3 Cd 0.7500 0.2500 0.0000
Cd8_2 Cd 0.767842(18) 0.08328(2) 0.03358(3)
C1_3 C 0.4516(2) 0.1797(3) 0.1050(4)
C2_3 C 0.4814(3) 0.1332(4) 0.1741(5)
H1_3 H 0.4609 0.0985 0.1803
H2_3 H 0.5078 0.1149 0.1599
C3_3 C 0.4128(2) 0.2104(4) 0.1304(5)
H3_3 H 0.4274 0.2323 0.1843
H4_3 H 0.3950 0.2418 0.0882
C4_3 C 0.4287(3) 0.1418(4) 0.0231(4)
H5_3 H 0.4537 0.1196 0.0088
H6_3 H 0.4060 0.1103 0.0295
C5_3 C 0.4835(3) 0.2332(3) 0.0913(5)
H7_3 H 0.4634 0.2656 0.0535
H8_3 H 0.5022 0.2534 0.1448
C6_3 C 0.3572(2) 0.1677(3) 0.1930(4)
C7_3 C 0.3605(3) 0.2188(4) 0.2454(5)
H9_3 H 0.3800 0.2537 0.2446
C8_3 C 0.3349(3) 0.2186(3) 0.2997(5)
H10_3 H 0.3374 0.2535 0.3354
C9_3 C 0.3059(2) 0.1680(3) 0.3015(4)
C10_3 C 0.3033(3) 0.1151(4) 0.2491(5)
H11_3 H 0.2845 0.0797 0.2515
C11_3 C 0.3280(3) 0.1147(4) 0.1950(5)
H12_3 H 0.3256 0.0797 0.1596
C12_3 C 0.2782(2) 0.1698(3) 0.3623(4)
C20_3 C 0.5470(3) 0.2429(4) 0.0325(5)
C24_3 C 0.5905(3) 0.3385(4) 0.0326(5)
H19_3 H 0.5963 0.3816 0.0472
C25_3 C 0.5556(3) 0.3056(4) 0.0548(5)
H20_3 H 0.5385 0.3262 0.0843
O1_4 O 0.5000 0.1690(4) 0.2500
O2_3 O 0.38050(19) 0.1618(2) 0.1374(3)
O4_3 O 0.51546(19) 0.2037(3) 0.0544(4)
O5_2 O 0.27723(18) 0.2202(2) 0.3985(3)
O6_2 O 0.2579(2) 0.1174(2) 0.3686(4)
C47_3 C 0.5484(2) 0.1797(3) 0.3950(4)
C48_3 C 0.5186(3) 0.1332(4) 0.3259(5)
H35_3 H 0.5391 0.0985 0.3197
H36_3 H 0.4922 0.1149 0.3401
C49_3 C 0.5872(2) 0.2104(4) 0.3696(5)
H37_3 H 0.5726 0.2323 0.3157
H38_3 H 0.6050 0.2418 0.4118
C50_3 C 0.5713(3) 0.1418(4) 0.4769(4)
H39_3 H 0.5463 0.1196 0.4912
H40_3 H 0.5940 0.1103 0.4705
C51_3 C 0.5165(3) 0.2332(3) 0.4087(5)
H41_3 H 0.5366 0.2656 0.4465
H42_3 H 0.4978 0.2534 0.3552
C52_3 C 0.6428(2) 0.1677(3) 0.3070(4)
C53_3 C 0.6395(3) 0.2188(4) 0.2546(5)
H43_3 H 0.6200 0.2537 0.2554
C54_3 C 0.6651(3) 0.2186(3) 0.2003(5)
H44_3 H 0.6626 0.2535 0.1646
C55_3 C 0.6941(2) 0.1680(3) 0.1985(4)
C56_3 C 0.6967(3) 0.1151(4) 0.2509(5)
H45_3 H 0.7155 0.0797 0.2485
C57_3 C 0.6720(3) 0.1147(4) 0.3050(5)
H46_3 H 0.6744 0.0797 0.3404
C58_3 C 0.7218(2) 0.1698(3) 0.1377(4)
C59_3 C 0.6212(3) 0.1648(3) 0.6220(4)
C60_3 C 0.6269(3) 0.1006(4) 0.6459(5)
H47_3 H 0.6127 0.0685 0.6064
C61_3 C 0.6532(4) 0.0852(4) 0.7274(5)
H48_3 H 0.6578 0.0421 0.7425
C62_3 C 0.6731(3) 0.1304(3) 0.7877(4)
C63_3 C 0.6673(3) 0.1940(4) 0.7654(5)
H49_3 H 0.6805 0.2255 0.8061
C64_3 C 0.6412(3) 0.2115(4) 0.6804(5)
H50_3 H 0.6377 0.2545 0.6645
C65_3 C 0.7038(3) 0.1119(3) 0.8770(4)
C66_3 C 0.4530(3) 0.2429(4) 0.4675(5)
C67_3 C 0.4273(3) 0.2124(4) 0.5095(6)
H51_3 H 0.4330 0.1691 0.5231
C68_3 C 0.3935(3) 0.2447(3) 0.5318(6)
H52_3 H 0.3768 0.2239 0.5618
C69_3 C 0.3838(2) 0.3093(4) 0.5097(5)
C70_3 C 0.4095(3) 0.3385(4) 0.4674(5)
H53_3 H 0.4037 0.3816 0.4528
C71_3 C 0.4444(3) 0.3056(4) 0.4452(5)
H54_3 H 0.4615 0.3262 0.4157
C72_3 C 0.3449(3) 0.3443(4) 0.5290(5)
O11_3 O 0.61950(19) 0.1618(2) 0.3626(3)
O12_3 O 0.59646(19) 0.1871(3) 0.5425(3)
O13_3 O 0.48454(19) 0.2037(3) 0.4456(4)
O14_2 O 0.72277(18) 0.2202(2) 0.1015(3)
O15_3 O 0.7421(2) 0.1174(2) 0.1314(4)
O16_2 O 0.7132(2) 0.0555(2) 0.8963(3)
O17_2 O 0.7200(2) 0.1553(2) 0.9310(3)
O18_2 O 0.31815(17) 0.3128(2) 0.5609(3)
O19_2 O 0.33884(19) 0.4019(3) 0.5127(4)
Cd4_2 Cd 0.2500 0.2500 0.5000
Cd6_4 Cd 0.7500 0.2500 1.0000
Cd7_2 Cd 0.232158(18) 0.08328(2) 0.46642(3)
Cd10_2 Cd 0.267842(18) 0.41672(2) 0.53358(3)
O27_2 O 0.81815(17) 0.1872(2) 0.0609(3)
O29_2 O 0.83884(19) 0.0981(3) 0.0127(4)
C13_3 C 0.3788(3) 0.1648(3) 0.8780(4)
C14_3 C 0.3731(3) 0.1006(4) 0.8541(5)
H13_3 H 0.3873 0.0685 0.8936
C15_3 C 0.3468(4) 0.0852(4) 0.7726(5)
H14_3 H 0.3422 0.0421 0.7575
C16_3 C 0.3269(3) 0.1304(3) 0.7123(4)
C17_3 C 0.3327(3) 0.1940(4) 0.7346(5)
H15_3 H 0.3195 0.2255 0.6939
C18_3 C 0.3588(3) 0.2115(4) 0.8196(5)
H16_3 H 0.3623 0.2545 0.8355
C19_3 C 0.2962(3) 0.1119(3) 0.6230(4)
C21_3 C 0.5727(3) 0.2124(4) 0.9905(6)
H17_3 H 0.5670 0.1691 0.9769
C22_3 C 0.6065(3) 0.2447(3) 0.9682(6)
H18_3 H 0.6232 0.2239 0.9382
C23_3 C 0.6162(2) 0.3093(4) 0.9903(5)
C26_3 C 0.6551(3) 0.3443(4) 0.9710(5)
H22_3 H 0.2051 0.0333 0.2638
O3_3 O 0.40354(19) 0.1871(3) 0.9575(3)
O7_3 O 0.2868(2) 0.0555(2) 0.6037(3)
O8_2 O 0.2800(2) 0.1553(2) 0.5690(3)
O9_2 O 0.68185(17) 0.3128(2) 0.9391(3)
O10_2 O 0.66116(19) 0.4019(3) 0.9873(4)
Cd11_2 Cd 0.732158(18) 0.41672(2) 0.96642(3)
O21_3 O 0.22277(18) 0.2798(2) 0.6015(3)
O25_3 O 0.2200(2) 0.3447(2) 0.4310(3)
O28_2 O 0.18185(17) 0.1872(2) 0.4391(3)
O30_2 O 0.16116(19) 0.0981(3) 0.4873(4)
N5_2 N 0.7705(2) 0.9802(2) 0.0726(4)
N1_2 N 0.2295(2) 0.9802(2) 0.4274(4)
N2_3 N 0.2405(2) 0.8747(3) 0.4365(4)
C27_3 C 0.2396(3) 0.9305(3) 0.4777(5)
H21_3 H 0.2455 0.9329 0.5354
C28_3 C 0.2293(3) 0.8899(3) 0.3516(5)
C29_3 C 0.2233(3) 0.9570(3) 0.3469(5)
C30_3 C 0.2099(3) 0.9892(4) 0.2683(5)
C31_3 C 0.2044(3) 0.9509(4) 0.1978(5)
H23_3 H 0.1965 0.9702 0.1450
C32_3 C 0.2102(3) 0.8862(4) 0.2043(5)
H24_3 H 0.2047 0.8626 0.1551
C33_3 C 0.2241(3) 0.8535(4) 0.2818(5)
H25_3 H 0.2294 0.8094 0.2854
C34_3 C 0.2461(3) 0.8112(3) 0.4704(5)
C35_3 C 0.2782(3) 0.7700(4) 0.4545(6)
H26_3 H 0.2967 0.7837 0.4231
C36_3 C 0.2172(3) 0.7916(4) 0.5147(6)
H27_3 H 0.1949 0.8198 0.5235
N3_3 N 0.2705(2) 0.5198(2) 0.5726(4)
N4_3 N 0.2595(2) 0.6253(3) 0.5635(4)
C37_3 C 0.2604(3) 0.5695(3) 0.5223(5)
H28_3 H 0.2545 0.5671 0.4646
C38_3 C 0.2707(3) 0.6101(3) 0.6484(5)
C39_3 C 0.2767(3) 0.5430(3) 0.6531(5)
C40_3 C 0.2901(3) 0.5108(4) 0.7317(5)
H29_3 H 0.2949 0.4667 0.7362
C41_3 C 0.2956(3) 0.5491(4) 0.8022(5)
H30_3 H 0.3035 0.5298 0.8550
C42_3 C 0.2898(3) 0.6138(4) 0.7957(5)
H31_3 H 0.2953 0.6374 0.8449
C43_3 C 0.2759(3) 0.6465(4) 0.7182(5)
H32_3 H 0.2706 0.6906 0.7146
C44_3 C 0.2539(3) 0.6888(3) 0.5296(5)
C45_3 C 0.2218(3) 0.7300(4) 0.5455(6)
H33_3 H 0.2033 0.7163 0.5769
C46_3 C 0.2828(3) 0.7084(4) 0.4853(6)
H34_3 H 0.3051 0.6802 0.4765
H22_4 H 0.7949 0.0333 0.2362
O25_4 O 0.7800(2) 0.3447(2) 0.0690(3)
O21_4 O 0.77723(18) 0.2798(2) 0.8985(3)
N2_4 N 0.7595(2) 0.8747(3) 0.0635(4)
C27_4 C 0.7604(3) 0.9305(3) 0.0223(5)
C28_4 C 0.7707(3) 0.8899(3) 0.1484(5)
C29_4 C 0.7767(3) 0.9570(3) 0.1531(5)
C30_4 C 0.7901(3) 0.9892(4) 0.2317(5)
C31_4 C 0.7956(3) 0.9509(4) 0.3022(5)
H23_4 H 0.8035 0.9702 0.3550
C32_4 C 0.7898(3) 0.8862(4) 0.2957(5)
H24_4 H 0.7953 0.8626 0.3449
C33_4 C 0.7759(3) 0.8535(4) 0.2182(5)
H25_4 H 0.7706 0.8094 0.2146
C34_4 C 0.7539(3) 0.8112(3) 0.0296(5)
C35_4 C 0.7218(3) 0.7700(4) 0.0455(6)
H26_4 H 0.7033 0.7837 0.0769
H28_4 H 0.7455 0.5671 0.0354
C46_4 C 0.7172(3) 0.7084(4) 0.0147(6)
H34_4 H 0.6949 0.6802 0.0235
H21_4 H 0.7545 0.9329 0.9646
C36_4 C 0.7828(3) 0.7916(4) 0.9853(6)
H27_4 H 0.8051 0.8198 0.9765
N3_4 N 0.7295(2) 0.5198(2) 0.9274(4)
N4_4 N 0.7405(2) 0.6253(3) 0.9365(4)
C37_4 C 0.7396(3) 0.5695(3) 0.9777(5)
C38_4 C 0.7293(3) 0.6101(3) 0.8516(5)
C39_4 C 0.7233(3) 0.5430(3) 0.8469(5)
C40_4 C 0.7099(3) 0.5108(4) 0.7683(5)
H29_4 H 0.7051 0.4667 0.7638
C41_4 C 0.7044(3) 0.5491(4) 0.6978(5)
H30_4 H 0.6965 0.5298 0.6450
C42_4 C 0.7102(3) 0.6138(4) 0.7043(5)
H31_4 H 0.7047 0.6374 0.6551
C43_4 C 0.7241(3) 0.6465(4) 0.7818(5)
H32_4 H 0.7294 0.6906 0.7854
C44_4 C 0.7461(3) 0.6888(3) 0.9704(5)
C45_4 C 0.7782(3) 0.7300(4) 0.9545(6)
H33_4 H 0.7967 0.7163 0.9231
C13_4 C 0.1212(3) 0.3352(3) 0.1220(4)
C14_4 C 0.1269(3) 0.3994(4) 0.1459(5)
H13_4 H 0.1127 0.4315 0.1064
C15_4 C 0.1532(4) 0.4148(4) 0.2274(5)
H14_4 H 0.1578 0.4579 0.2425
C16_4 C 0.1731(3) 0.3696(3) 0.2877(4)
C17_4 C 0.1673(3) 0.3060(4) 0.2654(5)
H15_4 H 0.1805 0.2745 0.3061
C18_4 C 0.1412(3) 0.2885(4) 0.1804(5)
H16_4 H 0.1377 0.2455 0.1645
C19_4 C 0.2038(3) 0.3881(3) 0.3770(4)
O3_4 O 0.09646(19) 0.3129(3) 0.0425(3)
O7_4 O 0.2132(2) 0.4445(2) 0.3963(3)
O22_2 O 0.2421(2) 0.3826(2) 0.6314(4)
C1_4 C 0.0484(2) 0.3203(3) 0.8950(4)
C2_4 C 0.0186(3) 0.3668(4) 0.8259(5)
H1_4 H 0.0391 0.4015 0.8197
C3_4 C 0.0872(2) 0.2896(4) 0.8696(5)
H3_4 H 0.0726 0.2677 0.8157
H4_4 H 0.1050 0.2582 0.9118
C4_4 C 0.0713(3) 0.3582(4) 0.9769(4)
H5_4 H 0.0463 0.3804 0.9912
H6_4 H 0.0940 0.3897 0.9705
C5_4 C 0.0165(3) 0.2668(3) 0.9087(5)
H7_4 H 0.0366 0.2344 0.9465
C6_4 C 0.1428(2) 0.3323(3) 0.8070(4)
C7_4 C 0.1395(3) 0.2812(4) 0.7546(5)
H9_4 H 0.1200 0.2463 0.7554
C8_4 C 0.1651(3) 0.2814(3) 0.7003(5)
H10_4 H 0.1626 0.2465 0.6646
C9_4 C 0.1941(2) 0.3320(3) 0.6985(4)
C10_4 C 0.1967(3) 0.3849(4) 0.7509(5)
H11_4 H 0.2155 0.4203 0.7485
C11_4 C 0.1720(3) 0.3853(4) 0.8050(5)
H12_4 H 0.1744 0.4203 0.8404
C12_4 C 0.2218(2) 0.3302(3) 0.6377(4)
O1_5 O 0.0000 0.3310(4) 0.7500
O2_4 O 0.11950(19) 0.3382(2) 0.8626(3)
H36_4 H 0.0078 0.3851 0.6599
H42_4 H 0.0022 0.2466 0.6448
C66_4 C 0.0470(3) 0.2571(4) 0.5325(5)
C67_4 C 0.0727(3) 0.2876(4) 0.4905(6)
H51_4 H 0.0670 0.3309 0.4769
C68_4 C 0.1065(3) 0.2553(3) 0.4682(6)
H52_4 H 0.1232 0.2761 0.4382
C69_4 C 0.1162(2) 0.1907(4) 0.4903(5)
C70_4 C 0.0905(3) 0.1615(4) 0.5326(5)
H53_4 H 0.0963 0.1184 0.5472
C71_4 C 0.0556(3) 0.1944(4) 0.5548(5)
H54_4 H 0.0385 0.1738 0.5843
C72_4 C 0.1551(3) 0.1557(4) 0.4710(5)
O13_4 O 0.01546(19) 0.2963(3) 0.5544(4)
C21_4 C 0.9273(3) 0.2876(4) 0.0095(6)
H17_4 H 0.9330 0.3309 0.0231
C22_4 C 0.8935(3) 0.2553(3) 0.0318(6)
H18_4 H 0.8768 0.2761 0.0618
C23_4 C 0.8838(2) 0.1907(4) 0.0097(5)
C26_4 C 0.8449(3) 0.1557(4) 0.0290(5)
O23_2 O 0.7868(2) 0.4445(2) 0.1037(3)
H2_4 H 0.9922 0.3851 0.8401
H8_4 H 0.9978 0.2466 0.8552
C20_4 C 0.9530(3) 0.2571(4) 0.9675(5)
C24_4 C 0.9095(3) 0.1615(4) 0.9674(5)
H19_4 H 0.9037 0.1184 0.9528
C25_4 C 0.9444(3) 0.1944(4) 0.9452(5)
H20_4 H 0.9615 0.1738 0.9157
O1_6 O 1.0000 0.3310(4) 0.7500
O4_4 O 0.98454(19) 0.2963(3) 0.9456(4)
C47_4 C 0.9516(2) 0.3203(3) 0.6050(4)
C48_4 C 0.9814(3) 0.3668(4) 0.6741(5)
H35_4 H 0.9609 0.4015 0.6803
C49_4 C 0.9128(2) 0.2896(4) 0.6304(5)
H37_4 H 0.9274 0.2677 0.6843
H38_4 H 0.8950 0.2582 0.5882
C50_4 C 0.9287(3) 0.3582(4) 0.5231(4)
H39_4 H 0.9537 0.3804 0.5088
H40_4 H 0.9060 0.3897 0.5295
C51_4 C 0.9835(3) 0.2668(3) 0.5913(5)
H41_4 H 0.9634 0.2344 0.5535
C52_4 C 0.8572(2) 0.3323(3) 0.6930(4)
C53_4 C 0.8605(3) 0.2812(4) 0.7454(5)
H43_4 H 0.8800 0.2463 0.7446
C54_4 C 0.8349(3) 0.2814(3) 0.7997(5)
H44_4 H 0.8374 0.2465 0.8354
C55_4 C 0.8059(2) 0.3320(3) 0.8015(4)
C56_4 C 0.8033(3) 0.3849(4) 0.7491(5)
H45_4 H 0.7845 0.4203 0.7515
C57_4 C 0.8280(3) 0.3853(4) 0.6950(5)
H46_4 H 0.8256 0.4203 0.6596
C58_4 C 0.7782(2) 0.3302(3) 0.8623(4)
C59_4 C 0.8788(3) 0.3352(3) 0.3780(4)
C60_4 C 0.8731(3) 0.3994(4) 0.3541(5)
H47_4 H 0.8873 0.4315 0.3936
C61_4 C 0.8468(4) 0.4148(4) 0.2726(5)
H48_4 H 0.8422 0.4579 0.2575
C62_4 C 0.8269(3) 0.3696(3) 0.2123(4)
C63_4 C 0.8327(3) 0.3060(4) 0.2346(5)
H49_4 H 0.8195 0.2745 0.1939
C64_4 C 0.8588(3) 0.2885(4) 0.3196(5)
H50_4 H 0.8623 0.2455 0.3355
C65_4 C 0.7962(3) 0.3881(3) 0.1230(4)
O11_4 O 0.88050(19) 0.3382(2) 0.6374(3)
O12_4 O 0.90354(19) 0.3129(3) 0.4575(3)
O15_4 O 0.7579(2) 0.3826(2) 0.8686(4)
loop_
_geom_bond_atom_site_label_1
_geom_bond_atom_site_label_2
_geom_bond_site_symmetry_1
_geom_bond_site_symmetry_2
H19 C24 1_555 1_555
C25 C20 1_555 1_555
H20 C25 1_555 1_555
C47 C48 1_555 1_555
C48 O1 1_555 1_555
H35 C48 1_555 1_555
C49 C47 1_555 1_555
H37 C49 1_555 1_555
H38 C49 1_555 1_555
C50 C47 1_555 1_555
H39 C50 1_555 1_555
H40 C50 1_555 1_555
C51 C47 1_555 1_555
H41 C51 1_555 1_555
C52 C53 1_555 1_555
C53 H43 1_555 1_555
C54 C53 1_555 1_555
H44 C54 1_555 1_555
C55 C54 1_555 1_555
C56 C55 1_555 1_555
H45 C56 1_555 1_555
C57 C52 1_555 1_555
H46 C57 1_555 1_555
C58 C55 1_555 1_555
C59 C60 1_555 1_555
C60 H47 1_555 1_555
C61 C60 1_555 1_555
H48 C61 1_555 1_555
C62 C61 1_555 1_555
C63 C62 1_555 1_555
H49 C63 1_555 1_555
C64 C59 1_555 1_555
H50 C64 1_555 1_555
C65 C62 1_555 1_555
O11 C49 1_555 1_555
O12 C50 1_555 1_555
O14 C58 1_555 1_555
O15 C58 1_555 1_555
O16 C65 1_555 1_555
O17 C65 1_555 1_555
Cd8 O15 1_555 1_555
Cd6_2 O17 1_555 1_555
N5 Cd8 1_555 1_555
O27 Cd8 1_555 1_555
O29 Cd8 1_555 1_555
C20 O4 1_555 1_555
C24 C25 1_555 1_555
C52 O11 1_555 1_555
C56 C57 1_555 1_555
C59 O12 1_555 1_555
C63 C64 1_555 1_555
O14 Cd6 1_555 1_555
Cd6 O27 1_555 1_555
C21 H17 1_555 1_555
C22 C21 1_555 1_555
H18 C22 1_555 1_555
C23 C22 1_555 1_555
C26 C23 1_555 1_555
O9 C26 1_555 1_555
O10 C26 1_555 1_555
Cd6_2 O9 1_555 1_555
Cd11 O9 1_555 1_555
O10 Cd11 1_555 1_555
C1 C2 1_555 1_555
C2 H1 1_555 1_555
C3 C1 1_555 1_555
H3 C3 1_555 1_555
H4 C3 1_555 1_555
C4 C1 1_555 1_555
H5 C4 1_555 1_555
H6 C4 1_555 1_555
C5 C1 1_555 1_555
H7 C5 1_555 1_555
C6 C7 1_555 1_555
C7 H9 1_555 1_555
C8 C7 1_555 1_555
H10 C8 1_555 1_555
C9 C8 1_555 1_555
C10 C9 1_555 1_555
H11 C10 1_555 1_555
C11 C6 1_555 1_555
H12 C11 1_555 1_555
C12 C9 1_555 1_555
O1_2 C2 1_555 1_555
O2 C3 1_555 1_555
O5 C12 1_555 1_555
O6 C12 1_555 1_555
C66 C67 1_555 1_555
C67 H51 1_555 1_555
C68 C67 1_555 1_555
H52 C68 1_555 1_555
C69 C68 1_555 1_555
C70 C69 1_555 1_555
H53 C70 1_555 1_555
C71 C66 1_555 1_555
H54 C71 1_555 1_555
C72 C69 1_555 1_555
O18 C72 1_555 1_555
O19 C72 1_555 1_555
Cd4 O5 1_555 1_555
Cd7 O6 1_555 1_555
Cd10 O18 1_555 1_555
C6 O2 1_555 1_555
C10 C11 1_555 1_555
C66 O13 1_555 1_555
C70 C71 1_555 1_555
O18 Cd4 1_555 1_555
O19 Cd10 1_555 1_555
Cd4 O8 1_555 1_555
Cd7 N1 1_555 1_555
N1 C27 1_555 1_555
N2 C27 1_555 1_555
C13 C14 1_555 1_555
C14 H13 1_555 1_555
C15 C14 1_555 1_555
H14 C15 1_555 1_555
C16 C15 1_555 1_555
C17 C16 1_555 1_555
H15 C17 1_555 1_555
C18 C13 1_555 1_555
H16 C18 1_555 1_555
C19 C16 1_555 1_555
C27 H21 1_555 1_555
C28 N2 1_555 1_555
C29 N1 1_555 1_555
C30 C29 1_555 1_555
H22 C30 1_555 1_555
C31 C30 1_555 1_555
H23 C31 1_555 1_555
C32 C31 1_555 1_555
H24 C32 1_555 1_555
C33 C28 1_555 1_555
H25 C33 1_555 1_555
C34 N2 1_555 1_555
C35 C34 1_555 1_555
H26 C35 1_555 1_555
C36 C34 1_555 1_555
H27 C36 1_555 1_555
O7 Cd7 1_555 1_555
O8 Cd7 1_555 1_555
N3 C37 1_555 1_555
N4 C37 1_555 1_555
C37 H28 1_555 1_555
C38 N4 1_555 1_555
C39 N3 1_555 1_555
C40 C39 1_555 1_555
C41 C40 1_555 1_555
H30 C41 1_555 1_555
C42 C41 1_555 1_555
H31 C42 1_555 1_555
C43 C38 1_555 1_555
H32 C43 1_555 1_555
C44 N4 1_555 1_555
C45 C36 1_555 1_555
H33 C45 1_555 1_555
C46 C35 1_555 1_555
H34 C46 1_555 1_555
O21 Cd4 1_555 1_555
O25 Cd4 1_555 1_555
O28 Cd4 1_555 1_555
O30 Cd7 1_555 1_555
Cd7 O28 1_555 1_555
C13 O3 1_555 1_555
C17 C18 1_555 1_555
C19 O7 1_555 1_555
C19 O8 1_555 1_555
C28 C29 1_555 1_555
C32 C33 1_555 1_555
C38 C39 1_555 1_555
C42 C43 1_555 1_555
C44 C45 1_555 1_555
C44 C46 1_555 1_555
N5 C27_2 1_555 1_555
N2_2 C27_2 1_555 1_555
C28_2 N2_2 1_555 1_555
C29_2 N5 1_555 1_555
C30_2 C29_2 1_555 1_555
H22_2 C30_2 1_555 1_555
C31_2 C30_2 1_555 1_555
H23_2 C31_2 1_555 1_555
C32_2 C31_2 1_555 1_555
H24_2 C32_2 1_555 1_555
C33_2 C28_2 1_555 1_555
H25_2 C33_2 1_555 1_555
C34_2 N2_2 1_555 1_555
C35_2 C34_2 1_555 1_555
H26_2 C35_2 1_555 1_555
C46_2 C35_2 1_555 1_555
H34_2 C46_2 1_555 1_555
O25_2 Cd6 1_555 1_555
C28_2 C29_2 1_555 1_555
C32_2 C33_2 1_555 1_555
H27_2 C36_2 1_555 1_555
N3_2 C37_2 1_555 1_555
N4_2 C37_2 1_555 1_555
C38_2 N4_2 1_555 1_555
C39_2 N3_2 1_555 1_555
C40_2 C39_2 1_555 1_555
C41_2 C40_2 1_555 1_555
H30_2 C41_2 1_555 1_555
C42_2 C41_2 1_555 1_555
H31_2 C42_2 1_555 1_555
C43_2 C38_2 1_555 1_555
H32_2 C43_2 1_555 1_555
C44_2 N4_2 1_555 1_555
C45_2 C36_2 1_555 1_555
H33_2 C45_2 1_555 1_555
O21_2 Cd6_2 1_555 1_555
C38_2 C39_2 1_555 1_555
C42_2 C43_2 1_555 1_555
C44_2 C45_2 1_555 1_555
C13_2 C14_2 1_555 1_555
C14_2 H13_2 1_555 1_555
C15_2 C14_2 1_555 1_555
H14_2 C15_2 1_555 1_555
C16_2 C15_2 1_555 1_555
C17_2 C16_2 1_555 1_555
H15_2 C17_2 1_555 1_555
C18_2 C13_2 1_555 1_555
H16_2 C18_2 1_555 1_555
C19_2 C16_2 1_555 1_555
C21_2 H17_2 1_555 1_555
C22_2 C21_2 1_555 1_555
H18_2 C22_2 1_555 1_555
C23_2 C22_2 1_555 1_555
C26_2 C23_2 1_555 1_555
O7_2 Cd10 1_555 1_555
O25 Cd10 1_555 1_555
O27 C26_2 1_555 1_555
O29 C26_2 1_555 1_555
O22 Cd10 1_555 1_555
C13_2 O3_2 1_555 1_555
C17_2 C18_2 1_555 1_555
C19_2 O7_2 1_555 1_555
C19_2 O25 1_555 1_555
C1_2 C2_2 1_555 1_555
C2_2 H1_2 1_555 1_555
H2_2 C2_2 1_555 1_555
C3_2 C1_2 1_555 1_555
H3_2 C3_2 1_555 1_555
H4_2 C3_2 1_555 1_555
C4_2 C1_2 1_555 1_555
H5_2 C4_2 1_555 1_555
H6_2 C4_2 1_555 1_555
C5_2 C1_2 1_555 1_555
H7_2 C5_2 1_555 1_555
H8_2 C5_2 1_555 1_555
C6_2 C7_2 1_555 1_555
C7_2 H9_2 1_555 1_555
C8_2 C7_2 1_555 1_555
H10_2 C8_2 1_555 1_555
C9_2 C8_2 1_555 1_555
C10_2 C9_2 1_555 1_555
H11_2 C10_2 1_555 1_555
C11_2 C6_2 1_555 1_555
H12_2 C11_2 1_555 1_555
C12_2 C9_2 1_555 1_555
H19_2 C24_2 1_555 1_555
C25_2 C20_2 1_555 1_555
H20_2 C25_2 1_555 1_555
O1_3 C2_2 1_555 1_555
O2_2 C3_2 1_555 1_555
O4_2 C5_2 1_555 1_555
O21 C12_2 1_555 1_555
O22 C12_2 1_555 1_555
C47_2 C48_2 1_555 1_555
C48_2 O1_3 1_555 1_555
H35_2 C48_2 1_555 1_555
H36_2 C48_2 1_555 1_555
C49_2 C47_2 1_555 1_555
H37_2 C49_2 1_555 1_555
H38_2 C49_2 1_555 1_555
C50_2 C47_2 1_555 1_555
H39_2 C50_2 1_555 1_555
H40_2 C50_2 1_555 1_555
C51_2 C47_2 1_555 1_555
H41_2 C51_2 1_555 1_555
H42_2 C51_2 1_555 1_555
C52_2 C53_2 1_555 1_555
C53_2 H43_2 1_555 1_555
C54_2 C53_2 1_555 1_555
H44_2 C54_2 1_555 1_555
C55_2 C54_2 1_555 1_555
C56_2 C55_2 1_555 1_555
H45_2 C56_2 1_555 1_555
C57_2 C52_2 1_555 1_555
H46_2 C57_2 1_555 1_555
C58_2 C55_2 1_555 1_555
C59_2 C60_2 1_555 1_555
C60_2 H47_2 1_555 1_555
C61_2 C60_2 1_555 1_555
H48_2 C61_2 1_555 1_555
C62_2 C61_2 1_555 1_555
C63_2 C62_2 1_555 1_555
H49_2 C63_2 1_555 1_555
C64_2 C59_2 1_555 1_555
H50_2 C64_2 1_555 1_555
C65_2 C62_2 1_555 1_555
C66_2 C67_2 1_555 1_555
C67_2 H51_2 1_555 1_555
C68_2 C67_2 1_555 1_555
H52_2 C68_2 1_555 1_555
C69_2 C68_2 1_555 1_555
C70_2 C69_2 1_555 1_555
H53_2 C70_2 1_555 1_555
C71_2 C66_2 1_555 1_555
H54_2 C71_2 1_555 1_555
C72_2 C69_2 1_555 1_555
O11_2 C49_2 1_555 1_555
O12_2 C50_2 1_555 1_555
O13_2 C51_2 1_555 1_555
O21_2 C58_2 1_555 1_555
O15_2 C58_2 1_555 1_555
O23 C65_2 1_555 1_555
O25_2 C65_2 1_555 1_555
O28 C72_2 1_555 1_555
O30 C72_2 1_555 1_555
Cd11 O15_2 1_555 1_555
C6_2 O2_2 1_555 1_555
C10_2 C11_2 1_555 1_555
C20_2 O4_2 1_555 1_555
C24_2 C25_2 1_555 1_555
C52_2 O11_2 1_555 1_555
C56_2 C57_2 1_555 1_555
C59_2 O12_2 1_555 1_555
C63_2 C64_2 1_555 1_555
C66_2 O13_2 1_555 1_555
C70_2 C71_2 1_555 1_555
C1_3 C2_3 1_555 1_555
C2_3 H1_3 1_555 1_555
H2_3 C2_3 1_555 1_555
C3_3 C1_3 1_555 1_555
H3_3 C3_3 1_555 1_555
H4_3 C3_3 1_555 1_555
C4_3 C1_3 1_555 1_555
H5_3 C4_3 1_555 1_555
H6_3 C4_3 1_555 1_555
C5_3 C1_3 1_555 1_555
H7_3 C5_3 1_555 1_555
H8_3 C5_3 1_555 1_555
C6_3 C7_3 1_555 1_555
C7_3 H9_3 1_555 1_555
C8_3 C7_3 1_555 1_555
H10_3 C8_3 1_555 1_555
C9_3 C8_3 1_555 1_555
C10_3 C9_3 1_555 1_555
H11_3 C10_3 1_555 1_555
C11_3 C6_3 1_555 1_555
H12_3 C11_3 1_555 1_555
C12_3 C9_3 1_555 1_555
H19_3 C24_3 1_555 1_555
C25_3 C20_3 1_555 1_555
H20_3 C25_3 1_555 1_555
O1_4 C2_3 1_555 1_555
O2_3 C3_3 1_555 1_555
O4_3 C5_3 1_555 1_555
O5_2 C12_3 1_555 1_555
O6_2 C12_3 1_555 1_555
C47_3 C48_3 1_555 1_555
C48_3 O1_4 1_555 1_555
H35_3 C48_3 1_555 1_555
H36_3 C48_3 1_555 1_555
C49_3 C47_3 1_555 1_555
H37_3 C49_3 1_555 1_555
H38_3 C49_3 1_555 1_555
C50_3 C47_3 1_555 1_555
H39_3 C50_3 1_555 1_555
H40_3 C50_3 1_555 1_555
C51_3 C47_3 1_555 1_555
H41_3 C51_3 1_555 1_555
H42_3 C51_3 1_555 1_555
C52_3 C53_3 1_555 1_555
C53_3 H43_3 1_555 1_555
C54_3 C53_3 1_555 1_555
H44_3 C54_3 1_555 1_555
C55_3 C54_3 1_555 1_555
C56_3 C55_3 1_555 1_555
H45_3 C56_3 1_555 1_555
C57_3 C52_3 1_555 1_555
H46_3 C57_3 1_555 1_555
C58_3 C55_3 1_555 1_555
C59_3 C60_3 1_555 1_555
C60_3 H47_3 1_555 1_555
C61_3 C60_3 1_555 1_555
H48_3 C61_3 1_555 1_555
C62_3 C61_3 1_555 1_555
C63_3 C62_3 1_555 1_555
H49_3 C63_3 1_555 1_555
C64_3 C59_3 1_555 1_555
H50_3 C64_3 1_555 1_555
C65_3 C62_3 1_555 1_555
C66_3 C67_3 1_555 1_555
C67_3 H51_3 1_555 1_555
C68_3 C67_3 1_555 1_555
H52_3 C68_3 1_555 1_555
C69_3 C68_3 1_555 1_555
C70_3 C69_3 1_555 1_555
H53_3 C70_3 1_555 1_555
C71_3 C66_3 1_555 1_555
H54_3 C71_3 1_555 1_555
C72_3 C69_3 1_555 1_555
O11_3 C49_3 1_555 1_555
O12_3 C50_3 1_555 1_555
O13_3 C51_3 1_555 1_555
O14_2 C58_3 1_555 1_555
O15_3 C58_3 1_555 1_555
O16_2 C65_3 1_555 1_555
O17_2 C65_3 1_555 1_555
O18_2 C72_3 1_555 1_555
O19_2 C72_3 1_555 1_555
Cd8_2 O15_3 1_555 1_555
Cd4_2 O5_2 1_555 1_555
Cd6_4 O17_2 1_555 1_555
Cd7_2 O6_2 1_555 1_555
Cd10_2 O18_2 1_555 1_555
O27_2 Cd8_2 1_555 1_555
O29_2 Cd8_2 1_555 1_555
C6_3 O2_3 1_555 1_555
C10_3 C11_3 1_555 1_555
C20_3 O4_3 1_555 1_555
C24_3 C25_3 1_555 1_555
C52_3 O11_3 1_555 1_555
C56_3 C57_3 1_555 1_555
C59_3 O12_3 1_555 1_555
C63_3 C64_3 1_555 1_555
C66_3 O13_3 1_555 1_555
C70_3 C71_3 1_555 1_555
O14_2 Cd6_3 1_555 1_555
O18_2 Cd4_2 1_555 1_555
O19_2 Cd10_2 1_555 1_555
Cd6_3 O27_2 1_555 1_555
Cd4_2 O8_2 1_555 1_555
C13_3 C14_3 1_555 1_555
C14_3 H13_3 1_555 1_555
C15_3 C14_3 1_555 1_555
H14_3 C15_3 1_555 1_555
C16_3 C15_3 1_555 1_555
C17_3 C16_3 1_555 1_555
H15_3 C17_3 1_555 1_555
C18_3 C13_3 1_555 1_555
H16_3 C18_3 1_555 1_555
C19_3 C16_3 1_555 1_555
C21_3 H17_3 1_555 1_555
C22_3 C21_3 1_555 1_555
H18_3 C22_3 1_555 1_555
C23_3 C22_3 1_555 1_555
C26_3 C23_3 1_555 1_555
O7_3 Cd7_2 1_555 1_555
O8_2 Cd7_2 1_555 1_555
O9_2 C26_3 1_555 1_555
O10_2 C26_3 1_555 1_555
Cd6_4 O9_2 1_555 1_555
Cd11_2 O9_2 1_555 1_555
O21_3 Cd4_2 1_555 1_555
O25_3 Cd4_2 1_555 1_555
O28_2 Cd4_2 1_555 1_555
O30_2 Cd7_2 1_555 1_555
Cd7_2 O28_2 1_555 1_555
C13_3 O3_3 1_555 1_555
C17_3 C18_3 1_555 1_555
C19_3 O7_3 1_555 1_555
C19_3 O8_2 1_555 1_555
O10_2 Cd11_2 1_555 1_555
N1_2 C27_3 1_555 1_555
N2_3 C27_3 1_555 1_555
C27_3 H21_3 1_555 1_555
C28_3 N2_3 1_555 1_555
C29_3 N1_2 1_555 1_555
C30_3 C29_3 1_555 1_555
C31_3 C30_3 1_555 1_555
H23_3 C31_3 1_555 1_555
C32_3 C31_3 1_555 1_555
H24_3 C32_3 1_555 1_555
C33_3 C28_3 1_555 1_555
H25_3 C33_3 1_555 1_555
C34_3 N2_3 1_555 1_555
C35_3 C34_3 1_555 1_555
H26_3 C35_3 1_555 1_555
C36_3 C34_3 1_555 1_555
H27_3 C36_3 1_555 1_555
N3_3 C37_3 1_555 1_555
N4_3 C37_3 1_555 1_555
C37_3 H28_3 1_555 1_555
C38_3 N4_3 1_555 1_555
C39_3 N3_3 1_555 1_555
C40_3 C39_3 1_555 1_555
H29_3 C40_3 1_555 1_555
C41_3 C40_3 1_555 1_555
H30_3 C41_3 1_555 1_555
C42_3 C41_3 1_555 1_555
H31_3 C42_3 1_555 1_555
C43_3 C38_3 1_555 1_555
H32_3 C43_3 1_555 1_555
C44_3 N4_3 1_555 1_555
C45_3 C36_3 1_555 1_555
H33_3 C45_3 1_555 1_555
C46_3 C35_3 1_555 1_555
H34_3 C46_3 1_555 1_555
Cd10_2 N3_3 1_555 1_555
C28_3 C29_3 1_555 1_555
C32_3 C33_3 1_555 1_555
C38_3 C39_3 1_555 1_555
C42_3 C43_3 1_555 1_555
C44_3 C45_3 1_555 1_555
C44_3 C46_3 1_555 1_555
O25_4 Cd6_3 1_555 1_555
O21_4 Cd6_4 1_555 1_555
N5_2 C27_4 1_555 1_555
N2_4 C27_4 1_555 1_555
C28_4 N2_4 1_555 1_555
C29_4 N5_2 1_555 1_555
C30_4 C29_4 1_555 1_555
C31_4 C30_4 1_555 1_555
H23_4 C31_4 1_555 1_555
C32_4 C31_4 1_555 1_555
H24_4 C32_4 1_555 1_555
C33_4 C28_4 1_555 1_555
H25_4 C33_4 1_555 1_555
C34_4 N2_4 1_555 1_555
C35_4 C34_4 1_555 1_555
H26_4 C35_4 1_555 1_555
C46_4 C35_4 1_555 1_555
H34_4 C46_4 1_555 1_555
C28_4 C29_4 1_555 1_555
C32_4 C33_4 1_555 1_555
H27_4 C36_4 1_555 1_555
N3_4 C37_4 1_555 1_555
N4_4 C37_4 1_555 1_555
C38_4 N4_4 1_555 1_555
C39_4 N3_4 1_555 1_555
C40_4 C39_4 1_555 1_555
H29_4 C40_4 1_555 1_555
C41_4 C40_4 1_555 1_555
H30_4 C41_4 1_555 1_555
C42_4 C41_4 1_555 1_555
H31_4 C42_4 1_555 1_555
C43_4 C38_4 1_555 1_555
H32_4 C43_4 1_555 1_555
C44_4 N4_4 1_555 1_555
C45_4 C36_4 1_555 1_555
H33_4 C45_4 1_555 1_555
Cd11_2 N3_4 1_555 1_555
C38_4 C39_4 1_555 1_555
C42_4 C43_4 1_555 1_555
C44_4 C45_4 1_555 1_555
C13_4 C14_4 1_555 1_555
C14_4 H13_4 1_555 1_555
C15_4 C14_4 1_555 1_555
H14_4 C15_4 1_555 1_555
C16_4 C15_4 1_555 1_555
C17_4 C16_4 1_555 1_555
H15_4 C17_4 1_555 1_555
C18_4 C13_4 1_555 1_555
H16_4 C18_4 1_555 1_555
C19_4 C16_4 1_555 1_555
O7_4 Cd10_2 1_555 1_555
O25_3 Cd10_2 1_555 1_555
O22_2 Cd10_2 1_555 1_555
C13_4 O3_4 1_555 1_555
C17_4 C18_4 1_555 1_555
C19_4 O7_4 1_555 1_555
C19_4 O25_3 1_555 1_555
C1_4 C2_4 1_555 1_555
C2_4 H1_4 1_555 1_555
C3_4 C1_4 1_555 1_555
H3_4 C3_4 1_555 1_555
H4_4 C3_4 1_555 1_555
C4_4 C1_4 1_555 1_555
H5_4 C4_4 1_555 1_555
H6_4 C4_4 1_555 1_555
C5_4 C1_4 1_555 1_555
H7_4 C5_4 1_555 1_555
C6_4 C7_4 1_555 1_555
C7_4 H9_4 1_555 1_555
C8_4 C7_4 1_555 1_555
H10_4 C8_4 1_555 1_555
C9_4 C8_4 1_555 1_555
C10_4 C9_4 1_555 1_555
H11_4 C10_4 1_555 1_555
C11_4 C6_4 1_555 1_555
H12_4 C11_4 1_555 1_555
C12_4 C9_4 1_555 1_555
O1_5 C2_4 1_555 1_555
O2_4 C3_4 1_555 1_555
O21_3 C12_4 1_555 1_555
O22_2 C12_4 1_555 1_555
C66_4 C67_4 1_555 1_555
C67_4 H51_4 1_555 1_555
C68_4 C67_4 1_555 1_555
H52_4 C68_4 1_555 1_555
C69_4 C68_4 1_555 1_555
C70_4 C69_4 1_555 1_555
H53_4 C70_4 1_555 1_555
C71_4 C66_4 1_555 1_555
H54_4 C71_4 1_555 1_555
C72_4 C69_4 1_555 1_555
O28_2 C72_4 1_555 1_555
O30_2 C72_4 1_555 1_555
C6_4 O2_4 1_555 1_555
C10_4 C11_4 1_555 1_555
C66_4 O13_4 1_555 1_555
C70_4 C71_4 1_555 1_555
C21_4 H17_4 1_555 1_555
C22_4 C21_4 1_555 1_555
H18_4 C22_4 1_555 1_555
C23_4 C22_4 1_555 1_555
C26_4 C23_4 1_555 1_555
O27_2 C26_4 1_555 1_555
O29_2 C26_4 1_555 1_555
H19_4 C24_4 1_555 1_555
C25_4 C20_4 1_555 1_555
H20_4 C25_4 1_555 1_555
C47_4 C48_4 1_555 1_555
C48_4 O1_6 1_555 1_555
H35_4 C48_4 1_555 1_555
C49_4 C47_4 1_555 1_555
H37_4 C49_4 1_555 1_555
H38_4 C49_4 1_555 1_555
C50_4 C47_4 1_555 1_555
H39_4 C50_4 1_555 1_555
H40_4 C50_4 1_555 1_555
C51_4 C47_4 1_555 1_555
H41_4 C51_4 1_555 1_555
C52_4 C53_4 1_555 1_555
C53_4 H43_4 1_555 1_555
C54_4 C53_4 1_555 1_555
H44_4 C54_4 1_555 1_555
C55_4 C54_4 1_555 1_555
C56_4 C55_4 1_555 1_555
H45_4 C56_4 1_555 1_555
C57_4 C52_4 1_555 1_555
H46_4 C57_4 1_555 1_555
C58_4 C55_4 1_555 1_555
C59_4 C60_4 1_555 1_555
C60_4 H47_4 1_555 1_555
C61_4 C60_4 1_555 1_555
H48_4 C61_4 1_555 1_555
C62_4 C61_4 1_555 1_555
C63_4 C62_4 1_555 1_555
H49_4 C63_4 1_555 1_555
C64_4 C59_4 1_555 1_555
H50_4 C64_4 1_555 1_555
C65_4 C62_4 1_555 1_555
O11_4 C49_4 1_555 1_555
O12_4 C50_4 1_555 1_555
O21_4 C58_4 1_555 1_555
O15_4 C58_4 1_555 1_555
O23_2 C65_4 1_555 1_555
O25_4 C65_4 1_555 1_555
Cd11_2 O15_4 1_555 1_555
C20_4 O4_4 1_555 1_555
C24_4 C25_4 1_555 1_555
C52_4 O11_4 1_555 1_555
C56_4 C57_4 1_555 1_555
C59_4 O12_4 1_555 1_555
C63_4 C64_4 1_555 1_555

#END
