
###############################################################################
#
# This file contains modified crystal structure data generated from the
# MOF subset of the Cambridge Structural Database (CSD) v543 
# hosted by the Cambridge Crystallographic Data Centre (CCDC).
#
# This work is licensed under the Creative Commons
# Attribution-NonCommercial-ShareAlike 4.0 International License.
# To view a copy of this license, visit
# http://creativecommons.org/licenses/by-nc-sa/4.0/
# or send a letter to
# Creative Commons, PO Box 1866, Mountain View, CA 94042, USA.
#
# CIF created using the CSD Python API on 29 September 2022
# The structure has been converted into the P1 space group
# The structure has a 3D framework
# The original CSD entry DEQVIF is in the monoclinic crystal system
# The framework has been calculated to contain at least 10.0% void space
# The void calculation uses a probe of radius 1.32A, grid spacing 0.4
#
###############################################################################

data_DEQVIF
_chemical_formula_moiety         '(C80 H64 Mn4 N8 O22)n'
_symmetry_cell_setting           triclinic
_symmetry_space_group_name_H-M   'P 1'
_symmetry_Int_Tables_number      1
_space_group_name_Hall           'P 1'
loop_
_symmetry_equiv_pos_site_id
_symmetry_equiv_pos_as_xyz
1 x,y,z
_cell_length_a                   11.507(2)
_cell_length_b                   23.254(5)
_cell_length_c                   9.8710(19)
_cell_angle_alpha                90
_cell_angle_beta                 96.418(4)
_cell_angle_gamma                90
_cell_volume                     2624.77
loop_
_atom_site_label
_atom_site_type_symbol
_atom_site_fract_x
_atom_site_fract_y
_atom_site_fract_z
C19 C 0.2170(2) 0.71613(12) 0.0299(3)
H15 H 0.2435 0.6891 0.1015
H16 H 0.1756 0.7465 0.0718
O6 O 0.39284(17) 0.77291(7) 0.0633(2)
Mn5 Mn 0.49998(3) 0.767073(16) 0.25045(4)
C13 C 0.0645(2) 0.71699(13) 0.8497(3)
C14 C 0.0665(3) 0.77803(13) 0.8488(3)
H10 H 0.1135 0.7987 0.9145
C20 C 0.3233(2) 0.74236(12) 0.9806(3)
O4 O 0.13794(16) 0.68837(8) 0.9401(2)
O5 O 0.34869(15) 0.72401(8) 0.87301(18)
Mn4 Mn 0.49998(3) 0.732927(16) 0.75045(4)
N1 N 0.4986(2) 0.66449(11) 0.2455(2)
C1 C 0.5701(3) 0.63265(14) 0.1623(3)
H1 H 0.6183 0.6513 0.1067
C2 C 0.5654(3) 0.57325(14) 0.1674(3)
H2 H 0.6107 0.5521 0.1130
C3 C 0.4952(3) 0.54365(13) 0.2509(3)
C4 C 0.4303(3) 0.57652(14) 0.3341(3)
H3 H 0.3858 0.5584 0.3946
C5 C 0.4323(3) 0.63666(13) 0.3265(3)
H4 H 0.3860 0.6578 0.3797
C6 C 0.4877(2) 0.47966(13) 0.2454(3)
C7 C 0.5192(3) 0.44728(13) 0.1392(3)
H5 H 0.5400 0.4657 0.0618
C8 C 0.5208(2) 0.38832(13) 0.1446(3)
H6 H 0.5405 0.3674 0.0701
N2 N 0.49399(19) 0.36001(10) 0.2580(2)
C9 C 0.4633(3) 0.38983(13) 0.3709(3)
H7 H 0.4444 0.3706 0.4481
C10 C 0.4620(3) 0.44966(13) 0.3636(3)
H8 H 0.4437 0.4706 0.4387
C11 C 0.9199(2) 0.71570(13) 0.6557(3)
C12 C 0.9934(2) 0.68626(13) 0.7569(3)
H9 H 0.9932 0.6463 0.7602
C15 C 0.9946(3) 0.80603(14) 0.7445(3)
H11 H 0.9981 0.8459 0.7374
C16 C 0.9193(2) 0.77578(13) 0.6530(3)
H12 H 0.8679 0.7952 0.5894
C17 C 0.7691(2) 0.70810(13) 0.4770(3)
H13 H 0.7387 0.6795 0.4107
H14 H 0.8109 0.7363 0.4285
C18 C 0.6699(2) 0.73701(12) 0.5244(3)
O1 O 0.84999(16) 0.68105(9) 0.56913(18)
O2 O 0.61559(15) 0.76965(9) 0.44413(18)
O3 O 0.65696(15) 0.73468(8) 0.65252(17)
Mn2 Mn 0.50002(3) 0.267073(16) 0.24955(4)
N3 N 0.50601(19) 0.86001(10) 0.2420(2)
O7 O 0.65696(15) 0.76532(8) 0.15252(17)
O8 O 0.34869(15) 0.77599(8) 0.37301(18)
N1_2 N 0.5014(2) 0.16449(11) 0.2545(2)
C1_2 C 0.4299(3) 0.13265(14) 0.3377(3)
H1_2 H 0.3817 0.1513 0.3933
C2_2 C 0.4346(3) 0.07325(14) 0.3326(3)
H2_2 H 0.3893 0.0521 0.3870
C3_2 C 0.5048(3) 0.04365(13) 0.2491(3)
C4_2 C 0.5697(3) 0.07652(14) 0.1659(3)
H3_2 H 0.6142 0.0584 0.1054
C5_2 C 0.5677(3) 0.13666(13) 0.1735(3)
H4_2 H 0.6140 0.1578 0.1203
C17_2 C 0.2309(2) 0.20810(13) 0.0230(3)
H13_2 H 0.2613 0.1795 0.0893
H14_2 H 0.1891 0.2363 0.0715
O2_2 O 0.38441(15) 0.26965(9) 0.05587(18)
O7_2 O 0.34304(15) 0.26532(8) 0.34748(17)
O8_2 O 0.65131(15) 0.27599(8) 0.12699(18)
O9 O 0.60716(17) 0.27291(7) 0.4367(2)
C11_2 C 0.0801(2) 0.21570(13) 0.8443(3)
C12_2 C 0.0066(2) 0.18626(13) 0.7431(3)
H9_2 H 0.0068 0.1463 0.7398
C15_2 C 0.0054(3) 0.30603(14) 0.7555(3)
H11_2 H 0.0019 0.3459 0.7626
C16_2 C 0.0807(2) 0.27578(13) 0.8470(3)
H12_2 H 0.1321 0.2952 0.9106
C18_2 C 0.3301(2) 0.23701(12) 0.9756(3)
O1_2 O 0.15001(16) 0.18105(9) 0.93087(18)
O3_2 O 0.34304(15) 0.23468(8) 0.84748(17)
Mn3 Mn 0.50002(3) 0.232927(16) 0.74955(4)
C6_2 C 0.5123(2) 0.97966(13) 0.2546(3)
C7_2 C 0.4808(3) 0.94728(13) 0.3608(3)
H5_2 H 0.4600 0.9657 0.4382
C8_2 C 0.4792(2) 0.88832(13) 0.3554(3)
H6_2 H 0.4595 0.8674 0.4299
C9_2 C 0.5367(3) 0.88983(13) 0.1291(3)
H7_2 H 0.5556 0.8706 0.0519
C10_2 C 0.5380(3) 0.94966(13) 0.1364(3)
H8_2 H 0.5563 0.9706 0.0613
C13_2 C 0.9355(2) 0.21699(13) 0.6503(3)
C14_2 C 0.9335(3) 0.27803(13) 0.6512(3)
H10_2 H 0.8865 0.2987 0.5855
C19_2 C 0.7830(2) 0.21613(12) 0.4701(3)
H15_2 H 0.7565 0.1891 0.3985
H16_2 H 0.8244 0.2465 0.4282
C20_2 C 0.6767(2) 0.24236(12) 0.5194(3)
O4_2 O 0.86206(16) 0.18837(8) 0.5599(2)
O5_2 O 0.65131(15) 0.22401(8) 0.62699(18)
N1_3 N 0.5014(2) 0.33551(11) 0.7545(2)
C1_3 C 0.4299(3) 0.36735(14) 0.8377(3)
H1_3 H 0.3817 0.3487 0.8933
C2_3 C 0.4346(3) 0.42675(14) 0.8326(3)
H2_3 H 0.3893 0.4479 0.8870
C3_3 C 0.5048(3) 0.45635(13) 0.7491(3)
C4_3 C 0.5697(3) 0.42348(14) 0.6659(3)
H3_3 H 0.6142 0.4416 0.6054
C5_3 C 0.5677(3) 0.36334(13) 0.6735(3)
H4_3 H 0.6140 0.3422 0.6203
C6_3 C 0.5123(2) 0.52034(13) 0.7546(3)
C7_3 C 0.4808(3) 0.55272(13) 0.8608(3)
H5_3 H 0.4600 0.5343 0.9382
C8_3 C 0.4792(2) 0.61168(13) 0.8554(3)
H6_3 H 0.4595 0.6326 0.9299
N2_2 N 0.50601(19) 0.63999(10) 0.7420(2)
C9_3 C 0.5367(3) 0.61017(13) 0.6291(3)
H7_3 H 0.5556 0.6294 0.5519
C10_3 C 0.5380(3) 0.55034(13) 0.6364(3)
H8_3 H 0.5563 0.5294 0.5613
C11_3 C 0.0801(2) 0.28430(13) 0.3443(3)
C12_3 C 0.0066(2) 0.31374(13) 0.2431(3)
H9_3 H 0.0068 0.3537 0.2398
C15_3 C 0.0054(3) 0.19397(14) 0.2555(3)
H11_3 H 0.0019 0.1541 0.2626
C16_3 C 0.0807(2) 0.22422(13) 0.3470(3)
H12_3 H 0.1321 0.2048 0.4106
C17_3 C 0.2309(2) 0.29190(13) 0.5230(3)
H13_3 H 0.2613 0.3205 0.5893
H14_3 H 0.1891 0.2637 0.5715
C18_3 C 0.3301(2) 0.26299(12) 0.4756(3)
O1_3 O 0.15001(16) 0.31895(9) 0.43087(18)
O2_3 O 0.38441(15) 0.23035(9) 0.55587(18)
N3_2 N 0.49399(19) 0.13999(10) 0.7580(2)
O9_2 O 0.60716(17) 0.22709(7) 0.9367(2)
C13_3 C 0.9355(2) 0.28301(13) 0.1503(3)
C14_3 C 0.9335(3) 0.22197(13) 0.1512(3)
H10_3 H 0.8865 0.2013 0.0855
C20_3 C 0.6767(2) 0.25764(12) 0.0194(3)
O4_3 O 0.86206(16) 0.31163(8) 0.0599(2)
C19_3 C 0.7830(2) 0.28387(12) 0.9701(3)
H15_3 H 0.7565 0.3109 0.8985
H16_3 H 0.8244 0.2535 0.9282
C13_4 C 0.0645(2) 0.78301(13) 0.3497(3)
C14_4 C 0.0665(3) 0.72197(13) 0.3488(3)
H10_4 H 0.1135 0.7013 0.4145
C19_4 C 0.2170(2) 0.78387(12) 0.5299(3)
H15_4 H 0.2435 0.8109 0.6015
H16_4 H 0.1756 0.7535 0.5718
C20_4 C 0.3233(2) 0.75764(12) 0.4806(3)
O4_4 O 0.13794(16) 0.81163(8) 0.4401(2)
O6_2 O 0.39284(17) 0.72709(7) 0.5633(2)
C6_4 C 0.4877(2) 0.02034(13) 0.7454(3)
C7_4 C 0.5192(3) 0.05272(13) 0.6392(3)
H5_4 H 0.5400 0.0343 0.5618
C8_4 C 0.5208(2) 0.11168(13) 0.6446(3)
H6_4 H 0.5405 0.1326 0.5701
C9_4 C 0.4633(3) 0.11017(13) 0.8709(3)
H7_4 H 0.4444 0.1294 0.9481
C10_4 C 0.4620(3) 0.05034(13) 0.8636(3)
H8_4 H 0.4437 0.0294 0.9387
C11_4 C 0.9199(2) 0.78430(13) 0.1557(3)
C12_4 C 0.9934(2) 0.81374(13) 0.2569(3)
H9_4 H 0.9932 0.8537 0.2602
C15_4 C 0.9946(3) 0.69397(14) 0.2445(3)
H11_4 H 0.9981 0.6541 0.2374
C16_4 C 0.9193(2) 0.72422(13) 0.1530(3)
H12_4 H 0.8679 0.7048 0.0894
C18_4 C 0.6699(2) 0.76299(12) 0.0244(3)
O1_4 O 0.84999(16) 0.81895(9) 0.06913(18)
N1_4 N 0.4986(2) 0.83551(11) 0.7455(2)
C1_4 C 0.5701(3) 0.86735(14) 0.6623(3)
H1_4 H 0.6183 0.8487 0.6067
C2_4 C 0.5654(3) 0.92675(14) 0.6674(3)
H2_4 H 0.6107 0.9479 0.6130
C3_4 C 0.4952(3) 0.95635(13) 0.7509(3)
C4_4 C 0.4303(3) 0.92348(14) 0.8341(3)
H3_4 H 0.3858 0.9416 0.8946
C5_4 C 0.4323(3) 0.86334(13) 0.8265(3)
H4_4 H 0.3860 0.8422 0.8797
C17_4 C 0.7691(2) 0.79190(13) 0.9770(3)
H13_4 H 0.7387 0.8205 0.9107
H14_4 H 0.8109 0.7637 0.9285
O2_4 O 0.61559(15) 0.73035(9) 0.94413(18)
loop_
_geom_bond_atom_site_label_1
_geom_bond_atom_site_label_2
_geom_bond_site_symmetry_1
_geom_bond_site_symmetry_2
C19 H15 1_555 1_555
H16 C19 1_555 1_555
Mn5 O6 1_555 1_555
C14 C13 1_555 1_555
H10 C14 1_555 1_555
O4 C13 1_555 1_555
O5 C20 1_555 1_555
Mn4 O5 1_555 1_555
Mn5 N1 1_555 1_555
N1 C1 1_555 1_555
C1 H1 1_555 1_555
C2 C1 1_555 1_555
H2 C2 1_555 1_555
C3 C2 1_555 1_555
C4 C3 1_555 1_555
H3 C4 1_555 1_555
C5 N1 1_555 1_555
H4 C5 1_555 1_555
C6 C3 1_555 1_555
C7 C6 1_555 1_555
H5 C7 1_555 1_555
C8 C7 1_555 1_555
H6 C8 1_555 1_555
N2 C8 1_555 1_555
C9 N2 1_555 1_555
H7 C9 1_555 1_555
C10 C6 1_555 1_555
H8 C10 1_555 1_555
C11 C12 1_555 1_555
C12 H9 1_555 1_555
H11 C15 1_555 1_555
C16 C11 1_555 1_555
H12 C16 1_555 1_555
C17 H13 1_555 1_555
H14 C17 1_555 1_555
C18 C17 1_555 1_555
O1 C11 1_555 1_555
O2 Mn5 1_555 1_555
O3 C18 1_555 1_555
Mn2 N2 1_555 1_555
Mn4 O3 1_555 1_555
N3 Mn5 1_555 1_555
O7 Mn5 1_555 1_555
O8 Mn5 1_555 1_555
C4 C5 1_555 1_555
C9 C10 1_555 1_555
C15 C16 1_555 1_555
C17 O1 1_555 1_555
C18 O2 1_555 1_555
Mn2 N1_2 1_555 1_555
N1_2 C1_2 1_555 1_555
C1_2 H1_2 1_555 1_555
C2_2 C1_2 1_555 1_555
H2_2 C2_2 1_555 1_555
C3_2 C2_2 1_555 1_555
C4_2 C3_2 1_555 1_555
H3_2 C4_2 1_555 1_555
C5_2 N1_2 1_555 1_555
H4_2 C5_2 1_555 1_555
C17_2 H13_2 1_555 1_555
H14_2 C17_2 1_555 1_555
O2_2 Mn2 1_555 1_555
O7_2 Mn2 1_555 1_555
O8_2 Mn2 1_555 1_555
O9 Mn2 1_555 1_555
C4_2 C5_2 1_555 1_555
C11_2 C12_2 1_555 1_555
C12_2 H9_2 1_555 1_555
H11_2 C15_2 1_555 1_555
C16_2 C11_2 1_555 1_555
H12_2 C16_2 1_555 1_555
O1_2 C11_2 1_555 1_555
O3_2 C18_2 1_555 1_555
Mn3 O3_2 1_555 1_555
C15_2 C16_2 1_555 1_555
C7_2 C6_2 1_555 1_555
H5_2 C7_2 1_555 1_555
C8_2 C7_2 1_555 1_555
H6_2 C8_2 1_555 1_555
N3 C8_2 1_555 1_555
C9_2 N3 1_555 1_555
H7_2 C9_2 1_555 1_555
C10_2 C6_2 1_555 1_555
H8_2 C10_2 1_555 1_555
C9_2 C10_2 1_555 1_555
C14_2 C13_2 1_555 1_555
H10_2 C14_2 1_555 1_555
C19_2 H15_2 1_555 1_555
H16_2 C19_2 1_555 1_555
C20_2 C19_2 1_555 1_555
O4_2 C13_2 1_555 1_555
O5_2 C20_2 1_555 1_555
O9 C20_2 1_555 1_555
Mn3 O5_2 1_555 1_555
C19_2 O4_2 1_555 1_555
Mn3 N1_3 1_555 1_555
N1_3 C1_3 1_555 1_555
C1_3 H1_3 1_555 1_555
C2_3 C1_3 1_555 1_555
H2_3 C2_3 1_555 1_555
C3_3 C2_3 1_555 1_555
C4_3 C3_3 1_555 1_555
H3_3 C4_3 1_555 1_555
C5_3 N1_3 1_555 1_555
H4_3 C5_3 1_555 1_555
C6_3 C3_3 1_555 1_555
C7_3 C6_3 1_555 1_555
H5_3 C7_3 1_555 1_555
C8_3 C7_3 1_555 1_555
H6_3 C8_3 1_555 1_555
N2_2 C8_3 1_555 1_555
C9_3 N2_2 1_555 1_555
H7_3 C9_3 1_555 1_555
C10_3 C6_3 1_555 1_555
H8_3 C10_3 1_555 1_555
C11_3 C12_3 1_555 1_555
C12_3 H9_3 1_555 1_555
H11_3 C15_3 1_555 1_555
C16_3 C11_3 1_555 1_555
H12_3 C16_3 1_555 1_555
C17_3 H13_3 1_555 1_555
H14_3 C17_3 1_555 1_555
C18_3 C17_3 1_555 1_555
O1_3 C11_3 1_555 1_555
O2_3 Mn3 1_555 1_555
O7_2 C18_3 1_555 1_555
Mn4 N2_2 1_555 1_555
N3_2 Mn3 1_555 1_555
O9_2 Mn3 1_555 1_555
C4_3 C5_3 1_555 1_555
C9_3 C10_3 1_555 1_555
C15_3 C16_3 1_555 1_555
C17_3 O1_3 1_555 1_555
C18_3 O2_3 1_555 1_555
C14_3 C13_3 1_555 1_555
H10_3 C14_3 1_555 1_555
O4_3 C13_3 1_555 1_555
O8_2 C20_3 1_555 1_555
C19_3 H15_3 1_555 1_555
H16_3 C19_3 1_555 1_555
C14_4 C13_4 1_555 1_555
H10_4 C14_4 1_555 1_555
C19_4 H15_4 1_555 1_555
H16_4 C19_4 1_555 1_555
C20_4 C19_4 1_555 1_555
O4_4 C13_4 1_555 1_555
O8 C20_4 1_555 1_555
O6_2 C20_4 1_555 1_555
Mn4 O6_2 1_555 1_555
C19_4 O4_4 1_555 1_555
C7_4 C6_4 1_555 1_555
H5_4 C7_4 1_555 1_555
C8_4 C7_4 1_555 1_555
H6_4 C8_4 1_555 1_555
N3_2 C8_4 1_555 1_555
C9_4 N3_2 1_555 1_555
H7_4 C9_4 1_555 1_555
C10_4 C6_4 1_555 1_555
H8_4 C10_4 1_555 1_555
C9_4 C10_4 1_555 1_555
C11_4 C12_4 1_555 1_555
C12_4 H9_4 1_555 1_555
H11_4 C15_4 1_555 1_555
C16_4 C11_4 1_555 1_555
H12_4 C16_4 1_555 1_555
O1_4 C11_4 1_555 1_555
O7 C18_4 1_555 1_555
C15_4 C16_4 1_555 1_555
Mn4 N1_4 1_555 1_555
N1_4 C1_4 1_555 1_555
C1_4 H1_4 1_555 1_555
C2_4 C1_4 1_555 1_555
H2_4 C2_4 1_555 1_555
C3_4 C2_4 1_555 1_555
C4_4 C3_4 1_555 1_555
H3_4 C4_4 1_555 1_555
C5_4 N1_4 1_555 1_555
H4_4 C5_4 1_555 1_555
C17_4 H13_4 1_555 1_555
H14_4 C17_4 1_555 1_555
O2_4 Mn4 1_555 1_555
C4_4 C5_4 1_555 1_555

#END
