
###############################################################################
#
# This file contains modified crystal structure data generated from the
# MOF subset of the Cambridge Structural Database (CSD) v543 
# hosted by the Cambridge Crystallographic Data Centre (CCDC).
#
# This work is licensed under the Creative Commons
# Attribution-NonCommercial-ShareAlike 4.0 International License.
# To view a copy of this license, visit
# http://creativecommons.org/licenses/by-nc-sa/4.0/
# or send a letter to
# Creative Commons, PO Box 1866, Mountain View, CA 94042, USA.
#
# CIF created using the CSD Python API on 29 September 2022
# The structure has been converted into the P1 space group
# The structure has a 3D framework
# The original CSD entry DERBIO is in the orthorhombic crystal system
# The framework has been calculated to contain at least 10.0% void space
# The void calculation uses a probe of radius 1.32A, grid spacing 0.4
# The framework is charged, counterions have been retained in the structure
#
###############################################################################

data_DERBIO
_chemical_formula_moiety         '(C224 H128 Co12 O60 2-)n'
_symmetry_cell_setting           triclinic
_symmetry_space_group_name_H-M   'P 1'
_symmetry_Int_Tables_number      1
_space_group_name_Hall           'P 1'
loop_
_symmetry_equiv_pos_site_id
_symmetry_equiv_pos_as_xyz
1 x,y,z
_cell_length_a                   26.0789(5)
_cell_length_b                   22.3894(5)
_cell_length_c                   13.9388(3)
_cell_angle_alpha                90
_cell_angle_beta                 90
_cell_angle_gamma                90
_cell_volume                     8138.74
loop_
_atom_site_label
_atom_site_type_symbol
_atom_site_fract_x
_atom_site_fract_y
_atom_site_fract_z
O9 O 0.10309(10) 0.00307(10) 0.25267(17)
Co5 Co 0.09447(2) 0.09008(2) 0.22671(2)
O11 O 0.10831(9) 0.09524(8) 0.08047(13)
O12 O 0.09231(7) 0.17939(8) 0.14786(12)
C36 C 0.10297(9) 0.15082(11) 0.07436(17)
H24 H 0.087836 0.263185 0.022827
Co8 Co 0.09461(2) 0.250000 0.250000
Co1 Co 0.09447(2) 0.40992(2) 0.27329(2)
O1 O 0.15900(7) 0.38776(8) 0.20613(15)
O2 O 0.15138(7) 0.29048(9) 0.17325(15)
O5 O 0.10309(10) 0.49693(10) 0.24733(17)
O6 O 0.02997(14) 0.50105(13) 0.3203(3)
O7 O 0.10831(9) 0.40476(8) 0.41953(13)
O8 O 0.09231(7) 0.32061(8) 0.35214(12)
C1 C 0.17389(10) 0.33929(13) 0.17039(19)
C2 C 0.22436(10) 0.34057(13) 0.1183(2)
C3 C 0.24913(11) 0.39389(13) 0.0991(2)
H1 H 0.234471 0.429799 0.118425
C4 C 0.29552(12) 0.39397(14) 0.0515(3)
H2 H 0.311702 0.430141 0.038922
C5 C 0.31832(11) 0.34162(14) 0.0223(2)
C6 C 0.29330(12) 0.28847(15) 0.0413(3)
H3 H 0.307995 0.252664 0.021581
C7 C 0.24704(12) 0.28764(14) 0.0887(3)
H4 H 0.230903 0.251405 0.101033
H8 H 0.392518 0.261736 0.017362
C15 C 0.06656(17) 0.52484(16) 0.2788(3)
C16 C 0.06715(15) 0.59296(14) 0.2692(3)
C17 C 0.02444(17) 0.62584(17) 0.2910(4)
C18 C 0.02545(16) 0.68712(17) 0.2813(4)
C19 C 0.07004(16) 0.71676(14) 0.2547(3)
C20 C 0.11176(18) 0.68341(17) 0.2365(3)
H11 H 0.142243 0.702151 0.219392
C21 C 0.11026(15) 0.62029(16) 0.2429(3)
H12 H 0.139361 0.597960 0.228695
C22 C 0.10297(9) 0.34918(11) 0.42564(17)
C23 C 0.10716(10) 0.31913(11) 0.52105(18)
C24 C 0.11981(15) 0.35115(14) 0.6016(2)
H13 H 0.126785 0.391739 0.596005
C25 C 0.12242(15) 0.32447(13) 0.6906(2)
H14 H 0.131628 0.347127 0.743759
C26 C 0.11147(12) 0.26425(12) 0.70178(18)
C27 C 0.09874(14) 0.23233(13) 0.62024(19)
H15 H 0.091474 0.191796 0.625522
C28 C 0.09654(12) 0.25932(12) 0.53084(18)
H16 H 0.087836 0.236815 0.477173
O10 O 0.02997(14) 0.99895(13) 0.1797(3)
C29 C 0.06656(17) 0.97516(16) 0.2212(3)
C30 C 0.06715(15) 0.90704(14) 0.2308(3)
C31 C 0.02444(17) 0.87416(17) 0.2090(4)
C32 C 0.02545(16) 0.81288(17) 0.2187(4)
C33 C 0.07004(16) 0.78324(14) 0.2453(3)
C34 C 0.11176(18) 0.81659(17) 0.2635(3)
H19 H 0.142243 0.797849 0.280608
C35 C 0.11026(15) 0.87971(16) 0.2571(3)
H20 H 0.139361 0.902040 0.271305
C37 C 0.10716(10) 0.18087(11) 0.97895(18)
C38 C 0.11981(15) 0.14885(14) 0.8984(2)
H21 H 0.126785 0.108261 0.903995
C39 C 0.12242(15) 0.17553(13) 0.8094(2)
H22 H 0.131628 0.152873 0.756241
C40 C 0.11147(12) 0.23575(12) 0.79822(18)
C41 C 0.09874(14) 0.26767(13) 0.87976(19)
H23 H 0.091474 0.308204 0.874478
C42 C 0.09654(12) 0.24068(12) 0.96916(18)
O13 O 0.15900(7) 0.11224(8) 0.29387(15)
O14 O 0.15138(7) 0.20952(9) 0.32675(15)
O15 O 0.53163(7) 0.11194(9) 0.70234(17)
O16 O 0.53831(7) 0.20923(9) 0.67186(14)
C43 C 0.17389(10) 0.16071(13) 0.32961(19)
C44 C 0.22436(10) 0.15943(13) 0.3817(2)
C45 C 0.24913(11) 0.10611(13) 0.4009(2)
H25 H 0.234471 0.070201 0.381575
C46 C 0.29552(12) 0.10603(14) 0.4485(3)
H26 H 0.311702 0.069859 0.461078
C47 C 0.31832(11) 0.15838(14) 0.4777(2)
C48 C 0.29330(12) 0.21153(15) 0.4587(3)
H27 H 0.307995 0.247336 0.478419
C49 C 0.24704(12) 0.21236(14) 0.4113(3)
H28 H 0.230903 0.248595 0.398967
C50 C 0.36948(11) 0.15831(14) 0.5264(2)
C51 C 0.38627(15) 0.11157(18) 0.5777(4)
H29 H 0.365652 0.077793 0.582207
C52 C 0.43338(15) 0.11178(18) 0.6244(4)
H30 H 0.443249 0.078719 0.660339
C53 C 0.46521(10) 0.15978(13) 0.6182(2)
C54 C 0.44914(13) 0.20654(15) 0.5656(3)
H31 H 0.469961 0.240079 0.560003
C55 C 0.40213(14) 0.20552(17) 0.5195(3)
H32 H 0.392518 0.238264 0.482638
C56 C 0.51614(10) 0.16059(12) 0.6682(2)
Co7 Co 0.59447(2) 0.09008(2) 0.77329(2)
Co10 Co 0.59461(2) 0.250000 0.750000
O17 O 0.03163(7) 0.38806(9) 0.20234(17)
O18 O 0.03163(7) 0.11194(9) 0.29766(17)
O19 O 0.03831(7) 0.29077(9) 0.17186(14)
O20 O 0.03831(7) 0.20923(9) 0.32814(14)
O3 O 0.53163(7) 0.38806(9) 0.79766(17)
O4 O 0.53831(7) 0.29077(9) 0.82814(14)
C8 C 0.36948(11) 0.34169(14) 0.9736(2)
C9 C 0.38627(15) 0.38843(18) 0.9223(4)
H5 H 0.365652 0.422207 0.917793
C10 C 0.43338(15) 0.38822(18) 0.8756(4)
H6 H 0.443249 0.421281 0.839661
C11 C 0.46521(10) 0.34022(13) 0.8818(2)
C12 C 0.44914(13) 0.29346(15) 0.9344(3)
H7 H 0.469961 0.259921 0.939997
C13 C 0.40213(14) 0.29448(17) 0.9805(3)
C14 C 0.51614(10) 0.33941(12) 0.8318(2)
Co6 Co 0.59447(2) 0.40992(2) 0.72671(2)
C14_2 C 0.01614(10) 0.33941(12) 0.1682(2)
C56_2 C 0.01614(10) 0.16059(12) 0.3318(2)
O9_2 O 0.60309(10) 0.00307(10) 0.74733(17)
C8_2 C 0.86948(11) 0.34169(14) 0.0264(2)
C9_2 C 0.88627(15) 0.38843(18) 0.0777(4)
H5_2 H 0.865652 0.422207 0.082207
C10_2 C 0.93338(15) 0.38822(18) 0.1244(4)
H6_2 H 0.943249 0.421281 0.160339
C11_2 C 0.96521(10) 0.34022(13) 0.1182(2)
C12_2 C 0.94914(13) 0.29346(15) 0.0656(3)
H7_2 H 0.969961 0.259921 0.060003
C13_2 C 0.90213(14) 0.29448(17) 0.0195(3)
O1_2 O 0.65900(7) 0.38776(8) 0.79387(15)
O2_2 O 0.65138(7) 0.29048(9) 0.82675(15)
O5_2 O 0.60309(10) 0.49693(10) 0.75267(17)
O6_2 O 0.52997(14) 0.50105(13) 0.6797(3)
O7_2 O 0.60831(9) 0.40476(8) 0.58047(13)
O8_2 O 0.59231(7) 0.32061(8) 0.64786(12)
C1_2 C 0.67389(10) 0.33929(13) 0.82961(19)
C2_2 C 0.72436(10) 0.34057(13) 0.8817(2)
C3_2 C 0.74913(11) 0.39389(13) 0.9009(2)
H1_2 H 0.734471 0.429799 0.881575
C4_2 C 0.79552(12) 0.39397(14) 0.9485(3)
H2_2 H 0.811702 0.430141 0.961078
C5_2 C 0.81832(11) 0.34162(14) 0.9777(2)
C6_2 C 0.79330(12) 0.28847(15) 0.9587(3)
H3_2 H 0.807995 0.252664 0.978419
C7_2 C 0.74704(12) 0.28764(14) 0.9113(3)
H4_2 H 0.730903 0.251405 0.898967
H8_2 H 0.892518 0.261736 0.982638
C15_2 C 0.56656(17) 0.52484(16) 0.7212(3)
C16_2 C 0.56715(15) 0.59296(14) 0.7308(3)
C17_2 C 0.52444(17) 0.62584(17) 0.7090(4)
H9 H 0.494813 0.606893 0.687711
C18_2 C 0.52545(16) 0.68712(17) 0.7187(4)
H10 H 0.495755 0.708999 0.707254
C19_2 C 0.57004(16) 0.71676(14) 0.7453(3)
C20_2 C 0.61176(18) 0.68341(17) 0.7635(3)
H11_2 H 0.642243 0.702151 0.780608
C21_2 C 0.61026(15) 0.62029(16) 0.7571(3)
H12_2 H 0.639361 0.597960 0.771305
C22_2 C 0.60297(9) 0.34918(11) 0.57436(17)
C23_2 C 0.60716(10) 0.31913(11) 0.47895(18)
C24_2 C 0.61981(15) 0.35115(14) 0.3984(2)
H13_2 H 0.626785 0.391739 0.403995
C25_2 C 0.62242(15) 0.32447(13) 0.3094(2)
H14_2 H 0.631628 0.347127 0.256241
C26_2 C 0.61147(12) 0.26425(12) 0.29822(18)
C27_2 C 0.59874(14) 0.23233(13) 0.37976(19)
H15_2 H 0.591474 0.191796 0.374478
C28_2 C 0.59654(12) 0.25932(12) 0.46916(18)
H16_2 H 0.587836 0.236815 0.522827
O10_2 O 0.52997(14) 0.99895(13) 0.8203(3)
C29_2 C 0.56656(17) 0.97516(16) 0.7788(3)
C30_2 C 0.56715(15) 0.90704(14) 0.7692(3)
C31_2 C 0.52444(17) 0.87416(17) 0.7910(4)
H17 H 0.494813 0.893107 0.812289
C32_2 C 0.52545(16) 0.81288(17) 0.7813(4)
H18 H 0.495755 0.791001 0.792746
C33_2 C 0.57004(16) 0.78324(14) 0.7547(3)
C34_2 C 0.61176(18) 0.81659(17) 0.7365(3)
H19_2 H 0.642243 0.797849 0.719392
C35_2 C 0.61026(15) 0.87971(16) 0.7429(3)
H20_2 H 0.639361 0.902040 0.728695
C37_2 C 0.60716(10) 0.18087(11) 0.02105(18)
C38_2 C 0.61981(15) 0.14885(14) 0.1016(2)
H21_2 H 0.626785 0.108261 0.096005
C39_2 C 0.62242(15) 0.17553(13) 0.1906(2)
H22_2 H 0.631628 0.152873 0.243759
C40_2 C 0.61147(12) 0.23575(12) 0.20178(18)
C41_2 C 0.59874(14) 0.26767(13) 0.12024(19)
H23_2 H 0.591474 0.308204 0.125522
C42_2 C 0.59654(12) 0.24068(12) 0.03084(18)
O13_2 O 0.65900(7) 0.11224(8) 0.70613(15)
O14_2 O 0.65138(7) 0.20952(9) 0.67325(15)
C43_2 C 0.67389(10) 0.16071(13) 0.67039(19)
C44_2 C 0.72436(10) 0.15943(13) 0.6183(2)
C45_2 C 0.74913(11) 0.10611(13) 0.5991(2)
H25_2 H 0.734471 0.070201 0.618425
C46_2 C 0.79552(12) 0.10603(14) 0.5515(3)
H26_2 H 0.811702 0.069859 0.538922
C47_2 C 0.81832(11) 0.15838(14) 0.5223(2)
C48_2 C 0.79330(12) 0.21153(15) 0.5413(3)
H27_2 H 0.807995 0.247336 0.521581
C49_2 C 0.74704(12) 0.21236(14) 0.5887(3)
H28_2 H 0.730903 0.248595 0.601033
C50_2 C 0.86948(11) 0.15831(14) 0.4736(2)
C51_2 C 0.88627(15) 0.11157(18) 0.4223(4)
H29_2 H 0.865652 0.077793 0.417793
C52_2 C 0.93338(15) 0.11178(18) 0.3756(4)
H30_2 H 0.943249 0.078719 0.339661
C53_2 C 0.96521(10) 0.15978(13) 0.3818(2)
C54_2 C 0.94914(13) 0.20654(15) 0.4344(3)
H31_2 H 0.969961 0.240079 0.439997
C55_2 C 0.90213(14) 0.20552(17) 0.4805(3)
H32_2 H 0.892518 0.238264 0.517362
O22 O 0.60831(9) 0.09524(8) 0.91953(13)
O23 O 0.59231(7) 0.17939(8) 0.85214(12)
C36_2 C 0.60297(9) 0.15082(11) 0.92564(17)
H24_2 H 0.587836 0.263185 0.977173
H9_2 H 0.994813 0.606893 0.312289
H10_2 H 0.995755 0.708999 0.292746
H17_2 H 0.994813 0.893107 0.187711
H18_2 H 0.995755 0.791001 0.207254
O11_2 O 0.39169(9) 0.90476(8) 0.08047(13)
O12_2 O 0.40769(7) 0.82061(8) 0.14786(12)
C36_3 C 0.39703(9) 0.84918(11) 0.07436(17)
H24_3 H 0.412164 0.736815 0.022827
Co4 Co 0.40553(2) 0.90992(2) 0.22671(2)
Co8_2 Co 0.40539(2) 0.750000 0.250000
Co1_2 Co 0.40553(2) 0.59008(2) 0.27329(2)
O1_3 O 0.34100(7) 0.61224(8) 0.20613(15)
O2_3 O 0.34862(7) 0.70952(9) 0.17325(15)
O5_3 O 0.39691(10) 0.50307(10) 0.24733(17)
O6_3 O 0.47003(14) 0.49895(13) 0.3203(3)
O7_3 O 0.39169(9) 0.59524(8) 0.41953(13)
O8_3 O 0.40769(7) 0.67939(8) 0.35214(12)
C1_3 C 0.32611(10) 0.66071(13) 0.17039(19)
C2_3 C 0.27564(10) 0.65943(13) 0.1183(2)
C3_3 C 0.25087(11) 0.60611(13) 0.0991(2)
H1_3 H 0.265529 0.570201 0.118425
C4_3 C 0.20448(12) 0.60603(14) 0.0515(3)
H2_3 H 0.188298 0.569859 0.038922
C5_3 C 0.18168(11) 0.65838(14) 0.0223(2)
C6_3 C 0.20670(12) 0.71153(15) 0.0413(3)
H3_3 H 0.192005 0.747336 0.021581
C7_3 C 0.25296(12) 0.71236(14) 0.0887(3)
H4_3 H 0.269097 0.748595 0.101033
H8_3 H 0.107482 0.738264 0.017362
C15_3 C 0.43344(17) 0.47516(16) 0.2788(3)
C16_3 C 0.43285(15) 0.40704(14) 0.2692(3)
C17_3 C 0.47556(17) 0.37416(17) 0.2910(4)
H9_3 H 0.505187 0.393107 0.312289
C18_3 C 0.47455(16) 0.31288(17) 0.2813(4)
H10_3 H 0.504245 0.291001 0.292746
C19_3 C 0.42996(16) 0.28324(14) 0.2547(3)
C20_3 C 0.38824(18) 0.31659(17) 0.2365(3)
H11_3 H 0.357757 0.297849 0.219392
C21_3 C 0.38974(15) 0.37971(16) 0.2429(3)
H12_3 H 0.360639 0.402040 0.228695
C22_3 C 0.39703(9) 0.65082(11) 0.42564(17)
C23_3 C 0.39284(10) 0.68087(11) 0.52105(18)
C24_3 C 0.38019(15) 0.64885(14) 0.6016(2)
H13_3 H 0.373215 0.608261 0.596005
C25_3 C 0.37758(15) 0.67553(13) 0.6906(2)
H14_3 H 0.368372 0.652873 0.743759
C26_3 C 0.38853(12) 0.73575(12) 0.70178(18)
C27_3 C 0.40126(14) 0.76767(13) 0.62024(19)
H15_3 H 0.408526 0.808204 0.625522
C28_3 C 0.40346(12) 0.74068(12) 0.53084(18)
H16_3 H 0.412164 0.763185 0.477173
O10_3 O 0.47003(14) 0.00105(13) 0.1797(3)
C29_3 C 0.43344(17) 0.02484(16) 0.2212(3)
C30_3 C 0.43285(15) 0.09296(14) 0.2308(3)
C31_3 C 0.47556(17) 0.12584(17) 0.2090(4)
H17_3 H 0.505187 0.106893 0.187711
C32_3 C 0.47455(16) 0.18712(17) 0.2187(4)
H18_3 H 0.504245 0.208999 0.207254
C33_3 C 0.42996(16) 0.21676(14) 0.2453(3)
C34_3 C 0.38824(18) 0.18341(17) 0.2635(3)
H19_3 H 0.357757 0.202151 0.280608
C35_3 C 0.38974(15) 0.12029(16) 0.2571(3)
H20_3 H 0.360639 0.097960 0.271305
C37_3 C 0.39284(10) 0.81913(11) 0.97895(18)
C38_3 C 0.38019(15) 0.85115(14) 0.8984(2)
H21_3 H 0.373215 0.891739 0.903995
C39_3 C 0.37758(15) 0.82447(13) 0.8094(2)
H22_3 H 0.368372 0.847127 0.756241
C40_3 C 0.38853(12) 0.76425(12) 0.79822(18)
C41_3 C 0.40126(14) 0.73233(13) 0.87976(19)
H23_3 H 0.408526 0.691796 0.874478
C42_3 C 0.40346(12) 0.75932(12) 0.96916(18)
O13_3 O 0.34100(7) 0.88776(8) 0.29387(15)
O14_3 O 0.34862(7) 0.79048(9) 0.32675(15)
C43_3 C 0.32611(10) 0.83929(13) 0.32961(19)
C44_3 C 0.27564(10) 0.84057(13) 0.3817(2)
C45_3 C 0.25087(11) 0.89389(13) 0.4009(2)
H25_3 H 0.265529 0.929799 0.381575
C46_3 C 0.20448(12) 0.89397(14) 0.4485(3)
H26_3 H 0.188298 0.930141 0.461078
C47_3 C 0.18168(11) 0.84162(14) 0.4777(2)
C48_3 C 0.20670(12) 0.78847(15) 0.4587(3)
H27_3 H 0.192005 0.752664 0.478419
C49_3 C 0.25296(12) 0.78764(14) 0.4113(3)
H28_3 H 0.269097 0.751405 0.398967
C50_3 C 0.13052(11) 0.84169(14) 0.5264(2)
C51_3 C 0.11373(15) 0.88843(18) 0.5777(4)
H29_3 H 0.134348 0.922207 0.582207
C52_3 C 0.06662(15) 0.88822(18) 0.6244(4)
H30_3 H 0.056751 0.921281 0.660339
C53_3 C 0.03479(10) 0.84022(13) 0.6182(2)
C54_3 C 0.05086(13) 0.79346(15) 0.5656(3)
H31_3 H 0.030039 0.759921 0.560003
C55_3 C 0.09787(14) 0.79448(17) 0.5195(3)
H32_3 H 0.107482 0.761736 0.482638
O17_2 O 0.46837(7) 0.61194(9) 0.20234(17)
O18_2 O 0.46837(7) 0.88806(9) 0.29766(17)
O19_2 O 0.46169(7) 0.70923(9) 0.17186(14)
O20_2 O 0.46169(7) 0.79077(9) 0.32814(14)
O21 O 0.39691(10) 0.99693(10) 0.25267(17)
C8_3 C 0.13052(11) 0.65831(14) 0.9736(2)
C9_3 C 0.11373(15) 0.61157(18) 0.9223(4)
H5_3 H 0.134348 0.577793 0.917793
C10_3 C 0.06662(15) 0.61178(18) 0.8756(4)
H6_3 H 0.056751 0.578719 0.839661
C11_3 C 0.03479(10) 0.65978(13) 0.8818(2)
C12_3 C 0.05086(13) 0.70654(15) 0.9344(3)
H7_3 H 0.030039 0.740079 0.939997
C13_3 C 0.09787(14) 0.70552(17) 0.9805(3)
O15_2 O 0.96837(7) 0.88806(9) 0.70234(17)
O16_2 O 0.96169(7) 0.79077(9) 0.67186(14)
C56_3 C 0.98386(10) 0.83941(12) 0.6682(2)
Co7_2 Co 0.90553(2) 0.90992(2) 0.77329(2)
Co10_2 Co 0.90539(2) 0.750000 0.750000
O3_2 O 0.96837(7) 0.61194(9) 0.79766(17)
O4_2 O 0.96169(7) 0.70923(9) 0.82814(14)
C14_3 C 0.98386(10) 0.66059(12) 0.8318(2)
Co6_2 Co 0.90553(2) 0.59008(2) 0.72671(2)
C8_4 C 0.63052(11) 0.65831(14) 0.0264(2)
C9_4 C 0.61373(15) 0.61157(18) 0.0777(4)
H5_4 H 0.634348 0.577793 0.082207
C10_4 C 0.56662(15) 0.61178(18) 0.1244(4)
H6_4 H 0.556751 0.578719 0.160339
C11_4 C 0.53479(10) 0.65978(13) 0.1182(2)
C12_4 C 0.55086(13) 0.70654(15) 0.0656(3)
H7_4 H 0.530039 0.740079 0.060003
C13_4 C 0.59787(14) 0.70552(17) 0.0195(3)
C14_4 C 0.48386(10) 0.66059(12) 0.1682(2)
O1_4 O 0.84100(7) 0.61224(8) 0.79387(15)
O2_4 O 0.84862(7) 0.70952(9) 0.82675(15)
O5_4 O 0.89691(10) 0.50307(10) 0.75267(17)
O6_4 O 0.97003(14) 0.49895(13) 0.6797(3)
O7_4 O 0.89169(9) 0.59524(8) 0.58047(13)
O8_4 O 0.90769(7) 0.67939(8) 0.64786(12)
C1_4 C 0.82611(10) 0.66071(13) 0.82961(19)
C2_4 C 0.77564(10) 0.65943(13) 0.8817(2)
C3_4 C 0.75087(11) 0.60611(13) 0.9009(2)
H1_4 H 0.765529 0.570201 0.881575
C4_4 C 0.70448(12) 0.60603(14) 0.9485(3)
H2_4 H 0.688298 0.569859 0.961078
C5_4 C 0.68168(11) 0.65838(14) 0.9777(2)
C6_4 C 0.70670(12) 0.71153(15) 0.9587(3)
H3_4 H 0.692005 0.747336 0.978419
C7_4 C 0.75296(12) 0.71236(14) 0.9113(3)
H4_4 H 0.769097 0.748595 0.898967
H8_4 H 0.607482 0.738264 0.982638
C15_4 C 0.93344(17) 0.47516(16) 0.7212(3)
C16_4 C 0.93285(15) 0.40704(14) 0.7308(3)
C17_4 C 0.97556(17) 0.37416(17) 0.7090(4)
C18_4 C 0.97455(16) 0.31288(17) 0.7187(4)
C19_4 C 0.92996(16) 0.28324(14) 0.7453(3)
C20_4 C 0.88824(18) 0.31659(17) 0.7635(3)
H11_4 H 0.857757 0.297849 0.780608
C21_4 C 0.88974(15) 0.37971(16) 0.7571(3)
H12_4 H 0.860639 0.402040 0.771305
C22_4 C 0.89703(9) 0.65082(11) 0.57436(17)
C23_4 C 0.89284(10) 0.68087(11) 0.47895(18)
C24_4 C 0.88019(15) 0.64885(14) 0.3984(2)
H13_4 H 0.873215 0.608261 0.403995
C25_4 C 0.87758(15) 0.67553(13) 0.3094(2)
H14_4 H 0.868372 0.652873 0.256241
C26_4 C 0.88853(12) 0.73575(12) 0.29822(18)
C27_4 C 0.90126(14) 0.76767(13) 0.37976(19)
H15_4 H 0.908526 0.808204 0.374478
C28_4 C 0.90346(12) 0.74068(12) 0.46916(18)
H16_4 H 0.912164 0.763185 0.522827
O10_4 O 0.97003(14) 0.00105(13) 0.8203(3)
C29_4 C 0.93344(17) 0.02484(16) 0.7788(3)
C30_4 C 0.93285(15) 0.09296(14) 0.7692(3)
C31_4 C 0.97556(17) 0.12584(17) 0.7910(4)
C32_4 C 0.97455(16) 0.18712(17) 0.7813(4)
C33_4 C 0.92996(16) 0.21676(14) 0.7547(3)
C34_4 C 0.88824(18) 0.18341(17) 0.7365(3)
H19_4 H 0.857757 0.202151 0.719392
C35_4 C 0.88974(15) 0.12029(16) 0.7429(3)
H20_4 H 0.860639 0.097960 0.728695
C37_4 C 0.89284(10) 0.81913(11) 0.02105(18)
C38_4 C 0.88019(15) 0.85115(14) 0.1016(2)
H21_4 H 0.873215 0.891739 0.096005
C39_4 C 0.87758(15) 0.82447(13) 0.1906(2)
H22_4 H 0.868372 0.847127 0.243759
C40_4 C 0.88853(12) 0.76425(12) 0.20178(18)
C41_4 C 0.90126(14) 0.73233(13) 0.12024(19)
H23_4 H 0.908526 0.691796 0.125522
C42_4 C 0.90346(12) 0.75932(12) 0.03084(18)
O13_4 O 0.84100(7) 0.88776(8) 0.70613(15)
O14_4 O 0.84862(7) 0.79048(9) 0.67325(15)
C43_4 C 0.82611(10) 0.83929(13) 0.67039(19)
C44_4 C 0.77564(10) 0.84057(13) 0.6183(2)
C45_4 C 0.75087(11) 0.89389(13) 0.5991(2)
H25_4 H 0.765529 0.929799 0.618425
C46_4 C 0.70448(12) 0.89397(14) 0.5515(3)
H26_4 H 0.688298 0.930141 0.538922
C47_4 C 0.68168(11) 0.84162(14) 0.5223(2)
C48_4 C 0.70670(12) 0.78847(15) 0.5413(3)
H27_4 H 0.692005 0.752664 0.521581
C49_4 C 0.75296(12) 0.78764(14) 0.5887(3)
H28_4 H 0.769097 0.751405 0.601033
C50_4 C 0.63052(11) 0.84169(14) 0.4736(2)
C51_4 C 0.61373(15) 0.88843(18) 0.4223(4)
H29_4 H 0.634348 0.922207 0.417793
C52_4 C 0.56662(15) 0.88822(18) 0.3756(4)
H30_4 H 0.556751 0.921281 0.339661
C53_4 C 0.53479(10) 0.84022(13) 0.3818(2)
C54_4 C 0.55086(13) 0.79346(15) 0.4344(3)
H31_4 H 0.530039 0.759921 0.439997
C55_4 C 0.59787(14) 0.79448(17) 0.4805(3)
H32_4 H 0.607482 0.761736 0.517362
C56_4 C 0.48386(10) 0.83941(12) 0.3318(2)
O21_2 O 0.89691(10) 0.99693(10) 0.74733(17)
O22_2 O 0.89169(9) 0.90476(8) 0.91953(13)
O23_2 O 0.90769(7) 0.82061(8) 0.85214(12)
C36_4 C 0.89703(9) 0.84918(11) 0.92564(17)
H24_4 H 0.912164 0.736815 0.977173
H9_4 H 0.005187 0.393107 0.687711
H10_4 H 0.004245 0.291001 0.707254
H17_4 H 0.005187 0.106893 0.812289
H18_4 H 0.004245 0.208999 0.792746
loop_
_geom_bond_atom_site_label_1
_geom_bond_atom_site_label_2
_geom_bond_site_symmetry_1
_geom_bond_site_symmetry_2
Co5 O9 1_555 1_555
O11 C36 1_555 1_555
O12 C36 1_555 1_555
Co5 O11 1_555 1_555
Co8 O12 1_555 1_555
O12 Co5 1_555 1_555
Co1 O1 1_555 1_555
Co8 O2 1_555 1_555
O1 C1 1_555 1_555
O2 C1 1_555 1_555
O5 Co1 1_555 1_555
O6 C15 1_555 1_555
O7 Co1 1_555 1_555
O8 Co1 1_555 1_555
C1 C2 1_555 1_555
C2 C3 1_555 1_555
C3 H1 1_555 1_555
C4 C3 1_555 1_555
H2 C4 1_555 1_555
C5 C4 1_555 1_555
C6 C5 1_555 1_555
H3 C6 1_555 1_555
C7 C2 1_555 1_555
H4 C7 1_555 1_555
C15 O5 1_555 1_555
C16 C15 1_555 1_555
C17 C16 1_555 1_555
C18 C17 1_555 1_555
C19 C18 1_555 1_555
C20 C19 1_555 1_555
H11 C20 1_555 1_555
C21 C16 1_555 1_555
H12 C21 1_555 1_555
C22 O7 1_555 1_555
C23 C22 1_555 1_555
C24 C23 1_555 1_555
H13 C24 1_555 1_555
C25 C24 1_555 1_555
H14 C25 1_555 1_555
C26 C25 1_555 1_555
C27 C26 1_555 1_555
H15 C27 1_555 1_555
C28 C23 1_555 1_555
H16 C28 1_555 1_555
O10 C29 1_555 1_555
C29 C30 1_555 1_555
C30 C31 1_555 1_555
C32 C31 1_555 1_555
C33 C19 1_555 1_555
C34 C33 1_555 1_555
H19 C34 1_555 1_555
C35 C30 1_555 1_555
H20 C35 1_555 1_555
C37 C38 1_555 1_555
C38 H21 1_555 1_555
C39 C38 1_555 1_555
H22 C39 1_555 1_555
C40 C26 1_555 1_555
C41 C40 1_555 1_555
H23 C41 1_555 1_555
C42 C37 1_555 1_555
Co5 O13 1_555 1_555
O13 C43 1_555 1_555
O14 Co8 1_555 1_555
O15 C56 1_555 1_555
O16 C56 1_555 1_555
C43 O14 1_555 1_555
C44 C43 1_555 1_555
C45 C44 1_555 1_555
H25 C45 1_555 1_555
C46 C45 1_555 1_555
H26 C46 1_555 1_555
C47 C46 1_555 1_555
C48 C47 1_555 1_555
H27 C48 1_555 1_555
C49 C44 1_555 1_555
H28 C49 1_555 1_555
C50 C47 1_555 1_555
C51 C50 1_555 1_555
H29 C51 1_555 1_555
C52 C51 1_555 1_555
H30 C52 1_555 1_555
C53 C52 1_555 1_555
C54 C53 1_555 1_555
H31 C54 1_555 1_555
C55 C50 1_555 1_555
H32 C55 1_555 1_555
C56 C53 1_555 1_555
Co7 O15 1_555 1_555
Co10 O16 1_555 1_555
O17 Co1 1_555 1_555
O18 Co5 1_555 1_555
O19 Co8 1_555 1_555
O20 Co8 1_555 1_555
Co8 O8 1_555 1_555
O8 C22 1_555 1_555
C6 C7 1_555 1_555
C20 C21 1_555 1_555
C27 C28 1_555 1_555
C32 C33 1_555 1_555
C34 C35 1_555 1_555
C39 C40 1_555 1_555
C41 C42 1_555 1_555
C48 C49 1_555 1_555
C54 C55 1_555 1_555
O3 C14 1_555 1_555
O4 C14 1_555 1_555
C9 C8 1_555 1_555
H5 C9 1_555 1_555
C10 C9 1_555 1_555
H6 C10 1_555 1_555
C11 C10 1_555 1_555
C12 C11 1_555 1_555
H7 C12 1_555 1_555
C13 C8 1_555 1_555
C14 C11 1_555 1_555
Co6 O3 1_555 1_555
Co10 O4 1_555 1_555
C12 C13 1_555 1_555
O17 C14_2 1_555 1_555
O19 C14_2 1_555 1_555
O18 C56_2 1_555 1_555
O20 C56_2 1_555 1_555
Co7 O9_2 1_555 1_555
C9_2 C8_2 1_555 1_555
H5_2 C9_2 1_555 1_555
C10_2 C9_2 1_555 1_555
H6_2 C10_2 1_555 1_555
C11_2 C10_2 1_555 1_555
C12_2 C11_2 1_555 1_555
H7_2 C12_2 1_555 1_555
C13_2 C8_2 1_555 1_555
C12_2 C13_2 1_555 1_555
Co6 O1_2 1_555 1_555
Co10 O2_2 1_555 1_555
O1_2 C1_2 1_555 1_555
O2_2 C1_2 1_555 1_555
O5_2 Co6 1_555 1_555
O6_2 C15_2 1_555 1_555
O7_2 Co6 1_555 1_555
O8_2 Co6 1_555 1_555
C1_2 C2_2 1_555 1_555
C2_2 C3_2 1_555 1_555
C3_2 H1_2 1_555 1_555
C4_2 C3_2 1_555 1_555
H2_2 C4_2 1_555 1_555
C5_2 C4_2 1_555 1_555
C6_2 C5_2 1_555 1_555
H3_2 C6_2 1_555 1_555
C7_2 C2_2 1_555 1_555
H4_2 C7_2 1_555 1_555
C15_2 O5_2 1_555 1_555
C16_2 C15_2 1_555 1_555
C17_2 C16_2 1_555 1_555
H9 C17_2 1_555 1_555
C18_2 C17_2 1_555 1_555
H10 C18_2 1_555 1_555
C19_2 C18_2 1_555 1_555
C20_2 C19_2 1_555 1_555
H11_2 C20_2 1_555 1_555
C21_2 C16_2 1_555 1_555
H12_2 C21_2 1_555 1_555
C22_2 O7_2 1_555 1_555
C23_2 C22_2 1_555 1_555
C24_2 C23_2 1_555 1_555
H13_2 C24_2 1_555 1_555
C25_2 C24_2 1_555 1_555
H14_2 C25_2 1_555 1_555
C26_2 C25_2 1_555 1_555
C27_2 C26_2 1_555 1_555
H15_2 C27_2 1_555 1_555
C28_2 C23_2 1_555 1_555
H16_2 C28_2 1_555 1_555
O10_2 C29_2 1_555 1_555
C29_2 C30_2 1_555 1_555
C30_2 C31_2 1_555 1_555
C31_2 H17 1_555 1_555
C32_2 C31_2 1_555 1_555
H18 C32_2 1_555 1_555
C33_2 C19_2 1_555 1_555
C34_2 C33_2 1_555 1_555
H19_2 C34_2 1_555 1_555
C35_2 C30_2 1_555 1_555
H20_2 C35_2 1_555 1_555
C37_2 C38_2 1_555 1_555
C38_2 H21_2 1_555 1_555
C39_2 C38_2 1_555 1_555
H22_2 C39_2 1_555 1_555
C40_2 C26_2 1_555 1_555
C41_2 C40_2 1_555 1_555
H23_2 C41_2 1_555 1_555
C42_2 C37_2 1_555 1_555
Co7 O13_2 1_555 1_555
O13_2 C43_2 1_555 1_555
O14_2 Co10 1_555 1_555
C43_2 O14_2 1_555 1_555
C44_2 C43_2 1_555 1_555
C45_2 C44_2 1_555 1_555
H25_2 C45_2 1_555 1_555
C46_2 C45_2 1_555 1_555
H26_2 C46_2 1_555 1_555
C47_2 C46_2 1_555 1_555
C48_2 C47_2 1_555 1_555
H27_2 C48_2 1_555 1_555
C49_2 C44_2 1_555 1_555
H28_2 C49_2 1_555 1_555
C50_2 C47_2 1_555 1_555
C51_2 C50_2 1_555 1_555
H29_2 C51_2 1_555 1_555
C52_2 C51_2 1_555 1_555
H30_2 C52_2 1_555 1_555
C53_2 C52_2 1_555 1_555
C54_2 C53_2 1_555 1_555
H31_2 C54_2 1_555 1_555
C55_2 C50_2 1_555 1_555
H32_2 C55_2 1_555 1_555
O22 Co7 1_555 1_555
O23 Co10 1_555 1_555
Co10 O8_2 1_555 1_555
O8_2 C22_2 1_555 1_555
C6_2 C7_2 1_555 1_555
C20_2 C21_2 1_555 1_555
C27_2 C28_2 1_555 1_555
C32_2 C33_2 1_555 1_555
C34_2 C35_2 1_555 1_555
C39_2 C40_2 1_555 1_555
C41_2 C42_2 1_555 1_555
Co7 O23 1_555 1_555
C48_2 C49_2 1_555 1_555
C54_2 C55_2 1_555 1_555
O22 C36_2 1_555 1_555
O23 C36_2 1_555 1_555
O11_2 C36_3 1_555 1_555
O12_2 C36_3 1_555 1_555
Co4 O11_2 1_555 1_555
Co8_2 O12_2 1_555 1_555
O12_2 Co4 1_555 1_555
Co1_2 O1_3 1_555 1_555
Co8_2 O2_3 1_555 1_555
O1_3 C1_3 1_555 1_555
O2_3 C1_3 1_555 1_555
O5_3 Co1_2 1_555 1_555
O6_3 C15_3 1_555 1_555
O7_3 Co1_2 1_555 1_555
O8_3 Co1_2 1_555 1_555
C1_3 C2_3 1_555 1_555
C2_3 C3_3 1_555 1_555
C3_3 H1_3 1_555 1_555
C4_3 C3_3 1_555 1_555
H2_3 C4_3 1_555 1_555
C5_3 C4_3 1_555 1_555
C6_3 C5_3 1_555 1_555
H3_3 C6_3 1_555 1_555
C7_3 C2_3 1_555 1_555
H4_3 C7_3 1_555 1_555
C15_3 O5_3 1_555 1_555
C16_3 C15_3 1_555 1_555
C17_3 C16_3 1_555 1_555
H9_3 C17_3 1_555 1_555
C18_3 C17_3 1_555 1_555
H10_3 C18_3 1_555 1_555
C19_3 C18_3 1_555 1_555
C20_3 C19_3 1_555 1_555
H11_3 C20_3 1_555 1_555
C21_3 C16_3 1_555 1_555
H12_3 C21_3 1_555 1_555
C22_3 O7_3 1_555 1_555
C23_3 C22_3 1_555 1_555
C24_3 C23_3 1_555 1_555
H13_3 C24_3 1_555 1_555
C25_3 C24_3 1_555 1_555
H14_3 C25_3 1_555 1_555
C26_3 C25_3 1_555 1_555
C27_3 C26_3 1_555 1_555
H15_3 C27_3 1_555 1_555
C28_3 C23_3 1_555 1_555
H16_3 C28_3 1_555 1_555
O10_3 C29_3 1_555 1_555
C29_3 C30_3 1_555 1_555
C30_3 C31_3 1_555 1_555
C31_3 H17_3 1_555 1_555
C32_3 C31_3 1_555 1_555
H18_3 C32_3 1_555 1_555
C33_3 C19_3 1_555 1_555
C34_3 C33_3 1_555 1_555
H19_3 C34_3 1_555 1_555
C35_3 C30_3 1_555 1_555
H20_3 C35_3 1_555 1_555
C37_3 C38_3 1_555 1_555
C38_3 H21_3 1_555 1_555
C39_3 C38_3 1_555 1_555
H22_3 C39_3 1_555 1_555
C40_3 C26_3 1_555 1_555
C41_3 C40_3 1_555 1_555
H23_3 C41_3 1_555 1_555
C42_3 C37_3 1_555 1_555
Co4 O13_3 1_555 1_555
O13_3 C43_3 1_555 1_555
O14_3 Co8_2 1_555 1_555
C43_3 O14_3 1_555 1_555
C44_3 C43_3 1_555 1_555
C45_3 C44_3 1_555 1_555
H25_3 C45_3 1_555 1_555
C46_3 C45_3 1_555 1_555
H26_3 C46_3 1_555 1_555
C47_3 C46_3 1_555 1_555
C48_3 C47_3 1_555 1_555
H27_3 C48_3 1_555 1_555
C49_3 C44_3 1_555 1_555
H28_3 C49_3 1_555 1_555
C50_3 C47_3 1_555 1_555
C51_3 C50_3 1_555 1_555
H29_3 C51_3 1_555 1_555
C52_3 C51_3 1_555 1_555
H30_3 C52_3 1_555 1_555
C53_3 C52_3 1_555 1_555
C54_3 C53_3 1_555 1_555
H31_3 C54_3 1_555 1_555
C55_3 C50_3 1_555 1_555
H32_3 C55_3 1_555 1_555
O17_2 Co1_2 1_555 1_555
O18_2 Co4 1_555 1_555
O19_2 Co8_2 1_555 1_555
O20_2 Co8_2 1_555 1_555
O21 Co4 1_555 1_555
Co8_2 O8_3 1_555 1_555
O8_3 C22_3 1_555 1_555
C6_3 C7_3 1_555 1_555
C20_3 C21_3 1_555 1_555
C27_3 C28_3 1_555 1_555
C32_3 C33_3 1_555 1_555
C34_3 C35_3 1_555 1_555
C39_3 C40_3 1_555 1_555
C41_3 C42_3 1_555 1_555
C48_3 C49_3 1_555 1_555
C54_3 C55_3 1_555 1_555
C9_3 C8_3 1_555 1_555
H5_3 C9_3 1_555 1_555
C10_3 C9_3 1_555 1_555
H6_3 C10_3 1_555 1_555
C11_3 C10_3 1_555 1_555
C12_3 C11_3 1_555 1_555
H7_3 C12_3 1_555 1_555
C13_3 C8_3 1_555 1_555
C12_3 C13_3 1_555 1_555
O15_2 C56_3 1_555 1_555
O16_2 C56_3 1_555 1_555
Co7_2 O15_2 1_555 1_555
Co10_2 O16_2 1_555 1_555
O3_2 C14_3 1_555 1_555
O4_2 C14_3 1_555 1_555
Co6_2 O3_2 1_555 1_555
Co10_2 O4_2 1_555 1_555
O17_2 C14_4 1_555 1_555
O19_2 C14_4 1_555 1_555
C9_4 C8_4 1_555 1_555
H5_4 C9_4 1_555 1_555
C10_4 C9_4 1_555 1_555
H6_4 C10_4 1_555 1_555
C11_4 C10_4 1_555 1_555
C12_4 C11_4 1_555 1_555
H7_4 C12_4 1_555 1_555
C13_4 C8_4 1_555 1_555
C14_4 C11_4 1_555 1_555
C12_4 C13_4 1_555 1_555
Co6_2 O1_4 1_555 1_555
Co10_2 O2_4 1_555 1_555
O1_4 C1_4 1_555 1_555
O2_4 C1_4 1_555 1_555
O5_4 Co6_2 1_555 1_555
O6_4 C15_4 1_555 1_555
O7_4 Co6_2 1_555 1_555
O8_4 Co6_2 1_555 1_555
C1_4 C2_4 1_555 1_555
C2_4 C3_4 1_555 1_555
C3_4 H1_4 1_555 1_555
C4_4 C3_4 1_555 1_555
H2_4 C4_4 1_555 1_555
C5_4 C4_4 1_555 1_555
C6_4 C5_4 1_555 1_555
H3_4 C6_4 1_555 1_555
C7_4 C2_4 1_555 1_555
H4_4 C7_4 1_555 1_555
C15_4 O5_4 1_555 1_555
C16_4 C15_4 1_555 1_555
C17_4 C16_4 1_555 1_555
C18_4 C17_4 1_555 1_555
C19_4 C18_4 1_555 1_555
C20_4 C19_4 1_555 1_555
H11_4 C20_4 1_555 1_555
C21_4 C16_4 1_555 1_555
H12_4 C21_4 1_555 1_555
C22_4 O7_4 1_555 1_555
C23_4 C22_4 1_555 1_555
C24_4 C23_4 1_555 1_555
H13_4 C24_4 1_555 1_555
C25_4 C24_4 1_555 1_555
H14_4 C25_4 1_555 1_555
C26_4 C25_4 1_555 1_555
C27_4 C26_4 1_555 1_555
H15_4 C27_4 1_555 1_555
C28_4 C23_4 1_555 1_555
H16_4 C28_4 1_555 1_555
O10_4 C29_4 1_555 1_555
C29_4 C30_4 1_555 1_555
C30_4 C31_4 1_555 1_555
C32_4 C31_4 1_555 1_555
C33_4 C19_4 1_555 1_555
C34_4 C33_4 1_555 1_555
H19_4 C34_4 1_555 1_555
C35_4 C30_4 1_555 1_555
H20_4 C35_4 1_555 1_555
C37_4 C38_4 1_555 1_555
C38_4 H21_4 1_555 1_555
C39_4 C38_4 1_555 1_555
H22_4 C39_4 1_555 1_555
C40_4 C26_4 1_555 1_555
C41_4 C40_4 1_555 1_555
H23_4 C41_4 1_555 1_555
C42_4 C37_4 1_555 1_555
Co7_2 O13_4 1_555 1_555
O13_4 C43_4 1_555 1_555
O14_4 Co10_2 1_555 1_555
O18_2 C56_4 1_555 1_555
O20_2 C56_4 1_555 1_555
C43_4 O14_4 1_555 1_555
C44_4 C43_4 1_555 1_555
C45_4 C44_4 1_555 1_555
H25_4 C45_4 1_555 1_555
C46_4 C45_4 1_555 1_555
H26_4 C46_4 1_555 1_555
C47_4 C46_4 1_555 1_555
C48_4 C47_4 1_555 1_555
H27_4 C48_4 1_555 1_555
C49_4 C44_4 1_555 1_555
H28_4 C49_4 1_555 1_555
C50_4 C47_4 1_555 1_555
C51_4 C50_4 1_555 1_555
H29_4 C51_4 1_555 1_555
C52_4 C51_4 1_555 1_555
H30_4 C52_4 1_555 1_555
C53_4 C52_4 1_555 1_555
C54_4 C53_4 1_555 1_555
H31_4 C54_4 1_555 1_555
C55_4 C50_4 1_555 1_555
H32_4 C55_4 1_555 1_555
C56_4 C53_4 1_555 1_555
O21_2 Co7_2 1_555 1_555
O22_2 Co7_2 1_555 1_555
O23_2 Co10_2 1_555 1_555
Co10_2 O8_4 1_555 1_555
O8_4 C22_4 1_555 1_555
C6_4 C7_4 1_555 1_555
C20_4 C21_4 1_555 1_555
C27_4 C28_4 1_555 1_555
C32_4 C33_4 1_555 1_555
C34_4 C35_4 1_555 1_555
C39_4 C40_4 1_555 1_555
C41_4 C42_4 1_555 1_555
Co7_2 O23_2 1_555 1_555
C48_4 C49_4 1_555 1_555
C54_4 C55_4 1_555 1_555
O22_2 C36_4 1_555 1_555
O23_2 C36_4 1_555 1_555

#END
