
###############################################################################
#
# This file contains modified crystal structure data generated from the
# MOF subset of the Cambridge Structural Database (CSD) v543 
# hosted by the Cambridge Crystallographic Data Centre (CCDC).
#
# This work is licensed under the Creative Commons
# Attribution-NonCommercial-ShareAlike 4.0 International License.
# To view a copy of this license, visit
# http://creativecommons.org/licenses/by-nc-sa/4.0/
# or send a letter to
# Creative Commons, PO Box 1866, Mountain View, CA 94042, USA.
#
# CIF created using the CSD Python API on 29 September 2022
# The structure has been converted into the P1 space group
# The structure has a 3D framework
# The original CSD entry DESVOP is in the monoclinic crystal system
# The framework has been calculated to contain at least 10.0% void space
# The void calculation uses a probe of radius 1.32A, grid spacing 0.4
#
###############################################################################

data_DESVOP
_chemical_formula_moiety         '(C326 H280 N16 O88 Tb8)n'
_symmetry_cell_setting           triclinic
_symmetry_space_group_name_H-M   'P 1'
_symmetry_Int_Tables_number      1
_space_group_name_Hall           'P 1'
loop_
_symmetry_equiv_pos_site_id
_symmetry_equiv_pos_as_xyz
1 x,y,z
_cell_length_a                   31.759(3)
_cell_length_b                   15.8093(17)
_cell_length_c                   28.396(3)
_cell_angle_alpha                90
_cell_angle_beta                 120.317(2)
_cell_angle_gamma                90
_cell_volume                     12307.5
loop_
_atom_site_label
_atom_site_type_symbol
_atom_site_fract_x
_atom_site_fract_y
_atom_site_fract_z
Tb1 Tb 0.236482(13) 0.62516(3) 0.013257(14)
N1 N 0.3787(4) 0.4912(7) 0.1076(5)
O1 O 0.34072(16) 0.8395(4) 0.0662(2)
O2 O 0.30066(16) 0.7259(4) 0.0618(2)
O3 O 0.42556(19) 0.8590(4) 0.1462(3)
H1 H 0.4033 0.8630 0.1144
O4 O 0.26541(15) 0.3648(4) 0.44889(17)
O5 O 0.29402(15) 0.2336(3) 0.45450(17)
O6 O 0.25811(19) 0.4651(4) 0.3764(2)
H2 H 0.2582 0.4481 0.4038
O7 O 0.25553(18) 0.5775(4) 0.1040(2)
O8 O 0.18080(19) 0.5498(4) 0.0391(2)
O9 O 0.28026(19) 0.5617(4) 0.2031(2)
H3 H 0.2819 0.5742 0.1760
O10 O 0.3035(2) 0.5271(4) 0.0461(3)
C1 C 0.3370(2) 0.7708(6) 0.0860(3)
C2 C 0.3750(2) 0.7498(6) 0.1440(3)
C3 C 0.4169(3) 0.7959(6) 0.1696(3)
C4 C 0.4536(3) 0.7763(6) 0.2254(3)
C5 C 0.4443(3) 0.7101(7) 0.2509(4)
C6 C 0.4026(3) 0.6679(7) 0.2275(4)
C7 C 0.3664(3) 0.6897(7) 0.1694(4)
H4 H 0.3373 0.6598 0.1512
C8 C 0.3948(4) 0.6004(7) 0.2543(4)
H5 H 0.3642 0.5750 0.2372
C9 C 0.4289(4) 0.5704(8) 0.3030(5)
H6 H 0.4301 0.5165 0.3167
C10 C 0.4635(4) 0.6383(7) 0.3301(5)
H7 H 0.4790 0.6374 0.3680
C11 C 0.4770(3) 0.7024(7) 0.3095(4)
H8 H 0.5037 0.7373 0.3300
C12 C 0.5000 0.8248(9) 0.2500
H9 H 0.4990 0.8612 0.2219
C13 C 0.2806(3) 0.3022(6) 0.4312(3)
C14 C 0.2904(3) 0.3226(6) 0.3869(3)
C15 C 0.2772(3) 0.4053(6) 0.3589(3)
C16 C 0.2816(3) 0.4204(6) 0.3139(3)
C17 C 0.3039(3) 0.3573(7) 0.3002(4)
C18 C 0.3178(3) 0.2754(7) 0.3242(3)
C19 C 0.3098(3) 0.2599(6) 0.3706(3)
H10 H 0.3179 0.2080 0.3885
C20 C 0.3375(3) 0.2139(7) 0.3099(4)
H11 H 0.3452 0.1615 0.3272
C21 C 0.3463(3) 0.2338(7) 0.2652(4)
H12 H 0.3574 0.1915 0.2514
C22 C 0.3391(3) 0.3065(7) 0.2452(4)
H13 H 0.3495 0.3175 0.2205
C23 C 0.3159(3) 0.3745(8) 0.2574(3)
H14 H 0.3090 0.4261 0.2393
C24 C 0.2133(3) 0.5461(6) 0.0895(4)
C25 C 0.2013(3) 0.5258(6) 0.1309(3)
C26 C 0.2366(3) 0.5272(6) 0.1876(3)
C27 C 0.2241(3) 0.5035(7) 0.2254(4)
C28 C 0.1797(3) 0.4719(6) 0.2110(4)
C29 C 0.1422(3) 0.4724(7) 0.1537(4)
C30 C 0.1541(3) 0.4943(6) 0.1151(4)
H15 H 0.1311 0.4885 0.0783
C31 C 0.0963(3) 0.4433(7) 0.1391(4)
H16 H 0.0728 0.4426 0.1023
C32 C 0.0834(4) 0.4158(7) 0.1750(4)
H17 H 0.0523 0.3948 0.1635
C33 C 0.1195(3) 0.4205(7) 0.2312(4)
H18 H 0.1115 0.4020 0.2568
C34 C 0.1639(3) 0.4498(7) 0.2488(4)
H19 H 0.1852 0.4562 0.2861
C35 C 0.2673(3) 0.5077(6) 0.2889(4)
H20 H 0.2956 0.5353 0.2913
H21 H 0.2565 0.5413 0.3094
C36 C 0.3472(4) 0.5401(8) 0.0673(5)
H22 H 0.3584 0.5845 0.0552
C37 C 0.3661(6) 0.4193(10) 0.1308(7)
H23 H 0.3829 0.3697 0.1294
H24 H 0.3316 0.4099 0.1101
H25 H 0.3757 0.4315 0.1680
C38 C 0.4316(5) 0.5086(10) 0.1333(7)
H26 H 0.4476 0.4938 0.1713
H27 H 0.4365 0.5676 0.1297
H28 H 0.4450 0.4756 0.1156
O12 O 0.65928(16) 0.8395(4) 0.4338(2)
O13 O 0.69934(16) 0.7259(4) 0.4382(2)
O14 O 0.57444(19) 0.8590(4) 0.3538(3)
H36 H 0.5967 0.8630 0.3856
C42 C 0.6630(2) 0.7708(6) 0.4140(3)
C43 C 0.6250(2) 0.7498(6) 0.3560(3)
C44 C 0.5831(3) 0.7959(6) 0.3304(3)
C45 C 0.5464(3) 0.7763(6) 0.2746(3)
C46 C 0.5557(3) 0.7101(7) 0.2491(4)
C47 C 0.5974(3) 0.6679(7) 0.2725(4)
C48 C 0.6336(3) 0.6897(7) 0.3306(4)
H37 H 0.6627 0.6598 0.3488
C49 C 0.6052(4) 0.6004(7) 0.2457(4)
H38 H 0.6358 0.5750 0.2628
C50 C 0.5711(4) 0.5704(8) 0.1970(5)
H39 H 0.5699 0.5165 0.1833
C51 C 0.5365(4) 0.6383(7) 0.1699(5)
H40 H 0.5210 0.6374 0.1320
C52 C 0.5230(3) 0.7024(7) 0.1905(4)
H41 H 0.4963 0.7373 0.1700
H42 H 0.5010 0.8612 0.2781
Tb2 Tb 0.763518(13) 0.62516(3) 0.486743(14)
N3 N 0.6213(4) 0.4912(7) 0.3924(5)
N4 N 0.8169(4) 0.3711(7) 0.5705(5)
O15 O 0.73459(15) 0.3648(4) 0.05111(17)
O16 O 0.70598(15) 0.2336(3) 0.04550(17)
O17 O 0.74189(19) 0.4651(4) 0.1236(2)
H43 H 0.7418 0.4481 0.0962
O18 O 0.74447(18) 0.5775(4) 0.3960(2)
O19 O 0.81920(19) 0.5498(4) 0.4609(2)
O20 O 0.71974(19) 0.5617(4) 0.2969(2)
H44 H 0.7181 0.5742 0.3240
O21 O 0.6965(2) 0.5271(4) 0.4539(3)
O22 O 0.7891(2) 0.5010(4) 0.5424(2)
C53 C 0.7194(3) 0.3022(6) 0.0688(3)
C54 C 0.7096(3) 0.3226(6) 0.1131(3)
C55 C 0.7228(3) 0.4053(6) 0.1411(3)
C56 C 0.7184(3) 0.4204(6) 0.1861(3)
C57 C 0.6961(3) 0.3573(7) 0.1998(4)
C58 C 0.6822(3) 0.2754(7) 0.1758(3)
C59 C 0.6902(3) 0.2599(6) 0.1294(3)
H45 H 0.6821 0.2080 0.1115
C60 C 0.6625(3) 0.2139(7) 0.1901(4)
H46 H 0.6548 0.1615 0.1728
C61 C 0.6537(3) 0.2338(7) 0.2348(4)
H47 H 0.6426 0.1915 0.2486
C62 C 0.6609(3) 0.3065(7) 0.2548(4)
H48 H 0.6505 0.3175 0.2795
C63 C 0.6841(3) 0.3745(8) 0.2426(3)
H49 H 0.6910 0.4261 0.2607
C64 C 0.7867(3) 0.5461(6) 0.4105(4)
C65 C 0.7987(3) 0.5258(6) 0.3691(3)
C66 C 0.7634(3) 0.5272(6) 0.3124(3)
C67 C 0.7759(3) 0.5035(7) 0.2746(4)
C68 C 0.8203(3) 0.4719(6) 0.2890(4)
C69 C 0.8578(3) 0.4724(7) 0.3463(4)
C70 C 0.8459(3) 0.4943(6) 0.3849(4)
H50 H 0.8689 0.4885 0.4217
C71 C 0.9037(3) 0.4433(7) 0.3609(4)
H51 H 0.9272 0.4426 0.3977
C72 C 0.9166(4) 0.4158(7) 0.3250(4)
H52 H 0.9477 0.3948 0.3365
C73 C 0.8805(3) 0.4205(7) 0.2688(4)
H53 H 0.8885 0.4020 0.2432
C74 C 0.8361(3) 0.4498(7) 0.2512(4)
H54 H 0.8148 0.4562 0.2139
C75 C 0.7327(3) 0.5077(6) 0.2111(4)
H55 H 0.7044 0.5353 0.2087
H56 H 0.7435 0.5413 0.1906
C76 C 0.6528(4) 0.5401(8) 0.4327(5)
H57 H 0.6416 0.5845 0.4448
C77 C 0.6339(6) 0.4193(10) 0.3692(7)
H58 H 0.6171 0.3697 0.3706
H59 H 0.6684 0.4099 0.3899
H60 H 0.6243 0.4315 0.3320
C78 C 0.5684(5) 0.5086(10) 0.3667(7)
H61 H 0.5524 0.4938 0.3287
H62 H 0.5635 0.5676 0.3703
H63 H 0.5550 0.4756 0.3844
C79 C 0.8018(4) 0.4325(7) 0.5342(5)
H64 H 0.8008 0.4233 0.5013
C80 C 0.8189(5) 0.3820(10) 0.6230(6)
H65 H 0.7959 0.3447 0.6247
H66 H 0.8110 0.4395 0.6264
H67 H 0.8512 0.3691 0.6522
C81 C 0.8323(5) 0.2879(9) 0.5607(6)
H68 H 0.8101 0.2451 0.5589
H69 H 0.8646 0.2753 0.5901
H70 H 0.8323 0.2893 0.5269
Tb3 Tb 0.736482(13) 0.12516(3) 0.013257(14)
Tb4 Tb 0.263518(13) 0.12516(3) 0.486743(14)
Tb6 Tb 0.236482(13) 0.37484(3) 0.513257(14)
Tb8 Tb 0.736482(13) 0.87484(3) 0.513257(14)
O24 O 0.84072(16) 0.6605(4) 0.5662(2)
O25 O 0.73459(15) 0.6352(4) 0.55111(17)
O27 O 0.79402(15) 0.7336(3) 0.45450(17)
O28 O 0.20598(15) 0.7336(3) 0.04550(17)
N2 N 0.1831(4) 0.3711(7) 0.9295(5)
O11 O 0.2109(2) 0.5010(4) 0.9576(2)
C39 C 0.1982(4) 0.4325(7) 0.9658(5)
H29 H 0.1992 0.4233 0.9987
C40 C 0.1811(5) 0.3820(10) 0.8770(6)
H30 H 0.2041 0.3447 0.8753
H31 H 0.1890 0.4395 0.8736
H32 H 0.1488 0.3691 0.8478
C41 C 0.1677(5) 0.2879(9) 0.9393(6)
H33 H 0.1899 0.2451 0.9411
H34 H 0.1354 0.2753 0.9099
H35 H 0.1677 0.2893 0.9731
Tb5 Tb 0.763518(13) 0.37484(3) 0.986743(14)
Tb7 Tb 0.263518(13) 0.87484(3) 0.986743(14)
O23 O 0.15928(16) 0.6605(4) 0.9338(2)
O26 O 0.26541(15) 0.6352(4) 0.94889(17)
H8_2 H 0.0037 0.2373 0.3300
C12_2 C 0.0000 0.3248(9) 0.2500
O12_2 O 0.15928(16) 0.3395(4) 0.4338(2)
O13_2 O 0.19934(16) 0.2259(4) 0.4382(2)
O14_2 O 0.07444(19) 0.3590(4) 0.3538(3)
H36_2 H 0.0967 0.3630 0.3856
C42_2 C 0.1630(2) 0.2708(6) 0.4140(3)
C43_2 C 0.1250(2) 0.2498(6) 0.3560(3)
C44_2 C 0.0831(3) 0.2959(6) 0.3304(3)
C45_2 C 0.0464(3) 0.2763(6) 0.2746(3)
C46_2 C 0.0557(3) 0.2101(7) 0.2491(4)
C47_2 C 0.0974(3) 0.1679(7) 0.2725(4)
C48_2 C 0.1336(3) 0.1897(7) 0.3306(4)
H37_2 H 0.1627 0.1598 0.3488
C49_2 C 0.1052(4) 0.1004(7) 0.2457(4)
H38_2 H 0.1358 0.0750 0.2628
C50_2 C 0.0711(4) 0.0704(8) 0.1970(5)
H39_2 H 0.0699 0.0165 0.1833
C51_2 C 0.0365(4) 0.1383(7) 0.1699(5)
H40_2 H 0.0210 0.1374 0.1320
C52_2 C 0.0230(3) 0.2024(7) 0.1905(4)
H42_2 H 0.0010 0.3612 0.2781
O18_2 O 0.24447(18) 0.0775(4) 0.3960(2)
O19_2 O 0.31920(19) 0.0498(4) 0.4609(2)
O20_2 O 0.21974(19) 0.0617(4) 0.2969(2)
H44_2 H 0.2181 0.0742 0.3240
O21_2 O 0.1965(2) 0.0271(4) 0.4539(3)
O22_2 O 0.2891(2) 0.0010(4) 0.5424(2)
C64_2 C 0.2867(3) 0.0461(6) 0.4105(4)
C65_2 C 0.2987(3) 0.0258(6) 0.3691(3)
C66_2 C 0.2634(3) 0.0272(6) 0.3124(3)
C67_2 C 0.2759(3) 0.0035(7) 0.2746(4)
C75_2 C 0.2327(3) 0.0077(6) 0.2111(4)
H55_2 H 0.2044 0.0353 0.2087
H56_2 H 0.2435 0.0413 0.1906
C76_2 C 0.1528(4) 0.0401(8) 0.4327(5)
H57_2 H 0.1416 0.0845 0.4448
C78_2 C 0.0684(5) 0.0086(10) 0.3667(7)
H62_2 H 0.0635 0.0676 0.3703
O24_2 O 0.34072(16) 0.1605(4) 0.5662(2)
O25_2 O 0.23459(15) 0.1352(4) 0.55111(17)
N3_2 N 0.1213(4) 0.9912(7) 0.3924(5)
N4_2 N 0.3169(4) 0.8711(7) 0.5705(5)
O15_2 O 0.23459(15) 0.8648(4) 0.05111(17)
O17_2 O 0.24189(19) 0.9651(4) 0.1236(2)
H43_2 H 0.2418 0.9481 0.0962
C53_2 C 0.2194(3) 0.8022(6) 0.0688(3)
C54_2 C 0.2096(3) 0.8226(6) 0.1131(3)
C55_2 C 0.2228(3) 0.9053(6) 0.1411(3)
C56_2 C 0.2184(3) 0.9204(6) 0.1861(3)
C57_2 C 0.1961(3) 0.8573(7) 0.1998(4)
C58_2 C 0.1822(3) 0.7754(7) 0.1758(3)
C59_2 C 0.1902(3) 0.7599(6) 0.1294(3)
H45_2 H 0.1821 0.7080 0.1115
C60_2 C 0.1625(3) 0.7139(7) 0.1901(4)
H46_2 H 0.1548 0.6615 0.1728
C61_2 C 0.1537(3) 0.7338(7) 0.2348(4)
H47_2 H 0.1426 0.6915 0.2486
C62_2 C 0.1609(3) 0.8065(7) 0.2548(4)
H48_2 H 0.1505 0.8175 0.2795
C63_2 C 0.1841(3) 0.8745(8) 0.2426(3)
H49_2 H 0.1910 0.9261 0.2607
C68_2 C 0.3203(3) 0.9719(6) 0.2890(4)
C69_2 C 0.3578(3) 0.9724(7) 0.3463(4)
C70_2 C 0.3459(3) 0.9943(6) 0.3849(4)
H50_2 H 0.3689 0.9885 0.4217
C71_2 C 0.4037(3) 0.9433(7) 0.3609(4)
H51_2 H 0.4272 0.9426 0.3977
C72_2 C 0.4166(4) 0.9158(7) 0.3250(4)
H52_2 H 0.4477 0.8948 0.3365
C73_2 C 0.3805(3) 0.9205(7) 0.2688(4)
H53_2 H 0.3885 0.9020 0.2432
C74_2 C 0.3361(3) 0.9498(7) 0.2512(4)
H54_2 H 0.3148 0.9562 0.2139
C77_2 C 0.1339(6) 0.9193(10) 0.3692(7)
H58_2 H 0.1171 0.8697 0.3706
H59_2 H 0.1684 0.9099 0.3899
H60_2 H 0.1243 0.9315 0.3320
H61_2 H 0.0524 0.9938 0.3287
H63_2 H 0.0550 0.9756 0.3844
C79_2 C 0.3018(4) 0.9325(7) 0.5342(5)
H64_2 H 0.3008 0.9233 0.5013
C80_2 C 0.3189(5) 0.8820(10) 0.6230(6)
H65_2 H 0.2959 0.8447 0.6247
H66_2 H 0.3110 0.9395 0.6264
H67_2 H 0.3512 0.8691 0.6522
C81_2 C 0.3323(5) 0.7879(9) 0.5607(6)
H68_2 H 0.3101 0.7451 0.5589
H69_2 H 0.3646 0.7753 0.5901
H70_2 H 0.3323 0.7893 0.5269
O1_2 O 0.84072(16) 0.3395(4) 0.0662(2)
O2_2 O 0.80066(16) 0.2259(4) 0.0618(2)
O3_2 O 0.92556(19) 0.3590(4) 0.1462(3)
H1_2 H 0.9033 0.3630 0.1144
O7_2 O 0.75553(18) 0.0775(4) 0.1040(2)
O8_2 O 0.68080(19) 0.0498(4) 0.0391(2)
O9_2 O 0.78026(19) 0.0617(4) 0.2031(2)
H3_2 H 0.7819 0.0742 0.1760
O10_2 O 0.8035(2) 0.0271(4) 0.0461(3)
C1_2 C 0.8370(2) 0.2708(6) 0.0860(3)
C2_2 C 0.8750(2) 0.2498(6) 0.1440(3)
C3_2 C 0.9169(3) 0.2959(6) 0.1696(3)
C4_2 C 0.9536(3) 0.2763(6) 0.2254(3)
C5_2 C 0.9443(3) 0.2101(7) 0.2509(4)
C6_2 C 0.9026(3) 0.1679(7) 0.2275(4)
C7_2 C 0.8664(3) 0.1897(7) 0.1694(4)
H4_2 H 0.8373 0.1598 0.1512
C8_2 C 0.8948(4) 0.1004(7) 0.2543(4)
H5_2 H 0.8642 0.0750 0.2372
C9_2 C 0.9289(4) 0.0704(8) 0.3030(5)
H6_2 H 0.9301 0.0165 0.3167
C10_2 C 0.9635(4) 0.1383(7) 0.3301(5)
H7_2 H 0.9790 0.1374 0.3680
C11_2 C 0.9770(3) 0.2024(7) 0.3095(4)
C12_3 C 1.0000 0.3248(9) 0.2500
H9_2 H 0.9990 0.3612 0.2219
C24_2 C 0.7133(3) 0.0461(6) 0.0895(4)
C25_2 C 0.7013(3) 0.0258(6) 0.1309(3)
C26_2 C 0.7366(3) 0.0272(6) 0.1876(3)
C27_2 C 0.7241(3) 0.0035(7) 0.2254(4)
C35_2 C 0.7673(3) 0.0077(6) 0.2889(4)
H20_2 H 0.7956 0.0353 0.2913
H21_2 H 0.7565 0.0413 0.3094
C36_2 C 0.8472(4) 0.0401(8) 0.0673(5)
H22_2 H 0.8584 0.0845 0.0552
C38_2 C 0.9316(5) 0.0086(10) 0.1333(7)
H27_2 H 0.9365 0.0676 0.1297
H41_2 H 0.9963 0.2373 0.1700
O11_2 O 0.7109(2) 0.0010(4) 0.9576(2)
O23_2 O 0.65928(16) 0.1605(4) 0.9338(2)
O26_2 O 0.76541(15) 0.1352(4) 0.94889(17)
N1_2 N 0.8787(4) 0.9912(7) 0.1076(5)
O4_2 O 0.76541(15) 0.8648(4) 0.44889(17)
O6_2 O 0.75811(19) 0.9651(4) 0.3764(2)
H2_2 H 0.7582 0.9481 0.4038
C13_2 C 0.7806(3) 0.8022(6) 0.4312(3)
C14_2 C 0.7904(3) 0.8226(6) 0.3869(3)
C15_2 C 0.7772(3) 0.9053(6) 0.3589(3)
C16_2 C 0.7816(3) 0.9204(6) 0.3139(3)
C17_2 C 0.8039(3) 0.8573(7) 0.3002(4)
C18_2 C 0.8178(3) 0.7754(7) 0.3242(3)
C19_2 C 0.8098(3) 0.7599(6) 0.3706(3)
H10_2 H 0.8179 0.7080 0.3885
C20_2 C 0.8375(3) 0.7139(7) 0.3099(4)
H11_2 H 0.8452 0.6615 0.3272
C21_2 C 0.8463(3) 0.7338(7) 0.2652(4)
H12_2 H 0.8574 0.6915 0.2514
C22_2 C 0.8391(3) 0.8065(7) 0.2452(4)
H13_2 H 0.8495 0.8175 0.2205
C23_2 C 0.8159(3) 0.8745(8) 0.2574(3)
H14_2 H 0.8090 0.9261 0.2393
C28_2 C 0.6797(3) 0.9719(6) 0.2110(4)
C29_2 C 0.6422(3) 0.9724(7) 0.1537(4)
C30_2 C 0.6541(3) 0.9943(6) 0.1151(4)
H15_2 H 0.6311 0.9885 0.0783
C31_2 C 0.5963(3) 0.9433(7) 0.1391(4)
H16_2 H 0.5728 0.9426 0.1023
C32_2 C 0.5834(4) 0.9158(7) 0.1750(4)
H17_2 H 0.5523 0.8948 0.1635
C33_2 C 0.6195(3) 0.9205(7) 0.2312(4)
H18_2 H 0.6115 0.9020 0.2568
C34_2 C 0.6639(3) 0.9498(7) 0.2488(4)
H19_2 H 0.6852 0.9562 0.2861
C37_2 C 0.8661(6) 0.9193(10) 0.1308(7)
H23_2 H 0.8829 0.8697 0.1294
H24_2 H 0.8316 0.9099 0.1101
H25_2 H 0.8757 0.9315 0.1680
H26_2 H 0.9476 0.9938 0.1713
H28_2 H 0.9450 0.9756 0.1156
N2_2 N 0.8169(4) 0.6289(7) 0.0705(5)
O11_3 O 0.7891(2) 0.4990(4) 0.0424(2)
C39_2 C 0.8018(4) 0.5675(7) 0.0342(5)
H29_2 H 0.8008 0.5767 0.0013
C40_2 C 0.8189(5) 0.6180(10) 0.1230(6)
H30_2 H 0.7959 0.6553 0.1247
H31_2 H 0.8110 0.5605 0.1264
H32_2 H 0.8512 0.6309 0.1522
C41_2 C 0.8323(5) 0.7121(9) 0.0607(6)
H33_2 H 0.8101 0.7549 0.0589
H34_2 H 0.8646 0.7247 0.0901
H35_2 H 0.8323 0.7107 0.0269
N1_3 N 0.6213(4) 0.5088(7) 0.8924(5)
O2_3 O 0.69934(16) 0.2741(4) 0.9382(2)
O3_3 O 0.57444(19) 0.1410(4) 0.8538(3)
H1_3 H 0.5967 0.1370 0.8856
O5_2 O 0.70598(15) 0.7664(3) 0.54550(17)
O6_3 O 0.74189(19) 0.5349(4) 0.6236(2)
H2_3 H 0.7418 0.5519 0.5962
O7_3 O 0.74447(18) 0.4225(4) 0.8960(2)
O8_3 O 0.81920(19) 0.4502(4) 0.9609(2)
O9_3 O 0.71974(19) 0.4383(4) 0.7969(2)
H3_3 H 0.7181 0.4258 0.8240
O10_3 O 0.6965(2) 0.4729(4) 0.9539(3)
C1_3 C 0.6630(2) 0.2292(6) 0.9140(3)
C2_3 C 0.6250(2) 0.2502(6) 0.8560(3)
C3_3 C 0.5831(3) 0.2041(6) 0.8304(3)
C4_3 C 0.5464(3) 0.2237(6) 0.7746(3)
C5_3 C 0.5557(3) 0.2899(7) 0.7491(4)
C6_3 C 0.5974(3) 0.3321(7) 0.7725(4)
C7_3 C 0.6336(3) 0.3103(7) 0.8306(4)
H4_3 H 0.6627 0.3402 0.8488
C8_3 C 0.6052(4) 0.3996(7) 0.7457(4)
H5_3 H 0.6358 0.4250 0.7628
C9_3 C 0.5711(4) 0.4296(8) 0.6970(5)
H6_3 H 0.5699 0.4835 0.6833
C10_3 C 0.5365(4) 0.3617(7) 0.6699(5)
H7_3 H 0.5210 0.3626 0.6320
C11_3 C 0.5230(3) 0.2976(7) 0.6905(4)
H8_3 H 0.4963 0.2627 0.6700
C12_4 C 0.5000 0.1752(9) 0.7500
H9_3 H 0.5010 0.1388 0.7781
C13_3 C 0.7194(3) 0.6978(6) 0.5688(3)
C14_3 C 0.7096(3) 0.6774(6) 0.6131(3)
C15_3 C 0.7228(3) 0.5947(6) 0.6411(3)
C16_3 C 0.7184(3) 0.5796(6) 0.6861(3)
C17_3 C 0.6961(3) 0.6427(7) 0.6998(4)
C18_3 C 0.6822(3) 0.7246(7) 0.6758(3)
C19_3 C 0.6902(3) 0.7401(6) 0.6294(3)
H10_3 H 0.6821 0.7920 0.6115
C20_3 C 0.6625(3) 0.7861(7) 0.6901(4)
H11_3 H 0.6548 0.8385 0.6728
C21_3 C 0.6537(3) 0.7662(7) 0.7348(4)
H12_3 H 0.6426 0.8085 0.7486
C22_3 C 0.6609(3) 0.6935(7) 0.7548(4)
H13_3 H 0.6505 0.6825 0.7795
C23_3 C 0.6841(3) 0.6255(8) 0.7426(3)
H14_3 H 0.6910 0.5739 0.7607
C24_3 C 0.7867(3) 0.4539(6) 0.9105(4)
C25_3 C 0.7987(3) 0.4742(6) 0.8691(3)
C26_3 C 0.7634(3) 0.4728(6) 0.8124(3)
C27_3 C 0.7759(3) 0.4965(7) 0.7746(4)
C28_3 C 0.8203(3) 0.5281(6) 0.7890(4)
C29_3 C 0.8578(3) 0.5276(7) 0.8463(4)
C30_3 C 0.8459(3) 0.5057(6) 0.8849(4)
H15_3 H 0.8689 0.5115 0.9217
C31_3 C 0.9037(3) 0.5567(7) 0.8609(4)
H16_3 H 0.9272 0.5574 0.8977
C32_3 C 0.9166(4) 0.5842(7) 0.8250(4)
H17_3 H 0.9477 0.6052 0.8365
C33_3 C 0.8805(3) 0.5795(7) 0.7688(4)
H18_3 H 0.8885 0.5980 0.7432
C34_3 C 0.8361(3) 0.5502(7) 0.7512(4)
H19_3 H 0.8148 0.5438 0.7139
C35_3 C 0.7327(3) 0.4923(6) 0.7111(4)
H20_3 H 0.7044 0.4647 0.7087
H21_3 H 0.7435 0.4587 0.6906
C36_3 C 0.6528(4) 0.4599(8) 0.9327(5)
H22_3 H 0.6416 0.4155 0.9448
C37_3 C 0.6339(6) 0.5807(10) 0.8692(7)
H23_3 H 0.6171 0.6303 0.8706
H24_3 H 0.6684 0.5901 0.8899
H25_3 H 0.6243 0.5685 0.8320
C38_3 C 0.5684(5) 0.4914(10) 0.8667(7)
H26_3 H 0.5524 0.5062 0.8287
H27_3 H 0.5635 0.4324 0.8703
H28_3 H 0.5550 0.5244 0.8844
O13_3 O 0.30066(16) 0.2741(4) 0.5618(2)
O14_3 O 0.42556(19) 0.1410(4) 0.6462(3)
H36_3 H 0.4033 0.1370 0.6144
C42_3 C 0.3370(2) 0.2292(6) 0.5860(3)
C43_3 C 0.3750(2) 0.2502(6) 0.6440(3)
C44_3 C 0.4169(3) 0.2041(6) 0.6696(3)
C45_3 C 0.4536(3) 0.2237(6) 0.7254(3)
C46_3 C 0.4443(3) 0.2899(7) 0.7509(4)
C47_3 C 0.4026(3) 0.3321(7) 0.7275(4)
C48_3 C 0.3664(3) 0.3103(7) 0.6694(4)
H37_3 H 0.3373 0.3402 0.6512
C49_3 C 0.3948(4) 0.3996(7) 0.7543(4)
H38_3 H 0.3642 0.4250 0.7372
C50_3 C 0.4289(4) 0.4296(8) 0.8030(5)
H39_3 H 0.4301 0.4835 0.8167
C51_3 C 0.4635(4) 0.3617(7) 0.8301(5)
H40_3 H 0.4790 0.3626 0.8680
C52_3 C 0.4770(3) 0.2976(7) 0.8095(4)
H41_3 H 0.5037 0.2627 0.8300
H42_3 H 0.4990 0.1388 0.7219
N3_3 N 0.3787(4) 0.5088(7) 0.6076(5)
N4_3 N 0.1831(4) 0.6289(7) 0.4295(5)
O16_2 O 0.29402(15) 0.7664(3) 0.95450(17)
O17_3 O 0.25811(19) 0.5349(4) 0.8764(2)
H43_3 H 0.2582 0.5519 0.9038
O18_3 O 0.25553(18) 0.4225(4) 0.6040(2)
O19_3 O 0.18080(19) 0.4502(4) 0.5391(2)
O20_3 O 0.28026(19) 0.4383(4) 0.7031(2)
H44_3 H 0.2819 0.4258 0.6760
O21_3 O 0.3035(2) 0.4729(4) 0.5461(3)
O22_3 O 0.2109(2) 0.4990(4) 0.4576(2)
C53_3 C 0.2806(3) 0.6978(6) 0.9312(3)
C54_3 C 0.2904(3) 0.6774(6) 0.8869(3)
C55_3 C 0.2772(3) 0.5947(6) 0.8589(3)
C56_3 C 0.2816(3) 0.5796(6) 0.8139(3)
C57_3 C 0.3039(3) 0.6427(7) 0.8002(4)
C58_3 C 0.3178(3) 0.7246(7) 0.8242(3)
C59_3 C 0.3098(3) 0.7401(6) 0.8706(3)
H45_3 H 0.3179 0.7920 0.8885
C60_3 C 0.3375(3) 0.7861(7) 0.8099(4)
H46_3 H 0.3452 0.8385 0.8272
C61_3 C 0.3463(3) 0.7662(7) 0.7652(4)
H47_3 H 0.3574 0.8085 0.7514
C62_3 C 0.3391(3) 0.6935(7) 0.7452(4)
H48_3 H 0.3495 0.6825 0.7205
C63_3 C 0.3159(3) 0.6255(8) 0.7574(3)
H49_3 H 0.3090 0.5739 0.7393
C64_3 C 0.2133(3) 0.4539(6) 0.5895(4)
C65_3 C 0.2013(3) 0.4742(6) 0.6309(3)
C66_3 C 0.2366(3) 0.4728(6) 0.6876(3)
C67_3 C 0.2241(3) 0.4965(7) 0.7254(4)
C68_3 C 0.1797(3) 0.5281(6) 0.7110(4)
C69_3 C 0.1422(3) 0.5276(7) 0.6537(4)
C70_3 C 0.1541(3) 0.5057(6) 0.6151(4)
H50_3 H 0.1311 0.5115 0.5783
C71_3 C 0.0963(3) 0.5567(7) 0.6391(4)
H51_3 H 0.0728 0.5574 0.6023
C72_3 C 0.0834(4) 0.5842(7) 0.6750(4)
H52_3 H 0.0523 0.6052 0.6635
C73_3 C 0.1195(3) 0.5795(7) 0.7312(4)
H53_3 H 0.1115 0.5980 0.7568
C74_3 C 0.1639(3) 0.5502(7) 0.7488(4)
H54_3 H 0.1852 0.5438 0.7861
C75_3 C 0.2673(3) 0.4923(6) 0.7889(4)
H55_3 H 0.2956 0.4647 0.7913
H56_3 H 0.2565 0.4587 0.8094
C76_3 C 0.3472(4) 0.4599(8) 0.5673(5)
H57_3 H 0.3584 0.4155 0.5552
C77_3 C 0.3661(6) 0.5807(10) 0.6308(7)
H58_3 H 0.3829 0.6303 0.6294
H59_3 H 0.3316 0.5901 0.6101
H60_3 H 0.3757 0.5685 0.6680
C78_3 C 0.4316(5) 0.4914(10) 0.6333(7)
H61_3 H 0.4476 0.5062 0.6713
H62_3 H 0.4365 0.4324 0.6297
H63_3 H 0.4450 0.5244 0.6156
C79_3 C 0.1982(4) 0.5675(7) 0.4658(5)
H64_3 H 0.1992 0.5767 0.4987
C80_3 C 0.1811(5) 0.6180(10) 0.3770(6)
H65_3 H 0.2041 0.6553 0.3753
H66_3 H 0.1890 0.5605 0.3736
H67_3 H 0.1488 0.6309 0.3478
C81_3 C 0.1677(5) 0.7121(9) 0.4393(6)
H68_3 H 0.1899 0.7549 0.4411
H69_3 H 0.1354 0.7247 0.4099
H70_3 H 0.1677 0.7107 0.4731
O27_2 O 0.20598(15) 0.2664(3) 0.54550(17)
O28_2 O 0.79402(15) 0.2664(3) 0.95450(17)
N1_4 N 0.1213(4) 0.0088(7) 0.8924(5)
O6_4 O 0.24189(19) 0.0349(4) 0.6236(2)
H2_4 H 0.2418 0.0519 0.5962
C13_4 C 0.2194(3) 0.1978(6) 0.5688(3)
C14_4 C 0.2096(3) 0.1774(6) 0.6131(3)
C15_4 C 0.2228(3) 0.0947(6) 0.6411(3)
C16_4 C 0.2184(3) 0.0796(6) 0.6861(3)
C17_4 C 0.1961(3) 0.1427(7) 0.6998(4)
C18_4 C 0.1822(3) 0.2246(7) 0.6758(3)
C19_4 C 0.1902(3) 0.2401(6) 0.6294(3)
H10_4 H 0.1821 0.2920 0.6115
C20_4 C 0.1625(3) 0.2861(7) 0.6901(4)
H11_4 H 0.1548 0.3385 0.6728
C21_4 C 0.1537(3) 0.2662(7) 0.7348(4)
H12_4 H 0.1426 0.3085 0.7486
C22_4 C 0.1609(3) 0.1935(7) 0.7548(4)
H13_4 H 0.1505 0.1825 0.7795
C23_4 C 0.1841(3) 0.1255(8) 0.7426(3)
H14_4 H 0.1910 0.0739 0.7607
C28_4 C 0.3203(3) 0.0281(6) 0.7890(4)
C29_4 C 0.3578(3) 0.0276(7) 0.8463(4)
C30_4 C 0.3459(3) 0.0057(6) 0.8849(4)
H15_4 H 0.3689 0.0115 0.9217
C31_4 C 0.4037(3) 0.0567(7) 0.8609(4)
H16_4 H 0.4272 0.0574 0.8977
C32_4 C 0.4166(4) 0.0842(7) 0.8250(4)
H17_4 H 0.4477 0.1052 0.8365
C33_4 C 0.3805(3) 0.0795(7) 0.7688(4)
H18_4 H 0.3885 0.0980 0.7432
C34_4 C 0.3361(3) 0.0502(7) 0.7512(4)
H19_4 H 0.3148 0.0438 0.7139
C37_4 C 0.1339(6) 0.0807(10) 0.8692(7)
H23_4 H 0.1171 0.1303 0.8706
H24_4 H 0.1684 0.0901 0.8899
H25_4 H 0.1243 0.0685 0.8320
H26_4 H 0.0524 0.0062 0.8287
H28_4 H 0.0550 0.0244 0.8844
O11_4 O 0.2891(2) 0.9990(4) 0.0424(2)
O2_4 O 0.19934(16) 0.7741(4) 0.9382(2)
O3_4 O 0.07444(19) 0.6410(4) 0.8538(3)
H1_4 H 0.0967 0.6370 0.8856
O7_4 O 0.24447(18) 0.9225(4) 0.8960(2)
O8_4 O 0.31920(19) 0.9502(4) 0.9609(2)
O9_4 O 0.21974(19) 0.9383(4) 0.7969(2)
H3_4 H 0.2181 0.9258 0.8240
O10_4 O 0.1965(2) 0.9729(4) 0.9539(3)
C1_4 C 0.1630(2) 0.7292(6) 0.9140(3)
C2_4 C 0.1250(2) 0.7502(6) 0.8560(3)
C3_4 C 0.0831(3) 0.7041(6) 0.8304(3)
C4_4 C 0.0464(3) 0.7237(6) 0.7746(3)
C5_4 C 0.0557(3) 0.7899(7) 0.7491(4)
C6_4 C 0.0974(3) 0.8321(7) 0.7725(4)
C7_4 C 0.1336(3) 0.8103(7) 0.8306(4)
H4_4 H 0.1627 0.8402 0.8488
C8_4 C 0.1052(4) 0.8996(7) 0.7457(4)
H5_4 H 0.1358 0.9250 0.7628
C9_4 C 0.0711(4) 0.9296(8) 0.6970(5)
H6_4 H 0.0699 0.9835 0.6833
C10_4 C 0.0365(4) 0.8617(7) 0.6699(5)
H7_4 H 0.0210 0.8626 0.6320
C11_4 C 0.0230(3) 0.7976(7) 0.6905(4)
C12_5 C -0.0000 0.6752(9) 0.7500
H9_4 H 0.0010 0.6388 0.7781
C24_4 C 0.2867(3) 0.9539(6) 0.9105(4)
C25_4 C 0.2987(3) 0.9742(6) 0.8691(3)
C26_4 C 0.2634(3) 0.9728(6) 0.8124(3)
C27_4 C 0.2759(3) 0.9965(7) 0.7746(4)
C35_4 C 0.2327(3) 0.9923(6) 0.7111(4)
H20_4 H 0.2044 0.9647 0.7087
H21_4 H 0.2435 0.9587 0.6906
C36_4 C 0.1528(4) 0.9599(8) 0.9327(5)
H22_4 H 0.1416 0.9155 0.9448
C38_4 C 0.0684(5) 0.9914(10) 0.8667(7)
H27_4 H 0.0635 0.9324 0.8703
H41_4 H 0.0037 0.7627 0.8300
N3_4 N 0.8787(4) 0.0088(7) 0.6076(5)
N4_4 N 0.6831(4) 0.1289(7) 0.4295(5)
O17_4 O 0.75811(19) 0.0349(4) 0.8764(2)
H43_4 H 0.7582 0.0519 0.9038
C53_4 C 0.7806(3) 0.1978(6) 0.9312(3)
C54_4 C 0.7904(3) 0.1774(6) 0.8869(3)
C55_4 C 0.7772(3) 0.0947(6) 0.8589(3)
C56_4 C 0.7816(3) 0.0796(6) 0.8139(3)
C57_4 C 0.8039(3) 0.1427(7) 0.8002(4)
C58_4 C 0.8178(3) 0.2246(7) 0.8242(3)
C59_4 C 0.8098(3) 0.2401(6) 0.8706(3)
H45_4 H 0.8179 0.2920 0.8885
C60_4 C 0.8375(3) 0.2861(7) 0.8099(4)
H46_4 H 0.8452 0.3385 0.8272
C61_4 C 0.8463(3) 0.2662(7) 0.7652(4)
H47_4 H 0.8574 0.3085 0.7514
C62_4 C 0.8391(3) 0.1935(7) 0.7452(4)
H48_4 H 0.8495 0.1825 0.7205
C63_4 C 0.8159(3) 0.1255(8) 0.7574(3)
H49_4 H 0.8090 0.0739 0.7393
C68_4 C 0.6797(3) 0.0281(6) 0.7110(4)
C69_4 C 0.6422(3) 0.0276(7) 0.6537(4)
C70_4 C 0.6541(3) 0.0057(6) 0.6151(4)
H50_4 H 0.6311 0.0115 0.5783
C71_4 C 0.5963(3) 0.0567(7) 0.6391(4)
H51_4 H 0.5728 0.0574 0.6023
C72_4 C 0.5834(4) 0.0842(7) 0.6750(4)
H52_4 H 0.5523 0.1052 0.6635
C73_4 C 0.6195(3) 0.0795(7) 0.7312(4)
H53_4 H 0.6115 0.0980 0.7568
C74_4 C 0.6639(3) 0.0502(7) 0.7488(4)
H54_4 H 0.6852 0.0438 0.7861
C77_4 C 0.8661(6) 0.0807(10) 0.6308(7)
H58_4 H 0.8829 0.1303 0.6294
H59_4 H 0.8316 0.0901 0.6101
H60_4 H 0.8757 0.0685 0.6680
H61_4 H 0.9476 0.0062 0.6713
H63_4 H 0.9450 0.0244 0.6156
C79_4 C 0.6982(4) 0.0675(7) 0.4658(5)
H64_4 H 0.6992 0.0767 0.4987
C80_4 C 0.6811(5) 0.1180(10) 0.3770(6)
H65_4 H 0.7041 0.1553 0.3753
H66_4 H 0.6890 0.0605 0.3736
H67_4 H 0.6488 0.1309 0.3478
C81_4 C 0.6677(5) 0.2121(9) 0.4393(6)
H68_4 H 0.6899 0.2549 0.4411
H69_4 H 0.6354 0.2247 0.4099
H70_4 H 0.6677 0.2107 0.4731
H8_4 H 0.9963 0.7627 0.6700
C12_6 C 1.0000 0.6752(9) 0.7500
O13_4 O 0.80066(16) 0.7741(4) 0.5618(2)
O14_4 O 0.92556(19) 0.6410(4) 0.6462(3)
H36_4 H 0.9033 0.6370 0.6144
C42_4 C 0.8370(2) 0.7292(6) 0.5860(3)
C43_4 C 0.8750(2) 0.7502(6) 0.6440(3)
C44_4 C 0.9169(3) 0.7041(6) 0.6696(3)
C45_4 C 0.9536(3) 0.7237(6) 0.7254(3)
C46_4 C 0.9443(3) 0.7899(7) 0.7509(4)
C47_4 C 0.9026(3) 0.8321(7) 0.7275(4)
C48_4 C 0.8664(3) 0.8103(7) 0.6694(4)
H37_4 H 0.8373 0.8402 0.6512
C49_4 C 0.8948(4) 0.8996(7) 0.7543(4)
H38_4 H 0.8642 0.9250 0.7372
C50_4 C 0.9289(4) 0.9296(8) 0.8030(5)
H39_4 H 0.9301 0.9835 0.8167
C51_4 C 0.9635(4) 0.8617(7) 0.8301(5)
H40_4 H 0.9790 0.8626 0.8680
C52_4 C 0.9770(3) 0.7976(7) 0.8095(4)
H42_4 H 0.9990 0.6388 0.7219
O18_4 O 0.75553(18) 0.9225(4) 0.6040(2)
O19_4 O 0.68080(19) 0.9502(4) 0.5391(2)
O20_4 O 0.78026(19) 0.9383(4) 0.7031(2)
H44_4 H 0.7819 0.9258 0.6760
O21_4 O 0.8035(2) 0.9729(4) 0.5461(3)
O22_4 O 0.7109(2) 0.9990(4) 0.4576(2)
C64_4 C 0.7133(3) 0.9539(6) 0.5895(4)
C65_4 C 0.7013(3) 0.9742(6) 0.6309(3)
C66_4 C 0.7366(3) 0.9728(6) 0.6876(3)
C67_4 C 0.7241(3) 0.9965(7) 0.7254(4)
C75_4 C 0.7673(3) 0.9923(6) 0.7889(4)
H55_4 H 0.7956 0.9647 0.7913
H56_4 H 0.7565 0.9587 0.8094
C76_4 C 0.8472(4) 0.9599(8) 0.5673(5)
H57_4 H 0.8584 0.9155 0.5552
C78_4 C 0.9316(5) 0.9914(10) 0.6333(7)
H62_4 H 0.9365 0.9324 0.6297
N2_3 N 0.6831(4) 0.8711(7) 0.9295(5)
C39_3 C 0.6982(4) 0.9325(7) 0.9658(5)
H29_3 H 0.6992 0.9233 0.9987
C40_3 C 0.6811(5) 0.8820(10) 0.8770(6)
H30_3 H 0.7041 0.8447 0.8753
H31_3 H 0.6890 0.9395 0.8736
H32_3 H 0.6488 0.8691 0.8478
C41_3 C 0.6677(5) 0.7879(9) 0.9393(6)
H33_3 H 0.6899 0.7451 0.9411
H34_3 H 0.6354 0.7753 0.9099
H35_3 H 0.6677 0.7893 0.9731
N2_4 N 0.3169(4) 0.1289(7) 0.0705(5)
C39_4 C 0.3018(4) 0.0675(7) 0.0342(5)
H29_4 H 0.3008 0.0767 0.0013
C40_4 C 0.3189(5) 0.1180(10) 0.1230(6)
H30_4 H 0.2959 0.1553 0.1247
H31_4 H 0.3110 0.0605 0.1264
H32_4 H 0.3512 0.1309 0.1522
C41_4 C 0.3323(5) 0.2121(9) 0.0607(6)
H33_4 H 0.3101 0.2549 0.0589
H34_4 H 0.3646 0.2247 0.0901
H35_4 H 0.3323 0.2107 0.0269
loop_
_geom_bond_atom_site_label_1
_geom_bond_atom_site_label_2
_geom_bond_site_symmetry_1
_geom_bond_site_symmetry_2
Tb1 O2 1_555 1_555
N1 C36 1_555 1_555
O1 C1 1_555 1_555
O2 C1 1_555 1_555
O3 H1 1_555 1_555
O4 C13 1_555 1_555
O5 C13 1_555 1_555
O6 H2 1_555 1_555
O7 Tb1 1_555 1_555
O8 Tb1 1_555 1_555
O9 H3 1_555 1_555
O10 Tb1 1_555 1_555
C1 C2 1_555 1_555
C2 C3 1_555 1_555
C3 O3 1_555 1_555
C4 C3 1_555 1_555
C5 C4 1_555 1_555
C6 C5 1_555 1_555
C7 C2 1_555 1_555
H4 C7 1_555 1_555
C8 C6 1_555 1_555
H5 C8 1_555 1_555
C9 C8 1_555 1_555
H6 C9 1_555 1_555
C10 C9 1_555 1_555
H7 C10 1_555 1_555
C11 C5 1_555 1_555
H8 C11 1_555 1_555
C12 C4 1_555 1_555
H9 C12 1_555 1_555
C13 C14 1_555 1_555
C14 C15 1_555 1_555
C15 O6 1_555 1_555
C16 C15 1_555 1_555
C17 C16 1_555 1_555
C18 C17 1_555 1_555
C19 C14 1_555 1_555
H10 C19 1_555 1_555
C20 C18 1_555 1_555
H11 C20 1_555 1_555
C21 C20 1_555 1_555
H12 C21 1_555 1_555
C22 C21 1_555 1_555
H13 C22 1_555 1_555
C23 C17 1_555 1_555
H14 C23 1_555 1_555
C24 O7 1_555 1_555
C25 C24 1_555 1_555
C26 O9 1_555 1_555
C27 C26 1_555 1_555
C28 C27 1_555 1_555
C29 C28 1_555 1_555
C30 C25 1_555 1_555
H15 C30 1_555 1_555
C31 C29 1_555 1_555
H16 C31 1_555 1_555
C32 C31 1_555 1_555
H17 C32 1_555 1_555
C33 C32 1_555 1_555
H18 C33 1_555 1_555
C34 C28 1_555 1_555
H19 C34 1_555 1_555
C35 C16 1_555 1_555
H20 C35 1_555 1_555
H21 C35 1_555 1_555
C36 O10 1_555 1_555
H22 C36 1_555 1_555
C37 N1 1_555 1_555
H23 C37 1_555 1_555
H24 C37 1_555 1_555
H25 C37 1_555 1_555
C38 N1 1_555 1_555
H26 C38 1_555 1_555
H27 C38 1_555 1_555
H28 C38 1_555 1_555
O12 C42 1_555 1_555
O13 C42 1_555 1_555
O14 H36 1_555 1_555
C42 C43 1_555 1_555
C43 C44 1_555 1_555
C44 O14 1_555 1_555
C45 C12 1_555 1_555
C46 C45 1_555 1_555
C47 C46 1_555 1_555
C48 C43 1_555 1_555
H37 C48 1_555 1_555
C49 C47 1_555 1_555
H38 C49 1_555 1_555
C50 C49 1_555 1_555
H39 C50 1_555 1_555
C51 C50 1_555 1_555
H40 C51 1_555 1_555
C52 C46 1_555 1_555
H41 C52 1_555 1_555
H42 C12 1_555 1_555
Tb2 O13 1_555 1_555
N3 C76 1_555 1_555
N4 C79 1_555 1_555
O15 C53 1_555 1_555
O16 C53 1_555 1_555
O17 H43 1_555 1_555
O18 Tb2 1_555 1_555
O19 Tb2 1_555 1_555
O20 H44 1_555 1_555
O21 Tb2 1_555 1_555
O22 Tb2 1_555 1_555
C53 C54 1_555 1_555
C54 C55 1_555 1_555
C55 O17 1_555 1_555
C56 C55 1_555 1_555
C57 C56 1_555 1_555
C58 C57 1_555 1_555
C59 C54 1_555 1_555
H45 C59 1_555 1_555
C60 C58 1_555 1_555
H46 C60 1_555 1_555
C61 C60 1_555 1_555
H47 C61 1_555 1_555
C62 C61 1_555 1_555
H48 C62 1_555 1_555
C63 C57 1_555 1_555
H49 C63 1_555 1_555
C64 O18 1_555 1_555
C65 C64 1_555 1_555
C66 O20 1_555 1_555
C67 C66 1_555 1_555
C68 C67 1_555 1_555
C69 C68 1_555 1_555
C70 C65 1_555 1_555
H50 C70 1_555 1_555
C71 C69 1_555 1_555
H51 C71 1_555 1_555
C72 C71 1_555 1_555
H52 C72 1_555 1_555
C73 C72 1_555 1_555
H53 C73 1_555 1_555
C74 C68 1_555 1_555
H54 C74 1_555 1_555
C75 C56 1_555 1_555
H55 C75 1_555 1_555
H56 C75 1_555 1_555
C76 O21 1_555 1_555
H57 C76 1_555 1_555
C77 N3 1_555 1_555
H58 C77 1_555 1_555
H59 C77 1_555 1_555
H60 C77 1_555 1_555
C78 N3 1_555 1_555
H61 C78 1_555 1_555
H62 C78 1_555 1_555
H63 C78 1_555 1_555
C79 O22 1_555 1_555
H64 C79 1_555 1_555
C80 N4 1_555 1_555
H65 C80 1_555 1_555
H66 C80 1_555 1_555
H67 C80 1_555 1_555
C81 N4 1_555 1_555
H68 C81 1_555 1_555
H69 C81 1_555 1_555
H70 C81 1_555 1_555
Tb3 O16 1_555 1_555
Tb4 O5 1_555 1_555
Tb6 O4 1_555 1_555
Tb8 O12 1_555 1_555
O24 Tb2 1_555 1_555
O25 Tb2 1_555 1_555
O27 Tb2 1_555 1_555
O28 Tb1 1_555 1_555
O8 C24 1_555 1_555
C6 C7 1_555 1_555
C10 C11 1_555 1_555
C18 C19 1_555 1_555
C22 C23 1_555 1_555
C25 C26 1_555 1_555
C27 C35 1_555 1_555
C29 C30 1_555 1_555
C33 C34 1_555 1_555
C44 C45 1_555 1_555
C47 C48 1_555 1_555
C51 C52 1_555 1_555
O19 C64 1_555 1_555
C58 C59 1_555 1_555
C62 C63 1_555 1_555
C65 C66 1_555 1_555
C67 C75 1_555 1_555
C69 C70 1_555 1_555
C73 C74 1_555 1_555
N2 C39 1_555 1_555
C39 O11 1_555 1_555
H29 C39 1_555 1_555
C40 N2 1_555 1_555
H30 C40 1_555 1_555
H31 C40 1_555 1_555
H32 C40 1_555 1_555
C41 N2 1_555 1_555
H33 C41 1_555 1_555
H34 C41 1_555 1_555
H35 C41 1_555 1_555
O12_2 C42_2 1_555 1_555
O13_2 C42_2 1_555 1_555
O14_2 H36_2 1_555 1_555
C42_2 C43_2 1_555 1_555
C43_2 C44_2 1_555 1_555
C44_2 O14_2 1_555 1_555
C45_2 C12_2 1_555 1_555
C46_2 C45_2 1_555 1_555
C47_2 C46_2 1_555 1_555
C48_2 C43_2 1_555 1_555
H37_2 C48_2 1_555 1_555
C49_2 C47_2 1_555 1_555
H38_2 C49_2 1_555 1_555
C50_2 C49_2 1_555 1_555
H39_2 C50_2 1_555 1_555
C51_2 C50_2 1_555 1_555
H40_2 C51_2 1_555 1_555
C52_2 C46_2 1_555 1_555
H42_2 C12_2 1_555 1_555
Tb4 O13_2 1_555 1_555
O18_2 Tb4 1_555 1_555
O19_2 Tb4 1_555 1_555
O20_2 H44_2 1_555 1_555
O21_2 Tb4 1_555 1_555
O22_2 Tb4 1_555 1_555
C64_2 O18_2 1_555 1_555
C65_2 C64_2 1_555 1_555
C66_2 O20_2 1_555 1_555
C67_2 C66_2 1_555 1_555
H55_2 C75_2 1_555 1_555
H56_2 C75_2 1_555 1_555
C76_2 O21_2 1_555 1_555
H57_2 C76_2 1_555 1_555
H62_2 C78_2 1_555 1_555
Tb6 O12_2 1_555 1_555
O24_2 Tb4 1_555 1_555
O25_2 Tb4 1_555 1_555
C44_2 C45_2 1_555 1_555
C47_2 C48_2 1_555 1_555
C51_2 C52_2 1_555 1_555
O19_2 C64_2 1_555 1_555
C65_2 C66_2 1_555 1_555
C67_2 C75_2 1_555 1_555
N4_2 C79_2 1_555 1_555
O15_2 C53_2 1_555 1_555
O28 C53_2 1_555 1_555
O17_2 H43_2 1_555 1_555
C53_2 C54_2 1_555 1_555
C54_2 C55_2 1_555 1_555
C55_2 O17_2 1_555 1_555
C56_2 C55_2 1_555 1_555
C57_2 C56_2 1_555 1_555
C58_2 C57_2 1_555 1_555
C59_2 C54_2 1_555 1_555
H45_2 C59_2 1_555 1_555
C60_2 C58_2 1_555 1_555
H46_2 C60_2 1_555 1_555
C61_2 C60_2 1_555 1_555
H47_2 C61_2 1_555 1_555
C62_2 C61_2 1_555 1_555
H48_2 C62_2 1_555 1_555
C63_2 C57_2 1_555 1_555
H49_2 C63_2 1_555 1_555
C69_2 C68_2 1_555 1_555
H50_2 C70_2 1_555 1_555
C71_2 C69_2 1_555 1_555
H51_2 C71_2 1_555 1_555
C72_2 C71_2 1_555 1_555
H52_2 C72_2 1_555 1_555
C73_2 C72_2 1_555 1_555
H53_2 C73_2 1_555 1_555
C74_2 C68_2 1_555 1_555
H54_2 C74_2 1_555 1_555
C77_2 N3_2 1_555 1_555
H58_2 C77_2 1_555 1_555
H59_2 C77_2 1_555 1_555
H60_2 C77_2 1_555 1_555
H64_2 C79_2 1_555 1_555
C80_2 N4_2 1_555 1_555
H65_2 C80_2 1_555 1_555
H66_2 C80_2 1_555 1_555
H67_2 C80_2 1_555 1_555
C81_2 N4_2 1_555 1_555
H68_2 C81_2 1_555 1_555
H69_2 C81_2 1_555 1_555
H70_2 C81_2 1_555 1_555
C58_2 C59_2 1_555 1_555
C62_2 C63_2 1_555 1_555
C69_2 C70_2 1_555 1_555
C73_2 C74_2 1_555 1_555
Tb3 O2_2 1_555 1_555
O1_2 C1_2 1_555 1_555
O2_2 C1_2 1_555 1_555
O3_2 H1_2 1_555 1_555
O7_2 Tb3 1_555 1_555
O8_2 Tb3 1_555 1_555
O9_2 H3_2 1_555 1_555
O10_2 Tb3 1_555 1_555
C1_2 C2_2 1_555 1_555
C2_2 C3_2 1_555 1_555
C3_2 O3_2 1_555 1_555
C4_2 C3_2 1_555 1_555
C5_2 C4_2 1_555 1_555
C6_2 C5_2 1_555 1_555
C7_2 C2_2 1_555 1_555
H4_2 C7_2 1_555 1_555
C8_2 C6_2 1_555 1_555
H5_2 C8_2 1_555 1_555
C9_2 C8_2 1_555 1_555
H6_2 C9_2 1_555 1_555
C10_2 C9_2 1_555 1_555
H7_2 C10_2 1_555 1_555
C11_2 C5_2 1_555 1_555
C12_3 C4_2 1_555 1_555
H9_2 C12_3 1_555 1_555
C24_2 O7_2 1_555 1_555
C25_2 C24_2 1_555 1_555
C26_2 O9_2 1_555 1_555
C27_2 C26_2 1_555 1_555
H20_2 C35_2 1_555 1_555
H21_2 C35_2 1_555 1_555
C36_2 O10_2 1_555 1_555
H22_2 C36_2 1_555 1_555
H27_2 C38_2 1_555 1_555
O8_2 C24_2 1_555 1_555
C6_2 C7_2 1_555 1_555
C10_2 C11_2 1_555 1_555
C25_2 C26_2 1_555 1_555
C27_2 C35_2 1_555 1_555
O4_2 C13_2 1_555 1_555
O27 C13_2 1_555 1_555
O6_2 H2_2 1_555 1_555
C13_2 C14_2 1_555 1_555
C14_2 C15_2 1_555 1_555
C15_2 O6_2 1_555 1_555
C16_2 C15_2 1_555 1_555
C17_2 C16_2 1_555 1_555
C18_2 C17_2 1_555 1_555
C19_2 C14_2 1_555 1_555
H10_2 C19_2 1_555 1_555
C20_2 C18_2 1_555 1_555
H11_2 C20_2 1_555 1_555
C21_2 C20_2 1_555 1_555
H12_2 C21_2 1_555 1_555
C22_2 C21_2 1_555 1_555
H13_2 C22_2 1_555 1_555
C23_2 C17_2 1_555 1_555
H14_2 C23_2 1_555 1_555
C29_2 C28_2 1_555 1_555
H15_2 C30_2 1_555 1_555
C31_2 C29_2 1_555 1_555
H16_2 C31_2 1_555 1_555
C32_2 C31_2 1_555 1_555
H17_2 C32_2 1_555 1_555
C33_2 C32_2 1_555 1_555
H18_2 C33_2 1_555 1_555
C34_2 C28_2 1_555 1_555
H19_2 C34_2 1_555 1_555
C37_2 N1_2 1_555 1_555
H23_2 C37_2 1_555 1_555
H24_2 C37_2 1_555 1_555
H25_2 C37_2 1_555 1_555
Tb8 O4_2 1_555 1_555
C18_2 C19_2 1_555 1_555
C22_2 C23_2 1_555 1_555
C29_2 C30_2 1_555 1_555
C33_2 C34_2 1_555 1_555
N2_2 C39_2 1_555 1_555
C39_2 O11_3 1_555 1_555
H29_2 C39_2 1_555 1_555
C40_2 N2_2 1_555 1_555
H30_2 C40_2 1_555 1_555
H31_2 C40_2 1_555 1_555
H32_2 C40_2 1_555 1_555
C41_2 N2_2 1_555 1_555
H33_2 C41_2 1_555 1_555
H34_2 C41_2 1_555 1_555
H35_2 C41_2 1_555 1_555
Tb5 O2_3 1_555 1_555
N1_3 C36_3 1_555 1_555
O23_2 C1_3 1_555 1_555
O2_3 C1_3 1_555 1_555
O3_3 H1_3 1_555 1_555
O25 C13_3 1_555 1_555
O5_2 C13_3 1_555 1_555
O6_3 H2_3 1_555 1_555
O7_3 Tb5 1_555 1_555
O8_3 Tb5 1_555 1_555
O9_3 H3_3 1_555 1_555
O10_3 Tb5 1_555 1_555
C1_3 C2_3 1_555 1_555
C2_3 C3_3 1_555 1_555
C3_3 O3_3 1_555 1_555
C4_3 C3_3 1_555 1_555
C5_3 C4_3 1_555 1_555
C6_3 C5_3 1_555 1_555
C7_3 C2_3 1_555 1_555
H4_3 C7_3 1_555 1_555
C8_3 C6_3 1_555 1_555
H5_3 C8_3 1_555 1_555
C9_3 C8_3 1_555 1_555
H6_3 C9_3 1_555 1_555
C10_3 C9_3 1_555 1_555
H7_3 C10_3 1_555 1_555
C11_3 C5_3 1_555 1_555
H8_3 C11_3 1_555 1_555
C12_4 C4_3 1_555 1_555
H9_3 C12_4 1_555 1_555
C13_3 C14_3 1_555 1_555
C14_3 C15_3 1_555 1_555
C15_3 O6_3 1_555 1_555
C16_3 C15_3 1_555 1_555
C17_3 C16_3 1_555 1_555
C18_3 C17_3 1_555 1_555
C19_3 C14_3 1_555 1_555
H10_3 C19_3 1_555 1_555
C20_3 C18_3 1_555 1_555
H11_3 C20_3 1_555 1_555
C21_3 C20_3 1_555 1_555
H12_3 C21_3 1_555 1_555
C22_3 C21_3 1_555 1_555
H13_3 C22_3 1_555 1_555
C23_3 C17_3 1_555 1_555
H14_3 C23_3 1_555 1_555
C24_3 O7_3 1_555 1_555
C25_3 C24_3 1_555 1_555
C26_3 O9_3 1_555 1_555
C27_3 C26_3 1_555 1_555
C28_3 C27_3 1_555 1_555
C29_3 C28_3 1_555 1_555
C30_3 C25_3 1_555 1_555
H15_3 C30_3 1_555 1_555
C31_3 C29_3 1_555 1_555
H16_3 C31_3 1_555 1_555
C32_3 C31_3 1_555 1_555
H17_3 C32_3 1_555 1_555
C33_3 C32_3 1_555 1_555
H18_3 C33_3 1_555 1_555
C34_3 C28_3 1_555 1_555
H19_3 C34_3 1_555 1_555
C35_3 C16_3 1_555 1_555
H20_3 C35_3 1_555 1_555
H21_3 C35_3 1_555 1_555
C36_3 O10_3 1_555 1_555
H22_3 C36_3 1_555 1_555
C37_3 N1_3 1_555 1_555
H23_3 C37_3 1_555 1_555
H24_3 C37_3 1_555 1_555
H25_3 C37_3 1_555 1_555
C38_3 N1_3 1_555 1_555
H26_3 C38_3 1_555 1_555
H27_3 C38_3 1_555 1_555
H28_3 C38_3 1_555 1_555
O24_2 C42_3 1_555 1_555
O13_3 C42_3 1_555 1_555
O14_3 H36_3 1_555 1_555
C42_3 C43_3 1_555 1_555
C43_3 C44_3 1_555 1_555
C44_3 O14_3 1_555 1_555
C45_3 C12_4 1_555 1_555
C46_3 C45_3 1_555 1_555
C47_3 C46_3 1_555 1_555
C48_3 C43_3 1_555 1_555
H37_3 C48_3 1_555 1_555
C49_3 C47_3 1_555 1_555
H38_3 C49_3 1_555 1_555
C50_3 C49_3 1_555 1_555
H39_3 C50_3 1_555 1_555
C51_3 C50_3 1_555 1_555
H40_3 C51_3 1_555 1_555
C52_3 C46_3 1_555 1_555
H41_3 C52_3 1_555 1_555
H42_3 C12_4 1_555 1_555
Tb6 O13_3 1_555 1_555
N3_3 C76_3 1_555 1_555
N4_3 C79_3 1_555 1_555
O26 C53_3 1_555 1_555
O16_2 C53_3 1_555 1_555
O17_3 H43_3 1_555 1_555
O18_3 Tb6 1_555 1_555
O19_3 Tb6 1_555 1_555
O20_3 H44_3 1_555 1_555
O21_3 Tb6 1_555 1_555
O22_3 Tb6 1_555 1_555
C53_3 C54_3 1_555 1_555
C54_3 C55_3 1_555 1_555
C55_3 O17_3 1_555 1_555
C56_3 C55_3 1_555 1_555
C57_3 C56_3 1_555 1_555
C58_3 C57_3 1_555 1_555
C59_3 C54_3 1_555 1_555
H45_3 C59_3 1_555 1_555
C60_3 C58_3 1_555 1_555
H46_3 C60_3 1_555 1_555
C61_3 C60_3 1_555 1_555
H47_3 C61_3 1_555 1_555
C62_3 C61_3 1_555 1_555
H48_3 C62_3 1_555 1_555
C63_3 C57_3 1_555 1_555
H49_3 C63_3 1_555 1_555
C64_3 O18_3 1_555 1_555
C65_3 C64_3 1_555 1_555
C66_3 O20_3 1_555 1_555
C67_3 C66_3 1_555 1_555
C68_3 C67_3 1_555 1_555
C69_3 C68_3 1_555 1_555
C70_3 C65_3 1_555 1_555
H50_3 C70_3 1_555 1_555
C71_3 C69_3 1_555 1_555
H51_3 C71_3 1_555 1_555
C72_3 C71_3 1_555 1_555
H52_3 C72_3 1_555 1_555
C73_3 C72_3 1_555 1_555
H53_3 C73_3 1_555 1_555
C74_3 C68_3 1_555 1_555
H54_3 C74_3 1_555 1_555
C75_3 C56_3 1_555 1_555
H55_3 C75_3 1_555 1_555
H56_3 C75_3 1_555 1_555
C76_3 O21_3 1_555 1_555
H57_3 C76_3 1_555 1_555
C77_3 N3_3 1_555 1_555
H58_3 C77_3 1_555 1_555
H59_3 C77_3 1_555 1_555
H60_3 C77_3 1_555 1_555
C78_3 N3_3 1_555 1_555
H61_3 C78_3 1_555 1_555
H62_3 C78_3 1_555 1_555
H63_3 C78_3 1_555 1_555
C79_3 O22_3 1_555 1_555
H64_3 C79_3 1_555 1_555
C80_3 N4_3 1_555 1_555
H65_3 C80_3 1_555 1_555
H66_3 C80_3 1_555 1_555
H67_3 C80_3 1_555 1_555
C81_3 N4_3 1_555 1_555
H68_3 C81_3 1_555 1_555
H69_3 C81_3 1_555 1_555
H70_3 C81_3 1_555 1_555
Tb7 O16_2 1_555 1_555
Tb8 O5_2 1_555 1_555
O27_2 Tb6 1_555 1_555
O28_2 Tb5 1_555 1_555
O8_3 C24_3 1_555 1_555
C6_3 C7_3 1_555 1_555
C10_3 C11_3 1_555 1_555
C18_3 C19_3 1_555 1_555
C22_3 C23_3 1_555 1_555
C25_3 C26_3 1_555 1_555
C27_3 C35_3 1_555 1_555
C29_3 C30_3 1_555 1_555
C33_3 C34_3 1_555 1_555
C44_3 C45_3 1_555 1_555
C47_3 C48_3 1_555 1_555
C51_3 C52_3 1_555 1_555
O19_3 C64_3 1_555 1_555
C58_3 C59_3 1_555 1_555
C62_3 C63_3 1_555 1_555
C65_3 C66_3 1_555 1_555
C67_3 C75_3 1_555 1_555
C69_3 C70_3 1_555 1_555
C73_3 C74_3 1_555 1_555
O25_2 C13_4 1_555 1_555
O27_2 C13_4 1_555 1_555
O6_4 H2_4 1_555 1_555
C13_4 C14_4 1_555 1_555
C14_4 C15_4 1_555 1_555
C15_4 O6_4 1_555 1_555
C16_4 C15_4 1_555 1_555
C17_4 C16_4 1_555 1_555
C18_4 C17_4 1_555 1_555
C19_4 C14_4 1_555 1_555
H10_4 C19_4 1_555 1_555
C20_4 C18_4 1_555 1_555
H11_4 C20_4 1_555 1_555
C21_4 C20_4 1_555 1_555
H12_4 C21_4 1_555 1_555
C22_4 C21_4 1_555 1_555
H13_4 C22_4 1_555 1_555
C23_4 C17_4 1_555 1_555
H14_4 C23_4 1_555 1_555
C29_4 C28_4 1_555 1_555
H15_4 C30_4 1_555 1_555
C31_4 C29_4 1_555 1_555
H16_4 C31_4 1_555 1_555
C32_4 C31_4 1_555 1_555
H17_4 C32_4 1_555 1_555
C33_4 C32_4 1_555 1_555
H18_4 C33_4 1_555 1_555
C34_4 C28_4 1_555 1_555
H19_4 C34_4 1_555 1_555
C37_4 N1_4 1_555 1_555
H23_4 C37_4 1_555 1_555
H24_4 C37_4 1_555 1_555
H25_4 C37_4 1_555 1_555
C18_4 C19_4 1_555 1_555
C22_4 C23_4 1_555 1_555
C29_4 C30_4 1_555 1_555
C33_4 C34_4 1_555 1_555
Tb7 O2_4 1_555 1_555
O23 C1_4 1_555 1_555
O2_4 C1_4 1_555 1_555
O3_4 H1_4 1_555 1_555
O7_4 Tb7 1_555 1_555
O8_4 Tb7 1_555 1_555
O9_4 H3_4 1_555 1_555
O10_4 Tb7 1_555 1_555
C1_4 C2_4 1_555 1_555
C2_4 C3_4 1_555 1_555
C3_4 O3_4 1_555 1_555
C4_4 C3_4 1_555 1_555
C5_4 C4_4 1_555 1_555
C6_4 C5_4 1_555 1_555
C7_4 C2_4 1_555 1_555
H4_4 C7_4 1_555 1_555
C8_4 C6_4 1_555 1_555
H5_4 C8_4 1_555 1_555
C9_4 C8_4 1_555 1_555
H6_4 C9_4 1_555 1_555
C10_4 C9_4 1_555 1_555
H7_4 C10_4 1_555 1_555
C11_4 C5_4 1_555 1_555
C12_5 C4_4 1_555 1_555
H9_4 C12_5 1_555 1_555
C24_4 O7_4 1_555 1_555
C25_4 C24_4 1_555 1_555
C26_4 O9_4 1_555 1_555
C27_4 C26_4 1_555 1_555
H20_4 C35_4 1_555 1_555
H21_4 C35_4 1_555 1_555
C36_4 O10_4 1_555 1_555
H22_4 C36_4 1_555 1_555
H27_4 C38_4 1_555 1_555
O8_4 C24_4 1_555 1_555
C6_4 C7_4 1_555 1_555
C10_4 C11_4 1_555 1_555
C25_4 C26_4 1_555 1_555
C27_4 C35_4 1_555 1_555
N4_4 C79_4 1_555 1_555
O26_2 C53_4 1_555 1_555
O28_2 C53_4 1_555 1_555
O17_4 H43_4 1_555 1_555
C53_4 C54_4 1_555 1_555
C54_4 C55_4 1_555 1_555
C55_4 O17_4 1_555 1_555
C56_4 C55_4 1_555 1_555
C57_4 C56_4 1_555 1_555
C58_4 C57_4 1_555 1_555
C59_4 C54_4 1_555 1_555
H45_4 C59_4 1_555 1_555
C60_4 C58_4 1_555 1_555
H46_4 C60_4 1_555 1_555
C61_4 C60_4 1_555 1_555
H47_4 C61_4 1_555 1_555
C62_4 C61_4 1_555 1_555
H48_4 C62_4 1_555 1_555
C63_4 C57_4 1_555 1_555
H49_4 C63_4 1_555 1_555
C69_4 C68_4 1_555 1_555
H50_4 C70_4 1_555 1_555
C71_4 C69_4 1_555 1_555
H51_4 C71_4 1_555 1_555
C72_4 C71_4 1_555 1_555
H52_4 C72_4 1_555 1_555
C73_4 C72_4 1_555 1_555
H53_4 C73_4 1_555 1_555
C74_4 C68_4 1_555 1_555
H54_4 C74_4 1_555 1_555
C77_4 N3_4 1_555 1_555
H58_4 C77_4 1_555 1_555
H59_4 C77_4 1_555 1_555
H60_4 C77_4 1_555 1_555
H64_4 C79_4 1_555 1_555
C80_4 N4_4 1_555 1_555
H65_4 C80_4 1_555 1_555
H66_4 C80_4 1_555 1_555
H67_4 C80_4 1_555 1_555
C81_4 N4_4 1_555 1_555
H68_4 C81_4 1_555 1_555
H69_4 C81_4 1_555 1_555
H70_4 C81_4 1_555 1_555
C58_4 C59_4 1_555 1_555
C62_4 C63_4 1_555 1_555
C69_4 C70_4 1_555 1_555
C73_4 C74_4 1_555 1_555
O24 C42_4 1_555 1_555
O13_4 C42_4 1_555 1_555
O14_4 H36_4 1_555 1_555
C42_4 C43_4 1_555 1_555
C43_4 C44_4 1_555 1_555
C44_4 O14_4 1_555 1_555
C45_4 C12_6 1_555 1_555
C46_4 C45_4 1_555 1_555
C47_4 C46_4 1_555 1_555
C48_4 C43_4 1_555 1_555
H37_4 C48_4 1_555 1_555
C49_4 C47_4 1_555 1_555
H38_4 C49_4 1_555 1_555
C50_4 C49_4 1_555 1_555
H39_4 C50_4 1_555 1_555
C51_4 C50_4 1_555 1_555
H40_4 C51_4 1_555 1_555
C52_4 C46_4 1_555 1_555
H42_4 C12_6 1_555 1_555
Tb8 O13_4 1_555 1_555
O18_4 Tb8 1_555 1_555
O19_4 Tb8 1_555 1_555
O20_4 H44_4 1_555 1_555
O21_4 Tb8 1_555 1_555
O22_4 Tb8 1_555 1_555
C64_4 O18_4 1_555 1_555
C65_4 C64_4 1_555 1_555
C66_4 O20_4 1_555 1_555
C67_4 C66_4 1_555 1_555
H55_4 C75_4 1_555 1_555
H56_4 C75_4 1_555 1_555
C76_4 O21_4 1_555 1_555
H57_4 C76_4 1_555 1_555
H62_4 C78_4 1_555 1_555
C44_4 C45_4 1_555 1_555
C47_4 C48_4 1_555 1_555
C51_4 C52_4 1_555 1_555
O19_4 C64_4 1_555 1_555
C65_4 C66_4 1_555 1_555
C67_4 C75_4 1_555 1_555
N2_3 C39_3 1_555 1_555
H29_3 C39_3 1_555 1_555
C40_3 N2_3 1_555 1_555
H30_3 C40_3 1_555 1_555
H31_3 C40_3 1_555 1_555
H32_3 C40_3 1_555 1_555
C41_3 N2_3 1_555 1_555
H33_3 C41_3 1_555 1_555
H34_3 C41_3 1_555 1_555
H35_3 C41_3 1_555 1_555
N2_4 C39_4 1_555 1_555
H29_4 C39_4 1_555 1_555
C40_4 N2_4 1_555 1_555
H30_4 C40_4 1_555 1_555
H31_4 C40_4 1_555 1_555
H32_4 C40_4 1_555 1_555
C41_4 N2_4 1_555 1_555
H33_4 C41_4 1_555 1_555
H34_4 C41_4 1_555 1_555
H35_4 C41_4 1_555 1_555

#END
