
###############################################################################
#
# This file contains modified crystal structure data generated from the
# MOF subset of the Cambridge Structural Database (CSD) v543 
# hosted by the Cambridge Crystallographic Data Centre (CCDC).
#
# This work is licensed under the Creative Commons
# Attribution-NonCommercial-ShareAlike 4.0 International License.
# To view a copy of this license, visit
# http://creativecommons.org/licenses/by-nc-sa/4.0/
# or send a letter to
# Creative Commons, PO Box 1866, Mountain View, CA 94042, USA.
#
# CIF created using the CSD Python API on 29 September 2022
# The structure has been converted into the P1 space group
# The structure has a 3D framework
# The original CSD entry DEWQUS is in the orthorhombic crystal system
# The framework has been calculated to contain at least 10.0% void space
# The void calculation uses a probe of radius 1.32A, grid spacing 0.4
# The framework is charged, counterions have been retained in the structure
# H atom positions have been added when not included in the experimental data
# Generated hydrogen atom positions removed from atoms on special positions
#
###############################################################################

data_DEWQUS
_chemical_formula_moiety         '(C160 H248 Co21 Mo48 N32 O264 P32)n'
_symmetry_cell_setting           triclinic
_symmetry_space_group_name_H-M   'P 1'
_symmetry_Int_Tables_number      1
_space_group_name_Hall           'P 1'
loop_
_symmetry_equiv_pos_site_id
_symmetry_equiv_pos_as_xyz
1 x,y,z
_cell_length_a                   27.644(6)
_cell_length_b                   16.017(3)
_cell_length_c                   22.902(5)
_cell_angle_alpha                90
_cell_angle_beta                 90
_cell_angle_gamma                90
_cell_volume                     10140.4
loop_
_atom_site_label
_atom_site_type_symbol
_atom_site_fract_x
_atom_site_fract_y
_atom_site_fract_z
Co1 Co 0.0000 0.0000 0.5000
O6 O 0.09734(13) 0.0369(2) 0.32308(15)
O7 O 0.05796(12) 0.0401(2) 0.43997(14)
O12 O 0.16057(13) 0.0260(2) 0.42250(17)
O15 O 0.09839(13) 0.1891(2) 0.39073(18)
O31 O 0.03942(13) 0.1689(2) 0.29184(16)
Mo3 Mo 0.060092(15) 0.11389(3) 0.370137(18)
P6 P 0.13133(4) 0.21910(8) 0.65649(5)
P8 P 0.00210(4) 0.06626(8) 0.65993(5)
O41 O 0.09850(12) 0.1241(2) 0.53410(14)
O47 O 0.09601(13) 0.2549(2) 0.61198(16)
O51 O 0.10616(15) 0.2198(3) 0.71843(18)
O52 O 0.00630(12) 0.0826(3) 0.72614(16)
O55 O 0.14261(12) 0.1269(2) 0.64461(15)
O57 O 0.05162(13) 0.2753(2) 0.50235(16)
O64 O 0.17671(13) 0.2707(2) 0.65887(16)
O67 O 0.04529(12) 0.1047(2) 0.62784(14)
Mo11 Mo 0.110942(13) 0.03142(3) 0.596298(17)
Mo12 Mo 0.044320(14) 0.20780(2) 0.557295(17)
Co5 Co 0.2500 0.2500 0.65730(4)
H31 H 0.0187842 0.173386 0.176624
H36 H 0.0369533 0.0581961 0.740961
Co1_2 Co 0.0000 1.0000 0.5000
P3 P 0.13316(4) 0.79691(8) 0.33476(5)
O1 O 0.24633(15) 0.8873(3) 0.3366(2)
O5 O 0.00193(10) 0.7397(2) 0.39100(17)
O13 O 0.00206(9) 0.8727(2) 0.47609(15)
O16 O 0.06337(13) 0.7332(2) 0.49196(16)
O17 O 0.10107(12) 0.8877(2) 0.45839(15)
O20 O 0.09760(13) 0.7574(2) 0.37778(16)
O21 O 0.10994(15) 0.7976(3) 0.27230(18)
O23 O 0.14463(12) 0.8881(2) 0.35071(16)
O26 O 0.04458(11) 0.8992(2) 0.36594(14)
O29 O 0.17781(12) 0.7448(2) 0.33132(16)
Mo1 Mo 0.049380(14) 0.79852(2) 0.438154(17)
Mo2 Mo 0.109863(14) 0.98202(3) 0.396567(18)
C7 C 0.2173(3) 0.7077(5) 0.2088(3)
H5 H 0.1938 0.6781 0.2292
C8 C 0.2165(3) 0.7057(6) 0.1481(3)
H6 H 0.1933 0.6741 0.1288
C9 C 0.2500 0.7500 0.1165(3)
C11 C 0.2109(2) 0.7208(6) 0.0200(3)
H8 H 0.1839 0.6993 0.0390
C12 C 0.2500 0.7500 0.0519(3)
N3 N 0.2500 0.7500 0.2386(3)
Co3 Co 0.2500 0.7500 0.33347(4)
P5 P 0.00874(5) 0.81194(9) 0.73753(6)
O34 O 0.25367(15) 0.6127(3) 0.3366(2)
O35 O 0.10382(12) 0.9755(2) 0.67022(15)
O37 O 0.06001(12) 0.9673(2) 0.55564(14)
O42 O 0.00262(10) 0.9713(2) 0.65312(16)
O43 O 0.16251(13) 0.9936(2) 0.56848(17)
O44 O 0.10654(13) 0.8222(2) 0.60330(17)
O58 O 0.00438(11) 0.8322(2) 0.59899(16)
O60 O 0.01897(16) 0.7203(2) 0.7438(2)
O61 O 0.05200(13) 0.8509(2) 0.70677(16)
O63 O 0.32219(12) 0.7552(2) 0.33132(16)
O68 O 0.00713(16) 0.8532(3) 0.7998(2)
Mo10 Mo 0.067073(14) 0.89503(2) 0.625630(17)
C17 C 0.2827(3) 0.7923(5) 0.2088(3)
H13 H 0.3062 0.8219 0.2292
C18 C 0.2835(3) 0.7943(6) 0.1481(3)
H14 H 0.3067 0.8259 0.1288
C20 C 0.2891(2) 0.7792(6) 0.0200(3)
H16 H 0.3161 0.8007 0.0390
N6 N 0.2500 0.7500 0.4295(3)
H29 H 0.0215115 0.943581 0.253421
H37 H 0.0488473 0.712369 0.767223
H38 H 0.0387868 0.845218 0.819515
C10 C 0.2124(2) 0.7239(6) 0.9597(3)
H7 H 0.1851 0.7065 0.9391
N4 N 0.2500 0.7500 0.9295(3)
C19 C 0.2876(2) 0.7761(6) 0.9597(3)
H15 H 0.3149 0.7935 0.9391
Co6 Co 0.2500 0.7500 0.83347(4)
Co1_3 Co 1.0000 0.0000 0.5000
P1 P 0.99126(5) 0.18806(9) 0.26247(6)
O2 O 0.89618(12) 0.0245(2) 0.32978(15)
O4 O 0.93999(12) 0.0327(2) 0.44436(14)
O9 O 0.99738(10) 0.0287(2) 0.34688(16)
O10 O 0.83749(13) 0.0064(2) 0.43152(17)
O11 O 0.89346(13) 0.1778(2) 0.39670(17)
O25 O 0.99562(11) 0.1678(2) 0.40101(16)
O27 O 0.98103(16) 0.2797(2) 0.2562(2)
O28 O 0.94800(13) 0.1491(2) 0.29323(16)
O33 O 0.99287(16) 0.1468(3) 0.2002(2)
Mo4 Mo 0.932927(14) 0.10497(2) 0.374370(17)
P7 P 0.86684(4) 0.20309(8) 0.66524(5)
O38 O 0.99807(10) 0.2603(2) 0.60900(17)
O46 O 0.99794(9) 0.1273(2) 0.52391(15)
O49 O 0.93663(13) 0.2668(2) 0.50804(16)
O50 O 0.89893(12) 0.1123(2) 0.54161(15)
O53 O 0.90240(13) 0.2426(2) 0.62222(16)
O54 O 0.89006(15) 0.2024(3) 0.72770(18)
O56 O 0.85537(12) 0.1119(2) 0.64929(16)
O59 O 0.95542(11) 0.1008(2) 0.63406(14)
O62 O 0.82219(12) 0.2552(2) 0.66868(16)
Mo7 Mo 0.950620(14) 0.20148(2) 0.561846(17)
Mo8 Mo 0.890137(14) 0.01798(3) 0.603433(18)
Co7 Co 0.7500 0.2500 0.66653(4)
H30 H 0.976541 0.304842 0.295461
Co1_4 Co 1.0000 1.0000 0.5000
P2 P 0.86867(4) 0.78090(8) 0.34351(5)
P4 P 0.99790(4) 0.93374(8) 0.34007(5)
O3 O 0.75855(13) 0.8848(2) 0.34344(16)
O8 O 0.90150(12) 0.8759(2) 0.46590(14)
O14 O 0.90399(13) 0.7451(2) 0.38802(16)
O18 O 0.89384(15) 0.7802(3) 0.28157(18)
O19 O 0.99370(12) 0.9174(3) 0.27386(16)
O22 O 0.85739(12) 0.8731(2) 0.35539(15)
O24 O 0.94838(13) 0.7247(2) 0.49765(16)
O30 O 0.82329(13) 0.7293(2) 0.34113(16)
O32 O 0.95471(12) 0.8953(2) 0.37216(14)
Mo5 Mo 0.889058(13) 0.96858(3) 0.403702(17)
Mo6 Mo 0.955680(14) 0.79220(2) 0.442705(17)
C1 C 0.7774(3) 0.6977(5) 0.2183(3)
H1 H 0.7970 0.6606 0.2386
C2 C 0.7782(3) 0.6960(5) 0.1575(3)
H2 H 0.7979 0.6580 0.1382
C3 C 0.7500 0.7500 0.1261(3)
C5 C 0.7859(2) 0.7102(4) 0.0290(2)
H4 H 0.8109 0.6826 0.0482
C6 C 0.7500 0.7500 0.0608(3)
N1 N 0.7500 0.7500 0.2484(3)
Co2 Co 0.7500 0.7500 0.34270(4)
O36 O 0.74145(13) 0.6152(2) 0.34344(16)
O39 O 0.90266(13) 0.9631(2) 0.67692(15)
O40 O 0.94204(12) 0.9599(2) 0.56003(14)
O45 O 0.83943(13) 0.9740(2) 0.57750(17)
O48 O 0.90161(13) 0.8109(2) 0.60927(18)
O65 O 0.67671(13) 0.7707(2) 0.34113(16)
O66 O 0.96058(13) 0.8311(2) 0.70816(16)
Mo9 Mo 0.939908(15) 0.88611(3) 0.629863(18)
C13 C 0.7226(3) 0.8023(5) 0.2183(3)
H9 H 0.7030 0.8394 0.2386
C14 C 0.7218(3) 0.8040(5) 0.1575(3)
H10 H 0.7021 0.8420 0.1382
C16 C 0.7141(2) 0.7898(4) 0.0290(2)
H12 H 0.6891 0.8174 0.0482
N5 N 0.7500 0.7500 0.4382(3)
C4 C 0.7844(2) 0.7117(4) 0.9693(2)
H3 H 0.8089 0.6843 0.9490
N2 N 0.7500 0.7500 0.9382(3)
C15 C 0.7156(2) 0.7883(4) 0.9693(2)
H11 H 0.6911 0.8157 0.9490
Co4 Co 0.7500 0.7500 0.84270(4)
Co1_5 Co 0.5000 0.5000 0.5000
P1_2 P 0.50874(5) 0.31194(9) 0.26247(6)
P2_2 P 0.63133(4) 0.71910(8) 0.34351(5)
P3_2 P 0.36684(4) 0.70309(8) 0.33476(5)
P4_2 P 0.50210(4) 0.56626(8) 0.34007(5)
O2_2 O 0.60382(12) 0.4755(2) 0.32978(15)
O4_2 O 0.56001(12) 0.4673(2) 0.44436(14)
O5_2 O 0.49807(10) 0.7603(2) 0.39100(17)
O6_2 O 0.40266(13) 0.4631(2) 0.32308(15)
O7_2 O 0.44204(12) 0.4599(2) 0.43997(14)
O8_2 O 0.59850(12) 0.6241(2) 0.46590(14)
O9_2 O 0.50262(10) 0.4713(2) 0.34688(16)
O10_2 O 0.66251(13) 0.4936(2) 0.43152(17)
O11_2 O 0.60654(13) 0.3222(2) 0.39670(17)
O12_2 O 0.33943(13) 0.4740(2) 0.42250(17)
O13_2 O 0.49794(9) 0.6273(2) 0.47609(15)
O14_2 O 0.59601(13) 0.7549(2) 0.38802(16)
O15_2 O 0.40161(13) 0.3109(2) 0.39073(18)
O16_2 O 0.43663(13) 0.7668(2) 0.49196(16)
O17_2 O 0.39893(12) 0.6123(2) 0.45839(15)
O18_2 O 0.60616(15) 0.7198(3) 0.28157(18)
O19_2 O 0.50630(12) 0.5826(3) 0.27386(16)
O20_2 O 0.40240(13) 0.7426(2) 0.37778(16)
O21_2 O 0.39006(15) 0.7024(3) 0.27230(18)
O22_2 O 0.64261(12) 0.6269(2) 0.35539(15)
O23_2 O 0.35537(12) 0.6119(2) 0.35071(16)
O24_2 O 0.55162(13) 0.7753(2) 0.49765(16)
O25_2 O 0.50438(11) 0.3322(2) 0.40101(16)
O26_2 O 0.45542(11) 0.6008(2) 0.36594(14)
O27_2 O 0.51897(16) 0.2203(2) 0.2562(2)
O28_2 O 0.55200(13) 0.3509(2) 0.29323(16)
O31_2 O 0.46058(13) 0.3311(2) 0.29184(16)
O32_2 O 0.54529(12) 0.6047(2) 0.37216(14)
O33_2 O 0.50713(16) 0.3532(3) 0.2002(2)
Mo1_2 Mo 0.450620(14) 0.70148(2) 0.438154(17)
Mo2_2 Mo 0.390137(14) 0.51798(3) 0.396567(18)
Mo3_2 Mo 0.439908(15) 0.38611(3) 0.370137(18)
Mo4_2 Mo 0.567073(14) 0.39503(2) 0.374370(17)
Mo5_2 Mo 0.610942(13) 0.53142(3) 0.403702(17)
Mo6_2 Mo 0.544320(14) 0.70780(2) 0.442705(17)
P5_2 P 0.49126(5) 0.68806(9) 0.73753(6)
P6_2 P 0.36867(4) 0.28090(8) 0.65649(5)
P7_2 P 0.63316(4) 0.29691(8) 0.66524(5)
P8_2 P 0.49790(4) 0.43374(8) 0.65993(5)
O35_2 O 0.39618(12) 0.5245(2) 0.67022(15)
O37_2 O 0.43999(12) 0.5327(2) 0.55564(14)
O38_2 O 0.50193(10) 0.2397(2) 0.60900(17)
O39_2 O 0.59734(13) 0.5369(2) 0.67692(15)
O40_2 O 0.55796(12) 0.5401(2) 0.56003(14)
O41_2 O 0.40150(12) 0.3759(2) 0.53410(14)
O42_2 O 0.49738(10) 0.5287(2) 0.65312(16)
O43_2 O 0.33749(13) 0.5064(2) 0.56848(17)
O44_2 O 0.39346(13) 0.6778(2) 0.60330(17)
O45_2 O 0.66057(13) 0.5260(2) 0.57750(17)
O46_2 O 0.50206(9) 0.3727(2) 0.52391(15)
O47_2 O 0.40399(13) 0.2451(2) 0.61198(16)
O48_2 O 0.59839(13) 0.6891(2) 0.60927(18)
O49_2 O 0.56337(13) 0.2332(2) 0.50804(16)
O50_2 O 0.60107(12) 0.3877(2) 0.54161(15)
O51_2 O 0.39384(15) 0.2802(3) 0.71843(18)
O52_2 O 0.49370(12) 0.4174(3) 0.72614(16)
O53_2 O 0.59760(13) 0.2574(2) 0.62222(16)
O54_2 O 0.60994(15) 0.2976(3) 0.72770(18)
O55_2 O 0.35739(12) 0.3731(2) 0.64461(15)
O56_2 O 0.64463(12) 0.3881(2) 0.64929(16)
O57_2 O 0.44838(13) 0.2247(2) 0.50235(16)
O58_2 O 0.49562(11) 0.6678(2) 0.59899(16)
O59_2 O 0.54458(11) 0.3992(2) 0.63406(14)
O60_2 O 0.48103(16) 0.7797(2) 0.7438(2)
O61_2 O 0.44800(13) 0.6491(2) 0.70677(16)
O62_2 O 0.67781(12) 0.2448(2) 0.66868(16)
O64_2 O 0.32329(13) 0.2293(2) 0.65887(16)
O66_2 O 0.53942(13) 0.6689(2) 0.70816(16)
O67_2 O 0.45471(12) 0.3953(2) 0.62784(14)
O68_2 O 0.49287(16) 0.6468(3) 0.7998(2)
Mo7_2 Mo 0.549380(14) 0.29852(2) 0.561846(17)
Mo8_2 Mo 0.609863(14) 0.48202(3) 0.603433(18)
Mo9_2 Mo 0.560092(15) 0.61389(3) 0.629863(18)
Mo10_2 Mo 0.432927(14) 0.60497(2) 0.625630(17)
Mo11_2 Mo 0.389058(13) 0.46858(3) 0.596298(17)
Mo12_2 Mo 0.455680(14) 0.29220(2) 0.557295(17)
H29_2 H 0.478489 0.556419 0.253421
H30_2 H 0.523459 0.195158 0.295461
H31_2 H 0.481216 0.326614 0.176624
H36_2 H 0.463047 0.441804 0.740961
H37_2 H 0.451153 0.787631 0.767223
H38_2 H 0.461213 0.654782 0.819515
Co1_6 Co -0.0000 0.5000 0.0000
P1_3 P 0.00874(5) 0.68806(9) 0.23753(6)
P2_3 P 0.13133(4) 0.28090(8) 0.15649(5)
P4_3 P 0.00210(4) 0.43374(8) 0.15993(5)
O2_3 O 0.10382(12) 0.5245(2) 0.17022(15)
O3_2 O 0.24145(13) 0.3848(2) 0.15656(16)
O4_3 O 0.06001(12) 0.5327(2) 0.05564(14)
O8_3 O 0.09850(12) 0.3759(2) 0.03410(14)
O9_3 O 0.00262(10) 0.5287(2) 0.15312(16)
O10_3 O 0.16251(13) 0.5064(2) 0.06848(17)
O11_3 O 0.10654(13) 0.6778(2) 0.10330(17)
O14_3 O 0.09601(13) 0.2451(2) 0.11198(16)
O18_3 O 0.10616(15) 0.2802(3) 0.21843(18)
O19_3 O 0.00630(12) 0.4174(3) 0.22614(16)
O22_3 O 0.14261(12) 0.3731(2) 0.14461(15)
O24_3 O 0.05162(13) 0.2247(2) 0.00235(16)
O25_3 O 0.00438(11) 0.6678(2) 0.09899(16)
O27_3 O 0.01897(16) 0.7797(2) 0.2438(2)
O28_3 O 0.05200(13) 0.6491(2) 0.20677(16)
O30_2 O 0.17671(13) 0.2293(2) 0.15887(16)
O32_3 O 0.04529(12) 0.3953(2) 0.12784(14)
O33_3 O 0.00713(16) 0.6468(3) 0.2998(2)
Mo4_3 Mo 0.067073(14) 0.60497(2) 0.125630(17)
Mo5_3 Mo 0.110942(13) 0.46858(3) 0.096298(17)
Mo6_3 Mo 0.044320(14) 0.29220(2) 0.057295(17)
C1_2 C 0.2226(3) 0.1977(5) 0.2817(3)
H1_2 H 0.2030 0.1606 0.2614
C2_2 C 0.2218(3) 0.1960(5) 0.3425(3)
H2_2 H 0.2021 0.1580 0.3618
C3_2 C 0.2500 0.2500 0.3739(3)
C4_2 C 0.2156(2) 0.2117(4) 0.5307(2)
H3_2 H 0.1911 0.1843 0.5510
C5_2 C 0.2141(2) 0.2102(4) 0.4710(2)
H4_2 H 0.1891 0.1826 0.4518
C6_2 C 0.2500 0.2500 0.4392(3)
N1_2 N 0.2500 0.2500 0.2516(3)
N2_2 N 0.2500 0.2500 0.5618(3)
Co2_2 Co 0.2500 0.2500 0.15730(4)
O36_2 O 0.25855(13) 0.1152(2) 0.15656(16)
O65_2 O 0.32329(13) 0.2707(2) 0.15887(16)
C13_2 C 0.2774(3) 0.3023(5) 0.2817(3)
H9_2 H 0.2970 0.3394 0.2614
C14_2 C 0.2782(3) 0.3040(5) 0.3425(3)
H10_2 H 0.2979 0.3420 0.3618
C15_2 C 0.2844(2) 0.2883(4) 0.5307(2)
H11_2 H 0.3089 0.3157 0.5510
C16_2 C 0.2859(2) 0.2898(4) 0.4710(2)
H12_2 H 0.3109 0.3174 0.4518
N5_2 N 0.2500 0.2500 0.0618(3)
H30_3 H 0.0234592 0.804842 0.204539
Co1_7 Co -0.0000 0.5000 1.0000
P7_3 P 0.13316(4) 0.70309(8) 0.83476(5)
O38_3 O 0.00193(10) 0.7603(2) 0.89100(17)
O39_3 O 0.09734(13) 0.4631(2) 0.82308(15)
O40_3 O 0.05796(12) 0.4599(2) 0.93997(14)
O45_3 O 0.16057(13) 0.4740(2) 0.92250(17)
O46_3 O 0.00206(9) 0.6273(2) 0.97609(15)
O48_3 O 0.09839(13) 0.3109(2) 0.89073(18)
O49_3 O 0.06337(13) 0.7668(2) 0.99196(16)
O50_3 O 0.10107(12) 0.6123(2) 0.95839(15)
O53_3 O 0.09760(13) 0.7426(2) 0.87778(16)
O54_3 O 0.10994(15) 0.7024(3) 0.77230(18)
O56_3 O 0.14463(12) 0.6119(2) 0.85071(16)
O59_3 O 0.04458(11) 0.6008(2) 0.86594(14)
O62_3 O 0.17781(12) 0.7552(2) 0.83132(16)
O66_3 O 0.03942(13) 0.3311(2) 0.79184(16)
Mo7_3 Mo 0.049380(14) 0.70148(2) 0.938154(17)
Mo8_3 Mo 0.109863(14) 0.51798(3) 0.896567(18)
Mo9_3 Mo 0.060092(15) 0.38611(3) 0.870137(18)
Co1_8 Co 1.0000 0.5000 0.0000
P3_3 P 0.86684(4) 0.29691(8) 0.16524(5)
O1_2 O 0.75367(15) 0.3873(3) 0.1634(2)
O5_3 O 0.99807(10) 0.2397(2) 0.10900(17)
O6_3 O 0.90266(13) 0.5369(2) 0.17692(15)
O7_3 O 0.94204(12) 0.5401(2) 0.06003(14)
O12_3 O 0.83943(13) 0.5260(2) 0.07750(17)
O13_3 O 0.99794(9) 0.3727(2) 0.02391(15)
O15_3 O 0.90161(13) 0.6891(2) 0.10927(18)
O16_3 O 0.93663(13) 0.2332(2) 0.00804(16)
O17_3 O 0.89893(12) 0.3877(2) 0.04161(15)
O20_3 O 0.90240(13) 0.2574(2) 0.12222(16)
O21_3 O 0.89006(15) 0.2976(3) 0.22770(18)
O23_3 O 0.85537(12) 0.3881(2) 0.14929(16)
O26_3 O 0.95542(11) 0.3992(2) 0.13406(14)
O29_2 O 0.82219(12) 0.2448(2) 0.16868(16)
O31_3 O 0.96058(13) 0.6689(2) 0.20816(16)
Mo1_3 Mo 0.950620(14) 0.29852(2) 0.061846(17)
Mo2_3 Mo 0.890137(14) 0.48202(3) 0.103433(18)
Mo3_3 Mo 0.939908(15) 0.61389(3) 0.129863(18)
C7_2 C 0.7827(3) 0.2077(5) 0.2912(3)
H5_2 H 0.8062 0.1781 0.2708
C8_2 C 0.7835(3) 0.2057(6) 0.3519(3)
H6_2 H 0.8067 0.1741 0.3712
C9_2 C 0.7500 0.2500 0.3835(3)
C10_2 C 0.7876(2) 0.2239(6) 0.5403(3)
H7_2 H 0.8149 0.2065 0.5609
C11_2 C 0.7891(2) 0.2208(6) 0.4800(3)
H8_2 H 0.8161 0.1993 0.4610
C12_2 C 0.7500 0.2500 0.4481(3)
N3_2 N 0.7500 0.2500 0.2614(3)
N4_2 N 0.7500 0.2500 0.5705(3)
Co3_2 Co 0.7500 0.2500 0.16653(4)
O34_2 O 0.74633(15) 0.1127(3) 0.1634(2)
O63_2 O 0.67781(12) 0.2552(2) 0.16868(16)
C17_2 C 0.7173(3) 0.2923(5) 0.2912(3)
H13_2 H 0.6938 0.3219 0.2708
C18_2 C 0.7165(3) 0.2943(6) 0.3519(3)
H14_2 H 0.6933 0.3259 0.3712
C19_2 C 0.7124(2) 0.2761(6) 0.5403(3)
H15_2 H 0.6851 0.2935 0.5609
C20_2 C 0.7109(2) 0.2792(6) 0.4800(3)
H16_2 H 0.6839 0.3007 0.4610
N6_2 N 0.7500 0.2500 0.0705(3)
H29_3 H 0.978489 0.443581 0.246579
H31_3 H 0.981216 0.673386 0.323376
Co1_9 Co 1.0000 0.5000 1.0000
P5_3 P 0.99126(5) 0.31194(9) 0.76247(6)
P6_3 P 0.86867(4) 0.71910(8) 0.84351(5)
P8_3 P 0.99790(4) 0.56626(8) 0.84007(5)
O35_3 O 0.89618(12) 0.4755(2) 0.82978(15)
O37_3 O 0.93999(12) 0.4673(2) 0.94436(14)
O41_3 O 0.90150(12) 0.6241(2) 0.96590(14)
O42_3 O 0.99738(10) 0.4713(2) 0.84688(16)
O43_3 O 0.83749(13) 0.4936(2) 0.93152(17)
O44_3 O 0.89346(13) 0.3222(2) 0.89670(17)
O47_3 O 0.90399(13) 0.7549(2) 0.88802(16)
O51_3 O 0.89384(15) 0.7198(3) 0.78157(18)
O52_3 O 0.99370(12) 0.5826(3) 0.77386(16)
O55_3 O 0.85739(12) 0.6269(2) 0.85539(15)
O57_3 O 0.94838(13) 0.7753(2) 0.99765(16)
O58_3 O 0.99562(11) 0.3322(2) 0.90101(16)
O60_3 O 0.98103(16) 0.2203(2) 0.7562(2)
O61_3 O 0.94800(13) 0.3509(2) 0.79323(16)
O64_3 O 0.82329(13) 0.7707(2) 0.84113(16)
O67_3 O 0.95471(12) 0.6047(2) 0.87216(14)
O68_3 O 0.99287(16) 0.3532(3) 0.7002(2)
Mo10_3 Mo 0.932927(14) 0.39503(2) 0.874370(17)
Mo11_3 Mo 0.889058(13) 0.53142(3) 0.903702(17)
Mo12_3 Mo 0.955680(14) 0.70780(2) 0.942705(17)
H36_3 H 0.963047 0.558196 0.759039
H37_3 H 0.951153 0.212369 0.732777
H38_3 H 0.961213 0.345218 0.680485
Co1_10 Co 0.5000 0.0000 0.0000
P2_4 P 0.36867(4) 0.21910(8) 0.15649(5)
P3_4 P 0.63316(4) 0.20309(8) 0.16524(5)
P4_4 P 0.49790(4) 0.06626(8) 0.15993(5)
O5_4 O 0.50193(10) 0.2603(2) 0.10900(17)
O8_4 O 0.40150(12) 0.1241(2) 0.03410(14)
O13_4 O 0.50206(9) 0.1273(2) 0.02391(15)
O14_4 O 0.40399(13) 0.2549(2) 0.11198(16)
O16_4 O 0.56337(13) 0.2668(2) 0.00804(16)
O17_4 O 0.60107(12) 0.1123(2) 0.04161(15)
O18_4 O 0.39384(15) 0.2198(3) 0.21843(18)
O19_4 O 0.49370(12) 0.0826(3) 0.22614(16)
O20_4 O 0.59760(13) 0.2426(2) 0.12222(16)
O21_4 O 0.60994(15) 0.2024(3) 0.22770(18)
O22_4 O 0.35739(12) 0.1269(2) 0.14461(15)
O23_4 O 0.64463(12) 0.1119(2) 0.14929(16)
O24_4 O 0.44838(13) 0.2753(2) 0.00235(16)
O26_4 O 0.54458(11) 0.1008(2) 0.13406(14)
O32_4 O 0.45471(12) 0.1047(2) 0.12784(14)
Mo1_4 Mo 0.549380(14) 0.20148(2) 0.061846(17)
Mo2_4 Mo 0.609863(14) 0.01798(3) 0.103433(18)
Mo5_4 Mo 0.389058(13) 0.03142(3) 0.096298(17)
Mo6_4 Mo 0.455680(14) 0.20780(2) 0.057295(17)
H29_4 H 0.521511 0.0564187 0.246579
Co1_11 Co 0.5000 1.0000 1.0000
P6_4 P 0.63133(4) 0.78090(8) 0.84351(5)
P7_4 P 0.36684(4) 0.79691(8) 0.83476(5)
P8_4 P 0.50210(4) 0.93374(8) 0.84007(5)
O38_4 O 0.49807(10) 0.7397(2) 0.89100(17)
O41_4 O 0.59850(12) 0.8759(2) 0.96590(14)
O46_4 O 0.49794(9) 0.8727(2) 0.97609(15)
O47_4 O 0.59601(13) 0.7451(2) 0.88802(16)
O49_4 O 0.43663(13) 0.7332(2) 0.99196(16)
O50_4 O 0.39893(12) 0.8877(2) 0.95839(15)
O51_4 O 0.60616(15) 0.7802(3) 0.78157(18)
O52_4 O 0.50630(12) 0.9174(3) 0.77386(16)
O53_4 O 0.40240(13) 0.7574(2) 0.87778(16)
O54_4 O 0.39006(15) 0.7976(3) 0.77230(18)
O55_4 O 0.64261(12) 0.8731(2) 0.85539(15)
O56_4 O 0.35537(12) 0.8881(2) 0.85071(16)
O57_4 O 0.55162(13) 0.7247(2) 0.99765(16)
O59_4 O 0.45542(11) 0.8992(2) 0.86594(14)
O62_4 O 0.32219(12) 0.7448(2) 0.83132(16)
O64_4 O 0.67671(13) 0.7293(2) 0.84113(16)
O67_4 O 0.54529(12) 0.8953(2) 0.87216(14)
Mo7_4 Mo 0.450620(14) 0.79852(2) 0.938154(17)
Mo8_4 Mo 0.390137(14) 0.98202(3) 0.896567(18)
Mo11_4 Mo 0.610942(13) 0.96858(3) 0.903702(17)
Mo12_4 Mo 0.544320(14) 0.79220(2) 0.942705(17)
H36_4 H 0.536953 0.941804 0.759039
C4_3 C 0.2156(2) 0.2883(4) 0.0307(2)
H3_3 H 0.1911 0.3157 0.0510
C15_3 C 0.2844(2) 0.2117(4) 0.0307(2)
H11_3 H 0.3089 0.1843 0.0510
O3_3 O 0.24145(13) 0.1152(2) 0.65656(16)
C1_3 C 0.2226(3) 0.3023(5) 0.7817(3)
H1_3 H 0.2030 0.3394 0.7614
C2_3 C 0.2218(3) 0.3040(5) 0.8425(3)
H2_3 H 0.2021 0.3420 0.8618
C3_3 C 0.2500 0.2500 0.8739(3)
C5_3 C 0.2141(2) 0.2898(4) 0.9710(2)
H4_3 H 0.1891 0.3174 0.9518
C6_3 C 0.2500 0.2500 0.9392(3)
N1_3 N 0.2500 0.2500 0.7516(3)
O36_3 O 0.25855(13) 0.3848(2) 0.65656(16)
C13_3 C 0.2774(3) 0.1977(5) 0.7817(3)
H9_3 H 0.2970 0.1606 0.7614
C14_3 C 0.2782(3) 0.1960(5) 0.8425(3)
H10_3 H 0.2979 0.1580 0.8618
C16_3 C 0.2859(2) 0.2102(4) 0.9710(2)
H12_3 H 0.3109 0.1826 0.9518
H30_4 H 0.0234592 0.695158 0.704539
C10_3 C 0.7876(2) 0.2761(6) 0.0403(3)
H7_3 H 0.8149 0.2935 0.0609
C19_3 C 0.7124(2) 0.2239(6) 0.0403(3)
H15_3 H 0.6851 0.2065 0.0609
O1_3 O 0.75367(15) 0.1127(3) 0.6634(2)
C7_3 C 0.7827(3) 0.2923(5) 0.7912(3)
H5_3 H 0.8062 0.3219 0.7708
C8_3 C 0.7835(3) 0.2943(6) 0.8519(3)
H6_3 H 0.8067 0.3259 0.8712
C9_3 C 0.7500 0.2500 0.8835(3)
C11_3 C 0.7891(2) 0.2792(6) 0.9800(3)
H8_3 H 0.8161 0.3007 0.9610
C12_3 C 0.7500 0.2500 0.9481(3)
N3_3 N 0.7500 0.2500 0.7614(3)
O34_3 O 0.74633(15) 0.3873(3) 0.6634(2)
C17_3 C 0.7173(3) 0.2077(5) 0.7912(3)
H13_3 H 0.6938 0.1781 0.7708
C18_3 C 0.7165(3) 0.2057(6) 0.8519(3)
H14_3 H 0.6933 0.1741 0.8712
C20_3 C 0.7109(2) 0.2208(6) 0.9800(3)
H16_3 H 0.6839 0.1993 0.9610
H29_5 H 0.978489 0.0564187 0.746579
H37_4 H 0.951153 0.287631 0.232777
H38_4 H 0.961213 0.154782 0.180485
H31_4 H 0.981216 0.826614 0.823376
H36_5 H 0.963047 0.941804 0.259039
H29_6 H 0.521511 0.443581 0.746579
H30_5 H 0.476541 0.804842 0.704539
H31_5 H 0.518784 0.673386 0.823376
H36_6 H 0.536953 0.558196 0.259039
H37_5 H 0.548847 0.212369 0.232777
H38_5 H 0.538787 0.345218 0.180485
H36_7 H 0.0369533 0.441804 0.240961
H37_6 H 0.0488473 0.787631 0.267223
H38_6 H 0.0387868 0.654782 0.319515
O1_4 O 0.24633(15) 0.6127(3) 0.8366(2)
C7_4 C 0.2173(3) 0.7923(5) 0.7088(3)
H5_4 H 0.1938 0.8219 0.7292
C8_4 C 0.2165(3) 0.7943(6) 0.6481(3)
H6_4 H 0.1933 0.8259 0.6288
C9_4 C 0.2500 0.7500 0.6165(3)
C10_4 C 0.2124(2) 0.7761(6) 0.4597(3)
H7_4 H 0.1851 0.7935 0.4391
C11_4 C 0.2109(2) 0.7792(6) 0.5200(3)
H8_4 H 0.1839 0.8007 0.5390
C12_4 C 0.2500 0.7500 0.5519(3)
N3_4 N 0.2500 0.7500 0.7386(3)
O34_4 O 0.25367(15) 0.8873(3) 0.8366(2)
C17_4 C 0.2827(3) 0.7077(5) 0.7088(3)
H13_4 H 0.3062 0.6781 0.7292
C18_4 C 0.2835(3) 0.7057(6) 0.6481(3)
H14_4 H 0.3067 0.6741 0.6288
C19_4 C 0.2876(2) 0.7239(6) 0.4597(3)
H15_4 H 0.3149 0.7065 0.4391
C20_4 C 0.2891(2) 0.7208(6) 0.5200(3)
H16_4 H 0.3161 0.6993 0.5390
H29_7 H 0.0215115 0.556419 0.753421
H31_6 H 0.0187842 0.326614 0.676624
O3_4 O 0.75855(13) 0.6152(2) 0.84344(16)
C1_4 C 0.7774(3) 0.8023(5) 0.7183(3)
H1_4 H 0.7970 0.8394 0.7386
C2_4 C 0.7782(3) 0.8040(5) 0.6575(3)
H2_4 H 0.7979 0.8420 0.6382
C3_4 C 0.7500 0.7500 0.6261(3)
C4_4 C 0.7844(2) 0.7883(4) 0.4693(2)
H3_4 H 0.8089 0.8157 0.4490
C5_4 C 0.7859(2) 0.7898(4) 0.5290(2)
H4_4 H 0.8109 0.8174 0.5482
C6_4 C 0.7500 0.7500 0.5608(3)
N1_4 N 0.7500 0.7500 0.7484(3)
O36_4 O 0.74145(13) 0.8848(2) 0.84344(16)
C13_4 C 0.7226(3) 0.6977(5) 0.7183(3)
H9_4 H 0.7030 0.6606 0.7386
C14_4 C 0.7218(3) 0.6960(5) 0.6575(3)
H10_4 H 0.7021 0.6580 0.6382
C15_4 C 0.7156(2) 0.7117(4) 0.4693(2)
H11_4 H 0.6911 0.6843 0.4490
C16_4 C 0.7141(2) 0.7102(4) 0.5290(2)
H12_4 H 0.6891 0.6826 0.5482
H30_6 H 0.976541 0.195158 0.795461
H36_8 H 0.463047 0.0581961 0.240961
H29_8 H 0.478489 0.943581 0.753421
Co1_12 Co 0.5000 0.0000 1.0000
P5_4 P 0.50874(5) 0.18806(9) 0.76247(6)
O35_4 O 0.60382(12) 0.0245(2) 0.82978(15)
O37_4 O 0.56001(12) 0.0327(2) 0.94436(14)
O39_4 O 0.40266(13) 0.0369(2) 0.82308(15)
O40_4 O 0.44204(12) 0.0401(2) 0.93997(14)
O42_4 O 0.50262(10) 0.0287(2) 0.84688(16)
O43_4 O 0.66251(13) 0.0064(2) 0.93152(17)
O44_4 O 0.60654(13) 0.1778(2) 0.89670(17)
O45_4 O 0.33943(13) 0.0260(2) 0.92250(17)
O48_4 O 0.40161(13) 0.1891(2) 0.89073(18)
O58_4 O 0.50438(11) 0.1678(2) 0.90101(16)
O60_4 O 0.51897(16) 0.2797(2) 0.7562(2)
O61_4 O 0.55200(13) 0.1491(2) 0.79323(16)
O66_4 O 0.46058(13) 0.1689(2) 0.79184(16)
O68_4 O 0.50713(16) 0.1468(3) 0.7002(2)
Mo9_4 Mo 0.439908(15) 0.11389(3) 0.870137(18)
Mo10_4 Mo 0.567073(14) 0.10497(2) 0.874370(17)
H37_7 H 0.548847 0.287631 0.732777
H38_7 H 0.538787 0.154782 0.680485
H30_7 H 0.523459 0.304842 0.795461
H31_7 H 0.481216 0.173386 0.676624
Co1_13 Co 0.5000 1.0000 0.0000
P1_4 P 0.49126(5) 0.81194(9) 0.23753(6)
O2_4 O 0.39618(12) 0.9755(2) 0.17022(15)
O4_4 O 0.43999(12) 0.9673(2) 0.05564(14)
O6_4 O 0.59734(13) 0.9631(2) 0.17692(15)
O7_4 O 0.55796(12) 0.9599(2) 0.06003(14)
O9_4 O 0.49738(10) 0.9713(2) 0.15312(16)
O10_4 O 0.33749(13) 0.9936(2) 0.06848(17)
O11_4 O 0.39346(13) 0.8222(2) 0.10330(17)
O12_4 O 0.66057(13) 0.9740(2) 0.07750(17)
O15_4 O 0.59839(13) 0.8109(2) 0.10927(18)
O25_4 O 0.49562(11) 0.8322(2) 0.09899(16)
O27_4 O 0.48103(16) 0.7203(2) 0.2438(2)
O28_4 O 0.44800(13) 0.8509(2) 0.20677(16)
O31_4 O 0.53942(13) 0.8311(2) 0.20816(16)
O33_4 O 0.49287(16) 0.8532(3) 0.2998(2)
Mo3_4 Mo 0.560092(15) 0.88611(3) 0.129863(18)
Mo4_4 Mo 0.432927(14) 0.89503(2) 0.125630(17)
H30_8 H 0.476541 0.695158 0.204539
H31_8 H 0.518784 0.826614 0.323376
H37_8 H 0.451153 0.712369 0.267223
H38_8 H 0.461213 0.845218 0.319515
C23 C 0.3607(2) 0.0215(4) 0.3965(3)
C24 C 0.3822(4) 0.0896(5) 0.3699(3)
H19 H 0.3823 0.1410 0.3888
C25 C 0.4029(6) 0.0824(6) 0.3174(4)
H20 H 0.4188 0.1274 0.3004
C26 C 0.3365(2) 0.0299(4) 0.4544(3)
C27 C 0.3541(2) 0.0845(4) 0.4965(3)
H21 H 0.3811 0.1174 0.4890
C28 C 0.3312(2) 0.0890(5) 0.5488(3)
H22 H 0.3447 0.1230 0.5774
N7 N 0.2911(2) 0.0485(4) 0.5619(3)
N8 N 0.3999(3) 0.0051(5) 0.2884(3)
H39 H 0.411681 0.000378601 0.246554
C21 C 0.3828(3) 0.9416(6) 0.3136(3)
H17 H 0.3846 0.8902 0.2949
C22 C 0.3617(3) 0.9459(5) 0.3678(3)
H18 H 0.3482 0.8985 0.3848
C29 C 0.2732(3) 0.9994(5) 0.5197(4)
H23 H 0.2435 0.9737 0.5263
C30 C 0.2955(3) 0.9848(5) 0.4681(3)
H24 H 0.2834 0.9451 0.4423
C21_2 C 0.1172(3) 0.5584(6) 0.3136(3)
H17_2 H 0.1154 0.6098 0.2949
C22_2 C 0.1383(3) 0.5541(5) 0.3678(3)
H18_2 H 0.1518 0.6015 0.3848
C23_2 C 0.1393(2) 0.4785(4) 0.3965(3)
C24_2 C 0.1178(4) 0.4104(5) 0.3699(3)
H19_2 H 0.1177 0.3590 0.3888
C25_2 C 0.0971(6) 0.4176(6) 0.3174(4)
H20_2 H 0.0812 0.3726 0.3004
C26_2 C 0.1635(2) 0.4701(4) 0.4544(3)
C27_2 C 0.1459(2) 0.4155(4) 0.4965(3)
H21_2 H 0.1189 0.3826 0.4890
C28_2 C 0.1688(2) 0.4110(5) 0.5488(3)
H22_2 H 0.1553 0.3770 0.5774
C29_2 C 0.2268(3) 0.5006(5) 0.5197(4)
H23_2 H 0.2565 0.5263 0.5263
C30_2 C 0.2045(3) 0.5152(5) 0.4681(3)
H24_2 H 0.2166 0.5549 0.4423
N7_2 N 0.2089(2) 0.4515(4) 0.5619(3)
N8_2 N 0.1001(3) 0.4949(5) 0.2884(3)
H39_2 H 0.0883191 0.499621 0.246554
C21_3 C 0.6172(3) 0.4416(6) 0.1864(3)
H17_3 H 0.6154 0.3902 0.2051
C22_3 C 0.6383(3) 0.4459(5) 0.1322(3)
H18_3 H 0.6518 0.3985 0.1152
C23_3 C 0.6393(2) 0.5215(4) 0.1035(3)
C24_3 C 0.6178(4) 0.5896(5) 0.1301(3)
H19_3 H 0.6177 0.6410 0.1112
C25_3 C 0.5971(6) 0.5824(6) 0.1826(4)
H20_3 H 0.5812 0.6274 0.1996
C26_3 C 0.6635(2) 0.5299(4) 0.0456(3)
C27_3 C 0.6459(2) 0.5845(4) 0.0035(3)
H21_3 H 0.6189 0.6174 0.0110
C30_3 C 0.7045(3) 0.4848(5) 0.0319(3)
H24_3 H 0.7166 0.4451 0.0577
N8_3 N 0.6001(3) 0.5051(5) 0.2116(3)
H39_3 H 0.588319 0.500379 0.253446
C28_3 C 0.6688(2) 0.5890(5) 0.9512(3)
H22_3 H 0.6553 0.6230 0.9226
C29_3 C 0.7268(3) 0.4994(5) 0.9803(4)
H23_3 H 0.7565 0.4737 0.9737
N7_3 N 0.7089(2) 0.5485(4) 0.9381(3)
C21_4 C 0.8828(3) 0.0584(6) 0.1864(3)
H17_4 H 0.8846 0.1098 0.2051
C22_4 C 0.8617(3) 0.0541(5) 0.1322(3)
H18_4 H 0.8482 0.1015 0.1152
C30_4 C 0.7955(3) 0.0152(5) 0.0319(3)
H24_4 H 0.7834 0.0549 0.0577
C29_4 C 0.7732(3) 0.0006(5) 0.9803(4)
H23_4 H 0.7435 0.0263 0.9737
C23_4 C 0.8607(2) 0.9785(4) 0.1035(3)
C24_4 C 0.8822(4) 0.9104(5) 0.1301(3)
H19_4 H 0.8823 0.8590 0.1112
C25_4 C 0.9029(6) 0.9176(6) 0.1826(4)
H20_4 H 0.9188 0.8726 0.1996
C26_4 C 0.8365(2) 0.9701(4) 0.0456(3)
C27_4 C 0.8541(2) 0.9155(4) 0.0035(3)
H21_4 H 0.8811 0.8826 0.0110
N8_4 N 0.8999(3) 0.9949(5) 0.2116(3)
H39_4 H 0.911681 0.999621 0.253446
C28_4 C 0.8312(2) 0.9110(5) 0.9512(3)
H22_4 H 0.8447 0.8770 0.9226
N7_4 N 0.7911(2) 0.9515(4) 0.9381(3)
C21_5 C 0.6172(3) 0.0584(6) 0.6864(3)
H17_5 H 0.6154 0.1098 0.7051
C22_5 C 0.6383(3) 0.0541(5) 0.6322(3)
H18_5 H 0.6518 0.1015 0.6152
C29_5 C 0.7268(3) 0.0006(5) 0.4803(4)
H23_5 H 0.7565 0.0263 0.4737
C30_5 C 0.7045(3) 0.0152(5) 0.5319(3)
H24_5 H 0.7166 0.0549 0.5577
C23_5 C 0.6393(2) 0.9785(4) 0.6035(3)
C24_5 C 0.6178(4) 0.9104(5) 0.6301(3)
H19_5 H 0.6177 0.8590 0.6112
C25_5 C 0.5971(6) 0.9176(6) 0.6826(4)
H20_5 H 0.5812 0.8726 0.6996
C26_5 C 0.6635(2) 0.9701(4) 0.5456(3)
C27_5 C 0.6459(2) 0.9155(4) 0.5035(3)
H21_5 H 0.6189 0.8826 0.5110
C28_5 C 0.6688(2) 0.9110(5) 0.4512(3)
H22_5 H 0.6553 0.8770 0.4226
N7_5 N 0.7089(2) 0.9515(4) 0.4381(3)
N8_5 N 0.6001(3) 0.9949(5) 0.7116(3)
H39_5 H 0.588319 0.999621 0.753446
C21_6 C 0.8828(3) 0.4416(6) 0.6864(3)
H17_6 H 0.8846 0.3902 0.7051
C22_6 C 0.8617(3) 0.4459(5) 0.6322(3)
H18_6 H 0.8482 0.3985 0.6152
C23_6 C 0.8607(2) 0.5215(4) 0.6035(3)
C24_6 C 0.8822(4) 0.5896(5) 0.6301(3)
H19_6 H 0.8823 0.6410 0.6112
C25_6 C 0.9029(6) 0.5824(6) 0.6826(4)
H20_6 H 0.9188 0.6274 0.6996
C26_6 C 0.8365(2) 0.5299(4) 0.5456(3)
C27_6 C 0.8541(2) 0.5845(4) 0.5035(3)
H21_6 H 0.8811 0.6174 0.5110
C28_6 C 0.8312(2) 0.5890(5) 0.4512(3)
H22_6 H 0.8447 0.6230 0.4226
C29_6 C 0.7732(3) 0.4994(5) 0.4803(4)
H23_6 H 0.7435 0.4737 0.4737
C30_6 C 0.7955(3) 0.4848(5) 0.5319(3)
H24_6 H 0.7834 0.4451 0.5577
N7_6 N 0.7911(2) 0.5485(4) 0.4381(3)
N8_6 N 0.8999(3) 0.5051(5) 0.7116(3)
H39_6 H 0.911681 0.500379 0.753446
C28_7 C 0.3312(2) 0.4110(5) 0.0488(3)
H22_7 H 0.3447 0.3770 0.0774
C29_7 C 0.2732(3) 0.5006(5) 0.0197(4)
H23_7 H 0.2435 0.5263 0.0263
N7_7 N 0.2911(2) 0.4515(4) 0.0619(3)
C21_7 C 0.3828(3) 0.5584(6) 0.8136(3)
H17_7 H 0.3846 0.6098 0.7949
C22_7 C 0.3617(3) 0.5541(5) 0.8678(3)
H18_7 H 0.3482 0.6015 0.8848
C23_7 C 0.3607(2) 0.4785(4) 0.8965(3)
C24_7 C 0.3822(4) 0.4104(5) 0.8699(3)
H19_7 H 0.3823 0.3590 0.8888
C25_7 C 0.4029(6) 0.4176(6) 0.8174(4)
H20_7 H 0.4188 0.3726 0.8004
C26_7 C 0.3365(2) 0.4701(4) 0.9544(3)
C27_7 C 0.3541(2) 0.4155(4) 0.9965(3)
H21_7 H 0.3811 0.3826 0.9890
C30_7 C 0.2955(3) 0.5152(5) 0.9681(3)
H24_7 H 0.2834 0.5549 0.9423
N8_7 N 0.3999(3) 0.4949(5) 0.7884(3)
H39_7 H 0.411681 0.499621 0.746554
C28_8 C 0.1688(2) 0.0890(5) 0.0488(3)
H22_8 H 0.1553 0.1230 0.0774
N7_8 N 0.2089(2) 0.0485(4) 0.0619(3)
C23_8 C 0.1393(2) 0.0215(4) 0.8965(3)
C24_8 C 0.1178(4) 0.0896(5) 0.8699(3)
H19_8 H 0.1177 0.1410 0.8888
C25_8 C 0.0971(6) 0.0824(6) 0.8174(4)
H20_8 H 0.0812 0.1274 0.8004
C26_8 C 0.1635(2) 0.0299(4) 0.9544(3)
C27_8 C 0.1459(2) 0.0845(4) 0.9965(3)
H21_8 H 0.1189 0.1174 0.9890
N8_8 N 0.1001(3) 0.0051(5) 0.7884(3)
H39_8 H 0.0883191 0.000378601 0.746554
C29_8 C 0.2268(3) 0.9994(5) 0.0197(4)
H23_8 H 0.2565 0.9737 0.0263
C21_8 C 0.1172(3) 0.9416(6) 0.8136(3)
H17_8 H 0.1154 0.8902 0.7949
C22_8 C 0.1383(3) 0.9459(5) 0.8678(3)
H18_8 H 0.1518 0.8985 0.8848
C30_8 C 0.2045(3) 0.9848(5) 0.9681(3)
H24_8 H 0.2166 0.9451 0.9423
loop_
_geom_bond_atom_site_label_1
_geom_bond_atom_site_label_2
_geom_bond_site_symmetry_1
_geom_bond_site_symmetry_2
O7 Co1 1_555 1_555
O15 Mo3 1_555 1_555
Mo3 O6 1_555 1_555
P6 O47 1_555 1_555
O41 Mo11 1_555 1_555
O47 Mo12 1_555 1_555
O51 P6 1_555 1_555
O52 P8 1_555 1_555
O55 P6 1_555 1_555
O57 Mo12 1_555 1_555
O64 P6 1_555 1_555
O67 P8 1_555 1_555
Co5 O64 1_555 1_555
O7 Mo3 1_555 1_555
O31 Mo3 1_555 1_555
O41 Mo12 1_555 1_555
O55 Mo11 1_555 1_555
O67 Mo11 1_555 1_555
O67 Mo12 1_555 1_555
O52 H36 1_555 1_555
P3 O20 1_555 1_555
O1 Co3 1_555 1_555
O5 Mo1 1_555 1_555
O13 Co1_2 1_555 1_555
O16 Mo1 1_555 1_555
O17 Mo1 1_555 1_555
O20 Mo1 1_555 1_555
O21 P3 1_555 1_555
O23 P3 1_555 1_555
O29 P3 1_555 1_555
Mo1 O13 1_555 1_555
C7 H5 1_555 1_555
C8 C7 1_555 1_555
H6 C8 1_555 1_555
C9 C8 1_555 1_555
H8 C11 1_555 1_555
C12 C9 1_555 1_555
N3 C7 1_555 1_555
Co3 O29 1_555 1_555
P5 O60 1_555 1_555
O34 Co3 1_555 1_555
O35 Mo10 1_555 1_555
O37 Co1_2 1_555 1_555
O44 Mo10 1_555 1_555
O61 P5 1_555 1_555
O63 Co3 1_555 1_555
O68 P5 1_555 1_555
Mo10 O37 1_555 1_555
C17 N3 1_555 1_555
H13 C17 1_555 1_555
C18 C9 1_555 1_555
H14 C18 1_555 1_555
C20 C12 1_555 1_555
H16 C20 1_555 1_555
N6 Co3 1_555 1_555
O17 Mo2 1_555 1_555
O23 Mo2 1_555 1_555
O26 Mo1 1_555 1_555
O26 Mo2 1_555 1_555
C11 C12 1_555 1_555
N3 Co3 1_555 1_555
O42 Mo10 1_555 1_555
O58 Mo10 1_555 1_555
O61 Mo10 1_555 1_555
C17 C18 1_555 1_555
O60 H37 1_555 1_555
O68 H38 1_555 1_555
C10 H7 1_555 1_555
N4 C10 1_555 1_555
C19 N4 1_555 1_555
H15 C19 1_555 1_555
Co6 N4 1_555 1_555
Co1_3 O4 1_555 1_555
P1 O27 1_555 1_555
O2 Mo4 1_555 1_555
O4 Mo4 1_555 1_555
O11 Mo4 1_555 1_555
O28 P1 1_555 1_555
O33 P1 1_555 1_555
Mo4 O9 1_555 1_555
P7 O53 1_555 1_555
O38 Mo7 1_555 1_555
O46 Co1_3 1_555 1_555
O49 Mo7 1_555 1_555
O50 Mo7 1_555 1_555
O53 Mo7 1_555 1_555
O54 P7 1_555 1_555
O56 P7 1_555 1_555
O62 P7 1_555 1_555
Mo7 O46 1_555 1_555
Co7 O62 1_555 1_555
O25 Mo4 1_555 1_555
O28 Mo4 1_555 1_555
O50 Mo8 1_555 1_555
O56 Mo8 1_555 1_555
O59 Mo7 1_555 1_555
O59 Mo8 1_555 1_555
O27 H30 1_555 1_555
P2 O14 1_555 1_555
O3 Co2 1_555 1_555
O8 Mo5 1_555 1_555
O14 Mo6 1_555 1_555
O18 P2 1_555 1_555
O19 P4 1_555 1_555
O22 P2 1_555 1_555
O24 Mo6 1_555 1_555
O30 P2 1_555 1_555
O32 P4 1_555 1_555
C1 H1 1_555 1_555
C2 C1 1_555 1_555
H2 C2 1_555 1_555
C3 C2 1_555 1_555
H4 C5 1_555 1_555
C6 C3 1_555 1_555
N1 C1 1_555 1_555
Co2 O30 1_555 1_555
O36 Co2 1_555 1_555
O40 Co1_4 1_555 1_555
O48 Mo9 1_555 1_555
O65 Co2 1_555 1_555
Mo9 O39 1_555 1_555
C13 N1 1_555 1_555
H9 C13 1_555 1_555
C14 C3 1_555 1_555
H10 C14 1_555 1_555
C16 C6 1_555 1_555
H12 C16 1_555 1_555
N5 Co2 1_555 1_555
O8 Mo6 1_555 1_555
O22 Mo5 1_555 1_555
O32 Mo5 1_555 1_555
O32 Mo6 1_555 1_555
C5 C6 1_555 1_555
N1 Co2 1_555 1_555
O40 Mo9 1_555 1_555
O66 Mo9 1_555 1_555
C13 C14 1_555 1_555
C4 H3 1_555 1_555
N2 C4 1_555 1_555
C15 N2 1_555 1_555
H11 C15 1_555 1_555
Co4 N2 1_555 1_555
Co1_5 O4_2 1_555 1_555
P1_2 O27_2 1_555 1_555
P2_2 O14_2 1_555 1_555
P3_2 O20_2 1_555 1_555
P4_2 O9_2 1_555 1_555
O2_2 Mo4_2 1_555 1_555
O4_2 Mo4_2 1_555 1_555
O5_2 Mo1_2 1_555 1_555
O6_2 Mo2_2 1_555 1_555
O7_2 Co1_5 1_555 1_555
O8_2 Mo5_2 1_555 1_555
O9_2 Mo3_2 1_555 1_555
O10_2 Mo5_2 1_555 1_555
O11_2 Mo4_2 1_555 1_555
O12_2 Mo2_2 1_555 1_555
O13_2 Co1_5 1_555 1_555
O14_2 Mo6_2 1_555 1_555
O15_2 Mo3_2 1_555 1_555
O16_2 Mo1_2 1_555 1_555
O17_2 Mo1_2 1_555 1_555
O18_2 P2_2 1_555 1_555
O19_2 P4_2 1_555 1_555
O20_2 Mo1_2 1_555 1_555
O21_2 P3_2 1_555 1_555
O22_2 P2_2 1_555 1_555
O23_2 P3_2 1_555 1_555
O24_2 Mo6_2 1_555 1_555
O25_2 Mo3_2 1_555 1_555
O26_2 P4_2 1_555 1_555
O28_2 P1_2 1_555 1_555
O63 P3_2 1_555 1_555
O65 P2_2 1_555 1_555
O31_2 P1_2 1_555 1_555
O32_2 P4_2 1_555 1_555
O33_2 P1_2 1_555 1_555
Mo1_2 O13_2 1_555 1_555
Mo2_2 O7_2 1_555 1_555
Mo3_2 O6_2 1_555 1_555
Mo4_2 O9_2 1_555 1_555
Mo5_2 O2_2 1_555 1_555
Mo6_2 O5_2 1_555 1_555
P5_2 O60_2 1_555 1_555
P6_2 O47_2 1_555 1_555
P7_2 O53_2 1_555 1_555
P8_2 O42_2 1_555 1_555
O35_2 Mo10_2 1_555 1_555
O37_2 Co1_5 1_555 1_555
O38_2 Mo7_2 1_555 1_555
O39_2 Mo8_2 1_555 1_555
O40_2 Co1_5 1_555 1_555
O41_2 Mo11_2 1_555 1_555
O42_2 Mo9_2 1_555 1_555
O43_2 Mo11_2 1_555 1_555
O44_2 Mo10_2 1_555 1_555
O45_2 Mo8_2 1_555 1_555
O46_2 Co1_5 1_555 1_555
O47_2 Mo12_2 1_555 1_555
O48_2 Mo9_2 1_555 1_555
O49_2 Mo7_2 1_555 1_555
O50_2 Mo7_2 1_555 1_555
O51_2 P6_2 1_555 1_555
O52_2 P8_2 1_555 1_555
O53_2 Mo7_2 1_555 1_555
O54_2 P7_2 1_555 1_555
O55_2 P6_2 1_555 1_555
O56_2 P7_2 1_555 1_555
O57_2 Mo12_2 1_555 1_555
O58_2 Mo9_2 1_555 1_555
O59_2 P8_2 1_555 1_555
O61_2 P5_2 1_555 1_555
O62_2 P7_2 1_555 1_555
O64_2 P6_2 1_555 1_555
O66_2 P5_2 1_555 1_555
O67_2 P8_2 1_555 1_555
O68_2 P5_2 1_555 1_555
Mo7_2 O46_2 1_555 1_555
Mo8_2 O40_2 1_555 1_555
Mo9_2 O39_2 1_555 1_555
Mo10_2 O37_2 1_555 1_555
Mo11_2 O35_2 1_555 1_555
Mo12_2 O38_2 1_555 1_555
Co5 O64_2 1_555 1_555
Co7 O62_2 1_555 1_555
O4_2 Mo5_2 1_555 1_555
O7_2 Mo3_2 1_555 1_555
O8_2 Mo6_2 1_555 1_555
O13_2 Mo6_2 1_555 1_555
O17_2 Mo2_2 1_555 1_555
O22_2 Mo5_2 1_555 1_555
O23_2 Mo2_2 1_555 1_555
O25_2 Mo4_2 1_555 1_555
O26_2 Mo1_2 1_555 1_555
O26_2 Mo2_2 1_555 1_555
O28_2 Mo4_2 1_555 1_555
O31_2 Mo3_2 1_555 1_555
O32_2 Mo5_2 1_555 1_555
O32_2 Mo6_2 1_555 1_555
Mo1_2 Mo6_2 1_555 1_555
Mo2_2 Mo3_2 1_555 1_555
Mo4_2 Mo5_2 1_555 1_555
O37_2 Mo11_2 1_555 1_555
O40_2 Mo9_2 1_555 1_555
O41_2 Mo12_2 1_555 1_555
O42_2 Mo10_2 1_555 1_555
O46_2 Mo12_2 1_555 1_555
O50_2 Mo8_2 1_555 1_555
O55_2 Mo11_2 1_555 1_555
O56_2 Mo8_2 1_555 1_555
O58_2 Mo10_2 1_555 1_555
O59_2 Mo7_2 1_555 1_555
O59_2 Mo8_2 1_555 1_555
O61_2 Mo10_2 1_555 1_555
O66_2 Mo9_2 1_555 1_555
O67_2 Mo11_2 1_555 1_555
O67_2 Mo12_2 1_555 1_555
Mo7_2 Mo12_2 1_555 1_555
Mo8_2 Mo9_2 1_555 1_555
Mo10_2 Mo11_2 1_555 1_555
O19_2 H29_2 1_555 1_555
O27_2 H30_2 1_555 1_555
O33_2 H31_2 1_555 1_555
O52_2 H36_2 1_555 1_555
O60_2 H37_2 1_555 1_555
O68_2 H38_2 1_555 1_555
Co1_6 O4_3 1_555 1_555
P1_3 O27_3 1_555 1_555
P2_3 O14_3 1_555 1_555
P4_3 O9_3 1_555 1_555
O2_3 Mo4_3 1_555 1_555
O3_2 Co2_2 1_555 1_555
O4_3 Mo4_3 1_555 1_555
O8_3 Mo5_3 1_555 1_555
O10_3 Mo5_3 1_555 1_555
O11_3 Mo4_3 1_555 1_555
O14_3 Mo6_3 1_555 1_555
O18_3 P2_3 1_555 1_555
O19_3 P4_3 1_555 1_555
O22_3 P2_3 1_555 1_555
O24_3 Mo6_3 1_555 1_555
O28_3 P1_3 1_555 1_555
O30_2 P2_3 1_555 1_555
O32_3 P4_3 1_555 1_555
O33_3 P1_3 1_555 1_555
Mo4_3 O9_3 1_555 1_555
Mo5_3 O2_3 1_555 1_555
C1_2 H1_2 1_555 1_555
C2_2 C1_2 1_555 1_555
H2_2 C2_2 1_555 1_555
C3_2 C2_2 1_555 1_555
C4_2 H3_2 1_555 1_555
C5_2 C4_2 1_555 1_555
H4_2 C5_2 1_555 1_555
C6_2 C3_2 1_555 1_555
N1_2 C1_2 1_555 1_555
N2_2 C4_2 1_555 1_555
Co2_2 O30_2 1_555 1_555
O36_2 Co2_2 1_555 1_555
O65_2 Co2_2 1_555 1_555
C13_2 N1_2 1_555 1_555
H9_2 C13_2 1_555 1_555
C14_2 C3_2 1_555 1_555
H10_2 C14_2 1_555 1_555
C15_2 N2_2 1_555 1_555
H11_2 C15_2 1_555 1_555
C16_2 C6_2 1_555 1_555
H12_2 C16_2 1_555 1_555
N5_2 Co2_2 1_555 1_555
Co5 N2_2 1_555 1_555
O4_3 Mo5_3 1_555 1_555
O8_3 Mo6_3 1_555 1_555
O22_3 Mo5_3 1_555 1_555
O25_3 Mo4_3 1_555 1_555
O28_3 Mo4_3 1_555 1_555
O32_3 Mo5_3 1_555 1_555
O32_3 Mo6_3 1_555 1_555
Mo4_3 Mo5_3 1_555 1_555
C5_2 C6_2 1_555 1_555
N1_2 Co2_2 1_555 1_555
C13_2 C14_2 1_555 1_555
C15_2 C16_2 1_555 1_555
O27_3 H30_3 1_555 1_555
P7_3 O53_3 1_555 1_555
O38_3 Mo7_3 1_555 1_555
O39_3 Mo8_3 1_555 1_555
O40_3 Co1_7 1_555 1_555
O45_3 Mo8_3 1_555 1_555
O46_3 Co1_7 1_555 1_555
O48_3 Mo9_3 1_555 1_555
O49_3 Mo7_3 1_555 1_555
O50_3 Mo7_3 1_555 1_555
O53_3 Mo7_3 1_555 1_555
O54_3 P7_3 1_555 1_555
O56_3 P7_3 1_555 1_555
O62_3 P7_3 1_555 1_555
Mo7_3 O46_3 1_555 1_555
Mo8_3 O40_3 1_555 1_555
Mo9_3 O39_3 1_555 1_555
Co6 O62_3 1_555 1_555
O40_3 Mo9_3 1_555 1_555
O50_3 Mo8_3 1_555 1_555
O56_3 Mo8_3 1_555 1_555
O59_3 Mo7_3 1_555 1_555
O59_3 Mo8_3 1_555 1_555
O66_3 Mo9_3 1_555 1_555
Mo8_3 Mo9_3 1_555 1_555
P3_3 O20_3 1_555 1_555
O1_2 Co3_2 1_555 1_555
O5_3 Mo1_3 1_555 1_555
O6_3 Mo2_3 1_555 1_555
O7_3 Co1_8 1_555 1_555
O12_3 Mo2_3 1_555 1_555
O13_3 Co1_8 1_555 1_555
O15_3 Mo3_3 1_555 1_555
O16_3 Mo1_3 1_555 1_555
O17_3 Mo1_3 1_555 1_555
O20_3 Mo1_3 1_555 1_555
O21_3 P3_3 1_555 1_555
O23_3 P3_3 1_555 1_555
O29_2 P3_3 1_555 1_555
Mo1_3 O13_3 1_555 1_555
Mo2_3 O7_3 1_555 1_555
Mo3_3 O6_3 1_555 1_555
C7_2 H5_2 1_555 1_555
C8_2 C7_2 1_555 1_555
H6_2 C8_2 1_555 1_555
C9_2 C8_2 1_555 1_555
C10_2 H7_2 1_555 1_555
C11_2 C10_2 1_555 1_555
H8_2 C11_2 1_555 1_555
C12_2 C9_2 1_555 1_555
N3_2 C7_2 1_555 1_555
N4_2 C10_2 1_555 1_555
Co3_2 O29_2 1_555 1_555
O34_2 Co3_2 1_555 1_555
O63_2 Co3_2 1_555 1_555
C17_2 N3_2 1_555 1_555
H13_2 C17_2 1_555 1_555
C18_2 C9_2 1_555 1_555
H14_2 C18_2 1_555 1_555
C19_2 N4_2 1_555 1_555
H15_2 C19_2 1_555 1_555
C20_2 C12_2 1_555 1_555
H16_2 C20_2 1_555 1_555
N6_2 Co3_2 1_555 1_555
Co7 N4_2 1_555 1_555
O7_3 Mo3_3 1_555 1_555
O17_3 Mo2_3 1_555 1_555
O23_3 Mo2_3 1_555 1_555
O26_3 Mo1_3 1_555 1_555
O26_3 Mo2_3 1_555 1_555
O31_3 Mo3_3 1_555 1_555
Mo2_3 Mo3_3 1_555 1_555
C11_2 C12_2 1_555 1_555
N3_2 Co3_2 1_555 1_555
C17_2 C18_2 1_555 1_555
C19_2 C20_2 1_555 1_555
P5_3 O60_3 1_555 1_555
P6_3 O47_3 1_555 1_555
P8_3 O42_3 1_555 1_555
O35_3 Mo10_3 1_555 1_555
O37_3 Co1_9 1_555 1_555
O41_3 Mo11_3 1_555 1_555
O43_3 Mo11_3 1_555 1_555
O44_3 Mo10_3 1_555 1_555
O47_3 Mo12_3 1_555 1_555
O51_3 P6_3 1_555 1_555
O52_3 P8_3 1_555 1_555
O55_3 P6_3 1_555 1_555
O57_3 Mo12_3 1_555 1_555
O61_3 P5_3 1_555 1_555
O64_3 P6_3 1_555 1_555
O67_3 P8_3 1_555 1_555
O68_3 P5_3 1_555 1_555
Mo10_3 O37_3 1_555 1_555
Mo11_3 O35_3 1_555 1_555
Co4 O64_3 1_555 1_555
O37_3 Mo11_3 1_555 1_555
O41_3 Mo12_3 1_555 1_555
O42_3 Mo10_3 1_555 1_555
O55_3 Mo11_3 1_555 1_555
O58_3 Mo10_3 1_555 1_555
O61_3 Mo10_3 1_555 1_555
O67_3 Mo11_3 1_555 1_555
O67_3 Mo12_3 1_555 1_555
Mo10_3 Mo11_3 1_555 1_555
O52_3 H36_3 1_555 1_555
O60_3 H37_3 1_555 1_555
O68_3 H38_3 1_555 1_555
P2_4 O14_4 1_555 1_555
P3_4 O20_4 1_555 1_555
O5_4 Mo1_4 1_555 1_555
O8_4 Mo5_4 1_555 1_555
O13_4 Co1_10 1_555 1_555
O14_4 Mo6_4 1_555 1_555
O16_4 Mo1_4 1_555 1_555
O17_4 Mo1_4 1_555 1_555
O18_4 P2_4 1_555 1_555
O19_4 P4_4 1_555 1_555
O20_4 Mo1_4 1_555 1_555
O21_4 P3_4 1_555 1_555
O22_4 P2_4 1_555 1_555
O23_4 P3_4 1_555 1_555
O24_4 Mo6_4 1_555 1_555
O26_4 P4_4 1_555 1_555
O63_2 P3_4 1_555 1_555
O65_2 P2_4 1_555 1_555
O32_4 P4_4 1_555 1_555
Mo1_4 O13_4 1_555 1_555
Mo6_4 O5_4 1_555 1_555
O8_4 Mo6_4 1_555 1_555
O13_4 Mo6_4 1_555 1_555
O17_4 Mo2_4 1_555 1_555
O22_4 Mo5_4 1_555 1_555
O23_4 Mo2_4 1_555 1_555
O26_4 Mo1_4 1_555 1_555
O26_4 Mo2_4 1_555 1_555
O32_4 Mo5_4 1_555 1_555
O32_4 Mo6_4 1_555 1_555
Mo1_4 Mo6_4 1_555 1_555
O19_4 H29_4 1_555 1_555
P6_4 O47_4 1_555 1_555
P7_4 O53_4 1_555 1_555
O38_4 Mo7_4 1_555 1_555
O41_4 Mo11_4 1_555 1_555
O46_4 Co1_11 1_555 1_555
O47_4 Mo12_4 1_555 1_555
O49_4 Mo7_4 1_555 1_555
O50_4 Mo7_4 1_555 1_555
O51_4 P6_4 1_555 1_555
O52_4 P8_4 1_555 1_555
O53_4 Mo7_4 1_555 1_555
O54_4 P7_4 1_555 1_555
O55_4 P6_4 1_555 1_555
O56_4 P7_4 1_555 1_555
O57_4 Mo12_4 1_555 1_555
O59_4 P8_4 1_555 1_555
O62_4 P7_4 1_555 1_555
O64_4 P6_4 1_555 1_555
O67_4 P8_4 1_555 1_555
Mo7_4 O46_4 1_555 1_555
Mo12_4 O38_4 1_555 1_555
Co4 O64_4 1_555 1_555
Co6 O62_4 1_555 1_555
O41_4 Mo12_4 1_555 1_555
O46_4 Mo12_4 1_555 1_555
O50_4 Mo8_4 1_555 1_555
O55_4 Mo11_4 1_555 1_555
O56_4 Mo8_4 1_555 1_555
O59_4 Mo7_4 1_555 1_555
O59_4 Mo8_4 1_555 1_555
O67_4 Mo11_4 1_555 1_555
O67_4 Mo12_4 1_555 1_555
Mo7_4 Mo12_4 1_555 1_555
O52_4 H36_4 1_555 1_555
C4_3 H3_3 1_555 1_555
N5_2 C4_3 1_555 1_555
C15_3 N5_2 1_555 1_555
H11_3 C15_3 1_555 1_555
O3_3 Co5 1_555 1_555
C1_3 H1_3 1_555 1_555
C2_3 C1_3 1_555 1_555
H2_3 C2_3 1_555 1_555
C3_3 C2_3 1_555 1_555
H4_3 C5_3 1_555 1_555
C6_3 C3_3 1_555 1_555
N1_3 C1_3 1_555 1_555
O36_3 Co5 1_555 1_555
C13_3 N1_3 1_555 1_555
H9_3 C13_3 1_555 1_555
C14_3 C3_3 1_555 1_555
H10_3 C14_3 1_555 1_555
C16_3 C6_3 1_555 1_555
H12_3 C16_3 1_555 1_555
C5_3 C6_3 1_555 1_555
N1_3 Co5 1_555 1_555
C13_3 C14_3 1_555 1_555
O60 H30_4 1_555 1_555
C10_3 H7_3 1_555 1_555
N6_2 C10_3 1_555 1_555
C19_3 N6_2 1_555 1_555
H15_3 C19_3 1_555 1_555
O1_3 Co7 1_555 1_555
C7_3 H5_3 1_555 1_555
C8_3 C7_3 1_555 1_555
H6_3 C8_3 1_555 1_555
C9_3 C8_3 1_555 1_555
H8_3 C11_3 1_555 1_555
C12_3 C9_3 1_555 1_555
N3_3 C7_3 1_555 1_555
O34_3 Co7 1_555 1_555
C17_3 N3_3 1_555 1_555
H13_3 C17_3 1_555 1_555
C18_3 C9_3 1_555 1_555
H14_3 C18_3 1_555 1_555
C20_3 C12_3 1_555 1_555
H16_3 C20_3 1_555 1_555
C11_3 C12_3 1_555 1_555
N3_3 Co7 1_555 1_555
C17_3 C18_3 1_555 1_555
O27 H37_4 1_555 1_555
O33 H38_4 1_555 1_555
O19 H36_5 1_555 1_555
O52_2 H29_6 1_555 1_555
O60_2 H30_5 1_555 1_555
O68_2 H31_5 1_555 1_555
O19_2 H36_6 1_555 1_555
O27_2 H37_5 1_555 1_555
O33_2 H38_5 1_555 1_555
O19_3 H36_7 1_555 1_555
O27_3 H37_6 1_555 1_555
O33_3 H38_6 1_555 1_555
O1_4 Co6 1_555 1_555
C7_4 H5_4 1_555 1_555
C8_4 C7_4 1_555 1_555
H6_4 C8_4 1_555 1_555
C9_4 C8_4 1_555 1_555
C10_4 H7_4 1_555 1_555
C11_4 C10_4 1_555 1_555
H8_4 C11_4 1_555 1_555
C12_4 C9_4 1_555 1_555
N3_4 C7_4 1_555 1_555
N6 C10_4 1_555 1_555
O34_4 Co6 1_555 1_555
C17_4 N3_4 1_555 1_555
H13_4 C17_4 1_555 1_555
C18_4 C9_4 1_555 1_555
H14_4 C18_4 1_555 1_555
C19_4 N6 1_555 1_555
H15_4 C19_4 1_555 1_555
C20_4 C12_4 1_555 1_555
H16_4 C20_4 1_555 1_555
C11_4 C12_4 1_555 1_555
N3_4 Co6 1_555 1_555
C17_4 C18_4 1_555 1_555
C19_4 C20_4 1_555 1_555
O3_4 Co4 1_555 1_555
C1_4 H1_4 1_555 1_555
C2_4 C1_4 1_555 1_555
H2_4 C2_4 1_555 1_555
C3_4 C2_4 1_555 1_555
C4_4 H3_4 1_555 1_555
C5_4 C4_4 1_555 1_555
H4_4 C5_4 1_555 1_555
C6_4 C3_4 1_555 1_555
N1_4 C1_4 1_555 1_555
N5 C4_4 1_555 1_555
O36_4 Co4 1_555 1_555
C13_4 N1_4 1_555 1_555
H9_4 C13_4 1_555 1_555
C14_4 C3_4 1_555 1_555
H10_4 C14_4 1_555 1_555
C15_4 N5 1_555 1_555
H11_4 C15_4 1_555 1_555
C16_4 C6_4 1_555 1_555
H12_4 C16_4 1_555 1_555
C5_4 C6_4 1_555 1_555
N1_4 Co4 1_555 1_555
C13_4 C14_4 1_555 1_555
C15_4 C16_4 1_555 1_555
O60_3 H30_6 1_555 1_555
O19_4 H36_8 1_555 1_555
O52_4 H29_8 1_555 1_555
P5_4 O60_4 1_555 1_555
O35_4 Mo10_4 1_555 1_555
O37_4 Co1_12 1_555 1_555
O40_4 Co1_12 1_555 1_555
O42_4 Mo9_4 1_555 1_555
O44_4 Mo10_4 1_555 1_555
O48_4 Mo9_4 1_555 1_555
O58_4 Mo9_4 1_555 1_555
O61_4 P5_4 1_555 1_555
O66_4 P5_4 1_555 1_555
O68_4 P5_4 1_555 1_555
Mo9_4 O39_4 1_555 1_555
Mo10_4 O37_4 1_555 1_555
O40_4 Mo9_4 1_555 1_555
O42_4 Mo10_4 1_555 1_555
O58_4 Mo10_4 1_555 1_555
O61_4 Mo10_4 1_555 1_555
O66_4 Mo9_4 1_555 1_555
O60_4 H37_7 1_555 1_555
O68_4 H38_7 1_555 1_555
O60_4 H30_7 1_555 1_555
O68_4 H31_7 1_555 1_555
Co1_13 O4_4 1_555 1_555
P1_4 O27_4 1_555 1_555
O2_4 Mo4_4 1_555 1_555
O4_4 Mo4_4 1_555 1_555
O7_4 Co1_13 1_555 1_555
O9_4 Mo3_4 1_555 1_555
O11_4 Mo4_4 1_555 1_555
O15_4 Mo3_4 1_555 1_555
O25_4 Mo3_4 1_555 1_555
O28_4 P1_4 1_555 1_555
O31_4 P1_4 1_555 1_555
O33_4 P1_4 1_555 1_555
Mo3_4 O6_4 1_555 1_555
Mo4_4 O9_4 1_555 1_555
O7_4 Mo3_4 1_555 1_555
O25_4 Mo4_4 1_555 1_555
O28_4 Mo4_4 1_555 1_555
O31_4 Mo3_4 1_555 1_555
O27_4 H30_8 1_555 1_555
O33_4 H31_8 1_555 1_555
O27_4 H37_8 1_555 1_555
O33_4 H38_8 1_555 1_555
C24 C23 1_555 1_555
H19 C24 1_555 1_555
C25 C24 1_555 1_555
H20 C25 1_555 1_555
C26 C23 1_555 1_555
C27 C26 1_555 1_555
H21 C27 1_555 1_555
C28 C27 1_555 1_555
H22 C28 1_555 1_555
N7 C28 1_555 1_555
C25 N8 1_555 1_555
N8 H39 1_555 1_555
C21 H17 1_555 1_555
C22 C21 1_555 1_555
H18 C22 1_555 1_555
C29 H23 1_555 1_555
H24 C30 1_555 1_555
C29 C30 1_555 1_555
C21_2 H17_2 1_555 1_555
C22_2 C21_2 1_555 1_555
H18_2 C22_2 1_555 1_555
C23_2 C22_2 1_555 1_555
C24_2 C23_2 1_555 1_555
H19_2 C24_2 1_555 1_555
C25_2 C24_2 1_555 1_555
H20_2 C25_2 1_555 1_555
C26_2 C23_2 1_555 1_555
C27_2 C26_2 1_555 1_555
H21_2 C27_2 1_555 1_555
C28_2 C27_2 1_555 1_555
H22_2 C28_2 1_555 1_555
C29_2 H23_2 1_555 1_555
C30_2 C26_2 1_555 1_555
H24_2 C30_2 1_555 1_555
N7_2 C28_2 1_555 1_555
N8_2 C21_2 1_555 1_555
C25_2 N8_2 1_555 1_555
C29_2 C30_2 1_555 1_555
C29_2 N7_2 1_555 1_555
N8_2 H39_2 1_555 1_555
C21_3 H17_3 1_555 1_555
C22_3 C21_3 1_555 1_555
H18_3 C22_3 1_555 1_555
C23_3 C22_3 1_555 1_555
C24_3 C23_3 1_555 1_555
H19_3 C24_3 1_555 1_555
C25_3 C24_3 1_555 1_555
H20_3 C25_3 1_555 1_555
C26_3 C23_3 1_555 1_555
C27_3 C26_3 1_555 1_555
H21_3 C27_3 1_555 1_555
C30_3 C26_3 1_555 1_555
H24_3 C30_3 1_555 1_555
N8_3 C21_3 1_555 1_555
C25_3 N8_3 1_555 1_555
N8_3 H39_3 1_555 1_555
H22_3 C28_3 1_555 1_555
C29_3 H23_3 1_555 1_555
N7_3 C28_3 1_555 1_555
C29_3 N7_3 1_555 1_555
C21_4 H17_4 1_555 1_555
C22_4 C21_4 1_555 1_555
H18_4 C22_4 1_555 1_555
H24_4 C30_4 1_555 1_555
C29_4 H23_4 1_555 1_555
C24_4 C23_4 1_555 1_555
H19_4 C24_4 1_555 1_555
C25_4 C24_4 1_555 1_555
H20_4 C25_4 1_555 1_555
C26_4 C23_4 1_555 1_555
C27_4 C26_4 1_555 1_555
H21_4 C27_4 1_555 1_555
C25_4 N8_4 1_555 1_555
N8_4 H39_4 1_555 1_555
H22_4 C28_4 1_555 1_555
N7_4 C28_4 1_555 1_555
C21_5 H17_5 1_555 1_555
C22_5 C21_5 1_555 1_555
H18_5 C22_5 1_555 1_555
C29_5 H23_5 1_555 1_555
H24_5 C30_5 1_555 1_555
C29_5 C30_5 1_555 1_555
C24_5 C23_5 1_555 1_555
H19_5 C24_5 1_555 1_555
C25_5 C24_5 1_555 1_555
H20_5 C25_5 1_555 1_555
C26_5 C23_5 1_555 1_555
C27_5 C26_5 1_555 1_555
H21_5 C27_5 1_555 1_555
C28_5 C27_5 1_555 1_555
H22_5 C28_5 1_555 1_555
N7_5 C28_5 1_555 1_555
C25_5 N8_5 1_555 1_555
N8_5 H39_5 1_555 1_555
C21_6 H17_6 1_555 1_555
C22_6 C21_6 1_555 1_555
H18_6 C22_6 1_555 1_555
C23_6 C22_6 1_555 1_555
C24_6 C23_6 1_555 1_555
H19_6 C24_6 1_555 1_555
C25_6 C24_6 1_555 1_555
H20_6 C25_6 1_555 1_555
C26_6 C23_6 1_555 1_555
C27_6 C26_6 1_555 1_555
H21_6 C27_6 1_555 1_555
C28_6 C27_6 1_555 1_555
H22_6 C28_6 1_555 1_555
C29_6 H23_6 1_555 1_555
C30_6 C26_6 1_555 1_555
H24_6 C30_6 1_555 1_555
N7_6 C28_6 1_555 1_555
N8_6 C21_6 1_555 1_555
C25_6 N8_6 1_555 1_555
C29_6 C30_6 1_555 1_555
C29_6 N7_6 1_555 1_555
N8_6 H39_6 1_555 1_555
H22_7 C28_7 1_555 1_555
C29_7 H23_7 1_555 1_555
N7_7 C28_7 1_555 1_555
C29_7 N7_7 1_555 1_555
C21_7 H17_7 1_555 1_555
C22_7 C21_7 1_555 1_555
H18_7 C22_7 1_555 1_555
C23_7 C22_7 1_555 1_555
C24_7 C23_7 1_555 1_555
H19_7 C24_7 1_555 1_555
C25_7 C24_7 1_555 1_555
H20_7 C25_7 1_555 1_555
C26_7 C23_7 1_555 1_555
C27_7 C26_7 1_555 1_555
H21_7 C27_7 1_555 1_555
C30_7 C26_7 1_555 1_555
H24_7 C30_7 1_555 1_555
N8_7 C21_7 1_555 1_555
C25_7 N8_7 1_555 1_555
N8_7 H39_7 1_555 1_555
H22_8 C28_8 1_555 1_555
N7_8 C28_8 1_555 1_555
C24_8 C23_8 1_555 1_555
H19_8 C24_8 1_555 1_555
C25_8 C24_8 1_555 1_555
H20_8 C25_8 1_555 1_555
C26_8 C23_8 1_555 1_555
C27_8 C26_8 1_555 1_555
H21_8 C27_8 1_555 1_555
C25_8 N8_8 1_555 1_555
N8_8 H39_8 1_555 1_555
C29_8 H23_8 1_555 1_555
C21_8 H17_8 1_555 1_555
C22_8 C21_8 1_555 1_555
H18_8 C22_8 1_555 1_555
H24_8 C30_8 1_555 1_555

#END
