
###############################################################################
#
# This file contains modified crystal structure data generated from the
# MOF subset of the Cambridge Structural Database (CSD) v543 
# hosted by the Cambridge Crystallographic Data Centre (CCDC).
#
# This work is licensed under the Creative Commons
# Attribution-NonCommercial-ShareAlike 4.0 International License.
# To view a copy of this license, visit
# http://creativecommons.org/licenses/by-nc-sa/4.0/
# or send a letter to
# Creative Commons, PO Box 1866, Mountain View, CA 94042, USA.
#
# CIF created using the CSD Python API on 29 September 2022
# The structure has been converted into the P1 space group
# The structure has a 3D framework
# The original CSD entry DEYDOA is in the monoclinic crystal system
# The framework has been calculated to contain at least 10.0% void space
# The void calculation uses a probe of radius 1.32A, grid spacing 0.4
# H atom positions have been added when not included in the experimental data
#
###############################################################################

data_DEYDOA
_chemical_formula_moiety         '(C16 H20 Cd3 N8 Ni2)n'
_symmetry_cell_setting           triclinic
_symmetry_space_group_name_H-M   'P 1'
_symmetry_Int_Tables_number      1
_space_group_name_Hall           'P 1'
loop_
_symmetry_equiv_pos_site_id
_symmetry_equiv_pos_as_xyz
1 x,y,z
_cell_length_a                   9.541(2)
_cell_length_b                   7.569(2)
_cell_length_c                   7.199(1)
_cell_angle_alpha                90
_cell_angle_beta                 100.3(1)
_cell_angle_gamma                90
_cell_volume                     511.504
loop_
_atom_site_label
_atom_site_type_symbol
_atom_site_fract_x
_atom_site_fract_y
_atom_site_fract_z
Cd2 Cd 0.00000 -0.00000 0.00000
Cd2_2 Cd 0.00000 -0.00000 1.00000
Cd2_3 Cd -0.00000 1.00000 0.00000
Ni1 Ni 0.00000 0.50000 0.50000
N1 N 0.0636(5) 0.2211(5) 0.2313(5)
C1 C 0.0418(4) 0.3268(5) 0.3350(5)
C7 C 0.0418(4) 0.6732(5) 0.3350(5)
H9 H 0.28422 0.11610 0.00814
N9 N 0.0636(5) 0.7789(5) 0.2313(5)
Cd2_4 Cd 0.00000 1.00000 1.00000
N6 N 0.2308(6) 0.00000 0.9406(7)
H19 H 0.231517 9.66755e-18 0.799781
H10 H 0.28422 0.88390 0.00814
N6_2 N 0.2308(6) 1.00000 0.9406(7)
H19_2 H 0.231517 1 0.799781
Cd2_5 Cd 1.00000 -0.00000 0.00000
Cd2_6 Cd 1.00000 -0.00000 1.00000
Cd2_7 Cd 1.00000 1.00000 0.00000
Ni1_2 Ni 1.00000 0.50000 0.50000
N2 N 0.7692(6) 0.00000 0.0594(7)
C2 C 0.7477(7) 0.00000 0.2595(9)
C3 C 0.5932(7) 0.00000 0.2786(8)
C4 C 0.5758(7) -0.00000 0.486(1)
C5 C 0.9582(4) 0.6732(5) 0.6650(5)
C6 C 0.9582(4) 0.3268(5) 0.6650(5)
H6 H 0.79845 0.11610 0.33003
H7 H 0.54165 0.11610 0.20900
C8 C 0.4242(7) 0.00000 0.514(1)
H8 H 0.62823 0.11610 0.55465
N7 N 0.9364(5) 0.7789(5) 0.7687(5)
N8 N 0.9364(5) 0.2211(5) 0.7687(5)
C9 C 0.4068(7) 0.00000 0.7214(8)
H11 H 0.37177 0.11610 0.44535
C10 C 0.2523(7) 0.00000 0.7405(9)
H13 H 0.45835 0.11610 0.79100
Cd2_8 Cd 1.00000 1.00000 1.00000
H16 H 0.20155 0.11610 0.66997
H5 H 0.71578 0.11610 0.99186
N2_2 N 0.7692(6) 1.00000 0.0594(7)
C2_2 C 0.7477(7) 1.00000 0.2595(9)
C3_2 C 0.5932(7) 1.00000 0.2786(8)
C4_2 C 0.5758(7) 1.00000 0.486(1)
H2 H 0.79845 0.88390 0.33003
H3 H 0.54165 0.88390 0.20900
H4 H 0.62823 0.88390 0.55465
C8_2 C 0.4242(7) 1.00000 0.514(1)
C9_2 C 0.4068(7) 1.00000 0.7214(8)
H12 H 0.37177 0.88390 0.44535
C10_2 C 0.2523(7) 1.00000 0.7405(9)
H14 H 0.45835 0.88390 0.79100
H15 H 0.20155 0.88390 0.66997
H1 H 0.71578 0.88390 0.99186
H19_3 H 0.768483 9.66755e-18 0.200219
H19_4 H 0.768483 1 0.200219
loop_
_geom_bond_atom_site_label_1
_geom_bond_atom_site_label_2
_geom_bond_site_symmetry_1
_geom_bond_site_symmetry_2
Cd2 N1 1_555 1_555
Ni1 C1 1_555 1_555
N1 C1 1_555 1_555
C7 Ni1 1_555 1_555
N9 C7 1_555 1_555
Cd2_3 N9 1_555 1_555
N6 Cd2_2 1_555 1_555
N6 H19 1_555 1_555
N6_2 Cd2_4 1_555 1_555
N6_2 H19_2 1_555 1_555
N2 Cd2_5 1_555 1_555
C2 N2 1_555 1_555
C3 C2 1_555 1_555
C4 C3 1_555 1_555
C5 Ni1_2 1_555 1_555
C6 Ni1_2 1_555 1_555
H6 C2 1_555 1_555
H7 C3 1_555 1_555
C8 C4 1_555 1_555
H8 C4 1_555 1_555
N7 C5 1_555 1_555
N8 C6 1_555 1_555
C9 C8 1_555 1_555
H11 C8 1_555 1_555
C10 C9 1_555 1_555
H13 C9 1_555 1_555
Cd2_8 N7 1_555 1_555
Cd2_6 N8 1_555 1_555
N6 C10 1_555 1_555
H16 C10 1_555 1_555
N2_2 Cd2_7 1_555 1_555
C2_2 N2_2 1_555 1_555
C3_2 C2_2 1_555 1_555
C4_2 C3_2 1_555 1_555
H2 C2_2 1_555 1_555
H3 C3_2 1_555 1_555
H4 C4_2 1_555 1_555
C8_2 C4_2 1_555 1_555
C9_2 C8_2 1_555 1_555
H12 C8_2 1_555 1_555
C10_2 C9_2 1_555 1_555
H14 C9_2 1_555 1_555
N6_2 C10_2 1_555 1_555
H15 C10_2 1_555 1_555
N2 H19_3 1_555 1_555
N2_2 H19_4 1_555 1_555

#END
