
###############################################################################
#
# This file contains modified crystal structure data generated from the
# MOF subset of the Cambridge Structural Database (CSD) v543 
# hosted by the Cambridge Crystallographic Data Centre (CCDC).
#
# This work is licensed under the Creative Commons
# Attribution-NonCommercial-ShareAlike 4.0 International License.
# To view a copy of this license, visit
# http://creativecommons.org/licenses/by-nc-sa/4.0/
# or send a letter to
# Creative Commons, PO Box 1866, Mountain View, CA 94042, USA.
#
# CIF created using the CSD Python API on 29 September 2022
# The structure has been converted into the P1 space group
# The structure has a 3D framework
# The original CSD entry DEYJIC is in the triclinic crystal system
# The framework has been calculated to contain at least 10.0% void space
# The void calculation uses a probe of radius 1.32A, grid spacing 0.4
#
###############################################################################

data_DEYJIC
_chemical_formula_moiety         '(C24 H24 N4 Ni9 O14 V4)n'
_symmetry_cell_setting           triclinic
_symmetry_space_group_name_H-M   'P 1'
_symmetry_Int_Tables_number      1
_space_group_name_Hall           'P 1'
loop_
_symmetry_equiv_pos_site_id
_symmetry_equiv_pos_as_xyz
1 x,y,z
_cell_length_a                   7.7086(3)
_cell_length_b                   11.4007(4)
_cell_length_c                   13.4990(3)
_cell_angle_alpha                96.395(2)
_cell_angle_beta                 105.619(3)
_cell_angle_gamma                99.339(3)
_cell_volume                     1112.28
loop_
_atom_site_label
_atom_site_type_symbol
_atom_site_fract_x
_atom_site_fract_y
_atom_site_fract_z
Ni5 Ni 0.000 0.000 -0.000
Ni1 Ni 0.500 0.500 0.000
O1 O 0.34701(16) 0.59564(11) 0.06755(9)
O2 O 0.35308(16) 0.33542(10) 0.01090(9)
O4 O 0.05915(17) 0.18331(11) 0.03300(9)
O5 O 0.15249(17) 0.41966(11) 0.14222(9)
O6 O 0.30706(17) 0.65468(11) 0.25838(9)
O7 O 0.27842(17) 0.00349(12) 0.02852(10)
V1 V 0.14293(4) 0.32289(2) 0.02534(2)
V2 V 0.20598(4) 0.57960(2) 0.14078(2)
N6 N 0.67236(19) 0.49793(13) 0.14906(11)
Ni5_2 Ni -0.000 0.000 1.000
N2 N 0.32764(19) 0.50207(13) 0.85094(11)
C7 C 0.2977(2) 0.41307(16) 0.77008(13)
H6 H 0.3485 0.3455 0.7822
C8 C 0.1947(2) 0.41758(16) 0.66963(13)
H7 H 0.1795 0.3547 0.6159
C9 C 0.1136(2) 0.51703(16) 0.64924(13)
C10 C 0.1393(2) 0.60633(16) 0.73429(14)
H8 H 0.0841 0.6726 0.7253
C11 C 0.2472(2) 0.59645(16) 0.83234(13)
H9 H 0.2645 0.658 0.8875
C12 C 0.0054(2) 0.53273(17) 0.54529(14)
Ni1_2 Ni 0.500 0.500 1.000
O3 O 0.00041(16) 0.36830(11) 0.91582(9)
H12 H 0.337(4) 0.046(3) 0.993(2)
H22 H 0.0614 0.4061 0.4574
O15 O 0.65299(16) 0.40436(11) 0.93245(9)
O16 O 0.64692(16) 0.66458(10) 0.98910(9)
Ni5_3 Ni -0.000 1.000 -0.000
N1 N 0.0206(2) 0.99313(13) 0.15505(11)
C3 C 0.0172(3) 0.97319(16) 0.35957(13)
C4 C 0.0856(3) 0.89185(16) 0.30295(13)
H3 H 0.1298 0.8286 0.3324
C5 C 0.0872(2) 0.90583(15) 0.20227(13)
H4 H 0.1367 0.8523 0.1662
C6 C 0.0170(3) 0.95947(17) 0.46642(14)
H5 H 0.0427 0.8883 0.4889
H11 H 0.331(4) 0.950(3) 0.036(2)
C13 C 0.0457(3) 0.92856(16) 0.79082(13)
H13 H 0.0914 0.8672 0.8229
C14 C 0.0494(3) 0.93448(16) 0.68963(14)
H14 H 0.0956 0.8778 0.6547
Ni5_4 Ni -0.000 1.000 1.000
Ni5_5 Ni 1.000 0.000 -0.000
C1 C 0.9543(3) 0.07144(16) 0.20918(13)
H1 H 0.9086 0.1328 0.1771
C2 C 0.9506(3) 0.06552(16) 0.31037(14)
H2 H 0.9044 0.1222 0.3453
N3 N 0.9794(2) 0.00687(13) 0.84495(11)
C15 C 0.9828(3) 0.02681(16) 0.64043(13)
C16 C 0.9144(3) 0.10815(16) 0.69705(13)
H15 H 0.8702 0.1714 0.6676
C17 C 0.9128(2) 0.09417(15) 0.79773(13)
H16 H 0.8633 0.1477 0.8338
C18 C 0.9830(3) 0.04053(17) 0.53358(14)
H17 H 0.9573 0.1117 0.5111
Ni5_6 Ni 1.000 0.000 1.000
O18 O 0.99959(16) 0.63170(11) 0.08418(9)
H10 H 0.9386 0.5939 0.5426
C19 C 0.7023(2) 0.58693(16) 0.22992(13)
H18 H 0.6515 0.6545 0.2178
C20 C 0.8053(2) 0.58242(16) 0.33037(13)
H19 H 0.8205 0.6453 0.3841
C21 C 0.8864(2) 0.48297(16) 0.35076(13)
C22 C 0.8607(2) 0.39367(16) 0.26571(14)
H20 H 0.9159 0.3274 0.2747
C23 C 0.7528(2) 0.40355(16) 0.16766(13)
H21 H 0.7355 0.342 0.1125
C24 C 0.9946(2) 0.46727(17) 0.45471(14)
H23 H 0.669(4) 0.050(3) 0.964(2)
V6 V 0.79402(4) 0.42040(2) 0.85922(2)
Ni5_7 Ni 1.000 1.000 -0.000
H24 H 0.663(4) 0.954(3) 0.007(2)
Ni5_8 Ni 1.000 1.000 1.000
O11 O 0.94085(17) 0.81669(11) 0.96700(9)
O12 O 0.84751(17) 0.58034(11) 0.85778(9)
O13 O 0.69294(17) 0.34532(11) 0.74162(9)
O14 O 0.72158(17) 0.99651(12) 0.97148(10)
V3 V 0.85707(4) 0.67711(2) 0.97466(2)
loop_
_geom_bond_atom_site_label_1
_geom_bond_atom_site_label_2
_geom_bond_site_symmetry_1
_geom_bond_site_symmetry_2
O1 Ni1 1_555 1_555
O2 Ni1 1_555 1_555
O4 Ni5 1_555 1_555
O5 V1 1_555 1_555
O6 V2 1_555 1_555
O7 Ni5 1_555 1_555
V1 O2 1_555 1_555
V2 O1 1_555 1_555
N6 Ni1 1_555 1_555
O4 V1 1_555 1_555
O5 V2 1_555 1_555
N2 C7 1_555 1_555
C7 H6 1_555 1_555
C8 C7 1_555 1_555
H7 C8 1_555 1_555
C9 C8 1_555 1_555
C10 C9 1_555 1_555
H8 C10 1_555 1_555
C11 N2 1_555 1_555
H9 C11 1_555 1_555
C12 C9 1_555 1_555
Ni1_2 N2 1_555 1_555
O15 Ni1_2 1_555 1_555
O16 Ni1_2 1_555 1_555
C10 C11 1_555 1_555
C4 C3 1_555 1_555
H3 C4 1_555 1_555
C5 N1 1_555 1_555
H4 C5 1_555 1_555
C6 C3 1_555 1_555
H5 C6 1_555 1_555
Ni5_3 N1 1_555 1_555
C13 H13 1_555 1_555
C14 C13 1_555 1_555
H14 C14 1_555 1_555
C4 C5 1_555 1_555
C1 H1 1_555 1_555
C2 C1 1_555 1_555
H2 C2 1_555 1_555
C16 C15 1_555 1_555
H15 C16 1_555 1_555
C17 N3 1_555 1_555
H16 C17 1_555 1_555
H17 C18 1_555 1_555
Ni5_6 N3 1_555 1_555
C15 C18 1_555 1_555
C16 C17 1_555 1_555
N6 C19 1_555 1_555
C19 H18 1_555 1_555
C20 C19 1_555 1_555
H19 C20 1_555 1_555
C21 C20 1_555 1_555
C22 C21 1_555 1_555
H20 C22 1_555 1_555
C23 N6 1_555 1_555
H21 C23 1_555 1_555
C21 C24 1_555 1_555
C22 C23 1_555 1_555
O15 V6 1_555 1_555
O16 V3 1_555 1_555
O11 Ni5_8 1_555 1_555
O12 V3 1_555 1_555
O13 V6 1_555 1_555
O14 Ni5_8 1_555 1_555
V3 O11 1_555 1_555
V6 O12 1_555 1_555

#END
