
###############################################################################
#
# This file contains modified crystal structure data generated from the
# MOF subset of the Cambridge Structural Database (CSD) v543 
# hosted by the Cambridge Crystallographic Data Centre (CCDC).
#
# This work is licensed under the Creative Commons
# Attribution-NonCommercial-ShareAlike 4.0 International License.
# To view a copy of this license, visit
# http://creativecommons.org/licenses/by-nc-sa/4.0/
# or send a letter to
# Creative Commons, PO Box 1866, Mountain View, CA 94042, USA.
#
# CIF created using the CSD Python API on 29 September 2022
# The structure has been converted into the P1 space group
# The structure has a 3D framework
# The original CSD entry DEYMOL is in the orthorhombic crystal system
# The original CSD entry DEYMOL is in a Sohncke space group
# The framework has been calculated to contain at least 10.0% void space
# The void calculation uses a probe of radius 1.32A, grid spacing 0.4
# The framework is charged, counterions have been retained in the structure
#
###############################################################################

data_DEYMOL
_chemical_formula_moiety         '(C74 H40 In4 O40 4-)n'
_symmetry_cell_setting           triclinic
_symmetry_space_group_name_H-M   'P 1'
_symmetry_Int_Tables_number      1
_space_group_name_Hall           'P 1'
loop_
_symmetry_equiv_pos_site_id
_symmetry_equiv_pos_as_xyz
1 x,y,z
_cell_length_a                   12.7321(15)
_cell_length_b                   13.5133(16)
_cell_length_c                   25.484(5)
_cell_angle_alpha                90
_cell_angle_beta                 90
_cell_angle_gamma                90
_cell_volume                     4384.59
loop_
_atom_site_label
_atom_site_type_symbol
_atom_site_fract_x
_atom_site_fract_y
_atom_site_fract_z
In1 In 0.0000 0.45818(2) 0.7500
O21 O 0.1255(2) 0.3189(4) 0.74661(18)
O22 O 0.0910(4) 0.4030(3) 0.8159(2)
O29 O 0.1010(4) 0.5148(3) 0.6869(2)
O31 O 0.1171(3) 0.5963(4) 0.75826(15)
In8 In 0.49931(4) 0.5000 0.0000
In1_2 In 1.0000 0.45818(2) 0.7500
In2 In 0.50069(4) 0.5000 0.5000
O1 O 0.8745(2) 0.3189(4) 0.75339(18)
O2 O 0.9090(4) 0.4030(3) 0.6841(2)
O3 O 0.6318(4) 0.4451(3) 0.5480(2)
O4 O 0.4909(3) 0.3587(4) 0.55437(13)
O9 O 0.5592(3) 0.1039(4) 0.69039(13)
C1 C 0.8550(4) 0.3392(4) 0.7071(2)
C2 C 0.7605(3) 0.2984(3) 0.67925(19)
C3 C 0.7229(4) 0.3470(4) 0.6359(2)
H1 H 0.7599 0.4002 0.6221
C4 C 0.6284(4) 0.3166(4) 0.61242(17)
C5 C 0.5768(3) 0.2363(4) 0.63201(16)
H2 H 0.5138 0.2164 0.6168
C6 C 0.6174(3) 0.1828(5) 0.67500(17)
C7 C 0.7091(3) 0.2152(4) 0.69892(18)
H3 H 0.7360 0.1817 0.7278
C8 C 0.5810(4) 0.3772(5) 0.56886(19)
C9 C 0.5924(3) 0.0487(5) 0.73411(17)
H4 H 0.6112 0.0924 0.7628
H5 H 0.6531 0.0088 0.7252
O13 O 0.3682(4) 0.4451(3) 0.9520(2)
O14 O 0.5091(3) 0.3587(4) 0.94563(13)
O19 O 0.4408(3) 0.1039(4) 0.80961(13)
C20 C 0.1450(4) 0.3392(4) 0.7929(2)
C21 C 0.2395(3) 0.2984(3) 0.82075(19)
C22 C 0.2771(4) 0.3470(4) 0.8641(2)
H11 H 0.2401 0.4002 0.8779
C23 C 0.3716(4) 0.3166(4) 0.88758(17)
C24 C 0.4232(3) 0.2363(4) 0.86799(16)
H12 H 0.4862 0.2164 0.8832
C25 C 0.3826(3) 0.1828(5) 0.82500(17)
C26 C 0.2909(3) 0.2152(4) 0.80108(18)
H13 H 0.2640 0.1817 0.7722
C27 C 0.4190(4) 0.3772(5) 0.93114(19)
C28 C 0.4076(3) 0.0487(5) 0.76589(17)
H14 H 0.3888 0.0924 0.7372
H15 H 0.3469 0.0088 0.7748
In8_2 In 0.49931(4) 0.5000 1.0000
O23 O 0.6318(4) 0.5549(3) 0.4520(2)
O24 O 0.4909(3) 0.6413(4) 0.44563(13)
O25 O 0.5109(3) 0.6386(5) 0.56566(13)
O26 O 0.5109(3) 0.3614(5) 0.43434(13)
O27 O 0.3732(6) 0.5521(3) 0.5488(2)
O28 O 0.3732(6) 0.4479(3) 0.4512(2)
O30 O 0.8990(4) 0.5148(3) 0.8131(2)
O32 O 0.8829(3) 0.5963(4) 0.74174(15)
O10 O 0.3830(3) 0.8569(4) 0.72133(13)
C10 C 0.5000 0.9821(6) 0.7500
C11 C 0.4667(3) 0.9171(5) 0.70350(16)
H6 H 0.4439 0.9580 0.6744
H7 H 0.5251 0.8764 0.6919
C12 C 0.3542(3) 0.7765(4) 0.69361(17)
C13 C 0.4022(4) 0.7438(4) 0.64767(17)
H8 H 0.4585 0.7784 0.6335
C14 C 0.3645(4) 0.6575(4) 0.62288(17)
C15 C 0.2793(4) 0.6088(4) 0.6426(2)
H9 H 0.2524 0.5544 0.6247
C16 C 0.2317(3) 0.6398(4) 0.68936(18)
C17 C 0.2694(4) 0.7231(4) 0.71466(18)
H10 H 0.2384 0.7438 0.7458
C18 C 0.4196(5) 0.6150(4) 0.5753(2)
C19 C 0.1444(4) 0.5823(4) 0.7131(2)
O15 O 0.4891(3) 0.6386(5) 0.93434(13)
O16 O 0.6268(6) 0.5521(3) 0.9512(2)
O20 O 0.6170(3) 0.8569(4) 0.77867(13)
C29 C 0.5333(3) 0.9171(5) 0.79650(16)
H16 H 0.5561 0.9580 0.8256
H17 H 0.4749 0.8764 0.8081
C30 C 0.6458(3) 0.7765(4) 0.80639(17)
C31 C 0.5978(4) 0.7438(4) 0.85233(17)
H18 H 0.5415 0.7784 0.8665
C32 C 0.6355(4) 0.6575(4) 0.87712(17)
C33 C 0.7207(4) 0.6088(4) 0.8574(2)
H19 H 0.7476 0.5544 0.8753
C34 C 0.7683(3) 0.6398(4) 0.81064(18)
C35 C 0.7306(4) 0.7231(4) 0.78534(18)
H20 H 0.7616 0.7438 0.7542
C36 C 0.5804(5) 0.6150(4) 0.9247(2)
C37 C 0.8556(4) 0.5823(4) 0.7869(2)
In3 In 0.0000 0.54182(2) 0.2500
O5 O 0.4891(3) 0.3614(5) 0.06566(13)
O6 O 0.6268(6) 0.4479(3) 0.0488(2)
O7 O 0.8990(4) 0.4852(3) 0.1869(2)
O8 O 0.8829(3) 0.4037(4) 0.25826(15)
O10_2 O 0.6170(3) 0.1431(4) 0.22133(13)
C10_2 C 0.5000 0.0179(6) 0.2500
C11_2 C 0.5333(3) 0.0829(5) 0.20350(16)
H6_2 H 0.5561 0.0420 0.1744
H7_2 H 0.4749 0.1236 0.1919
C12_2 C 0.6458(3) 0.2235(4) 0.19361(17)
C13_2 C 0.5978(4) 0.2562(4) 0.14767(17)
H8_2 H 0.5415 0.2216 0.1335
C14_2 C 0.6355(4) 0.3425(4) 0.12288(17)
C15_2 C 0.7207(4) 0.3912(4) 0.1426(2)
H9_2 H 0.7476 0.4456 0.1247
C16_2 C 0.7683(3) 0.3602(4) 0.18936(18)
C17_2 C 0.7306(4) 0.2769(4) 0.21466(18)
H10_2 H 0.7616 0.2562 0.2458
C18_2 C 0.5804(5) 0.3850(4) 0.0753(2)
C19_2 C 0.8556(4) 0.4177(4) 0.2131(2)
O17 O 0.1010(4) 0.4852(3) 0.3131(2)
O18 O 0.1171(3) 0.4037(4) 0.24174(15)
O20_2 O 0.3830(3) 0.1431(4) 0.27867(13)
C29_2 C 0.4667(3) 0.0829(5) 0.29650(16)
H16_2 H 0.4439 0.0420 0.3256
H17_2 H 0.5251 0.1236 0.3081
C30_2 C 0.3542(3) 0.2235(4) 0.30639(17)
C31_2 C 0.4022(4) 0.2562(4) 0.35233(17)
H18_2 H 0.4585 0.2216 0.3665
C32_2 C 0.3645(4) 0.3425(4) 0.37712(17)
C33_2 C 0.2793(4) 0.3912(4) 0.3574(2)
H19_2 H 0.2524 0.4456 0.3753
C34_2 C 0.2317(3) 0.3602(4) 0.31064(18)
C35_2 C 0.2694(4) 0.2769(4) 0.28534(18)
H20_2 H 0.2384 0.2562 0.2542
C36_2 C 0.4196(5) 0.3850(4) 0.4247(2)
C37_2 C 0.1444(4) 0.4177(4) 0.2869(2)
In3_2 In 1.0000 0.54182(2) 0.2500
O1_2 O 0.1255(2) 0.6811(4) 0.25339(18)
O2_2 O 0.0910(4) 0.5970(3) 0.1841(2)
O3_2 O 0.3682(4) 0.5549(3) 0.0480(2)
O4_2 O 0.5091(3) 0.6413(4) 0.05437(13)
O9_2 O 0.4408(3) 0.8961(4) 0.19039(13)
C1_2 C 0.1450(4) 0.6608(4) 0.2071(2)
C2_2 C 0.2395(3) 0.7016(3) 0.17925(19)
C3_2 C 0.2771(4) 0.6530(4) 0.1359(2)
H1_2 H 0.2401 0.5998 0.1221
C4_2 C 0.3716(4) 0.6834(4) 0.11242(17)
C5_2 C 0.4232(3) 0.7637(4) 0.13201(16)
H2_2 H 0.4862 0.7836 0.1168
C6_2 C 0.3826(3) 0.8172(5) 0.17500(17)
C7_2 C 0.2909(3) 0.7848(4) 0.19892(18)
H3_2 H 0.2640 0.8183 0.2278
C8_2 C 0.4190(4) 0.6228(5) 0.06886(19)
C9_2 C 0.4076(3) 0.9513(5) 0.23411(17)
H4_2 H 0.3888 0.9076 0.2628
H5_2 H 0.3469 0.9912 0.2252
O11 O 0.8745(2) 0.6811(4) 0.24661(18)
O12 O 0.9090(4) 0.5970(3) 0.3159(2)
O19_2 O 0.5592(3) 0.8961(4) 0.30961(13)
C20_2 C 0.8550(4) 0.6608(4) 0.2929(2)
C21_2 C 0.7605(3) 0.7016(3) 0.32075(19)
C22_2 C 0.7229(4) 0.6530(4) 0.3641(2)
H11_2 H 0.7599 0.5998 0.3779
C23_2 C 0.6284(4) 0.6834(4) 0.38758(17)
C24_2 C 0.5768(3) 0.7637(4) 0.36799(16)
H12_2 H 0.5138 0.7836 0.3832
C25_2 C 0.6174(3) 0.8172(5) 0.32500(17)
C26_2 C 0.7091(3) 0.7848(4) 0.30108(18)
H13_2 H 0.7360 0.8183 0.2722
C27_2 C 0.5810(4) 0.6228(5) 0.43114(19)
C28_2 C 0.5924(3) 0.9513(5) 0.26589(17)
H14_2 H 0.6112 0.9076 0.2372
H15_2 H 0.6531 0.9912 0.2748
loop_
_geom_bond_atom_site_label_1
_geom_bond_atom_site_label_2
_geom_bond_site_symmetry_1
_geom_bond_site_symmetry_2
O21 In1 1_555 1_555
O22 In1 1_555 1_555
O29 In1 1_555 1_555
O31 In1 1_555 1_555
In1_2 O1 1_555 1_555
In2 O3 1_555 1_555
O1 C1 1_555 1_555
O2 In1_2 1_555 1_555
O3 C8 1_555 1_555
O4 In2 1_555 1_555
O9 C6 1_555 1_555
C1 O2 1_555 1_555
C2 C1 1_555 1_555
C3 C2 1_555 1_555
H1 C3 1_555 1_555
C4 C3 1_555 1_555
C5 C4 1_555 1_555
H2 C5 1_555 1_555
C6 C5 1_555 1_555
C7 C2 1_555 1_555
H3 C7 1_555 1_555
C8 O4 1_555 1_555
C9 O9 1_555 1_555
H4 C9 1_555 1_555
H5 C9 1_555 1_555
O21 C20 1_555 1_555
O22 C20 1_555 1_555
O13 C27 1_555 1_555
O14 C27 1_555 1_555
O19 C25 1_555 1_555
C20 C21 1_555 1_555
C21 C22 1_555 1_555
C22 H11 1_555 1_555
C23 C22 1_555 1_555
C24 C23 1_555 1_555
H12 C24 1_555 1_555
C25 C24 1_555 1_555
C26 C21 1_555 1_555
H13 C26 1_555 1_555
C27 C23 1_555 1_555
H14 C28 1_555 1_555
H15 C28 1_555 1_555
In8_2 O13 1_555 1_555
O23 In2 1_555 1_555
O24 In2 1_555 1_555
O25 In2 1_555 1_555
O26 In2 1_555 1_555
O27 In2 1_555 1_555
O28 In2 1_555 1_555
O30 In1_2 1_555 1_555
O32 In1_2 1_555 1_555
C4 C8 1_555 1_555
C6 C7 1_555 1_555
O14 In8_2 1_555 1_555
O19 C28 1_555 1_555
C25 C26 1_555 1_555
O25 C18 1_555 1_555
O27 C18 1_555 1_555
O29 C19 1_555 1_555
O31 C19 1_555 1_555
O10 C11 1_555 1_555
C11 C10 1_555 1_555
H6 C11 1_555 1_555
H7 C11 1_555 1_555
C12 O10 1_555 1_555
C13 C12 1_555 1_555
H8 C13 1_555 1_555
C14 C13 1_555 1_555
C15 C14 1_555 1_555
H9 C15 1_555 1_555
C16 C15 1_555 1_555
C17 C12 1_555 1_555
H10 C17 1_555 1_555
C18 C14 1_555 1_555
C19 C16 1_555 1_555
O15 C36 1_555 1_555
O16 C36 1_555 1_555
O30 C37 1_555 1_555
O32 C37 1_555 1_555
O20 C29 1_555 1_555
C29 C10 1_555 1_555
H16 C29 1_555 1_555
H17 C29 1_555 1_555
C30 O20 1_555 1_555
C31 C30 1_555 1_555
H18 C31 1_555 1_555
C32 C31 1_555 1_555
C33 C32 1_555 1_555
H19 C33 1_555 1_555
C34 C33 1_555 1_555
C35 C30 1_555 1_555
H20 C35 1_555 1_555
C36 C32 1_555 1_555
C37 C34 1_555 1_555
In8_2 O15 1_555 1_555
C16 C17 1_555 1_555
O16 In8_2 1_555 1_555
C34 C35 1_555 1_555
O5 C18_2 1_555 1_555
O6 C18_2 1_555 1_555
O7 C19_2 1_555 1_555
O8 C19_2 1_555 1_555
O10_2 C11_2 1_555 1_555
C11_2 C10_2 1_555 1_555
H6_2 C11_2 1_555 1_555
H7_2 C11_2 1_555 1_555
C12_2 O10_2 1_555 1_555
C13_2 C12_2 1_555 1_555
H8_2 C13_2 1_555 1_555
C14_2 C13_2 1_555 1_555
C15_2 C14_2 1_555 1_555
H9_2 C15_2 1_555 1_555
C16_2 C15_2 1_555 1_555
C17_2 C12_2 1_555 1_555
H10_2 C17_2 1_555 1_555
C18_2 C14_2 1_555 1_555
C19_2 C16_2 1_555 1_555
O26 C36_2 1_555 1_555
O28 C36_2 1_555 1_555
O17 C37_2 1_555 1_555
O18 C37_2 1_555 1_555
O20_2 C29_2 1_555 1_555
C29_2 C10_2 1_555 1_555
H16_2 C29_2 1_555 1_555
H17_2 C29_2 1_555 1_555
C30_2 O20_2 1_555 1_555
C31_2 C30_2 1_555 1_555
H18_2 C31_2 1_555 1_555
C32_2 C31_2 1_555 1_555
C33_2 C32_2 1_555 1_555
H19_2 C33_2 1_555 1_555
C34_2 C33_2 1_555 1_555
C35_2 C30_2 1_555 1_555
H20_2 C35_2 1_555 1_555
C36_2 C32_2 1_555 1_555
C37_2 C34_2 1_555 1_555
In3_2 O7 1_555 1_555
In3 O17 1_555 1_555
In8 O5 1_555 1_555
O6 In8 1_555 1_555
O8 In3_2 1_555 1_555
C16_2 C17_2 1_555 1_555
O18 In3 1_555 1_555
C34_2 C35_2 1_555 1_555
In3 O1_2 1_555 1_555
In8 O3_2 1_555 1_555
O1_2 C1_2 1_555 1_555
O2_2 In3 1_555 1_555
O3_2 C8_2 1_555 1_555
O4_2 In8 1_555 1_555
O9_2 C6_2 1_555 1_555
C1_2 O2_2 1_555 1_555
C2_2 C1_2 1_555 1_555
C3_2 C2_2 1_555 1_555
H1_2 C3_2 1_555 1_555
C4_2 C3_2 1_555 1_555
C5_2 C4_2 1_555 1_555
H2_2 C5_2 1_555 1_555
C6_2 C5_2 1_555 1_555
C7_2 C2_2 1_555 1_555
H3_2 C7_2 1_555 1_555
C8_2 O4_2 1_555 1_555
C9_2 O9_2 1_555 1_555
H4_2 C9_2 1_555 1_555
H5_2 C9_2 1_555 1_555
O11 C20_2 1_555 1_555
O12 C20_2 1_555 1_555
O23 C27_2 1_555 1_555
O24 C27_2 1_555 1_555
O19_2 C25_2 1_555 1_555
C20_2 C21_2 1_555 1_555
C21_2 C22_2 1_555 1_555
C22_2 H11_2 1_555 1_555
C23_2 C22_2 1_555 1_555
C24_2 C23_2 1_555 1_555
H12_2 C24_2 1_555 1_555
C25_2 C24_2 1_555 1_555
C26_2 C21_2 1_555 1_555
H13_2 C26_2 1_555 1_555
C27_2 C23_2 1_555 1_555
H14_2 C28_2 1_555 1_555
H15_2 C28_2 1_555 1_555
In3_2 O11 1_555 1_555
C4_2 C8_2 1_555 1_555
C6_2 C7_2 1_555 1_555
O12 In3_2 1_555 1_555
O19_2 C28_2 1_555 1_555
C25_2 C26_2 1_555 1_555

#END
