
###############################################################################
#
# This file contains modified crystal structure data generated from the
# MOF subset of the Cambridge Structural Database (CSD) v543 
# hosted by the Cambridge Crystallographic Data Centre (CCDC).
#
# This work is licensed under the Creative Commons
# Attribution-NonCommercial-ShareAlike 4.0 International License.
# To view a copy of this license, visit
# http://creativecommons.org/licenses/by-nc-sa/4.0/
# or send a letter to
# Creative Commons, PO Box 1866, Mountain View, CA 94042, USA.
#
# CIF created using the CSD Python API on 29 September 2022
# The structure has been converted into the P1 space group
# The structure has a 3D framework
# The original CSD entry DEYNIG is in the orthorhombic crystal system
# The framework has been calculated to contain at least 10.0% void space
# The void calculation uses a probe of radius 1.32A, grid spacing 0.4
#
###############################################################################

data_DEYNIG
_chemical_formula_moiety         '(C80 H64 Cu18 I12 N32 O40)n'
_symmetry_cell_setting           triclinic
_symmetry_space_group_name_H-M   'P 1'
_symmetry_Int_Tables_number      1
_space_group_name_Hall           'P 1'
loop_
_symmetry_equiv_pos_site_id
_symmetry_equiv_pos_as_xyz
1 x,y,z
_cell_length_a                   7.6664(16)
_cell_length_b                   31.951(7)
_cell_length_c                   15.481(3)
_cell_angle_alpha                90
_cell_angle_beta                 90
_cell_angle_gamma                90
_cell_volume                     3792.06
loop_
_atom_site_label
_atom_site_type_symbol
_atom_site_fract_x
_atom_site_fract_y
_atom_site_fract_z
I1 I 0.26219(14) 0.47671(3) 0.44965(7)
I2 I 0.25562(15) 0.45223(4) 0.17904(7)
Cu1 Cu 0.0856(3) 0.43826(6) 0.32572(14)
Cu3 Cu 0.2509(3) 0.22911(6) 0.37368(15)
O1 O 0.0223(15) 0.2070(4) 0.3988(9)
O2 O 0.4840(15) 0.2541(3) 0.3663(9)
O4 O 0.6185(16) 0.3156(4) 0.3536(12)
N1 N 0.3295(17) 0.1724(4) 0.4118(10)
N2 N 0.1718(17) 0.2890(4) 0.3675(10)
C1 C 0.488(2) 0.1553(5) 0.4132(13)
H1 H 0.5829 0.1708 0.3938
C2 C 0.485(2) 0.2943(5) 0.3598(13)
C3 C 0.021(2) 0.1703(6) 0.4311(12)
N3 N 0.3785(16) 0.0914(4) 0.4681(9)
N4 N 0.1267(16) 0.3744(4) 0.3466(9)
C4 C 0.514(2) 0.1152(5) 0.4428(10)
H2 H 0.6263 0.1043 0.4452
O5 O 0.2457(18) 0.2188(4) 0.2314(9)
H3 H 0.2711 0.2187 0.1780
H4 H 0.1490 0.2059 0.2372
C5 C 0.3107(18) 0.3147(5) 0.3595(10)
C6 C 0.287(2) 0.3574(5) 0.3495(11)
H5 H 0.3843 0.3747 0.3446
C8 C 0.013(2) 0.3061(5) 0.3670(12)
C9 C 0.2199(19) 0.1089(5) 0.4670(10)
H8 H 0.1250 0.0942 0.4887
C10 C 0.1957(19) 0.1481(5) 0.4346(10)
Cu5 Cu 0.0781(3) 0.46589(6) 0.03052(15)
Cu6 Cu 0.4219(3) 0.03411(6) 0.53052(15)
Cu7 Cu 0.0781(3) 0.53411(6) 0.53052(15)
Cu2 Cu 0.9219(3) 0.46589(6) 0.46948(15)
O3 O 0.8890(16) 0.1511(4) 0.4538(10)
C7 C 0.993(2) 0.3479(5) 0.3576(11)
H6 H 0.8801 0.3588 0.3588
H7 H 0.9153 0.2890 0.3731
I3 I 0.73781(14) 0.52329(3) 0.55035(7)
I4 I 0.74438(15) 0.45223(4) 0.32096(7)
Cu4 Cu 0.9144(3) 0.43826(6) 0.17428(14)
N5 N 0.8785(16) 0.4086(4) 0.5319(9)
N5_2 N 0.6215(16) 0.0914(4) 0.0319(9)
I1_2 I 0.23781(14) 0.02329(3) 0.94965(7)
I2_2 I 0.24438(15) 0.04777(4) 0.67904(7)
Cu1_2 Cu 0.4144(3) 0.06174(6) 0.82572(14)
Cu2_2 Cu 0.5781(3) 0.03411(6) 0.96948(15)
Cu3_2 Cu 0.2491(3) 0.27089(6) 0.87368(15)
O1_2 O 0.4777(15) 0.2930(4) 0.8988(9)
O2_2 O 0.0160(15) 0.2459(3) 0.8663(9)
O3_2 O 0.6110(16) 0.3489(4) 0.9538(10)
N1_2 N 0.1705(17) 0.3276(4) 0.9118(10)
N2_2 N 0.3282(17) 0.2110(4) 0.8675(10)
C1_2 C 0.012(2) 0.3447(5) 0.9132(13)
C2_2 C 0.015(2) 0.2057(5) 0.8598(13)
C3_2 C 0.479(2) 0.3297(6) 0.9311(12)
N3_2 N 0.1215(16) 0.4086(4) 0.9681(9)
N4_2 N 0.3733(16) 0.1256(4) 0.8466(9)
O5_2 O 0.2543(18) 0.2812(4) 0.7314(9)
H3_2 H 0.2289 0.2813 0.6780
H4_2 H 0.3510 0.2941 0.7372
C5_2 C 0.1893(18) 0.1853(5) 0.8595(10)
C6_2 C 0.213(2) 0.1426(5) 0.8495(11)
H5_2 H 0.1157 0.1253 0.8446
C7_2 C 0.507(2) 0.1521(5) 0.8576(11)
H6_2 H 0.6199 0.1412 0.8588
C8_2 C 0.487(2) 0.1939(5) 0.8670(12)
H7_2 H 0.5847 0.2110 0.8731
C9_2 C 0.2801(19) 0.3911(5) 0.9670(10)
H8_2 H 0.3750 0.4058 0.9887
C10_2 C 0.3043(19) 0.3519(5) 0.9346(10)
I4_2 I 0.75562(15) 0.04777(4) 0.82096(7)
Cu4_2 Cu 0.5856(3) 0.06174(6) 0.67428(14)
I3_2 I 0.76219(14) 0.97671(3) 0.05035(7)
Cu7_2 Cu 0.4219(3) 0.96589(6) 0.03052(15)
O3_3 O 0.1110(16) 0.1511(4) 0.0462(10)
C7_3 C 0.007(2) 0.3479(5) 0.1424(11)
H6_3 H 0.1199 0.3588 0.1412
H7_3 H 0.0847 0.2890 0.1269
I3_3 I 0.26219(14) 0.52329(3) 0.94965(7)
I1_3 I 0.73781(14) 0.47671(3) 0.05035(7)
Cu3_3 Cu 0.7491(3) 0.22911(6) 0.12632(15)
O1_3 O 0.9777(15) 0.2070(4) 0.1012(9)
O2_3 O 0.5160(15) 0.2541(3) 0.1337(9)
O4_2 O 0.3815(16) 0.3156(4) 0.1464(12)
N1_3 N 0.6705(17) 0.1724(4) 0.0882(10)
N2_3 N 0.8282(17) 0.2890(4) 0.1325(10)
C1_3 C 0.512(2) 0.1553(5) 0.0868(13)
H1_2 H 0.4171 0.1708 0.1062
C2_3 C 0.515(2) 0.2943(5) 0.1402(13)
C3_3 C 0.979(2) 0.1703(6) 0.0689(12)
N4_3 N 0.8733(16) 0.3744(4) 0.1534(9)
C4_2 C 0.486(2) 0.1152(5) 0.0572(10)
H2_2 H 0.3737 0.1043 0.0548
O5_3 O 0.7543(18) 0.2188(4) 0.2686(9)
H3_3 H 0.7289 0.2187 0.3220
H4_3 H 0.8510 0.2059 0.2628
C5_3 C 0.6893(18) 0.3147(5) 0.1405(10)
C6_3 C 0.713(2) 0.3574(5) 0.1505(11)
H5_3 H 0.6157 0.3747 0.1554
C8_3 C 0.987(2) 0.3061(5) 0.1330(12)
C9_3 C 0.7801(19) 0.1089(5) 0.0330(10)
H8_3 H 0.8750 0.0942 0.0113
C10_3 C 0.8043(19) 0.1481(5) 0.0654(10)
Cu7_3 Cu 0.9219(3) 0.53411(6) 0.96948(15)
I1_4 I 0.76219(14) 0.02329(3) 0.55035(7)
Cu3_4 Cu 0.7509(3) 0.27089(6) 0.62632(15)
O1_4 O 0.5223(15) 0.2930(4) 0.6012(9)
O2_4 O 0.9840(15) 0.2459(3) 0.6337(9)
O3_4 O 0.3890(16) 0.3489(4) 0.5462(10)
N1_4 N 0.8295(17) 0.3276(4) 0.5882(10)
N2_4 N 0.6718(17) 0.2110(4) 0.6325(10)
C1_4 C 0.988(2) 0.3447(5) 0.5868(13)
C2_4 C 0.985(2) 0.2057(5) 0.6402(13)
C3_4 C 0.521(2) 0.3297(6) 0.5689(12)
N4_4 N 0.6267(16) 0.1256(4) 0.6534(9)
O5_4 O 0.7457(18) 0.2812(4) 0.7686(9)
H3_4 H 0.7711 0.2813 0.8220
H4_4 H 0.6490 0.2941 0.7628
C5_4 C 0.8107(18) 0.1853(5) 0.6405(10)
C6_4 C 0.787(2) 0.1426(5) 0.6505(11)
H5_4 H 0.8843 0.1253 0.6554
C7_4 C 0.493(2) 0.1521(5) 0.6424(11)
H6_4 H 0.3801 0.1412 0.6412
C8_4 C 0.513(2) 0.1939(5) 0.6330(12)
H7_4 H 0.4153 0.2110 0.6269
C9_4 C 0.7199(19) 0.3911(5) 0.5330(10)
H8_4 H 0.6250 0.4058 0.5113
C10_4 C 0.6957(19) 0.3519(5) 0.5654(10)
I3_4 I 0.23781(14) 0.97671(3) 0.44965(7)
Cu7_4 Cu 0.5781(3) 0.96589(6) 0.46948(15)
O3_5 O 0.1110(16) 0.8489(4) 0.5462(10)
C7_5 C 0.007(2) 0.6521(5) 0.6424(11)
H6_5 H 0.1199 0.6412 0.6412
H7_5 H 0.0847 0.7110 0.6269
I4_3 I 0.25562(15) 0.54777(4) 0.67904(7)
Cu4_3 Cu 0.0856(3) 0.56174(6) 0.82572(14)
N5_3 N 0.1215(16) 0.5914(4) 0.4681(9)
I2_3 I 0.74438(15) 0.54777(4) 0.82096(7)
Cu1_3 Cu 0.9144(3) 0.56174(6) 0.67428(14)
Cu3_5 Cu 0.7491(3) 0.77089(6) 0.62632(15)
O1_5 O 0.9777(15) 0.7930(4) 0.6012(9)
O2_5 O 0.5160(15) 0.7459(3) 0.6337(9)
O4_3 O 0.3815(16) 0.6844(4) 0.6464(12)
N1_5 N 0.6705(17) 0.8276(4) 0.5882(10)
N2_5 N 0.8282(17) 0.7110(4) 0.6325(10)
C1_5 C 0.512(2) 0.8447(5) 0.5868(13)
H1_3 H 0.4171 0.8292 0.6062
C2_5 C 0.515(2) 0.7057(5) 0.6402(13)
C3_5 C 0.979(2) 0.8297(6) 0.5689(12)
N3_3 N 0.6215(16) 0.9086(4) 0.5319(9)
N4_5 N 0.8733(16) 0.6256(4) 0.6534(9)
C4_3 C 0.486(2) 0.8848(5) 0.5572(10)
H2_3 H 0.3737 0.8957 0.5548
O5_5 O 0.7543(18) 0.7812(4) 0.7686(9)
H3_5 H 0.7289 0.7813 0.8220
H4_5 H 0.8510 0.7941 0.7628
C5_5 C 0.6893(18) 0.6853(5) 0.6405(10)
C6_5 C 0.713(2) 0.6426(5) 0.6505(11)
H5_5 H 0.6157 0.6253 0.6554
C8_5 C 0.987(2) 0.6939(5) 0.6330(12)
C9_5 C 0.7801(19) 0.8911(5) 0.5330(10)
H8_5 H 0.8750 0.9058 0.5113
C10_5 C 0.8043(19) 0.8519(5) 0.5654(10)
I2_4 I 0.75562(15) 0.95223(4) 0.32096(7)
Cu1_4 Cu 0.5856(3) 0.93826(6) 0.17428(14)
Cu3_6 Cu 0.7509(3) 0.72911(6) 0.12632(15)
O1_6 O 0.5223(15) 0.7070(4) 0.1012(9)
O2_6 O 0.9840(15) 0.7541(3) 0.1337(9)
O3_6 O 0.3890(16) 0.6511(4) 0.0462(10)
N1_6 N 0.8295(17) 0.6724(4) 0.0882(10)
N2_6 N 0.6718(17) 0.7890(4) 0.1325(10)
C1_6 C 0.988(2) 0.6553(5) 0.0868(13)
C2_6 C 0.985(2) 0.7943(5) 0.1402(13)
C3_6 C 0.521(2) 0.6703(6) 0.0689(12)
N3_4 N 0.8785(16) 0.5914(4) 0.0319(9)
N4_6 N 0.6267(16) 0.8744(4) 0.1534(9)
O5_6 O 0.7457(18) 0.7188(4) 0.2686(9)
H3_6 H 0.7711 0.7187 0.3220
H4_6 H 0.6490 0.7059 0.2628
C5_6 C 0.8107(18) 0.8147(5) 0.1405(10)
C6_6 C 0.787(2) 0.8574(5) 0.1505(11)
H5_6 H 0.8843 0.8747 0.1554
C7_6 C 0.493(2) 0.8479(5) 0.1424(11)
H6_6 H 0.3801 0.8588 0.1412
C8_6 C 0.513(2) 0.8061(5) 0.1330(12)
H7_6 H 0.4153 0.7890 0.1269
C9_6 C 0.7199(19) 0.6089(5) 0.0330(10)
H8_6 H 0.6250 0.5942 0.0113
C10_6 C 0.6957(19) 0.6481(5) 0.0654(10)
I4_4 I 0.24438(15) 0.95223(4) 0.17904(7)
Cu4_4 Cu 0.4144(3) 0.93826(6) 0.32572(14)
N5_4 N 0.3785(16) 0.9086(4) 0.9681(9)
Cu3_7 Cu 0.2509(3) 0.77089(6) 0.87368(15)
O1_7 O 0.0223(15) 0.7930(4) 0.8988(9)
O2_7 O 0.4840(15) 0.7459(3) 0.8663(9)
O4_4 O 0.6185(16) 0.6844(4) 0.8536(12)
N1_7 N 0.3295(17) 0.8276(4) 0.9118(10)
N2_7 N 0.1718(17) 0.7110(4) 0.8675(10)
C1_7 C 0.488(2) 0.8447(5) 0.9132(13)
H1_4 H 0.5829 0.8292 0.8938
C2_7 C 0.485(2) 0.7057(5) 0.8598(13)
C3_7 C 0.021(2) 0.8297(6) 0.9311(12)
N4_7 N 0.1267(16) 0.6256(4) 0.8466(9)
C4_4 C 0.514(2) 0.8848(5) 0.9428(10)
H2_4 H 0.6263 0.8957 0.9452
O5_7 O 0.2457(18) 0.7812(4) 0.7314(9)
H3_7 H 0.2711 0.7813 0.6780
H4_7 H 0.1490 0.7941 0.7372
C5_7 C 0.3107(18) 0.6853(5) 0.8595(10)
C6_7 C 0.287(2) 0.6426(5) 0.8495(11)
H5_7 H 0.3843 0.6253 0.8446
C8_7 C 0.013(2) 0.6939(5) 0.8670(12)
C9_7 C 0.2199(19) 0.8911(5) 0.9670(10)
H8_7 H 0.1250 0.9058 0.9887
C10_7 C 0.1957(19) 0.8519(5) 0.9346(10)
O3_7 O 0.8890(16) 0.8489(4) 0.9538(10)
C7_7 C 0.993(2) 0.6521(5) 0.8576(11)
H6_7 H 0.8801 0.6412 0.8588
H7_7 H 0.9153 0.7110 0.8731
Cu3_8 Cu 0.2491(3) 0.72911(6) 0.37368(15)
O1_8 O 0.4777(15) 0.7070(4) 0.3988(9)
O2_8 O 0.0160(15) 0.7541(3) 0.3663(9)
O3_8 O 0.6110(16) 0.6511(4) 0.4538(10)
N1_8 N 0.1705(17) 0.6724(4) 0.4118(10)
N2_8 N 0.3282(17) 0.7890(4) 0.3675(10)
C1_8 C 0.012(2) 0.6553(5) 0.4132(13)
C2_8 C 0.015(2) 0.7943(5) 0.3598(13)
C3_8 C 0.479(2) 0.6703(6) 0.4311(12)
N4_8 N 0.3733(16) 0.8744(4) 0.3466(9)
O5_8 O 0.2543(18) 0.7188(4) 0.2314(9)
H3_8 H 0.2289 0.7187 0.1780
H4_8 H 0.3510 0.7059 0.2372
C5_8 C 0.1893(18) 0.8147(5) 0.3595(10)
C6_8 C 0.213(2) 0.8574(5) 0.3495(11)
H5_8 H 0.1157 0.8747 0.3446
C7_8 C 0.507(2) 0.8479(5) 0.3576(11)
H6_8 H 0.6199 0.8588 0.3588
C8_8 C 0.487(2) 0.8061(5) 0.3670(12)
H7_8 H 0.5847 0.7890 0.3731
C9_8 C 0.2801(19) 0.6089(5) 0.4670(10)
H8_8 H 0.3750 0.5942 0.4887
C10_8 C 0.3043(19) 0.6481(5) 0.4346(10)
O4_5 O 0.8815(16) 0.1844(4) 0.8536(12)
H1_5 H 0.9171 0.3292 0.8938
C4_5 C 0.986(2) 0.3848(5) 0.9428(10)
H2_5 H 0.8737 0.3957 0.9452
O4_6 O 0.1185(16) 0.1844(4) 0.6464(12)
H1_6 H 0.0829 0.3292 0.6062
C4_6 C 0.014(2) 0.3848(5) 0.5572(10)
H2_6 H 0.1263 0.3957 0.5548
O4_7 O 0.1185(16) 0.8156(4) 0.1464(12)
H1_7 H 0.0829 0.6708 0.1062
C4_7 C 0.014(2) 0.6152(5) 0.0572(10)
H2_7 H 0.1263 0.6043 0.0548
O4_8 O 0.8815(16) 0.8156(4) 0.3536(12)
H1_8 H 0.9171 0.6708 0.3938
C4_8 C 0.986(2) 0.6152(5) 0.4428(10)
H2_8 H 0.8737 0.6043 0.4452
loop_
_geom_bond_atom_site_label_1
_geom_bond_atom_site_label_2
_geom_bond_site_symmetry_1
_geom_bond_site_symmetry_2
I1 Cu1 1_555 1_555
I2 Cu1 1_555 1_555
Cu1 N4 1_555 1_555
Cu3 O1 1_555 1_555
O1 C3 1_555 1_555
O2 Cu3 1_555 1_555
O4 C2 1_555 1_555
N1 Cu3 1_555 1_555
N2 Cu3 1_555 1_555
C1 N1 1_555 1_555
H1 C1 1_555 1_555
C2 O2 1_555 1_555
C3 C10 1_555 1_555
N3 C4 1_555 1_555
N4 C6 1_555 1_555
C4 C1 1_555 1_555
H2 C4 1_555 1_555
O5 Cu3 1_555 1_555
H3 O5 1_555 1_555
H4 O5 1_555 1_555
C5 N2 1_555 1_555
C6 C5 1_555 1_555
H5 C6 1_555 1_555
C8 N2 1_555 1_555
C9 N3 1_555 1_555
H8 C9 1_555 1_555
C10 N1 1_555 1_555
Cu5 I2 1_555 1_555
Cu6 N3 1_555 1_555
Cu7 I1 1_555 1_555
C2 C5 1_555 1_555
C9 C10 1_555 1_555
H6 C7 1_555 1_555
I3 Cu2 1_555 1_555
N5 Cu2 1_555 1_555
Cu2 I4 1_555 1_555
I4 Cu4 1_555 1_555
I1_2 Cu1_2 1_555 1_555
I2_2 Cu1_2 1_555 1_555
Cu1_2 N4_2 1_555 1_555
Cu2_2 I1_2 1_555 1_555
Cu3_2 O1_2 1_555 1_555
O1_2 C3_2 1_555 1_555
O2_2 Cu3_2 1_555 1_555
O3_2 C3_2 1_555 1_555
N1_2 Cu3_2 1_555 1_555
N2_2 Cu3_2 1_555 1_555
C1_2 N1_2 1_555 1_555
C2_2 O2_2 1_555 1_555
C3_2 C10_2 1_555 1_555
N4_2 C6_2 1_555 1_555
O5_2 Cu3_2 1_555 1_555
H3_2 O5_2 1_555 1_555
H4_2 O5_2 1_555 1_555
C5_2 N2_2 1_555 1_555
C6_2 C5_2 1_555 1_555
H5_2 C6_2 1_555 1_555
C7_2 N4_2 1_555 1_555
H6_2 C7_2 1_555 1_555
C8_2 N2_2 1_555 1_555
H7_2 C8_2 1_555 1_555
C9_2 N3_2 1_555 1_555
H8_2 C9_2 1_555 1_555
C10_2 N1_2 1_555 1_555
I4_2 Cu1_2 1_555 1_555
Cu4_2 I2_2 1_555 1_555
Cu6 I2_2 1_555 1_555
Cu2_2 I4_2 1_555 1_555
C2_2 C5_2 1_555 1_555
C7_2 C8_2 1_555 1_555
C9_2 C10_2 1_555 1_555
I4_2 Cu4_2 1_555 1_555
I3_2 Cu7_2 1_555 1_555
H6_3 C7_3 1_555 1_555
I1_3 Cu4 1_555 1_555
Cu4 N4_3 1_555 1_555
Cu3_3 O1_3 1_555 1_555
O1_3 C3_3 1_555 1_555
O2_3 Cu3_3 1_555 1_555
O4_2 C2_3 1_555 1_555
N1_3 Cu3_3 1_555 1_555
N2_3 Cu3_3 1_555 1_555
C1_3 N1_3 1_555 1_555
H1_2 C1_3 1_555 1_555
C2_3 O2_3 1_555 1_555
C3_3 C10_3 1_555 1_555
N5_2 C4_2 1_555 1_555
N4_3 C6_3 1_555 1_555
C4_2 C1_3 1_555 1_555
H2_2 C4_2 1_555 1_555
O5_3 Cu3_3 1_555 1_555
H3_3 O5_3 1_555 1_555
H4_3 O5_3 1_555 1_555
C5_3 N2_3 1_555 1_555
C6_3 C5_3 1_555 1_555
H5_3 C6_3 1_555 1_555
C8_3 N2_3 1_555 1_555
C9_3 N5_2 1_555 1_555
H8_3 C9_3 1_555 1_555
C10_3 N1_3 1_555 1_555
C2_3 C5_3 1_555 1_555
C9_3 C10_3 1_555 1_555
I1_4 Cu4_2 1_555 1_555
Cu4_2 N4_4 1_555 1_555
Cu6 I1_4 1_555 1_555
Cu3_4 O1_4 1_555 1_555
O1_4 C3_4 1_555 1_555
O2_4 Cu3_4 1_555 1_555
O3_4 C3_4 1_555 1_555
N1_4 Cu3_4 1_555 1_555
N2_4 Cu3_4 1_555 1_555
C1_4 N1_4 1_555 1_555
C2_4 O2_4 1_555 1_555
C3_4 C10_4 1_555 1_555
N4_4 C6_4 1_555 1_555
O5_4 Cu3_4 1_555 1_555
H3_4 O5_4 1_555 1_555
H4_4 O5_4 1_555 1_555
C5_4 N2_4 1_555 1_555
C6_4 C5_4 1_555 1_555
H5_4 C6_4 1_555 1_555
C7_4 N4_4 1_555 1_555
H6_4 C7_4 1_555 1_555
C8_4 N2_4 1_555 1_555
H7_4 C8_4 1_555 1_555
C9_4 N5 1_555 1_555
H8_4 C9_4 1_555 1_555
C10_4 N1_4 1_555 1_555
C2_4 C5_4 1_555 1_555
C7_4 C8_4 1_555 1_555
C9_4 C10_4 1_555 1_555
I3_4 Cu7_4 1_555 1_555
H6_5 C7_5 1_555 1_555
N5_3 Cu7 1_555 1_555
Cu7 I4_3 1_555 1_555
I4_3 Cu4_3 1_555 1_555
I3 Cu1_3 1_555 1_555
I2_3 Cu1_3 1_555 1_555
Cu1_3 N4_5 1_555 1_555
Cu3_5 O1_5 1_555 1_555
O1_5 C3_5 1_555 1_555
O2_5 Cu3_5 1_555 1_555
O4_3 C2_5 1_555 1_555
N1_5 Cu3_5 1_555 1_555
N2_5 Cu3_5 1_555 1_555
C1_5 N1_5 1_555 1_555
H1_3 C1_5 1_555 1_555
C2_5 O2_5 1_555 1_555
C3_5 C10_5 1_555 1_555
N3_3 C4_3 1_555 1_555
N4_5 C6_5 1_555 1_555
C4_3 C1_5 1_555 1_555
H2_3 C4_3 1_555 1_555
O5_5 Cu3_5 1_555 1_555
H3_5 O5_5 1_555 1_555
H4_5 O5_5 1_555 1_555
C5_5 N2_5 1_555 1_555
C6_5 C5_5 1_555 1_555
H5_5 C6_5 1_555 1_555
C8_5 N2_5 1_555 1_555
C9_5 N3_3 1_555 1_555
H8_5 C9_5 1_555 1_555
C10_5 N1_5 1_555 1_555
Cu7_3 I2_3 1_555 1_555
Cu7_4 N3_3 1_555 1_555
C2_5 C5_5 1_555 1_555
C9_5 C10_5 1_555 1_555
I3_2 Cu1_4 1_555 1_555
I2_4 Cu1_4 1_555 1_555
Cu1_4 N4_6 1_555 1_555
Cu3_6 O1_6 1_555 1_555
O1_6 C3_6 1_555 1_555
O2_6 Cu3_6 1_555 1_555
O3_6 C3_6 1_555 1_555
N1_6 Cu3_6 1_555 1_555
N2_6 Cu3_6 1_555 1_555
C1_6 N1_6 1_555 1_555
C2_6 O2_6 1_555 1_555
C3_6 C10_6 1_555 1_555
N4_6 C6_6 1_555 1_555
O5_6 Cu3_6 1_555 1_555
H3_6 O5_6 1_555 1_555
H4_6 O5_6 1_555 1_555
C5_6 N2_6 1_555 1_555
C6_6 C5_6 1_555 1_555
H5_6 C6_6 1_555 1_555
C7_6 N4_6 1_555 1_555
H6_6 C7_6 1_555 1_555
C8_6 N2_6 1_555 1_555
H7_6 C8_6 1_555 1_555
C9_6 N3_4 1_555 1_555
H8_6 C9_6 1_555 1_555
C10_6 N1_6 1_555 1_555
I4_4 Cu1_4 1_555 1_555
Cu4_4 I2_4 1_555 1_555
Cu7_4 I2_4 1_555 1_555
Cu7_2 I4_4 1_555 1_555
C2_6 C5_6 1_555 1_555
C7_6 C8_6 1_555 1_555
C9_6 C10_6 1_555 1_555
I4_4 Cu4_4 1_555 1_555
I3_3 Cu4_3 1_555 1_555
Cu4_3 N4_7 1_555 1_555
Cu3_7 O1_7 1_555 1_555
O1_7 C3_7 1_555 1_555
O2_7 Cu3_7 1_555 1_555
O4_4 C2_7 1_555 1_555
N1_7 Cu3_7 1_555 1_555
N2_7 Cu3_7 1_555 1_555
C1_7 N1_7 1_555 1_555
H1_4 C1_7 1_555 1_555
C2_7 O2_7 1_555 1_555
C3_7 C10_7 1_555 1_555
N5_4 C4_4 1_555 1_555
N4_7 C6_7 1_555 1_555
C4_4 C1_7 1_555 1_555
H2_4 C4_4 1_555 1_555
O5_7 Cu3_7 1_555 1_555
H3_7 O5_7 1_555 1_555
H4_7 O5_7 1_555 1_555
C5_7 N2_7 1_555 1_555
C6_7 C5_7 1_555 1_555
H5_7 C6_7 1_555 1_555
C8_7 N2_7 1_555 1_555
C9_7 N5_4 1_555 1_555
H8_7 C9_7 1_555 1_555
C10_7 N1_7 1_555 1_555
C2_7 C5_7 1_555 1_555
C9_7 C10_7 1_555 1_555
H6_7 C7_7 1_555 1_555
I3_4 Cu4_4 1_555 1_555
Cu4_4 N4_8 1_555 1_555
Cu3_8 O1_8 1_555 1_555
O1_8 C3_8 1_555 1_555
O2_8 Cu3_8 1_555 1_555
O3_8 C3_8 1_555 1_555
N1_8 Cu3_8 1_555 1_555
N2_8 Cu3_8 1_555 1_555
C1_8 N1_8 1_555 1_555
C2_8 O2_8 1_555 1_555
C3_8 C10_8 1_555 1_555
N4_8 C6_8 1_555 1_555
O5_8 Cu3_8 1_555 1_555
H3_8 O5_8 1_555 1_555
H4_8 O5_8 1_555 1_555
C5_8 N2_8 1_555 1_555
C6_8 C5_8 1_555 1_555
H5_8 C6_8 1_555 1_555
C7_8 N4_8 1_555 1_555
H6_8 C7_8 1_555 1_555
C8_8 N2_8 1_555 1_555
H7_8 C8_8 1_555 1_555
C9_8 N5_3 1_555 1_555
H8_8 C9_8 1_555 1_555
C10_8 N1_8 1_555 1_555
C2_8 C5_8 1_555 1_555
C7_8 C8_8 1_555 1_555
C9_8 C10_8 1_555 1_555
H2_5 C4_5 1_555 1_555
H2_6 C4_6 1_555 1_555
H2_7 C4_7 1_555 1_555
H2_8 C4_8 1_555 1_555

#END
