
###############################################################################
#
# This file contains modified crystal structure data generated from the
# MOF subset of the Cambridge Structural Database (CSD) v543 
# hosted by the Cambridge Crystallographic Data Centre (CCDC).
#
# This work is licensed under the Creative Commons
# Attribution-NonCommercial-ShareAlike 4.0 International License.
# To view a copy of this license, visit
# http://creativecommons.org/licenses/by-nc-sa/4.0/
# or send a letter to
# Creative Commons, PO Box 1866, Mountain View, CA 94042, USA.
#
# CIF created using the CSD Python API on 29 September 2022
# The structure has been converted into the P1 space group
# The structure has a 3D framework
# The original CSD entry DEYVUA is in the tetragonal crystal system
# The original CSD entry DEYVUA is in a Sohncke space group
# The framework has been calculated to contain at least 10.0% void space
# The void calculation uses a probe of radius 1.32A, grid spacing 0.4
#
###############################################################################

data_DEYVUA
_chemical_formula_moiety         '(C104 H56 N8 O22 Zn8)n'
_symmetry_cell_setting           triclinic
_symmetry_space_group_name_H-M   'P 1'
_symmetry_Int_Tables_number      1
_space_group_name_Hall           'P 1'
loop_
_symmetry_equiv_pos_site_id
_symmetry_equiv_pos_as_xyz
1 x,y,z
_cell_length_a                   13.4641(2)
_cell_length_b                   13.4641(2)
_cell_length_c                   23.3751(4)
_cell_angle_alpha                90
_cell_angle_beta                 90
_cell_angle_gamma                90
_cell_volume                     4237.48
loop_
_atom_site_label
_atom_site_type_symbol
_atom_site_fract_x
_atom_site_fract_y
_atom_site_fract_z
O1 O 0.2062(4) 0.7122(5) 0.1758(3)
O2 O 0.1659(4) 0.6597(6) 0.2633(3)
C1 C 0.1451(6) 0.6910(6) 0.2146(4)
C2 C 0.0368(6) 0.7053(7) 0.2019(3)
C6 C 0.0057(6) 0.7348(6) 0.1486(3)
H3 H 0.0527 0.7442 0.1199
Zn3 Zn 0.29571(8) 0.64210(7) 0.30864(4)
Zn5 Zn 0.35790(7) 0.70429(8) 0.19136(4)
Zn1 Zn 0.85790(7) 0.79571(8) 0.05864(4)
O3 O 0.4903(4) 0.6868(5) 0.2308(3)
O4 O 0.4444(5) 0.6535(6) 0.3197(3)
C3 C 0.9669(6) 0.6904(8) 0.2442(4)
H1 H 0.9869 0.6681 0.2801
C4 C 0.8667(7) 0.7083(8) 0.2337(4)
C5 C 0.8422(7) 0.7392(7) 0.1781(4)
H2 H 0.7760 0.7526 0.1698
C7 C 0.7879(7) 0.6963(10) 0.2773(4)
C8 C 0.6884(7) 0.6877(8) 0.2615(4)
H4 H 0.6722 0.6876 0.2229
C9 C 0.6125(7) 0.6792(9) 0.3018(4)
C10 C 0.6389(9) 0.6793(13) 0.3584(5)
H5 H 0.5896 0.6721 0.3860
C11 C 0.7351(10) 0.6897(18) 0.3755(6)
H6 H 0.7504 0.6896 0.4143
C12 C 0.8106(9) 0.7005(16) 0.3353(5)
H7 H 0.8758 0.7105 0.3472
C13 C 0.5087(7) 0.6719(7) 0.2828(4)
N1 N 0.9093(5) 0.7503(5) 0.1366(3)
O5 O 0.7062(4) 0.7878(5) 0.0742(3)
O6 O 0.8403(6) 0.6659(4) 0.0133(3)
O7 O 0.9903(4) 0.8132(5) 0.0192(3)
O8 O 0.8465(6) 0.9444(5) 0.0697(3)
Zn1_2 Zn 0.14210(7) 0.20429(8) 0.55864(4)
O3_2 O 0.5097(4) 0.3132(5) 0.7308(3)
O4_2 O 0.5556(5) 0.3465(6) 0.8197(3)
C3_2 C 0.0331(6) 0.3096(8) 0.7442(4)
H1_2 H 0.0131 0.3319 0.7801
C4_2 C 0.1333(7) 0.2917(8) 0.7337(4)
C5_2 C 0.1578(7) 0.2608(7) 0.6781(4)
H2_2 H 0.2240 0.2474 0.6698
C7_2 C 0.2121(7) 0.3037(10) 0.7773(4)
C8_2 C 0.3116(7) 0.3123(8) 0.7615(4)
H4_2 H 0.3278 0.3124 0.7229
C9_2 C 0.3875(7) 0.3208(9) 0.8018(4)
C10_2 C 0.3611(9) 0.3207(13) 0.8584(5)
H5_2 H 0.4104 0.3279 0.8860
C11_2 C 0.2649(10) 0.3103(18) 0.8755(6)
H6_2 H 0.2496 0.3104 0.9143
C12_2 C 0.1894(9) 0.2995(16) 0.8353(5)
H7_2 H 0.1242 0.2895 0.8472
C13_2 C 0.4913(7) 0.3281(7) 0.7828(4)
N1_2 N 0.0907(5) 0.2497(5) 0.6366(3)
Zn2 Zn 0.70429(8) 0.35790(7) 0.80864(4)
Zn4 Zn 0.64210(7) 0.29571(8) 0.69136(4)
O5_2 O 0.2938(4) 0.2122(5) 0.5742(3)
O6_2 O 0.1597(6) 0.3341(4) 0.5133(3)
O7_2 O 0.0097(4) 0.1868(5) 0.5192(3)
O8_2 O 0.1535(6) 0.0556(5) 0.5697(3)
O1_2 O 0.7938(4) 0.2878(5) 0.6758(3)
O2_2 O 0.8341(4) 0.3403(6) 0.7633(3)
C1_2 C 0.8549(6) 0.3090(6) 0.7146(4)
C2_2 C 0.9632(6) 0.2947(7) 0.7019(3)
C6_2 C 0.9943(6) 0.2652(6) 0.6486(3)
H3_2 H 0.9473 0.2558 0.6199
H1_3 H 0.8319 0.4869 0.0301
C7_3 C 0.8037(10) 0.2879(7) 0.0273(4)
C8_3 C 0.8123(8) 0.1884(7) 0.0115(4)
C9_3 C 0.8208(9) 0.1125(7) 0.0518(4)
C10_3 C 0.8207(13) 0.1389(9) 0.1084(5)
H5_3 H 0.8279 0.0896 0.1360
C11_3 C 0.8103(18) 0.2351(10) 0.1255(6)
H6_3 H 0.8104 0.2504 0.1643
C12_3 C 0.7995(16) 0.3106(9) 0.0853(5)
H7_3 H 0.7895 0.3758 0.0972
C13_3 C 0.8281(7) 0.0087(7) 0.0328(4)
O1_3 O 0.7878(5) 0.7062(4) 0.9258(3)
C1_3 C 0.8090(6) 0.6451(6) 0.9646(4)
C2_3 C 0.7947(7) 0.5368(6) 0.9519(3)
C3_3 C 0.8096(8) 0.4669(6) 0.9942(4)
C4_3 C 0.7917(8) 0.3667(7) 0.9837(4)
C5_3 C 0.7608(7) 0.3422(7) 0.9281(4)
H2_3 H 0.7474 0.2760 0.9198
C6_3 C 0.7652(6) 0.5057(6) 0.8986(3)
H3_3 H 0.7558 0.5527 0.8699
H4_3 H 0.8124 0.1722 0.9729
N1_3 N 0.7497(5) 0.4093(5) 0.8866(3)
Zn5_2 Zn 0.79571(8) 0.85790(7) 0.94136(4)
O5_3 O 0.7122(5) 0.2062(4) 0.8242(3)
O7_3 O 0.6868(5) 0.4903(4) 0.7692(3)
O3_3 O 0.8132(5) 0.9903(4) 0.9808(3)
O3_4 O 0.1868(5) 0.0097(4) 0.4808(3)
Zn4_2 Zn 0.20429(8) 0.14210(7) 0.44136(4)
O1_4 O 0.2122(5) 0.2938(4) 0.4258(3)
C1_4 C 0.1910(6) 0.3549(6) 0.4646(4)
C2_4 C 0.2053(7) 0.4632(6) 0.4519(3)
C3_4 C 0.1904(8) 0.5331(6) 0.4942(4)
H1_4 H 0.1681 0.5131 0.5301
C4_4 C 0.2083(8) 0.6333(7) 0.4837(4)
C5_4 C 0.2392(7) 0.6578(7) 0.4281(4)
H2_4 H 0.2526 0.7240 0.4198
C6_4 C 0.2348(6) 0.4943(6) 0.3986(3)
H3_4 H 0.2442 0.4473 0.3699
C7_4 C 0.1963(10) 0.7121(7) 0.5273(4)
C8_4 C 0.1877(8) 0.8116(7) 0.5115(4)
H4_4 H 0.1876 0.8278 0.4729
C9_4 C 0.1792(9) 0.8875(7) 0.5518(4)
C10_4 C 0.1793(13) 0.8611(9) 0.6084(5)
H5_4 H 0.1721 0.9104 0.6360
C11_4 C 0.1897(18) 0.7649(10) 0.6255(6)
H6_4 H 0.1896 0.7496 0.6643
C12_4 C 0.2005(16) 0.6894(9) 0.5853(5)
H7_4 H 0.2105 0.6242 0.5972
C13_4 C 0.1719(7) 0.9913(7) 0.5328(4)
N1_4 N 0.2503(5) 0.5907(5) 0.3866(3)
O5_4 O 0.2878(5) 0.7938(4) 0.3242(3)
O7_4 O 0.3132(5) 0.5097(4) 0.2692(3)
O4_3 O 0.0556(5) 0.1535(6) 0.4303(3)
O2_3 O 0.3341(4) 0.1597(6) 0.4867(3)
C1_5 C 0.3549(6) 0.1910(6) 0.5354(4)
C2_5 C 0.4632(6) 0.2053(7) 0.5481(3)
C3_5 C 0.5331(6) 0.1904(8) 0.5058(4)
H1_5 H 0.5131 0.1681 0.4699
C4_5 C 0.6333(7) 0.2083(8) 0.5163(4)
C5_5 C 0.6578(7) 0.2392(7) 0.5719(4)
H2_5 H 0.7240 0.2526 0.5802
C6_5 C 0.4943(6) 0.2348(6) 0.6014(3)
H3_5 H 0.4473 0.2442 0.6301
C7_5 C 0.7121(7) 0.1963(10) 0.4727(4)
C8_5 C 0.8116(7) 0.1877(8) 0.4885(4)
H4_5 H 0.8278 0.1876 0.5271
C9_5 C 0.8875(7) 0.1792(9) 0.4482(4)
C10_5 C 0.8611(9) 0.1793(13) 0.3916(5)
H5_5 H 0.9104 0.1721 0.3640
C11_5 C 0.7649(10) 0.1897(18) 0.3745(6)
H6_5 H 0.7496 0.1896 0.3357
C12_5 C 0.6894(9) 0.2005(16) 0.4147(5)
H7_5 H 0.6242 0.2105 0.4028
C13_5 C 0.9913(7) 0.1719(7) 0.4672(4)
N1_5 N 0.5907(5) 0.2503(5) 0.6134(3)
O6_3 O 0.6597(6) 0.1659(4) 0.7367(3)
O8_3 O 0.6535(6) 0.4444(5) 0.6803(3)
C1_6 C 0.6451(6) 0.8090(6) 0.0354(4)
C2_6 C 0.5368(6) 0.7947(7) 0.0481(3)
C3_6 C 0.4669(6) 0.8096(8) 0.0058(4)
C4_6 C 0.3667(7) 0.7917(8) 0.0163(4)
C5_6 C 0.3422(7) 0.7608(7) 0.0719(4)
H2_6 H 0.2760 0.7474 0.0802
C6_6 C 0.5057(6) 0.7652(6) 0.1014(3)
H3_6 H 0.5527 0.7558 0.1301
H4_6 H 0.1722 0.8124 0.0271
N1_6 N 0.4093(5) 0.7497(5) 0.1134(3)
O6_4 O 0.3403(6) 0.8341(4) 0.2367(3)
O8_4 O 0.3465(6) 0.5556(5) 0.1803(3)
O2_4 O 0.6659(4) 0.8403(6) 0.9867(3)
H1_6 H 0.4869 0.8319 0.9699
C7_6 C 0.2879(7) 0.8037(10) 0.9727(4)
C8_6 C 0.1884(7) 0.8123(8) 0.9885(4)
C9_6 C 0.1125(7) 0.8208(9) 0.9482(4)
C10_6 C 0.1389(9) 0.8207(13) 0.8916(5)
H5_6 H 0.0896 0.8279 0.8640
C11_6 C 0.2351(10) 0.8103(18) 0.8745(6)
H6_6 H 0.2504 0.8104 0.8357
C12_6 C 0.3106(9) 0.7995(16) 0.9147(5)
H7_6 H 0.3758 0.7895 0.9028
C13_6 C 0.0087(7) 0.8281(7) 0.9672(4)
O4_4 O 0.9444(5) 0.8465(6) 0.9303(3)
C1_7 C 0.6910(6) 0.1451(6) 0.7854(4)
C2_7 C 0.7053(7) 0.0368(6) 0.7981(3)
C6_7 C 0.7348(6) 0.0057(6) 0.8514(3)
H3_7 H 0.7442 0.0527 0.8801
C3_7 C 0.6904(8) 0.9669(6) 0.7558(4)
H1_7 H 0.6681 0.9869 0.7199
C4_7 C 0.7083(8) 0.8667(7) 0.7663(4)
C5_7 C 0.7392(7) 0.8422(7) 0.8219(4)
H2_7 H 0.7526 0.7760 0.8302
C7_7 C 0.6963(10) 0.7879(7) 0.7227(4)
C8_7 C 0.6877(8) 0.6884(7) 0.7385(4)
H4_7 H 0.6876 0.6722 0.7771
C9_7 C 0.6792(9) 0.6125(7) 0.6982(4)
C10_7 C 0.6793(13) 0.6389(9) 0.6416(5)
H5_7 H 0.6721 0.5896 0.6140
C11_7 C 0.6897(18) 0.7351(10) 0.6245(6)
H6_7 H 0.6896 0.7504 0.5857
C12_7 C 0.7005(16) 0.8106(9) 0.6647(5)
H7_7 H 0.7105 0.8758 0.6528
C13_7 C 0.6719(7) 0.5087(7) 0.7172(4)
N1_7 N 0.7503(5) 0.9093(5) 0.8634(3)
C3_8 C 0.3096(8) 0.0331(6) 0.2558(4)
H1_8 H 0.3319 0.0131 0.2199
C4_8 C 0.2917(8) 0.1333(7) 0.2663(4)
C5_8 C 0.2608(7) 0.1578(7) 0.3219(4)
H2_8 H 0.2474 0.2240 0.3302
C7_8 C 0.3037(10) 0.2121(7) 0.2227(4)
C8_8 C 0.3123(8) 0.3116(7) 0.2385(4)
H4_8 H 0.3124 0.3278 0.2771
C9_8 C 0.3208(9) 0.3875(7) 0.1982(4)
C10_8 C 0.3207(13) 0.3611(9) 0.1416(5)
H5_8 H 0.3279 0.4104 0.1140
C11_8 C 0.3103(18) 0.2649(10) 0.1245(6)
H6_8 H 0.3104 0.2496 0.0857
C12_8 C 0.2995(16) 0.1894(9) 0.1647(5)
H7_8 H 0.2895 0.1242 0.1528
C13_8 C 0.3281(7) 0.4913(7) 0.2172(4)
N1_8 N 0.2497(5) 0.0907(5) 0.3634(3)
C1_8 C 0.3090(6) 0.8549(6) 0.2854(4)
C2_8 C 0.2947(7) 0.9632(6) 0.2981(3)
C6_8 C 0.2652(6) 0.9943(6) 0.3514(3)
H3_8 H 0.2558 0.9473 0.3801
loop_
_geom_bond_atom_site_label_1
_geom_bond_atom_site_label_2
_geom_bond_site_symmetry_1
_geom_bond_site_symmetry_2
O1 C1 1_555 1_555
O2 C1 1_555 1_555
C1 C2 1_555 1_555
C6 C2 1_555 1_555
H3 C6 1_555 1_555
Zn3 O2 1_555 1_555
Zn5 O1 1_555 1_555
Zn1 N1 1_555 1_555
O3 C13 1_555 1_555
O4 C13 1_555 1_555
C3 H1 1_555 1_555
C4 C3 1_555 1_555
C5 C4 1_555 1_555
H2 C5 1_555 1_555
C7 C4 1_555 1_555
C8 C7 1_555 1_555
H4 C8 1_555 1_555
C9 C8 1_555 1_555
C10 C9 1_555 1_555
H5 C10 1_555 1_555
C11 C10 1_555 1_555
H6 C11 1_555 1_555
C12 C7 1_555 1_555
H7 C12 1_555 1_555
C13 C9 1_555 1_555
N1 C5 1_555 1_555
Zn3 O4 1_555 1_555
Zn5 O3 1_555 1_555
O5 Zn1 1_555 1_555
O6 Zn1 1_555 1_555
O7 Zn1 1_555 1_555
O8 Zn1 1_555 1_555
C11 C12 1_555 1_555
Zn1_2 N1_2 1_555 1_555
O3_2 C13_2 1_555 1_555
O4_2 C13_2 1_555 1_555
C3_2 H1_2 1_555 1_555
C4_2 C3_2 1_555 1_555
C5_2 C4_2 1_555 1_555
H2_2 C5_2 1_555 1_555
C7_2 C4_2 1_555 1_555
C8_2 C7_2 1_555 1_555
H4_2 C8_2 1_555 1_555
C9_2 C8_2 1_555 1_555
C10_2 C9_2 1_555 1_555
H5_2 C10_2 1_555 1_555
C11_2 C10_2 1_555 1_555
H6_2 C11_2 1_555 1_555
C12_2 C7_2 1_555 1_555
H7_2 C12_2 1_555 1_555
C13_2 C9_2 1_555 1_555
N1_2 C5_2 1_555 1_555
Zn2 O4_2 1_555 1_555
Zn4 O3_2 1_555 1_555
O5_2 Zn1_2 1_555 1_555
O6_2 Zn1_2 1_555 1_555
O7_2 Zn1_2 1_555 1_555
O8_2 Zn1_2 1_555 1_555
C11_2 C12_2 1_555 1_555
O1_2 C1_2 1_555 1_555
O2_2 C1_2 1_555 1_555
C1_2 C2_2 1_555 1_555
C6_2 C2_2 1_555 1_555
H3_2 C6_2 1_555 1_555
Zn2 O2_2 1_555 1_555
Zn4 O1_2 1_555 1_555
C8_3 C7_3 1_555 1_555
C9_3 C8_3 1_555 1_555
C10_3 C9_3 1_555 1_555
H5_3 C10_3 1_555 1_555
C11_3 C10_3 1_555 1_555
H6_3 C11_3 1_555 1_555
C12_3 C7_3 1_555 1_555
H7_3 C12_3 1_555 1_555
C13_3 C9_3 1_555 1_555
C11_3 C12_3 1_555 1_555
Zn2 N1_3 1_555 1_555
O1_3 C1_3 1_555 1_555
C1_3 C2_3 1_555 1_555
C2_3 C3_3 1_555 1_555
C4_3 C3_3 1_555 1_555
C5_3 C4_3 1_555 1_555
H2_3 C5_3 1_555 1_555
C6_3 C2_3 1_555 1_555
H3_3 C6_3 1_555 1_555
N1_3 C5_3 1_555 1_555
Zn5_2 O1_3 1_555 1_555
O5_3 Zn2 1_555 1_555
O7_3 Zn2 1_555 1_555
C6_3 N1_3 1_555 1_555
Zn5_2 O3_3 1_555 1_555
Zn4_2 O3_4 1_555 1_555
Zn3 N1_4 1_555 1_555
O1_4 C1_4 1_555 1_555
O6_2 C1_4 1_555 1_555
C1_4 C2_4 1_555 1_555
C2_4 C3_4 1_555 1_555
C3_4 H1_4 1_555 1_555
C4_4 C3_4 1_555 1_555
C5_4 C4_4 1_555 1_555
H2_4 C5_4 1_555 1_555
C6_4 C2_4 1_555 1_555
H3_4 C6_4 1_555 1_555
C7_4 C4_4 1_555 1_555
C8_4 C7_4 1_555 1_555
H4_4 C8_4 1_555 1_555
C9_4 C8_4 1_555 1_555
C10_4 C9_4 1_555 1_555
H5_4 C10_4 1_555 1_555
C11_4 C10_4 1_555 1_555
H6_4 C11_4 1_555 1_555
C12_4 C7_4 1_555 1_555
H7_4 C12_4 1_555 1_555
C13_4 C9_4 1_555 1_555
N1_4 C5_4 1_555 1_555
Zn4_2 O1_4 1_555 1_555
O5_4 Zn3 1_555 1_555
O7_4 Zn3 1_555 1_555
C6_4 N1_4 1_555 1_555
C11_4 C12_4 1_555 1_555
Zn4_2 O4_3 1_555 1_555
Zn4 N1_5 1_555 1_555
O5_2 C1_5 1_555 1_555
O2_3 C1_5 1_555 1_555
C1_5 C2_5 1_555 1_555
C2_5 C3_5 1_555 1_555
C3_5 H1_5 1_555 1_555
C4_5 C3_5 1_555 1_555
C5_5 C4_5 1_555 1_555
H2_5 C5_5 1_555 1_555
C6_5 C2_5 1_555 1_555
H3_5 C6_5 1_555 1_555
C7_5 C4_5 1_555 1_555
C8_5 C7_5 1_555 1_555
H4_5 C8_5 1_555 1_555
C9_5 C8_5 1_555 1_555
C10_5 C9_5 1_555 1_555
H5_5 C10_5 1_555 1_555
C11_5 C10_5 1_555 1_555
H6_5 C11_5 1_555 1_555
C12_5 C7_5 1_555 1_555
H7_5 C12_5 1_555 1_555
C13_5 C9_5 1_555 1_555
N1_5 C5_5 1_555 1_555
Zn4_2 O2_3 1_555 1_555
O6_3 Zn4 1_555 1_555
O8_3 Zn4 1_555 1_555
C6_5 N1_5 1_555 1_555
C11_5 C12_5 1_555 1_555
Zn5 N1_6 1_555 1_555
O5 C1_6 1_555 1_555
C1_6 C2_6 1_555 1_555
C2_6 C3_6 1_555 1_555
C4_6 C3_6 1_555 1_555
C5_6 C4_6 1_555 1_555
H2_6 C5_6 1_555 1_555
C6_6 C2_6 1_555 1_555
H3_6 C6_6 1_555 1_555
N1_6 C5_6 1_555 1_555
O6_4 Zn5 1_555 1_555
O8_4 Zn5 1_555 1_555
C6_6 N1_6 1_555 1_555
C8_6 C7_6 1_555 1_555
C9_6 C8_6 1_555 1_555
C10_6 C9_6 1_555 1_555
H5_6 C10_6 1_555 1_555
C11_6 C10_6 1_555 1_555
H6_6 C11_6 1_555 1_555
C12_6 C7_6 1_555 1_555
H7_6 C12_6 1_555 1_555
C13_6 C9_6 1_555 1_555
Zn5_2 O2_4 1_555 1_555
C11_6 C12_6 1_555 1_555
Zn5_2 O4_4 1_555 1_555
O5_3 C1_7 1_555 1_555
O6_3 C1_7 1_555 1_555
C1_7 C2_7 1_555 1_555
C6_7 C2_7 1_555 1_555
H3_7 C6_7 1_555 1_555
Zn5_2 N1_7 1_555 1_555
O7_3 C13_7 1_555 1_555
O8_3 C13_7 1_555 1_555
C3_7 H1_7 1_555 1_555
C4_7 C3_7 1_555 1_555
C5_7 C4_7 1_555 1_555
H2_7 C5_7 1_555 1_555
C7_7 C4_7 1_555 1_555
C8_7 C7_7 1_555 1_555
H4_7 C8_7 1_555 1_555
C9_7 C8_7 1_555 1_555
C10_7 C9_7 1_555 1_555
H5_7 C10_7 1_555 1_555
C11_7 C10_7 1_555 1_555
H6_7 C11_7 1_555 1_555
C12_7 C7_7 1_555 1_555
H7_7 C12_7 1_555 1_555
C13_7 C9_7 1_555 1_555
N1_7 C5_7 1_555 1_555
C11_7 C12_7 1_555 1_555
Zn4_2 N1_8 1_555 1_555
O7_4 C13_8 1_555 1_555
O8_4 C13_8 1_555 1_555
C3_8 H1_8 1_555 1_555
C4_8 C3_8 1_555 1_555
C5_8 C4_8 1_555 1_555
H2_8 C5_8 1_555 1_555
C7_8 C4_8 1_555 1_555
C8_8 C7_8 1_555 1_555
H4_8 C8_8 1_555 1_555
C9_8 C8_8 1_555 1_555
C10_8 C9_8 1_555 1_555
H5_8 C10_8 1_555 1_555
C11_8 C10_8 1_555 1_555
H6_8 C11_8 1_555 1_555
C12_8 C7_8 1_555 1_555
H7_8 C12_8 1_555 1_555
C13_8 C9_8 1_555 1_555
N1_8 C5_8 1_555 1_555
C11_8 C12_8 1_555 1_555
O5_4 C1_8 1_555 1_555
O6_4 C1_8 1_555 1_555
C1_8 C2_8 1_555 1_555
C6_8 C2_8 1_555 1_555
H3_8 C6_8 1_555 1_555

#END
