
###############################################################################
#
# This file contains modified crystal structure data generated from the
# MOF subset of the Cambridge Structural Database (CSD) v543 
# hosted by the Cambridge Crystallographic Data Centre (CCDC).
#
# This work is licensed under the Creative Commons
# Attribution-NonCommercial-ShareAlike 4.0 International License.
# To view a copy of this license, visit
# http://creativecommons.org/licenses/by-nc-sa/4.0/
# or send a letter to
# Creative Commons, PO Box 1866, Mountain View, CA 94042, USA.
#
# CIF created using the CSD Python API on 29 September 2022
# The structure has been converted into the P1 space group
# The structure has a 3D framework
# The original CSD entry DEYXIQ is in the monoclinic crystal system
# The framework has been calculated to contain at least 10.0% void space
# The void calculation uses a probe of radius 1.32A, grid spacing 0.4
#
###############################################################################

data_DEYXIQ
_chemical_formula_moiety         '(C72 H60 Co13 O62)n'
_symmetry_cell_setting           triclinic
_symmetry_space_group_name_H-M   'P 1'
_symmetry_Int_Tables_number      1
_space_group_name_Hall           'P 1'
loop_
_symmetry_equiv_pos_site_id
_symmetry_equiv_pos_as_xyz
1 x,y,z
_cell_length_a                   10.5379(12)
_cell_length_b                   32.858(4)
_cell_length_c                   7.9030(9)
_cell_angle_alpha                90
_cell_angle_beta                 99.6070(10)
_cell_angle_gamma                90
_cell_volume                     2698.07
loop_
_atom_site_label
_atom_site_type_symbol
_atom_site_fract_x
_atom_site_fract_y
_atom_site_fract_z
Co3 Co 0.5000 0.5000 -0.0000
O16 O 0.3663(2) 0.54133(8) 0.0615(3)
H15 H 0.3717 0.5666 0.0401
H16 H 0.3536 0.5376 0.1638
Co4 Co 0.48049(4) 0.250183(13) 0.05326(6)
C33 C 0.2339(3) 0.29600(9) 0.0196(4)
O20 O 0.2464(2) 0.30451(8) 0.1738(3)
O25 O 0.2658(2) 0.44847(8) 0.1199(3)
O28 O 0.3604(2) 0.20507(7) 0.1181(3)
H23 H 0.3505 0.2083 0.2218
H24 H 0.3819 0.1805 0.1049
H25 H 0.5989 0.3184 0.0110
O33 O 0.6379(2) 0.21745(7) 0.1626(3)
O36 O 0.6482(2) 0.53595(7) 0.1095(3)
O37 O 0.4808(2) 0.27842(7) 0.3037(3)
O39 O 0.5054(2) 0.47135(7) 0.2524(3)
Co2 Co 0.5000 0.5000 0.5000
Co3_2 Co 0.5000 0.5000 1.0000
C3 C 0.0862(3) 0.73667(10) 0.2306(5)
H2 H 0.1300 0.7611 0.2565
C4 C 0.1430(3) 0.70029(10) 0.2942(4)
C5 C 0.0767(3) 0.66372(10) 0.2533(4)
C6 C 0.1414(3) 0.62433(10) 0.2986(4)
C7 C 0.0637(3) 0.58634(10) 0.2813(4)
C8 C 0.1185(3) 0.54982(10) 0.3485(4)
C9 C 0.0483(3) 0.51397(10) 0.3162(5)
H3 H 0.0836 0.4895 0.3611
C16 C 0.2730(3) 0.70258(9) 0.4093(4)
C17 C 0.2497(3) 0.54681(10) 0.4588(5)
O1 O 0.2584(2) 0.62229(7) 0.3400(3)
O5 O 0.3621(2) 0.71745(7) 0.3374(3)
O6 O 0.2848(2) 0.69334(7) 0.5628(3)
O7 O 0.2654(2) 0.55941(7) 0.6092(3)
O8 O 0.3339(2) 0.52821(7) 0.3889(3)
O14 O 0.6082(2) 0.54806(7) 0.4247(3)
H11 H 0.6755 0.5536 0.4962
H12 H 0.6248 0.5457 0.3235
O15 O 0.4946(2) 0.52865(7) 0.7476(3)
H13 H 0.5624 0.5431 0.7685
H14 H 0.4272 0.5430 0.7192
C19 C 0.1028(3) 0.29894(10) 0.9076(4)
C20 C 0.0343(3) 0.26291(10) 0.8704(5)
H17 H 0.0699 0.2384 0.9138
C28 C 0.0737(3) 0.48570(10) 0.7821(5)
H20 H 0.1188 0.5100 0.8037
C29 C 0.1291(3) 0.44957(10) 0.8486(4)
C30 C 0.0614(3) 0.41313(10) 0.8143(4)
C31 C 0.1250(3) 0.37384(10) 0.8707(4)
C32 C 0.0480(3) 0.33577(10) 0.8444(4)
C36 C 0.2582(3) 0.45291(9) 0.9642(4)
O18 O 0.2391(2) 0.37254(7) 0.9288(4)
O19 O 0.3224(2) 0.28196(7) 0.9440(3)
O26 O 0.3518(2) 0.46405(7) 0.8905(3)
O27 O 0.4808(2) 0.22158(7) 0.8037(3)
H21 H 0.5453 0.2059 0.8285
H22 H 0.4106 0.2087 0.7737
O29 O 0.6064(2) 0.29335(7) 0.9877(3)
H26 H 0.6229 0.2908 0.8865
O30 O 0.3918(2) 0.45194(7) 0.5753(3)
H27 H 0.3245 0.4464 0.5038
H28 H 0.3752 0.4543 0.6765
H29 H 0.4376 0.4569 0.2315
H30 H 0.5728 0.4570 0.2808
O32 O 0.6337(2) 0.45867(8) 0.9385(3)
H31 H 0.6283 0.4334 0.9599
H32 H 0.6464 0.4624 0.8362
Co6 Co 0.48049(4) 0.249817(13) 0.55326(6)
Co8 Co 0.51951(4) 0.750183(13) 0.44674(6)
O35 O 0.6661(2) 0.47179(7) 0.6111(3)
C1 C 0.8972(3) 0.70106(10) 0.0924(4)
C2 C 0.9657(3) 0.73709(10) 0.1296(5)
H1 H 0.9301 0.7616 0.0862
C10 C 0.9263(3) 0.51430(10) 0.2179(5)
H4 H 0.8812 0.4900 0.1963
C11 C 0.8709(3) 0.55043(10) 0.1514(4)
C12 C 0.9386(3) 0.58687(10) 0.1857(4)
C13 C 0.8750(3) 0.62616(10) 0.1293(4)
C14 C 0.9520(3) 0.66423(10) 0.1556(4)
C18 C 0.7418(3) 0.54709(9) 0.0358(4)
O2 O 0.7609(2) 0.62746(7) 0.0712(4)
O3 O 0.6776(2) 0.71804(7) 0.0560(3)
O11 O 0.5192(2) 0.77842(7) 0.1963(3)
H5 H 0.4547 0.7941 0.1715
H6 H 0.5894 0.7913 0.2263
O13 O 0.3936(2) 0.70665(7) 0.0123(3)
H10 H 0.3771 0.7092 0.1135
C21 C 0.9138(3) 0.26333(10) 0.7694(5)
H18 H 0.8700 0.2389 0.7435
C22 C 0.8570(3) 0.29971(10) 0.7058(4)
C23 C 0.9233(3) 0.33628(10) 0.7467(4)
C24 C 0.8586(3) 0.37567(10) 0.7014(4)
C25 C 0.9363(3) 0.41366(10) 0.7187(4)
C26 C 0.8815(3) 0.45018(10) 0.6515(4)
C27 C 0.9517(3) 0.48603(10) 0.6838(5)
H19 H 0.9164 0.5105 0.6389
C34 C 0.7270(3) 0.29742(9) 0.5907(4)
C35 C 0.7503(3) 0.45319(10) 0.5412(5)
O17 O 0.7416(2) 0.37771(7) 0.6600(3)
O21 O 0.6379(2) 0.28255(7) 0.6626(3)
O22 O 0.7152(2) 0.30666(7) 0.4372(3)
O23 O 0.7346(2) 0.44059(7) 0.3908(3)
Co1 Co 0.51951(4) 0.749817(13) 0.94674(6)
C15 C 0.7661(3) 0.70400(9) 0.9804(4)
O4 O 0.7536(2) 0.69549(8) 0.8262(3)
O9 O 0.7342(2) 0.55153(8) 0.8801(3)
O12 O 0.6396(2) 0.79493(7) 0.8819(3)
H7 H 0.6495 0.7917 0.7782
H8 H 0.6181 0.8195 0.8951
H9 H 0.4011 0.6816 0.9890
O34 O 0.3621(2) 0.78255(7) 0.8374(3)
O38 O 0.5192(2) 0.72158(7) 0.6963(3)
C1_2 C 0.1028(3) 0.20106(10) 0.4076(4)
C2_2 C 0.0343(3) 0.23709(10) 0.3704(5)
H1_2 H 0.0699 0.2616 0.4138
C10_2 C 0.0737(3) 0.01430(10) 0.2821(5)
C11_2 C 0.1291(3) 0.05043(10) 0.3486(4)
C12_2 C 0.0614(3) 0.08687(10) 0.3143(4)
C13_2 C 0.1250(3) 0.12616(10) 0.3707(4)
C14_2 C 0.0480(3) 0.16423(10) 0.3444(4)
C15_2 C 0.2339(3) 0.20400(9) 0.5196(4)
C18_2 C 0.2582(3) 0.04709(9) 0.4642(4)
O2_2 O 0.2391(2) 0.12746(7) 0.4288(4)
O3_2 O 0.3224(2) 0.21804(7) 0.4440(3)
O4_2 O 0.2464(2) 0.19549(8) 0.6738(3)
O9_2 O 0.2658(2) 0.05153(8) 0.6199(3)
O10 O 0.3518(2) 0.03595(7) 0.3905(3)
H5_2 H 0.5453 0.2941 0.3285
H6_2 H 0.4106 0.2913 0.2737
O12_2 O 0.3604(2) 0.29493(7) 0.6181(3)
H7_2 H 0.3505 0.2917 0.7218
H8_2 H 0.3819 0.3195 0.6049
O13_2 O 0.6064(2) 0.20665(7) 0.4877(3)
H9_2 H 0.5989 0.1816 0.5110
H10_2 H 0.6229 0.2092 0.3865
Co9 Co 0.5000 -0.0000 0.0000
Co10 Co 0.5000 -0.0000 0.5000
H19_2 H 0.0836 0.0105 0.8611
Co9_2 Co 0.5000 -0.0000 1.0000
H4_2 H 0.1188 0.9900 0.3037
O22_2 O 0.2848(2) 0.80666(7) 0.0628(3)
O23_2 O 0.2654(2) 0.94059(7) 0.1092(3)
Co9_3 Co 0.5000 1.0000 0.0000
Co10_2 Co 0.5000 1.0000 0.5000
C21_2 C 0.0862(3) 0.76333(10) 0.7306(5)
H18_2 H 0.1300 0.7389 0.7565
C22_2 C 0.1430(3) 0.79971(10) 0.7942(4)
C23_2 C 0.0767(3) 0.83628(10) 0.7533(4)
C24_2 C 0.1414(3) 0.87567(10) 0.7986(4)
C25_2 C 0.0637(3) 0.91366(10) 0.7813(4)
C26_2 C 0.1185(3) 0.95018(10) 0.8485(4)
C27_2 C 0.0483(3) 0.98603(10) 0.8162(5)
C34_2 C 0.2730(3) 0.79742(9) 0.9093(4)
C35_2 C 0.2497(3) 0.95319(10) 0.9588(5)
O17_2 O 0.2584(2) 0.87771(7) 0.8400(3)
O24 O 0.3339(2) 0.97179(7) 0.8889(3)
Co9_4 Co 0.5000 1.0000 1.0000
C3_2 C 0.9138(3) 0.23667(10) 0.2694(5)
H2_2 H 0.8700 0.2611 0.2435
C4_2 C 0.8570(3) 0.20029(10) 0.2058(4)
C5_2 C 0.9233(3) 0.16372(10) 0.2467(4)
C6_2 C 0.8586(3) 0.12433(10) 0.2014(4)
C7_2 C 0.9363(3) 0.08634(10) 0.2187(4)
C8_2 C 0.8815(3) 0.04982(10) 0.1515(4)
C9_2 C 0.9517(3) 0.01397(10) 0.1838(5)
C16_2 C 0.7270(3) 0.20258(9) 0.0907(4)
C17_2 C 0.7503(3) 0.04681(10) 0.0412(5)
O1_2 O 0.7416(2) 0.12229(7) 0.1600(3)
O8_2 O 0.6661(2) 0.02821(7) 0.1111(3)
O14_2 O 0.3918(2) 0.04806(7) 0.0753(3)
H11_2 H 0.3245 0.0536 0.0038
H12_2 H 0.3752 0.0457 0.1765
O6_2 O 0.7152(2) 0.19334(7) 0.9372(3)
O7_2 O 0.7346(2) 0.05941(7) 0.8908(3)
O15_2 O 0.5054(2) 0.02865(7) 0.7524(3)
H13_2 H 0.4376 0.0431 0.7315
H14_2 H 0.5728 0.0430 0.7808
O16_2 O 0.6337(2) 0.04133(8) 0.4385(3)
H15_2 H 0.6283 0.0666 0.4599
H16_2 H 0.6464 0.0376 0.3362
H20_2 H 0.8812 0.0100 0.6963
H3_2 H 0.9164 0.9895 0.1389
O31 O 0.4946(2) 0.97135(7) 0.2476(3)
H29_2 H 0.5624 0.9569 0.2685
H30_2 H 0.4272 0.9570 0.2192
C19_2 C 0.8972(3) 0.79894(10) 0.5924(4)
C20_2 C 0.9657(3) 0.76291(10) 0.6296(5)
H17_2 H 0.9301 0.7384 0.5862
C28_2 C 0.9263(3) 0.98570(10) 0.7179(5)
C29_2 C 0.8709(3) 0.94957(10) 0.6514(4)
C30_2 C 0.9386(3) 0.91313(10) 0.6857(4)
C31_2 C 0.8750(3) 0.87384(10) 0.6293(4)
C32_2 C 0.9520(3) 0.83577(10) 0.6556(4)
C33_2 C 0.7661(3) 0.79600(9) 0.4804(4)
C36_2 C 0.7418(3) 0.95291(9) 0.5358(4)
O18_2 O 0.7609(2) 0.87254(7) 0.5712(4)
O19_2 O 0.6776(2) 0.78196(7) 0.5560(3)
O20_2 O 0.7536(2) 0.80451(8) 0.3262(3)
O25_2 O 0.7342(2) 0.94847(8) 0.3801(3)
O26_2 O 0.6482(2) 0.96405(7) 0.6095(3)
H21_2 H 0.4547 0.7059 0.6715
H22_2 H 0.5894 0.7087 0.7263
O28_2 O 0.6396(2) 0.70507(7) 0.3819(3)
H23_2 H 0.6495 0.7083 0.2782
H24_2 H 0.6181 0.6805 0.3951
O29_2 O 0.3936(2) 0.79335(7) 0.5123(3)
H25_2 H 0.4011 0.8184 0.4890
H26_2 H 0.3771 0.7908 0.6135
O30_2 O 0.6082(2) 0.95194(7) 0.9247(3)
H27_2 H 0.6755 0.9464 0.9962
H28_2 H 0.6248 0.9543 0.8235
O32_2 O 0.3663(2) 0.95867(8) 0.5615(3)
H31_2 H 0.3717 0.9334 0.5401
H32_2 H 0.3536 0.9624 0.6638
loop_
_geom_bond_atom_site_label_1
_geom_bond_atom_site_label_2
_geom_bond_site_symmetry_1
_geom_bond_site_symmetry_2
O16 Co3 1_555 1_555
H15 O16 1_555 1_555
H16 O16 1_555 1_555
O20 C33 1_555 1_555
O28 Co4 1_555 1_555
H23 O28 1_555 1_555
H24 O28 1_555 1_555
O33 Co4 1_555 1_555
O36 Co3 1_555 1_555
O37 Co4 1_555 1_555
O39 Co3 1_555 1_555
Co2 O8 1_555 1_555
Co3_2 O15 1_555 1_555
H2 C3 1_555 1_555
C4 C3 1_555 1_555
C5 C4 1_555 1_555
C6 C5 1_555 1_555
C7 C6 1_555 1_555
C8 C7 1_555 1_555
C9 C8 1_555 1_555
H3 C9 1_555 1_555
C16 C4 1_555 1_555
C17 C8 1_555 1_555
O1 C6 1_555 1_555
O5 C16 1_555 1_555
O6 C16 1_555 1_555
O7 C17 1_555 1_555
O8 C17 1_555 1_555
O14 Co2 1_555 1_555
H11 O14 1_555 1_555
H12 O14 1_555 1_555
O15 Co2 1_555 1_555
H13 O15 1_555 1_555
H14 O15 1_555 1_555
C19 C20 1_555 1_555
C20 H17 1_555 1_555
H20 C28 1_555 1_555
C29 C28 1_555 1_555
C31 C30 1_555 1_555
C32 C19 1_555 1_555
C36 C29 1_555 1_555
O18 C31 1_555 1_555
O26 Co3_2 1_555 1_555
H21 O27 1_555 1_555
H22 O27 1_555 1_555
H26 O29 1_555 1_555
O30 Co2 1_555 1_555
H27 O30 1_555 1_555
H28 O30 1_555 1_555
O39 Co2 1_555 1_555
H29 O39 1_555 1_555
H30 O39 1_555 1_555
O32 Co3_2 1_555 1_555
H31 O32 1_555 1_555
H32 O32 1_555 1_555
Co6 O27 1_555 1_555
Co8 O5 1_555 1_555
O35 Co2 1_555 1_555
C29 C30 1_555 1_555
C31 C32 1_555 1_555
C36 O26 1_555 1_555
C1 C2 1_555 1_555
C2 H1 1_555 1_555
H4 C10 1_555 1_555
C11 C10 1_555 1_555
C13 C12 1_555 1_555
C14 C1 1_555 1_555
C18 C11 1_555 1_555
O2 C13 1_555 1_555
O36 C18 1_555 1_555
H5 O11 1_555 1_555
H6 O11 1_555 1_555
H10 O13 1_555 1_555
H18 C21 1_555 1_555
C22 C21 1_555 1_555
C23 C22 1_555 1_555
C24 C23 1_555 1_555
C25 C24 1_555 1_555
C26 C25 1_555 1_555
C27 C26 1_555 1_555
H19 C27 1_555 1_555
C34 C22 1_555 1_555
C35 C26 1_555 1_555
O17 C24 1_555 1_555
O21 C34 1_555 1_555
O22 C34 1_555 1_555
O23 C35 1_555 1_555
O35 C35 1_555 1_555
Co6 O21 1_555 1_555
Co8 O11 1_555 1_555
C11 C12 1_555 1_555
C13 C14 1_555 1_555
O4 C15 1_555 1_555
O12 Co1 1_555 1_555
H7 O12 1_555 1_555
H8 O12 1_555 1_555
O34 Co1 1_555 1_555
O38 Co1 1_555 1_555
Co6 O3_2 1_555 1_555
C1_2 C2_2 1_555 1_555
C2_2 H1_2 1_555 1_555
C11_2 C10_2 1_555 1_555
C13_2 C12_2 1_555 1_555
C14_2 C1_2 1_555 1_555
C15_2 C1_2 1_555 1_555
C18_2 C11_2 1_555 1_555
O2_2 C13_2 1_555 1_555
O3_2 C15_2 1_555 1_555
O4_2 C15_2 1_555 1_555
O9_2 C18_2 1_555 1_555
O10 C18_2 1_555 1_555
O37 Co6 1_555 1_555
H5_2 O37 1_555 1_555
H6_2 O37 1_555 1_555
O12_2 Co6 1_555 1_555
H7_2 O12_2 1_555 1_555
H8_2 O12_2 1_555 1_555
O13_2 Co6 1_555 1_555
H9_2 O13_2 1_555 1_555
H10_2 O13_2 1_555 1_555
Co10 O10 1_555 1_555
C11_2 C12_2 1_555 1_555
C13_2 C14_2 1_555 1_555
H18_2 C21_2 1_555 1_555
C22_2 C21_2 1_555 1_555
C23_2 C22_2 1_555 1_555
C24_2 C23_2 1_555 1_555
C25_2 C24_2 1_555 1_555
C26_2 C25_2 1_555 1_555
C27_2 C26_2 1_555 1_555
C34_2 C22_2 1_555 1_555
C35_2 C26_2 1_555 1_555
O17_2 C24_2 1_555 1_555
O34 C34_2 1_555 1_555
O24 C35_2 1_555 1_555
Co9_4 O24 1_555 1_555
Co9 O8_2 1_555 1_555
H2_2 C3_2 1_555 1_555
C4_2 C3_2 1_555 1_555
C5_2 C4_2 1_555 1_555
C6_2 C5_2 1_555 1_555
C7_2 C6_2 1_555 1_555
C8_2 C7_2 1_555 1_555
C9_2 C8_2 1_555 1_555
C16_2 C4_2 1_555 1_555
C17_2 C8_2 1_555 1_555
O1_2 C6_2 1_555 1_555
O33 C16_2 1_555 1_555
O8_2 C17_2 1_555 1_555
O14_2 Co9 1_555 1_555
H11_2 O14_2 1_555 1_555
H12_2 O14_2 1_555 1_555
Co10 O15_2 1_555 1_555
O15_2 Co9_2 1_555 1_555
H13_2 O15_2 1_555 1_555
H14_2 O15_2 1_555 1_555
O16_2 Co10 1_555 1_555
H15_2 O16_2 1_555 1_555
H16_2 O16_2 1_555 1_555
O31 Co9_3 1_555 1_555
H29_2 O31 1_555 1_555
H30_2 O31 1_555 1_555
Co10_2 O31 1_555 1_555
Co8 O19_2 1_555 1_555
C19_2 C20_2 1_555 1_555
C20_2 H17_2 1_555 1_555
C29_2 C28_2 1_555 1_555
C31_2 C30_2 1_555 1_555
C32_2 C19_2 1_555 1_555
C33_2 C19_2 1_555 1_555
C36_2 C29_2 1_555 1_555
O18_2 C31_2 1_555 1_555
O19_2 C33_2 1_555 1_555
O20_2 C33_2 1_555 1_555
O25_2 C36_2 1_555 1_555
O26_2 Co10_2 1_555 1_555
O38 Co8 1_555 1_555
H21_2 O38 1_555 1_555
H22_2 O38 1_555 1_555
O28_2 Co8 1_555 1_555
H23_2 O28_2 1_555 1_555
H24_2 O28_2 1_555 1_555
O29_2 Co8 1_555 1_555
H25_2 O29_2 1_555 1_555
H26_2 O29_2 1_555 1_555
O30_2 Co9_4 1_555 1_555
H27_2 O30_2 1_555 1_555
H28_2 O30_2 1_555 1_555
O32_2 Co10_2 1_555 1_555
H31_2 O32_2 1_555 1_555
H32_2 O32_2 1_555 1_555
C29_2 C30_2 1_555 1_555
C31_2 C32_2 1_555 1_555
C36_2 O26_2 1_555 1_555

#END
