
###############################################################################
#
# This file contains modified crystal structure data generated from the
# MOF subset of the Cambridge Structural Database (CSD) v543 
# hosted by the Cambridge Crystallographic Data Centre (CCDC).
#
# This work is licensed under the Creative Commons
# Attribution-NonCommercial-ShareAlike 4.0 International License.
# To view a copy of this license, visit
# http://creativecommons.org/licenses/by-nc-sa/4.0/
# or send a letter to
# Creative Commons, PO Box 1866, Mountain View, CA 94042, USA.
#
# CIF created using the CSD Python API on 29 September 2022
# The structure has been converted into the P1 space group
# The structure has a 3D framework
# The original CSD entry DEZKAW is in the tetragonal crystal system
# The framework has been calculated to contain at least 10.0% void space
# The void calculation uses a probe of radius 1.32A, grid spacing 0.4
#
###############################################################################

data_DEZKAW
_chemical_formula_moiety         '(C144 H112 Mn16 N112 O16)n'
_symmetry_cell_setting           triclinic
_symmetry_space_group_name_H-M   'P 1'
_symmetry_Int_Tables_number      1
_space_group_name_Hall           'P 1'
loop_
_symmetry_equiv_pos_site_id
_symmetry_equiv_pos_as_xyz
1 x,y,z
_cell_length_a                   19.6971(9)
_cell_length_b                   19.6971(9)
_cell_length_c                   19.9978(8)
_cell_angle_alpha                90
_cell_angle_beta                 90
_cell_angle_gamma                90
_cell_volume                     7758.66
loop_
_atom_site_label
_atom_site_type_symbol
_atom_site_fract_x
_atom_site_fract_y
_atom_site_fract_z
Mn1 Mn 0.10504(3) 0.01786(3) 0.02432(3)
C1 C 0.1761(3) 0.2567(2) 0.1079(2)
H1 H 0.1615 0.2936 0.0827
C2 C 0.19548(17) 0.15803(17) 0.13974(17)
C3 C 0.19926(17) 0.08502(17) 0.14962(17)
N1 N 0.1665(2) 0.19189(16) 0.08879(17)
N2 N 0.22080(15) 0.19863(14) 0.18682(15)
N3 N 0.20823(18) 0.26339(15) 0.16586(16)
N4 N 0.17066(15) 0.03598(14) 0.11216(15)
N6 N 0.23178(17) 0.06108(15) 0.20283(16)
H6 H 0.127(3) 0.141(3) 0.0180(17)
Mn2 Mn 0.26786(3) 0.14496(3) 0.27432(3)
Mn3 Mn 0.23214(3) 0.35504(3) 0.22568(3)
N9 N 0.01339(15) 0.04177(18) 0.08414(16)
N8 N 0.05137(14) 0.97080(15) 0.93682(15)
N10 N 0.18892(15) 0.98178(17) 0.95283(16)
Mn1_2 Mn 0.73214(3) 0.35504(3) 0.27432(3)
C1_2 C 0.4933(2) 0.4261(3) 0.3579(2)
H1_2 H 0.4564 0.4115 0.3327
C2_2 C 0.59197(17) 0.44548(17) 0.38974(17)
C3_2 C 0.66498(17) 0.44926(17) 0.39962(17)
C4 C 0.77084(18) 0.4372(2) 0.3977(2)
C5 C 0.8377(2) 0.4125(2) 0.3765(2)
C6 C 0.8980(2) 0.4324(4) 0.4072(4)
H2 H 0.8977 0.4636 0.4422
C7 C 0.9577(3) 0.4051(5) 0.3849(4)
H3 H 0.9985 0.4182 0.4044
C8 C 0.9580(3) 0.3584(4) 0.3338(4)
H4 H 0.9981 0.3384 0.3194
C9 C 0.8969(2) 0.3424(3) 0.3049(3)
H5 H 0.8967 0.3117 0.2695
N1_2 N 0.55811(16) 0.4165(2) 0.33879(17)
N2_2 N 0.55137(14) 0.47080(15) 0.43682(15)
N3_2 N 0.48661(15) 0.45823(18) 0.41586(16)
N4_2 N 0.71402(14) 0.42066(15) 0.36216(15)
N5 N 0.75842(16) 0.47361(19) 0.45199(18)
N6_2 N 0.68892(15) 0.48178(17) 0.45283(16)
N7 N 0.83726(16) 0.36885(18) 0.32504(18)
O1 O 0.62925(16) 0.3578(2) 0.23476(16)
H6_2 H 0.609(3) 0.377(3) 0.2680(17)
H7 H 0.624(3) 0.383(2) 0.2004(16)
Mn2_2 Mn 0.60504(3) 0.51786(3) 0.52432(3)
Mn3_2 Mn 0.39496(3) 0.48214(3) 0.47568(3)
N8_2 N 0.77920(15) 0.30137(14) 0.18682(15)
N9_2 N 0.70823(18) 0.26339(15) 0.33414(16)
N10_2 N 0.76822(17) 0.43892(15) 0.20283(16)
Mn1_3 Mn 0.89496(3) 0.48214(3) 0.02432(3)
C1_3 C 0.8239(3) 0.2433(2) 0.1079(2)
H1_3 H 0.8385 0.2064 0.0827
C2_3 C 0.80452(17) 0.34197(17) 0.13974(17)
C3_3 C 0.80074(17) 0.41498(17) 0.14962(17)
C4_2 C 0.8128(2) 0.52084(18) 0.1477(2)
C5_2 C 0.8375(2) 0.5877(2) 0.1265(2)
C6_2 C 0.8176(4) 0.6480(2) 0.1572(4)
H2_2 H 0.7864 0.6477 0.1922
C7_2 C 0.8449(5) 0.7077(3) 0.1349(4)
H3_2 H 0.8318 0.7485 0.1544
C8_2 C 0.8916(4) 0.7080(3) 0.0838(4)
H4_2 H 0.9116 0.7481 0.0694
C9_2 C 0.9076(3) 0.6469(2) 0.0549(3)
H5_2 H 0.9383 0.6467 0.0195
N1_3 N 0.8335(2) 0.30811(16) 0.08879(17)
N3_3 N 0.79177(18) 0.23661(15) 0.16586(16)
N4_3 N 0.82934(15) 0.46402(14) 0.11216(15)
N5_2 N 0.77639(19) 0.50842(16) 0.20199(18)
N7_2 N 0.88115(18) 0.58726(16) 0.07504(18)
H6_3 H 0.873(3) 0.359(3) 0.0180(17)
Mn3_3 Mn 0.76786(3) 0.14496(3) 0.22568(3)
N9_3 N 0.98661(15) 0.45823(18) 0.08414(16)
O1_2 O 0.8922(2) 0.37925(16) 0.98476(16)
H7_2 H 0.867(2) 0.374(3) 0.9504(16)
N8_3 N 0.94863(14) 0.52920(15) 0.93682(15)
N10_3 N 0.81108(15) 0.51822(17) 0.95283(16)
C1_4 C 0.5067(2) 0.0739(3) 0.3579(2)
H1_4 H 0.5436 0.0885 0.3327
C2_4 C 0.40803(17) 0.05452(17) 0.38974(17)
C3_4 C 0.33502(17) 0.05074(17) 0.39962(17)
C4_3 C 0.22916(18) 0.0628(2) 0.3977(2)
C5_3 C 0.1623(2) 0.0875(2) 0.3765(2)
C6_3 C 0.1020(2) 0.0676(4) 0.4072(4)
H2_3 H 0.1023 0.0364 0.4422
C7_3 C 0.0423(3) 0.0949(5) 0.3849(4)
H3_3 H 0.0015 0.0818 0.4044
C8_3 C 0.0420(3) 0.1416(4) 0.3338(4)
H4_3 H 0.0019 0.1616 0.3194
C9_3 C 0.1031(2) 0.1576(3) 0.3049(3)
H5_3 H 0.1033 0.1883 0.2695
N1_4 N 0.44189(16) 0.0835(2) 0.33879(17)
N2_3 N 0.44863(14) 0.02920(15) 0.43682(15)
N3_4 N 0.51339(15) 0.04177(18) 0.41586(16)
N4_4 N 0.28598(14) 0.07934(15) 0.36216(15)
N5_3 N 0.24158(16) 0.02639(19) 0.45199(18)
N6_3 N 0.31108(15) 0.01822(17) 0.45283(16)
N7_3 N 0.16274(16) 0.13115(18) 0.32504(18)
O1_3 O 0.37075(16) 0.1422(2) 0.23476(16)
H6_4 H 0.391(3) 0.123(3) 0.2680(17)
H7_3 H 0.376(3) 0.117(2) 0.2004(16)
Mn3_4 Mn 0.60504(3) 0.01786(3) 0.47568(3)
N9_4 N 0.29177(18) 0.23661(15) 0.33414(16)
Mn2_3 Mn 0.39496(3) 0.98214(3) 0.52432(3)
C1_5 C 0.6761(3) 0.7567(2) 0.6079(2)
H1_5 H 0.6615 0.7936 0.5827
C2_5 C 0.69548(17) 0.65803(17) 0.63974(17)
C3_5 C 0.69926(17) 0.58502(17) 0.64962(17)
C4_4 C 0.6872(2) 0.47916(18) 0.6477(2)
C5_4 C 0.6625(2) 0.4123(2) 0.6265(2)
C6_4 C 0.6824(4) 0.3520(2) 0.6572(4)
H2_4 H 0.7136 0.3523 0.6922
C7_4 C 0.6551(5) 0.2923(3) 0.6349(4)
H3_4 H 0.6682 0.2515 0.6544
C8_4 C 0.6084(4) 0.2920(3) 0.5838(4)
H4_4 H 0.5884 0.2519 0.5694
C9_4 C 0.5924(3) 0.3531(2) 0.5549(3)
H5_4 H 0.5617 0.3533 0.5195
N1_5 N 0.6665(2) 0.69189(16) 0.58879(17)
N2_4 N 0.72080(15) 0.69863(14) 0.68682(15)
N3_5 N 0.70823(18) 0.76339(15) 0.66586(16)
N4_5 N 0.67066(15) 0.53598(14) 0.61216(15)
N5_4 N 0.72361(19) 0.49158(16) 0.70199(18)
N6_4 N 0.73178(17) 0.56108(15) 0.70283(16)
N7_4 N 0.61885(18) 0.41274(16) 0.57504(18)
O1_4 O 0.6078(2) 0.62075(16) 0.48476(16)
H6_5 H 0.627(3) 0.641(3) 0.5180(17)
H7_4 H 0.633(2) 0.626(3) 0.4504(16)
Mn2_4 Mn 0.76786(3) 0.64496(3) 0.77432(3)
Mn3_5 Mn 0.73214(3) 0.85504(3) 0.72568(3)
N9_5 N 0.51339(15) 0.54177(18) 0.58414(16)
Mn1_4 Mn 0.23214(3) 0.85504(3) 0.77432(3)
C2_6 C 0.09197(17) 0.94548(17) 0.88974(17)
C3_6 C 0.16498(17) 0.94926(17) 0.89962(17)
C4_5 C 0.27084(18) 0.9372(2) 0.8977(2)
C5_5 C 0.3377(2) 0.9125(2) 0.8765(2)
C6_5 C 0.3980(2) 0.9324(4) 0.9072(4)
H2_5 H 0.3977 0.9636 0.9422
C7_5 C 0.4577(3) 0.9051(5) 0.8849(4)
H3_5 H 0.4985 0.9182 0.9044
C8_5 C 0.4580(3) 0.8584(4) 0.8338(4)
H4_5 H 0.4981 0.8384 0.8194
C9_5 C 0.3969(2) 0.8424(3) 0.8049(3)
H5_5 H 0.3967 0.8117 0.7695
N1_6 N 0.05811(16) 0.9165(2) 0.83879(17)
N4_6 N 0.21402(14) 0.92066(15) 0.86216(15)
N5_5 N 0.25842(16) 0.97361(19) 0.95199(18)
N7_5 N 0.33726(16) 0.86885(18) 0.82504(18)
O1_5 O 0.12925(16) 0.8578(2) 0.73476(16)
H6_6 H 0.109(3) 0.877(3) 0.7680(17)
H7_5 H 0.124(3) 0.883(2) 0.7004(16)
N8_4 N 0.27920(15) 0.80137(14) 0.68682(15)
N9_6 N 0.20823(18) 0.76339(15) 0.83414(16)
N10_4 N 0.26822(17) 0.93892(15) 0.70283(16)
C1_6 C 0.9933(2) 0.9261(3) 0.8579(2)
H1_6 H 0.9564 0.9115 0.8327
N3_6 N 0.98661(15) 0.95823(18) 0.91586(16)
Mn3_6 Mn 0.89496(3) 0.98214(3) 0.97568(3)
C4_6 C 0.3128(2) 0.02084(18) 0.6477(2)
C5_6 C 0.3375(2) 0.0877(2) 0.6265(2)
C6_6 C 0.3176(4) 0.1480(2) 0.6572(4)
H2_6 H 0.2864 0.1477 0.6922
C7_6 C 0.3449(5) 0.2077(3) 0.6349(4)
H3_6 H 0.3318 0.2485 0.6544
C8_6 C 0.3916(4) 0.2080(3) 0.5838(4)
H4_6 H 0.4116 0.2481 0.5694
C9_6 C 0.4076(3) 0.1469(2) 0.5549(3)
H5_6 H 0.4383 0.1467 0.5195
N5_6 N 0.27639(19) 0.00842(16) 0.70199(18)
N7_6 N 0.38115(18) 0.08726(16) 0.57504(18)
C1_7 C 0.3239(3) 0.7433(2) 0.6079(2)
H1_7 H 0.3385 0.7064 0.5827
C2_7 C 0.30452(17) 0.84197(17) 0.63974(17)
C3_7 C 0.30074(17) 0.91498(17) 0.64962(17)
N1_7 N 0.3335(2) 0.80811(16) 0.58879(17)
N3_7 N 0.29177(18) 0.73661(15) 0.66586(16)
N4_7 N 0.32934(15) 0.96402(14) 0.61216(15)
O1_6 O 0.3922(2) 0.87925(16) 0.48476(16)
H6_7 H 0.373(3) 0.859(3) 0.5180(17)
H7_6 H 0.367(2) 0.874(3) 0.4504(16)
Mn3_7 Mn 0.26786(3) 0.64496(3) 0.72568(3)
N9_7 N 0.48661(15) 0.95823(18) 0.58414(16)
C1_8 C 0.0067(2) 0.5739(3) 0.8579(2)
H1_8 H 0.0436 0.5885 0.8327
N3_8 N 0.01339(15) 0.54177(18) 0.91586(16)
Mn3_8 Mn 0.10504(3) 0.51786(3) 0.97568(3)
C2_8 C 0.90803(17) 0.55452(17) 0.88974(17)
C3_8 C 0.83502(17) 0.55074(17) 0.89962(17)
C4_7 C 0.72916(18) 0.5628(2) 0.8977(2)
C5_7 C 0.6623(2) 0.5875(2) 0.8765(2)
C6_7 C 0.6020(2) 0.5676(4) 0.9072(4)
H2_7 H 0.6023 0.5364 0.9422
C7_7 C 0.5423(3) 0.5949(5) 0.8849(4)
H3_7 H 0.5015 0.5818 0.9044
C8_7 C 0.5420(3) 0.6416(4) 0.8338(4)
H4_7 H 0.5019 0.6616 0.8194
C9_7 C 0.6031(2) 0.6576(3) 0.8049(3)
H5_7 H 0.6033 0.6883 0.7695
N1_8 N 0.94189(16) 0.5835(2) 0.83879(17)
N4_8 N 0.78598(14) 0.57934(15) 0.86216(15)
N5_7 N 0.74158(16) 0.52639(19) 0.95199(18)
N7_7 N 0.66274(16) 0.63115(18) 0.82504(18)
O1_7 O 0.87075(16) 0.6422(2) 0.73476(16)
H6_8 H 0.891(3) 0.623(3) 0.7680(17)
H7_7 H 0.876(3) 0.617(2) 0.7004(16)
N9_8 N 0.79177(18) 0.73661(15) 0.83414(16)
N8_5 N 0.94863(14) 0.02920(15) 0.06318(15)
N10_5 N 0.81108(15) 0.01822(17) 0.04717(16)
C1_9 C 0.8239(3) 0.7433(2) 0.8921(2)
H1_9 H 0.8385 0.7064 0.9173
C2_9 C 0.80452(17) 0.84197(17) 0.86026(17)
C3_9 C 0.80074(17) 0.91498(17) 0.85038(17)
N1_9 N 0.8335(2) 0.80811(16) 0.91121(17)
N2_5 N 0.77920(15) 0.80137(14) 0.81318(15)
N4_9 N 0.82934(15) 0.96402(14) 0.88784(15)
N6_5 N 0.76822(17) 0.93892(15) 0.79717(16)
H6_9 H 0.873(3) 0.859(3) 0.9820(17)
C1_10 C 0.5067(2) 0.5739(3) 0.6421(2)
H1_10 H 0.5436 0.5885 0.6673
C2_10 C 0.40803(17) 0.55452(17) 0.61026(17)
C3_10 C 0.33502(17) 0.55074(17) 0.60038(17)
C4_8 C 0.22916(18) 0.5628(2) 0.6023(2)
C5_8 C 0.1623(2) 0.5875(2) 0.6235(2)
C6_8 C 0.1020(2) 0.5676(4) 0.5928(4)
H2_8 H 0.1023 0.5364 0.5578
C7_8 C 0.0423(3) 0.5949(5) 0.6151(4)
H3_8 H 0.0015 0.5818 0.5956
C8_8 C 0.0420(3) 0.6416(4) 0.6662(4)
H4_8 H 0.0019 0.6616 0.6806
C9_8 C 0.1031(2) 0.6576(3) 0.6951(3)
H5_8 H 0.1033 0.6883 0.7305
N1_10 N 0.44189(16) 0.5835(2) 0.66121(17)
N2_6 N 0.44863(14) 0.52920(15) 0.56318(15)
N4_10 N 0.28598(14) 0.57934(15) 0.63784(15)
N5_8 N 0.24158(16) 0.52639(19) 0.54801(18)
N6_6 N 0.31108(15) 0.51822(17) 0.54717(16)
N7_8 N 0.16274(16) 0.63115(18) 0.67496(18)
O1_8 O 0.37075(16) 0.6422(2) 0.76524(16)
H6_10 H 0.391(3) 0.623(3) 0.7320(17)
H7_8 H 0.376(3) 0.617(2) 0.7996(16)
N8_6 N 0.22080(15) 0.69863(14) 0.81318(15)
N10_6 N 0.23178(17) 0.56108(15) 0.79717(16)
O1_9 O 0.1078(2) 0.62075(16) 0.01524(16)
H7_9 H 0.133(2) 0.626(3) 0.0496(16)
N8_7 N 0.05137(14) 0.47080(15) 0.06318(15)
N10_7 N 0.18892(15) 0.48178(17) 0.04717(16)
C1_11 C 0.1761(3) 0.7567(2) 0.8921(2)
H1_11 H 0.1615 0.7936 0.9173
C2_11 C 0.19548(17) 0.65803(17) 0.86026(17)
C3_11 C 0.19926(17) 0.58502(17) 0.85038(17)
C4_9 C 0.1872(2) 0.47916(18) 0.8523(2)
C5_9 C 0.1625(2) 0.4123(2) 0.8735(2)
C6_9 C 0.1824(4) 0.3520(2) 0.8428(4)
H2_9 H 0.2136 0.3523 0.8078
C7_9 C 0.1551(5) 0.2923(3) 0.8651(4)
H3_9 H 0.1682 0.2515 0.8456
C8_9 C 0.1084(4) 0.2920(3) 0.9162(4)
H4_9 H 0.0884 0.2519 0.9306
C9_9 C 0.0924(3) 0.3531(2) 0.9451(3)
H5_9 H 0.0617 0.3533 0.9805
N1_11 N 0.1665(2) 0.69189(16) 0.91121(17)
N4_11 N 0.17066(15) 0.53598(14) 0.88784(15)
N5_9 N 0.22361(19) 0.49158(16) 0.79801(18)
N7_9 N 0.11885(18) 0.41274(16) 0.92496(18)
H6_11 H 0.127(3) 0.641(3) 0.9820(17)
C1_12 C 0.4933(2) 0.9261(3) 0.6421(2)
H1_12 H 0.4564 0.9115 0.6673
C2_12 C 0.59197(17) 0.94548(17) 0.61026(17)
C3_12 C 0.66498(17) 0.94926(17) 0.60038(17)
C4_10 C 0.77084(18) 0.9372(2) 0.6023(2)
C5_10 C 0.8377(2) 0.9125(2) 0.6235(2)
C6_10 C 0.8980(2) 0.9324(4) 0.5928(4)
H2_10 H 0.8977 0.9636 0.5578
C7_10 C 0.9577(3) 0.9051(5) 0.6151(4)
H3_10 H 0.9985 0.9182 0.5956
C8_10 C 0.9580(3) 0.8584(4) 0.6662(4)
H4_10 H 0.9981 0.8384 0.6806
C9_10 C 0.8969(2) 0.8424(3) 0.6951(3)
H5_10 H 0.8967 0.8117 0.7305
N1_12 N 0.55811(16) 0.9165(2) 0.66121(17)
N2_7 N 0.55137(14) 0.97080(15) 0.56318(15)
N4_12 N 0.71402(14) 0.92066(15) 0.63784(15)
N5_10 N 0.75842(16) 0.97361(19) 0.54801(18)
N6_7 N 0.68892(15) 0.98178(17) 0.54717(16)
N7_10 N 0.83726(16) 0.86885(18) 0.67496(18)
O1_10 O 0.62925(16) 0.8578(2) 0.76524(16)
H6_12 H 0.609(3) 0.877(3) 0.7320(17)
H7_10 H 0.624(3) 0.883(2) 0.7996(16)
C1_13 C 0.3239(3) 0.2433(2) 0.3921(2)
H1_13 H 0.3385 0.2064 0.4173
C2_13 C 0.30452(17) 0.34197(17) 0.36026(17)
C3_13 C 0.30074(17) 0.41498(17) 0.35038(17)
C4_11 C 0.3128(2) 0.52084(18) 0.3523(2)
C5_11 C 0.3375(2) 0.5877(2) 0.3735(2)
C6_11 C 0.3176(4) 0.6480(2) 0.3428(4)
H2_11 H 0.2864 0.6477 0.3078
C7_11 C 0.3449(5) 0.7077(3) 0.3651(4)
H3_11 H 0.3318 0.7485 0.3456
C8_11 C 0.3916(4) 0.7080(3) 0.4162(4)
H4_11 H 0.4116 0.7481 0.4306
C9_11 C 0.4076(3) 0.6469(2) 0.4451(3)
H5_11 H 0.4383 0.6467 0.4805
N1_13 N 0.3335(2) 0.30811(16) 0.41121(17)
N2_8 N 0.27920(15) 0.30137(14) 0.31318(15)
N4_13 N 0.32934(15) 0.46402(14) 0.38784(15)
N5_11 N 0.27639(19) 0.50842(16) 0.29801(18)
N6_8 N 0.26822(17) 0.43892(15) 0.29717(16)
N7_11 N 0.38115(18) 0.58726(16) 0.42496(18)
O1_11 O 0.3922(2) 0.37925(16) 0.51524(16)
H6_13 H 0.373(3) 0.359(3) 0.4820(17)
H7_11 H 0.367(2) 0.374(3) 0.5496(16)
C1_14 C 0.0067(2) 0.0739(3) 0.1421(2)
H1_14 H 0.0436 0.0885 0.1673
C2_14 C 0.90803(17) 0.05452(17) 0.11026(17)
C3_14 C 0.83502(17) 0.05074(17) 0.10038(17)
C4_12 C 0.72916(18) 0.0628(2) 0.1023(2)
C5_12 C 0.6623(2) 0.0875(2) 0.1235(2)
C6_12 C 0.6020(2) 0.0676(4) 0.0928(4)
H2_12 H 0.6023 0.0364 0.0578
C7_12 C 0.5423(3) 0.0949(5) 0.1151(4)
H3_12 H 0.5015 0.0818 0.0956
C8_12 C 0.5420(3) 0.1416(4) 0.1662(4)
H4_12 H 0.5019 0.1616 0.1806
C9_12 C 0.6031(2) 0.1576(3) 0.1951(3)
H5_12 H 0.6033 0.1883 0.2305
N1_14 N 0.94189(16) 0.0835(2) 0.16121(17)
N4_14 N 0.78598(14) 0.07934(15) 0.13784(15)
N5_12 N 0.74158(16) 0.02639(19) 0.04801(18)
N7_12 N 0.66274(16) 0.13115(18) 0.17496(18)
O1_12 O 0.87075(16) 0.1422(2) 0.26524(16)
H6_14 H 0.891(3) 0.123(3) 0.2320(17)
H7_12 H 0.876(3) 0.117(2) 0.2996(16)
N8_8 N 0.72080(15) 0.19863(14) 0.31318(15)
N10_8 N 0.73178(17) 0.06108(15) 0.29717(16)
C1_15 C 0.6761(3) 0.2567(2) 0.3921(2)
H1_15 H 0.6615 0.2936 0.4173
C2_15 C 0.69548(17) 0.15803(17) 0.36026(17)
C3_15 C 0.69926(17) 0.08502(17) 0.35038(17)
N1_15 N 0.6665(2) 0.19189(16) 0.41121(17)
N4_15 N 0.67066(15) 0.03598(14) 0.38784(15)
O1_13 O 0.6078(2) 0.12075(16) 0.51524(16)
H6_15 H 0.627(3) 0.141(3) 0.4820(17)
H7_13 H 0.633(2) 0.126(3) 0.5496(16)
C4_13 C 0.6872(2) 0.97916(18) 0.3523(2)
C5_13 C 0.6625(2) 0.9123(2) 0.3735(2)
C6_13 C 0.6824(4) 0.8520(2) 0.3428(4)
H2_13 H 0.7136 0.8523 0.3078
C7_13 C 0.6551(5) 0.7923(3) 0.3651(4)
H3_13 H 0.6682 0.7515 0.3456
C8_13 C 0.6084(4) 0.7920(3) 0.4162(4)
H4_13 H 0.5884 0.7519 0.4306
C9_13 C 0.5924(3) 0.8531(2) 0.4451(3)
H5_13 H 0.5617 0.8533 0.4805
N5_13 N 0.72361(19) 0.99158(16) 0.29801(18)
N7_13 N 0.61885(18) 0.91274(16) 0.42496(18)
C2_16 C 0.09197(17) 0.44548(17) 0.11026(17)
C3_16 C 0.16498(17) 0.44926(17) 0.10038(17)
C4_14 C 0.27084(18) 0.4372(2) 0.1023(2)
C5_14 C 0.3377(2) 0.4125(2) 0.1235(2)
C6_14 C 0.3980(2) 0.4324(4) 0.0928(4)
H2_14 H 0.3977 0.4636 0.0578
C7_14 C 0.4577(3) 0.4051(5) 0.1151(4)
H3_14 H 0.4985 0.4182 0.0956
C8_14 C 0.4580(3) 0.3584(4) 0.1662(4)
H4_14 H 0.4981 0.3384 0.1806
C9_14 C 0.3969(2) 0.3424(3) 0.1951(3)
H5_14 H 0.3967 0.3117 0.2305
N1_16 N 0.05811(16) 0.4165(2) 0.16121(17)
N4_16 N 0.21402(14) 0.42066(15) 0.13784(15)
N5_14 N 0.25842(16) 0.47361(19) 0.04801(18)
N7_14 N 0.33726(16) 0.36885(18) 0.17496(18)
O1_14 O 0.12925(16) 0.3578(2) 0.26524(16)
H6_16 H 0.109(3) 0.377(3) 0.2320(17)
H7_14 H 0.124(3) 0.383(2) 0.2996(16)
C1_16 C 0.9933(2) 0.4261(3) 0.1421(2)
H1_16 H 0.9564 0.4115 0.1673
O1_15 O 0.1078(2) 0.12075(16) 0.98476(16)
H7_15 H 0.133(2) 0.126(3) 0.9504(16)
C4_15 C 0.1872(2) 0.97916(18) 0.1477(2)
C5_15 C 0.1625(2) 0.9123(2) 0.1265(2)
C6_15 C 0.1824(4) 0.8520(2) 0.1572(4)
H2_15 H 0.2136 0.8523 0.1922
C7_15 C 0.1551(5) 0.7923(3) 0.1349(4)
H3_15 H 0.1682 0.7515 0.1544
C8_15 C 0.1084(4) 0.7920(3) 0.0838(4)
H4_15 H 0.0884 0.7519 0.0694
C9_15 C 0.0924(3) 0.8531(2) 0.0549(3)
H5_15 H 0.0617 0.8533 0.0195
N5_15 N 0.22361(19) 0.99158(16) 0.20199(18)
N7_15 N 0.11885(18) 0.91274(16) 0.07504(18)
C4_16 C 0.8128(2) 0.02084(18) 0.8523(2)
C5_16 C 0.8375(2) 0.0877(2) 0.8735(2)
C6_16 C 0.8176(4) 0.1480(2) 0.8428(4)
H2_16 H 0.7864 0.1477 0.8078
C7_16 C 0.8449(5) 0.2077(3) 0.8651(4)
H3_16 H 0.8318 0.2485 0.8456
C8_16 C 0.8916(4) 0.2080(3) 0.9162(4)
H4_16 H 0.9116 0.2481 0.9306
C9_16 C 0.9076(3) 0.1469(2) 0.9451(3)
H5_16 H 0.9383 0.1467 0.9805
N5_16 N 0.77639(19) 0.00842(16) 0.79801(18)
N7_16 N 0.88115(18) 0.08726(16) 0.92496(18)
O1_16 O 0.8922(2) 0.87925(16) 0.01524(16)
H7_16 H 0.867(2) 0.874(3) 0.0496(16)
loop_
_geom_bond_atom_site_label_1
_geom_bond_atom_site_label_2
_geom_bond_site_symmetry_1
_geom_bond_site_symmetry_2
Mn1 N4 1_555 1_555
C1 H1 1_555 1_555
C2 C3 1_555 1_555
C3 N4 1_555 1_555
N1 C1 1_555 1_555
N2 C2 1_555 1_555
N3 C1 1_555 1_555
N6 C3 1_555 1_555
Mn2 N2 1_555 1_555
Mn3 N3 1_555 1_555
N9 Mn1 1_555 1_555
C2 N1 1_555 1_555
N2 N3 1_555 1_555
N6 Mn2 1_555 1_555
Mn1_2 N4_2 1_555 1_555
C1_2 H1_2 1_555 1_555
C2_2 C3_2 1_555 1_555
C3_2 N4_2 1_555 1_555
C4 C5 1_555 1_555
C5 C6 1_555 1_555
C6 H2 1_555 1_555
C7 C6 1_555 1_555
H3 C7 1_555 1_555
C8 C7 1_555 1_555
H4 C8 1_555 1_555
C9 C8 1_555 1_555
H5 C9 1_555 1_555
N1_2 C1_2 1_555 1_555
N2_2 C2_2 1_555 1_555
N3_2 C1_2 1_555 1_555
N4_2 C4 1_555 1_555
N5 C4 1_555 1_555
N6_2 C3_2 1_555 1_555
N7 Mn1_2 1_555 1_555
O1 Mn1_2 1_555 1_555
H6_2 O1 1_555 1_555
H7 O1 1_555 1_555
Mn2_2 N2_2 1_555 1_555
Mn3_2 N3_2 1_555 1_555
N8_2 Mn1_2 1_555 1_555
N9_2 Mn1_2 1_555 1_555
N10_2 Mn1_2 1_555 1_555
C2_2 N1_2 1_555 1_555
C5 N7 1_555 1_555
C9 N7 1_555 1_555
N2_2 N3_2 1_555 1_555
N5 N6_2 1_555 1_555
N6_2 Mn2_2 1_555 1_555
Mn1_3 N4_3 1_555 1_555
C1_3 H1_3 1_555 1_555
C2_3 C3_3 1_555 1_555
C3_3 N4_3 1_555 1_555
C4_2 C5_2 1_555 1_555
C5_2 C6_2 1_555 1_555
C6_2 H2_2 1_555 1_555
C7_2 C6_2 1_555 1_555
H3_2 C7_2 1_555 1_555
C8_2 C7_2 1_555 1_555
H4_2 C8_2 1_555 1_555
C9_2 C8_2 1_555 1_555
H5_2 C9_2 1_555 1_555
N1_3 C1_3 1_555 1_555
N8_2 C2_3 1_555 1_555
N3_3 C1_3 1_555 1_555
N4_3 C4_2 1_555 1_555
N5_2 C4_2 1_555 1_555
N10_2 C3_3 1_555 1_555
N7_2 Mn1_3 1_555 1_555
Mn3_3 N3_3 1_555 1_555
N9_3 Mn1_3 1_555 1_555
C2_3 N1_3 1_555 1_555
C5_2 N7_2 1_555 1_555
C9_2 N7_2 1_555 1_555
N8_2 N3_3 1_555 1_555
N5_2 N10_2 1_555 1_555
H7_2 O1_2 1_555 1_555
Mn2 N4_4 1_555 1_555
C1_4 H1_4 1_555 1_555
C2_4 C3_4 1_555 1_555
C3_4 N4_4 1_555 1_555
C4_3 C5_3 1_555 1_555
C5_3 C6_3 1_555 1_555
C6_3 H2_3 1_555 1_555
C7_3 C6_3 1_555 1_555
H3_3 C7_3 1_555 1_555
C8_3 C7_3 1_555 1_555
H4_3 C8_3 1_555 1_555
C9_3 C8_3 1_555 1_555
H5_3 C9_3 1_555 1_555
N1_4 C1_4 1_555 1_555
N2_3 C2_4 1_555 1_555
N3_4 C1_4 1_555 1_555
N4_4 C4_3 1_555 1_555
N5_3 C4_3 1_555 1_555
N6_3 C3_4 1_555 1_555
N7_3 Mn2 1_555 1_555
O1_3 Mn2 1_555 1_555
H6_4 O1_3 1_555 1_555
H7_3 O1_3 1_555 1_555
Mn3_4 N3_4 1_555 1_555
N9_4 Mn2 1_555 1_555
C2_4 N1_4 1_555 1_555
C5_3 N7_3 1_555 1_555
C9_3 N7_3 1_555 1_555
N2_3 N3_4 1_555 1_555
N5_3 N6_3 1_555 1_555
Mn2_2 N4_5 1_555 1_555
C1_5 H1_5 1_555 1_555
C2_5 C3_5 1_555 1_555
C3_5 N4_5 1_555 1_555
C4_4 C5_4 1_555 1_555
C5_4 C6_4 1_555 1_555
C6_4 H2_4 1_555 1_555
C7_4 C6_4 1_555 1_555
H3_4 C7_4 1_555 1_555
C8_4 C7_4 1_555 1_555
H4_4 C8_4 1_555 1_555
C9_4 C8_4 1_555 1_555
H5_4 C9_4 1_555 1_555
N1_5 C1_5 1_555 1_555
N2_4 C2_5 1_555 1_555
N3_5 C1_5 1_555 1_555
N4_5 C4_4 1_555 1_555
N5_4 C4_4 1_555 1_555
N6_4 C3_5 1_555 1_555
N7_4 Mn2_2 1_555 1_555
O1_4 Mn2_2 1_555 1_555
H6_5 O1_4 1_555 1_555
H7_4 O1_4 1_555 1_555
Mn2_4 N2_4 1_555 1_555
Mn3_5 N3_5 1_555 1_555
N9_5 Mn2_2 1_555 1_555
C2_5 N1_5 1_555 1_555
C5_4 N7_4 1_555 1_555
C9_4 N7_4 1_555 1_555
N2_4 N3_5 1_555 1_555
N5_4 N6_4 1_555 1_555
N6_4 Mn2_4 1_555 1_555
Mn1_4 N4_6 1_555 1_555
C2_6 C3_6 1_555 1_555
C3_6 N4_6 1_555 1_555
C4_5 C5_5 1_555 1_555
C5_5 C6_5 1_555 1_555
C6_5 H2_5 1_555 1_555
C7_5 C6_5 1_555 1_555
H3_5 C7_5 1_555 1_555
C8_5 C7_5 1_555 1_555
H4_5 C8_5 1_555 1_555
C9_5 C8_5 1_555 1_555
H5_5 C9_5 1_555 1_555
N8 C2_6 1_555 1_555
N4_6 C4_5 1_555 1_555
N5_5 C4_5 1_555 1_555
N10 C3_6 1_555 1_555
N7_5 Mn1_4 1_555 1_555
O1_5 Mn1_4 1_555 1_555
H6_6 O1_5 1_555 1_555
H7_5 O1_5 1_555 1_555
N8_4 Mn1_4 1_555 1_555
N9_6 Mn1_4 1_555 1_555
N10_4 Mn1_4 1_555 1_555
C2_6 N1_6 1_555 1_555
C5_5 N7_5 1_555 1_555
C9_5 N7_5 1_555 1_555
N5_5 N10 1_555 1_555
C1_6 H1_6 1_555 1_555
N3_6 C1_6 1_555 1_555
Mn3_6 N3_6 1_555 1_555
C4_6 C5_6 1_555 1_555
C5_6 C6_6 1_555 1_555
C6_6 H2_6 1_555 1_555
C7_6 C6_6 1_555 1_555
H3_6 C7_6 1_555 1_555
C8_6 C7_6 1_555 1_555
H4_6 C8_6 1_555 1_555
C9_6 C8_6 1_555 1_555
H5_6 C9_6 1_555 1_555
N5_6 C4_6 1_555 1_555
C5_6 N7_6 1_555 1_555
C9_6 N7_6 1_555 1_555
Mn2_3 N4_7 1_555 1_555
C1_7 H1_7 1_555 1_555
C2_7 C3_7 1_555 1_555
C3_7 N4_7 1_555 1_555
N1_7 C1_7 1_555 1_555
N8_4 C2_7 1_555 1_555
N3_7 C1_7 1_555 1_555
N10_4 C3_7 1_555 1_555
O1_6 Mn2_3 1_555 1_555
H6_7 O1_6 1_555 1_555
H7_6 O1_6 1_555 1_555
Mn3_7 N3_7 1_555 1_555
N9_7 Mn2_3 1_555 1_555
C2_7 N1_7 1_555 1_555
N8_4 N3_7 1_555 1_555
C1_8 H1_8 1_555 1_555
N3_8 C1_8 1_555 1_555
Mn3_8 N3_8 1_555 1_555
Mn2_4 N4_8 1_555 1_555
C2_8 C3_8 1_555 1_555
C3_8 N4_8 1_555 1_555
C4_7 C5_7 1_555 1_555
C5_7 C6_7 1_555 1_555
C6_7 H2_7 1_555 1_555
C7_7 C6_7 1_555 1_555
H3_7 C7_7 1_555 1_555
C8_7 C7_7 1_555 1_555
H4_7 C8_7 1_555 1_555
C9_7 C8_7 1_555 1_555
H5_7 C9_7 1_555 1_555
N8_3 C2_8 1_555 1_555
N4_8 C4_7 1_555 1_555
N5_7 C4_7 1_555 1_555
N10_3 C3_8 1_555 1_555
N7_7 Mn2_4 1_555 1_555
O1_7 Mn2_4 1_555 1_555
H6_8 O1_7 1_555 1_555
H7_7 O1_7 1_555 1_555
N9_8 Mn2_4 1_555 1_555
C2_8 N1_8 1_555 1_555
C5_7 N7_7 1_555 1_555
C9_7 N7_7 1_555 1_555
N5_7 N10_3 1_555 1_555
Mn3_6 N4_9 1_555 1_555
C1_9 H1_9 1_555 1_555
C2_9 C3_9 1_555 1_555
C3_9 N4_9 1_555 1_555
N1_9 C1_9 1_555 1_555
N2_5 C2_9 1_555 1_555
N9_8 C1_9 1_555 1_555
N6_5 C3_9 1_555 1_555
Mn3_5 N2_5 1_555 1_555
C2_9 N1_9 1_555 1_555
N2_5 N9_8 1_555 1_555
N6_5 Mn3_5 1_555 1_555
Mn3_7 N4_10 1_555 1_555
C1_10 H1_10 1_555 1_555
C2_10 C3_10 1_555 1_555
C3_10 N4_10 1_555 1_555
C4_8 C5_8 1_555 1_555
C5_8 C6_8 1_555 1_555
C6_8 H2_8 1_555 1_555
C7_8 C6_8 1_555 1_555
H3_8 C7_8 1_555 1_555
C8_8 C7_8 1_555 1_555
H4_8 C8_8 1_555 1_555
C9_8 C8_8 1_555 1_555
H5_8 C9_8 1_555 1_555
N1_10 C1_10 1_555 1_555
N2_6 C2_10 1_555 1_555
N9_5 C1_10 1_555 1_555
N4_10 C4_8 1_555 1_555
N5_8 C4_8 1_555 1_555
N6_6 C3_10 1_555 1_555
N7_8 Mn3_7 1_555 1_555
O1_8 Mn3_7 1_555 1_555
H6_10 O1_8 1_555 1_555
H7_8 O1_8 1_555 1_555
Mn3_2 N2_6 1_555 1_555
N8_6 Mn3_7 1_555 1_555
N10_6 Mn3_7 1_555 1_555
C2_10 N1_10 1_555 1_555
C5_8 N7_8 1_555 1_555
C9_8 N7_8 1_555 1_555
N2_6 N9_5 1_555 1_555
N5_8 N6_6 1_555 1_555
N6_6 Mn3_2 1_555 1_555
H7_9 O1_9 1_555 1_555
Mn3_8 N4_11 1_555 1_555
C1_11 H1_11 1_555 1_555
C2_11 C3_11 1_555 1_555
C3_11 N4_11 1_555 1_555
C4_9 C5_9 1_555 1_555
C5_9 C6_9 1_555 1_555
C6_9 H2_9 1_555 1_555
C7_9 C6_9 1_555 1_555
H3_9 C7_9 1_555 1_555
C8_9 C7_9 1_555 1_555
H4_9 C8_9 1_555 1_555
C9_9 C8_9 1_555 1_555
H5_9 C9_9 1_555 1_555
N1_11 C1_11 1_555 1_555
N8_6 C2_11 1_555 1_555
N9_6 C1_11 1_555 1_555
N4_11 C4_9 1_555 1_555
N5_9 C4_9 1_555 1_555
N10_6 C3_11 1_555 1_555
N7_9 Mn3_8 1_555 1_555
C2_11 N1_11 1_555 1_555
C5_9 N7_9 1_555 1_555
C9_9 N7_9 1_555 1_555
N8_6 N9_6 1_555 1_555
N5_9 N10_6 1_555 1_555
Mn3_5 N4_12 1_555 1_555
C1_12 H1_12 1_555 1_555
C2_12 C3_12 1_555 1_555
C3_12 N4_12 1_555 1_555
C4_10 C5_10 1_555 1_555
C5_10 C6_10 1_555 1_555
C6_10 H2_10 1_555 1_555
C7_10 C6_10 1_555 1_555
H3_10 C7_10 1_555 1_555
C8_10 C7_10 1_555 1_555
H4_10 C8_10 1_555 1_555
C9_10 C8_10 1_555 1_555
H5_10 C9_10 1_555 1_555
N1_12 C1_12 1_555 1_555
N2_7 C2_12 1_555 1_555
N9_7 C1_12 1_555 1_555
N4_12 C4_10 1_555 1_555
N5_10 C4_10 1_555 1_555
N6_7 C3_12 1_555 1_555
N7_10 Mn3_5 1_555 1_555
O1_10 Mn3_5 1_555 1_555
H6_12 O1_10 1_555 1_555
H7_10 O1_10 1_555 1_555
C2_12 N1_12 1_555 1_555
C5_10 N7_10 1_555 1_555
C9_10 N7_10 1_555 1_555
N2_7 N9_7 1_555 1_555
N5_10 N6_7 1_555 1_555
Mn3_2 N4_13 1_555 1_555
C1_13 H1_13 1_555 1_555
C2_13 C3_13 1_555 1_555
C3_13 N4_13 1_555 1_555
C4_11 C5_11 1_555 1_555
C5_11 C6_11 1_555 1_555
C6_11 H2_11 1_555 1_555
C7_11 C6_11 1_555 1_555
H3_11 C7_11 1_555 1_555
C8_11 C7_11 1_555 1_555
H4_11 C8_11 1_555 1_555
C9_11 C8_11 1_555 1_555
H5_11 C9_11 1_555 1_555
N1_13 C1_13 1_555 1_555
N2_8 C2_13 1_555 1_555
N9_4 C1_13 1_555 1_555
N4_13 C4_11 1_555 1_555
N5_11 C4_11 1_555 1_555
N6_8 C3_13 1_555 1_555
N7_11 Mn3_2 1_555 1_555
O1_11 Mn3_2 1_555 1_555
H6_13 O1_11 1_555 1_555
H7_11 O1_11 1_555 1_555
Mn3 N2_8 1_555 1_555
C2_13 N1_13 1_555 1_555
C5_11 N7_11 1_555 1_555
C9_11 N7_11 1_555 1_555
N2_8 N9_4 1_555 1_555
N5_11 N6_8 1_555 1_555
N6_8 Mn3 1_555 1_555
C1_14 H1_14 1_555 1_555
N9 C1_14 1_555 1_555
Mn3_3 N4_14 1_555 1_555
C2_14 C3_14 1_555 1_555
C3_14 N4_14 1_555 1_555
C4_12 C5_12 1_555 1_555
C5_12 C6_12 1_555 1_555
C6_12 H2_12 1_555 1_555
C7_12 C6_12 1_555 1_555
H3_12 C7_12 1_555 1_555
C8_12 C7_12 1_555 1_555
H4_12 C8_12 1_555 1_555
C9_12 C8_12 1_555 1_555
H5_12 C9_12 1_555 1_555
N8_5 C2_14 1_555 1_555
N4_14 C4_12 1_555 1_555
N5_12 C4_12 1_555 1_555
N10_5 C3_14 1_555 1_555
N7_12 Mn3_3 1_555 1_555
O1_12 Mn3_3 1_555 1_555
H6_14 O1_12 1_555 1_555
H7_12 O1_12 1_555 1_555
N8_8 Mn3_3 1_555 1_555
N10_8 Mn3_3 1_555 1_555
C2_14 N1_14 1_555 1_555
C5_12 N7_12 1_555 1_555
C9_12 N7_12 1_555 1_555
N5_12 N10_5 1_555 1_555
Mn3_4 N4_15 1_555 1_555
C1_15 H1_15 1_555 1_555
C2_15 C3_15 1_555 1_555
C3_15 N4_15 1_555 1_555
N1_15 C1_15 1_555 1_555
N8_8 C2_15 1_555 1_555
N9_2 C1_15 1_555 1_555
N10_8 C3_15 1_555 1_555
O1_13 Mn3_4 1_555 1_555
H6_15 O1_13 1_555 1_555
H7_13 O1_13 1_555 1_555
C2_15 N1_15 1_555 1_555
N8_8 N9_2 1_555 1_555
C4_13 C5_13 1_555 1_555
C5_13 C6_13 1_555 1_555
C6_13 H2_13 1_555 1_555
C7_13 C6_13 1_555 1_555
H3_13 C7_13 1_555 1_555
C8_13 C7_13 1_555 1_555
H4_13 C8_13 1_555 1_555
C9_13 C8_13 1_555 1_555
H5_13 C9_13 1_555 1_555
N5_13 C4_13 1_555 1_555
C5_13 N7_13 1_555 1_555
C9_13 N7_13 1_555 1_555
Mn3 N4_16 1_555 1_555
C2_16 C3_16 1_555 1_555
C3_16 N4_16 1_555 1_555
C4_14 C5_14 1_555 1_555
C5_14 C6_14 1_555 1_555
C6_14 H2_14 1_555 1_555
C7_14 C6_14 1_555 1_555
H3_14 C7_14 1_555 1_555
C8_14 C7_14 1_555 1_555
H4_14 C8_14 1_555 1_555
C9_14 C8_14 1_555 1_555
H5_14 C9_14 1_555 1_555
N8_7 C2_16 1_555 1_555
N4_16 C4_14 1_555 1_555
N5_14 C4_14 1_555 1_555
N10_7 C3_16 1_555 1_555
N7_14 Mn3 1_555 1_555
O1_14 Mn3 1_555 1_555
H6_16 O1_14 1_555 1_555
H7_14 O1_14 1_555 1_555
C2_16 N1_16 1_555 1_555
C5_14 N7_14 1_555 1_555
C9_14 N7_14 1_555 1_555
N5_14 N10_7 1_555 1_555
C1_16 H1_16 1_555 1_555
N9_3 C1_16 1_555 1_555
H7_15 O1_15 1_555 1_555
C4_15 C5_15 1_555 1_555
C5_15 C6_15 1_555 1_555
C6_15 H2_15 1_555 1_555
C7_15 C6_15 1_555 1_555
H3_15 C7_15 1_555 1_555
C8_15 C7_15 1_555 1_555
H4_15 C8_15 1_555 1_555
C9_15 C8_15 1_555 1_555
H5_15 C9_15 1_555 1_555
N5_15 C4_15 1_555 1_555
C5_15 N7_15 1_555 1_555
C9_15 N7_15 1_555 1_555
C4_16 C5_16 1_555 1_555
C5_16 C6_16 1_555 1_555
C6_16 H2_16 1_555 1_555
C7_16 C6_16 1_555 1_555
H3_16 C7_16 1_555 1_555
C8_16 C7_16 1_555 1_555
H4_16 C8_16 1_555 1_555
C9_16 C8_16 1_555 1_555
H5_16 C9_16 1_555 1_555
N5_16 C4_16 1_555 1_555
C5_16 N7_16 1_555 1_555
C9_16 N7_16 1_555 1_555
H7_16 O1_16 1_555 1_555

#END
