
###############################################################################
#
# This file contains modified crystal structure data generated from the
# MOF subset of the Cambridge Structural Database (CSD) v543 
# hosted by the Cambridge Crystallographic Data Centre (CCDC).
#
# This work is licensed under the Creative Commons
# Attribution-NonCommercial-ShareAlike 4.0 International License.
# To view a copy of this license, visit
# http://creativecommons.org/licenses/by-nc-sa/4.0/
# or send a letter to
# Creative Commons, PO Box 1866, Mountain View, CA 94042, USA.
#
# CIF created using the CSD Python API on 29 September 2022
# The structure has been converted into the P1 space group
# The structure has a 3D framework
# The original CSD entry DIBJIJ is in the monoclinic crystal system
# The framework has been calculated to contain at least 10.0% void space
# The void calculation uses a probe of radius 1.32A, grid spacing 0.4
# The framework is charged, counterions have been retained in the structure
#
###############################################################################

data_DIBJIJ
_chemical_formula_moiety         '(C352 H342 Eu24 N32 O179 S32)n'
_symmetry_cell_setting           triclinic
_symmetry_space_group_name_H-M   'P 1'
_symmetry_Int_Tables_number      1
_space_group_name_Hall           'P 1'
loop_
_symmetry_equiv_pos_site_id
_symmetry_equiv_pos_as_xyz
1 x,y,z
_cell_length_a                   47.1489(12)
_cell_length_b                   10.9944(3)
_cell_length_c                   28.3561(8)
_cell_angle_alpha                90
_cell_angle_beta                 120.5630(10)
_cell_angle_gamma                90
_cell_volume                     12656.9
loop_
_atom_site_label
_atom_site_type_symbol
_atom_site_fract_x
_atom_site_fract_y
_atom_site_fract_z
S2 S 0.34431(2) 0.80496(9) 0.04017(4)
S3 S 0.68391(2) 0.31591(9) 0.29561(4)
C10 C 0.43707(9) 0.4948(3) 0.00701(17)
C11 C 0.47137(9) 0.4895(3) 0.04071(16)
N3 N 0.49107(7) 0.3992(3) 0.03995(14)
H6 H 0.4858 0.3446 0.0172
C12 C 0.52211(9) 0.4101(4) 0.08461(17)
C13 C 0.52276(10) 0.5179(4) 0.11357(19)
H7 H 0.5413 0.5492 0.1457
C14 C 0.49183(9) 0.5673(4) 0.08641(18)
H8 H 0.4851 0.6400 0.0960
C15 C 0.54754(9) 0.3253(4) 0.09975(16)
C16 C 0.54663(9) 0.2260(4) 0.06808(17)
N4 N 0.52197(7) 0.2002(3) 0.01574(14)
C18 C 0.56637(9) 0.0735(4) 0.04056(18)
H9 H 0.5796 0.0112 0.0383
C19 C 0.57449(10) 0.1448(4) 0.08416(19)
H10 H 0.5944 0.1426 0.1186
C27 C 0.41841(9) 0.5863(4) 0.01868(17)
C30 C 0.37566(9) 0.7323(3) 0.03411(17)
C31 C 0.39919(9) 0.6621(4) 0.07740(18)
H17 H 0.4005 0.6631 0.1119
C32 C 0.42057(9) 0.5911(4) 0.06941(17)
H18 H 0.4370 0.5449 0.0990
C33 C 0.57923(9) 0.3404(4) 0.15313(16)
C34 C 0.60295(10) 0.4203(4) 0.15704(18)
H19 H 0.5974 0.4782 0.1288
C35 C 0.63476(10) 0.4169(4) 0.20189(17)
H20 H 0.6510 0.4716 0.2044
C36 C 0.64245(9) 0.3328(4) 0.24288(15)
C37 C 0.61847(10) 0.2579(4) 0.24100(18)
H21 H 0.6237 0.2032 0.2703
C38 C 0.58682(10) 0.2623(4) 0.19651(19)
H22 H 0.5702 0.2118 0.1955
O16 O 0.33564(8) 0.9141(3) 0.00745(14)
O17 O 0.31708(7) 0.7171(3) 0.01863(14)
O18 O 0.35744(8) 0.8266(3) 0.09828(13)
O19 O 0.70276(7) 0.3084(3) 0.26783(12)
O20 O 0.69313(7) 0.4225(2) 0.33114(11)
O21 O 0.68473(6) 0.2030(2) 0.32313(11)
Eu4 Eu 0.716850(4) 0.121430(16) 0.417635(7)
Eu5 Eu 0.765836(4) 0.060085(16) 0.562864(7)
Eu6 Eu 0.801666(4) 0.217858(16) 0.490283(8)
S8 S 0.39048(2) 0.23377(9) 0.09931(4)
H47 H 0.5239 0.0193 0.1653
H56 H 0.6859 0.0175 0.2599
C83 C 0.46194(9) 0.0165(4) 0.07024(17)
C84 C 0.46496(13) 0.1411(4) 0.0754(2)
H67 H 0.4819 0.1810 0.0724
C85 C 0.44338(12) 0.2094(4) 0.0850(2)
H68 H 0.4453 0.2955 0.0880
C86 C 0.41960(9) 0.1516(4) 0.09012(17)
C87 C 0.41731(12) 0.0272(4) 0.0879(3)
O25 O 0.66160(6) 0.0357(2) 0.37051(11)
H71 H 0.6436 0.0748 0.3578
O29 O 0.80493(7) 0.1223(3) 0.41364(12)
H79 H 0.7933 0.1614 0.3804
H80 H 0.8049 0.0431 0.4088
O30 O 0.82155(8) 0.3644(3) 0.44183(13)
H81 H 0.8257 0.4377 0.4593
H82 H 0.8282 0.3273 0.4237
O31 O 0.80966(6) 0.1967(2) 0.57909(10)
H83 H 0.8262 0.1672 0.6082
O32 O 0.79036(6) 0.4220(2) 0.50772(10)
H84 H 0.8058 0.4645 0.5106
O33 O 0.75171(6) 0.2668(2) 0.40852(10)
H85 H 0.7542 0.2512 0.3800
O34 O 0.76965(6) 0.0399(2) 0.48163(10)
O36 O 0.73177(7) 0.0041(2) 0.35619(11)
O38 O 0.83989(6) 0.0394(2) 0.52124(12)
H87 H 0.8594 0.0399 0.5469
O45 O 0.39051(7) 0.1823(3) 0.14648(13)
O46 O 0.35882(6) 0.2138(3) 0.04887(12)
O47 O 0.40015(7) 0.3606(3) 0.10683(13)
Eu7 Eu 0.783150(4) 0.378570(16) 0.582365(7)
Eu9 Eu 0.734164(4) 0.439915(16) 0.437136(7)
O48 O 0.69034(6) 0.3033(2) 0.42091(10)
O50 O 0.70964(6) 0.0780(2) 0.49228(10)
O52 O 0.74829(6) 0.2332(2) 0.59148(10)
O54 O 0.7500 0.2500 0.5000
O56 O 0.80687(7) 0.0775(2) 0.66886(11)
O57 O 0.85882(6) 0.2862(3) 0.54887(12)
S1 S 0.27876(2) 0.12094(9) 0.64355(4)
N1 N 0.46335(7) 0.1529(3) 0.91172(14)
H1 H 0.4680 0.1998 0.9387
C1 C 0.43276(9) 0.1471(4) 0.86527(17)
C2 C 0.43548(10) 0.0723(4) 0.82712(18)
H2 H 0.4182 0.0532 0.7912
C3 C 0.46731(10) 0.0325(4) 0.85097(18)
C4 C 0.48488(9) 0.0825(4) 0.90460(17)
C5 C 0.40452(9) 0.2027(4) 0.85912(17)
C6 C 0.40348(9) 0.2810(3) 0.89726(16)
N2 N 0.43043(8) 0.3325(3) 0.94178(14)
C7 C 0.41832(9) 0.4121(4) 0.96452(17)
C8 C 0.38243(9) 0.4044(4) 0.93518(18)
H4 H 0.3681 0.4472 0.9437
C9 C 0.37348(9) 0.3250(4) 0.89374(18)
H5 H 0.3516 0.3021 0.8672
C17 C 0.53375(9) 0.1093(4) 0.99764(17)
C20 C 0.51777(9) 0.0598(4) 0.94487(18)
C21 C 0.37320(9) 0.1808(4) 0.80620(17)
C22 C 0.35528(12) 0.0746(4) 0.79666(19)
H11 H 0.3627 0.0143 0.8244
C23 C 0.32634(12) 0.0555(4) 0.74655(19)
C24 C 0.31575(9) 0.1433(4) 0.70673(16)
C25 C 0.33263(13) 0.2498(5) 0.7159(2)
H13 H 0.3246 0.3113 0.6886
C26 C 0.36150(13) 0.2674(5) 0.7653(2)
H14 H 0.3735 0.3407 0.7712
C28 C 0.39627(10) 0.6636(4) 0.97721(18)
H15 H 0.3958 0.6661 0.9433
C29 C 0.37490(10) 0.7369(4) 0.98478(18)
H16 H 0.3600 0.7896 0.9564
H25 H 0.5987 0.0129 0.9067
C44 C 0.56143(13) 0.0393(4) 0.9222(3)
H26 H 0.5631 0.1255 0.9239
H28 H 0.3429 0.0415 0.6198
O2 O 0.25944(7) 0.0351(3) 0.38823(12)
H29 H 0.2539 0.1102 0.3810
H30 H 0.2676 0.0246 0.3695
O3 O 0.25168(6) 0.1547(2) 0.46607(11)
H31 H 0.2443 0.2154 0.4499
H32 H 0.2717 0.1794 0.4784
O4 O 0.18743(6) 0.0800(2) 0.40110(12)
H33 H 0.1672 0.0449 0.3733
H34 H 0.1851 0.1430 0.4194
H42 H 0.2300 0.0293 0.5289
O11 O 0.28604(7) 0.1343(3) 0.59955(11)
O13 O 0.25532(7) 0.2112(2) 0.64070(13)
H44 H 0.1643 0.0328 0.4702
Eu11 Eu 0.301666(4) 0.282142(16) 0.990283(8)
S5 S 0.72124(2) 0.87906(9) 0.35645(4)
N5 N 0.53665(7) 0.8471(3) 0.08828(14)
H45 H 0.5320 0.8002 0.0613
C45 C 0.56724(9) 0.8529(4) 0.13473(17)
C46 C 0.56452(10) 0.9277(4) 0.17288(18)
H46 H 0.5818 0.9468 0.2088
C47 C 0.53269(10) 0.9675(4) 0.14903(18)
C48 C 0.51512(9) 0.9175(4) 0.09540(17)
C49 C 0.59548(9) 0.7973(4) 0.14088(17)
C50 C 0.59652(9) 0.7190(3) 0.10274(16)
N6 N 0.56957(8) 0.6675(3) 0.05822(14)
C51 C 0.58168(9) 0.5879(4) 0.03548(17)
C52 C 0.61757(9) 0.5956(4) 0.06482(18)
H48 H 0.6319 0.5528 0.0563
C53 C 0.62652(9) 0.6750(4) 0.10626(18)
H49 H 0.6484 0.6979 0.1328
C61 C 0.46625(9) 0.8907(4) 0.00236(17)
C64 C 0.48223(9) 0.9402(4) 0.05513(18)
C65 C 0.62680(9) 0.8192(4) 0.19380(17)
C66 C 0.64472(12) 0.9254(4) 0.20334(19)
H55 H 0.6373 0.9857 0.1756
C67 C 0.67366(12) 0.9445(4) 0.25345(19)
C68 C 0.68425(9) 0.8567(4) 0.29327(16)
C69 C 0.66737(13) 0.7502(5) 0.2841(2)
H57 H 0.6754 0.6887 0.3114
C70 C 0.63850(13) 0.7326(5) 0.2347(2)
H58 H 0.6265 0.6593 0.2288
C72 C 0.60373(10) 0.3364(4) 0.02279(18)
H59 H 0.6042 0.3339 0.0567
C73 C 0.62510(10) 0.2631(4) 0.01522(18)
H60 H 0.6400 0.2104 0.0436
H69 H 0.4013 0.9871 0.0933
C88 C 0.43857(13) 0.9607(4) 0.0778(3)
H70 H 0.4369 0.8745 0.0761
H72 H 0.6571 0.9585 0.3802
O26 O 0.74056(7) 0.9649(3) 0.61177(12)
H73 H 0.7461 0.8898 0.6190
H74 H 0.7324 0.9754 0.6305
O27 O 0.74832(6) 0.8453(2) 0.53393(11)
H75 H 0.7557 0.7846 0.5501
H76 H 0.7283 0.8206 0.5216
O28 O 0.81257(6) 0.9200(2) 0.59890(12)
H77 H 0.8328 0.9551 0.6267
H78 H 0.8149 0.8570 0.5806
H86 H 0.7700 0.9707 0.4711
O35 O 0.71396(7) 0.8657(3) 0.40045(11)
O37 O 0.74468(7) 0.7888(2) 0.35930(13)
H88 H 0.8357 0.9672 0.5298
Eu13 Eu 0.698334(4) 0.717858(16) 0.009717(8)
Eu1 Eu 0.283150(4) 0.878570(16) 0.582365(7)
Eu2 Eu 0.234164(4) 0.939915(16) 0.437136(7)
Eu3 Eu 0.198334(4) 0.782142(16) 0.509717(8)
S4 S 0.60952(2) 0.76623(9) 0.90069(4)
H3 H 0.4761 0.9807 0.8347
H12 H 0.3141 0.9825 0.7401
C39 C 0.53806(9) 0.9835(4) 0.92976(17)
C40 C 0.53504(13) 0.8589(4) 0.9246(2)
H23 H 0.5181 0.8190 0.9276
C41 C 0.55662(12) 0.7906(4) 0.9150(2)
H24 H 0.5547 0.7045 0.9120
C42 C 0.58040(9) 0.8484(4) 0.90988(17)
C43 C 0.58269(12) 0.9728(4) 0.9121(3)
O1 O 0.33840(6) 0.9643(2) 0.62949(11)
H27 H 0.3564 0.9252 0.6422
O5 O 0.19507(7) 0.8777(3) 0.58636(12)
H35 H 0.2067 0.8386 0.6196
H36 H 0.1951 0.9569 0.5912
O6 O 0.17845(8) 0.6356(3) 0.55817(13)
H37 H 0.1743 0.5623 0.5407
H38 H 0.1718 0.6727 0.5763
O7 O 0.19034(6) 0.8033(2) 0.42091(10)
H39 H 0.1738 0.8328 0.3918
O8 O 0.20964(6) 0.5780(2) 0.49228(10)
H40 H 0.1942 0.5355 0.4894
O9 O 0.24829(6) 0.7332(2) 0.59148(10)
H41 H 0.2458 0.7488 0.6200
O10 O 0.23035(6) 0.9601(2) 0.51837(10)
O12 O 0.26823(7) 0.9959(2) 0.64381(11)
O14 O 0.2500 0.7500 0.5000
O15 O 0.16011(6) 0.9606(2) 0.47876(12)
H43 H 0.1406 0.9601 0.4531
O22 O 0.60949(7) 0.8177(3) 0.85352(13)
O23 O 0.64118(6) 0.7862(3) 0.95113(12)
O24 O 0.59985(7) 0.6394(3) 0.89317(13)
S6 S 0.65569(2) 0.19504(9) 0.95983(4)
S7 S 0.31609(2) 0.68409(9) 0.70439(4)
C54 C 0.56293(9) 0.5052(3) 0.99299(17)
C55 C 0.52863(9) 0.5105(3) 0.95929(16)
N7 N 0.50893(7) 0.6008(3) 0.96005(14)
H50 H 0.5142 0.6554 0.9828
C56 C 0.47789(9) 0.5899(4) 0.91539(17)
C57 C 0.47724(10) 0.4821(4) 0.88643(19)
H51 H 0.4587 0.4508 0.8543
C58 C 0.50817(9) 0.4327(4) 0.91359(18)
H52 H 0.5149 0.3600 0.9040
C59 C 0.45246(9) 0.6747(4) 0.90025(16)
C60 C 0.45337(9) 0.7740(4) 0.93192(17)
N8 N 0.47803(7) 0.7998(3) 0.98426(14)
C62 C 0.43363(9) 0.9265(4) 0.95944(18)
H53 H 0.4204 0.9888 0.9617
C63 C 0.42551(10) 0.8552(4) 0.91584(19)
H54 H 0.4056 0.8574 0.8814
C71 C 0.58159(9) 0.4137(4) 0.98132(17)
C74 C 0.62434(9) 0.2677(3) 0.96589(17)
C75 C 0.60081(9) 0.3379(4) 0.92260(18)
H61 H 0.5995 0.3369 0.8881
C76 C 0.57943(9) 0.4089(4) 0.93059(17)
H62 H 0.5630 0.4551 0.9010
C77 C 0.42077(9) 0.6596(4) 0.84687(16)
C78 C 0.39705(10) 0.5797(4) 0.84296(18)
H63 H 0.4026 0.5218 0.8712
C79 C 0.36524(10) 0.5831(4) 0.79811(17)
H64 H 0.3490 0.5284 0.7956
C80 C 0.35755(9) 0.6672(4) 0.75712(15)
C81 C 0.38153(10) 0.7421(4) 0.75900(18)
H65 H 0.3763 0.7968 0.7297
C82 C 0.41318(10) 0.7377(4) 0.80349(19)
H66 H 0.4298 0.7882 0.8045
O39 O 0.66436(8) 0.0859(3) 0.99255(14)
O40 O 0.68292(7) 0.2829(3) 0.98137(14)
O41 O 0.64256(8) 0.1734(3) 0.90172(13)
O42 O 0.29724(7) 0.6916(3) 0.73217(12)
O43 O 0.30687(7) 0.5775(2) 0.66886(11)
O44 O 0.31527(6) 0.7970(2) 0.67687(11)
Eu8 Eu 0.216850(4) 0.621430(16) 0.417635(7)
Eu10 Eu 0.265836(4) 0.560085(16) 0.562864(7)
Eu12 Eu 0.301666(4) 0.717858(16) 0.490283(8)
O49 O 0.30966(6) 0.6967(2) 0.57909(10)
O51 O 0.29036(6) 0.9220(2) 0.50772(10)
O53 O 0.25171(6) 0.7668(2) 0.40852(10)
O55 O 0.19313(7) 0.9225(2) 0.33114(11)
O58 O 0.14118(6) 0.7138(3) 0.45113(12)
S1_2 S 0.72124(2) 0.12094(9) 0.85645(4)
S2_2 S 0.65569(2) 0.80496(9) 0.45983(4)
S3_2 S 0.31609(2) 0.31591(9) 0.20439(4)
N1_2 N 0.53665(7) 0.1529(3) 0.58828(14)
H1_2 H 0.5320 0.1998 0.5613
C1_2 C 0.56724(9) 0.1471(4) 0.63473(17)
C2_2 C 0.56452(10) 0.0723(4) 0.67288(18)
H2_2 H 0.5818 0.0532 0.7088
C3_2 C 0.53269(10) 0.0325(4) 0.64903(18)
C4_2 C 0.51512(9) 0.0825(4) 0.59540(17)
C5_2 C 0.59548(9) 0.2027(4) 0.64088(17)
C6_2 C 0.59652(9) 0.2810(3) 0.60274(16)
N2_2 N 0.56957(8) 0.3325(3) 0.55822(14)
C7_2 C 0.58168(9) 0.4121(4) 0.53548(17)
C8_2 C 0.61757(9) 0.4044(4) 0.56482(18)
H4_2 H 0.6319 0.4472 0.5563
C9_2 C 0.62652(9) 0.3250(4) 0.60626(18)
H5_2 H 0.6484 0.3021 0.6328
C10_2 C 0.56293(9) 0.4948(3) 0.49299(17)
C11_2 C 0.52863(9) 0.4895(3) 0.45929(16)
N3_2 N 0.50893(7) 0.3992(3) 0.46005(14)
H6_2 H 0.5142 0.3446 0.4828
C12_2 C 0.47789(9) 0.4101(4) 0.41539(17)
C13_2 C 0.47724(10) 0.5179(4) 0.38643(19)
H7_2 H 0.4587 0.5492 0.3543
C14_2 C 0.50817(9) 0.5673(4) 0.41359(18)
H8_2 H 0.5149 0.6400 0.4040
C15_2 C 0.45246(9) 0.3253(4) 0.40025(16)
C16_2 C 0.45337(9) 0.2260(4) 0.43192(17)
C17_2 C 0.46625(9) 0.1093(4) 0.50236(17)
N4_2 N 0.47803(7) 0.2002(3) 0.48426(14)
C18_2 C 0.43363(9) 0.0735(4) 0.45944(18)
H9_2 H 0.4204 0.0112 0.4617
C19_2 C 0.42551(10) 0.1448(4) 0.41584(19)
H10_2 H 0.4056 0.1426 0.3814
C20_2 C 0.48223(9) 0.0598(4) 0.55513(18)
C21_2 C 0.62680(9) 0.1808(4) 0.69380(17)
C22_2 C 0.64472(12) 0.0746(4) 0.70334(19)
H11_2 H 0.6373 0.0143 0.6756
C23_2 C 0.67366(12) 0.0555(4) 0.75345(19)
C24_2 C 0.68425(9) 0.1433(4) 0.79327(16)
C25_2 C 0.66737(13) 0.2498(5) 0.7841(2)
H13_2 H 0.6754 0.3113 0.8114
C26_2 C 0.63850(13) 0.2674(5) 0.7347(2)
H14_2 H 0.6265 0.3407 0.7288
C27_2 C 0.58159(9) 0.5863(4) 0.48132(17)
C28_2 C 0.60373(10) 0.6636(4) 0.52279(18)
H15_2 H 0.6042 0.6661 0.5567
C29_2 C 0.62510(10) 0.7369(4) 0.51522(18)
H16_2 H 0.6400 0.7896 0.5436
C30_2 C 0.62434(9) 0.7323(3) 0.46589(17)
C31_2 C 0.60081(9) 0.6621(4) 0.42260(18)
H17_2 H 0.5995 0.6631 0.3881
C32_2 C 0.57943(9) 0.5911(4) 0.43059(17)
H18_2 H 0.5630 0.5449 0.4010
C33_2 C 0.42077(9) 0.3404(4) 0.34687(16)
C34_2 C 0.39705(10) 0.4203(4) 0.34296(18)
H19_2 H 0.4026 0.4782 0.3712
C35_2 C 0.36524(10) 0.4169(4) 0.29811(17)
H20_2 H 0.3490 0.4716 0.2956
C36_2 C 0.35755(9) 0.3328(4) 0.25712(15)
C37_2 C 0.38153(10) 0.2579(4) 0.25900(18)
H21_2 H 0.3763 0.2032 0.2297
C38_2 C 0.41318(10) 0.2623(4) 0.30349(19)
H22_2 H 0.4298 0.2118 0.3045
H25_2 H 0.4013 0.0129 0.5933
C44_2 C 0.43857(13) 0.0393(4) 0.5778(3)
H26_2 H 0.4369 0.1255 0.5761
H28_2 H 0.6571 0.0415 0.8802
H42_2 H 0.7700 0.0293 0.9711
O11_2 O 0.71396(7) 0.1343(3) 0.90045(11)
O13_2 O 0.74468(7) 0.2112(2) 0.85930(13)
O16_2 O 0.66436(8) 0.9141(3) 0.49255(14)
O17_2 O 0.68292(7) 0.7171(3) 0.48137(14)
O18_2 O 0.64256(8) 0.8266(3) 0.40172(13)
O19_2 O 0.29724(7) 0.3084(3) 0.23217(12)
O20_2 O 0.30687(7) 0.4225(2) 0.16886(11)
O21_2 O 0.31527(6) 0.2030(2) 0.17687(11)
Eu4_2 Eu 0.283150(4) 0.121430(16) 0.082365(7)
Eu6_2 Eu 0.198334(4) 0.217858(16) 0.009717(8)
S8_2 S 0.60952(2) 0.23377(9) 0.40069(4)
H47_2 H 0.4761 0.0193 0.3347
H56_2 H 0.3141 0.0175 0.2401
C83_2 C 0.53806(9) 0.0165(4) 0.42976(17)
C84_2 C 0.53504(13) 0.1411(4) 0.4246(2)
H67_2 H 0.5181 0.1810 0.4276
C85_2 C 0.55662(12) 0.2094(4) 0.4150(2)
H68_2 H 0.5547 0.2955 0.4120
C86_2 C 0.58040(9) 0.1516(4) 0.40988(17)
C87_2 C 0.58269(12) 0.0272(4) 0.4121(3)
O25_2 O 0.33840(6) 0.0357(2) 0.12949(11)
H71_2 H 0.3564 0.0748 0.1422
O29_2 O 0.19507(7) 0.1223(3) 0.08636(12)
H79_2 H 0.2067 0.1614 0.1196
H80_2 H 0.1951 0.0431 0.0912
O30_2 O 0.17845(8) 0.3644(3) 0.05817(13)
H81_2 H 0.1743 0.4377 0.0407
H82_2 H 0.1718 0.3273 0.0763
O33_2 O 0.24829(6) 0.2668(2) 0.09148(10)
H85_2 H 0.2458 0.2512 0.1200
O34_2 O 0.23035(6) 0.0399(2) 0.01837(10)
O36_2 O 0.26823(7) 0.0041(2) 0.14381(11)
O45_2 O 0.60949(7) 0.1823(3) 0.35352(13)
O46_2 O 0.64118(6) 0.2138(3) 0.45113(12)
O47_2 O 0.59985(7) 0.3606(3) 0.39317(13)
Eu9_2 Eu 0.265836(4) 0.439915(16) 0.062864(7)
Eu11_2 Eu 0.698334(4) 0.282142(16) 0.509717(8)
O48_2 O 0.30966(6) 0.3033(2) 0.07909(10)
O50_2 O 0.29036(6) 0.0780(2) 0.00772(10)
O54_2 O 0.2500 0.2500 0.0000
Eu5_2 Eu 0.234164(4) 0.060085(16) 0.937136(7)
O31_2 O 0.19034(6) 0.1967(2) 0.92091(10)
H83_2 H 0.1738 0.1672 0.8918
O32_2 O 0.20964(6) 0.4220(2) 0.99228(10)
H84_2 H 0.1942 0.4645 0.9894
O38_2 O 0.16011(6) 0.0394(2) 0.97876(12)
H87_2 H 0.1406 0.0399 0.9531
Eu7_2 Eu 0.216850(4) 0.378570(16) 0.917635(7)
O52_2 O 0.25171(6) 0.2332(2) 0.90852(10)
O54_3 O 0.2500 0.2500 1.0000
O56_2 O 0.19313(7) 0.0775(2) 0.83114(11)
O57_2 O 0.14118(6) 0.2862(3) 0.95113(12)
Eu2_2 Eu 0.765836(4) 0.939915(16) 0.062864(7)
O7_2 O 0.80966(6) 0.8033(2) 0.07909(10)
H39_2 H 0.8262 0.8328 0.1082
O8_2 O 0.79036(6) 0.5780(2) 0.00772(10)
H40_2 H 0.8058 0.5355 0.0106
O14_2 O 0.7500 0.7500 0.0000
O15_2 O 0.83989(6) 0.9606(2) 0.02124(12)
H43_2 H 0.8594 0.9601 0.0469
Eu8_2 Eu 0.783150(4) 0.621430(16) 0.082365(7)
O53_2 O 0.74829(6) 0.7668(2) 0.09148(10)
O55_2 O 0.80687(7) 0.9225(2) 0.16886(11)
O58_2 O 0.85882(6) 0.7138(3) 0.04887(12)
Eu1_2 Eu 0.716850(4) 0.878570(16) 0.917635(7)
Eu3_2 Eu 0.801666(4) 0.782142(16) 0.990283(8)
S4_2 S 0.39048(2) 0.76623(9) 0.59931(4)
H3_2 H 0.5239 0.9807 0.6653
H12_2 H 0.6859 0.9825 0.7599
C39_2 C 0.46194(9) 0.9835(4) 0.57024(17)
C40_2 C 0.46496(13) 0.8589(4) 0.5754(2)
H23_2 H 0.4819 0.8190 0.5724
C41_2 C 0.44338(12) 0.7906(4) 0.5850(2)
H24_2 H 0.4453 0.7045 0.5880
C42_2 C 0.41960(9) 0.8484(4) 0.59012(17)
C43_2 C 0.41731(12) 0.9728(4) 0.5879(3)
O1_2 O 0.66160(6) 0.9643(2) 0.87051(11)
H27_2 H 0.6436 0.9252 0.8578
O5_2 O 0.80493(7) 0.8777(3) 0.91364(12)
H35_2 H 0.7933 0.8386 0.8804
H36_2 H 0.8049 0.9569 0.9088
O6_2 O 0.82155(8) 0.6356(3) 0.94183(13)
H37_2 H 0.8257 0.5623 0.9593
H38_2 H 0.8282 0.6727 0.9237
O9_2 O 0.75171(6) 0.7332(2) 0.90852(10)
H41_2 H 0.7542 0.7488 0.8800
O10_2 O 0.76965(6) 0.9601(2) 0.98163(10)
O12_2 O 0.73177(7) 0.9959(2) 0.85619(11)
O14_3 O 0.7500 0.7500 1.0000
O22_2 O 0.39051(7) 0.8177(3) 0.64648(13)
O23_2 O 0.35882(6) 0.7862(3) 0.54887(12)
O24_2 O 0.40015(7) 0.6394(3) 0.60683(13)
S5_2 S 0.27876(2) 0.87906(9) 0.14355(4)
S6_2 S 0.34431(2) 0.19504(9) 0.54017(4)
S7_2 S 0.68391(2) 0.68409(9) 0.79561(4)
N5_2 N 0.46335(7) 0.8471(3) 0.41172(14)
H45_2 H 0.4680 0.8002 0.4387
C45_2 C 0.43276(9) 0.8529(4) 0.36527(17)
C46_2 C 0.43548(10) 0.9277(4) 0.32712(18)
H46_2 H 0.4182 0.9468 0.2912
C47_2 C 0.46731(10) 0.9675(4) 0.35097(18)
C48_2 C 0.48488(9) 0.9175(4) 0.40460(17)
C49_2 C 0.40452(9) 0.7973(4) 0.35912(17)
C50_2 C 0.40348(9) 0.7190(3) 0.39726(16)
N6_2 N 0.43043(8) 0.6675(3) 0.44178(14)
C51_2 C 0.41832(9) 0.5879(4) 0.46452(17)
C52_2 C 0.38243(9) 0.5956(4) 0.43518(18)
H48_2 H 0.3681 0.5528 0.4437
C53_2 C 0.37348(9) 0.6750(4) 0.39374(18)
H49_2 H 0.3516 0.6979 0.3672
C54_2 C 0.43707(9) 0.5052(3) 0.50701(17)
C55_2 C 0.47137(9) 0.5105(3) 0.54071(16)
N7_2 N 0.49107(7) 0.6008(3) 0.53995(14)
H50_2 H 0.4858 0.6554 0.5172
C56_2 C 0.52211(9) 0.5899(4) 0.58461(17)
C57_2 C 0.52276(10) 0.4821(4) 0.61357(19)
H51_2 H 0.5413 0.4508 0.6457
C58_2 C 0.49183(9) 0.4327(4) 0.58641(18)
H52_2 H 0.4851 0.3600 0.5960
C59_2 C 0.54754(9) 0.6747(4) 0.59975(16)
C60_2 C 0.54663(9) 0.7740(4) 0.56808(17)
C61_2 C 0.53375(9) 0.8907(4) 0.49764(17)
N8_2 N 0.52197(7) 0.7998(3) 0.51574(14)
C62_2 C 0.56637(9) 0.9265(4) 0.54056(18)
H53_2 H 0.5796 0.9888 0.5383
C63_2 C 0.57449(10) 0.8552(4) 0.58416(19)
H54_2 H 0.5944 0.8574 0.6186
C64_2 C 0.51777(9) 0.9402(4) 0.44487(18)
C65_2 C 0.37320(9) 0.8192(4) 0.30620(17)
C66_2 C 0.35528(12) 0.9254(4) 0.29666(19)
H55_2 H 0.3627 0.9857 0.3244
C67_2 C 0.32634(12) 0.9445(4) 0.24655(19)
C68_2 C 0.31575(9) 0.8567(4) 0.20673(16)
C69_2 C 0.33263(13) 0.7502(5) 0.2159(2)
H57_2 H 0.3246 0.6887 0.1886
C70_2 C 0.36150(13) 0.7326(5) 0.2653(2)
H58_2 H 0.3735 0.6593 0.2712
C71_2 C 0.41841(9) 0.4137(4) 0.51868(17)
C72_2 C 0.39627(10) 0.3364(4) 0.47721(18)
H59_2 H 0.3958 0.3339 0.4433
C73_2 C 0.37490(10) 0.2631(4) 0.48478(18)
H60_2 H 0.3600 0.2104 0.4564
C74_2 C 0.37566(9) 0.2677(3) 0.53411(17)
C75_2 C 0.39919(9) 0.3379(4) 0.57740(18)
H61_2 H 0.4005 0.3369 0.6119
C76_2 C 0.42057(9) 0.4089(4) 0.56941(17)
H62_2 H 0.4370 0.4551 0.5990
C77_2 C 0.57923(9) 0.6596(4) 0.65313(16)
C78_2 C 0.60295(10) 0.5797(4) 0.65704(18)
H63_2 H 0.5974 0.5218 0.6288
C79_2 C 0.63476(10) 0.5831(4) 0.70189(17)
H64_2 H 0.6510 0.5284 0.7044
C80_2 C 0.64245(9) 0.6672(4) 0.74288(15)
C81_2 C 0.61847(10) 0.7421(4) 0.74100(18)
H65_2 H 0.6237 0.7968 0.7703
C82_2 C 0.58682(10) 0.7377(4) 0.69651(19)
H66_2 H 0.5702 0.7882 0.6955
H69_2 H 0.5987 0.9871 0.4067
C88_2 C 0.56143(13) 0.9607(4) 0.4222(3)
H70_2 H 0.5631 0.8745 0.4239
H72_2 H 0.3429 0.9585 0.1198
H86_2 H 0.2300 0.9707 0.0289
O35_2 O 0.28604(7) 0.8657(3) 0.09955(11)
O37_2 O 0.25532(7) 0.7888(2) 0.14070(13)
O39_2 O 0.33564(8) 0.0859(3) 0.50745(14)
O40_2 O 0.31708(7) 0.2829(3) 0.51863(14)
O41_2 O 0.35744(8) 0.1734(3) 0.59828(13)
O42_2 O 0.70276(7) 0.6916(3) 0.76783(12)
O43_2 O 0.69313(7) 0.5775(2) 0.83114(11)
O44_2 O 0.68473(6) 0.7970(2) 0.82313(11)
Eu10_2 Eu 0.734164(4) 0.560085(16) 0.937136(7)
O49_2 O 0.69034(6) 0.6967(2) 0.92091(10)
O51_2 O 0.70964(6) 0.9220(2) 0.99228(10)
S3_3 S 0.18391(2) 0.81591(9) 0.29561(4)
C12_3 C 0.02211(9) 0.9101(4) 0.08461(17)
C15_3 C 0.04754(9) 0.8253(4) 0.09975(16)
C16_3 C 0.04663(9) 0.7260(4) 0.06808(17)
N4_3 N 0.02197(7) 0.7002(3) 0.01574(14)
C18_3 C 0.06637(9) 0.5735(4) 0.04056(18)
H9_3 H 0.0796 0.5112 0.0383
C19_3 C 0.07449(10) 0.6448(4) 0.08416(19)
H10_3 H 0.0944 0.6426 0.1186
C33_3 C 0.07923(9) 0.8404(4) 0.15313(16)
C34_3 C 0.10295(10) 0.9203(4) 0.15704(18)
H19_3 H 0.0974 0.9782 0.1288
C35_3 C 0.13476(10) 0.9169(4) 0.20189(17)
H20_3 H 0.1510 0.9716 0.2044
C36_3 C 0.14245(9) 0.8328(4) 0.24288(15)
C37_3 C 0.11847(10) 0.7579(4) 0.24100(18)
H21_3 H 0.1237 0.7032 0.2703
C38_3 C 0.08682(10) 0.7623(4) 0.19651(19)
H22_3 H 0.0702 0.7118 0.1955
O19_3 O 0.20276(7) 0.8084(3) 0.26783(12)
O21_3 O 0.18473(6) 0.7030(2) 0.32313(11)
S5_3 S 0.22124(2) 0.37906(9) 0.35645(4)
N5_3 N 0.03665(7) 0.3471(3) 0.08828(14)
H45_3 H 0.0320 0.3002 0.0613
C45_3 C 0.06724(9) 0.3529(4) 0.13473(17)
C46_3 C 0.06452(10) 0.4277(4) 0.17288(18)
H46_3 H 0.0818 0.4468 0.2088
C47_3 C 0.03269(10) 0.4675(4) 0.14903(18)
H47_3 H 0.0239 0.5193 0.1653
C48_3 C 0.01512(9) 0.4175(4) 0.09540(17)
C49_3 C 0.09548(9) 0.2973(4) 0.14088(17)
C50_3 C 0.09652(9) 0.2190(3) 0.10274(16)
N6_3 N 0.06957(8) 0.1675(3) 0.05822(14)
C51_3 C 0.08168(9) 0.0879(4) 0.03548(17)
C52_3 C 0.11757(9) 0.0956(4) 0.06482(18)
H48_3 H 0.1319 0.0528 0.0563
C53_3 C 0.12652(9) 0.1750(4) 0.10626(18)
H49_3 H 0.1484 0.1979 0.1328
C65_3 C 0.12680(9) 0.3192(4) 0.19380(17)
C66_3 C 0.14472(12) 0.4254(4) 0.20334(19)
H55_3 H 0.1373 0.4857 0.1756
C67_3 C 0.17366(12) 0.4445(4) 0.25345(19)
H56_3 H 0.1859 0.5175 0.2599
C68_3 C 0.18425(9) 0.3567(4) 0.29327(16)
C69_3 C 0.16737(13) 0.2502(5) 0.2841(2)
H57_3 H 0.1754 0.1887 0.3114
C70_3 C 0.13850(13) 0.2326(5) 0.2347(2)
H58_3 H 0.1265 0.1593 0.2288
O25_3 O 0.16160(6) 0.5357(2) 0.37051(11)
H71_3 H 0.1436 0.5748 0.3578
H72_3 H 0.1571 0.4585 0.3802
O26_2 O 0.24056(7) 0.4649(3) 0.61177(12)
H73_2 H 0.2461 0.3898 0.6190
H74_2 H 0.2324 0.4754 0.6305
O27_2 O 0.24832(6) 0.3453(2) 0.53393(11)
H75_2 H 0.2557 0.2846 0.5501
H76_2 H 0.2283 0.3206 0.5216
O28_2 O 0.31257(6) 0.4200(2) 0.59890(12)
H77_2 H 0.3328 0.4551 0.6267
H78_2 H 0.3149 0.3570 0.5806
O29_3 O 0.30493(7) 0.6223(3) 0.41364(12)
H79_3 H 0.2933 0.6614 0.3804
H80_3 H 0.3049 0.5431 0.4088
O30_3 O 0.32155(8) 0.8644(3) 0.44183(13)
H81_3 H 0.3257 0.9377 0.4593
H82_3 H 0.3282 0.8273 0.4237
H83_3 H 0.3262 0.6672 0.6082
H84_3 H 0.3058 0.9645 0.5106
H85_3 H 0.2542 0.7512 0.3800
O34_3 O 0.26965(6) 0.5399(2) 0.48163(10)
H86_3 H 0.2700 0.4707 0.4711
O35_3 O 0.21396(7) 0.3657(3) 0.40045(11)
O36_3 O 0.23177(7) 0.5041(2) 0.35619(11)
O37_3 O 0.24468(7) 0.2888(2) 0.35930(13)
O38_3 O 0.33989(6) 0.5394(2) 0.52124(12)
H87_3 H 0.3594 0.5399 0.5469
H88_2 H 0.3357 0.4672 0.5298
S4_3 S 0.10952(2) 0.26623(9) 0.90069(4)
C17_3 C 0.03375(9) 0.6093(4) 0.99764(17)
C20_3 C 0.01777(9) 0.5598(4) 0.94487(18)
C39_3 C 0.03806(9) 0.4835(4) 0.92976(17)
C40_3 C 0.03504(13) 0.3589(4) 0.9246(2)
H23_3 H 0.0181 0.3190 0.9276
C41_3 C 0.05662(12) 0.2906(4) 0.9150(2)
H24_3 H 0.0547 0.2045 0.9120
C42_3 C 0.08040(9) 0.3484(4) 0.90988(17)
C43_3 C 0.08269(12) 0.4728(4) 0.9121(3)
H25_3 H 0.0987 0.5129 0.9067
C44_3 C 0.06143(13) 0.5393(4) 0.9222(3)
H26_3 H 0.0631 0.6255 0.9239
O22_3 O 0.10949(7) 0.3177(3) 0.85352(13)
O24_3 O 0.09985(7) 0.1394(3) 0.89317(13)
C54_3 C 0.06293(9) 0.0052(3) 0.99299(17)
C55_3 C 0.02863(9) 0.0105(3) 0.95929(16)
N7_3 N 0.00893(7) 0.1008(3) 0.96005(14)
H50_3 H 0.0142 0.1554 0.9828
C10_3 C 0.93707(9) 0.9948(3) 0.00701(17)
C11_3 C 0.97137(9) 0.9895(3) 0.04071(16)
N3_3 N 0.99107(7) 0.8992(3) 0.03995(14)
H6_3 H 0.9858 0.8446 0.0172
S8_3 S 0.89048(2) 0.73377(9) 0.09931(4)
C61_3 C 0.96625(9) 0.3907(4) 0.00236(17)
C64_3 C 0.98223(9) 0.4402(4) 0.05513(18)
C83_3 C 0.96194(9) 0.5165(4) 0.07024(17)
C84_3 C 0.96496(13) 0.6411(4) 0.0754(2)
H67_3 H 0.9819 0.6810 0.0724
C85_3 C 0.94338(12) 0.7094(4) 0.0850(2)
H68_3 H 0.9453 0.7955 0.0880
C86_3 C 0.91960(9) 0.6516(4) 0.09012(17)
C87_3 C 0.91731(12) 0.5272(4) 0.0879(3)
H69_3 H 0.9013 0.4871 0.0933
C88_3 C 0.93857(13) 0.4607(4) 0.0778(3)
H70_3 H 0.9369 0.3745 0.0761
O45_3 O 0.89051(7) 0.6823(3) 0.14648(13)
O47_3 O 0.90015(7) 0.8606(3) 0.10683(13)
S1_3 S 0.77876(2) 0.62094(9) 0.64355(4)
N1_3 N 0.96335(7) 0.6529(3) 0.91172(14)
H1_3 H 0.9680 0.6998 0.9387
C1_3 C 0.93276(9) 0.6471(4) 0.86527(17)
C2_3 C 0.93548(10) 0.5723(4) 0.82712(18)
H2_3 H 0.9182 0.5532 0.7912
C3_3 C 0.96731(10) 0.5325(4) 0.85097(18)
H3_3 H 0.9761 0.4807 0.8347
C4_3 C 0.98488(9) 0.5825(4) 0.90460(17)
C5_3 C 0.90452(9) 0.7027(4) 0.85912(17)
C6_3 C 0.90348(9) 0.7810(3) 0.89726(16)
N2_3 N 0.93043(8) 0.8325(3) 0.94178(14)
C7_3 C 0.91832(9) 0.9121(4) 0.96452(17)
C8_3 C 0.88243(9) 0.9044(4) 0.93518(18)
H4_3 H 0.8681 0.9472 0.9437
C9_3 C 0.87348(9) 0.8250(4) 0.89374(18)
H5_3 H 0.8516 0.8021 0.8672
C21_3 C 0.87320(9) 0.6808(4) 0.80620(17)
C22_3 C 0.85528(12) 0.5746(4) 0.79666(19)
H11_3 H 0.8627 0.5143 0.8244
C23_3 C 0.82634(12) 0.5555(4) 0.74655(19)
H12_3 H 0.8141 0.4825 0.7401
C24_3 C 0.81575(9) 0.6433(4) 0.70673(16)
C25_3 C 0.83263(13) 0.7498(5) 0.7159(2)
H13_3 H 0.8246 0.8113 0.6886
C26_3 C 0.86150(13) 0.7674(5) 0.7653(2)
H14_3 H 0.8735 0.8407 0.7712
O1_3 O 0.83840(6) 0.4643(2) 0.62949(11)
H27_3 H 0.8564 0.4252 0.6422
H28_3 H 0.8429 0.5415 0.6198
O2_2 O 0.75944(7) 0.5351(3) 0.38823(12)
H29_2 H 0.7539 0.6102 0.3810
H30_2 H 0.7676 0.5246 0.3695
O3_2 O 0.75168(6) 0.6547(2) 0.46607(11)
H31_2 H 0.7443 0.7154 0.4499
H32_2 H 0.7717 0.6794 0.4784
O4_2 O 0.68743(6) 0.5800(2) 0.40110(12)
H33_2 H 0.6672 0.5449 0.3733
H34_2 H 0.6851 0.6430 0.4194
O5_3 O 0.69507(7) 0.3777(3) 0.58636(12)
H35_3 H 0.7067 0.3386 0.6196
H36_3 H 0.6951 0.4569 0.5912
O6_3 O 0.67845(8) 0.1356(3) 0.55817(13)
H37_3 H 0.6743 0.0623 0.5407
H38_3 H 0.6718 0.1727 0.5763
H39_3 H 0.6738 0.3328 0.3918
H40_3 H 0.6942 0.0355 0.4894
H41_3 H 0.7458 0.2488 0.6200
O10_3 O 0.73035(6) 0.4601(2) 0.51837(10)
H42_3 H 0.7300 0.5293 0.5289
O11_3 O 0.78604(7) 0.6343(3) 0.59955(11)
O12_3 O 0.76823(7) 0.4959(2) 0.64381(11)
O13_3 O 0.75532(7) 0.7112(2) 0.64070(13)
O15_3 O 0.66011(6) 0.4606(2) 0.47876(12)
H43_3 H 0.6406 0.4601 0.4531
H44_2 H 0.6643 0.5328 0.4702
S7_3 S 0.81609(2) 0.18409(9) 0.70439(4)
C56_3 C 0.97789(9) 0.0899(4) 0.91539(17)
C59_3 C 0.95246(9) 0.1747(4) 0.90025(16)
C60_3 C 0.95337(9) 0.2740(4) 0.93192(17)
N8_3 N 0.97803(7) 0.2998(3) 0.98426(14)
C62_3 C 0.93363(9) 0.4265(4) 0.95944(18)
H53_3 H 0.9204 0.4888 0.9617
C63_3 C 0.92551(10) 0.3552(4) 0.91584(19)
H54_3 H 0.9056 0.3574 0.8814
C77_3 C 0.92077(9) 0.1596(4) 0.84687(16)
C78_3 C 0.89705(10) 0.0797(4) 0.84296(18)
H63_3 H 0.9026 0.0218 0.8712
C79_3 C 0.86524(10) 0.0831(4) 0.79811(17)
H64_3 H 0.8490 0.0284 0.7956
C80_3 C 0.85755(9) 0.1672(4) 0.75712(15)
C81_3 C 0.88153(10) 0.2421(4) 0.75900(18)
H65_3 H 0.8763 0.2968 0.7297
C82_3 C 0.91318(10) 0.2377(4) 0.80349(19)
H66_3 H 0.9298 0.2882 0.8045
O42_3 O 0.79724(7) 0.1916(3) 0.73217(12)
O44_3 O 0.81527(6) 0.2970(2) 0.67687(11)
O2_3 O 0.24056(7) 0.5351(3) 0.11177(12)
H29_3 H 0.2461 0.6102 0.1190
H30_3 H 0.2324 0.5246 0.1305
O3_3 O 0.24832(6) 0.6547(2) 0.03393(11)
H31_3 H 0.2557 0.7154 0.0501
H32_3 H 0.2283 0.6794 0.0216
O4_3 O 0.31257(6) 0.5800(2) 0.09890(12)
H33_3 H 0.3328 0.5449 0.1267
H34_3 H 0.3149 0.6430 0.0806
H39_4 H 0.3262 0.3328 0.1082
H40_4 H 0.3058 0.0355 0.0106
O15_4 O 0.33989(6) 0.4606(2) 0.02124(12)
H43_4 H 0.3594 0.4601 0.0469
H44_3 H 0.3357 0.5328 0.0298
S1_4 S 0.22124(2) 0.62094(9) 0.85645(4)
N1_4 N 0.03665(7) 0.6529(3) 0.58828(14)
H1_4 H 0.0320 0.6998 0.5613
C1_4 C 0.06724(9) 0.6471(4) 0.63473(17)
C2_4 C 0.06452(10) 0.5723(4) 0.67288(18)
H2_4 H 0.0818 0.5532 0.7088
C3_4 C 0.03269(10) 0.5325(4) 0.64903(18)
H3_4 H 0.0239 0.4807 0.6653
C4_4 C 0.01512(9) 0.5825(4) 0.59540(17)
C5_4 C 0.09548(9) 0.7027(4) 0.64088(17)
C6_4 C 0.09652(9) 0.7810(3) 0.60274(16)
N2_4 N 0.06957(8) 0.8325(3) 0.55822(14)
C7_4 C 0.08168(9) 0.9121(4) 0.53548(17)
C8_4 C 0.11757(9) 0.9044(4) 0.56482(18)
H4_4 H 0.1319 0.9472 0.5563
C9_4 C 0.12652(9) 0.8250(4) 0.60626(18)
H5_4 H 0.1484 0.8021 0.6328
C10_4 C 0.06293(9) 0.9948(3) 0.49299(17)
C11_4 C 0.02863(9) 0.9895(3) 0.45929(16)
N3_4 N 0.00893(7) 0.8992(3) 0.46005(14)
H6_4 H 0.0142 0.8446 0.4828
C21_4 C 0.12680(9) 0.6808(4) 0.69380(17)
C22_4 C 0.14472(12) 0.5746(4) 0.70334(19)
H11_4 H 0.1373 0.5143 0.6756
C23_4 C 0.17366(12) 0.5555(4) 0.75345(19)
H12_4 H 0.1859 0.4825 0.7599
C24_4 C 0.18425(9) 0.6433(4) 0.79327(16)
C25_4 C 0.16737(13) 0.7498(5) 0.7841(2)
H13_4 H 0.1754 0.8113 0.8114
C26_4 C 0.13850(13) 0.7674(5) 0.7347(2)
H14_4 H 0.1265 0.8407 0.7288
O1_4 O 0.16160(6) 0.4643(2) 0.87051(11)
H27_4 H 0.1436 0.4252 0.8578
H28_4 H 0.1571 0.5415 0.8802
O5_4 O 0.30493(7) 0.3777(3) 0.91364(12)
H35_4 H 0.2933 0.3386 0.8804
H36_4 H 0.3049 0.4569 0.9088
O6_4 O 0.32155(8) 0.1356(3) 0.94183(13)
H37_4 H 0.3257 0.0623 0.9593
H38_4 H 0.3282 0.1727 0.9237
H41_4 H 0.2542 0.2488 0.8800
O10_4 O 0.26965(6) 0.4601(2) 0.98163(10)
H42_4 H 0.2700 0.5293 0.9711
O11_4 O 0.21396(7) 0.6343(3) 0.90045(11)
O12_4 O 0.23177(7) 0.4959(2) 0.85619(11)
O13_4 O 0.24468(7) 0.7112(2) 0.85930(13)
S7_4 S 0.18391(2) 0.18409(9) 0.79561(4)
S8_4 S 0.10952(2) 0.73377(9) 0.40069(4)
C56_4 C 0.02211(9) 0.0899(4) 0.58461(17)
C59_4 C 0.04754(9) 0.1747(4) 0.59975(16)
C60_4 C 0.04663(9) 0.2740(4) 0.56808(17)
C61_4 C 0.03375(9) 0.3907(4) 0.49764(17)
N8_4 N 0.02197(7) 0.2998(3) 0.51574(14)
C62_4 C 0.06637(9) 0.4265(4) 0.54056(18)
H53_4 H 0.0796 0.4888 0.5383
C63_4 C 0.07449(10) 0.3552(4) 0.58416(19)
H54_4 H 0.0944 0.3574 0.6186
C64_4 C 0.01777(9) 0.4402(4) 0.44487(18)
C77_4 C 0.07923(9) 0.1596(4) 0.65313(16)
C78_4 C 0.10295(10) 0.0797(4) 0.65704(18)
H63_4 H 0.0974 0.0218 0.6288
C79_4 C 0.13476(10) 0.0831(4) 0.70189(17)
H64_4 H 0.1510 0.0284 0.7044
C80_4 C 0.14245(9) 0.1672(4) 0.74288(15)
C81_4 C 0.11847(10) 0.2421(4) 0.74100(18)
H65_4 H 0.1237 0.2968 0.7703
C82_4 C 0.08682(10) 0.2377(4) 0.69651(19)
H66_4 H 0.0702 0.2882 0.6955
C83_4 C 0.03806(9) 0.5165(4) 0.42976(17)
C84_4 C 0.03504(13) 0.6411(4) 0.4246(2)
H67_4 H 0.0181 0.6810 0.4276
C85_4 C 0.05662(12) 0.7094(4) 0.4150(2)
H68_4 H 0.0547 0.7955 0.4120
C86_4 C 0.08040(9) 0.6516(4) 0.40988(17)
C87_4 C 0.08269(12) 0.5272(4) 0.4121(3)
H69_4 H 0.0987 0.4871 0.4067
C88_4 C 0.06143(13) 0.4607(4) 0.4222(3)
H70_4 H 0.0631 0.3745 0.4239
O42_4 O 0.20276(7) 0.1916(3) 0.76783(12)
O44_4 O 0.18473(6) 0.2970(2) 0.82313(11)
O45_4 O 0.10949(7) 0.6823(3) 0.35352(13)
O47_4 O 0.09985(7) 0.8606(3) 0.39317(13)
S3_4 S 0.81609(2) 0.81591(9) 0.20439(4)
S4_4 S 0.89048(2) 0.26623(9) 0.59931(4)
C12_4 C 0.97789(9) 0.9101(4) 0.41539(17)
C15_4 C 0.95246(9) 0.8253(4) 0.40025(16)
C16_4 C 0.95337(9) 0.7260(4) 0.43192(17)
C17_4 C 0.96625(9) 0.6093(4) 0.50236(17)
N4_4 N 0.97803(7) 0.7002(3) 0.48426(14)
C18_4 C 0.93363(9) 0.5735(4) 0.45944(18)
H9_4 H 0.9204 0.5112 0.4617
C19_4 C 0.92551(10) 0.6448(4) 0.41584(19)
H10_4 H 0.9056 0.6426 0.3814
C20_4 C 0.98223(9) 0.5598(4) 0.55513(18)
C33_4 C 0.92077(9) 0.8404(4) 0.34687(16)
C34_4 C 0.89705(10) 0.9203(4) 0.34296(18)
H19_4 H 0.9026 0.9782 0.3712
C35_4 C 0.86524(10) 0.9169(4) 0.29811(17)
H20_4 H 0.8490 0.9716 0.2956
C36_4 C 0.85755(9) 0.8328(4) 0.25712(15)
C37_4 C 0.88153(10) 0.7579(4) 0.25900(18)
H21_4 H 0.8763 0.7032 0.2297
C38_4 C 0.91318(10) 0.7623(4) 0.30349(19)
H22_4 H 0.9298 0.7118 0.3045
C39_4 C 0.96194(9) 0.4835(4) 0.57024(17)
C40_4 C 0.96496(13) 0.3589(4) 0.5754(2)
H23_4 H 0.9819 0.3190 0.5724
C41_4 C 0.94338(12) 0.2906(4) 0.5850(2)
H24_4 H 0.9453 0.2045 0.5880
C42_4 C 0.91960(9) 0.3484(4) 0.59012(17)
C43_4 C 0.91731(12) 0.4728(4) 0.5879(3)
H25_4 H 0.9013 0.5129 0.5933
C44_4 C 0.93857(13) 0.5393(4) 0.5778(3)
H26_4 H 0.9369 0.6255 0.5761
O19_4 O 0.79724(7) 0.8084(3) 0.23217(12)
O21_4 O 0.81527(6) 0.7030(2) 0.17687(11)
O22_4 O 0.89051(7) 0.3177(3) 0.64648(13)
O24_4 O 0.90015(7) 0.1394(3) 0.60683(13)
S5_4 S 0.77876(2) 0.37906(9) 0.14355(4)
N5_4 N 0.96335(7) 0.3471(3) 0.41172(14)
H45_4 H 0.9680 0.3002 0.4387
C45_4 C 0.93276(9) 0.3529(4) 0.36527(17)
C46_4 C 0.93548(10) 0.4277(4) 0.32712(18)
H46_4 H 0.9182 0.4468 0.2912
C47_4 C 0.96731(10) 0.4675(4) 0.35097(18)
H47_4 H 0.9761 0.5193 0.3347
C48_4 C 0.98488(9) 0.4175(4) 0.40460(17)
C49_4 C 0.90452(9) 0.2973(4) 0.35912(17)
C50_4 C 0.90348(9) 0.2190(3) 0.39726(16)
N6_4 N 0.93043(8) 0.1675(3) 0.44178(14)
C51_4 C 0.91832(9) 0.0879(4) 0.46452(17)
C52_4 C 0.88243(9) 0.0956(4) 0.43518(18)
H48_4 H 0.8681 0.0528 0.4437
C53_4 C 0.87348(9) 0.1750(4) 0.39374(18)
H49_4 H 0.8516 0.1979 0.3672
C54_4 C 0.93707(9) 0.0052(3) 0.50701(17)
C55_4 C 0.97137(9) 0.0105(3) 0.54071(16)
N7_4 N 0.99107(7) 0.1008(3) 0.53995(14)
H50_4 H 0.9858 0.1554 0.5172
C65_4 C 0.87320(9) 0.3192(4) 0.30620(17)
C66_4 C 0.85528(12) 0.4254(4) 0.29666(19)
H55_4 H 0.8627 0.4857 0.3244
C67_4 C 0.82634(12) 0.4445(4) 0.24655(19)
H56_4 H 0.8141 0.5175 0.2401
C68_4 C 0.81575(9) 0.3567(4) 0.20673(16)
C69_4 C 0.83263(13) 0.2502(5) 0.2159(2)
H57_4 H 0.8246 0.1887 0.1886
C70_4 C 0.86150(13) 0.2326(5) 0.2653(2)
H58_4 H 0.8735 0.1593 0.2712
O25_4 O 0.83840(6) 0.5357(2) 0.12949(11)
H71_4 H 0.8564 0.5748 0.1422
H72_4 H 0.8429 0.4585 0.1198
O29_4 O 0.69507(7) 0.6223(3) 0.08636(12)
H79_4 H 0.7067 0.6614 0.1196
H80_4 H 0.6951 0.5431 0.0912
O30_4 O 0.67845(8) 0.8644(3) 0.05817(13)
H81_4 H 0.6743 0.9377 0.0407
H82_4 H 0.6718 0.8273 0.0763
H85_4 H 0.7458 0.7512 0.1200
O34_4 O 0.73035(6) 0.5399(2) 0.01837(10)
H86_4 H 0.7300 0.4707 0.0289
O35_4 O 0.78604(7) 0.3657(3) 0.09955(11)
O36_4 O 0.76823(7) 0.5041(2) 0.14381(11)
O37_4 O 0.75532(7) 0.2888(2) 0.14070(13)
O26_3 O 0.75944(7) 0.4649(3) 0.88823(12)
H73_3 H 0.7539 0.3898 0.8810
H74_3 H 0.7676 0.4754 0.8695
O27_3 O 0.75168(6) 0.3453(2) 0.96607(11)
H75_3 H 0.7443 0.2846 0.9499
H76_3 H 0.7717 0.3206 0.9784
O28_3 O 0.68743(6) 0.4200(2) 0.90110(12)
H77_3 H 0.6672 0.4551 0.8733
H78_3 H 0.6851 0.3570 0.9194
H83_4 H 0.6738 0.6672 0.8918
H84_4 H 0.6942 0.9645 0.9894
O38_4 O 0.66011(6) 0.5394(2) 0.97876(12)
H87_4 H 0.6406 0.5399 0.9531
H88_3 H 0.6643 0.4672 0.9702
O2_4 O 0.74056(7) 0.0351(3) 0.11177(12)
H29_4 H 0.7461 0.1102 0.1190
H30_4 H 0.7324 0.0246 0.1305
O3_4 O 0.74832(6) 0.1547(2) 0.03393(11)
H31_4 H 0.7557 0.2154 0.0501
H32_4 H 0.7283 0.1794 0.0216
O4_4 O 0.81257(6) 0.0800(2) 0.09890(12)
H33_4 H 0.8328 0.0449 0.1267
H34_4 H 0.8149 0.1430 0.0806
H44_4 H 0.8357 0.0328 0.0298
O26_4 O 0.25944(7) 0.9649(3) 0.88823(12)
H73_4 H 0.2539 0.8898 0.8810
H74_4 H 0.2676 0.9754 0.8695
O27_4 O 0.25168(6) 0.8453(2) 0.96607(11)
H75_4 H 0.2443 0.7846 0.9499
H76_4 H 0.2717 0.8206 0.9784
O28_4 O 0.18743(6) 0.9200(2) 0.90110(12)
H77_4 H 0.1672 0.9551 0.8733
H78_4 H 0.1851 0.8570 0.9194
H88_4 H 0.1643 0.9672 0.9702
C13_3 C 0.02276(10) 0.0179(4) 0.11357(19)
H7_3 H 0.0413 0.0492 0.1457
C72_3 C 0.10373(10) 0.8364(4) 0.02279(18)
H59_3 H 0.1042 0.8339 0.0567
C73_3 C 0.12510(10) 0.7631(4) 0.01522(18)
H60_3 H 0.1400 0.7104 0.0436
S6_3 S 0.15569(2) 0.69504(9) 0.95983(4)
C58_3 C 0.00817(9) 0.9327(4) 0.91359(18)
H52_3 H 0.0149 0.8600 0.9040
C71_3 C 0.08159(9) 0.9137(4) 0.98132(17)
C74_3 C 0.12434(9) 0.7677(3) 0.96589(17)
C75_3 C 0.10081(9) 0.8379(4) 0.92260(18)
H61_3 H 0.0995 0.8369 0.8881
C76_3 C 0.07943(9) 0.9089(4) 0.93059(17)
H62_3 H 0.0630 0.9551 0.9010
O39_3 O 0.16436(8) 0.5859(3) 0.99255(14)
O40_3 O 0.18292(7) 0.7829(3) 0.98137(14)
O41_3 O 0.14256(8) 0.6734(3) 0.90172(13)
S2_3 S 0.84431(2) 0.30496(9) 0.04017(4)
C14_3 C 0.99183(9) 0.0673(4) 0.08641(18)
H8_3 H 0.9851 0.1400 0.0960
C27_3 C 0.91841(9) 0.0863(4) 0.01868(17)
C30_3 C 0.87566(9) 0.2323(3) 0.03411(17)
C31_3 C 0.89919(9) 0.1621(4) 0.07740(18)
H17_3 H 0.9005 0.1631 0.1119
C32_3 C 0.92057(9) 0.0911(4) 0.06941(17)
H18_3 H 0.9370 0.0449 0.0990
O16_3 O 0.83564(8) 0.4141(3) 0.00745(14)
O17_3 O 0.81708(7) 0.2171(3) 0.01863(14)
O18_3 O 0.85744(8) 0.3266(3) 0.09828(13)
C28_3 C 0.89627(10) 0.1636(4) 0.97721(18)
H15_3 H 0.8958 0.1661 0.9433
C29_3 C 0.87490(10) 0.2369(4) 0.98478(18)
H16_3 H 0.8600 0.2896 0.9564
C57_3 C 0.97724(10) 0.9821(4) 0.88643(19)
H51_3 H 0.9587 0.9508 0.8543
S2_4 S 0.15569(2) 0.30496(9) 0.45983(4)
C14_4 C 0.00817(9) 0.0673(4) 0.41359(18)
H8_4 H 0.0149 0.1400 0.4040
C27_4 C 0.08159(9) 0.0863(4) 0.48132(17)
C28_4 C 0.10373(10) 0.1636(4) 0.52279(18)
H15_4 H 0.1042 0.1661 0.5567
C29_4 C 0.12510(10) 0.2369(4) 0.51522(18)
H16_4 H 0.1400 0.2896 0.5436
C30_4 C 0.12434(9) 0.2323(3) 0.46589(17)
C31_4 C 0.10081(9) 0.1621(4) 0.42260(18)
H17_4 H 0.0995 0.1631 0.3881
C32_4 C 0.07943(9) 0.0911(4) 0.43059(17)
H18_4 H 0.0630 0.0449 0.4010
O16_4 O 0.16436(8) 0.4141(3) 0.49255(14)
O17_4 O 0.18292(7) 0.2171(3) 0.48137(14)
O18_4 O 0.14256(8) 0.3266(3) 0.40172(13)
C57_4 C 0.02276(10) 0.9821(4) 0.61357(19)
H51_4 H 0.0413 0.9508 0.6457
C13_4 C 0.97724(10) 0.0179(4) 0.38643(19)
H7_4 H 0.9587 0.0492 0.3543
S6_4 S 0.84431(2) 0.69504(9) 0.54017(4)
C58_4 C 0.99183(9) 0.9327(4) 0.58641(18)
H52_4 H 0.9851 0.8600 0.5960
C71_4 C 0.91841(9) 0.9137(4) 0.51868(17)
C72_4 C 0.89627(10) 0.8364(4) 0.47721(18)
H59_4 H 0.8958 0.8339 0.4433
C73_4 C 0.87490(10) 0.7631(4) 0.48478(18)
H60_4 H 0.8600 0.7104 0.4564
C74_4 C 0.87566(9) 0.7677(3) 0.53411(17)
C75_4 C 0.89919(9) 0.8379(4) 0.57740(18)
H61_4 H 0.9005 0.8369 0.6119
C76_4 C 0.92057(9) 0.9089(4) 0.56941(17)
H62_4 H 0.9370 0.9551 0.5990
O39_4 O 0.83564(8) 0.5859(3) 0.50745(14)
O40_4 O 0.81708(7) 0.7829(3) 0.51863(14)
O41_4 O 0.85744(8) 0.6734(3) 0.59828(13)
loop_
_geom_bond_atom_site_label_1
_geom_bond_atom_site_label_2
_geom_bond_site_symmetry_1
_geom_bond_site_symmetry_2
S2 C30 1_555 1_555
S3 C36 1_555 1_555
C11 C10 1_555 1_555
N3 C11 1_555 1_555
H6 N3 1_555 1_555
C12 N3 1_555 1_555
C13 C12 1_555 1_555
H7 C13 1_555 1_555
C14 C11 1_555 1_555
H8 C14 1_555 1_555
C15 C12 1_555 1_555
C16 C15 1_555 1_555
N4 C16 1_555 1_555
H9 C18 1_555 1_555
C19 C16 1_555 1_555
H10 C19 1_555 1_555
C27 C10 1_555 1_555
C31 C30 1_555 1_555
H17 C31 1_555 1_555
C32 C27 1_555 1_555
H18 C32 1_555 1_555
C33 C15 1_555 1_555
C34 C33 1_555 1_555
H19 C34 1_555 1_555
C35 C34 1_555 1_555
H20 C35 1_555 1_555
C36 C35 1_555 1_555
C37 C36 1_555 1_555
H21 C37 1_555 1_555
C38 C33 1_555 1_555
H22 C38 1_555 1_555
O16 S2 1_555 1_555
O17 S2 1_555 1_555
O18 S2 1_555 1_555
O19 S3 1_555 1_555
O20 S3 1_555 1_555
O21 S3 1_555 1_555
Eu4 O21 1_555 1_555
Eu6 O29 1_555 1_555
S8 C86 1_555 1_555
C84 C83 1_555 1_555
H67 C84 1_555 1_555
C85 C84 1_555 1_555
H68 C85 1_555 1_555
C86 C85 1_555 1_555
C87 C86 1_555 1_555
O25 Eu4 1_555 1_555
H71 O25 1_555 1_555
O29 H79 1_555 1_555
H80 O29 1_555 1_555
O30 Eu6 1_555 1_555
H81 O30 1_555 1_555
H82 O30 1_555 1_555
O31 Eu5 1_555 1_555
H83 O31 1_555 1_555
O32 Eu6 1_555 1_555
H84 O32 1_555 1_555
O33 Eu4 1_555 1_555
H85 O33 1_555 1_555
O34 Eu4 1_555 1_555
O36 Eu4 1_555 1_555
O38 Eu6 1_555 1_555
H87 O38 1_555 1_555
O45 S8 1_555 1_555
O46 S8 1_555 1_555
O47 S8 1_555 1_555
Eu7 O31 1_555 1_555
Eu9 O20 1_555 1_555
O48 Eu4 1_555 1_555
O50 Eu4 1_555 1_555
O52 Eu5 1_555 1_555
O54 Eu4 1_555 1_555
O56 Eu5 1_555 1_555
O57 Eu6 1_555 1_555
C13 C14 1_555 1_555
C18 C19 1_555 1_555
C31 C32 1_555 1_555
C37 C38 1_555 1_555
Eu5 O34 1_555 1_555
Eu5 O50 1_555 1_555
Eu5 O54 1_555 1_555
Eu6 O31 1_555 1_555
Eu6 O33 1_555 1_555
Eu6 O34 1_555 1_555
Eu6 O54 1_555 1_555
O32 Eu7 1_555 1_555
O32 Eu9 1_555 1_555
O33 Eu9 1_555 1_555
Eu7 O52 1_555 1_555
Eu7 O54 1_555 1_555
Eu9 O48 1_555 1_555
Eu9 O54 1_555 1_555
S1 C24 1_555 1_555
N1 H1 1_555 1_555
C1 N1 1_555 1_555
C2 C1 1_555 1_555
H2 C2 1_555 1_555
C3 C2 1_555 1_555
C4 N1 1_555 1_555
C5 C1 1_555 1_555
C6 C5 1_555 1_555
N2 C6 1_555 1_555
C7 N2 1_555 1_555
C8 C7 1_555 1_555
H4 C8 1_555 1_555
C9 C6 1_555 1_555
H5 C9 1_555 1_555
C20 C4 1_555 1_555
C21 C5 1_555 1_555
C22 C21 1_555 1_555
H11 C22 1_555 1_555
C23 C22 1_555 1_555
C24 C23 1_555 1_555
C25 C24 1_555 1_555
H13 C25 1_555 1_555
C26 C21 1_555 1_555
H14 C26 1_555 1_555
H15 C28 1_555 1_555
C29 C28 1_555 1_555
H16 C29 1_555 1_555
H26 C44 1_555 1_555
O2 H29 1_555 1_555
H30 O2 1_555 1_555
H31 O3 1_555 1_555
H32 O3 1_555 1_555
H33 O4 1_555 1_555
H34 O4 1_555 1_555
O13 S1 1_555 1_555
S1 O11 1_555 1_555
C3 C4 1_555 1_555
C8 C9 1_555 1_555
C17 C20 1_555 1_555
C25 C26 1_555 1_555
S5 C68 1_555 1_555
N5 H45 1_555 1_555
C45 N5 1_555 1_555
C46 C45 1_555 1_555
H46 C46 1_555 1_555
C47 C46 1_555 1_555
C48 N5 1_555 1_555
C49 C45 1_555 1_555
C50 C49 1_555 1_555
N6 C50 1_555 1_555
C51 N6 1_555 1_555
C52 C51 1_555 1_555
H48 C52 1_555 1_555
C53 C50 1_555 1_555
H49 C53 1_555 1_555
C64 C48 1_555 1_555
C65 C49 1_555 1_555
C66 C65 1_555 1_555
H55 C66 1_555 1_555
C67 C66 1_555 1_555
C68 C67 1_555 1_555
C69 C68 1_555 1_555
H57 C69 1_555 1_555
C70 C65 1_555 1_555
H58 C70 1_555 1_555
H59 C72 1_555 1_555
C73 C72 1_555 1_555
H60 C73 1_555 1_555
H70 C88 1_555 1_555
O26 H73 1_555 1_555
H74 O26 1_555 1_555
H75 O27 1_555 1_555
H76 O27 1_555 1_555
H77 O28 1_555 1_555
H78 O28 1_555 1_555
O37 S5 1_555 1_555
S5 O35 1_555 1_555
C47 C48 1_555 1_555
C52 C53 1_555 1_555
C61 C64 1_555 1_555
C69 C70 1_555 1_555
Eu1 O1 1_555 1_555
Eu3 O5 1_555 1_555
S4 C42 1_555 1_555
C40 C39 1_555 1_555
H23 C40 1_555 1_555
C41 C40 1_555 1_555
H24 C41 1_555 1_555
C42 C41 1_555 1_555
C43 C42 1_555 1_555
O1 H27 1_555 1_555
O5 H35 1_555 1_555
H36 O5 1_555 1_555
O6 Eu3 1_555 1_555
H37 O6 1_555 1_555
H38 O6 1_555 1_555
O7 Eu2 1_555 1_555
H39 O7 1_555 1_555
O8 Eu3 1_555 1_555
H40 O8 1_555 1_555
O9 Eu1 1_555 1_555
H41 O9 1_555 1_555
O10 Eu1 1_555 1_555
O12 Eu1 1_555 1_555
O14 Eu1 1_555 1_555
O15 Eu3 1_555 1_555
H43 O15 1_555 1_555
O22 S4 1_555 1_555
O23 S4 1_555 1_555
O24 S4 1_555 1_555
S6 C74 1_555 1_555
S7 C80 1_555 1_555
C55 C54 1_555 1_555
N7 C55 1_555 1_555
H50 N7 1_555 1_555
C56 N7 1_555 1_555
C57 C56 1_555 1_555
H51 C57 1_555 1_555
C58 C55 1_555 1_555
H52 C58 1_555 1_555
C59 C56 1_555 1_555
C60 C59 1_555 1_555
N8 C60 1_555 1_555
H53 C62 1_555 1_555
C63 C60 1_555 1_555
H54 C63 1_555 1_555
C71 C54 1_555 1_555
C75 C74 1_555 1_555
H61 C75 1_555 1_555
C76 C71 1_555 1_555
H62 C76 1_555 1_555
C77 C59 1_555 1_555
C78 C77 1_555 1_555
H63 C78 1_555 1_555
C79 C78 1_555 1_555
H64 C79 1_555 1_555
C80 C79 1_555 1_555
C81 C80 1_555 1_555
H65 C81 1_555 1_555
C82 C77 1_555 1_555
H66 C82 1_555 1_555
O39 S6 1_555 1_555
O40 S6 1_555 1_555
O41 S6 1_555 1_555
O42 S7 1_555 1_555
O43 S7 1_555 1_555
O44 Eu1 1_555 1_555
Eu8 O7 1_555 1_555
Eu10 O8 1_555 1_555
Eu12 O14 1_555 1_555
O49 Eu1 1_555 1_555
O51 Eu1 1_555 1_555
O53 Eu2 1_555 1_555
O55 Eu2 1_555 1_555
O58 Eu3 1_555 1_555
Eu2 O10 1_555 1_555
Eu2 O14 1_555 1_555
Eu2 O51 1_555 1_555
Eu3 O7 1_555 1_555
Eu3 O9 1_555 1_555
Eu3 O10 1_555 1_555
Eu3 O14 1_555 1_555
O8 Eu8 1_555 1_555
O9 Eu10 1_555 1_555
O14 Eu8 1_555 1_555
O14 Eu10 1_555 1_555
S7 O44 1_555 1_555
C57 C58 1_555 1_555
C62 C63 1_555 1_555
C75 C76 1_555 1_555
C81 C82 1_555 1_555
O43 Eu10 1_555 1_555
Eu8 O53 1_555 1_555
Eu10 O49 1_555 1_555
Eu12 O49 1_555 1_555
Eu12 O51 1_555 1_555
Eu12 O53 1_555 1_555
S1_2 C24_2 1_555 1_555
S2_2 C30_2 1_555 1_555
S3_2 C36_2 1_555 1_555
N1_2 H1_2 1_555 1_555
C1_2 N1_2 1_555 1_555
C2_2 C1_2 1_555 1_555
H2_2 C2_2 1_555 1_555
C3_2 C2_2 1_555 1_555
C4_2 N1_2 1_555 1_555
C5_2 C1_2 1_555 1_555
C6_2 C5_2 1_555 1_555
N2_2 C6_2 1_555 1_555
C7_2 N2_2 1_555 1_555
C8_2 C7_2 1_555 1_555
H4_2 C8_2 1_555 1_555
C9_2 C6_2 1_555 1_555
H5_2 C9_2 1_555 1_555
C10_2 C7_2 1_555 1_555
C11_2 C10_2 1_555 1_555
N3_2 C11_2 1_555 1_555
H6_2 N3_2 1_555 1_555
C12_2 N3_2 1_555 1_555
C13_2 C12_2 1_555 1_555
H7_2 C13_2 1_555 1_555
C14_2 C11_2 1_555 1_555
H8_2 C14_2 1_555 1_555
C15_2 C12_2 1_555 1_555
C16_2 C15_2 1_555 1_555
C17_2 N4_2 1_555 1_555
N4_2 C16_2 1_555 1_555
C18_2 C17_2 1_555 1_555
H9_2 C18_2 1_555 1_555
C19_2 C16_2 1_555 1_555
H10_2 C19_2 1_555 1_555
C20_2 C4_2 1_555 1_555
C21_2 C5_2 1_555 1_555
C22_2 C21_2 1_555 1_555
H11_2 C22_2 1_555 1_555
C23_2 C22_2 1_555 1_555
C24_2 C23_2 1_555 1_555
C25_2 C24_2 1_555 1_555
H13_2 C25_2 1_555 1_555
C26_2 C21_2 1_555 1_555
H14_2 C26_2 1_555 1_555
C27_2 C10_2 1_555 1_555
C28_2 C27_2 1_555 1_555
H15_2 C28_2 1_555 1_555
C29_2 C28_2 1_555 1_555
H16_2 C29_2 1_555 1_555
C30_2 C29_2 1_555 1_555
C31_2 C30_2 1_555 1_555
H17_2 C31_2 1_555 1_555
C32_2 C27_2 1_555 1_555
H18_2 C32_2 1_555 1_555
C33_2 C15_2 1_555 1_555
C34_2 C33_2 1_555 1_555
H19_2 C34_2 1_555 1_555
C35_2 C34_2 1_555 1_555
H20_2 C35_2 1_555 1_555
C36_2 C35_2 1_555 1_555
C37_2 C36_2 1_555 1_555
H21_2 C37_2 1_555 1_555
C38_2 C33_2 1_555 1_555
H22_2 C38_2 1_555 1_555
H26_2 C44_2 1_555 1_555
O13_2 S1_2 1_555 1_555
O16_2 S2_2 1_555 1_555
O17_2 S2_2 1_555 1_555
O18_2 S2_2 1_555 1_555
O19_2 S3_2 1_555 1_555
O20_2 S3_2 1_555 1_555
O21_2 S3_2 1_555 1_555
Eu4_2 O21_2 1_555 1_555
Eu6_2 O29_2 1_555 1_555
S8_2 C86_2 1_555 1_555
C84_2 C83_2 1_555 1_555
H67_2 C84_2 1_555 1_555
C85_2 C84_2 1_555 1_555
H68_2 C85_2 1_555 1_555
C86_2 C85_2 1_555 1_555
C87_2 C86_2 1_555 1_555
O25_2 Eu4_2 1_555 1_555
H71_2 O25_2 1_555 1_555
O29_2 H79_2 1_555 1_555
H80_2 O29_2 1_555 1_555
O30_2 Eu6_2 1_555 1_555
H81_2 O30_2 1_555 1_555
H82_2 O30_2 1_555 1_555
O33_2 Eu4_2 1_555 1_555
H85_2 O33_2 1_555 1_555
O34_2 Eu4_2 1_555 1_555
O36_2 Eu4_2 1_555 1_555
O45_2 S8_2 1_555 1_555
O46_2 S8_2 1_555 1_555
O47_2 S8_2 1_555 1_555
Eu9_2 O20_2 1_555 1_555
Eu11_2 O46_2 1_555 1_555
O48_2 Eu4_2 1_555 1_555
O50_2 Eu4_2 1_555 1_555
O54_2 Eu4_2 1_555 1_555
S1_2 O11_2 1_555 1_555
C3_2 C4_2 1_555 1_555
C8_2 C9_2 1_555 1_555
C13_2 C14_2 1_555 1_555
C17_2 C20_2 1_555 1_555
C18_2 C19_2 1_555 1_555
C25_2 C26_2 1_555 1_555
C31_2 C32_2 1_555 1_555
C37_2 C38_2 1_555 1_555
Eu6_2 O33_2 1_555 1_555
Eu6_2 O34_2 1_555 1_555
Eu6_2 O54_2 1_555 1_555
O33_2 Eu9_2 1_555 1_555
Eu9_2 O48_2 1_555 1_555
Eu9_2 O54_2 1_555 1_555
O31_2 Eu5_2 1_555 1_555
H83_2 O31_2 1_555 1_555
H84_2 O32_2 1_555 1_555
H87_2 O38_2 1_555 1_555
Eu7_2 O31_2 1_555 1_555
O52_2 Eu5_2 1_555 1_555
O56_2 Eu5_2 1_555 1_555
Eu5_2 O54_3 1_555 1_555
O32_2 Eu7_2 1_555 1_555
Eu7_2 O52_2 1_555 1_555
Eu7_2 O54_3 1_555 1_555
O7_2 Eu2_2 1_555 1_555
H39_2 O7_2 1_555 1_555
H40_2 O8_2 1_555 1_555
H43_2 O15_2 1_555 1_555
Eu8_2 O7_2 1_555 1_555
Eu13 O14_2 1_555 1_555
O53_2 Eu2_2 1_555 1_555
O55_2 Eu2_2 1_555 1_555
Eu2_2 O14_2 1_555 1_555
O8_2 Eu8_2 1_555 1_555
O14_2 Eu8_2 1_555 1_555
Eu8_2 O53_2 1_555 1_555
Eu13 O53_2 1_555 1_555
Eu1_2 O1_2 1_555 1_555
Eu3_2 O5_2 1_555 1_555
S4_2 C42_2 1_555 1_555
C40_2 C39_2 1_555 1_555
H23_2 C40_2 1_555 1_555
C41_2 C40_2 1_555 1_555
H24_2 C41_2 1_555 1_555
C42_2 C41_2 1_555 1_555
C43_2 C42_2 1_555 1_555
O1_2 H27_2 1_555 1_555
O5_2 H35_2 1_555 1_555
H36_2 O5_2 1_555 1_555
O6_2 Eu3_2 1_555 1_555
H37_2 O6_2 1_555 1_555
H38_2 O6_2 1_555 1_555
O9_2 Eu1_2 1_555 1_555
H41_2 O9_2 1_555 1_555
O10_2 Eu1_2 1_555 1_555
O12_2 Eu1_2 1_555 1_555
O14_3 Eu1_2 1_555 1_555
O22_2 S4_2 1_555 1_555
O23_2 S4_2 1_555 1_555
O24_2 S4_2 1_555 1_555
S5_2 C68_2 1_555 1_555
S6_2 C74_2 1_555 1_555
S7_2 C80_2 1_555 1_555
N5_2 H45_2 1_555 1_555
C45_2 N5_2 1_555 1_555
C46_2 C45_2 1_555 1_555
H46_2 C46_2 1_555 1_555
C47_2 C46_2 1_555 1_555
C48_2 N5_2 1_555 1_555
C49_2 C45_2 1_555 1_555
C50_2 C49_2 1_555 1_555
N6_2 C50_2 1_555 1_555
C51_2 N6_2 1_555 1_555
C52_2 C51_2 1_555 1_555
H48_2 C52_2 1_555 1_555
C53_2 C50_2 1_555 1_555
H49_2 C53_2 1_555 1_555
C54_2 C51_2 1_555 1_555
C55_2 C54_2 1_555 1_555
N7_2 C55_2 1_555 1_555
H50_2 N7_2 1_555 1_555
C56_2 N7_2 1_555 1_555
C57_2 C56_2 1_555 1_555
H51_2 C57_2 1_555 1_555
C58_2 C55_2 1_555 1_555
H52_2 C58_2 1_555 1_555
C59_2 C56_2 1_555 1_555
C60_2 C59_2 1_555 1_555
C61_2 N8_2 1_555 1_555
N8_2 C60_2 1_555 1_555
C62_2 C61_2 1_555 1_555
H53_2 C62_2 1_555 1_555
C63_2 C60_2 1_555 1_555
H54_2 C63_2 1_555 1_555
C64_2 C48_2 1_555 1_555
C65_2 C49_2 1_555 1_555
C66_2 C65_2 1_555 1_555
H55_2 C66_2 1_555 1_555
C67_2 C66_2 1_555 1_555
C68_2 C67_2 1_555 1_555
C69_2 C68_2 1_555 1_555
H57_2 C69_2 1_555 1_555
C70_2 C65_2 1_555 1_555
H58_2 C70_2 1_555 1_555
C71_2 C54_2 1_555 1_555
C72_2 C71_2 1_555 1_555
H59_2 C72_2 1_555 1_555
C73_2 C72_2 1_555 1_555
H60_2 C73_2 1_555 1_555
C74_2 C73_2 1_555 1_555
C75_2 C74_2 1_555 1_555
H61_2 C75_2 1_555 1_555
C76_2 C71_2 1_555 1_555
H62_2 C76_2 1_555 1_555
C77_2 C59_2 1_555 1_555
C78_2 C77_2 1_555 1_555
H63_2 C78_2 1_555 1_555
C79_2 C78_2 1_555 1_555
H64_2 C79_2 1_555 1_555
C80_2 C79_2 1_555 1_555
C81_2 C80_2 1_555 1_555
H65_2 C81_2 1_555 1_555
C82_2 C77_2 1_555 1_555
H66_2 C82_2 1_555 1_555
H70_2 C88_2 1_555 1_555
O37_2 S5_2 1_555 1_555
O39_2 S6_2 1_555 1_555
O40_2 S6_2 1_555 1_555
O41_2 S6_2 1_555 1_555
O42_2 S7_2 1_555 1_555
O43_2 S7_2 1_555 1_555
O44_2 Eu1_2 1_555 1_555
Eu12 O23_2 1_555 1_555
O49_2 Eu1_2 1_555 1_555
O51_2 Eu1_2 1_555 1_555
Eu3_2 O9_2 1_555 1_555
Eu3_2 O10_2 1_555 1_555
Eu3_2 O14_3 1_555 1_555
O9_2 Eu10_2 1_555 1_555
O14_3 Eu10_2 1_555 1_555
S5_2 O35_2 1_555 1_555
S7_2 O44_2 1_555 1_555
C47_2 C48_2 1_555 1_555
C52_2 C53_2 1_555 1_555
C57_2 C58_2 1_555 1_555
C61_2 C64_2 1_555 1_555
C62_2 C63_2 1_555 1_555
C69_2 C70_2 1_555 1_555
C75_2 C76_2 1_555 1_555
C81_2 C82_2 1_555 1_555
O43_2 Eu10_2 1_555 1_555
Eu10_2 O49_2 1_555 1_555
S3_3 C36_3 1_555 1_555
C15_3 C12_3 1_555 1_555
C16_3 C15_3 1_555 1_555
N4_3 C16_3 1_555 1_555
H9_3 C18_3 1_555 1_555
C19_3 C16_3 1_555 1_555
H10_3 C19_3 1_555 1_555
C33_3 C15_3 1_555 1_555
C34_3 C33_3 1_555 1_555
H19_3 C34_3 1_555 1_555
C35_3 C34_3 1_555 1_555
H20_3 C35_3 1_555 1_555
C36_3 C35_3 1_555 1_555
C37_3 C36_3 1_555 1_555
H21_3 C37_3 1_555 1_555
C38_3 C33_3 1_555 1_555
H22_3 C38_3 1_555 1_555
O19_3 S3_3 1_555 1_555
O55 S3_3 1_555 1_555
O21_3 S3_3 1_555 1_555
Eu8 O21_3 1_555 1_555
Eu10 O26_2 1_555 1_555
Eu12 O29_3 1_555 1_555
S5_3 C68_3 1_555 1_555
N5_3 H45_3 1_555 1_555
C45_3 N5_3 1_555 1_555
C46_3 C45_3 1_555 1_555
H46_3 C46_3 1_555 1_555
C47_3 C46_3 1_555 1_555
H47_3 C47_3 1_555 1_555
C48_3 N5_3 1_555 1_555
C49_3 C45_3 1_555 1_555
C50_3 C49_3 1_555 1_555
N6_3 C50_3 1_555 1_555
C51_3 N6_3 1_555 1_555
C52_3 C51_3 1_555 1_555
H48_3 C52_3 1_555 1_555
C53_3 C50_3 1_555 1_555
H49_3 C53_3 1_555 1_555
C65_3 C49_3 1_555 1_555
C66_3 C65_3 1_555 1_555
H55_3 C66_3 1_555 1_555
C67_3 C66_3 1_555 1_555
H56_3 C67_3 1_555 1_555
C68_3 C67_3 1_555 1_555
C69_3 C68_3 1_555 1_555
H57_3 C69_3 1_555 1_555
C70_3 C65_3 1_555 1_555
H58_3 C70_3 1_555 1_555
O25_3 Eu8 1_555 1_555
H71_3 O25_3 1_555 1_555
H72_3 O25_3 1_555 1_555
O26_2 H73_2 1_555 1_555
H74_2 O26_2 1_555 1_555
O27_2 Eu10 1_555 1_555
H75_2 O27_2 1_555 1_555
H76_2 O27_2 1_555 1_555
O28_2 Eu10 1_555 1_555
H77_2 O28_2 1_555 1_555
H78_2 O28_2 1_555 1_555
O29_3 H79_3 1_555 1_555
H80_3 O29_3 1_555 1_555
O30_3 Eu12 1_555 1_555
H81_3 O30_3 1_555 1_555
H82_3 O30_3 1_555 1_555
H83_3 O49 1_555 1_555
H84_3 O51 1_555 1_555
H85_3 O53 1_555 1_555
O34_3 Eu8 1_555 1_555
H86_3 O34_3 1_555 1_555
O35_3 Eu8 1_555 1_555
O36_3 Eu8 1_555 1_555
O37_3 S5_3 1_555 1_555
O38_3 Eu12 1_555 1_555
H87_3 O38_3 1_555 1_555
H88_2 O38_3 1_555 1_555
C18_3 C19_3 1_555 1_555
C37_3 C38_3 1_555 1_555
Eu10 O34_3 1_555 1_555
Eu12 O34_3 1_555 1_555
S5_3 O35_3 1_555 1_555
S5_3 O36_3 1_555 1_555
C47_3 C48_3 1_555 1_555
C52_3 C53_3 1_555 1_555
C69_3 C70_3 1_555 1_555
S4_3 C42_3 1_555 1_555
C39_3 C20_3 1_555 1_555
C40_3 C39_3 1_555 1_555
H23_3 C40_3 1_555 1_555
C41_3 C40_3 1_555 1_555
H24_3 C41_3 1_555 1_555
C42_3 C41_3 1_555 1_555
C43_3 C42_3 1_555 1_555
H25_3 C43_3 1_555 1_555
C44_3 C39_3 1_555 1_555
H26_3 C44_3 1_555 1_555
O22_3 S4_3 1_555 1_555
O57_2 S4_3 1_555 1_555
O24_3 S4_3 1_555 1_555
C55_3 C54_3 1_555 1_555
N7_3 C55_3 1_555 1_555
H50_3 N7_3 1_555 1_555
C17_3 C20_3 1_555 1_555
C43_3 C44_3 1_555 1_555
C11_3 C10_3 1_555 1_555
N3_3 C11_3 1_555 1_555
H6_3 N3_3 1_555 1_555
S8_3 C86_3 1_555 1_555
C83_3 C64_3 1_555 1_555
C84_3 C83_3 1_555 1_555
H67_3 C84_3 1_555 1_555
C85_3 C84_3 1_555 1_555
H68_3 C85_3 1_555 1_555
C86_3 C85_3 1_555 1_555
C87_3 C86_3 1_555 1_555
H69_3 C87_3 1_555 1_555
C88_3 C83_3 1_555 1_555
H70_3 C88_3 1_555 1_555
O45_3 S8_3 1_555 1_555
O58_2 S8_3 1_555 1_555
O47_3 S8_3 1_555 1_555
C61_3 C64_3 1_555 1_555
C87_3 C88_3 1_555 1_555
Eu7 O1_3 1_555 1_555
Eu9 O2_2 1_555 1_555
Eu11_2 O5_3 1_555 1_555
S1_3 C24_3 1_555 1_555
N1_3 H1_3 1_555 1_555
C1_3 N1_3 1_555 1_555
C2_3 C1_3 1_555 1_555
H2_3 C2_3 1_555 1_555
C3_3 C2_3 1_555 1_555
H3_3 C3_3 1_555 1_555
C4_3 N1_3 1_555 1_555
C5_3 C1_3 1_555 1_555
C6_3 C5_3 1_555 1_555
N2_3 C6_3 1_555 1_555
C7_3 N2_3 1_555 1_555
C8_3 C7_3 1_555 1_555
H4_3 C8_3 1_555 1_555
C9_3 C6_3 1_555 1_555
H5_3 C9_3 1_555 1_555
C21_3 C5_3 1_555 1_555
C22_3 C21_3 1_555 1_555
H11_3 C22_3 1_555 1_555
C23_3 C22_3 1_555 1_555
H12_3 C23_3 1_555 1_555
C24_3 C23_3 1_555 1_555
C25_3 C24_3 1_555 1_555
H13_3 C25_3 1_555 1_555
C26_3 C21_3 1_555 1_555
H14_3 C26_3 1_555 1_555
O1_3 H27_3 1_555 1_555
H28_3 O1_3 1_555 1_555
O2_2 H29_2 1_555 1_555
H30_2 O2_2 1_555 1_555
O3_2 Eu9 1_555 1_555
H31_2 O3_2 1_555 1_555
H32_2 O3_2 1_555 1_555
O4_2 Eu9 1_555 1_555
H33_2 O4_2 1_555 1_555
H34_2 O4_2 1_555 1_555
O5_3 H35_3 1_555 1_555
H36_3 O5_3 1_555 1_555
O6_3 Eu11_2 1_555 1_555
H37_3 O6_3 1_555 1_555
H38_3 O6_3 1_555 1_555
H39_3 O48 1_555 1_555
O50 Eu11_2 1_555 1_555
H40_3 O50 1_555 1_555
H41_3 O52 1_555 1_555
O10_3 Eu7 1_555 1_555
H42_3 O10_3 1_555 1_555
O11_3 Eu7 1_555 1_555
O12_3 Eu7 1_555 1_555
O13_3 S1_3 1_555 1_555
O15_3 Eu11_2 1_555 1_555
H43_3 O15_3 1_555 1_555
H44_2 O15_3 1_555 1_555
S7_3 C80_3 1_555 1_555
C59_3 C56_3 1_555 1_555
C60_3 C59_3 1_555 1_555
N8_3 C60_3 1_555 1_555
H53_3 C62_3 1_555 1_555
C63_3 C60_3 1_555 1_555
H54_3 C63_3 1_555 1_555
C77_3 C59_3 1_555 1_555
C78_3 C77_3 1_555 1_555
H63_3 C78_3 1_555 1_555
C79_3 C78_3 1_555 1_555
H64_3 C79_3 1_555 1_555
C80_3 C79_3 1_555 1_555
C81_3 C80_3 1_555 1_555
H65_3 C81_3 1_555 1_555
C82_3 C77_3 1_555 1_555
H66_3 C82_3 1_555 1_555
O42_3 S7_3 1_555 1_555
O56 S7_3 1_555 1_555
O44_3 Eu7 1_555 1_555
Eu9 O10_3 1_555 1_555
Eu11_2 O48 1_555 1_555
Eu11_2 O52 1_555 1_555
Eu11_2 O10_3 1_555 1_555
Eu11_2 O54 1_555 1_555
S1_3 O11_3 1_555 1_555
S1_3 O12_3 1_555 1_555
C3_3 C4_3 1_555 1_555
C8_3 C9_3 1_555 1_555
C25_3 C26_3 1_555 1_555
S7_3 O44_3 1_555 1_555
C62_3 C63_3 1_555 1_555
C81_3 C82_3 1_555 1_555
Eu9_2 O2_3 1_555 1_555
O2_3 H29_3 1_555 1_555
H30_3 O2_3 1_555 1_555
O3_3 Eu9_2 1_555 1_555
H31_3 O3_3 1_555 1_555
H32_3 O3_3 1_555 1_555
O4_3 Eu9_2 1_555 1_555
H33_3 O4_3 1_555 1_555
H34_3 O4_3 1_555 1_555
H39_4 O48_2 1_555 1_555
H40_4 O50_2 1_555 1_555
H43_4 O15_4 1_555 1_555
H44_3 O15_4 1_555 1_555
Eu7_2 O1_4 1_555 1_555
Eu11 O5_4 1_555 1_555
S1_4 C24_4 1_555 1_555
N1_4 H1_4 1_555 1_555
C1_4 N1_4 1_555 1_555
C2_4 C1_4 1_555 1_555
H2_4 C2_4 1_555 1_555
C3_4 C2_4 1_555 1_555
H3_4 C3_4 1_555 1_555
C4_4 N1_4 1_555 1_555
C5_4 C1_4 1_555 1_555
C6_4 C5_4 1_555 1_555
N2_4 C6_4 1_555 1_555
C7_4 N2_4 1_555 1_555
C8_4 C7_4 1_555 1_555
H4_4 C8_4 1_555 1_555
C9_4 C6_4 1_555 1_555
H5_4 C9_4 1_555 1_555
C10_4 C7_4 1_555 1_555
C11_4 C10_4 1_555 1_555
N3_4 C11_4 1_555 1_555
H6_4 N3_4 1_555 1_555
C21_4 C5_4 1_555 1_555
C22_4 C21_4 1_555 1_555
H11_4 C22_4 1_555 1_555
C23_4 C22_4 1_555 1_555
H12_4 C23_4 1_555 1_555
C24_4 C23_4 1_555 1_555
C25_4 C24_4 1_555 1_555
H13_4 C25_4 1_555 1_555
C26_4 C21_4 1_555 1_555
H14_4 C26_4 1_555 1_555
O1_4 H27_4 1_555 1_555
H28_4 O1_4 1_555 1_555
O5_4 H35_4 1_555 1_555
H36_4 O5_4 1_555 1_555
O6_4 Eu11 1_555 1_555
H37_4 O6_4 1_555 1_555
H38_4 O6_4 1_555 1_555
H41_4 O52_2 1_555 1_555
O10_4 Eu7_2 1_555 1_555
H42_4 O10_4 1_555 1_555
O11_4 Eu7_2 1_555 1_555
O12_4 Eu7_2 1_555 1_555
O13_4 S1_4 1_555 1_555
S7_4 C80_4 1_555 1_555
S8_4 C86_4 1_555 1_555
C59_4 C56_4 1_555 1_555
C60_4 C59_4 1_555 1_555
C61_4 N8_4 1_555 1_555
N8_4 C60_4 1_555 1_555
C62_4 C61_4 1_555 1_555
H53_4 C62_4 1_555 1_555
C63_4 C60_4 1_555 1_555
H54_4 C63_4 1_555 1_555
C77_4 C59_4 1_555 1_555
C78_4 C77_4 1_555 1_555
H63_4 C78_4 1_555 1_555
C79_4 C78_4 1_555 1_555
H64_4 C79_4 1_555 1_555
C80_4 C79_4 1_555 1_555
C81_4 C80_4 1_555 1_555
H65_4 C81_4 1_555 1_555
C82_4 C77_4 1_555 1_555
H66_4 C82_4 1_555 1_555
C83_4 C64_4 1_555 1_555
C84_4 C83_4 1_555 1_555
H67_4 C84_4 1_555 1_555
C85_4 C84_4 1_555 1_555
H68_4 C85_4 1_555 1_555
C86_4 C85_4 1_555 1_555
C87_4 C86_4 1_555 1_555
H69_4 C87_4 1_555 1_555
C88_4 C83_4 1_555 1_555
H70_4 C88_4 1_555 1_555
O42_4 S7_4 1_555 1_555
O56_2 S7_4 1_555 1_555
O44_4 Eu7_2 1_555 1_555
O45_4 S8_4 1_555 1_555
O58 S8_4 1_555 1_555
O47_4 S8_4 1_555 1_555
Eu11 O52_2 1_555 1_555
Eu11 O10_4 1_555 1_555
Eu11 O54_3 1_555 1_555
S1_4 O11_4 1_555 1_555
S1_4 O12_4 1_555 1_555
C3_4 C4_4 1_555 1_555
C8_4 C9_4 1_555 1_555
C25_4 C26_4 1_555 1_555
S7_4 O44_4 1_555 1_555
C61_4 C64_4 1_555 1_555
C62_4 C63_4 1_555 1_555
C81_4 C82_4 1_555 1_555
C87_4 C88_4 1_555 1_555
S3_4 C36_4 1_555 1_555
S4_4 C42_4 1_555 1_555
C15_4 C12_4 1_555 1_555
C16_4 C15_4 1_555 1_555
C17_4 N4_4 1_555 1_555
N4_4 C16_4 1_555 1_555
C18_4 C17_4 1_555 1_555
H9_4 C18_4 1_555 1_555
C19_4 C16_4 1_555 1_555
H10_4 C19_4 1_555 1_555
C33_4 C15_4 1_555 1_555
C34_4 C33_4 1_555 1_555
H19_4 C34_4 1_555 1_555
C35_4 C34_4 1_555 1_555
H20_4 C35_4 1_555 1_555
C36_4 C35_4 1_555 1_555
C37_4 C36_4 1_555 1_555
H21_4 C37_4 1_555 1_555
C38_4 C33_4 1_555 1_555
H22_4 C38_4 1_555 1_555
C39_4 C20_4 1_555 1_555
C40_4 C39_4 1_555 1_555
H23_4 C40_4 1_555 1_555
C41_4 C40_4 1_555 1_555
H24_4 C41_4 1_555 1_555
C42_4 C41_4 1_555 1_555
C43_4 C42_4 1_555 1_555
H25_4 C43_4 1_555 1_555
C44_4 C39_4 1_555 1_555
H26_4 C44_4 1_555 1_555
O19_4 S3_4 1_555 1_555
O55_2 S3_4 1_555 1_555
O21_4 S3_4 1_555 1_555
O22_4 S4_4 1_555 1_555
O57 S4_4 1_555 1_555
O24_4 S4_4 1_555 1_555
Eu8_2 O21_4 1_555 1_555
Eu13 O29_4 1_555 1_555
S5_4 C68_4 1_555 1_555
N5_4 H45_4 1_555 1_555
C45_4 N5_4 1_555 1_555
C46_4 C45_4 1_555 1_555
H46_4 C46_4 1_555 1_555
C47_4 C46_4 1_555 1_555
H47_4 C47_4 1_555 1_555
C48_4 N5_4 1_555 1_555
C49_4 C45_4 1_555 1_555
C50_4 C49_4 1_555 1_555
N6_4 C50_4 1_555 1_555
C51_4 N6_4 1_555 1_555
C52_4 C51_4 1_555 1_555
H48_4 C52_4 1_555 1_555
C53_4 C50_4 1_555 1_555
H49_4 C53_4 1_555 1_555
C54_4 C51_4 1_555 1_555
C55_4 C54_4 1_555 1_555
N7_4 C55_4 1_555 1_555
H50_4 N7_4 1_555 1_555
C65_4 C49_4 1_555 1_555
C66_4 C65_4 1_555 1_555
H55_4 C66_4 1_555 1_555
C67_4 C66_4 1_555 1_555
H56_4 C67_4 1_555 1_555
C68_4 C67_4 1_555 1_555
C69_4 C68_4 1_555 1_555
H57_4 C69_4 1_555 1_555
C70_4 C65_4 1_555 1_555
H58_4 C70_4 1_555 1_555
O25_4 Eu8_2 1_555 1_555
H71_4 O25_4 1_555 1_555
H72_4 O25_4 1_555 1_555
O29_4 H79_4 1_555 1_555
H80_4 O29_4 1_555 1_555
O30_4 Eu13 1_555 1_555
H81_4 O30_4 1_555 1_555
H82_4 O30_4 1_555 1_555
H85_4 O53_2 1_555 1_555
O34_4 Eu8_2 1_555 1_555
H86_4 O34_4 1_555 1_555
O35_4 Eu8_2 1_555 1_555
O36_4 Eu8_2 1_555 1_555
O37_4 S5_4 1_555 1_555
C17_4 C20_4 1_555 1_555
C18_4 C19_4 1_555 1_555
C37_4 C38_4 1_555 1_555
C43_4 C44_4 1_555 1_555
Eu13 O34_4 1_555 1_555
S5_4 O35_4 1_555 1_555
S5_4 O36_4 1_555 1_555
C47_4 C48_4 1_555 1_555
C52_4 C53_4 1_555 1_555
C69_4 C70_4 1_555 1_555
Eu10_2 O26_3 1_555 1_555
O26_3 H73_3 1_555 1_555
H74_3 O26_3 1_555 1_555
O27_3 Eu10_2 1_555 1_555
H75_3 O27_3 1_555 1_555
H76_3 O27_3 1_555 1_555
O28_3 Eu10_2 1_555 1_555
H77_3 O28_3 1_555 1_555
H78_3 O28_3 1_555 1_555
H83_4 O49_2 1_555 1_555
H84_4 O51_2 1_555 1_555
H87_4 O38_4 1_555 1_555
H88_3 O38_4 1_555 1_555
O2_4 H29_4 1_555 1_555
H30_4 O2_4 1_555 1_555
H31_4 O3_4 1_555 1_555
H32_4 O3_4 1_555 1_555
H33_4 O4_4 1_555 1_555
H34_4 O4_4 1_555 1_555
O26_4 H73_4 1_555 1_555
H74_4 O26_4 1_555 1_555
H75_4 O27_4 1_555 1_555
H76_4 O27_4 1_555 1_555
H77_4 O28_4 1_555 1_555
H78_4 O28_4 1_555 1_555
H7_3 C13_3 1_555 1_555
H59_3 C72_3 1_555 1_555
C73_3 C72_3 1_555 1_555
H60_3 C73_3 1_555 1_555
S6_3 C74_3 1_555 1_555
H52_3 C58_3 1_555 1_555
C75_3 C74_3 1_555 1_555
H61_3 C75_3 1_555 1_555
C76_3 C71_3 1_555 1_555
H62_3 C76_3 1_555 1_555
O39_3 S6_3 1_555 1_555
O40_3 S6_3 1_555 1_555
O41_3 S6_3 1_555 1_555
C75_3 C76_3 1_555 1_555
S2_3 C30_3 1_555 1_555
H8_3 C14_3 1_555 1_555
C31_3 C30_3 1_555 1_555
H17_3 C31_3 1_555 1_555
C32_3 C27_3 1_555 1_555
H18_3 C32_3 1_555 1_555
O16_3 S2_3 1_555 1_555
O17_3 S2_3 1_555 1_555
O18_3 S2_3 1_555 1_555
C31_3 C32_3 1_555 1_555
H15_3 C28_3 1_555 1_555
C29_3 C28_3 1_555 1_555
H16_3 C29_3 1_555 1_555
H51_3 C57_3 1_555 1_555
S2_4 C30_4 1_555 1_555
H8_4 C14_4 1_555 1_555
C28_4 C27_4 1_555 1_555
H15_4 C28_4 1_555 1_555
C29_4 C28_4 1_555 1_555
H16_4 C29_4 1_555 1_555
C30_4 C29_4 1_555 1_555
C31_4 C30_4 1_555 1_555
H17_4 C31_4 1_555 1_555
C32_4 C27_4 1_555 1_555
H18_4 C32_4 1_555 1_555
O16_4 S2_4 1_555 1_555
O17_4 S2_4 1_555 1_555
O18_4 S2_4 1_555 1_555
C31_4 C32_4 1_555 1_555
H51_4 C57_4 1_555 1_555
H7_4 C13_4 1_555 1_555
S6_4 C74_4 1_555 1_555
H52_4 C58_4 1_555 1_555
C72_4 C71_4 1_555 1_555
H59_4 C72_4 1_555 1_555
C73_4 C72_4 1_555 1_555
H60_4 C73_4 1_555 1_555
C74_4 C73_4 1_555 1_555
C75_4 C74_4 1_555 1_555
H61_4 C75_4 1_555 1_555
C76_4 C71_4 1_555 1_555
H62_4 C76_4 1_555 1_555
O39_4 S6_4 1_555 1_555
O40_4 S6_4 1_555 1_555
O41_4 S6_4 1_555 1_555
C75_4 C76_4 1_555 1_555

#END
