
###############################################################################
#
# This file contains modified crystal structure data generated from the
# MOF subset of the Cambridge Structural Database (CSD) v543 
# hosted by the Cambridge Crystallographic Data Centre (CCDC).
#
# This work is licensed under the Creative Commons
# Attribution-NonCommercial-ShareAlike 4.0 International License.
# To view a copy of this license, visit
# http://creativecommons.org/licenses/by-nc-sa/4.0/
# or send a letter to
# Creative Commons, PO Box 1866, Mountain View, CA 94042, USA.
#
# CIF created using the CSD Python API on 29 September 2022
# The structure has been converted into the P1 space group
# The structure has a 3D framework
# The original CSD entry DIBJEF is in the monoclinic crystal system
# The framework has been calculated to contain at least 10.0% void space
# The void calculation uses a probe of radius 1.32A, grid spacing 0.4
# H atom positions have been added when not included in the experimental data
#
###############################################################################

data_DIBJEF
_chemical_formula_moiety         '(C352 H240 Eu24 N32 O127 S32)n'
_symmetry_cell_setting           triclinic
_symmetry_space_group_name_H-M   'P 1'
_symmetry_Int_Tables_number      1
_space_group_name_Hall           'P 1'
loop_
_symmetry_equiv_pos_site_id
_symmetry_equiv_pos_as_xyz
1 x,y,z
_cell_length_a                   45.950(2)
_cell_length_b                   9.1496(5)
_cell_length_c                   31.3267(15)
_cell_angle_alpha                90
_cell_angle_beta                 124.2110(10)
_cell_angle_gamma                90
_cell_volume                     10891.6
loop_
_atom_site_label
_atom_site_type_symbol
_atom_site_fract_x
_atom_site_fract_y
_atom_site_fract_z
Eu1 Eu 0.197367(6) 0.42375(3) 0.427156(8)
Eu2 Eu 0.201471(6) 0.05456(3) 0.481495(9)
Eu3 Eu 0.252440(6) 0.11664(3) 0.424381(9)
S2 S 0.18565(3) 0.29976(15) 0.30841(5)
O1 O 0.21210(8) 0.1917(4) 0.43571(13)
O2 O 0.24474(7) 0.5241(4) 0.50651(11)
O3 O 0.24722(8) 0.1100(4) 0.56928(12)
O4 O 0.30400(8) 0.1937(4) 0.50204(12)
O5 O 0.27570(18) 0.1815(9) 0.3729(3)
O6 O 0.17656(18) 0.0693(9) 0.5379(3)
O10 O 0.20139(10) 0.1606(4) 0.33382(13)
O11 O 0.20680(9) 0.3757(5) 0.29474(14)
O12 O 0.17705(8) 0.3903(4) 0.33815(12)
N2 N 0.02834(9) 0.3348(5) 0.01301(14)
C7 C 0.05078(11) 0.3295(6) 0.06621(18)
C8 C 0.07869(12) 0.4385(6) 0.08390(19)
H4 H 0.0973 0.4581 0.1186
C9 C 0.07280(12) 0.5060(6) 0.04122(19)
H5 H 0.0862 0.5840 0.0405
C10 C 0.04940(12) 0.2334(6) 0.09929(17)
C11 C 0.02122(11) 0.1377(6) 0.08540(18)
C14 C 0.01910(12) 0.0342(6) 0.11744(19)
H8 H 0.0373 0.0128 0.1523
C27 C 0.08121(12) 0.2305(6) 0.15371(18)
C28 C 0.11295(12) 0.1842(7) 0.1618(2)
H15 H 0.1129 0.1414 0.1342
C29 C 0.14457(13) 0.1998(7) 0.20978(19)
H16 H 0.1660 0.1693 0.2147
C30 C 0.14465(11) 0.2598(6) 0.25021(17)
C31 C 0.11296(12) 0.2968(7) 0.24356(18)
H17 H 0.1127 0.3327 0.2718
C32 C 0.08184(12) 0.2808(7) 0.1952(2)
H18 H 0.0603 0.3057 0.1909
Eu7 Eu 0.302633(6) 0.07625(3) 0.572844(8)
Eu11 Eu 0.298529(6) 0.44544(3) 0.518505(9)
Eu13 Eu 0.247560(6) 0.38336(3) 0.575619(9)
O20 O 0.25278(8) 0.3900(4) 0.43072(12)
O21 O 0.19600(8) 0.3063(4) 0.49796(12)
O22 O 0.13724(7) 0.3403(4) 0.38263(12)
O23 O 0.13941(8) 0.1148(4) 0.42495(14)
O25 O 0.16914(8) 0.6051(4) 0.45436(12)
O27 O 0.20453(8) 0.6613(4) 0.40037(12)
H27 H 0.284963 0.282953 0.381245
H28 H 0.294957 0.113105 0.381028
H29 H 0.151921 0.105313 0.516623
S1 S 0.11654(3) 0.78011(15) 0.88408(5)
O7 O 0.13724(7) 0.6597(4) 0.88263(12)
O8 O 0.13941(8) 0.8852(4) 0.92495(14)
O9 O 0.09289(9) 0.8488(5) 0.83507(14)
C5 C 0.02918(12) 0.4682(6) 0.94587(18)
C6 C 0.04238(11) 0.4375(6) 0.99687(18)
C21 C 0.05095(12) 0.5554(7) 0.93340(19)
C22 C 0.03626(12) 0.6740(7) 0.8976(2)
H11 H 0.0129 0.7056 0.8843
C23 C 0.05584(13) 0.7441(7) 0.8820(2)
H12 H 0.0459 0.8215 0.8576
C24 C 0.09076(11) 0.6971(6) 0.90335(19)
C25 C 0.10467(15) 0.5888(7) 0.9385(2)
H13 H 0.1284 0.5598 0.9536
C26 C 0.08445(14) 0.5188(7) 0.9528(2)
H14 H 0.0948 0.4419 0.9774
Eu6 Eu 0.197367(6) 0.57625(3) 0.927156(8)
Eu10 Eu 0.201471(6) 0.94544(3) 0.981495(9)
O19 O 0.25526(7) 0.9759(4) 0.49349(11)
O24 O 0.30212(8) 0.9228(4) 0.45292(12)
O26 O 0.20398(8) 0.8032(4) 0.51205(12)
O28 O 0.22551(8) 0.8853(4) 0.38755(12)
O29 O 0.18027(8) 0.8919(4) 0.40547(12)
H30 H 0.177094 0.970704 0.551573
N3 N 0.98985(9) 0.1320(5) 0.03823(14)
H6 H 0.9845 0.1839 0.0111
C12 C 0.96773(12) 0.0324(6) 0.03954(17)
Eu8 Eu 0.798529(6) 0.05456(3) 0.018505(9)
S4 S 0.80452(3) 0.18878(14) 0.61799(4)
O16 O 0.79547(8) 0.3387(4) 0.59963(12)
O17 O 0.77449(8) 0.1147(4) 0.61245(12)
O18 O 0.81973(8) 0.1081(4) 0.59453(12)
N1 N 0.97340(9) 0.3332(5) 0.90627(14)
H1 H 0.9756 0.3093 0.9351
C1 C 0.99807(11) 0.4098(6) 0.90350(18)
C2 C 0.98502(13) 0.4183(6) 0.85055(19)
H2 H 0.9969 0.4612 0.8367
C3 C 0.95238(13) 0.3545(7) 0.82242(19)
H3 H 0.9374 0.3483 0.7859
C4 C 0.94497(12) 0.2992(6) 0.85777(17)
C15 C 0.93223(11) 0.0110(6) 0.99937(18)
C16 C 0.91588(12) 0.0826(6) 0.95122(18)
N4 N 0.93309(9) 0.1477(5) 0.93184(14)
C17 C 0.90751(11) 0.1810(6) 0.88176(18)
C18 C 0.87291(11) 0.1469(7) 0.86967(19)
H9 H 0.8510 0.1627 0.8377
C19 C 0.87801(12) 0.0881(6) 0.91280(19)
H10 H 0.8602 0.0563 0.9173
C20 C 0.91421(12) 0.2352(6) 0.84589(18)
C39 C 0.88578(12) 0.2210(6) 0.78955(17)
C40 C 0.85733(12) 0.3110(6) 0.76595(19)
H23 H 0.8546 0.3821 0.7856
C41 C 0.83183(12) 0.2992(6) 0.71240(19)
H24 H 0.8115 0.3599 0.6959
C42 C 0.83678(12) 0.1991(6) 0.68468(17)
C43 C 0.86529(12) 0.1061(6) 0.70752(19)
H25 H 0.8682 0.0363 0.6877
C44 C 0.88968(12) 0.1178(7) 0.76051(19)
H26 H 0.9094 0.0540 0.7772
Eu5 Eu 0.802633(6) 0.57625(3) 0.572844(8)
O14 O 0.83086(8) 0.6051(4) 0.04564(12)
C13 C 0.98669(12) 0.9708(6) 0.08977(19)
H7 H 0.9783 0.8982 0.1020
C33 C 0.90906(11) 0.9111(6) 0.00504(18)
C36 C 0.85603(11) 0.7523(6) 0.00224(17)
C37 C 0.87936(11) 0.8363(6) 0.04546(18)
H21 H 0.8772 0.8405 0.0738
C38 C 0.90575(12) 0.9136(6) 0.04678(18)
H22 H 0.9219 0.9693 0.0766
Eu4 Eu 0.802633(6) 0.42375(3) 0.072844(8)
S3 S 0.81869(3) 0.67748(14) 0.99695(4)
O13 O 0.80212(8) 0.5772(4) 0.95292(12)
O15 O 0.79602(8) 0.8032(4) 0.98795(12)
C34 C 0.88745(12) 0.8151(6) 0.96478(19)
H19 H 0.8913 0.8007 0.9382
C35 C 0.86041(12) 0.7397(6) 0.96275(18)
H20 H 0.8450 0.6795 0.9339
Eu9 Eu 0.798529(6) 0.94544(3) 0.518505(9)
Eu12 Eu 0.747560(6) 0.88336(3) 0.575619(9)
Eu14 Eu 0.752440(6) 0.38336(3) 0.924381(9)
S4_2 S 0.19548(3) 0.18878(14) 0.88201(4)
O16_2 O 0.20453(8) 0.3387(4) 0.90037(12)
O17_2 O 0.22551(8) 0.1147(4) 0.88755(12)
O18_2 O 0.18027(8) 0.1081(4) 0.90547(12)
N1_2 N 0.02660(9) 0.3332(5) 0.59373(14)
H1_2 H 0.0244 0.3093 0.5649
C1_2 C 0.00193(11) 0.4098(6) 0.59650(18)
C2_2 C 0.01498(13) 0.4183(6) 0.64945(19)
H2_2 H 0.0031 0.4612 0.6633
C3_2 C 0.04762(13) 0.3545(7) 0.67758(19)
H3_2 H 0.0626 0.3483 0.7141
C4_2 C 0.05503(12) 0.2992(6) 0.64223(17)
N3_2 N 0.01015(9) 0.1320(5) 0.46177(14)
H6_2 H 0.0155 0.1839 0.4889
C12_2 C 0.03227(12) 0.0324(6) 0.46046(17)
C15_2 C 0.06777(11) 0.0110(6) 0.50063(18)
C16_2 C 0.08412(12) 0.0826(6) 0.54878(18)
N4_2 N 0.06691(9) 0.1477(5) 0.56816(14)
C17_2 C 0.09249(11) 0.1810(6) 0.61824(18)
C18_2 C 0.12709(11) 0.1469(7) 0.63033(19)
H9_2 H 0.1490 0.1627 0.6623
C19_2 C 0.12199(12) 0.0881(6) 0.58720(19)
H10_2 H 0.1398 0.0563 0.5827
C20_2 C 0.08579(12) 0.2352(6) 0.65411(18)
C39_2 C 0.11422(12) 0.2210(6) 0.71045(17)
C40_2 C 0.14267(12) 0.3110(6) 0.73405(19)
H23_2 H 0.1454 0.3821 0.7144
C41_2 C 0.16817(12) 0.2992(6) 0.78760(19)
H24_2 H 0.1885 0.3599 0.8041
C42_2 C 0.16322(12) 0.1991(6) 0.81532(17)
C43_2 C 0.13471(12) 0.1061(6) 0.79248(19)
H25_2 H 0.1318 0.0363 0.8123
C44_2 C 0.11032(12) 0.1178(7) 0.73949(19)
H26_2 H 0.0906 0.0540 0.7228
S3_2 S 0.18131(3) 0.67748(14) 0.50305(4)
O13_2 O 0.19788(8) 0.5772(4) 0.54708(12)
C13_2 C 0.01331(12) 0.9708(6) 0.41023(19)
H7_2 H 0.0217 0.8982 0.3980
C33_2 C 0.09094(11) 0.9111(6) 0.49496(18)
C34_2 C 0.11255(12) 0.8151(6) 0.53522(19)
H19_2 H 0.1087 0.8007 0.5618
C35_2 C 0.13959(12) 0.7397(6) 0.53725(18)
H20_2 H 0.1550 0.6795 0.5661
C36_2 C 0.14397(11) 0.7523(6) 0.49776(17)
C37_2 C 0.12064(11) 0.8363(6) 0.45454(18)
H21_2 H 0.1228 0.8405 0.4262
C38_2 C 0.09425(12) 0.9136(6) 0.45322(18)
H22_2 H 0.0781 0.9693 0.4234
Eu12_2 Eu 0.252440(6) 0.88336(3) 0.924381(9)
Eu3_2 Eu 0.747560(6) 0.11664(3) 0.075619(9)
S1_2 S 0.88346(3) 0.78011(15) 0.61592(5)
S2_2 S 0.81435(3) 0.29976(15) 0.19159(5)
O1_2 O 0.78790(8) 0.1917(4) 0.06429(13)
O5_2 O 0.72430(18) 0.1815(9) 0.1271(3)
O7_2 O 0.86276(7) 0.6597(4) 0.61737(12)
O8_2 O 0.86059(8) 0.8852(4) 0.57505(14)
O9_2 O 0.90711(9) 0.8488(5) 0.66493(14)
O10_2 O 0.79861(10) 0.1606(4) 0.16618(13)
O11_2 O 0.79320(9) 0.3757(5) 0.20526(14)
O12_2 O 0.82295(8) 0.3903(4) 0.16185(12)
C5_2 C 0.97082(12) 0.4682(6) 0.55413(18)
C6_2 C 0.95762(11) 0.4375(6) 0.50313(18)
N2_2 N 0.97166(9) 0.3348(5) 0.48699(14)
C7_2 C 0.94922(11) 0.3295(6) 0.43379(18)
C8_2 C 0.92131(12) 0.4385(6) 0.41610(19)
H4_2 H 0.9027 0.4581 0.3814
C9_2 C 0.92720(12) 0.5060(6) 0.45878(19)
H5_2 H 0.9138 0.5840 0.4595
C10_2 C 0.95060(12) 0.2334(6) 0.40071(17)
C11_2 C 0.97878(11) 0.1377(6) 0.41460(18)
C14_2 C 0.98090(12) 0.0342(6) 0.38256(19)
H8_2 H 0.9627 0.0128 0.3477
C21_2 C 0.94905(12) 0.5554(7) 0.56660(19)
C22_2 C 0.96374(12) 0.6740(7) 0.6024(2)
H11_2 H 0.9871 0.7056 0.6157
C23_2 C 0.94416(13) 0.7441(7) 0.6180(2)
H12_2 H 0.9541 0.8215 0.6424
C24_2 C 0.90924(11) 0.6971(6) 0.59665(19)
C25_2 C 0.89533(15) 0.5888(7) 0.5615(2)
H13_2 H 0.8716 0.5598 0.5464
C26_2 C 0.91555(14) 0.5188(7) 0.5472(2)
H14_2 H 0.9052 0.4419 0.5226
C27_2 C 0.91879(12) 0.2305(6) 0.34629(18)
C28_2 C 0.88705(12) 0.1842(7) 0.3382(2)
H15_2 H 0.8871 0.1414 0.3658
C29_2 C 0.85543(13) 0.1998(7) 0.29022(19)
H16_2 H 0.8340 0.1693 0.2853
C30_2 C 0.85535(11) 0.2598(6) 0.24979(17)
C31_2 C 0.88704(12) 0.2968(7) 0.25644(18)
H17_2 H 0.8873 0.3327 0.2282
C32_2 C 0.91816(12) 0.2808(7) 0.3048(2)
H18_2 H 0.9397 0.3057 0.3091
O20_2 O 0.74722(8) 0.3900(4) 0.06928(12)
O21_2 O 0.80400(8) 0.3063(4) 0.00204(12)
O22_2 O 0.86276(7) 0.3403(4) 0.11737(12)
O23_2 O 0.86059(8) 0.1148(4) 0.07505(14)
O27_2 O 0.79547(8) 0.6613(4) 0.09963(12)
H27_2 H 0.715037 0.282953 0.118755
H28_2 H 0.705043 0.113105 0.118972
O2_2 O 0.75526(7) 0.5241(4) 0.99349(11)
O3_2 O 0.75278(8) 0.1100(4) 0.93072(12)
O4_2 O 0.69600(8) 0.1937(4) 0.99796(12)
O6_2 O 0.82344(18) 0.0693(9) 0.9621(3)
Eu7_2 Eu 0.697367(6) 0.07625(3) 0.927156(8)
Eu11_2 Eu 0.701471(6) 0.44544(3) 0.981495(9)
H29_2 H 0.848079 0.105313 0.983377
O19_2 O 0.74474(7) 0.9759(4) 0.00651(11)
O24_2 O 0.69788(8) 0.9228(4) 0.04708(12)
O28_2 O 0.77449(8) 0.8853(4) 0.11245(12)
O29_2 O 0.81973(8) 0.8919(4) 0.09453(12)
H30_2 H 0.822906 0.970704 0.948427
O2_3 O 0.74474(7) 0.0241(4) 0.50651(11)
C9_3 C 0.57280(12) 0.0060(6) 0.04122(19)
H5_3 H 0.5862 0.0840 0.0405
O25_2 O 0.66914(8) 0.1051(4) 0.45436(12)
O27_3 O 0.70453(8) 0.1613(4) 0.40037(12)
S1_3 S 0.61654(3) 0.28011(15) 0.88408(5)
O7_3 O 0.63724(7) 0.1597(4) 0.88263(12)
O8_3 O 0.63941(8) 0.3852(4) 0.92495(14)
O9_3 O 0.59289(9) 0.3488(5) 0.83507(14)
C21_3 C 0.55095(12) 0.0554(7) 0.93340(19)
C22_3 C 0.53626(12) 0.1740(7) 0.8976(2)
H11_3 H 0.5129 0.2056 0.8843
C23_3 C 0.55584(13) 0.2441(7) 0.8820(2)
H12_3 H 0.5459 0.3215 0.8576
C24_3 C 0.59076(11) 0.1971(6) 0.90335(19)
C25_3 C 0.60467(15) 0.0888(7) 0.9385(2)
H13_3 H 0.6284 0.0598 0.9536
C26_3 C 0.58445(14) 0.0188(7) 0.9528(2)
Eu1_2 Eu 0.697367(6) 0.92375(3) 0.427156(8)
Eu2_2 Eu 0.701471(6) 0.55456(3) 0.481495(9)
Eu3_3 Eu 0.752440(6) 0.61664(3) 0.424381(9)
S2_3 S 0.68565(3) 0.79976(15) 0.30841(5)
O1_3 O 0.71210(8) 0.6917(4) 0.43571(13)
O3_3 O 0.74722(8) 0.6100(4) 0.56928(12)
O4_3 O 0.80400(8) 0.6937(4) 0.50204(12)
O5_3 O 0.77570(18) 0.6815(9) 0.3729(3)
O6_3 O 0.67656(18) 0.5693(9) 0.5379(3)
O10_3 O 0.70139(10) 0.6606(4) 0.33382(13)
O11_3 O 0.70680(9) 0.8757(5) 0.29474(14)
O12_3 O 0.67705(8) 0.8903(4) 0.33815(12)
O14_2 O 0.33086(8) 0.1051(4) 0.04564(12)
N2_3 N 0.52834(9) 0.8348(5) 0.01301(14)
C7_3 C 0.55078(11) 0.8295(6) 0.06621(18)
C8_3 C 0.57869(12) 0.9385(6) 0.08390(19)
H4_3 H 0.5973 0.9581 0.1186
C10_3 C 0.54940(12) 0.7334(6) 0.09929(17)
C11_3 C 0.52122(11) 0.6377(6) 0.08540(18)
N3_3 N 0.48985(9) 0.6320(5) 0.03823(14)
H6_3 H 0.4845 0.6839 0.0111
C12_3 C 0.46773(12) 0.5324(6) 0.03954(17)
C13_3 C 0.48669(12) 0.4708(6) 0.08977(19)
H7_3 H 0.4783 0.3982 0.1020
C14_3 C 0.51910(12) 0.5342(6) 0.11744(19)
H8_3 H 0.5373 0.5128 0.1523
C27_3 C 0.58121(12) 0.7305(6) 0.15371(18)
C28_3 C 0.61295(12) 0.6842(7) 0.1618(2)
H15_3 H 0.6129 0.6414 0.1342
C29_3 C 0.64457(13) 0.6998(7) 0.20978(19)
H16_3 H 0.6660 0.6693 0.2147
C30_3 C 0.64465(11) 0.7598(6) 0.25021(17)
C31_3 C 0.61296(12) 0.7968(7) 0.24356(18)
H17_3 H 0.6127 0.8327 0.2718
C32_3 C 0.58184(12) 0.7808(7) 0.1952(2)
H18_3 H 0.5603 0.8057 0.1909
C33_3 C 0.40906(11) 0.4111(6) 0.00504(18)
C36_3 C 0.35603(11) 0.2523(6) 0.00224(17)
C37_3 C 0.37936(11) 0.3363(6) 0.04546(18)
H21_3 H 0.3772 0.3405 0.0738
C38_3 C 0.40575(12) 0.4136(6) 0.04678(18)
H22_3 H 0.4219 0.4693 0.0766
Eu8_2 Eu 0.298529(6) 0.55456(3) 0.018505(9)
O19_3 O 0.75526(7) 0.4759(4) 0.49349(11)
O20_3 O 0.75278(8) 0.8900(4) 0.43072(12)
O21_3 O 0.69600(8) 0.8063(4) 0.49796(12)
O22_3 O 0.63724(7) 0.8403(4) 0.38263(12)
O23_3 O 0.63941(8) 0.6148(4) 0.42495(14)
O24_3 O 0.80212(8) 0.4228(4) 0.45292(12)
O26_2 O 0.70398(8) 0.3032(4) 0.51205(12)
O28_3 O 0.72551(8) 0.3853(4) 0.38755(12)
O29_3 O 0.68027(8) 0.3919(4) 0.40547(12)
H27_3 H 0.784963 0.782953 0.381245
H28_3 H 0.794957 0.613105 0.381028
H29_3 H 0.651921 0.605313 0.516623
H30_3 H 0.677094 0.470704 0.551573
S3_3 S 0.31869(3) 0.17748(14) 0.99695(4)
S4_3 S 0.30452(3) 0.68878(14) 0.61799(4)
O13_3 O 0.30212(8) 0.0772(4) 0.95292(12)
O15_2 O 0.29602(8) 0.3032(4) 0.98795(12)
O16_3 O 0.29547(8) 0.8387(4) 0.59963(12)
O17_3 O 0.27449(8) 0.6147(4) 0.61245(12)
O18_3 O 0.31973(8) 0.6081(4) 0.59453(12)
N1_3 N 0.47340(9) 0.8332(5) 0.90627(14)
H1_3 H 0.4756 0.8093 0.9351
C1_3 C 0.49807(11) 0.9098(6) 0.90350(18)
C2_3 C 0.48502(13) 0.9183(6) 0.85055(19)
H2_3 H 0.4969 0.9612 0.8367
C3_3 C 0.45238(13) 0.8545(7) 0.82242(19)
H3_3 H 0.4374 0.8483 0.7859
C4_3 C 0.44497(12) 0.7992(6) 0.85777(17)
C5_3 C 0.52918(12) 0.9682(6) 0.94587(18)
C6_3 C 0.54238(11) 0.9375(6) 0.99687(18)
C15_3 C 0.43223(11) 0.5110(6) 0.99937(18)
C16_3 C 0.41588(12) 0.5826(6) 0.95122(18)
N4_3 N 0.43309(9) 0.6477(5) 0.93184(14)
C17_3 C 0.40751(11) 0.6810(6) 0.88176(18)
C18_3 C 0.37291(11) 0.6469(7) 0.86967(19)
H9_3 H 0.3510 0.6627 0.8377
C19_3 C 0.37801(12) 0.5881(6) 0.91280(19)
H10_3 H 0.3602 0.5563 0.9173
C20_3 C 0.41421(12) 0.7352(6) 0.84589(18)
H14_3 H 0.5948 0.9419 0.9774
C34_3 C 0.38745(12) 0.3151(6) 0.96478(19)
H19_3 H 0.3913 0.3007 0.9382
C35_3 C 0.36041(12) 0.2397(6) 0.96275(18)
H20_3 H 0.3450 0.1795 0.9339
C39_3 C 0.38578(12) 0.7210(6) 0.78955(17)
C40_3 C 0.35733(12) 0.8110(6) 0.76595(19)
H23_3 H 0.3546 0.8821 0.7856
C41_3 C 0.33183(12) 0.7992(6) 0.71240(19)
H24_3 H 0.3115 0.8599 0.6959
C42_3 C 0.33678(12) 0.6991(6) 0.68468(17)
C43_3 C 0.36529(12) 0.6061(6) 0.70752(19)
H25_3 H 0.3682 0.5363 0.6877
C44_3 C 0.38968(12) 0.6178(7) 0.76051(19)
H26_3 H 0.4094 0.5540 0.7772
Eu4_2 Eu 0.302633(6) 0.92375(3) 0.072844(8)
S1_4 S 0.38346(3) 0.28011(15) 0.61592(5)
O7_4 O 0.36276(7) 0.1597(4) 0.61737(12)
O8_4 O 0.36059(8) 0.3852(4) 0.57505(14)
O9_4 O 0.40711(9) 0.3488(5) 0.66493(14)
C9_4 C 0.42720(12) 0.0060(6) 0.45878(19)
H5_4 H 0.4138 0.0840 0.4595
C21_4 C 0.44905(12) 0.0554(7) 0.56660(19)
C22_4 C 0.46374(12) 0.1740(7) 0.6024(2)
H11_4 H 0.4871 0.2056 0.6157
C23_4 C 0.44416(13) 0.2441(7) 0.6180(2)
H12_4 H 0.4541 0.3215 0.6424
C24_4 C 0.40924(11) 0.1971(6) 0.59665(19)
C25_4 C 0.39533(15) 0.0888(7) 0.5615(2)
H13_4 H 0.3716 0.0598 0.5464
C26_4 C 0.41555(14) 0.0188(7) 0.5472(2)
O27_4 O 0.29547(8) 0.1613(4) 0.09963(12)
O2_4 O 0.25526(7) 0.0241(4) 0.99349(11)
Eu3_4 Eu 0.247560(6) 0.61664(3) 0.075619(9)
S2_4 S 0.31435(3) 0.79976(15) 0.19159(5)
S3_4 S 0.68131(3) 0.17748(14) 0.50305(4)
S4_4 S 0.69548(3) 0.68878(14) 0.88201(4)
O1_4 O 0.28790(8) 0.6917(4) 0.06429(13)
O5_4 O 0.22430(18) 0.6815(9) 0.1271(3)
O10_4 O 0.29861(10) 0.6606(4) 0.16618(13)
O11_4 O 0.29320(9) 0.8757(5) 0.20526(14)
O12_4 O 0.32295(8) 0.8903(4) 0.16185(12)
O13_4 O 0.69788(8) 0.0772(4) 0.54708(12)
O16_4 O 0.70453(8) 0.8387(4) 0.90037(12)
O17_4 O 0.72551(8) 0.6147(4) 0.88755(12)
O18_4 O 0.68027(8) 0.6081(4) 0.90547(12)
N1_4 N 0.52660(9) 0.8332(5) 0.59373(14)
H1_4 H 0.5244 0.8093 0.5649
C1_4 C 0.50193(11) 0.9098(6) 0.59650(18)
C2_4 C 0.51498(13) 0.9183(6) 0.64945(19)
H2_4 H 0.5031 0.9612 0.6633
C3_4 C 0.54762(13) 0.8545(7) 0.67758(19)
H3_4 H 0.5626 0.8483 0.7141
C4_4 C 0.55503(12) 0.7992(6) 0.64223(17)
C5_4 C 0.47082(12) 0.9682(6) 0.55413(18)
C6_4 C 0.45762(11) 0.9375(6) 0.50313(18)
N2_4 N 0.47166(9) 0.8348(5) 0.48699(14)
C7_4 C 0.44922(11) 0.8295(6) 0.43379(18)
C8_4 C 0.42131(12) 0.9385(6) 0.41610(19)
H4_4 H 0.4027 0.9581 0.3814
C10_4 C 0.45060(12) 0.7334(6) 0.40071(17)
C11_4 C 0.47878(11) 0.6377(6) 0.41460(18)
N3_4 N 0.51015(9) 0.6320(5) 0.46177(14)
H6_4 H 0.5155 0.6839 0.4889
C12_4 C 0.53227(12) 0.5324(6) 0.46046(17)
C13_4 C 0.51331(12) 0.4708(6) 0.41023(19)
H7_4 H 0.5217 0.3982 0.3980
C14_4 C 0.48090(12) 0.5342(6) 0.38256(19)
H8_4 H 0.4627 0.5128 0.3477
C15_4 C 0.56777(11) 0.5110(6) 0.50063(18)
C16_4 C 0.58412(12) 0.5826(6) 0.54878(18)
N4_4 N 0.56691(9) 0.6477(5) 0.56816(14)
C17_4 C 0.59249(11) 0.6810(6) 0.61824(18)
C18_4 C 0.62709(11) 0.6469(7) 0.63033(19)
H9_4 H 0.6490 0.6627 0.6623
C19_4 C 0.62199(12) 0.5881(6) 0.58720(19)
H10_4 H 0.6398 0.5563 0.5827
C20_4 C 0.58579(12) 0.7352(6) 0.65411(18)
H14_4 H 0.4052 0.9419 0.5226
C27_4 C 0.41879(12) 0.7305(6) 0.34629(18)
C28_4 C 0.38705(12) 0.6842(7) 0.3382(2)
H15_4 H 0.3871 0.6414 0.3658
C29_4 C 0.35543(13) 0.6998(7) 0.29022(19)
H16_4 H 0.3340 0.6693 0.2853
C30_4 C 0.35535(11) 0.7598(6) 0.24979(17)
C31_4 C 0.38704(12) 0.7968(7) 0.25644(18)
H17_4 H 0.3873 0.8327 0.2282
C32_4 C 0.41816(12) 0.7808(7) 0.3048(2)
H18_4 H 0.4397 0.8057 0.3091
C33_4 C 0.59094(11) 0.4111(6) 0.49496(18)
C34_4 C 0.61255(12) 0.3151(6) 0.53522(19)
H19_4 H 0.6087 0.3007 0.5618
C35_4 C 0.63959(12) 0.2397(6) 0.53725(18)
H20_4 H 0.6550 0.1795 0.5661
C36_4 C 0.64397(11) 0.2523(6) 0.49776(17)
C37_4 C 0.62064(11) 0.3363(6) 0.45454(18)
H21_4 H 0.6228 0.3405 0.4262
C38_4 C 0.59425(12) 0.4136(6) 0.45322(18)
H22_4 H 0.5781 0.4693 0.4234
C39_4 C 0.61422(12) 0.7210(6) 0.71045(17)
C40_4 C 0.64267(12) 0.8110(6) 0.73405(19)
H23_4 H 0.6454 0.8821 0.7144
C41_4 C 0.66817(12) 0.7992(6) 0.78760(19)
H24_4 H 0.6885 0.8599 0.8041
C42_4 C 0.66322(12) 0.6991(6) 0.81532(17)
C43_4 C 0.63471(12) 0.6061(6) 0.79248(19)
H25_4 H 0.6318 0.5363 0.8123
C44_4 C 0.61032(12) 0.6178(7) 0.73949(19)
H26_4 H 0.5906 0.5540 0.7228
O19_4 O 0.24474(7) 0.4759(4) 0.00651(11)
O20_4 O 0.24722(8) 0.8900(4) 0.06928(12)
O21_4 O 0.30400(8) 0.8063(4) 0.00204(12)
O22_4 O 0.36276(7) 0.8403(4) 0.11737(12)
O23_4 O 0.36059(8) 0.6148(4) 0.07505(14)
O24_4 O 0.19788(8) 0.4228(4) 0.04708(12)
O28_4 O 0.27449(8) 0.3853(4) 0.11245(12)
O29_4 O 0.31973(8) 0.3919(4) 0.09453(12)
H27_4 H 0.215037 0.782953 0.118755
H28_4 H 0.205043 0.613105 0.118972
O3_4 O 0.25278(8) 0.6100(4) 0.93072(12)
O4_4 O 0.19600(8) 0.6937(4) 0.99796(12)
O6_4 O 0.32344(18) 0.5693(9) 0.9621(3)
H29_4 H 0.348079 0.605313 0.983377
H30_4 H 0.322906 0.470704 0.948427
S3_5 S 0.18131(3) 0.32252(14) 0.00305(4)
O15_3 O 0.20398(8) 0.1968(4) 0.01205(12)
C34_5 C 0.11255(12) 0.1849(6) 0.03522(19)
H19_5 H 0.1087 0.1993 0.0618
C35_5 C 0.13959(12) 0.2603(6) 0.03725(18)
H20_5 H 0.1550 0.3205 0.0661
O14_3 O 0.16914(8) 0.3949(4) 0.95436(12)
C13_5 C 0.01331(12) 0.0292(6) 0.91023(19)
H7_5 H 0.0217 0.1018 0.8980
C33_5 C 0.09094(11) 0.0889(6) 0.99496(18)
C36_5 C 0.14397(11) 0.2477(6) 0.99776(17)
C37_5 C 0.12064(11) 0.1637(6) 0.95454(18)
H21_5 H 0.1228 0.1595 0.9262
C38_5 C 0.09425(12) 0.0864(6) 0.95322(18)
H22_5 H 0.0781 0.0307 0.9234
S4_5 S 0.19548(3) 0.81122(14) 0.38201(4)
N1_5 N 0.02660(9) 0.6668(5) 0.09373(14)
H1_5 H 0.0244 0.6907 0.0649
C1_5 C 0.00193(11) 0.5902(6) 0.09650(18)
C2_5 C 0.01498(13) 0.5817(6) 0.14945(19)
H2_5 H 0.0031 0.5388 0.1633
C3_5 C 0.04762(13) 0.6455(7) 0.17758(19)
H3_5 H 0.0626 0.6517 0.2141
C4_5 C 0.05503(12) 0.7008(6) 0.14223(17)
C15_5 C 0.06777(11) 0.9890(6) 0.00063(18)
C16_5 C 0.08412(12) 0.9174(6) 0.04878(18)
N4_5 N 0.06691(9) 0.8523(5) 0.06816(14)
C17_5 C 0.09249(11) 0.8190(6) 0.11824(18)
C18_5 C 0.12709(11) 0.8531(7) 0.13033(19)
H9_5 H 0.1490 0.8373 0.1623
C19_5 C 0.12199(12) 0.9119(6) 0.08720(19)
H10_5 H 0.1398 0.9437 0.0827
C20_5 C 0.08579(12) 0.7648(6) 0.15411(18)
C39_5 C 0.11422(12) 0.7790(6) 0.21045(17)
C40_5 C 0.14267(12) 0.6890(6) 0.23405(19)
H23_5 H 0.1454 0.6179 0.2144
C41_5 C 0.16817(12) 0.7008(6) 0.28760(19)
H24_5 H 0.1885 0.6401 0.3041
C42_5 C 0.16322(12) 0.8009(6) 0.31532(17)
C43_5 C 0.13471(12) 0.8939(6) 0.29248(19)
H25_5 H 0.1318 0.9637 0.3123
C44_5 C 0.11032(12) 0.8822(7) 0.23949(19)
H26_5 H 0.0906 0.9460 0.2228
N3_5 N 0.01015(9) 0.8680(5) 0.96177(14)
H6_5 H 0.0155 0.8161 0.9889
C12_5 C 0.03227(12) 0.9676(6) 0.96046(17)
O26_3 O 0.79602(8) 0.1968(4) 0.48795(12)
H30_5 H 0.822906 0.0292957 0.448427
S1_5 S 0.88346(3) 0.21989(15) 0.11592(5)
O9_5 O 0.90711(9) 0.1512(5) 0.16493(14)
C5_5 C 0.97082(12) 0.5318(6) 0.05413(18)
C6_5 C 0.95762(11) 0.5625(6) 0.00313(18)
C21_5 C 0.94905(12) 0.4446(7) 0.06660(19)
C22_5 C 0.96374(12) 0.3260(7) 0.1024(2)
H11_5 H 0.9871 0.2944 0.1157
C23_5 C 0.94416(13) 0.2559(7) 0.1180(2)
H12_5 H 0.9541 0.1785 0.1424
C24_5 C 0.90924(11) 0.3029(6) 0.09665(19)
C25_5 C 0.89533(15) 0.4112(7) 0.0615(2)
H13_5 H 0.8716 0.4402 0.0464
C26_5 C 0.91555(14) 0.4812(7) 0.0472(2)
H14_5 H 0.9052 0.5581 0.0226
S2_5 S 0.81435(3) 0.70024(15) 0.69159(5)
O1_5 O 0.78790(8) 0.8083(4) 0.56429(13)
O5_5 O 0.72430(18) 0.8185(9) 0.6271(3)
O6_5 O 0.82344(18) 0.9307(9) 0.4621(3)
O10_5 O 0.79861(10) 0.8394(4) 0.66618(13)
O11_5 O 0.79320(9) 0.6243(5) 0.70526(14)
O12_5 O 0.82295(8) 0.6097(4) 0.66185(12)
N2_5 N 0.97166(9) 0.6652(5) 0.98699(14)
C7_5 C 0.94922(11) 0.6705(6) 0.93379(18)
C8_5 C 0.92131(12) 0.5615(6) 0.91610(19)
H4_5 H 0.9027 0.5419 0.8814
C9_5 C 0.92720(12) 0.4940(6) 0.95878(19)
H5_5 H 0.9138 0.4160 0.9595
C10_5 C 0.95060(12) 0.7666(6) 0.90071(17)
C11_5 C 0.97878(11) 0.8623(6) 0.91460(18)
C14_5 C 0.98090(12) 0.9658(6) 0.88256(19)
H8_5 H 0.9627 0.9872 0.8477
C27_5 C 0.91879(12) 0.7695(6) 0.84629(18)
C28_5 C 0.88705(12) 0.8158(7) 0.8382(2)
H15_5 H 0.8871 0.8586 0.8658
C29_5 C 0.85543(13) 0.8002(7) 0.79022(19)
H16_5 H 0.8340 0.8307 0.7853
C30_5 C 0.85535(11) 0.7402(6) 0.74979(17)
C31_5 C 0.88704(12) 0.7032(7) 0.75644(18)
H17_5 H 0.8873 0.6673 0.7282
C32_5 C 0.91816(12) 0.7192(7) 0.8048(2)
H18_5 H 0.9397 0.6943 0.8091
O25_3 O 0.83086(8) 0.3949(4) 0.54564(12)
H27_5 H 0.715037 0.717047 0.618755
H28_5 H 0.705043 0.886895 0.618972
H29_5 H 0.848079 0.894687 0.483377
H30_6 H 0.177094 0.0292957 0.0515727
O6_6 O 0.17656(18) 0.9307(9) 0.0379(3)
H29_6 H 0.151921 0.894687 0.0166227
S1_6 S 0.11654(3) 0.21989(15) 0.38408(5)
S2_6 S 0.18565(3) 0.70024(15) 0.80841(5)
O1_6 O 0.21210(8) 0.8083(4) 0.93571(13)
O5_6 O 0.27570(18) 0.8185(9) 0.8729(3)
O9_6 O 0.09289(9) 0.1512(5) 0.33507(14)
O10_6 O 0.20139(10) 0.8394(4) 0.83382(13)
O11_6 O 0.20680(9) 0.6243(5) 0.79474(14)
O12_6 O 0.17705(8) 0.6097(4) 0.83815(12)
C5_6 C 0.02918(12) 0.5318(6) 0.44587(18)
C6_6 C 0.04238(11) 0.5625(6) 0.49687(18)
N2_6 N 0.02834(9) 0.6652(5) 0.51301(14)
C7_6 C 0.05078(11) 0.6705(6) 0.56621(18)
C8_6 C 0.07869(12) 0.5615(6) 0.58390(19)
H4_6 H 0.0973 0.5419 0.6186
C9_6 C 0.07280(12) 0.4940(6) 0.54122(19)
H5_6 H 0.0862 0.4160 0.5405
C10_6 C 0.04940(12) 0.7666(6) 0.59929(17)
C11_6 C 0.02122(11) 0.8623(6) 0.58540(18)
C14_6 C 0.01910(12) 0.9658(6) 0.61744(19)
H8_6 H 0.0373 0.9872 0.6523
C21_6 C 0.05095(12) 0.4446(7) 0.43340(19)
C22_6 C 0.03626(12) 0.3260(7) 0.3976(2)
H11_6 H 0.0129 0.2944 0.3843
C23_6 C 0.05584(13) 0.2559(7) 0.3820(2)
H12_6 H 0.0459 0.1785 0.3576
C24_6 C 0.09076(11) 0.3029(6) 0.40335(19)
C25_6 C 0.10467(15) 0.4112(7) 0.4385(2)
H13_6 H 0.1284 0.4402 0.4536
C26_6 C 0.08445(14) 0.4812(7) 0.4528(2)
H14_6 H 0.0948 0.5581 0.4774
C27_6 C 0.08121(12) 0.7695(6) 0.65371(18)
C28_6 C 0.11295(12) 0.8158(7) 0.6618(2)
H15_6 H 0.1129 0.8586 0.6342
C29_6 C 0.14457(13) 0.8002(7) 0.70978(19)
H16_6 H 0.1660 0.8307 0.7147
C30_6 C 0.14465(11) 0.7402(6) 0.75021(17)
C31_6 C 0.11296(12) 0.7032(7) 0.74356(18)
H17_6 H 0.1127 0.6673 0.7718
C32_6 C 0.08184(12) 0.7192(7) 0.6952(2)
H18_6 H 0.0603 0.6943 0.6909
H27_6 H 0.284963 0.717047 0.881245
H28_6 H 0.294957 0.886895 0.881028
S3_6 S 0.81869(3) 0.32252(14) 0.49695(4)
C13_6 C 0.98669(12) 0.0292(6) 0.58977(19)
H7_6 H 0.9783 0.1018 0.6020
C33_6 C 0.90906(11) 0.0889(6) 0.50504(18)
C34_6 C 0.88745(12) 0.1849(6) 0.46478(19)
H19_6 H 0.8913 0.1993 0.4382
C35_6 C 0.86041(12) 0.2603(6) 0.46275(18)
H20_6 H 0.8450 0.3205 0.4339
C36_6 C 0.85603(11) 0.2477(6) 0.50224(17)
C37_6 C 0.87936(11) 0.1637(6) 0.54546(18)
H21_6 H 0.8772 0.1595 0.5738
C38_6 C 0.90575(12) 0.0864(6) 0.54678(18)
H22_6 H 0.9219 0.0307 0.5766
S4_6 S 0.80452(3) 0.81122(14) 0.11799(4)
N1_6 N 0.97340(9) 0.6668(5) 0.40627(14)
H1_6 H 0.9756 0.6907 0.4351
C1_6 C 0.99807(11) 0.5902(6) 0.40350(18)
C2_6 C 0.98502(13) 0.5817(6) 0.35055(19)
H2_6 H 0.9969 0.5388 0.3367
C3_6 C 0.95238(13) 0.6455(7) 0.32242(19)
H3_6 H 0.9374 0.6517 0.2859
C4_6 C 0.94497(12) 0.7008(6) 0.35777(17)
N3_6 N 0.98985(9) 0.8680(5) 0.53823(14)
H6_6 H 0.9845 0.8161 0.5111
C12_6 C 0.96773(12) 0.9676(6) 0.53954(17)
C15_6 C 0.93223(11) 0.9890(6) 0.49937(18)
C16_6 C 0.91588(12) 0.9174(6) 0.45122(18)
N4_6 N 0.93309(9) 0.8523(5) 0.43184(14)
C17_6 C 0.90751(11) 0.8190(6) 0.38176(18)
C18_6 C 0.87291(11) 0.8531(7) 0.36967(19)
H9_6 H 0.8510 0.8373 0.3377
C19_6 C 0.87801(12) 0.9119(6) 0.41280(19)
H10_6 H 0.8602 0.9437 0.4173
C20_6 C 0.91421(12) 0.7648(6) 0.34589(18)
C39_6 C 0.88578(12) 0.7790(6) 0.28955(17)
C40_6 C 0.85733(12) 0.6890(6) 0.26595(19)
H23_6 H 0.8546 0.6179 0.2856
C41_6 C 0.83183(12) 0.7008(6) 0.21240(19)
H24_6 H 0.8115 0.6401 0.1959
C42_6 C 0.83678(12) 0.8009(6) 0.18468(17)
C43_6 C 0.86529(12) 0.8939(6) 0.20752(19)
H25_6 H 0.8682 0.9637 0.1877
C44_6 C 0.88968(12) 0.8822(7) 0.26051(19)
H26_6 H 0.9094 0.9460 0.2772
S3_7 S 0.68131(3) 0.82252(14) 0.00305(4)
S4_7 S 0.69548(3) 0.31122(14) 0.38201(4)
O15_4 O 0.70398(8) 0.6968(4) 0.01205(12)
N1_7 N 0.52660(9) 0.1668(5) 0.09373(14)
H1_7 H 0.5244 0.1907 0.0649
C1_7 C 0.50193(11) 0.0902(6) 0.09650(18)
C2_7 C 0.51498(13) 0.0817(6) 0.14945(19)
H2_7 H 0.5031 0.0388 0.1633
C3_7 C 0.54762(13) 0.1455(7) 0.17758(19)
H3_7 H 0.5626 0.1517 0.2141
C4_7 C 0.55503(12) 0.2008(6) 0.14223(17)
C5_7 C 0.47082(12) 0.0318(6) 0.05413(18)
C6_7 C 0.45762(11) 0.0625(6) 0.00313(18)
C15_7 C 0.56777(11) 0.4890(6) 0.00063(18)
C16_7 C 0.58412(12) 0.4174(6) 0.04878(18)
N4_7 N 0.56691(9) 0.3523(5) 0.06816(14)
C17_7 C 0.59249(11) 0.3190(6) 0.11824(18)
C18_7 C 0.62709(11) 0.3531(7) 0.13033(19)
H9_7 H 0.6490 0.3373 0.1623
C19_7 C 0.62199(12) 0.4119(6) 0.08720(19)
H10_7 H 0.6398 0.4437 0.0827
C20_7 C 0.58579(12) 0.2648(6) 0.15411(18)
H14_7 H 0.4052 0.0581 0.0226
C34_7 C 0.61255(12) 0.6849(6) 0.03522(19)
H19_7 H 0.6087 0.6993 0.0618
C35_7 C 0.63959(12) 0.7603(6) 0.03725(18)
H20_7 H 0.6550 0.8205 0.0661
C39_7 C 0.61422(12) 0.2790(6) 0.21045(17)
C40_7 C 0.64267(12) 0.1890(6) 0.23405(19)
H23_7 H 0.6454 0.1179 0.2144
C41_7 C 0.66817(12) 0.2008(6) 0.28760(19)
H24_7 H 0.6885 0.1401 0.3041
C42_7 C 0.66322(12) 0.3009(6) 0.31532(17)
C43_7 C 0.63471(12) 0.3939(6) 0.29248(19)
H25_7 H 0.6318 0.4637 0.3123
C44_7 C 0.61032(12) 0.3822(7) 0.23949(19)
H26_7 H 0.5906 0.4460 0.2228
S2_7 S 0.31435(3) 0.20024(15) 0.69159(5)
O1_7 O 0.28790(8) 0.3083(4) 0.56429(13)
O5_7 O 0.22430(18) 0.3185(9) 0.6271(3)
O6_7 O 0.32344(18) 0.4307(9) 0.4621(3)
O10_7 O 0.29861(10) 0.3394(4) 0.66618(13)
O11_7 O 0.29320(9) 0.1243(5) 0.70526(14)
O12_7 O 0.32295(8) 0.1097(4) 0.66185(12)
O14_4 O 0.66914(8) 0.8949(4) 0.95436(12)
N2_7 N 0.47166(9) 0.1652(5) 0.98699(14)
C7_7 C 0.44922(11) 0.1705(6) 0.93379(18)
C8_7 C 0.42131(12) 0.0615(6) 0.91610(19)
H4_7 H 0.4027 0.0419 0.8814
C10_7 C 0.45060(12) 0.2666(6) 0.90071(17)
C11_7 C 0.47878(11) 0.3623(6) 0.91460(18)
N3_7 N 0.51015(9) 0.3680(5) 0.96177(14)
H6_7 H 0.5155 0.3161 0.9889
C12_7 C 0.53227(12) 0.4676(6) 0.96046(17)
C13_7 C 0.51331(12) 0.5292(6) 0.91023(19)
H7_7 H 0.5217 0.6018 0.8980
C14_7 C 0.48090(12) 0.4658(6) 0.88256(19)
H8_7 H 0.4627 0.4872 0.8477
C27_7 C 0.41879(12) 0.2695(6) 0.84629(18)
C28_7 C 0.38705(12) 0.3158(7) 0.8382(2)
H15_7 H 0.3871 0.3586 0.8658
C29_7 C 0.35543(13) 0.3002(7) 0.79022(19)
H16_7 H 0.3340 0.3307 0.7853
C30_7 C 0.35535(11) 0.2402(6) 0.74979(17)
C31_7 C 0.38704(12) 0.2032(7) 0.75644(18)
H17_7 H 0.3873 0.1673 0.7282
C32_7 C 0.41816(12) 0.2192(7) 0.8048(2)
H18_7 H 0.4397 0.1943 0.8091
C33_7 C 0.59094(11) 0.5889(6) 0.99496(18)
C36_7 C 0.64397(11) 0.7477(6) 0.99776(17)
C37_7 C 0.62064(11) 0.6637(6) 0.95454(18)
H21_7 H 0.6228 0.6595 0.9262
C38_7 C 0.59425(12) 0.5864(6) 0.95322(18)
H22_7 H 0.5781 0.5307 0.9234
O26_4 O 0.29602(8) 0.6968(4) 0.48795(12)
H27_7 H 0.215037 0.217047 0.618755
H28_7 H 0.205043 0.386895 0.618972
H29_7 H 0.348079 0.394687 0.483377
H30_7 H 0.322906 0.529296 0.448427
S1_7 S 0.38346(3) 0.71989(15) 0.11592(5)
O9_7 O 0.40711(9) 0.6512(5) 0.16493(14)
C21_7 C 0.44905(12) 0.9446(7) 0.06660(19)
C22_7 C 0.46374(12) 0.8260(7) 0.1024(2)
H11_7 H 0.4871 0.7944 0.1157
C23_7 C 0.44416(13) 0.7559(7) 0.1180(2)
H12_7 H 0.4541 0.6785 0.1424
C24_7 C 0.40924(11) 0.8029(6) 0.09665(19)
C25_7 C 0.39533(15) 0.9112(7) 0.0615(2)
H13_7 H 0.3716 0.9402 0.0464
C26_7 C 0.41555(14) 0.9812(7) 0.0472(2)
C9_7 C 0.42720(12) 0.9940(6) 0.95878(19)
H5_7 H 0.4138 0.9160 0.9595
O25_4 O 0.33086(8) 0.8949(4) 0.54564(12)
O6_8 O 0.67656(18) 0.4307(9) 0.0379(3)
H29_8 H 0.651921 0.394687 0.0166227
H30_8 H 0.677094 0.529296 0.0515727
S2_8 S 0.68565(3) 0.20024(15) 0.80841(5)
S3_8 S 0.31869(3) 0.82252(14) 0.49695(4)
S4_8 S 0.30452(3) 0.31122(14) 0.11799(4)
O1_8 O 0.71210(8) 0.3083(4) 0.93571(13)
O5_8 O 0.77570(18) 0.3185(9) 0.8729(3)
O10_8 O 0.70139(10) 0.3394(4) 0.83382(13)
O11_8 O 0.70680(9) 0.1243(5) 0.79474(14)
O12_8 O 0.67705(8) 0.1097(4) 0.83815(12)
N1_8 N 0.47340(9) 0.1668(5) 0.40627(14)
H1_8 H 0.4756 0.1907 0.4351
C1_8 C 0.49807(11) 0.0902(6) 0.40350(18)
C2_8 C 0.48502(13) 0.0817(6) 0.35055(19)
H2_8 H 0.4969 0.0388 0.3367
C3_8 C 0.45238(13) 0.1455(7) 0.32242(19)
H3_8 H 0.4374 0.1517 0.2859
C4_8 C 0.44497(12) 0.2008(6) 0.35777(17)
C5_8 C 0.52918(12) 0.0318(6) 0.44587(18)
C6_8 C 0.54238(11) 0.0625(6) 0.49687(18)
N2_8 N 0.52834(9) 0.1652(5) 0.51301(14)
C7_8 C 0.55078(11) 0.1705(6) 0.56621(18)
C8_8 C 0.57869(12) 0.0615(6) 0.58390(19)
H4_8 H 0.5973 0.0419 0.6186
C10_8 C 0.54940(12) 0.2666(6) 0.59929(17)
C11_8 C 0.52122(11) 0.3623(6) 0.58540(18)
N3_8 N 0.48985(9) 0.3680(5) 0.53823(14)
H6_8 H 0.4845 0.3161 0.5111
C12_8 C 0.46773(12) 0.4676(6) 0.53954(17)
C13_8 C 0.48669(12) 0.5292(6) 0.58977(19)
H7_8 H 0.4783 0.6018 0.6020
C14_8 C 0.51910(12) 0.4658(6) 0.61744(19)
H8_8 H 0.5373 0.4872 0.6523
C15_8 C 0.43223(11) 0.4890(6) 0.49937(18)
C16_8 C 0.41588(12) 0.4174(6) 0.45122(18)
N4_8 N 0.43309(9) 0.3523(5) 0.43184(14)
C17_8 C 0.40751(11) 0.3190(6) 0.38176(18)
C18_8 C 0.37291(11) 0.3531(7) 0.36967(19)
H9_8 H 0.3510 0.3373 0.3377
C19_8 C 0.37801(12) 0.4119(6) 0.41280(19)
H10_8 H 0.3602 0.4437 0.4173
C20_8 C 0.41421(12) 0.2648(6) 0.34589(18)
H14_8 H 0.5948 0.0581 0.4774
C27_8 C 0.58121(12) 0.2695(6) 0.65371(18)
C28_8 C 0.61295(12) 0.3158(7) 0.6618(2)
H15_8 H 0.6129 0.3586 0.6342
C29_8 C 0.64457(13) 0.3002(7) 0.70978(19)
H16_8 H 0.6660 0.3307 0.7147
C30_8 C 0.64465(11) 0.2402(6) 0.75021(17)
C31_8 C 0.61296(12) 0.2032(7) 0.74356(18)
H17_8 H 0.6127 0.1673 0.7718
C32_8 C 0.58184(12) 0.2192(7) 0.6952(2)
H18_8 H 0.5603 0.1943 0.6909
C33_8 C 0.40906(11) 0.5889(6) 0.50504(18)
C34_8 C 0.38745(12) 0.6849(6) 0.46478(19)
H19_8 H 0.3913 0.6993 0.4382
C35_8 C 0.36041(12) 0.7603(6) 0.46275(18)
H20_8 H 0.3450 0.8205 0.4339
C36_8 C 0.35603(11) 0.7477(6) 0.50224(17)
C37_8 C 0.37936(11) 0.6637(6) 0.54546(18)
H21_8 H 0.3772 0.6595 0.5738
C38_8 C 0.40575(12) 0.5864(6) 0.54678(18)
H22_8 H 0.4219 0.5307 0.5766
C39_8 C 0.38578(12) 0.2790(6) 0.28955(17)
C40_8 C 0.35733(12) 0.1890(6) 0.26595(19)
H23_8 H 0.3546 0.1179 0.2856
C41_8 C 0.33183(12) 0.2008(6) 0.21240(19)
H24_8 H 0.3115 0.1401 0.1959
C42_8 C 0.33678(12) 0.3009(6) 0.18468(17)
C43_8 C 0.36529(12) 0.3939(6) 0.20752(19)
H25_8 H 0.3682 0.4637 0.1877
C44_8 C 0.38968(12) 0.3822(7) 0.26051(19)
H26_8 H 0.4094 0.4460 0.2772
H27_8 H 0.784963 0.217047 0.881245
H28_8 H 0.794957 0.386895 0.881028
S1_8 S 0.61654(3) 0.71989(15) 0.38408(5)
O9_8 O 0.59289(9) 0.6512(5) 0.33507(14)
C9_8 C 0.57280(12) 0.9940(6) 0.54122(19)
H5_8 H 0.5862 0.9160 0.5405
C21_8 C 0.55095(12) 0.9446(7) 0.43340(19)
C22_8 C 0.53626(12) 0.8260(7) 0.3976(2)
H11_8 H 0.5129 0.7944 0.3843
C23_8 C 0.55584(13) 0.7559(7) 0.3820(2)
H12_8 H 0.5459 0.6785 0.3576
C24_8 C 0.59076(11) 0.8029(6) 0.40335(19)
C25_8 C 0.60467(15) 0.9112(7) 0.4385(2)
H13_8 H 0.6284 0.9402 0.4536
C26_8 C 0.58445(14) 0.9812(7) 0.4528(2)
loop_
_geom_bond_atom_site_label_1
_geom_bond_atom_site_label_2
_geom_bond_site_symmetry_1
_geom_bond_site_symmetry_2
Eu1 O1 1_555 1_555
Eu2 O1 1_555 1_555
Eu3 O1 1_555 1_555
S2 O10 1_555 1_555
O2 Eu1 1_555 1_555
O3 Eu2 1_555 1_555
O4 Eu3 1_555 1_555
O5 Eu3 1_555 1_555
O6 Eu2 1_555 1_555
O10 Eu3 1_555 1_555
O11 S2 1_555 1_555
O12 Eu1 1_555 1_555
C7 N2 1_555 1_555
C8 C7 1_555 1_555
H4 C8 1_555 1_555
H5 C9 1_555 1_555
C10 C7 1_555 1_555
C11 C10 1_555 1_555
C14 C11 1_555 1_555
H8 C14 1_555 1_555
C27 C10 1_555 1_555
C28 C27 1_555 1_555
H15 C28 1_555 1_555
C29 C28 1_555 1_555
H16 C29 1_555 1_555
C30 S2 1_555 1_555
C31 C30 1_555 1_555
H17 C31 1_555 1_555
C32 C27 1_555 1_555
H18 C32 1_555 1_555
Eu7 O3 1_555 1_555
Eu11 O2 1_555 1_555
Eu13 O2 1_555 1_555
O20 Eu1 1_555 1_555
O21 Eu1 1_555 1_555
O22 Eu1 1_555 1_555
O23 Eu2 1_555 1_555
O25 Eu1 1_555 1_555
O27 Eu1 1_555 1_555
Eu2 O21 1_555 1_555
Eu3 O20 1_555 1_555
S2 O12 1_555 1_555
O3 Eu13 1_555 1_555
O4 Eu7 1_555 1_555
O4 Eu11 1_555 1_555
C8 C9 1_555 1_555
C29 C30 1_555 1_555
C31 C32 1_555 1_555
Eu11 O20 1_555 1_555
Eu13 O21 1_555 1_555
O5 H27 1_555 1_555
O5 H28 1_555 1_555
O6 H29 1_555 1_555
S1 O7 1_555 1_555
O7 Eu6 1_555 1_555
O8 S1 1_555 1_555
O9 S1 1_555 1_555
C6 C5 1_555 1_555
C21 C5 1_555 1_555
C22 C21 1_555 1_555
H11 C22 1_555 1_555
C23 C22 1_555 1_555
H12 C23 1_555 1_555
C24 S1 1_555 1_555
C25 C24 1_555 1_555
H13 C25 1_555 1_555
C26 C21 1_555 1_555
H14 C26 1_555 1_555
Eu10 O8 1_555 1_555
C23 C24 1_555 1_555
C25 C26 1_555 1_555
H6 N3 1_555 1_555
C12 N3 1_555 1_555
S4 O16 1_555 1_555
O16 Eu5 1_555 1_555
O17 S4 1_555 1_555
O18 S4 1_555 1_555
N1 H1 1_555 1_555
C1 N1 1_555 1_555
C2 C1 1_555 1_555
H2 C2 1_555 1_555
C3 C2 1_555 1_555
H3 C3 1_555 1_555
C4 N1 1_555 1_555
C16 C15 1_555 1_555
N4 C16 1_555 1_555
C17 N4 1_555 1_555
C18 C17 1_555 1_555
H9 C18 1_555 1_555
C19 C16 1_555 1_555
H10 C19 1_555 1_555
C20 C4 1_555 1_555
C39 C20 1_555 1_555
C40 C39 1_555 1_555
H23 C40 1_555 1_555
C41 C40 1_555 1_555
H24 C41 1_555 1_555
C42 S4 1_555 1_555
C43 C42 1_555 1_555
H25 C43 1_555 1_555
C44 C39 1_555 1_555
H26 C44 1_555 1_555
C3 C4 1_555 1_555
C17 C20 1_555 1_555
C18 C19 1_555 1_555
C41 C42 1_555 1_555
C43 C44 1_555 1_555
H7 C13 1_555 1_555
C37 C36 1_555 1_555
H21 C37 1_555 1_555
C38 C33 1_555 1_555
H22 C38 1_555 1_555
Eu4 O14 1_555 1_555
C37 C38 1_555 1_555
S3 O13 1_555 1_555
O13 Eu14 1_555 1_555
O15 S3 1_555 1_555
H19 C34 1_555 1_555
C35 C34 1_555 1_555
H20 C35 1_555 1_555
S4_2 O16_2 1_555 1_555
O16_2 Eu6 1_555 1_555
O17_2 S4_2 1_555 1_555
O18_2 S4_2 1_555 1_555
N1_2 H1_2 1_555 1_555
C1_2 N1_2 1_555 1_555
C2_2 C1_2 1_555 1_555
H2_2 C2_2 1_555 1_555
C3_2 C2_2 1_555 1_555
H3_2 C3_2 1_555 1_555
C4_2 N1_2 1_555 1_555
H6_2 N3_2 1_555 1_555
C12_2 N3_2 1_555 1_555
C15_2 C12_2 1_555 1_555
C16_2 C15_2 1_555 1_555
N4_2 C16_2 1_555 1_555
C17_2 N4_2 1_555 1_555
C18_2 C17_2 1_555 1_555
H9_2 C18_2 1_555 1_555
C19_2 C16_2 1_555 1_555
H10_2 C19_2 1_555 1_555
C20_2 C4_2 1_555 1_555
C39_2 C20_2 1_555 1_555
C40_2 C39_2 1_555 1_555
H23_2 C40_2 1_555 1_555
C41_2 C40_2 1_555 1_555
H24_2 C41_2 1_555 1_555
C42_2 S4_2 1_555 1_555
C43_2 C42_2 1_555 1_555
H25_2 C43_2 1_555 1_555
C44_2 C39_2 1_555 1_555
H26_2 C44_2 1_555 1_555
C3_2 C4_2 1_555 1_555
C17_2 C20_2 1_555 1_555
C18_2 C19_2 1_555 1_555
C41_2 C42_2 1_555 1_555
C43_2 C44_2 1_555 1_555
S3_2 O13_2 1_555 1_555
O13_2 Eu13 1_555 1_555
O25 S3_2 1_555 1_555
O26 S3_2 1_555 1_555
H7_2 C13_2 1_555 1_555
C34_2 C33_2 1_555 1_555
H19_2 C34_2 1_555 1_555
C35_2 C34_2 1_555 1_555
H20_2 C35_2 1_555 1_555
C36_2 S3_2 1_555 1_555
C37_2 C36_2 1_555 1_555
H21_2 C37_2 1_555 1_555
C38_2 C33_2 1_555 1_555
H22_2 C38_2 1_555 1_555
C35_2 C36_2 1_555 1_555
C37_2 C38_2 1_555 1_555
Eu4 O1_2 1_555 1_555
Eu8 O1_2 1_555 1_555
Eu3_2 O1_2 1_555 1_555
S1_2 O7_2 1_555 1_555
S2_2 O10_2 1_555 1_555
O5_2 Eu3_2 1_555 1_555
O7_2 Eu5 1_555 1_555
O8_2 S1_2 1_555 1_555
O9_2 S1_2 1_555 1_555
O10_2 Eu3_2 1_555 1_555
O11_2 S2_2 1_555 1_555
O12_2 Eu4 1_555 1_555
C6_2 C5_2 1_555 1_555
N2_2 C6_2 1_555 1_555
C7_2 N2_2 1_555 1_555
C8_2 C7_2 1_555 1_555
H4_2 C8_2 1_555 1_555
C9_2 C6_2 1_555 1_555
H5_2 C9_2 1_555 1_555
C10_2 C7_2 1_555 1_555
C11_2 C10_2 1_555 1_555
C14_2 C11_2 1_555 1_555
H8_2 C14_2 1_555 1_555
C21_2 C5_2 1_555 1_555
C22_2 C21_2 1_555 1_555
H11_2 C22_2 1_555 1_555
C23_2 C22_2 1_555 1_555
H12_2 C23_2 1_555 1_555
C24_2 S1_2 1_555 1_555
C25_2 C24_2 1_555 1_555
H13_2 C25_2 1_555 1_555
C26_2 C21_2 1_555 1_555
H14_2 C26_2 1_555 1_555
C27_2 C10_2 1_555 1_555
C28_2 C27_2 1_555 1_555
H15_2 C28_2 1_555 1_555
C29_2 C28_2 1_555 1_555
H16_2 C29_2 1_555 1_555
C30_2 S2_2 1_555 1_555
C31_2 C30_2 1_555 1_555
H17_2 C31_2 1_555 1_555
C32_2 C27_2 1_555 1_555
H18_2 C32_2 1_555 1_555
Eu9 O8_2 1_555 1_555
O20_2 Eu4 1_555 1_555
O21_2 Eu4 1_555 1_555
O22_2 Eu4 1_555 1_555
O23_2 Eu8 1_555 1_555
O27_2 Eu4 1_555 1_555
Eu8 O21_2 1_555 1_555
Eu3_2 O20_2 1_555 1_555
S2_2 O12_2 1_555 1_555
C8_2 C9_2 1_555 1_555
C23_2 C24_2 1_555 1_555
C25_2 C26_2 1_555 1_555
C29_2 C30_2 1_555 1_555
C31_2 C32_2 1_555 1_555
O5_2 H27_2 1_555 1_555
O5_2 H28_2 1_555 1_555
Eu7_2 O3_2 1_555 1_555
Eu11_2 O2_2 1_555 1_555
Eu14 O2_2 1_555 1_555
O3_2 Eu14 1_555 1_555
O4_2 Eu7_2 1_555 1_555
O4_2 Eu11_2 1_555 1_555
O6_2 H29_2 1_555 1_555
H5_3 C9_3 1_555 1_555
S1_3 O7_3 1_555 1_555
O7_3 Eu7_2 1_555 1_555
O8_3 S1_3 1_555 1_555
O9_3 S1_3 1_555 1_555
C22_3 C21_3 1_555 1_555
H11_3 C22_3 1_555 1_555
C23_3 C22_3 1_555 1_555
H12_3 C23_3 1_555 1_555
C24_3 S1_3 1_555 1_555
C25_3 C24_3 1_555 1_555
H13_3 C25_3 1_555 1_555
C26_3 C21_3 1_555 1_555
Eu11_2 O8_3 1_555 1_555
C23_3 C24_3 1_555 1_555
C25_3 C26_3 1_555 1_555
Eu1_2 O1_3 1_555 1_555
Eu2_2 O1_3 1_555 1_555
Eu3_3 O1_3 1_555 1_555
S2_3 O10_3 1_555 1_555
O3_3 Eu2_2 1_555 1_555
O4_3 Eu3_3 1_555 1_555
O5_3 Eu3_3 1_555 1_555
O6_3 Eu2_2 1_555 1_555
O10_3 Eu3_3 1_555 1_555
O11_3 S2_3 1_555 1_555
O12_3 Eu1_2 1_555 1_555
C7_3 N2_3 1_555 1_555
C8_3 C7_3 1_555 1_555
H4_3 C8_3 1_555 1_555
C10_3 C7_3 1_555 1_555
C11_3 C10_3 1_555 1_555
N3_3 C11_3 1_555 1_555
H6_3 N3_3 1_555 1_555
C12_3 N3_3 1_555 1_555
C13_3 C12_3 1_555 1_555
H7_3 C13_3 1_555 1_555
C14_3 C11_3 1_555 1_555
H8_3 C14_3 1_555 1_555
C27_3 C10_3 1_555 1_555
C28_3 C27_3 1_555 1_555
H15_3 C28_3 1_555 1_555
C29_3 C28_3 1_555 1_555
H16_3 C29_3 1_555 1_555
C30_3 S2_3 1_555 1_555
C31_3 C30_3 1_555 1_555
H17_3 C31_3 1_555 1_555
C32_3 C27_3 1_555 1_555
H18_3 C32_3 1_555 1_555
C37_3 C36_3 1_555 1_555
H21_3 C37_3 1_555 1_555
C38_3 C33_3 1_555 1_555
H22_3 C38_3 1_555 1_555
Eu5 O3_3 1_555 1_555
O19_3 Eu2_2 1_555 1_555
O20_3 Eu1_2 1_555 1_555
O21_3 Eu1_2 1_555 1_555
O22_3 Eu1_2 1_555 1_555
O23_3 Eu2_2 1_555 1_555
O24_3 Eu3_3 1_555 1_555
O26_2 Eu2_2 1_555 1_555
O28_3 Eu3_3 1_555 1_555
O29_3 Eu2_2 1_555 1_555
Eu2_2 O21_3 1_555 1_555
Eu3_3 O19_3 1_555 1_555
Eu3_3 O20_3 1_555 1_555
S2_3 O12_3 1_555 1_555
O3_3 Eu12 1_555 1_555
O4_3 Eu5 1_555 1_555
O4_3 Eu9 1_555 1_555
C13_3 C14_3 1_555 1_555
C29_3 C30_3 1_555 1_555
C31_3 C32_3 1_555 1_555
C37_3 C38_3 1_555 1_555
Eu5 O19_3 1_555 1_555
Eu9 O20_3 1_555 1_555
Eu12 O21_3 1_555 1_555
O5_3 H27_3 1_555 1_555
O5_3 H28_3 1_555 1_555
O6_3 H29_3 1_555 1_555
O6_3 H30_3 1_555 1_555
S3_3 O13_3 1_555 1_555
S4_3 O16_3 1_555 1_555
O15_2 S3_3 1_555 1_555
O17_3 S4_3 1_555 1_555
O18_3 S4_3 1_555 1_555
N1_3 H1_3 1_555 1_555
C1_3 N1_3 1_555 1_555
C2_3 C1_3 1_555 1_555
H2_3 C2_3 1_555 1_555
C3_3 C2_3 1_555 1_555
H3_3 C3_3 1_555 1_555
C4_3 N1_3 1_555 1_555
C5_3 C1_3 1_555 1_555
C6_3 C5_3 1_555 1_555
C16_3 C15_3 1_555 1_555
N4_3 C16_3 1_555 1_555
C17_3 N4_3 1_555 1_555
C18_3 C17_3 1_555 1_555
H9_3 C18_3 1_555 1_555
C19_3 C16_3 1_555 1_555
H10_3 C19_3 1_555 1_555
C20_3 C4_3 1_555 1_555
H19_3 C34_3 1_555 1_555
C35_3 C34_3 1_555 1_555
H20_3 C35_3 1_555 1_555
C39_3 C20_3 1_555 1_555
C40_3 C39_3 1_555 1_555
H23_3 C40_3 1_555 1_555
C41_3 C40_3 1_555 1_555
H24_3 C41_3 1_555 1_555
C42_3 S4_3 1_555 1_555
C43_3 C42_3 1_555 1_555
H25_3 C43_3 1_555 1_555
C44_3 C39_3 1_555 1_555
H26_3 C44_3 1_555 1_555
Eu11 O18_3 1_555 1_555
Eu13 O17_3 1_555 1_555
C3_3 C4_3 1_555 1_555
C17_3 C20_3 1_555 1_555
C18_3 C19_3 1_555 1_555
C41_3 C42_3 1_555 1_555
C43_3 C44_3 1_555 1_555
S1_4 O7_4 1_555 1_555
O7_4 Eu7 1_555 1_555
O8_4 S1_4 1_555 1_555
O9_4 S1_4 1_555 1_555
H5_4 C9_4 1_555 1_555
C22_4 C21_4 1_555 1_555
H11_4 C22_4 1_555 1_555
C23_4 C22_4 1_555 1_555
H12_4 C23_4 1_555 1_555
C24_4 S1_4 1_555 1_555
C25_4 C24_4 1_555 1_555
H13_4 C25_4 1_555 1_555
C26_4 C21_4 1_555 1_555
Eu11 O8_4 1_555 1_555
C23_4 C24_4 1_555 1_555
C25_4 C26_4 1_555 1_555
Eu4_2 O1_4 1_555 1_555
Eu8_2 O1_4 1_555 1_555
Eu3_4 O1_4 1_555 1_555
S2_4 O10_4 1_555 1_555
S3_4 O13_4 1_555 1_555
S4_4 O16_4 1_555 1_555
O5_4 Eu3_4 1_555 1_555
O10_4 Eu3_4 1_555 1_555
O11_4 S2_4 1_555 1_555
O12_4 Eu4_2 1_555 1_555
O25_2 S3_4 1_555 1_555
O26_2 S3_4 1_555 1_555
O17_4 S4_4 1_555 1_555
O18_4 S4_4 1_555 1_555
N1_4 H1_4 1_555 1_555
C1_4 N1_4 1_555 1_555
C2_4 C1_4 1_555 1_555
H2_4 C2_4 1_555 1_555
C3_4 C2_4 1_555 1_555
H3_4 C3_4 1_555 1_555
C4_4 N1_4 1_555 1_555
C5_4 C1_4 1_555 1_555
C6_4 C5_4 1_555 1_555
N2_4 C6_4 1_555 1_555
C7_4 N2_4 1_555 1_555
C8_4 C7_4 1_555 1_555
H4_4 C8_4 1_555 1_555
C10_4 C7_4 1_555 1_555
C11_4 C10_4 1_555 1_555
N3_4 C11_4 1_555 1_555
H6_4 N3_4 1_555 1_555
C12_4 N3_4 1_555 1_555
C13_4 C12_4 1_555 1_555
H7_4 C13_4 1_555 1_555
C14_4 C11_4 1_555 1_555
H8_4 C14_4 1_555 1_555
C15_4 C12_4 1_555 1_555
C16_4 C15_4 1_555 1_555
N4_4 C16_4 1_555 1_555
C17_4 N4_4 1_555 1_555
C18_4 C17_4 1_555 1_555
H9_4 C18_4 1_555 1_555
C19_4 C16_4 1_555 1_555
H10_4 C19_4 1_555 1_555
C20_4 C4_4 1_555 1_555
C27_4 C10_4 1_555 1_555
C28_4 C27_4 1_555 1_555
H15_4 C28_4 1_555 1_555
C29_4 C28_4 1_555 1_555
H16_4 C29_4 1_555 1_555
C30_4 S2_4 1_555 1_555
C31_4 C30_4 1_555 1_555
H17_4 C31_4 1_555 1_555
C32_4 C27_4 1_555 1_555
H18_4 C32_4 1_555 1_555
C33_4 C15_4 1_555 1_555
C34_4 C33_4 1_555 1_555
H19_4 C34_4 1_555 1_555
C35_4 C34_4 1_555 1_555
H20_4 C35_4 1_555 1_555
C36_4 S3_4 1_555 1_555
C37_4 C36_4 1_555 1_555
H21_4 C37_4 1_555 1_555
C38_4 C33_4 1_555 1_555
H22_4 C38_4 1_555 1_555
C39_4 C20_4 1_555 1_555
C40_4 C39_4 1_555 1_555
H23_4 C40_4 1_555 1_555
C41_4 C40_4 1_555 1_555
H24_4 C41_4 1_555 1_555
C42_4 S4_4 1_555 1_555
C43_4 C42_4 1_555 1_555
H25_4 C43_4 1_555 1_555
C44_4 C39_4 1_555 1_555
H26_4 C44_4 1_555 1_555
Eu11_2 O18_4 1_555 1_555
Eu14 O17_4 1_555 1_555
O19_4 Eu8_2 1_555 1_555
O20_4 Eu4_2 1_555 1_555
O21_4 Eu4_2 1_555 1_555
O22_4 Eu4_2 1_555 1_555
O23_4 Eu8_2 1_555 1_555
O24_4 Eu3_4 1_555 1_555
O28_4 Eu3_4 1_555 1_555
O29_4 Eu8_2 1_555 1_555
Eu8_2 O21_4 1_555 1_555
Eu3_4 O19_4 1_555 1_555
Eu3_4 O20_4 1_555 1_555
S2_4 O12_4 1_555 1_555
C3_4 C4_4 1_555 1_555
C13_4 C14_4 1_555 1_555
C17_4 C20_4 1_555 1_555
C18_4 C19_4 1_555 1_555
C29_4 C30_4 1_555 1_555
C31_4 C32_4 1_555 1_555
C35_4 C36_4 1_555 1_555
C37_4 C38_4 1_555 1_555
C41_4 C42_4 1_555 1_555
C43_4 C44_4 1_555 1_555
O5_4 H27_4 1_555 1_555
O5_4 H28_4 1_555 1_555
Eu6 O3_4 1_555 1_555
O3_4 Eu12_2 1_555 1_555
O4_4 Eu6 1_555 1_555
O4_4 Eu10 1_555 1_555
O6_4 H29_4 1_555 1_555
O6_4 H30_4 1_555 1_555
S3_5 O24_4 1_555 1_555
O15_3 S3_5 1_555 1_555
H19_5 C34_5 1_555 1_555
C35_5 C34_5 1_555 1_555
H20_5 C35_5 1_555 1_555
H7_5 C13_5 1_555 1_555
C37_5 C36_5 1_555 1_555
H21_5 C37_5 1_555 1_555
C38_5 C33_5 1_555 1_555
H22_5 C38_5 1_555 1_555
Eu6 O14_3 1_555 1_555
C37_5 C38_5 1_555 1_555
S4_5 O27 1_555 1_555
O28 S4_5 1_555 1_555
O29 S4_5 1_555 1_555
N1_5 H1_5 1_555 1_555
C1_5 N1_5 1_555 1_555
C2_5 C1_5 1_555 1_555
H2_5 C2_5 1_555 1_555
C3_5 C2_5 1_555 1_555
H3_5 C3_5 1_555 1_555
C4_5 N1_5 1_555 1_555
C16_5 C15_5 1_555 1_555
N4_5 C16_5 1_555 1_555
C17_5 N4_5 1_555 1_555
C18_5 C17_5 1_555 1_555
H9_5 C18_5 1_555 1_555
C19_5 C16_5 1_555 1_555
H10_5 C19_5 1_555 1_555
C20_5 C4_5 1_555 1_555
C39_5 C20_5 1_555 1_555
C40_5 C39_5 1_555 1_555
H23_5 C40_5 1_555 1_555
C41_5 C40_5 1_555 1_555
H24_5 C41_5 1_555 1_555
C42_5 S4_5 1_555 1_555
C43_5 C42_5 1_555 1_555
H25_5 C43_5 1_555 1_555
C44_5 C39_5 1_555 1_555
H26_5 C44_5 1_555 1_555
C3_5 C4_5 1_555 1_555
C17_5 C20_5 1_555 1_555
C18_5 C19_5 1_555 1_555
C41_5 C42_5 1_555 1_555
C43_5 C44_5 1_555 1_555
H6_5 N3_5 1_555 1_555
C12_5 N3_5 1_555 1_555
S1_5 O22_2 1_555 1_555
O23_2 S1_5 1_555 1_555
O9_5 S1_5 1_555 1_555
C6_5 C5_5 1_555 1_555
C21_5 C5_5 1_555 1_555
C22_5 C21_5 1_555 1_555
H11_5 C22_5 1_555 1_555
C23_5 C22_5 1_555 1_555
H12_5 C23_5 1_555 1_555
C24_5 S1_5 1_555 1_555
C25_5 C24_5 1_555 1_555
H13_5 C25_5 1_555 1_555
C26_5 C21_5 1_555 1_555
H14_5 C26_5 1_555 1_555
C23_5 C24_5 1_555 1_555
C25_5 C26_5 1_555 1_555
Eu5 O1_5 1_555 1_555
Eu9 O1_5 1_555 1_555
Eu12 O1_5 1_555 1_555
S2_5 O10_5 1_555 1_555
O5_5 Eu12 1_555 1_555
O6_5 Eu9 1_555 1_555
O10_5 Eu12 1_555 1_555
O11_5 S2_5 1_555 1_555
O12_5 Eu5 1_555 1_555
C7_5 N2_5 1_555 1_555
C8_5 C7_5 1_555 1_555
H4_5 C8_5 1_555 1_555
H5_5 C9_5 1_555 1_555
C10_5 C7_5 1_555 1_555
C11_5 C10_5 1_555 1_555
C14_5 C11_5 1_555 1_555
H8_5 C14_5 1_555 1_555
C27_5 C10_5 1_555 1_555
C28_5 C27_5 1_555 1_555
H15_5 C28_5 1_555 1_555
C29_5 C28_5 1_555 1_555
H16_5 C29_5 1_555 1_555
C30_5 S2_5 1_555 1_555
C31_5 C30_5 1_555 1_555
H17_5 C31_5 1_555 1_555
C32_5 C27_5 1_555 1_555
H18_5 C32_5 1_555 1_555
O25_3 Eu5 1_555 1_555
S2_5 O12_5 1_555 1_555
C8_5 C9_5 1_555 1_555
C29_5 C30_5 1_555 1_555
C31_5 C32_5 1_555 1_555
O5_5 H27_5 1_555 1_555
O5_5 H28_5 1_555 1_555
O6_5 H29_5 1_555 1_555
O6_6 H29_6 1_555 1_555
Eu6 O1_6 1_555 1_555
Eu10 O1_6 1_555 1_555
Eu12_2 O1_6 1_555 1_555
S1_6 O22 1_555 1_555
S2_6 O10_6 1_555 1_555
O5_6 Eu12_2 1_555 1_555
O23 S1_6 1_555 1_555
O9_6 S1_6 1_555 1_555
O10_6 Eu12_2 1_555 1_555
O11_6 S2_6 1_555 1_555
O12_6 Eu6 1_555 1_555
C6_6 C5_6 1_555 1_555
N2_6 C6_6 1_555 1_555
C7_6 N2_6 1_555 1_555
C8_6 C7_6 1_555 1_555
H4_6 C8_6 1_555 1_555
C9_6 C6_6 1_555 1_555
H5_6 C9_6 1_555 1_555
C10_6 C7_6 1_555 1_555
C11_6 C10_6 1_555 1_555
C14_6 C11_6 1_555 1_555
H8_6 C14_6 1_555 1_555
C21_6 C5_6 1_555 1_555
C22_6 C21_6 1_555 1_555
H11_6 C22_6 1_555 1_555
C23_6 C22_6 1_555 1_555
H12_6 C23_6 1_555 1_555
C24_6 S1_6 1_555 1_555
C25_6 C24_6 1_555 1_555
H13_6 C25_6 1_555 1_555
C26_6 C21_6 1_555 1_555
H14_6 C26_6 1_555 1_555
C27_6 C10_6 1_555 1_555
C28_6 C27_6 1_555 1_555
H15_6 C28_6 1_555 1_555
C29_6 C28_6 1_555 1_555
H16_6 C29_6 1_555 1_555
C30_6 S2_6 1_555 1_555
C31_6 C30_6 1_555 1_555
H17_6 C31_6 1_555 1_555
C32_6 C27_6 1_555 1_555
H18_6 C32_6 1_555 1_555
S2_6 O12_6 1_555 1_555
C8_6 C9_6 1_555 1_555
C23_6 C24_6 1_555 1_555
C25_6 C26_6 1_555 1_555
C29_6 C30_6 1_555 1_555
C31_6 C32_6 1_555 1_555
O5_6 H27_6 1_555 1_555
O5_6 H28_6 1_555 1_555
S3_6 O24_3 1_555 1_555
O25_3 S3_6 1_555 1_555
O26_3 S3_6 1_555 1_555
H7_6 C13_6 1_555 1_555
C34_6 C33_6 1_555 1_555
H19_6 C34_6 1_555 1_555
C35_6 C34_6 1_555 1_555
H20_6 C35_6 1_555 1_555
C36_6 S3_6 1_555 1_555
C37_6 C36_6 1_555 1_555
H21_6 C37_6 1_555 1_555
C38_6 C33_6 1_555 1_555
H22_6 C38_6 1_555 1_555
C35_6 C36_6 1_555 1_555
C37_6 C38_6 1_555 1_555
S4_6 O27_2 1_555 1_555
O28_2 S4_6 1_555 1_555
O29_2 S4_6 1_555 1_555
N1_6 H1_6 1_555 1_555
C1_6 N1_6 1_555 1_555
C2_6 C1_6 1_555 1_555
H2_6 C2_6 1_555 1_555
C3_6 C2_6 1_555 1_555
H3_6 C3_6 1_555 1_555
C4_6 N1_6 1_555 1_555
H6_6 N3_6 1_555 1_555
C12_6 N3_6 1_555 1_555
C15_6 C12_6 1_555 1_555
C16_6 C15_6 1_555 1_555
N4_6 C16_6 1_555 1_555
C17_6 N4_6 1_555 1_555
C18_6 C17_6 1_555 1_555
H9_6 C18_6 1_555 1_555
C19_6 C16_6 1_555 1_555
H10_6 C19_6 1_555 1_555
C20_6 C4_6 1_555 1_555
C39_6 C20_6 1_555 1_555
C40_6 C39_6 1_555 1_555
H23_6 C40_6 1_555 1_555
C41_6 C40_6 1_555 1_555
H24_6 C41_6 1_555 1_555
C42_6 S4_6 1_555 1_555
C43_6 C42_6 1_555 1_555
H25_6 C43_6 1_555 1_555
C44_6 C39_6 1_555 1_555
H26_6 C44_6 1_555 1_555
C3_6 C4_6 1_555 1_555
C17_6 C20_6 1_555 1_555
C18_6 C19_6 1_555 1_555
C41_6 C42_6 1_555 1_555
C43_6 C44_6 1_555 1_555
S3_7 O24_2 1_555 1_555
S4_7 O27_3 1_555 1_555
O15_4 S3_7 1_555 1_555
O28_3 S4_7 1_555 1_555
O29_3 S4_7 1_555 1_555
N1_7 H1_7 1_555 1_555
C1_7 N1_7 1_555 1_555
C2_7 C1_7 1_555 1_555
H2_7 C2_7 1_555 1_555
C3_7 C2_7 1_555 1_555
H3_7 C3_7 1_555 1_555
C4_7 N1_7 1_555 1_555
C5_7 C1_7 1_555 1_555
C6_7 C5_7 1_555 1_555
C16_7 C15_7 1_555 1_555
N4_7 C16_7 1_555 1_555
C17_7 N4_7 1_555 1_555
C18_7 C17_7 1_555 1_555
H9_7 C18_7 1_555 1_555
C19_7 C16_7 1_555 1_555
H10_7 C19_7 1_555 1_555
C20_7 C4_7 1_555 1_555
H19_7 C34_7 1_555 1_555
C35_7 C34_7 1_555 1_555
H20_7 C35_7 1_555 1_555
C39_7 C20_7 1_555 1_555
C40_7 C39_7 1_555 1_555
H23_7 C40_7 1_555 1_555
C41_7 C40_7 1_555 1_555
H24_7 C41_7 1_555 1_555
C42_7 S4_7 1_555 1_555
C43_7 C42_7 1_555 1_555
H25_7 C43_7 1_555 1_555
C44_7 C39_7 1_555 1_555
H26_7 C44_7 1_555 1_555
C3_7 C4_7 1_555 1_555
C17_7 C20_7 1_555 1_555
C18_7 C19_7 1_555 1_555
C41_7 C42_7 1_555 1_555
C43_7 C44_7 1_555 1_555
Eu7 O1_7 1_555 1_555
Eu11 O1_7 1_555 1_555
Eu13 O1_7 1_555 1_555
S2_7 O10_7 1_555 1_555
O5_7 Eu13 1_555 1_555
O6_7 Eu11 1_555 1_555
O10_7 Eu13 1_555 1_555
O11_7 S2_7 1_555 1_555
O12_7 Eu7 1_555 1_555
C7_7 N2_7 1_555 1_555
C8_7 C7_7 1_555 1_555
H4_7 C8_7 1_555 1_555
C10_7 C7_7 1_555 1_555
C11_7 C10_7 1_555 1_555
N3_7 C11_7 1_555 1_555
H6_7 N3_7 1_555 1_555
C12_7 N3_7 1_555 1_555
C13_7 C12_7 1_555 1_555
H7_7 C13_7 1_555 1_555
C14_7 C11_7 1_555 1_555
H8_7 C14_7 1_555 1_555
C27_7 C10_7 1_555 1_555
C28_7 C27_7 1_555 1_555
H15_7 C28_7 1_555 1_555
C29_7 C28_7 1_555 1_555
H16_7 C29_7 1_555 1_555
C30_7 S2_7 1_555 1_555
C31_7 C30_7 1_555 1_555
H17_7 C31_7 1_555 1_555
C32_7 C27_7 1_555 1_555
H18_7 C32_7 1_555 1_555
C37_7 C36_7 1_555 1_555
H21_7 C37_7 1_555 1_555
C38_7 C33_7 1_555 1_555
H22_7 C38_7 1_555 1_555
O26_4 Eu11 1_555 1_555
S2_7 O12_7 1_555 1_555
C13_7 C14_7 1_555 1_555
C29_7 C30_7 1_555 1_555
C31_7 C32_7 1_555 1_555
C37_7 C38_7 1_555 1_555
O5_7 H27_7 1_555 1_555
O5_7 H28_7 1_555 1_555
O6_7 H29_7 1_555 1_555
O6_7 H30_7 1_555 1_555
S1_7 O22_4 1_555 1_555
O23_4 S1_7 1_555 1_555
O9_7 S1_7 1_555 1_555
C22_7 C21_7 1_555 1_555
H11_7 C22_7 1_555 1_555
C23_7 C22_7 1_555 1_555
H12_7 C23_7 1_555 1_555
C24_7 S1_7 1_555 1_555
C25_7 C24_7 1_555 1_555
H13_7 C25_7 1_555 1_555
C26_7 C21_7 1_555 1_555
C23_7 C24_7 1_555 1_555
C25_7 C26_7 1_555 1_555
H5_7 C9_7 1_555 1_555
O6_8 H29_8 1_555 1_555
O6_8 H30_8 1_555 1_555
Eu7_2 O1_8 1_555 1_555
Eu11_2 O1_8 1_555 1_555
Eu14 O1_8 1_555 1_555
S2_8 O10_8 1_555 1_555
S3_8 O24 1_555 1_555
S4_8 O27_4 1_555 1_555
O5_8 Eu14 1_555 1_555
O10_8 Eu14 1_555 1_555
O11_8 S2_8 1_555 1_555
O12_8 Eu7_2 1_555 1_555
O25_4 S3_8 1_555 1_555
O26_4 S3_8 1_555 1_555
O28_4 S4_8 1_555 1_555
O29_4 S4_8 1_555 1_555
N1_8 H1_8 1_555 1_555
C1_8 N1_8 1_555 1_555
C2_8 C1_8 1_555 1_555
H2_8 C2_8 1_555 1_555
C3_8 C2_8 1_555 1_555
H3_8 C3_8 1_555 1_555
C4_8 N1_8 1_555 1_555
C5_8 C1_8 1_555 1_555
C6_8 C5_8 1_555 1_555
N2_8 C6_8 1_555 1_555
C7_8 N2_8 1_555 1_555
C8_8 C7_8 1_555 1_555
H4_8 C8_8 1_555 1_555
C10_8 C7_8 1_555 1_555
C11_8 C10_8 1_555 1_555
N3_8 C11_8 1_555 1_555
H6_8 N3_8 1_555 1_555
C12_8 N3_8 1_555 1_555
C13_8 C12_8 1_555 1_555
H7_8 C13_8 1_555 1_555
C14_8 C11_8 1_555 1_555
H8_8 C14_8 1_555 1_555
C15_8 C12_8 1_555 1_555
C16_8 C15_8 1_555 1_555
N4_8 C16_8 1_555 1_555
C17_8 N4_8 1_555 1_555
C18_8 C17_8 1_555 1_555
H9_8 C18_8 1_555 1_555
C19_8 C16_8 1_555 1_555
H10_8 C19_8 1_555 1_555
C20_8 C4_8 1_555 1_555
C27_8 C10_8 1_555 1_555
C28_8 C27_8 1_555 1_555
H15_8 C28_8 1_555 1_555
C29_8 C28_8 1_555 1_555
H16_8 C29_8 1_555 1_555
C30_8 S2_8 1_555 1_555
C31_8 C30_8 1_555 1_555
H17_8 C31_8 1_555 1_555
C32_8 C27_8 1_555 1_555
H18_8 C32_8 1_555 1_555
C33_8 C15_8 1_555 1_555
C34_8 C33_8 1_555 1_555
H19_8 C34_8 1_555 1_555
C35_8 C34_8 1_555 1_555
H20_8 C35_8 1_555 1_555
C36_8 S3_8 1_555 1_555
C37_8 C36_8 1_555 1_555
H21_8 C37_8 1_555 1_555
C38_8 C33_8 1_555 1_555
H22_8 C38_8 1_555 1_555
C39_8 C20_8 1_555 1_555
C40_8 C39_8 1_555 1_555
H23_8 C40_8 1_555 1_555
C41_8 C40_8 1_555 1_555
H24_8 C41_8 1_555 1_555
C42_8 S4_8 1_555 1_555
C43_8 C42_8 1_555 1_555
H25_8 C43_8 1_555 1_555
C44_8 C39_8 1_555 1_555
H26_8 C44_8 1_555 1_555
S2_8 O12_8 1_555 1_555
C3_8 C4_8 1_555 1_555
C13_8 C14_8 1_555 1_555
C17_8 C20_8 1_555 1_555
C18_8 C19_8 1_555 1_555
C29_8 C30_8 1_555 1_555
C31_8 C32_8 1_555 1_555
C35_8 C36_8 1_555 1_555
C37_8 C38_8 1_555 1_555
C41_8 C42_8 1_555 1_555
C43_8 C44_8 1_555 1_555
O5_8 H27_8 1_555 1_555
O5_8 H28_8 1_555 1_555
S1_8 O22_3 1_555 1_555
O23_3 S1_8 1_555 1_555
O9_8 S1_8 1_555 1_555
H5_8 C9_8 1_555 1_555
C22_8 C21_8 1_555 1_555
H11_8 C22_8 1_555 1_555
C23_8 C22_8 1_555 1_555
H12_8 C23_8 1_555 1_555
C24_8 S1_8 1_555 1_555
C25_8 C24_8 1_555 1_555
H13_8 C25_8 1_555 1_555
C26_8 C21_8 1_555 1_555
C23_8 C24_8 1_555 1_555
C25_8 C26_8 1_555 1_555

#END
