
###############################################################################
#
# This file contains modified crystal structure data generated from the
# MOF subset of the Cambridge Structural Database (CSD) v543 
# hosted by the Cambridge Crystallographic Data Centre (CCDC).
#
# This work is licensed under the Creative Commons
# Attribution-NonCommercial-ShareAlike 4.0 International License.
# To view a copy of this license, visit
# http://creativecommons.org/licenses/by-nc-sa/4.0/
# or send a letter to
# Creative Commons, PO Box 1866, Mountain View, CA 94042, USA.
#
# CIF created using the CSD Python API on 29 September 2022
# The structure has been converted into the P1 space group
# The structure has a 3D framework
# The original CSD entry DIBQOW is in the orthorhombic crystal system
# The framework has been calculated to contain at least 10.0% void space
# The void calculation uses a probe of radius 1.32A, grid spacing 0.4
# H atom positions have been added when not included in the experimental data
# Generated hydrogen atom positions removed from atoms on special positions
#
###############################################################################

data_DIBQOW
_chemical_formula_moiety         '(C216 H132 Co12 O60)n'
_symmetry_cell_setting           triclinic
_symmetry_space_group_name_H-M   'P 1'
_symmetry_Int_Tables_number      1
_space_group_name_Hall           'P 1'
loop_
_symmetry_equiv_pos_site_id
_symmetry_equiv_pos_as_xyz
1 x,y,z
_cell_length_a                   17.5608(10)
_cell_length_b                   25.3474(17)
_cell_length_c                   20.8804(19)
_cell_angle_alpha                90
_cell_angle_beta                 90
_cell_angle_gamma                90
_cell_volume                     9294.3
loop_
_atom_site_label
_atom_site_type_symbol
_atom_site_fract_x
_atom_site_fract_y
_atom_site_fract_z
C44 C 0.0373(5) 0.0702(3) 0.7474(5)
H24 H 0.0685 0.0695 0.7113
C45 C 0.0443(4) 0.0325(3) 0.7908(5)
H25 H 0.0796 0.0057 0.7840
Co1 Co 0.50386(5) 0.68221(4) 0.06493(6)
Co2 Co 0.61315(6) 0.7500 0.16463(5)
O2 O 0.7044(3) 0.7500 0.2313(3)
O3 O 0.5179(3) 0.7500 0.1057(3)
O4 O 0.4344(4) 0.6239(4) 0.0165(4)
O5 O 0.3802(4) 0.6864(3) 0.0671(4)
C1 C 0.3856(7) 0.6548(6) 0.0285(5)
C2 C 0.2986(5) 0.6267(5) 0.0123(6)
C3 C 0.2375(6) 0.6571(5) 0.0149(7)
H1 H 0.2437 0.6915 0.0296
H2 H 0.1242 0.6642 0.0009
H13 H 0.0171 0.6209 0.0085
Co3 Co 0.50386(5) 0.81779(4) 0.06493(6)
O10 O 0.4344(4) 0.8761(4) 0.0165(4)
O11 O 0.3802(4) 0.8136(3) 0.0671(4)
C28 C 0.3856(7) 0.8452(6) 0.0285(5)
C29 C 0.2986(5) 0.8733(5) 0.0123(6)
C30 C 0.2375(6) 0.8429(5) 0.0149(7)
H16 H 0.2437 0.8085 0.0296
H17 H 0.1242 0.8358 0.0009
H28 H 0.0171 0.8791 0.0085
O16 O 0.6737(2) 0.69374(18) 0.1156(2)
O17 O 0.6737(2) 0.80626(18) 0.1156(2)
O18 O 0.6061(3) 0.6607(3) 0.0348(3)
O19 O 0.6061(3) 0.8393(3) 0.0348(3)
O20 O 0.5633(3) 0.69142(15) 0.2190(2)
O21 O 0.5633(3) 0.80858(15) 0.2190(2)
O22 O 0.5001(3) 0.6421(2) 0.1498(3)
O23 O 0.5001(3) 0.8579(2) 0.1498(3)
O14 O 0.9367(3) 0.19142(15) 0.7190(2)
O15 O 0.9999(3) 0.1421(2) 0.6498(3)
C42 C 0.9740(4) 0.1520(3) 0.7053(4)
C43 C 0.9845(4) 0.1112(3) 0.7541(3)
C46 C 0.9988(3) 0.0317(3) 0.8479(4)
C47 C 0.9450(4) 0.0705(3) 0.8549(4)
H26 H 0.9120 0.0701 0.8897
C48 C 0.9400(4) 0.1111(3) 0.8086(4)
H27 H 0.9057 0.1385 0.8151
Co7 Co 0.99614(5) 0.18221(4) 0.56493(6)
Co10 Co 0.88685(6) 0.2500 0.66463(5)
C8 C 0.6672(4) 0.6696(3) 0.0686(3)
C9 C 0.7386(4) 0.6419(3) 0.0395(4)
C13 C 0.8712(4) 0.6211(3) 0.0499(4)
H7 H 0.9157 0.6224 0.0740
C14 C 0.8061(4) 0.6447(3) 0.0735(4)
H8 H 0.8076 0.6625 0.1124
C35 C 0.6672(4) 0.8304(3) 0.0686(3)
C36 C 0.7386(4) 0.8581(3) 0.0395(4)
C40 C 0.8712(4) 0.8789(3) 0.0499(4)
H22 H 0.9157 0.8776 0.0740
C41 C 0.8061(4) 0.8553(3) 0.0735(4)
H23 H 0.8076 0.8375 0.1124
O8 O 0.9367(3) 0.30858(15) 0.7190(2)
O9 O 0.9999(3) 0.3579(2) 0.6498(3)
C10 C 0.7378(4) 0.6184(3) 0.9820(4)
H5 H 0.6929 0.6166 0.9585
C11 C 0.8043(4) 0.5968(3) 0.9578(4)
H6 H 0.8041 0.5821 0.9170
C12 C 0.8715(3) 0.5966(3) 0.9935(4)
C15 C 0.9740(4) 0.3480(3) 0.7053(4)
C16 C 0.9845(4) 0.3888(3) 0.7541(3)
C19 C 0.9988(3) 0.4683(3) 0.8479(4)
C20 C 0.9450(4) 0.4295(3) 0.8549(4)
H11 H 0.9120 0.4299 0.8897
C21 C 0.9400(4) 0.3889(3) 0.8086(4)
H12 H 0.9057 0.3615 0.8151
C24 C 0.9438(3) 0.5740(3) 0.9632(4)
C25 C 0.9386(3) 0.5324(3) 0.9212(4)
H14 H 0.8911 0.5189 0.9103
C37 C 0.7378(4) 0.8816(3) 0.9820(4)
H20 H 0.6929 0.8834 0.9585
C38 C 0.8043(4) 0.9032(3) 0.9578(4)
H21 H 0.8041 0.9179 0.9170
C39 C 0.8715(3) 0.9034(3) 0.9935(4)
C51 C 0.9438(3) 0.9260(3) 0.9632(4)
C52 C 0.9386(3) 0.9676(3) 0.9212(4)
H29 H 0.8911 0.9811 0.9103
Co5 Co 0.99614(5) 0.31779(4) 0.56493(6)
O4_2 O 0.0656(4) 0.3761(4) 0.5165(4)
O5_2 O 0.1198(4) 0.3136(3) 0.5671(4)
O6 O 0.8263(2) 0.30626(18) 0.6156(2)
O7 O 0.8939(3) 0.3393(3) 0.5348(3)
C1_2 C 0.1144(7) 0.3452(6) 0.5285(5)
C2_2 C 0.2014(5) 0.3733(5) 0.5123(6)
C3_2 C 0.2625(6) 0.3429(5) 0.5149(7)
H1_2 H 0.2563 0.3085 0.5296
C4 C 0.3344(5) 0.3585(4) 0.4974(6)
H2_2 H 0.3758 0.3358 0.5009
C5 C 0.3426(4) 0.4064(4) 0.4756(4)
C6 C 0.2800(5) 0.4400(5) 0.4730(6)
H3 H 0.2858 0.4741 0.4571
C7 C 0.2100(5) 0.4234(7) 0.4936(6)
H4 H 0.1690 0.4466 0.4945
C8_2 C 0.8328(4) 0.3304(3) 0.5686(3)
C9_2 C 0.7614(4) 0.3581(3) 0.5395(4)
C10_2 C 0.7622(4) 0.3816(3) 0.4820(4)
H5_2 H 0.8071 0.3834 0.4585
C11_2 C 0.6957(4) 0.4032(3) 0.4578(4)
H6_2 H 0.6959 0.4179 0.4170
C12_2 C 0.6285(3) 0.4034(3) 0.4935(4)
C13_2 C 0.6288(4) 0.3789(3) 0.5499(4)
H7_2 H 0.5843 0.3776 0.5740
C14_2 C 0.6939(4) 0.3553(3) 0.5735(4)
H8_2 H 0.6924 0.3375 0.6124
C15_2 C 0.5260(4) 0.6520(3) 0.2053(4)
C16_2 C 0.5155(4) 0.6112(3) 0.2541(3)
C17 C 0.4627(5) 0.5702(3) 0.2474(5)
H9 H 0.4315 0.5695 0.2113
C18 C 0.4557(4) 0.5325(3) 0.2908(5)
H10 H 0.4204 0.5057 0.2840
C19_2 C 0.5012(3) 0.5317(3) 0.3479(4)
C20_2 C 0.5550(4) 0.5705(3) 0.3549(4)
H11_2 H 0.5880 0.5701 0.3897
C21_2 C 0.5600(4) 0.6111(3) 0.3086(4)
H12_2 H 0.5943 0.6385 0.3151
C22 C 0.4213(4) 0.4270(3) 0.4551(4)
C23 C 0.4860(4) 0.4069(3) 0.4795(4)
H13_2 H 0.4829 0.3791 0.5085
C24_2 C 0.5562(3) 0.4260(3) 0.4632(4)
C25_2 C 0.5614(3) 0.4676(3) 0.4212(4)
H14_2 H 0.6089 0.4811 0.4103
C26 C 0.4960(3) 0.4895(3) 0.3950(4)
C27 C 0.4251(4) 0.4670(3) 0.4119(4)
H15 H 0.3806 0.4798 0.3934
O10_2 O 0.0656(4) 0.1239(4) 0.5165(4)
O11_2 O 0.1198(4) 0.1864(3) 0.5671(4)
O12 O 0.8263(2) 0.19374(18) 0.6156(2)
O13 O 0.8939(3) 0.1607(3) 0.5348(3)
C28_2 C 0.1144(7) 0.1548(6) 0.5285(5)
C29_2 C 0.2014(5) 0.1267(5) 0.5123(6)
C30_2 C 0.2625(6) 0.1571(5) 0.5149(7)
H16_2 H 0.2563 0.1915 0.5296
C31 C 0.3344(5) 0.1415(4) 0.4974(6)
H17_2 H 0.3758 0.1642 0.5009
C32 C 0.3426(4) 0.0936(4) 0.4756(4)
C33 C 0.2800(5) 0.0600(5) 0.4730(6)
H18 H 0.2858 0.0259 0.4571
C34 C 0.2100(5) 0.0766(7) 0.4936(6)
H19 H 0.1690 0.0534 0.4945
C35_2 C 0.8328(4) 0.1696(3) 0.5686(3)
C36_2 C 0.7614(4) 0.1419(3) 0.5395(4)
C37_2 C 0.7622(4) 0.1184(3) 0.4820(4)
H20_2 H 0.8071 0.1166 0.4585
C38_2 C 0.6957(4) 0.0968(3) 0.4578(4)
H21_2 H 0.6959 0.0821 0.4170
C39_2 C 0.6285(3) 0.0966(3) 0.4935(4)
C40_2 C 0.6288(4) 0.1211(3) 0.5499(4)
H22_2 H 0.5843 0.1224 0.5740
C41_2 C 0.6939(4) 0.1447(3) 0.5735(4)
H23_2 H 0.6924 0.1625 0.6124
C49 C 0.4213(4) 0.0730(3) 0.4551(4)
C50 C 0.4860(4) 0.0931(3) 0.4795(4)
H28_2 H 0.4829 0.1209 0.5085
C51_2 C 0.5562(3) 0.0740(3) 0.4632(4)
C52_2 C 0.5614(3) 0.0324(3) 0.4212(4)
H29_2 H 0.6089 0.0189 0.4103
C53 C 0.4960(3) 0.0105(3) 0.3950(4)
C54 C 0.4251(4) 0.0330(3) 0.4119(4)
H30 H 0.3806 0.0202 0.3934
C42_2 C 0.5260(4) 0.8480(3) 0.2053(4)
C43_2 C 0.5155(4) 0.8888(3) 0.2541(3)
C44_2 C 0.4627(5) 0.9298(3) 0.2474(5)
H24_2 H 0.4315 0.9305 0.2113
C45_2 C 0.4557(4) 0.9675(3) 0.2908(5)
H25_2 H 0.4204 0.9943 0.2840
C46_2 C 0.5012(3) 0.9683(3) 0.3479(4)
C47_2 C 0.5550(4) 0.9295(3) 0.3549(4)
H26_2 H 0.5880 0.9299 0.3897
C48_2 C 0.5600(4) 0.8889(3) 0.3086(4)
H27_2 H 0.5943 0.8615 0.3151
O1 O 0.9867(6) 0.2500 0.4890(8)
O2_2 O 0.7956(3) 0.2500 0.7313(3)
O3_2 O 0.9821(3) 0.2500 0.6057(3)
O1_2 O 0.5133(6) 0.7500 0.9890(8)
C4_2 C 0.1656(5) 0.6415(4) 0.9974(6)
C5_2 C 0.1574(4) 0.5936(4) 0.9756(4)
C6_2 C 0.2200(5) 0.5600(5) 0.9730(6)
H3_2 H 0.2142 0.5259 0.9571
C7_2 C 0.2900(5) 0.5766(7) 0.9936(6)
H4_2 H 0.3310 0.5534 0.9945
C17_2 C 0.0373(5) 0.4298(3) 0.7474(5)
H9_2 H 0.0685 0.4305 0.7113
C18_2 C 0.0443(4) 0.4675(3) 0.7908(5)
H10_2 H 0.0796 0.4943 0.7840
C22_2 C 0.0787(4) 0.5730(3) 0.9551(4)
C23_2 C 0.0140(4) 0.5931(3) 0.9795(4)
C26_2 C 0.0040(3) 0.5105(3) 0.8950(4)
C27_2 C 0.0749(4) 0.5330(3) 0.9119(4)
H15_2 H 0.1194 0.5202 0.8934
C31_2 C 0.1656(5) 0.8585(4) 0.9974(6)
C32_2 C 0.1574(4) 0.9064(4) 0.9756(4)
C33_2 C 0.2200(5) 0.9400(5) 0.9730(6)
H18_2 H 0.2142 0.9741 0.9571
C34_2 C 0.2900(5) 0.9234(7) 0.9936(6)
H19_2 H 0.3310 0.9466 0.9945
C49_2 C 0.0787(4) 0.9270(3) 0.9551(4)
C50_2 C 0.0140(4) 0.9069(3) 0.9795(4)
C53_2 C 0.0040(3) 0.9895(3) 0.8950(4)
C54_2 C 0.0749(4) 0.9670(3) 0.9119(4)
H30_2 H 0.1194 0.9798 0.8934
C10_3 C 0.2622(4) 0.1184(3) 0.0180(4)
H5_3 H 0.3071 0.1166 0.0415
C11_3 C 0.1957(4) 0.0968(3) 0.0422(4)
H6_3 H 0.1959 0.0821 0.0830
C12_3 C 0.1285(3) 0.0966(3) 0.0065(4)
C24_3 C 0.0562(3) 0.0740(3) 0.0368(4)
C25_3 C 0.0614(3) 0.0324(3) 0.0788(4)
H14_3 H 0.1089 0.0189 0.0897
O14_2 O 0.0633(3) 0.69142(15) 0.2810(2)
O15_2 O 0.0001(3) 0.6421(2) 0.3502(3)
C37_3 C 0.2622(4) 0.3816(3) 0.0180(4)
H20_3 H 0.3071 0.3834 0.0415
C38_3 C 0.1957(4) 0.4032(3) 0.0422(4)
H21_3 H 0.1959 0.4179 0.0830
C39_3 C 0.1285(3) 0.4034(3) 0.0065(4)
C42_3 C 0.0260(4) 0.6520(3) 0.2947(4)
C43_3 C 0.0155(4) 0.6112(3) 0.2459(3)
C46_3 C 0.0012(3) 0.5317(3) 0.1521(4)
C47_3 C 0.0550(4) 0.5705(3) 0.1451(4)
H26_3 H 0.0880 0.5701 0.1103
C48_3 C 0.0600(4) 0.6111(3) 0.1914(4)
H27_3 H 0.0943 0.6385 0.1849
C51_3 C 0.0562(3) 0.4260(3) 0.0368(4)
C52_3 C 0.0614(3) 0.4676(3) 0.0788(4)
H29_3 H 0.1089 0.4811 0.0897
Co7_2 Co 0.00386(5) 0.68221(4) 0.43507(6)
Co10_2 Co 0.11315(6) 0.7500 0.33537(5)
O6_2 O 0.3263(2) 0.19374(18) 0.8844(2)
O7_2 O 0.3939(3) 0.1607(3) 0.9652(3)
C8_3 C 0.3328(4) 0.1696(3) 0.9314(3)
C9_3 C 0.2614(4) 0.1419(3) 0.9605(4)
C13_3 C 0.1288(4) 0.1211(3) 0.9501(4)
H7_3 H 0.0843 0.1224 0.9260
C14_3 C 0.1939(4) 0.1447(3) 0.9265(4)
H8_3 H 0.1924 0.1625 0.8876
O12_2 O 0.3263(2) 0.30626(18) 0.8844(2)
O13_2 O 0.3939(3) 0.3393(3) 0.9652(3)
C35_3 C 0.3328(4) 0.3304(3) 0.9314(3)
C36_3 C 0.2614(4) 0.3581(3) 0.9605(4)
C40_3 C 0.1288(4) 0.3789(3) 0.9501(4)
H22_3 H 0.0843 0.3776 0.9260
C41_3 C 0.1939(4) 0.3553(3) 0.9265(4)
H23_3 H 0.1924 0.3375 0.8876
Co4 Co 0.49614(5) 0.18221(4) 0.93507(6)
Co6 Co 0.49614(5) 0.31779(4) 0.93507(6)
Co8 Co 0.38685(6) 0.2500 0.83537(5)
O8_2 O 0.0633(3) 0.80858(15) 0.2810(2)
O9_2 O 0.0001(3) 0.8579(2) 0.3502(3)
C15_3 C 0.0260(4) 0.8480(3) 0.2947(4)
C16_3 C 0.0155(4) 0.8888(3) 0.2459(3)
C19_3 C 0.0012(3) 0.9683(3) 0.1521(4)
C20_3 C 0.0550(4) 0.9295(3) 0.1451(4)
H11_3 H 0.0880 0.9299 0.1103
C21_3 C 0.0600(4) 0.8889(3) 0.1914(4)
H12_3 H 0.0943 0.8615 0.1849
Co5_2 Co 0.00386(5) 0.81779(4) 0.43507(6)
O2_3 O 0.2956(3) 0.2500 0.7687(3)
O3_3 O 0.4821(3) 0.2500 0.8943(3)
O4_3 O 0.5656(4) 0.1239(4) 0.9835(4)
O5_3 O 0.6198(4) 0.1864(3) 0.9329(4)
C1_3 C 0.6144(7) 0.1548(6) 0.9715(5)
C2_3 C 0.7014(5) 0.1267(5) 0.9877(6)
C3_3 C 0.7625(6) 0.1571(5) 0.9851(7)
H1_3 H 0.7563 0.1915 0.9704
H2_3 H 0.8758 0.1642 0.9991
H13_3 H 0.9829 0.1209 0.9915
O10_3 O 0.5656(4) 0.3761(4) 0.9835(4)
O11_3 O 0.6198(4) 0.3136(3) 0.9329(4)
C28_3 C 0.6144(7) 0.3452(6) 0.9715(5)
C29_3 C 0.7014(5) 0.3733(5) 0.9877(6)
C30_3 C 0.7625(6) 0.3429(5) 0.9851(7)
H16_3 H 0.7563 0.3085 0.9704
H17_3 H 0.8758 0.3358 0.9991
H28_3 H 0.9829 0.3791 0.9915
O20_2 O 0.4367(3) 0.19142(15) 0.7810(2)
O21_2 O 0.4367(3) 0.30858(15) 0.7810(2)
O22_2 O 0.4999(3) 0.1421(2) 0.8502(3)
O23_2 O 0.4999(3) 0.3579(2) 0.8502(3)
O1_3 O 0.0133(6) 0.7500 0.5110(8)
O2_4 O 0.2044(3) 0.7500 0.2687(3)
O3_4 O 0.0179(3) 0.7500 0.3943(3)
O16_2 O 0.1737(2) 0.80626(18) 0.3844(2)
O17_2 O 0.1737(2) 0.69374(18) 0.3844(2)
O18_2 O 0.1061(3) 0.8393(3) 0.4652(3)
O19_2 O 0.1061(3) 0.6607(3) 0.4652(3)
C15_4 C 0.4740(4) 0.1520(3) 0.7947(4)
C16_4 C 0.4845(4) 0.1112(3) 0.7459(3)
C17_3 C 0.5373(5) 0.0702(3) 0.7526(5)
H9_3 H 0.5685 0.0695 0.7887
C18_3 C 0.5443(4) 0.0325(3) 0.7092(5)
H10_3 H 0.5796 0.0057 0.7160
C19_4 C 0.4988(3) 0.0317(3) 0.6521(4)
C20_4 C 0.4450(4) 0.0705(3) 0.6451(4)
H11_4 H 0.4120 0.0701 0.6103
C21_4 C 0.4400(4) 0.1111(3) 0.6914(4)
H12_4 H 0.4057 0.1385 0.6849
O4_4 O 0.9344(4) 0.8761(4) 0.4835(4)
O5_4 O 0.8802(4) 0.8136(3) 0.4329(4)
C1_4 C 0.8856(7) 0.8452(6) 0.4715(5)
C2_4 C 0.7986(5) 0.8733(5) 0.4877(6)
C3_4 C 0.7375(6) 0.8429(5) 0.4851(7)
H1_4 H 0.7437 0.8085 0.4704
C4_3 C 0.6656(5) 0.8585(4) 0.5026(6)
H2_4 H 0.6242 0.8358 0.4991
C5_3 C 0.6574(4) 0.9064(4) 0.5244(4)
C6_3 C 0.7200(5) 0.9400(5) 0.5270(6)
H3_3 H 0.7142 0.9741 0.5429
C7_3 C 0.7900(5) 0.9234(7) 0.5064(6)
H4_3 H 0.8310 0.9466 0.5055
C8_4 C 0.1672(4) 0.8304(3) 0.4314(3)
C9_4 C 0.2386(4) 0.8581(3) 0.4605(4)
C10_4 C 0.2378(4) 0.8816(3) 0.5180(4)
H5_4 H 0.1929 0.8834 0.5415
C11_4 C 0.3043(4) 0.9032(3) 0.5422(4)
H6_4 H 0.3041 0.9179 0.5830
C12_4 C 0.3715(3) 0.9034(3) 0.5065(4)
C13_4 C 0.3712(4) 0.8789(3) 0.4501(4)
H7_4 H 0.4157 0.8776 0.4260
C14_4 C 0.3061(4) 0.8553(3) 0.4265(4)
H8_4 H 0.3076 0.8375 0.3876
C22_3 C 0.5787(4) 0.9270(3) 0.5449(4)
C23_3 C 0.5140(4) 0.9069(3) 0.5205(4)
H13_4 H 0.5171 0.8791 0.4915
C24_4 C 0.4438(3) 0.9260(3) 0.5368(4)
C25_4 C 0.4386(3) 0.9676(3) 0.5788(4)
H14_4 H 0.3911 0.9811 0.5897
C26_3 C 0.5040(3) 0.9895(3) 0.6050(4)
C27_3 C 0.5749(4) 0.9670(3) 0.5881(4)
H15_3 H 0.6194 0.9798 0.6066
O10_4 O 0.9344(4) 0.6239(4) 0.4835(4)
O11_4 O 0.8802(4) 0.6864(3) 0.4329(4)
C28_4 C 0.8856(7) 0.6548(6) 0.4715(5)
C29_4 C 0.7986(5) 0.6267(5) 0.4877(6)
C30_4 C 0.7375(6) 0.6571(5) 0.4851(7)
H16_4 H 0.7437 0.6915 0.4704
C31_3 C 0.6656(5) 0.6415(4) 0.5026(6)
H17_4 H 0.6242 0.6642 0.4991
C32_3 C 0.6574(4) 0.5936(4) 0.5244(4)
C33_3 C 0.7200(5) 0.5600(5) 0.5270(6)
H18_3 H 0.7142 0.5259 0.5429
C34_3 C 0.7900(5) 0.5766(7) 0.5064(6)
H19_3 H 0.8310 0.5534 0.5055
C35_4 C 0.1672(4) 0.6696(3) 0.4314(3)
C36_4 C 0.2386(4) 0.6419(3) 0.4605(4)
C37_4 C 0.2378(4) 0.6184(3) 0.5180(4)
H20_4 H 0.1929 0.6166 0.5415
C38_4 C 0.3043(4) 0.5968(3) 0.5422(4)
H21_4 H 0.3041 0.5821 0.5830
C39_4 C 0.3715(3) 0.5966(3) 0.5065(4)
C40_4 C 0.3712(4) 0.6211(3) 0.4501(4)
H22_4 H 0.4157 0.6224 0.4260
C41_4 C 0.3061(4) 0.6447(3) 0.4265(4)
H23_4 H 0.3076 0.6625 0.3876
C42_4 C 0.4740(4) 0.3480(3) 0.7947(4)
C43_4 C 0.4845(4) 0.3888(3) 0.7459(3)
C44_3 C 0.5373(5) 0.4298(3) 0.7526(5)
H24_3 H 0.5685 0.4305 0.7887
C45_3 C 0.5443(4) 0.4675(3) 0.7092(5)
H25_3 H 0.5796 0.4943 0.7160
C46_4 C 0.4988(3) 0.4683(3) 0.6521(4)
C47_4 C 0.4450(4) 0.4295(3) 0.6451(4)
H26_4 H 0.4120 0.4299 0.6103
C48_4 C 0.4400(4) 0.3889(3) 0.6914(4)
H27_4 H 0.4057 0.3615 0.6849
C49_3 C 0.5787(4) 0.5730(3) 0.5449(4)
C50_3 C 0.5140(4) 0.5931(3) 0.5205(4)
H28_4 H 0.5171 0.6209 0.4915
C51_4 C 0.4438(3) 0.5740(3) 0.5368(4)
C52_4 C 0.4386(3) 0.5324(3) 0.5788(4)
H29_4 H 0.3911 0.5189 0.5897
C53_3 C 0.5040(3) 0.5105(3) 0.6050(4)
C54_3 C 0.5749(4) 0.5330(3) 0.5881(4)
H30_3 H 0.6194 0.5202 0.6066
O1_4 O 0.4867(6) 0.2500 0.0110(8)
C4_4 C 0.8344(5) 0.1415(4) 0.0026(6)
C5_4 C 0.8426(4) 0.0936(4) 0.0244(4)
C6_4 C 0.7800(5) 0.0600(5) 0.0270(6)
H3_4 H 0.7858 0.0259 0.0429
C7_4 C 0.7100(5) 0.0766(7) 0.0064(6)
H4_4 H 0.6690 0.0534 0.0055
C22_4 C 0.9213(4) 0.0730(3) 0.0449(4)
C23_4 C 0.9860(4) 0.0931(3) 0.0205(4)
C26_4 C 0.9960(3) 0.0105(3) 0.1050(4)
C27_4 C 0.9251(4) 0.0330(3) 0.0881(4)
H15_4 H 0.8806 0.0202 0.1066
C31_4 C 0.8344(5) 0.3585(4) 0.0026(6)
C32_4 C 0.8426(4) 0.4064(4) 0.0244(4)
C33_4 C 0.7800(5) 0.4400(5) 0.0270(6)
H18_4 H 0.7858 0.4741 0.0429
C34_4 C 0.7100(5) 0.4234(7) 0.0064(6)
H19_4 H 0.6690 0.4466 0.0055
C44_4 C 0.9627(5) 0.5702(3) 0.2526(5)
H24_4 H 0.9315 0.5695 0.2887
C45_4 C 0.9557(4) 0.5325(3) 0.2092(5)
H25_4 H 0.9204 0.5057 0.2160
C49_4 C 0.9213(4) 0.4270(3) 0.0449(4)
C50_4 C 0.9860(4) 0.4069(3) 0.0205(4)
C53_4 C 0.9960(3) 0.4895(3) 0.1050(4)
C54_4 C 0.9251(4) 0.4670(3) 0.0881(4)
H30_4 H 0.8806 0.4798 0.1066
C17_4 C 0.9627(5) 0.9298(3) 0.2526(5)
H9_4 H 0.9315 0.9305 0.2887
C18_4 C 0.9557(4) 0.9675(3) 0.2092(5)
H10_4 H 0.9204 0.9943 0.2160
loop_
_geom_bond_atom_site_label_1
_geom_bond_atom_site_label_2
_geom_bond_site_symmetry_1
_geom_bond_site_symmetry_2
C44 H24 1_555 1_555
C45 C44 1_555 1_555
H25 C45 1_555 1_555
Co2 O2 1_555 1_555
O3 Co1 1_555 1_555
O4 Co1 1_555 1_555
O5 Co1 1_555 1_555
C1 O4 1_555 1_555
C2 C1 1_555 1_555
C3 C2 1_555 1_555
H1 C3 1_555 1_555
Co3 O3 1_555 1_555
O10 Co3 1_555 1_555
O11 Co3 1_555 1_555
C28 O10 1_555 1_555
C29 C28 1_555 1_555
C30 C29 1_555 1_555
H16 C30 1_555 1_555
O16 Co2 1_555 1_555
O17 Co2 1_555 1_555
O18 Co1 1_555 1_555
O19 Co3 1_555 1_555
O20 Co2 1_555 1_555
O21 Co2 1_555 1_555
O22 Co1 1_555 1_555
O23 Co3 1_555 1_555
Co2 O3 1_555 1_555
O5 C1 1_555 1_555
O11 C28 1_555 1_555
O14 C42 1_555 1_555
O15 C42 1_555 1_555
C42 C43 1_555 1_555
C47 C46 1_555 1_555
H26 C47 1_555 1_555
C48 C43 1_555 1_555
H27 C48 1_555 1_555
Co7 O15 1_555 1_555
Co10 O14 1_555 1_555
C47 C48 1_555 1_555
O16 C8 1_555 1_555
O18 C8 1_555 1_555
C8 C9 1_555 1_555
H7 C13 1_555 1_555
C14 C9 1_555 1_555
H8 C14 1_555 1_555
O17 C35 1_555 1_555
O19 C35 1_555 1_555
C35 C36 1_555 1_555
H22 C40 1_555 1_555
C41 C36 1_555 1_555
H23 C41 1_555 1_555
C13 C14 1_555 1_555
C40 C41 1_555 1_555
O8 C15 1_555 1_555
O9 C15 1_555 1_555
C10 H5 1_555 1_555
C11 C10 1_555 1_555
H6 C11 1_555 1_555
C12 C11 1_555 1_555
C15 C16 1_555 1_555
C20 C19 1_555 1_555
H11 C20 1_555 1_555
C21 C16 1_555 1_555
H12 C21 1_555 1_555
C24 C12 1_555 1_555
C25 C24 1_555 1_555
H14 C25 1_555 1_555
C37 H20 1_555 1_555
C38 C37 1_555 1_555
H21 C38 1_555 1_555
C39 C38 1_555 1_555
C51 C39 1_555 1_555
C52 C51 1_555 1_555
H29 C52 1_555 1_555
Co5 O9 1_555 1_555
Co10 O8 1_555 1_555
C20 C21 1_555 1_555
O6 C8_2 1_555 1_555
O7 C8_2 1_555 1_555
O20 C15_2 1_555 1_555
O22 C15_2 1_555 1_555
C1_2 O4_2 1_555 1_555
C2_2 C1_2 1_555 1_555
C3_2 C2_2 1_555 1_555
H1_2 C3_2 1_555 1_555
C4 C3_2 1_555 1_555
H2_2 C4 1_555 1_555
C5 C4 1_555 1_555
C6 C5 1_555 1_555
H3 C6 1_555 1_555
C7 C2_2 1_555 1_555
H4 C7 1_555 1_555
C8_2 C9_2 1_555 1_555
C9_2 C10_2 1_555 1_555
C10_2 H5_2 1_555 1_555
C11_2 C10_2 1_555 1_555
H6_2 C11_2 1_555 1_555
C12_2 C11_2 1_555 1_555
C13_2 C12_2 1_555 1_555
H7_2 C13_2 1_555 1_555
C14_2 C9_2 1_555 1_555
H8_2 C14_2 1_555 1_555
C15_2 C16_2 1_555 1_555
C16_2 C17 1_555 1_555
C17 H9 1_555 1_555
C18 C17 1_555 1_555
H10 C18 1_555 1_555
C19_2 C18 1_555 1_555
C20_2 C19_2 1_555 1_555
H11_2 C20_2 1_555 1_555
C21_2 C16_2 1_555 1_555
H12_2 C21_2 1_555 1_555
C22 C5 1_555 1_555
C23 C22 1_555 1_555
H13_2 C23 1_555 1_555
C24_2 C12_2 1_555 1_555
C25_2 C24_2 1_555 1_555
H14_2 C25_2 1_555 1_555
C26 C19_2 1_555 1_555
C27 C22 1_555 1_555
H15 C27 1_555 1_555
O12 C35_2 1_555 1_555
O13 C35_2 1_555 1_555
C28_2 O10_2 1_555 1_555
C29_2 C28_2 1_555 1_555
C30_2 C29_2 1_555 1_555
H16_2 C30_2 1_555 1_555
C31 C30_2 1_555 1_555
H17_2 C31 1_555 1_555
C32 C31 1_555 1_555
C33 C32 1_555 1_555
H18 C33 1_555 1_555
C34 C29_2 1_555 1_555
H19 C34 1_555 1_555
C35_2 C36_2 1_555 1_555
C36_2 C37_2 1_555 1_555
C37_2 H20_2 1_555 1_555
C38_2 C37_2 1_555 1_555
H21_2 C38_2 1_555 1_555
C39_2 C38_2 1_555 1_555
C40_2 C39_2 1_555 1_555
H22_2 C40_2 1_555 1_555
C41_2 C36_2 1_555 1_555
H23_2 C41_2 1_555 1_555
C49 C32 1_555 1_555
C50 C49 1_555 1_555
H28_2 C50 1_555 1_555
C51_2 C39_2 1_555 1_555
C52_2 C51_2 1_555 1_555
H29_2 C52_2 1_555 1_555
C54 C49 1_555 1_555
H30 C54 1_555 1_555
Co5 O7 1_555 1_555
Co7 O13 1_555 1_555
Co10 O6 1_555 1_555
O5_2 C1_2 1_555 1_555
C6 C7 1_555 1_555
C13_2 C14_2 1_555 1_555
C20_2 C21_2 1_555 1_555
C23 C24_2 1_555 1_555
C25_2 C26 1_555 1_555
C26 C27 1_555 1_555
O11_2 C28_2 1_555 1_555
O12 Co10 1_555 1_555
C33 C34 1_555 1_555
C40_2 C41_2 1_555 1_555
C50 C51_2 1_555 1_555
C52_2 C53 1_555 1_555
C53 C54 1_555 1_555
O21 C42_2 1_555 1_555
O23 C42_2 1_555 1_555
C42_2 C43_2 1_555 1_555
C43_2 C44_2 1_555 1_555
C44_2 H24_2 1_555 1_555
C45_2 C44_2 1_555 1_555
H25_2 C45_2 1_555 1_555
C46_2 C45_2 1_555 1_555
C47_2 C46_2 1_555 1_555
H26_2 C47_2 1_555 1_555
C48_2 C43_2 1_555 1_555
H27_2 C48_2 1_555 1_555
C47_2 C48_2 1_555 1_555
Co5 O1 1_555 1_555
Co10 O2_2 1_555 1_555
O1 Co7 1_555 1_555
O3_2 Co5 1_555 1_555
Co7 O3_2 1_555 1_555
Co10 O3_2 1_555 1_555
C5_2 C4_2 1_555 1_555
C6_2 C5_2 1_555 1_555
H3_2 C6_2 1_555 1_555
H4_2 C7_2 1_555 1_555
C17_2 H9_2 1_555 1_555
C18_2 C17_2 1_555 1_555
H10_2 C18_2 1_555 1_555
C22_2 C5_2 1_555 1_555
C23_2 C22_2 1_555 1_555
C27_2 C22_2 1_555 1_555
H15_2 C27_2 1_555 1_555
C32_2 C31_2 1_555 1_555
C33_2 C32_2 1_555 1_555
H18_2 C33_2 1_555 1_555
H19_2 C34_2 1_555 1_555
C49_2 C32_2 1_555 1_555
C50_2 C49_2 1_555 1_555
C54_2 C49_2 1_555 1_555
H30_2 C54_2 1_555 1_555
C6_2 C7_2 1_555 1_555
C26_2 C27_2 1_555 1_555
C33_2 C34_2 1_555 1_555
C53_2 C54_2 1_555 1_555
C10_3 H5_3 1_555 1_555
C11_3 C10_3 1_555 1_555
H6_3 C11_3 1_555 1_555
C12_3 C11_3 1_555 1_555
C24_3 C12_3 1_555 1_555
C25_3 C24_3 1_555 1_555
H14_3 C25_3 1_555 1_555
O14_2 C42_3 1_555 1_555
O15_2 C42_3 1_555 1_555
C37_3 H20_3 1_555 1_555
C38_3 C37_3 1_555 1_555
H21_3 C38_3 1_555 1_555
C39_3 C38_3 1_555 1_555
C42_3 C43_3 1_555 1_555
C47_3 C46_3 1_555 1_555
H26_3 C47_3 1_555 1_555
C48_3 C43_3 1_555 1_555
H27_3 C48_3 1_555 1_555
C51_3 C39_3 1_555 1_555
C52_3 C51_3 1_555 1_555
H29_3 C52_3 1_555 1_555
Co7_2 O15_2 1_555 1_555
Co10_2 O14_2 1_555 1_555
C47_3 C48_3 1_555 1_555
O6_2 C8_3 1_555 1_555
O7_2 C8_3 1_555 1_555
C8_3 C9_3 1_555 1_555
H7_3 C13_3 1_555 1_555
C14_3 C9_3 1_555 1_555
H8_3 C14_3 1_555 1_555
O12_2 C35_3 1_555 1_555
O13_2 C35_3 1_555 1_555
C35_3 C36_3 1_555 1_555
H22_3 C40_3 1_555 1_555
C41_3 C36_3 1_555 1_555
H23_3 C41_3 1_555 1_555
Co4 O7_2 1_555 1_555
Co6 O13_2 1_555 1_555
Co8 O6_2 1_555 1_555
C13_3 C14_3 1_555 1_555
O12_2 Co8 1_555 1_555
C40_3 C41_3 1_555 1_555
O8_2 C15_3 1_555 1_555
O9_2 C15_3 1_555 1_555
C15_3 C16_3 1_555 1_555
C20_3 C19_3 1_555 1_555
H11_3 C20_3 1_555 1_555
C21_3 C16_3 1_555 1_555
H12_3 C21_3 1_555 1_555
Co5_2 O9_2 1_555 1_555
Co10_2 O8_2 1_555 1_555
C20_3 C21_3 1_555 1_555
Co8 O2_3 1_555 1_555
O3_3 Co4 1_555 1_555
O4_3 Co4 1_555 1_555
O5_3 Co4 1_555 1_555
C1_3 O4_3 1_555 1_555
C2_3 C1_3 1_555 1_555
C3_3 C2_3 1_555 1_555
H1_3 C3_3 1_555 1_555
Co6 O3_3 1_555 1_555
O10_3 Co6 1_555 1_555
O11_3 Co6 1_555 1_555
C28_3 O10_3 1_555 1_555
C29_3 C28_3 1_555 1_555
C30_3 C29_3 1_555 1_555
H16_3 C30_3 1_555 1_555
O20_2 Co8 1_555 1_555
O21_2 Co8 1_555 1_555
O22_2 Co4 1_555 1_555
O23_2 Co6 1_555 1_555
Co8 O3_3 1_555 1_555
O5_3 C1_3 1_555 1_555
O11_3 C28_3 1_555 1_555
Co5_2 O1_3 1_555 1_555
Co10_2 O2_4 1_555 1_555
O1_3 Co7_2 1_555 1_555
O3_4 Co5_2 1_555 1_555
Co7_2 O3_4 1_555 1_555
O16_2 Co10_2 1_555 1_555
O17_2 Co10_2 1_555 1_555
O18_2 Co5_2 1_555 1_555
O19_2 Co7_2 1_555 1_555
Co10_2 O3_4 1_555 1_555
O20_2 C15_4 1_555 1_555
O22_2 C15_4 1_555 1_555
C15_4 C16_4 1_555 1_555
C16_4 C17_3 1_555 1_555
C17_3 H9_3 1_555 1_555
C18_3 C17_3 1_555 1_555
H10_3 C18_3 1_555 1_555
C19_4 C18_3 1_555 1_555
C20_4 C19_4 1_555 1_555
H11_4 C20_4 1_555 1_555
C21_4 C16_4 1_555 1_555
H12_4 C21_4 1_555 1_555
C20_4 C21_4 1_555 1_555
O16_2 C8_4 1_555 1_555
O18_2 C8_4 1_555 1_555
C1_4 O4_4 1_555 1_555
C2_4 C1_4 1_555 1_555
C3_4 C2_4 1_555 1_555
H1_4 C3_4 1_555 1_555
C4_3 C3_4 1_555 1_555
H2_4 C4_3 1_555 1_555
C5_3 C4_3 1_555 1_555
C6_3 C5_3 1_555 1_555
H3_3 C6_3 1_555 1_555
C7_3 C2_4 1_555 1_555
H4_3 C7_3 1_555 1_555
C8_4 C9_4 1_555 1_555
C9_4 C10_4 1_555 1_555
C10_4 H5_4 1_555 1_555
C11_4 C10_4 1_555 1_555
H6_4 C11_4 1_555 1_555
C12_4 C11_4 1_555 1_555
C13_4 C12_4 1_555 1_555
H7_4 C13_4 1_555 1_555
C14_4 C9_4 1_555 1_555
H8_4 C14_4 1_555 1_555
C22_3 C5_3 1_555 1_555
C23_3 C22_3 1_555 1_555
H13_4 C23_3 1_555 1_555
C24_4 C12_4 1_555 1_555
C25_4 C24_4 1_555 1_555
H14_4 C25_4 1_555 1_555
C27_3 C22_3 1_555 1_555
H15_3 C27_3 1_555 1_555
O17_2 C35_4 1_555 1_555
O19_2 C35_4 1_555 1_555
O21_2 C42_4 1_555 1_555
O23_2 C42_4 1_555 1_555
C28_4 O10_4 1_555 1_555
C29_4 C28_4 1_555 1_555
C30_4 C29_4 1_555 1_555
H16_4 C30_4 1_555 1_555
C31_3 C30_4 1_555 1_555
H17_4 C31_3 1_555 1_555
C32_3 C31_3 1_555 1_555
C33_3 C32_3 1_555 1_555
H18_3 C33_3 1_555 1_555
C34_3 C29_4 1_555 1_555
H19_3 C34_3 1_555 1_555
C35_4 C36_4 1_555 1_555
C36_4 C37_4 1_555 1_555
C37_4 H20_4 1_555 1_555
C38_4 C37_4 1_555 1_555
H21_4 C38_4 1_555 1_555
C39_4 C38_4 1_555 1_555
C40_4 C39_4 1_555 1_555
H22_4 C40_4 1_555 1_555
C41_4 C36_4 1_555 1_555
H23_4 C41_4 1_555 1_555
C42_4 C43_4 1_555 1_555
C43_4 C44_3 1_555 1_555
C44_3 H24_3 1_555 1_555
C45_3 C44_3 1_555 1_555
H25_3 C45_3 1_555 1_555
C46_4 C45_3 1_555 1_555
C47_4 C46_4 1_555 1_555
H26_4 C47_4 1_555 1_555
C48_4 C43_4 1_555 1_555
H27_4 C48_4 1_555 1_555
C49_3 C32_3 1_555 1_555
C50_3 C49_3 1_555 1_555
H28_4 C50_3 1_555 1_555
C51_4 C39_4 1_555 1_555
C52_4 C51_4 1_555 1_555
H29_4 C52_4 1_555 1_555
C53_3 C46_4 1_555 1_555
C54_3 C49_3 1_555 1_555
H30_3 C54_3 1_555 1_555
O5_4 C1_4 1_555 1_555
C6_3 C7_3 1_555 1_555
C13_4 C14_4 1_555 1_555
C23_3 C24_4 1_555 1_555
C25_4 C26_3 1_555 1_555
C26_3 C27_3 1_555 1_555
O11_4 C28_4 1_555 1_555
C33_3 C34_3 1_555 1_555
C40_4 C41_4 1_555 1_555
C47_4 C48_4 1_555 1_555
C50_3 C51_4 1_555 1_555
C52_4 C53_3 1_555 1_555
C53_3 C54_3 1_555 1_555
C5_4 C4_4 1_555 1_555
C6_4 C5_4 1_555 1_555
H3_4 C6_4 1_555 1_555
H4_4 C7_4 1_555 1_555
C22_4 C5_4 1_555 1_555
C23_4 C22_4 1_555 1_555
C27_4 C22_4 1_555 1_555
H15_4 C27_4 1_555 1_555
C32_4 C31_4 1_555 1_555
C33_4 C32_4 1_555 1_555
H18_4 C33_4 1_555 1_555
H19_4 C34_4 1_555 1_555
C44_4 H24_4 1_555 1_555
C45_4 C44_4 1_555 1_555
H25_4 C45_4 1_555 1_555
C49_4 C32_4 1_555 1_555
C50_4 C49_4 1_555 1_555
C54_4 C49_4 1_555 1_555
H30_4 C54_4 1_555 1_555
C6_4 C7_4 1_555 1_555
C26_4 C27_4 1_555 1_555
C33_4 C34_4 1_555 1_555
C53_4 C54_4 1_555 1_555
C17_4 H9_4 1_555 1_555
C18_4 C17_4 1_555 1_555
H10_4 C18_4 1_555 1_555

#END
