
###############################################################################
#
# This file contains modified crystal structure data generated from the
# MOF subset of the Cambridge Structural Database (CSD) v543 
# hosted by the Cambridge Crystallographic Data Centre (CCDC).
#
# This work is licensed under the Creative Commons
# Attribution-NonCommercial-ShareAlike 4.0 International License.
# To view a copy of this license, visit
# http://creativecommons.org/licenses/by-nc-sa/4.0/
# or send a letter to
# Creative Commons, PO Box 1866, Mountain View, CA 94042, USA.
#
# CIF created using the CSD Python API on 29 September 2022
# The structure has been converted into the P1 space group
# The structure has a 3D framework
# The original CSD entry DIBQEM is in the cubic crystal system
# The framework has been calculated to contain at least 10.0% void space
# The void calculation uses a probe of radius 1.32A, grid spacing 0.4
# H atom positions have been added when not included in the experimental data
# Generated hydrogen atom positions removed from atoms on special positions
#
###############################################################################

data_DIBQEM
_chemical_formula_moiety         '(C432 H336 Co49 O170)n'
_symmetry_cell_setting           triclinic
_symmetry_space_group_name_H-M   'P 1'
_symmetry_Int_Tables_number      1
_space_group_name_Hall           'P 1'
loop_
_symmetry_equiv_pos_site_id
_symmetry_equiv_pos_as_xyz
1 x,y,z
_cell_length_a                   27.24960(10)
_cell_length_b                   27.24960(10)
_cell_length_c                   27.24960(10)
_cell_angle_alpha                90
_cell_angle_beta                 90
_cell_angle_gamma                90
_cell_volume                     20233.9
loop_
_atom_site_label
_atom_site_type_symbol
_atom_site_fract_x
_atom_site_fract_y
_atom_site_fract_z
Co20 Co -0.0000 0.5000 0.83160(9)
Co1 Co 0.5000 0.05552(12) 0.05463(12)
Co2 Co 0.5000 0.16840(9) 0.0000
O1 O 0.4383(3) 0.0925(2) 0.0777(3)
O2 O 0.4468(2) 0.1706(2) 0.0529(2)
O3 O 0.5000 0.0905(4) 0.0000
O4 O 0.4468(4) -0.0000 0.0319(4)
O5 O 0.5000 -0.0000 0.1104(5)
O6 O 0.5000 0.2460(5) 0.0000
C1 C 0.4268(4) 0.1387(4) 0.0756(4)
C2 C 0.3810(4) 0.1532(3) 0.1062(4)
C3 C 0.3522(4) 0.1178(4) 0.1312(4)
H1 H 0.3618 0.0850 0.1317
C4 C 0.3114(4) 0.1318(3) 0.1539(4)
H2 H 0.2904 0.1081 0.1666
C5 C 0.2994(3) 0.1824(3) 0.1592(4)
C6 C 0.3295(3) 0.2173(3) 0.1382(3)
H3 H 0.3231 0.2505 0.1427
C7 C 0.3693(4) 0.2027(3) 0.1104(4)
H4 H 0.3884 0.2260 0.0945
C8 C 0.2535(4) 0.1981(3) 0.1857(4)
C9 C 0.2384(3) 0.1716(3) 0.2279(3)
H5 H 0.2563 0.1444 0.2381
O7 O 0.0777(3) 0.4383(3) 0.0925(2)
O8 O 0.0529(2) 0.4468(2) 0.1706(2)
C10 C 0.0756(4) 0.4268(4) 0.1387(4)
C11 C 0.1062(4) 0.3810(4) 0.1532(3)
C12 C 0.1312(4) 0.3522(4) 0.1178(4)
H6 H 0.1317 0.3618 0.0850
C13 C 0.1539(4) 0.3114(4) 0.1318(3)
H7 H 0.1666 0.2904 0.1081
C14 C 0.1592(4) 0.2994(3) 0.1824(3)
C15 C 0.1382(3) 0.3295(3) 0.2173(3)
H8 H 0.1427 0.3231 0.2505
C16 C 0.1104(4) 0.3693(4) 0.2027(3)
H9 H 0.0945 0.3884 0.2260
C17 C 0.1857(4) 0.2535(4) 0.1981(3)
C18 C 0.2279(3) 0.2384(3) 0.1716(3)
H10 H 0.2381 0.2563 0.1444
O9 O 0.0925(2) 0.0777(3) 0.4383(3)
O10 O 0.1706(2) 0.0529(2) 0.4468(2)
C19 C 0.1387(4) 0.0756(4) 0.4268(4)
C20 C 0.1532(3) 0.1062(4) 0.3810(4)
C21 C 0.1178(4) 0.1312(4) 0.3522(4)
H11 H 0.0850 0.1317 0.3618
C22 C 0.1318(3) 0.1539(4) 0.3114(4)
H12 H 0.1081 0.1666 0.2904
C23 C 0.1824(3) 0.1592(4) 0.2994(3)
C24 C 0.2173(3) 0.1382(3) 0.3295(3)
H13 H 0.2505 0.1427 0.3231
C25 C 0.2027(3) 0.1104(4) 0.3693(4)
H14 H 0.2260 0.0945 0.3884
C26 C 0.1981(3) 0.1857(4) 0.2535(4)
C27 C 0.1716(3) 0.2279(3) 0.2384(3)
H15 H 0.1444 0.2381 0.2563
O12 O 0.5532(4) -0.0000 0.0319(4)
Co7 Co 0.05463(12) 0.5000 0.05552(12)
Co8 Co -0.0000 0.5000 0.16840(9)
O23 O -0.0000 0.5000 0.0905(4)
O24 O 0.0319(4) 0.4468(4) 0.0000
O25 O 0.1104(5) 0.5000 0.0000
O26 O -0.0000 0.5000 0.2460(5)
Co9 Co 0.05552(12) 0.05463(12) 0.5000
O27 O -0.0000 0.0319(4) 0.4468(4)
Co22 Co 0.16840(9) -0.0000 0.5000
O43 O 0.5617(3) 0.0925(2) 0.0777(3)
O44 O 0.0777(3) 0.5617(3) 0.0925(2)
O45 O 0.0925(2) 0.0777(3) 0.5617(3)
O50 O 0.5532(2) 0.1706(2) 0.0529(2)
O52 O 0.0529(2) 0.5532(2) 0.1706(2)
O53 O 0.0905(4) -0.0000 0.5000
O54 O 0.0319(4) 0.5532(4) 0.0000
O55 O -0.0000 0.0319(4) 0.5532(4)
O56 O -0.0000 0.1104(5) 0.5000
Co2_2 Co 0.5000 0.16840(9) 1.0000
O3_2 O 0.5000 0.0905(4) 1.0000
O6_2 O 0.5000 0.2460(5) 1.0000
Co5 Co 0.5000 0.05552(12) 0.94537(12)
O14 O 0.5532(4) -0.0000 0.9681(4)
O15 O 0.5000 -0.0000 0.8896(5)
O18 O 0.4468(4) -0.0000 0.9681(4)
O24_2 O 0.0319(4) 0.4468(4) 1.0000
O25_2 O 0.1104(5) 0.5000 1.0000
O34 O 0.4383(3) 0.0925(2) 0.9223(3)
O35 O 0.4468(2) 0.1706(2) 0.9471(2)
C82 C 0.4268(4) 0.1387(4) 0.9244(4)
C83 C 0.3810(4) 0.1532(3) 0.8938(4)
C84 C 0.3522(4) 0.1178(4) 0.8688(4)
H46 H 0.3618 0.0850 0.8683
C85 C 0.3114(4) 0.1318(3) 0.8461(4)
H47 H 0.2904 0.1081 0.8334
C86 C 0.2994(3) 0.1824(3) 0.8408(4)
C87 C 0.3295(3) 0.2173(3) 0.8618(3)
H48 H 0.3231 0.2505 0.8573
C88 C 0.3693(4) 0.2027(3) 0.8896(4)
H49 H 0.3884 0.2260 0.9055
C89 C 0.2535(4) 0.1981(3) 0.8143(4)
C90 C 0.2384(3) 0.1716(3) 0.7721(3)
H50 H 0.2563 0.1444 0.7619
O36 O 0.0777(3) 0.4383(3) 0.9075(2)
O37 O 0.0529(2) 0.4468(2) 0.8294(2)
C91 C 0.0756(4) 0.4268(4) 0.8613(4)
C92 C 0.1062(4) 0.3810(4) 0.8468(3)
C93 C 0.1312(4) 0.3522(4) 0.8822(4)
H51 H 0.1317 0.3618 0.9150
C94 C 0.1539(4) 0.3114(4) 0.8682(3)
H52 H 0.1666 0.2904 0.8919
C95 C 0.1592(4) 0.2994(3) 0.8176(3)
C96 C 0.1382(3) 0.3295(3) 0.7827(3)
H53 H 0.1427 0.3231 0.7495
C97 C 0.1104(4) 0.3693(4) 0.7973(3)
H54 H 0.0945 0.3884 0.7740
C98 C 0.1857(4) 0.2535(4) 0.8019(3)
C99 C 0.2279(3) 0.2384(3) 0.8284(3)
H55 H 0.2381 0.2563 0.8556
O39 O 0.1706(2) 0.0529(2) 0.5532(2)
C100 C 0.1387(4) 0.0756(4) 0.5732(4)
C101 C 0.1532(3) 0.1062(4) 0.6190(4)
C102 C 0.1178(4) 0.1312(4) 0.6478(4)
H56 H 0.0850 0.1317 0.6382
C103 C 0.1318(3) 0.1539(4) 0.6886(4)
H57 H 0.1081 0.1666 0.7096
C104 C 0.1824(3) 0.1592(4) 0.7006(3)
C105 C 0.2173(3) 0.1382(3) 0.6705(3)
H58 H 0.2505 0.1427 0.6769
C106 C 0.2027(3) 0.1104(4) 0.6307(4)
H59 H 0.2260 0.0945 0.6116
C107 C 0.1981(3) 0.1857(4) 0.7465(4)
C108 C 0.1716(3) 0.2279(3) 0.7616(3)
H60 H 0.1444 0.2381 0.7437
Co11 Co 0.05463(12) 0.5000 0.94448(12)
Co23 Co 0.83160(9) 0.0000 0.5000
O41 O 0.5617(3) 0.0925(2) 0.9223(3)
O47 O 0.5532(2) 0.1706(2) 0.9471(2)
O54_2 O 0.0319(4) 0.5532(4) 1.0000
O4_2 O 0.4468(4) 1.0000 0.0319(4)
O5_2 O 0.5000 1.0000 0.1104(5)
Co3 Co 0.5000 0.94448(12) 0.05463(12)
Co4 Co 0.5000 0.83160(9) 0.0000
O11 O 0.5000 0.9095(4) 0.0000
O12_2 O 0.5532(4) 1.0000 0.0319(4)
O13 O 0.5000 0.7540(5) 0.0000
Co22_2 Co 0.16840(9) 1.0000 0.5000
O40 O 0.5617(3) 0.9075(2) 0.0777(3)
O42 O 0.4383(3) 0.9075(2) 0.0777(3)
O46 O 0.5532(2) 0.8294(2) 0.0529(2)
O49 O 0.4468(2) 0.8294(2) 0.0529(2)
O53_2 O 0.0905(4) 1.0000 0.5000
Co4_2 Co 0.5000 0.83160(9) 1.0000
O11_2 O 0.5000 0.9095(4) 1.0000
O13_2 O 0.5000 0.7540(5) 1.0000
O14_2 O 0.5532(4) 1.0000 0.9681(4)
O15_2 O 0.5000 1.0000 0.8896(5)
Co6 Co 0.5000 0.94448(12) 0.94537(12)
O16 O 0.4383(3) 0.9075(2) 0.9223(3)
O17 O 0.4468(2) 0.8294(2) 0.9471(2)
O18_2 O 0.4468(4) 1.0000 0.9681(4)
C28 C 0.4268(4) 0.8613(4) 0.9244(4)
C29 C 0.3810(4) 0.8468(3) 0.8938(4)
C30 C 0.3522(4) 0.8822(4) 0.8688(4)
H16 H 0.3618 0.9150 0.8683
C31 C 0.3114(4) 0.8682(3) 0.8461(4)
H17 H 0.2904 0.8919 0.8334
C32 C 0.2994(3) 0.8176(3) 0.8408(4)
C33 C 0.3295(3) 0.7827(3) 0.8618(3)
H18 H 0.3231 0.7495 0.8573
C34 C 0.3693(4) 0.7973(3) 0.8896(4)
H19 H 0.3884 0.7740 0.9055
C35 C 0.2535(4) 0.8019(3) 0.8143(4)
C36 C 0.2384(3) 0.8284(3) 0.7721(3)
H20 H 0.2563 0.8556 0.7619
O19 O 0.0777(3) 0.5617(3) 0.9075(2)
O20 O 0.0529(2) 0.5532(2) 0.8294(2)
C37 C 0.0756(4) 0.5732(4) 0.8613(4)
C38 C 0.1062(4) 0.6190(4) 0.8468(3)
C39 C 0.1312(4) 0.6478(4) 0.8822(4)
H21 H 0.1317 0.6382 0.9150
C40 C 0.1539(4) 0.6886(4) 0.8682(3)
H22 H 0.1666 0.7096 0.8919
C41 C 0.1592(4) 0.7006(3) 0.8176(3)
C42 C 0.1382(3) 0.6705(3) 0.7827(3)
H23 H 0.1427 0.6769 0.7495
C43 C 0.1104(4) 0.6307(4) 0.7973(3)
H24 H 0.0945 0.6116 0.7740
C44 C 0.1857(4) 0.7465(4) 0.8019(3)
C45 C 0.2279(3) 0.7616(3) 0.8284(3)
H25 H 0.2381 0.7437 0.8556
O21 O 0.0925(2) 0.9223(3) 0.5617(3)
O22 O 0.1706(2) 0.9471(2) 0.5532(2)
C46 C 0.1387(4) 0.9244(4) 0.5732(4)
C47 C 0.1532(3) 0.8938(4) 0.6190(4)
C48 C 0.1178(4) 0.8688(4) 0.6478(4)
H26 H 0.0850 0.8683 0.6382
C49 C 0.1318(3) 0.8461(4) 0.6886(4)
H27 H 0.1081 0.8334 0.7096
C50 C 0.1824(3) 0.8408(4) 0.7006(3)
C51 C 0.2173(3) 0.8618(3) 0.6705(3)
H28 H 0.2505 0.8573 0.6769
C52 C 0.2027(3) 0.8896(4) 0.6307(4)
H29 H 0.2260 0.9055 0.6116
C53 C 0.1981(3) 0.8143(4) 0.7465(4)
C54 C 0.1716(3) 0.7721(3) 0.7616(3)
H30 H 0.1444 0.7619 0.7437
O28 O 0.5617(3) 0.9075(2) 0.9223(3)
O29 O 0.5532(2) 0.8294(2) 0.9471(2)
C55 C 0.5732(4) 0.8613(4) 0.9244(4)
C56 C 0.6190(4) 0.8468(3) 0.8938(4)
C57 C 0.6478(4) 0.8822(4) 0.8688(4)
H31 H 0.6382 0.9150 0.8683
C58 C 0.6886(4) 0.8682(3) 0.8461(4)
H32 H 0.7096 0.8919 0.8334
C59 C 0.7006(3) 0.8176(3) 0.8408(4)
C60 C 0.6705(3) 0.7827(3) 0.8618(3)
H33 H 0.6769 0.7495 0.8573
C61 C 0.6307(4) 0.7973(3) 0.8896(4)
H34 H 0.6116 0.7740 0.9055
C62 C 0.7465(4) 0.8019(3) 0.8143(4)
C63 C 0.7616(3) 0.8284(3) 0.7721(3)
H35 H 0.7437 0.8556 0.7619
O30 O 0.9223(3) 0.5617(3) 0.9075(2)
O31 O 0.9471(2) 0.5532(2) 0.8294(2)
C64 C 0.9244(4) 0.5732(4) 0.8613(4)
C65 C 0.8938(4) 0.6190(4) 0.8468(3)
C66 C 0.8688(4) 0.6478(4) 0.8822(4)
H36 H 0.8683 0.6382 0.9150
C67 C 0.8461(4) 0.6886(4) 0.8682(3)
H37 H 0.8334 0.7096 0.8919
C68 C 0.8408(4) 0.7006(3) 0.8176(3)
C69 C 0.8618(3) 0.6705(3) 0.7827(3)
H38 H 0.8573 0.6769 0.7495
C70 C 0.8896(4) 0.6307(4) 0.7973(3)
H39 H 0.9055 0.6116 0.7740
C71 C 0.8143(4) 0.7465(4) 0.8019(3)
C72 C 0.7721(3) 0.7616(3) 0.8284(3)
H40 H 0.7619 0.7437 0.8556
O32 O 0.9075(2) 0.9223(3) 0.5617(3)
O33 O 0.8294(2) 0.9471(2) 0.5532(2)
C73 C 0.8613(4) 0.9244(4) 0.5732(4)
C74 C 0.8468(3) 0.8938(4) 0.6190(4)
C75 C 0.8822(4) 0.8688(4) 0.6478(4)
H41 H 0.9150 0.8683 0.6382
C76 C 0.8682(3) 0.8461(4) 0.6886(4)
H42 H 0.8919 0.8334 0.7096
C77 C 0.8176(3) 0.8408(4) 0.7006(3)
C78 C 0.7827(3) 0.8618(3) 0.6705(3)
H43 H 0.7495 0.8573 0.6769
C79 C 0.7973(3) 0.8896(4) 0.6307(4)
H44 H 0.7740 0.9055 0.6116
C80 C 0.8019(3) 0.8143(4) 0.7465(4)
C81 C 0.8284(3) 0.7721(3) 0.7616(3)
H45 H 0.8556 0.7619 0.7437
Co13 Co 0.94537(12) 0.5000 0.94448(12)
Co16 Co 0.05552(12) 0.94537(12) 0.5000
Co17 Co 0.94448(12) 0.94537(12) 0.5000
Co20_2 Co 1.0000 0.5000 0.83160(9)
Co23_2 Co 0.83160(9) 1.0000 0.5000
Co8_2 Co 1.0000 0.5000 0.16840(9)
O23_2 O 1.0000 0.5000 0.0905(4)
O26_2 O 1.0000 0.5000 0.2460(5)
O27_2 O 1.0000 0.0319(4) 0.4468(4)
Co12 Co 0.94537(12) 0.5000 0.05552(12)
Co15 Co 0.94448(12) 0.05463(12) 0.5000
O48 O 0.9471(2) 0.5532(2) 0.1706(2)
O51 O 0.9471(2) 0.4468(2) 0.1706(2)
O55_2 O 1.0000 0.0319(4) 0.5532(4)
O56_2 O 1.0000 0.1104(5) 0.5000
O27_3 O 0.0000 0.9681(4) 0.4468(4)
O55_3 O 0.0000 0.9681(4) 0.5532(4)
O56_3 O -0.0000 0.8896(5) 0.5000
O53_3 O 0.9095(4) 0.0000 0.5000
C28_2 C 0.5732(4) 0.1387(4) 0.9244(4)
C29_2 C 0.6190(4) 0.1532(3) 0.8938(4)
C30_2 C 0.6478(4) 0.1178(4) 0.8688(4)
H16_2 H 0.6382 0.0850 0.8683
C31_2 C 0.6886(4) 0.1318(3) 0.8461(4)
H17_2 H 0.7096 0.1081 0.8334
C32_2 C 0.7006(3) 0.1824(3) 0.8408(4)
C33_2 C 0.6705(3) 0.2173(3) 0.8618(3)
H18_2 H 0.6769 0.2505 0.8573
C34_2 C 0.6307(4) 0.2027(3) 0.8896(4)
H19_2 H 0.6116 0.2260 0.9055
C35_2 C 0.7465(4) 0.1981(3) 0.8143(4)
C36_2 C 0.7616(3) 0.1716(3) 0.7721(3)
H20_2 H 0.7437 0.1444 0.7619
O19_2 O 0.9223(3) 0.4383(3) 0.9075(2)
O20_2 O 0.9471(2) 0.4468(2) 0.8294(2)
C37_2 C 0.9244(4) 0.4268(4) 0.8613(4)
C38_2 C 0.8938(4) 0.3810(4) 0.8468(3)
C39_2 C 0.8688(4) 0.3522(4) 0.8822(4)
H21_2 H 0.8683 0.3618 0.9150
C40_2 C 0.8461(4) 0.3114(4) 0.8682(3)
H22_2 H 0.8334 0.2904 0.8919
C41_2 C 0.8408(4) 0.2994(3) 0.8176(3)
C42_2 C 0.8618(3) 0.3295(3) 0.7827(3)
H23_2 H 0.8573 0.3231 0.7495
C43_2 C 0.8896(4) 0.3693(4) 0.7973(3)
H24_2 H 0.9055 0.3884 0.7740
C44_2 C 0.8143(4) 0.2535(4) 0.8019(3)
C45_2 C 0.7721(3) 0.2384(3) 0.8284(3)
H25_2 H 0.7619 0.2563 0.8556
O21_2 O 0.9075(2) 0.0777(3) 0.5617(3)
O22_2 O 0.8294(2) 0.0529(2) 0.5532(2)
C46_2 C 0.8613(4) 0.0756(4) 0.5732(4)
C47_2 C 0.8468(3) 0.1062(4) 0.6190(4)
C48_2 C 0.8822(4) 0.1312(4) 0.6478(4)
H26_2 H 0.9150 0.1317 0.6382
C49_2 C 0.8682(3) 0.1539(4) 0.6886(4)
H27_2 H 0.8919 0.1666 0.7096
C50_2 C 0.8176(3) 0.1592(4) 0.7006(3)
C51_2 C 0.7827(3) 0.1382(3) 0.6705(3)
H28_2 H 0.7495 0.1427 0.6769
C52_2 C 0.7973(3) 0.1104(4) 0.6307(4)
H29_2 H 0.7740 0.0945 0.6116
C53_2 C 0.8019(3) 0.1857(4) 0.7465(4)
C54_2 C 0.8284(3) 0.2279(3) 0.7616(3)
H30_2 H 0.8556 0.2381 0.7437
C1_2 C 0.5732(4) 0.8613(4) 0.0756(4)
C2_2 C 0.6190(4) 0.8468(3) 0.1062(4)
C3_2 C 0.6478(4) 0.8822(4) 0.1312(4)
H1_2 H 0.6382 0.9150 0.1317
C4_2 C 0.6886(4) 0.8682(3) 0.1539(4)
H2_2 H 0.7096 0.8919 0.1666
C5_2 C 0.7006(3) 0.8176(3) 0.1592(4)
C6_2 C 0.6705(3) 0.7827(3) 0.1382(3)
H3_2 H 0.6769 0.7495 0.1427
C7_2 C 0.6307(4) 0.7973(3) 0.1104(4)
H4_2 H 0.6116 0.7740 0.0945
C8_2 C 0.7465(4) 0.8019(3) 0.1857(4)
C9_2 C 0.7616(3) 0.8284(3) 0.2279(3)
H5_2 H 0.7437 0.8556 0.2381
O7_2 O 0.9223(3) 0.5617(3) 0.0925(2)
C10_2 C 0.9244(4) 0.5732(4) 0.1387(4)
C11_2 C 0.8938(4) 0.6190(4) 0.1532(3)
C12_2 C 0.8688(4) 0.6478(4) 0.1178(4)
H6_2 H 0.8683 0.6382 0.0850
C13_2 C 0.8461(4) 0.6886(4) 0.1318(3)
H7_2 H 0.8334 0.7096 0.1081
C14_2 C 0.8408(4) 0.7006(3) 0.1824(3)
C15_2 C 0.8618(3) 0.6705(3) 0.2173(3)
H8_2 H 0.8573 0.6769 0.2505
C16_2 C 0.8896(4) 0.6307(4) 0.2027(3)
H9_2 H 0.9055 0.6116 0.2260
C17_2 C 0.8143(4) 0.7465(4) 0.1981(3)
C18_2 C 0.7721(3) 0.7616(3) 0.1716(3)
H10_2 H 0.7619 0.7437 0.1444
O9_2 O 0.9075(2) 0.9223(3) 0.4383(3)
O10_2 O 0.8294(2) 0.9471(2) 0.4468(2)
C19_2 C 0.8613(4) 0.9244(4) 0.4268(4)
C20_2 C 0.8468(3) 0.8938(4) 0.3810(4)
C21_2 C 0.8822(4) 0.8688(4) 0.3522(4)
H11_2 H 0.9150 0.8683 0.3618
C22_2 C 0.8682(3) 0.8461(4) 0.3114(4)
H12_2 H 0.8919 0.8334 0.2904
C23_2 C 0.8176(3) 0.8408(4) 0.2994(3)
C24_2 C 0.7827(3) 0.8618(3) 0.3295(3)
H13_2 H 0.7495 0.8573 0.3231
C25_2 C 0.7973(3) 0.8896(4) 0.3693(4)
H14_2 H 0.7740 0.9055 0.3884
C26_2 C 0.8019(3) 0.8143(4) 0.2535(4)
C27_2 C 0.8284(3) 0.7721(3) 0.2384(3)
H15_2 H 0.8556 0.7619 0.2563
O24_3 O 0.9681(4) 0.5532(4) 0.0000
O25_3 O 0.8896(5) 0.5000 0.0000
O27_4 O 1.0000 0.9681(4) 0.4468(4)
O44_2 O 0.9223(3) 0.4383(3) 0.0925(2)
O53_4 O 0.9095(4) 1.0000 0.5000
O54_3 O 0.9681(4) 0.4468(4) 0.0000
O55_4 O 1.0000 0.9681(4) 0.5532(4)
O56_4 O 1.0000 0.8896(5) 0.5000
O24_4 O 0.9681(4) 0.5532(4) 1.0000
O25_4 O 0.8896(5) 0.5000 1.0000
O54_4 O 0.9681(4) 0.4468(4) 1.0000
O23_3 O -0.0000 0.5000 0.9095(4)
O26_3 O 0.0000 0.5000 0.7540(5)
C82_2 C 0.5732(4) 0.1387(4) 0.0756(4)
C83_2 C 0.6190(4) 0.1532(3) 0.1062(4)
C84_2 C 0.6478(4) 0.1178(4) 0.1312(4)
H46_2 H 0.6382 0.0850 0.1317
C85_2 C 0.6886(4) 0.1318(3) 0.1539(4)
H47_2 H 0.7096 0.1081 0.1666
C86_2 C 0.7006(3) 0.1824(3) 0.1592(4)
C87_2 C 0.6705(3) 0.2173(3) 0.1382(3)
H48_2 H 0.6769 0.2505 0.1427
C88_2 C 0.6307(4) 0.2027(3) 0.1104(4)
H49_2 H 0.6116 0.2260 0.0945
C89_2 C 0.7465(4) 0.1981(3) 0.1857(4)
C90_2 C 0.7616(3) 0.1716(3) 0.2279(3)
H50_2 H 0.7437 0.1444 0.2381
C91_2 C 0.9244(4) 0.4268(4) 0.1387(4)
C92_2 C 0.8938(4) 0.3810(4) 0.1532(3)
C93_2 C 0.8688(4) 0.3522(4) 0.1178(4)
H51_2 H 0.8683 0.3618 0.0850
C94_2 C 0.8461(4) 0.3114(4) 0.1318(3)
H52_2 H 0.8334 0.2904 0.1081
C95_2 C 0.8408(4) 0.2994(3) 0.1824(3)
C96_2 C 0.8618(3) 0.3295(3) 0.2173(3)
H53_2 H 0.8573 0.3231 0.2505
C97_2 C 0.8896(4) 0.3693(4) 0.2027(3)
H54_2 H 0.9055 0.3884 0.2260
C98_2 C 0.8143(4) 0.2535(4) 0.1981(3)
C99_2 C 0.7721(3) 0.2384(3) 0.1716(3)
H55_2 H 0.7619 0.2563 0.1444
O38 O 0.9075(2) 0.0777(3) 0.4383(3)
O39_2 O 0.8294(2) 0.0529(2) 0.4468(2)
C100_2 C 0.8613(4) 0.0756(4) 0.4268(4)
C101_2 C 0.8468(3) 0.1062(4) 0.3810(4)
C102_2 C 0.8822(4) 0.1312(4) 0.3522(4)
H56_2 H 0.9150 0.1317 0.3618
C103_2 C 0.8682(3) 0.1539(4) 0.3114(4)
H57_2 H 0.8919 0.1666 0.2904
C104_2 C 0.8176(3) 0.1592(4) 0.2994(3)
C105_2 C 0.7827(3) 0.1382(3) 0.3295(3)
H58_2 H 0.7495 0.1427 0.3231
C106_2 C 0.7973(3) 0.1104(4) 0.3693(4)
H59_2 H 0.7740 0.0945 0.3884
C107_2 C 0.8019(3) 0.1857(4) 0.2535(4)
C108_2 C 0.8284(3) 0.2279(3) 0.2384(3)
H60_2 H 0.8556 0.2381 0.2563
O23_4 O 1.0000 0.5000 0.9095(4)
O26_4 O 1.0000 0.5000 0.7540(5)
C55_2 C 0.4268(4) 0.8613(4) 0.0756(4)
C56_2 C 0.3810(4) 0.8468(3) 0.1062(4)
C57_2 C 0.3522(4) 0.8822(4) 0.1312(4)
H31_2 H 0.3618 0.9150 0.1317
C58_2 C 0.3114(4) 0.8682(3) 0.1539(4)
H32_2 H 0.2904 0.8919 0.1666
C59_2 C 0.2994(3) 0.8176(3) 0.1592(4)
C60_2 C 0.3295(3) 0.7827(3) 0.1382(3)
H33_2 H 0.3231 0.7495 0.1427
C61_2 C 0.3693(4) 0.7973(3) 0.1104(4)
H34_2 H 0.3884 0.7740 0.0945
C62_2 C 0.2535(4) 0.8019(3) 0.1857(4)
C63_2 C 0.2384(3) 0.8284(3) 0.2279(3)
H35_2 H 0.2563 0.8556 0.2381
C64_2 C 0.0756(4) 0.5732(4) 0.1387(4)
C65_2 C 0.1062(4) 0.6190(4) 0.1532(3)
C66_2 C 0.1312(4) 0.6478(4) 0.1178(4)
H36_2 H 0.1317 0.6382 0.0850
C67_2 C 0.1539(4) 0.6886(4) 0.1318(3)
H37_2 H 0.1666 0.7096 0.1081
C68_2 C 0.1592(4) 0.7006(3) 0.1824(3)
C69_2 C 0.1382(3) 0.6705(3) 0.2173(3)
H38_2 H 0.1427 0.6769 0.2505
C70_2 C 0.1104(4) 0.6307(4) 0.2027(3)
H39_2 H 0.0945 0.6116 0.2260
C71_2 C 0.1857(4) 0.7465(4) 0.1981(3)
C72_2 C 0.2279(3) 0.7616(3) 0.1716(3)
H40_2 H 0.2381 0.7437 0.1444
O32_2 O 0.0925(2) 0.9223(3) 0.4383(3)
O33_2 O 0.1706(2) 0.9471(2) 0.4468(2)
C73_2 C 0.1387(4) 0.9244(4) 0.4268(4)
C74_2 C 0.1532(3) 0.8938(4) 0.3810(4)
C75_2 C 0.1178(4) 0.8688(4) 0.3522(4)
H41_2 H 0.0850 0.8683 0.3618
C76_2 C 0.1318(3) 0.8461(4) 0.3114(4)
H42_2 H 0.1081 0.8334 0.2904
C77_2 C 0.1824(3) 0.8408(4) 0.2994(3)
C78_2 C 0.2173(3) 0.8618(3) 0.3295(3)
H43_2 H 0.2505 0.8573 0.3231
C79_2 C 0.2027(3) 0.8896(4) 0.3693(4)
H44_2 H 0.2260 0.9055 0.3884
C80_2 C 0.1981(3) 0.8143(4) 0.2535(4)
C81_2 C 0.1716(3) 0.7721(3) 0.2384(3)
H45_2 H 0.1444 0.7619 0.2563
O26_5 O 0.2460(5) -0.0000 0.5000
O26_6 O 0.2460(5) 1.0000 0.5000
O26_7 O 0.7540(5) 0.0000 0.5000
O26_8 O 0.7540(5) 1.0000 0.5000
Co1_2 Co -0.0000 0.55552(12) 0.55463(12)
Co2_3 Co -0.0000 0.66840(9) 0.5000
O3_3 O -0.0000 0.5905(4) 0.5000
O5_3 O -0.0000 0.5000 0.6104(5)
O6_3 O -0.0000 0.7460(5) 0.5000
Co3_2 Co -0.0000 0.44448(12) 0.55463(12)
Co4_3 Co -0.0000 0.33160(9) 0.5000
O11_3 O -0.0000 0.4095(4) 0.5000
O12_3 O 0.0532(4) 0.5000 0.5319(4)
O13_3 O -0.0000 0.2540(5) 0.5000
Co5_2 Co -0.0000 0.55552(12) 0.44537(12)
O14_3 O 0.0532(4) 0.5000 0.4681(4)
O15_3 O -0.0000 0.5000 0.3896(5)
Co6_2 Co -0.0000 0.44448(12) 0.44537(12)
O28_2 O 0.0617(3) 0.4075(2) 0.4223(3)
O29_2 O 0.0532(2) 0.3294(2) 0.4471(2)
C55_3 C 0.0732(4) 0.3613(4) 0.4244(4)
C56_3 C 0.1190(4) 0.3468(3) 0.3938(4)
C57_3 C 0.1478(4) 0.3822(4) 0.3688(4)
H31_3 H 0.1382 0.4150 0.3683
C58_3 C 0.1886(4) 0.3682(3) 0.3461(4)
H32_3 H 0.2096 0.3919 0.3334
C59_3 C 0.2006(3) 0.3176(3) 0.3408(4)
C60_3 C 0.1705(3) 0.2827(3) 0.3618(3)
H33_3 H 0.1769 0.2495 0.3573
C61_3 C 0.1307(4) 0.2973(3) 0.3896(4)
H34_3 H 0.1116 0.2740 0.4055
C62_3 C 0.2465(4) 0.3019(3) 0.3143(4)
C63_3 C 0.2616(3) 0.3284(3) 0.2721(3)
H35_3 H 0.2437 0.3556 0.2619
O30_2 O 0.4223(3) 0.0617(3) 0.4075(2)
O31_2 O 0.4471(2) 0.0532(2) 0.3294(2)
C64_3 C 0.4244(4) 0.0732(4) 0.3613(4)
C65_3 C 0.3938(4) 0.1190(4) 0.3468(3)
C66_3 C 0.3688(4) 0.1478(4) 0.3822(4)
H36_3 H 0.3683 0.1382 0.4150
C67_3 C 0.3461(4) 0.1886(4) 0.3682(3)
H37_3 H 0.3334 0.2096 0.3919
C68_3 C 0.3408(4) 0.2006(3) 0.3176(3)
C69_3 C 0.3618(3) 0.1705(3) 0.2827(3)
H38_3 H 0.3573 0.1769 0.2495
C70_3 C 0.3896(4) 0.1307(4) 0.2973(3)
H39_3 H 0.4055 0.1116 0.2740
C71_3 C 0.3143(4) 0.2465(4) 0.3019(3)
C72_3 C 0.2721(3) 0.2616(3) 0.3284(3)
H40_3 H 0.2619 0.2437 0.3556
O32_3 O 0.4075(2) 0.4223(3) 0.0617(3)
O33_3 O 0.3294(2) 0.4471(2) 0.0532(2)
C73_3 C 0.3613(4) 0.4244(4) 0.0732(4)
C74_3 C 0.3468(3) 0.3938(4) 0.1190(4)
C75_3 C 0.3822(4) 0.3688(4) 0.1478(4)
H41_3 H 0.4150 0.3683 0.1382
C76_3 C 0.3682(3) 0.3461(4) 0.1886(4)
H42_3 H 0.3919 0.3334 0.2096
C77_3 C 0.3176(3) 0.3408(4) 0.2006(3)
C78_3 C 0.2827(3) 0.3618(3) 0.1705(3)
H43_3 H 0.2495 0.3573 0.1769
C79_3 C 0.2973(3) 0.3896(4) 0.1307(4)
H44_3 H 0.2740 0.4055 0.1116
C80_3 C 0.3019(3) 0.3143(4) 0.2465(4)
C81_3 C 0.3284(3) 0.2721(3) 0.2616(3)
H45_3 H 0.3556 0.2619 0.2437
Co13_2 Co 0.44537(12) 0.0000 0.44448(12)
Co17_2 Co 0.44448(12) 0.44537(12) 0.0000
Co20_3 Co 0.5000 0.0000 0.33160(9)
Co23_3 Co 0.33160(9) 0.5000 0.0000
O40_2 O 0.0617(3) 0.4075(2) 0.5777(3)
O41_2 O 0.0617(3) 0.5925(2) 0.4223(3)
O43_2 O 0.0617(3) 0.5925(2) 0.5777(3)
O46_2 O 0.0532(2) 0.3294(2) 0.5529(2)
O47_2 O 0.0532(2) 0.6706(2) 0.4471(2)
O50_2 O 0.0532(2) 0.6706(2) 0.5529(2)
Co17_3 Co 0.44448(12) 0.44537(12) 1.0000
Co23_4 Co 0.33160(9) 0.5000 1.0000
Co13_3 Co 0.44537(12) 1.0000 0.44448(12)
Co20_4 Co 0.5000 1.0000 0.33160(9)
Co7_2 Co 0.55463(12) -0.0000 0.55552(12)
Co8_3 Co 0.5000 -0.0000 0.66840(9)
O23_5 O 0.5000 -0.0000 0.5905(4)
O25_5 O 0.6104(5) -0.0000 0.5000
O26_9 O 0.5000 -0.0000 0.7460(5)
Co11_2 Co 0.55463(12) -0.0000 0.44448(12)
Co12_2 Co 0.44537(12) -0.0000 0.55552(12)
O44_3 O 0.5777(3) 0.0617(3) 0.5925(2)
O48_2 O 0.4471(2) 0.0532(2) 0.6706(2)
O52_2 O 0.5529(2) 0.0532(2) 0.6706(2)
O54_5 O 0.5319(4) 0.0532(4) 0.5000
Co9_2 Co 0.55552(12) 0.55463(12) -0.0000
Co15_2 Co 0.44448(12) 0.55463(12) -0.0000
Co22_3 Co 0.66840(9) 0.5000 -0.0000
O45_2 O 0.5925(2) 0.5777(3) 0.0617(3)
O53_5 O 0.5905(4) 0.5000 -0.0000
O55_5 O 0.5000 0.5319(4) 0.0532(4)
O56_5 O 0.5000 0.6104(5) -0.0000
Co1_3 Co 1.0000 0.55552(12) 0.55463(12)
Co2_4 Co 1.0000 0.66840(9) 0.5000
O1_2 O 0.9383(3) 0.5925(2) 0.5777(3)
O2_2 O 0.9468(2) 0.6706(2) 0.5529(2)
O3_4 O 1.0000 0.5905(4) 0.5000
O4_3 O 0.9468(4) 0.5000 0.5319(4)
O5_4 O 1.0000 0.5000 0.6104(5)
O6_4 O 1.0000 0.7460(5) 0.5000
C1_3 C 0.9268(4) 0.6387(4) 0.5756(4)
C2_3 C 0.8810(4) 0.6532(3) 0.6062(4)
C3_3 C 0.8522(4) 0.6178(4) 0.6312(4)
H1_3 H 0.8618 0.5850 0.6317
C4_3 C 0.8114(4) 0.6318(3) 0.6539(4)
H2_3 H 0.7904 0.6081 0.6666
C5_3 C 0.7994(3) 0.6824(3) 0.6592(4)
C6_3 C 0.8295(3) 0.7173(3) 0.6382(3)
H3_3 H 0.8231 0.7505 0.6427
C7_3 C 0.8693(4) 0.7027(3) 0.6104(4)
H4_3 H 0.8884 0.7260 0.5945
C8_3 C 0.7535(4) 0.6981(3) 0.6857(4)
C9_3 C 0.7384(3) 0.6716(3) 0.7279(3)
H5_3 H 0.7563 0.6444 0.7381
O7_3 O 0.5777(3) 0.9383(3) 0.5925(2)
O8_2 O 0.5529(2) 0.9468(2) 0.6706(2)
C10_3 C 0.5756(4) 0.9268(4) 0.6387(4)
C11_3 C 0.6062(4) 0.8810(4) 0.6532(3)
C12_3 C 0.6312(4) 0.8522(4) 0.6178(4)
H6_3 H 0.6317 0.8618 0.5850
C13_3 C 0.6539(4) 0.8114(4) 0.6318(3)
H7_3 H 0.6666 0.7904 0.6081
C14_3 C 0.6592(4) 0.7994(3) 0.6824(3)
C15_3 C 0.6382(3) 0.8295(3) 0.7173(3)
H8_3 H 0.6427 0.8231 0.7505
C16_3 C 0.6104(4) 0.8693(4) 0.7027(3)
H9_3 H 0.5945 0.8884 0.7260
C17_3 C 0.6857(4) 0.7535(4) 0.6981(3)
C18_3 C 0.7279(3) 0.7384(3) 0.6716(3)
H10_3 H 0.7381 0.7563 0.6444
O9_3 O 0.5925(2) 0.5777(3) 0.9383(3)
O10_3 O 0.6706(2) 0.5529(2) 0.9468(2)
C19_3 C 0.6387(4) 0.5756(4) 0.9268(4)
C20_3 C 0.6532(3) 0.6062(4) 0.8810(4)
C21_3 C 0.6178(4) 0.6312(4) 0.8522(4)
H11_3 H 0.5850 0.6317 0.8618
C22_3 C 0.6318(3) 0.6539(4) 0.8114(4)
H12_3 H 0.6081 0.6666 0.7904
C23_3 C 0.6824(3) 0.6592(4) 0.7994(3)
C24_3 C 0.7173(3) 0.6382(3) 0.8295(3)
H13_3 H 0.7505 0.6427 0.8231
C25_3 C 0.7027(3) 0.6104(4) 0.8693(4)
H14_3 H 0.7260 0.5945 0.8884
C26_3 C 0.6981(3) 0.6857(4) 0.7535(4)
C27_3 C 0.6716(3) 0.7279(3) 0.7384(3)
H15_3 H 0.6444 0.7381 0.7563
Co3_3 Co 1.0000 0.44448(12) 0.55463(12)
Co4_4 Co 1.0000 0.33160(9) 0.5000
O11_4 O 1.0000 0.4095(4) 0.5000
O13_4 O 1.0000 0.2540(5) 0.5000
Co5_3 Co 1.0000 0.55552(12) 0.44537(12)
O15_4 O 1.0000 0.5000 0.3896(5)
Co6_3 Co 1.0000 0.44448(12) 0.44537(12)
O16_2 O 0.9383(3) 0.4075(2) 0.4223(3)
O17_2 O 0.9468(2) 0.3294(2) 0.4471(2)
O18_3 O 0.9468(4) 0.5000 0.4681(4)
C28_3 C 0.9268(4) 0.3613(4) 0.4244(4)
C29_3 C 0.8810(4) 0.3468(3) 0.3938(4)
C30_3 C 0.8522(4) 0.3822(4) 0.3688(4)
H16_3 H 0.8618 0.4150 0.3683
C31_3 C 0.8114(4) 0.3682(3) 0.3461(4)
H17_3 H 0.7904 0.3919 0.3334
C32_3 C 0.7994(3) 0.3176(3) 0.3408(4)
C33_3 C 0.8295(3) 0.2827(3) 0.3618(3)
H18_3 H 0.8231 0.2495 0.3573
C34_3 C 0.8693(4) 0.2973(3) 0.3896(4)
H19_3 H 0.8884 0.2740 0.4055
C35_3 C 0.7535(4) 0.3019(3) 0.3143(4)
C36_3 C 0.7384(3) 0.3284(3) 0.2721(3)
H20_3 H 0.7563 0.3556 0.2619
O19_3 O 0.5777(3) 0.0617(3) 0.4075(2)
O20_3 O 0.5529(2) 0.0532(2) 0.3294(2)
C37_3 C 0.5756(4) 0.0732(4) 0.3613(4)
C38_3 C 0.6062(4) 0.1190(4) 0.3468(3)
C39_3 C 0.6312(4) 0.1478(4) 0.3822(4)
H21_3 H 0.6317 0.1382 0.4150
C40_3 C 0.6539(4) 0.1886(4) 0.3682(3)
H22_3 H 0.6666 0.2096 0.3919
C41_3 C 0.6592(4) 0.2006(3) 0.3176(3)
C42_3 C 0.6382(3) 0.1705(3) 0.2827(3)
H23_3 H 0.6427 0.1769 0.2495
C43_3 C 0.6104(4) 0.1307(4) 0.2973(3)
H24_3 H 0.5945 0.1116 0.2740
C44_3 C 0.6857(4) 0.2465(4) 0.3019(3)
C45_3 C 0.7279(3) 0.2616(3) 0.3284(3)
H25_3 H 0.7381 0.2437 0.3556
O21_3 O 0.5925(2) 0.4223(3) 0.0617(3)
O22_3 O 0.6706(2) 0.4471(2) 0.0532(2)
C46_3 C 0.6387(4) 0.4244(4) 0.0732(4)
C47_3 C 0.6532(3) 0.3938(4) 0.1190(4)
C48_3 C 0.6178(4) 0.3688(4) 0.1478(4)
H26_3 H 0.5850 0.3683 0.1382
C49_3 C 0.6318(3) 0.3461(4) 0.1886(4)
H27_3 H 0.6081 0.3334 0.2096
C50_3 C 0.6824(3) 0.3408(4) 0.2006(3)
C51_3 C 0.7173(3) 0.3618(3) 0.1705(3)
H28_3 H 0.7505 0.3573 0.1769
C52_3 C 0.7027(3) 0.3896(4) 0.1307(4)
H29_3 H 0.7260 0.4055 0.1116
C53_3 C 0.6981(3) 0.3143(4) 0.2465(4)
C54_3 C 0.6716(3) 0.2721(3) 0.2616(3)
H30_3 H 0.6444 0.2619 0.2437
Co7_3 Co 0.55463(12) 1.0000 0.55552(12)
Co8_4 Co 0.5000 1.0000 0.66840(9)
O23_6 O 0.5000 1.0000 0.5905(4)
O24_5 O 0.5319(4) 0.9468(4) 0.5000
O25_6 O 0.6104(5) 1.0000 0.5000
O26_10 O 0.5000 1.0000 0.7460(5)
Co9_3 Co 0.55552(12) 0.55463(12) 1.0000
O27_5 O 0.5000 0.5319(4) 0.9468(4)
O34_2 O 0.9383(3) 0.5925(2) 0.4223(3)
O35_2 O 0.9468(2) 0.6706(2) 0.4471(2)
C82_3 C 0.9268(4) 0.6387(4) 0.4244(4)
C83_3 C 0.8810(4) 0.6532(3) 0.3938(4)
C84_3 C 0.8522(4) 0.6178(4) 0.3688(4)
H46_3 H 0.8618 0.5850 0.3683
C85_3 C 0.8114(4) 0.6318(3) 0.3461(4)
H47_3 H 0.7904 0.6081 0.3334
C86_3 C 0.7994(3) 0.6824(3) 0.3408(4)
C87_3 C 0.8295(3) 0.7173(3) 0.3618(3)
H48_3 H 0.8231 0.7505 0.3573
C88_3 C 0.8693(4) 0.7027(3) 0.3896(4)
H49_3 H 0.8884 0.7260 0.4055
C89_3 C 0.7535(4) 0.6981(3) 0.3143(4)
C90_3 C 0.7384(3) 0.6716(3) 0.2721(3)
H50_3 H 0.7563 0.6444 0.2619
O36_2 O 0.5777(3) 0.9383(3) 0.4075(2)
O37_2 O 0.5529(2) 0.9468(2) 0.3294(2)
C91_3 C 0.5756(4) 0.9268(4) 0.3613(4)
C92_3 C 0.6062(4) 0.8810(4) 0.3468(3)
C93_3 C 0.6312(4) 0.8522(4) 0.3822(4)
H51_3 H 0.6317 0.8618 0.4150
C94_3 C 0.6539(4) 0.8114(4) 0.3682(3)
H52_3 H 0.6666 0.7904 0.3919
C95_3 C 0.6592(4) 0.7994(3) 0.3176(3)
C96_3 C 0.6382(3) 0.8295(3) 0.2827(3)
H53_3 H 0.6427 0.8231 0.2495
C97_3 C 0.6104(4) 0.8693(4) 0.2973(3)
H54_3 H 0.5945 0.8884 0.2740
C98_3 C 0.6857(4) 0.7535(4) 0.3019(3)
C99_3 C 0.7279(3) 0.7384(3) 0.3284(3)
H55_3 H 0.7381 0.7563 0.3556
O39_3 O 0.6706(2) 0.5529(2) 0.0532(2)
C100_3 C 0.6387(4) 0.5756(4) 0.0732(4)
C101_3 C 0.6532(3) 0.6062(4) 0.1190(4)
C102_3 C 0.6178(4) 0.6312(4) 0.1478(4)
H56_3 H 0.5850 0.6317 0.1382
C103_3 C 0.6318(3) 0.6539(4) 0.1886(4)
H57_3 H 0.6081 0.6666 0.2096
C104_3 C 0.6824(3) 0.6592(4) 0.2006(3)
C105_3 C 0.7173(3) 0.6382(3) 0.1705(3)
H58_3 H 0.7505 0.6427 0.1769
C106_3 C 0.7027(3) 0.6104(4) 0.1307(4)
H59_3 H 0.7260 0.5945 0.1116
C107_3 C 0.6981(3) 0.6857(4) 0.2465(4)
C108_3 C 0.6716(3) 0.7279(3) 0.2616(3)
H60_3 H 0.6444 0.7381 0.2437
Co11_3 Co 0.55463(12) 1.0000 0.44448(12)
Co12_3 Co 0.44537(12) 1.0000 0.55552(12)
Co15_3 Co 0.44448(12) 0.55463(12) 1.0000
Co16_2 Co 0.55552(12) 0.44537(12) 0.0000
Co22_4 Co 0.66840(9) 0.5000 1.0000
O42_2 O 0.9383(3) 0.4075(2) 0.5777(3)
O49_2 O 0.9468(2) 0.3294(2) 0.5529(2)
O51_2 O 0.4471(2) 0.9468(2) 0.6706(2)
O53_6 O 0.5905(4) 0.5000 1.0000
O56_6 O 0.5000 0.6104(5) 1.0000
Co16_3 Co 0.55552(12) 0.44537(12) 1.0000
O53_7 O 0.4095(4) 0.5000 -0.0000
O55_6 O 0.5000 0.4681(4) 0.0532(4)
O56_7 O 0.5000 0.3896(5) -0.0000
C1_4 C 0.0732(4) 0.3613(4) 0.5756(4)
C2_4 C 0.1190(4) 0.3468(3) 0.6062(4)
C3_4 C 0.1478(4) 0.3822(4) 0.6312(4)
H1_4 H 0.1382 0.4150 0.6317
C4_4 C 0.1886(4) 0.3682(3) 0.6539(4)
H2_4 H 0.2096 0.3919 0.6666
C5_4 C 0.2006(3) 0.3176(3) 0.6592(4)
C6_4 C 0.1705(3) 0.2827(3) 0.6382(3)
H3_4 H 0.1769 0.2495 0.6427
C7_4 C 0.1307(4) 0.2973(3) 0.6104(4)
H4_4 H 0.1116 0.2740 0.5945
C8_4 C 0.2465(4) 0.3019(3) 0.6857(4)
C9_4 C 0.2616(3) 0.3284(3) 0.7279(3)
H5_4 H 0.2437 0.3556 0.7381
O7_4 O 0.4223(3) 0.0617(3) 0.5925(2)
C10_4 C 0.4244(4) 0.0732(4) 0.6387(4)
C11_4 C 0.3938(4) 0.1190(4) 0.6532(3)
C12_4 C 0.3688(4) 0.1478(4) 0.6178(4)
H6_4 H 0.3683 0.1382 0.5850
C13_4 C 0.3461(4) 0.1886(4) 0.6318(3)
H7_4 H 0.3334 0.2096 0.6081
C14_4 C 0.3408(4) 0.2006(3) 0.6824(3)
C15_4 C 0.3618(3) 0.1705(3) 0.7173(3)
H8_4 H 0.3573 0.1769 0.7505
C16_4 C 0.3896(4) 0.1307(4) 0.7027(3)
H9_4 H 0.4055 0.1116 0.7260
C17_4 C 0.3143(4) 0.2465(4) 0.6981(3)
C18_4 C 0.2721(3) 0.2616(3) 0.6716(3)
H10_4 H 0.2619 0.2437 0.6444
O9_4 O 0.4075(2) 0.4223(3) 0.9383(3)
O10_4 O 0.3294(2) 0.4471(2) 0.9468(2)
C19_4 C 0.3613(4) 0.4244(4) 0.9268(4)
C20_4 C 0.3468(3) 0.3938(4) 0.8810(4)
C21_4 C 0.3822(4) 0.3688(4) 0.8522(4)
H11_4 H 0.4150 0.3683 0.8618
C22_4 C 0.3682(3) 0.3461(4) 0.8114(4)
H12_4 H 0.3919 0.3334 0.7904
C23_4 C 0.3176(3) 0.3408(4) 0.7994(3)
C24_4 C 0.2827(3) 0.3618(3) 0.8295(3)
H13_4 H 0.2495 0.3573 0.8231
C25_4 C 0.2973(3) 0.3896(4) 0.8693(4)
H14_4 H 0.2740 0.4055 0.8884
C26_4 C 0.3019(3) 0.3143(4) 0.7535(4)
C27_4 C 0.3284(3) 0.2721(3) 0.7384(3)
H15_4 H 0.3556 0.2619 0.7563
C28_4 C 0.0732(4) 0.6387(4) 0.4244(4)
C29_4 C 0.1190(4) 0.6532(3) 0.3938(4)
C30_4 C 0.1478(4) 0.6178(4) 0.3688(4)
H16_4 H 0.1382 0.5850 0.3683
C31_4 C 0.1886(4) 0.6318(3) 0.3461(4)
H17_4 H 0.2096 0.6081 0.3334
C32_4 C 0.2006(3) 0.6824(3) 0.3408(4)
C33_4 C 0.1705(3) 0.7173(3) 0.3618(3)
H18_4 H 0.1769 0.7505 0.3573
C34_4 C 0.1307(4) 0.7027(3) 0.3896(4)
H19_4 H 0.1116 0.7260 0.4055
C35_4 C 0.2465(4) 0.6981(3) 0.3143(4)
C36_4 C 0.2616(3) 0.6716(3) 0.2721(3)
H20_4 H 0.2437 0.6444 0.2619
O19_4 O 0.4223(3) 0.9383(3) 0.4075(2)
O20_4 O 0.4471(2) 0.9468(2) 0.3294(2)
C37_4 C 0.4244(4) 0.9268(4) 0.3613(4)
C38_4 C 0.3938(4) 0.8810(4) 0.3468(3)
C39_4 C 0.3688(4) 0.8522(4) 0.3822(4)
H21_4 H 0.3683 0.8618 0.4150
C40_4 C 0.3461(4) 0.8114(4) 0.3682(3)
H22_4 H 0.3334 0.7904 0.3919
C41_4 C 0.3408(4) 0.7994(3) 0.3176(3)
C42_4 C 0.3618(3) 0.8295(3) 0.2827(3)
H23_4 H 0.3573 0.8231 0.2495
C43_4 C 0.3896(4) 0.8693(4) 0.2973(3)
H24_4 H 0.4055 0.8884 0.2740
C44_4 C 0.3143(4) 0.7535(4) 0.3019(3)
C45_4 C 0.2721(3) 0.7384(3) 0.3284(3)
H25_4 H 0.2619 0.7563 0.3556
O21_4 O 0.4075(2) 0.5777(3) 0.0617(3)
O22_4 O 0.3294(2) 0.5529(2) 0.0532(2)
C46_4 C 0.3613(4) 0.5756(4) 0.0732(4)
C47_4 C 0.3468(3) 0.6062(4) 0.1190(4)
C48_4 C 0.3822(4) 0.6312(4) 0.1478(4)
H26_4 H 0.4150 0.6317 0.1382
C49_4 C 0.3682(3) 0.6539(4) 0.1886(4)
H27_4 H 0.3919 0.6666 0.2096
C50_4 C 0.3176(3) 0.6592(4) 0.2006(3)
C51_4 C 0.2827(3) 0.6382(3) 0.1705(3)
H28_4 H 0.2495 0.6427 0.1769
C52_4 C 0.2973(3) 0.6104(4) 0.1307(4)
H29_4 H 0.2740 0.5945 0.1116
C53_4 C 0.3019(3) 0.6857(4) 0.2465(4)
C54_4 C 0.3284(3) 0.7279(3) 0.2616(3)
H30_4 H 0.3556 0.7381 0.2437
O24_6 O 0.4681(4) 0.0532(4) 0.5000
O25_7 O 0.3896(5) 0.0000 0.5000
O27_6 O 0.5000 0.4681(4) 0.9468(4)
O53_8 O 0.4095(4) 0.5000 1.0000
O56_8 O 0.5000 0.3896(5) 1.0000
O25_8 O 0.3896(5) 1.0000 0.5000
O44_4 O 0.4223(3) 0.9383(3) 0.5925(2)
O54_6 O 0.4681(4) 0.9468(4) 0.5000
O23_7 O 0.5000 -0.0000 0.4095(4)
O26_11 O 0.5000 -0.0000 0.2540(5)
O23_8 O 0.5000 1.0000 0.4095(4)
O26_12 O 0.5000 1.0000 0.2540(5)
C82_4 C 0.0732(4) 0.6387(4) 0.5756(4)
C83_4 C 0.1190(4) 0.6532(3) 0.6062(4)
C84_4 C 0.1478(4) 0.6178(4) 0.6312(4)
H46_4 H 0.1382 0.5850 0.6317
C85_4 C 0.1886(4) 0.6318(3) 0.6539(4)
H47_4 H 0.2096 0.6081 0.6666
C86_4 C 0.2006(3) 0.6824(3) 0.6592(4)
C87_4 C 0.1705(3) 0.7173(3) 0.6382(3)
H48_4 H 0.1769 0.7505 0.6427
C88_4 C 0.1307(4) 0.7027(3) 0.6104(4)
H49_4 H 0.1116 0.7260 0.5945
C89_4 C 0.2465(4) 0.6981(3) 0.6857(4)
C90_4 C 0.2616(3) 0.6716(3) 0.7279(3)
H50_4 H 0.2437 0.6444 0.7381
C91_4 C 0.4244(4) 0.9268(4) 0.6387(4)
C92_4 C 0.3938(4) 0.8810(4) 0.6532(3)
C93_4 C 0.3688(4) 0.8522(4) 0.6178(4)
H51_4 H 0.3683 0.8618 0.5850
C94_4 C 0.3461(4) 0.8114(4) 0.6318(3)
H52_4 H 0.3334 0.7904 0.6081
C95_4 C 0.3408(4) 0.7994(3) 0.6824(3)
C96_4 C 0.3618(3) 0.8295(3) 0.7173(3)
H53_4 H 0.3573 0.8231 0.7505
C97_4 C 0.3896(4) 0.8693(4) 0.7027(3)
H54_4 H 0.4055 0.8884 0.7260
C98_4 C 0.3143(4) 0.7535(4) 0.6981(3)
C99_4 C 0.2721(3) 0.7384(3) 0.6716(3)
H55_4 H 0.2619 0.7563 0.6444
O38_2 O 0.4075(2) 0.5777(3) 0.9383(3)
O39_4 O 0.3294(2) 0.5529(2) 0.9468(2)
C100_4 C 0.3613(4) 0.5756(4) 0.9268(4)
C101_4 C 0.3468(3) 0.6062(4) 0.8810(4)
C102_4 C 0.3822(4) 0.6312(4) 0.8522(4)
H56_4 H 0.4150 0.6317 0.8618
C103_4 C 0.3682(3) 0.6539(4) 0.8114(4)
H57_4 H 0.3919 0.6666 0.7904
C104_4 C 0.3176(3) 0.6592(4) 0.7994(3)
C105_4 C 0.2827(3) 0.6382(3) 0.8295(3)
H58_4 H 0.2495 0.6427 0.8231
C106_4 C 0.2973(3) 0.6104(4) 0.8693(4)
H59_4 H 0.2740 0.5945 0.8884
C107_4 C 0.3019(3) 0.6857(4) 0.7535(4)
C108_4 C 0.3284(3) 0.7279(3) 0.7384(3)
H60_4 H 0.3556 0.7381 0.7563
C55_4 C 0.9268(4) 0.3613(4) 0.5756(4)
C56_4 C 0.8810(4) 0.3468(3) 0.6062(4)
C57_4 C 0.8522(4) 0.3822(4) 0.6312(4)
H31_4 H 0.8618 0.4150 0.6317
C58_4 C 0.8114(4) 0.3682(3) 0.6539(4)
H32_4 H 0.7904 0.3919 0.6666
C59_4 C 0.7994(3) 0.3176(3) 0.6592(4)
C60_4 C 0.8295(3) 0.2827(3) 0.6382(3)
H33_4 H 0.8231 0.2495 0.6427
C61_4 C 0.8693(4) 0.2973(3) 0.6104(4)
H34_4 H 0.8884 0.2740 0.5945
C62_4 C 0.7535(4) 0.3019(3) 0.6857(4)
C63_4 C 0.7384(3) 0.3284(3) 0.7279(3)
H35_4 H 0.7563 0.3556 0.7381
C64_4 C 0.5756(4) 0.0732(4) 0.6387(4)
C65_4 C 0.6062(4) 0.1190(4) 0.6532(3)
C66_4 C 0.6312(4) 0.1478(4) 0.6178(4)
H36_4 H 0.6317 0.1382 0.5850
C67_4 C 0.6539(4) 0.1886(4) 0.6318(3)
H37_4 H 0.6666 0.2096 0.6081
C68_4 C 0.6592(4) 0.2006(3) 0.6824(3)
C69_4 C 0.6382(3) 0.1705(3) 0.7173(3)
H38_4 H 0.6427 0.1769 0.7505
C70_4 C 0.6104(4) 0.1307(4) 0.7027(3)
H39_4 H 0.5945 0.1116 0.7260
C71_4 C 0.6857(4) 0.2465(4) 0.6981(3)
C72_4 C 0.7279(3) 0.2616(3) 0.6716(3)
H40_4 H 0.7381 0.2437 0.6444
O32_4 O 0.5925(2) 0.4223(3) 0.9383(3)
O33_4 O 0.6706(2) 0.4471(2) 0.9468(2)
C73_4 C 0.6387(4) 0.4244(4) 0.9268(4)
C74_4 C 0.6532(3) 0.3938(4) 0.8810(4)
C75_4 C 0.6178(4) 0.3688(4) 0.8522(4)
H41_4 H 0.5850 0.3683 0.8618
C76_4 C 0.6318(3) 0.3461(4) 0.8114(4)
H42_4 H 0.6081 0.3334 0.7904
C77_4 C 0.6824(3) 0.3408(4) 0.7994(3)
C78_4 C 0.7173(3) 0.3618(3) 0.8295(3)
H43_4 H 0.7505 0.3573 0.8231
C79_4 C 0.7027(3) 0.3896(4) 0.8693(4)
H44_4 H 0.7260 0.4055 0.8884
C80_4 C 0.6981(3) 0.3143(4) 0.7535(4)
C81_4 C 0.6716(3) 0.2721(3) 0.7384(3)
H45_4 H 0.6444 0.2619 0.7563
O26_13 O 0.7460(5) 0.5000 -0.0000
O26_14 O 0.7460(5) 0.5000 1.0000
O26_15 O 0.2540(5) 0.5000 -0.0000
O26_16 O 0.2540(5) 0.5000 1.0000
loop_
_geom_bond_atom_site_label_1
_geom_bond_atom_site_label_2
_geom_bond_site_symmetry_1
_geom_bond_site_symmetry_2
Co1 O1 1_555 1_555
Co2 O2 1_555 1_555
O1 C1 1_555 1_555
O2 C1 1_555 1_555
O3 Co1 1_555 1_555
O4 Co1 1_555 1_555
O5 Co1 1_555 1_555
O6 Co2 1_555 1_555
C1 C2 1_555 1_555
C2 C3 1_555 1_555
C3 H1 1_555 1_555
C4 C3 1_555 1_555
H2 C4 1_555 1_555
C5 C4 1_555 1_555
C6 C5 1_555 1_555
H3 C6 1_555 1_555
C7 C2 1_555 1_555
H4 C7 1_555 1_555
C8 C5 1_555 1_555
C9 C8 1_555 1_555
H5 C9 1_555 1_555
O7 C10 1_555 1_555
O8 C10 1_555 1_555
C10 C11 1_555 1_555
C11 C12 1_555 1_555
C12 H6 1_555 1_555
C13 C12 1_555 1_555
H7 C13 1_555 1_555
C14 C13 1_555 1_555
C15 C14 1_555 1_555
H8 C15 1_555 1_555
C16 C11 1_555 1_555
H9 C16 1_555 1_555
C17 C14 1_555 1_555
C18 C8 1_555 1_555
H10 C18 1_555 1_555
O9 C19 1_555 1_555
O10 C19 1_555 1_555
C19 C20 1_555 1_555
C20 C21 1_555 1_555
C21 H11 1_555 1_555
C22 C21 1_555 1_555
H12 C22 1_555 1_555
C23 C22 1_555 1_555
C24 C23 1_555 1_555
H13 C24 1_555 1_555
C25 C20 1_555 1_555
H14 C25 1_555 1_555
C26 C9 1_555 1_555
C27 C17 1_555 1_555
H15 C27 1_555 1_555
O12 Co1 1_555 1_555
Co7 O7 1_555 1_555
Co8 O8 1_555 1_555
O23 Co7 1_555 1_555
O24 Co7 1_555 1_555
O25 Co7 1_555 1_555
O26 Co8 1_555 1_555
Co9 O9 1_555 1_555
O27 Co9 1_555 1_555
Co22 O10 1_555 1_555
O43 Co1 1_555 1_555
O44 Co7 1_555 1_555
O45 Co9 1_555 1_555
O50 Co2 1_555 1_555
O52 Co8 1_555 1_555
O53 Co9 1_555 1_555
O54 Co7 1_555 1_555
O55 Co9 1_555 1_555
O56 Co9 1_555 1_555
Co2 O3 1_555 1_555
C6 C7 1_555 1_555
C15 C16 1_555 1_555
C17 C18 1_555 1_555
C23 C26 1_555 1_555
C24 C25 1_555 1_555
C26 C27 1_555 1_555
Co8 O23 1_555 1_555
Co22 O53 1_555 1_555
O6_2 Co2_2 1_555 1_555
Co5 O3_2 1_555 1_555
O14 Co5 1_555 1_555
O15 Co5 1_555 1_555
O18 Co5 1_555 1_555
O34 Co5 1_555 1_555
O35 Co2_2 1_555 1_555
C82 O34 1_555 1_555
C83 C82 1_555 1_555
C84 C83 1_555 1_555
H46 C84 1_555 1_555
C85 C84 1_555 1_555
H47 C85 1_555 1_555
C86 C85 1_555 1_555
C87 C86 1_555 1_555
H48 C87 1_555 1_555
C88 C83 1_555 1_555
H49 C88 1_555 1_555
C89 C86 1_555 1_555
C90 C89 1_555 1_555
H50 C90 1_555 1_555
O36 C91 1_555 1_555
O37 C91 1_555 1_555
C91 C92 1_555 1_555
C92 C93 1_555 1_555
C93 H51 1_555 1_555
C94 C93 1_555 1_555
H52 C94 1_555 1_555
C95 C94 1_555 1_555
C96 C95 1_555 1_555
H53 C96 1_555 1_555
C97 C92 1_555 1_555
H54 C97 1_555 1_555
C98 C95 1_555 1_555
C99 C89 1_555 1_555
H55 C99 1_555 1_555
O45 C100 1_555 1_555
O39 C100 1_555 1_555
C100 C101 1_555 1_555
C101 C102 1_555 1_555
C102 H56 1_555 1_555
C103 C102 1_555 1_555
H57 C103 1_555 1_555
C104 C103 1_555 1_555
C105 C104 1_555 1_555
H58 C105 1_555 1_555
C106 C101 1_555 1_555
H59 C106 1_555 1_555
C107 C90 1_555 1_555
C108 C98 1_555 1_555
H60 C108 1_555 1_555
Co11 O24_2 1_555 1_555
Co20 O37 1_555 1_555
O41 Co5 1_555 1_555
O47 Co2_2 1_555 1_555
Co2_2 O3_2 1_555 1_555
O25_2 Co11 1_555 1_555
O35 C82 1_555 1_555
C87 C88 1_555 1_555
O36 Co11 1_555 1_555
C96 C97 1_555 1_555
C98 C99 1_555 1_555
O39 Co22 1_555 1_555
C104 C107 1_555 1_555
C105 C106 1_555 1_555
C107 C108 1_555 1_555
Co11 O54_2 1_555 1_555
Co3 O4_2 1_555 1_555
Co4 O11 1_555 1_555
O11 Co3 1_555 1_555
O13 Co4 1_555 1_555
O40 Co3 1_555 1_555
O42 Co3 1_555 1_555
O46 Co4 1_555 1_555
O49 Co4 1_555 1_555
O5_2 Co3 1_555 1_555
Co3 O12_2 1_555 1_555
Co22_2 O53_2 1_555 1_555
Co4_2 O11_2 1_555 1_555
O13_2 Co4_2 1_555 1_555
Co6 O11_2 1_555 1_555
O16 Co6 1_555 1_555
O17 Co4_2 1_555 1_555
C28 O16 1_555 1_555
C29 C28 1_555 1_555
C30 C29 1_555 1_555
H16 C30 1_555 1_555
C31 C30 1_555 1_555
H17 C31 1_555 1_555
C32 C31 1_555 1_555
C33 C32 1_555 1_555
H18 C33 1_555 1_555
C34 C29 1_555 1_555
H19 C34 1_555 1_555
C35 C32 1_555 1_555
C36 C35 1_555 1_555
H20 C36 1_555 1_555
O19 C37 1_555 1_555
O20 C37 1_555 1_555
C37 C38 1_555 1_555
C38 C39 1_555 1_555
C39 H21 1_555 1_555
C40 C39 1_555 1_555
H22 C40 1_555 1_555
C41 C40 1_555 1_555
C42 C41 1_555 1_555
H23 C42 1_555 1_555
C43 C38 1_555 1_555
H24 C43 1_555 1_555
C44 C41 1_555 1_555
C45 C35 1_555 1_555
H25 C45 1_555 1_555
O21 C46 1_555 1_555
O22 C46 1_555 1_555
C46 C47 1_555 1_555
C47 C48 1_555 1_555
C48 H26 1_555 1_555
C49 C48 1_555 1_555
H27 C49 1_555 1_555
C50 C49 1_555 1_555
C51 C50 1_555 1_555
H28 C51 1_555 1_555
C52 C47 1_555 1_555
H29 C52 1_555 1_555
C53 C36 1_555 1_555
C54 C44 1_555 1_555
H30 C54 1_555 1_555
O28 Co6 1_555 1_555
O29 Co4_2 1_555 1_555
C55 O28 1_555 1_555
C56 C55 1_555 1_555
C57 C56 1_555 1_555
H31 C57 1_555 1_555
C58 C57 1_555 1_555
H32 C58 1_555 1_555
C59 C58 1_555 1_555
C60 C59 1_555 1_555
H33 C60 1_555 1_555
C61 C56 1_555 1_555
H34 C61 1_555 1_555
C62 C59 1_555 1_555
C63 C62 1_555 1_555
H35 C63 1_555 1_555
O30 C64 1_555 1_555
O31 C64 1_555 1_555
C64 C65 1_555 1_555
C65 C66 1_555 1_555
C66 H36 1_555 1_555
C67 C66 1_555 1_555
H37 C67 1_555 1_555
C68 C67 1_555 1_555
C69 C68 1_555 1_555
H38 C69 1_555 1_555
C70 C65 1_555 1_555
H39 C70 1_555 1_555
C71 C68 1_555 1_555
C72 C62 1_555 1_555
H40 C72 1_555 1_555
O32 C73 1_555 1_555
O33 C73 1_555 1_555
C73 C74 1_555 1_555
C74 C75 1_555 1_555
C75 H41 1_555 1_555
C76 C75 1_555 1_555
H42 C76 1_555 1_555
C77 C76 1_555 1_555
C78 C77 1_555 1_555
H43 C78 1_555 1_555
C79 C74 1_555 1_555
H44 C79 1_555 1_555
C80 C63 1_555 1_555
C81 C71 1_555 1_555
H45 C81 1_555 1_555
Co11 O19 1_555 1_555
Co13 O30 1_555 1_555
Co16 O21 1_555 1_555
Co17 O32 1_555 1_555
Co20 O20 1_555 1_555
Co20_2 O31 1_555 1_555
Co22_2 O22 1_555 1_555
Co23_2 O33 1_555 1_555
O14_2 Co6 1_555 1_555
O15_2 Co6 1_555 1_555
Co6 O18_2 1_555 1_555
O17 C28 1_555 1_555
C33 C34 1_555 1_555
C42 C43 1_555 1_555
C44 C45 1_555 1_555
C50 C53 1_555 1_555
C51 C52 1_555 1_555
C53 C54 1_555 1_555
O29 C55 1_555 1_555
C60 C61 1_555 1_555
C69 C70 1_555 1_555
C71 C72 1_555 1_555
C77 C80 1_555 1_555
C78 C79 1_555 1_555
C80 C81 1_555 1_555
O26_2 Co8_2 1_555 1_555
Co12 O23_2 1_555 1_555
Co15 O27_2 1_555 1_555
O48 Co8_2 1_555 1_555
O51 Co8_2 1_555 1_555
Co8_2 O23_2 1_555 1_555
Co15 O55_2 1_555 1_555
Co15 O56_2 1_555 1_555
Co16 O27_3 1_555 1_555
Co16 O55_3 1_555 1_555
Co16 O56_3 1_555 1_555
Co23 O53_3 1_555 1_555
C28_2 O41 1_555 1_555
C29_2 C28_2 1_555 1_555
C30_2 C29_2 1_555 1_555
H16_2 C30_2 1_555 1_555
C31_2 C30_2 1_555 1_555
H17_2 C31_2 1_555 1_555
C32_2 C31_2 1_555 1_555
C33_2 C32_2 1_555 1_555
H18_2 C33_2 1_555 1_555
C34_2 C29_2 1_555 1_555
H19_2 C34_2 1_555 1_555
C35_2 C32_2 1_555 1_555
C36_2 C35_2 1_555 1_555
H20_2 C36_2 1_555 1_555
O19_2 C37_2 1_555 1_555
O20_2 C37_2 1_555 1_555
C37_2 C38_2 1_555 1_555
C38_2 C39_2 1_555 1_555
C39_2 H21_2 1_555 1_555
C40_2 C39_2 1_555 1_555
H22_2 C40_2 1_555 1_555
C41_2 C40_2 1_555 1_555
C42_2 C41_2 1_555 1_555
H23_2 C42_2 1_555 1_555
C43_2 C38_2 1_555 1_555
H24_2 C43_2 1_555 1_555
C44_2 C41_2 1_555 1_555
C45_2 C35_2 1_555 1_555
H25_2 C45_2 1_555 1_555
O21_2 C46_2 1_555 1_555
O22_2 C46_2 1_555 1_555
C46_2 C47_2 1_555 1_555
C47_2 C48_2 1_555 1_555
C48_2 H26_2 1_555 1_555
C49_2 C48_2 1_555 1_555
H27_2 C49_2 1_555 1_555
C50_2 C49_2 1_555 1_555
C51_2 C50_2 1_555 1_555
H28_2 C51_2 1_555 1_555
C52_2 C47_2 1_555 1_555
H29_2 C52_2 1_555 1_555
C53_2 C36_2 1_555 1_555
C54_2 C44_2 1_555 1_555
H30_2 C54_2 1_555 1_555
Co13 O19_2 1_555 1_555
Co15 O21_2 1_555 1_555
Co20_2 O20_2 1_555 1_555
Co23 O22_2 1_555 1_555
O47 C28_2 1_555 1_555
C33_2 C34_2 1_555 1_555
C42_2 C43_2 1_555 1_555
C44_2 C45_2 1_555 1_555
C50_2 C53_2 1_555 1_555
C51_2 C52_2 1_555 1_555
C53_2 C54_2 1_555 1_555
O40 C1_2 1_555 1_555
O46 C1_2 1_555 1_555
C1_2 C2_2 1_555 1_555
C2_2 C3_2 1_555 1_555
C3_2 H1_2 1_555 1_555
C4_2 C3_2 1_555 1_555
H2_2 C4_2 1_555 1_555
C5_2 C4_2 1_555 1_555
C6_2 C5_2 1_555 1_555
H3_2 C6_2 1_555 1_555
C7_2 C2_2 1_555 1_555
H4_2 C7_2 1_555 1_555
C8_2 C5_2 1_555 1_555
C9_2 C8_2 1_555 1_555
H5_2 C9_2 1_555 1_555
O7_2 C10_2 1_555 1_555
O48 C10_2 1_555 1_555
C10_2 C11_2 1_555 1_555
C11_2 C12_2 1_555 1_555
C12_2 H6_2 1_555 1_555
C13_2 C12_2 1_555 1_555
H7_2 C13_2 1_555 1_555
C14_2 C13_2 1_555 1_555
C15_2 C14_2 1_555 1_555
H8_2 C15_2 1_555 1_555
C16_2 C11_2 1_555 1_555
H9_2 C16_2 1_555 1_555
C17_2 C14_2 1_555 1_555
C18_2 C8_2 1_555 1_555
H10_2 C18_2 1_555 1_555
O9_2 C19_2 1_555 1_555
O10_2 C19_2 1_555 1_555
C19_2 C20_2 1_555 1_555
C20_2 C21_2 1_555 1_555
C21_2 H11_2 1_555 1_555
C22_2 C21_2 1_555 1_555
H12_2 C22_2 1_555 1_555
C23_2 C22_2 1_555 1_555
C24_2 C23_2 1_555 1_555
H13_2 C24_2 1_555 1_555
C25_2 C20_2 1_555 1_555
H14_2 C25_2 1_555 1_555
C26_2 C9_2 1_555 1_555
C27_2 C17_2 1_555 1_555
H15_2 C27_2 1_555 1_555
Co12 O7_2 1_555 1_555
O24_3 Co12 1_555 1_555
O25_3 Co12 1_555 1_555
Co17 O9_2 1_555 1_555
O27_4 Co17 1_555 1_555
Co23_2 O10_2 1_555 1_555
O44_2 Co12 1_555 1_555
O53_4 Co17 1_555 1_555
O54_3 Co12 1_555 1_555
O55_4 Co17 1_555 1_555
O56_4 Co17 1_555 1_555
C6_2 C7_2 1_555 1_555
C15_2 C16_2 1_555 1_555
C17_2 C18_2 1_555 1_555
C23_2 C26_2 1_555 1_555
C24_2 C25_2 1_555 1_555
C26_2 C27_2 1_555 1_555
Co23_2 O53_4 1_555 1_555
Co13 O24_4 1_555 1_555
O25_4 Co13 1_555 1_555
Co13 O54_4 1_555 1_555
O26_3 Co20 1_555 1_555
Co11 O23_3 1_555 1_555
Co20 O23_3 1_555 1_555
C82_2 O43 1_555 1_555
C83_2 C82_2 1_555 1_555
C84_2 C83_2 1_555 1_555
H46_2 C84_2 1_555 1_555
C85_2 C84_2 1_555 1_555
H47_2 C85_2 1_555 1_555
C86_2 C85_2 1_555 1_555
C87_2 C86_2 1_555 1_555
H48_2 C87_2 1_555 1_555
C88_2 C83_2 1_555 1_555
H49_2 C88_2 1_555 1_555
C89_2 C86_2 1_555 1_555
C90_2 C89_2 1_555 1_555
H50_2 C90_2 1_555 1_555
O44_2 C91_2 1_555 1_555
O51 C91_2 1_555 1_555
C91_2 C92_2 1_555 1_555
C92_2 C93_2 1_555 1_555
C93_2 H51_2 1_555 1_555
C94_2 C93_2 1_555 1_555
H52_2 C94_2 1_555 1_555
C95_2 C94_2 1_555 1_555
C96_2 C95_2 1_555 1_555
H53_2 C96_2 1_555 1_555
C97_2 C92_2 1_555 1_555
H54_2 C97_2 1_555 1_555
C98_2 C95_2 1_555 1_555
C99_2 C89_2 1_555 1_555
H55_2 C99_2 1_555 1_555
O38 C100_2 1_555 1_555
O39_2 C100_2 1_555 1_555
C100_2 C101_2 1_555 1_555
C101_2 C102_2 1_555 1_555
C102_2 H56_2 1_555 1_555
C103_2 C102_2 1_555 1_555
H57_2 C103_2 1_555 1_555
C104_2 C103_2 1_555 1_555
C105_2 C104_2 1_555 1_555
H58_2 C105_2 1_555 1_555
C106_2 C101_2 1_555 1_555
H59_2 C106_2 1_555 1_555
C107_2 C90_2 1_555 1_555
C108_2 C98_2 1_555 1_555
H60_2 C108_2 1_555 1_555
Co15 O38 1_555 1_555
O50 C82_2 1_555 1_555
C87_2 C88_2 1_555 1_555
C96_2 C97_2 1_555 1_555
C98_2 C99_2 1_555 1_555
O39_2 Co23 1_555 1_555
C104_2 C107_2 1_555 1_555
C105_2 C106_2 1_555 1_555
C107_2 C108_2 1_555 1_555
O23_4 Co13 1_555 1_555
O26_4 Co20_2 1_555 1_555
O53_3 Co15 1_555 1_555
Co20_2 O23_4 1_555 1_555
C55_2 O42 1_555 1_555
C56_2 C55_2 1_555 1_555
C57_2 C56_2 1_555 1_555
H31_2 C57_2 1_555 1_555
C58_2 C57_2 1_555 1_555
H32_2 C58_2 1_555 1_555
C59_2 C58_2 1_555 1_555
C60_2 C59_2 1_555 1_555
H33_2 C60_2 1_555 1_555
C61_2 C56_2 1_555 1_555
H34_2 C61_2 1_555 1_555
C62_2 C59_2 1_555 1_555
C63_2 C62_2 1_555 1_555
H35_2 C63_2 1_555 1_555
O44 C64_2 1_555 1_555
O52 C64_2 1_555 1_555
C64_2 C65_2 1_555 1_555
C65_2 C66_2 1_555 1_555
C66_2 H36_2 1_555 1_555
C67_2 C66_2 1_555 1_555
H37_2 C67_2 1_555 1_555
C68_2 C67_2 1_555 1_555
C69_2 C68_2 1_555 1_555
H38_2 C69_2 1_555 1_555
C70_2 C65_2 1_555 1_555
H39_2 C70_2 1_555 1_555
C71_2 C68_2 1_555 1_555
C72_2 C62_2 1_555 1_555
H40_2 C72_2 1_555 1_555
O32_2 C73_2 1_555 1_555
O33_2 C73_2 1_555 1_555
C73_2 C74_2 1_555 1_555
C74_2 C75_2 1_555 1_555
C75_2 H41_2 1_555 1_555
C76_2 C75_2 1_555 1_555
H42_2 C76_2 1_555 1_555
C77_2 C76_2 1_555 1_555
C78_2 C77_2 1_555 1_555
H43_2 C78_2 1_555 1_555
C79_2 C74_2 1_555 1_555
H44_2 C79_2 1_555 1_555
C80_2 C63_2 1_555 1_555
C81_2 C71_2 1_555 1_555
H45_2 C81_2 1_555 1_555
Co16 O32_2 1_555 1_555
Co22_2 O33_2 1_555 1_555
O49 C55_2 1_555 1_555
C60_2 C61_2 1_555 1_555
C69_2 C70_2 1_555 1_555
C71_2 C72_2 1_555 1_555
C77_2 C80_2 1_555 1_555
C78_2 C79_2 1_555 1_555
C80_2 C81_2 1_555 1_555
O53_2 Co16 1_555 1_555
O26_5 Co22 1_555 1_555
O26_6 Co22_2 1_555 1_555
O26_7 Co23 1_555 1_555
O26_8 Co23_2 1_555 1_555
O3_3 Co1_2 1_555 1_555
O5_3 Co1_2 1_555 1_555
O6_3 Co2_3 1_555 1_555
Co4_3 O11_3 1_555 1_555
O11_3 Co3_2 1_555 1_555
O12_3 Co1_2 1_555 1_555
O13_3 Co4_3 1_555 1_555
Co5_2 O3_3 1_555 1_555
O14_3 Co5_2 1_555 1_555
O15_3 Co5_2 1_555 1_555
Co6_2 O11_3 1_555 1_555
O28_2 Co6_2 1_555 1_555
O29_2 Co4_3 1_555 1_555
C55_3 O28_2 1_555 1_555
C56_3 C55_3 1_555 1_555
C57_3 C56_3 1_555 1_555
H31_3 C57_3 1_555 1_555
C58_3 C57_3 1_555 1_555
H32_3 C58_3 1_555 1_555
C59_3 C58_3 1_555 1_555
C60_3 C59_3 1_555 1_555
H33_3 C60_3 1_555 1_555
C61_3 C56_3 1_555 1_555
H34_3 C61_3 1_555 1_555
C62_3 C59_3 1_555 1_555
C63_3 C62_3 1_555 1_555
H35_3 C63_3 1_555 1_555
O30_2 C64_3 1_555 1_555
O31_2 C64_3 1_555 1_555
C64_3 C65_3 1_555 1_555
C65_3 C66_3 1_555 1_555
C66_3 H36_3 1_555 1_555
C67_3 C66_3 1_555 1_555
H37_3 C67_3 1_555 1_555
C68_3 C67_3 1_555 1_555
C69_3 C68_3 1_555 1_555
H38_3 C69_3 1_555 1_555
C70_3 C65_3 1_555 1_555
H39_3 C70_3 1_555 1_555
C71_3 C68_3 1_555 1_555
C72_3 C62_3 1_555 1_555
H40_3 C72_3 1_555 1_555
O32_3 C73_3 1_555 1_555
O33_3 C73_3 1_555 1_555
C73_3 C74_3 1_555 1_555
C74_3 C75_3 1_555 1_555
C75_3 H41_3 1_555 1_555
C76_3 C75_3 1_555 1_555
H42_3 C76_3 1_555 1_555
C77_3 C76_3 1_555 1_555
C78_3 C77_3 1_555 1_555
H43_3 C78_3 1_555 1_555
C79_3 C74_3 1_555 1_555
H44_3 C79_3 1_555 1_555
C80_3 C63_3 1_555 1_555
C81_3 C71_3 1_555 1_555
H45_3 C81_3 1_555 1_555
Co13_2 O30_2 1_555 1_555
Co17_2 O32_3 1_555 1_555
Co20_3 O31_2 1_555 1_555
Co23_3 O33_3 1_555 1_555
O40_2 Co3_2 1_555 1_555
O41_2 Co5_2 1_555 1_555
O43_2 Co1_2 1_555 1_555
O46_2 Co4_3 1_555 1_555
O47_2 Co2_3 1_555 1_555
O50_2 Co2_3 1_555 1_555
Co2_3 O3_3 1_555 1_555
O5_3 Co3_2 1_555 1_555
Co3_2 O12_3 1_555 1_555
O14_3 Co6_2 1_555 1_555
O15_3 Co6_2 1_555 1_555
O29_2 C55_3 1_555 1_555
C60_3 C61_3 1_555 1_555
C69_3 C70_3 1_555 1_555
C71_3 C72_3 1_555 1_555
C77_3 C80_3 1_555 1_555
C78_3 C79_3 1_555 1_555
C80_3 C81_3 1_555 1_555
O23_5 Co7_2 1_555 1_555
O25_5 Co7_2 1_555 1_555
O26_9 Co8_3 1_555 1_555
Co12_2 O23_5 1_555 1_555
O44_3 Co7_2 1_555 1_555
O48_2 Co8_3 1_555 1_555
O52_2 Co8_3 1_555 1_555
O54_5 Co7_2 1_555 1_555
Co8_3 O23_5 1_555 1_555
O25_5 Co11_2 1_555 1_555
Co11_2 O54_5 1_555 1_555
O45_2 Co9_2 1_555 1_555
O53_5 Co9_2 1_555 1_555
O55_5 Co9_2 1_555 1_555
O56_5 Co9_2 1_555 1_555
Co15_2 O55_5 1_555 1_555
Co15_2 O56_5 1_555 1_555
Co22_3 O53_5 1_555 1_555
Co1_3 O1_2 1_555 1_555
Co2_4 O2_2 1_555 1_555
O1_2 C1_3 1_555 1_555
O2_2 C1_3 1_555 1_555
O3_4 Co1_3 1_555 1_555
O4_3 Co1_3 1_555 1_555
O5_4 Co1_3 1_555 1_555
O6_4 Co2_4 1_555 1_555
C1_3 C2_3 1_555 1_555
C2_3 C3_3 1_555 1_555
C3_3 H1_3 1_555 1_555
C4_3 C3_3 1_555 1_555
H2_3 C4_3 1_555 1_555
C5_3 C4_3 1_555 1_555
C6_3 C5_3 1_555 1_555
H3_3 C6_3 1_555 1_555
C7_3 C2_3 1_555 1_555
H4_3 C7_3 1_555 1_555
C8_3 C5_3 1_555 1_555
C9_3 C8_3 1_555 1_555
H5_3 C9_3 1_555 1_555
O7_3 C10_3 1_555 1_555
O8_2 C10_3 1_555 1_555
C10_3 C11_3 1_555 1_555
C11_3 C12_3 1_555 1_555
C12_3 H6_3 1_555 1_555
C13_3 C12_3 1_555 1_555
H7_3 C13_3 1_555 1_555
C14_3 C13_3 1_555 1_555
C15_3 C14_3 1_555 1_555
H8_3 C15_3 1_555 1_555
C16_3 C11_3 1_555 1_555
H9_3 C16_3 1_555 1_555
C17_3 C14_3 1_555 1_555
C18_3 C8_3 1_555 1_555
H10_3 C18_3 1_555 1_555
O9_3 C19_3 1_555 1_555
O10_3 C19_3 1_555 1_555
C19_3 C20_3 1_555 1_555
C20_3 C21_3 1_555 1_555
C21_3 H11_3 1_555 1_555
C22_3 C21_3 1_555 1_555
H12_3 C22_3 1_555 1_555
C23_3 C22_3 1_555 1_555
C24_3 C23_3 1_555 1_555
H13_3 C24_3 1_555 1_555
C25_3 C20_3 1_555 1_555
H14_3 C25_3 1_555 1_555
C26_3 C9_3 1_555 1_555
C27_3 C17_3 1_555 1_555
H15_3 C27_3 1_555 1_555
Co3_3 O4_3 1_555 1_555
Co4_4 O11_4 1_555 1_555
O11_4 Co3_3 1_555 1_555
O13_4 Co4_4 1_555 1_555
Co5_3 O3_4 1_555 1_555
O15_4 Co5_3 1_555 1_555
Co6_3 O11_4 1_555 1_555
O16_2 Co6_3 1_555 1_555
O17_2 Co4_4 1_555 1_555
O18_3 Co5_3 1_555 1_555
C28_3 O16_2 1_555 1_555
C29_3 C28_3 1_555 1_555
C30_3 C29_3 1_555 1_555
H16_3 C30_3 1_555 1_555
C31_3 C30_3 1_555 1_555
H17_3 C31_3 1_555 1_555
C32_3 C31_3 1_555 1_555
C33_3 C32_3 1_555 1_555
H18_3 C33_3 1_555 1_555
C34_3 C29_3 1_555 1_555
H19_3 C34_3 1_555 1_555
C35_3 C32_3 1_555 1_555
C36_3 C35_3 1_555 1_555
H20_3 C36_3 1_555 1_555
O19_3 C37_3 1_555 1_555
O20_3 C37_3 1_555 1_555
C37_3 C38_3 1_555 1_555
C38_3 C39_3 1_555 1_555
C39_3 H21_3 1_555 1_555
C40_3 C39_3 1_555 1_555
H22_3 C40_3 1_555 1_555
C41_3 C40_3 1_555 1_555
C42_3 C41_3 1_555 1_555
H23_3 C42_3 1_555 1_555
C43_3 C38_3 1_555 1_555
H24_3 C43_3 1_555 1_555
C44_3 C41_3 1_555 1_555
C45_3 C35_3 1_555 1_555
H25_3 C45_3 1_555 1_555
O21_3 C46_3 1_555 1_555
O22_3 C46_3 1_555 1_555
C46_3 C47_3 1_555 1_555
C47_3 C48_3 1_555 1_555
C48_3 H26_3 1_555 1_555
C49_3 C48_3 1_555 1_555
H27_3 C49_3 1_555 1_555
C50_3 C49_3 1_555 1_555
C51_3 C50_3 1_555 1_555
H28_3 C51_3 1_555 1_555
C52_3 C47_3 1_555 1_555
H29_3 C52_3 1_555 1_555
C53_3 C36_3 1_555 1_555
C54_3 C44_3 1_555 1_555
H30_3 C54_3 1_555 1_555
Co7_3 O7_3 1_555 1_555
Co8_4 O8_2 1_555 1_555
O23_6 Co7_3 1_555 1_555
O24_5 Co7_3 1_555 1_555
O25_6 Co7_3 1_555 1_555
O26_10 Co8_4 1_555 1_555
Co9_3 O9_3 1_555 1_555
O27_5 Co9_3 1_555 1_555
O34_2 Co5_3 1_555 1_555
O35_2 Co2_4 1_555 1_555
C82_3 O34_2 1_555 1_555
C83_3 C82_3 1_555 1_555
C84_3 C83_3 1_555 1_555
H46_3 C84_3 1_555 1_555
C85_3 C84_3 1_555 1_555
H47_3 C85_3 1_555 1_555
C86_3 C85_3 1_555 1_555
C87_3 C86_3 1_555 1_555
H48_3 C87_3 1_555 1_555
C88_3 C83_3 1_555 1_555
H49_3 C88_3 1_555 1_555
C89_3 C86_3 1_555 1_555
C90_3 C89_3 1_555 1_555
H50_3 C90_3 1_555 1_555
O36_2 C91_3 1_555 1_555
O37_2 C91_3 1_555 1_555
C91_3 C92_3 1_555 1_555
C92_3 C93_3 1_555 1_555
C93_3 H51_3 1_555 1_555
C94_3 C93_3 1_555 1_555
H52_3 C94_3 1_555 1_555
C95_3 C94_3 1_555 1_555
C96_3 C95_3 1_555 1_555
H53_3 C96_3 1_555 1_555
C97_3 C92_3 1_555 1_555
H54_3 C97_3 1_555 1_555
C98_3 C95_3 1_555 1_555
C99_3 C89_3 1_555 1_555
H55_3 C99_3 1_555 1_555
O45_2 C100_3 1_555 1_555
O39_3 C100_3 1_555 1_555
C100_3 C101_3 1_555 1_555
C101_3 C102_3 1_555 1_555
C102_3 H56_3 1_555 1_555
C103_3 C102_3 1_555 1_555
H57_3 C103_3 1_555 1_555
C104_3 C103_3 1_555 1_555
C105_3 C104_3 1_555 1_555
H58_3 C105_3 1_555 1_555
C106_3 C101_3 1_555 1_555
H59_3 C106_3 1_555 1_555
C107_3 C90_3 1_555 1_555
C108_3 C98_3 1_555 1_555
H60_3 C108_3 1_555 1_555
Co11_2 O19_3 1_555 1_555
Co11_3 O24_5 1_555 1_555
Co12_3 O23_6 1_555 1_555
Co15_3 O27_5 1_555 1_555
Co16_2 O21_3 1_555 1_555
Co20_3 O20_3 1_555 1_555
Co20_4 O37_2 1_555 1_555
Co22_3 O22_3 1_555 1_555
Co22_4 O10_3 1_555 1_555
O42_2 Co3_3 1_555 1_555
O49_2 Co4_4 1_555 1_555
O51_2 Co8_4 1_555 1_555
O53_6 Co9_3 1_555 1_555
O56_6 Co9_3 1_555 1_555
Co2_4 O3_4 1_555 1_555
O5_4 Co3_3 1_555 1_555
C6_3 C7_3 1_555 1_555
C15_3 C16_3 1_555 1_555
C17_3 C18_3 1_555 1_555
C23_3 C26_3 1_555 1_555
C24_3 C25_3 1_555 1_555
C26_3 C27_3 1_555 1_555
O15_4 Co6_3 1_555 1_555
Co6_3 O18_3 1_555 1_555
O17_2 C28_3 1_555 1_555
C33_3 C34_3 1_555 1_555
C42_3 C43_3 1_555 1_555
C44_3 C45_3 1_555 1_555
C50_3 C53_3 1_555 1_555
C51_3 C52_3 1_555 1_555
C53_3 C54_3 1_555 1_555
Co8_4 O23_6 1_555 1_555
O25_6 Co11_3 1_555 1_555
O35_2 C82_3 1_555 1_555
C87_3 C88_3 1_555 1_555
O36_2 Co11_3 1_555 1_555
C96_3 C97_3 1_555 1_555
C98_3 C99_3 1_555 1_555
O39_3 Co22_3 1_555 1_555
C104_3 C107_3 1_555 1_555
C105_3 C106_3 1_555 1_555
C107_3 C108_3 1_555 1_555
Co15_3 O56_6 1_555 1_555
Co22_4 O53_6 1_555 1_555
O53_7 Co17_2 1_555 1_555
O55_6 Co17_2 1_555 1_555
O56_7 Co17_2 1_555 1_555
Co16_2 O55_6 1_555 1_555
Co16_2 O56_7 1_555 1_555
Co23_3 O53_7 1_555 1_555
O40_2 C1_4 1_555 1_555
O46_2 C1_4 1_555 1_555
C1_4 C2_4 1_555 1_555
C2_4 C3_4 1_555 1_555
C3_4 H1_4 1_555 1_555
C4_4 C3_4 1_555 1_555
H2_4 C4_4 1_555 1_555
C5_4 C4_4 1_555 1_555
C6_4 C5_4 1_555 1_555
H3_4 C6_4 1_555 1_555
C7_4 C2_4 1_555 1_555
H4_4 C7_4 1_555 1_555
C8_4 C5_4 1_555 1_555
C9_4 C8_4 1_555 1_555
H5_4 C9_4 1_555 1_555
O7_4 C10_4 1_555 1_555
O48_2 C10_4 1_555 1_555
C10_4 C11_4 1_555 1_555
C11_4 C12_4 1_555 1_555
C12_4 H6_4 1_555 1_555
C13_4 C12_4 1_555 1_555
H7_4 C13_4 1_555 1_555
C14_4 C13_4 1_555 1_555
C15_4 C14_4 1_555 1_555
H8_4 C15_4 1_555 1_555
C16_4 C11_4 1_555 1_555
H9_4 C16_4 1_555 1_555
C17_4 C14_4 1_555 1_555
C18_4 C8_4 1_555 1_555
H10_4 C18_4 1_555 1_555
O9_4 C19_4 1_555 1_555
O10_4 C19_4 1_555 1_555
C19_4 C20_4 1_555 1_555
C20_4 C21_4 1_555 1_555
C21_4 H11_4 1_555 1_555
C22_4 C21_4 1_555 1_555
H12_4 C22_4 1_555 1_555
C23_4 C22_4 1_555 1_555
C24_4 C23_4 1_555 1_555
H13_4 C24_4 1_555 1_555
C25_4 C20_4 1_555 1_555
H14_4 C25_4 1_555 1_555
C26_4 C9_4 1_555 1_555
C27_4 C17_4 1_555 1_555
H15_4 C27_4 1_555 1_555
C28_4 O41_2 1_555 1_555
C29_4 C28_4 1_555 1_555
C30_4 C29_4 1_555 1_555
H16_4 C30_4 1_555 1_555
C31_4 C30_4 1_555 1_555
H17_4 C31_4 1_555 1_555
C32_4 C31_4 1_555 1_555
C33_4 C32_4 1_555 1_555
H18_4 C33_4 1_555 1_555
C34_4 C29_4 1_555 1_555
H19_4 C34_4 1_555 1_555
C35_4 C32_4 1_555 1_555
C36_4 C35_4 1_555 1_555
H20_4 C36_4 1_555 1_555
O19_4 C37_4 1_555 1_555
O20_4 C37_4 1_555 1_555
C37_4 C38_4 1_555 1_555
C38_4 C39_4 1_555 1_555
C39_4 H21_4 1_555 1_555
C40_4 C39_4 1_555 1_555
H22_4 C40_4 1_555 1_555
C41_4 C40_4 1_555 1_555
C42_4 C41_4 1_555 1_555
H23_4 C42_4 1_555 1_555
C43_4 C38_4 1_555 1_555
H24_4 C43_4 1_555 1_555
C44_4 C41_4 1_555 1_555
C45_4 C35_4 1_555 1_555
H25_4 C45_4 1_555 1_555
O21_4 C46_4 1_555 1_555
O22_4 C46_4 1_555 1_555
C46_4 C47_4 1_555 1_555
C47_4 C48_4 1_555 1_555
C48_4 H26_4 1_555 1_555
C49_4 C48_4 1_555 1_555
H27_4 C49_4 1_555 1_555
C50_4 C49_4 1_555 1_555
C51_4 C50_4 1_555 1_555
H28_4 C51_4 1_555 1_555
C52_4 C47_4 1_555 1_555
H29_4 C52_4 1_555 1_555
C53_4 C36_4 1_555 1_555
C54_4 C44_4 1_555 1_555
H30_4 C54_4 1_555 1_555
Co12_2 O7_4 1_555 1_555
O24_6 Co12_2 1_555 1_555
O25_7 Co12_2 1_555 1_555
Co17_3 O9_4 1_555 1_555
O27_6 Co17_3 1_555 1_555
Co13_3 O19_4 1_555 1_555
Co13_2 O24_6 1_555 1_555
Co16_3 O27_6 1_555 1_555
Co15_2 O21_4 1_555 1_555
Co20_4 O20_4 1_555 1_555
Co23_3 O22_4 1_555 1_555
Co23_4 O10_4 1_555 1_555
O53_8 Co17_3 1_555 1_555
O56_8 Co17_3 1_555 1_555
C6_4 C7_4 1_555 1_555
C15_4 C16_4 1_555 1_555
C17_4 C18_4 1_555 1_555
C23_4 C26_4 1_555 1_555
C24_4 C25_4 1_555 1_555
C26_4 C27_4 1_555 1_555
O47_2 C28_4 1_555 1_555
C33_4 C34_4 1_555 1_555
C42_4 C43_4 1_555 1_555
C44_4 C45_4 1_555 1_555
C50_4 C53_4 1_555 1_555
C51_4 C52_4 1_555 1_555
C53_4 C54_4 1_555 1_555
O25_7 Co13_2 1_555 1_555
Co16_3 O56_8 1_555 1_555
Co23_4 O53_8 1_555 1_555
O25_8 Co12_3 1_555 1_555
O44_4 Co12_3 1_555 1_555
O54_6 Co12_3 1_555 1_555
O25_8 Co13_3 1_555 1_555
Co13_3 O54_6 1_555 1_555
O23_7 Co13_2 1_555 1_555
O26_11 Co20_3 1_555 1_555
Co11_2 O23_7 1_555 1_555
Co20_3 O23_7 1_555 1_555
O23_8 Co13_3 1_555 1_555
O26_12 Co20_4 1_555 1_555
C82_4 O43_2 1_555 1_555
C83_4 C82_4 1_555 1_555
C84_4 C83_4 1_555 1_555
H46_4 C84_4 1_555 1_555
C85_4 C84_4 1_555 1_555
H47_4 C85_4 1_555 1_555
C86_4 C85_4 1_555 1_555
C87_4 C86_4 1_555 1_555
H48_4 C87_4 1_555 1_555
C88_4 C83_4 1_555 1_555
H49_4 C88_4 1_555 1_555
C89_4 C86_4 1_555 1_555
C90_4 C89_4 1_555 1_555
H50_4 C90_4 1_555 1_555
O44_4 C91_4 1_555 1_555
O51_2 C91_4 1_555 1_555
C91_4 C92_4 1_555 1_555
C92_4 C93_4 1_555 1_555
C93_4 H51_4 1_555 1_555
C94_4 C93_4 1_555 1_555
H52_4 C94_4 1_555 1_555
C95_4 C94_4 1_555 1_555
C96_4 C95_4 1_555 1_555
H53_4 C96_4 1_555 1_555
C97_4 C92_4 1_555 1_555
H54_4 C97_4 1_555 1_555
C98_4 C95_4 1_555 1_555
C99_4 C89_4 1_555 1_555
H55_4 C99_4 1_555 1_555
O38_2 C100_4 1_555 1_555
O39_4 C100_4 1_555 1_555
C100_4 C101_4 1_555 1_555
C101_4 C102_4 1_555 1_555
C102_4 H56_4 1_555 1_555
C103_4 C102_4 1_555 1_555
H57_4 C103_4 1_555 1_555
C104_4 C103_4 1_555 1_555
C105_4 C104_4 1_555 1_555
H58_4 C105_4 1_555 1_555
C106_4 C101_4 1_555 1_555
H59_4 C106_4 1_555 1_555
C107_4 C90_4 1_555 1_555
C108_4 C98_4 1_555 1_555
H60_4 C108_4 1_555 1_555
Co11_3 O23_8 1_555 1_555
Co15_3 O38_2 1_555 1_555
O53_7 Co15_2 1_555 1_555
Co20_4 O23_8 1_555 1_555
O50_2 C82_4 1_555 1_555
C87_4 C88_4 1_555 1_555
C96_4 C97_4 1_555 1_555
C98_4 C99_4 1_555 1_555
O39_4 Co23_4 1_555 1_555
C104_4 C107_4 1_555 1_555
C105_4 C106_4 1_555 1_555
C107_4 C108_4 1_555 1_555
O53_8 Co15_3 1_555 1_555
C55_4 O42_2 1_555 1_555
C56_4 C55_4 1_555 1_555
C57_4 C56_4 1_555 1_555
H31_4 C57_4 1_555 1_555
C58_4 C57_4 1_555 1_555
H32_4 C58_4 1_555 1_555
C59_4 C58_4 1_555 1_555
C60_4 C59_4 1_555 1_555
H33_4 C60_4 1_555 1_555
C61_4 C56_4 1_555 1_555
H34_4 C61_4 1_555 1_555
C62_4 C59_4 1_555 1_555
C63_4 C62_4 1_555 1_555
H35_4 C63_4 1_555 1_555
O44_3 C64_4 1_555 1_555
O52_2 C64_4 1_555 1_555
C64_4 C65_4 1_555 1_555
C65_4 C66_4 1_555 1_555
C66_4 H36_4 1_555 1_555
C67_4 C66_4 1_555 1_555
H37_4 C67_4 1_555 1_555
C68_4 C67_4 1_555 1_555
C69_4 C68_4 1_555 1_555
H38_4 C69_4 1_555 1_555
C70_4 C65_4 1_555 1_555
H39_4 C70_4 1_555 1_555
C71_4 C68_4 1_555 1_555
C72_4 C62_4 1_555 1_555
H40_4 C72_4 1_555 1_555
O32_4 C73_4 1_555 1_555
O33_4 C73_4 1_555 1_555
C73_4 C74_4 1_555 1_555
C74_4 C75_4 1_555 1_555
C75_4 H41_4 1_555 1_555
C76_4 C75_4 1_555 1_555
H42_4 C76_4 1_555 1_555
C77_4 C76_4 1_555 1_555
C78_4 C77_4 1_555 1_555
H43_4 C78_4 1_555 1_555
C79_4 C74_4 1_555 1_555
H44_4 C79_4 1_555 1_555
C80_4 C63_4 1_555 1_555
C81_4 C71_4 1_555 1_555
H45_4 C81_4 1_555 1_555
Co16_3 O32_4 1_555 1_555
Co22_4 O33_4 1_555 1_555
O49_2 C55_4 1_555 1_555
C60_4 C61_4 1_555 1_555
C69_4 C70_4 1_555 1_555
C71_4 C72_4 1_555 1_555
C77_4 C80_4 1_555 1_555
C78_4 C79_4 1_555 1_555
C80_4 C81_4 1_555 1_555
O53_5 Co16_2 1_555 1_555
O53_6 Co16_3 1_555 1_555
O26_13 Co22_3 1_555 1_555
O26_14 Co22_4 1_555 1_555
O26_15 Co23_3 1_555 1_555
O26_16 Co23_4 1_555 1_555

#END
