
###############################################################################
#
# This file contains modified crystal structure data generated from the
# MOF subset of the Cambridge Structural Database (CSD) v543 
# hosted by the Cambridge Crystallographic Data Centre (CCDC).
#
# This work is licensed under the Creative Commons
# Attribution-NonCommercial-ShareAlike 4.0 International License.
# To view a copy of this license, visit
# http://creativecommons.org/licenses/by-nc-sa/4.0/
# or send a letter to
# Creative Commons, PO Box 1866, Mountain View, CA 94042, USA.
#
# CIF created using the CSD Python API on 29 September 2022
# The structure has been converted into the P1 space group
# The structure has a 3D framework
# The original CSD entry DIBQIQ is in the orthorhombic crystal system
# The framework has been calculated to contain at least 10.0% void space
# The void calculation uses a probe of radius 1.32A, grid spacing 0.4
# H atom positions have been added when not included in the experimental data
# Generated hydrogen atom positions removed from atoms on special positions
#
###############################################################################

data_DIBQIQ
_chemical_formula_moiety         '(C228 H172 Co12 N4 O64)n'
_symmetry_cell_setting           triclinic
_symmetry_space_group_name_H-M   'P 1'
_symmetry_Int_Tables_number      1
_space_group_name_Hall           'P 1'
loop_
_symmetry_equiv_pos_site_id
_symmetry_equiv_pos_as_xyz
1 x,y,z
_cell_length_a                   17.446(4)
_cell_length_b                   27.758(6)
_cell_length_c                   18.762(4)
_cell_angle_alpha                90
_cell_angle_beta                 90
_cell_angle_gamma                90
_cell_volume                     9085.8
loop_
_atom_site_label
_atom_site_type_symbol
_atom_site_fract_x
_atom_site_fract_y
_atom_site_fract_z
O5 O 0.31656(14) 0.30131(11) 0.09230(19)
O6 O 0.39021(17) 0.34866(18) 0.0279(3)
C8 C 0.3266(2) 0.33492(18) 0.0514(3)
C9 C 0.2579(2) 0.36442(17) 0.0282(3)
C13 C 0.1238(2) 0.38317(18) 0.0404(3)
H7 H 0.0781 0.3796 0.0653
C14 C 0.1877(2) 0.35818(17) 0.0619(3)
H8 H 0.1839 0.3367 0.0997
O13 O 0.31656(14) 0.19869(11) 0.09230(19)
O14 O 0.39021(17) 0.15134(18) 0.0279(3)
C38 C 0.3266(2) 0.16508(18) 0.0514(3)
C39 C 0.2579(2) 0.13558(17) 0.0282(3)
C43 C 0.1238(2) 0.11683(18) 0.0404(3)
H23 H 0.0781 0.1204 0.0653
C44 C 0.1877(2) 0.14182(17) 0.0619(3)
H24 H 0.1839 0.1633 0.0997
Co4 Co 0.49344(3) 0.31713(2) 0.03322(4)
Co6 Co 0.49344(3) 0.18287(2) 0.03322(4)
Co8 Co 0.38134(3) 0.2500 0.14526(5)
O7 O 0.06916(16) 0.69600(10) 0.70697(18)
C10 C 0.2621(2) 0.3976(2) 0.9753(4)
H5 H 0.3096 0.4048 0.9554
C11 C 0.1973(3) 0.4210(2) 0.9502(4)
H6 H 0.2014 0.4418 0.9116
C12 C 0.1268(2) 0.41379(18) 0.9818(3)
C15 C 0.0247(2) 0.66265(17) 0.6917(3)
C16 C 0.0153(2) 0.62250(15) 0.7433(3)
C19 C 0.00069(19) 0.54276(17) 0.8349(3)
C20 C 0.0543(2) 0.57949(17) 0.8484(3)
H11 H 0.0864 0.5772 0.8878
C21 C 0.0599(2) 0.61872(15) 0.8042(3)
H12 H 0.0942 0.6432 0.8153
C24 C 0.0564(2) 0.43786(18) 0.9531(3)
C25 C 0.0606(2) 0.47863(16) 0.9116(3)
H14 H 0.1083 0.4923 0.9027
C40 C 0.2621(2) 0.1024(2) 0.9753(4)
H21 H 0.3096 0.0952 0.9554
C41 C 0.1973(3) 0.0790(2) 0.9502(4)
H22 H 0.2014 0.0582 0.9116
C42 C 0.1268(2) 0.08621(18) 0.9818(3)
C54 C 0.0564(2) 0.06214(18) 0.9531(3)
C55 C 0.0606(2) 0.02137(16) 0.9116(3)
H30 H 0.1083 0.0077 0.9027
Co5 Co 0.00656(3) 0.68287(2) 0.53322(4)
Co10 Co 0.11866(3) 0.7500 0.64526(5)
O15 O 0.06916(16) 0.80400(10) 0.70697(18)
C45 C 0.0247(2) 0.83735(17) 0.6917(3)
C46 C 0.0153(2) 0.87750(15) 0.7433(3)
C49 C 0.00069(19) 0.95724(17) 0.8349(3)
C50 C 0.0543(2) 0.92051(17) 0.8484(3)
H27 H 0.0864 0.9228 0.8878
C51 C 0.0599(2) 0.88128(15) 0.8042(3)
H28 H 0.0942 0.8568 0.8153
Co7 Co 0.00656(3) 0.81713(2) 0.53322(4)
O2 O 0.4745(2) 0.2500 0.0723(3)
O4 O 0.61509(17) 0.31294(13) 0.0199(2)
C1 C 0.6189(2) 0.3553(2) 0.0008(3)
O9 O 0.2936(3) 0.2500 0.2240(3)
N1 N 0.1605(7) 0.2500 0.2457(11)
C28 C 0.2258(5) 0.2500 0.2027(8)
H16 H 0.2181 0.2500 0.1537
C29 C 0.1764(15) 0.2500 0.3291(9)
C30 C 0.0832(11) 0.2500 0.1994(13)
O12 O 0.61509(17) 0.18706(13) 0.0199(2)
C31 C 0.6189(2) 0.1447(2) 0.0008(3)
O21 O 0.43084(16) 0.30400(10) 0.20697(18)
O22 O 0.43084(16) 0.19600(10) 0.20697(18)
O23 O 0.5132(2) 0.34021(16) 0.1354(3)
O24 O 0.5132(2) 0.15979(16) 0.1354(3)
H34 H 0.0816425 0.217967 0.16592
H35 H 0.0338384 0.25 0.234928
H36 H 0.0816425 0.282033 0.16592
H37 H 0.209006 0.282033 0.343375
H38 H 0.122084 0.25 0.357703
H39 H 0.209006 0.217967 0.343375
O1 O 0.4768(3) 0.2995(3) 0.9237(3)
O3 O 0.56047(17) 0.38127(16) 0.9959(3)
O8 O 0.9868(2) 0.65979(16) 0.6354(3)
C2 C 0.6962(2) 0.37792(17) 0.9862(3)
C3 C 0.7606(3) 0.3497(2) 0.9875(4)
H1 H 0.7570 0.3172 0.9993
C4 C 0.8314(3) 0.3698(2) 0.9710(4)
H2 H 0.8743 0.3500 0.9704
C5 C 0.8401(2) 0.41721(17) 0.9560(3)
C6 C 0.7766(2) 0.4456(2) 0.9579(4)
H3 H 0.7811 0.4785 0.9489
C7 C 0.7047(3) 0.4260(2) 0.9732(4)
H4 H 0.6620 0.4460 0.9745
C17 C 0.9612(2) 0.58520(17) 0.7300(3)
H9 H 0.9302 0.5867 0.6898
C18 C 0.9547(2) 0.54744(18) 0.7756(3)
H10 H 0.9179 0.5240 0.7665
C22 C 0.9174(2) 0.43872(17) 0.9399(3)
C23 C 0.9832(2) 0.41688(17) 0.9652(3)
H13 H 0.9795 0.3881 0.9904
C26 C 0.9951(2) 0.50010(15) 0.8822(3)
C27 C 0.9239(2) 0.47932(16) 0.8977(3)
H15 H 0.8797 0.4932 0.8791
O10 O 0.4768(3) 0.2005(3) 0.9237(3)
O11 O 0.56047(17) 0.11873(16) 0.9959(3)
C32 C 0.6962(2) 0.12208(17) 0.9862(3)
C33 C 0.7606(3) 0.1503(2) 0.9875(4)
H17 H 0.7570 0.1828 0.9993
C34 C 0.8314(3) 0.1302(2) 0.9710(4)
H18 H 0.8743 0.1500 0.9704
C35 C 0.8401(2) 0.08279(17) 0.9560(3)
C36 C 0.7766(2) 0.0544(2) 0.9579(4)
H19 H 0.7811 0.0215 0.9489
C37 C 0.7047(3) 0.0740(2) 0.9732(4)
H20 H 0.6620 0.0540 0.9745
C52 C 0.9174(2) 0.06128(17) 0.9399(3)
C53 C 0.9832(2) 0.08312(17) 0.9652(3)
H29 H 0.9795 0.1119 0.9904
C57 C 0.9239(2) 0.02068(16) 0.8977(3)
H31 H 0.8797 0.0068 0.8791
O16 O 0.9868(2) 0.84021(16) 0.6354(3)
C47 C 0.9612(2) 0.91480(17) 0.7300(3)
H25 H 0.9302 0.9133 0.6898
C48 C 0.9547(2) 0.95256(18) 0.7756(3)
H26 H 0.9179 0.9760 0.7665
C56 C 0.9951(2) 0.99990(15) 0.8822(3)
O1_2 O 0.0232(3) 0.7005(3) 0.4237(3)
O2_2 O 0.0255(2) 0.7500 0.5723(3)
O9_2 O 0.2064(3) 0.7500 0.7240(3)
N1_2 N 0.3395(7) 0.7500 0.7457(11)
C28_2 C 0.2742(5) 0.7500 0.7027(8)
H16_2 H 0.2819 0.7500 0.6537
C29_2 C 0.3236(15) 0.7500 0.8291(9)
C30_2 C 0.4168(11) 0.7500 0.6994(13)
O10_2 O 0.0232(3) 0.7995(3) 0.4237(3)
O17 O 0.18344(14) 0.69869(11) 0.59230(19)
O18 O 0.18344(14) 0.80131(11) 0.59230(19)
O19 O 0.10979(17) 0.65134(18) 0.5279(3)
O20 O 0.10979(17) 0.84866(18) 0.5279(3)
H32 H 0.0758821 0.713213 0.416794
H33 H 0.0161399 0.671164 0.39413
H34_2 H 0.418357 0.782033 0.66592
H35_2 H 0.466162 0.75 0.734928
H36_2 H 0.418357 0.717967 0.66592
H37_2 H 0.290994 0.717967 0.843375
H38_2 H 0.377916 0.75 0.857703
H39_2 H 0.290994 0.782033 0.843375
H41 H 0.0161399 0.828836 0.39413
C45_2 C 0.4753(2) 0.16265(17) 0.1917(3)
C46_2 C 0.4847(2) 0.12250(15) 0.2433(3)
C47_2 C 0.5388(2) 0.08520(17) 0.2300(3)
H25_2 H 0.5698 0.0867 0.1898
C48_2 C 0.5453(2) 0.04744(18) 0.2756(3)
H26_2 H 0.5821 0.0240 0.2665
C49_2 C 0.49931(19) 0.04276(17) 0.3349(3)
C50_2 C 0.4457(2) 0.07949(17) 0.3484(3)
H27_2 H 0.4136 0.0772 0.3878
C51_2 C 0.4401(2) 0.11872(15) 0.3042(3)
H28_2 H 0.4058 0.1432 0.3153
C56_2 C 0.5049(2) 0.00010(15) 0.3822(3)
O3_2 O 0.93953(17) 0.61873(16) 0.4959(3)
O4_2 O 0.88491(17) 0.68706(13) 0.5199(2)
C1_2 C 0.8811(2) 0.6447(2) 0.5008(3)
C2_2 C 0.8038(2) 0.62208(17) 0.4862(3)
C3_2 C 0.7394(3) 0.6503(2) 0.4875(4)
H1_2 H 0.7430 0.6828 0.4993
C4_2 C 0.6686(3) 0.6302(2) 0.4710(4)
H2_2 H 0.6257 0.6500 0.4704
C5_2 C 0.6599(2) 0.58279(17) 0.4560(3)
C6_2 C 0.7234(2) 0.5544(2) 0.4579(4)
H3_2 H 0.7189 0.5215 0.4489
C7_2 C 0.7953(3) 0.5740(2) 0.4732(4)
H4_2 H 0.8380 0.5540 0.4745
C8_2 C 0.1734(2) 0.66508(18) 0.5514(3)
C9_2 C 0.2421(2) 0.63558(17) 0.5282(3)
C10_2 C 0.2379(2) 0.6024(2) 0.4753(4)
H5_2 H 0.1904 0.5952 0.4554
C11_2 C 0.3027(3) 0.5790(2) 0.4502(4)
H6_2 H 0.2986 0.5582 0.4116
C12_2 C 0.3732(2) 0.58621(18) 0.4818(3)
C13_2 C 0.3762(2) 0.61683(18) 0.5404(3)
H7_2 H 0.4219 0.6204 0.5653
C14_2 C 0.3123(2) 0.64182(17) 0.5619(3)
H8_2 H 0.3161 0.6633 0.5997
C15_2 C 0.4753(2) 0.33735(17) 0.1917(3)
C16_2 C 0.4847(2) 0.37750(15) 0.2433(3)
C17_2 C 0.5388(2) 0.41480(17) 0.2300(3)
H9_2 H 0.5698 0.4133 0.1898
C18_2 C 0.5453(2) 0.45256(18) 0.2756(3)
H10_2 H 0.5821 0.4760 0.2665
C19_2 C 0.49931(19) 0.45724(17) 0.3349(3)
C20_2 C 0.4457(2) 0.42051(17) 0.3484(3)
H11_2 H 0.4136 0.4228 0.3878
C21_2 C 0.4401(2) 0.38128(15) 0.3042(3)
H12_2 H 0.4058 0.3568 0.3153
C22_2 C 0.5826(2) 0.56128(17) 0.4399(3)
C23_2 C 0.5168(2) 0.58312(17) 0.4652(3)
H13_2 H 0.5205 0.6119 0.4904
C24_2 C 0.4436(2) 0.56214(18) 0.4531(3)
C25_2 C 0.4394(2) 0.52137(16) 0.4116(3)
H14_2 H 0.3917 0.5077 0.4027
C26_2 C 0.5049(2) 0.49990(15) 0.3822(3)
C27_2 C 0.5761(2) 0.52068(16) 0.3977(3)
H15_2 H 0.6203 0.5068 0.3791
O11_2 O 0.93953(17) 0.88127(16) 0.4959(3)
O12_2 O 0.88491(17) 0.81294(13) 0.5199(2)
C31_2 C 0.8811(2) 0.8553(2) 0.5008(3)
C32_2 C 0.8038(2) 0.87792(17) 0.4862(3)
C33_2 C 0.7394(3) 0.8497(2) 0.4875(4)
H17_2 H 0.7430 0.8172 0.4993
C34_2 C 0.6686(3) 0.8698(2) 0.4710(4)
H18_2 H 0.6257 0.8500 0.4704
C35_2 C 0.6599(2) 0.91721(17) 0.4560(3)
C36_2 C 0.7234(2) 0.9456(2) 0.4579(4)
H19_2 H 0.7189 0.9785 0.4489
C37_2 C 0.7953(3) 0.9260(2) 0.4732(4)
H20_2 H 0.8380 0.9460 0.4745
C38_2 C 0.1734(2) 0.83492(18) 0.5514(3)
C39_2 C 0.2421(2) 0.86442(17) 0.5282(3)
C40_2 C 0.2379(2) 0.8976(2) 0.4753(4)
H21_2 H 0.1904 0.9048 0.4554
C41_2 C 0.3027(3) 0.9210(2) 0.4502(4)
H22_2 H 0.2986 0.9418 0.4116
C42_2 C 0.3732(2) 0.91379(18) 0.4818(3)
C43_2 C 0.3762(2) 0.88317(18) 0.5404(3)
H23_2 H 0.4219 0.8796 0.5653
C44_2 C 0.3123(2) 0.85818(17) 0.5619(3)
H24_2 H 0.3161 0.8367 0.5997
C52_2 C 0.5826(2) 0.93872(17) 0.4399(3)
C53_2 C 0.5168(2) 0.91688(17) 0.4652(3)
H29_2 H 0.5205 0.8881 0.4904
C54_2 C 0.4436(2) 0.93786(18) 0.4531(3)
C55_2 C 0.4394(2) 0.97863(16) 0.4116(3)
H30_2 H 0.3917 0.9923 0.4027
C57_2 C 0.5761(2) 0.97932(16) 0.3977(3)
H31_2 H 0.6203 0.9932 0.3791
H40 H 0.985328 0.774667 0.409169
H32_2 H 0.0758821 0.786787 0.416794
H40_2 H 0.985328 0.725333 0.409169
O8_2 O 0.0132(2) 0.15979(16) 0.3646(3)
C17_3 C 0.0388(2) 0.08520(17) 0.2700(3)
H9_3 H 0.0698 0.0867 0.3102
C18_3 C 0.0453(2) 0.04744(18) 0.2244(3)
H10_3 H 0.0821 0.0240 0.2335
C26_3 C 0.0049(2) 0.00010(15) 0.1178(3)
O1_3 O 0.5232(3) 0.7995(3) 0.0763(3)
O3_3 O 0.43953(17) 0.88127(16) 0.0041(3)
C2_3 C 0.3038(2) 0.87792(17) 0.0138(3)
C3_3 C 0.2394(3) 0.8497(2) 0.0125(4)
H1_3 H 0.2430 0.8172 0.0007
C4_3 C 0.1686(3) 0.8698(2) 0.0290(4)
H2_3 H 0.1257 0.8500 0.0296
C5_3 C 0.1599(2) 0.91721(17) 0.0440(3)
C6_3 C 0.2234(2) 0.9456(2) 0.0421(4)
H3_3 H 0.2189 0.9785 0.0511
C7_3 C 0.2953(3) 0.9260(2) 0.0268(4)
H4_3 H 0.3380 0.9460 0.0255
C22_3 C 0.0826(2) 0.93872(17) 0.0601(3)
C23_3 C 0.0168(2) 0.91688(17) 0.0348(3)
H13_3 H 0.0205 0.8881 0.0096
C27_3 C 0.0761(2) 0.97932(16) 0.1023(3)
H15_3 H 0.1203 0.9932 0.1209
O10_3 O 0.5232(3) 0.7005(3) 0.0763(3)
O11_3 O 0.43953(17) 0.61873(16) 0.0041(3)
O16_2 O 0.0132(2) 0.34021(16) 0.3646(3)
C32_3 C 0.3038(2) 0.62208(17) 0.0138(3)
C33_3 C 0.2394(3) 0.6503(2) 0.0125(4)
H17_3 H 0.2430 0.6828 0.0007
C34_3 C 0.1686(3) 0.6302(2) 0.0290(4)
H18_3 H 0.1257 0.6500 0.0296
C35_3 C 0.1599(2) 0.58279(17) 0.0440(3)
C36_3 C 0.2234(2) 0.5544(2) 0.0421(4)
H19_3 H 0.2189 0.5215 0.0511
C37_3 C 0.2953(3) 0.5740(2) 0.0268(4)
H20_3 H 0.3380 0.5540 0.0255
C47_3 C 0.0388(2) 0.41480(17) 0.2700(3)
H25_3 H 0.0698 0.4133 0.3102
C48_3 C 0.0453(2) 0.45256(18) 0.2244(3)
H26_3 H 0.0821 0.4760 0.2335
C52_3 C 0.0826(2) 0.56128(17) 0.0601(3)
C53_3 C 0.0168(2) 0.58312(17) 0.0348(3)
H29_3 H 0.0205 0.6119 0.0096
C56_3 C 0.0049(2) 0.49990(15) 0.1178(3)
C57_3 C 0.0761(2) 0.52068(16) 0.1023(3)
H31_3 H 0.1203 0.5068 0.1209
Co1 Co 0.50656(3) 0.81713(2) 0.96678(4)
Co2 Co 0.61866(3) 0.7500 0.85474(5)
O2_3 O 0.5255(2) 0.7500 0.9277(3)
O4_3 O 0.38491(17) 0.81294(13) 0.9801(2)
C1_3 C 0.3811(2) 0.8553(2) 0.9992(3)
O9_3 O 0.7064(3) 0.7500 0.7760(3)
N1_3 N 0.8395(7) 0.7500 0.7543(11)
C28_3 C 0.7742(5) 0.7500 0.7973(8)
H16_3 H 0.7819 0.7500 0.8463
C29_3 C 0.8236(15) 0.7500 0.6709(9)
C30_3 C 0.9168(11) 0.7500 0.8006(13)
Co3 Co 0.50656(3) 0.68287(2) 0.96678(4)
O12_3 O 0.38491(17) 0.68706(13) 0.9801(2)
C31_3 C 0.3811(2) 0.6447(2) 0.9992(3)
O17_2 O 0.68344(14) 0.80131(11) 0.90770(19)
O18_2 O 0.68344(14) 0.69869(11) 0.90770(19)
O19_2 O 0.60979(17) 0.84866(18) 0.9721(3)
O20_2 O 0.60979(17) 0.65134(18) 0.9721(3)
O21_2 O 0.56916(16) 0.80400(10) 0.79303(18)
O22_2 O 0.56916(16) 0.69600(10) 0.79303(18)
O23_2 O 0.4868(2) 0.84021(16) 0.8646(3)
O24_2 O 0.4868(2) 0.65979(16) 0.8646(3)
H34_3 H 0.918357 0.717967 0.83408
H35_3 H 0.966162 0.75 0.765072
H36_3 H 0.918357 0.782033 0.83408
H37_3 H 0.790994 0.782033 0.656625
H38_3 H 0.877916 0.75 0.642297
H39_3 H 0.790994 0.717967 0.656625
O7_2 O 0.93084(16) 0.19600(10) 0.29303(18)
C15_3 C 0.9753(2) 0.16265(17) 0.3083(3)
C16_3 C 0.9847(2) 0.12250(15) 0.2567(3)
C19_3 C 0.99931(19) 0.04276(17) 0.1651(3)
C20_3 C 0.9457(2) 0.07949(17) 0.1516(3)
H11_3 H 0.9136 0.0772 0.1122
C21_3 C 0.9401(2) 0.11872(15) 0.1958(3)
H12_3 H 0.9058 0.1432 0.1847
Co5_2 Co 0.99344(3) 0.18287(2) 0.46678(4)
Co10_2 Co 0.88134(3) 0.2500 0.35474(5)
C10_3 C 0.7379(2) 0.8976(2) 0.0247(4)
H5_3 H 0.6904 0.9048 0.0446
C11_3 C 0.8027(3) 0.9210(2) 0.0498(4)
H6_3 H 0.7986 0.9418 0.0884
C12_3 C 0.8732(2) 0.91379(18) 0.0182(3)
C24_3 C 0.9436(2) 0.93786(18) 0.0469(3)
C25_3 C 0.9394(2) 0.97863(16) 0.0884(3)
H14_3 H 0.8917 0.9923 0.0973
O15_2 O 0.93084(16) 0.30400(10) 0.29303(18)
C40_3 C 0.7379(2) 0.6024(2) 0.0247(4)
H21_3 H 0.6904 0.5952 0.0446
C41_3 C 0.8027(3) 0.5790(2) 0.0498(4)
H22_3 H 0.7986 0.5582 0.0884
C42_3 C 0.8732(2) 0.58621(18) 0.0182(3)
C45_3 C 0.9753(2) 0.33735(17) 0.3083(3)
C46_3 C 0.9847(2) 0.37750(15) 0.2567(3)
C49_3 C 0.99931(19) 0.45724(17) 0.1651(3)
C50_3 C 0.9457(2) 0.42051(17) 0.1516(3)
H27_3 H 0.9136 0.4228 0.1122
C51_3 C 0.9401(2) 0.38128(15) 0.1958(3)
H28_3 H 0.9058 0.3568 0.1847
C54_3 C 0.9436(2) 0.56214(18) 0.0469(3)
C55_3 C 0.9394(2) 0.52137(16) 0.0884(3)
H30_3 H 0.8917 0.5077 0.0973
Co7_2 Co 0.99344(3) 0.31713(2) 0.46678(4)
C8_3 C 0.6734(2) 0.83492(18) 0.9486(3)
C9_3 C 0.7421(2) 0.86442(17) 0.9718(3)
C13_3 C 0.8762(2) 0.88317(18) 0.9596(3)
H7_3 H 0.9219 0.8796 0.9347
C14_3 C 0.8123(2) 0.85818(17) 0.9381(3)
H8_3 H 0.8161 0.8367 0.9003
C38_3 C 0.6734(2) 0.66508(18) 0.9486(3)
C39_3 C 0.7421(2) 0.63558(17) 0.9718(3)
C43_3 C 0.8762(2) 0.61683(18) 0.9596(3)
H23_3 H 0.9219 0.6204 0.9347
C44_3 C 0.8123(2) 0.64182(17) 0.9381(3)
H24_3 H 0.8161 0.6633 0.9003
O3_4 O 0.06047(17) 0.11873(16) 0.5041(3)
O4_4 O 0.11509(17) 0.18706(13) 0.4801(2)
O5_2 O 0.81656(14) 0.19869(11) 0.40770(19)
O6_2 O 0.89021(17) 0.15134(18) 0.4721(3)
C1_4 C 0.1189(2) 0.1447(2) 0.4992(3)
C2_4 C 0.1962(2) 0.12208(17) 0.5138(3)
C3_4 C 0.2606(3) 0.1503(2) 0.5125(4)
H1_4 H 0.2570 0.1828 0.5007
C4_4 C 0.3314(3) 0.1302(2) 0.5290(4)
H2_4 H 0.3743 0.1500 0.5296
C5_4 C 0.3401(2) 0.08279(17) 0.5440(3)
C6_4 C 0.2766(2) 0.0544(2) 0.5421(4)
H3_4 H 0.2811 0.0215 0.5511
C7_4 C 0.2047(3) 0.0740(2) 0.5268(4)
H4_4 H 0.1620 0.0540 0.5255
C8_4 C 0.8266(2) 0.16508(18) 0.4486(3)
C9_4 C 0.7579(2) 0.13558(17) 0.4718(3)
C10_4 C 0.7621(2) 0.1024(2) 0.5247(4)
H5_4 H 0.8096 0.0952 0.5446
C11_4 C 0.6973(3) 0.0790(2) 0.5498(4)
H6_4 H 0.7014 0.0582 0.5884
C12_4 C 0.6268(2) 0.08621(18) 0.5182(3)
C13_4 C 0.6238(2) 0.11683(18) 0.4596(3)
H7_4 H 0.5781 0.1204 0.4347
C14_4 C 0.6877(2) 0.14182(17) 0.4381(3)
H8_4 H 0.6839 0.1633 0.4003
C22_4 C 0.4174(2) 0.06128(17) 0.5601(3)
C23_4 C 0.4832(2) 0.08312(17) 0.5348(3)
H13_4 H 0.4795 0.1119 0.5096
C24_4 C 0.5564(2) 0.06214(18) 0.5469(3)
C25_4 C 0.5606(2) 0.02137(16) 0.5884(3)
H14_4 H 0.6083 0.0077 0.5973
C27_4 C 0.4239(2) 0.02068(16) 0.6023(3)
H15_4 H 0.3797 0.0068 0.6209
O11_4 O 0.06047(17) 0.38127(16) 0.5041(3)
O12_4 O 0.11509(17) 0.31294(13) 0.4801(2)
O13_2 O 0.81656(14) 0.30131(11) 0.40770(19)
O14_2 O 0.89021(17) 0.34866(18) 0.4721(3)
C31_4 C 0.1189(2) 0.3553(2) 0.4992(3)
C32_4 C 0.1962(2) 0.37792(17) 0.5138(3)
C33_4 C 0.2606(3) 0.3497(2) 0.5125(4)
H17_4 H 0.2570 0.3172 0.5007
C34_4 C 0.3314(3) 0.3698(2) 0.5290(4)
H18_4 H 0.3743 0.3500 0.5296
C35_4 C 0.3401(2) 0.41721(17) 0.5440(3)
C36_4 C 0.2766(2) 0.4456(2) 0.5421(4)
H19_4 H 0.2811 0.4785 0.5511
C37_4 C 0.2047(3) 0.4260(2) 0.5268(4)
H20_4 H 0.1620 0.4460 0.5255
C38_4 C 0.8266(2) 0.33492(18) 0.4486(3)
C39_4 C 0.7579(2) 0.36442(17) 0.4718(3)
C40_4 C 0.7621(2) 0.3976(2) 0.5247(4)
H21_4 H 0.8096 0.4048 0.5446
C41_4 C 0.6973(3) 0.4210(2) 0.5498(4)
H22_4 H 0.7014 0.4418 0.5884
C42_4 C 0.6268(2) 0.41379(18) 0.5182(3)
C43_4 C 0.6238(2) 0.38317(18) 0.4596(3)
H23_4 H 0.5781 0.3796 0.4347
C44_4 C 0.6877(2) 0.35818(17) 0.4381(3)
H24_4 H 0.6839 0.3367 0.4003
C45_4 C 0.5247(2) 0.66265(17) 0.8083(3)
C46_4 C 0.5153(2) 0.62250(15) 0.7567(3)
C47_4 C 0.4612(2) 0.58520(17) 0.7700(3)
H25_4 H 0.4302 0.5867 0.8102
C48_4 C 0.4547(2) 0.54744(18) 0.7244(3)
H26_4 H 0.4179 0.5240 0.7335
C49_4 C 0.50069(19) 0.54276(17) 0.6651(3)
C50_4 C 0.5543(2) 0.57949(17) 0.6516(3)
H27_4 H 0.5864 0.5772 0.6122
C51_4 C 0.5599(2) 0.61872(15) 0.6958(3)
H28_4 H 0.5942 0.6432 0.6847
C52_4 C 0.4174(2) 0.43872(17) 0.5601(3)
C53_4 C 0.4832(2) 0.41688(17) 0.5348(3)
H29_4 H 0.4795 0.3881 0.5096
C54_4 C 0.5564(2) 0.43786(18) 0.5469(3)
C55_4 C 0.5606(2) 0.47863(16) 0.5884(3)
H30_4 H 0.6083 0.4923 0.5973
C56_4 C 0.4951(2) 0.50010(15) 0.6178(3)
C57_4 C 0.4239(2) 0.47932(16) 0.6023(3)
H31_4 H 0.3797 0.4932 0.6209
H40_3 H 0.0146723 0.274667 0.590831
C15_4 C 0.5247(2) 0.83735(17) 0.8083(3)
C16_4 C 0.5153(2) 0.87750(15) 0.7567(3)
C17_4 C 0.4612(2) 0.91480(17) 0.7700(3)
H9_4 H 0.4302 0.9133 0.8102
C18_4 C 0.4547(2) 0.95256(18) 0.7244(3)
H10_4 H 0.4179 0.9760 0.7335
C19_4 C 0.50069(19) 0.95724(17) 0.6651(3)
C20_4 C 0.5543(2) 0.92051(17) 0.6516(3)
H11_4 H 0.5864 0.9228 0.6122
C21_4 C 0.5599(2) 0.88128(15) 0.6958(3)
H12_4 H 0.5942 0.8568 0.6847
C26_4 C 0.4951(2) 0.99990(15) 0.6178(3)
O1_4 O 0.9768(3) 0.2005(3) 0.5763(3)
O2_4 O 0.9745(2) 0.2500 0.4277(3)
O9_4 O 0.7936(3) 0.2500 0.2760(3)
N1_4 N 0.6605(7) 0.2500 0.2543(11)
C28_4 C 0.7258(5) 0.2500 0.2973(8)
H16_4 H 0.7181 0.2500 0.3463
C29_4 C 0.6764(15) 0.2500 0.1709(9)
C30_4 C 0.5832(11) 0.2500 0.3006(13)
O10_4 O 0.9768(3) 0.2995(3) 0.5763(3)
H32_3 H 0.924118 0.213213 0.583206
H33_2 H 0.98386 0.171164 0.60587
H34_4 H 0.581643 0.282033 0.33408
H35_4 H 0.533838 0.25 0.265072
H36_4 H 0.581643 0.217967 0.33408
H37_4 H 0.709006 0.217967 0.156625
H38_4 H 0.622084 0.25 0.142297
H39_4 H 0.709006 0.282033 0.156625
H41_2 H 0.98386 0.328836 0.60587
H40_4 H 0.0146723 0.225333 0.590831
H32_4 H 0.924118 0.286787 0.583206
loop_
_geom_bond_atom_site_label_1
_geom_bond_atom_site_label_2
_geom_bond_site_symmetry_1
_geom_bond_site_symmetry_2
O5 C8 1_555 1_555
O6 C8 1_555 1_555
C8 C9 1_555 1_555
H7 C13 1_555 1_555
C14 C9 1_555 1_555
H8 C14 1_555 1_555
O13 C38 1_555 1_555
O14 C38 1_555 1_555
C38 C39 1_555 1_555
H23 C43 1_555 1_555
C44 C39 1_555 1_555
H24 C44 1_555 1_555
Co4 O6 1_555 1_555
Co6 O14 1_555 1_555
Co8 O5 1_555 1_555
C13 C14 1_555 1_555
O13 Co8 1_555 1_555
C43 C44 1_555 1_555
O7 C15 1_555 1_555
C10 H5 1_555 1_555
C11 C10 1_555 1_555
H6 C11 1_555 1_555
C12 C11 1_555 1_555
C15 C16 1_555 1_555
C20 C19 1_555 1_555
H11 C20 1_555 1_555
C21 C16 1_555 1_555
H12 C21 1_555 1_555
C24 C12 1_555 1_555
C25 C24 1_555 1_555
H14 C25 1_555 1_555
C40 H21 1_555 1_555
C41 C40 1_555 1_555
H22 C41 1_555 1_555
C42 C41 1_555 1_555
C54 C42 1_555 1_555
C55 C54 1_555 1_555
H30 C55 1_555 1_555
Co10 O7 1_555 1_555
C20 C21 1_555 1_555
O15 C45 1_555 1_555
C45 C46 1_555 1_555
C50 C49 1_555 1_555
H27 C50 1_555 1_555
C51 C46 1_555 1_555
H28 C51 1_555 1_555
Co10 O15 1_555 1_555
C50 C51 1_555 1_555
Co8 O2 1_555 1_555
O2 Co4 1_555 1_555
O4 Co4 1_555 1_555
O9 Co8 1_555 1_555
N1 C28 1_555 1_555
C28 O9 1_555 1_555
H16 C28 1_555 1_555
C29 N1 1_555 1_555
C30 N1 1_555 1_555
Co6 O2 1_555 1_555
O12 Co6 1_555 1_555
O21 Co8 1_555 1_555
O22 Co8 1_555 1_555
O23 Co4 1_555 1_555
O24 Co6 1_555 1_555
O4 C1 1_555 1_555
O12 C31 1_555 1_555
C30 H34 1_555 1_555
C30 H35 1_555 1_555
C30 H36 1_555 1_555
C29 H37 1_555 1_555
C29 H38 1_555 1_555
C29 H39 1_555 1_555
C3 C2 1_555 1_555
H1 C3 1_555 1_555
C4 C3 1_555 1_555
H2 C4 1_555 1_555
C5 C4 1_555 1_555
C6 C5 1_555 1_555
H3 C6 1_555 1_555
C7 C2 1_555 1_555
H4 C7 1_555 1_555
C17 H9 1_555 1_555
C18 C17 1_555 1_555
H10 C18 1_555 1_555
C22 C5 1_555 1_555
C23 C22 1_555 1_555
H13 C23 1_555 1_555
C27 C22 1_555 1_555
H15 C27 1_555 1_555
C33 C32 1_555 1_555
H17 C33 1_555 1_555
C34 C33 1_555 1_555
H18 C34 1_555 1_555
C35 C34 1_555 1_555
C36 C35 1_555 1_555
H19 C36 1_555 1_555
C37 C32 1_555 1_555
H20 C37 1_555 1_555
C52 C35 1_555 1_555
C53 C52 1_555 1_555
H29 C53 1_555 1_555
C57 C52 1_555 1_555
H31 C57 1_555 1_555
C6 C7 1_555 1_555
C26 C27 1_555 1_555
C36 C37 1_555 1_555
C47 H25 1_555 1_555
C48 C47 1_555 1_555
H26 C48 1_555 1_555
Co5 O1_2 1_555 1_555
Co10 O2_2 1_555 1_555
O2_2 Co5 1_555 1_555
O9_2 Co10 1_555 1_555
N1_2 C28_2 1_555 1_555
C28_2 O9_2 1_555 1_555
H16_2 C28_2 1_555 1_555
C29_2 N1_2 1_555 1_555
C30_2 N1_2 1_555 1_555
Co7 O2_2 1_555 1_555
O10_2 Co7 1_555 1_555
O17 Co10 1_555 1_555
O18 Co10 1_555 1_555
O19 Co5 1_555 1_555
O20 Co7 1_555 1_555
O1_2 H32 1_555 1_555
O1_2 H33 1_555 1_555
C30_2 H34_2 1_555 1_555
C30_2 H35_2 1_555 1_555
C30_2 H36_2 1_555 1_555
C29_2 H37_2 1_555 1_555
C29_2 H38_2 1_555 1_555
C29_2 H39_2 1_555 1_555
O10_2 H41 1_555 1_555
O22 C45_2 1_555 1_555
O24 C45_2 1_555 1_555
C45_2 C46_2 1_555 1_555
C46_2 C47_2 1_555 1_555
C47_2 H25_2 1_555 1_555
C48_2 C47_2 1_555 1_555
H26_2 C48_2 1_555 1_555
C49_2 C48_2 1_555 1_555
C50_2 C49_2 1_555 1_555
H27_2 C50_2 1_555 1_555
C51_2 C46_2 1_555 1_555
H28_2 C51_2 1_555 1_555
C56_2 C49_2 1_555 1_555
C50_2 C51_2 1_555 1_555
O17 C8_2 1_555 1_555
O19 C8_2 1_555 1_555
O21 C15_2 1_555 1_555
O23 C15_2 1_555 1_555
C1_2 O3_2 1_555 1_555
C2_2 C1_2 1_555 1_555
C3_2 C2_2 1_555 1_555
H1_2 C3_2 1_555 1_555
C4_2 C3_2 1_555 1_555
H2_2 C4_2 1_555 1_555
C5_2 C4_2 1_555 1_555
C6_2 C5_2 1_555 1_555
H3_2 C6_2 1_555 1_555
C7_2 C2_2 1_555 1_555
H4_2 C7_2 1_555 1_555
C8_2 C9_2 1_555 1_555
C9_2 C10_2 1_555 1_555
C10_2 H5_2 1_555 1_555
C11_2 C10_2 1_555 1_555
H6_2 C11_2 1_555 1_555
C12_2 C11_2 1_555 1_555
C13_2 C12_2 1_555 1_555
H7_2 C13_2 1_555 1_555
C14_2 C9_2 1_555 1_555
H8_2 C14_2 1_555 1_555
C15_2 C16_2 1_555 1_555
C16_2 C17_2 1_555 1_555
C17_2 H9_2 1_555 1_555
C18_2 C17_2 1_555 1_555
H10_2 C18_2 1_555 1_555
C19_2 C18_2 1_555 1_555
C20_2 C19_2 1_555 1_555
H11_2 C20_2 1_555 1_555
C21_2 C16_2 1_555 1_555
H12_2 C21_2 1_555 1_555
C22_2 C5_2 1_555 1_555
C23_2 C22_2 1_555 1_555
H13_2 C23_2 1_555 1_555
C24_2 C12_2 1_555 1_555
C25_2 C24_2 1_555 1_555
H14_2 C25_2 1_555 1_555
C26_2 C19_2 1_555 1_555
C27_2 C22_2 1_555 1_555
H15_2 C27_2 1_555 1_555
O18 C38_2 1_555 1_555
O20 C38_2 1_555 1_555
C31_2 O11_2 1_555 1_555
C32_2 C31_2 1_555 1_555
C33_2 C32_2 1_555 1_555
H17_2 C33_2 1_555 1_555
C34_2 C33_2 1_555 1_555
H18_2 C34_2 1_555 1_555
C35_2 C34_2 1_555 1_555
C36_2 C35_2 1_555 1_555
H19_2 C36_2 1_555 1_555
C37_2 C32_2 1_555 1_555
H20_2 C37_2 1_555 1_555
C38_2 C39_2 1_555 1_555
C39_2 C40_2 1_555 1_555
C40_2 H21_2 1_555 1_555
C41_2 C40_2 1_555 1_555
H22_2 C41_2 1_555 1_555
C42_2 C41_2 1_555 1_555
C43_2 C42_2 1_555 1_555
H23_2 C43_2 1_555 1_555
C44_2 C39_2 1_555 1_555
H24_2 C44_2 1_555 1_555
C52_2 C35_2 1_555 1_555
C53_2 C52_2 1_555 1_555
H29_2 C53_2 1_555 1_555
C54_2 C42_2 1_555 1_555
C55_2 C54_2 1_555 1_555
H30_2 C55_2 1_555 1_555
C57_2 C52_2 1_555 1_555
H31_2 C57_2 1_555 1_555
O4_2 C1_2 1_555 1_555
C6_2 C7_2 1_555 1_555
C13_2 C14_2 1_555 1_555
C20_2 C21_2 1_555 1_555
C23_2 C24_2 1_555 1_555
C25_2 C26_2 1_555 1_555
C26_2 C27_2 1_555 1_555
O12_2 C31_2 1_555 1_555
C36_2 C37_2 1_555 1_555
C43_2 C44_2 1_555 1_555
C53_2 C54_2 1_555 1_555
O10_2 H32_2 1_555 1_555
C17_3 H9_3 1_555 1_555
C18_3 C17_3 1_555 1_555
H10_3 C18_3 1_555 1_555
C3_3 C2_3 1_555 1_555
H1_3 C3_3 1_555 1_555
C4_3 C3_3 1_555 1_555
H2_3 C4_3 1_555 1_555
C5_3 C4_3 1_555 1_555
C6_3 C5_3 1_555 1_555
H3_3 C6_3 1_555 1_555
C7_3 C2_3 1_555 1_555
H4_3 C7_3 1_555 1_555
C22_3 C5_3 1_555 1_555
C23_3 C22_3 1_555 1_555
H13_3 C23_3 1_555 1_555
C27_3 C22_3 1_555 1_555
H15_3 C27_3 1_555 1_555
C33_3 C32_3 1_555 1_555
H17_3 C33_3 1_555 1_555
C34_3 C33_3 1_555 1_555
H18_3 C34_3 1_555 1_555
C35_3 C34_3 1_555 1_555
C36_3 C35_3 1_555 1_555
H19_3 C36_3 1_555 1_555
C37_3 C32_3 1_555 1_555
H20_3 C37_3 1_555 1_555
C47_3 H25_3 1_555 1_555
C48_3 C47_3 1_555 1_555
H26_3 C48_3 1_555 1_555
C52_3 C35_3 1_555 1_555
C53_3 C52_3 1_555 1_555
H29_3 C53_3 1_555 1_555
C57_3 C52_3 1_555 1_555
H31_3 C57_3 1_555 1_555
C6_3 C7_3 1_555 1_555
C36_3 C37_3 1_555 1_555
C56_3 C57_3 1_555 1_555
Co2 O2_3 1_555 1_555
O2_3 Co1 1_555 1_555
O4_3 Co1 1_555 1_555
O9_3 Co2 1_555 1_555
N1_3 C28_3 1_555 1_555
C28_3 O9_3 1_555 1_555
H16_3 C28_3 1_555 1_555
C29_3 N1_3 1_555 1_555
C30_3 N1_3 1_555 1_555
Co3 O2_3 1_555 1_555
O12_3 Co3 1_555 1_555
O17_2 Co2 1_555 1_555
O18_2 Co2 1_555 1_555
O19_2 Co1 1_555 1_555
O20_2 Co3 1_555 1_555
O21_2 Co2 1_555 1_555
O22_2 Co2 1_555 1_555
O23_2 Co1 1_555 1_555
O24_2 Co3 1_555 1_555
O4_3 C1_3 1_555 1_555
O12_3 C31_3 1_555 1_555
C30_3 H34_3 1_555 1_555
C30_3 H35_3 1_555 1_555
C30_3 H36_3 1_555 1_555
C29_3 H37_3 1_555 1_555
C29_3 H38_3 1_555 1_555
C29_3 H39_3 1_555 1_555
O7_2 C15_3 1_555 1_555
C15_3 C16_3 1_555 1_555
C20_3 C19_3 1_555 1_555
H11_3 C20_3 1_555 1_555
C21_3 C16_3 1_555 1_555
H12_3 C21_3 1_555 1_555
Co10_2 O7_2 1_555 1_555
C20_3 C21_3 1_555 1_555
C10_3 H5_3 1_555 1_555
C11_3 C10_3 1_555 1_555
H6_3 C11_3 1_555 1_555
C12_3 C11_3 1_555 1_555
C24_3 C12_3 1_555 1_555
C25_3 C24_3 1_555 1_555
H14_3 C25_3 1_555 1_555
O15_2 C45_3 1_555 1_555
C40_3 H21_3 1_555 1_555
C41_3 C40_3 1_555 1_555
H22_3 C41_3 1_555 1_555
C42_3 C41_3 1_555 1_555
C45_3 C46_3 1_555 1_555
C50_3 C49_3 1_555 1_555
H27_3 C50_3 1_555 1_555
C51_3 C46_3 1_555 1_555
H28_3 C51_3 1_555 1_555
C54_3 C42_3 1_555 1_555
C55_3 C54_3 1_555 1_555
H30_3 C55_3 1_555 1_555
Co10_2 O15_2 1_555 1_555
C50_3 C51_3 1_555 1_555
O17_2 C8_3 1_555 1_555
O19_2 C8_3 1_555 1_555
C8_3 C9_3 1_555 1_555
H7_3 C13_3 1_555 1_555
C14_3 C9_3 1_555 1_555
H8_3 C14_3 1_555 1_555
O18_2 C38_3 1_555 1_555
O20_2 C38_3 1_555 1_555
C38_3 C39_3 1_555 1_555
H23_3 C43_3 1_555 1_555
C44_3 C39_3 1_555 1_555
H24_3 C44_3 1_555 1_555
C13_3 C14_3 1_555 1_555
C43_3 C44_3 1_555 1_555
O5_2 C8_4 1_555 1_555
O6_2 C8_4 1_555 1_555
C1_4 O3_4 1_555 1_555
C2_4 C1_4 1_555 1_555
C3_4 C2_4 1_555 1_555
H1_4 C3_4 1_555 1_555
C4_4 C3_4 1_555 1_555
H2_4 C4_4 1_555 1_555
C5_4 C4_4 1_555 1_555
C6_4 C5_4 1_555 1_555
H3_4 C6_4 1_555 1_555
C7_4 C2_4 1_555 1_555
H4_4 C7_4 1_555 1_555
C8_4 C9_4 1_555 1_555
C9_4 C10_4 1_555 1_555
C10_4 H5_4 1_555 1_555
C11_4 C10_4 1_555 1_555
H6_4 C11_4 1_555 1_555
C12_4 C11_4 1_555 1_555
C13_4 C12_4 1_555 1_555
H7_4 C13_4 1_555 1_555
C14_4 C9_4 1_555 1_555
H8_4 C14_4 1_555 1_555
C22_4 C5_4 1_555 1_555
C23_4 C22_4 1_555 1_555
H13_4 C23_4 1_555 1_555
C24_4 C12_4 1_555 1_555
C25_4 C24_4 1_555 1_555
H14_4 C25_4 1_555 1_555
C27_4 C22_4 1_555 1_555
H15_4 C27_4 1_555 1_555
O13_2 C38_4 1_555 1_555
O14_2 C38_4 1_555 1_555
O22_2 C45_4 1_555 1_555
O24_2 C45_4 1_555 1_555
C31_4 O11_4 1_555 1_555
C32_4 C31_4 1_555 1_555
C33_4 C32_4 1_555 1_555
H17_4 C33_4 1_555 1_555
C34_4 C33_4 1_555 1_555
H18_4 C34_4 1_555 1_555
C35_4 C34_4 1_555 1_555
C36_4 C35_4 1_555 1_555
H19_4 C36_4 1_555 1_555
C37_4 C32_4 1_555 1_555
H20_4 C37_4 1_555 1_555
C38_4 C39_4 1_555 1_555
C39_4 C40_4 1_555 1_555
C40_4 H21_4 1_555 1_555
C41_4 C40_4 1_555 1_555
H22_4 C41_4 1_555 1_555
C42_4 C41_4 1_555 1_555
C43_4 C42_4 1_555 1_555
H23_4 C43_4 1_555 1_555
C44_4 C39_4 1_555 1_555
H24_4 C44_4 1_555 1_555
C45_4 C46_4 1_555 1_555
C46_4 C47_4 1_555 1_555
C47_4 H25_4 1_555 1_555
C48_4 C47_4 1_555 1_555
H26_4 C48_4 1_555 1_555
C49_4 C48_4 1_555 1_555
C50_4 C49_4 1_555 1_555
H27_4 C50_4 1_555 1_555
C51_4 C46_4 1_555 1_555
H28_4 C51_4 1_555 1_555
C52_4 C35_4 1_555 1_555
C53_4 C52_4 1_555 1_555
H29_4 C53_4 1_555 1_555
C54_4 C42_4 1_555 1_555
C55_4 C54_4 1_555 1_555
H30_4 C55_4 1_555 1_555
C56_4 C49_4 1_555 1_555
C57_4 C52_4 1_555 1_555
H31_4 C57_4 1_555 1_555
Co5_2 O6_2 1_555 1_555
Co7_2 O14_2 1_555 1_555
Co10_2 O5_2 1_555 1_555
O4_4 C1_4 1_555 1_555
C6_4 C7_4 1_555 1_555
C13_4 C14_4 1_555 1_555
C23_4 C24_4 1_555 1_555
O12_4 C31_4 1_555 1_555
O13_2 Co10_2 1_555 1_555
C36_4 C37_4 1_555 1_555
C43_4 C44_4 1_555 1_555
C50_4 C51_4 1_555 1_555
C53_4 C54_4 1_555 1_555
C55_4 C56_4 1_555 1_555
C56_4 C57_4 1_555 1_555
O21_2 C15_4 1_555 1_555
O23_2 C15_4 1_555 1_555
C15_4 C16_4 1_555 1_555
C16_4 C17_4 1_555 1_555
C17_4 H9_4 1_555 1_555
C18_4 C17_4 1_555 1_555
H10_4 C18_4 1_555 1_555
C19_4 C18_4 1_555 1_555
C20_4 C19_4 1_555 1_555
H11_4 C20_4 1_555 1_555
C21_4 C16_4 1_555 1_555
H12_4 C21_4 1_555 1_555
C26_4 C19_4 1_555 1_555
C20_4 C21_4 1_555 1_555
Co5_2 O1_4 1_555 1_555
Co10_2 O2_4 1_555 1_555
O2_4 Co5_2 1_555 1_555
O9_4 Co10_2 1_555 1_555
N1_4 C28_4 1_555 1_555
C28_4 O9_4 1_555 1_555
H16_4 C28_4 1_555 1_555
C29_4 N1_4 1_555 1_555
C30_4 N1_4 1_555 1_555
Co7_2 O2_4 1_555 1_555
O10_4 Co7_2 1_555 1_555
O1_4 H32_3 1_555 1_555
O1_4 H33_2 1_555 1_555
C30_4 H34_4 1_555 1_555
C30_4 H35_4 1_555 1_555
C30_4 H36_4 1_555 1_555
C29_4 H37_4 1_555 1_555
C29_4 H38_4 1_555 1_555
C29_4 H39_4 1_555 1_555
O10_4 H41_2 1_555 1_555
O10_4 H32_4 1_555 1_555

#END
