
###############################################################################
#
# This file contains modified crystal structure data generated from the
# MOF subset of the Cambridge Structural Database (CSD) v543 
# hosted by the Cambridge Crystallographic Data Centre (CCDC).
#
# This work is licensed under the Creative Commons
# Attribution-NonCommercial-ShareAlike 4.0 International License.
# To view a copy of this license, visit
# http://creativecommons.org/licenses/by-nc-sa/4.0/
# or send a letter to
# Creative Commons, PO Box 1866, Mountain View, CA 94042, USA.
#
# CIF created using the CSD Python API on 29 September 2022
# The structure has been converted into the P1 space group
# The structure has a 3D framework
# The original CSD entry DIBWUI is in the triclinic crystal system
# The framework has been calculated to contain at least 10.0% void space
# The void calculation uses a probe of radius 1.32A, grid spacing 0.4
#
###############################################################################

data_DIBWUI
_chemical_formula_moiety         '(C32 H20 Cu9 N10 O18 Tb2)n'
_symmetry_cell_setting           triclinic
_symmetry_space_group_name_H-M   'P 1'
_symmetry_Int_Tables_number      1
_space_group_name_Hall           'P 1'
loop_
_symmetry_equiv_pos_site_id
_symmetry_equiv_pos_as_xyz
1 x,y,z
_cell_length_a                   10.6720(16)
_cell_length_b                   10.7194(16)
_cell_length_c                   11.9351(18)
_cell_angle_alpha                70.341(2)
_cell_angle_beta                 77.928(2)
_cell_angle_gamma                60.8544(10)
_cell_volume                     1121.26
loop_
_atom_site_label
_atom_site_type_symbol
_atom_site_fract_x
_atom_site_fract_y
_atom_site_fract_z
Cu1 Cu 0.0000 0.0000 0.0000
Cu1_2 Cu -0.0000 0.0000 1.0000
Cu2 Cu -0.0000 0.0000 0.5000
N2 N 0.0239(4) 0.0185(4) 0.7387(3)
O20 O 0.2232(3) 0.0129(3) 0.9588(3)
Cu1_3 Cu 0.0000 1.0000 0.0000
H11 H 0.0106 0.2708 0.5148
N12 N 0.0476(4) 0.9897(4) 0.1553(3)
N16 N 0.1115(4) 0.7747(4) 0.0364(4)
H5 H 0.0052 0.2785 0.8231
Cu1_4 Cu 0.0000 1.0000 1.0000
Cu2_2 Cu 0.0000 1.0000 0.5000
N11 N 0.0548(4) 0.9761(4) 0.3377(3)
N13 N 0.0928(4) 0.7734(4) 0.5717(4)
O19 O 0.2346(3) 0.9918(4) 0.4559(3)
Cu1_5 Cu 1.0000 0.0000 0.0000
C20 C 0.2647(4) 0.0019(5) 0.0553(4)
C27 C 0.0766(6) 0.6819(6) 0.1287(5)
C28 C 0.1573(6) 0.5305(6) 0.1547(5)
H16 H 0.1314 0.4692 0.2206
C29 C 0.2783(5) 0.4691(5) 0.0817(5)
C32 C 0.3706(5) 0.3054(5) 0.1083(5)
O12 O 0.3818(3) 0.0041(3) 0.0563(3)
O16 O 0.4863(4) 0.2552(4) 0.0475(3)
O17 O 0.3325(4) 0.2195(4) 0.1925(3)
O18 O 0.6329(4) 0.0831(4) 0.2799(4)
H19 H 0.717(4) 0.047(7) 0.294(6)
H20 H 0.575(5) 0.102(7) 0.329(5)
C1 C 0.8218(5) 0.0228(5) 0.7169(4)
C2 C 0.8271(5) 0.0118(5) 0.8349(4)
C3 C 0.7163(5) 0.0348(5) 0.6419(4)
C5 C 0.0563(6) 0.6866(6) 0.5427(5)
C6 C 0.1137(6) 0.5362(7) 0.5947(5)
H2 H 0.0860 0.4790 0.5715
C7 C 0.2114(5) 0.4698(5) 0.6804(5)
C8 C 0.2488(7) 0.5604(7) 0.7090(6)
H3 H 0.3145 0.5206 0.7669
C9 C 0.1896(7) 0.7100(7) 0.6522(6)
H4 H 0.2189 0.7688 0.6712
C10 C 0.2761(5) 0.3064(5) 0.7430(4)
Cu1_6 Cu 1.0000 0.0000 1.0000
Cu2_3 Cu 1.0000 0.0000 0.5000
Tb1 Tb 0.45062(2) 0.00173(2) 0.83754(2)
N1 N 0.9452(4) 0.0239(4) 0.6623(3)
N3 N 0.9524(4) 0.0103(4) 0.8447(3)
O1 O 0.7654(3) 0.0082(4) 0.5441(3)
O2 O 0.5864(3) 0.0769(4) 0.6808(3)
O5 O 0.2604(4) 0.2189(4) 0.7051(3)
O6 O 0.3501(4) 0.2597(4) 0.8308(3)
C30 C 0.3126(5) 0.5669(5) 0.9864(5)
H17 H 0.3934 0.5305 0.9365
C31 C 0.2281(5) 0.7157(5) 0.9659(5)
H18 H 0.2518 0.7793 0.9006
N14 N 0.9072(4) 0.2266(4) 0.4283(4)
N15 N 0.8885(4) 0.2253(4) 0.9636(4)
C14 C 0.6874(5) 0.4331(5) 0.0136(5)
H7 H 0.6066 0.4695 0.0635
C15 C 0.7719(5) 0.2843(5) 0.0341(5)
H8 H 0.7482 0.2207 0.0994
Cu1_7 Cu 1.0000 1.0000 0.0000
O4 O 0.7768(3) 0.9871(3) 0.0412(3)
C17 C 0.1782(5) 0.9772(5) 0.2831(4)
C18 C 0.1729(5) 0.9882(5) 0.1651(4)
C19 C 0.2837(5) 0.9652(5) 0.3581(4)
C21 C 0.9437(6) 0.3134(6) 0.4573(5)
C22 C 0.8863(6) 0.4638(7) 0.4053(5)
H12 H 0.9140 0.5210 0.4285
C23 C 0.7886(5) 0.5302(5) 0.3196(5)
C24 C 0.7512(7) 0.4396(7) 0.2910(6)
H13 H 0.6855 0.4794 0.2331
C25 C 0.8104(7) 0.2900(7) 0.3478(6)
H14 H 0.7811 0.2312 0.3288
C26 C 0.7239(5) 0.6936(5) 0.2570(4)
Tb2 Tb 0.54938(2) 0.99827(2) 0.16246(2)
O11 O 0.4136(3) 0.9231(4) 0.3192(3)
O14 O 0.7396(4) 0.7811(4) 0.2949(3)
O15 O 0.6499(4) 0.7403(4) 0.1692(3)
C4 C 0.7353(4) 0.9981(5) 0.9447(4)
C11 C 0.9234(6) 0.3181(6) 0.8713(5)
C12 C 0.8427(6) 0.4695(6) 0.8453(5)
H6 H 0.8686 0.5308 0.7794
C13 C 0.7217(5) 0.5309(5) 0.9183(5)
C16 C 0.6294(5) 0.6946(5) 0.8917(5)
Cu1_8 Cu 1.0000 1.0000 1.0000
Cu2_4 Cu 1.0000 1.0000 0.5000
O3 O 0.6182(3) 0.9959(3) 0.9437(3)
O7 O 0.5137(4) 0.7448(4) 0.9525(3)
O8 O 0.6675(4) 0.7805(4) 0.8075(3)
O9 O 0.3671(4) 0.9169(4) 0.7201(4)
H9 H 0.283(4) 0.953(7) 0.706(6)
H10 H 0.425(5) 0.898(7) 0.671(5)
H15 H 0.9948 0.7215 0.1769
H1 H 0.9894 0.7292 0.4852
N7 N 0.9761(4) 0.9815(4) 0.2613(3)
loop_
_geom_bond_atom_site_label_1
_geom_bond_atom_site_label_2
_geom_bond_site_symmetry_1
_geom_bond_site_symmetry_2
O20 Cu1_2 1_555 1_555
N12 Cu1_3 1_555 1_555
N16 Cu1_3 1_555 1_555
N11 Cu2_2 1_555 1_555
N13 Cu2_2 1_555 1_555
O19 Cu2_2 1_555 1_555
C20 O12 1_555 1_555
C28 C27 1_555 1_555
H16 C28 1_555 1_555
C29 C28 1_555 1_555
C32 C29 1_555 1_555
N16 C27 1_555 1_555
O16 C32 1_555 1_555
O17 C32 1_555 1_555
H19 O18 1_555 1_555
H20 O18 1_555 1_555
C1 C2 1_555 1_555
C3 C1 1_555 1_555
C6 C5 1_555 1_555
H2 C6 1_555 1_555
C7 C6 1_555 1_555
C8 C7 1_555 1_555
H3 C8 1_555 1_555
C9 C8 1_555 1_555
H4 C9 1_555 1_555
C10 C7 1_555 1_555
Cu1_6 N3 1_555 1_555
Cu2_3 N1 1_555 1_555
Tb1 O2 1_555 1_555
N1 C1 1_555 1_555
N3 C2 1_555 1_555
N13 C5 1_555 1_555
O1 C3 1_555 1_555
O2 C3 1_555 1_555
O5 C10 1_555 1_555
O6 C10 1_555 1_555
H17 C30 1_555 1_555
C31 C30 1_555 1_555
H18 C31 1_555 1_555
O20 Tb1 1_555 1_555
N14 Cu2_3 1_555 1_555
N15 Cu1_6 1_555 1_555
C9 N13 1_555 1_555
Cu2_3 O1 1_555 1_555
Tb1 O5 1_555 1_555
Tb1 O6 1_555 1_555
H7 C14 1_555 1_555
C15 C14 1_555 1_555
H8 C15 1_555 1_555
C17 C18 1_555 1_555
C19 C17 1_555 1_555
C22 C21 1_555 1_555
H12 C22 1_555 1_555
C23 C22 1_555 1_555
C24 C23 1_555 1_555
H13 C24 1_555 1_555
C25 C24 1_555 1_555
H14 C25 1_555 1_555
C26 C23 1_555 1_555
N11 C17 1_555 1_555
N12 C18 1_555 1_555
N14 C21 1_555 1_555
O19 C19 1_555 1_555
O11 C19 1_555 1_555
O14 C26 1_555 1_555
O15 C26 1_555 1_555
Cu1_7 O4 1_555 1_555
O4 Tb2 1_555 1_555
C25 N14 1_555 1_555
Tb2 O11 1_555 1_555
Tb2 O14 1_555 1_555
Tb2 O15 1_555 1_555
C4 O3 1_555 1_555
C12 C11 1_555 1_555
H6 C12 1_555 1_555
C13 C12 1_555 1_555
C16 C13 1_555 1_555
N15 C11 1_555 1_555
O7 C16 1_555 1_555
O8 C16 1_555 1_555
H9 O9 1_555 1_555
H10 O9 1_555 1_555

#END
