
###############################################################################
#
# This file contains modified crystal structure data generated from the
# MOF subset of the Cambridge Structural Database (CSD) v543 
# hosted by the Cambridge Crystallographic Data Centre (CCDC).
#
# This work is licensed under the Creative Commons
# Attribution-NonCommercial-ShareAlike 4.0 International License.
# To view a copy of this license, visit
# http://creativecommons.org/licenses/by-nc-sa/4.0/
# or send a letter to
# Creative Commons, PO Box 1866, Mountain View, CA 94042, USA.
#
# CIF created using the CSD Python API on 29 September 2022
# The structure has been converted into the P1 space group
# The structure has a 3D framework
# The original CSD entry DIBXOD is in the triclinic crystal system
# The framework has been calculated to contain at least 10.0% void space
# The void calculation uses a probe of radius 1.32A, grid spacing 0.4
#
###############################################################################

data_DIBXOD
_chemical_formula_moiety         '(C32 H20 Cu9 Dy2 N10 O18)n'
_symmetry_cell_setting           triclinic
_symmetry_space_group_name_H-M   'P 1'
_symmetry_Int_Tables_number      1
_space_group_name_Hall           'P 1'
loop_
_symmetry_equiv_pos_site_id
_symmetry_equiv_pos_as_xyz
1 x,y,z
_cell_length_a                   10.6761(16)
_cell_length_b                   10.7356(16)
_cell_length_c                   11.9637(18)
_cell_angle_alpha                69.991(2)
_cell_angle_beta                 77.562(2)
_cell_angle_gamma                60.8412(10)
_cell_volume                     1123.18
loop_
_atom_site_label
_atom_site_type_symbol
_atom_site_fract_x
_atom_site_fract_y
_atom_site_fract_z
Cu1 Cu -0.0000 0.0000 0.0000
Cu1_2 Cu -0.0000 0.0000 1.0000
Cu2 Cu 0.0000 0.0000 0.5000
N2 N 0.0209(12) 0.0214(12) 0.7402(11)
O20 O 0.2214(10) 0.0145(10) 0.9581(9)
Cu1_3 Cu -0.0000 1.0000 0.0000
H11 H 0.0106 0.2722 0.5147
N12 N 0.0471(11) 0.9918(11) 0.1553(10)
N16 N 0.1123(12) 0.7726(13) 0.0370(11)
H5 H 0.0005 0.2817 0.8152
Cu1_4 Cu 0.0000 1.0000 1.0000
Cu2_2 Cu -0.0000 1.0000 0.5000
N11 N 0.0594(13) 0.9783(14) 0.3372(12)
N13 N 0.0907(13) 0.7733(14) 0.5719(12)
O19 O 0.2356(12) 0.9929(12) 0.4558(11)
Cu1_5 Cu 1.0000 0.0000 0.0000
C20 C 0.2656(13) 0.0044(14) 0.0562(12)
C27 C 0.0777(19) 0.6795(19) 0.1334(17)
C28 C 0.1580(18) 0.5286(18) 0.1549(16)
H16 H 0.1328 0.4652 0.2197
C29 C 0.2760(16) 0.4712(16) 0.0802(14)
C32 C 0.3714(14) 0.3035(14) 0.1082(12)
O12 O 0.3826(9) 0.0065(9) 0.0550(8)
O16 O 0.4875(12) 0.2517(12) 0.0446(11)
O17 O 0.3335(12) 0.2183(13) 0.1921(11)
O18 O 0.6304(13) 0.0796(13) 0.2778(11)
H19 H 0.714(7) 0.039(14) 0.298(15)
H20 H 0.590(13) 0.153(8) 0.299(12)
C1 C 0.8222(16) 0.0213(16) 0.7168(14)
C2 C 0.8284(14) 0.0119(14) 0.8361(12)
C3 C 0.7174(18) 0.0347(18) 0.6432(16)
C5 C 0.0558(19) 0.6858(19) 0.5428(17)
C6 C 0.1144(19) 0.536(2) 0.5945(17)
H2 H 0.0887 0.4787 0.5699
C7 C 0.2118(15) 0.4670(16) 0.6833(14)
C8 C 0.244(2) 0.559(2) 0.714(2)
H3 H 0.3074 0.5203 0.7730
C9 C 0.183(2) 0.708(2) 0.6567(19)
H4 H 0.2081 0.7672 0.6791
C10 C 0.2767(14) 0.3043(14) 0.7459(12)
Cu1_6 Cu 1.0000 0.0000 1.0000
Cu2_3 Cu 1.0000 0.0000 0.5000
Dy1 Dy 0.45137(7) 0.00163(7) 0.83855(6)
N1 N 0.9406(13) 0.0217(14) 0.6628(12)
N3 N 0.9529(11) 0.0082(11) 0.8447(10)
O1 O 0.7644(12) 0.0071(12) 0.5442(11)
O2 O 0.5859(11) 0.0744(11) 0.6851(10)
O5 O 0.2628(12) 0.2179(12) 0.7063(11)
O6 O 0.3546(13) 0.2582(13) 0.8290(11)
C30 C 0.3141(15) 0.5674(15) 0.9853(13)
H17 H 0.3948 0.5314 0.9350
C31 C 0.2299(16) 0.7164(17) 0.9681(15)
H18 H 0.2557 0.7816 0.9056
N14 N 0.9093(13) 0.2267(14) 0.4281(12)
N15 N 0.8877(12) 0.2274(13) 0.9630(11)
C14 C 0.6859(15) 0.4326(15) 0.0147(13)
H7 H 0.6052 0.4686 0.0650
C15 C 0.7701(16) 0.2836(17) 0.0319(15)
H8 H 0.7443 0.2184 0.0944
Cu1_7 Cu 1.0000 1.0000 0.0000
O4 O 0.7786(10) 0.9855(10) 0.0419(9)
C17 C 0.1778(16) 0.9787(16) 0.2832(14)
C18 C 0.1716(14) 0.9881(14) 0.1639(12)
C19 C 0.2826(18) 0.9653(18) 0.3568(16)
C21 C 0.9442(19) 0.3142(19) 0.4572(17)
C22 C 0.8856(19) 0.464(2) 0.4055(17)
H12 H 0.9113 0.5213 0.4301
C23 C 0.7882(15) 0.5330(16) 0.3167(14)
C24 C 0.756(2) 0.441(2) 0.286(2)
H13 H 0.6926 0.4797 0.2270
C25 C 0.817(2) 0.292(2) 0.3433(19)
H14 H 0.7919 0.2328 0.3209
C26 C 0.7233(14) 0.6957(14) 0.2541(12)
Dy2 Dy 0.54863(7) 0.99837(7) 0.16145(6)
O11 O 0.4141(11) 0.9256(11) 0.3149(10)
O14 O 0.7372(12) 0.7821(12) 0.2937(11)
O15 O 0.6454(13) 0.7418(13) 0.1710(11)
C4 C 0.7344(13) 0.9956(14) 0.9438(12)
C11 C 0.9223(19) 0.3205(19) 0.8666(17)
C12 C 0.8420(18) 0.4714(18) 0.8451(16)
H6 H 0.8672 0.5348 0.7803
C13 C 0.7240(16) 0.5288(16) 0.9198(14)
C16 C 0.6286(14) 0.6965(14) 0.8918(12)
Cu1_8 Cu 1.0000 1.0000 1.0000
Cu2_4 Cu 1.0000 1.0000 0.5000
O3 O 0.6174(9) 0.9935(9) 0.9450(8)
O7 O 0.5125(12) 0.7483(12) 0.9554(11)
O8 O 0.6665(12) 0.7817(13) 0.8079(11)
O9 O 0.3696(13) 0.9204(13) 0.7222(11)
H9 H 0.286(7) 0.961(14) 0.702(15)
H10 H 0.410(13) 0.847(8) 0.701(12)
H15 H 0.9995 0.7183 0.1848
H1 H 0.9894 0.7278 0.4853
N7 N 0.9791(12) 0.9786(12) 0.2598(11)
loop_
_geom_bond_atom_site_label_1
_geom_bond_atom_site_label_2
_geom_bond_site_symmetry_1
_geom_bond_site_symmetry_2
O20 Cu1_2 1_555 1_555
N12 Cu1_3 1_555 1_555
N16 Cu1_3 1_555 1_555
N11 Cu2_2 1_555 1_555
N13 Cu2_2 1_555 1_555
O19 Cu2_2 1_555 1_555
C20 O12 1_555 1_555
C28 C27 1_555 1_555
H16 C28 1_555 1_555
C29 C28 1_555 1_555
C32 C29 1_555 1_555
N16 C27 1_555 1_555
O16 C32 1_555 1_555
O17 C32 1_555 1_555
H19 O18 1_555 1_555
H20 O18 1_555 1_555
C1 C2 1_555 1_555
C3 C1 1_555 1_555
C6 C5 1_555 1_555
H2 C6 1_555 1_555
C7 C6 1_555 1_555
C8 C7 1_555 1_555
H3 C8 1_555 1_555
C9 C8 1_555 1_555
H4 C9 1_555 1_555
C10 C7 1_555 1_555
Cu1_6 N3 1_555 1_555
Cu2_3 N1 1_555 1_555
Dy1 O2 1_555 1_555
N1 C1 1_555 1_555
N3 C2 1_555 1_555
N13 C5 1_555 1_555
O1 C3 1_555 1_555
O2 C3 1_555 1_555
O5 C10 1_555 1_555
O6 C10 1_555 1_555
H17 C30 1_555 1_555
C31 C30 1_555 1_555
H18 C31 1_555 1_555
O20 Dy1 1_555 1_555
N14 Cu2_3 1_555 1_555
N15 Cu1_6 1_555 1_555
C9 N13 1_555 1_555
Cu2_3 O1 1_555 1_555
Dy1 O5 1_555 1_555
Dy1 O6 1_555 1_555
H7 C14 1_555 1_555
C15 C14 1_555 1_555
H8 C15 1_555 1_555
C17 C18 1_555 1_555
C19 C17 1_555 1_555
C22 C21 1_555 1_555
H12 C22 1_555 1_555
C23 C22 1_555 1_555
C24 C23 1_555 1_555
H13 C24 1_555 1_555
C25 C24 1_555 1_555
H14 C25 1_555 1_555
C26 C23 1_555 1_555
N11 C17 1_555 1_555
N12 C18 1_555 1_555
N14 C21 1_555 1_555
O19 C19 1_555 1_555
O11 C19 1_555 1_555
O14 C26 1_555 1_555
O15 C26 1_555 1_555
Cu1_7 O4 1_555 1_555
O4 Dy2 1_555 1_555
C25 N14 1_555 1_555
Dy2 O11 1_555 1_555
Dy2 O14 1_555 1_555
Dy2 O15 1_555 1_555
C4 O3 1_555 1_555
C12 C11 1_555 1_555
H6 C12 1_555 1_555
C13 C12 1_555 1_555
C16 C13 1_555 1_555
N15 C11 1_555 1_555
O7 C16 1_555 1_555
O8 C16 1_555 1_555
H9 O9 1_555 1_555
H10 O9 1_555 1_555

#END
