
###############################################################################
#
# This file contains modified crystal structure data generated from the
# MOF subset of the Cambridge Structural Database (CSD) v543 
# hosted by the Cambridge Crystallographic Data Centre (CCDC).
#
# This work is licensed under the Creative Commons
# Attribution-NonCommercial-ShareAlike 4.0 International License.
# To view a copy of this license, visit
# http://creativecommons.org/licenses/by-nc-sa/4.0/
# or send a letter to
# Creative Commons, PO Box 1866, Mountain View, CA 94042, USA.
#
# CIF created using the CSD Python API on 29 September 2022
# The structure has been converted into the P1 space group
# The structure has a 3D framework
# The original CSD entry DIBXET is in the triclinic crystal system
# The framework has been calculated to contain at least 10.0% void space
# The void calculation uses a probe of radius 1.32A, grid spacing 0.4
#
###############################################################################

data_DIBXET
_chemical_formula_moiety         '(C32 H20 Cu9 Gd2 N10 O16)n'
_symmetry_cell_setting           triclinic
_symmetry_space_group_name_H-M   'P 1'
_symmetry_Int_Tables_number      1
_space_group_name_Hall           'P 1'
loop_
_symmetry_equiv_pos_site_id
_symmetry_equiv_pos_as_xyz
1 x,y,z
_cell_length_a                   10.725(4)
_cell_length_b                   10.747(4)
_cell_length_c                   11.917(4)
_cell_angle_alpha                70.146(4)
_cell_angle_beta                 77.912(5)
_cell_angle_gamma                60.967(4)
_cell_volume                     1127.92
loop_
_atom_site_label
_atom_site_type_symbol
_atom_site_fract_x
_atom_site_fract_y
_atom_site_fract_z
Cu5 Cu 0.0000 -0.0000 0.0000
N2 N 0.0238(8) 0.0188(8) 0.7379(6)
Cu5_2 Cu 0.0000 -0.0000 1.0000
Cu7 Cu -0.0000 -0.0000 0.5000
Cu5_3 Cu 0.0000 1.0000 0.0000
H5 H 0.0033 0.2776 0.8209
O26 O 0.2233(6) 0.0128(6) 0.9583(5)
Cu5_4 Cu 0.0000 1.0000 1.0000
Cu7_2 Cu -0.0000 1.0000 0.5000
N14 N 0.0495(7) 0.9909(7) 0.1556(6)
N15 N 0.1114(8) 0.7749(7) 0.0346(7)
H11 H 0.0094 0.2693 0.5153
O22 O 0.3815(6) 0.0045(7) 0.0571(5)
Cu5_5 Cu 1.0000 -0.0000 0.0000
C1 C 0.8225(9) 0.0226(9) 0.7163(7)
C2 C 0.8263(9) 0.0132(9) 0.8347(7)
C3 C 0.7173(9) 0.0348(9) 0.6414(7)
C5 C 0.0573(12) 0.6874(11) 0.5422(10)
C6 C 0.1154(12) 0.5345(10) 0.5927(10)
H2 H 0.0906 0.4773 0.5669
C7 C 0.2085(11) 0.4704(9) 0.6801(8)
C8 C 0.2457(14) 0.5593(11) 0.7114(12)
H3 H 0.3109 0.5185 0.7698
C9 C 0.1855(14) 0.7102(10) 0.6556(11)
H4 H 0.2116 0.7691 0.6777
C10 C 0.2774(9) 0.3062(10) 0.7409(9)
Gd1 Gd 0.45088(4) 0.00119(4) 0.83653(4)
N1 N 0.9442(8) 0.0243(7) 0.6619(6)
N3 N 0.9505(7) 0.0091(7) 0.8444(6)
N4 N 0.0919(8) 0.7740(8) 0.5718(7)
O3 O 0.3499(8) 0.2595(7) 0.8312(6)
O4 O 0.2620(7) 0.2192(7) 0.7036(6)
O5 O 0.5885(7) 0.0761(7) 0.6805(6)
O6 O 0.7679(7) 0.0076(7) 0.5427(6)
N12 N 0.0558(8) 0.9757(7) 0.3381(6)
O20 O 0.2321(7) 0.9924(7) 0.4573(6)
Cu5_6 Cu 1.0000 -0.0000 1.0000
Cu7_3 Cu 1.0000 -0.0000 0.5000
C14 C 0.6882(10) 0.4324(9) 0.0128(8)
H7 H 0.6076 0.4688 0.0624
C15 C 0.7721(10) 0.2839(10) 0.0341(8)
H8 H 0.7474 0.2205 0.0990
O8 O 0.7767(6) 0.9872(6) 0.0417(5)
Gd4 Gd 0.54912(4) 0.99881(4) 0.16347(4)
Cu5_7 Cu 1.0000 1.0000 0.0000
C4 C 0.7356(8) 0.9978(8) 0.9454(7)
C11 C 0.9237(11) 0.3172(10) 0.8705(9)
C12 C 0.8436(11) 0.4694(10) 0.8455(9)
H6 H 0.8702 0.5316 0.7809
C13 C 0.7227(10) 0.5285(9) 0.9182(8)
C16 C 0.6302(10) 0.6945(10) 0.8914(9)
N5 N 0.8886(8) 0.2251(7) 0.9654(7)
O1 O 0.6673(8) 0.7796(7) 0.8074(7)
O2 O 0.5151(7) 0.7423(7) 0.9522(6)
O7 O 0.6185(6) 0.9955(7) 0.9429(5)
O9 O 0.3664(8) 0.9151(9) 0.7189(7)
H9 H 0.426(8) 0.914(14) 0.753(9)
H10 H 0.409(10) 0.893(15) 0.658(6)
Cu5_8 Cu 1.0000 1.0000 1.0000
Cu7_4 Cu 1.0000 1.0000 0.5000
C20 C 0.2644(8) 0.0022(8) 0.0546(7)
C27 C 0.0763(11) 0.6828(10) 0.1295(9)
C28 C 0.1564(11) 0.5306(10) 0.1545(9)
H16 H 0.1298 0.4684 0.2191
C29 C 0.2773(10) 0.4715(9) 0.0818(8)
C32 C 0.3698(10) 0.3055(10) 0.1086(9)
O10 O 0.3327(8) 0.2204(7) 0.1926(7)
O11 O 0.4849(7) 0.2577(7) 0.0478(6)
O18 O 0.6336(8) 0.0849(9) 0.2811(7)
H19 H 0.574(8) 0.086(14) 0.247(9)
H20 H 0.591(10) 0.107(15) 0.342(6)
C30 C 0.3118(10) 0.5676(9) 0.9872(8)
H17 H 0.3924 0.5312 0.9376
C31 C 0.2279(10) 0.7161(10) 0.9659(8)
H18 H 0.2526 0.7795 0.9010
C17 C 0.1775(9) 0.9774(9) 0.2837(7)
C18 C 0.1737(9) 0.9868(9) 0.1653(7)
C19 C 0.2827(9) 0.9652(9) 0.3586(7)
C21 C 0.9427(12) 0.3126(11) 0.4578(10)
C22 C 0.8846(12) 0.4655(10) 0.4073(10)
H12 H 0.9094 0.5227 0.4331
C23 C 0.7915(11) 0.5296(9) 0.3199(8)
C24 C 0.7543(14) 0.4407(11) 0.2886(12)
H13 H 0.6891 0.4815 0.2302
C25 C 0.8145(14) 0.2898(10) 0.3444(11)
H14 H 0.7884 0.2309 0.3223
C26 C 0.7226(9) 0.6938(10) 0.2591(9)
N9 N 0.9081(8) 0.2260(8) 0.4282(7)
O12 O 0.6501(8) 0.7405(7) 0.1688(6)
O13 O 0.7380(7) 0.7808(7) 0.2964(6)
O14 O 0.4115(7) 0.9239(7) 0.3195(6)
H1 H 0.9906 0.7307 0.4847
H15 H 0.9967 0.7224 0.1791
N7 N 0.9762(8) 0.9812(8) 0.2621(6)
loop_
_geom_bond_atom_site_label_1
_geom_bond_atom_site_label_2
_geom_bond_site_symmetry_1
_geom_bond_site_symmetry_2
O26 Cu5_2 1_555 1_555
N14 Cu5_3 1_555 1_555
N15 Cu5_3 1_555 1_555
C1 C2 1_555 1_555
C3 C1 1_555 1_555
C6 C5 1_555 1_555
H2 C6 1_555 1_555
C7 C6 1_555 1_555
C8 C7 1_555 1_555
H3 C8 1_555 1_555
C9 C8 1_555 1_555
H4 C9 1_555 1_555
C10 C7 1_555 1_555
N1 C1 1_555 1_555
N3 C2 1_555 1_555
N4 C5 1_555 1_555
O3 C10 1_555 1_555
O4 C10 1_555 1_555
O5 C3 1_555 1_555
O6 C3 1_555 1_555
Cu7_2 N4 1_555 1_555
N12 Cu7_2 1_555 1_555
O20 Cu7_2 1_555 1_555
O26 Gd1 1_555 1_555
Cu5_6 N3 1_555 1_555
Cu7_3 N1 1_555 1_555
C9 N4 1_555 1_555
Gd1 O3 1_555 1_555
Gd1 O4 1_555 1_555
Gd1 O5 1_555 1_555
O6 Cu7_3 1_555 1_555
H7 C14 1_555 1_555
C15 C14 1_555 1_555
H8 C15 1_555 1_555
O8 Gd4 1_555 1_555
O8 Cu5_7 1_555 1_555
C4 O7 1_555 1_555
C12 C11 1_555 1_555
H6 C12 1_555 1_555
C13 C12 1_555 1_555
C16 C13 1_555 1_555
N5 C11 1_555 1_555
O1 C16 1_555 1_555
O2 C16 1_555 1_555
H9 O9 1_555 1_555
H10 O9 1_555 1_555
Cu5_6 N5 1_555 1_555
C20 O22 1_555 1_555
C28 C27 1_555 1_555
H16 C28 1_555 1_555
C29 C28 1_555 1_555
C32 C29 1_555 1_555
N15 C27 1_555 1_555
O10 C32 1_555 1_555
O11 C32 1_555 1_555
H19 O18 1_555 1_555
H20 O18 1_555 1_555
H17 C30 1_555 1_555
C31 C30 1_555 1_555
H18 C31 1_555 1_555
C17 C18 1_555 1_555
C19 C17 1_555 1_555
C22 C21 1_555 1_555
H12 C22 1_555 1_555
C23 C22 1_555 1_555
C24 C23 1_555 1_555
H13 C24 1_555 1_555
C25 C24 1_555 1_555
H14 C25 1_555 1_555
C26 C23 1_555 1_555
N12 C17 1_555 1_555
N14 C18 1_555 1_555
N9 Cu7_3 1_555 1_555
O12 C26 1_555 1_555
O13 C26 1_555 1_555
O14 C19 1_555 1_555
O20 C19 1_555 1_555
C21 N9 1_555 1_555
C25 N9 1_555 1_555
Gd4 O12 1_555 1_555
Gd4 O13 1_555 1_555
Gd4 O14 1_555 1_555

#END
