
###############################################################################
#
# This file contains modified crystal structure data generated from the
# MOF subset of the Cambridge Structural Database (CSD) v543 
# hosted by the Cambridge Crystallographic Data Centre (CCDC).
#
# This work is licensed under the Creative Commons
# Attribution-NonCommercial-ShareAlike 4.0 International License.
# To view a copy of this license, visit
# http://creativecommons.org/licenses/by-nc-sa/4.0/
# or send a letter to
# Creative Commons, PO Box 1866, Mountain View, CA 94042, USA.
#
# CIF created using the CSD Python API on 29 September 2022
# The structure has been converted into the P1 space group
# The structure has a 3D framework
# The original CSD entry DICJUW is in the monoclinic crystal system
# The framework has been calculated to contain at least 10.0% void space
# The void calculation uses a probe of radius 1.32A, grid spacing 0.4
#
###############################################################################

data_DICJUW
_chemical_formula_moiety         '(C36 H32 La2 N4 O26)n'
_symmetry_cell_setting           triclinic
_symmetry_space_group_name_H-M   'P 1'
_symmetry_Int_Tables_number      1
_space_group_name_Hall           'P 1'
loop_
_symmetry_equiv_pos_site_id
_symmetry_equiv_pos_as_xyz
1 x,y,z
_cell_length_a                   9.5263(9)
_cell_length_b                   8.4129(8)
_cell_length_c                   17.0601(15)
_cell_angle_alpha                90
_cell_angle_beta                 105.174(2)
_cell_angle_gamma                90
_cell_volume                     1319.59
loop_
_atom_site_label
_atom_site_type_symbol
_atom_site_fract_x
_atom_site_fract_y
_atom_site_fract_z
La1 La 0.66532(3) 0.56967(3) 0.098391(15)
O1 O 0.4213(3) 0.6671(4) 0.1048(2)
O2 O 0.2417(4) 0.5382(4) 0.0162(2)
O5 O 0.8491(5) 0.3469(5) 0.1570(2)
H1 H 0.8370 0.3168 0.2005
H2 H 0.808(7) 0.287(5) 0.1177(10)
O7 O 0.5054(4) 0.3419(4) 0.0488(2)
C1 C 0.2916(5) 0.6270(5) 0.0765(3)
C2 C 0.1834(5) 0.6902(6) 0.1202(3)
C3 C 0.0413(5) 0.6353(6) 0.0988(3)
H3 H 0.0164 0.5565 0.0594
C5 C 0.1149(6) 0.8625(7) 0.2142(3)
H4 H 0.1376 0.9402 0.2543
C6 C 0.2203(6) 0.8037(6) 0.1795(3)
H5 H 0.3154 0.8410 0.1964
C8 C 0.4909(8) 0.0974(6) 0.1146(4)
H6 H 0.4308 0.0041 0.1046
H7 H 0.4849 0.1459 0.1645
H8 H 0.5899 0.0683 0.1185
C9 C 0.4404(5) 0.2111(6) 0.0472(3)
O9 O 0.6191(4) 0.4715(4) 0.2271(2)
O10 O 0.7352(4) 0.7869(4) 0.2018(2)
O11 O 0.6648(4) 0.8226(4) 0.0123(2)
N2 N 0.9390(4) 0.6892(5) 0.1316(2)
O6 O 0.3352(4) 0.1774(4) 0.9877(2)
La4 La 0.33468(3) 0.43033(3) 0.901609(15)
O8 O 0.7583(4) 0.4618(4) 0.9838(2)
O12 O 0.4946(4) 0.6581(4) 0.9512(2)
La3 La 0.83468(3) 0.06967(3) 0.401609(15)
O3 O 0.8809(4) 0.9715(4) 0.2729(2)
C4 C 0.9753(5) 0.8033(5) 0.1878(3)
C7 C 0.8548(5) 0.8598(6) 0.2238(3)
O1_2 O 0.0787(3) 0.1671(4) 0.3952(2)
O2_2 O 0.2583(4) 0.0382(4) 0.4838(2)
O4 O 0.7648(4) 0.2869(4) 0.2982(2)
N1 N 0.5610(4) 0.1892(5) 0.3684(2)
C1_2 C 0.2084(5) 0.1270(5) 0.4235(3)
C2_2 C 0.3166(5) 0.1902(6) 0.3798(3)
C3_2 C 0.4587(5) 0.1353(6) 0.4012(3)
H3_2 H 0.4836 0.0565 0.4406
C4_2 C 0.5247(5) 0.3033(5) 0.3122(3)
C5_2 C 0.3851(6) 0.3625(7) 0.2858(3)
H4_2 H 0.3624 0.4402 0.2457
C6_2 C 0.2797(6) 0.3037(6) 0.3205(3)
H5_2 H 0.1846 0.3410 0.3036
C7_2 C 0.6452(5) 0.3598(6) 0.2762(3)
O12_2 O 0.0054(4) 0.1581(4) 0.5488(2)
O6_2 O 0.1648(4) 0.6774(4) 0.5123(2)
C8_2 C 0.0091(8) 0.5974(6) 0.3854(4)
H6_2 H 0.0692 0.5041 0.3954
H7_2 H 0.0151 0.6459 0.3355
C9_2 C 0.0596(5) 0.7111(6) 0.4528(3)
La4_2 La 0.16532(3) 0.93033(3) 0.598391(15)
O11_2 O 0.8352(4) 0.3226(4) 0.4877(2)
O5_2 O 0.6509(5) 0.8469(5) 0.3430(2)
H1_2 H 0.6630 0.8168 0.2995
H2_2 H 0.692(7) 0.787(5) 0.3823(10)
O7_2 O 0.9946(4) 0.8419(4) 0.4512(2)
H8_2 H 0.9101 0.5683 0.3815
O8_2 O 0.7417(4) 0.9618(4) 0.5162(2)
O3_2 O 0.1191(4) 0.0285(4) 0.7271(2)
O4_2 O 0.2648(4) 0.2131(4) 0.7982(2)
N1_2 N 0.0610(4) 0.3108(5) 0.8684(2)
C4_3 C 0.0247(5) 0.1967(5) 0.8122(3)
C7_3 C 0.1452(5) 0.1402(6) 0.7762(3)
O1_3 O 0.5787(3) 0.3329(4) 0.8952(2)
O5_3 O 0.1509(5) 0.6531(5) 0.8430(2)
H1_3 H 0.1630 0.6832 0.7995
H2_3 H 0.192(7) 0.713(5) 0.8823(10)
C1_3 C 0.7084(5) 0.3730(5) 0.9235(3)
C2_3 C 0.8166(5) 0.3098(6) 0.8798(3)
C3_3 C 0.9587(5) 0.3647(6) 0.9012(3)
H3_3 H 0.9836 0.4435 0.9406
C5_3 C 0.8851(6) 0.1375(7) 0.7858(3)
H4_3 H 0.8624 0.0598 0.7457
C6_3 C 0.7797(6) 0.1963(6) 0.8205(3)
H5_3 H 0.6846 0.1590 0.8036
C8_3 C 0.5091(8) 0.9026(6) 0.8854(4)
H6_3 H 0.5692 0.9959 0.8954
H7_3 H 0.5151 0.8541 0.8355
H8_3 H 0.4101 0.9317 0.8815
C9_3 C 0.5596(5) 0.7889(6) 0.9528(3)
O9_2 O 0.3809(4) 0.5285(4) 0.7729(2)
O5_4 O 0.3491(5) 0.1531(5) 0.6570(2)
H1_4 H 0.3370 0.1832 0.7005
H2_4 H 0.308(7) 0.213(5) 0.6177(10)
H8_4 H 0.0899 0.4317 0.6185
O10_2 O 0.2352(4) 0.7131(4) 0.7018(2)
N2_2 N 0.4390(4) 0.8108(5) 0.6316(2)
C8_4 C 0.9909(8) 0.4026(6) 0.6146(4)
H6_4 H 0.9308 0.4959 0.6046
H7_4 H 0.9849 0.3541 0.6645
C9_4 C 0.9404(5) 0.2889(6) 0.5472(3)
O1_4 O 0.9213(3) 0.8329(4) 0.6048(2)
C1_4 C 0.7916(5) 0.8730(5) 0.5765(3)
C2_4 C 0.6834(5) 0.8098(6) 0.6202(3)
C3_4 C 0.5413(5) 0.8647(6) 0.5988(3)
H3_4 H 0.5164 0.9435 0.5594
C4_4 C 0.4753(5) 0.6967(5) 0.6878(3)
C5_4 C 0.6149(6) 0.6375(7) 0.7142(3)
H4_4 H 0.6376 0.5598 0.7543
C6_4 C 0.7203(6) 0.6963(6) 0.6795(3)
H5_4 H 0.8154 0.6590 0.6964
C7_4 C 0.3548(5) 0.6402(6) 0.7238(3)
loop_
_geom_bond_atom_site_label_1
_geom_bond_atom_site_label_2
_geom_bond_site_symmetry_1
_geom_bond_site_symmetry_2
La1 O1 1_555 1_555
O1 C1 1_555 1_555
O2 C1 1_555 1_555
O5 La1 1_555 1_555
H1 O5 1_555 1_555
H2 O5 1_555 1_555
O7 La1 1_555 1_555
C1 C2 1_555 1_555
C2 C3 1_555 1_555
C3 H3 1_555 1_555
H4 C5 1_555 1_555
C6 C2 1_555 1_555
H5 C6 1_555 1_555
C8 H6 1_555 1_555
H7 C8 1_555 1_555
H8 C8 1_555 1_555
C9 O7 1_555 1_555
O9 La1 1_555 1_555
O10 La1 1_555 1_555
O11 La1 1_555 1_555
N2 La1 1_555 1_555
C5 C6 1_555 1_555
C8 C9 1_555 1_555
O6 La4 1_555 1_555
La4 O12 1_555 1_555
O3 C7 1_555 1_555
O10 C7 1_555 1_555
C4 N2 1_555 1_555
C7 C4 1_555 1_555
O1_2 C1_2 1_555 1_555
O2_2 C1_2 1_555 1_555
O9 C7_2 1_555 1_555
O4 C7_2 1_555 1_555
N1 C3_2 1_555 1_555
C1_2 C2_2 1_555 1_555
C2_2 C3_2 1_555 1_555
C3_2 H3_2 1_555 1_555
C4_2 N1 1_555 1_555
C5_2 C4_2 1_555 1_555
H4_2 C5_2 1_555 1_555
C6_2 C2_2 1_555 1_555
H5_2 C6_2 1_555 1_555
C7_2 C4_2 1_555 1_555
La3 O4 1_555 1_555
N1 La3 1_555 1_555
C5_2 C6_2 1_555 1_555
O6_2 C9_2 1_555 1_555
C8_2 H6_2 1_555 1_555
H7_2 C8_2 1_555 1_555
O6_2 La4_2 1_555 1_555
C8_2 C9_2 1_555 1_555
O11_2 La3 1_555 1_555
H1_2 O5_2 1_555 1_555
H2_2 O5_2 1_555 1_555
O3_2 C7_3 1_555 1_555
O4_2 C7_3 1_555 1_555
C4_3 N1_2 1_555 1_555
C7_3 C4_3 1_555 1_555
La4 O4_2 1_555 1_555
N1_2 La4 1_555 1_555
La4 O1_3 1_555 1_555
O1_3 C1_3 1_555 1_555
O8 C1_3 1_555 1_555
O5_3 La4 1_555 1_555
H1_3 O5_3 1_555 1_555
H2_3 O5_3 1_555 1_555
C1_3 C2_3 1_555 1_555
C2_3 C3_3 1_555 1_555
C3_3 H3_3 1_555 1_555
H4_3 C5_3 1_555 1_555
C6_3 C2_3 1_555 1_555
H5_3 C6_3 1_555 1_555
C8_3 H6_3 1_555 1_555
H7_3 C8_3 1_555 1_555
H8_3 C8_3 1_555 1_555
C9_3 O12 1_555 1_555
O9_2 La4 1_555 1_555
C5_3 C6_3 1_555 1_555
C8_3 C9_3 1_555 1_555
H1_4 O5_4 1_555 1_555
H2_4 O5_4 1_555 1_555
O10_2 La4_2 1_555 1_555
N2_2 La4_2 1_555 1_555
O11_2 C9_4 1_555 1_555
C8_4 H6_4 1_555 1_555
H7_4 C8_4 1_555 1_555
C8_4 C9_4 1_555 1_555
O1_4 C1_4 1_555 1_555
O8_2 C1_4 1_555 1_555
O9_2 C7_4 1_555 1_555
O10_2 C7_4 1_555 1_555
N2_2 C3_4 1_555 1_555
C1_4 C2_4 1_555 1_555
C2_4 C3_4 1_555 1_555
C3_4 H3_4 1_555 1_555
C4_4 N2_2 1_555 1_555
C5_4 C4_4 1_555 1_555
H4_4 C5_4 1_555 1_555
C6_4 C2_4 1_555 1_555
H5_4 C6_4 1_555 1_555
C7_4 C4_4 1_555 1_555
C5_4 C6_4 1_555 1_555

#END
