
###############################################################################
#
# This file contains modified crystal structure data generated from the
# MOF subset of the Cambridge Structural Database (CSD) v543 
# hosted by the Cambridge Crystallographic Data Centre (CCDC).
#
# This work is licensed under the Creative Commons
# Attribution-NonCommercial-ShareAlike 4.0 International License.
# To view a copy of this license, visit
# http://creativecommons.org/licenses/by-nc-sa/4.0/
# or send a letter to
# Creative Commons, PO Box 1866, Mountain View, CA 94042, USA.
#
# CIF created using the CSD Python API on 29 September 2022
# The structure has been converted into the P1 space group
# The structure has a 3D framework
# The original CSD entry DICVAO is in the monoclinic crystal system
# The framework has been calculated to contain at least 10.0% void space
# The void calculation uses a probe of radius 1.32A, grid spacing 0.4
# H atom positions have been added when not included in the experimental data
#
###############################################################################

data_DICVAO
_chemical_formula_moiety         '(C84 H118 N24 Nd4 O24)n'
_symmetry_cell_setting           triclinic
_symmetry_space_group_name_H-M   'P 1'
_symmetry_Int_Tables_number      1
_space_group_name_Hall           'P 1'
loop_
_symmetry_equiv_pos_site_id
_symmetry_equiv_pos_as_xyz
1 x,y,z
_cell_length_a                   16.5888(7)
_cell_length_b                   26.7362(10)
_cell_length_c                   8.1881(3)
_cell_angle_alpha                90
_cell_angle_beta                 100.939(4)
_cell_angle_gamma                90
_cell_volume                     3565.61
loop_
_atom_site_label
_atom_site_type_symbol
_atom_site_fract_x
_atom_site_fract_y
_atom_site_fract_z
C2 C 0.0840(6) 0.2158(4) 0.3399(12)
C9 C 0.0079(7) 0.2014(4) 0.3900(13)
H10 H 0.007(6) 0.218(4) 0.497(13)
C10 C 0.0031(7) 0.1442(4) 0.4192(14)
H11 H 0.0040 0.1266 0.3159
H12 H 0.0507 0.1336 0.5000
O3 O 0.0903(5) 0.2123(3) 0.1895(8)
O5 O 0.1444(4) 0.2337(2) 0.4425(8)
Nd2 Nd 0.23036(3) 0.255902(16) 0.21489(6)
Nd6 Nd 0.23036(3) 0.244098(16) 0.71489(6)
C1 C 0.3694(6) 0.2149(3) 0.0778(11)
C3 C 0.4356(6) 0.1874(3) 0.0183(12)
C4 C 0.5175(6) 0.2126(3) 0.0639(13)
H2 H 0.5311 0.2172 0.1836
H3 H 0.5148 0.2454 0.0123
C5 C 0.5846(7) 0.1816(4) 0.0071(14)
H5 H 0.6374 0.1977 0.0436
C6 C 0.5103(6) 0.1050(4) 0.0286(15)
H6 H 0.5155 0.0721 0.0794
C7 C 0.4415(6) 0.1334(3) 0.0852(13)
H8 H 0.4511 0.1340 0.2058
H9 H 0.3898 0.1163 0.0461
C8 C 0.6540(6) 0.1123(3) 0.1774(12)
C11 C 0.9237(7) 0.1304(4) 0.4831(16)
H13 H 0.9198 0.0944 0.4928
H14 H 0.9256 0.1449 0.5924
C12 C 0.7811(6) 0.1215(3) 0.3236(13)
C14 C 0.8525(7) 0.2030(4) 0.3297(16)
H15 H 0.8486 0.2219 0.4292
H16 H 0.8050 0.2112 0.2452
C15 C 0.9302(6) 0.2186(4) 0.2688(13)
H17 H 0.9311 0.2547 0.2578
H18 H 0.9298 0.2042 0.1600
C16 C 0.7122(7) 0.0502(3) 0.3377(14)
H25 H 0.8218 0.0050 0.5449
N1 N 0.5870(5) 0.1316(3) 0.0744(12)
N2 N 0.7176(5) 0.1426(3) 0.2187(11)
N3 N 0.6472(5) 0.0665(3) 0.2321(10)
N4 N 0.8513(6) 0.1495(3) 0.3668(12)
N5 N 0.7825(5) 0.0761(3) 0.3891(11)
N6 N 0.7081(5) 0.0034(3) 0.4077(13)
O1 O 0.3809(4) 0.2350(2) 0.2210(8)
O7 O 0.1534(5) 0.3334(2) 0.2706(8)
O8 O 0.2954(4) 0.2845(2) 0.4873(7)
O10 O 0.2912(4) 0.3245(2) 0.0872(9)
O13 O 0.2600(5) 0.1708(2) 0.3090(8)
H28 H 0.162713 0.360307 0.192661
H29 H 0.0938055 0.325822 0.254222
H1 H 0.421(6) 0.186(3) 0.897(11)
H4 H 0.5741 0.1800 0.8866
H7 H 0.4975 0.1007 0.9089
O2 O 0.2954(4) 0.2155(2) 0.9873(7)
O12 O 0.1444(4) 0.2663(2) 0.9425(8)
C13 C 0.7171(6) 0.8477(4) 0.5504(14)
C17 C 0.7008(7) 0.9046(3) 0.5418(13)
H19 H 0.678(6) 0.914(3) 0.639(12)
C18 C 0.6413(7) 0.9226(4) 0.3848(15)
H20 H 0.6633 0.9140 0.2868
H21 H 0.5888 0.9058 0.3771
C19 C 0.7824(7) 0.9319(4) 0.5493(16)
H22 H 0.8204 0.9219 0.6491
H23 H 0.8060 0.9224 0.4540
C20 C 0.7703(7) 0.9884(4) 0.5499(15)
H24 H 0.7534 0.9984 0.6522
C21 C 0.6292(7) 0.9779(3) 0.3903(16)
H26 H 0.5933 0.9888 0.2890
H27 H 0.6033 0.9864 0.4835
O4 O 0.7088(4) 0.8245(2) 0.4128(9)
O6 O 0.7400(5) 0.8292(2) 0.6910(8)
Nd3 Nd 0.76964(3) 0.755902(16) 0.28511(6)
Nd4 Nd 0.76964(3) 0.744098(16) 0.78511(6)
C1_2 C 0.6306(6) 0.7149(3) 0.4222(11)
C3_2 C 0.5644(6) 0.6874(3) 0.4817(12)
H1_2 H 0.579(6) 0.686(3) 0.603(11)
C4_2 C 0.4825(6) 0.7126(3) 0.4361(13)
H2_2 H 0.4689 0.7172 0.3164
H3_2 H 0.4852 0.7454 0.4877
C5_2 C 0.4154(7) 0.6816(4) 0.4929(14)
H4_2 H 0.4259 0.6800 0.6134
H5_2 H 0.3626 0.6977 0.4564
C6_2 C 0.4897(6) 0.6050(4) 0.4714(15)
H6_2 H 0.4845 0.5721 0.4206
H7_2 H 0.5025 0.6007 0.5911
C7_2 C 0.5585(6) 0.6334(3) 0.4148(13)
H8_2 H 0.5489 0.6340 0.2942
H9_2 H 0.6102 0.6163 0.4539
C8_2 C 0.3460(6) 0.6123(3) 0.3226(12)
C11_2 C 0.0763(7) 0.6304(4) 0.0169(16)
H13_2 H 0.0802 0.5944 0.0072
C12_2 C 0.2189(6) 0.6215(3) 0.1764(13)
C14_2 C 0.1475(7) 0.7030(4) 0.1703(16)
H15_2 H 0.1514 0.7219 0.0708
H16_2 H 0.1950 0.7112 0.2548
C15_2 C 0.0698(6) 0.7186(4) 0.2312(13)
H17_2 H 0.0689 0.7547 0.2422
H18_2 H 0.0702 0.7042 0.3400
C16_2 C 0.2878(7) 0.5502(3) 0.1623(14)
C18_2 C 0.3587(7) 0.4226(4) 0.1152(15)
H20_2 H 0.3367 0.4140 0.2132
H21_2 H 0.4112 0.4058 0.1229
H23_2 H 0.1940 0.4224 0.0460
C21_2 C 0.3708(7) 0.4779(3) 0.1097(16)
H26_2 H 0.4067 0.4888 0.2110
H27_2 H 0.3967 0.4864 0.0165
N1_2 N 0.4130(5) 0.6316(3) 0.4256(12)
N2_2 N 0.2824(5) 0.6426(3) 0.2813(11)
N3_2 N 0.3528(5) 0.5665(3) 0.2679(10)
N4_2 N 0.1487(6) 0.6495(3) 0.1332(12)
N5_2 N 0.2175(5) 0.5761(3) 0.1109(11)
N6_2 N 0.2919(5) 0.5034(3) 0.0923(13)
O1_2 O 0.6191(4) 0.7350(2) 0.2790(8)
O2_2 O 0.7046(4) 0.7155(2) 0.5127(7)
O7_2 O 0.8466(5) 0.8334(2) 0.2294(8)
O8_2 O 0.7046(4) 0.7845(2) 0.0127(7)
O9 O 0.9097(5) 0.7123(3) 0.3105(8)
O11 O 0.8556(4) 0.7337(2) 0.0575(8)
O12_2 O 0.8556(4) 0.7663(2) 0.5575(8)
O13_2 O 0.7400(5) 0.6708(2) 0.1910(8)
H28_2 H 0.837287 0.860307 0.307339
H29_2 H 0.906195 0.825822 0.245778
H14_2 H 0.0744 0.6449 0.9076
C13_2 C 0.2829(6) 0.3477(4) 0.9496(14)
C17_2 C 0.2992(7) 0.4046(3) 0.9582(13)
H19_2 H 0.322(6) 0.414(3) 0.861(12)
C19_2 C 0.2176(7) 0.4319(4) 0.9507(16)
H22_2 H 0.1796 0.4219 0.8509
C20_2 C 0.2297(7) 0.4884(4) 0.9501(15)
H24_2 H 0.2466 0.4984 0.8478
H25_2 H 0.1782 0.5050 0.9551
O6_2 O 0.2600(5) 0.3292(2) 0.8090(8)
C2_2 C 0.9160(6) 0.7158(4) 0.1601(12)
C9_2 C 0.9921(7) 0.7014(4) 0.1100(13)
H10_2 H 0.993(6) 0.718(4) 0.003(13)
C10_2 C 0.9969(7) 0.6442(4) 0.0808(14)
H11_2 H 0.9960 0.6266 0.1841
H12_2 H 0.9493 0.6336 0.0000
H12_3 H 0.9493 0.6336 1.0000
C13_3 C 0.2829(6) 0.1523(4) 0.4496(14)
C17_3 C 0.2992(7) 0.0954(3) 0.4582(13)
H19_3 H 0.322(6) 0.086(3) 0.361(12)
C18_3 C 0.3587(7) 0.0774(4) 0.6152(15)
H20_3 H 0.3367 0.0860 0.7132
H21_3 H 0.4112 0.0942 0.6229
C19_3 C 0.2176(7) 0.0681(4) 0.4507(16)
H22_3 H 0.1796 0.0781 0.3509
H23_3 H 0.1940 0.0776 0.5460
C20_3 C 0.2297(7) 0.0116(4) 0.4501(15)
H24_3 H 0.2466 0.0016 0.3478
C21_3 C 0.3708(7) 0.0221(3) 0.6097(16)
H26_3 H 0.4067 0.0112 0.7110
H27_3 H 0.3967 0.0136 0.5165
O4_2 O 0.2912(4) 0.1755(2) 0.5872(9)
H1_3 H 0.579(6) 0.814(3) 0.103(11)
H4_3 H 0.4259 0.8200 0.1134
H7_3 H 0.5025 0.8993 0.0911
C1_3 C 0.6306(6) 0.7851(3) 0.9222(11)
C3_3 C 0.5644(6) 0.8126(3) 0.9817(12)
C4_3 C 0.4825(6) 0.7874(3) 0.9361(13)
H2_3 H 0.4689 0.7828 0.8164
H3_3 H 0.4852 0.7546 0.9877
C5_3 C 0.4154(7) 0.8184(4) 0.9929(14)
H5_3 H 0.3626 0.8023 0.9564
C6_3 C 0.4897(6) 0.8950(4) 0.9714(15)
H6_3 H 0.4845 0.9279 0.9206
C7_3 C 0.5585(6) 0.8666(3) 0.9148(13)
H8_3 H 0.5489 0.8660 0.7942
H9_3 H 0.6102 0.8837 0.9539
C8_3 C 0.3460(6) 0.8877(3) 0.8226(12)
C11_3 C 0.0763(7) 0.8696(4) 0.5169(16)
H13_3 H 0.0802 0.9056 0.5072
H14_3 H 0.0744 0.8551 0.4076
C12_3 C 0.2189(6) 0.8785(3) 0.6764(13)
C14_3 C 0.1475(7) 0.7970(4) 0.6703(16)
H15_3 H 0.1514 0.7781 0.5708
H16_3 H 0.1950 0.7888 0.7548
C15_3 C 0.0698(6) 0.7814(4) 0.7312(13)
H17_3 H 0.0689 0.7453 0.7422
H18_3 H 0.0702 0.7958 0.8400
C16_3 C 0.2878(7) 0.9498(3) 0.6623(14)
H25_3 H 0.1782 0.9950 0.4551
N1_3 N 0.4130(5) 0.8684(3) 0.9256(12)
N2_3 N 0.2824(5) 0.8574(3) 0.7813(11)
N3_3 N 0.3528(5) 0.9335(3) 0.7679(10)
N4_3 N 0.1487(6) 0.8505(3) 0.6332(12)
N5_3 N 0.2175(5) 0.9239(3) 0.6109(11)
N6_3 N 0.2919(5) 0.9966(3) 0.5923(13)
O1_3 O 0.6191(4) 0.7650(2) 0.7790(8)
O7_3 O 0.8466(5) 0.6666(2) 0.7294(8)
O9_2 O 0.9097(5) 0.7877(3) 0.8105(8)
O10_2 O 0.7088(4) 0.6755(2) 0.9128(9)
H28_3 H 0.837287 0.639693 0.807339
H29_3 H 0.906195 0.674178 0.745778
C2_3 C 0.9160(6) 0.7842(4) 0.6601(12)
C9_3 C 0.9921(7) 0.7986(4) 0.6100(13)
H10_3 H 0.993(6) 0.782(4) 0.503(13)
C10_3 C 0.9969(7) 0.8558(4) 0.5808(14)
H11_3 H 0.9960 0.8734 0.6841
H12_4 H 0.9493 0.8664 0.5000
H12_5 H 0.0507 0.3664 0.0000
C2_4 C 0.0840(6) 0.2842(4) 0.8399(12)
C9_4 C 0.0079(7) 0.2986(4) 0.8900(13)
H10_4 H 0.007(6) 0.282(4) 0.997(13)
C10_4 C 0.0031(7) 0.3558(4) 0.9192(14)
H11_4 H 0.0040 0.3734 0.8159
H12_6 H 0.0507 0.3664 1.0000
O3_2 O 0.0903(5) 0.2877(3) 0.6895(8)
H14_4 H 0.9256 0.3551 0.0924
C13_4 C 0.7171(6) 0.6523(4) 0.0504(14)
C17_4 C 0.7008(7) 0.5954(3) 0.0418(13)
H19_4 H 0.678(6) 0.586(3) 0.139(12)
C19_4 C 0.7824(7) 0.5681(4) 0.0493(16)
H22_4 H 0.8204 0.5781 0.1491
C20_4 C 0.7703(7) 0.5116(4) 0.0499(15)
H24_4 H 0.7534 0.5016 0.1522
H25_4 H 0.8218 0.4950 0.0449
C1_4 C 0.3694(6) 0.2851(3) 0.5778(11)
C3_4 C 0.4356(6) 0.3126(3) 0.5183(12)
H1_4 H 0.421(6) 0.314(3) 0.397(11)
C4_4 C 0.5175(6) 0.2874(3) 0.5639(13)
H2_4 H 0.5311 0.2828 0.6836
H3_4 H 0.5148 0.2546 0.5123
C5_4 C 0.5846(7) 0.3184(4) 0.5071(14)
H4_4 H 0.5741 0.3200 0.3866
H5_4 H 0.6374 0.3023 0.5436
C6_4 C 0.5103(6) 0.3950(4) 0.5286(15)
H6_4 H 0.5155 0.4279 0.5794
H7_4 H 0.4975 0.3993 0.4089
C7_4 C 0.4415(6) 0.3666(3) 0.5852(13)
H8_4 H 0.4511 0.3660 0.7058
H9_4 H 0.3898 0.3837 0.5461
C8_4 C 0.6540(6) 0.3877(3) 0.6774(12)
C11_4 C 0.9237(7) 0.3696(4) 0.9831(16)
H13_4 H 0.9198 0.4056 0.9928
C12_4 C 0.7811(6) 0.3785(3) 0.8236(13)
C14_4 C 0.8525(7) 0.2970(4) 0.8297(16)
H15_4 H 0.8486 0.2781 0.9292
H16_4 H 0.8050 0.2888 0.7452
C15_4 C 0.9302(6) 0.2814(4) 0.7688(13)
H17_4 H 0.9311 0.2453 0.7578
H18_4 H 0.9298 0.2958 0.6600
C16_4 C 0.7122(7) 0.4498(3) 0.8377(14)
C18_4 C 0.6413(7) 0.5774(4) 0.8848(15)
H20_4 H 0.6633 0.5860 0.7868
H21_4 H 0.5888 0.5942 0.8771
H23_4 H 0.8060 0.5776 0.9540
C21_4 C 0.6292(7) 0.5221(3) 0.8903(16)
H26_4 H 0.5933 0.5112 0.7890
H27_4 H 0.6033 0.5136 0.9835
N1_4 N 0.5870(5) 0.3684(3) 0.5744(12)
N2_4 N 0.7176(5) 0.3574(3) 0.7187(11)
N3_4 N 0.6472(5) 0.4335(3) 0.7321(10)
N4_4 N 0.8513(6) 0.3505(3) 0.8668(12)
N5_4 N 0.7825(5) 0.4239(3) 0.8891(11)
N6_4 N 0.7081(5) 0.4966(3) 0.9077(13)
O1_4 O 0.3809(4) 0.2650(2) 0.7210(8)
O7_4 O 0.1534(5) 0.1666(2) 0.7706(8)
H28_4 H 0.162713 0.139693 0.692661
H29_4 H 0.0938055 0.174178 0.754222
loop_
_geom_bond_atom_site_label_1
_geom_bond_atom_site_label_2
_geom_bond_site_symmetry_1
_geom_bond_site_symmetry_2
C2 C9 1_555 1_555
C9 H10 1_555 1_555
C10 C9 1_555 1_555
H11 C10 1_555 1_555
H12 C10 1_555 1_555
O3 C2 1_555 1_555
O5 C2 1_555 1_555
Nd2 O3 1_555 1_555
Nd6 O5 1_555 1_555
O5 Nd2 1_555 1_555
C1 C3 1_555 1_555
C4 C3 1_555 1_555
H2 C4 1_555 1_555
H3 C4 1_555 1_555
C5 C4 1_555 1_555
H5 C5 1_555 1_555
C6 H6 1_555 1_555
C7 C3 1_555 1_555
H8 C7 1_555 1_555
H9 C7 1_555 1_555
C8 N1 1_555 1_555
H13 C11 1_555 1_555
H14 C11 1_555 1_555
C12 N2 1_555 1_555
C14 H15 1_555 1_555
H16 C14 1_555 1_555
H17 C15 1_555 1_555
H18 C15 1_555 1_555
C16 N3 1_555 1_555
N1 C5 1_555 1_555
N2 C8 1_555 1_555
N3 C8 1_555 1_555
N4 C11 1_555 1_555
N5 C12 1_555 1_555
N6 C16 1_555 1_555
Nd2 O1 1_555 1_555
O1 C1 1_555 1_555
O7 Nd2 1_555 1_555
O8 Nd2 1_555 1_555
O10 Nd2 1_555 1_555
O13 Nd2 1_555 1_555
C6 C7 1_555 1_555
C6 N1 1_555 1_555
C12 N4 1_555 1_555
C14 C15 1_555 1_555
C14 N4 1_555 1_555
C16 N5 1_555 1_555
O7 H28 1_555 1_555
O7 H29 1_555 1_555
Nd6 O2 1_555 1_555
Nd6 O12 1_555 1_555
C13 C17 1_555 1_555
C17 H19 1_555 1_555
C18 C17 1_555 1_555
H20 C18 1_555 1_555
H21 C18 1_555 1_555
C19 C17 1_555 1_555
H22 C19 1_555 1_555
H23 C19 1_555 1_555
C20 C19 1_555 1_555
H24 C20 1_555 1_555
C21 C18 1_555 1_555
H26 C21 1_555 1_555
H27 C21 1_555 1_555
O4 C13 1_555 1_555
O6 C13 1_555 1_555
Nd3 O4 1_555 1_555
Nd4 O6 1_555 1_555
C1_2 C3_2 1_555 1_555
C3_2 H1_2 1_555 1_555
C4_2 C3_2 1_555 1_555
H2_2 C4_2 1_555 1_555
H3_2 C4_2 1_555 1_555
C5_2 C4_2 1_555 1_555
H4_2 C5_2 1_555 1_555
H5_2 C5_2 1_555 1_555
C6_2 H6_2 1_555 1_555
H7_2 C6_2 1_555 1_555
C7_2 C3_2 1_555 1_555
H8_2 C7_2 1_555 1_555
H9_2 C7_2 1_555 1_555
C8_2 N1_2 1_555 1_555
H13_2 C11_2 1_555 1_555
C12_2 N2_2 1_555 1_555
C14_2 H15_2 1_555 1_555
H16_2 C14_2 1_555 1_555
H17_2 C15_2 1_555 1_555
H18_2 C15_2 1_555 1_555
C16_2 N3_2 1_555 1_555
H20_2 C18_2 1_555 1_555
H21_2 C18_2 1_555 1_555
C21_2 C18_2 1_555 1_555
H26_2 C21_2 1_555 1_555
H27_2 C21_2 1_555 1_555
N1_2 C5_2 1_555 1_555
N2_2 C8_2 1_555 1_555
N3_2 C8_2 1_555 1_555
N4_2 C11_2 1_555 1_555
N5_2 C12_2 1_555 1_555
N6_2 C16_2 1_555 1_555
Nd3 O1_2 1_555 1_555
O1_2 C1_2 1_555 1_555
O2_2 C1_2 1_555 1_555
O7_2 Nd3 1_555 1_555
Nd4 O2_2 1_555 1_555
O8_2 Nd3 1_555 1_555
O9 Nd3 1_555 1_555
O11 Nd3 1_555 1_555
O12_2 Nd3 1_555 1_555
O13_2 Nd3 1_555 1_555
C6_2 C7_2 1_555 1_555
C6_2 N1_2 1_555 1_555
C12_2 N4_2 1_555 1_555
C14_2 C15_2 1_555 1_555
C14_2 N4_2 1_555 1_555
C16_2 N5_2 1_555 1_555
C21_2 N6_2 1_555 1_555
Nd3 O2_2 1_555 1_555
Nd4 O12_2 1_555 1_555
O7_2 H28_2 1_555 1_555
O7_2 H29_2 1_555 1_555
C13_2 C17_2 1_555 1_555
C17_2 H19_2 1_555 1_555
C19_2 C17_2 1_555 1_555
H22_2 C19_2 1_555 1_555
C20_2 C19_2 1_555 1_555
H24_2 C20_2 1_555 1_555
H25_2 C20_2 1_555 1_555
O6_2 C13_2 1_555 1_555
Nd6 O6_2 1_555 1_555
C2_2 C9_2 1_555 1_555
C9_2 H10_2 1_555 1_555
C10_2 C9_2 1_555 1_555
H11_2 C10_2 1_555 1_555
H12_2 C10_2 1_555 1_555
O9 C2_2 1_555 1_555
O11 C2_2 1_555 1_555
C13_3 C17_3 1_555 1_555
C17_3 H19_3 1_555 1_555
C18_3 C17_3 1_555 1_555
H20_3 C18_3 1_555 1_555
H21_3 C18_3 1_555 1_555
C19_3 C17_3 1_555 1_555
H22_3 C19_3 1_555 1_555
H23_3 C19_3 1_555 1_555
C20_3 C19_3 1_555 1_555
H24_3 C20_3 1_555 1_555
C21_3 C18_3 1_555 1_555
H26_3 C21_3 1_555 1_555
H27_3 C21_3 1_555 1_555
O4_2 C13_3 1_555 1_555
O13 C13_3 1_555 1_555
Nd6 O4_2 1_555 1_555
C1_3 C3_3 1_555 1_555
C4_3 C3_3 1_555 1_555
H2_3 C4_3 1_555 1_555
H3_3 C4_3 1_555 1_555
C5_3 C4_3 1_555 1_555
H5_3 C5_3 1_555 1_555
C6_3 H6_3 1_555 1_555
C7_3 C3_3 1_555 1_555
H8_3 C7_3 1_555 1_555
H9_3 C7_3 1_555 1_555
C8_3 N1_3 1_555 1_555
H13_3 C11_3 1_555 1_555
H14_3 C11_3 1_555 1_555
C12_3 N2_3 1_555 1_555
C14_3 H15_3 1_555 1_555
H16_3 C14_3 1_555 1_555
H17_3 C15_3 1_555 1_555
H18_3 C15_3 1_555 1_555
C16_3 N3_3 1_555 1_555
N1_3 C5_3 1_555 1_555
N2_3 C8_3 1_555 1_555
N3_3 C8_3 1_555 1_555
N4_3 C11_3 1_555 1_555
N5_3 C12_3 1_555 1_555
N6_3 C16_3 1_555 1_555
Nd4 O1_3 1_555 1_555
O1_3 C1_3 1_555 1_555
O7_3 Nd4 1_555 1_555
O9_2 Nd4 1_555 1_555
O10_2 Nd4 1_555 1_555
C6_3 C7_3 1_555 1_555
C6_3 N1_3 1_555 1_555
C12_3 N4_3 1_555 1_555
C14_3 C15_3 1_555 1_555
C14_3 N4_3 1_555 1_555
C16_3 N5_3 1_555 1_555
O7_3 H28_3 1_555 1_555
O7_3 H29_3 1_555 1_555
C2_3 C9_3 1_555 1_555
C9_3 H10_3 1_555 1_555
C10_3 C9_3 1_555 1_555
H11_3 C10_3 1_555 1_555
H12_4 C10_3 1_555 1_555
O9_2 C2_3 1_555 1_555
O12_2 C2_3 1_555 1_555
C2_4 C9_4 1_555 1_555
C9_4 H10_4 1_555 1_555
C10_4 C9_4 1_555 1_555
H11_4 C10_4 1_555 1_555
H12_6 C10_4 1_555 1_555
O3_2 C2_4 1_555 1_555
O12 C2_4 1_555 1_555
Nd6 O3_2 1_555 1_555
C13_4 C17_4 1_555 1_555
C17_4 H19_4 1_555 1_555
C19_4 C17_4 1_555 1_555
H22_4 C19_4 1_555 1_555
C20_4 C19_4 1_555 1_555
H24_4 C20_4 1_555 1_555
H25_4 C20_4 1_555 1_555
O13_2 C13_4 1_555 1_555
C1_4 C3_4 1_555 1_555
C3_4 H1_4 1_555 1_555
C4_4 C3_4 1_555 1_555
H2_4 C4_4 1_555 1_555
H3_4 C4_4 1_555 1_555
C5_4 C4_4 1_555 1_555
H4_4 C5_4 1_555 1_555
H5_4 C5_4 1_555 1_555
C6_4 H6_4 1_555 1_555
H7_4 C6_4 1_555 1_555
C7_4 C3_4 1_555 1_555
H8_4 C7_4 1_555 1_555
H9_4 C7_4 1_555 1_555
C8_4 N1_4 1_555 1_555
H13_4 C11_4 1_555 1_555
C12_4 N2_4 1_555 1_555
C14_4 H15_4 1_555 1_555
H16_4 C14_4 1_555 1_555
H17_4 C15_4 1_555 1_555
H18_4 C15_4 1_555 1_555
C16_4 N3_4 1_555 1_555
H20_4 C18_4 1_555 1_555
H21_4 C18_4 1_555 1_555
C21_4 C18_4 1_555 1_555
H26_4 C21_4 1_555 1_555
H27_4 C21_4 1_555 1_555
N1_4 C5_4 1_555 1_555
N2_4 C8_4 1_555 1_555
N3_4 C8_4 1_555 1_555
N4_4 C11_4 1_555 1_555
N5_4 C12_4 1_555 1_555
N6_4 C16_4 1_555 1_555
Nd6 O1_4 1_555 1_555
O1_4 C1_4 1_555 1_555
O8 C1_4 1_555 1_555
O7_4 Nd6 1_555 1_555
C6_4 C7_4 1_555 1_555
C6_4 N1_4 1_555 1_555
C12_4 N4_4 1_555 1_555
C14_4 C15_4 1_555 1_555
C14_4 N4_4 1_555 1_555
C16_4 N5_4 1_555 1_555
C21_4 N6_4 1_555 1_555
Nd6 O8 1_555 1_555
O7_4 H28_4 1_555 1_555
O7_4 H29_4 1_555 1_555

#END
