
###############################################################################
#
# This file contains modified crystal structure data generated from the
# MOF subset of the Cambridge Structural Database (CSD) v543 
# hosted by the Cambridge Crystallographic Data Centre (CCDC).
#
# This work is licensed under the Creative Commons
# Attribution-NonCommercial-ShareAlike 4.0 International License.
# To view a copy of this license, visit
# http://creativecommons.org/licenses/by-nc-sa/4.0/
# or send a letter to
# Creative Commons, PO Box 1866, Mountain View, CA 94042, USA.
#
# CIF created using the CSD Python API on 29 September 2022
# The structure has been converted into the P1 space group
# The structure has a 3D framework
# The original CSD entry DICVES is in the monoclinic crystal system
# The framework has been calculated to contain at least 10.0% void space
# The void calculation uses a probe of radius 1.32A, grid spacing 0.4
# H atom positions have been added when not included in the experimental data
#
###############################################################################

data_DICVES
_chemical_formula_moiety         '(C84 H116 N24 O24 Pr4)n'
_symmetry_cell_setting           triclinic
_symmetry_space_group_name_H-M   'P 1'
_symmetry_Int_Tables_number      1
_space_group_name_Hall           'P 1'
loop_
_symmetry_equiv_pos_site_id
_symmetry_equiv_pos_as_xyz
1 x,y,z
_cell_length_a                   16.5758(13)
_cell_length_b                   26.692(2)
_cell_length_c                   8.2402(6)
_cell_angle_alpha                90
_cell_angle_beta                 100.8480(10)
_cell_angle_gamma                90
_cell_volume                     3580.65
loop_
_atom_site_label
_atom_site_type_symbol
_atom_site_fract_x
_atom_site_fract_y
_atom_site_fract_z
H14 H 0.077(3) 0.1851(18) 0.104(7)
H18 H 0.0008 0.1007 0.0938
O3 O 0.2016(2) 0.21528(12) 0.0122(4)
Pr6 Pr 0.268025(16) 0.243845(9) 0.28487(3)
C12 C 0.0623(3) 0.1867(2) 0.9835(7)
C13 C 0.0561(3) 0.13311(18) 0.9171(8)
H15 H 0.0460 0.1338 0.7973
H16 H 0.1077 0.1159 0.9549
C20 C 0.1290(3) 0.21438(17) 0.9207(7)
O6 O 0.1165(2) 0.23405(14) 0.7817(5)
Pr2 Pr 0.268025(16) 0.256155(9) 0.78487(3)
H10 H 0.9219 0.1813 0.1140
O8 O 0.3544(2) 0.26659(13) 0.0572(4)
C1 C 0.4938(3) 0.20227(19) 0.6037(7)
H1 H 0.495(3) 0.2192(19) 0.499(7)
C2 C 0.5693(3) 0.2185(2) 0.7278(8)
H2 H 0.5684 0.2546 0.7417
H3 H 0.5682 0.2031 0.8341
C3 C 0.6473(3) 0.20346(18) 0.6701(8)
H4 H 0.6521 0.2225 0.5721
H5 H 0.6943 0.2114 0.7555
C4 C 0.5763(3) 0.1321(2) 0.5152(8)
H6 H 0.5795 0.0960 0.5036
H7 H 0.5757 0.1471 0.4078
C5 C 0.4976(3) 0.14585(19) 0.5757(8)
H8 H 0.4959 0.1283 0.6782
H9 H 0.4504 0.1355 0.4945
C6 C 0.7172(3) 0.12200(19) 0.6758(7)
C7 C 0.8452(3) 0.11275(18) 0.8237(7)
C8 C 0.7876(3) 0.05077(17) 0.6591(7)
C9 C 0.4145(3) 0.21644(18) 0.6605(7)
C10 C 0.9123(3) 0.18219(19) 0.9942(8)
H11 H 0.8593 0.1979 0.9558
C11 C 0.9791(3) 0.21309(19) 0.9381(8)
H12 H 0.9822 0.2458 0.9904
H13 H 0.9655 0.2179 0.8195
C14 C 0.9875(3) 0.10487(19) 0.9748(8)
H17 H 0.9822 0.0718 0.9248
H26 H 0.6795 0.0054 0.4482
N1 N 0.6480(3) 0.14997(16) 0.6327(6)
N2 N 0.7797(2) 0.14313(15) 0.7817(6)
N3 N 0.7172(3) 0.07662(15) 0.6090(6)
N4 N 0.8525(3) 0.06613(15) 0.7685(6)
N5 N 0.9107(3) 0.13139(15) 0.9307(6)
N6 N 0.7922(3) 0.00436(15) 0.5916(7)
O1 O 0.3544(2) 0.23341(13) 0.5572(4)
O2 O 0.4088(2) 0.21247(15) 0.8092(5)
O4 O 0.3452(2) 0.33451(13) 0.7266(5)
O10 O 0.2016(2) 0.28472(12) 0.5122(4)
O11 O 0.2083(2) 0.32506(12) 0.9141(5)
O13 O 0.2389(2) 0.16997(13) 0.6904(5)
H28 H 0.328402 0.343849 0.608413
H29 H 0.332119 0.362411 0.797053
C15 C 0.8714(3) 0.97857(19) 0.6107(8)
H19 H 0.9063 0.9891 0.7130
H20 H 0.8984 0.9877 0.5202
C16 C 0.8602(3) 0.92241(18) 0.6126(7)
H21 H 0.8388 0.9129 0.7099
H22 H 0.9130 0.9061 0.6183
C17 C 0.7192(3) 0.93204(18) 0.4486(8)
H23 H 0.6818 0.9219 0.3490
H24 H 0.6951 0.9228 0.5428
C18 C 0.7314(3) 0.98874(19) 0.4469(8)
H25 H 0.7499 0.9984 0.3466
C19 C 0.7844(3) 0.84853(19) 0.4529(7)
C21 C 0.8015(3) 0.90500(18) 0.4586(7)
H27 H 0.825(3) 0.9142(19) 0.361(7)
O5 O 0.7917(2) 0.82506(12) 0.5859(5)
O7 O 0.7611(2) 0.83003(13) 0.3096(5)
Pr3 Pr 0.731975(16) 0.756155(9) 0.71513(3)
Pr4 Pr 0.731975(16) 0.743845(9) 0.21513(3)
H1_2 H 0.505(3) 0.7192(19) 0.001(7)
H7_2 H 0.4243 0.6471 0.0922
H9_2 H 0.5496 0.6355 0.0055
C17_2 C 0.2808(3) 0.43204(18) 0.0514(8)
H23_2 H 0.3182 0.4219 0.1510
C18_2 C 0.2686(3) 0.48874(19) 0.0531(8)
H25_2 H 0.2501 0.4984 0.1534
H26_2 H 0.3205 0.5054 0.0518
C19_2 C 0.2156(3) 0.34853(19) 0.0471(7)
C21_2 C 0.1985(3) 0.40500(18) 0.0414(7)
H27_2 H 0.175(3) 0.4142(19) 0.139(7)
O7_2 O 0.2389(2) 0.33003(13) 0.1904(5)
C1_2 C 0.5062(3) 0.70227(19) 0.8963(7)
C2_2 C 0.4307(3) 0.7185(2) 0.7722(8)
H2_2 H 0.4316 0.7546 0.7583
H3_2 H 0.4318 0.7031 0.6659
C3_2 C 0.3527(3) 0.70346(18) 0.8299(8)
H4_2 H 0.3479 0.7225 0.9279
H5_2 H 0.3057 0.7114 0.7445
C4_2 C 0.4237(3) 0.6321(2) 0.9848(8)
H6_2 H 0.4205 0.5960 0.9964
C5_2 C 0.5024(3) 0.64585(19) 0.9243(8)
H8_2 H 0.5041 0.6283 0.8218
C6_2 C 0.2828(3) 0.62200(19) 0.8242(7)
C7_2 C 0.1548(3) 0.61275(18) 0.6763(7)
C8_2 C 0.2124(3) 0.55077(17) 0.8409(7)
C9_2 C 0.5855(3) 0.71644(18) 0.8395(7)
C10_2 C 0.0877(3) 0.68219(19) 0.5058(8)
H10_2 H 0.0781 0.6813 0.3860
H11_2 H 0.1407 0.6979 0.5442
C11_2 C 0.0209(3) 0.71309(19) 0.5619(8)
H12_2 H 0.0178 0.7458 0.5096
H13_2 H 0.0345 0.7179 0.6805
C14_2 C 0.0125(3) 0.60487(19) 0.5252(8)
H17_2 H 0.0178 0.5718 0.5752
C15_2 C 0.1286(3) 0.47857(19) 0.8893(8)
H19_2 H 0.0937 0.4891 0.7870
H20_2 H 0.1016 0.4877 0.9798
C16_2 C 0.1398(3) 0.42241(18) 0.8874(7)
H21_2 H 0.1612 0.4129 0.7901
H22_2 H 0.0870 0.4061 0.8817
H24_2 H 0.3049 0.4228 0.9572
N1_2 N 0.3520(3) 0.64997(16) 0.8673(6)
N2_2 N 0.2203(2) 0.64313(15) 0.7183(6)
N3_2 N 0.2828(3) 0.57662(15) 0.8910(6)
N4_2 N 0.1475(3) 0.56613(15) 0.7315(6)
N5_2 N 0.0893(3) 0.63139(15) 0.5693(6)
N6_2 N 0.2078(3) 0.50436(15) 0.9084(7)
O1_2 O 0.6456(2) 0.73341(13) 0.9428(4)
O2_2 O 0.5912(2) 0.71247(15) 0.6908(5)
O4_2 O 0.6548(2) 0.83451(13) 0.7734(5)
O8_2 O 0.6456(2) 0.76659(13) 0.4428(4)
O9 O 0.7984(2) 0.71528(12) 0.4878(4)
O10_2 O 0.7984(2) 0.78472(12) 0.9878(4)
O12 O 0.8835(2) 0.73405(14) 0.7183(5)
O13_2 O 0.7611(2) 0.66997(13) 0.8096(5)
H28_2 H 0.671598 0.843849 0.891587
H29_2 H 0.667881 0.862411 0.702947
C12_2 C 0.9377(3) 0.6867(2) 0.5165(7)
H14_2 H 0.923(3) 0.6851(18) 0.396(7)
C13_2 C 0.9439(3) 0.63311(18) 0.5829(8)
H15_2 H 0.9540 0.6338 0.7027
H16_2 H 0.8923 0.6159 0.5451
H18_2 H 0.9992 0.6007 0.4062
C20_2 C 0.8710(3) 0.71438(17) 0.5793(7)
C15_3 C 0.1286(3) 0.02143(19) 0.3893(8)
H19_3 H 0.0937 0.0109 0.2870
H20_3 H 0.1016 0.0123 0.4798
C16_3 C 0.1398(3) 0.07759(18) 0.3874(7)
H21_3 H 0.1612 0.0871 0.2901
H22_3 H 0.0870 0.0939 0.3817
C17_3 C 0.2808(3) 0.06796(18) 0.5514(8)
H23_3 H 0.3182 0.0781 0.6510
H24_3 H 0.3049 0.0772 0.4572
C18_3 C 0.2686(3) 0.01126(19) 0.5531(8)
H25_3 H 0.2501 0.0016 0.6534
C19_3 C 0.2156(3) 0.15147(19) 0.5471(7)
C21_3 C 0.1985(3) 0.09500(18) 0.5414(7)
H27_3 H 0.175(3) 0.0858(19) 0.639(7)
O5_2 O 0.2083(2) 0.17494(12) 0.4141(5)
C1_3 C 0.5062(3) 0.79773(19) 0.3963(7)
H1_3 H 0.505(3) 0.7808(19) 0.501(7)
C2_3 C 0.4307(3) 0.7815(2) 0.2722(8)
H2_3 H 0.4316 0.7454 0.2583
H3_3 H 0.4318 0.7969 0.1659
C3_3 C 0.3527(3) 0.79654(18) 0.3299(8)
H4_3 H 0.3479 0.7775 0.4279
H5_3 H 0.3057 0.7886 0.2445
C4_3 C 0.4237(3) 0.8679(2) 0.4848(8)
H6_3 H 0.4205 0.9040 0.4964
H7_3 H 0.4243 0.8529 0.5922
C5_3 C 0.5024(3) 0.85415(19) 0.4243(8)
H8_3 H 0.5041 0.8717 0.3218
H9_3 H 0.5496 0.8645 0.5055
C6_3 C 0.2828(3) 0.87800(19) 0.3242(7)
C7_3 C 0.1548(3) 0.88725(18) 0.1763(7)
C8_3 C 0.2124(3) 0.94923(17) 0.3409(7)
C9_3 C 0.5855(3) 0.78356(18) 0.3395(7)
C10_3 C 0.0877(3) 0.81781(19) 0.0058(8)
H11_3 H 0.1407 0.8021 0.0442
C11_3 C 0.0209(3) 0.78691(19) 0.0619(8)
H12_3 H 0.0178 0.7542 0.0096
H13_3 H 0.0345 0.7821 0.1805
C14_3 C 0.0125(3) 0.89513(19) 0.0252(8)
H17_3 H 0.0178 0.9282 0.0752
H26_3 H 0.3205 0.9946 0.5518
N1_3 N 0.3520(3) 0.85003(16) 0.3673(6)
N2_3 N 0.2203(2) 0.85687(15) 0.2183(6)
N3_3 N 0.2828(3) 0.92338(15) 0.3910(6)
N4_3 N 0.1475(3) 0.93387(15) 0.2315(6)
N5_3 N 0.0893(3) 0.86861(15) 0.0693(6)
N6_3 N 0.2078(3) 0.99564(15) 0.4084(7)
O2_3 O 0.5912(2) 0.78753(15) 0.1908(5)
O4_3 O 0.6548(2) 0.66549(13) 0.2734(5)
O11_2 O 0.7917(2) 0.67494(12) 0.0859(5)
O12_2 O 0.8835(2) 0.76595(14) 0.2183(5)
H28_3 H 0.671598 0.656151 0.391587
H29_3 H 0.667881 0.637589 0.202947
H10_3 H 0.0781 0.8187 0.8860
C12_3 C 0.9377(3) 0.8133(2) 0.0165(7)
C13_3 C 0.9439(3) 0.86689(18) 0.0829(8)
H15_3 H 0.9540 0.8662 0.2027
H16_3 H 0.8923 0.8841 0.0451
C20_3 C 0.8710(3) 0.78562(17) 0.0793(7)
H14_3 H 0.923(3) 0.8149(18) 0.896(7)
H18_3 H 0.9992 0.8993 0.9062
C12_4 C 0.0623(3) 0.3133(2) 0.4835(7)
H14_4 H 0.077(3) 0.3149(18) 0.604(7)
C13_4 C 0.0561(3) 0.36689(18) 0.4171(8)
H15_4 H 0.0460 0.3662 0.2973
H16_4 H 0.1077 0.3841 0.4549
H18_4 H 0.0008 0.3993 0.5938
C20_4 C 0.1290(3) 0.28562(17) 0.4207(7)
O6_2 O 0.1165(2) 0.26595(14) 0.2817(5)
C1_4 C 0.4938(3) 0.29773(19) 0.1037(7)
C2_4 C 0.5693(3) 0.2815(2) 0.2278(8)
H2_4 H 0.5684 0.2454 0.2417
H3_4 H 0.5682 0.2969 0.3341
C3_4 C 0.6473(3) 0.29654(18) 0.1701(8)
H4_4 H 0.6521 0.2775 0.0721
H5_4 H 0.6943 0.2886 0.2555
C4_4 C 0.5763(3) 0.3679(2) 0.0152(8)
H6_4 H 0.5795 0.4040 0.0036
C5_4 C 0.4976(3) 0.35415(19) 0.0757(8)
H8_4 H 0.4959 0.3717 0.1782
C6_4 C 0.7172(3) 0.37800(19) 0.1758(7)
C7_4 C 0.8452(3) 0.38725(18) 0.3237(7)
C8_4 C 0.7876(3) 0.44923(17) 0.1591(7)
C9_4 C 0.4145(3) 0.28356(18) 0.1605(7)
C10_4 C 0.9123(3) 0.31781(19) 0.4942(8)
H10_4 H 0.9219 0.3187 0.6140
H11_4 H 0.8593 0.3021 0.4558
C11_4 C 0.9791(3) 0.28691(19) 0.4381(8)
H12_4 H 0.9822 0.2542 0.4904
H13_4 H 0.9655 0.2821 0.3195
C14_4 C 0.9875(3) 0.39513(19) 0.4748(8)
H17_4 H 0.9822 0.4282 0.4248
C15_4 C 0.8714(3) 0.52143(19) 0.1107(8)
H19_4 H 0.9063 0.5109 0.2130
H20_4 H 0.8984 0.5123 0.0202
C16_4 C 0.8602(3) 0.57759(18) 0.1126(7)
H21_4 H 0.8388 0.5871 0.2099
H22_4 H 0.9130 0.5939 0.1183
H24_4 H 0.6951 0.5772 0.0428
N1_4 N 0.6480(3) 0.35003(16) 0.1327(6)
N2_4 N 0.7797(2) 0.35687(15) 0.2817(6)
N3_4 N 0.7172(3) 0.42338(15) 0.1090(6)
N4_4 N 0.8525(3) 0.43387(15) 0.2685(6)
N5_4 N 0.9107(3) 0.36861(15) 0.4307(6)
N6_4 N 0.7922(3) 0.49564(15) 0.0916(7)
O2_4 O 0.4088(2) 0.28753(15) 0.3092(5)
O4_4 O 0.3452(2) 0.16549(13) 0.2266(5)
H28_4 H 0.328402 0.156151 0.108413
H29_4 H 0.332119 0.137589 0.297053
H1_4 H 0.495(3) 0.2808(19) 0.999(7)
H7_4 H 0.5757 0.3529 0.9078
H9_4 H 0.4504 0.3645 0.9945
C17_4 C 0.7192(3) 0.56796(18) 0.9486(8)
H23_4 H 0.6818 0.5781 0.8490
C18_4 C 0.7314(3) 0.51126(19) 0.9469(8)
H25_4 H 0.7499 0.5016 0.8466
H26_4 H 0.6795 0.4946 0.9482
C19_4 C 0.7844(3) 0.65147(19) 0.9529(7)
C21_4 C 0.8015(3) 0.59500(18) 0.9586(7)
H27_4 H 0.825(3) 0.5858(19) 0.861(7)
loop_
_geom_bond_atom_site_label_1
_geom_bond_atom_site_label_2
_geom_bond_site_symmetry_1
_geom_bond_site_symmetry_2
Pr6 O3 1_555 1_555
C13 C12 1_555 1_555
H15 C13 1_555 1_555
H16 C13 1_555 1_555
C20 C12 1_555 1_555
O6 C20 1_555 1_555
O6 Pr2 1_555 1_555
C1 H1 1_555 1_555
C2 C1 1_555 1_555
H2 C2 1_555 1_555
H3 C2 1_555 1_555
C3 C2 1_555 1_555
H4 C3 1_555 1_555
H5 C3 1_555 1_555
C4 H6 1_555 1_555
H7 C4 1_555 1_555
C5 C1 1_555 1_555
H8 C5 1_555 1_555
H9 C5 1_555 1_555
C6 N1 1_555 1_555
C7 N2 1_555 1_555
C8 N3 1_555 1_555
C9 C1 1_555 1_555
H11 C10 1_555 1_555
C11 C10 1_555 1_555
H12 C11 1_555 1_555
H13 C11 1_555 1_555
H17 C14 1_555 1_555
N1 C3 1_555 1_555
N2 C6 1_555 1_555
N3 C6 1_555 1_555
N4 C7 1_555 1_555
N5 C7 1_555 1_555
N6 C8 1_555 1_555
O1 C9 1_555 1_555
O2 C9 1_555 1_555
O4 Pr2 1_555 1_555
Pr2 O1 1_555 1_555
O10 Pr2 1_555 1_555
O11 Pr2 1_555 1_555
O13 Pr2 1_555 1_555
Pr6 O1 1_555 1_555
C4 C5 1_555 1_555
C4 N1 1_555 1_555
C8 N4 1_555 1_555
C10 N5 1_555 1_555
C14 N5 1_555 1_555
O2 Pr2 1_555 1_555
O10 Pr6 1_555 1_555
O4 H28 1_555 1_555
O4 H29 1_555 1_555
C15 H19 1_555 1_555
H20 C15 1_555 1_555
C16 C15 1_555 1_555
H21 C16 1_555 1_555
H22 C16 1_555 1_555
C17 H23 1_555 1_555
H24 C17 1_555 1_555
C18 C17 1_555 1_555
H25 C18 1_555 1_555
C19 C21 1_555 1_555
C21 C16 1_555 1_555
H27 C21 1_555 1_555
O5 C19 1_555 1_555
O7 C19 1_555 1_555
Pr3 O5 1_555 1_555
Pr4 O7 1_555 1_555
C17 C21 1_555 1_555
C17_2 H23_2 1_555 1_555
C18_2 C17_2 1_555 1_555
H25_2 C18_2 1_555 1_555
H26_2 C18_2 1_555 1_555
C19_2 C21_2 1_555 1_555
H27_2 C21_2 1_555 1_555
O7_2 C19_2 1_555 1_555
Pr6 O7_2 1_555 1_555
C17_2 C21_2 1_555 1_555
C2_2 C1_2 1_555 1_555
H2_2 C2_2 1_555 1_555
H3_2 C2_2 1_555 1_555
C3_2 C2_2 1_555 1_555
H4_2 C3_2 1_555 1_555
H5_2 C3_2 1_555 1_555
C4_2 H6_2 1_555 1_555
C5_2 C1_2 1_555 1_555
H8_2 C5_2 1_555 1_555
C6_2 N1_2 1_555 1_555
C7_2 N2_2 1_555 1_555
C8_2 N3_2 1_555 1_555
C9_2 C1_2 1_555 1_555
C10_2 H10_2 1_555 1_555
H11_2 C10_2 1_555 1_555
C11_2 C10_2 1_555 1_555
H12_2 C11_2 1_555 1_555
H13_2 C11_2 1_555 1_555
H17_2 C14_2 1_555 1_555
C15_2 H19_2 1_555 1_555
H20_2 C15_2 1_555 1_555
C16_2 C15_2 1_555 1_555
H21_2 C16_2 1_555 1_555
H22_2 C16_2 1_555 1_555
N1_2 C3_2 1_555 1_555
N2_2 C6_2 1_555 1_555
N3_2 C6_2 1_555 1_555
N4_2 C7_2 1_555 1_555
N5_2 C7_2 1_555 1_555
N6_2 C8_2 1_555 1_555
O1_2 C9_2 1_555 1_555
O2_2 C9_2 1_555 1_555
O4_2 Pr3 1_555 1_555
Pr3 O1_2 1_555 1_555
O8_2 Pr3 1_555 1_555
O9 Pr3 1_555 1_555
O10_2 Pr3 1_555 1_555
O12 Pr3 1_555 1_555
O13_2 Pr3 1_555 1_555
C4_2 C5_2 1_555 1_555
C4_2 N1_2 1_555 1_555
C8_2 N4_2 1_555 1_555
C10_2 N5_2 1_555 1_555
C14_2 N5_2 1_555 1_555
C15_2 N6_2 1_555 1_555
O2_2 Pr3 1_555 1_555
O4_2 H28_2 1_555 1_555
O4_2 H29_2 1_555 1_555
H14_2 C12_2 1_555 1_555
C13_2 C12_2 1_555 1_555
H15_2 C13_2 1_555 1_555
H16_2 C13_2 1_555 1_555
C20_2 C12_2 1_555 1_555
O9 C20_2 1_555 1_555
O12 C20_2 1_555 1_555
Pr4 O9 1_555 1_555
C15_3 H19_3 1_555 1_555
H20_3 C15_3 1_555 1_555
C16_3 C15_3 1_555 1_555
H21_3 C16_3 1_555 1_555
H22_3 C16_3 1_555 1_555
C17_3 H23_3 1_555 1_555
H24_3 C17_3 1_555 1_555
C18_3 C17_3 1_555 1_555
H25_3 C18_3 1_555 1_555
C19_3 C21_3 1_555 1_555
C21_3 C16_3 1_555 1_555
H27_3 C21_3 1_555 1_555
O5_2 C19_3 1_555 1_555
O13 C19_3 1_555 1_555
Pr6 O5_2 1_555 1_555
C17_3 C21_3 1_555 1_555
C1_3 H1_3 1_555 1_555
C2_3 C1_3 1_555 1_555
H2_3 C2_3 1_555 1_555
H3_3 C2_3 1_555 1_555
C3_3 C2_3 1_555 1_555
H4_3 C3_3 1_555 1_555
H5_3 C3_3 1_555 1_555
C4_3 H6_3 1_555 1_555
H7_3 C4_3 1_555 1_555
C5_3 C1_3 1_555 1_555
H8_3 C5_3 1_555 1_555
H9_3 C5_3 1_555 1_555
C6_3 N1_3 1_555 1_555
C7_3 N2_3 1_555 1_555
C8_3 N3_3 1_555 1_555
C9_3 C1_3 1_555 1_555
H11_3 C10_3 1_555 1_555
C11_3 C10_3 1_555 1_555
H12_3 C11_3 1_555 1_555
H13_3 C11_3 1_555 1_555
H17_3 C14_3 1_555 1_555
N1_3 C3_3 1_555 1_555
N2_3 C6_3 1_555 1_555
N3_3 C6_3 1_555 1_555
N4_3 C7_3 1_555 1_555
N5_3 C7_3 1_555 1_555
N6_3 C8_3 1_555 1_555
O8_2 C9_3 1_555 1_555
O2_3 C9_3 1_555 1_555
O4_3 Pr4 1_555 1_555
Pr4 O8_2 1_555 1_555
O11_2 Pr4 1_555 1_555
O12_2 Pr4 1_555 1_555
C4_3 C5_3 1_555 1_555
C4_3 N1_3 1_555 1_555
C8_3 N4_3 1_555 1_555
C10_3 N5_3 1_555 1_555
C14_3 N5_3 1_555 1_555
O2_3 Pr4 1_555 1_555
O4_3 H28_3 1_555 1_555
O4_3 H29_3 1_555 1_555
C13_3 C12_3 1_555 1_555
H15_3 C13_3 1_555 1_555
H16_3 C13_3 1_555 1_555
C20_3 C12_3 1_555 1_555
O12_2 C20_3 1_555 1_555
H14_4 C12_4 1_555 1_555
C13_4 C12_4 1_555 1_555
H15_4 C13_4 1_555 1_555
H16_4 C13_4 1_555 1_555
C20_4 C12_4 1_555 1_555
O10 C20_4 1_555 1_555
O6_2 C20_4 1_555 1_555
O6_2 Pr6 1_555 1_555
C2_4 C1_4 1_555 1_555
H2_4 C2_4 1_555 1_555
H3_4 C2_4 1_555 1_555
C3_4 C2_4 1_555 1_555
H4_4 C3_4 1_555 1_555
H5_4 C3_4 1_555 1_555
C4_4 H6_4 1_555 1_555
C5_4 C1_4 1_555 1_555
H8_4 C5_4 1_555 1_555
C6_4 N1_4 1_555 1_555
C7_4 N2_4 1_555 1_555
C8_4 N3_4 1_555 1_555
C9_4 C1_4 1_555 1_555
C10_4 H10_4 1_555 1_555
H11_4 C10_4 1_555 1_555
C11_4 C10_4 1_555 1_555
H12_4 C11_4 1_555 1_555
H13_4 C11_4 1_555 1_555
H17_4 C14_4 1_555 1_555
C15_4 H19_4 1_555 1_555
H20_4 C15_4 1_555 1_555
C16_4 C15_4 1_555 1_555
H21_4 C16_4 1_555 1_555
H22_4 C16_4 1_555 1_555
N1_4 C3_4 1_555 1_555
N2_4 C6_4 1_555 1_555
N3_4 C6_4 1_555 1_555
N4_4 C7_4 1_555 1_555
N5_4 C7_4 1_555 1_555
N6_4 C8_4 1_555 1_555
O8 C9_4 1_555 1_555
O2_4 C9_4 1_555 1_555
O4_4 Pr6 1_555 1_555
Pr6 O8 1_555 1_555
C4_4 C5_4 1_555 1_555
C4_4 N1_4 1_555 1_555
C8_4 N4_4 1_555 1_555
C10_4 N5_4 1_555 1_555
C14_4 N5_4 1_555 1_555
C15_4 N6_4 1_555 1_555
O2_4 Pr6 1_555 1_555
O4_4 H28_4 1_555 1_555
O4_4 H29_4 1_555 1_555
C17_4 H23_4 1_555 1_555
C18_4 C17_4 1_555 1_555
H25_4 C18_4 1_555 1_555
H26_4 C18_4 1_555 1_555
C19_4 C21_4 1_555 1_555
H27_4 C21_4 1_555 1_555
O13_2 C19_4 1_555 1_555
C17_4 C21_4 1_555 1_555

#END
