
###############################################################################
#
# This file contains modified crystal structure data generated from the
# MOF subset of the Cambridge Structural Database (CSD) v543 
# hosted by the Cambridge Crystallographic Data Centre (CCDC).
#
# This work is licensed under the Creative Commons
# Attribution-NonCommercial-ShareAlike 4.0 International License.
# To view a copy of this license, visit
# http://creativecommons.org/licenses/by-nc-sa/4.0/
# or send a letter to
# Creative Commons, PO Box 1866, Mountain View, CA 94042, USA.
#
# CIF created using the CSD Python API on 29 September 2022
# The structure has been converted into the P1 space group
# The structure has a 3D framework
# The original CSD entry DIDBEZ is in the tetragonal crystal system
# The original CSD entry DIDBEZ is in a Sohncke space group
# The framework has been calculated to contain at least 10.0% void space
# The void calculation uses a probe of radius 1.32A, grid spacing 0.4
#
###############################################################################

data_DIDBEZ
_chemical_formula_moiety         '(C192 H128 Co8 N16 O32)n'
_symmetry_cell_setting           triclinic
_symmetry_space_group_name_H-M   'P 1'
_symmetry_Int_Tables_number      1
_space_group_name_Hall           'P 1'
loop_
_symmetry_equiv_pos_site_id
_symmetry_equiv_pos_as_xyz
1 x,y,z
_cell_length_a                   22.6140(14)
_cell_length_b                   22.6140(14)
_cell_length_c                   12.7315(16)
_cell_angle_alpha                90
_cell_angle_beta                 90
_cell_angle_gamma                90
_cell_volume                     6510.8
loop_
_atom_site_label
_atom_site_type_symbol
_atom_site_fract_x
_atom_site_fract_y
_atom_site_fract_z
C13 C 0.2626(5) 0.1134(4) 0.2348(8)
H9 H 0.2611 0.1139 0.3094
C14 C 0.2663(6) 0.0597(5) 0.1829(9)
H10 H 0.2645 0.0241 0.2224
C15 C 0.2725(5) 0.0568(4) 0.0773(8)
C16 C 0.2734(5) 0.1114(4) 0.0219(8)
C17 C 0.2674(5) 0.1632(4) 0.0793(9)
H12 H 0.2680 0.1996 0.0422
N2 N 0.2610(4) 0.1649(4) 0.1818(7)
Co2 Co 0.23827(5) 0.24376(5) 0.25249(10)
Co1 Co 0.73827(5) 0.25624(5) 0.74751(10)
C1 C 0.3575(5) 0.2955(5) 0.3041(9)
H1 H 0.3530 0.3141 0.2376
C2 C 0.4071(5) 0.3056(5) 0.3609(9)
H2 H 0.4361 0.3322 0.3346
C3 C 0.4165(5) 0.2781(6) 0.4563(8)
C4 C 0.3717(4) 0.2436(5) 0.4940(9)
H3 H 0.3750 0.2256 0.5612
C5 C 0.3214(5) 0.2350(5) 0.4333(9)
H4 H 0.2909 0.2104 0.4601
C6 C 0.4732(4) 0.2849(5) 0.5167(9)
C7 C 0.5253(5) 0.2957(6) 0.4636(8)
H5 H 0.5247 0.3030 0.3902
C8 C 0.5786(4) 0.2959(5) 0.5177(9)
H6 H 0.6145 0.3021 0.4804
C9 C 0.5801(5) 0.2873(5) 0.6223(8)
C10 C 0.5267(5) 0.2785(6) 0.6782(9)
H7 H 0.5267 0.2729 0.7521
C11 C 0.4753(5) 0.2783(6) 0.6228(9)
H8 H 0.4392 0.2733 0.6599
C12 C 0.6385(5) 0.2814(5) 0.6801(9)
C20 C 0.7554(5) 0.1001(4) 0.9977(9)
C21 C 0.7254(5) 0.1040(5) 0.9038(8)
C22 C 0.6944(5) 0.0562(5) 0.8675(9)
H15 H 0.6724 0.0586 0.8041
C23 C 0.6957(6) 0.0044(5) 0.9244(9)
C24 C 0.7285(5) 0.1585(4) 0.8388(8)
O1 O 0.6857(3) 0.2819(3) 0.6259(5)
O2 O 0.6401(3) 0.2756(4) 0.7782(6)
O3 O 0.7103(3) 0.1599(3) 0.7466(6)
O4 O 0.7545(3) 0.2044(3) 0.8784(5)
N1 N 0.3141(4) 0.2593(4) 0.3403(6)
N3 N 0.8141(4) 0.2407(4) 0.6597(6)
N4 N 0.7610(4) 0.3351(4) 0.8182(7)
C7_2 C 0.0253(5) 0.2043(6) 0.5364(8)
H5_2 H 0.0247 0.1970 0.6098
C8_2 C 0.0786(4) 0.2041(5) 0.4823(9)
H6_2 H 0.1145 0.1979 0.5196
C9_2 C 0.0801(5) 0.2127(5) 0.3777(8)
C10_2 C 0.0267(5) 0.2215(6) 0.3218(9)
H7_2 H 0.0267 0.2271 0.2479
C12_2 C 0.1385(5) 0.2186(5) 0.3199(9)
H11 H 0.2220 0.6124 0.0522
C20_2 C 0.2554(5) 0.3999(4) 0.0023(9)
C21_2 C 0.2254(5) 0.3960(5) 0.0962(8)
C22_2 C 0.1944(5) 0.4438(5) 0.1325(9)
H15_2 H 0.1724 0.4414 0.1959
C23_2 C 0.1957(6) 0.4956(5) 0.0756(9)
H16 H 0.1753 0.5292 0.1018
C24_2 C 0.2285(5) 0.3415(4) 0.1612(8)
O1_2 O 0.1857(3) 0.2181(3) 0.3741(5)
O2_2 O 0.1401(3) 0.2244(4) 0.2218(6)
O3_2 O 0.2103(3) 0.3401(3) 0.2534(6)
O4_2 O 0.2545(3) 0.2956(3) 0.1216(5)
C1_2 C 0.8575(5) 0.2045(5) 0.6959(9)
H1_2 H 0.8530 0.1859 0.7624
C2_2 C 0.9071(5) 0.1944(5) 0.6391(9)
H2_2 H 0.9361 0.1678 0.6654
C3_2 C 0.9165(5) 0.2219(6) 0.5437(8)
C4_2 C 0.8717(4) 0.2564(5) 0.5060(9)
H3_2 H 0.8750 0.2744 0.4388
C5_2 C 0.8214(5) 0.2650(5) 0.5667(9)
H4_2 H 0.7909 0.2896 0.5399
C6_2 C 0.9732(4) 0.2151(5) 0.4833(9)
C11_2 C 0.9753(5) 0.2217(6) 0.3772(9)
H8_2 H 0.9392 0.2267 0.3401
C13_2 C 0.7626(5) 0.3866(4) 0.7652(8)
H9_2 H 0.7611 0.3861 0.6906
C14_2 C 0.7663(6) 0.4403(5) 0.8171(9)
H10_2 H 0.7645 0.4759 0.7776
C15_2 C 0.7725(5) 0.4432(4) 0.9227(8)
C16_2 C 0.7734(5) 0.3886(4) 0.9781(8)
C17_2 C 0.7674(5) 0.3368(4) 0.9207(9)
H12_2 H 0.7680 0.3004 0.9578
C18 C 0.7747(5) 0.5001(4) 0.9826(8)
C19 C 0.7446(5) 0.5491(5) 0.9451(8)
H13 H 0.7241 0.5471 0.8801
H14 H 0.7236 0.6335 0.9769
H11_2 H 0.2780 0.1124 0.9478
H16_2 H 0.3247 0.0292 0.8982
C18_2 C 0.2747(5) 0.9999(4) 0.0174(8)
C19_2 C 0.2446(5) 0.9509(5) 0.0549(8)
H13_2 H 0.2241 0.9529 0.1199
H14_2 H 0.2236 0.8665 0.0231
Co1_2 Co 0.26173(5) 0.74376(5) 0.74751(10)
C1_3 C 0.6425(5) 0.7045(5) 0.3041(9)
H1_3 H 0.6470 0.6859 0.2376
C2_3 C 0.5929(5) 0.6944(5) 0.3609(9)
H2_3 H 0.5639 0.6678 0.3346
C3_3 C 0.5835(5) 0.7219(6) 0.4563(8)
C4_3 C 0.6283(4) 0.7564(5) 0.4940(9)
H3_3 H 0.6250 0.7744 0.5612
C5_3 C 0.6786(5) 0.7650(5) 0.4333(9)
H4_3 H 0.7091 0.7896 0.4601
C6_3 C 0.5268(4) 0.7151(5) 0.5167(9)
C7_3 C 0.4747(5) 0.7043(6) 0.4636(8)
H5_3 H 0.4753 0.6970 0.3902
C8_3 C 0.4214(4) 0.7041(5) 0.5177(9)
H6_3 H 0.3855 0.6979 0.4804
C9_3 C 0.4199(5) 0.7127(5) 0.6223(8)
C10_3 C 0.4733(5) 0.7215(6) 0.6782(9)
H7_3 H 0.4733 0.7271 0.7521
C11_3 C 0.5247(5) 0.7217(6) 0.6228(9)
H8_3 H 0.5608 0.7267 0.6599
C12_3 C 0.3615(5) 0.7186(5) 0.6801(9)
C20_3 C 0.2446(5) 0.8999(4) 0.9977(9)
C21_3 C 0.2746(5) 0.8960(5) 0.9038(8)
C22_3 C 0.3056(5) 0.9438(5) 0.8675(9)
H15_3 H 0.3276 0.9414 0.8041
C23_3 C 0.3043(6) 0.9956(5) 0.9244(9)
C24_3 C 0.2715(5) 0.8415(4) 0.8388(8)
O1_3 O 0.3143(3) 0.7181(3) 0.6259(5)
O2_3 O 0.3599(3) 0.7244(4) 0.7782(6)
O3_3 O 0.2897(3) 0.8401(3) 0.7466(6)
O4_3 O 0.2455(3) 0.7956(3) 0.8784(5)
N1_2 N 0.6859(4) 0.7407(4) 0.3403(6)
Co3 Co 0.76173(5) 0.75624(5) 0.25249(10)
N3_2 N 0.1859(4) 0.7593(4) 0.6597(6)
N4_2 N 0.2390(4) 0.6649(4) 0.8182(7)
C13_3 C 0.7374(5) 0.8866(4) 0.2348(8)
H9_3 H 0.7389 0.8861 0.3094
C14_3 C 0.7337(6) 0.9403(5) 0.1829(9)
H10_3 H 0.7355 0.9759 0.2224
C15_3 C 0.7275(5) 0.9432(4) 0.0773(8)
C16_3 C 0.7266(5) 0.8886(4) 0.0219(8)
C17_3 C 0.7326(5) 0.8368(4) 0.0793(9)
H12_3 H 0.7320 0.8004 0.0422
N2_2 N 0.7390(4) 0.8351(4) 0.1818(7)
C13_4 C 0.2374(5) 0.6134(4) 0.7652(8)
H9_4 H 0.2389 0.6139 0.6906
C14_4 C 0.2337(6) 0.5597(5) 0.8171(9)
H10_4 H 0.2355 0.5241 0.7776
C15_4 C 0.2275(5) 0.5568(4) 0.9227(8)
C16_4 C 0.2266(5) 0.6114(4) 0.9781(8)
C17_4 C 0.2326(5) 0.6632(4) 0.9207(9)
H12_4 H 0.2320 0.6996 0.9578
C18_3 C 0.2253(5) 0.4999(4) 0.9826(8)
C19_3 C 0.2554(5) 0.4509(5) 0.9451(8)
H13_3 H 0.2759 0.4529 0.8801
H14_3 H 0.2764 0.3665 0.9769
C1_4 C 0.1425(5) 0.7955(5) 0.6959(9)
H1_4 H 0.1470 0.8141 0.7624
C2_4 C 0.0929(5) 0.8056(5) 0.6391(9)
H2_4 H 0.0639 0.8322 0.6654
C3_4 C 0.0835(5) 0.7781(6) 0.5437(8)
C4_4 C 0.1283(4) 0.7436(5) 0.5060(9)
H3_4 H 0.1250 0.7256 0.4388
C5_4 C 0.1786(5) 0.7350(5) 0.5667(9)
H4_4 H 0.2091 0.7104 0.5399
C6_4 C 0.0268(4) 0.7849(5) 0.4833(9)
C11_4 C 0.0247(5) 0.7783(6) 0.3772(9)
H8_4 H 0.0608 0.7733 0.3401
C7_4 C 0.9747(5) 0.7957(6) 0.5364(8)
H5_4 H 0.9753 0.8030 0.6098
C8_4 C 0.9214(4) 0.7959(5) 0.4823(9)
H6_4 H 0.8855 0.8021 0.5196
C9_4 C 0.9199(5) 0.7873(5) 0.3777(8)
C10_4 C 0.9733(5) 0.7785(6) 0.3218(9)
H7_4 H 0.9733 0.7729 0.2479
C12_4 C 0.8615(5) 0.7814(5) 0.3199(9)
H11_3 H 0.7780 0.3876 0.0522
C20_4 C 0.7446(5) 0.6001(4) 0.0023(9)
C21_4 C 0.7746(5) 0.6040(5) 0.0962(8)
C22_4 C 0.8056(5) 0.5562(5) 0.1325(9)
H15_4 H 0.8276 0.5586 0.1959
C23_4 C 0.8043(6) 0.5044(5) 0.0756(9)
H16_3 H 0.8247 0.4708 0.1018
C24_4 C 0.7715(5) 0.6585(4) 0.1612(8)
O1_4 O 0.8143(3) 0.7819(3) 0.3741(5)
O2_4 O 0.8599(3) 0.7756(4) 0.2218(6)
O3_4 O 0.7897(3) 0.6599(3) 0.2534(6)
O4_4 O 0.7455(3) 0.7044(3) 0.1216(5)
C18_4 C 0.7253(5) 0.0001(4) 0.0174(8)
C19_4 C 0.7554(5) 0.0491(5) 0.0549(8)
H13_4 H 0.7759 0.0471 0.1199
H14_4 H 0.7764 0.1335 0.0231
H11_4 H 0.7220 0.8876 0.9478
H16_4 H 0.6753 0.9708 0.8982
C1_5 C 0.7955(5) 0.1425(5) 0.3041(9)
H1_5 H 0.8141 0.1470 0.2376
C2_5 C 0.8056(5) 0.0929(5) 0.3609(9)
H2_5 H 0.8322 0.0639 0.3346
C3_5 C 0.7781(6) 0.0835(5) 0.4563(8)
C4_5 C 0.7436(5) 0.1283(4) 0.4940(9)
H3_5 H 0.7256 0.1250 0.5612
C5_5 C 0.7350(5) 0.1786(5) 0.4333(9)
H4_5 H 0.7104 0.2091 0.4601
C6_5 C 0.7849(5) 0.0268(4) 0.5167(9)
C11_5 C 0.7783(6) 0.0247(5) 0.6228(9)
H8_5 H 0.7733 0.0608 0.6599
N1_3 N 0.7593(4) 0.1859(4) 0.3403(6)
Co3_2 Co 0.74376(5) 0.26173(5) 0.25249(10)
Co1_3 Co 0.75624(5) 0.76173(5) 0.74751(10)
C7_5 C 0.7957(6) 0.9747(5) 0.4636(8)
H5_5 H 0.8030 0.9753 0.3902
C8_5 C 0.7959(5) 0.9214(4) 0.5177(9)
H6_5 H 0.8021 0.8855 0.4804
C9_5 C 0.7873(5) 0.9199(5) 0.6223(8)
C10_5 C 0.7785(6) 0.9733(5) 0.6782(9)
H7_5 H 0.7729 0.9733 0.7521
C12_5 C 0.7814(5) 0.8615(5) 0.6801(9)
H11_5 H 0.3876 0.7780 0.9478
C20_5 C 0.6001(4) 0.7446(5) 0.9977(9)
C21_5 C 0.6040(5) 0.7746(5) 0.9038(8)
C22_5 C 0.5562(5) 0.8056(5) 0.8675(9)
H15_5 H 0.5586 0.8276 0.8041
C23_5 C 0.5044(5) 0.8043(6) 0.9244(9)
H16_5 H 0.4708 0.8247 0.8982
C24_5 C 0.6585(4) 0.7715(5) 0.8388(8)
O1_5 O 0.7819(3) 0.8143(3) 0.6259(5)
O2_5 O 0.7756(4) 0.8599(3) 0.7782(6)
O3_5 O 0.6599(3) 0.7897(3) 0.7466(6)
O4_5 O 0.7044(3) 0.7455(3) 0.8784(5)
N3_3 N 0.7407(4) 0.6859(4) 0.6597(6)
N4_3 N 0.8351(4) 0.7390(4) 0.8182(7)
C13_5 C 0.6134(4) 0.2374(5) 0.2348(8)
H9_5 H 0.6139 0.2389 0.3094
C14_5 C 0.5597(5) 0.2337(6) 0.1829(9)
H10_5 H 0.5241 0.2355 0.2224
C15_5 C 0.5568(4) 0.2275(5) 0.0773(8)
C16_5 C 0.6114(4) 0.2266(5) 0.0219(8)
C17_5 C 0.6632(4) 0.2326(5) 0.0793(9)
H12_5 H 0.6996 0.2320 0.0422
C18_5 C 0.4999(4) 0.2253(5) 0.0174(8)
C19_5 C 0.4509(5) 0.2554(5) 0.0549(8)
H13_5 H 0.4529 0.2759 0.1199
H14_5 H 0.3665 0.2764 0.0231
N2_3 N 0.6649(4) 0.2390(4) 0.1818(7)
C1_6 C 0.7045(5) 0.6425(5) 0.6959(9)
H1_6 H 0.6859 0.6470 0.7624
C2_6 C 0.6944(5) 0.5929(5) 0.6391(9)
H2_6 H 0.6678 0.5639 0.6654
C3_6 C 0.7219(6) 0.5835(5) 0.5437(8)
C4_6 C 0.7564(5) 0.6283(4) 0.5060(9)
H3_6 H 0.7744 0.6250 0.4388
C5_6 C 0.7650(5) 0.6786(5) 0.5667(9)
H4_6 H 0.7896 0.7091 0.5399
C6_6 C 0.7151(5) 0.5268(4) 0.4833(9)
C7_6 C 0.7043(6) 0.4747(5) 0.5364(8)
H5_6 H 0.6970 0.4753 0.6098
C8_6 C 0.7041(5) 0.4214(4) 0.4823(9)
H6_6 H 0.6979 0.3855 0.5196
C9_6 C 0.7127(5) 0.4199(5) 0.3777(8)
C10_6 C 0.7215(6) 0.4733(5) 0.3218(9)
H7_6 H 0.7271 0.4733 0.2479
C11_6 C 0.7217(6) 0.5247(5) 0.3772(9)
H8_6 H 0.7267 0.5608 0.3401
C12_6 C 0.7186(5) 0.3615(5) 0.3199(9)
C20_6 C 0.8999(4) 0.2446(5) 0.0023(9)
C21_6 C 0.8960(5) 0.2746(5) 0.0962(8)
C22_6 C 0.9438(5) 0.3056(5) 0.1325(9)
H15_6 H 0.9414 0.3276 0.1959
C23_6 C 0.9956(5) 0.3043(6) 0.0756(9)
C24_6 C 0.8415(4) 0.2715(5) 0.1612(8)
O1_6 O 0.7181(3) 0.3143(3) 0.3741(5)
O2_6 O 0.7244(4) 0.3599(3) 0.2218(6)
O3_6 O 0.8401(3) 0.2897(3) 0.2534(6)
O4_6 O 0.7956(3) 0.2455(3) 0.1216(5)
C13_6 C 0.8866(4) 0.7374(5) 0.7652(8)
H9_6 H 0.8861 0.7389 0.6906
C14_6 C 0.9403(5) 0.7337(6) 0.8171(9)
H10_6 H 0.9759 0.7355 0.7776
C15_6 C 0.9432(4) 0.7275(5) 0.9227(8)
C16_6 C 0.8886(4) 0.7266(5) 0.9781(8)
C17_6 C 0.8368(4) 0.7326(5) 0.9207(9)
H12_6 H 0.8004 0.7320 0.9578
C13_7 C 0.3866(4) 0.7626(5) 0.2348(8)
H9_7 H 0.3861 0.7611 0.3094
C14_7 C 0.4403(5) 0.7663(6) 0.1829(9)
H10_7 H 0.4759 0.7645 0.2224
C15_7 C 0.4432(4) 0.7725(5) 0.0773(8)
C16_7 C 0.3886(4) 0.7734(5) 0.0219(8)
C17_7 C 0.3368(4) 0.7674(5) 0.0793(9)
H12_7 H 0.3004 0.7680 0.0422
C18_6 C 0.5001(4) 0.7747(5) 0.0174(8)
C19_6 C 0.5491(5) 0.7446(5) 0.0549(8)
H13_6 H 0.5471 0.7241 0.1199
H14_6 H 0.6335 0.7236 0.0231
N2_4 N 0.3351(4) 0.7610(4) 0.1818(7)
Co2_2 Co 0.25624(5) 0.73827(5) 0.25249(10)
Co1_4 Co 0.24376(5) 0.23827(5) 0.74751(10)
C7_7 C 0.2043(6) 0.0253(5) 0.4636(8)
H5_7 H 0.1970 0.0247 0.3902
C8_7 C 0.2041(5) 0.0786(4) 0.5177(9)
H6_7 H 0.1979 0.1145 0.4804
C9_7 C 0.2127(5) 0.0801(5) 0.6223(8)
C10_7 C 0.2215(6) 0.0267(5) 0.6782(9)
H7_7 H 0.2271 0.0267 0.7521
C12_7 C 0.2186(5) 0.1385(5) 0.6801(9)
H11_6 H 0.6124 0.2220 0.9478
C20_7 C 0.3999(4) 0.2554(5) 0.9977(9)
C21_7 C 0.3960(5) 0.2254(5) 0.9038(8)
C22_7 C 0.4438(5) 0.1944(5) 0.8675(9)
H15_7 H 0.4414 0.1724 0.8041
C23_7 C 0.4956(5) 0.1957(6) 0.9244(9)
H16_6 H 0.5292 0.1753 0.8982
C24_7 C 0.3415(4) 0.2285(5) 0.8388(8)
O1_7 O 0.2181(3) 0.1857(3) 0.6259(5)
O2_7 O 0.2244(4) 0.1401(3) 0.7782(6)
O3_7 O 0.3401(3) 0.2103(3) 0.7466(6)
O4_7 O 0.2956(3) 0.2545(3) 0.8784(5)
N3_4 N 0.2593(4) 0.3141(4) 0.6597(6)
N4_4 N 0.1649(4) 0.2610(4) 0.8182(7)
C1_7 C 0.2045(5) 0.8575(5) 0.3041(9)
H1_7 H 0.1859 0.8530 0.2376
C2_7 C 0.1944(5) 0.9071(5) 0.3609(9)
H2_7 H 0.1678 0.9361 0.3346
C3_7 C 0.2219(6) 0.9165(5) 0.4563(8)
C4_7 C 0.2564(5) 0.8717(4) 0.4940(9)
H3_7 H 0.2744 0.8750 0.5612
C5_7 C 0.2650(5) 0.8214(5) 0.4333(9)
H4_7 H 0.2896 0.7909 0.4601
C6_7 C 0.2151(5) 0.9732(4) 0.5167(9)
C11_7 C 0.2217(6) 0.9753(5) 0.6228(9)
H8_7 H 0.2267 0.9392 0.6599
N1_4 N 0.2407(4) 0.8141(4) 0.3403(6)
C13_8 C 0.1134(4) 0.2626(5) 0.7652(8)
H9_8 H 0.1139 0.2611 0.6906
C14_8 C 0.0597(5) 0.2663(6) 0.8171(9)
H10_8 H 0.0241 0.2645 0.7776
C15_8 C 0.0568(4) 0.2725(5) 0.9227(8)
C16_8 C 0.1114(4) 0.2734(5) 0.9781(8)
C17_8 C 0.1632(4) 0.2674(5) 0.9207(9)
H12_8 H 0.1996 0.2680 0.9578
C1_8 C 0.2955(5) 0.3575(5) 0.6959(9)
H1_8 H 0.3141 0.3530 0.7624
C2_8 C 0.3056(5) 0.4071(5) 0.6391(9)
H2_8 H 0.3322 0.4361 0.6654
C3_8 C 0.2781(6) 0.4165(5) 0.5437(8)
C4_8 C 0.2436(5) 0.3717(4) 0.5060(9)
H3_8 H 0.2256 0.3750 0.4388
C5_8 C 0.2350(5) 0.3214(5) 0.5667(9)
H4_8 H 0.2104 0.2909 0.5399
C6_8 C 0.2849(5) 0.4732(4) 0.4833(9)
C7_8 C 0.2957(6) 0.5253(5) 0.5364(8)
H5_8 H 0.3030 0.5247 0.6098
C8_8 C 0.2959(5) 0.5786(4) 0.4823(9)
H6_8 H 0.3021 0.6145 0.5196
C9_8 C 0.2873(5) 0.5801(5) 0.3777(8)
C10_8 C 0.2785(6) 0.5267(5) 0.3218(9)
H7_8 H 0.2729 0.5267 0.2479
C11_8 C 0.2783(6) 0.4753(5) 0.3772(9)
H8_8 H 0.2733 0.4392 0.3401
C12_8 C 0.2814(5) 0.6385(5) 0.3199(9)
C20_8 C 0.1001(4) 0.7554(5) 0.0023(9)
C21_8 C 0.1040(5) 0.7254(5) 0.0962(8)
C22_8 C 0.0562(5) 0.6944(5) 0.1325(9)
H15_8 H 0.0586 0.6724 0.1959
C23_8 C 0.0044(5) 0.6957(6) 0.0756(9)
C24_8 C 0.1585(4) 0.7285(5) 0.1612(8)
O1_8 O 0.2819(3) 0.6857(3) 0.3741(5)
O2_8 O 0.2756(4) 0.6401(3) 0.2218(6)
O3_8 O 0.1599(3) 0.7103(3) 0.2534(6)
O4_8 O 0.2044(3) 0.7545(3) 0.1216(5)
H11_7 H 0.1124 0.2780 0.0522
H16_7 H 0.0292 0.3247 0.1018
C18_7 C 0.9999(4) 0.2747(5) 0.9826(8)
C19_7 C 0.9509(5) 0.2446(5) 0.9451(8)
H13_7 H 0.9529 0.2241 0.8801
H14_7 H 0.8665 0.2236 0.9769
C18_8 C 0.0001(4) 0.7253(5) 0.9826(8)
C19_8 C 0.0491(5) 0.7554(5) 0.9451(8)
H13_8 H 0.0471 0.7759 0.8801
H14_8 H 0.1335 0.7764 0.9769
H11_8 H 0.8876 0.7220 0.0522
H16_8 H 0.9708 0.6753 0.1018
loop_
_geom_bond_atom_site_label_1
_geom_bond_atom_site_label_2
_geom_bond_site_symmetry_1
_geom_bond_site_symmetry_2
C13 H9 1_555 1_555
C14 C13 1_555 1_555
H10 C14 1_555 1_555
C15 C14 1_555 1_555
C16 C15 1_555 1_555
C17 C16 1_555 1_555
H12 C17 1_555 1_555
N2 C13 1_555 1_555
Co2 N2 1_555 1_555
C17 N2 1_555 1_555
Co1 O1 1_555 1_555
C1 H1 1_555 1_555
C2 C1 1_555 1_555
H2 C2 1_555 1_555
C3 C2 1_555 1_555
C4 C3 1_555 1_555
H3 C4 1_555 1_555
C5 C4 1_555 1_555
H4 C5 1_555 1_555
C6 C3 1_555 1_555
C7 C6 1_555 1_555
H5 C7 1_555 1_555
C8 C7 1_555 1_555
H6 C8 1_555 1_555
C9 C8 1_555 1_555
C10 C9 1_555 1_555
H7 C10 1_555 1_555
C11 C6 1_555 1_555
H8 C11 1_555 1_555
C12 C9 1_555 1_555
C21 C20 1_555 1_555
C22 C21 1_555 1_555
H15 C22 1_555 1_555
C24 C21 1_555 1_555
O1 C12 1_555 1_555
O2 Co1 1_555 1_555
O3 Co1 1_555 1_555
O4 Co1 1_555 1_555
N1 C1 1_555 1_555
Co2 N1 1_555 1_555
N3 Co1 1_555 1_555
N4 Co1 1_555 1_555
C5 N1 1_555 1_555
C10 C11 1_555 1_555
C12 O2 1_555 1_555
C22 C23 1_555 1_555
C24 O3 1_555 1_555
C24 O4 1_555 1_555
Co2 O1_2 1_555 1_555
H5_2 C7_2 1_555 1_555
C8_2 C7_2 1_555 1_555
H6_2 C8_2 1_555 1_555
C9_2 C8_2 1_555 1_555
C10_2 C9_2 1_555 1_555
H7_2 C10_2 1_555 1_555
C12_2 C9_2 1_555 1_555
C21_2 C20_2 1_555 1_555
C22_2 C21_2 1_555 1_555
H15_2 C22_2 1_555 1_555
H16 C23_2 1_555 1_555
C24_2 C21_2 1_555 1_555
O1_2 C12_2 1_555 1_555
O2_2 Co2 1_555 1_555
O3_2 Co2 1_555 1_555
O4_2 Co2 1_555 1_555
C12_2 O2_2 1_555 1_555
C22_2 C23_2 1_555 1_555
C24_2 O3_2 1_555 1_555
C24_2 O4_2 1_555 1_555
C1_2 H1_2 1_555 1_555
C2_2 C1_2 1_555 1_555
H2_2 C2_2 1_555 1_555
C3_2 C2_2 1_555 1_555
C4_2 C3_2 1_555 1_555
H3_2 C4_2 1_555 1_555
C5_2 C4_2 1_555 1_555
H4_2 C5_2 1_555 1_555
C6_2 C3_2 1_555 1_555
C11_2 C6_2 1_555 1_555
H8_2 C11_2 1_555 1_555
N3 C1_2 1_555 1_555
C5_2 N3 1_555 1_555
C13_2 H9_2 1_555 1_555
C14_2 C13_2 1_555 1_555
H10_2 C14_2 1_555 1_555
C15_2 C14_2 1_555 1_555
C16_2 C15_2 1_555 1_555
C17_2 C16_2 1_555 1_555
H12_2 C17_2 1_555 1_555
C18 C15_2 1_555 1_555
C19 C18 1_555 1_555
H13 C19 1_555 1_555
N4 C13_2 1_555 1_555
C17_2 N4 1_555 1_555
C19_2 C18_2 1_555 1_555
H13_2 C19_2 1_555 1_555
Co1_2 O1_3 1_555 1_555
C1_3 H1_3 1_555 1_555
C2_3 C1_3 1_555 1_555
H2_3 C2_3 1_555 1_555
C3_3 C2_3 1_555 1_555
C4_3 C3_3 1_555 1_555
H3_3 C4_3 1_555 1_555
C5_3 C4_3 1_555 1_555
H4_3 C5_3 1_555 1_555
C6_3 C3_3 1_555 1_555
C7_3 C6_3 1_555 1_555
H5_3 C7_3 1_555 1_555
C8_3 C7_3 1_555 1_555
H6_3 C8_3 1_555 1_555
C9_3 C8_3 1_555 1_555
C10_3 C9_3 1_555 1_555
H7_3 C10_3 1_555 1_555
C11_3 C6_3 1_555 1_555
H8_3 C11_3 1_555 1_555
C12_3 C9_3 1_555 1_555
C21_3 C20_3 1_555 1_555
C22_3 C21_3 1_555 1_555
H15_3 C22_3 1_555 1_555
C24_3 C21_3 1_555 1_555
O1_3 C12_3 1_555 1_555
O2_3 Co1_2 1_555 1_555
O3_3 Co1_2 1_555 1_555
O4_3 Co1_2 1_555 1_555
N1_2 C1_3 1_555 1_555
Co3 N1_2 1_555 1_555
N3_2 Co1_2 1_555 1_555
N4_2 Co1_2 1_555 1_555
C5_3 N1_2 1_555 1_555
C10_3 C11_3 1_555 1_555
C12_3 O2_3 1_555 1_555
C22_3 C23_3 1_555 1_555
C24_3 O3_3 1_555 1_555
C24_3 O4_3 1_555 1_555
C13_3 H9_3 1_555 1_555
C14_3 C13_3 1_555 1_555
H10_3 C14_3 1_555 1_555
C15_3 C14_3 1_555 1_555
C16_3 C15_3 1_555 1_555
C17_3 C16_3 1_555 1_555
H12_3 C17_3 1_555 1_555
N2_2 C13_3 1_555 1_555
Co3 N2_2 1_555 1_555
C17_3 N2_2 1_555 1_555
C13_4 H9_4 1_555 1_555
C14_4 C13_4 1_555 1_555
H10_4 C14_4 1_555 1_555
C15_4 C14_4 1_555 1_555
C16_4 C15_4 1_555 1_555
C17_4 C16_4 1_555 1_555
H12_4 C17_4 1_555 1_555
C18_3 C15_4 1_555 1_555
C19_3 C18_3 1_555 1_555
H13_3 C19_3 1_555 1_555
N4_2 C13_4 1_555 1_555
C17_4 N4_2 1_555 1_555
C1_4 H1_4 1_555 1_555
C2_4 C1_4 1_555 1_555
H2_4 C2_4 1_555 1_555
C3_4 C2_4 1_555 1_555
C4_4 C3_4 1_555 1_555
H3_4 C4_4 1_555 1_555
C5_4 C4_4 1_555 1_555
H4_4 C5_4 1_555 1_555
C6_4 C3_4 1_555 1_555
C11_4 C6_4 1_555 1_555
H8_4 C11_4 1_555 1_555
N3_2 C1_4 1_555 1_555
C5_4 N3_2 1_555 1_555
Co3 O1_4 1_555 1_555
H5_4 C7_4 1_555 1_555
C8_4 C7_4 1_555 1_555
H6_4 C8_4 1_555 1_555
C9_4 C8_4 1_555 1_555
C10_4 C9_4 1_555 1_555
H7_4 C10_4 1_555 1_555
C12_4 C9_4 1_555 1_555
C21_4 C20_4 1_555 1_555
C22_4 C21_4 1_555 1_555
H15_4 C22_4 1_555 1_555
H16_3 C23_4 1_555 1_555
C24_4 C21_4 1_555 1_555
O1_4 C12_4 1_555 1_555
O2_4 Co3 1_555 1_555
O3_4 Co3 1_555 1_555
O4_4 Co3 1_555 1_555
C12_4 O2_4 1_555 1_555
C22_4 C23_4 1_555 1_555
C24_4 O3_4 1_555 1_555
C24_4 O4_4 1_555 1_555
C19_4 C18_4 1_555 1_555
H13_4 C19_4 1_555 1_555
C1_5 H1_5 1_555 1_555
C2_5 C1_5 1_555 1_555
H2_5 C2_5 1_555 1_555
C3_5 C2_5 1_555 1_555
C4_5 C3_5 1_555 1_555
H3_5 C4_5 1_555 1_555
C5_5 C4_5 1_555 1_555
H4_5 C5_5 1_555 1_555
C6_5 C3_5 1_555 1_555
C11_5 C6_5 1_555 1_555
H8_5 C11_5 1_555 1_555
N1_3 C1_5 1_555 1_555
Co3_2 N1_3 1_555 1_555
C5_5 N1_3 1_555 1_555
Co1_3 O1_5 1_555 1_555
H5_5 C7_5 1_555 1_555
C8_5 C7_5 1_555 1_555
H6_5 C8_5 1_555 1_555
C9_5 C8_5 1_555 1_555
C10_5 C9_5 1_555 1_555
H7_5 C10_5 1_555 1_555
C12_5 C9_5 1_555 1_555
C21_5 C20_5 1_555 1_555
C22_5 C21_5 1_555 1_555
H15_5 C22_5 1_555 1_555
H16_5 C23_5 1_555 1_555
C24_5 C21_5 1_555 1_555
O1_5 C12_5 1_555 1_555
O2_5 Co1_3 1_555 1_555
O3_5 Co1_3 1_555 1_555
O4_5 Co1_3 1_555 1_555
N3_3 Co1_3 1_555 1_555
N4_3 Co1_3 1_555 1_555
C12_5 O2_5 1_555 1_555
C22_5 C23_5 1_555 1_555
C24_5 O3_5 1_555 1_555
C24_5 O4_5 1_555 1_555
C13_5 H9_5 1_555 1_555
C14_5 C13_5 1_555 1_555
H10_5 C14_5 1_555 1_555
C15_5 C14_5 1_555 1_555
C16_5 C15_5 1_555 1_555
C17_5 C16_5 1_555 1_555
H12_5 C17_5 1_555 1_555
C18_5 C15_5 1_555 1_555
C19_5 C18_5 1_555 1_555
H13_5 C19_5 1_555 1_555
N2_3 C13_5 1_555 1_555
Co3_2 N2_3 1_555 1_555
C17_5 N2_3 1_555 1_555
Co3_2 O1_6 1_555 1_555
C1_6 H1_6 1_555 1_555
C2_6 C1_6 1_555 1_555
H2_6 C2_6 1_555 1_555
C3_6 C2_6 1_555 1_555
C4_6 C3_6 1_555 1_555
H3_6 C4_6 1_555 1_555
C5_6 C4_6 1_555 1_555
H4_6 C5_6 1_555 1_555
C6_6 C3_6 1_555 1_555
C7_6 C6_6 1_555 1_555
H5_6 C7_6 1_555 1_555
C8_6 C7_6 1_555 1_555
H6_6 C8_6 1_555 1_555
C9_6 C8_6 1_555 1_555
C10_6 C9_6 1_555 1_555
H7_6 C10_6 1_555 1_555
C11_6 C6_6 1_555 1_555
H8_6 C11_6 1_555 1_555
C12_6 C9_6 1_555 1_555
C21_6 C20_6 1_555 1_555
C22_6 C21_6 1_555 1_555
H15_6 C22_6 1_555 1_555
C24_6 C21_6 1_555 1_555
O1_6 C12_6 1_555 1_555
O2_6 Co3_2 1_555 1_555
O3_6 Co3_2 1_555 1_555
O4_6 Co3_2 1_555 1_555
N3_3 C1_6 1_555 1_555
C5_6 N3_3 1_555 1_555
C10_6 C11_6 1_555 1_555
C12_6 O2_6 1_555 1_555
C22_6 C23_6 1_555 1_555
C24_6 O3_6 1_555 1_555
C24_6 O4_6 1_555 1_555
C13_6 H9_6 1_555 1_555
C14_6 C13_6 1_555 1_555
H10_6 C14_6 1_555 1_555
C15_6 C14_6 1_555 1_555
C16_6 C15_6 1_555 1_555
C17_6 C16_6 1_555 1_555
H12_6 C17_6 1_555 1_555
N4_3 C13_6 1_555 1_555
C17_6 N4_3 1_555 1_555
C13_7 H9_7 1_555 1_555
C14_7 C13_7 1_555 1_555
H10_7 C14_7 1_555 1_555
C15_7 C14_7 1_555 1_555
C16_7 C15_7 1_555 1_555
C17_7 C16_7 1_555 1_555
H12_7 C17_7 1_555 1_555
C18_6 C15_7 1_555 1_555
C19_6 C18_6 1_555 1_555
H13_6 C19_6 1_555 1_555
N2_4 C13_7 1_555 1_555
Co2_2 N2_4 1_555 1_555
C17_7 N2_4 1_555 1_555
Co1_4 O1_7 1_555 1_555
H5_7 C7_7 1_555 1_555
C8_7 C7_7 1_555 1_555
H6_7 C8_7 1_555 1_555
C9_7 C8_7 1_555 1_555
C10_7 C9_7 1_555 1_555
H7_7 C10_7 1_555 1_555
C12_7 C9_7 1_555 1_555
C21_7 C20_7 1_555 1_555
C22_7 C21_7 1_555 1_555
H15_7 C22_7 1_555 1_555
H16_6 C23_7 1_555 1_555
C24_7 C21_7 1_555 1_555
O1_7 C12_7 1_555 1_555
O2_7 Co1_4 1_555 1_555
O3_7 Co1_4 1_555 1_555
O4_7 Co1_4 1_555 1_555
N3_4 Co1_4 1_555 1_555
N4_4 Co1_4 1_555 1_555
C12_7 O2_7 1_555 1_555
C22_7 C23_7 1_555 1_555
C24_7 O3_7 1_555 1_555
C24_7 O4_7 1_555 1_555
C1_7 H1_7 1_555 1_555
C2_7 C1_7 1_555 1_555
H2_7 C2_7 1_555 1_555
C3_7 C2_7 1_555 1_555
C4_7 C3_7 1_555 1_555
H3_7 C4_7 1_555 1_555
C5_7 C4_7 1_555 1_555
H4_7 C5_7 1_555 1_555
C6_7 C3_7 1_555 1_555
C11_7 C6_7 1_555 1_555
H8_7 C11_7 1_555 1_555
N1_4 C1_7 1_555 1_555
Co2_2 N1_4 1_555 1_555
C5_7 N1_4 1_555 1_555
C13_8 H9_8 1_555 1_555
C14_8 C13_8 1_555 1_555
H10_8 C14_8 1_555 1_555
C15_8 C14_8 1_555 1_555
C16_8 C15_8 1_555 1_555
C17_8 C16_8 1_555 1_555
H12_8 C17_8 1_555 1_555
N4_4 C13_8 1_555 1_555
C17_8 N4_4 1_555 1_555
Co2_2 O1_8 1_555 1_555
C1_8 H1_8 1_555 1_555
C2_8 C1_8 1_555 1_555
H2_8 C2_8 1_555 1_555
C3_8 C2_8 1_555 1_555
C4_8 C3_8 1_555 1_555
H3_8 C4_8 1_555 1_555
C5_8 C4_8 1_555 1_555
H4_8 C5_8 1_555 1_555
C6_8 C3_8 1_555 1_555
C7_8 C6_8 1_555 1_555
H5_8 C7_8 1_555 1_555
C8_8 C7_8 1_555 1_555
H6_8 C8_8 1_555 1_555
C9_8 C8_8 1_555 1_555
C10_8 C9_8 1_555 1_555
H7_8 C10_8 1_555 1_555
C11_8 C6_8 1_555 1_555
H8_8 C11_8 1_555 1_555
C12_8 C9_8 1_555 1_555
C21_8 C20_8 1_555 1_555
C22_8 C21_8 1_555 1_555
H15_8 C22_8 1_555 1_555
C24_8 C21_8 1_555 1_555
O1_8 C12_8 1_555 1_555
O2_8 Co2_2 1_555 1_555
O3_8 Co2_2 1_555 1_555
O4_8 Co2_2 1_555 1_555
N3_4 C1_8 1_555 1_555
C5_8 N3_4 1_555 1_555
C10_8 C11_8 1_555 1_555
C12_8 O2_8 1_555 1_555
C22_8 C23_8 1_555 1_555
C24_8 O3_8 1_555 1_555
C24_8 O4_8 1_555 1_555
C19_7 C18_7 1_555 1_555
H13_7 C19_7 1_555 1_555
C19_8 C18_8 1_555 1_555
H13_8 C19_8 1_555 1_555

#END
