
###############################################################################
#
# This file contains modified crystal structure data generated from the
# MOF subset of the Cambridge Structural Database (CSD) v543 
# hosted by the Cambridge Crystallographic Data Centre (CCDC).
#
# This work is licensed under the Creative Commons
# Attribution-NonCommercial-ShareAlike 4.0 International License.
# To view a copy of this license, visit
# http://creativecommons.org/licenses/by-nc-sa/4.0/
# or send a letter to
# Creative Commons, PO Box 1866, Mountain View, CA 94042, USA.
#
# CIF created using the CSD Python API on 29 September 2022
# The structure has been converted into the P1 space group
# The structure has a 3D framework
# The original CSD entry DIDBID is in the tetragonal crystal system
# The original CSD entry DIDBID is in a Sohncke space group
# The framework has been calculated to contain at least 10.0% void space
# The void calculation uses a probe of radius 1.32A, grid spacing 0.4
#
###############################################################################

data_DIDBID
_chemical_formula_moiety         '(C192 H128 Co8 N16 O32)n'
_symmetry_cell_setting           triclinic
_symmetry_space_group_name_H-M   'P 1'
_symmetry_Int_Tables_number      1
_space_group_name_Hall           'P 1'
loop_
_symmetry_equiv_pos_site_id
_symmetry_equiv_pos_as_xyz
1 x,y,z
_cell_length_a                   22.5795(16)
_cell_length_b                   22.5795(16)
_cell_length_c                   12.8221(19)
_cell_angle_alpha                90
_cell_angle_beta                 90
_cell_angle_gamma                90
_cell_volume                     6537.14
loop_
_atom_site_label
_atom_site_type_symbol
_atom_site_fract_x
_atom_site_fract_y
_atom_site_fract_z
C1 C 0.7265(3) 0.0022(2) 0.5185(4)
C6 C 0.7291(3) 0.0596(2) 0.5767(4)
C8 C 0.7348(3) 0.1645(2) 0.5806(4)
H4 H 0.7339 0.2001 0.5440
C10 C 0.7293(3) 0.1127(2) 0.5256(4)
H5 H 0.7256 0.1137 0.4533
C17 C 0.7401(3) 0.1149(2) 0.7311(4)
H12 H 0.7445 0.1149 0.8032
H13 H 0.6744 0.0309 0.4007
C21 C 0.7329(3) 0.0615(2) 0.6826(4)
H16 H 0.7306 0.0269 0.7216
N2 N 0.7413(2) 0.16631(16) 0.6823(3)
Co2 Co 0.76415(2) 0.24649(2) 0.75275(5)
H1 H 0.3751 0.7776 0.0541
Co1 Co 0.73585(2) 0.74649(2) 0.24725(5)
C5 C 0.5799(2) 0.7141(2) 0.1221(4)
C9 C 0.4718(2) 0.7147(2) 0.0152(4)
C11 C 0.5784(2) 0.7035(2) 0.0163(4)
C14 C 0.7552(3) 0.9525(2) 0.5552(4)
H9 H 0.7741 0.9536 0.6196
C15 C 0.7559(3) 0.9011(2) 0.4968(5)
H10 H 0.7759 0.8680 0.5216
C16 C 0.6964(3) 0.9466(2) 0.3682(4)
H11 H 0.6755 0.9446 0.3059
C18 C 0.6956(3) 0.9985(2) 0.4250(4)
C19 C 0.4742(2) 0.7227(3) 0.1225(4)
H14 H 0.4392 0.7285 0.1595
C20 C 0.5271(2) 0.7222(3) 0.1748(4)
H15 H 0.5275 0.7275 0.2467
C22 C 0.6379(2) 0.7196(2) 0.1775(4)
O1 O 0.68506(13) 0.71643(15) 0.1252(2)
O2 O 0.63907(14) 0.73043(18) 0.2732(3)
C23 C 0.7272(2) 0.8985(2) 0.4016(4)
C24 C 0.7312(2) 0.8436(2) 0.3388(4)
O3 O 0.71194(15) 0.84368(13) 0.2475(3)
O4 O 0.75436(17) 0.79773(13) 0.3762(2)
N3 N 0.81215(16) 0.76170(18) 0.1593(3)
N4 N 0.7587(2) 0.66631(16) 0.3177(3)
C2 C 0.6290(2) 0.2424(2) 0.9911(4)
C3 C 0.5843(2) 0.2796(3) 0.9571(4)
C4 C 0.5947(2) 0.3085(3) 0.8637(4)
H2 H 0.5668 0.3351 0.8381
C7 C 0.6456(2) 0.2983(2) 0.8089(4)
H3 H 0.6509 0.3181 0.7459
H6 H 0.3867 0.3036 0.9799
C12 C 0.6794(2) 0.2346(2) 0.9323(4)
H7 H 0.7087 0.2094 0.9573
C13 C 0.4756(2) 0.2967(3) 0.9642(4)
H8 H 0.4763 0.3046 0.8931
N1 N 0.68785(16) 0.26170(18) 0.8407(3)
C1_2 C 0.7735(3) 0.5022(2) 0.4815(4)
C5_2 C 0.9201(2) 0.2141(2) 0.8779(4)
C6_2 C 0.7709(3) 0.5596(2) 0.4233(4)
C8_2 C 0.7652(3) 0.6645(2) 0.4194(4)
H4_2 H 0.7661 0.7001 0.4560
C10_2 C 0.7707(3) 0.6127(2) 0.4744(4)
H5_2 H 0.7744 0.6137 0.5467
C11_2 C 0.9216(2) 0.2035(2) 0.9837(4)
C14_2 C 0.7448(3) 0.4525(2) 0.4448(4)
H9_2 H 0.7259 0.4536 0.3804
C15_2 C 0.7441(3) 0.4011(2) 0.5032(5)
H10_2 H 0.7241 0.3680 0.4784
C16_2 C 0.8036(3) 0.4466(2) 0.6318(4)
H11_2 H 0.8245 0.4446 0.6941
C17_2 C 0.7599(3) 0.6149(2) 0.2689(4)
H12_2 H 0.7555 0.6149 0.1968
C18_2 C 0.8044(3) 0.4985(2) 0.5750(4)
H13_2 H 0.8256 0.5309 0.5993
C20_2 C 0.9729(2) 0.2222(3) 0.8252(4)
H15_2 H 0.9725 0.2275 0.7533
C21_2 C 0.7671(3) 0.5615(2) 0.3174(4)
H16_2 H 0.7694 0.5269 0.2784
C22_2 C 0.8621(2) 0.2196(2) 0.8225(4)
O1_2 O 0.81494(13) 0.21643(15) 0.8748(2)
O2_2 O 0.86093(14) 0.23043(18) 0.7268(3)
C23_2 C 0.7728(2) 0.3985(2) 0.5984(4)
C24_2 C 0.7688(2) 0.3436(2) 0.6612(4)
O3_2 O 0.78806(15) 0.34368(13) 0.7525(3)
O4_2 O 0.74564(17) 0.29773(13) 0.6238(2)
C2_2 C 0.8710(2) 0.7424(2) 0.0089(4)
C3_2 C 0.9157(2) 0.7796(3) 0.0429(4)
C4_2 C 0.9053(2) 0.8085(3) 0.1363(4)
H2_2 H 0.9332 0.8351 0.1619
C7_2 C 0.8544(2) 0.7983(2) 0.1911(4)
H3_2 H 0.8491 0.8181 0.2541
C12_2 C 0.8206(2) 0.7346(2) 0.0677(4)
H7_2 H 0.7913 0.7094 0.0427
C2_3 C 0.3710(2) 0.7576(2) 0.9911(4)
C3_3 C 0.4157(2) 0.7204(3) 0.9571(4)
C4_3 C 0.4053(2) 0.6915(3) 0.8637(4)
H2_3 H 0.4332 0.6649 0.8381
C7_3 C 0.3544(2) 0.7017(2) 0.8089(4)
H3_3 H 0.3491 0.6819 0.7459
H6_2 H 0.6133 0.6964 0.9799
C12_3 C 0.3206(2) 0.7654(2) 0.9323(4)
H7_3 H 0.2913 0.7906 0.9573
C13_2 C 0.5244(2) 0.7033(3) 0.9642(4)
H8_2 H 0.5237 0.6954 0.8931
N1_2 N 0.31215(16) 0.73830(18) 0.8407(3)
Co3 Co 0.23585(2) 0.75351(2) 0.75275(5)
H1_2 H 0.6249 0.2224 0.0541
Co1_2 Co 0.26415(2) 0.25351(2) 0.24725(5)
C5_3 C 0.4201(2) 0.2859(2) 0.1221(4)
C9_2 C 0.5282(2) 0.2853(2) 0.0152(4)
C11_3 C 0.4216(2) 0.2965(2) 0.0163(4)
C14_3 C 0.2448(3) 0.0475(2) 0.5552(4)
H9_3 H 0.2259 0.0464 0.6196
C15_3 C 0.2441(3) 0.0989(2) 0.4968(5)
H10_3 H 0.2241 0.1320 0.5216
C16_3 C 0.3036(3) 0.0534(2) 0.3682(4)
H11_3 H 0.3245 0.0554 0.3059
C18_3 C 0.3044(3) 0.0015(2) 0.4250(4)
C19_2 C 0.5258(2) 0.2773(3) 0.1225(4)
H14_2 H 0.5608 0.2715 0.1595
C20_3 C 0.4729(2) 0.2778(3) 0.1748(4)
H15_3 H 0.4725 0.2725 0.2467
C22_3 C 0.3621(2) 0.2804(2) 0.1775(4)
O1_3 O 0.31494(13) 0.28357(15) 0.1252(2)
O2_3 O 0.36093(14) 0.26957(18) 0.2732(3)
C23_3 C 0.2728(2) 0.1015(2) 0.4016(4)
C24_3 C 0.2688(2) 0.1564(2) 0.3388(4)
O3_3 O 0.28806(15) 0.15632(13) 0.2475(3)
O4_3 O 0.24564(17) 0.20227(13) 0.3762(2)
N3_2 N 0.18785(16) 0.23830(18) 0.1593(3)
N4_2 N 0.2413(2) 0.33369(16) 0.3177(3)
C1_3 C 0.2735(3) 0.9978(2) 0.5185(4)
C6_3 C 0.2709(3) 0.9404(2) 0.5767(4)
C8_3 C 0.2652(3) 0.8355(2) 0.5806(4)
H4_3 H 0.2661 0.7999 0.5440
C10_3 C 0.2707(3) 0.8873(2) 0.5256(4)
H5_3 H 0.2744 0.8863 0.4533
C17_3 C 0.2599(3) 0.8851(2) 0.7311(4)
H12_3 H 0.2555 0.8851 0.8032
H13_3 H 0.3256 0.9691 0.4007
C21_3 C 0.2671(3) 0.9385(2) 0.6826(4)
H16_3 H 0.2694 0.9731 0.7216
N2_2 N 0.2587(2) 0.83369(16) 0.6823(3)
C2_4 C 0.1290(2) 0.2576(2) 0.0089(4)
C3_4 C 0.0843(2) 0.2204(3) 0.0429(4)
C4_4 C 0.0947(2) 0.1915(3) 0.1363(4)
H2_4 H 0.0668 0.1649 0.1619
C7_4 C 0.1456(2) 0.2017(2) 0.1911(4)
H3_4 H 0.1509 0.1819 0.2541
C12_4 C 0.1794(2) 0.2654(2) 0.0677(4)
H7_4 H 0.2087 0.2906 0.0427
C1_4 C 0.2265(3) 0.4978(2) 0.4815(4)
C5_4 C 0.0799(2) 0.7859(2) 0.8779(4)
C6_4 C 0.2291(3) 0.4404(2) 0.4233(4)
C8_4 C 0.2348(3) 0.3355(2) 0.4194(4)
H4_4 H 0.2339 0.2999 0.4560
C10_4 C 0.2293(3) 0.3873(2) 0.4744(4)
H5_4 H 0.2256 0.3863 0.5467
C11_4 C 0.0784(2) 0.7965(2) 0.9837(4)
C14_4 C 0.2552(3) 0.5475(2) 0.4448(4)
H9_4 H 0.2741 0.5464 0.3804
C15_4 C 0.2559(3) 0.5989(2) 0.5032(5)
H10_4 H 0.2759 0.6320 0.4784
C16_4 C 0.1964(3) 0.5534(2) 0.6318(4)
H11_4 H 0.1755 0.5554 0.6941
C17_4 C 0.2401(3) 0.3851(2) 0.2689(4)
H12_4 H 0.2445 0.3851 0.1968
C18_4 C 0.1956(3) 0.5015(2) 0.5750(4)
H13_4 H 0.1744 0.4691 0.5993
C20_4 C 0.0271(2) 0.7778(3) 0.8252(4)
H15_4 H 0.0275 0.7725 0.7533
C21_4 C 0.2329(3) 0.4385(2) 0.3174(4)
H16_4 H 0.2306 0.4731 0.2784
C22_4 C 0.1379(2) 0.7804(2) 0.8225(4)
O1_4 O 0.18506(13) 0.78357(15) 0.8748(2)
O2_4 O 0.13907(14) 0.76957(18) 0.7268(3)
C23_4 C 0.2272(2) 0.6015(2) 0.5984(4)
C24_4 C 0.2312(2) 0.6564(2) 0.6612(4)
O3_4 O 0.21194(15) 0.65632(13) 0.7525(3)
O4_4 O 0.25436(17) 0.70227(13) 0.6238(2)
C1_5 C 0.4978(2) 0.2265(3) 0.5185(4)
Co1_3 Co 0.75351(2) 0.23585(2) 0.24725(5)
C5_5 C 0.7859(2) 0.0799(2) 0.1221(4)
C6_5 C 0.4404(2) 0.2291(3) 0.5767(4)
C8_5 C 0.3355(2) 0.2348(3) 0.5806(4)
H4_5 H 0.2999 0.2339 0.5440
C10_5 C 0.3873(2) 0.2293(3) 0.5256(4)
H5_5 H 0.3863 0.2256 0.4533
C11_5 C 0.7965(2) 0.0784(2) 0.0163(4)
C14_5 C 0.5475(2) 0.2552(3) 0.5552(4)
H9_5 H 0.5464 0.2741 0.6196
C15_5 C 0.5989(2) 0.2559(3) 0.4968(5)
H10_5 H 0.6320 0.2759 0.5216
C16_5 C 0.5534(2) 0.1964(3) 0.3682(4)
H11_5 H 0.5554 0.1755 0.3059
C17_5 C 0.3851(2) 0.2401(3) 0.7311(4)
H12_5 H 0.3851 0.2445 0.8032
C18_5 C 0.5015(2) 0.1956(3) 0.4250(4)
H13_5 H 0.4691 0.1744 0.4007
C20_5 C 0.7778(3) 0.0271(2) 0.1748(4)
H15_5 H 0.7725 0.0275 0.2467
C21_5 C 0.4385(2) 0.2329(3) 0.6826(4)
H16_5 H 0.4731 0.2306 0.7216
C22_5 C 0.7804(2) 0.1379(2) 0.1775(4)
O1_5 O 0.78357(15) 0.18506(13) 0.1252(2)
O2_5 O 0.76957(18) 0.13907(14) 0.2732(3)
C23_5 C 0.6015(2) 0.2272(2) 0.4016(4)
C24_5 C 0.6564(2) 0.2312(2) 0.3388(4)
O3_5 O 0.65632(13) 0.21194(15) 0.2475(3)
O4_5 O 0.70227(13) 0.25436(17) 0.3762(2)
N2_3 N 0.33369(16) 0.2413(2) 0.6823(3)
Co2_2 Co 0.25351(2) 0.26415(2) 0.75275(5)
N3_3 N 0.73830(18) 0.31215(16) 0.1593(3)
N4_3 N 0.83369(16) 0.2587(2) 0.3177(3)
C2_5 C 0.2576(2) 0.1290(2) 0.9911(4)
C3_5 C 0.2204(3) 0.0843(2) 0.9571(4)
C4_5 C 0.1915(3) 0.0947(2) 0.8637(4)
H2_5 H 0.1649 0.0668 0.8381
C7_5 C 0.2017(2) 0.1456(2) 0.8089(4)
H3_5 H 0.1819 0.1509 0.7459
C12_5 C 0.2654(2) 0.1794(2) 0.9323(4)
H7_5 H 0.2906 0.2087 0.9573
N1_3 N 0.23830(18) 0.18785(16) 0.8407(3)
C2_6 C 0.7576(2) 0.3710(2) 0.0089(4)
C3_6 C 0.7204(3) 0.4157(2) 0.0429(4)
C4_6 C 0.6915(3) 0.4053(2) 0.1363(4)
H2_6 H 0.6649 0.4332 0.1619
C7_6 C 0.7017(2) 0.3544(2) 0.1911(4)
H3_6 H 0.6819 0.3491 0.2541
H6_3 H 0.6964 0.6133 0.0201
C12_6 C 0.7654(2) 0.3206(2) 0.0677(4)
H7_6 H 0.7906 0.2913 0.0427
C13_3 C 0.7033(3) 0.5244(2) 0.0358(4)
H8_3 H 0.6954 0.5237 0.1069
H1_3 H 0.2224 0.6249 0.9459
C5_6 C 0.2859(2) 0.4201(2) 0.8779(4)
C9_3 C 0.2853(2) 0.5282(2) 0.9848(4)
C11_6 C 0.2965(2) 0.4216(2) 0.9837(4)
C14_6 C 0.0475(2) 0.2448(3) 0.4448(4)
H9_6 H 0.0464 0.2259 0.3804
C15_6 C 0.0989(2) 0.2441(3) 0.5032(5)
H10_6 H 0.1320 0.2241 0.4784
C16_6 C 0.0534(2) 0.3036(3) 0.6318(4)
H11_6 H 0.0554 0.3245 0.6941
C18_6 C 0.0015(2) 0.3044(3) 0.5750(4)
C19_3 C 0.2773(3) 0.5258(2) 0.8775(4)
H14_3 H 0.2715 0.5608 0.8405
C20_6 C 0.2778(3) 0.4729(2) 0.8252(4)
H15_6 H 0.2725 0.4725 0.7533
C22_6 C 0.2804(2) 0.3621(2) 0.8225(4)
O1_6 O 0.28357(15) 0.31494(13) 0.8748(2)
O2_6 O 0.26957(18) 0.36093(14) 0.7268(3)
C23_6 C 0.1015(2) 0.2728(2) 0.5984(4)
C24_6 C 0.1564(2) 0.2688(2) 0.6612(4)
O3_6 O 0.15632(13) 0.28806(15) 0.7525(3)
O4_6 O 0.20227(13) 0.24564(17) 0.6238(2)
C1_6 C 0.9978(2) 0.2735(3) 0.4815(4)
C6_6 C 0.9404(2) 0.2709(3) 0.4233(4)
C8_6 C 0.8355(2) 0.2652(3) 0.4194(4)
H4_6 H 0.7999 0.2661 0.4560
C10_6 C 0.8873(2) 0.2707(3) 0.4744(4)
H5_6 H 0.8863 0.2744 0.5467
C17_6 C 0.8851(2) 0.2599(3) 0.2689(4)
H12_6 H 0.8851 0.2555 0.1968
H13_6 H 0.9691 0.3256 0.5993
C21_6 C 0.9385(2) 0.2671(3) 0.3174(4)
H16_6 H 0.9731 0.2694 0.2784
H6_4 H 0.8036 0.1133 0.9799
C13_4 C 0.7967(3) 0.0244(2) 0.9642(4)
H8_4 H 0.8046 0.0237 0.8931
H1_4 H 0.7224 0.8751 0.0541
C9_4 C 0.7853(2) 0.9718(2) 0.0152(4)
C19_4 C 0.7773(3) 0.9742(2) 0.1225(4)
H14_4 H 0.7715 0.9392 0.1595
C2_7 C 0.7424(2) 0.8710(2) 0.9911(4)
C3_7 C 0.7796(3) 0.9157(2) 0.9571(4)
C4_7 C 0.8085(3) 0.9053(2) 0.8637(4)
H2_7 H 0.8351 0.9332 0.8381
C7_7 C 0.7983(2) 0.8544(2) 0.8089(4)
H3_7 H 0.8181 0.8491 0.7459
C12_7 C 0.7346(2) 0.8206(2) 0.9323(4)
H7_7 H 0.7094 0.7913 0.9573
N1_4 N 0.76170(18) 0.81215(16) 0.8407(3)
Co3_2 Co 0.74649(2) 0.73585(2) 0.75275(5)
C1_7 C 0.5022(2) 0.7735(3) 0.5185(4)
Co1_4 Co 0.24649(2) 0.76415(2) 0.24725(5)
C5_7 C 0.2141(2) 0.9201(2) 0.1221(4)
C6_7 C 0.5596(2) 0.7709(3) 0.5767(4)
C8_7 C 0.6645(2) 0.7652(3) 0.5806(4)
H4_7 H 0.7001 0.7661 0.5440
C10_7 C 0.6127(2) 0.7707(3) 0.5256(4)
H5_7 H 0.6137 0.7744 0.4533
C11_7 C 0.2035(2) 0.9216(2) 0.0163(4)
C14_7 C 0.4525(2) 0.7448(3) 0.5552(4)
H9_7 H 0.4536 0.7259 0.6196
C15_7 C 0.4011(2) 0.7441(3) 0.4968(5)
H10_7 H 0.3680 0.7241 0.5216
C16_7 C 0.4466(2) 0.8036(3) 0.3682(4)
H11_7 H 0.4446 0.8245 0.3059
C17_7 C 0.6149(2) 0.7599(3) 0.7311(4)
H12_7 H 0.6149 0.7555 0.8032
C18_7 C 0.4985(2) 0.8044(3) 0.4250(4)
H13_7 H 0.5309 0.8256 0.4007
C20_7 C 0.2222(3) 0.9729(2) 0.1748(4)
H15_7 H 0.2275 0.9725 0.2467
C21_7 C 0.5615(2) 0.7671(3) 0.6826(4)
H16_7 H 0.5269 0.7694 0.7216
C22_7 C 0.2196(2) 0.8621(2) 0.1775(4)
O1_7 O 0.21643(15) 0.81494(13) 0.1252(2)
O2_7 O 0.23043(18) 0.86093(14) 0.2732(3)
C23_7 C 0.3985(2) 0.7728(2) 0.4016(4)
C24_7 C 0.3436(2) 0.7688(2) 0.3388(4)
O3_7 O 0.34368(13) 0.78806(15) 0.2475(3)
O4_7 O 0.29773(13) 0.74564(17) 0.3762(2)
N2_4 N 0.66631(16) 0.7587(2) 0.6823(3)
N3_4 N 0.26170(18) 0.68785(16) 0.1593(3)
N4_4 N 0.16631(16) 0.7413(2) 0.3177(3)
C1_8 C 0.0022(2) 0.7265(3) 0.4815(4)
C6_8 C 0.0596(2) 0.7291(3) 0.4233(4)
C8_8 C 0.1645(2) 0.7348(3) 0.4194(4)
H4_8 H 0.2001 0.7339 0.4560
C10_8 C 0.1127(2) 0.7293(3) 0.4744(4)
H5_8 H 0.1137 0.7256 0.5467
C17_8 C 0.1149(2) 0.7401(3) 0.2689(4)
H12_8 H 0.1149 0.7445 0.1968
H13_8 H 0.0309 0.6744 0.5993
C21_8 C 0.0615(2) 0.7329(3) 0.3174(4)
H16_8 H 0.0269 0.7306 0.2784
H1_5 H 0.7776 0.3751 0.9459
C5_8 C 0.7141(2) 0.5799(2) 0.8779(4)
C9_5 C 0.7147(2) 0.4718(2) 0.9848(4)
C11_8 C 0.7035(2) 0.5784(2) 0.9837(4)
C14_8 C 0.9525(2) 0.7552(3) 0.4448(4)
H9_8 H 0.9536 0.7741 0.3804
C15_8 C 0.9011(2) 0.7559(3) 0.5032(5)
H10_8 H 0.8680 0.7759 0.4784
C16_8 C 0.9466(2) 0.6964(3) 0.6318(4)
H11_8 H 0.9446 0.6755 0.6941
C18_8 C 0.9985(2) 0.6956(3) 0.5750(4)
C19_5 C 0.7227(3) 0.4742(2) 0.8775(4)
H14_5 H 0.7285 0.4392 0.8405
C20_8 C 0.7222(3) 0.5271(2) 0.8252(4)
H15_8 H 0.7275 0.5275 0.7533
C22_8 C 0.7196(2) 0.6379(2) 0.8225(4)
O1_8 O 0.71643(15) 0.68506(13) 0.8748(2)
O2_8 O 0.73043(18) 0.63907(14) 0.7268(3)
C23_8 C 0.8985(2) 0.7272(2) 0.5984(4)
C24_8 C 0.8436(2) 0.7312(2) 0.6612(4)
O3_8 O 0.84368(13) 0.71194(15) 0.7525(3)
O4_8 O 0.79773(13) 0.75436(17) 0.6238(2)
C2_8 C 0.2424(2) 0.6290(2) 0.0089(4)
C3_8 C 0.2796(3) 0.5843(2) 0.0429(4)
C4_8 C 0.3085(3) 0.5947(2) 0.1363(4)
H2_8 H 0.3351 0.5668 0.1619
C7_8 C 0.2983(2) 0.6456(2) 0.1911(4)
H3_8 H 0.3181 0.6509 0.2541
H6_5 H 0.3036 0.3867 0.0201
C12_8 C 0.2346(2) 0.6794(2) 0.0677(4)
H7_8 H 0.2094 0.7087 0.0427
C13_5 C 0.2967(3) 0.4756(2) 0.0358(4)
H8_5 H 0.3046 0.4763 0.1069
H1_6 H 0.2776 0.1249 0.0541
C9_6 C 0.2147(2) 0.0282(2) 0.0152(4)
C19_6 C 0.2227(3) 0.0258(2) 0.1225(4)
H14_6 H 0.2285 0.0608 0.1595
H6_6 H 0.1964 0.8867 0.9799
C13_6 C 0.2033(3) 0.9756(2) 0.9642(4)
H8_6 H 0.1954 0.9763 0.8931
H1_7 H 0.1249 0.2776 0.9459
C9_7 C 0.0282(2) 0.2147(2) 0.9848(4)
C19_7 C 0.0258(2) 0.2227(3) 0.8775(4)
H14_7 H 0.0608 0.2285 0.8405
H6_7 H 0.8867 0.1964 0.0201
C13_7 C 0.9756(2) 0.2033(3) 0.0358(4)
H8_7 H 0.9763 0.1954 0.1069
H6_8 H 0.1133 0.8036 0.0201
C13_8 C 0.0244(2) 0.7967(3) 0.0358(4)
H8_8 H 0.0237 0.8046 0.1069
H1_8 H 0.8751 0.7224 0.9459
C9_8 C 0.9718(2) 0.7853(2) 0.9848(4)
C19_8 C 0.9742(2) 0.7773(3) 0.8775(4)
H14_8 H 0.9392 0.7715 0.8405
loop_
_geom_bond_atom_site_label_1
_geom_bond_atom_site_label_2
_geom_bond_site_symmetry_1
_geom_bond_site_symmetry_2
C1 C6 1_555 1_555
C6 C10 1_555 1_555
C8 H4 1_555 1_555
C10 C8 1_555 1_555
H5 C10 1_555 1_555
C17 H12 1_555 1_555
C21 C6 1_555 1_555
H16 C21 1_555 1_555
N2 C8 1_555 1_555
Co2 N2 1_555 1_555
C17 C21 1_555 1_555
C17 N2 1_555 1_555
Co1 O1 1_555 1_555
C5 C11 1_555 1_555
H9 C14 1_555 1_555
C15 C14 1_555 1_555
H10 C15 1_555 1_555
C16 H11 1_555 1_555
C19 C9 1_555 1_555
H14 C19 1_555 1_555
C20 C5 1_555 1_555
H15 C20 1_555 1_555
C22 C5 1_555 1_555
O1 C22 1_555 1_555
O2 Co1 1_555 1_555
C23 C15 1_555 1_555
C24 C23 1_555 1_555
O3 Co1 1_555 1_555
O4 Co1 1_555 1_555
N3 Co1 1_555 1_555
N4 Co1 1_555 1_555
C16 C18 1_555 1_555
C16 C23 1_555 1_555
C19 C20 1_555 1_555
C22 O2 1_555 1_555
C24 O3 1_555 1_555
C24 O4 1_555 1_555
C3 C2 1_555 1_555
C4 C3 1_555 1_555
H2 C4 1_555 1_555
C7 C4 1_555 1_555
H3 C7 1_555 1_555
C12 C2 1_555 1_555
H7 C12 1_555 1_555
H8 C13 1_555 1_555
N1 C7 1_555 1_555
Co2 N1 1_555 1_555
C12 N1 1_555 1_555
C1_2 C6_2 1_555 1_555
Co2 O1_2 1_555 1_555
C5_2 C11_2 1_555 1_555
C6_2 C10_2 1_555 1_555
C8_2 H4_2 1_555 1_555
C10_2 C8_2 1_555 1_555
H5_2 C10_2 1_555 1_555
C14_2 C1_2 1_555 1_555
H9_2 C14_2 1_555 1_555
C15_2 C14_2 1_555 1_555
H10_2 C15_2 1_555 1_555
C16_2 H11_2 1_555 1_555
C17_2 H12_2 1_555 1_555
C18_2 C1_2 1_555 1_555
H13_2 C18_2 1_555 1_555
C20_2 C5_2 1_555 1_555
H15_2 C20_2 1_555 1_555
C21_2 C6_2 1_555 1_555
H16_2 C21_2 1_555 1_555
C22_2 C5_2 1_555 1_555
O1_2 C22_2 1_555 1_555
O2_2 Co2 1_555 1_555
C23_2 C15_2 1_555 1_555
C24_2 C23_2 1_555 1_555
O3_2 Co2 1_555 1_555
O4_2 Co2 1_555 1_555
N4 C8_2 1_555 1_555
C16_2 C18_2 1_555 1_555
C16_2 C23_2 1_555 1_555
C17_2 C21_2 1_555 1_555
C17_2 N4 1_555 1_555
C22_2 O2_2 1_555 1_555
C24_2 O3_2 1_555 1_555
C24_2 O4_2 1_555 1_555
C3_2 C2_2 1_555 1_555
C4_2 C3_2 1_555 1_555
H2_2 C4_2 1_555 1_555
C7_2 C4_2 1_555 1_555
H3_2 C7_2 1_555 1_555
C12_2 C2_2 1_555 1_555
H7_2 C12_2 1_555 1_555
N3 C7_2 1_555 1_555
C12_2 N3 1_555 1_555
C3_3 C2_3 1_555 1_555
C4_3 C3_3 1_555 1_555
H2_3 C4_3 1_555 1_555
C7_3 C4_3 1_555 1_555
H3_3 C7_3 1_555 1_555
C12_3 C2_3 1_555 1_555
H7_3 C12_3 1_555 1_555
H8_2 C13_2 1_555 1_555
N1_2 C7_3 1_555 1_555
Co3 N1_2 1_555 1_555
C12_3 N1_2 1_555 1_555
Co1_2 O1_3 1_555 1_555
C5_3 C11_3 1_555 1_555
H9_3 C14_3 1_555 1_555
C15_3 C14_3 1_555 1_555
H10_3 C15_3 1_555 1_555
C16_3 H11_3 1_555 1_555
C19_2 C9_2 1_555 1_555
H14_2 C19_2 1_555 1_555
C20_3 C5_3 1_555 1_555
H15_3 C20_3 1_555 1_555
C22_3 C5_3 1_555 1_555
O1_3 C22_3 1_555 1_555
O2_3 Co1_2 1_555 1_555
C23_3 C15_3 1_555 1_555
C24_3 C23_3 1_555 1_555
O3_3 Co1_2 1_555 1_555
O4_3 Co1_2 1_555 1_555
N3_2 Co1_2 1_555 1_555
N4_2 Co1_2 1_555 1_555
C16_3 C18_3 1_555 1_555
C16_3 C23_3 1_555 1_555
C19_2 C20_3 1_555 1_555
C22_3 O2_3 1_555 1_555
C24_3 O3_3 1_555 1_555
C24_3 O4_3 1_555 1_555
C1_3 C6_3 1_555 1_555
C6_3 C10_3 1_555 1_555
C8_3 H4_3 1_555 1_555
C10_3 C8_3 1_555 1_555
H5_3 C10_3 1_555 1_555
C17_3 H12_3 1_555 1_555
C21_3 C6_3 1_555 1_555
H16_3 C21_3 1_555 1_555
N2_2 C8_3 1_555 1_555
Co3 N2_2 1_555 1_555
C17_3 C21_3 1_555 1_555
C17_3 N2_2 1_555 1_555
C3_4 C2_4 1_555 1_555
C4_4 C3_4 1_555 1_555
H2_4 C4_4 1_555 1_555
C7_4 C4_4 1_555 1_555
H3_4 C7_4 1_555 1_555
C12_4 C2_4 1_555 1_555
H7_4 C12_4 1_555 1_555
N3_2 C7_4 1_555 1_555
C12_4 N3_2 1_555 1_555
C1_4 C6_4 1_555 1_555
Co3 O1_4 1_555 1_555
C5_4 C11_4 1_555 1_555
C6_4 C10_4 1_555 1_555
C8_4 H4_4 1_555 1_555
C10_4 C8_4 1_555 1_555
H5_4 C10_4 1_555 1_555
C14_4 C1_4 1_555 1_555
H9_4 C14_4 1_555 1_555
C15_4 C14_4 1_555 1_555
H10_4 C15_4 1_555 1_555
C16_4 H11_4 1_555 1_555
C17_4 H12_4 1_555 1_555
C18_4 C1_4 1_555 1_555
H13_4 C18_4 1_555 1_555
C20_4 C5_4 1_555 1_555
H15_4 C20_4 1_555 1_555
C21_4 C6_4 1_555 1_555
H16_4 C21_4 1_555 1_555
C22_4 C5_4 1_555 1_555
O1_4 C22_4 1_555 1_555
O2_4 Co3 1_555 1_555
C23_4 C15_4 1_555 1_555
C24_4 C23_4 1_555 1_555
O3_4 Co3 1_555 1_555
O4_4 Co3 1_555 1_555
N4_2 C8_4 1_555 1_555
C16_4 C18_4 1_555 1_555
C16_4 C23_4 1_555 1_555
C17_4 C21_4 1_555 1_555
C17_4 N4_2 1_555 1_555
C22_4 O2_4 1_555 1_555
C24_4 O3_4 1_555 1_555
C24_4 O4_4 1_555 1_555
C1_5 C6_5 1_555 1_555
Co1_3 O1_5 1_555 1_555
C5_5 C11_5 1_555 1_555
C6_5 C10_5 1_555 1_555
C8_5 H4_5 1_555 1_555
C10_5 C8_5 1_555 1_555
H5_5 C10_5 1_555 1_555
C14_5 C1_5 1_555 1_555
H9_5 C14_5 1_555 1_555
C15_5 C14_5 1_555 1_555
H10_5 C15_5 1_555 1_555
C16_5 H11_5 1_555 1_555
C17_5 H12_5 1_555 1_555
C18_5 C1_5 1_555 1_555
H13_5 C18_5 1_555 1_555
C20_5 C5_5 1_555 1_555
H15_5 C20_5 1_555 1_555
C21_5 C6_5 1_555 1_555
H16_5 C21_5 1_555 1_555
C22_5 C5_5 1_555 1_555
O1_5 C22_5 1_555 1_555
O2_5 Co1_3 1_555 1_555
C23_5 C15_5 1_555 1_555
C24_5 C23_5 1_555 1_555
O3_5 Co1_3 1_555 1_555
O4_5 Co1_3 1_555 1_555
N2_3 C8_5 1_555 1_555
Co2_2 N2_3 1_555 1_555
N3_3 Co1_3 1_555 1_555
N4_3 Co1_3 1_555 1_555
C16_5 C18_5 1_555 1_555
C16_5 C23_5 1_555 1_555
C17_5 C21_5 1_555 1_555
C17_5 N2_3 1_555 1_555
C22_5 O2_5 1_555 1_555
C24_5 O3_5 1_555 1_555
C24_5 O4_5 1_555 1_555
C3_5 C2_5 1_555 1_555
C4_5 C3_5 1_555 1_555
H2_5 C4_5 1_555 1_555
C7_5 C4_5 1_555 1_555
H3_5 C7_5 1_555 1_555
C12_5 C2_5 1_555 1_555
H7_5 C12_5 1_555 1_555
N1_3 C7_5 1_555 1_555
Co2_2 N1_3 1_555 1_555
C12_5 N1_3 1_555 1_555
C3_6 C2_6 1_555 1_555
C4_6 C3_6 1_555 1_555
H2_6 C4_6 1_555 1_555
C7_6 C4_6 1_555 1_555
H3_6 C7_6 1_555 1_555
C12_6 C2_6 1_555 1_555
H7_6 C12_6 1_555 1_555
H8_3 C13_3 1_555 1_555
N3_3 C7_6 1_555 1_555
C12_6 N3_3 1_555 1_555
Co2_2 O1_6 1_555 1_555
C5_6 C11_6 1_555 1_555
H9_6 C14_6 1_555 1_555
C15_6 C14_6 1_555 1_555
H10_6 C15_6 1_555 1_555
C16_6 H11_6 1_555 1_555
C19_3 C9_3 1_555 1_555
H14_3 C19_3 1_555 1_555
C20_6 C5_6 1_555 1_555
H15_6 C20_6 1_555 1_555
C22_6 C5_6 1_555 1_555
O1_6 C22_6 1_555 1_555
O2_6 Co2_2 1_555 1_555
C23_6 C15_6 1_555 1_555
C24_6 C23_6 1_555 1_555
O3_6 Co2_2 1_555 1_555
O4_6 Co2_2 1_555 1_555
C16_6 C18_6 1_555 1_555
C16_6 C23_6 1_555 1_555
C19_3 C20_6 1_555 1_555
C22_6 O2_6 1_555 1_555
C24_6 O3_6 1_555 1_555
C24_6 O4_6 1_555 1_555
C1_6 C6_6 1_555 1_555
C6_6 C10_6 1_555 1_555
C8_6 H4_6 1_555 1_555
C10_6 C8_6 1_555 1_555
H5_6 C10_6 1_555 1_555
C17_6 H12_6 1_555 1_555
C21_6 C6_6 1_555 1_555
H16_6 C21_6 1_555 1_555
N4_3 C8_6 1_555 1_555
C17_6 C21_6 1_555 1_555
C17_6 N4_3 1_555 1_555
H8_4 C13_4 1_555 1_555
C19_4 C9_4 1_555 1_555
H14_4 C19_4 1_555 1_555
C3_7 C2_7 1_555 1_555
C4_7 C3_7 1_555 1_555
H2_7 C4_7 1_555 1_555
C7_7 C4_7 1_555 1_555
H3_7 C7_7 1_555 1_555
C12_7 C2_7 1_555 1_555
H7_7 C12_7 1_555 1_555
N1_4 C7_7 1_555 1_555
Co3_2 N1_4 1_555 1_555
C12_7 N1_4 1_555 1_555
C1_7 C6_7 1_555 1_555
Co1_4 O1_7 1_555 1_555
C5_7 C11_7 1_555 1_555
C6_7 C10_7 1_555 1_555
C8_7 H4_7 1_555 1_555
C10_7 C8_7 1_555 1_555
H5_7 C10_7 1_555 1_555
C14_7 C1_7 1_555 1_555
H9_7 C14_7 1_555 1_555
C15_7 C14_7 1_555 1_555
H10_7 C15_7 1_555 1_555
C16_7 H11_7 1_555 1_555
C17_7 H12_7 1_555 1_555
C18_7 C1_7 1_555 1_555
H13_7 C18_7 1_555 1_555
C20_7 C5_7 1_555 1_555
H15_7 C20_7 1_555 1_555
C21_7 C6_7 1_555 1_555
H16_7 C21_7 1_555 1_555
C22_7 C5_7 1_555 1_555
O1_7 C22_7 1_555 1_555
O2_7 Co1_4 1_555 1_555
C23_7 C15_7 1_555 1_555
C24_7 C23_7 1_555 1_555
O3_7 Co1_4 1_555 1_555
O4_7 Co1_4 1_555 1_555
N2_4 C8_7 1_555 1_555
Co3_2 N2_4 1_555 1_555
N3_4 Co1_4 1_555 1_555
N4_4 Co1_4 1_555 1_555
C16_7 C18_7 1_555 1_555
C16_7 C23_7 1_555 1_555
C17_7 C21_7 1_555 1_555
C17_7 N2_4 1_555 1_555
C22_7 O2_7 1_555 1_555
C24_7 O3_7 1_555 1_555
C24_7 O4_7 1_555 1_555
C1_8 C6_8 1_555 1_555
C6_8 C10_8 1_555 1_555
C8_8 H4_8 1_555 1_555
C10_8 C8_8 1_555 1_555
H5_8 C10_8 1_555 1_555
C17_8 H12_8 1_555 1_555
C21_8 C6_8 1_555 1_555
H16_8 C21_8 1_555 1_555
N4_4 C8_8 1_555 1_555
C17_8 C21_8 1_555 1_555
C17_8 N4_4 1_555 1_555
Co3_2 O1_8 1_555 1_555
C5_8 C11_8 1_555 1_555
H9_8 C14_8 1_555 1_555
C15_8 C14_8 1_555 1_555
H10_8 C15_8 1_555 1_555
C16_8 H11_8 1_555 1_555
C19_5 C9_5 1_555 1_555
H14_5 C19_5 1_555 1_555
C20_8 C5_8 1_555 1_555
H15_8 C20_8 1_555 1_555
C22_8 C5_8 1_555 1_555
O1_8 C22_8 1_555 1_555
O2_8 Co3_2 1_555 1_555
C23_8 C15_8 1_555 1_555
C24_8 C23_8 1_555 1_555
O3_8 Co3_2 1_555 1_555
O4_8 Co3_2 1_555 1_555
C16_8 C18_8 1_555 1_555
C16_8 C23_8 1_555 1_555
C19_5 C20_8 1_555 1_555
C22_8 O2_8 1_555 1_555
C24_8 O3_8 1_555 1_555
C24_8 O4_8 1_555 1_555
C3_8 C2_8 1_555 1_555
C4_8 C3_8 1_555 1_555
H2_8 C4_8 1_555 1_555
C7_8 C4_8 1_555 1_555
H3_8 C7_8 1_555 1_555
C12_8 C2_8 1_555 1_555
H7_8 C12_8 1_555 1_555
H8_5 C13_5 1_555 1_555
N3_4 C7_8 1_555 1_555
C12_8 N3_4 1_555 1_555
C19_6 C9_6 1_555 1_555
H14_6 C19_6 1_555 1_555
H8_6 C13_6 1_555 1_555
C19_7 C9_7 1_555 1_555
H14_7 C19_7 1_555 1_555
H8_7 C13_7 1_555 1_555
H8_8 C13_8 1_555 1_555
C19_8 C9_8 1_555 1_555
H14_8 C19_8 1_555 1_555

#END
