
###############################################################################
#
# This file contains modified crystal structure data generated from the
# MOF subset of the Cambridge Structural Database (CSD) v543 
# hosted by the Cambridge Crystallographic Data Centre (CCDC).
#
# This work is licensed under the Creative Commons
# Attribution-NonCommercial-ShareAlike 4.0 International License.
# To view a copy of this license, visit
# http://creativecommons.org/licenses/by-nc-sa/4.0/
# or send a letter to
# Creative Commons, PO Box 1866, Mountain View, CA 94042, USA.
#
# CIF created using the CSD Python API on 29 September 2022
# The structure has been converted into the P1 space group
# The structure has a 3D framework
# The original CSD entry DIDBOJ is in the tetragonal crystal system
# The original CSD entry DIDBOJ is in a Sohncke space group
# The framework has been calculated to contain at least 10.0% void space
# The void calculation uses a probe of radius 1.32A, grid spacing 0.4
#
###############################################################################

data_DIDBOJ
_chemical_formula_moiety         '(C192 H128 Co8 N16 O32)n'
_symmetry_cell_setting           triclinic
_symmetry_space_group_name_H-M   'P 1'
_symmetry_Int_Tables_number      1
_space_group_name_Hall           'P 1'
loop_
_symmetry_equiv_pos_site_id
_symmetry_equiv_pos_as_xyz
1 x,y,z
_cell_length_a                   22.614(2)
_cell_length_b                   22.614(2)
_cell_length_c                   12.854(2)
_cell_angle_alpha                90
_cell_angle_beta                 90
_cell_angle_gamma                90
_cell_volume                     6573.45
loop_
_atom_site_label
_atom_site_type_symbol
_atom_site_fract_x
_atom_site_fract_y
_atom_site_fract_z
Co1 Co 0.24310(2) 0.23192(2) 0.24748(5)
C8 C 0.2001(2) 0.0742(2) 0.0157(3)
C9 C 0.2114(2) 0.0742(2) 0.1213(3)
C10 C 0.2211(3) 0.0227(2) 0.1763(4)
H7 H 0.2257 0.0231 0.2482
C12 C 0.2170(2) 0.1321(2) 0.1768(4)
C13 C 0.6128(3) 0.2448(4) 0.7283(4)
H9 H 0.6128 0.2514 0.7997
C14 C 0.5573(3) 0.2341(4) 0.6812(5)
H10 H 0.5231 0.2295 0.7204
C15 C 0.5567(2) 0.2308(3) 0.5772(4)
C16 C 0.6098(2) 0.2297(3) 0.5273(4)
H11 H 0.6106 0.2243 0.4556
C17 C 0.6610(2) 0.2363(2) 0.5789(4)
H12 H 0.6961 0.2338 0.5415
C18 C 0.4998(2) 0.2261(3) 0.5184(4)
C19 C 0.4482(2) 0.2544(3) 0.5532(4)
H13 H 0.4481 0.2724 0.6183
C20 C 0.3994(2) 0.2561(3) 0.4956(4)
H14 H 0.3675 0.2789 0.5174
C21 C 0.3954(2) 0.2244(2) 0.4030(4)
C22 C 0.4450(2) 0.1975(3) 0.3684(4)
H15 H 0.4439 0.1790 0.3038
C23 C 0.4977(3) 0.1961(3) 0.4249(4)
H16 H 0.5305 0.1756 0.4002
C24 C 0.3404(2) 0.2283(2) 0.3399(4)
O1 O 0.21476(15) 0.17969(14) 0.1256(2)
O2 O 0.22636(19) 0.13425(15) 0.2727(3)
O3 O 0.29483(14) 0.25079(15) 0.3767(2)
O4 O 0.34060(14) 0.20633(15) 0.2481(3)
N2 N 0.66397(19) 0.2463(2) 0.6821(3)
Co2 Co 0.74310(2) 0.26808(2) 0.75252(5)
N3 N 0.25855(18) 0.30845(16) 0.1624(3)
N4 N 0.16397(19) 0.2537(2) 0.3179(3)
C1 C 0.7958(2) 0.1491(2) 0.8049(4)
H1 H 0.8141 0.1543 0.7407
C2 C 0.8087(3) 0.0980(2) 0.8604(4)
H2 H 0.8355 0.0703 0.8352
C3 C 0.7800(3) 0.0898(2) 0.9560(3)
C4 C 0.7408(3) 0.1327(2) 0.9884(4)
C5 C 0.7326(2) 0.1832(2) 0.9298(4)
H4 H 0.7080 0.2127 0.9557
N1 N 0.75855(18) 0.19155(16) 0.8376(3)
C13_2 C 0.1128(3) 0.2552(4) 0.2717(4)
H9_2 H 0.1128 0.2486 0.2003
C14_2 C 0.0573(3) 0.2659(4) 0.3188(5)
H10_2 H 0.0231 0.2705 0.2796
C15_2 C 0.0567(2) 0.2692(3) 0.4228(4)
C16_2 C 0.1098(2) 0.2703(3) 0.4727(4)
H11_2 H 0.1106 0.2757 0.5444
C17_2 C 0.1610(2) 0.2637(2) 0.4211(4)
H12_2 H 0.1961 0.2662 0.4585
H16_2 H 0.0305 0.3244 0.5998
H3 H 0.7802 0.6275 0.9501
C6 C 0.7145(2) 0.5316(2) 0.9870(4)
C8_2 C 0.7001(2) 0.4258(2) 0.9843(3)
C9_2 C 0.7114(2) 0.4258(2) 0.8787(3)
C10_2 C 0.7211(3) 0.4773(2) 0.8237(4)
H7_2 H 0.7257 0.4769 0.7518
C11 C 0.7238(3) 0.5295(2) 0.8794(4)
H8 H 0.7322 0.5645 0.8443
C12_2 C 0.7170(2) 0.3679(2) 0.8232(4)
C18_2 C 0.9998(2) 0.2739(3) 0.4816(4)
C19_2 C 0.9482(2) 0.2456(3) 0.4468(4)
H13_2 H 0.9481 0.2276 0.3817
C20_2 C 0.8994(2) 0.2439(3) 0.5044(4)
H14_2 H 0.8675 0.2211 0.4826
C21_2 C 0.8954(2) 0.2756(2) 0.5970(4)
C22_2 C 0.9450(2) 0.3025(3) 0.6316(4)
H15_2 H 0.9439 0.3210 0.6962
C23_2 C 0.9977(3) 0.3039(3) 0.5751(4)
C24_2 C 0.8404(2) 0.2717(2) 0.6601(4)
O1_2 O 0.71476(15) 0.32031(14) 0.8744(2)
O2_2 O 0.72636(19) 0.36575(15) 0.7273(3)
O3_2 O 0.79483(14) 0.24921(15) 0.6233(2)
O4_2 O 0.84060(14) 0.29367(15) 0.7519(3)
C1_2 C 0.2958(2) 0.3509(2) 0.1951(4)
H1_2 H 0.3141 0.3457 0.2593
C2_2 C 0.3087(3) 0.4020(2) 0.1396(4)
H2_2 H 0.3355 0.4297 0.1648
C3_2 C 0.2800(3) 0.4102(2) 0.0440(3)
C4_2 C 0.2408(3) 0.3673(2) 0.0116(4)
C5_2 C 0.2326(2) 0.3168(2) 0.0702(4)
H4_2 H 0.2080 0.2873 0.0443
C7 C 0.2993(2) 0.5203(2) 0.0382(4)
H5 H 0.3083 0.5195 0.1088
H6 H 0.3077 0.6094 0.0191
C7_2 C 0.2007(2) 0.0203(2) 0.9618(4)
H5_2 H 0.1917 0.0195 0.8912
H6_2 H 0.1923 0.1094 0.9809
H3_2 H 0.2802 0.8725 0.0499
C6_2 C 0.2145(2) 0.9684(2) 0.0130(4)
C11_2 C 0.2238(3) 0.9705(2) 0.1206(4)
H8_2 H 0.2322 0.9355 0.1557
C1_3 C 0.2042(2) 0.8509(2) 0.8049(4)
H1_3 H 0.1859 0.8457 0.7407
C2_3 C 0.1913(3) 0.9020(2) 0.8604(4)
H2_3 H 0.1645 0.9297 0.8352
C3_3 C 0.2200(3) 0.9102(2) 0.9560(3)
C4_3 C 0.2592(3) 0.8673(2) 0.9884(4)
C5_3 C 0.2674(2) 0.8168(2) 0.9298(4)
H4_3 H 0.2920 0.7873 0.9557
N1_2 N 0.24145(18) 0.80845(16) 0.8376(3)
Co3 Co 0.25690(2) 0.73192(2) 0.75252(5)
Co1_2 Co 0.75690(2) 0.76808(2) 0.24748(5)
C8_3 C 0.7999(2) 0.9258(2) 0.0157(3)
C9_3 C 0.7886(2) 0.9258(2) 0.1213(3)
C10_3 C 0.7789(3) 0.9773(2) 0.1763(4)
H7_3 H 0.7743 0.9769 0.2482
C12_3 C 0.7830(2) 0.8679(2) 0.1768(4)
C13_3 C 0.3872(3) 0.7552(4) 0.7283(4)
H9_3 H 0.3872 0.7486 0.7997
C14_3 C 0.4427(3) 0.7659(4) 0.6812(5)
H10_3 H 0.4769 0.7705 0.7204
C15_3 C 0.4433(2) 0.7692(3) 0.5772(4)
C16_3 C 0.3902(2) 0.7703(3) 0.5273(4)
H11_3 H 0.3894 0.7757 0.4556
C17_3 C 0.3390(2) 0.7637(2) 0.5789(4)
H12_3 H 0.3039 0.7662 0.5415
C18_3 C 0.5002(2) 0.7739(3) 0.5184(4)
C19_3 C 0.5518(2) 0.7456(3) 0.5532(4)
H13_3 H 0.5519 0.7276 0.6183
C20_3 C 0.6006(2) 0.7439(3) 0.4956(4)
H14_3 H 0.6325 0.7211 0.5174
C21_3 C 0.6046(2) 0.7756(2) 0.4030(4)
C22_3 C 0.5550(2) 0.8025(3) 0.3684(4)
H15_3 H 0.5561 0.8210 0.3038
C23_3 C 0.5023(3) 0.8039(3) 0.4249(4)
H16_3 H 0.4695 0.8244 0.4002
C24_3 C 0.6596(2) 0.7717(2) 0.3399(4)
O1_3 O 0.78524(15) 0.82031(14) 0.1256(2)
O2_3 O 0.77364(19) 0.86575(15) 0.2727(3)
O3_3 O 0.70517(14) 0.74921(15) 0.3767(2)
O4_3 O 0.65940(14) 0.79367(15) 0.2481(3)
N2_2 N 0.33603(19) 0.7537(2) 0.6821(3)
N3_2 N 0.74145(18) 0.69155(16) 0.1624(3)
N4_2 N 0.83603(19) 0.7463(2) 0.3179(3)
C1_4 C 0.7042(2) 0.6491(2) 0.1951(4)
H1_4 H 0.6859 0.6543 0.2593
C2_4 C 0.6913(3) 0.5980(2) 0.1396(4)
H2_4 H 0.6645 0.5703 0.1648
C3_4 C 0.7200(3) 0.5898(2) 0.0440(3)
C4_4 C 0.7592(3) 0.6327(2) 0.0116(4)
C5_4 C 0.7674(2) 0.6832(2) 0.0702(4)
H4_4 H 0.7920 0.7127 0.0443
C7_3 C 0.7007(2) 0.4797(2) 0.0382(4)
H5_3 H 0.6917 0.4805 0.1088
H6_3 H 0.6923 0.3906 0.0191
H3_3 H 0.2198 0.3725 0.9501
C6_3 C 0.2855(2) 0.4684(2) 0.9870(4)
C8_4 C 0.2999(2) 0.5742(2) 0.9843(3)
C9_4 C 0.2886(2) 0.5742(2) 0.8787(3)
C10_4 C 0.2789(3) 0.5227(2) 0.8237(4)
H7_4 H 0.2743 0.5231 0.7518
C11_3 C 0.2762(3) 0.4705(2) 0.8794(4)
H8_3 H 0.2678 0.4355 0.8443
C12_4 C 0.2830(2) 0.6321(2) 0.8232(4)
C18_4 C 0.0002(2) 0.7261(3) 0.4816(4)
C19_4 C 0.0518(2) 0.7544(3) 0.4468(4)
H13_4 H 0.0519 0.7724 0.3817
C20_4 C 0.1006(2) 0.7561(3) 0.5044(4)
H14_4 H 0.1325 0.7789 0.4826
C21_4 C 0.1046(2) 0.7244(2) 0.5970(4)
C22_4 C 0.0550(2) 0.6975(3) 0.6316(4)
H15_4 H 0.0561 0.6790 0.6962
C23_4 C 0.0023(3) 0.6961(3) 0.5751(4)
C24_4 C 0.1596(2) 0.7283(2) 0.6601(4)
O1_4 O 0.28524(15) 0.67969(14) 0.8744(2)
O2_4 O 0.27364(19) 0.63425(15) 0.7273(3)
O3_4 O 0.20517(14) 0.75079(15) 0.6233(2)
O4_4 O 0.15940(14) 0.70633(15) 0.7519(3)
C13_4 C 0.8872(3) 0.7448(4) 0.2717(4)
H9_4 H 0.8872 0.7514 0.2003
C14_4 C 0.9427(3) 0.7341(4) 0.3188(5)
H10_4 H 0.9769 0.7295 0.2796
C15_4 C 0.9433(2) 0.7308(3) 0.4228(4)
C16_4 C 0.8902(2) 0.7297(3) 0.4727(4)
H11_4 H 0.8894 0.7243 0.5444
C17_4 C 0.8390(2) 0.7363(2) 0.4211(4)
H12_4 H 0.8039 0.7338 0.4585
H16_4 H 0.9695 0.6756 0.5998
C13_5 C 0.2552(4) 0.1128(3) 0.7283(4)
H9_5 H 0.2486 0.1128 0.7997
C14_5 C 0.2659(4) 0.0573(3) 0.6812(5)
H10_5 H 0.2705 0.0231 0.7204
C15_5 C 0.2692(3) 0.0567(2) 0.5772(4)
C16_5 C 0.2703(3) 0.1098(2) 0.5273(4)
H11_5 H 0.2757 0.1106 0.4556
C17_5 C 0.2637(2) 0.1610(2) 0.5789(4)
H12_5 H 0.2662 0.1961 0.5415
H16_5 H 0.3244 0.0305 0.4002
N2_3 N 0.2537(2) 0.16397(19) 0.6821(3)
Co2_2 Co 0.23192(2) 0.24310(2) 0.75252(5)
Co1_3 Co 0.26808(2) 0.74310(2) 0.24748(5)
H3_4 H 0.6275 0.7802 0.0499
C6_4 C 0.5316(2) 0.7145(2) 0.0130(4)
C8_5 C 0.4258(2) 0.7001(2) 0.0157(3)
C9_5 C 0.4258(2) 0.7114(2) 0.1213(3)
C10_5 C 0.4773(2) 0.7211(3) 0.1763(4)
H7_5 H 0.4769 0.7257 0.2482
C11_4 C 0.5295(2) 0.7238(3) 0.1206(4)
H8_4 H 0.5645 0.7322 0.1557
C12_5 C 0.3679(2) 0.7170(2) 0.1768(4)
C18_5 C 0.2739(3) 0.9998(2) 0.5184(4)
C19_5 C 0.2456(3) 0.9482(2) 0.5532(4)
H13_5 H 0.2276 0.9481 0.6183
C20_5 C 0.2439(3) 0.8994(2) 0.4956(4)
H14_5 H 0.2211 0.8675 0.5174
C21_5 C 0.2756(2) 0.8954(2) 0.4030(4)
C22_5 C 0.3025(3) 0.9450(2) 0.3684(4)
H15_5 H 0.3210 0.9439 0.3038
C23_5 C 0.3039(3) 0.9977(3) 0.4249(4)
C24_5 C 0.2717(2) 0.8404(2) 0.3399(4)
O1_5 O 0.32031(14) 0.71476(15) 0.1256(2)
O2_5 O 0.36575(15) 0.72636(19) 0.2727(3)
O3_5 O 0.24921(15) 0.79483(14) 0.3767(2)
O4_5 O 0.29367(15) 0.84060(14) 0.2481(3)
N3_3 N 0.19155(16) 0.75855(18) 0.1624(3)
N4_3 N 0.2463(2) 0.66397(19) 0.3179(3)
C1_5 C 0.3509(2) 0.2958(2) 0.8049(4)
H1_5 H 0.3457 0.3141 0.7407
C2_5 C 0.4020(2) 0.3087(3) 0.8604(4)
H2_5 H 0.4297 0.3355 0.8352
C3_5 C 0.4102(2) 0.2800(3) 0.9560(3)
C4_5 C 0.3673(2) 0.2408(3) 0.9884(4)
C5_5 C 0.3168(2) 0.2326(2) 0.9298(4)
H4_5 H 0.2873 0.2080 0.9557
C7_4 C 0.5203(2) 0.2993(2) 0.9618(4)
H5_4 H 0.5195 0.3083 0.8912
H6_4 H 0.6094 0.3077 0.9809
N1_3 N 0.30845(16) 0.25855(18) 0.8376(3)
C8_6 C 0.0742(2) 0.2001(2) 0.9843(3)
C9_6 C 0.0742(2) 0.2114(2) 0.8787(3)
C10_6 C 0.0227(2) 0.2211(3) 0.8237(4)
H7_6 H 0.0231 0.2257 0.7518
C12_6 C 0.1321(2) 0.2170(2) 0.8232(4)
C13_6 C 0.2448(4) 0.6128(3) 0.2717(4)
H9_6 H 0.2514 0.6128 0.2003
C14_6 C 0.2341(4) 0.5573(3) 0.3188(5)
H10_6 H 0.2295 0.5231 0.2796
C15_6 C 0.2308(3) 0.5567(2) 0.4228(4)
C16_6 C 0.2297(3) 0.6098(2) 0.4727(4)
H11_6 H 0.2243 0.6106 0.5444
C17_6 C 0.2363(2) 0.6610(2) 0.4211(4)
H12_6 H 0.2338 0.6961 0.4585
C18_6 C 0.2261(3) 0.4998(2) 0.4816(4)
C19_6 C 0.2544(3) 0.4482(2) 0.4468(4)
H13_6 H 0.2724 0.4481 0.3817
C20_6 C 0.2561(3) 0.3994(2) 0.5044(4)
H14_6 H 0.2789 0.3675 0.4826
C21_6 C 0.2244(2) 0.3954(2) 0.5970(4)
C22_6 C 0.1975(3) 0.4450(2) 0.6316(4)
H15_6 H 0.1790 0.4439 0.6962
C23_6 C 0.1961(3) 0.4977(3) 0.5751(4)
H16_6 H 0.1756 0.5305 0.5998
C24_6 C 0.2283(2) 0.3404(2) 0.6601(4)
O1_6 O 0.17969(14) 0.21476(15) 0.8744(2)
O2_6 O 0.13425(15) 0.22636(19) 0.7273(3)
O3_6 O 0.25079(15) 0.29483(14) 0.6233(2)
O4_6 O 0.20633(15) 0.34060(14) 0.7519(3)
C1_6 C 0.1491(2) 0.7958(2) 0.1951(4)
H1_6 H 0.1543 0.8141 0.2593
C2_6 C 0.0980(2) 0.8087(3) 0.1396(4)
H2_6 H 0.0703 0.8355 0.1648
C3_6 C 0.0898(2) 0.7800(3) 0.0440(3)
C4_6 C 0.1327(2) 0.7408(3) 0.0116(4)
C5_6 C 0.1832(2) 0.7326(2) 0.0702(4)
H4_6 H 0.2127 0.7080 0.0443
C1_7 C 0.6491(2) 0.7042(2) 0.8049(4)
H1_7 H 0.6543 0.6859 0.7407
C2_7 C 0.5980(2) 0.6913(3) 0.8604(4)
H2_7 H 0.5703 0.6645 0.8352
C3_7 C 0.5898(2) 0.7200(3) 0.9560(3)
C4_7 C 0.6327(2) 0.7592(3) 0.9884(4)
C5_7 C 0.6832(2) 0.7674(2) 0.9298(4)
H4_7 H 0.7127 0.7920 0.9557
C7_5 C 0.4797(2) 0.7007(2) 0.9618(4)
H5_5 H 0.4805 0.6917 0.8912
H6_5 H 0.3906 0.6923 0.9809
N1_4 N 0.69155(16) 0.74145(18) 0.8376(3)
Co3_2 Co 0.76808(2) 0.75690(2) 0.75252(5)
Co1_4 Co 0.73192(2) 0.25690(2) 0.24748(5)
H3_5 H 0.3725 0.2198 0.0499
C6_5 C 0.4684(2) 0.2855(2) 0.0130(4)
C8_7 C 0.5742(2) 0.2999(2) 0.0157(3)
C9_7 C 0.5742(2) 0.2886(2) 0.1213(3)
C10_7 C 0.5227(2) 0.2789(3) 0.1763(4)
H7_7 H 0.5231 0.2743 0.2482
C11_5 C 0.4705(2) 0.2762(3) 0.1206(4)
H8_5 H 0.4355 0.2678 0.1557
C12_7 C 0.6321(2) 0.2830(2) 0.1768(4)
C18_7 C 0.7261(3) 0.0002(2) 0.5184(4)
C19_7 C 0.7544(3) 0.0518(2) 0.5532(4)
H13_7 H 0.7724 0.0519 0.6183
C20_7 C 0.7561(3) 0.1006(2) 0.4956(4)
H14_7 H 0.7789 0.1325 0.5174
C21_7 C 0.7244(2) 0.1046(2) 0.4030(4)
C22_7 C 0.6975(3) 0.0550(2) 0.3684(4)
H15_7 H 0.6790 0.0561 0.3038
C23_7 C 0.6961(3) 0.0023(3) 0.4249(4)
C24_7 C 0.7283(2) 0.1596(2) 0.3399(4)
O1_7 O 0.67969(14) 0.28524(15) 0.1256(2)
O2_7 O 0.63425(15) 0.27364(19) 0.2727(3)
O3_7 O 0.75079(15) 0.20517(14) 0.3767(2)
O4_7 O 0.70633(15) 0.15940(14) 0.2481(3)
N3_4 N 0.80845(16) 0.24145(18) 0.1624(3)
N4_4 N 0.7537(2) 0.33603(19) 0.3179(3)
C13_7 C 0.7448(4) 0.8872(3) 0.7283(4)
H9_7 H 0.7514 0.8872 0.7997
C14_7 C 0.7341(4) 0.9427(3) 0.6812(5)
H10_7 H 0.7295 0.9769 0.7204
C15_7 C 0.7308(3) 0.9433(2) 0.5772(4)
C16_7 C 0.7297(3) 0.8902(2) 0.5273(4)
H11_7 H 0.7243 0.8894 0.4556
C17_7 C 0.7363(2) 0.8390(2) 0.5789(4)
H12_7 H 0.7338 0.8039 0.5415
H16_7 H 0.6756 0.9695 0.4002
N2_4 N 0.7463(2) 0.83603(19) 0.6821(3)
C1_8 C 0.8509(2) 0.2042(2) 0.1951(4)
H1_8 H 0.8457 0.1859 0.2593
C2_8 C 0.9020(2) 0.1913(3) 0.1396(4)
H2_8 H 0.9297 0.1645 0.1648
C3_8 C 0.9102(2) 0.2200(3) 0.0440(3)
C4_8 C 0.8673(2) 0.2592(3) 0.0116(4)
C5_8 C 0.8168(2) 0.2674(2) 0.0702(4)
H4_8 H 0.7873 0.2920 0.0443
C8_8 C 0.9258(2) 0.7999(2) 0.9843(3)
C9_8 C 0.9258(2) 0.7886(2) 0.8787(3)
C10_8 C 0.9773(2) 0.7789(3) 0.8237(4)
H7_8 H 0.9769 0.7743 0.7518
C12_8 C 0.8679(2) 0.7830(2) 0.8232(4)
C13_8 C 0.7552(4) 0.3872(3) 0.2717(4)
H9_8 H 0.7486 0.3872 0.2003
C14_8 C 0.7659(4) 0.4427(3) 0.3188(5)
H10_8 H 0.7705 0.4769 0.2796
C15_8 C 0.7692(3) 0.4433(2) 0.4228(4)
C16_8 C 0.7703(3) 0.3902(2) 0.4727(4)
H11_8 H 0.7757 0.3894 0.5444
C17_8 C 0.7637(2) 0.3390(2) 0.4211(4)
H12_8 H 0.7662 0.3039 0.4585
C18_8 C 0.7739(3) 0.5002(2) 0.4816(4)
C19_8 C 0.7456(3) 0.5518(2) 0.4468(4)
H13_8 H 0.7276 0.5519 0.3817
C20_8 C 0.7439(3) 0.6006(2) 0.5044(4)
H14_8 H 0.7211 0.6325 0.4826
C21_8 C 0.7756(2) 0.6046(2) 0.5970(4)
C22_8 C 0.8025(3) 0.5550(2) 0.6316(4)
H15_8 H 0.8210 0.5561 0.6962
C23_8 C 0.8039(3) 0.5023(3) 0.5751(4)
H16_8 H 0.8244 0.4695 0.5998
C24_8 C 0.7717(2) 0.6596(2) 0.6601(4)
O1_8 O 0.82031(14) 0.78524(15) 0.8744(2)
O2_8 O 0.86575(15) 0.77364(19) 0.7273(3)
O3_8 O 0.74921(15) 0.70517(14) 0.6233(2)
O4_8 O 0.79367(15) 0.65940(14) 0.7519(3)
H3_6 H 0.7198 0.1275 0.0499
C6_6 C 0.7855(2) 0.0316(2) 0.0130(4)
C11_6 C 0.7762(3) 0.0295(2) 0.1206(4)
H8_6 H 0.7678 0.0645 0.1557
C7_6 C 0.7993(2) 0.9797(2) 0.9618(4)
H5_6 H 0.8083 0.9805 0.8912
H6_6 H 0.8077 0.8906 0.9809
C7_7 C 0.0203(2) 0.2007(2) 0.0382(4)
H5_7 H 0.0195 0.1917 0.1088
H6_7 H 0.1094 0.1923 0.0191
H3_7 H 0.8725 0.2802 0.9501
C6_7 C 0.9684(2) 0.2145(2) 0.9870(4)
C11_7 C 0.9705(2) 0.2238(3) 0.8794(4)
H8_7 H 0.9355 0.2322 0.8443
H3_8 H 0.1275 0.7198 0.9501
C6_8 C 0.0316(2) 0.7855(2) 0.9870(4)
C11_8 C 0.0295(2) 0.7762(3) 0.8794(4)
H8_8 H 0.0645 0.7678 0.8443
C7_8 C 0.9797(2) 0.7993(2) 0.0382(4)
H5_8 H 0.9805 0.8083 0.1088
H6_8 H 0.8906 0.8077 0.0191
loop_
_geom_bond_atom_site_label_1
_geom_bond_atom_site_label_2
_geom_bond_site_symmetry_1
_geom_bond_site_symmetry_2
Co1 O1 1_555 1_555
C9 C8 1_555 1_555
C10 C9 1_555 1_555
H7 C10 1_555 1_555
C12 C9 1_555 1_555
C13 H9 1_555 1_555
C14 C13 1_555 1_555
H10 C14 1_555 1_555
C15 C14 1_555 1_555
C16 C15 1_555 1_555
H11 C16 1_555 1_555
C17 C16 1_555 1_555
H12 C17 1_555 1_555
C18 C15 1_555 1_555
C19 C18 1_555 1_555
H13 C19 1_555 1_555
C20 C19 1_555 1_555
H14 C20 1_555 1_555
C21 C20 1_555 1_555
C22 C21 1_555 1_555
H15 C22 1_555 1_555
C23 C18 1_555 1_555
H16 C23 1_555 1_555
C24 C21 1_555 1_555
O1 C12 1_555 1_555
O2 Co1 1_555 1_555
O3 Co1 1_555 1_555
O4 Co1 1_555 1_555
N2 C13 1_555 1_555
Co2 N2 1_555 1_555
N3 Co1 1_555 1_555
N4 Co1 1_555 1_555
C12 O2 1_555 1_555
C17 N2 1_555 1_555
C22 C23 1_555 1_555
C24 O3 1_555 1_555
C24 O4 1_555 1_555
C1 H1 1_555 1_555
C2 C1 1_555 1_555
H2 C2 1_555 1_555
C3 C2 1_555 1_555
C4 C3 1_555 1_555
C5 C4 1_555 1_555
H4 C5 1_555 1_555
N1 C1 1_555 1_555
Co2 N1 1_555 1_555
C5 N1 1_555 1_555
C13_2 H9_2 1_555 1_555
C14_2 C13_2 1_555 1_555
H10_2 C14_2 1_555 1_555
C15_2 C14_2 1_555 1_555
C16_2 C15_2 1_555 1_555
H11_2 C16_2 1_555 1_555
C17_2 C16_2 1_555 1_555
H12_2 C17_2 1_555 1_555
N4 C13_2 1_555 1_555
C17_2 N4 1_555 1_555
Co2 O1_2 1_555 1_555
C9_2 C8_2 1_555 1_555
C10_2 C9_2 1_555 1_555
H7_2 C10_2 1_555 1_555
C11 C6 1_555 1_555
H8 C11 1_555 1_555
C12_2 C9_2 1_555 1_555
C19_2 C18_2 1_555 1_555
H13_2 C19_2 1_555 1_555
C20_2 C19_2 1_555 1_555
H14_2 C20_2 1_555 1_555
C21_2 C20_2 1_555 1_555
C22_2 C21_2 1_555 1_555
H15_2 C22_2 1_555 1_555
C23_2 C18_2 1_555 1_555
C24_2 C21_2 1_555 1_555
O1_2 C12_2 1_555 1_555
O2_2 Co2 1_555 1_555
O3_2 Co2 1_555 1_555
O4_2 Co2 1_555 1_555
C10_2 C11 1_555 1_555
C12_2 O2_2 1_555 1_555
C22_2 C23_2 1_555 1_555
C24_2 O3_2 1_555 1_555
C24_2 O4_2 1_555 1_555
C1_2 H1_2 1_555 1_555
C2_2 C1_2 1_555 1_555
H2_2 C2_2 1_555 1_555
C3_2 C2_2 1_555 1_555
C4_2 C3_2 1_555 1_555
C5_2 C4_2 1_555 1_555
H4_2 C5_2 1_555 1_555
H5 C7 1_555 1_555
N3 C1_2 1_555 1_555
C5_2 N3 1_555 1_555
H5_2 C7_2 1_555 1_555
C11_2 C6_2 1_555 1_555
H8_2 C11_2 1_555 1_555
C1_3 H1_3 1_555 1_555
C2_3 C1_3 1_555 1_555
H2_3 C2_3 1_555 1_555
C3_3 C2_3 1_555 1_555
C4_3 C3_3 1_555 1_555
C5_3 C4_3 1_555 1_555
H4_3 C5_3 1_555 1_555
N1_2 C1_3 1_555 1_555
Co3 N1_2 1_555 1_555
C5_3 N1_2 1_555 1_555
Co1_2 O1_3 1_555 1_555
C9_3 C8_3 1_555 1_555
C10_3 C9_3 1_555 1_555
H7_3 C10_3 1_555 1_555
C12_3 C9_3 1_555 1_555
C13_3 H9_3 1_555 1_555
C14_3 C13_3 1_555 1_555
H10_3 C14_3 1_555 1_555
C15_3 C14_3 1_555 1_555
C16_3 C15_3 1_555 1_555
H11_3 C16_3 1_555 1_555
C17_3 C16_3 1_555 1_555
H12_3 C17_3 1_555 1_555
C18_3 C15_3 1_555 1_555
C19_3 C18_3 1_555 1_555
H13_3 C19_3 1_555 1_555
C20_3 C19_3 1_555 1_555
H14_3 C20_3 1_555 1_555
C21_3 C20_3 1_555 1_555
C22_3 C21_3 1_555 1_555
H15_3 C22_3 1_555 1_555
C23_3 C18_3 1_555 1_555
H16_3 C23_3 1_555 1_555
C24_3 C21_3 1_555 1_555
O1_3 C12_3 1_555 1_555
O2_3 Co1_2 1_555 1_555
O3_3 Co1_2 1_555 1_555
O4_3 Co1_2 1_555 1_555
N2_2 C13_3 1_555 1_555
Co3 N2_2 1_555 1_555
N3_2 Co1_2 1_555 1_555
N4_2 Co1_2 1_555 1_555
C12_3 O2_3 1_555 1_555
C17_3 N2_2 1_555 1_555
C22_3 C23_3 1_555 1_555
C24_3 O3_3 1_555 1_555
C24_3 O4_3 1_555 1_555
C1_4 H1_4 1_555 1_555
C2_4 C1_4 1_555 1_555
H2_4 C2_4 1_555 1_555
C3_4 C2_4 1_555 1_555
C4_4 C3_4 1_555 1_555
C5_4 C4_4 1_555 1_555
H4_4 C5_4 1_555 1_555
H5_3 C7_3 1_555 1_555
N3_2 C1_4 1_555 1_555
C5_4 N3_2 1_555 1_555
Co3 O1_4 1_555 1_555
C9_4 C8_4 1_555 1_555
C10_4 C9_4 1_555 1_555
H7_4 C10_4 1_555 1_555
C11_3 C6_3 1_555 1_555
H8_3 C11_3 1_555 1_555
C12_4 C9_4 1_555 1_555
C19_4 C18_4 1_555 1_555
H13_4 C19_4 1_555 1_555
C20_4 C19_4 1_555 1_555
H14_4 C20_4 1_555 1_555
C21_4 C20_4 1_555 1_555
C22_4 C21_4 1_555 1_555
H15_4 C22_4 1_555 1_555
C23_4 C18_4 1_555 1_555
C24_4 C21_4 1_555 1_555
O1_4 C12_4 1_555 1_555
O2_4 Co3 1_555 1_555
O3_4 Co3 1_555 1_555
O4_4 Co3 1_555 1_555
C10_4 C11_3 1_555 1_555
C12_4 O2_4 1_555 1_555
C22_4 C23_4 1_555 1_555
C24_4 O3_4 1_555 1_555
C24_4 O4_4 1_555 1_555
C13_4 H9_4 1_555 1_555
C14_4 C13_4 1_555 1_555
H10_4 C14_4 1_555 1_555
C15_4 C14_4 1_555 1_555
C16_4 C15_4 1_555 1_555
H11_4 C16_4 1_555 1_555
C17_4 C16_4 1_555 1_555
H12_4 C17_4 1_555 1_555
N4_2 C13_4 1_555 1_555
C17_4 N4_2 1_555 1_555
C13_5 H9_5 1_555 1_555
C14_5 C13_5 1_555 1_555
H10_5 C14_5 1_555 1_555
C15_5 C14_5 1_555 1_555
C16_5 C15_5 1_555 1_555
H11_5 C16_5 1_555 1_555
C17_5 C16_5 1_555 1_555
H12_5 C17_5 1_555 1_555
N2_3 C13_5 1_555 1_555
Co2_2 N2_3 1_555 1_555
C17_5 N2_3 1_555 1_555
Co1_3 O1_5 1_555 1_555
C9_5 C8_5 1_555 1_555
C10_5 C9_5 1_555 1_555
H7_5 C10_5 1_555 1_555
C11_4 C6_4 1_555 1_555
H8_4 C11_4 1_555 1_555
C12_5 C9_5 1_555 1_555
C19_5 C18_5 1_555 1_555
H13_5 C19_5 1_555 1_555
C20_5 C19_5 1_555 1_555
H14_5 C20_5 1_555 1_555
C21_5 C20_5 1_555 1_555
C22_5 C21_5 1_555 1_555
H15_5 C22_5 1_555 1_555
C23_5 C18_5 1_555 1_555
C24_5 C21_5 1_555 1_555
O1_5 C12_5 1_555 1_555
O2_5 Co1_3 1_555 1_555
O3_5 Co1_3 1_555 1_555
O4_5 Co1_3 1_555 1_555
N3_3 Co1_3 1_555 1_555
N4_3 Co1_3 1_555 1_555
C10_5 C11_4 1_555 1_555
C12_5 O2_5 1_555 1_555
C22_5 C23_5 1_555 1_555
C24_5 O3_5 1_555 1_555
C24_5 O4_5 1_555 1_555
C1_5 H1_5 1_555 1_555
C2_5 C1_5 1_555 1_555
H2_5 C2_5 1_555 1_555
C3_5 C2_5 1_555 1_555
C4_5 C3_5 1_555 1_555
C5_5 C4_5 1_555 1_555
H4_5 C5_5 1_555 1_555
H5_4 C7_4 1_555 1_555
N1_3 C1_5 1_555 1_555
Co2_2 N1_3 1_555 1_555
C5_5 N1_3 1_555 1_555
Co2_2 O1_6 1_555 1_555
C9_6 C8_6 1_555 1_555
C10_6 C9_6 1_555 1_555
H7_6 C10_6 1_555 1_555
C12_6 C9_6 1_555 1_555
C13_6 H9_6 1_555 1_555
C14_6 C13_6 1_555 1_555
H10_6 C14_6 1_555 1_555
C15_6 C14_6 1_555 1_555
C16_6 C15_6 1_555 1_555
H11_6 C16_6 1_555 1_555
C17_6 C16_6 1_555 1_555
H12_6 C17_6 1_555 1_555
C18_6 C15_6 1_555 1_555
C19_6 C18_6 1_555 1_555
H13_6 C19_6 1_555 1_555
C20_6 C19_6 1_555 1_555
H14_6 C20_6 1_555 1_555
C21_6 C20_6 1_555 1_555
C22_6 C21_6 1_555 1_555
H15_6 C22_6 1_555 1_555
C23_6 C18_6 1_555 1_555
H16_6 C23_6 1_555 1_555
C24_6 C21_6 1_555 1_555
O1_6 C12_6 1_555 1_555
O2_6 Co2_2 1_555 1_555
O3_6 Co2_2 1_555 1_555
O4_6 Co2_2 1_555 1_555
N4_3 C13_6 1_555 1_555
C12_6 O2_6 1_555 1_555
C17_6 N4_3 1_555 1_555
C22_6 C23_6 1_555 1_555
C24_6 O3_6 1_555 1_555
C24_6 O4_6 1_555 1_555
C1_6 H1_6 1_555 1_555
C2_6 C1_6 1_555 1_555
H2_6 C2_6 1_555 1_555
C3_6 C2_6 1_555 1_555
C4_6 C3_6 1_555 1_555
C5_6 C4_6 1_555 1_555
H4_6 C5_6 1_555 1_555
N3_3 C1_6 1_555 1_555
C5_6 N3_3 1_555 1_555
C1_7 H1_7 1_555 1_555
C2_7 C1_7 1_555 1_555
H2_7 C2_7 1_555 1_555
C3_7 C2_7 1_555 1_555
C4_7 C3_7 1_555 1_555
C5_7 C4_7 1_555 1_555
H4_7 C5_7 1_555 1_555
H5_5 C7_5 1_555 1_555
N1_4 C1_7 1_555 1_555
Co3_2 N1_4 1_555 1_555
C5_7 N1_4 1_555 1_555
Co1_4 O1_7 1_555 1_555
C9_7 C8_7 1_555 1_555
C10_7 C9_7 1_555 1_555
H7_7 C10_7 1_555 1_555
C11_5 C6_5 1_555 1_555
H8_5 C11_5 1_555 1_555
C12_7 C9_7 1_555 1_555
C19_7 C18_7 1_555 1_555
H13_7 C19_7 1_555 1_555
C20_7 C19_7 1_555 1_555
H14_7 C20_7 1_555 1_555
C21_7 C20_7 1_555 1_555
C22_7 C21_7 1_555 1_555
H15_7 C22_7 1_555 1_555
C23_7 C18_7 1_555 1_555
C24_7 C21_7 1_555 1_555
O1_7 C12_7 1_555 1_555
O2_7 Co1_4 1_555 1_555
O3_7 Co1_4 1_555 1_555
O4_7 Co1_4 1_555 1_555
N3_4 Co1_4 1_555 1_555
N4_4 Co1_4 1_555 1_555
C10_7 C11_5 1_555 1_555
C12_7 O2_7 1_555 1_555
C22_7 C23_7 1_555 1_555
C24_7 O3_7 1_555 1_555
C24_7 O4_7 1_555 1_555
C13_7 H9_7 1_555 1_555
C14_7 C13_7 1_555 1_555
H10_7 C14_7 1_555 1_555
C15_7 C14_7 1_555 1_555
C16_7 C15_7 1_555 1_555
H11_7 C16_7 1_555 1_555
C17_7 C16_7 1_555 1_555
H12_7 C17_7 1_555 1_555
N2_4 C13_7 1_555 1_555
Co3_2 N2_4 1_555 1_555
C17_7 N2_4 1_555 1_555
C1_8 H1_8 1_555 1_555
C2_8 C1_8 1_555 1_555
H2_8 C2_8 1_555 1_555
C3_8 C2_8 1_555 1_555
C4_8 C3_8 1_555 1_555
C5_8 C4_8 1_555 1_555
H4_8 C5_8 1_555 1_555
N3_4 C1_8 1_555 1_555
C5_8 N3_4 1_555 1_555
Co3_2 O1_8 1_555 1_555
C9_8 C8_8 1_555 1_555
C10_8 C9_8 1_555 1_555
H7_8 C10_8 1_555 1_555
C12_8 C9_8 1_555 1_555
C13_8 H9_8 1_555 1_555
C14_8 C13_8 1_555 1_555
H10_8 C14_8 1_555 1_555
C15_8 C14_8 1_555 1_555
C16_8 C15_8 1_555 1_555
H11_8 C16_8 1_555 1_555
C17_8 C16_8 1_555 1_555
H12_8 C17_8 1_555 1_555
C18_8 C15_8 1_555 1_555
C19_8 C18_8 1_555 1_555
H13_8 C19_8 1_555 1_555
C20_8 C19_8 1_555 1_555
H14_8 C20_8 1_555 1_555
C21_8 C20_8 1_555 1_555
C22_8 C21_8 1_555 1_555
H15_8 C22_8 1_555 1_555
C23_8 C18_8 1_555 1_555
H16_8 C23_8 1_555 1_555
C24_8 C21_8 1_555 1_555
O1_8 C12_8 1_555 1_555
O2_8 Co3_2 1_555 1_555
O3_8 Co3_2 1_555 1_555
O4_8 Co3_2 1_555 1_555
N4_4 C13_8 1_555 1_555
C12_8 O2_8 1_555 1_555
C17_8 N4_4 1_555 1_555
C22_8 C23_8 1_555 1_555
C24_8 O3_8 1_555 1_555
C24_8 O4_8 1_555 1_555
C11_6 C6_6 1_555 1_555
H8_6 C11_6 1_555 1_555
H5_6 C7_6 1_555 1_555
H5_7 C7_7 1_555 1_555
C11_7 C6_7 1_555 1_555
H8_7 C11_7 1_555 1_555
C11_8 C6_8 1_555 1_555
H8_8 C11_8 1_555 1_555
H5_8 C7_8 1_555 1_555

#END
