
###############################################################################
#
# This file contains modified crystal structure data generated from the
# MOF subset of the Cambridge Structural Database (CSD) v543 
# hosted by the Cambridge Crystallographic Data Centre (CCDC).
#
# This work is licensed under the Creative Commons
# Attribution-NonCommercial-ShareAlike 4.0 International License.
# To view a copy of this license, visit
# http://creativecommons.org/licenses/by-nc-sa/4.0/
# or send a letter to
# Creative Commons, PO Box 1866, Mountain View, CA 94042, USA.
#
# CIF created using the CSD Python API on 29 September 2022
# The structure has been converted into the P1 space group
# The structure has a 3D framework
# The original CSD entry DIDBOJ01 is in the tetragonal crystal system
# The original CSD entry DIDBOJ01 is in a Sohncke space group
# The framework has been calculated to contain at least 10.0% void space
# The void calculation uses a probe of radius 1.32A, grid spacing 0.4
#
###############################################################################

data_DIDBOJ01
_chemical_formula_moiety         '(C192 H128 Co8 N16 O32)n'
_symmetry_cell_setting           triclinic
_symmetry_space_group_name_H-M   'P 1'
_symmetry_Int_Tables_number      1
_space_group_name_Hall           'P 1'
loop_
_symmetry_equiv_pos_site_id
_symmetry_equiv_pos_as_xyz
1 x,y,z
_cell_length_a                   22.614(2)
_cell_length_b                   22.614(2)
_cell_length_c                   12.854(2)
_cell_angle_alpha                90
_cell_angle_beta                 90
_cell_angle_gamma                90
_cell_volume                     6573.45
loop_
_atom_site_label
_atom_site_type_symbol
_atom_site_fract_x
_atom_site_fract_y
_atom_site_fract_z
Co1 Co 0.24305(5) 0.23190(5) 0.24750(9)
O1 O 0.2147(3) 0.1806(3) 0.1244(5)
O2 O 0.2263(4) 0.1341(3) 0.2722(6)
O3 O 0.2951(3) 0.2496(3) 0.3772(5)
O4 O 0.3411(3) 0.2055(3) 0.2477(6)
N2 N 0.6638(4) 0.2453(4) 0.6820(6)
C1 C 0.2163(5) 0.1320(5) 0.1770(9)
C2 C 0.2108(5) 0.0753(4) 0.1222(6)
C3 C 0.1996(5) 0.0741(4) 0.0133(7)
C7 C 0.2210(5) 0.0215(4) 0.1770(9)
H4 H 0.225457 0.021232 0.248943
C13 C 0.3423(5) 0.2272(5) 0.3398(7)
C14 C 0.3950(4) 0.2244(5) 0.4033(7)
C15 C 0.4452(5) 0.1977(6) 0.3673(8)
H9 H 0.444478 0.179175 0.302697
C16 C 0.4977(5) 0.1975(6) 0.4248(9)
H10 H 0.530969 0.177855 0.399912
C17 C 0.4996(5) 0.2270(5) 0.5198(7)
C18 C 0.4487(5) 0.2552(7) 0.5531(9)
H11 H 0.448396 0.273621 0.617804
C19 C 0.4004(5) 0.2566(6) 0.4950(9)
H12 H 0.368816 0.279963 0.516294
C20 C 0.5559(4) 0.2312(6) 0.5760(7)
C21 C 0.6094(4) 0.2273(6) 0.5277(8)
H13 H 0.610121 0.218644 0.456953
C22 C 0.6623(5) 0.2354(5) 0.5783(8)
H14 H 0.697437 0.234113 0.540754
C23 C 0.6125(5) 0.2458(8) 0.7289(8)
H15 H 0.612004 0.254205 0.799759
C24 C 0.5582(5) 0.2347(7) 0.6805(10)
H16 H 0.524075 0.229841 0.719966
Co2 Co 0.74305(5) 0.26810(5) 0.75250(9)
N3 N 0.2591(4) 0.3086(3) 0.1629(6)
N4 N 0.1638(4) 0.2547(4) 0.3180(6)
N1 N 0.7591(4) 0.1914(3) 0.8371(6)
C8 C 0.7798(5) 0.0896(5) 0.9565(7)
C9 C 0.8076(6) 0.0970(5) 0.8585(8)
H5 H 0.832747 0.068200 0.831765
C10 C 0.7963(4) 0.1479(4) 0.8050(8)
H6 H 0.815513 0.153162 0.741670
C11 C 0.7329(5) 0.1823(4) 0.9299(8)
H7 H 0.707883 0.211443 0.956033
C12 C 0.7415(6) 0.1318(5) 0.9876(8)
H10_2 H 0.030969 0.322145 0.600088
C20_2 C 0.0559(4) 0.2688(6) 0.4240(7)
C21_2 C 0.1094(4) 0.2727(6) 0.4723(8)
H13_2 H 0.110121 0.281356 0.543047
C22_2 C 0.1623(5) 0.2646(5) 0.4217(8)
H14_2 H 0.197437 0.265887 0.459246
C23_2 C 0.1125(5) 0.2542(8) 0.2711(8)
H15_2 H 0.112004 0.245795 0.200241
C24_2 C 0.0582(5) 0.2653(7) 0.3195(10)
H16_2 H 0.024075 0.270159 0.280034
O1_2 O 0.7147(3) 0.3194(3) 0.8756(5)
O2_2 O 0.7263(4) 0.3659(3) 0.7278(6)
O3_2 O 0.7951(3) 0.2504(3) 0.6228(5)
O4_2 O 0.8411(3) 0.2945(3) 0.7523(6)
C1_2 C 0.7163(5) 0.3680(5) 0.8230(9)
C2_2 C 0.7108(5) 0.4247(4) 0.8778(6)
C3_2 C 0.6996(5) 0.4259(4) 0.9867(7)
C5 C 0.7157(5) 0.5310(4) 0.9874(8)
C6 C 0.7240(7) 0.5298(5) 0.8797(8)
H3 H 0.731939 0.565120 0.845155
C7_2 C 0.7210(5) 0.4785(4) 0.8230(9)
H4_2 H 0.725457 0.478768 0.751057
H8 H 0.779362 0.626727 0.950700
C13_2 C 0.8423(5) 0.2728(5) 0.6602(7)
C14_2 C 0.8950(4) 0.2756(5) 0.5967(7)
C15_2 C 0.9452(5) 0.3023(6) 0.6327(8)
H9_2 H 0.944478 0.320825 0.697303
C16_2 C 0.9977(5) 0.3025(6) 0.5752(9)
C17_2 C 0.9996(5) 0.2730(5) 0.4802(7)
C18_2 C 0.9487(5) 0.2448(7) 0.4469(9)
H11_2 H 0.948396 0.226379 0.382196
C19_2 C 0.9004(5) 0.2434(6) 0.5050(9)
H12_2 H 0.868816 0.220037 0.483706
H1 H 0.308617 0.608898 0.022550
C4 C 0.2988(5) 0.5201(4) 0.0387(8)
H2 H 0.307789 0.518663 0.109303
C8_2 C 0.2798(5) 0.4104(5) 0.0435(7)
C9_2 C 0.3076(6) 0.4030(5) 0.1415(8)
H5_2 H 0.332747 0.431800 0.168235
C10_2 C 0.2963(4) 0.3521(4) 0.1950(8)
H6_2 H 0.315513 0.346838 0.258330
C11_2 C 0.2329(5) 0.3177(4) 0.0701(8)
H7_2 H 0.207883 0.288557 0.043967
C12_2 C 0.2415(6) 0.3682(5) 0.0124(8)
H1_2 H 0.191383 0.108898 0.977450
C4_2 C 0.2012(5) 0.0201(4) 0.9613(8)
H2_2 H 0.192211 0.018663 0.890697
C5_2 C 0.2157(5) 0.9690(4) 0.0126(8)
C6_2 C 0.2240(7) 0.9702(5) 0.1203(8)
H3_2 H 0.231939 0.934880 0.154845
H8_2 H 0.279362 0.873273 0.049300
N1_2 N 0.2409(4) 0.8086(3) 0.8371(6)
C8_3 C 0.2202(5) 0.9104(5) 0.9565(7)
C9_3 C 0.1924(6) 0.9030(5) 0.8585(8)
H5_3 H 0.167253 0.931800 0.831765
C10_3 C 0.2037(4) 0.8521(4) 0.8050(8)
H6_3 H 0.184487 0.846838 0.741670
C11_3 C 0.2671(5) 0.8177(4) 0.9299(8)
H7_3 H 0.292117 0.788557 0.956033
C12_3 C 0.2585(6) 0.8682(5) 0.9876(8)
Co3 Co 0.25695(5) 0.73190(5) 0.75250(9)
Co1_2 Co 0.75695(5) 0.76810(5) 0.24750(9)
O1_3 O 0.7853(3) 0.8194(3) 0.1244(5)
O2_3 O 0.7737(4) 0.8659(3) 0.2722(6)
O3_3 O 0.7049(3) 0.7504(3) 0.3772(5)
O4_3 O 0.6589(3) 0.7945(3) 0.2477(6)
N2_2 N 0.3362(4) 0.7547(4) 0.6820(6)
C1_3 C 0.7837(5) 0.8680(5) 0.1770(9)
C2_3 C 0.7892(5) 0.9247(4) 0.1222(6)
C3_3 C 0.8004(5) 0.9259(4) 0.0133(7)
C7_3 C 0.7790(5) 0.9785(4) 0.1770(9)
H4_3 H 0.774543 0.978768 0.248943
C13_3 C 0.6577(5) 0.7728(5) 0.3398(7)
C14_3 C 0.6050(4) 0.7756(5) 0.4033(7)
C15_3 C 0.5548(5) 0.8023(6) 0.3673(8)
H9_3 H 0.555522 0.820825 0.302697
C16_3 C 0.5023(5) 0.8025(6) 0.4248(9)
H10_3 H 0.469031 0.822145 0.399912
C17_3 C 0.5004(5) 0.7730(5) 0.5198(7)
C18_3 C 0.5513(5) 0.7448(7) 0.5531(9)
H11_3 H 0.551604 0.726379 0.617804
C19_3 C 0.5996(5) 0.7434(6) 0.4950(9)
H12_3 H 0.631184 0.720037 0.516294
C20_3 C 0.4441(4) 0.7688(6) 0.5760(7)
C21_3 C 0.3906(4) 0.7727(6) 0.5277(8)
H13_3 H 0.389879 0.781356 0.456953
C22_3 C 0.3377(5) 0.7646(5) 0.5783(8)
H14_3 H 0.302563 0.765887 0.540754
C23_3 C 0.3875(5) 0.7542(8) 0.7289(8)
H15_3 H 0.387996 0.745795 0.799759
C24_3 C 0.4418(5) 0.7653(7) 0.6805(10)
H16_3 H 0.475925 0.770159 0.719966
N3_2 N 0.7409(4) 0.6914(3) 0.1629(6)
N4_2 N 0.8362(4) 0.7453(4) 0.3180(6)
H1_3 H 0.691383 0.391102 0.022550
C4_3 C 0.7012(5) 0.4799(4) 0.0387(8)
H2_3 H 0.692211 0.481337 0.109303
C8_4 C 0.7202(5) 0.5896(5) 0.0435(7)
C9_4 C 0.6924(6) 0.5970(5) 0.1415(8)
H5_4 H 0.667253 0.568200 0.168235
C10_4 C 0.7037(4) 0.6479(4) 0.1950(8)
H6_4 H 0.684487 0.653162 0.258330
C11_4 C 0.7671(5) 0.6823(4) 0.0701(8)
H7_4 H 0.792117 0.711443 0.043967
C12_4 C 0.7585(6) 0.6318(5) 0.0124(8)
O1_4 O 0.2853(3) 0.6806(3) 0.8756(5)
O2_4 O 0.2737(4) 0.6341(3) 0.7278(6)
O3_4 O 0.2049(3) 0.7496(3) 0.6228(5)
O4_4 O 0.1589(3) 0.7055(3) 0.7523(6)
C1_4 C 0.2837(5) 0.6320(5) 0.8230(9)
C2_4 C 0.2892(5) 0.5753(4) 0.8778(6)
C3_4 C 0.3004(5) 0.5741(4) 0.9867(7)
C5_3 C 0.2843(5) 0.4690(4) 0.9874(8)
C6_3 C 0.2760(7) 0.4702(5) 0.8797(8)
H3_3 H 0.268061 0.434880 0.845155
C7_4 C 0.2790(5) 0.5215(4) 0.8230(9)
H4_4 H 0.274543 0.521232 0.751057
H8_3 H 0.220638 0.373273 0.950700
C13_4 C 0.1577(5) 0.7272(5) 0.6602(7)
C14_4 C 0.1050(4) 0.7244(5) 0.5967(7)
C15_4 C 0.0548(5) 0.6977(6) 0.6327(8)
H9_4 H 0.055522 0.679175 0.697303
C16_4 C 0.0023(5) 0.6975(6) 0.5752(9)
C17_4 C 0.0004(5) 0.7270(5) 0.4802(7)
C18_4 C 0.0513(5) 0.7552(7) 0.4469(9)
H11_4 H 0.051604 0.773621 0.382196
C19_4 C 0.0996(5) 0.7566(6) 0.5050(9)
H12_4 H 0.131184 0.779963 0.483706
H10_4 H 0.969031 0.677855 0.600088
C20_4 C 0.9441(4) 0.7312(6) 0.4240(7)
C21_4 C 0.8906(4) 0.7273(6) 0.4723(8)
H13_4 H 0.889879 0.718644 0.543047
C22_4 C 0.8377(5) 0.7354(5) 0.4217(8)
H14_4 H 0.802563 0.734113 0.459246
C23_4 C 0.8875(5) 0.7458(8) 0.2711(8)
H15_4 H 0.887996 0.754205 0.200241
C24_4 C 0.9418(5) 0.7347(7) 0.3195(10)
H16_4 H 0.975925 0.729841 0.280034
N2_3 N 0.2547(4) 0.1638(4) 0.6820(6)
H10_5 H 0.322145 0.030969 0.399912
C20_5 C 0.2688(6) 0.0559(4) 0.5760(7)
C21_5 C 0.2727(6) 0.1094(4) 0.5277(8)
H13_5 H 0.281356 0.110121 0.456953
C22_5 C 0.2646(5) 0.1623(5) 0.5783(8)
H14_5 H 0.265887 0.197437 0.540754
C23_5 C 0.2542(8) 0.1125(5) 0.7289(8)
H15_5 H 0.245795 0.112004 0.799759
C24_5 C 0.2653(7) 0.0582(5) 0.6805(10)
H16_5 H 0.270159 0.024075 0.719966
Co2_2 Co 0.23190(5) 0.24305(5) 0.75250(9)
Co1_3 Co 0.26810(5) 0.74305(5) 0.24750(9)
O1_5 O 0.3194(3) 0.7147(3) 0.1244(5)
O2_5 O 0.3659(3) 0.7263(4) 0.2722(6)
O3_5 O 0.2504(3) 0.7951(3) 0.3772(5)
O4_5 O 0.2945(3) 0.8411(3) 0.2477(6)
C1_5 C 0.3680(5) 0.7163(5) 0.1770(9)
C2_5 C 0.4247(4) 0.7108(5) 0.1222(6)
C3_5 C 0.4259(4) 0.6996(5) 0.0133(7)
C5_4 C 0.5310(4) 0.7157(5) 0.0126(8)
C6_4 C 0.5298(5) 0.7240(7) 0.1203(8)
H3_4 H 0.565120 0.731939 0.154845
C7_5 C 0.4785(4) 0.7210(5) 0.1770(9)
H4_5 H 0.478768 0.725457 0.248943
H8_4 H 0.626727 0.779362 0.049300
C13_5 C 0.2728(5) 0.8423(5) 0.3398(7)
C14_5 C 0.2756(5) 0.8950(4) 0.4033(7)
C15_5 C 0.3023(6) 0.9452(5) 0.3673(8)
H9_5 H 0.320825 0.944478 0.302697
C16_5 C 0.3025(6) 0.9977(5) 0.4248(9)
C17_5 C 0.2730(5) 0.9996(5) 0.5198(7)
C18_5 C 0.2448(7) 0.9487(5) 0.5531(9)
H11_5 H 0.226379 0.948396 0.617804
C19_5 C 0.2434(6) 0.9004(5) 0.4950(9)
H12_5 H 0.220037 0.868816 0.516294
N3_3 N 0.1914(3) 0.7591(4) 0.1629(6)
N4_3 N 0.2453(4) 0.6638(4) 0.3180(6)
N1_3 N 0.3086(3) 0.2591(4) 0.8371(6)
H1_4 H 0.608898 0.308617 0.977450
C4_4 C 0.5201(4) 0.2988(5) 0.9613(8)
H2_4 H 0.518663 0.307789 0.890697
C8_5 C 0.4104(5) 0.2798(5) 0.9565(7)
C9_5 C 0.4030(5) 0.3076(6) 0.8585(8)
H5_5 H 0.431800 0.332747 0.831765
C10_5 C 0.3521(4) 0.2963(4) 0.8050(8)
H6_5 H 0.346838 0.315513 0.741670
C11_5 C 0.3177(4) 0.2329(5) 0.9299(8)
H7_5 H 0.288557 0.207883 0.956033
C12_5 C 0.3682(5) 0.2415(6) 0.9876(8)
O1_6 O 0.1806(3) 0.2147(3) 0.8756(5)
O2_6 O 0.1341(3) 0.2263(4) 0.7278(6)
O3_6 O 0.2496(3) 0.2951(3) 0.6228(5)
O4_6 O 0.2055(3) 0.3411(3) 0.7523(6)
C1_6 C 0.1320(5) 0.2163(5) 0.8230(9)
C2_6 C 0.0753(4) 0.2108(5) 0.8778(6)
C3_6 C 0.0741(4) 0.1996(5) 0.9867(7)
C7_6 C 0.0215(4) 0.2210(5) 0.8230(9)
H4_6 H 0.021232 0.225457 0.751057
C13_6 C 0.2272(5) 0.3423(5) 0.6602(7)
C14_6 C 0.2244(5) 0.3950(4) 0.5967(7)
C15_6 C 0.1977(6) 0.4452(5) 0.6327(8)
H9_6 H 0.179175 0.444478 0.697303
C16_6 C 0.1975(6) 0.4977(5) 0.5752(9)
H10_6 H 0.177855 0.530969 0.600088
C17_6 C 0.2270(5) 0.4996(5) 0.4802(7)
C18_6 C 0.2552(7) 0.4487(5) 0.4469(9)
H11_6 H 0.273621 0.448396 0.382196
C19_6 C 0.2566(6) 0.4004(5) 0.5050(9)
H12_6 H 0.279963 0.368816 0.483706
C20_6 C 0.2312(6) 0.5559(4) 0.4240(7)
C21_6 C 0.2273(6) 0.6094(4) 0.4723(8)
H13_6 H 0.218644 0.610121 0.543047
C22_6 C 0.2354(5) 0.6623(5) 0.4217(8)
H14_6 H 0.234113 0.697437 0.459246
C23_6 C 0.2458(8) 0.6125(5) 0.2711(8)
H15_6 H 0.254205 0.612004 0.200241
C24_6 C 0.2347(7) 0.5582(5) 0.3195(10)
H16_6 H 0.229841 0.524075 0.280034
C8_6 C 0.0896(5) 0.7798(5) 0.0435(7)
C9_6 C 0.0970(5) 0.8076(6) 0.1415(8)
H5_6 H 0.068200 0.832747 0.168235
C10_6 C 0.1479(4) 0.7963(4) 0.1950(8)
H6_6 H 0.153162 0.815513 0.258330
C11_6 C 0.1823(4) 0.7329(5) 0.0701(8)
H7_6 H 0.211443 0.707883 0.043967
C12_6 C 0.1318(5) 0.7415(6) 0.0124(8)
N1_4 N 0.6914(3) 0.7409(4) 0.8371(6)
H1_5 H 0.391102 0.691383 0.977450
C4_5 C 0.4799(4) 0.7012(5) 0.9613(8)
H2_5 H 0.481337 0.692211 0.890697
C8_7 C 0.5896(5) 0.7202(5) 0.9565(7)
C9_7 C 0.5970(5) 0.6924(6) 0.8585(8)
H5_7 H 0.568200 0.667253 0.831765
C10_7 C 0.6479(4) 0.7037(4) 0.8050(8)
H6_7 H 0.653162 0.684487 0.741670
C11_7 C 0.6823(4) 0.7671(5) 0.9299(8)
H7_7 H 0.711443 0.792117 0.956033
C12_7 C 0.6318(5) 0.7585(6) 0.9876(8)
Co3_2 Co 0.76810(5) 0.75695(5) 0.75250(9)
Co1_4 Co 0.73190(5) 0.25695(5) 0.24750(9)
O1_7 O 0.6806(3) 0.2853(3) 0.1244(5)
O2_7 O 0.6341(3) 0.2737(4) 0.2722(6)
O3_7 O 0.7496(3) 0.2049(3) 0.3772(5)
O4_7 O 0.7055(3) 0.1589(3) 0.2477(6)
C1_7 C 0.6320(5) 0.2837(5) 0.1770(9)
C2_7 C 0.5753(4) 0.2892(5) 0.1222(6)
C3_7 C 0.5741(4) 0.3004(5) 0.0133(7)
C5_5 C 0.4690(4) 0.2843(5) 0.0126(8)
C6_5 C 0.4702(5) 0.2760(7) 0.1203(8)
H3_5 H 0.434880 0.268061 0.154845
C7_7 C 0.5215(4) 0.2790(5) 0.1770(9)
H4_7 H 0.521232 0.274543 0.248943
H8_5 H 0.373273 0.220638 0.049300
C13_7 C 0.7272(5) 0.1577(5) 0.3398(7)
C14_7 C 0.7244(5) 0.1050(4) 0.4033(7)
C15_7 C 0.6977(6) 0.0548(5) 0.3673(8)
H9_7 H 0.679175 0.055522 0.302697
C16_7 C 0.6975(6) 0.0023(5) 0.4248(9)
C17_7 C 0.7270(5) 0.0004(5) 0.5198(7)
C18_7 C 0.7552(7) 0.0513(5) 0.5531(9)
H11_7 H 0.773621 0.051604 0.617804
C19_7 C 0.7566(6) 0.0996(5) 0.4950(9)
H12_7 H 0.779963 0.131184 0.516294
N3_4 N 0.8086(3) 0.2409(4) 0.1629(6)
N4_4 N 0.7547(4) 0.3362(4) 0.3180(6)
N2_4 N 0.7453(4) 0.8362(4) 0.6820(6)
H10_7 H 0.677855 0.969031 0.399912
C20_7 C 0.7312(6) 0.9441(4) 0.5760(7)
C21_7 C 0.7273(6) 0.8906(4) 0.5277(8)
H13_7 H 0.718644 0.889879 0.456953
C22_7 C 0.7354(5) 0.8377(5) 0.5783(8)
H14_7 H 0.734113 0.802563 0.540754
C23_7 C 0.7458(8) 0.8875(5) 0.7289(8)
H15_7 H 0.754205 0.887996 0.799759
C24_7 C 0.7347(7) 0.9418(5) 0.6805(10)
H16_7 H 0.729841 0.975925 0.719966
C8_8 C 0.9104(5) 0.2202(5) 0.0435(7)
C9_8 C 0.9030(5) 0.1924(6) 0.1415(8)
H5_8 H 0.931800 0.167253 0.168235
C10_8 C 0.8521(4) 0.2037(4) 0.1950(8)
H6_8 H 0.846838 0.184487 0.258330
C11_8 C 0.8177(4) 0.2671(5) 0.0701(8)
H7_8 H 0.788557 0.292117 0.043967
C12_8 C 0.8682(5) 0.2585(6) 0.0124(8)
O1_8 O 0.8194(3) 0.7853(3) 0.8756(5)
O2_8 O 0.8659(3) 0.7737(4) 0.7278(6)
O3_8 O 0.7504(3) 0.7049(3) 0.6228(5)
O4_8 O 0.7945(3) 0.6589(3) 0.7523(6)
C1_8 C 0.8680(5) 0.7837(5) 0.8230(9)
C2_8 C 0.9247(4) 0.7892(5) 0.8778(6)
C3_8 C 0.9259(4) 0.8004(5) 0.9867(7)
C7_8 C 0.9785(4) 0.7790(5) 0.8230(9)
H4_8 H 0.978768 0.774543 0.751057
C13_8 C 0.7728(5) 0.6577(5) 0.6602(7)
C14_8 C 0.7756(5) 0.6050(4) 0.5967(7)
C15_8 C 0.8023(6) 0.5548(5) 0.6327(8)
H9_8 H 0.820825 0.555522 0.697303
C16_8 C 0.8025(6) 0.5023(5) 0.5752(9)
H10_8 H 0.822145 0.469031 0.600088
C17_8 C 0.7730(5) 0.5004(5) 0.4802(7)
C18_8 C 0.7448(7) 0.5513(5) 0.4469(9)
H11_8 H 0.726379 0.551604 0.382196
C19_8 C 0.7434(6) 0.5996(5) 0.5050(9)
H12_8 H 0.720037 0.631184 0.483706
C20_8 C 0.7688(6) 0.4441(4) 0.4240(7)
C21_8 C 0.7727(6) 0.3906(4) 0.4723(8)
H13_8 H 0.781356 0.389879 0.543047
C22_8 C 0.7646(5) 0.3377(5) 0.4217(8)
H14_8 H 0.765887 0.302563 0.459246
C23_8 C 0.7542(8) 0.3875(5) 0.2711(8)
H15_8 H 0.745795 0.387996 0.200241
C24_8 C 0.7653(7) 0.4418(5) 0.3195(10)
H16_8 H 0.770159 0.475925 0.280034
C5_6 C 0.7843(5) 0.0310(4) 0.0126(8)
C6_6 C 0.7760(7) 0.0298(5) 0.1203(8)
H3_6 H 0.768061 0.065120 0.154845
H8_6 H 0.720638 0.126727 0.049300
H1_6 H 0.808617 0.891102 0.977450
C4_6 C 0.7988(5) 0.9799(4) 0.9613(8)
H2_6 H 0.807789 0.981337 0.890697
H1_7 H 0.108898 0.191383 0.022550
C4_7 C 0.0201(4) 0.2012(5) 0.0387(8)
H2_7 H 0.018663 0.192211 0.109303
C5_7 C 0.9690(4) 0.2157(5) 0.9874(8)
C6_7 C 0.9702(5) 0.2240(7) 0.8797(8)
H3_7 H 0.934880 0.231939 0.845155
H8_7 H 0.873273 0.279362 0.950700
C5_8 C 0.0310(4) 0.7843(5) 0.9874(8)
C6_8 C 0.0298(5) 0.7760(7) 0.8797(8)
H3_8 H 0.065120 0.768061 0.845155
H8_8 H 0.126727 0.720638 0.950700
H1_8 H 0.891102 0.808617 0.022550
C4_8 C 0.9799(4) 0.7988(5) 0.0387(8)
H2_8 H 0.981337 0.807789 0.109303
loop_
_geom_bond_atom_site_label_1
_geom_bond_atom_site_label_2
_geom_bond_site_symmetry_1
_geom_bond_site_symmetry_2
Co1 O1 1_555 1_555
O1 C1 1_555 1_555
O2 Co1 1_555 1_555
O3 Co1 1_555 1_555
O4 Co1 1_555 1_555
N2 C22 1_555 1_555
C1 O2 1_555 1_555
C2 C1 1_555 1_555
C3 C2 1_555 1_555
C7 C2 1_555 1_555
H4 C7 1_555 1_555
C13 O3 1_555 1_555
C14 C13 1_555 1_555
C15 C14 1_555 1_555
H9 C15 1_555 1_555
C16 C15 1_555 1_555
H10 C16 1_555 1_555
C17 C16 1_555 1_555
C18 C17 1_555 1_555
H11 C18 1_555 1_555
C19 C14 1_555 1_555
H12 C19 1_555 1_555
C20 C17 1_555 1_555
C21 C20 1_555 1_555
H13 C21 1_555 1_555
C22 C21 1_555 1_555
H14 C22 1_555 1_555
C23 N2 1_555 1_555
H15 C23 1_555 1_555
C24 C20 1_555 1_555
H16 C24 1_555 1_555
Co2 N2 1_555 1_555
N3 Co1 1_555 1_555
N4 Co1 1_555 1_555
O4 C13 1_555 1_555
C18 C19 1_555 1_555
C23 C24 1_555 1_555
N1 C10 1_555 1_555
C9 C8 1_555 1_555
H5 C9 1_555 1_555
C10 C9 1_555 1_555
H6 C10 1_555 1_555
C11 N1 1_555 1_555
H7 C11 1_555 1_555
C12 C8 1_555 1_555
Co2 N1 1_555 1_555
C11 C12 1_555 1_555
N4 C22_2 1_555 1_555
C21_2 C20_2 1_555 1_555
H13_2 C21_2 1_555 1_555
C22_2 C21_2 1_555 1_555
H14_2 C22_2 1_555 1_555
C23_2 N4 1_555 1_555
H15_2 C23_2 1_555 1_555
C24_2 C20_2 1_555 1_555
H16_2 C24_2 1_555 1_555
C23_2 C24_2 1_555 1_555
Co2 O1_2 1_555 1_555
O1_2 C1_2 1_555 1_555
O2_2 Co2 1_555 1_555
O3_2 Co2 1_555 1_555
O4_2 Co2 1_555 1_555
C1_2 O2_2 1_555 1_555
C2_2 C1_2 1_555 1_555
C3_2 C2_2 1_555 1_555
C6 C5 1_555 1_555
H3 C6 1_555 1_555
C7_2 C2_2 1_555 1_555
H4_2 C7_2 1_555 1_555
C13_2 O3_2 1_555 1_555
C14_2 C13_2 1_555 1_555
C15_2 C14_2 1_555 1_555
H9_2 C15_2 1_555 1_555
C16_2 C15_2 1_555 1_555
C17_2 C16_2 1_555 1_555
C18_2 C17_2 1_555 1_555
H11_2 C18_2 1_555 1_555
C19_2 C14_2 1_555 1_555
H12_2 C19_2 1_555 1_555
O4_2 C13_2 1_555 1_555
C6 C7_2 1_555 1_555
C18_2 C19_2 1_555 1_555
N3 C10_2 1_555 1_555
H2 C4 1_555 1_555
C9_2 C8_2 1_555 1_555
H5_2 C9_2 1_555 1_555
C10_2 C9_2 1_555 1_555
H6_2 C10_2 1_555 1_555
C11_2 N3 1_555 1_555
H7_2 C11_2 1_555 1_555
C12_2 C8_2 1_555 1_555
C11_2 C12_2 1_555 1_555
H2_2 C4_2 1_555 1_555
C6_2 C5_2 1_555 1_555
H3_2 C6_2 1_555 1_555
N1_2 C10_3 1_555 1_555
C9_3 C8_3 1_555 1_555
H5_3 C9_3 1_555 1_555
C10_3 C9_3 1_555 1_555
H6_3 C10_3 1_555 1_555
C11_3 N1_2 1_555 1_555
H7_3 C11_3 1_555 1_555
C12_3 C8_3 1_555 1_555
Co3 N1_2 1_555 1_555
C11_3 C12_3 1_555 1_555
Co1_2 O1_3 1_555 1_555
O1_3 C1_3 1_555 1_555
O2_3 Co1_2 1_555 1_555
O3_3 Co1_2 1_555 1_555
O4_3 Co1_2 1_555 1_555
N2_2 C22_3 1_555 1_555
C1_3 O2_3 1_555 1_555
C2_3 C1_3 1_555 1_555
C3_3 C2_3 1_555 1_555
C7_3 C2_3 1_555 1_555
H4_3 C7_3 1_555 1_555
C13_3 O3_3 1_555 1_555
C14_3 C13_3 1_555 1_555
C15_3 C14_3 1_555 1_555
H9_3 C15_3 1_555 1_555
C16_3 C15_3 1_555 1_555
H10_3 C16_3 1_555 1_555
C17_3 C16_3 1_555 1_555
C18_3 C17_3 1_555 1_555
H11_3 C18_3 1_555 1_555
C19_3 C14_3 1_555 1_555
H12_3 C19_3 1_555 1_555
C20_3 C17_3 1_555 1_555
C21_3 C20_3 1_555 1_555
H13_3 C21_3 1_555 1_555
C22_3 C21_3 1_555 1_555
H14_3 C22_3 1_555 1_555
C23_3 N2_2 1_555 1_555
H15_3 C23_3 1_555 1_555
C24_3 C20_3 1_555 1_555
H16_3 C24_3 1_555 1_555
Co3 N2_2 1_555 1_555
N3_2 Co1_2 1_555 1_555
N4_2 Co1_2 1_555 1_555
O4_3 C13_3 1_555 1_555
C18_3 C19_3 1_555 1_555
C23_3 C24_3 1_555 1_555
N3_2 C10_4 1_555 1_555
H2_3 C4_3 1_555 1_555
C9_4 C8_4 1_555 1_555
H5_4 C9_4 1_555 1_555
C10_4 C9_4 1_555 1_555
H6_4 C10_4 1_555 1_555
C11_4 N3_2 1_555 1_555
H7_4 C11_4 1_555 1_555
C12_4 C8_4 1_555 1_555
C11_4 C12_4 1_555 1_555
Co3 O1_4 1_555 1_555
O1_4 C1_4 1_555 1_555
O2_4 Co3 1_555 1_555
O3_4 Co3 1_555 1_555
O4_4 Co3 1_555 1_555
C1_4 O2_4 1_555 1_555
C2_4 C1_4 1_555 1_555
C3_4 C2_4 1_555 1_555
C6_3 C5_3 1_555 1_555
H3_3 C6_3 1_555 1_555
C7_4 C2_4 1_555 1_555
H4_4 C7_4 1_555 1_555
C13_4 O3_4 1_555 1_555
C14_4 C13_4 1_555 1_555
C15_4 C14_4 1_555 1_555
H9_4 C15_4 1_555 1_555
C16_4 C15_4 1_555 1_555
C17_4 C16_4 1_555 1_555
C18_4 C17_4 1_555 1_555
H11_4 C18_4 1_555 1_555
C19_4 C14_4 1_555 1_555
H12_4 C19_4 1_555 1_555
O4_4 C13_4 1_555 1_555
C6_3 C7_4 1_555 1_555
C18_4 C19_4 1_555 1_555
N4_2 C22_4 1_555 1_555
C21_4 C20_4 1_555 1_555
H13_4 C21_4 1_555 1_555
C22_4 C21_4 1_555 1_555
H14_4 C22_4 1_555 1_555
C23_4 N4_2 1_555 1_555
H15_4 C23_4 1_555 1_555
C24_4 C20_4 1_555 1_555
H16_4 C24_4 1_555 1_555
C23_4 C24_4 1_555 1_555
N2_3 C22_5 1_555 1_555
C21_5 C20_5 1_555 1_555
H13_5 C21_5 1_555 1_555
C22_5 C21_5 1_555 1_555
H14_5 C22_5 1_555 1_555
C23_5 N2_3 1_555 1_555
H15_5 C23_5 1_555 1_555
C24_5 C20_5 1_555 1_555
H16_5 C24_5 1_555 1_555
Co2_2 N2_3 1_555 1_555
C23_5 C24_5 1_555 1_555
Co1_3 O1_5 1_555 1_555
O1_5 C1_5 1_555 1_555
O2_5 Co1_3 1_555 1_555
O3_5 Co1_3 1_555 1_555
O4_5 Co1_3 1_555 1_555
C1_5 O2_5 1_555 1_555
C2_5 C1_5 1_555 1_555
C3_5 C2_5 1_555 1_555
C6_4 C5_4 1_555 1_555
H3_4 C6_4 1_555 1_555
C7_5 C2_5 1_555 1_555
H4_5 C7_5 1_555 1_555
C13_5 O3_5 1_555 1_555
C14_5 C13_5 1_555 1_555
C15_5 C14_5 1_555 1_555
H9_5 C15_5 1_555 1_555
C16_5 C15_5 1_555 1_555
C17_5 C16_5 1_555 1_555
C18_5 C17_5 1_555 1_555
H11_5 C18_5 1_555 1_555
C19_5 C14_5 1_555 1_555
H12_5 C19_5 1_555 1_555
N3_3 Co1_3 1_555 1_555
N4_3 Co1_3 1_555 1_555
O4_5 C13_5 1_555 1_555
C6_4 C7_5 1_555 1_555
C18_5 C19_5 1_555 1_555
N1_3 C10_5 1_555 1_555
H2_4 C4_4 1_555 1_555
C9_5 C8_5 1_555 1_555
H5_5 C9_5 1_555 1_555
C10_5 C9_5 1_555 1_555
H6_5 C10_5 1_555 1_555
C11_5 N1_3 1_555 1_555
H7_5 C11_5 1_555 1_555
C12_5 C8_5 1_555 1_555
Co2_2 N1_3 1_555 1_555
C11_5 C12_5 1_555 1_555
Co2_2 O1_6 1_555 1_555
O1_6 C1_6 1_555 1_555
O2_6 Co2_2 1_555 1_555
O3_6 Co2_2 1_555 1_555
O4_6 Co2_2 1_555 1_555
N4_3 C22_6 1_555 1_555
C1_6 O2_6 1_555 1_555
C2_6 C1_6 1_555 1_555
C3_6 C2_6 1_555 1_555
C7_6 C2_6 1_555 1_555
H4_6 C7_6 1_555 1_555
C13_6 O3_6 1_555 1_555
C14_6 C13_6 1_555 1_555
C15_6 C14_6 1_555 1_555
H9_6 C15_6 1_555 1_555
C16_6 C15_6 1_555 1_555
H10_6 C16_6 1_555 1_555
C17_6 C16_6 1_555 1_555
C18_6 C17_6 1_555 1_555
H11_6 C18_6 1_555 1_555
C19_6 C14_6 1_555 1_555
H12_6 C19_6 1_555 1_555
C20_6 C17_6 1_555 1_555
C21_6 C20_6 1_555 1_555
H13_6 C21_6 1_555 1_555
C22_6 C21_6 1_555 1_555
H14_6 C22_6 1_555 1_555
C23_6 N4_3 1_555 1_555
H15_6 C23_6 1_555 1_555
C24_6 C20_6 1_555 1_555
H16_6 C24_6 1_555 1_555
O4_6 C13_6 1_555 1_555
C18_6 C19_6 1_555 1_555
C23_6 C24_6 1_555 1_555
N3_3 C10_6 1_555 1_555
C9_6 C8_6 1_555 1_555
H5_6 C9_6 1_555 1_555
C10_6 C9_6 1_555 1_555
H6_6 C10_6 1_555 1_555
C11_6 N3_3 1_555 1_555
H7_6 C11_6 1_555 1_555
C12_6 C8_6 1_555 1_555
C11_6 C12_6 1_555 1_555
N1_4 C10_7 1_555 1_555
H2_5 C4_5 1_555 1_555
C9_7 C8_7 1_555 1_555
H5_7 C9_7 1_555 1_555
C10_7 C9_7 1_555 1_555
H6_7 C10_7 1_555 1_555
C11_7 N1_4 1_555 1_555
H7_7 C11_7 1_555 1_555
C12_7 C8_7 1_555 1_555
Co3_2 N1_4 1_555 1_555
C11_7 C12_7 1_555 1_555
Co1_4 O1_7 1_555 1_555
O1_7 C1_7 1_555 1_555
O2_7 Co1_4 1_555 1_555
O3_7 Co1_4 1_555 1_555
O4_7 Co1_4 1_555 1_555
C1_7 O2_7 1_555 1_555
C2_7 C1_7 1_555 1_555
C3_7 C2_7 1_555 1_555
C6_5 C5_5 1_555 1_555
H3_5 C6_5 1_555 1_555
C7_7 C2_7 1_555 1_555
H4_7 C7_7 1_555 1_555
C13_7 O3_7 1_555 1_555
C14_7 C13_7 1_555 1_555
C15_7 C14_7 1_555 1_555
H9_7 C15_7 1_555 1_555
C16_7 C15_7 1_555 1_555
C17_7 C16_7 1_555 1_555
C18_7 C17_7 1_555 1_555
H11_7 C18_7 1_555 1_555
C19_7 C14_7 1_555 1_555
H12_7 C19_7 1_555 1_555
N3_4 Co1_4 1_555 1_555
N4_4 Co1_4 1_555 1_555
O4_7 C13_7 1_555 1_555
C6_5 C7_7 1_555 1_555
C18_7 C19_7 1_555 1_555
N2_4 C22_7 1_555 1_555
C21_7 C20_7 1_555 1_555
H13_7 C21_7 1_555 1_555
C22_7 C21_7 1_555 1_555
H14_7 C22_7 1_555 1_555
C23_7 N2_4 1_555 1_555
H15_7 C23_7 1_555 1_555
C24_7 C20_7 1_555 1_555
H16_7 C24_7 1_555 1_555
Co3_2 N2_4 1_555 1_555
C23_7 C24_7 1_555 1_555
N3_4 C10_8 1_555 1_555
C9_8 C8_8 1_555 1_555
H5_8 C9_8 1_555 1_555
C10_8 C9_8 1_555 1_555
H6_8 C10_8 1_555 1_555
C11_8 N3_4 1_555 1_555
H7_8 C11_8 1_555 1_555
C12_8 C8_8 1_555 1_555
C11_8 C12_8 1_555 1_555
Co3_2 O1_8 1_555 1_555
O1_8 C1_8 1_555 1_555
O2_8 Co3_2 1_555 1_555
O3_8 Co3_2 1_555 1_555
O4_8 Co3_2 1_555 1_555
N4_4 C22_8 1_555 1_555
C1_8 O2_8 1_555 1_555
C2_8 C1_8 1_555 1_555
C3_8 C2_8 1_555 1_555
C7_8 C2_8 1_555 1_555
H4_8 C7_8 1_555 1_555
C13_8 O3_8 1_555 1_555
C14_8 C13_8 1_555 1_555
C15_8 C14_8 1_555 1_555
H9_8 C15_8 1_555 1_555
C16_8 C15_8 1_555 1_555
H10_8 C16_8 1_555 1_555
C17_8 C16_8 1_555 1_555
C18_8 C17_8 1_555 1_555
H11_8 C18_8 1_555 1_555
C19_8 C14_8 1_555 1_555
H12_8 C19_8 1_555 1_555
C20_8 C17_8 1_555 1_555
C21_8 C20_8 1_555 1_555
H13_8 C21_8 1_555 1_555
C22_8 C21_8 1_555 1_555
H14_8 C22_8 1_555 1_555
C23_8 N4_4 1_555 1_555
H15_8 C23_8 1_555 1_555
C24_8 C20_8 1_555 1_555
H16_8 C24_8 1_555 1_555
O4_8 C13_8 1_555 1_555
C18_8 C19_8 1_555 1_555
C23_8 C24_8 1_555 1_555
C6_6 C5_6 1_555 1_555
H3_6 C6_6 1_555 1_555
H2_6 C4_6 1_555 1_555
H2_7 C4_7 1_555 1_555
C6_7 C5_7 1_555 1_555
H3_7 C6_7 1_555 1_555
C6_8 C5_8 1_555 1_555
H3_8 C6_8 1_555 1_555
H2_8 C4_8 1_555 1_555

#END
