
###############################################################################
#
# This file contains modified crystal structure data generated from the
# MOF subset of the Cambridge Structural Database (CSD) v543 
# hosted by the Cambridge Crystallographic Data Centre (CCDC).
#
# This work is licensed under the Creative Commons
# Attribution-NonCommercial-ShareAlike 4.0 International License.
# To view a copy of this license, visit
# http://creativecommons.org/licenses/by-nc-sa/4.0/
# or send a letter to
# Creative Commons, PO Box 1866, Mountain View, CA 94042, USA.
#
# CIF created using the CSD Python API on 29 September 2022
# The structure has been converted into the P1 space group
# The structure has a 3D framework
# The original CSD entry DIDBAV is in the tetragonal crystal system
# The original CSD entry DIDBAV is in a Sohncke space group
# The framework has been calculated to contain at least 10.0% void space
# The void calculation uses a probe of radius 1.32A, grid spacing 0.4
#
###############################################################################

data_DIDBAV
_chemical_formula_moiety         '(C192 H128 Co8 N16 O32)n'
_symmetry_cell_setting           triclinic
_symmetry_space_group_name_H-M   'P 1'
_symmetry_Int_Tables_number      1
_space_group_name_Hall           'P 1'
loop_
_symmetry_equiv_pos_site_id
_symmetry_equiv_pos_as_xyz
1 x,y,z
_cell_length_a                   22.6904(17)
_cell_length_b                   22.6904(17)
_cell_length_c                   12.695(2)
_cell_angle_alpha                90
_cell_angle_beta                 90
_cell_angle_gamma                90
_cell_volume                     6536.07
loop_
_atom_site_label
_atom_site_type_symbol
_atom_site_fract_x
_atom_site_fract_y
_atom_site_fract_z
Co1 Co 0.23208(3) 0.24086(3) 0.25335(6)
C8 C 0.0212(2) 0.2184(4) 0.3227(6)
H6 H 0.0220 0.2247 0.2488
C9 C 0.0728(3) 0.2084(3) 0.3761(5)
C10 C 0.0721(3) 0.1992(3) 0.4816(5)
H7 H 0.1079 0.1924 0.5183
C11 C 0.0183(3) 0.1997(3) 0.5370(5)
H8 H 0.0175 0.1912 0.6103
C12 C 0.1327(3) 0.2145(3) 0.3198(5)
H11 H 0.2241 0.6075 0.0512
C20 C 0.2566(3) 0.3956(3) 0.0054(6)
C21 C 0.2247(3) 0.3924(2) 0.0981(5)
C22 C 0.1935(3) 0.4416(3) 0.1330(6)
H15 H 0.1706 0.4393 0.1955
C23 C 0.1958(3) 0.4946(3) 0.0755(5)
H16 H 0.1750 0.5282 0.1004
C24 C 0.2253(3) 0.3372(2) 0.1622(5)
O1 O 0.17862(16) 0.21404(18) 0.3749(3)
O2 O 0.13335(19) 0.2212(2) 0.2227(4)
O3 O 0.20619(19) 0.33654(16) 0.2532(4)
O4 O 0.25058(19) 0.29206(16) 0.1230(3)
N3 N 0.3080(2) 0.2559(2) 0.3399(4)
N4 N 0.2543(2) 0.1613(2) 0.1813(4)
C1 C 0.8165(3) 0.2671(2) 0.5668(5)
H1 H 0.7864 0.2916 0.5387
C2 C 0.8675(3) 0.2579(3) 0.5050(5)
H2 H 0.8725 0.2775 0.4394
C3 C 0.9098(3) 0.2195(3) 0.5430(5)
C4 C 0.9012(3) 0.1926(3) 0.6385(5)
H3 H 0.9294 0.1655 0.6656
C5 C 0.8503(3) 0.2059(3) 0.6949(5)
H4 H 0.8446 0.1873 0.7613
C6 C 0.9661(3) 0.2126(3) 0.4838(5)
C7 C 0.9685(3) 0.2193(4) 0.3750(5)
H5 H 0.9330 0.2246 0.3364
N1 N 0.8080(2) 0.2441(2) 0.6601(4)
Co3 Co 0.73208(3) 0.25914(3) 0.74665(6)
C13 C 0.7540(3) 0.3900(2) 0.7670(5)
H9 H 0.7494 0.3896 0.6927
C14 C 0.7601(3) 0.4433(2) 0.8169(6)
H10 H 0.7595 0.4787 0.7770
C15 C 0.7670(3) 0.4457(2) 0.9248(5)
C16 C 0.7697(3) 0.3931(3) 0.9772(5)
C17 C 0.7632(3) 0.3398(3) 0.9218(5)
H12 H 0.7653 0.3036 0.9593
C18 C 0.7724(3) 0.5017(3) 0.9844(5)
C19 C 0.7415(4) 0.5520(2) 0.9501(6)
H13 H 0.7189 0.5498 0.8873
H14 H 0.7228 0.6380 0.9800
N2 N 0.7543(2) 0.3387(2) 0.8187(4)
C13_2 C 0.2540(3) 0.1100(2) 0.2330(5)
H9_2 H 0.2494 0.1104 0.3073
C14_2 C 0.2601(3) 0.0567(2) 0.1831(6)
H10_2 H 0.2595 0.0213 0.2230
C15_2 C 0.2670(3) 0.0543(2) 0.0752(5)
C16_2 C 0.2697(3) 0.1069(3) 0.0228(5)
C17_2 C 0.2632(3) 0.1602(3) 0.0782(5)
H12_2 H 0.2653 0.1964 0.0407
C1_2 C 0.3165(3) 0.2329(2) 0.4332(5)
H1_2 H 0.2864 0.2084 0.4613
C2_2 C 0.3675(3) 0.2421(3) 0.4950(5)
H2_2 H 0.3725 0.2225 0.5606
C3_2 C 0.4098(3) 0.2805(3) 0.4570(5)
C4_2 C 0.4012(3) 0.3074(3) 0.3615(5)
H3_2 H 0.4294 0.3345 0.3344
C5_2 C 0.3503(3) 0.2941(3) 0.3051(5)
H4_2 H 0.3446 0.3127 0.2387
C6_2 C 0.4661(3) 0.2874(3) 0.5162(5)
C7_2 C 0.4685(3) 0.2807(4) 0.6250(5)
H5_2 H 0.4330 0.2754 0.6636
C8_2 C 0.5212(2) 0.2816(4) 0.6773(6)
H6_2 H 0.5220 0.2753 0.7512
C9_2 C 0.5728(3) 0.2916(3) 0.6239(5)
C10_2 C 0.5721(3) 0.3008(3) 0.5184(5)
H7_2 H 0.6079 0.3076 0.4817
C11_2 C 0.5183(3) 0.3003(3) 0.4630(5)
H8_2 H 0.5175 0.3088 0.3897
C12_2 C 0.6327(3) 0.2855(3) 0.6802(5)
C20_2 C 0.7566(3) 0.1044(3) 0.9946(6)
C21_2 C 0.7247(3) 0.1076(2) 0.9019(5)
C22_2 C 0.6935(3) 0.0584(3) 0.8670(6)
H15_2 H 0.6706 0.0607 0.8045
C23_2 C 0.6958(3) 0.0054(3) 0.9245(5)
C24_2 C 0.7253(3) 0.1628(2) 0.8378(5)
O1_2 O 0.67862(16) 0.28596(18) 0.6251(3)
O2_2 O 0.63335(19) 0.2788(2) 0.7773(4)
O3_2 O 0.70619(19) 0.16346(16) 0.7468(4)
O4_2 O 0.75058(19) 0.20794(16) 0.8770(3)
C13_3 C 0.2460(3) 0.6100(2) 0.7670(5)
H9_3 H 0.2506 0.6104 0.6927
C14_3 C 0.2399(3) 0.5567(2) 0.8169(6)
H10_3 H 0.2405 0.5213 0.7770
C15_3 C 0.2330(3) 0.5543(2) 0.9248(5)
C16_3 C 0.2303(3) 0.6069(3) 0.9772(5)
C17_3 C 0.2368(3) 0.6602(3) 0.9218(5)
H12_3 H 0.2347 0.6964 0.9593
C18_2 C 0.2276(3) 0.4983(3) 0.9844(5)
C19_2 C 0.2585(4) 0.4480(2) 0.9501(6)
H13_2 H 0.2811 0.4502 0.8873
H14_2 H 0.2772 0.3620 0.9800
N2_2 N 0.2457(2) 0.6613(2) 0.8187(4)
Co2 Co 0.26792(3) 0.74086(3) 0.74665(6)
C1_3 C 0.1835(3) 0.7329(2) 0.5668(5)
H1_3 H 0.2136 0.7084 0.5387
C2_3 C 0.1325(3) 0.7421(3) 0.5050(5)
H2_3 H 0.1275 0.7225 0.4394
C3_3 C 0.0902(3) 0.7805(3) 0.5430(5)
C4_3 C 0.0988(3) 0.8074(3) 0.6385(5)
H3_3 H 0.0706 0.8345 0.6656
C5_3 C 0.1497(3) 0.7941(3) 0.6949(5)
H4_3 H 0.1554 0.8127 0.7613
C6_3 C 0.0339(3) 0.7874(3) 0.4838(5)
C7_3 C 0.0315(3) 0.7807(4) 0.3750(5)
H5_3 H 0.0670 0.7754 0.3364
N1_2 N 0.1920(2) 0.7559(2) 0.6601(4)
Co1_2 Co 0.76792(3) 0.75914(3) 0.25335(6)
C8_3 C 0.9788(2) 0.7816(4) 0.3227(6)
H6_3 H 0.9780 0.7753 0.2488
C9_3 C 0.9272(3) 0.7916(3) 0.3761(5)
C10_3 C 0.9279(3) 0.8008(3) 0.4816(5)
H7_3 H 0.8921 0.8076 0.5183
C11_3 C 0.9817(3) 0.8003(3) 0.5370(5)
H8_3 H 0.9825 0.8088 0.6103
C12_3 C 0.8673(3) 0.7855(3) 0.3198(5)
H11_2 H 0.7759 0.3925 0.0512
C20_3 C 0.7434(3) 0.6044(3) 0.0054(6)
C21_3 C 0.7753(3) 0.6076(2) 0.0981(5)
C22_3 C 0.8065(3) 0.5584(3) 0.1330(6)
H15_3 H 0.8294 0.5607 0.1955
C23_3 C 0.8042(3) 0.5054(3) 0.0755(5)
H16_2 H 0.8250 0.4718 0.1004
C24_3 C 0.7747(3) 0.6628(2) 0.1622(5)
O1_3 O 0.82138(16) 0.78596(18) 0.3749(3)
O2_3 O 0.86665(19) 0.7788(2) 0.2227(4)
O3_3 O 0.79381(19) 0.66346(16) 0.2532(4)
O4_3 O 0.74942(19) 0.70794(16) 0.1230(3)
N3_2 N 0.6920(2) 0.7441(2) 0.3399(4)
N4_2 N 0.7457(2) 0.8387(2) 0.1813(4)
C1_4 C 0.6835(3) 0.7671(2) 0.4332(5)
H1_4 H 0.7136 0.7916 0.4613
C2_4 C 0.6325(3) 0.7579(3) 0.4950(5)
H2_4 H 0.6275 0.7775 0.5606
C3_4 C 0.5902(3) 0.7195(3) 0.4570(5)
C4_4 C 0.5988(3) 0.6926(3) 0.3615(5)
H3_4 H 0.5706 0.6655 0.3344
C5_4 C 0.6497(3) 0.7059(3) 0.3051(5)
H4_4 H 0.6554 0.6873 0.2387
C6_4 C 0.5339(3) 0.7126(3) 0.5162(5)
C7_4 C 0.5315(3) 0.7193(4) 0.6250(5)
H5_4 H 0.5670 0.7246 0.6636
C8_4 C 0.4788(2) 0.7184(4) 0.6773(6)
H6_4 H 0.4780 0.7247 0.7512
C9_4 C 0.4272(3) 0.7084(3) 0.6239(5)
C10_4 C 0.4279(3) 0.6992(3) 0.5184(5)
H7_4 H 0.3921 0.6924 0.4817
C11_4 C 0.4817(3) 0.6997(3) 0.4630(5)
H8_4 H 0.4825 0.6912 0.3897
C12_4 C 0.3673(3) 0.7145(3) 0.6802(5)
C20_4 C 0.2434(3) 0.8956(3) 0.9946(6)
C21_4 C 0.2753(3) 0.8924(2) 0.9019(5)
C22_4 C 0.3065(3) 0.9416(3) 0.8670(6)
H15_4 H 0.3294 0.9393 0.8045
C23_4 C 0.3042(3) 0.9946(3) 0.9245(5)
C24_4 C 0.2747(3) 0.8372(2) 0.8378(5)
O1_4 O 0.32138(16) 0.71404(18) 0.6251(3)
O2_4 O 0.36665(19) 0.7212(2) 0.7773(4)
O3_4 O 0.29381(19) 0.83654(16) 0.7468(4)
O4_4 O 0.24942(19) 0.79206(16) 0.8770(3)
C13_4 C 0.7460(3) 0.8900(2) 0.2330(5)
H9_4 H 0.7506 0.8896 0.3073
C14_4 C 0.7399(3) 0.9433(2) 0.1831(6)
H10_4 H 0.7405 0.9787 0.2230
C15_4 C 0.7330(3) 0.9457(2) 0.0752(5)
C16_4 C 0.7303(3) 0.8931(3) 0.0228(5)
C17_4 C 0.7368(3) 0.8398(3) 0.0782(5)
H12_4 H 0.7347 0.8036 0.0407
Co1_3 Co 0.25914(3) 0.73208(3) 0.25335(6)
C1_5 C 0.2329(2) 0.3165(3) 0.5668(5)
H1_5 H 0.2084 0.2864 0.5387
C2_5 C 0.2421(3) 0.3675(3) 0.5050(5)
H2_5 H 0.2225 0.3725 0.4394
C3_5 C 0.2805(3) 0.4098(3) 0.5430(5)
C4_5 C 0.3074(3) 0.4012(3) 0.6385(5)
H3_5 H 0.3345 0.4294 0.6656
C5_5 C 0.2941(3) 0.3503(3) 0.6949(5)
H4_5 H 0.3127 0.3446 0.7613
C6_5 C 0.2874(3) 0.4661(3) 0.4838(5)
C7_5 C 0.2807(4) 0.4685(3) 0.3750(5)
H5_5 H 0.2754 0.4330 0.3364
C8_5 C 0.2816(4) 0.5212(2) 0.3227(6)
H6_5 H 0.2753 0.5220 0.2488
C9_5 C 0.2916(3) 0.5728(3) 0.3761(5)
C10_5 C 0.3008(3) 0.5721(3) 0.4816(5)
H7_5 H 0.3076 0.6079 0.5183
C11_5 C 0.3003(3) 0.5183(3) 0.5370(5)
H8_5 H 0.3088 0.5175 0.6103
C12_5 C 0.2855(3) 0.6327(3) 0.3198(5)
C20_5 C 0.1044(3) 0.7566(3) 0.0054(6)
C21_5 C 0.1076(2) 0.7247(3) 0.0981(5)
C22_5 C 0.0584(3) 0.6935(3) 0.1330(6)
H15_5 H 0.0607 0.6706 0.1955
C23_5 C 0.0054(3) 0.6958(3) 0.0755(5)
C24_5 C 0.1628(2) 0.7253(3) 0.1622(5)
N1_3 N 0.2559(2) 0.3080(2) 0.6601(4)
O1_5 O 0.28596(18) 0.67862(16) 0.3749(3)
O2_5 O 0.2788(2) 0.63335(19) 0.2227(4)
O3_5 O 0.16346(16) 0.70619(19) 0.2532(4)
O4_5 O 0.20794(16) 0.75058(19) 0.1230(3)
Co3_2 Co 0.24086(3) 0.23208(3) 0.74665(6)
N3_3 N 0.2441(2) 0.8080(2) 0.3399(4)
N4_3 N 0.3387(2) 0.7543(2) 0.1813(4)
C13_5 C 0.1100(2) 0.2540(3) 0.7670(5)
H9_5 H 0.1104 0.2494 0.6927
C14_5 C 0.0567(2) 0.2601(3) 0.8169(6)
H10_5 H 0.0213 0.2595 0.7770
C15_5 C 0.0543(2) 0.2670(3) 0.9248(5)
C16_5 C 0.1069(3) 0.2697(3) 0.9772(5)
C17_5 C 0.1602(3) 0.2632(3) 0.9218(5)
H12_5 H 0.1964 0.2653 0.9593
N2_3 N 0.1613(2) 0.2543(2) 0.8187(4)
C8_6 C 0.2184(4) 0.0212(2) 0.6773(6)
H6_6 H 0.2247 0.0220 0.7512
C9_6 C 0.2084(3) 0.0728(3) 0.6239(5)
C10_6 C 0.1992(3) 0.0721(3) 0.5184(5)
H7_6 H 0.1924 0.1079 0.4817
C11_6 C 0.1997(3) 0.0183(3) 0.4630(5)
H8_6 H 0.1912 0.0175 0.3897
C12_6 C 0.2145(3) 0.1327(3) 0.6802(5)
H11_3 H 0.6075 0.2241 0.9488
C20_6 C 0.3956(3) 0.2566(3) 0.9946(6)
C21_6 C 0.3924(2) 0.2247(3) 0.9019(5)
C22_6 C 0.4416(3) 0.1935(3) 0.8670(6)
H15_6 H 0.4393 0.1706 0.8045
C23_6 C 0.4946(3) 0.1958(3) 0.9245(5)
H16_3 H 0.5282 0.1750 0.8996
C24_6 C 0.3372(2) 0.2253(3) 0.8378(5)
O1_6 O 0.21404(18) 0.17862(16) 0.6251(3)
O2_6 O 0.2212(2) 0.13335(19) 0.7773(4)
O3_6 O 0.33654(16) 0.20619(19) 0.7468(4)
O4_6 O 0.29206(16) 0.25058(19) 0.8770(3)
C1_6 C 0.2671(2) 0.8165(3) 0.4332(5)
H1_6 H 0.2916 0.7864 0.4613
C2_6 C 0.2579(3) 0.8675(3) 0.4950(5)
H2_6 H 0.2775 0.8725 0.5606
C3_6 C 0.2195(3) 0.9098(3) 0.4570(5)
C4_6 C 0.1926(3) 0.9012(3) 0.3615(5)
H3_6 H 0.1655 0.9294 0.3344
C5_6 C 0.2059(3) 0.8503(3) 0.3051(5)
H4_6 H 0.1873 0.8446 0.2387
C6_6 C 0.2126(3) 0.9661(3) 0.5162(5)
C7_6 C 0.2193(4) 0.9685(3) 0.6250(5)
H5_6 H 0.2246 0.9330 0.6636
C13_6 C 0.3900(2) 0.7540(3) 0.2330(5)
H9_6 H 0.3896 0.7494 0.3073
C14_6 C 0.4433(2) 0.7601(3) 0.1831(6)
H10_6 H 0.4787 0.7595 0.2230
C15_6 C 0.4457(2) 0.7670(3) 0.0752(5)
C16_6 C 0.3931(3) 0.7697(3) 0.0228(5)
C17_6 C 0.3398(3) 0.7632(3) 0.0782(5)
H12_6 H 0.3036 0.7653 0.0407
C18_3 C 0.5017(3) 0.7724(3) 0.0156(5)
C19_3 C 0.5520(2) 0.7415(4) 0.0499(6)
H13_3 H 0.5498 0.7189 0.1127
H14_3 H 0.6380 0.7228 0.0200
C18_4 C 0.0017(3) 0.7276(3) 0.9844(5)
C19_4 C 0.0520(2) 0.7585(4) 0.9501(6)
H13_4 H 0.0498 0.7811 0.8873
H14_4 H 0.1380 0.7772 0.9800
H11_4 H 0.8925 0.7241 0.0512
H16_4 H 0.9718 0.6750 0.1004
C13_7 C 0.8900(2) 0.7460(3) 0.7670(5)
H9_7 H 0.8896 0.7506 0.6927
C14_7 C 0.9433(2) 0.7399(3) 0.8169(6)
H10_7 H 0.9787 0.7405 0.7770
C15_7 C 0.9457(2) 0.7330(3) 0.9248(5)
C16_7 C 0.8931(3) 0.7303(3) 0.9772(5)
C17_7 C 0.8398(3) 0.7368(3) 0.9218(5)
H12_7 H 0.8036 0.7347 0.9593
N2_4 N 0.8387(2) 0.7457(2) 0.8187(4)
Co2_2 Co 0.75914(3) 0.76792(3) 0.74665(6)
Co1_4 Co 0.74086(3) 0.26792(3) 0.25335(6)
C1_7 C 0.7671(2) 0.6835(3) 0.5668(5)
H1_7 H 0.7916 0.7136 0.5387
C2_7 C 0.7579(3) 0.6325(3) 0.5050(5)
H2_7 H 0.7775 0.6275 0.4394
C3_7 C 0.7195(3) 0.5902(3) 0.5430(5)
C4_7 C 0.6926(3) 0.5988(3) 0.6385(5)
H3_7 H 0.6655 0.5706 0.6656
C5_7 C 0.7059(3) 0.6497(3) 0.6949(5)
H4_7 H 0.6873 0.6554 0.7613
C6_7 C 0.7126(3) 0.5339(3) 0.4838(5)
C7_7 C 0.7193(4) 0.5315(3) 0.3750(5)
H5_7 H 0.7246 0.5670 0.3364
C8_7 C 0.7184(4) 0.4788(2) 0.3227(6)
H6_7 H 0.7247 0.4780 0.2488
C9_7 C 0.7084(3) 0.4272(3) 0.3761(5)
C10_7 C 0.6992(3) 0.4279(3) 0.4816(5)
H7_7 H 0.6924 0.3921 0.5183
C11_7 C 0.6997(3) 0.4817(3) 0.5370(5)
H8_7 H 0.6912 0.4825 0.6103
C12_7 C 0.7145(3) 0.3673(3) 0.3198(5)
C20_7 C 0.8956(3) 0.2434(3) 0.0054(6)
C21_7 C 0.8924(2) 0.2753(3) 0.0981(5)
C22_7 C 0.9416(3) 0.3065(3) 0.1330(6)
H15_7 H 0.9393 0.3294 0.1955
C23_7 C 0.9946(3) 0.3042(3) 0.0755(5)
C24_7 C 0.8372(2) 0.2747(3) 0.1622(5)
N1_4 N 0.7441(2) 0.6920(2) 0.6601(4)
O1_7 O 0.71404(18) 0.32138(16) 0.3749(3)
O2_7 O 0.7212(2) 0.36665(19) 0.2227(4)
O3_7 O 0.83654(16) 0.29381(19) 0.2532(4)
O4_7 O 0.79206(16) 0.24942(19) 0.1230(3)
N3_4 N 0.7559(2) 0.1920(2) 0.3399(4)
N4_4 N 0.6613(2) 0.2457(2) 0.1813(4)
C13_8 C 0.6100(2) 0.2460(3) 0.2330(5)
H9_8 H 0.6104 0.2506 0.3073
C14_8 C 0.5567(2) 0.2399(3) 0.1831(6)
H10_8 H 0.5213 0.2405 0.2230
C15_8 C 0.5543(2) 0.2330(3) 0.0752(5)
C16_8 C 0.6069(3) 0.2303(3) 0.0228(5)
C17_8 C 0.6602(3) 0.2368(3) 0.0782(5)
H12_8 H 0.6964 0.2347 0.0407
C18_5 C 0.4983(3) 0.2276(3) 0.0156(5)
C19_5 C 0.4480(2) 0.2585(4) 0.0499(6)
H13_5 H 0.4502 0.2811 0.1127
H14_5 H 0.3620 0.2772 0.0200
C1_8 C 0.7329(2) 0.1835(3) 0.4332(5)
H1_8 H 0.7084 0.2136 0.4613
C2_8 C 0.7421(3) 0.1325(3) 0.4950(5)
H2_8 H 0.7225 0.1275 0.5606
C3_8 C 0.7805(3) 0.0902(3) 0.4570(5)
C4_8 C 0.8074(3) 0.0988(3) 0.3615(5)
H3_8 H 0.8345 0.0706 0.3344
C5_8 C 0.7941(3) 0.1497(3) 0.3051(5)
H4_8 H 0.8127 0.1554 0.2387
C6_8 C 0.7874(3) 0.0339(3) 0.5162(5)
C7_8 C 0.7807(4) 0.0315(3) 0.6250(5)
H5_8 H 0.7754 0.0670 0.6636
C8_8 C 0.7816(4) 0.9788(2) 0.6773(6)
H6_8 H 0.7753 0.9780 0.7512
C9_8 C 0.7916(3) 0.9272(3) 0.6239(5)
C10_8 C 0.8008(3) 0.9279(3) 0.5184(5)
H7_8 H 0.8076 0.8921 0.4817
C11_8 C 0.8003(3) 0.9817(3) 0.4630(5)
H8_8 H 0.8088 0.9825 0.3897
C12_8 C 0.7855(3) 0.8673(3) 0.6802(5)
H11_5 H 0.3925 0.7759 0.9488
C20_8 C 0.6044(3) 0.7434(3) 0.9946(6)
C21_8 C 0.6076(2) 0.7753(3) 0.9019(5)
C22_8 C 0.5584(3) 0.8065(3) 0.8670(6)
H15_8 H 0.5607 0.8294 0.8045
C23_8 C 0.5054(3) 0.8042(3) 0.9245(5)
H16_5 H 0.4718 0.8250 0.8996
C24_8 C 0.6628(2) 0.7747(3) 0.8378(5)
O1_8 O 0.78596(18) 0.82138(16) 0.6251(3)
O2_8 O 0.7788(2) 0.86665(19) 0.7773(4)
O3_8 O 0.66346(16) 0.79381(19) 0.7468(4)
O4_8 O 0.70794(16) 0.74942(19) 0.8770(3)
H11_6 H 0.1075 0.2759 0.0512
H16_6 H 0.0282 0.3250 0.1004
C18_6 C 0.9983(3) 0.2724(3) 0.9844(5)
C19_6 C 0.9480(2) 0.2415(4) 0.9501(6)
H13_6 H 0.9502 0.2189 0.8873
H14_6 H 0.8620 0.2228 0.9800
H11_7 H 0.2759 0.1075 0.9488
H16_7 H 0.3250 0.0282 0.8996
C18_7 C 0.2724(3) 0.9983(3) 0.0156(5)
C19_7 C 0.2415(4) 0.9480(2) 0.0499(6)
H13_7 H 0.2189 0.9502 0.1127
H14_7 H 0.2228 0.8620 0.0200
C18_8 C 0.7276(3) 0.0017(3) 0.0156(5)
C19_8 C 0.7585(4) 0.0520(2) 0.0499(6)
H13_8 H 0.7811 0.0498 0.1127
H14_8 H 0.7772 0.1380 0.0200
H11_8 H 0.7241 0.8925 0.9488
H16_8 H 0.6750 0.9718 0.8996
loop_
_geom_bond_atom_site_label_1
_geom_bond_atom_site_label_2
_geom_bond_site_symmetry_1
_geom_bond_site_symmetry_2
Co1 O1 1_555 1_555
H6 C8 1_555 1_555
C9 C8 1_555 1_555
C10 C9 1_555 1_555
H7 C10 1_555 1_555
H8 C11 1_555 1_555
C12 C9 1_555 1_555
C21 C20 1_555 1_555
C22 C21 1_555 1_555
H15 C22 1_555 1_555
H16 C23 1_555 1_555
C24 C21 1_555 1_555
O1 C12 1_555 1_555
O2 Co1 1_555 1_555
O3 Co1 1_555 1_555
O4 Co1 1_555 1_555
N3 Co1 1_555 1_555
N4 Co1 1_555 1_555
C10 C11 1_555 1_555
C12 O2 1_555 1_555
C22 C23 1_555 1_555
C24 O3 1_555 1_555
C24 O4 1_555 1_555
C1 H1 1_555 1_555
C2 C1 1_555 1_555
H2 C2 1_555 1_555
C3 C2 1_555 1_555
C4 C3 1_555 1_555
H3 C4 1_555 1_555
C5 C4 1_555 1_555
H4 C5 1_555 1_555
C6 C3 1_555 1_555
C7 C6 1_555 1_555
H5 C7 1_555 1_555
N1 C1 1_555 1_555
Co3 N1 1_555 1_555
C5 N1 1_555 1_555
C13 H9 1_555 1_555
C14 C13 1_555 1_555
H10 C14 1_555 1_555
C15 C14 1_555 1_555
C16 C15 1_555 1_555
C17 C16 1_555 1_555
H12 C17 1_555 1_555
C18 C15 1_555 1_555
C19 C18 1_555 1_555
H13 C19 1_555 1_555
N2 C13 1_555 1_555
Co3 N2 1_555 1_555
C17 N2 1_555 1_555
C13_2 H9_2 1_555 1_555
C14_2 C13_2 1_555 1_555
H10_2 C14_2 1_555 1_555
C15_2 C14_2 1_555 1_555
C16_2 C15_2 1_555 1_555
C17_2 C16_2 1_555 1_555
H12_2 C17_2 1_555 1_555
N4 C13_2 1_555 1_555
C17_2 N4 1_555 1_555
Co3 O1_2 1_555 1_555
C1_2 H1_2 1_555 1_555
C2_2 C1_2 1_555 1_555
H2_2 C2_2 1_555 1_555
C3_2 C2_2 1_555 1_555
C4_2 C3_2 1_555 1_555
H3_2 C4_2 1_555 1_555
C5_2 C4_2 1_555 1_555
H4_2 C5_2 1_555 1_555
C6_2 C3_2 1_555 1_555
C7_2 C6_2 1_555 1_555
H5_2 C7_2 1_555 1_555
C8_2 C7_2 1_555 1_555
H6_2 C8_2 1_555 1_555
C9_2 C8_2 1_555 1_555
C10_2 C9_2 1_555 1_555
H7_2 C10_2 1_555 1_555
C11_2 C6_2 1_555 1_555
H8_2 C11_2 1_555 1_555
C12_2 C9_2 1_555 1_555
C21_2 C20_2 1_555 1_555
C22_2 C21_2 1_555 1_555
H15_2 C22_2 1_555 1_555
C24_2 C21_2 1_555 1_555
N3 C1_2 1_555 1_555
O1_2 C12_2 1_555 1_555
O2_2 Co3 1_555 1_555
O3_2 Co3 1_555 1_555
O4_2 Co3 1_555 1_555
C5_2 N3 1_555 1_555
C10_2 C11_2 1_555 1_555
C12_2 O2_2 1_555 1_555
C22_2 C23_2 1_555 1_555
C24_2 O3_2 1_555 1_555
C24_2 O4_2 1_555 1_555
C13_3 H9_3 1_555 1_555
C14_3 C13_3 1_555 1_555
H10_3 C14_3 1_555 1_555
C15_3 C14_3 1_555 1_555
C16_3 C15_3 1_555 1_555
C17_3 C16_3 1_555 1_555
H12_3 C17_3 1_555 1_555
C18_2 C15_3 1_555 1_555
C19_2 C18_2 1_555 1_555
H13_2 C19_2 1_555 1_555
N2_2 C13_3 1_555 1_555
Co2 N2_2 1_555 1_555
C17_3 N2_2 1_555 1_555
C1_3 H1_3 1_555 1_555
C2_3 C1_3 1_555 1_555
H2_3 C2_3 1_555 1_555
C3_3 C2_3 1_555 1_555
C4_3 C3_3 1_555 1_555
H3_3 C4_3 1_555 1_555
C5_3 C4_3 1_555 1_555
H4_3 C5_3 1_555 1_555
C6_3 C3_3 1_555 1_555
C7_3 C6_3 1_555 1_555
H5_3 C7_3 1_555 1_555
N1_2 C1_3 1_555 1_555
Co2 N1_2 1_555 1_555
C5_3 N1_2 1_555 1_555
Co1_2 O1_3 1_555 1_555
H6_3 C8_3 1_555 1_555
C9_3 C8_3 1_555 1_555
C10_3 C9_3 1_555 1_555
H7_3 C10_3 1_555 1_555
H8_3 C11_3 1_555 1_555
C12_3 C9_3 1_555 1_555
C21_3 C20_3 1_555 1_555
C22_3 C21_3 1_555 1_555
H15_3 C22_3 1_555 1_555
H16_2 C23_3 1_555 1_555
C24_3 C21_3 1_555 1_555
O1_3 C12_3 1_555 1_555
O2_3 Co1_2 1_555 1_555
O3_3 Co1_2 1_555 1_555
O4_3 Co1_2 1_555 1_555
N3_2 Co1_2 1_555 1_555
N4_2 Co1_2 1_555 1_555
C10_3 C11_3 1_555 1_555
C12_3 O2_3 1_555 1_555
C22_3 C23_3 1_555 1_555
C24_3 O3_3 1_555 1_555
C24_3 O4_3 1_555 1_555
Co2 O1_4 1_555 1_555
C1_4 H1_4 1_555 1_555
C2_4 C1_4 1_555 1_555
H2_4 C2_4 1_555 1_555
C3_4 C2_4 1_555 1_555
C4_4 C3_4 1_555 1_555
H3_4 C4_4 1_555 1_555
C5_4 C4_4 1_555 1_555
H4_4 C5_4 1_555 1_555
C6_4 C3_4 1_555 1_555
C7_4 C6_4 1_555 1_555
H5_4 C7_4 1_555 1_555
C8_4 C7_4 1_555 1_555
H6_4 C8_4 1_555 1_555
C9_4 C8_4 1_555 1_555
C10_4 C9_4 1_555 1_555
H7_4 C10_4 1_555 1_555
C11_4 C6_4 1_555 1_555
H8_4 C11_4 1_555 1_555
C12_4 C9_4 1_555 1_555
C21_4 C20_4 1_555 1_555
C22_4 C21_4 1_555 1_555
H15_4 C22_4 1_555 1_555
C24_4 C21_4 1_555 1_555
N3_2 C1_4 1_555 1_555
O1_4 C12_4 1_555 1_555
O2_4 Co2 1_555 1_555
O3_4 Co2 1_555 1_555
O4_4 Co2 1_555 1_555
C5_4 N3_2 1_555 1_555
C10_4 C11_4 1_555 1_555
C12_4 O2_4 1_555 1_555
C22_4 C23_4 1_555 1_555
C24_4 O3_4 1_555 1_555
C24_4 O4_4 1_555 1_555
C13_4 H9_4 1_555 1_555
C14_4 C13_4 1_555 1_555
H10_4 C14_4 1_555 1_555
C15_4 C14_4 1_555 1_555
C16_4 C15_4 1_555 1_555
C17_4 C16_4 1_555 1_555
H12_4 C17_4 1_555 1_555
N4_2 C13_4 1_555 1_555
C17_4 N4_2 1_555 1_555
Co1_3 O1_5 1_555 1_555
C1_5 H1_5 1_555 1_555
C2_5 C1_5 1_555 1_555
H2_5 C2_5 1_555 1_555
C3_5 C2_5 1_555 1_555
C4_5 C3_5 1_555 1_555
H3_5 C4_5 1_555 1_555
C5_5 C4_5 1_555 1_555
H4_5 C5_5 1_555 1_555
C6_5 C3_5 1_555 1_555
C7_5 C6_5 1_555 1_555
H5_5 C7_5 1_555 1_555
C8_5 C7_5 1_555 1_555
H6_5 C8_5 1_555 1_555
C9_5 C8_5 1_555 1_555
C10_5 C9_5 1_555 1_555
H7_5 C10_5 1_555 1_555
C11_5 C6_5 1_555 1_555
H8_5 C11_5 1_555 1_555
C12_5 C9_5 1_555 1_555
C21_5 C20_5 1_555 1_555
C22_5 C21_5 1_555 1_555
H15_5 C22_5 1_555 1_555
C24_5 C21_5 1_555 1_555
N1_3 C1_5 1_555 1_555
O1_5 C12_5 1_555 1_555
O2_5 Co1_3 1_555 1_555
O3_5 Co1_3 1_555 1_555
O4_5 Co1_3 1_555 1_555
Co3_2 N1_3 1_555 1_555
N3_3 Co1_3 1_555 1_555
N4_3 Co1_3 1_555 1_555
C5_5 N1_3 1_555 1_555
C10_5 C11_5 1_555 1_555
C12_5 O2_5 1_555 1_555
C22_5 C23_5 1_555 1_555
C24_5 O3_5 1_555 1_555
C24_5 O4_5 1_555 1_555
C13_5 H9_5 1_555 1_555
C14_5 C13_5 1_555 1_555
H10_5 C14_5 1_555 1_555
C15_5 C14_5 1_555 1_555
C16_5 C15_5 1_555 1_555
C17_5 C16_5 1_555 1_555
H12_5 C17_5 1_555 1_555
N2_3 C13_5 1_555 1_555
Co3_2 N2_3 1_555 1_555
C17_5 N2_3 1_555 1_555
Co3_2 O1_6 1_555 1_555
H6_6 C8_6 1_555 1_555
C9_6 C8_6 1_555 1_555
C10_6 C9_6 1_555 1_555
H7_6 C10_6 1_555 1_555
H8_6 C11_6 1_555 1_555
C12_6 C9_6 1_555 1_555
C21_6 C20_6 1_555 1_555
C22_6 C21_6 1_555 1_555
H15_6 C22_6 1_555 1_555
H16_3 C23_6 1_555 1_555
C24_6 C21_6 1_555 1_555
O1_6 C12_6 1_555 1_555
O2_6 Co3_2 1_555 1_555
O3_6 Co3_2 1_555 1_555
O4_6 Co3_2 1_555 1_555
C10_6 C11_6 1_555 1_555
C12_6 O2_6 1_555 1_555
C22_6 C23_6 1_555 1_555
C24_6 O3_6 1_555 1_555
C24_6 O4_6 1_555 1_555
C1_6 H1_6 1_555 1_555
C2_6 C1_6 1_555 1_555
H2_6 C2_6 1_555 1_555
C3_6 C2_6 1_555 1_555
C4_6 C3_6 1_555 1_555
H3_6 C4_6 1_555 1_555
C5_6 C4_6 1_555 1_555
H4_6 C5_6 1_555 1_555
C6_6 C3_6 1_555 1_555
C7_6 C6_6 1_555 1_555
H5_6 C7_6 1_555 1_555
N3_3 C1_6 1_555 1_555
C5_6 N3_3 1_555 1_555
C13_6 H9_6 1_555 1_555
C14_6 C13_6 1_555 1_555
H10_6 C14_6 1_555 1_555
C15_6 C14_6 1_555 1_555
C16_6 C15_6 1_555 1_555
C17_6 C16_6 1_555 1_555
H12_6 C17_6 1_555 1_555
C18_3 C15_6 1_555 1_555
C19_3 C18_3 1_555 1_555
H13_3 C19_3 1_555 1_555
N4_3 C13_6 1_555 1_555
C17_6 N4_3 1_555 1_555
C19_4 C18_4 1_555 1_555
H13_4 C19_4 1_555 1_555
C13_7 H9_7 1_555 1_555
C14_7 C13_7 1_555 1_555
H10_7 C14_7 1_555 1_555
C15_7 C14_7 1_555 1_555
C16_7 C15_7 1_555 1_555
C17_7 C16_7 1_555 1_555
H12_7 C17_7 1_555 1_555
N2_4 C13_7 1_555 1_555
Co2_2 N2_4 1_555 1_555
C17_7 N2_4 1_555 1_555
Co1_4 O1_7 1_555 1_555
C1_7 H1_7 1_555 1_555
C2_7 C1_7 1_555 1_555
H2_7 C2_7 1_555 1_555
C3_7 C2_7 1_555 1_555
C4_7 C3_7 1_555 1_555
H3_7 C4_7 1_555 1_555
C5_7 C4_7 1_555 1_555
H4_7 C5_7 1_555 1_555
C6_7 C3_7 1_555 1_555
C7_7 C6_7 1_555 1_555
H5_7 C7_7 1_555 1_555
C8_7 C7_7 1_555 1_555
H6_7 C8_7 1_555 1_555
C9_7 C8_7 1_555 1_555
C10_7 C9_7 1_555 1_555
H7_7 C10_7 1_555 1_555
C11_7 C6_7 1_555 1_555
H8_7 C11_7 1_555 1_555
C12_7 C9_7 1_555 1_555
C21_7 C20_7 1_555 1_555
C22_7 C21_7 1_555 1_555
H15_7 C22_7 1_555 1_555
C24_7 C21_7 1_555 1_555
N1_4 C1_7 1_555 1_555
O1_7 C12_7 1_555 1_555
O2_7 Co1_4 1_555 1_555
O3_7 Co1_4 1_555 1_555
O4_7 Co1_4 1_555 1_555
Co2_2 N1_4 1_555 1_555
N3_4 Co1_4 1_555 1_555
N4_4 Co1_4 1_555 1_555
C5_7 N1_4 1_555 1_555
C10_7 C11_7 1_555 1_555
C12_7 O2_7 1_555 1_555
C22_7 C23_7 1_555 1_555
C24_7 O3_7 1_555 1_555
C24_7 O4_7 1_555 1_555
C13_8 H9_8 1_555 1_555
C14_8 C13_8 1_555 1_555
H10_8 C14_8 1_555 1_555
C15_8 C14_8 1_555 1_555
C16_8 C15_8 1_555 1_555
C17_8 C16_8 1_555 1_555
H12_8 C17_8 1_555 1_555
C18_5 C15_8 1_555 1_555
C19_5 C18_5 1_555 1_555
H13_5 C19_5 1_555 1_555
N4_4 C13_8 1_555 1_555
C17_8 N4_4 1_555 1_555
C1_8 H1_8 1_555 1_555
C2_8 C1_8 1_555 1_555
H2_8 C2_8 1_555 1_555
C3_8 C2_8 1_555 1_555
C4_8 C3_8 1_555 1_555
H3_8 C4_8 1_555 1_555
C5_8 C4_8 1_555 1_555
H4_8 C5_8 1_555 1_555
C6_8 C3_8 1_555 1_555
C7_8 C6_8 1_555 1_555
H5_8 C7_8 1_555 1_555
N3_4 C1_8 1_555 1_555
C5_8 N3_4 1_555 1_555
Co2_2 O1_8 1_555 1_555
H6_8 C8_8 1_555 1_555
C9_8 C8_8 1_555 1_555
C10_8 C9_8 1_555 1_555
H7_8 C10_8 1_555 1_555
H8_8 C11_8 1_555 1_555
C12_8 C9_8 1_555 1_555
C21_8 C20_8 1_555 1_555
C22_8 C21_8 1_555 1_555
H15_8 C22_8 1_555 1_555
H16_5 C23_8 1_555 1_555
C24_8 C21_8 1_555 1_555
O1_8 C12_8 1_555 1_555
O2_8 Co2_2 1_555 1_555
O3_8 Co2_2 1_555 1_555
O4_8 Co2_2 1_555 1_555
C10_8 C11_8 1_555 1_555
C12_8 O2_8 1_555 1_555
C22_8 C23_8 1_555 1_555
C24_8 O3_8 1_555 1_555
C24_8 O4_8 1_555 1_555
C19_6 C18_6 1_555 1_555
H13_6 C19_6 1_555 1_555
C19_7 C18_7 1_555 1_555
H13_7 C19_7 1_555 1_555
C19_8 C18_8 1_555 1_555
H13_8 C19_8 1_555 1_555

#END
