
###############################################################################
#
# This file contains modified crystal structure data generated from the
# MOF subset of the Cambridge Structural Database (CSD) v543 
# hosted by the Cambridge Crystallographic Data Centre (CCDC).
#
# This work is licensed under the Creative Commons
# Attribution-NonCommercial-ShareAlike 4.0 International License.
# To view a copy of this license, visit
# http://creativecommons.org/licenses/by-nc-sa/4.0/
# or send a letter to
# Creative Commons, PO Box 1866, Mountain View, CA 94042, USA.
#
# CIF created using the CSD Python API on 29 September 2022
# The structure has been converted into the P1 space group
# The structure has a 3D framework
# The original CSD entry DIDDOK is in the monoclinic crystal system
# The framework has been calculated to contain at least 10.0% void space
# The void calculation uses a probe of radius 1.32A, grid spacing 0.4
#
###############################################################################

data_DIDDOK
_chemical_formula_moiety         '(C160 H104 N8 O40 Zn8)n'
_symmetry_cell_setting           triclinic
_symmetry_space_group_name_H-M   'P 1'
_symmetry_Int_Tables_number      1
_space_group_name_Hall           'P 1'
loop_
_symmetry_equiv_pos_site_id
_symmetry_equiv_pos_as_xyz
1 x,y,z
_cell_length_a                   27.21(2)
_cell_length_b                   17.77(1)
_cell_length_c                   22.99(2)
_cell_angle_alpha                90
_cell_angle_beta                 110.29(1)
_cell_angle_gamma                90
_cell_volume                     10426.4
loop_
_atom_site_label
_atom_site_type_symbol
_atom_site_fract_x
_atom_site_fract_y
_atom_site_fract_z
Zn4 Zn 0.29519(3) 0.69862(4) 0.01272(4)
Zn1 Zn 0.20481(3) 0.19862(4) 0.48728(4)
O1 O 0.1858(2) 0.2909(3) 0.5287(2)
O2 O 0.2530(2) 0.3692(3) 0.5489(2)
O3 O 0.1061(2) 0.5486(4) 0.6620(3)
O4 O 0.1783(2) 0.7465(3) 0.9062(2)
O5 O 0.2459(2) 0.6673(3) 0.9276(2)
N1 N 0.1421(2) 0.1362(3) 0.4847(3)
C1 C 0.2084(3) 0.3513(4) 0.5497(3)
C2 C 0.1826(3) 0.4052(4) 0.5783(3)
C3 C 0.1342(3) 0.3877(5) 0.5860(4)
C4 C 0.1101(3) 0.4326(5) 0.6156(4)
C5 C 0.1325(4) 0.5007(5) 0.6376(4)
C6 C 0.1808(4) 0.5211(5) 0.6322(5)
C7 C 0.2054(3) 0.4719(5) 0.6021(4)
C8 C 0.1328(3) 0.5831(5) 0.7184(4)
C9 C 0.1107(3) 0.6458(5) 0.7311(4)
C10 C 0.1325(3) 0.6816(4) 0.7896(4)
C11 C 0.1768(3) 0.6526(4) 0.8313(3)
C12 C 0.1993(3) 0.5891(5) 0.8187(4)
C13 C 0.1761(3) 0.5534(5) 0.7615(4)
C14 C 0.2029(3) 0.6924(4) 0.8931(3)
C15 C 0.0962(4) 0.1419(6) 0.4419(5)
C16 C 0.0518(4) 0.1081(7) 0.4396(6)
C17 C 0.0534(4) 0.0567(6) 0.4836(5)
C18 C 0.1008(5) 0.0452(9) 0.5281(6)
C19 C 0.1455(4) 0.0815(6) 0.5261(5)
C20 C 0.0035(4) 0.0144(6) 0.4804(5)
H1 H 0.1177 0.3415 0.5693
H2 H 0.0784 0.4173 0.6208
H3 H 0.1968 0.5677 0.6486
H4 H 0.2379 0.4855 0.5985
H5 H 0.0802 0.6662 0.7008
H6 H 0.1165 0.7250 0.7993
H7 H 0.2304 0.5693 0.8484
H8 H 0.1907 0.5081 0.7528
H9 H 0.0940 0.1741 0.4080
H10 H 0.0196 0.1199 0.4077
H11 H 0.1036 0.0117 0.5613
H12 H 0.1789 0.0673 0.5544
Zn2 Zn 0.29519(3) 0.30138(4) 0.51272(4)
Zn3 Zn 0.20481(3) 0.80138(4) 0.98728(4)
O6 O 0.3142(2) 0.2091(3) 0.4713(2)
O7 O 0.2470(2) 0.1308(3) 0.4511(2)
O10 O 0.1783(2) 0.2535(3) 0.4062(2)
O11 O 0.3217(2) 0.2465(3) 0.5938(2)
O13 O 0.2541(2) 0.1673(3) 0.5724(2)
O14 O 0.2459(2) 0.3327(3) 0.4276(2)
N3 N 0.3579(2) 0.3638(3) 0.5153(3)
C21 C 0.2916(3) 0.1487(4) 0.4503(3)
C22 C 0.3174(3) 0.0948(4) 0.4217(3)
C23 C 0.3658(3) 0.1123(5) 0.4140(4)
C24 C 0.3899(3) 0.0674(5) 0.3844(4)
C27 C 0.2946(3) 0.0281(5) 0.3979(4)
H14 H 0.3823 0.1585 0.4307
H15 H 0.4216 0.0827 0.3792
H17 H 0.2621 0.0145 0.4015
O8 O 0.3939(2) 0.9514(4) 0.3380(3)
O9 O 0.3217(2) 0.7535(3) 0.0938(2)
O12 O 0.2541(2) 0.8327(3) 0.0724(2)
C25 C 0.3675(4) 0.9993(5) 0.3624(4)
C26 C 0.3192(4) 0.9789(5) 0.3678(5)
C28 C 0.3672(3) 0.9169(5) 0.2816(4)
C29 C 0.3893(3) 0.8542(5) 0.2689(4)
C30 C 0.3675(3) 0.8184(4) 0.2104(4)
C31 C 0.3232(3) 0.8474(4) 0.1687(3)
C32 C 0.3007(3) 0.9109(5) 0.1813(4)
C33 C 0.3239(3) 0.9466(5) 0.2385(4)
C34 C 0.2971(3) 0.8076(4) 0.1069(3)
H16 H 0.3032 0.9323 0.3514
H18 H 0.4198 0.8338 0.2992
H19 H 0.3835 0.7750 0.2007
H20 H 0.2696 0.9307 0.1516
H21 H 0.3093 0.9919 0.2472
H26 H 0.0239 0.9872 0.5588
H13 H 0.9761 0.0128 0.4412
Zn5 Zn 0.79519(3) 0.80138(4) 0.51272(4)
N2 N 0.8579(2) 0.8638(3) 0.5153(3)
C35 C 0.9038(4) 0.8581(6) 0.5581(5)
C36 C 0.9482(4) 0.8919(7) 0.5604(6)
C37 C 0.9466(4) 0.9433(6) 0.5164(5)
C38 C 0.8992(5) 0.9548(9) 0.4719(6)
C39 C 0.8545(4) 0.9185(6) 0.4739(5)
C40 C 0.9965(4) 0.9856(6) 0.5196(5)
H22 H 0.9060 0.8259 0.5920
H23 H 0.9804 0.8801 0.5923
H24 H 0.8964 0.9883 0.4387
H25 H 0.8211 0.9327 0.4456
Zn4_2 Zn 0.79519(3) 0.19862(4) 0.01272(4)
O3_2 O 0.6061(2) 0.0486(4) 0.6620(3)
O4_2 O 0.6783(2) 0.2465(3) 0.9062(2)
O5_2 O 0.7459(2) 0.1673(3) 0.9276(2)
C5_2 C 0.6325(4) 0.0007(5) 0.6376(4)
C6_2 C 0.6808(4) 0.0211(5) 0.6322(5)
C8_2 C 0.6328(3) 0.0831(5) 0.7184(4)
C9_2 C 0.6107(3) 0.1458(5) 0.7311(4)
C10_2 C 0.6325(3) 0.1816(4) 0.7896(4)
C11_2 C 0.6768(3) 0.1526(4) 0.8313(3)
C12_2 C 0.6993(3) 0.0891(5) 0.8187(4)
C13_2 C 0.6761(3) 0.0534(5) 0.7615(4)
C14_2 C 0.7029(3) 0.1924(4) 0.8931(3)
H3_2 H 0.6968 0.0677 0.6486
H5_2 H 0.5802 0.1662 0.7008
H6_2 H 0.6165 0.2250 0.7993
H7_2 H 0.7304 0.0693 0.8484
H8_2 H 0.6907 0.0081 0.7528
Zn3_2 Zn 0.70481(3) 0.30138(4) 0.98728(4)
Zn1_2 Zn 0.70481(3) 0.69862(4) 0.48728(4)
O1_2 O 0.6858(2) 0.7909(3) 0.5287(2)
O2_2 O 0.7530(2) 0.8692(3) 0.5489(2)
N1_2 N 0.6421(2) 0.6362(3) 0.4847(3)
C1_2 C 0.7084(3) 0.8513(4) 0.5497(3)
C2_2 C 0.6826(3) 0.9052(4) 0.5783(3)
C3_2 C 0.6342(3) 0.8877(5) 0.5860(4)
C4_2 C 0.6101(3) 0.9326(5) 0.6156(4)
C7_2 C 0.7054(3) 0.9719(5) 0.6021(4)
C15_2 C 0.5962(4) 0.6419(6) 0.4419(5)
C16_2 C 0.5518(4) 0.6081(7) 0.4396(6)
C17_2 C 0.5534(4) 0.5567(6) 0.4836(5)
C18_2 C 0.6008(5) 0.5452(9) 0.5281(6)
C19_2 C 0.6455(4) 0.5815(6) 0.5261(5)
C20_2 C 0.5035(4) 0.5144(6) 0.4804(5)
H1_2 H 0.6177 0.8415 0.5693
H2_2 H 0.5784 0.9173 0.6208
H4_2 H 0.7379 0.9855 0.5985
H9_2 H 0.5940 0.6741 0.4080
H10_2 H 0.5196 0.6199 0.4077
H11_2 H 0.6036 0.5117 0.5613
H12_2 H 0.6789 0.5673 0.5544
H13_2 H 0.4761 0.5128 0.4412
O6_2 O 0.8142(2) 0.7091(3) 0.4713(2)
O7_2 O 0.7470(2) 0.6308(3) 0.4511(2)
O8_2 O 0.8939(2) 0.4514(4) 0.3380(3)
O9_2 O 0.8217(2) 0.2535(3) 0.0938(2)
O10_2 O 0.6783(2) 0.7535(3) 0.4062(2)
O11_2 O 0.8217(2) 0.7465(3) 0.5938(2)
O12_2 O 0.7541(2) 0.3327(3) 0.0724(2)
O13_2 O 0.7541(2) 0.6673(3) 0.5724(2)
O14_2 O 0.7459(2) 0.8327(3) 0.4276(2)
C21_2 C 0.7916(3) 0.6487(4) 0.4503(3)
C22_2 C 0.8174(3) 0.5948(4) 0.4217(3)
C23_2 C 0.8658(3) 0.6123(5) 0.4140(4)
C24_2 C 0.8899(3) 0.5674(5) 0.3844(4)
C25_2 C 0.8675(4) 0.4993(5) 0.3624(4)
C26_2 C 0.8192(4) 0.4789(5) 0.3678(5)
C27_2 C 0.7946(3) 0.5281(5) 0.3979(4)
C28_2 C 0.8672(3) 0.4169(5) 0.2816(4)
C29_2 C 0.8893(3) 0.3542(5) 0.2689(4)
C30_2 C 0.8675(3) 0.3184(4) 0.2104(4)
C31_2 C 0.8232(3) 0.3474(4) 0.1687(3)
C32_2 C 0.8007(3) 0.4109(5) 0.1813(4)
C33_2 C 0.8239(3) 0.4466(5) 0.2385(4)
C34_2 C 0.7971(3) 0.3076(4) 0.1069(3)
C35_2 C 0.4038(4) 0.3581(6) 0.5581(5)
C36_2 C 0.4482(4) 0.3919(7) 0.5604(6)
C37_2 C 0.4466(4) 0.4433(6) 0.5164(5)
C38_2 C 0.3992(5) 0.4548(9) 0.4719(6)
C39_2 C 0.3545(4) 0.4185(6) 0.4739(5)
C40_2 C 0.4965(4) 0.4856(6) 0.5196(5)
H14_2 H 0.8823 0.6585 0.4307
H15_2 H 0.9216 0.5827 0.3792
H16_2 H 0.8032 0.4323 0.3514
H17_2 H 0.7621 0.5145 0.4015
H18_2 H 0.9198 0.3338 0.2992
H19_2 H 0.8835 0.2750 0.2007
H20_2 H 0.7696 0.4307 0.1516
H21_2 H 0.8093 0.4919 0.2472
H22_2 H 0.4060 0.3259 0.5920
H23_2 H 0.4804 0.3801 0.5923
H24_2 H 0.3964 0.4883 0.4387
H25_2 H 0.3211 0.4327 0.4456
H26_2 H 0.5239 0.4872 0.5588
C38_3 C 0.1008(5) 0.9548(9) 0.0281(6)
C39_3 C 0.1455(4) 0.9185(6) 0.0261(5)
H24_3 H 0.1036 0.9883 0.0613
H25_3 H 0.1789 0.9327 0.0544
N2_2 N 0.1421(2) 0.8638(3) 0.9847(3)
C35_3 C 0.0962(4) 0.8581(6) 0.9419(5)
C36_3 C 0.0518(4) 0.8919(7) 0.9396(6)
C37_3 C 0.0534(4) 0.9433(6) 0.9836(5)
C40_3 C 0.0035(4) 0.9856(6) 0.9804(5)
H22_3 H 0.0940 0.8259 0.9080
H23_3 H 0.0196 0.8801 0.9077
N1_3 N 0.8579(2) 0.1362(3) 0.0153(3)
C15_3 C 0.9038(4) 0.1419(6) 0.0581(5)
C16_3 C 0.9482(4) 0.1081(7) 0.0604(6)
C17_3 C 0.9466(4) 0.0567(6) 0.0164(5)
C20_3 C 0.9965(4) 0.0144(6) 0.0196(5)
H9_3 H 0.9060 0.1741 0.0920
H10_3 H 0.9804 0.1199 0.0923
O6_3 O 0.6858(2) 0.2091(3) 0.0287(2)
O7_3 O 0.7530(2) 0.1308(3) 0.0489(2)
C21_3 C 0.7084(3) 0.1487(4) 0.0497(3)
C22_3 C 0.6826(3) 0.0948(4) 0.0783(3)
C23_3 C 0.6342(3) 0.1123(5) 0.0860(4)
C24_3 C 0.6101(3) 0.0674(5) 0.1156(4)
C27_3 C 0.7054(3) 0.0281(5) 0.1021(4)
H14_3 H 0.6177 0.1585 0.0693
H15_3 H 0.5784 0.0827 0.1208
H17_3 H 0.7379 0.0145 0.0985
O1_3 O 0.8142(2) 0.2909(3) 0.9713(2)
O2_3 O 0.7470(2) 0.3692(3) 0.9511(2)
O3_3 O 0.8939(2) 0.5486(4) 0.8380(3)
C1_3 C 0.7916(3) 0.3513(4) 0.9503(3)
C2_3 C 0.8174(3) 0.4052(4) 0.9217(3)
C3_3 C 0.8658(3) 0.3877(5) 0.9140(4)
C4_3 C 0.8899(3) 0.4326(5) 0.8844(4)
C5_3 C 0.8675(4) 0.5007(5) 0.8624(4)
C6_3 C 0.8192(4) 0.5211(5) 0.8678(5)
C7_3 C 0.7946(3) 0.4719(5) 0.8979(4)
C8_3 C 0.8672(3) 0.5831(5) 0.7816(4)
C9_3 C 0.8893(3) 0.6458(5) 0.7689(4)
C10_3 C 0.8675(3) 0.6816(4) 0.7104(4)
C11_3 C 0.8232(3) 0.6526(4) 0.6687(3)
C12_3 C 0.8007(3) 0.5891(5) 0.6813(4)
C13_3 C 0.8239(3) 0.5534(5) 0.7385(4)
C14_3 C 0.7971(3) 0.6924(4) 0.6069(3)
C18_3 C 0.8992(5) 0.0452(9) 0.9719(6)
C19_3 C 0.8545(4) 0.0815(6) 0.9739(5)
H1_3 H 0.8823 0.3415 0.9307
H2_3 H 0.9216 0.4173 0.8792
H3_3 H 0.8032 0.5677 0.8514
H4_3 H 0.7621 0.4855 0.9015
H5_3 H 0.9198 0.6662 0.7992
H6_3 H 0.8835 0.7250 0.7007
H7_3 H 0.7696 0.5693 0.6516
H8_3 H 0.8093 0.5081 0.7472
H11_3 H 0.8964 0.0117 0.9387
H12_3 H 0.8211 0.0673 0.9456
N3_2 N 0.6421(2) 0.3638(3) 0.9847(3)
O8_3 O 0.6061(2) 0.9514(4) 0.1620(3)
C25_3 C 0.6325(4) 0.9993(5) 0.1376(4)
C26_3 C 0.6808(4) 0.9789(5) 0.1322(5)
C28_3 C 0.6328(3) 0.9169(5) 0.2184(4)
C29_3 C 0.6107(3) 0.8542(5) 0.2311(4)
C30_3 C 0.6325(3) 0.8184(4) 0.2896(4)
C31_3 C 0.6768(3) 0.8474(4) 0.3313(3)
C32_3 C 0.6993(3) 0.9109(5) 0.3187(4)
C33_3 C 0.6761(3) 0.9466(5) 0.2615(4)
C34_3 C 0.7029(3) 0.8076(4) 0.3931(3)
H16_3 H 0.6968 0.9323 0.1486
H18_3 H 0.5802 0.8338 0.2008
H19_3 H 0.6165 0.7750 0.2993
H20_3 H 0.7304 0.9307 0.3484
H21_3 H 0.6907 0.9919 0.2528
O3_4 O 0.3939(2) 0.0486(4) 0.8380(3)
C5_4 C 0.3675(4) 0.0007(5) 0.8624(4)
C6_4 C 0.3192(4) 0.0211(5) 0.8678(5)
C8_4 C 0.3672(3) 0.0831(5) 0.7816(4)
C9_4 C 0.3893(3) 0.1458(5) 0.7689(4)
C10_4 C 0.3675(3) 0.1816(4) 0.7104(4)
C11_4 C 0.3232(3) 0.1526(4) 0.6687(3)
C12_4 C 0.3007(3) 0.0891(5) 0.6813(4)
C13_4 C 0.3239(3) 0.0534(5) 0.7385(4)
C14_4 C 0.2971(3) 0.1924(4) 0.6069(3)
H3_4 H 0.3032 0.0677 0.8514
H5_4 H 0.4198 0.1662 0.7992
H6_4 H 0.3835 0.2250 0.7007
H7_4 H 0.2696 0.0693 0.6516
H8_4 H 0.3093 0.0081 0.7472
N1_4 N 0.3579(2) 0.6362(3) 0.0153(3)
C15_4 C 0.4038(4) 0.6419(6) 0.0581(5)
C16_4 C 0.4482(4) 0.6081(7) 0.0604(6)
C17_4 C 0.4466(4) 0.5567(6) 0.0164(5)
C20_4 C 0.4965(4) 0.5144(6) 0.0196(5)
H9_4 H 0.4060 0.6741 0.0920
H10_4 H 0.4804 0.6199 0.0923
H13_3 H 0.5239 0.5128 0.0588
O6_4 O 0.1858(2) 0.7091(3) 0.0287(2)
O7_4 O 0.2530(2) 0.6308(3) 0.0489(2)
O8_4 O 0.1061(2) 0.4514(4) 0.1620(3)
C21_4 C 0.2084(3) 0.6487(4) 0.0497(3)
C22_4 C 0.1826(3) 0.5948(4) 0.0783(3)
C23_4 C 0.1342(3) 0.6123(5) 0.0860(4)
C24_4 C 0.1101(3) 0.5674(5) 0.1156(4)
C25_4 C 0.1325(4) 0.4993(5) 0.1376(4)
C26_4 C 0.1808(4) 0.4789(5) 0.1322(5)
C27_4 C 0.2054(3) 0.5281(5) 0.1021(4)
C28_4 C 0.1328(3) 0.4169(5) 0.2184(4)
C29_4 C 0.1107(3) 0.3542(5) 0.2311(4)
C30_4 C 0.1325(3) 0.3184(4) 0.2896(4)
C31_4 C 0.1768(3) 0.3474(4) 0.3313(3)
C32_4 C 0.1993(3) 0.4109(5) 0.3187(4)
C33_4 C 0.1761(3) 0.4466(5) 0.2615(4)
C34_4 C 0.2029(3) 0.3076(4) 0.3931(3)
C38_4 C 0.6008(5) 0.4548(9) 0.0281(6)
C39_4 C 0.6455(4) 0.4185(6) 0.0261(5)
H14_4 H 0.1177 0.6585 0.0693
H15_4 H 0.0784 0.5827 0.1208
H16_4 H 0.1968 0.4323 0.1486
H17_4 H 0.2379 0.5145 0.0985
H18_4 H 0.0802 0.3338 0.2008
H19_4 H 0.1165 0.2750 0.2993
H20_4 H 0.2304 0.4307 0.3484
H21_4 H 0.1907 0.4919 0.2528
H24_4 H 0.6036 0.4883 0.0613
H25_4 H 0.6789 0.4327 0.0544
O1_4 O 0.3142(2) 0.7909(3) 0.9713(2)
O2_4 O 0.2470(2) 0.8692(3) 0.9511(2)
C1_4 C 0.2916(3) 0.8513(4) 0.9503(3)
C2_4 C 0.3174(3) 0.9052(4) 0.9217(3)
C3_4 C 0.3658(3) 0.8877(5) 0.9140(4)
C4_4 C 0.3899(3) 0.9326(5) 0.8844(4)
C7_4 C 0.2946(3) 0.9719(5) 0.8979(4)
C18_4 C 0.3992(5) 0.5452(9) 0.9719(6)
C19_4 C 0.3545(4) 0.5815(6) 0.9739(5)
H1_4 H 0.3823 0.8415 0.9307
H2_4 H 0.4216 0.9173 0.8792
H4_4 H 0.2621 0.9855 0.9015
H11_4 H 0.3964 0.5117 0.9387
H12_4 H 0.3211 0.5673 0.9456
C35_4 C 0.5962(4) 0.3581(6) 0.9419(5)
C36_4 C 0.5518(4) 0.3919(7) 0.9396(6)
C37_4 C 0.5534(4) 0.4433(6) 0.9836(5)
C40_4 C 0.5035(4) 0.4856(6) 0.9804(5)
H22_4 H 0.5940 0.3259 0.9080
H23_4 H 0.5196 0.3801 0.9077
H26_3 H 0.4761 0.4872 0.9412
H13_4 H 0.0239 0.0128 0.0588
H26_4 H 0.9761 0.9872 0.9412
loop_
_geom_bond_atom_site_label_1
_geom_bond_atom_site_label_2
_geom_bond_site_symmetry_1
_geom_bond_site_symmetry_2
Zn1 O1 1_555 1_555
O1 C1 1_555 1_555
O2 C1 1_555 1_555
O3 C5 1_555 1_555
O4 C14 1_555 1_555
O5 C14 1_555 1_555
N1 Zn1 1_555 1_555
C1 C2 1_555 1_555
C2 C3 1_555 1_555
C3 C4 1_555 1_555
C4 C5 1_555 1_555
C5 C6 1_555 1_555
C6 C7 1_555 1_555
C7 C2 1_555 1_555
C8 O3 1_555 1_555
C9 C8 1_555 1_555
C10 C9 1_555 1_555
C11 C10 1_555 1_555
C12 C11 1_555 1_555
C13 C8 1_555 1_555
C14 C11 1_555 1_555
C15 N1 1_555 1_555
C16 C15 1_555 1_555
C17 C16 1_555 1_555
C18 C17 1_555 1_555
C19 N1 1_555 1_555
C20 C17 1_555 1_555
H1 C3 1_555 1_555
H2 C4 1_555 1_555
H3 C6 1_555 1_555
H4 C7 1_555 1_555
H5 C9 1_555 1_555
H6 C10 1_555 1_555
H7 C12 1_555 1_555
H8 C13 1_555 1_555
H9 C15 1_555 1_555
H10 C16 1_555 1_555
H11 C18 1_555 1_555
H12 C19 1_555 1_555
Zn2 O2 1_555 1_555
Zn3 O4 1_555 1_555
O6 Zn2 1_555 1_555
O7 Zn1 1_555 1_555
O10 Zn1 1_555 1_555
O11 Zn2 1_555 1_555
O13 Zn1 1_555 1_555
O14 Zn2 1_555 1_555
N3 Zn2 1_555 1_555
C21 O6 1_555 1_555
C22 C21 1_555 1_555
C23 C22 1_555 1_555
C24 C23 1_555 1_555
C27 C22 1_555 1_555
H14 C23 1_555 1_555
H15 C24 1_555 1_555
H17 C27 1_555 1_555
C12 C13 1_555 1_555
C18 C19 1_555 1_555
O7 C21 1_555 1_555
Zn4 O9 1_555 1_555
O8 C25 1_555 1_555
O9 C34 1_555 1_555
O12 C34 1_555 1_555
C26 C25 1_555 1_555
C28 O8 1_555 1_555
C29 C28 1_555 1_555
C30 C29 1_555 1_555
C31 C30 1_555 1_555
C32 C31 1_555 1_555
C33 C28 1_555 1_555
C34 C31 1_555 1_555
H16 C26 1_555 1_555
H18 C29 1_555 1_555
H19 C30 1_555 1_555
H20 C32 1_555 1_555
H21 C33 1_555 1_555
C32 C33 1_555 1_555
Zn5 N2 1_555 1_555
N2 C35 1_555 1_555
C35 C36 1_555 1_555
C36 C37 1_555 1_555
C37 C38 1_555 1_555
C38 C39 1_555 1_555
C39 N2 1_555 1_555
H22 C35 1_555 1_555
H23 C36 1_555 1_555
H24 C38 1_555 1_555
H25 C39 1_555 1_555
C37 C40 1_555 1_555
O3_2 C5_2 1_555 1_555
O4_2 C14_2 1_555 1_555
O5_2 C14_2 1_555 1_555
C5_2 C6_2 1_555 1_555
C8_2 O3_2 1_555 1_555
C9_2 C8_2 1_555 1_555
C10_2 C9_2 1_555 1_555
C11_2 C10_2 1_555 1_555
C12_2 C11_2 1_555 1_555
C13_2 C8_2 1_555 1_555
C14_2 C11_2 1_555 1_555
H3_2 C6_2 1_555 1_555
H5_2 C9_2 1_555 1_555
H6_2 C10_2 1_555 1_555
H7_2 C12_2 1_555 1_555
H8_2 C13_2 1_555 1_555
Zn3_2 O4_2 1_555 1_555
C12_2 C13_2 1_555 1_555
Zn1_2 O1_2 1_555 1_555
O1_2 C1_2 1_555 1_555
O2_2 C1_2 1_555 1_555
N1_2 Zn1_2 1_555 1_555
C1_2 C2_2 1_555 1_555
C2_2 C3_2 1_555 1_555
C3_2 C4_2 1_555 1_555
C7_2 C2_2 1_555 1_555
C15_2 N1_2 1_555 1_555
C16_2 C15_2 1_555 1_555
C17_2 C16_2 1_555 1_555
C18_2 C17_2 1_555 1_555
C19_2 N1_2 1_555 1_555
C20_2 C17_2 1_555 1_555
H1_2 C3_2 1_555 1_555
H2_2 C4_2 1_555 1_555
H4_2 C7_2 1_555 1_555
H9_2 C15_2 1_555 1_555
H10_2 C16_2 1_555 1_555
H11_2 C18_2 1_555 1_555
H12_2 C19_2 1_555 1_555
H13_2 C20_2 1_555 1_555
Zn5 O2_2 1_555 1_555
Zn4_2 O9_2 1_555 1_555
O6_2 Zn5 1_555 1_555
O7_2 Zn1_2 1_555 1_555
O8_2 C25_2 1_555 1_555
O9_2 C34_2 1_555 1_555
O10_2 Zn1_2 1_555 1_555
O11_2 Zn5 1_555 1_555
O12_2 C34_2 1_555 1_555
O13_2 Zn1_2 1_555 1_555
O14_2 Zn5 1_555 1_555
N3 C35_2 1_555 1_555
C21_2 O6_2 1_555 1_555
C22_2 C21_2 1_555 1_555
C23_2 C22_2 1_555 1_555
C24_2 C23_2 1_555 1_555
C25_2 C24_2 1_555 1_555
C26_2 C25_2 1_555 1_555
C27_2 C22_2 1_555 1_555
C28_2 O8_2 1_555 1_555
C29_2 C28_2 1_555 1_555
C30_2 C29_2 1_555 1_555
C31_2 C30_2 1_555 1_555
C32_2 C31_2 1_555 1_555
C33_2 C28_2 1_555 1_555
C34_2 C31_2 1_555 1_555
C35_2 C36_2 1_555 1_555
C36_2 C37_2 1_555 1_555
C37_2 C38_2 1_555 1_555
C38_2 C39_2 1_555 1_555
C39_2 N3 1_555 1_555
C40_2 C20_2 1_555 1_555
H14_2 C23_2 1_555 1_555
H15_2 C24_2 1_555 1_555
H16_2 C26_2 1_555 1_555
H17_2 C27_2 1_555 1_555
H18_2 C29_2 1_555 1_555
H19_2 C30_2 1_555 1_555
H20_2 C32_2 1_555 1_555
H21_2 C33_2 1_555 1_555
H22_2 C35_2 1_555 1_555
H23_2 C36_2 1_555 1_555
H24_2 C38_2 1_555 1_555
H25_2 C39_2 1_555 1_555
H26_2 C40_2 1_555 1_555
C18_2 C19_2 1_555 1_555
O7_2 C21_2 1_555 1_555
C26_2 C27_2 1_555 1_555
C32_2 C33_2 1_555 1_555
C37_2 C40_2 1_555 1_555
C38_3 C39_3 1_555 1_555
H24_3 C38_3 1_555 1_555
H25_3 C39_3 1_555 1_555
Zn3 N2_2 1_555 1_555
N2_2 C35_3 1_555 1_555
C35_3 C36_3 1_555 1_555
C36_3 C37_3 1_555 1_555
H22_3 C35_3 1_555 1_555
H23_3 C36_3 1_555 1_555
C37_3 C40_3 1_555 1_555
N1_3 Zn4_2 1_555 1_555
C15_3 N1_3 1_555 1_555
C16_3 C15_3 1_555 1_555
C17_3 C16_3 1_555 1_555
C20_3 C17_3 1_555 1_555
H9_3 C15_3 1_555 1_555
H10_3 C16_3 1_555 1_555
O7_3 Zn4_2 1_555 1_555
C21_3 O6_3 1_555 1_555
C22_3 C21_3 1_555 1_555
C23_3 C22_3 1_555 1_555
C24_3 C23_3 1_555 1_555
C27_3 C22_3 1_555 1_555
H14_3 C23_3 1_555 1_555
H15_3 C24_3 1_555 1_555
H17_3 C27_3 1_555 1_555
O7_3 C21_3 1_555 1_555
O1_3 C1_3 1_555 1_555
O2_3 C1_3 1_555 1_555
O3_3 C5_3 1_555 1_555
O11_2 C14_3 1_555 1_555
O13_2 C14_3 1_555 1_555
C1_3 C2_3 1_555 1_555
C2_3 C3_3 1_555 1_555
C3_3 C4_3 1_555 1_555
C4_3 C5_3 1_555 1_555
C5_3 C6_3 1_555 1_555
C6_3 C7_3 1_555 1_555
C7_3 C2_3 1_555 1_555
C8_3 O3_3 1_555 1_555
C9_3 C8_3 1_555 1_555
C10_3 C9_3 1_555 1_555
C11_3 C10_3 1_555 1_555
C12_3 C11_3 1_555 1_555
C13_3 C8_3 1_555 1_555
C14_3 C11_3 1_555 1_555
H1_3 C3_3 1_555 1_555
H2_3 C4_3 1_555 1_555
H3_3 C6_3 1_555 1_555
H4_3 C7_3 1_555 1_555
H5_3 C9_3 1_555 1_555
H6_3 C10_3 1_555 1_555
H7_3 C12_3 1_555 1_555
H8_3 C13_3 1_555 1_555
H11_3 C18_3 1_555 1_555
H12_3 C19_3 1_555 1_555
Zn3_2 O2_3 1_555 1_555
N3_2 Zn3_2 1_555 1_555
C12_3 C13_3 1_555 1_555
C18_3 C19_3 1_555 1_555
O8_3 C25_3 1_555 1_555
O10_2 C34_3 1_555 1_555
O14_2 C34_3 1_555 1_555
C26_3 C25_3 1_555 1_555
C28_3 O8_3 1_555 1_555
C29_3 C28_3 1_555 1_555
C30_3 C29_3 1_555 1_555
C31_3 C30_3 1_555 1_555
C32_3 C31_3 1_555 1_555
C33_3 C28_3 1_555 1_555
C34_3 C31_3 1_555 1_555
H16_3 C26_3 1_555 1_555
H18_3 C29_3 1_555 1_555
H19_3 C30_3 1_555 1_555
H20_3 C32_3 1_555 1_555
H21_3 C33_3 1_555 1_555
C32_3 C33_3 1_555 1_555
O3_4 C5_4 1_555 1_555
O11 C14_4 1_555 1_555
O13 C14_4 1_555 1_555
C5_4 C6_4 1_555 1_555
C8_4 O3_4 1_555 1_555
C9_4 C8_4 1_555 1_555
C10_4 C9_4 1_555 1_555
C11_4 C10_4 1_555 1_555
C12_4 C11_4 1_555 1_555
C13_4 C8_4 1_555 1_555
C14_4 C11_4 1_555 1_555
H3_4 C6_4 1_555 1_555
H5_4 C9_4 1_555 1_555
H6_4 C10_4 1_555 1_555
H7_4 C12_4 1_555 1_555
H8_4 C13_4 1_555 1_555
C12_4 C13_4 1_555 1_555
N1_4 Zn4 1_555 1_555
C15_4 N1_4 1_555 1_555
C16_4 C15_4 1_555 1_555
C17_4 C16_4 1_555 1_555
C20_4 C17_4 1_555 1_555
H9_4 C15_4 1_555 1_555
H10_4 C16_4 1_555 1_555
H13_3 C20_4 1_555 1_555
O7_4 Zn4 1_555 1_555
O8_4 C25_4 1_555 1_555
O10 C34_4 1_555 1_555
O14 C34_4 1_555 1_555
C21_4 O6_4 1_555 1_555
C22_4 C21_4 1_555 1_555
C23_4 C22_4 1_555 1_555
C24_4 C23_4 1_555 1_555
C25_4 C24_4 1_555 1_555
C26_4 C25_4 1_555 1_555
C27_4 C22_4 1_555 1_555
C28_4 O8_4 1_555 1_555
C29_4 C28_4 1_555 1_555
C30_4 C29_4 1_555 1_555
C31_4 C30_4 1_555 1_555
C32_4 C31_4 1_555 1_555
C33_4 C28_4 1_555 1_555
C34_4 C31_4 1_555 1_555
C38_4 C39_4 1_555 1_555
H14_4 C23_4 1_555 1_555
H15_4 C24_4 1_555 1_555
H16_4 C26_4 1_555 1_555
H17_4 C27_4 1_555 1_555
H18_4 C29_4 1_555 1_555
H19_4 C30_4 1_555 1_555
H20_4 C32_4 1_555 1_555
H21_4 C33_4 1_555 1_555
H24_4 C38_4 1_555 1_555
H25_4 C39_4 1_555 1_555
O7_4 C21_4 1_555 1_555
C26_4 C27_4 1_555 1_555
C32_4 C33_4 1_555 1_555
O1_4 C1_4 1_555 1_555
O2_4 C1_4 1_555 1_555
C1_4 C2_4 1_555 1_555
C2_4 C3_4 1_555 1_555
C3_4 C4_4 1_555 1_555
C7_4 C2_4 1_555 1_555
H1_4 C3_4 1_555 1_555
H2_4 C4_4 1_555 1_555
H4_4 C7_4 1_555 1_555
H11_4 C18_4 1_555 1_555
H12_4 C19_4 1_555 1_555
Zn3 O2_4 1_555 1_555
N3_2 C35_4 1_555 1_555
C35_4 C36_4 1_555 1_555
C36_4 C37_4 1_555 1_555
H22_4 C35_4 1_555 1_555
H23_4 C36_4 1_555 1_555
H26_3 C40_4 1_555 1_555
C18_4 C19_4 1_555 1_555
C37_4 C40_4 1_555 1_555

#END
