
###############################################################################
#
# This file contains modified crystal structure data generated from the
# MOF subset of the Cambridge Structural Database (CSD) v543 
# hosted by the Cambridge Crystallographic Data Centre (CCDC).
#
# This work is licensed under the Creative Commons
# Attribution-NonCommercial-ShareAlike 4.0 International License.
# To view a copy of this license, visit
# http://creativecommons.org/licenses/by-nc-sa/4.0/
# or send a letter to
# Creative Commons, PO Box 1866, Mountain View, CA 94042, USA.
#
# CIF created using the CSD Python API on 29 September 2022
# The structure has been converted into the P1 space group
# The structure has a 3D framework
# The original CSD entry DIFZAW is in the orthorhombic crystal system
# The framework has been calculated to contain at least 10.0% void space
# The void calculation uses a probe of radius 1.32A, grid spacing 0.4
# The framework is charged, counterions have been retained in the structure
#
###############################################################################

data_DIFZAW
_chemical_formula_moiety         '(C242 H144 Au12 Cl12 Co12 N14 O46 P12 6-)n'
_symmetry_cell_setting           triclinic
_symmetry_space_group_name_H-M   'P 1'
_symmetry_Int_Tables_number      1
_space_group_name_Hall           'P 1'
loop_
_symmetry_equiv_pos_site_id
_symmetry_equiv_pos_as_xyz
1 x,y,z
_cell_length_a                   24.527(3)
_cell_length_b                   32.127(4)
_cell_length_c                   14.2872(18)
_cell_angle_alpha                90
_cell_angle_beta                 90
_cell_angle_gamma                90
_cell_volume                     11258
loop_
_atom_site_label
_atom_site_type_symbol
_atom_site_fract_x
_atom_site_fract_y
_atom_site_fract_z
O26 O 0.0105(3) 0.2979(3) 0.0789(6)
Co22 Co 0.07252(7) 0.25823(5) 0.12153(10)
O20 O 0.0105(3) 0.2979(3) 0.9211(6)
Co14 Co 0.07252(7) 0.25823(5) 0.87847(10)
Au1 Au 0.63159(3) 0.54258(3) -0.0000
P1 P 0.62586(19) 0.61178(15) -0.0000
Cl1 Cl 0.6407(3) 0.4717(2) -0.0000
O3 O 0.8660(4) 0.7029(3) 0.0796(6)
C8 C 0.8472(8) 0.6940(7) -0.0000
C9 C 0.7895(8) 0.6723(7) -0.0000
C10 C 0.7670(6) 0.6640(5) 0.0780(10)
H5 H 0.7842 0.6709 0.1339
C11 C 0.7158(6) 0.6442(5) 0.0788(10)
H6 H 0.6994 0.6392 0.1364
C12 C 0.6890(8) 0.6321(6) -0.0000
O8 O 0.4886(4) 0.6598(3) 0.3966(7)
O9 O 0.4880(4) 0.7208(3) 0.3236(7)
C33 C 0.5007(7) 0.6838(5) 0.3318(11)
C34 C 0.5339(7) 0.6658(5) 0.2539(11)
C35 C 0.5395(7) 0.6242(5) 0.2428(11)
H19 H 0.5232 0.6065 0.2860
C36 C 0.5682(6) 0.6073(5) 0.1707(10)
H20 H 0.5725 0.5785 0.1674
C37 C 0.5905(6) 0.6319(4) 0.1034(10)
C38 C 0.5893(7) 0.6737(5) 0.1199(12)
H21 H 0.6070 0.6913 0.0779
C39 C 0.5630(7) 0.6915(5) 0.1962(12)
H22 H 0.5652 0.7200 0.2077
N4 N 0.4280(5) 0.7881(4) 0.2461(8)
C58 C 0.4735(7) 0.7950(5) 0.1977(11)
H37 H 0.5063 0.7967 0.2300
C59 C 0.4741(7) 0.7998(5) 0.0995(11)
H38 H 0.5069 0.8044 0.0687
C60 C 0.4280(7) 0.7977(6) 0.0510(11)
C61 C 0.3786(7) 0.7984(5) 0.1073(11)
H39 H 0.3452 0.8033 0.0788
C62 C 0.3809(7) 0.7920(5) 0.2019(11)
H40 H 0.3486 0.7904 0.2358
Au3 Au 0.36841(3) 0.45742(3) -0.0000
P3 P 0.37414(19) 0.38822(15) -0.0000
Cl3 Cl 0.3593(3) 0.5283(2) -0.0000
O16 O 0.1340(4) 0.2971(3) 0.0796(6)
C70 C 0.1528(8) 0.3060(7) -0.0000
C71 C 0.2105(8) 0.3277(7) -0.0000
C72 C 0.2330(6) 0.3360(5) 0.0780(10)
H45 H 0.2158 0.3291 0.1339
C73 C 0.2842(6) 0.3558(5) 0.0788(10)
H46 H 0.3006 0.3608 0.1364
C74 C 0.3110(8) 0.3679(6) -0.0000
O21 O 0.5114(4) 0.3402(3) 0.3966(7)
O22 O 0.5120(4) 0.2792(3) 0.3236(7)
C92 C 0.4993(7) 0.3162(5) 0.3318(11)
C93 C 0.4661(7) 0.3342(5) 0.2539(11)
C94 C 0.4605(7) 0.3758(5) 0.2428(11)
H57 H 0.4768 0.3935 0.2860
C95 C 0.4318(6) 0.3927(5) 0.1707(10)
H58 H 0.4275 0.4215 0.1674
C96 C 0.4095(6) 0.3681(4) 0.1034(10)
C97 C 0.4107(7) 0.3263(5) 0.1199(12)
H59 H 0.3930 0.3087 0.0779
C98 C 0.4370(7) 0.3085(5) 0.1962(12)
H60 H 0.4348 0.2800 0.2077
N6 N 0.5720(5) 0.2119(4) 0.2461(8)
C110 C 0.5265(7) 0.2050(5) 0.1977(11)
H69 H 0.4937 0.2033 0.2300
C111 C 0.5259(7) 0.2002(5) 0.0995(11)
H70 H 0.4931 0.1956 0.0687
C112 C 0.5720(7) 0.2023(6) 0.0510(11)
C113 C 0.6214(7) 0.2016(5) 0.1073(11)
H71 H 0.6548 0.1967 0.0788
C114 C 0.6191(7) 0.2080(5) 0.2019(11)
H72 H 0.6514 0.2096 0.2358
Co5 Co 0.92748(7) 0.74177(5) 0.12153(10)
Co8 Co 0.42748(10) 0.66343(8) 0.5000
Co10 Co 0.57252(10) 0.33657(8) 0.5000
Co18 Co 0.57252(7) 0.24177(5) 0.37847(10)
Co19 Co 0.42748(7) 0.75823(5) 0.37847(10)
O30 O 0.9880(4) 0.7792(3) 0.1764(7)
O34 O 0.9272(4) 0.7747(3) -0.0000
O35 O 0.8694(4) 0.7812(3) 0.1784(7)
O42 O 0.9895(3) 0.7021(3) 0.0789(6)
N8 N 0.9280(5) 0.7119(4) 0.2539(8)
Au1_2 Au 0.63159(3) 0.54258(3) 1.0000
Au2 Au 0.22285(4) 0.53891(3) 0.0000
Co2 Co 0.42748(7) 0.75823(5) 0.62153(10)
P1_2 P 0.62586(19) 0.61178(15) 1.0000
P2 P 0.22941(19) 0.60831(16) 0.0000
Cl1_2 Cl 0.6407(3) 0.4717(2) 1.0000
Cl2 Cl 0.2125(4) 0.4693(2) 0.0000
O1 O 0.4886(4) 0.6598(3) 0.6034(7)
O2 O 0.4880(4) 0.7208(3) 0.6764(7)
O4 O 0.4272(4) 0.7253(3) 0.5000
O5 O 0.3694(4) 0.7188(3) 0.3216(7)
O6 O 0.3698(4) 0.6568(3) 0.3927(7)
N1 N 0.4303(8) 0.5973(5) 0.5000
N2 N 0.4280(5) 0.7881(4) 0.7539(8)
C1 C 0.5007(7) 0.6838(5) 0.6682(11)
C2 C 0.5339(7) 0.6658(5) 0.7461(11)
C3 C 0.5395(7) 0.6242(5) 0.7572(11)
H1 H 0.5232 0.6065 0.7140
C4 C 0.5682(6) 0.6073(5) 0.8293(10)
H2 H 0.5725 0.5785 0.8326
C5 C 0.5905(6) 0.6319(4) 0.8966(10)
C6 C 0.5893(7) 0.6737(5) 0.8801(12)
H3 H 0.6070 0.6913 0.9221
C7 C 0.5630(7) 0.6915(5) 0.8038(12)
H4 H 0.5652 0.7200 0.7923
C8_2 C 0.8472(8) 0.6940(7) 1.0000
C9_2 C 0.7895(8) 0.6723(7) 1.0000
C12_2 C 0.6890(8) 0.6321(6) 1.0000
C13 C 0.4445(7) 0.5785(5) 0.4227(11)
H7 H 0.4373 0.5925 0.3672
C14 C 0.4702(7) 0.5382(4) 0.4142(11)
H8 H 0.4763 0.5251 0.3571
C15 C 0.4850(10) 0.5209(6) 0.5000
C16 C 0.4735(7) 0.7950(5) 0.8023(11)
H9 H 0.5063 0.7967 0.7700
C17 C 0.4741(7) 0.7998(5) 0.9005(11)
H10 H 0.5069 0.8044 0.9313
C18 C 0.4280(7) 0.7977(6) 0.9490(11)
C19 C 0.3786(7) 0.7984(5) 0.8927(11)
H11 H 0.3452 0.8033 0.9212
C20 C 0.3809(7) 0.7920(5) 0.7981(11)
H12 H 0.3486 0.7904 0.7642
C21 C 0.3553(7) 0.6827(5) 0.3278(11)
C22 C 0.3238(6) 0.6628(5) 0.2525(10)
C23 C 0.3190(6) 0.6211(4) 0.2381(10)
H13 H 0.3360 0.6032 0.2801
C24 C 0.2900(6) 0.6040(5) 0.1639(9)
H14 H 0.2866 0.5752 0.1594
C25 C 0.2670(6) 0.6281(4) 0.0990(10)
C26 C 0.2624(6) 0.6683(5) 0.1203(11)
H15 H 0.2378 0.6845 0.0867
C27 C 0.2958(6) 0.6891(5) 0.1974(11)
H16 H 0.2967 0.7178 0.2057
C28 C 0.0104(8) 0.6946(6) 0.0000
C29 C 0.0607(7) 0.6687(6) 0.0000
C32 C 0.1650(8) 0.6337(6) 0.0000
O10 O 0.8660(4) 0.7029(3) 0.9204(6)
C40 C 0.7670(6) 0.6640(5) 0.9220(10)
H23 H 0.7842 0.6709 0.8661
C41 C 0.7158(6) 0.6442(5) 0.9212(10)
H24 H 0.6994 0.6392 0.8636
C49 C 0.0870(5) 0.6620(5) 0.0813(10)
H29 H 0.0708 0.6702 0.1372
C50 C 0.1392(6) 0.6425(5) 0.0832(10)
H30 H 0.1556 0.6357 0.1399
N3 N 0.5697(8) 0.4027(5) 0.5000
C51 C 0.5555(7) 0.4215(5) 0.4227(11)
H31 H 0.5627 0.4075 0.3672
C52 C 0.5298(7) 0.4618(4) 0.4142(11)
H32 H 0.5237 0.4749 0.3571
C53 C 0.5150(10) 0.4791(6) 0.5000
C54 C 0.5555(7) 0.4215(5) 0.5773(11)
H33 H 0.5627 0.4075 0.6328
C55 C 0.5298(7) 0.4618(4) 0.5858(11)
H34 H 0.5237 0.4749 0.6429
C56 C 0.4445(7) 0.5785(5) 0.5773(11)
H35 H 0.4373 0.5925 0.6328
C57 C 0.4702(7) 0.5382(4) 0.5858(11)
H36 H 0.4763 0.5251 0.6429
Au3_2 Au 0.36841(3) 0.45742(3) 1.0000
Au4 Au 0.77715(4) 0.46109(3) 0.0000
Co4 Co 0.57252(7) 0.24177(5) 0.62153(10)
P3_2 P 0.37414(19) 0.38822(15) 1.0000
P4 P 0.77059(19) 0.39169(16) 0.0000
Cl3_2 Cl 0.3593(3) 0.5283(2) 1.0000
Cl4 Cl 0.7875(4) 0.5307(2) 0.0000
O14 O 0.5114(4) 0.3402(3) 0.6034(7)
O15 O 0.5120(4) 0.2792(3) 0.6764(7)
O17 O 0.5728(4) 0.2747(3) 0.5000
O18 O 0.6306(4) 0.2812(3) 0.3216(7)
O19 O 0.6302(4) 0.3432(3) 0.3927(7)
N5 N 0.5720(5) 0.2119(4) 0.7539(8)
C63 C 0.4993(7) 0.3162(5) 0.6682(11)
C64 C 0.4661(7) 0.3342(5) 0.7461(11)
C65 C 0.4605(7) 0.3758(5) 0.7572(11)
H41 H 0.4768 0.3935 0.7140
C66 C 0.4318(6) 0.3927(5) 0.8293(10)
H42 H 0.4275 0.4215 0.8326
C67 C 0.4095(6) 0.3681(4) 0.8966(10)
C68 C 0.4107(7) 0.3263(5) 0.8801(12)
H43 H 0.3930 0.3087 0.9221
C69 C 0.4370(7) 0.3085(5) 0.8038(12)
H44 H 0.4348 0.2800 0.7923
C70_2 C 0.1528(8) 0.3060(7) 1.0000
C71_2 C 0.2105(8) 0.3277(7) 1.0000
C74_2 C 0.3110(8) 0.3679(6) 1.0000
C75 C 0.5265(7) 0.2050(5) 0.8023(11)
H47 H 0.4937 0.2033 0.7700
C76 C 0.5259(7) 0.2002(5) 0.9005(11)
H48 H 0.4931 0.1956 0.9313
C77 C 0.5720(7) 0.2023(6) 0.9490(11)
C78 C 0.6214(7) 0.2016(5) 0.8927(11)
H49 H 0.6548 0.1967 0.9212
C79 C 0.6191(7) 0.2080(5) 0.7981(11)
H50 H 0.6514 0.2096 0.7642
C80 C 0.6447(7) 0.3173(5) 0.3278(11)
C81 C 0.6762(6) 0.3372(5) 0.2525(10)
C82 C 0.6810(6) 0.3789(4) 0.2381(10)
H51 H 0.6640 0.3968 0.2801
C83 C 0.7100(6) 0.3960(5) 0.1639(9)
H52 H 0.7134 0.4248 0.1594
C84 C 0.7330(6) 0.3719(4) 0.0990(10)
C85 C 0.7376(6) 0.3317(5) 0.1203(11)
H53 H 0.7622 0.3155 0.0867
C86 C 0.7042(6) 0.3109(5) 0.1974(11)
H54 H 0.7033 0.2822 0.2057
C87 C 0.9896(8) 0.3054(6) 0.0000
C88 C 0.9393(7) 0.3313(6) 0.0000
C91 C 0.8350(8) 0.3663(6) 0.0000
O23 O 0.1340(4) 0.2971(3) 0.9204(6)
C99 C 0.2330(6) 0.3360(5) 0.9220(10)
H61 H 0.2158 0.3291 0.8661
C100 C 0.2842(6) 0.3558(5) 0.9212(10)
H62 H 0.3006 0.3608 0.8636
C108 C 0.9130(5) 0.3380(5) 0.0813(10)
H67 H 0.9292 0.3298 0.1372
C109 C 0.8608(6) 0.3575(5) 0.0832(10)
H68 H 0.8444 0.3643 0.1399
Co16 Co 0.92748(7) 0.74177(5) 0.87847(10)
O31 O 0.3660(4) 0.7971(3) 0.4204(6)
O32 O 0.3660(4) 0.7971(3) 0.5796(6)
O33 O 0.6340(4) 0.2029(3) 0.5796(6)
O34_2 O 0.9272(4) 0.7747(3) 1.0000
O36 O 0.6306(4) 0.2812(3) 0.6784(7)
O37 O 0.3694(4) 0.7188(3) 0.6784(7)
O38 O 0.6302(4) 0.3432(3) 0.6073(7)
O39 O 0.3698(4) 0.6568(3) 0.6073(7)
O40 O 0.5105(3) 0.2021(3) 0.5789(6)
O41 O 0.4895(3) 0.7979(3) 0.5789(6)
O43 O 0.4895(3) 0.7979(3) 0.4211(6)
Au2_2 Au 0.22285(4) 0.53891(3) 1.0000
P2_2 P 0.22941(19) 0.60831(16) 1.0000
Cl2_2 Cl 0.2125(4) 0.4693(2) 1.0000
C28_2 C 0.0104(8) 0.6946(6) 1.0000
C29_2 C 0.0607(7) 0.6687(6) 1.0000
C30 C 0.0870(5) 0.6620(5) 0.9187(10)
H17 H 0.0708 0.6702 0.8628
C31 C 0.1392(6) 0.6425(5) 0.9168(10)
H18 H 0.1556 0.6357 0.8601
C32_2 C 0.1650(8) 0.6337(6) 1.0000
C42 C 0.3553(7) 0.6827(5) 0.6722(11)
C43 C 0.3238(6) 0.6628(5) 0.7475(10)
C44 C 0.3190(6) 0.6211(4) 0.7619(10)
H25 H 0.3360 0.6032 0.7199
C45 C 0.2900(6) 0.6040(5) 0.8361(9)
H26 H 0.2866 0.5752 0.8406
C46 C 0.2670(6) 0.6281(4) 0.9010(10)
C47 C 0.2624(6) 0.6683(5) 0.8797(11)
H27 H 0.2378 0.6845 0.9133
C48 C 0.2958(6) 0.6891(5) 0.8026(11)
H28 H 0.2967 0.7178 0.7943
Au4_2 Au 0.77715(4) 0.46109(3) 1.0000
P4_2 P 0.77059(19) 0.39169(16) 1.0000
Cl4_2 Cl 0.7875(4) 0.5307(2) 1.0000
C87_2 C 0.9896(8) 0.3054(6) 1.0000
C88_2 C 0.9393(7) 0.3313(6) 1.0000
C89 C 0.9130(5) 0.3380(5) 0.9187(10)
H55 H 0.9292 0.3298 0.8628
C90 C 0.8608(6) 0.3575(5) 0.9168(10)
H56 H 0.8444 0.3643 0.8601
C91_2 C 0.8350(8) 0.3663(6) 1.0000
C101 C 0.6447(7) 0.3173(5) 0.6722(11)
C102 C 0.6762(6) 0.3372(5) 0.7475(10)
C103 C 0.6810(6) 0.3789(4) 0.7619(10)
H63 H 0.6640 0.3968 0.7199
C104 C 0.7100(6) 0.3960(5) 0.8361(9)
H64 H 0.7134 0.4248 0.8406
C105 C 0.7330(6) 0.3719(4) 0.9010(10)
C106 C 0.7376(6) 0.3317(5) 0.8797(11)
H65 H 0.7622 0.3155 0.9133
C107 C 0.7042(6) 0.3109(5) 0.8026(11)
H66 H 0.7033 0.2822 0.7943
O7 O 0.9895(3) 0.7021(3) 0.9211(6)
O30_2 O 0.0120(4) 0.2208(3) 0.1764(7)
O34_3 O 0.0728(4) 0.2253(3) -0.0000
O35_2 O 0.1306(4) 0.2188(3) 0.1784(7)
N8_2 N 0.0720(5) 0.2881(4) 0.2539(8)
O31_2 O 0.6340(4) 0.2029(3) 0.4204(6)
O34_4 O 0.0728(4) 0.2253(3) 1.0000
O43_2 O 0.5105(3) 0.2021(3) 0.4211(6)
Co7 Co 0.07252(10) 0.16343(8) -0.0000
Au2_3 Au 0.27715(4) 0.03891(3) 0.5000
P2_3 P 0.27059(19) 0.10831(16) 0.5000
O6_2 O 0.1302(4) 0.1568(3) 0.1073(7)
N1_2 N 0.0697(8) 0.0973(5) 0.0000
C13_2 C 0.0555(7) 0.0785(5) 0.0773(11)
H7_2 H 0.0627 0.0925 0.1328
C14_2 C 0.0298(7) 0.0382(4) 0.0858(11)
H8_2 H 0.0237 0.0251 0.1429
C15_2 C 0.0150(10) 0.0209(6) 0.0000
C21_2 C 0.1447(7) 0.1827(5) 0.1722(11)
C22_2 C 0.1762(6) 0.1628(5) 0.2475(10)
C23_2 C 0.1810(6) 0.1211(4) 0.2619(10)
H13_2 H 0.1640 0.1032 0.2199
C24_2 C 0.2100(6) 0.1040(5) 0.3361(9)
H14_2 H 0.2134 0.0752 0.3406
C25_2 C 0.2330(6) 0.1281(4) 0.4010(10)
C26_2 C 0.2376(6) 0.1683(5) 0.3797(11)
H15_2 H 0.2622 0.1845 0.4133
C27_2 C 0.2042(6) 0.1891(5) 0.3026(11)
H16_2 H 0.2033 0.2178 0.2943
C28_3 C 0.4896(8) 0.1946(6) 0.5000
C29_3 C 0.4393(7) 0.1687(6) 0.5000
C30_2 C 0.4130(5) 0.1620(5) 0.5813(10)
H17_2 H 0.4292 0.1702 0.6372
C31_2 C 0.3608(6) 0.1425(5) 0.5832(10)
H18_2 H 0.3444 0.1357 0.6399
C32_3 C 0.3350(8) 0.1337(6) 0.5000
O11 O 0.1306(4) 0.2188(3) 0.8216(7)
O12 O 0.1302(4) 0.1568(3) 0.8927(7)
C42_2 C 0.1447(7) 0.1827(5) 0.8278(11)
C43_2 C 0.1762(6) 0.1628(5) 0.7525(10)
C44_2 C 0.1810(6) 0.1211(4) 0.7381(10)
H25_2 H 0.1640 0.1032 0.7801
C45_2 C 0.2100(6) 0.1040(5) 0.6639(9)
H26_2 H 0.2134 0.0752 0.6594
C46_2 C 0.2330(6) 0.1281(4) 0.5990(10)
C47_2 C 0.2376(6) 0.1683(5) 0.6203(11)
H27_2 H 0.2622 0.1845 0.5867
C48_2 C 0.2042(6) 0.1891(5) 0.6974(11)
H28_2 H 0.2033 0.2178 0.7057
C49_2 C 0.4130(5) 0.1620(5) 0.4187(10)
H29_2 H 0.4292 0.1702 0.3628
C50_2 C 0.3608(6) 0.1425(5) 0.4168(10)
H30_2 H 0.3444 0.1357 0.3601
Co7_2 Co 0.07252(10) 0.16343(8) 1.0000
O28 O 0.0114(4) 0.1598(3) 0.1034(7)
O1_2 O 0.0114(4) 0.1598(3) 0.8966(7)
O2_2 O 0.0120(4) 0.2208(3) 0.8236(7)
N1_3 N 0.0697(8) 0.0973(5) 1.0000
N2_2 N 0.0720(5) 0.2881(4) 0.7461(8)
C15_3 C 0.0150(10) 0.0209(6) 1.0000
C16_2 C 0.0265(7) 0.2950(5) 0.6977(11)
C17_2 C 0.0259(7) 0.2998(5) 0.5995(11)
C18_2 C 0.0720(7) 0.2977(6) 0.5510(11)
C19_2 C 0.1214(7) 0.2984(5) 0.6073(11)
H11_2 H 0.1548 0.3033 0.5788
C20_2 C 0.1191(7) 0.2920(5) 0.7019(11)
H12_2 H 0.1514 0.2904 0.7358
C56_2 C 0.0555(7) 0.0785(5) 0.9227(11)
H35_2 H 0.0627 0.0925 0.8672
C57_2 C 0.0298(7) 0.0382(4) 0.9142(11)
H36_2 H 0.0237 0.0251 0.8571
C58_2 C 0.0265(7) 0.2950(5) 0.3023(11)
C59_2 C 0.0259(7) 0.2998(5) 0.4005(11)
C60_2 C 0.0720(7) 0.2977(6) 0.4490(11)
C61_2 C 0.1214(7) 0.2984(5) 0.3927(11)
H39_2 H 0.1548 0.3033 0.4212
C62_2 C 0.1191(7) 0.2920(5) 0.2981(11)
H40_2 H 0.1514 0.2904 0.2642
Cl3_3 Cl 0.1407(3) 0.0283(2) 0.5000
Au3_3 Au 0.13159(3) 0.95742(3) 0.5000
P3_3 P 0.12586(19) 0.88822(15) 0.5000
C63_2 C 0.0007(7) 0.8162(5) 0.8318(11)
C64_2 C 0.0339(7) 0.8342(5) 0.7539(11)
C65_2 C 0.0395(7) 0.8758(5) 0.7428(11)
H41_2 H 0.0232 0.8935 0.7860
C66_2 C 0.0682(6) 0.8927(5) 0.6707(10)
H42_2 H 0.0725 0.9215 0.6674
C67_2 C 0.0905(6) 0.8681(4) 0.6034(10)
C68_2 C 0.0893(7) 0.8263(5) 0.6199(12)
H43_2 H 0.1070 0.8087 0.5779
C69_2 C 0.0630(7) 0.8085(5) 0.6962(12)
H44_2 H 0.0652 0.7800 0.7077
C70_3 C 0.3472(8) 0.8060(7) 0.5000
C71_3 C 0.2895(8) 0.8277(7) 0.5000
C72_2 C 0.2670(6) 0.8360(5) 0.4220(10)
H45_2 H 0.2842 0.8291 0.3661
C73_2 C 0.2158(6) 0.8558(5) 0.4212(10)
H46_2 H 0.1994 0.8608 0.3636
C74_3 C 0.1890(8) 0.8679(6) 0.5000
H47_2 H 0.0063 0.7033 0.7300
H48_2 H 0.0069 0.6956 0.5687
C92_2 C 0.0007(7) 0.8162(5) 0.1682(11)
C93_2 C 0.0339(7) 0.8342(5) 0.2461(11)
C94_2 C 0.0395(7) 0.8758(5) 0.2572(11)
H57_2 H 0.0232 0.8935 0.2140
C95_2 C 0.0682(6) 0.8927(5) 0.3293(10)
H58_2 H 0.0725 0.9215 0.3326
C96_2 C 0.0905(6) 0.8681(4) 0.3966(10)
C97_2 C 0.0893(7) 0.8263(5) 0.3801(12)
H59_2 H 0.1070 0.8087 0.4221
C98_2 C 0.0630(7) 0.8085(5) 0.3038(12)
H60_2 H 0.0652 0.7800 0.2923
C99_2 C 0.2670(6) 0.8360(5) 0.5780(10)
H61_2 H 0.2842 0.8291 0.6339
C100_2 C 0.2158(6) 0.8558(5) 0.5788(10)
H62_2 H 0.1994 0.8608 0.6364
H69_2 H 0.0063 0.7033 0.2700
H70_2 H 0.0069 0.6956 0.4313
Au1_3 Au 0.86841(3) 0.04258(3) 0.5000
P1_3 P 0.87414(19) 0.11178(15) 0.5000
C1_2 C 0.9993(7) 0.1838(5) 0.8318(11)
C2_2 C 0.9661(7) 0.1658(5) 0.7539(11)
C3_2 C 0.9605(7) 0.1242(5) 0.7428(11)
H1_2 H 0.9768 0.1065 0.7860
C4_2 C 0.9318(6) 0.1073(5) 0.6707(10)
H2_2 H 0.9275 0.0785 0.6674
C5_2 C 0.9095(6) 0.1319(4) 0.6034(10)
C6_2 C 0.9107(7) 0.1737(5) 0.6199(12)
H3_2 H 0.8930 0.1913 0.5779
C7_2 C 0.9370(7) 0.1915(5) 0.6962(12)
H4_2 H 0.9348 0.2200 0.7077
C8_3 C 0.6528(8) 0.1940(7) 0.5000
C9_3 C 0.7105(8) 0.1723(7) 0.5000
C10_2 C 0.7330(6) 0.1640(5) 0.4220(10)
H5_2 H 0.7158 0.1709 0.3661
C11_2 C 0.7842(6) 0.1442(5) 0.4212(10)
H6_2 H 0.8006 0.1392 0.3636
C12_3 C 0.8110(8) 0.1321(6) 0.5000
H9_2 H 0.9937 0.2967 0.7300
H10_2 H 0.9931 0.3044 0.5687
C33_2 C 0.9993(7) 0.1838(5) 0.1682(11)
C34_2 C 0.9661(7) 0.1658(5) 0.2461(11)
C35_2 C 0.9605(7) 0.1242(5) 0.2572(11)
H19_2 H 0.9768 0.1065 0.2140
C36_2 C 0.9318(6) 0.1073(5) 0.3293(10)
H20_2 H 0.9275 0.0785 0.3326
C37_2 C 0.9095(6) 0.1319(4) 0.3966(10)
C38_2 C 0.9107(7) 0.1737(5) 0.3801(12)
H21_2 H 0.8930 0.1913 0.4221
C39_2 C 0.9370(7) 0.1915(5) 0.3038(12)
H22_2 H 0.9348 0.2200 0.2923
C40_2 C 0.7330(6) 0.1640(5) 0.5780(10)
H23_2 H 0.7158 0.1709 0.6339
C41_2 C 0.7842(6) 0.1442(5) 0.5788(10)
H24_2 H 0.8006 0.1392 0.6364
H37_2 H 0.9937 0.2967 0.2700
H38_2 H 0.9931 0.3044 0.4313
Co9 Co 0.92748(10) 0.83657(8) -0.0000
N3_2 N 0.9303(8) 0.9027(5) 0.0000
C51_2 C 0.9445(7) 0.9215(5) 0.0773(11)
H31_2 H 0.9373 0.9075 0.1328
C52_2 C 0.9702(7) 0.9618(4) 0.0858(11)
H32_2 H 0.9763 0.9749 0.1429
C53_2 C 0.9850(10) 0.9791(6) 0.0000
Au4_3 Au 0.72285(4) 0.96109(3) 0.5000
P4_3 P 0.72941(19) 0.89169(16) 0.5000
O19_2 O 0.8698(4) 0.8432(3) 0.1073(7)
C80_2 C 0.8553(7) 0.8173(5) 0.1722(11)
C81_2 C 0.8238(6) 0.8372(5) 0.2475(10)
C82_2 C 0.8190(6) 0.8789(4) 0.2619(10)
H51_2 H 0.8360 0.8968 0.2199
C83_2 C 0.7900(6) 0.8960(5) 0.3361(9)
H52_2 H 0.7866 0.9248 0.3406
C84_2 C 0.7670(6) 0.8719(4) 0.4010(10)
C85_2 C 0.7624(6) 0.8317(5) 0.3797(11)
H53_2 H 0.7378 0.8155 0.4133
C86_2 C 0.7958(6) 0.8109(5) 0.3026(11)
H54_2 H 0.7967 0.7822 0.2943
C87_3 C 0.5104(8) 0.8054(6) 0.5000
C88_3 C 0.5607(7) 0.8313(6) 0.5000
C89_2 C 0.5870(5) 0.8380(5) 0.5813(10)
H55_2 H 0.5708 0.8298 0.6372
C90_2 C 0.6392(6) 0.8575(5) 0.5832(10)
H56_2 H 0.6556 0.8643 0.6399
C91_3 C 0.6650(8) 0.8663(6) 0.5000
O24 O 0.8694(4) 0.7812(3) 0.8216(7)
O25 O 0.8698(4) 0.8432(3) 0.8927(7)
C101_2 C 0.8553(7) 0.8173(5) 0.8278(11)
C102_2 C 0.8238(6) 0.8372(5) 0.7525(10)
C103_2 C 0.8190(6) 0.8789(4) 0.7381(10)
H63_2 H 0.8360 0.8968 0.7801
C104_2 C 0.7900(6) 0.8960(5) 0.6639(9)
H64_2 H 0.7866 0.9248 0.6594
C105_2 C 0.7670(6) 0.8719(4) 0.5990(10)
C106_2 C 0.7624(6) 0.8317(5) 0.6203(11)
H65_2 H 0.7378 0.8155 0.5867
C107_2 C 0.7958(6) 0.8109(5) 0.6974(11)
H66_2 H 0.7967 0.7822 0.7057
C108_2 C 0.5870(5) 0.8380(5) 0.4187(10)
H67_2 H 0.5708 0.8298 0.3628
C109_2 C 0.6392(6) 0.8575(5) 0.4168(10)
H68_2 H 0.6556 0.8643 0.3601
Co9_2 Co 0.92748(10) 0.83657(8) 1.0000
O27 O 0.9886(4) 0.8402(3) 0.1034(7)
Cl1_3 Cl 0.8593(3) 0.9717(2) 0.5000
N3_3 N 0.9303(8) 0.9027(5) 1.0000
C53_3 C 0.9850(10) 0.9791(6) 1.0000
C54_2 C 0.9445(7) 0.9215(5) 0.9227(11)
H33_2 H 0.9373 0.9075 0.8672
C55_2 C 0.9702(7) 0.9618(4) 0.9142(11)
H34_2 H 0.9763 0.9749 0.8571
O14_2 O 0.9886(4) 0.8402(3) 0.8966(7)
O15_2 O 0.9880(4) 0.7792(3) 0.8236(7)
N5_2 N 0.9280(5) 0.7119(4) 0.7461(8)
C75_2 C 0.9735(7) 0.7050(5) 0.6977(11)
C76_2 C 0.9741(7) 0.7002(5) 0.5995(11)
C77_2 C 0.9280(7) 0.7023(6) 0.5510(11)
C78_2 C 0.8786(7) 0.7016(5) 0.6073(11)
H49_2 H 0.8452 0.6967 0.5788
C79_2 C 0.8809(7) 0.7080(5) 0.7019(11)
H50_2 H 0.8486 0.7096 0.7358
C110_2 C 0.9735(7) 0.7050(5) 0.3023(11)
C111_2 C 0.9741(7) 0.7002(5) 0.4005(11)
C112_2 C 0.9280(7) 0.7023(6) 0.4490(11)
C113_2 C 0.8786(7) 0.7016(5) 0.3927(11)
H71_2 H 0.8452 0.6967 0.4212
C114_2 C 0.8809(7) 0.7080(5) 0.2981(11)
H72_2 H 0.8486 0.7096 0.2642
Cl2_3 Cl 0.2875(4) 0.9693(2) 0.5000
Cl4_3 Cl 0.7125(4) 0.0307(2) 0.5000
loop_
_geom_bond_atom_site_label_1
_geom_bond_atom_site_label_2
_geom_bond_site_symmetry_1
_geom_bond_site_symmetry_2
Co22 O26 1_555 1_555
Co14 O20 1_555 1_555
Au1 P1 1_555 1_555
Cl1 Au1 1_555 1_555
O3 C8 1_555 1_555
C8 C9 1_555 1_555
C9 C10 1_555 1_555
C10 H5 1_555 1_555
C11 C10 1_555 1_555
H6 C11 1_555 1_555
C12 P1 1_555 1_555
O8 C33 1_555 1_555
O9 C33 1_555 1_555
C33 C34 1_555 1_555
C34 C35 1_555 1_555
C35 H19 1_555 1_555
C36 C35 1_555 1_555
H20 C36 1_555 1_555
C37 P1 1_555 1_555
C38 C37 1_555 1_555
H21 C38 1_555 1_555
C39 C34 1_555 1_555
H22 C39 1_555 1_555
N4 C58 1_555 1_555
C58 H37 1_555 1_555
C59 C58 1_555 1_555
H38 C59 1_555 1_555
C61 C60 1_555 1_555
H39 C61 1_555 1_555
C62 N4 1_555 1_555
H40 C62 1_555 1_555
Au3 P3 1_555 1_555
Cl3 Au3 1_555 1_555
O16 C70 1_555 1_555
C70 C71 1_555 1_555
C71 C72 1_555 1_555
C72 H45 1_555 1_555
C73 C72 1_555 1_555
H46 C73 1_555 1_555
C74 P3 1_555 1_555
O21 C92 1_555 1_555
O22 C92 1_555 1_555
C92 C93 1_555 1_555
C93 C94 1_555 1_555
C94 H57 1_555 1_555
C95 C94 1_555 1_555
H58 C95 1_555 1_555
C96 P3 1_555 1_555
C97 C96 1_555 1_555
H59 C97 1_555 1_555
C98 C93 1_555 1_555
H60 C98 1_555 1_555
N6 C110 1_555 1_555
C110 H69 1_555 1_555
C111 C110 1_555 1_555
H70 C111 1_555 1_555
C113 C112 1_555 1_555
H71 C113 1_555 1_555
C114 N6 1_555 1_555
H72 C114 1_555 1_555
Co5 O3 1_555 1_555
Co8 O8 1_555 1_555
Co10 O21 1_555 1_555
Co18 O22 1_555 1_555
Co19 O9 1_555 1_555
Co22 O16 1_555 1_555
O30 Co5 1_555 1_555
O34 Co5 1_555 1_555
O35 Co5 1_555 1_555
O42 Co5 1_555 1_555
N8 Co5 1_555 1_555
C11 C12 1_555 1_555
C36 C37 1_555 1_555
C38 C39 1_555 1_555
N4 Co19 1_555 1_555
C59 C60 1_555 1_555
C61 C62 1_555 1_555
C73 C74 1_555 1_555
C95 C96 1_555 1_555
C97 C98 1_555 1_555
N6 Co18 1_555 1_555
C111 C112 1_555 1_555
C113 C114 1_555 1_555
Au1_2 P1_2 1_555 1_555
Au2 P2 1_555 1_555
Co8 O1 1_555 1_555
Co2 O2 1_555 1_555
P1_2 C5 1_555 1_555
P2 C25 1_555 1_555
Cl1_2 Au1_2 1_555 1_555
Cl2 Au2 1_555 1_555
O1 C1 1_555 1_555
O2 C1 1_555 1_555
O4 Co8 1_555 1_555
O5 C21 1_555 1_555
O6 Co8 1_555 1_555
N1 Co8 1_555 1_555
N2 Co2 1_555 1_555
C1 C2 1_555 1_555
C2 C3 1_555 1_555
C3 H1 1_555 1_555
C4 C3 1_555 1_555
H2 C4 1_555 1_555
C5 C4 1_555 1_555
C6 C5 1_555 1_555
H3 C6 1_555 1_555
C7 C2 1_555 1_555
H4 C7 1_555 1_555
C8_2 C9_2 1_555 1_555
C12_2 P1_2 1_555 1_555
C13 N1 1_555 1_555
H7 C13 1_555 1_555
C14 C13 1_555 1_555
H8 C14 1_555 1_555
C15 C14 1_555 1_555
C16 N2 1_555 1_555
H9 C16 1_555 1_555
C17 C16 1_555 1_555
H10 C17 1_555 1_555
C18 C17 1_555 1_555
C19 C18 1_555 1_555
H11 C19 1_555 1_555
C20 N2 1_555 1_555
H12 C20 1_555 1_555
C21 O6 1_555 1_555
C22 C21 1_555 1_555
C23 C22 1_555 1_555
H13 C23 1_555 1_555
C24 C23 1_555 1_555
H14 C24 1_555 1_555
C25 C24 1_555 1_555
C26 C25 1_555 1_555
H15 C26 1_555 1_555
C27 C22 1_555 1_555
H16 C27 1_555 1_555
C28 C29 1_555 1_555
C32 P2 1_555 1_555
O10 C8_2 1_555 1_555
C40 C9_2 1_555 1_555
H23 C40 1_555 1_555
C41 C12_2 1_555 1_555
H24 C41 1_555 1_555
C49 C29 1_555 1_555
H29 C49 1_555 1_555
C50 C32 1_555 1_555
H30 C50 1_555 1_555
N3 C51 1_555 1_555
C51 H31 1_555 1_555
C52 C51 1_555 1_555
H32 C52 1_555 1_555
C53 C15 1_555 1_555
C54 N3 1_555 1_555
H33 C54 1_555 1_555
C55 C53 1_555 1_555
H34 C55 1_555 1_555
C56 N1 1_555 1_555
H35 C56 1_555 1_555
C57 C15 1_555 1_555
H36 C57 1_555 1_555
Au3_2 P3_2 1_555 1_555
Au4 P4 1_555 1_555
Co10 N3 1_555 1_555
Co4 O15 1_555 1_555
P3_2 C67 1_555 1_555
P4 C84 1_555 1_555
Cl3_2 Au3_2 1_555 1_555
Cl4 Au4 1_555 1_555
O14 Co10 1_555 1_555
O15 C63 1_555 1_555
O17 Co10 1_555 1_555
O18 C80 1_555 1_555
O19 Co10 1_555 1_555
N5 Co4 1_555 1_555
C63 O14 1_555 1_555
C64 C63 1_555 1_555
C65 C64 1_555 1_555
H41 C65 1_555 1_555
C66 C65 1_555 1_555
H42 C66 1_555 1_555
C67 C66 1_555 1_555
C68 C67 1_555 1_555
H43 C68 1_555 1_555
C69 C64 1_555 1_555
H44 C69 1_555 1_555
C70_2 C71_2 1_555 1_555
C74_2 P3_2 1_555 1_555
C75 N5 1_555 1_555
H47 C75 1_555 1_555
C76 C75 1_555 1_555
H48 C76 1_555 1_555
C77 C76 1_555 1_555
C78 C77 1_555 1_555
H49 C78 1_555 1_555
C79 N5 1_555 1_555
H50 C79 1_555 1_555
C80 O19 1_555 1_555
C81 C80 1_555 1_555
C82 C81 1_555 1_555
H51 C82 1_555 1_555
C83 C82 1_555 1_555
H52 C83 1_555 1_555
C84 C83 1_555 1_555
C85 C84 1_555 1_555
H53 C85 1_555 1_555
C86 C81 1_555 1_555
H54 C86 1_555 1_555
C87 C88 1_555 1_555
C91 P4 1_555 1_555
O23 C70_2 1_555 1_555
C99 C71_2 1_555 1_555
H61 C99 1_555 1_555
C100 C74_2 1_555 1_555
H62 C100 1_555 1_555
C108 C88 1_555 1_555
H67 C108 1_555 1_555
C109 C91 1_555 1_555
H68 C109 1_555 1_555
Co19 O4 1_555 1_555
Co14 O23 1_555 1_555
Co16 O10 1_555 1_555
Co18 O17 1_555 1_555
O31 Co19 1_555 1_555
O32 Co2 1_555 1_555
O33 Co4 1_555 1_555
O36 Co4 1_555 1_555
O37 Co2 1_555 1_555
O38 Co10 1_555 1_555
O39 Co8 1_555 1_555
O40 Co4 1_555 1_555
O41 Co2 1_555 1_555
O43 Co19 1_555 1_555
Co2 O4 1_555 1_555
O5 Co19 1_555 1_555
C6 C7 1_555 1_555
C19 C20 1_555 1_555
C26 C27 1_555 1_555
C40 C41 1_555 1_555
C49 C50 1_555 1_555
C52 C53 1_555 1_555
C54 C55 1_555 1_555
C56 C57 1_555 1_555
Co4 O17 1_555 1_555
O18 Co18 1_555 1_555
C68 C69 1_555 1_555
C78 C79 1_555 1_555
C85 C86 1_555 1_555
C99 C100 1_555 1_555
C108 C109 1_555 1_555
Co16 O34_2 1_555 1_555
Au2_2 P2_2 1_555 1_555
Cl2_2 Au2_2 1_555 1_555
C28_2 C29_2 1_555 1_555
C29_2 C30 1_555 1_555
C30 H17 1_555 1_555
C31 C30 1_555 1_555
H18 C31 1_555 1_555
C32_2 P2_2 1_555 1_555
O37 C42 1_555 1_555
O39 C42 1_555 1_555
C42 C43 1_555 1_555
C43 C44 1_555 1_555
C44 H25 1_555 1_555
C45 C44 1_555 1_555
H26 C45 1_555 1_555
C46 P2_2 1_555 1_555
C47 C46 1_555 1_555
H27 C47 1_555 1_555
C48 C43 1_555 1_555
H28 C48 1_555 1_555
Au4_2 P4_2 1_555 1_555
Cl4_2 Au4_2 1_555 1_555
C87_2 C88_2 1_555 1_555
C88_2 C89 1_555 1_555
C89 H55 1_555 1_555
C90 C89 1_555 1_555
H56 C90 1_555 1_555
C91_2 P4_2 1_555 1_555
O36 C101 1_555 1_555
O38 C101 1_555 1_555
C101 C102 1_555 1_555
C102 C103 1_555 1_555
C103 H63 1_555 1_555
C104 C103 1_555 1_555
H64 C104 1_555 1_555
C105 P4_2 1_555 1_555
C106 C105 1_555 1_555
H65 C106 1_555 1_555
C107 C102 1_555 1_555
H66 C107 1_555 1_555
C31 C32_2 1_555 1_555
C45 C46 1_555 1_555
C47 C48 1_555 1_555
C90 C91_2 1_555 1_555
C104 C105 1_555 1_555
C106 C107 1_555 1_555
Co16 O7 1_555 1_555
O30_2 Co22 1_555 1_555
O34_3 Co22 1_555 1_555
O35_2 Co22 1_555 1_555
N8_2 Co22 1_555 1_555
O31_2 Co18 1_555 1_555
O43_2 Co18 1_555 1_555
Co14 O34_4 1_555 1_555
Au2_3 P2_3 1_555 1_555
P2_3 C25_2 1_555 1_555
O34_3 Co7 1_555 1_555
O35_2 C21_2 1_555 1_555
O6_2 Co7 1_555 1_555
O40 C28_3 1_555 1_555
N1_2 Co7 1_555 1_555
C13_2 N1_2 1_555 1_555
H7_2 C13_2 1_555 1_555
C14_2 C13_2 1_555 1_555
H8_2 C14_2 1_555 1_555
C15_2 C14_2 1_555 1_555
C21_2 O6_2 1_555 1_555
C22_2 C21_2 1_555 1_555
C23_2 C22_2 1_555 1_555
H13_2 C23_2 1_555 1_555
C24_2 C23_2 1_555 1_555
H14_2 C24_2 1_555 1_555
C25_2 C24_2 1_555 1_555
C26_2 C25_2 1_555 1_555
H15_2 C26_2 1_555 1_555
C27_2 C22_2 1_555 1_555
H16_2 C27_2 1_555 1_555
C28_3 C29_3 1_555 1_555
C29_3 C30_2 1_555 1_555
C30_2 H17_2 1_555 1_555
C31_2 C30_2 1_555 1_555
H18_2 C31_2 1_555 1_555
C32_3 P2_3 1_555 1_555
O11 C42_2 1_555 1_555
O12 C42_2 1_555 1_555
O43_2 C28_3 1_555 1_555
C42_2 C43_2 1_555 1_555
C43_2 C44_2 1_555 1_555
C44_2 H25_2 1_555 1_555
C45_2 C44_2 1_555 1_555
H26_2 C45_2 1_555 1_555
C46_2 P2_3 1_555 1_555
C47_2 C46_2 1_555 1_555
H27_2 C47_2 1_555 1_555
C48_2 C43_2 1_555 1_555
H28_2 C48_2 1_555 1_555
C49_2 C29_3 1_555 1_555
H29_2 C49_2 1_555 1_555
C50_2 C32_3 1_555 1_555
H30_2 C50_2 1_555 1_555
Co7_2 O12 1_555 1_555
Co14 O11 1_555 1_555
O28 Co7 1_555 1_555
C26_2 C27_2 1_555 1_555
C31_2 C32_3 1_555 1_555
C45_2 C46_2 1_555 1_555
C47_2 C48_2 1_555 1_555
C49_2 C50_2 1_555 1_555
Co7_2 O1_2 1_555 1_555
Co14 O2_2 1_555 1_555
O34_4 Co7_2 1_555 1_555
N1_3 Co7_2 1_555 1_555
N2_2 Co14 1_555 1_555
C16_2 N2_2 1_555 1_555
C17_2 C16_2 1_555 1_555
C18_2 C17_2 1_555 1_555
C19_2 C18_2 1_555 1_555
H11_2 C19_2 1_555 1_555
C20_2 N2_2 1_555 1_555
H12_2 C20_2 1_555 1_555
C56_2 N1_3 1_555 1_555
H35_2 C56_2 1_555 1_555
C57_2 C15_3 1_555 1_555
H36_2 C57_2 1_555 1_555
N8_2 C58_2 1_555 1_555
C59_2 C58_2 1_555 1_555
C60_2 C18_2 1_555 1_555
C61_2 C60_2 1_555 1_555
H39_2 C61_2 1_555 1_555
C62_2 N8_2 1_555 1_555
H40_2 C62_2 1_555 1_555
C19_2 C20_2 1_555 1_555
C56_2 C57_2 1_555 1_555
C59_2 C60_2 1_555 1_555
C61_2 C62_2 1_555 1_555
Au3_3 P3_3 1_555 1_555
P3_3 C67_2 1_555 1_555
O31 C70_3 1_555 1_555
C64_2 C63_2 1_555 1_555
C65_2 C64_2 1_555 1_555
H41_2 C65_2 1_555 1_555
C66_2 C65_2 1_555 1_555
H42_2 C66_2 1_555 1_555
C67_2 C66_2 1_555 1_555
C68_2 C67_2 1_555 1_555
H43_2 C68_2 1_555 1_555
C69_2 C64_2 1_555 1_555
H44_2 C69_2 1_555 1_555
C70_3 C71_3 1_555 1_555
C71_3 C72_2 1_555 1_555
C72_2 H45_2 1_555 1_555
C73_2 C72_2 1_555 1_555
H46_2 C73_2 1_555 1_555
C74_3 P3_3 1_555 1_555
O32 C70_3 1_555 1_555
C92_2 C93_2 1_555 1_555
C93_2 C94_2 1_555 1_555
C94_2 H57_2 1_555 1_555
C95_2 C94_2 1_555 1_555
H58_2 C95_2 1_555 1_555
C96_2 P3_3 1_555 1_555
C97_2 C96_2 1_555 1_555
H59_2 C97_2 1_555 1_555
C98_2 C93_2 1_555 1_555
H60_2 C98_2 1_555 1_555
C99_2 C71_3 1_555 1_555
H61_2 C99_2 1_555 1_555
C100_2 C74_3 1_555 1_555
H62_2 C100_2 1_555 1_555
C68_2 C69_2 1_555 1_555
C73_2 C74_3 1_555 1_555
C95_2 C96_2 1_555 1_555
C97_2 C98_2 1_555 1_555
C99_2 C100_2 1_555 1_555
Au1_3 P1_3 1_555 1_555
P1_3 C5_2 1_555 1_555
O31_2 C8_3 1_555 1_555
C1_2 C2_2 1_555 1_555
C2_2 C3_2 1_555 1_555
C3_2 H1_2 1_555 1_555
C4_2 C3_2 1_555 1_555
H2_2 C4_2 1_555 1_555
C5_2 C4_2 1_555 1_555
C6_2 C5_2 1_555 1_555
H3_2 C6_2 1_555 1_555
C7_2 C2_2 1_555 1_555
H4_2 C7_2 1_555 1_555
C8_3 C9_3 1_555 1_555
C9_3 C10_2 1_555 1_555
C10_2 H5_2 1_555 1_555
C11_2 C10_2 1_555 1_555
H6_2 C11_2 1_555 1_555
C12_3 P1_3 1_555 1_555
O33 C8_3 1_555 1_555
C33_2 C34_2 1_555 1_555
C34_2 C35_2 1_555 1_555
C35_2 H19_2 1_555 1_555
C36_2 C35_2 1_555 1_555
H20_2 C36_2 1_555 1_555
C37_2 P1_3 1_555 1_555
C38_2 C37_2 1_555 1_555
H21_2 C38_2 1_555 1_555
C39_2 C34_2 1_555 1_555
H22_2 C39_2 1_555 1_555
C40_2 C9_3 1_555 1_555
H23_2 C40_2 1_555 1_555
C41_2 C12_3 1_555 1_555
H24_2 C41_2 1_555 1_555
C6_2 C7_2 1_555 1_555
C11_2 C12_3 1_555 1_555
C36_2 C37_2 1_555 1_555
C38_2 C39_2 1_555 1_555
C40_2 C41_2 1_555 1_555
N3_2 C51_2 1_555 1_555
C51_2 H31_2 1_555 1_555
C52_2 C51_2 1_555 1_555
H32_2 C52_2 1_555 1_555
Au4_3 P4_3 1_555 1_555
Co9 N3_2 1_555 1_555
P4_3 C84_2 1_555 1_555
O34 Co9 1_555 1_555
O35 C80_2 1_555 1_555
O19_2 Co9 1_555 1_555
O41 C87_3 1_555 1_555
C80_2 O19_2 1_555 1_555
C81_2 C80_2 1_555 1_555
C82_2 C81_2 1_555 1_555
H51_2 C82_2 1_555 1_555
C83_2 C82_2 1_555 1_555
H52_2 C83_2 1_555 1_555
C84_2 C83_2 1_555 1_555
C85_2 C84_2 1_555 1_555
H53_2 C85_2 1_555 1_555
C86_2 C81_2 1_555 1_555
H54_2 C86_2 1_555 1_555
C87_3 C88_3 1_555 1_555
C88_3 C89_2 1_555 1_555
C89_2 H55_2 1_555 1_555
C90_2 C89_2 1_555 1_555
H56_2 C90_2 1_555 1_555
C91_3 P4_3 1_555 1_555
O24 C101_2 1_555 1_555
O25 C101_2 1_555 1_555
O43 C87_3 1_555 1_555
C101_2 C102_2 1_555 1_555
C102_2 C103_2 1_555 1_555
C103_2 H63_2 1_555 1_555
C104_2 C103_2 1_555 1_555
H64_2 C104_2 1_555 1_555
C105_2 P4_3 1_555 1_555
C106_2 C105_2 1_555 1_555
H65_2 C106_2 1_555 1_555
C107_2 C102_2 1_555 1_555
H66_2 C107_2 1_555 1_555
C108_2 C88_3 1_555 1_555
H67_2 C108_2 1_555 1_555
C109_2 C91_3 1_555 1_555
H68_2 C109_2 1_555 1_555
Co9_2 O25 1_555 1_555
Co16 O24 1_555 1_555
O27 Co9 1_555 1_555
C52_2 C53_2 1_555 1_555
C85_2 C86_2 1_555 1_555
C90_2 C91_3 1_555 1_555
C104_2 C105_2 1_555 1_555
C106_2 C107_2 1_555 1_555
C108_2 C109_2 1_555 1_555
C54_2 N3_3 1_555 1_555
H33_2 C54_2 1_555 1_555
C55_2 C53_3 1_555 1_555
H34_2 C55_2 1_555 1_555
Co9_2 N3_3 1_555 1_555
Co16 O15_2 1_555 1_555
O14_2 Co9_2 1_555 1_555
O34_2 Co9_2 1_555 1_555
N5_2 Co16 1_555 1_555
C75_2 N5_2 1_555 1_555
C76_2 C75_2 1_555 1_555
C77_2 C76_2 1_555 1_555
C78_2 C77_2 1_555 1_555
H49_2 C78_2 1_555 1_555
C79_2 N5_2 1_555 1_555
H50_2 C79_2 1_555 1_555
N8 C110_2 1_555 1_555
C111_2 C110_2 1_555 1_555
C112_2 C77_2 1_555 1_555
C113_2 C112_2 1_555 1_555
H71_2 C113_2 1_555 1_555
C114_2 N8 1_555 1_555
H72_2 C114_2 1_555 1_555
C54_2 C55_2 1_555 1_555
C78_2 C79_2 1_555 1_555
C111_2 C112_2 1_555 1_555
C113_2 C114_2 1_555 1_555

#END
