
###############################################################################
#
# This file contains modified crystal structure data generated from the
# MOF subset of the Cambridge Structural Database (CSD) v543 
# hosted by the Cambridge Crystallographic Data Centre (CCDC).
#
# This work is licensed under the Creative Commons
# Attribution-NonCommercial-ShareAlike 4.0 International License.
# To view a copy of this license, visit
# http://creativecommons.org/licenses/by-nc-sa/4.0/
# or send a letter to
# Creative Commons, PO Box 1866, Mountain View, CA 94042, USA.
#
# CIF created using the CSD Python API on 29 September 2022
# The structure has been converted into the P1 space group
# The structure has a 3D framework
# The original CSD entry DIGFIL is in the monoclinic crystal system
# The framework has been calculated to contain at least 10.0% void space
# The void calculation uses a probe of radius 1.32A, grid spacing 0.4
#
###############################################################################

data_DIGFIL
_chemical_formula_moiety         '(C208 H216 Cd14 N40 O45)n'
_symmetry_cell_setting           triclinic
_symmetry_space_group_name_H-M   'P 1'
_symmetry_Int_Tables_number      1
_space_group_name_Hall           'P 1'
loop_
_symmetry_equiv_pos_site_id
_symmetry_equiv_pos_as_xyz
1 x,y,z
_cell_length_a                   27.915(4)
_cell_length_b                   10.6683(15)
_cell_length_c                   29.421(4)
_cell_angle_alpha                90
_cell_angle_beta                 91.081(2)
_cell_angle_gamma                90
_cell_volume                     8760.18
loop_
_atom_site_label
_atom_site_type_symbol
_atom_site_fract_x
_atom_site_fract_y
_atom_site_fract_z
Cd3 Cd 0.17490(2) 0.75849(3) 0.04120(2)
C31 C 0.24321(18) 0.6542(5) 0.11575(17)
H30 H 0.2317 0.7201 0.1355
H31 H 0.2740 0.6258 0.1276
C32 C 0.20799(19) 0.5461(5) 0.11513(18)
H32 H 0.2200 0.4805 0.0956
H33 H 0.2058 0.5121 0.1456
C33 C 0.1338(2) 0.4794(5) 0.07707(18)
H34 H 0.1525 0.4509 0.0516
H35 H 0.1037 0.5114 0.0648
C34 C 0.12282(18) 0.3662(5) 0.10672(19)
C35 C 0.1549(2) 0.2682(5) 0.1106(2)
H36 H 0.1834 0.2715 0.0949
C36 C 0.14521(19) 0.1652(5) 0.1373(2)
H37 H 0.1673 0.1000 0.1394
C37 C 0.10328(16) 0.1585(4) 0.16065(16)
C40 C 0.05114(16) 0.0093(4) 0.20199(16)
H40 H 0.0222 0.0491 0.1955
C41 C 0.0704(2) 0.2536(5) 0.1570(3)
H41 H 0.0416 0.2490 0.1722
C42 C 0.0809(2) 0.3573(6) 0.1301(3)
H42 H 0.0588 0.4224 0.1278
C43 C 0.1319(2) 0.6470(5) 0.13429(18)
H43 H 0.1539 0.6919 0.1544
H44 H 0.1155 0.5846 0.1522
C44 C 0.0959(2) 0.7372(5) 0.1148(2)
H45 H 0.0743 0.6937 0.0939
H46 H 0.0770 0.7725 0.1391
N6 N 0.24862(14) 0.7032(4) 0.06947(14)
H51 H 0.2615 0.6449 0.0519
H52 H 0.2679 0.7696 0.0700
N7 N 0.12089(16) 0.8376(4) 0.09088(16)
H53 H 0.1360 0.8864 0.1110
H54 H 0.0996 0.8845 0.0758
N8 N 0.15946(14) 0.5835(4) 0.09886(13)
N9 N 0.09392(12) 0.0521(3) 0.18825(13)
O13 O 0.19802(12) 0.9356(3) 0.00559(12)
O4 O 0.22112(14) 0.9884(3) 0.07589(12)
Cd2 Cd 0.0000 0.23770(4) 0.7500
O5 O 0.00240(15) 0.3620(5) 0.68379(16)
C45 C 0.13024(18) 0.6357(4) 0.97054(16)
C46 C 0.10755(17) 0.5660(4) 0.93098(15)
C47 C 0.13538(19) 0.5112(6) 0.89835(19)
H47 H 0.1686 0.5171 0.9002
C48 C 0.1134(2) 0.4472(6) 0.8628(2)
H48 H 0.1325 0.4092 0.8412
C49 C 0.06551(17) 0.4378(4) 0.85809(16)
C50 C 0.0419(2) 0.3693(4) 0.81872(17)
C51 C 0.0383(2) 0.4880(8) 0.8912(2)
H49 H 0.0052 0.4779 0.8902
C52 C 0.0601(2) 0.5552(8) 0.9272(3)
H50 H 0.0409 0.5929 0.9488
O9 O 0.17499(13) 0.6363(3) 0.97475(12)
O10 O 0.10387(14) 0.6888(4) 0.99781(14)
O12 O 0.06757(16) 0.3224(5) 0.78986(17)
N11 N 0.05488(13) 0.0944(3) 0.72549(14)
C8 C 0.12749(17) 0.0307(5) 0.7053(2)
H9 H 0.1605 0.0263 0.7020
C9 C 0.10315(17) 0.1191(5) 0.72776(19)
H10 H 0.1170 0.1873 0.7427
C38 C 0.12749(17) 0.9693(5) 0.2053(2)
H38 H 0.1605 0.9737 0.2020
C39 C 0.10315(17) 0.8809(5) 0.22776(19)
H39 H 0.1170 0.8127 0.2427
N10 N 0.05488(13) 0.9056(3) 0.22549(14)
Cd6 Cd -0.0000 0.76230(4) 0.2500
O7 O 0.19802(12) 0.0644(3) 0.50559(12)
O8 O 0.22112(14) 0.0116(3) 0.57589(12)
Cd4 Cd 0.17490(2) 0.24151(3) 0.54120(2)
C1 C 0.24321(18) 0.3458(5) 0.61575(17)
H1 H 0.2317 0.2799 0.6355
H2 H 0.2740 0.3742 0.6276
C2 C 0.20799(19) 0.4539(5) 0.61513(18)
H3 H 0.2200 0.5195 0.5956
H4 H 0.2058 0.4879 0.6456
C3 C 0.1338(2) 0.5206(5) 0.57707(18)
H5 H 0.1525 0.5491 0.5516
H6 H 0.1037 0.4886 0.5648
C4 C 0.12282(18) 0.6338(5) 0.60672(19)
C5 C 0.1549(2) 0.7318(5) 0.6106(2)
H7 H 0.1834 0.7285 0.5949
C6 C 0.14521(19) 0.8348(5) 0.6373(2)
H8 H 0.1673 0.9000 0.6394
C7 C 0.10328(16) 0.8415(4) 0.66065(16)
C10 C 0.05114(16) 0.9907(4) 0.70199(16)
H11 H 0.0222 0.9509 0.6955
C11 C 0.0704(2) 0.7464(5) 0.6570(3)
H12 H 0.0416 0.7510 0.6722
C12 C 0.0809(2) 0.6427(6) 0.6301(3)
H13 H 0.0588 0.5776 0.6278
C13 C 0.1319(2) 0.3530(5) 0.63429(18)
H14 H 0.1539 0.3081 0.6544
H15 H 0.1155 0.4154 0.6522
C14 C 0.0959(2) 0.2628(5) 0.6148(2)
H16 H 0.0743 0.3063 0.5939
H17 H 0.0770 0.2275 0.6391
C19 C 0.13024(18) 0.3643(4) 0.47054(16)
C20 C 0.10755(17) 0.4340(4) 0.43098(15)
C21 C 0.13538(19) 0.4888(6) 0.39835(19)
H20 H 0.1686 0.4829 0.4002
C22 C 0.1134(2) 0.5528(6) 0.3628(2)
H21 H 0.1325 0.5908 0.3412
C23 C 0.06551(17) 0.5622(4) 0.35809(16)
C24 C 0.0419(2) 0.6307(4) 0.31872(17)
C25 C 0.0383(2) 0.5120(8) 0.3912(2)
H22 H 0.0052 0.5221 0.3902
C26 C 0.0601(2) 0.4448(8) 0.4272(3)
H23 H 0.0409 0.4071 0.4488
N1 N 0.24862(14) 0.2968(4) 0.56947(14)
H24 H 0.2615 0.3551 0.5519
H25 H 0.2679 0.2304 0.5700
N2 N 0.12089(16) 0.1624(4) 0.59088(16)
H26 H 0.1360 0.1136 0.6110
H27 H 0.0996 0.1155 0.5758
N3 N 0.15946(14) 0.4165(4) 0.59886(13)
N4 N 0.09392(12) 0.9479(3) 0.68825(13)
O1 O 0.17499(13) 0.3637(3) 0.47475(12)
O2 O 0.10387(14) 0.3112(4) 0.49781(14)
O6 O 0.06757(16) 0.6776(5) 0.28986(17)
O11 O 0.00240(15) 0.6380(5) 0.18379(16)
C15 C 0.78248(16) 0.0097(4) 0.46508(16)
C16 C 0.76515(16) 0.1332(4) 0.48353(16)
C17 C 0.77713(17) 0.1712(4) 0.52732(17)
H18 H 0.7954 0.1187 0.5460
C18 C 0.76221(18) 0.2872(4) 0.54376(17)
H19 H 0.7706 0.3113 0.5732
C27 C 0.71752(16) 0.4903(4) 0.53492(16)
C28 C 0.73485(16) 0.3668(4) 0.51647(16)
C29 C 0.72287(17) 0.3288(4) 0.47268(17)
H28 H 0.7046 0.3813 0.4540
C30 C 0.73779(18) 0.2128(4) 0.45624(17)
H29 H 0.7294 0.1887 0.4268
O7_2 O 0.69802(12) 0.5644(3) 0.50559(12)
O8_2 O 0.72112(14) 0.5116(3) 0.57589(12)
Cd4_2 Cd 0.67490(2) 0.74151(3) 0.54120(2)
C15_2 C 0.21752(16) 0.0097(4) 0.03492(16)
C16_2 C 0.23485(16) 0.1332(4) 0.01647(16)
C29_2 C 0.27713(17) 0.3288(4) 0.02732(17)
H28_2 H 0.2954 0.3813 0.0460
C30_2 C 0.26221(18) 0.2128(4) 0.04376(17)
H29_2 H 0.2706 0.1887 0.0732
C1_2 C 0.74321(18) 0.8458(5) 0.61575(17)
H1_2 H 0.7317 0.7799 0.6355
H2_2 H 0.7740 0.8742 0.6276
C2_2 C 0.70799(19) 0.9539(5) 0.61513(18)
H4_2 H 0.7058 0.9879 0.6456
H6_2 H 0.6037 0.9886 0.5648
C13_2 C 0.6319(2) 0.8530(5) 0.63429(18)
H14_2 H 0.6539 0.8081 0.6544
H15_2 H 0.6155 0.9154 0.6522
C14_2 C 0.5959(2) 0.7628(5) 0.6148(2)
H16_2 H 0.5743 0.8063 0.5939
H17_2 H 0.5770 0.7275 0.6391
C19_2 C 0.63024(18) 0.8643(4) 0.47054(16)
C20_2 C 0.60755(17) 0.9340(4) 0.43098(15)
C21_2 C 0.63538(19) 0.9888(6) 0.39835(19)
H20_2 H 0.6686 0.9829 0.4002
C26_2 C 0.5601(2) 0.9448(8) 0.4272(3)
H23_2 H 0.5409 0.9071 0.4488
N1_2 N 0.74862(14) 0.7968(4) 0.56947(14)
H24_2 H 0.7615 0.8551 0.5519
H25_2 H 0.7679 0.7304 0.5700
N2_2 N 0.62089(16) 0.6624(4) 0.59088(16)
H26_2 H 0.6360 0.6136 0.6110
H27_2 H 0.5996 0.6155 0.5758
N3_2 N 0.65946(14) 0.9165(4) 0.59886(13)
O1_2 O 0.67499(13) 0.8637(3) 0.47475(12)
O2_2 O 0.60387(14) 0.8112(4) 0.49781(14)
C45_2 C 0.36976(18) 0.8643(4) 0.02946(16)
C46_2 C 0.39245(17) 0.9340(4) 0.06902(15)
C47_2 C 0.36462(19) 0.9888(6) 0.10165(19)
H47_2 H 0.3314 0.9829 0.0998
C52_2 C 0.4399(2) 0.9448(8) 0.0728(3)
H50_2 H 0.4591 0.9071 0.0512
O9_2 O 0.32501(13) 0.8637(3) 0.02525(12)
O10_2 O 0.39613(14) 0.8112(4) 0.00219(14)
Cd1 Cd 0.82510(2) 0.75849(3) 0.45880(2)
Cd2_2 Cd 1.0000 0.23770(4) 0.7500
C1_3 C 0.75679(18) 0.6542(5) 0.38425(17)
H1_3 H 0.7683 0.7201 0.3645
H2_3 H 0.7260 0.6258 0.3724
C2_3 C 0.79201(19) 0.5461(5) 0.38487(18)
H3_2 H 0.7800 0.4805 0.4044
H4_3 H 0.7942 0.5121 0.3544
C3_2 C 0.8662(2) 0.4794(5) 0.42293(18)
H5_2 H 0.8475 0.4509 0.4484
H6_3 H 0.8963 0.5114 0.4352
C4_2 C 0.87718(18) 0.3662(5) 0.39328(19)
C5_2 C 0.8451(2) 0.2682(5) 0.3894(2)
H7_2 H 0.8166 0.2715 0.4051
C6_2 C 0.85479(19) 0.1652(5) 0.3627(2)
H8_2 H 0.8327 0.1000 0.3606
C7_2 C 0.89672(16) 0.1585(4) 0.33935(16)
C10_2 C 0.94886(16) 0.0093(4) 0.29801(16)
H11_2 H 0.9778 0.0491 0.3045
C11_2 C 0.9296(2) 0.2536(5) 0.3430(3)
H12_2 H 0.9584 0.2490 0.3278
C12_2 C 0.9191(2) 0.3573(6) 0.3699(3)
H13_2 H 0.9412 0.4224 0.3722
C13_3 C 0.8681(2) 0.6470(5) 0.36571(18)
H14_3 H 0.8461 0.6919 0.3456
H15_3 H 0.8845 0.5846 0.3478
C14_3 C 0.9041(2) 0.7372(5) 0.3852(2)
H16_3 H 0.9257 0.6937 0.4061
H17_3 H 0.9230 0.7725 0.3609
C19_3 C 0.86976(18) 0.6357(4) 0.52946(16)
C20_3 C 0.89245(17) 0.5660(4) 0.56902(15)
C21_3 C 0.86462(19) 0.5112(6) 0.60165(19)
H20_3 H 0.8314 0.5171 0.5998
C22_2 C 0.8866(2) 0.4472(6) 0.6372(2)
H21_2 H 0.8675 0.4092 0.6588
C23_2 C 0.93449(17) 0.4378(4) 0.64191(16)
C24_2 C 0.9581(2) 0.3693(4) 0.68128(17)
C25_2 C 0.9617(2) 0.4880(8) 0.6088(2)
H22_2 H 0.9948 0.4779 0.6098
C26_3 C 0.9399(2) 0.5552(8) 0.5728(3)
H23_3 H 0.9591 0.5929 0.5512
N1_3 N 0.75138(14) 0.7032(4) 0.43053(14)
H24_3 H 0.7385 0.6449 0.4481
H25_3 H 0.7321 0.7696 0.4300
N2_3 N 0.87911(16) 0.8376(4) 0.40912(16)
H26_3 H 0.8640 0.8864 0.3890
H27_3 H 0.9004 0.8845 0.4242
N3_3 N 0.84054(14) 0.5835(4) 0.40114(13)
N4_2 N 0.90608(12) 0.0521(3) 0.31175(13)
O1_3 O 0.82501(13) 0.6363(3) 0.52525(12)
O2_3 O 0.89613(14) 0.6888(4) 0.50219(14)
O3 O 0.80198(12) 0.9356(3) 0.49441(12)
O4_2 O 0.77888(14) 0.9884(3) 0.42411(12)
O6_2 O 0.93243(16) 0.3224(5) 0.71014(17)
O11_2 O 0.99760(15) 0.3620(5) 0.81621(16)
N12 N 0.94512(13) 0.0944(3) 0.77451(14)
C38_2 C 0.87251(17) 0.0307(5) 0.7947(2)
H38_2 H 0.8395 0.0263 0.7980
C39_2 C 0.89685(17) 0.1191(5) 0.77224(19)
H39_2 H 0.8830 0.1873 0.7573
Cd6_2 Cd 1.0000 0.76230(4) 0.2500
C8_2 C 0.87251(17) 0.9693(5) 0.2947(2)
H9_2 H 0.8395 0.9737 0.2980
C9_2 C 0.89685(17) 0.8809(5) 0.27224(19)
H10_2 H 0.8830 0.8127 0.2573
N5 N 0.94512(13) 0.9056(3) 0.27451(14)
O5_2 O 0.99760(15) 0.6380(5) 0.31621(16)
C45_3 C 0.86976(18) 0.3643(4) 0.02946(16)
C46_3 C 0.89245(17) 0.4340(4) 0.06902(15)
C47_3 C 0.86462(19) 0.4888(6) 0.10165(19)
H47_3 H 0.8314 0.4829 0.0998
C48_2 C 0.8866(2) 0.5528(6) 0.1372(2)
H48_2 H 0.8675 0.5908 0.1588
C49_2 C 0.93449(17) 0.5622(4) 0.14191(16)
C50_2 C 0.9581(2) 0.6307(4) 0.18128(17)
C51_2 C 0.9617(2) 0.5120(8) 0.1088(2)
H49_2 H 0.9948 0.5221 0.1098
C52_3 C 0.9399(2) 0.4448(8) 0.0728(3)
H50_3 H 0.9591 0.4071 0.0512
O9_3 O 0.82501(13) 0.3637(3) 0.02525(12)
O10_3 O 0.89613(14) 0.3112(4) 0.00219(14)
O12_2 O 0.93243(16) 0.6776(5) 0.21014(17)
C17_2 C 0.22287(17) 0.1712(4) 0.97268(17)
H18_2 H 0.2046 0.1187 0.9540
C18_2 C 0.23779(18) 0.2872(4) 0.95624(17)
H19_2 H 0.2294 0.3113 0.9268
C27_2 C 0.28248(16) 0.4903(4) 0.96508(16)
C28_2 C 0.26515(16) 0.3668(4) 0.98353(16)
O7_3 O 0.30198(12) 0.5644(3) 0.99441(12)
O8_3 O 0.27888(14) 0.5116(3) 0.92411(12)
Cd4_3 Cd 0.32510(2) 0.74151(3) 0.95880(2)
C31_2 C 0.25679(18) 0.8458(5) 0.88425(17)
H30_2 H 0.2683 0.7799 0.8645
H31_2 H 0.2260 0.8742 0.8724
C32_2 C 0.29201(19) 0.9539(5) 0.88487(18)
H33_2 H 0.2942 0.9879 0.8544
H35_2 H 0.3963 0.9886 0.9352
C43_2 C 0.3681(2) 0.8530(5) 0.86571(18)
H43_2 H 0.3461 0.8081 0.8456
H44_2 H 0.3845 0.9154 0.8478
C44_2 C 0.4041(2) 0.7628(5) 0.8852(2)
H45_2 H 0.4257 0.8063 0.9061
H46_2 H 0.4230 0.7275 0.8609
N6_2 N 0.25138(14) 0.7968(4) 0.93053(14)
H51_2 H 0.2385 0.8551 0.9481
H52_2 H 0.2321 0.7304 0.9300
N7_2 N 0.37911(16) 0.6624(4) 0.90912(16)
H53_2 H 0.3640 0.6136 0.8890
H54_2 H 0.4004 0.6155 0.9242
N8_2 N 0.34054(14) 0.9165(4) 0.90114(13)
Cd3_2 Cd 0.67490(2) 0.25849(3) 0.04120(2)
C31_3 C 0.74321(18) 0.1542(5) 0.11575(17)
H30_3 H 0.7317 0.2201 0.1355
H31_3 H 0.7740 0.1258 0.1276
C32_3 C 0.70799(19) 0.0461(5) 0.11513(18)
H33_3 H 0.7058 0.0121 0.1456
H35_3 H 0.6037 0.0114 0.0648
C43_3 C 0.6319(2) 0.1470(5) 0.13429(18)
H43_3 H 0.6539 0.1919 0.1544
H44_3 H 0.6155 0.0846 0.1522
C44_3 C 0.5959(2) 0.2372(5) 0.1148(2)
H45_3 H 0.5743 0.1937 0.0939
H46_3 H 0.5770 0.2725 0.1391
N6_3 N 0.74862(14) 0.2032(4) 0.06947(14)
H51_3 H 0.7615 0.1449 0.0519
H52_3 H 0.7679 0.2696 0.0700
N7_3 N 0.62089(16) 0.3376(4) 0.09088(16)
H53_3 H 0.6360 0.3864 0.1110
H54_3 H 0.5996 0.3845 0.0758
N8_3 N 0.65946(14) 0.0835(4) 0.09886(13)
O13_2 O 0.69802(12) 0.4356(3) 0.00559(12)
C15_3 C 0.71752(16) 0.5097(4) 0.03492(16)
C16_3 C 0.73485(16) 0.6332(4) 0.01647(16)
O4_3 O 0.72112(14) 0.4884(3) 0.07589(12)
C29_3 C 0.77713(17) 0.8288(4) 0.02732(17)
H28_3 H 0.7954 0.8813 0.0460
C30_3 C 0.76221(18) 0.7128(4) 0.04376(17)
H29_3 H 0.7706 0.6887 0.0732
Cd1_2 Cd 0.32510(2) 0.25849(3) 0.45880(2)
C1_4 C 0.25679(18) 0.1542(5) 0.38425(17)
H1_4 H 0.2683 0.2201 0.3645
H2_4 H 0.2260 0.1258 0.3724
C2_4 C 0.29201(19) 0.0461(5) 0.38487(18)
H4_4 H 0.2942 0.0121 0.3544
H6_4 H 0.3963 0.0114 0.4352
C13_4 C 0.3681(2) 0.1470(5) 0.36571(18)
H14_4 H 0.3461 0.1919 0.3456
H15_4 H 0.3845 0.0846 0.3478
C14_4 C 0.4041(2) 0.2372(5) 0.3852(2)
H16_4 H 0.4257 0.1937 0.4061
H17_4 H 0.4230 0.2725 0.3609
C15_4 C 0.28248(16) 0.5097(4) 0.46508(16)
C16_4 C 0.26515(16) 0.6332(4) 0.48353(16)
C17_3 C 0.27713(17) 0.6712(4) 0.52732(17)
H18_3 H 0.2954 0.6187 0.5460
C18_3 C 0.26221(18) 0.7872(4) 0.54376(17)
H19_3 H 0.2706 0.8113 0.5732
C19_4 C 0.36976(18) 0.1357(4) 0.52946(16)
C20_4 C 0.39245(17) 0.0660(4) 0.56902(15)
C21_4 C 0.36462(19) 0.0112(6) 0.60165(19)
H20_4 H 0.3314 0.0171 0.5998
C26_4 C 0.4399(2) 0.0552(8) 0.5728(3)
H23_4 H 0.4591 0.0929 0.5512
N1_4 N 0.25138(14) 0.2032(4) 0.43053(14)
H24_4 H 0.2385 0.1449 0.4481
H25_4 H 0.2321 0.2696 0.4300
N2_4 N 0.37911(16) 0.3376(4) 0.40912(16)
H26_4 H 0.3640 0.3864 0.3890
H27_4 H 0.4004 0.3845 0.4242
N3_4 N 0.34054(14) 0.0835(4) 0.40114(13)
O1_4 O 0.32501(13) 0.1363(3) 0.52525(12)
O2_4 O 0.39613(14) 0.1888(4) 0.50219(14)
O3_2 O 0.30198(12) 0.4356(3) 0.49441(12)
O4_4 O 0.27888(14) 0.4884(3) 0.42411(12)
C27_3 C 0.21752(16) 0.9903(4) 0.53492(16)
C28_3 C 0.23485(16) 0.8668(4) 0.51647(16)
C29_4 C 0.22287(17) 0.8288(4) 0.47268(17)
H28_4 H 0.2046 0.8813 0.4540
C30_4 C 0.23779(18) 0.7128(4) 0.45624(17)
H29_4 H 0.2294 0.6887 0.4268
C45_4 C 0.63024(18) 0.1357(4) 0.97054(16)
C46_4 C 0.60755(17) 0.0660(4) 0.93098(15)
C47_4 C 0.63538(19) 0.0112(6) 0.89835(19)
H47_4 H 0.6686 0.0171 0.9002
C52_4 C 0.5601(2) 0.0552(8) 0.9272(3)
H50_4 H 0.5409 0.0929 0.9488
O9_4 O 0.67499(13) 0.1363(3) 0.97475(12)
O10_4 O 0.60387(14) 0.1888(4) 0.99781(14)
C17_4 C 0.72287(17) 0.6712(4) 0.97268(17)
H18_4 H 0.7046 0.6187 0.9540
C18_4 C 0.73779(18) 0.7872(4) 0.95624(17)
H19_4 H 0.7294 0.8113 0.9268
C27_4 C 0.78248(16) 0.9903(4) 0.96508(16)
C28_4 C 0.76515(16) 0.8668(4) 0.98353(16)
H32_2 H 0.7200 0.9805 0.0956
C33_2 C 0.6338(2) 0.9794(5) 0.07707(18)
H34_2 H 0.6525 0.9509 0.0516
C34_2 C 0.62282(18) 0.8662(5) 0.10672(19)
C35_2 C 0.6549(2) 0.7682(5) 0.1106(2)
H36_2 H 0.6834 0.7715 0.0949
C36_2 C 0.64521(19) 0.6652(5) 0.1373(2)
H37_2 H 0.6673 0.6000 0.1394
C37_2 C 0.60328(16) 0.6585(4) 0.16065(16)
C38_3 C 0.62749(17) 0.4693(5) 0.2053(2)
H38_3 H 0.6605 0.4737 0.2020
C39_3 C 0.60315(17) 0.3809(5) 0.22776(19)
H39_3 H 0.6170 0.3127 0.2427
C40_2 C 0.55114(16) 0.5093(4) 0.20199(16)
H40_2 H 0.5222 0.5491 0.1955
C41_2 C 0.5704(2) 0.7536(5) 0.1570(3)
H41_2 H 0.5416 0.7490 0.1722
C42_2 C 0.5809(2) 0.8573(6) 0.1301(3)
H42_2 H 0.5588 0.9224 0.1278
N9_2 N 0.59392(12) 0.5521(3) 0.18825(13)
N10_2 N 0.55488(13) 0.4056(3) 0.22549(14)
Cd6_3 Cd 0.5000 0.26230(4) 0.2500
Cd2_3 Cd 0.5000 0.73770(4) 0.7500
H3_3 H 0.2800 0.9805 0.4044
C3_3 C 0.3662(2) 0.9794(5) 0.42293(18)
H5_3 H 0.3475 0.9509 0.4484
C4_3 C 0.37718(18) 0.8662(5) 0.39328(19)
C5_3 C 0.3451(2) 0.7682(5) 0.3894(2)
H7_3 H 0.3166 0.7715 0.4051
C6_3 C 0.35479(19) 0.6652(5) 0.3627(2)
H8_3 H 0.3327 0.6000 0.3606
C7_3 C 0.39672(16) 0.6585(4) 0.33935(16)
C8_3 C 0.37251(17) 0.4693(5) 0.2947(2)
H9_3 H 0.3395 0.4737 0.2980
C9_3 C 0.39685(17) 0.3809(5) 0.27224(19)
H10_3 H 0.3830 0.3127 0.2573
C10_3 C 0.44886(16) 0.5093(4) 0.29801(16)
H11_3 H 0.4778 0.5491 0.3045
C11_3 C 0.4296(2) 0.7536(5) 0.3430(3)
H12_3 H 0.4584 0.7490 0.3278
C12_3 C 0.4191(2) 0.8573(6) 0.3699(3)
H13_3 H 0.4412 0.9224 0.3722
C22_3 C 0.3866(2) 0.9472(6) 0.6372(2)
H21_3 H 0.3675 0.9092 0.6588
C23_3 C 0.43449(17) 0.9378(4) 0.64191(16)
C24_3 C 0.4581(2) 0.8693(4) 0.68128(17)
C25_3 C 0.4617(2) 0.9880(8) 0.6088(2)
H22_3 H 0.4948 0.9779 0.6098
N4_3 N 0.40608(12) 0.5521(3) 0.31175(13)
N5_2 N 0.44512(13) 0.4056(3) 0.27451(14)
O5_3 O 0.50240(15) 0.8620(5) 0.68379(16)
O6_3 O 0.43243(16) 0.8224(5) 0.71014(17)
C48_3 C 0.6134(2) 0.9472(6) 0.8628(2)
H48_3 H 0.6325 0.9092 0.8412
C49_3 C 0.56551(17) 0.9378(4) 0.85809(16)
C50_3 C 0.5419(2) 0.8693(4) 0.81872(17)
C51_3 C 0.5383(2) 0.9880(8) 0.8912(2)
H49_3 H 0.5052 0.9779 0.8902
O11_3 O 0.49760(15) 0.8620(5) 0.81621(16)
O12_3 O 0.56757(16) 0.8224(5) 0.78986(17)
N11_2 N 0.55488(13) 0.5944(3) 0.72549(14)
N12_2 N 0.44512(13) 0.5944(3) 0.77451(14)
H3_4 H 0.7200 0.0195 0.5956
C3_4 C 0.6338(2) 0.0206(5) 0.57707(18)
H5_4 H 0.6525 0.0491 0.5516
C4_4 C 0.62282(18) 0.1338(5) 0.60672(19)
C5_4 C 0.6549(2) 0.2318(5) 0.6106(2)
H7_4 H 0.6834 0.2285 0.5949
C6_4 C 0.64521(19) 0.3348(5) 0.6373(2)
H8_4 H 0.6673 0.4000 0.6394
C7_4 C 0.60328(16) 0.3415(4) 0.66065(16)
C8_4 C 0.62749(17) 0.5307(5) 0.7053(2)
H9_4 H 0.6605 0.5263 0.7020
C9_4 C 0.60315(17) 0.6191(5) 0.72776(19)
H10_4 H 0.6170 0.6873 0.7427
C10_4 C 0.55114(16) 0.4907(4) 0.70199(16)
H11_4 H 0.5222 0.4509 0.6955
C11_4 C 0.5704(2) 0.2464(5) 0.6570(3)
H12_4 H 0.5416 0.2510 0.6722
C12_4 C 0.5809(2) 0.1427(6) 0.6301(3)
H13_4 H 0.5588 0.0776 0.6278
C22_4 C 0.6134(2) 0.0528(6) 0.3628(2)
H21_4 H 0.6325 0.0908 0.3412
C23_4 C 0.56551(17) 0.0622(4) 0.35809(16)
C24_4 C 0.5419(2) 0.1307(4) 0.31872(17)
C25_4 C 0.5383(2) 0.0120(8) 0.3912(2)
H22_4 H 0.5052 0.0221 0.3902
N4_4 N 0.59392(12) 0.4479(3) 0.68825(13)
O5_4 O 0.49760(15) 0.1380(5) 0.31621(16)
O6_4 O 0.56757(16) 0.1776(5) 0.28986(17)
C48_4 C 0.3866(2) 0.0528(6) 0.1372(2)
H48_4 H 0.3675 0.0908 0.1588
C49_4 C 0.43449(17) 0.0622(4) 0.14191(16)
C50_4 C 0.4581(2) 0.1307(4) 0.18128(17)
C51_4 C 0.4617(2) 0.0120(8) 0.1088(2)
H49_4 H 0.4948 0.0221 0.1098
O11_4 O 0.50240(15) 0.1380(5) 0.18379(16)
O12_4 O 0.43243(16) 0.1776(5) 0.21014(17)
H32_3 H 0.2800 0.0195 0.9044
C33_3 C 0.3662(2) 0.0206(5) 0.92293(18)
H34_3 H 0.3475 0.0491 0.9484
C34_3 C 0.37718(18) 0.1338(5) 0.89328(19)
C35_3 C 0.3451(2) 0.2318(5) 0.8894(2)
H36_3 H 0.3166 0.2285 0.9051
C36_3 C 0.35479(19) 0.3348(5) 0.8627(2)
H37_3 H 0.3327 0.4000 0.8606
C37_3 C 0.39672(16) 0.3415(4) 0.83935(16)
C38_4 C 0.37251(17) 0.5307(5) 0.7947(2)
H38_4 H 0.3395 0.5263 0.7980
C39_4 C 0.39685(17) 0.6191(5) 0.77224(19)
H39_4 H 0.3830 0.6873 0.7573
C40_3 C 0.44886(16) 0.4907(4) 0.79801(16)
H40_3 H 0.4778 0.4509 0.8045
C41_3 C 0.4296(2) 0.2464(5) 0.8430(3)
H41_3 H 0.4584 0.2510 0.8278
C42_3 C 0.4191(2) 0.1427(6) 0.8699(3)
H42_3 H 0.4412 0.0776 0.8722
N9_3 N 0.40608(12) 0.4479(3) 0.81175(13)
O7_4 O 0.80198(12) 0.0644(3) 0.99441(12)
O8_4 O 0.77888(14) 0.0116(3) 0.92411(12)
Cd4_4 Cd 0.82510(2) 0.24151(3) 0.95880(2)
C31_4 C 0.75679(18) 0.3458(5) 0.88425(17)
H30_4 H 0.7683 0.2799 0.8645
H31_4 H 0.7260 0.3742 0.8724
C32_4 C 0.79201(19) 0.4539(5) 0.88487(18)
H32_4 H 0.7800 0.5195 0.9044
H33_4 H 0.7942 0.4879 0.8544
C33_4 C 0.8662(2) 0.5206(5) 0.92293(18)
H34_4 H 0.8475 0.5491 0.9484
H35_4 H 0.8963 0.4886 0.9352
C34_4 C 0.87718(18) 0.6338(5) 0.89328(19)
C35_4 C 0.8451(2) 0.7318(5) 0.8894(2)
H36_4 H 0.8166 0.7285 0.9051
C36_4 C 0.85479(19) 0.8348(5) 0.8627(2)
H37_4 H 0.8327 0.9000 0.8606
C37_4 C 0.89672(16) 0.8415(4) 0.83935(16)
C40_4 C 0.94886(16) 0.9907(4) 0.79801(16)
H40_4 H 0.9778 0.9509 0.8045
C41_4 C 0.9296(2) 0.7464(5) 0.8430(3)
H41_4 H 0.9584 0.7510 0.8278
C42_4 C 0.9191(2) 0.6427(6) 0.8699(3)
H42_4 H 0.9412 0.5776 0.8722
C43_4 C 0.8681(2) 0.3530(5) 0.86571(18)
H43_4 H 0.8461 0.3081 0.8456
H44_4 H 0.8845 0.4154 0.8478
C44_4 C 0.9041(2) 0.2628(5) 0.8852(2)
H45_4 H 0.9257 0.3063 0.9061
H46_4 H 0.9230 0.2275 0.8609
N6_4 N 0.75138(14) 0.2968(4) 0.93053(14)
H51_4 H 0.7385 0.3551 0.9481
H52_4 H 0.7321 0.2304 0.9300
N7_4 N 0.87911(16) 0.1624(4) 0.90912(16)
H53_4 H 0.8640 0.1136 0.8890
H54_4 H 0.9004 0.1155 0.9242
N8_4 N 0.84054(14) 0.4165(4) 0.90114(13)
N9_4 N 0.90608(12) 0.9479(3) 0.81175(13)
loop_
_geom_bond_atom_site_label_1
_geom_bond_atom_site_label_2
_geom_bond_site_symmetry_1
_geom_bond_site_symmetry_2
Cd3 N6 1_555 1_555
C31 H30 1_555 1_555
H31 C31 1_555 1_555
C32 C31 1_555 1_555
H32 C32 1_555 1_555
H33 C32 1_555 1_555
C33 H34 1_555 1_555
H35 C33 1_555 1_555
C34 C33 1_555 1_555
C35 C34 1_555 1_555
H36 C35 1_555 1_555
C36 C35 1_555 1_555
H37 C36 1_555 1_555
C37 C36 1_555 1_555
C40 H40 1_555 1_555
C41 C37 1_555 1_555
H41 C41 1_555 1_555
C42 C34 1_555 1_555
H42 C42 1_555 1_555
C43 H43 1_555 1_555
H44 C43 1_555 1_555
C44 C43 1_555 1_555
H45 C44 1_555 1_555
H46 C44 1_555 1_555
N6 C31 1_555 1_555
H51 N6 1_555 1_555
H52 N6 1_555 1_555
N7 Cd3 1_555 1_555
H53 N7 1_555 1_555
H54 N7 1_555 1_555
N8 Cd3 1_555 1_555
N9 C37 1_555 1_555
O13 Cd3 1_555 1_555
C32 N8 1_555 1_555
C33 N8 1_555 1_555
C40 N9 1_555 1_555
C41 C42 1_555 1_555
C43 N8 1_555 1_555
C44 N7 1_555 1_555
Cd2 O5 1_555 1_555
C45 C46 1_555 1_555
C46 C47 1_555 1_555
C47 H47 1_555 1_555
C48 C47 1_555 1_555
H48 C48 1_555 1_555
C49 C48 1_555 1_555
C50 C49 1_555 1_555
C51 C49 1_555 1_555
H49 C51 1_555 1_555
C52 C46 1_555 1_555
H50 C52 1_555 1_555
O12 Cd2 1_555 1_555
N11 Cd2 1_555 1_555
C45 O9 1_555 1_555
C45 O10 1_555 1_555
C50 O12 1_555 1_555
C51 C52 1_555 1_555
C8 H9 1_555 1_555
C9 C8 1_555 1_555
H10 C9 1_555 1_555
N11 C9 1_555 1_555
C38 H38 1_555 1_555
C39 C38 1_555 1_555
H39 C39 1_555 1_555
N10 C39 1_555 1_555
Cd6 N10 1_555 1_555
Cd4 O7 1_555 1_555
Cd4 N1 1_555 1_555
C1 H1 1_555 1_555
H2 C1 1_555 1_555
C2 C1 1_555 1_555
H3 C2 1_555 1_555
H4 C2 1_555 1_555
C3 H5 1_555 1_555
H6 C3 1_555 1_555
C4 C3 1_555 1_555
C5 C4 1_555 1_555
H7 C5 1_555 1_555
C6 C5 1_555 1_555
H8 C6 1_555 1_555
C7 C6 1_555 1_555
C10 H11 1_555 1_555
C11 C7 1_555 1_555
H12 C11 1_555 1_555
C12 C4 1_555 1_555
H13 C12 1_555 1_555
C13 H14 1_555 1_555
H15 C13 1_555 1_555
C14 C13 1_555 1_555
H16 C14 1_555 1_555
H17 C14 1_555 1_555
C19 C20 1_555 1_555
C20 C21 1_555 1_555
C21 H20 1_555 1_555
C22 C21 1_555 1_555
H21 C22 1_555 1_555
C23 C22 1_555 1_555
C24 C23 1_555 1_555
C25 C23 1_555 1_555
H22 C25 1_555 1_555
C26 C20 1_555 1_555
H23 C26 1_555 1_555
N1 C1 1_555 1_555
H24 N1 1_555 1_555
H25 N1 1_555 1_555
N2 Cd4 1_555 1_555
H26 N2 1_555 1_555
H27 N2 1_555 1_555
N3 Cd4 1_555 1_555
N4 C7 1_555 1_555
O1 Cd4 1_555 1_555
O2 Cd4 1_555 1_555
O6 Cd6 1_555 1_555
O11 Cd6 1_555 1_555
C2 N3 1_555 1_555
C3 N3 1_555 1_555
C10 N4 1_555 1_555
C11 C12 1_555 1_555
C13 N3 1_555 1_555
C14 N2 1_555 1_555
C19 O1 1_555 1_555
C19 O2 1_555 1_555
C24 O6 1_555 1_555
C25 C26 1_555 1_555
C15 C16 1_555 1_555
C16 C17 1_555 1_555
C17 H18 1_555 1_555
C18 C17 1_555 1_555
H19 C18 1_555 1_555
C27 C28 1_555 1_555
C28 C18 1_555 1_555
C29 C28 1_555 1_555
H28 C29 1_555 1_555
C30 C16 1_555 1_555
H29 C30 1_555 1_555
O7_2 C27 1_555 1_555
O8_2 C27 1_555 1_555
Cd4_2 O7_2 1_555 1_555
C29 C30 1_555 1_555
C15_2 C16_2 1_555 1_555
H28_2 C29_2 1_555 1_555
C30_2 C16_2 1_555 1_555
H29_2 C30_2 1_555 1_555
C29_2 C30_2 1_555 1_555
Cd4_2 N1_2 1_555 1_555
C1_2 H1_2 1_555 1_555
H2_2 C1_2 1_555 1_555
C2_2 C1_2 1_555 1_555
H4_2 C2_2 1_555 1_555
C13_2 H14_2 1_555 1_555
H15_2 C13_2 1_555 1_555
C14_2 C13_2 1_555 1_555
H16_2 C14_2 1_555 1_555
H17_2 C14_2 1_555 1_555
C19_2 C20_2 1_555 1_555
C20_2 C21_2 1_555 1_555
C21_2 H20_2 1_555 1_555
C26_2 C20_2 1_555 1_555
H23_2 C26_2 1_555 1_555
N1_2 C1_2 1_555 1_555
H24_2 N1_2 1_555 1_555
H25_2 N1_2 1_555 1_555
N2_2 Cd4_2 1_555 1_555
H26_2 N2_2 1_555 1_555
H27_2 N2_2 1_555 1_555
N3_2 Cd4_2 1_555 1_555
O1_2 Cd4_2 1_555 1_555
O2_2 Cd4_2 1_555 1_555
C45_2 C46_2 1_555 1_555
C46_2 C47_2 1_555 1_555
C47_2 H47_2 1_555 1_555
C52_2 C46_2 1_555 1_555
H50_2 C52_2 1_555 1_555
C2_2 N3_2 1_555 1_555
C13_2 N3_2 1_555 1_555
C14_2 N2_2 1_555 1_555
C19_2 O1_2 1_555 1_555
C19_2 O2_2 1_555 1_555
C45_2 O9_2 1_555 1_555
C45_2 O10_2 1_555 1_555
Cd1 N1_3 1_555 1_555
C1_3 H1_3 1_555 1_555
H2_3 C1_3 1_555 1_555
C2_3 C1_3 1_555 1_555
H3_2 C2_3 1_555 1_555
H4_3 C2_3 1_555 1_555
C3_2 H5_2 1_555 1_555
H6_3 C3_2 1_555 1_555
C4_2 C3_2 1_555 1_555
C5_2 C4_2 1_555 1_555
H7_2 C5_2 1_555 1_555
C6_2 C5_2 1_555 1_555
H8_2 C6_2 1_555 1_555
C7_2 C6_2 1_555 1_555
C10_2 H11_2 1_555 1_555
C11_2 C7_2 1_555 1_555
H12_2 C11_2 1_555 1_555
C12_2 C4_2 1_555 1_555
H13_2 C12_2 1_555 1_555
C13_3 H14_3 1_555 1_555
H15_3 C13_3 1_555 1_555
C14_3 C13_3 1_555 1_555
H16_3 C14_3 1_555 1_555
H17_3 C14_3 1_555 1_555
C19_3 C20_3 1_555 1_555
C20_3 C21_3 1_555 1_555
C21_3 H20_3 1_555 1_555
C22_2 C21_3 1_555 1_555
H21_2 C22_2 1_555 1_555
C23_2 C22_2 1_555 1_555
C24_2 C23_2 1_555 1_555
C25_2 C23_2 1_555 1_555
H22_2 C25_2 1_555 1_555
C26_3 C20_3 1_555 1_555
H23_3 C26_3 1_555 1_555
N1_3 C1_3 1_555 1_555
H24_3 N1_3 1_555 1_555
H25_3 N1_3 1_555 1_555
N2_3 Cd1 1_555 1_555
H26_3 N2_3 1_555 1_555
H27_3 N2_3 1_555 1_555
N3_3 Cd1 1_555 1_555
N4_2 C7_2 1_555 1_555
O1_3 Cd1 1_555 1_555
O2_3 Cd1 1_555 1_555
O3 Cd1 1_555 1_555
O6_2 Cd2_2 1_555 1_555
O11_2 Cd2_2 1_555 1_555
N12 Cd2_2 1_555 1_555
C2_3 N3_3 1_555 1_555
C3_2 N3_3 1_555 1_555
C10_2 N4_2 1_555 1_555
C11_2 C12_2 1_555 1_555
C13_3 N3_3 1_555 1_555
C14_3 N2_3 1_555 1_555
C19_3 O1_3 1_555 1_555
C19_3 O2_3 1_555 1_555
C24_2 O6_2 1_555 1_555
C25_2 C26_3 1_555 1_555
C38_2 H38_2 1_555 1_555
C39_2 C38_2 1_555 1_555
H39_2 C39_2 1_555 1_555
N12 C39_2 1_555 1_555
C8_2 H9_2 1_555 1_555
C9_2 C8_2 1_555 1_555
H10_2 C9_2 1_555 1_555
N5 C9_2 1_555 1_555
Cd6_2 N5 1_555 1_555
Cd6_2 O5_2 1_555 1_555
C45_3 C46_3 1_555 1_555
C46_3 C47_3 1_555 1_555
C47_3 H47_3 1_555 1_555
C48_2 C47_3 1_555 1_555
H48_2 C48_2 1_555 1_555
C49_2 C48_2 1_555 1_555
C50_2 C49_2 1_555 1_555
C51_2 C49_2 1_555 1_555
H49_2 C51_2 1_555 1_555
C52_3 C46_3 1_555 1_555
H50_3 C52_3 1_555 1_555
O12_2 Cd6_2 1_555 1_555
C45_3 O9_3 1_555 1_555
C45_3 O10_3 1_555 1_555
C50_2 O12_2 1_555 1_555
C51_2 C52_3 1_555 1_555
C17_2 H18_2 1_555 1_555
C18_2 C17_2 1_555 1_555
H19_2 C18_2 1_555 1_555
C27_2 C28_2 1_555 1_555
C28_2 C18_2 1_555 1_555
O7_3 C27_2 1_555 1_555
O8_3 C27_2 1_555 1_555
Cd4_3 O7_3 1_555 1_555
Cd4_3 N6_2 1_555 1_555
C31_2 H30_2 1_555 1_555
H31_2 C31_2 1_555 1_555
C32_2 C31_2 1_555 1_555
H33_2 C32_2 1_555 1_555
C43_2 H43_2 1_555 1_555
H44_2 C43_2 1_555 1_555
C44_2 C43_2 1_555 1_555
H45_2 C44_2 1_555 1_555
H46_2 C44_2 1_555 1_555
N6_2 C31_2 1_555 1_555
H51_2 N6_2 1_555 1_555
H52_2 N6_2 1_555 1_555
N7_2 Cd4_3 1_555 1_555
H53_2 N7_2 1_555 1_555
H54_2 N7_2 1_555 1_555
N8_2 Cd4_3 1_555 1_555
C32_2 N8_2 1_555 1_555
C43_2 N8_2 1_555 1_555
C44_2 N7_2 1_555 1_555
Cd3_2 N6_3 1_555 1_555
C31_3 H30_3 1_555 1_555
H31_3 C31_3 1_555 1_555
C32_3 C31_3 1_555 1_555
H33_3 C32_3 1_555 1_555
C43_3 H43_3 1_555 1_555
H44_3 C43_3 1_555 1_555
C44_3 C43_3 1_555 1_555
H45_3 C44_3 1_555 1_555
H46_3 C44_3 1_555 1_555
N6_3 C31_3 1_555 1_555
H51_3 N6_3 1_555 1_555
H52_3 N6_3 1_555 1_555
N7_3 Cd3_2 1_555 1_555
H53_3 N7_3 1_555 1_555
H54_3 N7_3 1_555 1_555
N8_3 Cd3_2 1_555 1_555
O13_2 Cd3_2 1_555 1_555
C32_3 N8_3 1_555 1_555
C43_3 N8_3 1_555 1_555
C44_3 N7_3 1_555 1_555
C15_3 C16_3 1_555 1_555
O4_3 C15_3 1_555 1_555
H28_3 C29_3 1_555 1_555
C30_3 C16_3 1_555 1_555
H29_3 C30_3 1_555 1_555
C15_3 O13_2 1_555 1_555
C29_3 C30_3 1_555 1_555
Cd1_2 N1_4 1_555 1_555
C1_4 H1_4 1_555 1_555
H2_4 C1_4 1_555 1_555
C2_4 C1_4 1_555 1_555
H4_4 C2_4 1_555 1_555
C13_4 H14_4 1_555 1_555
H15_4 C13_4 1_555 1_555
C14_4 C13_4 1_555 1_555
H16_4 C14_4 1_555 1_555
H17_4 C14_4 1_555 1_555
C15_4 C16_4 1_555 1_555
C16_4 C17_3 1_555 1_555
C17_3 H18_3 1_555 1_555
C18_3 C17_3 1_555 1_555
H19_3 C18_3 1_555 1_555
C19_4 C20_4 1_555 1_555
C20_4 C21_4 1_555 1_555
C21_4 H20_4 1_555 1_555
C26_4 C20_4 1_555 1_555
H23_4 C26_4 1_555 1_555
N1_4 C1_4 1_555 1_555
H24_4 N1_4 1_555 1_555
H25_4 N1_4 1_555 1_555
N2_4 Cd1_2 1_555 1_555
H26_4 N2_4 1_555 1_555
H27_4 N2_4 1_555 1_555
N3_4 Cd1_2 1_555 1_555
O1_4 Cd1_2 1_555 1_555
O2_4 Cd1_2 1_555 1_555
O3_2 Cd1_2 1_555 1_555
O4_4 C15_4 1_555 1_555
C27_3 C28_3 1_555 1_555
C28_3 C18_3 1_555 1_555
C29_4 C28_3 1_555 1_555
H28_4 C29_4 1_555 1_555
C30_4 C16_4 1_555 1_555
H29_4 C30_4 1_555 1_555
C45_4 C46_4 1_555 1_555
C46_4 C47_4 1_555 1_555
C47_4 H47_4 1_555 1_555
C52_4 C46_4 1_555 1_555
H50_4 C52_4 1_555 1_555
C2_4 N3_4 1_555 1_555
C13_4 N3_4 1_555 1_555
C14_4 N2_4 1_555 1_555
C15_4 O3_2 1_555 1_555
C19_4 O1_4 1_555 1_555
C19_4 O2_4 1_555 1_555
C29_4 C30_4 1_555 1_555
C45_4 O9_4 1_555 1_555
C45_4 O10_4 1_555 1_555
C17_4 H18_4 1_555 1_555
C18_4 C17_4 1_555 1_555
H19_4 C18_4 1_555 1_555
C27_4 C28_4 1_555 1_555
C28_4 C18_4 1_555 1_555
C33_2 H34_2 1_555 1_555
C34_2 C33_2 1_555 1_555
C35_2 C34_2 1_555 1_555
H36_2 C35_2 1_555 1_555
C36_2 C35_2 1_555 1_555
H37_2 C36_2 1_555 1_555
C37_2 C36_2 1_555 1_555
C38_3 H38_3 1_555 1_555
C39_3 C38_3 1_555 1_555
H39_3 C39_3 1_555 1_555
C40_2 H40_2 1_555 1_555
C41_2 C37_2 1_555 1_555
H41_2 C41_2 1_555 1_555
C42_2 C34_2 1_555 1_555
H42_2 C42_2 1_555 1_555
N9_2 C37_2 1_555 1_555
N10_2 C39_3 1_555 1_555
Cd6_3 N10_2 1_555 1_555
C38_3 N9_2 1_555 1_555
C40_2 N9_2 1_555 1_555
C40_2 N10_2 1_555 1_555
C41_2 C42_2 1_555 1_555
Cd2_3 O5_3 1_555 1_555
C3_3 H5_3 1_555 1_555
C4_3 C3_3 1_555 1_555
C5_3 C4_3 1_555 1_555
H7_3 C5_3 1_555 1_555
C6_3 C5_3 1_555 1_555
H8_3 C6_3 1_555 1_555
C7_3 C6_3 1_555 1_555
C8_3 H9_3 1_555 1_555
C9_3 C8_3 1_555 1_555
H10_3 C9_3 1_555 1_555
C10_3 H11_3 1_555 1_555
C11_3 C7_3 1_555 1_555
H12_3 C11_3 1_555 1_555
C12_3 C4_3 1_555 1_555
H13_3 C12_3 1_555 1_555
H21_3 C22_3 1_555 1_555
C23_3 C22_3 1_555 1_555
C24_3 C23_3 1_555 1_555
C25_3 C23_3 1_555 1_555
H22_3 C25_3 1_555 1_555
N4_3 C7_3 1_555 1_555
N5_2 C9_3 1_555 1_555
O5_3 C24_3 1_555 1_555
O6_3 Cd2_3 1_555 1_555
H48_3 C48_3 1_555 1_555
C49_3 C48_3 1_555 1_555
C50_3 C49_3 1_555 1_555
C51_3 C49_3 1_555 1_555
H49_3 C51_3 1_555 1_555
O11_3 Cd2_3 1_555 1_555
O12_3 Cd2_3 1_555 1_555
Cd6_3 N5_2 1_555 1_555
N11_2 Cd2_3 1_555 1_555
N12_2 Cd2_3 1_555 1_555
C8_3 N4_3 1_555 1_555
C10_3 N4_3 1_555 1_555
C10_3 N5_2 1_555 1_555
C11_3 C12_3 1_555 1_555
C24_3 O6_3 1_555 1_555
C50_3 O11_3 1_555 1_555
C50_3 O12_3 1_555 1_555
Cd6_3 O5_4 1_555 1_555
C3_4 H5_4 1_555 1_555
C4_4 C3_4 1_555 1_555
C5_4 C4_4 1_555 1_555
H7_4 C5_4 1_555 1_555
C6_4 C5_4 1_555 1_555
H8_4 C6_4 1_555 1_555
C7_4 C6_4 1_555 1_555
C8_4 H9_4 1_555 1_555
C9_4 C8_4 1_555 1_555
H10_4 C9_4 1_555 1_555
C10_4 H11_4 1_555 1_555
C11_4 C7_4 1_555 1_555
H12_4 C11_4 1_555 1_555
C12_4 C4_4 1_555 1_555
H13_4 C12_4 1_555 1_555
H21_4 C22_4 1_555 1_555
C23_4 C22_4 1_555 1_555
C24_4 C23_4 1_555 1_555
C25_4 C23_4 1_555 1_555
H22_4 C25_4 1_555 1_555
N4_4 C7_4 1_555 1_555
N11_2 C9_4 1_555 1_555
O5_4 C24_4 1_555 1_555
O6_4 Cd6_3 1_555 1_555
H48_4 C48_4 1_555 1_555
C49_4 C48_4 1_555 1_555
C50_4 C49_4 1_555 1_555
C51_4 C49_4 1_555 1_555
H49_4 C51_4 1_555 1_555
O11_4 Cd6_3 1_555 1_555
O12_4 Cd6_3 1_555 1_555
C8_4 N4_4 1_555 1_555
C10_4 N4_4 1_555 1_555
C10_4 N11_2 1_555 1_555
C11_4 C12_4 1_555 1_555
C24_4 O6_4 1_555 1_555
C50_4 O11_4 1_555 1_555
C50_4 O12_4 1_555 1_555
C33_3 H34_3 1_555 1_555
C34_3 C33_3 1_555 1_555
C35_3 C34_3 1_555 1_555
H36_3 C35_3 1_555 1_555
C36_3 C35_3 1_555 1_555
H37_3 C36_3 1_555 1_555
C37_3 C36_3 1_555 1_555
C38_4 H38_4 1_555 1_555
C39_4 C38_4 1_555 1_555
H39_4 C39_4 1_555 1_555
C40_3 H40_3 1_555 1_555
C41_3 C37_3 1_555 1_555
H41_3 C41_3 1_555 1_555
C42_3 C34_3 1_555 1_555
H42_3 C42_3 1_555 1_555
N9_3 C37_3 1_555 1_555
N12_2 C39_4 1_555 1_555
C38_4 N9_3 1_555 1_555
C40_3 N9_3 1_555 1_555
C40_3 N12_2 1_555 1_555
C41_3 C42_3 1_555 1_555
Cd4_4 O7_4 1_555 1_555
Cd4_4 N6_4 1_555 1_555
C31_4 H30_4 1_555 1_555
H31_4 C31_4 1_555 1_555
C32_4 C31_4 1_555 1_555
H32_4 C32_4 1_555 1_555
H33_4 C32_4 1_555 1_555
C33_4 H34_4 1_555 1_555
H35_4 C33_4 1_555 1_555
C34_4 C33_4 1_555 1_555
C35_4 C34_4 1_555 1_555
H36_4 C35_4 1_555 1_555
C36_4 C35_4 1_555 1_555
H37_4 C36_4 1_555 1_555
C37_4 C36_4 1_555 1_555
C40_4 H40_4 1_555 1_555
C41_4 C37_4 1_555 1_555
H41_4 C41_4 1_555 1_555
C42_4 C34_4 1_555 1_555
H42_4 C42_4 1_555 1_555
C43_4 H43_4 1_555 1_555
H44_4 C43_4 1_555 1_555
C44_4 C43_4 1_555 1_555
H45_4 C44_4 1_555 1_555
H46_4 C44_4 1_555 1_555
N6_4 C31_4 1_555 1_555
H51_4 N6_4 1_555 1_555
H52_4 N6_4 1_555 1_555
N7_4 Cd4_4 1_555 1_555
H53_4 N7_4 1_555 1_555
H54_4 N7_4 1_555 1_555
N8_4 Cd4_4 1_555 1_555
N9_4 C37_4 1_555 1_555
C32_4 N8_4 1_555 1_555
C33_4 N8_4 1_555 1_555
C40_4 N9_4 1_555 1_555
C41_4 C42_4 1_555 1_555
C43_4 N8_4 1_555 1_555
C44_4 N7_4 1_555 1_555

#END
