
###############################################################################
#
# This file contains modified crystal structure data generated from the
# MOF subset of the Cambridge Structural Database (CSD) v543 
# hosted by the Cambridge Crystallographic Data Centre (CCDC).
#
# This work is licensed under the Creative Commons
# Attribution-NonCommercial-ShareAlike 4.0 International License.
# To view a copy of this license, visit
# http://creativecommons.org/licenses/by-nc-sa/4.0/
# or send a letter to
# Creative Commons, PO Box 1866, Mountain View, CA 94042, USA.
#
# CIF created using the CSD Python API on 29 September 2022
# The structure has been converted into the P1 space group
# The structure has a 3D framework
# The original CSD entry DIGYIE is in the tetragonal crystal system
# The framework has been calculated to contain at least 10.0% void space
# The void calculation uses a probe of radius 1.32A, grid spacing 0.4
#
###############################################################################

data_DIGYIE
_chemical_formula_moiety         '(C212 H244 Co8 N116 O60 4-)n'
_symmetry_cell_setting           triclinic
_symmetry_space_group_name_H-M   'P 1'
_symmetry_Int_Tables_number      1
_space_group_name_Hall           'P 1'
loop_
_symmetry_equiv_pos_site_id
_symmetry_equiv_pos_as_xyz
1 x,y,z
_cell_length_a                   23.711(3)
_cell_length_b                   23.711(3)
_cell_length_c                   13.355(3)
_cell_angle_alpha                90
_cell_angle_beta                 90
_cell_angle_gamma                90
_cell_volume                     7508.33
loop_
_atom_site_label
_atom_site_type_symbol
_atom_site_fract_x
_atom_site_fract_y
_atom_site_fract_z
N1 N 0.16604(17) 0.20421(15) 0.0843(3)
N3 N 0.20798(16) 0.05833(15) 0.0805(3)
C1 C 0.1971(3) 0.2500 0.0654(5)
H1 H 0.2342 0.2500 0.0428
C2 C 0.1135(3) 0.2215(2) 0.1160(4)
H2 H 0.0835 0.1983 0.1340
C5 C 0.1843(2) 0.14779(18) 0.0645(3)
C6 C 0.1880(2) 0.1038(2) 0.1311(3)
C7 C 0.1738(3) 0.1037(2) 0.2413(4)
H6 H 0.1605 0.1403 0.2605
H7 H 0.1451 0.0762 0.2541
H8 H 0.2070 0.0945 0.2792
N4 N 0.16604(17) 0.29579(15) 0.0843(3)
N6 N 0.20798(16) 0.44167(15) 0.0805(3)
C8 C 0.1135(3) 0.2785(2) 0.1160(4)
H9 H 0.0835 0.3017 0.1340
C11 C 0.1843(2) 0.35221(18) 0.0645(3)
C12 C 0.1880(2) 0.3962(2) 0.1311(3)
C13 C 0.1738(3) 0.3963(2) 0.2413(4)
H13 H 0.1605 0.3597 0.2605
H14 H 0.1451 0.4238 0.2541
H15 H 0.2070 0.4055 0.2792
Co3 Co 0.23167(2) 0.51833(2) 0.1250
Co1 Co 0.23167(2) 0.01833(2) 0.8750
N2 N 0.21521(16) 0.07316(15) 0.9838(3)
C3 C 0.2070(3) 0.1594(2) 0.8741(3)
H3 H 0.1958 0.1980 0.8832
H4 H 0.2453 0.1580 0.8509
H5 H 0.1828 0.1418 0.8257
C4 C 0.2024(2) 0.12848(18) 0.9725(3)
N5 N 0.21521(16) 0.42684(15) 0.9838(3)
C9 C 0.2070(3) 0.3406(2) 0.8741(3)
H10 H 0.1958 0.3020 0.8832
H11 H 0.2453 0.3420 0.8509
H12 H 0.1828 0.3582 0.8257
C10 C 0.2024(2) 0.37152(18) 0.9725(3)
Co4 Co 0.23167(2) 0.48167(2) 0.8750
N7 N 0.17684(15) 0.03479(16) 0.7662(3)
N8 N 0.30833(15) 0.04202(16) 0.8305(3)
Co2 Co 0.23167(2) 0.98167(2) 0.1250
N9 N 0.20798(16) 0.94167(15) 0.9195(3)
Co2_2 Co 0.26833(2) 0.01833(2) 0.6250
N9_2 N 0.29202(16) 0.05833(15) 0.4195(3)
Co1_2 Co 0.26833(2) 0.98167(2) 0.3750
N1_2 N 0.33396(17) 0.79579(15) 0.5843(3)
N2_2 N 0.28479(16) 0.92684(15) 0.4838(3)
N3_2 N 0.29202(16) 0.94167(15) 0.5805(3)
C1_2 C 0.3029(3) 0.7500 0.5654(5)
H1_2 H 0.2658 0.7500 0.5428
C2_2 C 0.3865(3) 0.7785(2) 0.6160(4)
H2_2 H 0.4165 0.8017 0.6340
C3_2 C 0.2930(3) 0.8406(2) 0.3741(3)
H3_2 H 0.3042 0.8020 0.3832
H4_2 H 0.2547 0.8420 0.3509
H5_2 H 0.3172 0.8582 0.3257
C4_2 C 0.2976(2) 0.87152(18) 0.4725(3)
C5_2 C 0.3157(2) 0.85221(18) 0.5645(3)
C6_2 C 0.3120(2) 0.8962(2) 0.6311(3)
C7_2 C 0.3262(3) 0.8963(2) 0.7413(4)
H6_2 H 0.3395 0.8597 0.7605
H7_2 H 0.3549 0.9238 0.7541
H8_2 H 0.2930 0.9055 0.7792
N4_2 N 0.33396(17) 0.70421(15) 0.5843(3)
N5_2 N 0.28479(16) 0.57316(15) 0.4838(3)
N6_2 N 0.29202(16) 0.55833(15) 0.5805(3)
C8_2 C 0.3865(3) 0.7215(2) 0.6160(4)
H9_2 H 0.4165 0.6983 0.6340
C9_2 C 0.2930(3) 0.6594(2) 0.3741(3)
H10_2 H 0.3042 0.6980 0.3832
H11_2 H 0.2547 0.6580 0.3509
H12_2 H 0.3172 0.6418 0.3257
C10_2 C 0.2976(2) 0.62848(18) 0.4725(3)
C11_2 C 0.3157(2) 0.64779(18) 0.5645(3)
C12_2 C 0.3120(2) 0.6038(2) 0.6311(3)
C13_2 C 0.3262(3) 0.6037(2) 0.7413(4)
H13_2 H 0.3395 0.6403 0.7605
H14_2 H 0.3549 0.5762 0.7541
H15_2 H 0.2930 0.5945 0.7792
Co3_2 Co 0.26833(2) 0.48167(2) 0.6250
Co4_2 Co 0.26833(2) 0.51833(2) 0.3750
N7_2 N 0.32316(15) 0.96521(16) 0.2662(3)
N8_2 N 0.19167(15) 0.95798(16) 0.3305(3)
N1_3 N 0.04579(15) 0.91604(17) 0.3343(3)
N2_3 N 0.17684(15) 0.96521(16) 0.2338(3)
C1_3 C 0.0000 0.9471(3) 0.3154(5)
H1_3 H -0.0000 0.9842 0.2928
C2_3 C 0.0285(2) 0.8635(3) 0.3660(4)
H2_3 H 0.0517 0.8335 0.3840
C3_3 C 0.0906(2) 0.9570(3) 0.1241(3)
H3_3 H 0.0520 0.9458 0.1332
H4_3 H 0.0920 0.9953 0.1009
H5_3 H 0.1082 0.9328 0.0757
C4_3 C 0.12152(18) 0.9524(2) 0.2225(3)
C5_3 C 0.10221(18) 0.9343(2) 0.3145(3)
C6_3 C 0.1462(2) 0.9380(2) 0.3811(3)
C7_3 C 0.1463(2) 0.9238(3) 0.4913(4)
H6_3 H 0.1097 0.9105 0.5105
H7_3 H 0.1738 0.8951 0.5041
H8_3 H 0.1555 0.9570 0.5292
N7_3 N 0.21521(16) 0.92684(15) 0.0162(3)
N9_3 N 0.30833(15) 0.95798(16) 0.1695(3)
C1_4 C 1.0000 0.9471(3) 0.3154(5)
H1_4 H 1.0000 0.9842 0.2928
N4_3 N 0.95421(15) 0.91604(17) 0.3343(3)
N5_3 N 0.82316(15) 0.96521(16) 0.2338(3)
N6_3 N 0.80833(15) 0.95798(16) 0.3305(3)
C8_3 C 0.9715(2) 0.8635(3) 0.3660(4)
H9_3 H 0.9483 0.8335 0.3840
C9_3 C 0.9094(2) 0.9570(3) 0.1241(3)
H10_3 H 0.9480 0.9458 0.1332
H11_3 H 0.9080 0.9953 0.1009
H12_3 H 0.8918 0.9328 0.0757
C10_3 C 0.87848(18) 0.9524(2) 0.2225(3)
C11_3 C 0.89779(18) 0.9343(2) 0.3145(3)
C12_3 C 0.8538(2) 0.9380(2) 0.3811(3)
C13_3 C 0.8537(2) 0.9238(3) 0.4913(4)
H13_3 H 0.8903 0.9105 0.5105
H14_3 H 0.8262 0.8951 0.5041
H15_3 H 0.8445 0.9570 0.5292
Co3_3 Co 0.73167(2) 0.98167(2) 0.3750
Co4_3 Co 0.76833(2) 0.98167(2) 0.1250
N1_4 N 0.45421(15) 0.08396(17) 0.8343(3)
N2_4 N 0.32316(15) 0.03479(16) 0.7338(3)
C1_5 C 0.5000 0.0529(3) 0.8154(5)
H1_5 H 0.5000 0.0158 0.7928
C2_4 C 0.4715(2) 0.1365(3) 0.8660(4)
H2_4 H 0.4483 0.1665 0.8840
C3_4 C 0.4094(2) 0.0430(3) 0.6241(3)
H3_4 H 0.4480 0.0542 0.6332
H4_4 H 0.4080 0.0047 0.6009
H5_4 H 0.3918 0.0672 0.5757
C4_4 C 0.37848(18) 0.0476(2) 0.7225(3)
C5_4 C 0.39779(18) 0.0657(2) 0.8145(3)
C6_4 C 0.3538(2) 0.0620(2) 0.8811(3)
C7_4 C 0.3537(2) 0.0762(3) 0.9913(4)
N4_4 N 0.54579(15) 0.08396(17) 0.8343(3)
N5_4 N 0.67684(15) 0.03479(16) 0.7338(3)
N6_4 N 0.69167(15) 0.04202(16) 0.8305(3)
C8_4 C 0.5285(2) 0.1365(3) 0.8660(4)
H9_4 H 0.5517 0.1665 0.8840
C9_4 C 0.5906(2) 0.0430(3) 0.6241(3)
H10_4 H 0.5520 0.0542 0.6332
H11_4 H 0.5920 0.0047 0.6009
H12_4 H 0.6082 0.0672 0.5757
C10_4 C 0.62152(18) 0.0476(2) 0.7225(3)
C11_4 C 0.60221(18) 0.0657(2) 0.8145(3)
C12_4 C 0.6462(2) 0.0620(2) 0.8811(3)
C13_4 C 0.6463(2) 0.0762(3) 0.9913(4)
Co3_4 Co 0.76833(2) 0.01833(2) 0.8750
Co4_4 Co 0.73167(2) 0.01833(2) 0.6250
N7_4 N 0.28479(16) 0.07316(15) 0.5162(3)
N9_4 N 0.19167(15) 0.04202(16) 0.6695(3)
N1_5 N 0.33396(17) 0.20421(15) 0.4157(3)
C1_6 C 0.3029(3) 0.2500 0.4346(5)
H1_6 H 0.2658 0.2500 0.4572
C2_5 C 0.3865(3) 0.2215(2) 0.3840(4)
H2_5 H 0.4165 0.1983 0.3660
C3_5 C 0.2930(3) 0.1594(2) 0.6259(3)
H3_5 H 0.3042 0.1980 0.6168
H4_5 H 0.2547 0.1580 0.6491
H5_5 H 0.3172 0.1418 0.6743
C4_5 C 0.2976(2) 0.12848(18) 0.5275(3)
C5_5 C 0.3157(2) 0.14779(18) 0.4355(3)
C6_5 C 0.3120(2) 0.1038(2) 0.3689(3)
C7_5 C 0.3262(3) 0.1037(2) 0.2587(4)
H6_4 H 0.3395 0.1403 0.2395
H7_4 H 0.3549 0.0762 0.2459
H8_4 H 0.2930 0.0945 0.2208
N4_5 N 0.33396(17) 0.29579(15) 0.4157(3)
N5_5 N 0.28479(16) 0.42684(15) 0.5162(3)
N6_5 N 0.29202(16) 0.44167(15) 0.4195(3)
C8_5 C 0.3865(3) 0.2785(2) 0.3840(4)
H9_5 H 0.4165 0.3017 0.3660
C9_5 C 0.2930(3) 0.3406(2) 0.6259(3)
H10_5 H 0.3042 0.3020 0.6168
H11_5 H 0.2547 0.3420 0.6491
H12_5 H 0.3172 0.3582 0.6743
C10_5 C 0.2976(2) 0.37152(18) 0.5275(3)
C11_5 C 0.3157(2) 0.35221(18) 0.4355(3)
C12_5 C 0.3120(2) 0.3962(2) 0.3689(3)
C13_5 C 0.3262(3) 0.3963(2) 0.2587(4)
H13_4 H 0.3395 0.3597 0.2395
H14_4 H 0.3549 0.4238 0.2459
H15_4 H 0.2930 0.4055 0.2208
C3_6 C 0.2070(3) 0.8406(2) 0.1259(3)
H3_6 H 0.1958 0.8020 0.1168
H4_6 H 0.2453 0.8420 0.1491
H5_6 H 0.1828 0.8582 0.1743
C4_6 C 0.2024(2) 0.87152(18) 0.0275(3)
N5_6 N 0.21521(16) 0.57316(15) 0.0162(3)
C9_6 C 0.2070(3) 0.6594(2) 0.1259(3)
H10_6 H 0.1958 0.6980 0.1168
H11_6 H 0.2453 0.6580 0.1491
H12_6 H 0.1828 0.6418 0.1743
C10_6 C 0.2024(2) 0.62848(18) 0.0275(3)
N1_6 N 0.16604(17) 0.79579(15) 0.9157(3)
C1_7 C 0.1971(3) 0.7500 0.9346(5)
H1_7 H 0.2342 0.7500 0.9572
C2_6 C 0.1135(3) 0.7785(2) 0.8840(4)
H2_6 H 0.0835 0.8017 0.8660
C5_6 C 0.1843(2) 0.85221(18) 0.9355(3)
C6_6 C 0.1880(2) 0.8962(2) 0.8689(3)
C7_6 C 0.1738(3) 0.8963(2) 0.7587(4)
H6_5 H 0.1605 0.8597 0.7395
H7_5 H 0.1451 0.9238 0.7459
H8_5 H 0.2070 0.9055 0.7208
N4_6 N 0.16604(17) 0.70421(15) 0.9157(3)
N6_6 N 0.20798(16) 0.55833(15) 0.9195(3)
C8_6 C 0.1135(3) 0.7215(2) 0.8840(4)
H9_6 H 0.0835 0.6983 0.8660
C11_6 C 0.1843(2) 0.64779(18) 0.9355(3)
C12_6 C 0.1880(2) 0.6038(2) 0.8689(3)
C13_6 C 0.1738(3) 0.6037(2) 0.7587(4)
H13_5 H 0.1605 0.6403 0.7395
H14_5 H 0.1451 0.5762 0.7459
H15_5 H 0.2070 0.5945 0.7208
N1_7 N 0.45421(15) 0.91604(17) 0.1657(3)
C1_8 C 0.5000 0.9471(3) 0.1846(5)
H1_8 H 0.5000 0.9842 0.2072
C2_7 C 0.4715(2) 0.8635(3) 0.1340(4)
H2_7 H 0.4483 0.8335 0.1160
C3_7 C 0.4094(2) 0.9570(3) 0.3759(3)
H3_7 H 0.4480 0.9458 0.3668
H4_7 H 0.4080 0.9953 0.3991
H5_7 H 0.3918 0.9328 0.4243
C4_7 C 0.37848(18) 0.9524(2) 0.2775(3)
C5_7 C 0.39779(18) 0.9343(2) 0.1855(3)
C6_7 C 0.3538(2) 0.9380(2) 0.1189(3)
C7_7 C 0.3537(2) 0.9238(3) 0.0087(4)
N4_7 N 0.54579(15) 0.91604(17) 0.1657(3)
N5_7 N 0.67684(15) 0.96521(16) 0.2662(3)
N6_7 N 0.69167(15) 0.95798(16) 0.1695(3)
C8_7 C 0.5285(2) 0.8635(3) 0.1340(4)
H9_7 H 0.5517 0.8335 0.1160
C9_7 C 0.5906(2) 0.9570(3) 0.3759(3)
H10_7 H 0.5520 0.9458 0.3668
H11_7 H 0.5920 0.9953 0.3991
H12_7 H 0.6082 0.9328 0.4243
C10_7 C 0.62152(18) 0.9524(2) 0.2775(3)
C11_7 C 0.60221(18) 0.9343(2) 0.1855(3)
C12_7 C 0.6462(2) 0.9380(2) 0.1189(3)
C13_7 C 0.6463(2) 0.9238(3) 0.0087(4)
N1_8 N 0.04579(15) 0.08396(17) 0.6657(3)
C1_9 C 0.0000 0.0529(3) 0.6846(5)
H1_9 H 0.0000 0.0158 0.7072
C2_8 C 0.0285(2) 0.1365(3) 0.6340(4)
H2_8 H 0.0517 0.1665 0.6160
C3_8 C 0.0906(2) 0.0430(3) 0.8759(3)
H3_8 H 0.0520 0.0542 0.8668
H4_8 H 0.0920 0.0047 0.8991
H5_8 H 0.1082 0.0672 0.9243
C4_8 C 0.12152(18) 0.0476(2) 0.7775(3)
C5_8 C 0.10221(18) 0.0657(2) 0.6855(3)
C6_8 C 0.1462(2) 0.0620(2) 0.6189(3)
C7_8 C 0.1463(2) 0.0762(3) 0.5087(4)
H6_6 H 0.1097 0.0895 0.4895
H7_6 H 0.1738 0.1049 0.4959
H8_6 H 0.1555 0.0430 0.4708
C1_10 C 1.0000 0.0529(3) 0.6846(5)
H1_10 H 1.0000 0.0158 0.7072
N4_8 N 0.95421(15) 0.08396(17) 0.6657(3)
N5_8 N 0.82316(15) 0.03479(16) 0.7662(3)
N6_8 N 0.80833(15) 0.04202(16) 0.6695(3)
C8_8 C 0.9715(2) 0.1365(3) 0.6340(4)
H9_8 H 0.9483 0.1665 0.6160
C9_8 C 0.9094(2) 0.0430(3) 0.8759(3)
H10_8 H 0.9480 0.0542 0.8668
H11_8 H 0.9080 0.0047 0.8991
H12_8 H 0.8918 0.0672 0.9243
C10_8 C 0.87848(18) 0.0476(2) 0.7775(3)
C11_8 C 0.89779(18) 0.0657(2) 0.6855(3)
C12_8 C 0.8538(2) 0.0620(2) 0.6189(3)
C13_8 C 0.8537(2) 0.0762(3) 0.5087(4)
H13_6 H 0.8903 0.0895 0.4895
H14_6 H 0.8262 0.1049 0.4959
H15_6 H 0.8445 0.0430 0.4708
Co1_3 Co 0.73167(2) 0.51833(2) 0.3750
N1_9 N 0.66604(17) 0.70421(15) 0.5843(3)
N2_5 N 0.71521(16) 0.57316(15) 0.4838(3)
N3_3 N 0.70798(16) 0.55833(15) 0.5805(3)
C1_11 C 0.6971(3) 0.7500 0.5654(5)
H1_11 H 0.7342 0.7500 0.5428
C2_9 C 0.6135(3) 0.7215(2) 0.6160(4)
H2_9 H 0.5835 0.6983 0.6340
C3_9 C 0.7070(3) 0.6594(2) 0.3741(3)
H3_9 H 0.6958 0.6980 0.3832
H4_9 H 0.7453 0.6580 0.3509
H5_9 H 0.6828 0.6418 0.3257
C4_9 C 0.7024(2) 0.62848(18) 0.4725(3)
C5_9 C 0.6843(2) 0.64779(18) 0.5645(3)
C6_9 C 0.6880(2) 0.6038(2) 0.6311(3)
C7_9 C 0.6738(3) 0.6037(2) 0.7413(4)
H6_7 H 0.6605 0.6403 0.7605
H7_7 H 0.6451 0.5762 0.7541
H8_7 H 0.7070 0.5945 0.7792
N4_9 N 0.66604(17) 0.79579(15) 0.5843(3)
N5_9 N 0.71521(16) 0.92684(15) 0.4838(3)
N6_9 N 0.70798(16) 0.94167(15) 0.5805(3)
C8_9 C 0.6135(3) 0.7785(2) 0.6160(4)
H9_9 H 0.5835 0.8017 0.6340
C9_9 C 0.7070(3) 0.8406(2) 0.3741(3)
H10_9 H 0.6958 0.8020 0.3832
H11_9 H 0.7453 0.8420 0.3509
H12_9 H 0.6828 0.8582 0.3257
C10_9 C 0.7024(2) 0.87152(18) 0.4725(3)
C11_9 C 0.6843(2) 0.85221(18) 0.5645(3)
C12_9 C 0.6880(2) 0.8962(2) 0.6311(3)
C13_9 C 0.6738(3) 0.8963(2) 0.7413(4)
H13_7 H 0.6605 0.8597 0.7605
H14_7 H 0.6451 0.9238 0.7541
H15_7 H 0.7070 0.9055 0.7792
Co2_3 Co 0.73167(2) 0.48167(2) 0.6250
N7_5 N 0.67684(15) 0.53479(16) 0.2662(3)
N8_3 N 0.80833(15) 0.54202(16) 0.3305(3)
N9_5 N 0.70798(16) 0.44167(15) 0.4195(3)
N1_10 N 0.83396(17) 0.29579(15) 0.0843(3)
N3_4 N 0.79202(16) 0.44167(15) 0.0805(3)
C1_12 C 0.8029(3) 0.2500 0.0654(5)
H1_12 H 0.7658 0.2500 0.0428
C2_10 C 0.8865(3) 0.2785(2) 0.1160(4)
H2_10 H 0.9165 0.3017 0.1340
C5_10 C 0.8157(2) 0.35221(18) 0.0645(3)
C6_10 C 0.8120(2) 0.3962(2) 0.1311(3)
C7_10 C 0.8262(3) 0.3963(2) 0.2413(4)
H6_8 H 0.8395 0.3597 0.2605
H7_8 H 0.8549 0.4238 0.2541
H8_8 H 0.7930 0.4055 0.2792
N4_10 N 0.83396(17) 0.20421(15) 0.0843(3)
N6_10 N 0.79202(16) 0.05833(15) 0.0805(3)
C8_10 C 0.8865(3) 0.2215(2) 0.1160(4)
H9_10 H 0.9165 0.1983 0.1340
C11_10 C 0.8157(2) 0.14779(18) 0.0645(3)
C12_10 C 0.8120(2) 0.1038(2) 0.1311(3)
C13_10 C 0.8262(3) 0.1037(2) 0.2413(4)
H13_8 H 0.8395 0.1403 0.2605
H14_8 H 0.8549 0.0762 0.2541
H15_8 H 0.7930 0.0945 0.2792
Co2_4 Co 0.76833(2) 0.51833(2) 0.1250
Co1_4 Co 0.76833(2) 0.48167(2) 0.8750
N2_6 N 0.78479(16) 0.42684(15) 0.9838(3)
C3_10 C 0.7930(3) 0.3406(2) 0.8741(3)
H3_10 H 0.8042 0.3020 0.8832
H4_10 H 0.7547 0.3420 0.8509
H5_10 H 0.8172 0.3582 0.8257
C4_10 C 0.7976(2) 0.37152(18) 0.9725(3)
N5_10 N 0.78479(16) 0.07316(15) 0.9838(3)
C9_10 C 0.7930(3) 0.1594(2) 0.8741(3)
H10_10 H 0.8042 0.1980 0.8832
H11_10 H 0.7547 0.1580 0.8509
H12_10 H 0.8172 0.1418 0.8257
C10_10 C 0.7976(2) 0.12848(18) 0.9725(3)
N7_6 N 0.82316(15) 0.46521(16) 0.7662(3)
N8_4 N 0.69167(15) 0.45798(16) 0.8305(3)
N9_6 N 0.79202(16) 0.55833(15) 0.9195(3)
N1_11 N 0.54579(15) 0.41604(17) 0.8343(3)
N2_7 N 0.67684(15) 0.46521(16) 0.7338(3)
C1_13 C 0.5000 0.4471(3) 0.8154(5)
H1_13 H 0.5000 0.4842 0.7928
C2_11 C 0.5285(2) 0.3635(3) 0.8660(4)
H2_11 H 0.5517 0.3335 0.8840
C3_11 C 0.5906(2) 0.4570(3) 0.6241(3)
H3_11 H 0.5520 0.4458 0.6332
H4_11 H 0.5920 0.4953 0.6009
H5_11 H 0.6082 0.4328 0.5757
C4_11 C 0.62152(18) 0.4524(2) 0.7225(3)
C5_11 C 0.60221(18) 0.4343(2) 0.8145(3)
C6_11 C 0.6462(2) 0.4380(2) 0.8811(3)
C7_11 C 0.6463(2) 0.4238(3) 0.9913(4)
N4_11 N 0.45421(15) 0.41604(17) 0.8343(3)
N5_11 N 0.32316(15) 0.46521(16) 0.7338(3)
N6_11 N 0.30833(15) 0.45798(16) 0.8305(3)
C8_11 C 0.4715(2) 0.3635(3) 0.8660(4)
H9_11 H 0.4483 0.3335 0.8840
C9_11 C 0.4094(2) 0.4570(3) 0.6241(3)
H10_11 H 0.4480 0.4458 0.6332
H11_11 H 0.4080 0.4953 0.6009
H12_11 H 0.3918 0.4328 0.5757
C10_11 C 0.37848(18) 0.4524(2) 0.7225(3)
C11_11 C 0.39779(18) 0.4343(2) 0.8145(3)
C12_11 C 0.3538(2) 0.4380(2) 0.8811(3)
C13_11 C 0.3537(2) 0.4238(3) 0.9913(4)
N7_7 N 0.71521(16) 0.42684(15) 0.5162(3)
N9_7 N 0.80833(15) 0.45798(16) 0.6695(3)
C1_14 C -0.0000 0.5529(3) 0.3154(5)
H1_14 H -0.0000 0.5158 0.2928
N4_12 N 0.04579(15) 0.58396(17) 0.3343(3)
N5_12 N 0.17684(15) 0.53479(16) 0.2338(3)
N6_12 N 0.19167(15) 0.54202(16) 0.3305(3)
C8_12 C 0.0285(2) 0.6365(3) 0.3660(4)
H9_12 H 0.0517 0.6665 0.3840
C9_12 C 0.0906(2) 0.5430(3) 0.1241(3)
H10_12 H 0.0520 0.5542 0.1332
H11_12 H 0.0920 0.5047 0.1009
H12_12 H 0.1082 0.5672 0.0757
C10_12 C 0.12152(18) 0.5476(2) 0.2225(3)
C11_12 C 0.10221(18) 0.5657(2) 0.3145(3)
C12_12 C 0.1462(2) 0.5620(2) 0.3811(3)
C13_12 C 0.1463(2) 0.5762(3) 0.4913(4)
H13_9 H 0.1097 0.5895 0.5105
H14_9 H 0.1738 0.6049 0.5041
H15_9 H 0.1555 0.5430 0.5292
N1_12 N 0.95421(15) 0.58396(17) 0.3343(3)
N2_8 N 0.82316(15) 0.53479(16) 0.2338(3)
C1_15 C 1.0000 0.5529(3) 0.3154(5)
H1_15 H 1.0000 0.5158 0.2928
C2_12 C 0.9715(2) 0.6365(3) 0.3660(4)
H2_12 H 0.9483 0.6665 0.3840
C3_12 C 0.9094(2) 0.5430(3) 0.1241(3)
H3_12 H 0.9480 0.5542 0.1332
H4_12 H 0.9080 0.5047 0.1009
H5_12 H 0.8918 0.5672 0.0757
C4_12 C 0.87848(18) 0.5476(2) 0.2225(3)
C5_12 C 0.89779(18) 0.5657(2) 0.3145(3)
C6_12 C 0.8538(2) 0.5620(2) 0.3811(3)
C7_12 C 0.8537(2) 0.5762(3) 0.4913(4)
H6_9 H 0.8903 0.5895 0.5105
H7_9 H 0.8262 0.6049 0.5041
H8_9 H 0.8445 0.5430 0.5292
N7_8 N 0.78479(16) 0.57316(15) 0.0162(3)
N9_8 N 0.69167(15) 0.54202(16) 0.1695(3)
C3_13 C 0.7930(3) 0.6594(2) 0.1259(3)
H3_13 H 0.8042 0.6980 0.1168
H4_13 H 0.7547 0.6580 0.1491
H5_13 H 0.8172 0.6418 0.1743
C4_13 C 0.7976(2) 0.62848(18) 0.0275(3)
N5_13 N 0.78479(16) 0.92684(15) 0.0162(3)
C9_13 C 0.7930(3) 0.8406(2) 0.1259(3)
H10_13 H 0.8042 0.8020 0.1168
H11_13 H 0.7547 0.8420 0.1491
H12_13 H 0.8172 0.8582 0.1743
C10_13 C 0.7976(2) 0.87152(18) 0.0275(3)
N1_13 N 0.83396(17) 0.70421(15) 0.9157(3)
C1_16 C 0.8029(3) 0.7500 0.9346(5)
H1_16 H 0.7658 0.7500 0.9572
C2_13 C 0.8865(3) 0.7215(2) 0.8840(4)
H2_13 H 0.9165 0.6983 0.8660
C5_13 C 0.8157(2) 0.64779(18) 0.9355(3)
C6_13 C 0.8120(2) 0.6038(2) 0.8689(3)
C7_13 C 0.8262(3) 0.6037(2) 0.7587(4)
H6_10 H 0.8395 0.6403 0.7395
H7_10 H 0.8549 0.5762 0.7459
H8_10 H 0.7930 0.5945 0.7208
N4_13 N 0.83396(17) 0.79579(15) 0.9157(3)
N6_13 N 0.79202(16) 0.94167(15) 0.9195(3)
C8_13 C 0.8865(3) 0.7785(2) 0.8840(4)
H9_13 H 0.9165 0.8017 0.8660
C11_13 C 0.8157(2) 0.85221(18) 0.9355(3)
C12_13 C 0.8120(2) 0.8962(2) 0.8689(3)
C13_13 C 0.8262(3) 0.8963(2) 0.7587(4)
H13_10 H 0.8395 0.8597 0.7395
H14_10 H 0.8549 0.9238 0.7459
H15_10 H 0.7930 0.9055 0.7208
N1_14 N 0.66604(17) 0.29579(15) 0.4157(3)
C1_17 C 0.6971(3) 0.2500 0.4346(5)
H1_17 H 0.7342 0.2500 0.4572
C2_14 C 0.6135(3) 0.2785(2) 0.3840(4)
H2_14 H 0.5835 0.3017 0.3660
C3_14 C 0.7070(3) 0.3406(2) 0.6259(3)
H3_14 H 0.6958 0.3020 0.6168
H4_14 H 0.7453 0.3420 0.6491
H5_14 H 0.6828 0.3582 0.6743
C4_14 C 0.7024(2) 0.37152(18) 0.5275(3)
C5_14 C 0.6843(2) 0.35221(18) 0.4355(3)
C6_14 C 0.6880(2) 0.3962(2) 0.3689(3)
C7_14 C 0.6738(3) 0.3963(2) 0.2587(4)
H6_11 H 0.6605 0.3597 0.2395
H7_11 H 0.6451 0.4238 0.2459
H8_11 H 0.7070 0.4055 0.2208
N4_14 N 0.66604(17) 0.20421(15) 0.4157(3)
N5_14 N 0.71521(16) 0.07316(15) 0.5162(3)
N6_14 N 0.70798(16) 0.05833(15) 0.4195(3)
C8_14 C 0.6135(3) 0.2215(2) 0.3840(4)
H9_14 H 0.5835 0.1983 0.3660
C9_14 C 0.7070(3) 0.1594(2) 0.6259(3)
H10_14 H 0.6958 0.1980 0.6168
H11_14 H 0.7453 0.1580 0.6491
H12_14 H 0.6828 0.1418 0.6743
C10_14 C 0.7024(2) 0.12848(18) 0.5275(3)
C11_14 C 0.6843(2) 0.14779(18) 0.4355(3)
C12_14 C 0.6880(2) 0.1038(2) 0.3689(3)
C13_14 C 0.6738(3) 0.1037(2) 0.2587(4)
H13_11 H 0.6605 0.1403 0.2395
H14_11 H 0.6451 0.0762 0.2459
H15_11 H 0.7070 0.0945 0.2208
C1_18 C 0.0000 0.4471(3) 0.6846(5)
H1_18 H 0.0000 0.4842 0.7072
N4_15 N 0.04579(15) 0.41604(17) 0.6657(3)
N5_15 N 0.17684(15) 0.46521(16) 0.7662(3)
N6_15 N 0.19167(15) 0.45798(16) 0.6695(3)
C8_15 C 0.0285(2) 0.3635(3) 0.6340(4)
H9_15 H 0.0517 0.3335 0.6160
C9_15 C 0.0906(2) 0.4570(3) 0.8759(3)
H10_15 H 0.0520 0.4458 0.8668
H11_15 H 0.0920 0.4953 0.8991
H12_15 H 0.1082 0.4328 0.9243
C10_15 C 0.12152(18) 0.4524(2) 0.7775(3)
C11_15 C 0.10221(18) 0.4343(2) 0.6855(3)
C12_15 C 0.1462(2) 0.4380(2) 0.6189(3)
C13_15 C 0.1463(2) 0.4238(3) 0.5087(4)
H13_12 H 0.1097 0.4105 0.4895
H14_12 H 0.1738 0.3951 0.4959
H15_12 H 0.1555 0.4570 0.4708
N1_15 N 0.95421(15) 0.41604(17) 0.6657(3)
C1_19 C 1.0000 0.4471(3) 0.6846(5)
H1_19 H 1.0000 0.4842 0.7072
C2_15 C 0.9715(2) 0.3635(3) 0.6340(4)
H2_15 H 0.9483 0.3335 0.6160
C3_15 C 0.9094(2) 0.4570(3) 0.8759(3)
H3_15 H 0.9480 0.4458 0.8668
H4_15 H 0.9080 0.4953 0.8991
H5_15 H 0.8918 0.4328 0.9243
C4_15 C 0.87848(18) 0.4524(2) 0.7775(3)
C5_15 C 0.89779(18) 0.4343(2) 0.6855(3)
C6_15 C 0.8538(2) 0.4380(2) 0.6189(3)
C7_15 C 0.8537(2) 0.4238(3) 0.5087(4)
H6_12 H 0.8903 0.4105 0.4895
H7_12 H 0.8262 0.3951 0.4959
H8_12 H 0.8445 0.4570 0.4708
N1_16 N 0.54579(15) 0.58396(17) 0.1657(3)
C1_20 C 0.5000 0.5529(3) 0.1846(5)
H1_20 H 0.5000 0.5158 0.2072
C2_16 C 0.5285(2) 0.6365(3) 0.1340(4)
H2_16 H 0.5517 0.6665 0.1160
C3_16 C 0.5906(2) 0.5430(3) 0.3759(3)
H3_16 H 0.5520 0.5542 0.3668
H4_16 H 0.5920 0.5047 0.3991
H5_16 H 0.6082 0.5672 0.4243
C4_16 C 0.62152(18) 0.5476(2) 0.2775(3)
C5_16 C 0.60221(18) 0.5657(2) 0.1855(3)
C6_16 C 0.6462(2) 0.5620(2) 0.1189(3)
C7_16 C 0.6463(2) 0.5762(3) 0.0087(4)
N4_16 N 0.45421(15) 0.58396(17) 0.1657(3)
N5_16 N 0.32316(15) 0.53479(16) 0.2662(3)
N6_16 N 0.30833(15) 0.54202(16) 0.1695(3)
C8_16 C 0.4715(2) 0.6365(3) 0.1340(4)
H9_16 H 0.4483 0.6665 0.1160
C9_16 C 0.4094(2) 0.5430(3) 0.3759(3)
H10_16 H 0.4480 0.5542 0.3668
H11_16 H 0.4080 0.5047 0.3991
H12_16 H 0.3918 0.5672 0.4243
C10_16 C 0.37848(18) 0.5476(2) 0.2775(3)
C11_16 C 0.39779(18) 0.5657(2) 0.1855(3)
C12_16 C 0.3538(2) 0.5620(2) 0.1189(3)
C13_16 C 0.3537(2) 0.5762(3) 0.0087(4)
H6_13 H 0.3903 0.0895 0.0105
H7_13 H 0.3262 0.1049 0.0041
H8_13 H 0.3445 0.0430 0.0292
H13_13 H 0.6097 0.0895 0.0105
H14_13 H 0.6738 0.1049 0.0041
H15_13 H 0.6555 0.0430 0.0292
H6_14 H 0.3903 0.9105 0.9895
H7_14 H 0.3262 0.8951 0.9959
H8_14 H 0.3445 0.9570 0.9708
H13_14 H 0.6097 0.9105 0.9895
H14_14 H 0.6738 0.8951 0.9959
H15_14 H 0.6555 0.9570 0.9708
H6_15 H 0.6097 0.4105 0.0105
H7_15 H 0.6738 0.3951 0.0041
H8_15 H 0.6555 0.4570 0.0292
H13_15 H 0.3903 0.4105 0.0105
H14_15 H 0.3262 0.3951 0.0041
H15_15 H 0.3445 0.4570 0.0292
H6_16 H 0.6097 0.5895 0.9895
H7_16 H 0.6738 0.6049 0.9959
H8_16 H 0.6555 0.5430 0.9708
H13_16 H 0.3903 0.5895 0.9895
H14_16 H 0.3262 0.6049 0.9959
H15_16 H 0.3445 0.5430 0.9708
O1 O -0.0000 0.1449(6) 0.1499(14)
O2 O 0.0000 0.0701(5) 0.2366(16)
O3 O -0.0000 0.0673(11) 0.0822(19)
N10 N -0.0000 0.0957(5) 0.1593(15)
O1_2 O 1.0000 0.1449(6) 0.1499(14)
O2_2 O 1.0000 0.0701(5) 0.2366(16)
O3_2 O 1.0000 0.0673(11) 0.0822(19)
N10_2 N 1.0000 0.0957(5) 0.1593(15)
O1_3 O 0.5000 0.8551(6) 0.6499(14)
O2_3 O 0.5000 0.9299(5) 0.7366(16)
O3_3 O 0.5000 0.9327(11) 0.5822(19)
N10_3 N 0.5000 0.9043(5) 0.6593(15)
O1_4 O 0.1051(6) 0.7500 0.3999(14)
O2_4 O 0.1799(5) 0.7500 0.4866(16)
O3_4 O 0.1827(11) 0.7500 0.3322(19)
N10_4 N 0.1543(5) 0.7500 0.4093(15)
O1_5 O 0.3949(6) 0.2500 0.8999(14)
O2_5 O 0.3201(5) 0.2500 0.9866(16)
O3_5 O 0.3173(11) 0.2500 0.8322(19)
N10_5 N 0.3457(5) 0.2500 0.9093(15)
O1_6 O 0.5000 0.1449(6) 0.3501(14)
O2_6 O 0.5000 0.0701(5) 0.2634(16)
O3_6 O 0.5000 0.0673(11) 0.4178(19)
N10_6 N 0.5000 0.0957(5) 0.3407(15)
O1_7 O 0.0000 0.8551(6) 0.8501(14)
O2_7 O 0.0000 0.9299(5) 0.7634(16)
O3_7 O 0.0000 0.9327(11) 0.9178(19)
N10_7 N -0.0000 0.9043(5) 0.8407(15)
O1_8 O 1.0000 0.8551(6) 0.8501(14)
O2_8 O 1.0000 0.9299(5) 0.7634(16)
O3_8 O 1.0000 0.9327(11) 0.9178(19)
N10_8 N 1.0000 0.9043(5) 0.8407(15)
O1_9 O 0.3949(6) 0.7500 0.1001(14)
O2_9 O 0.3201(5) 0.7500 0.0134(16)
O3_9 O 0.3173(11) 0.7500 0.1678(19)
N10_9 N 0.3457(5) 0.7500 0.0907(15)
O1_10 O 0.1051(6) 0.2500 0.6001(14)
O2_10 O 0.1799(5) 0.2500 0.5134(16)
O3_10 O 0.1827(11) 0.2500 0.6678(19)
N10_10 N 0.1543(5) 0.2500 0.5907(15)
O1_11 O 0.5000 0.6449(6) 0.6499(14)
O2_11 O 0.5000 0.5701(5) 0.7366(16)
O3_11 O 0.5000 0.5673(11) 0.5822(19)
N10_11 N 0.5000 0.5957(5) 0.6593(15)
O1_12 O -0.0000 0.3551(6) 0.1499(14)
O2_12 O -0.0000 0.4299(5) 0.2366(16)
O3_12 O -0.0000 0.4327(11) 0.0822(19)
N10_12 N -0.0000 0.4043(5) 0.1593(15)
O1_13 O 1.0000 0.3551(6) 0.1499(14)
O2_13 O 1.0000 0.4299(5) 0.2366(16)
O3_13 O 1.0000 0.4327(11) 0.0822(19)
N10_13 N 1.0000 0.4043(5) 0.1593(15)
O1_14 O 0.6051(6) 0.2500 0.8999(14)
O2_14 O 0.6799(5) 0.2500 0.9866(16)
O3_14 O 0.6827(11) 0.2500 0.8322(19)
N10_14 N 0.6543(5) 0.2500 0.9093(15)
O1_15 O 0.8949(6) 0.7500 0.3999(14)
O2_15 O 0.8201(5) 0.7500 0.4866(16)
O3_15 O 0.8173(11) 0.7500 0.3322(19)
N10_15 N 0.8457(5) 0.7500 0.4093(15)
O1_16 O -0.0000 0.6449(6) 0.8501(14)
O2_16 O -0.0000 0.5701(5) 0.7634(16)
O3_16 O 0.0000 0.5673(11) 0.9178(19)
N10_16 N 0.0000 0.5957(5) 0.8407(15)
O1_17 O 1.0000 0.6449(6) 0.8501(14)
O2_17 O 1.0000 0.5701(5) 0.7634(16)
O3_17 O 1.0000 0.5673(11) 0.9178(19)
N10_17 N 1.0000 0.5957(5) 0.8407(15)
O1_18 O 0.5000 0.3551(6) 0.3501(14)
O2_18 O 0.5000 0.4299(5) 0.2634(16)
O3_18 O 0.5000 0.4327(11) 0.4178(19)
N10_18 N 0.5000 0.4043(5) 0.3407(15)
O1_19 O 0.8949(6) 0.2500 0.6001(14)
O2_19 O 0.8201(5) 0.2500 0.5134(16)
O3_19 O 0.8173(11) 0.2500 0.6678(19)
N10_19 N 0.8457(5) 0.2500 0.5907(15)
O1_20 O 0.6051(6) 0.7500 0.1001(14)
O2_20 O 0.6799(5) 0.7500 0.0134(16)
O3_20 O 0.6827(11) 0.7500 0.1678(19)
N10_20 N 0.6543(5) 0.7500 0.0907(15)
loop_
_geom_bond_atom_site_label_1
_geom_bond_atom_site_label_2
_geom_bond_site_symmetry_1
_geom_bond_site_symmetry_2
N1 C1 1_555 1_555
N3 C6 1_555 1_555
C1 H1 1_555 1_555
C2 N1 1_555 1_555
H2 C2 1_555 1_555
C5 N1 1_555 1_555
C6 C5 1_555 1_555
C7 C6 1_555 1_555
H6 C7 1_555 1_555
H7 C7 1_555 1_555
H8 C7 1_555 1_555
N4 C1 1_555 1_555
N6 C12 1_555 1_555
C8 C2 1_555 1_555
H9 C8 1_555 1_555
C11 N4 1_555 1_555
C12 C11 1_555 1_555
C13 C12 1_555 1_555
H13 C13 1_555 1_555
H14 C13 1_555 1_555
H15 C13 1_555 1_555
Co3 N6 1_555 1_555
N4 C8 1_555 1_555
Co1 N2 1_555 1_555
C3 H3 1_555 1_555
H4 C3 1_555 1_555
H5 C3 1_555 1_555
C4 N2 1_555 1_555
C9 H10 1_555 1_555
H11 C9 1_555 1_555
H12 C9 1_555 1_555
C10 N5 1_555 1_555
Co4 N5 1_555 1_555
N7 Co1 1_555 1_555
N8 Co1 1_555 1_555
C3 C4 1_555 1_555
C9 C10 1_555 1_555
Co1_2 N2_2 1_555 1_555
N1_2 C1_2 1_555 1_555
N2_2 N3_2 1_555 1_555
N3_2 C6_2 1_555 1_555
C1_2 H1_2 1_555 1_555
C2_2 N1_2 1_555 1_555
H2_2 C2_2 1_555 1_555
C3_2 H3_2 1_555 1_555
H4_2 C3_2 1_555 1_555
H5_2 C3_2 1_555 1_555
C4_2 N2_2 1_555 1_555
C5_2 N1_2 1_555 1_555
C6_2 C5_2 1_555 1_555
C7_2 C6_2 1_555 1_555
H6_2 C7_2 1_555 1_555
H7_2 C7_2 1_555 1_555
H8_2 C7_2 1_555 1_555
N4_2 C1_2 1_555 1_555
N5_2 N6_2 1_555 1_555
N6_2 C12_2 1_555 1_555
C8_2 C2_2 1_555 1_555
H9_2 C8_2 1_555 1_555
C9_2 H10_2 1_555 1_555
H11_2 C9_2 1_555 1_555
H12_2 C9_2 1_555 1_555
C10_2 N5_2 1_555 1_555
C11_2 N4_2 1_555 1_555
C12_2 C11_2 1_555 1_555
C13_2 C12_2 1_555 1_555
H13_2 C13_2 1_555 1_555
H14_2 C13_2 1_555 1_555
H15_2 C13_2 1_555 1_555
Co3_2 N6_2 1_555 1_555
Co4_2 N5_2 1_555 1_555
N7_2 Co1_2 1_555 1_555
N8_2 Co1_2 1_555 1_555
C3_2 C4_2 1_555 1_555
C4_2 C5_2 1_555 1_555
N4_2 C8_2 1_555 1_555
C9_2 C10_2 1_555 1_555
C10_2 C11_2 1_555 1_555
Co2 N2_3 1_555 1_555
N1_3 C1_3 1_555 1_555
N2_3 N8_2 1_555 1_555
N8_2 C6_3 1_555 1_555
C1_3 H1_3 1_555 1_555
C2_3 N1_3 1_555 1_555
H2_3 C2_3 1_555 1_555
C3_3 H3_3 1_555 1_555
H4_3 C3_3 1_555 1_555
H5_3 C3_3 1_555 1_555
C4_3 N2_3 1_555 1_555
C5_3 N1_3 1_555 1_555
C6_3 C5_3 1_555 1_555
C7_3 C6_3 1_555 1_555
H6_3 C7_3 1_555 1_555
H7_3 C7_3 1_555 1_555
H8_3 C7_3 1_555 1_555
N7_3 Co2 1_555 1_555
N9_3 Co2 1_555 1_555
C3_3 C4_3 1_555 1_555
C4_3 C5_3 1_555 1_555
C1_4 H1_4 1_555 1_555
N4_3 C1_4 1_555 1_555
N5_3 N6_3 1_555 1_555
N6_3 C12_3 1_555 1_555
H9_3 C8_3 1_555 1_555
C9_3 H10_3 1_555 1_555
H11_3 C9_3 1_555 1_555
H12_3 C9_3 1_555 1_555
C10_3 N5_3 1_555 1_555
C11_3 N4_3 1_555 1_555
C12_3 C11_3 1_555 1_555
C13_3 C12_3 1_555 1_555
H13_3 C13_3 1_555 1_555
H14_3 C13_3 1_555 1_555
H15_3 C13_3 1_555 1_555
Co3_3 N6_3 1_555 1_555
Co4_3 N5_3 1_555 1_555
N4_3 C8_3 1_555 1_555
C9_3 C10_3 1_555 1_555
C10_3 C11_3 1_555 1_555
Co2_2 N2_4 1_555 1_555
N1_4 C1_5 1_555 1_555
N2_4 N8 1_555 1_555
N8 C6_4 1_555 1_555
C1_5 H1_5 1_555 1_555
C2_4 N1_4 1_555 1_555
H2_4 C2_4 1_555 1_555
C3_4 H3_4 1_555 1_555
H4_4 C3_4 1_555 1_555
H5_4 C3_4 1_555 1_555
C4_4 N2_4 1_555 1_555
C5_4 N1_4 1_555 1_555
C6_4 C5_4 1_555 1_555
C7_4 C6_4 1_555 1_555
N4_4 C1_5 1_555 1_555
N5_4 N6_4 1_555 1_555
N6_4 C12_4 1_555 1_555
C8_4 C2_4 1_555 1_555
H9_4 C8_4 1_555 1_555
C9_4 H10_4 1_555 1_555
H11_4 C9_4 1_555 1_555
H12_4 C9_4 1_555 1_555
C10_4 N5_4 1_555 1_555
C11_4 N4_4 1_555 1_555
C12_4 C11_4 1_555 1_555
C13_4 C12_4 1_555 1_555
Co3_4 N6_4 1_555 1_555
Co4_4 N5_4 1_555 1_555
N7_4 Co2_2 1_555 1_555
N9_4 Co2_2 1_555 1_555
C3_4 C4_4 1_555 1_555
C4_4 C5_4 1_555 1_555
N4_4 C8_4 1_555 1_555
C9_4 C10_4 1_555 1_555
C10_4 C11_4 1_555 1_555
N1_5 C1_6 1_555 1_555
N7_4 N9_2 1_555 1_555
N9_2 C6_5 1_555 1_555
C1_6 H1_6 1_555 1_555
C2_5 N1_5 1_555 1_555
H2_5 C2_5 1_555 1_555
C3_5 H3_5 1_555 1_555
H4_5 C3_5 1_555 1_555
H5_5 C3_5 1_555 1_555
C4_5 N7_4 1_555 1_555
C5_5 N1_5 1_555 1_555
C6_5 C5_5 1_555 1_555
C7_5 C6_5 1_555 1_555
H6_4 C7_5 1_555 1_555
H7_4 C7_5 1_555 1_555
H8_4 C7_5 1_555 1_555
N4_5 C1_6 1_555 1_555
N5_5 N6_5 1_555 1_555
N6_5 C12_5 1_555 1_555
C8_5 C2_5 1_555 1_555
H9_5 C8_5 1_555 1_555
C9_5 H10_5 1_555 1_555
H11_5 C9_5 1_555 1_555
H12_5 C9_5 1_555 1_555
C10_5 N5_5 1_555 1_555
C11_5 N4_5 1_555 1_555
C12_5 C11_5 1_555 1_555
C13_5 C12_5 1_555 1_555
H13_4 C13_5 1_555 1_555
H14_4 C13_5 1_555 1_555
H15_4 C13_5 1_555 1_555
Co4_2 N6_5 1_555 1_555
Co3_2 N5_5 1_555 1_555
C3_5 C4_5 1_555 1_555
C4_5 C5_5 1_555 1_555
N4_5 C8_5 1_555 1_555
C9_5 C10_5 1_555 1_555
C10_5 C11_5 1_555 1_555
C3_6 H3_6 1_555 1_555
H4_6 C3_6 1_555 1_555
H5_6 C3_6 1_555 1_555
C4_6 N7_3 1_555 1_555
C9_6 H10_6 1_555 1_555
H11_6 C9_6 1_555 1_555
H12_6 C9_6 1_555 1_555
C10_6 N5_6 1_555 1_555
Co3 N5_6 1_555 1_555
C3_6 C4_6 1_555 1_555
C9_6 C10_6 1_555 1_555
N1_6 C1_7 1_555 1_555
N9 C6_6 1_555 1_555
C1_7 H1_7 1_555 1_555
C2_6 N1_6 1_555 1_555
H2_6 C2_6 1_555 1_555
C5_6 N1_6 1_555 1_555
C6_6 C5_6 1_555 1_555
C7_6 C6_6 1_555 1_555
H6_5 C7_6 1_555 1_555
H7_5 C7_6 1_555 1_555
H8_5 C7_6 1_555 1_555
N4_6 C1_7 1_555 1_555
N6_6 C12_6 1_555 1_555
C8_6 C2_6 1_555 1_555
H9_6 C8_6 1_555 1_555
C11_6 N4_6 1_555 1_555
C12_6 C11_6 1_555 1_555
C13_6 C12_6 1_555 1_555
H13_5 C13_6 1_555 1_555
H14_5 C13_6 1_555 1_555
H15_5 C13_6 1_555 1_555
Co4 N6_6 1_555 1_555
N4_6 C8_6 1_555 1_555
N1_7 C1_8 1_555 1_555
N7_2 N9_3 1_555 1_555
N9_3 C6_7 1_555 1_555
C1_8 H1_8 1_555 1_555
C2_7 N1_7 1_555 1_555
H2_7 C2_7 1_555 1_555
C3_7 H3_7 1_555 1_555
H4_7 C3_7 1_555 1_555
H5_7 C3_7 1_555 1_555
C4_7 N7_2 1_555 1_555
C5_7 N1_7 1_555 1_555
C6_7 C5_7 1_555 1_555
C7_7 C6_7 1_555 1_555
N4_7 C1_8 1_555 1_555
N5_7 N6_7 1_555 1_555
N6_7 C12_7 1_555 1_555
C8_7 C2_7 1_555 1_555
H9_7 C8_7 1_555 1_555
C9_7 H10_7 1_555 1_555
H11_7 C9_7 1_555 1_555
H12_7 C9_7 1_555 1_555
C10_7 N5_7 1_555 1_555
C11_7 N4_7 1_555 1_555
C12_7 C11_7 1_555 1_555
C13_7 C12_7 1_555 1_555
Co4_3 N6_7 1_555 1_555
Co3_3 N5_7 1_555 1_555
C3_7 C4_7 1_555 1_555
C4_7 C5_7 1_555 1_555
N4_7 C8_7 1_555 1_555
C9_7 C10_7 1_555 1_555
C10_7 C11_7 1_555 1_555
N1_8 C1_9 1_555 1_555
N7 N9_4 1_555 1_555
N9_4 C6_8 1_555 1_555
C1_9 H1_9 1_555 1_555
C2_8 N1_8 1_555 1_555
H2_8 C2_8 1_555 1_555
C3_8 H3_8 1_555 1_555
H4_8 C3_8 1_555 1_555
H5_8 C3_8 1_555 1_555
C4_8 N7 1_555 1_555
C5_8 N1_8 1_555 1_555
C6_8 C5_8 1_555 1_555
C7_8 C6_8 1_555 1_555
H6_6 C7_8 1_555 1_555
H7_6 C7_8 1_555 1_555
H8_6 C7_8 1_555 1_555
C3_8 C4_8 1_555 1_555
C4_8 C5_8 1_555 1_555
C1_10 H1_10 1_555 1_555
N4_8 C1_10 1_555 1_555
N5_8 N6_8 1_555 1_555
N6_8 C12_8 1_555 1_555
H9_8 C8_8 1_555 1_555
C9_8 H10_8 1_555 1_555
H11_8 C9_8 1_555 1_555
H12_8 C9_8 1_555 1_555
C10_8 N5_8 1_555 1_555
C11_8 N4_8 1_555 1_555
C12_8 C11_8 1_555 1_555
C13_8 C12_8 1_555 1_555
H13_6 C13_8 1_555 1_555
H14_6 C13_8 1_555 1_555
H15_6 C13_8 1_555 1_555
Co4_4 N6_8 1_555 1_555
Co3_4 N5_8 1_555 1_555
N4_8 C8_8 1_555 1_555
C9_8 C10_8 1_555 1_555
C10_8 C11_8 1_555 1_555
Co1_3 N2_5 1_555 1_555
N1_9 C1_11 1_555 1_555
N2_5 N3_3 1_555 1_555
N3_3 C6_9 1_555 1_555
C1_11 H1_11 1_555 1_555
C2_9 N1_9 1_555 1_555
H2_9 C2_9 1_555 1_555
C3_9 H3_9 1_555 1_555
H4_9 C3_9 1_555 1_555
H5_9 C3_9 1_555 1_555
C4_9 N2_5 1_555 1_555
C5_9 N1_9 1_555 1_555
C6_9 C5_9 1_555 1_555
C7_9 C6_9 1_555 1_555
H6_7 C7_9 1_555 1_555
H7_7 C7_9 1_555 1_555
H8_7 C7_9 1_555 1_555
N4_9 C1_11 1_555 1_555
N5_9 N6_9 1_555 1_555
N6_9 C12_9 1_555 1_555
C8_9 C2_9 1_555 1_555
H9_9 C8_9 1_555 1_555
C9_9 H10_9 1_555 1_555
H11_9 C9_9 1_555 1_555
H12_9 C9_9 1_555 1_555
C10_9 N5_9 1_555 1_555
C11_9 N4_9 1_555 1_555
C12_9 C11_9 1_555 1_555
C13_9 C12_9 1_555 1_555
H13_7 C13_9 1_555 1_555
H14_7 C13_9 1_555 1_555
H15_7 C13_9 1_555 1_555
Co2_3 N3_3 1_555 1_555
Co3_3 N5_9 1_555 1_555
N7_5 Co1_3 1_555 1_555
N8_3 Co1_3 1_555 1_555
N9_5 Co1_3 1_555 1_555
C3_9 C4_9 1_555 1_555
C4_9 C5_9 1_555 1_555
N4_9 C8_9 1_555 1_555
C9_9 C10_9 1_555 1_555
C10_9 C11_9 1_555 1_555
N1_10 C1_12 1_555 1_555
N3_4 C6_10 1_555 1_555
C1_12 H1_12 1_555 1_555
C2_10 N1_10 1_555 1_555
H2_10 C2_10 1_555 1_555
C5_10 N1_10 1_555 1_555
C6_10 C5_10 1_555 1_555
C7_10 C6_10 1_555 1_555
H6_8 C7_10 1_555 1_555
H7_8 C7_10 1_555 1_555
H8_8 C7_10 1_555 1_555
N4_10 C1_12 1_555 1_555
N6_10 C12_10 1_555 1_555
C8_10 C2_10 1_555 1_555
H9_10 C8_10 1_555 1_555
C11_10 N4_10 1_555 1_555
C12_10 C11_10 1_555 1_555
C13_10 C12_10 1_555 1_555
H13_8 C13_10 1_555 1_555
H14_8 C13_10 1_555 1_555
H15_8 C13_10 1_555 1_555
Co2_4 N3_4 1_555 1_555
N4_10 C8_10 1_555 1_555
Co1_4 N2_6 1_555 1_555
C3_10 H3_10 1_555 1_555
H4_10 C3_10 1_555 1_555
H5_10 C3_10 1_555 1_555
C4_10 N2_6 1_555 1_555
C9_10 H10_10 1_555 1_555
H11_10 C9_10 1_555 1_555
H12_10 C9_10 1_555 1_555
C10_10 N5_10 1_555 1_555
Co3_4 N5_10 1_555 1_555
N7_6 Co1_4 1_555 1_555
N8_4 Co1_4 1_555 1_555
N9_6 Co1_4 1_555 1_555
C3_10 C4_10 1_555 1_555
C9_10 C10_10 1_555 1_555
Co2_3 N2_7 1_555 1_555
N1_11 C1_13 1_555 1_555
N2_7 N8_4 1_555 1_555
N8_4 C6_11 1_555 1_555
C1_13 H1_13 1_555 1_555
C2_11 N1_11 1_555 1_555
H2_11 C2_11 1_555 1_555
C3_11 H3_11 1_555 1_555
H4_11 C3_11 1_555 1_555
H5_11 C3_11 1_555 1_555
C4_11 N2_7 1_555 1_555
C5_11 N1_11 1_555 1_555
C6_11 C5_11 1_555 1_555
C7_11 C6_11 1_555 1_555
N4_11 C1_13 1_555 1_555
N5_11 N6_11 1_555 1_555
N6_11 C12_11 1_555 1_555
C8_11 C2_11 1_555 1_555
H9_11 C8_11 1_555 1_555
C9_11 H10_11 1_555 1_555
H11_11 C9_11 1_555 1_555
H12_11 C9_11 1_555 1_555
C10_11 N5_11 1_555 1_555
C11_11 N4_11 1_555 1_555
C12_11 C11_11 1_555 1_555
C13_11 C12_11 1_555 1_555
Co4 N6_11 1_555 1_555
Co3_2 N5_11 1_555 1_555
N7_7 Co2_3 1_555 1_555
N9_7 Co2_3 1_555 1_555
C3_11 C4_11 1_555 1_555
C4_11 C5_11 1_555 1_555
N4_11 C8_11 1_555 1_555
C9_11 C10_11 1_555 1_555
C10_11 C11_11 1_555 1_555
C1_14 H1_14 1_555 1_555
N4_12 C1_14 1_555 1_555
N5_12 N6_12 1_555 1_555
N6_12 C12_12 1_555 1_555
H9_12 C8_12 1_555 1_555
C9_12 H10_12 1_555 1_555
H11_12 C9_12 1_555 1_555
H12_12 C9_12 1_555 1_555
C10_12 N5_12 1_555 1_555
C11_12 N4_12 1_555 1_555
C12_12 C11_12 1_555 1_555
C13_12 C12_12 1_555 1_555
H13_9 C13_12 1_555 1_555
H14_9 C13_12 1_555 1_555
H15_9 C13_12 1_555 1_555
Co4_2 N6_12 1_555 1_555
Co3 N5_12 1_555 1_555
N4_12 C8_12 1_555 1_555
C9_12 C10_12 1_555 1_555
C10_12 C11_12 1_555 1_555
Co2_4 N2_8 1_555 1_555
N1_12 C1_15 1_555 1_555
N2_8 N8_3 1_555 1_555
N8_3 C6_12 1_555 1_555
C1_15 H1_15 1_555 1_555
C2_12 N1_12 1_555 1_555
H2_12 C2_12 1_555 1_555
C3_12 H3_12 1_555 1_555
H4_12 C3_12 1_555 1_555
H5_12 C3_12 1_555 1_555
C4_12 N2_8 1_555 1_555
C5_12 N1_12 1_555 1_555
C6_12 C5_12 1_555 1_555
C7_12 C6_12 1_555 1_555
H6_9 C7_12 1_555 1_555
H7_9 C7_12 1_555 1_555
H8_9 C7_12 1_555 1_555
N7_8 Co2_4 1_555 1_555
N9_8 Co2_4 1_555 1_555
C3_12 C4_12 1_555 1_555
C4_12 C5_12 1_555 1_555
C3_13 H3_13 1_555 1_555
H4_13 C3_13 1_555 1_555
H5_13 C3_13 1_555 1_555
C4_13 N7_8 1_555 1_555
C9_13 H10_13 1_555 1_555
H11_13 C9_13 1_555 1_555
H12_13 C9_13 1_555 1_555
C10_13 N5_13 1_555 1_555
Co4_3 N5_13 1_555 1_555
C3_13 C4_13 1_555 1_555
C9_13 C10_13 1_555 1_555
N1_13 C1_16 1_555 1_555
N9_6 C6_13 1_555 1_555
C1_16 H1_16 1_555 1_555
C2_13 N1_13 1_555 1_555
H2_13 C2_13 1_555 1_555
C5_13 N1_13 1_555 1_555
C6_13 C5_13 1_555 1_555
C7_13 C6_13 1_555 1_555
H6_10 C7_13 1_555 1_555
H7_10 C7_13 1_555 1_555
H8_10 C7_13 1_555 1_555
N4_13 C1_16 1_555 1_555
N6_13 C12_13 1_555 1_555
C8_13 C2_13 1_555 1_555
H9_13 C8_13 1_555 1_555
C11_13 N4_13 1_555 1_555
C12_13 C11_13 1_555 1_555
C13_13 C12_13 1_555 1_555
H13_10 C13_13 1_555 1_555
H14_10 C13_13 1_555 1_555
H15_10 C13_13 1_555 1_555
N4_13 C8_13 1_555 1_555
N1_14 C1_17 1_555 1_555
N7_7 N9_5 1_555 1_555
N9_5 C6_14 1_555 1_555
C1_17 H1_17 1_555 1_555
C2_14 N1_14 1_555 1_555
H2_14 C2_14 1_555 1_555
C3_14 H3_14 1_555 1_555
H4_14 C3_14 1_555 1_555
H5_14 C3_14 1_555 1_555
C4_14 N7_7 1_555 1_555
C5_14 N1_14 1_555 1_555
C6_14 C5_14 1_555 1_555
C7_14 C6_14 1_555 1_555
H6_11 C7_14 1_555 1_555
H7_11 C7_14 1_555 1_555
H8_11 C7_14 1_555 1_555
N4_14 C1_17 1_555 1_555
N5_14 N6_14 1_555 1_555
N6_14 C12_14 1_555 1_555
C8_14 C2_14 1_555 1_555
H9_14 C8_14 1_555 1_555
C9_14 H10_14 1_555 1_555
H11_14 C9_14 1_555 1_555
H12_14 C9_14 1_555 1_555
C10_14 N5_14 1_555 1_555
C11_14 N4_14 1_555 1_555
C12_14 C11_14 1_555 1_555
C13_14 C12_14 1_555 1_555
H13_11 C13_14 1_555 1_555
H14_11 C13_14 1_555 1_555
H15_11 C13_14 1_555 1_555
Co4_4 N5_14 1_555 1_555
C3_14 C4_14 1_555 1_555
C4_14 C5_14 1_555 1_555
N4_14 C8_14 1_555 1_555
C9_14 C10_14 1_555 1_555
C10_14 C11_14 1_555 1_555
C1_18 H1_18 1_555 1_555
N4_15 C1_18 1_555 1_555
N5_15 N6_15 1_555 1_555
N6_15 C12_15 1_555 1_555
H9_15 C8_15 1_555 1_555
C9_15 H10_15 1_555 1_555
H11_15 C9_15 1_555 1_555
H12_15 C9_15 1_555 1_555
C10_15 N5_15 1_555 1_555
C11_15 N4_15 1_555 1_555
C12_15 C11_15 1_555 1_555
C13_15 C12_15 1_555 1_555
H13_12 C13_15 1_555 1_555
H14_12 C13_15 1_555 1_555
H15_12 C13_15 1_555 1_555
Co3_2 N6_15 1_555 1_555
Co4 N5_15 1_555 1_555
N4_15 C8_15 1_555 1_555
C9_15 C10_15 1_555 1_555
C10_15 C11_15 1_555 1_555
N1_15 C1_19 1_555 1_555
N7_6 N9_7 1_555 1_555
N9_7 C6_15 1_555 1_555
C1_19 H1_19 1_555 1_555
C2_15 N1_15 1_555 1_555
H2_15 C2_15 1_555 1_555
C3_15 H3_15 1_555 1_555
H4_15 C3_15 1_555 1_555
H5_15 C3_15 1_555 1_555
C4_15 N7_6 1_555 1_555
C5_15 N1_15 1_555 1_555
C6_15 C5_15 1_555 1_555
C7_15 C6_15 1_555 1_555
H6_12 C7_15 1_555 1_555
H7_12 C7_15 1_555 1_555
H8_12 C7_15 1_555 1_555
C3_15 C4_15 1_555 1_555
C4_15 C5_15 1_555 1_555
N1_16 C1_20 1_555 1_555
N7_5 N9_8 1_555 1_555
N9_8 C6_16 1_555 1_555
C1_20 H1_20 1_555 1_555
C2_16 N1_16 1_555 1_555
H2_16 C2_16 1_555 1_555
C3_16 H3_16 1_555 1_555
H4_16 C3_16 1_555 1_555
H5_16 C3_16 1_555 1_555
C4_16 N7_5 1_555 1_555
C5_16 N1_16 1_555 1_555
C6_16 C5_16 1_555 1_555
C7_16 C6_16 1_555 1_555
N4_16 C1_20 1_555 1_555
N5_16 N6_16 1_555 1_555
N6_16 C12_16 1_555 1_555
C8_16 C2_16 1_555 1_555
H9_16 C8_16 1_555 1_555
C9_16 H10_16 1_555 1_555
H11_16 C9_16 1_555 1_555
H12_16 C9_16 1_555 1_555
C10_16 N5_16 1_555 1_555
C11_16 N4_16 1_555 1_555
C12_16 C11_16 1_555 1_555
C13_16 C12_16 1_555 1_555
Co3 N6_16 1_555 1_555
Co4_2 N5_16 1_555 1_555
C3_16 C4_16 1_555 1_555
C4_16 C5_16 1_555 1_555
N4_16 C8_16 1_555 1_555
C9_16 C10_16 1_555 1_555
C10_16 C11_16 1_555 1_555
O1 N10 1_555 1_555
O2 N10 1_555 1_555
O3 N10 1_555 1_555
O1_2 N10_2 1_555 1_555
O2_2 N10_2 1_555 1_555
O3_2 N10_2 1_555 1_555
O1_3 N10_3 1_555 1_555
O2_3 N10_3 1_555 1_555
O3_3 N10_3 1_555 1_555
O1_4 N10_4 1_555 1_555
O2_4 N10_4 1_555 1_555
O3_4 N10_4 1_555 1_555
O1_5 N10_5 1_555 1_555
O2_5 N10_5 1_555 1_555
O3_5 N10_5 1_555 1_555
O1_6 N10_6 1_555 1_555
O2_6 N10_6 1_555 1_555
O3_6 N10_6 1_555 1_555
O1_7 N10_7 1_555 1_555
O2_7 N10_7 1_555 1_555
O3_7 N10_7 1_555 1_555
O1_8 N10_8 1_555 1_555
O2_8 N10_8 1_555 1_555
O3_8 N10_8 1_555 1_555
O1_9 N10_9 1_555 1_555
O2_9 N10_9 1_555 1_555
O3_9 N10_9 1_555 1_555
O1_10 N10_10 1_555 1_555
O2_10 N10_10 1_555 1_555
O3_10 N10_10 1_555 1_555
O1_11 N10_11 1_555 1_555
O2_11 N10_11 1_555 1_555
O3_11 N10_11 1_555 1_555
O1_12 N10_12 1_555 1_555
O2_12 N10_12 1_555 1_555
O3_12 N10_12 1_555 1_555
O1_13 N10_13 1_555 1_555
O2_13 N10_13 1_555 1_555
O3_13 N10_13 1_555 1_555
O1_14 N10_14 1_555 1_555
O2_14 N10_14 1_555 1_555
O3_14 N10_14 1_555 1_555
O1_15 N10_15 1_555 1_555
O2_15 N10_15 1_555 1_555
O3_15 N10_15 1_555 1_555
O1_16 N10_16 1_555 1_555
O2_16 N10_16 1_555 1_555
O3_16 N10_16 1_555 1_555
O1_17 N10_17 1_555 1_555
O2_17 N10_17 1_555 1_555
O3_17 N10_17 1_555 1_555
O1_18 N10_18 1_555 1_555
O2_18 N10_18 1_555 1_555
O3_18 N10_18 1_555 1_555
O1_19 N10_19 1_555 1_555
O2_19 N10_19 1_555 1_555
O3_19 N10_19 1_555 1_555
O1_20 N10_20 1_555 1_555
O2_20 N10_20 1_555 1_555
O3_20 N10_20 1_555 1_555

#END
