
###############################################################################
#
# This file contains modified crystal structure data generated from the
# MOF subset of the Cambridge Structural Database (CSD) v543 
# hosted by the Cambridge Crystallographic Data Centre (CCDC).
#
# This work is licensed under the Creative Commons
# Attribution-NonCommercial-ShareAlike 4.0 International License.
# To view a copy of this license, visit
# http://creativecommons.org/licenses/by-nc-sa/4.0/
# or send a letter to
# Creative Commons, PO Box 1866, Mountain View, CA 94042, USA.
#
# CIF created using the CSD Python API on 29 September 2022
# The structure has been converted into the P1 space group
# The structure has a 3D framework
# The original CSD entry DIHPIU is in the orthorhombic crystal system
# The original CSD entry DIHPIU is in a Sohncke space group
# The framework has been calculated to contain at least 10.0% void space
# The void calculation uses a probe of radius 1.32A, grid spacing 0.4
# The framework is charged, counterions have been retained in the structure
#
###############################################################################

data_DIHPIU
_chemical_formula_moiety         '(C89 H64 Ag4 N16 4+)n'
_symmetry_cell_setting           triclinic
_symmetry_space_group_name_H-M   'P 1'
_symmetry_Int_Tables_number      1
_space_group_name_Hall           'P 1'
loop_
_symmetry_equiv_pos_site_id
_symmetry_equiv_pos_as_xyz
1 x,y,z
_cell_length_a                   13.871(6)
_cell_length_b                   13.979(5)
_cell_length_c                   17.520(6)
_cell_angle_alpha                90
_cell_angle_beta                 90
_cell_angle_gamma                90
_cell_volume                     3397.18
loop_
_atom_site_label
_atom_site_type_symbol
_atom_site_fract_x
_atom_site_fract_y
_atom_site_fract_z
Ag1 Ag 0.25839(7) 0.22919(8) 0.25006(8)
N1 N 0.1597(10) 0.3307(8) 0.3187(6)
N3 N 0.3476(9) 0.3278(8) 0.1746(7)
C1 C -0.0000 0.5000 0.4837(9)
C2 C 0.0595(8) 0.4377(7) 0.4294(6)
C3 C 0.019(1) 0.356(1) 0.3981(8)
C4 C 0.071(1) 0.3059(10) 0.3434(8)
C5 C 0.192(1) 0.407(1) 0.3476(9)
C6 C 0.145(1) 0.467(1) 0.4013(9)
C12 C 0.5000 0.5000 0.006(1)
C13 C 0.4419(9) 0.4336(7) 0.0622(8)
C14 C 0.3522(9) 0.456(1) 0.0848(10)
C15 C 0.305(1) 0.4012(10) 0.1389(10)
C16 C 0.435(1) 0.3080(10) 0.1517(9)
C17 C 0.488(1) 0.356(1) 0.095(1)
H2 H 0.0408 0.2501 0.3201
H3 H 0.2537 0.4263 0.3275
H4 H 0.1745 0.5246 0.4170
H8 H 0.0221 0.3247 0.5432
H9 H 0.3200 0.5066 0.0583
H10 H 0.2385 0.4145 0.1502
H11 H 0.4693 0.2576 0.1791
H12 H 0.5489 0.3356 0.0802
Ag5 Ag 0.24161(7) 0.72919(8) 0.74994(8)
Ag6 Ag 0.74161(7) 0.77081(8) 0.25006(8)
N6 N 0.164(1) 0.654(1) 0.6564(7)
N7 N 0.336(1) 0.154(1) 0.3436(7)
N9 N 0.6524(9) 0.6722(8) 0.1746(7)
N12 N 0.1697(8) 0.1500(10) 0.1649(8)
C28 C 0.0641(10) 0.5589(9) 0.5404(6)
C29 C 0.1441(10) 0.521(1) 0.5709(8)
C30 C 0.196(1) 0.572(2) 0.629(1)
C31 C 0.087(1) 0.689(1) 0.6252(9)
C32 C 0.032(1) 0.6462(8) 0.5670(8)
C33 C 0.5581(9) 0.5664(7) 0.0622(8)
C34 C 0.6478(9) 0.544(1) 0.0848(10)
C35 C 0.695(1) 0.5988(10) 0.1389(10)
C36 C 0.565(1) 0.6920(10) 0.1517(9)
C37 C 0.512(1) 0.644(1) 0.095(1)
H17 H 0.0420 0.6672 0.4154
H21 H 0.1636 0.4581 0.5541
H22 H 0.2594 0.5442 0.6425
H23 H 0.0659 0.7490 0.6432
H25 H 0.6800 0.4934 0.0583
H26 H 0.7615 0.5855 0.1502
H27 H 0.5307 0.7424 0.1791
H28 H 0.4511 0.6644 0.0802
N4 N 0.6697(8) 0.3500(10) 0.8351(8)
C18 C 0.5651(9) 0.4433(9) 0.9491(9)
C19 C 0.542(1) 0.3541(9) 0.9289(10)
C20 C 0.595(1) 0.311(1) 0.871(1)
C21 C 0.693(1) 0.438(1) 0.8577(10)
C22 C 0.6403(10) 0.489(1) 0.9160(9)
H13 H 0.4896 0.3200 0.9533
H14 H 0.5771 0.2463 0.8572
H15 H 0.7462 0.4696 0.8336
H16 H 0.6583 0.5529 0.9311
Ag4 Ag 0.75839(7) 0.27081(8) 0.74994(8)
N11 N 0.3303(8) 0.6500(10) 0.8351(8)
C38 C 0.4349(9) 0.5567(9) 0.9491(9)
C39 C 0.458(1) 0.6459(9) 0.9289(10)
C40 C 0.405(1) 0.689(1) 0.871(1)
C41 C 0.307(1) 0.562(1) 0.8577(10)
C42 C 0.3597(10) 0.511(1) 0.9160(9)
H29 H 0.5104 0.6800 0.9533
H30 H 0.4229 0.7537 0.8572
H31 H 0.2538 0.5304 0.8336
H32 H 0.3417 0.4471 0.9311
N2 N 0.836(1) 0.346(1) 0.6564(7)
C1_2 C 1.0000 0.5000 0.4837(9)
C7 C 0.9359(10) 0.4411(9) 0.5404(6)
C8 C 0.8559(10) 0.479(1) 0.5709(8)
C9 C 0.804(1) 0.428(2) 0.629(1)
C10 C 0.913(1) 0.311(1) 0.6252(9)
C11 C 0.968(1) 0.3538(8) 0.5670(8)
H1 H 0.9580 0.3328 0.4154
H5 H 0.8364 0.5419 0.5541
H6 H 0.7406 0.4558 0.6425
H7 H 0.9341 0.2510 0.6432
N5 N 0.8403(10) 0.6693(8) 0.3187(6)
N8 N 0.664(1) 0.846(1) 0.3436(7)
N13 N 0.8303(8) 0.8500(10) 0.1649(8)
C23 C 0.9405(8) 0.5623(7) 0.4294(6)
C24 C 0.981(1) 0.644(1) 0.3981(8)
C25 C 0.929(1) 0.6941(10) 0.3434(8)
C26 C 0.808(1) 0.593(1) 0.3476(9)
C27 C 0.855(1) 0.533(1) 0.4013(9)
H18 H 0.9592 0.7499 0.3201
H19 H 0.7463 0.5737 0.3275
H20 H 0.8255 0.4754 0.4170
H24 H 0.9779 0.6753 0.5432
C18_2 C 0.0651(9) 0.0567(9) 0.0509(9)
C19_2 C 0.042(1) 0.1459(9) 0.0711(10)
C20_2 C 0.095(1) 0.189(1) 0.129(1)
C21_2 C 0.193(1) 0.062(1) 0.1423(10)
C22_2 C 0.1403(10) 0.011(1) 0.0840(9)
H14_2 H 0.0771 0.2537 0.1428
H15_2 H 0.2462 0.0304 0.1664
C12_2 C -0.0000 0.0000 0.994(1)
H12_2 H 0.0489 0.1644 0.9198
H25_2 H 0.1800 0.0066 0.9417
C12_3 C -0.0000 1.0000 0.994(1)
N9_2 N 0.1524(9) 0.8278(8) 0.8254(7)
C33_2 C 0.0581(9) 0.9336(7) 0.9378(8)
C34_2 C 0.1478(9) 0.956(1) 0.9152(10)
C35_2 C 0.195(1) 0.9012(10) 0.8611(10)
C36_2 C 0.065(1) 0.8080(10) 0.8483(9)
C37_2 C 0.012(1) 0.856(1) 0.905(1)
H26_2 H 0.2615 0.9145 0.8498
H27_2 H 0.0307 0.7576 0.8209
N1_2 N 0.6597(10) 0.1693(8) 0.6813(6)
N3_2 N 0.8476(9) 0.1722(8) 0.8254(7)
C1_3 C 0.5000 -0.0000 0.5163(9)
C2_2 C 0.5595(8) 0.0623(7) 0.5706(6)
C3_2 C 0.519(1) 0.144(1) 0.6019(8)
C4_2 C 0.571(1) 0.1941(10) 0.6566(8)
C5_2 C 0.692(1) 0.093(1) 0.6524(9)
C6_2 C 0.645(1) 0.033(1) 0.5987(9)
C7_2 C 0.4359(10) 0.0589(9) 0.4596(6)
C8_2 C 0.3559(10) 0.021(1) 0.4291(8)
C9_2 C 0.304(1) 0.072(2) 0.371(1)
C10_2 C 0.413(1) 0.189(1) 0.3748(9)
C11_2 C 0.468(1) 0.1462(8) 0.4330(8)
C12_4 C 1.0000 0.0000 0.994(1)
C13_2 C 0.9419(9) 0.0664(7) 0.9378(8)
C14_2 C 0.8522(9) 0.044(1) 0.9152(10)
C15_2 C 0.805(1) 0.0988(10) 0.8611(10)
C16_2 C 0.935(1) 0.1920(10) 0.8483(9)
C17_2 C 0.988(1) 0.144(1) 0.905(1)
H1_2 H 0.4580 0.1672 0.5846
H2_2 H 0.5408 0.2499 0.6799
H3_2 H 0.7537 0.0737 0.6725
H6_2 H 0.2406 0.0442 0.3575
H7_2 H 0.4341 0.2490 0.3568
H8_2 H 0.5221 0.1753 0.4568
H10_2 H 0.7385 0.0855 0.8498
H11_2 H 0.9693 0.2424 0.8209
H20_2 H 0.3255 0.0246 0.5830
H21_2 H 0.6636 0.0419 0.4459
C38_2 C 0.9349(9) 0.9433(9) 0.0509(9)
C39_2 C 0.958(1) 0.8541(9) 0.0711(10)
C40_2 C 0.905(1) 0.811(1) 0.129(1)
C41_2 C 0.807(1) 0.938(1) 0.1423(10)
C42_2 C 0.8597(10) 0.989(1) 0.0840(9)
H30_2 H 0.9229 0.7463 0.1428
H31_2 H 0.7538 0.9696 0.1664
C1_4 C 0.5000 1.0000 0.5163(9)
C12_5 C 1.0000 1.0000 0.994(1)
H4_2 H 0.6745 0.9754 0.5830
H5_2 H 0.3364 0.9581 0.4459
H9_2 H 0.8200 0.9934 0.9417
N5_2 N 0.3403(10) 0.8307(8) 0.6813(6)
C23_2 C 0.4405(8) 0.9377(7) 0.5706(6)
C24_2 C 0.481(1) 0.856(1) 0.6019(8)
C25_2 C 0.429(1) 0.8059(10) 0.6566(8)
C26_2 C 0.308(1) 0.907(1) 0.6524(9)
C27_2 C 0.355(1) 0.967(1) 0.5987(9)
C28_2 C 0.5641(10) 0.9411(9) 0.4596(6)
C29_2 C 0.6441(10) 0.979(1) 0.4291(8)
C30_2 C 0.696(1) 0.928(2) 0.371(1)
C31_2 C 0.587(1) 0.811(1) 0.3748(9)
C32_2 C 0.532(1) 0.8538(8) 0.4330(8)
H17_2 H 0.5420 0.8328 0.5846
H18_2 H 0.4592 0.7501 0.6799
H19_2 H 0.2463 0.9263 0.6725
H22_2 H 0.7594 0.9558 0.3575
H23_2 H 0.5659 0.7510 0.3568
H24_2 H 0.4779 0.8247 0.4568
H28_2 H 0.9511 0.8356 0.9198
H16_2 H 0.1583 0.9471 0.0689
H29_2 H 0.0104 0.8200 0.0467
H13_2 H 0.9896 0.1800 0.0467
H32_2 H 0.8417 0.0529 0.0689
loop_
_geom_bond_atom_site_label_1
_geom_bond_atom_site_label_2
_geom_bond_site_symmetry_1
_geom_bond_site_symmetry_2
Ag1 N1 1_555 1_555
N1 C4 1_555 1_555
N3 Ag1 1_555 1_555
C1 C2 1_555 1_555
C2 C3 1_555 1_555
C3 C4 1_555 1_555
C4 H2 1_555 1_555
C5 N1 1_555 1_555
C6 C2 1_555 1_555
C12 C13 1_555 1_555
C13 C14 1_555 1_555
C14 C15 1_555 1_555
C15 N3 1_555 1_555
C16 N3 1_555 1_555
C17 C13 1_555 1_555
H3 C5 1_555 1_555
H4 C6 1_555 1_555
H9 C14 1_555 1_555
H10 C15 1_555 1_555
H11 C16 1_555 1_555
H12 C17 1_555 1_555
Ag5 N6 1_555 1_555
Ag6 N9 1_555 1_555
N6 C30 1_555 1_555
N7 Ag1 1_555 1_555
N9 C35 1_555 1_555
N12 Ag1 1_555 1_555
C28 C1 1_555 1_555
C29 C28 1_555 1_555
C30 C29 1_555 1_555
C31 N6 1_555 1_555
C32 C28 1_555 1_555
C33 C12 1_555 1_555
C34 C33 1_555 1_555
C35 C34 1_555 1_555
C36 N9 1_555 1_555
C37 C33 1_555 1_555
H21 C29 1_555 1_555
H22 C30 1_555 1_555
H23 C31 1_555 1_555
H25 C34 1_555 1_555
H26 C35 1_555 1_555
H27 C36 1_555 1_555
H28 C37 1_555 1_555
C5 C6 1_555 1_555
C16 C17 1_555 1_555
C31 C32 1_555 1_555
C36 C37 1_555 1_555
N4 C20 1_555 1_555
C19 C18 1_555 1_555
C20 C19 1_555 1_555
C21 N4 1_555 1_555
C22 C18 1_555 1_555
H13 C19 1_555 1_555
H14 C20 1_555 1_555
H15 C21 1_555 1_555
H16 C22 1_555 1_555
Ag4 N4 1_555 1_555
Ag5 N11 1_555 1_555
N11 C40 1_555 1_555
C39 C38 1_555 1_555
C40 C39 1_555 1_555
C41 N11 1_555 1_555
C42 C38 1_555 1_555
H29 C39 1_555 1_555
H30 C40 1_555 1_555
H31 C41 1_555 1_555
H32 C42 1_555 1_555
C21 C22 1_555 1_555
C41 C42 1_555 1_555
N2 C9 1_555 1_555
C7 C1_2 1_555 1_555
C8 C7 1_555 1_555
C9 C8 1_555 1_555
C10 N2 1_555 1_555
C11 C7 1_555 1_555
H5 C8 1_555 1_555
H6 C9 1_555 1_555
H7 C10 1_555 1_555
Ag6 N5 1_555 1_555
Ag4 N2 1_555 1_555
N5 C25 1_555 1_555
N8 Ag6 1_555 1_555
N13 Ag6 1_555 1_555
C23 C1_2 1_555 1_555
C24 C23 1_555 1_555
C25 C24 1_555 1_555
C26 N5 1_555 1_555
C27 C23 1_555 1_555
H18 C25 1_555 1_555
H19 C26 1_555 1_555
H20 C27 1_555 1_555
C10 C11 1_555 1_555
C26 C27 1_555 1_555
N12 C20_2 1_555 1_555
C19_2 C18_2 1_555 1_555
C20_2 C19_2 1_555 1_555
C21_2 N12 1_555 1_555
C22_2 C18_2 1_555 1_555
H14_2 C20_2 1_555 1_555
H15_2 C21_2 1_555 1_555
C21_2 C22_2 1_555 1_555
Ag5 N9_2 1_555 1_555
N9_2 C35_2 1_555 1_555
C33_2 C12_3 1_555 1_555
C34_2 C33_2 1_555 1_555
C35_2 C34_2 1_555 1_555
C36_2 N9_2 1_555 1_555
C37_2 C33_2 1_555 1_555
H26_2 C35_2 1_555 1_555
H27_2 C36_2 1_555 1_555
C36_2 C37_2 1_555 1_555
Ag4 N1_2 1_555 1_555
N1_2 C4_2 1_555 1_555
N7 C9_2 1_555 1_555
N3_2 Ag4 1_555 1_555
C1_3 C2_2 1_555 1_555
C2_2 C3_2 1_555 1_555
C3_2 C4_2 1_555 1_555
C4_2 H2_2 1_555 1_555
C5_2 N1_2 1_555 1_555
C6_2 C2_2 1_555 1_555
C7_2 C1_3 1_555 1_555
C8_2 C7_2 1_555 1_555
C9_2 C8_2 1_555 1_555
C10_2 N7 1_555 1_555
C11_2 C7_2 1_555 1_555
C12_4 C13_2 1_555 1_555
C13_2 C14_2 1_555 1_555
C14_2 C15_2 1_555 1_555
C15_2 N3_2 1_555 1_555
C16_2 N3_2 1_555 1_555
C17_2 C13_2 1_555 1_555
H1_2 C3_2 1_555 1_555
H3_2 C5_2 1_555 1_555
H6_2 C9_2 1_555 1_555
H7_2 C10_2 1_555 1_555
H8_2 C11_2 1_555 1_555
H10_2 C15_2 1_555 1_555
H11_2 C16_2 1_555 1_555
C5_2 C6_2 1_555 1_555
C10_2 C11_2 1_555 1_555
C16_2 C17_2 1_555 1_555
N13 C40_2 1_555 1_555
C39_2 C38_2 1_555 1_555
C40_2 C39_2 1_555 1_555
C41_2 N13 1_555 1_555
C42_2 C38_2 1_555 1_555
H30_2 C40_2 1_555 1_555
H31_2 C41_2 1_555 1_555
C41_2 C42_2 1_555 1_555
Ag5 N5_2 1_555 1_555
N5_2 C25_2 1_555 1_555
N8 C30_2 1_555 1_555
C23_2 C1_4 1_555 1_555
C24_2 C23_2 1_555 1_555
C25_2 C24_2 1_555 1_555
C26_2 N5_2 1_555 1_555
C27_2 C23_2 1_555 1_555
C28_2 C1_4 1_555 1_555
C29_2 C28_2 1_555 1_555
C30_2 C29_2 1_555 1_555
C31_2 N8 1_555 1_555
C32_2 C28_2 1_555 1_555
H17_2 C24_2 1_555 1_555
H18_2 C25_2 1_555 1_555
H19_2 C26_2 1_555 1_555
H22_2 C30_2 1_555 1_555
H23_2 C31_2 1_555 1_555
H24_2 C32_2 1_555 1_555
C26_2 C27_2 1_555 1_555
C31_2 C32_2 1_555 1_555

#END
