
###############################################################################
#
# This file contains modified crystal structure data generated from the
# MOF subset of the Cambridge Structural Database (CSD) v543 
# hosted by the Cambridge Crystallographic Data Centre (CCDC).
#
# This work is licensed under the Creative Commons
# Attribution-NonCommercial-ShareAlike 4.0 International License.
# To view a copy of this license, visit
# http://creativecommons.org/licenses/by-nc-sa/4.0/
# or send a letter to
# Creative Commons, PO Box 1866, Mountain View, CA 94042, USA.
#
# CIF created using the CSD Python API on 29 September 2022
# The structure has been converted into the P1 space group
# The structure has a 3D framework
# The original CSD entry DIHRIY is in the monoclinic crystal system
# The framework has been calculated to contain at least 10.0% void space
# The void calculation uses a probe of radius 1.32A, grid spacing 0.4
#
###############################################################################

data_DIHRIY
_chemical_formula_moiety         '(C192 H120 Eu8 N48 O42)n'
_symmetry_cell_setting           triclinic
_symmetry_space_group_name_H-M   'P 1'
_symmetry_Int_Tables_number      1
_space_group_name_Hall           'P 1'
loop_
_symmetry_equiv_pos_site_id
_symmetry_equiv_pos_as_xyz
1 x,y,z
_cell_length_a                   27.609(3)
_cell_length_b                   23.570(3)
_cell_length_c                   15.2364(16)
_cell_angle_alpha                90
_cell_angle_beta                 104.257(3)
_cell_angle_gamma                90
_cell_volume                     9609.62
loop_
_atom_site_label
_atom_site_type_symbol
_atom_site_fract_x
_atom_site_fract_y
_atom_site_fract_z
H30 H 0.7038 0.0482 0.0376
O6 O 0.7396(2) 0.1423(2) 0.0592(4)
Eu4 Eu 0.76722(2) 0.23704(2) 0.09941(2)
C10 C 0.6724(3) 0.1104(3) 0.4826(5)
C18 C 0.6074(3) 0.0243(3) 0.5115(5)
C22 C 0.6361(3) 0.0875(3) 0.4110(5)
H15 H 0.6336 0.1006 0.3525
C24 C 0.6039(3) 0.0459(4) 0.4252(5)
H16 H 0.5795 0.0320 0.3765
C29 C 0.6433(3) 0.0471(3) 0.5845(5)
H19 H 0.6461 0.0340 0.6431
C30 C 0.6745(3) 0.0896(3) 0.5676(5)
H20 H 0.6981 0.1048 0.6163
C39 C 0.6192(4) 0.0128(4) 0.8600(5)
C40 C 0.6169(4) 0.0639(4) 0.8156(6)
H27 H 0.5953 0.0679 0.7585
C41 C 0.6533(6) 0.0064(4) 0.9419(6)
C42 C 0.6788(3) 0.1035(3) 0.9373(4)
C43 C 0.6460(3) 0.1096(3) 0.8543(5)
H29 H 0.6433 0.1442 0.8241
C44 C 0.6820(5) 0.0522(4) 0.9808(6)
C45 C 0.7102(2) 0.1505(3) 0.9834(4)
O5 O 0.70772(15) 0.19958(18) 0.9492(3)
C48 C 0.7048(3) 0.1572(3) 0.4690(5)
O11 O 0.73414(19) 0.1788(2) 0.5357(3)
O12 O 0.7006(2) 0.1750(2) 0.3901(4)
Eu6 Eu 0.76722(2) 0.26296(2) 0.59941(2)
Eu8 Eu 0.73459(2) 0.25044(2) 0.33027(2)
Eu10 Eu 0.73459(2) 0.24956(2) 0.83027(2)
Eu1 Eu 0.23278(2) 0.73704(2) 0.40059(2)
Eu2 Eu 0.26541(2) 0.75044(2) 0.16973(2)
O1 O 0.30520(14) 0.73793(19) 0.3354(3)
O2 O 0.19498(15) 0.73868(19) 0.5442(3)
O3 O 0.1543(2) 0.7752(2) 0.4146(3)
O4 O 0.3505(2) 0.7677(3) 0.2504(3)
C1 C 0.1092(2) 0.7581(3) 0.6161(5)
H1 H 0.1321 0.7321 0.6485
C2 C 0.1133(2) 0.7776(3) 0.5320(4)
C3 C 0.3869(3) 0.7605(3) 0.4951(5)
H2 H 0.3647 0.7328 0.5045
C4 C 0.3851(2) 0.7788(3) 0.4085(5)
C5 C 0.0350(3) 0.8166(3) 0.6012(5)
C6 C 0.3459(2) 0.7593(3) 0.3299(4)
C7 C 0.0771(3) 0.8143(3) 0.4829(5)
H4 H 0.0788 0.8250 0.4249
C8 C 0.4550(3) 0.8395(3) 0.4643(5)
H5 H 0.4785 0.8651 0.4535
N2 N 0.5740(3) 0.9807(3) 0.5177(4)
H6 H 0.5584 0.9660 0.4669
C9 C 0.4215(3) 0.7830(3) 0.5681(5)
H7 H 0.4224 0.7709 0.6265
N3 N 0.4874(3) 0.8459(3) 0.6313(4)
H8 H 0.4869 0.8280 0.6802
C12 C 0.4204(2) 0.8171(3) 0.3932(5)
H9 H 0.4204 0.8275 0.3343
C14 C 0.4556(3) 0.8246(3) 0.5535(4)
C15 C 0.0700(3) 0.7783(3) 0.6514(5)
H11 H 0.0672 0.7662 0.7080
C17 C 0.0389(3) 0.8354(4) 0.5171(5)
H12 H 0.0163 0.8617 0.4845
N6 N 0.5375(3) 0.9059(3) 0.7291(4)
C20 C 0.5195(3) 0.8913(3) 0.6426(5)
N9 N 0.5306(3) 0.9146(3) 0.5718(4)
N10 N 0.5829(3) 0.9789(3) 0.6733(4)
C25 C 0.15721(19) 0.7625(2) 0.4943(4)
C27 C 0.5624(3) 0.9584(3) 0.5921(5)
C32 C 0.5679(4) 0.9510(4) 0.7391(5)
N12 N 0.5887(4) 0.9664(4) 0.8263(5)
H26 H 0.5821 0.9442 0.8667
H28 H 0.6572 0.9714 0.9711
Eu11 Eu 0.26541(2) 0.74956(2) 0.66973(2)
O13 O 0.19498(15) 0.76132(19) 0.0442(3)
O14 O 0.29228(15) 0.69958(18) 0.5508(3)
O15 O 0.29228(15) 0.80042(18) 0.0508(3)
O16 O 0.2604(2) 0.6423(2) 0.4408(4)
O17 O 0.1722(2) 0.6754(2) 0.3145(4)
O18 O 0.22034(19) 0.6805(3) 0.2199(4)
O19 O 0.21221(15) 0.79692(18) 0.2686(3)
O20 O 0.25505(19) 0.8489(2) 0.1962(4)
O21 O 0.26586(19) 0.8212(2) 0.4643(3)
O22 O 0.2994(2) 0.6750(2) 0.1099(4)
C11 C 0.8441(3) 0.1108(3) 0.3085(5)
C13 C 0.8331(3) 0.0912(3) 0.3863(6)
H10 H 0.8070 0.1071 0.4064
C19 C 0.9000(3) 0.0231(3) 0.4052(6)
C21 C 0.8823(3) 0.0862(3) 0.2790(5)
H14 H 0.8890 0.0982 0.2250
C26 C 0.9108(3) 0.0439(4) 0.3286(6)
H17 H 0.9378 0.0292 0.3097
C28 C 0.8613(3) 0.0475(4) 0.4349(6)
H18 H 0.8541 0.0346 0.4879
C33 C 0.8684(4) 0.0574(4) 0.6866(6)
H21 H 0.8938 0.0594 0.6564
C34 C 0.8585(4) 0.0061(4) 0.7228(6)
C35 C 0.8214(4) 0.0044(4) 0.7717(7)
C36 C 0.8416(3) 0.1054(3) 0.6942(6)
H24 H 0.8479 0.1393 0.6678
C37 C 0.7955(4) 0.0513(3) 0.7800(6)
H25 H 0.7709 0.0494 0.8120
C38 C 0.8043(3) 0.1023(3) 0.7427(5)
C46 C 0.8155(3) 0.1587(3) 0.2540(5)
O7 O 0.8278(2) 0.1754(2) 0.1855(4)
O8 O 0.77966(19) 0.1805(3) 0.2801(4)
O9 O 0.78779(15) 0.20308(18) 0.7314(3)
C47 C 0.7776(2) 0.1550(2) 0.7601(4)
O10 O 0.74495(19) 0.1511(2) 0.8038(4)
C11_2 C 0.1559(3) 0.6108(3) 0.1915(5)
C13_2 C 0.1669(3) 0.5912(3) 0.1137(6)
H10_2 H 0.1930 0.6071 0.0936
N5 N 0.0704(3) 0.4792(3) 0.0509(5)
H13 H 0.0502 0.4661 0.0807
C19_2 C 0.1000(3) 0.5231(3) 0.0948(6)
C21_2 C 0.1177(3) 0.5862(3) 0.2210(5)
H14_2 H 0.1110 0.5982 0.2750
C26_2 C 0.0892(3) 0.5439(4) 0.1714(6)
H17_2 H 0.0622 0.5292 0.1903
C28_2 C 0.1387(3) 0.5475(4) 0.0651(6)
H18_2 H 0.1459 0.5346 0.0121
C46_2 C 0.1845(3) 0.6587(3) 0.2460(5)
N1 N 0.0006(3) 0.3373(3) 0.8552(5)
H3 H 0.0032 0.3188 0.8079
N4 N 0.0355(3) 0.4088(3) 0.9563(5)
C16 C 0.0317(3) 0.3827(3) 0.8775(6)
N7 N 0.0938(3) 0.4719(3) 0.9157(5)
N8 N 0.0571(3) 0.3963(3) 0.8169(5)
C23 C 0.0668(3) 0.4528(3) 0.9712(5)
C31 C 0.0870(4) 0.4419(4) 0.8399(7)
C33_2 C 0.1316(4) 0.5574(4) 0.8134(6)
H21_2 H 0.1062 0.5594 0.8436
C34_2 C 0.1415(4) 0.5061(4) 0.7772(6)
N11 N 0.1121(4) 0.4566(3) 0.7779(6)
H22 H 0.1101 0.4333 0.7337
C35_2 C 0.1786(4) 0.5044(4) 0.7283(7)
H23 H 0.1852 0.4707 0.7017
C36_2 C 0.1584(3) 0.6054(3) 0.8058(6)
H24_2 H 0.1521 0.6393 0.8322
C37_2 C 0.2045(4) 0.5513(3) 0.7200(6)
H25_2 H 0.2291 0.5494 0.6880
C38_2 C 0.1957(3) 0.6023(3) 0.7573(5)
O9_2 O 0.21221(15) 0.70308(18) 0.7686(3)
C47_2 C 0.2224(2) 0.6550(2) 0.7399(4)
O10_2 O 0.25505(19) 0.6511(2) 0.6962(4)
Eu5 Eu 0.23278(2) 0.76296(2) 0.90059(2)
O1_2 O 0.69480(14) 0.23793(19) 0.1646(3)
O3_2 O 0.8457(2) 0.2752(2) 0.0854(3)
O4_2 O 0.6495(2) 0.2677(3) 0.2496(3)
C3_2 C 0.6131(3) 0.2605(3) 0.0049(5)
C4_2 C 0.6149(2) 0.2788(3) 0.0915(5)
C6_2 C 0.6541(2) 0.2593(3) 0.1701(4)
C7_2 C 0.9229(3) 0.3143(3) 0.0171(5)
H4_2 H 0.9212 0.3250 0.0751
C8_2 C 0.5450(3) 0.3395(3) 0.0357(5)
H5_2 H 0.5215 0.3651 0.0465
H6_2 H 0.4416 0.4660 0.0331
C10_2 C 0.3276(3) 0.6104(3) 0.0174(5)
C12_2 C 0.5796(2) 0.3171(3) 0.1068(5)
H9_2 H 0.5796 0.3275 0.1657
H12_2 H 0.9837 0.3617 0.0155
C22_2 C 0.3639(3) 0.5875(3) 0.0890(5)
H15_2 H 0.3664 0.6006 0.1475
C24_2 C 0.3961(3) 0.5459(4) 0.0748(5)
H16_2 H 0.4205 0.5320 0.1235
C25_2 C 0.84279(19) 0.2625(2) 0.0057(4)
C48_2 C 0.2952(3) 0.6572(3) 0.0310(5)
O13_2 O 0.80502(15) 0.26132(19) 0.4558(3)
O15_2 O 0.70772(15) 0.30042(18) 0.4492(3)
O19_2 O 0.78779(15) 0.29692(18) 0.2314(3)
O20_2 O 0.74495(19) 0.3489(2) 0.3038(4)
O21_2 O 0.73414(19) 0.3212(2) 0.0357(3)
O2_2 O 0.80502(15) 0.23868(19) 0.9558(3)
C1_2 C 0.8908(2) 0.2581(3) 0.8839(5)
H1_2 H 0.8679 0.2321 0.8515
C2_2 C 0.8867(2) 0.2776(3) 0.9680(4)
H2_2 H 0.6353 0.2328 0.9955
C5_2 C 0.9650(3) 0.3166(3) 0.8988(5)
N2_2 N 0.4260(3) 0.4807(3) 0.9823(4)
C9_2 C 0.5785(3) 0.2830(3) 0.9319(5)
H7_2 H 0.5776 0.2709 0.8735
N3_2 N 0.5126(3) 0.3459(3) 0.8687(4)
H8_2 H 0.5131 0.3280 0.8198
C14_2 C 0.5444(3) 0.3246(3) 0.9465(4)
C15_2 C 0.9300(3) 0.2783(3) 0.8486(5)
H11_2 H 0.9328 0.2662 0.7920
C17_2 C 0.9611(3) 0.3354(4) 0.9829(5)
N6_2 N 0.4625(3) 0.4059(3) 0.7709(4)
C18_2 C 0.3926(3) 0.5243(3) 0.9885(5)
C20_2 C 0.4805(3) 0.3913(3) 0.8574(5)
N9_2 N 0.4694(3) 0.4146(3) 0.9282(4)
N10_2 N 0.4171(3) 0.4789(3) 0.8267(4)
C27_2 C 0.4376(3) 0.4584(3) 0.9079(5)
C29_2 C 0.3567(3) 0.5471(3) 0.9155(5)
H19_2 H 0.3539 0.5340 0.8569
C30_2 C 0.3255(3) 0.5896(3) 0.9324(5)
H20_2 H 0.3019 0.6048 0.8837
C32_2 C 0.4321(4) 0.4510(4) 0.7609(5)
C39_2 C 0.3808(4) 0.5128(4) 0.6400(5)
N12_2 N 0.4113(4) 0.4664(4) 0.6737(5)
H26_2 H 0.4179 0.4442 0.6333
C40_2 C 0.3831(4) 0.5639(4) 0.6844(6)
H27_2 H 0.4047 0.5679 0.7415
C41_2 C 0.3467(6) 0.5064(4) 0.5581(6)
H28_2 H 0.3428 0.4714 0.5289
C42_2 C 0.3212(3) 0.6035(3) 0.5627(4)
C43_2 C 0.3540(3) 0.6096(3) 0.6457(5)
H29_2 H 0.3567 0.6442 0.6759
C44_2 C 0.3180(5) 0.5522(4) 0.5192(6)
H30_2 H 0.2962 0.5482 0.4624
C45_2 C 0.2898(2) 0.6505(3) 0.5166(4)
O11_2 O 0.26586(19) 0.6788(2) 0.9643(3)
C11_3 C 0.1559(3) 0.8892(3) 0.6915(5)
C13_3 C 0.1669(3) 0.9088(3) 0.6137(6)
H10_3 H 0.1930 0.8929 0.5936
C19_3 C 0.1000(3) 0.9769(3) 0.5948(6)
C21_3 C 0.1177(3) 0.9138(3) 0.7210(5)
H14_3 H 0.1110 0.9018 0.7750
C26_3 C 0.0892(3) 0.9561(4) 0.6714(6)
H17_3 H 0.0622 0.9708 0.6903
C28_3 C 0.1387(3) 0.9525(4) 0.5651(6)
H18_3 H 0.1459 0.9654 0.5121
C33_3 C 0.1316(4) 0.9426(4) 0.3134(6)
H21_3 H 0.1062 0.9406 0.3436
C34_3 C 0.1415(4) 0.9939(4) 0.2772(6)
C35_3 C 0.1786(4) 0.9956(4) 0.2283(7)
C36_3 C 0.1584(3) 0.8946(3) 0.3058(6)
H24_3 H 0.1521 0.8607 0.3322
C37_3 C 0.2045(4) 0.9487(3) 0.2200(6)
H25_3 H 0.2291 0.9506 0.1880
C38_3 C 0.1957(3) 0.8977(3) 0.2573(5)
C46_3 C 0.1845(3) 0.8413(3) 0.7460(5)
O7_2 O 0.1722(2) 0.8246(2) 0.8145(4)
O8_2 O 0.22034(19) 0.8195(3) 0.7199(4)
C47_3 C 0.2224(2) 0.8450(2) 0.2399(4)
O1_3 O 0.69480(14) 0.26207(19) 0.6646(3)
O3_3 O 0.8457(2) 0.2248(2) 0.5854(3)
O4_3 O 0.6495(2) 0.2323(3) 0.7496(3)
C1_3 C 0.8908(2) 0.2419(3) 0.3839(5)
H1_3 H 0.8679 0.2679 0.3515
C2_3 C 0.8867(2) 0.2224(3) 0.4680(4)
C3_3 C 0.6131(3) 0.2395(3) 0.5049(5)
H2_3 H 0.6353 0.2672 0.4955
C4_3 C 0.6149(2) 0.2212(3) 0.5915(5)
C5_3 C 0.9650(3) 0.1834(3) 0.3988(5)
C6_3 C 0.6541(2) 0.2407(3) 0.6701(4)
C7_3 C 0.9229(3) 0.1857(3) 0.5171(5)
H4_3 H 0.9212 0.1750 0.5751
C8_3 C 0.5450(3) 0.1605(3) 0.5357(5)
H5_3 H 0.5215 0.1349 0.5465
N2_3 N 0.4260(3) 0.0193(3) 0.4823(4)
H6_3 H 0.4416 0.0340 0.5331
C9_3 C 0.5785(3) 0.2170(3) 0.4319(5)
H7_3 H 0.5776 0.2291 0.3735
N3_3 N 0.5126(3) 0.1541(3) 0.3687(4)
H8_3 H 0.5131 0.1720 0.3198
C12_3 C 0.5796(2) 0.1829(3) 0.6068(5)
H9_3 H 0.5796 0.1725 0.6657
C14_3 C 0.5444(3) 0.1754(3) 0.4465(4)
C15_3 C 0.9300(3) 0.2217(3) 0.3486(5)
H11_3 H 0.9328 0.2338 0.2920
C17_3 C 0.9611(3) 0.1646(4) 0.4829(5)
H12_3 H 0.9837 0.1383 0.5155
N6_3 N 0.4625(3) 0.0941(3) 0.2709(4)
C20_3 C 0.4805(3) 0.1087(3) 0.3574(5)
N9_3 N 0.4694(3) 0.0854(3) 0.4282(4)
N10_3 N 0.4171(3) 0.0211(3) 0.3267(4)
C25_3 C 0.84279(19) 0.2375(2) 0.5057(4)
C27_3 C 0.4376(3) 0.0416(3) 0.4079(5)
C32_3 C 0.4321(4) 0.0490(4) 0.2609(5)
N12_3 N 0.4113(4) 0.0336(4) 0.1737(5)
H26_3 H 0.4179 0.0558 0.1333
H28_3 H 0.3428 0.0286 0.0289
O16_2 O 0.7396(2) 0.3577(2) 0.5592(4)
O17_2 O 0.8278(2) 0.3246(2) 0.6855(4)
O18_2 O 0.77966(19) 0.3195(3) 0.7801(4)
O22_2 O 0.7006(2) 0.3250(2) 0.8901(4)
C10_3 C 0.3276(3) 0.8896(3) 0.5174(5)
C18_3 C 0.3926(3) 0.9757(3) 0.4885(5)
C22_3 C 0.3639(3) 0.9125(3) 0.5890(5)
H15_3 H 0.3664 0.8994 0.6475
C24_3 C 0.3961(3) 0.9541(4) 0.5748(5)
H16_3 H 0.4205 0.9680 0.6235
C29_3 C 0.3567(3) 0.9529(3) 0.4155(5)
H19_3 H 0.3539 0.9660 0.3569
C30_3 C 0.3255(3) 0.9104(3) 0.4324(5)
H20_3 H 0.3019 0.8952 0.3837
C39_3 C 0.3808(4) 0.9872(4) 0.1400(5)
C40_3 C 0.3831(4) 0.9361(4) 0.1844(6)
H27_3 H 0.4047 0.9321 0.2415
C41_3 C 0.3467(6) 0.9936(4) 0.0581(6)
C42_3 C 0.3212(3) 0.8965(3) 0.0627(4)
C43_3 C 0.3540(3) 0.8904(3) 0.1457(5)
H29_3 H 0.3567 0.8558 0.1759
C44_3 C 0.3180(5) 0.9478(4) 0.0192(6)
C45_3 C 0.2898(2) 0.8495(3) 0.0166(4)
C48_3 C 0.2952(3) 0.8428(3) 0.5310(5)
O12_2 O 0.2994(2) 0.8250(2) 0.6099(4)
H30_3 H 0.2962 0.9518 0.9624
O6_2 O 0.2604(2) 0.8577(2) 0.9408(4)
C1_4 C 0.1092(2) 0.7419(3) 0.1161(5)
H1_4 H 0.1321 0.7679 0.1485
C2_4 C 0.1133(2) 0.7224(3) 0.0320(4)
H2_4 H 0.3647 0.7672 0.0045
C5_4 C 0.0350(3) 0.6834(3) 0.1012(5)
N2_4 N 0.5740(3) 0.5193(3) 0.0177(4)
C9_4 C 0.4215(3) 0.7170(3) 0.0681(5)
H7_4 H 0.4224 0.7291 0.1265
N3_4 N 0.4874(3) 0.6541(3) 0.1313(4)
H8_4 H 0.4869 0.6720 0.1802
C14_4 C 0.4556(3) 0.6754(3) 0.0535(4)
C15_4 C 0.0700(3) 0.7217(3) 0.1514(5)
H11_4 H 0.0672 0.7338 0.2080
C17_4 C 0.0389(3) 0.6646(4) 0.0171(5)
N6_4 N 0.5375(3) 0.5941(3) 0.2291(4)
C18_4 C 0.6074(3) 0.4757(3) 0.0115(5)
C20_4 C 0.5195(3) 0.6087(3) 0.1426(5)
N9_4 N 0.5306(3) 0.5854(3) 0.0718(4)
N10_4 N 0.5829(3) 0.5211(3) 0.1733(4)
C27_4 C 0.5624(3) 0.5416(3) 0.0921(5)
C29_4 C 0.6433(3) 0.4529(3) 0.0845(5)
H19_4 H 0.6461 0.4660 0.1431
C30_4 C 0.6745(3) 0.4104(3) 0.0676(5)
H20_4 H 0.6981 0.3952 0.1163
C32_4 C 0.5679(4) 0.5490(4) 0.2391(5)
C39_4 C 0.6192(4) 0.4872(4) 0.3600(5)
N12_4 N 0.5887(4) 0.5336(4) 0.3263(5)
H26_4 H 0.5821 0.5558 0.3667
C40_4 C 0.6169(4) 0.4361(4) 0.3156(6)
H27_4 H 0.5953 0.4321 0.2585
C41_4 C 0.6533(6) 0.4936(4) 0.4419(6)
H28_4 H 0.6572 0.5286 0.4711
C42_4 C 0.6788(3) 0.3965(3) 0.4373(4)
C43_4 C 0.6460(3) 0.3904(3) 0.3543(5)
H29_4 H 0.6433 0.3558 0.3241
C44_4 C 0.6820(5) 0.4478(4) 0.4808(6)
H30_4 H 0.7038 0.4518 0.5376
C45_4 C 0.7102(2) 0.3495(3) 0.4834(4)
O1_4 O 0.30520(14) 0.76207(19) 0.8354(3)
O3_4 O 0.1543(2) 0.7248(2) 0.9146(3)
O4_4 O 0.3505(2) 0.7323(3) 0.7504(3)
C3_4 C 0.3869(3) 0.7395(3) 0.9951(5)
C4_4 C 0.3851(2) 0.7212(3) 0.9085(5)
C6_4 C 0.3459(2) 0.7407(3) 0.8299(4)
C7_4 C 0.0771(3) 0.6857(3) 0.9829(5)
H4_4 H 0.0788 0.6750 0.9249
C8_4 C 0.4550(3) 0.6605(3) 0.9643(5)
H5_4 H 0.4785 0.6349 0.9535
H6_4 H 0.5584 0.5340 0.9669
C10_4 C 0.6724(3) 0.3896(3) 0.9826(5)
C12_4 C 0.4204(2) 0.6829(3) 0.8932(5)
H9_4 H 0.4204 0.6725 0.8343
H12_4 H 0.0163 0.6383 0.9845
C22_4 C 0.6361(3) 0.4125(3) 0.9110(5)
H15_4 H 0.6336 0.3994 0.8525
C24_4 C 0.6039(3) 0.4541(4) 0.9252(5)
H16_4 H 0.5795 0.4680 0.8765
C25_4 C 0.15721(19) 0.7375(2) 0.9943(4)
C48_4 C 0.7048(3) 0.3428(3) 0.9690(5)
N1_2 N 0.9994(3) 0.6627(3) 0.1448(5)
H3_2 H 0.9968 0.6812 0.1921
N4_2 N 0.9645(3) 0.5912(3) 0.0437(5)
C16_2 C 0.9683(3) 0.6173(3) 0.1225(6)
N7_2 N 0.9062(3) 0.5281(3) 0.0843(5)
N8_2 N 0.9429(3) 0.6037(3) 0.1831(5)
C23_2 C 0.9332(3) 0.5472(3) 0.0288(5)
C31_2 C 0.9130(4) 0.5581(4) 0.1601(7)
C33_4 C 0.8684(4) 0.4426(4) 0.1866(6)
H21_4 H 0.8938 0.4406 0.1564
C34_4 C 0.8585(4) 0.4939(4) 0.2228(6)
N11_2 N 0.8879(4) 0.5434(3) 0.2221(6)
H22_2 H 0.8899 0.5667 0.2663
C35_4 C 0.8214(4) 0.4956(4) 0.2717(7)
H23_2 H 0.8148 0.5293 0.2983
C36_4 C 0.8416(3) 0.3946(3) 0.1942(6)
H24_4 H 0.8479 0.3607 0.1678
C37_4 C 0.7955(4) 0.4487(3) 0.2800(6)
H25_4 H 0.7709 0.4506 0.3120
C38_4 C 0.8043(3) 0.3977(3) 0.2427(5)
C47_4 C 0.7776(2) 0.3450(2) 0.2601(4)
C11_4 C 0.8441(3) 0.3892(3) 0.8085(5)
C13_4 C 0.8331(3) 0.4088(3) 0.8863(6)
H10_4 H 0.8070 0.3929 0.9064
N5_2 N 0.9296(3) 0.5208(3) 0.9491(5)
H13_2 H 0.9498 0.5339 0.9193
C19_4 C 0.9000(3) 0.4769(3) 0.9052(6)
C21_4 C 0.8823(3) 0.4138(3) 0.7790(5)
H14_4 H 0.8890 0.4018 0.7250
C26_4 C 0.9108(3) 0.4561(4) 0.8286(6)
H17_4 H 0.9378 0.4708 0.8097
C28_4 C 0.8613(3) 0.4525(4) 0.9349(6)
H18_4 H 0.8541 0.4654 0.9879
C46_4 C 0.8155(3) 0.3413(3) 0.7540(5)
N1_3 N 0.9994(3) 0.8373(3) 0.6448(5)
H3_3 H 0.9968 0.8188 0.6921
N4_3 N 0.9645(3) 0.9088(3) 0.5437(5)
C16_3 C 0.9683(3) 0.8827(3) 0.6225(6)
N5_3 N 0.9296(3) 0.9792(3) 0.4491(5)
H13_3 H 0.9498 0.9661 0.4193
N7_3 N 0.9062(3) 0.9719(3) 0.5843(5)
N8_3 N 0.9429(3) 0.8963(3) 0.6831(5)
C23_3 C 0.9332(3) 0.9528(3) 0.5288(5)
C31_3 C 0.9130(4) 0.9419(4) 0.6601(7)
N11_3 N 0.8879(4) 0.9566(3) 0.7221(6)
H22_3 H 0.8899 0.9333 0.7663
H23_3 H 0.8148 0.9707 0.7983
N1_4 N 0.0006(3) 0.1627(3) 0.3552(5)
H3_4 H 0.0032 0.1812 0.3079
N4_4 N 0.0355(3) 0.0912(3) 0.4563(5)
C16_4 C 0.0317(3) 0.1173(3) 0.3775(6)
N5_4 N 0.0704(3) 0.0208(3) 0.5509(5)
H13_4 H 0.0502 0.0339 0.5807
N7_4 N 0.0938(3) 0.0281(3) 0.4157(5)
N8_4 N 0.0571(3) 0.1037(3) 0.3169(5)
C23_4 C 0.0668(3) 0.0472(3) 0.4712(5)
C31_4 C 0.0870(4) 0.0581(4) 0.3399(7)
N11_4 N 0.1121(4) 0.0434(3) 0.2779(6)
H22_4 H 0.1101 0.0667 0.2337
H23_4 H 0.1852 0.0293 0.2017
loop_
_geom_bond_atom_site_label_1
_geom_bond_atom_site_label_2
_geom_bond_site_symmetry_1
_geom_bond_site_symmetry_2
O6 Eu4 1_555 1_555
C10 C22 1_555 1_555
C22 H15 1_555 1_555
C24 C18 1_555 1_555
H16 C24 1_555 1_555
C29 C18 1_555 1_555
H19 C29 1_555 1_555
C30 C10 1_555 1_555
H20 C30 1_555 1_555
C40 C39 1_555 1_555
H27 C40 1_555 1_555
C41 C39 1_555 1_555
C42 C43 1_555 1_555
C43 C40 1_555 1_555
H29 C43 1_555 1_555
C44 C41 1_555 1_555
C45 C42 1_555 1_555
O5 C45 1_555 1_555
C48 C10 1_555 1_555
O11 C48 1_555 1_555
O12 C48 1_555 1_555
Eu6 O11 1_555 1_555
Eu8 O12 1_555 1_555
Eu10 O5 1_555 1_555
C22 C24 1_555 1_555
C29 C30 1_555 1_555
C42 C44 1_555 1_555
Eu1 O1 1_555 1_555
Eu2 O1 1_555 1_555
O1 C6 1_555 1_555
O2 Eu1 1_555 1_555
O3 Eu1 1_555 1_555
O4 Eu2 1_555 1_555
C1 H1 1_555 1_555
C2 C1 1_555 1_555
C3 H2 1_555 1_555
C4 C3 1_555 1_555
C6 O4 1_555 1_555
C7 C2 1_555 1_555
H4 C7 1_555 1_555
C8 H5 1_555 1_555
N2 H6 1_555 1_555
C9 C3 1_555 1_555
H7 C9 1_555 1_555
N3 H8 1_555 1_555
C12 C4 1_555 1_555
H9 C12 1_555 1_555
C14 C8 1_555 1_555
C15 C1 1_555 1_555
H11 C15 1_555 1_555
C17 C5 1_555 1_555
H12 C17 1_555 1_555
N6 C20 1_555 1_555
C20 N3 1_555 1_555
N9 C20 1_555 1_555
N10 C27 1_555 1_555
C25 O2 1_555 1_555
C27 N2 1_555 1_555
C32 N6 1_555 1_555
N12 C32 1_555 1_555
H26 N12 1_555 1_555
Eu11 O2 1_555 1_555
O13 Eu2 1_555 1_555
O14 Eu1 1_555 1_555
O15 Eu2 1_555 1_555
O16 Eu1 1_555 1_555
O17 Eu1 1_555 1_555
O18 Eu2 1_555 1_555
O19 Eu1 1_555 1_555
O20 Eu2 1_555 1_555
O21 Eu1 1_555 1_555
O22 Eu2 1_555 1_555
Eu2 O19 1_555 1_555
O3 C25 1_555 1_555
C2 C25 1_555 1_555
C4 C6 1_555 1_555
C5 C15 1_555 1_555
C7 C17 1_555 1_555
C8 C12 1_555 1_555
C9 C14 1_555 1_555
N3 C14 1_555 1_555
N9 C27 1_555 1_555
N10 C32 1_555 1_555
Eu11 O14 1_555 1_555
C11 C13 1_555 1_555
C13 H10 1_555 1_555
C21 C11 1_555 1_555
H14 C21 1_555 1_555
C26 C19 1_555 1_555
H17 C26 1_555 1_555
C28 C13 1_555 1_555
H18 C28 1_555 1_555
C33 H21 1_555 1_555
C34 C33 1_555 1_555
C35 C34 1_555 1_555
C36 C33 1_555 1_555
H24 C36 1_555 1_555
C37 C35 1_555 1_555
H25 C37 1_555 1_555
C38 C36 1_555 1_555
C46 C11 1_555 1_555
O7 C46 1_555 1_555
O8 C46 1_555 1_555
O9 C47 1_555 1_555
C47 C38 1_555 1_555
O10 C47 1_555 1_555
Eu4 O7 1_555 1_555
Eu6 O9 1_555 1_555
Eu8 O8 1_555 1_555
Eu10 O9 1_555 1_555
C19 C28 1_555 1_555
C21 C26 1_555 1_555
C37 C38 1_555 1_555
O10 Eu10 1_555 1_555
C11_2 C13_2 1_555 1_555
C13_2 H10_2 1_555 1_555
N5 H13 1_555 1_555
C19_2 N5 1_555 1_555
C21_2 C11_2 1_555 1_555
H14_2 C21_2 1_555 1_555
C26_2 C19_2 1_555 1_555
H17_2 C26_2 1_555 1_555
C28_2 C13_2 1_555 1_555
H18_2 C28_2 1_555 1_555
C46_2 C11_2 1_555 1_555
O17 C46_2 1_555 1_555
O18 C46_2 1_555 1_555
C19_2 C28_2 1_555 1_555
C21_2 C26_2 1_555 1_555
N1 H3 1_555 1_555
N4 C16 1_555 1_555
C16 N1 1_555 1_555
N7 C23 1_555 1_555
N8 C16 1_555 1_555
C23 N4 1_555 1_555
C31 N7 1_555 1_555
C33_2 H21_2 1_555 1_555
C34_2 C33_2 1_555 1_555
N11 C31 1_555 1_555
H22 N11 1_555 1_555
C35_2 C34_2 1_555 1_555
H23 C35_2 1_555 1_555
C36_2 C33_2 1_555 1_555
H24_2 C36_2 1_555 1_555
C37_2 C35_2 1_555 1_555
H25_2 C37_2 1_555 1_555
C38_2 C36_2 1_555 1_555
O9_2 C47_2 1_555 1_555
C47_2 C38_2 1_555 1_555
O10_2 C47_2 1_555 1_555
Eu5 O9_2 1_555 1_555
Eu11 O9_2 1_555 1_555
N8 C31 1_555 1_555
C34_2 N11 1_555 1_555
C37_2 C38_2 1_555 1_555
O10_2 Eu11 1_555 1_555
Eu4 O1_2 1_555 1_555
Eu8 O1_2 1_555 1_555
O1_2 C6_2 1_555 1_555
O3_2 Eu4 1_555 1_555
O4_2 Eu8 1_555 1_555
C4_2 C3_2 1_555 1_555
C6_2 O4_2 1_555 1_555
H4_2 C7_2 1_555 1_555
C8_2 H5_2 1_555 1_555
C10_2 C22_2 1_555 1_555
C12_2 C4_2 1_555 1_555
H9_2 C12_2 1_555 1_555
C22_2 H15_2 1_555 1_555
H16_2 C24_2 1_555 1_555
C48_2 C10_2 1_555 1_555
O22 C48_2 1_555 1_555
O13_2 Eu8 1_555 1_555
O15_2 Eu8 1_555 1_555
O19_2 Eu4 1_555 1_555
O20_2 Eu8 1_555 1_555
O21_2 Eu4 1_555 1_555
Eu8 O19_2 1_555 1_555
O3_2 C25_2 1_555 1_555
C4_2 C6_2 1_555 1_555
C8_2 C12_2 1_555 1_555
C22_2 C24_2 1_555 1_555
C1_2 H1_2 1_555 1_555
C2_2 C1_2 1_555 1_555
H7_2 C9_2 1_555 1_555
N3_2 H8_2 1_555 1_555
C15_2 C1_2 1_555 1_555
H11_2 C15_2 1_555 1_555
C17_2 C5_2 1_555 1_555
N6_2 C20_2 1_555 1_555
C18_2 N2_2 1_555 1_555
C20_2 N3_2 1_555 1_555
N9_2 C20_2 1_555 1_555
N10_2 C27_2 1_555 1_555
C27_2 N2_2 1_555 1_555
C29_2 C18_2 1_555 1_555
H19_2 C29_2 1_555 1_555
H20_2 C30_2 1_555 1_555
C32_2 N6_2 1_555 1_555
C39_2 N12_2 1_555 1_555
N12_2 C32_2 1_555 1_555
H26_2 N12_2 1_555 1_555
C40_2 C39_2 1_555 1_555
H27_2 C40_2 1_555 1_555
C41_2 C39_2 1_555 1_555
H28_2 C41_2 1_555 1_555
C42_2 C43_2 1_555 1_555
C43_2 C40_2 1_555 1_555
H29_2 C43_2 1_555 1_555
C44_2 C41_2 1_555 1_555
H30_2 C44_2 1_555 1_555
C45_2 C42_2 1_555 1_555
O14 C45_2 1_555 1_555
O16 C45_2 1_555 1_555
Eu5 O11_2 1_555 1_555
Eu10 O2_2 1_555 1_555
C5_2 C15_2 1_555 1_555
C9_2 C14_2 1_555 1_555
N3_2 C14_2 1_555 1_555
N9_2 C27_2 1_555 1_555
N10_2 C32_2 1_555 1_555
C29_2 C30_2 1_555 1_555
C42_2 C44_2 1_555 1_555
C11_3 C13_3 1_555 1_555
C13_3 H10_3 1_555 1_555
C21_3 C11_3 1_555 1_555
H14_3 C21_3 1_555 1_555
C26_3 C19_3 1_555 1_555
H17_3 C26_3 1_555 1_555
C28_3 C13_3 1_555 1_555
H18_3 C28_3 1_555 1_555
C33_3 H21_3 1_555 1_555
C34_3 C33_3 1_555 1_555
C35_3 C34_3 1_555 1_555
C36_3 C33_3 1_555 1_555
H24_3 C36_3 1_555 1_555
C37_3 C35_3 1_555 1_555
H25_3 C37_3 1_555 1_555
C38_3 C36_3 1_555 1_555
C46_3 C11_3 1_555 1_555
O7_2 C46_3 1_555 1_555
O8_2 C46_3 1_555 1_555
O19 C47_3 1_555 1_555
C47_3 C38_3 1_555 1_555
O20 C47_3 1_555 1_555
Eu5 O7_2 1_555 1_555
Eu11 O8_2 1_555 1_555
C19_3 C28_3 1_555 1_555
C21_3 C26_3 1_555 1_555
C37_3 C38_3 1_555 1_555
Eu6 O1_3 1_555 1_555
Eu10 O1_3 1_555 1_555
O1_3 C6_3 1_555 1_555
O13_2 Eu6 1_555 1_555
O3_3 Eu6 1_555 1_555
O4_3 Eu10 1_555 1_555
C1_3 H1_3 1_555 1_555
C2_3 C1_3 1_555 1_555
C3_3 H2_3 1_555 1_555
C4_3 C3_3 1_555 1_555
C6_3 O4_3 1_555 1_555
C7_3 C2_3 1_555 1_555
H4_3 C7_3 1_555 1_555
C8_3 H5_3 1_555 1_555
N2_3 H6_3 1_555 1_555
C9_3 C3_3 1_555 1_555
H7_3 C9_3 1_555 1_555
N3_3 H8_3 1_555 1_555
C12_3 C4_3 1_555 1_555
H9_3 C12_3 1_555 1_555
C14_3 C8_3 1_555 1_555
C15_3 C1_3 1_555 1_555
H11_3 C15_3 1_555 1_555
C17_3 C5_3 1_555 1_555
H12_3 C17_3 1_555 1_555
N6_3 C20_3 1_555 1_555
C20_3 N3_3 1_555 1_555
N9_3 C20_3 1_555 1_555
N10_3 C27_3 1_555 1_555
C25_3 O13_2 1_555 1_555
C27_3 N2_3 1_555 1_555
C32_3 N6_3 1_555 1_555
N12_3 C32_3 1_555 1_555
H26_3 N12_3 1_555 1_555
O15_2 Eu6 1_555 1_555
O16_2 Eu6 1_555 1_555
O17_2 Eu6 1_555 1_555
O18_2 Eu10 1_555 1_555
O22_2 Eu10 1_555 1_555
O3_3 C25_3 1_555 1_555
C2_3 C25_3 1_555 1_555
C4_3 C6_3 1_555 1_555
C5_3 C15_3 1_555 1_555
C7_3 C17_3 1_555 1_555
C8_3 C12_3 1_555 1_555
C9_3 C14_3 1_555 1_555
N3_3 C14_3 1_555 1_555
N9_3 C27_3 1_555 1_555
N10_3 C32_3 1_555 1_555
C10_3 C22_3 1_555 1_555
C22_3 H15_3 1_555 1_555
C24_3 C18_3 1_555 1_555
H16_3 C24_3 1_555 1_555
C29_3 C18_3 1_555 1_555
H19_3 C29_3 1_555 1_555
C30_3 C10_3 1_555 1_555
H20_3 C30_3 1_555 1_555
C40_3 C39_3 1_555 1_555
H27_3 C40_3 1_555 1_555
C41_3 C39_3 1_555 1_555
C42_3 C43_3 1_555 1_555
C43_3 C40_3 1_555 1_555
H29_3 C43_3 1_555 1_555
C44_3 C41_3 1_555 1_555
C45_3 C42_3 1_555 1_555
O15 C45_3 1_555 1_555
C48_3 C10_3 1_555 1_555
O21 C48_3 1_555 1_555
O12_2 C48_3 1_555 1_555
Eu11 O12_2 1_555 1_555
C22_3 C24_3 1_555 1_555
C29_3 C30_3 1_555 1_555
C42_3 C44_3 1_555 1_555
O6_2 Eu5 1_555 1_555
C1_4 H1_4 1_555 1_555
C2_4 C1_4 1_555 1_555
H7_4 C9_4 1_555 1_555
N3_4 H8_4 1_555 1_555
C15_4 C1_4 1_555 1_555
H11_4 C15_4 1_555 1_555
C17_4 C5_4 1_555 1_555
N6_4 C20_4 1_555 1_555
C18_4 N2_4 1_555 1_555
C20_4 N3_4 1_555 1_555
N9_4 C20_4 1_555 1_555
N10_4 C27_4 1_555 1_555
C27_4 N2_4 1_555 1_555
C29_4 C18_4 1_555 1_555
H19_4 C29_4 1_555 1_555
H20_4 C30_4 1_555 1_555
C32_4 N6_4 1_555 1_555
C39_4 N12_4 1_555 1_555
N12_4 C32_4 1_555 1_555
H26_4 N12_4 1_555 1_555
C40_4 C39_4 1_555 1_555
H27_4 C40_4 1_555 1_555
C41_4 C39_4 1_555 1_555
H28_4 C41_4 1_555 1_555
C42_4 C43_4 1_555 1_555
C43_4 C40_4 1_555 1_555
H29_4 C43_4 1_555 1_555
C44_4 C41_4 1_555 1_555
H30_4 C44_4 1_555 1_555
C45_4 C42_4 1_555 1_555
O15_2 C45_4 1_555 1_555
O16_2 C45_4 1_555 1_555
C5_4 C15_4 1_555 1_555
C9_4 C14_4 1_555 1_555
N3_4 C14_4 1_555 1_555
N9_4 C27_4 1_555 1_555
N10_4 C32_4 1_555 1_555
C29_4 C30_4 1_555 1_555
C42_4 C44_4 1_555 1_555
Eu5 O1_4 1_555 1_555
Eu11 O1_4 1_555 1_555
O1_4 C6_4 1_555 1_555
O3_4 Eu5 1_555 1_555
O4_4 Eu11 1_555 1_555
C4_4 C3_4 1_555 1_555
C6_4 O4_4 1_555 1_555
H4_4 C7_4 1_555 1_555
C8_4 H5_4 1_555 1_555
C10_4 C22_4 1_555 1_555
C12_4 C4_4 1_555 1_555
H9_4 C12_4 1_555 1_555
C22_4 H15_4 1_555 1_555
H16_4 C24_4 1_555 1_555
C48_4 C10_4 1_555 1_555
O22_2 C48_4 1_555 1_555
O3_4 C25_4 1_555 1_555
C4_4 C6_4 1_555 1_555
C8_4 C12_4 1_555 1_555
C22_4 C24_4 1_555 1_555
N1_2 H3_2 1_555 1_555
N4_2 C16_2 1_555 1_555
C16_2 N1_2 1_555 1_555
N7_2 C23_2 1_555 1_555
N8_2 C16_2 1_555 1_555
C23_2 N4_2 1_555 1_555
C31_2 N7_2 1_555 1_555
C33_4 H21_4 1_555 1_555
C34_4 C33_4 1_555 1_555
N11_2 C31_2 1_555 1_555
H22_2 N11_2 1_555 1_555
C35_4 C34_4 1_555 1_555
H23_2 C35_4 1_555 1_555
C36_4 C33_4 1_555 1_555
H24_4 C36_4 1_555 1_555
C37_4 C35_4 1_555 1_555
H25_4 C37_4 1_555 1_555
C38_4 C36_4 1_555 1_555
O19_2 C47_4 1_555 1_555
C47_4 C38_4 1_555 1_555
O20_2 C47_4 1_555 1_555
N8_2 C31_2 1_555 1_555
C34_4 N11_2 1_555 1_555
C37_4 C38_4 1_555 1_555
C11_4 C13_4 1_555 1_555
C13_4 H10_4 1_555 1_555
N5_2 H13_2 1_555 1_555
C19_4 N5_2 1_555 1_555
C21_4 C11_4 1_555 1_555
H14_4 C21_4 1_555 1_555
C26_4 C19_4 1_555 1_555
H17_4 C26_4 1_555 1_555
C28_4 C13_4 1_555 1_555
H18_4 C28_4 1_555 1_555
C46_4 C11_4 1_555 1_555
O17_2 C46_4 1_555 1_555
O18_2 C46_4 1_555 1_555
C19_4 C28_4 1_555 1_555
C21_4 C26_4 1_555 1_555
N1_3 H3_3 1_555 1_555
N4_3 C16_3 1_555 1_555
C16_3 N1_3 1_555 1_555
N5_3 H13_3 1_555 1_555
N7_3 C23_3 1_555 1_555
N8_3 C16_3 1_555 1_555
C23_3 N4_3 1_555 1_555
C31_3 N7_3 1_555 1_555
N11_3 C31_3 1_555 1_555
H22_3 N11_3 1_555 1_555
N5_3 C23_3 1_555 1_555
N8_3 C31_3 1_555 1_555
N1_4 H3_4 1_555 1_555
N4_4 C16_4 1_555 1_555
C16_4 N1_4 1_555 1_555
N5_4 H13_4 1_555 1_555
N7_4 C23_4 1_555 1_555
N8_4 C16_4 1_555 1_555
C23_4 N4_4 1_555 1_555
C31_4 N7_4 1_555 1_555
N11_4 C31_4 1_555 1_555
H22_4 N11_4 1_555 1_555
N5_4 C23_4 1_555 1_555
N8_4 C31_4 1_555 1_555

#END
