
###############################################################################
#
# This file contains modified crystal structure data generated from the
# MOF subset of the Cambridge Structural Database (CSD) v543 
# hosted by the Cambridge Crystallographic Data Centre (CCDC).
#
# This work is licensed under the Creative Commons
# Attribution-NonCommercial-ShareAlike 4.0 International License.
# To view a copy of this license, visit
# http://creativecommons.org/licenses/by-nc-sa/4.0/
# or send a letter to
# Creative Commons, PO Box 1866, Mountain View, CA 94042, USA.
#
# CIF created using the CSD Python API on 29 September 2022
# The structure has been converted into the P1 space group
# The structure has a 3D framework
# The original CSD entry DIHREU is in the monoclinic crystal system
# The framework has been calculated to contain at least 10.0% void space
# The void calculation uses a probe of radius 1.32A, grid spacing 0.4
#
###############################################################################

data_DIHREU
_chemical_formula_moiety         '(C192 H120 Eu8 N48 O44)n'
_symmetry_cell_setting           triclinic
_symmetry_space_group_name_H-M   'P 1'
_symmetry_Int_Tables_number      1
_space_group_name_Hall           'P 1'
loop_
_symmetry_equiv_pos_site_id
_symmetry_equiv_pos_as_xyz
1 x,y,z
_cell_length_a                   32.159(3)
_cell_length_b                   16.9564(14)
_cell_length_c                   15.0477(12)
_cell_angle_alpha                90
_cell_angle_beta                 102.061(2)
_cell_angle_gamma                90
_cell_volume                     8024.39
loop_
_atom_site_label
_atom_site_type_symbol
_atom_site_fract_x
_atom_site_fract_y
_atom_site_fract_z
Eu1 Eu 0.263583(12) 0.26979(2) 0.07793(3)
O2 O 0.3301(2) 0.2156(6) 0.0548(5)
O4 O 0.2417(2) 0.4051(4) 0.0440(5)
O5 O 0.3148(3) 0.3469(5) 0.1707(7)
O6 O 0.20163(19) 0.2740(4) 0.1437(4)
O7 O 0.27867(18) 0.1831(3) 0.2084(4)
O8 O 0.2325(2) 0.1573(5) 0.0120(6)
C2 C 0.1676(3) 0.2436(5) 0.1591(6)
O9 O 0.2785(2) 0.3438(5) 0.2765(7)
O10 O 0.1654(2) 0.2193(5) 0.2347(5)
O11 O 0.2470(2) 0.1029(4) 0.2856(5)
O12 O 0.2031(4) 0.3492(5) 0.3636(7)
C4 C 0.1291(3) 0.2404(6) 0.0853(7)
C8 C 0.0928(4) 0.2034(9) 0.1023(8)
H2 H 0.4041 0.1818 0.0504
H4 H 0.0929 0.1822 0.1593
C12 C 0.0562(4) 0.1982(11) 0.0330(8)
H8 H 0.0317 0.1755 0.0457
N8 N 0.5669(4) 0.0714(9) 0.0526(7)
H11 H 0.5475 0.0806 0.0828
C21 C 0.6000(4) 0.0226(9) 0.0998(8)
C25 C 0.6348(4) 0.0023(9) 0.0657(9)
H15 H 0.6387 0.0219 0.0103
H16 H 0.5715 0.0099 0.2032
Eu3 Eu 0.236693(12) 0.24304(3) 0.31299(3)
O13 O 0.2961(2) 0.2232(4) 0.4360(4)
O14 O 0.21439(17) 0.1773(3) 0.4365(4)
O1 O 0.2961(2) 0.2768(4) 0.9360(4)
O3 O 0.21439(17) 0.3227(3) 0.9365(4)
Eu2 Eu 0.236693(12) 0.25696(3) 0.81299(3)
C1 C 0.3301(3) 0.2451(5) 0.9816(6)
C3 C 0.3691(3) 0.2420(6) 0.9437(6)
C5 C 0.3724(3) 0.2741(7) 0.8611(8)
C6 C 0.4050(4) 0.2028(9) 0.9937(8)
C7 C 0.1267(3) 0.2702(7) 0.9987(8)
H1 H 0.3493 0.3012 0.8270
C9 C 0.4091(4) 0.2670(8) 0.8284(9)
C10 C 0.4409(4) 0.1951(10) 0.9601(9)
C11 C 0.0901(4) 0.2623(9) 0.9318(8)
H3 H 0.1500 0.2961 0.9851
C13 C 0.4442(4) 0.2283(8) 0.8786(10)
H5 H 0.4103 0.2883 0.7721
H6 H 0.4637 0.1667 0.9930
C14 C 0.0555(3) 0.2255(8) 0.9483(8)
H7 H 0.0894 0.2828 0.8742
N1 N 0.4802(3) 0.2215(8) 0.8383(8)
N2 N 0.0204(3) 0.2200(7) 0.8743(7)
H9 H 0.4788 0.2468 0.7883
C15 C 0.5168(4) 0.1798(9) 0.8691(9)
H10 H 0.0227 0.2474 0.8274
N3 N 0.5242(3) 0.1467(8) 0.9514(8)
N4 N 0.5415(3) 0.1758(7) 0.8060(7)
C17 C 0.5595(4) 0.1064(8) 0.9711(8)
C18 C 0.5757(4) 0.1284(8) 0.8376(9)
N7 N 0.5874(3) 0.0930(6) 0.9154(7)
N9 N 0.6015(4) 0.1197(7) 0.7766(8)
H12 H 0.5974 0.1518 0.7314
C22 C 0.6337(4) 0.0638(7) 0.7802(8)
C28 C 0.6684(6) 0.0773(8) 0.7377(12)
H18 H 0.6711 0.1264 0.7120
C36 C 0.6975(5) 0.0216(7) 0.7333(10)
H26 H 0.7201 0.0328 0.7056
C26 C 0.5954(4) 0.9955(11) 0.1814(9)
C33 C 0.6649(4) 0.9501(8) 0.1182(8)
C34 C 0.6255(4) 0.9465(9) 0.2335(9)
H23 H 0.6883 0.9342 0.0955
C41 C 0.6604(4) 0.9227(7) 0.2011(8)
H24 H 0.6220 0.9297 0.2904
C45 C 0.6903(4) 0.8656(6) 0.2561(11)
O15 O 0.7215(2) 0.8438(5) 0.2235(7)
O16 O 0.6852(3) 0.8469(5) 0.3293(7)
Eu4 Eu 0.763307(12) 0.74304(3) 0.18701(3)
Eu5 Eu 0.736417(12) 0.76979(2) 0.42207(3)
C27 C 0.6306(3) 0.9890(7) 0.8153(9)
H17 H 0.6075 0.9764 0.8407
C35 C 0.6614(3) 0.9331(6) 0.8131(7)
H25 H 0.6601 0.8847 0.8414
C42 C 0.6941(3) 0.9478(5) 0.7696(7)
C46 C 0.7253(2) 0.8874(5) 0.7595(5)
O17 O 0.72133(18) 0.8169(3) 0.7916(4)
O18 O 0.7530(2) 0.8971(4) 0.7144(5)
Eu6 Eu 0.736417(12) 0.73021(2) 0.92207(3)
Eu7 Eu 0.763307(12) 0.75696(3) 0.68701(3)
C32 C 0.8936(5) 0.9930(11) 0.0874(8)
C40 C 0.8616(5) 0.9462(11) 0.1050(9)
C44 C 0.8280(4) 0.9250(7) 0.0351(8)
H30 H 0.8623 0.9287 0.1639
C48 C 0.7956(4) 0.8663(6) 0.0547(8)
O21 O 0.7969(4) 0.8492(5) 0.1364(7)
C29 C 0.8735(4) 0.9922(7) 0.6881(7)
C31 C 0.8598(4) 0.9987(8) 0.9305(8)
H19 H 0.8940 0.9796 0.7394
C37 C 0.8440(3) 0.9355(7) 0.6493(6)
C39 C 0.8276(4) 0.9522(7) 0.9499(7)
H27 H 0.8446 0.8858 0.6757
C43 C 0.8139(3) 0.9523(6) 0.5719(6)
H29 H 0.8049 0.9390 0.9031
C47 C 0.7837(3) 0.8916(6) 0.5283(6)
O19 O 0.78561(17) 0.8227(3) 0.5635(4)
O20 O 0.7583(2) 0.9051(4) 0.4560(5)
O22 O 0.7675(2) 0.8427(5) 0.9880(6)
H28 H 0.2103 0.5418 0.0113
C16 C 0.0162(3) 0.6784(7) 0.6346(7)
N5 N 0.0397(3) 0.6771(7) 0.7203(6)
N6 N 0.0259(3) 0.6447(7) 0.5607(6)
C19 C 0.0731(3) 0.6300(7) 0.7291(7)
C20 C 0.0623(3) 0.6015(8) 0.5820(7)
N10 N 0.0962(3) 0.6233(6) 0.8155(6)
N11 N 0.0861(3) 0.5910(6) 0.6641(6)
N12 N 0.0728(3) 0.5697(8) 0.5070(7)
C23 C 0.1274(3) 0.5676(7) 0.8490(6)
H13 H 0.0909 0.6574 0.8540
C24 C 0.1072(4) 0.5199(8) 0.5001(7)
H14 H 0.0562 0.5817 0.4563
C29_2 C 0.1265(4) 0.4922(7) 0.8119(7)
C30 C 0.1579(4) 0.5823(7) 0.9272(9)
C31_2 C 0.1402(4) 0.4987(8) 0.5695(8)
C32_2 C 0.1064(5) 0.4930(11) 0.4126(8)
H19_2 H 0.1060 0.4796 0.7606
C37_2 C 0.1560(3) 0.4355(7) 0.8507(6)
C38 C 0.1883(5) 0.5280(7) 0.9632(9)
H20 H 0.1578 0.6308 0.9560
C39_2 C 0.1724(4) 0.4522(7) 0.5501(7)
H21 H 0.1409 0.5155 0.6287
C40_2 C 0.1384(5) 0.4462(11) 0.3950(9)
H22 H 0.0839 0.5068 0.3656
H27_2 H 0.1554 0.3858 0.8243
C43_2 C 0.1861(3) 0.4523(6) 0.9281(6)
H29_2 H 0.1951 0.4390 0.5969
C44_2 C 0.1720(4) 0.4250(7) 0.4649(8)
H30_2 H 0.1377 0.4287 0.3361
C47_2 C 0.2163(3) 0.3916(6) 0.9717(6)
C48_2 C 0.2044(4) 0.3663(6) 0.4453(8)
O22_2 O 0.2325(2) 0.3427(5) 0.5120(6)
Eu11 Eu 0.263583(12) 0.23021(2) 0.57793(3)
O1_2 O 0.7039(2) 0.7768(4) 0.5640(4)
O2_2 O 0.6699(2) 0.7156(6) 0.4452(5)
O6_2 O 0.79837(19) 0.7740(4) 0.3563(4)
O7_2 O 0.72133(18) 0.6831(3) 0.2916(4)
O8_2 O 0.7675(2) 0.6573(5) 0.4880(6)
C1_2 C 0.6699(3) 0.7451(5) 0.5184(6)
C2_2 C 0.8324(3) 0.7436(5) 0.3409(6)
C3_2 C 0.6309(3) 0.7420(6) 0.5563(6)
O10_2 O 0.8346(2) 0.7193(5) 0.2653(5)
O11_2 O 0.7530(2) 0.6029(4) 0.2144(5)
C4_2 C 0.8709(3) 0.7404(6) 0.4147(7)
C5_2 C 0.6276(3) 0.7741(7) 0.6389(8)
C6_2 C 0.5950(4) 0.7028(9) 0.5063(8)
C7_2 C 0.8733(3) 0.7702(7) 0.5013(8)
C8_2 C 0.9072(4) 0.7034(9) 0.3977(8)
H1_2 H 0.6507 0.8012 0.6730
C9_2 C 0.5909(4) 0.7670(8) 0.6716(9)
H2_2 H 0.5959 0.6818 0.4496
C10_2 C 0.5591(4) 0.6951(10) 0.5399(9)
C11_2 C 0.9099(4) 0.7623(9) 0.5682(8)
H3_2 H 0.8500 0.7961 0.5149
H4_2 H 0.9071 0.6822 0.3407
C12_2 C 0.9438(4) 0.6982(11) 0.4670(8)
C13_2 C 0.5558(4) 0.7283(8) 0.6214(10)
H5_2 H 0.5897 0.7883 0.7279
H6_2 H 0.5363 0.6667 0.5070
C14_2 C 0.9445(3) 0.7255(8) 0.5517(8)
H7_2 H 0.9106 0.7828 0.6258
H8_2 H 0.9683 0.6755 0.4543
N1_2 N 0.5198(3) 0.7215(8) 0.6617(8)
N2_2 N 0.9796(3) 0.7200(7) 0.6257(7)
H9_2 H 0.5212 0.7468 0.7117
C15_2 C 0.4832(4) 0.6798(9) 0.6309(9)
H10_2 H 0.9773 0.7474 0.6726
N3_2 N 0.4758(3) 0.6467(8) 0.5486(8)
N4_2 N 0.4585(3) 0.6758(7) 0.6940(7)
C17_2 C 0.4405(4) 0.6064(8) 0.5289(8)
C18_2 C 0.4243(4) 0.6284(8) 0.6624(9)
N7_2 N 0.4126(3) 0.5930(6) 0.5846(7)
N8_2 N 0.4331(4) 0.5714(9) 0.4474(7)
N9_2 N 0.3985(4) 0.6197(7) 0.7234(8)
H11_2 H 0.4525 0.5806 0.4172
C21_2 C 0.4000(4) 0.5226(9) 0.4002(8)
H12_2 H 0.4026 0.6518 0.7686
C22_2 C 0.3663(4) 0.5638(7) 0.7198(8)
C25_2 C 0.3652(4) 0.5023(9) 0.4343(9)
C26_2 C 0.4046(4) 0.4955(11) 0.3186(9)
C27_2 C 0.3694(3) 0.4890(7) 0.6847(9)
C28_2 C 0.3316(6) 0.5773(8) 0.7623(12)
C33_2 C 0.3351(4) 0.4501(8) 0.3818(8)
H15_2 H 0.3613 0.5219 0.4897
C34_2 C 0.3745(4) 0.4465(9) 0.2665(9)
H16_2 H 0.4285 0.5099 0.2968
H17_2 H 0.3925 0.4764 0.6593
C35_2 C 0.3386(3) 0.4331(6) 0.6869(7)
H18_2 H 0.3289 0.6264 0.7880
C36_2 C 0.3025(5) 0.5216(7) 0.7667(10)
H23_2 H 0.3117 0.4342 0.4045
C41_2 C 0.3396(4) 0.4227(7) 0.2989(8)
H24_2 H 0.3780 0.4297 0.2096
H25_2 H 0.3399 0.3847 0.6586
C42_2 C 0.3059(3) 0.4478(5) 0.7304(7)
H26_2 H 0.2799 0.5328 0.7944
C45_2 C 0.3097(4) 0.3656(6) 0.2439(11)
C46_2 C 0.2747(2) 0.3874(5) 0.7405(5)
O13_2 O 0.7039(2) 0.7232(4) 0.0640(4)
O14_2 O 0.78561(17) 0.6773(3) 0.0635(4)
O17_2 O 0.27867(18) 0.3169(3) 0.7084(4)
O18_2 O 0.2470(2) 0.3971(4) 0.7856(5)
C29_3 C 0.1265(4) 0.0078(7) 0.3119(7)
C31_3 C 0.1402(4) 0.0013(8) 0.0695(8)
H19_3 H 0.1060 0.0204 0.2606
C37_3 C 0.1560(3) 0.0645(7) 0.3507(6)
C39_3 C 0.1724(4) 0.0478(7) 0.0501(7)
H27_3 H 0.1554 0.1142 0.3243
C43_3 C 0.1861(3) 0.0477(6) 0.4281(6)
H29_3 H 0.1951 0.0610 0.0969
C47_3 C 0.2163(3) 0.1084(6) 0.4717(6)
O20_2 O 0.2417(2) 0.0949(4) 0.5440(5)
C32_3 C 0.1064(5) 0.0070(11) 0.9126(8)
C40_3 C 0.1384(5) 0.0538(11) 0.8950(9)
C44_3 C 0.1720(4) 0.0750(7) 0.9649(8)
H30_3 H 0.1377 0.0713 0.8361
C48_3 C 0.2044(4) 0.1337(6) 0.9453(8)
O21_2 O 0.2031(4) 0.1508(5) 0.8636(7)
C27_3 C 0.3694(3) 0.0110(7) 0.1847(9)
H17_3 H 0.3925 0.0236 0.1593
C35_3 C 0.3386(3) 0.0669(6) 0.1869(7)
H25_3 H 0.3399 0.1153 0.1586
C42_3 C 0.3059(3) 0.0522(5) 0.2304(7)
C46_3 C 0.2747(2) 0.1126(5) 0.2405(5)
C26_3 C 0.4046(4) 0.0045(11) 0.8186(9)
C33_3 C 0.3351(4) 0.0499(8) 0.8818(8)
C34_3 C 0.3745(4) 0.0535(9) 0.7665(9)
H23_3 H 0.3117 0.0658 0.9045
C41_3 C 0.3396(4) 0.0773(7) 0.7989(8)
H24_3 H 0.3780 0.0703 0.7096
C45_3 C 0.3097(4) 0.1344(6) 0.7439(11)
O15_2 O 0.2785(2) 0.1562(5) 0.7765(7)
O16_2 O 0.3148(3) 0.1531(5) 0.6707(7)
C1_3 C 0.6699(3) 0.7549(5) 0.0184(6)
C3_3 C 0.6309(3) 0.7580(6) 0.0563(6)
C5_3 C 0.6276(3) 0.7259(7) 0.1389(8)
C6_3 C 0.5950(4) 0.7972(9) 0.0063(8)
C7_3 C 0.8733(3) 0.7298(7) 0.0013(8)
H1_3 H 0.6507 0.6988 0.1730
C9_3 C 0.5909(4) 0.7330(8) 0.1716(9)
C10_3 C 0.5591(4) 0.8049(10) 0.0399(9)
C11_3 C 0.9099(4) 0.7377(9) 0.0682(8)
H3_3 H 0.8500 0.7039 0.0149
C13_3 C 0.5558(4) 0.7717(8) 0.1214(10)
H5_3 H 0.5897 0.7117 0.2279
H6_3 H 0.5363 0.8333 0.0070
C14_3 C 0.9445(3) 0.7745(8) 0.0517(8)
H7_3 H 0.9106 0.7172 0.1258
N1_3 N 0.5198(3) 0.7785(8) 0.1617(8)
N2_3 N 0.9796(3) 0.7800(7) 0.1257(7)
H9_3 H 0.5212 0.7532 0.2117
C15_3 C 0.4832(4) 0.8202(9) 0.1309(9)
H10_3 H 0.9773 0.7526 0.1726
N3_3 N 0.4758(3) 0.8533(8) 0.0486(8)
N4_3 N 0.4585(3) 0.8242(7) 0.1940(7)
C17_3 C 0.4405(4) 0.8936(8) 0.0289(8)
C18_3 C 0.4243(4) 0.8716(8) 0.1624(9)
N7_3 N 0.4126(3) 0.9070(6) 0.0846(7)
N9_3 N 0.3985(4) 0.8803(7) 0.2234(8)
H12_3 H 0.4026 0.8482 0.2686
C22_3 C 0.3663(4) 0.9362(7) 0.2198(8)
C28_3 C 0.3316(6) 0.9227(8) 0.2623(12)
H18_3 H 0.3289 0.8736 0.2880
C36_3 C 0.3025(5) 0.9784(7) 0.2667(10)
H26_3 H 0.2799 0.9672 0.2944
O2_3 O 0.6699(2) 0.7844(6) 0.9452(5)
O4_2 O 0.7583(2) 0.5949(4) 0.9560(5)
O5_2 O 0.6852(3) 0.6531(5) 0.8293(7)
O6_3 O 0.79837(19) 0.7260(4) 0.8563(4)
C2_3 C 0.8324(3) 0.7564(5) 0.8409(6)
O9_2 O 0.7215(2) 0.6562(5) 0.7235(7)
O10_3 O 0.8346(2) 0.7807(5) 0.7653(5)
O12_2 O 0.7969(4) 0.6508(5) 0.6364(7)
C4_3 C 0.8709(3) 0.7596(6) 0.9147(7)
C8_3 C 0.9072(4) 0.7966(9) 0.8977(8)
H2_3 H 0.5959 0.8182 0.9496
H4_3 H 0.9071 0.8178 0.8407
C12_3 C 0.9438(4) 0.8018(11) 0.9670(8)
H8_3 H 0.9683 0.8245 0.9543
N8_3 N 0.4331(4) 0.9286(9) 0.9474(7)
H11_3 H 0.4525 0.9194 0.9172
C21_3 C 0.4000(4) 0.9774(9) 0.9002(8)
C25_3 C 0.3652(4) 0.9977(9) 0.9343(9)
H15_3 H 0.3613 0.9781 0.9897
H16_3 H 0.4285 0.9901 0.7968
O2_4 O 0.3301(2) 0.2844(6) 0.5548(5)
O6_4 O 0.20163(19) 0.2260(4) 0.6437(4)
C1_4 C 0.3301(3) 0.2549(5) 0.4816(6)
C2_4 C 0.1676(3) 0.2564(5) 0.6591(6)
C3_4 C 0.3691(3) 0.2580(6) 0.4437(6)
O10_4 O 0.1654(2) 0.2807(5) 0.7347(5)
C4_4 C 0.1291(3) 0.2596(6) 0.5853(7)
C5_4 C 0.3724(3) 0.2259(7) 0.3611(8)
C6_4 C 0.4050(4) 0.2972(9) 0.4937(8)
C7_4 C 0.1267(3) 0.2298(7) 0.4987(8)
C8_4 C 0.0928(4) 0.2966(9) 0.6023(8)
H1_4 H 0.3493 0.1988 0.3270
C9_4 C 0.4091(4) 0.2330(8) 0.3284(9)
H2_4 H 0.4041 0.3182 0.5504
C10_4 C 0.4409(4) 0.3049(10) 0.4601(9)
C11_4 C 0.0901(4) 0.2377(9) 0.4318(8)
H3_4 H 0.1500 0.2039 0.4851
H4_4 H 0.0929 0.3178 0.6593
C12_4 C 0.0562(4) 0.3018(11) 0.5330(8)
C13_4 C 0.4442(4) 0.2717(8) 0.3786(10)
H5_4 H 0.4103 0.2117 0.2721
H6_4 H 0.4637 0.3333 0.4930
C14_4 C 0.0555(3) 0.2745(8) 0.4483(8)
H7_4 H 0.0894 0.2172 0.3742
H8_4 H 0.0317 0.3245 0.5457
N1_4 N 0.4802(3) 0.2785(8) 0.3383(8)
N2_4 N 0.0204(3) 0.2800(7) 0.3743(7)
H9_4 H 0.4788 0.2532 0.2883
C15_4 C 0.5168(4) 0.3202(9) 0.3691(9)
H10_4 H 0.0227 0.2526 0.3274
N3_4 N 0.5242(3) 0.3533(8) 0.4514(8)
N4_4 N 0.5415(3) 0.3242(7) 0.3060(7)
C17_4 C 0.5595(4) 0.3936(8) 0.4711(8)
C18_4 C 0.5757(4) 0.3716(8) 0.3376(9)
N7_4 N 0.5874(3) 0.4070(6) 0.4154(7)
N8_4 N 0.5669(4) 0.4286(9) 0.5526(7)
N9_4 N 0.6015(4) 0.3803(7) 0.2766(8)
H11_4 H 0.5475 0.4194 0.5828
C21_4 C 0.6000(4) 0.4774(9) 0.5998(8)
H12_4 H 0.5974 0.3482 0.2314
C22_4 C 0.6337(4) 0.4362(7) 0.2802(8)
C25_4 C 0.6348(4) 0.4977(9) 0.5657(9)
C26_4 C 0.5954(4) 0.5045(11) 0.6814(9)
C27_4 C 0.6306(3) 0.5110(7) 0.3153(9)
C28_4 C 0.6684(6) 0.4227(8) 0.2377(12)
C33_4 C 0.6649(4) 0.5499(8) 0.6182(8)
H15_4 H 0.6387 0.4781 0.5103
C34_4 C 0.6255(4) 0.5535(9) 0.7335(9)
H16_4 H 0.5715 0.4901 0.7032
H17_4 H 0.6075 0.5236 0.3407
C35_4 C 0.6614(3) 0.5669(6) 0.3131(7)
H18_4 H 0.6711 0.3736 0.2120
C36_4 C 0.6975(5) 0.4784(7) 0.2333(10)
H23_4 H 0.6883 0.5658 0.5955
C41_4 C 0.6604(4) 0.5773(7) 0.7011(8)
H24_4 H 0.6220 0.5703 0.7904
H25_4 H 0.6601 0.6153 0.3414
C42_4 C 0.6941(3) 0.5522(5) 0.2696(7)
H26_4 H 0.7201 0.4672 0.2056
C45_4 C 0.6903(4) 0.6344(6) 0.7561(11)
C46_4 C 0.7253(2) 0.6126(5) 0.2595(5)
C16_2 C 0.9838(3) 0.3216(7) 0.3654(7)
N5_2 N 0.9603(3) 0.3229(7) 0.2797(6)
N6_2 N 0.9741(3) 0.3553(7) 0.4393(6)
C19_2 C 0.9269(3) 0.3700(7) 0.2709(7)
C20_2 C 0.9377(3) 0.3985(8) 0.4180(7)
N10_2 N 0.9038(3) 0.3767(6) 0.1845(6)
N11_2 N 0.9139(3) 0.4090(6) 0.3359(6)
N12_2 N 0.9272(3) 0.4303(8) 0.4930(7)
C23_2 C 0.8726(3) 0.4324(7) 0.1510(6)
H13_2 H 0.9091 0.3426 0.1460
C24_2 C 0.8928(4) 0.4801(8) 0.4999(7)
H14_2 H 0.9438 0.4183 0.5437
C29_4 C 0.8735(4) 0.5078(7) 0.1881(7)
C30_2 C 0.8421(4) 0.4177(7) 0.0728(9)
C31_4 C 0.8598(4) 0.5013(8) 0.4305(8)
C32_4 C 0.8936(5) 0.5070(11) 0.5874(8)
H19_4 H 0.8940 0.5204 0.2394
C37_4 C 0.8440(3) 0.5645(7) 0.1493(6)
C38_2 C 0.8117(5) 0.4720(7) 0.0368(9)
H20_2 H 0.8422 0.3692 0.0440
C39_4 C 0.8276(4) 0.5478(7) 0.4499(7)
H21_2 H 0.8591 0.4845 0.3713
C40_4 C 0.8616(5) 0.5538(11) 0.6050(9)
H22_2 H 0.9161 0.4932 0.6344
H27_4 H 0.8446 0.6142 0.1757
C43_4 C 0.8139(3) 0.5477(6) 0.0719(6)
H29_4 H 0.8049 0.5610 0.4031
C44_4 C 0.8280(4) 0.5750(7) 0.5351(8)
H30_4 H 0.8623 0.5713 0.6639
C47_4 C 0.7837(3) 0.6084(6) 0.0283(6)
C48_4 C 0.7956(4) 0.6337(6) 0.5547(8)
H28_2 H 0.7897 0.4582 0.9887
H14_3 H 0.9438 0.0817 0.0437
H22_3 H 0.9161 0.0068 0.1344
C16_3 C 0.9838(3) 0.1784(7) 0.8654(7)
N5_3 N 0.9603(3) 0.1771(7) 0.7797(6)
N6_3 N 0.9741(3) 0.1447(7) 0.9393(6)
C19_3 C 0.9269(3) 0.1300(7) 0.7709(7)
C20_3 C 0.9377(3) 0.1015(8) 0.9180(7)
N10_3 N 0.9038(3) 0.1233(6) 0.6845(6)
N11_3 N 0.9139(3) 0.0910(6) 0.8359(6)
N12_3 N 0.9272(3) 0.0697(8) 0.9930(7)
C23_3 C 0.8726(3) 0.0676(7) 0.6510(6)
H13_3 H 0.9091 0.1574 0.6460
C24_3 C 0.8928(4) 0.0199(8) 0.9999(7)
C30_3 C 0.8421(4) 0.0823(7) 0.5728(9)
C38_3 C 0.8117(5) 0.0280(7) 0.5368(9)
H20_3 H 0.8422 0.1308 0.5440
H21_3 H 0.8591 0.0155 0.8713
H28_3 H 0.7897 0.0418 0.4887
C16_4 C 0.0162(3) 0.8216(7) 0.1346(7)
N5_4 N 0.0397(3) 0.8229(7) 0.2203(6)
N6_4 N 0.0259(3) 0.8553(7) 0.0607(6)
C19_4 C 0.0731(3) 0.8700(7) 0.2291(7)
C20_4 C 0.0623(3) 0.8985(8) 0.0820(7)
N10_4 N 0.0962(3) 0.8767(6) 0.3155(6)
N11_4 N 0.0861(3) 0.9090(6) 0.1641(6)
N12_4 N 0.0728(3) 0.9303(8) 0.0070(7)
C23_4 C 0.1274(3) 0.9324(7) 0.3490(6)
H13_4 H 0.0909 0.8426 0.3540
C24_4 C 0.1072(4) 0.9801(8) 0.0001(7)
C30_4 C 0.1579(4) 0.9177(7) 0.4272(9)
C38_4 C 0.1883(5) 0.9720(7) 0.4632(9)
H20_4 H 0.1578 0.8692 0.4560
H21_4 H 0.1409 0.9845 0.1287
H28_4 H 0.2103 0.9582 0.5113
H14_4 H 0.0562 0.9183 0.9563
H22_4 H 0.0839 0.9932 0.8656
loop_
_geom_bond_atom_site_label_1
_geom_bond_atom_site_label_2
_geom_bond_site_symmetry_1
_geom_bond_site_symmetry_2
O2 Eu1 1_555 1_555
O4 Eu1 1_555 1_555
O5 Eu1 1_555 1_555
O6 Eu1 1_555 1_555
O7 Eu1 1_555 1_555
O8 Eu1 1_555 1_555
C2 O6 1_555 1_555
O9 Eu3 1_555 1_555
O10 C2 1_555 1_555
O11 Eu3 1_555 1_555
O12 Eu3 1_555 1_555
C4 C2 1_555 1_555
C8 C4 1_555 1_555
H4 C8 1_555 1_555
C12 C8 1_555 1_555
H8 C12 1_555 1_555
H11 N8 1_555 1_555
C21 N8 1_555 1_555
C25 C21 1_555 1_555
H15 C25 1_555 1_555
Eu3 O6 1_555 1_555
O13 Eu3 1_555 1_555
O14 Eu3 1_555 1_555
O7 Eu3 1_555 1_555
O10 Eu3 1_555 1_555
O1 Eu2 1_555 1_555
Eu2 O3 1_555 1_555
C1 O1 1_555 1_555
C3 C1 1_555 1_555
C5 C3 1_555 1_555
C6 C3 1_555 1_555
H1 C5 1_555 1_555
C9 C5 1_555 1_555
C10 C6 1_555 1_555
C11 C7 1_555 1_555
H3 C7 1_555 1_555
C13 C9 1_555 1_555
H5 C9 1_555 1_555
H6 C10 1_555 1_555
C14 C11 1_555 1_555
H7 C11 1_555 1_555
N1 C13 1_555 1_555
N2 C14 1_555 1_555
H9 N1 1_555 1_555
C15 N1 1_555 1_555
H10 N2 1_555 1_555
N3 C15 1_555 1_555
N4 C15 1_555 1_555
C17 N3 1_555 1_555
C18 N4 1_555 1_555
N7 C17 1_555 1_555
N9 C18 1_555 1_555
H12 N9 1_555 1_555
C22 N9 1_555 1_555
C28 C22 1_555 1_555
H18 C28 1_555 1_555
C36 C28 1_555 1_555
H26 C36 1_555 1_555
C10 C13 1_555 1_555
C18 N7 1_555 1_555
C34 C26 1_555 1_555
H23 C33 1_555 1_555
C41 C33 1_555 1_555
H24 C34 1_555 1_555
C45 C41 1_555 1_555
O15 C45 1_555 1_555
O16 C45 1_555 1_555
Eu4 O15 1_555 1_555
Eu5 O16 1_555 1_555
C34 C41 1_555 1_555
H17 C27 1_555 1_555
C35 C27 1_555 1_555
H25 C35 1_555 1_555
C42 C35 1_555 1_555
C46 C42 1_555 1_555
O17 C46 1_555 1_555
O18 C46 1_555 1_555
Eu6 O17 1_555 1_555
Eu7 O17 1_555 1_555
O18 Eu7 1_555 1_555
C40 C32 1_555 1_555
H30 C40 1_555 1_555
C48 C44 1_555 1_555
O21 C48 1_555 1_555
Eu4 O21 1_555 1_555
C40 C44 1_555 1_555
H19 C29 1_555 1_555
C37 C29 1_555 1_555
C39 C31 1_555 1_555
H27 C37 1_555 1_555
C43 C37 1_555 1_555
H29 C39 1_555 1_555
C47 C43 1_555 1_555
O19 C47 1_555 1_555
O20 C47 1_555 1_555
Eu5 O19 1_555 1_555
Eu7 O19 1_555 1_555
Eu6 O22 1_555 1_555
O20 Eu5 1_555 1_555
N5 C16 1_555 1_555
N6 C16 1_555 1_555
C19 N5 1_555 1_555
C20 N6 1_555 1_555
N10 C19 1_555 1_555
N11 C19 1_555 1_555
N12 C20 1_555 1_555
C23 N10 1_555 1_555
H13 N10 1_555 1_555
C24 N12 1_555 1_555
H14 N12 1_555 1_555
C29_2 C23 1_555 1_555
C30 C23 1_555 1_555
C31_2 C24 1_555 1_555
C32_2 C24 1_555 1_555
H19_2 C29_2 1_555 1_555
C37_2 C29_2 1_555 1_555
C38 C30 1_555 1_555
H20 C30 1_555 1_555
C39_2 C31_2 1_555 1_555
H21 C31_2 1_555 1_555
C40_2 C32_2 1_555 1_555
H22 C32_2 1_555 1_555
H27_2 C37_2 1_555 1_555
C43_2 C37_2 1_555 1_555
H29_2 C39_2 1_555 1_555
C44_2 C39_2 1_555 1_555
H30_2 C40_2 1_555 1_555
C47_2 C43_2 1_555 1_555
C48_2 C44_2 1_555 1_555
O3 C47_2 1_555 1_555
O12 C48_2 1_555 1_555
O22_2 C48_2 1_555 1_555
Eu11 O22_2 1_555 1_555
C20 N11 1_555 1_555
C38 C43_2 1_555 1_555
C40_2 C44_2 1_555 1_555
Eu5 O1_2 1_555 1_555
O1_2 Eu7 1_555 1_555
O2_2 Eu5 1_555 1_555
O6_2 Eu5 1_555 1_555
O7_2 Eu5 1_555 1_555
O8_2 Eu5 1_555 1_555
C1_2 O1_2 1_555 1_555
C2_2 O6_2 1_555 1_555
C3_2 C1_2 1_555 1_555
O10_2 C2_2 1_555 1_555
O11_2 Eu4 1_555 1_555
C4_2 C2_2 1_555 1_555
C5_2 C3_2 1_555 1_555
C6_2 C3_2 1_555 1_555
C7_2 C4_2 1_555 1_555
C8_2 C4_2 1_555 1_555
H1_2 C5_2 1_555 1_555
C9_2 C5_2 1_555 1_555
H2_2 C6_2 1_555 1_555
C10_2 C6_2 1_555 1_555
C11_2 C7_2 1_555 1_555
H3_2 C7_2 1_555 1_555
H4_2 C8_2 1_555 1_555
C12_2 C8_2 1_555 1_555
C13_2 C9_2 1_555 1_555
H5_2 C9_2 1_555 1_555
H6_2 C10_2 1_555 1_555
C14_2 C11_2 1_555 1_555
H7_2 C11_2 1_555 1_555
H8_2 C12_2 1_555 1_555
N1_2 C13_2 1_555 1_555
N2_2 C14_2 1_555 1_555
H9_2 N1_2 1_555 1_555
C15_2 N1_2 1_555 1_555
H10_2 N2_2 1_555 1_555
N3_2 C15_2 1_555 1_555
N4_2 C15_2 1_555 1_555
C17_2 N3_2 1_555 1_555
C18_2 N4_2 1_555 1_555
N7_2 C17_2 1_555 1_555
N8_2 C17_2 1_555 1_555
N9_2 C18_2 1_555 1_555
H11_2 N8_2 1_555 1_555
C21_2 N8_2 1_555 1_555
H12_2 N9_2 1_555 1_555
C22_2 N9_2 1_555 1_555
C25_2 C21_2 1_555 1_555
C26_2 C21_2 1_555 1_555
C27_2 C22_2 1_555 1_555
C28_2 C22_2 1_555 1_555
C33_2 C25_2 1_555 1_555
H15_2 C25_2 1_555 1_555
C34_2 C26_2 1_555 1_555
H16_2 C26_2 1_555 1_555
H17_2 C27_2 1_555 1_555
C35_2 C27_2 1_555 1_555
H18_2 C28_2 1_555 1_555
C36_2 C28_2 1_555 1_555
H23_2 C33_2 1_555 1_555
C41_2 C33_2 1_555 1_555
H24_2 C34_2 1_555 1_555
H25_2 C35_2 1_555 1_555
C42_2 C35_2 1_555 1_555
H26_2 C36_2 1_555 1_555
C45_2 C41_2 1_555 1_555
C46_2 C42_2 1_555 1_555
Eu4 O6_2 1_555 1_555
O13_2 Eu4 1_555 1_555
O14_2 Eu4 1_555 1_555
O9 C45_2 1_555 1_555
O5 C45_2 1_555 1_555
O17_2 C46_2 1_555 1_555
O18_2 C46_2 1_555 1_555
Eu11 O17_2 1_555 1_555
Eu2 O17_2 1_555 1_555
O2_2 C1_2 1_555 1_555
O7_2 Eu4 1_555 1_555
O10_2 Eu4 1_555 1_555
C10_2 C13_2 1_555 1_555
C12_2 C14_2 1_555 1_555
C18_2 N7_2 1_555 1_555
C34_2 C41_2 1_555 1_555
C36_2 C42_2 1_555 1_555
O18_2 Eu2 1_555 1_555
H19_3 C29_3 1_555 1_555
C37_3 C29_3 1_555 1_555
C39_3 C31_3 1_555 1_555
H27_3 C37_3 1_555 1_555
C43_3 C37_3 1_555 1_555
H29_3 C39_3 1_555 1_555
C47_3 C43_3 1_555 1_555
O14 C47_3 1_555 1_555
O20_2 C47_3 1_555 1_555
Eu11 O14 1_555 1_555
O20_2 Eu11 1_555 1_555
C40_3 C32_3 1_555 1_555
H30_3 C40_3 1_555 1_555
C48_3 C44_3 1_555 1_555
O21_2 C48_3 1_555 1_555
Eu2 O21_2 1_555 1_555
C40_3 C44_3 1_555 1_555
H17_3 C27_3 1_555 1_555
C35_3 C27_3 1_555 1_555
H25_3 C35_3 1_555 1_555
C42_3 C35_3 1_555 1_555
C46_3 C42_3 1_555 1_555
O7 C46_3 1_555 1_555
O11 C46_3 1_555 1_555
C34_3 C26_3 1_555 1_555
H23_3 C33_3 1_555 1_555
C41_3 C33_3 1_555 1_555
H24_3 C34_3 1_555 1_555
C45_3 C41_3 1_555 1_555
O15_2 C45_3 1_555 1_555
O16_2 C45_3 1_555 1_555
Eu2 O15_2 1_555 1_555
Eu11 O16_2 1_555 1_555
C34_3 C41_3 1_555 1_555
C1_3 O13_2 1_555 1_555
C3_3 C1_3 1_555 1_555
C5_3 C3_3 1_555 1_555
C6_3 C3_3 1_555 1_555
H1_3 C5_3 1_555 1_555
C9_3 C5_3 1_555 1_555
C10_3 C6_3 1_555 1_555
C11_3 C7_3 1_555 1_555
H3_3 C7_3 1_555 1_555
C13_3 C9_3 1_555 1_555
H5_3 C9_3 1_555 1_555
H6_3 C10_3 1_555 1_555
C14_3 C11_3 1_555 1_555
H7_3 C11_3 1_555 1_555
N1_3 C13_3 1_555 1_555
N2_3 C14_3 1_555 1_555
H9_3 N1_3 1_555 1_555
C15_3 N1_3 1_555 1_555
H10_3 N2_3 1_555 1_555
N3_3 C15_3 1_555 1_555
N4_3 C15_3 1_555 1_555
C17_3 N3_3 1_555 1_555
C18_3 N4_3 1_555 1_555
N7_3 C17_3 1_555 1_555
N9_3 C18_3 1_555 1_555
H12_3 N9_3 1_555 1_555
C22_3 N9_3 1_555 1_555
C28_3 C22_3 1_555 1_555
H18_3 C28_3 1_555 1_555
C36_3 C28_3 1_555 1_555
H26_3 C36_3 1_555 1_555
C10_3 C13_3 1_555 1_555
C18_3 N7_3 1_555 1_555
O2_3 Eu6 1_555 1_555
O4_2 Eu6 1_555 1_555
O5_2 Eu6 1_555 1_555
O6_3 Eu6 1_555 1_555
C2_3 O6_3 1_555 1_555
O9_2 Eu7 1_555 1_555
O10_3 C2_3 1_555 1_555
O12_2 Eu7 1_555 1_555
C4_3 C2_3 1_555 1_555
C8_3 C4_3 1_555 1_555
H4_3 C8_3 1_555 1_555
C12_3 C8_3 1_555 1_555
H8_3 C12_3 1_555 1_555
H11_3 N8_3 1_555 1_555
C21_3 N8_3 1_555 1_555
C25_3 C21_3 1_555 1_555
H15_3 C25_3 1_555 1_555
Eu7 O6_3 1_555 1_555
O10_3 Eu7 1_555 1_555
Eu11 O13 1_555 1_555
O2_4 Eu11 1_555 1_555
O6_4 Eu11 1_555 1_555
C1_4 O13 1_555 1_555
C2_4 O6_4 1_555 1_555
C3_4 C1_4 1_555 1_555
O10_4 C2_4 1_555 1_555
C4_4 C2_4 1_555 1_555
C5_4 C3_4 1_555 1_555
C6_4 C3_4 1_555 1_555
C7_4 C4_4 1_555 1_555
C8_4 C4_4 1_555 1_555
H1_4 C5_4 1_555 1_555
C9_4 C5_4 1_555 1_555
H2_4 C6_4 1_555 1_555
C10_4 C6_4 1_555 1_555
C11_4 C7_4 1_555 1_555
H3_4 C7_4 1_555 1_555
H4_4 C8_4 1_555 1_555
C12_4 C8_4 1_555 1_555
C13_4 C9_4 1_555 1_555
H5_4 C9_4 1_555 1_555
H6_4 C10_4 1_555 1_555
C14_4 C11_4 1_555 1_555
H7_4 C11_4 1_555 1_555
H8_4 C12_4 1_555 1_555
N1_4 C13_4 1_555 1_555
N2_4 C14_4 1_555 1_555
H9_4 N1_4 1_555 1_555
C15_4 N1_4 1_555 1_555
H10_4 N2_4 1_555 1_555
N3_4 C15_4 1_555 1_555
N4_4 C15_4 1_555 1_555
C17_4 N3_4 1_555 1_555
C18_4 N4_4 1_555 1_555
N7_4 C17_4 1_555 1_555
N8_4 C17_4 1_555 1_555
N9_4 C18_4 1_555 1_555
H11_4 N8_4 1_555 1_555
C21_4 N8_4 1_555 1_555
H12_4 N9_4 1_555 1_555
C22_4 N9_4 1_555 1_555
C25_4 C21_4 1_555 1_555
C26_4 C21_4 1_555 1_555
C27_4 C22_4 1_555 1_555
C28_4 C22_4 1_555 1_555
C33_4 C25_4 1_555 1_555
H15_4 C25_4 1_555 1_555
C34_4 C26_4 1_555 1_555
H16_4 C26_4 1_555 1_555
H17_4 C27_4 1_555 1_555
C35_4 C27_4 1_555 1_555
H18_4 C28_4 1_555 1_555
C36_4 C28_4 1_555 1_555
H23_4 C33_4 1_555 1_555
C41_4 C33_4 1_555 1_555
H24_4 C34_4 1_555 1_555
H25_4 C35_4 1_555 1_555
C42_4 C35_4 1_555 1_555
H26_4 C36_4 1_555 1_555
C45_4 C41_4 1_555 1_555
C46_4 C42_4 1_555 1_555
Eu2 O6_4 1_555 1_555
O9_2 C45_4 1_555 1_555
O5_2 C45_4 1_555 1_555
O7_2 C46_4 1_555 1_555
O11_2 C46_4 1_555 1_555
O2_4 C1_4 1_555 1_555
O10_4 Eu2 1_555 1_555
C10_4 C13_4 1_555 1_555
C12_4 C14_4 1_555 1_555
C18_4 N7_4 1_555 1_555
C34_4 C41_4 1_555 1_555
C36_4 C42_4 1_555 1_555
N5_2 C16_2 1_555 1_555
N6_2 C16_2 1_555 1_555
C19_2 N5_2 1_555 1_555
C20_2 N6_2 1_555 1_555
N10_2 C19_2 1_555 1_555
N11_2 C19_2 1_555 1_555
N12_2 C20_2 1_555 1_555
C23_2 N10_2 1_555 1_555
H13_2 N10_2 1_555 1_555
C24_2 N12_2 1_555 1_555
H14_2 N12_2 1_555 1_555
C29_4 C23_2 1_555 1_555
C30_2 C23_2 1_555 1_555
C31_4 C24_2 1_555 1_555
C32_4 C24_2 1_555 1_555
H19_4 C29_4 1_555 1_555
C37_4 C29_4 1_555 1_555
C38_2 C30_2 1_555 1_555
H20_2 C30_2 1_555 1_555
C39_4 C31_4 1_555 1_555
H21_2 C31_4 1_555 1_555
C40_4 C32_4 1_555 1_555
H22_2 C32_4 1_555 1_555
H27_4 C37_4 1_555 1_555
C43_4 C37_4 1_555 1_555
H29_4 C39_4 1_555 1_555
C44_4 C39_4 1_555 1_555
H30_4 C40_4 1_555 1_555
C47_4 C43_4 1_555 1_555
C48_4 C44_4 1_555 1_555
O14_2 C47_4 1_555 1_555
O12_2 C48_4 1_555 1_555
O8_2 C48_4 1_555 1_555
C20_2 N11_2 1_555 1_555
C38_2 C43_4 1_555 1_555
C40_4 C44_4 1_555 1_555
N5_3 C16_3 1_555 1_555
N6_3 C16_3 1_555 1_555
C19_3 N5_3 1_555 1_555
C20_3 N6_3 1_555 1_555
N10_3 C19_3 1_555 1_555
N11_3 C19_3 1_555 1_555
N12_3 C20_3 1_555 1_555
C23_3 N10_3 1_555 1_555
H13_3 N10_3 1_555 1_555
C24_3 N12_3 1_555 1_555
C30_3 C23_3 1_555 1_555
C38_3 C30_3 1_555 1_555
H20_3 C30_3 1_555 1_555
H28_3 C38_3 1_555 1_555
C20_3 N11_3 1_555 1_555
N5_4 C16_4 1_555 1_555
N6_4 C16_4 1_555 1_555
C19_4 N5_4 1_555 1_555
C20_4 N6_4 1_555 1_555
N10_4 C19_4 1_555 1_555
N11_4 C19_4 1_555 1_555
N12_4 C20_4 1_555 1_555
C23_4 N10_4 1_555 1_555
H13_4 N10_4 1_555 1_555
C24_4 N12_4 1_555 1_555
C30_4 C23_4 1_555 1_555
C38_4 C30_4 1_555 1_555
H20_4 C30_4 1_555 1_555
H28_4 C38_4 1_555 1_555
C20_4 N11_4 1_555 1_555

#END
