
###############################################################################
#
# This file contains modified crystal structure data generated from the
# MOF subset of the Cambridge Structural Database (CSD) v543 
# hosted by the Cambridge Crystallographic Data Centre (CCDC).
#
# This work is licensed under the Creative Commons
# Attribution-NonCommercial-ShareAlike 4.0 International License.
# To view a copy of this license, visit
# http://creativecommons.org/licenses/by-nc-sa/4.0/
# or send a letter to
# Creative Commons, PO Box 1866, Mountain View, CA 94042, USA.
#
# CIF created using the CSD Python API on 29 September 2022
# The structure has been converted into the P1 space group
# The structure has a 3D framework
# The original CSD entry DIMBOT is in the cubic crystal system
# The framework has been calculated to contain at least 10.0% void space
# The void calculation uses a probe of radius 1.32A, grid spacing 0.4
# H atom positions have been added when not included in the experimental data
# Generated hydrogen atom positions removed from atoms on special positions
#
###############################################################################

data_DIMBOT
_chemical_formula_moiety         '(C384 H2976 Cu96 N192 O761 Zr96)n'
_symmetry_cell_setting           triclinic
_symmetry_space_group_name_H-M   'P 1'
_symmetry_Int_Tables_number      1
_space_group_name_Hall           'P 1'
loop_
_symmetry_equiv_pos_site_id
_symmetry_equiv_pos_as_xyz
1 x,y,z
_cell_length_a                   51.6491
_cell_length_b                   51.6491
_cell_length_c                   51.6491
_cell_angle_alpha                90
_cell_angle_beta                 90
_cell_angle_gamma                90
_cell_volume                     137781
loop_
_atom_site_label
_atom_site_type_symbol
_atom_site_fract_x
_atom_site_fract_y
_atom_site_fract_z
_atom_site_U_iso_or_equiv
_atom_site_thermal_displace_type
Cu1 Cu 0.8354 0.2903 0.3354 0.1267 Uiso
Zr1 Zr 0.7815 0.2356 0.4685 0.1267 Uiso
O1 O 0.8548 0.3139 0.3548 0.1267 Uiso
O2 O 0.8161 0.2664 0.3161 0.1267 Uiso
O3 O 0.8163 0.3163 0.3163 0.1267 Uiso
O4 O 0.8504 0.2609 0.3504 0.1267 Uiso
O5 O 0.7876 0.2564 0.4338 0.1267 Uiso
O6 O 0.8139 0.2155 0.4829 0.1267 Uiso
O7 O 0.7743 0.2743 0.4757 0.1267 Uiso
O8 O 0.742 0.242 0.4616 0.1267 Uiso
N1 N 0.8102 0.2922 0.3638 0.1267 Uiso
C1 C 0.8073 0.2772 0.385 0.1267 Uiso
C2 C 0.7862 0.2862 0.3989 0.1267 Uiso
C3 C 0.7759 0.2759 0.4236 0.1267 Uiso
O9 O 0.7564 0.2876 0.4338 0.1267 Uiso
N2 N 0.7922 0.3102 0.3638 0.1267 Uiso
C4 C 0.7772 0.3073 0.385 0.1267 Uiso
Cu2 Cu 0.9146 0.3354 0.4597 0.1267 Uiso
Zr2 Zr 0.7815 0.2815 0.5144 0.1267 Uiso
O10 O 0.8952 0.3548 0.4361 0.1267 Uiso
O11 O 0.9339 0.3161 0.4836 0.1267 Uiso
O12 O 0.8996 0.3504 0.4891 0.1267 Uiso
O13 O 0.8162 0.2876 0.4936 0.1267 Uiso
O14 O 0.7671 0.3139 0.5345 0.1267 Uiso
O15 O 0.7884 0.242 0.508 0.1267 Uiso
N3 N 0.8862 0.3102 0.4578 0.1267 Uiso
C5 C 0.865 0.3073 0.4728 0.1267 Uiso
C6 C 0.8511 0.2862 0.4638 0.1267 Uiso
C7 C 0.8264 0.2759 0.4741 0.1267 Uiso
O16 O 0.8162 0.2564 0.4624 0.1267 Uiso
N4 N 0.8862 0.2922 0.4398 0.1267 Uiso
C8 C 0.865 0.2772 0.4427 0.1267 Uiso
Cu3 Cu 0.7903 0.4146 0.4146 0.1267 Uiso
Zr3 Zr 0.7356 0.2815 0.4685 0.1267 Uiso
O17 O 0.8139 0.3952 0.3952 0.1267 Uiso
O18 O 0.7664 0.4339 0.4339 0.1267 Uiso
O19 O 0.7609 0.3996 0.3996 0.1267 Uiso
O20 O 0.7564 0.3162 0.4624 0.1267 Uiso
O21 O 0.7155 0.2671 0.4361 0.1267 Uiso
O22 O 0.742 0.2884 0.508 0.1267 Uiso
N5 N 0.7922 0.3862 0.4398 0.1267 Uiso
C9 C 0.7772 0.365 0.4427 0.1267 Uiso
C10 C 0.7862 0.3511 0.4638 0.1267 Uiso
C11 C 0.7759 0.3264 0.4741 0.1267 Uiso
O23 O 0.7876 0.3162 0.4936 0.1267 Uiso
N6 N 0.8102 0.3862 0.4578 0.1267 Uiso
C12 C 0.8073 0.365 0.4728 0.1267 Uiso
O24 O 0.7671 0.2155 0.4361 0.1267 Uiso
O25 O 0.8139 0.2671 0.5345 0.1267 Uiso
O26 O 0.7155 0.3139 0.4829 0.1267 Uiso
Cu4 Cu 0.8354 0.3354 0.2903 0.1267 Uiso
Cu5 Cu 0.8354 0.4146 0.4597 0.1267 Uiso
Cu6 Cu 0.7903 0.3354 0.3354 0.1267 Uiso
Cu7 Cu 0.9146 0.2903 0.4146 0.1267 Uiso
Zr4 Zr 0.7644 0.2185 0.5315 0.1267 Uiso
Zr5 Zr 0.7185 0.2185 0.4856 0.1267 Uiso
Zr6 Zr 0.7185 0.2644 0.5315 0.1267 Uiso
O27 O 0.9337 0.3163 0.4337 0.1267 Uiso
O28 O 0.8163 0.4337 0.4337 0.1267 Uiso
O29 O 0.758 0.258 0.5384 0.1267 Uiso
O30 O 0.758 0.2116 0.492 0.1267 Uiso
O31 O 0.7116 0.258 0.492 0.1267 Uiso
N7 N 0.7922 0.4398 0.3862 0.1267 Uiso
N8 N 0.9398 0.3638 0.4578 0.1267 Uiso
N9 N 0.8638 0.2922 0.3102 0.1267 Uiso
H7 H 0.760814 0.319473 0.390279 . .
H8 H 0.859721 0.319473 0.489186 . .
H11 H 0.819473 0.260814 0.390279 . .
H20 H 0.760814 0.359721 0.430527 . .
H23 H 0.819473 0.359721 0.489186 . .
H26 H 0.859721 0.260814 0.430527 . .
O8_2 O 0.008 0.008 0.9616 0.1267 Uiso
Zr5_2 Zr 0.0315 0.0315 0.9856 0.1267 Uiso
H24 H 0.0340082 0.0021188 0.936275 . .
O22_2 O 0.008 0.9616 0.008 0.1267 Uiso
Zr6_2 Zr 0.0315 0.9856 0.0315 0.1267 Uiso
H5 H 0.0021188 0.936275 0.0340082 . .
Zr3_2 Zr 0.0144 0.9685 0.9685 0.1267 Uiso
O21_2 O 0.0345 0.9829 0.9361 0.1267 Uiso
O26_2 O 0.0345 0.9361 0.9829 0.1267 Uiso
O31_2 O 0.0384 0.992 0.992 0.1267 Uiso
H32 H 0.00490322 0.842657 0.907343 . .
O15_2 O 0.9616 0.008 0.008 0.1267 Uiso
Zr4_2 Zr 0.9856 0.0315 0.0315 0.1267 Uiso
Zr1_2 Zr 0.9685 0.0144 0.9685 0.1267 Uiso
O6_2 O 0.9361 0.0345 0.9829 0.1267 Uiso
O24_2 O 0.9829 0.0345 0.9361 0.1267 Uiso
O30_2 O 0.992 0.0384 0.992 0.1267 Uiso
H10 H 0.907343 0.00490322 0.842657 . .
H13 H 0.928866 0.001459 0.821134 . .
Zr2_2 Zr 0.9685 0.9685 0.0144 0.1267 Uiso
O14_2 O 0.9829 0.9361 0.0345 0.1267 Uiso
O25_2 O 0.9361 0.9829 0.0345 0.1267 Uiso
O29_2 O 0.992 0.992 0.0384 0.1267 Uiso
H2 H 0.842657 0.907343 0.00490322 . .
Cu1_2 Cu 0.9146 0.9597 0.8354 0.1267 Uiso
O1_2 O 0.8952 0.9361 0.8548 0.1267 Uiso
O2_2 O 0.9339 0.9836 0.8161 0.1267 Uiso
O3_2 O 0.9337 0.9337 0.8163 0.1267 Uiso
O4_2 O 0.8996 0.9891 0.8504 0.1267 Uiso
O5_2 O 0.9624 0.9936 0.9338 0.1267 Uiso
O7_2 O 0.9757 0.9757 0.9757 0.1267 Uiso
N1_2 N 0.9398 0.9578 0.8638 0.1267 Uiso
C1_2 C 0.9427 0.9728 0.885 0.1267 Uiso
C2_2 C 0.9638 0.9638 0.8989 0.1267 Uiso
C3_2 C 0.9741 0.9741 0.9236 0.1267 Uiso
O9_2 O 0.9936 0.9624 0.9338 0.1267 Uiso
N2_2 N 0.9578 0.9398 0.8638 0.1267 Uiso
C4_2 C 0.9728 0.9427 0.885 0.1267 Uiso
Cu2_2 Cu 0.8354 0.9146 0.9597 0.1267 Uiso
O10_2 O 0.8548 0.8952 0.9361 0.1267 Uiso
O11_2 O 0.8161 0.9339 0.9836 0.1267 Uiso
O12_2 O 0.8504 0.8996 0.9891 0.1267 Uiso
O13_2 O 0.9338 0.9624 0.9936 0.1267 Uiso
N3_2 N 0.8638 0.9398 0.9578 0.1267 Uiso
C5_2 C 0.885 0.9427 0.9728 0.1267 Uiso
C6_2 C 0.8989 0.9638 0.9638 0.1267 Uiso
C7_2 C 0.9236 0.9741 0.9741 0.1267 Uiso
O16_2 O 0.9338 0.9936 0.9624 0.1267 Uiso
N4_2 N 0.8638 0.9578 0.9398 0.1267 Uiso
C8_2 C 0.885 0.9728 0.9427 0.1267 Uiso
Cu3_2 Cu 0.9597 0.8354 0.9146 0.1267 Uiso
O17_2 O 0.9361 0.8548 0.8952 0.1267 Uiso
O18_2 O 0.9836 0.8161 0.9339 0.1267 Uiso
O19_2 O 0.9891 0.8504 0.8996 0.1267 Uiso
O20_2 O 0.9936 0.9338 0.9624 0.1267 Uiso
N5_2 N 0.9578 0.8638 0.9398 0.1267 Uiso
C9_2 C 0.9728 0.885 0.9427 0.1267 Uiso
C10_2 C 0.9638 0.8989 0.9638 0.1267 Uiso
C11_2 C 0.9741 0.9236 0.9741 0.1267 Uiso
O23_2 O 0.9624 0.9338 0.9936 0.1267 Uiso
N6_2 N 0.9398 0.8638 0.9578 0.1267 Uiso
C12_2 C 0.9427 0.885 0.9728 0.1267 Uiso
Cu4_2 Cu 0.9146 0.9146 0.7903 0.1267 Uiso
Cu5_2 Cu 0.9146 0.8354 0.9597 0.1267 Uiso
Cu6_2 Cu 0.9597 0.9146 0.8354 0.1267 Uiso
Cu7_2 Cu 0.8354 0.9597 0.9146 0.1267 Uiso
O27_2 O 0.8163 0.9337 0.9337 0.1267 Uiso
O28_2 O 0.9337 0.8163 0.9337 0.1267 Uiso
N7_2 N 0.9578 0.8102 0.8862 0.1267 Uiso
N8_2 N 0.8102 0.8862 0.9578 0.1267 Uiso
N9_2 N 0.8862 0.9578 0.8102 0.1267 Uiso
H1 H 0.869349 0.902851 0.988994 . .
H7_2 H 0.989186 0.930527 0.890279 . .
H8_2 H 0.890279 0.930527 0.989186 . .
H9 H 0.902851 0.988994 0.869349 . .
H11_2 H 0.930527 0.989186 0.890279 . .
H20_2 H 0.989186 0.890279 0.930527 . .
H23_2 H 0.930527 0.890279 0.989186 . .
H26_2 H 0.890279 0.989186 0.930527 . .
H31 H 0.988994 0.869349 0.902851 . .
Cu1_3 Cu 0.4146 0.7903 0.4146 0.1267 Uiso
Zr1_3 Zr 0.4685 0.7356 0.2815 0.1267 Uiso
O1_3 O 0.3952 0.8139 0.3952 0.1267 Uiso
O2_3 O 0.4339 0.7664 0.4339 0.1267 Uiso
O3_3 O 0.4337 0.8163 0.4337 0.1267 Uiso
O4_3 O 0.3996 0.7609 0.3996 0.1267 Uiso
O5_3 O 0.4624 0.7564 0.3162 0.1267 Uiso
O6_3 O 0.4361 0.7155 0.2671 0.1267 Uiso
O7_3 O 0.4757 0.7743 0.2743 0.1267 Uiso
O8_3 O 0.508 0.742 0.2884 0.1267 Uiso
N1_3 N 0.4398 0.7922 0.3862 0.1267 Uiso
C1_3 C 0.4427 0.7772 0.365 0.1267 Uiso
C2_3 C 0.4638 0.7862 0.3511 0.1267 Uiso
C3_3 C 0.4741 0.7759 0.3264 0.1267 Uiso
O9_3 O 0.4936 0.7876 0.3162 0.1267 Uiso
N2_3 N 0.4578 0.8102 0.3862 0.1267 Uiso
C4_3 C 0.4728 0.8073 0.365 0.1267 Uiso
Cu2_3 Cu 0.3354 0.8354 0.2903 0.1267 Uiso
Zr2_3 Zr 0.4685 0.7815 0.2356 0.1267 Uiso
O10_3 O 0.3548 0.8548 0.3139 0.1267 Uiso
O11_3 O 0.3161 0.8161 0.2664 0.1267 Uiso
O12_3 O 0.3504 0.8504 0.2609 0.1267 Uiso
O13_3 O 0.4338 0.7876 0.2564 0.1267 Uiso
O14_3 O 0.4829 0.8139 0.2155 0.1267 Uiso
O15_3 O 0.4616 0.742 0.242 0.1267 Uiso
N3_3 N 0.3638 0.8102 0.2922 0.1267 Uiso
C5_3 C 0.385 0.8073 0.2772 0.1267 Uiso
C6_3 C 0.3989 0.7862 0.2862 0.1267 Uiso
C7_3 C 0.4236 0.7759 0.2759 0.1267 Uiso
O16_3 O 0.4338 0.7564 0.2876 0.1267 Uiso
N4_3 N 0.3638 0.7922 0.3102 0.1267 Uiso
C8_3 C 0.385 0.7772 0.3073 0.1267 Uiso
Cu3_3 Cu 0.4597 0.9146 0.3354 0.1267 Uiso
Zr3_3 Zr 0.5144 0.7815 0.2815 0.1267 Uiso
O17_3 O 0.4361 0.8952 0.3548 0.1267 Uiso
O18_3 O 0.4836 0.9339 0.3161 0.1267 Uiso
O19_3 O 0.4891 0.8996 0.3504 0.1267 Uiso
O20_3 O 0.4936 0.8162 0.2876 0.1267 Uiso
O21_3 O 0.5345 0.7671 0.3139 0.1267 Uiso
O22_3 O 0.508 0.7884 0.242 0.1267 Uiso
N5_3 N 0.4578 0.8862 0.3102 0.1267 Uiso
C9_3 C 0.4728 0.865 0.3073 0.1267 Uiso
C10_3 C 0.4638 0.8511 0.2862 0.1267 Uiso
C11_3 C 0.4741 0.8264 0.2759 0.1267 Uiso
O23_3 O 0.4624 0.8162 0.2564 0.1267 Uiso
N6_3 N 0.4398 0.8862 0.2922 0.1267 Uiso
C12_3 C 0.4427 0.865 0.2772 0.1267 Uiso
O24_3 O 0.4829 0.7155 0.3139 0.1267 Uiso
O25_3 O 0.4361 0.7671 0.2155 0.1267 Uiso
O26_3 O 0.5345 0.8139 0.2671 0.1267 Uiso
Cu4_3 Cu 0.4146 0.8354 0.4597 0.1267 Uiso
Cu5_3 Cu 0.4146 0.9146 0.2903 0.1267 Uiso
Cu6_3 Cu 0.4597 0.8354 0.4146 0.1267 Uiso
Cu7_3 Cu 0.3354 0.7903 0.3354 0.1267 Uiso
Zr4_3 Zr 0.4856 0.7185 0.2185 0.1267 Uiso
Zr5_3 Zr 0.5315 0.7185 0.2644 0.1267 Uiso
Zr6_3 Zr 0.5315 0.7644 0.2185 0.1267 Uiso
O27_3 O 0.3163 0.8163 0.3163 0.1267 Uiso
O28_3 O 0.4337 0.9337 0.3163 0.1267 Uiso
O29_3 O 0.492 0.758 0.2116 0.1267 Uiso
O30_3 O 0.492 0.7116 0.258 0.1267 Uiso
O31_3 O 0.5384 0.758 0.258 0.1267 Uiso
N7_3 N 0.4578 0.9398 0.3638 0.1267 Uiso
N8_3 N 0.3102 0.8638 0.2922 0.1267 Uiso
N9_3 N 0.3862 0.7922 0.4398 0.1267 Uiso
H7_3 H 0.489186 0.819473 0.359721 . .
H8_3 H 0.390279 0.819473 0.260814 . .
H11_3 H 0.430527 0.760814 0.359721 . .
H20_3 H 0.489186 0.859721 0.319473 . .
H23_3 H 0.430527 0.859721 0.260814 . .
H26_3 H 0.390279 0.760814 0.319473 . .
Cu1_4 Cu 0.3354 0.4597 0.9146 0.1267 Uiso
Zr1_4 Zr 0.2815 0.5144 0.7815 0.1267 Uiso
O1_4 O 0.3548 0.4361 0.8952 0.1267 Uiso
O2_4 O 0.3161 0.4836 0.9339 0.1267 Uiso
O3_4 O 0.3163 0.4337 0.9337 0.1267 Uiso
O4_4 O 0.3504 0.4891 0.8996 0.1267 Uiso
O5_4 O 0.2876 0.4936 0.8162 0.1267 Uiso
O6_4 O 0.3139 0.5345 0.7671 0.1267 Uiso
O7_4 O 0.2743 0.4757 0.7743 0.1267 Uiso
O8_4 O 0.242 0.508 0.7884 0.1267 Uiso
N1_4 N 0.3102 0.4578 0.8862 0.1267 Uiso
C1_4 C 0.3073 0.4728 0.865 0.1267 Uiso
C2_4 C 0.2862 0.4638 0.8511 0.1267 Uiso
C3_4 C 0.2759 0.4741 0.8264 0.1267 Uiso
O9_4 O 0.2564 0.4624 0.8162 0.1267 Uiso
N2_4 N 0.2922 0.4398 0.8862 0.1267 Uiso
C4_4 C 0.2772 0.4427 0.865 0.1267 Uiso
Cu2_4 Cu 0.4146 0.4146 0.7903 0.1267 Uiso
Zr2_4 Zr 0.2815 0.4685 0.7356 0.1267 Uiso
O10_4 O 0.3952 0.3952 0.8139 0.1267 Uiso
O11_4 O 0.4339 0.4339 0.7664 0.1267 Uiso
O12_4 O 0.3996 0.3996 0.7609 0.1267 Uiso
O13_4 O 0.3162 0.4624 0.7564 0.1267 Uiso
O14_4 O 0.2671 0.4361 0.7155 0.1267 Uiso
O15_4 O 0.2884 0.508 0.742 0.1267 Uiso
N3_4 N 0.3862 0.4398 0.7922 0.1267 Uiso
C5_4 C 0.365 0.4427 0.7772 0.1267 Uiso
C6_4 C 0.3511 0.4638 0.7862 0.1267 Uiso
C7_4 C 0.3264 0.4741 0.7759 0.1267 Uiso
O16_4 O 0.3162 0.4936 0.7876 0.1267 Uiso
N4_4 N 0.3862 0.4578 0.8102 0.1267 Uiso
C8_4 C 0.365 0.4728 0.8073 0.1267 Uiso
Cu3_4 Cu 0.2903 0.3354 0.8354 0.1267 Uiso
Zr3_4 Zr 0.2356 0.4685 0.7815 0.1267 Uiso
O17_4 O 0.3139 0.3548 0.8548 0.1267 Uiso
O18_4 O 0.2664 0.3161 0.8161 0.1267 Uiso
O19_4 O 0.2609 0.3504 0.8504 0.1267 Uiso
O20_4 O 0.2564 0.4338 0.7876 0.1267 Uiso
O21_4 O 0.2155 0.4829 0.8139 0.1267 Uiso
O22_4 O 0.242 0.4616 0.742 0.1267 Uiso
N5_4 N 0.2922 0.3638 0.8102 0.1267 Uiso
C9_4 C 0.2772 0.385 0.8073 0.1267 Uiso
C10_4 C 0.2862 0.3989 0.7862 0.1267 Uiso
C11_4 C 0.2759 0.4236 0.7759 0.1267 Uiso
O23_4 O 0.2876 0.4338 0.7564 0.1267 Uiso
N6_4 N 0.3102 0.3638 0.7922 0.1267 Uiso
C12_4 C 0.3073 0.385 0.7772 0.1267 Uiso
O24_4 O 0.2671 0.5345 0.8139 0.1267 Uiso
O25_4 O 0.3139 0.4829 0.7155 0.1267 Uiso
O26_4 O 0.2155 0.4361 0.7671 0.1267 Uiso
Cu4_4 Cu 0.3354 0.4146 0.9597 0.1267 Uiso
Cu5_4 Cu 0.3354 0.3354 0.7903 0.1267 Uiso
Cu6_4 Cu 0.2903 0.4146 0.9146 0.1267 Uiso
Cu7_4 Cu 0.4146 0.4597 0.8354 0.1267 Uiso
Zr4_4 Zr 0.2644 0.5315 0.7185 0.1267 Uiso
Zr5_4 Zr 0.2185 0.5315 0.7644 0.1267 Uiso
Zr6_4 Zr 0.2185 0.4856 0.7185 0.1267 Uiso
O27_4 O 0.4337 0.4337 0.8163 0.1267 Uiso
O28_4 O 0.3163 0.3163 0.8163 0.1267 Uiso
O29_4 O 0.258 0.492 0.7116 0.1267 Uiso
O30_4 O 0.258 0.5384 0.758 0.1267 Uiso
O31_4 O 0.2116 0.492 0.758 0.1267 Uiso
N7_4 N 0.2922 0.3102 0.8638 0.1267 Uiso
N8_4 N 0.4398 0.3862 0.7922 0.1267 Uiso
N9_4 N 0.3638 0.4578 0.9398 0.1267 Uiso
H7_4 H 0.260814 0.430527 0.859721 . .
H8_4 H 0.359721 0.430527 0.760814 . .
H11_4 H 0.319473 0.489186 0.859721 . .
H20_4 H 0.260814 0.390279 0.819473 . .
H23_4 H 0.319473 0.390279 0.760814 . .
H26_4 H 0.359721 0.489186 0.819473 . .
Cu4_5 Cu 0.2903 0.8354 0.3354 0.1267 Uiso
H24_2 H 0.936275 0.0340082 0.0021188 . .
H13_2 H 0.821134 0.928866 0.001459 . .
Cu4_6 Cu 0.7903 0.9146 0.9146 0.1267 Uiso
Cu4_7 Cu 0.4597 0.4146 0.8354 0.1267 Uiso
Cu4_8 Cu 0.9597 0.3354 0.4146 0.1267 Uiso
Cu4_9 Cu 0.3354 0.2903 0.8354 0.1267 Uiso
H13_3 H 0.001459 0.821134 0.928866 . .
Cu4_10 Cu 0.9146 0.7903 0.9146 0.1267 Uiso
Cu4_11 Cu 0.8354 0.4597 0.4146 0.1267 Uiso
Cu4_12 Cu 0.4146 0.9597 0.3354 0.1267 Uiso
Cu1_5 Cu 0.0403 0.0854 0.1646 0.1267 Uiso
O1_5 O 0.0639 0.1048 0.1452 0.1267 Uiso
O2_5 O 0.0164 0.0661 0.1839 0.1267 Uiso
O3_5 O 0.0663 0.0663 0.1837 0.1267 Uiso
O4_5 O 0.0109 0.1004 0.1496 0.1267 Uiso
O5_5 O 0.0064 0.0376 0.0662 0.1267 Uiso
O7_5 O 0.0243 0.0243 0.0243 0.1267 Uiso
N1_5 N 0.0422 0.0602 0.1362 0.1267 Uiso
C1_5 C 0.0272 0.0573 0.115 0.1267 Uiso
C2_5 C 0.0362 0.0362 0.1011 0.1267 Uiso
C3_5 C 0.0259 0.0259 0.0764 0.1267 Uiso
O9_5 O 0.0376 0.0064 0.0662 0.1267 Uiso
N2_5 N 0.0602 0.0422 0.1362 0.1267 Uiso
C4_5 C 0.0573 0.0272 0.115 0.1267 Uiso
Cu2_5 Cu 0.0854 0.1646 0.0403 0.1267 Uiso
O10_5 O 0.1048 0.1452 0.0639 0.1267 Uiso
O11_5 O 0.0661 0.1839 0.0164 0.1267 Uiso
O12_5 O 0.1004 0.1496 0.0109 0.1267 Uiso
O13_5 O 0.0376 0.0662 0.0064 0.1267 Uiso
N3_5 N 0.0602 0.1362 0.0422 0.1267 Uiso
C5_5 C 0.0573 0.115 0.0272 0.1267 Uiso
C6_5 C 0.0362 0.1011 0.0362 0.1267 Uiso
C7_5 C 0.0259 0.0764 0.0259 0.1267 Uiso
O16_5 O 0.0064 0.0662 0.0376 0.1267 Uiso
N4_5 N 0.0422 0.1362 0.0602 0.1267 Uiso
C8_5 C 0.0272 0.115 0.0573 0.1267 Uiso
Cu3_5 Cu 0.1646 0.0403 0.0854 0.1267 Uiso
O17_5 O 0.1452 0.0639 0.1048 0.1267 Uiso
O18_5 O 0.1839 0.0164 0.0661 0.1267 Uiso
O19_5 O 0.1496 0.0109 0.1004 0.1267 Uiso
O20_5 O 0.0662 0.0064 0.0376 0.1267 Uiso
N5_5 N 0.1362 0.0422 0.0602 0.1267 Uiso
C9_5 C 0.115 0.0272 0.0573 0.1267 Uiso
C10_5 C 0.1011 0.0362 0.0362 0.1267 Uiso
C11_5 C 0.0764 0.0259 0.0259 0.1267 Uiso
O23_5 O 0.0662 0.0376 0.0064 0.1267 Uiso
N6_5 N 0.1362 0.0602 0.0422 0.1267 Uiso
C12_5 C 0.115 0.0573 0.0272 0.1267 Uiso
Cu4_13 Cu 0.0854 0.0854 0.2097 0.1267 Uiso
Cu5_5 Cu 0.1646 0.0854 0.0403 0.1267 Uiso
Cu6_5 Cu 0.0854 0.0403 0.1646 0.1267 Uiso
Cu7_5 Cu 0.0403 0.1646 0.0854 0.1267 Uiso
O27_5 O 0.0663 0.1837 0.0663 0.1267 Uiso
O28_5 O 0.1837 0.0663 0.0663 0.1267 Uiso
N7_5 N 0.1898 0.0422 0.1138 0.1267 Uiso
N8_5 N 0.1138 0.1898 0.0422 0.1267 Uiso
N9_5 N 0.0422 0.1138 0.1898 0.1267 Uiso
H1_2 H 0.0971485 0.130651 0.0110061 . .
H7_5 H 0.0694728 0.0108138 0.109721 . .
H8_5 H 0.0694728 0.109721 0.0108138 . .
H9_2 H 0.0110061 0.0971485 0.130651 . .
H11_5 H 0.0108138 0.0694728 0.109721 . .
H20_5 H 0.109721 0.0108138 0.0694728 . .
H23_5 H 0.109721 0.0694728 0.0108138 . .
H26_5 H 0.0108138 0.109721 0.0694728 . .
H31_2 H 0.130651 0.0110061 0.0971485 . .
O14_5 O 0.0639 0.0171 0.9655 0.1267 Uiso
O25_5 O 0.0171 0.0639 0.9655 0.1267 Uiso
H2_2 H 0.0926575 0.157343 0.995097 . .
O21_5 O 0.0171 0.9655 0.0639 0.1267 Uiso
O26_5 O 0.0639 0.9655 0.0171 0.1267 Uiso
H32_2 H 0.157343 0.995097 0.0926575 . .
H5_2 H 0.063725 0.997881 0.965992 . .
O6_5 O 0.9655 0.0639 0.0171 0.1267 Uiso
O24_5 O 0.9655 0.0171 0.0639 0.1267 Uiso
H10_2 H 0.995097 0.0926575 0.157343 . .
H13_4 H 0.998541 0.0711344 0.178866 . .
H24_3 H 0.997881 0.965992 0.063725 . .
Cu1_6 Cu 0.7097 0.1646 0.6646 0.1267 Uiso
O1_6 O 0.6861 0.1452 0.6452 0.1267 Uiso
O2_6 O 0.7336 0.1839 0.6839 0.1267 Uiso
O3_6 O 0.6837 0.1837 0.6837 0.1267 Uiso
O4_6 O 0.7391 0.1496 0.6496 0.1267 Uiso
O5_6 O 0.7436 0.2124 0.5662 0.1267 Uiso
O6_6 O 0.7845 0.1861 0.5171 0.1267 Uiso
O7_6 O 0.7257 0.2257 0.5243 0.1267 Uiso
N1_6 N 0.7078 0.1898 0.6362 0.1267 Uiso
C1_6 C 0.7228 0.1927 0.615 0.1267 Uiso
C2_6 C 0.7138 0.2138 0.6011 0.1267 Uiso
C3_6 C 0.7241 0.2241 0.5764 0.1267 Uiso
O9_6 O 0.7124 0.2436 0.5662 0.1267 Uiso
N2_6 N 0.6898 0.2078 0.6362 0.1267 Uiso
C4_6 C 0.6927 0.2228 0.615 0.1267 Uiso
Cu2_6 Cu 0.6646 0.0854 0.5403 0.1267 Uiso
O10_6 O 0.6452 0.1048 0.5639 0.1267 Uiso
O11_6 O 0.6839 0.0661 0.5164 0.1267 Uiso
O12_6 O 0.6496 0.1004 0.5109 0.1267 Uiso
O13_6 O 0.7124 0.1838 0.5064 0.1267 Uiso
O14_6 O 0.6861 0.2329 0.4655 0.1267 Uiso
N3_6 N 0.6898 0.1138 0.5422 0.1267 Uiso
C5_6 C 0.6927 0.135 0.5272 0.1267 Uiso
C6_6 C 0.7138 0.1489 0.5362 0.1267 Uiso
C7_6 C 0.7241 0.1736 0.5259 0.1267 Uiso
O16_6 O 0.7436 0.1838 0.5376 0.1267 Uiso
N4_6 N 0.7078 0.1138 0.5602 0.1267 Uiso
C8_6 C 0.7228 0.135 0.5573 0.1267 Uiso
Cu3_6 Cu 0.5854 0.2097 0.5854 0.1267 Uiso
O17_6 O 0.6048 0.1861 0.6048 0.1267 Uiso
O18_6 O 0.5661 0.2336 0.5661 0.1267 Uiso
O19_6 O 0.6004 0.2391 0.6004 0.1267 Uiso
O20_6 O 0.6838 0.2436 0.5376 0.1267 Uiso
O21_6 O 0.7329 0.2845 0.5639 0.1267 Uiso
N5_6 N 0.6138 0.2078 0.5602 0.1267 Uiso
C9_6 C 0.635 0.2228 0.5573 0.1267 Uiso
C10_6 C 0.6489 0.2138 0.5362 0.1267 Uiso
C11_6 C 0.6736 0.2241 0.5259 0.1267 Uiso
O23_6 O 0.6838 0.2124 0.5064 0.1267 Uiso
N6_6 N 0.6138 0.1898 0.5422 0.1267 Uiso
C12_6 C 0.635 0.1927 0.5272 0.1267 Uiso
O24_6 O 0.7845 0.2329 0.5639 0.1267 Uiso
O25_6 O 0.7329 0.1861 0.4655 0.1267 Uiso
O26_6 O 0.6861 0.2845 0.5171 0.1267 Uiso
Cu4_14 Cu 0.6646 0.1646 0.7097 0.1267 Uiso
Cu5_6 Cu 0.5854 0.1646 0.5403 0.1267 Uiso
Cu6_6 Cu 0.6646 0.2097 0.6646 0.1267 Uiso
Cu7_6 Cu 0.7097 0.0854 0.5854 0.1267 Uiso
O27_6 O 0.6837 0.0663 0.5663 0.1267 Uiso
O28_6 O 0.5663 0.1837 0.5663 0.1267 Uiso
N7_6 N 0.5602 0.2078 0.6138 0.1267 Uiso
N8_6 N 0.6362 0.0602 0.5422 0.1267 Uiso
N9_6 N 0.7078 0.1362 0.6898 0.1267 Uiso
H7_6 H 0.680527 0.239186 0.609721 . .
H8_6 H 0.680527 0.140279 0.510814 . .
H11_6 H 0.739186 0.180527 0.609721 . .
H20_6 H 0.640279 0.239186 0.569473 . .
H23_6 H 0.640279 0.180527 0.510814 . .
H26_6 H 0.739186 0.140279 0.569473 . .
Cu1_7 Cu 0.5403 0.6646 0.0854 0.1267 Uiso
O1_7 O 0.5639 0.6452 0.1048 0.1267 Uiso
O2_7 O 0.5164 0.6839 0.0661 0.1267 Uiso
O3_7 O 0.5663 0.6837 0.0663 0.1267 Uiso
O4_7 O 0.5109 0.6496 0.1004 0.1267 Uiso
O5_7 O 0.5064 0.7124 0.1838 0.1267 Uiso
O6_7 O 0.4655 0.6861 0.2329 0.1267 Uiso
O7_7 O 0.5243 0.7257 0.2257 0.1267 Uiso
N1_7 N 0.5422 0.6898 0.1138 0.1267 Uiso
C1_7 C 0.5272 0.6927 0.135 0.1267 Uiso
C2_7 C 0.5362 0.7138 0.1489 0.1267 Uiso
C3_7 C 0.5259 0.7241 0.1736 0.1267 Uiso
O9_7 O 0.5376 0.7436 0.1838 0.1267 Uiso
N2_7 N 0.5602 0.7078 0.1138 0.1267 Uiso
C4_7 C 0.5573 0.7228 0.135 0.1267 Uiso
Cu2_7 Cu 0.5854 0.5854 0.2097 0.1267 Uiso
O10_7 O 0.6048 0.6048 0.1861 0.1267 Uiso
O11_7 O 0.5661 0.5661 0.2336 0.1267 Uiso
O12_7 O 0.6004 0.6004 0.2391 0.1267 Uiso
O13_7 O 0.5376 0.6838 0.2436 0.1267 Uiso
O14_7 O 0.5639 0.7329 0.2845 0.1267 Uiso
N3_7 N 0.5602 0.6138 0.2078 0.1267 Uiso
C5_7 C 0.5573 0.635 0.2228 0.1267 Uiso
C6_7 C 0.5362 0.6489 0.2138 0.1267 Uiso
C7_7 C 0.5259 0.6736 0.2241 0.1267 Uiso
O16_7 O 0.5064 0.6838 0.2124 0.1267 Uiso
N4_7 N 0.5422 0.6138 0.1898 0.1267 Uiso
C8_7 C 0.5272 0.635 0.1927 0.1267 Uiso
Cu3_7 Cu 0.6646 0.7097 0.1646 0.1267 Uiso
O17_7 O 0.6452 0.6861 0.1452 0.1267 Uiso
O18_7 O 0.6839 0.7336 0.1839 0.1267 Uiso
O19_7 O 0.6496 0.7391 0.1496 0.1267 Uiso
O20_7 O 0.5662 0.7436 0.2124 0.1267 Uiso
O21_7 O 0.5171 0.7845 0.1861 0.1267 Uiso
N5_7 N 0.6362 0.7078 0.1898 0.1267 Uiso
C9_7 C 0.615 0.7228 0.1927 0.1267 Uiso
C10_7 C 0.6011 0.7138 0.2138 0.1267 Uiso
C11_7 C 0.5764 0.7241 0.2241 0.1267 Uiso
O23_7 O 0.5662 0.7124 0.2436 0.1267 Uiso
N6_7 N 0.6362 0.6898 0.2078 0.1267 Uiso
C12_7 C 0.615 0.6927 0.2228 0.1267 Uiso
O24_7 O 0.4655 0.7329 0.1861 0.1267 Uiso
O25_7 O 0.5171 0.6861 0.2845 0.1267 Uiso
O26_7 O 0.5639 0.7845 0.2329 0.1267 Uiso
Cu4_15 Cu 0.5854 0.6646 0.0403 0.1267 Uiso
Cu5_7 Cu 0.6646 0.6646 0.2097 0.1267 Uiso
Cu6_7 Cu 0.5854 0.7097 0.0854 0.1267 Uiso
Cu7_7 Cu 0.5403 0.5854 0.1646 0.1267 Uiso
O27_7 O 0.5663 0.5663 0.1837 0.1267 Uiso
O28_7 O 0.6837 0.6837 0.1837 0.1267 Uiso
N7_7 N 0.6898 0.7078 0.1362 0.1267 Uiso
N8_7 N 0.6138 0.5602 0.2078 0.1267 Uiso
N9_7 N 0.5422 0.6362 0.0602 0.1267 Uiso
H7_7 H 0.569473 0.739186 0.140279 . .
H8_7 H 0.569473 0.640279 0.239186 . .
H11_7 H 0.510814 0.680527 0.140279 . .
H20_7 H 0.609721 0.739186 0.180527 . .
H23_7 H 0.609721 0.680527 0.239186 . .
H26_7 H 0.510814 0.640279 0.180527 . .
Cu1_8 Cu 0.2097 0.5854 0.5854 0.1267 Uiso
O1_8 O 0.1861 0.6048 0.6048 0.1267 Uiso
O2_8 O 0.2336 0.5661 0.5661 0.1267 Uiso
O3_8 O 0.1837 0.5663 0.5663 0.1267 Uiso
O4_8 O 0.2391 0.6004 0.6004 0.1267 Uiso
O5_8 O 0.2436 0.5376 0.6838 0.1267 Uiso
O6_8 O 0.2845 0.5639 0.7329 0.1267 Uiso
O7_8 O 0.2257 0.5243 0.7257 0.1267 Uiso
N1_8 N 0.2078 0.5602 0.6138 0.1267 Uiso
C1_8 C 0.2228 0.5573 0.635 0.1267 Uiso
C2_8 C 0.2138 0.5362 0.6489 0.1267 Uiso
C3_8 C 0.2241 0.5259 0.6736 0.1267 Uiso
O9_8 O 0.2124 0.5064 0.6838 0.1267 Uiso
N2_8 N 0.1898 0.5422 0.6138 0.1267 Uiso
C4_8 C 0.1927 0.5272 0.635 0.1267 Uiso
Cu2_8 Cu 0.1646 0.6646 0.7097 0.1267 Uiso
O10_8 O 0.1452 0.6452 0.6861 0.1267 Uiso
O11_8 O 0.1839 0.6839 0.7336 0.1267 Uiso
O12_8 O 0.1496 0.6496 0.7391 0.1267 Uiso
O13_8 O 0.2124 0.5662 0.7436 0.1267 Uiso
O14_8 O 0.1861 0.5171 0.7845 0.1267 Uiso
N3_8 N 0.1898 0.6362 0.7078 0.1267 Uiso
C5_8 C 0.1927 0.615 0.7228 0.1267 Uiso
C6_8 C 0.2138 0.6011 0.7138 0.1267 Uiso
C7_8 C 0.2241 0.5764 0.7241 0.1267 Uiso
O16_8 O 0.2436 0.5662 0.7124 0.1267 Uiso
N4_8 N 0.2078 0.6362 0.6898 0.1267 Uiso
C8_8 C 0.2228 0.615 0.6927 0.1267 Uiso
Cu3_8 Cu 0.0854 0.5403 0.6646 0.1267 Uiso
O17_8 O 0.1048 0.5639 0.6452 0.1267 Uiso
O18_8 O 0.0661 0.5164 0.6839 0.1267 Uiso
O19_8 O 0.1004 0.5109 0.6496 0.1267 Uiso
O20_8 O 0.1838 0.5064 0.7124 0.1267 Uiso
O21_8 O 0.2329 0.4655 0.6861 0.1267 Uiso
N5_8 N 0.1138 0.5422 0.6898 0.1267 Uiso
C9_8 C 0.135 0.5272 0.6927 0.1267 Uiso
C10_8 C 0.1489 0.5362 0.7138 0.1267 Uiso
C11_8 C 0.1736 0.5259 0.7241 0.1267 Uiso
O23_8 O 0.1838 0.5376 0.7436 0.1267 Uiso
N6_8 N 0.1138 0.5602 0.7078 0.1267 Uiso
C12_8 C 0.135 0.5573 0.7228 0.1267 Uiso
O24_8 O 0.2845 0.5171 0.6861 0.1267 Uiso
O25_8 O 0.2329 0.5639 0.7845 0.1267 Uiso
O26_8 O 0.1861 0.4655 0.7329 0.1267 Uiso
Cu4_16 Cu 0.1646 0.5854 0.5403 0.1267 Uiso
Cu5_8 Cu 0.0854 0.5854 0.7097 0.1267 Uiso
Cu6_8 Cu 0.1646 0.5403 0.5854 0.1267 Uiso
Cu7_8 Cu 0.2097 0.6646 0.6646 0.1267 Uiso
O27_8 O 0.1837 0.6837 0.6837 0.1267 Uiso
O28_8 O 0.0663 0.5663 0.6837 0.1267 Uiso
N7_8 N 0.0602 0.5422 0.6362 0.1267 Uiso
N8_8 N 0.1362 0.6898 0.7078 0.1267 Uiso
N9_8 N 0.2078 0.6138 0.5602 0.1267 Uiso
H7_8 H 0.180527 0.510814 0.640279 . .
H8_8 H 0.180527 0.609721 0.739186 . .
H11_8 H 0.239186 0.569473 0.640279 . .
H20_8 H 0.140279 0.510814 0.680527 . .
H23_8 H 0.140279 0.569473 0.739186 . .
H26_8 H 0.239186 0.609721 0.680527 . .
Cu4_17 Cu 0.5854 0.5403 0.1646 0.1267 Uiso
Cu4_18 Cu 0.6646 0.0403 0.5854 0.1267 Uiso
Cu4_19 Cu 0.1646 0.7097 0.6646 0.1267 Uiso
Cu4_20 Cu 0.0854 0.2097 0.0854 0.1267 Uiso
H13_5 H 0.0711344 0.178866 0.998541 . .
H24_4 H 0.965992 0.063725 0.997881 . .
Cu4_21 Cu 0.0403 0.5854 0.6646 0.1267 Uiso
Cu4_22 Cu 0.5403 0.1646 0.5854 0.1267 Uiso
Cu4_23 Cu 0.2097 0.0854 0.0854 0.1267 Uiso
H13_6 H 0.178866 0.998541 0.0711344 . .
Cu4_24 Cu 0.7097 0.6646 0.1646 0.1267 Uiso
Zr2_5 Zr 0.7815 0.7815 0.0144 0.1267 Uiso
O14_9 O 0.7671 0.8139 0.0345 0.1267 Uiso
O15_5 O 0.7884 0.742 0.008 0.1267 Uiso
O22_5 O 0.742 0.7884 0.008 0.1267 Uiso
O25_9 O 0.8139 0.7671 0.0345 0.1267 Uiso
Zr4_5 Zr 0.7644 0.7185 0.0315 0.1267 Uiso
Zr6_5 Zr 0.7185 0.7644 0.0315 0.1267 Uiso
O29_5 O 0.758 0.758 0.0384 0.1267 Uiso
H2_3 H 0.907343 0.842657 0.00490322 . .
Cu1_9 Cu 0.8354 0.7903 0.8354 0.1267 Uiso
Zr1_5 Zr 0.7815 0.7356 0.9685 0.1267 Uiso
O1_9 O 0.8548 0.8139 0.8548 0.1267 Uiso
O2_9 O 0.8161 0.7664 0.8161 0.1267 Uiso
O3_9 O 0.8163 0.8163 0.8163 0.1267 Uiso
O4_9 O 0.8504 0.7609 0.8504 0.1267 Uiso
O5_9 O 0.7876 0.7564 0.9338 0.1267 Uiso
O6_9 O 0.8139 0.7155 0.9829 0.1267 Uiso
O7_9 O 0.7743 0.7743 0.9757 0.1267 Uiso
O8_5 O 0.742 0.742 0.9616 0.1267 Uiso
N1_9 N 0.8102 0.7922 0.8638 0.1267 Uiso
C1_9 C 0.8073 0.7772 0.885 0.1267 Uiso
C2_9 C 0.7862 0.7862 0.8989 0.1267 Uiso
C3_9 C 0.7759 0.7759 0.9236 0.1267 Uiso
O9_9 O 0.7564 0.7876 0.9338 0.1267 Uiso
N2_9 N 0.7922 0.8102 0.8638 0.1267 Uiso
C4_9 C 0.7772 0.8073 0.885 0.1267 Uiso
O10_9 O 0.8952 0.8548 0.9361 0.1267 Uiso
O11_9 O 0.9339 0.8161 0.9836 0.1267 Uiso
O12_9 O 0.8996 0.8504 0.9891 0.1267 Uiso
O13_9 O 0.8162 0.7876 0.9936 0.1267 Uiso
N3_9 N 0.8862 0.8102 0.9578 0.1267 Uiso
C5_9 C 0.865 0.8073 0.9728 0.1267 Uiso
C6_9 C 0.8511 0.7862 0.9638 0.1267 Uiso
C7_9 C 0.8264 0.7759 0.9741 0.1267 Uiso
O16_9 O 0.8162 0.7564 0.9624 0.1267 Uiso
N4_9 N 0.8862 0.7922 0.9398 0.1267 Uiso
C8_9 C 0.865 0.7772 0.9427 0.1267 Uiso
Zr3_5 Zr 0.7356 0.7815 0.9685 0.1267 Uiso
O17_9 O 0.8139 0.8952 0.8952 0.1267 Uiso
O18_9 O 0.7664 0.9339 0.9339 0.1267 Uiso
O19_9 O 0.7609 0.8996 0.8996 0.1267 Uiso
O20_9 O 0.7564 0.8162 0.9624 0.1267 Uiso
O21_9 O 0.7155 0.7671 0.9361 0.1267 Uiso
N5_9 N 0.7922 0.8862 0.9398 0.1267 Uiso
C9_9 C 0.7772 0.865 0.9427 0.1267 Uiso
C10_9 C 0.7862 0.8511 0.9638 0.1267 Uiso
C11_9 C 0.7759 0.8264 0.9741 0.1267 Uiso
O23_9 O 0.7876 0.8162 0.9936 0.1267 Uiso
C12_9 C 0.8073 0.865 0.9728 0.1267 Uiso
O24_9 O 0.7671 0.7155 0.9361 0.1267 Uiso
O26_9 O 0.7155 0.8139 0.9829 0.1267 Uiso
Cu4_25 Cu 0.8354 0.8354 0.7903 0.1267 Uiso
Cu6_9 Cu 0.7903 0.8354 0.8354 0.1267 Uiso
Zr5_5 Zr 0.7185 0.7185 0.9856 0.1267 Uiso
O30_5 O 0.758 0.7116 0.992 0.1267 Uiso
O31_5 O 0.7116 0.758 0.992 0.1267 Uiso
N7_9 N 0.7922 0.9398 0.8862 0.1267 Uiso
N9_9 N 0.8638 0.7922 0.8102 0.1267 Uiso
H1_3 H 0.880651 0.847149 0.988994 . .
H7_9 H 0.760814 0.819473 0.890279 . .
H8_9 H 0.859721 0.819473 0.989186 . .
H11_9 H 0.819473 0.760814 0.890279 . .
H20_9 H 0.760814 0.859721 0.930527 . .
H23_9 H 0.819473 0.859721 0.989186 . .
H26_9 H 0.859721 0.760814 0.930527 . .
O8_6 O 0.008 0.508 0.4616 0.1267 Uiso
Zr3_6 Zr 0.0144 0.4685 0.4685 0.1267 Uiso
O21_10 O 0.0345 0.4829 0.4361 0.1267 Uiso
O22_6 O 0.008 0.4616 0.508 0.1267 Uiso
O26_10 O 0.0345 0.4361 0.4829 0.1267 Uiso
Zr5_6 Zr 0.0315 0.5315 0.4856 0.1267 Uiso
Zr6_6 Zr 0.0315 0.4856 0.5315 0.1267 Uiso
O31_6 O 0.0384 0.492 0.492 0.1267 Uiso
H5_3 H 0.0021188 0.436275 0.534008 . .
H32_3 H 0.00490322 0.342657 0.407343 . .
Cu1_10 Cu 0.9146 0.4597 0.3354 0.1267 Uiso
Zr1_6 Zr 0.9685 0.5144 0.4685 0.1267 Uiso
O1_10 O 0.8952 0.4361 0.3548 0.1267 Uiso
O2_10 O 0.9339 0.4836 0.3161 0.1267 Uiso
O3_10 O 0.9337 0.4337 0.3163 0.1267 Uiso
O4_10 O 0.8996 0.4891 0.3504 0.1267 Uiso
O5_10 O 0.9624 0.4936 0.4338 0.1267 Uiso
O6_10 O 0.9361 0.5345 0.4829 0.1267 Uiso
O7_10 O 0.9757 0.4757 0.4757 0.1267 Uiso
N1_10 N 0.9398 0.4578 0.3638 0.1267 Uiso
C1_10 C 0.9427 0.4728 0.385 0.1267 Uiso
C2_10 C 0.9638 0.4638 0.3989 0.1267 Uiso
C3_10 C 0.9741 0.4741 0.4236 0.1267 Uiso
O9_10 O 0.9936 0.4624 0.4338 0.1267 Uiso
N2_10 N 0.9578 0.4398 0.3638 0.1267 Uiso
C4_10 C 0.9728 0.4427 0.385 0.1267 Uiso
Zr2_6 Zr 0.9685 0.4685 0.5144 0.1267 Uiso
O10_10 O 0.8548 0.3952 0.4361 0.1267 Uiso
O11_10 O 0.8161 0.4339 0.4836 0.1267 Uiso
O12_10 O 0.8504 0.3996 0.4891 0.1267 Uiso
O13_10 O 0.9338 0.4624 0.4936 0.1267 Uiso
O14_10 O 0.9829 0.4361 0.5345 0.1267 Uiso
O15_6 O 0.9616 0.508 0.508 0.1267 Uiso
N3_10 N 0.8638 0.4398 0.4578 0.1267 Uiso
C5_10 C 0.885 0.4427 0.4728 0.1267 Uiso
C6_10 C 0.8989 0.4638 0.4638 0.1267 Uiso
C7_10 C 0.9236 0.4741 0.4741 0.1267 Uiso
O16_10 O 0.9338 0.4936 0.4624 0.1267 Uiso
N4_10 N 0.8638 0.4578 0.4398 0.1267 Uiso
C8_10 C 0.885 0.4728 0.4427 0.1267 Uiso
O17_10 O 0.9361 0.3548 0.3952 0.1267 Uiso
O18_10 O 0.9836 0.3161 0.4339 0.1267 Uiso
O19_10 O 0.9891 0.3504 0.3996 0.1267 Uiso
O20_10 O 0.9936 0.4338 0.4624 0.1267 Uiso
N5_10 N 0.9578 0.3638 0.4398 0.1267 Uiso
C9_10 C 0.9728 0.385 0.4427 0.1267 Uiso
C10_10 C 0.9638 0.3989 0.4638 0.1267 Uiso
C11_10 C 0.9741 0.4236 0.4741 0.1267 Uiso
O23_10 O 0.9624 0.4338 0.4936 0.1267 Uiso
C12_10 C 0.9427 0.385 0.4728 0.1267 Uiso
O24_10 O 0.9829 0.5345 0.4361 0.1267 Uiso
O25_10 O 0.9361 0.4829 0.5345 0.1267 Uiso
Cu4_26 Cu 0.9146 0.4146 0.2903 0.1267 Uiso
Cu6_10 Cu 0.9597 0.4146 0.3354 0.1267 Uiso
Zr4_6 Zr 0.9856 0.5315 0.5315 0.1267 Uiso
O29_6 O 0.992 0.492 0.5384 0.1267 Uiso
O30_6 O 0.992 0.5384 0.492 0.1267 Uiso
N7_10 N 0.9578 0.3102 0.3862 0.1267 Uiso
N9_10 N 0.8862 0.4578 0.3102 0.1267 Uiso
H7_10 H 0.989186 0.430527 0.390279 . .
H8_10 H 0.890279 0.430527 0.489186 . .
H11_10 H 0.930527 0.489186 0.390279 . .
H20_10 H 0.989186 0.390279 0.430527 . .
H23_10 H 0.930527 0.390279 0.489186 . .
H26_10 H 0.890279 0.489186 0.430527 . .
H31_3 H 0.988994 0.369349 0.402851 . .
Cu1_11 Cu 0.4146 0.2903 0.9146 0.1267 Uiso
Zr1_7 Zr 0.4685 0.2356 0.7815 0.1267 Uiso
O1_11 O 0.3952 0.3139 0.8952 0.1267 Uiso
O2_11 O 0.4339 0.2664 0.9339 0.1267 Uiso
O3_11 O 0.4337 0.3163 0.9337 0.1267 Uiso
O4_11 O 0.3996 0.2609 0.8996 0.1267 Uiso
O5_11 O 0.4624 0.2564 0.8162 0.1267 Uiso
O6_11 O 0.4361 0.2155 0.7671 0.1267 Uiso
O7_11 O 0.4757 0.2743 0.7743 0.1267 Uiso
O8_7 O 0.508 0.242 0.7884 0.1267 Uiso
N1_11 N 0.4398 0.2922 0.8862 0.1267 Uiso
C1_11 C 0.4427 0.2772 0.865 0.1267 Uiso
C2_11 C 0.4638 0.2862 0.8511 0.1267 Uiso
C3_11 C 0.4741 0.2759 0.8264 0.1267 Uiso
O9_11 O 0.4936 0.2876 0.8162 0.1267 Uiso
N2_11 N 0.4578 0.3102 0.8862 0.1267 Uiso
C4_11 C 0.4728 0.3073 0.865 0.1267 Uiso
Zr2_7 Zr 0.4685 0.2815 0.7356 0.1267 Uiso
O10_11 O 0.3548 0.3548 0.8139 0.1267 Uiso
O11_11 O 0.3161 0.3161 0.7664 0.1267 Uiso
O12_11 O 0.3504 0.3504 0.7609 0.1267 Uiso
O13_11 O 0.4338 0.2876 0.7564 0.1267 Uiso
O14_11 O 0.4829 0.3139 0.7155 0.1267 Uiso
O15_7 O 0.4616 0.242 0.742 0.1267 Uiso
N3_11 N 0.3638 0.3102 0.7922 0.1267 Uiso
C5_11 C 0.385 0.3073 0.7772 0.1267 Uiso
C6_11 C 0.3989 0.2862 0.7862 0.1267 Uiso
C7_11 C 0.4236 0.2759 0.7759 0.1267 Uiso
O16_11 O 0.4338 0.2564 0.7876 0.1267 Uiso
N4_11 N 0.3638 0.2922 0.8102 0.1267 Uiso
C8_11 C 0.385 0.2772 0.8073 0.1267 Uiso
Zr3_7 Zr 0.5144 0.2815 0.7815 0.1267 Uiso
O17_11 O 0.4361 0.3952 0.8548 0.1267 Uiso
O18_11 O 0.4836 0.4339 0.8161 0.1267 Uiso
O19_11 O 0.4891 0.3996 0.8504 0.1267 Uiso
O20_11 O 0.4936 0.3162 0.7876 0.1267 Uiso
O21_11 O 0.5345 0.2671 0.8139 0.1267 Uiso
O22_7 O 0.508 0.2884 0.742 0.1267 Uiso
N5_11 N 0.4578 0.3862 0.8102 0.1267 Uiso
C9_11 C 0.4728 0.365 0.8073 0.1267 Uiso
C10_11 C 0.4638 0.3511 0.7862 0.1267 Uiso
C11_11 C 0.4741 0.3264 0.7759 0.1267 Uiso
O23_11 O 0.4624 0.3162 0.7564 0.1267 Uiso
C12_11 C 0.4427 0.365 0.7772 0.1267 Uiso
O24_11 O 0.4829 0.2155 0.8139 0.1267 Uiso
O25_11 O 0.4361 0.2671 0.7155 0.1267 Uiso
O26_11 O 0.5345 0.3139 0.7671 0.1267 Uiso
Cu4_27 Cu 0.4146 0.3354 0.9597 0.1267 Uiso
Cu6_11 Cu 0.4597 0.3354 0.9146 0.1267 Uiso
Zr4_7 Zr 0.4856 0.2185 0.7185 0.1267 Uiso
Zr5_7 Zr 0.5315 0.2185 0.7644 0.1267 Uiso
Zr6_7 Zr 0.5315 0.2644 0.7185 0.1267 Uiso
O29_7 O 0.492 0.258 0.7116 0.1267 Uiso
O30_7 O 0.492 0.2116 0.758 0.1267 Uiso
O31_7 O 0.5384 0.258 0.758 0.1267 Uiso
N7_11 N 0.4578 0.4398 0.8638 0.1267 Uiso
N9_11 N 0.3862 0.2922 0.9398 0.1267 Uiso
H7_11 H 0.489186 0.319473 0.859721 . .
H8_11 H 0.390279 0.319473 0.760814 . .
H11_11 H 0.430527 0.260814 0.859721 . .
H20_11 H 0.489186 0.359721 0.819473 . .
H23_11 H 0.430527 0.359721 0.760814 . .
H26_11 H 0.390279 0.260814 0.819473 . .
Zr1_8 Zr 0.2815 0.0144 0.2815 0.1267 Uiso
O6_12 O 0.3139 0.0345 0.2671 0.1267 Uiso
O8_8 O 0.242 0.008 0.2884 0.1267 Uiso
O15_8 O 0.2884 0.008 0.242 0.1267 Uiso
O24_12 O 0.2671 0.0345 0.3139 0.1267 Uiso
Zr4_8 Zr 0.2644 0.0315 0.2185 0.1267 Uiso
Zr5_8 Zr 0.2185 0.0315 0.2644 0.1267 Uiso
O30_8 O 0.258 0.0384 0.258 0.1267 Uiso
H10_3 H 0.342657 0.00490322 0.407343 . .
H13_7 H 0.321134 0.001459 0.428866 . .
H24_5 H 0.215992 0.0021188 0.313725 . .
Cu1_12 Cu 0.3354 0.9597 0.4146 0.1267 Uiso
O1_12 O 0.3548 0.9361 0.3952 0.1267 Uiso
O2_12 O 0.3161 0.9836 0.4339 0.1267 Uiso
O3_12 O 0.3163 0.9337 0.4337 0.1267 Uiso
O4_12 O 0.3504 0.9891 0.3996 0.1267 Uiso
O5_12 O 0.2876 0.9936 0.3162 0.1267 Uiso
O7_12 O 0.2743 0.9757 0.2743 0.1267 Uiso
N1_12 N 0.3102 0.9578 0.3862 0.1267 Uiso
C1_12 C 0.3073 0.9728 0.365 0.1267 Uiso
C2_12 C 0.2862 0.9638 0.3511 0.1267 Uiso
C3_12 C 0.2759 0.9741 0.3264 0.1267 Uiso
O9_12 O 0.2564 0.9624 0.3162 0.1267 Uiso
N2_12 N 0.2922 0.9398 0.3862 0.1267 Uiso
C4_12 C 0.2772 0.9427 0.365 0.1267 Uiso
Zr2_8 Zr 0.2815 0.9685 0.2356 0.1267 Uiso
O10_12 O 0.3952 0.8952 0.3139 0.1267 Uiso
O11_12 O 0.4339 0.9339 0.2664 0.1267 Uiso
O12_12 O 0.3996 0.8996 0.2609 0.1267 Uiso
O13_12 O 0.3162 0.9624 0.2564 0.1267 Uiso
O14_12 O 0.2671 0.9361 0.2155 0.1267 Uiso
N3_12 N 0.3862 0.9398 0.2922 0.1267 Uiso
C5_12 C 0.365 0.9427 0.2772 0.1267 Uiso
C6_12 C 0.3511 0.9638 0.2862 0.1267 Uiso
C7_12 C 0.3264 0.9741 0.2759 0.1267 Uiso
O16_12 O 0.3162 0.9936 0.2876 0.1267 Uiso
N4_12 N 0.3862 0.9578 0.3102 0.1267 Uiso
C8_12 C 0.365 0.9728 0.3073 0.1267 Uiso
Zr3_8 Zr 0.2356 0.9685 0.2815 0.1267 Uiso
O17_12 O 0.3139 0.8548 0.3548 0.1267 Uiso
O18_12 O 0.2664 0.8161 0.3161 0.1267 Uiso
O19_12 O 0.2609 0.8504 0.3504 0.1267 Uiso
O20_12 O 0.2564 0.9338 0.2876 0.1267 Uiso
O21_12 O 0.2155 0.9829 0.3139 0.1267 Uiso
O22_8 O 0.242 0.9616 0.242 0.1267 Uiso
N5_12 N 0.2922 0.8638 0.3102 0.1267 Uiso
C9_12 C 0.2772 0.885 0.3073 0.1267 Uiso
C10_12 C 0.2862 0.8989 0.2862 0.1267 Uiso
C11_12 C 0.2759 0.9236 0.2759 0.1267 Uiso
O23_12 O 0.2876 0.9338 0.2564 0.1267 Uiso
C12_12 C 0.3073 0.885 0.2772 0.1267 Uiso
O25_12 O 0.3139 0.9829 0.2155 0.1267 Uiso
O26_12 O 0.2155 0.9361 0.2671 0.1267 Uiso
Cu4_28 Cu 0.3354 0.9146 0.4597 0.1267 Uiso
Cu6_12 Cu 0.2903 0.9146 0.4146 0.1267 Uiso
Zr6_8 Zr 0.2185 0.9856 0.2185 0.1267 Uiso
O29_8 O 0.258 0.992 0.2116 0.1267 Uiso
O31_8 O 0.2116 0.992 0.258 0.1267 Uiso
N7_12 N 0.2922 0.8102 0.3638 0.1267 Uiso
N9_12 N 0.3638 0.9578 0.4398 0.1267 Uiso
H7_12 H 0.260814 0.930527 0.359721 . .
H8_12 H 0.359721 0.930527 0.260814 . .
H9_3 H 0.347149 0.988994 0.380651 . .
H11_12 H 0.319473 0.989186 0.359721 . .
H20_12 H 0.260814 0.890279 0.319473 . .
H23_12 H 0.319473 0.890279 0.260814 . .
H26_12 H 0.359721 0.989186 0.319473 . .
H13_8 H 0.928866 0.821134 0.001459 . .
H24_6 H 0.813725 0.715992 0.0021188 . .
H13_9 H 0.001459 0.321134 0.428866 . .
O1_13 O 0.0639 0.6048 0.6452 0.1267 Uiso
O2_13 O 0.0164 0.5661 0.6839 0.1267 Uiso
O4_13 O 0.0109 0.6004 0.6496 0.1267 Uiso
O5_13 O 0.0064 0.5376 0.5662 0.1267 Uiso
O7_13 O 0.0243 0.5243 0.5243 0.1267 Uiso
N1_13 N 0.0422 0.5602 0.6362 0.1267 Uiso
C1_13 C 0.0272 0.5573 0.615 0.1267 Uiso
C2_13 C 0.0362 0.5362 0.6011 0.1267 Uiso
C3_13 C 0.0259 0.5259 0.5764 0.1267 Uiso
O9_13 O 0.0376 0.5064 0.5662 0.1267 Uiso
C4_13 C 0.0573 0.5272 0.615 0.1267 Uiso
Cu2_9 Cu 0.0854 0.6646 0.5403 0.1267 Uiso
O10_13 O 0.1048 0.6452 0.5639 0.1267 Uiso
O11_13 O 0.0661 0.6839 0.5164 0.1267 Uiso
O12_13 O 0.1004 0.6496 0.5109 0.1267 Uiso
O13_13 O 0.0376 0.5662 0.5064 0.1267 Uiso
O14_13 O 0.0639 0.5171 0.4655 0.1267 Uiso
N3_13 N 0.0602 0.6362 0.5422 0.1267 Uiso
C5_13 C 0.0573 0.615 0.5272 0.1267 Uiso
C6_13 C 0.0362 0.6011 0.5362 0.1267 Uiso
C7_13 C 0.0259 0.5764 0.5259 0.1267 Uiso
O16_13 O 0.0064 0.5662 0.5376 0.1267 Uiso
N4_13 N 0.0422 0.6362 0.5602 0.1267 Uiso
C8_13 C 0.0272 0.615 0.5573 0.1267 Uiso
O17_13 O 0.1452 0.5639 0.6048 0.1267 Uiso
O18_13 O 0.1839 0.5164 0.5661 0.1267 Uiso
O19_13 O 0.1496 0.5109 0.6004 0.1267 Uiso
O20_13 O 0.0662 0.5064 0.5376 0.1267 Uiso
O21_13 O 0.0171 0.4655 0.5639 0.1267 Uiso
N5_13 N 0.1362 0.5422 0.5602 0.1267 Uiso
C9_13 C 0.115 0.5272 0.5573 0.1267 Uiso
C10_13 C 0.1011 0.5362 0.5362 0.1267 Uiso
C11_13 C 0.0764 0.5259 0.5259 0.1267 Uiso
O23_13 O 0.0662 0.5376 0.5064 0.1267 Uiso
N6_9 N 0.1362 0.5602 0.5422 0.1267 Uiso
C12_13 C 0.115 0.5573 0.5272 0.1267 Uiso
O25_13 O 0.0171 0.5639 0.4655 0.1267 Uiso
O26_13 O 0.0639 0.4655 0.5171 0.1267 Uiso
Cu7_9 Cu 0.0403 0.6646 0.5854 0.1267 Uiso
O27_9 O 0.0663 0.6837 0.5663 0.1267 Uiso
N8_9 N 0.1138 0.6898 0.5422 0.1267 Uiso
N9_13 N 0.0422 0.6138 0.6898 0.1267 Uiso
H7_13 H 0.0694728 0.510814 0.609721 . .
H8_13 H 0.0694728 0.609721 0.510814 . .
H9_4 H 0.0110061 0.597149 0.630651 . .
H11_13 H 0.0108138 0.569473 0.609721 . .
H20_13 H 0.109721 0.510814 0.569473 . .
H23_13 H 0.109721 0.569473 0.510814 . .
H26_13 H 0.0108138 0.609721 0.569473 . .
O6_13 O 0.9655 0.5639 0.5171 0.1267 Uiso
O24_13 O 0.9655 0.5171 0.5639 0.1267 Uiso
H10_4 H 0.995097 0.592657 0.657343 . .
H13_10 H 0.998541 0.571134 0.678866 . .
H24_7 H 0.997881 0.465992 0.563725 . .
O1_14 O 0.6861 0.6452 0.1452 0.1267 Uiso
O2_14 O 0.7336 0.6839 0.1839 0.1267 Uiso
O4_14 O 0.7391 0.6496 0.1496 0.1267 Uiso
O5_14 O 0.7436 0.7124 0.0662 0.1267 Uiso
O6_14 O 0.7845 0.6861 0.0171 0.1267 Uiso
O7_14 O 0.7257 0.7257 0.0243 0.1267 Uiso
N1_14 N 0.7078 0.6898 0.1362 0.1267 Uiso
C1_14 C 0.7228 0.6927 0.115 0.1267 Uiso
C2_14 C 0.7138 0.7138 0.1011 0.1267 Uiso
C3_14 C 0.7241 0.7241 0.0764 0.1267 Uiso
O9_14 O 0.7124 0.7436 0.0662 0.1267 Uiso
C4_14 C 0.6927 0.7228 0.115 0.1267 Uiso
Cu2_10 Cu 0.6646 0.5854 0.0403 0.1267 Uiso
O10_14 O 0.6452 0.6048 0.0639 0.1267 Uiso
O11_14 O 0.6839 0.5661 0.0164 0.1267 Uiso
O12_14 O 0.6496 0.6004 0.0109 0.1267 Uiso
O13_14 O 0.7124 0.6838 0.0064 0.1267 Uiso
N3_14 N 0.6898 0.6138 0.0422 0.1267 Uiso
C5_14 C 0.6927 0.635 0.0272 0.1267 Uiso
C6_14 C 0.7138 0.6489 0.0362 0.1267 Uiso
C7_14 C 0.7241 0.6736 0.0259 0.1267 Uiso
O16_14 O 0.7436 0.6838 0.0376 0.1267 Uiso
N4_14 N 0.7078 0.6138 0.0602 0.1267 Uiso
C8_14 C 0.7228 0.635 0.0573 0.1267 Uiso
O17_14 O 0.6048 0.6861 0.1048 0.1267 Uiso
O18_14 O 0.5661 0.7336 0.0661 0.1267 Uiso
O19_14 O 0.6004 0.7391 0.1004 0.1267 Uiso
O20_14 O 0.6838 0.7436 0.0376 0.1267 Uiso
O21_14 O 0.7329 0.7845 0.0639 0.1267 Uiso
N5_14 N 0.6138 0.7078 0.0602 0.1267 Uiso
C9_14 C 0.635 0.7228 0.0573 0.1267 Uiso
C10_14 C 0.6489 0.7138 0.0362 0.1267 Uiso
C11_14 C 0.6736 0.7241 0.0259 0.1267 Uiso
O23_14 O 0.6838 0.7124 0.0064 0.1267 Uiso
N6_10 N 0.6138 0.6898 0.0422 0.1267 Uiso
C12_14 C 0.635 0.6927 0.0272 0.1267 Uiso
O24_14 O 0.7845 0.7329 0.0639 0.1267 Uiso
O26_14 O 0.6861 0.7845 0.0171 0.1267 Uiso
Cu7_10 Cu 0.7097 0.5854 0.0854 0.1267 Uiso
O27_10 O 0.6837 0.5663 0.0663 0.1267 Uiso
N8_10 N 0.6362 0.5602 0.0422 0.1267 Uiso
N9_14 N 0.7078 0.6362 0.1898 0.1267 Uiso
H1_4 H 0.652851 0.619349 0.0110061 . .
H7_14 H 0.680527 0.739186 0.109721 . .
H8_14 H 0.680527 0.640279 0.0108138 . .
H11_14 H 0.739186 0.680527 0.109721 . .
H20_14 H 0.640279 0.739186 0.0694728 . .
H23_14 H 0.640279 0.680527 0.0108138 . .
H26_14 H 0.739186 0.640279 0.0694728 . .
O14_14 O 0.6861 0.7329 0.9655 0.1267 Uiso
O25_14 O 0.7329 0.6861 0.9655 0.1267 Uiso
H2_4 H 0.657343 0.592657 0.995097 . .
O1_15 O 0.5639 0.1452 0.6048 0.1267 Uiso
O2_15 O 0.5164 0.1839 0.5661 0.1267 Uiso
O4_15 O 0.5109 0.1496 0.6004 0.1267 Uiso
O5_15 O 0.5064 0.2124 0.6838 0.1267 Uiso
O6_15 O 0.4655 0.1861 0.7329 0.1267 Uiso
O7_15 O 0.5243 0.2257 0.7257 0.1267 Uiso
N1_15 N 0.5422 0.1898 0.6138 0.1267 Uiso
C1_15 C 0.5272 0.1927 0.635 0.1267 Uiso
C2_15 C 0.5362 0.2138 0.6489 0.1267 Uiso
C3_15 C 0.5259 0.2241 0.6736 0.1267 Uiso
O9_15 O 0.5376 0.2436 0.6838 0.1267 Uiso
C4_15 C 0.5573 0.2228 0.635 0.1267 Uiso
Cu2_11 Cu 0.5854 0.0854 0.7097 0.1267 Uiso
O10_15 O 0.6048 0.1048 0.6861 0.1267 Uiso
O11_15 O 0.5661 0.0661 0.7336 0.1267 Uiso
O12_15 O 0.6004 0.1004 0.7391 0.1267 Uiso
O13_15 O 0.5376 0.1838 0.7436 0.1267 Uiso
O14_15 O 0.5639 0.2329 0.7845 0.1267 Uiso
N3_15 N 0.5602 0.1138 0.7078 0.1267 Uiso
C5_15 C 0.5573 0.135 0.7228 0.1267 Uiso
C6_15 C 0.5362 0.1489 0.7138 0.1267 Uiso
C7_15 C 0.5259 0.1736 0.7241 0.1267 Uiso
O16_15 O 0.5064 0.1838 0.7124 0.1267 Uiso
N4_15 N 0.5422 0.1138 0.6898 0.1267 Uiso
C8_15 C 0.5272 0.135 0.6927 0.1267 Uiso
O17_15 O 0.6452 0.1861 0.6452 0.1267 Uiso
O18_15 O 0.6839 0.2336 0.6839 0.1267 Uiso
O19_15 O 0.6496 0.2391 0.6496 0.1267 Uiso
O20_15 O 0.5662 0.2436 0.7124 0.1267 Uiso
O21_15 O 0.5171 0.2845 0.6861 0.1267 Uiso
N5_15 N 0.6362 0.2078 0.6898 0.1267 Uiso
C9_15 C 0.615 0.2228 0.6927 0.1267 Uiso
C10_15 C 0.6011 0.2138 0.7138 0.1267 Uiso
C11_15 C 0.5764 0.2241 0.7241 0.1267 Uiso
O23_15 O 0.5662 0.2124 0.7436 0.1267 Uiso
N6_11 N 0.6362 0.1898 0.7078 0.1267 Uiso
C12_15 C 0.615 0.1927 0.7228 0.1267 Uiso
O24_15 O 0.4655 0.2329 0.6861 0.1267 Uiso
O25_15 O 0.5171 0.1861 0.7845 0.1267 Uiso
O26_15 O 0.5639 0.2845 0.7329 0.1267 Uiso
Cu7_11 Cu 0.5403 0.0854 0.6646 0.1267 Uiso
O27_11 O 0.5663 0.0663 0.6837 0.1267 Uiso
N8_11 N 0.6138 0.0602 0.7078 0.1267 Uiso
N9_15 N 0.5422 0.1362 0.5602 0.1267 Uiso
H7_15 H 0.569473 0.239186 0.640279 . .
H8_15 H 0.569473 0.140279 0.739186 . .
H11_15 H 0.510814 0.180527 0.640279 . .
H20_15 H 0.609721 0.239186 0.680527 . .
H23_15 H 0.609721 0.180527 0.739186 . .
H26_15 H 0.510814 0.140279 0.680527 . .
O1_16 O 0.1861 0.1048 0.1048 0.1267 Uiso
O2_16 O 0.2336 0.0661 0.0661 0.1267 Uiso
O4_16 O 0.2391 0.1004 0.1004 0.1267 Uiso
O5_16 O 0.2436 0.0376 0.1838 0.1267 Uiso
O6_16 O 0.2845 0.0639 0.2329 0.1267 Uiso
O7_16 O 0.2257 0.0243 0.2257 0.1267 Uiso
N1_16 N 0.2078 0.0602 0.1138 0.1267 Uiso
C1_16 C 0.2228 0.0573 0.135 0.1267 Uiso
C2_16 C 0.2138 0.0362 0.1489 0.1267 Uiso
C3_16 C 0.2241 0.0259 0.1736 0.1267 Uiso
O9_16 O 0.2124 0.0064 0.1838 0.1267 Uiso
C4_16 C 0.1927 0.0272 0.135 0.1267 Uiso
Cu2_12 Cu 0.1646 0.1646 0.2097 0.1267 Uiso
O10_16 O 0.1452 0.1452 0.1861 0.1267 Uiso
O11_16 O 0.1839 0.1839 0.2336 0.1267 Uiso
O12_16 O 0.1496 0.1496 0.2391 0.1267 Uiso
O13_16 O 0.2124 0.0662 0.2436 0.1267 Uiso
O14_16 O 0.1861 0.0171 0.2845 0.1267 Uiso
N3_16 N 0.1898 0.1362 0.2078 0.1267 Uiso
C5_16 C 0.1927 0.115 0.2228 0.1267 Uiso
C6_16 C 0.2138 0.1011 0.2138 0.1267 Uiso
C7_16 C 0.2241 0.0764 0.2241 0.1267 Uiso
O16_16 O 0.2436 0.0662 0.2124 0.1267 Uiso
N4_16 N 0.2078 0.1362 0.1898 0.1267 Uiso
C8_16 C 0.2228 0.115 0.1927 0.1267 Uiso
O17_16 O 0.1048 0.0639 0.1452 0.1267 Uiso
O18_16 O 0.0661 0.0164 0.1839 0.1267 Uiso
O19_16 O 0.1004 0.0109 0.1496 0.1267 Uiso
O20_16 O 0.1838 0.0064 0.2124 0.1267 Uiso
N5_16 N 0.1138 0.0422 0.1898 0.1267 Uiso
C9_16 C 0.135 0.0272 0.1927 0.1267 Uiso
C10_16 C 0.1489 0.0362 0.2138 0.1267 Uiso
C11_16 C 0.1736 0.0259 0.2241 0.1267 Uiso
O23_16 O 0.1838 0.0376 0.2436 0.1267 Uiso
N6_12 N 0.1138 0.0602 0.2078 0.1267 Uiso
C12_16 C 0.135 0.0573 0.2228 0.1267 Uiso
O24_16 O 0.2845 0.0171 0.1861 0.1267 Uiso
O25_16 O 0.2329 0.0639 0.2845 0.1267 Uiso
Cu7_12 Cu 0.2097 0.1646 0.1646 0.1267 Uiso
O27_12 O 0.1837 0.1837 0.1837 0.1267 Uiso
N8_12 N 0.1362 0.1898 0.2078 0.1267 Uiso
N9_16 N 0.2078 0.1138 0.0602 0.1267 Uiso
H7_16 H 0.180527 0.0108138 0.140279 . .
H8_16 H 0.180527 0.109721 0.239186 . .
H11_16 H 0.239186 0.0694728 0.140279 . .
H20_16 H 0.140279 0.0108138 0.180527 . .
H23_16 H 0.140279 0.0694728 0.239186 . .
H26_16 H 0.239186 0.109721 0.180527 . .
H31_4 H 0.119349 0.0110061 0.152851 . .
O21_16 O 0.2329 0.9655 0.1861 0.1267 Uiso
O26_16 O 0.1861 0.9655 0.2329 0.1267 Uiso
H5_4 H 0.186275 0.997881 0.284008 . .
H32_4 H 0.0926575 0.995097 0.157343 . .
Cu4_29 Cu 0.5854 0.0403 0.6646 0.1267 Uiso
Cu4_30 Cu 0.6646 0.5403 0.0854 0.1267 Uiso
H13_11 H 0.678866 0.571134 0.998541 . .
H24_8 H 0.784008 0.686275 0.997881 . .
Cu4_31 Cu 0.1646 0.2097 0.1646 0.1267 Uiso
Cu4_32 Cu 0.0854 0.7097 0.5854 0.1267 Uiso
H13_12 H 0.0711344 0.998541 0.178866 . .
Zr2_9 Zr 0.2815 0.2815 0.0144 0.1267 Uiso
O14_17 O 0.2671 0.3139 0.0345 0.1267 Uiso
O15_9 O 0.2884 0.242 0.008 0.1267 Uiso
O22_9 O 0.242 0.2884 0.008 0.1267 Uiso
O25_17 O 0.3139 0.2671 0.0345 0.1267 Uiso
Zr4_9 Zr 0.2644 0.2185 0.0315 0.1267 Uiso
Zr6_9 Zr 0.2185 0.2644 0.0315 0.1267 Uiso
O29_9 O 0.258 0.258 0.0384 0.1267 Uiso
H2_5 H 0.407343 0.342657 0.00490322 . .
Zr1_9 Zr 0.2815 0.2356 0.9685 0.1267 Uiso
O1_17 O 0.3548 0.3139 0.8548 0.1267 Uiso
O2_17 O 0.3161 0.2664 0.8161 0.1267 Uiso
O4_17 O 0.3504 0.2609 0.8504 0.1267 Uiso
O5_17 O 0.2876 0.2564 0.9338 0.1267 Uiso
O6_17 O 0.3139 0.2155 0.9829 0.1267 Uiso
O7_17 O 0.2743 0.2743 0.9757 0.1267 Uiso
O8_9 O 0.242 0.242 0.9616 0.1267 Uiso
N1_17 N 0.3102 0.2922 0.8638 0.1267 Uiso
C1_17 C 0.3073 0.2772 0.885 0.1267 Uiso
C2_17 C 0.2862 0.2862 0.8989 0.1267 Uiso
C3_17 C 0.2759 0.2759 0.9236 0.1267 Uiso
O9_17 O 0.2564 0.2876 0.9338 0.1267 Uiso
C4_17 C 0.2772 0.3073 0.885 0.1267 Uiso
O10_17 O 0.3952 0.3548 0.9361 0.1267 Uiso
O11_17 O 0.4339 0.3161 0.9836 0.1267 Uiso
O12_17 O 0.3996 0.3504 0.9891 0.1267 Uiso
O13_17 O 0.3162 0.2876 0.9936 0.1267 Uiso
N3_17 N 0.3862 0.3102 0.9578 0.1267 Uiso
C5_17 C 0.365 0.3073 0.9728 0.1267 Uiso
C6_17 C 0.3511 0.2862 0.9638 0.1267 Uiso
C7_17 C 0.3264 0.2759 0.9741 0.1267 Uiso
O16_17 O 0.3162 0.2564 0.9624 0.1267 Uiso
C8_17 C 0.365 0.2772 0.9427 0.1267 Uiso
Zr3_9 Zr 0.2356 0.2815 0.9685 0.1267 Uiso
O17_17 O 0.3139 0.3952 0.8952 0.1267 Uiso
O18_17 O 0.2664 0.4339 0.9339 0.1267 Uiso
O19_17 O 0.2609 0.3996 0.8996 0.1267 Uiso
O20_17 O 0.2564 0.3162 0.9624 0.1267 Uiso
O21_17 O 0.2155 0.2671 0.9361 0.1267 Uiso
N5_17 N 0.2922 0.3862 0.9398 0.1267 Uiso
C9_17 C 0.2772 0.365 0.9427 0.1267 Uiso
C10_17 C 0.2862 0.3511 0.9638 0.1267 Uiso
C11_17 C 0.2759 0.3264 0.9741 0.1267 Uiso
O23_17 O 0.2876 0.3162 0.9936 0.1267 Uiso
N6_13 N 0.3102 0.3862 0.9578 0.1267 Uiso
C12_17 C 0.3073 0.365 0.9728 0.1267 Uiso
O24_17 O 0.2671 0.2155 0.9361 0.1267 Uiso
O26_17 O 0.2155 0.3139 0.9829 0.1267 Uiso
Zr5_9 Zr 0.2185 0.2185 0.9856 0.1267 Uiso
O30_9 O 0.258 0.2116 0.992 0.1267 Uiso
O31_9 O 0.2116 0.258 0.992 0.1267 Uiso
N8_13 N 0.4398 0.3638 0.9578 0.1267 Uiso
H1_5 H 0.380651 0.347149 0.988994 . .
H7_17 H 0.260814 0.319473 0.890279 . .
H8_17 H 0.359721 0.319473 0.989186 . .
H11_17 H 0.319473 0.260814 0.890279 . .
H20_17 H 0.260814 0.359721 0.930527 . .
H23_17 H 0.319473 0.359721 0.989186 . .
H26_17 H 0.359721 0.260814 0.930527 . .
Zr1_10 Zr 0.4685 0.0144 0.4685 0.1267 Uiso
O6_18 O 0.4361 0.0345 0.4829 0.1267 Uiso
O8_10 O 0.508 0.008 0.4616 0.1267 Uiso
O15_10 O 0.4616 0.008 0.508 0.1267 Uiso
O24_18 O 0.4829 0.0345 0.4361 0.1267 Uiso
Zr4_10 Zr 0.4856 0.0315 0.5315 0.1267 Uiso
Zr5_10 Zr 0.5315 0.0315 0.4856 0.1267 Uiso
O30_10 O 0.492 0.0384 0.492 0.1267 Uiso
H10_5 H 0.407343 0.00490322 0.342657 . .
H13_13 H 0.428866 0.001459 0.321134 . .
H24_9 H 0.534008 0.0021188 0.436275 . .
O1_18 O 0.3952 0.9361 0.3548 0.1267 Uiso
O2_18 O 0.4339 0.9836 0.3161 0.1267 Uiso
O4_18 O 0.3996 0.9891 0.3504 0.1267 Uiso
O5_18 O 0.4624 0.9936 0.4338 0.1267 Uiso
O7_18 O 0.4757 0.9757 0.4757 0.1267 Uiso
N1_18 N 0.4398 0.9578 0.3638 0.1267 Uiso
C1_18 C 0.4427 0.9728 0.385 0.1267 Uiso
C2_18 C 0.4638 0.9638 0.3989 0.1267 Uiso
C3_18 C 0.4741 0.9741 0.4236 0.1267 Uiso
O9_18 O 0.4936 0.9624 0.4338 0.1267 Uiso
C4_18 C 0.4728 0.9427 0.385 0.1267 Uiso
Zr2_10 Zr 0.4685 0.9685 0.5144 0.1267 Uiso
O10_18 O 0.3548 0.8952 0.4361 0.1267 Uiso
O11_18 O 0.3161 0.9339 0.4836 0.1267 Uiso
O12_18 O 0.3504 0.8996 0.4891 0.1267 Uiso
O13_18 O 0.4338 0.9624 0.4936 0.1267 Uiso
O14_18 O 0.4829 0.9361 0.5345 0.1267 Uiso
N3_18 N 0.3638 0.9398 0.4578 0.1267 Uiso
C5_18 C 0.385 0.9427 0.4728 0.1267 Uiso
C6_18 C 0.3989 0.9638 0.4638 0.1267 Uiso
C7_18 C 0.4236 0.9741 0.4741 0.1267 Uiso
O16_18 O 0.4338 0.9936 0.4624 0.1267 Uiso
C8_18 C 0.385 0.9728 0.4427 0.1267 Uiso
Zr3_10 Zr 0.5144 0.9685 0.4685 0.1267 Uiso
O17_18 O 0.4361 0.8548 0.3952 0.1267 Uiso
O18_18 O 0.4836 0.8161 0.4339 0.1267 Uiso
O19_18 O 0.4891 0.8504 0.3996 0.1267 Uiso
O20_18 O 0.4936 0.9338 0.4624 0.1267 Uiso
O21_18 O 0.5345 0.9829 0.4361 0.1267 Uiso
O22_10 O 0.508 0.9616 0.508 0.1267 Uiso
N5_18 N 0.4578 0.8638 0.4398 0.1267 Uiso
C9_18 C 0.4728 0.885 0.4427 0.1267 Uiso
C10_18 C 0.4638 0.8989 0.4638 0.1267 Uiso
C11_18 C 0.4741 0.9236 0.4741 0.1267 Uiso
O23_18 O 0.4624 0.9338 0.4936 0.1267 Uiso
N6_14 N 0.4398 0.8638 0.4578 0.1267 Uiso
C12_18 C 0.4427 0.885 0.4728 0.1267 Uiso
O25_18 O 0.4361 0.9829 0.5345 0.1267 Uiso
O26_18 O 0.5345 0.9361 0.4829 0.1267 Uiso
Zr6_10 Zr 0.5315 0.9856 0.5315 0.1267 Uiso
O29_10 O 0.492 0.992 0.5384 0.1267 Uiso
O31_10 O 0.5384 0.992 0.492 0.1267 Uiso
N8_14 N 0.3102 0.8862 0.4578 0.1267 Uiso
H7_18 H 0.489186 0.930527 0.390279 . .
H8_18 H 0.390279 0.930527 0.489186 . .
H9_5 H 0.402851 0.988994 0.369349 . .
H11_18 H 0.430527 0.989186 0.390279 . .
H20_18 H 0.489186 0.890279 0.430527 . .
H23_18 H 0.430527 0.890279 0.489186 . .
H26_18 H 0.390279 0.989186 0.430527 . .
O8_11 O 0.008 0.742 0.7884 0.1267 Uiso
Zr3_11 Zr 0.0144 0.7815 0.7815 0.1267 Uiso
O21_19 O 0.0345 0.7671 0.8139 0.1267 Uiso
O22_11 O 0.008 0.7884 0.742 0.1267 Uiso
O26_19 O 0.0345 0.8139 0.7671 0.1267 Uiso
Zr5_11 Zr 0.0315 0.7185 0.7644 0.1267 Uiso
Zr6_11 Zr 0.0315 0.7644 0.7185 0.1267 Uiso
O31_11 O 0.0384 0.758 0.758 0.1267 Uiso
H5_5 H 0.0021188 0.813725 0.715992 . .
H32_5 H 0.00490322 0.907343 0.842657 . .
Zr1_11 Zr 0.9685 0.7356 0.7815 0.1267 Uiso
O1_19 O 0.8952 0.8139 0.8952 0.1267 Uiso
O2_19 O 0.9339 0.7664 0.9339 0.1267 Uiso
O4_19 O 0.8996 0.7609 0.8996 0.1267 Uiso
O5_19 O 0.9624 0.7564 0.8162 0.1267 Uiso
O6_19 O 0.9361 0.7155 0.7671 0.1267 Uiso
O7_19 O 0.9757 0.7743 0.7743 0.1267 Uiso
N1_19 N 0.9398 0.7922 0.8862 0.1267 Uiso
C1_19 C 0.9427 0.7772 0.865 0.1267 Uiso
C2_19 C 0.9638 0.7862 0.8511 0.1267 Uiso
C3_19 C 0.9741 0.7759 0.8264 0.1267 Uiso
O9_19 O 0.9936 0.7876 0.8162 0.1267 Uiso
C4_19 C 0.9728 0.8073 0.865 0.1267 Uiso
Zr2_11 Zr 0.9685 0.7815 0.7356 0.1267 Uiso
O10_19 O 0.8548 0.8548 0.8139 0.1267 Uiso
O11_19 O 0.8161 0.8161 0.7664 0.1267 Uiso
O12_19 O 0.8504 0.8504 0.7609 0.1267 Uiso
O13_19 O 0.9338 0.7876 0.7564 0.1267 Uiso
O14_19 O 0.9829 0.8139 0.7155 0.1267 Uiso
O15_11 O 0.9616 0.742 0.742 0.1267 Uiso
N3_19 N 0.8638 0.8102 0.7922 0.1267 Uiso
C5_19 C 0.885 0.8073 0.7772 0.1267 Uiso
C6_19 C 0.8989 0.7862 0.7862 0.1267 Uiso
C7_19 C 0.9236 0.7759 0.7759 0.1267 Uiso
O16_19 O 0.9338 0.7564 0.7876 0.1267 Uiso
C8_19 C 0.885 0.7772 0.8073 0.1267 Uiso
O17_19 O 0.9361 0.8952 0.8548 0.1267 Uiso
O18_19 O 0.9836 0.9339 0.8161 0.1267 Uiso
O19_19 O 0.9891 0.8996 0.8504 0.1267 Uiso
O20_19 O 0.9936 0.8162 0.7876 0.1267 Uiso
N5_19 N 0.9578 0.8862 0.8102 0.1267 Uiso
C9_19 C 0.9728 0.865 0.8073 0.1267 Uiso
C10_19 C 0.9638 0.8511 0.7862 0.1267 Uiso
C11_19 C 0.9741 0.8264 0.7759 0.1267 Uiso
O23_19 O 0.9624 0.8162 0.7564 0.1267 Uiso
N6_15 N 0.9398 0.8862 0.7922 0.1267 Uiso
C12_19 C 0.9427 0.865 0.7772 0.1267 Uiso
O24_19 O 0.9829 0.7155 0.8139 0.1267 Uiso
O25_19 O 0.9361 0.7671 0.7155 0.1267 Uiso
Zr4_11 Zr 0.9856 0.7185 0.7185 0.1267 Uiso
O29_11 O 0.992 0.758 0.7116 0.1267 Uiso
O30_11 O 0.992 0.7116 0.758 0.1267 Uiso
N8_15 N 0.8102 0.8638 0.7922 0.1267 Uiso
H7_19 H 0.989186 0.819473 0.859721 . .
H8_19 H 0.890279 0.819473 0.760814 . .
H11_19 H 0.930527 0.760814 0.859721 . .
H20_19 H 0.989186 0.859721 0.819473 . .
H23_19 H 0.930527 0.859721 0.760814 . .
H26_19 H 0.890279 0.760814 0.819473 . .
H31_5 H 0.988994 0.880651 0.847149 . .
Zr1_12 Zr 0.7815 0.5144 0.2815 0.1267 Uiso
O1_20 O 0.8548 0.4361 0.3952 0.1267 Uiso
O2_20 O 0.8161 0.4836 0.4339 0.1267 Uiso
O4_20 O 0.8504 0.4891 0.3996 0.1267 Uiso
O5_20 O 0.7876 0.4936 0.3162 0.1267 Uiso
O6_20 O 0.8139 0.5345 0.2671 0.1267 Uiso
O7_20 O 0.7743 0.4757 0.2743 0.1267 Uiso
O8_12 O 0.742 0.508 0.2884 0.1267 Uiso
N1_20 N 0.8102 0.4578 0.3862 0.1267 Uiso
C1_20 C 0.8073 0.4728 0.365 0.1267 Uiso
C2_20 C 0.7862 0.4638 0.3511 0.1267 Uiso
C3_20 C 0.7759 0.4741 0.3264 0.1267 Uiso
O9_20 O 0.7564 0.4624 0.3162 0.1267 Uiso
C4_20 C 0.7772 0.4427 0.365 0.1267 Uiso
Zr2_12 Zr 0.7815 0.4685 0.2356 0.1267 Uiso
O10_20 O 0.8952 0.3952 0.3139 0.1267 Uiso
O11_20 O 0.9339 0.4339 0.2664 0.1267 Uiso
O12_20 O 0.8996 0.3996 0.2609 0.1267 Uiso
O13_20 O 0.8162 0.4624 0.2564 0.1267 Uiso
O14_20 O 0.7671 0.4361 0.2155 0.1267 Uiso
O15_12 O 0.7884 0.508 0.242 0.1267 Uiso
N3_20 N 0.8862 0.4398 0.2922 0.1267 Uiso
C5_20 C 0.865 0.4427 0.2772 0.1267 Uiso
C6_20 C 0.8511 0.4638 0.2862 0.1267 Uiso
C7_20 C 0.8264 0.4741 0.2759 0.1267 Uiso
O16_20 O 0.8162 0.4936 0.2876 0.1267 Uiso
C8_20 C 0.865 0.4728 0.3073 0.1267 Uiso
Zr3_12 Zr 0.7356 0.4685 0.2815 0.1267 Uiso
O17_20 O 0.8139 0.3548 0.3548 0.1267 Uiso
O18_20 O 0.7664 0.3161 0.3161 0.1267 Uiso
O19_20 O 0.7609 0.3504 0.3504 0.1267 Uiso
O20_20 O 0.7564 0.4338 0.2876 0.1267 Uiso
O21_20 O 0.7155 0.4829 0.3139 0.1267 Uiso
O22_12 O 0.742 0.4616 0.242 0.1267 Uiso
N5_20 N 0.7922 0.3638 0.3102 0.1267 Uiso
C9_20 C 0.7772 0.385 0.3073 0.1267 Uiso
C10_20 C 0.7862 0.3989 0.2862 0.1267 Uiso
C11_20 C 0.7759 0.4236 0.2759 0.1267 Uiso
O23_20 O 0.7876 0.4338 0.2564 0.1267 Uiso
N6_16 N 0.8102 0.3638 0.2922 0.1267 Uiso
C12_20 C 0.8073 0.385 0.2772 0.1267 Uiso
O24_20 O 0.7671 0.5345 0.3139 0.1267 Uiso
O25_20 O 0.8139 0.4829 0.2155 0.1267 Uiso
O26_20 O 0.7155 0.4361 0.2671 0.1267 Uiso
Zr4_12 Zr 0.7644 0.5315 0.2185 0.1267 Uiso
Zr5_12 Zr 0.7185 0.5315 0.2644 0.1267 Uiso
Zr6_12 Zr 0.7185 0.4856 0.2185 0.1267 Uiso
O29_12 O 0.758 0.492 0.2116 0.1267 Uiso
O30_12 O 0.758 0.5384 0.258 0.1267 Uiso
O31_12 O 0.7116 0.492 0.258 0.1267 Uiso
N8_16 N 0.9398 0.3862 0.2922 0.1267 Uiso
H7_20 H 0.760814 0.430527 0.359721 . .
H8_20 H 0.859721 0.430527 0.260814 . .
H11_20 H 0.819473 0.489186 0.359721 . .
H20_20 H 0.760814 0.390279 0.319473 . .
H23_20 H 0.819473 0.390279 0.260814 . .
H26_20 H 0.859721 0.489186 0.319473 . .
H13_14 H 0.428866 0.321134 0.001459 . .
H24_10 H 0.313725 0.215992 0.0021188 . .
H13_15 H 0.001459 0.928866 0.821134 . .
O1_21 O 0.5639 0.1048 0.6452 0.1267 Uiso
O2_21 O 0.5164 0.0661 0.6839 0.1267 Uiso
O4_21 O 0.5109 0.1004 0.6496 0.1267 Uiso
O5_21 O 0.5064 0.0376 0.5662 0.1267 Uiso
O6_21 O 0.4655 0.0639 0.5171 0.1267 Uiso
O7_21 O 0.5243 0.0243 0.5243 0.1267 Uiso
N1_21 N 0.5422 0.0602 0.6362 0.1267 Uiso
C1_21 C 0.5272 0.0573 0.615 0.1267 Uiso
C2_21 C 0.5362 0.0362 0.6011 0.1267 Uiso
C3_21 C 0.5259 0.0259 0.5764 0.1267 Uiso
O9_21 O 0.5376 0.0064 0.5662 0.1267 Uiso
N2_13 N 0.5602 0.0422 0.6362 0.1267 Uiso
C4_21 C 0.5573 0.0272 0.615 0.1267 Uiso
O10_21 O 0.6048 0.1452 0.5639 0.1267 Uiso
O11_21 O 0.5661 0.1839 0.5164 0.1267 Uiso
O12_21 O 0.6004 0.1496 0.5109 0.1267 Uiso
O13_21 O 0.5376 0.0662 0.5064 0.1267 Uiso
O14_21 O 0.5639 0.0171 0.4655 0.1267 Uiso
N3_21 N 0.5602 0.1362 0.5422 0.1267 Uiso
C5_21 C 0.5573 0.115 0.5272 0.1267 Uiso
C6_21 C 0.5362 0.1011 0.5362 0.1267 Uiso
C7_21 C 0.5259 0.0764 0.5259 0.1267 Uiso
O16_21 O 0.5064 0.0662 0.5376 0.1267 Uiso
C8_21 C 0.5272 0.115 0.5573 0.1267 Uiso
O17_21 O 0.6452 0.0639 0.6048 0.1267 Uiso
O18_21 O 0.6839 0.0164 0.5661 0.1267 Uiso
O19_21 O 0.6496 0.0109 0.6004 0.1267 Uiso
O20_21 O 0.5662 0.0064 0.5376 0.1267 Uiso
N5_21 N 0.6362 0.0422 0.5602 0.1267 Uiso
C9_21 C 0.615 0.0272 0.5573 0.1267 Uiso
C10_21 C 0.6011 0.0362 0.5362 0.1267 Uiso
C11_21 C 0.5764 0.0259 0.5259 0.1267 Uiso
O23_21 O 0.5662 0.0376 0.5064 0.1267 Uiso
C12_21 C 0.615 0.0573 0.5272 0.1267 Uiso
O24_21 O 0.4655 0.0171 0.5639 0.1267 Uiso
O25_21 O 0.5171 0.0639 0.4655 0.1267 Uiso
N7_13 N 0.6898 0.0422 0.6138 0.1267 Uiso
H7_21 H 0.569473 0.0108138 0.609721 . .
H8_21 H 0.569473 0.109721 0.510814 . .
H11_21 H 0.510814 0.0694728 0.609721 . .
H20_21 H 0.609721 0.0108138 0.569473 . .
H23_21 H 0.609721 0.0694728 0.510814 . .
H26_21 H 0.510814 0.109721 0.569473 . .
H31_6 H 0.630651 0.0110061 0.597149 . .
O21_21 O 0.5171 0.9655 0.5639 0.1267 Uiso
O26_21 O 0.5639 0.9655 0.5171 0.1267 Uiso
H5_6 H 0.563725 0.997881 0.465992 . .
H32_6 H 0.657343 0.995097 0.592657 . .
O1_22 O 0.1861 0.1452 0.1452 0.1267 Uiso
O2_22 O 0.2336 0.1839 0.1839 0.1267 Uiso
O4_22 O 0.2391 0.1496 0.1496 0.1267 Uiso
O5_22 O 0.2436 0.2124 0.0662 0.1267 Uiso
O6_22 O 0.2845 0.1861 0.0171 0.1267 Uiso
O7_22 O 0.2257 0.2257 0.0243 0.1267 Uiso
N1_22 N 0.2078 0.1898 0.1362 0.1267 Uiso
C1_22 C 0.2228 0.1927 0.115 0.1267 Uiso
C2_22 C 0.2138 0.2138 0.1011 0.1267 Uiso
C3_22 C 0.2241 0.2241 0.0764 0.1267 Uiso
O9_22 O 0.2124 0.2436 0.0662 0.1267 Uiso
N2_14 N 0.1898 0.2078 0.1362 0.1267 Uiso
C4_22 C 0.1927 0.2228 0.115 0.1267 Uiso
O10_22 O 0.1452 0.1048 0.0639 0.1267 Uiso
O11_22 O 0.1839 0.0661 0.0164 0.1267 Uiso
O12_22 O 0.1496 0.1004 0.0109 0.1267 Uiso
O13_22 O 0.2124 0.1838 0.0064 0.1267 Uiso
N3_22 N 0.1898 0.1138 0.0422 0.1267 Uiso
C5_22 C 0.1927 0.135 0.0272 0.1267 Uiso
C6_22 C 0.2138 0.1489 0.0362 0.1267 Uiso
C7_22 C 0.2241 0.1736 0.0259 0.1267 Uiso
O16_22 O 0.2436 0.1838 0.0376 0.1267 Uiso
C8_22 C 0.2228 0.135 0.0573 0.1267 Uiso
O17_22 O 0.1048 0.1861 0.1048 0.1267 Uiso
O18_22 O 0.0661 0.2336 0.0661 0.1267 Uiso
O19_22 O 0.1004 0.2391 0.1004 0.1267 Uiso
O20_22 O 0.1838 0.2436 0.0376 0.1267 Uiso
O21_22 O 0.2329 0.2845 0.0639 0.1267 Uiso
N5_22 N 0.1138 0.2078 0.0602 0.1267 Uiso
C9_22 C 0.135 0.2228 0.0573 0.1267 Uiso
C10_22 C 0.1489 0.2138 0.0362 0.1267 Uiso
C11_22 C 0.1736 0.2241 0.0259 0.1267 Uiso
O23_22 O 0.1838 0.2124 0.0064 0.1267 Uiso
C12_22 C 0.135 0.1927 0.0272 0.1267 Uiso
O24_22 O 0.2845 0.2329 0.0639 0.1267 Uiso
O26_22 O 0.1861 0.2845 0.0171 0.1267 Uiso
N7_14 N 0.0602 0.2078 0.1138 0.1267 Uiso
H1_6 H 0.152851 0.119349 0.0110061 . .
H7_22 H 0.180527 0.239186 0.109721 . .
H8_22 H 0.180527 0.140279 0.0108138 . .
H11_22 H 0.239186 0.180527 0.109721 . .
H20_22 H 0.140279 0.239186 0.0694728 . .
H23_22 H 0.140279 0.180527 0.0108138 . .
H26_22 H 0.239186 0.140279 0.0694728 . .
O14_22 O 0.1861 0.2329 0.9655 0.1267 Uiso
O25_22 O 0.2329 0.1861 0.9655 0.1267 Uiso
H2_6 H 0.157343 0.0926575 0.995097 . .
O1_23 O 0.0639 0.6452 0.6048 0.1267 Uiso
O2_23 O 0.0164 0.6839 0.5661 0.1267 Uiso
O4_23 O 0.0109 0.6496 0.6004 0.1267 Uiso
O5_23 O 0.0064 0.7124 0.6838 0.1267 Uiso
O7_23 O 0.0243 0.7257 0.7257 0.1267 Uiso
N1_23 N 0.0422 0.6898 0.6138 0.1267 Uiso
C1_23 C 0.0272 0.6927 0.635 0.1267 Uiso
C2_23 C 0.0362 0.7138 0.6489 0.1267 Uiso
C3_23 C 0.0259 0.7241 0.6736 0.1267 Uiso
O9_23 O 0.0376 0.7436 0.6838 0.1267 Uiso
N2_15 N 0.0602 0.7078 0.6138 0.1267 Uiso
C4_23 C 0.0573 0.7228 0.635 0.1267 Uiso
O10_23 O 0.1048 0.6048 0.6861 0.1267 Uiso
O11_23 O 0.0661 0.5661 0.7336 0.1267 Uiso
O12_23 O 0.1004 0.6004 0.7391 0.1267 Uiso
O13_23 O 0.0376 0.6838 0.7436 0.1267 Uiso
O14_23 O 0.0639 0.7329 0.7845 0.1267 Uiso
N3_23 N 0.0602 0.6138 0.7078 0.1267 Uiso
C5_23 C 0.0573 0.635 0.7228 0.1267 Uiso
C6_23 C 0.0362 0.6489 0.7138 0.1267 Uiso
C7_23 C 0.0259 0.6736 0.7241 0.1267 Uiso
O16_23 O 0.0064 0.6838 0.7124 0.1267 Uiso
C8_23 C 0.0272 0.635 0.6927 0.1267 Uiso
O17_23 O 0.1452 0.6861 0.6452 0.1267 Uiso
O18_23 O 0.1839 0.7336 0.6839 0.1267 Uiso
O19_23 O 0.1496 0.7391 0.6496 0.1267 Uiso
O20_23 O 0.0662 0.7436 0.7124 0.1267 Uiso
O21_23 O 0.0171 0.7845 0.6861 0.1267 Uiso
N5_23 N 0.1362 0.7078 0.6898 0.1267 Uiso
C9_23 C 0.115 0.7228 0.6927 0.1267 Uiso
C10_23 C 0.1011 0.7138 0.7138 0.1267 Uiso
C11_23 C 0.0764 0.7241 0.7241 0.1267 Uiso
O23_23 O 0.0662 0.7124 0.7436 0.1267 Uiso
C12_23 C 0.115 0.6927 0.7228 0.1267 Uiso
O25_23 O 0.0171 0.6861 0.7845 0.1267 Uiso
O26_23 O 0.0639 0.7845 0.7329 0.1267 Uiso
N7_15 N 0.1898 0.7078 0.6362 0.1267 Uiso
H7_23 H 0.0694728 0.739186 0.640279 . .
H8_23 H 0.0694728 0.640279 0.739186 . .
H9_6 H 0.0110061 0.652851 0.619349 . .
H11_23 H 0.0108138 0.680527 0.640279 . .
H20_23 H 0.109721 0.739186 0.680527 . .
H23_23 H 0.109721 0.680527 0.739186 . .
H26_23 H 0.0108138 0.640279 0.680527 . .
O6_23 O 0.9655 0.6861 0.7329 0.1267 Uiso
O24_23 O 0.9655 0.7329 0.6861 0.1267 Uiso
H10_6 H 0.995097 0.657343 0.592657 . .
H13_16 H 0.998541 0.678866 0.571134 . .
H24_11 H 0.997881 0.784008 0.686275 . .
O1_24 O 0.6861 0.6048 0.1048 0.1267 Uiso
O2_24 O 0.7336 0.5661 0.0661 0.1267 Uiso
O4_24 O 0.7391 0.6004 0.1004 0.1267 Uiso
O5_24 O 0.7436 0.5376 0.1838 0.1267 Uiso
O6_24 O 0.7845 0.5639 0.2329 0.1267 Uiso
O7_24 O 0.7257 0.5243 0.2257 0.1267 Uiso
N1_24 N 0.7078 0.5602 0.1138 0.1267 Uiso
C1_24 C 0.7228 0.5573 0.135 0.1267 Uiso
C2_24 C 0.7138 0.5362 0.1489 0.1267 Uiso
C3_24 C 0.7241 0.5259 0.1736 0.1267 Uiso
O9_24 O 0.7124 0.5064 0.1838 0.1267 Uiso
N2_16 N 0.6898 0.5422 0.1138 0.1267 Uiso
C4_24 C 0.6927 0.5272 0.135 0.1267 Uiso
O10_24 O 0.6452 0.6452 0.1861 0.1267 Uiso
O11_24 O 0.6839 0.6839 0.2336 0.1267 Uiso
O12_24 O 0.6496 0.6496 0.2391 0.1267 Uiso
O13_24 O 0.7124 0.5662 0.2436 0.1267 Uiso
O14_24 O 0.6861 0.5171 0.2845 0.1267 Uiso
N3_24 N 0.6898 0.6362 0.2078 0.1267 Uiso
C5_24 C 0.6927 0.615 0.2228 0.1267 Uiso
C6_24 C 0.7138 0.6011 0.2138 0.1267 Uiso
C7_24 C 0.7241 0.5764 0.2241 0.1267 Uiso
O16_24 O 0.7436 0.5662 0.2124 0.1267 Uiso
C8_24 C 0.7228 0.615 0.1927 0.1267 Uiso
O17_24 O 0.6048 0.5639 0.1452 0.1267 Uiso
O18_24 O 0.5661 0.5164 0.1839 0.1267 Uiso
O19_24 O 0.6004 0.5109 0.1496 0.1267 Uiso
O20_24 O 0.6838 0.5064 0.2124 0.1267 Uiso
O21_24 O 0.7329 0.4655 0.1861 0.1267 Uiso
N5_24 N 0.6138 0.5422 0.1898 0.1267 Uiso
C9_24 C 0.635 0.5272 0.1927 0.1267 Uiso
C10_24 C 0.6489 0.5362 0.2138 0.1267 Uiso
C11_24 C 0.6736 0.5259 0.2241 0.1267 Uiso
O23_24 O 0.6838 0.5376 0.2436 0.1267 Uiso
C12_24 C 0.635 0.5573 0.2228 0.1267 Uiso
O24_24 O 0.7845 0.5171 0.1861 0.1267 Uiso
O25_24 O 0.7329 0.5639 0.2845 0.1267 Uiso
O26_24 O 0.6861 0.4655 0.2329 0.1267 Uiso
N7_16 N 0.5602 0.5422 0.1362 0.1267 Uiso
H7_24 H 0.680527 0.510814 0.140279 . .
H8_24 H 0.680527 0.609721 0.239186 . .
H11_24 H 0.739186 0.569473 0.140279 . .
H20_24 H 0.640279 0.510814 0.180527 . .
H23_24 H 0.640279 0.569473 0.239186 . .
H26_24 H 0.739186 0.609721 0.180527 . .
H13_17 H 0.178866 0.0711344 0.998541 . .
H24_12 H 0.284008 0.186275 0.997881 . .
H13_18 H 0.678866 0.998541 0.571134 . .
Zr1_13 Zr 0.2815 0.7356 0.4685 0.1267 Uiso
O1_25 O 0.3548 0.8139 0.3548 0.1267 Uiso
O2_25 O 0.3161 0.7664 0.3161 0.1267 Uiso
O4_25 O 0.3504 0.7609 0.3504 0.1267 Uiso
O5_25 O 0.2876 0.7564 0.4338 0.1267 Uiso
O6_25 O 0.3139 0.7155 0.4829 0.1267 Uiso
O7_25 O 0.2743 0.7743 0.4757 0.1267 Uiso
O8_13 O 0.242 0.742 0.4616 0.1267 Uiso
N1_25 N 0.3102 0.7922 0.3638 0.1267 Uiso
C1_25 C 0.3073 0.7772 0.385 0.1267 Uiso
C2_25 C 0.2862 0.7862 0.3989 0.1267 Uiso
C3_25 C 0.2759 0.7759 0.4236 0.1267 Uiso
O9_25 O 0.2564 0.7876 0.4338 0.1267 Uiso
C4_25 C 0.2772 0.8073 0.385 0.1267 Uiso
Zr2_13 Zr 0.2815 0.7815 0.5144 0.1267 Uiso
O10_25 O 0.3952 0.8548 0.4361 0.1267 Uiso
O11_25 O 0.4339 0.8161 0.4836 0.1267 Uiso
O12_25 O 0.3996 0.8504 0.4891 0.1267 Uiso
O13_25 O 0.3162 0.7876 0.4936 0.1267 Uiso
O14_25 O 0.2671 0.8139 0.5345 0.1267 Uiso
O15_13 O 0.2884 0.742 0.508 0.1267 Uiso
N3_25 N 0.3862 0.8102 0.4578 0.1267 Uiso
C5_25 C 0.365 0.8073 0.4728 0.1267 Uiso
C6_25 C 0.3511 0.7862 0.4638 0.1267 Uiso
C7_25 C 0.3264 0.7759 0.4741 0.1267 Uiso
O16_25 O 0.3162 0.7564 0.4624 0.1267 Uiso
C8_25 C 0.365 0.7772 0.4427 0.1267 Uiso
Zr3_13 Zr 0.2356 0.7815 0.4685 0.1267 Uiso
O17_25 O 0.3139 0.8952 0.3952 0.1267 Uiso
O18_25 O 0.2664 0.9339 0.4339 0.1267 Uiso
O19_25 O 0.2609 0.8996 0.3996 0.1267 Uiso
O20_25 O 0.2564 0.8162 0.4624 0.1267 Uiso
O21_25 O 0.2155 0.7671 0.4361 0.1267 Uiso
O22_13 O 0.242 0.7884 0.508 0.1267 Uiso
N5_25 N 0.2922 0.8862 0.4398 0.1267 Uiso
C9_25 C 0.2772 0.865 0.4427 0.1267 Uiso
C10_25 C 0.2862 0.8511 0.4638 0.1267 Uiso
C11_25 C 0.2759 0.8264 0.4741 0.1267 Uiso
O23_25 O 0.2876 0.8162 0.4936 0.1267 Uiso
C12_25 C 0.3073 0.865 0.4728 0.1267 Uiso
O24_25 O 0.2671 0.7155 0.4361 0.1267 Uiso
O25_25 O 0.3139 0.7671 0.5345 0.1267 Uiso
O26_25 O 0.2155 0.8139 0.4829 0.1267 Uiso
Zr4_13 Zr 0.2644 0.7185 0.5315 0.1267 Uiso
Zr5_13 Zr 0.2185 0.7185 0.4856 0.1267 Uiso
Zr6_13 Zr 0.2185 0.7644 0.5315 0.1267 Uiso
O29_13 O 0.258 0.758 0.5384 0.1267 Uiso
O30_13 O 0.258 0.7116 0.492 0.1267 Uiso
O31_13 O 0.2116 0.758 0.492 0.1267 Uiso
H7_25 H 0.260814 0.819473 0.390279 . .
H8_25 H 0.359721 0.819473 0.489186 . .
H11_25 H 0.319473 0.760814 0.390279 . .
H20_25 H 0.260814 0.859721 0.430527 . .
H23_25 H 0.319473 0.859721 0.489186 . .
H26_25 H 0.359721 0.760814 0.430527 . .
Zr2_14 Zr 0.4685 0.4685 0.0144 0.1267 Uiso
O14_26 O 0.4829 0.4361 0.0345 0.1267 Uiso
O15_14 O 0.4616 0.508 0.008 0.1267 Uiso
O22_14 O 0.508 0.4616 0.008 0.1267 Uiso
O25_26 O 0.4361 0.4829 0.0345 0.1267 Uiso
Zr4_14 Zr 0.4856 0.5315 0.0315 0.1267 Uiso
Zr6_14 Zr 0.5315 0.4856 0.0315 0.1267 Uiso
O29_14 O 0.492 0.492 0.0384 0.1267 Uiso
H2_7 H 0.342657 0.407343 0.00490322 . .
Zr1_14 Zr 0.4685 0.5144 0.9685 0.1267 Uiso
O1_26 O 0.3952 0.4361 0.8548 0.1267 Uiso
O2_26 O 0.4339 0.4836 0.8161 0.1267 Uiso
O4_26 O 0.3996 0.4891 0.8504 0.1267 Uiso
O5_26 O 0.4624 0.4936 0.9338 0.1267 Uiso
O6_26 O 0.4361 0.5345 0.9829 0.1267 Uiso
O7_26 O 0.4757 0.4757 0.9757 0.1267 Uiso
O8_14 O 0.508 0.508 0.9616 0.1267 Uiso
N1_26 N 0.4398 0.4578 0.8638 0.1267 Uiso
C1_26 C 0.4427 0.4728 0.885 0.1267 Uiso
C2_26 C 0.4638 0.4638 0.8989 0.1267 Uiso
C3_26 C 0.4741 0.4741 0.9236 0.1267 Uiso
O9_26 O 0.4936 0.4624 0.9338 0.1267 Uiso
C4_26 C 0.4728 0.4427 0.885 0.1267 Uiso
O10_26 O 0.3548 0.3952 0.9361 0.1267 Uiso
O11_26 O 0.3161 0.4339 0.9836 0.1267 Uiso
O12_26 O 0.3504 0.3996 0.9891 0.1267 Uiso
O13_26 O 0.4338 0.4624 0.9936 0.1267 Uiso
N3_26 N 0.3638 0.4398 0.9578 0.1267 Uiso
C5_26 C 0.385 0.4427 0.9728 0.1267 Uiso
C6_26 C 0.3989 0.4638 0.9638 0.1267 Uiso
C7_26 C 0.4236 0.4741 0.9741 0.1267 Uiso
O16_26 O 0.4338 0.4936 0.9624 0.1267 Uiso
C8_26 C 0.385 0.4728 0.9427 0.1267 Uiso
Zr3_14 Zr 0.5144 0.4685 0.9685 0.1267 Uiso
O17_26 O 0.4361 0.3548 0.8952 0.1267 Uiso
O18_26 O 0.4836 0.3161 0.9339 0.1267 Uiso
O19_26 O 0.4891 0.3504 0.8996 0.1267 Uiso
O20_26 O 0.4936 0.4338 0.9624 0.1267 Uiso
O21_26 O 0.5345 0.4829 0.9361 0.1267 Uiso
N5_26 N 0.4578 0.3638 0.9398 0.1267 Uiso
C9_26 C 0.4728 0.385 0.9427 0.1267 Uiso
C10_26 C 0.4638 0.3989 0.9638 0.1267 Uiso
C11_26 C 0.4741 0.4236 0.9741 0.1267 Uiso
O23_26 O 0.4624 0.4338 0.9936 0.1267 Uiso
C12_26 C 0.4427 0.385 0.9728 0.1267 Uiso
O24_26 O 0.4829 0.5345 0.9361 0.1267 Uiso
O26_26 O 0.5345 0.4361 0.9829 0.1267 Uiso
Zr5_14 Zr 0.5315 0.5315 0.9856 0.1267 Uiso
O30_14 O 0.492 0.5384 0.992 0.1267 Uiso
O31_14 O 0.5384 0.492 0.992 0.1267 Uiso
H1_7 H 0.369349 0.402851 0.988994 . .
H7_26 H 0.489186 0.430527 0.890279 . .
H8_26 H 0.390279 0.430527 0.989186 . .
H11_26 H 0.430527 0.489186 0.890279 . .
H20_26 H 0.489186 0.390279 0.930527 . .
H23_26 H 0.430527 0.390279 0.989186 . .
H26_26 H 0.390279 0.489186 0.930527 . .
O8_15 O 0.008 0.242 0.2884 0.1267 Uiso
Zr3_15 Zr 0.0144 0.2815 0.2815 0.1267 Uiso
O21_27 O 0.0345 0.2671 0.3139 0.1267 Uiso
O22_15 O 0.008 0.2884 0.242 0.1267 Uiso
O26_27 O 0.0345 0.3139 0.2671 0.1267 Uiso
Zr5_15 Zr 0.0315 0.2185 0.2644 0.1267 Uiso
Zr6_15 Zr 0.0315 0.2644 0.2185 0.1267 Uiso
O31_15 O 0.0384 0.258 0.258 0.1267 Uiso
H5_7 H 0.0021188 0.313725 0.215992 . .
H32_7 H 0.00490322 0.407343 0.342657 . .
Zr1_15 Zr 0.9685 0.2356 0.2815 0.1267 Uiso
O1_27 O 0.8952 0.3139 0.3952 0.1267 Uiso
O2_27 O 0.9339 0.2664 0.4339 0.1267 Uiso
O4_27 O 0.8996 0.2609 0.3996 0.1267 Uiso
O5_27 O 0.9624 0.2564 0.3162 0.1267 Uiso
O6_27 O 0.9361 0.2155 0.2671 0.1267 Uiso
O7_27 O 0.9757 0.2743 0.2743 0.1267 Uiso
N1_27 N 0.9398 0.2922 0.3862 0.1267 Uiso
C1_27 C 0.9427 0.2772 0.365 0.1267 Uiso
C2_27 C 0.9638 0.2862 0.3511 0.1267 Uiso
C3_27 C 0.9741 0.2759 0.3264 0.1267 Uiso
O9_27 O 0.9936 0.2876 0.3162 0.1267 Uiso
C4_27 C 0.9728 0.3073 0.365 0.1267 Uiso
Zr2_15 Zr 0.9685 0.2815 0.2356 0.1267 Uiso
O10_27 O 0.8548 0.3548 0.3139 0.1267 Uiso
O11_27 O 0.8161 0.3161 0.2664 0.1267 Uiso
O12_27 O 0.8504 0.3504 0.2609 0.1267 Uiso
O13_27 O 0.9338 0.2876 0.2564 0.1267 Uiso
O14_27 O 0.9829 0.3139 0.2155 0.1267 Uiso
O15_15 O 0.9616 0.242 0.242 0.1267 Uiso
N3_27 N 0.8638 0.3102 0.2922 0.1267 Uiso
C5_27 C 0.885 0.3073 0.2772 0.1267 Uiso
C6_27 C 0.8989 0.2862 0.2862 0.1267 Uiso
C7_27 C 0.9236 0.2759 0.2759 0.1267 Uiso
O16_27 O 0.9338 0.2564 0.2876 0.1267 Uiso
C8_27 C 0.885 0.2772 0.3073 0.1267 Uiso
O17_27 O 0.9361 0.3952 0.3548 0.1267 Uiso
O18_27 O 0.9836 0.4339 0.3161 0.1267 Uiso
O19_27 O 0.9891 0.3996 0.3504 0.1267 Uiso
O20_27 O 0.9936 0.3162 0.2876 0.1267 Uiso
N5_27 N 0.9578 0.3862 0.3102 0.1267 Uiso
C9_27 C 0.9728 0.365 0.3073 0.1267 Uiso
C10_27 C 0.9638 0.3511 0.2862 0.1267 Uiso
C11_27 C 0.9741 0.3264 0.2759 0.1267 Uiso
O23_27 O 0.9624 0.3162 0.2564 0.1267 Uiso
C12_27 C 0.9427 0.365 0.2772 0.1267 Uiso
O24_27 O 0.9829 0.2155 0.3139 0.1267 Uiso
O25_27 O 0.9361 0.2671 0.2155 0.1267 Uiso
Zr4_15 Zr 0.9856 0.2185 0.2185 0.1267 Uiso
O29_15 O 0.992 0.258 0.2116 0.1267 Uiso
O30_15 O 0.992 0.2116 0.258 0.1267 Uiso
H7_27 H 0.989186 0.319473 0.359721 . .
H8_27 H 0.890279 0.319473 0.260814 . .
H11_27 H 0.930527 0.260814 0.359721 . .
H20_27 H 0.989186 0.359721 0.319473 . .
H23_27 H 0.930527 0.359721 0.260814 . .
H26_27 H 0.890279 0.260814 0.319473 . .
H31_7 H 0.988994 0.380651 0.347149 . .
Zr1_16 Zr 0.7815 0.0144 0.7815 0.1267 Uiso
O6_28 O 0.8139 0.0345 0.7671 0.1267 Uiso
O8_16 O 0.742 0.008 0.7884 0.1267 Uiso
O15_16 O 0.7884 0.008 0.742 0.1267 Uiso
O24_28 O 0.7671 0.0345 0.8139 0.1267 Uiso
Zr4_16 Zr 0.7644 0.0315 0.7185 0.1267 Uiso
Zr5_16 Zr 0.7185 0.0315 0.7644 0.1267 Uiso
O30_16 O 0.758 0.0384 0.758 0.1267 Uiso
H10_7 H 0.842657 0.00490322 0.907343 . .
H13_19 H 0.821134 0.001459 0.928866 . .
H24_13 H 0.715992 0.0021188 0.813725 . .
O1_28 O 0.8548 0.9361 0.8952 0.1267 Uiso
O2_28 O 0.8161 0.9836 0.9339 0.1267 Uiso
O4_28 O 0.8504 0.9891 0.8996 0.1267 Uiso
O5_28 O 0.7876 0.9936 0.8162 0.1267 Uiso
O7_28 O 0.7743 0.9757 0.7743 0.1267 Uiso
N1_28 N 0.8102 0.9578 0.8862 0.1267 Uiso
C1_28 C 0.8073 0.9728 0.865 0.1267 Uiso
C2_28 C 0.7862 0.9638 0.8511 0.1267 Uiso
C3_28 C 0.7759 0.9741 0.8264 0.1267 Uiso
O9_28 O 0.7564 0.9624 0.8162 0.1267 Uiso
C4_28 C 0.7772 0.9427 0.865 0.1267 Uiso
Zr2_16 Zr 0.7815 0.9685 0.7356 0.1267 Uiso
O10_28 O 0.8952 0.8952 0.8139 0.1267 Uiso
O11_28 O 0.9339 0.9339 0.7664 0.1267 Uiso
O12_28 O 0.8996 0.8996 0.7609 0.1267 Uiso
O13_28 O 0.8162 0.9624 0.7564 0.1267 Uiso
O14_28 O 0.7671 0.9361 0.7155 0.1267 Uiso
N3_28 N 0.8862 0.9398 0.7922 0.1267 Uiso
C5_28 C 0.865 0.9427 0.7772 0.1267 Uiso
C6_28 C 0.8511 0.9638 0.7862 0.1267 Uiso
C7_28 C 0.8264 0.9741 0.7759 0.1267 Uiso
O16_28 O 0.8162 0.9936 0.7876 0.1267 Uiso
C8_28 C 0.865 0.9728 0.8073 0.1267 Uiso
Zr3_16 Zr 0.7356 0.9685 0.7815 0.1267 Uiso
O17_28 O 0.8139 0.8548 0.8548 0.1267 Uiso
O18_28 O 0.7664 0.8161 0.8161 0.1267 Uiso
O19_28 O 0.7609 0.8504 0.8504 0.1267 Uiso
O20_28 O 0.7564 0.9338 0.7876 0.1267 Uiso
O21_28 O 0.7155 0.9829 0.8139 0.1267 Uiso
O22_16 O 0.742 0.9616 0.742 0.1267 Uiso
N5_28 N 0.7922 0.8638 0.8102 0.1267 Uiso
C9_28 C 0.7772 0.885 0.8073 0.1267 Uiso
C10_28 C 0.7862 0.8989 0.7862 0.1267 Uiso
C11_28 C 0.7759 0.9236 0.7759 0.1267 Uiso
O23_28 O 0.7876 0.9338 0.7564 0.1267 Uiso
C12_28 C 0.8073 0.885 0.7772 0.1267 Uiso
O25_28 O 0.8139 0.9829 0.7155 0.1267 Uiso
O26_28 O 0.7155 0.9361 0.7671 0.1267 Uiso
Zr6_16 Zr 0.7185 0.9856 0.7185 0.1267 Uiso
O29_16 O 0.758 0.992 0.7116 0.1267 Uiso
O31_16 O 0.7116 0.992 0.758 0.1267 Uiso
H7_28 H 0.760814 0.930527 0.859721 . .
H8_28 H 0.859721 0.930527 0.760814 . .
H9_7 H 0.847149 0.988994 0.880651 . .
H11_28 H 0.819473 0.989186 0.859721 . .
H20_28 H 0.760814 0.890279 0.819473 . .
H23_28 H 0.819473 0.890279 0.760814 . .
H26_28 H 0.859721 0.989186 0.819473 . .
H13_20 H 0.321134 0.428866 0.001459 . .
H24_14 H 0.436275 0.534008 0.0021188 . .
H13_21 H 0.001459 0.428866 0.321134 . .
O1_29 O 0.5639 0.6048 0.1452 0.1267 Uiso
O2_29 O 0.5164 0.5661 0.1839 0.1267 Uiso
O4_29 O 0.5109 0.6004 0.1496 0.1267 Uiso
O5_29 O 0.5064 0.5376 0.0662 0.1267 Uiso
O6_29 O 0.4655 0.5639 0.0171 0.1267 Uiso
O7_29 O 0.5243 0.5243 0.0243 0.1267 Uiso
N1_29 N 0.5422 0.5602 0.1362 0.1267 Uiso
C1_29 C 0.5272 0.5573 0.115 0.1267 Uiso
C2_29 C 0.5362 0.5362 0.1011 0.1267 Uiso
C3_29 C 0.5259 0.5259 0.0764 0.1267 Uiso
O9_29 O 0.5376 0.5064 0.0662 0.1267 Uiso
C4_29 C 0.5573 0.5272 0.115 0.1267 Uiso
O10_29 O 0.6048 0.6452 0.0639 0.1267 Uiso
O11_29 O 0.5661 0.6839 0.0164 0.1267 Uiso
O12_29 O 0.6004 0.6496 0.0109 0.1267 Uiso
O13_29 O 0.5376 0.5662 0.0064 0.1267 Uiso
N3_29 N 0.5602 0.6362 0.0422 0.1267 Uiso
C5_29 C 0.5573 0.615 0.0272 0.1267 Uiso
C6_29 C 0.5362 0.6011 0.0362 0.1267 Uiso
C7_29 C 0.5259 0.5764 0.0259 0.1267 Uiso
O16_29 O 0.5064 0.5662 0.0376 0.1267 Uiso
C8_29 C 0.5272 0.615 0.0573 0.1267 Uiso
O17_29 O 0.6452 0.5639 0.1048 0.1267 Uiso
O18_29 O 0.6839 0.5164 0.0661 0.1267 Uiso
O19_29 O 0.6496 0.5109 0.1004 0.1267 Uiso
O20_29 O 0.5662 0.5064 0.0376 0.1267 Uiso
O21_29 O 0.5171 0.4655 0.0639 0.1267 Uiso
N5_29 N 0.6362 0.5422 0.0602 0.1267 Uiso
C9_29 C 0.615 0.5272 0.0573 0.1267 Uiso
C10_29 C 0.6011 0.5362 0.0362 0.1267 Uiso
C11_29 C 0.5764 0.5259 0.0259 0.1267 Uiso
O23_29 O 0.5662 0.5376 0.0064 0.1267 Uiso
C12_29 C 0.615 0.5573 0.0272 0.1267 Uiso
O24_29 O 0.4655 0.5171 0.0639 0.1267 Uiso
O26_29 O 0.5639 0.4655 0.0171 0.1267 Uiso
H1_8 H 0.597149 0.630651 0.0110061 . .
H7_29 H 0.569473 0.510814 0.109721 . .
H8_29 H 0.569473 0.609721 0.0108138 . .
H11_29 H 0.510814 0.569473 0.109721 . .
H20_29 H 0.609721 0.510814 0.0694728 . .
H23_29 H 0.609721 0.569473 0.0108138 . .
H26_29 H 0.510814 0.609721 0.0694728 . .
O14_29 O 0.5639 0.5171 0.9655 0.1267 Uiso
O25_29 O 0.5171 0.5639 0.9655 0.1267 Uiso
H2_8 H 0.592657 0.657343 0.995097 . .
O1_30 O 0.1861 0.6452 0.6452 0.1267 Uiso
O2_30 O 0.2336 0.6839 0.6839 0.1267 Uiso
O4_30 O 0.2391 0.6496 0.6496 0.1267 Uiso
O5_30 O 0.2436 0.7124 0.5662 0.1267 Uiso
O6_30 O 0.2845 0.6861 0.5171 0.1267 Uiso
O7_30 O 0.2257 0.7257 0.5243 0.1267 Uiso
N1_30 N 0.2078 0.6898 0.6362 0.1267 Uiso
C1_30 C 0.2228 0.6927 0.615 0.1267 Uiso
C2_30 C 0.2138 0.7138 0.6011 0.1267 Uiso
C3_30 C 0.2241 0.7241 0.5764 0.1267 Uiso
O9_30 O 0.2124 0.7436 0.5662 0.1267 Uiso
C4_30 C 0.1927 0.7228 0.615 0.1267 Uiso
O10_30 O 0.1452 0.6048 0.5639 0.1267 Uiso
O11_30 O 0.1839 0.5661 0.5164 0.1267 Uiso
O12_30 O 0.1496 0.6004 0.5109 0.1267 Uiso
O13_30 O 0.2124 0.6838 0.5064 0.1267 Uiso
O14_30 O 0.1861 0.7329 0.4655 0.1267 Uiso
N3_30 N 0.1898 0.6138 0.5422 0.1267 Uiso
C5_30 C 0.1927 0.635 0.5272 0.1267 Uiso
C6_30 C 0.2138 0.6489 0.5362 0.1267 Uiso
C7_30 C 0.2241 0.6736 0.5259 0.1267 Uiso
O16_30 O 0.2436 0.6838 0.5376 0.1267 Uiso
C8_30 C 0.2228 0.635 0.5573 0.1267 Uiso
O17_30 O 0.1048 0.6861 0.6048 0.1267 Uiso
O18_30 O 0.0661 0.7336 0.5661 0.1267 Uiso
O19_30 O 0.1004 0.7391 0.6004 0.1267 Uiso
O20_30 O 0.1838 0.7436 0.5376 0.1267 Uiso
O21_30 O 0.2329 0.7845 0.5639 0.1267 Uiso
N5_30 N 0.1138 0.7078 0.5602 0.1267 Uiso
C9_30 C 0.135 0.7228 0.5573 0.1267 Uiso
C10_30 C 0.1489 0.7138 0.5362 0.1267 Uiso
C11_30 C 0.1736 0.7241 0.5259 0.1267 Uiso
O23_30 O 0.1838 0.7124 0.5064 0.1267 Uiso
C12_30 C 0.135 0.6927 0.5272 0.1267 Uiso
O24_30 O 0.2845 0.7329 0.5639 0.1267 Uiso
O25_30 O 0.2329 0.6861 0.4655 0.1267 Uiso
O26_30 O 0.1861 0.7845 0.5171 0.1267 Uiso
H7_30 H 0.180527 0.739186 0.609721 . .
H8_30 H 0.180527 0.640279 0.510814 . .
H11_30 H 0.239186 0.680527 0.609721 . .
H20_30 H 0.140279 0.739186 0.569473 . .
H23_30 H 0.140279 0.680527 0.510814 . .
H26_30 H 0.239186 0.640279 0.569473 . .
O1_31 O 0.0639 0.1452 0.1048 0.1267 Uiso
O2_31 O 0.0164 0.1839 0.0661 0.1267 Uiso
O4_31 O 0.0109 0.1496 0.1004 0.1267 Uiso
O5_31 O 0.0064 0.2124 0.1838 0.1267 Uiso
O7_31 O 0.0243 0.2257 0.2257 0.1267 Uiso
N1_31 N 0.0422 0.1898 0.1138 0.1267 Uiso
C1_31 C 0.0272 0.1927 0.135 0.1267 Uiso
C2_31 C 0.0362 0.2138 0.1489 0.1267 Uiso
C3_31 C 0.0259 0.2241 0.1736 0.1267 Uiso
O9_31 O 0.0376 0.2436 0.1838 0.1267 Uiso
C4_31 C 0.0573 0.2228 0.135 0.1267 Uiso
O10_31 O 0.1048 0.1048 0.1861 0.1267 Uiso
O11_31 O 0.0661 0.0661 0.2336 0.1267 Uiso
O12_31 O 0.1004 0.1004 0.2391 0.1267 Uiso
O13_31 O 0.0376 0.1838 0.2436 0.1267 Uiso
O14_31 O 0.0639 0.2329 0.2845 0.1267 Uiso
N3_31 N 0.0602 0.1138 0.2078 0.1267 Uiso
C5_31 C 0.0573 0.135 0.2228 0.1267 Uiso
C6_31 C 0.0362 0.1489 0.2138 0.1267 Uiso
C7_31 C 0.0259 0.1736 0.2241 0.1267 Uiso
O16_31 O 0.0064 0.1838 0.2124 0.1267 Uiso
C8_31 C 0.0272 0.135 0.1927 0.1267 Uiso
O17_31 O 0.1452 0.1861 0.1452 0.1267 Uiso
O18_31 O 0.1839 0.2336 0.1839 0.1267 Uiso
O19_31 O 0.1496 0.2391 0.1496 0.1267 Uiso
O20_31 O 0.0662 0.2436 0.2124 0.1267 Uiso
O21_31 O 0.0171 0.2845 0.1861 0.1267 Uiso
N5_31 N 0.1362 0.2078 0.1898 0.1267 Uiso
C9_31 C 0.115 0.2228 0.1927 0.1267 Uiso
C10_31 C 0.1011 0.2138 0.2138 0.1267 Uiso
C11_31 C 0.0764 0.2241 0.2241 0.1267 Uiso
O23_31 O 0.0662 0.2124 0.2436 0.1267 Uiso
C12_31 C 0.115 0.1927 0.2228 0.1267 Uiso
O25_31 O 0.0171 0.1861 0.2845 0.1267 Uiso
O26_31 O 0.0639 0.2845 0.2329 0.1267 Uiso
H7_31 H 0.0694728 0.239186 0.140279 . .
H8_31 H 0.0694728 0.140279 0.239186 . .
H9_8 H 0.0110061 0.152851 0.119349 . .
H11_31 H 0.0108138 0.180527 0.140279 . .
H20_31 H 0.109721 0.239186 0.180527 . .
H23_31 H 0.109721 0.180527 0.239186 . .
H26_31 H 0.0108138 0.140279 0.180527 . .
O6_31 O 0.9655 0.1861 0.2329 0.1267 Uiso
O24_31 O 0.9655 0.2329 0.1861 0.1267 Uiso
H10_8 H 0.995097 0.157343 0.0926575 . .
H13_22 H 0.998541 0.178866 0.0711344 . .
H24_15 H 0.997881 0.284008 0.186275 . .
O1_32 O 0.6861 0.1048 0.6048 0.1267 Uiso
O2_32 O 0.7336 0.0661 0.5661 0.1267 Uiso
O4_32 O 0.7391 0.1004 0.6004 0.1267 Uiso
O5_32 O 0.7436 0.0376 0.6838 0.1267 Uiso
O6_32 O 0.7845 0.0639 0.7329 0.1267 Uiso
O7_32 O 0.7257 0.0243 0.7257 0.1267 Uiso
N1_32 N 0.7078 0.0602 0.6138 0.1267 Uiso
C1_32 C 0.7228 0.0573 0.635 0.1267 Uiso
C2_32 C 0.7138 0.0362 0.6489 0.1267 Uiso
C3_32 C 0.7241 0.0259 0.6736 0.1267 Uiso
O9_32 O 0.7124 0.0064 0.6838 0.1267 Uiso
C4_32 C 0.6927 0.0272 0.635 0.1267 Uiso
O10_32 O 0.6452 0.1452 0.6861 0.1267 Uiso
O11_32 O 0.6839 0.1839 0.7336 0.1267 Uiso
O12_32 O 0.6496 0.1496 0.7391 0.1267 Uiso
O13_32 O 0.7124 0.0662 0.7436 0.1267 Uiso
O14_32 O 0.6861 0.0171 0.7845 0.1267 Uiso
N3_32 N 0.6898 0.1362 0.7078 0.1267 Uiso
C5_32 C 0.6927 0.115 0.7228 0.1267 Uiso
C6_32 C 0.7138 0.1011 0.7138 0.1267 Uiso
C7_32 C 0.7241 0.0764 0.7241 0.1267 Uiso
O16_32 O 0.7436 0.0662 0.7124 0.1267 Uiso
C8_32 C 0.7228 0.115 0.6927 0.1267 Uiso
O17_32 O 0.6048 0.0639 0.6452 0.1267 Uiso
O18_32 O 0.5661 0.0164 0.6839 0.1267 Uiso
O19_32 O 0.6004 0.0109 0.6496 0.1267 Uiso
O20_32 O 0.6838 0.0064 0.7124 0.1267 Uiso
N5_32 N 0.6138 0.0422 0.6898 0.1267 Uiso
C9_32 C 0.635 0.0272 0.6927 0.1267 Uiso
C10_32 C 0.6489 0.0362 0.7138 0.1267 Uiso
C11_32 C 0.6736 0.0259 0.7241 0.1267 Uiso
O23_32 O 0.6838 0.0376 0.7436 0.1267 Uiso
C12_32 C 0.635 0.0573 0.7228 0.1267 Uiso
O24_32 O 0.7845 0.0171 0.6861 0.1267 Uiso
O25_32 O 0.7329 0.0639 0.7845 0.1267 Uiso
H7_32 H 0.680527 0.0108138 0.640279 . .
H8_32 H 0.680527 0.109721 0.739186 . .
H11_32 H 0.739186 0.0694728 0.640279 . .
H20_32 H 0.640279 0.0108138 0.680527 . .
H23_32 H 0.640279 0.0694728 0.739186 . .
H26_32 H 0.739186 0.109721 0.680527 . .
H31_8 H 0.619349 0.0110061 0.652851 . .
O21_32 O 0.7329 0.9655 0.6861 0.1267 Uiso
O26_32 O 0.6861 0.9655 0.7329 0.1267 Uiso
H5_8 H 0.686275 0.997881 0.784008 . .
H32_8 H 0.592657 0.995097 0.657343 . .
H13_23 H 0.571134 0.678866 0.998541 . .
H24_16 H 0.465992 0.563725 0.997881 . .
H13_24 H 0.571134 0.998541 0.678866 . .
H1_9 H 0.130651 0.0971485 0.0110061 . .
H9_9 H 0.0971485 0.0110061 0.130651 . .
H31_9 H 0.0110061 0.130651 0.0971485 . .
H5_9 H 0.997881 0.063725 0.965992 . .
H24_17 H 0.965992 0.997881 0.063725 . .
H24_18 H 0.063725 0.965992 0.997881 . .
H24_19 H 0.0021188 0.0340082 0.936275 . .
H5_10 H 0.936275 0.0021188 0.0340082 . .
H1_10 H 0.902851 0.869349 0.988994 . .
H9_10 H 0.988994 0.902851 0.869349 . .
H31_10 H 0.869349 0.988994 0.902851 . .
H24_20 H 0.0340082 0.936275 0.0021188 . .
H1_11 H 0.119349 0.152851 0.0110061 . .
H31_11 H 0.0110061 0.630651 0.597149 . .
H5_11 H 0.997881 0.563725 0.465992 . .
H9_11 H 0.652851 0.0110061 0.619349 . .
H24_21 H 0.784008 0.997881 0.686275 . .
H24_22 H 0.186275 0.284008 0.997881 . .
H24_23 H 0.0021188 0.534008 0.436275 . .
H9_12 H 0.988994 0.402851 0.369349 . .
H1_12 H 0.347149 0.380651 0.988994 . .
H5_12 H 0.813725 0.0021188 0.715992 . .
H31_12 H 0.880651 0.988994 0.847149 . .
H24_24 H 0.215992 0.313725 0.0021188 . .
H1_13 H 0.619349 0.652851 0.0110061 . .
H9_13 H 0.597149 0.0110061 0.630651 . .
H24_25 H 0.465992 0.997881 0.563725 . .
H31_13 H 0.0110061 0.119349 0.152851 . .
H5_13 H 0.997881 0.186275 0.284008 . .
H24_26 H 0.686275 0.784008 0.997881 . .
H5_14 H 0.436275 0.0021188 0.534008 . .
H31_14 H 0.369349 0.988994 0.402851 . .
H1_14 H 0.847149 0.880651 0.988994 . .
H24_27 H 0.0021188 0.215992 0.313725 . .
H9_14 H 0.988994 0.347149 0.380651 . .
H24_28 H 0.715992 0.813725 0.0021188 . .
H1_15 H 0.630651 0.597149 0.0110061 . .
H31_15 H 0.0110061 0.619349 0.652851 . .
H5_15 H 0.997881 0.686275 0.784008 . .
H9_15 H 0.152851 0.0110061 0.119349 . .
H24_29 H 0.284008 0.997881 0.186275 . .
H24_30 H 0.563725 0.465992 0.997881 . .
H1_16 H 0.402851 0.369349 0.988994 . .
H24_31 H 0.0021188 0.715992 0.813725 . .
H9_16 H 0.988994 0.847149 0.880651 . .
H5_16 H 0.313725 0.0021188 0.215992 . .
H31_16 H 0.380651 0.988994 0.347149 . .
H24_32 H 0.534008 0.436275 0.0021188 . .
loop_
_geom_bond_atom_site_label_1
_geom_bond_atom_site_label_2
_geom_bond_site_symmetry_1
_geom_bond_site_symmetry_2
Cu1 O1 1_555 1_555
Zr1 O5 1_555 1_555
O2 Cu1 1_555 1_555
O3 Cu1 1_555 1_555
O4 Cu1 1_555 1_555
O5 C3 1_555 1_555
O6 Zr1 1_555 1_555
O7 Zr1 1_555 1_555
O8 Zr1 1_555 1_555
N1 Cu1 1_555 1_555
C1 N1 1_555 1_555
C2 C1 1_555 1_555
C3 C2 1_555 1_555
O9 C3 1_555 1_555
N2 N1 1_555 1_555
C4 C2 1_555 1_555
Cu2 O10 1_555 1_555
Zr2 O7 1_555 1_555
O11 Cu2 1_555 1_555
O12 Cu2 1_555 1_555
O13 Zr2 1_555 1_555
O14 Zr2 1_555 1_555
O15 Zr1 1_555 1_555
N3 Cu2 1_555 1_555
C5 N3 1_555 1_555
C6 C5 1_555 1_555
C7 O13 1_555 1_555
O16 Zr1 1_555 1_555
N4 N3 1_555 1_555
C8 C6 1_555 1_555
Cu3 O17 1_555 1_555
Zr3 O7 1_555 1_555
O18 Cu3 1_555 1_555
O19 Cu3 1_555 1_555
O20 Zr3 1_555 1_555
O21 Zr3 1_555 1_555
O22 Zr2 1_555 1_555
N5 Cu3 1_555 1_555
C9 N5 1_555 1_555
C10 C9 1_555 1_555
C11 O20 1_555 1_555
O23 Zr2 1_555 1_555
N6 N5 1_555 1_555
C12 C10 1_555 1_555
O24 Zr1 1_555 1_555
O25 Zr2 1_555 1_555
O26 Zr3 1_555 1_555
Cu4 O3 1_555 1_555
Cu5 N6 1_555 1_555
Cu6 O3 1_555 1_555
Cu7 N4 1_555 1_555
Zr4 O15 1_555 1_555
Zr5 O8 1_555 1_555
Zr6 O22 1_555 1_555
O27 Cu2 1_555 1_555
O28 Cu3 1_555 1_555
O29 Zr2 1_555 1_555
O30 Zr1 1_555 1_555
O31 Zr3 1_555 1_555
N7 Cu3 1_555 1_555
N8 Cu2 1_555 1_555
N9 Cu1 1_555 1_555
O8 Zr3 1_555 1_555
O9 Zr3 1_555 1_555
N2 C4 1_555 1_555
N2 Cu6 1_555 1_555
Zr2 O15 1_555 1_555
C6 C7 1_555 1_555
C7 O16 1_555 1_555
N4 C8 1_555 1_555
Zr3 O22 1_555 1_555
C10 C11 1_555 1_555
C11 O23 1_555 1_555
N6 C12 1_555 1_555
Cu5 O28 1_555 1_555
Cu7 O27 1_555 1_555
Zr4 O29 1_555 1_555
Zr4 O30 1_555 1_555
Zr5 O30 1_555 1_555
Zr5 O31 1_555 1_555
Zr6 O29 1_555 1_555
Zr6 O31 1_555 1_555
C4 H7 1_555 1_555
C5 H8 1_555 1_555
C1 H11 1_555 1_555
C9 H20 1_555 1_555
C12 H23 1_555 1_555
C8 H26 1_555 1_555
Zr5_2 O8_2 1_555 1_555
Zr6_2 O22_2 1_555 1_555
O21_2 Zr3_2 1_555 1_555
O26_2 Zr3_2 1_555 1_555
O31_2 Zr3_2 1_555 1_555
Zr4_2 O15_2 1_555 1_555
O6_2 Zr1_2 1_555 1_555
O24_2 Zr1_2 1_555 1_555
O30_2 Zr1_2 1_555 1_555
O14_2 Zr2_2 1_555 1_555
O25_2 Zr2_2 1_555 1_555
O29_2 Zr2_2 1_555 1_555
Cu1_2 O1_2 1_555 1_555
O2_2 Cu1_2 1_555 1_555
O3_2 Cu1_2 1_555 1_555
O4_2 Cu1_2 1_555 1_555
O5_2 C3_2 1_555 1_555
N1_2 Cu1_2 1_555 1_555
C1_2 N1_2 1_555 1_555
C2_2 C1_2 1_555 1_555
C3_2 C2_2 1_555 1_555
O9_2 C3_2 1_555 1_555
N2_2 N1_2 1_555 1_555
C4_2 C2_2 1_555 1_555
Cu2_2 O10_2 1_555 1_555
O11_2 Cu2_2 1_555 1_555
O12_2 Cu2_2 1_555 1_555
N3_2 Cu2_2 1_555 1_555
C5_2 N3_2 1_555 1_555
C6_2 C5_2 1_555 1_555
C7_2 O13_2 1_555 1_555
N4_2 N3_2 1_555 1_555
C8_2 C6_2 1_555 1_555
Cu3_2 O17_2 1_555 1_555
O18_2 Cu3_2 1_555 1_555
O19_2 Cu3_2 1_555 1_555
N5_2 Cu3_2 1_555 1_555
C9_2 N5_2 1_555 1_555
C10_2 C9_2 1_555 1_555
C11_2 O20_2 1_555 1_555
N6_2 N5_2 1_555 1_555
C12_2 C10_2 1_555 1_555
Cu4_2 O3_2 1_555 1_555
Cu5_2 N6_2 1_555 1_555
Cu6_2 O3_2 1_555 1_555
Cu7_2 N4_2 1_555 1_555
O27_2 Cu2_2 1_555 1_555
O28_2 Cu3_2 1_555 1_555
N7_2 Cu3_2 1_555 1_555
N8_2 Cu2_2 1_555 1_555
N9_2 Cu1_2 1_555 1_555
N2_2 C4_2 1_555 1_555
N2_2 Cu6_2 1_555 1_555
C6_2 C7_2 1_555 1_555
C7_2 O16_2 1_555 1_555
N4_2 C8_2 1_555 1_555
C10_2 C11_2 1_555 1_555
C11_2 O23_2 1_555 1_555
N6_2 C12_2 1_555 1_555
Cu5_2 O28_2 1_555 1_555
Cu7_2 O27_2 1_555 1_555
O12_2 H1 1_555 1_555
C4_2 H7_2 1_555 1_555
C5_2 H8_2 1_555 1_555
O4_2 H9 1_555 1_555
C1_2 H11_2 1_555 1_555
C9_2 H20_2 1_555 1_555
C12_2 H23_2 1_555 1_555
C8_2 H26_2 1_555 1_555
O19_2 H31 1_555 1_555
Cu1_3 O1_3 1_555 1_555
Zr1_3 O5_3 1_555 1_555
O2_3 Cu1_3 1_555 1_555
O3_3 Cu1_3 1_555 1_555
O4_3 Cu1_3 1_555 1_555
O5_3 C3_3 1_555 1_555
O6_3 Zr1_3 1_555 1_555
O7_3 Zr1_3 1_555 1_555
O8_3 Zr1_3 1_555 1_555
N1_3 Cu1_3 1_555 1_555
C1_3 N1_3 1_555 1_555
C2_3 C1_3 1_555 1_555
C3_3 C2_3 1_555 1_555
O9_3 C3_3 1_555 1_555
N2_3 N1_3 1_555 1_555
C4_3 C2_3 1_555 1_555
Cu2_3 O10_3 1_555 1_555
Zr2_3 O7_3 1_555 1_555
O11_3 Cu2_3 1_555 1_555
O12_3 Cu2_3 1_555 1_555
O13_3 Zr2_3 1_555 1_555
O14_3 Zr2_3 1_555 1_555
O15_3 Zr1_3 1_555 1_555
N3_3 Cu2_3 1_555 1_555
C5_3 N3_3 1_555 1_555
C6_3 C5_3 1_555 1_555
C7_3 O13_3 1_555 1_555
O16_3 Zr1_3 1_555 1_555
N4_3 N3_3 1_555 1_555
C8_3 C6_3 1_555 1_555
Cu3_3 O17_3 1_555 1_555
Zr3_3 O7_3 1_555 1_555
O18_3 Cu3_3 1_555 1_555
O19_3 Cu3_3 1_555 1_555
O20_3 Zr3_3 1_555 1_555
O21_3 Zr3_3 1_555 1_555
O22_3 Zr2_3 1_555 1_555
N5_3 Cu3_3 1_555 1_555
C9_3 N5_3 1_555 1_555
C10_3 C9_3 1_555 1_555
C11_3 O20_3 1_555 1_555
O23_3 Zr2_3 1_555 1_555
N6_3 N5_3 1_555 1_555
C12_3 C10_3 1_555 1_555
O24_3 Zr1_3 1_555 1_555
O25_3 Zr2_3 1_555 1_555
O26_3 Zr3_3 1_555 1_555
Cu4_3 O3_3 1_555 1_555
Cu5_3 N6_3 1_555 1_555
Cu6_3 O3_3 1_555 1_555
Cu7_3 N4_3 1_555 1_555
Zr4_3 O15_3 1_555 1_555
Zr5_3 O8_3 1_555 1_555
Zr6_3 O22_3 1_555 1_555
O27_3 Cu2_3 1_555 1_555
O28_3 Cu3_3 1_555 1_555
O29_3 Zr2_3 1_555 1_555
O30_3 Zr1_3 1_555 1_555
O31_3 Zr3_3 1_555 1_555
N7_3 Cu3_3 1_555 1_555
N8_3 Cu2_3 1_555 1_555
N9_3 Cu1_3 1_555 1_555
O8_3 Zr3_3 1_555 1_555
O9_3 Zr3_3 1_555 1_555
N2_3 C4_3 1_555 1_555
N2_3 Cu6_3 1_555 1_555
Zr2_3 O15_3 1_555 1_555
C6_3 C7_3 1_555 1_555
C7_3 O16_3 1_555 1_555
N4_3 C8_3 1_555 1_555
Zr3_3 O22_3 1_555 1_555
C10_3 C11_3 1_555 1_555
C11_3 O23_3 1_555 1_555
N6_3 C12_3 1_555 1_555
Cu5_3 O28_3 1_555 1_555
Cu7_3 O27_3 1_555 1_555
Zr4_3 O29_3 1_555 1_555
Zr4_3 O30_3 1_555 1_555
Zr5_3 O30_3 1_555 1_555
Zr5_3 O31_3 1_555 1_555
Zr6_3 O29_3 1_555 1_555
Zr6_3 O31_3 1_555 1_555
C4_3 H7_3 1_555 1_555
C5_3 H8_3 1_555 1_555
C1_3 H11_3 1_555 1_555
C9_3 H20_3 1_555 1_555
C12_3 H23_3 1_555 1_555
C8_3 H26_3 1_555 1_555
Cu1_4 O1_4 1_555 1_555
Zr1_4 O5_4 1_555 1_555
O2_4 Cu1_4 1_555 1_555
O3_4 Cu1_4 1_555 1_555
O4_4 Cu1_4 1_555 1_555
O5_4 C3_4 1_555 1_555
O6_4 Zr1_4 1_555 1_555
O7_4 Zr1_4 1_555 1_555
O8_4 Zr1_4 1_555 1_555
N1_4 Cu1_4 1_555 1_555
C1_4 N1_4 1_555 1_555
C2_4 C1_4 1_555 1_555
C3_4 C2_4 1_555 1_555
O9_4 C3_4 1_555 1_555
N2_4 N1_4 1_555 1_555
C4_4 C2_4 1_555 1_555
Cu2_4 O10_4 1_555 1_555
Zr2_4 O7_4 1_555 1_555
O11_4 Cu2_4 1_555 1_555
O12_4 Cu2_4 1_555 1_555
O13_4 Zr2_4 1_555 1_555
O14_4 Zr2_4 1_555 1_555
O15_4 Zr1_4 1_555 1_555
N3_4 Cu2_4 1_555 1_555
C5_4 N3_4 1_555 1_555
C6_4 C5_4 1_555 1_555
C7_4 O13_4 1_555 1_555
O16_4 Zr1_4 1_555 1_555
N4_4 N3_4 1_555 1_555
C8_4 C6_4 1_555 1_555
Cu3_4 O17_4 1_555 1_555
Zr3_4 O7_4 1_555 1_555
O18_4 Cu3_4 1_555 1_555
O19_4 Cu3_4 1_555 1_555
O20_4 Zr3_4 1_555 1_555
O21_4 Zr3_4 1_555 1_555
O22_4 Zr2_4 1_555 1_555
N5_4 Cu3_4 1_555 1_555
C9_4 N5_4 1_555 1_555
C10_4 C9_4 1_555 1_555
C11_4 O20_4 1_555 1_555
O23_4 Zr2_4 1_555 1_555
N6_4 N5_4 1_555 1_555
C12_4 C10_4 1_555 1_555
O24_4 Zr1_4 1_555 1_555
O25_4 Zr2_4 1_555 1_555
O26_4 Zr3_4 1_555 1_555
Cu4_4 O3_4 1_555 1_555
Cu5_4 N6_4 1_555 1_555
Cu6_4 O3_4 1_555 1_555
Cu7_4 N4_4 1_555 1_555
Zr4_4 O15_4 1_555 1_555
Zr5_4 O8_4 1_555 1_555
Zr6_4 O22_4 1_555 1_555
O27_4 Cu2_4 1_555 1_555
O28_4 Cu3_4 1_555 1_555
O29_4 Zr2_4 1_555 1_555
O30_4 Zr1_4 1_555 1_555
O31_4 Zr3_4 1_555 1_555
N7_4 Cu3_4 1_555 1_555
N8_4 Cu2_4 1_555 1_555
N9_4 Cu1_4 1_555 1_555
O8_4 Zr3_4 1_555 1_555
O9_4 Zr3_4 1_555 1_555
N2_4 C4_4 1_555 1_555
N2_4 Cu6_4 1_555 1_555
Zr2_4 O15_4 1_555 1_555
C6_4 C7_4 1_555 1_555
C7_4 O16_4 1_555 1_555
N4_4 C8_4 1_555 1_555
Zr3_4 O22_4 1_555 1_555
C10_4 C11_4 1_555 1_555
C11_4 O23_4 1_555 1_555
N6_4 C12_4 1_555 1_555
Cu5_4 O28_4 1_555 1_555
Cu7_4 O27_4 1_555 1_555
Zr4_4 O29_4 1_555 1_555
Zr4_4 O30_4 1_555 1_555
Zr5_4 O30_4 1_555 1_555
Zr5_4 O31_4 1_555 1_555
Zr6_4 O29_4 1_555 1_555
Zr6_4 O31_4 1_555 1_555
C4_4 H7_4 1_555 1_555
C5_4 H8_4 1_555 1_555
C1_4 H11_4 1_555 1_555
C9_4 H20_4 1_555 1_555
C12_4 H23_4 1_555 1_555
C8_4 H26_4 1_555 1_555
Cu4_5 O27_3 1_555 1_555
Cu4_6 O27_2 1_555 1_555
Cu4_7 O27_4 1_555 1_555
Cu4_8 O27 1_555 1_555
Cu4_9 O28_4 1_555 1_555
Cu4_10 O28_2 1_555 1_555
Cu4_11 O28 1_555 1_555
Cu4_12 O28_3 1_555 1_555
Cu1_5 O1_5 1_555 1_555
O2_5 Cu1_5 1_555 1_555
O3_5 Cu1_5 1_555 1_555
O4_5 Cu1_5 1_555 1_555
O5_5 C3_5 1_555 1_555
N1_5 Cu1_5 1_555 1_555
C1_5 N1_5 1_555 1_555
C2_5 C1_5 1_555 1_555
C3_5 C2_5 1_555 1_555
O9_5 C3_5 1_555 1_555
N2_5 N1_5 1_555 1_555
C4_5 C2_5 1_555 1_555
Cu2_5 O10_5 1_555 1_555
O11_5 Cu2_5 1_555 1_555
O12_5 Cu2_5 1_555 1_555
N3_5 Cu2_5 1_555 1_555
C5_5 N3_5 1_555 1_555
C6_5 C5_5 1_555 1_555
C7_5 O13_5 1_555 1_555
N4_5 N3_5 1_555 1_555
C8_5 C6_5 1_555 1_555
Cu3_5 O17_5 1_555 1_555
O18_5 Cu3_5 1_555 1_555
O19_5 Cu3_5 1_555 1_555
N5_5 Cu3_5 1_555 1_555
C9_5 N5_5 1_555 1_555
C10_5 C9_5 1_555 1_555
C11_5 O20_5 1_555 1_555
N6_5 N5_5 1_555 1_555
C12_5 C10_5 1_555 1_555
Cu4_13 O3_5 1_555 1_555
Cu5_5 N6_5 1_555 1_555
Cu6_5 O3_5 1_555 1_555
Cu7_5 N4_5 1_555 1_555
O27_5 Cu2_5 1_555 1_555
O28_5 Cu3_5 1_555 1_555
N7_5 Cu3_5 1_555 1_555
N8_5 Cu2_5 1_555 1_555
N9_5 Cu1_5 1_555 1_555
N2_5 C4_5 1_555 1_555
N2_5 Cu6_5 1_555 1_555
C6_5 C7_5 1_555 1_555
C7_5 O16_5 1_555 1_555
N4_5 C8_5 1_555 1_555
C10_5 C11_5 1_555 1_555
C11_5 O23_5 1_555 1_555
N6_5 C12_5 1_555 1_555
Cu5_5 O28_5 1_555 1_555
Cu7_5 O27_5 1_555 1_555
O12_5 H1_2 1_555 1_555
C4_5 H7_5 1_555 1_555
C5_5 H8_5 1_555 1_555
O4_5 H9_2 1_555 1_555
C1_5 H11_5 1_555 1_555
C9_5 H20_5 1_555 1_555
C12_5 H23_5 1_555 1_555
C8_5 H26_5 1_555 1_555
O19_5 H31_2 1_555 1_555
O14_5 Zr5_2 1_555 1_555
O25_5 Zr5_2 1_555 1_555
O21_5 Zr6_2 1_555 1_555
O26_5 Zr6_2 1_555 1_555
O6_5 Zr4_2 1_555 1_555
O24_5 Zr4_2 1_555 1_555
Cu1_6 O1_6 1_555 1_555
Zr4 O5_6 1_555 1_555
O2_6 Cu1_6 1_555 1_555
O3_6 Cu1_6 1_555 1_555
O4_6 Cu1_6 1_555 1_555
O5_6 C3_6 1_555 1_555
O6_6 Zr4 1_555 1_555
O7_6 Zr4 1_555 1_555
N1_6 Cu1_6 1_555 1_555
C1_6 N1_6 1_555 1_555
C2_6 C1_6 1_555 1_555
C3_6 C2_6 1_555 1_555
O9_6 C3_6 1_555 1_555
N2_6 N1_6 1_555 1_555
C4_6 C2_6 1_555 1_555
Cu2_6 O10_6 1_555 1_555
Zr5 O7_6 1_555 1_555
O11_6 Cu2_6 1_555 1_555
O12_6 Cu2_6 1_555 1_555
O13_6 Zr5 1_555 1_555
O14_6 Zr5 1_555 1_555
N3_6 Cu2_6 1_555 1_555
C5_6 N3_6 1_555 1_555
C6_6 C5_6 1_555 1_555
C7_6 O13_6 1_555 1_555
O16_6 Zr4 1_555 1_555
N4_6 N3_6 1_555 1_555
C8_6 C6_6 1_555 1_555
Cu3_6 O17_6 1_555 1_555
Zr6 O7_6 1_555 1_555
O18_6 Cu3_6 1_555 1_555
O19_6 Cu3_6 1_555 1_555
O20_6 Zr6 1_555 1_555
O21_6 Zr6 1_555 1_555
N5_6 Cu3_6 1_555 1_555
C9_6 N5_6 1_555 1_555
C10_6 C9_6 1_555 1_555
C11_6 O20_6 1_555 1_555
O23_6 Zr5 1_555 1_555
N6_6 N5_6 1_555 1_555
C12_6 C10_6 1_555 1_555
O24_6 Zr4 1_555 1_555
O25_6 Zr5 1_555 1_555
O26_6 Zr6 1_555 1_555
Cu4_14 O3_6 1_555 1_555
Cu5_6 N6_6 1_555 1_555
Cu6_6 O3_6 1_555 1_555
Cu7_6 N4_6 1_555 1_555
O27_6 Cu2_6 1_555 1_555
O28_6 Cu3_6 1_555 1_555
N7_6 Cu3_6 1_555 1_555
N8_6 Cu2_6 1_555 1_555
N9_6 Cu1_6 1_555 1_555
O9_6 Zr6 1_555 1_555
N2_6 C4_6 1_555 1_555
N2_6 Cu6_6 1_555 1_555
C6_6 C7_6 1_555 1_555
C7_6 O16_6 1_555 1_555
N4_6 C8_6 1_555 1_555
C10_6 C11_6 1_555 1_555
C11_6 O23_6 1_555 1_555
N6_6 C12_6 1_555 1_555
Cu5_6 O28_6 1_555 1_555
Cu7_6 O27_6 1_555 1_555
C4_6 H7_6 1_555 1_555
C5_6 H8_6 1_555 1_555
C1_6 H11_6 1_555 1_555
C9_6 H20_6 1_555 1_555
C12_6 H23_6 1_555 1_555
C8_6 H26_6 1_555 1_555
Cu1_7 O1_7 1_555 1_555
Zr4_3 O5_7 1_555 1_555
O2_7 Cu1_7 1_555 1_555
O3_7 Cu1_7 1_555 1_555
O4_7 Cu1_7 1_555 1_555
O5_7 C3_7 1_555 1_555
O6_7 Zr4_3 1_555 1_555
O7_7 Zr4_3 1_555 1_555
N1_7 Cu1_7 1_555 1_555
C1_7 N1_7 1_555 1_555
C2_7 C1_7 1_555 1_555
C3_7 C2_7 1_555 1_555
O9_7 C3_7 1_555 1_555
N2_7 N1_7 1_555 1_555
C4_7 C2_7 1_555 1_555
Cu2_7 O10_7 1_555 1_555
Zr5_3 O7_7 1_555 1_555
O11_7 Cu2_7 1_555 1_555
O12_7 Cu2_7 1_555 1_555
O13_7 Zr5_3 1_555 1_555
O14_7 Zr5_3 1_555 1_555
N3_7 Cu2_7 1_555 1_555
C5_7 N3_7 1_555 1_555
C6_7 C5_7 1_555 1_555
C7_7 O13_7 1_555 1_555
O16_7 Zr4_3 1_555 1_555
N4_7 N3_7 1_555 1_555
C8_7 C6_7 1_555 1_555
Cu3_7 O17_7 1_555 1_555
Zr6_3 O7_7 1_555 1_555
O18_7 Cu3_7 1_555 1_555
O19_7 Cu3_7 1_555 1_555
O20_7 Zr6_3 1_555 1_555
O21_7 Zr6_3 1_555 1_555
N5_7 Cu3_7 1_555 1_555
C9_7 N5_7 1_555 1_555
C10_7 C9_7 1_555 1_555
C11_7 O20_7 1_555 1_555
O23_7 Zr5_3 1_555 1_555
N6_7 N5_7 1_555 1_555
C12_7 C10_7 1_555 1_555
O24_7 Zr4_3 1_555 1_555
O25_7 Zr5_3 1_555 1_555
O26_7 Zr6_3 1_555 1_555
Cu4_15 O3_7 1_555 1_555
Cu5_7 N6_7 1_555 1_555
Cu6_7 O3_7 1_555 1_555
Cu7_7 N4_7 1_555 1_555
O27_7 Cu2_7 1_555 1_555
O28_7 Cu3_7 1_555 1_555
N7_7 Cu3_7 1_555 1_555
N8_7 Cu2_7 1_555 1_555
N9_7 Cu1_7 1_555 1_555
O9_7 Zr6_3 1_555 1_555
N2_7 C4_7 1_555 1_555
N2_7 Cu6_7 1_555 1_555
C6_7 C7_7 1_555 1_555
C7_7 O16_7 1_555 1_555
N4_7 C8_7 1_555 1_555
C10_7 C11_7 1_555 1_555
C11_7 O23_7 1_555 1_555
N6_7 C12_7 1_555 1_555
Cu5_7 O28_7 1_555 1_555
Cu7_7 O27_7 1_555 1_555
C4_7 H7_7 1_555 1_555
C5_7 H8_7 1_555 1_555
C1_7 H11_7 1_555 1_555
C9_7 H20_7 1_555 1_555
C12_7 H23_7 1_555 1_555
C8_7 H26_7 1_555 1_555
Cu1_8 O1_8 1_555 1_555
Zr4_4 O5_8 1_555 1_555
O2_8 Cu1_8 1_555 1_555
O3_8 Cu1_8 1_555 1_555
O4_8 Cu1_8 1_555 1_555
O5_8 C3_8 1_555 1_555
O6_8 Zr4_4 1_555 1_555
O7_8 Zr4_4 1_555 1_555
N1_8 Cu1_8 1_555 1_555
C1_8 N1_8 1_555 1_555
C2_8 C1_8 1_555 1_555
C3_8 C2_8 1_555 1_555
O9_8 C3_8 1_555 1_555
N2_8 N1_8 1_555 1_555
C4_8 C2_8 1_555 1_555
Cu2_8 O10_8 1_555 1_555
Zr5_4 O7_8 1_555 1_555
O11_8 Cu2_8 1_555 1_555
O12_8 Cu2_8 1_555 1_555
O13_8 Zr5_4 1_555 1_555
O14_8 Zr5_4 1_555 1_555
N3_8 Cu2_8 1_555 1_555
C5_8 N3_8 1_555 1_555
C6_8 C5_8 1_555 1_555
C7_8 O13_8 1_555 1_555
O16_8 Zr4_4 1_555 1_555
N4_8 N3_8 1_555 1_555
C8_8 C6_8 1_555 1_555
Cu3_8 O17_8 1_555 1_555
Zr6_4 O7_8 1_555 1_555
O18_8 Cu3_8 1_555 1_555
O19_8 Cu3_8 1_555 1_555
O20_8 Zr6_4 1_555 1_555
O21_8 Zr6_4 1_555 1_555
N5_8 Cu3_8 1_555 1_555
C9_8 N5_8 1_555 1_555
C10_8 C9_8 1_555 1_555
C11_8 O20_8 1_555 1_555
O23_8 Zr5_4 1_555 1_555
N6_8 N5_8 1_555 1_555
C12_8 C10_8 1_555 1_555
O24_8 Zr4_4 1_555 1_555
O25_8 Zr5_4 1_555 1_555
O26_8 Zr6_4 1_555 1_555
Cu4_16 O3_8 1_555 1_555
Cu5_8 N6_8 1_555 1_555
Cu6_8 O3_8 1_555 1_555
Cu7_8 N4_8 1_555 1_555
O27_8 Cu2_8 1_555 1_555
O28_8 Cu3_8 1_555 1_555
N7_8 Cu3_8 1_555 1_555
N8_8 Cu2_8 1_555 1_555
N9_8 Cu1_8 1_555 1_555
O9_8 Zr6_4 1_555 1_555
N2_8 C4_8 1_555 1_555
N2_8 Cu6_8 1_555 1_555
C6_8 C7_8 1_555 1_555
C7_8 O16_8 1_555 1_555
N4_8 C8_8 1_555 1_555
C10_8 C11_8 1_555 1_555
C11_8 O23_8 1_555 1_555
N6_8 C12_8 1_555 1_555
Cu5_8 O28_8 1_555 1_555
Cu7_8 O27_8 1_555 1_555
C4_8 H7_8 1_555 1_555
C5_8 H8_8 1_555 1_555
C1_8 H11_8 1_555 1_555
C9_8 H20_8 1_555 1_555
C12_8 H23_8 1_555 1_555
C8_8 H26_8 1_555 1_555
Cu4_17 O27_7 1_555 1_555
Cu4_18 O27_6 1_555 1_555
Cu4_19 O27_8 1_555 1_555
Cu4_20 O27_5 1_555 1_555
Cu4_21 O28_8 1_555 1_555
Cu4_22 O28_6 1_555 1_555
Cu4_23 O28_5 1_555 1_555
Cu4_24 O28_7 1_555 1_555
O14_9 Zr2_5 1_555 1_555
O22_5 Zr2_5 1_555 1_555
O25_9 Zr2_5 1_555 1_555
Zr4_5 O15_5 1_555 1_555
Zr6_5 O22_5 1_555 1_555
O29_5 Zr2_5 1_555 1_555
Zr2_5 O15_5 1_555 1_555
Zr4_5 O29_5 1_555 1_555
Zr6_5 O29_5 1_555 1_555
Cu1_9 O1_9 1_555 1_555
Zr1_5 O5_9 1_555 1_555
O2_9 Cu1_9 1_555 1_555
O3_9 Cu1_9 1_555 1_555
O4_9 Cu1_9 1_555 1_555
O5_9 C3_9 1_555 1_555
O6_9 Zr1_5 1_555 1_555
O7_9 Zr1_5 1_555 1_555
O8_5 Zr1_5 1_555 1_555
N1_9 Cu1_9 1_555 1_555
C1_9 N1_9 1_555 1_555
C2_9 C1_9 1_555 1_555
C3_9 C2_9 1_555 1_555
O9_9 C3_9 1_555 1_555
N2_9 N1_9 1_555 1_555
C4_9 C2_9 1_555 1_555
Cu5_2 O10_9 1_555 1_555
O11_9 Cu5_2 1_555 1_555
O12_9 Cu5_2 1_555 1_555
N3_9 Cu5_2 1_555 1_555
C5_9 N3_9 1_555 1_555
C6_9 C5_9 1_555 1_555
C7_9 O13_9 1_555 1_555
O16_9 Zr1_5 1_555 1_555
N4_9 N3_9 1_555 1_555
C8_9 C6_9 1_555 1_555
Cu4_6 O17_9 1_555 1_555
Zr3_5 O7_9 1_555 1_555
O18_9 Cu4_6 1_555 1_555
O19_9 Cu4_6 1_555 1_555
O20_9 Zr3_5 1_555 1_555
O21_9 Zr3_5 1_555 1_555
N5_9 Cu4_6 1_555 1_555
C9_9 N5_9 1_555 1_555
C10_9 C9_9 1_555 1_555
C11_9 O20_9 1_555 1_555
N8_2 N5_9 1_555 1_555
C12_9 C10_9 1_555 1_555
O24_9 Zr1_5 1_555 1_555
O26_9 Zr3_5 1_555 1_555
Cu4_25 O3_9 1_555 1_555
Cu6_9 O3_9 1_555 1_555
Cu4_10 N4_9 1_555 1_555
Zr5_5 O8_5 1_555 1_555
O30_5 Zr1_5 1_555 1_555
O31_5 Zr3_5 1_555 1_555
N7_9 Cu4_6 1_555 1_555
N9_9 Cu1_9 1_555 1_555
O8_5 Zr3_5 1_555 1_555
O9_9 Zr3_5 1_555 1_555
N2_9 C4_9 1_555 1_555
N2_9 Cu6_9 1_555 1_555
C6_9 C7_9 1_555 1_555
C7_9 O16_9 1_555 1_555
N4_9 C8_9 1_555 1_555
C10_9 C11_9 1_555 1_555
C11_9 O23_9 1_555 1_555
N8_2 C12_9 1_555 1_555
Zr5_5 O30_5 1_555 1_555
Zr5_5 O31_5 1_555 1_555
O12_9 H1_3 1_555 1_555
C4_9 H7_9 1_555 1_555
C5_9 H8_9 1_555 1_555
C1_9 H11_9 1_555 1_555
C9_9 H20_9 1_555 1_555
C12_9 H23_9 1_555 1_555
C8_9 H26_9 1_555 1_555
O21_10 Zr3_6 1_555 1_555
O26_10 Zr3_6 1_555 1_555
Zr5_6 O8_6 1_555 1_555
Zr6_6 O22_6 1_555 1_555
O31_6 Zr3_6 1_555 1_555
O8_6 Zr3_6 1_555 1_555
Zr3_6 O22_6 1_555 1_555
Zr5_6 O31_6 1_555 1_555
Zr6_6 O31_6 1_555 1_555
Cu1_10 O1_10 1_555 1_555
Zr1_6 O5_10 1_555 1_555
O2_10 Cu1_10 1_555 1_555
O3_10 Cu1_10 1_555 1_555
O4_10 Cu1_10 1_555 1_555
O5_10 C3_10 1_555 1_555
O6_10 Zr1_6 1_555 1_555
O7_10 Zr1_6 1_555 1_555
N1_10 Cu1_10 1_555 1_555
C1_10 N1_10 1_555 1_555
C2_10 C1_10 1_555 1_555
C3_10 C2_10 1_555 1_555
O9_10 C3_10 1_555 1_555
N2_10 N1_10 1_555 1_555
C4_10 C2_10 1_555 1_555
Cu5 O10_10 1_555 1_555
Zr2_6 O7_10 1_555 1_555
O11_10 Cu5 1_555 1_555
O12_10 Cu5 1_555 1_555
O13_10 Zr2_6 1_555 1_555
O14_10 Zr2_6 1_555 1_555
O15_6 Zr1_6 1_555 1_555
N3_10 Cu5 1_555 1_555
C5_10 N3_10 1_555 1_555
C6_10 C5_10 1_555 1_555
C7_10 O13_10 1_555 1_555
O16_10 Zr1_6 1_555 1_555
N4_10 N3_10 1_555 1_555
C8_10 C6_10 1_555 1_555
Cu4_8 O17_10 1_555 1_555
O18_10 Cu4_8 1_555 1_555
O19_10 Cu4_8 1_555 1_555
N5_10 Cu4_8 1_555 1_555
C9_10 N5_10 1_555 1_555
C10_10 C9_10 1_555 1_555
C11_10 O20_10 1_555 1_555
O23_10 Zr2_6 1_555 1_555
N8 N5_10 1_555 1_555
C12_10 C10_10 1_555 1_555
O24_10 Zr1_6 1_555 1_555
O25_10 Zr2_6 1_555 1_555
Cu4_26 O3_10 1_555 1_555
Cu6_10 O3_10 1_555 1_555
Cu4_11 N4_10 1_555 1_555
Zr4_6 O15_6 1_555 1_555
O29_6 Zr2_6 1_555 1_555
O30_6 Zr1_6 1_555 1_555
N7_10 Cu4_8 1_555 1_555
N9_10 Cu1_10 1_555 1_555
N2_10 C4_10 1_555 1_555
N2_10 Cu6_10 1_555 1_555
Zr2_6 O15_6 1_555 1_555
C6_10 C7_10 1_555 1_555
C7_10 O16_10 1_555 1_555
N4_10 C8_10 1_555 1_555
C10_10 C11_10 1_555 1_555
C11_10 O23_10 1_555 1_555
N8 C12_10 1_555 1_555
Zr4_6 O29_6 1_555 1_555
Zr4_6 O30_6 1_555 1_555
C4_10 H7_10 1_555 1_555
C5_10 H8_10 1_555 1_555
C1_10 H11_10 1_555 1_555
C9_10 H20_10 1_555 1_555
C12_10 H23_10 1_555 1_555
C8_10 H26_10 1_555 1_555
O19_10 H31_3 1_555 1_555
Cu1_11 O1_11 1_555 1_555
Zr1_7 O5_11 1_555 1_555
O2_11 Cu1_11 1_555 1_555
O3_11 Cu1_11 1_555 1_555
O4_11 Cu1_11 1_555 1_555
O5_11 C3_11 1_555 1_555
O6_11 Zr1_7 1_555 1_555
O7_11 Zr1_7 1_555 1_555
O8_7 Zr1_7 1_555 1_555
N1_11 Cu1_11 1_555 1_555
C1_11 N1_11 1_555 1_555
C2_11 C1_11 1_555 1_555
C3_11 C2_11 1_555 1_555
O9_11 C3_11 1_555 1_555
N2_11 N1_11 1_555 1_555
C4_11 C2_11 1_555 1_555
Cu5_4 O10_11 1_555 1_555
Zr2_7 O7_11 1_555 1_555
O11_11 Cu5_4 1_555 1_555
O12_11 Cu5_4 1_555 1_555
O13_11 Zr2_7 1_555 1_555
O14_11 Zr2_7 1_555 1_555
O15_7 Zr1_7 1_555 1_555
N3_11 Cu5_4 1_555 1_555
C5_11 N3_11 1_555 1_555
C6_11 C5_11 1_555 1_555
C7_11 O13_11 1_555 1_555
O16_11 Zr1_7 1_555 1_555
N4_11 N3_11 1_555 1_555
C8_11 C6_11 1_555 1_555
Cu4_7 O17_11 1_555 1_555
Zr3_7 O7_11 1_555 1_555
O18_11 Cu4_7 1_555 1_555
O19_11 Cu4_7 1_555 1_555
O20_11 Zr3_7 1_555 1_555
O21_11 Zr3_7 1_555 1_555
O22_7 Zr2_7 1_555 1_555
N5_11 Cu4_7 1_555 1_555
C9_11 N5_11 1_555 1_555
C10_11 C9_11 1_555 1_555
C11_11 O20_11 1_555 1_555
O23_11 Zr2_7 1_555 1_555
N8_4 N5_11 1_555 1_555
C12_11 C10_11 1_555 1_555
O24_11 Zr1_7 1_555 1_555
O25_11 Zr2_7 1_555 1_555
O26_11 Zr3_7 1_555 1_555
Cu4_27 O3_11 1_555 1_555
Cu6_11 O3_11 1_555 1_555
Cu4_9 N4_11 1_555 1_555
Zr4_7 O15_7 1_555 1_555
Zr5_7 O8_7 1_555 1_555
Zr6_7 O22_7 1_555 1_555
O29_7 Zr2_7 1_555 1_555
O30_7 Zr1_7 1_555 1_555
O31_7 Zr3_7 1_555 1_555
N7_11 Cu4_7 1_555 1_555
N9_11 Cu1_11 1_555 1_555
O8_7 Zr3_7 1_555 1_555
O9_11 Zr3_7 1_555 1_555
N2_11 C4_11 1_555 1_555
N2_11 Cu6_11 1_555 1_555
Zr2_7 O15_7 1_555 1_555
C6_11 C7_11 1_555 1_555
C7_11 O16_11 1_555 1_555
N4_11 C8_11 1_555 1_555
Zr3_7 O22_7 1_555 1_555
C10_11 C11_11 1_555 1_555
C11_11 O23_11 1_555 1_555
N8_4 C12_11 1_555 1_555
Zr4_7 O29_7 1_555 1_555
Zr4_7 O30_7 1_555 1_555
Zr5_7 O30_7 1_555 1_555
Zr5_7 O31_7 1_555 1_555
Zr6_7 O29_7 1_555 1_555
Zr6_7 O31_7 1_555 1_555
C4_11 H7_11 1_555 1_555
C5_11 H8_11 1_555 1_555
C1_11 H11_11 1_555 1_555
C9_11 H20_11 1_555 1_555
C12_11 H23_11 1_555 1_555
C8_11 H26_11 1_555 1_555
O6_12 Zr1_8 1_555 1_555
O8_8 Zr1_8 1_555 1_555
O15_8 Zr1_8 1_555 1_555
O24_12 Zr1_8 1_555 1_555
Zr4_8 O15_8 1_555 1_555
Zr5_8 O8_8 1_555 1_555
O30_8 Zr1_8 1_555 1_555
Zr4_8 O30_8 1_555 1_555
Zr5_8 O30_8 1_555 1_555
Cu1_12 O1_12 1_555 1_555
O2_12 Cu1_12 1_555 1_555
O3_12 Cu1_12 1_555 1_555
O4_12 Cu1_12 1_555 1_555
O5_12 C3_12 1_555 1_555
N1_12 Cu1_12 1_555 1_555
C1_12 N1_12 1_555 1_555
C2_12 C1_12 1_555 1_555
C3_12 C2_12 1_555 1_555
O9_12 C3_12 1_555 1_555
N2_12 N1_12 1_555 1_555
C4_12 C2_12 1_555 1_555
Cu5_3 O10_12 1_555 1_555
Zr2_8 O7_12 1_555 1_555
O11_12 Cu5_3 1_555 1_555
O12_12 Cu5_3 1_555 1_555
O13_12 Zr2_8 1_555 1_555
O14_12 Zr2_8 1_555 1_555
N3_12 Cu5_3 1_555 1_555
C5_12 N3_12 1_555 1_555
C6_12 C5_12 1_555 1_555
C7_12 O13_12 1_555 1_555
N4_12 N3_12 1_555 1_555
C8_12 C6_12 1_555 1_555
Cu4_5 O17_12 1_555 1_555
Zr3_8 O7_12 1_555 1_555
O18_12 Cu4_5 1_555 1_555
O19_12 Cu4_5 1_555 1_555
O20_12 Zr3_8 1_555 1_555
O21_12 Zr3_8 1_555 1_555
O22_8 Zr2_8 1_555 1_555
N5_12 Cu4_5 1_555 1_555
C9_12 N5_12 1_555 1_555
C10_12 C9_12 1_555 1_555
C11_12 O20_12 1_555 1_555
O23_12 Zr2_8 1_555 1_555
N8_3 N5_12 1_555 1_555
C12_12 C10_12 1_555 1_555
O25_12 Zr2_8 1_555 1_555
O26_12 Zr3_8 1_555 1_555
Cu4_28 O3_12 1_555 1_555
Cu6_12 O3_12 1_555 1_555
Cu4_12 N4_12 1_555 1_555
Zr6_8 O22_8 1_555 1_555
O29_8 Zr2_8 1_555 1_555
O31_8 Zr3_8 1_555 1_555
N7_12 Cu4_5 1_555 1_555
N9_12 Cu1_12 1_555 1_555
O9_12 Zr3_8 1_555 1_555
N2_12 C4_12 1_555 1_555
N2_12 Cu6_12 1_555 1_555
C6_12 C7_12 1_555 1_555
C7_12 O16_12 1_555 1_555
N4_12 C8_12 1_555 1_555
Zr3_8 O22_8 1_555 1_555
C10_12 C11_12 1_555 1_555
C11_12 O23_12 1_555 1_555
N8_3 C12_12 1_555 1_555
Zr6_8 O29_8 1_555 1_555
Zr6_8 O31_8 1_555 1_555
C4_12 H7_12 1_555 1_555
C5_12 H8_12 1_555 1_555
O4_12 H9_3 1_555 1_555
C1_12 H11_12 1_555 1_555
C9_12 H20_12 1_555 1_555
C12_12 H23_12 1_555 1_555
C8_12 H26_12 1_555 1_555
Cu4_21 O1_13 1_555 1_555
O2_13 Cu4_21 1_555 1_555
O4_13 Cu4_21 1_555 1_555
O5_13 C3_13 1_555 1_555
N1_13 Cu4_21 1_555 1_555
C1_13 N1_13 1_555 1_555
C2_13 C1_13 1_555 1_555
C3_13 C2_13 1_555 1_555
O9_13 C3_13 1_555 1_555
N7_8 N1_13 1_555 1_555
C4_13 C2_13 1_555 1_555
Cu2_9 O10_13 1_555 1_555
Zr5_6 O7_13 1_555 1_555
O11_13 Cu2_9 1_555 1_555
O12_13 Cu2_9 1_555 1_555
O13_13 Zr5_6 1_555 1_555
O14_13 Zr5_6 1_555 1_555
N3_13 Cu2_9 1_555 1_555
C5_13 N3_13 1_555 1_555
C6_13 C5_13 1_555 1_555
C7_13 O13_13 1_555 1_555
N4_13 N3_13 1_555 1_555
C8_13 C6_13 1_555 1_555
Cu6_8 O17_13 1_555 1_555
Zr6_6 O7_13 1_555 1_555
O18_13 Cu6_8 1_555 1_555
O19_13 Cu6_8 1_555 1_555
O20_13 Zr6_6 1_555 1_555
O21_13 Zr6_6 1_555 1_555
N5_13 Cu6_8 1_555 1_555
C9_13 N5_13 1_555 1_555
C10_13 C9_13 1_555 1_555
C11_13 O20_13 1_555 1_555
O23_13 Zr5_6 1_555 1_555
N6_9 N5_13 1_555 1_555
C12_13 C10_13 1_555 1_555
O25_13 Zr5_6 1_555 1_555
O26_13 Zr6_6 1_555 1_555
Cu4_16 N6_9 1_555 1_555
Cu7_9 N4_13 1_555 1_555
O27_9 Cu2_9 1_555 1_555
N8_9 Cu2_9 1_555 1_555
N9_13 Cu4_21 1_555 1_555
O9_13 Zr6_6 1_555 1_555
N7_8 C4_13 1_555 1_555
C6_13 C7_13 1_555 1_555
C7_13 O16_13 1_555 1_555
N4_13 C8_13 1_555 1_555
C10_13 C11_13 1_555 1_555
C11_13 O23_13 1_555 1_555
N6_9 C12_13 1_555 1_555
Cu7_9 O27_9 1_555 1_555
C4_13 H7_13 1_555 1_555
C5_13 H8_13 1_555 1_555
O4_13 H9_4 1_555 1_555
C1_13 H11_13 1_555 1_555
C9_13 H20_13 1_555 1_555
C12_13 H23_13 1_555 1_555
C8_13 H26_13 1_555 1_555
O6_13 Zr4_6 1_555 1_555
O24_13 Zr4_6 1_555 1_555
Cu4_24 O1_14 1_555 1_555
Zr4_5 O5_14 1_555 1_555
O2_14 Cu4_24 1_555 1_555
O4_14 Cu4_24 1_555 1_555
O5_14 C3_14 1_555 1_555
O6_14 Zr4_5 1_555 1_555
O7_14 Zr4_5 1_555 1_555
N1_14 Cu4_24 1_555 1_555
C1_14 N1_14 1_555 1_555
C2_14 C1_14 1_555 1_555
C3_14 C2_14 1_555 1_555
O9_14 C3_14 1_555 1_555
N7_7 N1_14 1_555 1_555
C4_14 C2_14 1_555 1_555
Cu2_10 O10_14 1_555 1_555
O11_14 Cu2_10 1_555 1_555
O12_14 Cu2_10 1_555 1_555
N3_14 Cu2_10 1_555 1_555
C5_14 N3_14 1_555 1_555
C6_14 C5_14 1_555 1_555
C7_14 O13_14 1_555 1_555
O16_14 Zr4_5 1_555 1_555
N4_14 N3_14 1_555 1_555
C8_14 C6_14 1_555 1_555
Cu6_7 O17_14 1_555 1_555
Zr6_5 O7_14 1_555 1_555
O18_14 Cu6_7 1_555 1_555
O19_14 Cu6_7 1_555 1_555
O20_14 Zr6_5 1_555 1_555
O21_14 Zr6_5 1_555 1_555
N5_14 Cu6_7 1_555 1_555
C9_14 N5_14 1_555 1_555
C10_14 C9_14 1_555 1_555
C11_14 O20_14 1_555 1_555
N6_10 N5_14 1_555 1_555
C12_14 C10_14 1_555 1_555
O24_14 Zr4_5 1_555 1_555
O26_14 Zr6_5 1_555 1_555
Cu4_15 N6_10 1_555 1_555
Cu7_10 N4_14 1_555 1_555
O27_10 Cu2_10 1_555 1_555
N8_10 Cu2_10 1_555 1_555
N9_14 Cu4_24 1_555 1_555
O9_14 Zr6_5 1_555 1_555
N7_7 C4_14 1_555 1_555
C6_14 C7_14 1_555 1_555
C7_14 O16_14 1_555 1_555
N4_14 C8_14 1_555 1_555
C10_14 C11_14 1_555 1_555
C11_14 O23_14 1_555 1_555
N6_10 C12_14 1_555 1_555
Cu7_10 O27_10 1_555 1_555
O12_14 H1_4 1_555 1_555
C4_14 H7_14 1_555 1_555
C5_14 H8_14 1_555 1_555
C1_14 H11_14 1_555 1_555
C9_14 H20_14 1_555 1_555
C12_14 H23_14 1_555 1_555
C8_14 H26_14 1_555 1_555
O14_14 Zr5_5 1_555 1_555
O25_14 Zr5_5 1_555 1_555
Cu4_22 O1_15 1_555 1_555
Zr4_7 O5_15 1_555 1_555
O2_15 Cu4_22 1_555 1_555
O4_15 Cu4_22 1_555 1_555
O5_15 C3_15 1_555 1_555
O6_15 Zr4_7 1_555 1_555
O7_15 Zr4_7 1_555 1_555
N1_15 Cu4_22 1_555 1_555
C1_15 N1_15 1_555 1_555
C2_15 C1_15 1_555 1_555
C3_15 C2_15 1_555 1_555
O9_15 C3_15 1_555 1_555
N7_6 N1_15 1_555 1_555
C4_15 C2_15 1_555 1_555
Cu2_11 O10_15 1_555 1_555
Zr5_7 O7_15 1_555 1_555
O11_15 Cu2_11 1_555 1_555
O12_15 Cu2_11 1_555 1_555
O13_15 Zr5_7 1_555 1_555
O14_15 Zr5_7 1_555 1_555
N3_15 Cu2_11 1_555 1_555
C5_15 N3_15 1_555 1_555
C6_15 C5_15 1_555 1_555
C7_15 O13_15 1_555 1_555
O16_15 Zr4_7 1_555 1_555
N4_15 N3_15 1_555 1_555
C8_15 C6_15 1_555 1_555
Cu6_6 O17_15 1_555 1_555
Zr6_7 O7_15 1_555 1_555
O18_15 Cu6_6 1_555 1_555
O19_15 Cu6_6 1_555 1_555
O20_15 Zr6_7 1_555 1_555
O21_15 Zr6_7 1_555 1_555
N5_15 Cu6_6 1_555 1_555
C9_15 N5_15 1_555 1_555
C10_15 C9_15 1_555 1_555
C11_15 O20_15 1_555 1_555
O23_15 Zr5_7 1_555 1_555
N6_11 N5_15 1_555 1_555
C12_15 C10_15 1_555 1_555
O24_15 Zr4_7 1_555 1_555
O25_15 Zr5_7 1_555 1_555
O26_15 Zr6_7 1_555 1_555
Cu4_14 N6_11 1_555 1_555
Cu7_11 N4_15 1_555 1_555
O27_11 Cu2_11 1_555 1_555
N8_11 Cu2_11 1_555 1_555
N9_15 Cu4_22 1_555 1_555
O9_15 Zr6_7 1_555 1_555
N7_6 C4_15 1_555 1_555
C6_15 C7_15 1_555 1_555
C7_15 O16_15 1_555 1_555
N4_15 C8_15 1_555 1_555
C10_15 C11_15 1_555 1_555
C11_15 O23_15 1_555 1_555
N6_11 C12_15 1_555 1_555
Cu7_11 O27_11 1_555 1_555
C4_15 H7_15 1_555 1_555
C5_15 H8_15 1_555 1_555
C1_15 H11_15 1_555 1_555
C9_15 H20_15 1_555 1_555
C12_15 H23_15 1_555 1_555
C8_15 H26_15 1_555 1_555
Cu4_23 O1_16 1_555 1_555
Zr4_8 O5_16 1_555 1_555
O2_16 Cu4_23 1_555 1_555
O4_16 Cu4_23 1_555 1_555
O5_16 C3_16 1_555 1_555
O6_16 Zr4_8 1_555 1_555
O7_16 Zr4_8 1_555 1_555
N1_16 Cu4_23 1_555 1_555
C1_16 N1_16 1_555 1_555
C2_16 C1_16 1_555 1_555
C3_16 C2_16 1_555 1_555
O9_16 C3_16 1_555 1_555
N7_5 N1_16 1_555 1_555
C4_16 C2_16 1_555 1_555
Cu2_12 O10_16 1_555 1_555
Zr5_8 O7_16 1_555 1_555
O11_16 Cu2_12 1_555 1_555
O12_16 Cu2_12 1_555 1_555
O13_16 Zr5_8 1_555 1_555
O14_16 Zr5_8 1_555 1_555
N3_16 Cu2_12 1_555 1_555
C5_16 N3_16 1_555 1_555
C6_16 C5_16 1_555 1_555
C7_16 O13_16 1_555 1_555
O16_16 Zr4_8 1_555 1_555
N4_16 N3_16 1_555 1_555
C8_16 C6_16 1_555 1_555
Cu6_5 O17_16 1_555 1_555
O18_16 Cu6_5 1_555 1_555
O19_16 Cu6_5 1_555 1_555
N5_16 Cu6_5 1_555 1_555
C9_16 N5_16 1_555 1_555
C10_16 C9_16 1_555 1_555
C11_16 O20_16 1_555 1_555
O23_16 Zr5_8 1_555 1_555
N6_12 N5_16 1_555 1_555
C12_16 C10_16 1_555 1_555
O24_16 Zr4_8 1_555 1_555
O25_16 Zr5_8 1_555 1_555
Cu4_13 N6_12 1_555 1_555
Cu7_12 N4_16 1_555 1_555
O27_12 Cu2_12 1_555 1_555
N8_12 Cu2_12 1_555 1_555
N9_16 Cu4_23 1_555 1_555
N7_5 C4_16 1_555 1_555
C6_16 C7_16 1_555 1_555
C7_16 O16_16 1_555 1_555
N4_16 C8_16 1_555 1_555
C10_16 C11_16 1_555 1_555
C11_16 O23_16 1_555 1_555
N6_12 C12_16 1_555 1_555
Cu7_12 O27_12 1_555 1_555
C4_16 H7_16 1_555 1_555
C5_16 H8_16 1_555 1_555
C1_16 H11_16 1_555 1_555
C9_16 H20_16 1_555 1_555
C12_16 H23_16 1_555 1_555
C8_16 H26_16 1_555 1_555
O19_16 H31_4 1_555 1_555
O21_16 Zr6_8 1_555 1_555
O26_16 Zr6_8 1_555 1_555
Cu4_29 O27_11 1_555 1_555
Cu4_30 O27_10 1_555 1_555
Cu4_31 O27_12 1_555 1_555
Cu4_32 O27_9 1_555 1_555
O14_17 Zr2_9 1_555 1_555
O22_9 Zr2_9 1_555 1_555
O25_17 Zr2_9 1_555 1_555
Zr4_9 O15_9 1_555 1_555
Zr6_9 O22_9 1_555 1_555
O29_9 Zr2_9 1_555 1_555
Zr2_9 O15_9 1_555 1_555
Zr4_9 O29_9 1_555 1_555
Zr6_9 O29_9 1_555 1_555
Cu4_9 O1_17 1_555 1_555
Zr1_9 O5_17 1_555 1_555
O2_17 Cu4_9 1_555 1_555
O4_17 Cu4_9 1_555 1_555
O5_17 C3_17 1_555 1_555
O6_17 Zr1_9 1_555 1_555
O7_17 Zr1_9 1_555 1_555
O8_9 Zr1_9 1_555 1_555
N1_17 Cu4_9 1_555 1_555
C1_17 N1_17 1_555 1_555
C2_17 C1_17 1_555 1_555
C3_17 C2_17 1_555 1_555
O9_17 C3_17 1_555 1_555
N7_4 N1_17 1_555 1_555
C4_17 C2_17 1_555 1_555
Cu4_27 O10_17 1_555 1_555
O11_17 Cu4_27 1_555 1_555
O12_17 Cu4_27 1_555 1_555
N3_17 Cu4_27 1_555 1_555
C5_17 N3_17 1_555 1_555
C6_17 C5_17 1_555 1_555
C7_17 O13_17 1_555 1_555
O16_17 Zr1_9 1_555 1_555
N9_11 N3_17 1_555 1_555
C8_17 C6_17 1_555 1_555
Cu6_4 O17_17 1_555 1_555
Zr3_9 O7_17 1_555 1_555
O18_17 Cu6_4 1_555 1_555
O19_17 Cu6_4 1_555 1_555
O20_17 Zr3_9 1_555 1_555
O21_17 Zr3_9 1_555 1_555
N5_17 Cu6_4 1_555 1_555
C9_17 N5_17 1_555 1_555
C10_17 C9_17 1_555 1_555
C11_17 O20_17 1_555 1_555
N6_13 N5_17 1_555 1_555
C12_17 C10_17 1_555 1_555
O24_17 Zr1_9 1_555 1_555
O26_17 Zr3_9 1_555 1_555
Cu4_4 N6_13 1_555 1_555
Zr5_9 O8_9 1_555 1_555
O30_9 Zr1_9 1_555 1_555
O31_9 Zr3_9 1_555 1_555
N8_13 Cu4_27 1_555 1_555
O8_9 Zr3_9 1_555 1_555
O9_17 Zr3_9 1_555 1_555
N7_4 C4_17 1_555 1_555
C6_17 C7_17 1_555 1_555
C7_17 O16_17 1_555 1_555
N9_11 C8_17 1_555 1_555
C10_17 C11_17 1_555 1_555
C11_17 O23_17 1_555 1_555
N6_13 C12_17 1_555 1_555
Zr5_9 O30_9 1_555 1_555
Zr5_9 O31_9 1_555 1_555
O12_17 H1_5 1_555 1_555
C4_17 H7_17 1_555 1_555
C5_17 H8_17 1_555 1_555
C1_17 H11_17 1_555 1_555
C9_17 H20_17 1_555 1_555
C12_17 H23_17 1_555 1_555
C8_17 H26_17 1_555 1_555
O6_18 Zr1_10 1_555 1_555
O8_10 Zr1_10 1_555 1_555
O15_10 Zr1_10 1_555 1_555
O24_18 Zr1_10 1_555 1_555
Zr4_10 O15_10 1_555 1_555
Zr5_10 O8_10 1_555 1_555
O30_10 Zr1_10 1_555 1_555
Zr4_10 O30_10 1_555 1_555
Zr5_10 O30_10 1_555 1_555
Cu4_12 O1_18 1_555 1_555
O2_18 Cu4_12 1_555 1_555
O4_18 Cu4_12 1_555 1_555
O5_18 C3_18 1_555 1_555
N1_18 Cu4_12 1_555 1_555
C1_18 N1_18 1_555 1_555
C2_18 C1_18 1_555 1_555
C3_18 C2_18 1_555 1_555
O9_18 C3_18 1_555 1_555
N7_3 N1_18 1_555 1_555
C4_18 C2_18 1_555 1_555
Cu4_28 O10_18 1_555 1_555
Zr2_10 O7_18 1_555 1_555
O11_18 Cu4_28 1_555 1_555
O12_18 Cu4_28 1_555 1_555
O13_18 Zr2_10 1_555 1_555
O14_18 Zr2_10 1_555 1_555
N3_18 Cu4_28 1_555 1_555
C5_18 N3_18 1_555 1_555
C6_18 C5_18 1_555 1_555
C7_18 O13_18 1_555 1_555
N9_12 N3_18 1_555 1_555
C8_18 C6_18 1_555 1_555
Cu6_3 O17_18 1_555 1_555
Zr3_10 O7_18 1_555 1_555
O18_18 Cu6_3 1_555 1_555
O19_18 Cu6_3 1_555 1_555
O20_18 Zr3_10 1_555 1_555
O21_18 Zr3_10 1_555 1_555
O22_10 Zr2_10 1_555 1_555
N5_18 Cu6_3 1_555 1_555
C9_18 N5_18 1_555 1_555
C10_18 C9_18 1_555 1_555
C11_18 O20_18 1_555 1_555
O23_18 Zr2_10 1_555 1_555
N6_14 N5_18 1_555 1_555
C12_18 C10_18 1_555 1_555
O25_18 Zr2_10 1_555 1_555
O26_18 Zr3_10 1_555 1_555
Cu4_3 N6_14 1_555 1_555
Zr6_10 O22_10 1_555 1_555
O29_10 Zr2_10 1_555 1_555
O31_10 Zr3_10 1_555 1_555
N8_14 Cu4_28 1_555 1_555
O9_18 Zr3_10 1_555 1_555
N7_3 C4_18 1_555 1_555
C6_18 C7_18 1_555 1_555
C7_18 O16_18 1_555 1_555
N9_12 C8_18 1_555 1_555
Zr3_10 O22_10 1_555 1_555
C10_18 C11_18 1_555 1_555
C11_18 O23_18 1_555 1_555
N6_14 C12_18 1_555 1_555
Zr6_10 O29_10 1_555 1_555
Zr6_10 O31_10 1_555 1_555
C4_18 H7_18 1_555 1_555
C5_18 H8_18 1_555 1_555
O4_18 H9_5 1_555 1_555
C1_18 H11_18 1_555 1_555
C9_18 H20_18 1_555 1_555
C12_18 H23_18 1_555 1_555
C8_18 H26_18 1_555 1_555
O21_19 Zr3_11 1_555 1_555
O26_19 Zr3_11 1_555 1_555
Zr5_11 O8_11 1_555 1_555
Zr6_11 O22_11 1_555 1_555
O31_11 Zr3_11 1_555 1_555
O8_11 Zr3_11 1_555 1_555
Zr3_11 O22_11 1_555 1_555
Zr5_11 O31_11 1_555 1_555
Zr6_11 O31_11 1_555 1_555
Cu4_10 O1_19 1_555 1_555
Zr1_11 O5_19 1_555 1_555
O2_19 Cu4_10 1_555 1_555
O4_19 Cu4_10 1_555 1_555
O5_19 C3_19 1_555 1_555
O6_19 Zr1_11 1_555 1_555
O7_19 Zr1_11 1_555 1_555
N1_19 Cu4_10 1_555 1_555
C1_19 N1_19 1_555 1_555
C2_19 C1_19 1_555 1_555
C3_19 C2_19 1_555 1_555
O9_19 C3_19 1_555 1_555
N7_2 N1_19 1_555 1_555
C4_19 C2_19 1_555 1_555
Cu4_25 O10_19 1_555 1_555
Zr2_11 O7_19 1_555 1_555
O11_19 Cu4_25 1_555 1_555
O12_19 Cu4_25 1_555 1_555
O13_19 Zr2_11 1_555 1_555
O14_19 Zr2_11 1_555 1_555
O15_11 Zr1_11 1_555 1_555
N3_19 Cu4_25 1_555 1_555
C5_19 N3_19 1_555 1_555
C6_19 C5_19 1_555 1_555
C7_19 O13_19 1_555 1_555
O16_19 Zr1_11 1_555 1_555
N9_9 N3_19 1_555 1_555
C8_19 C6_19 1_555 1_555
Cu6_2 O17_19 1_555 1_555
O18_19 Cu6_2 1_555 1_555
O19_19 Cu6_2 1_555 1_555
N5_19 Cu6_2 1_555 1_555
C9_19 N5_19 1_555 1_555
C10_19 C9_19 1_555 1_555
C11_19 O20_19 1_555 1_555
O23_19 Zr2_11 1_555 1_555
N6_15 N5_19 1_555 1_555
C12_19 C10_19 1_555 1_555
O24_19 Zr1_11 1_555 1_555
O25_19 Zr2_11 1_555 1_555
Cu4_2 N6_15 1_555 1_555
Zr4_11 O15_11 1_555 1_555
O29_11 Zr2_11 1_555 1_555
O30_11 Zr1_11 1_555 1_555
N8_15 Cu4_25 1_555 1_555
N7_2 C4_19 1_555 1_555
Zr2_11 O15_11 1_555 1_555
C6_19 C7_19 1_555 1_555
C7_19 O16_19 1_555 1_555
N9_9 C8_19 1_555 1_555
C10_19 C11_19 1_555 1_555
C11_19 O23_19 1_555 1_555
N6_15 C12_19 1_555 1_555
Zr4_11 O29_11 1_555 1_555
Zr4_11 O30_11 1_555 1_555
C4_19 H7_19 1_555 1_555
C5_19 H8_19 1_555 1_555
C1_19 H11_19 1_555 1_555
C9_19 H20_19 1_555 1_555
C12_19 H23_19 1_555 1_555
C8_19 H26_19 1_555 1_555
O19_19 H31_5 1_555 1_555
Cu4_11 O1_20 1_555 1_555
Zr1_12 O5_20 1_555 1_555
O2_20 Cu4_11 1_555 1_555
O4_20 Cu4_11 1_555 1_555
O5_20 C3_20 1_555 1_555
O6_20 Zr1_12 1_555 1_555
O7_20 Zr1_12 1_555 1_555
O8_12 Zr1_12 1_555 1_555
N1_20 Cu4_11 1_555 1_555
C1_20 N1_20 1_555 1_555
C2_20 C1_20 1_555 1_555
C3_20 C2_20 1_555 1_555
O9_20 C3_20 1_555 1_555
N7 N1_20 1_555 1_555
C4_20 C2_20 1_555 1_555
Cu4_26 O10_20 1_555 1_555
Zr2_12 O7_20 1_555 1_555
O11_20 Cu4_26 1_555 1_555
O12_20 Cu4_26 1_555 1_555
O13_20 Zr2_12 1_555 1_555
O14_20 Zr2_12 1_555 1_555
O15_12 Zr1_12 1_555 1_555
N3_20 Cu4_26 1_555 1_555
C5_20 N3_20 1_555 1_555
C6_20 C5_20 1_555 1_555
C7_20 O13_20 1_555 1_555
O16_20 Zr1_12 1_555 1_555
N9_10 N3_20 1_555 1_555
C8_20 C6_20 1_555 1_555
Cu6 O17_20 1_555 1_555
Zr3_12 O7_20 1_555 1_555
O18_20 Cu6 1_555 1_555
O19_20 Cu6 1_555 1_555
O20_20 Zr3_12 1_555 1_555
O21_20 Zr3_12 1_555 1_555
O22_12 Zr2_12 1_555 1_555
N5_20 Cu6 1_555 1_555
C9_20 N5_20 1_555 1_555
C10_20 C9_20 1_555 1_555
C11_20 O20_20 1_555 1_555
O23_20 Zr2_12 1_555 1_555
N6_16 N5_20 1_555 1_555
C12_20 C10_20 1_555 1_555
O24_20 Zr1_12 1_555 1_555
O25_20 Zr2_12 1_555 1_555
O26_20 Zr3_12 1_555 1_555
Cu4 N6_16 1_555 1_555
Zr4_12 O15_12 1_555 1_555
Zr5_12 O8_12 1_555 1_555
Zr6_12 O22_12 1_555 1_555
O29_12 Zr2_12 1_555 1_555
O30_12 Zr1_12 1_555 1_555
O31_12 Zr3_12 1_555 1_555
N8_16 Cu4_26 1_555 1_555
O8_12 Zr3_12 1_555 1_555
O9_20 Zr3_12 1_555 1_555
N7 C4_20 1_555 1_555
Zr2_12 O15_12 1_555 1_555
C6_20 C7_20 1_555 1_555
C7_20 O16_20 1_555 1_555
N9_10 C8_20 1_555 1_555
Zr3_12 O22_12 1_555 1_555
C10_20 C11_20 1_555 1_555
C11_20 O23_20 1_555 1_555
N6_16 C12_20 1_555 1_555
Zr4_12 O29_12 1_555 1_555
Zr4_12 O30_12 1_555 1_555
Zr5_12 O30_12 1_555 1_555
Zr5_12 O31_12 1_555 1_555
Zr6_12 O29_12 1_555 1_555
Zr6_12 O31_12 1_555 1_555
C4_20 H7_20 1_555 1_555
C5_20 H8_20 1_555 1_555
C1_20 H11_20 1_555 1_555
C9_20 H20_20 1_555 1_555
C12_20 H23_20 1_555 1_555
C8_20 H26_20 1_555 1_555
Cu7_11 O1_21 1_555 1_555
Zr4_10 O5_21 1_555 1_555
O2_21 Cu7_11 1_555 1_555
O4_21 Cu7_11 1_555 1_555
O5_21 C3_21 1_555 1_555
O6_21 Zr4_10 1_555 1_555
O7_21 Zr4_10 1_555 1_555
N1_21 Cu7_11 1_555 1_555
C1_21 N1_21 1_555 1_555
C2_21 C1_21 1_555 1_555
C3_21 C2_21 1_555 1_555
O9_21 C3_21 1_555 1_555
N2_13 N1_21 1_555 1_555
C4_21 C2_21 1_555 1_555
Cu5_6 O10_21 1_555 1_555
Zr5_10 O7_21 1_555 1_555
O11_21 Cu5_6 1_555 1_555
O12_21 Cu5_6 1_555 1_555
O13_21 Zr5_10 1_555 1_555
O14_21 Zr5_10 1_555 1_555
N3_21 Cu5_6 1_555 1_555
C5_21 N3_21 1_555 1_555
C6_21 C5_21 1_555 1_555
C7_21 O13_21 1_555 1_555
O16_21 Zr4_10 1_555 1_555
N9_15 N3_21 1_555 1_555
C8_21 C6_21 1_555 1_555
Cu4_18 O17_21 1_555 1_555
O18_21 Cu4_18 1_555 1_555
O19_21 Cu4_18 1_555 1_555
N5_21 Cu4_18 1_555 1_555
C9_21 N5_21 1_555 1_555
C10_21 C9_21 1_555 1_555
C11_21 O20_21 1_555 1_555
O23_21 Zr5_10 1_555 1_555
N8_6 N5_21 1_555 1_555
C12_21 C10_21 1_555 1_555
O24_21 Zr4_10 1_555 1_555
O25_21 Zr5_10 1_555 1_555
N7_13 Cu4_18 1_555 1_555
N2_13 C4_21 1_555 1_555
N2_13 Cu4_29 1_555 1_555
C6_21 C7_21 1_555 1_555
C7_21 O16_21 1_555 1_555
N9_15 C8_21 1_555 1_555
C10_21 C11_21 1_555 1_555
C11_21 O23_21 1_555 1_555
N8_6 C12_21 1_555 1_555
C4_21 H7_21 1_555 1_555
C5_21 H8_21 1_555 1_555
C1_21 H11_21 1_555 1_555
C9_21 H20_21 1_555 1_555
C12_21 H23_21 1_555 1_555
C8_21 H26_21 1_555 1_555
O19_21 H31_6 1_555 1_555
O21_21 Zr6_10 1_555 1_555
O26_21 Zr6_10 1_555 1_555
Cu7_12 O1_22 1_555 1_555
Zr4_9 O5_22 1_555 1_555
O2_22 Cu7_12 1_555 1_555
O4_22 Cu7_12 1_555 1_555
O5_22 C3_22 1_555 1_555
O6_22 Zr4_9 1_555 1_555
O7_22 Zr4_9 1_555 1_555
N1_22 Cu7_12 1_555 1_555
C1_22 N1_22 1_555 1_555
C2_22 C1_22 1_555 1_555
C3_22 C2_22 1_555 1_555
O9_22 C3_22 1_555 1_555
N2_14 N1_22 1_555 1_555
C4_22 C2_22 1_555 1_555
Cu5_5 O10_22 1_555 1_555
O11_22 Cu5_5 1_555 1_555
O12_22 Cu5_5 1_555 1_555
N3_22 Cu5_5 1_555 1_555
C5_22 N3_22 1_555 1_555
C6_22 C5_22 1_555 1_555
C7_22 O13_22 1_555 1_555
O16_22 Zr4_9 1_555 1_555
N9_16 N3_22 1_555 1_555
C8_22 C6_22 1_555 1_555
Cu4_20 O17_22 1_555 1_555
Zr6_9 O7_22 1_555 1_555
O18_22 Cu4_20 1_555 1_555
O19_22 Cu4_20 1_555 1_555
O20_22 Zr6_9 1_555 1_555
O21_22 Zr6_9 1_555 1_555
N5_22 Cu4_20 1_555 1_555
C9_22 N5_22 1_555 1_555
C10_22 C9_22 1_555 1_555
C11_22 O20_22 1_555 1_555
N8_5 N5_22 1_555 1_555
C12_22 C10_22 1_555 1_555
O24_22 Zr4_9 1_555 1_555
O26_22 Zr6_9 1_555 1_555
N7_14 Cu4_20 1_555 1_555
O9_22 Zr6_9 1_555 1_555
N2_14 C4_22 1_555 1_555
N2_14 Cu4_31 1_555 1_555
C6_22 C7_22 1_555 1_555
C7_22 O16_22 1_555 1_555
N9_16 C8_22 1_555 1_555
C10_22 C11_22 1_555 1_555
C11_22 O23_22 1_555 1_555
N8_5 C12_22 1_555 1_555
O12_22 H1_6 1_555 1_555
C4_22 H7_22 1_555 1_555
C5_22 H8_22 1_555 1_555
C1_22 H11_22 1_555 1_555
C9_22 H20_22 1_555 1_555
C12_22 H23_22 1_555 1_555
C8_22 H26_22 1_555 1_555
O14_22 Zr5_9 1_555 1_555
O25_22 Zr5_9 1_555 1_555
Cu7_9 O1_23 1_555 1_555
O2_23 Cu7_9 1_555 1_555
O4_23 Cu7_9 1_555 1_555
O5_23 C3_23 1_555 1_555
N1_23 Cu7_9 1_555 1_555
C1_23 N1_23 1_555 1_555
C2_23 C1_23 1_555 1_555
C3_23 C2_23 1_555 1_555
O9_23 C3_23 1_555 1_555
N2_15 N1_23 1_555 1_555
C4_23 C2_23 1_555 1_555
Cu5_8 O10_23 1_555 1_555
Zr5_11 O7_23 1_555 1_555
O11_23 Cu5_8 1_555 1_555
O12_23 Cu5_8 1_555 1_555
O13_23 Zr5_11 1_555 1_555
O14_23 Zr5_11 1_555 1_555
N3_23 Cu5_8 1_555 1_555
C5_23 N3_23 1_555 1_555
C6_23 C5_23 1_555 1_555
C7_23 O13_23 1_555 1_555
N9_13 N3_23 1_555 1_555
C8_23 C6_23 1_555 1_555
Cu4_19 O17_23 1_555 1_555
Zr6_11 O7_23 1_555 1_555
O18_23 Cu4_19 1_555 1_555
O19_23 Cu4_19 1_555 1_555
O20_23 Zr6_11 1_555 1_555
O21_23 Zr6_11 1_555 1_555
N5_23 Cu4_19 1_555 1_555
C9_23 N5_23 1_555 1_555
C10_23 C9_23 1_555 1_555
C11_23 O20_23 1_555 1_555
O23_23 Zr5_11 1_555 1_555
N8_8 N5_23 1_555 1_555
C12_23 C10_23 1_555 1_555
O25_23 Zr5_11 1_555 1_555
O26_23 Zr6_11 1_555 1_555
N7_15 Cu4_19 1_555 1_555
O9_23 Zr6_11 1_555 1_555
N2_15 C4_23 1_555 1_555
N2_15 Cu4_32 1_555 1_555
C6_23 C7_23 1_555 1_555
C7_23 O16_23 1_555 1_555
N9_13 C8_23 1_555 1_555
C10_23 C11_23 1_555 1_555
C11_23 O23_23 1_555 1_555
N8_8 C12_23 1_555 1_555
C4_23 H7_23 1_555 1_555
C5_23 H8_23 1_555 1_555
O4_23 H9_6 1_555 1_555
C1_23 H11_23 1_555 1_555
C9_23 H20_23 1_555 1_555
C12_23 H23_23 1_555 1_555
C8_23 H26_23 1_555 1_555
O6_23 Zr4_11 1_555 1_555
O24_23 Zr4_11 1_555 1_555
Cu7_10 O1_24 1_555 1_555
Zr4_12 O5_24 1_555 1_555
O2_24 Cu7_10 1_555 1_555
O4_24 Cu7_10 1_555 1_555
O5_24 C3_24 1_555 1_555
O6_24 Zr4_12 1_555 1_555
O7_24 Zr4_12 1_555 1_555
N1_24 Cu7_10 1_555 1_555
C1_24 N1_24 1_555 1_555
C2_24 C1_24 1_555 1_555
C3_24 C2_24 1_555 1_555
O9_24 C3_24 1_555 1_555
N2_16 N1_24 1_555 1_555
C4_24 C2_24 1_555 1_555
Cu5_7 O10_24 1_555 1_555
Zr5_12 O7_24 1_555 1_555
O11_24 Cu5_7 1_555 1_555
O12_24 Cu5_7 1_555 1_555
O13_24 Zr5_12 1_555 1_555
O14_24 Zr5_12 1_555 1_555
N3_24 Cu5_7 1_555 1_555
C5_24 N3_24 1_555 1_555
C6_24 C5_24 1_555 1_555
C7_24 O13_24 1_555 1_555
O16_24 Zr4_12 1_555 1_555
N9_14 N3_24 1_555 1_555
C8_24 C6_24 1_555 1_555
Cu4_17 O17_24 1_555 1_555
Zr6_12 O7_24 1_555 1_555
O18_24 Cu4_17 1_555 1_555
O19_24 Cu4_17 1_555 1_555
O20_24 Zr6_12 1_555 1_555
O21_24 Zr6_12 1_555 1_555
N5_24 Cu4_17 1_555 1_555
C9_24 N5_24 1_555 1_555
C10_24 C9_24 1_555 1_555
C11_24 O20_24 1_555 1_555
O23_24 Zr5_12 1_555 1_555
N8_7 N5_24 1_555 1_555
C12_24 C10_24 1_555 1_555
O24_24 Zr4_12 1_555 1_555
O25_24 Zr5_12 1_555 1_555
O26_24 Zr6_12 1_555 1_555
N7_16 Cu4_17 1_555 1_555
O9_24 Zr6_12 1_555 1_555
N2_16 C4_24 1_555 1_555
N2_16 Cu4_30 1_555 1_555
C6_24 C7_24 1_555 1_555
C7_24 O16_24 1_555 1_555
N9_14 C8_24 1_555 1_555
C10_24 C11_24 1_555 1_555
C11_24 O23_24 1_555 1_555
N8_7 C12_24 1_555 1_555
C4_24 H7_24 1_555 1_555
C5_24 H8_24 1_555 1_555
C1_24 H11_24 1_555 1_555
C9_24 H20_24 1_555 1_555
C12_24 H23_24 1_555 1_555
C8_24 H26_24 1_555 1_555
Cu7_3 O1_25 1_555 1_555
Zr1_13 O5_25 1_555 1_555
O2_25 Cu7_3 1_555 1_555
O4_25 Cu7_3 1_555 1_555
O5_25 C3_25 1_555 1_555
O6_25 Zr1_13 1_555 1_555
O7_25 Zr1_13 1_555 1_555
O8_13 Zr1_13 1_555 1_555
N1_25 Cu7_3 1_555 1_555
C1_25 N1_25 1_555 1_555
C2_25 C1_25 1_555 1_555
C3_25 C2_25 1_555 1_555
O9_25 C3_25 1_555 1_555
N7_12 N1_25 1_555 1_555
C4_25 C2_25 1_555 1_555
Cu4_3 O10_25 1_555 1_555
Zr2_13 O7_25 1_555 1_555
O11_25 Cu4_3 1_555 1_555
O12_25 Cu4_3 1_555 1_555
O13_25 Zr2_13 1_555 1_555
O14_25 Zr2_13 1_555 1_555
O15_13 Zr1_13 1_555 1_555
N3_25 Cu4_3 1_555 1_555
C5_25 N3_25 1_555 1_555
C6_25 C5_25 1_555 1_555
C7_25 O13_25 1_555 1_555
O16_25 Zr1_13 1_555 1_555
N9_3 N3_25 1_555 1_555
C8_25 C6_25 1_555 1_555
Cu6_12 O17_25 1_555 1_555
Zr3_13 O7_25 1_555 1_555
O18_25 Cu6_12 1_555 1_555
O19_25 Cu6_12 1_555 1_555
O20_25 Zr3_13 1_555 1_555
O21_25 Zr3_13 1_555 1_555
O22_13 Zr2_13 1_555 1_555
N5_25 Cu6_12 1_555 1_555
C9_25 N5_25 1_555 1_555
C10_25 C9_25 1_555 1_555
C11_25 O20_25 1_555 1_555
O23_25 Zr2_13 1_555 1_555
N8_14 N5_25 1_555 1_555
C12_25 C10_25 1_555 1_555
O24_25 Zr1_13 1_555 1_555
O25_25 Zr2_13 1_555 1_555
O26_25 Zr3_13 1_555 1_555
Zr4_13 O15_13 1_555 1_555
Zr5_13 O8_13 1_555 1_555
Zr6_13 O22_13 1_555 1_555
O29_13 Zr2_13 1_555 1_555
O30_13 Zr1_13 1_555 1_555
O31_13 Zr3_13 1_555 1_555
O8_13 Zr3_13 1_555 1_555
O9_25 Zr3_13 1_555 1_555
N7_12 C4_25 1_555 1_555
Zr2_13 O15_13 1_555 1_555
C6_25 C7_25 1_555 1_555
C7_25 O16_25 1_555 1_555
N9_3 C8_25 1_555 1_555
Zr3_13 O22_13 1_555 1_555
C10_25 C11_25 1_555 1_555
C11_25 O23_25 1_555 1_555
N8_14 C12_25 1_555 1_555
Zr4_13 O29_13 1_555 1_555
Zr4_13 O30_13 1_555 1_555
Zr5_13 O30_13 1_555 1_555
Zr5_13 O31_13 1_555 1_555
Zr6_13 O29_13 1_555 1_555
Zr6_13 O31_13 1_555 1_555
C4_25 H7_25 1_555 1_555
C5_25 H8_25 1_555 1_555
C1_25 H11_25 1_555 1_555
C9_25 H20_25 1_555 1_555
C12_25 H23_25 1_555 1_555
C8_25 H26_25 1_555 1_555
O14_26 Zr2_14 1_555 1_555
O22_14 Zr2_14 1_555 1_555
O25_26 Zr2_14 1_555 1_555
Zr4_14 O15_14 1_555 1_555
Zr6_14 O22_14 1_555 1_555
O29_14 Zr2_14 1_555 1_555
Zr2_14 O15_14 1_555 1_555
Zr4_14 O29_14 1_555 1_555
Zr6_14 O29_14 1_555 1_555
Cu7_4 O1_26 1_555 1_555
Zr1_14 O5_26 1_555 1_555
O2_26 Cu7_4 1_555 1_555
O4_26 Cu7_4 1_555 1_555
O5_26 C3_26 1_555 1_555
O6_26 Zr1_14 1_555 1_555
O7_26 Zr1_14 1_555 1_555
O8_14 Zr1_14 1_555 1_555
N1_26 Cu7_4 1_555 1_555
C1_26 N1_26 1_555 1_555
C2_26 C1_26 1_555 1_555
C3_26 C2_26 1_555 1_555
O9_26 C3_26 1_555 1_555
N7_11 N1_26 1_555 1_555
C4_26 C2_26 1_555 1_555
Cu4_4 O10_26 1_555 1_555
O11_26 Cu4_4 1_555 1_555
O12_26 Cu4_4 1_555 1_555
N3_26 Cu4_4 1_555 1_555
C5_26 N3_26 1_555 1_555
C6_26 C5_26 1_555 1_555
C7_26 O13_26 1_555 1_555
O16_26 Zr1_14 1_555 1_555
N9_4 N3_26 1_555 1_555
C8_26 C6_26 1_555 1_555
Cu6_11 O17_26 1_555 1_555
Zr3_14 O7_26 1_555 1_555
O18_26 Cu6_11 1_555 1_555
O19_26 Cu6_11 1_555 1_555
O20_26 Zr3_14 1_555 1_555
O21_26 Zr3_14 1_555 1_555
N5_26 Cu6_11 1_555 1_555
C9_26 N5_26 1_555 1_555
C10_26 C9_26 1_555 1_555
C11_26 O20_26 1_555 1_555
N8_13 N5_26 1_555 1_555
C12_26 C10_26 1_555 1_555
O24_26 Zr1_14 1_555 1_555
O26_26 Zr3_14 1_555 1_555
Zr5_14 O8_14 1_555 1_555
O30_14 Zr1_14 1_555 1_555
O31_14 Zr3_14 1_555 1_555
O8_14 Zr3_14 1_555 1_555
O9_26 Zr3_14 1_555 1_555
N7_11 C4_26 1_555 1_555
C6_26 C7_26 1_555 1_555
C7_26 O16_26 1_555 1_555
N9_4 C8_26 1_555 1_555
C10_26 C11_26 1_555 1_555
C11_26 O23_26 1_555 1_555
N8_13 C12_26 1_555 1_555
Zr5_14 O30_14 1_555 1_555
Zr5_14 O31_14 1_555 1_555
O12_26 H1_7 1_555 1_555
C4_26 H7_26 1_555 1_555
C5_26 H8_26 1_555 1_555
C1_26 H11_26 1_555 1_555
C9_26 H20_26 1_555 1_555
C12_26 H23_26 1_555 1_555
C8_26 H26_26 1_555 1_555
O21_27 Zr3_15 1_555 1_555
O26_27 Zr3_15 1_555 1_555
Zr5_15 O8_15 1_555 1_555
Zr6_15 O22_15 1_555 1_555
O31_15 Zr3_15 1_555 1_555
O8_15 Zr3_15 1_555 1_555
Zr3_15 O22_15 1_555 1_555
Zr5_15 O31_15 1_555 1_555
Zr6_15 O31_15 1_555 1_555
Cu7 O1_27 1_555 1_555
Zr1_15 O5_27 1_555 1_555
O2_27 Cu7 1_555 1_555
O4_27 Cu7 1_555 1_555
O5_27 C3_27 1_555 1_555
O6_27 Zr1_15 1_555 1_555
O7_27 Zr1_15 1_555 1_555
N1_27 Cu7 1_555 1_555
C1_27 N1_27 1_555 1_555
C2_27 C1_27 1_555 1_555
C3_27 C2_27 1_555 1_555
O9_27 C3_27 1_555 1_555
N7_10 N1_27 1_555 1_555
C4_27 C2_27 1_555 1_555
Cu4 O10_27 1_555 1_555
Zr2_15 O7_27 1_555 1_555
O11_27 Cu4 1_555 1_555
O12_27 Cu4 1_555 1_555
O13_27 Zr2_15 1_555 1_555
O14_27 Zr2_15 1_555 1_555
O15_15 Zr1_15 1_555 1_555
N3_27 Cu4 1_555 1_555
C5_27 N3_27 1_555 1_555
C6_27 C5_27 1_555 1_555
C7_27 O13_27 1_555 1_555
O16_27 Zr1_15 1_555 1_555
N9 N3_27 1_555 1_555
C8_27 C6_27 1_555 1_555
Cu6_10 O17_27 1_555 1_555
O18_27 Cu6_10 1_555 1_555
O19_27 Cu6_10 1_555 1_555
N5_27 Cu6_10 1_555 1_555
C9_27 N5_27 1_555 1_555
C10_27 C9_27 1_555 1_555
C11_27 O20_27 1_555 1_555
O23_27 Zr2_15 1_555 1_555
N8_16 N5_27 1_555 1_555
C12_27 C10_27 1_555 1_555
O24_27 Zr1_15 1_555 1_555
O25_27 Zr2_15 1_555 1_555
Zr4_15 O15_15 1_555 1_555
O29_15 Zr2_15 1_555 1_555
O30_15 Zr1_15 1_555 1_555
N7_10 C4_27 1_555 1_555
Zr2_15 O15_15 1_555 1_555
C6_27 C7_27 1_555 1_555
C7_27 O16_27 1_555 1_555
N9 C8_27 1_555 1_555
C10_27 C11_27 1_555 1_555
C11_27 O23_27 1_555 1_555
N8_16 C12_27 1_555 1_555
Zr4_15 O29_15 1_555 1_555
Zr4_15 O30_15 1_555 1_555
C4_27 H7_27 1_555 1_555
C5_27 H8_27 1_555 1_555
C1_27 H11_27 1_555 1_555
C9_27 H20_27 1_555 1_555
C12_27 H23_27 1_555 1_555
C8_27 H26_27 1_555 1_555
O19_27 H31_7 1_555 1_555
O6_28 Zr1_16 1_555 1_555
O8_16 Zr1_16 1_555 1_555
O15_16 Zr1_16 1_555 1_555
O24_28 Zr1_16 1_555 1_555
Zr4_16 O15_16 1_555 1_555
Zr5_16 O8_16 1_555 1_555
O30_16 Zr1_16 1_555 1_555
Zr4_16 O30_16 1_555 1_555
Zr5_16 O30_16 1_555 1_555
Cu7_2 O1_28 1_555 1_555
O2_28 Cu7_2 1_555 1_555
O4_28 Cu7_2 1_555 1_555
O5_28 C3_28 1_555 1_555
N1_28 Cu7_2 1_555 1_555
C1_28 N1_28 1_555 1_555
C2_28 C1_28 1_555 1_555
C3_28 C2_28 1_555 1_555
O9_28 C3_28 1_555 1_555
N7_9 N1_28 1_555 1_555
C4_28 C2_28 1_555 1_555
Cu4_2 O10_28 1_555 1_555
Zr2_16 O7_28 1_555 1_555
O11_28 Cu4_2 1_555 1_555
O12_28 Cu4_2 1_555 1_555
O13_28 Zr2_16 1_555 1_555
O14_28 Zr2_16 1_555 1_555
N3_28 Cu4_2 1_555 1_555
C5_28 N3_28 1_555 1_555
C6_28 C5_28 1_555 1_555
C7_28 O13_28 1_555 1_555
N9_2 N3_28 1_555 1_555
C8_28 C6_28 1_555 1_555
Cu6_9 O17_28 1_555 1_555
Zr3_16 O7_28 1_555 1_555
O18_28 Cu6_9 1_555 1_555
O19_28 Cu6_9 1_555 1_555
O20_28 Zr3_16 1_555 1_555
O21_28 Zr3_16 1_555 1_555
O22_16 Zr2_16 1_555 1_555
N5_28 Cu6_9 1_555 1_555
C9_28 N5_28 1_555 1_555
C10_28 C9_28 1_555 1_555
C11_28 O20_28 1_555 1_555
O23_28 Zr2_16 1_555 1_555
N8_15 N5_28 1_555 1_555
C12_28 C10_28 1_555 1_555
O25_28 Zr2_16 1_555 1_555
O26_28 Zr3_16 1_555 1_555
Zr6_16 O22_16 1_555 1_555
O29_16 Zr2_16 1_555 1_555
O31_16 Zr3_16 1_555 1_555
O9_28 Zr3_16 1_555 1_555
N7_9 C4_28 1_555 1_555
C6_28 C7_28 1_555 1_555
C7_28 O16_28 1_555 1_555
N9_2 C8_28 1_555 1_555
Zr3_16 O22_16 1_555 1_555
C10_28 C11_28 1_555 1_555
C11_28 O23_28 1_555 1_555
N8_15 C12_28 1_555 1_555
Zr6_16 O29_16 1_555 1_555
Zr6_16 O31_16 1_555 1_555
C4_28 H7_28 1_555 1_555
C5_28 H8_28 1_555 1_555
O4_28 H9_7 1_555 1_555
C1_28 H11_28 1_555 1_555
C9_28 H20_28 1_555 1_555
C12_28 H23_28 1_555 1_555
C8_28 H26_28 1_555 1_555
Cu7_7 O1_29 1_555 1_555
Zr4_14 O5_29 1_555 1_555
O2_29 Cu7_7 1_555 1_555
O4_29 Cu7_7 1_555 1_555
O5_29 C3_29 1_555 1_555
O6_29 Zr4_14 1_555 1_555
O7_29 Zr4_14 1_555 1_555
N1_29 Cu7_7 1_555 1_555
C1_29 N1_29 1_555 1_555
C2_29 C1_29 1_555 1_555
C3_29 C2_29 1_555 1_555
O9_29 C3_29 1_555 1_555
N7_16 N1_29 1_555 1_555
C4_29 C2_29 1_555 1_555
Cu4_15 O10_29 1_555 1_555
O11_29 Cu4_15 1_555 1_555
O12_29 Cu4_15 1_555 1_555
N3_29 Cu4_15 1_555 1_555
C5_29 N3_29 1_555 1_555
C6_29 C5_29 1_555 1_555
C7_29 O13_29 1_555 1_555
O16_29 Zr4_14 1_555 1_555
N9_7 N3_29 1_555 1_555
C8_29 C6_29 1_555 1_555
Cu4_30 O17_29 1_555 1_555
Zr6_14 O7_29 1_555 1_555
O18_29 Cu4_30 1_555 1_555
O19_29 Cu4_30 1_555 1_555
O20_29 Zr6_14 1_555 1_555
O21_29 Zr6_14 1_555 1_555
N5_29 Cu4_30 1_555 1_555
C9_29 N5_29 1_555 1_555
C10_29 C9_29 1_555 1_555
C11_29 O20_29 1_555 1_555
N8_10 N5_29 1_555 1_555
C12_29 C10_29 1_555 1_555
O24_29 Zr4_14 1_555 1_555
O26_29 Zr6_14 1_555 1_555
O9_29 Zr6_14 1_555 1_555
N7_16 C4_29 1_555 1_555
C6_29 C7_29 1_555 1_555
C7_29 O16_29 1_555 1_555
N9_7 C8_29 1_555 1_555
C10_29 C11_29 1_555 1_555
C11_29 O23_29 1_555 1_555
N8_10 C12_29 1_555 1_555
O12_29 H1_8 1_555 1_555
C4_29 H7_29 1_555 1_555
C5_29 H8_29 1_555 1_555
C1_29 H11_29 1_555 1_555
C9_29 H20_29 1_555 1_555
C12_29 H23_29 1_555 1_555
C8_29 H26_29 1_555 1_555
O14_29 Zr5_14 1_555 1_555
O25_29 Zr5_14 1_555 1_555
Cu7_8 O1_30 1_555 1_555
Zr4_13 O5_30 1_555 1_555
O2_30 Cu7_8 1_555 1_555
O4_30 Cu7_8 1_555 1_555
O5_30 C3_30 1_555 1_555
O6_30 Zr4_13 1_555 1_555
O7_30 Zr4_13 1_555 1_555
N1_30 Cu7_8 1_555 1_555
C1_30 N1_30 1_555 1_555
C2_30 C1_30 1_555 1_555
C3_30 C2_30 1_555 1_555
O9_30 C3_30 1_555 1_555
N7_15 N1_30 1_555 1_555
C4_30 C2_30 1_555 1_555
Cu4_16 O10_30 1_555 1_555
Zr5_13 O7_30 1_555 1_555
O11_30 Cu4_16 1_555 1_555
O12_30 Cu4_16 1_555 1_555
O13_30 Zr5_13 1_555 1_555
O14_30 Zr5_13 1_555 1_555
N3_30 Cu4_16 1_555 1_555
C5_30 N3_30 1_555 1_555
C6_30 C5_30 1_555 1_555
C7_30 O13_30 1_555 1_555
O16_30 Zr4_13 1_555 1_555
N9_8 N3_30 1_555 1_555
C8_30 C6_30 1_555 1_555
Cu4_32 O17_30 1_555 1_555
Zr6_13 O7_30 1_555 1_555
O18_30 Cu4_32 1_555 1_555
O19_30 Cu4_32 1_555 1_555
O20_30 Zr6_13 1_555 1_555
O21_30 Zr6_13 1_555 1_555
N5_30 Cu4_32 1_555 1_555
C9_30 N5_30 1_555 1_555
C10_30 C9_30 1_555 1_555
C11_30 O20_30 1_555 1_555
O23_30 Zr5_13 1_555 1_555
N8_9 N5_30 1_555 1_555
C12_30 C10_30 1_555 1_555
O24_30 Zr4_13 1_555 1_555
O25_30 Zr5_13 1_555 1_555
O26_30 Zr6_13 1_555 1_555
O9_30 Zr6_13 1_555 1_555
N7_15 C4_30 1_555 1_555
C6_30 C7_30 1_555 1_555
C7_30 O16_30 1_555 1_555
N9_8 C8_30 1_555 1_555
C10_30 C11_30 1_555 1_555
C11_30 O23_30 1_555 1_555
N8_9 C12_30 1_555 1_555
C4_30 H7_30 1_555 1_555
C5_30 H8_30 1_555 1_555
C1_30 H11_30 1_555 1_555
C9_30 H20_30 1_555 1_555
C12_30 H23_30 1_555 1_555
C8_30 H26_30 1_555 1_555
Cu7_5 O1_31 1_555 1_555
O2_31 Cu7_5 1_555 1_555
O4_31 Cu7_5 1_555 1_555
O5_31 C3_31 1_555 1_555
N1_31 Cu7_5 1_555 1_555
C1_31 N1_31 1_555 1_555
C2_31 C1_31 1_555 1_555
C3_31 C2_31 1_555 1_555
O9_31 C3_31 1_555 1_555
N7_14 N1_31 1_555 1_555
C4_31 C2_31 1_555 1_555
Cu4_13 O10_31 1_555 1_555
Zr5_15 O7_31 1_555 1_555
O11_31 Cu4_13 1_555 1_555
O12_31 Cu4_13 1_555 1_555
O13_31 Zr5_15 1_555 1_555
O14_31 Zr5_15 1_555 1_555
N3_31 Cu4_13 1_555 1_555
C5_31 N3_31 1_555 1_555
C6_31 C5_31 1_555 1_555
C7_31 O13_31 1_555 1_555
N9_5 N3_31 1_555 1_555
C8_31 C6_31 1_555 1_555
Cu4_31 O17_31 1_555 1_555
Zr6_15 O7_31 1_555 1_555
O18_31 Cu4_31 1_555 1_555
O19_31 Cu4_31 1_555 1_555
O20_31 Zr6_15 1_555 1_555
O21_31 Zr6_15 1_555 1_555
N5_31 Cu4_31 1_555 1_555
C9_31 N5_31 1_555 1_555
C10_31 C9_31 1_555 1_555
C11_31 O20_31 1_555 1_555
O23_31 Zr5_15 1_555 1_555
N8_12 N5_31 1_555 1_555
C12_31 C10_31 1_555 1_555
O25_31 Zr5_15 1_555 1_555
O26_31 Zr6_15 1_555 1_555
O9_31 Zr6_15 1_555 1_555
N7_14 C4_31 1_555 1_555
C6_31 C7_31 1_555 1_555
C7_31 O16_31 1_555 1_555
N9_5 C8_31 1_555 1_555
C10_31 C11_31 1_555 1_555
C11_31 O23_31 1_555 1_555
N8_12 C12_31 1_555 1_555
C4_31 H7_31 1_555 1_555
C5_31 H8_31 1_555 1_555
O4_31 H9_8 1_555 1_555
C1_31 H11_31 1_555 1_555
C9_31 H20_31 1_555 1_555
C12_31 H23_31 1_555 1_555
C8_31 H26_31 1_555 1_555
O6_31 Zr4_15 1_555 1_555
O24_31 Zr4_15 1_555 1_555
Cu7_6 O1_32 1_555 1_555
Zr4_16 O5_32 1_555 1_555
O2_32 Cu7_6 1_555 1_555
O4_32 Cu7_6 1_555 1_555
O5_32 C3_32 1_555 1_555
O6_32 Zr4_16 1_555 1_555
O7_32 Zr4_16 1_555 1_555
N1_32 Cu7_6 1_555 1_555
C1_32 N1_32 1_555 1_555
C2_32 C1_32 1_555 1_555
C3_32 C2_32 1_555 1_555
O9_32 C3_32 1_555 1_555
N7_13 N1_32 1_555 1_555
C4_32 C2_32 1_555 1_555
Cu4_14 O10_32 1_555 1_555
Zr5_16 O7_32 1_555 1_555
O11_32 Cu4_14 1_555 1_555
O12_32 Cu4_14 1_555 1_555
O13_32 Zr5_16 1_555 1_555
O14_32 Zr5_16 1_555 1_555
N3_32 Cu4_14 1_555 1_555
C5_32 N3_32 1_555 1_555
C6_32 C5_32 1_555 1_555
C7_32 O13_32 1_555 1_555
O16_32 Zr4_16 1_555 1_555
N9_6 N3_32 1_555 1_555
C8_32 C6_32 1_555 1_555
Cu4_29 O17_32 1_555 1_555
O18_32 Cu4_29 1_555 1_555
O19_32 Cu4_29 1_555 1_555
N5_32 Cu4_29 1_555 1_555
C9_32 N5_32 1_555 1_555
C10_32 C9_32 1_555 1_555
C11_32 O20_32 1_555 1_555
O23_32 Zr5_16 1_555 1_555
N8_11 N5_32 1_555 1_555
C12_32 C10_32 1_555 1_555
O24_32 Zr4_16 1_555 1_555
O25_32 Zr5_16 1_555 1_555
N7_13 C4_32 1_555 1_555
C6_32 C7_32 1_555 1_555
C7_32 O16_32 1_555 1_555
N9_6 C8_32 1_555 1_555
C10_32 C11_32 1_555 1_555
C11_32 O23_32 1_555 1_555
N8_11 C12_32 1_555 1_555
C4_32 H7_32 1_555 1_555
C5_32 H8_32 1_555 1_555
C1_32 H11_32 1_555 1_555
C9_32 H20_32 1_555 1_555
C12_32 H23_32 1_555 1_555
C8_32 H26_32 1_555 1_555
O19_32 H31_8 1_555 1_555
O21_32 Zr6_16 1_555 1_555
O26_32 Zr6_16 1_555 1_555
O12_22 H1_9 1_555 1_555
O19_16 H9_9 1_555 1_555
O4_31 H31_9 1_555 1_555
O12_9 H1_10 1_555 1_555
O19_19 H9_10 1_555 1_555
O4_28 H31_10 1_555 1_555
O12_5 H1_11 1_555 1_555
O4_23 H31_11 1_555 1_555
O19_21 H9_11 1_555 1_555
O19_27 H9_12 1_555 1_555
O12_26 H1_12 1_555 1_555
O4_2 H31_12 1_555 1_555
O12_29 H1_13 1_555 1_555
O19_32 H9_13 1_555 1_555
O4_5 H31_13 1_555 1_555
O4_12 H31_14 1_555 1_555
O12_2 H1_14 1_555 1_555
O19_10 H9_14 1_555 1_555
O12_14 H1_15 1_555 1_555
O4_13 H31_15 1_555 1_555
O19_5 H9_15 1_555 1_555
O12_17 H1_16 1_555 1_555
O19_2 H9_16 1_555 1_555
O4_18 H31_16 1_555 1_555

#END
