
###############################################################################
#
# This file contains modified crystal structure data generated from the
# MOF subset of the Cambridge Structural Database (CSD) v543 
# hosted by the Cambridge Crystallographic Data Centre (CCDC).
#
# This work is licensed under the Creative Commons
# Attribution-NonCommercial-ShareAlike 4.0 International License.
# To view a copy of this license, visit
# http://creativecommons.org/licenses/by-nc-sa/4.0/
# or send a letter to
# Creative Commons, PO Box 1866, Mountain View, CA 94042, USA.
#
# CIF created using the CSD Python API on 29 September 2022
# The structure has been converted into the P1 space group
# The structure has a 3D framework
# The original CSD entry DIMJUG is in the monoclinic crystal system
# The framework has been calculated to contain at least 10.0% void space
# The void calculation uses a probe of radius 1.32A, grid spacing 0.4
#
###############################################################################

data_DIMJUG
_chemical_formula_moiety         '(C96 H88 N32 O80 Tb8 Zn8)n'
_symmetry_cell_setting           triclinic
_symmetry_space_group_name_H-M   'P 1'
_symmetry_Int_Tables_number      1
_space_group_name_Hall           'P 1'
loop_
_symmetry_equiv_pos_site_id
_symmetry_equiv_pos_as_xyz
1 x,y,z
_cell_length_a                   24.368(17)
_cell_length_b                   9.214(6)
_cell_length_c                   19.198(13)
_cell_angle_alpha                90
_cell_angle_beta                 114.289(7)
_cell_angle_gamma                90
_cell_volume                     3928.91
loop_
_atom_site_label
_atom_site_type_symbol
_atom_site_fract_x
_atom_site_fract_y
_atom_site_fract_z
Zn1 Zn 0.211687(18) 0.01431(5) 0.33443(2)
O1 O 0.12096(11) 0.0460(3) 0.23754(16)
O2 O 0.07759(11) 0.1354(3) 0.12105(15)
O3 O 0.10981(11) 0.3766(3) 0.05221(16)
O4 O 0.19692(11) 0.4854(3) 0.07486(15)
O7 O 0.04787(10) 0.0667(3) 0.49520(15)
O8 O 0.04316(11) 0.3029(3) 0.48367(17)
N1 N 0.22766(13) 0.1696(3) 0.26680(18)
N2 N 0.25678(13) 0.3378(3) 0.20497(18)
N3 N 0.18435(13) 0.1517(4) 0.40364(18)
N4 N 0.14426(15) 0.3163(4) 0.4511(2)
H5 H 0.1364 0.3994 0.4653
C1 C 0.17920(16) 0.2032(4) 0.2001(2)
C2 C 0.19681(15) 0.3075(4) 0.1619(2)
C3 C 0.27332(15) 0.2522(5) 0.2666(2)
C4 C 0.12226(15) 0.1251(4) 0.1853(2)
C5 C 0.16556(16) 0.3930(4) 0.0910(2)
C6 C 0.33537(19) 0.2507(6) 0.3282(3)
H6 H 0.3640 0.2566 0.3058
H7 H 0.3416 0.1624 0.3570
H8 H 0.3405 0.3322 0.3615
C7 C 0.14434(15) 0.0845(4) 0.4277(2)
C8 C 0.11849(16) 0.1861(4) 0.4568(2)
C9 C 0.18376(17) 0.2920(4) 0.4197(2)
C11 C 0.06749(15) 0.1842(4) 0.4799(2)
C12 C 0.2198(2) 0.4086(5) 0.4041(3)
H9 H 0.2576 0.3693 0.4085
H10 H 0.2270 0.4857 0.4404
H11 H 0.1981 0.4456 0.3534
Zn2 Zn 0.288313(18) 0.51431(5) 0.16557(2)
Tb1 Tb 0.041452(7) 0.195762(19) 0.993687(10)
O9 O 0.01845(13) 0.4164(3) 0.91803(16)
H1 H 0.0391 0.5037 0.9547
O12 O 0.11348(13) 0.1479(3) 0.95187(19)
O5 O 0.16358(13) 0.8681(3) 0.37867(17)
O6 O 0.11348(13) 0.8521(3) 0.45187(19)
C10 C 0.13942(15) 0.9234(4) 0.4185(2)
Tb3 Tb 0.041452(7) 0.804238(19) 0.493687(10)
O11 O 0.30308(11) 0.9854(3) 0.42514(15)
N5 N 0.24322(13) 0.8378(3) 0.29503(18)
O14 O 0.04787(10) 0.9333(3) 0.99520(15)
Tb2 Tb 0.958548(7) 0.195762(19) 0.506313(10)
O13 O 0.95213(10) 0.0667(3) 0.00480(15)
O15 O 0.95684(11) 0.3029(3) 0.01633(17)
H2 H 0.0146 0.4436 0.6211
O10 O 0.02040(13) 0.1319(3) 0.63342(17)
H3 H 0.0229 0.1634 0.6698
H4 H 0.0389 0.0402 0.6434
Zn1_2 Zn 0.788313(18) 0.01431(5) 0.16557(2)
O1_2 O 0.87904(11) 0.0460(3) 0.26246(16)
O2_2 O 0.92241(11) 0.1354(3) 0.37895(15)
O3_2 O 0.89019(11) 0.3766(3) 0.44779(16)
O4_2 O 0.80308(11) 0.4854(3) 0.42514(15)
O9_2 O 0.98155(13) 0.4164(3) 0.58197(16)
H1_2 H 0.9609 0.5037 0.5453
N1_2 N 0.77234(13) 0.1696(3) 0.23320(18)
N2_2 N 0.74322(13) 0.3378(3) 0.29503(18)
N3_2 N 0.81565(13) 0.1517(4) 0.09636(18)
N4_2 N 0.85574(15) 0.3163(4) 0.0489(2)
H5_2 H 0.8636 0.3994 0.0347
C1_2 C 0.82080(16) 0.2032(4) 0.2999(2)
C2_2 C 0.80319(15) 0.3075(4) 0.3381(2)
C3_2 C 0.72668(15) 0.2522(5) 0.2334(2)
C4_2 C 0.87774(15) 0.1251(4) 0.3147(2)
C5_2 C 0.83444(16) 0.3930(4) 0.4090(2)
C6_2 C 0.66463(19) 0.2507(6) 0.1718(3)
H6_2 H 0.6360 0.2566 0.1942
H7_2 H 0.6584 0.1624 0.1430
H8_2 H 0.6595 0.3322 0.1385
C7_2 C 0.85566(15) 0.0845(4) 0.0723(2)
C8_2 C 0.88151(16) 0.1861(4) 0.0432(2)
C9_2 C 0.81624(17) 0.2920(4) 0.0803(2)
C11_2 C 0.93251(15) 0.1842(4) 0.0201(2)
C12_2 C 0.7802(2) 0.4086(5) 0.0959(3)
H9_2 H 0.7424 0.3693 0.0915
H10_2 H 0.7730 0.4857 0.0596
H11_2 H 0.8019 0.4456 0.1466
Zn2_2 Zn 0.711687(18) 0.51431(5) 0.33443(2)
O12_2 O 0.88652(13) 0.1479(3) 0.54813(19)
O5_2 O 0.83642(13) 0.8681(3) 0.12133(17)
O6_2 O 0.88652(13) 0.8521(3) 0.04813(19)
C10_2 C 0.86058(15) 0.9234(4) 0.0815(2)
Tb3_2 Tb 0.958548(7) 0.804238(19) 0.006313(10)
O11_2 O 0.69692(11) 0.9854(3) 0.07486(15)
O14_2 O 0.95213(10) 0.9333(3) 0.50480(15)
N5_2 N 0.75678(13) 0.8378(3) 0.20497(18)
O1_3 O 0.62096(11) 0.5460(3) 0.23754(16)
O2_3 O 0.57759(11) 0.6354(3) 0.12105(15)
O3_3 O 0.60981(11) 0.8766(3) 0.05221(16)
O5_3 O 0.66358(13) 0.3681(3) 0.37867(17)
O6_3 O 0.61348(13) 0.3521(3) 0.45187(19)
O7_2 O 0.54787(10) 0.5667(3) 0.49520(15)
O8_2 O 0.54316(11) 0.8029(3) 0.48367(17)
N1_3 N 0.72766(13) 0.6696(3) 0.26680(18)
N3_3 N 0.68435(13) 0.6517(4) 0.40364(18)
N4_3 N 0.64426(15) 0.8163(4) 0.4511(2)
H5_3 H 0.6364 0.8994 0.4653
C1_3 C 0.67920(16) 0.7032(4) 0.2001(2)
C2_3 C 0.69681(15) 0.8075(4) 0.1619(2)
C3_3 C 0.77332(15) 0.7522(5) 0.2666(2)
C4_3 C 0.62226(15) 0.6251(4) 0.1853(2)
C5_3 C 0.66556(16) 0.8930(4) 0.0910(2)
C6_3 C 0.83537(19) 0.7507(6) 0.3282(3)
H6_3 H 0.8640 0.7566 0.3058
H7_3 H 0.8416 0.6624 0.3570
H8_3 H 0.8405 0.8322 0.3615
C7_3 C 0.64434(15) 0.5845(4) 0.4277(2)
C8_3 C 0.61849(16) 0.6861(4) 0.4568(2)
C9_3 C 0.68376(17) 0.7920(4) 0.4197(2)
C10_3 C 0.63942(15) 0.4234(4) 0.4185(2)
C11_3 C 0.56749(15) 0.6842(4) 0.4799(2)
C12_3 C 0.7198(2) 0.9086(5) 0.4041(3)
H9_3 H 0.7576 0.8693 0.4085
H10_3 H 0.7270 0.9857 0.4404
H11_3 H 0.6981 0.9456 0.3534
Tb2_2 Tb 0.458548(7) 0.695762(19) 0.506313(10)
Tb3_3 Tb 0.541452(7) 0.304238(19) 0.493687(10)
O13_2 O 0.45213(10) 0.5667(3) 0.00480(15)
O15_2 O 0.45684(11) 0.8029(3) 0.01633(17)
Tb1_2 Tb 0.541452(7) 0.695762(19) 0.993687(10)
O9_3 O 0.51845(13) 0.9164(3) 0.91803(16)
H2_2 H 0.4854 0.9436 0.8789
O10_2 O 0.47960(13) 0.6319(3) 0.86658(17)
H3_2 H 0.4771 0.6634 0.8302
H4_2 H 0.4611 0.5402 0.8566
O12_3 O 0.61348(13) 0.6479(3) 0.95187(19)
O14_3 O 0.54787(10) 0.4333(3) 0.99520(15)
H1_3 H 0.4609 0.0037 0.5453
O1_4 O 0.37904(11) 0.5460(3) 0.26246(16)
O2_4 O 0.42241(11) 0.6354(3) 0.37895(15)
O3_4 O 0.39019(11) 0.8766(3) 0.44779(16)
O5_4 O 0.33642(13) 0.3681(3) 0.12133(17)
O6_4 O 0.38652(13) 0.3521(3) 0.04813(19)
O9_4 O 0.48155(13) 0.9164(3) 0.58197(16)
H2_3 H 0.5146 0.9436 0.6211
O10_3 O 0.52040(13) 0.6319(3) 0.63342(17)
H3_3 H 0.5229 0.6634 0.6698
H4_3 H 0.5389 0.5402 0.6434
N1_4 N 0.27234(13) 0.6696(3) 0.23320(18)
N3_4 N 0.31565(13) 0.6517(4) 0.09636(18)
N4_4 N 0.35574(15) 0.8163(4) 0.0489(2)
H5_4 H 0.3636 0.8994 0.0347
C1_4 C 0.32080(16) 0.7032(4) 0.2999(2)
C2_4 C 0.30319(15) 0.8075(4) 0.3381(2)
C3_4 C 0.22668(15) 0.7522(5) 0.2334(2)
C4_4 C 0.37774(15) 0.6251(4) 0.3147(2)
C5_4 C 0.33444(16) 0.8930(4) 0.4090(2)
C6_4 C 0.16463(19) 0.7507(6) 0.1718(3)
H6_4 H 0.1360 0.7566 0.1942
H7_4 H 0.1584 0.6624 0.1430
H8_4 H 0.1595 0.8322 0.1385
C7_4 C 0.35566(15) 0.5845(4) 0.0723(2)
C8_4 C 0.38151(16) 0.6861(4) 0.0432(2)
C9_4 C 0.31624(17) 0.7920(4) 0.0803(2)
C10_4 C 0.36058(15) 0.4234(4) 0.0815(2)
C11_4 C 0.43251(15) 0.6842(4) 0.0201(2)
C12_4 C 0.2802(2) 0.9086(5) 0.0959(3)
H9_4 H 0.2424 0.8693 0.0915
H10_4 H 0.2730 0.9857 0.0596
H11_4 H 0.3019 0.9456 0.1466
Tb3_4 Tb 0.458548(7) 0.304238(19) 0.006313(10)
O12_4 O 0.38652(13) 0.6479(3) 0.54813(19)
O14_4 O 0.45213(10) 0.4333(3) 0.50480(15)
O15_3 O 0.04316(11) 0.6971(3) 0.98367(17)
O5_5 O 0.83642(13) 0.1319(3) 0.62133(17)
C10_5 C 0.86058(15) 0.0766(4) 0.5815(2)
O11_3 O 0.69692(11) 0.0146(3) 0.57486(15)
N5_3 N 0.75678(13) 0.1622(3) 0.70497(18)
O9_5 O 0.98155(13) 0.5836(3) 0.08197(16)
H1_4 H 0.9609 0.4963 0.0453
Zn1_3 Zn 0.788313(18) 0.98569(5) 0.66557(2)
O1_5 O 0.87904(11) 0.9540(3) 0.76246(16)
O2_5 O 0.92241(11) 0.8646(3) 0.87895(15)
O3_5 O 0.89019(11) 0.6234(3) 0.94779(16)
O4_3 O 0.80308(11) 0.5146(3) 0.92514(15)
O8_3 O 0.95684(11) 0.6971(3) 0.51633(17)
N1_5 N 0.77234(13) 0.8304(3) 0.73320(18)
N2_3 N 0.74322(13) 0.6622(3) 0.79503(18)
N3_5 N 0.81565(13) 0.8483(4) 0.59636(18)
N4_5 N 0.85574(15) 0.6837(4) 0.5489(2)
H5_5 H 0.8636 0.6006 0.5347
C1_5 C 0.82080(16) 0.7968(4) 0.7999(2)
C2_5 C 0.80319(15) 0.6925(4) 0.8381(2)
C3_5 C 0.72668(15) 0.7478(5) 0.7334(2)
C4_5 C 0.87774(15) 0.8749(4) 0.8147(2)
C5_5 C 0.83444(16) 0.6070(4) 0.9090(2)
C6_5 C 0.66463(19) 0.7493(6) 0.6718(3)
H6_5 H 0.6360 0.7434 0.6942
H7_5 H 0.6584 0.8376 0.6430
H8_5 H 0.6595 0.6678 0.6385
C7_5 C 0.85566(15) 0.9155(4) 0.5723(2)
C8_5 C 0.88151(16) 0.8139(4) 0.5432(2)
C9_5 C 0.81624(17) 0.7080(4) 0.5803(2)
C11_5 C 0.93251(15) 0.8158(4) 0.5201(2)
C12_5 C 0.7802(2) 0.5914(5) 0.5959(3)
H9_5 H 0.7424 0.6307 0.5915
H10_5 H 0.7730 0.5143 0.5596
H11_5 H 0.8019 0.5544 0.6466
Zn2_3 Zn 0.711687(18) 0.48569(5) 0.83443(2)
O5_6 O 0.16358(13) 0.1319(3) 0.87867(17)
C10_6 C 0.13942(15) 0.0766(4) 0.9185(2)
O11_4 O 0.30308(11) 0.0146(3) 0.92514(15)
N5_4 N 0.24322(13) 0.1622(3) 0.79503(18)
Zn1_4 Zn 0.211687(18) 0.98569(5) 0.83443(2)
O1_6 O 0.12096(11) 0.9540(3) 0.73754(16)
O2_6 O 0.07759(11) 0.8646(3) 0.62105(15)
O3_6 O 0.10981(11) 0.6234(3) 0.55221(16)
O4_4 O 0.19692(11) 0.5146(3) 0.57486(15)
O9_6 O 0.01845(13) 0.5836(3) 0.41803(16)
H1_5 H 0.0391 0.4963 0.4547
N1_6 N 0.22766(13) 0.8304(3) 0.76680(18)
N2_4 N 0.25678(13) 0.6622(3) 0.70497(18)
N3_6 N 0.18435(13) 0.8483(4) 0.90364(18)
N4_6 N 0.14426(15) 0.6837(4) 0.9511(2)
H5_6 H 0.1364 0.6006 0.9653
C1_6 C 0.17920(16) 0.7968(4) 0.7001(2)
C2_6 C 0.19681(15) 0.6925(4) 0.6619(2)
C3_6 C 0.27332(15) 0.7478(5) 0.7666(2)
C4_6 C 0.12226(15) 0.8749(4) 0.6853(2)
C5_6 C 0.16556(16) 0.6070(4) 0.5910(2)
C6_6 C 0.33537(19) 0.7493(6) 0.8282(3)
H6_6 H 0.3640 0.7434 0.8058
H7_6 H 0.3416 0.8376 0.8570
H8_6 H 0.3405 0.6678 0.8615
C7_6 C 0.14434(15) 0.9155(4) 0.9277(2)
C8_6 C 0.11849(16) 0.8139(4) 0.9568(2)
C9_6 C 0.18376(17) 0.7080(4) 0.9197(2)
C11_6 C 0.06749(15) 0.8158(4) 0.9799(2)
C12_6 C 0.2198(2) 0.5914(5) 0.9041(3)
H9_6 H 0.2576 0.6307 0.9085
H10_6 H 0.2270 0.5143 0.9404
H11_6 H 0.1981 0.5544 0.8534
Zn2_4 Zn 0.288313(18) 0.48569(5) 0.66557(2)
H2_4 H 0.9854 0.5564 0.3789
O10_4 O 0.97960(13) 0.8681(3) 0.36658(17)
H3_4 H 0.9771 0.8366 0.3302
H4_4 H 0.9611 0.9598 0.3566
O9_7 O 0.48155(13) 0.0836(3) 0.08197(16)
H2_5 H 0.5146 0.0564 0.1211
O10_5 O 0.52040(13) 0.3681(3) 0.13342(17)
H3_5 H 0.5229 0.3366 0.1698
H4_5 H 0.5389 0.4598 0.1434
O1_7 O 0.37904(11) 0.4540(3) 0.76246(16)
O2_7 O 0.42241(11) 0.3646(3) 0.87895(15)
O3_7 O 0.39019(11) 0.1234(3) 0.94779(16)
O5_7 O 0.33642(13) 0.6319(3) 0.62133(17)
O8_4 O 0.45684(11) 0.1971(3) 0.51633(17)
N1_7 N 0.27234(13) 0.3304(3) 0.73320(18)
N3_7 N 0.31565(13) 0.3483(4) 0.59636(18)
N4_7 N 0.35574(15) 0.1837(4) 0.5489(2)
H5_7 H 0.3636 0.1006 0.5347
C1_7 C 0.32080(16) 0.2968(4) 0.7999(2)
C2_7 C 0.30319(15) 0.1925(4) 0.8381(2)
C3_7 C 0.22668(15) 0.2478(5) 0.7334(2)
C4_7 C 0.37774(15) 0.3749(4) 0.8147(2)
C5_7 C 0.33444(16) 0.1070(4) 0.9090(2)
C6_7 C 0.16463(19) 0.2493(6) 0.6718(3)
H6_7 H 0.1360 0.2434 0.6942
H7_7 H 0.1584 0.3376 0.6430
H8_7 H 0.1595 0.1678 0.6385
C7_7 C 0.35566(15) 0.4155(4) 0.5723(2)
C8_7 C 0.38151(16) 0.3139(4) 0.5432(2)
C9_7 C 0.31624(17) 0.2080(4) 0.5803(2)
C10_7 C 0.36058(15) 0.5766(4) 0.5815(2)
C11_7 C 0.43251(15) 0.3158(4) 0.5201(2)
C12_7 C 0.2802(2) 0.0914(5) 0.5959(3)
H9_7 H 0.2424 0.1307 0.5915
H10_7 H 0.2730 0.0143 0.5596
H11_7 H 0.3019 0.0544 0.6466
O15_4 O 0.54316(11) 0.1971(3) 0.98367(17)
O1_8 O 0.62096(11) 0.4540(3) 0.73754(16)
O2_8 O 0.57759(11) 0.3646(3) 0.62105(15)
O3_8 O 0.60981(11) 0.1234(3) 0.55221(16)
O5_8 O 0.66358(13) 0.6319(3) 0.87867(17)
O9_8 O 0.51845(13) 0.0836(3) 0.41803(16)
H2_6 H 0.4854 0.0564 0.3789
O10_6 O 0.47960(13) 0.3681(3) 0.36658(17)
H3_6 H 0.4771 0.3366 0.3302
H4_6 H 0.4611 0.4598 0.3566
N1_8 N 0.72766(13) 0.3304(3) 0.76680(18)
N3_8 N 0.68435(13) 0.3483(4) 0.90364(18)
N4_8 N 0.64426(15) 0.1837(4) 0.9511(2)
H5_8 H 0.6364 0.1006 0.9653
C1_8 C 0.67920(16) 0.2968(4) 0.7001(2)
C2_8 C 0.69681(15) 0.1925(4) 0.6619(2)
C3_8 C 0.77332(15) 0.2478(5) 0.7666(2)
C4_8 C 0.62226(15) 0.3749(4) 0.6853(2)
C5_8 C 0.66556(16) 0.1070(4) 0.5910(2)
C6_8 C 0.83537(19) 0.2493(6) 0.8282(3)
H6_8 H 0.8640 0.2434 0.8058
H7_8 H 0.8416 0.3376 0.8570
H8_8 H 0.8405 0.1678 0.8615
C7_8 C 0.64434(15) 0.4155(4) 0.9277(2)
C8_8 C 0.61849(16) 0.3139(4) 0.9568(2)
C9_8 C 0.68376(17) 0.2080(4) 0.9197(2)
C10_8 C 0.63942(15) 0.5766(4) 0.9185(2)
C11_8 C 0.56749(15) 0.3158(4) 0.9799(2)
C12_8 C 0.7198(2) 0.0914(5) 0.9041(3)
H9_8 H 0.7576 0.1307 0.9085
H10_8 H 0.7270 0.0143 0.9404
H11_8 H 0.6981 0.0544 0.8534
H1_6 H 0.5391 0.9963 0.4547
H2_7 H 0.9854 0.4436 0.8789
O10_7 O 0.97960(13) 0.1319(3) 0.86658(17)
H3_7 H 0.9771 0.1634 0.8302
H4_7 H 0.9611 0.0402 0.8566
H1_7 H 0.5391 0.0037 0.9547
H2_8 H 0.0146 0.5564 0.1211
O10_8 O 0.02040(13) 0.8681(3) 0.13342(17)
H3_8 H 0.0229 0.8366 0.1698
H4_8 H 0.0389 0.9598 0.1434
H1_8 H 0.4609 0.9963 0.0453
loop_
_geom_bond_atom_site_label_1
_geom_bond_atom_site_label_2
_geom_bond_site_symmetry_1
_geom_bond_site_symmetry_2
Zn1 O1 1_555 1_555
O1 C4 1_555 1_555
O2 C4 1_555 1_555
O4 C5 1_555 1_555
O7 C11 1_555 1_555
O8 C11 1_555 1_555
N1 Zn1 1_555 1_555
N2 C2 1_555 1_555
N3 Zn1 1_555 1_555
N4 H5 1_555 1_555
C1 N1 1_555 1_555
C2 C1 1_555 1_555
C3 N1 1_555 1_555
C4 C1 1_555 1_555
C5 O3 1_555 1_555
C6 C3 1_555 1_555
H6 C6 1_555 1_555
H7 C6 1_555 1_555
H8 C6 1_555 1_555
C7 N3 1_555 1_555
C8 N4 1_555 1_555
C9 N3 1_555 1_555
C11 C8 1_555 1_555
C12 C9 1_555 1_555
H9 C12 1_555 1_555
H10 C12 1_555 1_555
H11 C12 1_555 1_555
Zn2 O4 1_555 1_555
N2 C3 1_555 1_555
N2 Zn2 1_555 1_555
N4 C9 1_555 1_555
C2 C5 1_555 1_555
C7 C8 1_555 1_555
O9 Tb1 1_555 1_555
H1 O9 1_555 1_555
O12 Tb1 1_555 1_555
O6 C10 1_555 1_555
C10 O5 1_555 1_555
Tb3 O6 1_555 1_555
H3 O10 1_555 1_555
H4 O10 1_555 1_555
Tb2 O2_2 1_555 1_555
Zn1_2 O1_2 1_555 1_555
O1_2 C4_2 1_555 1_555
O2_2 C4_2 1_555 1_555
O3_2 Tb2 1_555 1_555
O4_2 C5_2 1_555 1_555
O13 C11_2 1_555 1_555
O15 C11_2 1_555 1_555
O9_2 Tb2 1_555 1_555
H1_2 O9_2 1_555 1_555
N1_2 Zn1_2 1_555 1_555
N2_2 C2_2 1_555 1_555
N3_2 Zn1_2 1_555 1_555
N4_2 H5_2 1_555 1_555
C1_2 N1_2 1_555 1_555
C2_2 C1_2 1_555 1_555
C3_2 N1_2 1_555 1_555
C4_2 C1_2 1_555 1_555
C5_2 O3_2 1_555 1_555
C6_2 C3_2 1_555 1_555
H6_2 C6_2 1_555 1_555
H7_2 C6_2 1_555 1_555
H8_2 C6_2 1_555 1_555
C7_2 N3_2 1_555 1_555
C8_2 N4_2 1_555 1_555
C9_2 N3_2 1_555 1_555
C11_2 C8_2 1_555 1_555
C12_2 C9_2 1_555 1_555
H9_2 C12_2 1_555 1_555
H10_2 C12_2 1_555 1_555
H11_2 C12_2 1_555 1_555
Zn2_2 O4_2 1_555 1_555
O12_2 Tb2 1_555 1_555
N2_2 C3_2 1_555 1_555
N2_2 Zn2_2 1_555 1_555
N4_2 C9_2 1_555 1_555
C2_2 C5_2 1_555 1_555
C7_2 C8_2 1_555 1_555
O6_2 C10_2 1_555 1_555
C10_2 O5_2 1_555 1_555
Tb3_2 O6_2 1_555 1_555
Zn2_2 O1_3 1_555 1_555
O1_3 C4_3 1_555 1_555
O2_3 C4_3 1_555 1_555
O11_2 C5_3 1_555 1_555
O5_3 Zn2_2 1_555 1_555
O6_3 C10_3 1_555 1_555
O7_2 C11_3 1_555 1_555
O8_2 C11_3 1_555 1_555
N1_3 Zn2_2 1_555 1_555
N5_2 C2_3 1_555 1_555
N3_3 Zn2_2 1_555 1_555
N4_3 H5_3 1_555 1_555
C1_3 N1_3 1_555 1_555
C2_3 C1_3 1_555 1_555
C3_3 N1_3 1_555 1_555
C4_3 C1_3 1_555 1_555
C5_3 O3_3 1_555 1_555
C6_3 C3_3 1_555 1_555
H6_3 C6_3 1_555 1_555
H7_3 C6_3 1_555 1_555
H8_3 C6_3 1_555 1_555
C7_3 N3_3 1_555 1_555
C8_3 N4_3 1_555 1_555
C9_3 N3_3 1_555 1_555
C10_3 O5_3 1_555 1_555
C11_3 C8_3 1_555 1_555
C12_3 C9_3 1_555 1_555
H9_3 C12_3 1_555 1_555
H10_3 C12_3 1_555 1_555
H11_3 C12_3 1_555 1_555
Tb2_2 O7_2 1_555 1_555
Tb3_3 O6_3 1_555 1_555
O7_2 Tb3_3 1_555 1_555
O8_2 Tb2_2 1_555 1_555
N5_2 C3_3 1_555 1_555
N4_3 C9_3 1_555 1_555
C2_3 C5_3 1_555 1_555
C7_3 C8_3 1_555 1_555
C7_3 C10_3 1_555 1_555
O9_3 Tb1_2 1_555 1_555
H2_2 O9_3 1_555 1_555
O10_2 Tb1_2 1_555 1_555
H3_2 O10_2 1_555 1_555
H4_2 O10_2 1_555 1_555
O12_3 Tb1_2 1_555 1_555
O14_3 Tb1_2 1_555 1_555
Tb2_2 O2_4 1_555 1_555
Zn2 O1_4 1_555 1_555
O1_4 C4_4 1_555 1_555
O2_4 C4_4 1_555 1_555
O3_4 Tb2_2 1_555 1_555
O11 C5_4 1_555 1_555
O5_4 Zn2 1_555 1_555
O6_4 C10_4 1_555 1_555
O13_2 C11_4 1_555 1_555
O15_2 C11_4 1_555 1_555
O9_4 Tb2_2 1_555 1_555
H2_3 O9_4 1_555 1_555
O10_3 Tb2_2 1_555 1_555
H3_3 O10_3 1_555 1_555
H4_3 O10_3 1_555 1_555
N1_4 Zn2 1_555 1_555
N5 C2_4 1_555 1_555
N3_4 Zn2 1_555 1_555
N4_4 H5_4 1_555 1_555
C1_4 N1_4 1_555 1_555
C2_4 C1_4 1_555 1_555
C3_4 N1_4 1_555 1_555
C4_4 C1_4 1_555 1_555
C5_4 O3_4 1_555 1_555
C6_4 C3_4 1_555 1_555
H6_4 C6_4 1_555 1_555
H7_4 C6_4 1_555 1_555
H8_4 C6_4 1_555 1_555
C7_4 N3_4 1_555 1_555
C8_4 N4_4 1_555 1_555
C9_4 N3_4 1_555 1_555
C10_4 O5_4 1_555 1_555
C11_4 C8_4 1_555 1_555
C12_4 C9_4 1_555 1_555
H9_4 C12_4 1_555 1_555
H10_4 C12_4 1_555 1_555
H11_4 C12_4 1_555 1_555
Tb3_4 O6_4 1_555 1_555
O12_4 Tb2_2 1_555 1_555
O14_4 Tb2_2 1_555 1_555
O13_2 Tb3_4 1_555 1_555
N5 C3_4 1_555 1_555
N4_4 C9_4 1_555 1_555
C2_4 C5_4 1_555 1_555
C7_4 C8_4 1_555 1_555
C7_4 C10_4 1_555 1_555
O12_2 C10_5 1_555 1_555
C10_5 O5_5 1_555 1_555
O9_5 Tb3_2 1_555 1_555
H1_4 O9_5 1_555 1_555
Zn1_3 O1_5 1_555 1_555
O1_5 C4_5 1_555 1_555
O2_5 C4_5 1_555 1_555
O4_3 C5_5 1_555 1_555
O14_2 C11_5 1_555 1_555
O8_3 C11_5 1_555 1_555
N1_5 Zn1_3 1_555 1_555
N2_3 C2_5 1_555 1_555
N3_5 Zn1_3 1_555 1_555
N4_5 H5_5 1_555 1_555
C1_5 N1_5 1_555 1_555
C2_5 C1_5 1_555 1_555
C3_5 N1_5 1_555 1_555
C4_5 C1_5 1_555 1_555
C5_5 O3_5 1_555 1_555
C6_5 C3_5 1_555 1_555
H6_5 C6_5 1_555 1_555
H7_5 C6_5 1_555 1_555
H8_5 C6_5 1_555 1_555
C7_5 N3_5 1_555 1_555
C8_5 N4_5 1_555 1_555
C9_5 N3_5 1_555 1_555
C11_5 C8_5 1_555 1_555
C12_5 C9_5 1_555 1_555
H9_5 C12_5 1_555 1_555
H10_5 C12_5 1_555 1_555
H11_5 C12_5 1_555 1_555
Zn2_3 O4_3 1_555 1_555
N2_3 C3_5 1_555 1_555
N2_3 Zn2_3 1_555 1_555
N4_5 C9_5 1_555 1_555
C2_5 C5_5 1_555 1_555
C7_5 C8_5 1_555 1_555
O12 C10_6 1_555 1_555
C10_6 O5_6 1_555 1_555
Tb3 O2_6 1_555 1_555
Zn1_4 O1_6 1_555 1_555
O1_6 C4_6 1_555 1_555
O2_6 C4_6 1_555 1_555
O3_6 Tb3 1_555 1_555
O4_4 C5_6 1_555 1_555
O14 C11_6 1_555 1_555
O15_3 C11_6 1_555 1_555
O9_6 Tb3 1_555 1_555
H1_5 O9_6 1_555 1_555
N1_6 Zn1_4 1_555 1_555
N2_4 C2_6 1_555 1_555
N3_6 Zn1_4 1_555 1_555
N4_6 H5_6 1_555 1_555
C1_6 N1_6 1_555 1_555
C2_6 C1_6 1_555 1_555
C3_6 N1_6 1_555 1_555
C4_6 C1_6 1_555 1_555
C5_6 O3_6 1_555 1_555
C6_6 C3_6 1_555 1_555
H6_6 C6_6 1_555 1_555
H7_6 C6_6 1_555 1_555
H8_6 C6_6 1_555 1_555
C7_6 N3_6 1_555 1_555
C8_6 N4_6 1_555 1_555
C9_6 N3_6 1_555 1_555
C11_6 C8_6 1_555 1_555
C12_6 C9_6 1_555 1_555
H9_6 C12_6 1_555 1_555
H10_6 C12_6 1_555 1_555
H11_6 C12_6 1_555 1_555
Zn2_4 O4_4 1_555 1_555
N2_4 C3_6 1_555 1_555
N2_4 Zn2_4 1_555 1_555
N4_6 C9_6 1_555 1_555
C2_6 C5_6 1_555 1_555
C7_6 C8_6 1_555 1_555
H3_4 O10_4 1_555 1_555
H4_4 O10_4 1_555 1_555
O9_7 Tb3_4 1_555 1_555
H2_5 O9_7 1_555 1_555
O10_5 Tb3_4 1_555 1_555
H3_5 O10_5 1_555 1_555
H4_5 O10_5 1_555 1_555
Zn2_4 O1_7 1_555 1_555
O1_7 C4_7 1_555 1_555
O2_7 C4_7 1_555 1_555
O11_4 C5_7 1_555 1_555
O5_7 Zn2_4 1_555 1_555
O12_4 C10_7 1_555 1_555
O14_4 C11_7 1_555 1_555
O8_4 C11_7 1_555 1_555
N1_7 Zn2_4 1_555 1_555
N5_4 C2_7 1_555 1_555
N3_7 Zn2_4 1_555 1_555
N4_7 H5_7 1_555 1_555
C1_7 N1_7 1_555 1_555
C2_7 C1_7 1_555 1_555
C3_7 N1_7 1_555 1_555
C4_7 C1_7 1_555 1_555
C5_7 O3_7 1_555 1_555
C6_7 C3_7 1_555 1_555
H6_7 C6_7 1_555 1_555
H7_7 C6_7 1_555 1_555
H8_7 C6_7 1_555 1_555
C7_7 N3_7 1_555 1_555
C8_7 N4_7 1_555 1_555
C9_7 N3_7 1_555 1_555
C10_7 O5_7 1_555 1_555
C11_7 C8_7 1_555 1_555
C12_7 C9_7 1_555 1_555
H9_7 C12_7 1_555 1_555
H10_7 C12_7 1_555 1_555
H11_7 C12_7 1_555 1_555
Tb3_3 O14_4 1_555 1_555
O8_4 Tb3_3 1_555 1_555
N5_4 C3_7 1_555 1_555
N4_7 C9_7 1_555 1_555
C2_7 C5_7 1_555 1_555
C7_7 C8_7 1_555 1_555
C7_7 C10_7 1_555 1_555
Tb3_3 O2_8 1_555 1_555
Zn2_3 O1_8 1_555 1_555
O1_8 C4_8 1_555 1_555
O2_8 C4_8 1_555 1_555
O3_8 Tb3_3 1_555 1_555
O11_3 C5_8 1_555 1_555
O5_8 Zn2_3 1_555 1_555
O12_3 C10_8 1_555 1_555
O14_3 C11_8 1_555 1_555
O15_4 C11_8 1_555 1_555
O9_8 Tb3_3 1_555 1_555
H2_6 O9_8 1_555 1_555
O10_6 Tb3_3 1_555 1_555
H3_6 O10_6 1_555 1_555
H4_6 O10_6 1_555 1_555
N1_8 Zn2_3 1_555 1_555
N5_3 C2_8 1_555 1_555
N3_8 Zn2_3 1_555 1_555
N4_8 H5_8 1_555 1_555
C1_8 N1_8 1_555 1_555
C2_8 C1_8 1_555 1_555
C3_8 N1_8 1_555 1_555
C4_8 C1_8 1_555 1_555
C5_8 O3_8 1_555 1_555
C6_8 C3_8 1_555 1_555
H6_8 C6_8 1_555 1_555
H7_8 C6_8 1_555 1_555
H8_8 C6_8 1_555 1_555
C7_8 N3_8 1_555 1_555
C8_8 N4_8 1_555 1_555
C9_8 N3_8 1_555 1_555
C10_8 O5_8 1_555 1_555
C11_8 C8_8 1_555 1_555
C12_8 C9_8 1_555 1_555
H9_8 C12_8 1_555 1_555
H10_8 C12_8 1_555 1_555
H11_8 C12_8 1_555 1_555
N5_3 C3_8 1_555 1_555
N4_8 C9_8 1_555 1_555
C2_8 C5_8 1_555 1_555
C7_8 C8_8 1_555 1_555
C7_8 C10_8 1_555 1_555
H3_7 O10_7 1_555 1_555
H4_7 O10_7 1_555 1_555
H3_8 O10_8 1_555 1_555
H4_8 O10_8 1_555 1_555

#END
