
###############################################################################
#
# This file contains modified crystal structure data generated from the
# MOF subset of the Cambridge Structural Database (CSD) v543 
# hosted by the Cambridge Crystallographic Data Centre (CCDC).
#
# This work is licensed under the Creative Commons
# Attribution-NonCommercial-ShareAlike 4.0 International License.
# To view a copy of this license, visit
# http://creativecommons.org/licenses/by-nc-sa/4.0/
# or send a letter to
# Creative Commons, PO Box 1866, Mountain View, CA 94042, USA.
#
# CIF created using the CSD Python API on 29 September 2022
# The structure has been converted into the P1 space group
# The structure has a 3D framework
# The original CSD entry DIMKIV is in the monoclinic crystal system
# The framework has been calculated to contain at least 10.0% void space
# The void calculation uses a probe of radius 1.32A, grid spacing 0.4
#
###############################################################################

data_DIMKIV
_chemical_formula_moiety         '(C96 H88 Eu8 N32 O80 Zn8)n'
_symmetry_cell_setting           triclinic
_symmetry_space_group_name_H-M   'P 1'
_symmetry_Int_Tables_number      1
_space_group_name_Hall           'P 1'
loop_
_symmetry_equiv_pos_site_id
_symmetry_equiv_pos_as_xyz
1 x,y,z
_cell_length_a                   24.1908(19)
_cell_length_b                   9.1472(7)
_cell_length_c                   18.9567(15)
_cell_angle_alpha                90
_cell_angle_beta                 114.2520(10)
_cell_angle_gamma                90
_cell_volume                     3824.51
loop_
_atom_site_label
_atom_site_type_symbol
_atom_site_fract_x
_atom_site_fract_y
_atom_site_fract_z
Eu1 Eu 0.541623(8) 0.30572(2) 0.494296(11)
Zn1 Zn 0.71222(2) 0.50981(6) 0.33624(3)
O1 O 0.54720(13) 0.5658(4) 0.49616(18)
O2 O 0.54097(16) 0.8028(4) 0.4824(2)
O3 O 0.61555(18) 0.3512(4) 0.4579(3)
O4 O 0.66468(18) 0.3647(4) 0.3823(2)
O5 O 0.80454(15) 0.4821(4) 0.42683(19)
O6 O 0.89239(16) 0.3772(4) 0.4463(2)
O7 O 0.92363(15) 0.1336(4) 0.3788(2)
O8 O 0.87961(16) 0.0424(4) 0.2612(2)
O9 O 0.48258(19) 0.3705(5) 0.3674(2)
H1 H 0.4561 0.4372 0.3535
H2 H 0.4823 0.3284 0.3279
O10 O 0.51771(18) 0.0894(4) 0.4174(2)
H3 H 0.5416 0.0164 0.4303
H4 H 0.4820 0.0576 0.3962
N1 N 0.6420(2) 0.8186(4) 0.4485(3)
H5 H 0.6327 0.9048 0.4612
N2 N 0.68457(18) 0.6511(5) 0.4044(2)
N3 N 0.74324(17) 0.3323(4) 0.2964(2)
N4 N 0.77168(18) 0.1639(4) 0.2331(2)
C1 C 0.5660(2) 0.6848(5) 0.4804(3)
C2 C 0.6176(2) 0.6859(5) 0.4563(3)
C3 C 0.6451(2) 0.5834(5) 0.4298(3)
C4 C 0.6410(2) 0.4220(5) 0.4225(3)
C5 C 0.6824(2) 0.7927(5) 0.4180(3)
C6 C 0.7177(3) 0.9101(7) 0.4011(4)
H6 H 0.7006 0.9291 0.3465
H7 H 0.7591 0.8795 0.4176
H8 H 0.7161 0.9975 0.4282
C7 C 0.8356(2) 0.3909(5) 0.4088(3)
C8 C 0.8034(2) 0.3032(4) 0.3384(3)
C9 C 0.8209(2) 0.1985(5) 0.2995(3)
C10 C 0.8783(2) 0.1213(5) 0.3141(3)
C11 C 0.7261(2) 0.2458(5) 0.2341(3)
C12 C 0.6636(3) 0.2442(8) 0.1721(4)
H9 H 0.6392 0.1764 0.1856
H10 H 0.6649 0.2150 0.1242
H11 H 0.6463 0.3403 0.1666
Eu2 Eu 0.458377(8) 0.69428(2) 0.505704(11)
Eu3 Eu 0.958377(8) 0.19428(2) 0.505704(11)
Zn2 Zn 0.78778(2) 0.00981(6) 0.16376(3)
O11 O 0.45280(13) 0.4342(4) 0.50384(18)
O12 O 0.45903(16) 0.1972(4) 0.5176(2)
O13 O 0.60761(16) 0.1228(4) 0.5537(2)
O14 O 0.57637(15) 0.3664(4) 0.6212(2)
O15 O 0.62039(16) 0.5424(4) 0.2388(2)
N5 N 0.72832(18) 0.6639(4) 0.2669(2)
Zn1_2 Zn 0.21222(2) 0.00981(6) 0.33624(3)
O1_2 O 0.04720(13) 0.0658(4) 0.49616(18)
O2_2 O 0.04097(16) 0.3028(4) 0.4824(2)
N1_2 N 0.1420(2) 0.3186(4) 0.4485(3)
H5_2 H 0.1327 0.4048 0.4612
N2_2 N 0.18457(18) 0.1511(5) 0.4044(2)
C1_2 C 0.0660(2) 0.1848(5) 0.4804(3)
C2_2 C 0.1176(2) 0.1859(5) 0.4563(3)
C3_2 C 0.1451(2) 0.0834(5) 0.4298(3)
C5_2 C 0.1824(2) 0.2927(5) 0.4180(3)
C6_2 C 0.2177(3) 0.4101(7) 0.4011(4)
H6_2 H 0.2006 0.4291 0.3465
H7_2 H 0.2591 0.3795 0.4176
H8_2 H 0.2161 0.4975 0.4282
O15_2 O 0.12039(16) 0.0424(4) 0.2388(2)
N5_2 N 0.22832(18) 0.1639(4) 0.2669(2)
Eu1_2 Eu 0.041623(8) 0.80572(2) 0.494296(11)
O3_2 O 0.11555(18) 0.8512(4) 0.4579(3)
O4_2 O 0.16468(18) 0.8647(4) 0.3823(2)
O5_2 O 0.30454(15) 0.9821(4) 0.42683(19)
O6_2 O 0.39239(16) 0.8772(4) 0.4463(2)
O7_2 O 0.42363(15) 0.6336(4) 0.3788(2)
O8_2 O 0.37961(16) 0.5424(4) 0.2612(2)
O10_2 O 0.01771(18) 0.5894(4) 0.4174(2)
H3_2 H 0.0416 0.5164 0.4303
N3_2 N 0.24324(17) 0.8323(4) 0.2964(2)
N4_2 N 0.27168(18) 0.6639(4) 0.2331(2)
C4_2 C 0.1410(2) 0.9220(5) 0.4225(3)
C7_2 C 0.3356(2) 0.8909(5) 0.4088(3)
C8_2 C 0.3034(2) 0.8032(4) 0.3384(3)
C9_2 C 0.3209(2) 0.6985(5) 0.2995(3)
C10_2 C 0.3783(2) 0.6213(5) 0.3141(3)
C11_2 C 0.2261(2) 0.7458(5) 0.2341(3)
C12_2 C 0.1636(3) 0.7442(8) 0.1721(4)
H9_2 H 0.1392 0.6764 0.1856
H10_2 H 0.1649 0.7150 0.1242
H11_2 H 0.1463 0.8403 0.1666
Zn2_2 Zn 0.28778(2) 0.50981(6) 0.16376(3)
O13_2 O 0.10761(16) 0.6228(4) 0.5537(2)
O14_2 O 0.07637(15) 0.8664(4) 0.6212(2)
O9_2 O 0.98258(19) 0.8705(5) 0.3674(2)
H1_2 H 0.9561 0.9372 0.3535
H2_2 H 0.9823 0.8284 0.3279
H4_2 H 0.9820 0.5576 0.3962
O11_2 O 0.95280(13) 0.9342(4) 0.50384(18)
O12_2 O 0.95903(16) 0.6972(4) 0.5176(2)
Eu1_3 Eu 0.458377(8) 0.30572(2) 0.005704(11)
O1_3 O 0.45280(13) 0.5658(4) 0.00384(18)
O2_3 O 0.45903(16) 0.8028(4) 0.0176(2)
O3_3 O 0.38445(18) 0.3512(4) 0.0421(3)
O4_3 O 0.33532(18) 0.3647(4) 0.1177(2)
O5_3 O 0.19546(15) 0.4821(4) 0.07317(19)
O6_3 O 0.10761(16) 0.3772(4) 0.0537(2)
O7_3 O 0.07637(15) 0.1336(4) 0.1212(2)
O9_3 O 0.51742(19) 0.3705(5) 0.1326(2)
H1_3 H 0.5439 0.4372 0.1465
H2_3 H 0.5177 0.3284 0.1721
O10_3 O 0.48229(18) 0.0894(4) 0.0826(2)
H3_3 H 0.4584 0.0164 0.0697
H4_3 H 0.5180 0.0576 0.1038
N1_3 N 0.3580(2) 0.8186(4) 0.0515(3)
H5_3 H 0.3673 0.9048 0.0388
N2_3 N 0.31543(18) 0.6511(5) 0.0956(2)
N3_3 N 0.25676(17) 0.3323(4) 0.2036(2)
C1_3 C 0.4340(2) 0.6848(5) 0.0196(3)
C2_3 C 0.3824(2) 0.6859(5) 0.0437(3)
C3_3 C 0.3549(2) 0.5834(5) 0.0702(3)
C4_3 C 0.3590(2) 0.4220(5) 0.0775(3)
C5_3 C 0.3176(2) 0.7927(5) 0.0820(3)
C6_3 C 0.2823(3) 0.9101(7) 0.0989(4)
H6_3 H 0.2994 0.9291 0.1535
H7_3 H 0.2409 0.8795 0.0824
H8_3 H 0.2839 0.9975 0.0718
C7_3 C 0.1644(2) 0.3909(5) 0.0912(3)
C8_3 C 0.1966(2) 0.3032(4) 0.1616(3)
C9_3 C 0.1791(2) 0.1985(5) 0.2005(3)
C10_3 C 0.1217(2) 0.1213(5) 0.1859(3)
C11_3 C 0.2739(2) 0.2458(5) 0.2659(3)
C12_3 C 0.3364(3) 0.2442(8) 0.3279(4)
H9_3 H 0.3608 0.1764 0.3144
H10_3 H 0.3351 0.2150 0.3758
H11_3 H 0.3537 0.3403 0.3334
Eu2_2 Eu 0.541623(8) 0.69428(2) 0.994296(11)
Eu3_2 Eu 0.041623(8) 0.19428(2) 0.994296(11)
O11_3 O 0.54720(13) 0.4342(4) 0.99616(18)
O12_3 O 0.54097(16) 0.1972(4) 0.9824(2)
O13_3 O 0.39239(16) 0.1228(4) 0.9463(2)
O14_3 O 0.42363(15) 0.3664(4) 0.8788(2)
O11_4 O 0.04720(13) 0.9342(4) 0.99616(18)
O12_4 O 0.04097(16) 0.6972(4) 0.9824(2)
O1_4 O 0.95280(13) 0.0658(4) 0.00384(18)
O2_4 O 0.95903(16) 0.3028(4) 0.0176(2)
N1_4 N 0.8580(2) 0.3186(4) 0.0515(3)
H5_4 H 0.8673 0.4048 0.0388
N2_4 N 0.81543(18) 0.1511(5) 0.0956(2)
C1_4 C 0.9340(2) 0.1848(5) 0.0196(3)
C2_4 C 0.8824(2) 0.1859(5) 0.0437(3)
C3_4 C 0.8549(2) 0.0834(5) 0.0702(3)
C5_4 C 0.8176(2) 0.2927(5) 0.0820(3)
C6_4 C 0.7823(3) 0.4101(7) 0.0989(4)
H6_4 H 0.7994 0.4291 0.1535
H7_4 H 0.7409 0.3795 0.0824
H8_4 H 0.7839 0.4975 0.0718
Eu1_4 Eu 0.958377(8) 0.80572(2) 0.005704(11)
O3_4 O 0.88445(18) 0.8512(4) 0.0421(3)
O4_4 O 0.83532(18) 0.8647(4) 0.1177(2)
O5_4 O 0.69546(15) 0.9821(4) 0.07317(19)
O6_4 O 0.60761(16) 0.8772(4) 0.0537(2)
O7_4 O 0.57637(15) 0.6336(4) 0.1212(2)
O10_4 O 0.98229(18) 0.5894(4) 0.0826(2)
H3_4 H 0.9584 0.5164 0.0697
N3_4 N 0.75676(17) 0.8323(4) 0.2036(2)
C4_4 C 0.8590(2) 0.9220(5) 0.0775(3)
C7_4 C 0.6644(2) 0.8909(5) 0.0912(3)
C8_4 C 0.6966(2) 0.8032(4) 0.1616(3)
C9_4 C 0.6791(2) 0.6985(5) 0.2005(3)
C10_4 C 0.6217(2) 0.6213(5) 0.1859(3)
C11_4 C 0.7739(2) 0.7458(5) 0.2659(3)
C12_4 C 0.8364(3) 0.7442(8) 0.3279(4)
H9_4 H 0.8608 0.6764 0.3144
H10_4 H 0.8351 0.7150 0.3758
H11_4 H 0.8537 0.8403 0.3334
O13_4 O 0.89239(16) 0.6228(4) 0.9463(2)
O14_4 O 0.92363(15) 0.8664(4) 0.8788(2)
Zn1_3 Zn 0.28778(2) 0.49019(6) 0.66376(3)
O3_5 O 0.38445(18) 0.6488(4) 0.5421(3)
O4_5 O 0.33532(18) 0.6353(4) 0.6177(2)
O5_5 O 0.19546(15) 0.5179(4) 0.57317(19)
O8_3 O 0.12039(16) 0.9576(4) 0.7388(2)
O9_4 O 0.51742(19) 0.6295(5) 0.6326(2)
H1_4 H 0.5439 0.5628 0.6465
H2_4 H 0.5177 0.6716 0.6721
O10_5 O 0.48229(18) 0.9106(4) 0.5826(2)
H3_5 H 0.4584 0.9836 0.5697
H4_4 H 0.5180 0.9424 0.6038
N1_5 N 0.3580(2) 0.1814(4) 0.5515(3)
H5_5 H 0.3673 0.0952 0.5388
N2_5 N 0.31543(18) 0.3489(5) 0.5956(2)
N3_5 N 0.25676(17) 0.6677(4) 0.7036(2)
N4_3 N 0.22832(18) 0.8361(4) 0.7669(2)
C1_5 C 0.4340(2) 0.3152(5) 0.5196(3)
C2_5 C 0.3824(2) 0.3141(5) 0.5437(3)
C3_5 C 0.3549(2) 0.4166(5) 0.5702(3)
C4_5 C 0.3590(2) 0.5780(5) 0.5775(3)
C5_5 C 0.3176(2) 0.2073(5) 0.5820(3)
C6_5 C 0.2823(3) 0.0899(7) 0.5989(4)
H6_5 H 0.2994 0.0709 0.6535
H7_5 H 0.2409 0.1205 0.5824
H8_5 H 0.2839 0.0025 0.5718
C7_5 C 0.1644(2) 0.6091(5) 0.5912(3)
C8_5 C 0.1966(2) 0.6968(4) 0.6616(3)
C9_5 C 0.1791(2) 0.8015(5) 0.7005(3)
C10_5 C 0.1217(2) 0.8787(5) 0.6859(3)
C11_5 C 0.2739(2) 0.7542(5) 0.7659(3)
C12_5 C 0.3364(3) 0.7558(8) 0.8279(4)
H9_5 H 0.3608 0.8236 0.8144
H10_5 H 0.3351 0.7850 0.8758
H11_5 H 0.3537 0.6597 0.8334
Zn2_3 Zn 0.21222(2) 0.99019(6) 0.83624(3)
O15_3 O 0.37961(16) 0.4576(4) 0.7612(2)
N5_3 N 0.27168(18) 0.3361(4) 0.7331(2)
O9_5 O 0.01742(19) 0.1295(5) 0.6326(2)
H1_5 H 0.0439 0.0628 0.6465
H2_5 H 0.0177 0.1716 0.6721
H4_5 H 0.0180 0.4424 0.6038
O3_6 O 0.88445(18) 0.1488(4) 0.5421(3)
O4_6 O 0.83532(18) 0.1353(4) 0.6177(2)
O5_6 O 0.69546(15) 0.0179(4) 0.57317(19)
O8_4 O 0.62039(16) 0.4576(4) 0.7388(2)
O10_6 O 0.98229(18) 0.4106(4) 0.5826(2)
H3_6 H 0.9584 0.4836 0.5697
N3_6 N 0.75676(17) 0.1677(4) 0.7036(2)
N4_4 N 0.72832(18) 0.3361(4) 0.7669(2)
C4_6 C 0.8590(2) 0.0780(5) 0.5775(3)
C7_6 C 0.6644(2) 0.1091(5) 0.5912(3)
C8_6 C 0.6966(2) 0.1968(4) 0.6616(3)
C9_6 C 0.6791(2) 0.3015(5) 0.7005(3)
C10_6 C 0.6217(2) 0.3787(5) 0.6859(3)
C11_6 C 0.7739(2) 0.2542(5) 0.7659(3)
C12_6 C 0.8364(3) 0.2558(8) 0.8279(4)
H9_6 H 0.8608 0.3236 0.8144
H10_6 H 0.8351 0.2850 0.8758
H11_6 H 0.8537 0.1597 0.8334
Zn2_4 Zn 0.71222(2) 0.49019(6) 0.83624(3)
Zn1_4 Zn 0.78778(2) 0.99019(6) 0.66376(3)
N1_6 N 0.8580(2) 0.6814(4) 0.5515(3)
H5_6 H 0.8673 0.5952 0.5388
N2_6 N 0.81543(18) 0.8489(5) 0.5956(2)
C1_6 C 0.9340(2) 0.8152(5) 0.5196(3)
C2_6 C 0.8824(2) 0.8141(5) 0.5437(3)
C3_6 C 0.8549(2) 0.9166(5) 0.5702(3)
C5_6 C 0.8176(2) 0.7073(5) 0.5820(3)
C6_6 C 0.7823(3) 0.5899(7) 0.5989(4)
H6_6 H 0.7994 0.5709 0.6535
H7_6 H 0.7409 0.6205 0.5824
H8_6 H 0.7839 0.5025 0.5718
O15_4 O 0.87961(16) 0.9576(4) 0.7612(2)
N5_4 N 0.77168(18) 0.8361(4) 0.7331(2)
O3_7 O 0.61555(18) 0.6488(4) 0.9579(3)
O4_7 O 0.66468(18) 0.6353(4) 0.8823(2)
O5_7 O 0.80454(15) 0.5179(4) 0.92683(19)
O9_6 O 0.48258(19) 0.6295(5) 0.8674(2)
H1_6 H 0.4561 0.5628 0.8535
H2_6 H 0.4823 0.6716 0.8279
O10_7 O 0.51771(18) 0.9106(4) 0.9174(2)
H3_7 H 0.5416 0.9836 0.9303
H4_6 H 0.4820 0.9424 0.8962
N1_7 N 0.6420(2) 0.1814(4) 0.9485(3)
H5_7 H 0.6327 0.0952 0.9612
N2_7 N 0.68457(18) 0.3489(5) 0.9044(2)
N3_7 N 0.74324(17) 0.6677(4) 0.7964(2)
C1_7 C 0.5660(2) 0.3152(5) 0.9804(3)
C2_7 C 0.6176(2) 0.3141(5) 0.9563(3)
C3_7 C 0.6451(2) 0.4166(5) 0.9298(3)
C4_7 C 0.6410(2) 0.5780(5) 0.9225(3)
C5_7 C 0.6824(2) 0.2073(5) 0.9180(3)
C6_7 C 0.7177(3) 0.0899(7) 0.9011(4)
H6_7 H 0.7006 0.0709 0.8465
H7_7 H 0.7591 0.1205 0.9176
H8_7 H 0.7161 0.0025 0.9282
C7_7 C 0.8356(2) 0.6091(5) 0.9088(3)
C8_7 C 0.8034(2) 0.6968(4) 0.8384(3)
C9_7 C 0.8209(2) 0.8015(5) 0.7995(3)
C10_7 C 0.8783(2) 0.8787(5) 0.8141(3)
C11_7 C 0.7261(2) 0.7542(5) 0.7341(3)
C12_7 C 0.6636(3) 0.7558(8) 0.6721(4)
H9_7 H 0.6392 0.8236 0.6856
H10_7 H 0.6649 0.7850 0.6242
H11_7 H 0.6463 0.6597 0.6666
O3_8 O 0.11555(18) 0.1488(4) 0.9579(3)
O4_8 O 0.16468(18) 0.1353(4) 0.8823(2)
O5_8 O 0.30454(15) 0.0179(4) 0.92683(19)
O10_8 O 0.01771(18) 0.4106(4) 0.9174(2)
H3_8 H 0.0416 0.4836 0.9303
N3_8 N 0.24324(17) 0.1677(4) 0.7964(2)
C4_8 C 0.1410(2) 0.0780(5) 0.9225(3)
C7_8 C 0.3356(2) 0.1091(5) 0.9088(3)
C8_8 C 0.3034(2) 0.1968(4) 0.8384(3)
C9_8 C 0.3209(2) 0.3015(5) 0.7995(3)
C10_8 C 0.3783(2) 0.3787(5) 0.8141(3)
C11_8 C 0.2261(2) 0.2542(5) 0.7341(3)
C12_8 C 0.1636(3) 0.2558(8) 0.6721(4)
H9_8 H 0.1392 0.3236 0.6856
H10_8 H 0.1649 0.2850 0.6242
H11_8 H 0.1463 0.1597 0.6666
N1_8 N 0.1420(2) 0.6814(4) 0.9485(3)
H5_8 H 0.1327 0.5952 0.9612
N2_8 N 0.18457(18) 0.8489(5) 0.9044(2)
C1_8 C 0.0660(2) 0.8152(5) 0.9804(3)
C2_8 C 0.1176(2) 0.8141(5) 0.9563(3)
C3_8 C 0.1451(2) 0.9166(5) 0.9298(3)
C5_8 C 0.1824(2) 0.7073(5) 0.9180(3)
C6_8 C 0.2177(3) 0.5899(7) 0.9011(4)
H6_8 H 0.2006 0.5709 0.8465
H7_8 H 0.2591 0.6205 0.9176
H8_8 H 0.2161 0.5025 0.9282
O9_7 O 0.01742(19) 0.8705(5) 0.1326(2)
H1_7 H 0.0439 0.9372 0.1465
H2_7 H 0.0177 0.8284 0.1721
H4_7 H 0.0180 0.5576 0.1038
O9_8 O 0.98258(19) 0.1295(5) 0.8674(2)
H1_8 H 0.9561 0.0628 0.8535
H2_8 H 0.9823 0.1716 0.8279
H4_8 H 0.9820 0.4424 0.8962
loop_
_geom_bond_atom_site_label_1
_geom_bond_atom_site_label_2
_geom_bond_site_symmetry_1
_geom_bond_site_symmetry_2
Eu1 O1 1_555 1_555
Zn1 O4 1_555 1_555
O1 C1 1_555 1_555
O2 C1 1_555 1_555
O3 Eu1 1_555 1_555
O4 C4 1_555 1_555
O5 Zn1 1_555 1_555
O6 C7 1_555 1_555
O7 C10 1_555 1_555
O8 C10 1_555 1_555
O9 Eu1 1_555 1_555
H1 O9 1_555 1_555
H2 O9 1_555 1_555
O10 Eu1 1_555 1_555
H3 O10 1_555 1_555
H4 O10 1_555 1_555
N1 H5 1_555 1_555
N2 Zn1 1_555 1_555
N3 Zn1 1_555 1_555
N4 C9 1_555 1_555
C1 C2 1_555 1_555
C2 N1 1_555 1_555
C3 N2 1_555 1_555
C4 O3 1_555 1_555
C5 N1 1_555 1_555
C6 C5 1_555 1_555
H6 C6 1_555 1_555
H7 C6 1_555 1_555
H8 C6 1_555 1_555
C7 O5 1_555 1_555
C8 N3 1_555 1_555
C9 C8 1_555 1_555
C10 C9 1_555 1_555
C11 N3 1_555 1_555
C12 C11 1_555 1_555
H9 C12 1_555 1_555
H10 C12 1_555 1_555
H11 C12 1_555 1_555
Eu2 O1 1_555 1_555
Eu3 O6 1_555 1_555
Zn2 O8 1_555 1_555
O11 Eu1 1_555 1_555
O12 Eu1 1_555 1_555
O13 Eu1 1_555 1_555
O14 Eu1 1_555 1_555
O15 Zn1 1_555 1_555
N5 Zn1 1_555 1_555
O2 Eu2 1_555 1_555
O7 Eu3 1_555 1_555
N2 C5 1_555 1_555
N4 C11 1_555 1_555
N4 Zn2 1_555 1_555
C2 C3 1_555 1_555
C3 C4 1_555 1_555
C7 C8 1_555 1_555
Eu2 O11 1_555 1_555
O1_2 C1_2 1_555 1_555
O2_2 C1_2 1_555 1_555
N1_2 H5_2 1_555 1_555
N2_2 Zn1_2 1_555 1_555
C1_2 C2_2 1_555 1_555
C2_2 N1_2 1_555 1_555
C3_2 N2_2 1_555 1_555
C5_2 N1_2 1_555 1_555
C6_2 C5_2 1_555 1_555
H6_2 C6_2 1_555 1_555
H7_2 C6_2 1_555 1_555
H8_2 C6_2 1_555 1_555
O15_2 Zn1_2 1_555 1_555
N5_2 Zn1_2 1_555 1_555
N2_2 C5_2 1_555 1_555
C2_2 C3_2 1_555 1_555
O3_2 Eu1_2 1_555 1_555
O4_2 C4_2 1_555 1_555
O6_2 C7_2 1_555 1_555
O7_2 C10_2 1_555 1_555
O8_2 C10_2 1_555 1_555
O10_2 Eu1_2 1_555 1_555
H3_2 O10_2 1_555 1_555
N4_2 C9_2 1_555 1_555
C4_2 O3_2 1_555 1_555
C7_2 O5_2 1_555 1_555
C8_2 N3_2 1_555 1_555
C9_2 C8_2 1_555 1_555
C10_2 C9_2 1_555 1_555
C11_2 N3_2 1_555 1_555
C12_2 C11_2 1_555 1_555
H9_2 C12_2 1_555 1_555
H10_2 C12_2 1_555 1_555
H11_2 C12_2 1_555 1_555
Eu2 O6_2 1_555 1_555
Zn2_2 O8_2 1_555 1_555
O13_2 Eu1_2 1_555 1_555
O14_2 Eu1_2 1_555 1_555
O7_2 Eu2 1_555 1_555
N4_2 C11_2 1_555 1_555
N4_2 Zn2_2 1_555 1_555
C7_2 C8_2 1_555 1_555
H1_2 O9_2 1_555 1_555
H2_2 O9_2 1_555 1_555
Eu1_3 O1_3 1_555 1_555
Zn2_2 O4_3 1_555 1_555
O1_3 C1_3 1_555 1_555
O2_3 C1_3 1_555 1_555
O3_3 Eu1_3 1_555 1_555
O4_3 C4_3 1_555 1_555
O5_3 Zn2_2 1_555 1_555
O6_3 C7_3 1_555 1_555
O7_3 C10_3 1_555 1_555
O15_2 C10_3 1_555 1_555
O9_3 Eu1_3 1_555 1_555
H1_3 O9_3 1_555 1_555
H2_3 O9_3 1_555 1_555
O10_3 Eu1_3 1_555 1_555
H3_3 O10_3 1_555 1_555
H4_3 O10_3 1_555 1_555
N1_3 H5_3 1_555 1_555
N2_3 Zn2_2 1_555 1_555
N3_3 Zn2_2 1_555 1_555
N5_2 C9_3 1_555 1_555
C1_3 C2_3 1_555 1_555
C2_3 N1_3 1_555 1_555
C3_3 N2_3 1_555 1_555
C4_3 O3_3 1_555 1_555
C5_3 N1_3 1_555 1_555
C6_3 C5_3 1_555 1_555
H6_3 C6_3 1_555 1_555
H7_3 C6_3 1_555 1_555
H8_3 C6_3 1_555 1_555
C7_3 O5_3 1_555 1_555
C8_3 N3_3 1_555 1_555
C9_3 C8_3 1_555 1_555
C10_3 C9_3 1_555 1_555
C11_3 N3_3 1_555 1_555
C12_3 C11_3 1_555 1_555
H9_3 C12_3 1_555 1_555
H10_3 C12_3 1_555 1_555
H11_3 C12_3 1_555 1_555
N2_3 C5_3 1_555 1_555
N5_2 C11_3 1_555 1_555
C2_3 C3_3 1_555 1_555
C3_3 C4_3 1_555 1_555
C7_3 C8_3 1_555 1_555
Eu2_2 O11_3 1_555 1_555
O1_4 C1_4 1_555 1_555
O2_4 C1_4 1_555 1_555
N1_4 H5_4 1_555 1_555
N2_4 Zn2 1_555 1_555
C1_4 C2_4 1_555 1_555
C2_4 N1_4 1_555 1_555
C3_4 N2_4 1_555 1_555
C5_4 N1_4 1_555 1_555
C6_4 C5_4 1_555 1_555
H6_4 C6_4 1_555 1_555
H7_4 C6_4 1_555 1_555
H8_4 C6_4 1_555 1_555
N2_4 C5_4 1_555 1_555
C2_4 C3_4 1_555 1_555
O3_4 Eu1_4 1_555 1_555
O4_4 C4_4 1_555 1_555
O6_4 C7_4 1_555 1_555
O7_4 C10_4 1_555 1_555
O15 C10_4 1_555 1_555
O10_4 Eu1_4 1_555 1_555
H3_4 O10_4 1_555 1_555
N5 C9_4 1_555 1_555
C4_4 O3_4 1_555 1_555
C7_4 O5_4 1_555 1_555
C8_4 N3_4 1_555 1_555
C9_4 C8_4 1_555 1_555
C10_4 C9_4 1_555 1_555
C11_4 N3_4 1_555 1_555
C12_4 C11_4 1_555 1_555
H9_4 C12_4 1_555 1_555
H10_4 C12_4 1_555 1_555
H11_4 C12_4 1_555 1_555
N5 C11_4 1_555 1_555
C7_4 C8_4 1_555 1_555
Zn1_3 O4_5 1_555 1_555
O11 C1_5 1_555 1_555
O12 C1_5 1_555 1_555
O3_5 Eu2 1_555 1_555
O4_5 C4_5 1_555 1_555
O5_5 Zn1_3 1_555 1_555
O13_2 C7_5 1_555 1_555
O14_2 C10_5 1_555 1_555
O8_3 C10_5 1_555 1_555
O9_4 Eu2 1_555 1_555
H1_4 O9_4 1_555 1_555
H2_4 O9_4 1_555 1_555
O10_5 Eu2 1_555 1_555
H3_5 O10_5 1_555 1_555
H4_4 O10_5 1_555 1_555
N1_5 H5_5 1_555 1_555
N2_5 Zn1_3 1_555 1_555
N3_5 Zn1_3 1_555 1_555
N4_3 C9_5 1_555 1_555
C1_5 C2_5 1_555 1_555
C2_5 N1_5 1_555 1_555
C3_5 N2_5 1_555 1_555
C4_5 O3_5 1_555 1_555
C5_5 N1_5 1_555 1_555
C6_5 C5_5 1_555 1_555
H6_5 C6_5 1_555 1_555
H7_5 C6_5 1_555 1_555
H8_5 C6_5 1_555 1_555
C7_5 O5_5 1_555 1_555
C8_5 N3_5 1_555 1_555
C9_5 C8_5 1_555 1_555
C10_5 C9_5 1_555 1_555
C11_5 N3_5 1_555 1_555
C12_5 C11_5 1_555 1_555
H9_5 C12_5 1_555 1_555
H10_5 C12_5 1_555 1_555
H11_5 C12_5 1_555 1_555
Zn2_3 O8_3 1_555 1_555
O15_3 Zn1_3 1_555 1_555
N5_3 Zn1_3 1_555 1_555
N2_5 C5_5 1_555 1_555
N4_3 C11_5 1_555 1_555
N4_3 Zn2_3 1_555 1_555
C2_5 C3_5 1_555 1_555
C3_5 C4_5 1_555 1_555
C7_5 C8_5 1_555 1_555
H1_5 O9_5 1_555 1_555
H2_5 O9_5 1_555 1_555
O3_6 Eu3 1_555 1_555
O4_6 C4_6 1_555 1_555
O13 C7_6 1_555 1_555
O14 C10_6 1_555 1_555
O8_4 C10_6 1_555 1_555
O10_6 Eu3 1_555 1_555
H3_6 O10_6 1_555 1_555
N4_4 C9_6 1_555 1_555
C4_6 O3_6 1_555 1_555
C7_6 O5_6 1_555 1_555
C8_6 N3_6 1_555 1_555
C9_6 C8_6 1_555 1_555
C10_6 C9_6 1_555 1_555
C11_6 N3_6 1_555 1_555
C12_6 C11_6 1_555 1_555
H9_6 C12_6 1_555 1_555
H10_6 C12_6 1_555 1_555
H11_6 C12_6 1_555 1_555
Zn2_4 O8_4 1_555 1_555
N4_4 C11_6 1_555 1_555
N4_4 Zn2_4 1_555 1_555
C7_6 C8_6 1_555 1_555
O11_2 C1_6 1_555 1_555
O12_2 C1_6 1_555 1_555
N1_6 H5_6 1_555 1_555
N2_6 Zn1_4 1_555 1_555
C1_6 C2_6 1_555 1_555
C2_6 N1_6 1_555 1_555
C3_6 N2_6 1_555 1_555
C5_6 N1_6 1_555 1_555
C6_6 C5_6 1_555 1_555
H6_6 C6_6 1_555 1_555
H7_6 C6_6 1_555 1_555
H8_6 C6_6 1_555 1_555
O15_4 Zn1_4 1_555 1_555
N5_4 Zn1_4 1_555 1_555
N2_6 C5_6 1_555 1_555
C2_6 C3_6 1_555 1_555
Zn2_4 O4_7 1_555 1_555
O11_3 C1_7 1_555 1_555
O12_3 C1_7 1_555 1_555
O3_7 Eu2_2 1_555 1_555
O4_7 C4_7 1_555 1_555
O5_7 Zn2_4 1_555 1_555
O13_4 C7_7 1_555 1_555
O14_4 C10_7 1_555 1_555
O15_4 C10_7 1_555 1_555
O9_6 Eu2_2 1_555 1_555
H1_6 O9_6 1_555 1_555
H2_6 O9_6 1_555 1_555
O10_7 Eu2_2 1_555 1_555
H3_7 O10_7 1_555 1_555
H4_6 O10_7 1_555 1_555
N1_7 H5_7 1_555 1_555
N2_7 Zn2_4 1_555 1_555
N3_7 Zn2_4 1_555 1_555
N5_4 C9_7 1_555 1_555
C1_7 C2_7 1_555 1_555
C2_7 N1_7 1_555 1_555
C3_7 N2_7 1_555 1_555
C4_7 O3_7 1_555 1_555
C5_7 N1_7 1_555 1_555
C6_7 C5_7 1_555 1_555
H6_7 C6_7 1_555 1_555
H7_7 C6_7 1_555 1_555
H8_7 C6_7 1_555 1_555
C7_7 O5_7 1_555 1_555
C8_7 N3_7 1_555 1_555
C9_7 C8_7 1_555 1_555
C10_7 C9_7 1_555 1_555
C11_7 N3_7 1_555 1_555
C12_7 C11_7 1_555 1_555
H9_7 C12_7 1_555 1_555
H10_7 C12_7 1_555 1_555
H11_7 C12_7 1_555 1_555
N2_7 C5_7 1_555 1_555
N5_4 C11_7 1_555 1_555
C2_7 C3_7 1_555 1_555
C3_7 C4_7 1_555 1_555
C7_7 C8_7 1_555 1_555
O3_8 Eu3_2 1_555 1_555
O4_8 C4_8 1_555 1_555
O13_3 C7_8 1_555 1_555
O14_3 C10_8 1_555 1_555
O15_3 C10_8 1_555 1_555
O10_8 Eu3_2 1_555 1_555
H3_8 O10_8 1_555 1_555
N5_3 C9_8 1_555 1_555
C4_8 O3_8 1_555 1_555
C7_8 O5_8 1_555 1_555
C8_8 N3_8 1_555 1_555
C9_8 C8_8 1_555 1_555
C10_8 C9_8 1_555 1_555
C11_8 N3_8 1_555 1_555
C12_8 C11_8 1_555 1_555
H9_8 C12_8 1_555 1_555
H10_8 C12_8 1_555 1_555
H11_8 C12_8 1_555 1_555
N5_3 C11_8 1_555 1_555
C7_8 C8_8 1_555 1_555
O11_4 C1_8 1_555 1_555
O12_4 C1_8 1_555 1_555
N1_8 H5_8 1_555 1_555
N2_8 Zn2_3 1_555 1_555
C1_8 C2_8 1_555 1_555
C2_8 N1_8 1_555 1_555
C3_8 N2_8 1_555 1_555
C5_8 N1_8 1_555 1_555
C6_8 C5_8 1_555 1_555
H6_8 C6_8 1_555 1_555
H7_8 C6_8 1_555 1_555
H8_8 C6_8 1_555 1_555
N2_8 C5_8 1_555 1_555
C2_8 C3_8 1_555 1_555
H1_7 O9_7 1_555 1_555
H2_7 O9_7 1_555 1_555
H1_8 O9_8 1_555 1_555
H2_8 O9_8 1_555 1_555

#END
