
###############################################################################
#
# This file contains modified crystal structure data generated from the
# MOF subset of the Cambridge Structural Database (CSD) v543 
# hosted by the Cambridge Crystallographic Data Centre (CCDC).
#
# This work is licensed under the Creative Commons
# Attribution-NonCommercial-ShareAlike 4.0 International License.
# To view a copy of this license, visit
# http://creativecommons.org/licenses/by-nc-sa/4.0/
# or send a letter to
# Creative Commons, PO Box 1866, Mountain View, CA 94042, USA.
#
# CIF created using the CSD Python API on 29 September 2022
# The structure has been converted into the P1 space group
# The structure has a 3D framework
# The original CSD entry DIMKER is in the monoclinic crystal system
# The framework has been calculated to contain at least 10.0% void space
# The void calculation uses a probe of radius 1.32A, grid spacing 0.4
#
###############################################################################

data_DIMKER
_chemical_formula_moiety         '(C96 H80 Gd8 N32 O80 Zn8)n'
_symmetry_cell_setting           triclinic
_symmetry_space_group_name_H-M   'P 1'
_symmetry_Int_Tables_number      1
_space_group_name_Hall           'P 1'
loop_
_symmetry_equiv_pos_site_id
_symmetry_equiv_pos_as_xyz
1 x,y,z
_cell_length_a                   24.399(5)
_cell_length_b                   9.2236(19)
_cell_length_c                   19.186(4)
_cell_angle_alpha                90
_cell_angle_beta                 114.052(2)
_cell_angle_gamma                90
_cell_volume                     3942.86
loop_
_atom_site_label
_atom_site_type_symbol
_atom_site_fract_x
_atom_site_fract_y
_atom_site_fract_z
O9 O 0.0218(2) 0.6344(6) 0.1356(3)
H3 H 0.0003 0.6220 0.1605
H4 H 0.0406 0.5564 0.1360
O12 O 0.04803(18) 0.5664(4) 0.9949(3)
O14 O 0.0441(2) 0.8025(5) 0.9846(3)
Gd2 Gd 0.041112(12) 0.69634(3) 0.493078(17)
Zn2 Zn 0.71168(3) 0.01475(7) 0.83390(4)
Gd1 Gd 0.958888(12) 0.69634(3) 0.006922(17)
O8 O 0.9826(2) 0.9185(5) 0.0829(3)
H1 H 0.9652 0.9904 0.0544
H2 H 0.9703 0.9108 0.1185
O13 O 0.95197(18) 0.4336(4) 0.0051(3)
O15 O 0.8876(2) 0.6479(5) 0.0506(3)
O1 O 0.8025(2) 0.9857(5) 0.9250(3)
C1 C 0.8338(3) 0.8936(7) 0.9083(3)
O2 O 0.95197(18) 0.5664(4) 0.5051(3)
O3 O 0.9559(2) 0.8025(5) 0.5154(3)
C2 C 0.9326(3) 0.6843(7) 0.5201(3)
Zn1 Zn 0.78832(3) 0.51475(7) 0.66610(4)
O4 O 0.8876(2) 0.3521(5) 0.5506(3)
O5 O 0.8891(2) 0.8760(5) 0.9480(3)
O6 O 0.8367(2) 0.3685(5) 0.6221(3)
O7 O 0.9219(2) 0.6375(5) 0.8790(3)
O10 O 0.8786(2) 0.5450(5) 0.7627(3)
N1 N 0.7438(2) 0.8393(6) 0.7954(3)
N2 N 0.8555(2) 0.8167(6) 0.5485(3)
C3 C 0.8551(3) 0.5850(7) 0.5730(4)
N3 N 0.8159(2) 0.6520(6) 0.5971(3)
C4 C 0.8164(3) 0.7905(7) 0.5803(4)
N4 N 0.7723(2) 0.6703(5) 0.7340(3)
C5 C 0.8608(3) 0.4230(6) 0.5830(4)
C6 C 0.8773(3) 0.6252(6) 0.8151(4)
C7 C 0.8811(3) 0.6870(7) 0.5417(4)
C8 C 0.7803(4) 0.9081(8) 0.5950(5)
H5 H 0.7985 0.9352 0.6479
H6 H 0.7403 0.8739 0.5827
H7 H 0.7789 0.9908 0.5640
C9 C 0.8029(3) 0.8088(7) 0.8380(3)
C10 C 0.8205(3) 0.7041(6) 0.7994(3)
C11 C 0.7269(3) 0.7531(7) 0.7333(4)
C12 C 0.6657(3) 0.7509(10) 0.6723(5)
H8 H 0.6376 0.7258 0.6936
H9 H 0.6637 0.6805 0.6344
H10 H 0.6561 0.8450 0.6491
O11 O 0.6975(2) 0.4857(5) 0.5750(3)
Gd3 Gd 0.958888(12) 0.30366(3) 0.506922(17)
N5 N 0.7562(2) 0.3393(6) 0.7046(3)
Zn2_2 Zn 0.28832(3) 0.01475(7) 0.66610(4)
O1_2 O 0.1975(2) 0.9857(5) 0.5750(3)
C1_2 C 0.1662(3) 0.8936(7) 0.5917(3)
C2_2 C 0.0674(3) 0.6843(7) 0.9799(3)
Zn1_2 Zn 0.21168(3) 0.51475(7) 0.83390(4)
O4_2 O 0.1124(2) 0.3521(5) 0.9494(3)
O5_2 O 0.1109(2) 0.8760(5) 0.5520(3)
O6_2 O 0.1633(2) 0.3685(5) 0.8779(3)
O7_2 O 0.0781(2) 0.6375(5) 0.6210(3)
O8_2 O 0.0174(2) 0.9185(5) 0.4171(3)
H1_2 H 0.0348 0.9904 0.4456
H2_2 H 0.0297 0.9108 0.3815
O10_2 O 0.1214(2) 0.5450(5) 0.7373(3)
N1_2 N 0.2562(2) 0.8393(6) 0.7046(3)
N2_2 N 0.1445(2) 0.8167(6) 0.9515(3)
C3_2 C 0.1449(3) 0.5850(7) 0.9270(4)
N3_2 N 0.1841(2) 0.6520(6) 0.9029(3)
C4_2 C 0.1836(3) 0.7905(7) 0.9197(4)
N4_2 N 0.2277(2) 0.6703(5) 0.7660(3)
C5_2 C 0.1392(3) 0.4230(6) 0.9170(4)
C6_2 C 0.1227(3) 0.6252(6) 0.6849(4)
C7_2 C 0.1189(3) 0.6870(7) 0.9583(4)
C8_2 C 0.2197(4) 0.9081(8) 0.9050(5)
H5_2 H 0.2015 0.9352 0.8521
H6_2 H 0.2597 0.8739 0.9173
H7_2 H 0.2211 0.9908 0.9360
C9_2 C 0.1971(3) 0.8088(7) 0.6620(3)
C10_2 C 0.1795(3) 0.7041(6) 0.7006(3)
C11_2 C 0.2731(3) 0.7531(7) 0.7667(4)
C12_2 C 0.3343(3) 0.7509(10) 0.8277(5)
H8_2 H 0.3624 0.7258 0.8064
H9_2 H 0.3363 0.6805 0.8656
H10_2 H 0.3439 0.8450 0.8509
O11_2 O 0.3025(2) 0.4857(5) 0.9250(3)
O13_2 O 0.04803(18) 0.4336(4) 0.4949(3)
Gd3_2 Gd 0.041112(12) 0.30366(3) 0.993078(17)
O15_2 O 0.1124(2) 0.6479(5) 0.4494(3)
N5_2 N 0.2438(2) 0.3393(6) 0.7954(3)
O9_2 O 0.9782(2) 0.6344(6) 0.3644(3)
H3_2 H 0.9997 0.6220 0.3395
H4_2 H 0.9594 0.5564 0.3640
Gd1_2 Gd 0.458888(12) 0.19634(3) 0.006922(17)
O8_3 O 0.4826(2) 0.4185(5) 0.0829(3)
H1_3 H 0.4652 0.4904 0.0544
H2_3 H 0.4703 0.4108 0.1185
O9_3 O 0.5218(2) 0.1344(6) 0.1356(3)
H3_3 H 0.5003 0.1220 0.1605
H4_3 H 0.5406 0.0564 0.1360
O15_3 O 0.3876(2) 0.1479(5) 0.0506(3)
C1_3 C 0.3338(3) 0.3936(7) 0.9083(3)
O2_2 O 0.45197(18) 0.0664(4) 0.5051(3)
O3_2 O 0.4559(2) 0.3025(5) 0.5154(3)
C2_3 C 0.4326(3) 0.1843(7) 0.5201(3)
O5_3 O 0.3891(2) 0.3760(5) 0.9480(3)
O7_3 O 0.4219(2) 0.1375(5) 0.8790(3)
O10_3 O 0.3786(2) 0.0450(5) 0.7627(3)
N2_3 N 0.3555(2) 0.3167(6) 0.5485(3)
C3_3 C 0.3551(3) 0.0850(7) 0.5730(4)
N3_3 N 0.3159(2) 0.1520(6) 0.5971(3)
C4_3 C 0.3164(3) 0.2905(7) 0.5803(4)
N4_3 N 0.2723(2) 0.1703(5) 0.7340(3)
C6_3 C 0.3773(3) 0.1252(6) 0.8151(4)
C7_3 C 0.3811(3) 0.1870(7) 0.5417(4)
C8_3 C 0.2803(4) 0.4081(8) 0.5950(5)
H5_3 H 0.2985 0.4352 0.6479
H6_3 H 0.2403 0.3739 0.5827
H7_3 H 0.2789 0.4908 0.5640
C9_3 C 0.3029(3) 0.3088(7) 0.8380(3)
C10_3 C 0.3205(3) 0.2041(6) 0.7994(3)
C11_3 C 0.2269(3) 0.2531(7) 0.7333(4)
C12_3 C 0.1657(3) 0.2509(10) 0.6723(5)
H8_3 H 0.1376 0.2258 0.6936
H9_3 H 0.1637 0.1805 0.6344
H10_3 H 0.1561 0.3450 0.6491
O12_2 O 0.54803(18) 0.0664(4) 0.9949(3)
O14_2 O 0.5441(2) 0.3025(5) 0.9846(3)
Gd2_2 Gd 0.541112(12) 0.19634(3) 0.493078(17)
O13_3 O 0.45197(18) 0.9336(4) 0.0051(3)
O4_3 O 0.3876(2) 0.8521(5) 0.5506(3)
O6_3 O 0.3367(2) 0.8685(5) 0.6221(3)
C5_3 C 0.3608(3) 0.9230(6) 0.5830(4)
Gd3_3 Gd 0.458888(12) 0.80366(3) 0.506922(17)
C1_4 C 0.6662(3) 0.3936(7) 0.5917(3)
C2_4 C 0.5674(3) 0.1843(7) 0.9799(3)
O5_4 O 0.6109(2) 0.3760(5) 0.5520(3)
O7_4 O 0.5781(2) 0.1375(5) 0.6210(3)
O8_4 O 0.5174(2) 0.4185(5) 0.4171(3)
H1_4 H 0.5348 0.4904 0.4456
H2_4 H 0.5297 0.4108 0.3815
O9_4 O 0.4782(2) 0.1344(6) 0.3644(3)
H3_4 H 0.4997 0.1220 0.3395
H4_4 H 0.4594 0.0564 0.3640
O10_4 O 0.6214(2) 0.0450(5) 0.7373(3)
N2_4 N 0.6445(2) 0.3167(6) 0.9515(3)
C3_4 C 0.6449(3) 0.0850(7) 0.9270(4)
N3_4 N 0.6841(2) 0.1520(6) 0.9029(3)
C4_4 C 0.6836(3) 0.2905(7) 0.9197(4)
N4_4 N 0.7277(2) 0.1703(5) 0.7660(3)
C6_4 C 0.6227(3) 0.1252(6) 0.6849(4)
C7_4 C 0.6189(3) 0.1870(7) 0.9583(4)
C8_4 C 0.7197(4) 0.4081(8) 0.9050(5)
H5_4 H 0.7015 0.4352 0.8521
H6_4 H 0.7597 0.3739 0.9173
H7_4 H 0.7211 0.4908 0.9360
C9_4 C 0.6971(3) 0.3088(7) 0.6620(3)
C10_4 C 0.6795(3) 0.2041(6) 0.7006(3)
C11_4 C 0.7731(3) 0.2531(7) 0.7667(4)
C12_4 C 0.8343(3) 0.2509(10) 0.8277(5)
H8_4 H 0.8624 0.2258 0.8064
H9_4 H 0.8363 0.1805 0.8656
H10_4 H 0.8439 0.3450 0.8509
O15_4 O 0.6124(2) 0.1479(5) 0.4494(3)
O4_4 O 0.6124(2) 0.8521(5) 0.9494(3)
O6_4 O 0.6633(2) 0.8685(5) 0.8779(3)
C5_4 C 0.6392(3) 0.9230(6) 0.9170(4)
O13_4 O 0.54803(18) 0.9336(4) 0.4949(3)
Gd3_4 Gd 0.541112(12) 0.80366(3) 0.993078(17)
O1_3 O 0.1975(2) 0.0143(5) 0.0750(3)
C1_5 C 0.1662(3) 0.1064(7) 0.0917(3)
O3_3 O 0.0441(2) 0.1975(5) 0.4846(3)
C2_5 C 0.0674(3) 0.3157(7) 0.4799(3)
Zn1_3 Zn 0.21168(3) 0.48525(7) 0.33390(4)
O5_5 O 0.1109(2) 0.1240(5) 0.0520(3)
O6_5 O 0.1633(2) 0.6315(5) 0.3779(3)
O7_5 O 0.0781(2) 0.3625(5) 0.1210(3)
O10_5 O 0.1214(2) 0.4550(5) 0.2373(3)
N1_3 N 0.2562(2) 0.1607(6) 0.2046(3)
N2_5 N 0.1445(2) 0.1833(6) 0.4515(3)
C3_5 C 0.1449(3) 0.4150(7) 0.4270(4)
N3_5 N 0.1841(2) 0.3480(6) 0.4029(3)
C4_5 C 0.1836(3) 0.2095(7) 0.4197(4)
N4_5 N 0.2277(2) 0.3297(5) 0.2660(3)
C5_5 C 0.1392(3) 0.5770(6) 0.4170(4)
C6_5 C 0.1227(3) 0.3748(6) 0.1849(4)
C7_5 C 0.1189(3) 0.3130(7) 0.4583(4)
C8_5 C 0.2197(4) 0.0919(8) 0.4050(5)
H5_5 H 0.2015 0.0648 0.3521
H6_5 H 0.2597 0.1261 0.4173
H7_5 H 0.2211 0.0092 0.4360
C9_5 C 0.1971(3) 0.1912(7) 0.1620(3)
C10_5 C 0.1795(3) 0.2959(6) 0.2006(3)
C11_5 C 0.2731(3) 0.2469(7) 0.2667(4)
C12_5 C 0.3343(3) 0.2491(10) 0.3277(5)
H8_5 H 0.3624 0.2742 0.3064
H9_5 H 0.3363 0.3195 0.3656
H10_5 H 0.3439 0.1550 0.3509
O11_3 O 0.3025(2) 0.5143(5) 0.4250(3)
N5_3 N 0.2438(2) 0.6607(6) 0.2954(3)
O8_5 O 0.0174(2) 0.0815(5) 0.9171(3)
H1_5 H 0.0348 0.0096 0.9456
H2_5 H 0.0297 0.0892 0.8815
Zn2_3 Zn 0.28832(3) 0.98525(7) 0.16610(4)
O14_3 O 0.9559(2) 0.1975(5) 0.0154(3)
O9_5 O 0.0218(2) 0.3656(6) 0.6356(3)
H3_5 H 0.0003 0.3780 0.6605
H4_5 H 0.0406 0.4436 0.6360
O1_4 O 0.8025(2) 0.0143(5) 0.4250(3)
C1_6 C 0.8338(3) 0.1064(7) 0.4083(3)
C2_6 C 0.9326(3) 0.3157(7) 0.0201(3)
Zn1_4 Zn 0.78832(3) 0.48525(7) 0.16610(4)
O5_6 O 0.8891(2) 0.1240(5) 0.4480(3)
O6_6 O 0.8367(2) 0.6315(5) 0.1221(3)
O7_6 O 0.9219(2) 0.3625(5) 0.3790(3)
O8_6 O 0.9826(2) 0.0815(5) 0.5829(3)
H1_6 H 0.9652 0.0096 0.5544
H2_6 H 0.9703 0.0892 0.6185
O10_6 O 0.8786(2) 0.4550(5) 0.2627(3)
N1_4 N 0.7438(2) 0.1607(6) 0.2954(3)
N2_6 N 0.8555(2) 0.1833(6) 0.0485(3)
C3_6 C 0.8551(3) 0.4150(7) 0.0730(4)
N3_6 N 0.8159(2) 0.3480(6) 0.0971(3)
C4_6 C 0.8164(3) 0.2095(7) 0.0803(4)
N4_6 N 0.7723(2) 0.3297(5) 0.2340(3)
C5_6 C 0.8608(3) 0.5770(6) 0.0830(4)
C6_6 C 0.8773(3) 0.3748(6) 0.3151(4)
C7_6 C 0.8811(3) 0.3130(7) 0.0417(4)
C8_6 C 0.7803(4) 0.0919(8) 0.0950(5)
H5_6 H 0.7985 0.0648 0.1479
H6_6 H 0.7403 0.1261 0.0827
H7_6 H 0.7789 0.0092 0.0640
C9_6 C 0.8029(3) 0.1912(7) 0.3380(3)
C10_6 C 0.8205(3) 0.2959(6) 0.2994(3)
C11_6 C 0.7269(3) 0.2469(7) 0.2333(4)
C12_6 C 0.6657(3) 0.2491(10) 0.1723(5)
H8_6 H 0.6376 0.2742 0.1936
H9_6 H 0.6637 0.3195 0.1344
H10_6 H 0.6561 0.1550 0.1491
O11_4 O 0.6975(2) 0.5143(5) 0.0750(3)
N5_4 N 0.7562(2) 0.6607(6) 0.2046(3)
Zn2_4 Zn 0.71168(3) 0.98525(7) 0.33390(4)
O6_7 O 0.6633(2) 0.1315(5) 0.3779(3)
C5_7 C 0.6392(3) 0.0770(6) 0.4170(4)
C1_7 C 0.6662(3) 0.6064(7) 0.0917(3)
O3_4 O 0.5441(2) 0.6975(5) 0.4846(3)
C2_7 C 0.5674(3) 0.8157(7) 0.4799(3)
O5_7 O 0.6109(2) 0.6240(5) 0.0520(3)
O7_7 O 0.5781(2) 0.8625(5) 0.1210(3)
O10_7 O 0.6214(2) 0.9550(5) 0.2373(3)
N2_7 N 0.6445(2) 0.6833(6) 0.4515(3)
C3_7 C 0.6449(3) 0.9150(7) 0.4270(4)
N3_7 N 0.6841(2) 0.8480(6) 0.4029(3)
C4_7 C 0.6836(3) 0.7095(7) 0.4197(4)
N4_7 N 0.7277(2) 0.8297(5) 0.2660(3)
C6_7 C 0.6227(3) 0.8748(6) 0.1849(4)
C7_7 C 0.6189(3) 0.8130(7) 0.4583(4)
C8_7 C 0.7197(4) 0.5919(8) 0.4050(5)
H5_7 H 0.7015 0.5648 0.3521
H6_7 H 0.7597 0.6261 0.4173
H7_7 H 0.7211 0.5092 0.4360
C9_7 C 0.6971(3) 0.6912(7) 0.1620(3)
C10_7 C 0.6795(3) 0.7959(6) 0.2006(3)
C11_7 C 0.7731(3) 0.7469(7) 0.2667(4)
C12_7 C 0.8343(3) 0.7491(10) 0.3277(5)
H8_7 H 0.8624 0.7742 0.3064
H9_7 H 0.8363 0.8195 0.3656
H10_7 H 0.8439 0.6550 0.3509
O14_4 O 0.4559(2) 0.6975(5) 0.0154(3)
O8_7 O 0.5174(2) 0.5815(5) 0.9171(3)
H1_7 H 0.5348 0.5096 0.9456
H2_7 H 0.5297 0.5892 0.8815
O9_6 O 0.4782(2) 0.8656(6) 0.8644(3)
H3_6 H 0.4997 0.8780 0.8395
H4_6 H 0.4594 0.9436 0.8640
O6_8 O 0.3367(2) 0.1315(5) 0.1221(3)
C5_8 C 0.3608(3) 0.0770(6) 0.0830(4)
C1_8 C 0.3338(3) 0.6064(7) 0.4083(3)
C2_8 C 0.4326(3) 0.8157(7) 0.0201(3)
O5_8 O 0.3891(2) 0.6240(5) 0.4480(3)
O7_8 O 0.4219(2) 0.8625(5) 0.3790(3)
O8_8 O 0.4826(2) 0.5815(5) 0.5829(3)
H1_8 H 0.4652 0.5096 0.5544
H2_8 H 0.4703 0.5892 0.6185
O9_7 O 0.5218(2) 0.8656(6) 0.6356(3)
H3_7 H 0.5003 0.8780 0.6605
H4_7 H 0.5406 0.9436 0.6360
O10_8 O 0.3786(2) 0.9550(5) 0.2627(3)
N2_8 N 0.3555(2) 0.6833(6) 0.0485(3)
C3_8 C 0.3551(3) 0.9150(7) 0.0730(4)
N3_8 N 0.3159(2) 0.8480(6) 0.0971(3)
C4_8 C 0.3164(3) 0.7095(7) 0.0803(4)
N4_8 N 0.2723(2) 0.8297(5) 0.2340(3)
C6_8 C 0.3773(3) 0.8748(6) 0.3151(4)
C7_8 C 0.3811(3) 0.8130(7) 0.0417(4)
C8_8 C 0.2803(4) 0.5919(8) 0.0950(5)
H5_8 H 0.2985 0.5648 0.1479
H6_8 H 0.2403 0.6261 0.0827
H7_8 H 0.2789 0.5092 0.0640
C9_8 C 0.3029(3) 0.6912(7) 0.3380(3)
C10_8 C 0.3205(3) 0.7959(6) 0.2994(3)
C11_8 C 0.2269(3) 0.7469(7) 0.2333(4)
C12_8 C 0.1657(3) 0.7491(10) 0.1723(5)
H8_8 H 0.1376 0.7742 0.1936
H9_8 H 0.1637 0.8195 0.1344
H10_8 H 0.1561 0.6550 0.1491
O9_8 O 0.9782(2) 0.3656(6) 0.8644(3)
H3_8 H 0.9997 0.3780 0.8395
H4_8 H 0.9594 0.4436 0.8640
loop_
_geom_bond_atom_site_label_1
_geom_bond_atom_site_label_2
_geom_bond_site_symmetry_1
_geom_bond_site_symmetry_2
H3 O9 1_555 1_555
H4 O9 1_555 1_555
O8 Gd1 1_555 1_555
H1 O8 1_555 1_555
H2 O8 1_555 1_555
O13 Gd1 1_555 1_555
O15 Gd1 1_555 1_555
O1 C1 1_555 1_555
C1 O5 1_555 1_555
O2 C2 1_555 1_555
O3 C2 1_555 1_555
C2 C7 1_555 1_555
Zn1 O6 1_555 1_555
O4 C5 1_555 1_555
O6 C5 1_555 1_555
O10 Zn1 1_555 1_555
N1 C9 1_555 1_555
N2 C4 1_555 1_555
C3 N3 1_555 1_555
N3 Zn1 1_555 1_555
C4 N3 1_555 1_555
N4 Zn1 1_555 1_555
C5 C3 1_555 1_555
C6 O7 1_555 1_555
C7 N2 1_555 1_555
C8 C4 1_555 1_555
H5 C8 1_555 1_555
H6 C8 1_555 1_555
H7 C8 1_555 1_555
C9 C1 1_555 1_555
C10 N4 1_555 1_555
C11 N1 1_555 1_555
C12 C11 1_555 1_555
H8 C12 1_555 1_555
H9 C12 1_555 1_555
H10 C12 1_555 1_555
O11 Zn1 1_555 1_555
Gd3 O2 1_555 1_555
N5 Zn1 1_555 1_555
O4 Gd3 1_555 1_555
O10 C6 1_555 1_555
C3 C7 1_555 1_555
N4 C11 1_555 1_555
C6 C10 1_555 1_555
C9 C10 1_555 1_555
O1_2 C1_2 1_555 1_555
C1_2 O5_2 1_555 1_555
O12 C2_2 1_555 1_555
O14 C2_2 1_555 1_555
C2_2 C7_2 1_555 1_555
Gd2 O5_2 1_555 1_555
Zn1_2 O6_2 1_555 1_555
O4_2 C5_2 1_555 1_555
O6_2 C5_2 1_555 1_555
O7_2 Gd2 1_555 1_555
O8_2 Gd2 1_555 1_555
H1_2 O8_2 1_555 1_555
H2_2 O8_2 1_555 1_555
O10_2 Zn1_2 1_555 1_555
N1_2 C9_2 1_555 1_555
N2_2 C4_2 1_555 1_555
C3_2 N3_2 1_555 1_555
N3_2 Zn1_2 1_555 1_555
C4_2 N3_2 1_555 1_555
N4_2 Zn1_2 1_555 1_555
C5_2 C3_2 1_555 1_555
C6_2 O7_2 1_555 1_555
C7_2 N2_2 1_555 1_555
C8_2 C4_2 1_555 1_555
H5_2 C8_2 1_555 1_555
H6_2 C8_2 1_555 1_555
H7_2 C8_2 1_555 1_555
C9_2 C1_2 1_555 1_555
C10_2 N4_2 1_555 1_555
C11_2 N1_2 1_555 1_555
C12_2 C11_2 1_555 1_555
H8_2 C12_2 1_555 1_555
H9_2 C12_2 1_555 1_555
H10_2 C12_2 1_555 1_555
O11_2 Zn1_2 1_555 1_555
O13_2 Gd2 1_555 1_555
Gd3_2 O12 1_555 1_555
O15_2 Gd2 1_555 1_555
N5_2 Zn1_2 1_555 1_555
O4_2 Gd3_2 1_555 1_555
O10_2 C6_2 1_555 1_555
C3_2 C7_2 1_555 1_555
N4_2 C11_2 1_555 1_555
C6_2 C10_2 1_555 1_555
C9_2 C10_2 1_555 1_555
H3_2 O9_2 1_555 1_555
H4_2 O9_2 1_555 1_555
O8_3 Gd1_2 1_555 1_555
H1_3 O8_3 1_555 1_555
H2_3 O8_3 1_555 1_555
O9_3 Gd1_2 1_555 1_555
H3_3 O9_3 1_555 1_555
H4_3 O9_3 1_555 1_555
O15_3 Gd1_2 1_555 1_555
O11_2 C1_3 1_555 1_555
C1_3 O5_3 1_555 1_555
O2_2 C2_3 1_555 1_555
O3_2 C2_3 1_555 1_555
C2_3 C7_3 1_555 1_555
O10_3 Zn2_2 1_555 1_555
N5_2 C9_3 1_555 1_555
N2_3 C4_3 1_555 1_555
C3_3 N3_3 1_555 1_555
N3_3 Zn2_2 1_555 1_555
C4_3 N3_3 1_555 1_555
N4_3 Zn2_2 1_555 1_555
C6_3 O7_3 1_555 1_555
C7_3 N2_3 1_555 1_555
C8_3 C4_3 1_555 1_555
H5_3 C8_3 1_555 1_555
H6_3 C8_3 1_555 1_555
H7_3 C8_3 1_555 1_555
C9_3 C1_3 1_555 1_555
C10_3 N4_3 1_555 1_555
C11_3 N5_2 1_555 1_555
C12_3 C11_3 1_555 1_555
H8_3 C12_3 1_555 1_555
H9_3 C12_3 1_555 1_555
H10_3 C12_3 1_555 1_555
Gd2_2 O2_2 1_555 1_555
O3_2 Gd2_2 1_555 1_555
O10_3 C6_3 1_555 1_555
C3_3 C7_3 1_555 1_555
N4_3 C11_3 1_555 1_555
C6_3 C10_3 1_555 1_555
C9_3 C10_3 1_555 1_555
O4_3 C5_3 1_555 1_555
O6_3 C5_3 1_555 1_555
O4_3 Gd3_3 1_555 1_555
O11 C1_4 1_555 1_555
C1_4 O5_4 1_555 1_555
O12_2 C2_4 1_555 1_555
O14_2 C2_4 1_555 1_555
C2_4 C7_4 1_555 1_555
Gd2_2 O5_4 1_555 1_555
O7_4 Gd2_2 1_555 1_555
O8_4 Gd2_2 1_555 1_555
H1_4 O8_4 1_555 1_555
H2_4 O8_4 1_555 1_555
O9_4 Gd2_2 1_555 1_555
H3_4 O9_4 1_555 1_555
H4_4 O9_4 1_555 1_555
O10_4 Zn2 1_555 1_555
N5 C9_4 1_555 1_555
N2_4 C4_4 1_555 1_555
C3_4 N3_4 1_555 1_555
N3_4 Zn2 1_555 1_555
C4_4 N3_4 1_555 1_555
N4_4 Zn2 1_555 1_555
C6_4 O7_4 1_555 1_555
C7_4 N2_4 1_555 1_555
C8_4 C4_4 1_555 1_555
H5_4 C8_4 1_555 1_555
H6_4 C8_4 1_555 1_555
H7_4 C8_4 1_555 1_555
C9_4 C1_4 1_555 1_555
C10_4 N4_4 1_555 1_555
C11_4 N5 1_555 1_555
C12_4 C11_4 1_555 1_555
H8_4 C12_4 1_555 1_555
H9_4 C12_4 1_555 1_555
H10_4 C12_4 1_555 1_555
O15_4 Gd2_2 1_555 1_555
O10_4 C6_4 1_555 1_555
C3_4 C7_4 1_555 1_555
N4_4 C11_4 1_555 1_555
C6_4 C10_4 1_555 1_555
C9_4 C10_4 1_555 1_555
O4_4 C5_4 1_555 1_555
O6_4 C5_4 1_555 1_555
O4_4 Gd3_4 1_555 1_555
O1_3 C1_5 1_555 1_555
C1_5 O5_5 1_555 1_555
O13_2 C2_5 1_555 1_555
O3_3 C2_5 1_555 1_555
C2_5 C7_5 1_555 1_555
Zn1_3 O6_5 1_555 1_555
O15_2 C5_5 1_555 1_555
O6_5 C5_5 1_555 1_555
O10_5 Zn1_3 1_555 1_555
N1_3 C9_5 1_555 1_555
N2_5 C4_5 1_555 1_555
C3_5 N3_5 1_555 1_555
N3_5 Zn1_3 1_555 1_555
C4_5 N3_5 1_555 1_555
N4_5 Zn1_3 1_555 1_555
C5_5 C3_5 1_555 1_555
C6_5 O7_5 1_555 1_555
C7_5 N2_5 1_555 1_555
C8_5 C4_5 1_555 1_555
H5_5 C8_5 1_555 1_555
H6_5 C8_5 1_555 1_555
H7_5 C8_5 1_555 1_555
C9_5 C1_5 1_555 1_555
C10_5 N4_5 1_555 1_555
C11_5 N1_3 1_555 1_555
C12_5 C11_5 1_555 1_555
H8_5 C12_5 1_555 1_555
H9_5 C12_5 1_555 1_555
H10_5 C12_5 1_555 1_555
O11_3 Zn1_3 1_555 1_555
N5_3 Zn1_3 1_555 1_555
O10_5 C6_5 1_555 1_555
C3_5 C7_5 1_555 1_555
N4_5 C11_5 1_555 1_555
C6_5 C10_5 1_555 1_555
C9_5 C10_5 1_555 1_555
O8_5 Gd3_2 1_555 1_555
H1_5 O8_5 1_555 1_555
H2_5 O8_5 1_555 1_555
H3_5 O9_5 1_555 1_555
H4_5 O9_5 1_555 1_555
O1_4 C1_6 1_555 1_555
C1_6 O5_6 1_555 1_555
O13 C2_6 1_555 1_555
O14_3 C2_6 1_555 1_555
C2_6 C7_6 1_555 1_555
Gd3 O5_6 1_555 1_555
Zn1_4 O6_6 1_555 1_555
O15 C5_6 1_555 1_555
O6_6 C5_6 1_555 1_555
O7_6 Gd3 1_555 1_555
O8_6 Gd3 1_555 1_555
H1_6 O8_6 1_555 1_555
H2_6 O8_6 1_555 1_555
O10_6 Zn1_4 1_555 1_555
N1_4 C9_6 1_555 1_555
N2_6 C4_6 1_555 1_555
C3_6 N3_6 1_555 1_555
N3_6 Zn1_4 1_555 1_555
C4_6 N3_6 1_555 1_555
N4_6 Zn1_4 1_555 1_555
C5_6 C3_6 1_555 1_555
C6_6 O7_6 1_555 1_555
C7_6 N2_6 1_555 1_555
C8_6 C4_6 1_555 1_555
H5_6 C8_6 1_555 1_555
H6_6 C8_6 1_555 1_555
H7_6 C8_6 1_555 1_555
C9_6 C1_6 1_555 1_555
C10_6 N4_6 1_555 1_555
C11_6 N1_4 1_555 1_555
C12_6 C11_6 1_555 1_555
H8_6 C12_6 1_555 1_555
H9_6 C12_6 1_555 1_555
H10_6 C12_6 1_555 1_555
O11_4 Zn1_4 1_555 1_555
N5_4 Zn1_4 1_555 1_555
O10_6 C6_6 1_555 1_555
C3_6 C7_6 1_555 1_555
N4_6 C11_6 1_555 1_555
C6_6 C10_6 1_555 1_555
C9_6 C10_6 1_555 1_555
O15_4 C5_7 1_555 1_555
O6_7 C5_7 1_555 1_555
O11_4 C1_7 1_555 1_555
C1_7 O5_7 1_555 1_555
O13_4 C2_7 1_555 1_555
O3_4 C2_7 1_555 1_555
C2_7 C7_7 1_555 1_555
O10_7 Zn2_4 1_555 1_555
N5_4 C9_7 1_555 1_555
N2_7 C4_7 1_555 1_555
C3_7 N3_7 1_555 1_555
N3_7 Zn2_4 1_555 1_555
C4_7 N3_7 1_555 1_555
N4_7 Zn2_4 1_555 1_555
C6_7 O7_7 1_555 1_555
C7_7 N2_7 1_555 1_555
C8_7 C4_7 1_555 1_555
H5_7 C8_7 1_555 1_555
H6_7 C8_7 1_555 1_555
H7_7 C8_7 1_555 1_555
C9_7 C1_7 1_555 1_555
C10_7 N4_7 1_555 1_555
C11_7 N5_4 1_555 1_555
C12_7 C11_7 1_555 1_555
H8_7 C12_7 1_555 1_555
H9_7 C12_7 1_555 1_555
H10_7 C12_7 1_555 1_555
Gd3_3 O13_4 1_555 1_555
O3_4 Gd3_3 1_555 1_555
O10_7 C6_7 1_555 1_555
C3_7 C7_7 1_555 1_555
N4_7 C11_7 1_555 1_555
C6_7 C10_7 1_555 1_555
C9_7 C10_7 1_555 1_555
O8_7 Gd3_4 1_555 1_555
H1_7 O8_7 1_555 1_555
H2_7 O8_7 1_555 1_555
O9_6 Gd3_4 1_555 1_555
H3_6 O9_6 1_555 1_555
H4_6 O9_6 1_555 1_555
O15_3 C5_8 1_555 1_555
O6_8 C5_8 1_555 1_555
O11_3 C1_8 1_555 1_555
C1_8 O5_8 1_555 1_555
O13_3 C2_8 1_555 1_555
O14_4 C2_8 1_555 1_555
C2_8 C7_8 1_555 1_555
Gd3_3 O5_8 1_555 1_555
O7_8 Gd3_3 1_555 1_555
O8_8 Gd3_3 1_555 1_555
H1_8 O8_8 1_555 1_555
H2_8 O8_8 1_555 1_555
O9_7 Gd3_3 1_555 1_555
H3_7 O9_7 1_555 1_555
H4_7 O9_7 1_555 1_555
O10_8 Zn2_3 1_555 1_555
N5_3 C9_8 1_555 1_555
N2_8 C4_8 1_555 1_555
C3_8 N3_8 1_555 1_555
N3_8 Zn2_3 1_555 1_555
C4_8 N3_8 1_555 1_555
N4_8 Zn2_3 1_555 1_555
C6_8 O7_8 1_555 1_555
C7_8 N2_8 1_555 1_555
C8_8 C4_8 1_555 1_555
H5_8 C8_8 1_555 1_555
H6_8 C8_8 1_555 1_555
H7_8 C8_8 1_555 1_555
C9_8 C1_8 1_555 1_555
C10_8 N4_8 1_555 1_555
C11_8 N5_3 1_555 1_555
C12_8 C11_8 1_555 1_555
H8_8 C12_8 1_555 1_555
H9_8 C12_8 1_555 1_555
H10_8 C12_8 1_555 1_555
O10_8 C6_8 1_555 1_555
C3_8 C7_8 1_555 1_555
N4_8 C11_8 1_555 1_555
C6_8 C10_8 1_555 1_555
C9_8 C10_8 1_555 1_555
H3_8 O9_8 1_555 1_555
H4_8 O9_8 1_555 1_555

#END
