
###############################################################################
#
# This file contains modified crystal structure data generated from the
# MOF subset of the Cambridge Structural Database (CSD) v543 
# hosted by the Cambridge Crystallographic Data Centre (CCDC).
#
# This work is licensed under the Creative Commons
# Attribution-NonCommercial-ShareAlike 4.0 International License.
# To view a copy of this license, visit
# http://creativecommons.org/licenses/by-nc-sa/4.0/
# or send a letter to
# Creative Commons, PO Box 1866, Mountain View, CA 94042, USA.
#
# CIF created using the CSD Python API on 29 September 2022
# The structure has been converted into the P1 space group
# The structure has a 3D framework
# The original CSD entry DIMQEX is in the orthorhombic crystal system
# The framework has been calculated to contain at least 10.0% void space
# The void calculation uses a probe of radius 1.32A, grid spacing 0.4
#
###############################################################################

data_DIMQEX
_chemical_formula_moiety         '(C232 H112 F48 N16 O48 Zn8)n'
_symmetry_cell_setting           triclinic
_symmetry_space_group_name_H-M   'P 1'
_symmetry_Int_Tables_number      1
_space_group_name_Hall           'P 1'
loop_
_symmetry_equiv_pos_site_id
_symmetry_equiv_pos_as_xyz
1 x,y,z
_cell_length_a                   16.4070(8)
_cell_length_b                   22.5138(15)
_cell_length_c                   30.5117(19)
_cell_angle_alpha                90
_cell_angle_beta                 90
_cell_angle_gamma                90
_cell_volume                     11270.5
loop_
_atom_site_label
_atom_site_type_symbol
_atom_site_fract_x
_atom_site_fract_y
_atom_site_fract_z
Zn5 Zn 0.56913(3) 0.03080(3) 0.281781(18)
Zn7 Zn 0.43087(3) 0.03080(3) 0.218219(18)
Zn1 Zn 0.06913(3) 0.53080(3) 0.218219(18)
F1 F 0.3564(4) 0.7633(3) 0.46429(15)
F2 F 0.3754(4) 0.7112(3) 0.4065(2)
F3 F 0.2780(4) 0.6885(3) 0.4483(2)
F4 F 0.1723(4) 0.7792(3) 0.46668(15)
F5 F 0.1481(4) 0.8387(3) 0.4151(2)
F6 F 0.2502(4) 0.8535(4) 0.4560(2)
N1 N 0.1619(2) 0.52867(18) 0.17380(13)
N2 N 0.3515(3) 0.5165(2) 0.08291(17)
O1 O 0.3597(3) 0.4162(3) 0.09747(19)
O2 O 0.3444(3) 0.6129(3) 0.06891(18)
O3 O 0.4977(2) 0.96791(19) 0.30952(15)
O4 O 0.3945(2) 0.96819(19) 0.26322(14)
O5 O 0.1138(2) 0.59295(18) 0.25906(13)
O6 O 0.0097(2) 0.59234(19) 0.30650(13)
C1 C 0.1522(4) 0.4982(3) 0.1368(2)
H1 H 0.1018 0.4787 0.1314
C2 C 0.2138(4) 0.4944(4) 0.1060(2)
H2 H 0.2053 0.4732 0.0795
C3 C 0.2876(3) 0.5216(3) 0.11403(18)
C4 C 0.2954(3) 0.5526(4) 0.1503(2)
H3 H 0.3458 0.5717 0.1565
C5 C 0.2307(3) 0.5580(4) 0.1801(2)
H4 H 0.2364 0.5829 0.2050
C6 C 0.3832(4) 0.4570(4) 0.0745(2)
C7 C 0.4437(4) 0.4523(4) 0.0398(2)
C8 C 0.4711(3) 0.5029(3) 0.0167(2)
C9 C 0.4388(4) 0.5599(3) 0.0261(2)
C10 C 0.3765(4) 0.5668(4) 0.0609(2)
C11 C 0.4745(4) 0.3968(4) 0.0292(3)
H5 H 0.4568 0.3627 0.0448
C12 C 0.4678(4) 0.6086(3) 0.0049(2)
H6 H 0.4489 0.6469 0.0131
C13 C 0.4295(3) 0.9512(2) 0.29646(19)
C14 C 0.3873(3) 0.9057(2) 0.32414(17)
C15 C 0.4239(3) 0.8832(3) 0.36195(19)
H7 H 0.4760 0.8973 0.3706
C16 C 0.3841(3) 0.8395(3) 0.3875(2)
H8 H 0.4102 0.8237 0.4127
C17 C 0.3077(3) 0.8200(3) 0.37582(19)
C18 C 0.2702(3) 0.8430(3) 0.3392(2)
H9 H 0.2171 0.8298 0.3315
C19 C 0.3097(3) 0.8865(3) 0.31256(18)
H10 H 0.2834 0.9020 0.2873
C20 C 0.0766(3) 0.6096(2) 0.29419(19)
C21 C 0.1236(3) 0.6531(2) 0.32186(17)
C22 C 0.0889(3) 0.6757(3) 0.35858(19)
H11 H 0.0353 0.6636 0.3662
C23 C 0.1292(4) 0.7162(3) 0.38549(19)
H12 H 0.1026 0.7325 0.4104
C24 C 0.2083(4) 0.7324(3) 0.37555(19)
C25 C 0.2442(3) 0.7086(3) 0.3378(2)
H13 H 0.2983 0.7195 0.3301
C26 C 0.2022(3) 0.6703(3) 0.31207(19)
H14 H 0.2276 0.6548 0.2866
C27 C 0.2610(4) 0.7749(3) 0.4037(2)
C28 C 0.3170(7) 0.7355(5) 0.4320(3)
C29 C 0.2036(6) 0.8109(5) 0.4347(3)
O14 O 0.0023(2) 0.46791(19) 0.30952(15)
O16 O 0.1055(2) 0.46819(19) 0.26322(14)
N3 N 0.8381(2) 0.47133(18) 0.82620(13)
N4 N 0.6485(3) 0.4835(2) 0.91709(17)
O7 O 0.6403(3) 0.5838(3) 0.90253(19)
O8 O 0.6556(3) 0.3871(3) 0.93109(18)
C30 C 0.8478(4) 0.5018(3) 0.8632(2)
H15 H 0.8982 0.5213 0.8686
C31 C 0.7862(4) 0.5056(4) 0.8940(2)
H16 H 0.7947 0.5268 0.9205
C32 C 0.7124(3) 0.4784(3) 0.88597(18)
C33 C 0.7046(3) 0.4474(4) 0.8497(2)
H17 H 0.6542 0.4283 0.8435
C34 C 0.7693(3) 0.4420(4) 0.8199(2)
H18 H 0.7636 0.4171 0.7950
C35 C 0.6168(4) 0.5430(4) 0.9255(2)
C36 C 0.5563(4) 0.5477(4) 0.9602(2)
C37 C 0.5289(3) 0.4971(3) 0.9833(2)
C38 C 0.5612(4) 0.4401(3) 0.9739(2)
C39 C 0.6235(4) 0.4332(4) 0.9391(2)
C40 C 0.5255(4) 0.6032(4) 0.9708(3)
H19 H 0.5432 0.6373 0.9552
C41 C 0.5322(4) 0.3914(3) 0.9951(2)
H20 H 0.5511 0.3531 0.9869
Zn3 Zn 0.93087(3) 0.46920(3) 0.781781(18)
Zn2 Zn 0.93087(3) 0.53080(3) 0.281781(18)
F7 F 0.6436(4) 0.7633(3) 0.03571(15)
F8 F 0.6246(4) 0.7112(3) 0.0935(2)
F9 F 0.7220(4) 0.6885(3) 0.0517(2)
F10 F 0.8277(4) 0.7792(3) 0.03332(15)
F11 F 0.8519(4) 0.8387(3) 0.0849(2)
F12 F 0.7498(4) 0.8535(4) 0.0440(2)
O9 O 0.5023(2) 0.96791(19) 0.19048(15)
O10 O 0.6055(2) 0.96819(19) 0.23678(14)
O11 O 0.8862(2) 0.59295(18) 0.24094(13)
O12 O 0.9903(2) 0.59234(19) 0.19350(13)
C42 C 0.5705(3) 0.9512(2) 0.20354(19)
C43 C 0.6127(3) 0.9057(2) 0.17586(17)
C44 C 0.5761(3) 0.8832(3) 0.13805(19)
H21 H 0.5240 0.8973 0.1294
C45 C 0.6159(3) 0.8395(3) 0.1125(2)
H22 H 0.5898 0.8237 0.0873
C46 C 0.6923(3) 0.8200(3) 0.12418(19)
C47 C 0.7298(3) 0.8430(3) 0.1608(2)
H23 H 0.7829 0.8298 0.1685
C48 C 0.6903(3) 0.8865(3) 0.18744(18)
H24 H 0.7166 0.9020 0.2127
C49 C 0.9234(3) 0.6096(2) 0.20581(19)
C50 C 0.8764(3) 0.6531(2) 0.17814(17)
C51 C 0.9111(3) 0.6757(3) 0.14142(19)
H25 H 0.9647 0.6636 0.1338
C52 C 0.8708(4) 0.7162(3) 0.11451(19)
H26 H 0.8974 0.7325 0.0896
C53 C 0.7917(4) 0.7324(3) 0.12445(19)
C54 C 0.7558(3) 0.7086(3) 0.1622(2)
H27 H 0.7017 0.7195 0.1699
C55 C 0.7978(3) 0.6703(3) 0.18793(19)
H28 H 0.7724 0.6548 0.2134
C56 C 0.7390(4) 0.7749(3) 0.0963(2)
C57 C 0.6830(7) 0.7355(5) 0.0680(3)
C58 C 0.7964(6) 0.8109(5) 0.0653(3)
N5 N 0.8381(2) 0.52867(18) 0.32620(13)
O13 O 0.9977(2) 0.46791(19) 0.19048(15)
O15 O 0.8945(2) 0.46819(19) 0.23678(14)
Zn6 Zn 0.06913(3) 0.46920(3) 0.718219(18)
O1_2 O 0.1403(3) 0.0838(3) 0.59747(19)
C1_2 C 0.3478(4) 0.0018(3) 0.6368(2)
H1_2 H 0.3982 0.0213 0.6314
C2_2 C 0.2862(4) 0.0056(4) 0.6060(2)
H2_2 H 0.2947 0.0268 0.5795
C6_2 C 0.1168(4) 0.0430(4) 0.5745(2)
C7_2 C 0.0563(4) 0.0477(4) 0.5398(2)
C11_2 C 0.0255(4) 0.1032(4) 0.5292(3)
H5_2 H 0.0432 0.1373 0.5448
O13_2 O 0.5023(2) 0.03209(19) 0.69048(15)
O14_2 O 0.4977(2) 0.03209(19) 0.80952(15)
O15_2 O 0.6055(2) 0.03181(19) 0.73678(14)
O16_2 O 0.3945(2) 0.03181(19) 0.76322(14)
Zn1_2 Zn 0.43087(3) 0.96920(3) 0.718219(18)
F1_2 F 0.1436(4) 0.7367(3) 0.96429(15)
F2_2 F 0.1246(4) 0.7888(3) 0.9065(2)
F3_2 F 0.2220(4) 0.8115(3) 0.9483(2)
F4_2 F 0.3277(4) 0.7208(3) 0.96668(15)
F5_2 F 0.3519(4) 0.6613(3) 0.9151(2)
F6_2 F 0.2498(4) 0.6465(4) 0.9560(2)
N1_2 N 0.3381(2) 0.97133(18) 0.67380(13)
N2_2 N 0.1485(3) 0.9835(2) 0.58291(17)
O2_2 O 0.1556(3) 0.8871(3) 0.56891(18)
O3_2 O 0.0023(2) 0.53209(19) 0.80952(15)
O4_2 O 0.1055(2) 0.53181(19) 0.76322(14)
O5_2 O 0.3862(2) 0.90705(18) 0.75906(13)
O6_2 O 0.4903(2) 0.90766(19) 0.80650(13)
C3_2 C 0.2124(3) 0.9784(3) 0.61403(18)
C4_2 C 0.2046(3) 0.9474(4) 0.6503(2)
H3_2 H 0.1542 0.9283 0.6565
C5_2 C 0.2693(3) 0.9420(4) 0.6801(2)
H4_2 H 0.2636 0.9171 0.7050
C8_2 C 0.0289(3) 0.9971(3) 0.5167(2)
C9_2 C 0.0612(4) 0.9401(3) 0.5261(2)
C10_2 C 0.1235(4) 0.9332(4) 0.5609(2)
C12_2 C 0.0322(4) 0.8914(3) 0.5049(2)
H6_2 H 0.0511 0.8531 0.5131
C13_2 C 0.0705(3) 0.5488(2) 0.79646(19)
C14_2 C 0.1127(3) 0.5943(2) 0.82414(17)
C15_2 C 0.0761(3) 0.6168(3) 0.86195(19)
H7_2 H 0.0240 0.6027 0.8706
C16_2 C 0.1159(3) 0.6605(3) 0.8875(2)
H8_2 H 0.0898 0.6763 0.9127
C17_2 C 0.1923(3) 0.6800(3) 0.87582(19)
C18_2 C 0.2298(3) 0.6570(3) 0.8392(2)
H9_2 H 0.2829 0.6702 0.8315
C19_2 C 0.1903(3) 0.6135(3) 0.81256(18)
H10_2 H 0.2166 0.5980 0.7873
C20_2 C 0.4234(3) 0.8904(2) 0.79419(19)
C21_2 C 0.3764(3) 0.8469(2) 0.82186(17)
C22_2 C 0.4111(3) 0.8243(3) 0.85858(19)
H11_2 H 0.4647 0.8364 0.8662
C23_2 C 0.3708(4) 0.7838(3) 0.88549(19)
H12_2 H 0.3974 0.7675 0.9104
C24_2 C 0.2917(4) 0.7676(3) 0.87555(19)
C25_2 C 0.2558(3) 0.7914(3) 0.8378(2)
H13_2 H 0.2017 0.7805 0.8301
C26_2 C 0.2978(3) 0.8297(3) 0.81207(19)
H14_2 H 0.2724 0.8452 0.7866
C27_2 C 0.2390(4) 0.7251(3) 0.9037(2)
C28_2 C 0.1830(7) 0.7645(5) 0.9320(3)
C29_2 C 0.2964(6) 0.6891(5) 0.9347(3)
Zn2_2 Zn 0.56913(3) 0.96920(3) 0.781781(18)
F7_2 F 0.8564(4) 0.7367(3) 0.53571(15)
F8_2 F 0.8754(4) 0.7888(3) 0.5935(2)
F9_2 F 0.7780(4) 0.8115(3) 0.5517(2)
F10_2 F 0.6723(4) 0.7208(3) 0.53332(15)
F11_2 F 0.6481(4) 0.6613(3) 0.5849(2)
F12_2 F 0.7502(4) 0.6465(4) 0.5440(2)
O9_2 O 0.9977(2) 0.53209(19) 0.69048(15)
O10_2 O 0.8945(2) 0.53181(19) 0.73678(14)
O11_2 O 0.6138(2) 0.90705(18) 0.74094(13)
O12_2 O 0.5097(2) 0.90766(19) 0.69350(13)
C42_2 C 0.9295(3) 0.5488(2) 0.70354(19)
C43_2 C 0.8873(3) 0.5943(2) 0.67586(17)
C44_2 C 0.9239(3) 0.6168(3) 0.63805(19)
H21_2 H 0.9760 0.6027 0.6294
C45_2 C 0.8841(3) 0.6605(3) 0.6125(2)
H22_2 H 0.9102 0.6763 0.5873
C46_2 C 0.8077(3) 0.6800(3) 0.62418(19)
C47_2 C 0.7702(3) 0.6570(3) 0.6608(2)
H23_2 H 0.7171 0.6702 0.6685
C48_2 C 0.8097(3) 0.6135(3) 0.68744(18)
H24_2 H 0.7834 0.5980 0.7127
C49_2 C 0.5766(3) 0.8904(2) 0.70581(19)
C50_2 C 0.6236(3) 0.8469(2) 0.67814(17)
C51_2 C 0.5889(3) 0.8243(3) 0.64142(19)
H25_2 H 0.5353 0.8364 0.6338
C52_2 C 0.6292(4) 0.7838(3) 0.61451(19)
H26_2 H 0.6026 0.7675 0.5896
C53_2 C 0.7083(4) 0.7676(3) 0.62445(19)
C54_2 C 0.7442(3) 0.7914(3) 0.6622(2)
H27_2 H 0.7983 0.7805 0.6699
C55_2 C 0.7022(3) 0.8297(3) 0.68793(19)
H28_2 H 0.7276 0.8452 0.7134
C56_2 C 0.7610(4) 0.7251(3) 0.5963(2)
C57_2 C 0.8170(7) 0.7645(5) 0.5680(3)
C58_2 C 0.7036(6) 0.6891(5) 0.5653(3)
N5_2 N 0.6619(2) 0.97133(18) 0.82620(13)
N3_2 N 0.6619(2) 0.02867(18) 0.32620(13)
N4_2 N 0.8515(3) 0.0165(2) 0.41709(17)
O8_2 O 0.8444(3) 0.1129(3) 0.43109(18)
C32_2 C 0.7876(3) 0.0216(3) 0.38597(18)
C33_2 C 0.7954(3) 0.0526(4) 0.3497(2)
H17_2 H 0.8458 0.0717 0.3435
C34_2 C 0.7307(3) 0.0580(4) 0.3199(2)
H18_2 H 0.7364 0.0829 0.2950
C37_2 C 0.9711(3) 0.0029(3) 0.4833(2)
C38_2 C 0.9388(4) 0.0599(3) 0.4739(2)
C39_2 C 0.8765(4) 0.0668(4) 0.4391(2)
C41_2 C 0.9678(4) 0.1086(3) 0.4951(2)
H20_2 H 0.9489 0.1469 0.4869
O7_2 O 0.8597(3) 0.9162(3) 0.40253(19)
C30_2 C 0.6522(4) 0.9982(3) 0.3632(2)
H15_2 H 0.6018 0.9787 0.3686
C31_2 C 0.7138(4) 0.9944(4) 0.3940(2)
H16_2 H 0.7053 0.9732 0.4205
C35_2 C 0.8832(4) 0.9570(4) 0.4255(2)
C36_2 C 0.9437(4) 0.9523(4) 0.4602(2)
C40_2 C 0.9745(4) 0.8968(4) 0.4708(3)
H19_2 H 0.9568 0.8627 0.4552
N3_3 N 0.3381(2) 0.02867(18) 0.17380(13)
N4_3 N 0.1485(3) 0.0165(2) 0.08291(17)
O8_3 O 0.1556(3) 0.1129(3) 0.06891(18)
C32_3 C 0.2124(3) 0.0216(3) 0.11403(18)
C33_3 C 0.2046(3) 0.0526(4) 0.1503(2)
H17_3 H 0.1542 0.0717 0.1565
C34_3 C 0.2693(3) 0.0580(4) 0.1801(2)
H18_3 H 0.2636 0.0829 0.2050
C37_3 C 0.0289(3) 0.0029(3) 0.0167(2)
C38_3 C 0.0612(4) 0.0599(3) 0.0261(2)
C39_3 C 0.1235(4) 0.0668(4) 0.0609(2)
C41_3 C 0.0322(4) 0.1086(3) 0.0049(2)
H20_3 H 0.0511 0.1469 0.0131
O7_3 O 0.1403(3) 0.9162(3) 0.09747(19)
C30_3 C 0.3478(4) 0.9982(3) 0.1368(2)
H15_3 H 0.3982 0.9787 0.1314
C31_3 C 0.2862(4) 0.9944(4) 0.1060(2)
H16_3 H 0.2947 0.9732 0.0795
C35_3 C 0.1168(4) 0.9570(4) 0.0745(2)
C36_3 C 0.0563(4) 0.9523(4) 0.0398(2)
C40_3 C 0.0255(4) 0.8968(4) 0.0292(3)
H19_3 H 0.0432 0.8627 0.0448
O1_3 O 0.8597(3) 0.0838(3) 0.90253(19)
C1_3 C 0.6522(4) 0.0018(3) 0.8632(2)
H1_3 H 0.6018 0.0213 0.8686
C2_3 C 0.7138(4) 0.0056(4) 0.8940(2)
H2_3 H 0.7053 0.0268 0.9205
C6_3 C 0.8832(4) 0.0430(4) 0.9255(2)
C7_3 C 0.9437(4) 0.0477(4) 0.9602(2)
C11_3 C 0.9745(4) 0.1032(4) 0.9708(3)
H5_3 H 0.9568 0.1373 0.9552
N2_3 N 0.8515(3) 0.9835(2) 0.91709(17)
O2_3 O 0.8444(3) 0.8871(3) 0.93109(18)
C3_3 C 0.7876(3) 0.9784(3) 0.88597(18)
C4_3 C 0.7954(3) 0.9474(4) 0.8497(2)
H3_3 H 0.8458 0.9283 0.8435
C5_3 C 0.7307(3) 0.9420(4) 0.8199(2)
H4_3 H 0.7364 0.9171 0.7950
C8_3 C 0.9711(3) 0.9971(3) 0.9833(2)
C9_3 C 0.9388(4) 0.9401(3) 0.9739(2)
C10_3 C 0.8765(4) 0.9332(4) 0.9391(2)
C12_3 C 0.9678(4) 0.8914(3) 0.9951(2)
H6_3 H 0.9489 0.8531 0.9869
N2_4 N 0.6485(3) 0.5165(2) 0.41709(17)
O1_4 O 0.6403(3) 0.4162(3) 0.40253(19)
O2_4 O 0.6556(3) 0.6129(3) 0.43109(18)
C1_4 C 0.8478(4) 0.4982(3) 0.3632(2)
H1_4 H 0.8982 0.4787 0.3686
C2_4 C 0.7862(4) 0.4944(4) 0.3940(2)
H2_4 H 0.7947 0.4732 0.4205
C3_4 C 0.7124(3) 0.5216(3) 0.38597(18)
C4_4 C 0.7046(3) 0.5526(4) 0.3497(2)
H3_4 H 0.6542 0.5717 0.3435
C5_4 C 0.7693(3) 0.5580(4) 0.3199(2)
H4_4 H 0.7636 0.5829 0.2950
C6_4 C 0.6168(4) 0.4570(4) 0.4255(2)
C7_4 C 0.5563(4) 0.4523(4) 0.4602(2)
C8_4 C 0.5289(3) 0.5029(3) 0.4833(2)
C9_4 C 0.5612(4) 0.5599(3) 0.4739(2)
C10_4 C 0.6235(4) 0.5668(4) 0.4391(2)
C11_4 C 0.5255(4) 0.3968(4) 0.4708(3)
H5_4 H 0.5432 0.3627 0.4552
C12_4 C 0.5322(4) 0.6086(3) 0.4951(2)
H6_4 H 0.5511 0.6469 0.4869
N3_4 N 0.1619(2) 0.47133(18) 0.67380(13)
N4_4 N 0.3515(3) 0.4835(2) 0.58291(17)
O7_4 O 0.3597(3) 0.5838(3) 0.59747(19)
O8_4 O 0.3444(3) 0.3871(3) 0.56891(18)
C30_4 C 0.1522(4) 0.5018(3) 0.6368(2)
H15_4 H 0.1018 0.5213 0.6314
C31_4 C 0.2138(4) 0.5056(4) 0.6060(2)
H16_4 H 0.2053 0.5268 0.5795
C32_4 C 0.2876(3) 0.4784(3) 0.61403(18)
C33_4 C 0.2954(3) 0.4474(4) 0.6503(2)
H17_4 H 0.3458 0.4283 0.6565
C34_4 C 0.2307(3) 0.4420(4) 0.6801(2)
H18_4 H 0.2364 0.4171 0.7050
C35_4 C 0.3832(4) 0.5430(4) 0.5745(2)
C36_4 C 0.4437(4) 0.5477(4) 0.5398(2)
C37_4 C 0.4711(3) 0.4971(3) 0.5167(2)
C38_4 C 0.4388(4) 0.4401(3) 0.5261(2)
C39_4 C 0.3765(4) 0.4332(4) 0.5609(2)
C40_4 C 0.4745(4) 0.6032(4) 0.5292(3)
H19_4 H 0.4568 0.6373 0.5448
C41_4 C 0.4678(4) 0.3914(3) 0.5049(2)
H20_4 H 0.4489 0.3531 0.5131
F7_3 F 0.3564(4) 0.2367(3) 0.96429(15)
F8_3 F 0.3754(4) 0.2888(3) 0.9065(2)
F9_3 F 0.2780(4) 0.3115(3) 0.9483(2)
F10_3 F 0.1723(4) 0.2208(3) 0.96668(15)
F11_3 F 0.1481(4) 0.1613(3) 0.9151(2)
F12_3 F 0.2502(4) 0.1465(4) 0.9560(2)
O11_3 O 0.1138(2) 0.40705(18) 0.75906(13)
O12_3 O 0.0097(2) 0.40766(19) 0.80650(13)
C42_3 C 0.4295(3) 0.0488(2) 0.79646(19)
C43_3 C 0.3873(3) 0.0943(2) 0.82414(17)
C44_3 C 0.4239(3) 0.1168(3) 0.86195(19)
H21_3 H 0.4760 0.1027 0.8706
C45_3 C 0.3841(3) 0.1605(3) 0.8875(2)
H22_3 H 0.4102 0.1763 0.9127
C46_3 C 0.3077(3) 0.1800(3) 0.87582(19)
C47_3 C 0.2702(3) 0.1570(3) 0.8392(2)
H23_3 H 0.2171 0.1702 0.8315
C48_3 C 0.3097(3) 0.1135(3) 0.81256(18)
H24_3 H 0.2834 0.0980 0.7873
C49_3 C 0.0766(3) 0.3904(2) 0.79419(19)
C50_3 C 0.1236(3) 0.3469(2) 0.82186(17)
C51_3 C 0.0889(3) 0.3243(3) 0.85858(19)
H25_3 H 0.0353 0.3364 0.8662
C52_3 C 0.1292(4) 0.2838(3) 0.88549(19)
H26_3 H 0.1026 0.2675 0.9104
C53_3 C 0.2083(4) 0.2676(3) 0.87555(19)
C54_3 C 0.2442(3) 0.2914(3) 0.8378(2)
H27_3 H 0.2983 0.2805 0.8301
C55_3 C 0.2022(3) 0.3297(3) 0.81207(19)
H28_3 H 0.2276 0.3452 0.7866
C56_3 C 0.2610(4) 0.2251(3) 0.9037(2)
C57_3 C 0.3170(7) 0.2645(5) 0.9320(3)
C58_3 C 0.2036(6) 0.1891(5) 0.9347(3)
F1_3 F 0.6436(4) 0.2367(3) 0.53571(15)
F2_3 F 0.6246(4) 0.2888(3) 0.5935(2)
F3_3 F 0.7220(4) 0.3115(3) 0.5517(2)
F4_3 F 0.8277(4) 0.2208(3) 0.53332(15)
F5_3 F 0.8519(4) 0.1613(3) 0.5849(2)
F6_3 F 0.7498(4) 0.1465(4) 0.5440(2)
O5_3 O 0.8862(2) 0.40705(18) 0.74094(13)
O6_3 O 0.9903(2) 0.40766(19) 0.69350(13)
C13_3 C 0.5705(3) 0.0488(2) 0.70354(19)
C14_3 C 0.6127(3) 0.0943(2) 0.67586(17)
C15_3 C 0.5761(3) 0.1168(3) 0.63805(19)
H7_3 H 0.5240 0.1027 0.6294
C16_3 C 0.6159(3) 0.1605(3) 0.6125(2)
H8_3 H 0.5898 0.1763 0.5873
C17_3 C 0.6923(3) 0.1800(3) 0.62418(19)
C18_3 C 0.7298(3) 0.1570(3) 0.6608(2)
H9_3 H 0.7829 0.1702 0.6685
C19_3 C 0.6903(3) 0.1135(3) 0.68744(18)
H10_3 H 0.7166 0.0980 0.7127
C20_3 C 0.9234(3) 0.3904(2) 0.70581(19)
C21_3 C 0.8764(3) 0.3469(2) 0.67814(17)
C22_3 C 0.9111(3) 0.3243(3) 0.64142(19)
H11_3 H 0.9647 0.3364 0.6338
C23_3 C 0.8708(4) 0.2838(3) 0.61451(19)
H12_3 H 0.8974 0.2675 0.5896
C24_3 C 0.7917(4) 0.2676(3) 0.62445(19)
C25_3 C 0.7558(3) 0.2914(3) 0.6622(2)
H13_3 H 0.7017 0.2805 0.6699
C26_3 C 0.7978(3) 0.3297(3) 0.68793(19)
H14_3 H 0.7724 0.3452 0.7134
C27_3 C 0.7390(4) 0.2251(3) 0.5963(2)
C28_3 C 0.6830(7) 0.2645(5) 0.5680(3)
C29_3 C 0.7964(6) 0.1891(5) 0.5653(3)
F1_4 F 0.8564(4) 0.2633(3) 0.03571(15)
F2_4 F 0.8754(4) 0.2112(3) 0.0935(2)
F3_4 F 0.7780(4) 0.1885(3) 0.0517(2)
F4_4 F 0.6723(4) 0.2792(3) 0.03332(15)
F5_4 F 0.6481(4) 0.3387(3) 0.0849(2)
F6_4 F 0.7502(4) 0.3535(4) 0.0440(2)
O5_4 O 0.6138(2) 0.09295(18) 0.24094(13)
O6_4 O 0.5097(2) 0.09234(19) 0.19350(13)
C13_4 C 0.9295(3) 0.4512(2) 0.20354(19)
C14_4 C 0.8873(3) 0.4057(2) 0.17586(17)
C15_4 C 0.9239(3) 0.3832(3) 0.13805(19)
H7_4 H 0.9760 0.3973 0.1294
C16_4 C 0.8841(3) 0.3395(3) 0.1125(2)
H8_4 H 0.9102 0.3237 0.0873
C17_4 C 0.8077(3) 0.3200(3) 0.12418(19)
C18_4 C 0.7702(3) 0.3430(3) 0.1608(2)
H9_4 H 0.7171 0.3298 0.1685
C19_4 C 0.8097(3) 0.3865(3) 0.18744(18)
H10_4 H 0.7834 0.4020 0.2127
C20_4 C 0.5766(3) 0.1096(2) 0.20581(19)
C21_4 C 0.6236(3) 0.1531(2) 0.17814(17)
C22_4 C 0.5889(3) 0.1757(3) 0.14142(19)
H11_4 H 0.5353 0.1636 0.1338
C23_4 C 0.6292(4) 0.2162(3) 0.11451(19)
H12_4 H 0.6026 0.2325 0.0896
C24_4 C 0.7083(4) 0.2324(3) 0.12445(19)
C25_4 C 0.7442(3) 0.2086(3) 0.1622(2)
H13_4 H 0.7983 0.2195 0.1699
C26_4 C 0.7022(3) 0.1703(3) 0.18793(19)
H14_4 H 0.7276 0.1548 0.2134
C27_4 C 0.7610(4) 0.2749(3) 0.0963(2)
C28_4 C 0.8170(7) 0.2355(5) 0.0680(3)
C29_4 C 0.7036(6) 0.3109(5) 0.0653(3)
F7_4 F 0.1436(4) 0.2633(3) 0.46429(15)
F8_4 F 0.1246(4) 0.2112(3) 0.4065(2)
F9_4 F 0.2220(4) 0.1885(3) 0.4483(2)
F10_4 F 0.3277(4) 0.2792(3) 0.46668(15)
F11_4 F 0.3519(4) 0.3387(3) 0.4151(2)
F12_4 F 0.2498(4) 0.3535(4) 0.4560(2)
O11_4 O 0.3862(2) 0.09295(18) 0.25906(13)
O12_4 O 0.4903(2) 0.09234(19) 0.30650(13)
C42_4 C 0.0705(3) 0.4512(2) 0.29646(19)
C43_4 C 0.1127(3) 0.4057(2) 0.32414(17)
C44_4 C 0.0761(3) 0.3832(3) 0.36195(19)
H21_4 H 0.0240 0.3973 0.3706
C45_4 C 0.1159(3) 0.3395(3) 0.3875(2)
H22_4 H 0.0898 0.3237 0.4127
C46_4 C 0.1923(3) 0.3200(3) 0.37582(19)
C47_4 C 0.2298(3) 0.3430(3) 0.3392(2)
H23_4 H 0.2829 0.3298 0.3315
C48_4 C 0.1903(3) 0.3865(3) 0.31256(18)
H24_4 H 0.2166 0.4020 0.2873
C49_4 C 0.4234(3) 0.1096(2) 0.29419(19)
C50_4 C 0.3764(3) 0.1531(2) 0.32186(17)
C51_4 C 0.4111(3) 0.1757(3) 0.35858(19)
H25_4 H 0.4647 0.1636 0.3662
C52_4 C 0.3708(4) 0.2162(3) 0.38549(19)
H26_4 H 0.3974 0.2325 0.4104
C53_4 C 0.2917(4) 0.2324(3) 0.37555(19)
C54_4 C 0.2558(3) 0.2086(3) 0.3378(2)
H27_4 H 0.2017 0.2195 0.3301
C55_4 C 0.2978(3) 0.1703(3) 0.31207(19)
H28_4 H 0.2724 0.1548 0.2866
C56_4 C 0.2390(4) 0.2749(3) 0.4037(2)
C57_4 C 0.1830(7) 0.2355(5) 0.4320(3)
C58_4 C 0.2964(6) 0.3109(5) 0.4347(3)
loop_
_geom_bond_atom_site_label_1
_geom_bond_atom_site_label_2
_geom_bond_site_symmetry_1
_geom_bond_site_symmetry_2
Zn1 N1 1_555 1_555
F1 C28 1_555 1_555
F2 C28 1_555 1_555
F3 C28 1_555 1_555
F4 C29 1_555 1_555
F5 C29 1_555 1_555
F6 C29 1_555 1_555
N1 C1 1_555 1_555
N2 C3 1_555 1_555
O1 C6 1_555 1_555
O2 C10 1_555 1_555
O3 C13 1_555 1_555
O4 C13 1_555 1_555
O5 Zn1 1_555 1_555
O6 C20 1_555 1_555
C1 H1 1_555 1_555
C2 C1 1_555 1_555
H2 C2 1_555 1_555
C3 C2 1_555 1_555
C4 C3 1_555 1_555
H3 C4 1_555 1_555
C5 N1 1_555 1_555
H4 C5 1_555 1_555
C6 N2 1_555 1_555
C7 C6 1_555 1_555
C8 C7 1_555 1_555
C9 C8 1_555 1_555
C10 N2 1_555 1_555
C11 C7 1_555 1_555
H5 C11 1_555 1_555
C12 C9 1_555 1_555
H6 C12 1_555 1_555
C13 C14 1_555 1_555
C14 C15 1_555 1_555
C15 H7 1_555 1_555
C16 C15 1_555 1_555
H8 C16 1_555 1_555
C17 C16 1_555 1_555
C18 C17 1_555 1_555
H9 C18 1_555 1_555
C19 C14 1_555 1_555
H10 C19 1_555 1_555
C20 O5 1_555 1_555
C21 C20 1_555 1_555
C22 C21 1_555 1_555
H11 C22 1_555 1_555
C23 C22 1_555 1_555
H12 C23 1_555 1_555
C24 C23 1_555 1_555
C25 C24 1_555 1_555
H13 C25 1_555 1_555
C26 C21 1_555 1_555
H14 C26 1_555 1_555
C27 C17 1_555 1_555
C28 C27 1_555 1_555
C29 C27 1_555 1_555
O16 Zn1 1_555 1_555
C4 C5 1_555 1_555
C9 C10 1_555 1_555
C18 C19 1_555 1_555
C24 C27 1_555 1_555
C25 C26 1_555 1_555
N3 C30 1_555 1_555
N4 C32 1_555 1_555
O7 C35 1_555 1_555
O8 C39 1_555 1_555
C30 H15 1_555 1_555
C31 C30 1_555 1_555
H16 C31 1_555 1_555
C32 C31 1_555 1_555
C33 C32 1_555 1_555
H17 C33 1_555 1_555
C34 N3 1_555 1_555
H18 C34 1_555 1_555
C35 N4 1_555 1_555
C36 C35 1_555 1_555
C38 C37 1_555 1_555
C39 N4 1_555 1_555
H19 C40 1_555 1_555
H20 C41 1_555 1_555
Zn3 N3 1_555 1_555
C33 C34 1_555 1_555
C36 C37 1_555 1_555
C36 C40 1_555 1_555
C38 C39 1_555 1_555
C38 C41 1_555 1_555
F7 C57 1_555 1_555
F8 C57 1_555 1_555
F9 C57 1_555 1_555
F10 C58 1_555 1_555
F11 C58 1_555 1_555
F12 C58 1_555 1_555
O9 C42 1_555 1_555
O10 C42 1_555 1_555
O11 Zn2 1_555 1_555
C42 C43 1_555 1_555
C43 C44 1_555 1_555
C44 H21 1_555 1_555
C45 C44 1_555 1_555
H22 C45 1_555 1_555
C46 C45 1_555 1_555
C47 C46 1_555 1_555
H23 C47 1_555 1_555
C48 C43 1_555 1_555
H24 C48 1_555 1_555
C49 O11 1_555 1_555
C50 C49 1_555 1_555
C51 C50 1_555 1_555
H25 C51 1_555 1_555
C52 C51 1_555 1_555
H26 C52 1_555 1_555
C53 C52 1_555 1_555
C54 C53 1_555 1_555
H27 C54 1_555 1_555
C55 C50 1_555 1_555
H28 C55 1_555 1_555
C56 C46 1_555 1_555
C57 C56 1_555 1_555
C58 C56 1_555 1_555
N5 Zn2 1_555 1_555
O15 Zn2 1_555 1_555
O12 C49 1_555 1_555
C47 C48 1_555 1_555
C53 C56 1_555 1_555
C54 C55 1_555 1_555
O1_2 C6_2 1_555 1_555
C1_2 H1_2 1_555 1_555
C2_2 C1_2 1_555 1_555
H2_2 C2_2 1_555 1_555
C7_2 C6_2 1_555 1_555
C11_2 C7_2 1_555 1_555
H5_2 C11_2 1_555 1_555
Zn1_2 N1_2 1_555 1_555
F1_2 C28_2 1_555 1_555
F2_2 C28_2 1_555 1_555
F3_2 C28_2 1_555 1_555
F4_2 C29_2 1_555 1_555
F5_2 C29_2 1_555 1_555
F6_2 C29_2 1_555 1_555
N2_2 C3_2 1_555 1_555
O2_2 C10_2 1_555 1_555
O3_2 C13_2 1_555 1_555
O4_2 C13_2 1_555 1_555
O5_2 Zn1_2 1_555 1_555
O6_2 C20_2 1_555 1_555
C4_2 C3_2 1_555 1_555
H3_2 C4_2 1_555 1_555
C5_2 N1_2 1_555 1_555
H4_2 C5_2 1_555 1_555
C9_2 C8_2 1_555 1_555
C10_2 N2_2 1_555 1_555
C12_2 C9_2 1_555 1_555
H6_2 C12_2 1_555 1_555
C13_2 C14_2 1_555 1_555
C14_2 C15_2 1_555 1_555
C15_2 H7_2 1_555 1_555
C16_2 C15_2 1_555 1_555
H8_2 C16_2 1_555 1_555
C17_2 C16_2 1_555 1_555
C18_2 C17_2 1_555 1_555
H9_2 C18_2 1_555 1_555
C19_2 C14_2 1_555 1_555
H10_2 C19_2 1_555 1_555
C20_2 O5_2 1_555 1_555
C21_2 C20_2 1_555 1_555
C22_2 C21_2 1_555 1_555
H11_2 C22_2 1_555 1_555
C23_2 C22_2 1_555 1_555
H12_2 C23_2 1_555 1_555
C24_2 C23_2 1_555 1_555
C25_2 C24_2 1_555 1_555
H13_2 C25_2 1_555 1_555
C26_2 C21_2 1_555 1_555
H14_2 C26_2 1_555 1_555
C27_2 C17_2 1_555 1_555
C28_2 C27_2 1_555 1_555
C29_2 C27_2 1_555 1_555
Zn2_2 O6_2 1_555 1_555
F7_2 C57_2 1_555 1_555
F8_2 C57_2 1_555 1_555
F9_2 C57_2 1_555 1_555
F10_2 C58_2 1_555 1_555
F11_2 C58_2 1_555 1_555
F12_2 C58_2 1_555 1_555
O9_2 C42_2 1_555 1_555
O10_2 C42_2 1_555 1_555
O11_2 Zn2_2 1_555 1_555
O12_2 Zn1_2 1_555 1_555
C42_2 C43_2 1_555 1_555
C43_2 C44_2 1_555 1_555
C44_2 H21_2 1_555 1_555
C45_2 C44_2 1_555 1_555
H22_2 C45_2 1_555 1_555
C46_2 C45_2 1_555 1_555
C47_2 C46_2 1_555 1_555
H23_2 C47_2 1_555 1_555
C48_2 C43_2 1_555 1_555
H24_2 C48_2 1_555 1_555
C49_2 O11_2 1_555 1_555
C50_2 C49_2 1_555 1_555
C51_2 C50_2 1_555 1_555
H25_2 C51_2 1_555 1_555
C52_2 C51_2 1_555 1_555
H26_2 C52_2 1_555 1_555
C53_2 C52_2 1_555 1_555
C54_2 C53_2 1_555 1_555
H27_2 C54_2 1_555 1_555
C55_2 C50_2 1_555 1_555
H28_2 C55_2 1_555 1_555
C56_2 C46_2 1_555 1_555
C57_2 C56_2 1_555 1_555
C58_2 C56_2 1_555 1_555
Zn3 O10_2 1_555 1_555
Zn6 O4_2 1_555 1_555
N5_2 Zn2_2 1_555 1_555
C4_2 C5_2 1_555 1_555
C9_2 C10_2 1_555 1_555
C18_2 C19_2 1_555 1_555
C24_2 C27_2 1_555 1_555
C25_2 C26_2 1_555 1_555
O12_2 C49_2 1_555 1_555
C47_2 C48_2 1_555 1_555
C53_2 C56_2 1_555 1_555
C54_2 C55_2 1_555 1_555
N4_2 C32_2 1_555 1_555
O8_2 C39_2 1_555 1_555
C33_2 C32_2 1_555 1_555
H17_2 C33_2 1_555 1_555
C34_2 N3_2 1_555 1_555
H18_2 C34_2 1_555 1_555
C38_2 C37_2 1_555 1_555
C39_2 N4_2 1_555 1_555
H20_2 C41_2 1_555 1_555
Zn5 N3_2 1_555 1_555
C33_2 C34_2 1_555 1_555
C38_2 C39_2 1_555 1_555
C38_2 C41_2 1_555 1_555
O7_2 C35_2 1_555 1_555
C30_2 H15_2 1_555 1_555
C31_2 C30_2 1_555 1_555
H16_2 C31_2 1_555 1_555
C36_2 C35_2 1_555 1_555
H19_2 C40_2 1_555 1_555
C36_2 C40_2 1_555 1_555
N4_3 C32_3 1_555 1_555
O8_3 C39_3 1_555 1_555
C33_3 C32_3 1_555 1_555
H17_3 C33_3 1_555 1_555
C34_3 N3_3 1_555 1_555
H18_3 C34_3 1_555 1_555
C38_3 C37_3 1_555 1_555
C39_3 N4_3 1_555 1_555
H20_3 C41_3 1_555 1_555
Zn7 N3_3 1_555 1_555
C33_3 C34_3 1_555 1_555
C38_3 C39_3 1_555 1_555
C38_3 C41_3 1_555 1_555
O7_3 C35_3 1_555 1_555
C30_3 H15_3 1_555 1_555
C31_3 C30_3 1_555 1_555
H16_3 C31_3 1_555 1_555
C36_3 C35_3 1_555 1_555
H19_3 C40_3 1_555 1_555
C36_3 C40_3 1_555 1_555
O1_3 C6_3 1_555 1_555
C1_3 H1_3 1_555 1_555
C2_3 C1_3 1_555 1_555
H2_3 C2_3 1_555 1_555
C7_3 C6_3 1_555 1_555
C11_3 C7_3 1_555 1_555
H5_3 C11_3 1_555 1_555
N2_3 C3_3 1_555 1_555
O2_3 C10_3 1_555 1_555
C4_3 C3_3 1_555 1_555
H3_3 C4_3 1_555 1_555
C5_3 N5_2 1_555 1_555
H4_3 C5_3 1_555 1_555
C9_3 C8_3 1_555 1_555
C10_3 N2_3 1_555 1_555
C12_3 C9_3 1_555 1_555
H6_3 C12_3 1_555 1_555
C4_3 C5_3 1_555 1_555
C9_3 C10_3 1_555 1_555
N5 C1_4 1_555 1_555
N2_4 C3_4 1_555 1_555
O1_4 C6_4 1_555 1_555
O2_4 C10_4 1_555 1_555
C1_4 H1_4 1_555 1_555
C2_4 C1_4 1_555 1_555
H2_4 C2_4 1_555 1_555
C3_4 C2_4 1_555 1_555
C4_4 C3_4 1_555 1_555
H3_4 C4_4 1_555 1_555
C5_4 N5 1_555 1_555
H4_4 C5_4 1_555 1_555
C6_4 N2_4 1_555 1_555
C7_4 C6_4 1_555 1_555
C8_4 C7_4 1_555 1_555
C9_4 C8_4 1_555 1_555
C10_4 N2_4 1_555 1_555
C11_4 C7_4 1_555 1_555
H5_4 C11_4 1_555 1_555
C12_4 C9_4 1_555 1_555
H6_4 C12_4 1_555 1_555
N3_4 C30_4 1_555 1_555
N4_4 C32_4 1_555 1_555
O7_4 C35_4 1_555 1_555
O8_4 C39_4 1_555 1_555
C30_4 H15_4 1_555 1_555
C31_4 C30_4 1_555 1_555
H16_4 C31_4 1_555 1_555
C32_4 C31_4 1_555 1_555
C33_4 C32_4 1_555 1_555
H17_4 C33_4 1_555 1_555
C34_4 N3_4 1_555 1_555
H18_4 C34_4 1_555 1_555
C35_4 N4_4 1_555 1_555
C36_4 C35_4 1_555 1_555
C37_4 C8_4 1_555 1_555
C38_4 C37_4 1_555 1_555
C39_4 N4_4 1_555 1_555
C40_4 C12_4 1_555 1_555
H19_4 C40_4 1_555 1_555
C41_4 C11_4 1_555 1_555
H20_4 C41_4 1_555 1_555
Zn6 N3_4 1_555 1_555
C4_4 C5_4 1_555 1_555
C9_4 C10_4 1_555 1_555
C33_4 C34_4 1_555 1_555
C36_4 C37_4 1_555 1_555
C36_4 C40_4 1_555 1_555
C38_4 C39_4 1_555 1_555
C38_4 C41_4 1_555 1_555
F7_3 C57_3 1_555 1_555
F8_3 C57_3 1_555 1_555
F9_3 C57_3 1_555 1_555
F10_3 C58_3 1_555 1_555
F11_3 C58_3 1_555 1_555
F12_3 C58_3 1_555 1_555
O14_2 C42_3 1_555 1_555
O16_2 C42_3 1_555 1_555
O11_3 Zn6 1_555 1_555
C42_3 C43_3 1_555 1_555
C43_3 C44_3 1_555 1_555
C44_3 H21_3 1_555 1_555
C45_3 C44_3 1_555 1_555
H22_3 C45_3 1_555 1_555
C46_3 C45_3 1_555 1_555
C47_3 C46_3 1_555 1_555
H23_3 C47_3 1_555 1_555
C48_3 C43_3 1_555 1_555
H24_3 C48_3 1_555 1_555
C49_3 O11_3 1_555 1_555
C50_3 C49_3 1_555 1_555
C51_3 C50_3 1_555 1_555
H25_3 C51_3 1_555 1_555
C52_3 C51_3 1_555 1_555
H26_3 C52_3 1_555 1_555
C53_3 C52_3 1_555 1_555
C54_3 C53_3 1_555 1_555
H27_3 C54_3 1_555 1_555
C55_3 C50_3 1_555 1_555
H28_3 C55_3 1_555 1_555
C56_3 C46_3 1_555 1_555
C57_3 C56_3 1_555 1_555
C58_3 C56_3 1_555 1_555
O12_3 C49_3 1_555 1_555
C47_3 C48_3 1_555 1_555
C53_3 C56_3 1_555 1_555
C54_3 C55_3 1_555 1_555
F1_3 C28_3 1_555 1_555
F2_3 C28_3 1_555 1_555
F3_3 C28_3 1_555 1_555
F4_3 C29_3 1_555 1_555
F5_3 C29_3 1_555 1_555
F6_3 C29_3 1_555 1_555
O13_2 C13_3 1_555 1_555
O15_2 C13_3 1_555 1_555
O5_3 Zn3 1_555 1_555
O6_3 C20_3 1_555 1_555
C13_3 C14_3 1_555 1_555
C14_3 C15_3 1_555 1_555
C15_3 H7_3 1_555 1_555
C16_3 C15_3 1_555 1_555
H8_3 C16_3 1_555 1_555
C17_3 C16_3 1_555 1_555
C18_3 C17_3 1_555 1_555
H9_3 C18_3 1_555 1_555
C19_3 C14_3 1_555 1_555
H10_3 C19_3 1_555 1_555
C20_3 O5_3 1_555 1_555
C21_3 C20_3 1_555 1_555
C22_3 C21_3 1_555 1_555
H11_3 C22_3 1_555 1_555
C23_3 C22_3 1_555 1_555
H12_3 C23_3 1_555 1_555
C24_3 C23_3 1_555 1_555
C25_3 C24_3 1_555 1_555
H13_3 C25_3 1_555 1_555
C26_3 C21_3 1_555 1_555
H14_3 C26_3 1_555 1_555
C27_3 C17_3 1_555 1_555
C28_3 C27_3 1_555 1_555
C29_3 C27_3 1_555 1_555
C18_3 C19_3 1_555 1_555
C24_3 C27_3 1_555 1_555
C25_3 C26_3 1_555 1_555
F1_4 C28_4 1_555 1_555
F2_4 C28_4 1_555 1_555
F3_4 C28_4 1_555 1_555
F4_4 C29_4 1_555 1_555
F5_4 C29_4 1_555 1_555
F6_4 C29_4 1_555 1_555
O13 C13_4 1_555 1_555
O15 C13_4 1_555 1_555
O5_4 Zn5 1_555 1_555
O6_4 C20_4 1_555 1_555
C13_4 C14_4 1_555 1_555
C14_4 C15_4 1_555 1_555
C15_4 H7_4 1_555 1_555
C16_4 C15_4 1_555 1_555
H8_4 C16_4 1_555 1_555
C17_4 C16_4 1_555 1_555
C18_4 C17_4 1_555 1_555
H9_4 C18_4 1_555 1_555
C19_4 C14_4 1_555 1_555
H10_4 C19_4 1_555 1_555
C20_4 O5_4 1_555 1_555
C21_4 C20_4 1_555 1_555
C22_4 C21_4 1_555 1_555
H11_4 C22_4 1_555 1_555
C23_4 C22_4 1_555 1_555
H12_4 C23_4 1_555 1_555
C24_4 C23_4 1_555 1_555
C25_4 C24_4 1_555 1_555
H13_4 C25_4 1_555 1_555
C26_4 C21_4 1_555 1_555
H14_4 C26_4 1_555 1_555
C27_4 C17_4 1_555 1_555
C28_4 C27_4 1_555 1_555
C29_4 C27_4 1_555 1_555
Zn7 O6_4 1_555 1_555
F7_4 C57_4 1_555 1_555
F8_4 C57_4 1_555 1_555
F9_4 C57_4 1_555 1_555
F10_4 C58_4 1_555 1_555
F11_4 C58_4 1_555 1_555
F12_4 C58_4 1_555 1_555
O14 C42_4 1_555 1_555
O16 C42_4 1_555 1_555
O11_4 Zn7 1_555 1_555
O12_4 Zn5 1_555 1_555
C42_4 C43_4 1_555 1_555
C43_4 C44_4 1_555 1_555
C44_4 H21_4 1_555 1_555
C45_4 C44_4 1_555 1_555
H22_4 C45_4 1_555 1_555
C46_4 C45_4 1_555 1_555
C47_4 C46_4 1_555 1_555
H23_4 C47_4 1_555 1_555
C48_4 C43_4 1_555 1_555
H24_4 C48_4 1_555 1_555
C49_4 O11_4 1_555 1_555
C50_4 C49_4 1_555 1_555
C51_4 C50_4 1_555 1_555
H25_4 C51_4 1_555 1_555
C52_4 C51_4 1_555 1_555
H26_4 C52_4 1_555 1_555
C53_4 C52_4 1_555 1_555
C54_4 C53_4 1_555 1_555
H27_4 C54_4 1_555 1_555
C55_4 C50_4 1_555 1_555
H28_4 C55_4 1_555 1_555
C56_4 C46_4 1_555 1_555
C57_4 C56_4 1_555 1_555
C58_4 C56_4 1_555 1_555
C18_4 C19_4 1_555 1_555
C24_4 C27_4 1_555 1_555
C25_4 C26_4 1_555 1_555
O12_4 C49_4 1_555 1_555
C47_4 C48_4 1_555 1_555
C53_4 C56_4 1_555 1_555
C54_4 C55_4 1_555 1_555

#END
