
###############################################################################
#
# This file contains modified crystal structure data generated from the
# MOF subset of the Cambridge Structural Database (CSD) v543 
# hosted by the Cambridge Crystallographic Data Centre (CCDC).
#
# This work is licensed under the Creative Commons
# Attribution-NonCommercial-ShareAlike 4.0 International License.
# To view a copy of this license, visit
# http://creativecommons.org/licenses/by-nc-sa/4.0/
# or send a letter to
# Creative Commons, PO Box 1866, Mountain View, CA 94042, USA.
#
# CIF created using the CSD Python API on 29 September 2022
# The structure has been converted into the P1 space group
# The structure has a 3D framework
# The original CSD entry DIMQOH is in the orthorhombic crystal system
# The framework has been calculated to contain at least 10.0% void space
# The void calculation uses a probe of radius 1.32A, grid spacing 0.4
#
###############################################################################

data_DIMQOH
_chemical_formula_moiety         '(C74 H32 Ag12 Mn13 N40)n'
_symmetry_cell_setting           triclinic
_symmetry_space_group_name_H-M   'P 1'
_symmetry_Int_Tables_number      1
_space_group_name_Hall           'P 1'
loop_
_symmetry_equiv_pos_site_id
_symmetry_equiv_pos_as_xyz
1 x,y,z
_cell_length_a                   11.7060(6)
_cell_length_b                   17.6369(9)
_cell_length_c                   12.2246(6)
_cell_angle_alpha                90
_cell_angle_beta                 90
_cell_angle_gamma                90
_cell_volume                     2523.86
loop_
_atom_site_label
_atom_site_type_symbol
_atom_site_fract_x
_atom_site_fract_y
_atom_site_fract_z
Mn4 Mn 0.0000 0.0000 0.5000
Ag1 Ag 0.0000 0.24571(7) 0.24211(12)
C1 C 0.0000 0.3510(9) 0.1689(14)
C2 C -0.0000 0.1414(9) 0.3169(14)
Mn1 Mn 0.0000 0.5000 0.0000
N1 N 0.0000 0.4072(8) 0.1235(11)
N2 N 0.0000 0.0858(8) 0.3674(12)
N8 N 0.0000 0.5858(8) 0.1326(12)
N9 N 0.1956(10) 0.5000 0.0000
Mn1_2 Mn 0.0000 0.5000 1.0000
Ag2 Ag -0.0000 0.75429(7) 0.75789(12)
C13 C -0.0000 0.6490(9) 0.8311(14)
C14 C 0.0000 0.8586(9) 0.6831(14)
N5 N 0.0000 0.5928(8) 0.8765(11)
N6 N 0.0000 0.9142(8) 0.6326(12)
Mn4_2 Mn 0.0000 1.0000 0.5000
N7 N 0.0000 0.4142(8) 0.8674(12)
N9_2 N 0.1956(10) 0.5000 1.0000
Mn4_3 Mn 1.0000 0.0000 0.5000
Ag1_2 Ag 1.0000 0.24571(7) 0.24211(12)
C1_2 C 1.0000 0.3510(9) 0.1689(14)
C2_2 C 1.0000 0.1414(9) 0.3169(14)
C3 C 0.7442(13) 0.4929(14) 0.0895(11)
H1 H 0.7838 0.4830 0.1558
C4 C 0.6242(12) 0.4989(15) 0.0940(11)
H2 H 0.5868 0.5022 0.1627
C5 C 0.5618(11) 0.5000 0.0000
Mn1_3 Mn 1.0000 0.5000 0.0000
N1_2 N 1.0000 0.4072(8) 0.1235(11)
N2_2 N 1.0000 0.0858(8) 0.3674(12)
N3 N 0.8044(10) 0.5000 0.0000
C10 C 0.4382(11) 0.5000 0.0000
C11 C 0.2558(13) 0.4929(14) 0.0895(11)
H7 H 0.2162 0.4830 0.1558
C12 C 0.3758(12) 0.4989(15) 0.0940(11)
H8 H 0.4132 0.5022 0.1627
N8_2 N 1.0000 0.5858(8) 0.1326(12)
C5_2 C 0.5618(11) 0.5000 1.0000
Mn1_4 Mn 1.0000 0.5000 1.0000
N3_2 N 0.8044(10) 0.5000 1.0000
C6 C 0.7442(13) 0.5071(14) 0.9105(11)
H3 H 0.7838 0.5170 0.8442
C7 C 0.6242(12) 0.5011(15) 0.9060(11)
H4 H 0.5868 0.4978 0.8373
C8 C 0.2558(13) 0.5071(14) 0.9105(11)
H5 H 0.2162 0.5170 0.8442
C9 C 0.3758(12) 0.5011(15) 0.9060(11)
H6 H 0.4132 0.4978 0.8373
C10_2 C 0.4382(11) 0.5000 1.0000
Ag2_2 Ag 1.0000 0.75429(7) 0.75789(12)
C13_2 C 1.0000 0.6490(9) 0.8311(14)
C14_2 C 1.0000 0.8586(9) 0.6831(14)
N5_2 N 1.0000 0.5928(8) 0.8765(11)
N6_2 N 1.0000 0.9142(8) 0.6326(12)
Mn4_4 Mn 1.0000 1.0000 0.5000
N7_2 N 1.0000 0.4142(8) 0.8674(12)
Ag1_3 Ag -0.0000 0.25429(7) 0.74211(12)
C1_3 C 0.0000 0.1490(9) 0.6689(14)
C2_3 C 0.0000 0.3586(9) 0.8169(14)
C3_2 C 0.2558(13) 0.0071(14) 0.5895(11)
H1_2 H 0.2162 0.0170 0.6558
C4_2 C 0.3758(12) 0.0011(15) 0.5940(11)
C5_3 C 0.4382(11) 0.0000 0.5000
N1_3 N 0.0000 0.0928(8) 0.6235(11)
N3_3 N 0.1956(10) 0.0000 0.5000
H4_2 H 0.4132 0.0022 0.3373
H6_2 H 0.5868 0.0022 0.3373
C10_3 C 0.5618(11) 0.0000 0.5000
N4 N 0.8044(10) 0.0000 0.5000
C11_2 C 0.7442(13) 0.0071(14) 0.5895(11)
H7_2 H 0.7838 0.0170 0.6558
C12_2 C 0.6242(12) 0.0011(15) 0.5940(11)
H2_2 H 0.4132 0.9978 0.6627
C5_4 C 0.4382(11) 1.0000 0.5000
N3_4 N 0.1956(10) 1.0000 0.5000
C6_2 C 0.2558(13) 0.9929(14) 0.4105(11)
H3_2 H 0.2162 0.9830 0.3442
C7_2 C 0.3758(12) 0.9989(15) 0.4060(11)
C8_2 C 0.7442(13) 0.9929(14) 0.4105(11)
H5_2 H 0.7838 0.9830 0.3442
C9_2 C 0.6242(12) 0.9989(15) 0.4060(11)
C10_4 C 0.5618(11) 1.0000 0.5000
N4_2 N 0.8044(10) 1.0000 0.5000
H8_2 H 0.5868 0.9978 0.6627
Ag2_3 Ag 0.0000 0.74571(7) 0.25789(12)
C13_3 C 0.0000 0.8510(9) 0.3311(14)
C14_3 C -0.0000 0.6414(9) 0.1831(14)
N5_3 N 0.0000 0.9072(8) 0.3765(11)
Ag1_4 Ag 1.0000 0.25429(7) 0.74211(12)
C1_4 C 1.0000 0.1490(9) 0.6689(14)
C2_4 C 1.0000 0.3586(9) 0.8169(14)
N1_4 N 1.0000 0.0928(8) 0.6235(11)
Ag2_4 Ag 1.0000 0.74571(7) 0.25789(12)
C13_4 C 1.0000 0.8510(9) 0.3311(14)
C14_4 C 1.0000 0.6414(9) 0.1831(14)
N5_4 N 1.0000 0.9072(8) 0.3765(11)
H2_3 H 0.0868 0.0022 0.1627
C5_5 C 0.0618(11) 0.0000 0.0000
Mn1_5 Mn 0.5000 0.0000 0.0000
N3_5 N 0.3044(10) 0.0000 0.0000
N8_3 N 0.5000 0.0858(8) 0.1326(12)
N9_3 N 0.6956(10) 0.0000 0.0000
C5_6 C 0.0618(11) 0.0000 1.0000
Mn1_6 Mn 0.5000 0.0000 1.0000
N3_6 N 0.3044(10) 0.0000 1.0000
C6_3 C 0.2442(13) 0.0071(14) 0.9105(11)
H3_3 H 0.2838 0.0170 0.8442
C7_3 C 0.1242(12) 0.0011(15) 0.9060(11)
Ag2_5 Ag 0.5000 0.25429(7) 0.75789(12)
C13_5 C 0.5000 0.1490(9) 0.8311(14)
C14_5 C 0.5000 0.3586(9) 0.6831(14)
N5_5 N 0.5000 0.0928(8) 0.8765(11)
N6_3 N 0.5000 0.4142(8) 0.6326(12)
Mn4_5 Mn 0.5000 0.5000 0.5000
N9_4 N 0.6956(10) 0.0000 1.0000
Ag1_5 Ag 0.5000 0.74571(7) 0.24211(12)
C1_5 C 0.5000 0.8510(9) 0.1689(14)
C2_5 C 0.5000 0.6414(9) 0.3169(14)
C3_3 C 0.2442(13) 0.9929(14) 0.0895(11)
H1_3 H 0.2838 0.9830 0.1558
C4_3 C 0.1242(12) 0.9989(15) 0.0940(11)
C5_7 C 0.0618(11) 1.0000 0.0000
Mn1_7 Mn 0.5000 1.0000 0.0000
N1_5 N 0.5000 0.9072(8) 0.1235(11)
N2_3 N 0.5000 0.5858(8) 0.3674(12)
N3_7 N 0.3044(10) 1.0000 0.0000
N9_5 N 0.6956(10) 1.0000 0.0000
C5_8 C 0.0618(11) 1.0000 1.0000
Mn1_8 Mn 0.5000 1.0000 1.0000
N3_8 N 0.3044(10) 1.0000 1.0000
H4_3 H 0.0868 0.9978 0.8373
N7_3 N 0.5000 0.9142(8) 0.8674(12)
N9_6 N 0.6956(10) 1.0000 1.0000
C10_5 C 0.9382(11) 0.0000 0.0000
H8_3 H 0.9132 0.0022 0.1627
C8_3 C 0.7558(13) 0.0071(14) 0.9105(11)
H5_3 H 0.7162 0.0170 0.8442
C9_3 C 0.8758(12) 0.0011(15) 0.9060(11)
C10_6 C 0.9382(11) 0.0000 1.0000
C10_7 C 0.9382(11) 1.0000 0.0000
C11_3 C 0.7558(13) 0.9929(14) 0.0895(11)
H7_3 H 0.7162 0.9830 0.1558
C12_3 C 0.8758(12) 0.9989(15) 0.0940(11)
H6_3 H 0.9132 0.9978 0.8373
C10_8 C 0.9382(11) 1.0000 1.0000
C8_4 C 0.2442(13) 0.4929(14) 0.4105(11)
H5_4 H 0.2838 0.4830 0.3442
C9_4 C 0.1242(12) 0.4989(15) 0.4060(11)
H6_4 H 0.0868 0.5022 0.3373
C10_9 C 0.0618(11) 0.5000 0.5000
N4_3 N 0.3044(10) 0.5000 0.5000
C11_4 C 0.2442(13) 0.5071(14) 0.5895(11)
H7_4 H 0.2838 0.5170 0.6558
C12_4 C 0.1242(12) 0.5011(15) 0.5940(11)
H8_4 H 0.0868 0.4978 0.6627
Ag1_6 Ag 0.5000 0.75429(7) 0.74211(12)
C1_6 C 0.5000 0.6490(9) 0.6689(14)
C2_6 C 0.5000 0.8586(9) 0.8169(14)
C3_4 C 0.7558(13) 0.5071(14) 0.5895(11)
H1_4 H 0.7162 0.5170 0.6558
C4_4 C 0.8758(12) 0.5011(15) 0.5940(11)
H2_4 H 0.9132 0.4978 0.6627
C5_9 C 0.9382(11) 0.5000 0.5000
N1_6 N 0.5000 0.5928(8) 0.6235(11)
N3_9 N 0.6956(10) 0.5000 0.5000
C6_4 C 0.7558(13) 0.4929(14) 0.4105(11)
H3_4 H 0.7162 0.4830 0.3442
C7_4 C 0.8758(12) 0.4989(15) 0.4060(11)
H4_4 H 0.9132 0.5022 0.3373
Ag2_6 Ag 0.5000 0.24571(7) 0.25789(12)
C13_6 C 0.5000 0.3510(9) 0.3311(14)
C14_6 C 0.5000 0.1414(9) 0.1831(14)
N5_6 N 0.5000 0.4072(8) 0.3765(11)
loop_
_geom_bond_atom_site_label_1
_geom_bond_atom_site_label_2
_geom_bond_site_symmetry_1
_geom_bond_site_symmetry_2
Ag1 C1 1_555 1_555
C1 N1 1_555 1_555
C2 Ag1 1_555 1_555
Mn1 N1 1_555 1_555
N2 C2 1_555 1_555
Mn4 N2 1_555 1_555
N8 Mn1 1_555 1_555
N9 Mn1 1_555 1_555
Ag2 C13 1_555 1_555
C13 N5 1_555 1_555
C14 Ag2 1_555 1_555
N5 Mn1_2 1_555 1_555
N6 C14 1_555 1_555
Mn4_2 N6 1_555 1_555
N7 Mn1_2 1_555 1_555
N9_2 Mn1_2 1_555 1_555
Ag1_2 C1_2 1_555 1_555
C1_2 N1_2 1_555 1_555
C2_2 Ag1_2 1_555 1_555
C3 H1 1_555 1_555
C4 C3 1_555 1_555
H2 C4 1_555 1_555
C5 C4 1_555 1_555
Mn1_3 N1_2 1_555 1_555
N2_2 C2_2 1_555 1_555
N3 C3 1_555 1_555
C10 C5 1_555 1_555
C11 N9 1_555 1_555
H7 C11 1_555 1_555
C12 C10 1_555 1_555
H8 C12 1_555 1_555
Mn4_3 N2_2 1_555 1_555
N8_2 Mn1_3 1_555 1_555
Mn1_3 N3 1_555 1_555
C11 C12 1_555 1_555
C6 N3_2 1_555 1_555
H3 C6 1_555 1_555
C7 C5_2 1_555 1_555
H4 C7 1_555 1_555
C8 H5 1_555 1_555
C9 C8 1_555 1_555
H6 C9 1_555 1_555
C10_2 C5_2 1_555 1_555
N9_2 C8 1_555 1_555
Ag2_2 C13_2 1_555 1_555
C13_2 N5_2 1_555 1_555
C14_2 Ag2_2 1_555 1_555
N5_2 Mn1_4 1_555 1_555
N6_2 C14_2 1_555 1_555
Mn4_4 N6_2 1_555 1_555
N7_2 Mn1_4 1_555 1_555
Mn1_4 N3_2 1_555 1_555
C6 C7 1_555 1_555
C9 C10_2 1_555 1_555
Ag1_3 C1_3 1_555 1_555
C1_3 N1_3 1_555 1_555
C2_3 Ag1_3 1_555 1_555
C3_2 H1_2 1_555 1_555
C4_2 C3_2 1_555 1_555
C5_3 C4_2 1_555 1_555
Mn4 N1_3 1_555 1_555
N7 C2_3 1_555 1_555
N3_3 C3_2 1_555 1_555
C10_3 C5_3 1_555 1_555
C11_2 N4 1_555 1_555
H7_2 C11_2 1_555 1_555
C12_2 C10_3 1_555 1_555
Mn4_3 N4 1_555 1_555
Mn4 N3_3 1_555 1_555
C11_2 C12_2 1_555 1_555
C6_2 N3_4 1_555 1_555
H3_2 C6_2 1_555 1_555
C7_2 C5_4 1_555 1_555
C8_2 H5_2 1_555 1_555
C9_2 C8_2 1_555 1_555
C10_4 C5_4 1_555 1_555
N4_2 C8_2 1_555 1_555
Ag2_3 C13_3 1_555 1_555
C13_3 N5_3 1_555 1_555
C14_3 Ag2_3 1_555 1_555
N5_3 Mn4_2 1_555 1_555
N8 C14_3 1_555 1_555
Mn4_4 N4_2 1_555 1_555
Mn4_2 N3_4 1_555 1_555
C6_2 C7_2 1_555 1_555
C9_2 C10_4 1_555 1_555
Ag1_4 C1_4 1_555 1_555
C1_4 N1_4 1_555 1_555
C2_4 Ag1_4 1_555 1_555
Mn4_3 N1_4 1_555 1_555
N7_2 C2_4 1_555 1_555
Ag2_4 C13_4 1_555 1_555
C13_4 N5_4 1_555 1_555
C14_4 Ag2_4 1_555 1_555
N5_4 Mn4_4 1_555 1_555
N8_2 C14_4 1_555 1_555
N8_3 Mn1_5 1_555 1_555
N9_3 Mn1_5 1_555 1_555
Mn1_5 N3_5 1_555 1_555
C6_3 N3_6 1_555 1_555
H3_3 C6_3 1_555 1_555
C7_3 C5_6 1_555 1_555
Ag2_5 C13_5 1_555 1_555
C13_5 N5_5 1_555 1_555
C14_5 Ag2_5 1_555 1_555
N5_5 Mn1_6 1_555 1_555
N6_3 C14_5 1_555 1_555
Mn4_5 N6_3 1_555 1_555
N9_4 Mn1_6 1_555 1_555
Mn1_6 N3_6 1_555 1_555
C6_3 C7_3 1_555 1_555
Ag1_5 C1_5 1_555 1_555
C1_5 N1_5 1_555 1_555
C2_5 Ag1_5 1_555 1_555
C3_3 H1_3 1_555 1_555
C4_3 C3_3 1_555 1_555
C5_7 C4_3 1_555 1_555
Mn1_7 N1_5 1_555 1_555
N2_3 C2_5 1_555 1_555
N3_7 C3_3 1_555 1_555
Mn4_5 N2_3 1_555 1_555
N9_5 Mn1_7 1_555 1_555
Mn1_7 N3_7 1_555 1_555
N7_3 Mn1_8 1_555 1_555
N9_6 Mn1_8 1_555 1_555
Mn1_8 N3_8 1_555 1_555
C8_3 H5_3 1_555 1_555
C9_3 C8_3 1_555 1_555
N9_4 C8_3 1_555 1_555
C9_3 C10_6 1_555 1_555
C11_3 N9_5 1_555 1_555
H7_3 C11_3 1_555 1_555
C12_3 C10_7 1_555 1_555
C11_3 C12_3 1_555 1_555
C8_4 H5_4 1_555 1_555
C9_4 C8_4 1_555 1_555
H6_4 C9_4 1_555 1_555
N4_3 C8_4 1_555 1_555
C11_4 N4_3 1_555 1_555
H7_4 C11_4 1_555 1_555
C12_4 C10_9 1_555 1_555
H8_4 C12_4 1_555 1_555
Mn4_5 N4_3 1_555 1_555
C9_4 C10_9 1_555 1_555
C11_4 C12_4 1_555 1_555
Ag1_6 C1_6 1_555 1_555
C1_6 N1_6 1_555 1_555
C2_6 Ag1_6 1_555 1_555
C3_4 H1_4 1_555 1_555
C4_4 C3_4 1_555 1_555
H2_4 C4_4 1_555 1_555
C5_9 C4_4 1_555 1_555
Mn4_5 N1_6 1_555 1_555
N7_3 C2_6 1_555 1_555
N3_9 C3_4 1_555 1_555
C6_4 N3_9 1_555 1_555
H3_4 C6_4 1_555 1_555
C7_4 C5_9 1_555 1_555
H4_4 C7_4 1_555 1_555
Ag2_6 C13_6 1_555 1_555
C13_6 N5_6 1_555 1_555
C14_6 Ag2_6 1_555 1_555
N5_6 Mn4_5 1_555 1_555
N8_3 C14_6 1_555 1_555
Mn4_5 N3_9 1_555 1_555
C6_4 C7_4 1_555 1_555

#END
