
###############################################################################
#
# This file contains modified crystal structure data generated from the
# MOF subset of the Cambridge Structural Database (CSD) v543 
# hosted by the Cambridge Crystallographic Data Centre (CCDC).
#
# This work is licensed under the Creative Commons
# Attribution-NonCommercial-ShareAlike 4.0 International License.
# To view a copy of this license, visit
# http://creativecommons.org/licenses/by-nc-sa/4.0/
# or send a letter to
# Creative Commons, PO Box 1866, Mountain View, CA 94042, USA.
#
# CIF created using the CSD Python API on 29 September 2022
# The structure has been converted into the P1 space group
# The structure has a 3D framework
# The original CSD entry DINNIZ is in the monoclinic crystal system
# The framework has been calculated to contain at least 10.0% void space
# The void calculation uses a probe of radius 1.32A, grid spacing 0.4
#
###############################################################################

data_DINNIZ
_chemical_formula_moiety         '(C120 H184 Mn16 N8 O68)n'
_symmetry_cell_setting           triclinic
_symmetry_space_group_name_H-M   'P 1'
_symmetry_Int_Tables_number      1
_space_group_name_Hall           'P 1'
loop_
_symmetry_equiv_pos_site_id
_symmetry_equiv_pos_as_xyz
1 x,y,z
_cell_length_a                   14.368(3)
_cell_length_b                   13.606(3)
_cell_length_c                   26.886(8)
_cell_angle_alpha                90
_cell_angle_beta                 120.57(2)
_cell_angle_gamma                90
_cell_volume                     4525.44
loop_
_atom_site_label
_atom_site_type_symbol
_atom_site_fract_x
_atom_site_fract_y
_atom_site_fract_z
Mn8 Mn 0.21436(9) 0.01406(8) 0.86655(5)
Mn12 Mn 0.21505(9) 0.00157(7) 0.74553(5)
Mn1 Mn 0.13261(9) 0.78133(8) 0.66199(5)
O1 O 0.0643(5) 0.7703(4) 0.5707(2)
O8 O 0.0226(4) 0.6605(3) 0.6537(2)
O9 O 0.1934(4) 0.1145(3) 0.7951(2)
O10 O 0.1405(5) 0.2544(4) 0.8155(3)
O11 O 0.1862(4) 0.7730(4) 0.7540(2)
O12 O 0.1699(4) 0.9087(3) 0.7949(2)
O13 O 0.2837(5) 0.7085(4) 0.6838(3)
N1 N 0.4640(8) 0.7114(8) 0.7382(5)
H1 H 0.0155 0.7350 0.4703
C12 C 0.0295(6) 0.5686(5) 0.6615(3)
C13 C 0.1366(7) 0.5224(6) 0.6797(4)
H17 H 0.1877 0.5442 0.7186
H18 H 0.1617 0.5469 0.6547
C14 C 0.1390(8) 0.4098(6) 0.6787(4)
H19 H 0.0749 0.3865 0.6442
H20 H 0.2015 0.3888 0.6767
C15 C 0.1436(7) 0.3636(5) 0.7308(3)
H21 H 0.0778 0.3795 0.7308
H22 H 0.2038 0.3914 0.7654
C16 C 0.1566(7) 0.2504(5) 0.7322(3)
H23 H 0.0955 0.2223 0.6980
H24 H 0.2215 0.2344 0.7313
C17 C 0.1637(6) 0.2049(5) 0.7852(3)
C18 C 0.1740(5) 0.8150(5) 0.7918(3)
C19 C 0.1654(6) 0.7577(5) 0.8370(3)
H25 H 0.1042 0.7833 0.8389
H26 H 0.2297 0.7711 0.8740
C20 C 0.1526(6) 0.6469(5) 0.8300(3)
H27 H 0.0824 0.6312 0.7970
H28 H 0.2076 0.6202 0.8231
C21 C 0.1631(7) 0.6012(5) 0.8839(3)
H29 H 0.2351 0.6147 0.9159
H30 H 0.1121 0.6334 0.8921
C22 C 0.1440(6) 0.4919(5) 0.8813(4)
H31 H 0.1813 0.4614 0.8638
H32 H 0.1770 0.4675 0.9206
C23 C 0.3689(8) 0.7451(7) 0.7213(5)
H33 H 0.3643 0.8021 0.7390
C24 C 0.4772(14) 0.6240(16) 0.7113(9)
H34 H 0.4076 0.5960 0.6854
H35 H 0.5206 0.5768 0.7406
H36 H 0.5122 0.6413 0.6902
C25 C 0.5676(11) 0.7616(14) 0.7806(7)
H37 H 0.5518 0.8173 0.7970
H38 H 0.6045 0.7831 0.7612
H39 H 0.6127 0.7164 0.8108
O17 O 0.0119(4) 0.3668(3) 0.8537(2)
C30 C 0.0286(6) 0.4585(5) 0.8491(3)
Mn14 Mn 0.12475(9) 0.24717(7) 0.88958(5)
O19 O 0.2187(4) 0.9178(4) 0.6733(2)
O3 O 0.7813(4) 0.0822(4) 0.3267(2)
H7 H 0.8500 0.0491 0.4301
H8 H 0.7311 0.0174 0.4088
C6 C 0.7716(7) 0.0010(6) 0.3471(4)
Mn6 Mn 0.86739(9) 0.21867(8) 0.33801(5)
O24 O 0.8301(4) 0.0913(3) 0.2051(2)
O25 O 0.6196(5) 0.0358(4) 0.1931(2)
Mn2 Mn 0.78564(9) 0.51406(8) 0.63345(5)
Mn3 Mn 0.78495(9) 0.99843(7) 0.25447(5)
Mn4 Mn 0.87525(9) 0.74717(7) 0.61042(5)
O2 O 0.8906(5) 0.7396(5) 0.5360(3)
O4 O 0.7473(5) 0.9253(4) 0.3171(2)
O5 O 0.6962(5) 0.7895(4) 0.5539(3)
O6 O 0.7426(4) 0.6353(4) 0.5739(2)
O7 O 0.9511(5) 0.5173(4) 0.6541(3)
O14 O 0.7596(5) 0.4199(4) 0.5601(2)
N2 N 0.7834(7) 0.4027(6) 0.4840(3)
C1 C 0.9697(9) 0.7550(6) 0.5303(4)
C2 C 0.9503(10) 0.7566(9) 0.4694(4)
H2 H 0.8931 0.7105 0.4459
C3 C 0.9209(12) 0.8525(11) 0.4432(5)
H3 H 0.9852 0.8929 0.4633
H4 H 0.9064 0.8448 0.4040
C4 C 0.8339(14) 0.9095(10) 0.4394(5)
H5 H 0.7719 0.8660 0.4238
H6 H 0.8531 0.9236 0.4788
C5 C 0.7963(12) 0.9989(7) 0.4088(4)
C7 C 0.6696(7) 0.7005(7) 0.5493(4)
C8 C 0.5532(7) 0.6650(9) 0.5140(5)
H9 H 0.5523 0.5937 0.5141
H10 H 0.5132 0.6877 0.5320
C9 C 0.4986(10) 0.7007(10) 0.4532(6)
H11 H 0.4241 0.6785 0.4339
H12 H 0.4974 0.7719 0.4540
C10 C 0.5434(11) 0.6719(14) 0.4184(7)
H13 H 0.5124 0.7155 0.3853
H14 H 0.6199 0.6872 0.4407
C11 C 0.5354(7) 0.5756(8) 0.3966(4)
H15 H 0.5755 0.5314 0.4289
H16 H 0.5697 0.5747 0.3735
C26 C 0.7898(8) 0.4495(7) 0.5281(4)
H40 H 0.8205 0.5118 0.5357
C27 C 0.7340(11) 0.3036(10) 0.4713(6)
H41 H 0.7166 0.2860 0.5003
H42 H 0.7840 0.2567 0.4715
H43 H 0.6692 0.3039 0.4341
C28 C 0.8185(10) 0.4459(9) 0.4469(5)
H44 H 0.8508 0.5089 0.4619
H45 H 0.7574 0.4540 0.4086
H46 H 0.8706 0.4036 0.4455
O15 O 0.3804(5) 0.5358(4) 0.3069(2)
O16 O 0.3764(5) 0.5097(5) 0.3879(3)
C29 C 0.4211(6) 0.5366(6) 0.3601(4)
O18 O 0.9557(4) 0.5186(3) 0.8202(2)
Mn5 Mn 0.86739(9) 0.28133(8) 0.83801(5)
Mn9 Mn 0.21436(9) 0.48594(8) 0.36655(5)
Mn10 Mn 0.21505(9) 0.49843(7) 0.24553(5)
Mn13 Mn 0.78495(9) 0.50157(7) 0.75447(5)
O20 O 0.8066(4) 0.6145(3) 0.7049(2)
O21 O 0.8066(4) 0.8855(3) 0.2049(2)
O22 O 0.8595(5) 0.7544(4) 0.6845(3)
O23 O 0.8301(4) 0.4087(3) 0.7051(2)
O26 O 0.6236(5) 0.4903(5) 0.6121(3)
O27 O 0.9881(4) 0.8668(3) 0.6463(2)
O28 O 0.9557(4) 0.9814(3) 0.3202(2)
O3_2 O 0.2187(4) 0.5822(4) 0.1733(2)
O4_2 O 0.2527(5) 0.4253(4) 0.1829(2)
C2_2 C 0.0497(10) 0.2566(9) 0.0306(4)
H2_2 H 0.1069 0.2105 0.0541
C3_2 C 0.0791(12) 0.3525(11) 0.0568(5)
H3_2 H 0.0148 0.3929 0.0367
H4_2 H 0.0936 0.3448 0.0960
C4_2 C 0.1661(14) 0.4095(10) 0.0606(5)
H5_2 H 0.2281 0.3660 0.0762
H6_2 H 0.1469 0.4236 0.0212
C5_2 C 0.2037(12) 0.4989(7) 0.0912(4)
H7_2 H 0.1500 0.5491 0.0699
H8_2 H 0.2689 0.5174 0.0912
C6_2 C 0.2284(7) 0.5010(6) 0.1529(4)
C9_2 C 0.5014(10) 0.2007(10) 0.0468(6)
H11_2 H 0.5759 0.1785 0.0661
H12_2 H 0.5026 0.2719 0.0460
C10_2 C 0.4566(11) 0.1719(14) 0.0816(7)
H13_2 H 0.4876 0.2155 0.1147
H14_2 H 0.3801 0.1872 0.0593
C11_2 C 0.4646(7) 0.0756(8) 0.1034(4)
H15_2 H 0.4245 0.0314 0.0711
H16_2 H 0.4303 0.0747 0.1265
H44_2 H 0.1492 0.0089 0.0381
O16_2 O 0.6236(5) 0.0097(5) 0.1121(3)
C29_2 C 0.5789(6) 0.0366(6) 0.1399(4)
Mn6_2 Mn 0.13261(9) 0.71867(8) 0.16199(5)
O21_2 O 0.1934(4) 0.3855(3) 0.2951(2)
O24_2 O 0.1699(4) 0.5913(3) 0.2949(2)
O28_2 O 0.0443(4) 0.4814(3) 0.1798(2)
O2_2 O 0.1094(5) 0.2396(5) 0.9640(3)
O5_2 O 0.3038(5) 0.2895(4) 0.9461(3)
O6_2 O 0.2574(4) 0.1353(4) 0.9261(2)
O7_2 O 0.0489(5) 0.0173(4) 0.8459(3)
C1_2 C 0.0303(9) 0.2550(6) 0.9697(4)
C7_2 C 0.3304(7) 0.2005(7) 0.9507(4)
C8_2 C 0.4468(7) 0.1650(9) 0.9860(5)
H9_2 H 0.4477 0.0937 0.9859
H10_2 H 0.4868 0.1877 0.9680
H40_2 H 0.1795 0.0118 0.9643
O18_2 O 0.0443(4) 0.0186(3) 0.6798(2)
N2_2 N 0.2166(7) 0.9027(6) 0.0160(3)
C27_2 C 0.2660(11) 0.8036(10) 0.0287(6)
H42_2 H 0.2160 0.7567 0.0285
H43_2 H 0.3308 0.8039 0.0659
C28_2 C 0.1815(10) 0.9459(9) 0.0531(5)
H45_2 H 0.2426 0.9540 0.0914
H46_2 H 0.1294 0.9036 0.0545
Mn9_2 Mn 0.78564(9) 0.98594(8) 0.13345(5)
O14_2 O 0.2404(5) 0.9199(4) 0.9399(2)
C26_2 C 0.2102(8) 0.9495(7) 0.9719(4)
H41_2 H 0.2834 0.7860 0.9997
O26_2 O 0.3764(5) 0.9903(5) 0.8879(3)
O1_2 O 0.9357(5) 0.2703(4) 0.9293(2)
O8_2 O 0.9774(4) 0.1605(3) 0.8463(2)
O11_2 O 0.8138(4) 0.2730(4) 0.7460(2)
O13_2 O 0.7163(5) 0.2085(4) 0.8162(3)
N1_2 N 0.5360(8) 0.2114(8) 0.7618(5)
C12_2 C 0.9705(6) 0.0686(5) 0.8385(3)
C13_2 C 0.8634(7) 0.0224(6) 0.8203(4)
H17_2 H 0.8123 0.0442 0.7814
H18_2 H 0.8383 0.0469 0.8453
C18_2 C 0.8260(5) 0.3150(5) 0.7082(3)
C19_2 C 0.8346(6) 0.2577(5) 0.6630(3)
H25_2 H 0.8958 0.2833 0.6611
H26_2 H 0.7703 0.2711 0.6260
C20_2 C 0.8474(6) 0.1469(5) 0.6700(3)
H27_2 H 0.9176 0.1312 0.7030
H28_2 H 0.7924 0.1202 0.6769
C21_2 C 0.8369(7) 0.1012(5) 0.6161(3)
H29_2 H 0.7649 0.1147 0.5841
H30_2 H 0.8879 0.1334 0.6079
C23_2 C 0.6311(8) 0.2451(7) 0.7787(5)
H33_2 H 0.6357 0.3021 0.7610
C24_2 C 0.5228(14) 0.1240(16) 0.7887(9)
H34_2 H 0.5924 0.0960 0.8146
H35_2 H 0.4794 0.0768 0.7594
H36_2 H 0.4878 0.1413 0.8098
C25_2 C 0.4324(11) 0.2616(14) 0.7194(7)
H37_2 H 0.4482 0.3173 0.7030
H38_2 H 0.3955 0.2831 0.7388
H39_2 H 0.3873 0.2164 0.6892
O19_2 O 0.7813(4) 0.4178(4) 0.8267(2)
C14_2 C 0.8610(8) 0.9098(6) 0.8213(4)
H19_2 H 0.9251 0.8865 0.8558
H20_2 H 0.7985 0.8888 0.8233
C15_2 C 0.8564(7) 0.8636(5) 0.7692(3)
H21_2 H 0.9222 0.8795 0.7692
H22_2 H 0.7962 0.8914 0.7346
C16_2 C 0.8434(7) 0.7504(5) 0.7678(3)
H23_2 H 0.9045 0.7223 0.8020
H24_2 H 0.7785 0.7344 0.7687
C17_2 C 0.8363(6) 0.7049(5) 0.7148(3)
C22_2 C 0.8560(6) 0.9919(5) 0.6187(4)
H31_2 H 0.8187 0.9614 0.6362
H32_2 H 0.8230 0.9675 0.5794
C30_2 C 0.9714(6) 0.9585(5) 0.6509(3)
Mn4_2 Mn 0.12475(9) 0.25283(7) 0.38958(5)
O2_3 O 0.1094(5) 0.2604(5) 0.4640(3)
O4_3 O 0.2527(5) 0.0747(4) 0.6829(2)
O5_3 O 0.3038(5) 0.2105(4) 0.4461(3)
O6_3 O 0.2574(4) 0.3647(4) 0.4261(2)
O7_3 O 0.0489(5) 0.4827(4) 0.3459(3)
O14_3 O 0.2404(5) 0.5801(4) 0.4399(2)
N2_3 N 0.2166(7) 0.5973(6) 0.5160(3)
C1_3 C 0.0303(9) 0.2450(6) 0.4697(4)
C2_3 C 0.0497(10) 0.2434(9) 0.5306(4)
H2_3 H 0.1069 0.2895 0.5541
C3_3 C 0.0791(12) 0.1475(11) 0.5568(5)
H3_3 H 0.0148 0.1071 0.5367
H4_3 H 0.0936 0.1552 0.5960
C4_3 C 0.1661(14) 0.0905(10) 0.5606(5)
H5_3 H 0.2281 0.1340 0.5762
H6_3 H 0.1469 0.0764 0.5212
C5_3 C 0.2037(12) 0.0011(7) 0.5912(4)
C7_3 C 0.3304(7) 0.2995(7) 0.4507(4)
C8_3 C 0.4468(7) 0.3350(9) 0.4860(5)
H9_3 H 0.4477 0.4063 0.4859
H10_3 H 0.4868 0.3123 0.4680
C9_3 C 0.5014(10) 0.2993(10) 0.5468(6)
H11_3 H 0.5759 0.3215 0.5661
H12_3 H 0.5026 0.2281 0.5460
C10_3 C 0.4566(11) 0.3281(14) 0.5816(7)
H13_3 H 0.4876 0.2845 0.6147
H14_3 H 0.3801 0.3128 0.5593
C11_3 C 0.4646(7) 0.4244(8) 0.6034(4)
H15_3 H 0.4245 0.4686 0.5711
H16_3 H 0.4303 0.4253 0.6265
C26_3 C 0.2102(8) 0.5505(7) 0.4719(4)
H40_3 H 0.1795 0.4882 0.4643
C27_3 C 0.2660(11) 0.6964(10) 0.5287(6)
H41_3 H 0.2834 0.7140 0.4997
H42_3 H 0.2160 0.7433 0.5285
H43_3 H 0.3308 0.6961 0.5659
C28_3 C 0.1815(10) 0.5541(9) 0.5531(5)
H44_3 H 0.1492 0.4911 0.5381
H45_3 H 0.2426 0.5460 0.5914
H46_3 H 0.1294 0.5964 0.5545
O15_2 O 0.6196(5) 0.4642(4) 0.6931(2)
C29_3 C 0.5789(6) 0.4634(6) 0.6399(4)
O22_2 O 0.1405(5) 0.2456(4) 0.3155(3)
O27_2 O 0.0119(4) 0.1332(3) 0.3537(2)
H7_3 H 0.1500 0.9509 0.5699
H8_3 H 0.2689 0.9826 0.5912
C6_3 C 0.2284(7) 0.9990(6) 0.6529(4)
O25_2 O 0.3804(5) 0.9642(4) 0.8069(2)
O1_3 O 0.9357(5) 0.2297(4) 0.4293(2)
O8_3 O 0.9774(4) 0.3395(3) 0.3463(2)
O10_2 O 0.8595(5) 0.7456(4) 0.1845(3)
O11_3 O 0.8138(4) 0.2270(4) 0.2460(2)
O13_3 O 0.7163(5) 0.2915(4) 0.3162(3)
N1_3 N 0.5360(8) 0.2886(8) 0.2618(5)
H1_2 H 0.9845 0.2650 0.5297
C12_3 C 0.9705(6) 0.4314(5) 0.3385(3)
C13_3 C 0.8634(7) 0.4776(6) 0.3203(4)
H17_3 H 0.8123 0.4558 0.2814
H18_3 H 0.8383 0.4531 0.3453
C14_3 C 0.8610(8) 0.5902(6) 0.3213(4)
H19_3 H 0.9251 0.6135 0.3558
H20_3 H 0.7985 0.6112 0.3233
C15_3 C 0.8564(7) 0.6364(5) 0.2692(3)
H21_3 H 0.9222 0.6205 0.2692
H22_3 H 0.7962 0.6086 0.2346
C16_3 C 0.8434(7) 0.7496(5) 0.2678(3)
H23_3 H 0.9045 0.7777 0.3020
H24_3 H 0.7785 0.7656 0.2687
C17_3 C 0.8363(6) 0.7951(5) 0.2148(3)
C18_3 C 0.8260(5) 0.1850(5) 0.2082(3)
C19_3 C 0.8346(6) 0.2423(5) 0.1630(3)
H25_3 H 0.8958 0.2167 0.1611
H26_3 H 0.7703 0.2289 0.1260
C20_3 C 0.8474(6) 0.3531(5) 0.1700(3)
H27_3 H 0.9176 0.3688 0.2030
H28_3 H 0.7924 0.3798 0.1769
C21_3 C 0.8369(7) 0.3988(5) 0.1161(3)
H29_3 H 0.7649 0.3853 0.0841
H30_3 H 0.8879 0.3666 0.1079
C22_3 C 0.8560(6) 0.5081(5) 0.1187(4)
H31_3 H 0.8187 0.5386 0.1362
H32_3 H 0.8230 0.5325 0.0794
C23_3 C 0.6311(8) 0.2549(7) 0.2787(5)
H33_3 H 0.6357 0.1979 0.2610
C24_3 C 0.5228(14) 0.3760(16) 0.2887(9)
H34_3 H 0.5924 0.4040 0.3146
H35_3 H 0.4794 0.4232 0.2594
H36_3 H 0.4878 0.3587 0.3098
C25_3 C 0.4324(11) 0.2384(14) 0.2194(7)
H37_3 H 0.4482 0.1827 0.2030
H38_3 H 0.3955 0.2169 0.2388
H39_3 H 0.3873 0.2836 0.1892
O17_2 O 0.9881(4) 0.6332(3) 0.1463(2)
C30_3 C 0.9714(6) 0.5415(5) 0.1509(3)
Mn14_2 Mn 0.87525(9) 0.75283(7) 0.11042(5)
C14_4 C 0.1390(8) 0.0902(6) 0.1787(4)
H19_4 H 0.0749 0.1135 0.1442
H20_4 H 0.2015 0.1112 0.1767
C15_4 C 0.1436(7) 0.1364(5) 0.2308(3)
H21_4 H 0.0778 0.1205 0.2308
H22_4 H 0.2038 0.1086 0.2654
C16_4 C 0.1566(7) 0.2496(5) 0.2322(3)
H23_4 H 0.0955 0.2777 0.1980
H24_4 H 0.2215 0.2656 0.2313
C17_4 C 0.1637(6) 0.2951(5) 0.2852(3)
C22_4 C 0.1440(6) 0.0081(5) 0.3813(4)
H31_4 H 0.1813 0.0386 0.3638
H32_4 H 0.1770 0.0325 0.4206
C30_4 C 0.0286(6) 0.0415(5) 0.3491(3)
O1_4 O 0.0643(5) 0.7297(4) 0.0707(2)
O8_4 O 0.0226(4) 0.8395(3) 0.1537(2)
O11_4 O 0.1862(4) 0.7270(4) 0.2540(2)
O13_4 O 0.2837(5) 0.7915(4) 0.1838(3)
N1_4 N 0.4640(8) 0.7886(8) 0.2382(5)
C12_4 C 0.0295(6) 0.9314(5) 0.1615(3)
C13_4 C 0.1366(7) 0.9776(6) 0.1797(4)
H17_4 H 0.1877 0.9558 0.2186
H18_4 H 0.1617 0.9531 0.1547
C18_4 C 0.1740(5) 0.6850(5) 0.2918(3)
C19_4 C 0.1654(6) 0.7423(5) 0.3370(3)
H25_4 H 0.1042 0.7167 0.3389
H26_4 H 0.2297 0.7289 0.3740
C20_4 C 0.1526(6) 0.8531(5) 0.3300(3)
H27_4 H 0.0824 0.8688 0.2970
H28_4 H 0.2076 0.8798 0.3231
C21_4 C 0.1631(7) 0.8988(5) 0.3839(3)
H29_4 H 0.2351 0.8853 0.4159
H30_4 H 0.1121 0.8666 0.3921
C23_4 C 0.3689(8) 0.7549(7) 0.2213(5)
H33_4 H 0.3643 0.6979 0.2390
C24_4 C 0.4772(14) 0.8760(16) 0.2113(9)
H34_4 H 0.4076 0.9040 0.1854
H35_4 H 0.5206 0.9232 0.2406
H36_4 H 0.5122 0.8587 0.1902
C25_4 C 0.5676(11) 0.7384(14) 0.2806(7)
H37_4 H 0.5518 0.6827 0.2970
H38_4 H 0.6045 0.7169 0.2612
H39_4 H 0.6127 0.7836 0.3108
O14_4 O 0.7596(5) 0.0801(4) 0.0601(2)
C26_4 C 0.7898(8) 0.0505(7) 0.0281(4)
H41_4 H 0.7166 0.2140 0.0003
N2_4 N 0.7834(7) 0.0973(6) 0.9840(3)
C27_4 C 0.7340(11) 0.1964(10) 0.9713(6)
H42_4 H 0.7840 0.2433 0.9715
H43_4 H 0.6692 0.1961 0.9341
C28_4 C 0.8185(10) 0.0541(9) 0.9469(5)
H45_4 H 0.7574 0.0460 0.9086
H46_4 H 0.8706 0.0964 0.9455
O2_4 O 0.8906(5) 0.7604(5) 0.0360(3)
O5_4 O 0.6962(5) 0.7105(4) 0.0539(3)
O6_4 O 0.7426(4) 0.8647(4) 0.0739(2)
O7_4 O 0.9511(5) 0.9827(4) 0.1541(3)
C1_4 C 0.9697(9) 0.7450(6) 0.0303(4)
C7_4 C 0.6696(7) 0.7995(7) 0.0493(4)
C8_4 C 0.5532(7) 0.8350(9) 0.0140(5)
H9_4 H 0.5523 0.9063 0.0141
H10_4 H 0.5132 0.8123 0.0320
H40_4 H 0.8205 0.9882 0.0357
O4_4 O 0.7473(5) 0.5747(4) 0.8171(2)
C2_4 C 0.9503(10) 0.7434(9) 0.9694(4)
H2_4 H 0.8931 0.7895 0.9459
C3_4 C 0.9209(12) 0.6475(11) 0.9432(5)
H3_4 H 0.9852 0.6071 0.9633
H4_4 H 0.9064 0.6552 0.9040
C4_4 C 0.8339(14) 0.5905(10) 0.9394(5)
H5_4 H 0.7719 0.6340 0.9238
H6_4 H 0.8531 0.5764 0.9788
C5_4 C 0.7963(12) 0.5011(7) 0.9088(4)
H7_4 H 0.8500 0.4509 0.9301
H8_4 H 0.7311 0.4826 0.9088
C6_4 C 0.7716(7) 0.4990(6) 0.8471(4)
C9_4 C 0.4986(10) 0.7993(10) 0.9532(6)
H11_4 H 0.4241 0.8215 0.9339
H12_4 H 0.4974 0.7281 0.9540
C10_4 C 0.5434(11) 0.8281(14) 0.9184(7)
H13_4 H 0.5124 0.7845 0.8853
H14_4 H 0.6199 0.8128 0.9407
C11_4 C 0.5354(7) 0.9244(8) 0.8966(4)
H15_4 H 0.5755 0.9686 0.9289
H16_4 H 0.5697 0.9253 0.8735
H44_4 H 0.8508 0.9911 0.9619
C29_4 C 0.4211(6) 0.9634(6) 0.8601(4)
H1_3 H 0.9845 0.2350 0.0297
H1_4 H 0.0155 0.7650 0.9703
loop_
_geom_bond_atom_site_label_1
_geom_bond_atom_site_label_2
_geom_bond_site_symmetry_1
_geom_bond_site_symmetry_2
Mn1 O1 1_555 1_555
O8 Mn1 1_555 1_555
O9 C17 1_555 1_555
O10 C17 1_555 1_555
O11 Mn1 1_555 1_555
O12 C18 1_555 1_555
O13 Mn1 1_555 1_555
N1 C23 1_555 1_555
C13 C12 1_555 1_555
H17 C13 1_555 1_555
H18 C13 1_555 1_555
C14 C13 1_555 1_555
H19 C14 1_555 1_555
H20 C14 1_555 1_555
C15 C14 1_555 1_555
H21 C15 1_555 1_555
H22 C15 1_555 1_555
C16 C15 1_555 1_555
H23 C16 1_555 1_555
H24 C16 1_555 1_555
C17 C16 1_555 1_555
C18 O11 1_555 1_555
C19 C18 1_555 1_555
H25 C19 1_555 1_555
H26 C19 1_555 1_555
C20 C19 1_555 1_555
H27 C20 1_555 1_555
H28 C20 1_555 1_555
C21 C20 1_555 1_555
H29 C21 1_555 1_555
H30 C21 1_555 1_555
C22 C21 1_555 1_555
H31 C22 1_555 1_555
H32 C22 1_555 1_555
C23 O13 1_555 1_555
H33 C23 1_555 1_555
C24 N1 1_555 1_555
H34 C24 1_555 1_555
H35 C24 1_555 1_555
H36 C24 1_555 1_555
C25 N1 1_555 1_555
H37 C25 1_555 1_555
H38 C25 1_555 1_555
H39 C25 1_555 1_555
O17 C30 1_555 1_555
C30 C22 1_555 1_555
Mn8 O9 1_555 1_555
Mn12 O9 1_555 1_555
Mn14 O10 1_555 1_555
O19 Mn1 1_555 1_555
O8 C12 1_555 1_555
O17 Mn14 1_555 1_555
O3 C6 1_555 1_555
Mn6 O3 1_555 1_555
Mn2 O6 1_555 1_555
Mn4 O2 1_555 1_555
O2 C1 1_555 1_555
O4 Mn3 1_555 1_555
O5 Mn4 1_555 1_555
O6 Mn4 1_555 1_555
O7 Mn2 1_555 1_555
O14 Mn2 1_555 1_555
N2 C26 1_555 1_555
C1 C2 1_555 1_555
H2 C2 1_555 1_555
C3 C2 1_555 1_555
H3 C3 1_555 1_555
H4 C3 1_555 1_555
C4 C3 1_555 1_555
H5 C4 1_555 1_555
H6 C4 1_555 1_555
C5 C4 1_555 1_555
C7 O5 1_555 1_555
C8 C7 1_555 1_555
H9 C8 1_555 1_555
H10 C8 1_555 1_555
C9 C8 1_555 1_555
H11 C9 1_555 1_555
H12 C9 1_555 1_555
C10 C9 1_555 1_555
H13 C10 1_555 1_555
H14 C10 1_555 1_555
C11 C10 1_555 1_555
H15 C11 1_555 1_555
H16 C11 1_555 1_555
C26 O14 1_555 1_555
H40 C26 1_555 1_555
C27 N2 1_555 1_555
H41 C27 1_555 1_555
H42 C27 1_555 1_555
H43 C27 1_555 1_555
C28 N2 1_555 1_555
H44 C28 1_555 1_555
H45 C28 1_555 1_555
H46 C28 1_555 1_555
O15 C29 1_555 1_555
O16 C29 1_555 1_555
C29 C11 1_555 1_555
Mn9 O16 1_555 1_555
Mn10 O15 1_555 1_555
Mn13 O18 1_555 1_555
O20 Mn2 1_555 1_555
O21 Mn3 1_555 1_555
O22 Mn4 1_555 1_555
O23 Mn2 1_555 1_555
O26 Mn2 1_555 1_555
O28 Mn3 1_555 1_555
Mn4 O27 1_555 1_555
O6 C7 1_555 1_555
Mn13 O20 1_555 1_555
Mn13 O23 1_555 1_555
Mn10 O3_2 1_555 1_555
O3_2 C6_2 1_555 1_555
O4_2 Mn10 1_555 1_555
H2_2 C2_2 1_555 1_555
C3_2 C2_2 1_555 1_555
H3_2 C3_2 1_555 1_555
H4_2 C3_2 1_555 1_555
C4_2 C3_2 1_555 1_555
H5_2 C4_2 1_555 1_555
H6_2 C4_2 1_555 1_555
C5_2 C4_2 1_555 1_555
H7_2 C5_2 1_555 1_555
H8_2 C5_2 1_555 1_555
C6_2 O4_2 1_555 1_555
H11_2 C9_2 1_555 1_555
H12_2 C9_2 1_555 1_555
C10_2 C9_2 1_555 1_555
H13_2 C10_2 1_555 1_555
H14_2 C10_2 1_555 1_555
C11_2 C10_2 1_555 1_555
H15_2 C11_2 1_555 1_555
H16_2 C11_2 1_555 1_555
O25 C29_2 1_555 1_555
O16_2 C29_2 1_555 1_555
C29_2 C11_2 1_555 1_555
Mn6_2 O3_2 1_555 1_555
O21_2 Mn10 1_555 1_555
O24_2 Mn10 1_555 1_555
O28_2 Mn10 1_555 1_555
C5_2 C6_2 1_555 1_555
Mn8 O6_2 1_555 1_555
Mn14 O2_2 1_555 1_555
O2_2 C1_2 1_555 1_555
O5_2 Mn14 1_555 1_555
O6_2 Mn14 1_555 1_555
O7_2 Mn8 1_555 1_555
C7_2 O5_2 1_555 1_555
C8_2 C7_2 1_555 1_555
H9_2 C8_2 1_555 1_555
H10_2 C8_2 1_555 1_555
Mn12 O18_2 1_555 1_555
O6_2 C7_2 1_555 1_555
C27_2 N2_2 1_555 1_555
H42_2 C27_2 1_555 1_555
H43_2 C27_2 1_555 1_555
C28_2 N2_2 1_555 1_555
H45_2 C28_2 1_555 1_555
H46_2 C28_2 1_555 1_555
C26_2 O14_2 1_555 1_555
Mn5 O1_2 1_555 1_555
O8_2 Mn5 1_555 1_555
O11_2 Mn5 1_555 1_555
O23 C18_2 1_555 1_555
O13_2 Mn5 1_555 1_555
N1_2 C23_2 1_555 1_555
C13_2 C12_2 1_555 1_555
H17_2 C13_2 1_555 1_555
H18_2 C13_2 1_555 1_555
C18_2 O11_2 1_555 1_555
C19_2 C18_2 1_555 1_555
H25_2 C19_2 1_555 1_555
H26_2 C19_2 1_555 1_555
C20_2 C19_2 1_555 1_555
H27_2 C20_2 1_555 1_555
H28_2 C20_2 1_555 1_555
C21_2 C20_2 1_555 1_555
H29_2 C21_2 1_555 1_555
H30_2 C21_2 1_555 1_555
C23_2 O13_2 1_555 1_555
H33_2 C23_2 1_555 1_555
C24_2 N1_2 1_555 1_555
H34_2 C24_2 1_555 1_555
H35_2 C24_2 1_555 1_555
H36_2 C24_2 1_555 1_555
C25_2 N1_2 1_555 1_555
H37_2 C25_2 1_555 1_555
H38_2 C25_2 1_555 1_555
H39_2 C25_2 1_555 1_555
O19_2 Mn5 1_555 1_555
O8_2 C12_2 1_555 1_555
Mn13 O19_2 1_555 1_555
O20 C17_2 1_555 1_555
O22 C17_2 1_555 1_555
H19_2 C14_2 1_555 1_555
H20_2 C14_2 1_555 1_555
C15_2 C14_2 1_555 1_555
H21_2 C15_2 1_555 1_555
H22_2 C15_2 1_555 1_555
C16_2 C15_2 1_555 1_555
H23_2 C16_2 1_555 1_555
H24_2 C16_2 1_555 1_555
C17_2 C16_2 1_555 1_555
H31_2 C22_2 1_555 1_555
H32_2 C22_2 1_555 1_555
O27 C30_2 1_555 1_555
C30_2 C22_2 1_555 1_555
Mn9 O6_3 1_555 1_555
Mn4_2 O2_3 1_555 1_555
O2_3 C1_3 1_555 1_555
O4_3 Mn12 1_555 1_555
O5_3 Mn4_2 1_555 1_555
O6_3 Mn4_2 1_555 1_555
O7_3 Mn9 1_555 1_555
O14_3 Mn9 1_555 1_555
N2_3 C26_3 1_555 1_555
C1_3 C2_3 1_555 1_555
H2_3 C2_3 1_555 1_555
C3_3 C2_3 1_555 1_555
H3_3 C3_3 1_555 1_555
H4_3 C3_3 1_555 1_555
C4_3 C3_3 1_555 1_555
H5_3 C4_3 1_555 1_555
H6_3 C4_3 1_555 1_555
C5_3 C4_3 1_555 1_555
C7_3 O5_3 1_555 1_555
C8_3 C7_3 1_555 1_555
H9_3 C8_3 1_555 1_555
H10_3 C8_3 1_555 1_555
C9_3 C8_3 1_555 1_555
H11_3 C9_3 1_555 1_555
H12_3 C9_3 1_555 1_555
C10_3 C9_3 1_555 1_555
H13_3 C10_3 1_555 1_555
H14_3 C10_3 1_555 1_555
C11_3 C10_3 1_555 1_555
H15_3 C11_3 1_555 1_555
H16_3 C11_3 1_555 1_555
C26_3 O14_3 1_555 1_555
H40_3 C26_3 1_555 1_555
C27_3 N2_3 1_555 1_555
H41_3 C27_3 1_555 1_555
H42_3 C27_3 1_555 1_555
H43_3 C27_3 1_555 1_555
C28_3 N2_3 1_555 1_555
H44_3 C28_3 1_555 1_555
H45_3 C28_3 1_555 1_555
H46_3 C28_3 1_555 1_555
O15_2 C29_3 1_555 1_555
O26 C29_3 1_555 1_555
C29_3 C11_3 1_555 1_555
Mn13 O15_2 1_555 1_555
O21_2 Mn9 1_555 1_555
O22_2 Mn4_2 1_555 1_555
O24_2 Mn9 1_555 1_555
Mn4_2 O27_2 1_555 1_555
O6_3 C7_3 1_555 1_555
O19 C6_3 1_555 1_555
Mn6 O1_3 1_555 1_555
O8_3 Mn6 1_555 1_555
O21 C17_3 1_555 1_555
O10_2 C17_3 1_555 1_555
O11_3 Mn6 1_555 1_555
O24 C18_3 1_555 1_555
O13_3 Mn6 1_555 1_555
N1_3 C23_3 1_555 1_555
C13_3 C12_3 1_555 1_555
H17_3 C13_3 1_555 1_555
H18_3 C13_3 1_555 1_555
C14_3 C13_3 1_555 1_555
H19_3 C14_3 1_555 1_555
H20_3 C14_3 1_555 1_555
C15_3 C14_3 1_555 1_555
H21_3 C15_3 1_555 1_555
H22_3 C15_3 1_555 1_555
C16_3 C15_3 1_555 1_555
H23_3 C16_3 1_555 1_555
H24_3 C16_3 1_555 1_555
C17_3 C16_3 1_555 1_555
C18_3 O11_3 1_555 1_555
C19_3 C18_3 1_555 1_555
H25_3 C19_3 1_555 1_555
H26_3 C19_3 1_555 1_555
C20_3 C19_3 1_555 1_555
H27_3 C20_3 1_555 1_555
H28_3 C20_3 1_555 1_555
C21_3 C20_3 1_555 1_555
H29_3 C21_3 1_555 1_555
H30_3 C21_3 1_555 1_555
C22_3 C21_3 1_555 1_555
H31_3 C22_3 1_555 1_555
H32_3 C22_3 1_555 1_555
C23_3 O13_3 1_555 1_555
H33_3 C23_3 1_555 1_555
C24_3 N1_3 1_555 1_555
H34_3 C24_3 1_555 1_555
H35_3 C24_3 1_555 1_555
H36_3 C24_3 1_555 1_555
C25_3 N1_3 1_555 1_555
H37_3 C25_3 1_555 1_555
H38_3 C25_3 1_555 1_555
H39_3 C25_3 1_555 1_555
O17_2 C30_3 1_555 1_555
C30_3 C22_3 1_555 1_555
Mn9_2 O21 1_555 1_555
Mn14_2 O10_2 1_555 1_555
O8_3 C12_3 1_555 1_555
O17_2 Mn14_2 1_555 1_555
O21_2 C17_4 1_555 1_555
O22_2 C17_4 1_555 1_555
H19_4 C14_4 1_555 1_555
H20_4 C14_4 1_555 1_555
C15_4 C14_4 1_555 1_555
H21_4 C15_4 1_555 1_555
H22_4 C15_4 1_555 1_555
C16_4 C15_4 1_555 1_555
H23_4 C16_4 1_555 1_555
H24_4 C16_4 1_555 1_555
C17_4 C16_4 1_555 1_555
H31_4 C22_4 1_555 1_555
H32_4 C22_4 1_555 1_555
O27_2 C30_4 1_555 1_555
C30_4 C22_4 1_555 1_555
Mn6_2 O1_4 1_555 1_555
O8_4 Mn6_2 1_555 1_555
O11_4 Mn6_2 1_555 1_555
O24_2 C18_4 1_555 1_555
O13_4 Mn6_2 1_555 1_555
N1_4 C23_4 1_555 1_555
C13_4 C12_4 1_555 1_555
H17_4 C13_4 1_555 1_555
H18_4 C13_4 1_555 1_555
C18_4 O11_4 1_555 1_555
C19_4 C18_4 1_555 1_555
H25_4 C19_4 1_555 1_555
H26_4 C19_4 1_555 1_555
C20_4 C19_4 1_555 1_555
H27_4 C20_4 1_555 1_555
H28_4 C20_4 1_555 1_555
C21_4 C20_4 1_555 1_555
H29_4 C21_4 1_555 1_555
H30_4 C21_4 1_555 1_555
C23_4 O13_4 1_555 1_555
H33_4 C23_4 1_555 1_555
C24_4 N1_4 1_555 1_555
H34_4 C24_4 1_555 1_555
H35_4 C24_4 1_555 1_555
H36_4 C24_4 1_555 1_555
C25_4 N1_4 1_555 1_555
H37_4 C25_4 1_555 1_555
H38_4 C25_4 1_555 1_555
H39_4 C25_4 1_555 1_555
O8_4 C12_4 1_555 1_555
C26_4 O14_4 1_555 1_555
C27_4 N2_4 1_555 1_555
H42_4 C27_4 1_555 1_555
H43_4 C27_4 1_555 1_555
C28_4 N2_4 1_555 1_555
H45_4 C28_4 1_555 1_555
H46_4 C28_4 1_555 1_555
Mn9_2 O6_4 1_555 1_555
Mn14_2 O2_4 1_555 1_555
O2_4 C1_4 1_555 1_555
O5_4 Mn14_2 1_555 1_555
O6_4 Mn14_2 1_555 1_555
O7_4 Mn9_2 1_555 1_555
C7_4 O5_4 1_555 1_555
C8_4 C7_4 1_555 1_555
H9_4 C8_4 1_555 1_555
H10_4 C8_4 1_555 1_555
O6_4 C7_4 1_555 1_555
O19_2 C6_4 1_555 1_555
O4_4 Mn13 1_555 1_555
H2_4 C2_4 1_555 1_555
C3_4 C2_4 1_555 1_555
H3_4 C3_4 1_555 1_555
H4_4 C3_4 1_555 1_555
C4_4 C3_4 1_555 1_555
H5_4 C4_4 1_555 1_555
H6_4 C4_4 1_555 1_555
C5_4 C4_4 1_555 1_555
H7_4 C5_4 1_555 1_555
H8_4 C5_4 1_555 1_555
C6_4 O4_4 1_555 1_555
H11_4 C9_4 1_555 1_555
H12_4 C9_4 1_555 1_555
C10_4 C9_4 1_555 1_555
H13_4 C10_4 1_555 1_555
H14_4 C10_4 1_555 1_555
C11_4 C10_4 1_555 1_555
H15_4 C11_4 1_555 1_555
H16_4 C11_4 1_555 1_555
O25_2 C29_4 1_555 1_555
O26_2 C29_4 1_555 1_555
C29_4 C11_4 1_555 1_555
C5_4 C6_4 1_555 1_555

#END
