
###############################################################################
#
# This file contains modified crystal structure data generated from the
# MOF subset of the Cambridge Structural Database (CSD) v543 
# hosted by the Cambridge Crystallographic Data Centre (CCDC).
#
# This work is licensed under the Creative Commons
# Attribution-NonCommercial-ShareAlike 4.0 International License.
# To view a copy of this license, visit
# http://creativecommons.org/licenses/by-nc-sa/4.0/
# or send a letter to
# Creative Commons, PO Box 1866, Mountain View, CA 94042, USA.
#
# CIF created using the CSD Python API on 29 September 2022
# The structure has been converted into the P1 space group
# The structure has a 3D framework
# The original CSD entry DIRPOL is in the cubic crystal system
# The framework has been calculated to contain at least 10.0% void space
# The void calculation uses a probe of radius 1.32A, grid spacing 0.4
#
###############################################################################

data_DIRPOL
_chemical_formula_moiety         '(C528 H288 N16 O104 Zn32)n'
_symmetry_cell_setting           triclinic
_symmetry_space_group_name_H-M   'P 1'
_symmetry_Int_Tables_number      1
_space_group_name_Hall           'P 1'
loop_
_symmetry_equiv_pos_site_id
_symmetry_equiv_pos_as_xyz
1 x,y,z
_cell_length_a                   27.3095(6)
_cell_length_b                   27.3095(6)
_cell_length_c                   27.3095(6)
_cell_angle_alpha                90
_cell_angle_beta                 90
_cell_angle_gamma                90
_cell_volume                     20367.7
loop_
_atom_site_label
_atom_site_type_symbol
_atom_site_fract_x
_atom_site_fract_y
_atom_site_fract_z
O1 O 0.26426(13) 0.26819(13) 0.13849(12)
O2 O 0.25303(10) 0.25303(10) 0.25303(10)
C1 C 0.30120(17) 0.50569(19) 0.18527(19)
C2 C 0.28355(19) 0.45771(19) 0.19727(18)
H1 H 0.2502 0.4512 0.1954
C3 C 0.31449(18) 0.42215(18) 0.21107(17)
C4 C 0.28737(18) 0.58928(18) 0.15971(19)
H2 H 0.266 0.6143 0.1509
N1 N 0.35494(16) 0.64506(16) 0.14506(16)
C5 C 0.29538(17) 0.37312(18) 0.22533(18)
C6 C 0.36540(19) 0.43173(19) 0.21494(19)
H3 H 0.3866 0.4074 0.2259
C7 C 0.33809(18) 0.59826(17) 0.16024(17)
C8 C 0.26905(19) 0.54404(17) 0.17205(19)
H4 H 0.2354 0.5387 0.1717
C9 C 0.36921(19) 0.56113(18) 0.17331(19)
H5 H 0.4028 0.5667 0.173
C10 C 0.38308(19) 0.47649(19) 0.2026(2)
H6 H 0.4166 0.4823 0.2042
C11 C 0.35149(18) 0.51425(19) 0.18740(17)
O3 O 0.25399(13) 0.35986(13) 0.20872(13)
O4 O 0.32125(13) 0.34736(13) 0.25370(13)
Zn1 Zn 0.23288(2) 0.29185(2) 0.19780(2)
Zn2 Zn 0.29475(2) 0.29475(2) 0.29475(2)
O5 O 0.28744(13) 0.19300(12) 0.16186(13)
C12 C 0.30140(19) 0.25234(19) 0.04364(18)
H7 H 0.2936 0.2844 0.0523
C13 C 0.29692(17) 0.21444(19) 0.07873(19)
C15 C 0.28149(17) 0.22636(19) 0.12989(17)
C17 C 0.32129(18) 0.15510(18) 0.01761(18)
C18 C 0.30595(18) 0.16686(19) 0.0654(2)
H9 H 0.3019 0.142 0.0883
C21 C 0.3303(2) 0.1071(2) 0.0026(2)
H11 H 0.3251 0.0817 0.0247
C45 C 0.49431(19) 0.68527(19) 0.19880(17)
C46 C 0.54229(19) 0.69727(18) 0.21645(19)
H25 H 0.5488 0.6954 0.2498
C47 C 0.57785(18) 0.71107(17) 0.18551(18)
C48 C 0.41072(18) 0.65971(19) 0.21263(18)
H26 H 0.3857 0.6509 0.234
C49 C 0.62688(18) 0.72533(18) 0.20462(17)
C50 C 0.56827(19) 0.71494(19) 0.13460(19)
H27 H 0.5926 0.7259 0.1134
C51 C 0.40174(17) 0.66024(17) 0.16191(18)
C52 C 0.45596(17) 0.67205(19) 0.23095(19)
H28 H 0.4613 0.6717 0.2646
C53 C 0.43887(18) 0.67331(19) 0.13079(19)
H29 H 0.4333 0.673 0.0972
C54 C 0.52351(19) 0.7026(2) 0.11692(19)
H30 H 0.5177 0.7042 0.0834
C55 C 0.48575(19) 0.68740(17) 0.14851(18)
O10 O 0.64014(13) 0.70872(13) 0.24601(13)
O11 O 0.65264(13) 0.75370(13) 0.17875(13)
C56 C 0.31473(19) 0.69880(17) 0.00569(19)
C59 C 0.34029(19) 0.71263(18) 0.08928(18)
H32 H 0.3491 0.734 0.1143
C62 C 0.33976(17) 0.66191(18) 0.09826(17)
C63 C 0.32795(19) 0.73095(19) 0.04404(17)
H34 H 0.3283 0.7646 0.0387
C64 C 0.32669(19) 0.63079(19) 0.06113(18)
H35 H 0.327 0.5972 0.0667
C66 C 0.31260(17) 0.64851(18) 0.01425(19)
Zn3 Zn 0.29185(2) 0.19780(2) 0.23288(2)
Zn4 Zn 0.19780(2) 0.23288(2) 0.29185(2)
O14 O 0.26819(13) 0.13849(12) 0.26426(13)
O15 O 0.13849(12) 0.26426(13) 0.26819(13)
O16 O 0.35986(13) 0.20872(13) 0.25399(13)
O17 O 0.20872(13) 0.25399(13) 0.35986(13)
O18 O 0.34736(13) 0.25370(13) 0.32125(13)
O19 O 0.25370(13) 0.32125(13) 0.34736(13)
Zn7 Zn 0.70815(2) 0.69780(2) 0.26712(2)
Zn12 Zn 0.70525(2) 0.79475(2) 0.20525(2)
O20 O 0.19300(12) 0.16186(13) 0.28744(13)
O21 O 0.16186(13) 0.28744(13) 0.19300(12)
C14 C 0.32737(18) 0.19346(18) 0.98339(19)
C16 C 0.3169(2) 0.24241(19) 0.9978(2)
H8 H 0.3208 0.2678 0.9754
N2 N 0.37585(16) 0.12415(16) 0.87585(16)
C19 C 0.34473(18) 0.18145(19) 0.93556(18)
H10 H 0.3494 0.2063 0.9128
C20 C 0.35455(18) 0.13475(18) 0.92267(17)
C22 C 0.3464(2) 0.0963(2) 0.95674(19)
H12 H 0.352 0.0639 0.9477
C25 C 0.30654(18) 0.01661(19) 0.82737(18)
C27 C 0.25759(19) 0.0022(2) 0.8169(2)
H14 H 0.2322 0.0246 0.8208
C30 C 0.31855(19) 0.06444(18) 0.84473(18)
H16 H 0.2937 0.0872 0.8494
C31 C 0.36525(18) 0.07733(17) 0.85455(18)
C33 C 0.4037(2) 0.04326(19) 0.8464(2)
H18 H 0.4361 0.0523 0.852
O8 O 0.63849(12) 0.23574(13) 0.73181(13)
C34 C 0.54364(18) 0.19860(19) 0.74766(19)
H19 H 0.5523 0.2064 0.7156
C35 C 0.57873(19) 0.20308(17) 0.78556(19)
C36 C 0.48339(19) 0.17263(18) 0.80654(18)
C37 C 0.62989(17) 0.21851(17) 0.77364(19)
C38 C 0.4978(2) 0.1831(2) 0.75759(19)
H20 H 0.4754 0.1792 0.7322
C39 C 0.51761(18) 0.17871(18) 0.84490(18)
C40 C 0.5654(2) 0.19405(18) 0.83314(19)
H21 H 0.5883 0.1981 0.858
C41 C 0.43556(18) 0.15527(18) 0.81855(19)
H22 H 0.4128 0.1506 0.7937
C42 C 0.42267(17) 0.14545(18) 0.86525(18)
C43 C 0.5026(2) 0.1697(2) 0.8929(2)
H23 H 0.5247 0.1749 0.9183
C44 C 0.45674(19) 0.1536(2) 0.9037(2)
H24 H 0.4477 0.148 0.9361
O9 O 0.66186(13) 0.21256(13) 0.80700(12)
C57 C 0.30273(18) 0.71645(19) 0.95771(19)
H31 H 0.3046 0.7498 0.9512
C58 C 0.28893(17) 0.68551(18) 0.92215(18)
C60 C 0.27467(18) 0.70462(17) 0.87312(18)
C61 C 0.28506(19) 0.63460(19) 0.93173(19)
H33 H 0.2741 0.6134 0.9074
C65 C 0.2974(2) 0.61692(19) 0.97649(19)
H36 H 0.2958 0.5834 0.9823
O12 O 0.29128(13) 0.74601(13) 0.85986(13)
O13 O 0.24630(13) 0.67875(13) 0.84736(13)
Zn5 Zn 0.73288(2) 0.20815(2) 0.80220(2)
Zn9 Zn 0.30220(2) 0.76712(2) 0.79185(2)
Zn10 Zn 0.69780(2) 0.26712(2) 0.70815(2)
Zn11 Zn 0.20525(2) 0.70525(2) 0.79475(2)
O6 O 0.23181(13) 0.86151(12) 0.76426(13)
C23 C 0.24766(19) 0.95636(18) 0.80140(19)
H13 H 0.2156 0.9477 0.7936
C24 C 0.28556(19) 0.92127(19) 0.79692(17)
C26 C 0.27364(19) 0.87011(17) 0.78149(17)
C28 C 0.34490(18) 0.98239(18) 0.82129(18)
C29 C 0.33314(19) 0.9346(2) 0.80595(18)
H15 H 0.358 0.9117 0.8019
C32 C 0.3929(2) 0.9974(2) 0.8303(2)
H17 H 0.4183 0.9753 0.8251
O7 O 0.30700(12) 0.83814(13) 0.78744(13)
Zn6 Zn 0.20815(2) 0.80220(2) 0.73288(2)
C23_2 C 0.25234(19) 0.04364(18) 0.30140(19)
H13_2 H 0.2844 0.0523 0.2936
C24_2 C 0.21444(19) 0.07873(19) 0.29692(17)
C26_2 C 0.22636(19) 0.12989(17) 0.28149(17)
C28_2 C 0.15510(18) 0.01761(18) 0.32129(18)
C29_2 C 0.16686(19) 0.0654(2) 0.30595(18)
H15_2 H 0.142 0.0883 0.3019
C32_2 C 0.1071(2) 0.0026(2) 0.3303(2)
H17_2 H 0.0817 0.0247 0.3251
O1_2 O 0.23574(13) 0.73181(13) 0.63849(12)
O2_2 O 0.24697(10) 0.74697(10) 0.75303(10)
C1_2 C 0.19880(17) 0.49431(19) 0.68527(19)
C2_2 C 0.21645(19) 0.54229(19) 0.69727(18)
H1_2 H 0.2498 0.5488 0.6954
C3_2 C 0.18551(18) 0.57785(18) 0.71107(17)
C4_2 C 0.21263(18) 0.41072(18) 0.65971(19)
H2_2 H 0.234 0.3857 0.6509
N1_2 N 0.14506(16) 0.35494(16) 0.64506(16)
C5_2 C 0.20462(17) 0.62688(18) 0.72533(18)
C6_2 C 0.13460(19) 0.56827(19) 0.71494(19)
H3_2 H 0.1134 0.5926 0.7259
C7_2 C 0.16191(18) 0.40174(17) 0.66024(17)
C8_2 C 0.23095(19) 0.45596(17) 0.67205(19)
H4_2 H 0.2646 0.4613 0.6717
C9_2 C 0.13079(19) 0.43887(18) 0.67331(19)
H5_2 H 0.0972 0.4333 0.673
C10_2 C 0.11692(19) 0.52351(19) 0.7026(2)
H6_2 H 0.0834 0.5177 0.7042
C11_2 C 0.14851(18) 0.48575(19) 0.68740(17)
O3_2 O 0.24601(13) 0.64014(13) 0.70872(13)
O4_2 O 0.17875(13) 0.65264(13) 0.75370(13)
Zn1_2 Zn 0.26712(2) 0.70815(2) 0.69780(2)
O5_2 O 0.21256(13) 0.80700(12) 0.66186(13)
C12_2 C 0.19860(19) 0.74766(19) 0.54364(18)
H7_2 H 0.2064 0.7156 0.5523
C13_2 C 0.20308(17) 0.78556(19) 0.57873(19)
C14_2 C 0.17263(18) 0.80654(18) 0.48339(19)
C15_2 C 0.21851(17) 0.77364(19) 0.62989(17)
C16_2 C 0.1831(2) 0.75759(19) 0.4978(2)
H8_2 H 0.1792 0.7322 0.4754
N2_2 N 0.12415(16) 0.87585(16) 0.37585(16)
C17_2 C 0.17871(18) 0.84490(18) 0.51761(18)
C18_2 C 0.19405(18) 0.83314(19) 0.5654(2)
H9_2 H 0.1981 0.858 0.5883
C19_2 C 0.15527(18) 0.81855(19) 0.43556(18)
H10_2 H 0.1506 0.7937 0.4128
C20_2 C 0.14545(18) 0.86525(18) 0.42267(17)
C21_2 C 0.1697(2) 0.8929(2) 0.5026(2)
H11_2 H 0.1749 0.9183 0.5247
C22_2 C 0.1536(2) 0.9037(2) 0.45674(19)
H12_2 H 0.148 0.9361 0.4477
C25_2 C 0.19346(18) 0.98339(19) 0.32737(18)
C27_2 C 0.24241(19) 0.9978(2) 0.3169(2)
H14_2 H 0.2678 0.9754 0.3208
C30_2 C 0.18145(19) 0.93556(18) 0.34473(18)
H16_2 H 0.2063 0.9128 0.3494
C31_2 C 0.13475(18) 0.92267(17) 0.35455(18)
C33_2 C 0.0963(2) 0.95674(19) 0.3464(2)
H18_2 H 0.0639 0.9477 0.352
C36_2 C 0.01661(19) 0.82737(18) 0.30654(18)
C38_2 C 0.0022(2) 0.8169(2) 0.25759(19)
H20_2 H 0.0246 0.8208 0.2322
C41_2 C 0.06444(18) 0.84473(18) 0.31855(19)
H22_2 H 0.0872 0.8494 0.2937
C42_2 C 0.07733(17) 0.85455(18) 0.36525(18)
C44_2 C 0.04326(19) 0.8464(2) 0.4037(2)
H24_2 H 0.0523 0.852 0.4361
C45_2 C 0.00569(19) 0.31473(19) 0.69880(17)
C48_2 C 0.08928(18) 0.34029(19) 0.71263(18)
H26_2 H 0.1143 0.3491 0.734
C51_2 C 0.09826(17) 0.33976(17) 0.66191(18)
C52_2 C 0.04404(17) 0.32795(19) 0.73095(19)
H28_2 H 0.0387 0.3283 0.7646
C53_2 C 0.06113(18) 0.32669(19) 0.63079(19)
H29_2 H 0.0667 0.327 0.5972
C55_2 C 0.01425(19) 0.31260(17) 0.64851(18)
C56_2 C 0.18527(19) 0.30120(17) 0.50569(19)
C57_2 C 0.19727(18) 0.28355(19) 0.45771(19)
H31_2 H 0.1954 0.2502 0.4512
C58_2 C 0.21107(17) 0.31449(18) 0.42215(18)
C59_2 C 0.15971(19) 0.28737(18) 0.58928(18)
H32_2 H 0.1509 0.266 0.6143
C60_2 C 0.22533(18) 0.29538(17) 0.37312(18)
C61_2 C 0.21494(19) 0.36540(19) 0.43173(19)
H33_2 H 0.2259 0.3866 0.4074
C62_2 C 0.16024(17) 0.33809(18) 0.59826(17)
C63_2 C 0.17205(19) 0.26905(19) 0.54404(17)
H34_2 H 0.1717 0.2354 0.5387
C64_2 C 0.17331(19) 0.36921(19) 0.56113(18)
H35_2 H 0.173 0.4028 0.5667
C65_2 C 0.2026(2) 0.38308(19) 0.47649(19)
H36_2 H 0.2042 0.4166 0.4823
C66_2 C 0.18740(17) 0.35149(18) 0.51425(19)
O15_2 O 0.36151(12) 0.73574(13) 0.76819(13)
O16_2 O 0.14014(13) 0.79128(13) 0.75399(13)
O18_2 O 0.15264(13) 0.74630(13) 0.82125(13)
O21_2 O 0.33814(13) 0.71256(13) 0.69300(12)
O8_2 O 0.86151(12) 0.76426(13) 0.23181(13)
C34_2 C 0.95636(18) 0.80140(19) 0.24766(19)
H19_2 H 0.9477 0.7936 0.2156
C35_2 C 0.92127(19) 0.79692(17) 0.28556(19)
C37_2 C 0.87011(17) 0.78149(17) 0.27364(19)
C39_2 C 0.98239(18) 0.82129(18) 0.34490(18)
C40_2 C 0.9346(2) 0.80595(18) 0.33314(19)
H21_2 H 0.9117 0.8019 0.358
C43_2 C 0.9974(2) 0.8303(2) 0.3929(2)
H23_2 H 0.9753 0.8251 0.4183
O9_2 O 0.83814(13) 0.78744(13) 0.30700(12)
C46_2 C 0.95771(19) 0.30273(18) 0.71645(19)
H25_2 H 0.9512 0.3046 0.7498
C47_2 C 0.92215(18) 0.28893(17) 0.68551(18)
C49_2 C 0.87312(18) 0.27467(18) 0.70462(17)
C50_2 C 0.93173(19) 0.28506(19) 0.63460(19)
H27_2 H 0.9074 0.2741 0.6134
C54_2 C 0.97649(19) 0.2974(2) 0.61692(19)
H30_2 H 0.9823 0.2958 0.5834
O10_2 O 0.85986(13) 0.29128(13) 0.74601(13)
O11_2 O 0.84736(13) 0.24630(13) 0.67875(13)
Zn5_2 Zn 0.76712(2) 0.79185(2) 0.30220(2)
Zn7_2 Zn 0.79185(2) 0.30220(2) 0.76712(2)
Zn10_2 Zn 0.80220(2) 0.73288(2) 0.20815(2)
Zn12_2 Zn 0.79475(2) 0.20525(2) 0.70525(2)
C34_3 C 0.04364(18) 0.30140(19) 0.25234(19)
H19_3 H 0.0523 0.2936 0.2844
C35_3 C 0.07873(19) 0.29692(17) 0.21444(19)
C37_3 C 0.12989(17) 0.28149(17) 0.22636(19)
C39_3 C 0.01761(18) 0.32129(18) 0.15510(18)
C40_3 C 0.0654(2) 0.30595(18) 0.16686(19)
H21_3 H 0.0883 0.3019 0.142
C43_3 C 0.0026(2) 0.3303(2) 0.1071(2)
H23_3 H 0.0247 0.3251 0.0817
C46_3 C 0.04229(19) 0.80273(18) 0.78355(19)
H25_3 H 0.0488 0.8046 0.7502
C47_3 C 0.07785(18) 0.78893(17) 0.81449(18)
C49_3 C 0.12688(18) 0.77467(18) 0.79538(17)
C50_3 C 0.06827(19) 0.78506(19) 0.86540(19)
H27_3 H 0.0926 0.7741 0.8866
C54_3 C 0.02351(19) 0.7974(2) 0.88308(19)
H30_3 H 0.0177 0.7958 0.9166
C14_3 C 0.82737(18) 0.30654(18) 0.01661(19)
C16_3 C 0.8169(2) 0.25759(19) 0.0022(2)
H8_3 H 0.8208 0.2322 0.0246
N2_3 N 0.87585(16) 0.37585(16) 0.12415(16)
C19_3 C 0.84473(18) 0.31855(19) 0.06444(18)
H10_3 H 0.8494 0.2937 0.0872
C20_3 C 0.85455(18) 0.36525(18) 0.07733(17)
C22_3 C 0.8464(2) 0.4037(2) 0.04326(19)
H12_3 H 0.852 0.4361 0.0523
O6_2 O 0.73181(13) 0.63849(12) 0.23574(13)
C23_3 C 0.74766(19) 0.54364(18) 0.19860(19)
H13_3 H 0.7156 0.5523 0.2064
C24_3 C 0.78556(19) 0.57873(19) 0.20308(17)
C25_3 C 0.80654(18) 0.48339(19) 0.17263(18)
C26_3 C 0.77364(19) 0.62989(17) 0.21851(17)
C27_3 C 0.75759(19) 0.4978(2) 0.1831(2)
H14_3 H 0.7322 0.4754 0.1792
C28_3 C 0.84490(18) 0.51761(18) 0.17871(18)
C29_3 C 0.83314(19) 0.5654(2) 0.19405(18)
H15_3 H 0.858 0.5883 0.1981
C30_3 C 0.81855(19) 0.43556(18) 0.15527(18)
H16_3 H 0.7937 0.4128 0.1506
C31_3 C 0.86525(18) 0.42267(17) 0.14545(18)
C32_3 C 0.8929(2) 0.5026(2) 0.1697(2)
H17_3 H 0.9183 0.5247 0.1749
C33_3 C 0.9037(2) 0.45674(19) 0.1536(2)
H18_3 H 0.9361 0.4477 0.148
O7_2 O 0.80700(12) 0.66186(13) 0.21256(13)
C36_3 C 0.98339(19) 0.32737(18) 0.19346(18)
C38_3 C 0.9978(2) 0.3169(2) 0.24241(19)
H20_3 H 0.9754 0.3208 0.2678
C41_3 C 0.93556(18) 0.34473(18) 0.18145(19)
H22_3 H 0.9128 0.3494 0.2063
C42_3 C 0.92267(17) 0.35455(18) 0.13475(18)
C44_3 C 0.95674(19) 0.3464(2) 0.0963(2)
H24_3 H 0.9477 0.352 0.0639
O1_3 O 0.76426(13) 0.23181(13) 0.86151(12)
O2_3 O 0.75303(10) 0.24697(10) 0.74697(10)
C2_3 C 0.78355(19) 0.04229(19) 0.80273(18)
H1_3 H 0.7502 0.0488 0.8046
C3_3 C 0.81449(18) 0.07785(18) 0.78893(17)
C5_3 C 0.79538(17) 0.12688(18) 0.77467(18)
C6_3 C 0.86540(19) 0.06827(19) 0.78506(19)
H3_3 H 0.8866 0.0926 0.7741
C10_3 C 0.88308(19) 0.02351(19) 0.7974(2)
H6_3 H 0.9166 0.0177 0.7958
O3_3 O 0.75399(13) 0.14014(13) 0.79128(13)
O4_3 O 0.82125(13) 0.15264(13) 0.74630(13)
O5_3 O 0.78744(13) 0.30700(12) 0.83814(13)
C12_3 C 0.80140(19) 0.24766(19) 0.95636(18)
H7_3 H 0.7936 0.2156 0.9477
C13_3 C 0.79692(17) 0.28556(19) 0.92127(19)
C15_3 C 0.78149(17) 0.27364(19) 0.87011(17)
C17_3 C 0.82129(18) 0.34490(18) 0.98239(18)
C18_3 C 0.80595(18) 0.33314(19) 0.9346(2)
H9_3 H 0.8019 0.358 0.9117
C21_3 C 0.8303(2) 0.3929(2) 0.9974(2)
H11_3 H 0.8251 0.4183 0.9753
O14_2 O 0.76819(13) 0.36151(12) 0.73574(13)
O17_2 O 0.70872(13) 0.24601(13) 0.64014(13)
O19_2 O 0.75370(13) 0.17875(13) 0.65264(13)
O20_2 O 0.69300(12) 0.33814(13) 0.71256(13)
C57_3 C 0.80273(18) 0.78355(19) 0.04229(19)
H31_3 H 0.8046 0.7502 0.0488
C58_3 C 0.78893(17) 0.81449(18) 0.07785(18)
C60_3 C 0.77467(18) 0.79538(17) 0.12688(18)
C61_3 C 0.78506(19) 0.86540(19) 0.06827(19)
H33_3 H 0.7741 0.8866 0.0926
C65_3 C 0.7974(2) 0.88308(19) 0.02351(19)
H36_3 H 0.7958 0.9166 0.0177
O12_2 O 0.79128(13) 0.75399(13) 0.14014(13)
O13_2 O 0.74630(13) 0.82125(13) 0.15264(13)
C1_3 C 0.69880(17) 0.00569(19) 0.31473(19)
C4_3 C 0.71263(18) 0.08928(18) 0.34029(19)
H2_3 H 0.734 0.1143 0.3491
N1_3 N 0.64506(16) 0.14506(16) 0.35494(16)
C7_3 C 0.66191(18) 0.09826(17) 0.33976(17)
C8_3 C 0.73095(19) 0.04404(17) 0.32795(19)
H4_3 H 0.7646 0.0387 0.3283
C9_3 C 0.63079(19) 0.06113(18) 0.32669(19)
H5_3 H 0.5972 0.0667 0.327
C11_3 C 0.64851(18) 0.01425(19) 0.31260(17)
C45_3 C 0.50569(19) 0.18527(19) 0.30120(17)
C46_4 C 0.45771(19) 0.19727(18) 0.28355(19)
H25_4 H 0.4512 0.1954 0.2502
C47_4 C 0.42215(18) 0.21107(17) 0.31449(18)
C48_3 C 0.58928(18) 0.15971(19) 0.28737(18)
H26_3 H 0.6143 0.1509 0.266
C49_4 C 0.37312(18) 0.22533(18) 0.29538(17)
C50_4 C 0.43173(19) 0.21494(19) 0.36540(19)
H27_4 H 0.4074 0.2259 0.3866
C51_3 C 0.59826(17) 0.16024(17) 0.33809(18)
C52_3 C 0.54404(17) 0.17205(19) 0.26905(19)
H28_3 H 0.5387 0.1717 0.2354
C53_3 C 0.56113(18) 0.17331(19) 0.36921(19)
H29_3 H 0.5667 0.173 0.4028
C54_4 C 0.47649(19) 0.2026(2) 0.38308(19)
H30_4 H 0.4823 0.2042 0.4166
C55_3 C 0.51425(19) 0.18740(17) 0.35149(18)
C56_3 C 0.68527(19) 0.19880(17) 0.49431(19)
C57_4 C 0.69727(18) 0.21645(19) 0.54229(19)
H31_4 H 0.6954 0.2498 0.5488
C58_4 C 0.71107(17) 0.18551(18) 0.57785(18)
C59_3 C 0.65971(19) 0.21263(18) 0.41072(18)
H32_3 H 0.6509 0.234 0.3857
C60_4 C 0.72533(18) 0.20462(17) 0.62688(18)
C61_4 C 0.71494(19) 0.13460(19) 0.56827(19)
H33_4 H 0.7259 0.1134 0.5926
C62_3 C 0.66024(17) 0.16191(18) 0.40174(17)
C63_3 C 0.67205(19) 0.23095(19) 0.45596(17)
H34_3 H 0.6717 0.2646 0.4613
C64_3 C 0.67331(19) 0.13079(19) 0.43887(18)
H35_3 H 0.673 0.0972 0.4333
C65_4 C 0.7026(2) 0.11692(19) 0.52351(19)
H36_4 H 0.7042 0.0834 0.5177
C66_3 C 0.68740(17) 0.14851(18) 0.48575(19)
O1_4 O 0.73574(13) 0.76819(13) 0.36151(12)
O2_4 O 0.74697(10) 0.75303(10) 0.24697(10)
C2_4 C 0.71645(19) 0.95771(19) 0.30273(18)
H1_4 H 0.7498 0.9512 0.3046
C3_4 C 0.68551(18) 0.92215(18) 0.28893(17)
C5_4 C 0.70462(17) 0.87312(18) 0.27467(18)
C6_4 C 0.63460(19) 0.93173(19) 0.28506(19)
H3_4 H 0.6134 0.9074 0.2741
C10_4 C 0.61692(19) 0.97649(19) 0.2974(2)
H6_4 H 0.5834 0.9823 0.2958
O3_4 O 0.74601(13) 0.85986(13) 0.29128(13)
O4_4 O 0.67875(13) 0.84736(13) 0.24630(13)
O5_4 O 0.71256(13) 0.69300(12) 0.33814(13)
C12_4 C 0.69860(19) 0.75234(19) 0.45636(18)
H7_4 H 0.7064 0.7844 0.4477
C13_4 C 0.70308(17) 0.71444(19) 0.42127(19)
C14_4 C 0.67263(18) 0.69346(18) 0.51661(19)
C15_4 C 0.71851(17) 0.72636(19) 0.37011(17)
C16_4 C 0.6831(2) 0.74241(19) 0.5022(2)
H8_4 H 0.6792 0.7678 0.5246
N2_4 N 0.62415(16) 0.62415(16) 0.62415(16)
C17_4 C 0.67871(18) 0.65510(18) 0.48239(18)
C18_4 C 0.69405(18) 0.66686(19) 0.4346(2)
H9_4 H 0.6981 0.642 0.4117
C19_4 C 0.65527(18) 0.68145(19) 0.56444(18)
H10_4 H 0.6506 0.7063 0.5872
C20_4 C 0.64545(18) 0.63475(18) 0.57733(17)
C21_4 C 0.6697(2) 0.6071(2) 0.4974(2)
H11_4 H 0.6749 0.5817 0.4753
C22_4 C 0.6536(2) 0.5963(2) 0.54326(19)
H12_4 H 0.648 0.5639 0.5523
C23_4 C 0.75234(19) 0.45636(18) 0.69860(19)
H13_4 H 0.7844 0.4477 0.7064
C24_4 C 0.71444(19) 0.42127(19) 0.70308(17)
C25_4 C 0.69346(18) 0.51661(19) 0.67263(18)
C26_4 C 0.72636(19) 0.37011(17) 0.71851(17)
C27_4 C 0.74241(19) 0.5022(2) 0.6831(2)
H14_4 H 0.7678 0.5246 0.6792
C28_4 C 0.65510(18) 0.48239(18) 0.67871(18)
C29_4 C 0.66686(19) 0.4346(2) 0.69405(18)
H15_4 H 0.642 0.4117 0.6981
C30_4 C 0.68145(19) 0.56444(18) 0.65527(18)
H16_4 H 0.7063 0.5872 0.6506
C31_4 C 0.63475(18) 0.57733(17) 0.64545(18)
C32_4 C 0.6071(2) 0.4974(2) 0.6697(2)
H17_4 H 0.5817 0.4753 0.6749
C33_4 C 0.5963(2) 0.54326(19) 0.6536(2)
H18_4 H 0.5639 0.5523 0.648
C34_4 C 0.45636(18) 0.69860(19) 0.75234(19)
H19_4 H 0.4477 0.7064 0.7844
C35_4 C 0.42127(19) 0.70308(17) 0.71444(19)
C36_4 C 0.51661(19) 0.67263(18) 0.69346(18)
C37_4 C 0.37011(17) 0.71851(17) 0.72636(19)
C38_4 C 0.5022(2) 0.6831(2) 0.74241(19)
H20_4 H 0.5246 0.6792 0.7678
C39_4 C 0.48239(18) 0.67871(18) 0.65510(18)
C40_4 C 0.4346(2) 0.69405(18) 0.66686(19)
H21_4 H 0.4117 0.6981 0.642
C41_4 C 0.56444(18) 0.65527(18) 0.68145(19)
H22_4 H 0.5872 0.6506 0.7063
C42_4 C 0.57733(17) 0.64545(18) 0.63475(18)
C43_4 C 0.4974(2) 0.6697(2) 0.6071(2)
H23_4 H 0.4753 0.6749 0.5817
C44_4 C 0.54326(19) 0.6536(2) 0.5963(2)
H24_4 H 0.5523 0.648 0.5639
C1_4 C 0.80120(17) 0.99431(19) 0.81473(19)
C4_4 C 0.78737(18) 0.91072(18) 0.84029(19)
H2_4 H 0.766 0.8857 0.8491
N1_4 N 0.85494(16) 0.85494(16) 0.85494(16)
C7_4 C 0.83809(18) 0.90174(17) 0.83976(17)
C8_4 C 0.76905(19) 0.95596(17) 0.82795(19)
H4_4 H 0.7354 0.9613 0.8283
C9_4 C 0.86921(19) 0.93887(18) 0.82669(19)
H5_4 H 0.9028 0.9333 0.827
C11_4 C 0.85149(18) 0.98575(19) 0.81260(17)
C45_4 C 0.99431(19) 0.81473(19) 0.80120(17)
C48_4 C 0.91072(18) 0.84029(19) 0.78737(18)
H26_4 H 0.8857 0.8491 0.766
C51_4 C 0.90174(17) 0.83976(17) 0.83809(18)
C52_4 C 0.95596(17) 0.82795(19) 0.76905(19)
H28_4 H 0.9613 0.8283 0.7354
C53_4 C 0.93887(18) 0.82669(19) 0.86921(19)
H29_4 H 0.9333 0.827 0.9028
C55_4 C 0.98575(19) 0.81260(17) 0.85149(18)
C56_4 C 0.81473(19) 0.80120(17) 0.99431(19)
C59_4 C 0.84029(19) 0.78737(18) 0.91072(18)
H32_4 H 0.8491 0.766 0.8857
C62_4 C 0.83976(17) 0.83809(18) 0.90174(17)
C63_4 C 0.82795(19) 0.76905(19) 0.95596(17)
H34_4 H 0.8283 0.7354 0.9613
C64_4 C 0.82669(19) 0.86921(19) 0.93887(18)
H35_4 H 0.827 0.9028 0.9333
C66_4 C 0.81260(17) 0.85149(18) 0.98575(19)
O6_3 O 0.76819(13) 0.13849(12) 0.23574(13)
C23_5 C 0.75234(19) 0.04364(18) 0.19860(19)
H13_5 H 0.7844 0.0523 0.2064
C24_5 C 0.71444(19) 0.07873(19) 0.20308(17)
C26_5 C 0.72636(19) 0.12989(17) 0.21851(17)
C28_5 C 0.65510(18) 0.01761(18) 0.17871(18)
C29_5 C 0.66686(19) 0.0654(2) 0.19405(18)
H15_5 H 0.642 0.0883 0.1981
C32_5 C 0.6071(2) 0.0026(2) 0.1697(2)
H17_5 H 0.5817 0.0247 0.1749
O7_3 O 0.69300(12) 0.16186(13) 0.21256(13)
Zn6_2 Zn 0.79185(2) 0.19780(2) 0.26712(2)
Zn8 Zn 0.69780(2) 0.23288(2) 0.20815(2)
C14_5 C 0.67263(18) 0.80654(18) 0.01661(19)
C16_5 C 0.6831(2) 0.75759(19) 0.0022(2)
H8_5 H 0.6792 0.7322 0.0246
N2_5 N 0.62415(16) 0.87585(16) 0.12415(16)
C19_5 C 0.65527(18) 0.81855(19) 0.06444(18)
H10_5 H 0.6506 0.7937 0.0872
C20_5 C 0.64545(18) 0.86525(18) 0.07733(17)
C22_5 C 0.6536(2) 0.9037(2) 0.04326(19)
H12_5 H 0.648 0.9361 0.0523
C25_5 C 0.69346(18) 0.98339(19) 0.17263(18)
C27_5 C 0.74241(19) 0.9978(2) 0.1831(2)
H14_5 H 0.7678 0.9754 0.1792
C30_5 C 0.68145(19) 0.93556(18) 0.15527(18)
H16_5 H 0.7063 0.9128 0.1506
C31_5 C 0.63475(18) 0.92267(17) 0.14545(18)
C33_5 C 0.5963(2) 0.95674(19) 0.1536(2)
H18_5 H 0.5639 0.9477 0.148
O8_3 O 0.36151(12) 0.76426(13) 0.26819(13)
C34_5 C 0.45636(18) 0.80140(19) 0.25234(19)
H19_5 H 0.4477 0.7936 0.2844
C35_5 C 0.42127(19) 0.79692(17) 0.21444(19)
C36_5 C 0.51661(19) 0.82737(18) 0.19346(18)
C37_5 C 0.37011(17) 0.78149(17) 0.22636(19)
C38_5 C 0.5022(2) 0.8169(2) 0.24241(19)
H20_5 H 0.5246 0.8208 0.2678
C39_5 C 0.48239(18) 0.82129(18) 0.15510(18)
C40_5 C 0.4346(2) 0.80595(18) 0.16686(19)
H21_5 H 0.4117 0.8019 0.142
C41_5 C 0.56444(18) 0.84473(18) 0.18145(19)
H22_5 H 0.5872 0.8494 0.2063
C42_5 C 0.57733(17) 0.85455(18) 0.13475(18)
C43_5 C 0.4974(2) 0.8303(2) 0.1071(2)
H23_5 H 0.4753 0.8251 0.0817
C44_5 C 0.54326(19) 0.8464(2) 0.0963(2)
H24_5 H 0.5523 0.852 0.0639
O9_3 O 0.33814(13) 0.78744(13) 0.19300(12)
C57_5 C 0.69727(18) 0.28355(19) 0.04229(19)
H31_5 H 0.6954 0.2502 0.0488
C58_5 C 0.71107(17) 0.31449(18) 0.07785(18)
C60_5 C 0.72533(18) 0.29538(17) 0.12688(18)
C61_5 C 0.71494(19) 0.36540(19) 0.06827(19)
H33_5 H 0.7259 0.3866 0.0926
C65_5 C 0.7026(2) 0.38308(19) 0.02351(19)
H36_5 H 0.7042 0.4166 0.0177
O12_3 O 0.70872(13) 0.25399(13) 0.14014(13)
O13_3 O 0.75370(13) 0.32125(13) 0.15264(13)
Zn5_3 Zn 0.26712(2) 0.79185(2) 0.19780(2)
Zn10_3 Zn 0.30220(2) 0.73288(2) 0.29185(2)
Zn11_2 Zn 0.79475(2) 0.29475(2) 0.20525(2)
O1_5 O 0.73574(13) 0.73181(13) 0.86151(12)
O2_5 O 0.74697(10) 0.74697(10) 0.74697(10)
C1_5 C 0.69880(17) 0.49431(19) 0.81473(19)
C2_5 C 0.71645(19) 0.54229(19) 0.80273(18)
H1_5 H 0.7498 0.5488 0.8046
C3_5 C 0.68551(18) 0.57785(18) 0.78893(17)
C4_5 C 0.71263(18) 0.41072(18) 0.84029(19)
H2_5 H 0.734 0.3857 0.8491
N1_5 N 0.64506(16) 0.35494(16) 0.85494(16)
C5_5 C 0.70462(17) 0.62688(18) 0.77467(18)
C6_5 C 0.63460(19) 0.56827(19) 0.78506(19)
H3_5 H 0.6134 0.5926 0.7741
C7_5 C 0.66191(18) 0.40174(17) 0.83976(17)
C8_5 C 0.73095(19) 0.45596(17) 0.82795(19)
H4_5 H 0.7646 0.4613 0.8283
C9_5 C 0.63079(19) 0.43887(18) 0.82669(19)
H5_5 H 0.5972 0.4333 0.827
C10_5 C 0.61692(19) 0.52351(19) 0.7974(2)
H6_5 H 0.5834 0.5177 0.7958
C11_5 C 0.64851(18) 0.48575(19) 0.81260(17)
O3_5 O 0.74601(13) 0.64014(13) 0.79128(13)
O4_5 O 0.67875(13) 0.65264(13) 0.74630(13)
Zn1_3 Zn 0.76712(2) 0.70815(2) 0.80220(2)
Zn2_2 Zn 0.70525(2) 0.70525(2) 0.70525(2)
O5_5 O 0.71256(13) 0.80700(12) 0.83814(13)
C12_5 C 0.69860(19) 0.74766(19) 0.95636(18)
H7_5 H 0.7064 0.7156 0.9477
C13_5 C 0.70308(17) 0.78556(19) 0.92127(19)
C15_5 C 0.71851(17) 0.77364(19) 0.87011(17)
C17_5 C 0.67871(18) 0.84490(18) 0.98239(18)
C18_5 C 0.69405(18) 0.83314(19) 0.9346(2)
H9_5 H 0.6981 0.858 0.9117
C21_5 C 0.6697(2) 0.8929(2) 0.9974(2)
H11_5 H 0.6749 0.9183 0.9753
C45_5 C 0.50569(19) 0.31473(19) 0.80120(17)
C46_5 C 0.45771(19) 0.30273(18) 0.78355(19)
H25_5 H 0.4512 0.3046 0.7502
C47_5 C 0.42215(18) 0.28893(17) 0.81449(18)
C48_5 C 0.58928(18) 0.34029(19) 0.78737(18)
H26_5 H 0.6143 0.3491 0.766
C49_5 C 0.37312(18) 0.27467(18) 0.79538(17)
C50_5 C 0.43173(19) 0.28506(19) 0.86540(19)
H27_5 H 0.4074 0.2741 0.8866
C51_5 C 0.59826(17) 0.33976(17) 0.83809(18)
C52_5 C 0.54404(17) 0.32795(19) 0.76905(19)
H28_5 H 0.5387 0.3283 0.7354
C53_5 C 0.56113(18) 0.32669(19) 0.86921(19)
H29_5 H 0.5667 0.327 0.9028
C54_5 C 0.47649(19) 0.2974(2) 0.88308(19)
H30_5 H 0.4823 0.2958 0.9166
C55_5 C 0.51425(19) 0.31260(17) 0.85149(18)
O10_3 O 0.35986(13) 0.29128(13) 0.75399(13)
O11_3 O 0.34736(13) 0.24630(13) 0.82125(13)
C56_5 C 0.68527(19) 0.30120(17) 0.99431(19)
C59_5 C 0.65971(19) 0.28737(18) 0.91072(18)
H32_5 H 0.6509 0.266 0.8857
C62_5 C 0.66024(17) 0.33809(18) 0.90174(17)
C63_5 C 0.67205(19) 0.26905(19) 0.95596(17)
H34_5 H 0.6717 0.2354 0.9613
C64_5 C 0.67331(19) 0.36921(19) 0.93887(18)
H35_5 H 0.673 0.4028 0.9333
C66_5 C 0.68740(17) 0.35149(18) 0.98575(19)
Zn3_2 Zn 0.70815(2) 0.80220(2) 0.76712(2)
Zn4_2 Zn 0.80220(2) 0.76712(2) 0.70815(2)
O14_3 O 0.73181(13) 0.86151(12) 0.73574(13)
O15_3 O 0.86151(12) 0.73574(13) 0.73181(13)
O16_3 O 0.64014(13) 0.79128(13) 0.74601(13)
O17_3 O 0.79128(13) 0.74601(13) 0.64014(13)
O18_3 O 0.65264(13) 0.74630(13) 0.67875(13)
O19_3 O 0.74630(13) 0.67875(13) 0.65264(13)
Zn7_3 Zn 0.29185(2) 0.30220(2) 0.73288(2)
Zn12_3 Zn 0.29475(2) 0.20525(2) 0.79475(2)
O20_3 O 0.80700(12) 0.83814(13) 0.71256(13)
O21_3 O 0.83814(13) 0.71256(13) 0.80700(12)
O8_4 O 0.13849(12) 0.23574(13) 0.76819(13)
C34_6 C 0.04364(18) 0.19860(19) 0.75234(19)
H19_6 H 0.0523 0.2064 0.7844
C35_6 C 0.07873(19) 0.20308(17) 0.71444(19)
C37_6 C 0.12989(17) 0.21851(17) 0.72636(19)
C39_6 C 0.01761(18) 0.17871(18) 0.65510(18)
C40_6 C 0.0654(2) 0.19405(18) 0.66686(19)
H21_6 H 0.0883 0.1981 0.642
C43_6 C 0.0026(2) 0.1697(2) 0.6071(2)
H23_6 H 0.0247 0.1749 0.5817
O9_4 O 0.16186(13) 0.21256(13) 0.69300(12)
C46_6 C 0.04229(19) 0.69727(18) 0.28355(19)
H25_6 H 0.0488 0.6954 0.2502
C47_6 C 0.07785(18) 0.71107(17) 0.31449(18)
C49_6 C 0.12688(18) 0.72533(18) 0.29538(17)
C50_6 C 0.06827(19) 0.71494(19) 0.36540(19)
H27_6 H 0.0926 0.7259 0.3866
C54_6 C 0.02351(19) 0.7026(2) 0.38308(19)
H30_6 H 0.0177 0.7042 0.4166
O10_4 O 0.14014(13) 0.70872(13) 0.25399(13)
O11_4 O 0.15264(13) 0.75370(13) 0.32125(13)
Zn5_4 Zn 0.23288(2) 0.20815(2) 0.69780(2)
Zn7_4 Zn 0.20815(2) 0.69780(2) 0.23288(2)
Zn10_4 Zn 0.19780(2) 0.26712(2) 0.79185(2)
Zn12_4 Zn 0.20525(2) 0.79475(2) 0.29475(2)
O1_6 O 0.76426(13) 0.26819(13) 0.36151(12)
O2_6 O 0.75303(10) 0.25303(10) 0.24697(10)
C1_6 C 0.80120(17) 0.50569(19) 0.31473(19)
C2_6 C 0.78355(19) 0.45771(19) 0.30273(18)
H1_6 H 0.7502 0.4512 0.3046
C3_6 C 0.81449(18) 0.42215(18) 0.28893(17)
C4_6 C 0.78737(18) 0.58928(18) 0.34029(19)
H2_6 H 0.766 0.6143 0.3491
N1_6 N 0.85494(16) 0.64506(16) 0.35494(16)
C5_6 C 0.79538(17) 0.37312(18) 0.27467(18)
C6_6 C 0.86540(19) 0.43173(19) 0.28506(19)
H3_6 H 0.8866 0.4074 0.2741
C7_6 C 0.83809(18) 0.59826(17) 0.33976(17)
C8_6 C 0.76905(19) 0.54404(17) 0.32795(19)
H4_6 H 0.7354 0.5387 0.3283
C9_6 C 0.86921(19) 0.56113(18) 0.32669(19)
H5_6 H 0.9028 0.5667 0.327
C10_6 C 0.88308(19) 0.47649(19) 0.2974(2)
H6_6 H 0.9166 0.4823 0.2958
C11_6 C 0.85149(18) 0.51425(19) 0.31260(17)
O3_6 O 0.75399(13) 0.35986(13) 0.29128(13)
O4_6 O 0.82125(13) 0.34736(13) 0.24630(13)
Zn1_4 Zn 0.73288(2) 0.29185(2) 0.30220(2)
O5_6 O 0.78744(13) 0.19300(12) 0.33814(13)
C12_6 C 0.80140(19) 0.25234(19) 0.45636(18)
H7_6 H 0.7936 0.2844 0.4477
C13_6 C 0.79692(17) 0.21444(19) 0.42127(19)
C14_6 C 0.82737(18) 0.19346(18) 0.51661(19)
C15_6 C 0.78149(17) 0.22636(19) 0.37011(17)
C16_6 C 0.8169(2) 0.24241(19) 0.5022(2)
H8_6 H 0.8208 0.2678 0.5246
N2_6 N 0.87585(16) 0.12415(16) 0.62415(16)
C17_6 C 0.82129(18) 0.15510(18) 0.48239(18)
C18_6 C 0.80595(18) 0.16686(19) 0.4346(2)
H9_6 H 0.8019 0.142 0.4117
C19_6 C 0.84473(18) 0.18145(19) 0.56444(18)
H10_6 H 0.8494 0.2063 0.5872
C20_6 C 0.85455(18) 0.13475(18) 0.57733(17)
C21_6 C 0.8303(2) 0.1071(2) 0.4974(2)
H11_6 H 0.8251 0.0817 0.4753
C22_6 C 0.8464(2) 0.0963(2) 0.54326(19)
H12_6 H 0.852 0.0639 0.5523
C25_6 C 0.80654(18) 0.01661(19) 0.67263(18)
C27_6 C 0.75759(19) 0.0022(2) 0.6831(2)
H14_6 H 0.7322 0.0246 0.6792
C30_6 C 0.81855(19) 0.06444(18) 0.65527(18)
H16_6 H 0.7937 0.0872 0.6506
C31_6 C 0.86525(18) 0.07733(17) 0.64545(18)
C33_6 C 0.9037(2) 0.04326(19) 0.6536(2)
H18_6 H 0.9361 0.0523 0.648
C36_6 C 0.98339(19) 0.17263(18) 0.69346(18)
C38_6 C 0.9978(2) 0.1831(2) 0.74241(19)
H20_6 H 0.9754 0.1792 0.7678
C41_6 C 0.93556(18) 0.15527(18) 0.68145(19)
H22_6 H 0.9128 0.1506 0.7063
C42_6 C 0.92267(17) 0.14545(18) 0.63475(18)
C44_6 C 0.95674(19) 0.1536(2) 0.5963(2)
H24_6 H 0.9477 0.148 0.5639
C45_6 C 0.99431(19) 0.68527(19) 0.30120(17)
C48_6 C 0.91072(18) 0.65971(19) 0.28737(18)
H26_6 H 0.8857 0.6509 0.266
C51_6 C 0.90174(17) 0.66024(17) 0.33809(18)
C52_6 C 0.95596(17) 0.67205(19) 0.26905(19)
H28_6 H 0.9613 0.6717 0.2354
C53_6 C 0.93887(18) 0.67331(19) 0.36921(19)
H29_6 H 0.9333 0.673 0.4028
C55_6 C 0.98575(19) 0.68740(17) 0.35149(18)
C56_6 C 0.81473(19) 0.69880(17) 0.49431(19)
C57_6 C 0.80273(18) 0.71645(19) 0.54229(19)
H31_6 H 0.8046 0.7498 0.5488
C58_6 C 0.78893(17) 0.68551(18) 0.57785(18)
C59_6 C 0.84029(19) 0.71263(18) 0.41072(18)
H32_6 H 0.8491 0.734 0.3857
C60_6 C 0.77467(18) 0.70462(17) 0.62688(18)
C61_6 C 0.78506(19) 0.63460(19) 0.56827(19)
H33_6 H 0.7741 0.6134 0.5926
C62_6 C 0.83976(17) 0.66191(18) 0.40174(17)
C63_6 C 0.82795(19) 0.73095(19) 0.45596(17)
H34_6 H 0.8283 0.7646 0.4613
C64_6 C 0.82669(19) 0.63079(19) 0.43887(18)
H35_6 H 0.827 0.5972 0.4333
C65_6 C 0.7974(2) 0.61692(19) 0.52351(19)
H36_6 H 0.7958 0.5834 0.5177
C66_6 C 0.81260(17) 0.64851(18) 0.48575(19)
O15_4 O 0.63849(12) 0.26426(13) 0.23181(13)
O16_4 O 0.85986(13) 0.20872(13) 0.24601(13)
O18_4 O 0.84736(13) 0.25370(13) 0.17875(13)
O21_4 O 0.66186(13) 0.28744(13) 0.30700(12)
C23_6 C 0.74766(19) 0.95636(18) 0.69860(19)
H13_6 H 0.7156 0.9477 0.7064
C24_6 C 0.78556(19) 0.92127(19) 0.70308(17)
C26_6 C 0.77364(19) 0.87011(17) 0.71851(17)
C28_6 C 0.84490(18) 0.98239(18) 0.67871(18)
C29_6 C 0.83314(19) 0.9346(2) 0.69405(18)
H15_6 H 0.858 0.9117 0.6981
C32_6 C 0.8929(2) 0.9974(2) 0.6697(2)
H17_6 H 0.9183 0.9753 0.6749
C57_7 C 0.19727(18) 0.21645(19) 0.95771(19)
H31_7 H 0.1954 0.2498 0.9512
C58_7 C 0.21107(17) 0.18551(18) 0.92215(18)
C60_7 C 0.22533(18) 0.20462(17) 0.87312(18)
C61_7 C 0.21494(19) 0.13460(19) 0.93173(19)
H33_7 H 0.2259 0.1134 0.9074
C65_7 C 0.2026(2) 0.11692(19) 0.97649(19)
H36_7 H 0.2042 0.0834 0.9823
O12_4 O 0.20872(13) 0.24601(13) 0.85986(13)
O13_4 O 0.25370(13) 0.17875(13) 0.84736(13)
O1_7 O 0.23574(13) 0.76819(13) 0.13849(12)
O2_7 O 0.24697(10) 0.75303(10) 0.25303(10)
C2_7 C 0.21645(19) 0.95771(19) 0.19727(18)
H1_7 H 0.2498 0.9512 0.1954
C3_7 C 0.18551(18) 0.92215(18) 0.21107(17)
C5_7 C 0.20462(17) 0.87312(18) 0.22533(18)
C6_7 C 0.13460(19) 0.93173(19) 0.21494(19)
H3_7 H 0.1134 0.9074 0.2259
C10_7 C 0.11692(19) 0.97649(19) 0.2026(2)
H6_7 H 0.0834 0.9823 0.2042
O3_7 O 0.24601(13) 0.85986(13) 0.20872(13)
O4_7 O 0.17875(13) 0.84736(13) 0.25370(13)
O5_7 O 0.21256(13) 0.69300(12) 0.16186(13)
C12_7 C 0.19860(19) 0.75234(19) 0.04364(18)
H7_7 H 0.2064 0.7844 0.0523
C13_7 C 0.20308(17) 0.71444(19) 0.07873(19)
C15_7 C 0.21851(17) 0.72636(19) 0.12989(17)
C17_7 C 0.17871(18) 0.65510(18) 0.01761(18)
C18_7 C 0.19405(18) 0.66686(19) 0.0654(2)
H9_7 H 0.1981 0.642 0.0883
C21_7 C 0.1697(2) 0.6071(2) 0.0026(2)
H11_7 H 0.1749 0.5817 0.0247
O14_4 O 0.23181(13) 0.63849(12) 0.26426(13)
O17_4 O 0.29128(13) 0.75399(13) 0.35986(13)
O19_4 O 0.24630(13) 0.82125(13) 0.34736(13)
O20_4 O 0.30700(12) 0.66186(13) 0.28744(13)
C14_7 C 0.17263(18) 0.69346(18) 0.98339(19)
C16_7 C 0.1831(2) 0.74241(19) 0.9978(2)
H8_7 H 0.1792 0.7678 0.9754
N2_7 N 0.12415(16) 0.62415(16) 0.87585(16)
C19_7 C 0.15527(18) 0.68145(19) 0.93556(18)
H10_7 H 0.1506 0.7063 0.9128
C20_7 C 0.14545(18) 0.63475(18) 0.92267(17)
C22_7 C 0.1536(2) 0.5963(2) 0.95674(19)
H12_7 H 0.148 0.5639 0.9477
O6_4 O 0.26819(13) 0.36151(12) 0.76426(13)
C23_7 C 0.25234(19) 0.45636(18) 0.80140(19)
H13_7 H 0.2844 0.4477 0.7936
C24_7 C 0.21444(19) 0.42127(19) 0.79692(17)
C25_7 C 0.19346(18) 0.51661(19) 0.82737(18)
C26_7 C 0.22636(19) 0.37011(17) 0.78149(17)
C27_7 C 0.24241(19) 0.5022(2) 0.8169(2)
H14_7 H 0.2678 0.5246 0.8208
C28_7 C 0.15510(18) 0.48239(18) 0.82129(18)
C29_7 C 0.16686(19) 0.4346(2) 0.80595(18)
H15_7 H 0.142 0.4117 0.8019
C30_7 C 0.18145(19) 0.56444(18) 0.84473(18)
H16_7 H 0.2063 0.5872 0.8494
C31_7 C 0.13475(18) 0.57733(17) 0.85455(18)
C32_7 C 0.1071(2) 0.4974(2) 0.8303(2)
H17_7 H 0.0817 0.4753 0.8251
C33_7 C 0.0963(2) 0.54326(19) 0.8464(2)
H18_7 H 0.0639 0.5523 0.852
O7_4 O 0.19300(12) 0.33814(13) 0.78744(13)
C36_7 C 0.01661(19) 0.67263(18) 0.80654(18)
C38_7 C 0.0022(2) 0.6831(2) 0.75759(19)
H20_7 H 0.0246 0.6792 0.7322
C41_7 C 0.06444(18) 0.65527(18) 0.81855(19)
H22_7 H 0.0872 0.6506 0.7937
C42_7 C 0.07733(17) 0.64545(18) 0.86525(18)
C44_7 C 0.04326(19) 0.6536(2) 0.9037(2)
H24_7 H 0.0523 0.648 0.9361
C46_7 C 0.95771(19) 0.19727(18) 0.21645(19)
H25_7 H 0.9512 0.1954 0.2498
C47_7 C 0.92215(18) 0.21107(17) 0.18551(18)
C49_7 C 0.87312(18) 0.22533(18) 0.20462(17)
C50_7 C 0.93173(19) 0.21494(19) 0.13460(19)
H27_7 H 0.9074 0.2259 0.1134
C54_7 C 0.97649(19) 0.2026(2) 0.11692(19)
H30_7 H 0.9823 0.2042 0.0834
C34_7 C 0.95636(18) 0.69860(19) 0.74766(19)
H19_7 H 0.9477 0.7064 0.7156
C35_7 C 0.92127(19) 0.70308(17) 0.78556(19)
C37_7 C 0.87011(17) 0.71851(17) 0.77364(19)
C39_7 C 0.98239(18) 0.67871(18) 0.84490(18)
C40_7 C 0.9346(2) 0.69405(18) 0.83314(19)
H21_7 H 0.9117 0.6981 0.858
C43_7 C 0.9974(2) 0.6697(2) 0.8929(2)
H23_7 H 0.9753 0.6749 0.9183
O1_8 O 0.26426(13) 0.23181(13) 0.63849(12)
O2_8 O 0.25303(10) 0.24697(10) 0.75303(10)
C2_8 C 0.28355(19) 0.04229(19) 0.69727(18)
H1_8 H 0.2502 0.0488 0.6954
C3_8 C 0.31449(18) 0.07785(18) 0.71107(17)
C5_8 C 0.29538(17) 0.12688(18) 0.72533(18)
C6_8 C 0.36540(19) 0.06827(19) 0.71494(19)
H3_8 H 0.3866 0.0926 0.7259
C10_8 C 0.38308(19) 0.02351(19) 0.7026(2)
H6_8 H 0.4166 0.0177 0.7042
O3_8 O 0.25399(13) 0.14014(13) 0.70872(13)
O4_8 O 0.32125(13) 0.15264(13) 0.75370(13)
O5_8 O 0.28744(13) 0.30700(12) 0.66186(13)
C12_8 C 0.30140(19) 0.24766(19) 0.54364(18)
H7_8 H 0.2936 0.2156 0.5523
C13_8 C 0.29692(17) 0.28556(19) 0.57873(19)
C14_8 C 0.32737(18) 0.30654(18) 0.48339(19)
C15_8 C 0.28149(17) 0.27364(19) 0.62989(17)
C16_8 C 0.3169(2) 0.25759(19) 0.4978(2)
H8_8 H 0.3208 0.2322 0.4754
N2_8 N 0.37585(16) 0.37585(16) 0.37585(16)
C17_8 C 0.32129(18) 0.34490(18) 0.51761(18)
C18_8 C 0.30595(18) 0.33314(19) 0.5654(2)
H9_8 H 0.3019 0.358 0.5883
C19_8 C 0.34473(18) 0.31855(19) 0.43556(18)
H10_8 H 0.3494 0.2937 0.4128
C20_8 C 0.35455(18) 0.36525(18) 0.42267(17)
C21_8 C 0.3303(2) 0.3929(2) 0.5026(2)
H11_8 H 0.3251 0.4183 0.5247
C22_8 C 0.3464(2) 0.4037(2) 0.45674(19)
H12_8 H 0.352 0.4361 0.4477
C23_8 C 0.24766(19) 0.54364(18) 0.30140(19)
H13_8 H 0.2156 0.5523 0.2936
C24_8 C 0.28556(19) 0.57873(19) 0.29692(17)
C25_8 C 0.30654(18) 0.48339(19) 0.32737(18)
C26_8 C 0.27364(19) 0.62989(17) 0.28149(17)
C27_8 C 0.25759(19) 0.4978(2) 0.3169(2)
H14_8 H 0.2322 0.4754 0.3208
C28_8 C 0.34490(18) 0.51761(18) 0.32129(18)
C29_8 C 0.33314(19) 0.5654(2) 0.30595(18)
H15_8 H 0.358 0.5883 0.3019
C30_8 C 0.31855(19) 0.43556(18) 0.34473(18)
H16_8 H 0.2937 0.4128 0.3494
C31_8 C 0.36525(18) 0.42267(17) 0.35455(18)
C32_8 C 0.3929(2) 0.5026(2) 0.3303(2)
H17_8 H 0.4183 0.5247 0.3251
C33_8 C 0.4037(2) 0.45674(19) 0.3464(2)
H18_8 H 0.4361 0.4477 0.352
C34_8 C 0.54364(18) 0.30140(19) 0.24766(19)
H19_8 H 0.5523 0.2936 0.2156
C35_8 C 0.57873(19) 0.29692(17) 0.28556(19)
C36_8 C 0.48339(19) 0.32737(18) 0.30654(18)
C37_8 C 0.62989(17) 0.28149(17) 0.27364(19)
C38_8 C 0.4978(2) 0.3169(2) 0.25759(19)
H20_8 H 0.4754 0.3208 0.2322
C39_8 C 0.51761(18) 0.32129(18) 0.34490(18)
C40_8 C 0.5654(2) 0.30595(18) 0.33314(19)
H21_8 H 0.5883 0.3019 0.358
C41_8 C 0.43556(18) 0.34473(18) 0.31855(19)
H22_8 H 0.4128 0.3494 0.2937
C42_8 C 0.42267(17) 0.35455(18) 0.36525(18)
C43_8 C 0.5026(2) 0.3303(2) 0.3929(2)
H23_8 H 0.5247 0.3251 0.4183
C44_8 C 0.45674(19) 0.3464(2) 0.4037(2)
H24_8 H 0.4477 0.352 0.4361
C1_7 C 0.30120(17) 0.99431(19) 0.68527(19)
C4_7 C 0.28737(18) 0.91072(18) 0.65971(19)
H2_7 H 0.266 0.8857 0.6509
N1_7 N 0.35494(16) 0.85494(16) 0.64506(16)
C7_7 C 0.33809(18) 0.90174(17) 0.66024(17)
C8_7 C 0.26905(19) 0.95596(17) 0.67205(19)
H4_7 H 0.2354 0.9613 0.6717
C9_7 C 0.36921(19) 0.93887(18) 0.67331(19)
H5_7 H 0.4028 0.9333 0.673
C11_7 C 0.35149(18) 0.98575(19) 0.68740(17)
C45_7 C 0.49431(19) 0.81473(19) 0.69880(17)
C46_8 C 0.54229(19) 0.80273(18) 0.71645(19)
H25_8 H 0.5488 0.8046 0.7498
C47_8 C 0.57785(18) 0.78893(17) 0.68551(18)
C48_7 C 0.41072(18) 0.84029(19) 0.71263(18)
H26_7 H 0.3857 0.8491 0.734
C49_8 C 0.62688(18) 0.77467(18) 0.70462(17)
C50_8 C 0.56827(19) 0.78506(19) 0.63460(19)
H27_8 H 0.5926 0.7741 0.6134
C51_7 C 0.40174(17) 0.83976(17) 0.66191(18)
C52_7 C 0.45596(17) 0.82795(19) 0.73095(19)
H28_7 H 0.4613 0.8283 0.7646
C53_7 C 0.43887(18) 0.82669(19) 0.63079(19)
H29_7 H 0.4333 0.827 0.5972
C54_8 C 0.52351(19) 0.7974(2) 0.61692(19)
H30_8 H 0.5177 0.7958 0.5834
C55_7 C 0.48575(19) 0.81260(17) 0.64851(18)
C56_7 C 0.31473(19) 0.80120(17) 0.50569(19)
C57_8 C 0.30273(18) 0.78355(19) 0.45771(19)
H31_8 H 0.3046 0.7502 0.4512
C58_8 C 0.28893(17) 0.81449(18) 0.42215(18)
C59_7 C 0.34029(19) 0.78737(18) 0.58928(18)
H32_7 H 0.3491 0.766 0.6143
C60_8 C 0.27467(18) 0.79538(17) 0.37312(18)
C61_8 C 0.28506(19) 0.86540(19) 0.43173(19)
H33_8 H 0.2741 0.8866 0.4074
C62_7 C 0.33976(17) 0.83809(18) 0.59826(17)
C63_7 C 0.32795(19) 0.76905(19) 0.54404(17)
H34_7 H 0.3283 0.7354 0.5387
C64_7 C 0.32669(19) 0.86921(19) 0.56113(18)
H35_7 H 0.327 0.9028 0.5667
C65_8 C 0.2974(2) 0.88308(19) 0.47649(19)
H36_8 H 0.2958 0.9166 0.4823
C66_7 C 0.31260(17) 0.85149(18) 0.51425(19)
C1_8 C 0.19880(17) 0.00569(19) 0.18527(19)
C4_8 C 0.21263(18) 0.08928(18) 0.15971(19)
H2_8 H 0.234 0.1143 0.1509
N1_8 N 0.14506(16) 0.14506(16) 0.14506(16)
C7_8 C 0.16191(18) 0.09826(17) 0.16024(17)
C8_8 C 0.23095(19) 0.04404(17) 0.17205(19)
H4_8 H 0.2646 0.0387 0.1717
C9_8 C 0.13079(19) 0.06113(18) 0.17331(19)
H5_8 H 0.0972 0.0667 0.173
C11_8 C 0.14851(18) 0.01425(19) 0.18740(17)
C45_8 C 0.00569(19) 0.18527(19) 0.19880(17)
C48_8 C 0.08928(18) 0.15971(19) 0.21263(18)
H26_8 H 0.1143 0.1509 0.234
C51_8 C 0.09826(17) 0.16024(17) 0.16191(18)
C52_8 C 0.04404(17) 0.17205(19) 0.23095(19)
H28_8 H 0.0387 0.1717 0.2646
C53_8 C 0.06113(18) 0.17331(19) 0.13079(19)
H29_8 H 0.0667 0.173 0.0972
C55_8 C 0.01425(19) 0.18740(17) 0.14851(18)
C56_8 C 0.18527(19) 0.19880(17) 0.00569(19)
C59_8 C 0.15971(19) 0.21263(18) 0.08928(18)
H32_8 H 0.1509 0.234 0.1143
C62_8 C 0.16024(17) 0.16191(18) 0.09826(17)
C63_8 C 0.17205(19) 0.23095(19) 0.04404(17)
H34_8 H 0.1717 0.2646 0.0387
C64_8 C 0.17331(19) 0.13079(19) 0.06113(18)
H35_8 H 0.173 0.0972 0.0667
C66_8 C 0.18740(17) 0.14851(18) 0.01425(19)
loop_
_geom_bond_atom_site_label_1
_geom_bond_atom_site_label_2
_geom_bond_site_symmetry_1
_geom_bond_site_symmetry_2
O1 Zn1 1_555 1_555
O2 Zn1 1_555 1_555
C1 C2 1_555 1_555
C2 H1 1_555 1_555
C3 C2 1_555 1_555
C4 H2 1_555 1_555
N1 C7 1_555 1_555
C5 C3 1_555 1_555
C6 C3 1_555 1_555
H3 C6 1_555 1_555
C7 C4 1_555 1_555
C8 C1 1_555 1_555
H4 C8 1_555 1_555
C9 C7 1_555 1_555
H5 C9 1_555 1_555
C10 C6 1_555 1_555
H6 C10 1_555 1_555
C11 C1 1_555 1_555
O3 C5 1_555 1_555
O4 C5 1_555 1_555
Zn1 O3 1_555 1_555
Zn2 O2 1_555 1_555
O5 C15 1_555 1_555
C12 H7 1_555 1_555
C13 C12 1_555 1_555
C15 O1 1_555 1_555
C18 C13 1_555 1_555
H9 C18 1_555 1_555
C21 C17 1_555 1_555
H11 C21 1_555 1_555
C45 C46 1_555 1_555
C46 H25 1_555 1_555
C47 C46 1_555 1_555
C48 H26 1_555 1_555
C49 C47 1_555 1_555
C50 C47 1_555 1_555
H27 C50 1_555 1_555
C51 N1 1_555 1_555
C52 C45 1_555 1_555
H28 C52 1_555 1_555
C53 C51 1_555 1_555
H29 C53 1_555 1_555
C54 C50 1_555 1_555
H30 C54 1_555 1_555
C55 C45 1_555 1_555
O10 C49 1_555 1_555
O11 C49 1_555 1_555
C59 H32 1_555 1_555
C62 N1 1_555 1_555
C63 C56 1_555 1_555
H34 C63 1_555 1_555
C64 C62 1_555 1_555
H35 C64 1_555 1_555
C66 C56 1_555 1_555
Zn3 O2 1_555 1_555
Zn4 O2 1_555 1_555
O14 Zn3 1_555 1_555
O15 Zn4 1_555 1_555
O16 Zn3 1_555 1_555
O17 Zn4 1_555 1_555
O18 Zn2 1_555 1_555
O19 Zn2 1_555 1_555
Zn7 O10 1_555 1_555
Zn12 O11 1_555 1_555
O20 Zn4 1_555 1_555
O21 Zn1 1_555 1_555
C4 C8 1_555 1_555
C9 C11 1_555 1_555
C10 C11 1_555 1_555
O4 Zn2 1_555 1_555
O5 Zn3 1_555 1_555
C13 C15 1_555 1_555
C17 C18 1_555 1_555
C48 C51 1_555 1_555
C48 C52 1_555 1_555
C53 C55 1_555 1_555
C54 C55 1_555 1_555
C59 C62 1_555 1_555
C59 C63 1_555 1_555
C64 C66 1_555 1_555
C14 C16 1_555 1_555
H8 C16 1_555 1_555
N2 C20 1_555 1_555
C19 C14 1_555 1_555
H10 C19 1_555 1_555
C20 C19 1_555 1_555
C22 C20 1_555 1_555
H12 C22 1_555 1_555
C25 C27 1_555 1_555
H14 C27 1_555 1_555
C30 C25 1_555 1_555
H16 C30 1_555 1_555
C31 N2 1_555 1_555
C33 C31 1_555 1_555
H18 C33 1_555 1_555
O8 C37 1_555 1_555
C34 H19 1_555 1_555
C35 C34 1_555 1_555
C36 C38 1_555 1_555
C37 C35 1_555 1_555
C38 C34 1_555 1_555
H20 C38 1_555 1_555
C39 C36 1_555 1_555
C40 C35 1_555 1_555
H21 C40 1_555 1_555
C41 C36 1_555 1_555
H22 C41 1_555 1_555
C42 N2 1_555 1_555
C43 C39 1_555 1_555
H23 C43 1_555 1_555
C44 C42 1_555 1_555
H24 C44 1_555 1_555
O9 C37 1_555 1_555
C57 H31 1_555 1_555
C58 C57 1_555 1_555
C60 C58 1_555 1_555
C61 C58 1_555 1_555
H33 C61 1_555 1_555
C65 C61 1_555 1_555
H36 C65 1_555 1_555
O12 C60 1_555 1_555
O13 C60 1_555 1_555
Zn5 O9 1_555 1_555
Zn9 O12 1_555 1_555
Zn10 O8 1_555 1_555
Zn11 O13 1_555 1_555
C30 C31 1_555 1_555
C39 C40 1_555 1_555
C41 C42 1_555 1_555
C43 C44 1_555 1_555
O6 C26 1_555 1_555
C23 H13 1_555 1_555
C24 C23 1_555 1_555
C26 C24 1_555 1_555
C29 C24 1_555 1_555
H15 C29 1_555 1_555
C32 C28 1_555 1_555
H17 C32 1_555 1_555
O7 C26 1_555 1_555
Zn6 O6 1_555 1_555
Zn9 O7 1_555 1_555
C28 C29 1_555 1_555
O14 C26_2 1_555 1_555
C23_2 H13_2 1_555 1_555
C24_2 C23_2 1_555 1_555
C26_2 C24_2 1_555 1_555
C29_2 C24_2 1_555 1_555
H15_2 C29_2 1_555 1_555
C32_2 C28_2 1_555 1_555
H17_2 C32_2 1_555 1_555
O20 C26_2 1_555 1_555
C28_2 C29_2 1_555 1_555
O1_2 Zn1_2 1_555 1_555
O2_2 Zn1_2 1_555 1_555
C1_2 C2_2 1_555 1_555
C2_2 H1_2 1_555 1_555
C3_2 C2_2 1_555 1_555
C4_2 H2_2 1_555 1_555
N1_2 C7_2 1_555 1_555
C5_2 C3_2 1_555 1_555
C6_2 C3_2 1_555 1_555
H3_2 C6_2 1_555 1_555
C7_2 C4_2 1_555 1_555
C8_2 C1_2 1_555 1_555
H4_2 C8_2 1_555 1_555
C9_2 C7_2 1_555 1_555
H5_2 C9_2 1_555 1_555
C10_2 C6_2 1_555 1_555
H6_2 C10_2 1_555 1_555
C11_2 C1_2 1_555 1_555
O3_2 C5_2 1_555 1_555
O4_2 C5_2 1_555 1_555
Zn1_2 O3_2 1_555 1_555
Zn11 O2_2 1_555 1_555
O5_2 C15_2 1_555 1_555
C12_2 H7_2 1_555 1_555
C13_2 C12_2 1_555 1_555
C14_2 C16_2 1_555 1_555
C15_2 O1_2 1_555 1_555
C16_2 C12_2 1_555 1_555
H8_2 C16_2 1_555 1_555
N2_2 C20_2 1_555 1_555
C17_2 C14_2 1_555 1_555
C18_2 C13_2 1_555 1_555
H9_2 C18_2 1_555 1_555
C19_2 C14_2 1_555 1_555
H10_2 C19_2 1_555 1_555
C20_2 C19_2 1_555 1_555
C21_2 C17_2 1_555 1_555
H11_2 C21_2 1_555 1_555
C22_2 C20_2 1_555 1_555
H12_2 C22_2 1_555 1_555
C25_2 C27_2 1_555 1_555
H14_2 C27_2 1_555 1_555
C30_2 C25_2 1_555 1_555
H16_2 C30_2 1_555 1_555
C31_2 N2_2 1_555 1_555
C33_2 C31_2 1_555 1_555
H18_2 C33_2 1_555 1_555
C36_2 C38_2 1_555 1_555
H20_2 C38_2 1_555 1_555
C41_2 C36_2 1_555 1_555
H22_2 C41_2 1_555 1_555
C42_2 N2_2 1_555 1_555
C44_2 C42_2 1_555 1_555
H24_2 C44_2 1_555 1_555
C48_2 H26_2 1_555 1_555
C51_2 N1_2 1_555 1_555
C52_2 C45_2 1_555 1_555
H28_2 C52_2 1_555 1_555
C53_2 C51_2 1_555 1_555
H29_2 C53_2 1_555 1_555
C55_2 C45_2 1_555 1_555
C56_2 C57_2 1_555 1_555
C57_2 H31_2 1_555 1_555
C58_2 C57_2 1_555 1_555
C59_2 H32_2 1_555 1_555
C60_2 C58_2 1_555 1_555
C61_2 C58_2 1_555 1_555
H33_2 C61_2 1_555 1_555
C62_2 N1_2 1_555 1_555
C63_2 C56_2 1_555 1_555
H34_2 C63_2 1_555 1_555
C64_2 C62_2 1_555 1_555
H35_2 C64_2 1_555 1_555
C65_2 C61_2 1_555 1_555
H36_2 C65_2 1_555 1_555
C66_2 C56_2 1_555 1_555
O17 C60_2 1_555 1_555
O19 C60_2 1_555 1_555
Zn6 O2_2 1_555 1_555
Zn9 O2_2 1_555 1_555
O15_2 Zn9 1_555 1_555
O16_2 Zn6 1_555 1_555
O18_2 Zn11 1_555 1_555
O21_2 Zn1_2 1_555 1_555
C4_2 C8_2 1_555 1_555
C9_2 C11_2 1_555 1_555
C10_2 C11_2 1_555 1_555
O4_2 Zn11 1_555 1_555
O5_2 Zn6 1_555 1_555
C13_2 C15_2 1_555 1_555
C17_2 C18_2 1_555 1_555
C21_2 C22_2 1_555 1_555
C30_2 C31_2 1_555 1_555
C41_2 C42_2 1_555 1_555
C48_2 C51_2 1_555 1_555
C48_2 C52_2 1_555 1_555
C53_2 C55_2 1_555 1_555
C59_2 C62_2 1_555 1_555
C59_2 C63_2 1_555 1_555
C64_2 C66_2 1_555 1_555
C65_2 C66_2 1_555 1_555
O8_2 C37_2 1_555 1_555
C34_2 H19_2 1_555 1_555
C35_2 C34_2 1_555 1_555
C37_2 C35_2 1_555 1_555
C40_2 C35_2 1_555 1_555
H21_2 C40_2 1_555 1_555
C43_2 C39_2 1_555 1_555
H23_2 C43_2 1_555 1_555
O9_2 C37_2 1_555 1_555
C46_2 H25_2 1_555 1_555
C47_2 C46_2 1_555 1_555
C49_2 C47_2 1_555 1_555
C50_2 C47_2 1_555 1_555
H27_2 C50_2 1_555 1_555
C54_2 C50_2 1_555 1_555
H30_2 C54_2 1_555 1_555
O10_2 C49_2 1_555 1_555
O11_2 C49_2 1_555 1_555
Zn5_2 O9_2 1_555 1_555
Zn7_2 O10_2 1_555 1_555
Zn10_2 O8_2 1_555 1_555
Zn12_2 O11_2 1_555 1_555
C39_2 C40_2 1_555 1_555
O15 C37_3 1_555 1_555
C34_3 H19_3 1_555 1_555
C35_3 C34_3 1_555 1_555
C37_3 C35_3 1_555 1_555
C40_3 C35_3 1_555 1_555
H21_3 C40_3 1_555 1_555
C43_3 C39_3 1_555 1_555
H23_3 C43_3 1_555 1_555
O21 C37_3 1_555 1_555
C39_3 C40_3 1_555 1_555
C46_3 H25_3 1_555 1_555
C47_3 C46_3 1_555 1_555
C49_3 C47_3 1_555 1_555
C50_3 C47_3 1_555 1_555
H27_3 C50_3 1_555 1_555
C54_3 C50_3 1_555 1_555
H30_3 C54_3 1_555 1_555
O16_2 C49_3 1_555 1_555
O18_2 C49_3 1_555 1_555
C14_3 C16_3 1_555 1_555
H8_3 C16_3 1_555 1_555
N2_3 C20_3 1_555 1_555
C19_3 C14_3 1_555 1_555
H10_3 C19_3 1_555 1_555
C20_3 C19_3 1_555 1_555
C22_3 C20_3 1_555 1_555
H12_3 C22_3 1_555 1_555
O6_2 C26_3 1_555 1_555
C23_3 H13_3 1_555 1_555
C24_3 C23_3 1_555 1_555
C25_3 C27_3 1_555 1_555
C26_3 C24_3 1_555 1_555
C27_3 C23_3 1_555 1_555
H14_3 C27_3 1_555 1_555
C28_3 C25_3 1_555 1_555
C29_3 C24_3 1_555 1_555
H15_3 C29_3 1_555 1_555
C30_3 C25_3 1_555 1_555
H16_3 C30_3 1_555 1_555
C31_3 N2_3 1_555 1_555
C32_3 C28_3 1_555 1_555
H17_3 C32_3 1_555 1_555
C33_3 C31_3 1_555 1_555
H18_3 C33_3 1_555 1_555
O7_2 C26_3 1_555 1_555
C36_3 C38_3 1_555 1_555
H20_3 C38_3 1_555 1_555
C41_3 C36_3 1_555 1_555
H22_3 C41_3 1_555 1_555
C42_3 N2_3 1_555 1_555
C44_3 C42_3 1_555 1_555
H24_3 C44_3 1_555 1_555
Zn7 O6_2 1_555 1_555
Zn10_2 O7_2 1_555 1_555
C28_3 C29_3 1_555 1_555
C30_3 C31_3 1_555 1_555
C32_3 C33_3 1_555 1_555
C41_3 C42_3 1_555 1_555
O1_3 Zn5 1_555 1_555
O2_3 Zn5 1_555 1_555
C2_3 H1_3 1_555 1_555
C3_3 C2_3 1_555 1_555
C5_3 C3_3 1_555 1_555
C6_3 C3_3 1_555 1_555
H3_3 C6_3 1_555 1_555
C10_3 C6_3 1_555 1_555
H6_3 C10_3 1_555 1_555
O3_3 C5_3 1_555 1_555
O4_3 C5_3 1_555 1_555
Zn5 O3_3 1_555 1_555
Zn12_2 O2_3 1_555 1_555
O5_3 C15_3 1_555 1_555
C12_3 H7_3 1_555 1_555
C13_3 C12_3 1_555 1_555
C15_3 O1_3 1_555 1_555
C18_3 C13_3 1_555 1_555
H9_3 C18_3 1_555 1_555
C21_3 C17_3 1_555 1_555
H11_3 C21_3 1_555 1_555
Zn7_2 O2_3 1_555 1_555
Zn10 O2_3 1_555 1_555
O14_2 Zn7_2 1_555 1_555
O17_2 Zn10 1_555 1_555
O19_2 Zn12_2 1_555 1_555
O20_2 Zn10 1_555 1_555
O4_3 Zn12_2 1_555 1_555
O5_3 Zn7_2 1_555 1_555
C13_3 C15_3 1_555 1_555
C17_3 C18_3 1_555 1_555
C57_3 H31_3 1_555 1_555
C58_3 C57_3 1_555 1_555
C60_3 C58_3 1_555 1_555
C61_3 C58_3 1_555 1_555
H33_3 C61_3 1_555 1_555
C65_3 C61_3 1_555 1_555
H36_3 C65_3 1_555 1_555
O12_2 C60_3 1_555 1_555
O13_2 C60_3 1_555 1_555
Zn10_2 O12_2 1_555 1_555
Zn12 O13_2 1_555 1_555
C4_3 H2_3 1_555 1_555
N1_3 C7_3 1_555 1_555
C7_3 C4_3 1_555 1_555
C8_3 C1_3 1_555 1_555
H4_3 C8_3 1_555 1_555
C9_3 C7_3 1_555 1_555
H5_3 C9_3 1_555 1_555
C11_3 C1_3 1_555 1_555
C45_3 C46_4 1_555 1_555
C46_4 H25_4 1_555 1_555
C47_4 C46_4 1_555 1_555
C48_3 H26_3 1_555 1_555
C49_4 C47_4 1_555 1_555
C50_4 C47_4 1_555 1_555
H27_4 C50_4 1_555 1_555
C51_3 N1_3 1_555 1_555
C52_3 C45_3 1_555 1_555
H28_3 C52_3 1_555 1_555
C53_3 C51_3 1_555 1_555
H29_3 C53_3 1_555 1_555
C54_4 C50_4 1_555 1_555
H30_4 C54_4 1_555 1_555
C55_3 C45_3 1_555 1_555
O16 C49_4 1_555 1_555
O18 C49_4 1_555 1_555
C56_3 C57_4 1_555 1_555
C57_4 H31_4 1_555 1_555
C58_4 C57_4 1_555 1_555
C59_3 H32_3 1_555 1_555
C60_4 C58_4 1_555 1_555
C61_4 C58_4 1_555 1_555
H33_4 C61_4 1_555 1_555
C62_3 N1_3 1_555 1_555
C63_3 C56_3 1_555 1_555
H34_3 C63_3 1_555 1_555
C64_3 C62_3 1_555 1_555
H35_3 C64_3 1_555 1_555
C65_4 C61_4 1_555 1_555
H36_4 C65_4 1_555 1_555
C66_3 C56_3 1_555 1_555
O17_2 C60_4 1_555 1_555
O19_2 C60_4 1_555 1_555
C4_3 C8_3 1_555 1_555
C9_3 C11_3 1_555 1_555
C48_3 C51_3 1_555 1_555
C48_3 C52_3 1_555 1_555
C53_3 C55_3 1_555 1_555
C54_4 C55_3 1_555 1_555
C59_3 C62_3 1_555 1_555
C59_3 C63_3 1_555 1_555
C64_3 C66_3 1_555 1_555
C65_4 C66_3 1_555 1_555
O1_4 Zn5_2 1_555 1_555
O2_4 Zn5_2 1_555 1_555
C2_4 H1_4 1_555 1_555
C3_4 C2_4 1_555 1_555
C5_4 C3_4 1_555 1_555
C6_4 C3_4 1_555 1_555
H3_4 C6_4 1_555 1_555
C10_4 C6_4 1_555 1_555
H6_4 C10_4 1_555 1_555
O3_4 C5_4 1_555 1_555
O4_4 C5_4 1_555 1_555
Zn5_2 O3_4 1_555 1_555
Zn12 O2_4 1_555 1_555
O5_4 C15_4 1_555 1_555
C12_4 H7_4 1_555 1_555
C13_4 C12_4 1_555 1_555
C14_4 C16_4 1_555 1_555
C15_4 O1_4 1_555 1_555
C16_4 C12_4 1_555 1_555
H8_4 C16_4 1_555 1_555
N2_4 C20_4 1_555 1_555
C17_4 C14_4 1_555 1_555
C18_4 C13_4 1_555 1_555
H9_4 C18_4 1_555 1_555
C19_4 C14_4 1_555 1_555
H10_4 C19_4 1_555 1_555
C20_4 C19_4 1_555 1_555
C21_4 C17_4 1_555 1_555
H11_4 C21_4 1_555 1_555
C22_4 C20_4 1_555 1_555
H12_4 C22_4 1_555 1_555
O14_2 C26_4 1_555 1_555
C23_4 H13_4 1_555 1_555
C24_4 C23_4 1_555 1_555
C25_4 C27_4 1_555 1_555
C26_4 C24_4 1_555 1_555
C27_4 C23_4 1_555 1_555
H14_4 C27_4 1_555 1_555
C28_4 C25_4 1_555 1_555
C29_4 C24_4 1_555 1_555
H15_4 C29_4 1_555 1_555
C30_4 C25_4 1_555 1_555
H16_4 C30_4 1_555 1_555
C31_4 N2_4 1_555 1_555
C32_4 C28_4 1_555 1_555
H17_4 C32_4 1_555 1_555
C33_4 C31_4 1_555 1_555
H18_4 C33_4 1_555 1_555
O20_2 C26_4 1_555 1_555
O15_2 C37_4 1_555 1_555
C34_4 H19_4 1_555 1_555
C35_4 C34_4 1_555 1_555
C36_4 C38_4 1_555 1_555
C37_4 C35_4 1_555 1_555
C38_4 C34_4 1_555 1_555
H20_4 C38_4 1_555 1_555
C39_4 C36_4 1_555 1_555
C40_4 C35_4 1_555 1_555
H21_4 C40_4 1_555 1_555
C41_4 C36_4 1_555 1_555
H22_4 C41_4 1_555 1_555
C42_4 N2_4 1_555 1_555
C43_4 C39_4 1_555 1_555
H23_4 C43_4 1_555 1_555
C44_4 C42_4 1_555 1_555
H24_4 C44_4 1_555 1_555
O21_2 C37_4 1_555 1_555
Zn7 O2_4 1_555 1_555
Zn10_2 O2_4 1_555 1_555
O4_4 Zn12 1_555 1_555
O5_4 Zn7 1_555 1_555
C13_4 C15_4 1_555 1_555
C17_4 C18_4 1_555 1_555
C21_4 C22_4 1_555 1_555
C28_4 C29_4 1_555 1_555
C30_4 C31_4 1_555 1_555
C32_4 C33_4 1_555 1_555
C39_4 C40_4 1_555 1_555
C41_4 C42_4 1_555 1_555
C43_4 C44_4 1_555 1_555
C4_4 H2_4 1_555 1_555
N1_4 C7_4 1_555 1_555
C7_4 C4_4 1_555 1_555
C8_4 C1_4 1_555 1_555
H4_4 C8_4 1_555 1_555
C9_4 C7_4 1_555 1_555
H5_4 C9_4 1_555 1_555
C11_4 C1_4 1_555 1_555
C48_4 H26_4 1_555 1_555
C51_4 N1_4 1_555 1_555
C52_4 C45_4 1_555 1_555
H28_4 C52_4 1_555 1_555
C53_4 C51_4 1_555 1_555
H29_4 C53_4 1_555 1_555
C55_4 C45_4 1_555 1_555
C59_4 H32_4 1_555 1_555
C62_4 N1_4 1_555 1_555
C63_4 C56_4 1_555 1_555
H34_4 C63_4 1_555 1_555
C64_4 C62_4 1_555 1_555
H35_4 C64_4 1_555 1_555
C66_4 C56_4 1_555 1_555
C4_4 C8_4 1_555 1_555
C9_4 C11_4 1_555 1_555
C48_4 C51_4 1_555 1_555
C48_4 C52_4 1_555 1_555
C53_4 C55_4 1_555 1_555
C59_4 C62_4 1_555 1_555
C59_4 C63_4 1_555 1_555
C64_4 C66_4 1_555 1_555
O6_3 C26_5 1_555 1_555
C23_5 H13_5 1_555 1_555
C24_5 C23_5 1_555 1_555
C26_5 C24_5 1_555 1_555
C29_5 C24_5 1_555 1_555
H15_5 C29_5 1_555 1_555
C32_5 C28_5 1_555 1_555
H17_5 C32_5 1_555 1_555
O7_3 C26_5 1_555 1_555
Zn6_2 O6_3 1_555 1_555
Zn8 O7_3 1_555 1_555
C28_5 C29_5 1_555 1_555
C14_5 C16_5 1_555 1_555
H8_5 C16_5 1_555 1_555
N2_5 C20_5 1_555 1_555
C19_5 C14_5 1_555 1_555
H10_5 C19_5 1_555 1_555
C20_5 C19_5 1_555 1_555
C22_5 C20_5 1_555 1_555
H12_5 C22_5 1_555 1_555
C25_5 C27_5 1_555 1_555
H14_5 C27_5 1_555 1_555
C30_5 C25_5 1_555 1_555
H16_5 C30_5 1_555 1_555
C31_5 N2_5 1_555 1_555
C33_5 C31_5 1_555 1_555
H18_5 C33_5 1_555 1_555
O8_3 C37_5 1_555 1_555
C34_5 H19_5 1_555 1_555
C35_5 C34_5 1_555 1_555
C36_5 C38_5 1_555 1_555
C37_5 C35_5 1_555 1_555
C38_5 C34_5 1_555 1_555
H20_5 C38_5 1_555 1_555
C39_5 C36_5 1_555 1_555
C40_5 C35_5 1_555 1_555
H21_5 C40_5 1_555 1_555
C41_5 C36_5 1_555 1_555
H22_5 C41_5 1_555 1_555
C42_5 N2_5 1_555 1_555
C43_5 C39_5 1_555 1_555
H23_5 C43_5 1_555 1_555
C44_5 C42_5 1_555 1_555
H24_5 C44_5 1_555 1_555
O9_3 C37_5 1_555 1_555
C57_5 H31_5 1_555 1_555
C58_5 C57_5 1_555 1_555
C60_5 C58_5 1_555 1_555
C61_5 C58_5 1_555 1_555
H33_5 C61_5 1_555 1_555
C65_5 C61_5 1_555 1_555
H36_5 C65_5 1_555 1_555
O12_3 C60_5 1_555 1_555
O13_3 C60_5 1_555 1_555
Zn5_3 O9_3 1_555 1_555
Zn8 O12_3 1_555 1_555
Zn10_3 O8_3 1_555 1_555
Zn11_2 O13_3 1_555 1_555
C30_5 C31_5 1_555 1_555
C39_5 C40_5 1_555 1_555
C41_5 C42_5 1_555 1_555
C43_5 C44_5 1_555 1_555
O1_5 Zn1_3 1_555 1_555
O2_5 Zn1_3 1_555 1_555
C1_5 C2_5 1_555 1_555
C2_5 H1_5 1_555 1_555
C3_5 C2_5 1_555 1_555
C4_5 H2_5 1_555 1_555
N1_5 C7_5 1_555 1_555
C5_5 C3_5 1_555 1_555
C6_5 C3_5 1_555 1_555
H3_5 C6_5 1_555 1_555
C7_5 C4_5 1_555 1_555
C8_5 C1_5 1_555 1_555
H4_5 C8_5 1_555 1_555
C9_5 C7_5 1_555 1_555
H5_5 C9_5 1_555 1_555
C10_5 C6_5 1_555 1_555
H6_5 C10_5 1_555 1_555
C11_5 C1_5 1_555 1_555
O3_5 C5_5 1_555 1_555
O4_5 C5_5 1_555 1_555
Zn1_3 O3_5 1_555 1_555
Zn2_2 O2_5 1_555 1_555
O5_5 C15_5 1_555 1_555
C12_5 H7_5 1_555 1_555
C13_5 C12_5 1_555 1_555
C15_5 O1_5 1_555 1_555
C18_5 C13_5 1_555 1_555
H9_5 C18_5 1_555 1_555
C21_5 C17_5 1_555 1_555
H11_5 C21_5 1_555 1_555
C45_5 C46_5 1_555 1_555
C46_5 H25_5 1_555 1_555
C47_5 C46_5 1_555 1_555
C48_5 H26_5 1_555 1_555
C49_5 C47_5 1_555 1_555
C50_5 C47_5 1_555 1_555
H27_5 C50_5 1_555 1_555
C51_5 N1_5 1_555 1_555
C52_5 C45_5 1_555 1_555
H28_5 C52_5 1_555 1_555
C53_5 C51_5 1_555 1_555
H29_5 C53_5 1_555 1_555
C54_5 C50_5 1_555 1_555
H30_5 C54_5 1_555 1_555
C55_5 C45_5 1_555 1_555
O10_3 C49_5 1_555 1_555
O11_3 C49_5 1_555 1_555
C59_5 H32_5 1_555 1_555
C62_5 N1_5 1_555 1_555
C63_5 C56_5 1_555 1_555
H34_5 C63_5 1_555 1_555
C64_5 C62_5 1_555 1_555
H35_5 C64_5 1_555 1_555
C66_5 C56_5 1_555 1_555
Zn3_2 O2_5 1_555 1_555
Zn4_2 O2_5 1_555 1_555
O14_3 Zn3_2 1_555 1_555
O15_3 Zn4_2 1_555 1_555
O16_3 Zn3_2 1_555 1_555
O17_3 Zn4_2 1_555 1_555
O18_3 Zn2_2 1_555 1_555
O19_3 Zn2_2 1_555 1_555
Zn7_3 O10_3 1_555 1_555
Zn12_3 O11_3 1_555 1_555
O20_3 Zn4_2 1_555 1_555
O21_3 Zn1_3 1_555 1_555
C4_5 C8_5 1_555 1_555
C9_5 C11_5 1_555 1_555
C10_5 C11_5 1_555 1_555
O4_5 Zn2_2 1_555 1_555
O5_5 Zn3_2 1_555 1_555
C13_5 C15_5 1_555 1_555
C17_5 C18_5 1_555 1_555
C48_5 C51_5 1_555 1_555
C48_5 C52_5 1_555 1_555
C53_5 C55_5 1_555 1_555
C54_5 C55_5 1_555 1_555
C59_5 C62_5 1_555 1_555
C59_5 C63_5 1_555 1_555
C64_5 C66_5 1_555 1_555
O8_4 C37_6 1_555 1_555
C34_6 H19_6 1_555 1_555
C35_6 C34_6 1_555 1_555
C37_6 C35_6 1_555 1_555
C40_6 C35_6 1_555 1_555
H21_6 C40_6 1_555 1_555
C43_6 C39_6 1_555 1_555
H23_6 C43_6 1_555 1_555
O9_4 C37_6 1_555 1_555
C46_6 H25_6 1_555 1_555
C47_6 C46_6 1_555 1_555
C49_6 C47_6 1_555 1_555
C50_6 C47_6 1_555 1_555
H27_6 C50_6 1_555 1_555
C54_6 C50_6 1_555 1_555
H30_6 C54_6 1_555 1_555
O10_4 C49_6 1_555 1_555
O11_4 C49_6 1_555 1_555
Zn5_4 O9_4 1_555 1_555
Zn7_4 O10_4 1_555 1_555
Zn10_4 O8_4 1_555 1_555
Zn12_4 O11_4 1_555 1_555
C39_6 C40_6 1_555 1_555
O1_6 Zn1_4 1_555 1_555
O2_6 Zn1_4 1_555 1_555
C1_6 C2_6 1_555 1_555
C2_6 H1_6 1_555 1_555
C3_6 C2_6 1_555 1_555
C4_6 H2_6 1_555 1_555
N1_6 C7_6 1_555 1_555
C5_6 C3_6 1_555 1_555
C6_6 C3_6 1_555 1_555
H3_6 C6_6 1_555 1_555
C7_6 C4_6 1_555 1_555
C8_6 C1_6 1_555 1_555
H4_6 C8_6 1_555 1_555
C9_6 C7_6 1_555 1_555
H5_6 C9_6 1_555 1_555
C10_6 C6_6 1_555 1_555
H6_6 C10_6 1_555 1_555
C11_6 C1_6 1_555 1_555
O3_6 C5_6 1_555 1_555
O4_6 C5_6 1_555 1_555
Zn1_4 O3_6 1_555 1_555
Zn11_2 O2_6 1_555 1_555
O5_6 C15_6 1_555 1_555
C12_6 H7_6 1_555 1_555
C13_6 C12_6 1_555 1_555
C14_6 C16_6 1_555 1_555
C15_6 O1_6 1_555 1_555
C16_6 C12_6 1_555 1_555
H8_6 C16_6 1_555 1_555
N2_6 C20_6 1_555 1_555
C17_6 C14_6 1_555 1_555
C18_6 C13_6 1_555 1_555
H9_6 C18_6 1_555 1_555
C19_6 C14_6 1_555 1_555
H10_6 C19_6 1_555 1_555
C20_6 C19_6 1_555 1_555
C21_6 C17_6 1_555 1_555
H11_6 C21_6 1_555 1_555
C22_6 C20_6 1_555 1_555
H12_6 C22_6 1_555 1_555
C25_6 C27_6 1_555 1_555
H14_6 C27_6 1_555 1_555
C30_6 C25_6 1_555 1_555
H16_6 C30_6 1_555 1_555
C31_6 N2_6 1_555 1_555
C33_6 C31_6 1_555 1_555
H18_6 C33_6 1_555 1_555
C36_6 C38_6 1_555 1_555
H20_6 C38_6 1_555 1_555
C41_6 C36_6 1_555 1_555
H22_6 C41_6 1_555 1_555
C42_6 N2_6 1_555 1_555
C44_6 C42_6 1_555 1_555
H24_6 C44_6 1_555 1_555
C48_6 H26_6 1_555 1_555
C51_6 N1_6 1_555 1_555
C52_6 C45_6 1_555 1_555
H28_6 C52_6 1_555 1_555
C53_6 C51_6 1_555 1_555
H29_6 C53_6 1_555 1_555
C55_6 C45_6 1_555 1_555
C56_6 C57_6 1_555 1_555
C57_6 H31_6 1_555 1_555
C58_6 C57_6 1_555 1_555
C59_6 H32_6 1_555 1_555
C60_6 C58_6 1_555 1_555
C61_6 C58_6 1_555 1_555
H33_6 C61_6 1_555 1_555
C62_6 N1_6 1_555 1_555
C63_6 C56_6 1_555 1_555
H34_6 C63_6 1_555 1_555
C64_6 C62_6 1_555 1_555
H35_6 C64_6 1_555 1_555
C65_6 C61_6 1_555 1_555
H36_6 C65_6 1_555 1_555
C66_6 C56_6 1_555 1_555
O17_3 C60_6 1_555 1_555
O19_3 C60_6 1_555 1_555
Zn6_2 O2_6 1_555 1_555
Zn8 O2_6 1_555 1_555
O15_4 Zn8 1_555 1_555
O16_4 Zn6_2 1_555 1_555
O18_4 Zn11_2 1_555 1_555
O21_4 Zn1_4 1_555 1_555
C4_6 C8_6 1_555 1_555
C9_6 C11_6 1_555 1_555
C10_6 C11_6 1_555 1_555
O4_6 Zn11_2 1_555 1_555
O5_6 Zn6_2 1_555 1_555
C13_6 C15_6 1_555 1_555
C17_6 C18_6 1_555 1_555
C21_6 C22_6 1_555 1_555
C30_6 C31_6 1_555 1_555
C41_6 C42_6 1_555 1_555
C48_6 C51_6 1_555 1_555
C48_6 C52_6 1_555 1_555
C53_6 C55_6 1_555 1_555
C59_6 C62_6 1_555 1_555
C59_6 C63_6 1_555 1_555
C64_6 C66_6 1_555 1_555
C65_6 C66_6 1_555 1_555
O14_3 C26_6 1_555 1_555
C23_6 H13_6 1_555 1_555
C24_6 C23_6 1_555 1_555
C26_6 C24_6 1_555 1_555
C29_6 C24_6 1_555 1_555
H15_6 C29_6 1_555 1_555
C32_6 C28_6 1_555 1_555
H17_6 C32_6 1_555 1_555
O20_3 C26_6 1_555 1_555
C28_6 C29_6 1_555 1_555
C57_7 H31_7 1_555 1_555
C58_7 C57_7 1_555 1_555
C60_7 C58_7 1_555 1_555
C61_7 C58_7 1_555 1_555
H33_7 C61_7 1_555 1_555
C65_7 C61_7 1_555 1_555
H36_7 C65_7 1_555 1_555
O12_4 C60_7 1_555 1_555
O13_4 C60_7 1_555 1_555
Zn10_4 O12_4 1_555 1_555
Zn12_3 O13_4 1_555 1_555
O1_7 Zn5_3 1_555 1_555
O2_7 Zn5_3 1_555 1_555
C2_7 H1_7 1_555 1_555
C3_7 C2_7 1_555 1_555
C5_7 C3_7 1_555 1_555
C6_7 C3_7 1_555 1_555
H3_7 C6_7 1_555 1_555
C10_7 C6_7 1_555 1_555
H6_7 C10_7 1_555 1_555
O3_7 C5_7 1_555 1_555
O4_7 C5_7 1_555 1_555
Zn5_3 O3_7 1_555 1_555
Zn12_4 O2_7 1_555 1_555
O5_7 C15_7 1_555 1_555
C12_7 H7_7 1_555 1_555
C13_7 C12_7 1_555 1_555
C15_7 O1_7 1_555 1_555
C18_7 C13_7 1_555 1_555
H9_7 C18_7 1_555 1_555
C21_7 C17_7 1_555 1_555
H11_7 C21_7 1_555 1_555
Zn7_4 O2_7 1_555 1_555
Zn10_3 O2_7 1_555 1_555
O14_4 Zn7_4 1_555 1_555
O17_4 Zn10_3 1_555 1_555
O19_4 Zn12_4 1_555 1_555
O20_4 Zn10_3 1_555 1_555
O4_7 Zn12_4 1_555 1_555
O5_7 Zn7_4 1_555 1_555
C13_7 C15_7 1_555 1_555
C17_7 C18_7 1_555 1_555
C14_7 C16_7 1_555 1_555
H8_7 C16_7 1_555 1_555
N2_7 C20_7 1_555 1_555
C19_7 C14_7 1_555 1_555
H10_7 C19_7 1_555 1_555
C20_7 C19_7 1_555 1_555
C22_7 C20_7 1_555 1_555
H12_7 C22_7 1_555 1_555
O6_4 C26_7 1_555 1_555
C23_7 H13_7 1_555 1_555
C24_7 C23_7 1_555 1_555
C25_7 C27_7 1_555 1_555
C26_7 C24_7 1_555 1_555
C27_7 C23_7 1_555 1_555
H14_7 C27_7 1_555 1_555
C28_7 C25_7 1_555 1_555
C29_7 C24_7 1_555 1_555
H15_7 C29_7 1_555 1_555
C30_7 C25_7 1_555 1_555
H16_7 C30_7 1_555 1_555
C31_7 N2_7 1_555 1_555
C32_7 C28_7 1_555 1_555
H17_7 C32_7 1_555 1_555
C33_7 C31_7 1_555 1_555
H18_7 C33_7 1_555 1_555
O7_4 C26_7 1_555 1_555
C36_7 C38_7 1_555 1_555
H20_7 C38_7 1_555 1_555
C41_7 C36_7 1_555 1_555
H22_7 C41_7 1_555 1_555
C42_7 N2_7 1_555 1_555
C44_7 C42_7 1_555 1_555
H24_7 C44_7 1_555 1_555
Zn7_3 O6_4 1_555 1_555
Zn10_4 O7_4 1_555 1_555
C28_7 C29_7 1_555 1_555
C30_7 C31_7 1_555 1_555
C32_7 C33_7 1_555 1_555
C41_7 C42_7 1_555 1_555
C46_7 H25_7 1_555 1_555
C47_7 C46_7 1_555 1_555
C49_7 C47_7 1_555 1_555
C50_7 C47_7 1_555 1_555
H27_7 C50_7 1_555 1_555
C54_7 C50_7 1_555 1_555
H30_7 C54_7 1_555 1_555
O16_4 C49_7 1_555 1_555
O18_4 C49_7 1_555 1_555
O15_3 C37_7 1_555 1_555
C34_7 H19_7 1_555 1_555
C35_7 C34_7 1_555 1_555
C37_7 C35_7 1_555 1_555
C40_7 C35_7 1_555 1_555
H21_7 C40_7 1_555 1_555
C43_7 C39_7 1_555 1_555
H23_7 C43_7 1_555 1_555
O21_3 C37_7 1_555 1_555
C39_7 C40_7 1_555 1_555
O1_8 Zn5_4 1_555 1_555
O2_8 Zn5_4 1_555 1_555
C2_8 H1_8 1_555 1_555
C3_8 C2_8 1_555 1_555
C5_8 C3_8 1_555 1_555
C6_8 C3_8 1_555 1_555
H3_8 C6_8 1_555 1_555
C10_8 C6_8 1_555 1_555
H6_8 C10_8 1_555 1_555
O3_8 C5_8 1_555 1_555
O4_8 C5_8 1_555 1_555
Zn5_4 O3_8 1_555 1_555
Zn12_3 O2_8 1_555 1_555
O5_8 C15_8 1_555 1_555
C12_8 H7_8 1_555 1_555
C13_8 C12_8 1_555 1_555
C14_8 C16_8 1_555 1_555
C15_8 O1_8 1_555 1_555
C16_8 C12_8 1_555 1_555
H8_8 C16_8 1_555 1_555
N2_8 C20_8 1_555 1_555
C17_8 C14_8 1_555 1_555
C18_8 C13_8 1_555 1_555
H9_8 C18_8 1_555 1_555
C19_8 C14_8 1_555 1_555
H10_8 C19_8 1_555 1_555
C20_8 C19_8 1_555 1_555
C21_8 C17_8 1_555 1_555
H11_8 C21_8 1_555 1_555
C22_8 C20_8 1_555 1_555
H12_8 C22_8 1_555 1_555
O14_4 C26_8 1_555 1_555
C23_8 H13_8 1_555 1_555
C24_8 C23_8 1_555 1_555
C25_8 C27_8 1_555 1_555
C26_8 C24_8 1_555 1_555
C27_8 C23_8 1_555 1_555
H14_8 C27_8 1_555 1_555
C28_8 C25_8 1_555 1_555
C29_8 C24_8 1_555 1_555
H15_8 C29_8 1_555 1_555
C30_8 C25_8 1_555 1_555
H16_8 C30_8 1_555 1_555
C31_8 N2_8 1_555 1_555
C32_8 C28_8 1_555 1_555
H17_8 C32_8 1_555 1_555
C33_8 C31_8 1_555 1_555
H18_8 C33_8 1_555 1_555
O20_4 C26_8 1_555 1_555
O15_4 C37_8 1_555 1_555
C34_8 H19_8 1_555 1_555
C35_8 C34_8 1_555 1_555
C36_8 C38_8 1_555 1_555
C37_8 C35_8 1_555 1_555
C38_8 C34_8 1_555 1_555
H20_8 C38_8 1_555 1_555
C39_8 C36_8 1_555 1_555
C40_8 C35_8 1_555 1_555
H21_8 C40_8 1_555 1_555
C41_8 C36_8 1_555 1_555
H22_8 C41_8 1_555 1_555
C42_8 N2_8 1_555 1_555
C43_8 C39_8 1_555 1_555
H23_8 C43_8 1_555 1_555
C44_8 C42_8 1_555 1_555
H24_8 C44_8 1_555 1_555
O21_4 C37_8 1_555 1_555
Zn7_3 O2_8 1_555 1_555
Zn10_4 O2_8 1_555 1_555
O4_8 Zn12_3 1_555 1_555
O5_8 Zn7_3 1_555 1_555
C13_8 C15_8 1_555 1_555
C17_8 C18_8 1_555 1_555
C21_8 C22_8 1_555 1_555
C28_8 C29_8 1_555 1_555
C30_8 C31_8 1_555 1_555
C32_8 C33_8 1_555 1_555
C39_8 C40_8 1_555 1_555
C41_8 C42_8 1_555 1_555
C43_8 C44_8 1_555 1_555
C4_7 H2_7 1_555 1_555
N1_7 C7_7 1_555 1_555
C7_7 C4_7 1_555 1_555
C8_7 C1_7 1_555 1_555
H4_7 C8_7 1_555 1_555
C9_7 C7_7 1_555 1_555
H5_7 C9_7 1_555 1_555
C11_7 C1_7 1_555 1_555
C45_7 C46_8 1_555 1_555
C46_8 H25_8 1_555 1_555
C47_8 C46_8 1_555 1_555
C48_7 H26_7 1_555 1_555
C49_8 C47_8 1_555 1_555
C50_8 C47_8 1_555 1_555
H27_8 C50_8 1_555 1_555
C51_7 N1_7 1_555 1_555
C52_7 C45_7 1_555 1_555
H28_7 C52_7 1_555 1_555
C53_7 C51_7 1_555 1_555
H29_7 C53_7 1_555 1_555
C54_8 C50_8 1_555 1_555
H30_8 C54_8 1_555 1_555
C55_7 C45_7 1_555 1_555
O16_3 C49_8 1_555 1_555
O18_3 C49_8 1_555 1_555
C56_7 C57_8 1_555 1_555
C57_8 H31_8 1_555 1_555
C58_8 C57_8 1_555 1_555
C59_7 H32_7 1_555 1_555
C60_8 C58_8 1_555 1_555
C61_8 C58_8 1_555 1_555
H33_8 C61_8 1_555 1_555
C62_7 N1_7 1_555 1_555
C63_7 C56_7 1_555 1_555
H34_7 C63_7 1_555 1_555
C64_7 C62_7 1_555 1_555
H35_7 C64_7 1_555 1_555
C65_8 C61_8 1_555 1_555
H36_8 C65_8 1_555 1_555
C66_7 C56_7 1_555 1_555
O17_4 C60_8 1_555 1_555
O19_4 C60_8 1_555 1_555
C4_7 C8_7 1_555 1_555
C9_7 C11_7 1_555 1_555
C48_7 C51_7 1_555 1_555
C48_7 C52_7 1_555 1_555
C53_7 C55_7 1_555 1_555
C54_8 C55_7 1_555 1_555
C59_7 C62_7 1_555 1_555
C59_7 C63_7 1_555 1_555
C64_7 C66_7 1_555 1_555
C65_8 C66_7 1_555 1_555
C4_8 H2_8 1_555 1_555
N1_8 C7_8 1_555 1_555
C7_8 C4_8 1_555 1_555
C8_8 C1_8 1_555 1_555
H4_8 C8_8 1_555 1_555
C9_8 C7_8 1_555 1_555
H5_8 C9_8 1_555 1_555
C11_8 C1_8 1_555 1_555
C48_8 H26_8 1_555 1_555
C51_8 N1_8 1_555 1_555
C52_8 C45_8 1_555 1_555
H28_8 C52_8 1_555 1_555
C53_8 C51_8 1_555 1_555
H29_8 C53_8 1_555 1_555
C55_8 C45_8 1_555 1_555
C59_8 H32_8 1_555 1_555
C62_8 N1_8 1_555 1_555
C63_8 C56_8 1_555 1_555
H34_8 C63_8 1_555 1_555
C64_8 C62_8 1_555 1_555
H35_8 C64_8 1_555 1_555
C66_8 C56_8 1_555 1_555
C4_8 C8_8 1_555 1_555
C9_8 C11_8 1_555 1_555
C48_8 C51_8 1_555 1_555
C48_8 C52_8 1_555 1_555
C53_8 C55_8 1_555 1_555
C59_8 C62_8 1_555 1_555
C59_8 C63_8 1_555 1_555
C64_8 C66_8 1_555 1_555

#END
