
###############################################################################
#
# This file contains modified crystal structure data generated from the
# MOF subset of the Cambridge Structural Database (CSD) v543 
# hosted by the Cambridge Crystallographic Data Centre (CCDC).
#
# This work is licensed under the Creative Commons
# Attribution-NonCommercial-ShareAlike 4.0 International License.
# To view a copy of this license, visit
# http://creativecommons.org/licenses/by-nc-sa/4.0/
# or send a letter to
# Creative Commons, PO Box 1866, Mountain View, CA 94042, USA.
#
# CIF created using the CSD Python API on 29 September 2022
# The structure has been converted into the P1 space group
# The structure has a 3D framework
# The original CSD entry DIRPIF is in the triclinic crystal system
# The framework has been calculated to contain at least 10.0% void space
# The void calculation uses a probe of radius 1.32A, grid spacing 0.4
# The framework is charged, counterions have been retained in the structure
#
###############################################################################

data_DIRPIF
_chemical_formula_moiety         '(C142 H96 N6 O22 Zn9 2-)n'
_symmetry_cell_setting           triclinic
_symmetry_space_group_name_H-M   'P 1'
_symmetry_Int_Tables_number      1
_space_group_name_Hall           'P 1'
loop_
_symmetry_equiv_pos_site_id
_symmetry_equiv_pos_as_xyz
1 x,y,z
_cell_length_a                   16.158(3)
_cell_length_b                   18.171(4)
_cell_length_c                   18.955(4)
_cell_angle_alpha                99.19(3)
_cell_angle_beta                 106.28(3)
_cell_angle_gamma                116.34(3)
_cell_volume                     4518.93
loop_
_atom_site_label
_atom_site_type_symbol
_atom_site_fract_x
_atom_site_fract_y
_atom_site_fract_z
C70 C 0.1359(13) 0.0225(8) 0.3563(8)
H42 H 0.1692 0.0052 0.3947
H43 H 0.0923 0.0367 0.373
H44 H 0.1852 0.0725 0.3499
Zn3 Zn 0.00000 0.00000 -0.00000
O29 O 0.0513(3) 0.1340(2) 0.06362(17)
O36 O 0.1493(3) 0.0112(2) 0.0452(2)
Zn3_2 Zn -0.00000 0.00000 1.00000
O26 O 0.0282(4) 0.0271(3) 0.9036(3)
C140 C 0.0786(11) 0.0316(10) 0.7800(10)
H87 H 0.0624 0.0045 0.7257
C142 C 0.1779(16) 0.1129(10) 0.8113(9)
H92 H 0.2264 0.1003 0.802
H93 H 0.1729 0.1534 0.786
H94 H 0.1989 0.1378 0.8663
C67 C 0.0263(5) 0.9679(4) 0.1535(5)
H37 H 0.0835 0.9691 0.1508
N3 N 0.0125(6) 0.9611(4) 0.2154(5)
C68 C 0.0751(9) 0.9495(8) 0.2805(6)
H38 H 0.121 0.9378 0.264
H39 H 0.0314 0.898 0.2897
Zn3_3 Zn -0.00000 1.00000 -0.00000
Zn12 Zn 0.15344(3) 0.86212(3) 0.01036(2)
O2 O 0.1180(3) 0.8543(2) 0.1008(2)
O5 O 0.1597(2) 0.79779(19) 0.1882(2)
O7 O 0.0370(3) 0.8054(2) 0.91172(19)
H3 H 0.0054 0.6878 0.1994
C24 C 0.0959(3) 0.8029(3) 0.1375(3)
Zn3_4 Zn -0.00000 1.00000 1.00000
H88 H 0.0852 0.9925 0.8073
Zn7 Zn 0.30431(3) 0.87873(3) 0.21282(3)
H41 H 0.9148 0.0075 0.1927
Zn3_5 Zn 1.00000 0.00000 -0.00000
Zn3_6 Zn 1.00000 0.00000 1.00000
O24 O 0.7450(3) 0.0233(2) 0.9801(2)
O25 O 0.6723(3) 0.0203(3) 0.6664(3)
C138 C 0.9737(5) 0.0321(4) 0.8465(5)
H84 H 0.9165 0.0309 0.8492
N6 N 0.9875(6) 0.0389(4) 0.7846(5)
C139 C 0.9249(9) 0.0505(8) 0.7195(6)
H85 H 0.879 0.0622 0.736
H86 H 0.9686 0.102 0.7103
O32 O 0.3591(3) 0.0047(2) 0.2328(2)
Zn9 Zn 0.69569(3) 0.12127(3) 0.78718(3)
Zn15 Zn 0.84656(3) 0.13788(3) 0.98964(2)
O13 O 0.9718(4) 0.9729(3) 0.0964(3)
C69 C 0.9214(11) 0.9684(10) 0.2200(10)
H40 H 0.9376 0.9955 0.2743
C71 C 0.8221(16) 0.8871(10) 0.1887(9)
H45 H 0.7736 0.8997 0.198
H46 H 0.8271 0.8466 0.214
H47 H 0.8011 0.8622 0.1337
Zn3_7 Zn 1.00000 1.00000 -0.00000
O16 O 0.8078(3) 0.22856(19) 0.00602(19)
H54 H 0.7485 0.4666 0.0256
H65 H 0.8102 0.3753 0.037
H81 H 0.6118 0.8995 -0.000
O35 O 0.9630(3) 0.1946(2) 0.08828(19)
O1 O 0.3152(2) 0.86159(17) 0.10803(17)
O4 O 0.9487(3) 0.8660(2) 0.93638(17)
O8 O 0.3578(3) 0.8168(2) 0.26639(19)
O10 O 0.5062(3) 0.9268(3) 0.2881(2)
C1 C 0.9647(3) 0.8208(3) 0.8923(3)
C2 C 0.2696(3) 0.7908(3) 0.0512(2)
C3 C 0.3630(4) 0.0289(3) 0.2988(3)
C4 C 0.2290(4) 0.0313(3) 0.0346(3)
N1 N 0.5584(2) 0.5390(2) 0.1427(2)
C5 C 0.6858(3) 0.6229(2) 0.0999(2)
H1 H 0.6395 0.6312 0.0655
C6 C 0.4040(3) 0.7613(2) 0.1087(2)
H2 H 0.4429 0.819 0.1412
C7 C 0.9582(3) 0.6953(3) 0.1652(2)
C8 C 0.4440(4) 0.7214(3) 0.3146(2)
H4 H 0.3747 0.693 0.2876
C9 C 0.3831(3) 0.6180(2) 0.0664(2)
C10 C 0.8555(3) 0.6492(2) 0.1567(2)
C11 C 0.7866(3) 0.6637(2) 0.1054(2)
C12 C 0.6557(3) 0.5723(2) 0.1434(2)
C13 C 0.4230(3) 0.5624(2) 0.0759(2)
H5 H 0.385 0.5047 0.0435
C14 C 0.5113(3) 0.3063(3) 0.4121(2)
C15 C 0.4420(3) 0.7055(2) 0.1164(2)
C16 C 0.5398(3) 0.7356(2) 0.1737(2)
H6 H 0.5799 0.7935 0.2057
C17 C 0.2895(3) 0.5902(3) 0.0088(2)
N2 N 0.6276(3) 0.5455(2) 0.4442(2)
C18 C 0.5156(3) 0.5922(2) 0.1316(2)
C19 C 0.8194(3) 0.7187(3) 0.0629(2)
H8 H 0.7732 0.7264 0.0277
C20 C 0.5574(3) 0.3984(3) 0.4487(2)
H9 H 0.5686 0.42 0.5005
C21 C 0.4946(3) 0.4494(2) 0.1266(2)
C22 C 0.9876(3) 0.7496(2) 0.1244(2)
C23 C 0.6893(3) 0.6474(3) 0.5719(2)
H10 H 0.6405 0.6612 0.5521
C25 C 0.4144(3) 0.4236(3) 0.1531(2)
H11 H 0.407 0.4658 0.1807
C26 C 0.4941(3) 0.2741(3) 0.3347(2)
C27 C 0.4553(5) 0.8561(4) 0.2933(3)
C28 C 0.8975(3) 0.7125(3) 0.7612(2)
H12 H 0.9454 0.6982 0.782
C29 C 0.7579(3) 0.6915(3) 0.6511(2)
C30 C 0.5844(3) 0.4537(3) 0.4088(2)
C31 C 0.9163(3) 0.7609(3) 0.0717(2)
H13 H 0.9364 0.7975 0.0431
C32 C 0.8212(3) 0.5925(3) 0.1973(3)
H14 H 0.8656 0.5802 0.2289
C33 C 0.4313(3) 0.5856(3) 0.3329(2)
H15 H 0.3619 0.5559 0.3053
C34 C 0.3594(3) 0.2752(3) 0.0989(2)
C35 C 0.4760(4) 0.2459(3) 0.4511(3)
H16 H 0.4851 0.2665 0.5025
C36 C 0.3504(3) 0.3401(3) 0.1387(3)
H17 H 0.2983 0.325 0.1558
C37 C 0.8945(3) 0.7754(3) 0.8068(2)
C38 C 0.2524(3) 0.6447(3) 0.0017(2)
C39 C 0.5077(3) 0.3875(2) 0.0887(2)
H19 H 0.5603 0.4042 0.0721
C40 C 0.4421(3) 0.2982(2) 0.0744(2)
C41 C 0.6930(3) 0.5862(3) 0.5250(2)
C42 C 0.7567(3) 0.7576(3) 0.7002(2)
H20 H 0.7092 0.7729 0.6808
C43 C 0.8290(3) 0.6676(3) 0.6818(2)
C44 C 0.3097(3) 0.7317(2) 0.0535(2)
C45 C 0.5740(3) 0.6807(3) 0.1816(2)
H21 H 0.6367 0.7008 0.2202
C46 C 0.4447(3) 0.1814(3) 0.2987(2)
H22 H 0.4348 0.1596 0.2473
C47 C 0.2901(3) 0.1873(3) 0.0827(2)
H23 H 0.2349 0.1717 0.096
C48 C 0.4999(4) 0.8071(3) 0.3263(2)
C49 C 0.7250(3) 0.5548(3) 0.1920(3)
H24 H 0.7042 0.5175 0.2199
C50 C 0.4289(4) 0.1582(3) 0.4149(3)
H25 H 0.4079 0.1203 0.4424
C51 C 0.4119(3) 0.1248(3) 0.3371(3)
C52 C 0.3040(4) 0.1246(3) 0.0474(3)
C53 C 0.8249(3) 0.7999(3) 0.7762(2)
H26 H 0.8248 0.8449 0.8074
C54 C 0.5683(4) 0.4222(3) 0.3298(2)
H27 H 0.5872 0.4606 0.3024
C55 C 0.4751(3) 0.5418(3) 0.3634(2)
H28 H 0.4357 0.483 0.3563
C56 C 0.6375(3) 0.6723(3) 0.4130(2)
H29 H 0.7071 0.7008 0.4382
C57 C 0.8299(4) 0.6018(3) 0.6307(3)
H30 H 0.8769 0.5858 0.6496
C58 C 0.5943(3) 0.7195(3) 0.3835(2)
C59 C 0.5251(4) 0.3353(3) 0.2945(2)
H31 H 0.5153 0.315 0.2429
C60 C 0.5818(3) 0.5870(3) 0.4064(2)
C61 C 0.7646(4) 0.5622(3) 0.5555(3)
H32 H 0.7663 0.5189 0.5236
C62 C 0.4877(3) 0.6730(3) 0.3420(2)
C63 C 0.6522(4) 0.8077(3) 0.3949(3)
H33 H 0.7219 0.8364 0.4203
C64 C 0.3812(5) 0.1450(3) 0.0241(3)
H34 H 0.3882 0.1005 0.000
C65 C 0.6069(4) 0.8532(3) 0.3686(3)
H35 H 0.6454 0.9127 0.3784
C66 C 0.4506(4) 0.2311(3) 0.0354(3)
H36 H 0.5015 0.2438 0.0173
Zn3_8 Zn 1.00000 1.00000 1.00000
O14 O 0.6848(2) 0.13841(17) 0.89197(17)
O19 O 0.6409(3) 0.9953(2) 0.7672(2)
O21 O 0.6422(3) 0.1832(2) 0.73361(19)
O22 O 0.8507(3) 0.9888(2) 0.9548(2)
O23 O 0.4938(3) 0.0732(3) 0.7119(2)
C72 C 0.0353(3) 0.1792(3) 0.1077(3)
C73 C 0.7304(3) 0.2092(3) 0.9488(2)
C74 C 0.6370(4) 0.9711(3) 0.7012(3)
C75 C 0.7710(4) 0.9687(3) 0.9654(3)
N4 N 0.4416(2) 0.4610(2) 0.8573(2)
C76 C 0.3142(3) 0.3771(2) 0.9001(2)
H48 H 0.3605 0.3688 0.9345
C77 C 0.5960(3) 0.2387(2) 0.8913(2)
H49 H 0.5571 0.181 0.8588
C78 C 0.0418(3) 0.3047(3) 0.8348(2)
C79 C 0.5560(4) 0.2786(3) 0.6854(2)
H51 H 0.6253 0.307 0.7124
C80 C 0.6169(3) 0.3820(2) 0.9336(2)
C81 C 0.1445(3) 0.3508(2) 0.8433(2)
C82 C 0.2134(3) 0.3363(2) 0.8946(2)
C83 C 0.3443(3) 0.4277(2) 0.8566(2)
C84 C 0.5770(3) 0.4376(2) 0.9241(2)
H52 H 0.615 0.4953 0.9565
C85 C 0.4887(3) 0.6937(3) 0.5879(2)
C86 C 0.5580(3) 0.2945(2) 0.8836(2)
C87 C 0.4602(3) 0.2644(2) 0.8263(2)
H53 H 0.4201 0.2065 0.7943
C88 C 0.7105(3) 0.4098(3) 0.9912(2)
N5 N 0.3724(3) 0.4545(2) 0.5558(2)
C89 C 0.4844(3) 0.4078(2) 0.8684(2)
C90 C 0.1806(3) 0.2813(3) 0.9371(2)
H55 H 0.2268 0.2736 0.9723
C91 C 0.4426(3) 0.6016(3) 0.5513(2)
H56 H 0.4314 0.58 0.4995
C92 C 0.5054(3) 0.5506(2) 0.8734(2)
C93 C 0.0124(3) 0.2504(2) 0.8756(2)
C94 C 0.3107(3) 0.3526(3) 0.4281(2)
H57 H 0.3595 0.3388 0.4479
C96 C 0.5856(3) 0.5764(3) 0.8469(2)
H58 H 0.593 0.5342 0.8193
C97 C 0.5059(3) 0.7259(3) 0.6653(2)
C98 C 0.5447(5) 0.1439(4) 0.7067(3)
C99 C 0.1025(3) 0.2875(3) 0.2388(2)
H59 H 0.0546 0.3018 0.218
C100 C 0.2421(3) 0.3085(3) 0.3489(2)
C101 C 0.4156(3) 0.5463(3) 0.5912(2)
C102 C 0.0837(3) 0.2391(3) 0.9283(2)
H60 H 0.0636 0.2025 0.9569
C103 C 0.1788(3) 0.4075(3) 0.8027(3)
H61 H 0.1344 0.4198 0.7711
C104 C 0.5687(3) 0.4144(3) 0.6671(2)
H62 H 0.6381 0.4441 0.6947
C105 C 0.6406(3) 0.7248(3) 0.9011(2)
C106 C 0.5240(4) 0.7541(3) 0.5489(3)
H63 H 0.5149 0.7335 0.4975
C107 C 0.6496(3) 0.6599(3) 0.8613(3)
H64 H 0.7017 0.675 0.8442
C108 C 0.1055(3) 0.2246(3) 0.1932(2)
C109 C 0.7476(3) 0.3553(3) 0.9983(2)
C110 C 0.4923(3) 0.6125(2) 0.9113(2)
H66 H 0.4397 0.5958 0.9279
C111 C 0.5579(3) 0.7018(2) 0.9256(2)
C112 C 0.3070(3) 0.4138(3) 0.4750(2)
C113 C 0.2433(3) 0.2424(3) 0.2998(2)
H67 H 0.2908 0.2271 0.3192
C114 C 0.1710(3) 0.3324(3) 0.3182(2)
C115 C 0.6903(3) 0.2683(2) 0.9465(2)
C116 C 0.4260(3) 0.3193(3) 0.8184(2)
H68 H 0.3633 0.2992 0.7798
C117 C 0.5553(3) 0.8186(3) 0.7013(2)
H69 H 0.5652 0.8404 0.7527
C118 C 0.7099(3) 0.8127(3) 0.9173(2)
H70 H 0.7651 0.8283 0.904
C119 C 0.5001(4) 0.1929(3) 0.6737(2)
C120 C 0.2750(3) 0.4452(3) 0.8080(3)
H71 H 0.2958 0.4825 0.7801
C121 C 0.5711(4) 0.8418(3) 0.5851(3)
H72 H 0.5921 0.8797 0.5576
C122 C 0.5881(3) 0.8752(3) 0.6629(3)
C123 C 0.6960(4) 0.8754(3) 0.9526(3)
C124 C 0.1751(3) 0.2001(3) 0.2238(2)
H73 H 0.1752 0.1551 0.1926
C125 C 0.4317(4) 0.5778(3) 0.6702(2)
H74 H 0.4128 0.5394 0.6976
C126 C 0.5249(3) 0.4582(3) 0.6366(2)
H75 H 0.5643 0.517 0.6437
C127 C 0.3625(3) 0.3277(3) 0.5870(2)
H76 H 0.2929 0.2992 0.5618
C128 C 0.1701(4) 0.3982(3) 0.3693(3)
H77 H 0.1231 0.4142 0.3504
C129 C 0.4057(3) 0.2805(3) 0.6165(2)
C130 C 0.4749(4) 0.6647(3) 0.7055(2)
H78 H 0.4847 0.685 0.7571
C131 C 0.4182(3) 0.4130(3) 0.5936(2)
C132 C 0.2354(4) 0.4378(3) 0.4445(3)
H79 H 0.2337 0.4811 0.4764
C133 C 0.5123(3) 0.3270(3) 0.6580(2)
C134 C 0.3478(4) 0.1923(3) 0.6051(3)
H80 H 0.2781 0.1636 0.5797
C135 C 0.6188(5) 0.8550(3) 0.9759(3)
H81_2 H 0.6118 0.8995 1.000
C136 C 0.3931(4) 0.1468(3) 0.6314(3)
H82 H 0.3546 0.0873 0.6216
C137 C 0.5494(4) 0.7689(3) 0.9646(3)
H83 H 0.4985 0.7562 0.9827
C141 C 0.8641(13) 0.9775(8) 0.6437(8)
H89 H 0.8308 0.9948 0.6053
H90 H 0.9077 0.9633 0.627
H91 H 0.8148 0.9275 0.6501
O28 O 0.8820(3) 0.1457(2) 0.8992(2)
O31 O 0.8403(2) 0.20221(19) 0.8118(2)
O37 O 0.2550(3) 0.9767(2) 0.0199(2)
O39 O 0.3277(3) 0.9797(3) 0.3336(3)
O3 O 0.1922(3) 0.77144(19) 0.99398(19)
H7 H 0.2515 0.5334 0.9744
H18 H 0.1898 0.6247 0.963
H34_2 H 0.3882 0.1005 1.000
H50 H 0.9946 0.3122 0.8006
C95 C 0.9041(3) 0.1971(3) 0.8625(3)
loop_
_geom_bond_atom_site_label_1
_geom_bond_atom_site_label_2
_geom_bond_site_symmetry_1
_geom_bond_site_symmetry_2
H42 C70 1_555 1_555
H43 C70 1_555 1_555
H44 C70 1_555 1_555
O29 Zn3 1_555 1_555
O36 Zn3 1_555 1_555
O26 Zn3_2 1_555 1_555
H87 C140 1_555 1_555
C142 C140 1_555 1_555
H92 C142 1_555 1_555
H93 C142 1_555 1_555
H94 C142 1_555 1_555
C67 H37 1_555 1_555
N3 C67 1_555 1_555
C68 N3 1_555 1_555
H38 C68 1_555 1_555
H39 C68 1_555 1_555
O2 C24 1_555 1_555
O5 C24 1_555 1_555
Zn7 O5 1_555 1_555
Zn12 O2 1_555 1_555
H84 C138 1_555 1_555
N6 C138 1_555 1_555
C139 N6 1_555 1_555
H85 C139 1_555 1_555
H86 C139 1_555 1_555
Zn15 O24 1_555 1_555
O25 Zn9 1_555 1_555
H40 C69 1_555 1_555
C71 C69 1_555 1_555
H45 C71 1_555 1_555
H46 C71 1_555 1_555
H47 C71 1_555 1_555
O13 Zn3_7 1_555 1_555
O1 C2 1_555 1_555
O4 C1 1_555 1_555
O32 C3 1_555 1_555
O8 Zn7 1_555 1_555
O36 C4 1_555 1_555
O10 C27 1_555 1_555
C1 C37 1_555 1_555
C2 C44 1_555 1_555
C3 C51 1_555 1_555
C4 C52 1_555 1_555
Zn7 O1 1_555 1_555
N1 C12 1_555 1_555
C5 H1 1_555 1_555
C6 H2 1_555 1_555
C8 H4 1_555 1_555
C9 C13 1_555 1_555
C10 C7 1_555 1_555
C11 C5 1_555 1_555
C12 C5 1_555 1_555
C13 H5 1_555 1_555
C14 C20 1_555 1_555
C15 C6 1_555 1_555
C16 C15 1_555 1_555
H6 C16 1_555 1_555
C17 C9 1_555 1_555
N2 C30 1_555 1_555
C18 N1 1_555 1_555
C19 C11 1_555 1_555
H8 C19 1_555 1_555
C20 H9 1_555 1_555
C21 N1 1_555 1_555
C22 C7 1_555 1_555
C23 H10 1_555 1_555
C25 C21 1_555 1_555
H11 C25 1_555 1_555
C26 C14 1_555 1_555
C27 O8 1_555 1_555
C28 H12 1_555 1_555
C29 C23 1_555 1_555
C30 C20 1_555 1_555
C31 C19 1_555 1_555
H13 C31 1_555 1_555
C32 C10 1_555 1_555
H14 C32 1_555 1_555
C33 H15 1_555 1_555
C34 C36 1_555 1_555
C35 C14 1_555 1_555
H16 C35 1_555 1_555
C36 C25 1_555 1_555
H17 C36 1_555 1_555
C37 C28 1_555 1_555
C38 C17 1_555 1_555
C39 C21 1_555 1_555
H19 C39 1_555 1_555
C40 C34 1_555 1_555
C41 N2 1_555 1_555
C42 C29 1_555 1_555
H20 C42 1_555 1_555
C43 C28 1_555 1_555
C44 C6 1_555 1_555
C45 C16 1_555 1_555
H21 C45 1_555 1_555
C46 C26 1_555 1_555
H22 C46 1_555 1_555
C47 C34 1_555 1_555
H23 C47 1_555 1_555
C48 C8 1_555 1_555
C49 C12 1_555 1_555
H24 C49 1_555 1_555
C50 C35 1_555 1_555
H25 C50 1_555 1_555
C51 C46 1_555 1_555
C52 C47 1_555 1_555
C53 C37 1_555 1_555
H26 C53 1_555 1_555
C54 C30 1_555 1_555
H27 C54 1_555 1_555
C55 C33 1_555 1_555
H28 C55 1_555 1_555
C56 H29 1_555 1_555
C57 C43 1_555 1_555
H30 C57 1_555 1_555
C58 C56 1_555 1_555
C59 C26 1_555 1_555
H31 C59 1_555 1_555
C60 N2 1_555 1_555
C61 C41 1_555 1_555
H32 C61 1_555 1_555
C62 C8 1_555 1_555
C63 C58 1_555 1_555
H33 C63 1_555 1_555
C64 C52 1_555 1_555
H34 C64 1_555 1_555
C65 C48 1_555 1_555
H35 C65 1_555 1_555
C66 C40 1_555 1_555
H36 C66 1_555 1_555
Zn3_8 O4 1_555 1_555
O14 C73 1_555 1_555
O29 C72 1_555 1_555
O19 C74 1_555 1_555
O21 Zn9 1_555 1_555
O22 Zn3_8 1_555 1_555
O23 C98 1_555 1_555
C72 C108 1_555 1_555
C73 C115 1_555 1_555
C74 C122 1_555 1_555
C75 O22 1_555 1_555
Zn9 O14 1_555 1_555
N4 C83 1_555 1_555
C76 H48 1_555 1_555
C77 H49 1_555 1_555
C79 H51 1_555 1_555
C80 C84 1_555 1_555
C81 C78 1_555 1_555
C82 C76 1_555 1_555
C83 C76 1_555 1_555
C84 H52 1_555 1_555
C85 C91 1_555 1_555
C86 C77 1_555 1_555
C87 C86 1_555 1_555
H53 C87 1_555 1_555
C88 C80 1_555 1_555
N5 C101 1_555 1_555
C89 N4 1_555 1_555
C90 C82 1_555 1_555
H55 C90 1_555 1_555
C91 H56 1_555 1_555
C92 N4 1_555 1_555
C93 C78 1_555 1_555
C94 H57 1_555 1_555
C96 C92 1_555 1_555
H58 C96 1_555 1_555
C97 C85 1_555 1_555
C98 O21 1_555 1_555
C99 H59 1_555 1_555
C100 C94 1_555 1_555
C101 C91 1_555 1_555
C102 C90 1_555 1_555
H60 C102 1_555 1_555
C103 C81 1_555 1_555
H61 C103 1_555 1_555
C104 H62 1_555 1_555
C105 C107 1_555 1_555
C106 C85 1_555 1_555
H63 C106 1_555 1_555
C107 C96 1_555 1_555
H64 C107 1_555 1_555
C108 C99 1_555 1_555
C109 C88 1_555 1_555
C110 C92 1_555 1_555
H66 C110 1_555 1_555
C111 C105 1_555 1_555
C112 N5 1_555 1_555
C113 C100 1_555 1_555
H67 C113 1_555 1_555
C114 C99 1_555 1_555
C115 C77 1_555 1_555
C116 C87 1_555 1_555
H68 C116 1_555 1_555
C117 C97 1_555 1_555
H69 C117 1_555 1_555
C118 C105 1_555 1_555
H70 C118 1_555 1_555
C119 C79 1_555 1_555
C120 C83 1_555 1_555
H71 C120 1_555 1_555
C121 C106 1_555 1_555
H72 C121 1_555 1_555
C122 C117 1_555 1_555
C123 C75 1_555 1_555
C124 C108 1_555 1_555
H73 C124 1_555 1_555
C125 C101 1_555 1_555
H74 C125 1_555 1_555
C126 C104 1_555 1_555
H75 C126 1_555 1_555
C127 H76 1_555 1_555
C128 C114 1_555 1_555
H77 C128 1_555 1_555
C129 C127 1_555 1_555
C130 C97 1_555 1_555
H78 C130 1_555 1_555
C131 N5 1_555 1_555
C132 C112 1_555 1_555
H79 C132 1_555 1_555
C133 C79 1_555 1_555
C134 C129 1_555 1_555
H80 C134 1_555 1_555
C135 C123 1_555 1_555
H81_2 C135 1_555 1_555
C136 C119 1_555 1_555
H82 C136 1_555 1_555
C137 C111 1_555 1_555
H83 C137 1_555 1_555
H89 C141 1_555 1_555
H90 C141 1_555 1_555
H91 C141 1_555 1_555
O28 Zn15 1_555 1_555
O31 Zn9 1_555 1_555
O37 Zn12 1_555 1_555
O39 Zn7 1_555 1_555
C9 C15 1_555 1_555
C10 C11 1_555 1_555
C13 C18 1_555 1_555
C18 C45 1_555 1_555
C22 C31 1_555 1_555
C23 C41 1_555 1_555
C27 C48 1_555 1_555
C29 C43 1_555 1_555
C32 C49 1_555 1_555
C33 C62 1_555 1_555
C38 C44 1_555 1_555
C39 C40 1_555 1_555
C42 C53 1_555 1_555
C50 C51 1_555 1_555
C54 C59 1_555 1_555
C55 C60 1_555 1_555
C56 C60 1_555 1_555
C57 C61 1_555 1_555
C58 C62 1_555 1_555
C63 C65 1_555 1_555
C64 C66 1_555 1_555
C80 C86 1_555 1_555
C81 C82 1_555 1_555
C84 C89 1_555 1_555
C89 C116 1_555 1_555
C93 C102 1_555 1_555
C94 C112 1_555 1_555
C98 C119 1_555 1_555
C100 C114 1_555 1_555
C103 C120 1_555 1_555
C104 C133 1_555 1_555
C109 C115 1_555 1_555
C110 C111 1_555 1_555
C113 C124 1_555 1_555
C118 C123 1_555 1_555
C121 C122 1_555 1_555
C125 C130 1_555 1_555
C126 C131 1_555 1_555
C127 C131 1_555 1_555
C128 C132 1_555 1_555
C129 C133 1_555 1_555
C134 C136 1_555 1_555
C135 C137 1_555 1_555
O28 C95 1_555 1_555
O31 C95 1_555 1_555

#END
