
###############################################################################
#
# This file contains modified crystal structure data generated from the
# MOF subset of the Cambridge Structural Database (CSD) v543 
# hosted by the Cambridge Crystallographic Data Centre (CCDC).
#
# This work is licensed under the Creative Commons
# Attribution-NonCommercial-ShareAlike 4.0 International License.
# To view a copy of this license, visit
# http://creativecommons.org/licenses/by-nc-sa/4.0/
# or send a letter to
# Creative Commons, PO Box 1866, Mountain View, CA 94042, USA.
#
# CIF created using the CSD Python API on 29 September 2022
# The structure has been converted into the P1 space group
# The structure has a 3D framework
# The original CSD entry DISBAL is in the orthorhombic crystal system
# The framework has been calculated to contain at least 10.0% void space
# The void calculation uses a probe of radius 1.32A, grid spacing 0.4
# H atom positions have been added when not included in the experimental data
#
###############################################################################

data_DISBAL
_chemical_formula_moiety         '(C288 H272 N64 O64 Zn16)n'
_symmetry_cell_setting           triclinic
_symmetry_space_group_name_H-M   'P 1'
_symmetry_Int_Tables_number      1
_space_group_name_Hall           'P 1'
loop_
_symmetry_equiv_pos_site_id
_symmetry_equiv_pos_as_xyz
1 x,y,z
_cell_length_a                   18.6965(12)
_cell_length_b                   16.8307(11)
_cell_length_c                   26.1709(17)
_cell_angle_alpha                90
_cell_angle_beta                 90
_cell_angle_gamma                90
_cell_volume                     8235.33
loop_
_atom_site_label
_atom_site_type_symbol
_atom_site_fract_x
_atom_site_fract_y
_atom_site_fract_z
H3 H 0.0068 0.2950 0.2889
O1 O 0.01431(16) 0.33388(19) 0.19290(12)
O10 O 0.08133(13) 0.24653(16) 0.08692(10)
C1 C 0.95867(19) 0.2945(2) 0.19404(13)
C2 C 0.91837(18) 0.2850(2) 0.24362(12)
C3 C 0.84470(17) 0.2722(2) 0.24470(12)
C4 C 0.79682(19) 0.2890(2) 0.20016(13)
C5 C 0.81128(17) 0.2566(2) 0.29111(12)
H1 H 0.7617 0.2444 0.2914
C6 C 0.84887(18) 0.2584(2) 0.33741(12)
C7 C 0.92236(18) 0.2738(2) 0.33576(13)
H2 H 0.9490 0.2759 0.3666
C8 C 0.95665(19) 0.2860(2) 0.28944(13)
C9 C 0.81086(16) 0.2473(2) 0.38648(11)
C10 C 0.73827(16) 0.2679(2) 0.39132(11)
H4 H 0.7136 0.2889 0.3626
C11 C 0.70173(16) 0.25819(19) 0.43717(11)
C12 C 0.62551(16) 0.28708(19) 0.43974(11)
C13 C 0.73716(16) 0.22785(18) 0.47982(11)
C14 C 0.69956(17) 0.21952(18) 0.53021(11)
C15 C 0.80899(17) 0.2056(2) 0.47502(12)
H5 H 0.8333 0.1837 0.5036
C16 C 0.84528(18) 0.2151(2) 0.42920(12)
H6 H 0.8940 0.1996 0.4268
C17 C 0.88234(17) 0.4055(2) 0.08691(12)
H7 H 0.8610 0.3873 0.1177
C18 C 0.95092(18) 0.4150(2) 0.02086(13)
C19 C 0.90417(19) 0.4763(2) 0.01827(14)
C20 C 0.8023(2) 0.5224(2) 0.07591(17)
H10 H 0.8084 0.5746 0.0591
H11 H 0.8042 0.5309 0.1133
C21 C 0.72980(19) 0.4884(2) 0.06175(16)
H12 H 0.7270 0.4331 0.0745
H13 H 0.6923 0.5195 0.0794
C22 C 0.7141(2) 0.4885(2) 0.00488(17)
C24 C 0.62583(18) 0.6587(2) 0.03965(14)
H18 H 0.6648 0.6803 0.0583
C26 C 0.5197(2) 0.6347(3) 0.01150(17)
H20 H 0.4694 0.6370 0.0068
C27 C 0.6112(2) 0.3615(2) 0.67760(14)
H21 H 0.6404 0.3578 0.7072
C28 C 0.5631(2) 0.3378(2) 0.60440(15)
H22 H 0.5525 0.3136 0.5725
C29 C 0.5314(2) 0.4038(2) 0.62319(17)
H23 H 0.4947 0.4340 0.6073
C30 C 0.5503(3) 0.4884(3) 0.7023(2)
H24 H 0.5238 0.5289 0.6825
H25 H 0.5972 0.5114 0.7117
C31 C 0.5097(4) 0.4705(4) 0.7499(2)
H26 H 0.5314 0.4763 0.7825
C32 C 0.4363(3) 0.4441(3) 0.7450(2)
H27 H 0.4357 0.3947 0.7245
H28 H 0.4092 0.4849 0.7258
C33 C 0.3969(3) 0.4279(2) 0.79669(18)
H29 H 0.3472 0.4106 0.7898
H30 H 0.4216 0.3848 0.8154
C34 C 0.3509(2) 0.5622(2) 0.82252(14)
H31 H 0.3129 0.5636 0.7985
C35 C 0.4438(2) 0.5207(3) 0.86569(15)
H32 H 0.4825 0.4894 0.8779
C36 C 0.4249(2) 0.5949(3) 0.88192(15)
H33 H 0.4484 0.6244 0.9080
N1 N 0.93734(14) 0.37079(16) 0.06379(10)
N2 N 0.86122(15) 0.46969(17) 0.06062(12)
N3 N 0.63256(16) 0.60386(19) 0.00278(12)
N4 N 0.55838(16) 0.67886(18) 0.04674(12)
N5 N 0.61313(16) 0.31132(19) 0.63905(11)
N6 N 0.56238(18) 0.4186(2) 0.66956(13)
N7 N 0.39603(18) 0.50045(19) 0.82831(12)
N8 N 0.36622(16) 0.62016(18) 0.85438(11)
O2 O 0.93259(14) 0.25746(16) 0.15590(9)
O3 O 0.79798(15) 0.35660(19) 0.18117(10)
O4 O 0.75190(17) 0.2352(2) 0.18766(10)
O5 O 0.58133(13) 0.24653(16) 0.41308(10)
O6 O 0.61158(14) 0.34800(16) 0.46368(11)
O7 O 0.73902(13) 0.22952(15) 0.56966(8)
O8 O 0.63516(13) 0.20426(17) 0.53148(9)
Zn1 Zn 0.979526(19) 0.26907(2) 0.089336(14)
Zn2 Zn 0.68619(2) 0.22281(2) 0.634324(13)
N9 N 0.94162(16) 0.17886(18) 0.04674(12)
N10 N 0.63378(16) 0.12016(18) 0.64562(11)
O9 O 0.75190(17) 0.2648(2) 0.68766(10)
Zn3 Zn 0.479526(19) 0.26907(2) 0.410664(14)
Zn4 Zn 0.520474(19) 0.76907(2) 0.089336(14)
Zn5 Zn 0.31381(2) 0.72281(2) 0.865676(13)
Zn6 Zn 0.68619(2) 0.27719(2) 0.134324(13)
H34 H 0.527835 0.409066 0.74825
H23_2 H 0.0053 0.5660 0.1073
C32_2 C 0.0637(3) 0.5559(3) 0.2450(2)
H27_2 H 0.0643 0.6053 0.2245
H28_2 H 0.0908 0.5151 0.2258
C33_2 C 0.1031(3) 0.5721(2) 0.29669(18)
H29_2 H 0.1528 0.5894 0.2898
H30_2 H 0.0784 0.6152 0.3154
C34_2 C 0.1491(2) 0.4378(2) 0.32252(14)
H31_2 H 0.1871 0.4364 0.2985
C35_2 C 0.0562(2) 0.4793(3) 0.36569(15)
H32_2 H 0.0175 0.5106 0.3779
C36_2 C 0.0751(2) 0.4051(3) 0.38192(15)
H33_2 H 0.0516 0.3756 0.4080
N7_2 N 0.10397(18) 0.49955(19) 0.32831(12)
N8_2 N 0.13378(16) 0.37984(18) 0.35438(11)
Zn5_2 Zn 0.18619(2) 0.27719(2) 0.365676(13)
H20_2 H 0.0306 0.3630 0.5068
Zn3_2 Zn 0.020474(19) 0.73093(2) 0.910664(14)
C14_2 C 0.80044(17) 0.78048(18) 0.03021(11)
H5_2 H 0.6667 0.8163 0.0036
C27_2 C 0.8888(2) 0.6385(2) 0.17760(14)
H21_2 H 0.8596 0.6422 0.2072
C28_2 C 0.9369(2) 0.6622(2) 0.10440(15)
H22_2 H 0.9475 0.6864 0.0725
C29_2 C 0.9686(2) 0.5962(2) 0.12319(17)
C30_2 C 0.9497(3) 0.5116(3) 0.2023(2)
H24_2 H 0.9762 0.4711 0.1825
H25_2 H 0.9028 0.4886 0.2117
C31_2 C 0.9903(4) 0.5295(4) 0.2499(2)
H26_2 H 0.9686 0.5237 0.2825
N5_2 N 0.88687(16) 0.68868(19) 0.13905(11)
N6_2 N 0.93762(18) 0.5814(2) 0.16956(13)
O7_2 O 0.76098(13) 0.77048(15) 0.06966(8)
O8_2 O 0.86484(13) 0.79574(17) 0.03148(9)
Zn2_2 Zn 0.81381(2) 0.77719(2) 0.134324(13)
N10_2 N 0.86622(16) 0.87984(18) 0.14562(11)
O9_2 O 0.74810(17) 0.7352(2) 0.18766(10)
H34_2 H 0.972165 0.590934 0.24825
C1_2 C 0.54133(19) 0.7055(2) 0.69404(13)
C2_2 C 0.58163(18) 0.7150(2) 0.74362(12)
C3_2 C 0.65530(17) 0.7278(2) 0.74470(12)
C4_2 C 0.70318(19) 0.7110(2) 0.70016(13)
C5_2 C 0.68872(17) 0.7434(2) 0.79111(12)
H1_2 H 0.7383 0.7556 0.7914
C6_2 C 0.65113(18) 0.7416(2) 0.83741(12)
C7_2 C 0.57764(18) 0.7262(2) 0.83576(13)
H2_2 H 0.5510 0.7241 0.8666
C8_2 C 0.54335(19) 0.7140(2) 0.78944(13)
H3_2 H 0.4932 0.7050 0.7889
C9_2 C 0.68914(16) 0.7527(2) 0.88648(11)
C10_2 C 0.76173(16) 0.7321(2) 0.89132(11)
H4_2 H 0.7864 0.7111 0.8626
C11_2 C 0.79827(16) 0.74181(19) 0.93717(11)
C12_2 C 0.87449(16) 0.71292(19) 0.93974(11)
C13_2 C 0.76284(16) 0.77215(18) 0.97982(11)
C15_2 C 0.69101(17) 0.7944(2) 0.97502(12)
C16_2 C 0.65472(18) 0.7849(2) 0.92920(12)
H6_2 H 0.6060 0.8004 0.9268
C17_2 C 0.61766(17) 0.5945(2) 0.58691(12)
H7_2 H 0.6390 0.6127 0.6177
C18_2 C 0.54908(18) 0.5850(2) 0.52086(13)
H8 H 0.5125 0.5957 0.4966
C19_2 C 0.59583(19) 0.5237(2) 0.51827(14)
H9 H 0.5984 0.4842 0.4924
C20_2 C 0.6977(2) 0.4776(2) 0.57591(17)
H10_2 H 0.6916 0.4254 0.5591
H11_2 H 0.6958 0.4691 0.6133
C21_2 C 0.77020(19) 0.5116(2) 0.56175(16)
H12_2 H 0.7730 0.5669 0.5745
H13_2 H 0.8077 0.4805 0.5794
C22_2 C 0.7859(2) 0.5115(2) 0.50488(17)
H14 H 0.7445 0.5348 0.4866
H15 H 0.8278 0.5460 0.4983
C23 C 0.8007(2) 0.4299(2) 0.48319(15)
H16 H 0.7606 0.3940 0.4919
H17 H 0.8035 0.4335 0.4455
C24_2 C 0.87417(18) 0.3413(2) 0.53965(14)
H18_2 H 0.8352 0.3197 0.5583
C25 C 0.9347(2) 0.4121(3) 0.48492(17)
H19 H 0.9470 0.4490 0.4589
C26_2 C 0.9803(2) 0.3653(3) 0.51150(17)
N1_2 N 0.56266(14) 0.62921(16) 0.56379(10)
N2_2 N 0.63878(15) 0.53031(17) 0.56062(12)
N3_2 N 0.86744(16) 0.39614(19) 0.50278(12)
N4_2 N 0.94162(16) 0.32114(18) 0.54674(12)
O1_2 O 0.48569(16) 0.66612(19) 0.69290(12)
O2_2 O 0.56741(14) 0.74254(16) 0.65590(9)
O3_2 O 0.70202(15) 0.64340(19) 0.68117(10)
O4_2 O 0.74810(17) 0.7648(2) 0.68766(10)
O5_2 O 0.91867(13) 0.75347(16) 0.91308(10)
O6_2 O 0.88842(14) 0.65200(16) 0.96368(11)
Zn1_2 Zn 0.520474(19) 0.73093(2) 0.589336(14)
N9_2 N 0.55838(16) 0.82114(18) 0.54674(12)
O10_2 O 0.41867(13) 0.75347(16) 0.58692(10)
Zn4_2 Zn 0.979526(19) 0.23093(2) 0.589336(14)
Zn6_2 Zn 0.81381(2) 0.72281(2) 0.634324(13)
C1_3 C 0.45867(19) 0.2055(2) 0.80596(13)
C2_3 C 0.41837(18) 0.2150(2) 0.75638(12)
C3_3 C 0.34470(17) 0.2278(2) 0.75530(12)
C4_3 C 0.29682(19) 0.2110(2) 0.79984(13)
C5_3 C 0.31128(17) 0.2434(2) 0.70889(12)
H1_3 H 0.2617 0.2556 0.7086
C6_3 C 0.34887(18) 0.2416(2) 0.66259(12)
C7_3 C 0.42236(18) 0.2262(2) 0.66424(13)
H2_3 H 0.4490 0.2241 0.6334
C8_3 C 0.45665(19) 0.2140(2) 0.71056(13)
H3_3 H 0.5068 0.2050 0.7111
C9_3 C 0.31086(16) 0.2527(2) 0.61352(11)
C10_3 C 0.23827(16) 0.2321(2) 0.60868(11)
H4_3 H 0.2136 0.2111 0.6374
C11_3 C 0.20173(16) 0.24181(19) 0.56283(11)
C12_3 C 0.12551(16) 0.21292(19) 0.56026(11)
C13_3 C 0.23716(16) 0.27215(18) 0.52018(11)
C14_3 C 0.19956(17) 0.28048(18) 0.46979(11)
C15_3 C 0.30899(17) 0.2944(2) 0.52498(12)
H5_3 H 0.3333 0.3163 0.4964
C16_3 C 0.34528(18) 0.2849(2) 0.57080(12)
H6_3 H 0.3940 0.3004 0.5732
C17_3 C 0.38234(17) 0.0945(2) 0.91309(12)
H7_3 H 0.3610 0.1127 0.8823
C18_3 C 0.45092(18) 0.0850(2) 0.97914(13)
C19_3 C 0.40417(19) 0.0237(2) 0.98173(14)
C21_3 C 0.22980(19) 0.0116(2) 0.93825(16)
H12_3 H 0.2270 0.0669 0.9255
C22_3 C 0.2141(2) 0.0115(2) 0.99512(17)
C27_3 C 0.1112(2) 0.1385(2) 0.32240(14)
H21_3 H 0.1404 0.1422 0.2928
C28_3 C 0.0631(2) 0.1622(2) 0.39560(15)
H22_3 H 0.0525 0.1864 0.4275
C29_3 C 0.0314(2) 0.0962(2) 0.37681(17)
C30_3 C 0.0503(3) 0.0116(3) 0.2977(2)
C31_3 C 0.0097(4) 0.0295(4) 0.2501(2)
H26_3 H 0.0314 0.0237 0.2175
N1_3 N 0.43734(14) 0.12921(16) 0.93621(10)
N2_3 N 0.36122(15) 0.03031(17) 0.93938(12)
N5_3 N 0.11313(16) 0.18868(19) 0.36095(11)
N6_3 N 0.06238(18) 0.0814(2) 0.33044(13)
O1_3 O 0.51431(16) 0.16612(19) 0.80710(12)
O2_3 O 0.43259(14) 0.24254(16) 0.84410(9)
O3_3 O 0.29798(15) 0.14340(19) 0.81883(10)
O4_3 O 0.25190(17) 0.2648(2) 0.81234(10)
O5_3 O 0.08133(13) 0.25347(16) 0.58692(10)
O6_3 O 0.11158(14) 0.15200(16) 0.53632(11)
O7_3 O 0.23902(13) 0.27048(15) 0.43034(8)
O8_3 O 0.13516(13) 0.29574(17) 0.46852(9)
Zn1_3 Zn 0.479526(19) 0.23093(2) 0.910664(14)
N9_3 N 0.44162(16) 0.32114(18) 0.95326(12)
O9_3 O 0.25190(17) 0.2352(2) 0.31234(10)
O10_3 O 0.58133(13) 0.25347(16) 0.91308(10)
Zn6_3 Zn 0.18619(2) 0.22281(2) 0.865676(13)
H34_3 H 0.0278347 0.0909337 0.25175
C20_3 C 0.3023(2) 0.9776(2) 0.92409(17)
H10_3 H 0.3084 0.9254 0.9409
H11_3 H 0.3042 0.9691 0.8867
H13_3 H 0.1923 0.9805 0.9206
C24_3 C 0.12583(18) 0.8413(2) 0.96035(14)
H18_3 H 0.1648 0.8197 0.9417
C26_3 C 0.0197(2) 0.8653(3) 0.98850(17)
H24_3 H 0.0238 0.9711 0.3175
H25_3 H 0.0972 0.9886 0.2883
N3_3 N 0.13256(16) 0.89614(19) 0.99722(12)
N4_3 N 0.05838(16) 0.82114(18) 0.95326(12)
H23_3 H 0.9947 0.0660 0.3927
C32_3 C 0.9363(3) 0.0559(3) 0.2550(2)
H27_3 H 0.9357 0.1053 0.2755
H28_3 H 0.9092 0.0151 0.2742
C33_3 C 0.8969(3) 0.0721(2) 0.20331(18)
H29_3 H 0.8472 0.0894 0.2102
H30_3 H 0.9216 0.1152 0.1846
H32_3 H 0.9825 0.0106 0.1221
H20_3 H 0.9694 0.8630 0.9932
C34_3 C 0.8509(2) 0.9378(2) 0.17748(14)
H31_3 H 0.8129 0.9364 0.2015
C35_3 C 0.9438(2) 0.9793(3) 0.13431(15)
C36_3 C 0.9249(2) 0.9051(3) 0.11808(15)
H33_3 H 0.9484 0.8756 0.0920
N7_3 N 0.89603(18) 0.99955(19) 0.17169(12)
H9_2 H 0.0984 0.0158 0.5076
C20_4 C 0.1977(2) 0.0224(2) 0.42409(17)
H10_4 H 0.1916 0.0746 0.4409
H11_4 H 0.1958 0.0309 0.3867
H13_4 H 0.3077 0.0195 0.4206
C23_2 C 0.3007(2) 0.0701(2) 0.51681(15)
H16_2 H 0.2606 0.1060 0.5081
H17_2 H 0.3035 0.0665 0.5545
C24_4 C 0.37417(18) 0.1587(2) 0.46035(14)
H18_4 H 0.3352 0.1803 0.4417
C25_2 C 0.4347(2) 0.0879(3) 0.51508(17)
H19_2 H 0.4470 0.0510 0.5411
C26_4 C 0.4803(2) 0.1347(3) 0.48850(17)
H20_4 H 0.5306 0.1370 0.4932
N3_4 N 0.36744(16) 0.10386(19) 0.49722(12)
N4_4 N 0.44162(16) 0.17886(18) 0.45326(12)
H24_4 H 0.4762 0.0289 0.8175
H25_4 H 0.4028 0.0114 0.7883
C34_4 C 0.6491(2) 0.0622(2) 0.67748(14)
H31_4 H 0.6871 0.0636 0.7015
C35_4 C 0.5562(2) 0.0207(3) 0.63431(15)
C36_4 C 0.5751(2) 0.0949(3) 0.61808(15)
H33_4 H 0.5516 0.1244 0.5920
N7_4 N 0.60397(18) 0.00045(19) 0.67169(12)
C1_4 C 0.04133(19) 0.7945(2) 0.30596(13)
C2_4 C 0.08163(18) 0.7850(2) 0.25638(12)
C3_4 C 0.15530(17) 0.7722(2) 0.25530(12)
C4_4 C 0.20318(19) 0.7890(2) 0.29984(13)
C5_4 C 0.18872(17) 0.7566(2) 0.20889(12)
H1_4 H 0.2383 0.7444 0.2086
C6_4 C 0.15113(18) 0.7584(2) 0.16259(12)
C7_4 C 0.07764(18) 0.7738(2) 0.16424(13)
H2_4 H 0.0510 0.7759 0.1334
C8_4 C 0.04335(19) 0.7860(2) 0.21056(13)
C9_4 C 0.18914(16) 0.7473(2) 0.11352(11)
C10_4 C 0.26173(16) 0.7679(2) 0.10868(11)
H4_4 H 0.2864 0.7889 0.1374
C11_4 C 0.29827(16) 0.75819(19) 0.06283(11)
C12_4 C 0.37449(16) 0.78708(19) 0.06026(11)
C13_4 C 0.26284(16) 0.72785(18) 0.02018(11)
C15_4 C 0.19101(17) 0.7056(2) 0.02498(12)
C16_4 C 0.15472(18) 0.7151(2) 0.07080(12)
H6_4 H 0.1060 0.6996 0.0732
C17_4 C 0.11766(17) 0.9055(2) 0.41309(12)
H7_4 H 0.1390 0.8873 0.3823
C18_4 C 0.04908(18) 0.9150(2) 0.47914(13)
H8_2 H 0.0125 0.9043 0.5034
C19_4 C 0.09583(19) 0.9763(2) 0.48173(14)
C21_4 C 0.27020(19) 0.9884(2) 0.43825(16)
H12_4 H 0.2730 0.9331 0.4255
C22_4 C 0.2859(2) 0.9885(2) 0.49512(17)
H14_2 H 0.2445 0.9652 0.5134
H15_2 H 0.3278 0.9540 0.5017
N1_4 N 0.06266(14) 0.87079(16) 0.43621(10)
N2_4 N 0.13878(15) 0.96969(17) 0.43938(12)
O2_4 O 0.06741(14) 0.75746(16) 0.34410(9)
O3_4 O 0.20202(15) 0.85660(19) 0.31883(10)
O4_4 O 0.24810(17) 0.7352(2) 0.31234(10)
O5_4 O 0.41867(13) 0.74653(16) 0.08692(10)
O6_4 O 0.38842(14) 0.84800(16) 0.03632(11)
Zn1_4 Zn 0.020474(19) 0.76907(2) 0.410664(14)
N9_4 N 0.05838(16) 0.67886(18) 0.45326(12)
Zn6_4 Zn 0.31381(2) 0.77719(2) 0.365676(13)
C14_4 C 0.30044(17) 0.71952(18) 0.96979(11)
H5_4 H 0.1667 0.6837 0.9964
C27_4 C 0.3888(2) 0.8615(2) 0.82240(14)
H21_4 H 0.3596 0.8578 0.7928
C28_4 C 0.4369(2) 0.8378(2) 0.89560(15)
H22_4 H 0.4475 0.8136 0.9275
C29_4 C 0.4686(2) 0.9038(2) 0.87681(17)
H23_4 H 0.5053 0.9340 0.8927
C30_4 C 0.4497(3) 0.9884(3) 0.7977(2)
C31_4 C 0.4903(4) 0.9705(4) 0.7501(2)
H26_4 H 0.4686 0.9763 0.7175
C32_4 C 0.5637(3) 0.9441(3) 0.7550(2)
H27_4 H 0.5643 0.8947 0.7755
H28_4 H 0.5908 0.9849 0.7742
C33_4 C 0.6031(3) 0.9279(2) 0.70331(18)
H29_4 H 0.6528 0.9106 0.7102
H30_4 H 0.5784 0.8848 0.6846
H32_4 H 0.5175 0.9894 0.6221
N5_4 N 0.38687(16) 0.81132(19) 0.86095(11)
N6_4 N 0.43762(18) 0.9186(2) 0.83044(13)
O7_4 O 0.26098(13) 0.72952(15) 0.93034(8)
O8_4 O 0.36484(13) 0.70426(17) 0.96852(9)
O9_4 O 0.24810(17) 0.7648(2) 0.81234(10)
H34_4 H 0.472165 0.909066 0.75175
H3_4 H 0.9932 0.7950 0.2111
O1_4 O 0.98569(16) 0.83388(19) 0.30710(12)
O10_4 O 0.91867(13) 0.74653(16) 0.41308(10)
C1_5 C 0.04133(19) 0.7055(2) 0.80596(13)
C2_5 C 0.08163(18) 0.7150(2) 0.75638(12)
C3_5 C 0.15530(17) 0.7278(2) 0.75530(12)
C4_5 C 0.20318(19) 0.7110(2) 0.79984(13)
C5_5 C 0.18872(17) 0.7434(2) 0.70889(12)
H1_5 H 0.2383 0.7556 0.7086
C6_5 C 0.15113(18) 0.7416(2) 0.66259(12)
C7_5 C 0.07764(18) 0.7262(2) 0.66424(13)
H2_5 H 0.0510 0.7241 0.6334
C8_5 C 0.04335(19) 0.7140(2) 0.71056(13)
C9_5 C 0.18914(16) 0.7527(2) 0.61352(11)
C10_5 C 0.26173(16) 0.7321(2) 0.60868(11)
H4_5 H 0.2864 0.7111 0.6374
C11_5 C 0.29827(16) 0.74181(19) 0.56283(11)
C12_5 C 0.37449(16) 0.71292(19) 0.56026(11)
C13_5 C 0.26284(16) 0.77215(18) 0.52018(11)
C14_5 C 0.30044(17) 0.78048(18) 0.46979(11)
C15_5 C 0.19101(17) 0.7944(2) 0.52498(12)
H5_5 H 0.1667 0.8163 0.4964
C16_5 C 0.15472(18) 0.7849(2) 0.57080(12)
H6_5 H 0.1060 0.8004 0.5732
C17_5 C 0.11766(17) 0.5945(2) 0.91309(12)
H7_5 H 0.1390 0.6127 0.8823
C18_5 C 0.04908(18) 0.5850(2) 0.97914(13)
C19_5 C 0.09583(19) 0.5237(2) 0.98173(14)
C20_5 C 0.1977(2) 0.4776(2) 0.92409(17)
H10_5 H 0.1916 0.4254 0.9409
H11_5 H 0.1958 0.4691 0.8867
C21_5 C 0.27020(19) 0.5116(2) 0.93825(16)
H12_5 H 0.2730 0.5669 0.9255
H13_5 H 0.3077 0.4805 0.9206
C22_5 C 0.2859(2) 0.5115(2) 0.99512(17)
C24_5 C 0.37417(18) 0.3413(2) 0.96035(14)
H18_5 H 0.3352 0.3197 0.9417
C26_5 C 0.4803(2) 0.3653(3) 0.98850(17)
H20_5 H 0.5306 0.3630 0.9932
C27_5 C 0.3888(2) 0.6385(2) 0.32240(14)
H21_5 H 0.3596 0.6422 0.2928
C28_5 C 0.4369(2) 0.6622(2) 0.39560(15)
H22_5 H 0.4475 0.6864 0.4275
C29_5 C 0.4686(2) 0.5962(2) 0.37681(17)
H23_5 H 0.5053 0.5660 0.3927
C30_5 C 0.4497(3) 0.5116(3) 0.2977(2)
H24_5 H 0.4762 0.4711 0.3175
H25_5 H 0.4028 0.4886 0.2883
C31_5 C 0.4903(4) 0.5295(4) 0.2501(2)
H26_5 H 0.4686 0.5237 0.2175
C32_5 C 0.5637(3) 0.5559(3) 0.2550(2)
H27_5 H 0.5643 0.6053 0.2755
H28_5 H 0.5908 0.5151 0.2742
C33_5 C 0.6031(3) 0.5721(2) 0.20331(18)
H29_5 H 0.6528 0.5894 0.2102
H30_5 H 0.5784 0.6152 0.1846
C34_5 C 0.6491(2) 0.4378(2) 0.17748(14)
H31_5 H 0.6871 0.4364 0.2015
C35_5 C 0.5562(2) 0.4793(3) 0.13431(15)
H32_5 H 0.5175 0.5106 0.1221
C36_5 C 0.5751(2) 0.4051(3) 0.11808(15)
H33_5 H 0.5516 0.3756 0.0920
N1_5 N 0.06266(14) 0.62921(16) 0.93621(10)
N2_5 N 0.13878(15) 0.53031(17) 0.93938(12)
N3_5 N 0.36744(16) 0.39614(19) 0.99722(12)
N5_5 N 0.38687(16) 0.68868(19) 0.36095(11)
N6_5 N 0.43762(18) 0.5814(2) 0.33044(13)
N7_5 N 0.60397(18) 0.49955(19) 0.17169(12)
N8_3 N 0.63378(16) 0.37984(18) 0.14562(11)
O2_5 O 0.06741(14) 0.74254(16) 0.84410(9)
O3_5 O 0.20202(15) 0.64340(19) 0.81883(10)
O6_5 O 0.38842(14) 0.65200(16) 0.53632(11)
O7_5 O 0.26098(13) 0.77048(15) 0.43034(8)
O8_5 O 0.36484(13) 0.79574(17) 0.46852(9)
N10_3 N 0.36622(16) 0.87984(18) 0.35438(11)
H34_5 H 0.472165 0.590934 0.25175
H3_5 H 0.9932 0.7050 0.7111
O1_5 O 0.98569(16) 0.66612(19) 0.80710(12)
C1_6 C 0.45867(19) 0.2945(2) 0.30596(13)
C2_6 C 0.41837(18) 0.2850(2) 0.25638(12)
C3_6 C 0.34470(17) 0.2722(2) 0.25530(12)
C4_6 C 0.29682(19) 0.2890(2) 0.29984(13)
C5_6 C 0.31128(17) 0.2566(2) 0.20889(12)
H1_6 H 0.2617 0.2444 0.2086
C6_6 C 0.34887(18) 0.2584(2) 0.16259(12)
C7_6 C 0.42236(18) 0.2738(2) 0.16424(13)
H2_6 H 0.4490 0.2759 0.1334
C8_6 C 0.45665(19) 0.2860(2) 0.21056(13)
H3_6 H 0.5068 0.2950 0.2111
C9_6 C 0.31086(16) 0.2473(2) 0.11352(11)
C10_6 C 0.23827(16) 0.2679(2) 0.10868(11)
H4_6 H 0.2136 0.2889 0.1374
C11_6 C 0.20173(16) 0.25819(19) 0.06283(11)
C12_6 C 0.12551(16) 0.28708(19) 0.06026(11)
C13_6 C 0.23716(16) 0.22785(18) 0.02018(11)
C15_6 C 0.30899(17) 0.2056(2) 0.02498(12)
C16_6 C 0.34528(18) 0.2151(2) 0.07080(12)
H6_6 H 0.3940 0.1996 0.0732
C17_6 C 0.38234(17) 0.4055(2) 0.41309(12)
H7_6 H 0.3610 0.3873 0.3823
C18_6 C 0.45092(18) 0.4150(2) 0.47914(13)
H8_3 H 0.4875 0.4043 0.5034
C19_6 C 0.40417(19) 0.4763(2) 0.48173(14)
H9_3 H 0.4016 0.5158 0.5076
C20_6 C 0.3023(2) 0.5224(2) 0.42409(17)
H10_6 H 0.3084 0.5746 0.4409
H11_6 H 0.3042 0.5309 0.3867
C21_6 C 0.22980(19) 0.4884(2) 0.43825(16)
H12_6 H 0.2270 0.4331 0.4255
H13_6 H 0.1923 0.5195 0.4206
C22_6 C 0.2141(2) 0.4885(2) 0.49512(17)
H14_3 H 0.2555 0.4652 0.5134
H15_3 H 0.1722 0.4540 0.5017
C23_3 C 0.1993(2) 0.5701(2) 0.51681(15)
H16_3 H 0.2394 0.6060 0.5081
H17_3 H 0.1965 0.5665 0.5545
C24_6 C 0.12583(18) 0.6587(2) 0.46035(14)
H18_6 H 0.1648 0.6803 0.4417
C25_3 C 0.0653(2) 0.5879(3) 0.51508(17)
H19_3 H 0.0530 0.5510 0.5411
C26_6 C 0.0197(2) 0.6347(3) 0.48850(17)
N1_6 N 0.43734(14) 0.37079(16) 0.43621(10)
N2_6 N 0.36122(15) 0.46969(17) 0.43938(12)
N3_6 N 0.13256(16) 0.60386(19) 0.49722(12)
O1_6 O 0.51431(16) 0.33388(19) 0.30710(12)
O2_6 O 0.43259(14) 0.25746(16) 0.34410(9)
O3_6 O 0.29798(15) 0.35660(19) 0.31883(10)
O6_6 O 0.11158(14) 0.34800(16) 0.03632(11)
C14_6 C 0.19956(17) 0.21952(18) 0.96979(11)
H5_6 H 0.3333 0.1837 0.9964
C27_6 C 0.1112(2) 0.3615(2) 0.82240(14)
H21_6 H 0.1404 0.3578 0.7928
C28_6 C 0.0631(2) 0.3378(2) 0.89560(15)
H22_6 H 0.0525 0.3136 0.9275
C29_6 C 0.0314(2) 0.4038(2) 0.87681(17)
C30_6 C 0.0503(3) 0.4884(3) 0.7977(2)
H24_6 H 0.0238 0.5289 0.8175
H25_6 H 0.0972 0.5114 0.7883
C31_6 C 0.0097(4) 0.4705(4) 0.7501(2)
H26_6 H 0.0314 0.4763 0.7175
N5_6 N 0.11313(16) 0.31132(19) 0.86095(11)
N6_6 N 0.06238(18) 0.4186(2) 0.83044(13)
O7_6 O 0.23902(13) 0.22952(15) 0.93034(8)
O8_6 O 0.13516(13) 0.20426(17) 0.96852(9)
N10_4 N 0.13378(16) 0.12016(18) 0.85438(11)
H34_6 H 0.0278347 0.409066 0.75175
H20_6 H 0.9694 0.6370 0.4932
H23_6 H 0.9947 0.4340 0.8927
C32_6 C 0.9363(3) 0.4441(3) 0.7550(2)
H27_6 H 0.9357 0.3947 0.7755
H28_6 H 0.9092 0.4849 0.7742
C33_6 C 0.8969(3) 0.4279(2) 0.70331(18)
H29_6 H 0.8472 0.4106 0.7102
H30_6 H 0.9216 0.3848 0.6846
C34_6 C 0.8509(2) 0.5622(2) 0.67748(14)
H31_6 H 0.8129 0.5636 0.7015
C35_6 C 0.9438(2) 0.5207(3) 0.63431(15)
H32_6 H 0.9825 0.4894 0.6221
C36_6 C 0.9249(2) 0.5949(3) 0.61808(15)
H33_6 H 0.9484 0.6244 0.5920
N7_6 N 0.89603(18) 0.50045(19) 0.67169(12)
N8_4 N 0.86622(16) 0.62016(18) 0.64562(11)
H20_7 H 0.0306 0.1370 0.0068
C34_7 C 0.1491(2) 0.0622(2) 0.82252(14)
H31_7 H 0.1871 0.0636 0.7985
C35_7 C 0.0562(2) 0.0207(3) 0.86569(15)
C36_7 C 0.0751(2) 0.0949(3) 0.88192(15)
H33_7 H 0.0516 0.1244 0.9080
N7_7 N 0.10397(18) 0.00045(19) 0.82831(12)
H23_7 H 0.0053 0.9340 0.6073
C32_7 C 0.0637(3) 0.9441(3) 0.7450(2)
H27_7 H 0.0643 0.8947 0.7245
H28_7 H 0.0908 0.9849 0.7258
C33_7 C 0.1031(3) 0.9279(2) 0.79669(18)
H29_7 H 0.1528 0.9106 0.7898
H30_7 H 0.0784 0.8848 0.8154
H32_7 H 0.0175 0.9894 0.8779
C20_7 C 0.6977(2) 0.0224(2) 0.07591(17)
H10_7 H 0.6916 0.0746 0.0591
H11_7 H 0.6958 0.0309 0.1133
H13_7 H 0.8077 0.0195 0.0794
C24_7 C 0.87417(18) 0.1587(2) 0.03965(14)
H18_7 H 0.8352 0.1803 0.0583
C26_7 C 0.9803(2) 0.1347(3) 0.01150(17)
H24_7 H 0.9762 0.0289 0.6825
H25_7 H 0.9028 0.0114 0.7117
N3_7 N 0.86744(16) 0.10386(19) 0.00278(12)
C1_7 C 0.54133(19) 0.7945(2) 0.19404(13)
C2_7 C 0.58163(18) 0.7850(2) 0.24362(12)
C3_7 C 0.65530(17) 0.7722(2) 0.24470(12)
C4_7 C 0.70318(19) 0.7890(2) 0.20016(13)
C5_7 C 0.68872(17) 0.7566(2) 0.29111(12)
H1_7 H 0.7383 0.7444 0.2914
C6_7 C 0.65113(18) 0.7584(2) 0.33741(12)
C7_7 C 0.57764(18) 0.7738(2) 0.33576(13)
H2_7 H 0.5510 0.7759 0.3666
C8_7 C 0.54335(19) 0.7860(2) 0.28944(13)
H3_7 H 0.4932 0.7950 0.2889
C9_7 C 0.68914(16) 0.7473(2) 0.38648(11)
C10_7 C 0.76173(16) 0.7679(2) 0.39132(11)
H4_7 H 0.7864 0.7889 0.3626
C11_7 C 0.79827(16) 0.75819(19) 0.43717(11)
C12_7 C 0.87449(16) 0.78708(19) 0.43974(11)
C13_7 C 0.76284(16) 0.72785(18) 0.47982(11)
C14_7 C 0.80044(17) 0.71952(18) 0.53021(11)
C15_7 C 0.69101(17) 0.7056(2) 0.47502(12)
H5_7 H 0.6667 0.6837 0.5036
C16_7 C 0.65472(18) 0.7151(2) 0.42920(12)
H6_7 H 0.6060 0.6996 0.4268
C17_7 C 0.61766(17) 0.9055(2) 0.08691(12)
H7_7 H 0.6390 0.8873 0.1177
C18_7 C 0.54908(18) 0.9150(2) 0.02086(13)
C19_7 C 0.59583(19) 0.9763(2) 0.01827(14)
C21_7 C 0.77020(19) 0.9884(2) 0.06175(16)
H12_7 H 0.7730 0.9331 0.0745
C22_7 C 0.7859(2) 0.9885(2) 0.00488(17)
C27_7 C 0.8888(2) 0.8615(2) 0.67760(14)
H21_7 H 0.8596 0.8578 0.7072
C28_7 C 0.9369(2) 0.8378(2) 0.60440(15)
H22_7 H 0.9475 0.8136 0.5725
C29_7 C 0.9686(2) 0.9038(2) 0.62319(17)
C30_7 C 0.9497(3) 0.9884(3) 0.7023(2)
C31_7 C 0.9903(4) 0.9705(4) 0.7499(2)
H26_7 H 0.9686 0.9763 0.7825
N1_7 N 0.56266(14) 0.87079(16) 0.06379(10)
N2_7 N 0.63878(15) 0.96969(17) 0.06062(12)
N5_7 N 0.88687(16) 0.81132(19) 0.63905(11)
N6_7 N 0.93762(18) 0.9186(2) 0.66956(13)
O1_7 O 0.48569(16) 0.83388(19) 0.19290(12)
O2_7 O 0.56741(14) 0.75746(16) 0.15590(9)
O3_7 O 0.70202(15) 0.85660(19) 0.18117(10)
O6_7 O 0.88842(14) 0.84800(16) 0.46368(11)
O7_7 O 0.76098(13) 0.72952(15) 0.56966(8)
O8_7 O 0.86484(13) 0.70426(17) 0.53148(9)
H34_7 H 0.972165 0.909066 0.74825
H3_8 H 0.0068 0.2050 0.7889
O1_8 O 0.01431(16) 0.16612(19) 0.69290(12)
C14_8 C 0.69956(17) 0.28048(18) 0.03021(11)
H5_8 H 0.8333 0.3163 0.0036
C27_8 C 0.6112(2) 0.1385(2) 0.17760(14)
H21_8 H 0.6404 0.1422 0.2072
C28_8 C 0.5631(2) 0.1622(2) 0.10440(15)
H22_8 H 0.5525 0.1864 0.0725
C29_8 C 0.5314(2) 0.0962(2) 0.12319(17)
H23_8 H 0.4947 0.0660 0.1073
C30_8 C 0.5503(3) 0.0116(3) 0.2023(2)
C31_8 C 0.5097(4) 0.0295(4) 0.2499(2)
H26_8 H 0.5314 0.0237 0.2825
C32_8 C 0.4363(3) 0.0559(3) 0.2450(2)
H27_8 H 0.4357 0.1053 0.2245
H28_8 H 0.4092 0.0151 0.2258
C33_8 C 0.3969(3) 0.0721(2) 0.29669(18)
H29_8 H 0.3472 0.0894 0.2898
H30_8 H 0.4216 0.1152 0.3154
H32_8 H 0.4825 0.0106 0.3779
N5_8 N 0.61313(16) 0.18868(19) 0.13905(11)
N6_8 N 0.56238(18) 0.0814(2) 0.16956(13)
O7_8 O 0.73902(13) 0.27048(15) 0.06966(8)
O8_8 O 0.63516(13) 0.29574(17) 0.03148(9)
H34_8 H 0.527835 0.0909337 0.24825
C1_8 C 0.95867(19) 0.2055(2) 0.69404(13)
C2_8 C 0.91837(18) 0.2150(2) 0.74362(12)
C3_8 C 0.84470(17) 0.2278(2) 0.74470(12)
C4_8 C 0.79682(19) 0.2110(2) 0.70016(13)
C5_8 C 0.81128(17) 0.2434(2) 0.79111(12)
H1_8 H 0.7617 0.2556 0.7914
C6_8 C 0.84887(18) 0.2416(2) 0.83741(12)
C7_8 C 0.92236(18) 0.2262(2) 0.83576(13)
H2_8 H 0.9490 0.2241 0.8666
C8_8 C 0.95665(19) 0.2140(2) 0.78944(13)
C9_8 C 0.81086(16) 0.2527(2) 0.88648(11)
C10_8 C 0.73827(16) 0.2321(2) 0.89132(11)
H4_8 H 0.7136 0.2111 0.8626
C11_8 C 0.70173(16) 0.24181(19) 0.93717(11)
C12_8 C 0.62551(16) 0.21292(19) 0.93974(11)
C13_8 C 0.73716(16) 0.27215(18) 0.97982(11)
C15_8 C 0.80899(17) 0.2944(2) 0.97502(12)
C16_8 C 0.84528(18) 0.2849(2) 0.92920(12)
H6_8 H 0.8940 0.3004 0.9268
C17_8 C 0.88234(17) 0.0945(2) 0.58691(12)
H7_8 H 0.8610 0.1127 0.6177
C18_8 C 0.95092(18) 0.0850(2) 0.52086(13)
H8_4 H 0.9875 0.0957 0.4966
C19_8 C 0.90417(19) 0.0237(2) 0.51827(14)
C21_8 C 0.72980(19) 0.0116(2) 0.56175(16)
H12_8 H 0.7270 0.0669 0.5745
C22_8 C 0.7141(2) 0.0115(2) 0.50488(17)
H14_4 H 0.7555 0.0348 0.4866
H15_4 H 0.6722 0.0460 0.4983
N1_8 N 0.93734(14) 0.12921(16) 0.56379(10)
N2_8 N 0.86122(15) 0.03031(17) 0.56062(12)
O2_8 O 0.93259(14) 0.24254(16) 0.65590(9)
O3_8 O 0.79798(15) 0.14340(19) 0.68117(10)
O6_8 O 0.61158(14) 0.15200(16) 0.96368(11)
H24_8 H 0.5238 0.9711 0.1825
H25_8 H 0.5972 0.9886 0.2117
C34_8 C 0.3509(2) 0.9378(2) 0.32252(14)
H31_8 H 0.3129 0.9364 0.2985
C35_8 C 0.4438(2) 0.9793(3) 0.36569(15)
C36_8 C 0.4249(2) 0.9051(3) 0.38192(15)
H33_8 H 0.4484 0.8756 0.4080
N7_8 N 0.39603(18) 0.99955(19) 0.32831(12)
H9_4 H 0.9016 0.9842 0.4924
C20_8 C 0.8023(2) 0.9776(2) 0.57591(17)
H10_8 H 0.8084 0.9254 0.5591
H11_8 H 0.8042 0.9691 0.6133
H13_8 H 0.6923 0.9805 0.5794
C23_4 C 0.6993(2) 0.9299(2) 0.48319(15)
H16_4 H 0.7394 0.8940 0.4919
H17_4 H 0.6965 0.9335 0.4455
C24_8 C 0.62583(18) 0.8413(2) 0.53965(14)
H18_8 H 0.6648 0.8197 0.5583
C25_4 C 0.5653(2) 0.9121(3) 0.48492(17)
H19_4 H 0.5530 0.9490 0.4589
C26_8 C 0.5197(2) 0.8653(3) 0.51150(17)
H20_8 H 0.4694 0.8630 0.5068
N3_8 N 0.63256(16) 0.89614(19) 0.50278(12)
H8_5 H 0.9875 0.4043 0.9966
H9_5 H 0.9016 0.5158 0.9924
H14_5 H 0.7555 0.4652 0.9866
H15_5 H 0.6722 0.4540 0.9983
C23_5 C 0.6993(2) 0.5701(2) 0.98319(15)
H16_5 H 0.7394 0.6060 0.9919
H17_5 H 0.6965 0.5665 0.9455
C25_5 C 0.5653(2) 0.5879(3) 0.98492(17)
H19_5 H 0.5530 0.5510 0.9589
H8_6 H 0.4875 0.0957 0.0034
H14_6 H 0.2555 0.0348 0.0134
H15_6 H 0.1722 0.0460 0.0017
H9_6 H 0.4016 0.9842 0.0076
C23_6 C 0.1993(2) 0.9299(2) 0.01681(15)
H16_6 H 0.2394 0.8940 0.0081
H17_6 H 0.1965 0.9335 0.0545
C25_6 C 0.0653(2) 0.9121(3) 0.01508(17)
H19_6 H 0.0530 0.9490 0.0411
H8_7 H 0.0125 0.5957 0.0034
H9_7 H 0.0984 0.4842 0.0076
H14_7 H 0.2445 0.5348 0.0134
H15_7 H 0.3278 0.5460 0.0017
C23_7 C 0.3007(2) 0.4299(2) 0.01681(15)
H16_7 H 0.2606 0.3940 0.0081
H17_7 H 0.3035 0.4335 0.0545
C25_7 C 0.4347(2) 0.4121(3) 0.01508(17)
H19_7 H 0.4470 0.4490 0.0411
H9_8 H 0.5984 0.0158 0.9924
C23_8 C 0.8007(2) 0.0701(2) 0.98319(15)
H16_8 H 0.7606 0.1060 0.9919
H17_8 H 0.8035 0.0665 0.9455
C25_8 C 0.9347(2) 0.0879(3) 0.98492(17)
H19_8 H 0.9470 0.0510 0.9589
H8_8 H 0.5125 0.9043 0.9966
H14_8 H 0.7445 0.9652 0.9866
H15_8 H 0.8278 0.9540 0.9983
loop_
_geom_bond_atom_site_label_1
_geom_bond_atom_site_label_2
_geom_bond_site_symmetry_1
_geom_bond_site_symmetry_2
C1 C2 1_555 1_555
C2 C3 1_555 1_555
C3 C4 1_555 1_555
C4 O3 1_555 1_555
C5 C3 1_555 1_555
H1 C5 1_555 1_555
C6 C5 1_555 1_555
C7 C6 1_555 1_555
H2 C7 1_555 1_555
C8 C2 1_555 1_555
C9 C6 1_555 1_555
C10 C9 1_555 1_555
H4 C10 1_555 1_555
C11 C10 1_555 1_555
C12 C11 1_555 1_555
C13 C11 1_555 1_555
C14 C13 1_555 1_555
C15 C13 1_555 1_555
H5 C15 1_555 1_555
C16 C9 1_555 1_555
H6 C16 1_555 1_555
C17 H7 1_555 1_555
C19 C18 1_555 1_555
C20 H10 1_555 1_555
H11 C20 1_555 1_555
C21 C20 1_555 1_555
H12 C21 1_555 1_555
H13 C21 1_555 1_555
C22 C21 1_555 1_555
C24 H18 1_555 1_555
H20 C26 1_555 1_555
C27 H21 1_555 1_555
C28 H22 1_555 1_555
C29 C28 1_555 1_555
H23 C29 1_555 1_555
C30 H24 1_555 1_555
H25 C30 1_555 1_555
C31 C30 1_555 1_555
H26 C31 1_555 1_555
C32 C31 1_555 1_555
H27 C32 1_555 1_555
H28 C32 1_555 1_555
C33 C32 1_555 1_555
H29 C33 1_555 1_555
H30 C33 1_555 1_555
C34 H31 1_555 1_555
C35 H32 1_555 1_555
C36 C35 1_555 1_555
H33 C36 1_555 1_555
N1 C17 1_555 1_555
N2 C17 1_555 1_555
N4 C24 1_555 1_555
N5 C27 1_555 1_555
N6 C27 1_555 1_555
N7 C33 1_555 1_555
N8 C34 1_555 1_555
O2 C1 1_555 1_555
O4 C4 1_555 1_555
O5 C12 1_555 1_555
O6 C12 1_555 1_555
O7 C14 1_555 1_555
O8 C14 1_555 1_555
Zn1 N1 1_555 1_555
Zn2 N5 1_555 1_555
N9 Zn1 1_555 1_555
N10 Zn2 1_555 1_555
O9 Zn2 1_555 1_555
Zn3 O5 1_555 1_555
Zn4 N4 1_555 1_555
Zn5 N8 1_555 1_555
Zn6 O4 1_555 1_555
C7 C8 1_555 1_555
C15 C16 1_555 1_555
C18 N1 1_555 1_555
C19 N2 1_555 1_555
C20 N2 1_555 1_555
C24 N3 1_555 1_555
C26 N4 1_555 1_555
C28 N5 1_555 1_555
C29 N6 1_555 1_555
C30 N6 1_555 1_555
C34 N7 1_555 1_555
C35 N7 1_555 1_555
C36 N8 1_555 1_555
O2 Zn1 1_555 1_555
O7 Zn2 1_555 1_555
C31 H34 1_555 1_555
H27_2 C32_2 1_555 1_555
H28_2 C32_2 1_555 1_555
C33_2 C32_2 1_555 1_555
H29_2 C33_2 1_555 1_555
H30_2 C33_2 1_555 1_555
C34_2 H31_2 1_555 1_555
C35_2 H32_2 1_555 1_555
C36_2 C35_2 1_555 1_555
H33_2 C36_2 1_555 1_555
N7_2 C33_2 1_555 1_555
N8_2 C34_2 1_555 1_555
Zn5_2 N8_2 1_555 1_555
C34_2 N7_2 1_555 1_555
C35_2 N7_2 1_555 1_555
C36_2 N8_2 1_555 1_555
C27_2 H21_2 1_555 1_555
C28_2 H22_2 1_555 1_555
C29_2 C28_2 1_555 1_555
C30_2 H24_2 1_555 1_555
H25_2 C30_2 1_555 1_555
C31_2 C30_2 1_555 1_555
H26_2 C31_2 1_555 1_555
N5_2 C27_2 1_555 1_555
N6_2 C27_2 1_555 1_555
O7_2 C14_2 1_555 1_555
O8_2 C14_2 1_555 1_555
Zn2_2 N5_2 1_555 1_555
N10_2 Zn2_2 1_555 1_555
O9_2 Zn2_2 1_555 1_555
C28_2 N5_2 1_555 1_555
C29_2 N6_2 1_555 1_555
C30_2 N6_2 1_555 1_555
O7_2 Zn2_2 1_555 1_555
C31_2 H34_2 1_555 1_555
C1_2 C2_2 1_555 1_555
C2_2 C3_2 1_555 1_555
C3_2 C4_2 1_555 1_555
C4_2 O3_2 1_555 1_555
C5_2 C3_2 1_555 1_555
H1_2 C5_2 1_555 1_555
C6_2 C5_2 1_555 1_555
C7_2 C6_2 1_555 1_555
H2_2 C7_2 1_555 1_555
C8_2 C2_2 1_555 1_555
H3_2 C8_2 1_555 1_555
C9_2 C6_2 1_555 1_555
C10_2 C9_2 1_555 1_555
H4_2 C10_2 1_555 1_555
C11_2 C10_2 1_555 1_555
C12_2 C11_2 1_555 1_555
C13_2 C11_2 1_555 1_555
C15_2 C13_2 1_555 1_555
C16_2 C9_2 1_555 1_555
H6_2 C16_2 1_555 1_555
C17_2 H7_2 1_555 1_555
C18_2 H8 1_555 1_555
C19_2 C18_2 1_555 1_555
H9 C19_2 1_555 1_555
C20_2 H10_2 1_555 1_555
H11_2 C20_2 1_555 1_555
C21_2 C20_2 1_555 1_555
H12_2 C21_2 1_555 1_555
H13_2 C21_2 1_555 1_555
C22_2 C21_2 1_555 1_555
H14 C22_2 1_555 1_555
H15 C22_2 1_555 1_555
C23 C22_2 1_555 1_555
H16 C23 1_555 1_555
H17 C23 1_555 1_555
C24_2 H18_2 1_555 1_555
C25 H19 1_555 1_555
C26_2 C25 1_555 1_555
N1_2 C17_2 1_555 1_555
N2_2 C17_2 1_555 1_555
N3_2 C23 1_555 1_555
N4_2 C24_2 1_555 1_555
O1_2 C1_2 1_555 1_555
O2_2 C1_2 1_555 1_555
O4_2 C4_2 1_555 1_555
O5_2 C12_2 1_555 1_555
O6_2 C12_2 1_555 1_555
Zn1_2 N1_2 1_555 1_555
N9_2 Zn1_2 1_555 1_555
O10_2 Zn1_2 1_555 1_555
Zn4_2 N4_2 1_555 1_555
Zn6_2 O4_2 1_555 1_555
C7_2 C8_2 1_555 1_555
C15_2 C16_2 1_555 1_555
C18_2 N1_2 1_555 1_555
C19_2 N2_2 1_555 1_555
C20_2 N2_2 1_555 1_555
C24_2 N3_2 1_555 1_555
C25 N3_2 1_555 1_555
C26_2 N4_2 1_555 1_555
O2_2 Zn1_2 1_555 1_555
C1_3 C2_3 1_555 1_555
C2_3 C3_3 1_555 1_555
C3_3 C4_3 1_555 1_555
C4_3 O3_3 1_555 1_555
C5_3 C3_3 1_555 1_555
H1_3 C5_3 1_555 1_555
C6_3 C5_3 1_555 1_555
C7_3 C6_3 1_555 1_555
H2_3 C7_3 1_555 1_555
C8_3 C2_3 1_555 1_555
H3_3 C8_3 1_555 1_555
C9_3 C6_3 1_555 1_555
C10_3 C9_3 1_555 1_555
H4_3 C10_3 1_555 1_555
C11_3 C10_3 1_555 1_555
C12_3 C11_3 1_555 1_555
C13_3 C11_3 1_555 1_555
C14_3 C13_3 1_555 1_555
C15_3 C13_3 1_555 1_555
H5_3 C15_3 1_555 1_555
C16_3 C9_3 1_555 1_555
H6_3 C16_3 1_555 1_555
C17_3 H7_3 1_555 1_555
C19_3 C18_3 1_555 1_555
H12_3 C21_3 1_555 1_555
C22_3 C21_3 1_555 1_555
C27_3 H21_3 1_555 1_555
C28_3 H22_3 1_555 1_555
C29_3 C28_3 1_555 1_555
C31_3 C30_3 1_555 1_555
H26_3 C31_3 1_555 1_555
N1_3 C17_3 1_555 1_555
N2_3 C17_3 1_555 1_555
N5_3 C27_3 1_555 1_555
N6_3 C27_3 1_555 1_555
O1_3 C1_3 1_555 1_555
O2_3 C1_3 1_555 1_555
O4_3 C4_3 1_555 1_555
O5_3 C12_3 1_555 1_555
O6_3 C12_3 1_555 1_555
O7_3 C14_3 1_555 1_555
O8_3 C14_3 1_555 1_555
Zn1_3 N1_3 1_555 1_555
Zn5_2 N5_3 1_555 1_555
N9_3 Zn1_3 1_555 1_555
O9_3 Zn5_2 1_555 1_555
O10_3 Zn1_3 1_555 1_555
Zn6_3 O4_3 1_555 1_555
C7_3 C8_3 1_555 1_555
C15_3 C16_3 1_555 1_555
C18_3 N1_3 1_555 1_555
C19_3 N2_3 1_555 1_555
C28_3 N5_3 1_555 1_555
C29_3 N6_3 1_555 1_555
C30_3 N6_3 1_555 1_555
O2_3 Zn1_3 1_555 1_555
O7_3 Zn5_2 1_555 1_555
C31_3 H34_3 1_555 1_555
C20_3 H10_3 1_555 1_555
H11_3 C20_3 1_555 1_555
C24_3 H18_3 1_555 1_555
N4_3 C24_3 1_555 1_555
Zn3_2 N4_3 1_555 1_555
C24_3 N3_3 1_555 1_555
C26_3 N4_3 1_555 1_555
H27_3 C32_3 1_555 1_555
H28_3 C32_3 1_555 1_555
C33_3 C32_3 1_555 1_555
H29_3 C33_3 1_555 1_555
H30_3 C33_3 1_555 1_555
C34_3 H31_3 1_555 1_555
C36_3 C35_3 1_555 1_555
H33_3 C36_3 1_555 1_555
N10_2 C34_3 1_555 1_555
C34_3 N7_3 1_555 1_555
C35_3 N7_3 1_555 1_555
C36_3 N10_2 1_555 1_555
C20_4 H10_4 1_555 1_555
H11_4 C20_4 1_555 1_555
H16_2 C23_2 1_555 1_555
H17_2 C23_2 1_555 1_555
C24_4 H18_4 1_555 1_555
C25_2 H19_2 1_555 1_555
C26_4 C25_2 1_555 1_555
H20_4 C26_4 1_555 1_555
N3_4 C23_2 1_555 1_555
N4_4 C24_4 1_555 1_555
Zn3 N4_4 1_555 1_555
C24_4 N3_4 1_555 1_555
C25_2 N3_4 1_555 1_555
C26_4 N4_4 1_555 1_555
C34_4 H31_4 1_555 1_555
C36_4 C35_4 1_555 1_555
H33_4 C36_4 1_555 1_555
N10 C34_4 1_555 1_555
C34_4 N7_4 1_555 1_555
C35_4 N7_4 1_555 1_555
C36_4 N10 1_555 1_555
C1_4 C2_4 1_555 1_555
C2_4 C3_4 1_555 1_555
C3_4 C4_4 1_555 1_555
C4_4 O3_4 1_555 1_555
C5_4 C3_4 1_555 1_555
H1_4 C5_4 1_555 1_555
C6_4 C5_4 1_555 1_555
C7_4 C6_4 1_555 1_555
H2_4 C7_4 1_555 1_555
C8_4 C2_4 1_555 1_555
C9_4 C6_4 1_555 1_555
C10_4 C9_4 1_555 1_555
H4_4 C10_4 1_555 1_555
C11_4 C10_4 1_555 1_555
C12_4 C11_4 1_555 1_555
C13_4 C11_4 1_555 1_555
C15_4 C13_4 1_555 1_555
C16_4 C9_4 1_555 1_555
H6_4 C16_4 1_555 1_555
C17_4 H7_4 1_555 1_555
C18_4 H8_2 1_555 1_555
C19_4 C18_4 1_555 1_555
H12_4 C21_4 1_555 1_555
C22_4 C21_4 1_555 1_555
H14_2 C22_4 1_555 1_555
H15_2 C22_4 1_555 1_555
N1_4 C17_4 1_555 1_555
N2_4 C17_4 1_555 1_555
O2_4 C1_4 1_555 1_555
O4_4 C4_4 1_555 1_555
O5_4 C12_4 1_555 1_555
O6_4 C12_4 1_555 1_555
Zn1_4 N1_4 1_555 1_555
N9_4 Zn1_4 1_555 1_555
Zn4 O5_4 1_555 1_555
Zn6_4 O4_4 1_555 1_555
C7_4 C8_4 1_555 1_555
C15_4 C16_4 1_555 1_555
C18_4 N1_4 1_555 1_555
C19_4 N2_4 1_555 1_555
O2_4 Zn1_4 1_555 1_555
C27_4 H21_4 1_555 1_555
C28_4 H22_4 1_555 1_555
C29_4 C28_4 1_555 1_555
H23_4 C29_4 1_555 1_555
C31_4 C30_4 1_555 1_555
H26_4 C31_4 1_555 1_555
C32_4 C31_4 1_555 1_555
H27_4 C32_4 1_555 1_555
H28_4 C32_4 1_555 1_555
C33_4 C32_4 1_555 1_555
H29_4 C33_4 1_555 1_555
H30_4 C33_4 1_555 1_555
N5_4 C27_4 1_555 1_555
N6_4 C27_4 1_555 1_555
O7_4 C14_4 1_555 1_555
O8_4 C14_4 1_555 1_555
Zn5 N5_4 1_555 1_555
O9_4 Zn5 1_555 1_555
C28_4 N5_4 1_555 1_555
C29_4 N6_4 1_555 1_555
C30_4 N6_4 1_555 1_555
O7_4 Zn5 1_555 1_555
C31_4 H34_4 1_555 1_555
C1_5 C2_5 1_555 1_555
C2_5 C3_5 1_555 1_555
C3_5 C4_5 1_555 1_555
C4_5 O3_5 1_555 1_555
C5_5 C3_5 1_555 1_555
H1_5 C5_5 1_555 1_555
C6_5 C5_5 1_555 1_555
C7_5 C6_5 1_555 1_555
H2_5 C7_5 1_555 1_555
C8_5 C2_5 1_555 1_555
C9_5 C6_5 1_555 1_555
C10_5 C9_5 1_555 1_555
H4_5 C10_5 1_555 1_555
C11_5 C10_5 1_555 1_555
C12_5 C11_5 1_555 1_555
C13_5 C11_5 1_555 1_555
C14_5 C13_5 1_555 1_555
C15_5 C13_5 1_555 1_555
H5_5 C15_5 1_555 1_555
C16_5 C9_5 1_555 1_555
H6_5 C16_5 1_555 1_555
C17_5 H7_5 1_555 1_555
C19_5 C18_5 1_555 1_555
C20_5 H10_5 1_555 1_555
H11_5 C20_5 1_555 1_555
C21_5 C20_5 1_555 1_555
H12_5 C21_5 1_555 1_555
H13_5 C21_5 1_555 1_555
C22_5 C21_5 1_555 1_555
C24_5 H18_5 1_555 1_555
H20_5 C26_5 1_555 1_555
C27_5 H21_5 1_555 1_555
C28_5 H22_5 1_555 1_555
C29_5 C28_5 1_555 1_555
H23_5 C29_5 1_555 1_555
C30_5 H24_5 1_555 1_555
H25_5 C30_5 1_555 1_555
C31_5 C30_5 1_555 1_555
H26_5 C31_5 1_555 1_555
C32_5 C31_5 1_555 1_555
H27_5 C32_5 1_555 1_555
H28_5 C32_5 1_555 1_555
C33_5 C32_5 1_555 1_555
H29_5 C33_5 1_555 1_555
H30_5 C33_5 1_555 1_555
C34_5 H31_5 1_555 1_555
C35_5 H32_5 1_555 1_555
C36_5 C35_5 1_555 1_555
H33_5 C36_5 1_555 1_555
N1_5 C17_5 1_555 1_555
N2_5 C17_5 1_555 1_555
N9_3 C24_5 1_555 1_555
N5_5 C27_5 1_555 1_555
N6_5 C27_5 1_555 1_555
N7_5 C33_5 1_555 1_555
N8_3 C34_5 1_555 1_555
O2_5 C1_5 1_555 1_555
O9_4 C4_5 1_555 1_555
O10_2 C12_5 1_555 1_555
O6_5 C12_5 1_555 1_555
O7_5 C14_5 1_555 1_555
O8_5 C14_5 1_555 1_555
Zn3_2 N1_5 1_555 1_555
Zn6_4 N5_5 1_555 1_555
N10_3 Zn6_4 1_555 1_555
Zn6 N8_3 1_555 1_555
C7_5 C8_5 1_555 1_555
C15_5 C16_5 1_555 1_555
C18_5 N1_5 1_555 1_555
C19_5 N2_5 1_555 1_555
C20_5 N2_5 1_555 1_555
C24_5 N3_5 1_555 1_555
C26_5 N9_3 1_555 1_555
C28_5 N5_5 1_555 1_555
C29_5 N6_5 1_555 1_555
C30_5 N6_5 1_555 1_555
C34_5 N7_5 1_555 1_555
C35_5 N7_5 1_555 1_555
C36_5 N8_3 1_555 1_555
O2_5 Zn3_2 1_555 1_555
O7_5 Zn6_4 1_555 1_555
C31_5 H34_5 1_555 1_555
C1_6 C2_6 1_555 1_555
C2_6 C3_6 1_555 1_555
C3_6 C4_6 1_555 1_555
C4_6 O3_6 1_555 1_555
C5_6 C3_6 1_555 1_555
H1_6 C5_6 1_555 1_555
C6_6 C5_6 1_555 1_555
C7_6 C6_6 1_555 1_555
H2_6 C7_6 1_555 1_555
C8_6 C2_6 1_555 1_555
H3_6 C8_6 1_555 1_555
C9_6 C6_6 1_555 1_555
C10_6 C9_6 1_555 1_555
H4_6 C10_6 1_555 1_555
C11_6 C10_6 1_555 1_555
C12_6 C11_6 1_555 1_555
C13_6 C11_6 1_555 1_555
C15_6 C13_6 1_555 1_555
C16_6 C9_6 1_555 1_555
H6_6 C16_6 1_555 1_555
C17_6 H7_6 1_555 1_555
C18_6 H8_3 1_555 1_555
C19_6 C18_6 1_555 1_555
H9_3 C19_6 1_555 1_555
C20_6 H10_6 1_555 1_555
H11_6 C20_6 1_555 1_555
C21_6 C20_6 1_555 1_555
H12_6 C21_6 1_555 1_555
H13_6 C21_6 1_555 1_555
C22_6 C21_6 1_555 1_555
H14_3 C22_6 1_555 1_555
H15_3 C22_6 1_555 1_555
C23_3 C22_6 1_555 1_555
H16_3 C23_3 1_555 1_555
H17_3 C23_3 1_555 1_555
C24_6 H18_6 1_555 1_555
C25_3 H19_3 1_555 1_555
C26_6 C25_3 1_555 1_555
N1_6 C17_6 1_555 1_555
N2_6 C17_6 1_555 1_555
N3_6 C23_3 1_555 1_555
N9_4 C24_6 1_555 1_555
O1_6 C1_6 1_555 1_555
O2_6 C1_6 1_555 1_555
O9_3 C4_6 1_555 1_555
O10 C12_6 1_555 1_555
O6_6 C12_6 1_555 1_555
Zn3 N1_6 1_555 1_555
C7_6 C8_6 1_555 1_555
C15_6 C16_6 1_555 1_555
C18_6 N1_6 1_555 1_555
C19_6 N2_6 1_555 1_555
C20_6 N2_6 1_555 1_555
C24_6 N3_6 1_555 1_555
C25_3 N3_6 1_555 1_555
C26_6 N9_4 1_555 1_555
O2_6 Zn3 1_555 1_555
C27_6 H21_6 1_555 1_555
C28_6 H22_6 1_555 1_555
C29_6 C28_6 1_555 1_555
C30_6 H24_6 1_555 1_555
H25_6 C30_6 1_555 1_555
C31_6 C30_6 1_555 1_555
H26_6 C31_6 1_555 1_555
N5_6 C27_6 1_555 1_555
N6_6 C27_6 1_555 1_555
O7_6 C14_6 1_555 1_555
O8_6 C14_6 1_555 1_555
Zn6_3 N5_6 1_555 1_555
N10_4 Zn6_3 1_555 1_555
C28_6 N5_6 1_555 1_555
C29_6 N6_6 1_555 1_555
C30_6 N6_6 1_555 1_555
O7_6 Zn6_3 1_555 1_555
C31_6 H34_6 1_555 1_555
H27_6 C32_6 1_555 1_555
H28_6 C32_6 1_555 1_555
C33_6 C32_6 1_555 1_555
H29_6 C33_6 1_555 1_555
H30_6 C33_6 1_555 1_555
C34_6 H31_6 1_555 1_555
C35_6 H32_6 1_555 1_555
C36_6 C35_6 1_555 1_555
H33_6 C36_6 1_555 1_555
N7_6 C33_6 1_555 1_555
N8_4 C34_6 1_555 1_555
Zn6_2 N8_4 1_555 1_555
C34_6 N7_6 1_555 1_555
C35_6 N7_6 1_555 1_555
C36_6 N8_4 1_555 1_555
C34_7 H31_7 1_555 1_555
C36_7 C35_7 1_555 1_555
H33_7 C36_7 1_555 1_555
N10_4 C34_7 1_555 1_555
C34_7 N7_7 1_555 1_555
C35_7 N7_7 1_555 1_555
C36_7 N10_4 1_555 1_555
H27_7 C32_7 1_555 1_555
H28_7 C32_7 1_555 1_555
C33_7 C32_7 1_555 1_555
H29_7 C33_7 1_555 1_555
H30_7 C33_7 1_555 1_555
C20_7 H10_7 1_555 1_555
H11_7 C20_7 1_555 1_555
C24_7 H18_7 1_555 1_555
N9 C24_7 1_555 1_555
C24_7 N3_7 1_555 1_555
C26_7 N9 1_555 1_555
C1_7 C2_7 1_555 1_555
C2_7 C3_7 1_555 1_555
C3_7 C4_7 1_555 1_555
C4_7 O3_7 1_555 1_555
C5_7 C3_7 1_555 1_555
H1_7 C5_7 1_555 1_555
C6_7 C5_7 1_555 1_555
C7_7 C6_7 1_555 1_555
H2_7 C7_7 1_555 1_555
C8_7 C2_7 1_555 1_555
H3_7 C8_7 1_555 1_555
C9_7 C6_7 1_555 1_555
C10_7 C9_7 1_555 1_555
H4_7 C10_7 1_555 1_555
C11_7 C10_7 1_555 1_555
C12_7 C11_7 1_555 1_555
C13_7 C11_7 1_555 1_555
C14_7 C13_7 1_555 1_555
C15_7 C13_7 1_555 1_555
H5_7 C15_7 1_555 1_555
C16_7 C9_7 1_555 1_555
H6_7 C16_7 1_555 1_555
C17_7 H7_7 1_555 1_555
C19_7 C18_7 1_555 1_555
H12_7 C21_7 1_555 1_555
C22_7 C21_7 1_555 1_555
C27_7 H21_7 1_555 1_555
C28_7 H22_7 1_555 1_555
C29_7 C28_7 1_555 1_555
C31_7 C30_7 1_555 1_555
H26_7 C31_7 1_555 1_555
N1_7 C17_7 1_555 1_555
N2_7 C17_7 1_555 1_555
N5_7 C27_7 1_555 1_555
N6_7 C27_7 1_555 1_555
O1_7 C1_7 1_555 1_555
O2_7 C1_7 1_555 1_555
O9_2 C4_7 1_555 1_555
O10_4 C12_7 1_555 1_555
O6_7 C12_7 1_555 1_555
O7_7 C14_7 1_555 1_555
O8_7 C14_7 1_555 1_555
Zn4 N1_7 1_555 1_555
Zn6_2 N5_7 1_555 1_555
C7_7 C8_7 1_555 1_555
C15_7 C16_7 1_555 1_555
C18_7 N1_7 1_555 1_555
C19_7 N2_7 1_555 1_555
C28_7 N5_7 1_555 1_555
C29_7 N6_7 1_555 1_555
C30_7 N6_7 1_555 1_555
O2_7 Zn4 1_555 1_555
O7_7 Zn6_2 1_555 1_555
C31_7 H34_7 1_555 1_555
C27_8 H21_8 1_555 1_555
C28_8 H22_8 1_555 1_555
C29_8 C28_8 1_555 1_555
H23_8 C29_8 1_555 1_555
C31_8 C30_8 1_555 1_555
H26_8 C31_8 1_555 1_555
C32_8 C31_8 1_555 1_555
H27_8 C32_8 1_555 1_555
H28_8 C32_8 1_555 1_555
C33_8 C32_8 1_555 1_555
H29_8 C33_8 1_555 1_555
H30_8 C33_8 1_555 1_555
N5_8 C27_8 1_555 1_555
N6_8 C27_8 1_555 1_555
O7_8 C14_8 1_555 1_555
O8_8 C14_8 1_555 1_555
Zn6 N5_8 1_555 1_555
C28_8 N5_8 1_555 1_555
C29_8 N6_8 1_555 1_555
C30_8 N6_8 1_555 1_555
O7_8 Zn6 1_555 1_555
C31_8 H34_8 1_555 1_555
C1_8 C2_8 1_555 1_555
C2_8 C3_8 1_555 1_555
C3_8 C4_8 1_555 1_555
C4_8 O3_8 1_555 1_555
C5_8 C3_8 1_555 1_555
H1_8 C5_8 1_555 1_555
C6_8 C5_8 1_555 1_555
C7_8 C6_8 1_555 1_555
H2_8 C7_8 1_555 1_555
C8_8 C2_8 1_555 1_555
C9_8 C6_8 1_555 1_555
C10_8 C9_8 1_555 1_555
H4_8 C10_8 1_555 1_555
C11_8 C10_8 1_555 1_555
C12_8 C11_8 1_555 1_555
C13_8 C11_8 1_555 1_555
C15_8 C13_8 1_555 1_555
C16_8 C9_8 1_555 1_555
H6_8 C16_8 1_555 1_555
C17_8 H7_8 1_555 1_555
C18_8 H8_4 1_555 1_555
C19_8 C18_8 1_555 1_555
H12_8 C21_8 1_555 1_555
C22_8 C21_8 1_555 1_555
H14_4 C22_8 1_555 1_555
H15_4 C22_8 1_555 1_555
N1_8 C17_8 1_555 1_555
N2_8 C17_8 1_555 1_555
O2_8 C1_8 1_555 1_555
O9 C4_8 1_555 1_555
O10_3 C12_8 1_555 1_555
O6_8 C12_8 1_555 1_555
Zn4_2 N1_8 1_555 1_555
C7_8 C8_8 1_555 1_555
C15_8 C16_8 1_555 1_555
C18_8 N1_8 1_555 1_555
C19_8 N2_8 1_555 1_555
O2_8 Zn4_2 1_555 1_555
C34_8 H31_8 1_555 1_555
C36_8 C35_8 1_555 1_555
H33_8 C36_8 1_555 1_555
N10_3 C34_8 1_555 1_555
C34_8 N7_8 1_555 1_555
C35_8 N7_8 1_555 1_555
C36_8 N10_3 1_555 1_555
C20_8 H10_8 1_555 1_555
H11_8 C20_8 1_555 1_555
H16_4 C23_4 1_555 1_555
H17_4 C23_4 1_555 1_555
C24_8 H18_8 1_555 1_555
C25_4 H19_4 1_555 1_555
C26_8 C25_4 1_555 1_555
H20_8 C26_8 1_555 1_555
N3_8 C23_4 1_555 1_555
N9_2 C24_8 1_555 1_555
C24_8 N3_8 1_555 1_555
C25_4 N3_8 1_555 1_555
C26_8 N9_2 1_555 1_555
H16_5 C23_5 1_555 1_555
H17_5 C23_5 1_555 1_555
C25_5 H19_5 1_555 1_555
H16_6 C23_6 1_555 1_555
H17_6 C23_6 1_555 1_555
C25_6 H19_6 1_555 1_555
H16_7 C23_7 1_555 1_555
H17_7 C23_7 1_555 1_555
C25_7 H19_7 1_555 1_555
H16_8 C23_8 1_555 1_555
H17_8 C23_8 1_555 1_555
C25_8 H19_8 1_555 1_555

#END
