
###############################################################################
#
# This file contains modified crystal structure data generated from the
# MOF subset of the Cambridge Structural Database (CSD) v543 
# hosted by the Cambridge Crystallographic Data Centre (CCDC).
#
# This work is licensed under the Creative Commons
# Attribution-NonCommercial-ShareAlike 4.0 International License.
# To view a copy of this license, visit
# http://creativecommons.org/licenses/by-nc-sa/4.0/
# or send a letter to
# Creative Commons, PO Box 1866, Mountain View, CA 94042, USA.
#
# CIF created using the CSD Python API on 29 September 2022
# The structure has been converted into the P1 space group
# The structure has a 3D framework
# The original CSD entry DISCIU is in the monoclinic crystal system
# The framework has been calculated to contain at least 10.0% void space
# The void calculation uses a probe of radius 1.32A, grid spacing 0.4
#
###############################################################################

data_DISCIU
_chemical_formula_moiety         '(C288 H192 Cl48 N96 Zn24)n'
_symmetry_cell_setting           triclinic
_symmetry_space_group_name_H-M   'P 1'
_symmetry_Int_Tables_number      1
_space_group_name_Hall           'P 1'
loop_
_symmetry_equiv_pos_site_id
_symmetry_equiv_pos_as_xyz
1 x,y,z
_cell_length_a                   33.1389(13)
_cell_length_b                   14.5129(4)
_cell_length_c                   32.1744(11)
_cell_angle_alpha                90
_cell_angle_beta                 102.912(3)
_cell_angle_gamma                90
_cell_volume                     15082.7
loop_
_atom_site_label
_atom_site_type_symbol
_atom_site_fract_x
_atom_site_fract_y
_atom_site_fract_z
Zn1 Zn 0.41812(3) 0.13209(5) 0.40638(3)
Cl1 Cl 0.47486(7) 0.15308(15) 0.38193(6)
Cl2 Cl 0.38253(7) 0.24495(10) 0.42722(6)
N1 N 0.43148(18) 0.0336(3) 0.45351(16)
C1 C 0.4064(3) 0.0184(5) 0.4796(2)
H1 H 0.3848 0.0608 0.4804
N14 N 0.37709(17) 0.0597(3) 0.36008(16)
N8 N 0.15958(15) 0.0548(3) 0.10369(15)
C27 C 0.2176(2) 0.0584(4) 0.1630(2)
H19 H 0.2371 0.0937 0.1828
C28 C 0.1880(2) 0.1011(4) 0.1324(2)
H20 H 0.1877 0.1666 0.1316
C32 C 0.3292(2) 0.0617(4) 0.29290(19)
H23 H 0.3135 0.0966 0.2699
C33 C 0.3542(2) 0.1046(4) 0.32700(19)
H24 H 0.3552 0.1700 0.3271
Zn5 Zn 0.11952(3) 0.12531(5) 0.05630(2)
Cl4 Cl 0.10548(6) 0.25403(9) 0.08746(6)
N3 N 0.06880(16) 0.0419(3) 0.04731(16)
C15 C 0.0396(2) 0.0573(4) 0.0689(2)
H12 H 0.0395 0.1146 0.0832
Zn2 Zn 0.61952(3) 0.37469(5) 0.55630(2)
Zn3 Zn 0.30585(3) 0.64692(5) 0.70571(3)
Cl3 Cl 0.64361(6) 0.38174(13) 0.49786(6)
Cl4_2 Cl 0.60548(6) 0.24597(9) 0.58746(6)
Cl5 Cl 0.33731(8) 0.69042(12) 0.77058(6)
Cl6 Cl 0.24580(6) 0.70678(11) 0.67359(7)
C2 C 0.4113(2) 0.9427(4) 0.5054(2)
H2 H 0.3931 0.9338 0.5241
C3 C 0.4416(2) 0.8799(4) 0.50513(18)
C4 C 0.4681(2) 0.8966(4) 0.47877(19)
H3 H 0.4901 0.8552 0.4780
C5 C 0.4624(2) 0.9741(4) 0.4535(2)
H4 H 0.4809 0.9857 0.4355
N2 N 0.34451(18) 0.6654(3) 0.66564(16)
C6 C 0.3337(2) 0.7166(5) 0.6299(2)
H5 H 0.3067 0.7423 0.6230
C7 C 0.3594(2) 0.7336(5) 0.6032(2)
H6 H 0.3503 0.7705 0.5785
C8 C 0.3984(2) 0.6970(4) 0.61226(19)
C9 C 0.4099(2) 0.6425(6) 0.6488(2)
H7 H 0.4364 0.6142 0.6556
C10 C 0.3832(3) 0.6305(5) 0.6741(2)
H8 H 0.3920 0.5952 0.6993
N3_2 N 0.56880(16) 0.4581(3) 0.54731(16)
C11 C 0.56642(19) 0.5360(4) 0.52438(18)
H9 H 0.5859 0.5452 0.5071
C12 C 0.53733(18) 0.6026(4) 0.52461(18)
H10 H 0.5368 0.6571 0.5081
C13 C 0.50830(18) 0.5888(4) 0.54963(19)
C14 C 0.5094(2) 0.5070(4) 0.5715(2)
H11 H 0.4898 0.4949 0.5883
C15_2 C 0.5396(2) 0.4427(4) 0.5689(2)
H12_2 H 0.5395 0.3854 0.5832
C16 C 0.44554(19) 0.7951(4) 0.53205(18)
N4 N 0.42082(16) 0.7880(3) 0.55892(15)
C17 C 0.42634(19) 0.7115(4) 0.58269(19)
N5 N 0.45466(16) 0.6467(3) 0.58123(16)
C18 C 0.47685(19) 0.6602(4) 0.55259(17)
N6 N 0.47372(15) 0.7331(3) 0.52655(14)
N7 N 0.29954(17) 0.5068(3) 0.70972(15)
C19 C 0.2729(2) 0.4605(4) 0.6800(2)
H13 H 0.2572 0.4934 0.6563
C20 C 0.2671(2) 0.3667(4) 0.6822(2)
H14 H 0.2478 0.3360 0.6603
C21 C 0.28949(18) 0.3181(4) 0.71627(17)
C22 C 0.3173(2) 0.3663(4) 0.7470(2)
H15 H 0.3337 0.3350 0.7708
C23 C 0.3210(2) 0.4594(4) 0.7428(2)
H16 H 0.3398 0.4918 0.7646
C24 C 0.1603(2) 0.0374(4) 0.6062(2)
H17 H 0.1402 0.0714 0.5864
C25 C 0.1888(2) 0.0849(4) 0.6360(2)
H18 H 0.1880 0.1503 0.6370
C26 C 0.21872(19) 0.0372(4) 0.66444(18)
C29 C 0.3745(2) 0.0328(4) 0.8599(2)
H21 H 0.3903 0.0660 0.8835
C30 C 0.3502(2) 0.0811(4) 0.82713(19)
H22 H 0.3490 0.1464 0.8282
C31 C 0.32731(18) 0.0342(4) 0.79250(17)
C34 C 0.28398(18) 0.2175(4) 0.71959(17)
N10 N 0.25473(16) 0.1766(3) 0.69084(14)
C35 C 0.25075(18) 0.0864(3) 0.69670(18)
N11 N 0.27263(15) 0.0368(3) 0.72860(14)
C36 C 0.30141(19) 0.0839(4) 0.75578(17)
N12 N 0.30939(15) 0.1748(3) 0.75248(14)
N13 N 0.65958(15) 0.4452(3) 0.60369(15)
H11_2 H 0.9898 0.9949 0.5883
C19_2 C 0.7729(2) 0.9605(4) 0.6800(2)
H13_2 H 0.7572 0.9934 0.6563
C20_2 C 0.7671(2) 0.8667(4) 0.6822(2)
H14_2 H 0.7478 0.8360 0.6603
C21_2 C 0.78949(18) 0.8181(4) 0.71627(17)
C22_2 C 0.8173(2) 0.8663(4) 0.7470(2)
H15_2 H 0.8337 0.8350 0.7708
C23_2 C 0.8210(2) 0.9594(4) 0.7428(2)
H16_2 H 0.8398 0.9918 0.7646
C24_2 C 0.6603(2) 0.5374(4) 0.6062(2)
H17_2 H 0.6402 0.5714 0.5864
C25_2 C 0.6888(2) 0.5849(4) 0.6360(2)
H18_2 H 0.6880 0.6503 0.6370
C26_2 C 0.71872(19) 0.5372(4) 0.66444(18)
C27_2 C 0.7176(2) 0.4416(4) 0.6630(2)
H19_2 H 0.7371 0.4063 0.6828
C28_2 C 0.6880(2) 0.3989(4) 0.6324(2)
H20_2 H 0.6877 0.3334 0.6316
N9 N 0.87709(17) 0.4403(3) 0.86008(16)
C29_2 C 0.8745(2) 0.5328(4) 0.8599(2)
H21_2 H 0.8903 0.5660 0.8835
C30_2 C 0.8502(2) 0.5811(4) 0.82713(19)
H22_2 H 0.8490 0.6464 0.8282
C31_2 C 0.82731(18) 0.5342(4) 0.79250(17)
C32_2 C 0.8292(2) 0.4383(4) 0.79290(19)
H23_2 H 0.8135 0.4034 0.7699
C33_2 C 0.8542(2) 0.3954(4) 0.82700(19)
H24_2 H 0.8552 0.3300 0.8271
C34_2 C 0.78398(18) 0.7175(4) 0.71959(17)
N10_2 N 0.75473(16) 0.6766(3) 0.69084(14)
C35_2 C 0.75075(18) 0.5864(3) 0.69670(18)
N11_2 N 0.77263(15) 0.5368(3) 0.72860(14)
C36_2 C 0.80141(19) 0.5839(4) 0.75578(17)
N12_2 N 0.80939(15) 0.6748(3) 0.75248(14)
Zn4 Zn 0.91812(3) 0.36791(5) 0.90638(3)
Cl1_2 Cl 0.97486(7) 0.34692(15) 0.88193(6)
Cl2_2 Cl 0.88253(7) 0.25505(10) 0.92722(6)
N1_2 N 0.93148(18) 0.4664(3) 0.95351(16)
C1_2 C 0.9064(3) 0.4816(5) 0.9796(2)
H1_2 H 0.8848 0.4392 0.9804
C4_2 C 0.9681(2) 0.6034(4) 0.97877(19)
H3_2 H 0.9901 0.6448 0.9780
C5_2 C 0.9624(2) 0.5259(4) 0.9535(2)
H4_2 H 0.9809 0.5143 0.9355
N8_2 N 0.15958(15) 0.9452(3) 0.60369(15)
C27_3 C 0.2176(2) 0.9416(4) 0.6630(2)
H19_3 H 0.2371 0.9063 0.6828
C28_3 C 0.1880(2) 0.8989(4) 0.6324(2)
H20_3 H 0.1877 0.8334 0.6316
N9_2 N 0.37709(17) 0.9403(3) 0.86008(16)
C32_3 C 0.3292(2) 0.9383(4) 0.79290(19)
H23_3 H 0.3135 0.9034 0.7699
C33_3 C 0.3542(2) 0.8954(4) 0.82700(19)
H24_3 H 0.3552 0.8300 0.8271
Zn4_2 Zn 0.41812(3) 0.86791(5) 0.90638(3)
Zn5_2 Zn 0.11952(3) 0.87469(5) 0.55630(2)
Cl3_2 Cl 0.14361(6) 0.88174(13) 0.49786(6)
Cl4_3 Cl 0.10548(6) 0.74597(9) 0.58746(6)
N3_3 N 0.06880(16) 0.9581(3) 0.54731(16)
C15_3 C 0.0396(2) 0.9427(4) 0.5689(2)
H12_3 H 0.0395 0.8854 0.5832
Cl1_3 Cl 0.47486(7) 0.84692(15) 0.88193(6)
Cl2_3 Cl 0.38253(7) 0.75505(10) 0.92722(6)
N1_3 N 0.43148(18) 0.9664(3) 0.95351(16)
C1_3 C 0.4064(3) 0.9816(5) 0.9796(2)
H1_3 H 0.3848 0.9392 0.9804
Zn1_2 Zn 0.58188(3) 0.13209(5) 0.09362(3)
Cl1_4 Cl 0.52514(7) 0.15308(15) 0.11807(6)
Cl2_4 Cl 0.61747(7) 0.24495(10) 0.07278(6)
N1_4 N 0.56852(18) 0.0336(3) 0.04649(16)
C1_4 C 0.5936(3) 0.0184(5) 0.0204(2)
H1_4 H 0.6152 0.0608 0.0196
N14_2 N 0.62291(17) 0.0597(3) 0.13992(16)
N8_3 N 0.84042(15) 0.0548(3) 0.39631(15)
C27_4 C 0.7824(2) 0.0584(4) 0.3370(2)
H19_4 H 0.7629 0.0937 0.3172
C28_4 C 0.8120(2) 0.1011(4) 0.3676(2)
H20_4 H 0.8123 0.1666 0.3684
C32_4 C 0.6708(2) 0.0617(4) 0.20710(19)
H23_4 H 0.6865 0.0966 0.2301
C33_4 C 0.6458(2) 0.1046(4) 0.17300(19)
H24_4 H 0.6448 0.1700 0.1729
Zn5_3 Zn 0.88048(3) 0.12531(5) 0.44370(2)
Cl3_3 Cl 0.85639(6) 0.11826(13) 0.50214(6)
Cl4_4 Cl 0.89452(6) 0.25403(9) 0.41254(6)
N3_4 N 0.93120(16) 0.0419(3) 0.45269(16)
C15_4 C 0.9604(2) 0.0573(4) 0.4311(2)
H12_4 H 0.9605 0.1146 0.4168
Cl3_4 Cl 0.35639(6) 0.38174(13) 0.00214(6)
C4_3 C 0.5319(2) 0.8966(4) 0.02123(19)
H3_3 H 0.5099 0.8552 0.0220
C5_3 C 0.5376(2) 0.9741(4) 0.0465(2)
H4_3 H 0.5191 0.9857 0.0645
Zn2_2 Zn 0.38048(3) 0.37469(5) 0.94370(2)
Zn3_2 Zn 0.69415(3) 0.64692(5) 0.79429(3)
Cl4_5 Cl 0.39452(6) 0.24597(9) 0.91254(6)
Cl5_2 Cl 0.66269(8) 0.69042(12) 0.72942(6)
Cl6_2 Cl 0.75420(6) 0.70678(11) 0.82641(7)
C2_2 C 0.5887(2) 0.9427(4) 0.9946(2)
H2_2 H 0.6069 0.9338 0.9759
C3_2 C 0.5584(2) 0.8799(4) 0.99487(18)
N2_2 N 0.65549(18) 0.6654(3) 0.83436(16)
C6_2 C 0.6663(2) 0.7166(5) 0.8701(2)
H5_2 H 0.6933 0.7423 0.8770
C7_2 C 0.6406(2) 0.7336(5) 0.8968(2)
H6_2 H 0.6497 0.7705 0.9215
C8_2 C 0.6016(2) 0.6970(4) 0.88774(19)
C9_2 C 0.5901(2) 0.6425(6) 0.8512(2)
H7_2 H 0.5636 0.6142 0.8444
C10_2 C 0.6168(3) 0.6305(5) 0.8259(2)
H8_2 H 0.6080 0.5952 0.8007
N3_5 N 0.43120(16) 0.4581(3) 0.95269(16)
C11_2 C 0.43358(19) 0.5360(4) 0.97562(18)
H9_2 H 0.4141 0.5452 0.9929
C12_2 C 0.46267(18) 0.6026(4) 0.97539(18)
H10_2 H 0.4632 0.6571 0.9919
C13_2 C 0.49170(18) 0.5888(4) 0.95037(19)
C14_2 C 0.4906(2) 0.5070(4) 0.9285(2)
H11_3 H 0.5102 0.4949 0.9117
C15_5 C 0.4604(2) 0.4427(4) 0.9311(2)
H12_5 H 0.4605 0.3854 0.9168
C16_2 C 0.55446(19) 0.7951(4) 0.96795(18)
N4_2 N 0.57918(16) 0.7880(3) 0.94108(15)
C17_2 C 0.57366(19) 0.7115(4) 0.91731(19)
N5_2 N 0.54534(16) 0.6467(3) 0.91877(16)
C18_2 C 0.52315(19) 0.6602(4) 0.94741(17)
N6_2 N 0.52628(15) 0.7331(3) 0.97345(14)
N7_2 N 0.70046(17) 0.5068(3) 0.79028(15)
C19_3 C 0.7271(2) 0.4605(4) 0.8200(2)
H13_3 H 0.7428 0.4934 0.8437
C20_3 C 0.7329(2) 0.3667(4) 0.8178(2)
H14_3 H 0.7522 0.3360 0.8397
C21_3 C 0.71051(18) 0.3181(4) 0.78373(17)
C22_3 C 0.6827(2) 0.3663(4) 0.7530(2)
H15_3 H 0.6663 0.3350 0.7292
C23_3 C 0.6790(2) 0.4594(4) 0.7572(2)
H16_3 H 0.6602 0.4918 0.7354
C24_3 C 0.8397(2) 0.0374(4) 0.8938(2)
H17_3 H 0.8598 0.0714 0.9136
C25_3 C 0.8112(2) 0.0849(4) 0.8640(2)
H18_3 H 0.8120 0.1503 0.8630
C26_3 C 0.78128(19) 0.0372(4) 0.83556(18)
C29_3 C 0.6255(2) 0.0328(4) 0.6401(2)
H21_3 H 0.6097 0.0660 0.6165
C30_3 C 0.6498(2) 0.0811(4) 0.67287(19)
H22_3 H 0.6510 0.1464 0.6718
C31_3 C 0.67269(18) 0.0342(4) 0.70750(17)
C34_3 C 0.71602(18) 0.2175(4) 0.78041(17)
N10_3 N 0.74527(16) 0.1766(3) 0.80916(14)
C35_3 C 0.74925(18) 0.0864(3) 0.80330(18)
N11_3 N 0.72737(15) 0.0368(3) 0.77140(14)
C36_3 C 0.69859(19) 0.0839(4) 0.74422(17)
N12_3 N 0.69061(15) 0.1748(3) 0.74752(14)
N13_2 N 0.34042(15) 0.4452(3) 0.89631(15)
H11_4 H 0.0102 0.9949 0.9117
C19_4 C 0.2271(2) 0.9605(4) 0.8200(2)
H13_4 H 0.2428 0.9934 0.8437
C20_4 C 0.2329(2) 0.8667(4) 0.8178(2)
H14_4 H 0.2522 0.8360 0.8397
C21_4 C 0.21051(18) 0.8181(4) 0.78373(17)
C22_4 C 0.1827(2) 0.8663(4) 0.7530(2)
H15_4 H 0.1663 0.8350 0.7292
C23_4 C 0.1790(2) 0.9594(4) 0.7572(2)
H16_4 H 0.1602 0.9918 0.7354
C24_4 C 0.3397(2) 0.5374(4) 0.8938(2)
H17_4 H 0.3598 0.5714 0.9136
C25_4 C 0.3112(2) 0.5849(4) 0.8640(2)
H18_4 H 0.3120 0.6503 0.8630
C26_4 C 0.28128(19) 0.5372(4) 0.83556(18)
C27_5 C 0.2824(2) 0.4416(4) 0.8370(2)
H19_5 H 0.2629 0.4063 0.8172
C28_5 C 0.3120(2) 0.3989(4) 0.8676(2)
H20_5 H 0.3123 0.3334 0.8684
N9_3 N 0.12291(17) 0.4403(3) 0.63992(16)
C29_4 C 0.1255(2) 0.5328(4) 0.6401(2)
H21_4 H 0.1097 0.5660 0.6165
C30_4 C 0.1498(2) 0.5811(4) 0.67287(19)
H22_4 H 0.1510 0.6464 0.6718
C31_4 C 0.17269(18) 0.5342(4) 0.70750(17)
C32_5 C 0.1708(2) 0.4383(4) 0.70710(19)
H23_5 H 0.1865 0.4034 0.7301
C33_5 C 0.1458(2) 0.3954(4) 0.67300(19)
H24_5 H 0.1448 0.3300 0.6729
C34_4 C 0.21602(18) 0.7175(4) 0.78041(17)
N10_4 N 0.24527(16) 0.6766(3) 0.80916(14)
C35_4 C 0.24925(18) 0.5864(3) 0.80330(18)
N11_4 N 0.22737(15) 0.5368(3) 0.77140(14)
C36_4 C 0.19859(19) 0.5839(4) 0.74422(17)
N12_4 N 0.19061(15) 0.6748(3) 0.74752(14)
Zn4_3 Zn 0.08188(3) 0.36791(5) 0.59362(3)
Zn3_3 Zn 0.19415(3) 0.85308(5) 0.29429(3)
Cl1_5 Cl 0.02514(7) 0.34692(15) 0.61807(6)
Cl2_5 Cl 0.11747(7) 0.25505(10) 0.57278(6)
Cl5_3 Cl 0.16269(8) 0.80958(12) 0.22942(6)
Cl6_3 Cl 0.25420(6) 0.79322(11) 0.32641(7)
N1_5 N 0.06852(18) 0.4664(3) 0.54649(16)
C1_5 C 0.0936(3) 0.4816(5) 0.5204(2)
H1_5 H 0.1152 0.4392 0.5196
C2_3 C 0.0887(2) 0.5573(4) 0.4946(2)
H2_3 H 0.1069 0.5662 0.4759
C3_3 C 0.0584(2) 0.6201(4) 0.49487(18)
C4_4 C 0.0319(2) 0.6034(4) 0.52123(19)
H3_4 H 0.0099 0.6448 0.5220
C5_4 C 0.0376(2) 0.5259(4) 0.5465(2)
H4_4 H 0.0191 0.5143 0.5645
N2_3 N 0.15549(18) 0.8346(3) 0.33436(16)
C6_3 C 0.1663(2) 0.7834(5) 0.3701(2)
H5_3 H 0.1933 0.7577 0.3770
C7_3 C 0.1406(2) 0.7664(5) 0.3968(2)
H6_3 H 0.1497 0.7295 0.4215
C8_3 C 0.1016(2) 0.8030(4) 0.38774(19)
C9_3 C 0.0901(2) 0.8575(6) 0.3512(2)
H7_3 H 0.0636 0.8858 0.3444
C10_3 C 0.1168(3) 0.8695(5) 0.3259(2)
H8_3 H 0.1080 0.9048 0.3007
C16_3 C 0.05446(19) 0.7049(4) 0.46795(18)
N4_3 N 0.07918(16) 0.7120(3) 0.44108(15)
C17_3 C 0.07366(19) 0.7885(4) 0.41731(19)
N5_3 N 0.04534(16) 0.8533(3) 0.41877(16)
C18_3 C 0.02315(19) 0.8398(4) 0.44741(17)
N6_3 N 0.02628(15) 0.7669(3) 0.47345(14)
N7_3 N 0.20046(17) 0.9932(3) 0.29028(15)
N8_4 N 0.84042(15) 0.9452(3) 0.89631(15)
C27_6 C 0.7824(2) 0.9416(4) 0.8370(2)
H19_6 H 0.7629 0.9063 0.8172
C28_6 C 0.8120(2) 0.8989(4) 0.8676(2)
H20_6 H 0.8123 0.8334 0.8684
N9_4 N 0.62291(17) 0.9403(3) 0.63992(16)
C32_6 C 0.6708(2) 0.9383(4) 0.70710(19)
H23_6 H 0.6865 0.9034 0.7301
C33_6 C 0.6458(2) 0.8954(4) 0.67300(19)
H24_6 H 0.6448 0.8300 0.6729
Zn4_4 Zn 0.58188(3) 0.86791(5) 0.59362(3)
Zn5_4 Zn 0.88048(3) 0.87469(5) 0.94370(2)
Cl4_6 Cl 0.89452(6) 0.74597(9) 0.91254(6)
N3_6 N 0.93120(16) 0.9581(3) 0.95269(16)
C15_6 C 0.9604(2) 0.9427(4) 0.9311(2)
H12_6 H 0.9605 0.8854 0.9168
Cl1_6 Cl 0.52514(7) 0.84692(15) 0.61807(6)
Cl2_6 Cl 0.61747(7) 0.75505(10) 0.57278(6)
N1_6 N 0.56852(18) 0.9664(3) 0.54649(16)
C1_6 C 0.5936(3) 0.9816(5) 0.5204(2)
H1_6 H 0.6152 0.9392 0.5196
C11_3 C 0.06642(19) 0.0360(4) 0.52438(18)
H9_3 H 0.0859 0.0452 0.5071
C12_3 C 0.03733(18) 0.1026(4) 0.52461(18)
H10_3 H 0.0368 0.1571 0.5081
C13_3 C 0.00830(18) 0.0888(4) 0.54963(19)
C14_3 C 0.0094(2) 0.0070(4) 0.5715(2)
Zn1_3 Zn 0.91812(3) 0.63209(5) 0.40638(3)
Zn3_4 Zn 0.80585(3) 0.14692(5) 0.70571(3)
Cl1_7 Cl 0.97486(7) 0.65308(15) 0.38193(6)
Cl2_7 Cl 0.88253(7) 0.74495(10) 0.42722(6)
Cl5_4 Cl 0.83731(8) 0.19042(12) 0.77058(6)
Cl6_4 Cl 0.74580(6) 0.20678(11) 0.67359(7)
N1_7 N 0.93148(18) 0.5336(3) 0.45351(16)
C1_7 C 0.9064(3) 0.5184(5) 0.4796(2)
H1_7 H 0.8848 0.5608 0.4804
C2_4 C 0.9113(2) 0.4427(4) 0.5054(2)
H2_4 H 0.8931 0.4338 0.5241
C3_4 C 0.9416(2) 0.3799(4) 0.50513(18)
C4_5 C 0.9681(2) 0.3966(4) 0.47877(19)
H3_5 H 0.9901 0.3552 0.4780
C5_5 C 0.9624(2) 0.4741(4) 0.4535(2)
H4_5 H 0.9809 0.4857 0.4355
N2_4 N 0.84451(18) 0.1654(3) 0.66564(16)
C6_4 C 0.8337(2) 0.2166(5) 0.6299(2)
H5_4 H 0.8067 0.2423 0.6230
C7_4 C 0.8594(2) 0.2336(5) 0.6032(2)
H6_4 H 0.8503 0.2705 0.5785
C8_4 C 0.8984(2) 0.1970(4) 0.61226(19)
C9_4 C 0.9099(2) 0.1425(6) 0.6488(2)
H7_4 H 0.9364 0.1142 0.6556
C10_4 C 0.8832(3) 0.1305(5) 0.6741(2)
H8_4 H 0.8920 0.0952 0.6993
C16_4 C 0.94554(19) 0.2951(4) 0.53205(18)
N4_4 N 0.92082(16) 0.2880(3) 0.55892(15)
C17_4 C 0.92634(19) 0.2115(4) 0.58269(19)
N5_4 N 0.95466(16) 0.1467(3) 0.58123(16)
C18_4 C 0.97685(19) 0.1602(4) 0.55259(17)
N6_4 N 0.97372(15) 0.2331(3) 0.52655(14)
N7_4 N 0.79954(17) 0.0068(3) 0.70972(15)
N14_3 N 0.87709(17) 0.5597(3) 0.36008(16)
Zn2_3 Zn 0.61952(3) 0.62531(5) 0.05630(2)
Zn3_5 Zn 0.30585(3) 0.35308(5) 0.20571(3)
Cl4_7 Cl 0.60548(6) 0.75403(9) 0.08746(6)
Cl5_5 Cl 0.33731(8) 0.30958(12) 0.27058(6)
Cl6_5 Cl 0.24580(6) 0.29322(11) 0.17359(7)
C2_5 C 0.4113(2) 0.0573(4) 0.0054(2)
H2_5 H 0.3931 0.0662 0.0241
C3_5 C 0.4416(2) 0.1201(4) 0.00513(18)
N2_5 N 0.34451(18) 0.3346(3) 0.16564(16)
C6_5 C 0.3337(2) 0.2834(5) 0.1299(2)
H5_5 H 0.3067 0.2577 0.1230
C7_5 C 0.3594(2) 0.2664(5) 0.1032(2)
H6_5 H 0.3503 0.2295 0.0785
C8_5 C 0.3984(2) 0.3030(4) 0.11226(19)
C9_5 C 0.4099(2) 0.3575(6) 0.1488(2)
H7_5 H 0.4364 0.3858 0.1556
C10_5 C 0.3832(3) 0.3695(5) 0.1741(2)
H8_5 H 0.3920 0.4048 0.1993
N3_7 N 0.56880(16) 0.5419(3) 0.04731(16)
C11_4 C 0.56642(19) 0.4640(4) 0.02438(18)
H9_4 H 0.5859 0.4548 0.0071
C12_4 C 0.53733(18) 0.3974(4) 0.02461(18)
H10_4 H 0.5368 0.3429 0.0081
C13_4 C 0.50830(18) 0.4112(4) 0.04963(19)
C14_4 C 0.5094(2) 0.4930(4) 0.0715(2)
H11_5 H 0.4898 0.5051 0.0883
C15_7 C 0.5396(2) 0.5573(4) 0.0689(2)
H12_7 H 0.5395 0.6146 0.0832
C16_5 C 0.44554(19) 0.2049(4) 0.03205(18)
N4_5 N 0.42082(16) 0.2120(3) 0.05892(15)
C17_5 C 0.42634(19) 0.2885(4) 0.08269(19)
N5_5 N 0.45466(16) 0.3533(3) 0.08123(16)
C18_5 C 0.47685(19) 0.3398(4) 0.05259(17)
N6_5 N 0.47372(15) 0.2669(3) 0.02655(14)
N7_5 N 0.29954(17) 0.4932(3) 0.20972(15)
C19_5 C 0.2729(2) 0.5395(4) 0.1800(2)
H13_5 H 0.2572 0.5066 0.1563
C20_5 C 0.2671(2) 0.6333(4) 0.1822(2)
H14_5 H 0.2478 0.6640 0.1603
C21_5 C 0.28949(18) 0.6819(4) 0.21627(17)
C22_5 C 0.3173(2) 0.6337(4) 0.2470(2)
H15_5 H 0.3337 0.6650 0.2708
C23_5 C 0.3210(2) 0.5406(4) 0.2428(2)
H16_5 H 0.3398 0.5082 0.2646
C24_5 C 0.1603(2) 0.9626(4) 0.1062(2)
H17_5 H 0.1402 0.9286 0.0864
C25_5 C 0.1888(2) 0.9151(4) 0.1360(2)
H18_5 H 0.1880 0.8497 0.1370
C26_5 C 0.21872(19) 0.9628(4) 0.16444(18)
C29_5 C 0.3745(2) 0.9672(4) 0.3599(2)
H21_5 H 0.3903 0.9340 0.3835
C30_5 C 0.3502(2) 0.9189(4) 0.32713(19)
H22_5 H 0.3490 0.8536 0.3282
C31_5 C 0.32731(18) 0.9658(4) 0.29250(17)
C34_5 C 0.28398(18) 0.7825(4) 0.21959(17)
N10_5 N 0.25473(16) 0.8234(3) 0.19084(14)
C35_5 C 0.25075(18) 0.9136(3) 0.19670(18)
N11_5 N 0.27263(15) 0.9632(3) 0.22860(14)
C36_5 C 0.30141(19) 0.9161(4) 0.25578(17)
N12_5 N 0.30939(15) 0.8252(3) 0.25248(14)
N13_3 N 0.65958(15) 0.5548(3) 0.10369(15)
H11_6 H 0.9898 0.0051 0.0883
C19_6 C 0.7729(2) 0.0395(4) 0.1800(2)
H13_6 H 0.7572 0.0066 0.1563
C20_6 C 0.7671(2) 0.1333(4) 0.1822(2)
H14_6 H 0.7478 0.1640 0.1603
C21_6 C 0.78949(18) 0.1819(4) 0.21627(17)
C22_6 C 0.8173(2) 0.1337(4) 0.2470(2)
H15_6 H 0.8337 0.1650 0.2708
C23_6 C 0.8210(2) 0.0406(4) 0.2428(2)
H16_6 H 0.8398 0.0082 0.2646
C24_6 C 0.6603(2) 0.4626(4) 0.1062(2)
H17_6 H 0.6402 0.4286 0.0864
C25_6 C 0.6888(2) 0.4151(4) 0.1360(2)
H18_6 H 0.6880 0.3497 0.1370
C26_6 C 0.71872(19) 0.4628(4) 0.16444(18)
C27_7 C 0.7176(2) 0.5584(4) 0.1630(2)
H19_7 H 0.7371 0.5937 0.1828
C28_7 C 0.6880(2) 0.6011(4) 0.1324(2)
H20_7 H 0.6877 0.6666 0.1316
C29_6 C 0.8745(2) 0.4672(4) 0.3599(2)
H21_6 H 0.8903 0.4340 0.3835
C30_6 C 0.8502(2) 0.4189(4) 0.32713(19)
H22_6 H 0.8490 0.3536 0.3282
C31_6 C 0.82731(18) 0.4658(4) 0.29250(17)
C32_7 C 0.8292(2) 0.5617(4) 0.29290(19)
H23_7 H 0.8135 0.5966 0.2699
C33_7 C 0.8542(2) 0.6046(4) 0.32700(19)
H24_7 H 0.8552 0.6700 0.3271
C34_6 C 0.78398(18) 0.2825(4) 0.21959(17)
N10_6 N 0.75473(16) 0.3234(3) 0.19084(14)
C35_6 C 0.75075(18) 0.4136(3) 0.19670(18)
N11_6 N 0.77263(15) 0.4632(3) 0.22860(14)
C36_6 C 0.80141(19) 0.4161(4) 0.25578(17)
N12_6 N 0.80939(15) 0.3252(3) 0.25248(14)
Zn1_4 Zn 0.08188(3) 0.63209(5) 0.09362(3)
Cl1_8 Cl 0.02514(7) 0.65308(15) 0.11807(6)
Cl2_8 Cl 0.11747(7) 0.74495(10) 0.07278(6)
N1_8 N 0.06852(18) 0.5336(3) 0.04649(16)
C1_8 C 0.0936(3) 0.5184(5) 0.0204(2)
H1_8 H 0.1152 0.5608 0.0196
C4_6 C 0.0319(2) 0.3966(4) 0.02123(19)
H3_6 H 0.0099 0.3552 0.0220
C5_6 C 0.0376(2) 0.4741(4) 0.0465(2)
H4_6 H 0.0191 0.4857 0.0645
N14_4 N 0.12291(17) 0.5597(3) 0.13992(16)
Zn2_4 Zn 0.38048(3) 0.62531(5) 0.44370(2)
Zn3_6 Zn 0.69415(3) 0.35308(5) 0.29429(3)
Cl3_5 Cl 0.35639(6) 0.61826(13) 0.50214(6)
Cl4_8 Cl 0.39452(6) 0.75403(9) 0.41254(6)
Cl5_6 Cl 0.66269(8) 0.30958(12) 0.22942(6)
Cl6_6 Cl 0.75420(6) 0.29322(11) 0.32641(7)
C2_6 C 0.5887(2) 0.0573(4) 0.4946(2)
H2_6 H 0.6069 0.0662 0.4759
C3_6 C 0.5584(2) 0.1201(4) 0.49487(18)
C4_7 C 0.5319(2) 0.1034(4) 0.52123(19)
H3_7 H 0.5099 0.1448 0.5220
C5_7 C 0.5376(2) 0.0259(4) 0.5465(2)
H4_7 H 0.5191 0.0143 0.5645
N2_6 N 0.65549(18) 0.3346(3) 0.33436(16)
C6_6 C 0.6663(2) 0.2834(5) 0.3701(2)
H5_6 H 0.6933 0.2577 0.3770
C7_6 C 0.6406(2) 0.2664(5) 0.3968(2)
H6_6 H 0.6497 0.2295 0.4215
C8_6 C 0.6016(2) 0.3030(4) 0.38774(19)
C9_6 C 0.5901(2) 0.3575(6) 0.3512(2)
H7_6 H 0.5636 0.3858 0.3444
C10_6 C 0.6168(3) 0.3695(5) 0.3259(2)
H8_6 H 0.6080 0.4048 0.3007
N3_8 N 0.43120(16) 0.5419(3) 0.45269(16)
C11_5 C 0.43358(19) 0.4640(4) 0.47562(18)
H9_5 H 0.4141 0.4548 0.4929
C12_5 C 0.46267(18) 0.3974(4) 0.47539(18)
H10_5 H 0.4632 0.3429 0.4919
C13_5 C 0.49170(18) 0.4112(4) 0.45037(19)
C14_5 C 0.4906(2) 0.4930(4) 0.4285(2)
H11_7 H 0.5102 0.5051 0.4117
C15_8 C 0.4604(2) 0.5573(4) 0.4311(2)
H12_8 H 0.4605 0.6146 0.4168
C16_6 C 0.55446(19) 0.2049(4) 0.46795(18)
N4_6 N 0.57918(16) 0.2120(3) 0.44108(15)
C17_6 C 0.57366(19) 0.2885(4) 0.41731(19)
N5_6 N 0.54534(16) 0.3533(3) 0.41877(16)
C18_6 C 0.52315(19) 0.3398(4) 0.44741(17)
N6_6 N 0.52628(15) 0.2669(3) 0.47345(14)
N7_6 N 0.70046(17) 0.4932(3) 0.29028(15)
C19_7 C 0.7271(2) 0.5395(4) 0.3200(2)
H13_7 H 0.7428 0.5066 0.3437
C20_7 C 0.7329(2) 0.6333(4) 0.3178(2)
H14_7 H 0.7522 0.6640 0.3397
C21_7 C 0.71051(18) 0.6819(4) 0.28373(17)
C22_7 C 0.6827(2) 0.6337(4) 0.2530(2)
H15_7 H 0.6663 0.6650 0.2292
C23_7 C 0.6790(2) 0.5406(4) 0.2572(2)
H16_7 H 0.6602 0.5082 0.2354
C24_7 C 0.8397(2) 0.9626(4) 0.3938(2)
H17_7 H 0.8598 0.9286 0.4136
C25_7 C 0.8112(2) 0.9151(4) 0.3640(2)
H18_7 H 0.8120 0.8497 0.3630
C26_7 C 0.78128(19) 0.9628(4) 0.33556(18)
C29_7 C 0.6255(2) 0.9672(4) 0.1401(2)
H21_7 H 0.6097 0.9340 0.1165
C30_7 C 0.6498(2) 0.9189(4) 0.17287(19)
H22_7 H 0.6510 0.8536 0.1718
C31_7 C 0.67269(18) 0.9658(4) 0.20750(17)
C34_7 C 0.71602(18) 0.7825(4) 0.28041(17)
N10_7 N 0.74527(16) 0.8234(3) 0.30916(14)
C35_7 C 0.74925(18) 0.9136(3) 0.30330(18)
N11_7 N 0.72737(15) 0.9632(3) 0.27140(14)
C36_7 C 0.69859(19) 0.9161(4) 0.24422(17)
N12_7 N 0.69061(15) 0.8252(3) 0.24752(14)
N13_4 N 0.34042(15) 0.5548(3) 0.39631(15)
H11_8 H 0.0102 0.0051 0.4117
C19_8 C 0.2271(2) 0.0395(4) 0.3200(2)
H13_8 H 0.2428 0.0066 0.3437
C20_8 C 0.2329(2) 0.1333(4) 0.3178(2)
H14_8 H 0.2522 0.1640 0.3397
C21_8 C 0.21051(18) 0.1819(4) 0.28373(17)
C22_8 C 0.1827(2) 0.1337(4) 0.2530(2)
H15_8 H 0.1663 0.1650 0.2292
C23_8 C 0.1790(2) 0.0406(4) 0.2572(2)
H16_8 H 0.1602 0.0082 0.2354
C24_8 C 0.3397(2) 0.4626(4) 0.3938(2)
H17_8 H 0.3598 0.4286 0.4136
C25_8 C 0.3112(2) 0.4151(4) 0.3640(2)
H18_8 H 0.3120 0.3497 0.3630
C26_8 C 0.28128(19) 0.4628(4) 0.33556(18)
C27_8 C 0.2824(2) 0.5584(4) 0.3370(2)
H19_8 H 0.2629 0.5937 0.3172
C28_8 C 0.3120(2) 0.6011(4) 0.3676(2)
H20_8 H 0.3123 0.6666 0.3684
C29_8 C 0.1255(2) 0.4672(4) 0.1401(2)
H21_8 H 0.1097 0.4340 0.1165
C30_8 C 0.1498(2) 0.4189(4) 0.17287(19)
H22_8 H 0.1510 0.3536 0.1718
C31_8 C 0.17269(18) 0.4658(4) 0.20750(17)
C32_8 C 0.1708(2) 0.5617(4) 0.20710(19)
H23_8 H 0.1865 0.5966 0.2301
C33_8 C 0.1458(2) 0.6046(4) 0.17300(19)
H24_8 H 0.1448 0.6700 0.1729
C34_8 C 0.21602(18) 0.2825(4) 0.28041(17)
N10_8 N 0.24527(16) 0.3234(3) 0.30916(14)
C35_8 C 0.24925(18) 0.4136(3) 0.30330(18)
N11_8 N 0.22737(15) 0.4632(3) 0.27140(14)
C36_8 C 0.19859(19) 0.4161(4) 0.24422(17)
N12_8 N 0.19061(15) 0.3252(3) 0.24752(14)
Zn3_7 Zn 0.19415(3) 0.14692(5) 0.79429(3)
Cl5_7 Cl 0.16269(8) 0.19042(12) 0.72942(6)
Cl6_7 Cl 0.25420(6) 0.20678(11) 0.82641(7)
C2_7 C 0.0887(2) 0.4427(4) 0.9946(2)
H2_7 H 0.1069 0.4338 0.9759
C3_7 C 0.0584(2) 0.3799(4) 0.99487(18)
N2_7 N 0.15549(18) 0.1654(3) 0.83436(16)
C6_7 C 0.1663(2) 0.2166(5) 0.8701(2)
H5_7 H 0.1933 0.2423 0.8770
C7_7 C 0.1406(2) 0.2336(5) 0.8968(2)
H6_7 H 0.1497 0.2705 0.9215
C8_7 C 0.1016(2) 0.1970(4) 0.88774(19)
C9_7 C 0.0901(2) 0.1425(6) 0.8512(2)
H7_7 H 0.0636 0.1142 0.8444
C10_7 C 0.1168(3) 0.1305(5) 0.8259(2)
H8_7 H 0.1080 0.0952 0.8007
C16_7 C 0.05446(19) 0.2951(4) 0.96795(18)
N4_7 N 0.07918(16) 0.2880(3) 0.94108(15)
C17_7 C 0.07366(19) 0.2115(4) 0.91731(19)
N5_7 N 0.04534(16) 0.1467(3) 0.91877(16)
C18_7 C 0.02315(19) 0.1602(4) 0.94741(17)
N6_7 N 0.02628(15) 0.2331(3) 0.97345(14)
N7_7 N 0.20046(17) 0.0068(3) 0.79028(15)
C11_6 C 0.93358(19) 0.0360(4) 0.97562(18)
H9_6 H 0.9141 0.0452 0.9929
C12_6 C 0.96267(18) 0.1026(4) 0.97539(18)
H10_6 H 0.9632 0.1571 0.9919
C13_6 C 0.99170(18) 0.0888(4) 0.95037(19)
C14_6 C 0.9906(2) 0.0070(4) 0.9285(2)
Cl3_6 Cl 0.85639(6) 0.88174(13) 0.00214(6)
Cl3_7 Cl 0.64361(6) 0.61826(13) 0.99786(6)
C4_8 C 0.4681(2) 0.1034(4) 0.97877(19)
H3_8 H 0.4901 0.1448 0.9780
C5_8 C 0.4624(2) 0.0259(4) 0.9535(2)
H4_8 H 0.4809 0.0143 0.9355
C11_7 C 0.93358(19) 0.9640(4) 0.47562(18)
H9_7 H 0.9141 0.9548 0.4929
C12_7 C 0.96267(18) 0.8974(4) 0.47539(18)
H10_7 H 0.9632 0.8429 0.4919
C13_7 C 0.99170(18) 0.9112(4) 0.45037(19)
C14_7 C 0.9906(2) 0.9930(4) 0.4285(2)
Cl3_8 Cl 0.14361(6) 0.11826(13) 0.99786(6)
C11_8 C 0.06642(19) 0.9640(4) 0.02438(18)
H9_8 H 0.0859 0.9548 0.0071
C12_8 C 0.03733(18) 0.8974(4) 0.02461(18)
H10_8 H 0.0368 0.8429 0.0081
C13_8 C 0.00830(18) 0.9112(4) 0.04963(19)
C14_8 C 0.0094(2) 0.9930(4) 0.0715(2)
Zn3_8 Zn 0.80585(3) 0.85308(5) 0.20571(3)
Cl5_8 Cl 0.83731(8) 0.80958(12) 0.27058(6)
Cl6_8 Cl 0.74580(6) 0.79322(11) 0.17359(7)
C2_8 C 0.9113(2) 0.5573(4) 0.0054(2)
H2_8 H 0.8931 0.5662 0.0241
C3_8 C 0.9416(2) 0.6201(4) 0.00513(18)
N2_8 N 0.84451(18) 0.8346(3) 0.16564(16)
C6_8 C 0.8337(2) 0.7834(5) 0.1299(2)
H5_8 H 0.8067 0.7577 0.1230
C7_8 C 0.8594(2) 0.7664(5) 0.1032(2)
H6_8 H 0.8503 0.7295 0.0785
C8_8 C 0.8984(2) 0.8030(4) 0.11226(19)
C9_8 C 0.9099(2) 0.8575(6) 0.1488(2)
H7_8 H 0.9364 0.8858 0.1556
C10_8 C 0.8832(3) 0.8695(5) 0.1741(2)
H8_8 H 0.8920 0.9048 0.1993
C16_8 C 0.94554(19) 0.7049(4) 0.03205(18)
N4_8 N 0.92082(16) 0.7120(3) 0.05892(15)
C17_8 C 0.92634(19) 0.7885(4) 0.08269(19)
N5_8 N 0.95466(16) 0.8533(3) 0.08123(16)
C18_8 C 0.97685(19) 0.8398(4) 0.05259(17)
N6_8 N 0.97372(15) 0.7669(3) 0.02655(14)
N7_8 N 0.79954(17) 0.9932(3) 0.20972(15)
loop_
_geom_bond_atom_site_label_1
_geom_bond_atom_site_label_2
_geom_bond_site_symmetry_1
_geom_bond_site_symmetry_2
Zn1 Cl1 1_555 1_555
Cl2 Zn1 1_555 1_555
N1 Zn1 1_555 1_555
C1 N1 1_555 1_555
H1 C1 1_555 1_555
N14 Zn1 1_555 1_555
H19 C27 1_555 1_555
C28 N8 1_555 1_555
H20 C28 1_555 1_555
H23 C32 1_555 1_555
C33 N14 1_555 1_555
H24 C33 1_555 1_555
Zn5 N8 1_555 1_555
C27 C28 1_555 1_555
C32 C33 1_555 1_555
Cl4 Zn5 1_555 1_555
N3 Zn5 1_555 1_555
C15 N3 1_555 1_555
H12 C15 1_555 1_555
Zn2 Cl3 1_555 1_555
Zn3 Cl5 1_555 1_555
Cl4_2 Zn2 1_555 1_555
Cl6 Zn3 1_555 1_555
H2 C2 1_555 1_555
C3 C2 1_555 1_555
C4 C3 1_555 1_555
H3 C4 1_555 1_555
H4 C5 1_555 1_555
N2 Zn3 1_555 1_555
C6 N2 1_555 1_555
H5 C6 1_555 1_555
C7 C6 1_555 1_555
H6 C7 1_555 1_555
C8 C7 1_555 1_555
C9 C8 1_555 1_555
H7 C9 1_555 1_555
C10 N2 1_555 1_555
H8 C10 1_555 1_555
N3_2 Zn2 1_555 1_555
C11 N3_2 1_555 1_555
H9 C11 1_555 1_555
C12 C11 1_555 1_555
H10 C12 1_555 1_555
C13 C12 1_555 1_555
C14 C13 1_555 1_555
H11 C14 1_555 1_555
C15_2 N3_2 1_555 1_555
H12_2 C15_2 1_555 1_555
C16 C3 1_555 1_555
N4 C16 1_555 1_555
C17 C8 1_555 1_555
N5 C17 1_555 1_555
C18 C13 1_555 1_555
N6 C16 1_555 1_555
N7 Zn3 1_555 1_555
C19 N7 1_555 1_555
H13 C19 1_555 1_555
C20 C19 1_555 1_555
H14 C20 1_555 1_555
C21 C20 1_555 1_555
C22 C21 1_555 1_555
H15 C22 1_555 1_555
C23 N7 1_555 1_555
H16 C23 1_555 1_555
C24 H17 1_555 1_555
C25 C24 1_555 1_555
H18 C25 1_555 1_555
C26 C25 1_555 1_555
C29 H21 1_555 1_555
C30 C29 1_555 1_555
H22 C30 1_555 1_555
C31 C30 1_555 1_555
C34 C21 1_555 1_555
N10 C34 1_555 1_555
C35 C26 1_555 1_555
N11 C35 1_555 1_555
C36 C31 1_555 1_555
N12 C34 1_555 1_555
N13 Zn2 1_555 1_555
C4 C5 1_555 1_555
C9 C10 1_555 1_555
C14 C15_2 1_555 1_555
N4 C17 1_555 1_555
N5 C18 1_555 1_555
C18 N6 1_555 1_555
C22 C23 1_555 1_555
N10 C35 1_555 1_555
N11 C36 1_555 1_555
C36 N12 1_555 1_555
H13_2 C19_2 1_555 1_555
C20_2 C19_2 1_555 1_555
H14_2 C20_2 1_555 1_555
C21_2 C20_2 1_555 1_555
C22_2 C21_2 1_555 1_555
H15_2 C22_2 1_555 1_555
H16_2 C23_2 1_555 1_555
N13 C24_2 1_555 1_555
C24_2 H17_2 1_555 1_555
C25_2 C24_2 1_555 1_555
H18_2 C25_2 1_555 1_555
C26_2 C25_2 1_555 1_555
C27_2 C26_2 1_555 1_555
H19_2 C27_2 1_555 1_555
C28_2 N13 1_555 1_555
H20_2 C28_2 1_555 1_555
N9 C29_2 1_555 1_555
C29_2 H21_2 1_555 1_555
C30_2 C29_2 1_555 1_555
H22_2 C30_2 1_555 1_555
C31_2 C30_2 1_555 1_555
C32_2 C31_2 1_555 1_555
H23_2 C32_2 1_555 1_555
C33_2 N9 1_555 1_555
H24_2 C33_2 1_555 1_555
C34_2 C21_2 1_555 1_555
N10_2 C34_2 1_555 1_555
C35_2 C26_2 1_555 1_555
N11_2 C35_2 1_555 1_555
C36_2 C31_2 1_555 1_555
N12_2 C34_2 1_555 1_555
Zn4 N9 1_555 1_555
C22_2 C23_2 1_555 1_555
C27_2 C28_2 1_555 1_555
C32_2 C33_2 1_555 1_555
N10_2 C35_2 1_555 1_555
N11_2 C36_2 1_555 1_555
C36_2 N12_2 1_555 1_555
Zn4 Cl1_2 1_555 1_555
Cl2_2 Zn4 1_555 1_555
N1_2 Zn4 1_555 1_555
C1_2 N1_2 1_555 1_555
H1_2 C1_2 1_555 1_555
H3_2 C4_2 1_555 1_555
C5_2 N1_2 1_555 1_555
H4_2 C5_2 1_555 1_555
C4_2 C5_2 1_555 1_555
H19_3 C27_3 1_555 1_555
C28_3 N8_2 1_555 1_555
H20_3 C28_3 1_555 1_555
H23_3 C32_3 1_555 1_555
C33_3 N9_2 1_555 1_555
H24_3 C33_3 1_555 1_555
Zn4_2 N9_2 1_555 1_555
Zn5_2 N8_2 1_555 1_555
C27_3 C28_3 1_555 1_555
C32_3 C33_3 1_555 1_555
Zn5_2 Cl3_2 1_555 1_555
Cl4_3 Zn5_2 1_555 1_555
N3_3 Zn5_2 1_555 1_555
C15_3 N3_3 1_555 1_555
H12_3 C15_3 1_555 1_555
Zn4_2 Cl1_3 1_555 1_555
Cl2_3 Zn4_2 1_555 1_555
N1_3 Zn4_2 1_555 1_555
C1_3 N1_3 1_555 1_555
H1_3 C1_3 1_555 1_555
Zn1_2 Cl1_4 1_555 1_555
Cl2_4 Zn1_2 1_555 1_555
N1_4 Zn1_2 1_555 1_555
C1_4 N1_4 1_555 1_555
H1_4 C1_4 1_555 1_555
N14_2 Zn1_2 1_555 1_555
H19_4 C27_4 1_555 1_555
C28_4 N8_3 1_555 1_555
H20_4 C28_4 1_555 1_555
H23_4 C32_4 1_555 1_555
C33_4 N14_2 1_555 1_555
H24_4 C33_4 1_555 1_555
Zn5_3 N8_3 1_555 1_555
C27_4 C28_4 1_555 1_555
C32_4 C33_4 1_555 1_555
Zn5_3 Cl3_3 1_555 1_555
Cl4_4 Zn5_3 1_555 1_555
N3_4 Zn5_3 1_555 1_555
C15_4 N3_4 1_555 1_555
H12_4 C15_4 1_555 1_555
H3_3 C4_3 1_555 1_555
H4_3 C5_3 1_555 1_555
C4_3 C5_3 1_555 1_555
Zn3_2 Cl5_2 1_555 1_555
Cl4_5 Zn2_2 1_555 1_555
Cl6_2 Zn3_2 1_555 1_555
H2_2 C2_2 1_555 1_555
C3_2 C2_2 1_555 1_555
N2_2 Zn3_2 1_555 1_555
C6_2 N2_2 1_555 1_555
H5_2 C6_2 1_555 1_555
C7_2 C6_2 1_555 1_555
H6_2 C7_2 1_555 1_555
C8_2 C7_2 1_555 1_555
C9_2 C8_2 1_555 1_555
H7_2 C9_2 1_555 1_555
C10_2 N2_2 1_555 1_555
H8_2 C10_2 1_555 1_555
N3_5 Zn2_2 1_555 1_555
C11_2 N3_5 1_555 1_555
H9_2 C11_2 1_555 1_555
C12_2 C11_2 1_555 1_555
H10_2 C12_2 1_555 1_555
C13_2 C12_2 1_555 1_555
C14_2 C13_2 1_555 1_555
H11_3 C14_2 1_555 1_555
C15_5 N3_5 1_555 1_555
H12_5 C15_5 1_555 1_555
C16_2 C3_2 1_555 1_555
N4_2 C16_2 1_555 1_555
C17_2 C8_2 1_555 1_555
N5_2 C17_2 1_555 1_555
C18_2 C13_2 1_555 1_555
N6_2 C16_2 1_555 1_555
N7_2 Zn3_2 1_555 1_555
C19_3 N7_2 1_555 1_555
H13_3 C19_3 1_555 1_555
C20_3 C19_3 1_555 1_555
H14_3 C20_3 1_555 1_555
C21_3 C20_3 1_555 1_555
C22_3 C21_3 1_555 1_555
H15_3 C22_3 1_555 1_555
C23_3 N7_2 1_555 1_555
H16_3 C23_3 1_555 1_555
C24_3 H17_3 1_555 1_555
C25_3 C24_3 1_555 1_555
H18_3 C25_3 1_555 1_555
C26_3 C25_3 1_555 1_555
C29_3 H21_3 1_555 1_555
C30_3 C29_3 1_555 1_555
H22_3 C30_3 1_555 1_555
C31_3 C30_3 1_555 1_555
C34_3 C21_3 1_555 1_555
N10_3 C34_3 1_555 1_555
C35_3 C26_3 1_555 1_555
N11_3 C35_3 1_555 1_555
C36_3 C31_3 1_555 1_555
N12_3 C34_3 1_555 1_555
N13_2 Zn2_2 1_555 1_555
C9_2 C10_2 1_555 1_555
C14_2 C15_5 1_555 1_555
N4_2 C17_2 1_555 1_555
N5_2 C18_2 1_555 1_555
C18_2 N6_2 1_555 1_555
C22_3 C23_3 1_555 1_555
N10_3 C35_3 1_555 1_555
N11_3 C36_3 1_555 1_555
C36_3 N12_3 1_555 1_555
H13_4 C19_4 1_555 1_555
C20_4 C19_4 1_555 1_555
H14_4 C20_4 1_555 1_555
C21_4 C20_4 1_555 1_555
C22_4 C21_4 1_555 1_555
H15_4 C22_4 1_555 1_555
H16_4 C23_4 1_555 1_555
N13_2 C24_4 1_555 1_555
C24_4 H17_4 1_555 1_555
C25_4 C24_4 1_555 1_555
H18_4 C25_4 1_555 1_555
C26_4 C25_4 1_555 1_555
C27_5 C26_4 1_555 1_555
H19_5 C27_5 1_555 1_555
C28_5 N13_2 1_555 1_555
H20_5 C28_5 1_555 1_555
N9_3 C29_4 1_555 1_555
C29_4 H21_4 1_555 1_555
C30_4 C29_4 1_555 1_555
H22_4 C30_4 1_555 1_555
C31_4 C30_4 1_555 1_555
C32_5 C31_4 1_555 1_555
H23_5 C32_5 1_555 1_555
C33_5 N9_3 1_555 1_555
H24_5 C33_5 1_555 1_555
C34_4 C21_4 1_555 1_555
N10_4 C34_4 1_555 1_555
C35_4 C26_4 1_555 1_555
N11_4 C35_4 1_555 1_555
C36_4 C31_4 1_555 1_555
N12_4 C34_4 1_555 1_555
Zn4_3 N9_3 1_555 1_555
C22_4 C23_4 1_555 1_555
C27_5 C28_5 1_555 1_555
C32_5 C33_5 1_555 1_555
N10_4 C35_4 1_555 1_555
N11_4 C36_4 1_555 1_555
C36_4 N12_4 1_555 1_555
Zn4_3 Cl1_5 1_555 1_555
Zn3_3 Cl5_3 1_555 1_555
Cl2_5 Zn4_3 1_555 1_555
Cl6_3 Zn3_3 1_555 1_555
N1_5 Zn4_3 1_555 1_555
C1_5 N1_5 1_555 1_555
H1_5 C1_5 1_555 1_555
C2_3 C1_5 1_555 1_555
H2_3 C2_3 1_555 1_555
C3_3 C2_3 1_555 1_555
C4_4 C3_3 1_555 1_555
H3_4 C4_4 1_555 1_555
C5_4 N1_5 1_555 1_555
H4_4 C5_4 1_555 1_555
N2_3 Zn3_3 1_555 1_555
C6_3 N2_3 1_555 1_555
H5_3 C6_3 1_555 1_555
C7_3 C6_3 1_555 1_555
H6_3 C7_3 1_555 1_555
C8_3 C7_3 1_555 1_555
C9_3 C8_3 1_555 1_555
H7_3 C9_3 1_555 1_555
C10_3 N2_3 1_555 1_555
H8_3 C10_3 1_555 1_555
C16_3 C3_3 1_555 1_555
N4_3 C16_3 1_555 1_555
C17_3 C8_3 1_555 1_555
N5_3 C17_3 1_555 1_555
N6_3 C16_3 1_555 1_555
N7_3 Zn3_3 1_555 1_555
C4_4 C5_4 1_555 1_555
C9_3 C10_3 1_555 1_555
N4_3 C17_3 1_555 1_555
N5_3 C18_3 1_555 1_555
C18_3 N6_3 1_555 1_555
H19_6 C27_6 1_555 1_555
C28_6 N8_4 1_555 1_555
H20_6 C28_6 1_555 1_555
H23_6 C32_6 1_555 1_555
C33_6 N9_4 1_555 1_555
H24_6 C33_6 1_555 1_555
Zn4_4 N9_4 1_555 1_555
Zn5_4 N8_4 1_555 1_555
C27_6 C28_6 1_555 1_555
C32_6 C33_6 1_555 1_555
Cl4_6 Zn5_4 1_555 1_555
N3_6 Zn5_4 1_555 1_555
C15_6 N3_6 1_555 1_555
H12_6 C15_6 1_555 1_555
Zn4_4 Cl1_6 1_555 1_555
Cl2_6 Zn4_4 1_555 1_555
N1_6 Zn4_4 1_555 1_555
C1_6 N1_6 1_555 1_555
H1_6 C1_6 1_555 1_555
H9_3 C11_3 1_555 1_555
C12_3 C11_3 1_555 1_555
H10_3 C12_3 1_555 1_555
C13_3 C12_3 1_555 1_555
C14_3 C13_3 1_555 1_555
Zn1_3 Cl1_7 1_555 1_555
Zn3_4 Cl5_4 1_555 1_555
Cl2_7 Zn1_3 1_555 1_555
Cl6_4 Zn3_4 1_555 1_555
N1_7 Zn1_3 1_555 1_555
C1_7 N1_7 1_555 1_555
H1_7 C1_7 1_555 1_555
C2_4 C1_7 1_555 1_555
H2_4 C2_4 1_555 1_555
C3_4 C2_4 1_555 1_555
C4_5 C3_4 1_555 1_555
H3_5 C4_5 1_555 1_555
C5_5 N1_7 1_555 1_555
H4_5 C5_5 1_555 1_555
N2_4 Zn3_4 1_555 1_555
C6_4 N2_4 1_555 1_555
H5_4 C6_4 1_555 1_555
C7_4 C6_4 1_555 1_555
H6_4 C7_4 1_555 1_555
C8_4 C7_4 1_555 1_555
C9_4 C8_4 1_555 1_555
H7_4 C9_4 1_555 1_555
C10_4 N2_4 1_555 1_555
H8_4 C10_4 1_555 1_555
C16_4 C3_4 1_555 1_555
N4_4 C16_4 1_555 1_555
C17_4 C8_4 1_555 1_555
N5_4 C17_4 1_555 1_555
N6_4 C16_4 1_555 1_555
N7_4 Zn3_4 1_555 1_555
N14_3 Zn1_3 1_555 1_555
C4_5 C5_5 1_555 1_555
C9_4 C10_4 1_555 1_555
N4_4 C17_4 1_555 1_555
N5_4 C18_4 1_555 1_555
C18_4 N6_4 1_555 1_555
Zn3_5 Cl5_5 1_555 1_555
Cl4_7 Zn2_3 1_555 1_555
Cl6_5 Zn3_5 1_555 1_555
H2_5 C2_5 1_555 1_555
C3_5 C2_5 1_555 1_555
N2_5 Zn3_5 1_555 1_555
C6_5 N2_5 1_555 1_555
H5_5 C6_5 1_555 1_555
C7_5 C6_5 1_555 1_555
H6_5 C7_5 1_555 1_555
C8_5 C7_5 1_555 1_555
C9_5 C8_5 1_555 1_555
H7_5 C9_5 1_555 1_555
C10_5 N2_5 1_555 1_555
H8_5 C10_5 1_555 1_555
N3_7 Zn2_3 1_555 1_555
C11_4 N3_7 1_555 1_555
H9_4 C11_4 1_555 1_555
C12_4 C11_4 1_555 1_555
H10_4 C12_4 1_555 1_555
C13_4 C12_4 1_555 1_555
C14_4 C13_4 1_555 1_555
H11_5 C14_4 1_555 1_555
C15_7 N3_7 1_555 1_555
H12_7 C15_7 1_555 1_555
C16_5 C3_5 1_555 1_555
N4_5 C16_5 1_555 1_555
C17_5 C8_5 1_555 1_555
N5_5 C17_5 1_555 1_555
C18_5 C13_4 1_555 1_555
N6_5 C16_5 1_555 1_555
N7_5 Zn3_5 1_555 1_555
C19_5 N7_5 1_555 1_555
H13_5 C19_5 1_555 1_555
C20_5 C19_5 1_555 1_555
H14_5 C20_5 1_555 1_555
C21_5 C20_5 1_555 1_555
C22_5 C21_5 1_555 1_555
H15_5 C22_5 1_555 1_555
C23_5 N7_5 1_555 1_555
H16_5 C23_5 1_555 1_555
C24_5 H17_5 1_555 1_555
C25_5 C24_5 1_555 1_555
H18_5 C25_5 1_555 1_555
C26_5 C25_5 1_555 1_555
C29_5 H21_5 1_555 1_555
C30_5 C29_5 1_555 1_555
H22_5 C30_5 1_555 1_555
C31_5 C30_5 1_555 1_555
C34_5 C21_5 1_555 1_555
N10_5 C34_5 1_555 1_555
C35_5 C26_5 1_555 1_555
N11_5 C35_5 1_555 1_555
C36_5 C31_5 1_555 1_555
N12_5 C34_5 1_555 1_555
N13_3 Zn2_3 1_555 1_555
C9_5 C10_5 1_555 1_555
C14_4 C15_7 1_555 1_555
N4_5 C17_5 1_555 1_555
N5_5 C18_5 1_555 1_555
C18_5 N6_5 1_555 1_555
C22_5 C23_5 1_555 1_555
N10_5 C35_5 1_555 1_555
N11_5 C36_5 1_555 1_555
C36_5 N12_5 1_555 1_555
H13_6 C19_6 1_555 1_555
C20_6 C19_6 1_555 1_555
H14_6 C20_6 1_555 1_555
C21_6 C20_6 1_555 1_555
C22_6 C21_6 1_555 1_555
H15_6 C22_6 1_555 1_555
H16_6 C23_6 1_555 1_555
N13_3 C24_6 1_555 1_555
C24_6 H17_6 1_555 1_555
C25_6 C24_6 1_555 1_555
H18_6 C25_6 1_555 1_555
C26_6 C25_6 1_555 1_555
C27_7 C26_6 1_555 1_555
H19_7 C27_7 1_555 1_555
C28_7 N13_3 1_555 1_555
H20_7 C28_7 1_555 1_555
N14_3 C29_6 1_555 1_555
C29_6 H21_6 1_555 1_555
C30_6 C29_6 1_555 1_555
H22_6 C30_6 1_555 1_555
C31_6 C30_6 1_555 1_555
C32_7 C31_6 1_555 1_555
H23_7 C32_7 1_555 1_555
C33_7 N14_3 1_555 1_555
H24_7 C33_7 1_555 1_555
C34_6 C21_6 1_555 1_555
N10_6 C34_6 1_555 1_555
C35_6 C26_6 1_555 1_555
N11_6 C35_6 1_555 1_555
C36_6 C31_6 1_555 1_555
N12_6 C34_6 1_555 1_555
C22_6 C23_6 1_555 1_555
C27_7 C28_7 1_555 1_555
C32_7 C33_7 1_555 1_555
N10_6 C35_6 1_555 1_555
N11_6 C36_6 1_555 1_555
C36_6 N12_6 1_555 1_555
Zn1_4 Cl1_8 1_555 1_555
Cl2_8 Zn1_4 1_555 1_555
N1_8 Zn1_4 1_555 1_555
C1_8 N1_8 1_555 1_555
H1_8 C1_8 1_555 1_555
H3_6 C4_6 1_555 1_555
C5_6 N1_8 1_555 1_555
H4_6 C5_6 1_555 1_555
N14_4 Zn1_4 1_555 1_555
C4_6 C5_6 1_555 1_555
Zn2_4 Cl3_5 1_555 1_555
Zn3_6 Cl5_6 1_555 1_555
Cl4_8 Zn2_4 1_555 1_555
Cl6_6 Zn3_6 1_555 1_555
H2_6 C2_6 1_555 1_555
C3_6 C2_6 1_555 1_555
C4_7 C3_6 1_555 1_555
H3_7 C4_7 1_555 1_555
H4_7 C5_7 1_555 1_555
N2_6 Zn3_6 1_555 1_555
C6_6 N2_6 1_555 1_555
H5_6 C6_6 1_555 1_555
C7_6 C6_6 1_555 1_555
H6_6 C7_6 1_555 1_555
C8_6 C7_6 1_555 1_555
C9_6 C8_6 1_555 1_555
H7_6 C9_6 1_555 1_555
C10_6 N2_6 1_555 1_555
H8_6 C10_6 1_555 1_555
N3_8 Zn2_4 1_555 1_555
C11_5 N3_8 1_555 1_555
H9_5 C11_5 1_555 1_555
C12_5 C11_5 1_555 1_555
H10_5 C12_5 1_555 1_555
C13_5 C12_5 1_555 1_555
C14_5 C13_5 1_555 1_555
H11_7 C14_5 1_555 1_555
C15_8 N3_8 1_555 1_555
H12_8 C15_8 1_555 1_555
C16_6 C3_6 1_555 1_555
N4_6 C16_6 1_555 1_555
C17_6 C8_6 1_555 1_555
N5_6 C17_6 1_555 1_555
C18_6 C13_5 1_555 1_555
N6_6 C16_6 1_555 1_555
N7_6 Zn3_6 1_555 1_555
C19_7 N7_6 1_555 1_555
H13_7 C19_7 1_555 1_555
C20_7 C19_7 1_555 1_555
H14_7 C20_7 1_555 1_555
C21_7 C20_7 1_555 1_555
C22_7 C21_7 1_555 1_555
H15_7 C22_7 1_555 1_555
C23_7 N7_6 1_555 1_555
H16_7 C23_7 1_555 1_555
C24_7 H17_7 1_555 1_555
C25_7 C24_7 1_555 1_555
H18_7 C25_7 1_555 1_555
C26_7 C25_7 1_555 1_555
C29_7 H21_7 1_555 1_555
C30_7 C29_7 1_555 1_555
H22_7 C30_7 1_555 1_555
C31_7 C30_7 1_555 1_555
C34_7 C21_7 1_555 1_555
N10_7 C34_7 1_555 1_555
C35_7 C26_7 1_555 1_555
N11_7 C35_7 1_555 1_555
C36_7 C31_7 1_555 1_555
N12_7 C34_7 1_555 1_555
N13_4 Zn2_4 1_555 1_555
C4_7 C5_7 1_555 1_555
C9_6 C10_6 1_555 1_555
C14_5 C15_8 1_555 1_555
N4_6 C17_6 1_555 1_555
N5_6 C18_6 1_555 1_555
C18_6 N6_6 1_555 1_555
C22_7 C23_7 1_555 1_555
N10_7 C35_7 1_555 1_555
N11_7 C36_7 1_555 1_555
C36_7 N12_7 1_555 1_555
H13_8 C19_8 1_555 1_555
C20_8 C19_8 1_555 1_555
H14_8 C20_8 1_555 1_555
C21_8 C20_8 1_555 1_555
C22_8 C21_8 1_555 1_555
H15_8 C22_8 1_555 1_555
H16_8 C23_8 1_555 1_555
N13_4 C24_8 1_555 1_555
C24_8 H17_8 1_555 1_555
C25_8 C24_8 1_555 1_555
H18_8 C25_8 1_555 1_555
C26_8 C25_8 1_555 1_555
C27_8 C26_8 1_555 1_555
H19_8 C27_8 1_555 1_555
C28_8 N13_4 1_555 1_555
H20_8 C28_8 1_555 1_555
N14_4 C29_8 1_555 1_555
C29_8 H21_8 1_555 1_555
C30_8 C29_8 1_555 1_555
H22_8 C30_8 1_555 1_555
C31_8 C30_8 1_555 1_555
C32_8 C31_8 1_555 1_555
H23_8 C32_8 1_555 1_555
C33_8 N14_4 1_555 1_555
H24_8 C33_8 1_555 1_555
C34_8 C21_8 1_555 1_555
N10_8 C34_8 1_555 1_555
C35_8 C26_8 1_555 1_555
N11_8 C35_8 1_555 1_555
C36_8 C31_8 1_555 1_555
N12_8 C34_8 1_555 1_555
C22_8 C23_8 1_555 1_555
C27_8 C28_8 1_555 1_555
C32_8 C33_8 1_555 1_555
N10_8 C35_8 1_555 1_555
N11_8 C36_8 1_555 1_555
C36_8 N12_8 1_555 1_555
Zn3_7 Cl5_7 1_555 1_555
Cl6_7 Zn3_7 1_555 1_555
H2_7 C2_7 1_555 1_555
C3_7 C2_7 1_555 1_555
N2_7 Zn3_7 1_555 1_555
C6_7 N2_7 1_555 1_555
H5_7 C6_7 1_555 1_555
C7_7 C6_7 1_555 1_555
H6_7 C7_7 1_555 1_555
C8_7 C7_7 1_555 1_555
C9_7 C8_7 1_555 1_555
H7_7 C9_7 1_555 1_555
C10_7 N2_7 1_555 1_555
H8_7 C10_7 1_555 1_555
C16_7 C3_7 1_555 1_555
N4_7 C16_7 1_555 1_555
C17_7 C8_7 1_555 1_555
N5_7 C17_7 1_555 1_555
N6_7 C16_7 1_555 1_555
N7_7 Zn3_7 1_555 1_555
C9_7 C10_7 1_555 1_555
N4_7 C17_7 1_555 1_555
N5_7 C18_7 1_555 1_555
C18_7 N6_7 1_555 1_555
H9_6 C11_6 1_555 1_555
C12_6 C11_6 1_555 1_555
H10_6 C12_6 1_555 1_555
C13_6 C12_6 1_555 1_555
C14_6 C13_6 1_555 1_555
H3_8 C4_8 1_555 1_555
H4_8 C5_8 1_555 1_555
C4_8 C5_8 1_555 1_555
H9_7 C11_7 1_555 1_555
C12_7 C11_7 1_555 1_555
H10_7 C12_7 1_555 1_555
C13_7 C12_7 1_555 1_555
C14_7 C13_7 1_555 1_555
H9_8 C11_8 1_555 1_555
C12_8 C11_8 1_555 1_555
H10_8 C12_8 1_555 1_555
C13_8 C12_8 1_555 1_555
C14_8 C13_8 1_555 1_555
Zn3_8 Cl5_8 1_555 1_555
Cl6_8 Zn3_8 1_555 1_555
H2_8 C2_8 1_555 1_555
C3_8 C2_8 1_555 1_555
N2_8 Zn3_8 1_555 1_555
C6_8 N2_8 1_555 1_555
H5_8 C6_8 1_555 1_555
C7_8 C6_8 1_555 1_555
H6_8 C7_8 1_555 1_555
C8_8 C7_8 1_555 1_555
C9_8 C8_8 1_555 1_555
H7_8 C9_8 1_555 1_555
C10_8 N2_8 1_555 1_555
H8_8 C10_8 1_555 1_555
C16_8 C3_8 1_555 1_555
N4_8 C16_8 1_555 1_555
C17_8 C8_8 1_555 1_555
N5_8 C17_8 1_555 1_555
N6_8 C16_8 1_555 1_555
N7_8 Zn3_8 1_555 1_555
C9_8 C10_8 1_555 1_555
N4_8 C17_8 1_555 1_555
N5_8 C18_8 1_555 1_555
C18_8 N6_8 1_555 1_555

#END
