
###############################################################################
#
# This file contains modified crystal structure data generated from the
# MOF subset of the Cambridge Structural Database (CSD) v543 
# hosted by the Cambridge Crystallographic Data Centre (CCDC).
#
# This work is licensed under the Creative Commons
# Attribution-NonCommercial-ShareAlike 4.0 International License.
# To view a copy of this license, visit
# http://creativecommons.org/licenses/by-nc-sa/4.0/
# or send a letter to
# Creative Commons, PO Box 1866, Mountain View, CA 94042, USA.
#
# CIF created using the CSD Python API on 29 September 2022
# The structure has been converted into the P1 space group
# The structure has a 3D framework
# The original CSD entry DITGUL is in the tetragonal crystal system
# The framework has been calculated to contain at least 10.0% void space
# The void calculation uses a probe of radius 1.32A, grid spacing 0.4
# H atom positions have been added when not included in the experimental data
#
###############################################################################

data_DITGUL
_chemical_formula_moiety         '(C136 H160 Al13 Cl16 N20 O66 4+)n'
_symmetry_cell_setting           triclinic
_symmetry_space_group_name_H-M   'P 1'
_symmetry_Int_Tables_number      1
_space_group_name_Hall           'P 1'
loop_
_symmetry_equiv_pos_site_id
_symmetry_equiv_pos_as_xyz
1 x,y,z
_cell_length_a                   21.47487(13)
_cell_length_b                   21.47487(13)
_cell_length_c                   10.90007(11)
_cell_angle_alpha                90
_cell_angle_beta                 90
_cell_angle_gamma                90
_cell_volume                     5026.79
loop_
_atom_site_label
_atom_site_type_symbol
_atom_site_fract_x
_atom_site_fract_y
_atom_site_fract_z
Cl1 Cl 0.34374(6) 0.40626(6) 0.625
Cl1_2 Cl 0.15626(6) 0.59374(6) 0.125
Cl1_3 Cl 0.15626(6) 0.40626(6) 0.875
Cl1_4 Cl 0.84374(6) 0.90626(6) 0.125
Cl1_5 Cl 0.84374(6) 0.09374(6) 0.875
Cl1_6 Cl 0.65626(6) 0.90626(6) 0.375
Cl1_7 Cl 0.65626(6) 0.09374(6) 0.625
Cl1_8 Cl 0.34374(6) 0.59374(6) 0.375
Cl1_9 Cl 0.65626(6) 0.59374(6) 0.375
Cl1_10 Cl 0.84374(6) 0.40626(6) 0.875
Cl1_11 Cl 0.84374(6) 0.59374(6) 0.125
Cl1_12 Cl 0.15626(6) 0.09374(6) 0.875
Cl1_13 Cl 0.15626(6) 0.90626(6) 0.125
Cl1_14 Cl 0.34374(6) 0.09374(6) 0.625
Cl1_15 Cl 0.34374(6) 0.90626(6) 0.375
Cl1_16 Cl 0.65626(6) 0.40626(6) 0.625
Al3 Al 0.68944(12) 0.500 0.000
Al4 Al 0.31056(12) 0.500 0.000
C1 C 0.44352(10) 0.5448(3) 0.7258(4)
C2 C 0.44524(10) 0.5699(5) 0.6076(6)
C3 C 0.3822(2) 0.5378(5) 0.7954(5)
O1 O 0.3794(4) 0.5033(9) 0.8853(10)
O2 O 0.3383(5) 0.5655(9) 0.7354(13)
H1 H 0.40805(10) 0.5784(5) 0.5673(6)
C4 C 0.500 0.5327(3) 0.7845(6)
N1 N 0.500 0.5818(3) 0.5507(4)
H2 H 0.500 0.516(2) 0.864(3)
C5 C 0.500 0.6105(3) 0.4207(7)
Al1 Al 0.250 0.56056(12) 0.750
O3 O 0.25718(12) 0.50718(12) 0.875
H3 H 0.2291(12) 0.4791(12) 0.875
C6 C 0.55648(10) 0.5448(3) 0.7258(4)
C7 C 0.55476(10) 0.5699(5) 0.6076(6)
C8 C 0.6178(2) 0.5378(5) 0.7954(5)
O4 O 0.6206(4) 0.5033(9) 0.8853(10)
O5 O 0.6617(5) 0.5655(9) 0.7354(13)
H4 H 0.59195(10) 0.5784(5) 0.5673(6)
O6 O 0.2467(9) 0.6294(4) 0.6353(10)
O7 O 0.2533(9) 0.6294(4) 0.8647(10)
O8 O 0.1617(5) 0.5655(9) 0.7646(13)
Al2 Al 0.750 0.56056(12) 0.750
Al3_2 Al 0.68944(12) 0.500 1.000
Al4_2 Al 0.31056(12) 0.500 1.000
O9 O 0.24282(12) 0.50718(12) 0.625
H5 H 0.476555 0.655451 0.422904
H6 H 0.547807 0.616756 0.389745
H7 H 0.475638 0.579518 0.357835
C1_2 C 0.05648(10) 0.4552(3) 0.2258(4)
C2_2 C 0.05476(10) 0.4301(5) 0.1076(6)
C3_2 C 0.1178(2) 0.4622(5) 0.2954(5)
O1_2 O 0.1206(4) 0.4967(9) 0.3853(10)
O2_2 O 0.1617(5) 0.4345(9) 0.2354(13)
H1_2 H 0.09195(10) 0.4216(5) 0.0673(6)
C4_2 C 0.000 0.4673(3) 0.2845(6)
N1_2 N 0.000 0.4182(3) 0.0507(4)
H2_2 H 0.000 0.484(2) 0.364(3)
Al1_2 Al 0.250 0.43944(12) 0.250
O3_2 O 0.24282(12) 0.49282(12) 0.375
H3_2 H 0.2709(12) 0.5209(12) 0.375
O6_2 O 0.2533(9) 0.3706(4) 0.1353(10)
O7_2 O 0.2467(9) 0.3706(4) 0.3647(10)
O8_2 O 0.3383(5) 0.4345(9) 0.2646(13)
Al4_3 Al 0.18944(12) 0.500 0.500
O9_2 O 0.25718(12) 0.49282(12) 0.125
C4_3 C 1.000 0.4673(3) 0.2845(6)
N1_3 N 1.000 0.4182(3) 0.0507(4)
H2_3 H 1.000 0.484(2) 0.364(3)
C6_2 C 0.94352(10) 0.4552(3) 0.2258(4)
C7_2 C 0.94524(10) 0.4301(5) 0.1076(6)
C8_2 C 0.8822(2) 0.4622(5) 0.2954(5)
O4_2 O 0.8794(4) 0.4967(9) 0.3853(10)
O5_2 O 0.8383(5) 0.4345(9) 0.2354(13)
H4_2 H 0.90805(10) 0.4216(5) 0.0673(6)
Al2_2 Al 0.750 0.43944(12) 0.250
Al3_3 Al 0.81056(12) 0.500 0.500
C1_3 C 0.05648(10) 0.5448(3) 0.7742(4)
C2_3 C 0.05476(10) 0.5699(5) 0.8924(6)
C3_3 C 0.1178(2) 0.5378(5) 0.7046(5)
O1_3 O 0.1206(4) 0.5033(9) 0.6147(10)
H1_3 H 0.09195(10) 0.5784(5) 0.9327(6)
C4_4 C 0.000 0.5327(3) 0.7155(6)
N1_4 N 0.000 0.5818(3) 0.9493(4)
H2_4 H 0.000 0.516(2) 0.636(3)
H3_3 H 0.2709(12) 0.4791(12) 0.625
C4_5 C 1.000 0.5327(3) 0.7155(6)
N1_5 N 1.000 0.5818(3) 0.9493(4)
H2_5 H 1.000 0.516(2) 0.636(3)
C6_3 C 0.94352(10) 0.5448(3) 0.7742(4)
C7_3 C 0.94524(10) 0.5699(5) 0.8924(6)
C8_3 C 0.8822(2) 0.5378(5) 0.7046(5)
O4_3 O 0.8794(4) 0.5033(9) 0.6147(10)
O5_3 O 0.8383(5) 0.5655(9) 0.7646(13)
H4_3 H 0.90805(10) 0.5784(5) 0.9327(6)
Al1_3 Al 0.68944(12) -0.000 -0.000
O6_3 O 0.6206(4) 0.0033(9) 0.1147(10)
O9_3 O 0.74282(12) 0.00718(12) 0.125
Al1_4 Al 0.68944(12) -0.000 1.000
H3_4 H 0.7709(12) 0.0209(12) 0.875
O8_3 O 0.6845(9) 0.0883(5) 0.9854(13)
C1_4 C 0.7052(3) 0.80648(10) 0.0242(4)
C2_4 C 0.6801(5) 0.80476(10) 0.1424(6)
O2_3 O 0.6845(9) 0.9117(5) 0.0146(13)
H1_4 H 0.6716(5) 0.84195(10) 0.1827(6)
N1_6 N 0.6682(3) 0.750 0.1993(4)
C5_2 C 0.6395(3) 0.750 0.3293(7)
Al1_5 Al 0.68944(12) 1.000 -0.000
C6_4 C 0.7052(3) 0.69352(10) 0.0242(4)
C7_4 C 0.6801(5) 0.69524(10) 0.1424(6)
O5_4 O 0.6845(9) 0.5883(5) 0.0146(13)
H4_4 H 0.6716(5) 0.65805(10) 0.1827(6)
H5_2 H 0.594549 0.773445 0.327096
H6_2 H 0.633244 0.702193 0.360255
H7_2 H 0.670482 0.774362 0.392165
C3_4 C 0.7122(5) 0.8678(2) 0.9546(5)
O1_4 O 0.7467(9) 0.8706(4) 0.8647(10)
C4_6 C 0.7173(3) 0.750 0.9655(6)
H2_6 H 0.734(2) 0.750 0.886(3)
Al1_6 Al 0.68944(12) 1.000 1.000
O3_3 O 0.74282(12) 0.99282(12) 0.875
C8_4 C 0.7122(5) 0.6322(2) 0.9546(5)
O4_4 O 0.7467(9) 0.6294(4) 0.8647(10)
O7_3 O 0.6206(4) 0.9967(9) 0.8853(10)
Al4_4 Al 0.750 0.93944(12) 0.750
C3_5 C 0.7122(5) 0.1322(2) 0.0454(5)
O1_5 O 0.7467(9) 0.1294(4) 0.1353(10)
C4_7 C 0.7173(3) 0.250 0.0345(6)
H2_7 H 0.734(2) 0.250 0.114(3)
C8_5 C 0.7122(5) 0.3678(2) 0.0454(5)
O4_5 O 0.7467(9) 0.3706(4) 0.1353(10)
Al4_5 Al 0.750 0.06056(12) 0.250
C1_5 C 0.7052(3) 0.19352(10) 0.9758(4)
C2_5 C 0.6801(5) 0.19524(10) 0.8576(6)
H1_5 H 0.6716(5) 0.15805(10) 0.8173(6)
N1_7 N 0.6682(3) 0.250 0.8007(4)
C5_3 C 0.6395(3) 0.250 0.6707(7)
C6_5 C 0.7052(3) 0.30648(10) 0.9758(4)
C7_5 C 0.6801(5) 0.30476(10) 0.8576(6)
O5_5 O 0.6845(9) 0.4117(5) 0.9854(13)
H4_5 H 0.6716(5) 0.34195(10) 0.8173(6)
H5_3 H 0.594549 0.226555 0.672904
H6_3 H 0.633244 0.297807 0.639745
H7_3 H 0.670482 0.225638 0.607835
H3_5 H 0.7709(12) 0.9791(12) 0.125
Al1_7 Al 0.81056(12) -0.000 0.500
H3_6 H 0.7291(12) 0.0209(12) 0.625
O6_4 O 0.8794(4) 0.0033(9) 0.3853(10)
O8_4 O 0.8155(9) 0.0883(5) 0.5146(13)
O9_4 O 0.75718(12) 0.00718(12) 0.375
C1_6 C 0.7948(3) 0.80648(10) 0.4758(4)
C2_6 C 0.8199(5) 0.80476(10) 0.3576(6)
C3_6 C 0.7878(5) 0.8678(2) 0.5454(5)
O1_6 O 0.7533(9) 0.8706(4) 0.6353(10)
O2_4 O 0.8155(9) 0.9117(5) 0.4854(13)
H1_6 H 0.8284(5) 0.84195(10) 0.3173(6)
C4_8 C 0.7827(3) 0.750 0.5345(6)
N1_8 N 0.8318(3) 0.750 0.3007(4)
H2_8 H 0.766(2) 0.750 0.614(3)
C5_4 C 0.8605(3) 0.750 0.1707(7)
Al1_8 Al 0.81056(12) 1.000 0.500
O3_4 O 0.75718(12) 0.99282(12) 0.625
C6_6 C 0.7948(3) 0.69352(10) 0.4758(4)
C7_6 C 0.8199(5) 0.69524(10) 0.3576(6)
C8_6 C 0.7878(5) 0.6322(2) 0.5454(5)
O4_6 O 0.7533(9) 0.6294(4) 0.6353(10)
O5_6 O 0.8155(9) 0.5883(5) 0.4854(13)
H4_6 H 0.8284(5) 0.65805(10) 0.3173(6)
O7_4 O 0.8794(4) 0.9967(9) 0.6147(10)
H5_4 H 0.905451 0.773445 0.172904
H6_4 H 0.866756 0.702193 0.139745
H7_4 H 0.829518 0.774362 0.107835
C1_7 C 0.7948(3) 0.19352(10) 0.5242(4)
C2_7 C 0.8199(5) 0.19524(10) 0.6424(6)
C3_7 C 0.7878(5) 0.1322(2) 0.4546(5)
O1_7 O 0.7533(9) 0.1294(4) 0.3647(10)
H1_7 H 0.8284(5) 0.15805(10) 0.6827(6)
C4_9 C 0.7827(3) 0.250 0.4655(6)
N1_9 N 0.8318(3) 0.250 0.6993(4)
H2_9 H 0.766(2) 0.250 0.386(3)
C5_5 C 0.8605(3) 0.250 0.8293(7)
C6_7 C 0.7948(3) 0.30648(10) 0.5242(4)
C7_7 C 0.8199(5) 0.30476(10) 0.6424(6)
C8_7 C 0.7878(5) 0.3678(2) 0.4546(5)
O4_7 O 0.7533(9) 0.3706(4) 0.3647(10)
O5_7 O 0.8155(9) 0.4117(5) 0.5146(13)
H4_7 H 0.8284(5) 0.34195(10) 0.6827(6)
H5_5 H 0.905451 0.226555 0.827096
H6_5 H 0.866756 0.297807 0.860255
H7_5 H 0.829518 0.225638 0.892165
H3_7 H 0.7291(12) 0.9791(12) 0.375
C1_8 C 0.44352(10) 0.4552(3) 0.2742(4)
C2_8 C 0.44524(10) 0.4301(5) 0.3924(6)
C3_8 C 0.3822(2) 0.4622(5) 0.2046(5)
O1_8 O 0.3794(4) 0.4967(9) 0.1147(10)
H1_8 H 0.40805(10) 0.4216(5) 0.4327(6)
C4_10 C 0.500 0.4673(3) 0.2155(6)
N1_10 N 0.500 0.4182(3) 0.4493(4)
H2_10 H 0.500 0.484(2) 0.136(3)
C5_6 C 0.500 0.3895(3) 0.5793(7)
H3_8 H 0.2291(12) 0.5209(12) 0.125
C6_8 C 0.55648(10) 0.4552(3) 0.2742(4)
C7_8 C 0.55476(10) 0.4301(5) 0.3924(6)
C8_8 C 0.6178(2) 0.4622(5) 0.2046(5)
O4_8 O 0.6206(4) 0.4967(9) 0.1147(10)
O5_8 O 0.6617(5) 0.4345(9) 0.2646(13)
H4_8 H 0.59195(10) 0.4216(5) 0.4327(6)
H5_6 H 0.476555 0.344549 0.577096
H6_6 H 0.547807 0.383244 0.610255
H7_6 H 0.475638 0.420482 0.642165
C4_11 C -0.000 0.0327(3) 0.2845(6)
N1_11 N -0.000 0.0818(3) 0.0507(4)
H2_11 H -0.000 0.016(2) 0.364(3)
C6_9 C 0.05648(10) 0.0448(3) 0.2258(4)
C7_9 C 0.05476(10) 0.0699(5) 0.1076(6)
C8_9 C 0.1178(2) 0.0378(5) 0.2954(5)
O4_9 O 0.1206(4) 0.0033(9) 0.3853(10)
O5_9 O 0.1617(5) 0.0655(9) 0.2354(13)
H4_9 H 0.09195(10) 0.0784(5) 0.0673(6)
Al2_3 Al 0.250 0.06056(12) 0.250
Al3_4 Al 0.18944(12) -0.000 0.500
Al3_5 Al 0.18944(12) 1.000 0.500
C1_9 C 0.94352(10) 0.0448(3) 0.2258(4)
C2_9 C 0.94524(10) 0.0699(5) 0.1076(6)
C3_9 C 0.8822(2) 0.0378(5) 0.2954(5)
O2_5 O 0.8383(5) 0.0655(9) 0.2354(13)
H1_9 H 0.90805(10) 0.0784(5) 0.0673(6)
C4_12 C 1.000 0.0327(3) 0.2845(6)
N1_12 N 1.000 0.0818(3) 0.0507(4)
H2_12 H 1.000 0.016(2) 0.364(3)
O8_5 O 0.6617(5) 0.0655(9) 0.2646(13)
Al3_6 Al 0.31056(12) 0.000 0.000
Al3_7 Al 0.31056(12) 0.000 1.000
Al3_8 Al 0.31056(12) 1.000 0.000
C1_10 C 0.55648(10) 0.9552(3) 0.7258(4)
C2_10 C 0.55476(10) 0.9301(5) 0.6076(6)
C3_10 C 0.6178(2) 0.9622(5) 0.7954(5)
O2_6 O 0.6617(5) 0.9345(9) 0.7354(13)
H1_10 H 0.59195(10) 0.9216(5) 0.5673(6)
C4_13 C 0.500 0.9673(3) 0.7845(6)
N1_13 N 0.500 0.9182(3) 0.5507(4)
H2_13 H 0.500 0.984(2) 0.864(3)
C5_7 C 0.500 0.8895(3) 0.4207(7)
C6_10 C 0.44352(10) 0.9552(3) 0.7258(4)
C7_10 C 0.44524(10) 0.9301(5) 0.6076(6)
C8_10 C 0.3822(2) 0.9622(5) 0.7954(5)
O4_10 O 0.3794(4) 0.9967(9) 0.8853(10)
O5_10 O 0.3383(5) 0.9345(9) 0.7354(13)
H4_10 H 0.40805(10) 0.9216(5) 0.5673(6)
O8_6 O 0.8383(5) 0.9345(9) 0.7646(13)
Al2_4 Al 0.250 0.93944(12) 0.750
Al3_9 Al 0.31056(12) 1.000 1.000
H5_7 H 0.523445 0.844549 0.422904
H6_7 H 0.452193 0.883244 0.389745
H7_7 H 0.524362 0.920482 0.357835
C1_11 C 0.55648(10) 0.0448(3) 0.2742(4)
C2_11 C 0.55476(10) 0.0699(5) 0.3924(6)
C3_11 C 0.6178(2) 0.0378(5) 0.2046(5)
H1_11 H 0.59195(10) 0.0784(5) 0.4327(6)
C4_14 C 0.500 0.0327(3) 0.2155(6)
N1_14 N 0.500 0.0818(3) 0.4493(4)
H2_14 H 0.500 0.016(2) 0.136(3)
C5_8 C 0.500 0.1105(3) 0.5793(7)
C6_11 C 0.44352(10) 0.0448(3) 0.2742(4)
C7_11 C 0.44524(10) 0.0699(5) 0.3924(6)
C8_11 C 0.3822(2) 0.0378(5) 0.2046(5)
O4_11 O 0.3794(4) 0.0033(9) 0.1147(10)
O5_11 O 0.3383(5) 0.0655(9) 0.2646(13)
H4_11 H 0.40805(10) 0.0784(5) 0.4327(6)
H5_8 H 0.523445 0.155451 0.577096
H6_8 H 0.452193 0.116756 0.610255
H7_8 H 0.524362 0.0795184 0.642165
C1_12 C 0.2052(3) 0.30648(10) 0.5242(4)
C2_12 C 0.1801(5) 0.30476(10) 0.6424(6)
C3_12 C 0.2122(5) 0.3678(2) 0.4546(5)
O2_7 O 0.1845(9) 0.4117(5) 0.5146(13)
H1_12 H 0.1716(5) 0.34195(10) 0.6827(6)
C4_15 C 0.2173(3) 0.250 0.4655(6)
N1_15 N 0.1682(3) 0.250 0.6993(4)
H2_15 H 0.234(2) 0.250 0.386(3)
C5_9 C 0.1395(3) 0.250 0.8293(7)
C6_12 C 0.2052(3) 0.19352(10) 0.5242(4)
C7_12 C 0.1801(5) 0.19524(10) 0.6424(6)
C8_12 C 0.2122(5) 0.1322(2) 0.4546(5)
O4_12 O 0.2467(9) 0.1294(4) 0.3647(10)
O5_12 O 0.1845(9) 0.0883(5) 0.5146(13)
H4_12 H 0.1716(5) 0.15805(10) 0.6827(6)
O8_7 O 0.1845(9) 0.5883(5) 0.4854(13)
H5_9 H 0.0945485 0.273445 0.827096
H6_9 H 0.133244 0.202193 0.860255
H7_9 H 0.170482 0.274362 0.892165
C1_13 C 0.2052(3) 0.69352(10) 0.4758(4)
C2_13 C 0.1801(5) 0.69524(10) 0.3576(6)
C3_13 C 0.2122(5) 0.6322(2) 0.5454(5)
H1_13 H 0.1716(5) 0.65805(10) 0.3173(6)
C4_16 C 0.2173(3) 0.750 0.5345(6)
N1_16 N 0.1682(3) 0.750 0.3007(4)
H2_16 H 0.234(2) 0.750 0.614(3)
C5_10 C 0.1395(3) 0.750 0.1707(7)
C6_13 C 0.2052(3) 0.80648(10) 0.4758(4)
C7_13 C 0.1801(5) 0.80476(10) 0.3576(6)
C8_13 C 0.2122(5) 0.8678(2) 0.5454(5)
O4_13 O 0.2467(9) 0.8706(4) 0.6353(10)
O5_13 O 0.1845(9) 0.9117(5) 0.4854(13)
H4_13 H 0.1716(5) 0.84195(10) 0.3173(6)
H5_10 H 0.0945485 0.726555 0.172904
H6_10 H 0.133244 0.797807 0.139745
H7_10 H 0.170482 0.725638 0.107835
C3_14 C 0.2878(5) 0.3678(2) 0.0454(5)
C4_17 C 0.2827(3) 0.250 0.0345(6)
H2_17 H 0.266(2) 0.250 0.114(3)
C8_14 C 0.2878(5) 0.1322(2) 0.0454(5)
O4_14 O 0.2533(9) 0.1294(4) 0.1353(10)
O8_8 O 0.3155(9) 0.5883(5) 0.0146(13)
C1_14 C 0.2948(3) 0.30648(10) 0.9758(4)
C2_14 C 0.3199(5) 0.30476(10) 0.8576(6)
O2_8 O 0.3155(9) 0.4117(5) 0.9854(13)
H1_14 H 0.3284(5) 0.34195(10) 0.8173(6)
N1_17 N 0.3318(3) 0.250 0.8007(4)
C5_11 C 0.3605(3) 0.250 0.6707(7)
C6_14 C 0.2948(3) 0.19352(10) 0.9758(4)
C7_14 C 0.3199(5) 0.19524(10) 0.8576(6)
O5_14 O 0.3155(9) 0.0883(5) 0.9854(13)
H4_14 H 0.3284(5) 0.15805(10) 0.8173(6)
H5_11 H 0.405451 0.273445 0.672904
H6_11 H 0.366756 0.202193 0.639745
H7_11 H 0.329518 0.274362 0.607835
C1_15 C 0.2948(3) 0.69352(10) 0.0242(4)
C2_15 C 0.3199(5) 0.69524(10) 0.1424(6)
H1_15 H 0.3284(5) 0.65805(10) 0.1827(6)
N1_18 N 0.3318(3) 0.750 0.1993(4)
C5_12 C 0.3605(3) 0.750 0.3293(7)
C6_15 C 0.2948(3) 0.80648(10) 0.0242(4)
C7_15 C 0.3199(5) 0.80476(10) 0.1424(6)
O5_15 O 0.3155(9) 0.9117(5) 0.0146(13)
H4_15 H 0.3284(5) 0.84195(10) 0.1827(6)
H5_12 H 0.405451 0.726555 0.327096
H6_12 H 0.366756 0.797807 0.360255
H7_12 H 0.329518 0.725638 0.392165
C3_15 C 0.2878(5) 0.6322(2) 0.9546(5)
C4_18 C 0.2827(3) 0.750 0.9655(6)
H2_18 H 0.266(2) 0.750 0.886(3)
C8_15 C 0.2878(5) 0.8678(2) 0.9546(5)
O4_15 O 0.2533(9) 0.8706(4) 0.8647(10)
C4_19 C -0.000 0.9673(3) 0.7155(6)
N1_19 N -0.000 0.9182(3) 0.9493(4)
H2_19 H -0.000 0.984(2) 0.636(3)
C6_16 C 0.05648(10) 0.9552(3) 0.7742(4)
C7_16 C 0.05476(10) 0.9301(5) 0.8924(6)
C8_16 C 0.1178(2) 0.9622(5) 0.7046(5)
O4_16 O 0.1206(4) 0.9967(9) 0.6147(10)
O5_16 O 0.1617(5) 0.9345(9) 0.7646(13)
H4_16 H 0.09195(10) 0.9216(5) 0.9327(6)
C1_16 C 0.94352(10) 0.9552(3) 0.7742(4)
C2_16 C 0.94524(10) 0.9301(5) 0.8924(6)
C3_16 C 0.8822(2) 0.9622(5) 0.7046(5)
H1_16 H 0.90805(10) 0.9216(5) 0.9327(6)
C4_20 C 1.000 0.9673(3) 0.7155(6)
N1_20 N 1.000 0.9182(3) 0.9493(4)
H2_20 H 1.000 0.984(2) 0.636(3)
O3_5 O 0.74282(12) 0.49282(12) 0.125
H3_9 H 0.7709(12) 0.5209(12) 0.125
O9_5 O 0.75718(12) 0.49282(12) 0.375
H5_13 H 0.523445 0.344549 0.577096
H6_13 H 0.452193 0.383244 0.610255
H7_13 H 0.524362 0.420482 0.642165
O3_6 O 0.75718(12) 0.50718(12) 0.625
H3_10 H 0.7291(12) 0.4791(12) 0.625
O9_6 O 0.74282(12) 0.50718(12) 0.875
H3_11 H 0.7291(12) 0.5209(12) 0.375
O3_7 O 0.25718(12) 0.00718(12) 0.125
H5_14 H 0.405451 0.226555 0.672904
H6_14 H 0.366756 0.297807 0.639745
H7_14 H 0.329518 0.225638 0.607835
H3_12 H 0.2291(12) 0.9791(12) 0.125
O9_7 O 0.25718(12) 0.99282(12) 0.875
H3_13 H 0.2291(12) 0.0209(12) 0.875
H5_15 H 0.405451 0.773445 0.327096
H6_15 H 0.366756 0.702193 0.360255
H7_15 H 0.329518 0.774362 0.392165
O3_8 O 0.24282(12) 0.00718(12) 0.375
H5_16 H 0.0945485 0.226555 0.827096
H6_16 H 0.133244 0.297807 0.860255
H7_16 H 0.170482 0.225638 0.892165
H3_14 H 0.2709(12) 0.9791(12) 0.375
O9_8 O 0.24282(12) 0.99282(12) 0.625
H3_15 H 0.2709(12) 0.0209(12) 0.625
H5_17 H 0.0945485 0.773445 0.172904
H6_17 H 0.133244 0.702193 0.139745
H7_17 H 0.170482 0.774362 0.107835
H3_16 H 0.7709(12) 0.4791(12) 0.875
H5_18 H 0.523445 0.655451 0.422904
H6_18 H 0.452193 0.616756 0.389745
H7_18 H 0.524362 0.579518 0.357835
H5_19 H 0.476555 0.155451 0.577096
H6_19 H 0.547807 0.116756 0.610255
H7_19 H 0.475638 0.0795184 0.642165
H5_20 H 0.476555 0.844549 0.422904
H6_20 H 0.547807 0.883244 0.389745
H7_20 H 0.475638 0.920482 0.357835
H5_21 H 0.905451 0.726555 0.172904
H6_21 H 0.866756 0.797807 0.139745
H7_21 H 0.829518 0.725638 0.107835
H5_22 H 0.905451 0.273445 0.827096
H6_22 H 0.866756 0.202193 0.860255
H7_22 H 0.829518 0.274362 0.892165
H5_23 H 0.594549 0.726555 0.327096
H6_23 H 0.633244 0.797807 0.360255
H7_23 H 0.670482 0.725638 0.392165
H5_24 H 0.594549 0.273445 0.672904
H6_24 H 0.633244 0.202193 0.639745
H7_24 H 0.670482 0.274362 0.607835
C5_13 C 0.000 0.3895(3) 0.9207(7)
H5_25 H 0.0234448 0.344549 0.922904
H7_25 H 0.0243625 0.420482 0.857835
H6_25 H 0.0478073 0.383244 0.889745
C5_14 C 1.000 0.3895(3) 0.9207(7)
H6_26 H 0.952193 0.383244 0.889745
H5_26 H 0.976555 0.344549 0.922904
H7_26 H 0.975638 0.420482 0.857835
C5_15 C 0.000 0.6105(3) 0.0793(7)
H5_27 H 0.0234448 0.655451 0.0770964
H7_27 H 0.0243625 0.579518 0.142165
H6_27 H 0.0478073 0.616756 0.110255
C5_16 C 1.000 0.6105(3) 0.0793(7)
H6_28 H 0.952193 0.616756 0.110255
H5_28 H 0.976555 0.655451 0.0770964
H7_28 H 0.975638 0.579518 0.142165
C5_17 C -0.000 0.1105(3) 0.9207(7)
H6_29 H 0.0478073 0.116756 0.889745
H5_29 H 0.0234448 0.155451 0.922904
H7_29 H 0.0243625 0.0795184 0.857835
C5_18 C 1.000 0.1105(3) 0.9207(7)
H5_30 H 0.976555 0.155451 0.922904
H7_30 H 0.975638 0.0795184 0.857835
H6_30 H 0.952193 0.116756 0.889745
C5_19 C -0.000 0.8895(3) 0.0793(7)
H6_31 H 0.0478073 0.883244 0.110255
H5_31 H 0.0234448 0.844549 0.0770964
H7_31 H 0.0243625 0.920482 0.142165
C5_20 C 1.000 0.8895(3) 0.0793(7)
H5_32 H 0.976555 0.844549 0.0770964
H7_32 H 0.975638 0.920482 0.142165
H6_32 H 0.952193 0.883244 0.110255
loop_
_geom_bond_atom_site_label_1
_geom_bond_atom_site_label_2
_geom_bond_site_symmetry_1
_geom_bond_site_symmetry_2
C1 C2 1_555 1_555
C2 H1 1_555 1_555
C3 C1 1_555 1_555
O1 C3 1_555 1_555
O2 C3 1_555 1_555
C4 C1 1_555 1_555
N1 C2 1_555 1_555
H2 C4 1_555 1_555
C5 N1 1_555 1_555
Al1 O2 1_555 1_555
O3 Al1 1_555 1_555
H3 O3 1_555 1_555
C6 C4 1_555 1_555
C7 N1 1_555 1_555
C8 C6 1_555 1_555
O4 C8 1_555 1_555
O5 C8 1_555 1_555
H4 C7 1_555 1_555
O6 Al1 1_555 1_555
O7 Al1 1_555 1_555
O8 Al1 1_555 1_555
Al2 O5 1_555 1_555
Al3_2 O4 1_555 1_555
Al4_2 O1 1_555 1_555
O9 Al1 1_555 1_555
O3 Al4_2 1_555 1_555
C6 C7 1_555 1_555
C5 H5 1_555 1_555
C5 H6 1_555 1_555
C5 H7 1_555 1_555
C1_2 C2_2 1_555 1_555
C2_2 H1_2 1_555 1_555
C3_2 C1_2 1_555 1_555
O1_2 C3_2 1_555 1_555
O2_2 C3_2 1_555 1_555
C4_2 C1_2 1_555 1_555
N1_2 C2_2 1_555 1_555
H2_2 C4_2 1_555 1_555
Al1_2 O2_2 1_555 1_555
O3_2 Al1_2 1_555 1_555
H3_2 O3_2 1_555 1_555
O6_2 Al1_2 1_555 1_555
O7_2 Al1_2 1_555 1_555
O8_2 Al1_2 1_555 1_555
Al4_3 O1_2 1_555 1_555
O9_2 Al1_2 1_555 1_555
O3_2 Al4_3 1_555 1_555
H2_3 C4_3 1_555 1_555
C6_2 C4_3 1_555 1_555
C7_2 N1_3 1_555 1_555
C8_2 C6_2 1_555 1_555
O4_2 C8_2 1_555 1_555
O5_2 C8_2 1_555 1_555
H4_2 C7_2 1_555 1_555
Al2_2 O5_2 1_555 1_555
Al3_3 O4_2 1_555 1_555
C6_2 C7_2 1_555 1_555
C1_3 C2_3 1_555 1_555
C2_3 H1_3 1_555 1_555
C3_3 C1_3 1_555 1_555
O1_3 C3_3 1_555 1_555
O8 C3_3 1_555 1_555
C4_4 C1_3 1_555 1_555
N1_4 C2_3 1_555 1_555
H2_4 C4_4 1_555 1_555
H3_3 O9 1_555 1_555
Al4_3 O1_3 1_555 1_555
O9 Al4_3 1_555 1_555
H2_5 C4_5 1_555 1_555
C6_3 C4_5 1_555 1_555
C7_3 N1_5 1_555 1_555
C8_3 C6_3 1_555 1_555
O4_3 C8_3 1_555 1_555
O5_3 C8_3 1_555 1_555
H4_3 C7_3 1_555 1_555
Al2 O5_3 1_555 1_555
Al3_3 O4_3 1_555 1_555
C6_3 C7_3 1_555 1_555
O6_3 Al1_3 1_555 1_555
O9_3 Al1_3 1_555 1_555
O8_3 Al1_4 1_555 1_555
C1_4 C2_4 1_555 1_555
C2_4 H1_4 1_555 1_555
N1_6 C2_4 1_555 1_555
C5_2 N1_6 1_555 1_555
Al1_5 O2_3 1_555 1_555
C7_4 N1_6 1_555 1_555
H4_4 C7_4 1_555 1_555
Al3 O5_4 1_555 1_555
C6_4 C7_4 1_555 1_555
C5_2 H5_2 1_555 1_555
C5_2 H6_2 1_555 1_555
C5_2 H7_2 1_555 1_555
O1_4 C3_4 1_555 1_555
H2_6 C4_6 1_555 1_555
O3_3 Al1_6 1_555 1_555
O4_4 C8_4 1_555 1_555
O7_3 Al1_6 1_555 1_555
Al2 O4_4 1_555 1_555
Al4_4 O1_4 1_555 1_555
O3_3 Al4_4 1_555 1_555
O1_5 C3_5 1_555 1_555
H2_7 C4_7 1_555 1_555
O4_5 C8_5 1_555 1_555
Al2_2 O4_5 1_555 1_555
Al4_5 O1_5 1_555 1_555
O9_3 Al4_5 1_555 1_555
C1_5 C2_5 1_555 1_555
C2_5 H1_5 1_555 1_555
N1_7 C2_5 1_555 1_555
C5_3 N1_7 1_555 1_555
C7_5 N1_7 1_555 1_555
H4_5 C7_5 1_555 1_555
Al3_2 O5_5 1_555 1_555
C6_5 C7_5 1_555 1_555
C5_3 H5_3 1_555 1_555
C5_3 H6_3 1_555 1_555
C5_3 H7_3 1_555 1_555
O6_4 Al1_7 1_555 1_555
O8_4 Al1_7 1_555 1_555
O9_4 Al1_7 1_555 1_555
C1_6 C2_6 1_555 1_555
C2_6 H1_6 1_555 1_555
C3_6 C1_6 1_555 1_555
O1_6 C3_6 1_555 1_555
O2_4 C3_6 1_555 1_555
C4_8 C1_6 1_555 1_555
N1_8 C2_6 1_555 1_555
H2_8 C4_8 1_555 1_555
C5_4 N1_8 1_555 1_555
Al1_8 O2_4 1_555 1_555
O3_4 Al1_8 1_555 1_555
C6_6 C4_8 1_555 1_555
C7_6 N1_8 1_555 1_555
C8_6 C6_6 1_555 1_555
O4_6 C8_6 1_555 1_555
O5_6 C8_6 1_555 1_555
H4_6 C7_6 1_555 1_555
O7_4 Al1_8 1_555 1_555
Al3_3 O5_6 1_555 1_555
Al2 O4_6 1_555 1_555
Al4_4 O1_6 1_555 1_555
O3_4 Al4_4 1_555 1_555
C6_6 C7_6 1_555 1_555
C5_4 H5_4 1_555 1_555
C5_4 H6_4 1_555 1_555
C5_4 H7_4 1_555 1_555
C1_7 C2_7 1_555 1_555
C2_7 H1_7 1_555 1_555
C3_7 C1_7 1_555 1_555
O1_7 C3_7 1_555 1_555
O8_4 C3_7 1_555 1_555
C4_9 C1_7 1_555 1_555
N1_9 C2_7 1_555 1_555
H2_9 C4_9 1_555 1_555
C5_5 N1_9 1_555 1_555
C6_7 C4_9 1_555 1_555
C7_7 N1_9 1_555 1_555
C8_7 C6_7 1_555 1_555
O4_7 C8_7 1_555 1_555
O5_7 C8_7 1_555 1_555
H4_7 C7_7 1_555 1_555
Al3_3 O5_7 1_555 1_555
Al2_2 O4_7 1_555 1_555
Al4_5 O1_7 1_555 1_555
O9_4 Al4_5 1_555 1_555
C6_7 C7_7 1_555 1_555
C5_5 H5_5 1_555 1_555
C5_5 H6_5 1_555 1_555
C5_5 H7_5 1_555 1_555
C1_8 C2_8 1_555 1_555
C2_8 H1_8 1_555 1_555
C3_8 C1_8 1_555 1_555
O1_8 C3_8 1_555 1_555
O8_2 C3_8 1_555 1_555
C4_10 C1_8 1_555 1_555
N1_10 C2_8 1_555 1_555
H2_10 C4_10 1_555 1_555
C5_6 N1_10 1_555 1_555
H3_8 O9_2 1_555 1_555
C6_8 C4_10 1_555 1_555
C7_8 N1_10 1_555 1_555
C8_8 C6_8 1_555 1_555
O4_8 C8_8 1_555 1_555
O5_8 C8_8 1_555 1_555
H4_8 C7_8 1_555 1_555
Al2_2 O5_8 1_555 1_555
Al3 O4_8 1_555 1_555
Al4 O1_8 1_555 1_555
O9_2 Al4 1_555 1_555
C6_8 C7_8 1_555 1_555
C5_6 H5_6 1_555 1_555
C5_6 H6_6 1_555 1_555
C5_6 H7_6 1_555 1_555
H2_11 C4_11 1_555 1_555
C6_9 C4_11 1_555 1_555
C7_9 N1_11 1_555 1_555
C8_9 C6_9 1_555 1_555
O4_9 C8_9 1_555 1_555
O5_9 C8_9 1_555 1_555
H4_9 C7_9 1_555 1_555
Al2_3 O5_9 1_555 1_555
Al3_4 O4_9 1_555 1_555
C6_9 C7_9 1_555 1_555
C1_9 C2_9 1_555 1_555
C2_9 H1_9 1_555 1_555
C3_9 C1_9 1_555 1_555
O6_4 C3_9 1_555 1_555
O2_5 C3_9 1_555 1_555
C4_12 C1_9 1_555 1_555
N1_12 C2_9 1_555 1_555
H2_12 C4_12 1_555 1_555
Al4_5 O2_5 1_555 1_555
O8_5 Al4_5 1_555 1_555
C1_10 C2_10 1_555 1_555
C2_10 H1_10 1_555 1_555
C3_10 C1_10 1_555 1_555
O7_3 C3_10 1_555 1_555
O2_6 C3_10 1_555 1_555
C4_13 C1_10 1_555 1_555
N1_13 C2_10 1_555 1_555
H2_13 C4_13 1_555 1_555
C5_7 N1_13 1_555 1_555
Al4_4 O2_6 1_555 1_555
C6_10 C4_13 1_555 1_555
C7_10 N1_13 1_555 1_555
C8_10 C6_10 1_555 1_555
O4_10 C8_10 1_555 1_555
O5_10 C8_10 1_555 1_555
H4_10 C7_10 1_555 1_555
O8_6 Al4_4 1_555 1_555
Al2_4 O5_10 1_555 1_555
Al3_9 O4_10 1_555 1_555
C6_10 C7_10 1_555 1_555
C5_7 H5_7 1_555 1_555
C5_7 H6_7 1_555 1_555
C5_7 H7_7 1_555 1_555
C1_11 C2_11 1_555 1_555
C2_11 H1_11 1_555 1_555
C3_11 C1_11 1_555 1_555
O6_3 C3_11 1_555 1_555
O8_5 C3_11 1_555 1_555
C4_14 C1_11 1_555 1_555
N1_14 C2_11 1_555 1_555
H2_14 C4_14 1_555 1_555
C5_8 N1_14 1_555 1_555
C6_11 C4_14 1_555 1_555
C7_11 N1_14 1_555 1_555
C8_11 C6_11 1_555 1_555
O4_11 C8_11 1_555 1_555
O5_11 C8_11 1_555 1_555
H4_11 C7_11 1_555 1_555
Al2_3 O5_11 1_555 1_555
Al3_6 O4_11 1_555 1_555
C6_11 C7_11 1_555 1_555
C5_8 H5_8 1_555 1_555
C5_8 H6_8 1_555 1_555
C5_8 H7_8 1_555 1_555
C1_12 C2_12 1_555 1_555
C2_12 H1_12 1_555 1_555
C3_12 C1_12 1_555 1_555
O7_2 C3_12 1_555 1_555
O2_7 C3_12 1_555 1_555
C4_15 C1_12 1_555 1_555
N1_15 C2_12 1_555 1_555
H2_15 C4_15 1_555 1_555
C5_9 N1_15 1_555 1_555
Al4_3 O2_7 1_555 1_555
C6_12 C4_15 1_555 1_555
C7_12 N1_15 1_555 1_555
C8_12 C6_12 1_555 1_555
O4_12 C8_12 1_555 1_555
O5_12 C8_12 1_555 1_555
H4_12 C7_12 1_555 1_555
O8_7 Al4_3 1_555 1_555
Al3_4 O5_12 1_555 1_555
Al2_3 O4_12 1_555 1_555
C6_12 C7_12 1_555 1_555
C5_9 H5_9 1_555 1_555
C5_9 H6_9 1_555 1_555
C5_9 H7_9 1_555 1_555
C1_13 C2_13 1_555 1_555
C2_13 H1_13 1_555 1_555
C3_13 C1_13 1_555 1_555
O6 C3_13 1_555 1_555
O8_7 C3_13 1_555 1_555
C4_16 C1_13 1_555 1_555
N1_16 C2_13 1_555 1_555
H2_16 C4_16 1_555 1_555
C5_10 N1_16 1_555 1_555
C6_13 C4_16 1_555 1_555
C7_13 N1_16 1_555 1_555
C8_13 C6_13 1_555 1_555
O4_13 C8_13 1_555 1_555
O5_13 C8_13 1_555 1_555
H4_13 C7_13 1_555 1_555
Al3_5 O5_13 1_555 1_555
Al2_4 O4_13 1_555 1_555
C6_13 C7_13 1_555 1_555
C5_10 H5_10 1_555 1_555
C5_10 H6_10 1_555 1_555
C5_10 H7_10 1_555 1_555
O6_2 C3_14 1_555 1_555
H2_17 C4_17 1_555 1_555
O4_14 C8_14 1_555 1_555
O8_8 Al4 1_555 1_555
Al2_3 O4_14 1_555 1_555
C1_14 C2_14 1_555 1_555
C2_14 H1_14 1_555 1_555
N1_17 C2_14 1_555 1_555
C5_11 N1_17 1_555 1_555
Al4_2 O2_8 1_555 1_555
C7_14 N1_17 1_555 1_555
H4_14 C7_14 1_555 1_555
Al3_7 O5_14 1_555 1_555
C6_14 C7_14 1_555 1_555
C5_11 H5_11 1_555 1_555
C5_11 H6_11 1_555 1_555
C5_11 H7_11 1_555 1_555
C1_15 C2_15 1_555 1_555
C2_15 H1_15 1_555 1_555
N1_18 C2_15 1_555 1_555
C5_12 N1_18 1_555 1_555
C7_15 N1_18 1_555 1_555
H4_15 C7_15 1_555 1_555
Al3_8 O5_15 1_555 1_555
C6_15 C7_15 1_555 1_555
C5_12 H5_12 1_555 1_555
C5_12 H6_12 1_555 1_555
C5_12 H7_12 1_555 1_555
O7 C3_15 1_555 1_555
H2_18 C4_18 1_555 1_555
O4_15 C8_15 1_555 1_555
Al2_4 O4_15 1_555 1_555
H2_19 C4_19 1_555 1_555
C6_16 C4_19 1_555 1_555
C7_16 N1_19 1_555 1_555
C8_16 C6_16 1_555 1_555
O4_16 C8_16 1_555 1_555
O5_16 C8_16 1_555 1_555
H4_16 C7_16 1_555 1_555
Al2_4 O5_16 1_555 1_555
Al3_5 O4_16 1_555 1_555
C6_16 C7_16 1_555 1_555
C1_16 C2_16 1_555 1_555
C2_16 H1_16 1_555 1_555
C3_16 C1_16 1_555 1_555
O7_4 C3_16 1_555 1_555
O8_6 C3_16 1_555 1_555
C4_20 C1_16 1_555 1_555
N1_20 C2_16 1_555 1_555
H2_20 C4_20 1_555 1_555
O3_5 Al2_2 1_555 1_555
H3_9 O3_5 1_555 1_555
O9_5 Al2_2 1_555 1_555
O3_5 Al3 1_555 1_555
C5_6 H5_13 1_555 1_555
C5_6 H6_13 1_555 1_555
C5_6 H7_13 1_555 1_555
O3_6 Al2 1_555 1_555
H3_10 O3_6 1_555 1_555
O9_6 Al2 1_555 1_555
O3_6 Al3_3 1_555 1_555
H3_11 O9_5 1_555 1_555
O9_5 Al3_3 1_555 1_555
O3_7 Al3_6 1_555 1_555
O3_7 Al2_3 1_555 1_555
C5_11 H5_14 1_555 1_555
C5_11 H6_14 1_555 1_555
C5_11 H7_14 1_555 1_555
O9_7 Al3_9 1_555 1_555
C5_12 H5_15 1_555 1_555
C5_12 H6_15 1_555 1_555
C5_12 H7_15 1_555 1_555
O9_7 Al2_4 1_555 1_555
O3_8 Al3_4 1_555 1_555
O3_8 Al2_3 1_555 1_555
C5_9 H5_16 1_555 1_555
C5_9 H6_16 1_555 1_555
C5_9 H7_16 1_555 1_555
O9_8 Al3_5 1_555 1_555
O9_8 Al2_4 1_555 1_555
C5_10 H5_17 1_555 1_555
C5_10 H6_17 1_555 1_555
C5_10 H7_17 1_555 1_555
H3_16 O9_6 1_555 1_555
O9_6 Al3_2 1_555 1_555
C5 H5_18 1_555 1_555
C5 H6_18 1_555 1_555
C5 H7_18 1_555 1_555
C5_8 H5_19 1_555 1_555
C5_8 H6_19 1_555 1_555
C5_8 H7_19 1_555 1_555
C5_7 H5_20 1_555 1_555
C5_7 H6_20 1_555 1_555
C5_7 H7_20 1_555 1_555
C5_4 H5_21 1_555 1_555
C5_4 H6_21 1_555 1_555
C5_4 H7_21 1_555 1_555
C5_5 H5_22 1_555 1_555
C5_5 H6_22 1_555 1_555
C5_5 H7_22 1_555 1_555
C5_2 H5_23 1_555 1_555
C5_2 H6_23 1_555 1_555
C5_2 H7_23 1_555 1_555
C5_3 H5_24 1_555 1_555
C5_3 H6_24 1_555 1_555
C5_3 H7_24 1_555 1_555
C5_13 H5_25 1_555 1_555
C5_13 H7_25 1_555 1_555
C5_13 H6_25 1_555 1_555
C5_14 H6_26 1_555 1_555
C5_14 H5_26 1_555 1_555
C5_14 H7_26 1_555 1_555
C5_15 H5_27 1_555 1_555
C5_15 H7_27 1_555 1_555
C5_15 H6_27 1_555 1_555
C5_16 H6_28 1_555 1_555
C5_16 H5_28 1_555 1_555
C5_16 H7_28 1_555 1_555
C5_17 H6_29 1_555 1_555
C5_17 H5_29 1_555 1_555
C5_17 H7_29 1_555 1_555
C5_18 H5_30 1_555 1_555
C5_18 H7_30 1_555 1_555
C5_18 H6_30 1_555 1_555
C5_19 H6_31 1_555 1_555
C5_19 H5_31 1_555 1_555
C5_19 H7_31 1_555 1_555
C5_20 H5_32 1_555 1_555
C5_20 H7_32 1_555 1_555
C5_20 H6_32 1_555 1_555

#END
