
###############################################################################
#
# This file contains modified crystal structure data generated from the
# MOF subset of the Cambridge Structural Database (CSD) v543 
# hosted by the Cambridge Crystallographic Data Centre (CCDC).
#
# This work is licensed under the Creative Commons
# Attribution-NonCommercial-ShareAlike 4.0 International License.
# To view a copy of this license, visit
# http://creativecommons.org/licenses/by-nc-sa/4.0/
# or send a letter to
# Creative Commons, PO Box 1866, Mountain View, CA 94042, USA.
#
# CIF created using the CSD Python API on 29 September 2022
# The structure has been converted into the P1 space group
# The structure has a 3D framework
# The original CSD entry DITHOG is in the tetragonal crystal system
# The framework has been calculated to contain at least 10.0% void space
# The void calculation uses a probe of radius 1.32A, grid spacing 0.4
#
###############################################################################

data_DITHOG
_chemical_formula_moiety         '(C116 H64 Al13 N20 O66)n'
_symmetry_cell_setting           triclinic
_symmetry_space_group_name_H-M   'P 1'
_symmetry_Int_Tables_number      1
_space_group_name_Hall           'P 1'
loop_
_symmetry_equiv_pos_site_id
_symmetry_equiv_pos_as_xyz
1 x,y,z
_cell_length_a                   21.4612(2)
_cell_length_b                   21.4612(2)
_cell_length_c                   10.73058(19)
_cell_angle_alpha                90
_cell_angle_beta                 90
_cell_angle_gamma                90
_cell_volume                     4942.32
loop_
_atom_site_label
_atom_site_type_symbol
_atom_site_fract_x
_atom_site_fract_y
_atom_site_fract_z
_atom_site_U_iso_or_equiv
_atom_site_thermal_displace_type
Al3 Al 0.69001(15) 0.500 0.000 0.0085 Uiso
Al4 Al 0.30999(15) 0.500 0.000 0.0085 Uiso
C1 C 0.44325(17) 0.5449(6) 0.7174(8) 0.0361 Uiso
C2 C 0.44498(16) 0.5709(9) 0.5976(11) 0.0361 Uiso
C3 C 0.3818(4) 0.5398(8) 0.7897(10) 0.0361 Uiso
O1 O 0.3801(6) 0.5076(14) 0.8845(16) 0.0019 Uiso
O2 O 0.3373(7) 0.5650(14) 0.730(2) 0.0019 Uiso
H1 H 0.40776(16) 0.5797(10) 0.5569(12) 0.0433 Uiso
C4 C 0.500 0.53256 0.77656 0.0361 Uiso
N1 N 0.500 0.58475 0.53873 0.0361 Uiso
H2 H 0.500 0.51477 0.85763 0.0433 Uiso
Al1 Al 0.250 0.55999(15) 0.750 0.0085 Uiso
O3 O 0.25526(16) 0.50526(16) 0.875 0.0019 Uiso
H3 H 0.226(2) 0.476(2) 0.875 0.0433 Uiso
C5 C 0.55675(17) 0.5449(6) 0.7174(8) 0.0361 Uiso
C6 C 0.55502(16) 0.5709(9) 0.5976(11) 0.0361 Uiso
C7 C 0.6182(4) 0.5398(8) 0.7897(10) 0.0361 Uiso
O4 O 0.6199(6) 0.5076(14) 0.8845(16) 0.0019 Uiso
O5 O 0.6627(7) 0.5650(14) 0.730(2) 0.0019 Uiso
H4 H 0.59224(16) 0.5797(10) 0.5569(12) 0.0433 Uiso
O6 O 0.2424(14) 0.6301(6) 0.6345(16) 0.0019 Uiso
O7 O 0.2576(14) 0.6301(6) 0.8655(16) 0.0019 Uiso
O8 O 0.1627(7) 0.5650(14) 0.770(2) 0.0019 Uiso
Al2 Al 0.750 0.55999(15) 0.750 0.0085 Uiso
Al3_2 Al 0.69001(15) 0.500 1.000 0.0085 Uiso
Al4_2 Al 0.30999(15) 0.500 1.000 0.0085 Uiso
O9 O 0.24474(16) 0.50526(16) 0.625 0.0019 Uiso
C1_2 C 0.05675(17) 0.4551(6) 0.2174(8) 0.0361 Uiso
C2_2 C 0.05502(16) 0.4291(9) 0.0976(11) 0.0361 Uiso
C3_2 C 0.1182(4) 0.4602(8) 0.2897(10) 0.0361 Uiso
O1_2 O 0.1199(6) 0.4924(14) 0.3845(16) 0.0019 Uiso
O2_2 O 0.1627(7) 0.4350(14) 0.230(2) 0.0019 Uiso
H1_2 H 0.09224(16) 0.4203(10) 0.0569(12) 0.0433 Uiso
C4_2 C 0.000 0.46744 0.27656 0.0361 Uiso
N1_2 N 0.000 0.41525 0.03873 0.0361 Uiso
H2_2 H 0.000 0.48523 0.35763 0.0433 Uiso
Al1_2 Al 0.250 0.44001(15) 0.250 0.0085 Uiso
O3_2 O 0.24474(16) 0.49474(16) 0.375 0.0019 Uiso
H3_2 H 0.274(2) 0.524(2) 0.375 0.0433 Uiso
O6_2 O 0.2576(14) 0.3699(6) 0.1345(16) 0.0019 Uiso
O7_2 O 0.2424(14) 0.3699(6) 0.3655(16) 0.0019 Uiso
O8_2 O 0.3373(7) 0.4350(14) 0.270(2) 0.0019 Uiso
Al4_3 Al 0.19001(15) 0.500 0.500 0.0085 Uiso
O9_2 O 0.25526(16) 0.49474(16) 0.125 0.0019 Uiso
C4_3 C 1.000 0.46744 0.27656 0.0361 Uiso
N1_3 N 1.000 0.41525 0.03873 0.0361 Uiso
H2_3 H 1.000 0.48523 0.35763 0.0433 Uiso
C5_2 C 0.94325(17) 0.4551(6) 0.2174(8) 0.0361 Uiso
C6_2 C 0.94498(16) 0.4291(9) 0.0976(11) 0.0361 Uiso
C7_2 C 0.8818(4) 0.4602(8) 0.2897(10) 0.0361 Uiso
O4_2 O 0.8801(6) 0.4924(14) 0.3845(16) 0.0019 Uiso
O5_2 O 0.8373(7) 0.4350(14) 0.230(2) 0.0019 Uiso
H4_2 H 0.90776(16) 0.4203(10) 0.0569(12) 0.0433 Uiso
Al2_2 Al 0.750 0.44001(15) 0.250 0.0085 Uiso
Al3_3 Al 0.80999(15) 0.500 0.500 0.0085 Uiso
C1_3 C 0.05675(17) 0.5449(6) 0.7826(8) 0.0361 Uiso
C2_3 C 0.05502(16) 0.5709(9) 0.9024(11) 0.0361 Uiso
C3_3 C 0.1182(4) 0.5398(8) 0.7103(10) 0.0361 Uiso
O1_3 O 0.1199(6) 0.5076(14) 0.6155(16) 0.0019 Uiso
H1_3 H 0.09224(16) 0.5797(10) 0.9431(12) 0.0433 Uiso
C4_4 C 0.000 0.53256 0.72344 0.0361 Uiso
N1_4 N 0.000 0.58475 0.96127 0.0361 Uiso
H2_4 H 0.000 0.51477 0.64237 0.0433 Uiso
H3_3 H 0.274(2) 0.476(2) 0.625 0.0433 Uiso
C4_5 C 1.000 0.53256 0.72344 0.0361 Uiso
N1_5 N 1.000 0.58475 0.96127 0.0361 Uiso
H2_5 H 1.000 0.51477 0.64237 0.0433 Uiso
C5_3 C 0.94325(17) 0.5449(6) 0.7826(8) 0.0361 Uiso
C6_3 C 0.94498(16) 0.5709(9) 0.9024(11) 0.0361 Uiso
C7_3 C 0.8818(4) 0.5398(8) 0.7103(10) 0.0361 Uiso
O4_3 O 0.8801(6) 0.5076(14) 0.6155(16) 0.0019 Uiso
O5_3 O 0.8373(7) 0.5650(14) 0.770(2) 0.0019 Uiso
H4_3 H 0.90776(16) 0.5797(10) 0.9431(12) 0.0433 Uiso
Al1_3 Al 0.69001(15) -0.000 -0.000 0.0085 Uiso
O6_3 O 0.6199(6) 0.0076(14) 0.1155(16) 0.0019 Uiso
O9_3 O 0.74474(16) 0.00526(16) 0.125 0.0019 Uiso
Al1_4 Al 0.69001(15) -0.000 1.000 0.0085 Uiso
H3_4 H 0.774(2) 0.024(2) 0.875 0.0433 Uiso
O8_3 O 0.6850(14) 0.0873(7) 0.980(2) 0.0019 Uiso
C1_4 C 0.7051(6) 0.80675(17) 0.0326(8) 0.0361 Uiso
C2_4 C 0.6791(9) 0.80502(16) 0.1524(11) 0.0361 Uiso
O2_3 O 0.6850(14) 0.9127(7) 0.020(2) 0.0019 Uiso
H1_4 H 0.6703(10) 0.84224(16) 0.1931(12) 0.0433 Uiso
N1_6 N 0.66525 0.750 0.21127 0.0361 Uiso
Al1_5 Al 0.69001(15) 1.000 -0.000 0.0085 Uiso
C5_4 C 0.7051(6) 0.69325(17) 0.0326(8) 0.0361 Uiso
C6_4 C 0.6791(9) 0.69498(16) 0.1524(11) 0.0361 Uiso
O5_4 O 0.6850(14) 0.5873(7) 0.020(2) 0.0019 Uiso
H4_4 H 0.6703(10) 0.65776(16) 0.1931(12) 0.0433 Uiso
C3_4 C 0.7102(8) 0.8682(4) 0.9603(10) 0.0361 Uiso
O1_4 O 0.7424(14) 0.8699(6) 0.8655(16) 0.0019 Uiso
C4_6 C 0.71744 0.750 0.97344 0.0361 Uiso
H2_6 H 0.73523 0.750 0.89237 0.0433 Uiso
Al1_6 Al 0.69001(15) 1.000 1.000 0.0085 Uiso
O3_3 O 0.74474(16) 0.99474(16) 0.875 0.0019 Uiso
C7_4 C 0.7102(8) 0.6318(4) 0.9603(10) 0.0361 Uiso
O4_4 O 0.7424(14) 0.6301(6) 0.8655(16) 0.0019 Uiso
O7_3 O 0.6199(6) 0.9924(14) 0.8845(16) 0.0019 Uiso
Al4_4 Al 0.750 0.94001(15) 0.750 0.0085 Uiso
C3_5 C 0.7102(8) 0.1318(4) 0.0397(10) 0.0361 Uiso
O1_5 O 0.7424(14) 0.1301(6) 0.1345(16) 0.0019 Uiso
C4_7 C 0.71744 0.250 0.02656 0.0361 Uiso
H2_7 H 0.73523 0.250 0.10763 0.0433 Uiso
C7_5 C 0.7102(8) 0.3682(4) 0.0397(10) 0.0361 Uiso
O4_5 O 0.7424(14) 0.3699(6) 0.1345(16) 0.0019 Uiso
Al4_5 Al 0.750 0.05999(15) 0.250 0.0085 Uiso
C1_5 C 0.7051(6) 0.19325(17) 0.9674(8) 0.0361 Uiso
C2_5 C 0.6791(9) 0.19498(16) 0.8476(11) 0.0361 Uiso
H1_5 H 0.6703(10) 0.15776(16) 0.8069(12) 0.0433 Uiso
N1_7 N 0.66525 0.250 0.78873 0.0361 Uiso
C5_5 C 0.7051(6) 0.30675(17) 0.9674(8) 0.0361 Uiso
C6_5 C 0.6791(9) 0.30502(16) 0.8476(11) 0.0361 Uiso
O5_5 O 0.6850(14) 0.4127(7) 0.980(2) 0.0019 Uiso
H4_5 H 0.6703(10) 0.34224(16) 0.8069(12) 0.0433 Uiso
H3_5 H 0.774(2) 0.976(2) 0.125 0.0433 Uiso
Al1_7 Al 0.80999(15) -0.000 0.500 0.0085 Uiso
H3_6 H 0.726(2) 0.024(2) 0.625 0.0433 Uiso
O6_4 O 0.8801(6) 0.0076(14) 0.3845(16) 0.0019 Uiso
O8_4 O 0.8150(14) 0.0873(7) 0.520(2) 0.0019 Uiso
O9_4 O 0.75526(16) 0.00526(16) 0.375 0.0019 Uiso
C1_6 C 0.7949(6) 0.80675(17) 0.4674(8) 0.0361 Uiso
C2_6 C 0.8209(9) 0.80502(16) 0.3476(11) 0.0361 Uiso
C3_6 C 0.7898(8) 0.8682(4) 0.5397(10) 0.0361 Uiso
O1_6 O 0.7576(14) 0.8699(6) 0.6345(16) 0.0019 Uiso
O2_4 O 0.8150(14) 0.9127(7) 0.480(2) 0.0019 Uiso
H1_6 H 0.8297(10) 0.84224(16) 0.3069(12) 0.0433 Uiso
C4_8 C 0.78256 0.750 0.52656 0.0361 Uiso
N1_8 N 0.83475 0.750 0.28873 0.0361 Uiso
H2_8 H 0.76477 0.750 0.60763 0.0433 Uiso
Al1_8 Al 0.80999(15) 1.000 0.500 0.0085 Uiso
O3_4 O 0.75526(16) 0.99474(16) 0.625 0.0019 Uiso
C5_6 C 0.7949(6) 0.69325(17) 0.4674(8) 0.0361 Uiso
C6_6 C 0.8209(9) 0.69498(16) 0.3476(11) 0.0361 Uiso
C7_6 C 0.7898(8) 0.6318(4) 0.5397(10) 0.0361 Uiso
O4_6 O 0.7576(14) 0.6301(6) 0.6345(16) 0.0019 Uiso
O5_6 O 0.8150(14) 0.5873(7) 0.480(2) 0.0019 Uiso
H4_6 H 0.8297(10) 0.65776(16) 0.3069(12) 0.0433 Uiso
O7_4 O 0.8801(6) 0.9924(14) 0.6155(16) 0.0019 Uiso
C1_7 C 0.7949(6) 0.19325(17) 0.5326(8) 0.0361 Uiso
C2_7 C 0.8209(9) 0.19498(16) 0.6524(11) 0.0361 Uiso
C3_7 C 0.7898(8) 0.1318(4) 0.4603(10) 0.0361 Uiso
O1_7 O 0.7576(14) 0.1301(6) 0.3655(16) 0.0019 Uiso
H1_7 H 0.8297(10) 0.15776(16) 0.6931(12) 0.0433 Uiso
C4_9 C 0.78256 0.250 0.47344 0.0361 Uiso
N1_9 N 0.83475 0.250 0.71127 0.0361 Uiso
H2_9 H 0.76477 0.250 0.39237 0.0433 Uiso
C5_7 C 0.7949(6) 0.30675(17) 0.5326(8) 0.0361 Uiso
C6_7 C 0.8209(9) 0.30502(16) 0.6524(11) 0.0361 Uiso
C7_7 C 0.7898(8) 0.3682(4) 0.4603(10) 0.0361 Uiso
O4_7 O 0.7576(14) 0.3699(6) 0.3655(16) 0.0019 Uiso
O5_7 O 0.8150(14) 0.4127(7) 0.520(2) 0.0019 Uiso
H4_7 H 0.8297(10) 0.34224(16) 0.6931(12) 0.0433 Uiso
H3_7 H 0.726(2) 0.976(2) 0.375 0.0433 Uiso
C1_8 C 0.44325(17) 0.4551(6) 0.2826(8) 0.0361 Uiso
C2_8 C 0.44498(16) 0.4291(9) 0.4024(11) 0.0361 Uiso
C3_8 C 0.3818(4) 0.4602(8) 0.2103(10) 0.0361 Uiso
O1_8 O 0.3801(6) 0.4924(14) 0.1155(16) 0.0019 Uiso
H1_8 H 0.40776(16) 0.4203(10) 0.4431(12) 0.0433 Uiso
C4_10 C 0.500 0.46744 0.22344 0.0361 Uiso
N1_10 N 0.500 0.41525 0.46127 0.0361 Uiso
H2_10 H 0.500 0.48523 0.14237 0.0433 Uiso
H3_8 H 0.226(2) 0.524(2) 0.125 0.0433 Uiso
C5_8 C 0.55675(17) 0.4551(6) 0.2826(8) 0.0361 Uiso
C6_8 C 0.55502(16) 0.4291(9) 0.4024(11) 0.0361 Uiso
C7_8 C 0.6182(4) 0.4602(8) 0.2103(10) 0.0361 Uiso
O4_8 O 0.6199(6) 0.4924(14) 0.1155(16) 0.0019 Uiso
O5_8 O 0.6627(7) 0.4350(14) 0.270(2) 0.0019 Uiso
H4_8 H 0.59224(16) 0.4203(10) 0.4431(12) 0.0433 Uiso
C4_11 C -0.000 0.03256 0.27656 0.0361 Uiso
N1_11 N -0.000 0.08475 0.03873 0.0361 Uiso
H2_11 H -0.000 0.01477 0.35763 0.0433 Uiso
C5_9 C 0.05675(17) 0.0449(6) 0.2174(8) 0.0361 Uiso
C6_9 C 0.05502(16) 0.0709(9) 0.0976(11) 0.0361 Uiso
C7_9 C 0.1182(4) 0.0398(8) 0.2897(10) 0.0361 Uiso
O4_9 O 0.1199(6) 0.0076(14) 0.3845(16) 0.0019 Uiso
O5_9 O 0.1627(7) 0.0650(14) 0.230(2) 0.0019 Uiso
H4_9 H 0.09224(16) 0.0797(10) 0.0569(12) 0.0433 Uiso
Al2_3 Al 0.250 0.05999(15) 0.250 0.0085 Uiso
Al3_4 Al 0.19001(15) -0.000 0.500 0.0085 Uiso
Al3_5 Al 0.19001(15) 1.000 0.500 0.0085 Uiso
C1_9 C 0.94325(17) 0.0449(6) 0.2174(8) 0.0361 Uiso
C2_9 C 0.94498(16) 0.0709(9) 0.0976(11) 0.0361 Uiso
C3_9 C 0.8818(4) 0.0398(8) 0.2897(10) 0.0361 Uiso
O2_5 O 0.8373(7) 0.0650(14) 0.230(2) 0.0019 Uiso
H1_9 H 0.90776(16) 0.0797(10) 0.0569(12) 0.0433 Uiso
C4_12 C 1.000 0.03256 0.27656 0.0361 Uiso
N1_12 N 1.000 0.08475 0.03873 0.0361 Uiso
H2_12 H 1.000 0.01477 0.35763 0.0433 Uiso
O8_5 O 0.6627(7) 0.0650(14) 0.270(2) 0.0019 Uiso
Al3_6 Al 0.30999(15) 0.000 0.000 0.0085 Uiso
Al3_7 Al 0.30999(15) 0.000 1.000 0.0085 Uiso
Al3_8 Al 0.30999(15) 1.000 0.000 0.0085 Uiso
C1_10 C 0.55675(17) 0.9551(6) 0.7174(8) 0.0361 Uiso
C2_10 C 0.55502(16) 0.9291(9) 0.5976(11) 0.0361 Uiso
C3_10 C 0.6182(4) 0.9602(8) 0.7897(10) 0.0361 Uiso
O2_6 O 0.6627(7) 0.9350(14) 0.730(2) 0.0019 Uiso
H1_10 H 0.59224(16) 0.9203(10) 0.5569(12) 0.0433 Uiso
C4_13 C 0.500 0.96744 0.77656 0.0361 Uiso
N1_13 N 0.500 0.91525 0.53873 0.0361 Uiso
H2_13 H 0.500 0.98523 0.85763 0.0433 Uiso
C5_10 C 0.44325(17) 0.9551(6) 0.7174(8) 0.0361 Uiso
C6_10 C 0.44498(16) 0.9291(9) 0.5976(11) 0.0361 Uiso
C7_10 C 0.3818(4) 0.9602(8) 0.7897(10) 0.0361 Uiso
O4_10 O 0.3801(6) 0.9924(14) 0.8845(16) 0.0019 Uiso
O5_10 O 0.3373(7) 0.9350(14) 0.730(2) 0.0019 Uiso
H4_10 H 0.40776(16) 0.9203(10) 0.5569(12) 0.0433 Uiso
O8_6 O 0.8373(7) 0.9350(14) 0.770(2) 0.0019 Uiso
Al2_4 Al 0.250 0.94001(15) 0.750 0.0085 Uiso
Al3_9 Al 0.30999(15) 1.000 1.000 0.0085 Uiso
C1_11 C 0.55675(17) 0.0449(6) 0.2826(8) 0.0361 Uiso
C2_11 C 0.55502(16) 0.0709(9) 0.4024(11) 0.0361 Uiso
C3_11 C 0.6182(4) 0.0398(8) 0.2103(10) 0.0361 Uiso
H1_11 H 0.59224(16) 0.0797(10) 0.4431(12) 0.0433 Uiso
C4_14 C 0.500 0.03256 0.22344 0.0361 Uiso
N1_14 N 0.500 0.08475 0.46127 0.0361 Uiso
H2_14 H 0.500 0.01477 0.14237 0.0433 Uiso
C5_11 C 0.44325(17) 0.0449(6) 0.2826(8) 0.0361 Uiso
C6_11 C 0.44498(16) 0.0709(9) 0.4024(11) 0.0361 Uiso
C7_11 C 0.3818(4) 0.0398(8) 0.2103(10) 0.0361 Uiso
O4_11 O 0.3801(6) 0.0076(14) 0.1155(16) 0.0019 Uiso
O5_11 O 0.3373(7) 0.0650(14) 0.270(2) 0.0019 Uiso
H4_11 H 0.40776(16) 0.0797(10) 0.4431(12) 0.0433 Uiso
C1_12 C 0.2051(6) 0.30675(17) 0.5326(8) 0.0361 Uiso
C2_12 C 0.1791(9) 0.30502(16) 0.6524(11) 0.0361 Uiso
C3_12 C 0.2102(8) 0.3682(4) 0.4603(10) 0.0361 Uiso
O2_7 O 0.1850(14) 0.4127(7) 0.520(2) 0.0019 Uiso
H1_12 H 0.1703(10) 0.34224(16) 0.6931(12) 0.0433 Uiso
C4_15 C 0.21744 0.250 0.47344 0.0361 Uiso
N1_15 N 0.16525 0.250 0.71127 0.0361 Uiso
H2_15 H 0.23523 0.250 0.39237 0.0433 Uiso
C5_12 C 0.2051(6) 0.19325(17) 0.5326(8) 0.0361 Uiso
C6_12 C 0.1791(9) 0.19498(16) 0.6524(11) 0.0361 Uiso
C7_12 C 0.2102(8) 0.1318(4) 0.4603(10) 0.0361 Uiso
O4_12 O 0.2424(14) 0.1301(6) 0.3655(16) 0.0019 Uiso
O5_12 O 0.1850(14) 0.0873(7) 0.520(2) 0.0019 Uiso
H4_12 H 0.1703(10) 0.15776(16) 0.6931(12) 0.0433 Uiso
O8_7 O 0.1850(14) 0.5873(7) 0.480(2) 0.0019 Uiso
C1_13 C 0.2051(6) 0.69325(17) 0.4674(8) 0.0361 Uiso
C2_13 C 0.1791(9) 0.69498(16) 0.3476(11) 0.0361 Uiso
C3_13 C 0.2102(8) 0.6318(4) 0.5397(10) 0.0361 Uiso
H1_13 H 0.1703(10) 0.65776(16) 0.3069(12) 0.0433 Uiso
C4_16 C 0.21744 0.750 0.52656 0.0361 Uiso
N1_16 N 0.16525 0.750 0.28873 0.0361 Uiso
H2_16 H 0.23523 0.750 0.60763 0.0433 Uiso
C5_13 C 0.2051(6) 0.80675(17) 0.4674(8) 0.0361 Uiso
C6_13 C 0.1791(9) 0.80502(16) 0.3476(11) 0.0361 Uiso
C7_13 C 0.2102(8) 0.8682(4) 0.5397(10) 0.0361 Uiso
O4_13 O 0.2424(14) 0.8699(6) 0.6345(16) 0.0019 Uiso
O5_13 O 0.1850(14) 0.9127(7) 0.480(2) 0.0019 Uiso
H4_13 H 0.1703(10) 0.84224(16) 0.3069(12) 0.0433 Uiso
C3_14 C 0.2898(8) 0.3682(4) 0.0397(10) 0.0361 Uiso
C4_17 C 0.28256 0.250 0.02656 0.0361 Uiso
H2_17 H 0.26477 0.250 0.10763 0.0433 Uiso
C7_14 C 0.2898(8) 0.1318(4) 0.0397(10) 0.0361 Uiso
O4_14 O 0.2576(14) 0.1301(6) 0.1345(16) 0.0019 Uiso
O8_8 O 0.3150(14) 0.5873(7) 0.020(2) 0.0019 Uiso
C1_14 C 0.2949(6) 0.30675(17) 0.9674(8) 0.0361 Uiso
C2_14 C 0.3209(9) 0.30502(16) 0.8476(11) 0.0361 Uiso
O2_8 O 0.3150(14) 0.4127(7) 0.980(2) 0.0019 Uiso
H1_14 H 0.3297(10) 0.34224(16) 0.8069(12) 0.0433 Uiso
N1_17 N 0.33475 0.250 0.78873 0.0361 Uiso
C5_14 C 0.2949(6) 0.19325(17) 0.9674(8) 0.0361 Uiso
C6_14 C 0.3209(9) 0.19498(16) 0.8476(11) 0.0361 Uiso
O5_14 O 0.3150(14) 0.0873(7) 0.980(2) 0.0019 Uiso
H4_14 H 0.3297(10) 0.15776(16) 0.8069(12) 0.0433 Uiso
C1_15 C 0.2949(6) 0.69325(17) 0.0326(8) 0.0361 Uiso
C2_15 C 0.3209(9) 0.69498(16) 0.1524(11) 0.0361 Uiso
H1_15 H 0.3297(10) 0.65776(16) 0.1931(12) 0.0433 Uiso
N1_18 N 0.33475 0.750 0.21127 0.0361 Uiso
C5_15 C 0.2949(6) 0.80675(17) 0.0326(8) 0.0361 Uiso
C6_15 C 0.3209(9) 0.80502(16) 0.1524(11) 0.0361 Uiso
O5_15 O 0.3150(14) 0.9127(7) 0.020(2) 0.0019 Uiso
H4_15 H 0.3297(10) 0.84224(16) 0.1931(12) 0.0433 Uiso
C3_15 C 0.2898(8) 0.6318(4) 0.9603(10) 0.0361 Uiso
C4_18 C 0.28256 0.750 0.97344 0.0361 Uiso
H2_18 H 0.26477 0.750 0.89237 0.0433 Uiso
C7_15 C 0.2898(8) 0.8682(4) 0.9603(10) 0.0361 Uiso
O4_15 O 0.2576(14) 0.8699(6) 0.8655(16) 0.0019 Uiso
C4_19 C -0.000 0.96744 0.72344 0.0361 Uiso
N1_19 N -0.000 0.91525 0.96127 0.0361 Uiso
H2_19 H -0.000 0.98523 0.64237 0.0433 Uiso
C5_16 C 0.05675(17) 0.9551(6) 0.7826(8) 0.0361 Uiso
C6_16 C 0.05502(16) 0.9291(9) 0.9024(11) 0.0361 Uiso
C7_16 C 0.1182(4) 0.9602(8) 0.7103(10) 0.0361 Uiso
O4_16 O 0.1199(6) 0.9924(14) 0.6155(16) 0.0019 Uiso
O5_16 O 0.1627(7) 0.9350(14) 0.770(2) 0.0019 Uiso
H4_16 H 0.09224(16) 0.9203(10) 0.9431(12) 0.0433 Uiso
C1_16 C 0.94325(17) 0.9551(6) 0.7826(8) 0.0361 Uiso
C2_16 C 0.94498(16) 0.9291(9) 0.9024(11) 0.0361 Uiso
C3_16 C 0.8818(4) 0.9602(8) 0.7103(10) 0.0361 Uiso
H1_16 H 0.90776(16) 0.9203(10) 0.9431(12) 0.0433 Uiso
C4_20 C 1.000 0.96744 0.72344 0.0361 Uiso
N1_20 N 1.000 0.91525 0.96127 0.0361 Uiso
H2_20 H 1.000 0.98523 0.64237 0.0433 Uiso
O3_5 O 0.74474(16) 0.49474(16) 0.125 0.0019 Uiso
H3_9 H 0.774(2) 0.524(2) 0.125 0.0433 Uiso
O9_5 O 0.75526(16) 0.49474(16) 0.375 0.0019 Uiso
O3_6 O 0.75526(16) 0.50526(16) 0.625 0.0019 Uiso
H3_10 H 0.726(2) 0.476(2) 0.625 0.0433 Uiso
O9_6 O 0.74474(16) 0.50526(16) 0.875 0.0019 Uiso
H3_11 H 0.726(2) 0.524(2) 0.375 0.0433 Uiso
O3_7 O 0.25526(16) 0.00526(16) 0.125 0.0019 Uiso
H3_12 H 0.226(2) 0.976(2) 0.125 0.0433 Uiso
O9_7 O 0.25526(16) 0.99474(16) 0.875 0.0019 Uiso
H3_13 H 0.226(2) 0.024(2) 0.875 0.0433 Uiso
O3_8 O 0.24474(16) 0.00526(16) 0.375 0.0019 Uiso
H3_14 H 0.274(2) 0.976(2) 0.375 0.0433 Uiso
O9_8 O 0.24474(16) 0.99474(16) 0.625 0.0019 Uiso
H3_15 H 0.274(2) 0.024(2) 0.625 0.0433 Uiso
H3_16 H 0.774(2) 0.476(2) 0.875 0.0433 Uiso
loop_
_geom_bond_atom_site_label_1
_geom_bond_atom_site_label_2
_geom_bond_site_symmetry_1
_geom_bond_site_symmetry_2
C1 C2 1_555 1_555
C2 H1 1_555 1_555
C3 C1 1_555 1_555
O1 C3 1_555 1_555
O2 C3 1_555 1_555
C4 C1 1_555 1_555
N1 C2 1_555 1_555
H2 C4 1_555 1_555
Al1 O2 1_555 1_555
O3 Al1 1_555 1_555
H3 O3 1_555 1_555
C5 C4 1_555 1_555
C6 N1 1_555 1_555
C7 C5 1_555 1_555
O4 C7 1_555 1_555
O5 C7 1_555 1_555
H4 C6 1_555 1_555
O6 Al1 1_555 1_555
O7 Al1 1_555 1_555
O8 Al1 1_555 1_555
Al2 O5 1_555 1_555
Al3_2 O4 1_555 1_555
Al4_2 O1 1_555 1_555
O9 Al1 1_555 1_555
O3 Al4_2 1_555 1_555
C5 C6 1_555 1_555
C1_2 C2_2 1_555 1_555
C2_2 H1_2 1_555 1_555
C3_2 C1_2 1_555 1_555
O1_2 C3_2 1_555 1_555
O2_2 C3_2 1_555 1_555
C4_2 C1_2 1_555 1_555
N1_2 C2_2 1_555 1_555
H2_2 C4_2 1_555 1_555
Al1_2 O2_2 1_555 1_555
O3_2 Al1_2 1_555 1_555
H3_2 O3_2 1_555 1_555
O6_2 Al1_2 1_555 1_555
O7_2 Al1_2 1_555 1_555
O8_2 Al1_2 1_555 1_555
Al4_3 O1_2 1_555 1_555
O9_2 Al1_2 1_555 1_555
O3_2 Al4_3 1_555 1_555
H2_3 C4_3 1_555 1_555
C5_2 C4_3 1_555 1_555
C6_2 N1_3 1_555 1_555
C7_2 C5_2 1_555 1_555
O4_2 C7_2 1_555 1_555
O5_2 C7_2 1_555 1_555
H4_2 C6_2 1_555 1_555
Al2_2 O5_2 1_555 1_555
Al3_3 O4_2 1_555 1_555
C5_2 C6_2 1_555 1_555
C1_3 C2_3 1_555 1_555
C2_3 H1_3 1_555 1_555
C3_3 C1_3 1_555 1_555
O1_3 C3_3 1_555 1_555
O8 C3_3 1_555 1_555
C4_4 C1_3 1_555 1_555
N1_4 C2_3 1_555 1_555
H2_4 C4_4 1_555 1_555
H3_3 O9 1_555 1_555
Al4_3 O1_3 1_555 1_555
O9 Al4_3 1_555 1_555
H2_5 C4_5 1_555 1_555
C5_3 C4_5 1_555 1_555
C6_3 N1_5 1_555 1_555
C7_3 C5_3 1_555 1_555
O4_3 C7_3 1_555 1_555
O5_3 C7_3 1_555 1_555
H4_3 C6_3 1_555 1_555
Al2 O5_3 1_555 1_555
Al3_3 O4_3 1_555 1_555
C5_3 C6_3 1_555 1_555
O6_3 Al1_3 1_555 1_555
O9_3 Al1_3 1_555 1_555
O8_3 Al1_4 1_555 1_555
C1_4 C2_4 1_555 1_555
C2_4 H1_4 1_555 1_555
N1_6 C2_4 1_555 1_555
Al1_5 O2_3 1_555 1_555
C6_4 N1_6 1_555 1_555
H4_4 C6_4 1_555 1_555
Al3 O5_4 1_555 1_555
C5_4 C6_4 1_555 1_555
O1_4 C3_4 1_555 1_555
H2_6 C4_6 1_555 1_555
O3_3 Al1_6 1_555 1_555
O4_4 C7_4 1_555 1_555
O7_3 Al1_6 1_555 1_555
Al2 O4_4 1_555 1_555
Al4_4 O1_4 1_555 1_555
O3_3 Al4_4 1_555 1_555
O1_5 C3_5 1_555 1_555
H2_7 C4_7 1_555 1_555
O4_5 C7_5 1_555 1_555
Al2_2 O4_5 1_555 1_555
Al4_5 O1_5 1_555 1_555
O9_3 Al4_5 1_555 1_555
C1_5 C2_5 1_555 1_555
C2_5 H1_5 1_555 1_555
N1_7 C2_5 1_555 1_555
C6_5 N1_7 1_555 1_555
H4_5 C6_5 1_555 1_555
Al3_2 O5_5 1_555 1_555
C5_5 C6_5 1_555 1_555
O6_4 Al1_7 1_555 1_555
O8_4 Al1_7 1_555 1_555
O9_4 Al1_7 1_555 1_555
C1_6 C2_6 1_555 1_555
C2_6 H1_6 1_555 1_555
C3_6 C1_6 1_555 1_555
O1_6 C3_6 1_555 1_555
O2_4 C3_6 1_555 1_555
C4_8 C1_6 1_555 1_555
N1_8 C2_6 1_555 1_555
H2_8 C4_8 1_555 1_555
Al1_8 O2_4 1_555 1_555
O3_4 Al1_8 1_555 1_555
C5_6 C4_8 1_555 1_555
C6_6 N1_8 1_555 1_555
C7_6 C5_6 1_555 1_555
O4_6 C7_6 1_555 1_555
O5_6 C7_6 1_555 1_555
H4_6 C6_6 1_555 1_555
O7_4 Al1_8 1_555 1_555
Al3_3 O5_6 1_555 1_555
Al2 O4_6 1_555 1_555
Al4_4 O1_6 1_555 1_555
O3_4 Al4_4 1_555 1_555
C5_6 C6_6 1_555 1_555
C1_7 C2_7 1_555 1_555
C2_7 H1_7 1_555 1_555
C3_7 C1_7 1_555 1_555
O1_7 C3_7 1_555 1_555
O8_4 C3_7 1_555 1_555
C4_9 C1_7 1_555 1_555
N1_9 C2_7 1_555 1_555
H2_9 C4_9 1_555 1_555
C5_7 C4_9 1_555 1_555
C6_7 N1_9 1_555 1_555
C7_7 C5_7 1_555 1_555
O4_7 C7_7 1_555 1_555
O5_7 C7_7 1_555 1_555
H4_7 C6_7 1_555 1_555
Al3_3 O5_7 1_555 1_555
Al2_2 O4_7 1_555 1_555
Al4_5 O1_7 1_555 1_555
O9_4 Al4_5 1_555 1_555
C5_7 C6_7 1_555 1_555
C1_8 C2_8 1_555 1_555
C2_8 H1_8 1_555 1_555
C3_8 C1_8 1_555 1_555
O1_8 C3_8 1_555 1_555
O8_2 C3_8 1_555 1_555
C4_10 C1_8 1_555 1_555
N1_10 C2_8 1_555 1_555
H2_10 C4_10 1_555 1_555
H3_8 O9_2 1_555 1_555
C5_8 C4_10 1_555 1_555
C6_8 N1_10 1_555 1_555
C7_8 C5_8 1_555 1_555
O4_8 C7_8 1_555 1_555
O5_8 C7_8 1_555 1_555
H4_8 C6_8 1_555 1_555
Al2_2 O5_8 1_555 1_555
Al3 O4_8 1_555 1_555
Al4 O1_8 1_555 1_555
O9_2 Al4 1_555 1_555
C5_8 C6_8 1_555 1_555
H2_11 C4_11 1_555 1_555
C5_9 C4_11 1_555 1_555
C6_9 N1_11 1_555 1_555
C7_9 C5_9 1_555 1_555
O4_9 C7_9 1_555 1_555
O5_9 C7_9 1_555 1_555
H4_9 C6_9 1_555 1_555
Al2_3 O5_9 1_555 1_555
Al3_4 O4_9 1_555 1_555
C5_9 C6_9 1_555 1_555
C1_9 C2_9 1_555 1_555
C2_9 H1_9 1_555 1_555
C3_9 C1_9 1_555 1_555
O6_4 C3_9 1_555 1_555
O2_5 C3_9 1_555 1_555
C4_12 C1_9 1_555 1_555
N1_12 C2_9 1_555 1_555
H2_12 C4_12 1_555 1_555
Al4_5 O2_5 1_555 1_555
O8_5 Al4_5 1_555 1_555
C1_10 C2_10 1_555 1_555
C2_10 H1_10 1_555 1_555
C3_10 C1_10 1_555 1_555
O7_3 C3_10 1_555 1_555
O2_6 C3_10 1_555 1_555
C4_13 C1_10 1_555 1_555
N1_13 C2_10 1_555 1_555
H2_13 C4_13 1_555 1_555
Al4_4 O2_6 1_555 1_555
C5_10 C4_13 1_555 1_555
C6_10 N1_13 1_555 1_555
C7_10 C5_10 1_555 1_555
O4_10 C7_10 1_555 1_555
O5_10 C7_10 1_555 1_555
H4_10 C6_10 1_555 1_555
O8_6 Al4_4 1_555 1_555
Al2_4 O5_10 1_555 1_555
Al3_9 O4_10 1_555 1_555
C5_10 C6_10 1_555 1_555
C1_11 C2_11 1_555 1_555
C2_11 H1_11 1_555 1_555
C3_11 C1_11 1_555 1_555
O6_3 C3_11 1_555 1_555
O8_5 C3_11 1_555 1_555
C4_14 C1_11 1_555 1_555
N1_14 C2_11 1_555 1_555
H2_14 C4_14 1_555 1_555
C5_11 C4_14 1_555 1_555
C6_11 N1_14 1_555 1_555
C7_11 C5_11 1_555 1_555
O4_11 C7_11 1_555 1_555
O5_11 C7_11 1_555 1_555
H4_11 C6_11 1_555 1_555
Al2_3 O5_11 1_555 1_555
Al3_6 O4_11 1_555 1_555
C5_11 C6_11 1_555 1_555
C1_12 C2_12 1_555 1_555
C2_12 H1_12 1_555 1_555
C3_12 C1_12 1_555 1_555
O7_2 C3_12 1_555 1_555
O2_7 C3_12 1_555 1_555
C4_15 C1_12 1_555 1_555
N1_15 C2_12 1_555 1_555
H2_15 C4_15 1_555 1_555
Al4_3 O2_7 1_555 1_555
C5_12 C4_15 1_555 1_555
C6_12 N1_15 1_555 1_555
C7_12 C5_12 1_555 1_555
O4_12 C7_12 1_555 1_555
O5_12 C7_12 1_555 1_555
H4_12 C6_12 1_555 1_555
O8_7 Al4_3 1_555 1_555
Al3_4 O5_12 1_555 1_555
Al2_3 O4_12 1_555 1_555
C5_12 C6_12 1_555 1_555
C1_13 C2_13 1_555 1_555
C2_13 H1_13 1_555 1_555
C3_13 C1_13 1_555 1_555
O6 C3_13 1_555 1_555
O8_7 C3_13 1_555 1_555
C4_16 C1_13 1_555 1_555
N1_16 C2_13 1_555 1_555
H2_16 C4_16 1_555 1_555
C5_13 C4_16 1_555 1_555
C6_13 N1_16 1_555 1_555
C7_13 C5_13 1_555 1_555
O4_13 C7_13 1_555 1_555
O5_13 C7_13 1_555 1_555
H4_13 C6_13 1_555 1_555
Al3_5 O5_13 1_555 1_555
Al2_4 O4_13 1_555 1_555
C5_13 C6_13 1_555 1_555
O6_2 C3_14 1_555 1_555
H2_17 C4_17 1_555 1_555
O4_14 C7_14 1_555 1_555
O8_8 Al4 1_555 1_555
Al2_3 O4_14 1_555 1_555
C1_14 C2_14 1_555 1_555
C2_14 H1_14 1_555 1_555
N1_17 C2_14 1_555 1_555
Al4_2 O2_8 1_555 1_555
C6_14 N1_17 1_555 1_555
H4_14 C6_14 1_555 1_555
Al3_7 O5_14 1_555 1_555
C5_14 C6_14 1_555 1_555
C1_15 C2_15 1_555 1_555
C2_15 H1_15 1_555 1_555
N1_18 C2_15 1_555 1_555
C6_15 N1_18 1_555 1_555
H4_15 C6_15 1_555 1_555
Al3_8 O5_15 1_555 1_555
C5_15 C6_15 1_555 1_555
O7 C3_15 1_555 1_555
H2_18 C4_18 1_555 1_555
O4_15 C7_15 1_555 1_555
Al2_4 O4_15 1_555 1_555
H2_19 C4_19 1_555 1_555
C5_16 C4_19 1_555 1_555
C6_16 N1_19 1_555 1_555
C7_16 C5_16 1_555 1_555
O4_16 C7_16 1_555 1_555
O5_16 C7_16 1_555 1_555
H4_16 C6_16 1_555 1_555
Al2_4 O5_16 1_555 1_555
Al3_5 O4_16 1_555 1_555
C5_16 C6_16 1_555 1_555
C1_16 C2_16 1_555 1_555
C2_16 H1_16 1_555 1_555
C3_16 C1_16 1_555 1_555
O7_4 C3_16 1_555 1_555
O8_6 C3_16 1_555 1_555
C4_20 C1_16 1_555 1_555
N1_20 C2_16 1_555 1_555
H2_20 C4_20 1_555 1_555
O3_5 Al2_2 1_555 1_555
H3_9 O3_5 1_555 1_555
O9_5 Al2_2 1_555 1_555
O3_5 Al3 1_555 1_555
O3_6 Al2 1_555 1_555
H3_10 O3_6 1_555 1_555
O9_6 Al2 1_555 1_555
O3_6 Al3_3 1_555 1_555
H3_11 O9_5 1_555 1_555
O9_5 Al3_3 1_555 1_555
O3_7 Al3_6 1_555 1_555
O3_7 Al2_3 1_555 1_555
O9_7 Al3_9 1_555 1_555
O9_7 Al2_4 1_555 1_555
O3_8 Al3_4 1_555 1_555
O3_8 Al2_3 1_555 1_555
O9_8 Al3_5 1_555 1_555
O9_8 Al2_4 1_555 1_555
H3_16 O9_6 1_555 1_555
O9_6 Al3_2 1_555 1_555

#END
