
###############################################################################
#
# This file contains modified crystal structure data generated from the
# MOF subset of the Cambridge Structural Database (CSD) v543 
# hosted by the Cambridge Crystallographic Data Centre (CCDC).
#
# This work is licensed under the Creative Commons
# Attribution-NonCommercial-ShareAlike 4.0 International License.
# To view a copy of this license, visit
# http://creativecommons.org/licenses/by-nc-sa/4.0/
# or send a letter to
# Creative Commons, PO Box 1866, Mountain View, CA 94042, USA.
#
# CIF created using the CSD Python API on 29 September 2022
# The structure has been converted into the P1 space group
# The structure has a 3D framework
# The original CSD entry DITJEY01 is in the tetragonal crystal system
# The framework has been calculated to contain at least 10.0% void space
# The void calculation uses a probe of radius 1.32A, grid spacing 0.4
# H atom positions have been added when not included in the experimental data
#
###############################################################################

data_DITJEY01
_chemical_formula_moiety         '(C120 H56 Al10 N24 O65)n'
_symmetry_cell_setting           triclinic
_symmetry_space_group_name_H-M   'P 1'
_symmetry_Int_Tables_number      1
_space_group_name_Hall           'P 1'
loop_
_symmetry_equiv_pos_site_id
_symmetry_equiv_pos_as_xyz
1 x,y,z
_cell_length_a                   21.5100(3)
_cell_length_b                   21.5100(3)
_cell_length_c                   10.51505(17)
_cell_angle_alpha                90
_cell_angle_beta                 90
_cell_angle_gamma                90
_cell_volume                     4865.1
loop_
_atom_site_label
_atom_site_type_symbol
_atom_site_fract_x
_atom_site_fract_y
_atom_site_fract_z
_atom_site_U_iso_or_equiv
_atom_site_thermal_displace_type
Al1 Al 0.1849(3) 0.250 0.125 0.0018 Uiso
O1 O 0.2455(3) 0.2545(3) 0.250 0.0018 Uiso
O2 O 0.1190(3) 0.2597(3) 0.2495(6) 0.0018 Uiso
O3 O 0.1638(3) 0.3149(3) 0.4050(7) 0.0018 Uiso
C1 C 0.1146(5) 0.2889(5) 0.3580(11) 0.0018 Uiso
C2 C 0.0556(5) 0.2999(5) 0.4197(9) 0.0018 Uiso
C3 C 0.0561(4) 0.3195(5) 0.5464(9) 0.0018 Uiso
C4 C -0.000 0.2910(8) 0.3530(15) 0.0018 Uiso
N1 N 0.000 0.3434(6) 0.5934(11) 0.0018 Uiso
Al3 Al 0.250 0.3151(3) 0.375 0.0018 Uiso
O6 O 0.2455(3) 0.2455(3) 0.000 0.0018 Uiso
O7 O 0.1190(3) 0.2403(3) 0.0005(6) 0.0018 Uiso
O8 O 0.1851(3) 0.3362(3) 0.0950(7) 0.0018 Uiso
O9 O 0.1851(3) 0.1638(3) 0.1550(7) 0.0018 Uiso
H1 H 0.0976593 0.316387 0.605202 . .
H2 H 3.80695e-18 0.277669 0.253089 . .
O6_2 O 0.2455(3) 0.2455(3) 1.000 0.0018 Uiso
C4_2 C 1.000 0.2910(8) 0.3530(15) 0.0018 Uiso
N1_2 N 1.000 0.3434(6) 0.5934(11) 0.0018 Uiso
O4 O 0.8810(3) 0.2597(3) 0.2495(6) 0.0018 Uiso
O5 O 0.8362(3) 0.3149(3) 0.4050(7) 0.0018 Uiso
C5 C 0.8854(5) 0.2889(5) 0.3580(11) 0.0018 Uiso
C6 C 0.9444(5) 0.2999(5) 0.4197(9) 0.0018 Uiso
C7 C 0.9439(4) 0.3195(5) 0.5464(9) 0.0018 Uiso
Al2 Al 0.8151(3) 0.250 0.125 0.0018 Uiso
Al4 Al 0.750 0.3151(3) 0.375 0.0018 Uiso
H2_2 H 1 0.277669 0.253089 . .
H3 H 0.902341 0.316387 0.605202 . .
O1_2 O 0.7545(3) 0.2545(3) 0.250 0.0018 Uiso
O6_3 O 0.7545(3) 0.2455(3) 0.000 0.0018 Uiso
O7_2 O 0.8810(3) 0.2403(3) 0.0005(6) 0.0018 Uiso
O8_2 O 0.8149(3) 0.3362(3) 0.0950(7) 0.0018 Uiso
O9_2 O 0.8149(3) 0.1638(3) 0.1550(7) 0.0018 Uiso
O6_4 O 0.7545(3) 0.2455(3) 1.000 0.0018 Uiso
Al1_2 Al 0.3151(3) 0.250 0.625 0.0018 Uiso
O1_3 O 0.2545(3) 0.2455(3) 0.750 0.0018 Uiso
O2_2 O 0.3810(3) 0.2403(3) 0.7495(6) 0.0018 Uiso
O3_2 O 0.3362(3) 0.1851(3) 0.9050(7) 0.0018 Uiso
C1_2 C 0.3854(5) 0.2111(5) 0.8580(11) 0.0018 Uiso
C2_2 C 0.4444(5) 0.2001(5) 0.9197(9) 0.0018 Uiso
C4_3 C 0.500 0.2090(8) 0.8530(15) 0.0018 Uiso
O4_2 O 0.6190(3) 0.2403(3) 0.7495(6) 0.0018 Uiso
O5_2 O 0.6638(3) 0.1851(3) 0.9050(7) 0.0018 Uiso
C5_2 C 0.6146(5) 0.2111(5) 0.8580(11) 0.0018 Uiso
C6_2 C 0.5556(5) 0.2001(5) 0.9197(9) 0.0018 Uiso
Al2_2 Al 0.6849(3) 0.250 0.625 0.0018 Uiso
Al3_2 Al 0.250 0.1849(3) 0.875 0.0018 Uiso
Al4_2 Al 0.750 0.1849(3) 0.875 0.0018 Uiso
O6_5 O 0.2545(3) 0.2545(3) 0.500 0.0018 Uiso
O7_3 O 0.3810(3) 0.2597(3) 0.5005(6) 0.0018 Uiso
O8_3 O 0.3149(3) 0.1638(3) 0.5950(7) 0.0018 Uiso
O9_3 O 0.3149(3) 0.3362(3) 0.6550(7) 0.0018 Uiso
H2_3 H 0.5 0.222331 0.753089 . .
O3_3 O 0.3362(3) 0.3149(3) 0.3450(7) 0.0018 Uiso
C1_3 C 0.3854(5) 0.2889(5) 0.3920(11) 0.0018 Uiso
C2_3 C 0.4444(5) 0.2999(5) 0.3303(9) 0.0018 Uiso
C3_2 C 0.4439(4) 0.3195(5) 0.2036(9) 0.0018 Uiso
C4_4 C 0.500 0.2910(8) 0.3970(15) 0.0018 Uiso
N1_3 N 0.500 0.3434(6) 0.1566(11) 0.0018 Uiso
O4_3 O 0.6190(3) 0.2597(3) 0.5005(6) 0.0018 Uiso
O5_3 O 0.6638(3) 0.3149(3) 0.3450(7) 0.0018 Uiso
C5_3 C 0.6146(5) 0.2889(5) 0.3920(11) 0.0018 Uiso
C6_3 C 0.5556(5) 0.2999(5) 0.3303(9) 0.0018 Uiso
C7_2 C 0.5561(4) 0.3195(5) 0.2036(9) 0.0018 Uiso
H1_2 H 0.402341 0.316387 0.144798 . .
H2_4 H 0.5 0.277669 0.496911 . .
H3_2 H 0.597659 0.316387 0.144798 . .
C4_5 C 0.7090(8) 0.000 0.6470(15) 0.0018 Uiso
N1_4 N 0.6566(6) -0.000 0.4066(11) 0.0018 Uiso
O4_4 O 0.7403(3) 0.1190(3) 0.7505(6) 0.0018 Uiso
O5_4 O 0.6851(3) 0.1638(3) 0.5950(7) 0.0018 Uiso
C5_4 C 0.7111(5) 0.1146(5) 0.6420(11) 0.0018 Uiso
C6_4 C 0.7001(5) 0.0556(5) 0.5803(9) 0.0018 Uiso
C7_3 C 0.6805(5) 0.0561(4) 0.4536(9) 0.0018 Uiso
H2_5 H 0.722331 -3.80695e-18 0.746911 . .
H3_3 H 0.683613 0.0976593 0.394798 . .
O6_6 O 0.7545(3) 0.7545(3) 0.000 0.0018 Uiso
Al1_3 Al 0.750 0.8151(3) 0.875 0.0018 Uiso
O1_4 O 0.7455(3) 0.7545(3) 0.750 0.0018 Uiso
O2_3 O 0.7403(3) 0.8810(3) 0.7505(6) 0.0018 Uiso
O3_4 O 0.6851(3) 0.8362(3) 0.5950(7) 0.0018 Uiso
C1_4 C 0.7111(5) 0.8854(5) 0.6420(11) 0.0018 Uiso
C2_4 C 0.7001(5) 0.9444(5) 0.5803(9) 0.0018 Uiso
C3_3 C 0.6805(5) 0.9439(4) 0.4536(9) 0.0018 Uiso
C4_6 C 0.7090(8) 1.000 0.6470(15) 0.0018 Uiso
N1_5 N 0.6566(6) 1.000 0.4066(11) 0.0018 Uiso
Al3_3 Al 0.6849(3) 0.750 0.625 0.0018 Uiso
O6_7 O 0.7545(3) 0.7545(3) 1.000 0.0018 Uiso
O7_4 O 0.7597(3) 0.8810(3) 0.9995(6) 0.0018 Uiso
O8_4 O 0.6638(3) 0.8149(3) 0.9050(7) 0.0018 Uiso
O9_4 O 0.8362(3) 0.8149(3) 0.8450(7) 0.0018 Uiso
H1_3 H 0.683613 0.902341 0.394798 . .
H2_6 H 0.722331 1 0.746911 . .
Al1_4 Al 0.750 0.6849(3) 0.375 0.0018 Uiso
O1_5 O 0.7455(3) 0.7455(3) 0.500 0.0018 Uiso
O2_4 O 0.7403(3) 0.6190(3) 0.4995(6) 0.0018 Uiso
O3_5 O 0.6851(3) 0.6638(3) 0.6550(7) 0.0018 Uiso
C1_5 C 0.7111(5) 0.6146(5) 0.6080(11) 0.0018 Uiso
C2_5 C 0.7001(5) 0.5556(5) 0.6697(9) 0.0018 Uiso
C3_4 C 0.6805(5) 0.5561(4) 0.7964(9) 0.0018 Uiso
C4_7 C 0.7090(8) 0.500 0.6030(15) 0.0018 Uiso
N1_6 N 0.6566(6) 0.500 0.8434(11) 0.0018 Uiso
O4_5 O 0.7403(3) 0.3810(3) 0.4995(6) 0.0018 Uiso
O5_5 O 0.6851(3) 0.3362(3) 0.6550(7) 0.0018 Uiso
C5_5 C 0.7111(5) 0.3854(5) 0.6080(11) 0.0018 Uiso
C6_5 C 0.7001(5) 0.4444(5) 0.6697(9) 0.0018 Uiso
C7_4 C 0.6805(5) 0.4439(4) 0.7964(9) 0.0018 Uiso
O6_8 O 0.7545(3) 0.7455(3) 0.250 0.0018 Uiso
O7_5 O 0.7597(3) 0.6190(3) 0.2505(6) 0.0018 Uiso
O8_5 O 0.6638(3) 0.6851(3) 0.3450(7) 0.0018 Uiso
O9_5 O 0.8362(3) 0.6851(3) 0.4050(7) 0.0018 Uiso
H1_4 H 0.683613 0.597659 0.855202 . .
H2_7 H 0.722331 0.5 0.503089 . .
H3_4 H 0.683613 0.402341 0.855202 . .
C4_8 C 0.2090(8) -0.000 0.1030(15) 0.0018 Uiso
N1_7 N 0.1566(6) -0.000 0.3434(11) 0.0018 Uiso
C5_6 C 0.2111(5) 0.1146(5) 0.1080(11) 0.0018 Uiso
C6_6 C 0.2001(5) 0.0556(5) 0.1697(9) 0.0018 Uiso
C7_5 C 0.1805(5) 0.0561(4) 0.2964(9) 0.0018 Uiso
H2_8 H 0.222331 -3.80695e-18 0.00308924 . .
H3_5 H 0.183613 0.0976593 0.355202 . .
O4_6 O 0.2403(3) 0.1190(3) 0.9995(6) 0.0018 Uiso
O1_6 O 0.2455(3) 0.7545(3) 0.000 0.0018 Uiso
O3_6 O 0.1851(3) 0.8362(3) 0.1550(7) 0.0018 Uiso
C1_6 C 0.2111(5) 0.8854(5) 0.1080(11) 0.0018 Uiso
C2_6 C 0.2001(5) 0.9444(5) 0.1697(9) 0.0018 Uiso
C3_5 C 0.1805(5) 0.9439(4) 0.2964(9) 0.0018 Uiso
C4_9 C 0.2090(8) 1.000 0.1030(15) 0.0018 Uiso
N1_8 N 0.1566(6) 1.000 0.3434(11) 0.0018 Uiso
Al3_4 Al 0.1849(3) 0.750 0.125 0.0018 Uiso
H1_5 H 0.183613 0.902341 0.355202 . .
H2_9 H 0.222331 1 0.00308924 . .
Al1_5 Al 0.250 0.8151(3) 0.875 0.0018 Uiso
O1_7 O 0.2455(3) 0.7545(3) 1.000 0.0018 Uiso
O2_5 O 0.2403(3) 0.8810(3) 0.9995(6) 0.0018 Uiso
O6_9 O 0.2545(3) 0.7545(3) 0.750 0.0018 Uiso
O7_6 O 0.2597(3) 0.8810(3) 0.7505(6) 0.0018 Uiso
O8_6 O 0.1638(3) 0.8149(3) 0.8450(7) 0.0018 Uiso
O9_6 O 0.3362(3) 0.8149(3) 0.9050(7) 0.0018 Uiso
Al1_6 Al 0.250 0.6849(3) 0.375 0.0018 Uiso
O1_8 O 0.2455(3) 0.7455(3) 0.250 0.0018 Uiso
O2_6 O 0.2403(3) 0.6190(3) 0.2505(6) 0.0018 Uiso
O3_7 O 0.1851(3) 0.6638(3) 0.0950(7) 0.0018 Uiso
C1_7 C 0.2111(5) 0.6146(5) 0.1420(11) 0.0018 Uiso
C2_7 C 0.2001(5) 0.5556(5) 0.0803(9) 0.0018 Uiso
C4_10 C 0.2090(8) 0.500 0.1470(15) 0.0018 Uiso
O4_7 O 0.2403(3) 0.3810(3) 0.2505(6) 0.0018 Uiso
C5_7 C 0.2111(5) 0.3854(5) 0.1420(11) 0.0018 Uiso
C6_7 C 0.2001(5) 0.4444(5) 0.0803(9) 0.0018 Uiso
O6_10 O 0.2545(3) 0.7455(3) 0.500 0.0018 Uiso
O7_7 O 0.2597(3) 0.6190(3) 0.4995(6) 0.0018 Uiso
O8_7 O 0.1638(3) 0.6851(3) 0.4050(7) 0.0018 Uiso
O9_7 O 0.3362(3) 0.6851(3) 0.3450(7) 0.0018 Uiso
H2_10 H 0.222331 0.5 0.246911 . .
C4_11 C 0.2910(8) 0.000 0.6470(15) 0.0018 Uiso
N1_9 N 0.3434(6) -0.000 0.4066(11) 0.0018 Uiso
O4_8 O 0.2597(3) 0.1190(3) 0.7505(6) 0.0018 Uiso
C5_8 C 0.2889(5) 0.1146(5) 0.6420(11) 0.0018 Uiso
C6_8 C 0.2999(5) 0.0556(5) 0.5803(9) 0.0018 Uiso
C7_6 C 0.3195(5) 0.0561(4) 0.4536(9) 0.0018 Uiso
H2_11 H 0.277669 -3.80695e-18 0.746911 . .
H3_6 H 0.316387 0.0976593 0.394798 . .
O3_8 O 0.3149(3) 0.8362(3) 0.5950(7) 0.0018 Uiso
C1_8 C 0.2889(5) 0.8854(5) 0.6420(11) 0.0018 Uiso
C2_8 C 0.2999(5) 0.9444(5) 0.5803(9) 0.0018 Uiso
C3_6 C 0.3195(5) 0.9439(4) 0.4536(9) 0.0018 Uiso
C4_12 C 0.2910(8) 1.000 0.6470(15) 0.0018 Uiso
N1_10 N 0.3434(6) 1.000 0.4066(11) 0.0018 Uiso
Al3_5 Al 0.3151(3) 0.750 0.625 0.0018 Uiso
H1_6 H 0.316387 0.902341 0.394798 . .
H2_12 H 0.277669 1 0.746911 . .
O3_9 O 0.3149(3) 0.6638(3) 0.6550(7) 0.0018 Uiso
C1_9 C 0.2889(5) 0.6146(5) 0.6080(11) 0.0018 Uiso
C2_9 C 0.2999(5) 0.5556(5) 0.6697(9) 0.0018 Uiso
C3_7 C 0.3195(5) 0.5561(4) 0.7964(9) 0.0018 Uiso
C4_13 C 0.2910(8) 0.500 0.6030(15) 0.0018 Uiso
N1_11 N 0.3434(6) 0.500 0.8434(11) 0.0018 Uiso
O4_9 O 0.2597(3) 0.3810(3) 0.4995(6) 0.0018 Uiso
C5_9 C 0.2889(5) 0.3854(5) 0.6080(11) 0.0018 Uiso
C6_9 C 0.2999(5) 0.4444(5) 0.6697(9) 0.0018 Uiso
C7_7 C 0.3195(5) 0.4439(4) 0.7964(9) 0.0018 Uiso
H1_7 H 0.316387 0.597659 0.855202 . .
H2_13 H 0.277669 0.5 0.503089 . .
H3_7 H 0.316387 0.402341 0.855202 . .
C4_14 C 0.7910(8) -0.000 0.1030(15) 0.0018 Uiso
N1_12 N 0.8434(6) -0.000 0.3434(11) 0.0018 Uiso
C5_10 C 0.7889(5) 0.1146(5) 0.1080(11) 0.0018 Uiso
C6_10 C 0.7999(5) 0.0556(5) 0.1697(9) 0.0018 Uiso
C7_8 C 0.8195(5) 0.0561(4) 0.2964(9) 0.0018 Uiso
H2_14 H 0.777669 -3.80695e-18 0.00308924 . .
H3_8 H 0.816387 0.0976593 0.355202 . .
O4_10 O 0.7597(3) 0.1190(3) 0.9995(6) 0.0018 Uiso
O3_10 O 0.8149(3) 0.8362(3) 0.1550(7) 0.0018 Uiso
C1_10 C 0.7889(5) 0.8854(5) 0.1080(11) 0.0018 Uiso
C2_10 C 0.7999(5) 0.9444(5) 0.1697(9) 0.0018 Uiso
C3_8 C 0.8195(5) 0.9439(4) 0.2964(9) 0.0018 Uiso
C4_15 C 0.7910(8) 1.000 0.1030(15) 0.0018 Uiso
N1_13 N 0.8434(6) 1.000 0.3434(11) 0.0018 Uiso
Al3_6 Al 0.8151(3) 0.750 0.125 0.0018 Uiso
H1_8 H 0.816387 0.902341 0.355202 . .
H2_15 H 0.777669 1 0.00308924 . .
O3_11 O 0.8149(3) 0.6638(3) 0.0950(7) 0.0018 Uiso
C1_11 C 0.7889(5) 0.6146(5) 0.1420(11) 0.0018 Uiso
C2_11 C 0.7999(5) 0.5556(5) 0.0803(9) 0.0018 Uiso
C4_16 C 0.7910(8) 0.500 0.1470(15) 0.0018 Uiso
O4_11 O 0.7597(3) 0.3810(3) 0.2505(6) 0.0018 Uiso
C5_11 C 0.7889(5) 0.3854(5) 0.1420(11) 0.0018 Uiso
C6_11 C 0.7999(5) 0.4444(5) 0.0803(9) 0.0018 Uiso
H2_16 H 0.777669 0.5 0.246911 . .
O3_12 O 0.1638(3) 0.1851(3) 0.8450(7) 0.0018 Uiso
C1_12 C 0.1146(5) 0.2111(5) 0.8920(11) 0.0018 Uiso
C2_12 C 0.0556(5) 0.2001(5) 0.8303(9) 0.0018 Uiso
C3_9 C 0.0561(4) 0.1805(5) 0.7036(9) 0.0018 Uiso
C4_17 C -0.000 0.2090(8) 0.8970(15) 0.0018 Uiso
N1_14 N 0.000 0.1566(6) 0.6566(11) 0.0018 Uiso
H1_9 H 0.0976593 0.183613 0.644798 . .
H2_17 H 3.80695e-18 0.222331 0.996911 . .
C4_18 C 1.000 0.2090(8) 0.8970(15) 0.0018 Uiso
N1_15 N 1.000 0.1566(6) 0.6566(11) 0.0018 Uiso
O5_6 O 0.8362(3) 0.1851(3) 0.8450(7) 0.0018 Uiso
C5_12 C 0.8854(5) 0.2111(5) 0.8920(11) 0.0018 Uiso
C6_12 C 0.9444(5) 0.2001(5) 0.8303(9) 0.0018 Uiso
C7_9 C 0.9439(4) 0.1805(5) 0.7036(9) 0.0018 Uiso
H2_18 H 1 0.222331 0.996911 . .
H3_9 H 0.902341 0.183613 0.644798 . .
O1_9 O 0.7455(3) 0.2455(3) 0.750 0.0018 Uiso
O6_11 O 0.7455(3) 0.2545(3) 0.500 0.0018 Uiso
O2_7 O 0.6190(3) 0.7597(3) 0.7495(6) 0.0018 Uiso
C1_13 C 0.6146(5) 0.7889(5) 0.8580(11) 0.0018 Uiso
C2_13 C 0.5556(5) 0.7999(5) 0.9197(9) 0.0018 Uiso
C4_19 C 0.500 0.7910(8) 0.8530(15) 0.0018 Uiso
O4_12 O 0.3810(3) 0.7597(3) 0.7495(6) 0.0018 Uiso
C5_13 C 0.3854(5) 0.7889(5) 0.8580(11) 0.0018 Uiso
C6_13 C 0.4444(5) 0.7999(5) 0.9197(9) 0.0018 Uiso
O7_8 O 0.6190(3) 0.7403(3) 0.5005(6) 0.0018 Uiso
H2_19 H 0.5 0.777669 0.753089 . .
O7_9 O 0.3810(3) 0.7403(3) 0.5005(6) 0.0018 Uiso
C4_20 C -0.000 0.7090(8) 0.3530(15) 0.0018 Uiso
N1_16 N -0.000 0.6566(6) 0.5934(11) 0.0018 Uiso
O4_13 O 0.1190(3) 0.7403(3) 0.2495(6) 0.0018 Uiso
C5_14 C 0.1146(5) 0.7111(5) 0.3580(11) 0.0018 Uiso
C6_14 C 0.0556(5) 0.7001(5) 0.4197(9) 0.0018 Uiso
C7_10 C 0.0561(4) 0.6805(5) 0.5464(9) 0.0018 Uiso
H2_20 H -3.80695e-18 0.722331 0.253089 . .
H3_10 H 0.0976593 0.683613 0.605202 . .
O2_8 O 0.8810(3) 0.7403(3) 0.2495(6) 0.0018 Uiso
C1_14 C 0.8854(5) 0.7111(5) 0.3580(11) 0.0018 Uiso
C2_14 C 0.9444(5) 0.7001(5) 0.4197(9) 0.0018 Uiso
C3_10 C 0.9439(4) 0.6805(5) 0.5464(9) 0.0018 Uiso
C4_21 C 1.000 0.7090(8) 0.3530(15) 0.0018 Uiso
N1_17 N 1.000 0.6566(6) 0.5934(11) 0.0018 Uiso
O7_10 O 0.8810(3) 0.7597(3) 0.0005(6) 0.0018 Uiso
H1_10 H 0.902341 0.683613 0.605202 . .
H2_21 H 1 0.722331 0.253089 . .
O4_14 O 0.1190(3) 0.7597(3) 0.0005(6) 0.0018 Uiso
C4_22 C 0.000 0.7910(8) 0.8970(15) 0.0018 Uiso
N1_18 N -0.000 0.8434(6) 0.6566(11) 0.0018 Uiso
C5_15 C 0.1146(5) 0.7889(5) 0.8920(11) 0.0018 Uiso
C6_15 C 0.0556(5) 0.7999(5) 0.8303(9) 0.0018 Uiso
C7_11 C 0.0561(4) 0.8195(5) 0.7036(9) 0.0018 Uiso
H2_22 H -3.80695e-18 0.777669 0.996911 . .
H3_11 H 0.0976593 0.816387 0.644798 . .
C1_15 C 0.8854(5) 0.7889(5) 0.8920(11) 0.0018 Uiso
C2_15 C 0.9444(5) 0.7999(5) 0.8303(9) 0.0018 Uiso
C3_11 C 0.9439(4) 0.8195(5) 0.7036(9) 0.0018 Uiso
C4_23 C 1.000 0.7910(8) 0.8970(15) 0.0018 Uiso
N1_19 N 1.000 0.8434(6) 0.6566(11) 0.0018 Uiso
H1_11 H 0.902341 0.816387 0.644798 . .
H2_23 H 1 0.777669 0.996911 . .
C1_16 C 0.6146(5) 0.7111(5) 0.3920(11) 0.0018 Uiso
C2_16 C 0.5556(5) 0.7001(5) 0.3303(9) 0.0018 Uiso
C3_12 C 0.5561(4) 0.6805(5) 0.2036(9) 0.0018 Uiso
C4_24 C 0.500 0.7090(8) 0.3970(15) 0.0018 Uiso
N1_20 N 0.500 0.6566(6) 0.1566(11) 0.0018 Uiso
C5_16 C 0.3854(5) 0.7111(5) 0.3920(11) 0.0018 Uiso
C6_16 C 0.4444(5) 0.7001(5) 0.3303(9) 0.0018 Uiso
C7_12 C 0.4439(4) 0.6805(5) 0.2036(9) 0.0018 Uiso
H1_12 H 0.597659 0.683613 0.144798 . .
H2_24 H 0.5 0.722331 0.496911 . .
H3_12 H 0.402341 0.683613 0.144798 . .
C3_13 C 0.4439(4) 0.1805(5) 0.0464(9) 0.0018 Uiso
N1_21 N 0.500 0.1566(6) 0.0934(11) 0.0018 Uiso
C7_13 C 0.5561(4) 0.1805(5) 0.0464(9) 0.0018 Uiso
H1_13 H 0.402341 0.183613 0.105202 . .
H3_13 H 0.597659 0.183613 0.105202 . .
C3_14 C 0.1805(5) 0.5561(4) 0.9536(9) 0.0018 Uiso
N1_22 N 0.1566(6) 0.500 0.9066(11) 0.0018 Uiso
C7_14 C 0.1805(5) 0.4439(4) 0.9536(9) 0.0018 Uiso
H1_14 H 0.183613 0.597659 0.894798 . .
H3_14 H 0.183613 0.402341 0.894798 . .
C3_15 C 0.8195(5) 0.5561(4) 0.9536(9) 0.0018 Uiso
N1_23 N 0.8434(6) 0.500 0.9066(11) 0.0018 Uiso
C7_15 C 0.8195(5) 0.4439(4) 0.9536(9) 0.0018 Uiso
H1_15 H 0.816387 0.597659 0.894798 . .
H3_15 H 0.816387 0.402341 0.894798 . .
C3_16 C 0.5561(4) 0.8195(5) 0.0464(9) 0.0018 Uiso
N1_24 N 0.500 0.8434(6) 0.0934(11) 0.0018 Uiso
C7_16 C 0.4439(4) 0.8195(5) 0.0464(9) 0.0018 Uiso
H1_16 H 0.597659 0.816387 0.105202 . .
H3_16 H 0.402341 0.816387 0.105202 . .
loop_
_geom_bond_atom_site_label_1
_geom_bond_atom_site_label_2
_geom_bond_site_symmetry_1
_geom_bond_site_symmetry_2
Al1 O1 1_555 1_555
O1 Al3 1_555 1_555
O2 Al1 1_555 1_555
O3 C1 1_555 1_555
C1 O2 1_555 1_555
C2 C1 1_555 1_555
C3 C2 1_555 1_555
C4 C2 1_555 1_555
N1 C3 1_555 1_555
Al3 O3 1_555 1_555
O6 Al1 1_555 1_555
O7 Al1 1_555 1_555
O8 Al1 1_555 1_555
O9 Al1 1_555 1_555
C3 H1 1_555 1_555
C4 H2 1_555 1_555
O4 C5 1_555 1_555
O5 C5 1_555 1_555
C5 C6 1_555 1_555
C6 C4_2 1_555 1_555
C7 N1_2 1_555 1_555
Al2 O4 1_555 1_555
Al4 O5 1_555 1_555
C6 C7 1_555 1_555
C4_2 H2_2 1_555 1_555
C7 H3 1_555 1_555
Al2 O1_2 1_555 1_555
O1_2 Al4 1_555 1_555
O6_3 Al2 1_555 1_555
O7_2 Al2 1_555 1_555
O8_2 Al2 1_555 1_555
O9_2 Al2 1_555 1_555
Al1_2 O1_3 1_555 1_555
O1_3 Al3_2 1_555 1_555
O2_2 Al1_2 1_555 1_555
O3_2 C1_2 1_555 1_555
C1_2 O2_2 1_555 1_555
C2_2 C1_2 1_555 1_555
C4_3 C2_2 1_555 1_555
O4_2 C5_2 1_555 1_555
O5_2 C5_2 1_555 1_555
C5_2 C6_2 1_555 1_555
C6_2 C4_3 1_555 1_555
Al2_2 O4_2 1_555 1_555
Al3_2 O3_2 1_555 1_555
Al4_2 O5_2 1_555 1_555
O6_5 Al1_2 1_555 1_555
O7_3 Al1_2 1_555 1_555
O8_3 Al1_2 1_555 1_555
O9_3 Al1_2 1_555 1_555
C4_3 H2_3 1_555 1_555
O6_5 Al3 1_555 1_555
O3_3 C1_3 1_555 1_555
C1_3 O7_3 1_555 1_555
C2_3 C1_3 1_555 1_555
C3_2 C2_3 1_555 1_555
C4_4 C2_3 1_555 1_555
N1_3 C3_2 1_555 1_555
O4_3 C5_3 1_555 1_555
O5_3 C5_3 1_555 1_555
C5_3 C6_3 1_555 1_555
C6_3 C4_4 1_555 1_555
C7_2 N1_3 1_555 1_555
Al2_2 O4_3 1_555 1_555
Al3 O3_3 1_555 1_555
Al4 O5_3 1_555 1_555
C6_3 C7_2 1_555 1_555
C3_2 H1_2 1_555 1_555
C4_4 H2_4 1_555 1_555
C7_2 H3_2 1_555 1_555
O4_4 C5_4 1_555 1_555
O5_4 C5_4 1_555 1_555
C5_4 C6_4 1_555 1_555
C6_4 C4_5 1_555 1_555
C7_3 N1_4 1_555 1_555
Al4_2 O4_4 1_555 1_555
Al2_2 O5_4 1_555 1_555
C6_4 C7_3 1_555 1_555
C4_5 H2_5 1_555 1_555
C7_3 H3_3 1_555 1_555
Al1_3 O1_4 1_555 1_555
O1_4 Al3_3 1_555 1_555
O2_3 Al1_3 1_555 1_555
O3_4 C1_4 1_555 1_555
C1_4 O2_3 1_555 1_555
C2_4 C1_4 1_555 1_555
C3_3 C2_4 1_555 1_555
C4_6 C2_4 1_555 1_555
N1_5 C3_3 1_555 1_555
Al3_3 O3_4 1_555 1_555
O6_7 Al1_3 1_555 1_555
O7_4 Al1_3 1_555 1_555
O8_4 Al1_3 1_555 1_555
O9_4 Al1_3 1_555 1_555
C3_3 H1_3 1_555 1_555
C4_6 H2_6 1_555 1_555
Al1_4 O1_5 1_555 1_555
O1_5 Al3_3 1_555 1_555
O2_4 Al1_4 1_555 1_555
O3_5 C1_5 1_555 1_555
C1_5 O2_4 1_555 1_555
C2_5 C1_5 1_555 1_555
C3_4 C2_5 1_555 1_555
C4_7 C2_5 1_555 1_555
N1_6 C3_4 1_555 1_555
O4_5 C5_5 1_555 1_555
O5_5 C5_5 1_555 1_555
C5_5 C6_5 1_555 1_555
C6_5 C4_7 1_555 1_555
C7_4 N1_6 1_555 1_555
Al4 O4_5 1_555 1_555
Al3_3 O3_5 1_555 1_555
Al2_2 O5_5 1_555 1_555
O6_8 Al1_4 1_555 1_555
O7_5 Al1_4 1_555 1_555
O8_5 Al1_4 1_555 1_555
O9_5 Al1_4 1_555 1_555
C6_5 C7_4 1_555 1_555
C3_4 H1_4 1_555 1_555
C4_7 H2_7 1_555 1_555
C7_4 H3_4 1_555 1_555
O9 C5_6 1_555 1_555
C5_6 C6_6 1_555 1_555
C6_6 C4_8 1_555 1_555
C7_5 N1_7 1_555 1_555
C6_6 C7_5 1_555 1_555
C4_8 H2_8 1_555 1_555
C7_5 H3_5 1_555 1_555
Al3_2 O4_6 1_555 1_555
O1_6 Al3_4 1_555 1_555
O3_6 C1_6 1_555 1_555
C2_6 C1_6 1_555 1_555
C3_5 C2_6 1_555 1_555
C4_9 C2_6 1_555 1_555
N1_8 C3_5 1_555 1_555
Al3_4 O3_6 1_555 1_555
C3_5 H1_5 1_555 1_555
C4_9 H2_9 1_555 1_555
Al1_5 O1_7 1_555 1_555
O2_5 Al1_5 1_555 1_555
O6_9 Al1_5 1_555 1_555
O7_6 Al1_5 1_555 1_555
O8_6 Al1_5 1_555 1_555
O9_6 Al1_5 1_555 1_555
Al1_6 O1_8 1_555 1_555
O1_8 Al3_4 1_555 1_555
O2_6 Al1_6 1_555 1_555
O3_7 C1_7 1_555 1_555
C1_7 O2_6 1_555 1_555
C2_7 C1_7 1_555 1_555
C4_10 C2_7 1_555 1_555
O4_7 C5_7 1_555 1_555
O8 C5_7 1_555 1_555
C5_7 C6_7 1_555 1_555
C6_7 C4_10 1_555 1_555
Al3 O4_7 1_555 1_555
Al3_4 O3_7 1_555 1_555
O6_10 Al1_6 1_555 1_555
O7_7 Al1_6 1_555 1_555
O8_7 Al1_6 1_555 1_555
O9_7 Al1_6 1_555 1_555
C4_10 H2_10 1_555 1_555
O4_8 C5_8 1_555 1_555
O8_3 C5_8 1_555 1_555
C5_8 C6_8 1_555 1_555
C6_8 C4_11 1_555 1_555
C7_6 N1_9 1_555 1_555
Al3_2 O4_8 1_555 1_555
C6_8 C7_6 1_555 1_555
C4_11 H2_11 1_555 1_555
C7_6 H3_6 1_555 1_555
O6_9 Al3_5 1_555 1_555
O3_8 C1_8 1_555 1_555
C1_8 O7_6 1_555 1_555
C2_8 C1_8 1_555 1_555
C3_6 C2_8 1_555 1_555
C4_12 C2_8 1_555 1_555
N1_10 C3_6 1_555 1_555
Al3_5 O3_8 1_555 1_555
C3_6 H1_6 1_555 1_555
C4_12 H2_12 1_555 1_555
O6_10 Al3_5 1_555 1_555
O3_9 C1_9 1_555 1_555
C1_9 O7_7 1_555 1_555
C2_9 C1_9 1_555 1_555
C3_7 C2_9 1_555 1_555
C4_13 C2_9 1_555 1_555
N1_11 C3_7 1_555 1_555
O4_9 C5_9 1_555 1_555
O9_3 C5_9 1_555 1_555
C5_9 C6_9 1_555 1_555
C6_9 C4_13 1_555 1_555
C7_7 N1_11 1_555 1_555
Al3 O4_9 1_555 1_555
Al3_5 O3_9 1_555 1_555
C6_9 C7_7 1_555 1_555
C3_7 H1_7 1_555 1_555
C4_13 H2_13 1_555 1_555
C7_7 H3_7 1_555 1_555
O9_2 C5_10 1_555 1_555
C5_10 C6_10 1_555 1_555
C6_10 C4_14 1_555 1_555
C7_8 N1_12 1_555 1_555
C6_10 C7_8 1_555 1_555
C4_14 H2_14 1_555 1_555
C7_8 H3_8 1_555 1_555
Al4_2 O4_10 1_555 1_555
O6_6 Al3_6 1_555 1_555
O3_10 C1_10 1_555 1_555
C2_10 C1_10 1_555 1_555
C3_8 C2_10 1_555 1_555
C4_15 C2_10 1_555 1_555
N1_13 C3_8 1_555 1_555
Al3_6 O3_10 1_555 1_555
C3_8 H1_8 1_555 1_555
C4_15 H2_15 1_555 1_555
O6_8 Al3_6 1_555 1_555
O3_11 C1_11 1_555 1_555
C1_11 O7_5 1_555 1_555
C2_11 C1_11 1_555 1_555
C4_16 C2_11 1_555 1_555
O4_11 C5_11 1_555 1_555
O8_2 C5_11 1_555 1_555
C5_11 C6_11 1_555 1_555
C6_11 C4_16 1_555 1_555
Al4 O4_11 1_555 1_555
Al3_6 O3_11 1_555 1_555
C4_16 H2_16 1_555 1_555
O6_2 Al3_2 1_555 1_555
O3_12 C1_12 1_555 1_555
C2_12 C1_12 1_555 1_555
C3_9 C2_12 1_555 1_555
C4_17 C2_12 1_555 1_555
N1_14 C3_9 1_555 1_555
Al3_2 O3_12 1_555 1_555
C3_9 H1_9 1_555 1_555
C4_17 H2_17 1_555 1_555
O5_6 C5_12 1_555 1_555
C5_12 C6_12 1_555 1_555
C6_12 C4_18 1_555 1_555
C7_9 N1_15 1_555 1_555
Al4_2 O5_6 1_555 1_555
C6_12 C7_9 1_555 1_555
C4_18 H2_18 1_555 1_555
C7_9 H3_9 1_555 1_555
O6_4 Al4_2 1_555 1_555
Al2_2 O1_9 1_555 1_555
O1_9 Al4_2 1_555 1_555
O6_11 Al2_2 1_555 1_555
O6_11 Al4 1_555 1_555
O2_7 Al3_3 1_555 1_555
O8_4 C1_13 1_555 1_555
C1_13 O2_7 1_555 1_555
C2_13 C1_13 1_555 1_555
C4_19 C2_13 1_555 1_555
O4_12 C5_13 1_555 1_555
O9_6 C5_13 1_555 1_555
C5_13 C6_13 1_555 1_555
C6_13 C4_19 1_555 1_555
Al3_5 O4_12 1_555 1_555
O7_8 Al3_3 1_555 1_555
C4_19 H2_19 1_555 1_555
O7_9 Al3_5 1_555 1_555
O4_13 C5_14 1_555 1_555
O8_7 C5_14 1_555 1_555
C5_14 C6_14 1_555 1_555
C6_14 C4_20 1_555 1_555
C7_10 N1_16 1_555 1_555
Al3_4 O4_13 1_555 1_555
C6_14 C7_10 1_555 1_555
C4_20 H2_20 1_555 1_555
C7_10 H3_10 1_555 1_555
O2_8 Al3_6 1_555 1_555
O9_5 C1_14 1_555 1_555
C1_14 O2_8 1_555 1_555
C2_14 C1_14 1_555 1_555
C3_10 C2_14 1_555 1_555
C4_21 C2_14 1_555 1_555
N1_17 C3_10 1_555 1_555
O7_10 Al3_6 1_555 1_555
C3_10 H1_10 1_555 1_555
C4_21 H2_21 1_555 1_555
Al3_4 O4_14 1_555 1_555
O8_6 C5_15 1_555 1_555
C5_15 C6_15 1_555 1_555
C6_15 C4_22 1_555 1_555
C7_11 N1_18 1_555 1_555
C6_15 C7_11 1_555 1_555
C4_22 H2_22 1_555 1_555
C7_11 H3_11 1_555 1_555
O9_4 C1_15 1_555 1_555
C2_15 C1_15 1_555 1_555
C3_11 C2_15 1_555 1_555
C4_23 C2_15 1_555 1_555
N1_19 C3_11 1_555 1_555
C3_11 H1_11 1_555 1_555
C4_23 H2_23 1_555 1_555
O8_5 C1_16 1_555 1_555
C1_16 O7_8 1_555 1_555
C2_16 C1_16 1_555 1_555
C3_12 C2_16 1_555 1_555
C4_24 C2_16 1_555 1_555
N1_20 C3_12 1_555 1_555
O7_9 C5_16 1_555 1_555
O9_7 C5_16 1_555 1_555
C5_16 C6_16 1_555 1_555
C6_16 C4_24 1_555 1_555
C7_12 N1_20 1_555 1_555
C6_16 C7_12 1_555 1_555
C3_12 H1_12 1_555 1_555
C4_24 H2_24 1_555 1_555
C7_12 H3_12 1_555 1_555
N1_21 C3_13 1_555 1_555
C7_13 N1_21 1_555 1_555
C3_13 H1_13 1_555 1_555
C7_13 H3_13 1_555 1_555
N1_22 C3_14 1_555 1_555
C7_14 N1_22 1_555 1_555
C3_14 H1_14 1_555 1_555
C7_14 H3_14 1_555 1_555
N1_23 C3_15 1_555 1_555
C7_15 N1_23 1_555 1_555
C3_15 H1_15 1_555 1_555
C7_15 H3_15 1_555 1_555
N1_24 C3_16 1_555 1_555
C7_16 N1_24 1_555 1_555
C3_16 H1_16 1_555 1_555
C7_16 H3_16 1_555 1_555

#END
