
###############################################################################
#
# This file contains modified crystal structure data generated from the
# MOF subset of the Cambridge Structural Database (CSD) v543 
# hosted by the Cambridge Crystallographic Data Centre (CCDC).
#
# This work is licensed under the Creative Commons
# Attribution-NonCommercial-ShareAlike 4.0 International License.
# To view a copy of this license, visit
# http://creativecommons.org/licenses/by-nc-sa/4.0/
# or send a letter to
# Creative Commons, PO Box 1866, Mountain View, CA 94042, USA.
#
# CIF created using the CSD Python API on 29 September 2022
# The structure has been converted into the P1 space group
# The structure has a 3D framework
# The original CSD entry DITJAU is in the tetragonal crystal system
# The framework has been calculated to contain at least 10.0% void space
# The void calculation uses a probe of radius 1.32A, grid spacing 0.4
#
###############################################################################

data_DITJAU
_chemical_formula_moiety         '(C136 H116 Al12 Cl16 N20 O64 4+)n'
_symmetry_cell_setting           triclinic
_symmetry_space_group_name_H-M   'P 1'
_symmetry_Int_Tables_number      1
_space_group_name_Hall           'P 1'
loop_
_symmetry_equiv_pos_site_id
_symmetry_equiv_pos_as_xyz
1 x,y,z
_cell_length_a                   21.48(6)
_cell_length_b                   21.48(6)
_cell_length_c                   10.90(3)
_cell_angle_alpha                90
_cell_angle_beta                 90
_cell_angle_gamma                90
_cell_volume                     5029.16
loop_
_atom_site_label
_atom_site_type_symbol
_atom_site_fract_x
_atom_site_fract_y
_atom_site_fract_z
_atom_site_U_iso_or_equiv
_atom_site_thermal_displace_type
Cl1 Cl 0.3406(2) 0.0906(2) 0.625 0.0469 Uiso
Cl1_2 Cl 0.1594(2) 0.9094(2) 0.125 0.0469 Uiso
Cl1_3 Cl 0.1594(2) 0.0906(2) 0.875 0.0469 Uiso
Cl1_4 Cl 0.3406(2) 0.9094(2) 0.375 0.0469 Uiso
Cl1_5 Cl 0.8406(2) 0.5906(2) 0.125 0.0469 Uiso
Cl1_6 Cl 0.6594(2) 0.4094(2) 0.625 0.0469 Uiso
Cl1_7 Cl 0.6594(2) 0.5906(2) 0.375 0.0469 Uiso
Cl1_8 Cl 0.8406(2) 0.4094(2) 0.875 0.0469 Uiso
Cl1_9 Cl 0.6594(2) 0.9094(2) 0.375 0.0469 Uiso
Cl1_10 Cl 0.8406(2) 0.0906(2) 0.875 0.0469 Uiso
Cl1_11 Cl 0.8406(2) 0.9094(2) 0.125 0.0469 Uiso
Cl1_12 Cl 0.6594(2) 0.0906(2) 0.625 0.0469 Uiso
Cl1_13 Cl 0.1594(2) 0.4094(2) 0.875 0.0469 Uiso
Cl1_14 Cl 0.3406(2) 0.5906(2) 0.375 0.0469 Uiso
Cl1_15 Cl 0.3406(2) 0.4094(2) 0.625 0.0469 Uiso
Cl1_16 Cl 0.1594(2) 0.5906(2) 0.125 0.0469 Uiso
Al1 Al 0.3132(8) 0.000 0.000 0.0431 Uiso
O1 O 0.2574(3) 0.0074(3) 0.125 0.0318 Uiso
O2 O 0.3803(2) 0.0062(3) 0.1126(5) 0.0318 Uiso
O3 O 0.3321(3) 0.0661(2) 0.2745(6) 0.0318 Uiso
C1 C 0.4433(3) 0.0641(3) 0.3925(7) 0.0318 Uiso
C2 C 0.4467(3) 0.0425(2) 0.2786(5) 0.0318 Uiso
C3 C 0.3794(3) 0.0351(3) 0.2185(6) 0.0318 Uiso
C4 C 0.500 0.1104(4) 0.5865(10) 0.0318 Uiso
C5 C 0.500 0.0265(4) 0.2130(8) 0.0318 Uiso
N1 N 0.500 0.0801(3) 0.4527(6) 0.0318 Uiso
H1 H 0.500 0.0085(6) 0.1331(13) 0.0318 Uiso
H2 H 0.4106(5) 0.0766(5) 0.4474(12) 0.0318 Uiso
H3 H 0.4623(5) 0.0976(5) 0.6300(11) 0.0318 Uiso
H4 H 0.500 0.1549(7) 0.5784(12) 0.0318 Uiso
O4 O 0.6197(2) 0.0062(3) 0.1126(5) 0.0318 Uiso
O5 O 0.6679(3) 0.0661(2) 0.2745(6) 0.0318 Uiso
C6 C 0.5567(3) 0.0641(3) 0.3925(7) 0.0318 Uiso
C7 C 0.5533(3) 0.0425(2) 0.2786(5) 0.0318 Uiso
C8 C 0.6206(3) 0.0351(3) 0.2185(6) 0.0318 Uiso
H6 H 0.5894(5) 0.0766(5) 0.4474(12) 0.0318 Uiso
H7 H 0.5377(5) 0.0976(5) 0.6300(11) 0.0318 Uiso
Al2 Al 0.6868(8) 0.000 0.000 0.0431 Uiso
Al3 Al 0.250 0.0632(8) 0.250 0.0431 Uiso
Al4 Al 0.750 0.0632(8) 0.250 0.0431 Uiso
Al1_2 Al 0.3132(8) 0.000 1.000 0.0431 Uiso
Al2_2 Al 0.6868(8) 0.000 1.000 0.0431 Uiso
O9 O 0.3161(2) 0.0821(3) 0.9755(6) 0.0318 Uiso
Al1_3 Al 0.3132(8) 1.000 0.000 0.0431 Uiso
H5 H 0.2257(5) 0.9757(5) 0.125 0.0318 Uiso
Al2_3 Al 0.6868(8) 1.000 0.000 0.0431 Uiso
O8 O 0.3161(2) 0.9179(3) 0.0245(6) 0.0318 Uiso
Al1_4 Al 0.3132(8) 1.000 1.000 0.0431 Uiso
Al2_4 Al 0.6868(8) 1.000 1.000 0.0431 Uiso
O6 O 0.2574(3) 0.9926(3) 0.875 0.0318 Uiso
O7 O 0.3803(2) 0.9938(3) 0.8874(5) 0.0318 Uiso
Al1_5 Al 0.1868(8) 0.000 0.500 0.0431 Uiso
H5_2 H 0.2743(5) 0.0243(5) 0.625 0.0318 Uiso
O6_2 O 0.2426(3) 0.0074(3) 0.375 0.0318 Uiso
O7_2 O 0.1197(2) 0.0062(3) 0.3874(5) 0.0318 Uiso
O8_2 O 0.1839(2) 0.0821(3) 0.5245(6) 0.0318 Uiso
Al1_6 Al 0.1868(8) 1.000 0.500 0.0431 Uiso
O1_2 O 0.2426(3) 0.9926(3) 0.625 0.0318 Uiso
O2_2 O 0.1197(2) 0.9938(3) 0.6126(5) 0.0318 Uiso
O3_2 O 0.1679(3) 0.9339(2) 0.7745(6) 0.0318 Uiso
C1_2 C 0.0567(3) 0.9359(3) 0.8925(7) 0.0318 Uiso
C2_2 C 0.0533(3) 0.9575(2) 0.7786(5) 0.0318 Uiso
C3_2 C 0.1206(3) 0.9649(3) 0.7185(6) 0.0318 Uiso
C5_2 C 0.000 0.9735(4) 0.7130(8) 0.0318 Uiso
N1_2 N 0.000 0.9199(3) 0.9527(6) 0.0318 Uiso
H1_2 H 0.000 0.9915(6) 0.6331(13) 0.0318 Uiso
H2_2 H 0.0894(5) 0.9234(5) 0.9474(12) 0.0318 Uiso
Al3_2 Al 0.250 0.9368(8) 0.750 0.0431 Uiso
O9_2 O 0.1839(2) 0.9179(3) 0.4755(6) 0.0318 Uiso
Al2_5 Al 0.8132(8) 0.000 0.500 0.0431 Uiso
C5_3 C 1.000 0.9735(4) 0.7130(8) 0.0318 Uiso
N1_3 N 1.000 0.9199(3) 0.9527(6) 0.0318 Uiso
H1_3 H 1.000 0.9915(6) 0.6331(13) 0.0318 Uiso
O4_2 O 0.8803(2) 0.9938(3) 0.6126(5) 0.0318 Uiso
O5_2 O 0.8321(3) 0.9339(2) 0.7745(6) 0.0318 Uiso
C6_2 C 0.9433(3) 0.9359(3) 0.8925(7) 0.0318 Uiso
C7_2 C 0.9467(3) 0.9575(2) 0.7786(5) 0.0318 Uiso
C8_2 C 0.8794(3) 0.9649(3) 0.7185(6) 0.0318 Uiso
H6_2 H 0.9106(5) 0.9234(5) 0.9474(12) 0.0318 Uiso
Al2_6 Al 0.8132(8) 1.000 0.500 0.0431 Uiso
Al4_2 Al 0.750 0.9368(8) 0.750 0.0431 Uiso
O3_3 O 0.1679(3) 0.0661(2) 0.2255(6) 0.0318 Uiso
C1_3 C 0.0567(3) 0.0641(3) 0.1075(7) 0.0318 Uiso
C2_3 C 0.0533(3) 0.0425(2) 0.2214(5) 0.0318 Uiso
C3_3 C 0.1206(3) 0.0351(3) 0.2815(6) 0.0318 Uiso
C5_4 C 0.000 0.0265(4) 0.2870(8) 0.0318 Uiso
N1_4 N 0.000 0.0801(3) 0.0473(6) 0.0318 Uiso
H1_4 H 0.000 0.0085(6) 0.3669(13) 0.0318 Uiso
H2_3 H 0.0894(5) 0.0766(5) 0.0526(12) 0.0318 Uiso
H5_3 H 0.2743(5) 0.9757(5) 0.375 0.0318 Uiso
C5_5 C 1.000 0.0265(4) 0.2870(8) 0.0318 Uiso
N1_5 N 1.000 0.0801(3) 0.0473(6) 0.0318 Uiso
H1_5 H 1.000 0.0085(6) 0.3669(13) 0.0318 Uiso
O4_3 O 0.8803(2) 0.0062(3) 0.3874(5) 0.0318 Uiso
O5_3 O 0.8321(3) 0.0661(2) 0.2255(6) 0.0318 Uiso
C6_3 C 0.9433(3) 0.0641(3) 0.1075(7) 0.0318 Uiso
C7_3 C 0.9467(3) 0.0425(2) 0.2214(5) 0.0318 Uiso
C8_3 C 0.8794(3) 0.0351(3) 0.2815(6) 0.0318 Uiso
H6_3 H 0.9106(5) 0.0766(5) 0.0526(12) 0.0318 Uiso
O2_3 O 0.2438(3) 0.8697(2) 0.6374(5) 0.0318 Uiso
C1_4 C 0.1859(3) 0.8067(3) 0.3575(7) 0.0318 Uiso
C2_4 C 0.2075(2) 0.8033(3) 0.4714(5) 0.0318 Uiso
C3_4 C 0.2149(3) 0.8706(3) 0.5315(6) 0.0318 Uiso
C4_2 C 0.1396(4) 0.750 0.1635(10) 0.0318 Uiso
C5_6 C 0.2235(4) 0.750 0.5370(8) 0.0318 Uiso
N1_6 N 0.1699(3) 0.750 0.2973(6) 0.0318 Uiso
H1_6 H 0.2415(6) 0.750 0.6169(13) 0.0318 Uiso
H2_4 H 0.1734(5) 0.8394(5) 0.3026(12) 0.0318 Uiso
H3_2 H 0.1524(5) 0.7877(5) 0.1200(11) 0.0318 Uiso
H4_2 H 0.0951(7) 0.750 0.1716(12) 0.0318 Uiso
O4_4 O 0.2438(3) 0.6303(2) 0.6374(5) 0.0318 Uiso
O5_4 O 0.1839(2) 0.5821(3) 0.4755(6) 0.0318 Uiso
C6_4 C 0.1859(3) 0.6933(3) 0.3575(7) 0.0318 Uiso
C7_4 C 0.2075(2) 0.6967(3) 0.4714(5) 0.0318 Uiso
C8_4 C 0.2149(3) 0.6294(3) 0.5315(6) 0.0318 Uiso
H6_4 H 0.1734(5) 0.6606(5) 0.3026(12) 0.0318 Uiso
H7_2 H 0.1524(5) 0.7123(5) 0.1200(11) 0.0318 Uiso
Al2_7 Al 0.250 0.5632(8) 0.750 0.0431 Uiso
Al4_3 Al 0.1868(8) 0.500 0.500 0.0431 Uiso
O7_3 O 0.2562(3) 0.8697(2) 0.8626(5) 0.0318 Uiso
O8_3 O 0.3321(3) 0.9339(2) 0.7255(6) 0.0318 Uiso
O2_4 O 0.2438(3) 0.1303(2) 0.3626(5) 0.0318 Uiso
C1_5 C 0.1859(3) 0.1933(3) 0.6425(7) 0.0318 Uiso
C2_5 C 0.2075(2) 0.1967(3) 0.5286(5) 0.0318 Uiso
C3_5 C 0.2149(3) 0.1294(3) 0.4685(6) 0.0318 Uiso
C4_3 C 0.1396(4) 0.250 0.8365(10) 0.0318 Uiso
C5_7 C 0.2235(4) 0.250 0.4630(8) 0.0318 Uiso
N1_7 N 0.1699(3) 0.250 0.7027(6) 0.0318 Uiso
H1_7 H 0.2415(6) 0.250 0.3831(13) 0.0318 Uiso
H2_5 H 0.1734(5) 0.1606(5) 0.6974(12) 0.0318 Uiso
H3_3 H 0.1524(5) 0.2123(5) 0.8800(11) 0.0318 Uiso
H4_3 H 0.0951(7) 0.250 0.8284(12) 0.0318 Uiso
O4_5 O 0.2438(3) 0.3697(2) 0.3626(5) 0.0318 Uiso
O5_5 O 0.1839(2) 0.4179(3) 0.5245(6) 0.0318 Uiso
C6_5 C 0.1859(3) 0.3067(3) 0.6425(7) 0.0318 Uiso
C7_5 C 0.2075(2) 0.3033(3) 0.5286(5) 0.0318 Uiso
C8_5 C 0.2149(3) 0.3706(3) 0.4685(6) 0.0318 Uiso
H6_5 H 0.1734(5) 0.3394(5) 0.6974(12) 0.0318 Uiso
H7_3 H 0.1524(5) 0.2877(5) 0.8800(11) 0.0318 Uiso
Al2_8 Al 0.250 0.4368(8) 0.250 0.0431 Uiso
O7_4 O 0.2562(3) 0.1303(2) 0.1374(5) 0.0318 Uiso
H5_4 H 0.2257(5) 0.0243(5) 0.875 0.0318 Uiso
C1_6 C 0.3141(3) 0.8067(3) 0.1425(7) 0.0318 Uiso
C2_6 C 0.2925(2) 0.8033(3) 0.0286(5) 0.0318 Uiso
C4_4 C 0.3604(4) 0.750 0.3365(10) 0.0318 Uiso
N1_8 N 0.3301(3) 0.750 0.2027(6) 0.0318 Uiso
H2_6 H 0.3266(5) 0.8394(5) 0.1974(12) 0.0318 Uiso
H3_4 H 0.3476(5) 0.7877(5) 0.3800(11) 0.0318 Uiso
H4_4 H 0.4049(7) 0.750 0.3284(12) 0.0318 Uiso
O5_6 O 0.3161(2) 0.5821(3) 0.0245(6) 0.0318 Uiso
C6_6 C 0.3141(3) 0.6933(3) 0.1425(7) 0.0318 Uiso
C7_6 C 0.2925(2) 0.6967(3) 0.0286(5) 0.0318 Uiso
H6_6 H 0.3266(5) 0.6606(5) 0.1974(12) 0.0318 Uiso
H7_4 H 0.3476(5) 0.7123(5) 0.3800(11) 0.0318 Uiso
Al4_4 Al 0.3132(8) 0.500 -0.000 0.0431 Uiso
C3_6 C 0.2851(3) 0.8706(3) 0.9685(6) 0.0318 Uiso
C5_8 C 0.2765(4) 0.750 0.9630(8) 0.0318 Uiso
H1_8 H 0.2585(6) 0.750 0.8831(13) 0.0318 Uiso
O4_6 O 0.2562(3) 0.6303(2) 0.8626(5) 0.0318 Uiso
C8_6 C 0.2851(3) 0.6294(3) 0.9685(6) 0.0318 Uiso
Al4_5 Al 0.3132(8) 0.500 1.000 0.0431 Uiso
C3_7 C 0.2851(3) 0.1294(3) 0.0315(6) 0.0318 Uiso
C5_9 C 0.2765(4) 0.250 0.0370(8) 0.0318 Uiso
H1_9 H 0.2585(6) 0.250 0.1169(13) 0.0318 Uiso
O4_7 O 0.2562(3) 0.3697(2) 0.1374(5) 0.0318 Uiso
C8_7 C 0.2851(3) 0.3706(3) 0.0315(6) 0.0318 Uiso
C1_7 C 0.3141(3) 0.1933(3) 0.8575(7) 0.0318 Uiso
C2_7 C 0.2925(2) 0.1967(3) 0.9714(5) 0.0318 Uiso
C4_5 C 0.3604(4) 0.250 0.6635(10) 0.0318 Uiso
N1_9 N 0.3301(3) 0.250 0.7973(6) 0.0318 Uiso
H2_7 H 0.3266(5) 0.1606(5) 0.8026(12) 0.0318 Uiso
H3_5 H 0.3476(5) 0.2123(5) 0.6200(11) 0.0318 Uiso
H4_5 H 0.4049(7) 0.250 0.6716(12) 0.0318 Uiso
O5_7 O 0.3161(2) 0.4179(3) 0.9755(6) 0.0318 Uiso
C6_7 C 0.3141(3) 0.3067(3) 0.8575(7) 0.0318 Uiso
C7_7 C 0.2925(2) 0.3033(3) 0.9714(5) 0.0318 Uiso
H6_7 H 0.3266(5) 0.3394(5) 0.8026(12) 0.0318 Uiso
H7_5 H 0.3476(5) 0.2877(5) 0.6200(11) 0.0318 Uiso
C1_8 C 0.4433(3) 0.9359(3) 0.6075(7) 0.0318 Uiso
C2_8 C 0.4467(3) 0.9575(2) 0.7214(5) 0.0318 Uiso
C3_8 C 0.3794(3) 0.9649(3) 0.7815(6) 0.0318 Uiso
C4_6 C 0.500 0.8896(4) 0.4135(10) 0.0318 Uiso
C5_10 C 0.500 0.9735(4) 0.7870(8) 0.0318 Uiso
N1_10 N 0.500 0.9199(3) 0.5473(6) 0.0318 Uiso
H1_10 H 0.500 0.9915(6) 0.8669(13) 0.0318 Uiso
H2_8 H 0.4106(5) 0.9234(5) 0.5526(12) 0.0318 Uiso
H3_6 H 0.4623(5) 0.9024(5) 0.3700(11) 0.0318 Uiso
H4_6 H 0.500 0.8451(7) 0.4216(12) 0.0318 Uiso
O4_8 O 0.6197(2) 0.9938(3) 0.8874(5) 0.0318 Uiso
O5_8 O 0.6679(3) 0.9339(2) 0.7255(6) 0.0318 Uiso
C6_8 C 0.5567(3) 0.9359(3) 0.6075(7) 0.0318 Uiso
C7_8 C 0.5533(3) 0.9575(2) 0.7214(5) 0.0318 Uiso
C8_8 C 0.6206(3) 0.9649(3) 0.7815(6) 0.0318 Uiso
H6_8 H 0.5894(5) 0.9234(5) 0.5526(12) 0.0318 Uiso
H7_6 H 0.5377(5) 0.9024(5) 0.3700(11) 0.0318 Uiso
C5_11 C -0.000 0.5265(4) 0.7130(8) 0.0318 Uiso
N1_11 N -0.000 0.5801(3) 0.9527(6) 0.0318 Uiso
H1_11 H -0.000 0.5085(6) 0.6331(13) 0.0318 Uiso
O4_9 O 0.1197(2) 0.5062(3) 0.6126(5) 0.0318 Uiso
O5_9 O 0.1679(3) 0.5661(2) 0.7745(6) 0.0318 Uiso
C6_9 C 0.0567(3) 0.5641(3) 0.8925(7) 0.0318 Uiso
C7_9 C 0.0533(3) 0.5425(2) 0.7786(5) 0.0318 Uiso
C8_9 C 0.1206(3) 0.5351(3) 0.7185(6) 0.0318 Uiso
H6_9 H 0.0894(5) 0.5766(5) 0.9474(12) 0.0318 Uiso
Al1_7 Al 0.8132(8) 0.500 0.500 0.0431 Uiso
O1_3 O 0.7574(3) 0.5074(3) 0.625 0.0318 Uiso
O2_5 O 0.8803(2) 0.5062(3) 0.6126(5) 0.0318 Uiso
O3_4 O 0.8321(3) 0.5661(2) 0.7745(6) 0.0318 Uiso
C1_9 C 0.9433(3) 0.5641(3) 0.8925(7) 0.0318 Uiso
C2_9 C 0.9467(3) 0.5425(2) 0.7786(5) 0.0318 Uiso
C3_9 C 0.8794(3) 0.5351(3) 0.7185(6) 0.0318 Uiso
C5_12 C 1.000 0.5265(4) 0.7130(8) 0.0318 Uiso
N1_12 N 1.000 0.5801(3) 0.9527(6) 0.0318 Uiso
H1_12 H 1.000 0.5085(6) 0.6331(13) 0.0318 Uiso
H2_9 H 0.9106(5) 0.5766(5) 0.9474(12) 0.0318 Uiso
H5_5 H 0.7257(5) 0.4757(5) 0.625 0.0318 Uiso
Al3_3 Al 0.750 0.5632(8) 0.750 0.0431 Uiso
O6_3 O 0.7574(3) 0.4926(3) 0.375 0.0318 Uiso
O7_5 O 0.8803(2) 0.4938(3) 0.3874(5) 0.0318 Uiso
O8_4 O 0.8161(2) 0.4179(3) 0.5245(6) 0.0318 Uiso
O9_3 O 0.8161(2) 0.5821(3) 0.4755(6) 0.0318 Uiso
Al1_8 Al 0.6868(8) 0.500 0.000 0.0431 Uiso
O1_4 O 0.7426(3) 0.4926(3) 0.125 0.0318 Uiso
O2_6 O 0.6197(2) 0.4938(3) 0.1126(5) 0.0318 Uiso
O3_5 O 0.6679(3) 0.4339(2) 0.2745(6) 0.0318 Uiso
C1_10 C 0.5567(3) 0.4359(3) 0.3925(7) 0.0318 Uiso
C2_10 C 0.5533(3) 0.4575(2) 0.2786(5) 0.0318 Uiso
C3_10 C 0.6206(3) 0.4649(3) 0.2185(6) 0.0318 Uiso
C4_7 C 0.500 0.3896(4) 0.5865(10) 0.0318 Uiso
C5_13 C 0.500 0.4735(4) 0.2130(8) 0.0318 Uiso
N1_13 N 0.500 0.4199(3) 0.4527(6) 0.0318 Uiso
H1_13 H 0.500 0.4915(6) 0.1331(13) 0.0318 Uiso
H2_10 H 0.5894(5) 0.4234(5) 0.4474(12) 0.0318 Uiso
H3_7 H 0.5377(5) 0.4024(5) 0.6300(11) 0.0318 Uiso
H4_7 H 0.500 0.3451(7) 0.5784(12) 0.0318 Uiso
H5_6 H 0.7743(5) 0.5243(5) 0.125 0.0318 Uiso
O4_10 O 0.3803(2) 0.4938(3) 0.1126(5) 0.0318 Uiso
O5_10 O 0.3321(3) 0.4339(2) 0.2745(6) 0.0318 Uiso
C6_10 C 0.4433(3) 0.4359(3) 0.3925(7) 0.0318 Uiso
C7_10 C 0.4467(3) 0.4575(2) 0.2786(5) 0.0318 Uiso
C8_10 C 0.3794(3) 0.4649(3) 0.2185(6) 0.0318 Uiso
H6_10 H 0.4106(5) 0.4234(5) 0.4474(12) 0.0318 Uiso
H7_7 H 0.4623(5) 0.4024(5) 0.6300(11) 0.0318 Uiso
Al3_4 Al 0.750 0.4368(8) 0.250 0.0431 Uiso
O8_5 O 0.6839(2) 0.5821(3) 0.0245(6) 0.0318 Uiso
Al1_9 Al 0.6868(8) 0.500 1.000 0.0431 Uiso
O6_4 O 0.7426(3) 0.5074(3) 0.875 0.0318 Uiso
O7_6 O 0.6197(2) 0.5062(3) 0.8874(5) 0.0318 Uiso
O9_4 O 0.6839(2) 0.4179(3) 0.9755(6) 0.0318 Uiso
O3_6 O 0.6679(3) 0.5661(2) 0.7255(6) 0.0318 Uiso
C1_11 C 0.5567(3) 0.5641(3) 0.6075(7) 0.0318 Uiso
C2_11 C 0.5533(3) 0.5425(2) 0.7214(5) 0.0318 Uiso
C3_11 C 0.6206(3) 0.5351(3) 0.7815(6) 0.0318 Uiso
C4_8 C 0.500 0.6104(4) 0.4135(10) 0.0318 Uiso
C5_14 C 0.500 0.5265(4) 0.7870(8) 0.0318 Uiso
N1_14 N 0.500 0.5801(3) 0.5473(6) 0.0318 Uiso
H1_14 H 0.500 0.5085(6) 0.8669(13) 0.0318 Uiso
H2_11 H 0.5894(5) 0.5766(5) 0.5526(12) 0.0318 Uiso
H3_8 H 0.5377(5) 0.5976(5) 0.3700(11) 0.0318 Uiso
H4_8 H 0.500 0.6549(7) 0.4216(12) 0.0318 Uiso
H5_7 H 0.7743(5) 0.4757(5) 0.875 0.0318 Uiso
O4_11 O 0.3803(2) 0.5062(3) 0.8874(5) 0.0318 Uiso
O5_11 O 0.3321(3) 0.5661(2) 0.7255(6) 0.0318 Uiso
C6_11 C 0.4433(3) 0.5641(3) 0.6075(7) 0.0318 Uiso
C7_11 C 0.4467(3) 0.5425(2) 0.7214(5) 0.0318 Uiso
C8_11 C 0.3794(3) 0.5351(3) 0.7815(6) 0.0318 Uiso
H6_11 H 0.4106(5) 0.5766(5) 0.5526(12) 0.0318 Uiso
H7_8 H 0.4623(5) 0.5976(5) 0.3700(11) 0.0318 Uiso
O2_7 O 0.7438(3) 0.3697(2) 0.1374(5) 0.0318 Uiso
C3_12 C 0.7149(3) 0.3706(3) 0.0315(6) 0.0318 Uiso
C5_15 C 0.7235(4) 0.250 0.0370(8) 0.0318 Uiso
H1_15 H 0.7415(6) 0.250 0.1169(13) 0.0318 Uiso
O4_12 O 0.7438(3) 0.1303(2) 0.1374(5) 0.0318 Uiso
C8_12 C 0.7149(3) 0.1294(3) 0.0315(6) 0.0318 Uiso
O7_7 O 0.7562(3) 0.3697(2) 0.3626(5) 0.0318 Uiso
O8_6 O 0.8321(3) 0.4339(2) 0.2255(6) 0.0318 Uiso
C1_12 C 0.6859(3) 0.3067(3) 0.8575(7) 0.0318 Uiso
C2_12 C 0.7075(2) 0.3033(3) 0.9714(5) 0.0318 Uiso
C4_9 C 0.6396(4) 0.250 0.6635(10) 0.0318 Uiso
N1_15 N 0.6699(3) 0.250 0.7973(6) 0.0318 Uiso
H2_12 H 0.6734(5) 0.3394(5) 0.8026(12) 0.0318 Uiso
H3_9 H 0.6524(5) 0.2877(5) 0.6200(11) 0.0318 Uiso
H4_9 H 0.5951(7) 0.250 0.6716(12) 0.0318 Uiso
O5_12 O 0.6839(2) 0.0821(3) 0.9755(6) 0.0318 Uiso
C6_12 C 0.6859(3) 0.1933(3) 0.8575(7) 0.0318 Uiso
C7_12 C 0.7075(2) 0.1967(3) 0.9714(5) 0.0318 Uiso
H6_12 H 0.6734(5) 0.1606(5) 0.8026(12) 0.0318 Uiso
H7_9 H 0.6524(5) 0.2123(5) 0.6200(11) 0.0318 Uiso
C1_13 C 0.6859(3) 0.6933(3) 0.1425(7) 0.0318 Uiso
C2_13 C 0.7075(2) 0.6967(3) 0.0286(5) 0.0318 Uiso
C4_10 C 0.6396(4) 0.750 0.3365(10) 0.0318 Uiso
N1_16 N 0.6699(3) 0.750 0.2027(6) 0.0318 Uiso
H2_13 H 0.6734(5) 0.6606(5) 0.1974(12) 0.0318 Uiso
H3_10 H 0.6524(5) 0.7123(5) 0.3800(11) 0.0318 Uiso
H4_10 H 0.5951(7) 0.750 0.3284(12) 0.0318 Uiso
O5_13 O 0.6839(2) 0.9179(3) 0.0245(6) 0.0318 Uiso
C6_13 C 0.6859(3) 0.8067(3) 0.1425(7) 0.0318 Uiso
C7_13 C 0.7075(2) 0.8033(3) 0.0286(5) 0.0318 Uiso
H6_13 H 0.6734(5) 0.8394(5) 0.1974(12) 0.0318 Uiso
H7_10 H 0.6524(5) 0.7877(5) 0.3800(11) 0.0318 Uiso
O2_8 O 0.7438(3) 0.6303(2) 0.8626(5) 0.0318 Uiso
C3_13 C 0.7149(3) 0.6294(3) 0.9685(6) 0.0318 Uiso
C5_16 C 0.7235(4) 0.750 0.9630(8) 0.0318 Uiso
H1_16 H 0.7415(6) 0.750 0.8831(13) 0.0318 Uiso
O4_13 O 0.7438(3) 0.8697(2) 0.8626(5) 0.0318 Uiso
C8_13 C 0.7149(3) 0.8706(3) 0.9685(6) 0.0318 Uiso
O7_8 O 0.7562(3) 0.6303(2) 0.6374(5) 0.0318 Uiso
C1_14 C 0.8141(3) 0.3067(3) 0.6425(7) 0.0318 Uiso
C2_14 C 0.7925(2) 0.3033(3) 0.5286(5) 0.0318 Uiso
C3_14 C 0.7851(3) 0.3706(3) 0.4685(6) 0.0318 Uiso
C4_11 C 0.8604(4) 0.250 0.8365(10) 0.0318 Uiso
C5_17 C 0.7765(4) 0.250 0.4630(8) 0.0318 Uiso
N1_17 N 0.8301(3) 0.250 0.7027(6) 0.0318 Uiso
H1_17 H 0.7585(6) 0.250 0.3831(13) 0.0318 Uiso
H2_14 H 0.8266(5) 0.3394(5) 0.6974(12) 0.0318 Uiso
H3_11 H 0.8476(5) 0.2877(5) 0.8800(11) 0.0318 Uiso
H4_11 H 0.9049(7) 0.250 0.8284(12) 0.0318 Uiso
H5_8 H 0.7257(5) 0.5243(5) 0.375 0.0318 Uiso
O4_14 O 0.7562(3) 0.1303(2) 0.3626(5) 0.0318 Uiso
O5_14 O 0.8161(2) 0.0821(3) 0.5245(6) 0.0318 Uiso
C6_14 C 0.8141(3) 0.1933(3) 0.6425(7) 0.0318 Uiso
C7_14 C 0.7925(2) 0.1967(3) 0.5286(5) 0.0318 Uiso
C8_14 C 0.7851(3) 0.1294(3) 0.4685(6) 0.0318 Uiso
H6_14 H 0.8266(5) 0.1606(5) 0.6974(12) 0.0318 Uiso
H7_11 H 0.8476(5) 0.2123(5) 0.8800(11) 0.0318 Uiso
C1_15 C 0.8141(3) 0.6933(3) 0.3575(7) 0.0318 Uiso
C2_15 C 0.7925(2) 0.6967(3) 0.4714(5) 0.0318 Uiso
C3_15 C 0.7851(3) 0.6294(3) 0.5315(6) 0.0318 Uiso
C4_12 C 0.8604(4) 0.750 0.1635(10) 0.0318 Uiso
C5_18 C 0.7765(4) 0.750 0.5370(8) 0.0318 Uiso
N1_18 N 0.8301(3) 0.750 0.2973(6) 0.0318 Uiso
H1_18 H 0.7585(6) 0.750 0.6169(13) 0.0318 Uiso
H2_15 H 0.8266(5) 0.6606(5) 0.3026(12) 0.0318 Uiso
H3_12 H 0.8476(5) 0.7123(5) 0.1200(11) 0.0318 Uiso
H4_12 H 0.9049(7) 0.750 0.1716(12) 0.0318 Uiso
O4_15 O 0.7562(3) 0.8697(2) 0.6374(5) 0.0318 Uiso
O5_15 O 0.8161(2) 0.9179(3) 0.4755(6) 0.0318 Uiso
C6_15 C 0.8141(3) 0.8067(3) 0.3575(7) 0.0318 Uiso
C7_15 C 0.7925(2) 0.8033(3) 0.4714(5) 0.0318 Uiso
C8_15 C 0.7851(3) 0.8706(3) 0.5315(6) 0.0318 Uiso
H6_15 H 0.8266(5) 0.8394(5) 0.3026(12) 0.0318 Uiso
H7_12 H 0.8476(5) 0.7877(5) 0.1200(11) 0.0318 Uiso
C5_19 C -0.000 0.4735(4) 0.2870(8) 0.0318 Uiso
N1_19 N -0.000 0.4199(3) 0.0473(6) 0.0318 Uiso
H1_19 H -0.000 0.4915(6) 0.3669(13) 0.0318 Uiso
O4_16 O 0.1197(2) 0.4938(3) 0.3874(5) 0.0318 Uiso
O5_16 O 0.1679(3) 0.4339(2) 0.2255(6) 0.0318 Uiso
C6_16 C 0.0567(3) 0.4359(3) 0.1075(7) 0.0318 Uiso
C7_16 C 0.0533(3) 0.4575(2) 0.2214(5) 0.0318 Uiso
C8_16 C 0.1206(3) 0.4649(3) 0.2815(6) 0.0318 Uiso
H6_16 H 0.0894(5) 0.4234(5) 0.0526(12) 0.0318 Uiso
C1_16 C 0.9433(3) 0.4359(3) 0.1075(7) 0.0318 Uiso
C2_16 C 0.9467(3) 0.4575(2) 0.2214(5) 0.0318 Uiso
C3_16 C 0.8794(3) 0.4649(3) 0.2815(6) 0.0318 Uiso
C5_20 C 1.000 0.4735(4) 0.2870(8) 0.0318 Uiso
N1_20 N 1.000 0.4199(3) 0.0473(6) 0.0318 Uiso
H1_20 H 1.000 0.4915(6) 0.3669(13) 0.0318 Uiso
H2_16 H 0.9106(5) 0.4234(5) 0.0526(12) 0.0318 Uiso
O6_5 O 0.7426(3) 0.0074(3) 0.125 0.0318 Uiso
H5_9 H 0.7743(5) 0.0243(5) 0.875 0.0318 Uiso
O1_5 O 0.7426(3) 0.9926(3) 0.875 0.0318 Uiso
O1_6 O 0.7574(3) 0.0074(3) 0.375 0.0318 Uiso
H5_10 H 0.7257(5) 0.9757(5) 0.375 0.0318 Uiso
O6_6 O 0.7574(3) 0.9926(3) 0.625 0.0318 Uiso
H5_11 H 0.7257(5) 0.0243(5) 0.625 0.0318 Uiso
H5_12 H 0.7743(5) 0.9757(5) 0.125 0.0318 Uiso
O1_7 O 0.2426(3) 0.4926(3) 0.375 0.0318 Uiso
H5_13 H 0.2743(5) 0.5243(5) 0.375 0.0318 Uiso
O6_7 O 0.2426(3) 0.5074(3) 0.625 0.0318 Uiso
O6_8 O 0.2574(3) 0.4926(3) 0.125 0.0318 Uiso
O1_8 O 0.2574(3) 0.5074(3) 0.875 0.0318 Uiso
H5_14 H 0.2257(5) 0.4757(5) 0.875 0.0318 Uiso
H5_15 H 0.2257(5) 0.5243(5) 0.125 0.0318 Uiso
H5_16 H 0.2743(5) 0.4757(5) 0.625 0.0318 Uiso
C4_13 C 0.000 0.8896(4) 0.0865(10) 0.0318 Uiso
H3_13 H 0.0377(5) 0.9024(5) 0.1300(11) 0.0318 Uiso
H4_13 H 0.000 0.8451(7) 0.0784(12) 0.0318 Uiso
C4_14 C 1.000 0.8896(4) 0.0865(10) 0.0318 Uiso
H4_14 H 1.000 0.8451(7) 0.0784(12) 0.0318 Uiso
H7_13 H 0.9623(5) 0.9024(5) 0.1300(11) 0.0318 Uiso
C4_15 C 0.000 0.1104(4) 0.9135(10) 0.0318 Uiso
H3_14 H 0.0377(5) 0.0976(5) 0.8700(11) 0.0318 Uiso
H4_15 H 0.000 0.1549(7) 0.9216(12) 0.0318 Uiso
C4_16 C 1.000 0.1104(4) 0.9135(10) 0.0318 Uiso
H4_16 H 1.000 0.1549(7) 0.9216(12) 0.0318 Uiso
H7_14 H 0.9623(5) 0.0976(5) 0.8700(11) 0.0318 Uiso
C4_17 C -0.000 0.6104(4) 0.0865(10) 0.0318 Uiso
H4_17 H -0.000 0.6549(7) 0.0784(12) 0.0318 Uiso
H7_15 H 0.0377(5) 0.5976(5) 0.1300(11) 0.0318 Uiso
C4_18 C 1.000 0.6104(4) 0.0865(10) 0.0318 Uiso
H3_15 H 0.9623(5) 0.5976(5) 0.1300(11) 0.0318 Uiso
H4_18 H 1.000 0.6549(7) 0.0784(12) 0.0318 Uiso
C4_19 C -0.000 0.3896(4) 0.9135(10) 0.0318 Uiso
H4_19 H -0.000 0.3451(7) 0.9216(12) 0.0318 Uiso
H7_16 H 0.0377(5) 0.4024(5) 0.8700(11) 0.0318 Uiso
C4_20 C 1.000 0.3896(4) 0.9135(10) 0.0318 Uiso
H3_16 H 0.9623(5) 0.4024(5) 0.8700(11) 0.0318 Uiso
H4_20 H 1.000 0.3451(7) 0.9216(12) 0.0318 Uiso
loop_
_geom_bond_atom_site_label_1
_geom_bond_atom_site_label_2
_geom_bond_site_symmetry_1
_geom_bond_site_symmetry_2
Al1 O1 1_555 1_555
O2 Al1 1_555 1_555
O3 C3 1_555 1_555
C1 C2 1_555 1_555
C2 C3 1_555 1_555
C3 O2 1_555 1_555
C4 N1 1_555 1_555
C5 C2 1_555 1_555
N1 C1 1_555 1_555
H1 C5 1_555 1_555
H2 C1 1_555 1_555
H3 C4 1_555 1_555
H4 C4 1_555 1_555
O4 C8 1_555 1_555
O5 C8 1_555 1_555
C6 N1 1_555 1_555
C7 C5 1_555 1_555
C8 C7 1_555 1_555
H6 C6 1_555 1_555
H7 C4 1_555 1_555
Al2 O4 1_555 1_555
Al3 O1 1_555 1_555
Al4 O5 1_555 1_555
O3 Al3 1_555 1_555
C6 C7 1_555 1_555
O9 Al1_2 1_555 1_555
O8 Al1_3 1_555 1_555
O6 Al1_4 1_555 1_555
O7 Al1_4 1_555 1_555
O6_2 Al1_5 1_555 1_555
O7_2 Al1_5 1_555 1_555
O8_2 Al1_5 1_555 1_555
Al1_6 O1_2 1_555 1_555
O2_2 Al1_6 1_555 1_555
O3_2 C3_2 1_555 1_555
C1_2 C2_2 1_555 1_555
C2_2 C3_2 1_555 1_555
C3_2 O2_2 1_555 1_555
C5_2 C2_2 1_555 1_555
N1_2 C1_2 1_555 1_555
H1_2 C5_2 1_555 1_555
H2_2 C1_2 1_555 1_555
Al3_2 O1_2 1_555 1_555
O9_2 Al1_6 1_555 1_555
O3_2 Al3_2 1_555 1_555
H1_3 C5_3 1_555 1_555
O4_2 C8_2 1_555 1_555
O5_2 C8_2 1_555 1_555
C6_2 N1_3 1_555 1_555
C7_2 C5_3 1_555 1_555
C8_2 C7_2 1_555 1_555
H6_2 C6_2 1_555 1_555
Al2_6 O4_2 1_555 1_555
Al4_2 O5_2 1_555 1_555
C6_2 C7_2 1_555 1_555
O3_3 C3_3 1_555 1_555
C1_3 C2_3 1_555 1_555
C2_3 C3_3 1_555 1_555
C3_3 O7_2 1_555 1_555
C5_4 C2_3 1_555 1_555
N1_4 C1_3 1_555 1_555
H1_4 C5_4 1_555 1_555
H2_3 C1_3 1_555 1_555
Al3 O6_2 1_555 1_555
O3_3 Al3 1_555 1_555
H1_5 C5_5 1_555 1_555
O4_3 C8_3 1_555 1_555
O5_3 C8_3 1_555 1_555
C6_3 N1_5 1_555 1_555
C7_3 C5_5 1_555 1_555
C8_3 C7_3 1_555 1_555
H6_3 C6_3 1_555 1_555
Al2_5 O4_3 1_555 1_555
Al4 O5_3 1_555 1_555
C6_3 C7_3 1_555 1_555
O2_3 Al3_2 1_555 1_555
O9_2 C3_4 1_555 1_555
C1_4 C2_4 1_555 1_555
C2_4 C3_4 1_555 1_555
C3_4 O2_3 1_555 1_555
C4_2 N1_6 1_555 1_555
C5_6 C2_4 1_555 1_555
N1_6 C1_4 1_555 1_555
H1_6 C5_6 1_555 1_555
H2_4 C1_4 1_555 1_555
H3_2 C4_2 1_555 1_555
H4_2 C4_2 1_555 1_555
O4_4 C8_4 1_555 1_555
O5_4 C8_4 1_555 1_555
C6_4 N1_6 1_555 1_555
C7_4 C5_6 1_555 1_555
C8_4 C7_4 1_555 1_555
H6_4 C6_4 1_555 1_555
H7_2 C4_2 1_555 1_555
Al2_7 O4_4 1_555 1_555
Al4_3 O5_4 1_555 1_555
O6 Al3_2 1_555 1_555
O7_3 Al3_2 1_555 1_555
O8_3 Al3_2 1_555 1_555
C6_4 C7_4 1_555 1_555
O2_4 Al3 1_555 1_555
O8_2 C3_5 1_555 1_555
C1_5 C2_5 1_555 1_555
C2_5 C3_5 1_555 1_555
C3_5 O2_4 1_555 1_555
C4_3 N1_7 1_555 1_555
C5_7 C2_5 1_555 1_555
N1_7 C1_5 1_555 1_555
H1_7 C5_7 1_555 1_555
H2_5 C1_5 1_555 1_555
H3_3 C4_3 1_555 1_555
H4_3 C4_3 1_555 1_555
O4_5 C8_5 1_555 1_555
O5_5 C8_5 1_555 1_555
C6_5 N1_7 1_555 1_555
C7_5 C5_7 1_555 1_555
C8_5 C7_5 1_555 1_555
H6_5 C6_5 1_555 1_555
H7_3 C4_3 1_555 1_555
Al2_8 O4_5 1_555 1_555
Al4_3 O5_5 1_555 1_555
O7_4 Al3 1_555 1_555
C6_5 C7_5 1_555 1_555
C1_6 C2_6 1_555 1_555
C4_4 N1_8 1_555 1_555
N1_8 C1_6 1_555 1_555
H2_6 C1_6 1_555 1_555
H3_4 C4_4 1_555 1_555
H4_4 C4_4 1_555 1_555
C6_6 N1_8 1_555 1_555
H6_6 C6_6 1_555 1_555
H7_4 C4_4 1_555 1_555
Al4_4 O5_6 1_555 1_555
C6_6 C7_6 1_555 1_555
C3_6 O7_3 1_555 1_555
H1_8 C5_8 1_555 1_555
O4_6 C8_6 1_555 1_555
Al2_7 O4_6 1_555 1_555
C3_7 O7_4 1_555 1_555
H1_9 C5_9 1_555 1_555
O4_7 C8_7 1_555 1_555
Al2_8 O4_7 1_555 1_555
C1_7 C2_7 1_555 1_555
C4_5 N1_9 1_555 1_555
N1_9 C1_7 1_555 1_555
H2_7 C1_7 1_555 1_555
H3_5 C4_5 1_555 1_555
H4_5 C4_5 1_555 1_555
C6_7 N1_9 1_555 1_555
H6_7 C6_7 1_555 1_555
H7_5 C4_5 1_555 1_555
Al4_5 O5_7 1_555 1_555
C6_7 C7_7 1_555 1_555
O8_3 C3_8 1_555 1_555
C1_8 C2_8 1_555 1_555
C2_8 C3_8 1_555 1_555
C3_8 O7 1_555 1_555
C4_6 N1_10 1_555 1_555
C5_10 C2_8 1_555 1_555
N1_10 C1_8 1_555 1_555
H1_10 C5_10 1_555 1_555
H2_8 C1_8 1_555 1_555
H3_6 C4_6 1_555 1_555
H4_6 C4_6 1_555 1_555
O4_8 C8_8 1_555 1_555
O5_8 C8_8 1_555 1_555
C6_8 N1_10 1_555 1_555
C7_8 C5_10 1_555 1_555
C8_8 C7_8 1_555 1_555
H6_8 C6_8 1_555 1_555
H7_6 C4_6 1_555 1_555
Al2_4 O4_8 1_555 1_555
Al4_2 O5_8 1_555 1_555
C6_8 C7_8 1_555 1_555
H1_11 C5_11 1_555 1_555
O4_9 C8_9 1_555 1_555
O5_9 C8_9 1_555 1_555
C6_9 N1_11 1_555 1_555
C7_9 C5_11 1_555 1_555
C8_9 C7_9 1_555 1_555
H6_9 C6_9 1_555 1_555
Al4_3 O4_9 1_555 1_555
Al2_7 O5_9 1_555 1_555
C6_9 C7_9 1_555 1_555
Al1_7 O1_3 1_555 1_555
O1_3 H5_5 1_555 1_555
O2_5 Al1_7 1_555 1_555
O3_4 C3_9 1_555 1_555
C1_9 C2_9 1_555 1_555
C2_9 C3_9 1_555 1_555
C3_9 O2_5 1_555 1_555
C5_12 C2_9 1_555 1_555
N1_12 C1_9 1_555 1_555
H1_12 C5_12 1_555 1_555
H2_9 C1_9 1_555 1_555
Al3_3 O1_3 1_555 1_555
O6_3 Al1_7 1_555 1_555
O7_5 Al1_7 1_555 1_555
O8_4 Al1_7 1_555 1_555
O9_3 Al1_7 1_555 1_555
O3_4 Al3_3 1_555 1_555
Al1_8 O1_4 1_555 1_555
O1_4 H5_6 1_555 1_555
O2_6 Al1_8 1_555 1_555
O3_5 C3_10 1_555 1_555
C1_10 C2_10 1_555 1_555
C2_10 C3_10 1_555 1_555
C3_10 O2_6 1_555 1_555
C4_7 N1_13 1_555 1_555
C5_13 C2_10 1_555 1_555
N1_13 C1_10 1_555 1_555
H1_13 C5_13 1_555 1_555
H2_10 C1_10 1_555 1_555
H3_7 C4_7 1_555 1_555
H4_7 C4_7 1_555 1_555
O4_10 C8_10 1_555 1_555
O5_10 C8_10 1_555 1_555
C6_10 N1_13 1_555 1_555
C7_10 C5_13 1_555 1_555
C8_10 C7_10 1_555 1_555
H6_10 C6_10 1_555 1_555
H7_7 C4_7 1_555 1_555
Al4_4 O4_10 1_555 1_555
Al3_4 O1_4 1_555 1_555
Al2_8 O5_10 1_555 1_555
O8_5 Al1_8 1_555 1_555
O3_5 Al3_4 1_555 1_555
C6_10 C7_10 1_555 1_555
O6_4 Al1_9 1_555 1_555
O7_6 Al1_9 1_555 1_555
O9_4 Al1_9 1_555 1_555
O6_4 H5_7 1_555 1_555
O3_6 C3_11 1_555 1_555
C1_11 C2_11 1_555 1_555
C2_11 C3_11 1_555 1_555
C3_11 O7_6 1_555 1_555
C4_8 N1_14 1_555 1_555
C5_14 C2_11 1_555 1_555
N1_14 C1_11 1_555 1_555
H1_14 C5_14 1_555 1_555
H2_11 C1_11 1_555 1_555
H3_8 C4_8 1_555 1_555
H4_8 C4_8 1_555 1_555
O4_11 C8_11 1_555 1_555
O5_11 C8_11 1_555 1_555
C6_11 N1_14 1_555 1_555
C7_11 C5_14 1_555 1_555
C8_11 C7_11 1_555 1_555
H6_11 C6_11 1_555 1_555
H7_8 C4_8 1_555 1_555
Al4_5 O4_11 1_555 1_555
Al3_3 O6_4 1_555 1_555
Al2_7 O5_11 1_555 1_555
O3_6 Al3_3 1_555 1_555
C6_11 C7_11 1_555 1_555
O2_7 Al3_4 1_555 1_555
C3_12 O2_7 1_555 1_555
H1_15 C5_15 1_555 1_555
O4_12 C8_12 1_555 1_555
Al4 O4_12 1_555 1_555
O6_3 Al3_4 1_555 1_555
O7_7 Al3_4 1_555 1_555
O8_6 Al3_4 1_555 1_555
C1_12 C2_12 1_555 1_555
C4_9 N1_15 1_555 1_555
N1_15 C1_12 1_555 1_555
H2_12 C1_12 1_555 1_555
H3_9 C4_9 1_555 1_555
H4_9 C4_9 1_555 1_555
C6_12 N1_15 1_555 1_555
H6_12 C6_12 1_555 1_555
H7_9 C4_9 1_555 1_555
Al2_2 O5_12 1_555 1_555
C6_12 C7_12 1_555 1_555
C1_13 C2_13 1_555 1_555
C4_10 N1_16 1_555 1_555
N1_16 C1_13 1_555 1_555
H2_13 C1_13 1_555 1_555
H3_10 C4_10 1_555 1_555
H4_10 C4_10 1_555 1_555
C6_13 N1_16 1_555 1_555
H6_13 C6_13 1_555 1_555
H7_10 C4_10 1_555 1_555
Al2_3 O5_13 1_555 1_555
C6_13 C7_13 1_555 1_555
O2_8 Al3_3 1_555 1_555
C3_13 O2_8 1_555 1_555
H1_16 C5_16 1_555 1_555
O4_13 C8_13 1_555 1_555
Al4_2 O4_13 1_555 1_555
O7_8 Al3_3 1_555 1_555
O6_3 H5_8 1_555 1_555
O8_4 C3_14 1_555 1_555
C1_14 C2_14 1_555 1_555
C2_14 C3_14 1_555 1_555
C3_14 O7_7 1_555 1_555
C4_11 N1_17 1_555 1_555
C5_17 C2_14 1_555 1_555
N1_17 C1_14 1_555 1_555
H1_17 C5_17 1_555 1_555
H2_14 C1_14 1_555 1_555
H3_11 C4_11 1_555 1_555
H4_11 C4_11 1_555 1_555
O4_14 C8_14 1_555 1_555
O5_14 C8_14 1_555 1_555
C6_14 N1_17 1_555 1_555
C7_14 C5_17 1_555 1_555
C8_14 C7_14 1_555 1_555
H6_14 C6_14 1_555 1_555
H7_11 C4_11 1_555 1_555
Al4 O4_14 1_555 1_555
Al2_5 O5_14 1_555 1_555
C6_14 C7_14 1_555 1_555
O9_3 C3_15 1_555 1_555
C1_15 C2_15 1_555 1_555
C2_15 C3_15 1_555 1_555
C3_15 O7_8 1_555 1_555
C4_12 N1_18 1_555 1_555
C5_18 C2_15 1_555 1_555
N1_18 C1_15 1_555 1_555
H1_18 C5_18 1_555 1_555
H2_15 C1_15 1_555 1_555
H3_12 C4_12 1_555 1_555
H4_12 C4_12 1_555 1_555
O4_15 C8_15 1_555 1_555
O5_15 C8_15 1_555 1_555
C6_15 N1_18 1_555 1_555
C7_15 C5_18 1_555 1_555
C8_15 C7_15 1_555 1_555
H6_15 C6_15 1_555 1_555
H7_12 C4_12 1_555 1_555
Al4_2 O4_15 1_555 1_555
Al2_6 O5_15 1_555 1_555
C6_15 C7_15 1_555 1_555
H1_19 C5_19 1_555 1_555
O4_16 C8_16 1_555 1_555
O5_16 C8_16 1_555 1_555
C6_16 N1_19 1_555 1_555
C7_16 C5_19 1_555 1_555
C8_16 C7_16 1_555 1_555
H6_16 C6_16 1_555 1_555
Al4_3 O4_16 1_555 1_555
Al2_8 O5_16 1_555 1_555
C6_16 C7_16 1_555 1_555
O8_6 C3_16 1_555 1_555
C1_16 C2_16 1_555 1_555
C2_16 C3_16 1_555 1_555
C3_16 O7_5 1_555 1_555
C5_20 C2_16 1_555 1_555
N1_20 C1_16 1_555 1_555
H1_20 C5_20 1_555 1_555
H2_16 C1_16 1_555 1_555
O6_5 Al2 1_555 1_555
Al2_4 O1_5 1_555 1_555
Al4_2 O1_5 1_555 1_555
Al2_5 O1_6 1_555 1_555
Al4 O1_6 1_555 1_555
O6_6 Al2_6 1_555 1_555
Al4_2 O6_6 1_555 1_555
O6_5 Al4 1_555 1_555
Al4_3 O1_7 1_555 1_555
O1_7 H5_13 1_555 1_555
Al2_8 O1_7 1_555 1_555
O6_7 Al4_3 1_555 1_555
O6_8 Al4_4 1_555 1_555
Al4_5 O1_8 1_555 1_555
O1_8 H5_14 1_555 1_555
Al2_7 O1_8 1_555 1_555
O6_8 H5_15 1_555 1_555
Al2_8 O6_8 1_555 1_555
O6_7 Al2_7 1_555 1_555
O6_7 H5_16 1_555 1_555
H3_13 C4_13 1_555 1_555
H4_13 C4_13 1_555 1_555
H4_14 C4_14 1_555 1_555
H7_13 C4_14 1_555 1_555
H3_14 C4_15 1_555 1_555
H4_15 C4_15 1_555 1_555
H4_16 C4_16 1_555 1_555
H7_14 C4_16 1_555 1_555
H4_17 C4_17 1_555 1_555
H7_15 C4_17 1_555 1_555
H3_15 C4_18 1_555 1_555
H4_18 C4_18 1_555 1_555
H4_19 C4_19 1_555 1_555
H7_16 C4_19 1_555 1_555
H3_16 C4_20 1_555 1_555
H4_20 C4_20 1_555 1_555

#END
