
###############################################################################
#
# This file contains modified crystal structure data generated from the
# MOF subset of the Cambridge Structural Database (CSD) v543 
# hosted by the Cambridge Crystallographic Data Centre (CCDC).
#
# This work is licensed under the Creative Commons
# Attribution-NonCommercial-ShareAlike 4.0 International License.
# To view a copy of this license, visit
# http://creativecommons.org/licenses/by-nc-sa/4.0/
# or send a letter to
# Creative Commons, PO Box 1866, Mountain View, CA 94042, USA.
#
# CIF created using the CSD Python API on 29 September 2022
# The structure has been converted into the P1 space group
# The structure has a 3D framework
# The original CSD entry DITJOH is in the tetragonal crystal system
# The framework has been calculated to contain at least 10.0% void space
# The void calculation uses a probe of radius 1.32A, grid spacing 0.4
# H atom positions have been added when not included in the experimental data
# Generated hydrogen atom positions removed from atoms on special positions
#
###############################################################################

data_DITJOH
_chemical_formula_moiety         '(C224 H252 O58 Zr22)n'
_symmetry_cell_setting           triclinic
_symmetry_space_group_name_H-M   'P 1'
_symmetry_Int_Tables_number      1
_space_group_name_Hall           'P 1'
loop_
_symmetry_equiv_pos_site_id
_symmetry_equiv_pos_as_xyz
1 x,y,z
_cell_length_a                   19.936(4)
_cell_length_b                   19.936(4)
_cell_length_c                   42.251(8)
_cell_angle_alpha                90
_cell_angle_beta                 90
_cell_angle_gamma                90
_cell_volume                     16792.4
loop_
_atom_site_label
_atom_site_type_symbol
_atom_site_fract_x
_atom_site_fract_y
_atom_site_fract_z
Zr4 Zr -0.0000 -0.0000 0.05781(2)
Zr2 Zr 0.00084(8) 0.12513(6) 0.0000
O1 O 0.0008(3) 0.0924(3) 0.08443(8)
O3 O 0.0031(4) 0.1762(3) 0.04792(9)
O4 O 0.0909(6) 0.1934(5) 0.0000
C2 C 0.0037(4) 0.2026(3) 0.10251(9)
C5 C 0.0106(4) 0.2922(3) 0.15281(9)
C6 C 0.0223(4) 0.3144(2) 0.12212(12)
H3 H 0.0326 0.3603 0.1183
C7 C 0.0188(4) 0.2696(3) 0.09697(8)
H4 H 0.0268 0.2848 0.0760
C8 C 0.0117(4) 0.3420(2) 0.18031(8)
C11 C 0.0000(3) 0.4417(2) 0.22596(7)
C12 C 0.0540(3) 0.4421(2) 0.20516(11)
H7 H 0.0870 0.4764 0.2065
C13 C 0.0599(3) 0.3922(3) 0.18233(10)
H8 H 0.0968 0.3925 0.1681
C14 C 0.0000 0.5000 0.2500
C15 C 0.0008(7) 0.8484(6) 0.07725(18)
C17 C 0.0080(4) 0.8196(2) 0.13321(12)
H9 H 0.0183 0.8655 0.1370
C18 C 0.0045(4) 0.7748(3) 0.15836(8)
H10 H 0.0125 0.7900 0.1793
C23 C 0.0423(4) 0.6584(3) 0.20112(10)
H13 H 0.0752 0.6927 0.1997
C24 C 0.0481(3) 0.6085(3) 0.22394(9)
H14 H 0.0851 0.6087 0.2382
C25 C 0.0000(3) 0.5583(2) 0.22596(7)
O10 O 0.4076(3) 0.5008(3) 0.41557(8)
O11 O 0.3238(3) 0.5031(4) 0.45208(9)
C41 C 0.3484(6) 0.4992(7) 0.42275(18)
C42 C 0.2974(3) 0.5037(4) 0.39749(9)
C43 C 0.3196(2) 0.4920(4) 0.36679(12)
H25 H 0.3655 0.4817 0.3630
C44 C 0.2748(3) 0.4955(4) 0.34164(8)
H26 H 0.2900 0.4875 0.3207
C45 C 0.2078(3) 0.5106(4) 0.34719(9)
C46 C 0.1856(2) 0.5223(4) 0.37788(12)
H27 H 0.1397 0.5326 0.3817
C47 C 0.2304(3) 0.5188(4) 0.40303(8)
H28 H 0.2152 0.5268 0.4240
C48 C 0.1580(2) 0.5117(4) 0.31969(8)
C49 C 0.1584(3) 0.4577(4) 0.29888(10)
H29 H 0.1927 0.4248 0.3003
C50 C 0.1085(3) 0.4519(3) 0.27606(9)
H30 H 0.1087 0.4149 0.2618
C51 C 0.0583(2) 0.5000(3) 0.27404(7)
C52 C 0.0579(2) 0.5540(3) 0.29484(11)
H31 H 0.0236 0.5870 0.2935
C53 C 0.1078(3) 0.5599(3) 0.31767(10)
H32 H 0.1075 0.5968 0.3319
O16 O 0.0635(3) 0.0645(3) 0.02831(10)
Zr4_2 Zr -0.0000 1.0000 0.05781(2)
Zr6 Zr 0.5000 0.5000 0.44219(2)
Zr10 Zr 0.37487(6) 0.50084(8) 0.5000
Zr2_2 Zr 0.00084(8) 0.12513(6) 1.0000
O4_2 O 0.0909(6) 0.1934(5) 1.0000
O21 O 0.0031(4) 0.1762(3) 0.95208(9)
O23 O 0.0635(3) 0.0645(3) 0.97169(10)
O15 O 0.0645(3) 0.9365(3) 0.02831(10)
Zr9 Zr 0.12513(6) 0.99916(8) 0.0000
O19 O 0.0924(3) 0.9992(3) 0.08443(8)
Zr9_2 Zr 0.12513(6) 0.99916(8) 1.0000
Zr4_3 Zr 1.0000 -0.0000 0.05781(2)
O2 O 0.9215(6) 0.2005(5) 0.0000
O5 O 0.9355(3) 0.0635(3) 0.02831(10)
C1 C 0.9992(7) 0.1516(6) 0.07725(18)
C3 C 0.9920(4) 0.1804(2) 0.13321(12)
H1 H 0.9817 0.1345 0.1370
C4 C 0.9955(4) 0.2252(3) 0.15836(8)
H2 H 0.9875 0.2100 0.1793
C9 C 0.9577(4) 0.3416(3) 0.20112(10)
H5 H 0.9248 0.3073 0.1997
C10 C 0.9519(3) 0.3915(3) 0.22394(9)
H6 H 0.9149 0.3913 0.2382
C11_2 C 1.0000(3) 0.4417(2) 0.22596(7)
C14_2 C 1.0000 0.5000 0.2500
O6 O 0.9992(3) 0.9076(3) 0.08443(8)
O7 O 0.9969(4) 0.8238(3) 0.04792(9)
C16 C 0.9963(4) 0.7974(3) 0.10251(9)
C19 C 0.9894(4) 0.7078(3) 0.15281(9)
C20 C 0.9777(4) 0.6856(2) 0.12212(12)
H11 H 0.9674 0.6397 0.1183
C21 C 0.9812(4) 0.7304(3) 0.09697(8)
H12 H 0.9732 0.7152 0.0760
C22 C 0.9883(4) 0.6580(2) 0.18031(8)
C25_2 C 1.0000(3) 0.5583(2) 0.22596(7)
C26 C 0.9460(3) 0.5579(2) 0.20516(11)
H15 H 0.9130 0.5236 0.2065
C27 C 0.9401(3) 0.6078(3) 0.18233(10)
H16 H 0.9032 0.6075 0.1681
O8 O 0.5924(3) 0.4992(3) 0.41557(8)
O9 O 0.6762(3) 0.4969(4) 0.45208(9)
C28 C 0.6516(6) 0.5008(7) 0.42275(18)
C29 C 0.7026(3) 0.4963(4) 0.39749(9)
C30 C 0.6804(2) 0.5080(4) 0.36679(12)
H17 H 0.6345 0.5183 0.3630
C31 C 0.7252(3) 0.5045(4) 0.34164(8)
H18 H 0.7100 0.5125 0.3207
C32 C 0.7922(3) 0.4894(4) 0.34719(9)
C33 C 0.8144(2) 0.4777(4) 0.37788(12)
H19 H 0.8603 0.4674 0.3817
C34 C 0.7696(3) 0.4812(4) 0.40303(8)
H20 H 0.7848 0.4732 0.4240
C35 C 0.8420(2) 0.4883(4) 0.31969(8)
C36 C 0.8416(3) 0.5423(4) 0.29888(10)
H21 H 0.8073 0.5752 0.3003
C37 C 0.8915(3) 0.5481(3) 0.27606(9)
H22 H 0.8913 0.5851 0.2618
C38 C 0.9417(2) 0.5000(3) 0.27404(7)
C39 C 0.9421(2) 0.4460(3) 0.29484(11)
H23 H 0.9764 0.4130 0.2935
C40 C 0.8922(3) 0.4401(3) 0.31767(10)
H24 H 0.8925 0.4032 0.3319
Zr3 Zr 0.87487(6) 0.00084(8) 0.0000
O13 O 0.8066(5) 0.0909(6) 0.0000
Zr4_4 Zr 1.0000 1.0000 0.05781(2)
Zr8 Zr 0.99916(8) 0.87487(6) 0.0000
Zr11 Zr 0.62513(6) 0.49916(8) 0.5000
O17 O 0.9076(3) 0.0008(3) 0.08443(8)
O20 O 0.8238(3) 0.0031(4) 0.04792(9)
O2_2 O 0.9215(6) 0.2005(5) 1.0000
Zr3_2 Zr 0.87487(6) 0.00084(8) 1.0000
O13_2 O 0.8066(5) 0.0909(6) 1.0000
Zr8_2 Zr 0.99916(8) 0.87487(6) 1.0000
O22 O 0.8238(3) 0.0031(4) 0.95208(9)
O24 O 0.9355(3) 0.0635(3) 0.97169(10)
O12 O 0.7995(5) 0.9215(6) 0.0000
O14 O 0.9365(3) 0.9355(3) 0.02831(10)
O12_2 O 0.7995(5) 0.9215(6) 1.0000
O25 O 0.9365(3) 0.9355(3) 0.97169(10)
O12_3 O 0.0785(6) 0.7995(5) 0.0000
O12_4 O 0.0785(6) 0.7995(5) 1.0000
O25_2 O 0.0645(3) 0.9365(3) 0.97169(10)
C2_2 C 0.7974(3) 0.0037(4) 0.10251(9)
C5_2 C 0.7078(3) 0.0106(4) 0.15281(9)
C6_2 C 0.6856(2) 0.0223(4) 0.12212(12)
H3_2 H 0.6397 0.0326 0.1183
C7_2 C 0.7304(3) 0.0188(4) 0.09697(8)
H4_2 H 0.7152 0.0268 0.0760
C8_2 C 0.6580(2) 0.0117(4) 0.18031(8)
C11_3 C 0.5583(2) -0.0000(3) 0.22596(7)
C12_2 C 0.5579(2) 0.0540(3) 0.20516(11)
H7_2 H 0.5236 0.0870 0.2065
C13_2 C 0.6078(3) 0.0599(3) 0.18233(10)
H8_2 H 0.6075 0.0968 0.1681
C14_3 C 0.5000 -0.0000 0.2500
C15_2 C 0.1516(6) 0.0008(7) 0.07725(18)
C17_2 C 0.1804(2) 0.0080(4) 0.13321(12)
H9_2 H 0.1345 0.0183 0.1370
C18_2 C 0.2252(3) 0.0045(4) 0.15836(8)
H10_2 H 0.2100 0.0125 0.1793
C23_2 C 0.3416(3) 0.0423(4) 0.20112(10)
H13_2 H 0.3073 0.0752 0.1997
C24_2 C 0.3915(3) 0.0481(3) 0.22394(9)
H14_2 H 0.3913 0.0851 0.2382
C25_3 C 0.4417(2) 0.0000(3) 0.22596(7)
O10_2 O 0.4992(3) 0.4076(3) 0.41557(8)
O11_2 O 0.4969(4) 0.3238(3) 0.45208(9)
C41_2 C 0.5008(7) 0.3484(6) 0.42275(18)
C42_2 C 0.4963(4) 0.2974(3) 0.39749(9)
C43_2 C 0.5080(4) 0.3196(2) 0.36679(12)
H25_2 H 0.5183 0.3655 0.3630
C44_2 C 0.5045(4) 0.2748(3) 0.34164(8)
H26_2 H 0.5125 0.2900 0.3207
C45_2 C 0.4894(4) 0.2078(3) 0.34719(9)
C46_2 C 0.4777(4) 0.1856(2) 0.37788(12)
H27_2 H 0.4674 0.1397 0.3817
C47_2 C 0.4812(4) 0.2304(3) 0.40303(8)
H28_2 H 0.4732 0.2152 0.4240
C48_2 C 0.4883(4) 0.1580(2) 0.31969(8)
C49_2 C 0.5423(4) 0.1584(3) 0.29888(10)
H29_2 H 0.5752 0.1927 0.3003
C50_2 C 0.5481(3) 0.1085(3) 0.27606(9)
H30_2 H 0.5851 0.1087 0.2618
C51_2 C 0.5000(3) 0.0583(2) 0.27404(7)
C52_2 C 0.4460(3) 0.0579(2) 0.29484(11)
H31_2 H 0.4130 0.0236 0.2935
C53_2 C 0.4401(3) 0.1078(3) 0.31767(10)
H32_2 H 0.4032 0.1075 0.3319
Zr10_2 Zr 0.49916(8) 0.37487(6) 0.5000
C1_2 C 0.8484(6) 0.9992(7) 0.07725(18)
C3_2 C 0.8196(2) 0.9920(4) 0.13321(12)
H1_2 H 0.8655 0.9817 0.1370
C4_2 C 0.7748(3) 0.9955(4) 0.15836(8)
H2_2 H 0.7900 0.9875 0.1793
C9_2 C 0.6584(3) 0.9577(4) 0.20112(10)
H5_2 H 0.6927 0.9248 0.1997
C10_2 C 0.6085(3) 0.9519(3) 0.22394(9)
H6_2 H 0.6087 0.9149 0.2382
C11_4 C 0.5583(2) 1.0000(3) 0.22596(7)
C14_4 C 0.5000 1.0000 0.2500
O7_2 O 0.1762(3) 0.9969(4) 0.04792(9)
C16_2 C 0.2026(3) 0.9963(4) 0.10251(9)
C19_2 C 0.2922(3) 0.9894(4) 0.15281(9)
C20_2 C 0.3144(2) 0.9777(4) 0.12212(12)
H11_2 H 0.3603 0.9674 0.1183
C21_2 C 0.2696(3) 0.9812(4) 0.09697(8)
H12_2 H 0.2848 0.9732 0.0760
C22_2 C 0.3420(2) 0.9883(4) 0.18031(8)
C25_4 C 0.4417(2) 1.0000(3) 0.22596(7)
C26_2 C 0.4421(2) 0.9460(3) 0.20516(11)
H15_2 H 0.4764 0.9130 0.2065
C27_2 C 0.3922(3) 0.9401(3) 0.18233(10)
H16_2 H 0.3925 0.9032 0.1681
O8_2 O 0.5008(3) 0.5924(3) 0.41557(8)
O9_2 O 0.5031(4) 0.6762(3) 0.45208(9)
C28_2 C 0.4992(7) 0.6516(6) 0.42275(18)
C29_2 C 0.5037(4) 0.7026(3) 0.39749(9)
C30_2 C 0.4920(4) 0.6804(2) 0.36679(12)
H17_2 H 0.4817 0.6345 0.3630
C31_2 C 0.4955(4) 0.7252(3) 0.34164(8)
H18_2 H 0.4875 0.7100 0.3207
C32_2 C 0.5106(4) 0.7922(3) 0.34719(9)
C33_2 C 0.5223(4) 0.8144(2) 0.37788(12)
H19_2 H 0.5326 0.8603 0.3817
C34_2 C 0.5188(4) 0.7696(3) 0.40303(8)
H20_2 H 0.5268 0.7848 0.4240
C35_2 C 0.5117(4) 0.8420(2) 0.31969(8)
C36_2 C 0.4577(4) 0.8416(3) 0.29888(10)
H21_2 H 0.4248 0.8073 0.3003
C37_2 C 0.4519(3) 0.8915(3) 0.27606(9)
H22_2 H 0.4149 0.8913 0.2618
C38_2 C 0.5000(3) 0.9417(2) 0.27404(7)
C39_2 C 0.5540(3) 0.9421(2) 0.29484(11)
H23_2 H 0.5870 0.9764 0.2935
C40_2 C 0.5599(3) 0.8922(3) 0.31767(10)
H24_2 H 0.5968 0.8925 0.3319
O13_3 O 0.9091(6) 0.8066(5) 0.0000
Zr11_2 Zr 0.50084(8) 0.62513(6) 0.5000
O13_4 O 0.9091(6) 0.8066(5) 1.0000
O22_2 O 0.9969(4) 0.8238(3) 0.95208(9)
O12_5 O 0.2005(5) 0.0785(6) 0.0000
O12_6 O 0.2005(5) 0.0785(6) 1.0000
O13_5 O 0.1934(5) 0.9091(6) 0.0000
O13_6 O 0.1934(5) 0.9091(6) 1.0000
O22_3 O 0.1762(3) 0.9969(4) 0.95208(9)
Zr6_2 Zr -0.0000 -0.0000 0.94219(2)
Zr6_3 Zr -0.0000 1.0000 0.94219(2)
C14_5 C 0.5000 -0.0000 0.7500
O6_2 O 0.4992(3) 0.4076(3) 0.58443(8)
O7_3 O 0.4969(4) 0.3238(3) 0.54792(9)
C15_3 C 0.5008(7) 0.3484(6) 0.57725(18)
C16_3 C 0.4963(4) 0.2974(3) 0.60251(9)
C17_3 C 0.5080(4) 0.3196(2) 0.63321(12)
H9_3 H 0.5183 0.3655 0.6370
C18_3 C 0.5045(4) 0.2748(3) 0.65836(8)
H10_3 H 0.5125 0.2900 0.6793
C19_3 C 0.4894(4) 0.2078(3) 0.65281(9)
C20_3 C 0.4777(4) 0.1856(2) 0.62212(12)
H11_3 H 0.4674 0.1397 0.6183
C21_3 C 0.4812(4) 0.2304(3) 0.59697(8)
H12_3 H 0.4732 0.2152 0.5760
C22_3 C 0.4883(4) 0.1580(2) 0.68031(8)
C23_3 C 0.5423(4) 0.1584(3) 0.70112(10)
H13_3 H 0.5752 0.1927 0.6997
C24_3 C 0.5481(3) 0.1085(3) 0.72394(9)
H14_3 H 0.5851 0.1087 0.7382
C25_5 C 0.5000(3) 0.0583(2) 0.72596(7)
C26_3 C 0.4460(3) 0.0579(2) 0.70516(11)
H15_3 H 0.4130 0.0236 0.7065
C27_3 C 0.4401(3) 0.1078(3) 0.68233(10)
H16_3 H 0.4032 0.1075 0.6681
C28_3 C 0.1516(6) 0.0008(7) 0.92275(18)
C30_3 C 0.1804(2) 0.0080(4) 0.86679(12)
H17_3 H 0.1345 0.0183 0.8630
C31_3 C 0.2252(3) 0.0045(4) 0.84164(8)
H18_3 H 0.2100 0.0125 0.8207
C36_3 C 0.3416(3) 0.0423(4) 0.79888(10)
H21_3 H 0.3073 0.0752 0.8003
C37_3 C 0.3915(3) 0.0481(3) 0.77606(9)
H22_3 H 0.3913 0.0851 0.7618
C38_3 C 0.4417(2) -0.0000(3) 0.77404(7)
O10_3 O 0.9076(3) 0.0008(3) 0.91557(8)
C42_3 C 0.7974(3) 0.0037(4) 0.89749(9)
C45_3 C 0.7078(3) 0.0106(4) 0.84719(9)
C46_3 C 0.6856(2) 0.0223(4) 0.87788(12)
H27_3 H 0.6397 0.0326 0.8817
C47_3 C 0.7304(3) 0.0188(4) 0.90303(8)
H28_3 H 0.7152 0.0268 0.9240
C48_3 C 0.6580(2) 0.0117(4) 0.81969(8)
C51_3 C 0.5583(2) -0.0000(3) 0.77404(7)
C52_3 C 0.5579(2) 0.0540(3) 0.79484(11)
H31_3 H 0.5236 0.0870 0.7935
C53_3 C 0.6078(3) 0.0599(3) 0.81767(10)
H32_3 H 0.6075 0.0968 0.8319
Zr4_5 Zr 0.5000 0.5000 0.55781(2)
Zr6_4 Zr 1.0000 -0.0000 0.94219(2)
O1_2 O 0.5008(3) 0.5924(3) 0.58443(8)
O2_3 O 0.4215(6) 0.7005(5) 0.5000
O3_2 O 0.5031(4) 0.6762(3) 0.54792(9)
O4_3 O 0.5909(6) 0.6934(5) 0.5000
O5_2 O 0.4355(3) 0.5635(3) 0.52831(10)
C1_3 C 0.4992(7) 0.6516(6) 0.57725(18)
C2_3 C 0.5037(4) 0.7026(3) 0.60251(9)
C3_3 C 0.4920(4) 0.6804(2) 0.63321(12)
H1_3 H 0.4817 0.6345 0.6370
C4_3 C 0.4955(4) 0.7252(3) 0.65836(8)
H2_3 H 0.4875 0.7100 0.6793
C5_3 C 0.5106(4) 0.7922(3) 0.65281(9)
C6_3 C 0.5223(4) 0.8144(2) 0.62212(12)
H3_3 H 0.5326 0.8603 0.6183
C7_3 C 0.5188(4) 0.7696(3) 0.59697(8)
H4_3 H 0.5268 0.7848 0.5760
C8_3 C 0.5117(4) 0.8420(2) 0.68031(8)
C9_3 C 0.4577(4) 0.8416(3) 0.70112(10)
H5_3 H 0.4248 0.8073 0.6997
C10_3 C 0.4519(3) 0.8915(3) 0.72394(9)
H6_3 H 0.4149 0.8913 0.7382
C11_5 C 0.5000(3) 0.9417(2) 0.72596(7)
C12_3 C 0.5540(3) 0.9421(2) 0.70516(11)
H7_3 H 0.5870 0.9764 0.7065
C13_3 C 0.5599(3) 0.8922(3) 0.68233(10)
H8_3 H 0.5968 0.8925 0.6681
C14_6 C 0.5000 1.0000 0.7500
O8_3 O 0.0924(3) 0.9992(3) 0.91557(8)
C29_3 C 0.2026(3) 0.9963(4) 0.89749(9)
C32_3 C 0.2922(3) 0.9894(4) 0.84719(9)
C33_3 C 0.3144(2) 0.9777(4) 0.87788(12)
H19_3 H 0.3603 0.9674 0.8817
C34_3 C 0.2696(3) 0.9812(4) 0.90303(8)
H20_3 H 0.2848 0.9732 0.9240
C35_3 C 0.3420(2) 0.9883(4) 0.81969(8)
C38_4 C 0.4417(2) 1.0000(3) 0.77404(7)
C39_3 C 0.4421(2) 0.9460(3) 0.79484(11)
H23_3 H 0.4764 0.9130 0.7935
C40_3 C 0.3922(3) 0.9401(3) 0.81767(10)
H24_3 H 0.3925 0.9032 0.8319
C41_3 C 0.8484(6) 0.9992(7) 0.92275(18)
C43_3 C 0.8196(2) 0.9920(4) 0.86679(12)
H25_3 H 0.8655 0.9817 0.8630
C44_3 C 0.7748(3) 0.9955(4) 0.84164(8)
H26_3 H 0.7900 0.9875 0.8207
C49_3 C 0.6584(3) 0.9577(4) 0.79888(10)
H29_3 H 0.6927 0.9248 0.8003
C50_3 C 0.6085(3) 0.9519(3) 0.77606(9)
H30_3 H 0.6087 0.9149 0.7618
C51_4 C 0.5583(2) 1.0000(3) 0.77404(7)
O12_7 O 0.2995(5) 0.4215(6) 0.5000
O13_7 O 0.3066(5) 0.5909(6) 0.5000
O14_2 O 0.4365(3) 0.4355(3) 0.52831(10)
O15_2 O 0.5645(3) 0.4365(3) 0.52831(10)
O16_2 O 0.5635(3) 0.5645(3) 0.52831(10)
Zr6_5 Zr 1.0000 1.0000 0.94219(2)
O17_2 O 0.4076(3) 0.5008(3) 0.58443(8)
O19_2 O 0.5924(3) 0.4992(3) 0.58443(8)
O20_2 O 0.3238(3) 0.5031(4) 0.54792(9)
O23_2 O 0.5635(3) 0.5645(3) 0.47169(10)
O24_2 O 0.4355(3) 0.5635(3) 0.47169(10)
O25_3 O 0.4365(3) 0.4355(3) 0.47169(10)
C1_4 C 0.3484(6) 0.4992(7) 0.57725(18)
C2_4 C 0.2974(3) 0.5037(4) 0.60251(9)
C3_4 C 0.3196(2) 0.4920(4) 0.63321(12)
H1_4 H 0.3655 0.4817 0.6370
C4_4 C 0.2748(3) 0.4955(4) 0.65836(8)
H2_4 H 0.2900 0.4875 0.6793
C5_4 C 0.2078(3) 0.5106(4) 0.65281(9)
C6_4 C 0.1856(2) 0.5223(4) 0.62212(12)
H3_4 H 0.1397 0.5326 0.6183
C7_4 C 0.2304(3) 0.5188(4) 0.59697(8)
H4_4 H 0.2152 0.5268 0.5760
C8_4 C 0.1580(2) 0.5117(4) 0.68031(8)
C9_4 C 0.1584(3) 0.4577(4) 0.70112(10)
H5_4 H 0.1927 0.4248 0.6997
C10_4 C 0.1085(3) 0.4519(3) 0.72394(9)
H6_4 H 0.1087 0.4149 0.7382
C11_6 C 0.0583(2) 0.5000(3) 0.72596(7)
C12_4 C 0.0579(2) 0.5540(3) 0.70516(11)
H7_4 H 0.0236 0.5870 0.7065
C13_4 C 0.1078(3) 0.5599(3) 0.68233(10)
H8_4 H 0.1075 0.5968 0.6681
C14_7 C 0.0000 0.5000 0.7500
O8_4 O 0.0008(3) 0.0924(3) 0.91557(8)
C29_4 C 0.0037(4) 0.2026(3) 0.89749(9)
C32_4 C 0.0106(4) 0.2922(3) 0.84719(9)
C33_4 C 0.0223(4) 0.3144(2) 0.87788(12)
H19_4 H 0.0326 0.3603 0.8817
C34_4 C 0.0188(4) 0.2696(3) 0.90303(8)
H20_4 H 0.0268 0.2848 0.9240
C35_4 C 0.0117(4) 0.3420(2) 0.81969(8)
C38_5 C 0.0000(3) 0.4417(2) 0.77404(7)
C39_4 C 0.0540(3) 0.4421(2) 0.79484(11)
H23_4 H 0.0870 0.4764 0.7935
C40_4 C 0.0599(3) 0.3922(3) 0.81767(10)
H24_4 H 0.0968 0.3925 0.8319
C41_4 C 0.0008(7) 0.8484(6) 0.92275(18)
C43_4 C 0.0080(4) 0.8196(2) 0.86679(12)
H25_4 H 0.0183 0.8655 0.8630
C44_4 C 0.0045(4) 0.7748(3) 0.84164(8)
H26_4 H 0.0125 0.7900 0.8207
C49_4 C 0.0423(4) 0.6584(3) 0.79888(10)
H29_4 H 0.0752 0.6927 0.8003
C50_4 C 0.0481(3) 0.6085(3) 0.77606(9)
H30_4 H 0.0851 0.6087 0.7618
C51_5 C 0.0000(3) 0.5583(2) 0.77404(7)
O12_8 O 0.5785(6) 0.2995(5) 0.5000
O13_8 O 0.4091(6) 0.3066(5) 0.5000
O25_4 O 0.5645(3) 0.4365(3) 0.47169(10)
C14_8 C 1.0000 0.5000 0.7500
O7_4 O 0.6762(3) 0.4969(4) 0.54792(9)
C15_4 C 0.6516(6) 0.5008(7) 0.57725(18)
C16_4 C 0.7026(3) 0.4963(4) 0.60251(9)
C17_4 C 0.6804(2) 0.5080(4) 0.63321(12)
H9_4 H 0.6345 0.5183 0.6370
C18_4 C 0.7252(3) 0.5045(4) 0.65836(8)
H10_4 H 0.7100 0.5125 0.6793
C19_4 C 0.7922(3) 0.4894(4) 0.65281(9)
C20_4 C 0.8144(2) 0.4777(4) 0.62212(12)
H11_4 H 0.8603 0.4674 0.6183
C21_4 C 0.7696(3) 0.4812(4) 0.59697(8)
H12_4 H 0.7848 0.4732 0.5760
C22_4 C 0.8420(2) 0.4883(4) 0.68031(8)
C23_4 C 0.8416(3) 0.5423(4) 0.70112(10)
H13_4 H 0.8073 0.5752 0.6997
C24_4 C 0.8915(3) 0.5481(3) 0.72394(9)
H14_4 H 0.8913 0.5851 0.7382
C25_6 C 0.9417(2) 0.5000(3) 0.72596(7)
C26_4 C 0.9421(2) 0.4460(3) 0.70516(11)
H15_4 H 0.9764 0.4130 0.7065
C27_4 C 0.8922(3) 0.4401(3) 0.68233(10)
H16_4 H 0.8925 0.4032 0.6681
C28_4 C 0.9992(7) 0.1516(6) 0.92275(18)
C30_4 C 0.9920(4) 0.1804(2) 0.86679(12)
H17_4 H 0.9817 0.1345 0.8630
C31_4 C 0.9955(4) 0.2252(3) 0.84164(8)
H18_4 H 0.9875 0.2100 0.8207
C36_4 C 0.9577(4) 0.3416(3) 0.79888(10)
H21_4 H 0.9248 0.3073 0.8003
C37_4 C 0.9519(3) 0.3915(3) 0.77606(9)
H22_4 H 0.9149 0.3913 0.7618
C38_6 C 1.0000(3) 0.4417(2) 0.77404(7)
O10_4 O 0.9992(3) 0.9076(3) 0.91557(8)
C42_4 C 0.9963(4) 0.7974(3) 0.89749(9)
C45_4 C 0.9894(4) 0.7078(3) 0.84719(9)
C46_4 C 0.9777(4) 0.6856(2) 0.87788(12)
H27_4 H 0.9674 0.6397 0.8817
C47_4 C 0.9812(4) 0.7304(3) 0.90303(8)
H28_4 H 0.9732 0.7152 0.9240
C48_4 C 0.9883(4) 0.6580(2) 0.81969(8)
C51_6 C 1.0000(3) 0.5583(2) 0.77404(7)
C52_4 C 0.9460(3) 0.5579(2) 0.79484(11)
H31_4 H 0.9130 0.5236 0.7935
C53_4 C 0.9401(3) 0.6078(3) 0.81767(10)
H32_4 H 0.9032 0.6075 0.8319
O12_9 O 0.7005(5) 0.5785(6) 0.5000
O13_9 O 0.6934(5) 0.4091(6) 0.5000
loop_
_geom_bond_atom_site_label_1
_geom_bond_atom_site_label_2
_geom_bond_site_symmetry_1
_geom_bond_site_symmetry_2
Zr4 O1 1_555 1_555
O3 Zr2 1_555 1_555
O4 Zr2 1_555 1_555
C6 C5 1_555 1_555
H3 C6 1_555 1_555
C7 C2 1_555 1_555
H4 C7 1_555 1_555
C8 C5 1_555 1_555
C12 C11 1_555 1_555
H7 C12 1_555 1_555
C13 C8 1_555 1_555
H8 C13 1_555 1_555
C14 C11 1_555 1_555
C17 H9 1_555 1_555
C18 C17 1_555 1_555
H10 C18 1_555 1_555
H13 C23 1_555 1_555
C24 C23 1_555 1_555
H14 C24 1_555 1_555
C25 C14 1_555 1_555
O10 C41 1_555 1_555
O11 C41 1_555 1_555
C41 C42 1_555 1_555
C42 C43 1_555 1_555
C43 H25 1_555 1_555
C44 C43 1_555 1_555
H26 C44 1_555 1_555
C45 C44 1_555 1_555
C46 C45 1_555 1_555
H27 C46 1_555 1_555
C47 C42 1_555 1_555
H28 C47 1_555 1_555
C48 C45 1_555 1_555
C49 C48 1_555 1_555
H29 C49 1_555 1_555
C50 C49 1_555 1_555
H30 C50 1_555 1_555
C51 C14 1_555 1_555
C52 C51 1_555 1_555
H31 C52 1_555 1_555
C53 C48 1_555 1_555
H32 C53 1_555 1_555
O16 Zr4 1_555 1_555
Zr6 O10 1_555 1_555
Zr10 O11 1_555 1_555
Zr2 O16 1_555 1_555
C6 C7 1_555 1_555
C12 C13 1_555 1_555
C24 C25 1_555 1_555
C46 C47 1_555 1_555
C50 C51 1_555 1_555
C52 C53 1_555 1_555
O4_2 Zr2_2 1_555 1_555
O21 Zr2_2 1_555 1_555
O23 Zr2_2 1_555 1_555
O15 Zr4_2 1_555 1_555
Zr9 O15 1_555 1_555
O19 Zr4_2 1_555 1_555
O5 Zr4_3 1_555 1_555
H1 C3 1_555 1_555
C4 C3 1_555 1_555
H2 C4 1_555 1_555
H5 C9 1_555 1_555
C10 C9 1_555 1_555
H6 C10 1_555 1_555
C11_2 C10 1_555 1_555
C14_2 C11_2 1_555 1_555
C20 C19 1_555 1_555
H11 C20 1_555 1_555
C21 C16 1_555 1_555
H12 C21 1_555 1_555
C22 C19 1_555 1_555
C25_2 C14_2 1_555 1_555
C26 C25_2 1_555 1_555
H15 C26 1_555 1_555
C27 C22 1_555 1_555
H16 C27 1_555 1_555
O8 C28 1_555 1_555
O9 C28 1_555 1_555
C28 C29 1_555 1_555
C29 C30 1_555 1_555
C30 H17 1_555 1_555
C31 C30 1_555 1_555
H18 C31 1_555 1_555
C32 C31 1_555 1_555
C33 C32 1_555 1_555
H19 C33 1_555 1_555
C34 C29 1_555 1_555
H20 C34 1_555 1_555
C35 C32 1_555 1_555
C36 C35 1_555 1_555
H21 C36 1_555 1_555
C37 C36 1_555 1_555
H22 C37 1_555 1_555
C38 C14_2 1_555 1_555
C39 C38 1_555 1_555
H23 C39 1_555 1_555
C40 C35 1_555 1_555
H24 C40 1_555 1_555
Zr3 O5 1_555 1_555
O13 Zr3 1_555 1_555
Zr4_4 O6 1_555 1_555
Zr6 O8 1_555 1_555
Zr8 O7 1_555 1_555
Zr11 O9 1_555 1_555
O17 Zr4_3 1_555 1_555
O20 Zr3 1_555 1_555
C20 C21 1_555 1_555
C26 C27 1_555 1_555
C33 C34 1_555 1_555
C37 C38 1_555 1_555
C39 C40 1_555 1_555
O13_2 Zr3_2 1_555 1_555
O22 Zr3_2 1_555 1_555
Zr3_2 O24 1_555 1_555
O14 Zr4_4 1_555 1_555
Zr8 O14 1_555 1_555
Zr8_2 O25 1_555 1_555
Zr9_2 O25_2 1_555 1_555
C6_2 C5_2 1_555 1_555
H3_2 C6_2 1_555 1_555
C7_2 C2_2 1_555 1_555
H4_2 C7_2 1_555 1_555
C8_2 C5_2 1_555 1_555
C12_2 C11_3 1_555 1_555
H7_2 C12_2 1_555 1_555
C13_2 C8_2 1_555 1_555
H8_2 C13_2 1_555 1_555
C14_3 C11_3 1_555 1_555
C17_2 H9_2 1_555 1_555
C18_2 C17_2 1_555 1_555
H10_2 C18_2 1_555 1_555
H13_2 C23_2 1_555 1_555
C24_2 C23_2 1_555 1_555
H14_2 C24_2 1_555 1_555
C25_3 C14_3 1_555 1_555
O10_2 C41_2 1_555 1_555
O11_2 C41_2 1_555 1_555
C41_2 C42_2 1_555 1_555
C42_2 C43_2 1_555 1_555
C43_2 H25_2 1_555 1_555
C44_2 C43_2 1_555 1_555
H26_2 C44_2 1_555 1_555
C45_2 C44_2 1_555 1_555
C46_2 C45_2 1_555 1_555
H27_2 C46_2 1_555 1_555
C47_2 C42_2 1_555 1_555
H28_2 C47_2 1_555 1_555
C48_2 C45_2 1_555 1_555
C49_2 C48_2 1_555 1_555
H29_2 C49_2 1_555 1_555
C50_2 C49_2 1_555 1_555
H30_2 C50_2 1_555 1_555
C51_2 C14_3 1_555 1_555
C52_2 C51_2 1_555 1_555
H31_2 C52_2 1_555 1_555
C53_2 C48_2 1_555 1_555
H32_2 C53_2 1_555 1_555
Zr6 O10_2 1_555 1_555
Zr10_2 O11_2 1_555 1_555
C6_2 C7_2 1_555 1_555
C12_2 C13_2 1_555 1_555
C24_2 C25_3 1_555 1_555
C46_2 C47_2 1_555 1_555
C50_2 C51_2 1_555 1_555
C52_2 C53_2 1_555 1_555
H1_2 C3_2 1_555 1_555
C4_2 C3_2 1_555 1_555
H2_2 C4_2 1_555 1_555
H5_2 C9_2 1_555 1_555
C10_2 C9_2 1_555 1_555
H6_2 C10_2 1_555 1_555
C11_4 C10_2 1_555 1_555
C14_4 C11_4 1_555 1_555
C20_2 C19_2 1_555 1_555
H11_2 C20_2 1_555 1_555
C21_2 C16_2 1_555 1_555
H12_2 C21_2 1_555 1_555
C22_2 C19_2 1_555 1_555
C25_4 C14_4 1_555 1_555
C26_2 C25_4 1_555 1_555
H15_2 C26_2 1_555 1_555
C27_2 C22_2 1_555 1_555
H16_2 C27_2 1_555 1_555
O8_2 C28_2 1_555 1_555
O9_2 C28_2 1_555 1_555
C28_2 C29_2 1_555 1_555
C29_2 C30_2 1_555 1_555
C30_2 H17_2 1_555 1_555
C31_2 C30_2 1_555 1_555
H18_2 C31_2 1_555 1_555
C32_2 C31_2 1_555 1_555
C33_2 C32_2 1_555 1_555
H19_2 C33_2 1_555 1_555
C34_2 C29_2 1_555 1_555
H20_2 C34_2 1_555 1_555
C35_2 C32_2 1_555 1_555
C36_2 C35_2 1_555 1_555
H21_2 C36_2 1_555 1_555
C37_2 C36_2 1_555 1_555
H22_2 C37_2 1_555 1_555
C38_2 C14_4 1_555 1_555
C39_2 C38_2 1_555 1_555
H23_2 C39_2 1_555 1_555
C40_2 C35_2 1_555 1_555
H24_2 C40_2 1_555 1_555
O13_3 Zr8 1_555 1_555
Zr6 O8_2 1_555 1_555
Zr9 O7_2 1_555 1_555
Zr11_2 O9_2 1_555 1_555
C20_2 C21_2 1_555 1_555
C26_2 C27_2 1_555 1_555
C33_2 C34_2 1_555 1_555
C37_2 C38_2 1_555 1_555
C39_2 C40_2 1_555 1_555
O13_4 Zr8_2 1_555 1_555
O22_2 Zr8_2 1_555 1_555
O13_5 Zr9 1_555 1_555
O13_6 Zr9_2 1_555 1_555
O22_3 Zr9_2 1_555 1_555
O6_2 C15_3 1_555 1_555
O7_3 C15_3 1_555 1_555
C15_3 C16_3 1_555 1_555
C16_3 C17_3 1_555 1_555
C17_3 H9_3 1_555 1_555
C18_3 C17_3 1_555 1_555
H10_3 C18_3 1_555 1_555
C19_3 C18_3 1_555 1_555
C20_3 C19_3 1_555 1_555
H11_3 C20_3 1_555 1_555
C21_3 C16_3 1_555 1_555
H12_3 C21_3 1_555 1_555
C22_3 C19_3 1_555 1_555
C23_3 C22_3 1_555 1_555
H13_3 C23_3 1_555 1_555
C24_3 C23_3 1_555 1_555
H14_3 C24_3 1_555 1_555
C25_5 C14_5 1_555 1_555
C26_3 C25_5 1_555 1_555
H15_3 C26_3 1_555 1_555
C27_3 C22_3 1_555 1_555
H16_3 C27_3 1_555 1_555
C30_3 H17_3 1_555 1_555
C31_3 C30_3 1_555 1_555
H18_3 C31_3 1_555 1_555
H21_3 C36_3 1_555 1_555
C37_3 C36_3 1_555 1_555
H22_3 C37_3 1_555 1_555
C38_3 C14_5 1_555 1_555
C46_3 C45_3 1_555 1_555
H27_3 C46_3 1_555 1_555
C47_3 C42_3 1_555 1_555
H28_3 C47_3 1_555 1_555
C48_3 C45_3 1_555 1_555
C51_3 C14_5 1_555 1_555
C52_3 C51_3 1_555 1_555
H31_3 C52_3 1_555 1_555
C53_3 C48_3 1_555 1_555
H32_3 C53_3 1_555 1_555
Zr4_5 O6_2 1_555 1_555
Zr6_4 O10_3 1_555 1_555
Zr10_2 O7_3 1_555 1_555
C20_3 C21_3 1_555 1_555
C24_3 C25_5 1_555 1_555
C26_3 C27_3 1_555 1_555
C37_3 C38_3 1_555 1_555
C46_3 C47_3 1_555 1_555
C52_3 C53_3 1_555 1_555
Zr4_5 O1_2 1_555 1_555
Zr11_2 O2_3 1_555 1_555
O1_2 C1_3 1_555 1_555
O3_2 Zr11_2 1_555 1_555
O4_3 Zr11_2 1_555 1_555
O5_2 Zr4_5 1_555 1_555
C1_3 O3_2 1_555 1_555
C2_3 C1_3 1_555 1_555
C3_3 C2_3 1_555 1_555
H1_3 C3_3 1_555 1_555
C4_3 C3_3 1_555 1_555
H2_3 C4_3 1_555 1_555
C5_3 C4_3 1_555 1_555
C6_3 C5_3 1_555 1_555
H3_3 C6_3 1_555 1_555
C7_3 C2_3 1_555 1_555
H4_3 C7_3 1_555 1_555
C8_3 C5_3 1_555 1_555
C9_3 C8_3 1_555 1_555
H5_3 C9_3 1_555 1_555
C10_3 C9_3 1_555 1_555
H6_3 C10_3 1_555 1_555
C11_5 C10_3 1_555 1_555
C12_3 C11_5 1_555 1_555
H7_3 C12_3 1_555 1_555
C13_3 C8_3 1_555 1_555
H8_3 C13_3 1_555 1_555
C14_6 C11_5 1_555 1_555
C33_3 C32_3 1_555 1_555
H19_3 C33_3 1_555 1_555
C34_3 C29_3 1_555 1_555
H20_3 C34_3 1_555 1_555
C35_3 C32_3 1_555 1_555
C38_4 C14_6 1_555 1_555
C39_3 C38_4 1_555 1_555
H23_3 C39_3 1_555 1_555
C40_3 C35_3 1_555 1_555
H24_3 C40_3 1_555 1_555
C43_3 H25_3 1_555 1_555
C44_3 C43_3 1_555 1_555
H26_3 C44_3 1_555 1_555
H29_3 C49_3 1_555 1_555
C50_3 C49_3 1_555 1_555
H30_3 C50_3 1_555 1_555
C51_4 C14_6 1_555 1_555
Zr10 O5_2 1_555 1_555
O12_7 Zr10 1_555 1_555
O13_7 Zr10 1_555 1_555
O14_2 Zr4_5 1_555 1_555
O15_2 Zr4_5 1_555 1_555
O16_2 Zr4_5 1_555 1_555
Zr6_3 O8_3 1_555 1_555
Zr10_2 O14_2 1_555 1_555
Zr11 O15_2 1_555 1_555
O17_2 Zr4_5 1_555 1_555
O19_2 Zr4_5 1_555 1_555
O20_2 Zr10 1_555 1_555
O23_2 Zr11_2 1_555 1_555
O24_2 Zr11_2 1_555 1_555
O25_3 Zr10 1_555 1_555
Zr11_2 O5_2 1_555 1_555
Zr11_2 O16_2 1_555 1_555
C6_3 C7_3 1_555 1_555
C12_3 C13_3 1_555 1_555
C33_3 C34_3 1_555 1_555
C39_3 C40_3 1_555 1_555
C50_3 C51_4 1_555 1_555
Zr10 O14_2 1_555 1_555
Zr10 O24_2 1_555 1_555
O15_2 Zr10_2 1_555 1_555
O16_2 Zr11 1_555 1_555
Zr10_2 O25_3 1_555 1_555
Zr11 O23_2 1_555 1_555
O17_2 C1_4 1_555 1_555
C1_4 O20_2 1_555 1_555
C2_4 C1_4 1_555 1_555
C3_4 C2_4 1_555 1_555
H1_4 C3_4 1_555 1_555
C4_4 C3_4 1_555 1_555
H2_4 C4_4 1_555 1_555
C5_4 C4_4 1_555 1_555
C6_4 C5_4 1_555 1_555
H3_4 C6_4 1_555 1_555
C7_4 C2_4 1_555 1_555
H4_4 C7_4 1_555 1_555
C8_4 C5_4 1_555 1_555
C9_4 C8_4 1_555 1_555
H5_4 C9_4 1_555 1_555
C10_4 C9_4 1_555 1_555
H6_4 C10_4 1_555 1_555
C11_6 C10_4 1_555 1_555
C12_4 C11_6 1_555 1_555
H7_4 C12_4 1_555 1_555
C13_4 C8_4 1_555 1_555
H8_4 C13_4 1_555 1_555
C14_7 C11_6 1_555 1_555
C33_4 C32_4 1_555 1_555
H19_4 C33_4 1_555 1_555
C34_4 C29_4 1_555 1_555
H20_4 C34_4 1_555 1_555
C35_4 C32_4 1_555 1_555
C38_5 C14_7 1_555 1_555
C39_4 C38_5 1_555 1_555
H23_4 C39_4 1_555 1_555
C40_4 C35_4 1_555 1_555
H24_4 C40_4 1_555 1_555
C43_4 H25_4 1_555 1_555
C44_4 C43_4 1_555 1_555
H26_4 C44_4 1_555 1_555
H29_4 C49_4 1_555 1_555
C50_4 C49_4 1_555 1_555
H30_4 C50_4 1_555 1_555
C51_5 C14_7 1_555 1_555
O12_8 Zr10_2 1_555 1_555
O13_8 Zr10_2 1_555 1_555
Zr6_2 O8_4 1_555 1_555
O25_4 Zr10_2 1_555 1_555
C6_4 C7_4 1_555 1_555
C12_4 C13_4 1_555 1_555
C33_4 C34_4 1_555 1_555
C39_4 C40_4 1_555 1_555
C50_4 C51_5 1_555 1_555
Zr11 O25_4 1_555 1_555
O19_2 C15_4 1_555 1_555
O7_4 C15_4 1_555 1_555
C15_4 C16_4 1_555 1_555
C16_4 C17_4 1_555 1_555
C17_4 H9_4 1_555 1_555
C18_4 C17_4 1_555 1_555
H10_4 C18_4 1_555 1_555
C19_4 C18_4 1_555 1_555
C20_4 C19_4 1_555 1_555
H11_4 C20_4 1_555 1_555
C21_4 C16_4 1_555 1_555
H12_4 C21_4 1_555 1_555
C22_4 C19_4 1_555 1_555
C23_4 C22_4 1_555 1_555
H13_4 C23_4 1_555 1_555
C24_4 C23_4 1_555 1_555
H14_4 C24_4 1_555 1_555
C25_6 C14_8 1_555 1_555
C26_4 C25_6 1_555 1_555
H15_4 C26_4 1_555 1_555
C27_4 C22_4 1_555 1_555
H16_4 C27_4 1_555 1_555
C30_4 H17_4 1_555 1_555
C31_4 C30_4 1_555 1_555
H18_4 C31_4 1_555 1_555
H21_4 C36_4 1_555 1_555
C37_4 C36_4 1_555 1_555
H22_4 C37_4 1_555 1_555
C38_6 C14_8 1_555 1_555
C46_4 C45_4 1_555 1_555
H27_4 C46_4 1_555 1_555
C47_4 C42_4 1_555 1_555
H28_4 C47_4 1_555 1_555
C48_4 C45_4 1_555 1_555
C51_6 C14_8 1_555 1_555
C52_4 C51_6 1_555 1_555
H31_4 C52_4 1_555 1_555
C53_4 C48_4 1_555 1_555
H32_4 C53_4 1_555 1_555
Zr6_5 O10_4 1_555 1_555
Zr11 O7_4 1_555 1_555
C20_4 C21_4 1_555 1_555
C24_4 C25_6 1_555 1_555
C26_4 C27_4 1_555 1_555
C37_4 C38_6 1_555 1_555
C46_4 C47_4 1_555 1_555
C52_4 C53_4 1_555 1_555
O12_9 Zr11 1_555 1_555
O13_9 Zr11 1_555 1_555
O23 Zr6_2 1_555 1_555
O25_2 Zr6_3 1_555 1_555
O24 Zr6_4 1_555 1_555
O25 Zr6_5 1_555 1_555
O25_4 Zr6 1_555 1_555
O23_2 Zr6 1_555 1_555
O24_2 Zr6 1_555 1_555
O25_3 Zr6 1_555 1_555

#END
