
###############################################################################
#
# This file contains modified crystal structure data generated from the
# MOF subset of the Cambridge Structural Database (CSD) v543 
# hosted by the Cambridge Crystallographic Data Centre (CCDC).
#
# This work is licensed under the Creative Commons
# Attribution-NonCommercial-ShareAlike 4.0 International License.
# To view a copy of this license, visit
# http://creativecommons.org/licenses/by-nc-sa/4.0/
# or send a letter to
# Creative Commons, PO Box 1866, Mountain View, CA 94042, USA.
#
# CIF created using the CSD Python API on 29 September 2022
# The structure has been converted into the P1 space group
# The structure has a 3D framework
# The original CSD entry DITROQ01 is in the tetragonal crystal system
# The framework has been calculated to contain at least 10.0% void space
# The void calculation uses a probe of radius 1.32A, grid spacing 0.4
#
###############################################################################

data_DITROQ01
_chemical_formula_moiety         '(C136 H116 Al12 Cl16 N20 O64 4+)n'
_symmetry_cell_setting           triclinic
_symmetry_space_group_name_H-M   'P 1'
_symmetry_Int_Tables_number      1
_space_group_name_Hall           'P 1'
loop_
_symmetry_equiv_pos_site_id
_symmetry_equiv_pos_as_xyz
1 x,y,z
_cell_length_a                   21.48(6)
_cell_length_b                   21.48(6)
_cell_length_c                   10.88(3)
_cell_angle_alpha                90
_cell_angle_beta                 90
_cell_angle_gamma                90
_cell_volume                     5019.93
loop_
_atom_site_label
_atom_site_type_symbol
_atom_site_fract_x
_atom_site_fract_y
_atom_site_fract_z
Al1 Al 0.3059(10) 0.000 0.000
O1 O 0.2528(3) 0.0028(3) 0.125
O2 O 0.3805(3) 0.0102(3) 0.1155(6)
O3 O 0.3361(3) 0.0679(2) 0.2706(6)
C1 C 0.4435(3) 0.0694(3) 0.3892(6)
C2 C 0.4434(3) 0.0383(3) 0.2703(5)
C3 C 0.3798(3) 0.0400(3) 0.2151(6)
C4 C 0.500 0.1105(4) 0.5889(9)
C5 C 0.500 0.0272(4) 0.2204(8)
N1 N 0.500 0.0803(3) 0.4557(6)
H1 H 0.500 0.0064(5) 0.1288(13)
H2 H 0.4070(5) 0.0847(5) 0.4231(10)
H3 H 0.4582(5) 0.0953(5) 0.6396(9)
H4 H 0.500 0.1564(7) 0.5814(11)
O4 O 0.6195(3) 0.0102(3) 0.1155(6)
O5 O 0.6639(3) 0.0679(2) 0.2706(6)
C6 C 0.5565(3) 0.0694(3) 0.3892(6)
C7 C 0.5566(3) 0.0383(3) 0.2703(5)
C8 C 0.6202(3) 0.0400(3) 0.2151(6)
H6 H 0.5930(5) 0.0847(5) 0.4231(10)
H7 H 0.5418(5) 0.0953(5) 0.6396(9)
Al2 Al 0.6941(10) 0.000 0.000
Al3 Al 0.250 0.0559(10) 0.250
Al4 Al 0.750 0.0559(10) 0.250
Al1_2 Al 0.3059(10) -0.000 1.000
Al2_2 Al 0.6941(10) -0.000 1.000
O9 O 0.3179(2) 0.0861(3) 0.9794(6)
Al1_3 Al 0.3059(10) 1.000 0.000
H5 H 0.2227(5) 0.9727(5) 0.125
Al2_3 Al 0.6941(10) 1.000 0.000
O8 O 0.3179(2) 0.9139(3) 0.0206(6)
Al1_4 Al 0.3059(10) 1.000 1.000
Al2_4 Al 0.6941(10) 1.000 1.000
O6 O 0.2528(3) 0.9972(3) 0.875
O7 O 0.3805(3) 0.9898(3) 0.8845(6)
Al1_5 Al 0.1941(10) -0.000 0.500
H5_2 H 0.2773(5) 0.0273(5) 0.625
O6_2 O 0.2472(3) 0.0028(3) 0.375
O7_2 O 0.1195(3) 0.0102(3) 0.3845(6)
O8_2 O 0.1821(2) 0.0861(3) 0.5206(6)
Al1_6 Al 0.1941(10) 1.000 0.500
O1_2 O 0.2472(3) 0.9972(3) 0.625
O2_2 O 0.1195(3) 0.9898(3) 0.6155(6)
O3_2 O 0.1639(3) 0.9321(2) 0.7706(6)
C1_2 C 0.0565(3) 0.9306(3) 0.8892(6)
C2_2 C 0.0566(3) 0.9617(3) 0.7703(5)
C3_2 C 0.1202(3) 0.9600(3) 0.7151(6)
C5_2 C -0.000 0.9728(4) 0.7204(8)
N1_2 N 0.000 0.9197(3) 0.9557(6)
H1_2 H -0.000 0.9936(5) 0.6288(13)
H2_2 H 0.0930(5) 0.9153(5) 0.9231(10)
Al3_2 Al 0.250 0.9441(10) 0.750
O9_2 O 0.1821(2) 0.9139(3) 0.4794(6)
Al2_5 Al 0.8059(10) -0.000 0.500
C5_3 C 1.000 0.9728(4) 0.7204(8)
N1_3 N 1.000 0.9197(3) 0.9557(6)
H1_3 H 1.000 0.9936(5) 0.6288(13)
O4_2 O 0.8805(3) 0.9898(3) 0.6155(6)
O5_2 O 0.8361(3) 0.9321(2) 0.7706(6)
C6_2 C 0.9435(3) 0.9306(3) 0.8892(6)
C7_2 C 0.9434(3) 0.9617(3) 0.7703(5)
C8_2 C 0.8798(3) 0.9600(3) 0.7151(6)
H6_2 H 0.9070(5) 0.9153(5) 0.9231(10)
Al2_6 Al 0.8059(10) 1.000 0.500
Al4_2 Al 0.750 0.9441(10) 0.750
O3_3 O 0.1639(3) 0.0679(2) 0.2294(6)
C1_3 C 0.0565(3) 0.0694(3) 0.1108(6)
C2_3 C 0.0566(3) 0.0383(3) 0.2297(5)
C3_3 C 0.1202(3) 0.0400(3) 0.2849(6)
C5_4 C -0.000 0.0272(4) 0.2796(8)
N1_4 N -0.000 0.0803(3) 0.0443(6)
H1_4 H -0.000 0.0064(5) 0.3712(13)
H2_3 H 0.0930(5) 0.0847(5) 0.0769(10)
H5_3 H 0.2773(5) 0.9727(5) 0.375
C5_5 C 1.000 0.0272(4) 0.2796(8)
N1_5 N 1.000 0.0803(3) 0.0443(6)
H1_5 H 1.000 0.0064(5) 0.3712(13)
O4_3 O 0.8805(3) 0.0102(3) 0.3845(6)
O5_3 O 0.8361(3) 0.0679(2) 0.2294(6)
C6_3 C 0.9435(3) 0.0694(3) 0.1108(6)
C7_3 C 0.9434(3) 0.0383(3) 0.2297(5)
C8_3 C 0.8798(3) 0.0400(3) 0.2849(6)
H6_3 H 0.9070(5) 0.0847(5) 0.0769(10)
O2_3 O 0.2398(3) 0.8695(3) 0.6345(6)
C1_4 C 0.1806(3) 0.8065(3) 0.3608(6)
C2_4 C 0.2117(3) 0.8066(3) 0.4797(5)
C3_4 C 0.2100(3) 0.8702(3) 0.5349(6)
C4_2 C 0.1395(4) 0.750 0.1611(9)
C5_6 C 0.2228(4) 0.750 0.5296(8)
N1_6 N 0.1697(3) 0.750 0.2943(6)
H1_6 H 0.2436(5) 0.750 0.6212(13)
H2_4 H 0.1653(5) 0.8430(5) 0.3269(10)
H3_2 H 0.1547(5) 0.7918(5) 0.1104(9)
H4_2 H 0.0936(7) 0.750 0.1686(11)
O4_4 O 0.2398(3) 0.6305(3) 0.6345(6)
O5_4 O 0.1821(2) 0.5861(3) 0.4794(6)
C6_4 C 0.1806(3) 0.6935(3) 0.3608(6)
C7_4 C 0.2117(3) 0.6934(3) 0.4797(5)
C8_4 C 0.2100(3) 0.6298(3) 0.5349(6)
H6_4 H 0.1653(5) 0.6570(5) 0.3269(10)
H7_2 H 0.1547(5) 0.7082(5) 0.1104(9)
Al2_7 Al 0.250 0.5559(10) 0.750
Al4_3 Al 0.1941(10) 0.500 0.500
O7_3 O 0.2602(3) 0.8695(3) 0.8655(6)
O8_3 O 0.3361(3) 0.9321(2) 0.7294(6)
O2_4 O 0.2398(3) 0.1305(3) 0.3655(6)
C1_5 C 0.1806(3) 0.1935(3) 0.6392(6)
C2_5 C 0.2117(3) 0.1934(3) 0.5203(5)
C3_5 C 0.2100(3) 0.1298(3) 0.4651(6)
C4_3 C 0.1395(4) 0.250 0.8389(9)
C5_7 C 0.2228(4) 0.250 0.4704(8)
N1_7 N 0.1697(3) 0.250 0.7057(6)
H1_7 H 0.2436(5) 0.250 0.3788(13)
H2_5 H 0.1653(5) 0.1570(5) 0.6731(10)
H3_3 H 0.1547(5) 0.2082(5) 0.8896(9)
H4_3 H 0.0936(7) 0.250 0.8314(11)
O4_5 O 0.2398(3) 0.3695(3) 0.3655(6)
O5_5 O 0.1821(2) 0.4139(3) 0.5206(6)
C6_5 C 0.1806(3) 0.3065(3) 0.6392(6)
C7_5 C 0.2117(3) 0.3066(3) 0.5203(5)
C8_5 C 0.2100(3) 0.3702(3) 0.4651(6)
H6_5 H 0.1653(5) 0.3430(5) 0.6731(10)
H7_3 H 0.1547(5) 0.2918(5) 0.8896(9)
Al2_8 Al 0.250 0.4441(10) 0.250
O7_4 O 0.2602(3) 0.1305(3) 0.1345(6)
H5_4 H 0.2227(5) 0.0273(5) 0.875
C1_6 C 0.3194(3) 0.8065(3) 0.1392(6)
C2_6 C 0.2883(3) 0.8066(3) 0.0203(5)
C4_4 C 0.3605(4) 0.750 0.3389(9)
N1_8 N 0.3303(3) 0.750 0.2057(6)
H2_6 H 0.3347(5) 0.8430(5) 0.1731(10)
H3_4 H 0.3453(5) 0.7918(5) 0.3896(9)
H4_4 H 0.4064(7) 0.750 0.3314(11)
O5_6 O 0.3179(2) 0.5861(3) 0.0206(6)
C6_6 C 0.3194(3) 0.6935(3) 0.1392(6)
C7_6 C 0.2883(3) 0.6934(3) 0.0203(5)
H6_6 H 0.3347(5) 0.6570(5) 0.1731(10)
H7_4 H 0.3453(5) 0.7082(5) 0.3896(9)
Al4_4 Al 0.3059(10) 0.500 0.000
C3_6 C 0.2900(3) 0.8702(3) 0.9651(6)
C5_8 C 0.2772(4) 0.750 0.9704(8)
H1_8 H 0.2564(5) 0.750 0.8788(13)
O4_6 O 0.2602(3) 0.6305(3) 0.8655(6)
C8_6 C 0.2900(3) 0.6298(3) 0.9651(6)
Al4_5 Al 0.3059(10) 0.500 1.000
C3_7 C 0.2900(3) 0.1298(3) 0.0349(6)
C5_9 C 0.2772(4) 0.250 0.0296(8)
H1_9 H 0.2564(5) 0.250 0.1212(13)
O4_7 O 0.2602(3) 0.3695(3) 0.1345(6)
C8_7 C 0.2900(3) 0.3702(3) 0.0349(6)
C1_7 C 0.3194(3) 0.1935(3) 0.8608(6)
C2_7 C 0.2883(3) 0.1934(3) 0.9797(5)
C4_5 C 0.3605(4) 0.250 0.6611(9)
N1_9 N 0.3303(3) 0.250 0.7943(6)
H2_7 H 0.3347(5) 0.1570(5) 0.8269(10)
H3_5 H 0.3453(5) 0.2082(5) 0.6104(9)
H4_5 H 0.4064(7) 0.250 0.6686(11)
O5_7 O 0.3179(2) 0.4139(3) 0.9794(6)
C6_7 C 0.3194(3) 0.3065(3) 0.8608(6)
C7_7 C 0.2883(3) 0.3066(3) 0.9797(5)
H6_7 H 0.3347(5) 0.3430(5) 0.8269(10)
H7_5 H 0.3453(5) 0.2918(5) 0.6104(9)
C1_8 C 0.4435(3) 0.9306(3) 0.6108(6)
C2_8 C 0.4434(3) 0.9617(3) 0.7297(5)
C3_8 C 0.3798(3) 0.9600(3) 0.7849(6)
C4_6 C 0.500 0.8895(4) 0.4111(9)
C5_10 C 0.500 0.9728(4) 0.7796(8)
N1_10 N 0.500 0.9197(3) 0.5443(6)
H1_10 H 0.500 0.9936(5) 0.8712(13)
H2_8 H 0.4070(5) 0.9153(5) 0.5769(10)
H3_6 H 0.4582(5) 0.9047(5) 0.3604(9)
H4_6 H 0.500 0.8436(7) 0.4186(11)
O4_8 O 0.6195(3) 0.9898(3) 0.8845(6)
O5_8 O 0.6639(3) 0.9321(2) 0.7294(6)
C6_8 C 0.5565(3) 0.9306(3) 0.6108(6)
C7_8 C 0.5566(3) 0.9617(3) 0.7297(5)
C8_8 C 0.6202(3) 0.9600(3) 0.7849(6)
H6_8 H 0.5930(5) 0.9153(5) 0.5769(10)
H7_6 H 0.5418(5) 0.9047(5) 0.3604(9)
C5_11 C -0.000 0.5272(4) 0.7204(8)
N1_11 N -0.000 0.5803(3) 0.9557(6)
H1_11 H -0.000 0.5064(5) 0.6288(13)
O4_9 O 0.1195(3) 0.5102(3) 0.6155(6)
O5_9 O 0.1639(3) 0.5679(2) 0.7706(6)
C6_9 C 0.0565(3) 0.5694(3) 0.8892(6)
C7_9 C 0.0566(3) 0.5383(3) 0.7703(5)
C8_9 C 0.1202(3) 0.5400(3) 0.7151(6)
H6_9 H 0.0930(5) 0.5847(5) 0.9231(10)
Al1_7 Al 0.8059(10) 0.500 0.500
O1_3 O 0.7528(3) 0.5028(3) 0.625
O2_5 O 0.8805(3) 0.5102(3) 0.6155(6)
O3_4 O 0.8361(3) 0.5679(2) 0.7706(6)
C1_9 C 0.9435(3) 0.5694(3) 0.8892(6)
C2_9 C 0.9434(3) 0.5383(3) 0.7703(5)
C3_9 C 0.8798(3) 0.5400(3) 0.7151(6)
C5_12 C 1.000 0.5272(4) 0.7204(8)
N1_12 N 1.000 0.5803(3) 0.9557(6)
H1_12 H 1.000 0.5064(5) 0.6288(13)
H2_9 H 0.9070(5) 0.5847(5) 0.9231(10)
H5_5 H 0.7227(5) 0.4727(5) 0.625
Al3_3 Al 0.750 0.5559(10) 0.750
O6_3 O 0.7528(3) 0.4972(3) 0.375
O7_5 O 0.8805(3) 0.4898(3) 0.3845(6)
O8_4 O 0.8179(2) 0.4139(3) 0.5206(6)
O9_3 O 0.8179(2) 0.5861(3) 0.4794(6)
Al1_8 Al 0.6941(10) 0.500 0.000
O1_4 O 0.7472(3) 0.4972(3) 0.125
O2_6 O 0.6195(3) 0.4898(3) 0.1155(6)
O3_5 O 0.6639(3) 0.4321(2) 0.2706(6)
C1_10 C 0.5565(3) 0.4306(3) 0.3892(6)
C2_10 C 0.5566(3) 0.4617(3) 0.2703(5)
C3_10 C 0.6202(3) 0.4600(3) 0.2151(6)
C4_7 C 0.500 0.3895(4) 0.5889(9)
C5_13 C 0.500 0.4728(4) 0.2204(8)
N1_13 N 0.500 0.4197(3) 0.4557(6)
H1_13 H 0.500 0.4936(5) 0.1288(13)
H2_10 H 0.5930(5) 0.4153(5) 0.4231(10)
H3_7 H 0.5418(5) 0.4047(5) 0.6396(9)
H4_7 H 0.500 0.3436(7) 0.5814(11)
H5_6 H 0.7773(5) 0.5273(5) 0.125
O4_10 O 0.3805(3) 0.4898(3) 0.1155(6)
O5_10 O 0.3361(3) 0.4321(2) 0.2706(6)
C6_10 C 0.4435(3) 0.4306(3) 0.3892(6)
C7_10 C 0.4434(3) 0.4617(3) 0.2703(5)
C8_10 C 0.3798(3) 0.4600(3) 0.2151(6)
H6_10 H 0.4070(5) 0.4153(5) 0.4231(10)
H7_7 H 0.4582(5) 0.4047(5) 0.6396(9)
Al3_4 Al 0.750 0.4441(10) 0.250
O8_5 O 0.6821(2) 0.5861(3) 0.0206(6)
Al1_9 Al 0.6941(10) 0.500 1.000
O6_4 O 0.7472(3) 0.5028(3) 0.875
O7_6 O 0.6195(3) 0.5102(3) 0.8845(6)
O9_4 O 0.6821(2) 0.4139(3) 0.9794(6)
O3_6 O 0.6639(3) 0.5679(2) 0.7294(6)
C1_11 C 0.5565(3) 0.5694(3) 0.6108(6)
C2_11 C 0.5566(3) 0.5383(3) 0.7297(5)
C3_11 C 0.6202(3) 0.5400(3) 0.7849(6)
C4_8 C 0.500 0.6105(4) 0.4111(9)
C5_14 C 0.500 0.5272(4) 0.7796(8)
N1_14 N 0.500 0.5803(3) 0.5443(6)
H1_14 H 0.500 0.5064(5) 0.8712(13)
H2_11 H 0.5930(5) 0.5847(5) 0.5769(10)
H3_8 H 0.5418(5) 0.5953(5) 0.3604(9)
H4_8 H 0.500 0.6564(7) 0.4186(11)
H5_7 H 0.7773(5) 0.4727(5) 0.875
O4_11 O 0.3805(3) 0.5102(3) 0.8845(6)
O5_11 O 0.3361(3) 0.5679(2) 0.7294(6)
C6_11 C 0.4435(3) 0.5694(3) 0.6108(6)
C7_11 C 0.4434(3) 0.5383(3) 0.7297(5)
C8_11 C 0.3798(3) 0.5400(3) 0.7849(6)
H6_11 H 0.4070(5) 0.5847(5) 0.5769(10)
H7_8 H 0.4582(5) 0.5953(5) 0.3604(9)
O2_7 O 0.7398(3) 0.3695(3) 0.1345(6)
C3_12 C 0.7100(3) 0.3702(3) 0.0349(6)
C5_15 C 0.7228(4) 0.250 0.0296(8)
H1_15 H 0.7436(5) 0.250 0.1212(13)
O4_12 O 0.7398(3) 0.1305(3) 0.1345(6)
C8_12 C 0.7100(3) 0.1298(3) 0.0349(6)
O7_7 O 0.7602(3) 0.3695(3) 0.3655(6)
O8_6 O 0.8361(3) 0.4321(2) 0.2294(6)
C1_12 C 0.6806(3) 0.3065(3) 0.8608(6)
C2_12 C 0.7117(3) 0.3066(3) 0.9797(5)
C4_9 C 0.6395(4) 0.250 0.6611(9)
N1_15 N 0.6697(3) 0.250 0.7943(6)
H2_12 H 0.6653(5) 0.3430(5) 0.8269(10)
H3_9 H 0.6547(5) 0.2918(5) 0.6104(9)
H4_9 H 0.5936(7) 0.250 0.6686(11)
O5_12 O 0.6821(2) 0.0861(3) 0.9794(6)
C6_12 C 0.6806(3) 0.1935(3) 0.8608(6)
C7_12 C 0.7117(3) 0.1934(3) 0.9797(5)
H6_12 H 0.6653(5) 0.1570(5) 0.8269(10)
H7_9 H 0.6547(5) 0.2082(5) 0.6104(9)
C1_13 C 0.6806(3) 0.6935(3) 0.1392(6)
C2_13 C 0.7117(3) 0.6934(3) 0.0203(5)
C4_10 C 0.6395(4) 0.750 0.3389(9)
N1_16 N 0.6697(3) 0.750 0.2057(6)
H2_13 H 0.6653(5) 0.6570(5) 0.1731(10)
H3_10 H 0.6547(5) 0.7082(5) 0.3896(9)
H4_10 H 0.5936(7) 0.750 0.3314(11)
O5_13 O 0.6821(2) 0.9139(3) 0.0206(6)
C6_13 C 0.6806(3) 0.8065(3) 0.1392(6)
C7_13 C 0.7117(3) 0.8066(3) 0.0203(5)
H6_13 H 0.6653(5) 0.8430(5) 0.1731(10)
H7_10 H 0.6547(5) 0.7918(5) 0.3896(9)
O2_8 O 0.7398(3) 0.6305(3) 0.8655(6)
C3_13 C 0.7100(3) 0.6298(3) 0.9651(6)
C5_16 C 0.7228(4) 0.750 0.9704(8)
H1_16 H 0.7436(5) 0.750 0.8788(13)
O4_13 O 0.7398(3) 0.8695(3) 0.8655(6)
C8_13 C 0.7100(3) 0.8702(3) 0.9651(6)
O7_8 O 0.7602(3) 0.6305(3) 0.6345(6)
C1_14 C 0.8194(3) 0.3065(3) 0.6392(6)
C2_14 C 0.7883(3) 0.3066(3) 0.5203(5)
C3_14 C 0.7900(3) 0.3702(3) 0.4651(6)
C4_11 C 0.8605(4) 0.250 0.8389(9)
C5_17 C 0.7772(4) 0.250 0.4704(8)
N1_17 N 0.8303(3) 0.250 0.7057(6)
H1_17 H 0.7564(5) 0.250 0.3788(13)
H2_14 H 0.8347(5) 0.3430(5) 0.6731(10)
H3_11 H 0.8453(5) 0.2918(5) 0.8896(9)
H4_11 H 0.9064(7) 0.250 0.8314(11)
H5_8 H 0.7227(5) 0.5273(5) 0.375
O4_14 O 0.7602(3) 0.1305(3) 0.3655(6)
O5_14 O 0.8179(2) 0.0861(3) 0.5206(6)
C6_14 C 0.8194(3) 0.1935(3) 0.6392(6)
C7_14 C 0.7883(3) 0.1934(3) 0.5203(5)
C8_14 C 0.7900(3) 0.1298(3) 0.4651(6)
H6_14 H 0.8347(5) 0.1570(5) 0.6731(10)
H7_11 H 0.8453(5) 0.2082(5) 0.8896(9)
C1_15 C 0.8194(3) 0.6935(3) 0.3608(6)
C2_15 C 0.7883(3) 0.6934(3) 0.4797(5)
C3_15 C 0.7900(3) 0.6298(3) 0.5349(6)
C4_12 C 0.8605(4) 0.750 0.1611(9)
C5_18 C 0.7772(4) 0.750 0.5296(8)
N1_18 N 0.8303(3) 0.750 0.2943(6)
H1_18 H 0.7564(5) 0.750 0.6212(13)
H2_15 H 0.8347(5) 0.6570(5) 0.3269(10)
H3_12 H 0.8453(5) 0.7082(5) 0.1104(9)
H4_12 H 0.9064(7) 0.750 0.1686(11)
O4_15 O 0.7602(3) 0.8695(3) 0.6345(6)
O5_15 O 0.8179(2) 0.9139(3) 0.4794(6)
C6_15 C 0.8194(3) 0.8065(3) 0.3608(6)
C7_15 C 0.7883(3) 0.8066(3) 0.4797(5)
C8_15 C 0.7900(3) 0.8702(3) 0.5349(6)
H6_15 H 0.8347(5) 0.8430(5) 0.3269(10)
H7_12 H 0.8453(5) 0.7918(5) 0.1104(9)
C5_19 C 0.000 0.4728(4) 0.2796(8)
N1_19 N 0.000 0.4197(3) 0.0443(6)
H1_19 H -0.000 0.4936(5) 0.3712(13)
O4_16 O 0.1195(3) 0.4898(3) 0.3845(6)
O5_16 O 0.1639(3) 0.4321(2) 0.2294(6)
C6_16 C 0.0565(3) 0.4306(3) 0.1108(6)
C7_16 C 0.0566(3) 0.4617(3) 0.2297(5)
C8_16 C 0.1202(3) 0.4600(3) 0.2849(6)
H6_16 H 0.0930(5) 0.4153(5) 0.0769(10)
C1_16 C 0.9435(3) 0.4306(3) 0.1108(6)
C2_16 C 0.9434(3) 0.4617(3) 0.2297(5)
C3_16 C 0.8798(3) 0.4600(3) 0.2849(6)
C5_20 C 1.000 0.4728(4) 0.2796(8)
N1_20 N 1.000 0.4197(3) 0.0443(6)
H1_20 H 1.000 0.4936(5) 0.3712(13)
H2_16 H 0.9070(5) 0.4153(5) 0.0769(10)
O6_5 O 0.7472(3) 0.0028(3) 0.125
H5_9 H 0.7773(5) 0.0273(5) 0.875
O1_5 O 0.7472(3) 0.9972(3) 0.875
O1_6 O 0.7528(3) 0.0028(3) 0.375
H5_10 H 0.7227(5) 0.9727(5) 0.375
O6_6 O 0.7528(3) 0.9972(3) 0.625
H5_11 H 0.7227(5) 0.0273(5) 0.625
H5_12 H 0.7773(5) 0.9727(5) 0.125
O1_7 O 0.2472(3) 0.4972(3) 0.375
H5_13 H 0.2773(5) 0.5273(5) 0.375
O6_7 O 0.2472(3) 0.5028(3) 0.625
O6_8 O 0.2528(3) 0.4972(3) 0.125
O1_8 O 0.2528(3) 0.5028(3) 0.875
H5_14 H 0.2227(5) 0.4727(5) 0.875
H5_15 H 0.2227(5) 0.5273(5) 0.125
H5_16 H 0.2773(5) 0.4727(5) 0.625
C4_13 C 0.000 0.8895(4) 0.0889(9)
H3_13 H 0.0418(5) 0.9047(5) 0.1396(9)
H4_13 H -0.000 0.8436(7) 0.0814(11)
C4_14 C 1.000 0.8895(4) 0.0889(9)
H4_14 H 1.000 0.8436(7) 0.0814(11)
H7_13 H 0.9582(5) 0.9047(5) 0.1396(9)
C4_15 C -0.000 0.1105(4) 0.9111(9)
H3_14 H 0.0418(5) 0.0953(5) 0.8604(9)
H4_15 H -0.000 0.1564(7) 0.9186(11)
C4_16 C 1.000 0.1105(4) 0.9111(9)
H4_16 H 1.000 0.1564(7) 0.9186(11)
H7_14 H 0.9582(5) 0.0953(5) 0.8604(9)
C4_17 C 0.000 0.6105(4) 0.0889(9)
H4_17 H 0.000 0.6564(7) 0.0814(11)
H7_15 H 0.0418(5) 0.5953(5) 0.1396(9)
C4_18 C 1.000 0.6105(4) 0.0889(9)
H3_15 H 0.9582(5) 0.5953(5) 0.1396(9)
H4_18 H 1.000 0.6564(7) 0.0814(11)
C4_19 C -0.000 0.3895(4) 0.9111(9)
H4_19 H 0.000 0.3436(7) 0.9186(11)
H7_16 H 0.0418(5) 0.4047(5) 0.8604(9)
C4_20 C 1.000 0.3895(4) 0.9111(9)
H3_16 H 0.9582(5) 0.4047(5) 0.8604(9)
H4_20 H 1.000 0.3436(7) 0.9186(11)
Cl1 Cl 0.3451(2) 0.0951(2) 0.625
Cl1_2 Cl 0.1549(2) 0.9049(2) 0.125
Cl1_3 Cl 0.1549(2) 0.0951(2) 0.875
Cl1_4 Cl 0.3451(2) 0.9049(2) 0.375
Cl1_5 Cl 0.8451(2) 0.5951(2) 0.125
Cl1_6 Cl 0.6549(2) 0.4049(2) 0.625
Cl1_7 Cl 0.6549(2) 0.5951(2) 0.375
Cl1_8 Cl 0.8451(2) 0.4049(2) 0.875
Cl1_9 Cl 0.6549(2) 0.9049(2) 0.375
Cl1_10 Cl 0.8451(2) 0.0951(2) 0.875
Cl1_11 Cl 0.8451(2) 0.9049(2) 0.125
Cl1_12 Cl 0.6549(2) 0.0951(2) 0.625
Cl1_13 Cl 0.1549(2) 0.4049(2) 0.875
Cl1_14 Cl 0.3451(2) 0.5951(2) 0.375
Cl1_15 Cl 0.3451(2) 0.4049(2) 0.625
Cl1_16 Cl 0.1549(2) 0.5951(2) 0.125
loop_
_geom_bond_atom_site_label_1
_geom_bond_atom_site_label_2
_geom_bond_site_symmetry_1
_geom_bond_site_symmetry_2
Al1 O1 1_555 1_555
O2 Al1 1_555 1_555
O3 C3 1_555 1_555
C1 C2 1_555 1_555
C2 C3 1_555 1_555
C3 O2 1_555 1_555
C4 N1 1_555 1_555
C5 C2 1_555 1_555
N1 C1 1_555 1_555
H1 C5 1_555 1_555
H2 C1 1_555 1_555
H3 C4 1_555 1_555
H4 C4 1_555 1_555
O4 C8 1_555 1_555
O5 C8 1_555 1_555
C6 N1 1_555 1_555
C7 C5 1_555 1_555
C8 C7 1_555 1_555
H6 C6 1_555 1_555
H7 C4 1_555 1_555
Al2 O4 1_555 1_555
Al3 O1 1_555 1_555
Al4 O5 1_555 1_555
O3 Al3 1_555 1_555
C6 C7 1_555 1_555
O9 Al1_2 1_555 1_555
O8 Al1_3 1_555 1_555
O6 Al1_4 1_555 1_555
O7 Al1_4 1_555 1_555
O6_2 Al1_5 1_555 1_555
O7_2 Al1_5 1_555 1_555
O8_2 Al1_5 1_555 1_555
Al1_6 O1_2 1_555 1_555
O2_2 Al1_6 1_555 1_555
O3_2 C3_2 1_555 1_555
C1_2 C2_2 1_555 1_555
C2_2 C3_2 1_555 1_555
C3_2 O2_2 1_555 1_555
C5_2 C2_2 1_555 1_555
N1_2 C1_2 1_555 1_555
H1_2 C5_2 1_555 1_555
H2_2 C1_2 1_555 1_555
Al3_2 O1_2 1_555 1_555
O9_2 Al1_6 1_555 1_555
O3_2 Al3_2 1_555 1_555
H1_3 C5_3 1_555 1_555
O4_2 C8_2 1_555 1_555
O5_2 C8_2 1_555 1_555
C6_2 N1_3 1_555 1_555
C7_2 C5_3 1_555 1_555
C8_2 C7_2 1_555 1_555
H6_2 C6_2 1_555 1_555
Al2_6 O4_2 1_555 1_555
Al4_2 O5_2 1_555 1_555
C6_2 C7_2 1_555 1_555
O3_3 C3_3 1_555 1_555
C1_3 C2_3 1_555 1_555
C2_3 C3_3 1_555 1_555
C3_3 O7_2 1_555 1_555
C5_4 C2_3 1_555 1_555
N1_4 C1_3 1_555 1_555
H1_4 C5_4 1_555 1_555
H2_3 C1_3 1_555 1_555
Al3 O6_2 1_555 1_555
O3_3 Al3 1_555 1_555
H1_5 C5_5 1_555 1_555
O4_3 C8_3 1_555 1_555
O5_3 C8_3 1_555 1_555
C6_3 N1_5 1_555 1_555
C7_3 C5_5 1_555 1_555
C8_3 C7_3 1_555 1_555
H6_3 C6_3 1_555 1_555
Al2_5 O4_3 1_555 1_555
Al4 O5_3 1_555 1_555
C6_3 C7_3 1_555 1_555
O2_3 Al3_2 1_555 1_555
O9_2 C3_4 1_555 1_555
C1_4 C2_4 1_555 1_555
C2_4 C3_4 1_555 1_555
C3_4 O2_3 1_555 1_555
C4_2 N1_6 1_555 1_555
C5_6 C2_4 1_555 1_555
N1_6 C1_4 1_555 1_555
H1_6 C5_6 1_555 1_555
H2_4 C1_4 1_555 1_555
H3_2 C4_2 1_555 1_555
H4_2 C4_2 1_555 1_555
O4_4 C8_4 1_555 1_555
O5_4 C8_4 1_555 1_555
C6_4 N1_6 1_555 1_555
C7_4 C5_6 1_555 1_555
C8_4 C7_4 1_555 1_555
H6_4 C6_4 1_555 1_555
H7_2 C4_2 1_555 1_555
Al2_7 O4_4 1_555 1_555
Al4_3 O5_4 1_555 1_555
O6 Al3_2 1_555 1_555
O7_3 Al3_2 1_555 1_555
O8_3 Al3_2 1_555 1_555
C6_4 C7_4 1_555 1_555
O2_4 Al3 1_555 1_555
O8_2 C3_5 1_555 1_555
C1_5 C2_5 1_555 1_555
C2_5 C3_5 1_555 1_555
C3_5 O2_4 1_555 1_555
C4_3 N1_7 1_555 1_555
C5_7 C2_5 1_555 1_555
N1_7 C1_5 1_555 1_555
H1_7 C5_7 1_555 1_555
H2_5 C1_5 1_555 1_555
H3_3 C4_3 1_555 1_555
H4_3 C4_3 1_555 1_555
O4_5 C8_5 1_555 1_555
O5_5 C8_5 1_555 1_555
C6_5 N1_7 1_555 1_555
C7_5 C5_7 1_555 1_555
C8_5 C7_5 1_555 1_555
H6_5 C6_5 1_555 1_555
H7_3 C4_3 1_555 1_555
Al2_8 O4_5 1_555 1_555
Al4_3 O5_5 1_555 1_555
O7_4 Al3 1_555 1_555
C6_5 C7_5 1_555 1_555
C1_6 C2_6 1_555 1_555
C4_4 N1_8 1_555 1_555
N1_8 C1_6 1_555 1_555
H2_6 C1_6 1_555 1_555
H3_4 C4_4 1_555 1_555
H4_4 C4_4 1_555 1_555
C6_6 N1_8 1_555 1_555
H6_6 C6_6 1_555 1_555
H7_4 C4_4 1_555 1_555
Al4_4 O5_6 1_555 1_555
C6_6 C7_6 1_555 1_555
C3_6 O7_3 1_555 1_555
H1_8 C5_8 1_555 1_555
O4_6 C8_6 1_555 1_555
Al2_7 O4_6 1_555 1_555
C3_7 O7_4 1_555 1_555
H1_9 C5_9 1_555 1_555
O4_7 C8_7 1_555 1_555
Al2_8 O4_7 1_555 1_555
C1_7 C2_7 1_555 1_555
C4_5 N1_9 1_555 1_555
N1_9 C1_7 1_555 1_555
H2_7 C1_7 1_555 1_555
H3_5 C4_5 1_555 1_555
H4_5 C4_5 1_555 1_555
C6_7 N1_9 1_555 1_555
H6_7 C6_7 1_555 1_555
H7_5 C4_5 1_555 1_555
Al4_5 O5_7 1_555 1_555
C6_7 C7_7 1_555 1_555
O8_3 C3_8 1_555 1_555
C1_8 C2_8 1_555 1_555
C2_8 C3_8 1_555 1_555
C3_8 O7 1_555 1_555
C4_6 N1_10 1_555 1_555
C5_10 C2_8 1_555 1_555
N1_10 C1_8 1_555 1_555
H1_10 C5_10 1_555 1_555
H2_8 C1_8 1_555 1_555
H3_6 C4_6 1_555 1_555
H4_6 C4_6 1_555 1_555
O4_8 C8_8 1_555 1_555
O5_8 C8_8 1_555 1_555
C6_8 N1_10 1_555 1_555
C7_8 C5_10 1_555 1_555
C8_8 C7_8 1_555 1_555
H6_8 C6_8 1_555 1_555
H7_6 C4_6 1_555 1_555
Al2_4 O4_8 1_555 1_555
Al4_2 O5_8 1_555 1_555
C6_8 C7_8 1_555 1_555
H1_11 C5_11 1_555 1_555
O4_9 C8_9 1_555 1_555
O5_9 C8_9 1_555 1_555
C6_9 N1_11 1_555 1_555
C7_9 C5_11 1_555 1_555
C8_9 C7_9 1_555 1_555
H6_9 C6_9 1_555 1_555
Al4_3 O4_9 1_555 1_555
Al2_7 O5_9 1_555 1_555
C6_9 C7_9 1_555 1_555
Al1_7 O1_3 1_555 1_555
O1_3 H5_5 1_555 1_555
O2_5 Al1_7 1_555 1_555
O3_4 C3_9 1_555 1_555
C1_9 C2_9 1_555 1_555
C2_9 C3_9 1_555 1_555
C3_9 O2_5 1_555 1_555
C5_12 C2_9 1_555 1_555
N1_12 C1_9 1_555 1_555
H1_12 C5_12 1_555 1_555
H2_9 C1_9 1_555 1_555
Al3_3 O1_3 1_555 1_555
O6_3 Al1_7 1_555 1_555
O7_5 Al1_7 1_555 1_555
O8_4 Al1_7 1_555 1_555
O9_3 Al1_7 1_555 1_555
O3_4 Al3_3 1_555 1_555
Al1_8 O1_4 1_555 1_555
O1_4 H5_6 1_555 1_555
O2_6 Al1_8 1_555 1_555
O3_5 C3_10 1_555 1_555
C1_10 C2_10 1_555 1_555
C2_10 C3_10 1_555 1_555
C3_10 O2_6 1_555 1_555
C4_7 N1_13 1_555 1_555
C5_13 C2_10 1_555 1_555
N1_13 C1_10 1_555 1_555
H1_13 C5_13 1_555 1_555
H2_10 C1_10 1_555 1_555
H3_7 C4_7 1_555 1_555
H4_7 C4_7 1_555 1_555
O4_10 C8_10 1_555 1_555
O5_10 C8_10 1_555 1_555
C6_10 N1_13 1_555 1_555
C7_10 C5_13 1_555 1_555
C8_10 C7_10 1_555 1_555
H6_10 C6_10 1_555 1_555
H7_7 C4_7 1_555 1_555
Al4_4 O4_10 1_555 1_555
Al3_4 O1_4 1_555 1_555
Al2_8 O5_10 1_555 1_555
O8_5 Al1_8 1_555 1_555
O3_5 Al3_4 1_555 1_555
C6_10 C7_10 1_555 1_555
O6_4 Al1_9 1_555 1_555
O7_6 Al1_9 1_555 1_555
O9_4 Al1_9 1_555 1_555
O6_4 H5_7 1_555 1_555
O3_6 C3_11 1_555 1_555
C1_11 C2_11 1_555 1_555
C2_11 C3_11 1_555 1_555
C3_11 O7_6 1_555 1_555
C4_8 N1_14 1_555 1_555
C5_14 C2_11 1_555 1_555
N1_14 C1_11 1_555 1_555
H1_14 C5_14 1_555 1_555
H2_11 C1_11 1_555 1_555
H3_8 C4_8 1_555 1_555
H4_8 C4_8 1_555 1_555
O4_11 C8_11 1_555 1_555
O5_11 C8_11 1_555 1_555
C6_11 N1_14 1_555 1_555
C7_11 C5_14 1_555 1_555
C8_11 C7_11 1_555 1_555
H6_11 C6_11 1_555 1_555
H7_8 C4_8 1_555 1_555
Al4_5 O4_11 1_555 1_555
Al3_3 O6_4 1_555 1_555
Al2_7 O5_11 1_555 1_555
O3_6 Al3_3 1_555 1_555
C6_11 C7_11 1_555 1_555
O2_7 Al3_4 1_555 1_555
C3_12 O2_7 1_555 1_555
H1_15 C5_15 1_555 1_555
O4_12 C8_12 1_555 1_555
Al4 O4_12 1_555 1_555
O6_3 Al3_4 1_555 1_555
O7_7 Al3_4 1_555 1_555
O8_6 Al3_4 1_555 1_555
C1_12 C2_12 1_555 1_555
C4_9 N1_15 1_555 1_555
N1_15 C1_12 1_555 1_555
H2_12 C1_12 1_555 1_555
H3_9 C4_9 1_555 1_555
H4_9 C4_9 1_555 1_555
C6_12 N1_15 1_555 1_555
H6_12 C6_12 1_555 1_555
H7_9 C4_9 1_555 1_555
Al2_2 O5_12 1_555 1_555
C6_12 C7_12 1_555 1_555
C1_13 C2_13 1_555 1_555
C4_10 N1_16 1_555 1_555
N1_16 C1_13 1_555 1_555
H2_13 C1_13 1_555 1_555
H3_10 C4_10 1_555 1_555
H4_10 C4_10 1_555 1_555
C6_13 N1_16 1_555 1_555
H6_13 C6_13 1_555 1_555
H7_10 C4_10 1_555 1_555
Al2_3 O5_13 1_555 1_555
C6_13 C7_13 1_555 1_555
O2_8 Al3_3 1_555 1_555
C3_13 O2_8 1_555 1_555
H1_16 C5_16 1_555 1_555
O4_13 C8_13 1_555 1_555
Al4_2 O4_13 1_555 1_555
O7_8 Al3_3 1_555 1_555
O6_3 H5_8 1_555 1_555
O8_4 C3_14 1_555 1_555
C1_14 C2_14 1_555 1_555
C2_14 C3_14 1_555 1_555
C3_14 O7_7 1_555 1_555
C4_11 N1_17 1_555 1_555
C5_17 C2_14 1_555 1_555
N1_17 C1_14 1_555 1_555
H1_17 C5_17 1_555 1_555
H2_14 C1_14 1_555 1_555
H3_11 C4_11 1_555 1_555
H4_11 C4_11 1_555 1_555
O4_14 C8_14 1_555 1_555
O5_14 C8_14 1_555 1_555
C6_14 N1_17 1_555 1_555
C7_14 C5_17 1_555 1_555
C8_14 C7_14 1_555 1_555
H6_14 C6_14 1_555 1_555
H7_11 C4_11 1_555 1_555
Al4 O4_14 1_555 1_555
Al2_5 O5_14 1_555 1_555
C6_14 C7_14 1_555 1_555
O9_3 C3_15 1_555 1_555
C1_15 C2_15 1_555 1_555
C2_15 C3_15 1_555 1_555
C3_15 O7_8 1_555 1_555
C4_12 N1_18 1_555 1_555
C5_18 C2_15 1_555 1_555
N1_18 C1_15 1_555 1_555
H1_18 C5_18 1_555 1_555
H2_15 C1_15 1_555 1_555
H3_12 C4_12 1_555 1_555
H4_12 C4_12 1_555 1_555
O4_15 C8_15 1_555 1_555
O5_15 C8_15 1_555 1_555
C6_15 N1_18 1_555 1_555
C7_15 C5_18 1_555 1_555
C8_15 C7_15 1_555 1_555
H6_15 C6_15 1_555 1_555
H7_12 C4_12 1_555 1_555
Al4_2 O4_15 1_555 1_555
Al2_6 O5_15 1_555 1_555
C6_15 C7_15 1_555 1_555
H1_19 C5_19 1_555 1_555
O4_16 C8_16 1_555 1_555
O5_16 C8_16 1_555 1_555
C6_16 N1_19 1_555 1_555
C7_16 C5_19 1_555 1_555
C8_16 C7_16 1_555 1_555
H6_16 C6_16 1_555 1_555
Al4_3 O4_16 1_555 1_555
Al2_8 O5_16 1_555 1_555
C6_16 C7_16 1_555 1_555
O8_6 C3_16 1_555 1_555
C1_16 C2_16 1_555 1_555
C2_16 C3_16 1_555 1_555
C3_16 O7_5 1_555 1_555
C5_20 C2_16 1_555 1_555
N1_20 C1_16 1_555 1_555
H1_20 C5_20 1_555 1_555
H2_16 C1_16 1_555 1_555
O6_5 Al2 1_555 1_555
Al2_4 O1_5 1_555 1_555
Al4_2 O1_5 1_555 1_555
Al2_5 O1_6 1_555 1_555
Al4 O1_6 1_555 1_555
O6_6 Al2_6 1_555 1_555
Al4_2 O6_6 1_555 1_555
O6_5 Al4 1_555 1_555
Al4_3 O1_7 1_555 1_555
O1_7 H5_13 1_555 1_555
Al2_8 O1_7 1_555 1_555
O6_7 Al4_3 1_555 1_555
O6_8 Al4_4 1_555 1_555
Al4_5 O1_8 1_555 1_555
O1_8 H5_14 1_555 1_555
Al2_7 O1_8 1_555 1_555
O6_8 H5_15 1_555 1_555
Al2_8 O6_8 1_555 1_555
O6_7 Al2_7 1_555 1_555
O6_7 H5_16 1_555 1_555
H3_13 C4_13 1_555 1_555
H4_13 C4_13 1_555 1_555
H4_14 C4_14 1_555 1_555
H7_13 C4_14 1_555 1_555
H3_14 C4_15 1_555 1_555
H4_15 C4_15 1_555 1_555
H4_16 C4_16 1_555 1_555
H7_14 C4_16 1_555 1_555
H4_17 C4_17 1_555 1_555
H7_15 C4_17 1_555 1_555
H3_15 C4_18 1_555 1_555
H4_18 C4_18 1_555 1_555
H4_19 C4_19 1_555 1_555
H7_16 C4_19 1_555 1_555
H3_16 C4_20 1_555 1_555
H4_20 C4_20 1_555 1_555

#END
