
###############################################################################
#
# This file contains modified crystal structure data generated from the
# MOF subset of the Cambridge Structural Database (CSD) v543 
# hosted by the Cambridge Crystallographic Data Centre (CCDC).
#
# This work is licensed under the Creative Commons
# Attribution-NonCommercial-ShareAlike 4.0 International License.
# To view a copy of this license, visit
# http://creativecommons.org/licenses/by-nc-sa/4.0/
# or send a letter to
# Creative Commons, PO Box 1866, Mountain View, CA 94042, USA.
#
# CIF created using the CSD Python API on 29 September 2022
# The structure has been converted into the P1 space group
# The structure has a 3D framework
# The original CSD entry DITTEH is in the orthorhombic crystal system
# The original CSD entry DITTEH is in a Sohncke space group
# The framework has been calculated to contain at least 10.0% void space
# The void calculation uses a probe of radius 1.32A, grid spacing 0.4
#
###############################################################################

data_DITTEH
_chemical_formula_moiety         '(C132 H100 N4 O64 Zn16)n'
_symmetry_cell_setting           triclinic
_symmetry_space_group_name_H-M   'P 1'
_symmetry_Int_Tables_number      1
_space_group_name_Hall           'P 1'
loop_
_symmetry_equiv_pos_site_id
_symmetry_equiv_pos_as_xyz
1 x,y,z
_cell_length_a                   18.478(5)
_cell_length_b                   12.181(4)
_cell_length_c                   23.055(7)
_cell_angle_alpha                90
_cell_angle_beta                 90
_cell_angle_gamma                90
_cell_volume                     5189.23
loop_
_atom_site_label
_atom_site_type_symbol
_atom_site_fract_x
_atom_site_fract_y
_atom_site_fract_z
Zn1 Zn 0.29917(2) 0.23754(4) 0.18567(2)
Zn2 Zn 0.20014(2) 0.23794(4) 0.29952(2)
Zn3 Zn 0.17020(2) 0.06638(4) 0.20422(2)
Zn4 Zn 0.31982(2) 0.06147(4) 0.28798(2)
C1 C 0.1140(2) 0.4627(4) 0.1750(2)
C2 C 0.0461(2) 0.4898(4) 0.19855(19)
H1 H 0.0306 0.4566 0.2327
C3 C 0.0023(2) 0.5658(4) 0.17096(18)
C4 C 0.0251(2) 0.6159(4) 0.1202(2)
C5 C 0.0921(2) 0.5901(4) 0.09624(18)
C6 C 0.1348(2) 0.5126(4) 0.1234(2)
H3 H 0.1788 0.4931 0.1066
C7 C 0.1611(2) 0.3805(4) 0.20324(19)
C9 C 0.1171(3) 0.6485(4) 0.04146(19)
C10 C 0.0688(3) 0.6923(5) 0.0029(2)
H4 H 0.0195 0.6833 0.0095
C14 C 0.1900(2) 0.6547(5) 0.0288(2)
H7 H 0.2235 0.6213 0.0531
C16 C 0.4970(2) 0.0360(4) 0.17268(18)
C20 C 0.5871(2) 0.0692(4) 0.0987(2)
C21 C 0.5190(2) 0.0899(4) 0.1224(2)
H10 H 0.4881 0.1399 0.1046
C22 C 0.4233(2) 0.0650(3) 0.19760(16)
C24 C 0.6104(3) 0.1289(4) 0.04575(19)
C25 C 0.5600(3) 0.1603(5) 0.0025(2)
H11 H 0.5116 0.1402 0.0061
C29 C 0.6829(3) 0.1486(7) 0.0343(3)
H14 H 0.7181 0.1209 0.0590
C31 C 0.4207(4) 0.3452(7) 0.1309(4)
H15 H 0.4392 0.3258 0.1670
C32 C 0.5445(4) 0.4083(8) 0.0994(5)
H16 H 0.5562 0.3784 0.1367
H17 H 0.5549 0.4855 0.0991
H18 H 0.5728 0.3722 0.0701
C33 C 0.4461(8) 0.4350(11) 0.0322(5)
H19 H 0.4875 0.4615 0.0114
H20 H 0.4126 0.4943 0.0383
H21 H 0.4229 0.3781 0.0101
O1 O 0.24784(12) 0.1384(3) 0.24341(11)
O4 O 0.22282(16) 0.3625(3) 0.18058(14)
O5 O 0.13799(16) 0.3359(3) 0.25027(14)
O10 O 0.38427(16) 0.1268(3) 0.16945(13)
O11 O 0.40803(16) 0.0187(3) 0.24540(14)
O16 O 0.35685(18) 0.3311(3) 0.12109(15)
N1 N 0.4689(4) 0.3915(8) 0.0877(4)
O17 O 0.08482(16) 0.0493(3) 0.25424(14)
O18 O 0.10781(16) 0.1646(3) 0.32856(14)
O19 O 0.35824(19) 0.1400(3) 0.35658(13)
O20 O 0.2431(2) 0.1756(3) 0.37931(15)
O21 O 0.27390(15) 0.3610(3) 0.31270(14)
O22 O 0.36098(15) 0.3176(3) 0.24763(13)
O23 O 0.12874(18) 0.1526(3) 0.13847(14)
O24 O 0.24353(17) 0.1653(3) 0.11236(13)
C11 C 0.0913(3) 0.7497(5) 0.9542(2)
H5 H 0.0574 0.7813 0.9295
C12 C 0.1644(2) 0.7598(4) 0.94257(19)
C13 C 0.2134(3) 0.7101(5) 0.9803(2)
H6 H 0.2627 0.7145 0.9726
C15 C 0.1906(3) 0.8181(4) 0.88895(19)
C26 C 0.5829(3) 0.2226(5) 0.9536(3)
H12 H 0.5493 0.2458 0.9262
C27 C 0.6552(3) 0.2483(5) 0.9469(2)
C28 C 0.7031(3) 0.2094(6) 0.9860(3)
H13 H 0.7520 0.2241 0.9804
C30 C 0.6790(3) 0.3163(4) 0.89522(19)
O8 O 0.14176(19) 0.8600(3) 0.85658(13)
O9 O 0.2569(2) 0.8244(3) 0.87931(15)
O14 O 0.62874(18) 0.3474(3) 0.86153(14)
O15 O 0.74353(17) 0.3347(3) 0.88764(13)
Zn5 Zn 0.79917(2) 0.26246(4) 0.81433(2)
Zn7 Zn 0.29986(2) 0.76206(4) 0.79952(2)
Zn10 Zn 0.67020(2) 0.43362(4) 0.79578(2)
Zn12 Zn 0.18018(2) 0.93853(4) 0.78798(2)
C17 C 0.5427(2) 0.9648(3) 0.20083(18)
H8 H 0.5277 0.9299 0.2346
C18 C 0.6123(2) 0.9448(4) 0.17860(18)
C19 C 0.6338(3) 0.9982(4) 0.1273(2)
H9 H 0.6799 0.9858 0.1124
C23 C 0.6631(2) 0.8687(3) 0.20925(18)
O2 O 0.2852(3) 0.9211(4) 0.3177(3)
H22 H 0.2401 0.9151 0.3321
H23 H 0.3146 0.8622 0.3170
O3 O 0.1845(4) 0.9113(5) 0.1734(3)
H24 H 0.2108 0.8624 0.1936
H25 H 0.1641 0.8917 0.1394
O12 O 0.72610(15) 0.8610(3) 0.18730(14)
O13 O 0.63902(15) 0.8176(3) 0.25237(13)
Zn6 Zn 0.70083(2) 0.73754(4) 0.31433(2)
Zn9 Zn 0.79986(2) 0.73794(4) 0.20048(2)
H2 H 0.9955 0.6670 0.1020
C8 C 0.9310(2) 0.5948(4) 0.1986(2)
O6 O 0.91518(16) 0.5493(3) 0.24576(14)
O7 O 0.89219(16) 0.6646(3) 0.17144(14)
Zn11 Zn 0.82980(2) 0.56638(4) 0.29578(2)
Zn1_2 Zn 0.20083(2) 0.76246(4) 0.68567(2)
Zn3_2 Zn 0.32980(2) 0.93362(4) 0.70422(2)
C1_2 C 0.3860(2) 0.5373(4) 0.6750(2)
C2_2 C 0.4539(2) 0.5102(4) 0.69855(19)
H1_2 H 0.4694 0.5434 0.7327
C3_2 C 0.4977(2) 0.4342(4) 0.67096(18)
C4_2 C 0.4749(2) 0.3841(4) 0.6202(2)
H2_2 H 0.5045 0.3330 0.6020
C5_2 C 0.4079(2) 0.4099(4) 0.59624(18)
C6_2 C 0.3652(2) 0.4874(4) 0.6234(2)
H3_2 H 0.3212 0.5069 0.6066
C7_2 C 0.3389(2) 0.6195(4) 0.70324(19)
C8_2 C 0.5690(2) 0.4052(4) 0.6986(2)
C9_2 C 0.3829(3) 0.3515(4) 0.54146(19)
C10_2 C 0.4312(3) 0.3077(5) 0.5029(2)
H4_2 H 0.4805 0.3167 0.5095
C11_2 C 0.4087(3) 0.2503(5) 0.4542(2)
H5_2 H 0.4426 0.2187 0.4295
C12_2 C 0.3356(2) 0.2402(4) 0.44257(19)
C13_2 C 0.2866(3) 0.2899(5) 0.4803(2)
H6_2 H 0.2373 0.2855 0.4726
C14_2 C 0.3100(2) 0.3453(5) 0.5288(2)
H7_2 H 0.2765 0.3787 0.5531
C15_2 C 0.3094(3) 0.1819(4) 0.38895(19)
C16_2 C 0.0030(2) 0.9640(4) 0.67268(18)
H10_2 H 0.0119 0.8601 0.6046
C22_2 C 0.0767(2) 0.9350(3) 0.69760(16)
C31_2 C 0.0793(4) 0.6548(7) 0.6309(4)
H15_2 H 0.0608 0.6742 0.6670
C33_2 C 0.0539(8) 0.5650(11) 0.5322(5)
H19_2 H 0.0125 0.5385 0.5114
H20_2 H 0.0874 0.5057 0.5383
H21_2 H 0.0771 0.6219 0.5101
O1_2 O 0.25216(12) 0.8616(3) 0.74341(11)
O4_2 O 0.27718(16) 0.6375(3) 0.68058(14)
O5_2 O 0.36201(16) 0.6641(3) 0.75027(14)
O6_2 O 0.58482(16) 0.4507(3) 0.74576(14)
O7_2 O 0.60781(16) 0.3354(3) 0.67144(14)
O10_2 O 0.11573(16) 0.8732(3) 0.66945(13)
O11_2 O 0.09197(16) 0.9813(3) 0.74540(14)
O16_2 O 0.14315(18) 0.6689(3) 0.62109(15)
N1_2 N 0.0311(4) 0.6085(8) 0.5877(4)
Zn8 Zn 0.70014(2) 0.26206(4) 0.70048(2)
O17_2 O 0.41518(16) 0.9507(3) 0.75424(14)
O18_2 O 0.39219(16) 0.8354(3) 0.82856(14)
O21_2 O 0.22610(15) 0.6390(3) 0.81270(14)
O22_2 O 0.13902(15) 0.6824(3) 0.74763(13)
O23_2 O 0.37126(18) 0.8474(3) 0.63847(14)
O24_2 O 0.25647(17) 0.8347(3) 0.61236(13)
C17_2 C 0.9573(2) 0.0352(3) 0.70083(18)
H8_2 H 0.9723 0.0701 0.7346
C18_2 C 0.8877(2) 0.0552(4) 0.67860(18)
C19_2 C 0.8662(3) 0.0018(4) 0.6273(2)
H9_2 H 0.8201 0.0142 0.6124
C23_2 C 0.8369(2) 0.1313(3) 0.70925(18)
O12_2 O 0.77390(15) 0.1390(3) 0.68730(14)
O13_2 O 0.86098(15) 0.1824(3) 0.75237(13)
C20_2 C 0.9129(2) 0.9308(4) 0.5987(2)
C21_2 C 0.9810(2) 0.9101(4) 0.6224(2)
C24_2 C 0.8896(3) 0.8711(4) 0.54575(19)
C25_2 C 0.9400(3) 0.8397(5) 0.5025(2)
H11_2 H 0.9884 0.8598 0.5061
C26_2 C 0.9171(3) 0.7774(5) 0.4536(3)
H12_2 H 0.9507 0.7542 0.4262
C27_2 C 0.8448(3) 0.7517(5) 0.4469(2)
C28_2 C 0.7969(3) 0.7906(6) 0.4860(3)
H13_2 H 0.7480 0.7759 0.4804
C29_2 C 0.8171(3) 0.8514(7) 0.5343(3)
H14_2 H 0.7819 0.8791 0.5590
C30_2 C 0.8210(3) 0.6837(4) 0.39522(19)
C32_2 C 0.9555(4) 0.5917(8) 0.5994(5)
H16_2 H 0.9438 0.6216 0.6367
H17_2 H 0.9451 0.5145 0.5991
H18_2 H 0.9272 0.6278 0.5701
O14_2 O 0.87126(18) 0.6526(3) 0.36153(14)
O15_2 O 0.75647(17) 0.6653(3) 0.38764(13)
C26_3 C 0.0829(3) 0.2774(5) 0.0464(3)
H12_3 H 0.0493 0.2542 0.0738
C27_3 C 0.1552(3) 0.2517(5) 0.0531(2)
C28_3 C 0.2031(3) 0.2906(6) 0.0140(3)
H13_3 H 0.2520 0.2759 0.0196
C30_3 C 0.1790(3) 0.1837(4) 0.10478(19)
C17_3 C 0.0427(2) 0.5352(3) 0.79917(18)
H8_3 H 0.0277 0.5701 0.7654
C18_3 C 0.1123(2) 0.5552(4) 0.82140(18)
C19_3 C 0.1338(3) 0.5018(4) 0.8727(2)
H9_3 H 0.1799 0.5142 0.8876
C20_3 C 0.0871(2) 0.4308(4) 0.9013(2)
C21_3 C 0.0190(2) 0.4101(4) 0.8776(2)
C23_3 C 0.1631(2) 0.6313(3) 0.79075(18)
C24_3 C 0.1104(3) 0.3711(4) 0.95425(19)
C25_3 C 0.0600(3) 0.3397(5) 0.9975(2)
H11_3 H 0.0116 0.3598 0.9939
C29_3 C 0.1829(3) 0.3514(7) 0.9657(3)
H14_3 H 0.2181 0.3791 0.9410
C32_3 C 0.0445(4) 0.0917(8) 0.9006(5)
H16_3 H 0.0562 0.1216 0.8633
H17_3 H 0.0549 0.0145 0.9009
H18_3 H 0.0728 0.1278 0.9299
Zn4_2 Zn 0.81982(2) 0.43853(4) 0.71202(2)
C1_3 C 0.6140(2) 0.0373(4) 0.8250(2)
C2_3 C 0.5461(2) 0.0102(4) 0.80145(19)
H1_3 H 0.5306 0.0434 0.7673
H3_3 H 0.6788 0.0069 0.8934
C7_3 C 0.6611(2) 0.1195(4) 0.79676(19)
C16_3 C 0.9970(2) 0.4640(4) 0.82732(18)
H10_3 H 0.9881 0.3601 0.8954
C22_3 C 0.9233(2) 0.4350(3) 0.80240(16)
C31_3 C 0.9207(4) 0.1548(7) 0.8691(4)
H15_3 H 0.9392 0.1742 0.8330
C33_3 C 0.9461(8) 0.0650(11) 0.9678(5)
H19_3 H 0.9875 0.0385 0.9886
H20_3 H 0.9126 0.0057 0.9617
H21_3 H 0.9229 0.1219 0.9899
O1_3 O 0.74784(12) 0.3616(3) 0.75659(11)
O2_2 O 0.7852(3) 0.5789(4) 0.6823(3)
H22_2 H 0.7401 0.5849 0.6679
H23_2 H 0.8146 0.6378 0.6830
O3_2 O 0.6845(4) 0.5887(5) 0.8266(3)
H24_2 H 0.7108 0.6376 0.8064
H25_2 H 0.6641 0.6083 0.8606
O4_3 O 0.72282(16) 0.1375(3) 0.81942(14)
O5_3 O 0.63799(16) 0.1641(3) 0.74973(14)
O10_3 O 0.88427(16) 0.3732(3) 0.83055(13)
O11_3 O 0.90803(16) 0.4813(3) 0.75460(14)
O16_3 O 0.85685(18) 0.1689(3) 0.87891(15)
N1_3 N 0.9689(4) 0.1085(8) 0.9123(4)
O19_2 O 0.85824(19) 0.3600(3) 0.64342(13)
O20_2 O 0.7431(2) 0.3244(3) 0.62069(15)
C11_3 C 0.5913(3) 0.7503(5) 0.0458(2)
H5_3 H 0.5574 0.7187 0.0705
C12_3 C 0.6644(2) 0.7402(4) 0.05743(19)
C13_3 C 0.7134(3) 0.7899(5) 0.0197(2)
H6_3 H 0.7627 0.7855 0.0274
C15_3 C 0.6906(3) 0.6819(4) 0.11105(19)
O8_2 O 0.64176(19) 0.6400(3) 0.14342(13)
O9_2 O 0.7569(2) 0.6756(3) 0.12069(15)
Zn12_2 Zn 0.68018(2) 0.56147(4) 0.21202(2)
C3_3 C 0.5023(2) 0.9342(4) 0.82904(18)
C4_3 C 0.5251(2) 0.8841(4) 0.8798(2)
H2_3 H 0.4955 0.8330 0.8980
C5_3 C 0.5921(2) 0.9099(4) 0.90376(18)
C6_3 C 0.6348(2) 0.9874(4) 0.8766(2)
C8_3 C 0.4310(2) 0.9052(4) 0.8014(2)
C9_3 C 0.6171(3) 0.8515(4) 0.95854(19)
C10_3 C 0.5688(3) 0.8077(5) 0.9971(2)
H4_3 H 0.5195 0.8167 0.9905
C14_3 C 0.6900(2) 0.8453(5) 0.9712(2)
H7_3 H 0.7235 0.8787 0.9469
H2_4 H 0.0045 0.1670 0.3980
C8_4 C 0.0690(2) 0.0948(4) 0.3014(2)
C3_4 C 0.9977(2) 0.0658(4) 0.32904(18)
C4_4 C 0.9749(2) 0.1159(4) 0.3798(2)
C5_4 C 0.9079(2) 0.0901(4) 0.40376(18)
C6_4 C 0.8652(2) 0.0126(4) 0.3766(2)
C9_4 C 0.8829(3) 0.1485(4) 0.45854(19)
C10_4 C 0.9312(3) 0.1923(5) 0.4971(2)
H4_4 H 0.9805 0.1833 0.4905
C11_4 C 0.9087(3) 0.2497(5) 0.5458(2)
H5_4 H 0.9426 0.2813 0.5705
C12_4 C 0.8356(2) 0.2598(4) 0.55743(19)
C13_4 C 0.7866(3) 0.2101(5) 0.5197(2)
H6_4 H 0.7373 0.2145 0.5274
C14_4 C 0.8100(2) 0.1547(5) 0.4712(2)
H7_4 H 0.7765 0.1213 0.4469
C15_4 C 0.8094(3) 0.3181(4) 0.61105(19)
C1_4 C 0.8860(2) 0.9627(4) 0.3250(2)
C2_4 C 0.9539(2) 0.9898(4) 0.30145(19)
H1_4 H 0.9694 0.9566 0.2673
H3_4 H 0.8212 0.9931 0.3934
C7_4 C 0.8389(2) 0.8805(4) 0.29676(19)
C16_4 C 0.5030(2) 0.5360(4) 0.32732(18)
C17_4 C 0.4573(2) 0.4648(3) 0.29917(18)
H8_4 H 0.4723 0.4299 0.2654
C18_4 C 0.3877(2) 0.4448(4) 0.32140(18)
C19_4 C 0.3662(3) 0.4982(4) 0.3727(2)
H9_4 H 0.3201 0.4858 0.3876
C20_4 C 0.4129(2) 0.5692(4) 0.4013(2)
C21_4 C 0.4810(2) 0.5899(4) 0.3776(2)
H10_4 H 0.5119 0.6399 0.3954
C22_4 C 0.5767(2) 0.5650(3) 0.30240(16)
C23_4 C 0.3369(2) 0.3687(3) 0.29075(18)
C24_4 C 0.3896(3) 0.6289(4) 0.45425(19)
C25_4 C 0.4400(3) 0.6603(5) 0.4975(2)
H11_4 H 0.4884 0.6402 0.4939
C26_4 C 0.4171(3) 0.7226(5) 0.5464(3)
H12_4 H 0.4507 0.7458 0.5738
C27_4 C 0.3448(3) 0.7483(5) 0.5531(2)
C28_4 C 0.2969(3) 0.7094(6) 0.5140(3)
H13_4 H 0.2480 0.7241 0.5196
C29_4 C 0.3171(3) 0.6486(7) 0.4657(3)
H14_4 H 0.2819 0.6209 0.4410
C30_4 C 0.3210(3) 0.8163(4) 0.60478(19)
C31_4 C 0.5793(4) 0.8452(7) 0.3691(4)
H15_4 H 0.5608 0.8258 0.3330
C32_4 C 0.4555(4) 0.9083(8) 0.4006(5)
H16_4 H 0.4438 0.8784 0.3633
H17_4 H 0.4451 0.9855 0.4009
H18_4 H 0.4272 0.8722 0.4299
C33_4 C 0.5539(8) 0.9350(11) 0.4678(5)
H19_4 H 0.5125 0.9615 0.4886
H20_4 H 0.5874 0.9943 0.4617
H21_4 H 0.5771 0.8781 0.4899
O1_4 O 0.75216(12) 0.6384(3) 0.25659(11)
O2_3 O 0.7148(3) 0.4211(4) 0.1823(3)
H22_3 H 0.7599 0.4151 0.1679
H23_3 H 0.6854 0.3622 0.1830
O3_3 O 0.8155(4) 0.4113(5) 0.3266(3)
H24_3 H 0.7892 0.3624 0.3064
H25_3 H 0.8359 0.3917 0.3606
O4_4 O 0.77718(16) 0.8625(3) 0.31942(14)
O5_4 O 0.86201(16) 0.8359(3) 0.24973(14)
O10_4 O 0.61573(16) 0.6268(3) 0.33055(13)
O11_4 O 0.59197(16) 0.5187(3) 0.25460(14)
O16_4 O 0.64315(18) 0.8311(3) 0.37891(15)
N1_4 N 0.5311(4) 0.8915(8) 0.4123(4)
O2_4 O 0.2148(3) 0.0789(4) 0.8177(3)
H22_4 H 0.2599 0.0849 0.8321
H23_4 H 0.1854 0.1378 0.8170
O3_4 O 0.3155(4) 0.0887(5) 0.6734(3)
H24_4 H 0.2892 0.1376 0.6936
H25_4 H 0.3359 0.1083 0.6394
loop_
_geom_bond_atom_site_label_1
_geom_bond_atom_site_label_2
_geom_bond_site_symmetry_1
_geom_bond_site_symmetry_2
Zn1 O1 1_555 1_555
Zn2 O1 1_555 1_555
Zn3 O1 1_555 1_555
Zn4 O1 1_555 1_555
C1 C2 1_555 1_555
C2 H1 1_555 1_555
C3 C2 1_555 1_555
C4 C3 1_555 1_555
C5 C4 1_555 1_555
C6 C1 1_555 1_555
H3 C6 1_555 1_555
C7 C1 1_555 1_555
C9 C5 1_555 1_555
C10 C9 1_555 1_555
H4 C10 1_555 1_555
C14 C9 1_555 1_555
H7 C14 1_555 1_555
C21 C16 1_555 1_555
H10 C21 1_555 1_555
C22 C16 1_555 1_555
C24 C20 1_555 1_555
C25 C24 1_555 1_555
H11 C25 1_555 1_555
C29 C24 1_555 1_555
H14 C29 1_555 1_555
C31 H15 1_555 1_555
C32 H16 1_555 1_555
H17 C32 1_555 1_555
H18 C32 1_555 1_555
C33 H19 1_555 1_555
H20 C33 1_555 1_555
H21 C33 1_555 1_555
O4 Zn1 1_555 1_555
O5 Zn2 1_555 1_555
O10 Zn1 1_555 1_555
O11 Zn4 1_555 1_555
O16 Zn1 1_555 1_555
N1 C31 1_555 1_555
O17 Zn3 1_555 1_555
O18 Zn2 1_555 1_555
O19 Zn4 1_555 1_555
O20 Zn2 1_555 1_555
O21 Zn2 1_555 1_555
O22 Zn1 1_555 1_555
O23 Zn3 1_555 1_555
O24 Zn1 1_555 1_555
C5 C6 1_555 1_555
C7 O4 1_555 1_555
C7 O5 1_555 1_555
C20 C21 1_555 1_555
C22 O10 1_555 1_555
C22 O11 1_555 1_555
C31 O16 1_555 1_555
C32 N1 1_555 1_555
C33 N1 1_555 1_555
H5 C11 1_555 1_555
C12 C11 1_555 1_555
C13 C12 1_555 1_555
H6 C13 1_555 1_555
C15 C12 1_555 1_555
H12 C26 1_555 1_555
C27 C26 1_555 1_555
C28 C27 1_555 1_555
H13 C28 1_555 1_555
C30 C27 1_555 1_555
O8 C15 1_555 1_555
O9 C15 1_555 1_555
O14 C30 1_555 1_555
O15 C30 1_555 1_555
Zn5 O15 1_555 1_555
Zn7 O9 1_555 1_555
Zn10 O14 1_555 1_555
Zn12 O8 1_555 1_555
C17 H8 1_555 1_555
C18 C17 1_555 1_555
C19 C18 1_555 1_555
H9 C19 1_555 1_555
C23 C18 1_555 1_555
H22 O2 1_555 1_555
H23 O2 1_555 1_555
H24 O3 1_555 1_555
H25 O3 1_555 1_555
O12 C23 1_555 1_555
O13 C23 1_555 1_555
Zn6 O13 1_555 1_555
Zn9 O12 1_555 1_555
O6 C8 1_555 1_555
O7 C8 1_555 1_555
Zn9 O7 1_555 1_555
Zn11 O6 1_555 1_555
Zn1_2 O1_2 1_555 1_555
Zn7 O1_2 1_555 1_555
Zn3_2 O1_2 1_555 1_555
Zn12 O1_2 1_555 1_555
C1_2 C2_2 1_555 1_555
C2_2 H1_2 1_555 1_555
C3_2 C2_2 1_555 1_555
C4_2 C3_2 1_555 1_555
H2_2 C4_2 1_555 1_555
C5_2 C4_2 1_555 1_555
C6_2 C1_2 1_555 1_555
H3_2 C6_2 1_555 1_555
C7_2 C1_2 1_555 1_555
C8_2 C3_2 1_555 1_555
C9_2 C5_2 1_555 1_555
C10_2 C9_2 1_555 1_555
H4_2 C10_2 1_555 1_555
C11_2 C10_2 1_555 1_555
H5_2 C11_2 1_555 1_555
C12_2 C11_2 1_555 1_555
C13_2 C12_2 1_555 1_555
H6_2 C13_2 1_555 1_555
C14_2 C9_2 1_555 1_555
H7_2 C14_2 1_555 1_555
C15_2 C12_2 1_555 1_555
C22_2 C16_2 1_555 1_555
C31_2 H15_2 1_555 1_555
C33_2 H19_2 1_555 1_555
H20_2 C33_2 1_555 1_555
H21_2 C33_2 1_555 1_555
O4_2 Zn1_2 1_555 1_555
O5_2 Zn7 1_555 1_555
O6_2 C8_2 1_555 1_555
O7_2 C8_2 1_555 1_555
O19 C15_2 1_555 1_555
O20 C15_2 1_555 1_555
O10_2 Zn1_2 1_555 1_555
O11_2 Zn12 1_555 1_555
O16_2 Zn1_2 1_555 1_555
N1_2 C31_2 1_555 1_555
Zn8 O7_2 1_555 1_555
Zn10 O6_2 1_555 1_555
O17_2 Zn3_2 1_555 1_555
O18_2 Zn7 1_555 1_555
O21_2 Zn7 1_555 1_555
O22_2 Zn1_2 1_555 1_555
O23_2 Zn3_2 1_555 1_555
O24_2 Zn1_2 1_555 1_555
C5_2 C6_2 1_555 1_555
C7_2 O4_2 1_555 1_555
C7_2 O5_2 1_555 1_555
C13_2 C14_2 1_555 1_555
C22_2 O10_2 1_555 1_555
C22_2 O11_2 1_555 1_555
C31_2 O16_2 1_555 1_555
C33_2 N1_2 1_555 1_555
C17_2 H8_2 1_555 1_555
C18_2 C17_2 1_555 1_555
C19_2 C18_2 1_555 1_555
H9_2 C19_2 1_555 1_555
C23_2 C18_2 1_555 1_555
O12_2 C23_2 1_555 1_555
O13_2 C23_2 1_555 1_555
Zn5 O13_2 1_555 1_555
Zn8 O12_2 1_555 1_555
C24_2 C20_2 1_555 1_555
C25_2 C24_2 1_555 1_555
H11_2 C25_2 1_555 1_555
C26_2 C25_2 1_555 1_555
H12_2 C26_2 1_555 1_555
C27_2 C26_2 1_555 1_555
C28_2 C27_2 1_555 1_555
H13_2 C28_2 1_555 1_555
C29_2 C24_2 1_555 1_555
H14_2 C29_2 1_555 1_555
C30_2 C27_2 1_555 1_555
C32_2 H16_2 1_555 1_555
H17_2 C32_2 1_555 1_555
H18_2 C32_2 1_555 1_555
O14_2 C30_2 1_555 1_555
O15_2 C30_2 1_555 1_555
Zn6 O15_2 1_555 1_555
Zn11 O14_2 1_555 1_555
C20_2 C21_2 1_555 1_555
C28_2 C29_2 1_555 1_555
H12_3 C26_3 1_555 1_555
C27_3 C26_3 1_555 1_555
C28_3 C27_3 1_555 1_555
H13_3 C28_3 1_555 1_555
C30_3 C27_3 1_555 1_555
O23 C30_3 1_555 1_555
O24 C30_3 1_555 1_555
C17_3 H8_3 1_555 1_555
C18_3 C17_3 1_555 1_555
C19_3 C18_3 1_555 1_555
H9_3 C19_3 1_555 1_555
C20_3 C19_3 1_555 1_555
C23_3 C18_3 1_555 1_555
C24_3 C20_3 1_555 1_555
C25_3 C24_3 1_555 1_555
H11_3 C25_3 1_555 1_555
C29_3 C24_3 1_555 1_555
H14_3 C29_3 1_555 1_555
C32_3 H16_3 1_555 1_555
H17_3 C32_3 1_555 1_555
H18_3 C32_3 1_555 1_555
O21_2 C23_3 1_555 1_555
O22_2 C23_3 1_555 1_555
C20_3 C21_3 1_555 1_555
Zn5 O1_3 1_555 1_555
Zn8 O1_3 1_555 1_555
Zn10 O1_3 1_555 1_555
Zn4_2 O1_3 1_555 1_555
C1_3 C2_3 1_555 1_555
C2_3 H1_3 1_555 1_555
C7_3 C1_3 1_555 1_555
C22_3 C16_3 1_555 1_555
C31_3 H15_3 1_555 1_555
C33_3 H19_3 1_555 1_555
H20_3 C33_3 1_555 1_555
H21_3 C33_3 1_555 1_555
O2_2 Zn4_2 1_555 1_555
H22_2 O2_2 1_555 1_555
H23_2 O2_2 1_555 1_555
O3_2 Zn10 1_555 1_555
H24_2 O3_2 1_555 1_555
H25_2 O3_2 1_555 1_555
O4_3 Zn5 1_555 1_555
O5_3 Zn8 1_555 1_555
O10_3 Zn5 1_555 1_555
O11_3 Zn4_2 1_555 1_555
O16_3 Zn5 1_555 1_555
N1_3 C31_3 1_555 1_555
O19_2 Zn4_2 1_555 1_555
O20_2 Zn8 1_555 1_555
C7_3 O4_3 1_555 1_555
C7_3 O5_3 1_555 1_555
C22_3 O10_3 1_555 1_555
C22_3 O11_3 1_555 1_555
C31_3 O16_3 1_555 1_555
C33_3 N1_3 1_555 1_555
H5_3 C11_3 1_555 1_555
C12_3 C11_3 1_555 1_555
C13_3 C12_3 1_555 1_555
H6_3 C13_3 1_555 1_555
C15_3 C12_3 1_555 1_555
O8_2 C15_3 1_555 1_555
O9_2 C15_3 1_555 1_555
Zn9 O9_2 1_555 1_555
Zn12_2 O8_2 1_555 1_555
C4_3 C3_3 1_555 1_555
H2_3 C4_3 1_555 1_555
C5_3 C4_3 1_555 1_555
C8_3 C3_3 1_555 1_555
C9_3 C5_3 1_555 1_555
C10_3 C9_3 1_555 1_555
H4_3 C10_3 1_555 1_555
C14_3 C9_3 1_555 1_555
H7_3 C14_3 1_555 1_555
O17_2 C8_3 1_555 1_555
O18_2 C8_3 1_555 1_555
C5_3 C6_3 1_555 1_555
O17 C8_4 1_555 1_555
O18 C8_4 1_555 1_555
C4_4 C3_4 1_555 1_555
C5_4 C4_4 1_555 1_555
C9_4 C5_4 1_555 1_555
C10_4 C9_4 1_555 1_555
H4_4 C10_4 1_555 1_555
C11_4 C10_4 1_555 1_555
H5_4 C11_4 1_555 1_555
C12_4 C11_4 1_555 1_555
C13_4 C12_4 1_555 1_555
H6_4 C13_4 1_555 1_555
C14_4 C9_4 1_555 1_555
H7_4 C14_4 1_555 1_555
C15_4 C12_4 1_555 1_555
O19_2 C15_4 1_555 1_555
O20_2 C15_4 1_555 1_555
C5_4 C6_4 1_555 1_555
C13_4 C14_4 1_555 1_555
Zn6 O1_4 1_555 1_555
Zn9 O1_4 1_555 1_555
Zn11 O1_4 1_555 1_555
Zn12_2 O1_4 1_555 1_555
C1_4 C2_4 1_555 1_555
C2_4 H1_4 1_555 1_555
C7_4 C1_4 1_555 1_555
C16_4 C17_4 1_555 1_555
C17_4 H8_4 1_555 1_555
C18_4 C17_4 1_555 1_555
C19_4 C18_4 1_555 1_555
H9_4 C19_4 1_555 1_555
C20_4 C19_4 1_555 1_555
C21_4 C16_4 1_555 1_555
H10_4 C21_4 1_555 1_555
C22_4 C16_4 1_555 1_555
C23_4 C18_4 1_555 1_555
C24_4 C20_4 1_555 1_555
C25_4 C24_4 1_555 1_555
H11_4 C25_4 1_555 1_555
C26_4 C25_4 1_555 1_555
H12_4 C26_4 1_555 1_555
C27_4 C26_4 1_555 1_555
C28_4 C27_4 1_555 1_555
H13_4 C28_4 1_555 1_555
C29_4 C24_4 1_555 1_555
H14_4 C29_4 1_555 1_555
C30_4 C27_4 1_555 1_555
C31_4 H15_4 1_555 1_555
C32_4 H16_4 1_555 1_555
H17_4 C32_4 1_555 1_555
H18_4 C32_4 1_555 1_555
C33_4 H19_4 1_555 1_555
H20_4 C33_4 1_555 1_555
H21_4 C33_4 1_555 1_555
O2_3 Zn12_2 1_555 1_555
H22_3 O2_3 1_555 1_555
H23_3 O2_3 1_555 1_555
O3_3 Zn11 1_555 1_555
H24_3 O3_3 1_555 1_555
H25_3 O3_3 1_555 1_555
O4_4 Zn6 1_555 1_555
O5_4 Zn9 1_555 1_555
O10_4 Zn6 1_555 1_555
O11_4 Zn12_2 1_555 1_555
O21 C23_4 1_555 1_555
O22 C23_4 1_555 1_555
O23_2 C30_4 1_555 1_555
O24_2 C30_4 1_555 1_555
O16_4 Zn6 1_555 1_555
N1_4 C31_4 1_555 1_555
C7_4 O4_4 1_555 1_555
C7_4 O5_4 1_555 1_555
C20_4 C21_4 1_555 1_555
C22_4 O10_4 1_555 1_555
C22_4 O11_4 1_555 1_555
C28_4 C29_4 1_555 1_555
C31_4 O16_4 1_555 1_555
C32_4 N1_4 1_555 1_555
C33_4 N1_4 1_555 1_555
H22_4 O2_4 1_555 1_555
H23_4 O2_4 1_555 1_555
H24_4 O3_4 1_555 1_555
H25_4 O3_4 1_555 1_555

#END
