
###############################################################################
#
# This file contains modified crystal structure data generated from the
# MOF subset of the Cambridge Structural Database (CSD) v543 
# hosted by the Cambridge Crystallographic Data Centre (CCDC).
#
# This work is licensed under the Creative Commons
# Attribution-NonCommercial-ShareAlike 4.0 International License.
# To view a copy of this license, visit
# http://creativecommons.org/licenses/by-nc-sa/4.0/
# or send a letter to
# Creative Commons, PO Box 1866, Mountain View, CA 94042, USA.
#
# CIF created using the CSD Python API on 29 September 2022
# The structure has been converted into the P1 space group
# The structure has a 3D framework
# The original CSD entry DIVPUU is in the trigonal crystal system
# The original CSD entry DIVPUU is in a Sohncke space group
# The framework has been calculated to contain at least 10.0% void space
# The void calculation uses a probe of radius 1.32A, grid spacing 0.4
# The framework is charged, counterions have been retained in the structure
#
###############################################################################

data_DIVPUU
_chemical_formula_moiety         '(C24 H18 Ag3 N12 3+)n'
_symmetry_cell_setting           triclinic
_symmetry_space_group_name_H-M   'P 1'
_symmetry_Int_Tables_number      1
_space_group_name_Hall           'P 1'
loop_
_symmetry_equiv_pos_site_id
_symmetry_equiv_pos_as_xyz
1 x,y,z
_cell_length_a                   10.8161(1)
_cell_length_b                   10.8161(1)
_cell_length_c                   9.7482(1)
_cell_angle_alpha                90
_cell_angle_beta                 90
_cell_angle_gamma                120
_cell_volume                     987.635
loop_
_atom_site_label
_atom_site_type_symbol
_atom_site_fract_x
_atom_site_fract_y
_atom_site_fract_z
Ag4 Ag -0.00000(7) 0.48498(5) 0.6667
Ag2 Ag 0.48498(5) 0.00000(7) 0.3333
Ag3 Ag 0.51502(5) 0.51502(5) 0.0000
N1 N 0.5672(5) 0.6392(4) 0.2003(4)
N2 N 0.5425(6) 0.8121(6) 0.3263(4)
C1 C 0.6168(6) 0.6077(6) 0.3138(5)
H1 H 0.6430 0.5379 0.3086
C2 C 0.6301(5) 0.6748(5) 0.4369(5)
C3 C 0.5925(6) 0.7787(6) 0.4381(5)
H2 H 0.6021 0.8278 0.5194
C4 C 0.5332(7) 0.7399(7) 0.2128(5)
H3 H 0.4994 0.7627 0.1346
Ag2_2 Ag 0.48498(5) 1.00000(7) 0.3333
Ag3_2 Ag 0.51502(5) 0.51502(5) 1.0000
Ag4_2 Ag 1.00000(7) 0.48498(5) 0.6667
N3 N 0.6392(4) 0.5672(5) 0.7997(4)
N5 N 0.8121(6) 0.5425(6) 0.6737(4)
N7 N 0.4575(6) 0.2696(8) 0.0070(4)
C5 C 0.6077(6) 0.6168(6) 0.6862(5)
H4 H 0.5379 0.6430 0.6914
C6 C 0.6748(5) 0.6301(5) 0.5631(5)
C7 C 0.7787(6) 0.5925(6) 0.5619(5)
H5 H 0.8278 0.6021 0.4806
C8 C 0.7399(7) 0.5332(7) 0.7872(5)
H6 H 0.7627 0.4994 0.8654
N6 N 0.2696(8) 0.4575(6) 0.9930(4)
N3_2 N 0.4328(5) 0.0720(6) 0.1330(4)
C8_2 C 0.4668(7) 0.2067(10) 0.1205(5)
H6_2 H 0.5006 0.2633 0.1987
C1_2 C 0.3923(6) 0.0091(8) 0.6471(5)
H1_2 H 0.4621 0.1051 0.6419
N7_2 N 0.7304(8) 0.1879(10) 0.3404(4)
C6_2 C 0.3699(5) 0.0447(7) 0.8964(5)
C7_2 C 0.4075(6) 0.1862(8) 0.8952(5)
H5_2 H 0.3979 0.2257 0.8139
C5_2 C 0.3832(6) 0.9909(8) 0.0195(5)
H4_2 H 0.3570 0.8949 0.0247
N1_2 N 0.3608(4) 0.9280(6) 0.5336(4)
N2_2 N 0.1879(6) 0.7304(8) 0.6596(4)
C2_2 C 0.3252(5) 0.9553(7) 0.7702(5)
C3_2 C 0.2213(6) 0.8138(8) 0.7714(5)
H2_2 H 0.1722 0.7743 0.8527
C4_2 C 0.2601(7) 0.7933(10) 0.5461(5)
H3_2 H 0.2373 0.7367 0.4679
C2_3 C 0.0447(7) 0.3699(5) 0.1036(5)
C3_3 C 0.1862(8) 0.4075(6) 0.1048(5)
H2_3 H 0.2257 0.3979 0.1861
C5_3 C 0.0091(8) 0.3923(6) 0.3529(5)
H4_3 H 0.1051 0.4621 0.3581
N1_3 N 0.0720(6) 0.4328(5) 0.8670(4)
C4_3 C 0.2067(10) 0.4668(7) 0.8795(5)
H3_3 H 0.2633 0.5006 0.8013
N3_3 N 0.9280(6) 0.3608(4) 0.4664(4)
C6_3 C 0.9553(7) 0.3252(5) 0.2298(5)
C7_3 C 0.8138(8) 0.2213(6) 0.2286(5)
H5_3 H 0.7743 0.1722 0.1473
C8_3 C 0.7933(10) 0.2601(7) 0.4539(5)
H6_3 H 0.7367 0.2373 0.5321
C1_3 C 0.9909(8) 0.3832(6) 0.9805(5)
H1_3 H 0.8949 0.3570 0.9753
loop_
_geom_bond_atom_site_label_1
_geom_bond_atom_site_label_2
_geom_bond_site_symmetry_1
_geom_bond_site_symmetry_2
Ag3 N1 1_555 1_555
N1 C1 1_555 1_555
N2 C3 1_555 1_555
C1 H1 1_555 1_555
C2 C1 1_555 1_555
C3 C2 1_555 1_555
H2 C3 1_555 1_555
C4 N1 1_555 1_555
H3 C4 1_555 1_555
Ag2_2 N2 1_555 1_555
Ag3_2 N3 1_555 1_555
Ag4_2 N5 1_555 1_555
N3 C5 1_555 1_555
N5 C7 1_555 1_555
N7 Ag3 1_555 1_555
C5 H4 1_555 1_555
C6 C2 1_555 1_555
C7 C6 1_555 1_555
H5 C7 1_555 1_555
C8 N3 1_555 1_555
H6 C8 1_555 1_555
N2 C4 1_555 1_555
N5 C8 1_555 1_555
C5 C6 1_555 1_555
N6 Ag3_2 1_555 1_555
Ag2 N3_2 1_555 1_555
C8_2 N3_2 1_555 1_555
H6_2 C8_2 1_555 1_555
N7 C8_2 1_555 1_555
C1_2 H1_2 1_555 1_555
N7_2 Ag2 1_555 1_555
C7_2 C6_2 1_555 1_555
H5_2 C7_2 1_555 1_555
C5_2 H4_2 1_555 1_555
Ag2_2 N1_2 1_555 1_555
N2_2 C3_2 1_555 1_555
C3_2 C2_2 1_555 1_555
H2_2 C3_2 1_555 1_555
C4_2 N1_2 1_555 1_555
H3_2 C4_2 1_555 1_555
Ag4 N2_2 1_555 1_555
N2_2 C4_2 1_555 1_555
C3_3 C2_3 1_555 1_555
H2_3 C3_3 1_555 1_555
C5_3 H4_3 1_555 1_555
Ag4 N1_3 1_555 1_555
C4_3 N1_3 1_555 1_555
H3_3 C4_3 1_555 1_555
N6 C4_3 1_555 1_555
Ag4_2 N3_3 1_555 1_555
N7_2 C7_3 1_555 1_555
C7_3 C6_3 1_555 1_555
H5_3 C7_3 1_555 1_555
C8_3 N3_3 1_555 1_555
H6_3 C8_3 1_555 1_555
N7_2 C8_3 1_555 1_555
C1_3 H1_3 1_555 1_555

#END
