
###############################################################################
#
# This file contains modified crystal structure data generated from the
# MOF subset of the Cambridge Structural Database (CSD) v543 
# hosted by the Cambridge Crystallographic Data Centre (CCDC).
#
# This work is licensed under the Creative Commons
# Attribution-NonCommercial-ShareAlike 4.0 International License.
# To view a copy of this license, visit
# http://creativecommons.org/licenses/by-nc-sa/4.0/
# or send a letter to
# Creative Commons, PO Box 1866, Mountain View, CA 94042, USA.
#
# CIF created using the CSD Python API on 29 September 2022
# The structure has been converted into the P1 space group
# The structure has a 3D framework
# The original CSD entry DIVRUY is in the orthorhombic crystal system
# The framework has been calculated to contain at least 10.0% void space
# The void calculation uses a probe of radius 1.32A, grid spacing 0.4
# The framework is charged, counterions have been retained in the structure
# H atom positions have been added when not included in the experimental data
#
###############################################################################

data_DIVRUY
_chemical_formula_moiety         '(C672 H640 Cu48 N96 Ni24 O288 32-)n'
_symmetry_cell_setting           triclinic
_symmetry_space_group_name_H-M   'P 1'
_symmetry_Int_Tables_number      1
_space_group_name_Hall           'P 1'
loop_
_symmetry_equiv_pos_site_id
_symmetry_equiv_pos_as_xyz
1 x,y,z
_cell_length_a                   49.1249(7)
_cell_length_b                   51.6079(5)
_cell_length_c                   15.06370(10)
_cell_angle_alpha                90
_cell_angle_beta                 90
_cell_angle_gamma                90
_cell_volume                     38190
loop_
_atom_site_label
_atom_site_type_symbol
_atom_site_fract_x
_atom_site_fract_y
_atom_site_fract_z
Cu1 Cu 0.5000 0.72158(3) 0.23377(8)
Cu2 Cu 0.67517(2) 0.65756(2) 0.26911(6)
Cu3 Cu 0.75586(4) 0.5000 0.23318(7)
Cu4 Cu 0.83534(3) 0.67822(2) 0.26973(6)
Ni1 Ni 0.76489(3) 0.60118(2) 0.24763(5)
Ni2 Ni 0.60623(2) 0.73580(2) 0.24372(6)
N1 N 0.53217(13) 0.71135(12) 0.1621(3)
N2 N 0.64406(14) 0.67076(14) 0.3381(4)
N3 N 0.69174(18) 0.62820(13) 0.3363(4)
N4 N 0.74428(14) 0.52997(12) 0.1618(3)
N5 N 0.80702(14) 0.66212(12) 0.3389(3)
N6 N 0.84256(16) 0.71072(13) 0.3371(4)
O1 O 0.52700(13) 0.74115(11) 0.3047(4)
O2 O 0.57190(12) 0.74843(11) 0.3087(3)
O3 O 0.57922(12) 0.71888(11) 0.1603(3)
O4 O 0.61001(13) 0.70255(11) 0.3195(3)
O5 O 0.63813(12) 0.72096(12) 0.1796(3)
O6 O 0.66753(16) 0.68954(14) 0.1983(4)
O7 O 0.70890(14) 0.65484(12) 0.1978(3)
O8 O 0.74587(13) 0.63037(11) 0.1820(3)
O9 O 0.72894(13) 0.60030(11) 0.3203(3)
O10 O 0.75236(11) 0.57419(10) 0.1605(3)
O11 O 0.78080(13) 0.56935(11) 0.3093(3)
O12 O 0.77547(13) 0.52575(10) 0.3044(3)
O13 O 0.80178(13) 0.61238(11) 0.1819(3)
O14 O 0.77927(14) 0.62575(12) 0.3366(3)
O15 O 0.82890(13) 0.64804(12) 0.1870(3)
O16 O 0.86097(16) 0.69484(13) 0.1824(3)
O17 O 0.88831(16) 0.72835(15) 0.1765(4)
O18 O 0.87012(13) 0.74685(11) 0.3317(3)
C1 C 0.55353(16) 0.72127(18) 0.1939(5)
C2 C 0.5511(3) 0.73824(17) 0.2750(5)
C3 C 0.53391(13) 0.69848(14) 0.0806(4)
C4 C 0.53481(15) 0.67232(19) 0.0819(4)
C5 C 0.5368(2) 0.6580(2) 0.0000
H1 H 0.5393 0.6397 0.0000
C6 C 0.5343(2) 0.71120(18) 0.0000
C7 C 0.5364(2) 0.65731(18) 0.1686(5)
H2 H 0.5472 0.6671 0.2117
H3 H 0.5451 0.6405 0.1579
H4 H 0.5180 0.6546 0.1921
C8 C 0.5330(3) 0.7403(3) 0.0000
C9 C 0.6317(2) 0.69151(19) 0.2983(4)
C10 C 0.6475(2) 0.70113(19) 0.2187(6)
C11 C 0.63217(15) 0.66191(13) 0.4208(4)
C12 C 0.61176(17) 0.64341(15) 0.4185(4)
C13 C 0.6011(2) 0.6338(2) 0.5000
H5 H 0.5871 0.6211 0.5000
C14 C 0.59986(18) 0.63361(18) 0.3318(4)
H6 H 0.5858 0.6456 0.3112
H7 H 0.5918 0.6164 0.3411
H8 H 0.6143 0.6324 0.2871
C15 C 0.6421(2) 0.67158(18) 0.5000
C16 C 0.6635(2) 0.6928(2) 0.5000
C17 C 0.7149(2) 0.61930(19) 0.3001(4)
C18 C 0.7230(2) 0.63727(17) 0.2183(5)
C19 C 0.6930(3) 0.6264(2) 0.5000
C20 C 0.68296(16) 0.61696(12) 0.4199(4)
C21 C 0.66574(14) 0.59725(14) 0.4189(4)
C22 C 0.6563(3) 0.5862(2) 0.5000
H9 H 0.6440 0.5720 0.5000
C23 C 0.6542(2) 0.58567(16) 0.3328(4)
H10 H 0.6467 0.5996 0.2959
H11 H 0.6397 0.5733 0.3473
H12 H 0.6687 0.5768 0.3004
C24 C 0.7136(3) 0.6479(2) 0.5000
C25 C 0.7545(2) 0.55189(14) 0.1927(4)
C26 C 0.7718(2) 0.54901(18) 0.2761(4)
C27 C 0.7300(2) 0.53209(12) 0.0802(4)
C28 C 0.7026(2) 0.53334(17) 0.0813(4)
C29 C 0.6881(3) 0.5357(3) 0.1731(7)
H13 H 0.6890 0.5191 0.2042
H14 H 0.6690 0.5405 0.1639
H15 H 0.6971 0.5491 0.2088
C30 C 0.6875(4) 0.5358(4) 0.0000
H16 H 0.6685 0.5389 0.0000
C31 C 0.7457(3) 0.53081(19) 0.0000
C32 C 0.7768(3) 0.5292(3) 0.0000
C33 C 0.81037(16) 0.63273(18) 0.2170(5)
C34 C 0.79725(17) 0.64112(16) 0.3061(4)
C35 C 0.8044(2) 0.6613(2) 0.5000
C36 C 0.79455(18) 0.66959(17) 0.4262(5)
C37 C 0.7738(2) 0.6857(2) 0.4195(4)
C38 C 0.7636(3) 0.6941(3) 0.5000
H17 H 0.7490 0.7061 0.5000
C39 C 0.8276(2) 0.6414(3) 0.5000
C40 C 0.7604(3) 0.6946(2) 0.3322(6)
H18 H 0.7745 0.6990 0.2888
H19 H 0.7491 0.7099 0.3435
H20 H 0.7490 0.6806 0.3086
C41 C 0.87071(18) 0.71501(17) 0.2115(5)
C42 C 0.86078(19) 0.7253(2) 0.3031(5)
C43 C 0.8405(2) 0.7116(2) 0.5000
C44 C 0.8306(2) 0.72145(18) 0.4201(4)
C45 C 0.81012(19) 0.74026(18) 0.4189(4)
C46 C 0.8006(2) 0.7491(2) 0.5000
H21 H 0.7867 0.7619 0.5000
C47 C 0.8639(3) 0.6927(2) 0.5000
C48 C 0.8000(2) 0.75243(17) 0.3302(6)
H22 H 0.7827 0.7614 0.3403
H23 H 0.7975 0.7387 0.2859
H24 H 0.8136 0.7649 0.3085
N8 N 0.64406(14) 0.67076(14) 0.6619(4)
O22 O 0.61001(13) 0.70255(11) 0.6805(3)
O23 O 0.63813(12) 0.72096(12) 0.8204(3)
O24 O 0.66753(16) 0.68954(14) 0.8017(4)
C54 C 0.6317(2) 0.69151(19) 0.7017(4)
C55 C 0.6475(2) 0.70113(19) 0.7813(6)
C56 C 0.63217(15) 0.66191(13) 0.5792(4)
C57 C 0.61176(17) 0.64341(15) 0.5815(4)
C58 C 0.59986(18) 0.63361(18) 0.6682(4)
H28 H 0.5858 0.6456 0.6888
H29 H 0.5918 0.6164 0.6589
H30 H 0.6143 0.6324 0.7129
N9 N 0.69174(18) 0.62820(13) 0.6637(4)
O25 O 0.70890(14) 0.65484(12) 0.8022(3)
O26 O 0.74587(13) 0.63037(11) 0.8180(3)
O27 O 0.72894(13) 0.60030(11) 0.6797(3)
C59 C 0.7149(2) 0.61930(19) 0.6999(4)
C60 C 0.7230(2) 0.63727(17) 0.7817(5)
C61 C 0.68296(16) 0.61696(12) 0.5801(4)
C62 C 0.66574(14) 0.59725(14) 0.5811(4)
C63 C 0.6542(2) 0.58567(16) 0.6672(4)
H31 H 0.6467 0.5996 0.7041
H32 H 0.6397 0.5733 0.6527
H33 H 0.6687 0.5768 0.6996
N11 N 0.80702(14) 0.66212(12) 0.6611(3)
O31 O 0.80178(13) 0.61238(11) 0.8181(3)
O32 O 0.77927(14) 0.62575(12) 0.6634(3)
O33 O 0.82890(13) 0.64804(12) 0.8130(3)
C69 C 0.81037(16) 0.63273(18) 0.7830(5)
C70 C 0.79725(17) 0.64112(16) 0.6939(4)
C71 C 0.79455(18) 0.66959(17) 0.5738(5)
C72 C 0.7738(2) 0.6857(2) 0.5805(4)
C73 C 0.7604(3) 0.6946(2) 0.6678(6)
H37 H 0.7745 0.6990 0.7112
H38 H 0.7491 0.7099 0.6565
H39 H 0.7490 0.6806 0.6914
N12 N 0.84256(16) 0.71072(13) 0.6629(4)
O34 O 0.86097(16) 0.69484(13) 0.8176(3)
O35 O 0.88831(16) 0.72835(15) 0.8235(4)
O36 O 0.87012(13) 0.74685(11) 0.6683(3)
C74 C 0.87071(18) 0.71501(17) 0.7885(5)
C75 C 0.86078(19) 0.7253(2) 0.6969(5)
C76 C 0.8306(2) 0.72145(18) 0.5799(4)
C77 C 0.81012(19) 0.74026(18) 0.5811(4)
C78 C 0.8000(2) 0.75243(17) 0.6698(6)
H40 H 0.7827 0.7614 0.6597
H41 H 0.7975 0.7387 0.7141
H42 H 0.8136 0.7649 0.6915
Cu5 Cu 0.67517(2) 0.65756(2) 0.73089(6)
Cu6 Cu 0.83534(3) 0.67822(2) 0.73027(6)
Ni3 Ni 0.76489(3) 0.60118(2) 0.75237(5)
Ni4 Ni 0.89377(2) 0.76420(2) 0.24372(6)
Ni7 Ni 0.60623(2) 0.73580(2) 0.75628(6)
Ni8 Ni 0.89377(2) 0.76420(2) 0.75628(6)
N13 N 0.46783(13) 0.71135(12) 0.1621(3)
N14 N 0.74428(14) 0.47003(12) 0.1618(3)
O37 O 0.47300(13) 0.74115(11) 0.3047(4)
O38 O 0.92810(12) 0.75157(11) 0.3087(3)
O39 O 0.92078(12) 0.78112(11) 0.1603(3)
O40 O 0.88999(13) 0.79745(11) 0.3195(3)
O41 O 0.86187(12) 0.77904(12) 0.1796(3)
O42 O 0.75236(11) 0.57419(10) 0.8395(3)
O43 O 0.78080(13) 0.56935(11) 0.6907(3)
O44 O 0.77547(13) 0.47425(10) 0.3044(3)
O45 O 0.61169(16) 0.77165(15) 0.1765(4)
O46 O 0.62988(13) 0.75315(11) 0.3317(3)
H43 H 0.550352 0.748043 0.0363385
H45 H 0.514212 0.74658 0.0317689
H46 H 0.65552 0.709842 0.466233
H47 H 0.668697 0.697801 0.568158
H48 H 0.681635 0.685979 0.465609
H49 H 0.881633 0.701721 0.469554
H50 H 0.868716 0.687231 0.568034
H51 H 0.858254 0.675495 0.462412
H52 H 0.704981 0.664903 0.467702
H53 H 0.719041 0.652696 0.568128
H54 H 0.731716 0.641693 0.46417
H55 H 0.783207 0.511816 0.0352486
H57 H 0.785172 0.546216 0.0328963
H58 H 0.845167 0.64945 0.465598
H59 H 0.833166 0.636772 0.568157
H60 H 0.820935 0.623852 0.466245
C5_2 C 0.5368(2) 0.6580(2) 1.0000
H1_2 H 0.5393 0.6397 1.0000
C6_2 C 0.5343(2) 0.71120(18) 1.0000
C8_2 C 0.5330(3) 0.7403(3) 1.0000
C30_2 C 0.6875(4) 0.5358(4) 1.0000
H16_2 H 0.6685 0.5389 1.0000
C31_2 C 0.7457(3) 0.53081(19) 1.0000
C32_2 C 0.7768(3) 0.5292(3) 1.0000
N7 N 0.53217(13) 0.71135(12) 0.8379(3)
O19 O 0.52700(13) 0.74115(11) 0.6953(4)
O20 O 0.57190(12) 0.74843(11) 0.6913(3)
O21 O 0.57922(12) 0.71888(11) 0.8397(3)
C49 C 0.55353(16) 0.72127(18) 0.8061(5)
C50 C 0.5511(3) 0.73824(17) 0.7250(5)
C51 C 0.53391(13) 0.69848(14) 0.9194(4)
C52 C 0.53481(15) 0.67232(19) 0.9181(4)
C53 C 0.5364(2) 0.65731(18) 0.8314(5)
H25 H 0.5472 0.6671 0.7883
H26 H 0.5451 0.6405 0.8421
H27 H 0.5180 0.6546 0.8079
N10 N 0.74428(14) 0.52997(12) 0.8382(3)
O30 O 0.77547(13) 0.52575(10) 0.6956(3)
C64 C 0.7545(2) 0.55189(14) 0.8073(4)
C65 C 0.7718(2) 0.54901(18) 0.7239(4)
C66 C 0.7300(2) 0.53209(12) 0.9198(4)
C67 C 0.7026(2) 0.53334(17) 0.9187(4)
C68 C 0.6881(3) 0.5357(3) 0.8269(7)
H34 H 0.6890 0.5191 0.7958
H35 H 0.6690 0.5405 0.8361
H36 H 0.6971 0.5491 0.7912
Cu7 Cu 0.5000 0.72158(3) 0.76623(8)
Cu8 Cu 0.75586(4) 0.5000 0.76682(7)
H44 H 0.533494 0.74736 0.931893
H56 H 0.784156 0.528422 0.931855
C5_3 C 0.5368(2) 0.3420(2) 0.0000
H1_3 H 0.5393 0.3603 0.0000
C6_3 C 0.5343(2) 0.28880(18) 0.0000
C8_3 C 0.5330(3) 0.2597(3) 0.0000
C30_3 C 0.6875(4) 0.4642(4) 0.0000
H16_3 H 0.6685 0.4611 0.0000
C31_3 C 0.7457(3) 0.46919(19) 0.0000
C32_3 C 0.7768(3) 0.4708(3) 0.0000
N7_2 N 0.53217(13) 0.28865(12) 0.1621(3)
O19_2 O 0.52700(13) 0.25885(11) 0.3047(4)
O20_2 O 0.57190(12) 0.25157(11) 0.3087(3)
O21_2 O 0.57922(12) 0.28112(11) 0.1603(3)
C49_2 C 0.55353(16) 0.27873(18) 0.1939(5)
C50_2 C 0.5511(3) 0.26176(17) 0.2750(5)
C51_2 C 0.53391(13) 0.30152(14) 0.0806(4)
C52_2 C 0.53481(15) 0.32768(19) 0.0819(4)
C53_2 C 0.5364(2) 0.34269(18) 0.1686(5)
H25_2 H 0.5472 0.3329 0.2117
H26_2 H 0.5451 0.3595 0.1579
H27_2 H 0.5180 0.3454 0.1921
O28 O 0.75236(11) 0.42581(10) 0.1605(3)
O29 O 0.78080(13) 0.43065(11) 0.3093(3)
C64_2 C 0.7545(2) 0.44811(14) 0.1927(4)
C65_2 C 0.7718(2) 0.45099(18) 0.2761(4)
C66_2 C 0.7300(2) 0.46791(12) 0.0802(4)
C67_2 C 0.7026(2) 0.46666(17) 0.0813(4)
C68_2 C 0.6881(3) 0.4643(3) 0.1731(7)
H34_2 H 0.6890 0.4809 0.2042
H35_2 H 0.6690 0.4595 0.1639
H36_2 H 0.6971 0.4509 0.2088
Cu7_2 Cu 0.5000 0.27842(3) 0.23377(8)
Ni5 Ni 0.76489(3) 0.39882(2) 0.24763(5)
Ni6 Ni 0.60623(2) 0.26420(2) 0.24372(6)
H44_2 H 0.533494 0.25264 0.0681074
H56_2 H 0.784156 0.471578 0.068145
Cu1_2 Cu 0.5000 0.27842(3) 0.76623(8)
Cu2_2 Cu 0.67517(2) 0.34244(2) 0.73089(6)
Cu4_2 Cu 0.83534(3) 0.32178(2) 0.73027(6)
Ni1_2 Ni 0.76489(3) 0.39882(2) 0.75237(5)
Ni2_2 Ni 0.60623(2) 0.26420(2) 0.75628(6)
N1_2 N 0.53217(13) 0.28865(12) 0.8379(3)
N2_2 N 0.64406(14) 0.32924(14) 0.6619(4)
N3_2 N 0.69174(18) 0.37180(13) 0.6637(4)
N4_2 N 0.74428(14) 0.47003(12) 0.8382(3)
N5_2 N 0.80702(14) 0.33788(12) 0.6611(3)
N6_2 N 0.84256(16) 0.28928(13) 0.6629(4)
O1_2 O 0.52700(13) 0.25885(11) 0.6953(4)
O2_2 O 0.57190(12) 0.25157(11) 0.6913(3)
O3_2 O 0.57922(12) 0.28112(11) 0.8397(3)
O4_2 O 0.61001(13) 0.29745(11) 0.6805(3)
O5_2 O 0.63813(12) 0.27904(12) 0.8204(3)
O6_2 O 0.66753(16) 0.31046(14) 0.8017(4)
O7_2 O 0.70890(14) 0.34516(12) 0.8022(3)
O8_2 O 0.74587(13) 0.36963(11) 0.8180(3)
O9_2 O 0.72894(13) 0.39970(11) 0.6797(3)
O10_2 O 0.75236(11) 0.42581(10) 0.8395(3)
O11_2 O 0.78080(13) 0.43065(11) 0.6907(3)
O12_2 O 0.77547(13) 0.47425(10) 0.6956(3)
O13_2 O 0.80178(13) 0.38762(11) 0.8181(3)
O14_2 O 0.77927(14) 0.37425(12) 0.6634(3)
O15_2 O 0.82890(13) 0.35196(12) 0.8130(3)
O16_2 O 0.86097(16) 0.30516(13) 0.8176(3)
O17_2 O 0.88831(16) 0.27165(15) 0.8235(4)
O18_2 O 0.87012(13) 0.25315(11) 0.6683(3)
C1_2 C 0.55353(16) 0.27873(18) 0.8061(5)
C2_2 C 0.5511(3) 0.26176(17) 0.7250(5)
C3_2 C 0.53391(13) 0.30152(14) 0.9194(4)
C4_2 C 0.53481(15) 0.32768(19) 0.9181(4)
C5_4 C 0.5368(2) 0.3420(2) 1.0000
H1_4 H 0.5393 0.3603 1.0000
C6_4 C 0.5343(2) 0.28880(18) 1.0000
C7_2 C 0.5364(2) 0.34269(18) 0.8314(5)
H2_2 H 0.5472 0.3329 0.7883
H3_2 H 0.5451 0.3595 0.8421
H4_2 H 0.5180 0.3454 0.8079
C8_4 C 0.5330(3) 0.2597(3) 1.0000
C9_2 C 0.6317(2) 0.30849(19) 0.7017(4)
C10_2 C 0.6475(2) 0.29887(19) 0.7813(6)
C11_2 C 0.63217(15) 0.33809(13) 0.5792(4)
C12_2 C 0.61176(17) 0.35659(15) 0.5815(4)
C13_2 C 0.6011(2) 0.3662(2) 0.5000
H5_2 H 0.5871 0.3789 0.5000
C14_2 C 0.59986(18) 0.36639(18) 0.6682(4)
H6_2 H 0.5858 0.3544 0.6888
H7_2 H 0.5918 0.3836 0.6589
H8_2 H 0.6143 0.3676 0.7129
C15_2 C 0.6421(2) 0.32842(18) 0.5000
C16_2 C 0.6635(2) 0.3072(2) 0.5000
C17_2 C 0.7149(2) 0.38070(19) 0.6999(4)
C18_2 C 0.7230(2) 0.36273(17) 0.7817(5)
C19_2 C 0.6930(3) 0.3736(2) 0.5000
C20_2 C 0.68296(16) 0.38304(12) 0.5801(4)
C21_2 C 0.66574(14) 0.40275(14) 0.5811(4)
C22_2 C 0.6563(3) 0.4138(2) 0.5000
H9_2 H 0.6440 0.4280 0.5000
C23_2 C 0.6542(2) 0.41433(16) 0.6672(4)
H10_2 H 0.6467 0.4004 0.7041
H11_2 H 0.6397 0.4267 0.6527
H12_2 H 0.6687 0.4232 0.6996
C24_2 C 0.7136(3) 0.3521(2) 0.5000
C25_2 C 0.7545(2) 0.44811(14) 0.8073(4)
C26_2 C 0.7718(2) 0.45099(18) 0.7239(4)
C27_2 C 0.7300(2) 0.46791(12) 0.9198(4)
C28_2 C 0.7026(2) 0.46666(17) 0.9187(4)
C29_2 C 0.6881(3) 0.4643(3) 0.8269(7)
H13_2 H 0.6890 0.4809 0.7958
H14_2 H 0.6690 0.4595 0.8361
H15_2 H 0.6971 0.4509 0.7912
C30_4 C 0.6875(4) 0.4642(4) 1.0000
H16_4 H 0.6685 0.4611 1.0000
C31_4 C 0.7457(3) 0.46919(19) 1.0000
C32_4 C 0.7768(3) 0.4708(3) 1.0000
C33_2 C 0.81037(16) 0.36727(18) 0.7830(5)
C34_2 C 0.79725(17) 0.35888(16) 0.6939(4)
C35_2 C 0.8044(2) 0.3387(2) 0.5000
C36_2 C 0.79455(18) 0.33041(17) 0.5738(5)
C37_2 C 0.7738(2) 0.3143(2) 0.5805(4)
C38_2 C 0.7636(3) 0.3059(3) 0.5000
H17_2 H 0.7490 0.2939 0.5000
C39_2 C 0.8276(2) 0.3586(3) 0.5000
C40_2 C 0.7604(3) 0.3054(2) 0.6678(6)
H18_2 H 0.7745 0.3010 0.7112
H19_2 H 0.7491 0.2901 0.6565
H20_2 H 0.7490 0.3194 0.6914
C41_2 C 0.87071(18) 0.28499(17) 0.7885(5)
C42_2 C 0.86078(19) 0.2747(2) 0.6969(5)
C43_2 C 0.8405(2) 0.2884(2) 0.5000
C44_2 C 0.8306(2) 0.27855(18) 0.5799(4)
C45_2 C 0.81012(19) 0.25974(18) 0.5811(4)
C46_2 C 0.8006(2) 0.2509(2) 0.5000
H21_2 H 0.7867 0.2381 0.5000
C47_2 C 0.8639(3) 0.3073(2) 0.5000
C48_2 C 0.8000(2) 0.24757(17) 0.6698(6)
H22_2 H 0.7827 0.2386 0.6597
H23_2 H 0.7975 0.2613 0.7141
H24_2 H 0.8136 0.2351 0.6915
N8_2 N 0.64406(14) 0.32924(14) 0.3381(4)
O22_2 O 0.61001(13) 0.29745(11) 0.3195(3)
O23_2 O 0.63813(12) 0.27904(12) 0.1796(3)
O24_2 O 0.66753(16) 0.31046(14) 0.1983(4)
C54_2 C 0.6317(2) 0.30849(19) 0.2983(4)
C55_2 C 0.6475(2) 0.29887(19) 0.2187(6)
C56_2 C 0.63217(15) 0.33809(13) 0.4208(4)
C57_2 C 0.61176(17) 0.35659(15) 0.4185(4)
C58_2 C 0.59986(18) 0.36639(18) 0.3318(4)
H28_2 H 0.5858 0.3544 0.3112
H29_2 H 0.5918 0.3836 0.3411
H30_2 H 0.6143 0.3676 0.2871
N9_2 N 0.69174(18) 0.37180(13) 0.3363(4)
O25_2 O 0.70890(14) 0.34516(12) 0.1978(3)
O26_2 O 0.74587(13) 0.36963(11) 0.1820(3)
O27_2 O 0.72894(13) 0.39970(11) 0.3203(3)
C59_2 C 0.7149(2) 0.38070(19) 0.3001(4)
C60_2 C 0.7230(2) 0.36273(17) 0.2183(5)
C61_2 C 0.68296(16) 0.38304(12) 0.4199(4)
C62_2 C 0.66574(14) 0.40275(14) 0.4189(4)
C63_2 C 0.6542(2) 0.41433(16) 0.3328(4)
H31_2 H 0.6467 0.4004 0.2959
H32_2 H 0.6397 0.4267 0.3473
H33_2 H 0.6687 0.4232 0.3004
N11_2 N 0.80702(14) 0.33788(12) 0.3389(3)
O31_2 O 0.80178(13) 0.38762(11) 0.1819(3)
O32_2 O 0.77927(14) 0.37425(12) 0.3366(3)
O33_2 O 0.82890(13) 0.35196(12) 0.1870(3)
C69_2 C 0.81037(16) 0.36727(18) 0.2170(5)
C70_2 C 0.79725(17) 0.35888(16) 0.3061(4)
C71_2 C 0.79455(18) 0.33041(17) 0.4262(5)
C72_2 C 0.7738(2) 0.3143(2) 0.4195(4)
C73_2 C 0.7604(3) 0.3054(2) 0.3322(6)
H37_2 H 0.7745 0.3010 0.2888
H38_2 H 0.7491 0.2901 0.3435
H39_2 H 0.7490 0.3194 0.3086
N12_2 N 0.84256(16) 0.28928(13) 0.3371(4)
O34_2 O 0.86097(16) 0.30516(13) 0.1824(3)
O35_2 O 0.88831(16) 0.27165(15) 0.1765(4)
O36_2 O 0.87012(13) 0.25315(11) 0.3317(3)
C74_2 C 0.87071(18) 0.28499(17) 0.2115(5)
C75_2 C 0.86078(19) 0.2747(2) 0.3031(5)
C76_2 C 0.8306(2) 0.27855(18) 0.4201(4)
C77_2 C 0.81012(19) 0.25974(18) 0.4189(4)
C78_2 C 0.8000(2) 0.24757(17) 0.3302(6)
H40_2 H 0.7827 0.2386 0.3403
H41_2 H 0.7975 0.2613 0.2859
H42_2 H 0.8136 0.2351 0.3085
Cu5_2 Cu 0.67517(2) 0.34244(2) 0.26911(6)
Cu6_2 Cu 0.83534(3) 0.32178(2) 0.26973(6)
Ni4_2 Ni 0.89377(2) 0.23580(2) 0.75628(6)
Ni8_2 Ni 0.89377(2) 0.23580(2) 0.24372(6)
N13_2 N 0.46783(13) 0.28865(12) 0.8379(3)
O37_2 O 0.47300(13) 0.25885(11) 0.6953(4)
O38_2 O 0.92810(12) 0.24843(11) 0.6913(3)
O39_2 O 0.92078(12) 0.21888(11) 0.8397(3)
O40_2 O 0.88999(13) 0.20255(11) 0.6805(3)
O41_2 O 0.86187(12) 0.22096(12) 0.8204(3)
O45_2 O 0.61169(16) 0.22835(15) 0.8235(4)
O46_2 O 0.62988(13) 0.24685(11) 0.6683(3)
H43_2 H 0.550352 0.251957 0.963662
H45_2 H 0.514212 0.25342 0.968231
H46_2 H 0.65552 0.290158 0.533767
H47_2 H 0.668697 0.302199 0.431842
H48_2 H 0.681635 0.314021 0.534391
H49_2 H 0.881633 0.298279 0.530446
H50_2 H 0.868716 0.312769 0.431966
H51_2 H 0.858254 0.324505 0.537588
H52_2 H 0.704981 0.335097 0.532298
H53_2 H 0.719041 0.347304 0.431872
H54_2 H 0.731716 0.358307 0.53583
H55_2 H 0.783207 0.488184 0.964751
H57_2 H 0.785172 0.453784 0.967104
H58_2 H 0.845167 0.35055 0.534402
H59_2 H 0.833166 0.363228 0.431843
H60_2 H 0.820935 0.376148 0.533755
C5_5 C 0.4632(2) 0.6580(2) 0.0000
H1_5 H 0.4607 0.6397 0.0000
C6_5 C 0.4657(2) 0.71120(18) 0.0000
C8_5 C 0.4670(3) 0.7403(3) 0.0000
C30_5 C 0.3125(4) 0.5358(4) 0.0000
H16_5 H 0.3315 0.5389 0.0000
C31_5 C 0.2543(3) 0.53081(19) 0.0000
C32_5 C 0.2232(3) 0.5292(3) 0.0000
O20_3 O 0.42810(12) 0.74843(11) 0.3087(3)
O21_3 O 0.42078(12) 0.71888(11) 0.1603(3)
C49_3 C 0.44647(16) 0.72127(18) 0.1939(5)
C50_3 C 0.4489(3) 0.73824(17) 0.2750(5)
C51_3 C 0.46609(13) 0.69848(14) 0.0806(4)
C52_3 C 0.46519(15) 0.67232(19) 0.0819(4)
C53_3 C 0.4636(2) 0.65731(18) 0.1686(5)
H25_3 H 0.4528 0.6671 0.2117
H26_3 H 0.4549 0.6405 0.1579
H27_3 H 0.4820 0.6546 0.1921
N10_2 N 0.25572(14) 0.52997(12) 0.1618(3)
O28_2 O 0.24764(11) 0.57419(10) 0.1605(3)
O29_2 O 0.21920(13) 0.56935(11) 0.3093(3)
O30_2 O 0.22453(13) 0.52575(10) 0.3044(3)
C64_3 C 0.2455(2) 0.55189(14) 0.1927(4)
C65_3 C 0.2282(2) 0.54901(18) 0.2761(4)
C66_3 C 0.2700(2) 0.53209(12) 0.0802(4)
C67_3 C 0.2974(2) 0.53334(17) 0.0813(4)
C68_3 C 0.3119(3) 0.5357(3) 0.1731(7)
H34_3 H 0.3110 0.5191 0.2042
H35_3 H 0.3310 0.5405 0.1639
H36_3 H 0.3029 0.5491 0.2088
Cu8_2 Cu 0.24414(4) 0.5000 0.23318(7)
Ni5_2 Ni 0.23511(3) 0.60118(2) 0.24763(5)
Ni6_2 Ni 0.39377(2) 0.73580(2) 0.24372(6)
H44_3 H 0.466506 0.74736 0.0681074
H56_3 H 0.215844 0.528422 0.068145
Cu2_3 Cu 0.32483(2) 0.65756(2) 0.73089(6)
Cu3_2 Cu 0.24414(4) 0.5000 0.76682(7)
Cu4_3 Cu 0.16466(3) 0.67822(2) 0.73027(6)
Ni1_3 Ni 0.23511(3) 0.60118(2) 0.75237(5)
Ni2_3 Ni 0.39377(2) 0.73580(2) 0.75628(6)
N1_3 N 0.46783(13) 0.71135(12) 0.8379(3)
N2_3 N 0.35594(14) 0.67076(14) 0.6619(4)
N3_3 N 0.30826(18) 0.62820(13) 0.6637(4)
N4_3 N 0.25572(14) 0.52997(12) 0.8382(3)
N5_3 N 0.19298(14) 0.66212(12) 0.6611(3)
N6_3 N 0.15744(16) 0.71072(13) 0.6629(4)
O1_3 O 0.47300(13) 0.74115(11) 0.6953(4)
O2_3 O 0.42810(12) 0.74843(11) 0.6913(3)
O3_3 O 0.42078(12) 0.71888(11) 0.8397(3)
O4_3 O 0.38999(13) 0.70255(11) 0.6805(3)
O5_3 O 0.36187(12) 0.72096(12) 0.8204(3)
O6_3 O 0.33247(16) 0.68954(14) 0.8017(4)
O7_3 O 0.29110(14) 0.65484(12) 0.8022(3)
O8_3 O 0.25413(13) 0.63037(11) 0.8180(3)
O9_3 O 0.27106(13) 0.60030(11) 0.6797(3)
O10_3 O 0.24764(11) 0.57419(10) 0.8395(3)
O11_3 O 0.21920(13) 0.56935(11) 0.6907(3)
O12_3 O 0.22453(13) 0.52575(10) 0.6956(3)
O13_3 O 0.19822(13) 0.61238(11) 0.8181(3)
O14_3 O 0.22073(14) 0.62575(12) 0.6634(3)
O15_3 O 0.17110(13) 0.64804(12) 0.8130(3)
O16_3 O 0.13903(16) 0.69484(13) 0.8176(3)
O17_3 O 0.11169(16) 0.72835(15) 0.8235(4)
O18_3 O 0.12988(13) 0.74685(11) 0.6683(3)
C1_3 C 0.44647(16) 0.72127(18) 0.8061(5)
C2_3 C 0.4489(3) 0.73824(17) 0.7250(5)
C3_3 C 0.46609(13) 0.69848(14) 0.9194(4)
C4_3 C 0.46519(15) 0.67232(19) 0.9181(4)
C5_6 C 0.4632(2) 0.6580(2) 1.0000
H1_6 H 0.4607 0.6397 1.0000
C6_6 C 0.4657(2) 0.71120(18) 1.0000
C7_3 C 0.4636(2) 0.65731(18) 0.8314(5)
H2_3 H 0.4528 0.6671 0.7883
H3_3 H 0.4549 0.6405 0.8421
H4_3 H 0.4820 0.6546 0.8079
C8_6 C 0.4670(3) 0.7403(3) 1.0000
C9_3 C 0.3683(2) 0.69151(19) 0.7017(4)
C10_3 C 0.3525(2) 0.70113(19) 0.7813(6)
C11_3 C 0.36783(15) 0.66191(13) 0.5792(4)
C12_3 C 0.38824(17) 0.64341(15) 0.5815(4)
C13_3 C 0.3989(2) 0.6338(2) 0.5000
H5_3 H 0.4129 0.6211 0.5000
C14_3 C 0.40014(18) 0.63361(18) 0.6682(4)
H6_3 H 0.4142 0.6456 0.6888
H7_3 H 0.4082 0.6164 0.6589
H8_3 H 0.3857 0.6324 0.7129
C15_3 C 0.3579(2) 0.67158(18) 0.5000
C16_3 C 0.3365(2) 0.6928(2) 0.5000
C17_3 C 0.2851(2) 0.61930(19) 0.6999(4)
C18_3 C 0.2770(2) 0.63727(17) 0.7817(5)
C19_3 C 0.3070(3) 0.6264(2) 0.5000
C20_3 C 0.31704(16) 0.61696(12) 0.5801(4)
C21_3 C 0.33426(14) 0.59725(14) 0.5811(4)
C22_3 C 0.3437(3) 0.5862(2) 0.5000
H9_3 H 0.3560 0.5720 0.5000
C23_3 C 0.3458(2) 0.58567(16) 0.6672(4)
H10_3 H 0.3533 0.5996 0.7041
H11_3 H 0.3603 0.5733 0.6527
H12_3 H 0.3313 0.5768 0.6996
C24_3 C 0.2864(3) 0.6479(2) 0.5000
C25_3 C 0.2455(2) 0.55189(14) 0.8073(4)
C26_3 C 0.2282(2) 0.54901(18) 0.7239(4)
C27_3 C 0.2700(2) 0.53209(12) 0.9198(4)
C28_3 C 0.2974(2) 0.53334(17) 0.9187(4)
C29_3 C 0.3119(3) 0.5357(3) 0.8269(7)
H13_3 H 0.3110 0.5191 0.7958
H14_3 H 0.3310 0.5405 0.8361
H15_3 H 0.3029 0.5491 0.7912
C30_6 C 0.3125(4) 0.5358(4) 1.0000
H16_6 H 0.3315 0.5389 1.0000
C31_6 C 0.2543(3) 0.53081(19) 1.0000
C32_6 C 0.2232(3) 0.5292(3) 1.0000
C33_3 C 0.18963(16) 0.63273(18) 0.7830(5)
C34_3 C 0.20275(17) 0.64112(16) 0.6939(4)
C35_3 C 0.1956(2) 0.6613(2) 0.5000
C36_3 C 0.20545(18) 0.66959(17) 0.5738(5)
C37_3 C 0.2262(2) 0.6857(2) 0.5805(4)
C38_3 C 0.2364(3) 0.6941(3) 0.5000
H17_3 H 0.2510 0.7061 0.5000
C39_3 C 0.1724(2) 0.6414(3) 0.5000
C40_3 C 0.2396(3) 0.6946(2) 0.6678(6)
H18_3 H 0.2255 0.6990 0.7112
H19_3 H 0.2509 0.7099 0.6565
H20_3 H 0.2510 0.6806 0.6914
C41_3 C 0.12929(18) 0.71501(17) 0.7885(5)
C42_3 C 0.13922(19) 0.7253(2) 0.6969(5)
C43_3 C 0.1595(2) 0.7116(2) 0.5000
C44_3 C 0.1694(2) 0.72145(18) 0.5799(4)
C45_3 C 0.18988(19) 0.74026(18) 0.5811(4)
C46_3 C 0.1994(2) 0.7491(2) 0.5000
H21_3 H 0.2133 0.7619 0.5000
C47_3 C 0.1361(3) 0.6927(2) 0.5000
C48_3 C 0.2000(2) 0.75243(17) 0.6698(6)
H22_3 H 0.2173 0.7614 0.6597
H23_3 H 0.2025 0.7387 0.7141
H24_3 H 0.1864 0.7649 0.6915
N8_3 N 0.35594(14) 0.67076(14) 0.3381(4)
O22_3 O 0.38999(13) 0.70255(11) 0.3195(3)
O23_3 O 0.36187(12) 0.72096(12) 0.1796(3)
O24_3 O 0.33247(16) 0.68954(14) 0.1983(4)
C54_3 C 0.3683(2) 0.69151(19) 0.2983(4)
C55_3 C 0.3525(2) 0.70113(19) 0.2187(6)
C56_3 C 0.36783(15) 0.66191(13) 0.4208(4)
C57_3 C 0.38824(17) 0.64341(15) 0.4185(4)
C58_3 C 0.40014(18) 0.63361(18) 0.3318(4)
H28_3 H 0.4142 0.6456 0.3112
H29_3 H 0.4082 0.6164 0.3411
H30_3 H 0.3857 0.6324 0.2871
N9_3 N 0.30826(18) 0.62820(13) 0.3363(4)
O25_3 O 0.29110(14) 0.65484(12) 0.1978(3)
O26_3 O 0.25413(13) 0.63037(11) 0.1820(3)
O27_3 O 0.27106(13) 0.60030(11) 0.3203(3)
C59_3 C 0.2851(2) 0.61930(19) 0.3001(4)
C60_3 C 0.2770(2) 0.63727(17) 0.2183(5)
C61_3 C 0.31704(16) 0.61696(12) 0.4199(4)
C62_3 C 0.33426(14) 0.59725(14) 0.4189(4)
C63_3 C 0.3458(2) 0.58567(16) 0.3328(4)
H31_3 H 0.3533 0.5996 0.2959
H32_3 H 0.3603 0.5733 0.3473
H33_3 H 0.3313 0.5768 0.3004
N11_3 N 0.19298(14) 0.66212(12) 0.3389(3)
O31_3 O 0.19822(13) 0.61238(11) 0.1819(3)
O32_3 O 0.22073(14) 0.62575(12) 0.3366(3)
O33_3 O 0.17110(13) 0.64804(12) 0.1870(3)
C69_3 C 0.18963(16) 0.63273(18) 0.2170(5)
C70_3 C 0.20275(17) 0.64112(16) 0.3061(4)
C71_3 C 0.20545(18) 0.66959(17) 0.4262(5)
C72_3 C 0.2262(2) 0.6857(2) 0.4195(4)
C73_3 C 0.2396(3) 0.6946(2) 0.3322(6)
H37_3 H 0.2255 0.6990 0.2888
H38_3 H 0.2509 0.7099 0.3435
H39_3 H 0.2510 0.6806 0.3086
N12_3 N 0.15744(16) 0.71072(13) 0.3371(4)
O34_3 O 0.13903(16) 0.69484(13) 0.1824(3)
O35_3 O 0.11169(16) 0.72835(15) 0.1765(4)
O36_3 O 0.12988(13) 0.74685(11) 0.3317(3)
C74_3 C 0.12929(18) 0.71501(17) 0.2115(5)
C75_3 C 0.13922(19) 0.7253(2) 0.3031(5)
C76_3 C 0.1694(2) 0.72145(18) 0.4201(4)
C77_3 C 0.18988(19) 0.74026(18) 0.4189(4)
C78_3 C 0.2000(2) 0.75243(17) 0.3302(6)
H40_3 H 0.2173 0.7614 0.3403
H41_3 H 0.2025 0.7387 0.2859
H42_3 H 0.1864 0.7649 0.3085
Cu5_3 Cu 0.32483(2) 0.65756(2) 0.26911(6)
Cu6_3 Cu 0.16466(3) 0.67822(2) 0.26973(6)
Ni4_3 Ni 0.10623(2) 0.76420(2) 0.75628(6)
Ni8_3 Ni 0.10623(2) 0.76420(2) 0.24372(6)
N14_2 N 0.25572(14) 0.47003(12) 0.8382(3)
O38_3 O 0.07190(12) 0.75157(11) 0.6913(3)
O39_3 O 0.07922(12) 0.78112(11) 0.8397(3)
O40_3 O 0.11001(13) 0.79745(11) 0.6805(3)
O41_3 O 0.13813(12) 0.77904(12) 0.8204(3)
O44_2 O 0.22453(13) 0.47425(10) 0.6956(3)
O45_3 O 0.38831(16) 0.77165(15) 0.8235(4)
O46_3 O 0.37012(13) 0.75315(11) 0.6683(3)
H43_3 H 0.449648 0.748043 0.963662
H45_3 H 0.485788 0.74658 0.968231
H46_3 H 0.34448 0.709842 0.533767
H47_3 H 0.331303 0.697801 0.431842
H48_3 H 0.318365 0.685979 0.534391
H49_3 H 0.118367 0.701721 0.530446
H50_3 H 0.131284 0.687231 0.431966
H51_3 H 0.141746 0.675495 0.537588
H52_3 H 0.295019 0.664903 0.532298
H53_3 H 0.280959 0.652696 0.431872
H54_3 H 0.268284 0.641693 0.53583
H55_3 H 0.216793 0.511816 0.964751
H57_3 H 0.214828 0.546216 0.967104
H58_3 H 0.154833 0.64945 0.534402
H59_3 H 0.166834 0.636772 0.431843
H60_3 H 0.179065 0.623852 0.533755
Cu2_4 Cu 0.32483(2) 0.34244(2) 0.26911(6)
Cu4_4 Cu 0.16466(3) 0.32178(2) 0.26973(6)
Ni1_4 Ni 0.23511(3) 0.39882(2) 0.24763(5)
Ni2_4 Ni 0.39377(2) 0.26420(2) 0.24372(6)
N1_4 N 0.46783(13) 0.28865(12) 0.1621(3)
N2_4 N 0.35594(14) 0.32924(14) 0.3381(4)
N3_4 N 0.30826(18) 0.37180(13) 0.3363(4)
N4_4 N 0.25572(14) 0.47003(12) 0.1618(3)
N5_4 N 0.19298(14) 0.33788(12) 0.3389(3)
N6_4 N 0.15744(16) 0.28928(13) 0.3371(4)
O1_4 O 0.47300(13) 0.25885(11) 0.3047(4)
O2_4 O 0.42810(12) 0.25157(11) 0.3087(3)
O3_4 O 0.42078(12) 0.28112(11) 0.1603(3)
O4_4 O 0.38999(13) 0.29745(11) 0.3195(3)
O5_4 O 0.36187(12) 0.27904(12) 0.1796(3)
O6_4 O 0.33247(16) 0.31046(14) 0.1983(4)
O7_4 O 0.29110(14) 0.34516(12) 0.1978(3)
O8_4 O 0.25413(13) 0.36963(11) 0.1820(3)
O9_4 O 0.27106(13) 0.39970(11) 0.3203(3)
O10_4 O 0.24764(11) 0.42581(10) 0.1605(3)
O11_4 O 0.21920(13) 0.43065(11) 0.3093(3)
O12_4 O 0.22453(13) 0.47425(10) 0.3044(3)
O13_4 O 0.19822(13) 0.38762(11) 0.1819(3)
O14_4 O 0.22073(14) 0.37425(12) 0.3366(3)
O15_4 O 0.17110(13) 0.35196(12) 0.1870(3)
O16_4 O 0.13903(16) 0.30516(13) 0.1824(3)
O17_4 O 0.11169(16) 0.27165(15) 0.1765(4)
O18_4 O 0.12988(13) 0.25315(11) 0.3317(3)
C1_4 C 0.44647(16) 0.27873(18) 0.1939(5)
C2_4 C 0.4489(3) 0.26176(17) 0.2750(5)
C3_4 C 0.46609(13) 0.30152(14) 0.0806(4)
C4_4 C 0.46519(15) 0.32768(19) 0.0819(4)
C5_7 C 0.4632(2) 0.3420(2) 0.0000
H1_7 H 0.4607 0.3603 0.0000
C6_7 C 0.4657(2) 0.28880(18) 0.0000
C7_4 C 0.4636(2) 0.34269(18) 0.1686(5)
H2_4 H 0.4528 0.3329 0.2117
H3_4 H 0.4549 0.3595 0.1579
H4_4 H 0.4820 0.3454 0.1921
C8_7 C 0.4670(3) 0.2597(3) 0.0000
C9_4 C 0.3683(2) 0.30849(19) 0.2983(4)
C10_4 C 0.3525(2) 0.29887(19) 0.2187(6)
C11_4 C 0.36783(15) 0.33809(13) 0.4208(4)
C12_4 C 0.38824(17) 0.35659(15) 0.4185(4)
C13_4 C 0.3989(2) 0.3662(2) 0.5000
H5_4 H 0.4129 0.3789 0.5000
C14_4 C 0.40014(18) 0.36639(18) 0.3318(4)
H6_4 H 0.4142 0.3544 0.3112
H7_4 H 0.4082 0.3836 0.3411
H8_4 H 0.3857 0.3676 0.2871
C15_4 C 0.3579(2) 0.32842(18) 0.5000
C16_4 C 0.3365(2) 0.3072(2) 0.5000
C17_4 C 0.2851(2) 0.38070(19) 0.3001(4)
C18_4 C 0.2770(2) 0.36273(17) 0.2183(5)
C19_4 C 0.3070(3) 0.3736(2) 0.5000
C20_4 C 0.31704(16) 0.38304(12) 0.4199(4)
C21_4 C 0.33426(14) 0.40275(14) 0.4189(4)
C22_4 C 0.3437(3) 0.4138(2) 0.5000
H9_4 H 0.3560 0.4280 0.5000
C23_4 C 0.3458(2) 0.41433(16) 0.3328(4)
H10_4 H 0.3533 0.4004 0.2959
H11_4 H 0.3603 0.4267 0.3473
H12_4 H 0.3313 0.4232 0.3004
C24_4 C 0.2864(3) 0.3521(2) 0.5000
C25_4 C 0.2455(2) 0.44811(14) 0.1927(4)
C26_4 C 0.2282(2) 0.45099(18) 0.2761(4)
C27_4 C 0.2700(2) 0.46791(12) 0.0802(4)
C28_4 C 0.2974(2) 0.46666(17) 0.0813(4)
C29_4 C 0.3119(3) 0.4643(3) 0.1731(7)
H13_4 H 0.3110 0.4809 0.2042
H14_4 H 0.3310 0.4595 0.1639
H15_4 H 0.3029 0.4509 0.2088
C30_7 C 0.3125(4) 0.4642(4) 0.0000
H16_7 H 0.3315 0.4611 0.0000
C31_7 C 0.2543(3) 0.46919(19) 0.0000
C32_7 C 0.2232(3) 0.4708(3) 0.0000
C33_4 C 0.18963(16) 0.36727(18) 0.2170(5)
C34_4 C 0.20275(17) 0.35888(16) 0.3061(4)
C35_4 C 0.1956(2) 0.3387(2) 0.5000
C36_4 C 0.20545(18) 0.33041(17) 0.4262(5)
C37_4 C 0.2262(2) 0.3143(2) 0.4195(4)
C38_4 C 0.2364(3) 0.3059(3) 0.5000
H17_4 H 0.2510 0.2939 0.5000
C39_4 C 0.1724(2) 0.3586(3) 0.5000
C40_4 C 0.2396(3) 0.3054(2) 0.3322(6)
H18_4 H 0.2255 0.3010 0.2888
H19_4 H 0.2509 0.2901 0.3435
H20_4 H 0.2510 0.3194 0.3086
C41_4 C 0.12929(18) 0.28499(17) 0.2115(5)
C42_4 C 0.13922(19) 0.2747(2) 0.3031(5)
C43_4 C 0.1595(2) 0.2884(2) 0.5000
C44_4 C 0.1694(2) 0.27855(18) 0.4201(4)
C45_4 C 0.18988(19) 0.25974(18) 0.4189(4)
C46_4 C 0.1994(2) 0.2509(2) 0.5000
H21_4 H 0.2133 0.2381 0.5000
C47_4 C 0.1361(3) 0.3073(2) 0.5000
C48_4 C 0.2000(2) 0.24757(17) 0.3302(6)
H22_4 H 0.2173 0.2386 0.3403
H23_4 H 0.2025 0.2613 0.2859
H24_4 H 0.1864 0.2351 0.3085
N8_4 N 0.35594(14) 0.32924(14) 0.6619(4)
O22_4 O 0.38999(13) 0.29745(11) 0.6805(3)
O23_4 O 0.36187(12) 0.27904(12) 0.8204(3)
O24_4 O 0.33247(16) 0.31046(14) 0.8017(4)
C54_4 C 0.3683(2) 0.30849(19) 0.7017(4)
C55_4 C 0.3525(2) 0.29887(19) 0.7813(6)
C56_4 C 0.36783(15) 0.33809(13) 0.5792(4)
C57_4 C 0.38824(17) 0.35659(15) 0.5815(4)
C58_4 C 0.40014(18) 0.36639(18) 0.6682(4)
H28_4 H 0.4142 0.3544 0.6888
H29_4 H 0.4082 0.3836 0.6589
H30_4 H 0.3857 0.3676 0.7129
N9_4 N 0.30826(18) 0.37180(13) 0.6637(4)
O25_4 O 0.29110(14) 0.34516(12) 0.8022(3)
O26_4 O 0.25413(13) 0.36963(11) 0.8180(3)
O27_4 O 0.27106(13) 0.39970(11) 0.6797(3)
C59_4 C 0.2851(2) 0.38070(19) 0.6999(4)
C60_4 C 0.2770(2) 0.36273(17) 0.7817(5)
C61_4 C 0.31704(16) 0.38304(12) 0.5801(4)
C62_4 C 0.33426(14) 0.40275(14) 0.5811(4)
C63_4 C 0.3458(2) 0.41433(16) 0.6672(4)
H31_4 H 0.3533 0.4004 0.7041
H32_4 H 0.3603 0.4267 0.6527
H33_4 H 0.3313 0.4232 0.6996
N11_4 N 0.19298(14) 0.33788(12) 0.6611(3)
O31_4 O 0.19822(13) 0.38762(11) 0.8181(3)
O32_4 O 0.22073(14) 0.37425(12) 0.6634(3)
O33_4 O 0.17110(13) 0.35196(12) 0.8130(3)
C69_4 C 0.18963(16) 0.36727(18) 0.7830(5)
C70_4 C 0.20275(17) 0.35888(16) 0.6939(4)
C71_4 C 0.20545(18) 0.33041(17) 0.5738(5)
C72_4 C 0.2262(2) 0.3143(2) 0.5805(4)
C73_4 C 0.2396(3) 0.3054(2) 0.6678(6)
H37_4 H 0.2255 0.3010 0.7112
H38_4 H 0.2509 0.2901 0.6565
H39_4 H 0.2510 0.3194 0.6914
N12_4 N 0.15744(16) 0.28928(13) 0.6629(4)
O34_4 O 0.13903(16) 0.30516(13) 0.8176(3)
O35_4 O 0.11169(16) 0.27165(15) 0.8235(4)
O36_4 O 0.12988(13) 0.25315(11) 0.6683(3)
C74_4 C 0.12929(18) 0.28499(17) 0.7885(5)
C75_4 C 0.13922(19) 0.2747(2) 0.6969(5)
C76_4 C 0.1694(2) 0.27855(18) 0.5799(4)
C77_4 C 0.18988(19) 0.25974(18) 0.5811(4)
C78_4 C 0.2000(2) 0.24757(17) 0.6698(6)
H40_4 H 0.2173 0.2386 0.6597
H41_4 H 0.2025 0.2613 0.7141
H42_4 H 0.1864 0.2351 0.6915
Cu5_4 Cu 0.32483(2) 0.34244(2) 0.73089(6)
Cu6_4 Cu 0.16466(3) 0.32178(2) 0.73027(6)
Ni3_2 Ni 0.23511(3) 0.39882(2) 0.75237(5)
Ni4_4 Ni 0.10623(2) 0.23580(2) 0.24372(6)
Ni7_2 Ni 0.39377(2) 0.26420(2) 0.75628(6)
Ni8_4 Ni 0.10623(2) 0.23580(2) 0.75628(6)
O38_4 O 0.07190(12) 0.24843(11) 0.3087(3)
O39_4 O 0.07922(12) 0.21888(11) 0.1603(3)
O40_4 O 0.11001(13) 0.20255(11) 0.3195(3)
O41_4 O 0.13813(12) 0.22096(12) 0.1796(3)
O42_2 O 0.24764(11) 0.42581(10) 0.8395(3)
O43_2 O 0.21920(13) 0.43065(11) 0.6907(3)
O45_4 O 0.38831(16) 0.22835(15) 0.1765(4)
O46_4 O 0.37012(13) 0.24685(11) 0.3317(3)
H43_4 H 0.449648 0.251957 0.0363385
H45_4 H 0.485788 0.25342 0.0317689
H46_4 H 0.34448 0.290158 0.466233
H47_4 H 0.331303 0.302199 0.568158
H48_4 H 0.318365 0.314021 0.465609
H49_4 H 0.118367 0.298279 0.469554
H50_4 H 0.131284 0.312769 0.568034
H51_4 H 0.141746 0.324505 0.462412
H52_4 H 0.295019 0.335097 0.467702
H53_4 H 0.280959 0.347304 0.568128
H54_4 H 0.268284 0.358307 0.46417
H55_4 H 0.216793 0.488184 0.0352486
H57_4 H 0.214828 0.453784 0.0328963
H58_4 H 0.154833 0.35055 0.465598
H59_4 H 0.166834 0.363228 0.568157
H60_4 H 0.179065 0.376148 0.466245
C5_8 C 0.4632(2) 0.3420(2) 1.0000
H1_8 H 0.4607 0.3603 1.0000
C6_8 C 0.4657(2) 0.28880(18) 1.0000
C8_8 C 0.4670(3) 0.2597(3) 1.0000
C30_8 C 0.3125(4) 0.4642(4) 1.0000
H16_8 H 0.3315 0.4611 1.0000
C31_8 C 0.2543(3) 0.46919(19) 1.0000
C32_8 C 0.2232(3) 0.4708(3) 1.0000
O20_4 O 0.42810(12) 0.25157(11) 0.6913(3)
O21_4 O 0.42078(12) 0.28112(11) 0.8397(3)
C49_4 C 0.44647(16) 0.27873(18) 0.8061(5)
C50_4 C 0.4489(3) 0.26176(17) 0.7250(5)
C51_4 C 0.46609(13) 0.30152(14) 0.9194(4)
C52_4 C 0.46519(15) 0.32768(19) 0.9181(4)
C53_4 C 0.4636(2) 0.34269(18) 0.8314(5)
H25_4 H 0.4528 0.3329 0.7883
H26_4 H 0.4549 0.3595 0.8421
H27_4 H 0.4820 0.3454 0.8079
C64_4 C 0.2455(2) 0.44811(14) 0.8073(4)
C65_4 C 0.2282(2) 0.45099(18) 0.7239(4)
C66_4 C 0.2700(2) 0.46791(12) 0.9198(4)
C67_4 C 0.2974(2) 0.46666(17) 0.9187(4)
C68_4 C 0.3119(3) 0.4643(3) 0.8269(7)
H34_4 H 0.3110 0.4809 0.7958
H35_4 H 0.3310 0.4595 0.8361
H36_4 H 0.3029 0.4509 0.7912
H44_4 H 0.466506 0.25264 0.931893
H56_4 H 0.215844 0.471578 0.931855
Cu1_3 Cu -0.0000 0.22158(3) 0.23377(8)
Cu2_5 Cu 0.17517(2) 0.15756(2) 0.26911(6)
Cu3_3 Cu 0.25586(4) -0.0000 0.23318(7)
Cu4_5 Cu 0.33534(3) 0.17822(2) 0.26973(6)
Ni1_5 Ni 0.26489(3) 0.10118(2) 0.24763(5)
N1_5 N 0.03217(13) 0.21135(12) 0.1621(3)
N2_5 N 0.14406(14) 0.17076(14) 0.3381(4)
N3_5 N 0.19174(18) 0.12820(13) 0.3363(4)
N4_5 N 0.24428(14) 0.02997(12) 0.1618(3)
N5_5 N 0.30702(14) 0.16212(12) 0.3389(3)
N6_5 N 0.34256(16) 0.21072(13) 0.3371(4)
O1_5 O 0.02700(13) 0.24115(11) 0.3047(4)
O6_5 O 0.16753(16) 0.18954(14) 0.1983(4)
O7_5 O 0.20890(14) 0.15484(12) 0.1978(3)
O8_5 O 0.24587(13) 0.13037(11) 0.1820(3)
O9_5 O 0.22894(13) 0.10030(11) 0.3203(3)
O10_5 O 0.25236(11) 0.07419(10) 0.1605(3)
O11_5 O 0.28080(13) 0.06935(11) 0.3093(3)
O12_5 O 0.27547(13) 0.02575(10) 0.3044(3)
O13_5 O 0.30178(13) 0.11238(11) 0.1819(3)
O14_5 O 0.27927(14) 0.12575(12) 0.3366(3)
O15_5 O 0.32890(13) 0.14804(12) 0.1870(3)
O16_5 O 0.36097(16) 0.19484(13) 0.1824(3)
C1_5 C 0.05353(16) 0.22127(18) 0.1939(5)
C2_5 C 0.0511(3) 0.23824(17) 0.2750(5)
C3_5 C 0.03391(13) 0.19848(14) 0.0806(4)
C4_5 C 0.03481(15) 0.17232(19) 0.0819(4)
C5_9 C 0.0368(2) 0.1580(2) 0.0000
H1_9 H 0.0393 0.1397 0.0000
C6_9 C 0.0343(2) 0.21120(18) 0.0000
C7_5 C 0.0364(2) 0.15731(18) 0.1686(5)
H2_5 H 0.0472 0.1671 0.2117
H3_5 H 0.0451 0.1405 0.1579
H4_5 H 0.0180 0.1546 0.1921
C8_9 C 0.0330(3) 0.2403(3) 0.0000
C9_5 C 0.1317(2) 0.19151(19) 0.2983(4)
C10_5 C 0.1475(2) 0.20113(19) 0.2187(6)
C11_5 C 0.13217(15) 0.16191(13) 0.4208(4)
C12_5 C 0.11176(17) 0.14341(15) 0.4185(4)
C13_5 C 0.1011(2) 0.1338(2) 0.5000
H5_5 H 0.0871 0.1211 0.5000
C14_5 C 0.09986(18) 0.13361(18) 0.3318(4)
H6_5 H 0.0858 0.1456 0.3112
H7_5 H 0.0918 0.1164 0.3411
H8_5 H 0.1143 0.1324 0.2871
C15_5 C 0.1421(2) 0.17158(18) 0.5000
C16_5 C 0.1635(2) 0.1928(2) 0.5000
C17_5 C 0.2149(2) 0.11930(19) 0.3001(4)
C18_5 C 0.2230(2) 0.13727(17) 0.2183(5)
C19_5 C 0.1930(3) 0.1264(2) 0.5000
C20_5 C 0.18296(16) 0.11696(12) 0.4199(4)
C21_5 C 0.16574(14) 0.09725(14) 0.4189(4)
C22_5 C 0.1563(3) 0.0862(2) 0.5000
H9_5 H 0.1440 0.0720 0.5000
C23_5 C 0.1542(2) 0.08567(16) 0.3328(4)
H10_5 H 0.1467 0.0996 0.2959
H11_5 H 0.1397 0.0733 0.3473
H12_5 H 0.1687 0.0768 0.3004
C24_5 C 0.2136(3) 0.1479(2) 0.5000
C25_5 C 0.2545(2) 0.05189(14) 0.1927(4)
C26_5 C 0.2718(2) 0.04901(18) 0.2761(4)
C27_5 C 0.2300(2) 0.03209(12) 0.0802(4)
C28_5 C 0.2026(2) 0.03334(17) 0.0813(4)
C29_5 C 0.1881(3) 0.0357(3) 0.1731(7)
H13_5 H 0.1890 0.0191 0.2042
H14_5 H 0.1690 0.0405 0.1639
H15_5 H 0.1971 0.0491 0.2088
C30_9 C 0.1875(4) 0.0358(4) 0.0000
H16_9 H 0.1685 0.0389 0.0000
C31_9 C 0.2457(3) 0.03081(19) 0.0000
C32_9 C 0.2768(3) 0.0292(3) 0.0000
C33_5 C 0.31037(16) 0.13273(18) 0.2170(5)
C34_5 C 0.29725(17) 0.14112(16) 0.3061(4)
C35_5 C 0.3044(2) 0.1613(2) 0.5000
C36_5 C 0.29455(18) 0.16959(17) 0.4262(5)
C37_5 C 0.2738(2) 0.1857(2) 0.4195(4)
C38_5 C 0.2636(3) 0.1941(3) 0.5000
H17_5 H 0.2490 0.2061 0.5000
C39_5 C 0.3276(2) 0.1414(3) 0.5000
C40_5 C 0.2604(3) 0.1946(2) 0.3322(6)
H18_5 H 0.2745 0.1990 0.2888
H19_5 H 0.2491 0.2099 0.3435
H20_5 H 0.2490 0.1806 0.3086
C41_5 C 0.37071(18) 0.21501(17) 0.2115(5)
C42_5 C 0.36078(19) 0.2253(2) 0.3031(5)
C43_5 C 0.3405(2) 0.2116(2) 0.5000
C44_5 C 0.3306(2) 0.22145(18) 0.4201(4)
C45_5 C 0.31012(19) 0.24026(18) 0.4189(4)
C46_5 C 0.3006(2) 0.2491(2) 0.5000
H21_5 H 0.2867 0.2619 0.5000
C47_5 C 0.3639(3) 0.1927(2) 0.5000
C48_5 C 0.3000(2) 0.25243(17) 0.3302(6)
H22_5 H 0.2827 0.2614 0.3403
H23_5 H 0.2975 0.2387 0.2859
H24_5 H 0.3136 0.2649 0.3085
N8_5 N 0.14406(14) 0.17076(14) 0.6619(4)
O22_5 O 0.11001(13) 0.20255(11) 0.6805(3)
O23_5 O 0.13813(12) 0.22096(12) 0.8204(3)
O24_5 O 0.16753(16) 0.18954(14) 0.8017(4)
C54_5 C 0.1317(2) 0.19151(19) 0.7017(4)
C55_5 C 0.1475(2) 0.20113(19) 0.7813(6)
C56_5 C 0.13217(15) 0.16191(13) 0.5792(4)
C57_5 C 0.11176(17) 0.14341(15) 0.5815(4)
C58_5 C 0.09986(18) 0.13361(18) 0.6682(4)
H28_5 H 0.0858 0.1456 0.6888
H29_5 H 0.0918 0.1164 0.6589
H30_5 H 0.1143 0.1324 0.7129
N9_5 N 0.19174(18) 0.12820(13) 0.6637(4)
O25_5 O 0.20890(14) 0.15484(12) 0.8022(3)
O26_5 O 0.24587(13) 0.13037(11) 0.8180(3)
O27_5 O 0.22894(13) 0.10030(11) 0.6797(3)
C59_5 C 0.2149(2) 0.11930(19) 0.6999(4)
C60_5 C 0.2230(2) 0.13727(17) 0.7817(5)
C61_5 C 0.18296(16) 0.11696(12) 0.5801(4)
C62_5 C 0.16574(14) 0.09725(14) 0.5811(4)
C63_5 C 0.1542(2) 0.08567(16) 0.6672(4)
H31_5 H 0.1467 0.0996 0.7041
H32_5 H 0.1397 0.0733 0.6527
H33_5 H 0.1687 0.0768 0.6996
N11_5 N 0.30702(14) 0.16212(12) 0.6611(3)
O31_5 O 0.30178(13) 0.11238(11) 0.8181(3)
O32_5 O 0.27927(14) 0.12575(12) 0.6634(3)
O33_5 O 0.32890(13) 0.14804(12) 0.8130(3)
C69_5 C 0.31037(16) 0.13273(18) 0.7830(5)
C70_5 C 0.29725(17) 0.14112(16) 0.6939(4)
C71_5 C 0.29455(18) 0.16959(17) 0.5738(5)
C72_5 C 0.2738(2) 0.1857(2) 0.5805(4)
C73_5 C 0.2604(3) 0.1946(2) 0.6678(6)
H37_5 H 0.2745 0.1990 0.7112
H38_5 H 0.2491 0.2099 0.6565
H39_5 H 0.2490 0.1806 0.6914
N12_5 N 0.34256(16) 0.21072(13) 0.6629(4)
O34_5 O 0.36097(16) 0.19484(13) 0.8176(3)
O35_5 O 0.38831(16) 0.22835(15) 0.8235(4)
O36_5 O 0.37012(13) 0.24685(11) 0.6683(3)
C74_5 C 0.37071(18) 0.21501(17) 0.7885(5)
C75_5 C 0.36078(19) 0.2253(2) 0.6969(5)
C76_5 C 0.3306(2) 0.22145(18) 0.5799(4)
C77_5 C 0.31012(19) 0.24026(18) 0.5811(4)
C78_5 C 0.3000(2) 0.25243(17) 0.6698(6)
H40_5 H 0.2827 0.2614 0.6597
H41_5 H 0.2975 0.2387 0.7141
H42_5 H 0.3136 0.2649 0.6915
Cu5_5 Cu 0.17517(2) 0.15756(2) 0.73089(6)
Cu6_5 Cu 0.33534(3) 0.17822(2) 0.73027(6)
Ni3_3 Ni 0.26489(3) 0.10118(2) 0.75237(5)
O42_3 O 0.25236(11) 0.07419(10) 0.8395(3)
O43_3 O 0.28080(13) 0.06935(11) 0.6907(3)
H43_5 H 0.0503521 0.248043 0.0363385
H45_5 H 0.0142117 0.24658 0.0317689
H46_5 H 0.15552 0.209842 0.466233
H47_5 H 0.168697 0.197801 0.568158
H48_5 H 0.181635 0.185979 0.465609
H49_5 H 0.381633 0.201721 0.469554
H50_5 H 0.368716 0.187231 0.568034
H51_5 H 0.358254 0.175495 0.462412
H52_5 H 0.204981 0.164903 0.467702
H53_5 H 0.219041 0.152696 0.568128
H54_5 H 0.231716 0.141693 0.46417
H55_5 H 0.283207 0.0118155 0.0352486
H57_5 H 0.285172 0.0462163 0.0328963
H58_5 H 0.345167 0.14945 0.465598
H59_5 H 0.333166 0.136772 0.568157
H60_5 H 0.320935 0.123852 0.466245
C5_10 C 0.0368(2) 0.1580(2) 1.0000
H1_10 H 0.0393 0.1397 1.0000
C6_10 C 0.0343(2) 0.21120(18) 1.0000
C8_10 C 0.0330(3) 0.2403(3) 1.0000
C30_10 C 0.1875(4) 0.0358(4) 1.0000
H16_10 H 0.1685 0.0389 1.0000
C31_10 C 0.2457(3) 0.03081(19) 1.0000
C32_10 C 0.2768(3) 0.0292(3) 1.0000
N7_3 N 0.03217(13) 0.21135(12) 0.8379(3)
O19_3 O 0.02700(13) 0.24115(11) 0.6953(4)
O20_5 O 0.07190(12) 0.24843(11) 0.6913(3)
O21_5 O 0.07922(12) 0.21888(11) 0.8397(3)
C49_5 C 0.05353(16) 0.22127(18) 0.8061(5)
C50_5 C 0.0511(3) 0.23824(17) 0.7250(5)
C51_5 C 0.03391(13) 0.19848(14) 0.9194(4)
C52_5 C 0.03481(15) 0.17232(19) 0.9181(4)
C53_5 C 0.0364(2) 0.15731(18) 0.8314(5)
H25_5 H 0.0472 0.1671 0.7883
H26_5 H 0.0451 0.1405 0.8421
H27_5 H 0.0180 0.1546 0.8079
N10_3 N 0.24428(14) 0.02997(12) 0.8382(3)
O30_3 O 0.27547(13) 0.02575(10) 0.6956(3)
C64_5 C 0.2545(2) 0.05189(14) 0.8073(4)
C65_5 C 0.2718(2) 0.04901(18) 0.7239(4)
C66_5 C 0.2300(2) 0.03209(12) 0.9198(4)
C67_5 C 0.2026(2) 0.03334(17) 0.9187(4)
C68_5 C 0.1881(3) 0.0357(3) 0.8269(7)
H34_5 H 0.1890 0.0191 0.7958
H35_5 H 0.1690 0.0405 0.8361
H36_5 H 0.1971 0.0491 0.7912
Cu7_3 Cu -0.0000 0.22158(3) 0.76623(8)
Cu8_3 Cu 0.25586(4) -0.0000 0.76682(7)
H44_5 H 0.0334943 0.24736 0.931893
H56_5 H 0.284156 0.0284222 0.931855
Cu3_4 Cu 0.25586(4) 1.0000 0.23318(7)
N14_3 N 0.24428(14) 0.97003(12) 0.1618(3)
O44_3 O 0.27547(13) 0.97425(10) 0.3044(3)
Cu8_4 Cu 0.25586(4) 1.0000 0.76682(7)
Cu1_4 Cu 1.0000 0.22158(3) 0.23377(8)
N13_3 N 0.96783(13) 0.21135(12) 0.1621(3)
O37_3 O 0.97300(13) 0.24115(11) 0.3047(4)
Cu7_4 Cu 1.0000 0.22158(3) 0.76623(8)
C5_11 C 0.0368(2) 0.8420(2) 0.0000
H1_11 H 0.0393 0.8603 0.0000
C6_11 C 0.0343(2) 0.78880(18) 0.0000
C8_11 C 0.0330(3) 0.7597(3) 0.0000
C30_11 C 0.1875(4) 0.9642(4) 0.0000
H16_11 H 0.1685 0.9611 0.0000
C31_11 C 0.2457(3) 0.96919(19) 0.0000
C32_11 C 0.2768(3) 0.9708(3) 0.0000
N7_4 N 0.03217(13) 0.78865(12) 0.1621(3)
O19_4 O 0.02700(13) 0.75885(11) 0.3047(4)
O20_6 O 0.07190(12) 0.75157(11) 0.3087(3)
O21_6 O 0.07922(12) 0.78112(11) 0.1603(3)
C49_6 C 0.05353(16) 0.77873(18) 0.1939(5)
C50_6 C 0.0511(3) 0.76176(17) 0.2750(5)
C51_6 C 0.03391(13) 0.80152(14) 0.0806(4)
C52_6 C 0.03481(15) 0.82768(19) 0.0819(4)
C53_6 C 0.0364(2) 0.84269(18) 0.1686(5)
H25_6 H 0.0472 0.8329 0.2117
H26_6 H 0.0451 0.8595 0.1579
H27_6 H 0.0180 0.8454 0.1921
O28_3 O 0.25236(11) 0.92581(10) 0.1605(3)
O29_3 O 0.28080(13) 0.93065(11) 0.3093(3)
C64_6 C 0.2545(2) 0.94811(14) 0.1927(4)
C65_6 C 0.2718(2) 0.95099(18) 0.2761(4)
C66_6 C 0.2300(2) 0.96791(12) 0.0802(4)
C67_6 C 0.2026(2) 0.96666(17) 0.0813(4)
C68_6 C 0.1881(3) 0.9643(3) 0.1731(7)
H34_6 H 0.1890 0.9809 0.2042
H35_6 H 0.1690 0.9595 0.1639
H36_6 H 0.1971 0.9509 0.2088
Cu7_5 Cu -0.0000 0.77842(3) 0.23377(8)
Ni5_3 Ni 0.26489(3) 0.89882(2) 0.24763(5)
H44_6 H 0.0334943 0.75264 0.0681074
H56_6 H 0.284156 0.971578 0.068145
Cu1_5 Cu -0.0000 0.77842(3) 0.76623(8)
Cu2_6 Cu 0.17517(2) 0.84244(2) 0.73089(6)
Cu4_6 Cu 0.33534(3) 0.82178(2) 0.73027(6)
Ni1_6 Ni 0.26489(3) 0.89882(2) 0.75237(5)
N1_6 N 0.03217(13) 0.78865(12) 0.8379(3)
N2_6 N 0.14406(14) 0.82924(14) 0.6619(4)
N3_6 N 0.19174(18) 0.87180(13) 0.6637(4)
N4_6 N 0.24428(14) 0.97003(12) 0.8382(3)
N5_6 N 0.30702(14) 0.83788(12) 0.6611(3)
N6_6 N 0.34256(16) 0.78928(13) 0.6629(4)
O1_6 O 0.02700(13) 0.75885(11) 0.6953(4)
O6_6 O 0.16753(16) 0.81046(14) 0.8017(4)
O7_6 O 0.20890(14) 0.84516(12) 0.8022(3)
O8_6 O 0.24587(13) 0.86963(11) 0.8180(3)
O9_6 O 0.22894(13) 0.89970(11) 0.6797(3)
O10_6 O 0.25236(11) 0.92581(10) 0.8395(3)
O11_6 O 0.28080(13) 0.93065(11) 0.6907(3)
O12_6 O 0.27547(13) 0.97425(10) 0.6956(3)
O13_6 O 0.30178(13) 0.88762(11) 0.8181(3)
O14_6 O 0.27927(14) 0.87425(12) 0.6634(3)
O15_6 O 0.32890(13) 0.85196(12) 0.8130(3)
O16_6 O 0.36097(16) 0.80516(13) 0.8176(3)
C1_6 C 0.05353(16) 0.77873(18) 0.8061(5)
C2_6 C 0.0511(3) 0.76176(17) 0.7250(5)
C3_6 C 0.03391(13) 0.80152(14) 0.9194(4)
C4_6 C 0.03481(15) 0.82768(19) 0.9181(4)
C5_12 C 0.0368(2) 0.8420(2) 1.0000
H1_12 H 0.0393 0.8603 1.0000
C6_12 C 0.0343(2) 0.78880(18) 1.0000
C7_6 C 0.0364(2) 0.84269(18) 0.8314(5)
H2_6 H 0.0472 0.8329 0.7883
H3_6 H 0.0451 0.8595 0.8421
H4_6 H 0.0180 0.8454 0.8079
C8_12 C 0.0330(3) 0.7597(3) 1.0000
C9_6 C 0.1317(2) 0.80849(19) 0.7017(4)
C10_6 C 0.1475(2) 0.79887(19) 0.7813(6)
C11_6 C 0.13217(15) 0.83809(13) 0.5792(4)
C12_6 C 0.11176(17) 0.85659(15) 0.5815(4)
C13_6 C 0.1011(2) 0.8662(2) 0.5000
H5_6 H 0.0871 0.8789 0.5000
C14_6 C 0.09986(18) 0.86639(18) 0.6682(4)
H6_6 H 0.0858 0.8544 0.6888
H7_6 H 0.0918 0.8836 0.6589
H8_6 H 0.1143 0.8676 0.7129
C15_6 C 0.1421(2) 0.82842(18) 0.5000
C16_6 C 0.1635(2) 0.8072(2) 0.5000
C17_6 C 0.2149(2) 0.88070(19) 0.6999(4)
C18_6 C 0.2230(2) 0.86273(17) 0.7817(5)
C19_6 C 0.1930(3) 0.8736(2) 0.5000
C20_6 C 0.18296(16) 0.88304(12) 0.5801(4)
C21_6 C 0.16574(14) 0.90275(14) 0.5811(4)
C22_6 C 0.1563(3) 0.9138(2) 0.5000
H9_6 H 0.1440 0.9280 0.5000
C23_6 C 0.1542(2) 0.91433(16) 0.6672(4)
H10_6 H 0.1467 0.9004 0.7041
H11_6 H 0.1397 0.9267 0.6527
H12_6 H 0.1687 0.9232 0.6996
C24_6 C 0.2136(3) 0.8521(2) 0.5000
C25_6 C 0.2545(2) 0.94811(14) 0.8073(4)
C26_6 C 0.2718(2) 0.95099(18) 0.7239(4)
C27_6 C 0.2300(2) 0.96791(12) 0.9198(4)
C28_6 C 0.2026(2) 0.96666(17) 0.9187(4)
C29_6 C 0.1881(3) 0.9643(3) 0.8269(7)
H13_6 H 0.1890 0.9809 0.7958
H14_6 H 0.1690 0.9595 0.8361
H15_6 H 0.1971 0.9509 0.7912
C30_12 C 0.1875(4) 0.9642(4) 1.0000
H16_12 H 0.1685 0.9611 1.0000
C31_12 C 0.2457(3) 0.96919(19) 1.0000
C32_12 C 0.2768(3) 0.9708(3) 1.0000
C33_6 C 0.31037(16) 0.86727(18) 0.7830(5)
C34_6 C 0.29725(17) 0.85888(16) 0.6939(4)
C35_6 C 0.3044(2) 0.8387(2) 0.5000
C36_6 C 0.29455(18) 0.83041(17) 0.5738(5)
C37_6 C 0.2738(2) 0.8143(2) 0.5805(4)
C38_6 C 0.2636(3) 0.8059(3) 0.5000
H17_6 H 0.2490 0.7939 0.5000
C39_6 C 0.3276(2) 0.8586(3) 0.5000
C40_6 C 0.2604(3) 0.8054(2) 0.6678(6)
H18_6 H 0.2745 0.8010 0.7112
H19_6 H 0.2491 0.7901 0.6565
H20_6 H 0.2490 0.8194 0.6914
C41_6 C 0.37071(18) 0.78499(17) 0.7885(5)
C42_6 C 0.36078(19) 0.7747(2) 0.6969(5)
C43_6 C 0.3405(2) 0.7884(2) 0.5000
C44_6 C 0.3306(2) 0.77855(18) 0.5799(4)
C45_6 C 0.31012(19) 0.75974(18) 0.5811(4)
C46_6 C 0.3006(2) 0.7509(2) 0.5000
H21_6 H 0.2867 0.7381 0.5000
C47_6 C 0.3639(3) 0.8073(2) 0.5000
C48_6 C 0.3000(2) 0.74757(17) 0.6698(6)
H22_6 H 0.2827 0.7386 0.6597
H23_6 H 0.2975 0.7613 0.7141
H24_6 H 0.3136 0.7351 0.6915
N8_6 N 0.14406(14) 0.82924(14) 0.3381(4)
O22_6 O 0.11001(13) 0.79745(11) 0.3195(3)
O23_6 O 0.13813(12) 0.77904(12) 0.1796(3)
O24_6 O 0.16753(16) 0.81046(14) 0.1983(4)
C54_6 C 0.1317(2) 0.80849(19) 0.2983(4)
C55_6 C 0.1475(2) 0.79887(19) 0.2187(6)
C56_6 C 0.13217(15) 0.83809(13) 0.4208(4)
C57_6 C 0.11176(17) 0.85659(15) 0.4185(4)
C58_6 C 0.09986(18) 0.86639(18) 0.3318(4)
H28_6 H 0.0858 0.8544 0.3112
H29_6 H 0.0918 0.8836 0.3411
H30_6 H 0.1143 0.8676 0.2871
N9_6 N 0.19174(18) 0.87180(13) 0.3363(4)
O25_6 O 0.20890(14) 0.84516(12) 0.1978(3)
O26_6 O 0.24587(13) 0.86963(11) 0.1820(3)
O27_6 O 0.22894(13) 0.89970(11) 0.3203(3)
C59_6 C 0.2149(2) 0.88070(19) 0.3001(4)
C60_6 C 0.2230(2) 0.86273(17) 0.2183(5)
C61_6 C 0.18296(16) 0.88304(12) 0.4199(4)
C62_6 C 0.16574(14) 0.90275(14) 0.4189(4)
C63_6 C 0.1542(2) 0.91433(16) 0.3328(4)
H31_6 H 0.1467 0.9004 0.2959
H32_6 H 0.1397 0.9267 0.3473
H33_6 H 0.1687 0.9232 0.3004
N11_6 N 0.30702(14) 0.83788(12) 0.3389(3)
O31_6 O 0.30178(13) 0.88762(11) 0.1819(3)
O32_6 O 0.27927(14) 0.87425(12) 0.3366(3)
O33_6 O 0.32890(13) 0.85196(12) 0.1870(3)
C69_6 C 0.31037(16) 0.86727(18) 0.2170(5)
C70_6 C 0.29725(17) 0.85888(16) 0.3061(4)
C71_6 C 0.29455(18) 0.83041(17) 0.4262(5)
C72_6 C 0.2738(2) 0.8143(2) 0.4195(4)
C73_6 C 0.2604(3) 0.8054(2) 0.3322(6)
H37_6 H 0.2745 0.8010 0.2888
H38_6 H 0.2491 0.7901 0.3435
H39_6 H 0.2490 0.8194 0.3086
N12_6 N 0.34256(16) 0.78928(13) 0.3371(4)
O34_6 O 0.36097(16) 0.80516(13) 0.1824(3)
O35_6 O 0.38831(16) 0.77165(15) 0.1765(4)
O36_6 O 0.37012(13) 0.75315(11) 0.3317(3)
C74_6 C 0.37071(18) 0.78499(17) 0.2115(5)
C75_6 C 0.36078(19) 0.7747(2) 0.3031(5)
C76_6 C 0.3306(2) 0.77855(18) 0.4201(4)
C77_6 C 0.31012(19) 0.75974(18) 0.4189(4)
C78_6 C 0.3000(2) 0.74757(17) 0.3302(6)
H40_6 H 0.2827 0.7386 0.3403
H41_6 H 0.2975 0.7613 0.2859
H42_6 H 0.3136 0.7351 0.3085
Cu5_6 Cu 0.17517(2) 0.84244(2) 0.26911(6)
Cu6_6 Cu 0.33534(3) 0.82178(2) 0.26973(6)
H43_6 H 0.0503521 0.751957 0.963662
H45_6 H 0.0142117 0.75342 0.968231
H46_6 H 0.15552 0.790158 0.533767
H47_6 H 0.168697 0.802199 0.431842
H48_6 H 0.181635 0.814021 0.534391
H49_6 H 0.381633 0.798279 0.530446
H50_6 H 0.368716 0.812769 0.431966
H51_6 H 0.358254 0.824505 0.537588
H52_6 H 0.204981 0.835097 0.532298
H53_6 H 0.219041 0.847304 0.431872
H54_6 H 0.231716 0.858307 0.53583
H55_6 H 0.283207 0.988184 0.964751
H57_6 H 0.285172 0.953784 0.967104
H58_6 H 0.345167 0.85055 0.534402
H59_6 H 0.333166 0.863228 0.431843
H60_6 H 0.320935 0.876148 0.533755
Cu7_6 Cu 1.0000 0.77842(3) 0.23377(8)
Cu1_6 Cu 1.0000 0.77842(3) 0.76623(8)
N13_4 N 0.96783(13) 0.78865(12) 0.8379(3)
O37_4 O 0.97300(13) 0.75885(11) 0.6953(4)
C5_13 C 0.9632(2) 0.1580(2) 0.0000
H1_13 H 0.9607 0.1397 0.0000
C6_13 C 0.9657(2) 0.21120(18) 0.0000
C8_13 C 0.9670(3) 0.2403(3) 0.0000
C30_13 C 0.8125(4) 0.0358(4) 0.0000
H16_13 H 0.8315 0.0389 0.0000
C31_13 C 0.7543(3) 0.03081(19) 0.0000
C32_13 C 0.7232(3) 0.0292(3) 0.0000
O20_7 O 0.92810(12) 0.24843(11) 0.3087(3)
O21_7 O 0.92078(12) 0.21888(11) 0.1603(3)
C49_7 C 0.94647(16) 0.22127(18) 0.1939(5)
C50_7 C 0.9489(3) 0.23824(17) 0.2750(5)
C51_7 C 0.96609(13) 0.19848(14) 0.0806(4)
C52_7 C 0.96519(15) 0.17232(19) 0.0819(4)
C53_7 C 0.9636(2) 0.15731(18) 0.1686(5)
H25_7 H 0.9528 0.1671 0.2117
H26_7 H 0.9549 0.1405 0.1579
H27_7 H 0.9820 0.1546 0.1921
N10_4 N 0.75572(14) 0.02997(12) 0.1618(3)
O28_4 O 0.74764(11) 0.07419(10) 0.1605(3)
O29_4 O 0.71920(13) 0.06935(11) 0.3093(3)
O30_4 O 0.72453(13) 0.02575(10) 0.3044(3)
C64_7 C 0.7455(2) 0.05189(14) 0.1927(4)
C65_7 C 0.7282(2) 0.04901(18) 0.2761(4)
C66_7 C 0.7700(2) 0.03209(12) 0.0802(4)
C67_7 C 0.7974(2) 0.03334(17) 0.0813(4)
C68_7 C 0.8119(3) 0.0357(3) 0.1731(7)
H34_7 H 0.8110 0.0191 0.2042
H35_7 H 0.8310 0.0405 0.1639
H36_7 H 0.8029 0.0491 0.2088
Cu8_5 Cu 0.74414(4) -0.0000 0.23318(7)
Ni5_4 Ni 0.73511(3) 0.10118(2) 0.24763(5)
H44_7 H 0.966506 0.24736 0.0681074
H56_7 H 0.715844 0.0284222 0.068145
Cu2_7 Cu 0.82483(2) 0.15756(2) 0.73089(6)
Cu3_5 Cu 0.74414(4) -0.0000 0.76682(7)
Cu4_7 Cu 0.66466(3) 0.17822(2) 0.73027(6)
Ni1_7 Ni 0.73511(3) 0.10118(2) 0.75237(5)
N1_7 N 0.96783(13) 0.21135(12) 0.8379(3)
N2_7 N 0.85594(14) 0.17076(14) 0.6619(4)
N3_7 N 0.80826(18) 0.12820(13) 0.6637(4)
N4_7 N 0.75572(14) 0.02997(12) 0.8382(3)
N5_7 N 0.69298(14) 0.16212(12) 0.6611(3)
N6_7 N 0.65744(16) 0.21072(13) 0.6629(4)
O1_7 O 0.97300(13) 0.24115(11) 0.6953(4)
O6_7 O 0.83247(16) 0.18954(14) 0.8017(4)
O7_7 O 0.79110(14) 0.15484(12) 0.8022(3)
O8_7 O 0.75413(13) 0.13037(11) 0.8180(3)
O9_7 O 0.77106(13) 0.10030(11) 0.6797(3)
O10_7 O 0.74764(11) 0.07419(10) 0.8395(3)
O11_7 O 0.71920(13) 0.06935(11) 0.6907(3)
O12_7 O 0.72453(13) 0.02575(10) 0.6956(3)
O13_7 O 0.69822(13) 0.11238(11) 0.8181(3)
O14_7 O 0.72073(14) 0.12575(12) 0.6634(3)
O15_7 O 0.67110(13) 0.14804(12) 0.8130(3)
O16_7 O 0.63903(16) 0.19484(13) 0.8176(3)
C1_7 C 0.94647(16) 0.22127(18) 0.8061(5)
C2_7 C 0.9489(3) 0.23824(17) 0.7250(5)
C3_7 C 0.96609(13) 0.19848(14) 0.9194(4)
C4_7 C 0.96519(15) 0.17232(19) 0.9181(4)
C5_14 C 0.9632(2) 0.1580(2) 1.0000
H1_14 H 0.9607 0.1397 1.0000
C6_14 C 0.9657(2) 0.21120(18) 1.0000
C7_7 C 0.9636(2) 0.15731(18) 0.8314(5)
H2_7 H 0.9528 0.1671 0.7883
H3_7 H 0.9549 0.1405 0.8421
H4_7 H 0.9820 0.1546 0.8079
C8_14 C 0.9670(3) 0.2403(3) 1.0000
C9_7 C 0.8683(2) 0.19151(19) 0.7017(4)
C10_7 C 0.8525(2) 0.20113(19) 0.7813(6)
C11_7 C 0.86783(15) 0.16191(13) 0.5792(4)
C12_7 C 0.88824(17) 0.14341(15) 0.5815(4)
C13_7 C 0.8989(2) 0.1338(2) 0.5000
H5_7 H 0.9129 0.1211 0.5000
C14_7 C 0.90014(18) 0.13361(18) 0.6682(4)
H6_7 H 0.9142 0.1456 0.6888
H7_7 H 0.9082 0.1164 0.6589
H8_7 H 0.8857 0.1324 0.7129
C15_7 C 0.8579(2) 0.17158(18) 0.5000
C16_7 C 0.8365(2) 0.1928(2) 0.5000
C17_7 C 0.7851(2) 0.11930(19) 0.6999(4)
C18_7 C 0.7770(2) 0.13727(17) 0.7817(5)
C19_7 C 0.8070(3) 0.1264(2) 0.5000
C20_7 C 0.81704(16) 0.11696(12) 0.5801(4)
C21_7 C 0.83426(14) 0.09725(14) 0.5811(4)
C22_7 C 0.8437(3) 0.0862(2) 0.5000
H9_7 H 0.8560 0.0720 0.5000
C23_7 C 0.8458(2) 0.08567(16) 0.6672(4)
H10_7 H 0.8533 0.0996 0.7041
H11_7 H 0.8603 0.0733 0.6527
H12_7 H 0.8313 0.0768 0.6996
C24_7 C 0.7864(3) 0.1479(2) 0.5000
C25_7 C 0.7455(2) 0.05189(14) 0.8073(4)
C26_7 C 0.7282(2) 0.04901(18) 0.7239(4)
C27_7 C 0.7700(2) 0.03209(12) 0.9198(4)
C28_7 C 0.7974(2) 0.03334(17) 0.9187(4)
C29_7 C 0.8119(3) 0.0357(3) 0.8269(7)
H13_7 H 0.8110 0.0191 0.7958
H14_7 H 0.8310 0.0405 0.8361
H15_7 H 0.8029 0.0491 0.7912
C30_14 C 0.8125(4) 0.0358(4) 1.0000
H16_14 H 0.8315 0.0389 1.0000
C31_14 C 0.7543(3) 0.03081(19) 1.0000
C32_14 C 0.7232(3) 0.0292(3) 1.0000
C33_7 C 0.68963(16) 0.13273(18) 0.7830(5)
C34_7 C 0.70275(17) 0.14112(16) 0.6939(4)
C35_7 C 0.6956(2) 0.1613(2) 0.5000
C36_7 C 0.70545(18) 0.16959(17) 0.5738(5)
C37_7 C 0.7262(2) 0.1857(2) 0.5805(4)
C38_7 C 0.7364(3) 0.1941(3) 0.5000
H17_7 H 0.7510 0.2061 0.5000
C39_7 C 0.6724(2) 0.1414(3) 0.5000
C40_7 C 0.7396(3) 0.1946(2) 0.6678(6)
H18_7 H 0.7255 0.1990 0.7112
H19_7 H 0.7509 0.2099 0.6565
H20_7 H 0.7510 0.1806 0.6914
C41_7 C 0.62929(18) 0.21501(17) 0.7885(5)
C42_7 C 0.63922(19) 0.2253(2) 0.6969(5)
C43_7 C 0.6595(2) 0.2116(2) 0.5000
C44_7 C 0.6694(2) 0.22145(18) 0.5799(4)
C45_7 C 0.68988(19) 0.24026(18) 0.5811(4)
C46_7 C 0.6994(2) 0.2491(2) 0.5000
H21_7 H 0.7133 0.2619 0.5000
C47_7 C 0.6361(3) 0.1927(2) 0.5000
C48_7 C 0.7000(2) 0.25243(17) 0.6698(6)
H22_7 H 0.7173 0.2614 0.6597
H23_7 H 0.7025 0.2387 0.7141
H24_7 H 0.6864 0.2649 0.6915
N8_7 N 0.85594(14) 0.17076(14) 0.3381(4)
O22_7 O 0.88999(13) 0.20255(11) 0.3195(3)
O23_7 O 0.86187(12) 0.22096(12) 0.1796(3)
O24_7 O 0.83247(16) 0.18954(14) 0.1983(4)
C54_7 C 0.8683(2) 0.19151(19) 0.2983(4)
C55_7 C 0.8525(2) 0.20113(19) 0.2187(6)
C56_7 C 0.86783(15) 0.16191(13) 0.4208(4)
C57_7 C 0.88824(17) 0.14341(15) 0.4185(4)
C58_7 C 0.90014(18) 0.13361(18) 0.3318(4)
H28_7 H 0.9142 0.1456 0.3112
H29_7 H 0.9082 0.1164 0.3411
H30_7 H 0.8857 0.1324 0.2871
N9_7 N 0.80826(18) 0.12820(13) 0.3363(4)
O25_7 O 0.79110(14) 0.15484(12) 0.1978(3)
O26_7 O 0.75413(13) 0.13037(11) 0.1820(3)
O27_7 O 0.77106(13) 0.10030(11) 0.3203(3)
C59_7 C 0.7851(2) 0.11930(19) 0.3001(4)
C60_7 C 0.7770(2) 0.13727(17) 0.2183(5)
C61_7 C 0.81704(16) 0.11696(12) 0.4199(4)
C62_7 C 0.83426(14) 0.09725(14) 0.4189(4)
C63_7 C 0.8458(2) 0.08567(16) 0.3328(4)
H31_7 H 0.8533 0.0996 0.2959
H32_7 H 0.8603 0.0733 0.3473
H33_7 H 0.8313 0.0768 0.3004
N11_7 N 0.69298(14) 0.16212(12) 0.3389(3)
O31_7 O 0.69822(13) 0.11238(11) 0.1819(3)
O32_7 O 0.72073(14) 0.12575(12) 0.3366(3)
O33_7 O 0.67110(13) 0.14804(12) 0.1870(3)
C69_7 C 0.68963(16) 0.13273(18) 0.2170(5)
C70_7 C 0.70275(17) 0.14112(16) 0.3061(4)
C71_7 C 0.70545(18) 0.16959(17) 0.4262(5)
C72_7 C 0.7262(2) 0.1857(2) 0.4195(4)
C73_7 C 0.7396(3) 0.1946(2) 0.3322(6)
H37_7 H 0.7255 0.1990 0.2888
H38_7 H 0.7509 0.2099 0.3435
H39_7 H 0.7510 0.1806 0.3086
N12_7 N 0.65744(16) 0.21072(13) 0.3371(4)
O34_7 O 0.63903(16) 0.19484(13) 0.1824(3)
O35_7 O 0.61169(16) 0.22835(15) 0.1765(4)
O36_7 O 0.62988(13) 0.24685(11) 0.3317(3)
C74_7 C 0.62929(18) 0.21501(17) 0.2115(5)
C75_7 C 0.63922(19) 0.2253(2) 0.3031(5)
C76_7 C 0.6694(2) 0.22145(18) 0.4201(4)
C77_7 C 0.68988(19) 0.24026(18) 0.4189(4)
C78_7 C 0.7000(2) 0.25243(17) 0.3302(6)
H40_7 H 0.7173 0.2614 0.3403
H41_7 H 0.7025 0.2387 0.2859
H42_7 H 0.6864 0.2649 0.3085
Cu5_7 Cu 0.82483(2) 0.15756(2) 0.26911(6)
Cu6_7 Cu 0.66466(3) 0.17822(2) 0.26973(6)
H43_7 H 0.949648 0.248043 0.963662
H45_7 H 0.985788 0.24658 0.968231
H46_7 H 0.84448 0.209842 0.533767
H47_7 H 0.831303 0.197801 0.431842
H48_7 H 0.818365 0.185979 0.534391
H49_7 H 0.618367 0.201721 0.530446
H50_7 H 0.631284 0.187231 0.431966
H51_7 H 0.641746 0.175495 0.537588
H52_7 H 0.795019 0.164903 0.532298
H53_7 H 0.780959 0.152696 0.431872
H54_7 H 0.768284 0.141693 0.53583
H55_7 H 0.716793 0.0118155 0.964751
H57_7 H 0.714828 0.0462163 0.967104
H58_7 H 0.654833 0.14945 0.534402
H59_7 H 0.666834 0.136772 0.431843
H60_7 H 0.679065 0.123852 0.533755
Cu8_6 Cu 0.74414(4) 1.0000 0.23318(7)
Cu3_6 Cu 0.74414(4) 1.0000 0.76682(7)
N14_4 N 0.75572(14) 0.97003(12) 0.8382(3)
O44_4 O 0.72453(13) 0.97425(10) 0.6956(3)
Cu2_8 Cu 0.82483(2) 0.84244(2) 0.26911(6)
Cu4_8 Cu 0.66466(3) 0.82178(2) 0.26973(6)
Ni1_8 Ni 0.73511(3) 0.89882(2) 0.24763(5)
N1_8 N 0.96783(13) 0.78865(12) 0.1621(3)
N2_8 N 0.85594(14) 0.82924(14) 0.3381(4)
N3_8 N 0.80826(18) 0.87180(13) 0.3363(4)
N4_8 N 0.75572(14) 0.97003(12) 0.1618(3)
N5_8 N 0.69298(14) 0.83788(12) 0.3389(3)
N6_8 N 0.65744(16) 0.78928(13) 0.3371(4)
O1_8 O 0.97300(13) 0.75885(11) 0.3047(4)
O6_8 O 0.83247(16) 0.81046(14) 0.1983(4)
O7_8 O 0.79110(14) 0.84516(12) 0.1978(3)
O8_8 O 0.75413(13) 0.86963(11) 0.1820(3)
O9_8 O 0.77106(13) 0.89970(11) 0.3203(3)
O10_8 O 0.74764(11) 0.92581(10) 0.1605(3)
O11_8 O 0.71920(13) 0.93065(11) 0.3093(3)
O12_8 O 0.72453(13) 0.97425(10) 0.3044(3)
O13_8 O 0.69822(13) 0.88762(11) 0.1819(3)
O14_8 O 0.72073(14) 0.87425(12) 0.3366(3)
O15_8 O 0.67110(13) 0.85196(12) 0.1870(3)
O16_8 O 0.63903(16) 0.80516(13) 0.1824(3)
C1_8 C 0.94647(16) 0.77873(18) 0.1939(5)
C2_8 C 0.9489(3) 0.76176(17) 0.2750(5)
C3_8 C 0.96609(13) 0.80152(14) 0.0806(4)
C4_8 C 0.96519(15) 0.82768(19) 0.0819(4)
C5_15 C 0.9632(2) 0.8420(2) 0.0000
H1_15 H 0.9607 0.8603 0.0000
C6_15 C 0.9657(2) 0.78880(18) 0.0000
C7_8 C 0.9636(2) 0.84269(18) 0.1686(5)
H2_8 H 0.9528 0.8329 0.2117
H3_8 H 0.9549 0.8595 0.1579
H4_8 H 0.9820 0.8454 0.1921
C8_15 C 0.9670(3) 0.7597(3) 0.0000
C9_8 C 0.8683(2) 0.80849(19) 0.2983(4)
C10_8 C 0.8525(2) 0.79887(19) 0.2187(6)
C11_8 C 0.86783(15) 0.83809(13) 0.4208(4)
C12_8 C 0.88824(17) 0.85659(15) 0.4185(4)
C13_8 C 0.8989(2) 0.8662(2) 0.5000
H5_8 H 0.9129 0.8789 0.5000
C14_8 C 0.90014(18) 0.86639(18) 0.3318(4)
H6_8 H 0.9142 0.8544 0.3112
H7_8 H 0.9082 0.8836 0.3411
H8_8 H 0.8857 0.8676 0.2871
C15_8 C 0.8579(2) 0.82842(18) 0.5000
C16_8 C 0.8365(2) 0.8072(2) 0.5000
C17_8 C 0.7851(2) 0.88070(19) 0.3001(4)
C18_8 C 0.7770(2) 0.86273(17) 0.2183(5)
C19_8 C 0.8070(3) 0.8736(2) 0.5000
C20_8 C 0.81704(16) 0.88304(12) 0.4199(4)
C21_8 C 0.83426(14) 0.90275(14) 0.4189(4)
C22_8 C 0.8437(3) 0.9138(2) 0.5000
H9_8 H 0.8560 0.9280 0.5000
C23_8 C 0.8458(2) 0.91433(16) 0.3328(4)
H10_8 H 0.8533 0.9004 0.2959
H11_8 H 0.8603 0.9267 0.3473
H12_8 H 0.8313 0.9232 0.3004
C24_8 C 0.7864(3) 0.8521(2) 0.5000
C25_8 C 0.7455(2) 0.94811(14) 0.1927(4)
C26_8 C 0.7282(2) 0.95099(18) 0.2761(4)
C27_8 C 0.7700(2) 0.96791(12) 0.0802(4)
C28_8 C 0.7974(2) 0.96666(17) 0.0813(4)
C29_8 C 0.8119(3) 0.9643(3) 0.1731(7)
H13_8 H 0.8110 0.9809 0.2042
H14_8 H 0.8310 0.9595 0.1639
H15_8 H 0.8029 0.9509 0.2088
C30_15 C 0.8125(4) 0.9642(4) 0.0000
H16_15 H 0.8315 0.9611 0.0000
C31_15 C 0.7543(3) 0.96919(19) 0.0000
C32_15 C 0.7232(3) 0.9708(3) 0.0000
C33_8 C 0.68963(16) 0.86727(18) 0.2170(5)
C34_8 C 0.70275(17) 0.85888(16) 0.3061(4)
C35_8 C 0.6956(2) 0.8387(2) 0.5000
C36_8 C 0.70545(18) 0.83041(17) 0.4262(5)
C37_8 C 0.7262(2) 0.8143(2) 0.4195(4)
C38_8 C 0.7364(3) 0.8059(3) 0.5000
H17_8 H 0.7510 0.7939 0.5000
C39_8 C 0.6724(2) 0.8586(3) 0.5000
C40_8 C 0.7396(3) 0.8054(2) 0.3322(6)
H18_8 H 0.7255 0.8010 0.2888
H19_8 H 0.7509 0.7901 0.3435
H20_8 H 0.7510 0.8194 0.3086
C41_8 C 0.62929(18) 0.78499(17) 0.2115(5)
C42_8 C 0.63922(19) 0.7747(2) 0.3031(5)
C43_8 C 0.6595(2) 0.7884(2) 0.5000
C44_8 C 0.6694(2) 0.77855(18) 0.4201(4)
C45_8 C 0.68988(19) 0.75974(18) 0.4189(4)
C46_8 C 0.6994(2) 0.7509(2) 0.5000
H21_8 H 0.7133 0.7381 0.5000
C47_8 C 0.6361(3) 0.8073(2) 0.5000
C48_8 C 0.7000(2) 0.74757(17) 0.3302(6)
H22_8 H 0.7173 0.7386 0.3403
H23_8 H 0.7025 0.7613 0.2859
H24_8 H 0.6864 0.7351 0.3085
N8_8 N 0.85594(14) 0.82924(14) 0.6619(4)
O22_8 O 0.88999(13) 0.79745(11) 0.6805(3)
O23_8 O 0.86187(12) 0.77904(12) 0.8204(3)
O24_8 O 0.83247(16) 0.81046(14) 0.8017(4)
C54_8 C 0.8683(2) 0.80849(19) 0.7017(4)
C55_8 C 0.8525(2) 0.79887(19) 0.7813(6)
C56_8 C 0.86783(15) 0.83809(13) 0.5792(4)
C57_8 C 0.88824(17) 0.85659(15) 0.5815(4)
C58_8 C 0.90014(18) 0.86639(18) 0.6682(4)
H28_8 H 0.9142 0.8544 0.6888
H29_8 H 0.9082 0.8836 0.6589
H30_8 H 0.8857 0.8676 0.7129
N9_8 N 0.80826(18) 0.87180(13) 0.6637(4)
O25_8 O 0.79110(14) 0.84516(12) 0.8022(3)
O26_8 O 0.75413(13) 0.86963(11) 0.8180(3)
O27_8 O 0.77106(13) 0.89970(11) 0.6797(3)
C59_8 C 0.7851(2) 0.88070(19) 0.6999(4)
C60_8 C 0.7770(2) 0.86273(17) 0.7817(5)
C61_8 C 0.81704(16) 0.88304(12) 0.5801(4)
C62_8 C 0.83426(14) 0.90275(14) 0.5811(4)
C63_8 C 0.8458(2) 0.91433(16) 0.6672(4)
H31_8 H 0.8533 0.9004 0.7041
H32_8 H 0.8603 0.9267 0.6527
H33_8 H 0.8313 0.9232 0.6996
N11_8 N 0.69298(14) 0.83788(12) 0.6611(3)
O31_8 O 0.69822(13) 0.88762(11) 0.8181(3)
O32_8 O 0.72073(14) 0.87425(12) 0.6634(3)
O33_8 O 0.67110(13) 0.85196(12) 0.8130(3)
C69_8 C 0.68963(16) 0.86727(18) 0.7830(5)
C70_8 C 0.70275(17) 0.85888(16) 0.6939(4)
C71_8 C 0.70545(18) 0.83041(17) 0.5738(5)
C72_8 C 0.7262(2) 0.8143(2) 0.5805(4)
C73_8 C 0.7396(3) 0.8054(2) 0.6678(6)
H37_8 H 0.7255 0.8010 0.7112
H38_8 H 0.7509 0.7901 0.6565
H39_8 H 0.7510 0.8194 0.6914
N12_8 N 0.65744(16) 0.78928(13) 0.6629(4)
O34_8 O 0.63903(16) 0.80516(13) 0.8176(3)
O35_8 O 0.61169(16) 0.77165(15) 0.8235(4)
O36_8 O 0.62988(13) 0.75315(11) 0.6683(3)
C74_8 C 0.62929(18) 0.78499(17) 0.7885(5)
C75_8 C 0.63922(19) 0.7747(2) 0.6969(5)
C76_8 C 0.6694(2) 0.77855(18) 0.5799(4)
C77_8 C 0.68988(19) 0.75974(18) 0.5811(4)
C78_8 C 0.7000(2) 0.74757(17) 0.6698(6)
H40_8 H 0.7173 0.7386 0.6597
H41_8 H 0.7025 0.7613 0.7141
H42_8 H 0.6864 0.7351 0.6915
Cu5_8 Cu 0.82483(2) 0.84244(2) 0.73089(6)
Cu6_8 Cu 0.66466(3) 0.82178(2) 0.73027(6)
Ni3_4 Ni 0.73511(3) 0.89882(2) 0.75237(5)
O42_4 O 0.74764(11) 0.92581(10) 0.8395(3)
O43_4 O 0.71920(13) 0.93065(11) 0.6907(3)
H43_8 H 0.949648 0.751957 0.0363385
H45_8 H 0.985788 0.75342 0.0317689
H46_8 H 0.84448 0.790158 0.466233
H47_8 H 0.831303 0.802199 0.568158
H48_8 H 0.818365 0.814021 0.465609
H49_8 H 0.618367 0.798279 0.469554
H50_8 H 0.631284 0.812769 0.568034
H51_8 H 0.641746 0.824505 0.462412
H52_8 H 0.795019 0.835097 0.467702
H53_8 H 0.780959 0.847304 0.568128
H54_8 H 0.768284 0.858307 0.46417
H55_8 H 0.716793 0.988184 0.0352486
H57_8 H 0.714828 0.953784 0.0328963
H58_8 H 0.654833 0.85055 0.465598
H59_8 H 0.666834 0.863228 0.568157
H60_8 H 0.679065 0.876148 0.466245
C5_16 C 0.9632(2) 0.8420(2) 1.0000
H1_16 H 0.9607 0.8603 1.0000
C6_16 C 0.9657(2) 0.78880(18) 1.0000
C8_16 C 0.9670(3) 0.7597(3) 1.0000
C30_16 C 0.8125(4) 0.9642(4) 1.0000
H16_16 H 0.8315 0.9611 1.0000
C31_16 C 0.7543(3) 0.96919(19) 1.0000
C32_16 C 0.7232(3) 0.9708(3) 1.0000
O20_8 O 0.92810(12) 0.75157(11) 0.6913(3)
O21_8 O 0.92078(12) 0.78112(11) 0.8397(3)
C49_8 C 0.94647(16) 0.77873(18) 0.8061(5)
C50_8 C 0.9489(3) 0.76176(17) 0.7250(5)
C51_8 C 0.96609(13) 0.80152(14) 0.9194(4)
C52_8 C 0.96519(15) 0.82768(19) 0.9181(4)
C53_8 C 0.9636(2) 0.84269(18) 0.8314(5)
H25_8 H 0.9528 0.8329 0.7883
H26_8 H 0.9549 0.8595 0.8421
H27_8 H 0.9820 0.8454 0.8079
C64_8 C 0.7455(2) 0.94811(14) 0.8073(4)
C65_8 C 0.7282(2) 0.95099(18) 0.7239(4)
C66_8 C 0.7700(2) 0.96791(12) 0.9198(4)
C67_8 C 0.7974(2) 0.96666(17) 0.9187(4)
C68_8 C 0.8119(3) 0.9643(3) 0.8269(7)
H34_8 H 0.8110 0.9809 0.7958
H35_8 H 0.8310 0.9595 0.8361
H36_8 H 0.8029 0.9509 0.7912
H44_8 H 0.966506 0.75264 0.931893
H56_8 H 0.715844 0.971578 0.931855
H44_9 H 0.466506 0.25264 0.0681074
H56_9 H 0.215844 0.471578 0.068145
H43_9 H 0.449648 0.251957 0.963662
H45_9 H 0.485788 0.25342 0.968231
H46_9 H 0.34448 0.290158 0.533767
H47_9 H 0.331303 0.302199 0.431842
H48_9 H 0.318365 0.314021 0.534391
H49_9 H 0.118367 0.298279 0.530446
H50_9 H 0.131284 0.312769 0.431966
H51_9 H 0.141746 0.324505 0.537588
H52_9 H 0.295019 0.335097 0.532298
H53_9 H 0.280959 0.347304 0.431872
H54_9 H 0.268284 0.358307 0.53583
H55_9 H 0.216793 0.488184 0.964751
H57_9 H 0.214828 0.453784 0.967104
H58_9 H 0.154833 0.35055 0.534402
H59_9 H 0.166834 0.363228 0.431843
H60_9 H 0.179065 0.376148 0.533755
H43_10 H 0.449648 0.748043 0.0363385
H45_10 H 0.485788 0.74658 0.0317689
H46_10 H 0.34448 0.709842 0.466233
H47_10 H 0.331303 0.697801 0.568158
H48_10 H 0.318365 0.685979 0.465609
H49_10 H 0.118367 0.701721 0.469554
H50_10 H 0.131284 0.687231 0.568034
H51_10 H 0.141746 0.675495 0.462412
H52_10 H 0.295019 0.664903 0.467702
H53_10 H 0.280959 0.652696 0.568128
H54_10 H 0.268284 0.641693 0.46417
H55_10 H 0.216793 0.511816 0.0352486
H57_10 H 0.214828 0.546216 0.0328963
H58_10 H 0.154833 0.64945 0.465598
H59_10 H 0.166834 0.636772 0.568157
H60_10 H 0.179065 0.623852 0.466245
H44_10 H 0.466506 0.74736 0.931893
H56_10 H 0.215844 0.528422 0.931855
H43_11 H 0.550352 0.251957 0.0363385
H45_11 H 0.514212 0.25342 0.0317689
H46_11 H 0.65552 0.290158 0.466233
H47_11 H 0.668697 0.302199 0.568158
H48_11 H 0.681635 0.314021 0.465609
H49_11 H 0.881633 0.298279 0.469554
H50_11 H 0.868716 0.312769 0.568034
H51_11 H 0.858254 0.324505 0.462412
H52_11 H 0.704981 0.335097 0.467702
H53_11 H 0.719041 0.347304 0.568128
H54_11 H 0.731716 0.358307 0.46417
H55_11 H 0.783207 0.488184 0.0352486
H57_11 H 0.785172 0.453784 0.0328963
H58_11 H 0.845167 0.35055 0.465598
H59_11 H 0.833166 0.363228 0.568157
H60_11 H 0.820935 0.376148 0.466245
H44_11 H 0.533494 0.25264 0.931893
H56_11 H 0.784156 0.471578 0.931855
H44_12 H 0.533494 0.74736 0.0681074
H56_12 H 0.784156 0.528422 0.068145
H43_12 H 0.550352 0.748043 0.963662
H45_12 H 0.514212 0.74658 0.968231
H46_12 H 0.65552 0.709842 0.533767
H47_12 H 0.668697 0.697801 0.431842
H48_12 H 0.681635 0.685979 0.534391
H49_12 H 0.881633 0.701721 0.530446
H50_12 H 0.868716 0.687231 0.431966
H51_12 H 0.858254 0.675495 0.537588
H52_12 H 0.704981 0.664903 0.532298
H53_12 H 0.719041 0.652696 0.431872
H54_12 H 0.731716 0.641693 0.53583
H55_12 H 0.783207 0.511816 0.964751
H57_12 H 0.785172 0.546216 0.967104
H58_12 H 0.845167 0.64945 0.534402
H59_12 H 0.833166 0.636772 0.431843
H60_12 H 0.820935 0.623852 0.533755
H44_13 H 0.966506 0.75264 0.0681074
H56_13 H 0.715844 0.971578 0.068145
H43_13 H 0.949648 0.751957 0.963662
H45_13 H 0.985788 0.75342 0.968231
H46_13 H 0.84448 0.790158 0.533767
H47_13 H 0.831303 0.802199 0.431842
H48_13 H 0.818365 0.814021 0.534391
H49_13 H 0.618367 0.798279 0.530446
H50_13 H 0.631284 0.812769 0.431966
H51_13 H 0.641746 0.824505 0.537588
H52_13 H 0.795019 0.835097 0.532298
H53_13 H 0.780959 0.847304 0.431872
H54_13 H 0.768284 0.858307 0.53583
H55_13 H 0.716793 0.988184 0.964751
H57_13 H 0.714828 0.953784 0.967104
H58_13 H 0.654833 0.85055 0.534402
H59_13 H 0.666834 0.863228 0.431843
H60_13 H 0.679065 0.876148 0.533755
H43_14 H 0.949648 0.248043 0.0363385
H45_14 H 0.985788 0.24658 0.0317689
H46_14 H 0.84448 0.209842 0.466233
H47_14 H 0.831303 0.197801 0.568158
H48_14 H 0.818365 0.185979 0.465609
H49_14 H 0.618367 0.201721 0.469554
H50_14 H 0.631284 0.187231 0.568034
H51_14 H 0.641746 0.175495 0.462412
H52_14 H 0.795019 0.164903 0.467702
H53_14 H 0.780959 0.152696 0.568128
H54_14 H 0.768284 0.141693 0.46417
H55_14 H 0.716793 0.0118155 0.0352486
H57_14 H 0.714828 0.0462163 0.0328963
H58_14 H 0.654833 0.14945 0.465598
H59_14 H 0.666834 0.136772 0.568157
H60_14 H 0.679065 0.123852 0.466245
H44_14 H 0.966506 0.24736 0.931893
H56_14 H 0.715844 0.0284222 0.931855
H43_15 H 0.0503521 0.751957 0.0363385
H45_15 H 0.0142117 0.75342 0.0317689
H46_15 H 0.15552 0.790158 0.466233
H47_15 H 0.168697 0.802199 0.568158
H48_15 H 0.181635 0.814021 0.465609
H49_15 H 0.381633 0.798279 0.469554
H50_15 H 0.368716 0.812769 0.568034
H51_15 H 0.358254 0.824505 0.462412
H52_15 H 0.204981 0.835097 0.467702
H53_15 H 0.219041 0.847304 0.568128
H54_15 H 0.231716 0.858307 0.46417
H55_15 H 0.283207 0.988184 0.0352486
H57_15 H 0.285172 0.953784 0.0328963
H58_15 H 0.345167 0.85055 0.465598
H59_15 H 0.333166 0.863228 0.568157
H60_15 H 0.320935 0.876148 0.466245
H44_15 H 0.0334943 0.75264 0.931893
H56_15 H 0.284156 0.971578 0.931855
H44_16 H 0.0334943 0.24736 0.0681074
H56_16 H 0.284156 0.0284222 0.068145
H43_16 H 0.0503521 0.248043 0.963662
H45_16 H 0.0142117 0.24658 0.968231
H46_16 H 0.15552 0.209842 0.533767
H47_16 H 0.168697 0.197801 0.431842
H48_16 H 0.181635 0.185979 0.534391
H49_16 H 0.381633 0.201721 0.530446
H50_16 H 0.368716 0.187231 0.431966
H51_16 H 0.358254 0.175495 0.537588
H52_16 H 0.204981 0.164903 0.532298
H53_16 H 0.219041 0.152696 0.431872
H54_16 H 0.231716 0.141693 0.53583
H55_16 H 0.283207 0.0118155 0.964751
H57_16 H 0.285172 0.0462163 0.967104
H58_16 H 0.345167 0.14945 0.534402
H59_16 H 0.333166 0.136772 0.431843
H60_16 H 0.320935 0.123852 0.533755
loop_
_geom_bond_atom_site_label_1
_geom_bond_atom_site_label_2
_geom_bond_site_symmetry_1
_geom_bond_site_symmetry_2
Cu1 N1 1_555 1_555
Cu2 N2 1_555 1_555
Cu3 N4 1_555 1_555
Cu4 N5 1_555 1_555
Ni1 O8 1_555 1_555
Ni2 O2 1_555 1_555
N1 C1 1_555 1_555
N2 C9 1_555 1_555
N3 Cu2 1_555 1_555
N4 C25 1_555 1_555
N5 C34 1_555 1_555
N6 Cu4 1_555 1_555
O1 Cu1 1_555 1_555
O2 C2 1_555 1_555
O3 Ni2 1_555 1_555
O4 Ni2 1_555 1_555
O5 Ni2 1_555 1_555
O6 Cu2 1_555 1_555
O7 Cu2 1_555 1_555
O8 C18 1_555 1_555
O9 Ni1 1_555 1_555
O10 Ni1 1_555 1_555
O11 Ni1 1_555 1_555
O12 Cu3 1_555 1_555
O13 Ni1 1_555 1_555
O14 Ni1 1_555 1_555
O15 Cu4 1_555 1_555
O16 Cu4 1_555 1_555
O17 C41 1_555 1_555
O18 C42 1_555 1_555
C1 O3 1_555 1_555
C2 O1 1_555 1_555
C3 N1 1_555 1_555
C4 C3 1_555 1_555
C5 C4 1_555 1_555
H1 C5 1_555 1_555
C6 C3 1_555 1_555
C7 C4 1_555 1_555
H2 C7 1_555 1_555
H3 C7 1_555 1_555
H4 C7 1_555 1_555
C8 C6 1_555 1_555
C9 O4 1_555 1_555
C10 O5 1_555 1_555
C11 N2 1_555 1_555
C12 C11 1_555 1_555
C13 C12 1_555 1_555
H5 C13 1_555 1_555
C14 C12 1_555 1_555
H6 C14 1_555 1_555
H7 C14 1_555 1_555
H8 C14 1_555 1_555
C15 C11 1_555 1_555
C16 C15 1_555 1_555
C17 N3 1_555 1_555
C18 O7 1_555 1_555
C19 C20 1_555 1_555
C20 N3 1_555 1_555
C21 C20 1_555 1_555
C22 C21 1_555 1_555
H9 C22 1_555 1_555
C23 C21 1_555 1_555
H10 C23 1_555 1_555
H11 C23 1_555 1_555
H12 C23 1_555 1_555
C24 C19 1_555 1_555
C25 O10 1_555 1_555
C26 O11 1_555 1_555
C27 N4 1_555 1_555
C28 C27 1_555 1_555
C29 C28 1_555 1_555
H13 C29 1_555 1_555
H14 C29 1_555 1_555
H15 C29 1_555 1_555
C30 C28 1_555 1_555
H16 C30 1_555 1_555
C31 C27 1_555 1_555
C32 C31 1_555 1_555
C33 O13 1_555 1_555
C34 O14 1_555 1_555
C35 C36 1_555 1_555
C36 N5 1_555 1_555
C37 C36 1_555 1_555
C38 C37 1_555 1_555
H17 C38 1_555 1_555
C39 C35 1_555 1_555
C40 C37 1_555 1_555
H18 C40 1_555 1_555
H19 C40 1_555 1_555
H20 C40 1_555 1_555
C41 O16 1_555 1_555
C42 N6 1_555 1_555
C43 C44 1_555 1_555
C44 N6 1_555 1_555
C45 C44 1_555 1_555
C46 C45 1_555 1_555
H21 C46 1_555 1_555
C47 C43 1_555 1_555
C48 C45 1_555 1_555
H22 C48 1_555 1_555
H23 C48 1_555 1_555
H24 C48 1_555 1_555
N8 C54 1_555 1_555
O22 C54 1_555 1_555
O23 C55 1_555 1_555
O24 C55 1_555 1_555
C54 C55 1_555 1_555
C56 C15 1_555 1_555
C57 C13 1_555 1_555
C58 C57 1_555 1_555
H28 C58 1_555 1_555
H29 C58 1_555 1_555
H30 C58 1_555 1_555
N9 C59 1_555 1_555
O25 C60 1_555 1_555
O26 C60 1_555 1_555
O27 C59 1_555 1_555
C59 C60 1_555 1_555
C61 C19 1_555 1_555
C62 C22 1_555 1_555
C63 C62 1_555 1_555
H31 C63 1_555 1_555
H32 C63 1_555 1_555
H33 C63 1_555 1_555
N11 C70 1_555 1_555
O31 C69 1_555 1_555
O32 C70 1_555 1_555
O33 C69 1_555 1_555
C69 C70 1_555 1_555
C71 C35 1_555 1_555
C72 C38 1_555 1_555
C73 C72 1_555 1_555
H37 C73 1_555 1_555
H38 C73 1_555 1_555
H39 C73 1_555 1_555
N12 C75 1_555 1_555
O34 C74 1_555 1_555
O35 C74 1_555 1_555
O36 C75 1_555 1_555
C74 C75 1_555 1_555
C76 C43 1_555 1_555
C77 C46 1_555 1_555
C78 C77 1_555 1_555
H40 C78 1_555 1_555
H41 C78 1_555 1_555
H42 C78 1_555 1_555
Cu5 N8 1_555 1_555
Cu6 N11 1_555 1_555
Ni3 O26 1_555 1_555
Ni4 O17 1_555 1_555
Ni7 O22 1_555 1_555
Ni8 O35 1_555 1_555
N13 Cu1 1_555 1_555
N14 Cu3 1_555 1_555
O37 Cu1 1_555 1_555
O38 Ni4 1_555 1_555
O39 Ni4 1_555 1_555
O40 Ni4 1_555 1_555
O41 Ni4 1_555 1_555
O42 Ni3 1_555 1_555
O43 Ni3 1_555 1_555
O44 Cu3 1_555 1_555
O45 Ni2 1_555 1_555
O46 Ni2 1_555 1_555
O6 C10 1_555 1_555
O9 C17 1_555 1_555
O12 C26 1_555 1_555
O15 C33 1_555 1_555
O18 Ni4 1_555 1_555
C1 C2 1_555 1_555
C9 C10 1_555 1_555
C17 C18 1_555 1_555
C25 C26 1_555 1_555
C33 C34 1_555 1_555
C41 C42 1_555 1_555
N8 C56 1_555 1_555
O23 Ni7 1_555 1_555
O24 Cu5 1_555 1_555
C56 C57 1_555 1_555
N9 C61 1_555 1_555
N9 Cu5 1_555 1_555
O25 Cu5 1_555 1_555
O27 Ni3 1_555 1_555
C61 C62 1_555 1_555
N11 C71 1_555 1_555
O31 Ni3 1_555 1_555
O32 Ni3 1_555 1_555
O33 Cu6 1_555 1_555
C71 C72 1_555 1_555
N12 C76 1_555 1_555
N12 Cu6 1_555 1_555
O34 Cu6 1_555 1_555
O36 Ni8 1_555 1_555
C76 C77 1_555 1_555
C8 H43 1_555 1_555
C8 H45 1_555 1_555
C16 H46 1_555 1_555
C16 H47 1_555 1_555
C16 H48 1_555 1_555
C47 H49 1_555 1_555
C47 H50 1_555 1_555
C47 H51 1_555 1_555
C24 H52 1_555 1_555
C24 H53 1_555 1_555
C24 H54 1_555 1_555
C32 H55 1_555 1_555
C32 H57 1_555 1_555
C39 H58 1_555 1_555
C39 H59 1_555 1_555
C39 H60 1_555 1_555
H1_2 C5_2 1_555 1_555
C8_2 C6_2 1_555 1_555
H16_2 C30_2 1_555 1_555
C32_2 C31_2 1_555 1_555
N7 C49 1_555 1_555
O19 C50 1_555 1_555
O20 C50 1_555 1_555
O21 C49 1_555 1_555
C49 C50 1_555 1_555
C51 C6_2 1_555 1_555
C52 C5_2 1_555 1_555
C53 C52 1_555 1_555
H25 C53 1_555 1_555
H26 C53 1_555 1_555
H27 C53 1_555 1_555
N10 C64 1_555 1_555
O42 C64 1_555 1_555
O43 C65 1_555 1_555
O30 C65 1_555 1_555
C64 C65 1_555 1_555
C66 C31_2 1_555 1_555
C67 C30_2 1_555 1_555
C68 C67 1_555 1_555
H34 C68 1_555 1_555
H35 C68 1_555 1_555
H36 C68 1_555 1_555
Cu7 N7 1_555 1_555
Cu8 N10 1_555 1_555
Ni7 O20 1_555 1_555
N7 C51 1_555 1_555
O19 Cu7 1_555 1_555
O21 Ni7 1_555 1_555
C51 C52 1_555 1_555
N10 C66 1_555 1_555
O30 Cu8 1_555 1_555
C66 C67 1_555 1_555
C8_2 H44 1_555 1_555
C32_2 H56 1_555 1_555
H1_3 C5_3 1_555 1_555
C8_3 C6_3 1_555 1_555
H16_3 C30_3 1_555 1_555
C32_3 C31_3 1_555 1_555
N7_2 C49_2 1_555 1_555
O19_2 C50_2 1_555 1_555
O20_2 C50_2 1_555 1_555
O21_2 C49_2 1_555 1_555
C49_2 C50_2 1_555 1_555
C51_2 C6_3 1_555 1_555
C52_2 C5_3 1_555 1_555
C53_2 C52_2 1_555 1_555
H25_2 C53_2 1_555 1_555
H26_2 C53_2 1_555 1_555
H27_2 C53_2 1_555 1_555
N14 C64_2 1_555 1_555
O28 C64_2 1_555 1_555
O29 C65_2 1_555 1_555
O44 C65_2 1_555 1_555
C64_2 C65_2 1_555 1_555
C66_2 C31_3 1_555 1_555
C67_2 C30_3 1_555 1_555
C68_2 C67_2 1_555 1_555
H34_2 C68_2 1_555 1_555
H35_2 C68_2 1_555 1_555
H36_2 C68_2 1_555 1_555
Cu7_2 N7_2 1_555 1_555
Ni5 O28 1_555 1_555
Ni6 O20_2 1_555 1_555
N7_2 C51_2 1_555 1_555
O19_2 Cu7_2 1_555 1_555
O21_2 Ni6 1_555 1_555
C51_2 C52_2 1_555 1_555
N14 C66_2 1_555 1_555
O29 Ni5 1_555 1_555
C66_2 C67_2 1_555 1_555
C8_3 H44_2 1_555 1_555
C32_3 H56_2 1_555 1_555
Cu1_2 N1_2 1_555 1_555
Cu2_2 N2_2 1_555 1_555
Cu8 N4_2 1_555 1_555
Cu4_2 N5_2 1_555 1_555
Ni1_2 O8_2 1_555 1_555
Ni2_2 O2_2 1_555 1_555
N1_2 C1_2 1_555 1_555
N2_2 C9_2 1_555 1_555
N3_2 Cu2_2 1_555 1_555
N4_2 C25_2 1_555 1_555
N5_2 C34_2 1_555 1_555
N6_2 Cu4_2 1_555 1_555
O1_2 Cu1_2 1_555 1_555
O2_2 C2_2 1_555 1_555
O3_2 Ni2_2 1_555 1_555
O4_2 Ni2_2 1_555 1_555
O5_2 Ni2_2 1_555 1_555
O6_2 Cu2_2 1_555 1_555
O7_2 Cu2_2 1_555 1_555
O8_2 C18_2 1_555 1_555
O9_2 Ni1_2 1_555 1_555
O10_2 Ni1_2 1_555 1_555
O11_2 Ni1_2 1_555 1_555
O12_2 Cu8 1_555 1_555
O13_2 Ni1_2 1_555 1_555
O14_2 Ni1_2 1_555 1_555
O15_2 Cu4_2 1_555 1_555
O16_2 Cu4_2 1_555 1_555
O17_2 C41_2 1_555 1_555
O18_2 C42_2 1_555 1_555
C1_2 O3_2 1_555 1_555
C2_2 O1_2 1_555 1_555
C3_2 N1_2 1_555 1_555
C4_2 C3_2 1_555 1_555
C5_4 C4_2 1_555 1_555
H1_4 C5_4 1_555 1_555
C6_4 C3_2 1_555 1_555
C7_2 C4_2 1_555 1_555
H2_2 C7_2 1_555 1_555
H3_2 C7_2 1_555 1_555
H4_2 C7_2 1_555 1_555
C8_4 C6_4 1_555 1_555
C9_2 O4_2 1_555 1_555
C10_2 O5_2 1_555 1_555
C11_2 N2_2 1_555 1_555
C12_2 C11_2 1_555 1_555
C13_2 C12_2 1_555 1_555
H5_2 C13_2 1_555 1_555
C14_2 C12_2 1_555 1_555
H6_2 C14_2 1_555 1_555
H7_2 C14_2 1_555 1_555
H8_2 C14_2 1_555 1_555
C15_2 C11_2 1_555 1_555
C16_2 C15_2 1_555 1_555
C17_2 N3_2 1_555 1_555
C18_2 O7_2 1_555 1_555
C19_2 C20_2 1_555 1_555
C20_2 N3_2 1_555 1_555
C21_2 C20_2 1_555 1_555
C22_2 C21_2 1_555 1_555
H9_2 C22_2 1_555 1_555
C23_2 C21_2 1_555 1_555
H10_2 C23_2 1_555 1_555
H11_2 C23_2 1_555 1_555
H12_2 C23_2 1_555 1_555
C24_2 C19_2 1_555 1_555
C25_2 O10_2 1_555 1_555
C26_2 O11_2 1_555 1_555
C27_2 N4_2 1_555 1_555
C28_2 C27_2 1_555 1_555
C29_2 C28_2 1_555 1_555
H13_2 C29_2 1_555 1_555
H14_2 C29_2 1_555 1_555
H15_2 C29_2 1_555 1_555
C30_4 C28_2 1_555 1_555
H16_4 C30_4 1_555 1_555
C31_4 C27_2 1_555 1_555
C32_4 C31_4 1_555 1_555
C33_2 O13_2 1_555 1_555
C34_2 O14_2 1_555 1_555
C35_2 C36_2 1_555 1_555
C36_2 N5_2 1_555 1_555
C37_2 C36_2 1_555 1_555
C38_2 C37_2 1_555 1_555
H17_2 C38_2 1_555 1_555
C39_2 C35_2 1_555 1_555
C40_2 C37_2 1_555 1_555
H18_2 C40_2 1_555 1_555
H19_2 C40_2 1_555 1_555
H20_2 C40_2 1_555 1_555
C41_2 O16_2 1_555 1_555
C42_2 N6_2 1_555 1_555
C43_2 C44_2 1_555 1_555
C44_2 N6_2 1_555 1_555
C45_2 C44_2 1_555 1_555
C46_2 C45_2 1_555 1_555
H21_2 C46_2 1_555 1_555
C47_2 C43_2 1_555 1_555
C48_2 C45_2 1_555 1_555
H22_2 C48_2 1_555 1_555
H23_2 C48_2 1_555 1_555
H24_2 C48_2 1_555 1_555
N8_2 C54_2 1_555 1_555
O22_2 C54_2 1_555 1_555
O23_2 C55_2 1_555 1_555
O24_2 C55_2 1_555 1_555
C54_2 C55_2 1_555 1_555
C56_2 C15_2 1_555 1_555
C57_2 C13_2 1_555 1_555
C58_2 C57_2 1_555 1_555
H28_2 C58_2 1_555 1_555
H29_2 C58_2 1_555 1_555
H30_2 C58_2 1_555 1_555
N9_2 C59_2 1_555 1_555
O25_2 C60_2 1_555 1_555
O26_2 C60_2 1_555 1_555
O27_2 C59_2 1_555 1_555
C59_2 C60_2 1_555 1_555
C61_2 C19_2 1_555 1_555
C62_2 C22_2 1_555 1_555
C63_2 C62_2 1_555 1_555
H31_2 C63_2 1_555 1_555
H32_2 C63_2 1_555 1_555
H33_2 C63_2 1_555 1_555
N11_2 C70_2 1_555 1_555
O31_2 C69_2 1_555 1_555
O32_2 C70_2 1_555 1_555
O33_2 C69_2 1_555 1_555
C69_2 C70_2 1_555 1_555
C71_2 C35_2 1_555 1_555
C72_2 C38_2 1_555 1_555
C73_2 C72_2 1_555 1_555
H37_2 C73_2 1_555 1_555
H38_2 C73_2 1_555 1_555
H39_2 C73_2 1_555 1_555
N12_2 C75_2 1_555 1_555
O34_2 C74_2 1_555 1_555
O35_2 C74_2 1_555 1_555
O36_2 C75_2 1_555 1_555
C74_2 C75_2 1_555 1_555
C76_2 C43_2 1_555 1_555
C77_2 C46_2 1_555 1_555
C78_2 C77_2 1_555 1_555
H40_2 C78_2 1_555 1_555
H41_2 C78_2 1_555 1_555
H42_2 C78_2 1_555 1_555
Cu5_2 N8_2 1_555 1_555
Cu6_2 N11_2 1_555 1_555
Ni5 O26_2 1_555 1_555
Ni4_2 O17_2 1_555 1_555
Ni6 O22_2 1_555 1_555
Ni8_2 O35_2 1_555 1_555
N13_2 Cu1_2 1_555 1_555
O37_2 Cu1_2 1_555 1_555
O38_2 Ni4_2 1_555 1_555
O39_2 Ni4_2 1_555 1_555
O40_2 Ni4_2 1_555 1_555
O41_2 Ni4_2 1_555 1_555
O45_2 Ni2_2 1_555 1_555
O46_2 Ni2_2 1_555 1_555
O6_2 C10_2 1_555 1_555
O9_2 C17_2 1_555 1_555
O12_2 C26_2 1_555 1_555
O15_2 C33_2 1_555 1_555
O18_2 Ni4_2 1_555 1_555
C1_2 C2_2 1_555 1_555
C9_2 C10_2 1_555 1_555
C17_2 C18_2 1_555 1_555
C25_2 C26_2 1_555 1_555
C33_2 C34_2 1_555 1_555
C41_2 C42_2 1_555 1_555
N8_2 C56_2 1_555 1_555
O23_2 Ni6 1_555 1_555
O24_2 Cu5_2 1_555 1_555
C56_2 C57_2 1_555 1_555
N9_2 C61_2 1_555 1_555
N9_2 Cu5_2 1_555 1_555
O25_2 Cu5_2 1_555 1_555
O27_2 Ni5 1_555 1_555
C61_2 C62_2 1_555 1_555
N11_2 C71_2 1_555 1_555
O31_2 Ni5 1_555 1_555
O32_2 Ni5 1_555 1_555
O33_2 Cu6_2 1_555 1_555
C71_2 C72_2 1_555 1_555
N12_2 C76_2 1_555 1_555
N12_2 Cu6_2 1_555 1_555
O34_2 Cu6_2 1_555 1_555
O36_2 Ni8_2 1_555 1_555
C76_2 C77_2 1_555 1_555
C8_4 H43_2 1_555 1_555
C8_4 H45_2 1_555 1_555
C16_2 H46_2 1_555 1_555
C16_2 H47_2 1_555 1_555
C16_2 H48_2 1_555 1_555
C47_2 H49_2 1_555 1_555
C47_2 H50_2 1_555 1_555
C47_2 H51_2 1_555 1_555
C24_2 H52_2 1_555 1_555
C24_2 H53_2 1_555 1_555
C24_2 H54_2 1_555 1_555
C32_4 H55_2 1_555 1_555
C32_4 H57_2 1_555 1_555
C39_2 H58_2 1_555 1_555
C39_2 H59_2 1_555 1_555
C39_2 H60_2 1_555 1_555
H1_5 C5_5 1_555 1_555
C8_5 C6_5 1_555 1_555
H16_5 C30_5 1_555 1_555
C32_5 C31_5 1_555 1_555
N13 C49_3 1_555 1_555
O37 C50_3 1_555 1_555
O20_3 C50_3 1_555 1_555
O21_3 C49_3 1_555 1_555
C49_3 C50_3 1_555 1_555
C51_3 C6_5 1_555 1_555
C52_3 C5_5 1_555 1_555
C53_3 C52_3 1_555 1_555
H25_3 C53_3 1_555 1_555
H26_3 C53_3 1_555 1_555
H27_3 C53_3 1_555 1_555
N10_2 C64_3 1_555 1_555
O28_2 C64_3 1_555 1_555
O29_2 C65_3 1_555 1_555
O30_2 C65_3 1_555 1_555
C64_3 C65_3 1_555 1_555
C66_3 C31_5 1_555 1_555
C67_3 C30_5 1_555 1_555
C68_3 C67_3 1_555 1_555
H34_3 C68_3 1_555 1_555
H35_3 C68_3 1_555 1_555
H36_3 C68_3 1_555 1_555
Cu8_2 N10_2 1_555 1_555
Ni5_2 O28_2 1_555 1_555
Ni6_2 O20_3 1_555 1_555
N13 C51_3 1_555 1_555
O21_3 Ni6_2 1_555 1_555
C51_3 C52_3 1_555 1_555
N10_2 C66_3 1_555 1_555
O29_2 Ni5_2 1_555 1_555
O30_2 Cu8_2 1_555 1_555
C66_3 C67_3 1_555 1_555
C8_5 H44_3 1_555 1_555
C32_5 H56_3 1_555 1_555
Cu7 N1_3 1_555 1_555
Cu2_3 N2_3 1_555 1_555
Cu3_2 N4_3 1_555 1_555
Cu4_3 N5_3 1_555 1_555
Ni1_3 O8_3 1_555 1_555
Ni2_3 O2_3 1_555 1_555
N1_3 C1_3 1_555 1_555
N2_3 C9_3 1_555 1_555
N3_3 Cu2_3 1_555 1_555
N4_3 C25_3 1_555 1_555
N5_3 C34_3 1_555 1_555
N6_3 Cu4_3 1_555 1_555
O1_3 Cu7 1_555 1_555
O2_3 C2_3 1_555 1_555
O3_3 Ni2_3 1_555 1_555
O4_3 Ni2_3 1_555 1_555
O5_3 Ni2_3 1_555 1_555
O6_3 Cu2_3 1_555 1_555
O7_3 Cu2_3 1_555 1_555
O8_3 C18_3 1_555 1_555
O9_3 Ni1_3 1_555 1_555
O10_3 Ni1_3 1_555 1_555
O11_3 Ni1_3 1_555 1_555
O12_3 Cu3_2 1_555 1_555
O13_3 Ni1_3 1_555 1_555
O14_3 Ni1_3 1_555 1_555
O15_3 Cu4_3 1_555 1_555
O16_3 Cu4_3 1_555 1_555
O17_3 C41_3 1_555 1_555
O18_3 C42_3 1_555 1_555
C1_3 O3_3 1_555 1_555
C2_3 O1_3 1_555 1_555
C3_3 N1_3 1_555 1_555
C4_3 C3_3 1_555 1_555
C5_6 C4_3 1_555 1_555
H1_6 C5_6 1_555 1_555
C6_6 C3_3 1_555 1_555
C7_3 C4_3 1_555 1_555
H2_3 C7_3 1_555 1_555
H3_3 C7_3 1_555 1_555
H4_3 C7_3 1_555 1_555
C8_6 C6_6 1_555 1_555
C9_3 O4_3 1_555 1_555
C10_3 O5_3 1_555 1_555
C11_3 N2_3 1_555 1_555
C12_3 C11_3 1_555 1_555
C13_3 C12_3 1_555 1_555
H5_3 C13_3 1_555 1_555
C14_3 C12_3 1_555 1_555
H6_3 C14_3 1_555 1_555
H7_3 C14_3 1_555 1_555
H8_3 C14_3 1_555 1_555
C15_3 C11_3 1_555 1_555
C16_3 C15_3 1_555 1_555
C17_3 N3_3 1_555 1_555
C18_3 O7_3 1_555 1_555
C19_3 C20_3 1_555 1_555
C20_3 N3_3 1_555 1_555
C21_3 C20_3 1_555 1_555
C22_3 C21_3 1_555 1_555
H9_3 C22_3 1_555 1_555
C23_3 C21_3 1_555 1_555
H10_3 C23_3 1_555 1_555
H11_3 C23_3 1_555 1_555
H12_3 C23_3 1_555 1_555
C24_3 C19_3 1_555 1_555
C25_3 O10_3 1_555 1_555
C26_3 O11_3 1_555 1_555
C27_3 N4_3 1_555 1_555
C28_3 C27_3 1_555 1_555
C29_3 C28_3 1_555 1_555
H13_3 C29_3 1_555 1_555
H14_3 C29_3 1_555 1_555
H15_3 C29_3 1_555 1_555
C30_6 C28_3 1_555 1_555
H16_6 C30_6 1_555 1_555
C31_6 C27_3 1_555 1_555
C32_6 C31_6 1_555 1_555
C33_3 O13_3 1_555 1_555
C34_3 O14_3 1_555 1_555
C35_3 C36_3 1_555 1_555
C36_3 N5_3 1_555 1_555
C37_3 C36_3 1_555 1_555
C38_3 C37_3 1_555 1_555
H17_3 C38_3 1_555 1_555
C39_3 C35_3 1_555 1_555
C40_3 C37_3 1_555 1_555
H18_3 C40_3 1_555 1_555
H19_3 C40_3 1_555 1_555
H20_3 C40_3 1_555 1_555
C41_3 O16_3 1_555 1_555
C42_3 N6_3 1_555 1_555
C43_3 C44_3 1_555 1_555
C44_3 N6_3 1_555 1_555
C45_3 C44_3 1_555 1_555
C46_3 C45_3 1_555 1_555
H21_3 C46_3 1_555 1_555
C47_3 C43_3 1_555 1_555
C48_3 C45_3 1_555 1_555
H22_3 C48_3 1_555 1_555
H23_3 C48_3 1_555 1_555
H24_3 C48_3 1_555 1_555
N8_3 C54_3 1_555 1_555
O22_3 C54_3 1_555 1_555
O23_3 C55_3 1_555 1_555
O24_3 C55_3 1_555 1_555
C54_3 C55_3 1_555 1_555
C56_3 C15_3 1_555 1_555
C57_3 C13_3 1_555 1_555
C58_3 C57_3 1_555 1_555
H28_3 C58_3 1_555 1_555
H29_3 C58_3 1_555 1_555
H30_3 C58_3 1_555 1_555
N9_3 C59_3 1_555 1_555
O25_3 C60_3 1_555 1_555
O26_3 C60_3 1_555 1_555
O27_3 C59_3 1_555 1_555
C59_3 C60_3 1_555 1_555
C61_3 C19_3 1_555 1_555
C62_3 C22_3 1_555 1_555
C63_3 C62_3 1_555 1_555
H31_3 C63_3 1_555 1_555
H32_3 C63_3 1_555 1_555
H33_3 C63_3 1_555 1_555
N11_3 C70_3 1_555 1_555
O31_3 C69_3 1_555 1_555
O32_3 C70_3 1_555 1_555
O33_3 C69_3 1_555 1_555
C69_3 C70_3 1_555 1_555
C71_3 C35_3 1_555 1_555
C72_3 C38_3 1_555 1_555
C73_3 C72_3 1_555 1_555
H37_3 C73_3 1_555 1_555
H38_3 C73_3 1_555 1_555
H39_3 C73_3 1_555 1_555
N12_3 C75_3 1_555 1_555
O34_3 C74_3 1_555 1_555
O35_3 C74_3 1_555 1_555
O36_3 C75_3 1_555 1_555
C74_3 C75_3 1_555 1_555
C76_3 C43_3 1_555 1_555
C77_3 C46_3 1_555 1_555
C78_3 C77_3 1_555 1_555
H40_3 C78_3 1_555 1_555
H41_3 C78_3 1_555 1_555
H42_3 C78_3 1_555 1_555
Cu5_3 N8_3 1_555 1_555
Cu6_3 N11_3 1_555 1_555
Ni5_2 O26_3 1_555 1_555
Ni4_3 O17_3 1_555 1_555
Ni6_2 O22_3 1_555 1_555
Ni8_3 O35_3 1_555 1_555
N14_2 Cu3_2 1_555 1_555
O38_3 Ni4_3 1_555 1_555
O39_3 Ni4_3 1_555 1_555
O40_3 Ni4_3 1_555 1_555
O41_3 Ni4_3 1_555 1_555
O44_2 Cu3_2 1_555 1_555
O45_3 Ni2_3 1_555 1_555
O46_3 Ni2_3 1_555 1_555
O6_3 C10_3 1_555 1_555
O9_3 C17_3 1_555 1_555
O12_3 C26_3 1_555 1_555
O15_3 C33_3 1_555 1_555
O18_3 Ni4_3 1_555 1_555
C1_3 C2_3 1_555 1_555
C9_3 C10_3 1_555 1_555
C17_3 C18_3 1_555 1_555
C25_3 C26_3 1_555 1_555
C33_3 C34_3 1_555 1_555
C41_3 C42_3 1_555 1_555
N8_3 C56_3 1_555 1_555
O23_3 Ni6_2 1_555 1_555
O24_3 Cu5_3 1_555 1_555
C56_3 C57_3 1_555 1_555
N9_3 C61_3 1_555 1_555
N9_3 Cu5_3 1_555 1_555
O25_3 Cu5_3 1_555 1_555
O27_3 Ni5_2 1_555 1_555
C61_3 C62_3 1_555 1_555
N11_3 C71_3 1_555 1_555
O31_3 Ni5_2 1_555 1_555
O32_3 Ni5_2 1_555 1_555
O33_3 Cu6_3 1_555 1_555
C71_3 C72_3 1_555 1_555
N12_3 C76_3 1_555 1_555
N12_3 Cu6_3 1_555 1_555
O34_3 Cu6_3 1_555 1_555
O36_3 Ni8_3 1_555 1_555
C76_3 C77_3 1_555 1_555
C8_6 H43_3 1_555 1_555
C8_6 H45_3 1_555 1_555
C16_3 H46_3 1_555 1_555
C16_3 H47_3 1_555 1_555
C16_3 H48_3 1_555 1_555
C47_3 H49_3 1_555 1_555
C47_3 H50_3 1_555 1_555
C47_3 H51_3 1_555 1_555
C24_3 H52_3 1_555 1_555
C24_3 H53_3 1_555 1_555
C24_3 H54_3 1_555 1_555
C32_6 H55_3 1_555 1_555
C32_6 H57_3 1_555 1_555
C39_3 H58_3 1_555 1_555
C39_3 H59_3 1_555 1_555
C39_3 H60_3 1_555 1_555
Cu7_2 N1_4 1_555 1_555
Cu2_4 N2_4 1_555 1_555
Cu8_2 N4_4 1_555 1_555
Cu4_4 N5_4 1_555 1_555
Ni1_4 O8_4 1_555 1_555
Ni2_4 O2_4 1_555 1_555
N1_4 C1_4 1_555 1_555
N2_4 C9_4 1_555 1_555
N3_4 Cu2_4 1_555 1_555
N4_4 C25_4 1_555 1_555
N5_4 C34_4 1_555 1_555
N6_4 Cu4_4 1_555 1_555
O1_4 Cu7_2 1_555 1_555
O2_4 C2_4 1_555 1_555
O3_4 Ni2_4 1_555 1_555
O4_4 Ni2_4 1_555 1_555
O5_4 Ni2_4 1_555 1_555
O6_4 Cu2_4 1_555 1_555
O7_4 Cu2_4 1_555 1_555
O8_4 C18_4 1_555 1_555
O9_4 Ni1_4 1_555 1_555
O10_4 Ni1_4 1_555 1_555
O11_4 Ni1_4 1_555 1_555
O12_4 Cu8_2 1_555 1_555
O13_4 Ni1_4 1_555 1_555
O14_4 Ni1_4 1_555 1_555
O15_4 Cu4_4 1_555 1_555
O16_4 Cu4_4 1_555 1_555
O17_4 C41_4 1_555 1_555
O18_4 C42_4 1_555 1_555
C1_4 O3_4 1_555 1_555
C2_4 O1_4 1_555 1_555
C3_4 N1_4 1_555 1_555
C4_4 C3_4 1_555 1_555
C5_7 C4_4 1_555 1_555
H1_7 C5_7 1_555 1_555
C6_7 C3_4 1_555 1_555
C7_4 C4_4 1_555 1_555
H2_4 C7_4 1_555 1_555
H3_4 C7_4 1_555 1_555
H4_4 C7_4 1_555 1_555
C8_7 C6_7 1_555 1_555
C9_4 O4_4 1_555 1_555
C10_4 O5_4 1_555 1_555
C11_4 N2_4 1_555 1_555
C12_4 C11_4 1_555 1_555
C13_4 C12_4 1_555 1_555
H5_4 C13_4 1_555 1_555
C14_4 C12_4 1_555 1_555
H6_4 C14_4 1_555 1_555
H7_4 C14_4 1_555 1_555
H8_4 C14_4 1_555 1_555
C15_4 C11_4 1_555 1_555
C16_4 C15_4 1_555 1_555
C17_4 N3_4 1_555 1_555
C18_4 O7_4 1_555 1_555
C19_4 C20_4 1_555 1_555
C20_4 N3_4 1_555 1_555
C21_4 C20_4 1_555 1_555
C22_4 C21_4 1_555 1_555
H9_4 C22_4 1_555 1_555
C23_4 C21_4 1_555 1_555
H10_4 C23_4 1_555 1_555
H11_4 C23_4 1_555 1_555
H12_4 C23_4 1_555 1_555
C24_4 C19_4 1_555 1_555
C25_4 O10_4 1_555 1_555
C26_4 O11_4 1_555 1_555
C27_4 N4_4 1_555 1_555
C28_4 C27_4 1_555 1_555
C29_4 C28_4 1_555 1_555
H13_4 C29_4 1_555 1_555
H14_4 C29_4 1_555 1_555
H15_4 C29_4 1_555 1_555
C30_7 C28_4 1_555 1_555
H16_7 C30_7 1_555 1_555
C31_7 C27_4 1_555 1_555
C32_7 C31_7 1_555 1_555
C33_4 O13_4 1_555 1_555
C34_4 O14_4 1_555 1_555
C35_4 C36_4 1_555 1_555
C36_4 N5_4 1_555 1_555
C37_4 C36_4 1_555 1_555
C38_4 C37_4 1_555 1_555
H17_4 C38_4 1_555 1_555
C39_4 C35_4 1_555 1_555
C40_4 C37_4 1_555 1_555
H18_4 C40_4 1_555 1_555
H19_4 C40_4 1_555 1_555
H20_4 C40_4 1_555 1_555
C41_4 O16_4 1_555 1_555
C42_4 N6_4 1_555 1_555
C43_4 C44_4 1_555 1_555
C44_4 N6_4 1_555 1_555
C45_4 C44_4 1_555 1_555
C46_4 C45_4 1_555 1_555
H21_4 C46_4 1_555 1_555
C47_4 C43_4 1_555 1_555
C48_4 C45_4 1_555 1_555
H22_4 C48_4 1_555 1_555
H23_4 C48_4 1_555 1_555
H24_4 C48_4 1_555 1_555
N8_4 C54_4 1_555 1_555
O22_4 C54_4 1_555 1_555
O23_4 C55_4 1_555 1_555
O24_4 C55_4 1_555 1_555
C54_4 C55_4 1_555 1_555
C56_4 C15_4 1_555 1_555
C57_4 C13_4 1_555 1_555
C58_4 C57_4 1_555 1_555
H28_4 C58_4 1_555 1_555
H29_4 C58_4 1_555 1_555
H30_4 C58_4 1_555 1_555
N9_4 C59_4 1_555 1_555
O25_4 C60_4 1_555 1_555
O26_4 C60_4 1_555 1_555
O27_4 C59_4 1_555 1_555
C59_4 C60_4 1_555 1_555
C61_4 C19_4 1_555 1_555
C62_4 C22_4 1_555 1_555
C63_4 C62_4 1_555 1_555
H31_4 C63_4 1_555 1_555
H32_4 C63_4 1_555 1_555
H33_4 C63_4 1_555 1_555
N11_4 C70_4 1_555 1_555
O31_4 C69_4 1_555 1_555
O32_4 C70_4 1_555 1_555
O33_4 C69_4 1_555 1_555
C69_4 C70_4 1_555 1_555
C71_4 C35_4 1_555 1_555
C72_4 C38_4 1_555 1_555
C73_4 C72_4 1_555 1_555
H37_4 C73_4 1_555 1_555
H38_4 C73_4 1_555 1_555
H39_4 C73_4 1_555 1_555
N12_4 C75_4 1_555 1_555
O34_4 C74_4 1_555 1_555
O35_4 C74_4 1_555 1_555
O36_4 C75_4 1_555 1_555
C74_4 C75_4 1_555 1_555
C76_4 C43_4 1_555 1_555
C77_4 C46_4 1_555 1_555
C78_4 C77_4 1_555 1_555
H40_4 C78_4 1_555 1_555
H41_4 C78_4 1_555 1_555
H42_4 C78_4 1_555 1_555
Cu5_4 N8_4 1_555 1_555
Cu6_4 N11_4 1_555 1_555
Ni3_2 O26_4 1_555 1_555
Ni4_4 O17_4 1_555 1_555
Ni7_2 O22_4 1_555 1_555
Ni8_4 O35_4 1_555 1_555
O38_4 Ni4_4 1_555 1_555
O39_4 Ni4_4 1_555 1_555
O40_4 Ni4_4 1_555 1_555
O41_4 Ni4_4 1_555 1_555
O42_2 Ni3_2 1_555 1_555
O43_2 Ni3_2 1_555 1_555
O45_4 Ni2_4 1_555 1_555
O46_4 Ni2_4 1_555 1_555
O6_4 C10_4 1_555 1_555
O9_4 C17_4 1_555 1_555
O12_4 C26_4 1_555 1_555
O15_4 C33_4 1_555 1_555
O18_4 Ni4_4 1_555 1_555
C1_4 C2_4 1_555 1_555
C9_4 C10_4 1_555 1_555
C17_4 C18_4 1_555 1_555
C25_4 C26_4 1_555 1_555
C33_4 C34_4 1_555 1_555
C41_4 C42_4 1_555 1_555
N8_4 C56_4 1_555 1_555
O23_4 Ni7_2 1_555 1_555
O24_4 Cu5_4 1_555 1_555
C56_4 C57_4 1_555 1_555
N9_4 C61_4 1_555 1_555
N9_4 Cu5_4 1_555 1_555
O25_4 Cu5_4 1_555 1_555
O27_4 Ni3_2 1_555 1_555
C61_4 C62_4 1_555 1_555
N11_4 C71_4 1_555 1_555
O31_4 Ni3_2 1_555 1_555
O32_4 Ni3_2 1_555 1_555
O33_4 Cu6_4 1_555 1_555
C71_4 C72_4 1_555 1_555
N12_4 C76_4 1_555 1_555
N12_4 Cu6_4 1_555 1_555
O34_4 Cu6_4 1_555 1_555
O36_4 Ni8_4 1_555 1_555
C76_4 C77_4 1_555 1_555
C8_7 H43_4 1_555 1_555
C8_7 H45_4 1_555 1_555
C16_4 H46_4 1_555 1_555
C16_4 H47_4 1_555 1_555
C16_4 H48_4 1_555 1_555
C47_4 H49_4 1_555 1_555
C47_4 H50_4 1_555 1_555
C47_4 H51_4 1_555 1_555
C24_4 H52_4 1_555 1_555
C24_4 H53_4 1_555 1_555
C24_4 H54_4 1_555 1_555
C32_7 H55_4 1_555 1_555
C32_7 H57_4 1_555 1_555
C39_4 H58_4 1_555 1_555
C39_4 H59_4 1_555 1_555
C39_4 H60_4 1_555 1_555
H1_8 C5_8 1_555 1_555
C8_8 C6_8 1_555 1_555
H16_8 C30_8 1_555 1_555
C32_8 C31_8 1_555 1_555
N13_2 C49_4 1_555 1_555
O37_2 C50_4 1_555 1_555
O20_4 C50_4 1_555 1_555
O21_4 C49_4 1_555 1_555
C49_4 C50_4 1_555 1_555
C51_4 C6_8 1_555 1_555
C52_4 C5_8 1_555 1_555
C53_4 C52_4 1_555 1_555
H25_4 C53_4 1_555 1_555
H26_4 C53_4 1_555 1_555
H27_4 C53_4 1_555 1_555
N14_2 C64_4 1_555 1_555
O42_2 C64_4 1_555 1_555
O43_2 C65_4 1_555 1_555
O44_2 C65_4 1_555 1_555
C64_4 C65_4 1_555 1_555
C66_4 C31_8 1_555 1_555
C67_4 C30_8 1_555 1_555
C68_4 C67_4 1_555 1_555
H34_4 C68_4 1_555 1_555
H35_4 C68_4 1_555 1_555
H36_4 C68_4 1_555 1_555
Ni7_2 O20_4 1_555 1_555
N13_2 C51_4 1_555 1_555
O21_4 Ni7_2 1_555 1_555
C51_4 C52_4 1_555 1_555
N14_2 C66_4 1_555 1_555
C66_4 C67_4 1_555 1_555
C8_8 H44_4 1_555 1_555
C32_8 H56_4 1_555 1_555
Cu1_3 N1_5 1_555 1_555
Cu2_5 N2_5 1_555 1_555
Cu3_3 N4_5 1_555 1_555
Cu4_5 N5_5 1_555 1_555
Ni1_5 O8_5 1_555 1_555
N1_5 C1_5 1_555 1_555
N2_5 C9_5 1_555 1_555
N3_5 Cu2_5 1_555 1_555
N4_5 C25_5 1_555 1_555
N5_5 C34_5 1_555 1_555
N6_5 Cu4_5 1_555 1_555
O1_5 Cu1_3 1_555 1_555
O38_4 C2_5 1_555 1_555
O6_5 Cu2_5 1_555 1_555
O7_5 Cu2_5 1_555 1_555
O8_5 C18_5 1_555 1_555
O9_5 Ni1_5 1_555 1_555
O10_5 Ni1_5 1_555 1_555
O11_5 Ni1_5 1_555 1_555
O12_5 Cu3_3 1_555 1_555
O13_5 Ni1_5 1_555 1_555
O14_5 Ni1_5 1_555 1_555
O15_5 Cu4_5 1_555 1_555
O16_5 Cu4_5 1_555 1_555
O45_4 C41_5 1_555 1_555
O46_4 C42_5 1_555 1_555
C1_5 O39_4 1_555 1_555
C2_5 O1_5 1_555 1_555
C3_5 N1_5 1_555 1_555
C4_5 C3_5 1_555 1_555
C5_9 C4_5 1_555 1_555
H1_9 C5_9 1_555 1_555
C6_9 C3_5 1_555 1_555
C7_5 C4_5 1_555 1_555
H2_5 C7_5 1_555 1_555
H3_5 C7_5 1_555 1_555
H4_5 C7_5 1_555 1_555
C8_9 C6_9 1_555 1_555
C9_5 O40_4 1_555 1_555
C10_5 O41_4 1_555 1_555
C11_5 N2_5 1_555 1_555
C12_5 C11_5 1_555 1_555
C13_5 C12_5 1_555 1_555
H5_5 C13_5 1_555 1_555
C14_5 C12_5 1_555 1_555
H6_5 C14_5 1_555 1_555
H7_5 C14_5 1_555 1_555
H8_5 C14_5 1_555 1_555
C15_5 C11_5 1_555 1_555
C16_5 C15_5 1_555 1_555
C17_5 N3_5 1_555 1_555
C18_5 O7_5 1_555 1_555
C19_5 C20_5 1_555 1_555
C20_5 N3_5 1_555 1_555
C21_5 C20_5 1_555 1_555
C22_5 C21_5 1_555 1_555
H9_5 C22_5 1_555 1_555
C23_5 C21_5 1_555 1_555
H10_5 C23_5 1_555 1_555
H11_5 C23_5 1_555 1_555
H12_5 C23_5 1_555 1_555
C24_5 C19_5 1_555 1_555
C25_5 O10_5 1_555 1_555
C26_5 O11_5 1_555 1_555
C27_5 N4_5 1_555 1_555
C28_5 C27_5 1_555 1_555
C29_5 C28_5 1_555 1_555
H13_5 C29_5 1_555 1_555
H14_5 C29_5 1_555 1_555
H15_5 C29_5 1_555 1_555
C30_9 C28_5 1_555 1_555
H16_9 C30_9 1_555 1_555
C31_9 C27_5 1_555 1_555
C32_9 C31_9 1_555 1_555
C33_5 O13_5 1_555 1_555
C34_5 O14_5 1_555 1_555
C35_5 C36_5 1_555 1_555
C36_5 N5_5 1_555 1_555
C37_5 C36_5 1_555 1_555
C38_5 C37_5 1_555 1_555
H17_5 C38_5 1_555 1_555
C39_5 C35_5 1_555 1_555
C40_5 C37_5 1_555 1_555
H18_5 C40_5 1_555 1_555
H19_5 C40_5 1_555 1_555
H20_5 C40_5 1_555 1_555
C41_5 O16_5 1_555 1_555
C42_5 N6_5 1_555 1_555
C43_5 C44_5 1_555 1_555
C44_5 N6_5 1_555 1_555
C45_5 C44_5 1_555 1_555
C46_5 C45_5 1_555 1_555
H21_5 C46_5 1_555 1_555
C47_5 C43_5 1_555 1_555
C48_5 C45_5 1_555 1_555
H22_5 C48_5 1_555 1_555
H23_5 C48_5 1_555 1_555
H24_5 C48_5 1_555 1_555
N8_5 C54_5 1_555 1_555
O22_5 C54_5 1_555 1_555
O23_5 C55_5 1_555 1_555
O24_5 C55_5 1_555 1_555
C54_5 C55_5 1_555 1_555
C56_5 C15_5 1_555 1_555
C57_5 C13_5 1_555 1_555
C58_5 C57_5 1_555 1_555
H28_5 C58_5 1_555 1_555
H29_5 C58_5 1_555 1_555
H30_5 C58_5 1_555 1_555
N9_5 C59_5 1_555 1_555
O25_5 C60_5 1_555 1_555
O26_5 C60_5 1_555 1_555
O27_5 C59_5 1_555 1_555
C59_5 C60_5 1_555 1_555
C61_5 C19_5 1_555 1_555
C62_5 C22_5 1_555 1_555
C63_5 C62_5 1_555 1_555
H31_5 C63_5 1_555 1_555
H32_5 C63_5 1_555 1_555
H33_5 C63_5 1_555 1_555
N11_5 C70_5 1_555 1_555
O31_5 C69_5 1_555 1_555
O32_5 C70_5 1_555 1_555
O33_5 C69_5 1_555 1_555
C69_5 C70_5 1_555 1_555
C71_5 C35_5 1_555 1_555
C72_5 C38_5 1_555 1_555
C73_5 C72_5 1_555 1_555
H37_5 C73_5 1_555 1_555
H38_5 C73_5 1_555 1_555
H39_5 C73_5 1_555 1_555
N12_5 C75_5 1_555 1_555
O34_5 C74_5 1_555 1_555
O35_5 C74_5 1_555 1_555
O36_5 C75_5 1_555 1_555
C74_5 C75_5 1_555 1_555
C76_5 C43_5 1_555 1_555
C77_5 C46_5 1_555 1_555
C78_5 C77_5 1_555 1_555
H40_5 C78_5 1_555 1_555
H41_5 C78_5 1_555 1_555
H42_5 C78_5 1_555 1_555
Cu5_5 N8_5 1_555 1_555
Cu6_5 N11_5 1_555 1_555
Ni3_3 O26_5 1_555 1_555
Ni8_4 O22_5 1_555 1_555
Ni7_2 O35_5 1_555 1_555
O42_3 Ni3_3 1_555 1_555
O43_3 Ni3_3 1_555 1_555
O6_5 C10_5 1_555 1_555
O9_5 C17_5 1_555 1_555
O12_5 C26_5 1_555 1_555
O15_5 C33_5 1_555 1_555
C1_5 C2_5 1_555 1_555
C9_5 C10_5 1_555 1_555
C17_5 C18_5 1_555 1_555
C25_5 C26_5 1_555 1_555
C33_5 C34_5 1_555 1_555
C41_5 C42_5 1_555 1_555
N8_5 C56_5 1_555 1_555
O23_5 Ni8_4 1_555 1_555
O24_5 Cu5_5 1_555 1_555
C56_5 C57_5 1_555 1_555
N9_5 C61_5 1_555 1_555
N9_5 Cu5_5 1_555 1_555
O25_5 Cu5_5 1_555 1_555
O27_5 Ni3_3 1_555 1_555
C61_5 C62_5 1_555 1_555
N11_5 C71_5 1_555 1_555
O31_5 Ni3_3 1_555 1_555
O32_5 Ni3_3 1_555 1_555
O33_5 Cu6_5 1_555 1_555
C71_5 C72_5 1_555 1_555
N12_5 C76_5 1_555 1_555
N12_5 Cu6_5 1_555 1_555
O34_5 Cu6_5 1_555 1_555
O36_5 Ni7_2 1_555 1_555
C76_5 C77_5 1_555 1_555
C8_9 H43_5 1_555 1_555
C8_9 H45_5 1_555 1_555
C16_5 H46_5 1_555 1_555
C16_5 H47_5 1_555 1_555
C16_5 H48_5 1_555 1_555
C47_5 H49_5 1_555 1_555
C47_5 H50_5 1_555 1_555
C47_5 H51_5 1_555 1_555
C24_5 H52_5 1_555 1_555
C24_5 H53_5 1_555 1_555
C24_5 H54_5 1_555 1_555
C32_9 H55_5 1_555 1_555
C32_9 H57_5 1_555 1_555
C39_5 H58_5 1_555 1_555
C39_5 H59_5 1_555 1_555
C39_5 H60_5 1_555 1_555
H1_10 C5_10 1_555 1_555
C8_10 C6_10 1_555 1_555
H16_10 C30_10 1_555 1_555
C32_10 C31_10 1_555 1_555
N7_3 C49_5 1_555 1_555
O19_3 C50_5 1_555 1_555
O20_5 C50_5 1_555 1_555
O21_5 C49_5 1_555 1_555
C49_5 C50_5 1_555 1_555
C51_5 C6_10 1_555 1_555
C52_5 C5_10 1_555 1_555
C53_5 C52_5 1_555 1_555
H25_5 C53_5 1_555 1_555
H26_5 C53_5 1_555 1_555
H27_5 C53_5 1_555 1_555
N10_3 C64_5 1_555 1_555
O42_3 C64_5 1_555 1_555
O43_3 C65_5 1_555 1_555
O30_3 C65_5 1_555 1_555
C64_5 C65_5 1_555 1_555
C66_5 C31_10 1_555 1_555
C67_5 C30_10 1_555 1_555
C68_5 C67_5 1_555 1_555
H34_5 C68_5 1_555 1_555
H35_5 C68_5 1_555 1_555
H36_5 C68_5 1_555 1_555
Cu7_3 N7_3 1_555 1_555
Cu8_3 N10_3 1_555 1_555
Ni8_4 O20_5 1_555 1_555
N7_3 C51_5 1_555 1_555
O19_3 Cu7_3 1_555 1_555
O21_5 Ni8_4 1_555 1_555
C51_5 C52_5 1_555 1_555
N10_3 C66_5 1_555 1_555
O30_3 Cu8_3 1_555 1_555
C66_5 C67_5 1_555 1_555
C8_10 H44_5 1_555 1_555
C32_10 H56_5 1_555 1_555
N14_3 Cu3_4 1_555 1_555
O44_3 Cu3_4 1_555 1_555
N13_3 Cu1_4 1_555 1_555
O37_3 Cu1_4 1_555 1_555
H1_11 C5_11 1_555 1_555
C8_11 C6_11 1_555 1_555
H16_11 C30_11 1_555 1_555
C32_11 C31_11 1_555 1_555
N7_4 C49_6 1_555 1_555
O19_4 C50_6 1_555 1_555
O20_6 C50_6 1_555 1_555
O21_6 C49_6 1_555 1_555
C49_6 C50_6 1_555 1_555
C51_6 C6_11 1_555 1_555
C52_6 C5_11 1_555 1_555
C53_6 C52_6 1_555 1_555
H25_6 C53_6 1_555 1_555
H26_6 C53_6 1_555 1_555
H27_6 C53_6 1_555 1_555
N14_3 C64_6 1_555 1_555
O28_3 C64_6 1_555 1_555
O29_3 C65_6 1_555 1_555
O44_3 C65_6 1_555 1_555
C64_6 C65_6 1_555 1_555
C66_6 C31_11 1_555 1_555
C67_6 C30_11 1_555 1_555
C68_6 C67_6 1_555 1_555
H34_6 C68_6 1_555 1_555
H35_6 C68_6 1_555 1_555
H36_6 C68_6 1_555 1_555
Cu7_5 N7_4 1_555 1_555
Ni5_3 O28_3 1_555 1_555
Ni8_3 O20_6 1_555 1_555
N7_4 C51_6 1_555 1_555
O19_4 Cu7_5 1_555 1_555
O21_6 Ni8_3 1_555 1_555
C51_6 C52_6 1_555 1_555
N14_3 C66_6 1_555 1_555
O29_3 Ni5_3 1_555 1_555
C66_6 C67_6 1_555 1_555
C8_11 H44_6 1_555 1_555
C32_11 H56_6 1_555 1_555
Cu1_5 N1_6 1_555 1_555
Cu2_6 N2_6 1_555 1_555
Cu8_4 N4_6 1_555 1_555
Cu4_6 N5_6 1_555 1_555
Ni1_6 O8_6 1_555 1_555
N1_6 C1_6 1_555 1_555
N2_6 C9_6 1_555 1_555
N3_6 Cu2_6 1_555 1_555
N4_6 C25_6 1_555 1_555
N5_6 C34_6 1_555 1_555
N6_6 Cu4_6 1_555 1_555
O1_6 Cu1_5 1_555 1_555
O38_3 C2_6 1_555 1_555
O6_6 Cu2_6 1_555 1_555
O7_6 Cu2_6 1_555 1_555
O8_6 C18_6 1_555 1_555
O9_6 Ni1_6 1_555 1_555
O10_6 Ni1_6 1_555 1_555
O11_6 Ni1_6 1_555 1_555
O12_6 Cu8_4 1_555 1_555
O13_6 Ni1_6 1_555 1_555
O14_6 Ni1_6 1_555 1_555
O15_6 Cu4_6 1_555 1_555
O16_6 Cu4_6 1_555 1_555
O45_3 C41_6 1_555 1_555
O46_3 C42_6 1_555 1_555
C1_6 O39_3 1_555 1_555
C2_6 O1_6 1_555 1_555
C3_6 N1_6 1_555 1_555
C4_6 C3_6 1_555 1_555
C5_12 C4_6 1_555 1_555
H1_12 C5_12 1_555 1_555
C6_12 C3_6 1_555 1_555
C7_6 C4_6 1_555 1_555
H2_6 C7_6 1_555 1_555
H3_6 C7_6 1_555 1_555
H4_6 C7_6 1_555 1_555
C8_12 C6_12 1_555 1_555
C9_6 O40_3 1_555 1_555
C10_6 O41_3 1_555 1_555
C11_6 N2_6 1_555 1_555
C12_6 C11_6 1_555 1_555
C13_6 C12_6 1_555 1_555
H5_6 C13_6 1_555 1_555
C14_6 C12_6 1_555 1_555
H6_6 C14_6 1_555 1_555
H7_6 C14_6 1_555 1_555
H8_6 C14_6 1_555 1_555
C15_6 C11_6 1_555 1_555
C16_6 C15_6 1_555 1_555
C17_6 N3_6 1_555 1_555
C18_6 O7_6 1_555 1_555
C19_6 C20_6 1_555 1_555
C20_6 N3_6 1_555 1_555
C21_6 C20_6 1_555 1_555
C22_6 C21_6 1_555 1_555
H9_6 C22_6 1_555 1_555
C23_6 C21_6 1_555 1_555
H10_6 C23_6 1_555 1_555
H11_6 C23_6 1_555 1_555
H12_6 C23_6 1_555 1_555
C24_6 C19_6 1_555 1_555
C25_6 O10_6 1_555 1_555
C26_6 O11_6 1_555 1_555
C27_6 N4_6 1_555 1_555
C28_6 C27_6 1_555 1_555
C29_6 C28_6 1_555 1_555
H13_6 C29_6 1_555 1_555
H14_6 C29_6 1_555 1_555
H15_6 C29_6 1_555 1_555
C30_12 C28_6 1_555 1_555
H16_12 C30_12 1_555 1_555
C31_12 C27_6 1_555 1_555
C32_12 C31_12 1_555 1_555
C33_6 O13_6 1_555 1_555
C34_6 O14_6 1_555 1_555
C35_6 C36_6 1_555 1_555
C36_6 N5_6 1_555 1_555
C37_6 C36_6 1_555 1_555
C38_6 C37_6 1_555 1_555
H17_6 C38_6 1_555 1_555
C39_6 C35_6 1_555 1_555
C40_6 C37_6 1_555 1_555
H18_6 C40_6 1_555 1_555
H19_6 C40_6 1_555 1_555
H20_6 C40_6 1_555 1_555
C41_6 O16_6 1_555 1_555
C42_6 N6_6 1_555 1_555
C43_6 C44_6 1_555 1_555
C44_6 N6_6 1_555 1_555
C45_6 C44_6 1_555 1_555
C46_6 C45_6 1_555 1_555
H21_6 C46_6 1_555 1_555
C47_6 C43_6 1_555 1_555
C48_6 C45_6 1_555 1_555
H22_6 C48_6 1_555 1_555
H23_6 C48_6 1_555 1_555
H24_6 C48_6 1_555 1_555
N8_6 C54_6 1_555 1_555
O22_6 C54_6 1_555 1_555
O23_6 C55_6 1_555 1_555
O24_6 C55_6 1_555 1_555
C54_6 C55_6 1_555 1_555
C56_6 C15_6 1_555 1_555
C57_6 C13_6 1_555 1_555
C58_6 C57_6 1_555 1_555
H28_6 C58_6 1_555 1_555
H29_6 C58_6 1_555 1_555
H30_6 C58_6 1_555 1_555
N9_6 C59_6 1_555 1_555
O25_6 C60_6 1_555 1_555
O26_6 C60_6 1_555 1_555
O27_6 C59_6 1_555 1_555
C59_6 C60_6 1_555 1_555
C61_6 C19_6 1_555 1_555
C62_6 C22_6 1_555 1_555
C63_6 C62_6 1_555 1_555
H31_6 C63_6 1_555 1_555
H32_6 C63_6 1_555 1_555
H33_6 C63_6 1_555 1_555
N11_6 C70_6 1_555 1_555
O31_6 C69_6 1_555 1_555
O32_6 C70_6 1_555 1_555
O33_6 C69_6 1_555 1_555
C69_6 C70_6 1_555 1_555
C71_6 C35_6 1_555 1_555
C72_6 C38_6 1_555 1_555
C73_6 C72_6 1_555 1_555
H37_6 C73_6 1_555 1_555
H38_6 C73_6 1_555 1_555
H39_6 C73_6 1_555 1_555
N12_6 C75_6 1_555 1_555
O34_6 C74_6 1_555 1_555
O35_6 C74_6 1_555 1_555
O36_6 C75_6 1_555 1_555
C74_6 C75_6 1_555 1_555
C76_6 C43_6 1_555 1_555
C77_6 C46_6 1_555 1_555
C78_6 C77_6 1_555 1_555
H40_6 C78_6 1_555 1_555
H41_6 C78_6 1_555 1_555
H42_6 C78_6 1_555 1_555
Cu5_6 N8_6 1_555 1_555
Cu6_6 N11_6 1_555 1_555
Ni5_3 O26_6 1_555 1_555
Ni8_3 O22_6 1_555 1_555
Ni6_2 O35_6 1_555 1_555
O6_6 C10_6 1_555 1_555
O9_6 C17_6 1_555 1_555
O12_6 C26_6 1_555 1_555
O15_6 C33_6 1_555 1_555
C1_6 C2_6 1_555 1_555
C9_6 C10_6 1_555 1_555
C17_6 C18_6 1_555 1_555
C25_6 C26_6 1_555 1_555
C33_6 C34_6 1_555 1_555
C41_6 C42_6 1_555 1_555
N8_6 C56_6 1_555 1_555
O23_6 Ni8_3 1_555 1_555
O24_6 Cu5_6 1_555 1_555
C56_6 C57_6 1_555 1_555
N9_6 C61_6 1_555 1_555
N9_6 Cu5_6 1_555 1_555
O25_6 Cu5_6 1_555 1_555
O27_6 Ni5_3 1_555 1_555
C61_6 C62_6 1_555 1_555
N11_6 C71_6 1_555 1_555
O31_6 Ni5_3 1_555 1_555
O32_6 Ni5_3 1_555 1_555
O33_6 Cu6_6 1_555 1_555
C71_6 C72_6 1_555 1_555
N12_6 C76_6 1_555 1_555
N12_6 Cu6_6 1_555 1_555
O34_6 Cu6_6 1_555 1_555
O36_6 Ni6_2 1_555 1_555
C76_6 C77_6 1_555 1_555
C8_12 H43_6 1_555 1_555
C8_12 H45_6 1_555 1_555
C16_6 H46_6 1_555 1_555
C16_6 H47_6 1_555 1_555
C16_6 H48_6 1_555 1_555
C47_6 H49_6 1_555 1_555
C47_6 H50_6 1_555 1_555
C47_6 H51_6 1_555 1_555
C24_6 H52_6 1_555 1_555
C24_6 H53_6 1_555 1_555
C24_6 H54_6 1_555 1_555
C32_12 H55_6 1_555 1_555
C32_12 H57_6 1_555 1_555
C39_6 H58_6 1_555 1_555
C39_6 H59_6 1_555 1_555
C39_6 H60_6 1_555 1_555
N13_4 Cu1_6 1_555 1_555
O37_4 Cu1_6 1_555 1_555
H1_13 C5_13 1_555 1_555
C8_13 C6_13 1_555 1_555
H16_13 C30_13 1_555 1_555
C32_13 C31_13 1_555 1_555
N13_3 C49_7 1_555 1_555
O37_3 C50_7 1_555 1_555
O20_7 C50_7 1_555 1_555
O21_7 C49_7 1_555 1_555
C49_7 C50_7 1_555 1_555
C51_7 C6_13 1_555 1_555
C52_7 C5_13 1_555 1_555
C53_7 C52_7 1_555 1_555
H25_7 C53_7 1_555 1_555
H26_7 C53_7 1_555 1_555
H27_7 C53_7 1_555 1_555
N10_4 C64_7 1_555 1_555
O28_4 C64_7 1_555 1_555
O29_4 C65_7 1_555 1_555
O30_4 C65_7 1_555 1_555
C64_7 C65_7 1_555 1_555
C66_7 C31_13 1_555 1_555
C67_7 C30_13 1_555 1_555
C68_7 C67_7 1_555 1_555
H34_7 C68_7 1_555 1_555
H35_7 C68_7 1_555 1_555
H36_7 C68_7 1_555 1_555
Cu8_5 N10_4 1_555 1_555
Ni5_4 O28_4 1_555 1_555
Ni8_2 O20_7 1_555 1_555
N13_3 C51_7 1_555 1_555
O21_7 Ni8_2 1_555 1_555
C51_7 C52_7 1_555 1_555
N10_4 C66_7 1_555 1_555
O29_4 Ni5_4 1_555 1_555
O30_4 Cu8_5 1_555 1_555
C66_7 C67_7 1_555 1_555
C8_13 H44_7 1_555 1_555
C32_13 H56_7 1_555 1_555
Cu7_4 N1_7 1_555 1_555
Cu2_7 N2_7 1_555 1_555
Cu3_5 N4_7 1_555 1_555
Cu4_7 N5_7 1_555 1_555
Ni1_7 O8_7 1_555 1_555
N1_7 C1_7 1_555 1_555
N2_7 C9_7 1_555 1_555
N3_7 Cu2_7 1_555 1_555
N4_7 C25_7 1_555 1_555
N5_7 C34_7 1_555 1_555
N6_7 Cu4_7 1_555 1_555
O1_7 Cu7_4 1_555 1_555
O38_2 C2_7 1_555 1_555
O6_7 Cu2_7 1_555 1_555
O7_7 Cu2_7 1_555 1_555
O8_7 C18_7 1_555 1_555
O9_7 Ni1_7 1_555 1_555
O10_7 Ni1_7 1_555 1_555
O11_7 Ni1_7 1_555 1_555
O12_7 Cu3_5 1_555 1_555
O13_7 Ni1_7 1_555 1_555
O14_7 Ni1_7 1_555 1_555
O15_7 Cu4_7 1_555 1_555
O16_7 Cu4_7 1_555 1_555
O45_2 C41_7 1_555 1_555
O46_2 C42_7 1_555 1_555
C1_7 O39_2 1_555 1_555
C2_7 O1_7 1_555 1_555
C3_7 N1_7 1_555 1_555
C4_7 C3_7 1_555 1_555
C5_14 C4_7 1_555 1_555
H1_14 C5_14 1_555 1_555
C6_14 C3_7 1_555 1_555
C7_7 C4_7 1_555 1_555
H2_7 C7_7 1_555 1_555
H3_7 C7_7 1_555 1_555
H4_7 C7_7 1_555 1_555
C8_14 C6_14 1_555 1_555
C9_7 O40_2 1_555 1_555
C10_7 O41_2 1_555 1_555
C11_7 N2_7 1_555 1_555
C12_7 C11_7 1_555 1_555
C13_7 C12_7 1_555 1_555
H5_7 C13_7 1_555 1_555
C14_7 C12_7 1_555 1_555
H6_7 C14_7 1_555 1_555
H7_7 C14_7 1_555 1_555
H8_7 C14_7 1_555 1_555
C15_7 C11_7 1_555 1_555
C16_7 C15_7 1_555 1_555
C17_7 N3_7 1_555 1_555
C18_7 O7_7 1_555 1_555
C19_7 C20_7 1_555 1_555
C20_7 N3_7 1_555 1_555
C21_7 C20_7 1_555 1_555
C22_7 C21_7 1_555 1_555
H9_7 C22_7 1_555 1_555
C23_7 C21_7 1_555 1_555
H10_7 C23_7 1_555 1_555
H11_7 C23_7 1_555 1_555
H12_7 C23_7 1_555 1_555
C24_7 C19_7 1_555 1_555
C25_7 O10_7 1_555 1_555
C26_7 O11_7 1_555 1_555
C27_7 N4_7 1_555 1_555
C28_7 C27_7 1_555 1_555
C29_7 C28_7 1_555 1_555
H13_7 C29_7 1_555 1_555
H14_7 C29_7 1_555 1_555
H15_7 C29_7 1_555 1_555
C30_14 C28_7 1_555 1_555
H16_14 C30_14 1_555 1_555
C31_14 C27_7 1_555 1_555
C32_14 C31_14 1_555 1_555
C33_7 O13_7 1_555 1_555
C34_7 O14_7 1_555 1_555
C35_7 C36_7 1_555 1_555
C36_7 N5_7 1_555 1_555
C37_7 C36_7 1_555 1_555
C38_7 C37_7 1_555 1_555
H17_7 C38_7 1_555 1_555
C39_7 C35_7 1_555 1_555
C40_7 C37_7 1_555 1_555
H18_7 C40_7 1_555 1_555
H19_7 C40_7 1_555 1_555
H20_7 C40_7 1_555 1_555
C41_7 O16_7 1_555 1_555
C42_7 N6_7 1_555 1_555
C43_7 C44_7 1_555 1_555
C44_7 N6_7 1_555 1_555
C45_7 C44_7 1_555 1_555
C46_7 C45_7 1_555 1_555
H21_7 C46_7 1_555 1_555
C47_7 C43_7 1_555 1_555
C48_7 C45_7 1_555 1_555
H22_7 C48_7 1_555 1_555
H23_7 C48_7 1_555 1_555
H24_7 C48_7 1_555 1_555
N8_7 C54_7 1_555 1_555
O22_7 C54_7 1_555 1_555
O23_7 C55_7 1_555 1_555
O24_7 C55_7 1_555 1_555
C54_7 C55_7 1_555 1_555
C56_7 C15_7 1_555 1_555
C57_7 C13_7 1_555 1_555
C58_7 C57_7 1_555 1_555
H28_7 C58_7 1_555 1_555
H29_7 C58_7 1_555 1_555
H30_7 C58_7 1_555 1_555
N9_7 C59_7 1_555 1_555
O25_7 C60_7 1_555 1_555
O26_7 C60_7 1_555 1_555
O27_7 C59_7 1_555 1_555
C59_7 C60_7 1_555 1_555
C61_7 C19_7 1_555 1_555
C62_7 C22_7 1_555 1_555
C63_7 C62_7 1_555 1_555
H31_7 C63_7 1_555 1_555
H32_7 C63_7 1_555 1_555
H33_7 C63_7 1_555 1_555
N11_7 C70_7 1_555 1_555
O31_7 C69_7 1_555 1_555
O32_7 C70_7 1_555 1_555
O33_7 C69_7 1_555 1_555
C69_7 C70_7 1_555 1_555
C71_7 C35_7 1_555 1_555
C72_7 C38_7 1_555 1_555
C73_7 C72_7 1_555 1_555
H37_7 C73_7 1_555 1_555
H38_7 C73_7 1_555 1_555
H39_7 C73_7 1_555 1_555
N12_7 C75_7 1_555 1_555
O34_7 C74_7 1_555 1_555
O35_7 C74_7 1_555 1_555
O36_7 C75_7 1_555 1_555
C74_7 C75_7 1_555 1_555
C76_7 C43_7 1_555 1_555
C77_7 C46_7 1_555 1_555
C78_7 C77_7 1_555 1_555
H40_7 C78_7 1_555 1_555
H41_7 C78_7 1_555 1_555
H42_7 C78_7 1_555 1_555
Cu5_7 N8_7 1_555 1_555
Cu6_7 N11_7 1_555 1_555
Ni5_4 O26_7 1_555 1_555
Ni8_2 O22_7 1_555 1_555
Ni6 O35_7 1_555 1_555
O6_7 C10_7 1_555 1_555
O9_7 C17_7 1_555 1_555
O12_7 C26_7 1_555 1_555
O15_7 C33_7 1_555 1_555
C1_7 C2_7 1_555 1_555
C9_7 C10_7 1_555 1_555
C17_7 C18_7 1_555 1_555
C25_7 C26_7 1_555 1_555
C33_7 C34_7 1_555 1_555
C41_7 C42_7 1_555 1_555
N8_7 C56_7 1_555 1_555
O23_7 Ni8_2 1_555 1_555
O24_7 Cu5_7 1_555 1_555
C56_7 C57_7 1_555 1_555
N9_7 C61_7 1_555 1_555
N9_7 Cu5_7 1_555 1_555
O25_7 Cu5_7 1_555 1_555
O27_7 Ni5_4 1_555 1_555
C61_7 C62_7 1_555 1_555
N11_7 C71_7 1_555 1_555
O31_7 Ni5_4 1_555 1_555
O32_7 Ni5_4 1_555 1_555
O33_7 Cu6_7 1_555 1_555
C71_7 C72_7 1_555 1_555
N12_7 C76_7 1_555 1_555
N12_7 Cu6_7 1_555 1_555
O34_7 Cu6_7 1_555 1_555
O36_7 Ni6 1_555 1_555
C76_7 C77_7 1_555 1_555
C8_14 H43_7 1_555 1_555
C8_14 H45_7 1_555 1_555
C16_7 H46_7 1_555 1_555
C16_7 H47_7 1_555 1_555
C16_7 H48_7 1_555 1_555
C47_7 H49_7 1_555 1_555
C47_7 H50_7 1_555 1_555
C47_7 H51_7 1_555 1_555
C24_7 H52_7 1_555 1_555
C24_7 H53_7 1_555 1_555
C24_7 H54_7 1_555 1_555
C32_14 H55_7 1_555 1_555
C32_14 H57_7 1_555 1_555
C39_7 H58_7 1_555 1_555
C39_7 H59_7 1_555 1_555
C39_7 H60_7 1_555 1_555
N14_4 Cu3_6 1_555 1_555
O44_4 Cu3_6 1_555 1_555
Cu7_6 N1_8 1_555 1_555
Cu2_8 N2_8 1_555 1_555
Cu8_6 N4_8 1_555 1_555
Cu4_8 N5_8 1_555 1_555
Ni1_8 O8_8 1_555 1_555
N1_8 C1_8 1_555 1_555
N2_8 C9_8 1_555 1_555
N3_8 Cu2_8 1_555 1_555
N4_8 C25_8 1_555 1_555
N5_8 C34_8 1_555 1_555
N6_8 Cu4_8 1_555 1_555
O1_8 Cu7_6 1_555 1_555
O38 C2_8 1_555 1_555
O6_8 Cu2_8 1_555 1_555
O7_8 Cu2_8 1_555 1_555
O8_8 C18_8 1_555 1_555
O9_8 Ni1_8 1_555 1_555
O10_8 Ni1_8 1_555 1_555
O11_8 Ni1_8 1_555 1_555
O12_8 Cu8_6 1_555 1_555
O13_8 Ni1_8 1_555 1_555
O14_8 Ni1_8 1_555 1_555
O15_8 Cu4_8 1_555 1_555
O16_8 Cu4_8 1_555 1_555
O45 C41_8 1_555 1_555
O46 C42_8 1_555 1_555
C1_8 O39 1_555 1_555
C2_8 O1_8 1_555 1_555
C3_8 N1_8 1_555 1_555
C4_8 C3_8 1_555 1_555
C5_15 C4_8 1_555 1_555
H1_15 C5_15 1_555 1_555
C6_15 C3_8 1_555 1_555
C7_8 C4_8 1_555 1_555
H2_8 C7_8 1_555 1_555
H3_8 C7_8 1_555 1_555
H4_8 C7_8 1_555 1_555
C8_15 C6_15 1_555 1_555
C9_8 O40 1_555 1_555
C10_8 O41 1_555 1_555
C11_8 N2_8 1_555 1_555
C12_8 C11_8 1_555 1_555
C13_8 C12_8 1_555 1_555
H5_8 C13_8 1_555 1_555
C14_8 C12_8 1_555 1_555
H6_8 C14_8 1_555 1_555
H7_8 C14_8 1_555 1_555
H8_8 C14_8 1_555 1_555
C15_8 C11_8 1_555 1_555
C16_8 C15_8 1_555 1_555
C17_8 N3_8 1_555 1_555
C18_8 O7_8 1_555 1_555
C19_8 C20_8 1_555 1_555
C20_8 N3_8 1_555 1_555
C21_8 C20_8 1_555 1_555
C22_8 C21_8 1_555 1_555
H9_8 C22_8 1_555 1_555
C23_8 C21_8 1_555 1_555
H10_8 C23_8 1_555 1_555
H11_8 C23_8 1_555 1_555
H12_8 C23_8 1_555 1_555
C24_8 C19_8 1_555 1_555
C25_8 O10_8 1_555 1_555
C26_8 O11_8 1_555 1_555
C27_8 N4_8 1_555 1_555
C28_8 C27_8 1_555 1_555
C29_8 C28_8 1_555 1_555
H13_8 C29_8 1_555 1_555
H14_8 C29_8 1_555 1_555
H15_8 C29_8 1_555 1_555
C30_15 C28_8 1_555 1_555
H16_15 C30_15 1_555 1_555
C31_15 C27_8 1_555 1_555
C32_15 C31_15 1_555 1_555
C33_8 O13_8 1_555 1_555
C34_8 O14_8 1_555 1_555
C35_8 C36_8 1_555 1_555
C36_8 N5_8 1_555 1_555
C37_8 C36_8 1_555 1_555
C38_8 C37_8 1_555 1_555
H17_8 C38_8 1_555 1_555
C39_8 C35_8 1_555 1_555
C40_8 C37_8 1_555 1_555
H18_8 C40_8 1_555 1_555
H19_8 C40_8 1_555 1_555
H20_8 C40_8 1_555 1_555
C41_8 O16_8 1_555 1_555
C42_8 N6_8 1_555 1_555
C43_8 C44_8 1_555 1_555
C44_8 N6_8 1_555 1_555
C45_8 C44_8 1_555 1_555
C46_8 C45_8 1_555 1_555
H21_8 C46_8 1_555 1_555
C47_8 C43_8 1_555 1_555
C48_8 C45_8 1_555 1_555
H22_8 C48_8 1_555 1_555
H23_8 C48_8 1_555 1_555
H24_8 C48_8 1_555 1_555
N8_8 C54_8 1_555 1_555
O22_8 C54_8 1_555 1_555
O23_8 C55_8 1_555 1_555
O24_8 C55_8 1_555 1_555
C54_8 C55_8 1_555 1_555
C56_8 C15_8 1_555 1_555
C57_8 C13_8 1_555 1_555
C58_8 C57_8 1_555 1_555
H28_8 C58_8 1_555 1_555
H29_8 C58_8 1_555 1_555
H30_8 C58_8 1_555 1_555
N9_8 C59_8 1_555 1_555
O25_8 C60_8 1_555 1_555
O26_8 C60_8 1_555 1_555
O27_8 C59_8 1_555 1_555
C59_8 C60_8 1_555 1_555
C61_8 C19_8 1_555 1_555
C62_8 C22_8 1_555 1_555
C63_8 C62_8 1_555 1_555
H31_8 C63_8 1_555 1_555
H32_8 C63_8 1_555 1_555
H33_8 C63_8 1_555 1_555
N11_8 C70_8 1_555 1_555
O31_8 C69_8 1_555 1_555
O32_8 C70_8 1_555 1_555
O33_8 C69_8 1_555 1_555
C69_8 C70_8 1_555 1_555
C71_8 C35_8 1_555 1_555
C72_8 C38_8 1_555 1_555
C73_8 C72_8 1_555 1_555
H37_8 C73_8 1_555 1_555
H38_8 C73_8 1_555 1_555
H39_8 C73_8 1_555 1_555
N12_8 C75_8 1_555 1_555
O34_8 C74_8 1_555 1_555
O35_8 C74_8 1_555 1_555
O36_8 C75_8 1_555 1_555
C74_8 C75_8 1_555 1_555
C76_8 C43_8 1_555 1_555
C77_8 C46_8 1_555 1_555
C78_8 C77_8 1_555 1_555
H40_8 C78_8 1_555 1_555
H41_8 C78_8 1_555 1_555
H42_8 C78_8 1_555 1_555
Cu5_8 N8_8 1_555 1_555
Cu6_8 N11_8 1_555 1_555
Ni3_4 O26_8 1_555 1_555
Ni8 O22_8 1_555 1_555
Ni7 O35_8 1_555 1_555
O42_4 Ni3_4 1_555 1_555
O43_4 Ni3_4 1_555 1_555
O6_8 C10_8 1_555 1_555
O9_8 C17_8 1_555 1_555
O12_8 C26_8 1_555 1_555
O15_8 C33_8 1_555 1_555
C1_8 C2_8 1_555 1_555
C9_8 C10_8 1_555 1_555
C17_8 C18_8 1_555 1_555
C25_8 C26_8 1_555 1_555
C33_8 C34_8 1_555 1_555
C41_8 C42_8 1_555 1_555
N8_8 C56_8 1_555 1_555
O23_8 Ni8 1_555 1_555
O24_8 Cu5_8 1_555 1_555
C56_8 C57_8 1_555 1_555
N9_8 C61_8 1_555 1_555
N9_8 Cu5_8 1_555 1_555
O25_8 Cu5_8 1_555 1_555
O27_8 Ni3_4 1_555 1_555
C61_8 C62_8 1_555 1_555
N11_8 C71_8 1_555 1_555
O31_8 Ni3_4 1_555 1_555
O32_8 Ni3_4 1_555 1_555
O33_8 Cu6_8 1_555 1_555
C71_8 C72_8 1_555 1_555
N12_8 C76_8 1_555 1_555
N12_8 Cu6_8 1_555 1_555
O34_8 Cu6_8 1_555 1_555
O36_8 Ni7 1_555 1_555
C76_8 C77_8 1_555 1_555
C8_15 H43_8 1_555 1_555
C8_15 H45_8 1_555 1_555
C16_8 H46_8 1_555 1_555
C16_8 H47_8 1_555 1_555
C16_8 H48_8 1_555 1_555
C47_8 H49_8 1_555 1_555
C47_8 H50_8 1_555 1_555
C47_8 H51_8 1_555 1_555
C24_8 H52_8 1_555 1_555
C24_8 H53_8 1_555 1_555
C24_8 H54_8 1_555 1_555
C32_15 H55_8 1_555 1_555
C32_15 H57_8 1_555 1_555
C39_8 H58_8 1_555 1_555
C39_8 H59_8 1_555 1_555
C39_8 H60_8 1_555 1_555
H1_16 C5_16 1_555 1_555
C8_16 C6_16 1_555 1_555
H16_16 C30_16 1_555 1_555
C32_16 C31_16 1_555 1_555
N13_4 C49_8 1_555 1_555
O37_4 C50_8 1_555 1_555
O20_8 C50_8 1_555 1_555
O21_8 C49_8 1_555 1_555
C49_8 C50_8 1_555 1_555
C51_8 C6_16 1_555 1_555
C52_8 C5_16 1_555 1_555
C53_8 C52_8 1_555 1_555
H25_8 C53_8 1_555 1_555
H26_8 C53_8 1_555 1_555
H27_8 C53_8 1_555 1_555
N14_4 C64_8 1_555 1_555
O42_4 C64_8 1_555 1_555
O43_4 C65_8 1_555 1_555
O44_4 C65_8 1_555 1_555
C64_8 C65_8 1_555 1_555
C66_8 C31_16 1_555 1_555
C67_8 C30_16 1_555 1_555
C68_8 C67_8 1_555 1_555
H34_8 C68_8 1_555 1_555
H35_8 C68_8 1_555 1_555
H36_8 C68_8 1_555 1_555
Ni8 O20_8 1_555 1_555
N13_4 C51_8 1_555 1_555
O21_8 Ni8 1_555 1_555
C51_8 C52_8 1_555 1_555
N14_4 C66_8 1_555 1_555
C66_8 C67_8 1_555 1_555
C8_16 H44_8 1_555 1_555
C32_16 H56_8 1_555 1_555
C8_7 H44_9 1_555 1_555
C32_7 H56_9 1_555 1_555
C8_8 H43_9 1_555 1_555
C8_8 H45_9 1_555 1_555
C16_4 H46_9 1_555 1_555
C16_4 H47_9 1_555 1_555
C16_4 H48_9 1_555 1_555
C47_4 H49_9 1_555 1_555
C47_4 H50_9 1_555 1_555
C47_4 H51_9 1_555 1_555
C24_4 H52_9 1_555 1_555
C24_4 H53_9 1_555 1_555
C24_4 H54_9 1_555 1_555
C32_8 H55_9 1_555 1_555
C32_8 H57_9 1_555 1_555
C39_4 H58_9 1_555 1_555
C39_4 H59_9 1_555 1_555
C39_4 H60_9 1_555 1_555
C8_5 H43_10 1_555 1_555
C8_5 H45_10 1_555 1_555
C16_3 H46_10 1_555 1_555
C16_3 H47_10 1_555 1_555
C16_3 H48_10 1_555 1_555
C47_3 H49_10 1_555 1_555
C47_3 H50_10 1_555 1_555
C47_3 H51_10 1_555 1_555
C24_3 H52_10 1_555 1_555
C24_3 H53_10 1_555 1_555
C24_3 H54_10 1_555 1_555
C32_5 H55_10 1_555 1_555
C32_5 H57_10 1_555 1_555
C39_3 H58_10 1_555 1_555
C39_3 H59_10 1_555 1_555
C39_3 H60_10 1_555 1_555
C8_6 H44_10 1_555 1_555
C32_6 H56_10 1_555 1_555
C8_3 H43_11 1_555 1_555
C8_3 H45_11 1_555 1_555
C16_2 H46_11 1_555 1_555
C16_2 H47_11 1_555 1_555
C16_2 H48_11 1_555 1_555
C47_2 H49_11 1_555 1_555
C47_2 H50_11 1_555 1_555
C47_2 H51_11 1_555 1_555
C24_2 H52_11 1_555 1_555
C24_2 H53_11 1_555 1_555
C24_2 H54_11 1_555 1_555
C32_3 H55_11 1_555 1_555
C32_3 H57_11 1_555 1_555
C39_2 H58_11 1_555 1_555
C39_2 H59_11 1_555 1_555
C39_2 H60_11 1_555 1_555
C8_4 H44_11 1_555 1_555
C32_4 H56_11 1_555 1_555
C8 H44_12 1_555 1_555
C32 H56_12 1_555 1_555
C8_2 H43_12 1_555 1_555
C8_2 H45_12 1_555 1_555
C16 H46_12 1_555 1_555
C16 H47_12 1_555 1_555
C16 H48_12 1_555 1_555
C47 H49_12 1_555 1_555
C47 H50_12 1_555 1_555
C47 H51_12 1_555 1_555
C24 H52_12 1_555 1_555
C24 H53_12 1_555 1_555
C24 H54_12 1_555 1_555
C32_2 H55_12 1_555 1_555
C32_2 H57_12 1_555 1_555
C39 H58_12 1_555 1_555
C39 H59_12 1_555 1_555
C39 H60_12 1_555 1_555
C8_15 H44_13 1_555 1_555
C32_15 H56_13 1_555 1_555
C8_16 H43_13 1_555 1_555
C8_16 H45_13 1_555 1_555
C16_8 H46_13 1_555 1_555
C16_8 H47_13 1_555 1_555
C16_8 H48_13 1_555 1_555
C47_8 H49_13 1_555 1_555
C47_8 H50_13 1_555 1_555
C47_8 H51_13 1_555 1_555
C24_8 H52_13 1_555 1_555
C24_8 H53_13 1_555 1_555
C24_8 H54_13 1_555 1_555
C32_16 H55_13 1_555 1_555
C32_16 H57_13 1_555 1_555
C39_8 H58_13 1_555 1_555
C39_8 H59_13 1_555 1_555
C39_8 H60_13 1_555 1_555
C8_13 H43_14 1_555 1_555
C8_13 H45_14 1_555 1_555
C16_7 H46_14 1_555 1_555
C16_7 H47_14 1_555 1_555
C16_7 H48_14 1_555 1_555
C47_7 H49_14 1_555 1_555
C47_7 H50_14 1_555 1_555
C47_7 H51_14 1_555 1_555
C24_7 H52_14 1_555 1_555
C24_7 H53_14 1_555 1_555
C24_7 H54_14 1_555 1_555
C32_13 H55_14 1_555 1_555
C32_13 H57_14 1_555 1_555
C39_7 H58_14 1_555 1_555
C39_7 H59_14 1_555 1_555
C39_7 H60_14 1_555 1_555
C8_14 H44_14 1_555 1_555
C32_14 H56_14 1_555 1_555
C8_11 H43_15 1_555 1_555
C8_11 H45_15 1_555 1_555
C16_6 H46_15 1_555 1_555
C16_6 H47_15 1_555 1_555
C16_6 H48_15 1_555 1_555
C47_6 H49_15 1_555 1_555
C47_6 H50_15 1_555 1_555
C47_6 H51_15 1_555 1_555
C24_6 H52_15 1_555 1_555
C24_6 H53_15 1_555 1_555
C24_6 H54_15 1_555 1_555
C32_11 H55_15 1_555 1_555
C32_11 H57_15 1_555 1_555
C39_6 H58_15 1_555 1_555
C39_6 H59_15 1_555 1_555
C39_6 H60_15 1_555 1_555
C8_12 H44_15 1_555 1_555
C32_12 H56_15 1_555 1_555
C8_9 H44_16 1_555 1_555
C32_9 H56_16 1_555 1_555
C8_10 H43_16 1_555 1_555
C8_10 H45_16 1_555 1_555
C16_5 H46_16 1_555 1_555
C16_5 H47_16 1_555 1_555
C16_5 H48_16 1_555 1_555
C47_5 H49_16 1_555 1_555
C47_5 H50_16 1_555 1_555
C47_5 H51_16 1_555 1_555
C24_5 H52_16 1_555 1_555
C24_5 H53_16 1_555 1_555
C24_5 H54_16 1_555 1_555
C32_10 H55_16 1_555 1_555
C32_10 H57_16 1_555 1_555
C39_5 H58_16 1_555 1_555
C39_5 H59_16 1_555 1_555
C39_5 H60_16 1_555 1_555

#END
