
###############################################################################
#
# This file contains modified crystal structure data generated from the
# MOF subset of the Cambridge Structural Database (CSD) v543 
# hosted by the Cambridge Crystallographic Data Centre (CCDC).
#
# This work is licensed under the Creative Commons
# Attribution-NonCommercial-ShareAlike 4.0 International License.
# To view a copy of this license, visit
# http://creativecommons.org/licenses/by-nc-sa/4.0/
# or send a letter to
# Creative Commons, PO Box 1866, Mountain View, CA 94042, USA.
#
# CIF created using the CSD Python API on 29 September 2022
# The structure has been converted into the P1 space group
# The structure has a 3D framework
# The original CSD entry DIVYOZ is in the tetragonal crystal system
# The framework has been calculated to contain at least 10.0% void space
# The void calculation uses a probe of radius 1.32A, grid spacing 0.4
# The framework is charged, counterions have been retained in the structure
# H atom positions have been added when not included in the experimental data
# Generated hydrogen atom positions removed from atoms on special positions
#
###############################################################################

data_DIVYOZ
_chemical_formula_moiety         '(C360 H552 Cu32 N48 Na24 Ni16 O224 Pt8 16+)n'
_symmetry_cell_setting           triclinic
_symmetry_space_group_name_H-M   'P 1'
_symmetry_Int_Tables_number      1
_space_group_name_Hall           'P 1'
loop_
_symmetry_equiv_pos_site_id
_symmetry_equiv_pos_as_xyz
1 x,y,z
_cell_length_a                   35.895(2)
_cell_length_b                   35.895(2)
_cell_length_c                   15.3217(8)
_cell_angle_alpha                90
_cell_angle_beta                 90
_cell_angle_gamma                90
_cell_volume                     19741.3
loop_
_atom_site_label
_atom_site_type_symbol
_atom_site_fract_x
_atom_site_fract_y
_atom_site_fract_z
Na1 Na 0.1394(3) 0.6583(3) 0.0000
Na1_2 Na 0.1394(3) 0.6583(3) 1.0000
Na1_3 Na 0.8606(3) 0.3417(3) 0.0000
Na1_4 Na 0.8606(3) 0.3417(3) 1.0000
Na1_5 Na 0.3417(3) 0.1394(3) 0.0000
Na1_6 Na 0.3417(3) 0.1394(3) 1.0000
Na1_7 Na 0.6583(3) 0.8606(3) 0.0000
Na1_8 Na 0.6583(3) 0.8606(3) 1.0000
Na1_9 Na 0.8606(3) 0.6583(3) 0.0000
Na1_10 Na 0.8606(3) 0.6583(3) 1.0000
Na1_11 Na 0.1394(3) 0.3417(3) 0.0000
Na1_12 Na 0.1394(3) 0.3417(3) 1.0000
Na1_13 Na 0.6583(3) 0.1394(3) 0.0000
Na1_14 Na 0.6583(3) 0.1394(3) 1.0000
Na1_15 Na 0.3417(3) 0.8606(3) 0.0000
Na1_16 Na 0.3417(3) 0.8606(3) 1.0000
Na2 Na 0.2295(2) 0.7705(2) 0.0696(6)
Na2_2 Na 0.7705(2) 0.2295(2) 0.0696(6)
Na2_3 Na 0.2295(2) 0.2295(2) 0.0696(6)
Na2_4 Na 0.7705(2) 0.7705(2) 0.0696(6)
Na2_5 Na 0.7705(2) 0.7705(2) 0.9304(6)
Na2_6 Na 0.2295(2) 0.2295(2) 0.9304(6)
Na2_7 Na 0.7705(2) 0.2295(2) 0.9304(6)
Na2_8 Na 0.2295(2) 0.7705(2) 0.9304(6)
O1 O -0.0000 0.6967(12) 0.577(4)
O2 O -0.0000 0.753(2) 0.6398(14)
Pt1 Pt -0.0000 0.7462(3) 0.5000
O3 O -0.0000 0.6967(12) 0.423(4)
O4 O -0.0000 0.753(2) 0.3602(14)
H22 H 0.0225876 0.741087 0.664724
H23 H 3.19411e-18 0.779958 0.654346
H27 H -3.19411e-18 0.779958 0.345654
H22_2 H 0.0225876 0.741087 0.335276
O1_2 O 1.0000 0.6967(12) 0.577(4)
O2_2 O 1.0000 0.753(2) 0.6398(14)
Pt1_2 Pt 1.0000 0.7462(3) 0.5000
O3_2 O 1.0000 0.6967(12) 0.423(4)
O4_2 O 1.0000 0.753(2) 0.3602(14)
H23_2 H 1 0.779958 0.654346
H26 H 0.977412 0.741087 0.335276
H27_2 H 1 0.779958 0.345654
H26_2 H 0.977412 0.741087 0.664724
O1_3 O 0.0000 0.3033(12) 0.577(4)
O2_3 O 0.0000 0.247(2) 0.6398(14)
Pt1_3 Pt -0.0000 0.2538(3) 0.5000
O3_3 O 0.0000 0.3033(12) 0.423(4)
O4_3 O 0.0000 0.247(2) 0.3602(14)
H23_3 H -3.19411e-18 0.220042 0.654346
H26_3 H 0.0225876 0.258913 0.335276
H27_3 H 3.19411e-18 0.220042 0.345654
H26_4 H 0.0225876 0.258913 0.664724
O1_4 O 1.0000 0.3033(12) 0.577(4)
O2_4 O 1.0000 0.247(2) 0.6398(14)
Pt1_4 Pt 1.0000 0.2538(3) 0.5000
O3_4 O 1.0000 0.3033(12) 0.423(4)
O4_4 O 1.0000 0.247(2) 0.3602(14)
H22_3 H 0.977412 0.258913 0.664724
H23_4 H 1 0.220042 0.654346
H27_4 H 1 0.220042 0.345654
H22_4 H 0.977412 0.258913 0.335276
O1_5 O 0.3033(12) -0.0000 0.577(4)
O2_5 O 0.247(2) -0.0000 0.6398(14)
Pt1_5 Pt 0.2538(3) -0.0000 0.5000
O3_5 O 0.3033(12) -0.0000 0.423(4)
O4_5 O 0.247(2) -0.0000 0.3602(14)
H22_5 H 0.258913 0.0225876 0.664724
H23_5 H 0.220042 3.19411e-18 0.654346
H27_5 H 0.220042 -3.19411e-18 0.345654
H22_6 H 0.258913 0.0225876 0.335276
O1_6 O 0.3033(12) 1.0000 0.577(4)
O2_6 O 0.247(2) 1.0000 0.6398(14)
Pt1_6 Pt 0.2538(3) 1.0000 0.5000
O3_6 O 0.3033(12) 1.0000 0.423(4)
O4_6 O 0.247(2) 1.0000 0.3602(14)
H23_6 H 0.220042 1 0.654346
H26_5 H 0.258913 0.977412 0.335276
H27_6 H 0.220042 1 0.345654
H26_6 H 0.258913 0.977412 0.664724
O1_7 O 0.6967(12) 0.0000 0.577(4)
O2_7 O 0.753(2) 0.0000 0.6398(14)
Pt1_7 Pt 0.7462(3) 0.0000 0.5000
O3_7 O 0.6967(12) 0.0000 0.423(4)
O4_7 O 0.753(2) 0.0000 0.3602(14)
H23_7 H 0.779958 -3.19411e-18 0.654346
H26_7 H 0.741087 0.0225876 0.335276
H27_7 H 0.779958 3.19411e-18 0.345654
H26_8 H 0.741087 0.0225876 0.664724
O1_8 O 0.6967(12) 1.0000 0.577(4)
O2_8 O 0.753(2) 1.0000 0.6398(14)
Pt1_8 Pt 0.7462(3) 1.0000 0.5000
O3_8 O 0.6967(12) 1.0000 0.423(4)
O4_8 O 0.753(2) 1.0000 0.3602(14)
H22_7 H 0.741087 0.977412 0.664724
H23_8 H 0.779958 1 0.654346
H27_8 H 0.779958 1 0.345654
H22_8 H 0.741087 0.977412 0.335276
Cu1 Cu 0.16709(4) 0.5000 0.22491(8)
Cu2 Cu 0.25813(3) 0.74187(3) 0.27044(8)
Cu3 Cu -0.0000 0.65296(5) 0.22974(9)
Ni1 Ni 0.14747(3) 0.64592(3) 0.25004(6)
O5 O 0.18197(14) 0.60891(16) 0.1796(3)
O6 O 0.13404(15) 0.59784(16) 0.3144(3)
O7 O 0.14129(15) 0.53598(18) 0.2966(3)
O8 O 0.18771(14) 0.65984(14) 0.3367(3)
O9 O 0.16650(14) 0.69208(16) 0.1857(3)
O10 O 0.21556(15) 0.73108(15) 0.1932(3)
O11 O 0.10396(15) 0.67265(16) 0.3144(3)
O12 O 0.10691(15) 0.63747(18) 0.1619(3)
O13 O 0.04077(15) 0.67383(18) 0.3064(3)
N1 N 0.18290(16) 0.54408(19) 0.1585(4)
N2 N 0.23771(17) 0.69998(18) 0.3401(3)
N3 N 0.04268(17) 0.63651(19) 0.1594(4)
C1 C 0.1470(2) 0.5695(2) 0.2762(5)
C2 C 0.1731(2) 0.5769(3) 0.1991(5)
C3 C 0.1960(2) 0.7049(2) 0.2201(5)
C4 C 0.2079(2) 0.6859(2) 0.3067(4)
C5 C 0.0750(2) 0.6451(2) 0.1930(5)
C6 C 0.0727(2) 0.6649(2) 0.2810(5)
C7 C 0.20359(19) 0.5473(2) 0.0772(4)
C8 C 0.1831(3) 0.5479(3) 0.0000
C9 C 0.2427(2) 0.5489(2) 0.0808(5)
C10 C 0.2595(3) 0.5491(3) 0.0000
H1 H 0.2859 0.5495 0.0000
C11 C 0.2634(3) 0.5510(4) 0.1635(6)
H2 H 0.2465 0.5456 0.2121
H3 H 0.2737 0.5761 0.1705
H4 H 0.2837 0.5328 0.1629
C12 C 0.1408(3) 0.5492(4) 0.0000
C13 C 0.2510(2) 0.6844(2) 0.4224(4)
C14 C 0.2360(3) 0.6997(3) 0.5000
C15 C 0.2769(3) 0.6560(3) 0.4213(5)
C16 C 0.2902(5) 0.6433(6) 0.5000
H5 H 0.3094 0.6251 0.5000
C17 C 0.2887(4) 0.6378(4) 0.3374(6)
H6 H 0.3048 0.6164 0.3504
H7 H 0.3024 0.6558 0.3017
H8 H 0.2666 0.6293 0.3056
C18 C 0.2064(5) 0.7281(5) 0.5000
C19 C 0.04463(19) 0.6157(2) 0.0783(4)
C20 C 0.0471(2) 0.5765(2) 0.0816(5)
C21 C 0.0483(3) 0.5585(3) 0.0000
H9 H 0.0502 0.5321 0.0000
C22 C 0.0438(2) 0.6362(3) 0.0000
C23 C 0.0460(4) 0.6767(3) 0.0000
C24 C 0.0508(3) 0.5558(3) 0.1632(6)
H10 H 0.0326 0.5650 0.2056
H11 H 0.0760 0.5592 0.1865
H12 H 0.0463 0.5293 0.1523
O14 O 0.2126(3) 0.5000 0.3431(6)
O15 O 0.2934(2) 0.7066(2) 0.1517(6)
O16 O -0.0000 0.6035(3) 0.3484(7)
O17 O -0.0000 0.7264(4) 0.1894(9)
O21 O 0.18771(14) 0.65984(14) 0.6633(3)
O22 O 0.16650(14) 0.69208(16) 0.8143(3)
O23 O 0.21556(15) 0.73108(15) 0.8068(3)
N5 N 0.23771(17) 0.69998(18) 0.6599(3)
C30 C 0.1960(2) 0.7049(2) 0.7799(5)
C31 C 0.2079(2) 0.6859(2) 0.6933(4)
C32 C 0.2510(2) 0.6844(2) 0.5776(4)
C33 C 0.2769(3) 0.6560(3) 0.5787(5)
C34 C 0.2887(4) 0.6378(4) 0.6626(6)
H16 H 0.3048 0.6164 0.6496
H17 H 0.3024 0.6558 0.6983
H18 H 0.2666 0.6293 0.6944
Cu5 Cu 0.25813(3) 0.74187(3) 0.72956(8)
Ni3 Ni 0.14747(3) 0.64592(3) 0.74996(6)
O27 O 0.14129(15) 0.46402(18) 0.2966(3)
O30 O 0.26892(15) 0.78444(15) 0.1932(3)
N7 N 0.18290(16) 0.45592(19) 0.1585(4)
N8 N 0.30002(18) 0.76229(17) 0.3401(3)
H32 H 0.0247958 0.733531 0.166018
H34 H 0.18176 0.717026 0.467649
H35 H 0.199494 0.73551 0.566998
H36 H 0.216053 0.752768 0.465353
H39 H 0.0720696 0.685412 0.0300849
H41 H 0.0226832 0.688094 0.0368132
H44 H 0.131453 0.574283 0.0334531
H46 H 0.129931 0.524764 0.0335577
C8_2 C 0.1831(3) 0.5479(3) 1.0000
C10_2 C 0.2595(3) 0.5491(3) 1.0000
H1_2 H 0.2859 0.5495 1.0000
C12_2 C 0.1408(3) 0.5492(4) 1.0000
C21_2 C 0.0483(3) 0.5585(3) 1.0000
H9_2 H 0.0502 0.5321 1.0000
C22_2 C 0.0438(2) 0.6362(3) 1.0000
C23_2 C 0.0460(4) 0.6767(3) 1.0000
O18 O 0.18197(14) 0.60891(16) 0.8204(3)
O19 O 0.13404(15) 0.59784(16) 0.6856(3)
O20 O 0.14129(15) 0.53598(18) 0.7034(3)
N4 N 0.18290(16) 0.54408(19) 0.8415(4)
C25 C 0.1470(2) 0.5695(2) 0.7238(5)
C26 C 0.1731(2) 0.5769(3) 0.8009(5)
C27 C 0.20359(19) 0.5473(2) 0.9228(4)
C28 C 0.2427(2) 0.5489(2) 0.9192(5)
C29 C 0.2634(3) 0.5510(4) 0.8365(6)
H13 H 0.2465 0.5456 0.7879
H14 H 0.2737 0.5761 0.8295
H15 H 0.2837 0.5328 0.8371
O24 O 0.10396(15) 0.67265(16) 0.6856(3)
O25 O 0.10691(15) 0.63747(18) 0.8381(3)
O26 O 0.04077(15) 0.67383(18) 0.6936(3)
N6 N 0.04268(17) 0.63651(19) 0.8406(4)
C35 C 0.0750(2) 0.6451(2) 0.8070(5)
C36 C 0.0727(2) 0.6649(2) 0.7190(5)
C37 C 0.04463(19) 0.6157(2) 0.9217(4)
C38 C 0.0471(2) 0.5765(2) 0.9184(5)
C39 C 0.0508(3) 0.5558(3) 0.8368(6)
H19 H 0.0326 0.5650 0.7944
H20 H 0.0760 0.5592 0.8135
H21 H 0.0463 0.5293 0.8477
Cu4 Cu 0.16709(4) 0.5000 0.77509(8)
Cu6 Cu -0.0000 0.65296(5) 0.77026(9)
H40 H 0.0448929 0.686888 0.933102
H45 H 0.130691 0.549485 0.932989
Cu3_2 Cu 1.0000 0.65296(5) 0.22974(9)
O16_2 O 1.0000 0.6035(3) 0.3484(7)
O17_2 O 1.0000 0.7264(4) 0.1894(9)
O31 O 0.95923(15) 0.67383(18) 0.3064(3)
N9 N 0.95732(17) 0.63651(19) 0.1594(4)
H30 H 0.994208 0.615252 0.405481
H31 H 0.980872 0.584372 0.334834
H33 H 0.980597 0.731399 0.144714
Cu6_2 Cu 1.0000 0.65296(5) 0.77026(9)
Cu3_3 Cu 0.0000 0.34704(5) 0.22974(9)
O16_3 O 0.0000 0.3965(3) 0.3484(7)
O17_3 O 0.0000 0.2736(4) 0.1894(9)
O31_2 O 0.04077(15) 0.32617(18) 0.3064(3)
N9_2 N 0.04268(17) 0.36349(19) 0.1594(4)
H30_2 H 0.00579172 0.384748 0.405481
H31_2 H 0.0191278 0.415628 0.334834
H33_2 H 0.0194032 0.268601 0.144714
Cu6_3 Cu 0.0000 0.34704(5) 0.77026(9)
Cu1_2 Cu 0.83291(4) 0.5000 0.22491(8)
Cu2_2 Cu 0.74187(3) 0.25813(3) 0.27044(8)
Cu3_4 Cu 1.0000 0.34704(5) 0.22974(9)
Ni1_2 Ni 0.85253(3) 0.35408(3) 0.25004(6)
O5_2 O 0.81803(14) 0.39109(16) 0.1796(3)
O6_2 O 0.86596(15) 0.40216(16) 0.3144(3)
O7_2 O 0.85871(15) 0.46402(18) 0.2966(3)
O8_2 O 0.81229(14) 0.34016(14) 0.3367(3)
O9_2 O 0.83350(14) 0.30792(16) 0.1857(3)
O10_2 O 0.78444(15) 0.26892(15) 0.1932(3)
O11_2 O 0.89604(15) 0.32735(16) 0.3144(3)
O12_2 O 0.89309(15) 0.36253(18) 0.1619(3)
O13_2 O 0.95923(15) 0.32617(18) 0.3064(3)
N1_2 N 0.81710(16) 0.45592(19) 0.1585(4)
N2_2 N 0.76229(17) 0.30002(18) 0.3401(3)
N3_2 N 0.95732(17) 0.36349(19) 0.1594(4)
C1_2 C 0.8530(2) 0.4305(2) 0.2762(5)
C2_2 C 0.8269(2) 0.4231(3) 0.1991(5)
C3_2 C 0.8040(2) 0.2951(2) 0.2201(5)
C4_2 C 0.7921(2) 0.3141(2) 0.3067(4)
C5_2 C 0.9250(2) 0.3549(2) 0.1930(5)
C6_2 C 0.9273(2) 0.3351(2) 0.2810(5)
C7_2 C 0.79641(19) 0.4527(2) 0.0772(4)
C8_3 C 0.8169(3) 0.4521(3) 0.0000
C9_2 C 0.7573(2) 0.4511(2) 0.0808(5)
C10_3 C 0.7405(3) 0.4509(3) 0.0000
H1_3 H 0.7141 0.4505 0.0000
C11_2 C 0.7366(3) 0.4490(4) 0.1635(6)
H2_2 H 0.7535 0.4544 0.2121
H3_2 H 0.7263 0.4239 0.1705
H4_2 H 0.7163 0.4672 0.1629
C12_3 C 0.8592(3) 0.4508(4) 0.0000
C13_2 C 0.7490(2) 0.3156(2) 0.4224(4)
C14_2 C 0.7640(3) 0.3003(3) 0.5000
C15_2 C 0.7231(3) 0.3440(3) 0.4213(5)
C16_2 C 0.7098(5) 0.3567(6) 0.5000
H5_2 H 0.6906 0.3749 0.5000
C17_2 C 0.7113(4) 0.3622(4) 0.3374(6)
H6_2 H 0.6952 0.3836 0.3504
H7_2 H 0.6976 0.3442 0.3017
H8_2 H 0.7334 0.3707 0.3056
C18_2 C 0.7936(5) 0.2719(5) 0.5000
C19_2 C 0.95537(19) 0.3843(2) 0.0783(4)
C20_2 C 0.9529(2) 0.4235(2) 0.0816(5)
C21_3 C 0.9517(3) 0.4415(3) 0.0000
H9_3 H 0.9498 0.4679 0.0000
C22_3 C 0.9562(2) 0.3638(3) 0.0000
C23_3 C 0.9540(4) 0.3233(3) 0.0000
C24_2 C 0.9492(3) 0.4442(3) 0.1632(6)
H10_2 H 0.9674 0.4350 0.2056
H11_2 H 0.9240 0.4408 0.1865
H12_2 H 0.9537 0.4707 0.1523
O14_2 O 0.7874(3) 0.5000 0.3431(6)
O15_2 O 0.7066(2) 0.2934(2) 0.1517(6)
O16_4 O 1.0000 0.3965(3) 0.3484(7)
O17_4 O 1.0000 0.2736(4) 0.1894(9)
O21_2 O 0.81229(14) 0.34016(14) 0.6633(3)
O22_2 O 0.83350(14) 0.30792(16) 0.8143(3)
O23_2 O 0.78444(15) 0.26892(15) 0.8068(3)
N5_2 N 0.76229(17) 0.30002(18) 0.6599(3)
C30_2 C 0.8040(2) 0.2951(2) 0.7799(5)
C31_2 C 0.7921(2) 0.3141(2) 0.6933(4)
C32_2 C 0.7490(2) 0.3156(2) 0.5776(4)
C33_2 C 0.7231(3) 0.3440(3) 0.5787(5)
C34_2 C 0.7113(4) 0.3622(4) 0.6626(6)
H16_2 H 0.6952 0.3836 0.6496
H17_2 H 0.6976 0.3442 0.6983
H18_2 H 0.7334 0.3707 0.6944
Cu5_2 Cu 0.74187(3) 0.25813(3) 0.72956(8)
Ni3_2 Ni 0.85253(3) 0.35408(3) 0.74996(6)
O27_2 O 0.85871(15) 0.53598(18) 0.2966(3)
O30_2 O 0.73108(15) 0.21556(15) 0.1932(3)
N7_2 N 0.81710(16) 0.54408(19) 0.1585(4)
N8_2 N 0.69998(18) 0.23771(17) 0.3401(3)
H32_2 H 0.975204 0.266469 0.166018
H34_2 H 0.81824 0.282974 0.467649
H35_2 H 0.800506 0.26449 0.566998
H36_2 H 0.783947 0.247232 0.465353
H39_2 H 0.92793 0.314588 0.0300849
H41_2 H 0.977317 0.311906 0.0368132
H44_2 H 0.868547 0.425717 0.0334531
H46_2 H 0.870069 0.475236 0.0335577
C8_4 C 0.8169(3) 0.4521(3) 1.0000
C10_4 C 0.7405(3) 0.4509(3) 1.0000
H1_4 H 0.7141 0.4505 1.0000
C12_4 C 0.8592(3) 0.4508(4) 1.0000
C21_4 C 0.9517(3) 0.4415(3) 1.0000
H9_4 H 0.9498 0.4679 1.0000
C22_4 C 0.9562(2) 0.3638(3) 1.0000
C23_4 C 0.9540(4) 0.3233(3) 1.0000
O18_2 O 0.81803(14) 0.39109(16) 0.8204(3)
O19_2 O 0.86596(15) 0.40216(16) 0.6856(3)
O20_2 O 0.85871(15) 0.46402(18) 0.7034(3)
N4_2 N 0.81710(16) 0.45592(19) 0.8415(4)
C25_2 C 0.8530(2) 0.4305(2) 0.7238(5)
C26_2 C 0.8269(2) 0.4231(3) 0.8009(5)
C27_2 C 0.79641(19) 0.4527(2) 0.9228(4)
C28_2 C 0.7573(2) 0.4511(2) 0.9192(5)
C29_2 C 0.7366(3) 0.4490(4) 0.8365(6)
H13_2 H 0.7535 0.4544 0.7879
H14_2 H 0.7263 0.4239 0.8295
H15_2 H 0.7163 0.4672 0.8371
O24_2 O 0.89604(15) 0.32735(16) 0.6856(3)
O25_2 O 0.89309(15) 0.36253(18) 0.8381(3)
O26_2 O 0.95923(15) 0.32617(18) 0.6936(3)
N6_2 N 0.95732(17) 0.36349(19) 0.8406(4)
C35_2 C 0.9250(2) 0.3549(2) 0.8070(5)
C36_2 C 0.9273(2) 0.3351(2) 0.7190(5)
C37_2 C 0.95537(19) 0.3843(2) 0.9217(4)
C38_2 C 0.9529(2) 0.4235(2) 0.9184(5)
C39_2 C 0.9492(3) 0.4442(3) 0.8368(6)
H19_2 H 0.9674 0.4350 0.7944
H20_2 H 0.9240 0.4408 0.8135
H21_2 H 0.9537 0.4707 0.8477
Cu4_2 Cu 0.83291(4) 0.5000 0.77509(8)
Cu6_4 Cu 1.0000 0.34704(5) 0.77026(9)
H40_2 H 0.955107 0.313112 0.933102
H45_2 H 0.869309 0.450515 0.932989
Cu1_3 Cu 0.5000 0.16709(4) 0.22491(8)
Cu2_3 Cu 0.25813(3) 0.25813(3) 0.27044(8)
Cu3_5 Cu 0.34704(5) -0.0000 0.22974(9)
Ni1_3 Ni 0.35408(3) 0.14747(3) 0.25004(6)
O5_3 O 0.39109(16) 0.18197(14) 0.1796(3)
O6_3 O 0.40216(16) 0.13404(15) 0.3144(3)
O7_3 O 0.46402(18) 0.14129(15) 0.2966(3)
O8_3 O 0.34016(14) 0.18771(14) 0.3367(3)
O9_3 O 0.30792(16) 0.16650(14) 0.1857(3)
O10_3 O 0.26892(15) 0.21556(15) 0.1932(3)
O11_3 O 0.32735(16) 0.10396(15) 0.3144(3)
O12_3 O 0.36253(18) 0.10691(15) 0.1619(3)
O13_3 O 0.32617(18) 0.04077(15) 0.3064(3)
N1_3 N 0.45592(19) 0.18290(16) 0.1585(4)
N2_3 N 0.30002(18) 0.23771(17) 0.3401(3)
N3_3 N 0.36349(19) 0.04268(17) 0.1594(4)
C1_3 C 0.4305(2) 0.1470(2) 0.2762(5)
C2_3 C 0.4231(3) 0.1731(2) 0.1991(5)
C3_3 C 0.2951(2) 0.1960(2) 0.2201(5)
C4_3 C 0.3141(2) 0.2079(2) 0.3067(4)
C5_3 C 0.3549(2) 0.0750(2) 0.1930(5)
C6_3 C 0.3351(2) 0.0727(2) 0.2810(5)
C7_3 C 0.4527(2) 0.20359(19) 0.0772(4)
C8_5 C 0.4521(3) 0.1831(3) 0.0000
C9_3 C 0.4511(2) 0.2427(2) 0.0808(5)
C10_5 C 0.4509(3) 0.2595(3) 0.0000
H1_5 H 0.4505 0.2859 0.0000
C11_3 C 0.4490(4) 0.2634(3) 0.1635(6)
H2_3 H 0.4544 0.2465 0.2121
H3_3 H 0.4239 0.2737 0.1705
H4_3 H 0.4672 0.2837 0.1629
C12_5 C 0.4508(4) 0.1408(3) 0.0000
C13_3 C 0.3156(2) 0.2510(2) 0.4224(4)
C14_3 C 0.3003(3) 0.2360(3) 0.5000
C15_3 C 0.3440(3) 0.2769(3) 0.4213(5)
C16_3 C 0.3567(6) 0.2902(5) 0.5000
H5_3 H 0.3749 0.3094 0.5000
C17_3 C 0.3622(4) 0.2887(4) 0.3374(6)
H6_3 H 0.3836 0.3048 0.3504
H7_3 H 0.3442 0.3024 0.3017
H8_3 H 0.3707 0.2666 0.3056
C18_3 C 0.2719(5) 0.2064(5) 0.5000
C19_3 C 0.3843(2) 0.04463(19) 0.0783(4)
C20_3 C 0.4235(2) 0.0471(2) 0.0816(5)
C21_5 C 0.4415(3) 0.0483(3) 0.0000
H9_5 H 0.4679 0.0502 0.0000
C22_5 C 0.3638(3) 0.0438(2) 0.0000
C23_5 C 0.3233(3) 0.0460(4) 0.0000
C24_3 C 0.4442(3) 0.0508(3) 0.1632(6)
H10_3 H 0.4350 0.0326 0.2056
H11_3 H 0.4408 0.0760 0.1865
H12_3 H 0.4707 0.0463 0.1523
O14_3 O 0.5000 0.2126(3) 0.3431(6)
O15_3 O 0.2934(2) 0.2934(2) 0.1517(6)
O16_5 O 0.3965(3) -0.0000 0.3484(7)
O17_5 O 0.2736(4) -0.0000 0.1894(9)
O21_3 O 0.34016(14) 0.18771(14) 0.6633(3)
O22_3 O 0.30792(16) 0.16650(14) 0.8143(3)
O23_3 O 0.26892(15) 0.21556(15) 0.8068(3)
N5_3 N 0.30002(18) 0.23771(17) 0.6599(3)
C30_3 C 0.2951(2) 0.1960(2) 0.7799(5)
C31_3 C 0.3141(2) 0.2079(2) 0.6933(4)
C32_3 C 0.3156(2) 0.2510(2) 0.5776(4)
C33_3 C 0.3440(3) 0.2769(3) 0.5787(5)
C34_3 C 0.3622(4) 0.2887(4) 0.6626(6)
H16_3 H 0.3836 0.3048 0.6496
H17_3 H 0.3442 0.3024 0.6983
H18_3 H 0.3707 0.2666 0.6944
Cu5_3 Cu 0.25813(3) 0.25813(3) 0.72956(8)
Ni3_3 Ni 0.35408(3) 0.14747(3) 0.74996(6)
O27_3 O 0.53598(18) 0.14129(15) 0.2966(3)
O30_3 O 0.21556(15) 0.26892(15) 0.1932(3)
N7_3 N 0.54408(19) 0.18290(16) 0.1585(4)
N8_3 N 0.23771(17) 0.30002(18) 0.3401(3)
H32_3 H 0.266469 0.0247958 0.166018
H34_3 H 0.282974 0.18176 0.467649
H35_3 H 0.26449 0.199494 0.566998
H36_3 H 0.247232 0.216053 0.465353
H39_3 H 0.314588 0.0720696 0.0300849
H41_3 H 0.311906 0.0226832 0.0368132
H44_3 H 0.425717 0.131453 0.0334531
H46_3 H 0.475236 0.129931 0.0335577
C8_6 C 0.4521(3) 0.1831(3) 1.0000
C10_6 C 0.4509(3) 0.2595(3) 1.0000
H1_6 H 0.4505 0.2859 1.0000
C12_6 C 0.4508(4) 0.1408(3) 1.0000
C21_6 C 0.4415(3) 0.0483(3) 1.0000
H9_6 H 0.4679 0.0502 1.0000
C22_6 C 0.3638(3) 0.0438(2) 1.0000
C23_6 C 0.3233(3) 0.0460(4) 1.0000
O18_3 O 0.39109(16) 0.18197(14) 0.8204(3)
O19_3 O 0.40216(16) 0.13404(15) 0.6856(3)
O20_3 O 0.46402(18) 0.14129(15) 0.7034(3)
N4_3 N 0.45592(19) 0.18290(16) 0.8415(4)
C25_3 C 0.4305(2) 0.1470(2) 0.7238(5)
C26_3 C 0.4231(3) 0.1731(2) 0.8009(5)
C27_3 C 0.4527(2) 0.20359(19) 0.9228(4)
C28_3 C 0.4511(2) 0.2427(2) 0.9192(5)
C29_3 C 0.4490(4) 0.2634(3) 0.8365(6)
H13_3 H 0.4544 0.2465 0.7879
H14_3 H 0.4239 0.2737 0.8295
H15_3 H 0.4672 0.2837 0.8371
O24_3 O 0.32735(16) 0.10396(15) 0.6856(3)
O25_3 O 0.36253(18) 0.10691(15) 0.8381(3)
O26_3 O 0.32617(18) 0.04077(15) 0.6936(3)
N6_3 N 0.36349(19) 0.04268(17) 0.8406(4)
C35_3 C 0.3549(2) 0.0750(2) 0.8070(5)
C36_3 C 0.3351(2) 0.0727(2) 0.7190(5)
C37_3 C 0.3843(2) 0.04463(19) 0.9217(4)
C38_3 C 0.4235(2) 0.0471(2) 0.9184(5)
C39_3 C 0.4442(3) 0.0508(3) 0.8368(6)
H19_3 H 0.4350 0.0326 0.7944
H20_3 H 0.4408 0.0760 0.8135
H21_3 H 0.4707 0.0463 0.8477
Cu4_3 Cu 0.5000 0.16709(4) 0.77509(8)
Cu6_5 Cu 0.34704(5) -0.0000 0.77026(9)
H40_3 H 0.313112 0.0448929 0.933102
H45_3 H 0.450515 0.130691 0.932989
Cu3_6 Cu 0.34704(5) 1.0000 0.22974(9)
O16_6 O 0.3965(3) 1.0000 0.3484(7)
O17_6 O 0.2736(4) 1.0000 0.1894(9)
O31_3 O 0.32617(18) 0.95923(15) 0.3064(3)
N9_3 N 0.36349(19) 0.95732(17) 0.1594(4)
H30_3 H 0.384748 0.994208 0.405481
H31_3 H 0.415628 0.980872 0.334834
H33_3 H 0.268601 0.980597 0.144714
Cu6_6 Cu 0.34704(5) 1.0000 0.77026(9)
Cu3_7 Cu 0.65296(5) 0.0000 0.22974(9)
O16_7 O 0.6035(3) 0.0000 0.3484(7)
O17_7 O 0.7264(4) 0.0000 0.1894(9)
O31_4 O 0.67383(18) 0.04077(15) 0.3064(3)
N9_4 N 0.63651(19) 0.04268(17) 0.1594(4)
H30_4 H 0.615252 0.00579172 0.405481
H31_4 H 0.584372 0.0191278 0.334834
H33_4 H 0.731399 0.0194032 0.144714
Cu6_7 Cu 0.65296(5) 0.0000 0.77026(9)
Cu1_4 Cu 0.5000 0.83291(4) 0.22491(8)
Cu2_4 Cu 0.74187(3) 0.74187(3) 0.27044(8)
Cu3_8 Cu 0.65296(5) 1.0000 0.22974(9)
Ni1_4 Ni 0.64592(3) 0.85253(3) 0.25004(6)
O5_4 O 0.60891(16) 0.81803(14) 0.1796(3)
O6_4 O 0.59784(16) 0.86596(15) 0.3144(3)
O7_4 O 0.53598(18) 0.85871(15) 0.2966(3)
O8_4 O 0.65984(14) 0.81229(14) 0.3367(3)
O9_4 O 0.69208(16) 0.83350(14) 0.1857(3)
O10_4 O 0.73108(15) 0.78444(15) 0.1932(3)
O11_4 O 0.67265(16) 0.89604(15) 0.3144(3)
O12_4 O 0.63747(18) 0.89309(15) 0.1619(3)
O13_4 O 0.67383(18) 0.95923(15) 0.3064(3)
N1_4 N 0.54408(19) 0.81710(16) 0.1585(4)
N2_4 N 0.69998(18) 0.76229(17) 0.3401(3)
N3_4 N 0.63651(19) 0.95732(17) 0.1594(4)
C1_4 C 0.5695(2) 0.8530(2) 0.2762(5)
C2_4 C 0.5769(3) 0.8269(2) 0.1991(5)
C3_4 C 0.7049(2) 0.8040(2) 0.2201(5)
C4_4 C 0.6859(2) 0.7921(2) 0.3067(4)
C5_4 C 0.6451(2) 0.9250(2) 0.1930(5)
C6_4 C 0.6649(2) 0.9273(2) 0.2810(5)
C7_4 C 0.5473(2) 0.79641(19) 0.0772(4)
C8_7 C 0.5479(3) 0.8169(3) 0.0000
C9_4 C 0.5489(2) 0.7573(2) 0.0808(5)
C10_7 C 0.5491(3) 0.7405(3) 0.0000
H1_7 H 0.5495 0.7141 0.0000
C11_4 C 0.5510(4) 0.7366(3) 0.1635(6)
H2_4 H 0.5456 0.7535 0.2121
H3_4 H 0.5761 0.7263 0.1705
H4_4 H 0.5328 0.7163 0.1629
C12_7 C 0.5492(4) 0.8592(3) 0.0000
C13_4 C 0.6844(2) 0.7490(2) 0.4224(4)
C14_4 C 0.6997(3) 0.7640(3) 0.5000
C15_4 C 0.6560(3) 0.7231(3) 0.4213(5)
C16_4 C 0.6433(6) 0.7098(5) 0.5000
H5_4 H 0.6251 0.6906 0.5000
C17_4 C 0.6378(4) 0.7113(4) 0.3374(6)
H6_4 H 0.6164 0.6952 0.3504
H7_4 H 0.6558 0.6976 0.3017
H8_4 H 0.6293 0.7334 0.3056
C18_4 C 0.7281(5) 0.7936(5) 0.5000
C19_4 C 0.6157(2) 0.95537(19) 0.0783(4)
C20_4 C 0.5765(2) 0.9529(2) 0.0816(5)
C21_7 C 0.5585(3) 0.9517(3) 0.0000
H9_7 H 0.5321 0.9498 0.0000
C22_7 C 0.6362(3) 0.9562(2) 0.0000
C23_7 C 0.6767(3) 0.9540(4) 0.0000
C24_4 C 0.5558(3) 0.9492(3) 0.1632(6)
H10_4 H 0.5650 0.9674 0.2056
H11_4 H 0.5592 0.9240 0.1865
H12_4 H 0.5293 0.9537 0.1523
O14_4 O 0.5000 0.7874(3) 0.3431(6)
O15_4 O 0.7066(2) 0.7066(2) 0.1517(6)
O16_8 O 0.6035(3) 1.0000 0.3484(7)
O17_8 O 0.7264(4) 1.0000 0.1894(9)
O21_4 O 0.65984(14) 0.81229(14) 0.6633(3)
O22_4 O 0.69208(16) 0.83350(14) 0.8143(3)
O23_4 O 0.73108(15) 0.78444(15) 0.8068(3)
N5_4 N 0.69998(18) 0.76229(17) 0.6599(3)
C30_4 C 0.7049(2) 0.8040(2) 0.7799(5)
C31_4 C 0.6859(2) 0.7921(2) 0.6933(4)
C32_4 C 0.6844(2) 0.7490(2) 0.5776(4)
C33_4 C 0.6560(3) 0.7231(3) 0.5787(5)
C34_4 C 0.6378(4) 0.7113(4) 0.6626(6)
H16_4 H 0.6164 0.6952 0.6496
H17_4 H 0.6558 0.6976 0.6983
H18_4 H 0.6293 0.7334 0.6944
Cu5_4 Cu 0.74187(3) 0.74187(3) 0.72956(8)
Ni3_4 Ni 0.64592(3) 0.85253(3) 0.74996(6)
O27_4 O 0.46402(18) 0.85871(15) 0.2966(3)
O30_4 O 0.78444(15) 0.73108(15) 0.1932(3)
N7_4 N 0.45592(19) 0.81710(16) 0.1585(4)
N8_4 N 0.76229(17) 0.69998(18) 0.3401(3)
H32_4 H 0.733531 0.975204 0.166018
H34_4 H 0.717026 0.81824 0.467649
H35_4 H 0.73551 0.800506 0.566998
H36_4 H 0.752768 0.783947 0.465353
H39_4 H 0.685412 0.92793 0.0300849
H41_4 H 0.688094 0.977317 0.0368132
H44_4 H 0.574283 0.868547 0.0334531
H46_4 H 0.524764 0.870069 0.0335577
C8_8 C 0.5479(3) 0.8169(3) 1.0000
C10_8 C 0.5491(3) 0.7405(3) 1.0000
H1_8 H 0.5495 0.7141 1.0000
C12_8 C 0.5492(4) 0.8592(3) 1.0000
C21_8 C 0.5585(3) 0.9517(3) 1.0000
H9_8 H 0.5321 0.9498 1.0000
C22_8 C 0.6362(3) 0.9562(2) 1.0000
C23_8 C 0.6767(3) 0.9540(4) 1.0000
O18_4 O 0.60891(16) 0.81803(14) 0.8204(3)
O19_4 O 0.59784(16) 0.86596(15) 0.6856(3)
O20_4 O 0.53598(18) 0.85871(15) 0.7034(3)
N4_4 N 0.54408(19) 0.81710(16) 0.8415(4)
C25_4 C 0.5695(2) 0.8530(2) 0.7238(5)
C26_4 C 0.5769(3) 0.8269(2) 0.8009(5)
C27_4 C 0.5473(2) 0.79641(19) 0.9228(4)
C28_4 C 0.5489(2) 0.7573(2) 0.9192(5)
C29_4 C 0.5510(4) 0.7366(3) 0.8365(6)
H13_4 H 0.5456 0.7535 0.7879
H14_4 H 0.5761 0.7263 0.8295
H15_4 H 0.5328 0.7163 0.8371
O24_4 O 0.67265(16) 0.89604(15) 0.6856(3)
O25_4 O 0.63747(18) 0.89309(15) 0.8381(3)
O26_4 O 0.67383(18) 0.95923(15) 0.6936(3)
N6_4 N 0.63651(19) 0.95732(17) 0.8406(4)
C35_4 C 0.6451(2) 0.9250(2) 0.8070(5)
C36_4 C 0.6649(2) 0.9273(2) 0.7190(5)
C37_4 C 0.6157(2) 0.95537(19) 0.9217(4)
C38_4 C 0.5765(2) 0.9529(2) 0.9184(5)
C39_4 C 0.5558(3) 0.9492(3) 0.8368(6)
H19_4 H 0.5650 0.9674 0.7944
H20_4 H 0.5592 0.9240 0.8135
H21_4 H 0.5293 0.9537 0.8477
Cu4_4 Cu 0.5000 0.83291(4) 0.77509(8)
Cu6_8 Cu 0.65296(5) 1.0000 0.77026(9)
H40_4 H 0.686888 0.955107 0.933102
H45_4 H 0.549485 0.869309 0.932989
O16_9 O 0.0000 0.6035(3) 0.6516(7)
O17_9 O 0.0000 0.7264(4) 0.8106(9)
H30_5 H 0.00579172 0.615252 0.594519
H31_5 H 0.0191278 0.584372 0.665166
H33_5 H 0.0194032 0.731399 0.855286
C8_9 C 0.8169(3) 0.5479(3) 0.0000
C10_9 C 0.7405(3) 0.5491(3) 0.0000
H1_9 H 0.7141 0.5495 0.0000
C12_9 C 0.8592(3) 0.5492(4) 0.0000
C21_9 C 0.9517(3) 0.5585(3) 0.0000
H9_9 H 0.9498 0.5321 0.0000
C22_9 C 0.9562(2) 0.6362(3) 0.0000
C23_9 C 0.9540(4) 0.6767(3) 0.0000
O18_5 O 0.81803(14) 0.60891(16) 0.1796(3)
O19_5 O 0.86596(15) 0.59784(16) 0.3144(3)
C25_5 C 0.8530(2) 0.5695(2) 0.2762(5)
C26_5 C 0.8269(2) 0.5769(3) 0.1991(5)
C27_5 C 0.79641(19) 0.5473(2) 0.0772(4)
C28_5 C 0.7573(2) 0.5489(2) 0.0808(5)
C29_5 C 0.7366(3) 0.5510(4) 0.1635(6)
H13_5 H 0.7535 0.5456 0.2121
H14_5 H 0.7263 0.5761 0.1705
H15_5 H 0.7163 0.5328 0.1629
O24_5 O 0.89604(15) 0.67265(16) 0.3144(3)
O25_5 O 0.89309(15) 0.63747(18) 0.1619(3)
C35_5 C 0.9250(2) 0.6451(2) 0.1930(5)
C36_5 C 0.9273(2) 0.6649(2) 0.2810(5)
C37_5 C 0.95537(19) 0.6157(2) 0.0783(4)
C38_5 C 0.9529(2) 0.5765(2) 0.0816(5)
C39_5 C 0.9492(3) 0.5558(3) 0.1632(6)
H19_5 H 0.9674 0.5650 0.2056
H20_5 H 0.9240 0.5592 0.1865
H21_5 H 0.9537 0.5293 0.1523
Ni2 Ni 0.85253(3) 0.64592(3) 0.25004(6)
O28 O 0.81229(14) 0.65984(14) 0.3367(3)
O29 O 0.83350(14) 0.69208(16) 0.1857(3)
H40_5 H 0.955107 0.686888 0.0668981
H45_5 H 0.869309 0.549485 0.0670108
Ni1_5 Ni 0.85253(3) 0.64592(3) 0.74996(6)
O5_5 O 0.81803(14) 0.60891(16) 0.8204(3)
O6_5 O 0.86596(15) 0.59784(16) 0.6856(3)
O7_5 O 0.85871(15) 0.53598(18) 0.7034(3)
O8_5 O 0.81229(14) 0.65984(14) 0.6633(3)
O9_5 O 0.83350(14) 0.69208(16) 0.8143(3)
O10_5 O 0.78444(15) 0.73108(15) 0.8068(3)
O11_5 O 0.89604(15) 0.67265(16) 0.6856(3)
O12_5 O 0.89309(15) 0.63747(18) 0.8381(3)
O13_5 O 0.95923(15) 0.67383(18) 0.6936(3)
N1_5 N 0.81710(16) 0.54408(19) 0.8415(4)
N2_5 N 0.76229(17) 0.69998(18) 0.6599(3)
N3_5 N 0.95732(17) 0.63651(19) 0.8406(4)
C1_5 C 0.8530(2) 0.5695(2) 0.7238(5)
C2_5 C 0.8269(2) 0.5769(3) 0.8009(5)
C3_5 C 0.8040(2) 0.7049(2) 0.7799(5)
C4_5 C 0.7921(2) 0.6859(2) 0.6933(4)
C5_5 C 0.9250(2) 0.6451(2) 0.8070(5)
C6_5 C 0.9273(2) 0.6649(2) 0.7190(5)
C7_5 C 0.79641(19) 0.5473(2) 0.9228(4)
C8_10 C 0.8169(3) 0.5479(3) 1.0000
C9_5 C 0.7573(2) 0.5489(2) 0.9192(5)
C10_10 C 0.7405(3) 0.5491(3) 1.0000
H1_10 H 0.7141 0.5495 1.0000
C11_5 C 0.7366(3) 0.5510(4) 0.8365(6)
H2_5 H 0.7535 0.5456 0.7879
H3_5 H 0.7263 0.5761 0.8295
H4_5 H 0.7163 0.5328 0.8371
C12_10 C 0.8592(3) 0.5492(4) 1.0000
C13_5 C 0.7490(2) 0.6844(2) 0.5776(4)
C14_5 C 0.7640(3) 0.6997(3) 0.5000
C15_5 C 0.7231(3) 0.6560(3) 0.5787(5)
C16_5 C 0.7098(5) 0.6433(6) 0.5000
H5_5 H 0.6906 0.6251 0.5000
C17_5 C 0.7113(4) 0.6378(4) 0.6626(6)
H6_5 H 0.6952 0.6164 0.6496
H7_5 H 0.6976 0.6558 0.6983
H8_5 H 0.7334 0.6293 0.6944
C18_5 C 0.7936(5) 0.7281(5) 0.5000
C19_5 C 0.95537(19) 0.6157(2) 0.9217(4)
C20_5 C 0.9529(2) 0.5765(2) 0.9184(5)
C21_10 C 0.9517(3) 0.5585(3) 1.0000
H9_10 H 0.9498 0.5321 1.0000
C22_10 C 0.9562(2) 0.6362(3) 1.0000
C23_10 C 0.9540(4) 0.6767(3) 1.0000
C24_5 C 0.9492(3) 0.5558(3) 0.8368(6)
H10_5 H 0.9674 0.5650 0.7944
H11_5 H 0.9240 0.5592 0.8135
H12_5 H 0.9537 0.5293 0.8477
O14_5 O 0.7874(3) 0.5000 0.6569(6)
O15_5 O 0.7066(2) 0.7066(2) 0.8483(6)
O16_10 O 1.0000 0.6035(3) 0.6516(7)
O17_10 O 1.0000 0.7264(4) 0.8106(9)
C30_5 C 0.8040(2) 0.7049(2) 0.2201(5)
C31_5 C 0.7921(2) 0.6859(2) 0.3067(4)
C32_5 C 0.7490(2) 0.6844(2) 0.4224(4)
C33_5 C 0.7231(3) 0.6560(3) 0.4213(5)
C34_5 C 0.7113(4) 0.6378(4) 0.3374(6)
H16_5 H 0.6952 0.6164 0.3504
H17_5 H 0.6976 0.6558 0.3017
H18_5 H 0.7334 0.6293 0.3056
H32_5 H 0.975204 0.733531 0.833982
H34_5 H 0.81824 0.717026 0.532351
H35_5 H 0.800506 0.73551 0.433002
H36_5 H 0.783947 0.752768 0.534647
H39_5 H 0.92793 0.685412 0.969915
H41_5 H 0.977317 0.688094 0.963187
H44_5 H 0.868547 0.574283 0.966547
H46_5 H 0.870069 0.524764 0.966442
C8_11 C 0.1831(3) 0.4521(3) 0.0000
C10_11 C 0.2595(3) 0.4509(3) 0.0000
H1_11 H 0.2859 0.4505 0.0000
C12_11 C 0.1408(3) 0.4508(4) 0.0000
C21_11 C 0.0483(3) 0.4415(3) 0.0000
H9_11 H 0.0502 0.4679 0.0000
C22_11 C 0.0438(2) 0.3638(3) 0.0000
C23_11 C 0.0460(4) 0.3233(3) 0.0000
O18_6 O 0.18197(14) 0.39109(16) 0.1796(3)
O19_6 O 0.13404(15) 0.40216(16) 0.3144(3)
C25_6 C 0.1470(2) 0.4305(2) 0.2762(5)
C26_6 C 0.1731(2) 0.4231(3) 0.1991(5)
C27_6 C 0.20359(19) 0.4527(2) 0.0772(4)
C28_6 C 0.2427(2) 0.4511(2) 0.0808(5)
C29_6 C 0.2634(3) 0.4490(4) 0.1635(6)
H13_6 H 0.2465 0.4544 0.2121
H14_6 H 0.2737 0.4239 0.1705
H15_6 H 0.2837 0.4672 0.1629
O24_6 O 0.10396(15) 0.32735(16) 0.3144(3)
O25_6 O 0.10691(15) 0.36253(18) 0.1619(3)
C35_6 C 0.0750(2) 0.3549(2) 0.1930(5)
C36_6 C 0.0727(2) 0.3351(2) 0.2810(5)
C37_6 C 0.04463(19) 0.3843(2) 0.0783(4)
C38_6 C 0.0471(2) 0.4235(2) 0.0816(5)
C39_6 C 0.0508(3) 0.4442(3) 0.1632(6)
H19_6 H 0.0326 0.4350 0.2056
H20_6 H 0.0760 0.4408 0.1865
H21_6 H 0.0463 0.4707 0.1523
Ni2_2 Ni 0.14747(3) 0.35408(3) 0.25004(6)
O28_2 O 0.18771(14) 0.34016(14) 0.3367(3)
O29_2 O 0.16650(14) 0.30792(16) 0.1857(3)
H40_6 H 0.0448929 0.313112 0.0668981
H45_6 H 0.130691 0.450515 0.0670108
Ni1_6 Ni 0.14747(3) 0.35408(3) 0.74996(6)
O5_6 O 0.18197(14) 0.39109(16) 0.8204(3)
O6_6 O 0.13404(15) 0.40216(16) 0.6856(3)
O7_6 O 0.14129(15) 0.46402(18) 0.7034(3)
O8_6 O 0.18771(14) 0.34016(14) 0.6633(3)
O9_6 O 0.16650(14) 0.30792(16) 0.8143(3)
O10_6 O 0.21556(15) 0.26892(15) 0.8068(3)
O11_6 O 0.10396(15) 0.32735(16) 0.6856(3)
O12_6 O 0.10691(15) 0.36253(18) 0.8381(3)
O13_6 O 0.04077(15) 0.32617(18) 0.6936(3)
N1_6 N 0.18290(16) 0.45592(19) 0.8415(4)
N2_6 N 0.23771(17) 0.30002(18) 0.6599(3)
N3_6 N 0.04268(17) 0.36349(19) 0.8406(4)
C1_6 C 0.1470(2) 0.4305(2) 0.7238(5)
C2_6 C 0.1731(2) 0.4231(3) 0.8009(5)
C3_6 C 0.1960(2) 0.2951(2) 0.7799(5)
C4_6 C 0.2079(2) 0.3141(2) 0.6933(4)
C5_6 C 0.0750(2) 0.3549(2) 0.8070(5)
C6_6 C 0.0727(2) 0.3351(2) 0.7190(5)
C7_6 C 0.20359(19) 0.4527(2) 0.9228(4)
C8_12 C 0.1831(3) 0.4521(3) 1.0000
C9_6 C 0.2427(2) 0.4511(2) 0.9192(5)
C10_12 C 0.2595(3) 0.4509(3) 1.0000
H1_12 H 0.2859 0.4505 1.0000
C11_6 C 0.2634(3) 0.4490(4) 0.8365(6)
H2_6 H 0.2465 0.4544 0.7879
H3_6 H 0.2737 0.4239 0.8295
H4_6 H 0.2837 0.4672 0.8371
C12_12 C 0.1408(3) 0.4508(4) 1.0000
C13_6 C 0.2510(2) 0.3156(2) 0.5776(4)
C14_6 C 0.2360(3) 0.3003(3) 0.5000
C15_6 C 0.2769(3) 0.3440(3) 0.5787(5)
C16_6 C 0.2902(5) 0.3567(6) 0.5000
H5_6 H 0.3094 0.3749 0.5000
C17_6 C 0.2887(4) 0.3622(4) 0.6626(6)
H6_6 H 0.3048 0.3836 0.6496
H7_6 H 0.3024 0.3442 0.6983
H8_6 H 0.2666 0.3707 0.6944
C18_6 C 0.2064(5) 0.2719(5) 0.5000
C19_6 C 0.04463(19) 0.3843(2) 0.9217(4)
C20_6 C 0.0471(2) 0.4235(2) 0.9184(5)
C21_12 C 0.0483(3) 0.4415(3) 1.0000
H9_12 H 0.0502 0.4679 1.0000
C22_12 C 0.0438(2) 0.3638(3) 1.0000
C23_12 C 0.0460(4) 0.3233(3) 1.0000
C24_6 C 0.0508(3) 0.4442(3) 0.8368(6)
H10_6 H 0.0326 0.4350 0.7944
H11_6 H 0.0760 0.4408 0.8135
H12_6 H 0.0463 0.4707 0.8477
O14_6 O 0.2126(3) 0.5000 0.6569(6)
O15_6 O 0.2934(2) 0.2934(2) 0.8483(6)
O16_11 O -0.0000 0.3965(3) 0.6516(7)
O17_11 O -0.0000 0.2736(4) 0.8106(9)
C30_6 C 0.1960(2) 0.2951(2) 0.2201(5)
C31_6 C 0.2079(2) 0.3141(2) 0.3067(4)
C32_6 C 0.2510(2) 0.3156(2) 0.4224(4)
C33_6 C 0.2769(3) 0.3440(3) 0.4213(5)
C34_6 C 0.2887(4) 0.3622(4) 0.3374(6)
H16_6 H 0.3048 0.3836 0.3504
H17_6 H 0.3024 0.3442 0.3017
H18_6 H 0.2666 0.3707 0.3056
H32_6 H 0.0247958 0.266469 0.833982
H34_6 H 0.18176 0.282974 0.532351
H35_6 H 0.199494 0.26449 0.433002
H36_6 H 0.216053 0.247232 0.534647
H39_6 H 0.0720696 0.314588 0.969915
H41_6 H 0.0226832 0.311906 0.963187
H44_6 H 0.131453 0.425717 0.966547
H46_6 H 0.129931 0.475236 0.966442
O16_12 O 1.0000 0.3965(3) 0.6516(7)
O17_12 O 1.0000 0.2736(4) 0.8106(9)
H30_6 H 0.994208 0.384748 0.594519
H31_6 H 0.980872 0.415628 0.665166
H33_6 H 0.980597 0.268601 0.855286
C8_13 C 0.5479(3) 0.1831(3) 0.0000
C10_13 C 0.5491(3) 0.2595(3) 0.0000
H1_13 H 0.5495 0.2859 0.0000
C12_13 C 0.5492(4) 0.1408(3) 0.0000
C21_13 C 0.5585(3) 0.0483(3) 0.0000
H9_13 H 0.5321 0.0502 0.0000
C22_13 C 0.6362(3) 0.0438(2) 0.0000
C23_13 C 0.6767(3) 0.0460(4) 0.0000
O18_7 O 0.60891(16) 0.18197(14) 0.1796(3)
O19_7 O 0.59784(16) 0.13404(15) 0.3144(3)
C25_7 C 0.5695(2) 0.1470(2) 0.2762(5)
C26_7 C 0.5769(3) 0.1731(2) 0.1991(5)
C27_7 C 0.5473(2) 0.20359(19) 0.0772(4)
C28_7 C 0.5489(2) 0.2427(2) 0.0808(5)
C29_7 C 0.5510(4) 0.2634(3) 0.1635(6)
H13_7 H 0.5456 0.2465 0.2121
H14_7 H 0.5761 0.2737 0.1705
H15_7 H 0.5328 0.2837 0.1629
O24_7 O 0.67265(16) 0.10396(15) 0.3144(3)
O25_7 O 0.63747(18) 0.10691(15) 0.1619(3)
C35_7 C 0.6451(2) 0.0750(2) 0.1930(5)
C36_7 C 0.6649(2) 0.0727(2) 0.2810(5)
C37_7 C 0.6157(2) 0.04463(19) 0.0783(4)
C38_7 C 0.5765(2) 0.0471(2) 0.0816(5)
C39_7 C 0.5558(3) 0.0508(3) 0.1632(6)
H19_7 H 0.5650 0.0326 0.2056
H20_7 H 0.5592 0.0760 0.1865
H21_7 H 0.5293 0.0463 0.1523
Ni2_3 Ni 0.64592(3) 0.14747(3) 0.25004(6)
O28_3 O 0.65984(14) 0.18771(14) 0.3367(3)
O29_3 O 0.69208(16) 0.16650(14) 0.1857(3)
H40_7 H 0.686888 0.0448929 0.0668981
H45_7 H 0.549485 0.130691 0.0670108
Ni1_7 Ni 0.64592(3) 0.14747(3) 0.74996(6)
O5_7 O 0.60891(16) 0.18197(14) 0.8204(3)
O6_7 O 0.59784(16) 0.13404(15) 0.6856(3)
O7_7 O 0.53598(18) 0.14129(15) 0.7034(3)
O8_7 O 0.65984(14) 0.18771(14) 0.6633(3)
O9_7 O 0.69208(16) 0.16650(14) 0.8143(3)
O10_7 O 0.73108(15) 0.21556(15) 0.8068(3)
O11_7 O 0.67265(16) 0.10396(15) 0.6856(3)
O12_7 O 0.63747(18) 0.10691(15) 0.8381(3)
O13_7 O 0.67383(18) 0.04077(15) 0.6936(3)
N1_7 N 0.54408(19) 0.18290(16) 0.8415(4)
N2_7 N 0.69998(18) 0.23771(17) 0.6599(3)
N3_7 N 0.63651(19) 0.04268(17) 0.8406(4)
C1_7 C 0.5695(2) 0.1470(2) 0.7238(5)
C2_7 C 0.5769(3) 0.1731(2) 0.8009(5)
C3_7 C 0.7049(2) 0.1960(2) 0.7799(5)
C4_7 C 0.6859(2) 0.2079(2) 0.6933(4)
C5_7 C 0.6451(2) 0.0750(2) 0.8070(5)
C6_7 C 0.6649(2) 0.0727(2) 0.7190(5)
C7_7 C 0.5473(2) 0.20359(19) 0.9228(4)
C8_14 C 0.5479(3) 0.1831(3) 1.0000
C9_7 C 0.5489(2) 0.2427(2) 0.9192(5)
C10_14 C 0.5491(3) 0.2595(3) 1.0000
H1_14 H 0.5495 0.2859 1.0000
C11_7 C 0.5510(4) 0.2634(3) 0.8365(6)
H2_7 H 0.5456 0.2465 0.7879
H3_7 H 0.5761 0.2737 0.8295
H4_7 H 0.5328 0.2837 0.8371
C12_14 C 0.5492(4) 0.1408(3) 1.0000
C13_7 C 0.6844(2) 0.2510(2) 0.5776(4)
C14_7 C 0.6997(3) 0.2360(3) 0.5000
C15_7 C 0.6560(3) 0.2769(3) 0.5787(5)
C16_7 C 0.6433(6) 0.2902(5) 0.5000
H5_7 H 0.6251 0.3094 0.5000
C17_7 C 0.6378(4) 0.2887(4) 0.6626(6)
H6_7 H 0.6164 0.3048 0.6496
H7_7 H 0.6558 0.3024 0.6983
H8_7 H 0.6293 0.2666 0.6944
C18_7 C 0.7281(5) 0.2064(5) 0.5000
C19_7 C 0.6157(2) 0.04463(19) 0.9217(4)
C20_7 C 0.5765(2) 0.0471(2) 0.9184(5)
C21_14 C 0.5585(3) 0.0483(3) 1.0000
H9_14 H 0.5321 0.0502 1.0000
C22_14 C 0.6362(3) 0.0438(2) 1.0000
C23_14 C 0.6767(3) 0.0460(4) 1.0000
C24_7 C 0.5558(3) 0.0508(3) 0.8368(6)
H10_7 H 0.5650 0.0326 0.7944
H11_7 H 0.5592 0.0760 0.8135
H12_7 H 0.5293 0.0463 0.8477
O14_7 O 0.5000 0.2126(3) 0.6569(6)
O15_7 O 0.7066(2) 0.2934(2) 0.8483(6)
O16_13 O 0.6035(3) -0.0000 0.6516(7)
O17_13 O 0.7264(4) -0.0000 0.8106(9)
C30_7 C 0.7049(2) 0.1960(2) 0.2201(5)
C31_7 C 0.6859(2) 0.2079(2) 0.3067(4)
C32_7 C 0.6844(2) 0.2510(2) 0.4224(4)
C33_7 C 0.6560(3) 0.2769(3) 0.4213(5)
C34_7 C 0.6378(4) 0.2887(4) 0.3374(6)
H16_7 H 0.6164 0.3048 0.3504
H17_7 H 0.6558 0.3024 0.3017
H18_7 H 0.6293 0.2666 0.3056
H32_7 H 0.733531 0.0247958 0.833982
H34_7 H 0.717026 0.18176 0.532351
H35_7 H 0.73551 0.199494 0.433002
H36_7 H 0.752768 0.216053 0.534647
H39_7 H 0.685412 0.0720696 0.969915
H41_7 H 0.688094 0.0226832 0.963187
H44_7 H 0.574283 0.131453 0.966547
H46_7 H 0.524764 0.129931 0.966442
O16_14 O 0.6035(3) 1.0000 0.6516(7)
O17_14 O 0.7264(4) 1.0000 0.8106(9)
H30_7 H 0.615252 0.994208 0.594519
H31_7 H 0.584372 0.980872 0.665166
H33_7 H 0.731399 0.980597 0.855286
O16_15 O 0.3965(3) 0.0000 0.6516(7)
O17_15 O 0.2736(4) 0.0000 0.8106(9)
H30_8 H 0.384748 0.00579172 0.594519
H31_8 H 0.415628 0.0191278 0.665166
H33_8 H 0.268601 0.0194032 0.855286
C8_15 C 0.4521(3) 0.8169(3) 0.0000
C10_15 C 0.4509(3) 0.7405(3) 0.0000
H1_15 H 0.4505 0.7141 0.0000
C12_15 C 0.4508(4) 0.8592(3) 0.0000
C21_15 C 0.4415(3) 0.9517(3) 0.0000
H9_15 H 0.4679 0.9498 0.0000
C22_15 C 0.3638(3) 0.9562(2) 0.0000
C23_15 C 0.3233(3) 0.9540(4) 0.0000
O18_8 O 0.39109(16) 0.81803(14) 0.1796(3)
O19_8 O 0.40216(16) 0.86596(15) 0.3144(3)
C25_8 C 0.4305(2) 0.8530(2) 0.2762(5)
C26_8 C 0.4231(3) 0.8269(2) 0.1991(5)
C27_8 C 0.4527(2) 0.79641(19) 0.0772(4)
C28_8 C 0.4511(2) 0.7573(2) 0.0808(5)
C29_8 C 0.4490(4) 0.7366(3) 0.1635(6)
H13_8 H 0.4544 0.7535 0.2121
H14_8 H 0.4239 0.7263 0.1705
H15_8 H 0.4672 0.7163 0.1629
O24_8 O 0.32735(16) 0.89604(15) 0.3144(3)
O25_8 O 0.36253(18) 0.89309(15) 0.1619(3)
C35_8 C 0.3549(2) 0.9250(2) 0.1930(5)
C36_8 C 0.3351(2) 0.9273(2) 0.2810(5)
C37_8 C 0.3843(2) 0.95537(19) 0.0783(4)
C38_8 C 0.4235(2) 0.9529(2) 0.0816(5)
C39_8 C 0.4442(3) 0.9492(3) 0.1632(6)
H19_8 H 0.4350 0.9674 0.2056
H20_8 H 0.4408 0.9240 0.1865
H21_8 H 0.4707 0.9537 0.1523
Ni2_4 Ni 0.35408(3) 0.85253(3) 0.25004(6)
O28_4 O 0.34016(14) 0.81229(14) 0.3367(3)
O29_4 O 0.30792(16) 0.83350(14) 0.1857(3)
H40_8 H 0.313112 0.955107 0.0668981
H45_8 H 0.450515 0.869309 0.0670108
Ni1_8 Ni 0.35408(3) 0.85253(3) 0.74996(6)
O5_8 O 0.39109(16) 0.81803(14) 0.8204(3)
O6_8 O 0.40216(16) 0.86596(15) 0.6856(3)
O7_8 O 0.46402(18) 0.85871(15) 0.7034(3)
O8_8 O 0.34016(14) 0.81229(14) 0.6633(3)
O9_8 O 0.30792(16) 0.83350(14) 0.8143(3)
O10_8 O 0.26892(15) 0.78444(15) 0.8068(3)
O11_8 O 0.32735(16) 0.89604(15) 0.6856(3)
O12_8 O 0.36253(18) 0.89309(15) 0.8381(3)
O13_8 O 0.32617(18) 0.95923(15) 0.6936(3)
N1_8 N 0.45592(19) 0.81710(16) 0.8415(4)
N2_8 N 0.30002(18) 0.76229(17) 0.6599(3)
N3_8 N 0.36349(19) 0.95732(17) 0.8406(4)
C1_8 C 0.4305(2) 0.8530(2) 0.7238(5)
C2_8 C 0.4231(3) 0.8269(2) 0.8009(5)
C3_8 C 0.2951(2) 0.8040(2) 0.7799(5)
C4_8 C 0.3141(2) 0.7921(2) 0.6933(4)
C5_8 C 0.3549(2) 0.9250(2) 0.8070(5)
C6_8 C 0.3351(2) 0.9273(2) 0.7190(5)
C7_8 C 0.4527(2) 0.79641(19) 0.9228(4)
C8_16 C 0.4521(3) 0.8169(3) 1.0000
C9_8 C 0.4511(2) 0.7573(2) 0.9192(5)
C10_16 C 0.4509(3) 0.7405(3) 1.0000
H1_16 H 0.4505 0.7141 1.0000
C11_8 C 0.4490(4) 0.7366(3) 0.8365(6)
H2_8 H 0.4544 0.7535 0.7879
H3_8 H 0.4239 0.7263 0.8295
H4_8 H 0.4672 0.7163 0.8371
C12_16 C 0.4508(4) 0.8592(3) 1.0000
C13_8 C 0.3156(2) 0.7490(2) 0.5776(4)
C14_8 C 0.3003(3) 0.7640(3) 0.5000
C15_8 C 0.3440(3) 0.7231(3) 0.5787(5)
C16_8 C 0.3567(6) 0.7098(5) 0.5000
H5_8 H 0.3749 0.6906 0.5000
C17_8 C 0.3622(4) 0.7113(4) 0.6626(6)
H6_8 H 0.3836 0.6952 0.6496
H7_8 H 0.3442 0.6976 0.6983
H8_8 H 0.3707 0.7334 0.6944
C18_8 C 0.2719(5) 0.7936(5) 0.5000
C19_8 C 0.3843(2) 0.95537(19) 0.9217(4)
C20_8 C 0.4235(2) 0.9529(2) 0.9184(5)
C21_16 C 0.4415(3) 0.9517(3) 1.0000
H9_16 H 0.4679 0.9498 1.0000
C22_16 C 0.3638(3) 0.9562(2) 1.0000
C23_16 C 0.3233(3) 0.9540(4) 1.0000
C24_8 C 0.4442(3) 0.9492(3) 0.8368(6)
H10_8 H 0.4350 0.9674 0.7944
H11_8 H 0.4408 0.9240 0.8135
H12_8 H 0.4707 0.9537 0.8477
O14_8 O 0.5000 0.7874(3) 0.6569(6)
O15_8 O 0.2934(2) 0.7066(2) 0.8483(6)
O16_16 O 0.3965(3) 1.0000 0.6516(7)
O17_16 O 0.2736(4) 1.0000 0.8106(9)
C30_8 C 0.2951(2) 0.8040(2) 0.2201(5)
C31_8 C 0.3141(2) 0.7921(2) 0.3067(4)
C32_8 C 0.3156(2) 0.7490(2) 0.4224(4)
C33_8 C 0.3440(3) 0.7231(3) 0.4213(5)
C34_8 C 0.3622(4) 0.7113(4) 0.3374(6)
H16_8 H 0.3836 0.6952 0.3504
H17_8 H 0.3442 0.6976 0.3017
H18_8 H 0.3707 0.7334 0.3056
H32_8 H 0.266469 0.975204 0.833982
H34_8 H 0.282974 0.81824 0.532351
H35_8 H 0.26449 0.800506 0.433002
H36_8 H 0.247232 0.783947 0.534647
H39_8 H 0.314588 0.92793 0.969915
H41_8 H 0.311906 0.977317 0.963187
H44_8 H 0.425717 0.868547 0.966547
H46_8 H 0.475236 0.870069 0.966442
H30_9 H 0.00579172 0.384748 0.594519
H31_9 H 0.0191278 0.415628 0.665166
H33_9 H 0.0194032 0.268601 0.855286
H40_9 H 0.955107 0.313112 0.0668981
H45_9 H 0.869309 0.450515 0.0670108
H32_9 H 0.975204 0.266469 0.833982
H34_9 H 0.81824 0.282974 0.532351
H35_9 H 0.800506 0.26449 0.433002
H36_9 H 0.783947 0.247232 0.534647
H39_9 H 0.92793 0.314588 0.969915
H41_9 H 0.977317 0.311906 0.963187
H44_9 H 0.868547 0.425717 0.966547
H46_9 H 0.870069 0.475236 0.966442
H40_10 H 0.0448929 0.686888 0.0668981
H45_10 H 0.130691 0.549485 0.0670108
H32_10 H 0.0247958 0.733531 0.833982
H34_10 H 0.18176 0.717026 0.532351
H35_10 H 0.199494 0.73551 0.433002
H36_10 H 0.216053 0.752768 0.534647
H39_10 H 0.0720696 0.685412 0.969915
H41_10 H 0.0226832 0.688094 0.963187
H44_10 H 0.131453 0.574283 0.966547
H46_10 H 0.129931 0.524764 0.966442
H30_10 H 0.994208 0.615252 0.594519
H31_10 H 0.980872 0.584372 0.665166
H33_10 H 0.980597 0.731399 0.855286
H30_11 H 0.615252 0.00579172 0.594519
H31_11 H 0.584372 0.0191278 0.665166
H33_11 H 0.731399 0.0194032 0.855286
H40_11 H 0.686888 0.955107 0.0668981
H45_11 H 0.549485 0.869309 0.0670108
H32_11 H 0.733531 0.975204 0.833982
H34_11 H 0.717026 0.81824 0.532351
H35_11 H 0.73551 0.800506 0.433002
H36_11 H 0.752768 0.783947 0.534647
H39_11 H 0.685412 0.92793 0.969915
H41_11 H 0.688094 0.977317 0.963187
H44_11 H 0.574283 0.868547 0.966547
H46_11 H 0.524764 0.870069 0.966442
H40_12 H 0.313112 0.0448929 0.0668981
H45_12 H 0.450515 0.130691 0.0670108
H32_12 H 0.266469 0.0247958 0.833982
H34_12 H 0.282974 0.18176 0.532351
H35_12 H 0.26449 0.199494 0.433002
H36_12 H 0.247232 0.216053 0.534647
H39_12 H 0.314588 0.0720696 0.969915
H41_12 H 0.311906 0.0226832 0.963187
H44_12 H 0.425717 0.131453 0.966547
H46_12 H 0.475236 0.129931 0.966442
H30_12 H 0.384748 0.994208 0.594519
H31_12 H 0.415628 0.980872 0.665166
H33_12 H 0.268601 0.980597 0.855286
H32_13 H 0.0247958 0.266469 0.166018
H34_13 H 0.18176 0.282974 0.467649
H35_13 H 0.199494 0.26449 0.566998
H36_13 H 0.216053 0.247232 0.465353
H39_13 H 0.0720696 0.314588 0.0300849
H41_13 H 0.0226832 0.311906 0.0368132
H44_13 H 0.131453 0.425717 0.0334531
H46_13 H 0.129931 0.475236 0.0335577
H40_13 H 0.0448929 0.313112 0.933102
H45_13 H 0.130691 0.450515 0.932989
H30_13 H 0.994208 0.384748 0.405481
H31_13 H 0.980872 0.415628 0.334834
H33_13 H 0.980597 0.268601 0.144714
H30_14 H 0.00579172 0.615252 0.405481
H31_14 H 0.0191278 0.584372 0.334834
H33_14 H 0.0194032 0.731399 0.144714
H32_14 H 0.975204 0.733531 0.166018
H34_14 H 0.81824 0.717026 0.467649
H35_14 H 0.800506 0.73551 0.566998
H36_14 H 0.783947 0.752768 0.465353
H39_14 H 0.92793 0.685412 0.0300849
H41_14 H 0.977317 0.688094 0.0368132
H44_14 H 0.868547 0.574283 0.0334531
H46_14 H 0.870069 0.524764 0.0335577
H40_14 H 0.955107 0.686888 0.933102
H45_14 H 0.869309 0.549485 0.932989
H30_15 H 0.384748 0.00579172 0.405481
H31_15 H 0.415628 0.0191278 0.334834
H33_15 H 0.268601 0.0194032 0.144714
H32_15 H 0.266469 0.975204 0.166018
H34_15 H 0.282974 0.81824 0.467649
H35_15 H 0.26449 0.800506 0.566998
H36_15 H 0.247232 0.783947 0.465353
H39_15 H 0.314588 0.92793 0.0300849
H41_15 H 0.311906 0.977317 0.0368132
H44_15 H 0.425717 0.868547 0.0334531
H46_15 H 0.475236 0.870069 0.0335577
H40_15 H 0.313112 0.955107 0.933102
H45_15 H 0.450515 0.869309 0.932989
H32_16 H 0.733531 0.0247958 0.166018
H34_16 H 0.717026 0.18176 0.467649
H35_16 H 0.73551 0.199494 0.566998
H36_16 H 0.752768 0.216053 0.465353
H39_16 H 0.685412 0.0720696 0.0300849
H41_16 H 0.688094 0.0226832 0.0368132
H44_16 H 0.574283 0.131453 0.0334531
H46_16 H 0.524764 0.129931 0.0335577
H40_16 H 0.686888 0.0448929 0.933102
H45_16 H 0.549485 0.130691 0.932989
H30_16 H 0.615252 0.994208 0.405481
H31_16 H 0.584372 0.980872 0.334834
H33_16 H 0.731399 0.980597 0.144714
loop_
_geom_bond_atom_site_label_1
_geom_bond_atom_site_label_2
_geom_bond_site_symmetry_1
_geom_bond_site_symmetry_2
O1 Pt1 1_555 1_555
O2 Pt1 1_555 1_555
Pt1 O3 1_555 1_555
O4 Pt1 1_555 1_555
O2 H22 1_555 1_555
O2 H23 1_555 1_555
O4 H27 1_555 1_555
O4 H22_2 1_555 1_555
O1_2 Pt1_2 1_555 1_555
O2_2 Pt1_2 1_555 1_555
Pt1_2 O3_2 1_555 1_555
O4_2 Pt1_2 1_555 1_555
O2_2 H23_2 1_555 1_555
O4_2 H26 1_555 1_555
O4_2 H27_2 1_555 1_555
O2_2 H26_2 1_555 1_555
O1_3 Pt1_3 1_555 1_555
O2_3 Pt1_3 1_555 1_555
Pt1_3 O3_3 1_555 1_555
O4_3 Pt1_3 1_555 1_555
O2_3 H23_3 1_555 1_555
O4_3 H26_3 1_555 1_555
O4_3 H27_3 1_555 1_555
O2_3 H26_4 1_555 1_555
O1_4 Pt1_4 1_555 1_555
O2_4 Pt1_4 1_555 1_555
Pt1_4 O3_4 1_555 1_555
O4_4 Pt1_4 1_555 1_555
O2_4 H22_3 1_555 1_555
O2_4 H23_4 1_555 1_555
O4_4 H27_4 1_555 1_555
O4_4 H22_4 1_555 1_555
O1_5 Pt1_5 1_555 1_555
O2_5 Pt1_5 1_555 1_555
Pt1_5 O3_5 1_555 1_555
O4_5 Pt1_5 1_555 1_555
O2_5 H22_5 1_555 1_555
O2_5 H23_5 1_555 1_555
O4_5 H27_5 1_555 1_555
O4_5 H22_6 1_555 1_555
O1_6 Pt1_6 1_555 1_555
O2_6 Pt1_6 1_555 1_555
Pt1_6 O3_6 1_555 1_555
O4_6 Pt1_6 1_555 1_555
O2_6 H23_6 1_555 1_555
O4_6 H26_5 1_555 1_555
O4_6 H27_6 1_555 1_555
O2_6 H26_6 1_555 1_555
O1_7 Pt1_7 1_555 1_555
O2_7 Pt1_7 1_555 1_555
Pt1_7 O3_7 1_555 1_555
O4_7 Pt1_7 1_555 1_555
O2_7 H23_7 1_555 1_555
O4_7 H26_7 1_555 1_555
O4_7 H27_7 1_555 1_555
O2_7 H26_8 1_555 1_555
O1_8 Pt1_8 1_555 1_555
O2_8 Pt1_8 1_555 1_555
Pt1_8 O3_8 1_555 1_555
O4_8 Pt1_8 1_555 1_555
O2_8 H22_7 1_555 1_555
O2_8 H23_8 1_555 1_555
O4_8 H27_8 1_555 1_555
O4_8 H22_8 1_555 1_555
Cu1 O7 1_555 1_555
Cu2 O10 1_555 1_555
Cu3 O13 1_555 1_555
Ni1 O5 1_555 1_555
O5 C2 1_555 1_555
O6 Ni1 1_555 1_555
O7 C1 1_555 1_555
O8 Ni1 1_555 1_555
O9 Ni1 1_555 1_555
O10 C3 1_555 1_555
O11 Ni1 1_555 1_555
O12 Ni1 1_555 1_555
O13 C6 1_555 1_555
N1 Cu1 1_555 1_555
N2 Cu2 1_555 1_555
N3 Cu3 1_555 1_555
C1 O6 1_555 1_555
C2 N1 1_555 1_555
C3 O9 1_555 1_555
C4 O8 1_555 1_555
C5 O12 1_555 1_555
C6 O11 1_555 1_555
C7 N1 1_555 1_555
C8 C7 1_555 1_555
C9 C7 1_555 1_555
C10 C9 1_555 1_555
H1 C10 1_555 1_555
C11 C9 1_555 1_555
H2 C11 1_555 1_555
H3 C11 1_555 1_555
H4 C11 1_555 1_555
C12 C8 1_555 1_555
C13 N2 1_555 1_555
C14 C13 1_555 1_555
C15 C13 1_555 1_555
C16 C15 1_555 1_555
H5 C16 1_555 1_555
C17 C15 1_555 1_555
H6 C17 1_555 1_555
H7 C17 1_555 1_555
H8 C17 1_555 1_555
C18 C14 1_555 1_555
C19 N3 1_555 1_555
C20 C19 1_555 1_555
C21 C20 1_555 1_555
H9 C21 1_555 1_555
C22 C19 1_555 1_555
C23 C22 1_555 1_555
C24 C20 1_555 1_555
H10 C24 1_555 1_555
H11 C24 1_555 1_555
H12 C24 1_555 1_555
O14 Cu1 1_555 1_555
O15 Cu2 1_555 1_555
O16 Cu3 1_555 1_555
O17 Cu3 1_555 1_555
O21 C31 1_555 1_555
O22 C30 1_555 1_555
O23 C30 1_555 1_555
N5 C31 1_555 1_555
C30 C31 1_555 1_555
C32 C14 1_555 1_555
C33 C16 1_555 1_555
C34 C33 1_555 1_555
H16 C34 1_555 1_555
H17 C34 1_555 1_555
H18 C34 1_555 1_555
Cu5 O23 1_555 1_555
Ni3 O21 1_555 1_555
O27 Cu1 1_555 1_555
O30 Cu2 1_555 1_555
N7 Cu1 1_555 1_555
N8 Cu2 1_555 1_555
N2 C4 1_555 1_555
N3 C5 1_555 1_555
C1 C2 1_555 1_555
C3 C4 1_555 1_555
C5 C6 1_555 1_555
O22 Ni3 1_555 1_555
N5 C32 1_555 1_555
N5 Cu5 1_555 1_555
C32 C33 1_555 1_555
O17 H32 1_555 1_555
C18 H34 1_555 1_555
C18 H35 1_555 1_555
C18 H36 1_555 1_555
C23 H39 1_555 1_555
C23 H41 1_555 1_555
C12 H44 1_555 1_555
C12 H46 1_555 1_555
H1_2 C10_2 1_555 1_555
C12_2 C8_2 1_555 1_555
H9_2 C21_2 1_555 1_555
C23_2 C22_2 1_555 1_555
O18 C26 1_555 1_555
O19 C25 1_555 1_555
O20 C25 1_555 1_555
N4 C26 1_555 1_555
C25 C26 1_555 1_555
C27 C8_2 1_555 1_555
C28 C10_2 1_555 1_555
C29 C28 1_555 1_555
H13 C29 1_555 1_555
H14 C29 1_555 1_555
H15 C29 1_555 1_555
O24 C36 1_555 1_555
O25 C35 1_555 1_555
O26 C36 1_555 1_555
N6 C35 1_555 1_555
C35 C36 1_555 1_555
C37 C22_2 1_555 1_555
C38 C21_2 1_555 1_555
C39 C38 1_555 1_555
H19 C39 1_555 1_555
H20 C39 1_555 1_555
H21 C39 1_555 1_555
Ni3 O18 1_555 1_555
Cu4 O20 1_555 1_555
Cu6 O26 1_555 1_555
O19 Ni3 1_555 1_555
N4 C27 1_555 1_555
N4 Cu4 1_555 1_555
C27 C28 1_555 1_555
O24 Ni3 1_555 1_555
O25 Ni3 1_555 1_555
N6 C37 1_555 1_555
N6 Cu6 1_555 1_555
C37 C38 1_555 1_555
C23_2 H40 1_555 1_555
C12_2 H45 1_555 1_555
O16_2 Cu3_2 1_555 1_555
O17_2 Cu3_2 1_555 1_555
O31 Cu3_2 1_555 1_555
N9 Cu3_2 1_555 1_555
O16_2 H30 1_555 1_555
O16_2 H31 1_555 1_555
O17_2 H33 1_555 1_555
O16_3 Cu3_3 1_555 1_555
O17_3 Cu3_3 1_555 1_555
O31_2 Cu3_3 1_555 1_555
N9_2 Cu3_3 1_555 1_555
O16_3 H30_2 1_555 1_555
O16_3 H31_2 1_555 1_555
O17_3 H33_2 1_555 1_555
Cu1_2 O7_2 1_555 1_555
Cu2_2 O10_2 1_555 1_555
Cu3_4 O13_2 1_555 1_555
Ni1_2 O5_2 1_555 1_555
O5_2 C2_2 1_555 1_555
O6_2 Ni1_2 1_555 1_555
O7_2 C1_2 1_555 1_555
O8_2 Ni1_2 1_555 1_555
O9_2 Ni1_2 1_555 1_555
O10_2 C3_2 1_555 1_555
O11_2 Ni1_2 1_555 1_555
O12_2 Ni1_2 1_555 1_555
O13_2 C6_2 1_555 1_555
N1_2 Cu1_2 1_555 1_555
N2_2 Cu2_2 1_555 1_555
N3_2 Cu3_4 1_555 1_555
C1_2 O6_2 1_555 1_555
C2_2 N1_2 1_555 1_555
C3_2 O9_2 1_555 1_555
C4_2 O8_2 1_555 1_555
C5_2 O12_2 1_555 1_555
C6_2 O11_2 1_555 1_555
C7_2 N1_2 1_555 1_555
C8_3 C7_2 1_555 1_555
C9_2 C7_2 1_555 1_555
C10_3 C9_2 1_555 1_555
H1_3 C10_3 1_555 1_555
C11_2 C9_2 1_555 1_555
H2_2 C11_2 1_555 1_555
H3_2 C11_2 1_555 1_555
H4_2 C11_2 1_555 1_555
C12_3 C8_3 1_555 1_555
C13_2 N2_2 1_555 1_555
C14_2 C13_2 1_555 1_555
C15_2 C13_2 1_555 1_555
C16_2 C15_2 1_555 1_555
H5_2 C16_2 1_555 1_555
C17_2 C15_2 1_555 1_555
H6_2 C17_2 1_555 1_555
H7_2 C17_2 1_555 1_555
H8_2 C17_2 1_555 1_555
C18_2 C14_2 1_555 1_555
C19_2 N3_2 1_555 1_555
C20_2 C19_2 1_555 1_555
C21_3 C20_2 1_555 1_555
H9_3 C21_3 1_555 1_555
C22_3 C19_2 1_555 1_555
C23_3 C22_3 1_555 1_555
C24_2 C20_2 1_555 1_555
H10_2 C24_2 1_555 1_555
H11_2 C24_2 1_555 1_555
H12_2 C24_2 1_555 1_555
O14_2 Cu1_2 1_555 1_555
O15_2 Cu2_2 1_555 1_555
O16_4 Cu3_4 1_555 1_555
O17_4 Cu3_4 1_555 1_555
O21_2 C31_2 1_555 1_555
O22_2 C30_2 1_555 1_555
O23_2 C30_2 1_555 1_555
N5_2 C31_2 1_555 1_555
C30_2 C31_2 1_555 1_555
C32_2 C14_2 1_555 1_555
C33_2 C16_2 1_555 1_555
C34_2 C33_2 1_555 1_555
H16_2 C34_2 1_555 1_555
H17_2 C34_2 1_555 1_555
H18_2 C34_2 1_555 1_555
Cu5_2 O23_2 1_555 1_555
Ni3_2 O21_2 1_555 1_555
O27_2 Cu1_2 1_555 1_555
O30_2 Cu2_2 1_555 1_555
N7_2 Cu1_2 1_555 1_555
N8_2 Cu2_2 1_555 1_555
N2_2 C4_2 1_555 1_555
N3_2 C5_2 1_555 1_555
C1_2 C2_2 1_555 1_555
C3_2 C4_2 1_555 1_555
C5_2 C6_2 1_555 1_555
O22_2 Ni3_2 1_555 1_555
N5_2 C32_2 1_555 1_555
N5_2 Cu5_2 1_555 1_555
C32_2 C33_2 1_555 1_555
O17_4 H32_2 1_555 1_555
C18_2 H34_2 1_555 1_555
C18_2 H35_2 1_555 1_555
C18_2 H36_2 1_555 1_555
C23_3 H39_2 1_555 1_555
C23_3 H41_2 1_555 1_555
C12_3 H44_2 1_555 1_555
C12_3 H46_2 1_555 1_555
H1_4 C10_4 1_555 1_555
C12_4 C8_4 1_555 1_555
H9_4 C21_4 1_555 1_555
C23_4 C22_4 1_555 1_555
O18_2 C26_2 1_555 1_555
O19_2 C25_2 1_555 1_555
O20_2 C25_2 1_555 1_555
N4_2 C26_2 1_555 1_555
C25_2 C26_2 1_555 1_555
C27_2 C8_4 1_555 1_555
C28_2 C10_4 1_555 1_555
C29_2 C28_2 1_555 1_555
H13_2 C29_2 1_555 1_555
H14_2 C29_2 1_555 1_555
H15_2 C29_2 1_555 1_555
O24_2 C36_2 1_555 1_555
O25_2 C35_2 1_555 1_555
O26_2 C36_2 1_555 1_555
N6_2 C35_2 1_555 1_555
C35_2 C36_2 1_555 1_555
C37_2 C22_4 1_555 1_555
C38_2 C21_4 1_555 1_555
C39_2 C38_2 1_555 1_555
H19_2 C39_2 1_555 1_555
H20_2 C39_2 1_555 1_555
H21_2 C39_2 1_555 1_555
Ni3_2 O18_2 1_555 1_555
Cu4_2 O20_2 1_555 1_555
Cu6_4 O26_2 1_555 1_555
O19_2 Ni3_2 1_555 1_555
N4_2 C27_2 1_555 1_555
N4_2 Cu4_2 1_555 1_555
C27_2 C28_2 1_555 1_555
O24_2 Ni3_2 1_555 1_555
O25_2 Ni3_2 1_555 1_555
N6_2 C37_2 1_555 1_555
N6_2 Cu6_4 1_555 1_555
C37_2 C38_2 1_555 1_555
C23_4 H40_2 1_555 1_555
C12_4 H45_2 1_555 1_555
Cu1_3 O7_3 1_555 1_555
Cu2_3 O10_3 1_555 1_555
Cu3_5 O13_3 1_555 1_555
Ni1_3 O5_3 1_555 1_555
O5_3 C2_3 1_555 1_555
O6_3 Ni1_3 1_555 1_555
O7_3 C1_3 1_555 1_555
O8_3 Ni1_3 1_555 1_555
O9_3 Ni1_3 1_555 1_555
O10_3 C3_3 1_555 1_555
O11_3 Ni1_3 1_555 1_555
O12_3 Ni1_3 1_555 1_555
O13_3 C6_3 1_555 1_555
N1_3 Cu1_3 1_555 1_555
N2_3 Cu2_3 1_555 1_555
N3_3 Cu3_5 1_555 1_555
C1_3 O6_3 1_555 1_555
C2_3 N1_3 1_555 1_555
C3_3 O9_3 1_555 1_555
C4_3 O8_3 1_555 1_555
C5_3 O12_3 1_555 1_555
C6_3 O11_3 1_555 1_555
C7_3 N1_3 1_555 1_555
C8_5 C7_3 1_555 1_555
C9_3 C7_3 1_555 1_555
C10_5 C9_3 1_555 1_555
H1_5 C10_5 1_555 1_555
C11_3 C9_3 1_555 1_555
H2_3 C11_3 1_555 1_555
H3_3 C11_3 1_555 1_555
H4_3 C11_3 1_555 1_555
C12_5 C8_5 1_555 1_555
C13_3 N2_3 1_555 1_555
C14_3 C13_3 1_555 1_555
C15_3 C13_3 1_555 1_555
C16_3 C15_3 1_555 1_555
H5_3 C16_3 1_555 1_555
C17_3 C15_3 1_555 1_555
H6_3 C17_3 1_555 1_555
H7_3 C17_3 1_555 1_555
H8_3 C17_3 1_555 1_555
C18_3 C14_3 1_555 1_555
C19_3 N3_3 1_555 1_555
C20_3 C19_3 1_555 1_555
C21_5 C20_3 1_555 1_555
H9_5 C21_5 1_555 1_555
C22_5 C19_3 1_555 1_555
C23_5 C22_5 1_555 1_555
C24_3 C20_3 1_555 1_555
H10_3 C24_3 1_555 1_555
H11_3 C24_3 1_555 1_555
H12_3 C24_3 1_555 1_555
O14_3 Cu1_3 1_555 1_555
O15_3 Cu2_3 1_555 1_555
O16_5 Cu3_5 1_555 1_555
O17_5 Cu3_5 1_555 1_555
O21_3 C31_3 1_555 1_555
O22_3 C30_3 1_555 1_555
O23_3 C30_3 1_555 1_555
N5_3 C31_3 1_555 1_555
C30_3 C31_3 1_555 1_555
C32_3 C14_3 1_555 1_555
C33_3 C16_3 1_555 1_555
C34_3 C33_3 1_555 1_555
H16_3 C34_3 1_555 1_555
H17_3 C34_3 1_555 1_555
H18_3 C34_3 1_555 1_555
Cu5_3 O23_3 1_555 1_555
Ni3_3 O21_3 1_555 1_555
O27_3 Cu1_3 1_555 1_555
O30_3 Cu2_3 1_555 1_555
N7_3 Cu1_3 1_555 1_555
N8_3 Cu2_3 1_555 1_555
N2_3 C4_3 1_555 1_555
N3_3 C5_3 1_555 1_555
C1_3 C2_3 1_555 1_555
C3_3 C4_3 1_555 1_555
C5_3 C6_3 1_555 1_555
O22_3 Ni3_3 1_555 1_555
N5_3 C32_3 1_555 1_555
N5_3 Cu5_3 1_555 1_555
C32_3 C33_3 1_555 1_555
O17_5 H32_3 1_555 1_555
C18_3 H34_3 1_555 1_555
C18_3 H35_3 1_555 1_555
C18_3 H36_3 1_555 1_555
C23_5 H39_3 1_555 1_555
C23_5 H41_3 1_555 1_555
C12_5 H44_3 1_555 1_555
C12_5 H46_3 1_555 1_555
H1_6 C10_6 1_555 1_555
C12_6 C8_6 1_555 1_555
H9_6 C21_6 1_555 1_555
C23_6 C22_6 1_555 1_555
O18_3 C26_3 1_555 1_555
O19_3 C25_3 1_555 1_555
O20_3 C25_3 1_555 1_555
N4_3 C26_3 1_555 1_555
C25_3 C26_3 1_555 1_555
C27_3 C8_6 1_555 1_555
C28_3 C10_6 1_555 1_555
C29_3 C28_3 1_555 1_555
H13_3 C29_3 1_555 1_555
H14_3 C29_3 1_555 1_555
H15_3 C29_3 1_555 1_555
O24_3 C36_3 1_555 1_555
O25_3 C35_3 1_555 1_555
O26_3 C36_3 1_555 1_555
N6_3 C35_3 1_555 1_555
C35_3 C36_3 1_555 1_555
C37_3 C22_6 1_555 1_555
C38_3 C21_6 1_555 1_555
C39_3 C38_3 1_555 1_555
H19_3 C39_3 1_555 1_555
H20_3 C39_3 1_555 1_555
H21_3 C39_3 1_555 1_555
Ni3_3 O18_3 1_555 1_555
Cu4_3 O20_3 1_555 1_555
Cu6_5 O26_3 1_555 1_555
O19_3 Ni3_3 1_555 1_555
N4_3 C27_3 1_555 1_555
N4_3 Cu4_3 1_555 1_555
C27_3 C28_3 1_555 1_555
O24_3 Ni3_3 1_555 1_555
O25_3 Ni3_3 1_555 1_555
N6_3 C37_3 1_555 1_555
N6_3 Cu6_5 1_555 1_555
C37_3 C38_3 1_555 1_555
C23_6 H40_3 1_555 1_555
C12_6 H45_3 1_555 1_555
O16_6 Cu3_6 1_555 1_555
O17_6 Cu3_6 1_555 1_555
O31_3 Cu3_6 1_555 1_555
N9_3 Cu3_6 1_555 1_555
O16_6 H30_3 1_555 1_555
O16_6 H31_3 1_555 1_555
O17_6 H33_3 1_555 1_555
O16_7 Cu3_7 1_555 1_555
O17_7 Cu3_7 1_555 1_555
O31_4 Cu3_7 1_555 1_555
N9_4 Cu3_7 1_555 1_555
O16_7 H30_4 1_555 1_555
O16_7 H31_4 1_555 1_555
O17_7 H33_4 1_555 1_555
Cu1_4 O7_4 1_555 1_555
Cu2_4 O10_4 1_555 1_555
Cu3_8 O13_4 1_555 1_555
Ni1_4 O5_4 1_555 1_555
O5_4 C2_4 1_555 1_555
O6_4 Ni1_4 1_555 1_555
O7_4 C1_4 1_555 1_555
O8_4 Ni1_4 1_555 1_555
O9_4 Ni1_4 1_555 1_555
O10_4 C3_4 1_555 1_555
O11_4 Ni1_4 1_555 1_555
O12_4 Ni1_4 1_555 1_555
O13_4 C6_4 1_555 1_555
N1_4 Cu1_4 1_555 1_555
N2_4 Cu2_4 1_555 1_555
N3_4 Cu3_8 1_555 1_555
C1_4 O6_4 1_555 1_555
C2_4 N1_4 1_555 1_555
C3_4 O9_4 1_555 1_555
C4_4 O8_4 1_555 1_555
C5_4 O12_4 1_555 1_555
C6_4 O11_4 1_555 1_555
C7_4 N1_4 1_555 1_555
C8_7 C7_4 1_555 1_555
C9_4 C7_4 1_555 1_555
C10_7 C9_4 1_555 1_555
H1_7 C10_7 1_555 1_555
C11_4 C9_4 1_555 1_555
H2_4 C11_4 1_555 1_555
H3_4 C11_4 1_555 1_555
H4_4 C11_4 1_555 1_555
C12_7 C8_7 1_555 1_555
C13_4 N2_4 1_555 1_555
C14_4 C13_4 1_555 1_555
C15_4 C13_4 1_555 1_555
C16_4 C15_4 1_555 1_555
H5_4 C16_4 1_555 1_555
C17_4 C15_4 1_555 1_555
H6_4 C17_4 1_555 1_555
H7_4 C17_4 1_555 1_555
H8_4 C17_4 1_555 1_555
C18_4 C14_4 1_555 1_555
C19_4 N3_4 1_555 1_555
C20_4 C19_4 1_555 1_555
C21_7 C20_4 1_555 1_555
H9_7 C21_7 1_555 1_555
C22_7 C19_4 1_555 1_555
C23_7 C22_7 1_555 1_555
C24_4 C20_4 1_555 1_555
H10_4 C24_4 1_555 1_555
H11_4 C24_4 1_555 1_555
H12_4 C24_4 1_555 1_555
O14_4 Cu1_4 1_555 1_555
O15_4 Cu2_4 1_555 1_555
O16_8 Cu3_8 1_555 1_555
O17_8 Cu3_8 1_555 1_555
O21_4 C31_4 1_555 1_555
O22_4 C30_4 1_555 1_555
O23_4 C30_4 1_555 1_555
N5_4 C31_4 1_555 1_555
C30_4 C31_4 1_555 1_555
C32_4 C14_4 1_555 1_555
C33_4 C16_4 1_555 1_555
C34_4 C33_4 1_555 1_555
H16_4 C34_4 1_555 1_555
H17_4 C34_4 1_555 1_555
H18_4 C34_4 1_555 1_555
Cu5_4 O23_4 1_555 1_555
Ni3_4 O21_4 1_555 1_555
O27_4 Cu1_4 1_555 1_555
O30_4 Cu2_4 1_555 1_555
N7_4 Cu1_4 1_555 1_555
N8_4 Cu2_4 1_555 1_555
N2_4 C4_4 1_555 1_555
N3_4 C5_4 1_555 1_555
C1_4 C2_4 1_555 1_555
C3_4 C4_4 1_555 1_555
C5_4 C6_4 1_555 1_555
O22_4 Ni3_4 1_555 1_555
N5_4 C32_4 1_555 1_555
N5_4 Cu5_4 1_555 1_555
C32_4 C33_4 1_555 1_555
O17_8 H32_4 1_555 1_555
C18_4 H34_4 1_555 1_555
C18_4 H35_4 1_555 1_555
C18_4 H36_4 1_555 1_555
C23_7 H39_4 1_555 1_555
C23_7 H41_4 1_555 1_555
C12_7 H44_4 1_555 1_555
C12_7 H46_4 1_555 1_555
H1_8 C10_8 1_555 1_555
C12_8 C8_8 1_555 1_555
H9_8 C21_8 1_555 1_555
C23_8 C22_8 1_555 1_555
O18_4 C26_4 1_555 1_555
O19_4 C25_4 1_555 1_555
O20_4 C25_4 1_555 1_555
N4_4 C26_4 1_555 1_555
C25_4 C26_4 1_555 1_555
C27_4 C8_8 1_555 1_555
C28_4 C10_8 1_555 1_555
C29_4 C28_4 1_555 1_555
H13_4 C29_4 1_555 1_555
H14_4 C29_4 1_555 1_555
H15_4 C29_4 1_555 1_555
O24_4 C36_4 1_555 1_555
O25_4 C35_4 1_555 1_555
O26_4 C36_4 1_555 1_555
N6_4 C35_4 1_555 1_555
C35_4 C36_4 1_555 1_555
C37_4 C22_8 1_555 1_555
C38_4 C21_8 1_555 1_555
C39_4 C38_4 1_555 1_555
H19_4 C39_4 1_555 1_555
H20_4 C39_4 1_555 1_555
H21_4 C39_4 1_555 1_555
Ni3_4 O18_4 1_555 1_555
Cu4_4 O20_4 1_555 1_555
Cu6_8 O26_4 1_555 1_555
O19_4 Ni3_4 1_555 1_555
N4_4 C27_4 1_555 1_555
N4_4 Cu4_4 1_555 1_555
C27_4 C28_4 1_555 1_555
O24_4 Ni3_4 1_555 1_555
O25_4 Ni3_4 1_555 1_555
N6_4 C37_4 1_555 1_555
N6_4 Cu6_8 1_555 1_555
C37_4 C38_4 1_555 1_555
C23_8 H40_4 1_555 1_555
C12_8 H45_4 1_555 1_555
O16_9 Cu6 1_555 1_555
O17_9 Cu6 1_555 1_555
O16_9 H30_5 1_555 1_555
O16_9 H31_5 1_555 1_555
O17_9 H33_5 1_555 1_555
H1_9 C10_9 1_555 1_555
C12_9 C8_9 1_555 1_555
H9_9 C21_9 1_555 1_555
C23_9 C22_9 1_555 1_555
O18_5 C26_5 1_555 1_555
O19_5 C25_5 1_555 1_555
O27_2 C25_5 1_555 1_555
N7_2 C26_5 1_555 1_555
C25_5 C26_5 1_555 1_555
C27_5 C8_9 1_555 1_555
C28_5 C10_9 1_555 1_555
C29_5 C28_5 1_555 1_555
H13_5 C29_5 1_555 1_555
H14_5 C29_5 1_555 1_555
H15_5 C29_5 1_555 1_555
O24_5 C36_5 1_555 1_555
O25_5 C35_5 1_555 1_555
O31 C36_5 1_555 1_555
N9 C35_5 1_555 1_555
C35_5 C36_5 1_555 1_555
C37_5 C22_9 1_555 1_555
C38_5 C21_9 1_555 1_555
C39_5 C38_5 1_555 1_555
H19_5 C39_5 1_555 1_555
H20_5 C39_5 1_555 1_555
H21_5 C39_5 1_555 1_555
Ni2 O18_5 1_555 1_555
O28 Ni2 1_555 1_555
O29 Ni2 1_555 1_555
O19_5 Ni2 1_555 1_555
N7_2 C27_5 1_555 1_555
C27_5 C28_5 1_555 1_555
O24_5 Ni2 1_555 1_555
O25_5 Ni2 1_555 1_555
N9 C37_5 1_555 1_555
C37_5 C38_5 1_555 1_555
C23_9 H40_5 1_555 1_555
C12_9 H45_5 1_555 1_555
Cu4_2 O7_5 1_555 1_555
Cu5_4 O10_5 1_555 1_555
Cu6_2 O13_5 1_555 1_555
Ni1_5 O5_5 1_555 1_555
O5_5 C2_5 1_555 1_555
O6_5 Ni1_5 1_555 1_555
O7_5 C1_5 1_555 1_555
O8_5 Ni1_5 1_555 1_555
O9_5 Ni1_5 1_555 1_555
O10_5 C3_5 1_555 1_555
O11_5 Ni1_5 1_555 1_555
O12_5 Ni1_5 1_555 1_555
O13_5 C6_5 1_555 1_555
N1_5 Cu4_2 1_555 1_555
N2_5 Cu5_4 1_555 1_555
N3_5 Cu6_2 1_555 1_555
C1_5 O6_5 1_555 1_555
C2_5 N1_5 1_555 1_555
C3_5 O9_5 1_555 1_555
C4_5 O8_5 1_555 1_555
C5_5 O12_5 1_555 1_555
C6_5 O11_5 1_555 1_555
C7_5 N1_5 1_555 1_555
C8_10 C7_5 1_555 1_555
C9_5 C7_5 1_555 1_555
C10_10 C9_5 1_555 1_555
H1_10 C10_10 1_555 1_555
C11_5 C9_5 1_555 1_555
H2_5 C11_5 1_555 1_555
H3_5 C11_5 1_555 1_555
H4_5 C11_5 1_555 1_555
C12_10 C8_10 1_555 1_555
C13_5 N2_5 1_555 1_555
C14_5 C13_5 1_555 1_555
C15_5 C13_5 1_555 1_555
C16_5 C15_5 1_555 1_555
H5_5 C16_5 1_555 1_555
C17_5 C15_5 1_555 1_555
H6_5 C17_5 1_555 1_555
H7_5 C17_5 1_555 1_555
H8_5 C17_5 1_555 1_555
C18_5 C14_5 1_555 1_555
C19_5 N3_5 1_555 1_555
C20_5 C19_5 1_555 1_555
C21_10 C20_5 1_555 1_555
H9_10 C21_10 1_555 1_555
C22_10 C19_5 1_555 1_555
C23_10 C22_10 1_555 1_555
C24_5 C20_5 1_555 1_555
H10_5 C24_5 1_555 1_555
H11_5 C24_5 1_555 1_555
H12_5 C24_5 1_555 1_555
O14_5 Cu4_2 1_555 1_555
O15_5 Cu5_4 1_555 1_555
O16_10 Cu6_2 1_555 1_555
O17_10 Cu6_2 1_555 1_555
O28 C31_5 1_555 1_555
O29 C30_5 1_555 1_555
O30_4 C30_5 1_555 1_555
N8_4 C31_5 1_555 1_555
C30_5 C31_5 1_555 1_555
C32_5 C14_5 1_555 1_555
C33_5 C16_5 1_555 1_555
C34_5 C33_5 1_555 1_555
H16_5 C34_5 1_555 1_555
H17_5 C34_5 1_555 1_555
H18_5 C34_5 1_555 1_555
N2_5 C4_5 1_555 1_555
N3_5 C5_5 1_555 1_555
C1_5 C2_5 1_555 1_555
C3_5 C4_5 1_555 1_555
C5_5 C6_5 1_555 1_555
N8_4 C32_5 1_555 1_555
C32_5 C33_5 1_555 1_555
O17_10 H32_5 1_555 1_555
C18_5 H34_5 1_555 1_555
C18_5 H35_5 1_555 1_555
C18_5 H36_5 1_555 1_555
C23_10 H39_5 1_555 1_555
C23_10 H41_5 1_555 1_555
C12_10 H44_5 1_555 1_555
C12_10 H46_5 1_555 1_555
H1_11 C10_11 1_555 1_555
C12_11 C8_11 1_555 1_555
H9_11 C21_11 1_555 1_555
C23_11 C22_11 1_555 1_555
O18_6 C26_6 1_555 1_555
O19_6 C25_6 1_555 1_555
O27 C25_6 1_555 1_555
N7 C26_6 1_555 1_555
C25_6 C26_6 1_555 1_555
C27_6 C8_11 1_555 1_555
C28_6 C10_11 1_555 1_555
C29_6 C28_6 1_555 1_555
H13_6 C29_6 1_555 1_555
H14_6 C29_6 1_555 1_555
H15_6 C29_6 1_555 1_555
O24_6 C36_6 1_555 1_555
O25_6 C35_6 1_555 1_555
O31_2 C36_6 1_555 1_555
N9_2 C35_6 1_555 1_555
C35_6 C36_6 1_555 1_555
C37_6 C22_11 1_555 1_555
C38_6 C21_11 1_555 1_555
C39_6 C38_6 1_555 1_555
H19_6 C39_6 1_555 1_555
H20_6 C39_6 1_555 1_555
H21_6 C39_6 1_555 1_555
Ni2_2 O18_6 1_555 1_555
O28_2 Ni2_2 1_555 1_555
O29_2 Ni2_2 1_555 1_555
O19_6 Ni2_2 1_555 1_555
N7 C27_6 1_555 1_555
C27_6 C28_6 1_555 1_555
O24_6 Ni2_2 1_555 1_555
O25_6 Ni2_2 1_555 1_555
N9_2 C37_6 1_555 1_555
C37_6 C38_6 1_555 1_555
C23_11 H40_6 1_555 1_555
C12_11 H45_6 1_555 1_555
Cu4 O7_6 1_555 1_555
Cu5_3 O10_6 1_555 1_555
Cu6_3 O13_6 1_555 1_555
Ni1_6 O5_6 1_555 1_555
O5_6 C2_6 1_555 1_555
O6_6 Ni1_6 1_555 1_555
O7_6 C1_6 1_555 1_555
O8_6 Ni1_6 1_555 1_555
O9_6 Ni1_6 1_555 1_555
O10_6 C3_6 1_555 1_555
O11_6 Ni1_6 1_555 1_555
O12_6 Ni1_6 1_555 1_555
O13_6 C6_6 1_555 1_555
N1_6 Cu4 1_555 1_555
N2_6 Cu5_3 1_555 1_555
N3_6 Cu6_3 1_555 1_555
C1_6 O6_6 1_555 1_555
C2_6 N1_6 1_555 1_555
C3_6 O9_6 1_555 1_555
C4_6 O8_6 1_555 1_555
C5_6 O12_6 1_555 1_555
C6_6 O11_6 1_555 1_555
C7_6 N1_6 1_555 1_555
C8_12 C7_6 1_555 1_555
C9_6 C7_6 1_555 1_555
C10_12 C9_6 1_555 1_555
H1_12 C10_12 1_555 1_555
C11_6 C9_6 1_555 1_555
H2_6 C11_6 1_555 1_555
H3_6 C11_6 1_555 1_555
H4_6 C11_6 1_555 1_555
C12_12 C8_12 1_555 1_555
C13_6 N2_6 1_555 1_555
C14_6 C13_6 1_555 1_555
C15_6 C13_6 1_555 1_555
C16_6 C15_6 1_555 1_555
H5_6 C16_6 1_555 1_555
C17_6 C15_6 1_555 1_555
H6_6 C17_6 1_555 1_555
H7_6 C17_6 1_555 1_555
H8_6 C17_6 1_555 1_555
C18_6 C14_6 1_555 1_555
C19_6 N3_6 1_555 1_555
C20_6 C19_6 1_555 1_555
C21_12 C20_6 1_555 1_555
H9_12 C21_12 1_555 1_555
C22_12 C19_6 1_555 1_555
C23_12 C22_12 1_555 1_555
C24_6 C20_6 1_555 1_555
H10_6 C24_6 1_555 1_555
H11_6 C24_6 1_555 1_555
H12_6 C24_6 1_555 1_555
O14_6 Cu4 1_555 1_555
O15_6 Cu5_3 1_555 1_555
O16_11 Cu6_3 1_555 1_555
O17_11 Cu6_3 1_555 1_555
O28_2 C31_6 1_555 1_555
O29_2 C30_6 1_555 1_555
O30_3 C30_6 1_555 1_555
N8_3 C31_6 1_555 1_555
C30_6 C31_6 1_555 1_555
C32_6 C14_6 1_555 1_555
C33_6 C16_6 1_555 1_555
C34_6 C33_6 1_555 1_555
H16_6 C34_6 1_555 1_555
H17_6 C34_6 1_555 1_555
H18_6 C34_6 1_555 1_555
N2_6 C4_6 1_555 1_555
N3_6 C5_6 1_555 1_555
C1_6 C2_6 1_555 1_555
C3_6 C4_6 1_555 1_555
C5_6 C6_6 1_555 1_555
N8_3 C32_6 1_555 1_555
C32_6 C33_6 1_555 1_555
O17_11 H32_6 1_555 1_555
C18_6 H34_6 1_555 1_555
C18_6 H35_6 1_555 1_555
C18_6 H36_6 1_555 1_555
C23_12 H39_6 1_555 1_555
C23_12 H41_6 1_555 1_555
C12_12 H44_6 1_555 1_555
C12_12 H46_6 1_555 1_555
O16_12 Cu6_4 1_555 1_555
O17_12 Cu6_4 1_555 1_555
O16_12 H30_6 1_555 1_555
O16_12 H31_6 1_555 1_555
O17_12 H33_6 1_555 1_555
H1_13 C10_13 1_555 1_555
C12_13 C8_13 1_555 1_555
H9_13 C21_13 1_555 1_555
C23_13 C22_13 1_555 1_555
O18_7 C26_7 1_555 1_555
O19_7 C25_7 1_555 1_555
O27_3 C25_7 1_555 1_555
N7_3 C26_7 1_555 1_555
C25_7 C26_7 1_555 1_555
C27_7 C8_13 1_555 1_555
C28_7 C10_13 1_555 1_555
C29_7 C28_7 1_555 1_555
H13_7 C29_7 1_555 1_555
H14_7 C29_7 1_555 1_555
H15_7 C29_7 1_555 1_555
O24_7 C36_7 1_555 1_555
O25_7 C35_7 1_555 1_555
O31_4 C36_7 1_555 1_555
N9_4 C35_7 1_555 1_555
C35_7 C36_7 1_555 1_555
C37_7 C22_13 1_555 1_555
C38_7 C21_13 1_555 1_555
C39_7 C38_7 1_555 1_555
H19_7 C39_7 1_555 1_555
H20_7 C39_7 1_555 1_555
H21_7 C39_7 1_555 1_555
Ni2_3 O18_7 1_555 1_555
O28_3 Ni2_3 1_555 1_555
O29_3 Ni2_3 1_555 1_555
O19_7 Ni2_3 1_555 1_555
N7_3 C27_7 1_555 1_555
C27_7 C28_7 1_555 1_555
O24_7 Ni2_3 1_555 1_555
O25_7 Ni2_3 1_555 1_555
N9_4 C37_7 1_555 1_555
C37_7 C38_7 1_555 1_555
C23_13 H40_7 1_555 1_555
C12_13 H45_7 1_555 1_555
Cu4_3 O7_7 1_555 1_555
Cu5_2 O10_7 1_555 1_555
Cu6_7 O13_7 1_555 1_555
Ni1_7 O5_7 1_555 1_555
O5_7 C2_7 1_555 1_555
O6_7 Ni1_7 1_555 1_555
O7_7 C1_7 1_555 1_555
O8_7 Ni1_7 1_555 1_555
O9_7 Ni1_7 1_555 1_555
O10_7 C3_7 1_555 1_555
O11_7 Ni1_7 1_555 1_555
O12_7 Ni1_7 1_555 1_555
O13_7 C6_7 1_555 1_555
N1_7 Cu4_3 1_555 1_555
N2_7 Cu5_2 1_555 1_555
N3_7 Cu6_7 1_555 1_555
C1_7 O6_7 1_555 1_555
C2_7 N1_7 1_555 1_555
C3_7 O9_7 1_555 1_555
C4_7 O8_7 1_555 1_555
C5_7 O12_7 1_555 1_555
C6_7 O11_7 1_555 1_555
C7_7 N1_7 1_555 1_555
C8_14 C7_7 1_555 1_555
C9_7 C7_7 1_555 1_555
C10_14 C9_7 1_555 1_555
H1_14 C10_14 1_555 1_555
C11_7 C9_7 1_555 1_555
H2_7 C11_7 1_555 1_555
H3_7 C11_7 1_555 1_555
H4_7 C11_7 1_555 1_555
C12_14 C8_14 1_555 1_555
C13_7 N2_7 1_555 1_555
C14_7 C13_7 1_555 1_555
C15_7 C13_7 1_555 1_555
C16_7 C15_7 1_555 1_555
H5_7 C16_7 1_555 1_555
C17_7 C15_7 1_555 1_555
H6_7 C17_7 1_555 1_555
H7_7 C17_7 1_555 1_555
H8_7 C17_7 1_555 1_555
C18_7 C14_7 1_555 1_555
C19_7 N3_7 1_555 1_555
C20_7 C19_7 1_555 1_555
C21_14 C20_7 1_555 1_555
H9_14 C21_14 1_555 1_555
C22_14 C19_7 1_555 1_555
C23_14 C22_14 1_555 1_555
C24_7 C20_7 1_555 1_555
H10_7 C24_7 1_555 1_555
H11_7 C24_7 1_555 1_555
H12_7 C24_7 1_555 1_555
O14_7 Cu4_3 1_555 1_555
O15_7 Cu5_2 1_555 1_555
O16_13 Cu6_7 1_555 1_555
O17_13 Cu6_7 1_555 1_555
O28_3 C31_7 1_555 1_555
O29_3 C30_7 1_555 1_555
O30_2 C30_7 1_555 1_555
N8_2 C31_7 1_555 1_555
C30_7 C31_7 1_555 1_555
C32_7 C14_7 1_555 1_555
C33_7 C16_7 1_555 1_555
C34_7 C33_7 1_555 1_555
H16_7 C34_7 1_555 1_555
H17_7 C34_7 1_555 1_555
H18_7 C34_7 1_555 1_555
N2_7 C4_7 1_555 1_555
N3_7 C5_7 1_555 1_555
C1_7 C2_7 1_555 1_555
C3_7 C4_7 1_555 1_555
C5_7 C6_7 1_555 1_555
N8_2 C32_7 1_555 1_555
C32_7 C33_7 1_555 1_555
O17_13 H32_7 1_555 1_555
C18_7 H34_7 1_555 1_555
C18_7 H35_7 1_555 1_555
C18_7 H36_7 1_555 1_555
C23_14 H39_7 1_555 1_555
C23_14 H41_7 1_555 1_555
C12_14 H44_7 1_555 1_555
C12_14 H46_7 1_555 1_555
O16_14 Cu6_8 1_555 1_555
O17_14 Cu6_8 1_555 1_555
O16_14 H30_7 1_555 1_555
O16_14 H31_7 1_555 1_555
O17_14 H33_7 1_555 1_555
O16_15 Cu6_5 1_555 1_555
O17_15 Cu6_5 1_555 1_555
O16_15 H30_8 1_555 1_555
O16_15 H31_8 1_555 1_555
O17_15 H33_8 1_555 1_555
H1_15 C10_15 1_555 1_555
C12_15 C8_15 1_555 1_555
H9_15 C21_15 1_555 1_555
C23_15 C22_15 1_555 1_555
O18_8 C26_8 1_555 1_555
O19_8 C25_8 1_555 1_555
O27_4 C25_8 1_555 1_555
N7_4 C26_8 1_555 1_555
C25_8 C26_8 1_555 1_555
C27_8 C8_15 1_555 1_555
C28_8 C10_15 1_555 1_555
C29_8 C28_8 1_555 1_555
H13_8 C29_8 1_555 1_555
H14_8 C29_8 1_555 1_555
H15_8 C29_8 1_555 1_555
O24_8 C36_8 1_555 1_555
O25_8 C35_8 1_555 1_555
O31_3 C36_8 1_555 1_555
N9_3 C35_8 1_555 1_555
C35_8 C36_8 1_555 1_555
C37_8 C22_15 1_555 1_555
C38_8 C21_15 1_555 1_555
C39_8 C38_8 1_555 1_555
H19_8 C39_8 1_555 1_555
H20_8 C39_8 1_555 1_555
H21_8 C39_8 1_555 1_555
Ni2_4 O18_8 1_555 1_555
O28_4 Ni2_4 1_555 1_555
O29_4 Ni2_4 1_555 1_555
O19_8 Ni2_4 1_555 1_555
N7_4 C27_8 1_555 1_555
C27_8 C28_8 1_555 1_555
O24_8 Ni2_4 1_555 1_555
O25_8 Ni2_4 1_555 1_555
N9_3 C37_8 1_555 1_555
C37_8 C38_8 1_555 1_555
C23_15 H40_8 1_555 1_555
C12_15 H45_8 1_555 1_555
Cu4_4 O7_8 1_555 1_555
Cu5 O10_8 1_555 1_555
Cu6_6 O13_8 1_555 1_555
Ni1_8 O5_8 1_555 1_555
O5_8 C2_8 1_555 1_555
O6_8 Ni1_8 1_555 1_555
O7_8 C1_8 1_555 1_555
O8_8 Ni1_8 1_555 1_555
O9_8 Ni1_8 1_555 1_555
O10_8 C3_8 1_555 1_555
O11_8 Ni1_8 1_555 1_555
O12_8 Ni1_8 1_555 1_555
O13_8 C6_8 1_555 1_555
N1_8 Cu4_4 1_555 1_555
N2_8 Cu5 1_555 1_555
N3_8 Cu6_6 1_555 1_555
C1_8 O6_8 1_555 1_555
C2_8 N1_8 1_555 1_555
C3_8 O9_8 1_555 1_555
C4_8 O8_8 1_555 1_555
C5_8 O12_8 1_555 1_555
C6_8 O11_8 1_555 1_555
C7_8 N1_8 1_555 1_555
C8_16 C7_8 1_555 1_555
C9_8 C7_8 1_555 1_555
C10_16 C9_8 1_555 1_555
H1_16 C10_16 1_555 1_555
C11_8 C9_8 1_555 1_555
H2_8 C11_8 1_555 1_555
H3_8 C11_8 1_555 1_555
H4_8 C11_8 1_555 1_555
C12_16 C8_16 1_555 1_555
C13_8 N2_8 1_555 1_555
C14_8 C13_8 1_555 1_555
C15_8 C13_8 1_555 1_555
C16_8 C15_8 1_555 1_555
H5_8 C16_8 1_555 1_555
C17_8 C15_8 1_555 1_555
H6_8 C17_8 1_555 1_555
H7_8 C17_8 1_555 1_555
H8_8 C17_8 1_555 1_555
C18_8 C14_8 1_555 1_555
C19_8 N3_8 1_555 1_555
C20_8 C19_8 1_555 1_555
C21_16 C20_8 1_555 1_555
H9_16 C21_16 1_555 1_555
C22_16 C19_8 1_555 1_555
C23_16 C22_16 1_555 1_555
C24_8 C20_8 1_555 1_555
H10_8 C24_8 1_555 1_555
H11_8 C24_8 1_555 1_555
H12_8 C24_8 1_555 1_555
O14_8 Cu4_4 1_555 1_555
O15_8 Cu5 1_555 1_555
O16_16 Cu6_6 1_555 1_555
O17_16 Cu6_6 1_555 1_555
O28_4 C31_8 1_555 1_555
O29_4 C30_8 1_555 1_555
O30 C30_8 1_555 1_555
N8 C31_8 1_555 1_555
C30_8 C31_8 1_555 1_555
C32_8 C14_8 1_555 1_555
C33_8 C16_8 1_555 1_555
C34_8 C33_8 1_555 1_555
H16_8 C34_8 1_555 1_555
H17_8 C34_8 1_555 1_555
H18_8 C34_8 1_555 1_555
N2_8 C4_8 1_555 1_555
N3_8 C5_8 1_555 1_555
C1_8 C2_8 1_555 1_555
C3_8 C4_8 1_555 1_555
C5_8 C6_8 1_555 1_555
N8 C32_8 1_555 1_555
C32_8 C33_8 1_555 1_555
O17_16 H32_8 1_555 1_555
C18_8 H34_8 1_555 1_555
C18_8 H35_8 1_555 1_555
C18_8 H36_8 1_555 1_555
C23_16 H39_8 1_555 1_555
C23_16 H41_8 1_555 1_555
C12_16 H44_8 1_555 1_555
C12_16 H46_8 1_555 1_555
O16_11 H30_9 1_555 1_555
O16_11 H31_9 1_555 1_555
O17_11 H33_9 1_555 1_555
C23_3 H40_9 1_555 1_555
C12_3 H45_9 1_555 1_555
O17_12 H32_9 1_555 1_555
C18_2 H34_9 1_555 1_555
C18_2 H35_9 1_555 1_555
C18_2 H36_9 1_555 1_555
C23_4 H39_9 1_555 1_555
C23_4 H41_9 1_555 1_555
C12_4 H44_9 1_555 1_555
C12_4 H46_9 1_555 1_555
C23 H40_10 1_555 1_555
C12 H45_10 1_555 1_555
O17_9 H32_10 1_555 1_555
C18 H34_10 1_555 1_555
C18 H35_10 1_555 1_555
C18 H36_10 1_555 1_555
C23_2 H39_10 1_555 1_555
C23_2 H41_10 1_555 1_555
C12_2 H44_10 1_555 1_555
C12_2 H46_10 1_555 1_555
O16_10 H30_10 1_555 1_555
O16_10 H31_10 1_555 1_555
O17_10 H33_10 1_555 1_555
O16_13 H30_11 1_555 1_555
O16_13 H31_11 1_555 1_555
O17_13 H33_11 1_555 1_555
C23_7 H40_11 1_555 1_555
C12_7 H45_11 1_555 1_555
O17_14 H32_11 1_555 1_555
C18_4 H34_11 1_555 1_555
C18_4 H35_11 1_555 1_555
C18_4 H36_11 1_555 1_555
C23_8 H39_11 1_555 1_555
C23_8 H41_11 1_555 1_555
C12_8 H44_11 1_555 1_555
C12_8 H46_11 1_555 1_555
C23_5 H40_12 1_555 1_555
C12_5 H45_12 1_555 1_555
O17_15 H32_12 1_555 1_555
C18_3 H34_12 1_555 1_555
C18_3 H35_12 1_555 1_555
C18_3 H36_12 1_555 1_555
C23_6 H39_12 1_555 1_555
C23_6 H41_12 1_555 1_555
C12_6 H44_12 1_555 1_555
C12_6 H46_12 1_555 1_555
O16_16 H30_12 1_555 1_555
O16_16 H31_12 1_555 1_555
O17_16 H33_12 1_555 1_555
O17_3 H32_13 1_555 1_555
C18_6 H34_13 1_555 1_555
C18_6 H35_13 1_555 1_555
C18_6 H36_13 1_555 1_555
C23_11 H39_13 1_555 1_555
C23_11 H41_13 1_555 1_555
C12_11 H44_13 1_555 1_555
C12_11 H46_13 1_555 1_555
C23_12 H40_13 1_555 1_555
C12_12 H45_13 1_555 1_555
O16_4 H30_13 1_555 1_555
O16_4 H31_13 1_555 1_555
O17_4 H33_13 1_555 1_555
O16 H30_14 1_555 1_555
O16 H31_14 1_555 1_555
O17 H33_14 1_555 1_555
O17_2 H32_14 1_555 1_555
C18_5 H34_14 1_555 1_555
C18_5 H35_14 1_555 1_555
C18_5 H36_14 1_555 1_555
C23_9 H39_14 1_555 1_555
C23_9 H41_14 1_555 1_555
C12_9 H44_14 1_555 1_555
C12_9 H46_14 1_555 1_555
C23_10 H40_14 1_555 1_555
C12_10 H45_14 1_555 1_555
O16_5 H30_15 1_555 1_555
O16_5 H31_15 1_555 1_555
O17_5 H33_15 1_555 1_555
O17_6 H32_15 1_555 1_555
C18_8 H34_15 1_555 1_555
C18_8 H35_15 1_555 1_555
C18_8 H36_15 1_555 1_555
C23_15 H39_15 1_555 1_555
C23_15 H41_15 1_555 1_555
C12_15 H44_15 1_555 1_555
C12_15 H46_15 1_555 1_555
C23_16 H40_15 1_555 1_555
C12_16 H45_15 1_555 1_555
O17_7 H32_16 1_555 1_555
C18_7 H34_16 1_555 1_555
C18_7 H35_16 1_555 1_555
C18_7 H36_16 1_555 1_555
C23_13 H39_16 1_555 1_555
C23_13 H41_16 1_555 1_555
C12_13 H44_16 1_555 1_555
C12_13 H46_16 1_555 1_555
C23_14 H40_16 1_555 1_555
C12_14 H45_16 1_555 1_555
O16_8 H30_16 1_555 1_555
O16_8 H31_16 1_555 1_555
O17_8 H33_16 1_555 1_555

#END
