
###############################################################################
#
# This file contains modified crystal structure data generated from the
# MOF subset of the Cambridge Structural Database (CSD) v543 
# hosted by the Cambridge Crystallographic Data Centre (CCDC).
#
# This work is licensed under the Creative Commons
# Attribution-NonCommercial-ShareAlike 4.0 International License.
# To view a copy of this license, visit
# http://creativecommons.org/licenses/by-nc-sa/4.0/
# or send a letter to
# Creative Commons, PO Box 1866, Mountain View, CA 94042, USA.
#
# CIF created using the CSD Python API on 29 September 2022
# The structure has been converted into the P1 space group
# The structure has a 3D framework
# The original CSD entry DIXGIC is in the monoclinic crystal system
# The framework has been calculated to contain at least 10.0% void space
# The void calculation uses a probe of radius 1.32A, grid spacing 0.4
# H atom positions have been added when not included in the experimental data
#
###############################################################################

data_DIXGIC
_chemical_formula_moiety         '(C312 H224 Eu8 N8 O64)n'
_symmetry_cell_setting           triclinic
_symmetry_space_group_name_H-M   'P 1'
_symmetry_Int_Tables_number      1
_space_group_name_Hall           'P 1'
loop_
_symmetry_equiv_pos_site_id
_symmetry_equiv_pos_as_xyz
1 x,y,z
_cell_length_a                   21.8054(12)
_cell_length_b                   9.0383(3)
_cell_length_c                   49.995(3)
_cell_angle_alpha                90
_cell_angle_beta                 96.591(4)
_cell_angle_gamma                90
_cell_volume                     9788.08
loop_
_atom_site_label
_atom_site_type_symbol
_atom_site_fract_x
_atom_site_fract_y
_atom_site_fract_z
N2 N 0.0095(3) 0.3094(10) 0.8189(2)
O12 O 0.4825(3) 0.0612(10) 0.88111(19)
O13 O 0.4986(3) 0.2419(10) 0.8540(2)
C4 C 0.3957(5) 0.1669(11) 0.8560(2)
C6 C 0.2021(5) 0.2294(13) 0.8363(3)
C11 C 0.4647(5) 0.1551(13) 0.8640(3)
C17 C 0.2674(4) 0.2045(12) 0.8429(2)
C27 C 0.0740(5) 0.2855(12) 0.8250(3)
H20 H 0.0247 0.0264 0.8241
C33 C 0.3118(5) 0.2939(14) 0.8310(2)
H21 H 0.2977 0.3684 0.8190
C43 C 0.2920(5) 0.0959(11) 0.8604(2)
H29 H 0.2649 0.0331 0.8679
C44 C 0.0991(4) 0.2538(12) 0.8508(2)
H30 H 0.0737 0.2518 0.8645
C47 C 0.0222(5) 0.5651(12) 0.8036(2)
H33 H 0.0562 0.5773 0.8165
C58 C 0.3553(5) 0.0750(11) 0.8673(2)
H37 H 0.3698 0.0007 0.8793
C59 C 0.1777(5) 0.2604(14) 0.8118(3)
H38 H 0.2036 0.2624 0.7982
C61 C 0.1622(4) 0.2244(11) 0.8569(2)
H40 H 0.1780 0.2015 0.8745
C64 C 0.3748(5) 0.2722(12) 0.8369(2)
H42 H 0.4026 0.3272 0.8282
C65 C 0.1128(5) 0.2919(15) 0.8045(3)
H43 H 0.0973 0.3154 0.7868
C72 C 0.0036(5) 0.6777(13) 0.7865(2)
H48 H 0.0248 0.7670 0.7883
Eu3 Eu 0.58848(2) 0.36698(5) 0.848653(11)
O1 O 0.6359(3) 0.0818(8) 0.90407(18)
O2 O 0.6585(3) 0.2879(8) 0.88383(16)
O3 O 0.6431(3) 0.5987(7) 0.85515(18)
O4 O 0.6841(4) 0.4374(8) 0.83012(18)
O5 O 0.5546(3) 0.4820(7) 0.88844(15)
H1 H 0.5337 0.5552 0.8840
O6 O 0.5119(5) 0.5430(10) 0.8260(2)
H2 H 0.4772 0.5078 0.8256
C2 C 0.7828(6) 0.6360(14) 0.8236(3)
H6 H 0.7793 0.5522 0.8127
C3 C 0.7860(4) 0.2388(11) 0.8947(2)
H7 H 0.7736 0.3155 0.8829
C7 C 0.8484(4) 0.2135(10) 0.9025(2)
H8 H 0.8777 0.2749 0.8961
C8 C 0.7401(5) 0.6674(11) 0.8417(2)
C10 C 0.9345(4) 0.0715(12) 0.9275(2)
C16 C 0.7898(5) 0.8917(11) 0.8547(2)
H12 H 0.7921 0.9758 0.8655
C19 C 0.8677(4) 0.0971(10) 0.9197(2)
C22 C 0.7601(4) 0.0328(11) 0.9217(2)
C23 C 0.8329(5) 0.8713(13) 0.8365(2)
C24 C 0.8221(5) 0.0065(12) 0.9292(2)
C25 C 0.8318(5) 0.7385(17) 0.8227(3)
H17 H 0.8639 0.7160 0.8126
C29 C 0.9758(4) 0.0873(12) 0.9079(2)
H18 H 0.9613 0.1108 0.8902
C34 C 0.7446(5) 0.7919(11) 0.8569(2)
H22 H 0.7162 0.8088 0.8691
C39 C 0.6862(5) 0.5585(13) 0.8417(3)
C40 C 0.9570(5) 0.0254(13) 0.9528(2)
H27 H 0.9296 0.0068 0.9653
C46 C 0.9414(5) 0.9462(12) 0.8304(2)
H32 H 0.9527 0.8469 0.8306
C48 C 0.6720(5) 0.1719(13) 0.8972(2)
C55 C 0.7408(4) 0.1461(10) 0.9050(2)
C67 C 0.8824(5) 0.9850(11) 0.8345(2)
O18 O 0.5700(4) 0.2711(8) 0.80376(16)
O21 O 0.6124(3) 0.1157(7) 0.83337(17)
H53 H 0.591212 0.51187 0.900936
H54 H 0.521395 0.561257 0.807326
C41 C 0.5829(5) 0.0203(12) 0.7899(2)
C74 C 0.5895(6) 0.1417(14) 0.8099(3)
C78 C 0.5468(9) 0.0438(15) 0.7661(3)
H52 H 0.5302 0.1375 0.7627
O11 O 0.5370(4) 0.1361(9) 0.9401(2)
H4 H 0.5126 0.1962 0.9326
H56 H 0.519944 0.0949518 0.956115
N1 N 0.1262(3) 0.0188(9) 0.94817(19)
O15 O 0.4834(3) 0.7285(8) 0.89488(16)
O16 O 0.4594(4) 0.8541(9) 0.92937(19)
C5 C 0.3944(5) 0.6488(13) 0.9153(3)
C9 C 0.2986(5) 0.4526(12) 0.9222(2)
C12 C 0.2279(4) 0.0925(11) 0.9370(2)
C13 C 0.0619(4) 0.0301(11) 0.9408(2)
C14 C 0.3895(5) 0.5222(13) 0.9008(2)
H10 H 0.4166 0.5006 0.8882
C15 C 0.1494(4) 0.2750(11) 0.9368(2)
H11 H 0.1090 0.3036 0.9385
C28 C 0.1665(5) 0.1241(11) 0.9412(2)
C30 C 0.3433(5) 0.4281(14) 0.9053(2)
H19 H 0.3415 0.3386 0.8960
H23 H 0.2040 0.0366 0.9927
C36 C 0.0202(4) 0.0055(12) 0.9602(2)
C38 C 0.1908(5) 0.3790(11) 0.9301(2)
H26 H 0.1776 0.4761 0.9271
C45 C 0.0392(5) 0.0667(12) 0.9158(2)
H31 H 0.0665 0.0792 0.9030
C52 C 0.3508(5) 0.6885(12) 0.9321(2)
H35 H 0.3526 0.7800 0.9407
C54 C 0.2697(4) 0.1953(13) 0.9307(2)
H36 H 0.3097 0.1663 0.9285
C56 C 0.4497(5) 0.7529(12) 0.9130(2)
C57 C 0.2531(5) 0.3425(12) 0.9277(2)
C69 C 0.3051(5) 0.5889(12) 0.9356(2)
H45 H 0.2768 0.6131 0.9474
Eu6 Eu 0.55356(2) 0.93392(6) 0.908600(12)
H15 H 0.7309 0.9715 0.9282
H16 H 0.8339 0.9280 0.9407
O8 O 0.6172(4) 0.8520(9) 0.95086(16)
O9 O 0.5817(3) 0.8690(7) 0.86413(12)
H3 H 0.5989 0.7883 0.8649
O10 O 0.6191(4) 0.7164(8) 0.91547(17)
C32 C 0.6384(6) 0.7478(13) 0.9398(3)
C50 C 0.7972(5) 0.3212(11) 0.9997(2)
C51 C 0.7418(6) 0.4209(12) 0.9570(2)
H34 H 0.7545 0.3370 0.9484
C60 C 0.7075(5) 0.6692(12) 0.9808(3)
H39 H 0.6981 0.7579 0.9889
C62 C 0.6835(5) 0.6434(12) 0.9543(2)
C63 C 0.7451(5) 0.5678(13) 0.9958(3)
C66 C 0.7618(6) 0.4427(13) 0.9837(3)
C71 C 0.7798(5) 0.1729(14) 0.9955(3)
H47 H 0.7492 0.1499 0.9816
C73 C 0.7029(6) 0.5221(13) 0.9426(2)
H49 H 0.6901 0.5048 0.9245
H55 H 0.543887 0.864249 0.851041
Eu2 Eu 0.44644(2) 0.06608(6) 0.091400(12)
O8_2 O 0.3828(4) 0.1480(9) 0.04914(16)
O9_2 O 0.4183(3) 0.1310(7) 0.13587(12)
H3_2 H 0.4011 0.2117 0.1351
O10_2 O 0.3809(4) 0.2836(8) 0.08453(17)
C32_2 C 0.3616(6) 0.2522(13) 0.0602(3)
C50_2 C 0.2028(5) 0.6788(11) 0.0003(2)
C51_2 C 0.2582(6) 0.5791(12) 0.0430(2)
H34_2 H 0.2455 0.6630 0.0516
C60_2 C 0.2925(5) 0.3308(12) 0.0192(3)
H39_2 H 0.3019 0.2421 0.0111
C62_2 C 0.3165(5) 0.3566(12) 0.0457(2)
C63_2 C 0.2549(5) 0.4322(13) 0.0042(3)
C66_2 C 0.2382(6) 0.5573(13) 0.0163(3)
C71_2 C 0.2202(5) 0.8271(14) 0.0045(3)
H47_2 H 0.2508 0.8501 0.0184
C73_2 C 0.2971(6) 0.4779(13) 0.0574(2)
H49_2 H 0.3099 0.4952 0.0755
O22 O 0.5166(3) 0.2715(8) 0.10512(16)
O23 O 0.5406(4) 0.1459(9) 0.07063(19)
H55_2 H 0.456113 0.135751 0.148959
H15_2 H 0.2691 0.0285 0.0718
H16_2 H 0.1661 0.0720 0.0593
N1_2 N 0.8738(3) 0.9812(9) 0.05183(19)
C5_2 C 0.6056(5) 0.3512(13) 0.0847(3)
C9_2 C 0.7014(5) 0.5474(12) 0.0778(2)
C12_2 C 0.7721(4) 0.9075(11) 0.0630(2)
C13_2 C 0.9381(4) 0.9699(11) 0.0592(2)
C14_2 C 0.6105(5) 0.4778(13) 0.0992(2)
H10_2 H 0.5834 0.4994 0.1118
C15_2 C 0.8506(4) 0.7250(11) 0.0632(2)
H11_2 H 0.8910 0.6964 0.0615
C28_2 C 0.8335(5) 0.8759(11) 0.0588(2)
C30_2 C 0.6567(5) 0.5719(14) 0.0947(2)
H19_2 H 0.6585 0.6614 0.1040
H23_2 H 0.7960 0.9634 0.0073
C36_2 C 0.9798(4) 0.9945(12) 0.0398(2)
C38_2 C 0.8092(5) 0.6210(11) 0.0699(2)
H26_2 H 0.8224 0.5239 0.0729
C45_2 C 0.9608(5) 0.9333(12) 0.0842(2)
H31_2 H 0.9335 0.9208 0.0970
C52_2 C 0.6492(5) 0.3115(12) 0.0679(2)
H35_2 H 0.6474 0.2200 0.0593
C54_2 C 0.7303(4) 0.8047(13) 0.0693(2)
H36_2 H 0.6903 0.8337 0.0715
C56_2 C 0.5503(5) 0.2471(12) 0.0870(2)
C57_2 C 0.7469(5) 0.6575(12) 0.0723(2)
C69_2 C 0.6949(5) 0.4111(12) 0.0644(2)
H45_2 H 0.7232 0.3869 0.0526
H9 H 0.2409 0.9945 0.9386
C21 C 0.1327(5) 0.7602(12) 0.9627(2)
H14 H 0.1021 0.7376 0.9488
C35 C 0.1937(5) 0.9385(12) 0.9888(3)
H24 H 0.0348 0.9765 0.9776
C42 C 0.1593(5) 0.6492(12) 0.9789(2)
H28 H 0.1476 0.5517 0.9753
C49 C 0.1511(5) 0.9029(12) 0.9670(2)
H41 H 0.2414 0.4142 0.9861
O11_2 O 0.4630(4) 0.8639(9) 0.0599(2)
H4_2 H 0.4874 0.8038 0.0674
O17 O 0.3641(3) 0.9182(8) 0.09593(18)
O19 O 0.5175(3) 0.9388(10) 0.11889(19)
H56_2 H 0.480056 0.905048 0.0438853
Eu1 Eu 0.41152(2) 0.63302(5) 0.151347(11)
O2_2 O 0.3415(3) 0.7121(8) 0.11617(16)
O3_2 O 0.3569(3) 0.4013(7) 0.14485(18)
O4_2 O 0.3159(4) 0.5626(8) 0.16988(18)
O5_2 O 0.4454(3) 0.5180(7) 0.11156(15)
H1_2 H 0.4663 0.4448 0.1160
O6_2 O 0.4881(5) 0.4570(10) 0.1740(2)
H2_2 H 0.5228 0.4922 0.1744
C2_2 C 0.2172(6) 0.3640(14) 0.1764(3)
H6_2 H 0.2207 0.4478 0.1873
C3_2 C 0.2140(4) 0.7612(11) 0.1053(2)
H7_2 H 0.2264 0.6845 0.1171
C7_2 C 0.1516(4) 0.7865(10) 0.0975(2)
H8_2 H 0.1223 0.7251 0.1039
C8_2 C 0.2599(5) 0.3326(11) 0.1583(2)
C10_2 C 0.0655(4) 0.9285(12) 0.0725(2)
C16_2 C 0.2102(5) 0.1083(11) 0.1453(2)
H12_2 H 0.2079 0.0242 0.1345
C19_2 C 0.1323(4) 0.9029(10) 0.0803(2)
C22_2 C 0.2399(4) 0.9672(11) 0.0783(2)
C23_2 C 0.1671(5) 0.1287(13) 0.1635(2)
C24_2 C 0.1779(5) 0.9935(12) 0.0708(2)
C25_2 C 0.1682(5) 0.2615(17) 0.1773(3)
H17_2 H 0.1361 0.2840 0.1874
C29_2 C 0.0242(4) 0.9127(12) 0.0921(2)
H18_2 H 0.0387 0.8892 0.1098
C34_2 C 0.2554(5) 0.2081(11) 0.1431(2)
H22_2 H 0.2838 0.1912 0.1309
C39_2 C 0.3138(5) 0.4415(13) 0.1583(3)
C40_2 C 0.0430(5) 0.9746(13) 0.0472(2)
H27_2 H 0.0704 0.9932 0.0347
C46_2 C 0.0586(5) 0.0538(12) 0.1696(2)
H32_2 H 0.0473 0.1531 0.1694
C48_2 C 0.3280(5) 0.8281(13) 0.1028(2)
C55_2 C 0.2592(4) 0.8539(10) 0.0950(2)
C67_2 C 0.1176(5) 0.0150(11) 0.1655(2)
O18_2 O 0.4300(4) 0.7289(8) 0.19624(16)
O20 O 0.5014(3) 0.7581(10) 0.1460(2)
O21_2 O 0.3876(3) 0.8843(7) 0.16663(17)
H53_2 H 0.408788 0.48813 0.0990636
H54_2 H 0.478605 0.438743 0.192674
N2_2 N 0.9905(3) 0.6906(10) 0.1811(2)
C4_2 C 0.6043(5) 0.8331(11) 0.1440(2)
C6_2 C 0.7979(5) 0.7706(13) 0.1637(3)
C11_2 C 0.5353(5) 0.8449(13) 0.1360(3)
C17_2 C 0.7326(4) 0.7955(12) 0.1571(2)
C27_2 C 0.9260(5) 0.7145(12) 0.1750(3)
H20_2 H 0.9753 0.9736 0.1759
C33_2 C 0.6882(5) 0.7061(14) 0.1690(2)
H21_2 H 0.7023 0.6316 0.1810
C43_2 C 0.7080(5) 0.9041(11) 0.1396(2)
H29_2 H 0.7351 0.9669 0.1321
C44_2 C 0.9009(4) 0.7462(12) 0.1492(2)
H30_2 H 0.9263 0.7482 0.1355
C47_2 C 0.9778(5) 0.4349(12) 0.1964(2)
H33_2 H 0.9438 0.4227 0.1835
C58_2 C 0.6447(5) 0.9250(11) 0.1327(2)
H37_2 H 0.6302 0.9993 0.1207
C59_2 C 0.8223(5) 0.7396(14) 0.1882(3)
H38_2 H 0.7964 0.7376 0.2018
C61_2 C 0.8378(4) 0.7756(11) 0.1431(2)
H40_2 H 0.8220 0.7985 0.1255
C64_2 C 0.6252(5) 0.7278(12) 0.1631(2)
H42_2 H 0.5974 0.6728 0.1718
C65_2 C 0.8872(5) 0.7081(15) 0.1955(3)
H43_2 H 0.9027 0.6846 0.2132
C72_2 C 0.9964(5) 0.3223(13) 0.2135(2)
H48_2 H 0.9752 0.2330 0.2117
C41_2 C 0.4171(5) 0.9797(12) 0.2101(2)
C74_2 C 0.4105(6) 0.8583(14) 0.1901(3)
C78_2 C 0.4532(9) 0.9562(15) 0.2339(3)
H52_2 H 0.4698 0.8625 0.2373
O7 O 0.9300(4) 0.2711(8) 0.69624(16)
O14 O 0.8876(3) 0.1157(7) 0.66663(17)
C41_3 C 0.9171(5) 0.0203(12) 0.7101(2)
C74_3 C 0.9105(6) 0.1417(14) 0.6901(3)
C78_3 C 0.9532(9) 0.0438(15) 0.7339(3)
H52_3 H 0.9698 0.1375 0.7373
Eu4 Eu 0.91152(2) 0.36698(5) 0.651347(11)
N1_3 N 0.3738(3) 0.0188(9) 0.55183(19)
O1_2 O 0.8641(3) 0.0818(8) 0.59593(18)
O2_3 O 0.8415(3) 0.2879(8) 0.61617(16)
O3_3 O 0.8569(3) 0.5987(7) 0.64485(18)
O4_3 O 0.8159(4) 0.4374(8) 0.66988(18)
O5_3 O 0.9454(3) 0.4820(7) 0.61156(15)
H1_3 H 0.9663 0.5552 0.6160
O6_3 O 0.9881(5) 0.5430(10) 0.6740(2)
O15_2 O 0.0166(3) 0.7285(8) 0.60512(16)
O16_2 O 0.0406(4) 0.8541(9) 0.57063(19)
C2_3 C 0.7172(6) 0.6360(14) 0.6764(3)
H6_3 H 0.7207 0.5522 0.6873
C3_3 C 0.7140(4) 0.2388(11) 0.6053(2)
H7_3 H 0.7264 0.3155 0.6171
C5_3 C 0.1056(5) 0.6488(13) 0.5847(3)
C7_3 C 0.6516(4) 0.2135(10) 0.5975(2)
H8_3 H 0.6223 0.2749 0.6039
C8_3 C 0.7599(5) 0.6674(11) 0.6583(2)
C9_3 C 0.2014(5) 0.4526(12) 0.5778(2)
C10_3 C 0.5655(4) 0.0715(12) 0.5725(2)
C12_3 C 0.2721(4) 0.0925(11) 0.5630(2)
C13_3 C 0.4381(4) 0.0301(11) 0.5592(2)
C14_3 C 0.1105(5) 0.5222(13) 0.5992(2)
H10_3 H 0.0834 0.5006 0.6118
C15_3 C 0.3506(4) 0.2750(11) 0.5632(2)
H11_3 H 0.3910 0.3036 0.5615
C16_3 C 0.7102(5) 0.8917(11) 0.6453(2)
H12_3 H 0.7079 0.9758 0.6345
C19_3 C 0.6323(4) 0.0971(10) 0.5803(2)
C22_3 C 0.7399(4) 0.0328(11) 0.5783(2)
C23_3 C 0.6671(5) 0.8713(13) 0.6635(2)
C24_3 C 0.6779(5) 0.0065(12) 0.5708(2)
C25_3 C 0.6682(5) 0.7385(17) 0.6773(3)
H17_3 H 0.6361 0.7160 0.6874
C28_3 C 0.3335(5) 0.1241(11) 0.5588(2)
C29_3 C 0.5242(4) 0.0873(12) 0.5921(2)
H18_3 H 0.5387 0.1108 0.6098
C30_3 C 0.1567(5) 0.4281(14) 0.5947(2)
H19_3 H 0.1585 0.3386 0.6040
C34_3 C 0.7554(5) 0.7919(11) 0.6431(2)
H22_3 H 0.7838 0.8088 0.6309
H23_3 H 0.2960 0.0366 0.5073
C36_3 C 0.4798(4) 0.0055(12) 0.5398(2)
C38_3 C 0.3092(5) 0.3790(11) 0.5699(2)
H26_3 H 0.3224 0.4761 0.5729
C39_3 C 0.8138(5) 0.5585(13) 0.6583(3)
C40_3 C 0.5430(5) 0.0254(13) 0.5472(2)
H27_3 H 0.5704 0.0068 0.5347
C45_3 C 0.4608(5) 0.0667(12) 0.5842(2)
H31_3 H 0.4335 0.0792 0.5970
C46_3 C 0.5586(5) 0.9462(12) 0.6696(2)
H32_3 H 0.5473 0.8469 0.6694
C48_3 C 0.8280(5) 0.1719(13) 0.6028(2)
C52_3 C 0.1492(5) 0.6885(12) 0.5679(2)
H35_3 H 0.1474 0.7800 0.5593
C54_3 C 0.2303(4) 0.1953(13) 0.5693(2)
H36_3 H 0.1903 0.1663 0.5715
C55_3 C 0.7592(4) 0.1461(10) 0.5950(2)
C56_3 C 0.0503(5) 0.7529(12) 0.5870(2)
C57_3 C 0.2469(5) 0.3425(12) 0.5723(2)
C67_3 C 0.6176(5) 0.9850(11) 0.6655(2)
C69_3 C 0.1949(5) 0.5889(12) 0.5644(2)
H45_3 H 0.2232 0.6131 0.5526
H53_3 H 0.908788 0.51187 0.599064
H54_3 H 0.978605 0.561257 0.692674
O11_3 O 0.9630(4) 0.1361(9) 0.5599(2)
H4_3 H 0.9874 0.1962 0.5674
H56_3 H 0.980056 0.0949518 0.543885
C1 C 0.8926(6) 0.8935(13) 0.7049(3)
H5 H 0.8679 0.8824 0.6886
C18 C 0.9912(5) 0.4354(13) 0.8018(2)
C20 C 0.9078(5) 0.2394(12) 0.8298(2)
H13 H 0.8970 0.3388 0.8303
C26 C 0.9675(4) 0.2007(12) 0.8248(2)
C31 C 0.9843(5) 0.0535(13) 0.8261(3)
C37 C 0.8659(5) 0.1357(13) 0.8339(2)
H25 H 0.8258 0.1634 0.8363
C53 C 0.9541(5) 0.6648(11) 0.7664(2)
C68 C 0.9422(6) 0.4184(15) 0.7813(3)
H44 H 0.9210 0.3292 0.7789
C70 C 0.9261(6) 0.5389(14) 0.7646(3)
H46 H 0.8930 0.5279 0.7513
C75 C 0.8997(6) 0.7766(12) 0.7210(3)
H50 H 0.8794 0.6884 0.7162
C76 C 0.9405(6) 0.7892(13) 0.7467(3)
C77 C 0.9661(9) 0.9351(14) 0.7532(3)
H51 H 0.9899 0.9543 0.7695
H2_3 H 0.0228 0.5078 0.6744
O20_2 O 0.0014(3) 0.2419(10) 0.6460(2)
N2_3 N 0.4905(3) 0.3094(10) 0.6811(2)
O12_2 O 0.0175(3) 0.0612(10) 0.61889(19)
C1_2 C 0.6074(6) 0.8935(13) 0.7951(3)
H5_2 H 0.6321 0.8824 0.8114
C4_3 C 0.1043(5) 0.1669(11) 0.6440(2)
C6_3 C 0.2979(5) 0.2294(13) 0.6637(3)
C11_3 C 0.0353(5) 0.1551(13) 0.6360(3)
C17_3 C 0.2326(4) 0.2045(12) 0.6571(2)
C18_2 C 0.5088(5) 0.4354(13) 0.6982(2)
C20_2 C 0.5922(5) 0.2394(12) 0.6702(2)
H13_2 H 0.6030 0.3388 0.6697
C26_2 C 0.5325(4) 0.2007(12) 0.6752(2)
C27_3 C 0.4260(5) 0.2855(12) 0.6750(3)
C31_2 C 0.5157(5) 0.0535(13) 0.6739(3)
H20_3 H 0.4753 0.0264 0.6759
C33_3 C 0.1882(5) 0.2939(14) 0.6690(2)
H21_3 H 0.2023 0.3684 0.6810
C37_2 C 0.6341(5) 0.1357(13) 0.6661(2)
H25_2 H 0.6742 0.1634 0.6637
C43_3 C 0.2080(5) 0.0959(11) 0.6396(2)
H29_3 H 0.2351 0.0331 0.6321
C44_3 C 0.4009(4) 0.2538(12) 0.6492(2)
H30_3 H 0.4263 0.2518 0.6355
C47_3 C 0.4778(5) 0.5651(12) 0.6964(2)
H33_3 H 0.4438 0.5773 0.6835
C53_2 C 0.5459(5) 0.6648(11) 0.7336(2)
C58_3 C 0.1447(5) 0.0750(11) 0.6327(2)
H37_3 H 0.1302 0.0007 0.6207
C59_3 C 0.3223(5) 0.2604(14) 0.6882(3)
H38_3 H 0.2964 0.2624 0.7018
C61_3 C 0.3378(4) 0.2244(11) 0.6431(2)
H40_3 H 0.3220 0.2015 0.6255
C64_3 C 0.1252(5) 0.2722(12) 0.6631(2)
H42_3 H 0.0974 0.3272 0.6718
C65_3 C 0.3872(5) 0.2919(15) 0.6955(3)
H43_3 H 0.4027 0.3154 0.7132
C68_2 C 0.5578(6) 0.4184(15) 0.7187(3)
H44_2 H 0.5790 0.3292 0.7211
C70_2 C 0.5739(6) 0.5389(14) 0.7354(3)
H46_2 H 0.6070 0.5279 0.7487
C72_3 C 0.4964(5) 0.6777(13) 0.7135(2)
H48_3 H 0.4752 0.7670 0.7117
C75_2 C 0.6003(6) 0.7766(12) 0.7790(3)
H50_2 H 0.6206 0.6884 0.7838
C76_2 C 0.5595(6) 0.7892(13) 0.7533(3)
C77_2 C 0.5339(9) 0.9351(14) 0.7468(3)
H51_2 H 0.5101 0.9543 0.7305
Eu2_2 Eu 0.05356(2) 0.06608(6) 0.408600(12)
O8_3 O 0.1172(4) 0.1480(9) 0.45086(16)
O9_3 O 0.0817(3) 0.1310(7) 0.36413(12)
H3_3 H 0.0989 0.2117 0.3649
O10_3 O 0.1191(4) 0.2836(8) 0.41547(17)
H9_2 H 0.2591 0.9945 0.5614
C21_2 C 0.3673(5) 0.7602(12) 0.5373(2)
H14_2 H 0.3979 0.7376 0.5512
H15_3 H 0.7691 0.9715 0.5718
H16_3 H 0.6661 0.9280 0.5593
C32_3 C 0.1384(6) 0.2522(13) 0.4398(3)
C35_2 C 0.3063(5) 0.9385(12) 0.5112(3)
H24_2 H 0.4652 0.9765 0.5224
C42_2 C 0.3407(5) 0.6492(12) 0.5211(2)
H28_2 H 0.3524 0.5517 0.5247
C49_2 C 0.3489(5) 0.9029(12) 0.5330(2)
C50_3 C 0.2972(5) 0.6788(11) 0.4997(2)
C51_3 C 0.2418(6) 0.5791(12) 0.4570(2)
H34_3 H 0.2545 0.6630 0.4484
C60_3 C 0.2075(5) 0.3308(12) 0.4808(3)
H39_3 H 0.1981 0.2421 0.4889
C62_3 C 0.1835(5) 0.3566(12) 0.4543(2)
C63_3 C 0.2451(5) 0.4322(13) 0.4958(3)
H41_2 H 0.2586 0.4142 0.5139
C66_3 C 0.2618(6) 0.5573(13) 0.4837(3)
C71_3 C 0.2798(5) 0.8271(14) 0.4955(3)
H47_3 H 0.2492 0.8501 0.4816
C73_3 C 0.2029(6) 0.4779(13) 0.4426(2)
H49_3 H 0.1901 0.4952 0.4245
Eu5 Eu 0.94644(2) 0.93392(6) 0.591400(12)
H55_3 H 0.0438869 0.135751 0.351041
O8_4 O 0.8828(4) 0.8520(9) 0.54914(16)
O9_4 O 0.9183(3) 0.8690(7) 0.63587(12)
H3_4 H 0.9011 0.7883 0.6351
O10_4 O 0.8809(4) 0.7164(8) 0.58453(17)
H9_3 H 0.7409 0.0055 0.4386
C21_3 C 0.6327(5) 0.2398(12) 0.4627(2)
H14_3 H 0.6021 0.2624 0.4488
H15_4 H 0.2309 0.0285 0.4282
H16_4 H 0.3339 0.0720 0.4407
C32_4 C 0.8616(6) 0.7478(13) 0.5602(3)
C35_3 C 0.6937(5) 0.0615(12) 0.4888(3)
H24_3 H 0.5348 0.0235 0.4776
C42_3 C 0.6593(5) 0.3508(12) 0.4789(2)
H28_3 H 0.6476 0.4483 0.4753
C49_3 C 0.6511(5) 0.0971(12) 0.4670(2)
C50_4 C 0.7028(5) 0.3212(11) 0.5003(2)
C51_4 C 0.7582(6) 0.4209(12) 0.5430(2)
H34_4 H 0.7455 0.3370 0.5516
C60_4 C 0.7925(5) 0.6692(12) 0.5192(3)
H39_4 H 0.8019 0.7579 0.5111
C62_4 C 0.8165(5) 0.6434(12) 0.5457(2)
C63_4 C 0.7549(5) 0.5678(13) 0.5042(3)
H41_3 H 0.7414 0.5858 0.4861
C66_4 C 0.7382(6) 0.4427(13) 0.5163(3)
C71_4 C 0.7202(5) 0.1729(14) 0.5045(3)
H47_4 H 0.7508 0.1499 0.5184
C73_4 C 0.7971(6) 0.5221(13) 0.5574(2)
H49_4 H 0.8099 0.5048 0.5755
H55_4 H 0.956113 0.864249 0.648959
O11_4 O 0.0370(4) 0.8639(9) 0.4401(2)
H4_4 H 0.0126 0.8038 0.4326
O17_2 O 0.1359(3) 0.9182(8) 0.40407(18)
H56_4 H 0.0199437 0.905048 0.456115
O22_2 O 0.9834(3) 0.2715(8) 0.39488(16)
O23_2 O 0.9594(4) 0.1459(9) 0.42937(19)
O7_2 O 0.0700(4) 0.7289(8) 0.30376(16)
O14_2 O 0.1124(3) 0.8843(7) 0.33337(17)
C41_4 C 0.0829(5) 0.9797(12) 0.2899(2)
C74_4 C 0.0895(6) 0.8583(14) 0.3099(3)
C78_4 C 0.0468(9) 0.9562(15) 0.2661(3)
H52_4 H 0.0302 0.8625 0.2627
Eu4_2 Eu 0.08848(2) 0.63302(5) 0.348653(11)
N1_4 N 0.6262(3) 0.9812(9) 0.44817(19)
O2_4 O 0.1585(3) 0.7121(8) 0.38383(16)
O3_4 O 0.1431(3) 0.4013(7) 0.35515(18)
O4_4 O 0.1841(4) 0.5626(8) 0.33012(18)
O5_4 O 0.0546(3) 0.5180(7) 0.38844(15)
H1_4 H 0.0337 0.4448 0.3840
O6_4 O 0.0119(5) 0.4570(10) 0.3260(2)
C2_4 C 0.2828(6) 0.3640(14) 0.3236(3)
H6_4 H 0.2793 0.4478 0.3127
C3_4 C 0.2860(4) 0.7612(11) 0.3947(2)
H7_4 H 0.2736 0.6845 0.3829
C5_4 C 0.8944(5) 0.3512(13) 0.4153(3)
C7_4 C 0.3484(4) 0.7865(10) 0.4025(2)
H8_4 H 0.3777 0.7251 0.3961
C8_4 C 0.2401(5) 0.3326(11) 0.3417(2)
C9_4 C 0.7986(5) 0.5474(12) 0.4222(2)
C10_4 C 0.4345(4) 0.9285(12) 0.4275(2)
C12_4 C 0.7279(4) 0.9075(11) 0.4370(2)
C13_4 C 0.5619(4) 0.9699(11) 0.4408(2)
C14_4 C 0.8895(5) 0.4778(13) 0.4008(2)
H10_4 H 0.9166 0.4994 0.3882
C15_4 C 0.6494(4) 0.7250(11) 0.4368(2)
H11_4 H 0.6090 0.6964 0.4385
C16_4 C 0.2898(5) 0.1083(11) 0.3547(2)
H12_4 H 0.2921 0.0242 0.3655
C19_4 C 0.3677(4) 0.9029(10) 0.4197(2)
C22_4 C 0.2601(4) 0.9672(11) 0.4217(2)
C23_4 C 0.3329(5) 0.1287(13) 0.3365(2)
C24_4 C 0.3221(5) 0.9935(12) 0.4292(2)
C25_4 C 0.3318(5) 0.2615(17) 0.3227(3)
H17_4 H 0.3639 0.2840 0.3126
C28_4 C 0.6665(5) 0.8759(11) 0.4412(2)
C29_4 C 0.4758(4) 0.9127(12) 0.4079(2)
H18_4 H 0.4613 0.8892 0.3902
C30_4 C 0.8433(5) 0.5719(14) 0.4053(2)
H19_4 H 0.8415 0.6614 0.3960
C34_4 C 0.2446(5) 0.2081(11) 0.3569(2)
H22_4 H 0.2162 0.1912 0.3691
H23_4 H 0.7040 0.9634 0.4927
C36_4 C 0.5202(4) 0.9945(12) 0.4602(2)
C38_4 C 0.6908(5) 0.6210(11) 0.4301(2)
H26_4 H 0.6776 0.5239 0.4271
C39_4 C 0.1862(5) 0.4415(13) 0.3417(3)
C40_4 C 0.4570(5) 0.9746(13) 0.4528(2)
H27_4 H 0.4296 0.9932 0.4653
C45_4 C 0.5392(5) 0.9333(12) 0.4158(2)
H31_4 H 0.5665 0.9208 0.4030
C46_4 C 0.4414(5) 0.0538(12) 0.3304(2)
H32_4 H 0.4527 0.1531 0.3306
C48_4 C 0.1720(5) 0.8281(13) 0.3972(2)
C52_4 C 0.8508(5) 0.3115(12) 0.4321(2)
H35_4 H 0.8526 0.2200 0.4407
C54_4 C 0.7697(4) 0.8047(13) 0.4307(2)
H36_4 H 0.8097 0.8337 0.4285
C55_4 C 0.2408(4) 0.8539(10) 0.4050(2)
C56_4 C 0.9497(5) 0.2471(12) 0.4130(2)
C57_4 C 0.7531(5) 0.6575(12) 0.4277(2)
C67_4 C 0.3824(5) 0.0150(11) 0.3345(2)
C69_4 C 0.8051(5) 0.4111(12) 0.4356(2)
H45_4 H 0.7768 0.3869 0.4474
H53_4 H 0.0912117 0.48813 0.400936
H54_4 H 0.0213946 0.438743 0.307326
O19_2 O 0.9825(3) 0.9388(10) 0.38111(19)
N2_4 N 0.5095(3) 0.6906(10) 0.3189(2)
O13_2 O 0.9986(3) 0.7581(10) 0.3540(2)
C1_3 C 0.3926(6) 0.1065(13) 0.2049(3)
H5_3 H 0.3679 0.1176 0.1886
C4_4 C 0.8957(5) 0.8331(11) 0.3560(2)
C6_4 C 0.7021(5) 0.7706(13) 0.3363(3)
C11_4 C 0.9647(5) 0.8449(13) 0.3640(3)
C17_4 C 0.7674(4) 0.7955(12) 0.3429(2)
C18_3 C 0.4912(5) 0.5646(13) 0.3018(2)
C20_3 C 0.4078(5) 0.7606(12) 0.3298(2)
H13_3 H 0.3970 0.6612 0.3303
C26_3 C 0.4675(4) 0.7993(12) 0.3248(2)
C27_4 C 0.5740(5) 0.7145(12) 0.3250(3)
C31_3 C 0.4843(5) 0.9465(13) 0.3261(3)
H20_4 H 0.5247 0.9736 0.3241
C33_4 C 0.8118(5) 0.7061(14) 0.3310(2)
H21_4 H 0.7977 0.6316 0.3190
C37_3 C 0.3659(5) 0.8643(13) 0.3339(2)
H25_3 H 0.3258 0.8366 0.3363
C43_4 C 0.7920(5) 0.9041(11) 0.3604(2)
H29_4 H 0.7649 0.9669 0.3679
C44_4 C 0.5991(4) 0.7462(12) 0.3508(2)
H30_4 H 0.5737 0.7482 0.3645
C47_4 C 0.5222(5) 0.4349(12) 0.3036(2)
H33_4 H 0.5562 0.4227 0.3165
C53_3 C 0.4541(5) 0.3352(11) 0.2664(2)
C58_4 C 0.8553(5) 0.9250(11) 0.3673(2)
H37_4 H 0.8698 0.9993 0.3793
C59_4 C 0.6777(5) 0.7396(14) 0.3118(3)
H38_4 H 0.7036 0.7376 0.2982
C61_4 C 0.6622(4) 0.7756(11) 0.3569(2)
H40_4 H 0.6780 0.7985 0.3745
C64_4 C 0.8748(5) 0.7278(12) 0.3369(2)
H42_4 H 0.9026 0.6728 0.3282
C65_4 C 0.6128(5) 0.7081(15) 0.3045(3)
H43_4 H 0.5973 0.6846 0.2868
C68_3 C 0.4422(6) 0.5816(15) 0.2813(3)
H44_3 H 0.4210 0.6708 0.2789
C70_3 C 0.4261(6) 0.4611(14) 0.2646(3)
H46_3 H 0.3930 0.4721 0.2513
C72_4 C 0.5036(5) 0.3223(13) 0.2865(2)
H48_4 H 0.5248 0.2330 0.2883
C75_3 C 0.3997(6) 0.2234(12) 0.2210(3)
H50_3 H 0.3794 0.3116 0.2162
C76_3 C 0.4405(6) 0.2108(13) 0.2467(3)
C77_3 C 0.4661(9) 0.0649(14) 0.2532(3)
H51_3 H 0.4899 0.0457 0.2695
H2_4 H 0.9772 0.4922 0.3256
C1_4 C 0.1074(6) 0.1065(13) 0.2951(3)
H5_4 H 0.1321 0.1176 0.3114
C18_4 C 0.0088(5) 0.5646(13) 0.1982(2)
C20_4 C 0.0922(5) 0.7606(12) 0.1702(2)
H13_4 H 0.1030 0.6612 0.1697
C26_4 C 0.0325(4) 0.7993(12) 0.1752(2)
C31_4 C 0.0157(5) 0.9465(13) 0.1739(3)
C37_4 C 0.1341(5) 0.8643(13) 0.1661(2)
H25_4 H 0.1742 0.8366 0.1637
C53_4 C 0.0459(5) 0.3352(11) 0.2336(2)
C68_4 C 0.0578(6) 0.5816(15) 0.2187(3)
H44_4 H 0.0790 0.6708 0.2211
C70_4 C 0.0739(6) 0.4611(14) 0.2354(3)
H46_4 H 0.1070 0.4721 0.2487
C75_4 C 0.1003(6) 0.2234(12) 0.2790(3)
H50_4 H 0.1206 0.3116 0.2838
C76_4 C 0.0595(6) 0.2108(13) 0.2533(3)
C77_4 C 0.0339(9) 0.0649(14) 0.2468(3)
H51_4 H 0.0101 0.0457 0.2305
H9_4 H 0.7591 0.0055 0.0614
C21_4 C 0.8673(5) 0.2398(12) 0.0373(2)
H14_4 H 0.8979 0.2624 0.0512
C35_4 C 0.8063(5) 0.0615(12) 0.0112(3)
H24_4 H 0.9652 0.0235 0.0224
C42_4 C 0.8407(5) 0.3508(12) 0.0211(2)
H28_4 H 0.8524 0.4483 0.0247
C49_4 C 0.8489(5) 0.0971(12) 0.0330(2)
H41_4 H 0.7586 0.5858 0.0139
loop_
_geom_bond_atom_site_label_1
_geom_bond_atom_site_label_2
_geom_bond_site_symmetry_1
_geom_bond_site_symmetry_2
O12 C11 1_555 1_555
O13 C11 1_555 1_555
C4 C11 1_555 1_555
C6 C17 1_555 1_555
C17 C33 1_555 1_555
C27 N2 1_555 1_555
C33 H21 1_555 1_555
C43 C17 1_555 1_555
H29 C43 1_555 1_555
C44 C27 1_555 1_555
H30 C44 1_555 1_555
C47 H33 1_555 1_555
C58 C4 1_555 1_555
H37 C58 1_555 1_555
C59 C6 1_555 1_555
H38 C59 1_555 1_555
C61 C6 1_555 1_555
H40 C61 1_555 1_555
C64 C4 1_555 1_555
H42 C64 1_555 1_555
C65 C27 1_555 1_555
H43 C65 1_555 1_555
C72 C47 1_555 1_555
H48 C72 1_555 1_555
Eu3 O13 1_555 1_555
C33 C64 1_555 1_555
C43 C58 1_555 1_555
C44 C61 1_555 1_555
C59 C65 1_555 1_555
Eu3 O2 1_555 1_555
O1 C48 1_555 1_555
O2 C48 1_555 1_555
O3 Eu3 1_555 1_555
O4 Eu3 1_555 1_555
O5 Eu3 1_555 1_555
H1 O5 1_555 1_555
O6 Eu3 1_555 1_555
H2 O6 1_555 1_555
C2 H6 1_555 1_555
C3 H7 1_555 1_555
C7 C3 1_555 1_555
H8 C7 1_555 1_555
C8 C2 1_555 1_555
C10 C19 1_555 1_555
C16 H12 1_555 1_555
C19 C7 1_555 1_555
C23 C16 1_555 1_555
C24 C19 1_555 1_555
C25 C2 1_555 1_555
H17 C25 1_555 1_555
C29 C10 1_555 1_555
H18 C29 1_555 1_555
C34 C8 1_555 1_555
H22 C34 1_555 1_555
C39 O3 1_555 1_555
C40 C10 1_555 1_555
H27 C40 1_555 1_555
H32 C46 1_555 1_555
C48 C55 1_555 1_555
C55 C3 1_555 1_555
C67 C23 1_555 1_555
O18 Eu3 1_555 1_555
O21 Eu3 1_555 1_555
O4 C39 1_555 1_555
C8 C39 1_555 1_555
C16 C34 1_555 1_555
C22 C24 1_555 1_555
C22 C55 1_555 1_555
C23 C25 1_555 1_555
C46 C67 1_555 1_555
O5 H53 1_555 1_555
O6 H54 1_555 1_555
O18 C74 1_555 1_555
O21 C74 1_555 1_555
C74 C41 1_555 1_555
C78 C41 1_555 1_555
H52 C78 1_555 1_555
H4 O11 1_555 1_555
O11 H56 1_555 1_555
N1 C13 1_555 1_555
O15 C56 1_555 1_555
O16 C56 1_555 1_555
C5 C14 1_555 1_555
C9 C30 1_555 1_555
C13 C36 1_555 1_555
C14 H10 1_555 1_555
C15 H11 1_555 1_555
C28 N1 1_555 1_555
C30 C14 1_555 1_555
H19 C30 1_555 1_555
C38 C15 1_555 1_555
H26 C38 1_555 1_555
C45 C13 1_555 1_555
H31 C45 1_555 1_555
C52 C5 1_555 1_555
H35 C52 1_555 1_555
C54 C12 1_555 1_555
H36 C54 1_555 1_555
C56 C5 1_555 1_555
C57 C9 1_555 1_555
C69 C9 1_555 1_555
H45 C69 1_555 1_555
O15 Eu6 1_555 1_555
O16 Eu6 1_555 1_555
C12 C28 1_555 1_555
C15 C28 1_555 1_555
C38 C57 1_555 1_555
C52 C69 1_555 1_555
C54 C57 1_555 1_555
Eu6 O8 1_555 1_555
O8 C32 1_555 1_555
O9 Eu6 1_555 1_555
H3 O9 1_555 1_555
O10 Eu6 1_555 1_555
C32 O10 1_555 1_555
C51 H34 1_555 1_555
C60 H39 1_555 1_555
C62 C32 1_555 1_555
C63 C60 1_555 1_555
C66 C50 1_555 1_555
H47 C71 1_555 1_555
C73 C51 1_555 1_555
H49 C73 1_555 1_555
C50 C71 1_555 1_555
C51 C66 1_555 1_555
C60 C62 1_555 1_555
C62 C73 1_555 1_555
C63 C66 1_555 1_555
O9 H55 1_555 1_555
Eu2 O8_2 1_555 1_555
O8_2 C32_2 1_555 1_555
O9_2 Eu2 1_555 1_555
H3_2 O9_2 1_555 1_555
O10_2 Eu2 1_555 1_555
C32_2 O10_2 1_555 1_555
C51_2 H34_2 1_555 1_555
C60_2 H39_2 1_555 1_555
C62_2 C32_2 1_555 1_555
C63_2 C60_2 1_555 1_555
C66_2 C50_2 1_555 1_555
H47_2 C71_2 1_555 1_555
C73_2 C51_2 1_555 1_555
H49_2 C73_2 1_555 1_555
O22 Eu2 1_555 1_555
O23 Eu2 1_555 1_555
C50_2 C71_2 1_555 1_555
C51_2 C66_2 1_555 1_555
C60_2 C62_2 1_555 1_555
C62_2 C73_2 1_555 1_555
C63_2 C66_2 1_555 1_555
O9_2 H55_2 1_555 1_555
N1_2 C13_2 1_555 1_555
O22 C56_2 1_555 1_555
O23 C56_2 1_555 1_555
C5_2 C14_2 1_555 1_555
C9_2 C30_2 1_555 1_555
C13_2 C36_2 1_555 1_555
C14_2 H10_2 1_555 1_555
C15_2 H11_2 1_555 1_555
C28_2 N1_2 1_555 1_555
C30_2 C14_2 1_555 1_555
H19_2 C30_2 1_555 1_555
C38_2 C15_2 1_555 1_555
H26_2 C38_2 1_555 1_555
C45_2 C13_2 1_555 1_555
H31_2 C45_2 1_555 1_555
C52_2 C5_2 1_555 1_555
H35_2 C52_2 1_555 1_555
C54_2 C12_2 1_555 1_555
H36_2 C54_2 1_555 1_555
C56_2 C5_2 1_555 1_555
C57_2 C9_2 1_555 1_555
C69_2 C9_2 1_555 1_555
H45_2 C69_2 1_555 1_555
C12_2 C28_2 1_555 1_555
C15_2 C28_2 1_555 1_555
C38_2 C57_2 1_555 1_555
C52_2 C69_2 1_555 1_555
C54_2 C57_2 1_555 1_555
C21 H14 1_555 1_555
C42 C21 1_555 1_555
H28 C42 1_555 1_555
C21 C49 1_555 1_555
C35 C49 1_555 1_555
H4_2 O11_2 1_555 1_555
O11_2 H56_2 1_555 1_555
Eu1 O2_2 1_555 1_555
O17 C48_2 1_555 1_555
O2_2 C48_2 1_555 1_555
O3_2 Eu1 1_555 1_555
O4_2 Eu1 1_555 1_555
O5_2 Eu1 1_555 1_555
H1_2 O5_2 1_555 1_555
O6_2 Eu1 1_555 1_555
H2_2 O6_2 1_555 1_555
C2_2 H6_2 1_555 1_555
C3_2 H7_2 1_555 1_555
C7_2 C3_2 1_555 1_555
H8_2 C7_2 1_555 1_555
C8_2 C2_2 1_555 1_555
C10_2 C19_2 1_555 1_555
C16_2 H12_2 1_555 1_555
C19_2 C7_2 1_555 1_555
C23_2 C16_2 1_555 1_555
C24_2 C19_2 1_555 1_555
C25_2 C2_2 1_555 1_555
H17_2 C25_2 1_555 1_555
C29_2 C10_2 1_555 1_555
H18_2 C29_2 1_555 1_555
C34_2 C8_2 1_555 1_555
H22_2 C34_2 1_555 1_555
C39_2 O3_2 1_555 1_555
C40_2 C10_2 1_555 1_555
H27_2 C40_2 1_555 1_555
H32_2 C46_2 1_555 1_555
C48_2 C55_2 1_555 1_555
C55_2 C3_2 1_555 1_555
C67_2 C23_2 1_555 1_555
O18_2 Eu1 1_555 1_555
O20 Eu1 1_555 1_555
O21_2 Eu1 1_555 1_555
O4_2 C39_2 1_555 1_555
C8_2 C39_2 1_555 1_555
C16_2 C34_2 1_555 1_555
C22_2 C24_2 1_555 1_555
C22_2 C55_2 1_555 1_555
C23_2 C25_2 1_555 1_555
C46_2 C67_2 1_555 1_555
O5_2 H53_2 1_555 1_555
O6_2 H54_2 1_555 1_555
O19 C11_2 1_555 1_555
O20 C11_2 1_555 1_555
C4_2 C11_2 1_555 1_555
C6_2 C17_2 1_555 1_555
C17_2 C33_2 1_555 1_555
C27_2 N2_2 1_555 1_555
C33_2 H21_2 1_555 1_555
C43_2 C17_2 1_555 1_555
H29_2 C43_2 1_555 1_555
C44_2 C27_2 1_555 1_555
H30_2 C44_2 1_555 1_555
C47_2 H33_2 1_555 1_555
C58_2 C4_2 1_555 1_555
H37_2 C58_2 1_555 1_555
C59_2 C6_2 1_555 1_555
H38_2 C59_2 1_555 1_555
C61_2 C6_2 1_555 1_555
H40_2 C61_2 1_555 1_555
C64_2 C4_2 1_555 1_555
H42_2 C64_2 1_555 1_555
C65_2 C27_2 1_555 1_555
H43_2 C65_2 1_555 1_555
C72_2 C47_2 1_555 1_555
H48_2 C72_2 1_555 1_555
C33_2 C64_2 1_555 1_555
C43_2 C58_2 1_555 1_555
C44_2 C61_2 1_555 1_555
C59_2 C65_2 1_555 1_555
O18_2 C74_2 1_555 1_555
O21_2 C74_2 1_555 1_555
C74_2 C41_2 1_555 1_555
C78_2 C41_2 1_555 1_555
H52_2 C78_2 1_555 1_555
O7 C74_3 1_555 1_555
O14 C74_3 1_555 1_555
C74_3 C41_3 1_555 1_555
C78_3 C41_3 1_555 1_555
H52_3 C78_3 1_555 1_555
Eu4 O7 1_555 1_555
O14 Eu4 1_555 1_555
Eu4 O2_3 1_555 1_555
N1_3 C13_3 1_555 1_555
O1_2 C48_3 1_555 1_555
O2_3 C48_3 1_555 1_555
O3_3 Eu4 1_555 1_555
O4_3 Eu4 1_555 1_555
O5_3 Eu4 1_555 1_555
H1_3 O5_3 1_555 1_555
O6_3 Eu4 1_555 1_555
O15_2 C56_3 1_555 1_555
O16_2 C56_3 1_555 1_555
C2_3 H6_3 1_555 1_555
C3_3 H7_3 1_555 1_555
C5_3 C14_3 1_555 1_555
C7_3 C3_3 1_555 1_555
H8_3 C7_3 1_555 1_555
C8_3 C2_3 1_555 1_555
C9_3 C30_3 1_555 1_555
C10_3 C19_3 1_555 1_555
C13_3 C36_3 1_555 1_555
C14_3 H10_3 1_555 1_555
C15_3 H11_3 1_555 1_555
C16_3 H12_3 1_555 1_555
C19_3 C7_3 1_555 1_555
C23_3 C16_3 1_555 1_555
C24_3 C19_3 1_555 1_555
C25_3 C2_3 1_555 1_555
H17_3 C25_3 1_555 1_555
C28_3 N1_3 1_555 1_555
C29_3 C10_3 1_555 1_555
H18_3 C29_3 1_555 1_555
C30_3 C14_3 1_555 1_555
H19_3 C30_3 1_555 1_555
C34_3 C8_3 1_555 1_555
H22_3 C34_3 1_555 1_555
C38_3 C15_3 1_555 1_555
H26_3 C38_3 1_555 1_555
C39_3 O3_3 1_555 1_555
C40_3 C10_3 1_555 1_555
H27_3 C40_3 1_555 1_555
C45_3 C13_3 1_555 1_555
H31_3 C45_3 1_555 1_555
H32_3 C46_3 1_555 1_555
C48_3 C55_3 1_555 1_555
C52_3 C5_3 1_555 1_555
H35_3 C52_3 1_555 1_555
C54_3 C12_3 1_555 1_555
H36_3 C54_3 1_555 1_555
C55_3 C3_3 1_555 1_555
C56_3 C5_3 1_555 1_555
C57_3 C9_3 1_555 1_555
C67_3 C23_3 1_555 1_555
C69_3 C9_3 1_555 1_555
H45_3 C69_3 1_555 1_555
O4_3 C39_3 1_555 1_555
C8_3 C39_3 1_555 1_555
C12_3 C28_3 1_555 1_555
C15_3 C28_3 1_555 1_555
C16_3 C34_3 1_555 1_555
C22_3 C24_3 1_555 1_555
C22_3 C55_3 1_555 1_555
C23_3 C25_3 1_555 1_555
C29_3 C45_3 1_555 1_555
C36_3 C40_3 1_555 1_555
C38_3 C57_3 1_555 1_555
C46_3 C67_3 1_555 1_555
C52_3 C69_3 1_555 1_555
C54_3 C57_3 1_555 1_555
O5_3 H53_3 1_555 1_555
O6_3 H54_3 1_555 1_555
H4_3 O11_3 1_555 1_555
O11_3 H56_3 1_555 1_555
C1 H5 1_555 1_555
C20 H13 1_555 1_555
C31 C26 1_555 1_555
C37 C20 1_555 1_555
H25 C37 1_555 1_555
C53 C70 1_555 1_555
C68 C18 1_555 1_555
H44 C68 1_555 1_555
C70 C68 1_555 1_555
H46 C70 1_555 1_555
C75 C1 1_555 1_555
H50 C75 1_555 1_555
C76 C53 1_555 1_555
C77 C76 1_555 1_555
H51 C77 1_555 1_555
C20 C26 1_555 1_555
C75 C76 1_555 1_555
N2_3 C18_2 1_555 1_555
O12_2 C11_3 1_555 1_555
O20_2 C11_3 1_555 1_555
C1_2 H5_2 1_555 1_555
C4_3 C11_3 1_555 1_555
C6_3 C17_3 1_555 1_555
C17_3 C33_3 1_555 1_555
C18_2 C47_3 1_555 1_555
C20_2 H13_2 1_555 1_555
C26_2 N2_3 1_555 1_555
C27_3 N2_3 1_555 1_555
C31_2 C26_2 1_555 1_555
H20_3 C31_2 1_555 1_555
C33_3 H21_3 1_555 1_555
C37_2 C20_2 1_555 1_555
H25_2 C37_2 1_555 1_555
C43_3 C17_3 1_555 1_555
H29_3 C43_3 1_555 1_555
C44_3 C27_3 1_555 1_555
H30_3 C44_3 1_555 1_555
C47_3 H33_3 1_555 1_555
C53_2 C70_2 1_555 1_555
C58_3 C4_3 1_555 1_555
H37_3 C58_3 1_555 1_555
C59_3 C6_3 1_555 1_555
H38_3 C59_3 1_555 1_555
C61_3 C6_3 1_555 1_555
H40_3 C61_3 1_555 1_555
C64_3 C4_3 1_555 1_555
H42_3 C64_3 1_555 1_555
C65_3 C27_3 1_555 1_555
H43_3 C65_3 1_555 1_555
C68_2 C18_2 1_555 1_555
H44_2 C68_2 1_555 1_555
C70_2 C68_2 1_555 1_555
H46_2 C70_2 1_555 1_555
C72_3 C47_3 1_555 1_555
H48_3 C72_3 1_555 1_555
C75_2 C1_2 1_555 1_555
H50_2 C75_2 1_555 1_555
C76_2 C53_2 1_555 1_555
C77_2 C76_2 1_555 1_555
H51_2 C77_2 1_555 1_555
C20_2 C26_2 1_555 1_555
C33_3 C64_3 1_555 1_555
C43_3 C58_3 1_555 1_555
C44_3 C61_3 1_555 1_555
C53_2 C72_3 1_555 1_555
C59_3 C65_3 1_555 1_555
C75_2 C76_2 1_555 1_555
Eu2_2 O8_3 1_555 1_555
O8_3 C32_3 1_555 1_555
O9_3 Eu2_2 1_555 1_555
H3_3 O9_3 1_555 1_555
O10_3 Eu2_2 1_555 1_555
C21_2 H14_2 1_555 1_555
C32_3 O10_3 1_555 1_555
C42_2 C21_2 1_555 1_555
H28_2 C42_2 1_555 1_555
C50_3 C42_2 1_555 1_555
C51_3 H34_3 1_555 1_555
C60_3 H39_3 1_555 1_555
C62_3 C32_3 1_555 1_555
C63_3 C60_3 1_555 1_555
H41_2 C63_3 1_555 1_555
C66_3 C50_3 1_555 1_555
C71_3 C35_2 1_555 1_555
H47_3 C71_3 1_555 1_555
C73_3 C51_3 1_555 1_555
H49_3 C73_3 1_555 1_555
C21_2 C49_2 1_555 1_555
C35_2 C49_2 1_555 1_555
C50_3 C71_3 1_555 1_555
C51_3 C66_3 1_555 1_555
C60_3 C62_3 1_555 1_555
C62_3 C73_3 1_555 1_555
C63_3 C66_3 1_555 1_555
O9_3 H55_3 1_555 1_555
Eu5 O8_4 1_555 1_555
O8_4 C32_4 1_555 1_555
O9_4 Eu5 1_555 1_555
H3_4 O9_4 1_555 1_555
O10_4 Eu5 1_555 1_555
C21_3 H14_3 1_555 1_555
C32_4 O10_4 1_555 1_555
C42_3 C21_3 1_555 1_555
H28_3 C42_3 1_555 1_555
C50_4 C42_3 1_555 1_555
C51_4 H34_4 1_555 1_555
C60_4 H39_4 1_555 1_555
C62_4 C32_4 1_555 1_555
C63_4 C60_4 1_555 1_555
H41_3 C63_4 1_555 1_555
C66_4 C50_4 1_555 1_555
C71_4 C35_3 1_555 1_555
H47_4 C71_4 1_555 1_555
C73_4 C51_4 1_555 1_555
H49_4 C73_4 1_555 1_555
C21_3 C49_3 1_555 1_555
C35_3 C49_3 1_555 1_555
C50_4 C71_4 1_555 1_555
C51_4 C66_4 1_555 1_555
C60_4 C62_4 1_555 1_555
C62_4 C73_4 1_555 1_555
C63_4 C66_4 1_555 1_555
O9_4 H55_4 1_555 1_555
H4_4 O11_4 1_555 1_555
O11_4 H56_4 1_555 1_555
O7_2 C74_4 1_555 1_555
O14_2 C74_4 1_555 1_555
C74_4 C41_4 1_555 1_555
C78_4 C41_4 1_555 1_555
H52_4 C78_4 1_555 1_555
Eu4_2 O7_2 1_555 1_555
O14_2 Eu4_2 1_555 1_555
Eu4_2 O2_4 1_555 1_555
N1_4 C13_4 1_555 1_555
O17_2 C48_4 1_555 1_555
O2_4 C48_4 1_555 1_555
O3_4 Eu4_2 1_555 1_555
O4_4 Eu4_2 1_555 1_555
O5_4 Eu4_2 1_555 1_555
H1_4 O5_4 1_555 1_555
O6_4 Eu4_2 1_555 1_555
O22_2 C56_4 1_555 1_555
O23_2 C56_4 1_555 1_555
C2_4 H6_4 1_555 1_555
C3_4 H7_4 1_555 1_555
C5_4 C14_4 1_555 1_555
C7_4 C3_4 1_555 1_555
H8_4 C7_4 1_555 1_555
C8_4 C2_4 1_555 1_555
C9_4 C30_4 1_555 1_555
C10_4 C19_4 1_555 1_555
C13_4 C36_4 1_555 1_555
C14_4 H10_4 1_555 1_555
C15_4 H11_4 1_555 1_555
C16_4 H12_4 1_555 1_555
C19_4 C7_4 1_555 1_555
C23_4 C16_4 1_555 1_555
C24_4 C19_4 1_555 1_555
C25_4 C2_4 1_555 1_555
H17_4 C25_4 1_555 1_555
C28_4 N1_4 1_555 1_555
C29_4 C10_4 1_555 1_555
H18_4 C29_4 1_555 1_555
C30_4 C14_4 1_555 1_555
H19_4 C30_4 1_555 1_555
C34_4 C8_4 1_555 1_555
H22_4 C34_4 1_555 1_555
C38_4 C15_4 1_555 1_555
H26_4 C38_4 1_555 1_555
C39_4 O3_4 1_555 1_555
C40_4 C10_4 1_555 1_555
H27_4 C40_4 1_555 1_555
C45_4 C13_4 1_555 1_555
H31_4 C45_4 1_555 1_555
H32_4 C46_4 1_555 1_555
C48_4 C55_4 1_555 1_555
C52_4 C5_4 1_555 1_555
H35_4 C52_4 1_555 1_555
C54_4 C12_4 1_555 1_555
H36_4 C54_4 1_555 1_555
C55_4 C3_4 1_555 1_555
C56_4 C5_4 1_555 1_555
C57_4 C9_4 1_555 1_555
C67_4 C23_4 1_555 1_555
C69_4 C9_4 1_555 1_555
H45_4 C69_4 1_555 1_555
O4_4 C39_4 1_555 1_555
C8_4 C39_4 1_555 1_555
C12_4 C28_4 1_555 1_555
C15_4 C28_4 1_555 1_555
C16_4 C34_4 1_555 1_555
C22_4 C24_4 1_555 1_555
C22_4 C55_4 1_555 1_555
C23_4 C25_4 1_555 1_555
C29_4 C45_4 1_555 1_555
C36_4 C40_4 1_555 1_555
C38_4 C57_4 1_555 1_555
C46_4 C67_4 1_555 1_555
C52_4 C69_4 1_555 1_555
C54_4 C57_4 1_555 1_555
O5_4 H53_4 1_555 1_555
O6_4 H54_4 1_555 1_555
N2_4 C18_3 1_555 1_555
O19_2 C11_4 1_555 1_555
O13_2 C11_4 1_555 1_555
C1_3 H5_3 1_555 1_555
C4_4 C11_4 1_555 1_555
C6_4 C17_4 1_555 1_555
C17_4 C33_4 1_555 1_555
C18_3 C47_4 1_555 1_555
C20_3 H13_3 1_555 1_555
C26_3 N2_4 1_555 1_555
C27_4 N2_4 1_555 1_555
C31_3 C26_3 1_555 1_555
H20_4 C31_3 1_555 1_555
C33_4 H21_4 1_555 1_555
C37_3 C20_3 1_555 1_555
H25_3 C37_3 1_555 1_555
C43_4 C17_4 1_555 1_555
H29_4 C43_4 1_555 1_555
C44_4 C27_4 1_555 1_555
H30_4 C44_4 1_555 1_555
C47_4 H33_4 1_555 1_555
C53_3 C70_3 1_555 1_555
C58_4 C4_4 1_555 1_555
H37_4 C58_4 1_555 1_555
C59_4 C6_4 1_555 1_555
H38_4 C59_4 1_555 1_555
C61_4 C6_4 1_555 1_555
H40_4 C61_4 1_555 1_555
C64_4 C4_4 1_555 1_555
H42_4 C64_4 1_555 1_555
C65_4 C27_4 1_555 1_555
H43_4 C65_4 1_555 1_555
C68_3 C18_3 1_555 1_555
H44_3 C68_3 1_555 1_555
C70_3 C68_3 1_555 1_555
H46_3 C70_3 1_555 1_555
C72_4 C47_4 1_555 1_555
H48_4 C72_4 1_555 1_555
C75_3 C1_3 1_555 1_555
H50_3 C75_3 1_555 1_555
C76_3 C53_3 1_555 1_555
C77_3 C76_3 1_555 1_555
H51_3 C77_3 1_555 1_555
C20_3 C26_3 1_555 1_555
C33_4 C64_4 1_555 1_555
C43_4 C58_4 1_555 1_555
C44_4 C61_4 1_555 1_555
C53_3 C72_4 1_555 1_555
C59_4 C65_4 1_555 1_555
C75_3 C76_3 1_555 1_555
C1_4 H5_4 1_555 1_555
C20_4 H13_4 1_555 1_555
C31_4 C26_4 1_555 1_555
C37_4 C20_4 1_555 1_555
H25_4 C37_4 1_555 1_555
C53_4 C70_4 1_555 1_555
C68_4 C18_4 1_555 1_555
H44_4 C68_4 1_555 1_555
C70_4 C68_4 1_555 1_555
H46_4 C70_4 1_555 1_555
C75_4 C1_4 1_555 1_555
H50_4 C75_4 1_555 1_555
C76_4 C53_4 1_555 1_555
C77_4 C76_4 1_555 1_555
H51_4 C77_4 1_555 1_555
C20_4 C26_4 1_555 1_555
C75_4 C76_4 1_555 1_555
C21_4 H14_4 1_555 1_555
C42_4 C21_4 1_555 1_555
H28_4 C42_4 1_555 1_555
C21_4 C49_4 1_555 1_555
C35_4 C49_4 1_555 1_555

#END
