
###############################################################################
#
# This file contains modified crystal structure data generated from the
# MOF subset of the Cambridge Structural Database (CSD) v543 
# hosted by the Cambridge Crystallographic Data Centre (CCDC).
#
# This work is licensed under the Creative Commons
# Attribution-NonCommercial-ShareAlike 4.0 International License.
# To view a copy of this license, visit
# http://creativecommons.org/licenses/by-nc-sa/4.0/
# or send a letter to
# Creative Commons, PO Box 1866, Mountain View, CA 94042, USA.
#
# CIF created using the CSD Python API on 29 September 2022
# The structure has been converted into the P1 space group
# The structure has a 3D framework
# The original CSD entry DIXJIF is in the monoclinic crystal system
# The framework has been calculated to contain at least 10.0% void space
# The void calculation uses a probe of radius 1.32A, grid spacing 0.4
#
###############################################################################

data_DIXJIF
_chemical_formula_moiety         '(C120 H80 N8 O32 Zn8)n'
_symmetry_cell_setting           triclinic
_symmetry_space_group_name_H-M   'P 1'
_symmetry_Int_Tables_number      1
_space_group_name_Hall           'P 1'
loop_
_symmetry_equiv_pos_site_id
_symmetry_equiv_pos_as_xyz
1 x,y,z
_cell_length_a                   16.752(5)
_cell_length_b                   20.392(6)
_cell_length_c                   10.355(3)
_cell_angle_alpha                90
_cell_angle_beta                 115.486(4)
_cell_angle_gamma                90
_cell_volume                     3193.12
loop_
_atom_site_label
_atom_site_type_symbol
_atom_site_fract_x
_atom_site_fract_y
_atom_site_fract_z
Zn6 Zn 0.05449(2) 0.775546(17) 0.40792(4)
Zn1 Zn 0.44551(2) 0.275546(17) 0.09208(4)
O1 O 0.52931(18) 0.34786(14) 0.0922(3)
C1 C 0.5889(2) 0.37038(18) 0.2069(4)
C2 C 0.6365(3) 0.4305(2) 0.1940(5)
C3 C 0.7109(4) 0.4523(3) 0.3054(6)
H1 H 0.7319 0.4285 0.3903
C4 C 0.7586(4) 0.5091(4) 0.3007(6)
H2 H 0.8114 0.5198 0.3784
C5 C 0.6027(5) 0.4718(4) 0.0822(9)
H3 H 0.5485 0.4623 0.0062
C10 C 0.6480(5) 0.5287(4) 0.0790(8)
C12 C 0.7266(3) 0.5481(3) 0.1811(5)
C13 C 0.7757(3) 0.6060(2) 0.1745(5)
C14 C 0.8471(3) 0.6280(2) 0.2840(4)
C15 C 0.8988(3) 0.68527(19) 0.2689(4)
O2 O 0.8778(2) 0.70682(16) 0.1462(3)
O3 O 0.9598(2) 0.70668(16) 0.3816(3)
O4 O 0.6118(2) 0.34623(14) 0.3303(3)
H9 H 0.862(3) 0.605(2) 0.375(3)
H10 H 0.748(3) 0.635(2) 0.095(4)
Zn2 Zn 0.55449(2) 0.275546(17) 0.40792(4)
O5 O 0.47069(18) 0.34786(14) 0.4078(3)
C21 C 0.4111(2) 0.37038(18) 0.2931(4)
C22 C 0.3635(3) 0.4305(2) 0.3060(5)
C23 C 0.2891(4) 0.4523(3) 0.1946(6)
H15 H 0.2681 0.4285 0.1097
C24 C 0.2414(4) 0.5091(4) 0.1993(6)
H16 H 0.1886 0.5198 0.1216
C25 C 0.3973(5) 0.4718(4) 0.4178(9)
H17 H 0.4515 0.4623 0.4938
C26 C 0.3520(5) 0.5287(4) 0.4210(8)
H18 H 0.3786 0.5557 0.5007
C27 C 0.2734(3) 0.5481(3) 0.3189(5)
C28 C 0.2243(3) 0.6060(2) 0.3255(5)
C29 C 0.1529(3) 0.6280(2) 0.2160(4)
C30 C 0.1012(3) 0.68527(19) 0.2311(4)
O6 O 0.1222(2) 0.70682(16) 0.3538(3)
O7 O 0.0402(2) 0.70668(16) 0.1184(3)
O8 O 0.3882(2) 0.34623(14) 0.1697(3)
H19 H 0.138(3) 0.605(2) 0.125(3)
H20 H 0.252(3) 0.635(2) 0.405(4)
Zn4 Zn 0.94551(2) 0.775546(17) 0.09208(4)
N3 N 0.6271(2) 0.26821(15) 0.6254(4)
O9 O 0.3778(2) 0.20682(16) 0.1462(3)
O10 O 0.6222(2) 0.20682(16) 0.3538(3)
O11 O 0.4598(2) 0.20668(16) 0.3816(3)
O12 O 0.5402(2) 0.20668(16) 0.1184(3)
C6 C 0.7480(4) 0.2233(2) 0.8262(5)
H4 H 0.7981 0.1970 0.8593
C7 C 0.6983(4) 0.2314(2) 0.6818(5)
H5 H 0.7161 0.2094 0.6199
C8 C 0.6065(4) 0.3010(4) 0.7172(5)
H6 H 0.5586 0.3296 0.6812
C9 C 0.6520(4) 0.2949(4) 0.8616(6)
H7 H 0.6340 0.3190 0.9207
C11 C 0.7236(3) 0.2541(2) 0.9219(4)
C4_2 C 0.2586(4) 0.0091(4) 0.3007(6)
H2_2 H 0.3114 0.0198 0.3784
C10_2 C 0.1480(5) 0.0287(4) 0.0790(8)
C12_2 C 0.2266(3) 0.0481(3) 0.1811(5)
C13_2 C 0.2757(3) 0.1060(2) 0.1745(5)
C14_2 C 0.3471(3) 0.1280(2) 0.2840(4)
C15_2 C 0.3988(3) 0.18527(19) 0.2689(4)
H9_2 H 0.362(3) 0.105(2) 0.375(3)
H10_2 H 0.248(3) 0.135(2) 0.095(4)
O1_2 O 0.02931(18) 0.84786(14) 0.0922(3)
C1_2 C 0.0889(2) 0.87038(18) 0.2069(4)
C2_2 C 0.1365(3) 0.9305(2) 0.1940(5)
C3_2 C 0.2109(4) 0.9523(3) 0.3054(6)
H1_2 H 0.2319 0.9285 0.3903
C5_2 C 0.1027(5) 0.9718(4) 0.0822(9)
H3_2 H 0.0485 0.9623 0.0062
O4_2 O 0.1118(2) 0.84623(14) 0.3303(3)
N3_2 N 0.1271(2) 0.76821(15) 0.6254(4)
C24_2 C 0.7414(4) 0.0091(4) 0.1993(6)
H16_2 H 0.6886 0.0198 0.1216
C26_2 C 0.8520(5) 0.0287(4) 0.4210(8)
H18_2 H 0.8786 0.0557 0.5007
C27_2 C 0.7734(3) 0.0481(3) 0.3189(5)
C28_2 C 0.7243(3) 0.1060(2) 0.3255(5)
C29_2 C 0.6529(3) 0.1280(2) 0.2160(4)
C30_2 C 0.6012(3) 0.18527(19) 0.2311(4)
H19_2 H 0.638(3) 0.105(2) 0.125(3)
H20_2 H 0.752(3) 0.135(2) 0.405(4)
O5_2 O 0.97069(18) 0.84786(14) 0.4078(3)
C21_2 C 0.9111(2) 0.87038(18) 0.2931(4)
C22_2 C 0.8635(3) 0.9305(2) 0.3060(5)
C23_2 C 0.7891(4) 0.9523(3) 0.1946(6)
H15_2 H 0.7681 0.9285 0.1097
C25_2 C 0.8973(5) 0.9718(4) 0.4178(9)
H17_2 H 0.9515 0.9623 0.4938
O8_2 O 0.8882(2) 0.84623(14) 0.1697(3)
C6_2 C 0.2480(4) 0.7233(2) 0.8262(5)
H4_2 H 0.2981 0.6970 0.8593
C7_2 C 0.1983(4) 0.7314(2) 0.6818(5)
H5_2 H 0.2161 0.7094 0.6199
C8_2 C 0.1065(4) 0.8010(4) 0.7172(5)
H6_2 H 0.0586 0.8296 0.6812
C9_2 C 0.1520(4) 0.7949(4) 0.8616(6)
H7_2 H 0.1340 0.8190 0.9207
C11_2 C 0.2236(3) 0.7541(2) 0.9219(4)
N1 N 0.3729(2) 0.26821(15) 0.8746(4)
C6_3 C 0.2520(4) 0.2233(2) 0.6738(5)
H4_3 H 0.2019 0.1970 0.6407
C7_3 C 0.3017(4) 0.2314(2) 0.8182(5)
H5_3 H 0.2839 0.2094 0.8801
C8_3 C 0.3935(4) 0.3010(4) 0.7828(5)
H6_3 H 0.4414 0.3296 0.8188
C9_3 C 0.3480(4) 0.2949(4) 0.6384(6)
H7_3 H 0.3660 0.3190 0.5793
H8 H 0.6214 0.5557 0.9993
C11_3 C 0.2764(3) 0.2541(2) 0.5781(4)
N2 N 0.1271(2) 0.23179(15) 0.1254(4)
C16 C 0.2480(4) 0.2767(2) 0.3262(5)
H11 H 0.2981 0.3030 0.3593
C17 C 0.1983(4) 0.2686(2) 0.1818(5)
H12 H 0.2161 0.2906 0.1199
C18 C 0.1065(4) 0.1990(4) 0.2172(5)
H13 H 0.0586 0.1704 0.1812
C19 C 0.1520(4) 0.2051(4) 0.3616(6)
H14 H 0.1340 0.1810 0.4207
C20 C 0.2236(3) 0.2459(2) 0.4219(4)
Zn7 Zn 0.05449(2) 0.224454(17) 0.90792(4)
N2_2 N 0.8729(2) 0.23179(15) 0.3746(4)
C16_2 C 0.7520(4) 0.2767(2) 0.1738(5)
H11_2 H 0.7019 0.3030 0.1407
C17_2 C 0.8017(4) 0.2686(2) 0.3182(5)
H12_2 H 0.7839 0.2906 0.3801
C18_2 C 0.8935(4) 0.1990(4) 0.2828(5)
H13_2 H 0.9414 0.1704 0.3188
C19_2 C 0.8480(4) 0.2051(4) 0.1384(6)
H14_2 H 0.8660 0.1810 0.0793
C20_2 C 0.7764(3) 0.2459(2) 0.0781(4)
Zn7_2 Zn 0.94551(2) 0.224454(17) 0.59208(4)
Zn7_3 Zn 0.55449(2) 0.724454(17) 0.90792(4)
N2_3 N 0.3729(2) 0.73179(15) 0.3746(4)
C16_3 C 0.2520(4) 0.7767(2) 0.1738(5)
H11_3 H 0.2019 0.8030 0.1407
C17_3 C 0.3017(4) 0.7686(2) 0.3182(5)
H12_3 H 0.2839 0.7906 0.3801
C18_3 C 0.3935(4) 0.6990(4) 0.2828(5)
H13_3 H 0.4414 0.6704 0.3188
C19_3 C 0.3480(4) 0.7051(4) 0.1384(6)
H14_3 H 0.3660 0.6810 0.0793
C20_3 C 0.2764(3) 0.7459(2) 0.0781(4)
Zn7_4 Zn 0.44551(2) 0.724454(17) 0.59208(4)
O1_3 O 0.47069(18) 0.65214(14) 0.9078(3)
C1_3 C 0.4111(2) 0.62962(18) 0.7931(4)
C2_3 C 0.3635(3) 0.5695(2) 0.8060(5)
C3_3 C 0.2891(4) 0.5477(3) 0.6946(6)
H1_3 H 0.2681 0.5715 0.6097
C4_3 C 0.2414(4) 0.4909(4) 0.6993(6)
H2_3 H 0.1886 0.4802 0.6216
C5_3 C 0.3973(5) 0.5282(4) 0.9178(9)
H3_3 H 0.4515 0.5377 0.9938
C10_3 C 0.3520(5) 0.4713(4) 0.9210(8)
C12_3 C 0.2734(3) 0.4519(3) 0.8189(5)
C13_3 C 0.2243(3) 0.3940(2) 0.8255(5)
C14_3 C 0.1529(3) 0.3720(2) 0.7160(4)
C15_3 C 0.1012(3) 0.31473(19) 0.7311(4)
O2_2 O 0.1222(2) 0.29318(16) 0.8538(3)
O3_2 O 0.0402(2) 0.29332(16) 0.6184(3)
O4_3 O 0.3882(2) 0.65377(14) 0.6697(3)
H9_3 H 0.138(3) 0.395(2) 0.625(3)
H10_3 H 0.252(3) 0.365(2) 0.905(4)
O5_3 O 0.52931(18) 0.65214(14) 0.5922(3)
C21_3 C 0.5889(2) 0.62962(18) 0.7069(4)
C22_3 C 0.6365(3) 0.5695(2) 0.6940(5)
C23_3 C 0.7109(4) 0.5477(3) 0.8054(6)
H15_3 H 0.7319 0.5715 0.8903
C24_3 C 0.7586(4) 0.4909(4) 0.8007(6)
H16_3 H 0.8114 0.4802 0.8784
C25_3 C 0.6027(5) 0.5282(4) 0.5822(9)
H17_3 H 0.5485 0.5377 0.5062
C26_3 C 0.6480(5) 0.4713(4) 0.5790(8)
H18_3 H 0.6214 0.4443 0.4993
C27_3 C 0.7266(3) 0.4519(3) 0.6811(5)
C28_3 C 0.7757(3) 0.3940(2) 0.6745(5)
C29_3 C 0.8471(3) 0.3720(2) 0.7840(4)
C30_3 C 0.8988(3) 0.31473(19) 0.7689(4)
O6_2 O 0.8778(2) 0.29318(16) 0.6462(3)
O7_2 O 0.9598(2) 0.29332(16) 0.8816(3)
O8_3 O 0.6118(2) 0.65377(14) 0.8303(3)
H19_3 H 0.862(3) 0.395(2) 0.875(3)
H20_3 H 0.748(3) 0.365(2) 0.595(4)
O9_2 O 0.6222(2) 0.79318(16) 0.8538(3)
O10_2 O 0.3778(2) 0.79318(16) 0.6462(3)
O11_2 O 0.5402(2) 0.79332(16) 0.6184(3)
O12_2 O 0.4598(2) 0.79332(16) 0.8816(3)
O5_4 O 0.02931(18) 0.15214(14) 0.5922(3)
C21_4 C 0.0889(2) 0.12962(18) 0.7069(4)
C22_4 C 0.1365(3) 0.0695(2) 0.6940(5)
C23_4 C 0.2109(4) 0.0477(3) 0.8054(6)
H15_4 H 0.2319 0.0715 0.8903
C25_4 C 0.1027(5) 0.0282(4) 0.5822(9)
H17_4 H 0.0485 0.0377 0.5062
O8_4 O 0.1118(2) 0.15377(14) 0.8303(3)
C24_4 C 0.2586(4) 0.9909(4) 0.8007(6)
H16_4 H 0.3114 0.9802 0.8784
C26_4 C 0.1480(5) 0.9713(4) 0.5790(8)
H18_4 H 0.1214 0.9443 0.4993
C27_4 C 0.2266(3) 0.9519(3) 0.6811(5)
C28_4 C 0.2757(3) 0.8940(2) 0.6745(5)
C29_4 C 0.3471(3) 0.8720(2) 0.7840(4)
C30_4 C 0.3988(3) 0.81473(19) 0.7689(4)
H19_4 H 0.362(3) 0.895(2) 0.875(3)
H20_4 H 0.248(3) 0.865(2) 0.595(4)
O1_4 O 0.97069(18) 0.15214(14) 0.9078(3)
C1_4 C 0.9111(2) 0.12962(18) 0.7931(4)
C2_4 C 0.8635(3) 0.0695(2) 0.8060(5)
C3_4 C 0.7891(4) 0.0477(3) 0.6946(6)
H1_4 H 0.7681 0.0715 0.6097
C5_4 C 0.8973(5) 0.0282(4) 0.9178(9)
H3_4 H 0.9515 0.0377 0.9938
O4_4 O 0.8882(2) 0.15377(14) 0.6697(3)
C4_4 C 0.7414(4) 0.9909(4) 0.6993(6)
H2_4 H 0.6886 0.9802 0.6216
C10_4 C 0.8520(5) 0.9713(4) 0.9210(8)
C12_4 C 0.7734(3) 0.9519(3) 0.8189(5)
C13_4 C 0.7243(3) 0.8940(2) 0.8255(5)
C14_4 C 0.6529(3) 0.8720(2) 0.7160(4)
C15_4 C 0.6012(3) 0.81473(19) 0.7311(4)
H9_4 H 0.638(3) 0.895(2) 0.625(3)
H10_4 H 0.752(3) 0.865(2) 0.905(4)
H8_2 H 0.1214 0.0557 0.9993
N1_2 N 0.8729(2) 0.76821(15) 0.8746(4)
C6_4 C 0.7520(4) 0.7233(2) 0.6738(5)
H4_4 H 0.7019 0.6970 0.6407
C7_4 C 0.8017(4) 0.7314(2) 0.8182(5)
H5_4 H 0.7839 0.7094 0.8801
C8_4 C 0.8935(4) 0.8010(4) 0.7828(5)
H6_4 H 0.9414 0.8296 0.8188
C9_4 C 0.8480(4) 0.7949(4) 0.6384(6)
H7_4 H 0.8660 0.8190 0.5793
C11_4 C 0.7764(3) 0.7541(2) 0.5781(4)
N2_4 N 0.6271(2) 0.73179(15) 0.1254(4)
C16_4 C 0.7480(4) 0.7767(2) 0.3262(5)
H11_4 H 0.7981 0.8030 0.3593
C17_4 C 0.6983(4) 0.7686(2) 0.1818(5)
H12_4 H 0.7161 0.7906 0.1199
C18_4 C 0.6065(4) 0.6990(4) 0.2172(5)
H13_4 H 0.5586 0.6704 0.1812
C19_4 C 0.6520(4) 0.7051(4) 0.3616(6)
H14_4 H 0.6340 0.6810 0.4207
C20_4 C 0.7236(3) 0.7459(2) 0.4219(4)
H8_3 H 0.3786 0.4443 0.0007
H8_4 H 0.8786 0.9443 0.0007
loop_
_geom_bond_atom_site_label_1
_geom_bond_atom_site_label_2
_geom_bond_site_symmetry_1
_geom_bond_site_symmetry_2
Zn1 O1 1_555 1_555
O1 C1 1_555 1_555
C1 C2 1_555 1_555
C2 C3 1_555 1_555
C3 H1 1_555 1_555
C4 C3 1_555 1_555
H2 C4 1_555 1_555
C5 C2 1_555 1_555
H3 C5 1_555 1_555
C10 C5 1_555 1_555
C12 C4 1_555 1_555
C13 C12 1_555 1_555
C14 C13 1_555 1_555
C15 C14 1_555 1_555
O2 C15 1_555 1_555
O3 C15 1_555 1_555
O4 C1 1_555 1_555
H9 C14 1_555 1_555
H10 C13 1_555 1_555
Zn2 O4 1_555 1_555
O5 Zn2 1_555 1_555
C21 O5 1_555 1_555
C22 C21 1_555 1_555
C23 C22 1_555 1_555
H15 C23 1_555 1_555
C24 C23 1_555 1_555
H16 C24 1_555 1_555
C25 C22 1_555 1_555
H17 C25 1_555 1_555
C26 C25 1_555 1_555
H18 C26 1_555 1_555
C27 C24 1_555 1_555
C28 C27 1_555 1_555
C29 C28 1_555 1_555
C30 C29 1_555 1_555
O6 C30 1_555 1_555
O7 C30 1_555 1_555
O8 Zn1 1_555 1_555
H19 C29 1_555 1_555
H20 C28 1_555 1_555
Zn4 O2 1_555 1_555
Zn6 O6 1_555 1_555
N3 Zn2 1_555 1_555
O9 Zn1 1_555 1_555
O10 Zn2 1_555 1_555
O11 Zn2 1_555 1_555
O12 Zn1 1_555 1_555
C10 C12 1_555 1_555
C21 O8 1_555 1_555
C26 C27 1_555 1_555
C6 H4 1_555 1_555
C7 N3 1_555 1_555
H5 C7 1_555 1_555
C8 N3 1_555 1_555
H6 C8 1_555 1_555
C9 C8 1_555 1_555
H7 C9 1_555 1_555
C11 C6 1_555 1_555
C6 C7 1_555 1_555
C9 C11 1_555 1_555
H2_2 C4_2 1_555 1_555
C12_2 C4_2 1_555 1_555
C13_2 C12_2 1_555 1_555
C14_2 C13_2 1_555 1_555
C15_2 C14_2 1_555 1_555
O9 C15_2 1_555 1_555
O11 C15_2 1_555 1_555
H9_2 C14_2 1_555 1_555
H10_2 C13_2 1_555 1_555
C10_2 C12_2 1_555 1_555
O1_2 C1_2 1_555 1_555
C1_2 C2_2 1_555 1_555
C2_2 C3_2 1_555 1_555
C3_2 H1_2 1_555 1_555
C5_2 C2_2 1_555 1_555
H3_2 C5_2 1_555 1_555
O4_2 C1_2 1_555 1_555
Zn6 O4_2 1_555 1_555
N3_2 Zn6 1_555 1_555
H16_2 C24_2 1_555 1_555
H18_2 C26_2 1_555 1_555
C27_2 C24_2 1_555 1_555
C28_2 C27_2 1_555 1_555
C29_2 C28_2 1_555 1_555
C30_2 C29_2 1_555 1_555
O10 C30_2 1_555 1_555
O12 C30_2 1_555 1_555
H19_2 C29_2 1_555 1_555
H20_2 C28_2 1_555 1_555
C26_2 C27_2 1_555 1_555
C21_2 O5_2 1_555 1_555
C22_2 C21_2 1_555 1_555
C23_2 C22_2 1_555 1_555
H15_2 C23_2 1_555 1_555
C25_2 C22_2 1_555 1_555
H17_2 C25_2 1_555 1_555
O8_2 Zn4 1_555 1_555
C21_2 O8_2 1_555 1_555
C6_2 H4_2 1_555 1_555
C7_2 N3_2 1_555 1_555
H5_2 C7_2 1_555 1_555
C8_2 N3_2 1_555 1_555
H6_2 C8_2 1_555 1_555
C9_2 C8_2 1_555 1_555
H7_2 C9_2 1_555 1_555
C11_2 C6_2 1_555 1_555
C6_2 C7_2 1_555 1_555
C9_2 C11_2 1_555 1_555
C6_3 H4_3 1_555 1_555
C7_3 N1 1_555 1_555
H5_3 C7_3 1_555 1_555
C8_3 N1 1_555 1_555
H6_3 C8_3 1_555 1_555
C9_3 C8_3 1_555 1_555
H7_3 C9_3 1_555 1_555
C11_3 C6_3 1_555 1_555
N2 C17 1_555 1_555
C16 H11 1_555 1_555
C17 C16 1_555 1_555
H12 C17 1_555 1_555
C18 N2 1_555 1_555
H13 C18 1_555 1_555
C19 C18 1_555 1_555
H14 C19 1_555 1_555
C20 C11_3 1_555 1_555
C6_3 C7_3 1_555 1_555
C9_3 C11_3 1_555 1_555
C16 C20 1_555 1_555
C19 C20 1_555 1_555
N2_2 C17_2 1_555 1_555
C16_2 H11_2 1_555 1_555
C17_2 C16_2 1_555 1_555
H12_2 C17_2 1_555 1_555
C18_2 N2_2 1_555 1_555
H13_2 C18_2 1_555 1_555
C19_2 C18_2 1_555 1_555
H14_2 C19_2 1_555 1_555
Zn7_2 N2_2 1_555 1_555
C16_2 C20_2 1_555 1_555
C19_2 C20_2 1_555 1_555
N2_3 C17_3 1_555 1_555
C16_3 H11_3 1_555 1_555
C17_3 C16_3 1_555 1_555
H12_3 C17_3 1_555 1_555
C18_3 N2_3 1_555 1_555
H13_3 C18_3 1_555 1_555
C19_3 C18_3 1_555 1_555
H14_3 C19_3 1_555 1_555
Zn7_4 N2_3 1_555 1_555
C16_3 C20_3 1_555 1_555
C19_3 C20_3 1_555 1_555
Zn7_3 O1_3 1_555 1_555
O1_3 C1_3 1_555 1_555
C1_3 C2_3 1_555 1_555
C2_3 C3_3 1_555 1_555
C3_3 H1_3 1_555 1_555
C4_3 C3_3 1_555 1_555
H2_3 C4_3 1_555 1_555
C5_3 C2_3 1_555 1_555
H3_3 C5_3 1_555 1_555
C10_3 C5_3 1_555 1_555
C12_3 C4_3 1_555 1_555
C13_3 C12_3 1_555 1_555
C14_3 C13_3 1_555 1_555
C15_3 C14_3 1_555 1_555
O2_2 C15_3 1_555 1_555
O3_2 C15_3 1_555 1_555
O4_3 C1_3 1_555 1_555
H9_3 C14_3 1_555 1_555
H10_3 C13_3 1_555 1_555
Zn7_4 O4_3 1_555 1_555
O5_3 Zn7_4 1_555 1_555
C21_3 O5_3 1_555 1_555
C22_3 C21_3 1_555 1_555
C23_3 C22_3 1_555 1_555
H15_3 C23_3 1_555 1_555
C24_3 C23_3 1_555 1_555
H16_3 C24_3 1_555 1_555
C25_3 C22_3 1_555 1_555
H17_3 C25_3 1_555 1_555
C26_3 C25_3 1_555 1_555
H18_3 C26_3 1_555 1_555
C27_3 C24_3 1_555 1_555
C28_3 C27_3 1_555 1_555
C29_3 C28_3 1_555 1_555
C30_3 C29_3 1_555 1_555
O6_2 C30_3 1_555 1_555
O7_2 C30_3 1_555 1_555
O8_3 Zn7_3 1_555 1_555
H19_3 C29_3 1_555 1_555
H20_3 C28_3 1_555 1_555
Zn7 O2_2 1_555 1_555
Zn7_2 O6_2 1_555 1_555
O9_2 Zn7_3 1_555 1_555
O10_2 Zn7_4 1_555 1_555
O11_2 Zn7_4 1_555 1_555
O12_2 Zn7_3 1_555 1_555
C10_3 C12_3 1_555 1_555
C21_3 O8_3 1_555 1_555
C26_3 C27_3 1_555 1_555
C21_4 O5_4 1_555 1_555
C22_4 C21_4 1_555 1_555
C23_4 C22_4 1_555 1_555
H15_4 C23_4 1_555 1_555
C25_4 C22_4 1_555 1_555
H17_4 C25_4 1_555 1_555
O8_4 Zn7 1_555 1_555
C21_4 O8_4 1_555 1_555
H16_4 C24_4 1_555 1_555
H18_4 C26_4 1_555 1_555
C27_4 C24_4 1_555 1_555
C28_4 C27_4 1_555 1_555
C29_4 C28_4 1_555 1_555
C30_4 C29_4 1_555 1_555
O10_2 C30_4 1_555 1_555
O12_2 C30_4 1_555 1_555
H19_4 C29_4 1_555 1_555
H20_4 C28_4 1_555 1_555
C26_4 C27_4 1_555 1_555
O1_4 C1_4 1_555 1_555
C1_4 C2_4 1_555 1_555
C2_4 C3_4 1_555 1_555
C3_4 H1_4 1_555 1_555
C5_4 C2_4 1_555 1_555
H3_4 C5_4 1_555 1_555
O4_4 C1_4 1_555 1_555
Zn7_2 O4_4 1_555 1_555
H2_4 C4_4 1_555 1_555
C12_4 C4_4 1_555 1_555
C13_4 C12_4 1_555 1_555
C14_4 C13_4 1_555 1_555
C15_4 C14_4 1_555 1_555
O9_2 C15_4 1_555 1_555
O11_2 C15_4 1_555 1_555
H9_4 C14_4 1_555 1_555
H10_4 C13_4 1_555 1_555
C10_4 C12_4 1_555 1_555
C6_4 H4_4 1_555 1_555
C7_4 N1_2 1_555 1_555
H5_4 C7_4 1_555 1_555
C8_4 N1_2 1_555 1_555
H6_4 C8_4 1_555 1_555
C9_4 C8_4 1_555 1_555
H7_4 C9_4 1_555 1_555
C11_4 C6_4 1_555 1_555
N2_4 C17_4 1_555 1_555
C16_4 H11_4 1_555 1_555
C17_4 C16_4 1_555 1_555
H12_4 C17_4 1_555 1_555
C18_4 N2_4 1_555 1_555
H13_4 C18_4 1_555 1_555
C19_4 C18_4 1_555 1_555
H14_4 C19_4 1_555 1_555
C20_4 C11_4 1_555 1_555
C6_4 C7_4 1_555 1_555
C9_4 C11_4 1_555 1_555
C16_4 C20_4 1_555 1_555
C19_4 C20_4 1_555 1_555

#END
