
###############################################################################
#
# This file contains modified crystal structure data generated from the
# MOF subset of the Cambridge Structural Database (CSD) v543 
# hosted by the Cambridge Crystallographic Data Centre (CCDC).
#
# This work is licensed under the Creative Commons
# Attribution-NonCommercial-ShareAlike 4.0 International License.
# To view a copy of this license, visit
# http://creativecommons.org/licenses/by-nc-sa/4.0/
# or send a letter to
# Creative Commons, PO Box 1866, Mountain View, CA 94042, USA.
#
# CIF created using the CSD Python API on 29 September 2022
# The structure has been converted into the P1 space group
# The structure has a 3D framework
# The original CSD entry DIXKOL is in the triclinic crystal system
# The framework has been calculated to contain at least 10.0% void space
# The void calculation uses a probe of radius 1.32A, grid spacing 0.4
# H atom positions have been added when not included in the experimental data
#
###############################################################################

data_DIXKOL
_chemical_formula_moiety         '(C28 H18 Co4 N4 O20)n'
_symmetry_cell_setting           triclinic
_symmetry_space_group_name_H-M   'P 1'
_symmetry_Int_Tables_number      1
_space_group_name_Hall           'P 1'
loop_
_symmetry_equiv_pos_site_id
_symmetry_equiv_pos_as_xyz
1 x,y,z
_cell_length_a                   11.1575(8)
_cell_length_b                   11.2606(8)
_cell_length_c                   11.4240(9)
_cell_angle_alpha                76.7620(10)
_cell_angle_beta                 65.8140(10)
_cell_angle_gamma                80.6800(10)
_cell_volume                     1270.77
loop_
_atom_site_label
_atom_site_type_symbol
_atom_site_fract_x
_atom_site_fract_y
_atom_site_fract_z
O13 O 0.02686(15) 0.19396(12) 0.11854(13)
O17 O 0.04948(12) 0.47010(11) 0.09374(12)
H9 H 0.1268 0.4761 0.0781
Co1 Co 0.10282(2) 0.39292(2) 0.49932(2)
Co2 Co 0.02916(2) 0.57180(2) 0.71023(2)
O1 O 0.03904(14) 0.38043(11) 0.70146(12)
O5 O 0.15894(13) 0.40662(13) 0.30093(12)
O6 O 0.32358(15) 0.43219(17) 0.10489(13)
O7 O 0.79104(13) 0.35872(13) 0.13605(13)
O8 O 0.77736(13) 0.44887(13) 0.29853(13)
O11 O 0.19388(15) 0.32915(14) 0.87197(14)
N1 N 0.09289(16) 0.20295(14) 0.57214(15)
N2 N 0.31226(16) 0.37644(14) 0.42741(15)
C1 C 0.00346(19) 0.27884(17) 0.77458(18)
C2 C 0.03406(19) 0.17282(17) 0.70372(18)
C3 C 0.0090(2) 0.05381(17) 0.76818(18)
C6 C 0.1297(2) 0.11353(18) 0.50273(18)
H5 H 0.1729 0.1335 0.4105
C8 C 0.2804(2) 0.41387(19) 0.22474(19)
C9 C 0.37248(19) 0.39606(18) 0.29585(18)
C10 C 0.5068(2) 0.40140(19) 0.23157(19)
H6 H 0.5465 0.4142 0.1390
C11 C 0.58373(19) 0.38769(18) 0.30505(19)
C12 C 0.5218(2) 0.36624(19) 0.44043(19)
H7 H 0.5716 0.3558 0.4929
C13 C 0.3867(2) 0.36027(19) 0.49749(19)
H8 H 0.3451 0.3441 0.5900
C14 C 0.73019(19) 0.39787(17) 0.24035(18)
Co7 Co 0.97084(2) 0.42820(2) 0.28977(2)
Co9 Co 0.99282(2) 0.35928(2) 0.00867(2)
Co10 Co 0.00718(2) 0.64072(2) 0.99133(2)
O12 O 0.03856(15) 0.75767(12) 0.68297(13)
O16 O 0.22264(13) 0.55113(13) 0.70147(13)
O18 O 0.08278(12) 0.57580(11) 0.51164(11)
H10 H 0.1466 0.6275 0.4610
H11 H 0.200721 0.366358 0.782028
H12 H 0.25428 0.367422 0.894007
C4 C 0.04506(19) 0.96152(17) 0.69473(18)
C5 C 0.1071(2) 0.99169(18) 0.56071(19)
H4 H 0.1341 0.9300 0.5086
C7 C 0.01670(19) 0.83084(17) 0.75850(18)
O2 O 0.95006(14) 0.25945(12) 0.89608(12)
O9 O 0.95052(12) 0.52990(11) 0.90626(12)
H1 H 0.8732 0.5239 0.9219
O10 O 0.91722(12) 0.42420(11) 0.48836(11)
H2 H 0.8534 0.3725 0.5390
H3 H 0.9681 0.0356 0.8607
Co4 Co 0.89718(2) 0.60708(2) 0.50068(2)
O14 O 0.84106(13) 0.59338(13) 0.69907(12)
O4 O 0.97314(15) 0.80604(12) 0.88146(13)
O2_2 O 0.04994(14) 0.74055(12) 0.10392(12)
H3_2 H 0.0319 0.9644 0.1393
O15 O 0.20896(13) 0.64128(13) 0.86395(13)
O3 O 0.96144(15) 0.24233(12) 0.31703(13)
C4_2 C 0.95494(19) 0.03848(17) 0.30527(18)
C5_2 C 0.8929(2) 0.00831(18) 0.43929(19)
H4_2 H 0.8659 0.0700 0.4914
C7_2 C 0.98330(19) 0.16916(17) 0.24150(18)
O1_2 O 0.96096(14) 0.61957(11) 0.29854(12)
O6_2 O 0.67642(15) 0.56781(17) 0.89511(13)
O11_2 O 0.80612(15) 0.67085(14) 0.12803(14)
N1_2 N 0.90711(16) 0.79705(14) 0.42786(15)
N2_2 N 0.68774(16) 0.62356(14) 0.57259(15)
C1_2 C 0.99654(19) 0.72116(17) 0.22542(18)
C2_2 C 0.96594(19) 0.82718(17) 0.29628(18)
C3_2 C 0.9910(2) 0.94619(17) 0.23182(18)
C6_2 C 0.8703(2) 0.88647(18) 0.49727(18)
H5_2 H 0.8271 0.8665 0.5895
C8_2 C 0.7196(2) 0.58613(19) 0.77526(19)
C9_2 C 0.62752(19) 0.60394(18) 0.70415(18)
C10_2 C 0.4932(2) 0.59860(19) 0.76843(19)
H6_2 H 0.4535 0.5858 0.8610
C11_2 C 0.41627(19) 0.61231(18) 0.69495(19)
C12_2 C 0.4782(2) 0.63376(19) 0.55957(19)
H7_2 H 0.4284 0.6442 0.5071
C13_2 C 0.6133(2) 0.63973(19) 0.50251(19)
H8_2 H 0.6549 0.6559 0.4100
C14_2 C 0.26981(19) 0.60213(17) 0.75965(18)
H11_2 H 0.799279 0.633642 0.217972
H12_2 H 0.74572 0.632578 0.105993
loop_
_geom_bond_atom_site_label_1
_geom_bond_atom_site_label_2
_geom_bond_site_symmetry_1
_geom_bond_site_symmetry_2
H9 O17 1_555 1_555
Co1 O1 1_555 1_555
Co2 O1 1_555 1_555
O1 C1 1_555 1_555
O5 Co1 1_555 1_555
O6 C8 1_555 1_555
O7 C14 1_555 1_555
O8 C14 1_555 1_555
N1 Co1 1_555 1_555
N2 Co1 1_555 1_555
C1 C2 1_555 1_555
C2 N1 1_555 1_555
C3 C2 1_555 1_555
C6 N1 1_555 1_555
H5 C6 1_555 1_555
C8 O5 1_555 1_555
C9 N2 1_555 1_555
C10 C9 1_555 1_555
H6 C10 1_555 1_555
C11 C10 1_555 1_555
C12 C11 1_555 1_555
H7 C12 1_555 1_555
C13 N2 1_555 1_555
H8 C13 1_555 1_555
C14 C11 1_555 1_555
Co7 O8 1_555 1_555
Co9 O7 1_555 1_555
O12 Co2 1_555 1_555
O16 Co2 1_555 1_555
O18 Co1 1_555 1_555
H10 O18 1_555 1_555
Co2 O18 1_555 1_555
C8 C9 1_555 1_555
C12 C13 1_555 1_555
O11 H11 1_555 1_555
O11 H12 1_555 1_555
O12 C7 1_555 1_555
C5 C4 1_555 1_555
H4 C5 1_555 1_555
C7 C4 1_555 1_555
H1 O9 1_555 1_555
H2 O10 1_555 1_555
Co4 O10 1_555 1_555
O10 Co7 1_555 1_555
Co4 O14 1_555 1_555
O15 Co10 1_555 1_555
O3 C7_2 1_555 1_555
C5_2 C4_2 1_555 1_555
H4_2 C5_2 1_555 1_555
C7_2 C4_2 1_555 1_555
Co7 O3 1_555 1_555
Co4 O1_2 1_555 1_555
Co7 O1_2 1_555 1_555
O1_2 C1_2 1_555 1_555
O6_2 C8_2 1_555 1_555
O15 C14_2 1_555 1_555
O16 C14_2 1_555 1_555
N1_2 Co4 1_555 1_555
N2_2 Co4 1_555 1_555
C1_2 C2_2 1_555 1_555
C2_2 N1_2 1_555 1_555
C3_2 C2_2 1_555 1_555
C6_2 N1_2 1_555 1_555
H5_2 C6_2 1_555 1_555
C8_2 O14 1_555 1_555
C9_2 N2_2 1_555 1_555
C10_2 C9_2 1_555 1_555
H6_2 C10_2 1_555 1_555
C11_2 C10_2 1_555 1_555
C12_2 C11_2 1_555 1_555
H7_2 C12_2 1_555 1_555
C13_2 N2_2 1_555 1_555
H8_2 C13_2 1_555 1_555
C14_2 C11_2 1_555 1_555
C8_2 C9_2 1_555 1_555
C12_2 C13_2 1_555 1_555
O11_2 H11_2 1_555 1_555
O11_2 H12_2 1_555 1_555

#END
