
###############################################################################
#
# This file contains modified crystal structure data generated from the
# MOF subset of the Cambridge Structural Database (CSD) v543 
# hosted by the Cambridge Crystallographic Data Centre (CCDC).
#
# This work is licensed under the Creative Commons
# Attribution-NonCommercial-ShareAlike 4.0 International License.
# To view a copy of this license, visit
# http://creativecommons.org/licenses/by-nc-sa/4.0/
# or send a letter to
# Creative Commons, PO Box 1866, Mountain View, CA 94042, USA.
#
# CIF created using the CSD Python API on 29 September 2022
# The structure has been converted into the P1 space group
# The structure has a 3D framework
# The original CSD entry DIYTEM is in the monoclinic crystal system
# The framework has been calculated to contain at least 10.0% void space
# The void calculation uses a probe of radius 1.32A, grid spacing 0.4
#
###############################################################################

data_DIYTEM
_chemical_formula_moiety         '(C124 H80 Cd8 N24 O36)n'
_symmetry_cell_setting           triclinic
_symmetry_space_group_name_H-M   'P 1'
_symmetry_Int_Tables_number      1
_space_group_name_Hall           'P 1'
loop_
_symmetry_equiv_pos_site_id
_symmetry_equiv_pos_as_xyz
1 x,y,z
_cell_length_a                   13.3294(17)
_cell_length_b                   16.202(2)
_cell_length_c                   20.283(3)
_cell_angle_alpha                90
_cell_angle_beta                 99.496(2)
_cell_angle_gamma                90
_cell_volume                     4320.35
loop_
_atom_site_label
_atom_site_type_symbol
_atom_site_fract_x
_atom_site_fract_y
_atom_site_fract_z
Cd4 Cd 0.32432(3) 0.00194(3) 0.85787(2)
Cd1 Cd 0.32432(3) 0.49806(3) 0.35787(2)
Cd2 Cd 0.03022(5) 0.30156(6) 0.73516(3)
O1 O 0.1426(3) 0.4638(4) 0.3419(2)
O2 O 0.2411(3) 0.4479(3) 0.4382(2)
O3 O 0.1010(4) 0.3641(4) 0.6410(3)
H1 H 0.0142 0.4434 0.7950
N1 N 0.3368(4) 0.6266(4) 0.3999(3)
N2 N 0.3774(4) 0.7269(4) 0.4703(2)
N3 N 0.6852(4) 0.7975(4) 0.6204(3)
N4 N 0.8390(4) 0.8011(5) 0.6803(3)
N5 N 0.3609(4) 0.9018(4) 0.6628(3)
N6 N 0.3138(4) 0.9569(4) 0.7517(3)
C1 C 0.0655(4) 0.4178(4) 0.4343(3)
C2 C 0.0802(5) 0.4030(5) 0.5025(3)
H3 H 0.1441 0.4117 0.5279
C3 C 0.0014(5) 0.3754(5) 0.5334(3)
C13 C 0.1531(4) 0.4451(4) 0.4016(3)
C14 C 0.0197(6) 0.3517(6) 0.6055(4)
C17 C 0.3969(5) 0.6492(5) 0.4552(3)
H9 H 0.4458 0.6158 0.4800
C18 C 0.2770(5) 0.6931(5) 0.3798(3)
H10 H 0.2265 0.6943 0.3422
C19 C 0.3011(5) 0.7564(5) 0.4218(3)
H11 H 0.2725 0.8089 0.4189
C20 C 0.4276(5) 0.7714(4) 0.5284(3)
C21 C 0.5309(5) 0.7635(4) 0.5448(3)
H12 H 0.5680 0.7324 0.5188
C22 C 0.5782(5) 0.8041(5) 0.6024(3)
C23 C 0.5235(5) 0.8502(5) 0.6417(3)
H13 H 0.5559 0.8765 0.6801
C24 C 0.4187(5) 0.8562(4) 0.6220(3)
C25 C 0.3694(5) 0.8175(5) 0.5657(3)
H14 H 0.2993 0.8220 0.5529
C26 C 0.7522(6) 0.7779(7) 0.5791(5)
H15 H 0.7367 0.7660 0.5337
C27 C 0.8461(6) 0.7791(7) 0.6169(5)
H16 H 0.9064 0.7667 0.6016
C28 C 0.7429(6) 0.8124(7) 0.6789(4)
H17 H 0.7160 0.8296 0.7161
C29 C 0.3852(5) 0.9165(5) 0.7277(4)
H18 H 0.4461 0.8999 0.7535
C30 C 0.2379(6) 0.9662(7) 0.6968(4)
H19 H 0.1759 0.9922 0.6975
C31 C 0.2664(6) 0.9330(6) 0.6433(4)
H20 H 0.2287 0.9313 0.6005
Cd5 Cd 0.96978(5) 0.80156(6) 0.76484(3)
Cd6 Cd 0.03022(5) 0.19844(6) 0.23516(3)
O11 O 0.5090(3) 0.4752(3) 0.4083(3)
O12 O 0.4268(3) 0.3937(3) 0.3332(3)
N7 N 0.1610(4) 0.3011(5) 0.8197(3)
N8 N 0.3138(4) 0.5431(4) 0.2517(3)
O4 O 0.9509(5) 0.3130(6) 0.6274(3)
O5 O 0.9234(4) 0.2146(4) 0.3564(3)
O6 O 0.8957(5) 0.2686(6) 0.2555(3)
O9 O 0.9936(6) 0.4431(6) 0.7531(3)
H2 H 0.9369 0.4418 0.7268
C4 C 0.9050(4) 0.3648(4) 0.4936(3)
H4 H 0.8506 0.3483 0.5138
C5 C 0.8895(4) 0.3783(4) 0.4260(3)
C6 C 0.9703(4) 0.4058(4) 0.3971(3)
H5 H 0.9601 0.4166 0.3515
C7 C 0.7885(4) 0.3599(4) 0.3830(3)
C8 C 0.7843(5) 0.3058(5) 0.3288(3)
C9 C 0.6913(5) 0.2904(5) 0.2881(3)
H6 H 0.6885 0.2556 0.2513
C10 C 0.6039(5) 0.3263(5) 0.3019(3)
H7 H 0.5421 0.3149 0.2748
C11 C 0.6065(4) 0.3790(4) 0.3556(3)
C12 C 0.6996(5) 0.3962(4) 0.3961(3)
H8 H 0.7019 0.4323 0.4320
C15 C 0.8750(5) 0.2593(5) 0.3121(4)
C16 C 0.5083(5) 0.4187(4) 0.3666(3)
O10 O 0.8957(5) 0.2314(6) 0.7555(3)
O5_2 O 0.0766(4) 0.7146(4) 0.1436(3)
O6_2 O 0.1043(5) 0.7686(6) 0.2445(3)
O7 O 0.4910(3) 0.9752(3) 0.0917(3)
O8 O 0.5732(3) 0.8937(3) 0.1668(3)
C4_2 C 0.0950(4) 0.8648(4) 0.0064(3)
C5_2 C 0.1105(4) 0.8783(4) 0.0740(3)
C6_2 C 0.0297(4) 0.9058(4) 0.1029(3)
H5_2 H 0.0399 0.9166 0.1485
C7_2 C 0.2115(4) 0.8599(4) 0.1170(3)
C8_2 C 0.2157(5) 0.8058(5) 0.1712(3)
C9_2 C 0.3087(5) 0.7904(5) 0.2119(3)
H6_2 H 0.3115 0.7556 0.2487
C10_2 C 0.3961(5) 0.8263(5) 0.1981(3)
H7_2 H 0.4579 0.8149 0.2252
C11_2 C 0.3935(4) 0.8790(4) 0.1444(3)
C12_2 C 0.3004(5) 0.8962(4) 0.1039(3)
H8_2 H 0.2981 0.9323 0.0680
C15_2 C 0.1250(5) 0.7593(5) 0.1879(4)
C16_2 C 0.4917(5) 0.9187(4) 0.1334(3)
Cd3 Cd 0.67568(3) 0.99806(3) 0.14213(2)
O4_2 O 0.0491(5) 0.8130(6) 0.8726(3)
O9_2 O 0.0064(6) 0.9431(6) 0.7469(3)
H2_2 H 0.0631 0.9418 0.7732
H4_2 H 0.1494 0.8483 0.9862
O10_2 O 0.1043(5) 0.7314(6) 0.7445(3)
N1_2 N 0.6632(4) 0.1266(4) 0.1001(3)
N2_2 N 0.6226(4) 0.2269(4) 0.0297(2)
C17_2 C 0.6031(5) 0.1492(5) 0.0448(3)
H9_2 H 0.5542 0.1158 0.0200
C18_2 C 0.7230(5) 0.1931(5) 0.1202(3)
H10_2 H 0.7735 0.1943 0.1578
C19_2 C 0.6989(5) 0.2564(5) 0.0782(3)
H11_2 H 0.7275 0.3089 0.0811
N8_2 N 0.6862(4) 0.0431(4) 0.2483(3)
N3_2 N 0.3148(4) 0.2975(4) 0.8796(3)
N5_2 N 0.6391(4) 0.4018(4) 0.8372(3)
N6_2 N 0.6862(4) 0.4569(4) 0.7483(3)
C20_2 C 0.5724(5) 0.2714(4) 0.9716(3)
C21_2 C 0.4691(5) 0.2635(4) 0.9552(3)
H12_2 H 0.4320 0.2324 0.9812
C22_2 C 0.4218(5) 0.3041(5) 0.8976(3)
C23_2 C 0.4765(5) 0.3502(5) 0.8583(3)
H13_2 H 0.4441 0.3765 0.8199
C24_2 C 0.5813(5) 0.3562(4) 0.8780(3)
C25_2 C 0.6306(5) 0.3175(5) 0.9343(3)
H14_2 H 0.7007 0.3220 0.9471
C26_2 C 0.2478(6) 0.2779(7) 0.9209(5)
H15_2 H 0.2633 0.2660 0.9663
C27_2 C 0.1539(6) 0.2791(7) 0.8831(5)
H16_2 H 0.0936 0.2667 0.8984
C28_2 C 0.2571(6) 0.3124(7) 0.8211(4)
H17_2 H 0.2840 0.3296 0.7839
C29_2 C 0.6148(5) 0.4165(5) 0.7723(4)
H18_2 H 0.5539 0.3999 0.7465
C30_2 C 0.7621(6) 0.4662(7) 0.8032(4)
H19_2 H 0.8241 0.4922 0.8025
C31_2 C 0.7336(6) 0.4330(6) 0.8567(4)
H20_2 H 0.7713 0.4313 0.8995
Cd4_2 Cd 0.67568(3) 0.50194(3) 0.64213(2)
O1_2 O 0.8574(3) 0.9638(4) 0.1581(2)
O2_2 O 0.7589(3) 0.9479(3) 0.0618(2)
C1_2 C 0.9345(4) 0.9178(4) 0.0657(3)
C13_2 C 0.8469(4) 0.9451(4) 0.0984(3)
Cd6_2 Cd 0.96978(5) 0.69844(6) 0.26484(3)
O3_2 O 0.8990(4) 0.8641(4) 0.8590(3)
H1_2 H 0.9858 0.9434 0.7050
C2_2 C 0.9198(5) 0.9030(5) 0.9975(3)
H3_2 H 0.8559 0.9117 0.9721
C3_2 C 0.9986(5) 0.8754(5) 0.9666(3)
C14_2 C 0.9803(6) 0.8517(6) 0.8945(4)
O4_3 O 0.0491(5) 0.6870(6) 0.3726(3)
O5_3 O 0.0766(4) 0.7854(4) 0.6436(3)
O7_2 O 0.4910(3) 0.5248(3) 0.5917(3)
O8_2 O 0.5732(3) 0.6063(3) 0.6668(3)
O9_3 O 0.0064(6) 0.5569(6) 0.2469(3)
H2_3 H 0.0631 0.5582 0.2732
C4_3 C 0.0950(4) 0.6352(4) 0.5064(3)
H4_3 H 0.1494 0.6517 0.4862
C5_3 C 0.1105(4) 0.6217(4) 0.5740(3)
C6_3 C 0.0297(4) 0.5942(4) 0.6029(3)
H5_3 H 0.0399 0.5834 0.6485
C7_3 C 0.2115(4) 0.6401(4) 0.6170(3)
C8_3 C 0.2157(5) 0.6942(5) 0.6712(3)
C9_3 C 0.3087(5) 0.7096(5) 0.7119(3)
H6_3 H 0.3115 0.7444 0.7487
C10_3 C 0.3961(5) 0.6737(5) 0.6981(3)
H7_3 H 0.4579 0.6851 0.7252
C11_3 C 0.3935(4) 0.6210(4) 0.6444(3)
C12_3 C 0.3004(5) 0.6038(4) 0.6039(3)
H8_3 H 0.2981 0.5677 0.5680
C15_3 C 0.1250(5) 0.7407(5) 0.6879(4)
C16_3 C 0.4917(5) 0.5813(4) 0.6334(3)
O1_3 O 0.8574(3) 0.5362(4) 0.6581(2)
O2_3 O 0.7589(3) 0.5521(3) 0.5618(2)
O3_3 O 0.8990(4) 0.6359(4) 0.3590(3)
H1_3 H 0.9858 0.5566 0.2050
N1_3 N 0.6632(4) 0.3734(4) 0.6001(3)
N2_3 N 0.6226(4) 0.2731(4) 0.5297(2)
N3_3 N 0.3148(4) 0.2025(4) 0.3796(3)
N4_2 N 0.1610(4) 0.1989(5) 0.3197(3)
N5_3 N 0.6391(4) 0.0982(4) 0.3372(3)
C1_3 C 0.9345(4) 0.5822(4) 0.5657(3)
C2_3 C 0.9198(5) 0.5970(5) 0.4975(3)
H3_3 H 0.8559 0.5883 0.4721
C3_3 C 0.9986(5) 0.6246(5) 0.4666(3)
C13_3 C 0.8469(4) 0.5549(4) 0.5984(3)
C14_3 C 0.9803(6) 0.6483(6) 0.3945(4)
C17_3 C 0.6031(5) 0.3508(5) 0.5448(3)
H9_3 H 0.5542 0.3842 0.5200
C18_3 C 0.7230(5) 0.3069(5) 0.6202(3)
H10_3 H 0.7735 0.3057 0.6578
C19_3 C 0.6989(5) 0.2436(5) 0.5782(3)
H11_3 H 0.7275 0.1911 0.5811
C20_3 C 0.5724(5) 0.2286(4) 0.4716(3)
C21_3 C 0.4691(5) 0.2365(4) 0.4552(3)
H12_3 H 0.4320 0.2676 0.4812
C22_3 C 0.4218(5) 0.1959(5) 0.3976(3)
C23_3 C 0.4765(5) 0.1498(5) 0.3583(3)
H13_3 H 0.4441 0.1235 0.3199
C24_3 C 0.5813(5) 0.1438(4) 0.3780(3)
C25_3 C 0.6306(5) 0.1825(5) 0.4343(3)
H14_3 H 0.7007 0.1780 0.4471
C26_3 C 0.2478(6) 0.2221(7) 0.4209(5)
H15_3 H 0.2633 0.2340 0.4663
C27_3 C 0.1539(6) 0.2209(7) 0.3831(5)
H16_3 H 0.0936 0.2333 0.3984
C28_3 C 0.2571(6) 0.1876(7) 0.3211(4)
H17_3 H 0.2840 0.1704 0.2839
C29_3 C 0.6148(5) 0.0835(5) 0.2723(4)
H18_3 H 0.5539 0.1001 0.2465
C30_3 C 0.7621(6) 0.0338(7) 0.3032(4)
H19_3 H 0.8241 0.0078 0.3025
C31_3 C 0.7336(6) 0.0670(6) 0.3567(4)
H20_3 H 0.7713 0.0687 0.3995
N7_2 N 0.8390(4) 0.6989(5) 0.1803(3)
O3_4 O 0.1010(4) 0.1359(4) 0.1410(3)
H1_4 H 0.0142 0.0566 0.2950
C2_4 C 0.0802(5) 0.0970(5) 0.0025(3)
H3_4 H 0.1441 0.0883 0.0279
C3_4 C 0.0014(5) 0.1246(5) 0.0334(3)
C14_4 C 0.0197(6) 0.1483(6) 0.1055(4)
O1_4 O 0.1426(3) 0.0362(4) 0.8419(2)
O2_4 O 0.2411(3) 0.0521(3) 0.9382(2)
C1_4 C 0.0655(4) 0.0822(4) 0.9343(3)
C13_4 C 0.1531(4) 0.0549(4) 0.9016(3)
O11_2 O 0.5090(3) 0.0248(3) 0.9083(3)
O12_2 O 0.4268(3) 0.1063(3) 0.8332(3)
N3_4 N 0.6852(4) 0.7025(4) 0.1204(3)
N5_4 N 0.3609(4) 0.5982(4) 0.1628(3)
C20_4 C 0.4276(5) 0.7286(4) 0.0284(3)
C21_4 C 0.5309(5) 0.7365(4) 0.0448(3)
H12_4 H 0.5680 0.7676 0.0188
C22_4 C 0.5782(5) 0.6959(5) 0.1024(3)
C23_4 C 0.5235(5) 0.6498(5) 0.1417(3)
H13_4 H 0.5559 0.6235 0.1801
C24_4 C 0.4187(5) 0.6438(4) 0.1220(3)
C25_4 C 0.3694(5) 0.6825(5) 0.0657(3)
H14_4 H 0.2993 0.6780 0.0529
C26_4 C 0.7522(6) 0.7221(7) 0.0791(5)
H15_4 H 0.7367 0.7340 0.0337
C27_4 C 0.8461(6) 0.7209(7) 0.1169(5)
H16_4 H 0.9064 0.7333 0.1016
C28_4 C 0.7429(6) 0.6876(7) 0.1789(4)
H17_4 H 0.7160 0.6704 0.2161
C29_4 C 0.3852(5) 0.5835(5) 0.2277(4)
H18_4 H 0.4461 0.6001 0.2535
C30_4 C 0.2379(6) 0.5338(7) 0.1968(4)
H19_4 H 0.1759 0.5078 0.1975
C31_4 C 0.2664(6) 0.5670(6) 0.1433(4)
H20_4 H 0.2287 0.5687 0.1005
N1_4 N 0.3368(4) 0.8734(4) 0.8999(3)
N2_4 N 0.3774(4) 0.7731(4) 0.9703(2)
C17_4 C 0.3969(5) 0.8508(5) 0.9552(3)
H9_4 H 0.4458 0.8842 0.9800
C18_4 C 0.2770(5) 0.8069(5) 0.8798(3)
H10_4 H 0.2265 0.8057 0.8422
C19_4 C 0.3011(5) 0.7436(5) 0.9218(3)
H11_4 H 0.2725 0.6911 0.9189
O4_4 O 0.9509(5) 0.1870(6) 0.1274(3)
O9_4 O 0.9936(6) 0.0569(6) 0.2531(3)
H2_4 H 0.9369 0.0582 0.2268
H4_4 H 0.8506 0.1517 0.0138
O5_4 O 0.9234(4) 0.2854(4) 0.8564(3)
C4_4 C 0.9050(4) 0.1352(4) 0.9936(3)
C5_4 C 0.8895(4) 0.1217(4) 0.9260(3)
C6_4 C 0.9703(4) 0.0942(4) 0.8971(3)
H5_4 H 0.9601 0.0834 0.8515
C7_4 C 0.7885(4) 0.1401(4) 0.8830(3)
C8_4 C 0.7843(5) 0.1942(5) 0.8288(3)
C9_4 C 0.6913(5) 0.2096(5) 0.7881(3)
H6_4 H 0.6885 0.2444 0.7513
C10_4 C 0.6039(5) 0.1737(5) 0.8019(3)
H7_4 H 0.5421 0.1851 0.7748
C11_4 C 0.6065(4) 0.1210(4) 0.8556(3)
C12_4 C 0.6996(5) 0.1038(4) 0.8961(3)
H8_4 H 0.7019 0.0677 0.9320
C15_4 C 0.8750(5) 0.2407(5) 0.8121(4)
C16_4 C 0.5083(5) 0.0813(4) 0.8666(3)
loop_
_geom_bond_atom_site_label_1
_geom_bond_atom_site_label_2
_geom_bond_site_symmetry_1
_geom_bond_site_symmetry_2
Cd1 O1 1_555 1_555
Cd2 O3 1_555 1_555
O1 C13 1_555 1_555
O2 Cd1 1_555 1_555
O3 C14 1_555 1_555
N1 Cd1 1_555 1_555
N2 C17 1_555 1_555
N3 C22 1_555 1_555
N4 C27 1_555 1_555
N5 C24 1_555 1_555
N6 C29 1_555 1_555
C1 C2 1_555 1_555
C2 H3 1_555 1_555
C3 C2 1_555 1_555
C13 O2 1_555 1_555
C17 N1 1_555 1_555
H9 C17 1_555 1_555
C18 N1 1_555 1_555
H10 C18 1_555 1_555
C19 N2 1_555 1_555
H11 C19 1_555 1_555
C20 N2 1_555 1_555
C21 C20 1_555 1_555
H12 C21 1_555 1_555
C22 C21 1_555 1_555
C23 C22 1_555 1_555
H13 C23 1_555 1_555
C24 C23 1_555 1_555
C25 C20 1_555 1_555
H14 C25 1_555 1_555
C26 N3 1_555 1_555
H15 C26 1_555 1_555
C27 C26 1_555 1_555
H16 C27 1_555 1_555
C28 N3 1_555 1_555
H17 C28 1_555 1_555
C29 N5 1_555 1_555
H18 C29 1_555 1_555
C30 N6 1_555 1_555
H19 C30 1_555 1_555
C31 N5 1_555 1_555
H20 C31 1_555 1_555
Cd5 N4 1_555 1_555
O11 Cd1 1_555 1_555
O12 Cd1 1_555 1_555
N7 Cd2 1_555 1_555
N8 Cd1 1_555 1_555
N4 C28 1_555 1_555
C1 C13 1_555 1_555
C3 C14 1_555 1_555
C18 C19 1_555 1_555
C24 C25 1_555 1_555
C30 C31 1_555 1_555
O5 C15 1_555 1_555
O6 C15 1_555 1_555
O11 C16 1_555 1_555
O12 C16 1_555 1_555
H2 O9 1_555 1_555
H4 C4 1_555 1_555
C5 C4 1_555 1_555
H5 C6 1_555 1_555
C7 C5 1_555 1_555
C8 C7 1_555 1_555
C9 C8 1_555 1_555
H6 C9 1_555 1_555
C10 C9 1_555 1_555
H7 C10 1_555 1_555
C11 C10 1_555 1_555
C12 C7 1_555 1_555
H8 C12 1_555 1_555
C15 C8 1_555 1_555
C16 C11 1_555 1_555
C5 C6 1_555 1_555
C11 C12 1_555 1_555
O5_2 C15_2 1_555 1_555
O6_2 C15_2 1_555 1_555
O7 C16_2 1_555 1_555
O8 C16_2 1_555 1_555
C5_2 C4_2 1_555 1_555
H5_2 C6_2 1_555 1_555
C7_2 C5_2 1_555 1_555
C8_2 C7_2 1_555 1_555
C9_2 C8_2 1_555 1_555
H6_2 C9_2 1_555 1_555
C10_2 C9_2 1_555 1_555
H7_2 C10_2 1_555 1_555
C11_2 C10_2 1_555 1_555
C12_2 C7_2 1_555 1_555
H8_2 C12_2 1_555 1_555
C15_2 C8_2 1_555 1_555
C16_2 C11_2 1_555 1_555
Cd3 O7 1_555 1_555
O8 Cd3 1_555 1_555
C5_2 C6_2 1_555 1_555
C11_2 C12_2 1_555 1_555
H2_2 O9_2 1_555 1_555
N2_2 C17_2 1_555 1_555
C17_2 N1_2 1_555 1_555
H9_2 C17_2 1_555 1_555
C18_2 N1_2 1_555 1_555
H10_2 C18_2 1_555 1_555
C19_2 N2_2 1_555 1_555
H11_2 C19_2 1_555 1_555
C18_2 C19_2 1_555 1_555
N3_2 C22_2 1_555 1_555
N7 C27_2 1_555 1_555
N5_2 C24_2 1_555 1_555
N6_2 C29_2 1_555 1_555
C21_2 C20_2 1_555 1_555
H12_2 C21_2 1_555 1_555
C22_2 C21_2 1_555 1_555
C23_2 C22_2 1_555 1_555
H13_2 C23_2 1_555 1_555
C24_2 C23_2 1_555 1_555
C25_2 C20_2 1_555 1_555
H14_2 C25_2 1_555 1_555
C26_2 N3_2 1_555 1_555
H15_2 C26_2 1_555 1_555
C27_2 C26_2 1_555 1_555
H16_2 C27_2 1_555 1_555
C28_2 N3_2 1_555 1_555
H17_2 C28_2 1_555 1_555
C29_2 N5_2 1_555 1_555
H18_2 C29_2 1_555 1_555
C30_2 N6_2 1_555 1_555
H19_2 C30_2 1_555 1_555
C31_2 N5_2 1_555 1_555
H20_2 C31_2 1_555 1_555
Cd4_2 N6_2 1_555 1_555
N7 C28_2 1_555 1_555
C24_2 C25_2 1_555 1_555
C30_2 C31_2 1_555 1_555
Cd3 O1_2 1_555 1_555
O1_2 C13_2 1_555 1_555
O2_2 Cd3 1_555 1_555
C13_2 O2_2 1_555 1_555
C1_2 C13_2 1_555 1_555
Cd5 O3_2 1_555 1_555
O3_2 C14_2 1_555 1_555
C2_2 H3_2 1_555 1_555
C3_2 C2_2 1_555 1_555
C3_2 C14_2 1_555 1_555
O5_3 C15_3 1_555 1_555
O10_2 C15_3 1_555 1_555
O7_2 C16_3 1_555 1_555
O8_2 C16_3 1_555 1_555
H2_3 O9_3 1_555 1_555
H4_3 C4_3 1_555 1_555
C5_3 C4_3 1_555 1_555
H5_3 C6_3 1_555 1_555
C7_3 C5_3 1_555 1_555
C8_3 C7_3 1_555 1_555
C9_3 C8_3 1_555 1_555
H6_3 C9_3 1_555 1_555
C10_3 C9_3 1_555 1_555
H7_3 C10_3 1_555 1_555
C11_3 C10_3 1_555 1_555
C12_3 C7_3 1_555 1_555
H8_3 C12_3 1_555 1_555
C15_3 C8_3 1_555 1_555
C16_3 C11_3 1_555 1_555
Cd4_2 O7_2 1_555 1_555
O8_2 Cd4_2 1_555 1_555
C5_3 C6_3 1_555 1_555
C11_3 C12_3 1_555 1_555
Cd4_2 O1_3 1_555 1_555
Cd6_2 O3_3 1_555 1_555
O1_3 C13_3 1_555 1_555
O2_3 Cd4_2 1_555 1_555
O3_3 C14_3 1_555 1_555
N1_3 Cd4_2 1_555 1_555
N2_3 C17_3 1_555 1_555
N3_3 C22_3 1_555 1_555
N4_2 C27_3 1_555 1_555
N5_3 C24_3 1_555 1_555
N8_2 C29_3 1_555 1_555
C1_3 C2_3 1_555 1_555
C2_3 H3_3 1_555 1_555
C3_3 C2_3 1_555 1_555
C13_3 O2_3 1_555 1_555
C17_3 N1_3 1_555 1_555
H9_3 C17_3 1_555 1_555
C18_3 N1_3 1_555 1_555
H10_3 C18_3 1_555 1_555
C19_3 N2_3 1_555 1_555
H11_3 C19_3 1_555 1_555
C20_3 N2_3 1_555 1_555
C21_3 C20_3 1_555 1_555
H12_3 C21_3 1_555 1_555
C22_3 C21_3 1_555 1_555
C23_3 C22_3 1_555 1_555
H13_3 C23_3 1_555 1_555
C24_3 C23_3 1_555 1_555
C25_3 C20_3 1_555 1_555
H14_3 C25_3 1_555 1_555
C26_3 N3_3 1_555 1_555
H15_3 C26_3 1_555 1_555
C27_3 C26_3 1_555 1_555
H16_3 C27_3 1_555 1_555
C28_3 N3_3 1_555 1_555
H17_3 C28_3 1_555 1_555
C29_3 N5_3 1_555 1_555
H18_3 C29_3 1_555 1_555
C30_3 N8_2 1_555 1_555
H19_3 C30_3 1_555 1_555
C31_3 N5_3 1_555 1_555
H20_3 C31_3 1_555 1_555
Cd6 N4_2 1_555 1_555
N7_2 Cd6_2 1_555 1_555
N4_2 C28_3 1_555 1_555
C1_3 C13_3 1_555 1_555
C3_3 C14_3 1_555 1_555
C18_3 C19_3 1_555 1_555
C24_3 C25_3 1_555 1_555
C30_3 C31_3 1_555 1_555
Cd6 O3_4 1_555 1_555
O3_4 C14_4 1_555 1_555
C2_4 H3_4 1_555 1_555
C3_4 C2_4 1_555 1_555
C3_4 C14_4 1_555 1_555
Cd4 O1_4 1_555 1_555
O1_4 C13_4 1_555 1_555
O2_4 Cd4 1_555 1_555
C13_4 O2_4 1_555 1_555
O11_2 Cd4 1_555 1_555
O12_2 Cd4 1_555 1_555
C1_4 C13_4 1_555 1_555
N3_4 C22_4 1_555 1_555
N7_2 C27_4 1_555 1_555
N5_4 C24_4 1_555 1_555
N8 C29_4 1_555 1_555
C21_4 C20_4 1_555 1_555
H12_4 C21_4 1_555 1_555
C22_4 C21_4 1_555 1_555
C23_4 C22_4 1_555 1_555
H13_4 C23_4 1_555 1_555
C24_4 C23_4 1_555 1_555
C25_4 C20_4 1_555 1_555
H14_4 C25_4 1_555 1_555
C26_4 N3_4 1_555 1_555
H15_4 C26_4 1_555 1_555
C27_4 C26_4 1_555 1_555
H16_4 C27_4 1_555 1_555
C28_4 N3_4 1_555 1_555
H17_4 C28_4 1_555 1_555
C29_4 N5_4 1_555 1_555
H18_4 C29_4 1_555 1_555
C30_4 N8 1_555 1_555
H19_4 C30_4 1_555 1_555
C31_4 N5_4 1_555 1_555
H20_4 C31_4 1_555 1_555
N7_2 C28_4 1_555 1_555
C24_4 C25_4 1_555 1_555
C30_4 C31_4 1_555 1_555
N2_4 C17_4 1_555 1_555
C17_4 N1_4 1_555 1_555
H9_4 C17_4 1_555 1_555
C18_4 N1_4 1_555 1_555
H10_4 C18_4 1_555 1_555
C19_4 N2_4 1_555 1_555
H11_4 C19_4 1_555 1_555
C18_4 C19_4 1_555 1_555
H2_4 O9_4 1_555 1_555
O5_4 C15_4 1_555 1_555
O10 C15_4 1_555 1_555
O11_2 C16_4 1_555 1_555
O12_2 C16_4 1_555 1_555
C5_4 C4_4 1_555 1_555
H5_4 C6_4 1_555 1_555
C7_4 C5_4 1_555 1_555
C8_4 C7_4 1_555 1_555
C9_4 C8_4 1_555 1_555
H6_4 C9_4 1_555 1_555
C10_4 C9_4 1_555 1_555
H7_4 C10_4 1_555 1_555
C11_4 C10_4 1_555 1_555
C12_4 C7_4 1_555 1_555
H8_4 C12_4 1_555 1_555
C15_4 C8_4 1_555 1_555
C16_4 C11_4 1_555 1_555
C5_4 C6_4 1_555 1_555
C11_4 C12_4 1_555 1_555

#END
